# Generated by pormake.
# Topology ssa, (4,4)-cn, num edge types: 1
# Building blocks:
#     Node 0, Type 0, BuildingBlock: ESEHIV_clean_sbu_0, # of connection points: 4
#     Node 1, Type 0, BuildingBlock: ESEHIV_clean_sbu_0, # of connection points: 4
#     Node 2, Type 0, BuildingBlock: ESEHIV_clean_sbu_0, # of connection points: 4
#     Node 3, Type 0, BuildingBlock: ESEHIV_clean_sbu_0, # of connection points: 4
#     Node 4, Type 0, BuildingBlock: ESEHIV_clean_sbu_0, # of connection points: 4
#     Node 5, Type 0, BuildingBlock: ESEHIV_clean_sbu_0, # of connection points: 4
#     Node 6, Type 1, BuildingBlock: ESEHIV_clean_sbu_0, # of connection points: 4
#     Node 7, Type 1, BuildingBlock: ESEHIV_clean_sbu_0, # of connection points: 4
#     Node 8, Type 1, BuildingBlock: ESEHIV_clean_sbu_0, # of connection points: 4
#     Node 9, Type 1, BuildingBlock: ESEHIV_clean_sbu_0, # of connection points: 4
#     Node 10, Type 1, BuildingBlock: ESEHIV_clean_sbu_0, # of connection points: 4
#     Node 11, Type 1, BuildingBlock: ESEHIV_clean_sbu_0, # of connection points: 4
#     Edge 12, Type (0, 1), BuildingBlock: KIFKEQ_clean_linker_1, # of connection points: 2
#     Edge 13, Type (0, 1), BuildingBlock: KIFKEQ_clean_linker_1, # of connection points: 2
#     Edge 14, Type (0, 1), BuildingBlock: KIFKEQ_clean_linker_1, # of connection points: 2
#     Edge 15, Type (0, 1), BuildingBlock: KIFKEQ_clean_linker_1, # of connection points: 2
#     Edge 16, Type (0, 1), BuildingBlock: KIFKEQ_clean_linker_1, # of connection points: 2
#     Edge 17, Type (0, 1), BuildingBlock: KIFKEQ_clean_linker_1, # of connection points: 2
#     Edge 18, Type (0, 1), BuildingBlock: KIFKEQ_clean_linker_1, # of connection points: 2
#     Edge 19, Type (0, 1), BuildingBlock: KIFKEQ_clean_linker_1, # of connection points: 2
#     Edge 20, Type (0, 1), BuildingBlock: KIFKEQ_clean_linker_1, # of connection points: 2
#     Edge 21, Type (0, 1), BuildingBlock: KIFKEQ_clean_linker_1, # of connection points: 2
#     Edge 22, Type (0, 1), BuildingBlock: KIFKEQ_clean_linker_1, # of connection points: 2
#     Edge 23, Type (0, 1), BuildingBlock: KIFKEQ_clean_linker_1, # of connection points: 2
#     Edge 24, Type (0, 1), BuildingBlock: KIFKEQ_clean_linker_1, # of connection points: 2
#     Edge 25, Type (0, 1), BuildingBlock: KIFKEQ_clean_linker_1, # of connection points: 2
#     Edge 26, Type (0, 1), BuildingBlock: KIFKEQ_clean_linker_1, # of connection points: 2
#     Edge 27, Type (0, 1), BuildingBlock: KIFKEQ_clean_linker_1, # of connection points: 2
#     Edge 28, Type (0, 1), BuildingBlock: KIFKEQ_clean_linker_1, # of connection points: 2
#     Edge 29, Type (0, 1), BuildingBlock: KIFKEQ_clean_linker_1, # of connection points: 2
#     Edge 30, Type (0, 1), BuildingBlock: KIFKEQ_clean_linker_1, # of connection points: 2
#     Edge 31, Type (0, 1), BuildingBlock: KIFKEQ_clean_linker_1, # of connection points: 2
#     Edge 32, Type (0, 1), BuildingBlock: KIFKEQ_clean_linker_1, # of connection points: 2
#     Edge 33, Type (0, 1), BuildingBlock: KIFKEQ_clean_linker_1, # of connection points: 2
#     Edge 34, Type (0, 1), BuildingBlock: KIFKEQ_clean_linker_1, # of connection points: 2
#     Edge 35, Type (0, 1), BuildingBlock: KIFKEQ_clean_linker_1, # of connection points: 2
# Relax obj value: 0.034
# Max RMSD: 0.106
# Mean RMSD: 0.096
data_MOF--net-ssa--node1-ESEHIV_clean_sbu_0--node2-ESEHIV_clean_sbu_0--edge1-KIFKEQ_clean_linker_1
_symmetry_space_group_name_H-M    P1
_symmetry_Int_Tables_number       1
_symmetry_cell_setting            triclinic
loop_
_symmetry_equiv_pos_as_xyz
'x, y, z'
_cell_length_a     48.912605
_cell_length_b     53.075472
_cell_length_c     36.912952
_cell_angle_alpha  88.096566
_cell_angle_beta   91.174582
_cell_angle_gamma 122.49318
loop_
_atom_site_label
_atom_site_type_symbol
_atom_site_fract_x
_atom_site_fract_y
_atom_site_fract_z
_atom_type_partial_charge
Cu0 Cu 0.0439 0.52791 1.01165 0.0
N1 N 0.05191 0.50694 0.97839 0.0
N2 N 0.0423 0.46802 0.9464 0.0
C3 C 1.03087 0.478 0.97142 0.0
C4 C 0.07181 0.49171 0.9372 0.0
C5 C 0.07779 0.51572 0.95721 0.0
O6 O 0.99862 0.5171 1.0028 0.0
C7 C 0.08834 0.53047 0.06141 0.0
O8 O 0.1062 0.54533 0.03302 0.0
H9 H 1.00725 0.46475 0.98396 0.0
H10 H 0.09946 0.5379 0.9564 0.0
N11 N 0.06974 0.56902 1.00312 0.0
N12 N 0.09585 0.61729 1.01624 0.0
C13 C 0.07614 0.58895 1.0286 0.0
C14 C 0.08575 0.58523 0.9733 0.0
C15 C 0.10218 0.61516 0.98146 0.0
C16 C 0.99286 0.52041 0.96949 0.0
O17 O 1.01656 0.52996 0.94612 0.0
H18 H 0.06726 0.58262 0.05611 0.0
H19 H 0.08566 0.57601 0.94759 0.0
O20 O 0.05782 0.51997 0.0594 0.0
H21 H 0.08798 0.49166 0.91767 0.0
H22 H 0.11756 0.63382 0.96331 0.0
Cu23 Cu 0.53642 1.01523 0.53986 0.0
N24 N 0.55258 1.00837 0.49766 0.0
N25 N 0.56056 0.98249 0.45656 0.0
C26 C 0.5438 0.98104 0.48619 0.0
C27 C 0.58049 1.01204 0.44899 0.0
C28 C 0.57562 0.02788 0.47435 0.0
O29 O 0.49005 0.98681 0.53829 0.0
C30 C 0.58008 1.00621 0.58201 0.0
O31 O 0.58838 1.00052 0.5512 0.0
H32 H 0.52583 0.96048 0.49991 0.0
H33 H 0.58871 0.05191 0.47625 0.0
N34 N 0.54508 0.05436 0.54416 0.0
N35 N 0.54954 0.09434 0.56998 0.0
C36 C 0.54323 0.06629 0.57522 0.0
C37 C 0.55308 0.07572 0.51839 0.0
C38 C 0.55575 0.10023 0.53413 0.0
C39 C 0.47364 0.99244 0.51611 0.0
O40 O 0.48823 0.01832 0.49849 0.0
H41 H 0.53647 0.05421 0.60102 0.0
H42 H 0.55613 0.07346 0.49 0.0
O43 O 0.55608 1.00936 0.58275 0.0
H44 H 0.59833 0.02167 0.42755 0.0
H45 H 0.56173 0.12079 0.52008 0.0
Cu46 Cu 0.54084 0.52033 0.04088 0.0
N47 N 0.55066 0.49055 0.03651 0.0
N48 N 0.55589 0.45558 1.01018 0.0
C49 C 0.54686 0.47562 1.00588 0.0
C50 C 0.56578 0.45815 0.0451 0.0
C51 C 0.56262 0.47966 0.06114 0.0
O52 O 0.55376 0.54171 0.99452 0.0
C53 C 0.48499 0.4852 0.07944 0.0
O54 O 0.50528 0.48074 0.09806 0.0
H55 H 0.53721 0.47923 0.98101 0.0
H56 H 0.5686 0.4868 0.08885 0.0
N57 N 0.56283 0.54731 0.07876 0.0
N58 N 0.57692 0.5848 0.11684 0.0
C59 C 0.55468 0.56571 0.09271 0.0
C60 C 0.59089 0.55463 0.09503 0.0
C61 C 0.59957 0.57756 0.11845 0.0
C62 C 0.57219 0.56994 0.99048 0.0
O63 O 0.5773 0.58701 1.01798 0.0
H64 H 0.53375 0.56614 0.08368 0.0
H65 H 0.60465 0.54469 0.0894 0.0
O66 O 0.49509 0.50152 0.05073 0.0
H67 H 0.57505 0.44567 0.0582 0.0
H68 H 0.62133 0.58838 0.13487 0.0
Cu69 Cu 0.04692 0.51674 0.57398 0.0
N70 N 0.0737 0.50218 0.58232 0.0
N71 N 0.09963 0.47965 0.56906 0.0
C72 C 0.08059 0.48923 0.55653 0.0
C73 C 0.10507 0.48697 0.6043 0.0
C74 C 0.08871 0.50068 0.61254 0.0
O75 O 0.06045 0.5389 0.52669 0.0
C76 C 0.99547 0.47228 0.61445 0.0
O77 O 1.01768 0.48711 0.63925 0.0
H78 H 0.07213 0.48736 0.52883 0.0
H79 H 0.08762 0.50866 0.6387 0.0
N80 N 0.05339 0.54467 0.60799 0.0
N81 N 0.04124 0.57146 0.64166 0.0
C82 C 1.03152 0.55181 0.61477 0.0
C83 C 0.0781 0.56058 0.63113 0.0
C84 C 0.07053 0.57703 0.65221 0.0
C85 C 0.0907 0.55939 0.52517 0.0
O86 O 0.10861 0.56285 0.55387 0.0
H87 H 1.00831 0.54179 0.60111 0.0
H88 H 0.09986 0.56002 0.63289 0.0
O89 O 1.00227 0.48153 0.58135 0.0
H90 H 0.11946 0.48244 0.6228 0.0
H91 H 0.08528 0.59175 0.67368 0.0
Cu92 Cu 0.54222 0.02858 0.07687 0.0
N93 N 0.52233 0.04984 0.08246 0.0
N94 N 0.49699 0.07284 0.0651 0.0
C95 C 0.50855 0.05618 0.05483 0.0
C96 C 0.50356 0.07701 0.1009 0.0
C97 C 0.51901 0.06251 0.11165 0.0
O98 O 0.5632 0.04051 1.02858 0.0
C99 C 0.50192 0.97951 0.12219 0.0
O100 O 0.51863 1.00051 0.14578 0.0
H101 H 0.50838 0.04973 1.02727 0.0
H102 H 0.52758 0.06166 0.13861 0.0
N103 N 0.57626 0.03992 0.10938 0.0
N104 N 0.61341 0.036 0.14049 0.0
C105 C 0.59014 0.02414 0.11484 0.0
C106 C 0.59145 0.06294 0.13208 0.0
C107 C 0.61429 0.06039 0.15166 0.0
C108 C 0.58094 0.06884 1.02255 0.0
O109 O 0.58303 0.08664 0.04783 0.0
H110 H 0.58227 1.00355 0.10121 0.0
H111 H 0.58606 0.08006 0.13459 0.0
O112 O 0.50839 0.98619 0.08841 0.0
H113 H 0.49793 0.08983 0.11795 0.0
H114 H 0.63003 0.07508 0.17265 0.0
Cu115 Cu 0.5396 0.50641 0.51033 0.0
N116 N 0.5721 0.53132 0.47749 0.0
N117 N 0.60238 0.57016 0.43999 0.0
C118 C 0.57238 0.55084 0.45314 0.0
C119 C 0.6216 0.56202 0.45609 0.0
C120 C 0.60278 0.53795 0.47911 0.0
O121 O 0.50039 0.50763 0.5 0.0
C122 C 0.55592 0.5012 0.58655 0.0
O123 O 0.52865 0.47498 0.58893 0.0
H124 H 0.55166 0.55249 0.44732 0.0
H125 H 0.61128 0.52743 0.49777 0.0
N126 N 0.52704 0.4674 0.50073 0.0
N127 N 0.51605 0.42108 0.50963 0.0
C128 C 0.53497 0.44991 0.5191 0.0
C129 C 0.50314 0.44928 0.47787 0.0
C130 C 0.49618 0.42064 0.4834 0.0
C131 C 0.49728 0.52976 0.4933 0.0
O132 O 0.52179 0.55699 0.49943 0.0
H133 H 0.55233 0.45764 0.54112 0.0
H134 H 0.49013 0.45608 0.4603 0.0
O135 O 0.56147 0.51773 0.55816 0.0
H136 H 0.64764 0.57374 0.45314 0.0
H137 H 0.47664 0.40078 0.47083 0.0
Cu138 Cu 0.25624 0.47788 0.28769 0.0
N139 N 0.26336 0.45784 0.25217 0.0
N140 N 0.28975 0.44824 0.21178 0.0
C141 C 0.29249 0.46527 0.23969 0.0
C142 C 0.25763 0.42938 0.20647 0.0
C143 C 0.2414 0.43535 0.23147 0.0
O144 O 0.29712 0.50096 0.31605 0.0
C145 C 0.20687 0.48181 0.25329 0.0
O146 O 0.19126 0.45339 0.26292 0.0
H147 H 0.31522 0.48352 0.25007 0.0
H148 H 0.21543 0.4244 0.23388 0.0
N149 N 0.22623 0.4507 0.32155 0.0
N150 N 0.19862 0.43488 0.37341 0.0
C151 C 0.21939 0.45875 0.35249 0.0
C152 C 0.20928 0.42062 0.32274 0.0
C153 C 0.19197 0.41076 0.35471 0.0
C154 C 0.3045 0.48429 0.33402 0.0
O155 O 0.28602 0.45526 0.33003 0.0
H156 H 0.22948 0.4818 0.35933 0.0
H157 H 0.20989 0.40689 0.3022 0.0
O158 O 0.23679 0.49845 0.26252 0.0
H159 H 0.24667 0.41256 0.18596 0.0
H160 H 0.17624 0.38772 0.36374 0.0
Cu161 Cu 0.80121 0.23045 0.78489 0.0
N162 N 0.79344 0.19968 0.75483 0.0
N163 N 0.76464 0.15767 0.72397 0.0
C164 C 0.76442 0.17985 0.74054 0.0
C165 C 0.79524 0.16404 0.72776 0.0
C166 C 0.81294 0.18996 0.74693 0.0
O167 O 0.76305 0.21325 0.81749 0.0
C168 C 0.83415 0.2734 0.72975 0.0
O169 O 0.84515 0.25589 0.72584 0.0
H170 H 0.74314 0.18085 0.74421 0.0
H171 H 0.83795 0.20047 0.75546 0.0
N172 N 0.83777 0.24174 0.81318 0.0
N173 N 0.88495 0.27199 0.84085 0.0
C174 C 0.86111 0.27017 0.81982 0.0
C175 C 0.84699 0.2248 0.83061 0.0
C176 C 0.87613 0.24346 0.84788 0.0
C177 C 0.75258 0.18696 0.83077 0.0
O178 O 0.76816 0.17397 0.82306 0.0
H179 H 0.86022 0.28914 0.80992 0.0
H180 H 0.83359 0.20066 0.83066 0.0
O181 O 0.8127 0.26623 0.75415 0.0
H182 H 0.80413 0.15076 0.71793 0.0
H183 H 0.88981 0.23657 0.86408 0.0
Cu184 Cu 0.60896 0.80588 0.28572 0.0
N185 N 0.63801 0.84118 0.26041 0.0
N186 N 0.65775 0.8873 0.23775 0.0
C187 C 0.63187 0.86254 0.25242 0.0
C188 C 0.68115 0.88122 0.23607 0.0
C189 C 0.66898 0.85278 0.25042 0.0
O190 O 0.58164 0.81622 0.3123 0.0
C191 C 0.60683 0.76734 0.23493 0.0
O192 O 0.63808 0.78684 0.23807 0.0
H193 H 0.60885 0.86004 0.25781 0.0
H194 H 0.68221 0.84187 0.2544 0.0
N195 N 0.6314 0.79589 0.3183 0.0
N196 N 0.64266 0.76558 0.34882 0.0
C197 C 0.62007 0.7678 0.33011 0.0
C198 C 0.66229 0.81223 0.33004 0.0
C199 C 0.66934 0.7935 0.34894 0.0
C200 C 0.59413 0.83224 0.34033 0.0
O201 O 0.62228 0.83775 0.35213 0.0
H202 H 0.59631 0.74903 0.32304 0.0
H203 H 0.67885 0.83581 0.32416 0.0
O204 O 0.58748 0.77161 0.25264 0.0
H205 H 0.70559 0.89657 0.2264 0.0
H206 H 0.69244 0.79978 0.36103 0.0
Cu207 Cu 0.79218 0.56091 0.80594 0.0
N208 N 0.82912 0.58479 0.77761 0.0
N209 N 0.87588 0.60037 0.74964 0.0
C210 C 0.85007 0.57744 0.76707 0.0
C211 C 0.87095 0.62306 0.74898 0.0
C212 C 0.8422 0.61345 0.76653 0.0
O213 O 0.80393 0.53958 0.84165 0.0
C214 C 0.7483 0.55649 0.75389 0.0
O215 O 0.76984 0.58533 0.75486 0.0
H216 H 0.84662 0.55578 0.77231 0.0
H217 H 0.83202 0.62671 0.7717 0.0
N218 N 0.78528 0.58614 0.83269 0.0
N219 N 0.75921 0.60513 0.85756 0.0
C220 C 0.75644 0.58293 0.83788 0.0
C221 C 0.80713 0.61109 0.84996 0.0
C222 C 0.79105 0.62285 0.86551 0.0
C223 C 0.80993 0.51948 0.83553 0.0
O224 O 0.80233 0.50691 0.80376 0.0
H225 H 0.73378 0.56435 0.82786 0.0
H226 H 0.83289 0.62011 0.85102 0.0
O227 O 0.75338 0.53918 0.77394 0.0
H228 H 0.88743 0.64526 0.73772 0.0
H229 H 0.80195 0.64291 0.88119 0.0
Cu230 Cu 0.25406 0.77806 0.29923 0.0
N231 N 0.22432 0.77468 0.26412 0.0
N232 N 0.19653 0.7613 0.21216 0.0
C233 C 0.21648 0.75792 0.23466 0.0
C234 C 0.19146 0.7809 0.22825 0.0
C235 C 0.20886 0.78931 0.26025 0.0
O236 O 0.23542 0.73841 0.32414 0.0
C237 C 0.30329 0.82005 0.25432 0.0
O238 O 0.284 0.83011 0.25611 0.0
H239 H 0.22544 0.7436 0.22989 0.0
H240 H 0.21083 0.8056 0.2787 0.0
N241 N 0.25934 0.80442 0.33489 0.0
N242 N 0.28276 0.83703 0.37942 0.0
C243 C 0.28703 0.82251 0.35293 0.0
C244 C 0.23667 0.80744 0.35054 0.0
C245 C 0.2511 0.82772 0.37786 0.0
C246 C 0.20568 0.72543 0.33377 0.0
O247 O 0.18994 0.73842 0.32471 0.0
H248 H 0.30978 0.82471 0.34686 0.0
H249 H 0.21125 0.79516 0.34337 0.0
O250 O 0.29585 0.79636 0.27291 0.0
H251 H 0.17699 0.7892 0.21725 0.0
H252 H 0.23899 0.8343 0.39592 0.0
Cu253 Cu 0.50698 0.24969 0.79534 0.0
N254 N 0.48436 0.25561 0.75834 0.0
N255 N 0.47669 0.27469 0.70734 0.0
C256 C 0.49824 0.27742 0.73275 0.0
C257 C 0.44809 0.25017 0.71732 0.0
C258 C 0.45289 0.23842 0.74891 0.0
O259 O 0.5318 0.28737 0.8226 0.0
C260 C 0.51021 0.2095 0.75303 0.0
O261 O 0.47891 0.19746 0.75705 0.0
H262 H 0.52391 0.29432 0.73217 0.0
H263 H 0.43495 0.21828 0.76331 0.0
N264 N 0.47805 0.22092 0.82862 0.0
N265 N 0.46008 0.18719 0.87415 0.0
C266 C 0.48342 0.20256 0.84904 0.0
C267 C 0.45034 0.21704 0.84114 0.0
C268 C 0.43918 0.19621 0.86931 0.0
C269 C 0.51623 0.29986 0.82959 0.0
O270 O 0.48662 0.2878 0.81687 0.0
H271 H 0.50496 0.20173 0.8468 0.0
H272 H 0.43966 0.22933 0.83143 0.0
O273 O 0.52958 0.23345 0.77008 0.0
H274 H 0.42541 0.24131 0.70277 0.0
H275 H 0.41779 0.18877 0.88546 0.0
H276 H 0.15256 0.55177 0.06938 0.0
H277 H 0.06176 0.49887 0.12641 0.0
H278 H 0.18029 0.54275 0.118 0.0
H279 H 0.09007 0.49053 0.17645 0.0
H280 H 0.1431 0.45014 0.234 0.0
H281 H 0.11448 0.46373 0.19164 0.0
H282 H 0.20111 0.5515 0.17712 0.0
H283 H 0.23039 0.53727 0.21907 0.0
C284 C 0.13839 0.53841 0.09258 0.0
C285 C 0.10462 0.52587 0.09356 0.0
C286 C 0.15459 0.53347 0.12091 0.0
C287 C 0.13777 0.51588 0.15161 0.0
C288 C 0.10401 0.50387 0.15315 0.0
C289 C 0.08766 0.50877 0.1245 0.0
C290 C 0.15623 0.4725 0.22206 0.0
C291 C 0.18938 0.49248 0.22994 0.0
C292 C 0.13951 0.48042 0.19779 0.0
C293 C 0.15518 0.50874 0.18043 0.0
C294 C 0.18813 0.52924 0.18929 0.0
C295 C 0.205 0.52121 0.21365 0.0
H296 H 0.64007 1.01394 0.58486 0.0
H297 H 0.57402 0.02574 0.6472 0.0
H298 H 0.68422 0.04677 0.62531 0.0
H299 H 0.61815 0.05816 0.6879 0.0
H300 H 0.7566 0.10346 0.71381 0.0
H301 H 0.70959 0.05979 0.68693 0.0
H302 H 0.66333 0.10946 0.6716 0.0
H303 H 0.71009 0.15294 0.6976 0.0
C304 C 0.6347 0.02269 0.60787 0.0
C305 C 0.60371 0.01787 0.61223 0.0
C306 C 0.66004 0.04147 0.63112 0.0
C307 C 0.65476 0.05562 0.65915 0.0
C308 C 0.62303 0.0481 0.66592 0.0
C309 C 0.59771 0.02936 0.64272 0.0
C310 C 0.73648 0.10511 0.70453 0.0
C311 C 0.73717 0.13178 0.70798 0.0
C312 C 0.70948 0.08001 0.6894 0.0
C313 C 0.68259 0.08107 0.67771 0.0
C314 C 0.68329 0.10766 0.68129 0.0
C315 C 0.71023 0.13269 0.69611 0.0
H316 H 0.5267 0.59208 0.1303 0.0
H317 H 0.63025 0.6348 0.14297 0.0
H318 H 0.52996 0.63534 0.15704 0.0
H319 H 0.63325 0.67707 0.17029 0.0
H320 H 0.63849 0.76288 0.17885 0.0
H321 H 0.62854 0.71824 0.15013 0.0
H322 H 0.54217 0.66444 0.21442 0.0
H323 H 0.5521 0.70991 0.24322 0.0
C324 C 0.55013 0.61054 0.13876 0.0
C325 C 0.57821 0.6097 0.13415 0.0
C326 C 0.55193 0.63528 0.15443 0.0
C327 C 0.58192 0.66001 0.16555 0.0
C328 C 0.60977 0.65881 0.16152 0.0
C329 C 0.60797 0.63419 0.14613 0.0
C330 C 0.61706 0.74163 0.18664 0.0
C331 C 0.59623 0.74008 0.21358 0.0
C332 C 0.61149 0.71588 0.17031 0.0
C333 C 0.58497 0.68747 0.18045 0.0
C334 C 0.56291 0.6859 0.20594 0.0
C335 C 0.56849 0.71197 0.22237 0.0
H336 H 0.99864 0.58147 0.60718 0.0
H337 H 0.041 0.5845 0.71194 0.0
H338 H 0.96162 0.59261 0.63485 0.0
H339 H 1.00434 0.59632 0.7397 0.0
H340 H 0.90091 0.56872 0.77597 0.0
H341 H 0.94504 0.56651 0.75038 0.0
H342 H 0.95801 0.63098 0.66687 0.0
H343 H 0.91317 0.63264 0.6921 0.0
C344 C 1.00025 0.58486 0.63609 0.0
C345 C 1.02245 0.58179 0.65746 0.0
C346 C 0.97929 0.59155 0.65189 0.0
C347 C 0.97996 0.59517 0.68948 0.0
C348 C 1.00307 0.59333 0.71069 0.0
C349 C 1.02424 0.58684 0.69479 0.0
C350 C 0.91312 0.58238 0.75212 0.0
C351 C 0.90331 0.6006 0.73578 0.0
C352 C 0.9387 0.58143 0.73775 0.0
C353 C 0.95499 0.59858 0.70661 0.0
C354 C 0.94574 0.61737 0.69076 0.0
C355 C 0.92024 0.61847 0.70531 0.0
H356 H 0.49663 0.9548 0.18928 0.0
H357 H 0.44533 0.93737 0.08754 0.0
H358 H 0.44945 0.91157 0.21725 0.0
H359 H 0.39769 0.89349 0.11563 0.0
H360 H 0.31004 0.85439 0.19513 0.0
H361 H 0.35821 0.88742 0.1596 0.0
H362 H 0.41133 0.85754 0.22281 0.0
H363 H 0.36242 0.82415 0.25896 0.0
C364 C 0.47541 0.94134 0.17259 0.0
C365 C 0.47479 0.94981 0.13613 0.0
C366 C 0.4483 0.91629 0.18869 0.0
C367 C 0.41943 0.89895 0.16899 0.0
C368 C 0.41933 0.90648 0.13188 0.0
C369 C 0.44674 0.9315 0.11559 0.0
C370 C 0.33184 0.85446 0.2013 0.0
C371 C 0.33231 0.8367 0.23024 0.0
C372 C 0.35954 0.87333 0.18055 0.0
C373 C 0.38894 0.87541 0.18814 0.0
C374 C 0.38922 0.85678 0.21627 0.0
C375 C 0.36115 0.83746 0.2369 0.0
H376 H 0.56286 0.41708 0.54401 0.0
H377 H 0.45982 0.36866 0.52372 0.0
H378 H 0.55477 0.3787 0.58869 0.0
H379 H 0.45152 0.33077 0.56872 0.0
H380 H 0.4471 0.2587 0.64184 0.0
H381 H 0.45867 0.29126 0.58837 0.0
H382 H 0.5328 0.36635 0.64854 0.0
H383 H 0.52158 0.33372 0.70138 0.0
C384 C 0.53856 0.39799 0.54877 0.0
C385 C 0.512 0.39597 0.53058 0.0
C386 C 0.53386 0.37612 0.57447 0.0
C387 C 0.50243 0.35191 0.58274 0.0
C388 C 0.47608 0.34894 0.56284 0.0
C389 C 0.48084 0.37069 0.53694 0.0
C390 C 0.4658 0.28218 0.64351 0.0
C391 C 0.48341 0.29371 0.67575 0.0
C392 C 0.4725 0.30082 0.61291 0.0
C393 C 0.49679 0.3314 0.61407 0.0
C394 C 0.51448 0.34279 0.64635 0.0
C395 C 0.50794 0.32414 0.67675 0.0
H396 H 0.54241 0.92783 0.48568 0.0
H397 H 0.57666 0.98113 0.38672 0.0
H398 H 0.54399 0.88793 0.45697 0.0
H399 H 0.5789 0.94137 0.35818 0.0
H400 H 0.56009 0.85516 0.30839 0.0
H401 H 0.54742 0.88941 0.33559 0.0
H402 H 0.58672 0.88092 0.43775 0.0
H403 H 0.59919 0.84706 0.41073 0.0
C404 C 0.54993 0.93099 0.45767 0.0
C405 C 0.55958 0.95798 0.43873 0.0
C406 C 0.5511 0.90811 0.44123 0.0
C407 C 0.56174 0.91133 0.4052 0.0
C408 C 0.57033 0.93789 0.38583 0.0
C409 C 0.56941 0.9609 0.40238 0.0
C410 C 0.56515 0.86002 0.33688 0.0
C411 C 0.58042 0.84816 0.35745 0.0
C412 C 0.55831 0.87997 0.35239 0.0
C413 C 0.56611 0.88812 0.38895 0.0
C414 C 0.57998 0.87504 0.40973 0.0
C415 C 0.5872 0.85559 0.39417 0.0
H416 H 0.62435 0.62704 0.97974 0.0
H417 H 0.57244 0.53993 0.93189 0.0
H418 H 0.67003 0.64239 0.93966 0.0
H419 H 0.61817 0.555 0.89267 0.0
H420 H 0.70298 0.58714 0.82194 0.0
H421 H 0.65568 0.58541 0.84531 0.0
H422 H 0.70886 0.62734 0.94312 0.0
H423 H 0.75607 0.6293 0.9195 0.0
C424 C 0.62226 0.61143 0.96002 0.0
C425 C 0.59503 0.58202 0.95961 0.0
C426 C 0.64858 0.62017 0.93726 0.0
C427 C 0.64809 0.59971 0.9136 0.0
C428 C 0.61945 0.57139 0.91051 0.0
C429 C 0.59317 0.56266 0.93319 0.0
C430 C 0.70459 0.59623 0.84828 0.0
C431 C 0.73303 0.60787 0.8692 0.0
C432 C 0.67755 0.59533 0.86161 0.0
C433 C 0.67834 0.60597 0.89621 0.0
C434 C 0.70749 0.6193 0.91614 0.0
C435 C 0.73457 0.62032 0.90271 0.0
H436 H 0.0634 0.56377 0.46014 0.0
H437 H 0.15459 0.60264 0.51742 0.0
H438 H 0.09088 0.60023 0.41016 0.0
H439 H 0.1815 0.63914 0.46876 0.0
H440 H 0.23014 0.69383 0.36733 0.0
H441 H 0.20174 0.65061 0.40922 0.0
H442 H 0.11427 0.65139 0.39559 0.0
H443 H 0.14207 0.69342 0.35333 0.0
C444 C 0.08922 0.57994 0.4621 0.0
C445 C 0.10655 0.58016 0.4931 0.0
C446 C 0.10507 0.60105 0.4335 0.0
C447 C 0.13868 0.62297 0.43511 0.0
C448 C 0.15589 0.62256 0.46584 0.0
C449 C 0.14017 0.60158 0.49417 0.0
C450 C 0.20475 0.68448 0.37293 0.0
C451 C 0.18865 0.69743 0.35696 0.0
C452 C 0.1884 0.65976 0.39724 0.0
C453 C 0.15549 0.64732 0.40632 0.0
C454 C 0.13931 0.65978 0.38925 0.0
C455 C 0.15553 0.68429 0.36505 0.0
H456 H 0.50136 0.1256 0.07259 0.0
H457 H 0.46333 0.04981 1.00323 0.0
H458 H 0.48694 0.15105 1.027 0.0
H459 H 0.44927 0.0753 0.95766 0.0
H460 H 0.48176 0.15029 0.8694 0.0
H461 H 0.4852 0.11998 0.91818 0.0
H462 H 0.44104 0.14952 0.99174 0.0
H463 H 0.43797 0.18022 0.94278 0.0
C464 C 0.48928 0.11411 0.04802 0.0
C465 C 0.484 0.08592 0.04122 0.0
C466 C 0.48105 0.12868 1.02191 0.0
C467 C 0.46744 0.11531 0.98858 0.0
C468 C 0.46034 0.08638 0.9828 0.0
C469 C 0.46844 0.07183 1.00887 0.0
C470 C 0.47268 0.15019 0.89594 0.0
C471 C 0.45969 0.16763 0.90233 0.0
C472 C 0.47435 0.13265 0.92378 0.0
C473 C 0.4633 0.13235 0.95874 0.0
C474 C 0.44983 0.14943 0.96507 0.0
C475 C 0.44782 0.16676 0.93703 0.0
H476 H 0.44414 0.47682 0.47147 0.0
H477 H 0.48383 0.57175 0.46867 0.0
H478 H 0.39866 0.46889 0.43458 0.0
H479 H 0.4375 0.56371 0.43225 0.0
H480 H 0.36535 0.53741 0.33275 0.0
H481 H 0.41163 0.55001 0.37295 0.0
H482 H 0.35079 0.46879 0.4358 0.0
H483 H 0.30572 0.45606 0.39549 0.0
C484 C 0.44296 0.49604 0.46352 0.0
C485 C 0.46778 0.52492 0.4735 0.0
C486 C 0.41663 0.49149 0.4423 0.0
C487 C 0.41394 0.51561 0.43034 0.0
C488 C 0.43866 0.54455 0.44053 0.0
C489 C 0.46516 0.54913 0.46182 0.0
C490 C 0.36192 0.52257 0.35549 0.0
C491 C 0.33188 0.49556 0.36058 0.0
C492 C 0.38844 0.52972 0.3786 0.0
C493 C 0.3854 0.51011 0.40742 0.0
C494 C 0.3547 0.48406 0.41341 0.0
C495 C 0.3286 0.47685 0.39032 0.0
H496 H 0.04815 0.4528 0.87888 0.0
H497 H 0.99781 0.41639 0.98046 0.0
H498 H 1.015 0.40363 0.85216 0.0
H499 H 0.96402 0.36771 0.95359 0.0
H500 H 0.91799 0.27832 0.90333 0.0
H501 H 0.96189 0.32498 0.92844 0.0
H502 H 0.95832 0.37352 0.83405 0.0
H503 H 0.91546 0.32691 0.80848 0.0
C504 C 1.03034 0.43424 0.89563 0.0
C505 C 1.0253 0.43856 0.93163 0.0
C506 C 1.01116 0.40615 0.88026 0.0
C507 C 0.98669 0.38181 0.90066 0.0
C508 C 0.98279 0.38588 0.93717 0.0
C509 C 1.00187 0.41391 0.95245 0.0
C510 C 0.92706 0.29887 0.88764 0.0
C511 C 0.91292 0.29895 0.85415 0.0
C512 C 0.95202 0.32563 0.90215 0.0
C513 C 0.96341 0.353 0.88339 0.0
C514 C 0.95031 0.35285 0.84911 0.0
C515 C 0.92539 0.32615 0.83466 0.0
H516 H 0.96986 0.50576 0.90125 0.0
H517 H 0.944 0.52207 1.00499 0.0
H518 H 0.92268 0.5022 0.8737 0.0
H519 H 0.89557 0.51802 0.9771 0.0
H520 H 0.84106 0.54964 0.89774 0.0
H521 H 0.88106 0.54573 0.93415 0.0
H522 H 0.86535 0.47315 0.86869 0.0
H523 H 0.82613 0.47752 0.83192 0.0
C524 C 0.95375 0.50816 0.91844 0.0
C525 C 0.96094 0.51427 0.95546 0.0
C526 C 0.92633 0.50588 0.90255 0.0
C527 C 0.90491 0.50971 0.92295 0.0
C528 C 0.91154 0.51511 0.96036 0.0
C529 C 0.93913 0.51715 0.9765 0.0
C530 C 0.84574 0.53251 0.89144 0.0
C531 C 0.83042 0.5141 0.86148 0.0
C532 C 0.86869 0.53019 0.91251 0.0
C533 C 0.87703 0.50941 0.90425 0.0
C534 C 0.86028 0.48992 0.87555 0.0
C535 C 0.83749 0.49229 0.85448 0.0
H536 H 0.43129 0.99872 0.47389 0.0
H537 H 0.44168 0.93239 0.53232 0.0
H538 H 0.38172 0.95931 0.44596 0.0
H539 H 0.39155 0.8928 0.50469 0.0
H540 H 0.3364 0.83843 0.40291 0.0
H541 H 0.37874 0.8748 0.44247 0.0
H542 H 0.32558 0.91786 0.45415 0.0
H543 H 0.28363 0.88194 0.41348 0.0
C544 C 0.42261 0.97571 0.48139 0.0
C545 C 0.44062 0.96867 0.50499 0.0
C546 C 0.39405 0.9531 0.4655 0.0
C547 C 0.38289 0.92292 0.4728 0.0
C548 C 0.39984 0.91587 0.49812 0.0
C549 C 0.42839 0.93854 0.51417 0.0
C550 C 0.33375 0.85568 0.41379 0.0
C551 C 0.3068 0.85748 0.40464 0.0
C552 C 0.3578 0.87627 0.43695 0.0
C553 C 0.35552 0.89921 0.4515 0.0
C554 C 0.32814 0.90056 0.44317 0.0
C555 C 0.30401 0.87987 0.42006 0.0
H556 H 0.55493 0.46129 0.93651 0.0
H557 H 0.55464 0.40385 1.02232 0.0
H558 H 0.55086 0.42675 0.89178 0.0
H559 H 0.55049 0.36922 0.97746 0.0
H560 H 0.56233 0.31962 0.88482 0.0
H561 H 0.57588 0.35924 0.92788 0.0
H562 H 0.51086 0.37846 0.87092 0.0
H563 H 0.49795 0.33977 0.82835 0.0
C564 C 0.55384 0.44127 0.94601 0.0
C565 C 0.55478 0.43548 0.98338 0.0
C566 C 0.55157 0.42135 0.92019 0.0
C567 C 0.5501 0.39487 0.93076 0.0
C568 C 0.55195 0.38945 0.96807 0.0
C569 C 0.55422 0.4094 0.99394 0.0
C570 C 0.55154 0.33279 0.88117 0.0
C571 C 0.52905 0.32643 0.85303 0.0
C572 C 0.55898 0.3553 0.90609 0.0
C573 C 0.54444 0.37221 0.90316 0.0
C574 C 0.52297 0.36641 0.87409 0.0
C575 C 0.51538 0.34395 0.84962 0.0
H576 H 0.07082 0.44404 0.51203 0.0
H577 H 0.15729 0.48424 0.57816 0.0
H578 H 0.09555 0.42789 0.46997 0.0
H579 H 0.18188 0.467 0.53661 0.0
H580 H 0.22753 0.47858 0.42253 0.0
H581 H 0.20289 0.48359 0.47597 0.0
H582 H 0.11637 0.39707 0.45735 0.0
H583 H 0.14067 0.39272 0.40269 0.0
C584 C 0.09499 0.44902 0.51784 0.0
C585 C 0.11239 0.46596 0.54795 0.0
C586 C 0.10903 0.43937 0.49399 0.0
C587 C 0.14083 0.44636 0.49973 0.0
C588 C 0.15749 0.46162 0.53118 0.0
C589 C 0.14335 0.47128 0.55513 0.0
C590 C 0.20328 0.46058 0.42985 0.0
C591 C 0.18576 0.43557 0.40786 0.0
C592 C 0.18933 0.46322 0.46089 0.0
C593 C 0.15752 0.44084 0.4708 0.0
C594 C 0.14076 0.41491 0.45013 0.0
C595 C 0.15475 0.4123 0.41897 0.0
H596 H 0.59408 0.12027 0.98885 0.0
H597 H 0.61286 0.05007 0.98119 0.0
H598 H 0.63173 0.14812 0.93969 0.0
H599 H 0.65221 0.07861 0.93312 0.0
H600 H 0.70981 0.12709 0.83323 0.0
H601 H 0.66524 0.09734 0.87491 0.0
H602 H 0.68561 0.17819 0.92518 0.0
H603 H 0.72925 0.20796 0.88162 0.0
C604 C 0.60622 0.11069 0.9764 0.0
C605 C 0.60034 0.08285 0.9889 0.0
C606 C 0.62828 0.12692 0.94837 0.0
C607 C 0.64585 0.11621 0.93228 0.0
C608 C 0.6391 0.08775 0.94414 0.0
C609 C 0.61644 0.0712 0.97184 0.0
C610 C 0.70448 0.13855 0.85292 0.0
C611 C 0.72317 0.16996 0.85407 0.0
C612 C 0.679 0.12138 0.87726 0.0
C613 C 0.67164 0.13494 0.90426 0.0
C614 C 0.6899 0.16659 0.90471 0.0
C615 C 0.71512 0.18385 0.87973 0.0
H616 H 0.56856 0.57928 0.38847 0.0
H617 H 0.65831 0.6237 0.44886 0.0
H618 H 0.58065 0.62745 0.3639 0.0
H619 H 0.67029 0.67192 0.42479 0.0
H620 H 0.68964 0.7531 0.35384 0.0
H621 H 0.68251 0.70512 0.3717 0.0
H622 H 0.58089 0.66846 0.39129 0.0
H623 H 0.58805 0.71611 0.3733 0.0
C624 C 0.59105 0.59935 0.39609 0.0
C625 C 0.61232 0.59777 0.42075 0.0
C626 C 0.59791 0.62691 0.38225 0.0
C627 C 0.62614 0.65353 0.39297 0.0
C628 C 0.64842 0.65182 0.41588 0.0
C629 C 0.6416 0.62418 0.4296 0.0
C630 C 0.66592 0.73485 0.36237 0.0
C631 C 0.63934 0.73827 0.36198 0.0
C632 C 0.6618 0.70736 0.37243 0.0
C633 C 0.63103 0.68286 0.38233 0.0
C634 C 0.60472 0.68663 0.38281 0.0
C635 C 0.60883 0.71397 0.37271 0.0
H636 H 0.55991 0.09523 0.64311 0.0
H637 H 0.53555 0.13692 0.55705 0.0
H638 H 0.55483 0.12602 0.68743 0.0
H639 H 0.53081 0.1676 0.60096 0.0
H640 H 0.47769 0.18061 0.69291 0.0
H641 H 0.49046 0.15507 0.6496 0.0
H642 H 0.57902 0.18127 0.70749 0.0
H643 H 0.56619 0.20761 0.75146 0.0
C644 C 0.55359 0.11097 0.63357 0.0
C645 C 0.54798 0.11334 0.59633 0.0
C646 C 0.55104 0.12888 0.65896 0.0
C647 C 0.54233 0.14931 0.64787 0.0
C648 C 0.53736 0.15202 0.6106 0.0
C649 C 0.54028 0.13447 0.58528 0.0
C650 C 0.50009 0.18122 0.6965 0.0
C651 C 0.52089 0.19625 0.72582 0.0
C652 C 0.50748 0.16661 0.6714 0.0
C653 C 0.5358 0.16605 0.67484 0.0
C654 C 0.55692 0.18116 0.70409 0.0
C655 C 0.54974 0.19644 0.72911 0.0
H656 H 0.43941 0.49662 0.05387 0.0
H657 H 0.45788 0.45054 0.14019 0.0
H658 H 0.38983 0.48487 0.08456 0.0
H659 H 0.40855 0.43882 0.17048 0.0
H660 H 0.34938 0.46519 0.23657 0.0
H661 H 0.39437 0.47111 0.20178 0.0
H662 H 0.33436 0.44249 0.10567 0.0
H663 H 0.2893 0.43698 0.14056 0.0
C664 C 0.43265 0.48359 0.07902 0.0
C665 C 0.45278 0.47482 0.09479 0.0
C666 C 0.40424 0.47682 0.09653 0.0
C667 C 0.3956 0.46129 0.13015 0.0
C668 C 0.41492 0.45129 0.14493 0.0
C669 C 0.44313 0.45792 0.12744 0.0
C670 C 0.34581 0.46024 0.20802 0.0
C671 C 0.31584 0.45067 0.1913 0.0
C672 C 0.37145 0.46334 0.18816 0.0
C673 C 0.36781 0.45712 0.15103 0.0
C674 C 0.33785 0.44752 0.13422 0.0
C675 C 0.31202 0.44413 0.15423 0.0
H676 H 0.96943 0.45872 0.68181 0.0
H677 H 0.9519 0.42262 0.57479 0.0
H678 H 0.92519 0.41132 0.70573 0.0
H679 H 0.9066 0.37469 0.59878 0.0
H680 H 0.86829 0.28648 0.66735 0.0
H681 H 0.90122 0.33447 0.63615 0.0
H682 H 0.86868 0.37397 0.71071 0.0
H683 H 0.83591 0.32549 0.74268 0.0
C684 C 0.95567 0.44074 0.66312 0.0
C685 C 0.96456 0.44453 0.62632 0.0
C686 C 0.92994 0.41345 0.67692 0.0
C687 C 0.91216 0.38879 0.65446 0.0
C688 C 0.91995 0.39297 0.61714 0.0
C689 C 0.94576 0.42056 0.60321 0.0
C690 C 0.86769 0.30525 0.67692 0.0
C691 C 0.84954 0.30202 0.70786 0.0
C692 C 0.88651 0.3329 0.65869 0.0
C693 C 0.88803 0.35846 0.6708 0.0
C694 C 0.86858 0.35496 0.70076 0.0
C695 C 0.8495 0.32707 0.71899 0.0
H696 H 0.63227 1.00467 0.10417 0.0
H697 H 0.6325 0.0368 0.2101 0.0
H698 H 0.6509 0.97382 0.13049 0.0
H699 H 0.65217 1.00651 0.23657 0.0
H700 H 0.62586 0.90995 0.26796 0.0
H701 H 0.62368 0.95244 0.2458 0.0
H702 H 0.69279 0.96991 0.1622 0.0
H703 H 0.69411 0.9265 0.18389 0.0
C704 C 0.63695 1.00555 0.13304 0.0
C705 C 0.63037 0.02268 0.15519 0.0
C706 C 0.648 0.98815 0.14809 0.0
C707 C 0.65268 0.98747 0.1857 0.0
C708 C 0.64834 1.00628 0.20755 0.0
C709 C 0.63737 0.02381 0.1924 0.0
C710 C 0.64066 0.92289 0.24491 0.0
C711 C 0.65967 0.91455 0.22719 0.0
C712 C 0.63983 0.94757 0.23255 0.0
C713 C 0.65799 0.96452 0.20215 0.0
C714 C 0.67829 0.9571 0.18551 0.0
C715 C 0.67921 0.93239 0.19801 0.0
H716 H 0.6178 0.55081 0.58625 0.0
H717 H 0.55507 0.46931 0.64762 0.0
H718 H 0.66259 0.56185 0.62654 0.0
H719 H 0.59996 0.48079 0.68881 0.0
H720 H 0.69923 0.49873 0.73451 0.0
H721 H 0.65189 0.48466 0.69544 0.0
H722 H 0.68198 0.5774 0.68542 0.0
H723 H 0.72875 0.59123 0.72281 0.0
C724 C 0.61333 0.53542 0.60871 0.0
C725 C 0.5825 0.50929 0.61366 0.0
C726 C 0.63917 0.54178 0.63204 0.0
C727 C 0.63517 0.52234 0.66137 0.0
C728 C 0.60426 0.49621 0.66647 0.0
C729 C 0.57833 0.4898 0.64299 0.0
C730 C 0.69564 0.51601 0.72386 0.0
C731 C 0.71828 0.54617 0.73155 0.0
C732 C 0.66839 0.50798 0.70156 0.0
C733 C 0.66312 0.52992 0.68655 0.0
C734 C 0.6854 0.55983 0.69532 0.0
C735 C 0.71239 0.56778 0.71717 0.0
H736 H 0.15502 0.66837 1.00909 0.0
H737 H 0.0669 0.62577 0.07172 0.0
H738 H 0.18032 0.70964 0.05123 0.0
H739 H 0.09228 0.6662 0.11436 0.0
H740 H 0.13981 0.74767 0.18055 0.0
H741 H 0.11544 0.71859 0.12617 0.0
H742 H 0.19908 0.71214 0.11334 0.0
H743 H 0.22382 0.74207 0.16661 0.0
C744 C 0.14088 0.66812 1.03144 0.0
C745 C 0.10918 0.64365 0.03749 0.0
C746 C 0.15542 0.69158 0.05574 0.0
C747 C 0.13843 0.69103 0.08637 0.0
C748 C 0.10601 0.66748 0.09096 0.0
C749 C 0.09158 0.64408 0.06679 0.0
C750 C 0.15324 0.74058 0.16564 0.0
C751 C 0.18348 0.74673 0.17825 0.0
C752 C 0.13921 0.72375 0.13465 0.0
C753 C 0.1552 0.71284 0.1156 0.0
C754 C 0.1862 0.72038 0.12716 0.0
C755 C 0.20017 0.73714 0.15809 0.0
loop_
_geom_bond_atom_site_label_1
_geom_bond_atom_site_label_2
_geom_bond_distance
_geom_bond_site_symmetry_2
_ccdc_geom_bond_type
Cu0 N1 1.999 1_454 S
Cu0 O6 1.974 1_454 S
Cu0 N11 1.985 . S
Cu0 O20 1.959 . S
N1 Cu0 1.999 1_656 S
N1 C3 1.263 . S
N1 C5 1.389 1_556 S
N2 C3 1.358 . S
N2 C4 1.400 . S
C3 N1 1.263 . S
C3 N2 1.358 . S
C3 H9 0.930 . S
C4 N2 1.400 . S
C4 C5 1.351 1_556 S
C4 H21 0.930 . S
C5 N1 1.389 1_554 S
C5 C4 1.351 1_554 S
C5 H10 0.930 . S
O6 Cu0 1.974 1_656 S
O6 C16 1.282 . S
C7 O8 1.261 . S
C7 O20 1.251 . S
O8 C7 1.261 . S
H9 C3 0.930 . S
H10 C5 0.930 . S
N11 Cu0 1.985 . S
N11 C13 1.335 . S
N11 C14 1.390 . S
N12 C13 1.345 . S
N12 C15 1.336 . S
C13 N11 1.335 . S
C13 N12 1.345 . S
C13 H18 0.930 . S
C14 N11 1.390 . S
C14 C15 1.346 . S
C14 H19 0.930 1_554 S
C15 N12 1.336 . S
C15 C14 1.346 . S
C15 H22 0.929 . S
C16 O6 1.282 . S
C16 O17 1.216 1_655 S
O17 C16 1.216 1_455 S
H18 C13 0.930 . S
H19 C14 0.930 1_556 S
O20 Cu0 1.959 . S
O20 C7 1.251 . S
H21 C4 0.930 . S
H22 C15 0.929 . S
Cu23 N24 1.999 . S
Cu23 O29 1.974 . S
Cu23 N34 1.985 1_565 S
Cu23 O43 1.959 1_565 S
N24 Cu23 1.999 . S
N24 C26 1.263 . S
N24 C28 1.389 . S
N25 C26 1.358 . S
N25 C27 1.400 . S
C26 N24 1.263 . S
C26 N25 1.358 . S
C26 H32 0.930 . S
C27 N25 1.400 . S
C27 C28 1.351 . S
C27 H44 0.930 . S
C28 N24 1.389 . S
C28 C27 1.351 . S
C28 H33 0.930 . S
O29 Cu23 1.974 . S
O29 C39 1.282 . S
C30 O31 1.261 . S
C30 O43 1.251 . S
O31 C30 1.261 . S
H32 C26 0.930 . S
H33 C28 0.930 . S
N34 Cu23 1.985 1_545 S
N34 C36 1.335 . S
N34 C37 1.390 . S
N35 C36 1.345 . S
N35 C38 1.336 . S
C36 N34 1.335 . S
C36 N35 1.345 . S
C36 H41 0.930 . S
C37 N34 1.390 . S
C37 C38 1.346 . S
C37 H42 0.930 . S
C38 N35 1.336 . S
C38 C37 1.346 . S
C38 H45 0.929 . S
C39 O29 1.282 . S
C39 O40 1.216 1_565 S
O40 C39 1.216 1_545 S
H41 C36 0.930 . S
H42 C37 0.930 . S
O43 Cu23 1.959 1_545 S
O43 C30 1.251 . S
H44 C27 0.930 . S
H45 C38 0.929 . S
Cu46 N47 1.999 1_554 S
Cu46 O52 1.974 1_554 S
Cu46 N57 1.985 . S
Cu46 O66 1.959 . S
N47 Cu46 1.999 1_556 S
N47 C49 1.263 . S
N47 C51 1.389 . S
N48 C49 1.358 . S
N48 C50 1.400 . S
C49 N47 1.263 . S
C49 N48 1.358 . S
C49 H55 0.930 . S
C50 N48 1.400 . S
C50 C51 1.351 . S
C50 H67 0.930 . S
C51 N47 1.389 . S
C51 C50 1.351 . S
C51 H56 0.930 . S
O52 Cu46 1.974 1_556 S
O52 C62 1.282 . S
C53 O54 1.261 . S
C53 O66 1.251 . S
O54 C53 1.261 . S
H55 C49 0.930 . S
H56 C51 0.930 . S
N57 Cu46 1.985 . S
N57 C59 1.335 . S
N57 C60 1.390 . S
N58 C59 1.345 . S
N58 C61 1.336 . S
C59 N57 1.335 . S
C59 N58 1.345 . S
C59 H64 0.930 . S
C60 N57 1.390 . S
C60 C61 1.346 . S
C60 H65 0.930 . S
C61 N58 1.336 . S
C61 C60 1.346 . S
C61 H68 0.929 . S
C62 O52 1.282 . S
C62 O63 1.216 1_556 S
O63 C62 1.216 1_554 S
H64 C59 0.930 . S
H65 C60 0.930 . S
O66 Cu46 1.959 . S
O66 C53 1.251 . S
H67 C50 0.930 . S
H68 C61 0.929 . S
Cu69 N70 1.999 1_655 S
Cu69 O75 1.974 1_655 S
Cu69 N80 1.985 . S
Cu69 O89 1.959 . S
N70 Cu69 1.999 1_455 S
N70 C72 1.263 . S
N70 C74 1.389 1_455 S
N71 C72 1.358 . S
N71 C73 1.400 . S
C72 N70 1.263 . S
C72 N71 1.358 . S
C72 H78 0.930 . S
C73 N71 1.400 . S
C73 C74 1.351 1_455 S
C73 H90 0.930 . S
C74 N70 1.389 1_655 S
C74 C73 1.351 1_655 S
C74 H79 0.930 . S
O75 Cu69 1.974 1_455 S
O75 C85 1.282 . S
C76 O77 1.261 1_655 S
C76 O89 1.251 . S
O77 C76 1.261 1_455 S
H78 C72 0.930 . S
H79 C74 0.930 . S
N80 Cu69 1.985 . S
N80 C82 1.335 . S
N80 C83 1.390 . S
N81 C82 1.345 . S
N81 C84 1.336 . S
C82 N80 1.335 . S
C82 N81 1.345 . S
C82 H87 0.930 . S
C83 N80 1.390 . S
C83 C84 1.346 . S
C83 H88 0.930 1_655 S
C84 N81 1.336 . S
C84 C83 1.346 . S
C84 H91 0.929 . S
C85 O75 1.282 . S
C85 O86 1.216 . S
O86 C85 1.216 . S
H87 C82 0.930 . S
H88 C83 0.930 1_455 S
O89 Cu69 1.959 . S
O89 C76 1.251 . S
H90 C73 0.930 . S
H91 C84 0.929 . S
Cu92 N93 1.999 . S
Cu92 O98 1.974 1_554 S
Cu92 N103 1.985 1_545 S
Cu92 O112 1.959 1_545 S
N93 Cu92 1.999 . S
N93 C95 1.263 1_554 S
N93 C97 1.389 . S
N94 C95 1.358 . S
N94 C96 1.420 . S
C95 N93 1.263 1_556 S
C95 N94 1.358 . S
C95 H101 0.930 . S
C96 N94 1.420 . S
C96 C97 1.337 1_556 S
C96 H113 0.925 1_556 S
C97 N93 1.389 . S
C97 C96 1.337 1_554 S
C97 H102 0.930 . S
O98 Cu92 1.974 1_556 S
O98 C108 1.282 . S
C99 O100 1.261 . S
C99 O112 1.251 . S
O100 C99 1.261 . S
H101 C95 0.930 . S
H102 C97 0.930 . S
N103 Cu92 1.985 1_565 S
N103 C105 1.335 . S
N103 C106 1.390 . S
N104 C105 1.345 . S
N104 C107 1.336 . S
C105 N103 1.335 . S
C105 N104 1.345 . S
C105 H110 0.930 . S
C106 N103 1.390 . S
C106 C107 1.346 . S
C106 H111 0.930 . S
C107 N104 1.336 . S
C107 C106 1.346 . S
C107 H114 0.929 . S
C108 O98 1.282 . S
C108 O109 1.216 . S
O109 C108 1.216 . S
H110 C105 0.930 . S
H111 C106 0.930 . S
O112 Cu92 1.959 1_565 S
O112 C99 1.251 . S
H113 C96 0.925 1_554 S
H114 C107 0.929 . S
Cu115 N116 1.999 . S
Cu115 O121 1.974 . S
Cu115 N126 1.985 . S
Cu115 O135 1.959 . S
N116 Cu115 1.999 . S
N116 C118 1.263 . S
N116 C120 1.389 . S
N117 C118 1.358 . S
N117 C119 1.400 . S
C118 N116 1.263 . S
C118 N117 1.358 . S
C118 H124 0.930 . S
C119 N117 1.400 . S
C119 C120 1.351 . S
C119 H136 0.930 . S
C120 N116 1.389 . S
C120 C119 1.351 . S
C120 H125 0.930 . S
O121 Cu115 1.974 . S
O121 C131 1.282 . S
C122 O123 1.261 . S
C122 O135 1.251 . S
O123 C122 1.261 . S
H124 C118 0.930 . S
H125 C120 0.930 . S
N126 Cu115 1.985 . S
N126 C128 1.335 . S
N126 C129 1.390 . S
N127 C128 1.345 . S
N127 C130 1.336 . S
C128 N126 1.335 . S
C128 N127 1.345 . S
C128 H133 0.930 . S
C129 N126 1.390 . S
C129 C130 1.346 . S
C129 H134 0.930 . S
C130 N127 1.336 . S
C130 C129 1.346 . S
C130 H137 0.929 . S
C131 O121 1.282 . S
C131 O132 1.216 . S
O132 C131 1.216 . S
H133 C128 0.930 . S
H134 C129 0.930 . S
O135 Cu115 1.959 . S
O135 C122 1.251 . S
H136 C119 0.930 . S
H137 C130 0.929 . S
Cu138 N139 1.999 . S
Cu138 O144 1.974 . S
Cu138 N149 1.985 . S
Cu138 O158 1.959 . S
N139 Cu138 1.999 . S
N139 C141 1.263 . S
N139 C143 1.389 . S
N140 C141 1.358 . S
N140 C142 1.400 . S
C141 N139 1.263 . S
C141 N140 1.358 . S
C141 H147 0.930 . S
C142 N140 1.400 . S
C142 C143 1.351 . S
C142 H159 0.930 . S
C143 N139 1.389 . S
C143 C142 1.351 . S
C143 H148 0.930 . S
O144 Cu138 1.974 . S
O144 C154 1.282 . S
C145 O146 1.261 . S
C145 O158 1.251 . S
O146 C145 1.261 . S
H147 C141 0.930 . S
H148 C143 0.930 . S
N149 Cu138 1.985 . S
N149 C151 1.335 . S
N149 C152 1.390 . S
N150 C151 1.345 . S
N150 C153 1.336 . S
C151 N149 1.335 . S
C151 N150 1.345 . S
C151 H156 0.930 . S
C152 N149 1.390 . S
C152 C153 1.346 . S
C152 H157 0.930 . S
C153 N150 1.336 . S
C153 C152 1.346 . S
C153 H160 0.929 . S
C154 O144 1.282 . S
C154 O155 1.216 . S
O155 C154 1.216 . S
H156 C151 0.930 . S
H157 C152 0.930 . S
O158 Cu138 1.959 . S
O158 C145 1.251 . S
H159 C142 0.930 . S
H160 C153 0.929 . S
Cu161 N162 1.999 . S
Cu161 O167 1.974 . S
Cu161 N172 1.985 . S
Cu161 O181 1.959 . S
N162 Cu161 1.999 . S
N162 C164 1.263 . S
N162 C166 1.389 . S
N163 C164 1.358 . S
N163 C165 1.400 . S
C164 N162 1.263 . S
C164 N163 1.358 . S
C164 H170 0.930 . S
C165 N163 1.400 . S
C165 C166 1.351 . S
C165 H182 0.930 . S
C166 N162 1.389 . S
C166 C165 1.351 . S
C166 H171 0.930 . S
O167 Cu161 1.974 . S
O167 C177 1.282 . S
C168 O169 1.261 . S
C168 O181 1.251 . S
O169 C168 1.261 . S
H170 C164 0.930 . S
H171 C166 0.930 . S
N172 Cu161 1.985 . S
N172 C174 1.335 . S
N172 C175 1.390 . S
N173 C174 1.345 . S
N173 C176 1.336 . S
C174 N172 1.335 . S
C174 N173 1.345 . S
C174 H179 0.930 . S
C175 N172 1.390 . S
C175 C176 1.346 . S
C175 H180 0.930 . S
C176 N173 1.336 . S
C176 C175 1.346 . S
C176 H183 0.929 . S
C177 O167 1.282 . S
C177 O178 1.216 . S
O178 C177 1.216 . S
H179 C174 0.930 . S
H180 C175 0.930 . S
O181 Cu161 1.959 . S
O181 C168 1.251 . S
H182 C165 0.930 . S
H183 C176 0.929 . S
Cu184 N185 1.999 . S
Cu184 O190 1.974 . S
Cu184 N195 1.985 . S
Cu184 O204 1.959 . S
N185 Cu184 1.999 . S
N185 C187 1.263 . S
N185 C189 1.389 . S
N186 C187 1.358 . S
N186 C188 1.400 . S
C187 N185 1.263 . S
C187 N186 1.358 . S
C187 H193 0.930 . S
C188 N186 1.400 . S
C188 C189 1.351 . S
C188 H205 0.930 . S
C189 N185 1.389 . S
C189 C188 1.351 . S
C189 H194 0.930 . S
O190 Cu184 1.974 . S
O190 C200 1.282 . S
C191 O192 1.261 . S
C191 O204 1.251 . S
O192 C191 1.261 . S
H193 C187 0.930 . S
H194 C189 0.930 . S
N195 Cu184 1.985 . S
N195 C197 1.335 . S
N195 C198 1.390 . S
N196 C197 1.345 . S
N196 C199 1.336 . S
C197 N195 1.335 . S
C197 N196 1.345 . S
C197 H202 0.930 . S
C198 N195 1.390 . S
C198 C199 1.346 . S
C198 H203 0.930 . S
C199 N196 1.336 . S
C199 C198 1.346 . S
C199 H206 0.929 . S
C200 O190 1.282 . S
C200 O201 1.216 . S
O201 C200 1.216 . S
H202 C197 0.930 . S
H203 C198 0.930 . S
O204 Cu184 1.959 . S
O204 C191 1.251 . S
H205 C188 0.930 . S
H206 C199 0.929 . S
Cu207 N208 1.999 . S
Cu207 O213 1.974 . S
Cu207 N218 1.985 . S
Cu207 O227 1.959 . S
N208 Cu207 1.999 . S
N208 C210 1.263 . S
N208 C212 1.389 . S
N209 C210 1.358 . S
N209 C211 1.400 . S
C210 N208 1.263 . S
C210 N209 1.358 . S
C210 H216 0.930 . S
C211 N209 1.400 . S
C211 C212 1.351 . S
C211 H228 0.930 . S
C212 N208 1.389 . S
C212 C211 1.351 . S
C212 H217 0.930 . S
O213 Cu207 1.974 . S
O213 C223 1.282 . S
C214 O215 1.261 . S
C214 O227 1.251 . S
O215 C214 1.261 . S
H216 C210 0.930 . S
H217 C212 0.930 . S
N218 Cu207 1.985 . S
N218 C220 1.335 . S
N218 C221 1.390 . S
N219 C220 1.345 . S
N219 C222 1.336 . S
C220 N218 1.335 . S
C220 N219 1.345 . S
C220 H225 0.930 . S
C221 N218 1.390 . S
C221 C222 1.346 . S
C221 H226 0.930 . S
C222 N219 1.336 . S
C222 C221 1.346 . S
C222 H229 0.929 . S
C223 O213 1.282 . S
C223 O224 1.216 . S
O224 C223 1.216 . S
H225 C220 0.930 . S
H226 C221 0.930 . S
O227 Cu207 1.959 . S
O227 C214 1.251 . S
H228 C211 0.930 . S
H229 C222 0.929 . S
Cu230 N231 1.999 . S
Cu230 O236 1.974 . S
Cu230 N241 1.985 . S
Cu230 O250 1.959 . S
N231 Cu230 1.999 . S
N231 C233 1.263 . S
N231 C235 1.389 . S
N232 C233 1.358 . S
N232 C234 1.400 . S
C233 N231 1.263 . S
C233 N232 1.358 . S
C233 H239 0.930 . S
C234 N232 1.400 . S
C234 C235 1.351 . S
C234 H251 0.930 . S
C235 N231 1.389 . S
C235 C234 1.351 . S
C235 H240 0.930 . S
O236 Cu230 1.974 . S
O236 C246 1.282 . S
C237 O238 1.261 . S
C237 O250 1.251 . S
O238 C237 1.261 . S
H239 C233 0.930 . S
H240 C235 0.930 . S
N241 Cu230 1.985 . S
N241 C243 1.335 . S
N241 C244 1.390 . S
N242 C243 1.345 . S
N242 C245 1.336 . S
C243 N241 1.335 . S
C243 N242 1.345 . S
C243 H248 0.930 . S
C244 N241 1.390 . S
C244 C245 1.346 . S
C244 H249 0.930 . S
C245 N242 1.336 . S
C245 C244 1.346 . S
C245 H252 0.929 . S
C246 O236 1.282 . S
C246 O247 1.216 . S
O247 C246 1.216 . S
H248 C243 0.930 . S
H249 C244 0.930 . S
O250 Cu230 1.959 . S
O250 C237 1.251 . S
H251 C234 0.930 . S
H252 C245 0.929 . S
Cu253 N254 1.999 . S
Cu253 O259 1.974 . S
Cu253 N264 1.985 . S
Cu253 O273 1.959 . S
N254 Cu253 1.999 . S
N254 C256 1.263 . S
N254 C258 1.389 . S
N255 C256 1.358 . S
N255 C257 1.400 . S
C256 N254 1.263 . S
C256 N255 1.358 . S
C256 H262 0.930 . S
C257 N255 1.400 . S
C257 C258 1.351 . S
C257 H274 0.930 . S
C258 N254 1.389 . S
C258 C257 1.351 . S
C258 H263 0.930 . S
O259 Cu253 1.974 . S
O259 C269 1.282 . S
C260 O261 1.261 . S
C260 O273 1.251 . S
O261 C260 1.261 . S
H262 C256 0.930 . S
H263 C258 0.930 . S
N264 Cu253 1.985 . S
N264 C266 1.335 . S
N264 C267 1.390 . S
N265 C266 1.345 . S
N265 C268 1.336 . S
C266 N264 1.335 . S
C266 N265 1.345 . S
C266 H271 0.930 . S
C267 N264 1.390 . S
C267 C268 1.346 . S
C267 H272 0.930 . S
C268 N265 1.336 . S
C268 C267 1.346 . S
C268 H275 0.929 . S
C269 O259 1.282 . S
C269 O270 1.216 . S
O270 C269 1.216 . S
H271 C266 0.930 . S
H272 C267 0.930 . S
O273 Cu253 1.959 . S
O273 C260 1.251 . S
H274 C257 0.930 . S
H275 C268 0.929 . S
H276 C284 0.950 . S
H277 C289 0.950 . S
H278 C286 0.950 . S
H279 C288 0.950 . S
H280 C290 0.950 . S
H281 C292 0.950 . S
H282 C294 0.950 . S
H283 C295 0.950 . S
C284 H276 0.950 . S
C284 C285 1.386 . S
C284 C286 1.391 . S
C285 C284 1.386 . S
C285 C289 1.393 . S
C286 H278 0.950 . S
C286 C284 1.391 . S
C286 C287 1.400 . S
C287 C286 1.400 . S
C287 C288 1.398 . S
C287 C293 1.491 . S
C288 H279 0.950 . S
C288 C287 1.398 . S
C288 C289 1.391 . S
C289 H277 0.950 . S
C289 C285 1.393 . S
C289 C288 1.391 . S
C290 H280 0.950 . S
C290 C291 1.386 . S
C290 C292 1.391 . S
C291 C290 1.386 . S
C291 C295 1.393 . S
C292 H281 0.950 . S
C292 C290 1.391 . S
C292 C293 1.400 . S
C293 C287 1.491 . S
C293 C292 1.400 . S
C293 C294 1.398 . S
C294 H282 0.950 . S
C294 C293 1.398 . S
C294 C295 1.391 . S
C295 H283 0.950 . S
C295 C291 1.393 . S
C295 C294 1.391 . S
H296 C304 0.950 . S
H297 C309 0.950 . S
H298 C306 0.950 . S
H299 C308 0.950 . S
H300 C310 0.950 . S
H301 C312 0.950 . S
H302 C314 0.950 . S
H303 C315 0.950 . S
C304 H296 0.950 . S
C304 C305 1.386 . S
C304 C306 1.391 . S
C305 C304 1.386 . S
C305 C309 1.393 . S
C306 H298 0.950 . S
C306 C304 1.391 . S
C306 C307 1.400 . S
C307 C306 1.400 . S
C307 C308 1.398 . S
C307 C313 1.491 . S
C308 H299 0.950 . S
C308 C307 1.398 . S
C308 C309 1.391 . S
C309 H297 0.950 . S
C309 C305 1.393 . S
C309 C308 1.391 . S
C310 H300 0.950 . S
C310 C311 1.386 . S
C310 C312 1.391 . S
C311 C310 1.386 . S
C311 C315 1.393 . S
C312 H301 0.950 . S
C312 C310 1.391 . S
C312 C313 1.400 . S
C313 C307 1.491 . S
C313 C312 1.400 . S
C313 C314 1.398 . S
C314 H302 0.950 . S
C314 C313 1.398 . S
C314 C315 1.391 . S
C315 H303 0.950 . S
C315 C311 1.393 . S
C315 C314 1.391 . S
H316 C324 0.950 . S
H317 C329 0.950 . S
H318 C326 0.950 . S
H319 C328 0.950 . S
H320 C330 0.950 . S
H321 C332 0.950 . S
H322 C334 0.950 . S
H323 C335 0.950 . S
C324 H316 0.950 . S
C324 C325 1.386 . S
C324 C326 1.391 . S
C325 C324 1.386 . S
C325 C329 1.393 . S
C326 H318 0.950 . S
C326 C324 1.391 . S
C326 C327 1.400 . S
C327 C326 1.400 . S
C327 C328 1.398 . S
C327 C333 1.491 . S
C328 H319 0.950 . S
C328 C327 1.398 . S
C328 C329 1.391 . S
C329 H317 0.950 . S
C329 C325 1.393 . S
C329 C328 1.391 . S
C330 H320 0.950 . S
C330 C331 1.386 . S
C330 C332 1.391 . S
C331 C330 1.386 . S
C331 C335 1.393 . S
C332 H321 0.950 . S
C332 C330 1.391 . S
C332 C333 1.400 . S
C333 C327 1.491 . S
C333 C332 1.400 . S
C333 C334 1.398 . S
C334 H322 0.950 . S
C334 C333 1.398 . S
C334 C335 1.391 . S
C335 H323 0.950 . S
C335 C331 1.393 . S
C335 C334 1.391 . S
H336 C344 0.950 . S
H337 C349 0.950 . S
H338 C346 0.950 . S
H339 C348 0.950 . S
H340 C350 0.950 . S
H341 C352 0.950 . S
H342 C354 0.950 . S
H343 C355 0.950 . S
C344 H336 0.950 . S
C344 C345 1.386 . S
C344 C346 1.391 . S
C345 C344 1.386 . S
C345 C349 1.393 . S
C346 H338 0.950 . S
C346 C344 1.391 . S
C346 C347 1.400 . S
C347 C346 1.400 . S
C347 C348 1.398 . S
C347 C353 1.491 . S
C348 H339 0.950 . S
C348 C347 1.398 . S
C348 C349 1.391 . S
C349 H337 0.950 . S
C349 C345 1.393 . S
C349 C348 1.391 . S
C350 H340 0.950 . S
C350 C351 1.386 . S
C350 C352 1.391 . S
C351 C350 1.386 . S
C351 C355 1.393 . S
C352 H341 0.950 . S
C352 C350 1.391 . S
C352 C353 1.400 . S
C353 C347 1.491 . S
C353 C352 1.400 . S
C353 C354 1.398 . S
C354 H342 0.950 . S
C354 C353 1.398 . S
C354 C355 1.391 . S
C355 H343 0.950 . S
C355 C351 1.393 . S
C355 C354 1.391 . S
H356 C364 0.950 . S
H357 C369 0.950 . S
H358 C366 0.950 . S
H359 C368 0.950 . S
H360 C370 0.950 . S
H361 C372 0.950 . S
H362 C374 0.950 . S
H363 C375 0.950 . S
C364 H356 0.950 . S
C364 C365 1.386 . S
C364 C366 1.391 . S
C365 C364 1.386 . S
C365 C369 1.393 . S
C366 H358 0.950 . S
C366 C364 1.391 . S
C366 C367 1.400 . S
C367 C366 1.400 . S
C367 C368 1.398 . S
C367 C373 1.491 . S
C368 H359 0.950 . S
C368 C367 1.398 . S
C368 C369 1.391 . S
C369 H357 0.950 . S
C369 C365 1.393 . S
C369 C368 1.391 . S
C370 H360 0.950 . S
C370 C371 1.386 . S
C370 C372 1.391 . S
C371 C370 1.386 . S
C371 C375 1.393 . S
C372 H361 0.950 . S
C372 C370 1.391 . S
C372 C373 1.400 . S
C373 C367 1.491 . S
C373 C372 1.400 . S
C373 C374 1.398 . S
C374 H362 0.950 . S
C374 C373 1.398 . S
C374 C375 1.391 . S
C375 H363 0.950 . S
C375 C371 1.393 . S
C375 C374 1.391 . S
H376 C384 0.950 . S
H377 C389 0.950 . S
H378 C386 0.950 . S
H379 C388 0.950 . S
H380 C390 0.950 . S
H381 C392 0.950 . S
H382 C394 0.950 . S
H383 C395 0.950 . S
C384 H376 0.950 . S
C384 C385 1.386 . S
C384 C386 1.391 . S
C385 C384 1.386 . S
C385 C389 1.393 . S
C386 H378 0.950 . S
C386 C384 1.391 . S
C386 C387 1.400 . S
C387 C386 1.400 . S
C387 C388 1.398 . S
C387 C393 1.491 . S
C388 H379 0.950 . S
C388 C387 1.398 . S
C388 C389 1.391 . S
C389 H377 0.950 . S
C389 C385 1.393 . S
C389 C388 1.391 . S
C390 H380 0.950 . S
C390 C391 1.386 . S
C390 C392 1.391 . S
C391 C390 1.386 . S
C391 C395 1.393 . S
C392 H381 0.950 . S
C392 C390 1.391 . S
C392 C393 1.400 . S
C393 C387 1.491 . S
C393 C392 1.400 . S
C393 C394 1.398 . S
C394 H382 0.950 . S
C394 C393 1.398 . S
C394 C395 1.391 . S
C395 H383 0.950 . S
C395 C391 1.393 . S
C395 C394 1.391 . S
H396 C404 0.950 . S
H397 C409 0.950 . S
H398 C406 0.950 . S
H399 C408 0.950 . S
H400 C410 0.950 . S
H401 C412 0.950 . S
H402 C414 0.950 . S
H403 C415 0.950 . S
C404 H396 0.950 . S
C404 C405 1.386 . S
C404 C406 1.391 . S
C405 C404 1.386 . S
C405 C409 1.393 . S
C406 H398 0.950 . S
C406 C404 1.391 . S
C406 C407 1.400 . S
C407 C406 1.400 . S
C407 C408 1.398 . S
C407 C413 1.491 . S
C408 H399 0.950 . S
C408 C407 1.398 . S
C408 C409 1.391 . S
C409 H397 0.950 . S
C409 C405 1.393 . S
C409 C408 1.391 . S
C410 H400 0.950 . S
C410 C411 1.386 . S
C410 C412 1.391 . S
C411 C410 1.386 . S
C411 C415 1.393 . S
C412 H401 0.950 . S
C412 C410 1.391 . S
C412 C413 1.400 . S
C413 C407 1.491 . S
C413 C412 1.400 . S
C413 C414 1.398 . S
C414 H402 0.950 . S
C414 C413 1.398 . S
C414 C415 1.391 . S
C415 H403 0.950 . S
C415 C411 1.393 . S
C415 C414 1.391 . S
H416 C424 0.950 . S
H417 C429 0.950 . S
H418 C426 0.950 . S
H419 C428 0.950 . S
H420 C430 0.950 . S
H421 C432 0.950 . S
H422 C434 0.950 . S
H423 C435 0.950 . S
C424 H416 0.950 . S
C424 C425 1.386 . S
C424 C426 1.391 . S
C425 C424 1.386 . S
C425 C429 1.393 . S
C426 H418 0.950 . S
C426 C424 1.391 . S
C426 C427 1.400 . S
C427 C426 1.400 . S
C427 C428 1.398 . S
C427 C433 1.491 . S
C428 H419 0.950 . S
C428 C427 1.398 . S
C428 C429 1.391 . S
C429 H417 0.950 . S
C429 C425 1.393 . S
C429 C428 1.391 . S
C430 H420 0.950 . S
C430 C431 1.386 . S
C430 C432 1.391 . S
C431 C430 1.386 . S
C431 C435 1.393 . S
C432 H421 0.950 . S
C432 C430 1.391 . S
C432 C433 1.400 . S
C433 C427 1.491 . S
C433 C432 1.400 . S
C433 C434 1.398 . S
C434 H422 0.950 . S
C434 C433 1.398 . S
C434 C435 1.391 . S
C435 H423 0.950 . S
C435 C431 1.393 . S
C435 C434 1.391 . S
H436 C444 0.950 . S
H437 C449 0.950 . S
H438 C446 0.950 . S
H439 C448 0.950 . S
H440 C450 0.950 . S
H441 C452 0.950 . S
H442 C454 0.950 . S
H443 C455 0.950 . S
C444 H436 0.950 . S
C444 C445 1.386 . S
C444 C446 1.391 . S
C445 C444 1.386 . S
C445 C449 1.393 . S
C446 H438 0.950 . S
C446 C444 1.391 . S
C446 C447 1.400 . S
C447 C446 1.400 . S
C447 C448 1.398 . S
C447 C453 1.491 . S
C448 H439 0.950 . S
C448 C447 1.398 . S
C448 C449 1.391 . S
C449 H437 0.950 . S
C449 C445 1.393 . S
C449 C448 1.391 . S
C450 H440 0.950 . S
C450 C451 1.386 . S
C450 C452 1.391 . S
C451 C450 1.386 . S
C451 C455 1.393 . S
C452 H441 0.950 . S
C452 C450 1.391 . S
C452 C453 1.400 . S
C453 C447 1.491 . S
C453 C452 1.400 . S
C453 C454 1.398 . S
C454 H442 0.950 . S
C454 C453 1.398 . S
C454 C455 1.391 . S
C455 H443 0.950 . S
C455 C451 1.393 . S
C455 C454 1.391 . S
H456 C464 0.950 . S
H457 C469 0.950 . S
H458 C466 0.950 . S
H459 C468 0.950 . S
H460 C470 0.950 . S
H461 C472 0.950 . S
H462 C474 0.950 . S
H463 C475 0.950 . S
C464 H456 0.950 . S
C464 C465 1.386 . S
C464 C466 1.391 . S
C465 C464 1.386 . S
C465 C469 1.393 . S
C466 H458 0.950 . S
C466 C464 1.391 . S
C466 C467 1.400 . S
C467 C466 1.400 . S
C467 C468 1.398 . S
C467 C473 1.491 . S
C468 H459 0.950 . S
C468 C467 1.398 . S
C468 C469 1.391 . S
C469 H457 0.950 . S
C469 C465 1.393 . S
C469 C468 1.391 . S
C470 H460 0.950 . S
C470 C471 1.386 . S
C470 C472 1.391 . S
C471 C470 1.386 . S
C471 C475 1.393 . S
C472 H461 0.950 . S
C472 C470 1.391 . S
C472 C473 1.400 . S
C473 C467 1.491 . S
C473 C472 1.400 . S
C473 C474 1.398 . S
C474 H462 0.950 . S
C474 C473 1.398 . S
C474 C475 1.391 . S
C475 H463 0.950 . S
C475 C471 1.393 . S
C475 C474 1.391 . S
H476 C484 0.950 . S
H477 C489 0.950 . S
H478 C486 0.950 . S
H479 C488 0.950 . S
H480 C490 0.950 . S
H481 C492 0.950 . S
H482 C494 0.950 . S
H483 C495 0.950 . S
C484 H476 0.950 . S
C484 C485 1.386 . S
C484 C486 1.391 . S
C485 C484 1.386 . S
C485 C489 1.393 . S
C486 H478 0.950 . S
C486 C484 1.391 . S
C486 C487 1.400 . S
C487 C486 1.400 . S
C487 C488 1.398 . S
C487 C493 1.491 . S
C488 H479 0.950 . S
C488 C487 1.398 . S
C488 C489 1.391 . S
C489 H477 0.950 . S
C489 C485 1.393 . S
C489 C488 1.391 . S
C490 H480 0.950 . S
C490 C491 1.386 . S
C490 C492 1.391 . S
C491 C490 1.386 . S
C491 C495 1.393 . S
C492 H481 0.950 . S
C492 C490 1.391 . S
C492 C493 1.400 . S
C493 C487 1.491 . S
C493 C492 1.400 . S
C493 C494 1.398 . S
C494 H482 0.950 . S
C494 C493 1.398 . S
C494 C495 1.391 . S
C495 H483 0.950 . S
C495 C491 1.393 . S
C495 C494 1.391 . S
H496 C504 0.950 . S
H497 C509 0.950 . S
H498 C506 0.950 . S
H499 C508 0.950 . S
H500 C510 0.950 . S
H501 C512 0.950 . S
H502 C514 0.950 . S
H503 C515 0.950 . S
C504 H496 0.950 . S
C504 C505 1.386 . S
C504 C506 1.391 . S
C505 C504 1.386 . S
C505 C509 1.393 . S
C506 H498 0.950 . S
C506 C504 1.391 . S
C506 C507 1.400 . S
C507 C506 1.400 . S
C507 C508 1.398 . S
C507 C513 1.491 . S
C508 H499 0.950 . S
C508 C507 1.398 . S
C508 C509 1.391 . S
C509 H497 0.950 . S
C509 C505 1.393 . S
C509 C508 1.391 . S
C510 H500 0.950 . S
C510 C511 1.386 . S
C510 C512 1.391 . S
C511 C510 1.386 . S
C511 C515 1.393 . S
C512 H501 0.950 . S
C512 C510 1.391 . S
C512 C513 1.400 . S
C513 C507 1.491 . S
C513 C512 1.400 . S
C513 C514 1.398 . S
C514 H502 0.950 . S
C514 C513 1.398 . S
C514 C515 1.391 . S
C515 H503 0.950 . S
C515 C511 1.393 . S
C515 C514 1.391 . S
H516 C524 0.950 . S
H517 C529 0.950 . S
H518 C526 0.950 . S
H519 C528 0.950 . S
H520 C530 0.950 . S
H521 C532 0.950 . S
H522 C534 0.950 . S
H523 C535 0.950 . S
C524 H516 0.950 . S
C524 C525 1.386 . S
C524 C526 1.391 . S
C525 C524 1.386 . S
C525 C529 1.393 . S
C526 H518 0.950 . S
C526 C524 1.391 . S
C526 C527 1.400 . S
C527 C526 1.400 . S
C527 C528 1.398 . S
C527 C533 1.491 . S
C528 H519 0.950 . S
C528 C527 1.398 . S
C528 C529 1.391 . S
C529 H517 0.950 . S
C529 C525 1.393 . S
C529 C528 1.391 . S
C530 H520 0.950 . S
C530 C531 1.386 . S
C530 C532 1.391 . S
C531 C530 1.386 . S
C531 C535 1.393 . S
C532 H521 0.950 . S
C532 C530 1.391 . S
C532 C533 1.400 . S
C533 C527 1.491 . S
C533 C532 1.400 . S
C533 C534 1.398 . S
C534 H522 0.950 . S
C534 C533 1.398 . S
C534 C535 1.391 . S
C535 H523 0.950 . S
C535 C531 1.393 . S
C535 C534 1.391 . S
H536 C544 0.950 . S
H537 C549 0.950 . S
H538 C546 0.950 . S
H539 C548 0.950 . S
H540 C550 0.950 . S
H541 C552 0.950 . S
H542 C554 0.950 . S
H543 C555 0.950 . S
C544 H536 0.950 . S
C544 C545 1.386 . S
C544 C546 1.391 . S
C545 C544 1.386 . S
C545 C549 1.393 . S
C546 H538 0.950 . S
C546 C544 1.391 . S
C546 C547 1.400 . S
C547 C546 1.400 . S
C547 C548 1.398 . S
C547 C553 1.491 . S
C548 H539 0.950 . S
C548 C547 1.398 . S
C548 C549 1.391 . S
C549 H537 0.950 . S
C549 C545 1.393 . S
C549 C548 1.391 . S
C550 H540 0.950 . S
C550 C551 1.386 . S
C550 C552 1.391 . S
C551 C550 1.386 . S
C551 C555 1.393 . S
C552 H541 0.950 . S
C552 C550 1.391 . S
C552 C553 1.400 . S
C553 C547 1.491 . S
C553 C552 1.400 . S
C553 C554 1.398 . S
C554 H542 0.950 . S
C554 C553 1.398 . S
C554 C555 1.391 . S
C555 H543 0.950 . S
C555 C551 1.393 . S
C555 C554 1.391 . S
H556 C564 0.950 . S
H557 C569 0.950 . S
H558 C566 0.950 . S
H559 C568 0.950 . S
H560 C570 0.950 . S
H561 C572 0.950 . S
H562 C574 0.950 . S
H563 C575 0.950 . S
C564 H556 0.950 . S
C564 C565 1.386 . S
C564 C566 1.391 . S
C565 C564 1.386 . S
C565 C569 1.393 . S
C566 H558 0.950 . S
C566 C564 1.391 . S
C566 C567 1.400 . S
C567 C566 1.400 . S
C567 C568 1.398 . S
C567 C573 1.491 . S
C568 H559 0.950 . S
C568 C567 1.398 . S
C568 C569 1.391 . S
C569 H557 0.950 . S
C569 C565 1.393 . S
C569 C568 1.391 . S
C570 H560 0.950 . S
C570 C571 1.386 . S
C570 C572 1.391 . S
C571 C570 1.386 . S
C571 C575 1.393 . S
C572 H561 0.950 . S
C572 C570 1.391 . S
C572 C573 1.400 . S
C573 C567 1.491 . S
C573 C572 1.400 . S
C573 C574 1.398 . S
C574 H562 0.950 . S
C574 C573 1.398 . S
C574 C575 1.391 . S
C575 H563 0.950 . S
C575 C571 1.393 . S
C575 C574 1.391 . S
H576 C584 0.950 . S
H577 C589 0.950 . S
H578 C586 0.950 . S
H579 C588 0.950 . S
H580 C590 0.950 . S
H581 C592 0.950 . S
H582 C594 0.950 . S
H583 C595 0.950 . S
C584 H576 0.950 . S
C584 C585 1.386 . S
C584 C586 1.391 . S
C585 C584 1.386 . S
C585 C589 1.393 . S
C586 H578 0.950 . S
C586 C584 1.391 . S
C586 C587 1.400 . S
C587 C586 1.400 . S
C587 C588 1.398 . S
C587 C593 1.491 . S
C588 H579 0.950 . S
C588 C587 1.398 . S
C588 C589 1.391 . S
C589 H577 0.950 . S
C589 C585 1.393 . S
C589 C588 1.391 . S
C590 H580 0.950 . S
C590 C591 1.386 . S
C590 C592 1.391 . S
C591 C590 1.386 . S
C591 C595 1.393 . S
C592 H581 0.950 . S
C592 C590 1.391 . S
C592 C593 1.400 . S
C593 C587 1.491 . S
C593 C592 1.400 . S
C593 C594 1.398 . S
C594 H582 0.950 . S
C594 C593 1.398 . S
C594 C595 1.391 . S
C595 H583 0.950 . S
C595 C591 1.393 . S
C595 C594 1.391 . S
H596 C604 0.950 . S
H597 C609 0.950 . S
H598 C606 0.950 . S
H599 C608 0.950 . S
H600 C610 0.950 . S
H601 C612 0.950 . S
H602 C614 0.950 . S
H603 C615 0.950 . S
C604 H596 0.950 . S
C604 C605 1.386 . S
C604 C606 1.391 . S
C605 C604 1.386 . S
C605 C609 1.393 . S
C606 H598 0.950 . S
C606 C604 1.391 . S
C606 C607 1.400 . S
C607 C606 1.400 . S
C607 C608 1.398 . S
C607 C613 1.491 . S
C608 H599 0.950 . S
C608 C607 1.398 . S
C608 C609 1.391 . S
C609 H597 0.950 . S
C609 C605 1.393 . S
C609 C608 1.391 . S
C610 H600 0.950 . S
C610 C611 1.386 . S
C610 C612 1.391 . S
C611 C610 1.386 . S
C611 C615 1.393 . S
C612 H601 0.950 . S
C612 C610 1.391 . S
C612 C613 1.400 . S
C613 C607 1.491 . S
C613 C612 1.400 . S
C613 C614 1.398 . S
C614 H602 0.950 . S
C614 C613 1.398 . S
C614 C615 1.391 . S
C615 H603 0.950 . S
C615 C611 1.393 . S
C615 C614 1.391 . S
H616 C624 0.950 . S
H617 C629 0.950 . S
H618 C626 0.950 . S
H619 C628 0.950 . S
H620 C630 0.950 . S
H621 C632 0.950 . S
H622 C634 0.950 . S
H623 C635 0.950 . S
C624 H616 0.950 . S
C624 C625 1.386 . S
C624 C626 1.391 . S
C625 C624 1.386 . S
C625 C629 1.393 . S
C626 H618 0.950 . S
C626 C624 1.391 . S
C626 C627 1.400 . S
C627 C626 1.400 . S
C627 C628 1.398 . S
C627 C633 1.491 . S
C628 H619 0.950 . S
C628 C627 1.398 . S
C628 C629 1.391 . S
C629 H617 0.950 . S
C629 C625 1.393 . S
C629 C628 1.391 . S
C630 H620 0.950 . S
C630 C631 1.386 . S
C630 C632 1.391 . S
C631 C630 1.386 . S
C631 C635 1.393 . S
C632 H621 0.950 . S
C632 C630 1.391 . S
C632 C633 1.400 . S
C633 C627 1.491 . S
C633 C632 1.400 . S
C633 C634 1.398 . S
C634 H622 0.950 . S
C634 C633 1.398 . S
C634 C635 1.391 . S
C635 H623 0.950 . S
C635 C631 1.393 . S
C635 C634 1.391 . S
H636 C644 0.950 . S
H637 C649 0.950 . S
H638 C646 0.950 . S
H639 C648 0.950 . S
H640 C650 0.950 . S
H641 C652 0.950 . S
H642 C654 0.950 . S
H643 C655 0.950 . S
C644 H636 0.950 . S
C644 C645 1.386 . S
C644 C646 1.391 . S
C645 C644 1.386 . S
C645 C649 1.393 . S
C646 H638 0.950 . S
C646 C644 1.391 . S
C646 C647 1.400 . S
C647 C646 1.400 . S
C647 C648 1.398 . S
C647 C653 1.491 . S
C648 H639 0.950 . S
C648 C647 1.398 . S
C648 C649 1.391 . S
C649 H637 0.950 . S
C649 C645 1.393 . S
C649 C648 1.391 . S
C650 H640 0.950 . S
C650 C651 1.386 . S
C650 C652 1.391 . S
C651 C650 1.386 . S
C651 C655 1.393 . S
C652 H641 0.950 . S
C652 C650 1.391 . S
C652 C653 1.400 . S
C653 C647 1.491 . S
C653 C652 1.400 . S
C653 C654 1.398 . S
C654 H642 0.950 . S
C654 C653 1.398 . S
C654 C655 1.391 . S
C655 H643 0.950 . S
C655 C651 1.393 . S
C655 C654 1.391 . S
H656 C664 0.950 . S
H657 C669 0.950 . S
H658 C666 0.950 . S
H659 C668 0.950 . S
H660 C670 0.950 . S
H661 C672 0.950 . S
H662 C674 0.950 . S
H663 C675 0.950 . S
C664 H656 0.950 . S
C664 C665 1.386 . S
C664 C666 1.391 . S
C665 C664 1.386 . S
C665 C669 1.393 . S
C666 H658 0.950 . S
C666 C664 1.391 . S
C666 C667 1.400 . S
C667 C666 1.400 . S
C667 C668 1.398 . S
C667 C673 1.491 . S
C668 H659 0.950 . S
C668 C667 1.398 . S
C668 C669 1.391 . S
C669 H657 0.950 . S
C669 C665 1.393 . S
C669 C668 1.391 . S
C670 H660 0.950 . S
C670 C671 1.386 . S
C670 C672 1.391 . S
C671 C670 1.386 . S
C671 C675 1.393 . S
C672 H661 0.950 . S
C672 C670 1.391 . S
C672 C673 1.400 . S
C673 C667 1.491 . S
C673 C672 1.400 . S
C673 C674 1.398 . S
C674 H662 0.950 . S
C674 C673 1.398 . S
C674 C675 1.391 . S
C675 H663 0.950 . S
C675 C671 1.393 . S
C675 C674 1.391 . S
H676 C684 0.950 . S
H677 C689 0.950 . S
H678 C686 0.950 . S
H679 C688 0.950 . S
H680 C690 0.950 . S
H681 C692 0.950 . S
H682 C694 0.950 . S
H683 C695 0.950 . S
C684 H676 0.950 . S
C684 C685 1.386 . S
C684 C686 1.391 . S
C685 C684 1.386 . S
C685 C689 1.393 . S
C686 H678 0.950 . S
C686 C684 1.391 . S
C686 C687 1.400 . S
C687 C686 1.400 . S
C687 C688 1.398 . S
C687 C693 1.491 . S
C688 H679 0.950 . S
C688 C687 1.398 . S
C688 C689 1.391 . S
C689 H677 0.950 . S
C689 C685 1.393 . S
C689 C688 1.391 . S
C690 H680 0.950 . S
C690 C691 1.386 . S
C690 C692 1.391 . S
C691 C690 1.386 . S
C691 C695 1.393 . S
C692 H681 0.950 . S
C692 C690 1.391 . S
C692 C693 1.400 . S
C693 C687 1.491 . S
C693 C692 1.400 . S
C693 C694 1.398 . S
C694 H682 0.950 . S
C694 C693 1.398 . S
C694 C695 1.391 . S
C695 H683 0.950 . S
C695 C691 1.393 . S
C695 C694 1.391 . S
H696 C704 0.950 . S
H697 C709 0.950 . S
H698 C706 0.950 . S
H699 C708 0.950 . S
H700 C710 0.950 . S
H701 C712 0.950 . S
H702 C714 0.950 . S
H703 C715 0.950 . S
C704 H696 0.950 . S
C704 C705 1.386 . S
C704 C706 1.391 . S
C705 C704 1.386 . S
C705 C709 1.393 . S
C706 H698 0.950 . S
C706 C704 1.391 . S
C706 C707 1.400 . S
C707 C706 1.400 . S
C707 C708 1.398 . S
C707 C713 1.491 . S
C708 H699 0.950 . S
C708 C707 1.398 . S
C708 C709 1.391 . S
C709 H697 0.950 . S
C709 C705 1.393 . S
C709 C708 1.391 . S
C710 H700 0.950 . S
C710 C711 1.386 . S
C710 C712 1.391 . S
C711 C710 1.386 . S
C711 C715 1.393 . S
C712 H701 0.950 . S
C712 C710 1.391 . S
C712 C713 1.400 . S
C713 C707 1.491 . S
C713 C712 1.400 . S
C713 C714 1.398 . S
C714 H702 0.950 . S
C714 C713 1.398 . S
C714 C715 1.391 . S
C715 H703 0.950 . S
C715 C711 1.393 . S
C715 C714 1.391 . S
H716 C724 0.950 . S
H717 C729 0.950 . S
H718 C726 0.950 . S
H719 C728 0.950 . S
H720 C730 0.950 . S
H721 C732 0.950 . S
H722 C734 0.950 . S
H723 C735 0.950 . S
C724 H716 0.950 . S
C724 C725 1.386 . S
C724 C726 1.391 . S
C725 C724 1.386 . S
C725 C729 1.393 . S
C726 H718 0.950 . S
C726 C724 1.391 . S
C726 C727 1.400 . S
C727 C726 1.400 . S
C727 C728 1.398 . S
C727 C733 1.491 . S
C728 H719 0.950 . S
C728 C727 1.398 . S
C728 C729 1.391 . S
C729 H717 0.950 . S
C729 C725 1.393 . S
C729 C728 1.391 . S
C730 H720 0.950 . S
C730 C731 1.386 . S
C730 C732 1.391 . S
C731 C730 1.386 . S
C731 C735 1.393 . S
C732 H721 0.950 . S
C732 C730 1.391 . S
C732 C733 1.400 . S
C733 C727 1.491 . S
C733 C732 1.400 . S
C733 C734 1.398 . S
C734 H722 0.950 . S
C734 C733 1.398 . S
C734 C735 1.391 . S
C735 H723 0.950 . S
C735 C731 1.393 . S
C735 C734 1.391 . S
H736 C744 0.950 . S
H737 C749 0.950 . S
H738 C746 0.950 . S
H739 C748 0.950 . S
H740 C750 0.950 . S
H741 C752 0.950 . S
H742 C754 0.950 . S
H743 C755 0.950 . S
C744 H736 0.950 . S
C744 C745 1.386 . S
C744 C746 1.391 . S
C745 C744 1.386 . S
C745 C749 1.393 . S
C746 H738 0.950 . S
C746 C744 1.391 . S
C746 C747 1.400 . S
C747 C746 1.400 . S
C747 C748 1.398 . S
C747 C753 1.491 . S
C748 H739 0.950 . S
C748 C747 1.398 . S
C748 C749 1.391 . S
C749 H737 0.950 . S
C749 C745 1.393 . S
C749 C748 1.391 . S
C750 H740 0.950 . S
C750 C751 1.386 . S
C750 C752 1.391 . S
C751 C750 1.386 . S
C751 C755 1.393 . S
C752 H741 0.950 . S
C752 C750 1.391 . S
C752 C753 1.400 . S
C753 C747 1.491 . S
C753 C752 1.400 . S
C753 C754 1.398 . S
C754 H742 0.950 . S
C754 C753 1.398 . S
C754 C755 1.391 . S
C755 H743 0.950 . S
C755 C751 1.393 . S
C755 C754 1.391 . S
C285 C7 2.243 . S
C291 C145 2.218 . S
C305 C30 1.329 . S
C311 N163 1.310 . S
C331 C191 2.058 . S
C325 N58 2.031 . S
C351 N209 1.215 . S
C345 N81 1.192 . S
C371 C237 2.127 . S
C365 C99 2.159 . S
C391 N255 1.239 . S
C385 N127 1.208 . S
C405 N25 2.043 . S
C411 C200 2.083 . S
C425 C62 1.324 . S
C431 N219 1.271 . S
C451 C246 2.179 . S
C445 C85 2.167 . S
C471 N265 1.204 . S
C465 N94 1.226 . S
C485 C131 2.168 . S
C491 C154 2.167 . S
C511 N173 1.150 . S
C505 N2 1.174 . S
C531 C223 2.051 . S
C525 C16 2.084 . S
C545 C39 1.176 . S
C551 N242 1.157 . S
C571 C269 1.919 . S
C565 N48 1.927 . S
C585 N71 1.083 . S
C591 N150 1.078 . S
C605 C108 2.038 . S
C611 C177 1.995 . S
C625 N117 1.076 . S
C631 N196 1.094 . S
C645 N35 1.922 . S
C651 C260 1.952 . S
C671 N140 1.113 . S
C665 C53 1.191 . S
C685 C76 2.118 . S
C691 C168 2.107 . S
C705 N104 1.053 . S
C711 N186 1.022 . S
C725 C122 2.051 . S
C731 C214 2.034 . S
C745 N12 1.030 . S
C751 N232 1.017 . S
