# Generated by pormake.
# Topology ocu, (6,8)-cn, num edge types: 1
# Building blocks:
#     Node 0, Type 0, BuildingBlock: CUWYAW_clean_sbu_0, # of connection points: 6
#     Node 1, Type 0, BuildingBlock: CUWYAW_clean_sbu_0, # of connection points: 6
#     Node 2, Type 0, BuildingBlock: CUWYAW_clean_sbu_0, # of connection points: 6
#     Node 3, Type 0, BuildingBlock: CUWYAW_clean_sbu_0, # of connection points: 6
#     Node 4, Type 0, BuildingBlock: CUWYAW_clean_sbu_0, # of connection points: 6
#     Node 5, Type 0, BuildingBlock: CUWYAW_clean_sbu_0, # of connection points: 6
#     Node 6, Type 0, BuildingBlock: CUWYAW_clean_sbu_0, # of connection points: 6
#     Node 7, Type 0, BuildingBlock: CUWYAW_clean_sbu_0, # of connection points: 6
#     Node 8, Type 1, BuildingBlock: AJUNOK_clean_sbu_0, # of connection points: 8
#     Node 9, Type 1, BuildingBlock: AJUNOK_clean_sbu_0, # of connection points: 8
#     Node 10, Type 1, BuildingBlock: AJUNOK_clean_sbu_0, # of connection points: 8
#     Node 11, Type 1, BuildingBlock: AJUNOK_clean_sbu_0, # of connection points: 8
#     Node 12, Type 1, BuildingBlock: AJUNOK_clean_sbu_0, # of connection points: 8
#     Node 13, Type 1, BuildingBlock: AJUNOK_clean_sbu_0, # of connection points: 8
#     Edge 14, Type (0, 1), BuildingBlock: MIFKUJ_clean_linker_0, # of connection points: 2
#     Edge 15, Type (0, 1), BuildingBlock: MIFKUJ_clean_linker_0, # of connection points: 2
#     Edge 16, Type (0, 1), BuildingBlock: MIFKUJ_clean_linker_0, # of connection points: 2
#     Edge 17, Type (0, 1), BuildingBlock: MIFKUJ_clean_linker_0, # of connection points: 2
#     Edge 18, Type (0, 1), BuildingBlock: MIFKUJ_clean_linker_0, # of connection points: 2
#     Edge 19, Type (0, 1), BuildingBlock: MIFKUJ_clean_linker_0, # of connection points: 2
#     Edge 20, Type (0, 1), BuildingBlock: MIFKUJ_clean_linker_0, # of connection points: 2
#     Edge 21, Type (0, 1), BuildingBlock: MIFKUJ_clean_linker_0, # of connection points: 2
#     Edge 22, Type (0, 1), BuildingBlock: MIFKUJ_clean_linker_0, # of connection points: 2
#     Edge 23, Type (0, 1), BuildingBlock: MIFKUJ_clean_linker_0, # of connection points: 2
#     Edge 24, Type (0, 1), BuildingBlock: MIFKUJ_clean_linker_0, # of connection points: 2
#     Edge 25, Type (0, 1), BuildingBlock: MIFKUJ_clean_linker_0, # of connection points: 2
#     Edge 26, Type (0, 1), BuildingBlock: MIFKUJ_clean_linker_0, # of connection points: 2
#     Edge 27, Type (0, 1), BuildingBlock: MIFKUJ_clean_linker_0, # of connection points: 2
#     Edge 28, Type (0, 1), BuildingBlock: MIFKUJ_clean_linker_0, # of connection points: 2
#     Edge 29, Type (0, 1), BuildingBlock: MIFKUJ_clean_linker_0, # of connection points: 2
#     Edge 30, Type (0, 1), BuildingBlock: MIFKUJ_clean_linker_0, # of connection points: 2
#     Edge 31, Type (0, 1), BuildingBlock: MIFKUJ_clean_linker_0, # of connection points: 2
#     Edge 32, Type (0, 1), BuildingBlock: MIFKUJ_clean_linker_0, # of connection points: 2
#     Edge 33, Type (0, 1), BuildingBlock: MIFKUJ_clean_linker_0, # of connection points: 2
#     Edge 34, Type (0, 1), BuildingBlock: MIFKUJ_clean_linker_0, # of connection points: 2
#     Edge 35, Type (0, 1), BuildingBlock: MIFKUJ_clean_linker_0, # of connection points: 2
#     Edge 36, Type (0, 1), BuildingBlock: MIFKUJ_clean_linker_0, # of connection points: 2
#     Edge 37, Type (0, 1), BuildingBlock: MIFKUJ_clean_linker_0, # of connection points: 2
#     Edge 38, Type (0, 1), BuildingBlock: MIFKUJ_clean_linker_0, # of connection points: 2
#     Edge 39, Type (0, 1), BuildingBlock: MIFKUJ_clean_linker_0, # of connection points: 2
#     Edge 40, Type (0, 1), BuildingBlock: MIFKUJ_clean_linker_0, # of connection points: 2
#     Edge 41, Type (0, 1), BuildingBlock: MIFKUJ_clean_linker_0, # of connection points: 2
#     Edge 42, Type (0, 1), BuildingBlock: MIFKUJ_clean_linker_0, # of connection points: 2
#     Edge 43, Type (0, 1), BuildingBlock: MIFKUJ_clean_linker_0, # of connection points: 2
#     Edge 44, Type (0, 1), BuildingBlock: MIFKUJ_clean_linker_0, # of connection points: 2
#     Edge 45, Type (0, 1), BuildingBlock: MIFKUJ_clean_linker_0, # of connection points: 2
#     Edge 46, Type (0, 1), BuildingBlock: MIFKUJ_clean_linker_0, # of connection points: 2
#     Edge 47, Type (0, 1), BuildingBlock: MIFKUJ_clean_linker_0, # of connection points: 2
#     Edge 48, Type (0, 1), BuildingBlock: MIFKUJ_clean_linker_0, # of connection points: 2
#     Edge 49, Type (0, 1), BuildingBlock: MIFKUJ_clean_linker_0, # of connection points: 2
#     Edge 50, Type (0, 1), BuildingBlock: MIFKUJ_clean_linker_0, # of connection points: 2
#     Edge 51, Type (0, 1), BuildingBlock: MIFKUJ_clean_linker_0, # of connection points: 2
#     Edge 52, Type (0, 1), BuildingBlock: MIFKUJ_clean_linker_0, # of connection points: 2
#     Edge 53, Type (0, 1), BuildingBlock: MIFKUJ_clean_linker_0, # of connection points: 2
#     Edge 54, Type (0, 1), BuildingBlock: MIFKUJ_clean_linker_0, # of connection points: 2
#     Edge 55, Type (0, 1), BuildingBlock: MIFKUJ_clean_linker_0, # of connection points: 2
#     Edge 56, Type (0, 1), BuildingBlock: MIFKUJ_clean_linker_0, # of connection points: 2
#     Edge 57, Type (0, 1), BuildingBlock: MIFKUJ_clean_linker_0, # of connection points: 2
#     Edge 58, Type (0, 1), BuildingBlock: MIFKUJ_clean_linker_0, # of connection points: 2
#     Edge 59, Type (0, 1), BuildingBlock: MIFKUJ_clean_linker_0, # of connection points: 2
#     Edge 60, Type (0, 1), BuildingBlock: MIFKUJ_clean_linker_0, # of connection points: 2
#     Edge 61, Type (0, 1), BuildingBlock: MIFKUJ_clean_linker_0, # of connection points: 2
# Relax obj value: 0.155
# Max RMSD: 0.204
# Mean RMSD: 0.170
data_MOF--net-ocu--node1-CUWYAW_clean_sbu_0--node2-AJUNOK_clean_sbu_0--edge1-MIFKUJ_clean_linker_0
_symmetry_space_group_name_H-M    P1
_symmetry_Int_Tables_number       1
_symmetry_cell_setting            triclinic
loop_
_symmetry_equiv_pos_as_xyz
'x, y, z'
_cell_length_a     56.314405
_cell_length_b     55.907982
_cell_length_c     45.725026
_cell_angle_alpha  92.742908
_cell_angle_beta   105.6089
_cell_angle_gamma 106.3098
loop_
_atom_site_label
_atom_site_type_symbol
_atom_site_fract_x
_atom_site_fract_y
_atom_site_fract_z
_atom_type_partial_charge
C0 C 0.30302 0.30501 0.3602 0.0
Eu1 Eu 0.28846 0.28479 0.30354 0.0
C2 C 0.28964 0.31416 0.37936 0.0
C3 C 0.30357 0.33457 0.40227 0.0
C4 C 0.29049 0.3465 0.41698 0.0
C5 C 0.26332 0.33809 0.40892 0.0
C6 C 0.24947 0.31682 0.38701 0.0
C7 C 0.26256 0.30502 0.37212 0.0
C8 C 0.3137 0.299 0.26001 0.0
C9 C 0.23962 0.30027 0.25771 0.0
C10 C 0.24148 0.23009 0.18541 0.0
Eu11 Eu 0.25607 0.25027 0.24194 0.0
C12 C 0.25576 0.22198 0.16664 0.0
C13 C 0.24444 0.1989 0.14766 0.0
C14 C 0.25954 0.18819 0.13488 0.0
C15 C 0.28617 0.20052 0.14091 0.0
C16 C 0.2971 0.22427 0.15877 0.0
C17 C 0.28205 0.23487 0.17166 0.0
C18 C 0.23112 0.23543 0.28544 0.0
C19 C 0.3048 0.23489 0.28796 0.0
O20 O 0.29557 0.28066 0.35196 0.0
O21 O 0.30587 0.31794 0.33762 0.0
O22 O 0.32245 0.3083 0.28869 0.0
O23 O 0.29265 0.28158 0.2565 0.0
O24 O 0.25745 0.30462 0.28496 0.0
O25 O 0.23616 0.28103 0.23718 0.0
O26 O 0.24758 0.2544 0.19346 0.0
O27 O 0.23936 0.21702 0.20809 0.0
O28 O 0.22296 0.22565 0.25697 0.0
O29 O 0.25201 0.25315 0.2891 0.0
O30 O 0.28894 0.23229 0.25963 0.0
O31 O 0.30628 0.25251 0.30946 0.0
H32 H 0.32445 0.34195 0.4078 0.0
H33 H 0.30153 0.36275 0.43403 0.0
H34 H 0.2285 0.31016 0.38028 0.0
H35 H 0.25149 0.28951 0.35403 0.0
H36 H 0.22427 0.18852 0.14412 0.0
H37 H 0.25062 0.16972 0.12159 0.0
H38 H 0.31747 0.23434 0.16362 0.0
H39 H 0.29128 0.25253 0.18674 0.0
C40 C 0.8341 0.29928 0.23192 0.0
Eu41 Eu 0.79768 0.27982 0.25559 0.0
C42 C 0.82998 0.30727 0.20115 0.0
C43 C 0.83101 0.29199 0.17644 0.0
C44 C 0.82302 0.29733 0.14641 0.0
C45 C 0.81385 0.31808 0.14051 0.0
C46 C 0.81271 0.33314 0.16544 0.0
C47 C 0.8208 0.32793 0.19523 0.0
C48 C 0.75794 0.24155 0.22013 0.0
C49 C 0.74685 0.29645 0.23616 0.0
C50 C 0.72056 0.24054 0.30839 0.0
Eu51 Eu 0.75798 0.25827 0.2855 0.0
C52 C 0.72277 0.23649 0.34043 0.0
C53 C 0.71402 0.25106 0.3585 0.0
C54 C 0.71803 0.24899 0.38963 0.0
C55 C 0.7305 0.23197 0.40315 0.0
C56 C 0.74015 0.21817 0.38518 0.0
C57 C 0.73642 0.22047 0.35423 0.0
C58 C 0.79718 0.29739 0.3204 0.0
C59 C 0.80853 0.24121 0.30479 0.0
O60 O 0.82862 0.31233 0.25241 0.0
O61 O 0.82519 0.27504 0.23204 0.0
O62 O 0.76876 0.26164 0.20999 0.0
O63 O 0.7687 0.24207 0.24814 0.0
O64 O 0.77208 0.30441 0.24031 0.0
O65 O 0.73645 0.27594 0.24721 0.0
O66 O 0.72862 0.22604 0.29248 0.0
O67 O 0.72826 0.26414 0.30441 0.0
O68 O 0.78699 0.27725 0.33091 0.0
O69 O 0.78628 0.29631 0.29235 0.0
O70 O 0.78341 0.23374 0.30137 0.0
O71 O 0.81902 0.26125 0.29298 0.0
H72 H 0.83761 0.27566 0.1803 0.0
H73 H 0.82443 0.28551 0.12789 0.0
H74 H 0.80671 0.34986 0.16232 0.0
H75 H 0.81948 0.34003 0.21357 0.0
H76 H 0.70408 0.26408 0.34852 0.0
H77 H 0.71044 0.25994 0.40285 0.0
H78 H 0.74932 0.20443 0.39448 0.0
H79 H 0.74405 0.20946 0.34114 0.0
C80 C 0.78043 0.74028 0.36032 0.0
Eu81 Eu 0.77509 0.75465 0.30637 0.0
C82 C 0.79889 0.729 0.3787 0.0
C83 C 0.79347 0.71629 0.40291 0.0
C84 C 0.81076 0.70463 0.4195 0.0
C85 C 0.83356 0.70552 0.41189 0.0
C86 C 0.8389 0.7185 0.38769 0.0
C87 C 0.82168 0.73009 0.37119 0.0
C88 C 0.73481 0.73507 0.25608 0.0
C89 C 0.80417 0.73562 0.26106 0.0
C90 C 0.77127 0.79533 0.19667 0.0
Eu91 Eu 0.77721 0.78194 0.25091 0.0
C92 C 0.75176 0.80536 0.17832 0.0
C93 C 0.75847 0.8228 0.15874 0.0
C94 C 0.74092 0.8349 0.14426 0.0
C95 C 0.71652 0.82958 0.14924 0.0
C96 C 0.70957 0.81153 0.16817 0.0
C97 C 0.72717 0.79959 0.18281 0.0
C98 C 0.81717 0.80184 0.30095 0.0
C99 C 0.74807 0.8011 0.29604 0.0
O100 O 0.79033 0.76347 0.35591 0.0
O101 O 0.76441 0.72611 0.33526 0.0
O102 O 0.74515 0.72134 0.27435 0.0
O103 O 0.74563 0.75797 0.26536 0.0
O104 O 0.80225 0.73681 0.28948 0.0
O105 O 0.79405 0.74971 0.24168 0.0
O106 O 0.76275 0.77203 0.2015 0.0
O107 O 0.78687 0.81024 0.22142 0.0
O108 O 0.80745 0.81549 0.28203 0.0
O109 O 0.80662 0.77885 0.29197 0.0
O110 O 0.75017 0.7999 0.26769 0.0
O111 O 0.75824 0.78705 0.31557 0.0
H112 H 0.77582 0.71519 0.40876 0.0
H113 H 0.8061 0.69461 0.43792 0.0
H114 H 0.85653 0.7199 0.38165 0.0
H115 H 0.82612 0.73985 0.3525 0.0
H116 H 0.77748 0.82755 0.15536 0.0
H117 H 0.74647 0.8486 0.12943 0.0
H118 H 0.6909 0.80732 0.17244 0.0
H119 H 0.72186 0.78641 0.19831 0.0
C120 C 0.24255 0.81961 0.29145 0.0
Eu121 Eu 0.25987 0.78558 0.27188 0.0
C122 C 0.23279 0.82505 0.31713 0.0
C123 C 0.2061 0.82072 0.3119 0.0
C124 C 0.19656 0.82711 0.33531 0.0
C125 C 0.21354 0.83823 0.3644 0.0
C126 C 0.24021 0.84214 0.3699 0.0
C127 C 0.24976 0.83555 0.34649 0.0
C128 C 0.24431 0.7599 0.215 0.0
C129 C 0.24241 0.734 0.30212 0.0
C130 C 0.29817 0.7057 0.25157 0.0
Eu131 Eu 0.28568 0.74524 0.26513 0.0
C132 C 0.31317 0.70074 0.23158 0.0
C133 C 0.33528 0.71937 0.22983 0.0
C134 C 0.34851 0.71491 0.20939 0.0
C135 C 0.33956 0.69196 0.19007 0.0
C136 C 0.31726 0.67349 0.19163 0.0
C137 C 0.3042 0.67785 0.2123 0.0
C138 C 0.31248 0.7826 0.31147 0.0
C139 C 0.30397 0.7966 0.23718 0.0
O140 O 0.26733 0.82193 0.29777 0.0
O141 O 0.22781 0.80008 0.27118 0.0
O142 O 0.2449 0.78307 0.22013 0.0
O143 O 0.24898 0.75085 0.23984 0.0
O144 O 0.23831 0.75564 0.29572 0.0
O145 O 0.26014 0.72651 0.29361 0.0
O146 O 0.27624 0.70923 0.23741 0.0
O147 O 0.31093 0.72168 0.27645 0.0
O148 O 0.32323 0.77266 0.29442 0.0
O149 O 0.28845 0.77203 0.30392 0.0
O150 O 0.29985 0.77193 0.23302 0.0
O151 O 0.29415 0.80672 0.25612 0.0
H152 H 0.19259 0.81288 0.28945 0.0
H153 H 0.17597 0.82433 0.33023 0.0
H154 H 0.25369 0.85066 0.39215 0.0
H155 H 0.27045 0.83913 0.35128 0.0
H156 H 0.3422 0.73744 0.24404 0.0
H157 H 0.36556 0.72948 0.20844 0.0
H158 H 0.31016 0.65551 0.17721 0.0
H159 H 0.28697 0.66343 0.21308 0.0
C160 C 0.33605 0.82242 0.76079 0.0
Eu161 Eu 0.29881 0.78365 0.76232 0.0
C162 C 0.33338 0.84162 0.74059 0.0
C163 C 0.31079 0.83659 0.71585 0.0
C164 C 0.30795 0.85389 0.69537 0.0
C165 C 0.32787 0.87645 0.69902 0.0
C166 C 0.34962 0.88233 0.72525 0.0
C167 C 0.3524 0.86493 0.74588 0.0
C168 C 0.27156 0.74753 0.71409 0.0
C169 C 0.24141 0.78828 0.73644 0.0
C170 C 0.21667 0.70263 0.77192 0.0
Eu171 Eu 0.25428 0.742 0.77252 0.0
C172 C 0.21654 0.68535 0.79488 0.0
C173 C 0.23795 0.69091 0.8212 0.0
C174 C 0.2361 0.67887 0.84678 0.0
C175 C 0.21279 0.66108 0.84623 0.0
C176 C 0.19264 0.65313 0.81846 0.0
C177 C 0.19436 0.6655 0.79292 0.0
C178 C 0.27975 0.77918 0.81984 0.0
C179 C 0.31186 0.73903 0.80182 0.0
O180 O 0.32372 0.82153 0.78144 0.0
O181 O 0.33228 0.80013 0.74661 0.0
O182 O 0.28048 0.77104 0.71133 0.0
O183 O 0.2785 0.74435 0.74174 0.0
O184 O 0.26644 0.80064 0.7459 0.0
O185 O 0.23232 0.76463 0.74123 0.0
O186 O 0.23282 0.70257 0.75605 0.0
O187 O 0.21786 0.72538 0.78215 0.0
O188 O 0.27128 0.75585 0.82378 0.0
O189 O 0.27364 0.78165 0.79198 0.0
O190 O 0.28693 0.72652 0.79293 0.0
O191 O 0.32086 0.76188 0.79468 0.0
H192 H 0.29561 0.81891 0.71176 0.0
H193 H 0.29078 0.84901 0.67579 0.0
H194 H 0.36531 0.89963 0.72882 0.0
H195 H 0.36967 0.86933 0.76529 0.0
H196 H 0.25531 0.70608 0.82297 0.0
H197 H 0.25191 0.6852 0.86784 0.0
H198 H 0.17453 0.63924 0.81742 0.0
H199 H 0.17779 0.66082 0.77262 0.0
C200 C 0.29002 0.23243 0.70045 0.0
Eu201 Eu 0.28174 0.25613 0.74587 0.0
C202 C 0.30805 0.21961 0.69254 0.0
C203 C 0.3271 0.23235 0.67934 0.0
C204 C 0.34249 0.21993 0.66909 0.0
C205 C 0.33928 0.19423 0.6715 0.0
C206 C 0.32043 0.18156 0.68512 0.0
C207 C 0.30501 0.19401 0.69535 0.0
C208 C 0.31437 0.29653 0.78501 0.0
C209 C 0.29735 0.24113 0.81393 0.0
C210 C 0.25183 0.30236 0.84254 0.0
Eu211 Eu 0.26027 0.27815 0.79767 0.0
C212 C 0.23478 0.31644 0.85031 0.0
C213 C 0.20899 0.30429 0.84944 0.0
C214 C 0.19417 0.31759 0.85955 0.0
C215 C 0.2047 0.34344 0.87101 0.0
C216 C 0.23039 0.35558 0.87137 0.0
C217 C 0.24516 0.34229 0.86129 0.0
C218 C 0.22785 0.23818 0.75748 0.0
C219 C 0.24418 0.29216 0.72909 0.0
O220 O 0.27489 0.22134 0.71639 0.0
O221 O 0.29843 0.25696 0.70776 0.0
O222 O 0.32237 0.28063 0.77169 0.0
O223 O 0.2903 0.29187 0.77481 0.0
O224 O 0.29476 0.23541 0.78457 0.0
O225 O 0.28745 0.25766 0.82416 0.0
O226 O 0.26766 0.31309 0.82722 0.0
O227 O 0.24238 0.2779 0.83465 0.0
O228 O 0.21992 0.25488 0.76952 0.0
O229 O 0.25174 0.24247 0.76901 0.0
O230 O 0.24726 0.29858 0.75845 0.0
O231 O 0.25347 0.2751 0.71893 0.0
H232 H 0.32987 0.25196 0.6764 0.0
H233 H 0.35695 0.23057 0.65923 0.0
H234 H 0.31701 0.16174 0.68711 0.0
H235 H 0.2903 0.18336 0.70489 0.0
H236 H 0.20033 0.28435 0.84149 0.0
H237 H 0.17465 0.30735 0.85917 0.0
H238 H 0.23923 0.37547 0.87947 0.0
H239 H 0.26501 0.35225 0.86258 0.0
C240 C 0.73053 0.31267 0.76919 0.0
Eu241 Eu 0.75814 0.2825 0.768 0.0
C242 C 0.71706 0.31917 0.79015 0.0
C243 C 0.69985 0.33304 0.78081 0.0
C244 C 0.68796 0.34052 0.80117 0.0
C245 C 0.69316 0.33421 0.83117 0.0
C246 C 0.70976 0.31951 0.84007 0.0
C247 C 0.7217 0.3121 0.8197 0.0
C248 C 0.74699 0.24609 0.72026 0.0
C249 C 0.74321 0.2378 0.80978 0.0
C250 C 0.81736 0.21908 0.77782 0.0
Eu251 Eu 0.79011 0.24906 0.78143 0.0
C252 C 0.8285 0.21278 0.75411 0.0
C253 C 0.85162 0.2066 0.76247 0.0
C254 C 0.86251 0.20086 0.74004 0.0
C255 C 0.85033 0.20114 0.70893 0.0
C256 C 0.82733 0.20769 0.70066 0.0
C257 C 0.81659 0.21367 0.72312 0.0
C258 C 0.80211 0.28577 0.82906 0.0
C259 C 0.80524 0.29422 0.74041 0.0
O260 O 0.75578 0.31971 0.77982 0.0
O261 O 0.7209 0.28979 0.7547 0.0
O262 O 0.74742 0.26913 0.71739 0.0
O263 O 0.75155 0.24294 0.74819 0.0
O264 O 0.74193 0.2601 0.80252 0.0
O265 O 0.75933 0.22765 0.80159 0.0
O266 O 0.79207 0.21153 0.77051 0.0
O267 O 0.82753 0.24213 0.79178 0.0
O268 O 0.80224 0.26286 0.83196 0.0
O269 O 0.79691 0.28874 0.80103 0.0
O270 O 0.80575 0.27142 0.74635 0.0
O271 O 0.78978 0.30454 0.74977 0.0
H272 H 0.69595 0.33845 0.75798 0.0
H273 H 0.67497 0.35156 0.7936 0.0
H274 H 0.71428 0.31457 0.86311 0.0
H275 H 0.73502 0.30139 0.82725 0.0
H276 H 0.86114 0.20605 0.78631 0.0
H277 H 0.88007 0.19551 0.74694 0.0
H278 H 0.81766 0.20813 0.67685 0.0
H279 H 0.79892 0.21883 0.71627 0.0
C280 C 0.77988 0.81413 0.8561 0.0
Eu281 Eu 0.78284 0.79248 0.80604 0.0
C282 C 0.76348 0.82855 0.86394 0.0
C283 C 0.77349 0.85478 0.87187 0.0
C284 C 0.7581 0.86868 0.87876 0.0
C285 C 0.73241 0.85663 0.87813 0.0
C286 C 0.72249 0.83035 0.87058 0.0
C287 C 0.73784 0.81647 0.86359 0.0
C288 C 0.81408 0.80983 0.7691 0.0
C289 C 0.74074 0.79736 0.74234 0.0
C290 C 0.77099 0.73205 0.69349 0.0
Eu291 Eu 0.76814 0.75262 0.74426 0.0
C292 C 0.78689 0.71788 0.68395 0.0
C293 C 0.77721 0.69158 0.67681 0.0
C294 C 0.79196 0.67797 0.66775 0.0
C295 C 0.81667 0.69036 0.66536 0.0
C296 C 0.82623 0.71671 0.67207 0.0
C297 C 0.81149 0.73034 0.68122 0.0
C298 C 0.73704 0.73463 0.78117 0.0
C299 C 0.81026 0.74765 0.80784 0.0
O300 O 0.76885 0.79013 0.84613 0.0
O301 O 0.79582 0.82504 0.8411 0.0
O302 O 0.8155 0.82223 0.79463 0.0
O303 O 0.79684 0.78888 0.7661 0.0
O304 O 0.75195 0.80465 0.77224 0.0
O305 O 0.74402 0.77837 0.72693 0.0
O306 O 0.78225 0.7559 0.70425 0.0
O307 O 0.75538 0.7206 0.70862 0.0
O308 O 0.73559 0.72272 0.75528 0.0
O309 O 0.75432 0.75572 0.78471 0.0
O310 O 0.79942 0.74078 0.77778 0.0
O311 O 0.80657 0.76635 0.82342 0.0
H312 H 0.79325 0.8646 0.87268 0.0
H313 H 0.76643 0.88886 0.88492 0.0
H314 H 0.7027 0.82053 0.86961 0.0
H315 H 0.7295 0.79629 0.85778 0.0
H316 H 0.75816 0.68147 0.6782 0.0
H317 H 0.78387 0.65772 0.66225 0.0
H318 H 0.84527 0.7268 0.67067 0.0
H319 H 0.81944 0.75061 0.68619 0.0
Cd320 Cd 0.01505 0.99136 0.57271 0.0
Cd321 Cd 0.04039 0.04947 0.48767 0.0
C322 C 0.05408 0.96624 0.61554 0.0
N323 N 0.04594 0.96909 0.58546 0.0
C324 C 0.06878 0.94166 0.57264 0.0
C325 C 0.07676 0.93772 0.60352 0.0
C326 C 0.06946 0.95064 0.62506 0.0
C327 C 0.05315 0.95736 0.56404 0.0
H328 H 0.04803 0.97561 0.63215 0.0
H329 H 0.04618 0.95958 0.54016 0.0
C330 C 1.00017 0.99226 0.48932 0.0
C331 C 0.98344 0.05856 0.4584 0.0
C332 C 0.96604 0.07234 0.4486 0.0
C333 C 0.97398 0.09856 0.45727 0.0
C334 C 0.99925 0.10993 0.47683 0.0
C335 C 0.01598 0.09547 0.48605 0.0
N336 N 1.00803 0.07031 0.47649 0.0
H337 H 0.97757 0.03864 0.45056 0.0
H338 H 0.03568 0.10455 0.50007 0.0
C339 C 0.05319 0.00353 0.45589 0.0
N340 N 0.0615 0.02035 0.48172 0.0
C341 C 0.09502 0.00264 0.50412 0.0
C342 C 0.08639 0.98462 0.47811 0.0
C343 C 0.06524 0.98514 0.45376 0.0
C344 C 0.08209 0.02039 0.50552 0.0
H345 H 0.03702 0.0042 0.43711 0.0
H346 H 0.08839 0.03418 0.52561 0.0
C347 C 0.05825 0.0446 0.56784 0.0
C348 C 0.97842 0.95782 0.60065 0.0
N349 N 0.997 0.0231 0.57728 0.0
C350 C 1.005 0.03957 0.60336 0.0
C351 C 0.99325 0.05826 0.60528 0.0
C352 C 0.97306 0.05974 0.58018 0.0
C353 C 0.96562 0.04275 0.55342 0.0
C354 C 0.9779 0.02446 0.55249 0.0
C355 C 0.07586 0.08478 0.46036 0.0
O356 O 1.01034 0.99905 0.51786 0.0
O357 O 1.00618 0.00724 0.47022 0.0
O358 O 0.04249 0.03918 0.54116 0.0
O359 O 0.05403 0.03046 0.58838 0.0
O360 O 0.97572 0.95469 0.57194 0.0
O361 O 0.99761 0.97628 0.61612 0.0
O362 O 0.08056 0.08539 0.48938 0.0
O363 O 0.05513 0.06815 0.4444 0.0
H364 H 0.02024 0.03796 0.62271 0.0
H365 H 0.97199 0.01114 0.53205 0.0
H366 H 0.07378 0.93204 0.55516 0.0
H367 H 0.07546 0.94861 0.64915 0.0
H368 H 0.94694 0.06266 0.43328 0.0
H369 H 1.00626 0.12994 0.48459 0.0
H370 H 0.11136 0.00278 0.52324 0.0
H371 H 0.05839 0.97172 0.43315 0.0
H372 H 0.99929 0.07086 0.62647 0.0
H373 H 0.95027 0.04343 0.53354 0.0
Cd374 Cd 0.47824 1.00002 0.03664 0.0
Cd375 Cd 0.52381 0.05559 0.9749 0.0
C376 C 0.52757 0.98334 0.05287 0.0
N377 N 0.50662 0.98025 0.02831 0.0
C378 C 0.52274 0.95675 0.99773 0.0
C379 C 0.54481 0.9602 0.02269 0.0
C380 C 0.54711 0.97361 0.0505 0.0
C381 C 0.50363 0.96709 0.00108 0.0
H382 H 0.52903 0.99329 0.07444 0.0
H383 H 0.48647 0.96455 0.98212 0.0
C384 C 0.4734 0.0082 0.95785 0.0
C385 C 0.48087 0.07978 0.94294 0.0
C386 C 0.46503 0.09523 0.9381 0.0
C387 C 0.46427 0.11037 0.96306 0.0
C388 C 0.47886 0.10873 0.99269 0.0
C389 C 0.49453 0.0929 0.9965 0.0
N390 N 0.49543 0.07914 0.97166 0.0
H391 H 0.48206 0.06867 0.92367 0.0
H392 H 0.50634 0.092 0.01913 0.0
C393 C 0.53867 0.01901 0.93179 0.0
N394 N 0.54149 0.02543 0.96188 0.0
C395 C 0.57231 0.0032 0.97709 0.0
C396 C 0.57007 0.99649 0.94627 0.0
C397 C 0.55281 0.00437 0.92341 0.0
C398 C 0.55773 0.01774 0.98447 0.0
H399 H 0.52614 0.02605 0.91438 0.0
H400 H 0.56016 0.02383 0.00821 0.0
C401 C 0.52861 0.0477 0.05539 0.0
C402 C 0.44776 0.96212 0.06466 0.0
N403 N 0.45965 0.03131 0.03773 0.0
C404 C 0.46178 0.04138 0.06623 0.0
C405 C 0.45188 0.06104 0.06995 0.0
C406 C 0.43972 0.07039 0.04402 0.0
C407 C 0.43792 0.0597 0.0148 0.0
C408 C 0.44807 0.03996 0.01216 0.0
C409 C 0.56271 0.0936 0.95754 0.0
O410 O 0.48248 0.013 0.98671 0.0
O411 O 0.48522 0.02216 0.94173 0.0
O412 O 0.52067 0.04438 0.02631 0.0
O413 O 0.51597 0.03279 0.07004 0.0
O414 O 0.43897 0.96483 0.03664 0.0
O415 O 0.47023 0.97664 0.07905 0.0
O416 O 0.56758 0.0869 0.98423 0.0
O417 O 0.53992 0.0834 0.93978 0.0
H418 H 0.47107 0.03394 0.08603 0.0
H419 H 0.44656 0.03158 0.98973 0.0
H420 H 0.52035 0.94623 0.97607 0.0
H421 H 0.56355 0.976 0.07048 0.0
H422 H 0.45368 0.09554 0.91495 0.0
H423 H 0.47872 0.12002 0.01252 0.0
H424 H 0.58604 0.99819 0.99525 0.0
H425 H 0.55061 0.99961 0.89938 0.0
H426 H 0.45307 0.06828 0.09287 0.0
H427 H 0.42874 0.06645 0.99428 0.0
Cd428 Cd 1.00657 0.51983 0.13519 0.0
Cd429 Cd 1.00981 0.53901 0.02646 0.0
C430 C 0.06338 0.50597 0.16898 0.0
N431 N 0.03932 0.49601 0.14838 0.0
C432 C 0.04822 0.45609 0.14374 0.0
C433 C 0.0731 0.46563 0.16523 0.0
C434 C 0.08043 0.49127 0.17754 0.0
C435 C 0.03184 0.47142 0.13574 0.0
H436 H 0.06936 0.52532 0.17938 0.0
H437 H 0.0128 0.46338 0.11953 0.0
C438 C 0.96765 0.49307 0.05092 0.0
C439 C 0.96156 0.54959 0.97425 0.0
C440 C 0.94629 0.56397 0.95923 0.0
C441 C 0.94654 0.58656 0.97463 0.0
C442 C 0.96147 0.59321 0.00562 0.0
C443 C 0.97636 0.57828 0.01975 0.0
N444 N 0.97649 0.5571 0.00391 0.0
H445 H 0.9625 0.53315 0.96172 0.0
H446 H 0.98881 0.58426 0.04306 0.0
C447 C 0.01956 0.49772 0.98015 0.0
N448 N 0.02832 0.50888 0.0098 0.0
C449 C 0.06348 0.49103 0.01938 0.0
C450 C 0.05546 0.47986 0.98858 0.0
C451 C 0.03284 0.48322 0.96907 0.0
C452 C 0.04974 0.50556 0.02942 0.0
H453 H 1.00278 0.5009 0.96469 0.0
H454 H 0.05665 0.5148 0.0528 0.0
C455 C 0.04376 0.55608 0.10445 0.0
C456 C 0.98356 0.49286 0.17455 0.0
N457 N 0.98498 0.55234 0.14657 0.0
C458 C 0.9929 0.56557 0.17524 0.0
C459 C 0.97909 0.58099 0.18401 0.0
C460 C 0.9565 0.58376 0.16334 0.0
C461 C 0.94931 0.57035 0.13352 0.0
C462 C 0.96349 0.5548 0.12581 0.0
C463 C 0.04144 0.57558 0.00249 0.0
O464 O 0.98042 0.50176 0.07904 0.0
O465 O 0.97418 0.50364 0.02895 0.0
O466 O 0.02409 0.54376 0.08261 0.0
O467 O 0.04413 0.55245 0.13172 0.0
O468 O 0.9783 0.48485 0.14632 0.0
O469 O 1.00082 0.51388 0.18543 0.0
O470 O 0.04143 0.57944 0.03015 0.0
O471 O 0.02677 0.55478 0.98666 0.0
H472 H 1.00969 0.56365 0.19205 0.0
H473 H 0.9568 0.54425 0.10314 0.0
H474 H 0.04128 0.43681 0.13284 0.0
H475 H 0.09902 0.49994 0.19441 0.0
H476 H 0.93544 0.55806 0.9353 0.0
H477 H 0.96214 0.61015 0.01875 0.0
H478 H 0.08037 0.4888 0.03569 0.0
H479 H 0.02587 0.47553 0.94508 0.0
H480 H 0.98603 0.59005 0.20741 0.0
H481 H 0.93267 0.57157 0.11589 0.0
Cd482 Cd 0.50961 0.48555 0.06105 0.0
Cd483 Cd 0.54372 0.5483 0.98387 0.0
C484 C 0.56471 0.47605 0.09573 0.0
N485 N 0.54223 0.46511 0.07298 0.0
C486 C 0.55425 0.42747 0.06834 0.0
C487 C 0.5774 0.43808 0.09224 0.0
C488 C 0.58265 0.46293 0.10556 0.0
C489 C 0.53691 0.44135 0.05904 0.0
H490 H 0.56842 0.49469 0.1071 0.0
H491 H 0.51879 0.43287 0.04129 0.0
C492 C 0.49758 0.49476 0.98095 0.0
C493 C 0.50397 0.57115 0.93908 0.0
C494 C 0.4873 0.58534 0.92853 0.0
C495 C 0.4779 0.59675 0.94912 0.0
C496 C 0.48515 0.59289 0.98006 0.0
C497 C 0.50224 0.57877 0.98975 0.0
N498 N 0.51136 0.56837 0.96924 0.0
H499 H 0.51161 0.56287 0.92327 0.0
H500 H 0.50879 0.5767 0.01373 0.0
C501 C 0.55717 0.50499 0.95003 0.0
N502 N 0.56164 0.51659 0.97861 0.0
C503 C 0.58732 0.49091 0.00085 0.0
C504 C 0.58367 0.47916 0.97152 0.0
C505 C 0.5682 0.48617 0.94591 0.0
C506 C 0.5762 0.50992 0.00388 0.0
H507 H 0.54526 0.51056 0.93045 0.0
H508 H 0.5795 0.51957 0.02632 0.0
C509 C 0.55377 0.54143 0.06555 0.0
C510 C 0.47278 0.45016 0.08723 0.0
N511 N 0.49211 0.51759 0.06775 0.0
C512 C 0.49348 0.52724 0.0962 0.0
C513 C 0.48361 0.54713 0.0998 0.0
C514 C 0.47245 0.55723 0.07386 0.0
C515 C 0.47139 0.54677 0.04486 0.0
C516 C 0.48116 0.52678 0.04232 0.0
C517 C 0.57998 0.58332 0.95645 0.0
O518 O 0.51139 0.49717 0.00853 0.0
O519 O 0.50501 0.51045 0.96321 0.0
O520 O 0.54321 0.53688 0.0368 0.0
O521 O 0.54552 0.52582 0.08293 0.0
O522 O 0.46735 0.45134 0.05843 0.0
O523 O 0.49463 0.46497 0.10331 0.0
O524 O 0.58056 0.58799 0.98431 0.0
O525 O 0.56333 0.56284 0.94189 0.0
H526 H 0.50226 0.5195 0.11602 0.0
H527 H 0.48002 0.51869 0.01996 0.0
H528 H 0.54943 0.40849 0.05713 0.0
H529 H 0.59999 0.47184 0.12433 0.0
H530 H 0.48202 0.58758 0.90446 0.0
H531 H 0.47848 0.60146 0.99674 0.0
H532 H 0.59931 0.48606 0.02104 0.0
H533 H 0.56484 0.4773 0.92296 0.0
H534 H 0.48435 0.55417 0.1226 0.0
H535 H 0.46322 0.554 0.02423 0.0
Cd536 Cd 0.01968 0.48362 0.57432 0.0
Cd537 Cd 0.07286 0.53983 0.51513 0.0
C538 C 0.06398 0.46386 0.61413 0.0
N539 N 0.05243 0.46499 0.58425 0.0
C540 C 0.0775 0.44196 0.56792 0.0
C541 C 0.08911 0.43983 0.59855 0.0
C542 C 0.08237 0.45115 0.62184 0.0
C543 C 0.05884 0.45453 0.5612 0.0
H544 H 0.05842 0.47235 0.63193 0.0
H545 H 0.049 0.45543 0.53765 0.0
C546 C 0.01809 0.49265 0.49431 0.0
C547 C 0.03506 0.56326 0.53731 0.0
C548 C 0.0231 0.58096 0.54264 0.0
C549 C 0.036 0.60653 0.54385 0.0
C550 C 0.06161 0.61394 0.54259 0.0
C551 C 0.07307 0.59555 0.53794 0.0
N552 N 0.05929 0.5708 0.5343 0.0
H553 H 0.02447 0.54347 0.53363 0.0
H554 H 0.0923 0.60105 0.53536 0.0
C555 C 0.08923 0.49113 0.51415 0.0
N556 N 0.10019 0.51576 0.52585 0.0
C557 C 0.14234 0.51096 0.53962 0.0
C558 C 0.13165 0.48571 0.52611 0.0
C559 C 0.10466 0.47563 0.51409 0.0
C560 C 0.12612 0.52585 0.539 0.0
H561 H 0.06861 0.48388 0.50325 0.0
H562 H 0.13431 0.54568 0.54757 0.0
C563 C 0.06736 0.53265 0.58968 0.0
C564 C 0.98304 0.44542 0.59425 0.0
N565 N 0.99805 0.51232 0.57982 0.0
C566 C 1.00037 0.52163 0.60878 0.0
C567 C 0.98577 0.53697 0.6137 0.0
C568 C 0.96851 0.5426 0.58858 0.0
C569 C 0.96672 0.53299 0.55886 0.0
C570 C 0.98166 0.51758 0.55498 0.0
C571 C 0.10083 0.57216 0.47951 0.0
O572 O 0.02413 0.49406 0.52328 0.0
O573 O 0.03261 0.50824 0.48207 0.0
O574 O 0.06311 0.52372 0.56207 0.0
O575 O 0.05421 0.52027 0.60572 0.0
O576 O 0.97869 0.44842 0.56602 0.0
O577 O 1.00431 0.45943 0.61242 0.0
O578 O 0.1104 0.57268 0.50825 0.0
O579 O 0.07842 0.55648 0.46721 0.0
H580 H 0.01315 0.51663 0.62808 0.0
H581 H 0.97982 0.50938 0.53225 0.0
H582 H 0.08204 0.43313 0.54941 0.0
H583 H 0.091 0.44988 0.64571 0.0
H584 H 1.00312 0.57467 0.54281 0.0
H585 H 0.07192 0.63357 0.54316 0.0
H586 H 0.16307 0.51936 0.54929 0.0
H587 H 0.09561 0.45644 0.50292 0.0
H588 H 0.98775 0.54415 0.63695 0.0
H589 H 0.9534 0.53674 0.53896 0.0
Cd590 Cd 0.53447 1.00049 0.51765 0.0
Cd591 Cd 0.54337 0.01919 0.41121 0.0
C592 C 0.58326 0.98826 0.56646 0.0
N593 N 0.56419 0.97824 0.5397 0.0
C594 C 0.57478 0.93945 0.54123 0.0
C595 C 0.59433 0.94901 0.56929 0.0
C596 C 0.5986 0.97401 0.58159 0.0
C597 C 0.5599 0.95435 0.52689 0.0
H598 H 0.58607 0.0071 0.57662 0.0
H599 H 0.54442 0.94658 0.50583 0.0
C600 C 0.50396 0.98144 0.43872 0.0
C601 C 0.50083 0.04553 0.36498 0.0
C602 C 0.48366 0.06003 0.35588 0.0
C603 C 0.47433 0.07099 0.37728 0.0
C604 C 0.48295 0.06602 0.40781 0.0
C605 C 0.50015 0.05139 0.41596 0.0
N606 N 0.50905 0.04137 0.39474 0.0
H607 H 0.50792 0.03792 0.34804 0.0
H608 H 0.50683 0.04857 0.43966 0.0
C609 C 0.55541 0.96993 0.37434 0.0
N610 N 0.56549 0.98711 0.40028 0.0
C611 C 0.60425 0.97365 0.41188 0.0
C612 C 0.59462 0.95603 0.38494 0.0
C613 C 0.56949 0.95443 0.36634 0.0
C614 C 0.58961 0.98891 0.41894 0.0
H615 H 0.53653 0.96857 0.35915 0.0
H616 H 0.59803 0.00279 0.43917 0.0
C617 C 0.58127 0.04276 0.49673 0.0
C618 C 0.498 0.97225 0.54282 0.0
N619 N 0.51977 0.03426 0.53299 0.0
C620 C 0.52854 0.04505 0.5628 0.0
C621 C 0.51582 0.06011 0.57394 0.0
C622 C 0.4939 0.06447 0.55428 0.0
C623 C 0.48615 0.05417 0.52324 0.0
C624 C 0.49923 0.03893 0.51313 0.0
C625 C 0.57295 0.04896 0.37933 0.0
O626 O 0.52161 0.99535 0.46152 0.0
O627 O 0.50578 0.98463 0.412 0.0
O628 O 0.56883 0.03507 0.46828 0.0
O629 O 0.57269 0.03292 0.51785 0.0
O630 O 0.49613 0.96685 0.51472 0.0
O631 O 0.51804 0.98932 0.55912 0.0
O632 O 0.57095 0.05698 0.40478 0.0
O633 O 0.55916 0.02679 0.36685 0.0
H634 H 0.54457 0.04083 0.57843 0.0
H635 H 0.49215 0.02982 0.48971 0.0
H636 H 0.57083 0.92052 0.53043 0.0
H637 H 0.61304 0.98229 0.6033 0.0
H638 H 0.47774 0.0625 0.33197 0.0
H639 H 0.47709 0.07392 0.42575 0.0
H640 H 0.62344 0.97634 0.42714 0.0
H641 H 0.56057 0.94122 0.34552 0.0
H642 H 0.52276 0.06782 0.59795 0.0
H643 H 0.4693 0.05676 0.50719 0.0
H644 H 0.24888 0.24008 0.34987 0.0
H645 H 0.22513 0.21832 0.38415 0.0
H646 H 0.15807 0.1851 0.30628 0.0
H647 H 0.18136 0.20658 0.27261 0.0
H648 H 0.14186 0.19797 0.3511 0.0
H649 H 0.20122 0.15262 0.3418 0.0
H650 H 0.2442 0.14775 0.34629 0.0
H651 H 0.26758 0.17081 0.44333 0.0
H652 H 0.22482 0.17617 0.43934 0.0
H653 H 0.06725 0.09105 0.39945 0.0
H654 H 0.09525 0.1195 0.37496 0.0
H655 H 0.15285 0.14737 0.46254 0.0
H656 H 0.12469 0.11879 0.48726 0.0
H657 H 0.17622 0.14105 0.41858 0.0
H658 H 0.11492 0.18275 0.42795 0.0
H659 H 0.0716 0.18694 0.42282 0.0
H660 H 0.05159 0.17044 0.325 0.0
H661 H 0.09469 0.16579 0.32957 0.0
C662 C 0.22897 0.22843 0.34019 0.0
C663 C 0.21716 0.22523 0.30829 0.0
C664 C 0.21537 0.21572 0.35981 0.0
C665 C 0.18957 0.19957 0.34807 0.0
C666 C 0.17775 0.19724 0.31636 0.0
C667 C 0.19126 0.20964 0.29695 0.0
C668 C 0.17467 0.18456 0.36792 0.0
C669 C 0.14945 0.18544 0.36566 0.0
C670 C 0.18432 0.1684 0.38774 0.0
C671 C 0.20996 0.16511 0.39021 0.0
C672 C 0.21561 0.15685 0.36406 0.0
C673 C 0.23991 0.15397 0.36652 0.0
C674 C 0.25864 0.15905 0.39506 0.0
C675 C 0.25307 0.16695 0.42122 0.0
C676 C 0.22881 0.16991 0.41888 0.0
C677 C 0.08584 0.10321 0.41366 0.0
C678 C 0.09345 0.10249 0.44555 0.0
C679 C 0.10193 0.11968 0.39953 0.0
C680 C 0.12635 0.1361 0.41667 0.0
C681 C 0.13423 0.13512 0.44851 0.0
C682 C 0.11798 0.11875 0.46274 0.0
C683 C 0.14328 0.15415 0.40123 0.0
C684 C 0.16877 0.15379 0.40428 0.0
C685 C 0.13387 0.17077 0.38201 0.0
C686 C 0.10798 0.1737 0.37913 0.0
C687 C 0.10122 0.17984 0.40536 0.0
C688 C 0.07672 0.18232 0.40255 0.0
C689 C 0.05883 0.1789 0.37361 0.0
C690 C 0.06546 0.17306 0.34741 0.0
C691 C 0.08994 0.17052 0.35009 0.0
H692 H 0.03986 0.18082 0.37148 0.0
H693 H 0.27744 0.15681 0.39692 0.0
H694 H 0.79386 0.19744 0.32941 0.0
H695 H 0.82143 0.17394 0.35704 0.0
H696 H 0.88896 0.22966 0.34839 0.0
H697 H 0.86147 0.25294 0.32013 0.0
H698 H 0.89256 0.18493 0.33611 0.0
H699 H 0.87253 0.22484 0.41762 0.0
H700 H 0.84366 0.23626 0.44408 0.0
H701 H 0.80807 0.15828 0.44825 0.0
H702 H 0.83652 0.14636 0.42145 0.0
H703 H 0.98756 0.14555 0.43943 0.0
H704 H 0.95949 0.17015 0.41671 0.0
H705 H 0.89284 0.11152 0.42227 0.0
H706 H 0.92101 0.08705 0.44613 0.0
H707 H 0.88844 0.15736 0.43665 0.0
H708 H 0.90813 0.11765 0.35451 0.0
H709 H 0.93667 0.10631 0.32746 0.0
H710 H 0.97276 0.18439 0.32437 0.0
H711 H 0.94463 0.19622 0.35174 0.0
C712 C 0.81459 0.20478 0.33344 0.0
C713 C 0.82536 0.22716 0.32243 0.0
C714 C 0.83041 0.19134 0.34946 0.0
C715 C 0.85746 0.20007 0.35526 0.0
C716 C 0.86822 0.22243 0.34431 0.0
C717 C 0.85241 0.2358 0.32815 0.0
C718 C 0.8745 0.18564 0.37197 0.0
C719 C 0.89186 0.17927 0.3583 0.0
C720 C 0.87331 0.17756 0.40065 0.0
C721 C 0.8565 0.18469 0.41726 0.0
C722 C 0.85845 0.21011 0.42402 0.0
C723 C 0.84217 0.21668 0.4391 0.0
C724 C 0.82399 0.198 0.44776 0.0
C725 C 0.82214 0.17273 0.44149 0.0
C726 C 0.83836 0.16606 0.42639 0.0
C727 C 0.967 0.13795 0.43638 0.0
C728 C 0.95668 0.11411 0.44463 0.0
C729 C 0.95086 0.15201 0.423 0.0
C730 C 0.92388 0.1426 0.41719 0.0
C731 C 0.91354 0.1192 0.42627 0.0
C732 C 0.9297 0.10509 0.43969 0.0
C733 C 0.90653 0.15684 0.4008 0.0
C734 C 0.88911 0.16311 0.41448 0.0
C735 C 0.90765 0.16489 0.37212 0.0
C736 C 0.92444 0.15783 0.35543 0.0
C737 C 0.92227 0.13241 0.34824 0.0
C738 C 0.93835 0.12589 0.33282 0.0
C739 C 0.95656 0.14462 0.32427 0.0
C740 C 0.95867 0.16991 0.33104 0.0
C741 C 0.94264 0.17653 0.34647 0.0
H742 H 0.96901 0.13954 0.31236 0.0
H743 H 0.81136 0.20312 0.45937 0.0
H744 H 0.80734 0.80988 0.3542 0.0
H745 H 0.83908 0.82914 0.40359 0.0
H746 H 0.90057 0.83856 0.36125 0.0
H747 H 0.86883 0.81669 0.31273 0.0
H748 H 0.91869 0.83481 0.41922 0.0
H749 H 0.86702 0.88211 0.35925 0.0
H750 H 0.82632 0.89041 0.33282 0.0
H751 H 0.80641 0.89135 0.41708 0.0
H752 H 0.84693 0.88278 0.44392 0.0
H753 H 0.99292 0.96107 0.43824 0.0
H754 H 0.96331 0.91801 0.42322 0.0
H755 H 0.93756 0.92445 0.50324 0.0
H756 H 0.96688 0.96741 0.51807 0.0
H757 H 0.89943 0.91325 0.44475 0.0
H758 H 0.96649 0.88366 0.50324 0.0
H759 H 1.01134 0.8821 0.5214 0.0
H760 H 1.00695 0.85472 0.43015 0.0
H761 H 0.96224 0.85651 0.4113 0.0
C762 C 0.82774 0.8149 0.35607 0.0
C763 C 0.83605 0.81176 0.33038 0.0
C764 C 0.84578 0.826 0.38406 0.0
C765 C 0.87203 0.83553 0.38585 0.0
C766 C 0.88038 0.83115 0.36035 0.0
C767 C 0.86236 0.81913 0.33265 0.0
C768 C 0.88991 0.85423 0.41163 0.0
C769 C 0.91451 0.85187 0.4252 0.0
C770 C 0.88413 0.87632 0.41949 0.0
C771 C 0.85973 0.88139 0.40344 0.0
C772 C 0.85385 0.8839 0.37206 0.0
C773 C 0.83085 0.88868 0.35702 0.0
C774 C 0.81372 0.89128 0.37322 0.0
C775 C 0.81964 0.88922 0.40453 0.0
C776 C 0.84261 0.88439 0.41967 0.0
C777 C 0.98088 0.95319 0.45247 0.0
C778 C 0.98183 0.96726 0.47912 0.0
C779 C 0.96449 0.92861 0.44432 0.0
C780 C 0.94893 0.91816 0.46268 0.0
C781 C 0.94996 0.9322 0.48933 0.0
C782 C 0.96647 0.95663 0.49758 0.0
C783 C 0.92853 0.89433 0.451 0.0
C784 C 0.90333 0.89571 0.44011 0.0
C785 C 0.93423 0.87203 0.44448 0.0
C786 C 0.96093 0.87021 0.45585 0.0
C787 C 0.9751 0.87738 0.487 0.0
C788 C 1.00052 0.87646 0.49743 0.0
C789 C 1.01198 0.8683 0.47695 0.0
C790 C 0.99803 0.86098 0.44601 0.0
C791 C 0.97261 0.86189 0.43545 0.0
H792 H 0.03168 0.86766 0.48505 0.0
H793 H 0.79592 0.89498 0.36154 0.0
H794 H 0.17098 0.81419 0.38164 0.0
H795 H 0.14976 0.83324 0.41228 0.0
H796 H 0.21164 0.90314 0.42941 0.0
H797 H 0.23299 0.88417 0.3991 0.0
H798 H 0.19318 0.89555 0.47858 0.0
H799 H 0.15856 0.89177 0.36852 0.0
H800 H 0.13853 0.87016 0.31555 0.0
H801 H 0.07274 0.8265 0.34047 0.0
H802 H 0.09261 0.8476 0.39375 0.0
H803 H 0.13767 0.99341 0.48544 0.0
H804 H 0.15943 0.96285 0.47646 0.0
H805 H 0.08727 0.90294 0.45741 0.0
H806 H 0.06528 0.93378 0.46514 0.0
H807 H 0.10813 0.8993 0.41467 0.0
H808 H 0.14056 0.91168 0.52382 0.0
H809 H 0.16135 0.93638 0.57509 0.0
H810 H 0.23193 0.96595 0.55192 0.0
H811 H 0.21144 0.94215 0.50015 0.0
C812 C 0.18027 0.83347 0.39249 0.0
C813 C 0.20342 0.84783 0.38769 0.0
C814 C 0.16819 0.84429 0.41001 0.0
C815 C 0.17891 0.86973 0.42261 0.0
C816 C 0.20305 0.88348 0.41987 0.0
C817 C 0.21523 0.87262 0.40255 0.0
C818 C 0.16369 0.88295 0.43517 0.0
C819 C 0.17455 0.89642 0.46474 0.0
C820 C 0.13918 0.88362 0.41721 0.0
C821 C 0.12722 0.871 0.38518 0.0
C822 C 0.13992 0.87741 0.36275 0.0
C823 C 0.12859 0.86528 0.33267 0.0
C824 C 0.10441 0.84691 0.32467 0.0
C825 C 0.0915 0.84068 0.34672 0.0
C826 C 0.10279 0.8527 0.37686 0.0
C827 C 0.12662 0.97365 0.47981 0.0
C828 C 0.09988 0.96584 0.47583 0.0
C829 C 0.13906 0.95617 0.4749 0.0
C830 C 0.12509 0.93049 0.46671 0.0
C831 C 0.09846 0.92262 0.46378 0.0
C832 C 0.08592 0.94018 0.46812 0.0
C833 C 0.13769 0.91237 0.45813 0.0
C834 C 0.12638 0.89801 0.42909 0.0
C835 C 0.16186 0.91112 0.47657 0.0
C836 C 0.17438 0.92514 0.50796 0.0
C837 C 0.16047 0.92355 0.52955 0.0
C838 C 0.1722 0.93739 0.55873 0.0
C839 C 0.19794 0.95262 0.56679 0.0
C840 C 0.21201 0.9541 0.54566 0.0
C841 C 0.20033 0.94046 0.51638 0.0
H842 H 0.20697 0.96329 0.58941 0.0
H843 H 0.09566 0.83755 0.30136 0.0
H844 H 0.25076 0.82432 0.69935 0.0
H845 H 0.22229 0.8474 0.67346 0.0
H846 H 0.1633 0.80742 0.71257 0.0
H847 H 0.19131 0.78282 0.73662 0.0
H848 H 0.13956 0.81255 0.66083 0.0
H849 H 0.20202 0.88238 0.73844 0.0
H850 H 0.24463 0.91148 0.76803 0.0
H851 H 0.26512 0.92421 0.68489 0.0
H852 H 0.222 0.89615 0.65473 0.0
H853 H 0.07084 0.90379 0.6445 0.0
H854 H 0.09725 0.87647 0.66289 0.0
H855 H 0.14371 0.90347 0.60332 0.0
H856 H 0.11749 0.93124 0.58498 0.0
H857 H 0.17328 0.90475 0.66234 0.0
H858 H 0.10235 0.84483 0.58756 0.0
H859 H 0.05639 0.82162 0.56232 0.0
H860 H 0.05009 0.79104 0.64525 0.0
H861 H 0.09593 0.81442 0.6712 0.0
C862 C 0.23171 0.82042 0.70244 0.0
C863 C 0.2234 0.80178 0.72021 0.0
C864 C 0.21545 0.834 0.68792 0.0
C865 C 0.19068 0.83009 0.69167 0.0
C866 C 0.18224 0.81113 0.70919 0.0
C867 C 0.19829 0.79699 0.72302 0.0
C868 C 0.17341 0.84513 0.67669 0.0
C869 C 0.147 0.83276 0.66168 0.0
C870 C 0.18273 0.87153 0.67663 0.0
C871 C 0.20914 0.88685 0.69451 0.0
C872 C 0.21574 0.89123 0.72657 0.0
C873 C 0.23982 0.90777 0.74337 0.0
C874 C 0.25771 0.91948 0.7284 0.0
C875 C 0.25132 0.91503 0.69649 0.0
C876 C 0.22697 0.89904 0.6795 0.0
C877 C 0.0867 0.90401 0.63528 0.0
C878 C 0.09212 0.91998 0.61339 0.0
C879 C 0.10165 0.88813 0.64563 0.0
C880 C 0.12248 0.88777 0.63443 0.0
C881 C 0.12776 0.90341 0.61229 0.0
C882 C 0.11265 0.91918 0.60171 0.0
C883 C 0.13961 0.87222 0.64712 0.0
C884 C 0.16595 0.8845 0.66153 0.0
C885 C 0.13004 0.8459 0.64706 0.0
C886 C 0.10253 0.8316 0.63142 0.0
C887 C 0.09112 0.83333 0.60051 0.0
C888 C 0.06509 0.82013 0.58607 0.0
C889 C 0.0503 0.80498 0.60222 0.0
C890 C 0.06155 0.80287 0.63281 0.0
C891 C 0.08757 0.81607 0.64738 0.0
H892 H 0.03014 0.79479 0.591 0.0
H893 H 0.27646 0.93206 0.74153 0.0
H894 H 0.19371 0.24964 0.71029 0.0
H895 H 0.17201 0.22496 0.65961 0.0
H896 H 0.20903 0.16839 0.68824 0.0
H897 H 0.23206 0.19394 0.73802 0.0
H898 H 0.20277 0.17014 0.62957 0.0
H899 H 0.15102 0.16907 0.69967 0.0
H900 H 0.13004 0.18769 0.73161 0.0
H901 H 0.08698 0.21209 0.65247 0.0
H902 H 0.10788 0.19365 0.62013 0.0
H903 H 0.10548 0.05315 0.61044 0.0
H904 H 0.14177 0.09226 0.6222 0.0
H905 H 0.0985 0.12354 0.54961 0.0
H906 H 0.06239 0.08496 0.53806 0.0
H907 H 0.10786 0.14336 0.61292 0.0
H908 H 0.15111 0.12824 0.5426 0.0
H909 H 0.17043 0.10438 0.51409 0.0
H910 H 0.2273 0.10319 0.59774 0.0
H911 H 0.20806 0.1267 0.62683 0.0
C912 C 0.19726 0.23201 0.7055 0.0
C913 C 0.21393 0.22316 0.72785 0.0
C914 C 0.18519 0.21815 0.67657 0.0
C915 C 0.18872 0.19476 0.67042 0.0
C916 C 0.20619 0.18647 0.6925 0.0
C917 C 0.21889 0.20073 0.72102 0.0
C918 C 0.1713 0.17694 0.64352 0.0
C919 C 0.18198 0.1643 0.62565 0.0
C920 C 0.14416 0.16984 0.63815 0.0
C921 C 0.13156 0.18073 0.65767 0.0
C922 C 0.1373 0.17867 0.68917 0.0
C923 C 0.12537 0.1891 0.70732 0.0
C924 C 0.10735 0.20127 0.69413 0.0
C925 C 0.10109 0.20285 0.66271 0.0
C926 C 0.113 0.19247 0.64449 0.0
C927 C 0.10407 0.06822 0.59667 0.0
C928 C 0.08124 0.06636 0.57364 0.0
C929 C 0.12488 0.09021 0.60288 0.0
C930 C 0.12274 0.11041 0.58631 0.0
C931 C 0.10059 0.10786 0.56205 0.0
C932 C 0.07995 0.08596 0.55579 0.0
C933 C 0.13942 0.13566 0.60027 0.0
C934 C 0.12854 0.14979 0.61578 0.0
C935 C 0.16624 0.14332 0.60419 0.0
C936 C 0.17802 0.12917 0.58692 0.0
C937 C 0.1676 0.12271 0.55496 0.0
C938 C 0.17857 0.10928 0.53868 0.0
C939 C 0.20007 0.10225 0.5541 0.0
C940 C 0.21065 0.10867 0.58582 0.0
C941 C 0.19974 0.1221 0.60221 0.0
H942 H 0.20854 0.09185 0.54147 0.0
H943 H 0.09813 0.20933 0.70822 0.0
H944 H 0.82375 0.1671 0.65799 0.0
H945 H 0.84199 0.14763 0.624 0.0
H946 H 0.91844 0.19648 0.6726 0.0
H947 H 0.90029 0.21604 0.70684 0.0
H948 H 0.90689 0.18294 0.60403 0.0
H949 H 0.90508 0.14768 0.69929 0.0
H950 H 0.88335 0.13046 0.73725 0.0
H951 H 0.82833 0.07149 0.66818 0.0
H952 H 0.84949 0.08871 0.62965 0.0
H953 H 0.99255 0.10958 0.60368 0.0
H954 H 0.96803 0.13751 0.61327 0.0
H955 H 0.8965 0.07806 0.57221 0.0
H956 H 0.92081 0.05005 0.56282 0.0
H957 H 0.90191 0.09699 0.63077 0.0
H958 H 0.90782 0.1275 0.53728 0.0
H959 H 0.92899 0.14421 0.49866 0.0
H960 H 0.97536 0.21067 0.56185 0.0
H961 H 0.95472 0.19421 0.60104 0.0
C962 C 0.84433 0.17423 0.6608 0.0
C963 C 0.86071 0.19283 0.6852 0.0
C964 C 0.85468 0.16315 0.64136 0.0
C965 C 0.8815 0.17064 0.64595 0.0
C966 C 0.89766 0.19062 0.66867 0.0
C967 C 0.88734 0.20154 0.68836 0.0
C968 C 0.89298 0.15476 0.63106 0.0
C969 C 0.90598 0.16419 0.60985 0.0
C970 C 0.89122 0.13017 0.63836 0.0
C971 C 0.87864 0.11967 0.66153 0.0
C972 C 0.88819 0.1312 0.69214 0.0
C973 C 0.87601 0.12142 0.71376 0.0
C974 C 0.85442 0.09994 0.70511 0.0
C975 C 0.84501 0.08817 0.67483 0.0
C976 C 0.85709 0.09793 0.65309 0.0
C977 C 0.97159 0.10263 0.59636 0.0
C978 C 0.95856 0.07765 0.5827 0.0
C979 C 0.95763 0.11864 0.60154 0.0
C980 C 0.9305 0.10981 0.59328 0.0
C981 C 0.91744 0.0852 0.57855 0.0
C982 C 0.93135 0.06928 0.57315 0.0
C983 C 0.91602 0.12506 0.60365 0.0
C984 C 0.90256 0.11556 0.62436 0.0
C985 C 0.91736 0.14945 0.59571 0.0
C986 C 0.92986 0.15951 0.57223 0.0
C987 C 0.9227 0.14558 0.54306 0.0
C988 C 0.93457 0.15503 0.52103 0.0
C989 C 0.95355 0.17845 0.52782 0.0
C990 C 0.96066 0.19251 0.55663 0.0
C991 C 0.94885 0.18315 0.57876 0.0
H992 H 0.96272 0.18573 0.51074 0.0
H993 H 0.84502 0.09238 0.72189 0.0
H994 H 0.82727 0.85887 0.76058 0.0
H995 H 0.85286 0.88028 0.72864 0.0
H996 H 0.85978 0.8097 0.69613 0.0
H997 H 0.83342 0.78791 0.72801 0.0
H998 H 0.90881 0.85126 0.71523 0.0
H999 H 0.82248 0.8338 0.64824 0.0
H1000 H 0.7769 0.83336 0.63479 0.0
H1001 H 0.8012 0.91397 0.65279 0.0
H1002 H 0.84696 0.91488 0.66683 0.0
H1003 H 0.93272 0.91937 0.57343 0.0
H1004 H 0.9038 0.89188 0.59822 0.0
H1005 H 0.95404 0.92993 0.68676 0.0
H1006 H 0.98283 0.9574 0.66218 0.0
H1007 H 0.87503 0.90027 0.63532 0.0
H1008 H 0.95385 0.8902 0.73902 0.0
H1009 H 0.99948 0.89064 0.75257 0.0
H1010 H 0.98932 0.86329 0.65925 0.0
H1011 H 0.94362 0.86259 0.64521 0.0
C1012 C 0.8339 0.84771 0.74636 0.0
C1013 C 0.82784 0.82149 0.74671 0.0
C1014 C 0.84867 0.8601 0.72803 0.0
C1015 C 0.8585 0.84686 0.70969 0.0
C1016 C 0.85255 0.82055 0.70992 0.0
C1017 C 0.83717 0.80798 0.72793 0.0
C1018 C 0.87506 0.86083 0.69085 0.0
C1019 C 0.90128 0.86185 0.69769 0.0
C1020 C 0.86566 0.87484 0.66774 0.0
C1021 C 0.83817 0.87439 0.65881 0.0
C1022 C 0.81812 0.85143 0.64953 0.0
C1023 C 0.79224 0.85109 0.64178 0.0
C1024 C 0.78616 0.87361 0.643 0.0
C1025 C 0.80594 0.89653 0.65187 0.0
C1026 C 0.83186 0.89697 0.6597 0.0
C1027 C 0.93767 0.92193 0.59819 0.0
C1028 C 0.96037 0.94079 0.61561 0.0
C1029 C 0.92097 0.90615 0.61244 0.0
C1030 C 0.92655 0.90837 0.64464 0.0
C1031 C 0.94916 0.9273 0.662 0.0
C1032 C 0.9657 0.9432 0.64779 0.0
C1033 C 0.90893 0.89109 0.66007 0.0
C1034 C 0.88253 0.88957 0.65272 0.0
C1035 C 0.91816 0.87665 0.68275 0.0
C1036 C 0.9454 0.87646 0.69108 0.0
C1037 C 0.96134 0.88415 0.72145 0.0
C1038 C 0.98722 0.88451 0.72919 0.0
C1039 C 0.9973 0.87704 0.70677 0.0
C1040 C 0.98151 0.86914 0.67657 0.0
C1041 C 0.95564 0.8688 0.66871 0.0
H1042 H 0.01735 0.87735 0.7128 0.0
H1043 H 0.76612 0.87331 0.63702 0.0
H1044 H 0.27464 0.17214 0.08565 0.0
H1045 H 0.30208 0.15141 0.06804 0.0
H1046 H 0.36271 0.18069 0.15321 0.0
H1047 H 0.33504 0.20052 0.17172 0.0
H1048 H 0.37862 0.18893 0.0991 0.0
H1049 H 0.3367 0.12232 0.14668 0.0
H1050 H 0.30074 0.09203 0.15934 0.0
H1051 H 0.26692 0.0608 0.06454 0.0
H1052 H 0.30262 0.09104 0.05139 0.0
H1053 H 0.45786 0.11168 0.08737 0.0
H1054 H 0.43268 0.13726 0.10057 0.0
H1055 H 0.36836 0.09906 0.02141 0.0
H1056 H 0.39273 0.07216 0.00934 0.0
H1057 H 0.35458 0.09649 0.07236 0.0
H1058 H 0.40438 0.16145 0.02872 0.0
H1059 H 0.44603 0.18706 0.02328 0.0
H1060 H 0.46887 0.22129 0.11668 0.0
H1061 H 0.42796 0.19477 0.12313 0.0
C1062 C 0.29366 0.17391 0.10081 0.0
C1063 C 0.30275 0.18815 0.12995 0.0
C1064 C 0.3093 0.16215 0.09068 0.0
C1065 C 0.33429 0.16468 0.1094 0.0
C1066 C 0.34347 0.17878 0.13847 0.0
C1067 C 0.32772 0.19024 0.14883 0.0
C1068 C 0.35103 0.15305 0.09812 0.0
C1069 C 0.37358 0.16872 0.09342 0.0
C1070 C 0.34411 0.12676 0.09057 0.0
C1071 C 0.32203 0.10924 0.09802 0.0
C1072 C 0.32134 0.10927 0.12852 0.0
C1073 C 0.3011 0.09204 0.13579 0.0
C1074 C 0.28147 0.07463 0.11273 0.0
C1075 C 0.28208 0.07438 0.08236 0.0
C1076 C 0.30232 0.09154 0.07499 0.0
C1077 C 0.43843 0.10891 0.07263 0.0
C1078 C 0.42705 0.08961 0.04772 0.0
C1079 C 0.4242 0.12375 0.07996 0.0
C1080 C 0.39867 0.11997 0.06196 0.0
C1081 C 0.38803 0.10213 0.03562 0.0
C1082 C 0.40207 0.08694 0.02861 0.0
C1083 C 0.38206 0.13232 0.07263 0.0
C1084 C 0.35951 0.11675 0.07746 0.0
C1085 C 0.38933 0.15866 0.08078 0.0
C1086 C 0.4132 0.17586 0.07644 0.0
C1087 C 0.4184 0.17426 0.04814 0.0
C1088 C 0.44193 0.18884 0.04495 0.0
C1089 C 0.46012 0.20578 0.06964 0.0
C1090 C 0.45479 0.20813 0.09758 0.0
C1091 C 0.43147 0.1932 0.10106 0.0
H1092 H 0.4783 0.21714 0.0671 0.0
H1093 H 0.26585 0.06127 0.1184 0.0
H1094 H 0.77824 0.34092 0.11014 0.0
H1095 H 0.79745 0.38175 0.09645 0.0
H1096 H 0.86097 0.35775 0.0854 0.0
H1097 H 0.84314 0.31782 0.10114 0.0
H1098 H 0.85076 0.3726 0.15218 0.0
H1099 H 0.86102 0.39391 0.05363 0.0
H1100 H 0.84543 0.40309 0.00099 0.0
H1101 H 0.82757 0.46671 0.03513 0.0
H1102 H 0.84204 0.45729 0.08799 0.0
H1103 H 0.977 0.44653 0.19066 0.0
H1104 H 0.93322 0.41858 0.17896 0.0
H1105 H 0.90446 0.48251 0.17922 0.0
H1106 H 0.94874 0.51059 0.1908 0.0
H1107 H 0.8891 0.45522 0.12222 0.0
H1108 H 0.88809 0.43633 0.22316 0.0
H1109 H 0.91086 0.42821 0.27402 0.0
H1110 H 0.91545 0.3594 0.23359 0.0
H1111 H 0.89309 0.36721 0.18244 0.0
C1112 C 0.7955 0.34371 0.10286 0.0
C1113 C 0.81092 0.32764 0.11036 0.0
C1114 C 0.80634 0.36712 0.09458 0.0
C1115 C 0.83189 0.3734 0.09321 0.0
C1116 C 0.84185 0.35364 0.08838 0.0
C1117 C 0.83159 0.33057 0.09774 0.0
C1118 C 0.85049 0.3951 0.11504 0.0
C1119 C 0.85889 0.39079 0.14569 0.0
C1120 C 0.86061 0.41887 0.10663 0.0
C1121 C 0.85206 0.42452 0.0748 0.0
C1122 C 0.85328 0.40954 0.04995 0.0
C1123 C 0.84472 0.41484 0.02005 0.0
C1124 C 0.83542 0.43539 0.01471 0.0
C1125 C 0.83467 0.45071 0.03928 0.0
C1126 C 0.84296 0.44535 0.06922 0.0
C1127 C 0.96159 0.45457 0.19074 0.0
C1128 C 0.96585 0.48042 0.19088 0.0
C1129 C 0.93642 0.4386 0.18361 0.0
C1130 C 0.91556 0.44856 0.17752 0.0
C1131 C 0.92035 0.47456 0.1835 0.0
C1132 C 0.94568 0.49055 0.1908 0.0
C1133 C 0.88989 0.43221 0.15893 0.0
C1134 C 0.88002 0.43741 0.12897 0.0
C1135 C 0.8786 0.40892 0.16771 0.0
C1136 C 0.88899 0.40248 0.19885 0.0
C1137 C 0.8938 0.41938 0.22511 0.0
C1138 C 0.90681 0.41492 0.25397 0.0
C1139 C 0.91499 0.39354 0.25691 0.0
C1140 C 0.90935 0.3761 0.23118 0.0
C1141 C 0.89638 0.38048 0.20226 0.0
H1142 H 0.9255 0.39038 0.27919 0.0
H1143 H 0.82893 0.43953 0.99154 0.0
H1144 H 0.66554 0.81 0.11736 0.0
H1145 H 0.63663 0.83303 0.09126 0.0
H1146 H 0.69841 0.90295 0.12401 0.0
H1147 H 0.72733 0.88007 0.15027 0.0
H1148 H 0.64879 0.90421 0.12754 0.0
H1149 H 0.68935 0.87791 0.05608 0.0
H1150 H 0.70124 0.84586 0.02917 0.0
H1151 H 0.62083 0.80508 0.98818 0.0
H1152 H 0.60847 0.83671 0.01528 0.0
H1153 H 0.59694 0.98169 0.04169 0.0
H1154 H 0.62906 0.95941 0.05354 0.0
H1155 H 0.5692 0.88902 0.01544 0.0
H1156 H 0.53703 0.91144 0.00198 0.0
H1157 H 0.61812 0.88772 0.01373 0.0
H1158 H 0.57666 0.91042 0.08569 0.0
H1159 H 0.5625 0.94017 0.1133 0.0
H1160 H 0.64164 0.98496 0.15439 0.0
H1161 H 0.65625 0.95561 0.12664 0.0
C1162 C 0.67278 0.8303 0.11921 0.0
C1163 C 0.69864 0.84335 0.13527 0.0
C1164 C 0.65636 0.84335 0.10433 0.0
C1165 C 0.66567 0.86951 0.10553 0.0
C1166 C 0.69109 0.8827 0.12281 0.0
C1167 C 0.70756 0.86966 0.13748 0.0
C1168 C 0.6494 0.88305 0.08729 0.0
C1169 C 0.64233 0.90088 0.10268 0.0
C1170 C 0.64062 0.87809 0.05495 0.0
C1171 C 0.648 0.85955 0.03786 0.0
C1172 C 0.67421 0.86204 0.04143 0.0
C1173 C 0.68104 0.84396 0.02615 0.0
C1174 C 0.6618 0.82342 0.00702 0.0
C1175 C 0.6357 0.82099 0.00302 0.0
C1176 C 0.62878 0.839 0.01831 0.0
C1177 C 0.59085 0.96162 0.03444 0.0
C1178 C 0.56456 0.94814 0.02137 0.0
C1179 C 0.60918 0.94895 0.04121 0.0
C1180 C 0.60119 0.92263 0.03619 0.0
C1181 C 0.57555 0.90938 0.01963 0.0
C1182 C 0.55722 0.92216 0.01211 0.0
C1183 C 0.61779 0.90912 0.05396 0.0
C1184 C 0.62475 0.89119 0.03857 0.0
C1185 C 0.62617 0.91368 0.08642 0.0
C1186 C 0.61752 0.93095 0.10389 0.0
C1187 C 0.59103 0.92666 0.10053 0.0
C1188 C 0.58293 0.94344 0.11621 0.0
C1189 C 0.60116 0.96448 0.13553 0.0
C1190 C 0.62754 0.96868 0.13937 0.0
C1191 C 0.63575 0.95196 0.1237 0.0
H1192 H 0.59484 0.97749 0.14757 0.0
H1193 H 0.66713 0.80941 0.99525 0.0
H1194 H 0.2007 0.76135 0.1726 0.0
H1195 H 0.17099 0.72564 0.13517 0.0
H1196 H 0.22827 0.68642 0.15462 0.0
H1197 H 0.25876 0.72326 0.18995 0.0
H1198 H 0.19139 0.66578 0.09948 0.0
H1199 H 0.19594 0.68005 0.20159 0.0
H1200 H 0.20115 0.7037 0.25086 0.0
H1201 H 0.1299 0.72002 0.21234 0.0
H1202 H 0.12436 0.6965 0.16256 0.0
H1203 H 0.09123 0.5516 0.10916 0.0
H1204 H 0.13034 0.58597 0.11117 0.0
H1205 H 0.08421 0.63637 0.09057 0.0
H1206 H 0.04549 0.60235 0.08969 0.0
H1207 H 0.1205 0.64718 0.14795 0.0
H1208 H 0.11645 0.62075 0.04335 0.0
H1209 H 0.11745 0.59181 0.00156 0.0
H1210 H 0.19373 0.59243 0.05207 0.0
H1211 H 0.19288 0.6205 0.09472 0.0
C1212 C 0.2074 0.74568 0.16765 0.0
C1213 C 0.2312 0.74401 0.18542 0.0
C1214 C 0.19046 0.72528 0.14631 0.0
C1215 C 0.19711 0.70303 0.14339 0.0
C1216 C 0.22256 0.70317 0.15719 0.0
C1217 C 0.23966 0.72384 0.17801 0.0
C1218 C 0.17625 0.67887 0.13342 0.0
C1219 C 0.17554 0.6618 0.1095 0.0
C1220 C 0.15695 0.67271 0.14851 0.0
C1221 C 0.1599 0.68681 0.17828 0.0
C1222 C 0.18149 0.68887 0.20354 0.0
C1223 C 0.18449 0.70222 0.23158 0.0
C1224 C 0.16596 0.71351 0.23473 0.0
C1225 C 0.14429 0.71132 0.20984 0.0
C1226 C 0.14117 0.69794 0.1817 0.0
C1227 C 0.08952 0.56989 0.10413 0.0
C1228 C 0.06564 0.57458 0.09899 0.0
C1229 C 0.11171 0.58936 0.10497 0.0
C1230 C 0.11005 0.61359 0.10077 0.0
C1231 C 0.08577 0.6177 0.09357 0.0
C1232 C 0.06376 0.59841 0.0932 0.0
C1233 C 0.13348 0.63555 0.11091 0.0
C1234 C 0.13546 0.65165 0.13649 0.0
C1235 C 0.15426 0.63997 0.09792 0.0
C1236 C 0.1544 0.62254 0.07245 0.0
C1237 C 0.13325 0.61441 0.04577 0.0
C1238 C 0.13384 0.59826 0.02186 0.0
C1239 C 0.15561 0.59037 0.02408 0.0
C1240 C 0.17684 0.59853 0.05034 0.0
C1241 C 0.17628 0.61451 0.07444 0.0
H1242 H 0.15601 0.57794 0.00546 0.0
H1243 H 0.16834 0.72386 0.25649 0.0
H1244 H 0.26797 0.81885 0.84095 0.0
H1245 H 0.29871 0.8578 0.87173 0.0
H1246 H 0.36116 0.82573 0.87885 0.0
H1247 H 0.32998 0.78608 0.85059 0.0
H1248 H 0.37292 0.85653 0.92749 0.0
H1249 H 0.34067 0.86326 0.81803 0.0
H1250 H 0.30453 0.85959 0.77106 0.0
H1251 H 0.28053 0.91365 0.81574 0.0
H1252 H 0.31575 0.91707 0.86307 0.0
H1253 H 0.45756 0.98293 0.89989 0.0
H1254 H 0.42236 0.94336 0.87997 0.0
H1255 H 0.40311 0.94494 0.96511 0.0
H1256 H 0.43811 0.98413 0.98502 0.0
H1257 H 0.36973 0.93034 0.87199 0.0
H1258 H 0.38975 0.88981 0.98453 0.0
H1259 H 0.42649 0.89432 0.03068 0.0
H1260 H 0.47906 0.90884 0.97621 0.0
H1261 H 0.44272 0.90491 0.92992 0.0
C1262 C 0.28816 0.81996 0.85016 0.0
C1263 C 0.29683 0.79977 0.84358 0.0
C1264 C 0.30574 0.84225 0.86734 0.0
C1265 C 0.33238 0.84504 0.87661 0.0
C1266 C 0.34075 0.82414 0.87176 0.0
C1267 C 0.32299 0.80152 0.85557 0.0
C1268 C 0.3517 0.87012 0.88859 0.0
C1269 C 0.37209 0.87263 0.91537 0.0
C1270 C 0.3509 0.89126 0.87279 0.0
C1271 C 0.33046 0.89002 0.84406 0.0
C1272 C 0.3275 0.87416 0.81774 0.0
C1273 C 0.30731 0.87215 0.79117 0.0
C1274 C 0.29035 0.88623 0.79051 0.0
C1275 C 0.29363 0.90263 0.81632 0.0
C1276 C 0.31366 0.90459 0.84304 0.0
C1277 C 0.44556 0.97494 0.9141 0.0
C1278 C 0.45065 0.9863 0.94408 0.0
C1279 C 0.42559 0.9524 0.9028 0.0
C1280 C 0.41059 0.94112 0.92139 0.0
C1281 C 0.41488 0.95313 0.95073 0.0
C1282 C 0.43482 0.97549 0.96202 0.0
C1283 C 0.39078 0.91648 0.91045 0.0
C1284 C 0.37036 0.91417 0.88405 0.0
C1285 C 0.39176 0.89554 0.92635 0.0
C1286 C 0.41356 0.89705 0.95385 0.0
C1287 C 0.40915 0.89384 0.98243 0.0
C1288 C 0.42992 0.89647 0.00863 0.0
C1289 C 0.45512 0.90198 0.0064 0.0
C1290 C 0.45959 0.90479 0.97796 0.0
C1291 C 0.43893 0.90246 0.95177 0.0
H1292 H 0.47118 0.90402 0.02669 0.0
H1293 H 0.27469 0.88425 0.76995 0.0
H1294 H 0.22181 0.38125 0.91991 0.0
H1295 H 0.19699 0.40427 0.93923 0.0
H1296 H 0.12737 0.36043 0.87002 0.0
H1297 H 0.1523 0.33798 0.8497 0.0
H1298 H 0.12768 0.40763 0.87498 0.0
H1299 H 0.1418 0.35031 0.94777 0.0
H1300 H 0.16736 0.32978 0.98499 0.0
H1301 H 0.20892 0.40096 0.04096 0.0
H1302 H 0.18384 0.42198 0.00386 0.0
H1303 H 0.03792 0.43916 0.94283 0.0
H1304 H 0.06314 0.41697 0.92289 0.0
H1305 H 0.13333 0.46485 0.98761 0.0
H1306 H 0.10847 0.48776 0.00707 0.0
H1307 H 0.1328 0.41586 0.98516 0.0
H1308 H 0.11882 0.47312 0.91284 0.0
H1309 H 0.09345 0.49395 0.87587 0.0
H1310 H 0.05177 0.42307 0.81925 0.0
H1311 H 0.07666 0.40175 0.85613 0.0
C1312 C 0.20128 0.37659 0.90846 0.0
C1313 C 0.18925 0.35755 0.88307 0.0
C1314 C 0.18695 0.38965 0.91987 0.0
C1315 C 0.16005 0.38399 0.90653 0.0
C1316 C 0.14802 0.36522 0.88098 0.0
C1317 C 0.16235 0.35216 0.8695 0.0
C1318 C 0.14455 0.39771 0.91901 0.0
C1319 C 0.12856 0.40904 0.89901 0.0
C1320 C 0.14598 0.40033 0.95055 0.0
C1321 C 0.16111 0.38775 0.97288 0.0
C1322 C 0.15653 0.36161 0.9679 0.0
C1323 C 0.17091 0.34988 0.98899 0.0
C1324 C 0.1898 0.36407 0.01528 0.0
C1325 C 0.19431 0.39001 0.02057 0.0
C1326 C 0.18 0.40183 -0.00048 0.0
C1327 C 0.05874 0.44533 0.9527 0.0
C1328 C 0.0709 0.46553 0.97674 0.0
C1329 C 0.07321 0.43244 0.94126 0.0
C1330 C 0.10031 0.43922 0.95349 0.0
C1331 C 0.11249 0.45907 0.97774 0.0
C1332 C 0.09809 0.47213 0.98903 0.0
C1333 C 0.11588 0.42562 0.9411 0.0
C1334 C 0.1319 0.41436 0.96112 0.0
C1335 C 0.11448 0.42307 0.90961 0.0
C1336 C 0.09941 0.43579 0.88743 0.0
C1337 C 0.10408 0.46194 0.89265 0.0
C1338 C 0.08982 0.47384 0.87169 0.0
C1339 C 0.07095 0.45983 0.84528 0.0
C1340 C 0.06636 0.43389 0.83975 0.0
C1341 C 0.08055 0.42189 0.86067 0.0
H1342 H 0.05994 0.46908 0.82906 0.0
H1343 H 0.2009 0.35495 0.03159 0.0
H1344 H 0.69839 0.24485 0.81547 0.0
H1345 H 0.66956 0.22181 0.84295 0.0
H1346 H 0.72084 0.17734 0.87298 0.0
H1347 H 0.74895 0.19944 0.84387 0.0
H1348 H 0.67639 0.14774 0.86127 0.0
H1349 H 0.71439 0.22796 0.92085 0.0
H1350 H 0.72838 0.27416 0.93267 0.0
H1351 H 0.6492 0.27392 0.9029 0.0
H1352 H 0.63473 0.22772 0.89034 0.0
H1353 H 0.61559 0.10428 0.97831 0.0
H1354 H 0.64795 0.13022 0.95647 0.0
H1355 H 0.58761 0.14924 0.89069 0.0
H1356 H 0.55514 0.12273 0.91167 0.0
H1357 H 0.63851 0.19184 0.92459 0.0
H1358 H 0.60345 0.10871 0.86333 0.0
H1359 H 0.59295 0.06253 0.85864 0.0
H1360 H 0.67295 0.06954 0.901 0.0
H1361 H 0.68384 0.11582 0.90642 0.0
C1362 C 0.70359 0.2302 0.82798 0.0
C1363 C 0.7261 0.2241 0.82746 0.0
C1364 C 0.68712 0.21708 0.844 0.0
C1365 C 0.69305 0.19799 0.86087 0.0
C1366 C 0.71559 0.1919 0.86032 0.0
C1367 C 0.73178 0.20464 0.84369 0.0
C1368 C 0.6755 0.18407 0.87834 0.0
C1369 C 0.66854 0.15761 0.87542 0.0
C1370 C 0.6649 0.19653 0.89704 0.0
C1371 C 0.67348 0.22436 0.90438 0.0
C1372 C 0.69996 0.23776 0.91657 0.0
C1373 C 0.70798 0.26395 0.92343 0.0
C1374 C 0.6897 0.27696 0.9185 0.0
C1375 C 0.66334 0.26381 0.90668 0.0
C1376 C 0.65522 0.23762 0.89968 0.0
C1377 C 0.60926 0.11423 0.95943 0.0
C1378 C 0.58276 0.1114 0.94672 0.0
C1379 C 0.62777 0.12901 0.94693 0.0
C1380 C 0.62023 0.14171 0.92191 0.0
C1381 C 0.59392 0.13971 0.91002 0.0
C1382 C 0.57537 0.12448 0.922 0.0
C1383 C 0.63946 0.15592 0.90699 0.0
C1384 C 0.64665 0.18228 0.91047 0.0
C1385 C 0.65086 0.14349 0.88958 0.0
C1386 C 0.6444 0.11571 0.88558 0.0
C1387 C 0.61877 0.10041 0.87186 0.0
C1388 C 0.61275 0.07422 0.86904 0.0
C1389 C 0.63226 0.0631 0.8796 0.0
C1390 C 0.65785 0.07817 0.89288 0.0
C1391 C 0.66395 0.10438 0.89581 0.0
H1392 H 0.62756 0.04283 0.87744 0.0
H1393 H 0.69595 0.29723 0.92392 0.0
H1394 H 0.80794 0.699 0.79184 0.0
H1395 H 0.83166 0.67319 0.82154 0.0
H1396 H 0.87273 0.73605 0.89257 0.0
H1397 H 0.84839 0.76187 0.86342 0.0
H1398 H 0.90318 0.70311 0.86711 0.0
H1399 H 0.8364 0.70198 0.91529 0.0
H1400 H 0.7914 0.69687 0.91502 0.0
H1401 H 0.76802 0.62078 0.87141 0.0
H1402 H 0.81286 0.6256 0.87096 0.0
H1403 H 0.96219 0.6384 0.9814 0.0
H1404 H 0.93994 0.66622 0.95445 0.0
H1405 H 0.87721 0.60189 0.90258 0.0
H1406 H 0.89901 0.57384 0.93025 0.0
H1407 H 0.8579 0.6368 0.91888 0.0
H1408 H 0.92394 0.63676 0.87149 0.0
H1409 H 0.96818 0.64141 0.86899 0.0
H1410 H 0.9926 0.71882 0.90833 0.0
H1411 H 0.94856 0.71453 0.91147 0.0
C1412 C 0.82215 0.70748 0.81367 0.0
C1413 C 0.82623 0.73263 0.82513 0.0
C1414 C 0.83565 0.69262 0.83069 0.0
C1415 C 0.854 0.70262 0.85933 0.0
C1416 C 0.8587 0.7279 0.87053 0.0
C1417 C 0.84472 0.74263 0.85383 0.0
C1418 C 0.86769 0.68637 0.8777 0.0
C1419 C 0.89345 0.68888 0.87888 0.0
C1420 C 0.85482 0.6673 0.89234 0.0
C1421 C 0.8279 0.66426 0.89271 0.0
C1422 C 0.82161 0.68425 0.90532 0.0
C1423 C 0.79615 0.68139 0.90538 0.0
C1424 C 0.77684 0.65855 0.8931 0.0
C1425 C 0.78298 0.63849 0.88085 0.0
C1426 C 0.80842 0.64127 0.8807 0.0
C1427 C 0.9435 0.63003 0.96457 0.0
C1428 C 0.93251 0.60366 0.95822 0.0
C1429 C 0.93087 0.64608 0.94881 0.0
C1430 C 0.90691 0.63633 0.92601 0.0
C1431 C 0.89568 0.61004 0.91992 0.0
C1432 C 0.90832 0.59394 0.93566 0.0
C1433 C 0.89367 0.65351 0.90858 0.0
C1434 C 0.86784 0.65109 0.90737 0.0
C1435 C 0.90649 0.67261 0.89377 0.0
C1436 C 0.93302 0.67524 0.89203 0.0
C1437 C 0.9388 0.65471 0.87987 0.0
C1438 C 0.96382 0.65729 0.87829 0.0
C1439 C 0.98321 0.68037 0.88859 0.0
C1440 C 0.97758 0.70094 0.90042 0.0
C1441 C 0.95258 0.69845 0.90209 0.0
H1442 H 1.00257 0.68234 0.88733 0.0
H1443 H 0.75713 0.65636 0.89316 0.0
H1444 H 0.18711 0.28738 0.22872 0.0
H1445 H 0.15963 0.31446 0.21505 0.0
H1446 H 0.22639 0.37989 0.25144 0.0
H1447 H 0.25329 0.35243 0.26797 0.0
H1448 H 0.19304 0.39478 0.2606 0.0
H1449 H 0.18686 0.35145 0.16452 0.0
H1450 H 0.17844 0.31521 0.12608 0.0
H1451 H 0.09984 0.28801 0.1287 0.0
H1452 H 0.10787 0.32396 0.16736 0.0
H1453 H 0.12729 0.47877 0.18428 0.0
H1454 H 0.15518 0.4522 0.19961 0.0
H1455 H 0.08792 0.38749 0.18362 0.0
H1456 H 0.05991 0.41389 0.16835 0.0
H1457 H 0.12179 0.37334 0.16325 0.0
H1458 H 0.13075 0.42057 0.25964 0.0
H1459 H 0.14125 0.45962 0.29449 0.0
H1460 H 0.21833 0.48279 0.28617 0.0
H1461 H 0.20819 0.44401 0.25103 0.0
C1462 C 0.19598 0.30756 0.23396 0.0
C1463 C 0.22268 0.31745 0.24952 0.0
C1464 C 0.18014 0.32335 0.22556 0.0
C1465 C 0.19043 0.34994 0.23075 0.0
C1466 C 0.21723 0.35975 0.24665 0.0
C1467 C 0.23289 0.34389 0.25616 0.0
C1468 C 0.17352 0.36732 0.22029 0.0
C1469 C 0.17782 0.38998 0.23897 0.0
C1470 C 0.15292 0.36187 0.19224 0.0
C1471 C 0.14805 0.34025 0.16905 0.0
C1472 C 0.16783 0.33766 0.157 0.0
C1473 C 0.16312 0.31718 0.13517 0.0
C1474 C 0.13864 0.29928 0.12502 0.0
C1475 C 0.1188 0.30186 0.13661 0.0
C1476 C 0.12341 0.32229 0.15846 0.0
C1477 C 0.11819 0.45896 0.18427 0.0
C1478 C 0.09082 0.44899 0.17487 0.0
C1479 C 0.13441 0.44355 0.19319 0.0
C1480 C 0.12414 0.41741 0.19351 0.0
C1481 C 0.09687 0.40738 0.18381 0.0
C1482 C 0.08064 0.42275 0.17483 0.0
C1483 C 0.14146 0.40051 0.20351 0.0
C1484 C 0.13715 0.37799 0.18478 0.0
C1485 C 0.16246 0.40643 0.23103 0.0
C1486 C 0.16864 0.42949 0.25255 0.0
C1487 C 0.1499 0.43405 0.26517 0.0
C1488 C 0.15579 0.45613 0.28497 0.0
C1489 C 0.18042 0.4737 0.29249 0.0
C1490 C 0.19925 0.46918 0.28032 0.0
C1491 C 0.19345 0.44714 0.26049 0.0
H1492 H 0.18494 0.4908 0.30779 0.0
H1493 H 0.13504 0.28344 0.10813 0.0
H1494 H 0.19037 0.61618 0.86386 0.0
H1495 H 0.16507 0.61175 0.90032 0.0
H1496 H 0.19365 0.692 0.92781 0.0
H1497 H 0.21981 0.69634 0.8928 0.0
H1498 H 0.17768 0.67073 0.97142 0.0
H1499 H 0.14147 0.67075 0.8648 0.0
H1500 H 0.13413 0.65758 0.80996 0.0
H1501 H 0.09756 0.58129 0.82032 0.0
H1502 H 0.10444 0.59409 0.87516 0.0
H1503 H 0.06331 0.62635 0.02041 0.0
H1504 H 0.09189 0.65561 0.99797 0.0
H1505 H 0.08774 0.59381 0.93384 0.0
H1506 H 0.05786 0.56554 0.9547 0.0
H1507 H 0.08861 0.62842 0.90421 0.0
H1508 H 0.17216 0.66238 0.02524 0.0
H1509 H 0.18402 0.69585 0.06863 0.0
H1510 H 0.12477 0.72549 0.01971 0.0
H1511 H 0.11422 0.69395 0.9749 0.0
C1512 C 0.19227 0.63261 0.8789 0.0
C1513 C 0.20654 0.6566 0.87515 0.0
C1514 C 0.17776 0.63015 0.89957 0.0
C1515 C 0.17674 0.65172 0.91568 0.0
C1516 C 0.19394 0.67518 0.9153 0.0
C1517 C 0.20893 0.67759 0.89524 0.0
C1518 C 0.15436 0.65051 0.92711 0.0
C1519 C 0.15822 0.66056 0.95726 0.0
C1520 C 0.12887 0.64089 0.90718 0.0
C1521 C 0.12348 0.63336 0.87397 0.0
C1522 C 0.13172 0.6512 0.85529 0.0
C1523 C 0.1276 0.64382 0.82424 0.0
C1524 C 0.11547 0.61861 0.81173 0.0
C1525 C 0.10697 0.60081 0.83008 0.0
C1526 C 0.1108 0.60813 0.86108 0.0
C1527 C 0.06846 0.61934 0.00125 0.0
C1528 C 0.05848 0.59378 0.98924 0.0
C1529 C 0.08521 0.63612 0.98848 0.0
C1530 C 0.09262 0.62744 0.96394 0.0
C1531 C 0.08214 0.60168 0.95209 0.0
C1532 C 0.06511 0.58523 0.96426 0.0
C1533 C 0.11206 0.6435 0.95067 0.0
C1534 C 0.10805 0.63765 0.91914 0.0
C1535 C 0.13712 0.65819 0.96896 0.0
C1536 C 0.14149 0.67496 0.99722 0.0
C1537 C 0.16133 0.67573 0.02394 0.0
C1538 C 0.16798 0.69448 0.0487 0.0
C1539 C 0.15451 0.71208 0.04743 0.0
C1540 C 0.13487 0.71154 0.02095 0.0
C1541 C 0.12878 0.69346 0.99572 0.0
H1542 H 0.15965 0.72644 0.06674 0.0
H1543 H 0.11277 0.61284 0.78787 0.0
H1544 H 0.3286 0.21501 0.80253 0.0
H1545 H 0.35417 0.19433 0.8377 0.0
H1546 H 0.32718 0.2179 0.91065 0.0
H1547 H 0.30157 0.23949 0.87531 0.0
H1548 H 0.37947 0.22388 0.92927 0.0
H1549 H 0.30279 0.15697 0.87778 0.0
H1550 H 0.26759 0.13191 0.83288 0.0
H1551 H 0.32301 0.1125 0.79551 0.0
H1552 H 0.35857 0.1377 0.83995 0.0
H1553 H 0.43172 0.11949 0.9945 0.0
H1554 H 0.40172 0.14449 0.97991 0.0
H1555 H 0.43194 0.16593 0.90475 0.0
H1556 H 0.46169 0.14118 0.9189 0.0
H1557 H 0.37186 0.1352 0.89796 0.0
H1558 H 0.44806 0.20799 0.94406 0.0
H1559 H 0.48364 0.23678 0.98557 0.0
H1560 H 0.42928 0.24726 0.03133 0.0
H1561 H 0.3934 0.21774 0.99058 0.0
C1562 C 0.32782 0.21576 0.82596 0.0
C1563 C 0.31269 0.22864 0.83598 0.0
C1564 C 0.34248 0.20383 0.84606 0.0
C1565 C 0.34208 0.20403 0.87658 0.0
C1566 C 0.3275 0.21731 0.88705 0.0
C1567 C 0.31288 0.22956 0.86685 0.0
C1568 C 0.3574 0.19053 0.89712 0.0
C1569 C 0.37742 0.20428 0.92298 0.0
C1570 C 0.35478 0.16502 0.88868 0.0
C1571 C 0.33336 0.14926 0.86225 0.0
C1572 C 0.30748 0.14741 0.85996 0.0
C1573 C 0.28746 0.13318 0.83457 0.0
C1574 C 0.29306 0.12062 0.81136 0.0
C1575 C 0.3187 0.1222 0.81353 0.0
C1576 C 0.33879 0.1364 0.83886 0.0
C1577 C 0.43236 0.13006 0.97537 0.0
C1578 C 0.44874 0.12807 0.95754 0.0
C1579 C 0.41542 0.14447 0.96728 0.0
C1580 C 0.41512 0.15744 0.94175 0.0
C1581 C 0.43221 0.15632 0.92481 0.0
C1582 C 0.44899 0.14197 0.93275 0.0
C1583 C 0.39447 0.16883 0.92934 0.0
C1584 C 0.37337 0.15453 0.90494 0.0
C1585 C 0.39625 0.19383 0.93908 0.0
C1586 C 0.41808 0.21008 0.96462 0.0
C1587 C 0.44372 0.21581 0.96337 0.0
C1588 C 0.46394 0.23245 0.98666 0.0
C1589 C 0.45874 0.24383 0.01109 0.0
C1590 C 0.43329 0.23847 0.01237 0.0
C1591 C 0.41303 0.22164 0.98929 0.0
H1592 H 0.47441 0.25678 0.02904 0.0
H1593 H 0.27754 0.10967 0.79169 0.0
H1594 H 0.84531 0.28866 0.87507 0.0
H1595 H 0.87015 0.3228 0.91666 0.0
H1596 H 0.81583 0.36367 0.88345 0.0
H1597 H 0.79199 0.33003 0.84018 0.0
H1598 H 0.86022 0.39533 0.90081 0.0
H1599 H 0.81982 0.32903 0.95194 0.0
H1600 H 0.80855 0.28605 0.9659 0.0
H1601 H 0.8892 0.29376 0.0044 0.0
H1602 H 0.90095 0.33665 0.99039 0.0
H1603 H 0.91671 0.48815 0.02765 0.0
H1604 H 0.88389 0.45108 0.99528 0.0
H1605 H 0.93801 0.40852 0.01744 0.0
H1606 H 0.97051 0.4455 0.05068 0.0
H1607 H 0.89067 0.37789 0.00759 0.0
H1608 H 0.93133 0.44127 0.95301 0.0
H1609 H 0.9443 0.48448 0.9402 0.0
H1610 H 0.8645 0.48206 0.90868 0.0
H1611 H 0.85109 0.4389 0.92165 0.0
C1612 C 0.83862 0.30491 0.87668 0.0
C1613 C 0.8166 0.30662 0.85449 0.0
C1614 C 0.85273 0.32441 0.90076 0.0
C1615 C 0.84458 0.34571 0.90414 0.0
C1616 C 0.82258 0.34748 0.88172 0.0
C1617 C 0.80889 0.32824 0.85698 0.0
C1618 C 0.85952 0.36639 0.93038 0.0
C1619 C 0.86635 0.39141 0.92419 0.0
C1620 C 0.86835 0.36162 0.96107 0.0
C1621 C 0.86125 0.33599 0.96995 0.0
C1622 C 0.83514 0.32151 0.9633 0.0
C1623 C 0.82867 0.29717 0.97122 0.0
C1624 C 0.84815 0.28717 0.98599 0.0
C1625 C 0.87413 0.30152 0.99297 0.0
C1626 C 0.8807 0.32586 0.98509 0.0
C1627 C 0.92108 0.4705 0.02682 0.0
C1628 C 0.94594 0.46951 0.04208 0.0
C1629 C 0.90246 0.44938 0.0079 0.0
C1630 C 0.90861 0.42707 0.00312 0.0
C1631 C 0.93272 0.42546 0.02054 0.0
C1632 C 0.95125 0.44653 0.03981 0.0
C1633 C 0.89125 0.40655 0.97784 0.0
C1634 C 0.88414 0.38167 0.9842 0.0
C1635 C 0.88226 0.41139 0.94729 0.0
C1636 C 0.89023 0.43696 0.93846 0.0
C1637 C 0.91656 0.44998 0.94337 0.0
C1638 C 0.92399 0.47447 0.93613 0.0
C1639 C 0.90523 0.48604 0.9237 0.0
C1640 C 0.879 0.47308 0.91833 0.0
C1641 C 0.87147 0.4486 0.92557 0.0
H1642 H 0.91102 0.50502 0.91819 0.0
H1643 H 0.8431 0.26831 0.99205 0.0
H1644 H 0.72836 0.90131 0.8591 0.0
H1645 H 0.70084 0.92531 0.87005 0.0
H1646 H 0.67225 0.86968 0.92478 0.0
H1647 H 0.69929 0.84533 0.91324 0.0
H1648 H 0.63368 0.88234 0.89057 0.0
H1649 H 0.71769 0.92779 0.95717 0.0
H1650 H 0.76444 0.95027 0.97105 0.0
H1651 H 0.74924 0.00553 0.91271 0.0
H1652 H 0.70239 0.98316 0.89813 0.0
H1653 H 0.57777 0.95388 0.96767 0.0
H1654 H 0.6062 0.93109 0.95647 0.0
H1655 H 0.6271 0.98346 0.89454 0.0
H1656 H 0.59926 0.00684 0.9067 0.0
H1657 H 0.66946 0.973 0.93196 0.0
H1658 H 0.58449 0.92622 0.8661 0.0
H1659 H 0.53792 0.90401 0.85547 0.0
H1660 H 0.55572 0.85126 0.91654 0.0
H1661 H 0.60241 0.87336 0.92782 0.0
C1662 C 0.71626 0.89425 0.87352 0.0
C1663 C 0.71597 0.87141 0.88523 0.0
C1664 C 0.70059 0.90802 0.87987 0.0
C1665 C 0.68468 0.89949 0.89858 0.0
C1666 C 0.6843 0.87664 0.91023 0.0
C1667 C 0.69975 0.86272 0.9036 0.0
C1668 C 0.66822 0.91421 0.90577 0.0
C1669 C 0.64162 0.90208 0.89997 0.0
C1670 C 0.6784 0.94012 0.91755 0.0
C1671 C 0.70655 0.95365 0.92631 0.0
C1672 C 0.72433 0.94462 0.94711 0.0
C1673 C 0.75085 0.95736 0.95513 0.0
C1674 C 0.75981 0.97927 0.9427 0.0
C1675 C 0.74227 0.98853 0.92228 0.0
C1676 C 0.71573 0.97584 0.91414 0.0
C1677 C 0.58868 0.96067 0.95202 0.0
C1678 C 0.58643 0.98214 0.93823 0.0
C1679 C 0.60471 0.94752 0.94536 0.0
C1680 C 0.6186 0.95546 0.92445 0.0
C1681 C 0.61651 0.977 0.9107 0.0
C1682 C 0.60044 0.99018 0.91742 0.0
C1683 C 0.63508 0.94108 0.91676 0.0
C1684 C 0.66162 0.95327 0.92247 0.0
C1685 C 0.62493 0.91518 0.90523 0.0
C1686 C 0.59692 0.90151 0.89791 0.0
C1687 C 0.57846 0.90993 0.87734 0.0
C1688 C 0.55205 0.89737 0.8712 0.0
C1689 C 0.54387 0.87626 0.88535 0.0
C1690 C 0.56209 0.86761 0.90559 0.0
C1691 C 0.58853 0.88012 0.91183 0.0
H1692 H 0.52341 0.86658 0.88061 0.0
H1693 H 0.78035 0.98911 0.94895 0.0
H1694 H 0.79745 0.71267 0.20288 0.0
H1695 H 0.82177 0.68689 0.18656 0.0
H1696 H 0.8701 0.69614 0.27951 0.0
H1697 H 0.84512 0.72103 0.29613 0.0
H1698 H 0.89883 0.70497 0.23265 0.0
H1699 H 0.82989 0.64082 0.25378 0.0
H1700 H 0.7846 0.61684 0.24866 0.0
H1701 H 0.76976 0.59986 0.15164 0.0
H1702 H 0.81498 0.6238 0.15619 0.0
H1703 H 0.9707 0.6215 0.21373 0.0
H1704 H 0.94541 0.64529 0.22974 0.0
H1705 H 0.88073 0.60934 0.15049 0.0
H1706 H 0.90512 0.58375 0.13555 0.0
H1707 H 0.85958 0.61496 0.18959 0.0
H1708 H 0.92552 0.67717 0.16493 0.0
H1709 H 0.96957 0.70185 0.16573 0.0
H1710 H 0.9886 0.72537 0.26218 0.0
H1711 H 0.94474 0.70057 0.26203 0.0
C1712 C 0.81319 0.70922 0.21999 0.0
C1713 C 0.81907 0.71926 0.25101 0.0
C1714 C 0.82719 0.69428 0.21055 0.0
C1715 C 0.84821 0.68928 0.23154 0.0
C1716 C 0.85421 0.69947 0.2625 0.0
C1717 C 0.83972 0.71378 0.2721 0.0
C1718 C 0.86393 0.67381 0.22128 0.0
C1719 C 0.89025 0.68518 0.22364 0.0
C1720 C 0.85303 0.6481 0.20819 0.0
C1721 C 0.82573 0.63428 0.20529 0.0
C1722 C 0.81691 0.63215 0.23132 0.0
C1723 C 0.79131 0.61842 0.22855 0.0
C1724 C 0.77433 0.6068 0.19985 0.0
C1725 C 0.78294 0.60883 0.17387 0.0
C1726 C 0.80857 0.62243 0.17654 0.0
C1727 C 0.95104 0.61805 0.19952 0.0
C1728 C 0.94069 0.59994 0.17286 0.0
C1729 C 0.93643 0.63242 0.20864 0.0
C1730 C 0.91077 0.63016 0.19131 0.0
C1731 C 0.90031 0.6121 0.16476 0.0
C1732 C 0.91476 0.5974 0.15585 0.0
C1733 C 0.89486 0.64598 0.20101 0.0
C1734 C 0.86839 0.63473 0.19851 0.0
C1735 C 0.90548 0.67205 0.21323 0.0
C1736 C 0.93194 0.68678 0.21353 0.0
C1737 C 0.93917 0.68744 0.18636 0.0
C1738 C 0.96409 0.70148 0.18669 0.0
C1739 C 0.9819 0.7151 0.21401 0.0
C1740 C 0.9748 0.71476 0.24105 0.0
C1741 C 0.94991 0.70073 0.24086 0.0
H1742 H 1.00118 0.72597 0.21422 0.0
H1743 H 0.75448 0.59629 0.19774 0.0
H1744 H 0.31702 0.84808 0.24031 0.0
H1745 H 0.34037 0.8753 0.21031 0.0
H1746 H 0.3492 0.81069 0.16418 0.0
H1747 H 0.32548 0.78326 0.19384 0.0
H1748 H 0.38697 0.8872 0.2057 0.0
H1749 H 0.34973 0.82 0.09087 0.0
H1750 H 0.31048 0.78613 0.0614 0.0
H1751 H 0.26466 0.81553 0.1061 0.0
H1752 H 0.30353 0.84976 0.13548 0.0
H1753 H 0.46632 0.94102 0.11512 0.0
H1754 H 0.442 0.91216 0.14274 0.0
H1755 H 0.37036 0.91324 0.07886 0.0
H1756 H 0.39488 0.94087 0.04995 0.0
H1757 H 0.36211 0.86975 0.09241 0.0
H1758 H 0.39976 0.9488 0.15713 0.0
H1759 H 0.43452 0.98652 0.18662 0.0
H1760 H 0.47205 0.94006 0.24189 0.0
H1761 H 0.43767 0.90204 0.2125 0.0
C1762 C 0.32391 0.83957 0.22381 0.0
C1763 C 0.31917 0.81332 0.21956 0.0
C1764 C 0.33739 0.85525 0.20665 0.0
C1765 C 0.34645 0.84522 0.18455 0.0
C1766 C 0.34212 0.81903 0.1806 0.0
C1767 C 0.32862 0.80331 0.19779 0.0
C1768 C 0.36044 0.86215 0.16585 0.0
C1769 C 0.38153 0.88329 0.18092 0.0
C1770 C 0.35313 0.8577 0.13338 0.0
C1771 C 0.32962 0.83726 0.11564 0.0
C1772 C 0.33127 0.81927 0.09434 0.0
C1773 C 0.30908 0.80001 0.07765 0.0
C1774 C 0.28511 0.79862 0.08196 0.0
C1775 C 0.28325 0.81656 0.10288 0.0
C1776 C 0.30536 0.83587 0.11958 0.0
C1777 C 0.44537 0.93501 0.10683 0.0
C1778 C 0.43259 0.94349 0.08042 0.0
C1779 C 0.43137 0.9186 0.12289 0.0
C1780 C 0.4041 0.91087 0.11375 0.0
C1781 C 0.39131 0.91884 0.08679 0.0
C1782 C 0.40536 0.93476 0.07021 0.0
C1783 C 0.38904 0.89469 0.13227 0.0
C1784 C 0.36769 0.87366 0.11718 0.0
C1785 C 0.39558 0.89974 0.16471 0.0
C1786 C 0.41627 0.92257 0.18243 0.0
C1787 C 0.41551 0.94663 0.17545 0.0
C1788 C 0.43513 0.96806 0.19216 0.0
C1789 C 0.45551 0.96569 0.21606 0.0
C1790 C 0.45627 0.94187 0.22335 0.0
C1791 C 0.43672 0.92038 0.20669 0.0
H1792 H 0.47068 0.9823 0.22897 0.0
H1793 H 0.26796 0.78369 0.06904 0.0
H1794 H 0.73528 0.19698 0.23707 0.0
H1795 H 0.69666 0.1638 0.20624 0.0
H1796 H 0.69129 0.20778 0.13101 0.0
H1797 H 0.72989 0.24102 0.16172 0.0
H1798 H 0.64499 0.18927 0.14419 0.0
H1799 H 0.71136 0.15932 0.12497 0.0
H1800 H 0.75156 0.14747 0.13779 0.0
H1801 H 0.71893 0.09018 0.18749 0.0
H1802 H 0.67863 0.10195 0.17534 0.0
H1803 H 0.55162 0.08942 0.03334 0.0
H1804 H 0.59134 0.12298 0.06029 0.0
H1805 H 0.59798 0.0854 0.14102 0.0
H1806 H 0.55823 0.05175 0.11421 0.0
H1807 H 0.64405 0.10111 0.12238 0.0
H1808 H 0.57773 0.13291 0.142 0.0
H1809 H 0.53759 0.14485 0.12733 0.0
H1810 H 0.57062 0.19903 0.07445 0.0
H1811 H 0.61083 0.1871 0.08842 0.0
C1812 C 0.7259 0.19944 0.2139 0.0
C1813 C 0.73541 0.22135 0.20159 0.0
C1814 C 0.70399 0.18054 0.19636 0.0
C1815 C 0.69142 0.18343 0.16641 0.0
C1816 C 0.70089 0.20533 0.1541 0.0
C1817 C 0.72288 0.22417 0.17157 0.0
C1818 C 0.66788 0.16381 0.14829 0.0
C1819 C 0.6448 0.17006 0.13896 0.0
C1820 C 0.66782 0.13881 0.14203 0.0
C1821 C 0.69206 0.1317 0.1495 0.0
C1822 C 0.71283 0.14436 0.13889 0.0
C1823 C 0.73563 0.13762 0.14598 0.0
C1824 C 0.73783 0.11813 0.16352 0.0
C1825 C 0.71721 0.1053 0.17394 0.0
C1826 C 0.69437 0.11198 0.16694 0.0
C1827 C 0.56161 0.08832 0.05678 0.0
C1828 C 0.55203 0.06807 0.07174 0.0
C1829 C 0.58413 0.10748 0.07213 0.0
C1830 C 0.59733 0.1065 0.10251 0.0
C1831 C 0.58789 0.08629 0.1175 0.0
C1832 C 0.56521 0.06725 0.10226 0.0
C1833 C 0.62119 0.12653 0.11866 0.0
C1834 C 0.64431 0.12034 0.12754 0.0
C1835 C 0.62131 0.15162 0.12428 0.0
C1836 C 0.59718 0.1589 0.11597 0.0
C1837 C 0.57634 0.14719 0.127 0.0
C1838 C 0.5536 0.15399 0.11886 0.0
C1839 C 0.55152 0.17263 0.09989 0.0
C1840 C 0.57223 0.18456 0.0891 0.0
C1841 C 0.59501 0.1778 0.09713 0.0
H1842 H 0.5339 0.17787 0.09362 0.0
H1843 H 0.75549 0.11293 0.16897 0.0
H1844 H 0.71689 0.68466 0.78148 0.0
H1845 H 0.69208 0.66239 0.81335 0.0
H1846 H 0.69928 0.733 0.86249 0.0
H1847 H 0.72468 0.7556 0.83026 0.0
H1848 H 0.703 0.6981 0.90228 0.0
H1849 H 0.64186 0.69797 0.80629 0.0
H1850 H 0.62373 0.69128 0.75001 0.0
H1851 H 0.61701 0.61278 0.74879 0.0
H1852 H 0.63542 0.61907 0.80503 0.0
H1853 H 0.60648 0.63429 0.97291 0.0
H1854 H 0.63278 0.66248 0.94619 0.0
H1855 H 0.62059 0.59978 0.87927 0.0
H1856 H 0.59301 0.57214 0.90481 0.0
H1857 H 0.61862 0.63456 0.84929 0.0
H1858 H 0.6825 0.63454 0.94431 0.0
H1859 H 0.70147 0.64078 0.00049 0.0
H1860 H 0.70382 0.71832 0.00378 0.0
H1861 H 0.68461 0.71247 0.94765 0.0
C1862 C 0.71339 0.69566 0.79912 0.0
C1863 C 0.72313 0.72216 0.80316 0.0
C1864 C 0.69893 0.68274 0.81742 0.0
C1865 C 0.69304 0.6957 0.84032 0.0
C1866 C 0.7033 0.72226 0.8451 0.0
C1867 C 0.71806 0.7353 0.82671 0.0
C1868 C 0.6758 0.68126 0.85833 0.0
C1869 C 0.68437 0.68447 0.89062 0.0
C1870 C 0.65152 0.66291 0.84365 0.0
C1871 C 0.64019 0.65904 0.80986 0.0
C1872 C 0.63664 0.67931 0.794 0.0
C1873 C 0.62631 0.67559 0.76211 0.0
C1874 C 0.61927 0.65163 0.74584 0.0
C1875 C 0.62248 0.63133 0.76143 0.0
C1876 C 0.63284 0.63496 0.79331 0.0
C1877 C 0.6095 0.62648 0.95257 0.0
C1878 C 0.59749 0.60072 0.94125 0.0
C1879 C 0.62488 0.6427 0.93725 0.0
C1880 C 0.62957 0.63364 0.91056 0.0
C1881 C 0.61763 0.60779 0.89954 0.0
C1882 C 0.60179 0.59176 0.91438 0.0
C1883 C 0.64602 0.65072 0.89346 0.0
C1884 C 0.63723 0.64811 0.86117 0.0
C1885 C 0.67016 0.66943 0.9082 0.0
C1886 C 0.68188 0.673 0.94185 0.0
C1887 C 0.68694 0.65288 0.95705 0.0
C1888 C 0.69775 0.65635 0.98887 0.0
C1889 C 0.70378 0.67991 0.0057 0.0
C1890 C 0.69911 0.70008 0.99072 0.0
C1891 C 0.68828 0.6967 0.95891 0.0
H1892 H 0.71212 0.68255 0.03033 0.0
H1893 H 0.61128 0.64879 0.72115 0.0
H1894 H 0.36428 0.74916 0.81077 0.0
H1895 H 0.39284 0.72679 0.83969 0.0
H1896 H 0.32893 0.67931 0.86531 0.0
H1897 H 0.30028 0.70113 0.83612 0.0
H1898 H 0.37689 0.69601 0.91466 0.0
H1899 H 0.34265 0.65534 0.81077 0.0
H1900 H 0.33244 0.65363 0.75464 0.0
H1901 H 0.41337 0.68362 0.76294 0.0
H1902 H 0.42402 0.68586 0.81923 0.0
H1903 H 0.43228 0.59714 0.96025 0.0
H1904 H 0.40434 0.62266 0.939 0.0
H1905 H 0.45928 0.65991 0.89301 0.0
H1906 H 0.48657 0.63389 0.91324 0.0
H1907 H 0.41444 0.6484 0.85491 0.0
H1908 H 0.44895 0.6878 0.96004 0.0
H1909 H 0.45835 0.68899 0.01609 0.0
H1910 H 0.37702 0.66111 0.00633 0.0
H1911 H 0.36712 0.65945 0.95016 0.0
C1912 C 0.35636 0.73409 0.82274 0.0
C1913 C 0.3299 0.72681 0.8208 0.0
C1914 C 0.3727 0.72131 0.83928 0.0
C1915 C 0.36303 0.7013 0.85466 0.0
C1916 C 0.33688 0.69469 0.85375 0.0
C1917 C 0.32047 0.70711 0.8368 0.0
C1918 C 0.37969 0.68616 0.8699 0.0
C1919 C 0.38501 0.68545 0.90165 0.0
C1920 C 0.39041 0.67248 0.85301 0.0
C1921 C 0.38411 0.67104 0.8192 0.0
C1922 C 0.35825 0.66178 0.80064 0.0
C1923 C 0.35238 0.66067 0.7688 0.0
C1924 C 0.37224 0.66858 0.75524 0.0
C1925 C 0.39801 0.67755 0.77349 0.0
C1926 C 0.40397 0.67873 0.80536 0.0
C1927 C 0.43844 0.61094 0.9458 0.0
C1928 C 0.46155 0.61334 0.93824 0.0
C1929 C 0.4225 0.62565 0.93374 0.0
C1930 C 0.42965 0.64352 0.91444 0.0
C1931 C 0.45309 0.64625 0.90759 0.0
C1932 C 0.46873 0.63132 0.91919 0.0
C1933 C 0.41243 0.65859 0.90008 0.0
C1934 C 0.40669 0.65912 0.86824 0.0
C1935 C 0.4014 0.67206 0.91703 0.0
C1936 C 0.40731 0.67328 0.95084 0.0
C1937 C 0.43307 0.68177 0.96982 0.0
C1938 C 0.43848 0.68255 0.00162 0.0
C1939 C 0.4183 0.67507 0.01475 0.0
C1940 C 0.39264 0.66687 0.99611 0.0
C1941 C 0.38711 0.66603 0.9643 0.0
H1942 H 0.42253 0.6757 0.03936 0.0
H1943 H 0.36766 0.6677 0.73058 0.0
H1944 H 0.35669 0.33406 0.78538 0.0
H1945 H 0.3837 0.36707 0.82805 0.0
H1946 H 0.33633 0.33355 0.88459 0.0
H1947 H 0.30888 0.30174 0.84172 0.0
H1948 H 0.34627 0.38132 0.89373 0.0
H1949 H 0.39697 0.32594 0.89195 0.0
H1950 H 0.4189 0.30047 0.86996 0.0
H1951 H 0.46675 0.36696 0.84708 0.0
H1952 H 0.44482 0.39278 0.86844 0.0
H1953 H 0.48107 0.45388 0.00782 0.0
H1954 H 0.44137 0.41891 0.9871 0.0
H1955 H 0.41774 0.45785 0.91058 0.0
H1956 H 0.45708 0.49323 0.93154 0.0
H1957 H 0.44193 0.40235 0.92285 0.0
H1958 H 0.37127 0.44945 0.90843 0.0
H1959 H 0.35081 0.47316 0.93565 0.0
H1960 H 0.34463 0.41838 0.99819 0.0
H1961 H 0.36535 0.39459 0.97147 0.0
C1962 C 0.3522 0.33394 0.80699 0.0
C1963 C 0.33078 0.31568 0.81049 0.0
C1964 C 0.36758 0.35258 0.83128 0.0
C1965 C 0.36215 0.35241 0.85955 0.0
C1966 C 0.34075 0.334 0.86294 0.0
C1967 C 0.32508 0.31583 0.83844 0.0
C1968 C 0.37873 0.37155 0.88553 0.0
C1969 C 0.36718 0.38569 0.90029 0.0
C1970 C 0.40592 0.3768 0.89466 0.0
C1971 C 0.41913 0.36128 0.88168 0.0
C1972 C 0.41204 0.33511 0.88204 0.0
C1973 C 0.42449 0.32061 0.8697 0.0
C1974 C 0.44418 0.33209 0.8571 0.0
C1975 C 0.45149 0.35809 0.85684 0.0
C1976 C 0.43907 0.37267 0.86908 0.0
C1977 C 0.46684 0.45545 0.98732 0.0
C1978 C 0.47213 0.47593 0.97094 0.0
C1979 C 0.44415 0.43561 0.97574 0.0
C1980 C 0.42668 0.43618 0.94773 0.0
C1981 C 0.43083 0.45755 0.9327 0.0
C1982 C 0.45352 0.47742 0.94429 0.0
C1983 C 0.40947 0.41251 0.92968 0.0
C1984 C 0.42097 0.39747 0.91653 0.0
C1985 C 0.38244 0.40621 0.92245 0.0
C1986 C 0.36994 0.42043 0.93817 0.0
C1987 C 0.36565 0.44259 0.92808 0.0
C1988 C 0.35401 0.45602 0.94339 0.0
C1989 C 0.34646 0.4473 0.96867 0.0
C1990 C 0.35053 0.42514 0.97866 0.0
C1991 C 0.36223 0.41171 0.96347 0.0
H1992 H 0.33743 0.4577 0.98047 0.0
H1993 H 0.45381 0.32083 0.84759 0.0
H1994 H 0.69183 0.38204 0.84045 0.0
H1995 H 0.67604 0.39991 0.87812 0.0
H1996 H 0.6563 0.32822 0.9115 0.0
H1997 H 0.67142 0.30985 0.87268 0.0
H1998 H 0.61788 0.35081 0.90459 0.0
H1999 H 0.7071 0.37359 0.95624 0.0
H2000 H 0.75404 0.38858 0.96295 0.0
H2001 H 0.74856 0.46099 0.94087 0.0
H2002 H 0.70154 0.44638 0.93359 0.0
H2003 H 0.58504 0.43741 0.00022 0.0
H2004 H 0.60681 0.40645 0.99094 0.0
H2005 H 0.63472 0.44945 0.92451 0.0
H2006 H 0.61304 0.48001 0.93343 0.0
H2007 H 0.67269 0.43254 0.967 0.0
H2008 H 0.58213 0.40158 0.89809 0.0
H2009 H 0.535 0.38681 0.89061 0.0
H2010 H 0.54449 0.32968 0.94829 0.0
H2011 H 0.59171 0.34429 0.95625 0.0
C2012 C 0.68389 0.36997 0.85556 0.0
C2013 C 0.68285 0.34455 0.8537 0.0
C2014 C 0.67521 0.38029 0.87737 0.0
C2015 C 0.66556 0.36552 0.89804 0.0
C2016 C 0.66401 0.33998 0.89599 0.0
C2017 C 0.67273 0.32958 0.87401 0.0
C2018 C 0.65637 0.37715 0.92076 0.0
C2019 C 0.63006 0.36824 0.91909 0.0
C2020 C 0.67232 0.39978 0.93985 0.0
C2021 C 0.70072 0.40885 0.9444 0.0
C2022 C 0.71586 0.39268 0.95268 0.0
C2023 C 0.7425 0.40112 0.9566 0.0
C2024 C 0.75428 0.42573 0.95237 0.0
C2025 C 0.73943 0.44195 0.94422 0.0
C2026 C 0.71278 0.43362 0.94028 0.0
C2027 C 0.59601 0.4402 0.98383 0.0
C2028 C 0.59724 0.46084 0.96725 0.0
C2029 C 0.60837 0.42262 0.9786 0.0
C2030 C 0.62236 0.42582 0.95714 0.0
C2031 C 0.62412 0.4468 0.94129 0.0
C2032 C 0.61156 0.46407 0.94617 0.0
C2033 C 0.63409 0.40691 0.94921 0.0
C2034 C 0.66087 0.41449 0.95371 0.0
C2035 C 0.61868 0.38302 0.93301 0.0
C2036 C 0.59036 0.3741 0.92792 0.0
C2037 C 0.57413 0.38593 0.90925 0.0
C2038 C 0.54743 0.37759 0.90491 0.0
C2039 C 0.53675 0.35734 0.919 0.0
C2040 C 0.55277 0.34536 0.9374 0.0
C2041 C 0.5795 0.35364 0.9418 0.0
H2042 H 0.51608 0.35091 0.91561 0.0
H2043 H 0.77491 0.43222 0.95542 0.0
H2044 H 0.76133 0.34243 0.2161 0.0
H2045 H 0.73331 0.36605 0.18952 0.0
H2046 H 0.66589 0.30606 0.19014 0.0
H2047 H 0.69373 0.28235 0.21676 0.0
H2048 H 0.6597 0.32441 0.13423 0.0
H2049 H 0.68667 0.35816 0.24104 0.0
H2050 H 0.71853 0.37727 0.29112 0.0
H2051 H 0.75209 0.4412 0.25087 0.0
H2052 H 0.72064 0.42228 0.20043 0.0
H2053 H 0.56489 0.38858 0.10205 0.0
H2054 H 0.59407 0.36466 0.12394 0.0
H2055 H 0.65988 0.42947 0.13193 0.0
H2056 H 0.63072 0.4536 0.1103 0.0
H2057 H 0.66795 0.40896 0.18227 0.0
H2058 H 0.64126 0.37695 0.07611 0.0
H2059 H 0.61021 0.35856 0.02533 0.0
H2060 H 0.57747 0.29238 0.06253 0.0
H2061 H 0.6081 0.31053 0.11365 0.0
C2062 C 0.74055 0.33418 0.21051 0.0
C2063 C 0.72987 0.31049 0.21883 0.0
C2064 C 0.72451 0.34777 0.19534 0.0
C2065 C 0.6974 0.338 0.18799 0.0
C2066 C 0.68669 0.31407 0.19553 0.0
C2067 C 0.7027 0.30056 0.21091 0.0
C2068 C 0.68023 0.35292 0.17317 0.0
C2069 C 0.66132 0.34278 0.14489 0.0
C2070 C 0.68268 0.37721 0.18656 0.0
C2071 C 0.70148 0.38868 0.2169 0.0
C2072 C 0.70097 0.3762 0.24282 0.0
C2073 C 0.71893 0.38701 0.27128 0.0
C2074 C 0.73737 0.4104 0.27416 0.0
C2075 C 0.73783 0.42306 0.2486 0.0
C2076 C 0.71993 0.41231 0.22007 0.0
C2077 C 0.58557 0.39769 0.10803 0.0
C2078 C 0.59536 0.42307 0.10422 0.0
C2079 C 0.60231 0.38394 0.12062 0.0
C2080 C 0.62935 0.39505 0.12937 0.0
C2081 C 0.63917 0.42037 0.12549 0.0
C2082 C 0.62243 0.43419 0.11309 0.0
C2083 C 0.64729 0.38049 0.14325 0.0
C2084 C 0.66635 0.39066 0.17143 0.0
C2085 C 0.64512 0.35633 0.12958 0.0
C2086 C 0.62685 0.34521 0.09879 0.0
C2087 C 0.62733 0.35854 0.07352 0.0
C2088 C 0.60982 0.34816 0.04466 0.0
C2089 C 0.59184 0.32434 0.04073 0.0
C2090 C 0.5914 0.31084 0.06562 0.0
C2091 C 0.60885 0.32115 0.09454 0.0
H2092 H 0.57829 0.31634 0.01838 0.0
H2093 H 0.75126 0.41874 0.29621 0.0
H2094 H 0.68288 0.72274 0.2368 0.0
H2095 H 0.65484 0.6987 0.18743 0.0
H2096 H 0.72197 0.7048 0.15627 0.0
H2097 H 0.74983 0.72546 0.20685 0.0
H2098 H 0.64193 0.69431 0.12542 0.0
H2099 H 0.72245 0.65284 0.13474 0.0
H2100 H 0.76461 0.6561 0.17189 0.0
H2101 H 0.73196 0.65908 0.24622 0.0
H2102 H 0.68972 0.65599 0.20949 0.0
H2103 H 0.57352 0.57734 0.03396 0.0
H2104 H 0.60995 0.61538 0.05363 0.0
H2105 H 0.62019 0.59455 0.14488 0.0
H2106 H 0.58426 0.55572 0.12492 0.0
H2107 H 0.66633 0.61549 0.133 0.0
H2108 H 0.58393 0.63164 0.12176 0.0
H2109 H 0.54004 0.63043 0.09143 0.0
H2110 H 0.57201 0.67651 0.03043 0.0
H2111 H 0.61609 0.67768 0.06021 0.0
C2112 C 0.69141 0.71924 0.21906 0.0
C2113 C 0.71824 0.7256 0.2252 0.0
C2114 C 0.67549 0.70606 0.19076 0.0
C2115 C 0.68653 0.69967 0.16857 0.0
C2116 C 0.71325 0.70935 0.17336 0.0
C2117 C 0.72914 0.7212 0.20216 0.0
C2118 C 0.67148 0.67754 0.14579 0.0
C2119 C 0.64748 0.67721 0.12628 0.0
C2120 C 0.67868 0.65518 0.14764 0.0
C2121 C 0.70307 0.6542 0.16945 0.0
C2122 C 0.72423 0.6538 0.15898 0.0
C2123 C 0.74815 0.6558 0.17996 0.0
C2124 C 0.75096 0.65785 0.21138 0.0
C2125 C 0.72976 0.6575 0.22188 0.0
C2126 C 0.70584 0.65561 0.20102 0.0
C2127 C 0.58391 0.5806 0.05805 0.0
C2128 C 0.57618 0.56371 0.07792 0.0
C2129 C 0.60461 0.6023 0.06922 0.0
C2130 C 0.61746 0.60763 0.10057 0.0
C2131 C 0.61041 0.59048 0.12048 0.0
C2132 C 0.58981 0.56854 0.10919 0.0
C2133 C 0.63654 0.63216 0.11323 0.0
C2134 C 0.66125 0.6328 0.13083 0.0
C2135 C 0.62962 0.65457 0.11032 0.0
C2136 C 0.60324 0.65454 0.09299 0.0
C2137 C 0.58157 0.64143 0.1018 0.0
C2138 C 0.55667 0.64074 0.08472 0.0
C2139 C 0.55324 0.65333 0.05896 0.0
C2140 C 0.57471 0.66674 0.05035 0.0
C2141 C 0.59965 0.66743 0.06732 0.0
H2142 H 0.53395 0.65273 0.04571 0.0
H2143 H 0.76958 0.65982 0.2276 0.0
H2144 H 0.39134 0.69915 0.20392 0.0
H2145 H 0.41427 0.68457 0.17204 0.0
H2146 H 0.34338 0.65839 0.09736 0.0
H2147 H 0.32022 0.6725 0.1296 0.0
H2148 H 0.36323 0.62227 0.10946 0.0
H2149 H 0.39726 0.70634 0.09157 0.0
H2150 H 0.41777 0.75217 0.10489 0.0
H2151 H 0.48684 0.74042 0.16147 0.0
H2152 H 0.46664 0.69452 0.14883 0.0
H2153 H 0.429 0.56393 0.03496 0.0
H2154 H 0.40795 0.59524 0.04244 0.0
H2155 H 0.46765 0.62752 0.12764 0.0
H2156 H 0.48996 0.59734 0.11933 0.0
H2157 H 0.45032 0.66347 0.09896 0.0
H2158 H 0.41274 0.58114 0.12621 0.0
H2159 H 0.39252 0.53512 0.11558 0.0
H2160 H 0.3301 0.54427 0.04338 0.0
H2161 H 0.35015 0.59035 0.05338 0.0
C2162 C 0.38082 0.69089 0.18044 0.0
C2163 C 0.35401 0.6867 0.16925 0.0
C2164 C 0.39397 0.68271 0.16214 0.0
C2165 C 0.38059 0.67058 0.13218 0.0
C2166 C 0.35407 0.66773 0.12039 0.0
C2167 C 0.34086 0.67566 0.13882 0.0
C2168 C 0.39334 0.65747 0.11525 0.0
C2169 C 0.38193 0.63149 0.10633 0.0
C2170 C 0.41802 0.66934 0.11185 0.0
C2171 C 0.43036 0.69696 0.11934 0.0
C2172 C 0.41677 0.71352 0.107 0.0
C2173 C 0.42835 0.73952 0.11441 0.0
C2174 C 0.45358 0.7492 0.13404 0.0
C2175 C 0.4673 0.7329 0.14625 0.0
C2176 C 0.45581 0.70688 0.13892 0.0
C2177 C 0.4382 0.57813 0.05485 0.0
C2178 C 0.461 0.57778 0.07687 0.0
C2179 C 0.42598 0.59593 0.05915 0.0
C2180 C 0.43595 0.61331 0.08589 0.0
C2181 C 0.45955 0.61413 0.10692 0.0
C2182 C 0.47204 0.59658 0.1024 0.0
C2183 C 0.42034 0.62842 0.09392 0.0
C2184 C 0.43126 0.65458 0.10129 0.0
C2185 C 0.39522 0.61678 0.09614 0.0
C2186 C 0.38308 0.58912 0.09029 0.0
C2187 C 0.39479 0.5733 0.10795 0.0
C2188 C 0.38335 0.54723 0.10206 0.0
C2189 C 0.36008 0.53677 0.07876 0.0
C2190 C 0.34815 0.55239 0.06137 0.0
C2191 C 0.35953 0.57848 0.06715 0.0
H2192 H 0.35126 0.51658 0.07422 0.0
H2193 H 0.4625 0.76934 0.13977 0.0
H2194 H 0.29382 0.30342 0.198 0.0
H2195 H 0.31772 0.3271 0.16525 0.0
H2196 H 0.38927 0.3408 0.23757 0.0
H2197 H 0.36538 0.31854 0.27032 0.0
H2198 H 0.39181 0.38156 0.21847 0.0
H2199 H 0.3682 0.29865 0.15963 0.0
H2200 H 0.33758 0.25875 0.12978 0.0
H2201 H 0.29697 0.29965 0.06839 0.0
H2202 H 0.32767 0.33979 0.09755 0.0
H2203 H 0.48494 0.43393 0.14352 0.0
H2204 H 0.45669 0.40625 0.1682 0.0
H2205 H 0.39096 0.39923 0.08992 0.0
H2206 H 0.41975 0.42591 0.06429 0.0
H2207 H 0.38206 0.35666 0.10943 0.0
H2208 H 0.40761 0.43914 0.16506 0.0
H2209 H 0.43812 0.47937 0.19408 0.0
H2210 H 0.47343 0.43982 0.2626 0.0
H2211 H 0.44333 0.39934 0.23381 0.0
C2212 C 0.3147 0.31103 0.20659 0.0
C2213 C 0.32758 0.3088 0.23691 0.0
C2214 C 0.32855 0.32469 0.18775 0.0
C2215 C 0.35578 0.33609 0.19842 0.0
C2216 C 0.36846 0.33276 0.22832 0.0
C2217 C 0.35468 0.31967 0.24715 0.0
C2218 C 0.37126 0.35263 0.17995 0.0
C2219 C 0.3898 0.3757 0.19475 0.0
C2220 C 0.36841 0.3462 0.14842 0.0
C2221 C 0.35004 0.32215 0.13091 0.0
C2222 C 0.35267 0.2991 0.13984 0.0
C2223 C 0.33532 0.27646 0.12304 0.0
C2224 C 0.31518 0.27665 0.09741 0.0
C2225 C 0.31252 0.29951 0.08831 0.0
C2226 C 0.32997 0.32221 0.10485 0.0
C2227 C 0.46447 0.42653 0.13141 0.0
C2228 C 0.45483 0.43256 0.10183 0.0
C2229 C 0.44808 0.41071 0.1458 0.0
C2230 C 0.42109 0.40087 0.13175 0.0
C2231 C 0.41148 0.40644 0.10181 0.0
C2232 C 0.42805 0.42188 0.08706 0.0
C2233 C 0.40323 0.3851 0.14839 0.0
C2234 C 0.38413 0.36239 0.1332 0.0
C2235 C 0.40544 0.39187 0.17964 0.0
C2236 C 0.42334 0.41621 0.19715 0.0
C2237 C 0.42196 0.43903 0.18625 0.0
C2238 C 0.43917 0.46187 0.20266 0.0
C2239 C 0.45773 0.46214 0.23013 0.0
C2240 C 0.45906 0.43958 0.24131 0.0
C2241 C 0.44191 0.41669 0.22498 0.0
H2242 H 0.47105 0.47984 0.24278 0.0
H2243 H 0.30171 0.2591 0.08453 0.0
H2244 H 0.84564 0.70132 0.62545 0.0
H2245 H 0.87171 0.67722 0.61052 0.0
H2246 H 0.84901 0.62227 0.6689 0.0
H2247 H 0.82345 0.64653 0.68445 0.0
H2248 H 0.90044 0.63549 0.67627 0.0
H2249 H 0.82205 0.61101 0.59218 0.0
H2250 H 0.78781 0.61743 0.54959 0.0
H2251 H 0.84417 0.65064 0.50429 0.0
H2252 H 0.87893 0.64486 0.54688 0.0
H2253 H 0.93945 0.53613 0.62799 0.0
H2254 H 0.91355 0.56198 0.63865 0.0
H2255 H 0.93423 0.6091 0.57173 0.0
H2256 H 0.95958 0.58258 0.56023 0.0
H2257 H 0.886 0.60262 0.56812 0.0
H2258 H 0.96444 0.6265 0.65136 0.0
H2259 H 0.99869 0.61938 0.6934 0.0
H2260 H 0.94272 0.58758 0.73991 0.0
H2261 H 0.90806 0.59419 0.69795 0.0
C2262 C 0.84635 0.68419 0.63525 0.0
C2263 C 0.83243 0.67579 0.65608 0.0
C2264 C 0.86106 0.67033 0.62649 0.0
C2265 C 0.86209 0.64783 0.63838 0.0
C2266 C 0.84841 0.63954 0.65937 0.0
C2267 C 0.83366 0.65332 0.66805 0.0
C2268 C 0.87774 0.63304 0.62945 0.0
C2269 C 0.89712 0.62809 0.65265 0.0
C2270 C 0.87394 0.62408 0.59852 0.0
C2271 C 0.85315 0.62784 0.57299 0.0
C2272 C 0.82722 0.61997 0.57333 0.0
C2273 C 0.80772 0.62345 0.54914 0.0
C2274 C 0.81386 0.63455 0.52432 0.0
C2275 C 0.83952 0.64215 0.5236 0.0
C2276 C 0.85912 0.63878 0.54776 0.0
C2277 C 0.93853 0.55206 0.61562 0.0
C2278 C 0.95189 0.5577 0.59372 0.0
C2279 C 0.9238 0.56687 0.62179 0.0
C2280 C 0.92264 0.588 0.60672 0.0
C2281 C 0.93518 0.59312 0.58396 0.0
C2282 C 0.94963 0.57801 0.57741 0.0
C2283 C 0.90847 0.60476 0.615 0.0
C2284 C 0.88947 0.61018 0.59171 0.0
C2285 C 0.91272 0.61432 0.64586 0.0
C2286 C 0.93362 0.6107 0.67139 0.0
C2287 C 0.95941 0.61788 0.67049 0.0
C2288 C 0.9789 0.61394 0.6943 0.0
C2289 C 0.97288 0.603 0.71928 0.0
C2290 C 0.94736 0.59605 0.72054 0.0
C2291 C 0.92779 0.59992 0.69677 0.0
H2292 H 0.98799 0.59994 0.73768 0.0
H2293 H 0.79873 0.63719 0.50558 0.0
H2294 H 0.31352 0.85805 0.63851 0.0
H2295 H 0.33148 0.87908 0.60067 0.0
H2296 H 0.3631 0.94857 0.66226 0.0
H2297 H 0.34481 0.92772 0.70047 0.0
H2298 H 0.34509 0.92603 0.57129 0.0
H2299 H 0.42433 0.95379 0.68572 0.0
H2300 H 0.43543 0.94024 0.73699 0.0
H2301 H 0.39259 0.86372 0.69818 0.0
H2302 H 0.38136 0.87686 0.64677 0.0
H2303 H 0.49262 0.98871 0.5966 0.0
H2304 H 0.45484 0.97489 0.61471 0.0
H2305 H 0.41701 0.91803 0.53571 0.0
H2306 H 0.45452 0.93312 0.51645 0.0
H2307 H 0.43499 0.93272 0.63148 0.0
H2308 H 0.35303 0.9019 0.52087 0.0
H2309 H 0.34517 0.90858 0.46662 0.0
H2310 H 0.39502 0.98471 0.49328 0.0
H2311 H 0.40306 0.97851 0.54776 0.0
C2312 C 0.32288 0.87816 0.64348 0.0
C2313 C 0.32867 0.89108 0.67298 0.0
C2314 C 0.33305 0.89019 0.62158 0.0
C2315 C 0.34914 0.91508 0.62913 0.0
C2316 C 0.35089 0.92919 0.65629 0.0
C2317 C 0.34073 0.91719 0.67825 0.0
C2318 C 0.3701 0.92298 0.6149 0.0
C2319 C 0.36481 0.92776 0.58437 0.0
C2320 C 0.39557 0.92424 0.6317 0.0
C2321 C 0.4018 0.91634 0.6626 0.0
C2322 C 0.41728 0.9341 0.68822 0.0
C2323 C 0.42361 0.92649 0.71726 0.0
C2324 C 0.41477 0.90113 0.72082 0.0
C2325 C 0.39948 0.88334 0.69538 0.0
C2326 C 0.39302 0.89088 0.66633 0.0
C2327 C 0.47635 0.97313 0.58315 0.0
C2328 C 0.47647 0.96166 0.55524 0.0
C2329 C 0.45472 0.96534 0.59345 0.0
C2330 C 0.43299 0.94567 0.57633 0.0
C2331 C 0.43336 0.93363 0.5489 0.0
C2332 C 0.45485 0.9419 0.53818 0.0
C2333 C 0.41058 0.93742 0.5883 0.0
C2334 C 0.41548 0.93183 0.61843 0.0
C2335 C 0.38489 0.93502 0.57076 0.0
C2336 C 0.37863 0.93972 0.53835 0.0
C2337 C 0.36203 0.92016 0.51516 0.0
C2338 C 0.35765 0.92382 0.48436 0.0
C2339 C 0.36959 0.94703 0.47648 0.0
C2340 C 0.38578 0.96672 0.49941 0.0
C2341 C 0.39026 0.96315 0.53025 0.0
H2342 H 0.36631 0.94975 0.4526 0.0
H2343 H 0.41967 0.89527 0.74332 0.0
H2344 H 0.20173 0.30359 0.73342 0.0
H2345 H 0.17676 0.32583 0.69917 0.0
H2346 H 0.22641 0.3306 0.64105 0.0
H2347 H 0.25122 0.30742 0.67506 0.0
H2348 H 0.21783 0.3789 0.66645 0.0
H2349 H 0.17388 0.29817 0.60775 0.0
H2350 H 0.1513 0.25258 0.59795 0.0
H2351 H 0.09211 0.26425 0.63443 0.0
H2352 H 0.11456 0.30988 0.645 0.0
H2353 H 0.13324 0.44398 0.58251 0.0
H2354 H 0.16113 0.41661 0.59326 0.0
H2355 H 0.11317 0.3749 0.64465 0.0
H2356 H 0.08475 0.40125 0.6324 0.0
H2357 H 0.12447 0.34361 0.60981 0.0
H2358 H 0.17098 0.42136 0.67746 0.0
H2359 H 0.19342 0.46684 0.69146 0.0
H2360 H 0.24845 0.46075 0.64452 0.0
H2361 H 0.22565 0.41542 0.62904 0.0
C2362 C 0.20721 0.30917 0.7132 0.0
C2363 C 0.22847 0.30402 0.70691 0.0
C2364 C 0.19287 0.32173 0.69362 0.0
C2365 C 0.19979 0.32976 0.66768 0.0
C2366 C 0.22081 0.32441 0.66098 0.0
C2367 C 0.23486 0.31119 0.68028 0.0
C2368 C 0.18571 0.34517 0.64918 0.0
C2369 C 0.1976 0.37122 0.6532 0.0
C2370 C 0.15922 0.33501 0.63277 0.0
C2371 C 0.14597 0.30749 0.62723 0.0
C2372 C 0.15621 0.29101 0.61402 0.0
C2373 C 0.14341 0.26516 0.60826 0.0
C2374 C 0.12025 0.25558 0.61545 0.0
C2375 C 0.11001 0.27175 0.62877 0.0
C2376 C 0.12276 0.29761 0.63463 0.0
C2377 C 0.12849 0.42854 0.59543 0.0
C2378 C 0.10673 0.42434 0.60616 0.0
C2379 C 0.14454 0.41318 0.60194 0.0
C2380 C 0.13923 0.39367 0.61976 0.0
C2381 C 0.11754 0.38968 0.63065 0.0
C2382 C 0.10147 0.40487 0.62393 0.0
C2383 C 0.1563 0.37756 0.62797 0.0
C2384 C 0.1449 0.35135 0.62215 0.0
C2385 C 0.18316 0.38764 0.64323 0.0
C2386 C 0.19631 0.41507 0.6516 0.0
C2387 C 0.18756 0.4298 0.66959 0.0
C2388 C 0.20033 0.45557 0.67777 0.0
C2389 C 0.22217 0.46674 0.66857 0.0
C2390 C 0.23129 0.45216 0.6512 0.0
C2391 C 0.2184 0.42644 0.64263 0.0
H2392 H 0.23215 0.48666 0.67509 0.0
H2393 H 0.11014 0.23566 0.61048 0.0
H2394 H 0.72048 0.249 0.6619 0.0
H2395 H 0.69739 0.21483 0.6196 0.0
H2396 H 0.72327 0.16235 0.67641 0.0
H2397 H 0.74593 0.19654 0.7194 0.0
H2398 H 0.72509 0.15684 0.61148 0.0
H2399 H 0.66846 0.1603 0.67118 0.0
H2400 H 0.64563 0.18018 0.6991 0.0
H2401 H 0.60661 0.20262 0.61571 0.0
H2402 H 0.62949 0.18313 0.58737 0.0
H2403 H 0.62675 0.04157 0.5343 0.0
H2404 H 0.66066 0.07754 0.56723 0.0
H2405 H 0.62296 0.12763 0.5193 0.0
H2406 H 0.58914 0.09152 0.48591 0.0
H2407 H 0.6294 0.1355 0.57851 0.0
H2408 H 0.68154 0.12055 0.51796 0.0
H2409 H 0.70546 0.09962 0.49345 0.0
H2410 H 0.75289 0.09334 0.58177 0.0
H2411 H 0.72906 0.11416 0.60691 0.0
C2412 C 0.72146 0.23024 0.66541 0.0
C2413 C 0.73487 0.22544 0.69413 0.0
C2414 C 0.70827 0.21072 0.64113 0.0
C2415 C 0.70855 0.18601 0.64479 0.0
C2416 C 0.72286 0.18129 0.67303 0.0
C2417 C 0.73568 0.20079 0.69761 0.0
C2418 C 0.69228 0.16505 0.61978 0.0
C2419 C 0.70414 0.15176 0.60441 0.0
C2420 C 0.66499 0.15894 0.6103 0.0
C2421 C 0.65117 0.17075 0.62724 0.0
C2422 C 0.65532 0.16981 0.65886 0.0
C2423 C 0.64228 0.1809 0.67475 0.0
C2424 C 0.62481 0.1928 0.65923 0.0
C2425 C 0.62026 0.19351 0.62774 0.0
C2426 C 0.63329 0.18246 0.61175 0.0
C2427 C 0.6265 0.06036 0.52972 0.0
C2428 C 0.6056 0.0638 0.50715 0.0
C2429 C 0.64582 0.08095 0.54876 0.0
C2430 C 0.64459 0.10547 0.54576 0.0
C2431 C 0.62461 0.109 0.52181 0.0
C2432 C 0.6054 0.08836 0.50247 0.0
C2433 C 0.66203 0.12686 0.56979 0.0
C2434 C 0.65035 0.14036 0.5852 0.0
C2435 C 0.68945 0.13253 0.57965 0.0
C2436 C 0.70342 0.11923 0.56442 0.0
C2437 C 0.69701 0.11481 0.53227 0.0
C2438 C 0.71058 0.10288 0.5182 0.0
C2439 C 0.73074 0.09519 0.53604 0.0
C2440 C 0.73729 0.09937 0.56796 0.0
C2441 C 0.72375 0.1113 0.58212 0.0
H2442 H 0.74125 0.08596 0.52512 0.0
H2443 H 0.61469 0.20136 0.67157 0.0
H2444 H 0.80542 0.34529 0.3073 0.0
H2445 H 0.8381 0.38304 0.33861 0.0
H2446 H 0.8634 0.33805 0.40738 0.0
H2447 H 0.82986 0.30036 0.3769 0.0
H2448 H 0.86052 0.3933 0.42567 0.0
H2449 H 0.91765 0.35073 0.37708 0.0
H2450 H 0.91288 0.32232 0.33134 0.0
H2451 H 0.87032 0.36405 0.27383 0.0
H2452 H 0.87631 0.39357 0.31902 0.0
H2453 H 0.99027 0.45083 0.51173 0.0
H2454 H 0.94959 0.42037 0.48132 0.0
H2455 H 0.95121 0.46169 0.40413 0.0
H2456 H 0.99232 0.49204 0.43435 0.0
H2457 H 0.93742 0.41169 0.38714 0.0
H2458 H 0.91466 0.46741 0.45074 0.0
H2459 H 0.91658 0.48961 0.49962 0.0
H2460 H 0.88706 0.41896 0.53034 0.0
H2461 H 0.88604 0.3963 0.48228 0.0
C2462 C 0.81772 0.34358 0.32933 0.0
C2463 C 0.8156 0.32008 0.3397 0.0
C2464 C 0.83615 0.36507 0.34717 0.0
C2465 C 0.8531 0.36305 0.37496 0.0
C2466 C 0.85026 0.33979 0.38598 0.0
C2467 C 0.83138 0.31837 0.36851 0.0
C2468 C 0.87617 0.38422 0.39015 0.0
C2469 C 0.87736 0.39766 0.41734 0.0
C2470 C 0.89779 0.38955 0.37886 0.0
C2471 C 0.89739 0.37424 0.35133 0.0
C2472 C 0.90783 0.35414 0.35456 0.0
C2473 C 0.90495 0.33789 0.32875 0.0
C2474 C 0.89141 0.34145 0.29967 0.0
C2475 C 0.881 0.36144 0.29633 0.0
C2476 C 0.88443 0.37812 0.32196 0.0
C2477 C 0.9819 0.45346 0.48831 0.0
C2478 C 0.99417 0.47392 0.47545 0.0
C2479 C 0.9587 0.43608 0.471 0.0
C2480 C 0.94721 0.43915 0.44075 0.0
C2481 C 0.95977 0.45917 0.42755 0.0
C2482 C 0.98317 0.47645 0.44479 0.0
C2483 C 0.92203 0.42142 0.42294 0.0
C2484 C 0.92052 0.40816 0.39531 0.0
C2485 C 0.9001 0.41641 0.43398 0.0
C2486 C 0.90048 0.43012 0.46289 0.0
C2487 C 0.90885 0.45658 0.46804 0.0
C2488 C 0.90984 0.46926 0.49567 0.0
C2489 C 0.90207 0.45571 0.51814 0.0
C2490 C 0.89323 0.42945 0.513 0.0
C2491 C 0.89252 0.41667 0.4856 0.0
H2492 H 0.90282 0.46556 0.5395 0.0
H2493 H 0.88893 0.3287 0.27975 0.0
H2494 H 0.71637 0.82543 0.25995 0.0
H2495 H 0.69121 0.85059 0.27472 0.0
H2496 H 0.72005 0.8403 0.36904 0.0
H2497 H 0.74443 0.81419 0.35401 0.0
H2498 H 0.67444 0.83981 0.36346 0.0
H2499 H 0.73932 0.89967 0.33388 0.0
H2500 H 0.76582 0.91811 0.30079 0.0
H2501 H 0.69758 0.92037 0.23222 0.0
H2502 H 0.67061 0.90165 0.26476 0.0
H2503 H 0.63141 0.93711 0.42266 0.0
H2504 H 0.65715 0.91223 0.40868 0.0
H2505 H 0.62065 0.91268 0.31314 0.0
H2506 H 0.5952 0.93803 0.32694 0.0
H2507 H 0.67066 0.91878 0.32039 0.0
H2508 H 0.6065 0.85864 0.35367 0.0
H2509 H 0.58256 0.84246 0.39014 0.0
H2510 H 0.65356 0.84388 0.45632 0.0
H2511 H 0.67797 0.86031 0.42032 0.0
C2512 C 0.71755 0.8285 0.28393 0.0
C2513 C 0.73287 0.81747 0.30558 0.0
C2514 C 0.70309 0.8433 0.29257 0.0
C2515 C 0.70359 0.84836 0.32345 0.0
C2516 C 0.71883 0.83718 0.34506 0.0
C2517 C 0.73306 0.82211 0.33637 0.0
C2518 C 0.68818 0.86478 0.33303 0.0
C2519 C 0.6741 0.85723 0.35417 0.0
C2520 C 0.68681 0.88773 0.32126 0.0
C2521 C 0.70291 0.89901 0.30162 0.0
C2522 C 0.72994 0.90395 0.31165 0.0
C2523 C 0.74505 0.91447 0.29301 0.0
C2524 C 0.73338 0.92034 0.26438 0.0
C2525 C 0.70658 0.91577 0.25438 0.0
C2526 C 0.69137 0.90522 0.27292 0.0
C2527 C 0.62876 0.93216 0.39858 0.0
C2528 C 0.61064 0.93998 0.37619 0.0
C2529 C 0.64354 0.91747 0.39048 0.0
C2530 C 0.64108 0.9098 0.35956 0.0
C2531 C 0.62329 0.91787 0.33719 0.0
C2532 C 0.60835 0.9324 0.34525 0.0
C2533 C 0.65691 0.89369 0.35057 0.0
C2534 C 0.67106 0.90133 0.32958 0.0
C2535 C 0.65875 0.87111 0.36294 0.0
C2536 C 0.64408 0.86091 0.38441 0.0
C2537 C 0.61702 0.85562 0.37606 0.0
C2538 C 0.60337 0.84638 0.39663 0.0
C2539 C 0.61655 0.8422 0.42555 0.0
C2540 C 0.64339 0.84715 0.43391 0.0
C2541 C 0.65714 0.85638 0.41342 0.0
H2542 H 0.60595 0.83509 0.44146 0.0
H2543 H 0.74511 0.92849 0.24998 0.0
H2544 H 0.20029 0.73914 0.31885 0.0
H2545 H 0.17568 0.71225 0.34819 0.0
H2546 H 0.22546 0.66522 0.35578 0.0
H2547 H 0.24956 0.6915 0.32583 0.0
H2548 H 0.17906 0.63626 0.34535 0.0
H2549 H 0.22996 0.71062 0.41667 0.0
H2550 H 0.24612 0.75619 0.43455 0.0
H2551 H 0.16877 0.75685 0.42779 0.0
H2552 H 0.15211 0.71131 0.40952 0.0
H2553 H 0.14812 0.60873 0.50009 0.0
H2554 H 0.17148 0.63624 0.47016 0.0
H2555 H 0.109 0.6022 0.38786 0.0
H2556 H 0.08575 0.57444 0.41759 0.0
H2557 H 0.16251 0.67182 0.43666 0.0
H2558 H 0.13233 0.60131 0.32655 0.0
H2559 H 0.12029 0.55558 0.31112 0.0
H2560 H 0.16335 0.54683 0.40079 0.0
H2561 H 0.17592 0.59253 0.41662 0.0
C2562 C 0.20603 0.72309 0.32677 0.0
C2563 C 0.2271 0.71769 0.31997 0.0
C2564 C 0.19196 0.70771 0.34374 0.0
C2565 C 0.19879 0.68671 0.3548 0.0
C2566 C 0.21963 0.68119 0.34768 0.0
C2567 C 0.23353 0.69638 0.33053 0.0
C2568 C 0.18436 0.67039 0.37365 0.0
C2569 C 0.1754 0.64415 0.36523 0.0
C2570 C 0.17976 0.68034 0.40003 0.0
C2571 C 0.18977 0.70762 0.41145 0.0
C2572 C 0.21639 0.72052 0.41884 0.0
C2573 C 0.22563 0.74633 0.42907 0.0
C2574 C 0.20847 0.75942 0.43222 0.0
C2575 C 0.18203 0.74669 0.42529 0.0
C2576 C 0.17268 0.72087 0.41504 0.0
C2577 C 0.13935 0.60702 0.4756 0.0
C2578 C 0.11506 0.58914 0.4613 0.0
C2579 C 0.15272 0.62291 0.45847 0.0
C2580 C 0.14228 0.62128 0.42653 0.0
C2581 C 0.11783 0.60369 0.41231 0.0
C2582 C 0.10445 0.58781 0.42942 0.0
C2583 C 0.15702 0.63776 0.40813 0.0
C2584 C 0.16603 0.66399 0.41665 0.0
C2585 C 0.16213 0.62779 0.38217 0.0
C2586 C 0.15481 0.6003 0.37284 0.0
C2587 C 0.13928 0.58963 0.34294 0.0
C2588 C 0.13236 0.56371 0.33413 0.0
C2589 C 0.14097 0.5483 0.35499 0.0
C2590 C 0.1566 0.55878 0.38469 0.0
C2591 C 0.1636 0.58468 0.3936 0.0
H2592 H 0.13559 0.52825 0.34813 0.0
H2593 H 0.21565 0.77941 0.44008 0.0
H2594 H 0.33429 0.21922 0.25561 0.0
H2595 H 0.36332 0.19369 0.27076 0.0
H2596 H 0.34139 0.1838 0.35385 0.0
H2597 H 0.31459 0.21167 0.34001 0.0
H2598 H 0.38532 0.18304 0.3703 0.0
H2599 H 0.32123 0.13456 0.27852 0.0
H2600 H 0.29521 0.13041 0.22459 0.0
H2601 H 0.36458 0.14996 0.19698 0.0
H2602 H 0.391 0.15429 0.25075 0.0
H2603 H 0.4371 0.07962 0.40333 0.0
H2604 H 0.40898 0.106 0.38871 0.0
H2605 H 0.44135 0.12699 0.31507 0.0
H2606 H 0.46964 0.10075 0.32958 0.0
H2607 H 0.392 0.12129 0.29393 0.0
H2608 H 0.45525 0.16739 0.3882 0.0
H2609 H 0.47955 0.17306 0.443 0.0
H2610 H 0.40841 0.15606 0.46676 0.0
H2611 H 0.38365 0.14996 0.41205 0.0
C2612 C 0.33555 0.21154 0.27708 0.0
C2613 C 0.32163 0.21758 0.29629 0.0
C2614 C 0.35212 0.19639 0.28576 0.0
C2615 C 0.35451 0.18532 0.31332 0.0
C2616 C 0.34047 0.19152 0.33246 0.0
C2617 C 0.32476 0.20752 0.32436 0.0
C2618 C 0.37162 0.16784 0.32246 0.0
C2619 C 0.3862 0.16932 0.35338 0.0
C2620 C 0.37393 0.14969 0.30115 0.0
C2621 C 0.35807 0.14495 0.26864 0.0
C2622 C 0.33089 0.13779 0.26089 0.0
C2623 C 0.31609 0.13548 0.23038 0.0
C2624 C 0.32824 0.14009 0.20741 0.0
C2625 C 0.35519 0.14647 0.2148 0.0
C2626 C 0.37009 0.14876 0.24528 0.0
C2627 C 0.43869 0.08996 0.38419 0.0
C2628 C 0.45632 0.08754 0.36801 0.0
C2629 C 0.4223 0.10532 0.37571 0.0
C2630 C 0.42277 0.11933 0.35077 0.0
C2631 C 0.44008 0.11671 0.33435 0.0
C2632 C 0.45645 0.10134 0.34277 0.0
C2633 C 0.40543 0.13646 0.34169 0.0
C2634 C 0.39087 0.13491 0.31079 0.0
C2635 C 0.40272 0.15415 0.36314 0.0
C2636 C 0.4176 0.158 0.39601 0.0
C2637 C 0.44478 0.16472 0.4051 0.0
C2638 C 0.45863 0.16801 0.43614 0.0
C2639 C 0.44552 0.16483 0.45833 0.0
C2640 C 0.41853 0.15844 0.44953 0.0
C2641 C 0.40458 0.15509 0.41852 0.0
H2642 H 0.45628 0.16737 0.48235 0.0
H2643 H 0.31675 0.1388 0.18391 0.0
H2644 H 0.75363 0.84826 0.74523 0.0
H2645 H 0.72974 0.87338 0.71477 0.0
H2646 H 0.66781 0.8057 0.67038 0.0
H2647 H 0.69306 0.78047 0.69903 0.0
H2648 H 0.67046 0.8332 0.63014 0.0
H2649 H 0.66869 0.85357 0.7331 0.0
H2650 H 0.68723 0.8681 0.78864 0.0
H2651 H 0.73026 0.93939 0.77038 0.0
H2652 H 0.71226 0.9252 0.71481 0.0
H2653 H 0.57766 0.8981 0.57298 0.0
H2654 H 0.60208 0.87222 0.60092 0.0
H2655 H 0.66987 0.9371 0.63242 0.0
H2656 H 0.64571 0.9631 0.60415 0.0
H2657 H 0.66331 0.911 0.67882 0.0
H2658 H 0.66376 0.88996 0.57553 0.0
H2659 H 0.64395 0.87531 0.52019 0.0
H2660 H 0.60098 0.80455 0.53979 0.0
H2661 H 0.62033 0.81888 0.59526 0.0
C2662 C 0.73482 0.83877 0.7291 0.0
C2663 C 0.72507 0.81239 0.72488 0.0
C2664 C 0.72095 0.85321 0.71175 0.0
C2665 C 0.69627 0.84179 0.69067 0.0
C2666 C 0.68662 0.81528 0.68642 0.0
C2667 C 0.70099 0.80078 0.70298 0.0
C2668 C 0.68084 0.85733 0.67277 0.0
C2669 C 0.66862 0.84995 0.6411 0.0
C2670 C 0.67859 0.87971 0.68637 0.0
C2671 C 0.68926 0.88825 0.71981 0.0
C2672 C 0.6822 0.8723 0.74095 0.0
C2673 C 0.69261 0.88048 0.77243 0.0
C2674 C 0.70992 0.90464 0.78299 0.0
C2675 C 0.71685 0.92068 0.76215 0.0
C2676 C 0.70654 0.9126 0.73068 0.0
C2677 C 0.59787 0.90691 0.58539 0.0
C2678 C 0.60956 0.93289 0.586 0.0
C2679 C 0.61187 0.89199 0.60153 0.0
C2680 C 0.63803 0.9025 0.61872 0.0
C2681 C 0.64974 0.9284 0.61946 0.0
C2682 C 0.63578 0.94334 0.60329 0.0
C2683 C 0.65301 0.88675 0.6365 0.0
C2684 C 0.66511 0.89413 0.66807 0.0
C2685 C 0.65486 0.86426 0.6229 0.0
C2686 C 0.64332 0.85559 0.58955 0.0
C2687 C 0.64995 0.87134 0.56804 0.0
C2688 C 0.63883 0.86308 0.53665 0.0
C2689 C 0.62117 0.83904 0.52649 0.0
C2690 C 0.61465 0.82318 0.5477 0.0
C2691 C 0.62571 0.83135 0.57911 0.0
H2692 H 0.61259 0.83268 0.50218 0.0
H2693 H 0.71792 0.91099 0.80731 0.0
H2694 H 0.68879 0.22581 0.42407 0.0
H2695 H 0.67499 0.19187 0.45058 0.0
H2696 H 0.75225 0.18493 0.47833 0.0
H2697 H 0.76599 0.21901 0.44935 0.0
H2698 H 0.72783 0.14793 0.44255 0.0
H2699 H 0.7044 0.17093 0.52629 0.0
H2700 H 0.69086 0.19495 0.56184 0.0
H2701 H 0.61591 0.17926 0.49637 0.0
H2702 H 0.62888 0.15529 0.4603 0.0
H2703 H 0.61416 0.033 0.38348 0.0
H2704 H 0.6564 0.0624 0.4115 0.0
H2705 H 0.62684 0.1245 0.38804 0.0
H2706 H 0.58439 0.0951 0.36143 0.0
H2707 H 0.63923 0.11803 0.45229 0.0
H2708 H 0.67729 0.11593 0.36474 0.0
H2709 H 0.69078 0.09136 0.32948 0.0
H2710 H 0.73772 0.06761 0.40605 0.0
H2711 H 0.72431 0.09192 0.44172 0.0
C2712 C 0.70345 0.2183 0.43725 0.0
C2713 C 0.72801 0.22392 0.43285 0.0
C2714 C 0.69548 0.19854 0.45312 0.0
C2715 C 0.71218 0.18452 0.4654 0.0
C2716 C 0.73861 0.19463 0.46789 0.0
C2717 C 0.74649 0.21415 0.45126 0.0
C2718 C 0.70049 0.15685 0.46357 0.0
C2719 C 0.70881 0.14134 0.44579 0.0
C2720 C 0.67607 0.14703 0.46866 0.0
C2721 C 0.66764 0.16092 0.49062 0.0
C2722 C 0.68501 0.17253 0.51942 0.0
C2723 C 0.67741 0.18618 0.53969 0.0
C2724 C 0.65255 0.1886 0.53138 0.0
C2725 C 0.63515 0.17728 0.50283 0.0
C2726 C 0.64256 0.16346 0.48253 0.0
C2727 C 0.61725 0.05294 0.38245 0.0
C2728 C 0.59607 0.06203 0.3714 0.0
C2729 C 0.64125 0.06968 0.39906 0.0
C2730 C 0.64416 0.09544 0.4029 0.0
C2731 C 0.62453 0.10452 0.38599 0.0
C2732 C 0.60048 0.08779 0.37005 0.0
C2733 C 0.66536 0.11276 0.42766 0.0
C2734 C 0.6587 0.12494 0.45038 0.0
C2735 C 0.69122 0.11952 0.42725 0.0
C2736 C 0.69971 0.10556 0.40581 0.0
C2737 C 0.69044 0.10541 0.374 0.0
C2738 C 0.69807 0.09155 0.35396 0.0
C2739 C 0.71506 0.0779 0.36551 0.0
C2740 C 0.72455 0.07818 0.39714 0.0
C2741 C 0.71698 0.09202 0.41727 0.0
H2742 H 0.7209 0.06713 0.34997 0.0
H2743 H 0.64683 0.19942 0.54696 0.0
H2744 H 0.85874 0.67768 0.38888 0.0
H2745 H 0.89263 0.66134 0.41748 0.0
H2746 H 0.88367 0.68872 0.5025 0.0
H2747 H 0.8503 0.70601 0.47394 0.0
H2748 H 0.93296 0.70228 0.50451 0.0
H2749 H 0.86363 0.62444 0.47609 0.0
H2750 H 0.82668 0.59149 0.4408 0.0
H2751 H 0.87587 0.57812 0.38875 0.0
H2752 H 0.91303 0.61124 0.42349 0.0
H2753 H 1.00694 0.61744 0.57874 0.0
H2754 H 0.97278 0.63762 0.56232 0.0
H2755 H 0.99428 0.65212 0.47975 0.0
H2756 H 0.02897 0.63311 0.49654 0.0
H2757 H 0.93716 0.61606 0.4824 0.0
H2758 H 1.00309 0.69843 0.50386 0.0
H2759 H 0.04083 0.73125 0.53811 0.0
H2760 H 0.99801 0.73535 0.60201 0.0
H2761 H 0.96012 0.70215 0.56828 0.0
C2762 C 0.86393 0.68016 0.41367 0.0
C2763 C 0.85204 0.69329 0.42921 0.0
C2764 C 0.88307 0.67054 0.42998 0.0
C2765 C 0.89042 0.67355 0.46211 0.0
C2766 C 0.87814 0.6861 0.47769 0.0
C2767 C 0.85899 0.6958 0.46136 0.0
C2768 C 0.91227 0.66525 0.4793 0.0
C2769 C 0.9336 0.68326 0.5001 0.0
C2770 C 0.91334 0.64058 0.47311 0.0
C2771 C 0.89107 0.62047 0.4523 0.0
C2772 C 0.86652 0.6146 0.457 0.0
C2773 C 0.84555 0.59586 0.43711 0.0
C2774 C 0.84891 0.58275 0.41251 0.0
C2775 C 0.87328 0.58829 0.40781 0.0
C2776 C 0.89431 0.60702 0.42763 0.0
C2777 C 1.00497 0.62592 0.55775 0.0
C2778 C 0.0206 0.62406 0.539 0.0
C2779 C 0.98544 0.63718 0.54832 0.0
C2780 C 0.98114 0.64612 0.51986 0.0
C2781 C 0.9976 0.64547 0.50192 0.0
C2782 C 0.01746 0.63481 0.51164 0.0
C2783 C 0.95763 0.65318 0.50692 0.0
C2784 C 0.93611 0.63489 0.48706 0.0
C2785 C 0.95641 0.67755 0.51371 0.0
C2786 C 0.979 0.69753 0.53388 0.0
C2787 C 1.00185 0.70609 0.52541 0.0
C2788 C 0.02323 0.72481 0.54466 0.0
C2789 C 0.02188 0.73525 0.57231 0.0
C2790 C 0.99906 0.72714 0.58065 0.0
C2791 C 0.97764 0.70837 0.56148 0.0
H2792 H 0.03849 0.74964 0.58725 0.0
H2793 H 0.83265 0.56826 0.39713 0.0
H2794 H 0.29372 0.80259 0.35297 0.0
H2795 H 0.31881 0.83569 0.39658 0.0
H2796 H 0.38829 0.83991 0.37131 0.0
H2797 H 0.36363 0.807 0.32841 0.0
H2798 H 0.39295 0.83819 0.43602 0.0
H2799 H 0.36723 0.89718 0.35104 0.0
H2800 H 0.32996 0.90414 0.31329 0.0
H2801 H 0.28628 0.89138 0.37801 0.0
H2802 H 0.32317 0.88392 0.41582 0.0
H2803 H 0.49313 0.93202 0.42159 0.0
H2804 H 0.45516 0.89837 0.42268 0.0
H2805 H 0.428 0.95174 0.46529 0.0
H2806 H 0.46587 0.98584 0.46285 0.0
H2807 H 0.3916 0.92471 0.41852 0.0
H2808 H 0.43323 0.89001 0.50955 0.0
H2809 H 0.47164 0.88233 0.54408 0.0
H2810 H 0.48244 0.84335 0.46776 0.0
H2811 H 0.44453 0.85161 0.43292 0.0
C2812 C 0.31437 0.81065 0.35691 0.0
C2813 C 0.32687 0.80238 0.33747 0.0
C2814 C 0.3286 0.82946 0.38173 0.0
C2815 C 0.35535 0.84006 0.38712 0.0
C2816 C 0.36768 0.83168 0.36768 0.0
C2817 C 0.35359 0.813 0.34311 0.0
C2818 C 0.37114 0.86089 0.4117 0.0
C2819 C 0.39236 0.85719 0.43316 0.0
C2820 C 0.36992 0.88551 0.40858 0.0
C2821 C 0.34788 0.89018 0.38618 0.0
C2822 C 0.34966 0.89595 0.35715 0.0
C2823 C 0.32859 0.89985 0.33573 0.0
C2824 C 0.30575 0.89818 0.34325 0.0
C2825 C 0.30396 0.89263 0.37221 0.0
C2826 C 0.32492 0.88853 0.39361 0.0
C2827 C 0.47932 0.93641 0.43181 0.0
C2828 C 0.48249 0.96123 0.4427 0.0
C2829 C 0.45786 0.91711 0.43305 0.0
C2830 C 0.43921 0.92223 0.44543 0.0
C2831 C 0.44243 0.94721 0.45639 0.0
C2832 C 0.46394 0.96663 0.45494 0.0
C2833 C 0.4145 0.90208 0.44136 0.0
C2834 C 0.39163 0.90596 0.42359 0.0
C2835 C 0.41412 0.87753 0.44807 0.0
C2836 C 0.43681 0.87238 0.46867 0.0
C2837 C 0.44435 0.88053 0.50017 0.0
C2838 C 0.46584 0.87585 0.51978 0.0
C2839 C 0.47968 0.8626 0.50807 0.0
C2840 C 0.47186 0.8538 0.47678 0.0
C2841 C 0.45038 0.85849 0.45713 0.0
H2842 H 0.49631 0.85895 0.52326 0.0
H2843 H 0.28945 0.90118 0.32664 0.0
H2844 H 0.22361 0.32039 0.43346 0.0
H2845 H 0.20125 0.3451 0.45525 0.0
H2846 H 0.24901 0.41295 0.4337 0.0
H2847 H 0.2716 0.38842 0.41244 0.0
H2848 H 0.24744 0.41951 0.4901 0.0
H2849 H 0.18539 0.38682 0.39208 0.0
H2850 H 0.15573 0.35478 0.34907 0.0
H2851 H 0.11238 0.3202 0.40829 0.0
H2852 H 0.14199 0.35187 0.45177 0.0
H2853 H 0.17511 0.50175 0.508 0.0
H2854 H 0.19876 0.47608 0.4915 0.0
H2855 H 0.14951 0.41025 0.51497 0.0
H2856 H 0.12482 0.43562 0.52993 0.0
H2857 H 0.15215 0.40191 0.45934 0.0
H2858 H 0.2152 0.44003 0.55717 0.0
H2859 H 0.24391 0.47604 0.59575 0.0
H2860 H 0.2857 0.50386 0.53234 0.0
H2861 H 0.25675 0.46851 0.49297 0.0
C2862 C 0.22918 0.34056 0.43333 0.0
C2863 C 0.24946 0.35262 0.4217 0.0
C2864 C 0.21638 0.35461 0.44561 0.0
C2865 C 0.22346 0.38081 0.44594 0.0
C2866 C 0.24342 0.39277 0.43384 0.0
C2867 C 0.25635 0.37879 0.42185 0.0
C2868 C 0.21085 0.39601 0.46003 0.0
C2869 C 0.2266 0.41582 0.48322 0.0
C2870 C 0.18368 0.39088 0.45127 0.0
C2871 C 0.16612 0.37153 0.42528 0.0
C2872 C 0.16971 0.37222 0.39602 0.0
C2873 C 0.15286 0.35417 0.37153 0.0
C2874 C 0.13224 0.33542 0.37597 0.0
C2875 C 0.1284 0.3347 0.4049 0.0
C2876 C 0.1452 0.3527 0.42947 0.0
C2877 C 0.16975 0.48195 0.51051 0.0
C2878 C 0.14839 0.47081 0.52088 0.0
C2879 C 0.1833 0.46728 0.50102 0.0
C2880 C 0.17612 0.44132 0.50244 0.0
C2881 C 0.15541 0.43029 0.51382 0.0
C2882 C 0.14148 0.44485 0.52265 0.0
C2883 C 0.18872 0.42535 0.48957 0.0
C2884 C 0.17296 0.40541 0.46651 0.0
C2885 C 0.21593 0.43069 0.49804 0.0
C2886 C 0.23368 0.45165 0.52204 0.0
C2887 C 0.23042 0.45388 0.55137 0.0
C2888 C 0.24675 0.47418 0.5734 0.0
C2889 C 0.26667 0.49215 0.56657 0.0
C2890 C 0.27029 0.48991 0.53763 0.0
C2891 C 0.2539 0.46976 0.51544 0.0
H2892 H 0.27929 0.50784 0.58368 0.0
H2893 H 0.11919 0.32148 0.35697 0.0
H2894 H 0.35912 0.15688 0.69531 0.0
H2895 H 0.38459 0.13499 0.67527 0.0
H2896 H 0.38171 0.17912 0.60039 0.0
H2897 H 0.35546 0.20046 0.61965 0.0
H2898 H 0.37472 0.1319 0.57937 0.0
H2899 H 0.43704 0.19087 0.66391 0.0
H2900 H 0.45537 0.21136 0.71747 0.0
H2901 H 0.45947 0.14078 0.74802 0.0
H2902 H 0.44084 0.1198 0.69464 0.0
H2903 H 0.47237 0.09999 0.52834 0.0
H2904 H 0.44679 0.12214 0.54785 0.0
H2905 H 0.45405 0.08232 0.62668 0.0
H2906 H 0.48025 0.06073 0.60767 0.0
H2907 H 0.45868 0.12758 0.64557 0.0
H2908 H 0.39598 0.0682 0.56189 0.0
H2909 H 0.37755 0.04713 0.50858 0.0
H2910 H 0.3736 0.11732 0.47669 0.0
H2911 H 0.39234 0.13889 0.52981 0.0
C2912 C 0.36366 0.16186 0.67443 0.0
C2913 C 0.35516 0.18072 0.65936 0.0
C2914 C 0.37855 0.14943 0.66309 0.0
C2915 C 0.38558 0.15551 0.63641 0.0
C2916 C 0.37679 0.17403 0.62106 0.0
C2917 C 0.36192 0.18647 0.63237 0.0
C2918 C 0.40202 0.14266 0.62448 0.0
C2919 C 0.39323 0.13126 0.59381 0.0
C2920 C 0.426 0.14114 0.64324 0.0
C2921 C 0.43732 0.15373 0.67531 0.0
C2922 C 0.44168 0.17969 0.68207 0.0
C2923 C 0.45215 0.19139 0.71239 0.0
C2924 C 0.45852 0.17737 0.73614 0.0
C2925 C 0.4545 0.15161 0.7296 0.0
C2926 C 0.44401 0.13981 0.69932 0.0
C2927 C 0.46848 0.09589 0.5498 0.0
C2928 C 0.4785 0.0785 0.56636 0.0
C2929 C 0.45366 0.10853 0.56095 0.0
C2930 C 0.44786 0.10376 0.58866 0.0
C2931 C 0.4581 0.08655 0.60532 0.0
C2932 C 0.4732 0.07418 0.5944 0.0
C2933 C 0.43137 0.11669 0.60044 0.0
C2934 C 0.44015 0.12814 0.6311 0.0
C2935 C 0.40731 0.11813 0.58171 0.0
C2936 C 0.39576 0.10519 0.5498 0.0
C2937 C 0.39131 0.07916 0.54349 0.0
C2938 C 0.3808 0.06714 0.51331 0.0
C2939 C 0.37448 0.0809 0.48926 0.0
C2940 C 0.37856 0.10671 0.49535 0.0
C2941 C 0.38909 0.11884 0.52548 0.0
H2942 H 0.36637 0.07156 0.46591 0.0
H2943 H 0.46662 0.18646 0.7596 0.0
H2944 H 0.84335 0.28145 0.72212 0.0
H2945 H 0.87216 0.30574 0.69494 0.0
H2946 H 0.8343 0.36308 0.69118 0.0
H2947 H 0.80572 0.33926 0.71869 0.0
H2948 H 0.85379 0.32962 0.6318 0.0
H2949 H 0.87328 0.39938 0.72152 0.0
H2950 H 0.8822 0.40964 0.77735 0.0
H2951 H 0.93894 0.37022 0.79408 0.0
H2952 H 0.93003 0.35952 0.73831 0.0
H2953 H 0.93025 0.42806 0.57037 0.0
H2954 H 0.89892 0.40167 0.59286 0.0
H2955 H 0.96184 0.39512 0.66734 0.0
H2956 H 0.99289 0.42269 0.64574 0.0
H2957 H 0.92881 0.40155 0.69105 0.0
H2958 H 0.9203 0.34511 0.60308 0.0
H2959 H 0.91283 0.3324 0.54813 0.0
H2960 H 0.83704 0.34138 0.52748 0.0
H2961 H 0.84417 0.35438 0.58228 0.0
C2962 C 0.84106 0.2992 0.71546 0.0
C2963 C 0.82221 0.3084 0.72283 0.0
C2964 C 0.85755 0.31304 0.69985 0.0
C2965 C 0.85551 0.33631 0.69116 0.0
C2966 C 0.8364 0.34529 0.69788 0.0
C2967 C 0.82003 0.33158 0.71363 0.0
C2968 C 0.87385 0.35163 0.67597 0.0
C2969 C 0.8701 0.34551 0.64458 0.0
C2970 C 0.8954 0.37195 0.69267 0.0
C2971 C 0.90088 0.37854 0.72597 0.0
C2972 C 0.88755 0.39283 0.73718 0.0
C2973 C 0.8926 0.39872 0.76876 0.0
C2974 C 0.91109 0.39055 0.78925 0.0
C2975 C 0.92459 0.3765 0.77819 0.0
C2976 C 0.91953 0.3705 0.74663 0.0
C2977 C 0.9373 0.4207 0.59131 0.0
C2978 C 0.96402 0.42734 0.60611 0.0
C2979 C 0.91937 0.40548 0.60421 0.0
C2980 C 0.92778 0.39585 0.63178 0.0
C2981 C 0.9546 0.40221 0.6462 0.0
C2982 C 0.97243 0.41791 0.63371 0.0
C2983 C 0.90889 0.37995 0.6463 0.0
C2984 C 0.91255 0.38582 0.67783 0.0
C2985 C 0.88737 0.35923 0.62958 0.0
C2986 C 0.88285 0.3509 0.59674 0.0
C2987 C 0.90208 0.34445 0.5868 0.0
C2988 C 0.8979 0.33719 0.55568 0.0
C2989 C 0.8745 0.33614 0.53432 0.0
C2990 C 0.85517 0.34222 0.54405 0.0
C2991 C 0.85925 0.34949 0.57513 0.0
H2992 H 0.87133 0.33058 0.51023 0.0
H2993 H 0.91499 0.39513 0.81369 0.0
H2994 H 0.258 0.69696 0.70715 0.0
H2995 H 0.21611 0.66771 0.67728 0.0
H2996 H 0.19075 0.72993 0.64377 0.0
H2997 H 0.23315 0.75924 0.67256 0.0
H2998 H 0.16609 0.67871 0.68763 0.0
H2999 H 0.17273 0.7116 0.59014 0.0
H3000 H 0.19728 0.72647 0.55377 0.0
H3001 H 0.21784 0.65815 0.5517 0.0
H3002 H 0.19376 0.64312 0.5885 0.0
H3003 H 0.05561 0.57134 0.61439 0.0
H3004 H 0.08282 0.61549 0.62724 0.0
H3005 H 0.14418 0.59464 0.60319 0.0
H3006 H 0.11648 0.55108 0.58901 0.0
H3007 H 0.14084 0.63564 0.58153 0.0
H3008 H 0.14064 0.6045 0.68108 0.0
H3009 H 0.11721 0.58646 0.71734 0.0
H3010 H 0.08659 0.64869 0.71722 0.0
H3011 H 0.10971 0.66697 0.68077 0.0
C3012 C 0.24375 0.70425 0.69262 0.0
C3013 C 0.24863 0.73014 0.69193 0.0
C3014 C 0.21991 0.68765 0.67574 0.0
C3015 C 0.20057 0.69678 0.65832 0.0
C3016 C 0.20567 0.7226 0.65667 0.0
C3017 C 0.22982 0.73923 0.67307 0.0
C3018 C 0.1746 0.679 0.64442 0.0
C3019 C 0.15998 0.66968 0.66414 0.0
C3020 C 0.16699 0.66731 0.61398 0.0
C3021 C 0.18185 0.67647 0.5924 0.0
C3022 C 0.18284 0.69996 0.58229 0.0
C3023 C 0.19657 0.70836 0.5615 0.0
C3024 C 0.20921 0.69332 0.55053 0.0
C3025 C 0.20812 0.66983 0.56029 0.0
C3026 C 0.19445 0.66137 0.58111 0.0
C3027 C 0.07508 0.57637 0.61233 0.0
C3028 C 0.08434 0.55818 0.60102 0.0
C3029 C 0.09049 0.60148 0.61946 0.0
C3030 C 0.11558 0.60834 0.61631 0.0
C3031 C 0.12479 0.58987 0.60545 0.0
C3032 C 0.10917 0.56503 0.59759 0.0
C3033 C 0.13307 0.6344 0.62525 0.0
C3034 C 0.1461 0.64524 0.60462 0.0
C3035 C 0.13943 0.6473 0.65504 0.0
C3036 C 0.12658 0.6369 0.67797 0.0
C3037 C 0.1289 0.6143 0.68881 0.0
C3038 C 0.11567 0.60404 0.70935 0.0
C3039 C 0.10026 0.61633 0.71936 0.0
C3040 C 0.09842 0.63913 0.7093 0.0
C3041 C 0.1116 0.64946 0.68874 0.0
H3042 H 0.08967 0.60815 0.73483 0.0
H3043 H 0.21977 0.69982 0.53438 0.0
loop_
_geom_bond_atom_site_label_1
_geom_bond_atom_site_label_2
_geom_bond_distance
_geom_bond_site_symmetry_2
_ccdc_geom_bond_type
C0 Eu1 2.835 . S
C0 C2 1.500 . S
C0 O20 1.257 . S
C0 O21 1.260 . S
Eu1 C0 2.835 . S
Eu1 O20 2.473 . S
Eu1 O21 2.480 . S
Eu1 O22 2.430 . S
Eu1 O23 2.670 . S
Eu1 O24 2.394 . S
Eu1 O29 2.355 . S
Eu1 O31 2.374 . S
C2 C0 1.500 . S
C2 C3 1.377 . S
C2 C7 1.377 . S
C3 C2 1.377 . S
C3 C4 1.395 . S
C3 H32 0.931 . S
C4 C3 1.395 . S
C4 C5 1.383 . S
C4 H33 0.931 . S
C5 C4 1.383 . S
C5 C6 1.394 . S
C6 C5 1.394 . S
C6 C7 1.378 . S
C6 H34 0.931 . S
C7 C2 1.377 . S
C7 C6 1.378 . S
C7 H35 0.931 . S
C8 O22 1.259 . S
C8 O23 1.270 . S
C9 O24 1.251 . S
C9 O25 1.251 . S
C10 Eu11 2.835 . S
C10 C12 1.500 . S
C10 O26 1.257 . S
C10 O27 1.260 . S
Eu11 C10 2.835 . S
Eu11 O23 2.355 . S
Eu11 O25 2.374 . S
Eu11 O26 2.473 . S
Eu11 O27 2.480 . S
Eu11 O28 2.430 . S
Eu11 O29 2.670 . S
Eu11 O30 2.394 . S
C12 C10 1.500 . S
C12 C13 1.377 . S
C12 C17 1.377 . S
C13 C12 1.377 . S
C13 C14 1.395 . S
C13 H36 0.931 . S
C14 C13 1.395 . S
C14 C15 1.383 . S
C14 H37 0.931 . S
C15 C14 1.383 . S
C15 C16 1.394 . S
C16 C15 1.394 . S
C16 C17 1.378 . S
C16 H38 0.931 . S
C17 C12 1.377 . S
C17 C16 1.378 . S
C17 H39 0.931 . S
C18 O28 1.259 . S
C18 O29 1.270 . S
C19 O30 1.251 . S
C19 O31 1.251 . S
O20 C0 1.257 . S
O20 Eu1 2.473 . S
O21 C0 1.260 . S
O21 Eu1 2.480 . S
O22 Eu1 2.430 . S
O22 C8 1.259 . S
O23 Eu1 2.670 . S
O23 C8 1.270 . S
O23 Eu11 2.355 . S
O24 Eu1 2.394 . S
O24 C9 1.251 . S
O25 C9 1.251 . S
O25 Eu11 2.374 . S
O26 C10 1.257 . S
O26 Eu11 2.473 . S
O27 C10 1.260 . S
O27 Eu11 2.480 . S
O28 Eu11 2.430 . S
O28 C18 1.259 . S
O29 Eu1 2.355 . S
O29 Eu11 2.670 . S
O29 C18 1.270 . S
O30 Eu11 2.394 . S
O30 C19 1.251 . S
O31 Eu1 2.374 . S
O31 C19 1.251 . S
H32 C3 0.931 . S
H33 C4 0.931 . S
H34 C6 0.931 . S
H35 C7 0.931 . S
H36 C13 0.931 . S
H37 C14 0.931 . S
H38 C16 0.931 . S
H39 C17 0.931 . S
C40 Eu41 2.835 . S
C40 C42 1.500 . S
C40 O60 1.257 . S
C40 O61 1.260 . S
Eu41 C40 2.835 . S
Eu41 O60 2.473 . S
Eu41 O61 2.480 . S
Eu41 O62 2.430 . S
Eu41 O63 2.670 . S
Eu41 O64 2.394 . S
Eu41 O69 2.355 . S
Eu41 O71 2.374 . S
C42 C40 1.500 . S
C42 C43 1.377 . S
C42 C47 1.377 . S
C43 C42 1.377 . S
C43 C44 1.395 . S
C43 H72 0.931 . S
C44 C43 1.395 . S
C44 C45 1.383 . S
C44 H73 0.931 . S
C45 C44 1.383 . S
C45 C46 1.394 . S
C46 C45 1.394 . S
C46 C47 1.378 . S
C46 H74 0.931 . S
C47 C42 1.377 . S
C47 C46 1.378 . S
C47 H75 0.931 . S
C48 O62 1.259 . S
C48 O63 1.270 . S
C49 O64 1.251 . S
C49 O65 1.251 . S
C50 Eu51 2.835 . S
C50 C52 1.500 . S
C50 O66 1.257 . S
C50 O67 1.260 . S
Eu51 C50 2.835 . S
Eu51 O63 2.355 . S
Eu51 O65 2.374 . S
Eu51 O66 2.473 . S
Eu51 O67 2.480 . S
Eu51 O68 2.430 . S
Eu51 O69 2.670 . S
Eu51 O70 2.394 . S
C52 C50 1.500 . S
C52 C53 1.377 . S
C52 C57 1.377 . S
C53 C52 1.377 . S
C53 C54 1.395 . S
C53 H76 0.931 . S
C54 C53 1.395 . S
C54 C55 1.383 . S
C54 H77 0.931 . S
C55 C54 1.383 . S
C55 C56 1.394 . S
C56 C55 1.394 . S
C56 C57 1.378 . S
C56 H78 0.931 . S
C57 C52 1.377 . S
C57 C56 1.378 . S
C57 H79 0.931 . S
C58 O68 1.259 . S
C58 O69 1.270 . S
C59 O70 1.251 . S
C59 O71 1.251 . S
O60 C40 1.257 . S
O60 Eu41 2.473 . S
O61 C40 1.260 . S
O61 Eu41 2.480 . S
O62 Eu41 2.430 . S
O62 C48 1.259 . S
O63 Eu41 2.670 . S
O63 C48 1.270 . S
O63 Eu51 2.355 . S
O64 Eu41 2.394 . S
O64 C49 1.251 . S
O65 C49 1.251 . S
O65 Eu51 2.374 . S
O66 C50 1.257 . S
O66 Eu51 2.473 . S
O67 C50 1.260 . S
O67 Eu51 2.480 . S
O68 Eu51 2.430 . S
O68 C58 1.259 . S
O69 Eu41 2.355 . S
O69 Eu51 2.670 . S
O69 C58 1.270 . S
O70 Eu51 2.394 . S
O70 C59 1.251 . S
O71 Eu41 2.374 . S
O71 C59 1.251 . S
H72 C43 0.931 . S
H73 C44 0.931 . S
H74 C46 0.931 . S
H75 C47 0.931 . S
H76 C53 0.931 . S
H77 C54 0.931 . S
H78 C56 0.931 . S
H79 C57 0.931 . S
C80 Eu81 2.835 . S
C80 C82 1.500 . S
C80 O100 1.257 . S
C80 O101 1.260 . S
Eu81 C80 2.835 . S
Eu81 O100 2.473 . S
Eu81 O101 2.480 . S
Eu81 O102 2.430 . S
Eu81 O103 2.670 . S
Eu81 O104 2.394 . S
Eu81 O109 2.355 . S
Eu81 O111 2.374 . S
C82 C80 1.500 . S
C82 C83 1.377 . S
C82 C87 1.377 . S
C83 C82 1.377 . S
C83 C84 1.395 . S
C83 H112 0.931 . S
C84 C83 1.395 . S
C84 C85 1.383 . S
C84 H113 0.931 . S
C85 C84 1.383 . S
C85 C86 1.394 . S
C86 C85 1.394 . S
C86 C87 1.378 . S
C86 H114 0.931 . S
C87 C82 1.377 . S
C87 C86 1.378 . S
C87 H115 0.931 . S
C88 O102 1.259 . S
C88 O103 1.270 . S
C89 O104 1.251 . S
C89 O105 1.251 . S
C90 Eu91 2.835 . S
C90 C92 1.500 . S
C90 O106 1.257 . S
C90 O107 1.260 . S
Eu91 C90 2.835 . S
Eu91 O103 2.355 . S
Eu91 O105 2.374 . S
Eu91 O106 2.473 . S
Eu91 O107 2.480 . S
Eu91 O108 2.430 . S
Eu91 O109 2.670 . S
Eu91 O110 2.394 . S
C92 C90 1.500 . S
C92 C93 1.377 . S
C92 C97 1.377 . S
C93 C92 1.377 . S
C93 C94 1.395 . S
C93 H116 0.931 . S
C94 C93 1.395 . S
C94 C95 1.383 . S
C94 H117 0.931 . S
C95 C94 1.383 . S
C95 C96 1.394 . S
C96 C95 1.394 . S
C96 C97 1.378 . S
C96 H118 0.931 . S
C97 C92 1.377 . S
C97 C96 1.378 . S
C97 H119 0.931 . S
C98 O108 1.259 . S
C98 O109 1.270 . S
C99 O110 1.251 . S
C99 O111 1.251 . S
O100 C80 1.257 . S
O100 Eu81 2.473 . S
O101 C80 1.260 . S
O101 Eu81 2.480 . S
O102 Eu81 2.430 . S
O102 C88 1.259 . S
O103 Eu81 2.670 . S
O103 C88 1.270 . S
O103 Eu91 2.355 . S
O104 Eu81 2.394 . S
O104 C89 1.251 . S
O105 C89 1.251 . S
O105 Eu91 2.374 . S
O106 C90 1.257 . S
O106 Eu91 2.473 . S
O107 C90 1.260 . S
O107 Eu91 2.480 . S
O108 Eu91 2.430 . S
O108 C98 1.259 . S
O109 Eu81 2.355 . S
O109 Eu91 2.670 . S
O109 C98 1.270 . S
O110 Eu91 2.394 . S
O110 C99 1.251 . S
O111 Eu81 2.374 . S
O111 C99 1.251 . S
H112 C83 0.931 . S
H113 C84 0.931 . S
H114 C86 0.931 . S
H115 C87 0.931 . S
H116 C93 0.931 . S
H117 C94 0.931 . S
H118 C96 0.931 . S
H119 C97 0.931 . S
C120 Eu121 2.835 . S
C120 C122 1.500 . S
C120 O140 1.257 . S
C120 O141 1.260 . S
Eu121 C120 2.835 . S
Eu121 O140 2.473 . S
Eu121 O141 2.480 . S
Eu121 O142 2.430 . S
Eu121 O143 2.670 . S
Eu121 O144 2.394 . S
Eu121 O149 2.355 . S
Eu121 O151 2.374 . S
C122 C120 1.500 . S
C122 C123 1.377 . S
C122 C127 1.377 . S
C123 C122 1.377 . S
C123 C124 1.395 . S
C123 H152 0.931 . S
C124 C123 1.395 . S
C124 C125 1.383 . S
C124 H153 0.931 . S
C125 C124 1.383 . S
C125 C126 1.394 . S
C126 C125 1.394 . S
C126 C127 1.378 . S
C126 H154 0.931 . S
C127 C122 1.377 . S
C127 C126 1.378 . S
C127 H155 0.931 . S
C128 O142 1.259 . S
C128 O143 1.270 . S
C129 O144 1.251 . S
C129 O145 1.251 . S
C130 Eu131 2.835 . S
C130 C132 1.500 . S
C130 O146 1.257 . S
C130 O147 1.260 . S
Eu131 C130 2.835 . S
Eu131 O143 2.355 . S
Eu131 O145 2.374 . S
Eu131 O146 2.473 . S
Eu131 O147 2.480 . S
Eu131 O148 2.430 . S
Eu131 O149 2.670 . S
Eu131 O150 2.394 . S
C132 C130 1.500 . S
C132 C133 1.377 . S
C132 C137 1.377 . S
C133 C132 1.377 . S
C133 C134 1.395 . S
C133 H156 0.931 . S
C134 C133 1.395 . S
C134 C135 1.383 . S
C134 H157 0.931 . S
C135 C134 1.383 . S
C135 C136 1.394 . S
C136 C135 1.394 . S
C136 C137 1.378 . S
C136 H158 0.931 . S
C137 C132 1.377 . S
C137 C136 1.378 . S
C137 H159 0.931 . S
C138 O148 1.259 . S
C138 O149 1.270 . S
C139 O150 1.251 . S
C139 O151 1.251 . S
O140 C120 1.257 . S
O140 Eu121 2.473 . S
O141 C120 1.260 . S
O141 Eu121 2.480 . S
O142 Eu121 2.430 . S
O142 C128 1.259 . S
O143 Eu121 2.670 . S
O143 C128 1.270 . S
O143 Eu131 2.355 . S
O144 Eu121 2.394 . S
O144 C129 1.251 . S
O145 C129 1.251 . S
O145 Eu131 2.374 . S
O146 C130 1.257 . S
O146 Eu131 2.473 . S
O147 C130 1.260 . S
O147 Eu131 2.480 . S
O148 Eu131 2.430 . S
O148 C138 1.259 . S
O149 Eu121 2.355 . S
O149 Eu131 2.670 . S
O149 C138 1.270 . S
O150 Eu131 2.394 . S
O150 C139 1.251 . S
O151 Eu121 2.374 . S
O151 C139 1.251 . S
H152 C123 0.931 . S
H153 C124 0.931 . S
H154 C126 0.931 . S
H155 C127 0.931 . S
H156 C133 0.931 . S
H157 C134 0.931 . S
H158 C136 0.931 . S
H159 C137 0.931 . S
C160 Eu161 2.835 . S
C160 C162 1.500 . S
C160 O180 1.257 . S
C160 O181 1.260 . S
Eu161 C160 2.835 . S
Eu161 O180 2.473 . S
Eu161 O181 2.480 . S
Eu161 O182 2.430 . S
Eu161 O183 2.670 . S
Eu161 O184 2.394 . S
Eu161 O189 2.355 . S
Eu161 O191 2.374 . S
C162 C160 1.500 . S
C162 C163 1.377 . S
C162 C167 1.377 . S
C163 C162 1.377 . S
C163 C164 1.395 . S
C163 H192 0.931 . S
C164 C163 1.395 . S
C164 C165 1.383 . S
C164 H193 0.931 . S
C165 C164 1.383 . S
C165 C166 1.394 . S
C166 C165 1.394 . S
C166 C167 1.378 . S
C166 H194 0.931 . S
C167 C162 1.377 . S
C167 C166 1.378 . S
C167 H195 0.931 . S
C168 O182 1.259 . S
C168 O183 1.270 . S
C169 O184 1.251 . S
C169 O185 1.251 . S
C170 Eu171 2.835 . S
C170 C172 1.500 . S
C170 O186 1.257 . S
C170 O187 1.260 . S
Eu171 C170 2.835 . S
Eu171 O183 2.355 . S
Eu171 O185 2.374 . S
Eu171 O186 2.473 . S
Eu171 O187 2.480 . S
Eu171 O188 2.430 . S
Eu171 O189 2.670 . S
Eu171 O190 2.394 . S
C172 C170 1.500 . S
C172 C173 1.377 . S
C172 C177 1.377 . S
C173 C172 1.377 . S
C173 C174 1.395 . S
C173 H196 0.931 . S
C174 C173 1.395 . S
C174 C175 1.383 . S
C174 H197 0.931 . S
C175 C174 1.383 . S
C175 C176 1.394 . S
C176 C175 1.394 . S
C176 C177 1.378 . S
C176 H198 0.931 . S
C177 C172 1.377 . S
C177 C176 1.378 . S
C177 H199 0.931 . S
C178 O188 1.259 . S
C178 O189 1.270 . S
C179 O190 1.251 . S
C179 O191 1.251 . S
O180 C160 1.257 . S
O180 Eu161 2.473 . S
O181 C160 1.260 . S
O181 Eu161 2.480 . S
O182 Eu161 2.430 . S
O182 C168 1.259 . S
O183 Eu161 2.670 . S
O183 C168 1.270 . S
O183 Eu171 2.355 . S
O184 Eu161 2.394 . S
O184 C169 1.251 . S
O185 C169 1.251 . S
O185 Eu171 2.374 . S
O186 C170 1.257 . S
O186 Eu171 2.473 . S
O187 C170 1.260 . S
O187 Eu171 2.480 . S
O188 Eu171 2.430 . S
O188 C178 1.259 . S
O189 Eu161 2.355 . S
O189 Eu171 2.670 . S
O189 C178 1.270 . S
O190 Eu171 2.394 . S
O190 C179 1.251 . S
O191 Eu161 2.374 . S
O191 C179 1.251 . S
H192 C163 0.931 . S
H193 C164 0.931 . S
H194 C166 0.931 . S
H195 C167 0.931 . S
H196 C173 0.931 . S
H197 C174 0.931 . S
H198 C176 0.931 . S
H199 C177 0.931 . S
C200 Eu201 2.835 . S
C200 C202 1.500 . S
C200 O220 1.257 . S
C200 O221 1.260 . S
Eu201 C200 2.835 . S
Eu201 O220 2.473 . S
Eu201 O221 2.480 . S
Eu201 O222 2.430 . S
Eu201 O223 2.670 . S
Eu201 O224 2.394 . S
Eu201 O229 2.355 . S
Eu201 O231 2.374 . S
C202 C200 1.500 . S
C202 C203 1.377 . S
C202 C207 1.377 . S
C203 C202 1.377 . S
C203 C204 1.395 . S
C203 H232 0.931 . S
C204 C203 1.395 . S
C204 C205 1.383 . S
C204 H233 0.931 . S
C205 C204 1.383 . S
C205 C206 1.394 . S
C206 C205 1.394 . S
C206 C207 1.378 . S
C206 H234 0.931 . S
C207 C202 1.377 . S
C207 C206 1.378 . S
C207 H235 0.931 . S
C208 O222 1.259 . S
C208 O223 1.270 . S
C209 O224 1.251 . S
C209 O225 1.251 . S
C210 Eu211 2.835 . S
C210 C212 1.500 . S
C210 O226 1.257 . S
C210 O227 1.260 . S
Eu211 C210 2.835 . S
Eu211 O223 2.355 . S
Eu211 O225 2.374 . S
Eu211 O226 2.473 . S
Eu211 O227 2.480 . S
Eu211 O228 2.430 . S
Eu211 O229 2.670 . S
Eu211 O230 2.394 . S
C212 C210 1.500 . S
C212 C213 1.377 . S
C212 C217 1.377 . S
C213 C212 1.377 . S
C213 C214 1.395 . S
C213 H236 0.931 . S
C214 C213 1.395 . S
C214 C215 1.383 . S
C214 H237 0.931 . S
C215 C214 1.383 . S
C215 C216 1.394 . S
C216 C215 1.394 . S
C216 C217 1.378 . S
C216 H238 0.931 . S
C217 C212 1.377 . S
C217 C216 1.378 . S
C217 H239 0.931 . S
C218 O228 1.259 . S
C218 O229 1.270 . S
C219 O230 1.251 . S
C219 O231 1.251 . S
O220 C200 1.257 . S
O220 Eu201 2.473 . S
O221 C200 1.260 . S
O221 Eu201 2.480 . S
O222 Eu201 2.430 . S
O222 C208 1.259 . S
O223 Eu201 2.670 . S
O223 C208 1.270 . S
O223 Eu211 2.355 . S
O224 Eu201 2.394 . S
O224 C209 1.251 . S
O225 C209 1.251 . S
O225 Eu211 2.374 . S
O226 C210 1.257 . S
O226 Eu211 2.473 . S
O227 C210 1.260 . S
O227 Eu211 2.480 . S
O228 Eu211 2.430 . S
O228 C218 1.259 . S
O229 Eu201 2.355 . S
O229 Eu211 2.670 . S
O229 C218 1.270 . S
O230 Eu211 2.394 . S
O230 C219 1.251 . S
O231 Eu201 2.374 . S
O231 C219 1.251 . S
H232 C203 0.931 . S
H233 C204 0.931 . S
H234 C206 0.931 . S
H235 C207 0.931 . S
H236 C213 0.931 . S
H237 C214 0.931 . S
H238 C216 0.931 . S
H239 C217 0.931 . S
C240 Eu241 2.835 . S
C240 C242 1.500 . S
C240 O260 1.257 . S
C240 O261 1.260 . S
Eu241 C240 2.835 . S
Eu241 O260 2.473 . S
Eu241 O261 2.480 . S
Eu241 O262 2.430 . S
Eu241 O263 2.670 . S
Eu241 O264 2.394 . S
Eu241 O269 2.355 . S
Eu241 O271 2.374 . S
C242 C240 1.500 . S
C242 C243 1.377 . S
C242 C247 1.377 . S
C243 C242 1.377 . S
C243 C244 1.395 . S
C243 H272 0.931 . S
C244 C243 1.395 . S
C244 C245 1.383 . S
C244 H273 0.931 . S
C245 C244 1.383 . S
C245 C246 1.394 . S
C246 C245 1.394 . S
C246 C247 1.378 . S
C246 H274 0.931 . S
C247 C242 1.377 . S
C247 C246 1.378 . S
C247 H275 0.931 . S
C248 O262 1.259 . S
C248 O263 1.270 . S
C249 O264 1.251 . S
C249 O265 1.251 . S
C250 Eu251 2.835 . S
C250 C252 1.500 . S
C250 O266 1.257 . S
C250 O267 1.260 . S
Eu251 C250 2.835 . S
Eu251 O263 2.355 . S
Eu251 O265 2.374 . S
Eu251 O266 2.473 . S
Eu251 O267 2.480 . S
Eu251 O268 2.430 . S
Eu251 O269 2.670 . S
Eu251 O270 2.394 . S
C252 C250 1.500 . S
C252 C253 1.377 . S
C252 C257 1.377 . S
C253 C252 1.377 . S
C253 C254 1.395 . S
C253 H276 0.931 . S
C254 C253 1.395 . S
C254 C255 1.383 . S
C254 H277 0.931 . S
C255 C254 1.383 . S
C255 C256 1.394 . S
C256 C255 1.394 . S
C256 C257 1.378 . S
C256 H278 0.931 . S
C257 C252 1.377 . S
C257 C256 1.378 . S
C257 H279 0.931 . S
C258 O268 1.259 . S
C258 O269 1.270 . S
C259 O270 1.251 . S
C259 O271 1.251 . S
O260 C240 1.257 . S
O260 Eu241 2.473 . S
O261 C240 1.260 . S
O261 Eu241 2.480 . S
O262 Eu241 2.430 . S
O262 C248 1.259 . S
O263 Eu241 2.670 . S
O263 C248 1.270 . S
O263 Eu251 2.355 . S
O264 Eu241 2.394 . S
O264 C249 1.251 . S
O265 C249 1.251 . S
O265 Eu251 2.374 . S
O266 C250 1.257 . S
O266 Eu251 2.473 . S
O267 C250 1.260 . S
O267 Eu251 2.480 . S
O268 Eu251 2.430 . S
O268 C258 1.259 . S
O269 Eu241 2.355 . S
O269 Eu251 2.670 . S
O269 C258 1.270 . S
O270 Eu251 2.394 . S
O270 C259 1.251 . S
O271 Eu241 2.374 . S
O271 C259 1.251 . S
H272 C243 0.931 . S
H273 C244 0.931 . S
H274 C246 0.931 . S
H275 C247 0.931 . S
H276 C253 0.931 . S
H277 C254 0.931 . S
H278 C256 0.931 . S
H279 C257 0.931 . S
C280 Eu281 2.835 . S
C280 C282 1.500 . S
C280 O300 1.257 . S
C280 O301 1.260 . S
Eu281 C280 2.835 . S
Eu281 O300 2.473 . S
Eu281 O301 2.480 . S
Eu281 O302 2.430 . S
Eu281 O303 2.670 . S
Eu281 O304 2.394 . S
Eu281 O309 2.355 . S
Eu281 O311 2.374 . S
C282 C280 1.500 . S
C282 C283 1.377 . S
C282 C287 1.377 . S
C283 C282 1.377 . S
C283 C284 1.395 . S
C283 H312 0.931 . S
C284 C283 1.395 . S
C284 C285 1.383 . S
C284 H313 0.931 . S
C285 C284 1.383 . S
C285 C286 1.394 . S
C286 C285 1.394 . S
C286 C287 1.378 . S
C286 H314 0.931 . S
C287 C282 1.377 . S
C287 C286 1.378 . S
C287 H315 0.931 . S
C288 O302 1.259 . S
C288 O303 1.270 . S
C289 O304 1.251 . S
C289 O305 1.251 . S
C290 Eu291 2.835 . S
C290 C292 1.500 . S
C290 O306 1.257 . S
C290 O307 1.260 . S
Eu291 C290 2.835 . S
Eu291 O303 2.355 . S
Eu291 O305 2.374 . S
Eu291 O306 2.473 . S
Eu291 O307 2.480 . S
Eu291 O308 2.430 . S
Eu291 O309 2.670 . S
Eu291 O310 2.394 . S
C292 C290 1.500 . S
C292 C293 1.377 . S
C292 C297 1.377 . S
C293 C292 1.377 . S
C293 C294 1.395 . S
C293 H316 0.931 . S
C294 C293 1.395 . S
C294 C295 1.383 . S
C294 H317 0.931 . S
C295 C294 1.383 . S
C295 C296 1.394 . S
C296 C295 1.394 . S
C296 C297 1.378 . S
C296 H318 0.931 . S
C297 C292 1.377 . S
C297 C296 1.378 . S
C297 H319 0.931 . S
C298 O308 1.259 . S
C298 O309 1.270 . S
C299 O310 1.251 . S
C299 O311 1.251 . S
O300 C280 1.257 . S
O300 Eu281 2.473 . S
O301 C280 1.260 . S
O301 Eu281 2.480 . S
O302 Eu281 2.430 . S
O302 C288 1.259 . S
O303 Eu281 2.670 . S
O303 C288 1.270 . S
O303 Eu291 2.355 . S
O304 Eu281 2.394 . S
O304 C289 1.251 . S
O305 C289 1.251 . S
O305 Eu291 2.374 . S
O306 C290 1.257 . S
O306 Eu291 2.473 . S
O307 C290 1.260 . S
O307 Eu291 2.480 . S
O308 Eu291 2.430 . S
O308 C298 1.259 . S
O309 Eu281 2.355 . S
O309 Eu291 2.670 . S
O309 C298 1.270 . S
O310 Eu291 2.394 . S
O310 C299 1.251 . S
O311 Eu281 2.374 . S
O311 C299 1.251 . S
H312 C283 0.931 . S
H313 C284 0.931 . S
H314 C286 0.931 . S
H315 C287 0.931 . S
H316 C293 0.931 . S
H317 C294 0.931 . S
H318 C296 0.931 . S
H319 C297 0.931 . S
Cd320 N323 2.334 1_545 S
Cd320 N349 2.304 1_455 S
Cd320 O356 2.268 1_445 S
Cd320 O359 2.273 . S
Cd320 O360 2.417 1_445 S
Cd320 O361 2.330 1_445 S
Cd321 N336 2.324 . S
Cd321 N340 2.334 . S
Cd321 O357 2.273 1_445 S
Cd321 O358 2.268 . S
Cd321 O362 2.417 . S
Cd321 O363 2.330 . S
C322 N323 1.332 . S
C322 C326 1.381 . S
C322 H328 0.962 . S
N323 Cd320 2.334 1_565 S
N323 C322 1.332 . S
N323 C327 1.328 . S
C324 C325 1.396 . S
C324 C327 1.378 . S
C324 H366 0.931 . S
C325 C324 1.396 . S
C325 C326 1.382 . S
C326 C322 1.381 . S
C326 C325 1.382 . S
C326 H367 0.930 . S
C327 N323 1.328 . S
C327 C324 1.378 . S
C327 H329 0.930 . S
H328 C322 0.962 . S
H329 C327 0.930 . S
C330 O356 1.238 . S
C330 O357 1.253 . S
C331 C332 1.379 . S
C331 N336 1.323 1_655 S
C331 H337 0.929 . S
C332 C331 1.379 . S
C332 C333 1.380 . S
C332 H368 0.929 . S
C333 C332 1.380 . S
C333 C334 1.399 . S
C334 C333 1.399 . S
C334 C335 1.376 1_655 S
C334 H369 0.931 . S
C335 C334 1.376 1_455 S
C335 N336 1.333 . S
C335 H338 0.930 . S
N336 Cd321 2.324 . S
N336 C331 1.323 1_455 S
N336 C335 1.333 . S
H337 C331 0.929 . S
H338 C335 0.930 . S
C339 N340 1.332 1_565 S
C339 C343 1.381 . S
C339 H345 0.931 . S
N340 Cd321 2.334 . S
N340 C339 1.332 1_545 S
N340 C344 1.328 . S
C341 C342 1.396 . S
C341 C344 1.378 1_565 S
C341 H370 0.928 . S
C342 C341 1.396 . S
C342 C343 1.382 . S
C343 C339 1.381 . S
C343 C342 1.382 . S
C343 H371 0.930 . S
C344 N340 1.328 . S
C344 C341 1.378 1_545 S
C344 H346 0.930 . S
H345 C339 0.931 . S
H346 C344 0.930 . S
C347 O358 1.238 . S
C347 O359 1.253 . S
C348 O360 1.239 . S
C348 O361 1.230 . S
N349 Cd320 2.304 1_655 S
N349 C350 1.337 . S
N349 C354 1.338 . S
C350 N349 1.337 . S
C350 C351 1.379 . S
C350 H364 0.929 . S
C351 C350 1.379 . S
C351 C352 1.380 . S
C351 H372 0.929 . S
C352 C351 1.380 . S
C352 C353 1.399 . S
C353 C352 1.399 . S
C353 C354 1.376 . S
C353 H373 0.931 . S
C354 N349 1.338 . S
C354 C353 1.376 . S
C354 H365 0.930 . S
C355 O362 1.239 . S
C355 O363 1.230 . S
O356 Cd320 2.268 1_665 S
O356 C330 1.238 . S
O357 Cd321 2.273 1_665 S
O357 C330 1.253 . S
O358 Cd321 2.268 . S
O358 C347 1.238 . S
O359 Cd320 2.273 . S
O359 C347 1.253 . S
O360 Cd320 2.417 1_665 S
O360 C348 1.239 . S
O361 Cd320 2.330 1_665 S
O361 C348 1.230 . S
O362 Cd321 2.417 . S
O362 C355 1.239 . S
O363 Cd321 2.330 . S
O363 C355 1.230 . S
H364 C350 0.929 . S
H365 C354 0.930 . S
H366 C324 0.931 . S
H367 C326 0.930 . S
H368 C332 0.929 . S
H369 C334 0.931 . S
H370 C341 0.928 . S
H371 C343 0.930 . S
H372 C351 0.929 . S
H373 C353 0.931 . S
Cd374 N377 2.334 1_545 S
Cd374 N403 2.304 . S
Cd374 O410 2.268 1_544 S
Cd374 O413 2.273 . S
Cd374 O414 2.417 1_545 S
Cd374 O415 2.330 . S
Cd375 N390 2.304 . S
Cd375 N394 2.334 . S
Cd375 O411 2.273 . S
Cd375 O412 2.268 1_556 S
Cd375 O416 2.417 . S
Cd375 O417 2.330 . S
C376 N377 1.332 . S
C376 C380 1.381 . S
C376 H382 0.931 1_565 S
N377 Cd374 2.334 1_565 S
N377 C376 1.332 . S
N377 C381 1.328 . S
C378 C379 1.396 . S
C378 C381 1.378 . S
C378 H420 0.909 1_554 S
C379 C378 1.396 . S
C379 C380 1.382 . S
C380 C376 1.381 . S
C380 C379 1.382 . S
C380 H421 0.930 . S
C381 N377 1.328 . S
C381 C378 1.378 . S
C381 H383 0.930 1_554 S
H382 C376 0.931 1_545 S
H383 C381 0.930 1_556 S
C384 O410 1.238 . S
C384 O411 1.253 1_565 S
C385 C386 1.379 . S
C385 N390 1.337 . S
C385 H391 0.929 . S
C386 C385 1.379 . S
C386 C387 1.380 . S
C386 H422 0.929 . S
C387 C386 1.380 . S
C387 C388 1.399 . S
C388 C387 1.399 . S
C388 C389 1.376 . S
C388 H423 0.931 1_556 S
C389 C388 1.376 . S
C389 N390 1.338 . S
C389 H392 0.930 1_556 S
N390 Cd375 2.304 . S
N390 C385 1.337 . S
N390 C389 1.338 . S
H391 C385 0.929 . S
H392 C389 0.930 1_554 S
C393 N394 1.332 1_565 S
C393 C397 1.381 . S
C393 H399 0.931 . S
N394 Cd375 2.334 . S
N394 C393 1.332 1_545 S
N394 C398 1.328 . S
C395 C396 1.396 1_545 S
C395 C398 1.378 . S
C395 H424 0.931 1_556 S
C396 C395 1.396 1_565 S
C396 C397 1.382 . S
C397 C393 1.381 . S
C397 C396 1.382 . S
C397 H425 0.930 . S
C398 N394 1.328 . S
C398 C395 1.378 . S
C398 H400 0.930 1_556 S
H399 C393 0.931 . S
H400 C398 0.930 1_554 S
C401 O412 1.238 . S
C401 O413 1.253 . S
C402 O414 1.239 . S
C402 O415 1.230 1_565 S
N403 Cd374 2.304 . S
N403 C404 1.337 . S
N403 C408 1.338 . S
C404 N403 1.337 . S
C404 C405 1.379 . S
C404 H418 0.929 . S
C405 C404 1.379 . S
C405 C406 1.380 . S
C405 H426 0.929 . S
C406 C405 1.380 . S
C406 C407 1.399 . S
C407 C406 1.399 . S
C407 C408 1.376 . S
C407 H427 0.931 1_554 S
C408 N403 1.338 . S
C408 C407 1.376 . S
C408 H419 0.930 1_554 S
C409 O416 1.239 . S
C409 O417 1.230 . S
O410 Cd374 2.268 1_566 S
O410 C384 1.238 . S
O411 Cd375 2.273 . S
O411 C384 1.253 1_545 S
O412 Cd375 2.268 1_554 S
O412 C401 1.238 . S
O413 Cd374 2.273 . S
O413 C401 1.253 . S
O414 Cd374 2.417 1_565 S
O414 C402 1.239 . S
O415 Cd374 2.330 . S
O415 C402 1.230 1_545 S
O416 Cd375 2.417 . S
O416 C409 1.239 . S
O417 Cd375 2.330 . S
O417 C409 1.230 . S
H418 C404 0.929 . S
H419 C408 0.930 1_556 S
H420 C378 0.909 1_556 S
H421 C380 0.930 . S
H422 C386 0.929 . S
H423 C388 0.931 1_554 S
H424 C395 0.931 1_554 S
H425 C397 0.930 . S
H426 C405 0.929 . S
H427 C407 0.931 1_556 S
Cd428 N431 2.334 1_655 S
Cd428 N457 2.304 . S
Cd428 O464 2.268 . S
Cd428 O467 2.273 1_655 S
Cd428 O468 2.417 . S
Cd428 O469 2.330 . S
Cd429 N444 2.304 1_455 S
Cd429 N448 2.334 . S
Cd429 O465 2.273 1_454 S
Cd429 O466 2.268 . S
Cd429 O470 2.433 . S
Cd429 O471 2.330 1_554 S
C430 N431 1.332 . S
C430 C434 1.381 . S
C430 H436 0.931 . S
N431 Cd428 2.334 1_455 S
N431 C430 1.332 . S
N431 C435 1.328 . S
C432 C433 1.396 . S
C432 C435 1.378 . S
C432 H474 0.931 . S
C433 C432 1.396 . S
C433 C434 1.382 . S
C434 C430 1.381 . S
C434 C433 1.382 . S
C434 H475 0.930 . S
C435 N431 1.328 . S
C435 C432 1.378 . S
C435 H437 0.938 . S
H436 C430 0.931 . S
H437 C435 0.938 . S
C438 O464 1.238 1_556 S
C438 O465 1.253 . S
C439 C440 1.379 . S
C439 N444 1.337 1_556 S
C439 H445 0.929 . S
C440 C439 1.379 . S
C440 C441 1.380 1_556 S
C440 H476 0.929 . S
C441 C440 1.380 1_554 S
C441 C442 1.399 . S
C442 C441 1.399 . S
C442 C443 1.376 . S
C442 H477 0.931 . S
C443 C442 1.376 . S
C443 N444 1.338 . S
C443 H446 0.930 1_655 S
N444 Cd429 2.304 1_655 S
N444 C439 1.337 1_554 S
N444 C443 1.338 . S
H445 C439 0.929 . S
H446 C443 0.930 1_455 S
C447 N448 1.332 1_556 S
C447 C451 1.381 . S
C447 H453 0.931 . S
N448 Cd429 2.334 . S
N448 C447 1.332 1_554 S
N448 C452 1.328 . S
C449 C450 1.396 . S
C449 C452 1.378 . S
C449 H478 0.931 . S
C450 C449 1.396 . S
C450 C451 1.382 1_554 S
C451 C447 1.381 . S
C451 C450 1.382 1_556 S
C451 H479 0.930 . S
C452 N448 1.328 . S
C452 C449 1.378 . S
C452 H454 0.930 . S
H453 C447 0.931 . S
H454 C452 0.930 . S
C455 O466 1.238 . S
C455 O467 1.253 . S
C456 O468 1.239 . S
C456 O469 1.230 . S
N457 Cd428 2.304 . S
N457 C458 1.337 . S
N457 C462 1.338 . S
C458 N457 1.337 . S
C458 C459 1.379 . S
C458 H472 0.929 . S
C459 C458 1.379 . S
C459 C460 1.380 . S
C459 H480 0.929 . S
C460 C459 1.380 . S
C460 C461 1.399 . S
C461 C460 1.399 . S
C461 C462 1.376 . S
C461 H481 0.931 . S
C462 N457 1.338 . S
C462 C461 1.376 . S
C462 H473 0.930 . S
C463 O470 1.206 1_556 S
C463 O471 1.230 . S
O464 Cd428 2.268 . S
O464 C438 1.238 1_554 S
O465 Cd429 2.273 1_656 S
O465 C438 1.253 . S
O466 Cd429 2.268 . S
O466 C455 1.238 . S
O467 Cd428 2.273 1_455 S
O467 C455 1.253 . S
O468 Cd428 2.417 . S
O468 C456 1.239 . S
O469 Cd428 2.330 . S
O469 C456 1.230 . S
O470 Cd429 2.433 . S
O470 C463 1.206 1_554 S
O471 Cd429 2.330 1_556 S
O471 C463 1.230 . S
H472 C458 0.929 . S
H473 C462 0.930 . S
H474 C432 0.931 . S
H475 C434 0.930 . S
H476 C440 0.929 . S
H477 C442 0.931 . S
H478 C449 0.931 . S
H479 C451 0.930 . S
H480 C459 0.929 . S
H481 C461 0.931 . S
Cd482 N485 2.334 . S
Cd482 N511 2.304 . S
Cd482 O518 2.268 . S
Cd482 O521 2.273 . S
Cd482 O522 2.417 . S
Cd482 O523 2.330 . S
Cd483 N498 2.304 . S
Cd483 N502 2.334 . S
Cd483 O519 2.273 . S
Cd483 O520 2.268 1_556 S
Cd483 O524 2.417 . S
Cd483 O525 2.330 . S
C484 N485 1.332 . S
C484 C488 1.381 . S
C484 H490 0.931 . S
N485 Cd482 2.334 . S
N485 C484 1.332 . S
N485 C489 1.328 . S
C486 C487 1.396 . S
C486 C489 1.378 . S
C486 H528 0.931 . S
C487 C486 1.396 . S
C487 C488 1.382 . S
C488 C484 1.381 . S
C488 C487 1.382 . S
C488 H529 0.930 . S
C489 N485 1.328 . S
C489 C486 1.378 . S
C489 H491 0.930 . S
H490 C484 0.931 . S
H491 C489 0.930 . S
C492 O518 1.238 1_556 S
C492 O519 1.253 . S
C493 C494 1.379 . S
C493 N498 1.337 . S
C493 H499 0.929 . S
C494 C493 1.379 . S
C494 C495 1.380 . S
C494 H530 0.929 . S
C495 C494 1.380 . S
C495 C496 1.399 1_556 S
C496 C495 1.399 1_554 S
C496 C497 1.376 . S
C496 H531 0.931 . S
C497 C496 1.376 . S
C497 N498 1.338 1_554 S
C497 H500 0.930 . S
N498 Cd483 2.304 . S
N498 C493 1.337 . S
N498 C497 1.338 1_556 S
H499 C493 0.929 . S
H500 C497 0.930 . S
C501 N502 1.332 . S
C501 C505 1.381 . S
C501 H507 0.931 . S
N502 Cd483 2.334 . S
N502 C501 1.332 . S
N502 C506 1.328 1_556 S
C503 C504 1.372 1_554 S
C503 C506 1.378 . S
C503 H532 0.931 . S
C504 C503 1.372 1_556 S
C504 C505 1.404 . S
C505 C501 1.381 . S
C505 C504 1.404 . S
C505 H533 0.930 . S
C506 N502 1.328 1_554 S
C506 C503 1.378 . S
C506 H508 0.930 . S
H507 C501 0.931 . S
H508 C506 0.930 . S
C509 O520 1.238 . S
C509 O521 1.253 . S
C510 O522 1.239 . S
C510 O523 1.230 . S
N511 Cd482 2.304 . S
N511 C512 1.337 . S
N511 C516 1.338 . S
C512 N511 1.337 . S
C512 C513 1.379 . S
C512 H526 0.929 . S
C513 C512 1.379 . S
C513 C514 1.380 . S
C513 H534 0.929 . S
C514 C513 1.380 . S
C514 C515 1.399 . S
C515 C514 1.399 . S
C515 C516 1.376 . S
C515 H535 0.931 . S
C516 N511 1.338 . S
C516 C515 1.376 . S
C516 H527 0.930 . S
C517 O524 1.239 . S
C517 O525 1.230 . S
O518 Cd482 2.268 . S
O518 C492 1.238 1_554 S
O519 Cd483 2.273 . S
O519 C492 1.253 . S
O520 Cd483 2.268 1_554 S
O520 C509 1.238 . S
O521 Cd482 2.273 . S
O521 C509 1.253 . S
O522 Cd482 2.417 . S
O522 C510 1.239 . S
O523 Cd482 2.330 . S
O523 C510 1.230 . S
O524 Cd483 2.417 . S
O524 C517 1.239 . S
O525 Cd483 2.330 . S
O525 C517 1.230 . S
H526 C512 0.929 . S
H527 C516 0.930 . S
H528 C486 0.931 . S
H529 C488 0.930 . S
H530 C494 0.929 . S
H531 C496 0.931 . S
H532 C503 0.931 . S
H533 C505 0.930 . S
H534 C513 0.929 . S
H535 C515 0.931 . S
Cd536 N539 2.334 . S
Cd536 N565 2.304 1_455 S
Cd536 O572 2.268 . S
Cd536 O575 2.273 . S
Cd536 O576 2.417 1_455 S
Cd536 O577 2.330 . S
Cd537 N552 2.304 . S
Cd537 N556 2.334 . S
Cd537 O573 2.273 . S
Cd537 O574 2.268 . S
Cd537 O578 2.417 . S
Cd537 O579 2.330 . S
C538 N539 1.332 . S
C538 C542 1.381 . S
C538 H544 0.931 . S
N539 Cd536 2.334 . S
N539 C538 1.332 . S
N539 C543 1.328 . S
C540 C541 1.396 . S
C540 C543 1.378 . S
C540 H582 0.931 . S
C541 C540 1.396 . S
C541 C542 1.382 . S
C542 C538 1.381 . S
C542 C541 1.382 . S
C542 H583 0.930 . S
C543 N539 1.328 . S
C543 C540 1.378 . S
C543 H545 0.930 . S
H544 C538 0.931 . S
H545 C543 0.930 . S
C546 O572 1.238 1_655 S
C546 O573 1.253 1_655 S
C547 C548 1.379 . S
C547 N552 1.337 1_655 S
C547 H553 0.929 . S
C548 C547 1.379 . S
C548 C549 1.380 . S
C548 H584 0.929 . S
C549 C548 1.380 . S
C549 C550 1.399 1_655 S
C550 C549 1.399 1_455 S
C550 C551 1.376 . S
C550 H585 0.931 . S
C551 C550 1.376 . S
C551 N552 1.338 . S
C551 H554 0.930 . S
N552 Cd537 2.304 . S
N552 C547 1.337 1_455 S
N552 C551 1.338 . S
H553 C547 0.929 . S
H554 C551 0.930 . S
C555 N556 1.332 . S
C555 C559 1.381 . S
C555 H561 0.931 . S
N556 Cd537 2.334 . S
N556 C555 1.332 . S
N556 C560 1.328 . S
C557 C558 1.396 . S
C557 C560 1.378 . S
C557 H586 0.931 . S
C558 C557 1.396 . S
C558 C559 1.382 . S
C559 C555 1.381 . S
C559 C558 1.382 . S
C559 H587 0.930 . S
C560 N556 1.328 . S
C560 C557 1.378 . S
C560 H562 0.930 . S
H561 C555 0.931 . S
H562 C560 0.930 . S
C563 O574 1.238 . S
C563 O575 1.253 . S
C564 O576 1.239 . S
C564 O577 1.230 1_655 S
N565 Cd536 2.304 1_655 S
N565 C566 1.337 1_655 S
N565 C570 1.338 . S
C566 N565 1.337 1_455 S
C566 C567 1.379 1_455 S
C566 H580 0.929 . S
C567 C566 1.379 1_655 S
C567 C568 1.380 . S
C567 H588 0.929 . S
C568 C567 1.380 . S
C568 C569 1.399 . S
C569 C568 1.399 . S
C569 C570 1.376 . S
C569 H589 0.931 . S
C570 N565 1.338 . S
C570 C569 1.376 . S
C570 H581 0.930 . S
C571 O578 1.239 . S
C571 O579 1.230 . S
O572 Cd536 2.268 . S
O572 C546 1.238 1_455 S
O573 Cd537 2.273 . S
O573 C546 1.253 1_455 S
O574 Cd537 2.268 . S
O574 C563 1.238 . S
O575 Cd536 2.273 . S
O575 C563 1.253 . S
O576 Cd536 2.417 1_655 S
O576 C564 1.239 . S
O577 Cd536 2.330 . S
O577 C564 1.230 1_455 S
O578 Cd537 2.417 . S
O578 C571 1.239 . S
O579 Cd537 2.330 . S
O579 C571 1.230 . S
H580 C566 0.929 . S
H581 C570 0.930 . S
H582 C540 0.931 . S
H583 C542 0.930 . S
H584 C548 0.929 . S
H585 C550 0.931 . S
H586 C557 0.931 . S
H587 C559 0.930 . S
H588 C567 0.929 . S
H589 C569 0.931 . S
Cd590 N593 2.334 . S
Cd590 N619 2.304 1_565 S
Cd590 O626 2.268 . S
Cd590 O629 2.273 1_565 S
Cd590 O630 2.417 . S
Cd590 O631 2.330 . S
Cd591 N606 2.304 . S
Cd591 N610 2.334 1_545 S
Cd591 O627 2.273 1_545 S
Cd591 O628 2.268 . S
Cd591 O632 2.417 . S
Cd591 O633 2.330 . S
C592 N593 1.332 . S
C592 C596 1.381 . S
C592 H598 0.931 . S
N593 Cd590 2.334 . S
N593 C592 1.332 . S
N593 C597 1.328 . S
C594 C595 1.396 . S
C594 C597 1.378 . S
C594 H636 0.931 . S
C595 C594 1.396 . S
C595 C596 1.382 . S
C596 C592 1.381 . S
C596 C595 1.382 . S
C596 H637 0.930 . S
C597 N593 1.328 . S
C597 C594 1.378 . S
C597 H599 0.930 . S
H598 C592 0.931 . S
H599 C597 0.930 . S
C600 O626 1.238 . S
C600 O627 1.253 . S
C601 C602 1.379 . S
C601 N606 1.337 . S
C601 H607 0.929 . S
C602 C601 1.379 . S
C602 C603 1.380 . S
C602 H638 0.929 . S
C603 C602 1.380 . S
C603 C604 1.399 . S
C604 C603 1.399 . S
C604 C605 1.376 . S
C604 H639 0.931 . S
C605 C604 1.376 . S
C605 N606 1.338 . S
C605 H608 0.930 . S
N606 Cd591 2.304 . S
N606 C601 1.337 . S
N606 C605 1.338 . S
H607 C601 0.929 . S
H608 C605 0.930 . S
C609 N610 1.332 . S
C609 C613 1.381 . S
C609 H615 0.931 . S
N610 Cd591 2.334 1_565 S
N610 C609 1.332 . S
N610 C614 1.328 . S
C611 C612 1.396 . S
C611 C614 1.378 . S
C611 H640 0.931 . S
C612 C611 1.396 . S
C612 C613 1.382 . S
C613 C609 1.381 . S
C613 C612 1.382 . S
C613 H641 0.930 . S
C614 N610 1.328 . S
C614 C611 1.378 . S
C614 H616 0.930 1_565 S
H615 C609 0.931 . S
H616 C614 0.930 1_545 S
C617 O628 1.238 . S
C617 O629 1.253 . S
C618 O630 1.239 . S
C618 O631 1.230 . S
N619 Cd590 2.304 1_545 S
N619 C620 1.337 . S
N619 C624 1.338 . S
C620 N619 1.337 . S
C620 C621 1.379 . S
C620 H634 0.929 . S
C621 C620 1.379 . S
C621 C622 1.380 . S
C621 H642 0.929 . S
C622 C621 1.380 . S
C622 C623 1.399 . S
C623 C622 1.399 . S
C623 C624 1.376 . S
C623 H643 0.931 . S
C624 N619 1.338 . S
C624 C623 1.376 . S
C624 H635 0.930 1_545 S
C625 O632 1.239 . S
C625 O633 1.230 . S
O626 Cd590 2.268 . S
O626 C600 1.238 . S
O627 Cd591 2.273 1_565 S
O627 C600 1.253 . S
O628 Cd591 2.268 . S
O628 C617 1.238 . S
O629 Cd590 2.273 1_545 S
O629 C617 1.253 . S
O630 Cd590 2.417 . S
O630 C618 1.239 . S
O631 Cd590 2.330 . S
O631 C618 1.230 . S
O632 Cd591 2.417 . S
O632 C625 1.239 . S
O633 Cd591 2.330 . S
O633 C625 1.230 . S
H634 C620 0.929 . S
H635 C624 0.930 1_565 S
H636 C594 0.931 . S
H637 C596 0.930 . S
H638 C602 0.929 . S
H639 C604 0.931 . S
H640 C611 0.931 . S
H641 C613 0.930 . S
H642 C621 0.929 . S
H643 C623 0.931 . S
H644 C662 0.951 . S
H645 C664 0.951 . S
H646 C666 0.950 . S
H647 C667 0.950 . S
H648 C669 0.950 . S
H649 C672 0.950 . S
H650 C673 0.950 . S
H651 C675 0.950 . S
H652 C676 0.950 . S
H653 C677 0.951 . S
H654 C679 0.951 . S
H655 C681 0.950 . S
H656 C682 0.950 . S
H657 C684 0.950 . S
H658 C687 0.950 . S
H659 C688 0.950 . S
H660 C690 0.950 . S
H661 C691 0.950 . S
C662 H644 0.951 . S
C662 C663 1.366 . S
C662 C664 1.388 . S
C663 C662 1.366 . S
C663 C667 1.385 . S
C664 H645 0.951 . S
C664 C662 1.388 . S
C664 C665 1.366 . S
C665 C664 1.366 . S
C665 C666 1.414 . S
C665 C668 1.499 . S
C666 H646 0.950 . S
C666 C665 1.414 . S
C666 C667 1.374 . S
C667 H647 0.950 . S
C667 C663 1.385 . S
C667 C666 1.374 . S
C668 C665 1.499 . S
C668 C669 1.373 . S
C668 C670 1.389 . S
C669 H648 0.950 . S
C669 C668 1.373 . S
C669 C685 1.377 . S
C670 C668 1.389 . S
C670 C671 1.524 . S
C670 C684 1.377 . S
C671 C670 1.524 . S
C671 C672 1.397 . S
C671 C676 1.363 . S
C672 H649 0.950 . S
C672 C671 1.397 . S
C672 C673 1.334 . S
C673 H650 0.950 . S
C673 C672 1.334 . S
C673 C674 1.287 . S
C674 C673 1.287 . S
C674 C675 1.524 . S
C674 H693 0.913 . S
C675 H651 0.950 . S
C675 C674 1.524 . S
C675 C676 1.415 . S
C676 H652 0.950 . S
C676 C671 1.363 . S
C676 C675 1.415 . S
C677 H653 0.951 . S
C677 C678 1.366 . S
C677 C679 1.388 . S
C678 C677 1.366 . S
C678 C682 1.385 . S
C679 H654 0.951 . S
C679 C677 1.388 . S
C679 C680 1.366 . S
C680 C679 1.366 . S
C680 C681 1.414 . S
C680 C683 1.499 . S
C681 H655 0.950 . S
C681 C680 1.414 . S
C681 C682 1.374 . S
C682 H656 0.950 . S
C682 C678 1.385 . S
C682 C681 1.374 . S
C683 C680 1.499 . S
C683 C684 1.373 . S
C683 C685 1.389 . S
C684 H657 0.950 . S
C684 C670 1.377 . S
C684 C683 1.373 . S
C685 C669 1.377 . S
C685 C683 1.389 . S
C685 C686 1.524 . S
C686 C685 1.524 . S
C686 C687 1.397 . S
C686 C691 1.363 . S
C687 H658 0.950 . S
C687 C686 1.397 . S
C687 C688 1.334 . S
C688 H659 0.950 . S
C688 C687 1.334 . S
C688 C689 1.287 . S
C689 C688 1.287 . S
C689 C690 1.524 . S
C689 H692 0.999 . S
C690 H660 0.950 . S
C690 C689 1.524 . S
C690 C691 1.415 . S
C691 H661 0.950 . S
C691 C686 1.363 . S
C691 C690 1.415 . S
H692 C689 0.999 . S
H693 C674 0.913 . S
H694 C712 0.951 . S
H695 C714 0.951 . S
H696 C716 0.950 . S
H697 C717 0.950 . S
H698 C719 0.950 . S
H699 C722 0.950 . S
H700 C723 0.950 . S
H701 C725 0.950 . S
H702 C726 0.950 . S
H703 C727 0.951 . S
H704 C729 0.951 . S
H705 C731 0.950 . S
H706 C732 0.950 . S
H707 C734 0.950 . S
H708 C737 0.950 . S
H709 C738 0.950 . S
H710 C740 0.950 . S
H711 C741 0.950 . S
C712 H694 0.951 . S
C712 C713 1.366 . S
C712 C714 1.388 . S
C713 C712 1.366 . S
C713 C717 1.385 . S
C714 H695 0.951 . S
C714 C712 1.388 . S
C714 C715 1.366 . S
C715 C714 1.366 . S
C715 C716 1.414 . S
C715 C718 1.499 . S
C716 H696 0.950 . S
C716 C715 1.414 . S
C716 C717 1.374 . S
C717 H697 0.950 . S
C717 C713 1.385 . S
C717 C716 1.374 . S
C718 C715 1.499 . S
C718 C719 1.373 . S
C718 C720 1.389 . S
C719 H698 0.950 . S
C719 C718 1.373 . S
C719 C735 1.377 . S
C720 C718 1.389 . S
C720 C721 1.524 . S
C720 C734 1.377 . S
C721 C720 1.524 . S
C721 C722 1.397 . S
C721 C726 1.363 . S
C722 H699 0.950 . S
C722 C721 1.397 . S
C722 C723 1.334 . S
C723 H700 0.950 . S
C723 C722 1.334 . S
C723 C724 1.287 . S
C724 C723 1.287 . S
C724 C725 1.524 . S
C724 H743 0.913 . S
C725 H701 0.950 . S
C725 C724 1.524 . S
C725 C726 1.415 . S
C726 H702 0.950 . S
C726 C721 1.363 . S
C726 C725 1.415 . S
C727 H703 0.951 . S
C727 C728 1.366 . S
C727 C729 1.388 . S
C728 C727 1.366 . S
C728 C732 1.385 . S
C729 H704 0.951 . S
C729 C727 1.388 . S
C729 C730 1.366 . S
C730 C729 1.366 . S
C730 C731 1.414 . S
C730 C733 1.499 . S
C731 H705 0.950 . S
C731 C730 1.414 . S
C731 C732 1.374 . S
C732 H706 0.950 . S
C732 C728 1.385 . S
C732 C731 1.374 . S
C733 C730 1.499 . S
C733 C734 1.373 . S
C733 C735 1.389 . S
C734 H707 0.950 . S
C734 C720 1.377 . S
C734 C733 1.373 . S
C735 C719 1.377 . S
C735 C733 1.389 . S
C735 C736 1.524 . S
C736 C735 1.524 . S
C736 C737 1.397 . S
C736 C741 1.363 . S
C737 H708 0.950 . S
C737 C736 1.397 . S
C737 C738 1.334 . S
C738 H709 0.950 . S
C738 C737 1.334 . S
C738 C739 1.287 . S
C739 C738 1.287 . S
C739 C740 1.524 . S
C739 H742 0.999 . S
C740 H710 0.950 . S
C740 C739 1.524 . S
C740 C741 1.415 . S
C741 H711 0.950 . S
C741 C736 1.363 . S
C741 C740 1.415 . S
H742 C739 0.999 . S
H743 C724 0.913 . S
H744 C762 0.951 . S
H745 C764 0.951 . S
H746 C766 0.950 . S
H747 C767 0.950 . S
H748 C769 0.950 . S
H749 C772 0.950 . S
H750 C773 0.950 . S
H751 C775 0.950 . S
H752 C776 0.950 . S
H753 C777 0.951 . S
H754 C779 0.951 . S
H755 C781 0.950 . S
H756 C782 0.950 . S
H757 C784 0.950 . S
H758 C787 0.950 . S
H759 C788 0.950 . S
H760 C790 0.950 . S
H761 C791 0.950 . S
C762 H744 0.951 . S
C762 C763 1.366 . S
C762 C764 1.388 . S
C763 C762 1.366 . S
C763 C767 1.385 . S
C764 H745 0.951 . S
C764 C762 1.388 . S
C764 C765 1.366 . S
C765 C764 1.366 . S
C765 C766 1.414 . S
C765 C768 1.499 . S
C766 H746 0.950 . S
C766 C765 1.414 . S
C766 C767 1.374 . S
C767 H747 0.950 . S
C767 C763 1.385 . S
C767 C766 1.374 . S
C768 C765 1.499 . S
C768 C769 1.373 . S
C768 C770 1.389 . S
C769 H748 0.950 . S
C769 C768 1.373 . S
C769 C785 1.377 . S
C770 C768 1.389 . S
C770 C771 1.524 . S
C770 C784 1.377 . S
C771 C770 1.524 . S
C771 C772 1.397 . S
C771 C776 1.363 . S
C772 H749 0.950 . S
C772 C771 1.397 . S
C772 C773 1.334 . S
C773 H750 0.950 . S
C773 C772 1.334 . S
C773 C774 1.287 . S
C774 C773 1.287 . S
C774 C775 1.524 . S
C774 H793 0.913 . S
C775 H751 0.950 . S
C775 C774 1.524 . S
C775 C776 1.415 . S
C776 H752 0.950 . S
C776 C771 1.363 . S
C776 C775 1.415 . S
C777 H753 0.951 . S
C777 C778 1.366 . S
C777 C779 1.388 . S
C778 C777 1.366 . S
C778 C782 1.385 . S
C779 H754 0.951 . S
C779 C777 1.388 . S
C779 C780 1.366 . S
C780 C779 1.366 . S
C780 C781 1.414 . S
C780 C783 1.499 . S
C781 H755 0.950 . S
C781 C780 1.414 . S
C781 C782 1.374 . S
C782 H756 0.950 . S
C782 C778 1.385 . S
C782 C781 1.374 . S
C783 C780 1.499 . S
C783 C784 1.373 . S
C783 C785 1.389 . S
C784 H757 0.950 . S
C784 C770 1.377 . S
C784 C783 1.373 . S
C785 C769 1.377 . S
C785 C783 1.389 . S
C785 C786 1.524 . S
C786 C785 1.524 . S
C786 C787 1.397 . S
C786 C791 1.363 . S
C787 H758 0.950 . S
C787 C786 1.397 . S
C787 C788 1.334 . S
C788 H759 0.950 . S
C788 C787 1.334 . S
C788 C789 1.287 . S
C789 C788 1.287 . S
C789 C790 1.524 . S
C789 H792 0.999 . S
C790 H760 0.950 . S
C790 C789 1.524 . S
C790 C791 1.415 . S
C791 H761 0.950 . S
C791 C786 1.363 . S
C791 C790 1.415 . S
H792 C789 0.999 . S
H793 C774 0.913 . S
H794 C812 0.951 . S
H795 C814 0.951 . S
H796 C816 0.950 . S
H797 C817 0.950 . S
H798 C819 0.950 . S
H799 C822 0.950 . S
H800 C823 0.950 . S
H801 C825 0.950 . S
H802 C826 0.950 . S
H803 C827 0.951 . S
H804 C829 0.951 . S
H805 C831 0.950 . S
H806 C832 0.950 . S
H807 C834 0.950 . S
H808 C837 0.950 . S
H809 C838 0.950 . S
H810 C840 0.950 . S
H811 C841 0.950 . S
C812 H794 0.951 . S
C812 C813 1.366 . S
C812 C814 1.388 . S
C813 C812 1.366 . S
C813 C817 1.385 . S
C814 H795 0.951 . S
C814 C812 1.388 . S
C814 C815 1.366 . S
C815 C814 1.366 . S
C815 C816 1.414 . S
C815 C818 1.499 . S
C816 H796 0.950 . S
C816 C815 1.414 . S
C816 C817 1.374 . S
C817 H797 0.950 . S
C817 C813 1.385 . S
C817 C816 1.374 . S
C818 C815 1.499 . S
C818 C819 1.373 . S
C818 C820 1.389 . S
C819 H798 0.950 . S
C819 C818 1.373 . S
C819 C835 1.377 . S
C820 C818 1.389 . S
C820 C821 1.524 . S
C820 C834 1.377 . S
C821 C820 1.524 . S
C821 C822 1.397 . S
C821 C826 1.363 . S
C822 H799 0.950 . S
C822 C821 1.397 . S
C822 C823 1.334 . S
C823 H800 0.950 . S
C823 C822 1.334 . S
C823 C824 1.287 . S
C824 C823 1.287 . S
C824 C825 1.524 . S
C824 H843 0.913 . S
C825 H801 0.950 . S
C825 C824 1.524 . S
C825 C826 1.415 . S
C826 H802 0.950 . S
C826 C821 1.363 . S
C826 C825 1.415 . S
C827 H803 0.951 . S
C827 C828 1.366 . S
C827 C829 1.388 . S
C828 C827 1.366 . S
C828 C832 1.385 . S
C829 H804 0.951 . S
C829 C827 1.388 . S
C829 C830 1.366 . S
C830 C829 1.366 . S
C830 C831 1.414 . S
C830 C833 1.499 . S
C831 H805 0.950 . S
C831 C830 1.414 . S
C831 C832 1.374 . S
C832 H806 0.950 . S
C832 C828 1.385 . S
C832 C831 1.374 . S
C833 C830 1.499 . S
C833 C834 1.373 . S
C833 C835 1.389 . S
C834 H807 0.950 . S
C834 C820 1.377 . S
C834 C833 1.373 . S
C835 C819 1.377 . S
C835 C833 1.389 . S
C835 C836 1.524 . S
C836 C835 1.524 . S
C836 C837 1.397 . S
C836 C841 1.363 . S
C837 H808 0.950 . S
C837 C836 1.397 . S
C837 C838 1.334 . S
C838 H809 0.950 . S
C838 C837 1.334 . S
C838 C839 1.287 . S
C839 C838 1.287 . S
C839 C840 1.524 . S
C839 H842 0.999 . S
C840 H810 0.950 . S
C840 C839 1.524 . S
C840 C841 1.415 . S
C841 H811 0.950 . S
C841 C836 1.363 . S
C841 C840 1.415 . S
H842 C839 0.999 . S
H843 C824 0.913 . S
H844 C862 0.951 . S
H845 C864 0.951 . S
H846 C866 0.950 . S
H847 C867 0.950 . S
H848 C869 0.950 . S
H849 C872 0.950 . S
H850 C873 0.950 . S
H851 C875 0.950 . S
H852 C876 0.950 . S
H853 C877 0.951 . S
H854 C879 0.951 . S
H855 C881 0.950 . S
H856 C882 0.950 . S
H857 C884 0.950 . S
H858 C887 0.950 . S
H859 C888 0.950 . S
H860 C890 0.950 . S
H861 C891 0.950 . S
C862 H844 0.951 . S
C862 C863 1.366 . S
C862 C864 1.388 . S
C863 C862 1.366 . S
C863 C867 1.385 . S
C864 H845 0.951 . S
C864 C862 1.388 . S
C864 C865 1.366 . S
C865 C864 1.366 . S
C865 C866 1.414 . S
C865 C868 1.499 . S
C866 H846 0.950 . S
C866 C865 1.414 . S
C866 C867 1.374 . S
C867 H847 0.950 . S
C867 C863 1.385 . S
C867 C866 1.374 . S
C868 C865 1.499 . S
C868 C869 1.373 . S
C868 C870 1.389 . S
C869 H848 0.950 . S
C869 C868 1.373 . S
C869 C885 1.377 . S
C870 C868 1.389 . S
C870 C871 1.524 . S
C870 C884 1.377 . S
C871 C870 1.524 . S
C871 C872 1.397 . S
C871 C876 1.363 . S
C872 H849 0.950 . S
C872 C871 1.397 . S
C872 C873 1.334 . S
C873 H850 0.950 . S
C873 C872 1.334 . S
C873 C874 1.287 . S
C874 C873 1.287 . S
C874 C875 1.524 . S
C874 H893 0.913 . S
C875 H851 0.950 . S
C875 C874 1.524 . S
C875 C876 1.415 . S
C876 H852 0.950 . S
C876 C871 1.363 . S
C876 C875 1.415 . S
C877 H853 0.951 . S
C877 C878 1.366 . S
C877 C879 1.388 . S
C878 C877 1.366 . S
C878 C882 1.385 . S
C879 H854 0.951 . S
C879 C877 1.388 . S
C879 C880 1.366 . S
C880 C879 1.366 . S
C880 C881 1.414 . S
C880 C883 1.499 . S
C881 H855 0.950 . S
C881 C880 1.414 . S
C881 C882 1.374 . S
C882 H856 0.950 . S
C882 C878 1.385 . S
C882 C881 1.374 . S
C883 C880 1.499 . S
C883 C884 1.373 . S
C883 C885 1.389 . S
C884 H857 0.950 . S
C884 C870 1.377 . S
C884 C883 1.373 . S
C885 C869 1.377 . S
C885 C883 1.389 . S
C885 C886 1.524 . S
C886 C885 1.524 . S
C886 C887 1.397 . S
C886 C891 1.363 . S
C887 H858 0.950 . S
C887 C886 1.397 . S
C887 C888 1.334 . S
C888 H859 0.950 . S
C888 C887 1.334 . S
C888 C889 1.287 . S
C889 C888 1.287 . S
C889 C890 1.524 . S
C889 H892 0.999 . S
C890 H860 0.950 . S
C890 C889 1.524 . S
C890 C891 1.415 . S
C891 H861 0.950 . S
C891 C886 1.363 . S
C891 C890 1.415 . S
H892 C889 0.999 . S
H893 C874 0.913 . S
H894 C912 0.951 . S
H895 C914 0.951 . S
H896 C916 0.950 . S
H897 C917 0.950 . S
H898 C919 0.950 . S
H899 C922 0.950 . S
H900 C923 0.950 . S
H901 C925 0.950 . S
H902 C926 0.950 . S
H903 C927 0.951 . S
H904 C929 0.951 . S
H905 C931 0.950 . S
H906 C932 0.950 . S
H907 C934 0.950 . S
H908 C937 0.950 . S
H909 C938 0.950 . S
H910 C940 0.950 . S
H911 C941 0.950 . S
C912 H894 0.951 . S
C912 C913 1.366 . S
C912 C914 1.388 . S
C913 C912 1.366 . S
C913 C917 1.385 . S
C914 H895 0.951 . S
C914 C912 1.388 . S
C914 C915 1.366 . S
C915 C914 1.366 . S
C915 C916 1.414 . S
C915 C918 1.499 . S
C916 H896 0.950 . S
C916 C915 1.414 . S
C916 C917 1.374 . S
C917 H897 0.950 . S
C917 C913 1.385 . S
C917 C916 1.374 . S
C918 C915 1.499 . S
C918 C919 1.373 . S
C918 C920 1.389 . S
C919 H898 0.950 . S
C919 C918 1.373 . S
C919 C935 1.377 . S
C920 C918 1.389 . S
C920 C921 1.524 . S
C920 C934 1.377 . S
C921 C920 1.524 . S
C921 C922 1.397 . S
C921 C926 1.363 . S
C922 H899 0.950 . S
C922 C921 1.397 . S
C922 C923 1.334 . S
C923 H900 0.950 . S
C923 C922 1.334 . S
C923 C924 1.287 . S
C924 C923 1.287 . S
C924 C925 1.524 . S
C924 H943 0.913 . S
C925 H901 0.950 . S
C925 C924 1.524 . S
C925 C926 1.415 . S
C926 H902 0.950 . S
C926 C921 1.363 . S
C926 C925 1.415 . S
C927 H903 0.951 . S
C927 C928 1.366 . S
C927 C929 1.388 . S
C928 C927 1.366 . S
C928 C932 1.385 . S
C929 H904 0.951 . S
C929 C927 1.388 . S
C929 C930 1.366 . S
C930 C929 1.366 . S
C930 C931 1.414 . S
C930 C933 1.499 . S
C931 H905 0.950 . S
C931 C930 1.414 . S
C931 C932 1.374 . S
C932 H906 0.950 . S
C932 C928 1.385 . S
C932 C931 1.374 . S
C933 C930 1.499 . S
C933 C934 1.373 . S
C933 C935 1.389 . S
C934 H907 0.950 . S
C934 C920 1.377 . S
C934 C933 1.373 . S
C935 C919 1.377 . S
C935 C933 1.389 . S
C935 C936 1.524 . S
C936 C935 1.524 . S
C936 C937 1.397 . S
C936 C941 1.363 . S
C937 H908 0.950 . S
C937 C936 1.397 . S
C937 C938 1.334 . S
C938 H909 0.950 . S
C938 C937 1.334 . S
C938 C939 1.287 . S
C939 C938 1.287 . S
C939 C940 1.524 . S
C939 H942 0.999 . S
C940 H910 0.950 . S
C940 C939 1.524 . S
C940 C941 1.415 . S
C941 H911 0.950 . S
C941 C936 1.363 . S
C941 C940 1.415 . S
H942 C939 0.999 . S
H943 C924 0.913 . S
H944 C962 0.951 . S
H945 C964 0.951 . S
H946 C966 0.950 . S
H947 C967 0.950 . S
H948 C969 0.950 . S
H949 C972 0.950 . S
H950 C973 0.950 . S
H951 C975 0.950 . S
H952 C976 0.950 . S
H953 C977 0.951 . S
H954 C979 0.951 . S
H955 C981 0.950 . S
H956 C982 0.950 . S
H957 C984 0.950 . S
H958 C987 0.950 . S
H959 C988 0.950 . S
H960 C990 0.950 . S
H961 C991 0.950 . S
C962 H944 0.951 . S
C962 C963 1.366 . S
C962 C964 1.388 . S
C963 C962 1.366 . S
C963 C967 1.385 . S
C964 H945 0.951 . S
C964 C962 1.388 . S
C964 C965 1.366 . S
C965 C964 1.366 . S
C965 C966 1.414 . S
C965 C968 1.499 . S
C966 H946 0.950 . S
C966 C965 1.414 . S
C966 C967 1.374 . S
C967 H947 0.950 . S
C967 C963 1.385 . S
C967 C966 1.374 . S
C968 C965 1.499 . S
C968 C969 1.373 . S
C968 C970 1.389 . S
C969 H948 0.950 . S
C969 C968 1.373 . S
C969 C985 1.377 . S
C970 C968 1.389 . S
C970 C971 1.524 . S
C970 C984 1.377 . S
C971 C970 1.524 . S
C971 C972 1.397 . S
C971 C976 1.363 . S
C972 H949 0.950 . S
C972 C971 1.397 . S
C972 C973 1.334 . S
C973 H950 0.950 . S
C973 C972 1.334 . S
C973 C974 1.287 . S
C974 C973 1.287 . S
C974 C975 1.524 . S
C974 H993 0.913 . S
C975 H951 0.950 . S
C975 C974 1.524 . S
C975 C976 1.415 . S
C976 H952 0.950 . S
C976 C971 1.363 . S
C976 C975 1.415 . S
C977 H953 0.951 . S
C977 C978 1.366 . S
C977 C979 1.388 . S
C978 C977 1.366 . S
C978 C982 1.385 . S
C979 H954 0.951 . S
C979 C977 1.388 . S
C979 C980 1.366 . S
C980 C979 1.366 . S
C980 C981 1.414 . S
C980 C983 1.499 . S
C981 H955 0.950 . S
C981 C980 1.414 . S
C981 C982 1.374 . S
C982 H956 0.950 . S
C982 C978 1.385 . S
C982 C981 1.374 . S
C983 C980 1.499 . S
C983 C984 1.373 . S
C983 C985 1.389 . S
C984 H957 0.950 . S
C984 C970 1.377 . S
C984 C983 1.373 . S
C985 C969 1.377 . S
C985 C983 1.389 . S
C985 C986 1.524 . S
C986 C985 1.524 . S
C986 C987 1.397 . S
C986 C991 1.363 . S
C987 H958 0.950 . S
C987 C986 1.397 . S
C987 C988 1.334 . S
C988 H959 0.950 . S
C988 C987 1.334 . S
C988 C989 1.287 . S
C989 C988 1.287 . S
C989 C990 1.524 . S
C989 H992 0.999 . S
C990 H960 0.950 . S
C990 C989 1.524 . S
C990 C991 1.415 . S
C991 H961 0.950 . S
C991 C986 1.363 . S
C991 C990 1.415 . S
H992 C989 0.999 . S
H993 C974 0.913 . S
H994 C1012 0.951 . S
H995 C1014 0.951 . S
H996 C1016 0.950 . S
H997 C1017 0.950 . S
H998 C1019 0.950 . S
H999 C1022 0.950 . S
H1000 C1023 0.950 . S
H1001 C1025 0.950 . S
H1002 C1026 0.950 . S
H1003 C1027 0.951 . S
H1004 C1029 0.951 . S
H1005 C1031 0.950 . S
H1006 C1032 0.950 . S
H1007 C1034 0.950 . S
H1008 C1037 0.950 . S
H1009 C1038 0.950 . S
H1010 C1040 0.950 . S
H1011 C1041 0.950 . S
C1012 H994 0.951 . S
C1012 C1013 1.366 . S
C1012 C1014 1.388 . S
C1013 C1012 1.366 . S
C1013 C1017 1.385 . S
C1014 H995 0.951 . S
C1014 C1012 1.388 . S
C1014 C1015 1.366 . S
C1015 C1014 1.366 . S
C1015 C1016 1.414 . S
C1015 C1018 1.499 . S
C1016 H996 0.950 . S
C1016 C1015 1.414 . S
C1016 C1017 1.374 . S
C1017 H997 0.950 . S
C1017 C1013 1.385 . S
C1017 C1016 1.374 . S
C1018 C1015 1.499 . S
C1018 C1019 1.373 . S
C1018 C1020 1.389 . S
C1019 H998 0.950 . S
C1019 C1018 1.373 . S
C1019 C1035 1.377 . S
C1020 C1018 1.389 . S
C1020 C1021 1.524 . S
C1020 C1034 1.377 . S
C1021 C1020 1.524 . S
C1021 C1022 1.397 . S
C1021 C1026 1.363 . S
C1022 H999 0.950 . S
C1022 C1021 1.397 . S
C1022 C1023 1.334 . S
C1023 H1000 0.950 . S
C1023 C1022 1.334 . S
C1023 C1024 1.287 . S
C1024 C1023 1.287 . S
C1024 C1025 1.524 . S
C1024 H1043 0.913 . S
C1025 H1001 0.950 . S
C1025 C1024 1.524 . S
C1025 C1026 1.415 . S
C1026 H1002 0.950 . S
C1026 C1021 1.363 . S
C1026 C1025 1.415 . S
C1027 H1003 0.951 . S
C1027 C1028 1.366 . S
C1027 C1029 1.388 . S
C1028 C1027 1.366 . S
C1028 C1032 1.385 . S
C1029 H1004 0.951 . S
C1029 C1027 1.388 . S
C1029 C1030 1.366 . S
C1030 C1029 1.366 . S
C1030 C1031 1.414 . S
C1030 C1033 1.499 . S
C1031 H1005 0.950 . S
C1031 C1030 1.414 . S
C1031 C1032 1.374 . S
C1032 H1006 0.950 . S
C1032 C1028 1.385 . S
C1032 C1031 1.374 . S
C1033 C1030 1.499 . S
C1033 C1034 1.373 . S
C1033 C1035 1.389 . S
C1034 H1007 0.950 . S
C1034 C1020 1.377 . S
C1034 C1033 1.373 . S
C1035 C1019 1.377 . S
C1035 C1033 1.389 . S
C1035 C1036 1.524 . S
C1036 C1035 1.524 . S
C1036 C1037 1.397 . S
C1036 C1041 1.363 . S
C1037 H1008 0.950 . S
C1037 C1036 1.397 . S
C1037 C1038 1.334 . S
C1038 H1009 0.950 . S
C1038 C1037 1.334 . S
C1038 C1039 1.287 . S
C1039 C1038 1.287 . S
C1039 C1040 1.524 . S
C1039 H1042 0.999 1_655 S
C1040 H1010 0.950 . S
C1040 C1039 1.524 . S
C1040 C1041 1.415 . S
C1041 H1011 0.950 . S
C1041 C1036 1.363 . S
C1041 C1040 1.415 . S
H1042 C1039 0.999 1_455 S
H1043 C1024 0.913 . S
H1044 C1062 0.951 . S
H1045 C1064 0.951 . S
H1046 C1066 0.950 . S
H1047 C1067 0.950 . S
H1048 C1069 0.950 . S
H1049 C1072 0.950 . S
H1050 C1073 0.950 . S
H1051 C1075 0.950 . S
H1052 C1076 0.950 . S
H1053 C1077 0.951 . S
H1054 C1079 0.951 . S
H1055 C1081 0.950 . S
H1056 C1082 0.950 . S
H1057 C1084 0.950 . S
H1058 C1087 0.950 . S
H1059 C1088 0.950 . S
H1060 C1090 0.950 . S
H1061 C1091 0.950 . S
C1062 H1044 0.951 . S
C1062 C1063 1.366 . S
C1062 C1064 1.388 . S
C1063 C1062 1.366 . S
C1063 C1067 1.385 . S
C1064 H1045 0.951 . S
C1064 C1062 1.388 . S
C1064 C1065 1.366 . S
C1065 C1064 1.366 . S
C1065 C1066 1.414 . S
C1065 C1068 1.499 . S
C1066 H1046 0.950 . S
C1066 C1065 1.414 . S
C1066 C1067 1.374 . S
C1067 H1047 0.950 . S
C1067 C1063 1.385 . S
C1067 C1066 1.374 . S
C1068 C1065 1.499 . S
C1068 C1069 1.373 . S
C1068 C1070 1.389 . S
C1069 H1048 0.950 . S
C1069 C1068 1.373 . S
C1069 C1085 1.377 . S
C1070 C1068 1.389 . S
C1070 C1071 1.524 . S
C1070 C1084 1.377 . S
C1071 C1070 1.524 . S
C1071 C1072 1.397 . S
C1071 C1076 1.363 . S
C1072 H1049 0.950 . S
C1072 C1071 1.397 . S
C1072 C1073 1.334 . S
C1073 H1050 0.950 . S
C1073 C1072 1.334 . S
C1073 C1074 1.287 . S
C1074 C1073 1.287 . S
C1074 C1075 1.524 . S
C1074 H1093 0.913 . S
C1075 H1051 0.950 . S
C1075 C1074 1.524 . S
C1075 C1076 1.415 . S
C1076 H1052 0.950 . S
C1076 C1071 1.363 . S
C1076 C1075 1.415 . S
C1077 H1053 0.951 . S
C1077 C1078 1.366 . S
C1077 C1079 1.388 . S
C1078 C1077 1.366 . S
C1078 C1082 1.385 . S
C1079 H1054 0.951 . S
C1079 C1077 1.388 . S
C1079 C1080 1.366 . S
C1080 C1079 1.366 . S
C1080 C1081 1.414 . S
C1080 C1083 1.499 . S
C1081 H1055 0.950 . S
C1081 C1080 1.414 . S
C1081 C1082 1.374 . S
C1082 H1056 0.950 . S
C1082 C1078 1.385 . S
C1082 C1081 1.374 . S
C1083 C1080 1.499 . S
C1083 C1084 1.373 . S
C1083 C1085 1.389 . S
C1084 H1057 0.950 . S
C1084 C1070 1.377 . S
C1084 C1083 1.373 . S
C1085 C1069 1.377 . S
C1085 C1083 1.389 . S
C1085 C1086 1.524 . S
C1086 C1085 1.524 . S
C1086 C1087 1.397 . S
C1086 C1091 1.363 . S
C1087 H1058 0.950 . S
C1087 C1086 1.397 . S
C1087 C1088 1.334 . S
C1088 H1059 0.950 . S
C1088 C1087 1.334 . S
C1088 C1089 1.287 . S
C1089 C1088 1.287 . S
C1089 C1090 1.524 . S
C1089 H1092 0.999 . S
C1090 H1060 0.950 . S
C1090 C1089 1.524 . S
C1090 C1091 1.415 . S
C1091 H1061 0.950 . S
C1091 C1086 1.363 . S
C1091 C1090 1.415 . S
H1092 C1089 0.999 . S
H1093 C1074 0.913 . S
H1094 C1112 0.951 . S
H1095 C1114 0.951 . S
H1096 C1116 0.950 . S
H1097 C1117 0.950 . S
H1098 C1119 0.950 . S
H1099 C1122 0.950 . S
H1100 C1123 0.950 . S
H1101 C1125 0.950 . S
H1102 C1126 0.950 . S
H1103 C1127 0.951 1_455 S
H1104 C1129 0.951 . S
H1105 C1131 0.950 . S
H1106 C1132 0.950 . S
H1107 C1134 0.950 . S
H1108 C1137 0.950 . S
H1109 C1138 0.950 . S
H1110 C1140 0.950 . S
H1111 C1141 0.950 . S
C1112 H1094 0.951 . S
C1112 C1113 1.366 . S
C1112 C1114 1.388 . S
C1113 C1112 1.366 . S
C1113 C1117 1.385 . S
C1114 H1095 0.951 . S
C1114 C1112 1.388 . S
C1114 C1115 1.366 . S
C1115 C1114 1.366 . S
C1115 C1116 1.414 . S
C1115 C1118 1.499 . S
C1116 H1096 0.950 . S
C1116 C1115 1.414 . S
C1116 C1117 1.374 . S
C1117 H1097 0.950 . S
C1117 C1113 1.385 . S
C1117 C1116 1.374 . S
C1118 C1115 1.499 . S
C1118 C1119 1.373 . S
C1118 C1120 1.389 . S
C1119 H1098 0.950 . S
C1119 C1118 1.373 . S
C1119 C1135 1.377 . S
C1120 C1118 1.389 . S
C1120 C1121 1.524 . S
C1120 C1134 1.377 . S
C1121 C1120 1.524 . S
C1121 C1122 1.397 . S
C1121 C1126 1.363 . S
C1122 H1099 0.950 . S
C1122 C1121 1.397 . S
C1122 C1123 1.334 . S
C1123 H1100 0.950 . S
C1123 C1122 1.334 . S
C1123 C1124 1.287 . S
C1124 C1123 1.287 . S
C1124 C1125 1.524 . S
C1124 H1143 0.913 . S
C1125 H1101 0.950 . S
C1125 C1124 1.524 . S
C1125 C1126 1.415 . S
C1126 H1102 0.950 . S
C1126 C1121 1.363 . S
C1126 C1125 1.415 . S
C1127 H1103 0.951 1_655 S
C1127 C1128 1.366 . S
C1127 C1129 1.388 . S
C1128 C1127 1.366 . S
C1128 C1132 1.385 . S
C1129 H1104 0.951 . S
C1129 C1127 1.388 . S
C1129 C1130 1.366 . S
C1130 C1129 1.366 . S
C1130 C1131 1.414 . S
C1130 C1133 1.499 . S
C1131 H1105 0.950 . S
C1131 C1130 1.414 . S
C1131 C1132 1.374 . S
C1132 H1106 0.950 . S
C1132 C1128 1.385 . S
C1132 C1131 1.374 . S
C1133 C1130 1.499 . S
C1133 C1134 1.373 . S
C1133 C1135 1.389 . S
C1134 H1107 0.950 . S
C1134 C1120 1.377 . S
C1134 C1133 1.373 . S
C1135 C1119 1.377 . S
C1135 C1133 1.389 . S
C1135 C1136 1.524 . S
C1136 C1135 1.524 . S
C1136 C1137 1.397 . S
C1136 C1141 1.363 . S
C1137 H1108 0.950 . S
C1137 C1136 1.397 . S
C1137 C1138 1.334 . S
C1138 H1109 0.950 . S
C1138 C1137 1.334 . S
C1138 C1139 1.287 . S
C1139 C1138 1.287 . S
C1139 C1140 1.524 . S
C1139 H1142 0.997 . S
C1140 H1110 0.950 . S
C1140 C1139 1.524 . S
C1140 C1141 1.415 . S
C1141 H1111 0.950 . S
C1141 C1136 1.363 . S
C1141 C1140 1.415 . S
H1142 C1139 0.997 . S
H1143 C1124 0.913 . S
H1144 C1162 0.951 . S
H1145 C1164 0.951 . S
H1146 C1166 0.950 . S
H1147 C1167 0.950 . S
H1148 C1169 0.950 . S
H1149 C1172 0.950 . S
H1150 C1173 0.950 . S
H1151 C1175 0.950 . S
H1152 C1176 0.950 . S
H1153 C1177 0.951 . S
H1154 C1179 0.951 . S
H1155 C1181 0.950 . S
H1156 C1182 0.950 . S
H1157 C1184 0.950 . S
H1158 C1187 0.950 . S
H1159 C1188 0.950 . S
H1160 C1190 0.944 1_545 S
H1161 C1191 0.950 . S
C1162 H1144 0.951 . S
C1162 C1163 1.366 . S
C1162 C1164 1.388 . S
C1163 C1162 1.366 . S
C1163 C1167 1.385 . S
C1164 H1145 0.951 . S
C1164 C1162 1.388 . S
C1164 C1165 1.366 . S
C1165 C1164 1.366 . S
C1165 C1166 1.414 . S
C1165 C1168 1.499 . S
C1166 H1146 0.950 . S
C1166 C1165 1.414 . S
C1166 C1167 1.374 . S
C1167 H1147 0.950 . S
C1167 C1163 1.385 . S
C1167 C1166 1.374 . S
C1168 C1165 1.499 . S
C1168 C1169 1.373 . S
C1168 C1170 1.389 . S
C1169 H1148 0.950 . S
C1169 C1168 1.373 . S
C1169 C1185 1.377 . S
C1170 C1168 1.389 . S
C1170 C1171 1.524 . S
C1170 C1184 1.377 . S
C1171 C1170 1.524 . S
C1171 C1172 1.397 . S
C1171 C1176 1.363 . S
C1172 H1149 0.950 . S
C1172 C1171 1.397 . S
C1172 C1173 1.334 . S
C1173 H1150 0.950 . S
C1173 C1172 1.334 . S
C1173 C1174 1.287 . S
C1174 C1173 1.287 . S
C1174 C1175 1.524 . S
C1174 H1193 0.913 . S
C1175 H1151 0.950 . S
C1175 C1174 1.524 . S
C1175 C1176 1.415 . S
C1176 H1152 0.950 . S
C1176 C1171 1.363 . S
C1176 C1175 1.415 . S
C1177 H1153 0.951 . S
C1177 C1178 1.366 . S
C1177 C1179 1.388 . S
C1178 C1177 1.366 . S
C1178 C1182 1.385 . S
C1179 H1154 0.951 . S
C1179 C1177 1.388 . S
C1179 C1180 1.366 . S
C1180 C1179 1.366 . S
C1180 C1181 1.414 . S
C1180 C1183 1.499 . S
C1181 H1155 0.950 . S
C1181 C1180 1.414 . S
C1181 C1182 1.374 . S
C1182 H1156 0.950 . S
C1182 C1178 1.385 . S
C1182 C1181 1.374 . S
C1183 C1180 1.499 . S
C1183 C1184 1.373 . S
C1183 C1185 1.389 . S
C1184 H1157 0.950 . S
C1184 C1170 1.377 . S
C1184 C1183 1.373 . S
C1185 C1169 1.377 . S
C1185 C1183 1.389 . S
C1185 C1186 1.524 . S
C1186 C1185 1.524 . S
C1186 C1187 1.397 . S
C1186 C1191 1.363 . S
C1187 H1158 0.950 . S
C1187 C1186 1.397 . S
C1187 C1188 1.334 . S
C1188 H1159 0.950 . S
C1188 C1187 1.334 . S
C1188 C1189 1.287 . S
C1189 C1188 1.287 . S
C1189 C1190 1.524 . S
C1189 H1192 0.999 . S
C1190 H1160 0.944 1_565 S
C1190 C1189 1.524 . S
C1190 C1191 1.415 . S
C1191 H1161 0.950 . S
C1191 C1186 1.363 . S
C1191 C1190 1.415 . S
H1192 C1189 0.999 . S
H1193 C1174 0.913 . S
H1194 C1212 0.951 . S
H1195 C1214 0.951 . S
H1196 C1216 0.950 . S
H1197 C1217 0.950 . S
H1198 C1219 0.950 . S
H1199 C1222 0.950 . S
H1200 C1223 0.950 . S
H1201 C1225 0.950 . S
H1202 C1226 0.950 . S
H1203 C1227 0.951 . S
H1204 C1229 0.951 . S
H1205 C1231 0.950 . S
H1206 C1232 0.950 . S
H1207 C1234 0.950 . S
H1208 C1237 0.950 . S
H1209 C1238 0.950 . S
H1210 C1240 0.950 . S
H1211 C1241 0.950 . S
C1212 H1194 0.951 . S
C1212 C1213 1.366 . S
C1212 C1214 1.388 . S
C1213 C1212 1.366 . S
C1213 C1217 1.385 . S
C1214 H1195 0.951 . S
C1214 C1212 1.388 . S
C1214 C1215 1.366 . S
C1215 C1214 1.366 . S
C1215 C1216 1.414 . S
C1215 C1218 1.499 . S
C1216 H1196 0.950 . S
C1216 C1215 1.414 . S
C1216 C1217 1.374 . S
C1217 H1197 0.950 . S
C1217 C1213 1.385 . S
C1217 C1216 1.374 . S
C1218 C1215 1.499 . S
C1218 C1219 1.373 . S
C1218 C1220 1.389 . S
C1219 H1198 0.950 . S
C1219 C1218 1.373 . S
C1219 C1235 1.377 . S
C1220 C1218 1.389 . S
C1220 C1221 1.524 . S
C1220 C1234 1.377 . S
C1221 C1220 1.524 . S
C1221 C1222 1.397 . S
C1221 C1226 1.363 . S
C1222 H1199 0.950 . S
C1222 C1221 1.397 . S
C1222 C1223 1.334 . S
C1223 H1200 0.950 . S
C1223 C1222 1.334 . S
C1223 C1224 1.287 . S
C1224 C1223 1.287 . S
C1224 C1225 1.524 . S
C1224 H1243 0.913 . S
C1225 H1201 0.950 . S
C1225 C1224 1.524 . S
C1225 C1226 1.415 . S
C1226 H1202 0.950 . S
C1226 C1221 1.363 . S
C1226 C1225 1.415 . S
C1227 H1203 0.951 . S
C1227 C1228 1.366 . S
C1227 C1229 1.388 . S
C1228 C1227 1.366 . S
C1228 C1232 1.385 . S
C1229 H1204 0.951 . S
C1229 C1227 1.388 . S
C1229 C1230 1.366 . S
C1230 C1229 1.366 . S
C1230 C1231 1.414 . S
C1230 C1233 1.499 . S
C1231 H1205 0.950 . S
C1231 C1230 1.414 . S
C1231 C1232 1.374 . S
C1232 H1206 0.950 . S
C1232 C1228 1.385 . S
C1232 C1231 1.374 . S
C1233 C1230 1.499 . S
C1233 C1234 1.373 . S
C1233 C1235 1.389 . S
C1234 H1207 0.950 . S
C1234 C1220 1.377 . S
C1234 C1233 1.373 . S
C1235 C1219 1.377 . S
C1235 C1233 1.389 . S
C1235 C1236 1.524 . S
C1236 C1235 1.524 . S
C1236 C1237 1.397 . S
C1236 C1241 1.363 . S
C1237 H1208 0.950 . S
C1237 C1236 1.397 . S
C1237 C1238 1.334 . S
C1238 H1209 0.950 . S
C1238 C1237 1.334 . S
C1238 C1239 1.287 . S
C1239 C1238 1.287 . S
C1239 C1240 1.524 . S
C1239 H1242 0.999 . S
C1240 H1210 0.950 . S
C1240 C1239 1.524 . S
C1240 C1241 1.415 . S
C1241 H1211 0.950 . S
C1241 C1236 1.363 . S
C1241 C1240 1.415 . S
H1242 C1239 0.999 . S
H1243 C1224 0.913 . S
H1244 C1262 0.951 . S
H1245 C1264 0.951 . S
H1246 C1266 0.950 . S
H1247 C1267 0.950 . S
H1248 C1269 0.950 . S
H1249 C1272 0.950 . S
H1250 C1273 0.950 . S
H1251 C1275 0.950 . S
H1252 C1276 0.950 . S
H1253 C1277 0.951 . S
H1254 C1279 0.951 . S
H1255 C1281 0.950 . S
H1256 C1282 0.949 1_545 S
H1257 C1284 0.950 . S
H1258 C1287 0.950 . S
H1259 C1288 0.950 1_554 S
H1260 C1290 0.950 . S
H1261 C1291 0.950 . S
C1262 H1244 0.951 . S
C1262 C1263 1.366 . S
C1262 C1264 1.388 . S
C1263 C1262 1.366 . S
C1263 C1267 1.385 . S
C1264 H1245 0.951 . S
C1264 C1262 1.388 . S
C1264 C1265 1.366 . S
C1265 C1264 1.366 . S
C1265 C1266 1.414 . S
C1265 C1268 1.499 . S
C1266 H1246 0.950 . S
C1266 C1265 1.414 . S
C1266 C1267 1.374 . S
C1267 H1247 0.950 . S
C1267 C1263 1.385 . S
C1267 C1266 1.374 . S
C1268 C1265 1.499 . S
C1268 C1269 1.373 . S
C1268 C1270 1.389 . S
C1269 H1248 0.950 . S
C1269 C1268 1.373 . S
C1269 C1285 1.377 . S
C1270 C1268 1.389 . S
C1270 C1271 1.524 . S
C1270 C1284 1.377 . S
C1271 C1270 1.524 . S
C1271 C1272 1.397 . S
C1271 C1276 1.363 . S
C1272 H1249 0.950 . S
C1272 C1271 1.397 . S
C1272 C1273 1.334 . S
C1273 H1250 0.950 . S
C1273 C1272 1.334 . S
C1273 C1274 1.287 . S
C1274 C1273 1.287 . S
C1274 C1275 1.524 . S
C1274 H1293 0.913 . S
C1275 H1251 0.950 . S
C1275 C1274 1.524 . S
C1275 C1276 1.415 . S
C1276 H1252 0.950 . S
C1276 C1271 1.363 . S
C1276 C1275 1.415 . S
C1277 H1253 0.951 . S
C1277 C1278 1.366 . S
C1277 C1279 1.388 . S
C1278 C1277 1.366 . S
C1278 C1282 1.385 . S
C1279 H1254 0.951 . S
C1279 C1277 1.388 . S
C1279 C1280 1.366 . S
C1280 C1279 1.366 . S
C1280 C1281 1.414 . S
C1280 C1283 1.499 . S
C1281 H1255 0.950 . S
C1281 C1280 1.414 . S
C1281 C1282 1.374 . S
C1282 H1256 0.949 1_565 S
C1282 C1278 1.385 . S
C1282 C1281 1.374 . S
C1283 C1280 1.499 . S
C1283 C1284 1.373 . S
C1283 C1285 1.389 . S
C1284 H1257 0.950 . S
C1284 C1270 1.377 . S
C1284 C1283 1.373 . S
C1285 C1269 1.377 . S
C1285 C1283 1.389 . S
C1285 C1286 1.524 . S
C1286 C1285 1.524 . S
C1286 C1287 1.397 . S
C1286 C1291 1.363 . S
C1287 H1258 0.950 . S
C1287 C1286 1.397 . S
C1287 C1288 1.334 . S
C1288 H1259 0.950 1_556 S
C1288 C1287 1.334 . S
C1288 C1289 1.287 . S
C1289 C1288 1.287 . S
C1289 C1290 1.524 . S
C1289 H1292 0.991 1_556 S
C1290 H1260 0.950 . S
C1290 C1289 1.524 . S
C1290 C1291 1.415 . S
C1291 H1261 0.950 . S
C1291 C1286 1.363 . S
C1291 C1290 1.415 . S
H1292 C1289 0.991 1_554 S
H1293 C1274 0.913 . S
H1294 C1312 0.951 . S
H1295 C1314 0.951 . S
H1296 C1316 0.950 . S
H1297 C1317 0.950 . S
H1298 C1319 0.950 . S
H1299 C1322 0.950 . S
H1300 C1323 0.950 . S
H1301 C1325 0.950 . S
H1302 C1326 0.950 . S
H1303 C1327 0.951 . S
H1304 C1329 0.951 . S
H1305 C1331 0.950 1_554 S
H1306 C1332 0.950 . S
H1307 C1334 0.950 . S
H1308 C1337 0.950 . S
H1309 C1338 0.950 . S
H1310 C1340 0.950 . S
H1311 C1341 0.950 . S
C1312 H1294 0.951 . S
C1312 C1313 1.366 . S
C1312 C1314 1.388 . S
C1313 C1312 1.366 . S
C1313 C1317 1.385 . S
C1314 H1295 0.951 . S
C1314 C1312 1.388 . S
C1314 C1315 1.366 . S
C1315 C1314 1.366 . S
C1315 C1316 1.414 . S
C1315 C1318 1.499 . S
C1316 H1296 0.950 . S
C1316 C1315 1.414 . S
C1316 C1317 1.374 . S
C1317 H1297 0.950 . S
C1317 C1313 1.385 . S
C1317 C1316 1.374 . S
C1318 C1315 1.499 . S
C1318 C1319 1.373 . S
C1318 C1320 1.389 . S
C1319 H1298 0.950 . S
C1319 C1318 1.373 . S
C1319 C1335 1.377 . S
C1320 C1318 1.389 . S
C1320 C1321 1.524 . S
C1320 C1334 1.377 . S
C1321 C1320 1.524 . S
C1321 C1322 1.397 . S
C1321 C1326 1.363 1_556 S
C1322 H1299 0.950 . S
C1322 C1321 1.397 . S
C1322 C1323 1.334 . S
C1323 H1300 0.950 . S
C1323 C1322 1.334 . S
C1323 C1324 1.287 1_556 S
C1324 C1323 1.287 1_554 S
C1324 C1325 1.524 . S
C1324 H1343 0.913 . S
C1325 H1301 0.950 . S
C1325 C1324 1.524 . S
C1325 C1326 1.415 . S
C1326 H1302 0.950 . S
C1326 C1321 1.363 1_554 S
C1326 C1325 1.415 . S
C1327 H1303 0.951 . S
C1327 C1328 1.366 1_556 S
C1327 C1329 1.388 . S
C1328 C1327 1.366 1_554 S
C1328 C1332 1.385 . S
C1329 H1304 0.951 . S
C1329 C1327 1.388 . S
C1329 C1330 1.366 . S
C1330 C1329 1.366 . S
C1330 C1331 1.422 . S
C1330 C1333 1.499 . S
C1331 H1305 0.950 1_556 S
C1331 C1330 1.422 . S
C1331 C1332 1.366 1_556 S
C1332 H1306 0.950 . S
C1332 C1328 1.385 . S
C1332 C1331 1.366 1_554 S
C1333 C1330 1.499 . S
C1333 C1334 1.373 . S
C1333 C1335 1.389 . S
C1334 H1307 0.950 . S
C1334 C1320 1.377 . S
C1334 C1333 1.373 . S
C1335 C1319 1.377 . S
C1335 C1333 1.389 . S
C1335 C1336 1.524 . S
C1336 C1335 1.524 . S
C1336 C1337 1.397 . S
C1336 C1341 1.363 . S
C1337 H1308 0.950 . S
C1337 C1336 1.397 . S
C1337 C1338 1.334 . S
C1338 H1309 0.950 . S
C1338 C1337 1.334 . S
C1338 C1339 1.287 . S
C1339 C1338 1.287 . S
C1339 C1340 1.524 . S
C1339 H1342 0.999 . S
C1340 H1310 0.950 . S
C1340 C1339 1.524 . S
C1340 C1341 1.415 . S
C1341 H1311 0.950 . S
C1341 C1336 1.363 . S
C1341 C1340 1.415 . S
H1342 C1339 0.999 . S
H1343 C1324 0.913 . S
H1344 C1362 0.951 . S
H1345 C1364 0.951 . S
H1346 C1366 0.950 . S
H1347 C1367 0.950 . S
H1348 C1369 0.950 . S
H1349 C1372 0.950 . S
H1350 C1373 0.950 . S
H1351 C1375 0.950 . S
H1352 C1376 0.950 . S
H1353 C1377 0.951 . S
H1354 C1379 0.951 . S
H1355 C1381 0.950 . S
H1356 C1382 0.950 . S
H1357 C1384 0.950 . S
H1358 C1387 0.950 . S
H1359 C1388 0.950 . S
H1360 C1390 0.950 . S
H1361 C1391 0.950 . S
C1362 H1344 0.951 . S
C1362 C1363 1.366 . S
C1362 C1364 1.388 . S
C1363 C1362 1.366 . S
C1363 C1367 1.385 . S
C1364 H1345 0.951 . S
C1364 C1362 1.388 . S
C1364 C1365 1.366 . S
C1365 C1364 1.366 . S
C1365 C1366 1.414 . S
C1365 C1368 1.499 . S
C1366 H1346 0.950 . S
C1366 C1365 1.414 . S
C1366 C1367 1.374 . S
C1367 H1347 0.950 . S
C1367 C1363 1.385 . S
C1367 C1366 1.374 . S
C1368 C1365 1.499 . S
C1368 C1369 1.373 . S
C1368 C1370 1.389 . S
C1369 H1348 0.950 . S
C1369 C1368 1.373 . S
C1369 C1385 1.377 . S
C1370 C1368 1.389 . S
C1370 C1371 1.524 . S
C1370 C1384 1.377 . S
C1371 C1370 1.524 . S
C1371 C1372 1.397 . S
C1371 C1376 1.363 . S
C1372 H1349 0.950 . S
C1372 C1371 1.397 . S
C1372 C1373 1.334 . S
C1373 H1350 0.950 . S
C1373 C1372 1.334 . S
C1373 C1374 1.287 . S
C1374 C1373 1.287 . S
C1374 C1375 1.524 . S
C1374 H1393 0.913 . S
C1375 H1351 0.950 . S
C1375 C1374 1.524 . S
C1375 C1376 1.415 . S
C1376 H1352 0.950 . S
C1376 C1371 1.363 . S
C1376 C1375 1.415 . S
C1377 H1353 0.951 . S
C1377 C1378 1.366 . S
C1377 C1379 1.388 . S
C1378 C1377 1.366 . S
C1378 C1382 1.385 . S
C1379 H1354 0.951 . S
C1379 C1377 1.388 . S
C1379 C1380 1.366 . S
C1380 C1379 1.366 . S
C1380 C1381 1.414 . S
C1380 C1383 1.499 . S
C1381 H1355 0.950 . S
C1381 C1380 1.414 . S
C1381 C1382 1.374 . S
C1382 H1356 0.950 . S
C1382 C1378 1.385 . S
C1382 C1381 1.374 . S
C1383 C1380 1.499 . S
C1383 C1384 1.373 . S
C1383 C1385 1.389 . S
C1384 H1357 0.950 . S
C1384 C1370 1.377 . S
C1384 C1383 1.373 . S
C1385 C1369 1.377 . S
C1385 C1383 1.389 . S
C1385 C1386 1.524 . S
C1386 C1385 1.524 . S
C1386 C1387 1.397 . S
C1386 C1391 1.363 . S
C1387 H1358 0.950 . S
C1387 C1386 1.397 . S
C1387 C1388 1.334 . S
C1388 H1359 0.950 . S
C1388 C1387 1.334 . S
C1388 C1389 1.287 . S
C1389 C1388 1.287 . S
C1389 C1390 1.524 . S
C1389 H1392 0.999 . S
C1390 H1360 0.950 . S
C1390 C1389 1.524 . S
C1390 C1391 1.415 . S
C1391 H1361 0.950 . S
C1391 C1386 1.363 . S
C1391 C1390 1.415 . S
H1392 C1389 0.999 . S
H1393 C1374 0.913 . S
H1394 C1412 0.951 . S
H1395 C1414 0.951 . S
H1396 C1416 0.950 . S
H1397 C1417 0.950 . S
H1398 C1419 0.950 . S
H1399 C1422 0.950 . S
H1400 C1423 0.950 . S
H1401 C1425 0.950 . S
H1402 C1426 0.950 . S
H1403 C1427 0.951 . S
H1404 C1429 0.951 . S
H1405 C1431 0.950 . S
H1406 C1432 0.950 . S
H1407 C1434 0.950 . S
H1408 C1437 0.950 . S
H1409 C1438 0.950 . S
H1410 C1440 0.950 . S
H1411 C1441 0.950 . S
C1412 H1394 0.951 . S
C1412 C1413 1.366 . S
C1412 C1414 1.388 . S
C1413 C1412 1.366 . S
C1413 C1417 1.385 . S
C1414 H1395 0.951 . S
C1414 C1412 1.388 . S
C1414 C1415 1.366 . S
C1415 C1414 1.366 . S
C1415 C1416 1.414 . S
C1415 C1418 1.499 . S
C1416 H1396 0.950 . S
C1416 C1415 1.414 . S
C1416 C1417 1.374 . S
C1417 H1397 0.950 . S
C1417 C1413 1.385 . S
C1417 C1416 1.374 . S
C1418 C1415 1.499 . S
C1418 C1419 1.373 . S
C1418 C1420 1.389 . S
C1419 H1398 0.950 . S
C1419 C1418 1.373 . S
C1419 C1435 1.377 . S
C1420 C1418 1.389 . S
C1420 C1421 1.524 . S
C1420 C1434 1.377 . S
C1421 C1420 1.524 . S
C1421 C1422 1.397 . S
C1421 C1426 1.363 . S
C1422 H1399 0.950 . S
C1422 C1421 1.397 . S
C1422 C1423 1.334 . S
C1423 H1400 0.950 . S
C1423 C1422 1.334 . S
C1423 C1424 1.287 . S
C1424 C1423 1.287 . S
C1424 C1425 1.524 . S
C1424 H1443 0.913 . S
C1425 H1401 0.950 . S
C1425 C1424 1.524 . S
C1425 C1426 1.415 . S
C1426 H1402 0.950 . S
C1426 C1421 1.363 . S
C1426 C1425 1.415 . S
C1427 H1403 0.951 . S
C1427 C1428 1.366 . S
C1427 C1429 1.388 . S
C1428 C1427 1.366 . S
C1428 C1432 1.385 . S
C1429 H1404 0.951 . S
C1429 C1427 1.388 . S
C1429 C1430 1.366 . S
C1430 C1429 1.366 . S
C1430 C1431 1.414 . S
C1430 C1433 1.499 . S
C1431 H1405 0.950 . S
C1431 C1430 1.414 . S
C1431 C1432 1.374 . S
C1432 H1406 0.950 . S
C1432 C1428 1.385 . S
C1432 C1431 1.374 . S
C1433 C1430 1.499 . S
C1433 C1434 1.373 . S
C1433 C1435 1.389 . S
C1434 H1407 0.950 . S
C1434 C1420 1.377 . S
C1434 C1433 1.373 . S
C1435 C1419 1.377 . S
C1435 C1433 1.389 . S
C1435 C1436 1.524 . S
C1436 C1435 1.524 . S
C1436 C1437 1.397 . S
C1436 C1441 1.363 . S
C1437 H1408 0.950 . S
C1437 C1436 1.397 . S
C1437 C1438 1.334 . S
C1438 H1409 0.950 . S
C1438 C1437 1.334 . S
C1438 C1439 1.287 . S
C1439 C1438 1.287 . S
C1439 C1440 1.524 . S
C1439 H1442 0.999 . S
C1440 H1410 0.950 . S
C1440 C1439 1.524 . S
C1440 C1441 1.415 . S
C1441 H1411 0.950 . S
C1441 C1436 1.363 . S
C1441 C1440 1.415 . S
H1442 C1439 0.999 . S
H1443 C1424 0.913 . S
H1444 C1462 0.951 . S
H1445 C1464 0.951 . S
H1446 C1466 0.950 . S
H1447 C1467 0.950 . S
H1448 C1469 0.950 . S
H1449 C1472 0.950 . S
H1450 C1473 0.950 . S
H1451 C1475 0.950 . S
H1452 C1476 0.950 . S
H1453 C1477 0.951 . S
H1454 C1479 0.951 . S
H1455 C1481 0.950 . S
H1456 C1482 0.950 . S
H1457 C1484 0.950 . S
H1458 C1487 0.950 . S
H1459 C1488 0.950 . S
H1460 C1490 0.950 . S
H1461 C1491 0.950 . S
C1462 H1444 0.951 . S
C1462 C1463 1.366 . S
C1462 C1464 1.388 . S
C1463 C1462 1.366 . S
C1463 C1467 1.385 . S
C1464 H1445 0.951 . S
C1464 C1462 1.388 . S
C1464 C1465 1.366 . S
C1465 C1464 1.366 . S
C1465 C1466 1.414 . S
C1465 C1468 1.499 . S
C1466 H1446 0.950 . S
C1466 C1465 1.414 . S
C1466 C1467 1.374 . S
C1467 H1447 0.950 . S
C1467 C1463 1.385 . S
C1467 C1466 1.374 . S
C1468 C1465 1.499 . S
C1468 C1469 1.373 . S
C1468 C1470 1.389 . S
C1469 H1448 0.950 . S
C1469 C1468 1.373 . S
C1469 C1485 1.377 . S
C1470 C1468 1.389 . S
C1470 C1471 1.524 . S
C1470 C1484 1.377 . S
C1471 C1470 1.524 . S
C1471 C1472 1.397 . S
C1471 C1476 1.363 . S
C1472 H1449 0.950 . S
C1472 C1471 1.397 . S
C1472 C1473 1.334 . S
C1473 H1450 0.950 . S
C1473 C1472 1.334 . S
C1473 C1474 1.287 . S
C1474 C1473 1.287 . S
C1474 C1475 1.524 . S
C1474 H1493 0.913 . S
C1475 H1451 0.950 . S
C1475 C1474 1.524 . S
C1475 C1476 1.415 . S
C1476 H1452 0.950 . S
C1476 C1471 1.363 . S
C1476 C1475 1.415 . S
C1477 H1453 0.951 . S
C1477 C1478 1.366 . S
C1477 C1479 1.388 . S
C1478 C1477 1.366 . S
C1478 C1482 1.385 . S
C1479 H1454 0.951 . S
C1479 C1477 1.388 . S
C1479 C1480 1.366 . S
C1480 C1479 1.366 . S
C1480 C1481 1.414 . S
C1480 C1483 1.499 . S
C1481 H1455 0.950 . S
C1481 C1480 1.414 . S
C1481 C1482 1.374 . S
C1482 H1456 0.950 . S
C1482 C1478 1.385 . S
C1482 C1481 1.374 . S
C1483 C1480 1.499 . S
C1483 C1484 1.373 . S
C1483 C1485 1.389 . S
C1484 H1457 0.950 . S
C1484 C1470 1.377 . S
C1484 C1483 1.373 . S
C1485 C1469 1.377 . S
C1485 C1483 1.389 . S
C1485 C1486 1.524 . S
C1486 C1485 1.524 . S
C1486 C1487 1.397 . S
C1486 C1491 1.363 . S
C1487 H1458 0.950 . S
C1487 C1486 1.397 . S
C1487 C1488 1.334 . S
C1488 H1459 0.950 . S
C1488 C1487 1.334 . S
C1488 C1489 1.287 . S
C1489 C1488 1.287 . S
C1489 C1490 1.524 . S
C1489 H1492 0.999 . S
C1490 H1460 0.950 . S
C1490 C1489 1.524 . S
C1490 C1491 1.415 . S
C1491 H1461 0.950 . S
C1491 C1486 1.363 . S
C1491 C1490 1.415 . S
H1492 C1489 0.999 . S
H1493 C1474 0.913 . S
H1494 C1512 0.951 . S
H1495 C1514 0.951 . S
H1496 C1516 0.950 . S
H1497 C1517 0.950 . S
H1498 C1519 0.950 . S
H1499 C1522 0.950 . S
H1500 C1523 0.950 . S
H1501 C1525 0.950 . S
H1502 C1526 0.950 . S
H1503 C1527 0.951 . S
H1504 C1529 0.951 . S
H1505 C1531 0.950 . S
H1506 C1532 0.950 . S
H1507 C1534 0.950 . S
H1508 C1537 0.950 . S
H1509 C1538 0.950 . S
H1510 C1540 0.950 . S
H1511 C1541 0.950 1_556 S
C1512 H1494 0.951 . S
C1512 C1513 1.366 . S
C1512 C1514 1.388 . S
C1513 C1512 1.366 . S
C1513 C1517 1.385 . S
C1514 H1495 0.951 . S
C1514 C1512 1.388 . S
C1514 C1515 1.366 . S
C1515 C1514 1.366 . S
C1515 C1516 1.414 . S
C1515 C1518 1.499 . S
C1516 H1496 0.950 . S
C1516 C1515 1.414 . S
C1516 C1517 1.374 . S
C1517 H1497 0.950 . S
C1517 C1513 1.385 . S
C1517 C1516 1.374 . S
C1518 C1515 1.499 . S
C1518 C1519 1.373 . S
C1518 C1520 1.389 . S
C1519 H1498 0.950 . S
C1519 C1518 1.373 . S
C1519 C1535 1.377 . S
C1520 C1518 1.389 . S
C1520 C1521 1.524 . S
C1520 C1534 1.377 . S
C1521 C1520 1.524 . S
C1521 C1522 1.397 . S
C1521 C1526 1.363 . S
C1522 H1499 0.950 . S
C1522 C1521 1.397 . S
C1522 C1523 1.334 . S
C1523 H1500 0.950 . S
C1523 C1522 1.334 . S
C1523 C1524 1.287 . S
C1524 C1523 1.287 . S
C1524 C1525 1.524 . S
C1524 H1543 0.913 . S
C1525 H1501 0.950 . S
C1525 C1524 1.524 . S
C1525 C1526 1.415 . S
C1526 H1502 0.950 . S
C1526 C1521 1.363 . S
C1526 C1525 1.415 . S
C1527 H1503 0.951 . S
C1527 C1528 1.366 . S
C1527 C1529 1.388 . S
C1528 C1527 1.366 . S
C1528 C1532 1.385 . S
C1529 H1504 0.951 . S
C1529 C1527 1.388 . S
C1529 C1530 1.366 . S
C1530 C1529 1.366 . S
C1530 C1531 1.414 . S
C1530 C1533 1.499 . S
C1531 H1505 0.950 . S
C1531 C1530 1.414 . S
C1531 C1532 1.374 . S
C1532 H1506 0.950 . S
C1532 C1528 1.385 . S
C1532 C1531 1.374 . S
C1533 C1530 1.499 . S
C1533 C1534 1.373 . S
C1533 C1535 1.389 . S
C1534 H1507 0.950 . S
C1534 C1520 1.377 . S
C1534 C1533 1.373 . S
C1535 C1519 1.377 . S
C1535 C1533 1.389 . S
C1535 C1536 1.524 . S
C1536 C1535 1.524 . S
C1536 C1537 1.397 1_556 S
C1536 C1541 1.363 1_556 S
C1537 H1508 0.950 . S
C1537 C1536 1.397 1_554 S
C1537 C1538 1.334 . S
C1538 H1509 0.950 . S
C1538 C1537 1.334 . S
C1538 C1539 1.287 . S
C1539 C1538 1.287 . S
C1539 C1540 1.524 . S
C1539 H1542 0.999 . S
C1540 H1510 0.950 . S
C1540 C1539 1.524 . S
C1540 C1541 1.415 . S
C1541 H1511 0.950 1_554 S
C1541 C1536 1.363 1_554 S
C1541 C1540 1.415 . S
H1542 C1539 0.999 . S
H1543 C1524 0.913 . S
H1544 C1562 0.951 . S
H1545 C1564 0.951 . S
H1546 C1566 0.950 . S
H1547 C1567 0.950 . S
H1548 C1569 0.950 . S
H1549 C1572 0.950 . S
H1550 C1573 0.950 . S
H1551 C1575 0.950 . S
H1552 C1576 0.950 . S
H1553 C1577 0.951 . S
H1554 C1579 0.951 . S
H1555 C1581 0.950 . S
H1556 C1582 0.950 . S
H1557 C1584 0.950 . S
H1558 C1587 0.950 . S
H1559 C1588 0.950 . S
H1560 C1590 0.950 1_554 S
H1561 C1591 0.950 . S
C1562 H1544 0.951 . S
C1562 C1563 1.366 . S
C1562 C1564 1.388 . S
C1563 C1562 1.366 . S
C1563 C1567 1.385 . S
C1564 H1545 0.951 . S
C1564 C1562 1.388 . S
C1564 C1565 1.366 . S
C1565 C1564 1.366 . S
C1565 C1566 1.414 . S
C1565 C1568 1.499 . S
C1566 H1546 0.950 . S
C1566 C1565 1.414 . S
C1566 C1567 1.374 . S
C1567 H1547 0.950 . S
C1567 C1563 1.385 . S
C1567 C1566 1.374 . S
C1568 C1565 1.499 . S
C1568 C1569 1.373 . S
C1568 C1570 1.389 . S
C1569 H1548 0.950 . S
C1569 C1568 1.373 . S
C1569 C1585 1.377 . S
C1570 C1568 1.389 . S
C1570 C1571 1.524 . S
C1570 C1584 1.377 . S
C1571 C1570 1.524 . S
C1571 C1572 1.397 . S
C1571 C1576 1.363 . S
C1572 H1549 0.950 . S
C1572 C1571 1.397 . S
C1572 C1573 1.334 . S
C1573 H1550 0.950 . S
C1573 C1572 1.334 . S
C1573 C1574 1.287 . S
C1574 C1573 1.287 . S
C1574 C1575 1.524 . S
C1574 H1593 0.913 . S
C1575 H1551 0.950 . S
C1575 C1574 1.524 . S
C1575 C1576 1.415 . S
C1576 H1552 0.950 . S
C1576 C1571 1.363 . S
C1576 C1575 1.415 . S
C1577 H1553 0.951 . S
C1577 C1578 1.366 . S
C1577 C1579 1.388 . S
C1578 C1577 1.366 . S
C1578 C1582 1.385 . S
C1579 H1554 0.951 . S
C1579 C1577 1.388 . S
C1579 C1580 1.366 . S
C1580 C1579 1.366 . S
C1580 C1581 1.414 . S
C1580 C1583 1.499 . S
C1581 H1555 0.950 . S
C1581 C1580 1.414 . S
C1581 C1582 1.374 . S
C1582 H1556 0.950 . S
C1582 C1578 1.385 . S
C1582 C1581 1.374 . S
C1583 C1580 1.499 . S
C1583 C1584 1.373 . S
C1583 C1585 1.389 . S
C1584 H1557 0.950 . S
C1584 C1570 1.377 . S
C1584 C1583 1.373 . S
C1585 C1569 1.377 . S
C1585 C1583 1.389 . S
C1585 C1586 1.524 . S
C1586 C1585 1.524 . S
C1586 C1587 1.397 . S
C1586 C1591 1.363 . S
C1587 H1558 0.950 . S
C1587 C1586 1.397 . S
C1587 C1588 1.334 . S
C1588 H1559 0.950 . S
C1588 C1587 1.334 . S
C1588 C1589 1.287 1_556 S
C1589 C1588 1.287 1_554 S
C1589 C1590 1.524 1_554 S
C1589 H1592 0.999 . S
C1590 H1560 0.950 1_556 S
C1590 C1589 1.524 1_556 S
C1590 C1591 1.415 . S
C1591 H1561 0.950 . S
C1591 C1586 1.363 . S
C1591 C1590 1.415 . S
H1592 C1589 0.999 . S
H1593 C1574 0.913 . S
H1594 C1612 0.951 . S
H1595 C1614 0.951 . S
H1596 C1616 0.950 . S
H1597 C1617 0.950 . S
H1598 C1619 0.950 . S
H1599 C1622 0.950 . S
H1600 C1623 0.950 . S
H1601 C1625 0.950 . S
H1602 C1626 0.950 . S
H1603 C1627 0.951 . S
H1604 C1629 0.951 . S
H1605 C1631 0.950 . S
H1606 C1632 0.950 . S
H1607 C1634 0.950 . S
H1608 C1637 0.950 . S
H1609 C1638 0.950 . S
H1610 C1640 0.950 . S
H1611 C1641 0.950 . S
C1612 H1594 0.951 . S
C1612 C1613 1.366 . S
C1612 C1614 1.388 . S
C1613 C1612 1.366 . S
C1613 C1617 1.385 . S
C1614 H1595 0.951 . S
C1614 C1612 1.388 . S
C1614 C1615 1.366 . S
C1615 C1614 1.366 . S
C1615 C1616 1.414 . S
C1615 C1618 1.499 . S
C1616 H1596 0.950 . S
C1616 C1615 1.414 . S
C1616 C1617 1.374 . S
C1617 H1597 0.950 . S
C1617 C1613 1.385 . S
C1617 C1616 1.374 . S
C1618 C1615 1.499 . S
C1618 C1619 1.373 . S
C1618 C1620 1.389 . S
C1619 H1598 0.950 . S
C1619 C1618 1.373 . S
C1619 C1635 1.377 . S
C1620 C1618 1.389 . S
C1620 C1621 1.524 . S
C1620 C1634 1.377 . S
C1621 C1620 1.524 . S
C1621 C1622 1.397 . S
C1621 C1626 1.363 . S
C1622 H1599 0.950 . S
C1622 C1621 1.397 . S
C1622 C1623 1.334 . S
C1623 H1600 0.950 . S
C1623 C1622 1.334 . S
C1623 C1624 1.287 . S
C1624 C1623 1.287 . S
C1624 C1625 1.524 . S
C1624 H1643 0.913 . S
C1625 H1601 0.950 . S
C1625 C1624 1.524 . S
C1625 C1626 1.415 . S
C1626 H1602 0.950 . S
C1626 C1621 1.363 . S
C1626 C1625 1.415 . S
C1627 H1603 0.951 . S
C1627 C1628 1.366 . S
C1627 C1629 1.388 . S
C1628 C1627 1.366 . S
C1628 C1632 1.385 . S
C1629 H1604 0.951 . S
C1629 C1627 1.388 . S
C1629 C1630 1.366 . S
C1630 C1629 1.366 . S
C1630 C1631 1.414 . S
C1630 C1633 1.499 . S
C1631 H1605 0.950 . S
C1631 C1630 1.414 . S
C1631 C1632 1.374 . S
C1632 H1606 0.950 . S
C1632 C1628 1.385 . S
C1632 C1631 1.374 . S
C1633 C1630 1.499 . S
C1633 C1634 1.373 . S
C1633 C1635 1.389 . S
C1634 H1607 0.950 . S
C1634 C1620 1.377 . S
C1634 C1633 1.373 . S
C1635 C1619 1.377 . S
C1635 C1633 1.389 . S
C1635 C1636 1.524 . S
C1636 C1635 1.524 . S
C1636 C1637 1.397 . S
C1636 C1641 1.363 . S
C1637 H1608 0.950 . S
C1637 C1636 1.397 . S
C1637 C1638 1.334 . S
C1638 H1609 0.950 . S
C1638 C1637 1.334 . S
C1638 C1639 1.287 . S
C1639 C1638 1.287 . S
C1639 C1640 1.524 . S
C1639 H1642 0.999 . S
C1640 H1610 0.950 . S
C1640 C1639 1.524 . S
C1640 C1641 1.415 . S
C1641 H1611 0.950 . S
C1641 C1636 1.363 . S
C1641 C1640 1.415 . S
H1642 C1639 0.999 . S
H1643 C1624 0.913 . S
H1644 C1662 0.951 . S
H1645 C1664 0.951 . S
H1646 C1666 0.950 . S
H1647 C1667 0.950 . S
H1648 C1669 0.950 . S
H1649 C1672 0.950 . S
H1650 C1673 0.950 . S
H1651 C1675 0.948 1_545 S
H1652 C1676 0.950 . S
H1653 C1677 0.951 . S
H1654 C1679 0.951 . S
H1655 C1681 0.950 . S
H1656 C1682 0.942 1_545 S
H1657 C1684 0.950 . S
H1658 C1687 0.950 . S
H1659 C1688 0.950 . S
H1660 C1690 0.950 . S
H1661 C1691 0.950 . S
C1662 H1644 0.951 . S
C1662 C1663 1.366 . S
C1662 C1664 1.388 . S
C1663 C1662 1.366 . S
C1663 C1667 1.385 . S
C1664 H1645 0.951 . S
C1664 C1662 1.388 . S
C1664 C1665 1.366 . S
C1665 C1664 1.366 . S
C1665 C1666 1.414 . S
C1665 C1668 1.499 . S
C1666 H1646 0.950 . S
C1666 C1665 1.414 . S
C1666 C1667 1.374 . S
C1667 H1647 0.950 . S
C1667 C1663 1.385 . S
C1667 C1666 1.374 . S
C1668 C1665 1.499 . S
C1668 C1669 1.373 . S
C1668 C1670 1.389 . S
C1669 H1648 0.950 . S
C1669 C1668 1.373 . S
C1669 C1685 1.377 . S
C1670 C1668 1.389 . S
C1670 C1671 1.524 . S
C1670 C1684 1.377 . S
C1671 C1670 1.524 . S
C1671 C1672 1.397 . S
C1671 C1676 1.363 . S
C1672 H1649 0.950 . S
C1672 C1671 1.397 . S
C1672 C1673 1.334 . S
C1673 H1650 0.950 . S
C1673 C1672 1.334 . S
C1673 C1674 1.287 . S
C1674 C1673 1.287 . S
C1674 C1675 1.525 . S
C1674 H1693 0.913 . S
C1675 H1651 0.948 1_565 S
C1675 C1674 1.525 . S
C1675 C1676 1.415 . S
C1676 H1652 0.950 . S
C1676 C1671 1.363 . S
C1676 C1675 1.415 . S
C1677 H1653 0.951 . S
C1677 C1678 1.366 . S
C1677 C1679 1.388 . S
C1678 C1677 1.366 . S
C1678 C1682 1.385 . S
C1679 H1654 0.951 . S
C1679 C1677 1.388 . S
C1679 C1680 1.366 . S
C1680 C1679 1.366 . S
C1680 C1681 1.414 . S
C1680 C1683 1.499 . S
C1681 H1655 0.950 . S
C1681 C1680 1.414 . S
C1681 C1682 1.374 . S
C1682 H1656 0.942 1_565 S
C1682 C1678 1.385 . S
C1682 C1681 1.374 . S
C1683 C1680 1.499 . S
C1683 C1684 1.373 . S
C1683 C1685 1.389 . S
C1684 H1657 0.950 . S
C1684 C1670 1.377 . S
C1684 C1683 1.373 . S
C1685 C1669 1.377 . S
C1685 C1683 1.389 . S
C1685 C1686 1.524 . S
C1686 C1685 1.524 . S
C1686 C1687 1.397 . S
C1686 C1691 1.363 . S
C1687 H1658 0.950 . S
C1687 C1686 1.397 . S
C1687 C1688 1.334 . S
C1688 H1659 0.950 . S
C1688 C1687 1.334 . S
C1688 C1689 1.287 . S
C1689 C1688 1.287 . S
C1689 C1690 1.524 . S
C1689 H1692 0.999 . S
C1690 H1660 0.950 . S
C1690 C1689 1.524 . S
C1690 C1691 1.415 . S
C1691 H1661 0.950 . S
C1691 C1686 1.363 . S
C1691 C1690 1.415 . S
H1692 C1689 0.999 . S
H1693 C1674 0.913 . S
H1694 C1712 0.951 . S
H1695 C1714 0.951 . S
H1696 C1716 0.950 . S
H1697 C1717 0.950 . S
H1698 C1719 0.950 . S
H1699 C1722 0.950 . S
H1700 C1723 0.950 . S
H1701 C1725 0.950 . S
H1702 C1726 0.950 . S
H1703 C1727 0.951 . S
H1704 C1729 0.951 . S
H1705 C1731 0.950 . S
H1706 C1732 0.950 . S
H1707 C1734 0.950 . S
H1708 C1737 0.950 . S
H1709 C1738 0.950 . S
H1710 C1740 0.950 . S
H1711 C1741 0.950 . S
C1712 H1694 0.951 . S
C1712 C1713 1.366 . S
C1712 C1714 1.388 . S
C1713 C1712 1.366 . S
C1713 C1717 1.385 . S
C1714 H1695 0.951 . S
C1714 C1712 1.388 . S
C1714 C1715 1.366 . S
C1715 C1714 1.366 . S
C1715 C1716 1.414 . S
C1715 C1718 1.499 . S
C1716 H1696 0.950 . S
C1716 C1715 1.414 . S
C1716 C1717 1.374 . S
C1717 H1697 0.950 . S
C1717 C1713 1.385 . S
C1717 C1716 1.374 . S
C1718 C1715 1.499 . S
C1718 C1719 1.373 . S
C1718 C1720 1.389 . S
C1719 H1698 0.950 . S
C1719 C1718 1.373 . S
C1719 C1735 1.377 . S
C1720 C1718 1.389 . S
C1720 C1721 1.524 . S
C1720 C1734 1.377 . S
C1721 C1720 1.524 . S
C1721 C1722 1.397 . S
C1721 C1726 1.363 . S
C1722 H1699 0.950 . S
C1722 C1721 1.397 . S
C1722 C1723 1.334 . S
C1723 H1700 0.950 . S
C1723 C1722 1.334 . S
C1723 C1724 1.287 . S
C1724 C1723 1.287 . S
C1724 C1725 1.524 . S
C1724 H1743 0.913 . S
C1725 H1701 0.950 . S
C1725 C1724 1.524 . S
C1725 C1726 1.415 . S
C1726 H1702 0.950 . S
C1726 C1721 1.363 . S
C1726 C1725 1.415 . S
C1727 H1703 0.951 . S
C1727 C1728 1.366 . S
C1727 C1729 1.388 . S
C1728 C1727 1.366 . S
C1728 C1732 1.385 . S
C1729 H1704 0.951 . S
C1729 C1727 1.388 . S
C1729 C1730 1.366 . S
C1730 C1729 1.366 . S
C1730 C1731 1.414 . S
C1730 C1733 1.499 . S
C1731 H1705 0.950 . S
C1731 C1730 1.414 . S
C1731 C1732 1.374 . S
C1732 H1706 0.950 . S
C1732 C1728 1.385 . S
C1732 C1731 1.374 . S
C1733 C1730 1.499 . S
C1733 C1734 1.373 . S
C1733 C1735 1.389 . S
C1734 H1707 0.950 . S
C1734 C1720 1.377 . S
C1734 C1733 1.373 . S
C1735 C1719 1.377 . S
C1735 C1733 1.389 . S
C1735 C1736 1.524 . S
C1736 C1735 1.524 . S
C1736 C1737 1.397 . S
C1736 C1741 1.363 . S
C1737 H1708 0.950 . S
C1737 C1736 1.397 . S
C1737 C1738 1.334 . S
C1738 H1709 0.950 . S
C1738 C1737 1.334 . S
C1738 C1739 1.287 . S
C1739 C1738 1.287 . S
C1739 C1740 1.524 . S
C1739 H1742 0.999 . S
C1740 H1710 0.950 . S
C1740 C1739 1.524 . S
C1740 C1741 1.415 . S
C1741 H1711 0.950 . S
C1741 C1736 1.363 . S
C1741 C1740 1.415 . S
H1742 C1739 0.999 . S
H1743 C1724 0.913 . S
H1744 C1762 0.951 . S
H1745 C1764 0.951 . S
H1746 C1766 0.950 . S
H1747 C1767 0.950 . S
H1748 C1769 0.950 . S
H1749 C1772 0.950 . S
H1750 C1773 0.950 . S
H1751 C1775 0.950 . S
H1752 C1776 0.950 . S
H1753 C1777 0.951 . S
H1754 C1779 0.951 . S
H1755 C1781 0.950 . S
H1756 C1782 0.950 . S
H1757 C1784 0.950 . S
H1758 C1787 0.950 . S
H1759 C1788 0.950 . S
H1760 C1790 0.950 . S
H1761 C1791 0.950 . S
C1762 H1744 0.951 . S
C1762 C1763 1.366 . S
C1762 C1764 1.388 . S
C1763 C1762 1.366 . S
C1763 C1767 1.385 . S
C1764 H1745 0.951 . S
C1764 C1762 1.388 . S
C1764 C1765 1.366 . S
C1765 C1764 1.366 . S
C1765 C1766 1.414 . S
C1765 C1768 1.499 . S
C1766 H1746 0.950 . S
C1766 C1765 1.414 . S
C1766 C1767 1.374 . S
C1767 H1747 0.950 . S
C1767 C1763 1.385 . S
C1767 C1766 1.374 . S
C1768 C1765 1.499 . S
C1768 C1769 1.373 . S
C1768 C1770 1.389 . S
C1769 H1748 0.950 . S
C1769 C1768 1.373 . S
C1769 C1785 1.377 . S
C1770 C1768 1.389 . S
C1770 C1771 1.524 . S
C1770 C1784 1.377 . S
C1771 C1770 1.524 . S
C1771 C1772 1.397 . S
C1771 C1776 1.363 . S
C1772 H1749 0.950 . S
C1772 C1771 1.397 . S
C1772 C1773 1.334 . S
C1773 H1750 0.950 . S
C1773 C1772 1.334 . S
C1773 C1774 1.287 . S
C1774 C1773 1.287 . S
C1774 C1775 1.524 . S
C1774 H1793 0.913 . S
C1775 H1751 0.950 . S
C1775 C1774 1.524 . S
C1775 C1776 1.415 . S
C1776 H1752 0.950 . S
C1776 C1771 1.363 . S
C1776 C1775 1.415 . S
C1777 H1753 0.951 . S
C1777 C1778 1.366 . S
C1777 C1779 1.388 . S
C1778 C1777 1.366 . S
C1778 C1782 1.385 . S
C1779 H1754 0.951 . S
C1779 C1777 1.388 . S
C1779 C1780 1.366 . S
C1780 C1779 1.366 . S
C1780 C1781 1.414 . S
C1780 C1783 1.499 . S
C1781 H1755 0.950 . S
C1781 C1780 1.414 . S
C1781 C1782 1.374 . S
C1782 H1756 0.950 . S
C1782 C1778 1.385 . S
C1782 C1781 1.374 . S
C1783 C1780 1.499 . S
C1783 C1784 1.373 . S
C1783 C1785 1.389 . S
C1784 H1757 0.950 . S
C1784 C1770 1.377 . S
C1784 C1783 1.373 . S
C1785 C1769 1.377 . S
C1785 C1783 1.389 . S
C1785 C1786 1.524 . S
C1786 C1785 1.524 . S
C1786 C1787 1.397 . S
C1786 C1791 1.363 . S
C1787 H1758 0.950 . S
C1787 C1786 1.397 . S
C1787 C1788 1.334 . S
C1788 H1759 0.950 . S
C1788 C1787 1.334 . S
C1788 C1789 1.287 . S
C1789 C1788 1.287 . S
C1789 C1790 1.524 . S
C1789 H1792 0.999 . S
C1790 H1760 0.950 . S
C1790 C1789 1.524 . S
C1790 C1791 1.415 . S
C1791 H1761 0.950 . S
C1791 C1786 1.363 . S
C1791 C1790 1.415 . S
H1792 C1789 0.999 . S
H1793 C1774 0.913 . S
H1794 C1812 0.951 . S
H1795 C1814 0.951 . S
H1796 C1816 0.950 . S
H1797 C1817 0.950 . S
H1798 C1819 0.950 . S
H1799 C1822 0.950 . S
H1800 C1823 0.950 . S
H1801 C1825 0.950 . S
H1802 C1826 0.950 . S
H1803 C1827 0.951 . S
H1804 C1829 0.951 . S
H1805 C1831 0.950 . S
H1806 C1832 0.950 . S
H1807 C1834 0.950 . S
H1808 C1837 0.950 . S
H1809 C1838 0.950 . S
H1810 C1840 0.950 . S
H1811 C1841 0.950 . S
C1812 H1794 0.951 . S
C1812 C1813 1.366 . S
C1812 C1814 1.388 . S
C1813 C1812 1.366 . S
C1813 C1817 1.385 . S
C1814 H1795 0.951 . S
C1814 C1812 1.388 . S
C1814 C1815 1.366 . S
C1815 C1814 1.366 . S
C1815 C1816 1.414 . S
C1815 C1818 1.499 . S
C1816 H1796 0.950 . S
C1816 C1815 1.414 . S
C1816 C1817 1.374 . S
C1817 H1797 0.950 . S
C1817 C1813 1.385 . S
C1817 C1816 1.374 . S
C1818 C1815 1.499 . S
C1818 C1819 1.373 . S
C1818 C1820 1.389 . S
C1819 H1798 0.950 . S
C1819 C1818 1.373 . S
C1819 C1835 1.377 . S
C1820 C1818 1.389 . S
C1820 C1821 1.524 . S
C1820 C1834 1.377 . S
C1821 C1820 1.524 . S
C1821 C1822 1.397 . S
C1821 C1826 1.363 . S
C1822 H1799 0.950 . S
C1822 C1821 1.397 . S
C1822 C1823 1.334 . S
C1823 H1800 0.950 . S
C1823 C1822 1.334 . S
C1823 C1824 1.287 . S
C1824 C1823 1.287 . S
C1824 C1825 1.524 . S
C1824 H1843 0.913 . S
C1825 H1801 0.950 . S
C1825 C1824 1.524 . S
C1825 C1826 1.415 . S
C1826 H1802 0.950 . S
C1826 C1821 1.363 . S
C1826 C1825 1.415 . S
C1827 H1803 0.951 . S
C1827 C1828 1.366 . S
C1827 C1829 1.388 . S
C1828 C1827 1.366 . S
C1828 C1832 1.385 . S
C1829 H1804 0.951 . S
C1829 C1827 1.388 . S
C1829 C1830 1.366 . S
C1830 C1829 1.366 . S
C1830 C1831 1.414 . S
C1830 C1833 1.499 . S
C1831 H1805 0.950 . S
C1831 C1830 1.414 . S
C1831 C1832 1.374 . S
C1832 H1806 0.950 . S
C1832 C1828 1.385 . S
C1832 C1831 1.374 . S
C1833 C1830 1.499 . S
C1833 C1834 1.373 . S
C1833 C1835 1.389 . S
C1834 H1807 0.950 . S
C1834 C1820 1.377 . S
C1834 C1833 1.373 . S
C1835 C1819 1.377 . S
C1835 C1833 1.389 . S
C1835 C1836 1.524 . S
C1836 C1835 1.524 . S
C1836 C1837 1.397 . S
C1836 C1841 1.363 . S
C1837 H1808 0.950 . S
C1837 C1836 1.397 . S
C1837 C1838 1.334 . S
C1838 H1809 0.950 . S
C1838 C1837 1.334 . S
C1838 C1839 1.287 . S
C1839 C1838 1.287 . S
C1839 C1840 1.524 . S
C1839 H1842 0.999 . S
C1840 H1810 0.950 . S
C1840 C1839 1.524 . S
C1840 C1841 1.415 . S
C1841 H1811 0.950 . S
C1841 C1836 1.363 . S
C1841 C1840 1.415 . S
H1842 C1839 0.999 . S
H1843 C1824 0.913 . S
H1844 C1862 0.951 . S
H1845 C1864 0.951 . S
H1846 C1866 0.950 . S
H1847 C1867 0.950 . S
H1848 C1869 0.950 . S
H1849 C1872 0.950 . S
H1850 C1873 0.950 . S
H1851 C1875 0.950 . S
H1852 C1876 0.950 . S
H1853 C1877 0.951 . S
H1854 C1879 0.951 . S
H1855 C1881 0.950 . S
H1856 C1882 0.950 . S
H1857 C1884 0.950 . S
H1858 C1887 0.950 . S
H1859 C1888 0.950 . S
H1860 C1890 0.950 . S
H1861 C1891 0.950 . S
C1862 H1844 0.951 . S
C1862 C1863 1.366 . S
C1862 C1864 1.388 . S
C1863 C1862 1.366 . S
C1863 C1867 1.385 . S
C1864 H1845 0.951 . S
C1864 C1862 1.388 . S
C1864 C1865 1.366 . S
C1865 C1864 1.366 . S
C1865 C1866 1.414 . S
C1865 C1868 1.499 . S
C1866 H1846 0.950 . S
C1866 C1865 1.414 . S
C1866 C1867 1.374 . S
C1867 H1847 0.950 . S
C1867 C1863 1.385 . S
C1867 C1866 1.374 . S
C1868 C1865 1.499 . S
C1868 C1869 1.373 . S
C1868 C1870 1.389 . S
C1869 H1848 0.950 . S
C1869 C1868 1.373 . S
C1869 C1885 1.377 . S
C1870 C1868 1.389 . S
C1870 C1871 1.524 . S
C1870 C1884 1.377 . S
C1871 C1870 1.524 . S
C1871 C1872 1.397 . S
C1871 C1876 1.363 . S
C1872 H1849 0.950 . S
C1872 C1871 1.397 . S
C1872 C1873 1.334 . S
C1873 H1850 0.950 . S
C1873 C1872 1.334 . S
C1873 C1874 1.287 . S
C1874 C1873 1.287 . S
C1874 C1875 1.524 . S
C1874 H1893 0.913 . S
C1875 H1851 0.950 . S
C1875 C1874 1.524 . S
C1875 C1876 1.415 . S
C1876 H1852 0.950 . S
C1876 C1871 1.363 . S
C1876 C1875 1.415 . S
C1877 H1853 0.951 . S
C1877 C1878 1.366 . S
C1877 C1879 1.388 . S
C1878 C1877 1.366 . S
C1878 C1882 1.385 . S
C1879 H1854 0.951 . S
C1879 C1877 1.388 . S
C1879 C1880 1.366 . S
C1880 C1879 1.366 . S
C1880 C1881 1.414 . S
C1880 C1883 1.499 . S
C1881 H1855 0.950 . S
C1881 C1880 1.414 . S
C1881 C1882 1.374 . S
C1882 H1856 0.950 . S
C1882 C1878 1.385 . S
C1882 C1881 1.374 . S
C1883 C1880 1.499 . S
C1883 C1884 1.373 . S
C1883 C1885 1.389 . S
C1884 H1857 0.950 . S
C1884 C1870 1.377 . S
C1884 C1883 1.373 . S
C1885 C1869 1.377 . S
C1885 C1883 1.389 . S
C1885 C1886 1.524 . S
C1886 C1885 1.524 . S
C1886 C1887 1.397 . S
C1886 C1891 1.363 . S
C1887 H1858 0.950 . S
C1887 C1886 1.397 . S
C1887 C1888 1.334 . S
C1888 H1859 0.950 . S
C1888 C1887 1.334 . S
C1888 C1889 1.287 . S
C1889 C1888 1.287 . S
C1889 C1890 1.524 . S
C1889 H1892 0.999 1_556 S
C1890 H1860 0.950 . S
C1890 C1889 1.524 . S
C1890 C1891 1.415 . S
C1891 H1861 0.950 . S
C1891 C1886 1.363 . S
C1891 C1890 1.415 . S
H1892 C1889 0.999 1_554 S
H1893 C1874 0.913 . S
H1894 C1912 0.951 . S
H1895 C1914 0.951 . S
H1896 C1916 0.950 . S
H1897 C1917 0.950 . S
H1898 C1919 0.950 . S
H1899 C1922 0.950 . S
H1900 C1923 0.950 . S
H1901 C1925 0.950 . S
H1902 C1926 0.950 . S
H1903 C1927 0.951 . S
H1904 C1929 0.951 . S
H1905 C1931 0.950 . S
H1906 C1932 0.950 . S
H1907 C1934 0.950 . S
H1908 C1937 0.950 . S
H1909 C1938 0.950 . S
H1910 C1940 0.950 . S
H1911 C1941 0.950 . S
C1912 H1894 0.951 . S
C1912 C1913 1.366 . S
C1912 C1914 1.388 . S
C1913 C1912 1.366 . S
C1913 C1917 1.385 . S
C1914 H1895 0.951 . S
C1914 C1912 1.388 . S
C1914 C1915 1.366 . S
C1915 C1914 1.366 . S
C1915 C1916 1.414 . S
C1915 C1918 1.499 . S
C1916 H1896 0.950 . S
C1916 C1915 1.414 . S
C1916 C1917 1.374 . S
C1917 H1897 0.950 . S
C1917 C1913 1.385 . S
C1917 C1916 1.374 . S
C1918 C1915 1.499 . S
C1918 C1919 1.373 . S
C1918 C1920 1.389 . S
C1919 H1898 0.950 . S
C1919 C1918 1.373 . S
C1919 C1935 1.377 . S
C1920 C1918 1.389 . S
C1920 C1921 1.524 . S
C1920 C1934 1.377 . S
C1921 C1920 1.524 . S
C1921 C1922 1.397 . S
C1921 C1926 1.363 . S
C1922 H1899 0.950 . S
C1922 C1921 1.397 . S
C1922 C1923 1.334 . S
C1923 H1900 0.950 . S
C1923 C1922 1.334 . S
C1923 C1924 1.287 . S
C1924 C1923 1.287 . S
C1924 C1925 1.524 . S
C1924 H1943 0.913 . S
C1925 H1901 0.950 . S
C1925 C1924 1.524 . S
C1925 C1926 1.415 . S
C1926 H1902 0.950 . S
C1926 C1921 1.363 . S
C1926 C1925 1.415 . S
C1927 H1903 0.951 . S
C1927 C1928 1.366 . S
C1927 C1929 1.388 . S
C1928 C1927 1.366 . S
C1928 C1932 1.385 . S
C1929 H1904 0.951 . S
C1929 C1927 1.388 . S
C1929 C1930 1.366 . S
C1930 C1929 1.366 . S
C1930 C1931 1.414 . S
C1930 C1933 1.499 . S
C1931 H1905 0.950 . S
C1931 C1930 1.414 . S
C1931 C1932 1.374 . S
C1932 H1906 0.950 . S
C1932 C1928 1.385 . S
C1932 C1931 1.374 . S
C1933 C1930 1.499 . S
C1933 C1934 1.373 . S
C1933 C1935 1.389 . S
C1934 H1907 0.950 . S
C1934 C1920 1.377 . S
C1934 C1933 1.373 . S
C1935 C1919 1.377 . S
C1935 C1933 1.389 . S
C1935 C1936 1.524 . S
C1936 C1935 1.524 . S
C1936 C1937 1.397 . S
C1936 C1941 1.363 . S
C1937 H1908 0.950 . S
C1937 C1936 1.397 . S
C1937 C1938 1.334 1_556 S
C1938 H1909 0.950 . S
C1938 C1937 1.334 1_554 S
C1938 C1939 1.287 . S
C1939 C1938 1.287 . S
C1939 C1940 1.524 . S
C1939 H1942 0.999 . S
C1940 H1910 0.950 . S
C1940 C1939 1.524 . S
C1940 C1941 1.415 1_554 S
C1941 H1911 0.950 . S
C1941 C1936 1.363 . S
C1941 C1940 1.415 1_556 S
H1942 C1939 0.999 . S
H1943 C1924 0.913 . S
H1944 C1962 0.951 . S
H1945 C1964 0.951 . S
H1946 C1966 0.950 . S
H1947 C1967 0.950 . S
H1948 C1969 0.950 . S
H1949 C1972 0.950 . S
H1950 C1973 0.950 . S
H1951 C1975 0.950 . S
H1952 C1976 0.950 . S
H1953 C1977 0.951 1_554 S
H1954 C1979 0.951 . S
H1955 C1981 0.950 . S
H1956 C1982 0.950 . S
H1957 C1984 0.950 . S
H1958 C1987 0.950 . S
H1959 C1988 0.950 . S
H1960 C1990 0.950 . S
H1961 C1991 0.950 . S
C1962 H1944 0.951 . S
C1962 C1963 1.366 . S
C1962 C1964 1.388 . S
C1963 C1962 1.366 . S
C1963 C1967 1.385 . S
C1964 H1945 0.951 . S
C1964 C1962 1.388 . S
C1964 C1965 1.366 . S
C1965 C1964 1.366 . S
C1965 C1966 1.414 . S
C1965 C1968 1.499 . S
C1966 H1946 0.950 . S
C1966 C1965 1.414 . S
C1966 C1967 1.374 . S
C1967 H1947 0.950 . S
C1967 C1963 1.385 . S
C1967 C1966 1.374 . S
C1968 C1965 1.499 . S
C1968 C1969 1.373 . S
C1968 C1970 1.389 . S
C1969 H1948 0.950 . S
C1969 C1968 1.373 . S
C1969 C1985 1.377 . S
C1970 C1968 1.389 . S
C1970 C1971 1.524 . S
C1970 C1984 1.377 . S
C1971 C1970 1.524 . S
C1971 C1972 1.397 . S
C1971 C1976 1.363 . S
C1972 H1949 0.950 . S
C1972 C1971 1.397 . S
C1972 C1973 1.334 . S
C1973 H1950 0.950 . S
C1973 C1972 1.334 . S
C1973 C1974 1.287 . S
C1974 C1973 1.287 . S
C1974 C1975 1.524 . S
C1974 H1993 0.913 . S
C1975 H1951 0.950 . S
C1975 C1974 1.524 . S
C1975 C1976 1.415 . S
C1976 H1952 0.950 . S
C1976 C1971 1.363 . S
C1976 C1975 1.415 . S
C1977 H1953 0.951 1_556 S
C1977 C1978 1.366 . S
C1977 C1979 1.388 . S
C1978 C1977 1.366 . S
C1978 C1982 1.385 . S
C1979 H1954 0.951 . S
C1979 C1977 1.388 . S
C1979 C1980 1.366 . S
C1980 C1979 1.366 . S
C1980 C1981 1.414 . S
C1980 C1983 1.499 . S
C1981 H1955 0.950 . S
C1981 C1980 1.414 . S
C1981 C1982 1.374 . S
C1982 H1956 0.950 . S
C1982 C1978 1.385 . S
C1982 C1981 1.374 . S
C1983 C1980 1.499 . S
C1983 C1984 1.373 . S
C1983 C1985 1.389 . S
C1984 H1957 0.950 . S
C1984 C1970 1.377 . S
C1984 C1983 1.373 . S
C1985 C1969 1.377 . S
C1985 C1983 1.389 . S
C1985 C1986 1.524 . S
C1986 C1985 1.524 . S
C1986 C1987 1.397 . S
C1986 C1991 1.363 . S
C1987 H1958 0.950 . S
C1987 C1986 1.397 . S
C1987 C1988 1.334 . S
C1988 H1959 0.950 . S
C1988 C1987 1.334 . S
C1988 C1989 1.287 . S
C1989 C1988 1.287 . S
C1989 C1990 1.524 . S
C1989 H1992 0.999 . S
C1990 H1960 0.950 . S
C1990 C1989 1.524 . S
C1990 C1991 1.415 . S
C1991 H1961 0.950 . S
C1991 C1986 1.363 . S
C1991 C1990 1.415 . S
H1992 C1989 0.999 . S
H1993 C1974 0.913 . S
H1994 C2012 0.951 . S
H1995 C2014 0.951 . S
H1996 C2016 0.950 . S
H1997 C2017 0.950 . S
H1998 C2019 0.950 . S
H1999 C2022 0.950 . S
H2000 C2023 0.950 . S
H2001 C2025 0.950 . S
H2002 C2026 0.950 . S
H2003 C2027 0.951 1_554 S
H2004 C2029 0.951 . S
H2005 C2031 0.950 . S
H2006 C2032 0.950 . S
H2007 C2034 0.950 . S
H2008 C2037 0.950 . S
H2009 C2038 0.950 . S
H2010 C2040 0.950 . S
H2011 C2041 0.950 . S
C2012 H1994 0.951 . S
C2012 C2013 1.366 . S
C2012 C2014 1.388 . S
C2013 C2012 1.366 . S
C2013 C2017 1.385 . S
C2014 H1995 0.951 . S
C2014 C2012 1.388 . S
C2014 C2015 1.366 . S
C2015 C2014 1.366 . S
C2015 C2016 1.414 . S
C2015 C2018 1.499 . S
C2016 H1996 0.950 . S
C2016 C2015 1.414 . S
C2016 C2017 1.374 . S
C2017 H1997 0.950 . S
C2017 C2013 1.385 . S
C2017 C2016 1.374 . S
C2018 C2015 1.499 . S
C2018 C2019 1.373 . S
C2018 C2020 1.389 . S
C2019 H1998 0.950 . S
C2019 C2018 1.373 . S
C2019 C2035 1.377 . S
C2020 C2018 1.389 . S
C2020 C2021 1.524 . S
C2020 C2034 1.377 . S
C2021 C2020 1.524 . S
C2021 C2022 1.397 . S
C2021 C2026 1.363 . S
C2022 H1999 0.950 . S
C2022 C2021 1.397 . S
C2022 C2023 1.334 . S
C2023 H2000 0.950 . S
C2023 C2022 1.334 . S
C2023 C2024 1.287 . S
C2024 C2023 1.287 . S
C2024 C2025 1.524 . S
C2024 H2043 0.913 . S
C2025 H2001 0.950 . S
C2025 C2024 1.524 . S
C2025 C2026 1.415 . S
C2026 H2002 0.950 . S
C2026 C2021 1.363 . S
C2026 C2025 1.415 . S
C2027 H2003 0.951 1_556 S
C2027 C2028 1.366 . S
C2027 C2029 1.388 . S
C2028 C2027 1.366 . S
C2028 C2032 1.385 . S
C2029 H2004 0.951 . S
C2029 C2027 1.388 . S
C2029 C2030 1.366 . S
C2030 C2029 1.366 . S
C2030 C2031 1.414 . S
C2030 C2033 1.499 . S
C2031 H2005 0.950 . S
C2031 C2030 1.414 . S
C2031 C2032 1.374 . S
C2032 H2006 0.950 . S
C2032 C2028 1.385 . S
C2032 C2031 1.374 . S
C2033 C2030 1.499 . S
C2033 C2034 1.373 . S
C2033 C2035 1.389 . S
C2034 H2007 0.950 . S
C2034 C2020 1.377 . S
C2034 C2033 1.373 . S
C2035 C2019 1.377 . S
C2035 C2033 1.389 . S
C2035 C2036 1.524 . S
C2036 C2035 1.524 . S
C2036 C2037 1.397 . S
C2036 C2041 1.363 . S
C2037 H2008 0.950 . S
C2037 C2036 1.397 . S
C2037 C2038 1.334 . S
C2038 H2009 0.950 . S
C2038 C2037 1.334 . S
C2038 C2039 1.287 . S
C2039 C2038 1.287 . S
C2039 C2040 1.524 . S
C2039 H2042 0.999 . S
C2040 H2010 0.950 . S
C2040 C2039 1.524 . S
C2040 C2041 1.415 . S
C2041 H2011 0.950 . S
C2041 C2036 1.363 . S
C2041 C2040 1.415 . S
H2042 C2039 0.999 . S
H2043 C2024 0.913 . S
H2044 C2062 0.951 . S
H2045 C2064 0.951 . S
H2046 C2066 0.950 . S
H2047 C2067 0.950 . S
H2048 C2069 0.950 . S
H2049 C2072 0.950 . S
H2050 C2073 0.950 . S
H2051 C2075 0.950 . S
H2052 C2076 0.950 . S
H2053 C2077 0.951 . S
H2054 C2079 0.951 . S
H2055 C2081 0.950 . S
H2056 C2082 0.950 . S
H2057 C2084 0.950 . S
H2058 C2087 0.950 . S
H2059 C2088 0.950 . S
H2060 C2090 0.950 . S
H2061 C2091 0.950 . S
C2062 H2044 0.951 . S
C2062 C2063 1.366 . S
C2062 C2064 1.388 . S
C2063 C2062 1.366 . S
C2063 C2067 1.385 . S
C2064 H2045 0.951 . S
C2064 C2062 1.388 . S
C2064 C2065 1.366 . S
C2065 C2064 1.366 . S
C2065 C2066 1.414 . S
C2065 C2068 1.499 . S
C2066 H2046 0.950 . S
C2066 C2065 1.414 . S
C2066 C2067 1.374 . S
C2067 H2047 0.950 . S
C2067 C2063 1.385 . S
C2067 C2066 1.374 . S
C2068 C2065 1.499 . S
C2068 C2069 1.373 . S
C2068 C2070 1.389 . S
C2069 H2048 0.950 . S
C2069 C2068 1.373 . S
C2069 C2085 1.377 . S
C2070 C2068 1.389 . S
C2070 C2071 1.524 . S
C2070 C2084 1.377 . S
C2071 C2070 1.524 . S
C2071 C2072 1.397 . S
C2071 C2076 1.363 . S
C2072 H2049 0.950 . S
C2072 C2071 1.397 . S
C2072 C2073 1.334 . S
C2073 H2050 0.950 . S
C2073 C2072 1.334 . S
C2073 C2074 1.287 . S
C2074 C2073 1.287 . S
C2074 C2075 1.524 . S
C2074 H2093 0.913 . S
C2075 H2051 0.950 . S
C2075 C2074 1.524 . S
C2075 C2076 1.415 . S
C2076 H2052 0.950 . S
C2076 C2071 1.363 . S
C2076 C2075 1.415 . S
C2077 H2053 0.951 . S
C2077 C2078 1.366 . S
C2077 C2079 1.388 . S
C2078 C2077 1.366 . S
C2078 C2082 1.385 . S
C2079 H2054 0.951 . S
C2079 C2077 1.388 . S
C2079 C2080 1.366 . S
C2080 C2079 1.366 . S
C2080 C2081 1.414 . S
C2080 C2083 1.499 . S
C2081 H2055 0.950 . S
C2081 C2080 1.414 . S
C2081 C2082 1.374 . S
C2082 H2056 0.950 . S
C2082 C2078 1.385 . S
C2082 C2081 1.374 . S
C2083 C2080 1.499 . S
C2083 C2084 1.373 . S
C2083 C2085 1.389 . S
C2084 H2057 0.950 . S
C2084 C2070 1.377 . S
C2084 C2083 1.373 . S
C2085 C2069 1.377 . S
C2085 C2083 1.389 . S
C2085 C2086 1.524 . S
C2086 C2085 1.524 . S
C2086 C2087 1.397 . S
C2086 C2091 1.363 . S
C2087 H2058 0.950 . S
C2087 C2086 1.397 . S
C2087 C2088 1.334 . S
C2088 H2059 0.950 . S
C2088 C2087 1.334 . S
C2088 C2089 1.287 . S
C2089 C2088 1.287 . S
C2089 C2090 1.524 . S
C2089 H2092 0.999 . S
C2090 H2060 0.950 . S
C2090 C2089 1.524 . S
C2090 C2091 1.415 . S
C2091 H2061 0.950 . S
C2091 C2086 1.363 . S
C2091 C2090 1.415 . S
H2092 C2089 0.999 . S
H2093 C2074 0.913 . S
H2094 C2112 0.951 . S
H2095 C2114 0.951 . S
H2096 C2116 0.950 . S
H2097 C2117 0.950 . S
H2098 C2119 0.950 . S
H2099 C2122 0.950 . S
H2100 C2123 0.950 . S
H2101 C2125 0.950 . S
H2102 C2126 0.950 . S
H2103 C2127 0.951 . S
H2104 C2129 0.951 . S
H2105 C2131 0.950 . S
H2106 C2132 0.950 . S
H2107 C2134 0.950 . S
H2108 C2137 0.950 . S
H2109 C2138 0.950 . S
H2110 C2140 0.950 . S
H2111 C2141 0.950 . S
C2112 H2094 0.951 . S
C2112 C2113 1.366 . S
C2112 C2114 1.388 . S
C2113 C2112 1.366 . S
C2113 C2117 1.385 . S
C2114 H2095 0.951 . S
C2114 C2112 1.388 . S
C2114 C2115 1.366 . S
C2115 C2114 1.366 . S
C2115 C2116 1.414 . S
C2115 C2118 1.499 . S
C2116 H2096 0.950 . S
C2116 C2115 1.414 . S
C2116 C2117 1.374 . S
C2117 H2097 0.950 . S
C2117 C2113 1.385 . S
C2117 C2116 1.374 . S
C2118 C2115 1.499 . S
C2118 C2119 1.373 . S
C2118 C2120 1.389 . S
C2119 H2098 0.950 . S
C2119 C2118 1.373 . S
C2119 C2135 1.377 . S
C2120 C2118 1.389 . S
C2120 C2121 1.524 . S
C2120 C2134 1.377 . S
C2121 C2120 1.524 . S
C2121 C2122 1.397 . S
C2121 C2126 1.363 . S
C2122 H2099 0.950 . S
C2122 C2121 1.397 . S
C2122 C2123 1.334 . S
C2123 H2100 0.950 . S
C2123 C2122 1.334 . S
C2123 C2124 1.287 . S
C2124 C2123 1.287 . S
C2124 C2125 1.524 . S
C2124 H2143 0.913 . S
C2125 H2101 0.950 . S
C2125 C2124 1.524 . S
C2125 C2126 1.415 . S
C2126 H2102 0.950 . S
C2126 C2121 1.363 . S
C2126 C2125 1.415 . S
C2127 H2103 0.951 . S
C2127 C2128 1.366 . S
C2127 C2129 1.388 . S
C2128 C2127 1.366 . S
C2128 C2132 1.385 . S
C2129 H2104 0.951 . S
C2129 C2127 1.388 . S
C2129 C2130 1.366 . S
C2130 C2129 1.366 . S
C2130 C2131 1.414 . S
C2130 C2133 1.499 . S
C2131 H2105 0.950 . S
C2131 C2130 1.414 . S
C2131 C2132 1.374 . S
C2132 H2106 0.950 . S
C2132 C2128 1.385 . S
C2132 C2131 1.374 . S
C2133 C2130 1.499 . S
C2133 C2134 1.373 . S
C2133 C2135 1.389 . S
C2134 H2107 0.950 . S
C2134 C2120 1.377 . S
C2134 C2133 1.373 . S
C2135 C2119 1.377 . S
C2135 C2133 1.389 . S
C2135 C2136 1.524 . S
C2136 C2135 1.524 . S
C2136 C2137 1.397 . S
C2136 C2141 1.363 . S
C2137 H2108 0.950 . S
C2137 C2136 1.397 . S
C2137 C2138 1.334 . S
C2138 H2109 0.950 . S
C2138 C2137 1.334 . S
C2138 C2139 1.287 . S
C2139 C2138 1.287 . S
C2139 C2140 1.524 . S
C2139 H2142 0.999 . S
C2140 H2110 0.950 . S
C2140 C2139 1.524 . S
C2140 C2141 1.415 . S
C2141 H2111 0.950 . S
C2141 C2136 1.363 . S
C2141 C2140 1.415 . S
H2142 C2139 0.999 . S
H2143 C2124 0.913 . S
H2144 C2162 0.951 . S
H2145 C2164 0.951 . S
H2146 C2166 0.950 . S
H2147 C2167 0.950 . S
H2148 C2169 0.950 . S
H2149 C2172 0.950 . S
H2150 C2173 0.950 . S
H2151 C2175 0.950 . S
H2152 C2176 0.950 . S
H2153 C2177 0.951 . S
H2154 C2179 0.951 . S
H2155 C2181 0.950 . S
H2156 C2182 0.950 . S
H2157 C2184 0.950 . S
H2158 C2187 0.950 . S
H2159 C2188 0.950 . S
H2160 C2190 0.950 . S
H2161 C2191 0.950 . S
C2162 H2144 0.951 . S
C2162 C2163 1.366 . S
C2162 C2164 1.388 . S
C2163 C2162 1.366 . S
C2163 C2167 1.385 . S
C2164 H2145 0.951 . S
C2164 C2162 1.388 . S
C2164 C2165 1.366 . S
C2165 C2164 1.366 . S
C2165 C2166 1.414 . S
C2165 C2168 1.499 . S
C2166 H2146 0.950 . S
C2166 C2165 1.414 . S
C2166 C2167 1.374 . S
C2167 H2147 0.950 . S
C2167 C2163 1.385 . S
C2167 C2166 1.374 . S
C2168 C2165 1.499 . S
C2168 C2169 1.373 . S
C2168 C2170 1.389 . S
C2169 H2148 0.950 . S
C2169 C2168 1.373 . S
C2169 C2185 1.377 . S
C2170 C2168 1.389 . S
C2170 C2171 1.524 . S
C2170 C2184 1.377 . S
C2171 C2170 1.524 . S
C2171 C2172 1.397 . S
C2171 C2176 1.363 . S
C2172 H2149 0.950 . S
C2172 C2171 1.397 . S
C2172 C2173 1.334 . S
C2173 H2150 0.950 . S
C2173 C2172 1.334 . S
C2173 C2174 1.287 . S
C2174 C2173 1.287 . S
C2174 C2175 1.524 . S
C2174 H2193 0.913 . S
C2175 H2151 0.950 . S
C2175 C2174 1.524 . S
C2175 C2176 1.415 . S
C2176 H2152 0.950 . S
C2176 C2171 1.363 . S
C2176 C2175 1.415 . S
C2177 H2153 0.951 . S
C2177 C2178 1.366 . S
C2177 C2179 1.388 . S
C2178 C2177 1.366 . S
C2178 C2182 1.385 . S
C2179 H2154 0.951 . S
C2179 C2177 1.388 . S
C2179 C2180 1.366 . S
C2180 C2179 1.366 . S
C2180 C2181 1.414 . S
C2180 C2183 1.499 . S
C2181 H2155 0.950 . S
C2181 C2180 1.414 . S
C2181 C2182 1.374 . S
C2182 H2156 0.950 . S
C2182 C2178 1.385 . S
C2182 C2181 1.374 . S
C2183 C2180 1.499 . S
C2183 C2184 1.373 . S
C2183 C2185 1.389 . S
C2184 H2157 0.950 . S
C2184 C2170 1.377 . S
C2184 C2183 1.373 . S
C2185 C2169 1.377 . S
C2185 C2183 1.389 . S
C2185 C2186 1.524 . S
C2186 C2185 1.524 . S
C2186 C2187 1.397 . S
C2186 C2191 1.363 . S
C2187 H2158 0.950 . S
C2187 C2186 1.397 . S
C2187 C2188 1.334 . S
C2188 H2159 0.950 . S
C2188 C2187 1.334 . S
C2188 C2189 1.287 . S
C2189 C2188 1.287 . S
C2189 C2190 1.524 . S
C2189 H2192 0.999 . S
C2190 H2160 0.950 . S
C2190 C2189 1.524 . S
C2190 C2191 1.415 . S
C2191 H2161 0.950 . S
C2191 C2186 1.363 . S
C2191 C2190 1.415 . S
H2192 C2189 0.999 . S
H2193 C2174 0.913 . S
H2194 C2212 0.951 . S
H2195 C2214 0.951 . S
H2196 C2216 0.950 . S
H2197 C2217 0.950 . S
H2198 C2219 0.950 . S
H2199 C2222 0.950 . S
H2200 C2223 0.950 . S
H2201 C2225 0.950 . S
H2202 C2226 0.950 . S
H2203 C2227 0.951 . S
H2204 C2229 0.951 . S
H2205 C2231 0.950 . S
H2206 C2232 0.950 . S
H2207 C2234 0.950 . S
H2208 C2237 0.950 . S
H2209 C2238 0.950 . S
H2210 C2240 0.950 . S
H2211 C2241 0.950 . S
C2212 H2194 0.951 . S
C2212 C2213 1.366 . S
C2212 C2214 1.388 . S
C2213 C2212 1.366 . S
C2213 C2217 1.385 . S
C2214 H2195 0.951 . S
C2214 C2212 1.388 . S
C2214 C2215 1.366 . S
C2215 C2214 1.366 . S
C2215 C2216 1.414 . S
C2215 C2218 1.499 . S
C2216 H2196 0.950 . S
C2216 C2215 1.414 . S
C2216 C2217 1.374 . S
C2217 H2197 0.950 . S
C2217 C2213 1.385 . S
C2217 C2216 1.374 . S
C2218 C2215 1.499 . S
C2218 C2219 1.373 . S
C2218 C2220 1.389 . S
C2219 H2198 0.950 . S
C2219 C2218 1.373 . S
C2219 C2235 1.377 . S
C2220 C2218 1.389 . S
C2220 C2221 1.524 . S
C2220 C2234 1.377 . S
C2221 C2220 1.524 . S
C2221 C2222 1.397 . S
C2221 C2226 1.363 . S
C2222 H2199 0.950 . S
C2222 C2221 1.397 . S
C2222 C2223 1.334 . S
C2223 H2200 0.950 . S
C2223 C2222 1.334 . S
C2223 C2224 1.287 . S
C2224 C2223 1.287 . S
C2224 C2225 1.524 . S
C2224 H2243 0.913 . S
C2225 H2201 0.950 . S
C2225 C2224 1.524 . S
C2225 C2226 1.415 . S
C2226 H2202 0.950 . S
C2226 C2221 1.363 . S
C2226 C2225 1.415 . S
C2227 H2203 0.951 . S
C2227 C2228 1.366 . S
C2227 C2229 1.388 . S
C2228 C2227 1.366 . S
C2228 C2232 1.385 . S
C2229 H2204 0.951 . S
C2229 C2227 1.388 . S
C2229 C2230 1.366 . S
C2230 C2229 1.366 . S
C2230 C2231 1.414 . S
C2230 C2233 1.499 . S
C2231 H2205 0.950 . S
C2231 C2230 1.414 . S
C2231 C2232 1.374 . S
C2232 H2206 0.950 . S
C2232 C2228 1.385 . S
C2232 C2231 1.374 . S
C2233 C2230 1.499 . S
C2233 C2234 1.373 . S
C2233 C2235 1.389 . S
C2234 H2207 0.950 . S
C2234 C2220 1.377 . S
C2234 C2233 1.373 . S
C2235 C2219 1.377 . S
C2235 C2233 1.389 . S
C2235 C2236 1.524 . S
C2236 C2235 1.524 . S
C2236 C2237 1.397 . S
C2236 C2241 1.363 . S
C2237 H2208 0.950 . S
C2237 C2236 1.397 . S
C2237 C2238 1.334 . S
C2238 H2209 0.950 . S
C2238 C2237 1.334 . S
C2238 C2239 1.287 . S
C2239 C2238 1.287 . S
C2239 C2240 1.524 . S
C2239 H2242 0.999 . S
C2240 H2210 0.950 . S
C2240 C2239 1.524 . S
C2240 C2241 1.415 . S
C2241 H2211 0.950 . S
C2241 C2236 1.363 . S
C2241 C2240 1.415 . S
H2242 C2239 0.999 . S
H2243 C2224 0.913 . S
H2244 C2262 0.951 . S
H2245 C2264 0.951 . S
H2246 C2266 0.950 . S
H2247 C2267 0.950 . S
H2248 C2269 0.950 . S
H2249 C2272 0.950 . S
H2250 C2273 0.950 . S
H2251 C2275 0.950 . S
H2252 C2276 0.950 . S
H2253 C2277 0.951 . S
H2254 C2279 0.951 . S
H2255 C2281 0.950 . S
H2256 C2282 0.950 . S
H2257 C2284 0.950 . S
H2258 C2287 0.950 . S
H2259 C2288 0.950 . S
H2260 C2290 0.950 . S
H2261 C2291 0.950 . S
C2262 H2244 0.951 . S
C2262 C2263 1.366 . S
C2262 C2264 1.388 . S
C2263 C2262 1.366 . S
C2263 C2267 1.385 . S
C2264 H2245 0.951 . S
C2264 C2262 1.388 . S
C2264 C2265 1.366 . S
C2265 C2264 1.366 . S
C2265 C2266 1.414 . S
C2265 C2268 1.499 . S
C2266 H2246 0.950 . S
C2266 C2265 1.414 . S
C2266 C2267 1.374 . S
C2267 H2247 0.950 . S
C2267 C2263 1.385 . S
C2267 C2266 1.374 . S
C2268 C2265 1.499 . S
C2268 C2269 1.373 . S
C2268 C2270 1.389 . S
C2269 H2248 0.950 . S
C2269 C2268 1.373 . S
C2269 C2285 1.377 . S
C2270 C2268 1.389 . S
C2270 C2271 1.524 . S
C2270 C2284 1.377 . S
C2271 C2270 1.524 . S
C2271 C2272 1.397 . S
C2271 C2276 1.363 . S
C2272 H2249 0.950 . S
C2272 C2271 1.397 . S
C2272 C2273 1.334 . S
C2273 H2250 0.950 . S
C2273 C2272 1.334 . S
C2273 C2274 1.287 . S
C2274 C2273 1.287 . S
C2274 C2275 1.524 . S
C2274 H2293 0.913 . S
C2275 H2251 0.950 . S
C2275 C2274 1.524 . S
C2275 C2276 1.415 . S
C2276 H2252 0.950 . S
C2276 C2271 1.363 . S
C2276 C2275 1.415 . S
C2277 H2253 0.951 . S
C2277 C2278 1.366 . S
C2277 C2279 1.388 . S
C2278 C2277 1.366 . S
C2278 C2282 1.385 . S
C2279 H2254 0.951 . S
C2279 C2277 1.388 . S
C2279 C2280 1.366 . S
C2280 C2279 1.366 . S
C2280 C2281 1.414 . S
C2280 C2283 1.499 . S
C2281 H2255 0.950 . S
C2281 C2280 1.414 . S
C2281 C2282 1.374 . S
C2282 H2256 0.950 . S
C2282 C2278 1.385 . S
C2282 C2281 1.374 . S
C2283 C2280 1.499 . S
C2283 C2284 1.373 . S
C2283 C2285 1.389 . S
C2284 H2257 0.950 . S
C2284 C2270 1.377 . S
C2284 C2283 1.373 . S
C2285 C2269 1.377 . S
C2285 C2283 1.389 . S
C2285 C2286 1.524 . S
C2286 C2285 1.524 . S
C2286 C2287 1.397 . S
C2286 C2291 1.363 . S
C2287 H2258 0.950 . S
C2287 C2286 1.397 . S
C2287 C2288 1.334 . S
C2288 H2259 0.950 . S
C2288 C2287 1.334 . S
C2288 C2289 1.287 . S
C2289 C2288 1.287 . S
C2289 C2290 1.524 . S
C2289 H2292 0.999 . S
C2290 H2260 0.950 . S
C2290 C2289 1.524 . S
C2290 C2291 1.415 . S
C2291 H2261 0.950 . S
C2291 C2286 1.363 . S
C2291 C2290 1.415 . S
H2292 C2289 0.999 . S
H2293 C2274 0.913 . S
H2294 C2312 0.951 . S
H2295 C2314 0.951 . S
H2296 C2316 0.950 . S
H2297 C2317 0.950 . S
H2298 C2319 0.950 . S
H2299 C2322 0.950 . S
H2300 C2323 0.950 . S
H2301 C2325 0.950 . S
H2302 C2326 0.950 . S
H2303 C2327 0.951 . S
H2304 C2329 0.951 . S
H2305 C2331 0.950 . S
H2306 C2332 0.950 . S
H2307 C2334 0.950 . S
H2308 C2337 0.950 . S
H2309 C2338 0.950 . S
H2310 C2340 0.950 . S
H2311 C2341 0.950 . S
C2312 H2294 0.951 . S
C2312 C2313 1.366 . S
C2312 C2314 1.388 . S
C2313 C2312 1.366 . S
C2313 C2317 1.385 . S
C2314 H2295 0.951 . S
C2314 C2312 1.388 . S
C2314 C2315 1.366 . S
C2315 C2314 1.366 . S
C2315 C2316 1.414 . S
C2315 C2318 1.499 . S
C2316 H2296 0.950 . S
C2316 C2315 1.414 . S
C2316 C2317 1.374 . S
C2317 H2297 0.950 . S
C2317 C2313 1.385 . S
C2317 C2316 1.374 . S
C2318 C2315 1.499 . S
C2318 C2319 1.373 . S
C2318 C2320 1.389 . S
C2319 H2298 0.950 . S
C2319 C2318 1.373 . S
C2319 C2335 1.377 . S
C2320 C2318 1.389 . S
C2320 C2321 1.524 . S
C2320 C2334 1.377 . S
C2321 C2320 1.524 . S
C2321 C2322 1.397 . S
C2321 C2326 1.363 . S
C2322 H2299 0.950 . S
C2322 C2321 1.397 . S
C2322 C2323 1.334 . S
C2323 H2300 0.950 . S
C2323 C2322 1.334 . S
C2323 C2324 1.287 . S
C2324 C2323 1.287 . S
C2324 C2325 1.524 . S
C2324 H2343 0.913 . S
C2325 H2301 0.950 . S
C2325 C2324 1.524 . S
C2325 C2326 1.415 . S
C2326 H2302 0.950 . S
C2326 C2321 1.363 . S
C2326 C2325 1.415 . S
C2327 H2303 0.951 . S
C2327 C2328 1.366 . S
C2327 C2329 1.388 . S
C2328 C2327 1.366 . S
C2328 C2332 1.385 . S
C2329 H2304 0.951 . S
C2329 C2327 1.388 . S
C2329 C2330 1.366 . S
C2330 C2329 1.366 . S
C2330 C2331 1.414 . S
C2330 C2333 1.499 . S
C2331 H2305 0.950 . S
C2331 C2330 1.414 . S
C2331 C2332 1.374 . S
C2332 H2306 0.950 . S
C2332 C2328 1.385 . S
C2332 C2331 1.374 . S
C2333 C2330 1.499 . S
C2333 C2334 1.373 . S
C2333 C2335 1.389 . S
C2334 H2307 0.950 . S
C2334 C2320 1.377 . S
C2334 C2333 1.373 . S
C2335 C2319 1.377 . S
C2335 C2333 1.389 . S
C2335 C2336 1.524 . S
C2336 C2335 1.524 . S
C2336 C2337 1.397 . S
C2336 C2341 1.363 . S
C2337 H2308 0.950 . S
C2337 C2336 1.397 . S
C2337 C2338 1.334 . S
C2338 H2309 0.950 . S
C2338 C2337 1.334 . S
C2338 C2339 1.287 . S
C2339 C2338 1.287 . S
C2339 C2340 1.524 . S
C2339 H2342 0.999 . S
C2340 H2310 0.950 . S
C2340 C2339 1.524 . S
C2340 C2341 1.415 . S
C2341 H2311 0.950 . S
C2341 C2336 1.363 . S
C2341 C2340 1.415 . S
H2342 C2339 0.999 . S
H2343 C2324 0.913 . S
H2344 C2362 0.951 . S
H2345 C2364 0.951 . S
H2346 C2366 0.950 . S
H2347 C2367 0.950 . S
H2348 C2369 0.950 . S
H2349 C2372 0.950 . S
H2350 C2373 0.950 . S
H2351 C2375 0.950 . S
H2352 C2376 0.950 . S
H2353 C2377 0.951 . S
H2354 C2379 0.951 . S
H2355 C2381 0.950 . S
H2356 C2382 0.950 . S
H2357 C2384 0.950 . S
H2358 C2387 0.950 . S
H2359 C2388 0.950 . S
H2360 C2390 0.950 . S
H2361 C2391 0.950 . S
C2362 H2344 0.951 . S
C2362 C2363 1.366 . S
C2362 C2364 1.388 . S
C2363 C2362 1.366 . S
C2363 C2367 1.385 . S
C2364 H2345 0.951 . S
C2364 C2362 1.388 . S
C2364 C2365 1.366 . S
C2365 C2364 1.366 . S
C2365 C2366 1.414 . S
C2365 C2368 1.499 . S
C2366 H2346 0.950 . S
C2366 C2365 1.414 . S
C2366 C2367 1.374 . S
C2367 H2347 0.950 . S
C2367 C2363 1.385 . S
C2367 C2366 1.374 . S
C2368 C2365 1.499 . S
C2368 C2369 1.373 . S
C2368 C2370 1.389 . S
C2369 H2348 0.950 . S
C2369 C2368 1.373 . S
C2369 C2385 1.377 . S
C2370 C2368 1.389 . S
C2370 C2371 1.524 . S
C2370 C2384 1.377 . S
C2371 C2370 1.524 . S
C2371 C2372 1.397 . S
C2371 C2376 1.363 . S
C2372 H2349 0.950 . S
C2372 C2371 1.397 . S
C2372 C2373 1.334 . S
C2373 H2350 0.950 . S
C2373 C2372 1.334 . S
C2373 C2374 1.287 . S
C2374 C2373 1.287 . S
C2374 C2375 1.524 . S
C2374 H2393 0.913 . S
C2375 H2351 0.950 . S
C2375 C2374 1.524 . S
C2375 C2376 1.415 . S
C2376 H2352 0.950 . S
C2376 C2371 1.363 . S
C2376 C2375 1.415 . S
C2377 H2353 0.951 . S
C2377 C2378 1.366 . S
C2377 C2379 1.388 . S
C2378 C2377 1.366 . S
C2378 C2382 1.385 . S
C2379 H2354 0.951 . S
C2379 C2377 1.388 . S
C2379 C2380 1.366 . S
C2380 C2379 1.366 . S
C2380 C2381 1.414 . S
C2380 C2383 1.499 . S
C2381 H2355 0.950 . S
C2381 C2380 1.414 . S
C2381 C2382 1.374 . S
C2382 H2356 0.950 . S
C2382 C2378 1.385 . S
C2382 C2381 1.374 . S
C2383 C2380 1.499 . S
C2383 C2384 1.373 . S
C2383 C2385 1.389 . S
C2384 H2357 0.950 . S
C2384 C2370 1.377 . S
C2384 C2383 1.373 . S
C2385 C2369 1.377 . S
C2385 C2383 1.389 . S
C2385 C2386 1.524 . S
C2386 C2385 1.524 . S
C2386 C2387 1.397 . S
C2386 C2391 1.363 . S
C2387 H2358 0.950 . S
C2387 C2386 1.397 . S
C2387 C2388 1.334 . S
C2388 H2359 0.950 . S
C2388 C2387 1.334 . S
C2388 C2389 1.287 . S
C2389 C2388 1.287 . S
C2389 C2390 1.524 . S
C2389 H2392 0.999 . S
C2390 H2360 0.950 . S
C2390 C2389 1.524 . S
C2390 C2391 1.415 . S
C2391 H2361 0.950 . S
C2391 C2386 1.363 . S
C2391 C2390 1.415 . S
H2392 C2389 0.999 . S
H2393 C2374 0.913 . S
H2394 C2412 0.951 . S
H2395 C2414 0.951 . S
H2396 C2416 0.950 . S
H2397 C2417 0.950 . S
H2398 C2419 0.950 . S
H2399 C2422 0.950 . S
H2400 C2423 0.950 . S
H2401 C2425 0.950 . S
H2402 C2426 0.950 . S
H2403 C2427 0.951 . S
H2404 C2429 0.951 . S
H2405 C2431 0.950 . S
H2406 C2432 0.950 . S
H2407 C2434 0.950 . S
H2408 C2437 0.950 . S
H2409 C2438 0.950 . S
H2410 C2440 0.950 . S
H2411 C2441 0.950 . S
C2412 H2394 0.951 . S
C2412 C2413 1.366 . S
C2412 C2414 1.388 . S
C2413 C2412 1.366 . S
C2413 C2417 1.385 . S
C2414 H2395 0.951 . S
C2414 C2412 1.388 . S
C2414 C2415 1.366 . S
C2415 C2414 1.366 . S
C2415 C2416 1.414 . S
C2415 C2418 1.499 . S
C2416 H2396 0.950 . S
C2416 C2415 1.414 . S
C2416 C2417 1.374 . S
C2417 H2397 0.950 . S
C2417 C2413 1.385 . S
C2417 C2416 1.374 . S
C2418 C2415 1.499 . S
C2418 C2419 1.373 . S
C2418 C2420 1.389 . S
C2419 H2398 0.950 . S
C2419 C2418 1.373 . S
C2419 C2435 1.377 . S
C2420 C2418 1.389 . S
C2420 C2421 1.524 . S
C2420 C2434 1.377 . S
C2421 C2420 1.524 . S
C2421 C2422 1.397 . S
C2421 C2426 1.363 . S
C2422 H2399 0.950 . S
C2422 C2421 1.397 . S
C2422 C2423 1.334 . S
C2423 H2400 0.950 . S
C2423 C2422 1.334 . S
C2423 C2424 1.287 . S
C2424 C2423 1.287 . S
C2424 C2425 1.524 . S
C2424 H2443 0.913 . S
C2425 H2401 0.950 . S
C2425 C2424 1.524 . S
C2425 C2426 1.415 . S
C2426 H2402 0.950 . S
C2426 C2421 1.363 . S
C2426 C2425 1.415 . S
C2427 H2403 0.951 . S
C2427 C2428 1.366 . S
C2427 C2429 1.388 . S
C2428 C2427 1.366 . S
C2428 C2432 1.385 . S
C2429 H2404 0.951 . S
C2429 C2427 1.388 . S
C2429 C2430 1.366 . S
C2430 C2429 1.366 . S
C2430 C2431 1.414 . S
C2430 C2433 1.499 . S
C2431 H2405 0.950 . S
C2431 C2430 1.414 . S
C2431 C2432 1.374 . S
C2432 H2406 0.950 . S
C2432 C2428 1.385 . S
C2432 C2431 1.374 . S
C2433 C2430 1.499 . S
C2433 C2434 1.373 . S
C2433 C2435 1.389 . S
C2434 H2407 0.950 . S
C2434 C2420 1.377 . S
C2434 C2433 1.373 . S
C2435 C2419 1.377 . S
C2435 C2433 1.389 . S
C2435 C2436 1.524 . S
C2436 C2435 1.524 . S
C2436 C2437 1.397 . S
C2436 C2441 1.363 . S
C2437 H2408 0.950 . S
C2437 C2436 1.397 . S
C2437 C2438 1.334 . S
C2438 H2409 0.950 . S
C2438 C2437 1.334 . S
C2438 C2439 1.287 . S
C2439 C2438 1.287 . S
C2439 C2440 1.524 . S
C2439 H2442 0.999 . S
C2440 H2410 0.950 . S
C2440 C2439 1.524 . S
C2440 C2441 1.415 . S
C2441 H2411 0.950 . S
C2441 C2436 1.363 . S
C2441 C2440 1.415 . S
H2442 C2439 0.999 . S
H2443 C2424 0.913 . S
H2444 C2462 0.951 . S
H2445 C2464 0.951 . S
H2446 C2466 0.950 . S
H2447 C2467 0.950 . S
H2448 C2469 0.950 . S
H2449 C2472 0.950 . S
H2450 C2473 0.950 . S
H2451 C2475 0.950 . S
H2452 C2476 0.950 . S
H2453 C2477 0.951 . S
H2454 C2479 0.951 . S
H2455 C2481 0.950 . S
H2456 C2482 0.950 . S
H2457 C2484 0.950 . S
H2458 C2487 0.950 . S
H2459 C2488 0.950 . S
H2460 C2490 0.950 . S
H2461 C2491 0.950 . S
C2462 H2444 0.951 . S
C2462 C2463 1.366 . S
C2462 C2464 1.388 . S
C2463 C2462 1.366 . S
C2463 C2467 1.385 . S
C2464 H2445 0.951 . S
C2464 C2462 1.388 . S
C2464 C2465 1.366 . S
C2465 C2464 1.366 . S
C2465 C2466 1.414 . S
C2465 C2468 1.499 . S
C2466 H2446 0.950 . S
C2466 C2465 1.414 . S
C2466 C2467 1.374 . S
C2467 H2447 0.950 . S
C2467 C2463 1.385 . S
C2467 C2466 1.374 . S
C2468 C2465 1.499 . S
C2468 C2469 1.373 . S
C2468 C2470 1.389 . S
C2469 H2448 0.950 . S
C2469 C2468 1.373 . S
C2469 C2485 1.377 . S
C2470 C2468 1.389 . S
C2470 C2471 1.524 . S
C2470 C2484 1.377 . S
C2471 C2470 1.524 . S
C2471 C2472 1.397 . S
C2471 C2476 1.363 . S
C2472 H2449 0.950 . S
C2472 C2471 1.397 . S
C2472 C2473 1.334 . S
C2473 H2450 0.950 . S
C2473 C2472 1.334 . S
C2473 C2474 1.287 . S
C2474 C2473 1.287 . S
C2474 C2475 1.524 . S
C2474 H2493 0.913 . S
C2475 H2451 0.950 . S
C2475 C2474 1.524 . S
C2475 C2476 1.415 . S
C2476 H2452 0.950 . S
C2476 C2471 1.363 . S
C2476 C2475 1.415 . S
C2477 H2453 0.951 . S
C2477 C2478 1.366 . S
C2477 C2479 1.388 . S
C2478 C2477 1.366 . S
C2478 C2482 1.385 . S
C2479 H2454 0.951 . S
C2479 C2477 1.388 . S
C2479 C2480 1.366 . S
C2480 C2479 1.366 . S
C2480 C2481 1.414 . S
C2480 C2483 1.499 . S
C2481 H2455 0.950 . S
C2481 C2480 1.414 . S
C2481 C2482 1.374 . S
C2482 H2456 0.950 . S
C2482 C2478 1.385 . S
C2482 C2481 1.374 . S
C2483 C2480 1.499 . S
C2483 C2484 1.373 . S
C2483 C2485 1.389 . S
C2484 H2457 0.950 . S
C2484 C2470 1.377 . S
C2484 C2483 1.373 . S
C2485 C2469 1.377 . S
C2485 C2483 1.389 . S
C2485 C2486 1.524 . S
C2486 C2485 1.524 . S
C2486 C2487 1.397 . S
C2486 C2491 1.363 . S
C2487 H2458 0.950 . S
C2487 C2486 1.397 . S
C2487 C2488 1.334 . S
C2488 H2459 0.950 . S
C2488 C2487 1.334 . S
C2488 C2489 1.287 . S
C2489 C2488 1.287 . S
C2489 C2490 1.524 . S
C2489 H2492 0.999 . S
C2490 H2460 0.950 . S
C2490 C2489 1.524 . S
C2490 C2491 1.415 . S
C2491 H2461 0.950 . S
C2491 C2486 1.363 . S
C2491 C2490 1.415 . S
H2492 C2489 0.999 . S
H2493 C2474 0.913 . S
H2494 C2512 0.951 . S
H2495 C2514 0.951 . S
H2496 C2516 0.950 . S
H2497 C2517 0.950 . S
H2498 C2519 0.950 . S
H2499 C2522 0.950 . S
H2500 C2523 0.950 . S
H2501 C2525 0.950 . S
H2502 C2526 0.950 . S
H2503 C2527 0.951 . S
H2504 C2529 0.951 . S
H2505 C2531 0.950 . S
H2506 C2532 0.950 . S
H2507 C2534 0.950 . S
H2508 C2537 0.950 . S
H2509 C2538 0.950 . S
H2510 C2540 0.950 . S
H2511 C2541 0.950 . S
C2512 H2494 0.951 . S
C2512 C2513 1.366 . S
C2512 C2514 1.388 . S
C2513 C2512 1.366 . S
C2513 C2517 1.385 . S
C2514 H2495 0.951 . S
C2514 C2512 1.388 . S
C2514 C2515 1.366 . S
C2515 C2514 1.366 . S
C2515 C2516 1.414 . S
C2515 C2518 1.499 . S
C2516 H2496 0.950 . S
C2516 C2515 1.414 . S
C2516 C2517 1.374 . S
C2517 H2497 0.950 . S
C2517 C2513 1.385 . S
C2517 C2516 1.374 . S
C2518 C2515 1.499 . S
C2518 C2519 1.373 . S
C2518 C2520 1.389 . S
C2519 H2498 0.950 . S
C2519 C2518 1.373 . S
C2519 C2535 1.377 . S
C2520 C2518 1.389 . S
C2520 C2521 1.524 . S
C2520 C2534 1.377 . S
C2521 C2520 1.524 . S
C2521 C2522 1.397 . S
C2521 C2526 1.363 . S
C2522 H2499 0.950 . S
C2522 C2521 1.397 . S
C2522 C2523 1.334 . S
C2523 H2500 0.950 . S
C2523 C2522 1.334 . S
C2523 C2524 1.287 . S
C2524 C2523 1.287 . S
C2524 C2525 1.524 . S
C2524 H2543 0.913 . S
C2525 H2501 0.950 . S
C2525 C2524 1.524 . S
C2525 C2526 1.415 . S
C2526 H2502 0.950 . S
C2526 C2521 1.363 . S
C2526 C2525 1.415 . S
C2527 H2503 0.951 . S
C2527 C2528 1.366 . S
C2527 C2529 1.388 . S
C2528 C2527 1.366 . S
C2528 C2532 1.385 . S
C2529 H2504 0.951 . S
C2529 C2527 1.388 . S
C2529 C2530 1.366 . S
C2530 C2529 1.366 . S
C2530 C2531 1.414 . S
C2530 C2533 1.499 . S
C2531 H2505 0.950 . S
C2531 C2530 1.414 . S
C2531 C2532 1.374 . S
C2532 H2506 0.950 . S
C2532 C2528 1.385 . S
C2532 C2531 1.374 . S
C2533 C2530 1.499 . S
C2533 C2534 1.373 . S
C2533 C2535 1.389 . S
C2534 H2507 0.950 . S
C2534 C2520 1.377 . S
C2534 C2533 1.373 . S
C2535 C2519 1.377 . S
C2535 C2533 1.389 . S
C2535 C2536 1.524 . S
C2536 C2535 1.524 . S
C2536 C2537 1.397 . S
C2536 C2541 1.363 . S
C2537 H2508 0.950 . S
C2537 C2536 1.397 . S
C2537 C2538 1.334 . S
C2538 H2509 0.950 . S
C2538 C2537 1.334 . S
C2538 C2539 1.287 . S
C2539 C2538 1.287 . S
C2539 C2540 1.524 . S
C2539 H2542 0.999 . S
C2540 H2510 0.950 . S
C2540 C2539 1.524 . S
C2540 C2541 1.415 . S
C2541 H2511 0.950 . S
C2541 C2536 1.363 . S
C2541 C2540 1.415 . S
H2542 C2539 0.999 . S
H2543 C2524 0.913 . S
H2544 C2562 0.951 . S
H2545 C2564 0.951 . S
H2546 C2566 0.950 . S
H2547 C2567 0.950 . S
H2548 C2569 0.950 . S
H2549 C2572 0.950 . S
H2550 C2573 0.950 . S
H2551 C2575 0.950 . S
H2552 C2576 0.950 . S
H2553 C2577 0.951 . S
H2554 C2579 0.951 . S
H2555 C2581 0.950 . S
H2556 C2582 0.950 . S
H2557 C2584 0.950 . S
H2558 C2587 0.950 . S
H2559 C2588 0.950 . S
H2560 C2590 0.950 . S
H2561 C2591 0.950 . S
C2562 H2544 0.951 . S
C2562 C2563 1.366 . S
C2562 C2564 1.388 . S
C2563 C2562 1.366 . S
C2563 C2567 1.385 . S
C2564 H2545 0.951 . S
C2564 C2562 1.388 . S
C2564 C2565 1.366 . S
C2565 C2564 1.366 . S
C2565 C2566 1.414 . S
C2565 C2568 1.499 . S
C2566 H2546 0.950 . S
C2566 C2565 1.414 . S
C2566 C2567 1.374 . S
C2567 H2547 0.950 . S
C2567 C2563 1.385 . S
C2567 C2566 1.374 . S
C2568 C2565 1.499 . S
C2568 C2569 1.373 . S
C2568 C2570 1.389 . S
C2569 H2548 0.950 . S
C2569 C2568 1.373 . S
C2569 C2585 1.377 . S
C2570 C2568 1.389 . S
C2570 C2571 1.524 . S
C2570 C2584 1.377 . S
C2571 C2570 1.524 . S
C2571 C2572 1.397 . S
C2571 C2576 1.363 . S
C2572 H2549 0.950 . S
C2572 C2571 1.397 . S
C2572 C2573 1.334 . S
C2573 H2550 0.950 . S
C2573 C2572 1.334 . S
C2573 C2574 1.287 . S
C2574 C2573 1.287 . S
C2574 C2575 1.524 . S
C2574 H2593 0.913 . S
C2575 H2551 0.950 . S
C2575 C2574 1.524 . S
C2575 C2576 1.415 . S
C2576 H2552 0.950 . S
C2576 C2571 1.363 . S
C2576 C2575 1.415 . S
C2577 H2553 0.951 . S
C2577 C2578 1.366 . S
C2577 C2579 1.388 . S
C2578 C2577 1.366 . S
C2578 C2582 1.385 . S
C2579 H2554 0.951 . S
C2579 C2577 1.388 . S
C2579 C2580 1.366 . S
C2580 C2579 1.366 . S
C2580 C2581 1.414 . S
C2580 C2583 1.499 . S
C2581 H2555 0.950 . S
C2581 C2580 1.414 . S
C2581 C2582 1.374 . S
C2582 H2556 0.950 . S
C2582 C2578 1.385 . S
C2582 C2581 1.374 . S
C2583 C2580 1.499 . S
C2583 C2584 1.373 . S
C2583 C2585 1.389 . S
C2584 H2557 0.950 . S
C2584 C2570 1.377 . S
C2584 C2583 1.373 . S
C2585 C2569 1.377 . S
C2585 C2583 1.389 . S
C2585 C2586 1.524 . S
C2586 C2585 1.524 . S
C2586 C2587 1.397 . S
C2586 C2591 1.363 . S
C2587 H2558 0.950 . S
C2587 C2586 1.397 . S
C2587 C2588 1.334 . S
C2588 H2559 0.950 . S
C2588 C2587 1.334 . S
C2588 C2589 1.287 . S
C2589 C2588 1.287 . S
C2589 C2590 1.524 . S
C2589 H2592 0.999 . S
C2590 H2560 0.950 . S
C2590 C2589 1.524 . S
C2590 C2591 1.415 . S
C2591 H2561 0.950 . S
C2591 C2586 1.363 . S
C2591 C2590 1.415 . S
H2592 C2589 0.999 . S
H2593 C2574 0.913 . S
H2594 C2612 0.951 . S
H2595 C2614 0.951 . S
H2596 C2616 0.950 . S
H2597 C2617 0.950 . S
H2598 C2619 0.950 . S
H2599 C2622 0.950 . S
H2600 C2623 0.950 . S
H2601 C2625 0.950 . S
H2602 C2626 0.950 . S
H2603 C2627 0.951 . S
H2604 C2629 0.951 . S
H2605 C2631 0.950 . S
H2606 C2632 0.950 . S
H2607 C2634 0.950 . S
H2608 C2637 0.950 . S
H2609 C2638 0.950 . S
H2610 C2640 0.950 . S
H2611 C2641 0.950 . S
C2612 H2594 0.951 . S
C2612 C2613 1.366 . S
C2612 C2614 1.388 . S
C2613 C2612 1.366 . S
C2613 C2617 1.385 . S
C2614 H2595 0.951 . S
C2614 C2612 1.388 . S
C2614 C2615 1.366 . S
C2615 C2614 1.366 . S
C2615 C2616 1.414 . S
C2615 C2618 1.499 . S
C2616 H2596 0.950 . S
C2616 C2615 1.414 . S
C2616 C2617 1.374 . S
C2617 H2597 0.950 . S
C2617 C2613 1.385 . S
C2617 C2616 1.374 . S
C2618 C2615 1.499 . S
C2618 C2619 1.373 . S
C2618 C2620 1.389 . S
C2619 H2598 0.950 . S
C2619 C2618 1.373 . S
C2619 C2635 1.377 . S
C2620 C2618 1.389 . S
C2620 C2621 1.524 . S
C2620 C2634 1.377 . S
C2621 C2620 1.524 . S
C2621 C2622 1.397 . S
C2621 C2626 1.363 . S
C2622 H2599 0.950 . S
C2622 C2621 1.397 . S
C2622 C2623 1.334 . S
C2623 H2600 0.950 . S
C2623 C2622 1.334 . S
C2623 C2624 1.287 . S
C2624 C2623 1.287 . S
C2624 C2625 1.524 . S
C2624 H2643 0.913 . S
C2625 H2601 0.950 . S
C2625 C2624 1.524 . S
C2625 C2626 1.415 . S
C2626 H2602 0.950 . S
C2626 C2621 1.363 . S
C2626 C2625 1.415 . S
C2627 H2603 0.951 . S
C2627 C2628 1.366 . S
C2627 C2629 1.388 . S
C2628 C2627 1.366 . S
C2628 C2632 1.385 . S
C2629 H2604 0.951 . S
C2629 C2627 1.388 . S
C2629 C2630 1.366 . S
C2630 C2629 1.366 . S
C2630 C2631 1.414 . S
C2630 C2633 1.499 . S
C2631 H2605 0.950 . S
C2631 C2630 1.414 . S
C2631 C2632 1.374 . S
C2632 H2606 0.950 . S
C2632 C2628 1.385 . S
C2632 C2631 1.374 . S
C2633 C2630 1.499 . S
C2633 C2634 1.373 . S
C2633 C2635 1.389 . S
C2634 H2607 0.950 . S
C2634 C2620 1.377 . S
C2634 C2633 1.373 . S
C2635 C2619 1.377 . S
C2635 C2633 1.389 . S
C2635 C2636 1.524 . S
C2636 C2635 1.524 . S
C2636 C2637 1.397 . S
C2636 C2641 1.363 . S
C2637 H2608 0.950 . S
C2637 C2636 1.397 . S
C2637 C2638 1.334 . S
C2638 H2609 0.950 . S
C2638 C2637 1.334 . S
C2638 C2639 1.287 . S
C2639 C2638 1.287 . S
C2639 C2640 1.524 . S
C2639 H2642 0.999 . S
C2640 H2610 0.950 . S
C2640 C2639 1.524 . S
C2640 C2641 1.415 . S
C2641 H2611 0.950 . S
C2641 C2636 1.363 . S
C2641 C2640 1.415 . S
H2642 C2639 0.999 . S
H2643 C2624 0.913 . S
H2644 C2662 0.951 . S
H2645 C2664 0.951 . S
H2646 C2666 0.950 . S
H2647 C2667 0.950 . S
H2648 C2669 0.950 . S
H2649 C2672 0.950 . S
H2650 C2673 0.950 . S
H2651 C2675 0.950 . S
H2652 C2676 0.950 . S
H2653 C2677 0.951 . S
H2654 C2679 0.951 . S
H2655 C2681 0.950 . S
H2656 C2682 0.950 . S
H2657 C2684 0.950 . S
H2658 C2687 0.950 . S
H2659 C2688 0.950 . S
H2660 C2690 0.950 . S
H2661 C2691 0.950 . S
C2662 H2644 0.951 . S
C2662 C2663 1.366 . S
C2662 C2664 1.388 . S
C2663 C2662 1.366 . S
C2663 C2667 1.385 . S
C2664 H2645 0.951 . S
C2664 C2662 1.388 . S
C2664 C2665 1.366 . S
C2665 C2664 1.366 . S
C2665 C2666 1.414 . S
C2665 C2668 1.499 . S
C2666 H2646 0.950 . S
C2666 C2665 1.414 . S
C2666 C2667 1.374 . S
C2667 H2647 0.950 . S
C2667 C2663 1.385 . S
C2667 C2666 1.374 . S
C2668 C2665 1.499 . S
C2668 C2669 1.373 . S
C2668 C2670 1.389 . S
C2669 H2648 0.950 . S
C2669 C2668 1.373 . S
C2669 C2685 1.377 . S
C2670 C2668 1.389 . S
C2670 C2671 1.524 . S
C2670 C2684 1.377 . S
C2671 C2670 1.524 . S
C2671 C2672 1.397 . S
C2671 C2676 1.363 . S
C2672 H2649 0.950 . S
C2672 C2671 1.397 . S
C2672 C2673 1.334 . S
C2673 H2650 0.950 . S
C2673 C2672 1.334 . S
C2673 C2674 1.287 . S
C2674 C2673 1.287 . S
C2674 C2675 1.524 . S
C2674 H2693 0.913 . S
C2675 H2651 0.950 . S
C2675 C2674 1.524 . S
C2675 C2676 1.415 . S
C2676 H2652 0.950 . S
C2676 C2671 1.363 . S
C2676 C2675 1.415 . S
C2677 H2653 0.951 . S
C2677 C2678 1.366 . S
C2677 C2679 1.388 . S
C2678 C2677 1.366 . S
C2678 C2682 1.385 . S
C2679 H2654 0.951 . S
C2679 C2677 1.388 . S
C2679 C2680 1.366 . S
C2680 C2679 1.366 . S
C2680 C2681 1.414 . S
C2680 C2683 1.499 . S
C2681 H2655 0.950 . S
C2681 C2680 1.414 . S
C2681 C2682 1.374 . S
C2682 H2656 0.950 . S
C2682 C2678 1.385 . S
C2682 C2681 1.374 . S
C2683 C2680 1.499 . S
C2683 C2684 1.373 . S
C2683 C2685 1.389 . S
C2684 H2657 0.950 . S
C2684 C2670 1.377 . S
C2684 C2683 1.373 . S
C2685 C2669 1.377 . S
C2685 C2683 1.389 . S
C2685 C2686 1.524 . S
C2686 C2685 1.524 . S
C2686 C2687 1.397 . S
C2686 C2691 1.363 . S
C2687 H2658 0.950 . S
C2687 C2686 1.397 . S
C2687 C2688 1.334 . S
C2688 H2659 0.950 . S
C2688 C2687 1.334 . S
C2688 C2689 1.287 . S
C2689 C2688 1.287 . S
C2689 C2690 1.524 . S
C2689 H2692 0.999 . S
C2690 H2660 0.950 . S
C2690 C2689 1.524 . S
C2690 C2691 1.415 . S
C2691 H2661 0.950 . S
C2691 C2686 1.363 . S
C2691 C2690 1.415 . S
H2692 C2689 0.999 . S
H2693 C2674 0.913 . S
H2694 C2712 0.951 . S
H2695 C2714 0.951 . S
H2696 C2716 0.950 . S
H2697 C2717 0.950 . S
H2698 C2719 0.950 . S
H2699 C2722 0.950 . S
H2700 C2723 0.950 . S
H2701 C2725 0.950 . S
H2702 C2726 0.950 . S
H2703 C2727 0.951 . S
H2704 C2729 0.951 . S
H2705 C2731 0.950 . S
H2706 C2732 0.950 . S
H2707 C2734 0.950 . S
H2708 C2737 0.950 . S
H2709 C2738 0.950 . S
H2710 C2740 0.950 . S
H2711 C2741 0.950 . S
C2712 H2694 0.951 . S
C2712 C2713 1.366 . S
C2712 C2714 1.388 . S
C2713 C2712 1.366 . S
C2713 C2717 1.385 . S
C2714 H2695 0.951 . S
C2714 C2712 1.388 . S
C2714 C2715 1.366 . S
C2715 C2714 1.366 . S
C2715 C2716 1.414 . S
C2715 C2718 1.499 . S
C2716 H2696 0.950 . S
C2716 C2715 1.414 . S
C2716 C2717 1.374 . S
C2717 H2697 0.950 . S
C2717 C2713 1.385 . S
C2717 C2716 1.374 . S
C2718 C2715 1.499 . S
C2718 C2719 1.373 . S
C2718 C2720 1.389 . S
C2719 H2698 0.950 . S
C2719 C2718 1.373 . S
C2719 C2735 1.377 . S
C2720 C2718 1.389 . S
C2720 C2721 1.524 . S
C2720 C2734 1.377 . S
C2721 C2720 1.524 . S
C2721 C2722 1.397 . S
C2721 C2726 1.363 . S
C2722 H2699 0.950 . S
C2722 C2721 1.397 . S
C2722 C2723 1.334 . S
C2723 H2700 0.950 . S
C2723 C2722 1.334 . S
C2723 C2724 1.287 . S
C2724 C2723 1.287 . S
C2724 C2725 1.524 . S
C2724 H2743 0.913 . S
C2725 H2701 0.950 . S
C2725 C2724 1.524 . S
C2725 C2726 1.415 . S
C2726 H2702 0.950 . S
C2726 C2721 1.363 . S
C2726 C2725 1.415 . S
C2727 H2703 0.951 . S
C2727 C2728 1.366 . S
C2727 C2729 1.388 . S
C2728 C2727 1.366 . S
C2728 C2732 1.385 . S
C2729 H2704 0.951 . S
C2729 C2727 1.388 . S
C2729 C2730 1.366 . S
C2730 C2729 1.366 . S
C2730 C2731 1.414 . S
C2730 C2733 1.499 . S
C2731 H2705 0.950 . S
C2731 C2730 1.414 . S
C2731 C2732 1.374 . S
C2732 H2706 0.950 . S
C2732 C2728 1.385 . S
C2732 C2731 1.374 . S
C2733 C2730 1.499 . S
C2733 C2734 1.373 . S
C2733 C2735 1.389 . S
C2734 H2707 0.950 . S
C2734 C2720 1.377 . S
C2734 C2733 1.373 . S
C2735 C2719 1.377 . S
C2735 C2733 1.389 . S
C2735 C2736 1.524 . S
C2736 C2735 1.524 . S
C2736 C2737 1.397 . S
C2736 C2741 1.363 . S
C2737 H2708 0.950 . S
C2737 C2736 1.397 . S
C2737 C2738 1.334 . S
C2738 H2709 0.950 . S
C2738 C2737 1.334 . S
C2738 C2739 1.287 . S
C2739 C2738 1.287 . S
C2739 C2740 1.524 . S
C2739 H2742 0.999 1_545 S
C2740 H2710 0.950 . S
C2740 C2739 1.524 . S
C2740 C2741 1.415 . S
C2741 H2711 0.950 . S
C2741 C2736 1.363 . S
C2741 C2740 1.415 . S
H2742 C2739 0.999 1_565 S
H2743 C2724 0.913 . S
H2744 C2762 0.951 . S
H2745 C2764 0.951 . S
H2746 C2766 0.950 . S
H2747 C2767 0.950 . S
H2748 C2769 0.950 . S
H2749 C2772 0.950 . S
H2750 C2773 0.950 . S
H2751 C2775 0.950 . S
H2752 C2776 0.950 . S
H2753 C2777 0.951 . S
H2754 C2779 0.951 . S
H2755 C2781 0.950 . S
H2756 C2782 0.950 . S
H2757 C2784 0.950 . S
H2758 C2787 0.950 . S
H2759 C2788 0.950 . S
H2760 C2790 0.950 . S
H2761 C2791 0.950 . S
C2762 H2744 0.951 . S
C2762 C2763 1.366 . S
C2762 C2764 1.388 . S
C2763 C2762 1.366 . S
C2763 C2767 1.385 . S
C2764 H2745 0.951 . S
C2764 C2762 1.388 . S
C2764 C2765 1.366 . S
C2765 C2764 1.366 . S
C2765 C2766 1.414 . S
C2765 C2768 1.499 . S
C2766 H2746 0.950 . S
C2766 C2765 1.414 . S
C2766 C2767 1.374 . S
C2767 H2747 0.950 . S
C2767 C2763 1.385 . S
C2767 C2766 1.374 . S
C2768 C2765 1.499 . S
C2768 C2769 1.373 . S
C2768 C2770 1.389 . S
C2769 H2748 0.950 . S
C2769 C2768 1.373 . S
C2769 C2785 1.377 . S
C2770 C2768 1.389 . S
C2770 C2771 1.524 . S
C2770 C2784 1.377 . S
C2771 C2770 1.524 . S
C2771 C2772 1.397 . S
C2771 C2776 1.363 . S
C2772 H2749 0.950 . S
C2772 C2771 1.397 . S
C2772 C2773 1.334 . S
C2773 H2750 0.950 . S
C2773 C2772 1.334 . S
C2773 C2774 1.287 . S
C2774 C2773 1.287 . S
C2774 C2775 1.524 . S
C2774 H2793 0.913 . S
C2775 H2751 0.950 . S
C2775 C2774 1.524 . S
C2775 C2776 1.415 . S
C2776 H2752 0.950 . S
C2776 C2771 1.363 . S
C2776 C2775 1.415 . S
C2777 H2753 0.951 . S
C2777 C2778 1.366 . S
C2777 C2779 1.388 . S
C2778 C2777 1.366 . S
C2778 C2782 1.385 . S
C2779 H2754 0.951 . S
C2779 C2777 1.388 . S
C2779 C2780 1.366 . S
C2780 C2779 1.366 . S
C2780 C2781 1.414 . S
C2780 C2783 1.499 . S
C2781 H2755 0.950 . S
C2781 C2780 1.414 . S
C2781 C2782 1.374 . S
C2782 H2756 0.950 . S
C2782 C2778 1.385 . S
C2782 C2781 1.374 . S
C2783 C2780 1.499 . S
C2783 C2784 1.373 . S
C2783 C2785 1.389 . S
C2784 H2757 0.950 . S
C2784 C2770 1.377 . S
C2784 C2783 1.373 . S
C2785 C2769 1.377 . S
C2785 C2783 1.389 . S
C2785 C2786 1.524 . S
C2786 C2785 1.524 . S
C2786 C2787 1.397 . S
C2786 C2791 1.363 . S
C2787 H2758 0.950 . S
C2787 C2786 1.397 . S
C2787 C2788 1.334 1_655 S
C2788 H2759 0.950 . S
C2788 C2787 1.334 1_455 S
C2788 C2789 1.287 . S
C2789 C2788 1.287 . S
C2789 C2790 1.524 1_455 S
C2789 H2792 0.999 . S
C2790 H2760 0.950 . S
C2790 C2789 1.524 1_655 S
C2790 C2791 1.415 . S
C2791 H2761 0.950 . S
C2791 C2786 1.363 . S
C2791 C2790 1.415 . S
H2792 C2789 0.999 . S
H2793 C2774 0.913 . S
H2794 C2812 0.951 . S
H2795 C2814 0.951 . S
H2796 C2816 0.950 . S
H2797 C2817 0.950 . S
H2798 C2819 0.950 . S
H2799 C2822 0.950 . S
H2800 C2823 0.950 . S
H2801 C2825 0.950 . S
H2802 C2826 0.950 . S
H2803 C2827 0.951 . S
H2804 C2829 0.951 . S
H2805 C2831 0.950 . S
H2806 C2832 0.950 . S
H2807 C2834 0.950 . S
H2808 C2837 0.950 . S
H2809 C2838 0.950 . S
H2810 C2840 0.950 . S
H2811 C2841 0.950 . S
C2812 H2794 0.951 . S
C2812 C2813 1.366 . S
C2812 C2814 1.388 . S
C2813 C2812 1.366 . S
C2813 C2817 1.385 . S
C2814 H2795 0.951 . S
C2814 C2812 1.388 . S
C2814 C2815 1.366 . S
C2815 C2814 1.366 . S
C2815 C2816 1.414 . S
C2815 C2818 1.499 . S
C2816 H2796 0.950 . S
C2816 C2815 1.414 . S
C2816 C2817 1.374 . S
C2817 H2797 0.950 . S
C2817 C2813 1.385 . S
C2817 C2816 1.374 . S
C2818 C2815 1.499 . S
C2818 C2819 1.373 . S
C2818 C2820 1.389 . S
C2819 H2798 0.950 . S
C2819 C2818 1.373 . S
C2819 C2835 1.377 . S
C2820 C2818 1.389 . S
C2820 C2821 1.524 . S
C2820 C2834 1.377 . S
C2821 C2820 1.524 . S
C2821 C2822 1.397 . S
C2821 C2826 1.363 . S
C2822 H2799 0.950 . S
C2822 C2821 1.397 . S
C2822 C2823 1.334 . S
C2823 H2800 0.950 . S
C2823 C2822 1.334 . S
C2823 C2824 1.287 . S
C2824 C2823 1.287 . S
C2824 C2825 1.524 . S
C2824 H2843 0.913 . S
C2825 H2801 0.950 . S
C2825 C2824 1.524 . S
C2825 C2826 1.415 . S
C2826 H2802 0.950 . S
C2826 C2821 1.363 . S
C2826 C2825 1.415 . S
C2827 H2803 0.951 . S
C2827 C2828 1.366 . S
C2827 C2829 1.388 . S
C2828 C2827 1.366 . S
C2828 C2832 1.385 . S
C2829 H2804 0.951 . S
C2829 C2827 1.388 . S
C2829 C2830 1.366 . S
C2830 C2829 1.366 . S
C2830 C2831 1.414 . S
C2830 C2833 1.499 . S
C2831 H2805 0.950 . S
C2831 C2830 1.414 . S
C2831 C2832 1.374 . S
C2832 H2806 0.950 . S
C2832 C2828 1.385 . S
C2832 C2831 1.374 . S
C2833 C2830 1.499 . S
C2833 C2834 1.373 . S
C2833 C2835 1.389 . S
C2834 H2807 0.950 . S
C2834 C2820 1.377 . S
C2834 C2833 1.373 . S
C2835 C2819 1.377 . S
C2835 C2833 1.389 . S
C2835 C2836 1.524 . S
C2836 C2835 1.524 . S
C2836 C2837 1.397 . S
C2836 C2841 1.363 . S
C2837 H2808 0.950 . S
C2837 C2836 1.397 . S
C2837 C2838 1.334 . S
C2838 H2809 0.950 . S
C2838 C2837 1.334 . S
C2838 C2839 1.287 . S
C2839 C2838 1.287 . S
C2839 C2840 1.524 . S
C2839 H2842 0.999 . S
C2840 H2810 0.950 . S
C2840 C2839 1.524 . S
C2840 C2841 1.415 . S
C2841 H2811 0.950 . S
C2841 C2836 1.363 . S
C2841 C2840 1.415 . S
H2842 C2839 0.999 . S
H2843 C2824 0.913 . S
H2844 C2862 0.951 . S
H2845 C2864 0.951 . S
H2846 C2866 0.950 . S
H2847 C2867 0.950 . S
H2848 C2869 0.950 . S
H2849 C2872 0.950 . S
H2850 C2873 0.950 . S
H2851 C2875 0.950 . S
H2852 C2876 0.950 . S
H2853 C2877 0.951 . S
H2854 C2879 0.951 . S
H2855 C2881 0.950 . S
H2856 C2882 0.950 . S
H2857 C2884 0.950 . S
H2858 C2887 0.950 . S
H2859 C2888 0.950 . S
H2860 C2890 0.950 . S
H2861 C2891 0.950 . S
C2862 H2844 0.951 . S
C2862 C2863 1.366 . S
C2862 C2864 1.388 . S
C2863 C2862 1.366 . S
C2863 C2867 1.385 . S
C2864 H2845 0.951 . S
C2864 C2862 1.388 . S
C2864 C2865 1.366 . S
C2865 C2864 1.366 . S
C2865 C2866 1.414 . S
C2865 C2868 1.499 . S
C2866 H2846 0.950 . S
C2866 C2865 1.414 . S
C2866 C2867 1.374 . S
C2867 H2847 0.950 . S
C2867 C2863 1.385 . S
C2867 C2866 1.374 . S
C2868 C2865 1.499 . S
C2868 C2869 1.373 . S
C2868 C2870 1.389 . S
C2869 H2848 0.950 . S
C2869 C2868 1.373 . S
C2869 C2885 1.377 . S
C2870 C2868 1.389 . S
C2870 C2871 1.524 . S
C2870 C2884 1.377 . S
C2871 C2870 1.524 . S
C2871 C2872 1.397 . S
C2871 C2876 1.363 . S
C2872 H2849 0.950 . S
C2872 C2871 1.397 . S
C2872 C2873 1.334 . S
C2873 H2850 0.950 . S
C2873 C2872 1.334 . S
C2873 C2874 1.287 . S
C2874 C2873 1.287 . S
C2874 C2875 1.524 . S
C2874 H2893 0.913 . S
C2875 H2851 0.950 . S
C2875 C2874 1.524 . S
C2875 C2876 1.415 . S
C2876 H2852 0.950 . S
C2876 C2871 1.363 . S
C2876 C2875 1.415 . S
C2877 H2853 0.951 . S
C2877 C2878 1.366 . S
C2877 C2879 1.388 . S
C2878 C2877 1.366 . S
C2878 C2882 1.385 . S
C2879 H2854 0.951 . S
C2879 C2877 1.388 . S
C2879 C2880 1.366 . S
C2880 C2879 1.366 . S
C2880 C2881 1.414 . S
C2880 C2883 1.499 . S
C2881 H2855 0.950 . S
C2881 C2880 1.414 . S
C2881 C2882 1.374 . S
C2882 H2856 0.950 . S
C2882 C2878 1.385 . S
C2882 C2881 1.374 . S
C2883 C2880 1.499 . S
C2883 C2884 1.373 . S
C2883 C2885 1.389 . S
C2884 H2857 0.950 . S
C2884 C2870 1.377 . S
C2884 C2883 1.373 . S
C2885 C2869 1.377 . S
C2885 C2883 1.389 . S
C2885 C2886 1.524 . S
C2886 C2885 1.524 . S
C2886 C2887 1.397 . S
C2886 C2891 1.363 . S
C2887 H2858 0.950 . S
C2887 C2886 1.397 . S
C2887 C2888 1.334 . S
C2888 H2859 0.950 . S
C2888 C2887 1.334 . S
C2888 C2889 1.287 . S
C2889 C2888 1.287 . S
C2889 C2890 1.524 . S
C2889 H2892 0.999 . S
C2890 H2860 0.950 . S
C2890 C2889 1.524 . S
C2890 C2891 1.415 . S
C2891 H2861 0.950 . S
C2891 C2886 1.363 . S
C2891 C2890 1.415 . S
H2892 C2889 0.999 . S
H2893 C2874 0.913 . S
H2894 C2912 0.951 . S
H2895 C2914 0.951 . S
H2896 C2916 0.950 . S
H2897 C2917 0.950 . S
H2898 C2919 0.950 . S
H2899 C2922 0.950 . S
H2900 C2923 0.950 . S
H2901 C2925 0.950 . S
H2902 C2926 0.950 . S
H2903 C2927 0.951 . S
H2904 C2929 0.951 . S
H2905 C2931 0.950 . S
H2906 C2932 0.950 . S
H2907 C2934 0.950 . S
H2908 C2937 0.950 . S
H2909 C2938 0.950 . S
H2910 C2940 0.950 . S
H2911 C2941 0.950 . S
C2912 H2894 0.951 . S
C2912 C2913 1.366 . S
C2912 C2914 1.388 . S
C2913 C2912 1.366 . S
C2913 C2917 1.385 . S
C2914 H2895 0.951 . S
C2914 C2912 1.388 . S
C2914 C2915 1.366 . S
C2915 C2914 1.366 . S
C2915 C2916 1.414 . S
C2915 C2918 1.499 . S
C2916 H2896 0.950 . S
C2916 C2915 1.414 . S
C2916 C2917 1.374 . S
C2917 H2897 0.950 . S
C2917 C2913 1.385 . S
C2917 C2916 1.374 . S
C2918 C2915 1.499 . S
C2918 C2919 1.373 . S
C2918 C2920 1.389 . S
C2919 H2898 0.950 . S
C2919 C2918 1.373 . S
C2919 C2935 1.377 . S
C2920 C2918 1.389 . S
C2920 C2921 1.524 . S
C2920 C2934 1.377 . S
C2921 C2920 1.524 . S
C2921 C2922 1.397 . S
C2921 C2926 1.363 . S
C2922 H2899 0.950 . S
C2922 C2921 1.397 . S
C2922 C2923 1.334 . S
C2923 H2900 0.950 . S
C2923 C2922 1.334 . S
C2923 C2924 1.287 . S
C2924 C2923 1.287 . S
C2924 C2925 1.524 . S
C2924 H2943 0.913 . S
C2925 H2901 0.950 . S
C2925 C2924 1.524 . S
C2925 C2926 1.415 . S
C2926 H2902 0.950 . S
C2926 C2921 1.363 . S
C2926 C2925 1.415 . S
C2927 H2903 0.951 . S
C2927 C2928 1.366 . S
C2927 C2929 1.388 . S
C2928 C2927 1.366 . S
C2928 C2932 1.385 . S
C2929 H2904 0.951 . S
C2929 C2927 1.388 . S
C2929 C2930 1.366 . S
C2930 C2929 1.366 . S
C2930 C2931 1.414 . S
C2930 C2933 1.499 . S
C2931 H2905 0.950 . S
C2931 C2930 1.414 . S
C2931 C2932 1.374 . S
C2932 H2906 0.950 . S
C2932 C2928 1.385 . S
C2932 C2931 1.374 . S
C2933 C2930 1.499 . S
C2933 C2934 1.373 . S
C2933 C2935 1.389 . S
C2934 H2907 0.950 . S
C2934 C2920 1.377 . S
C2934 C2933 1.373 . S
C2935 C2919 1.377 . S
C2935 C2933 1.389 . S
C2935 C2936 1.524 . S
C2936 C2935 1.524 . S
C2936 C2937 1.397 . S
C2936 C2941 1.363 . S
C2937 H2908 0.950 . S
C2937 C2936 1.397 . S
C2937 C2938 1.334 . S
C2938 H2909 0.950 . S
C2938 C2937 1.334 . S
C2938 C2939 1.287 . S
C2939 C2938 1.287 . S
C2939 C2940 1.524 . S
C2939 H2942 0.999 . S
C2940 H2910 0.950 . S
C2940 C2939 1.524 . S
C2940 C2941 1.415 . S
C2941 H2911 0.950 . S
C2941 C2936 1.363 . S
C2941 C2940 1.415 . S
H2942 C2939 0.999 . S
H2943 C2924 0.913 . S
H2944 C2962 0.951 . S
H2945 C2964 0.951 . S
H2946 C2966 0.950 . S
H2947 C2967 0.950 . S
H2948 C2969 0.950 . S
H2949 C2972 0.950 . S
H2950 C2973 0.950 . S
H2951 C2975 0.950 . S
H2952 C2976 0.950 . S
H2953 C2977 0.951 . S
H2954 C2979 0.951 . S
H2955 C2981 0.950 . S
H2956 C2982 0.950 . S
H2957 C2984 0.950 . S
H2958 C2987 0.950 . S
H2959 C2988 0.950 . S
H2960 C2990 0.950 . S
H2961 C2991 0.950 . S
C2962 H2944 0.951 . S
C2962 C2963 1.366 . S
C2962 C2964 1.388 . S
C2963 C2962 1.366 . S
C2963 C2967 1.385 . S
C2964 H2945 0.951 . S
C2964 C2962 1.388 . S
C2964 C2965 1.366 . S
C2965 C2964 1.366 . S
C2965 C2966 1.414 . S
C2965 C2968 1.499 . S
C2966 H2946 0.950 . S
C2966 C2965 1.414 . S
C2966 C2967 1.374 . S
C2967 H2947 0.950 . S
C2967 C2963 1.385 . S
C2967 C2966 1.374 . S
C2968 C2965 1.499 . S
C2968 C2969 1.373 . S
C2968 C2970 1.389 . S
C2969 H2948 0.950 . S
C2969 C2968 1.373 . S
C2969 C2985 1.377 . S
C2970 C2968 1.389 . S
C2970 C2971 1.524 . S
C2970 C2984 1.377 . S
C2971 C2970 1.524 . S
C2971 C2972 1.397 . S
C2971 C2976 1.363 . S
C2972 H2949 0.950 . S
C2972 C2971 1.397 . S
C2972 C2973 1.334 . S
C2973 H2950 0.950 . S
C2973 C2972 1.334 . S
C2973 C2974 1.287 . S
C2974 C2973 1.287 . S
C2974 C2975 1.524 . S
C2974 H2993 0.913 . S
C2975 H2951 0.950 . S
C2975 C2974 1.524 . S
C2975 C2976 1.415 . S
C2976 H2952 0.950 . S
C2976 C2971 1.363 . S
C2976 C2975 1.415 . S
C2977 H2953 0.951 . S
C2977 C2978 1.366 . S
C2977 C2979 1.388 . S
C2978 C2977 1.366 . S
C2978 C2982 1.385 . S
C2979 H2954 0.951 . S
C2979 C2977 1.388 . S
C2979 C2980 1.366 . S
C2980 C2979 1.366 . S
C2980 C2981 1.414 . S
C2980 C2983 1.499 . S
C2981 H2955 0.950 . S
C2981 C2980 1.414 . S
C2981 C2982 1.374 . S
C2982 H2956 0.950 . S
C2982 C2978 1.385 . S
C2982 C2981 1.374 . S
C2983 C2980 1.499 . S
C2983 C2984 1.373 . S
C2983 C2985 1.389 . S
C2984 H2957 0.950 . S
C2984 C2970 1.377 . S
C2984 C2983 1.373 . S
C2985 C2969 1.377 . S
C2985 C2983 1.389 . S
C2985 C2986 1.524 . S
C2986 C2985 1.524 . S
C2986 C2987 1.397 . S
C2986 C2991 1.363 . S
C2987 H2958 0.950 . S
C2987 C2986 1.397 . S
C2987 C2988 1.334 . S
C2988 H2959 0.950 . S
C2988 C2987 1.334 . S
C2988 C2989 1.287 . S
C2989 C2988 1.287 . S
C2989 C2990 1.524 . S
C2989 H2992 0.999 . S
C2990 H2960 0.950 . S
C2990 C2989 1.524 . S
C2990 C2991 1.415 . S
C2991 H2961 0.950 . S
C2991 C2986 1.363 . S
C2991 C2990 1.415 . S
H2992 C2989 0.999 . S
H2993 C2974 0.913 . S
H2994 C3012 0.951 . S
H2995 C3014 0.951 . S
H2996 C3016 0.950 . S
H2997 C3017 0.950 . S
H2998 C3019 0.950 . S
H2999 C3022 0.950 . S
H3000 C3023 0.950 . S
H3001 C3025 0.950 . S
H3002 C3026 0.950 . S
H3003 C3027 0.951 . S
H3004 C3029 0.951 . S
H3005 C3031 0.950 . S
H3006 C3032 0.950 . S
H3007 C3034 0.950 . S
H3008 C3037 0.950 . S
H3009 C3038 0.950 . S
H3010 C3040 0.950 . S
H3011 C3041 0.950 . S
C3012 H2994 0.951 . S
C3012 C3013 1.366 . S
C3012 C3014 1.388 . S
C3013 C3012 1.366 . S
C3013 C3017 1.385 . S
C3014 H2995 0.951 . S
C3014 C3012 1.388 . S
C3014 C3015 1.366 . S
C3015 C3014 1.366 . S
C3015 C3016 1.414 . S
C3015 C3018 1.499 . S
C3016 H2996 0.950 . S
C3016 C3015 1.414 . S
C3016 C3017 1.374 . S
C3017 H2997 0.950 . S
C3017 C3013 1.385 . S
C3017 C3016 1.374 . S
C3018 C3015 1.499 . S
C3018 C3019 1.373 . S
C3018 C3020 1.389 . S
C3019 H2998 0.950 . S
C3019 C3018 1.373 . S
C3019 C3035 1.377 . S
C3020 C3018 1.389 . S
C3020 C3021 1.524 . S
C3020 C3034 1.377 . S
C3021 C3020 1.524 . S
C3021 C3022 1.397 . S
C3021 C3026 1.363 . S
C3022 H2999 0.950 . S
C3022 C3021 1.397 . S
C3022 C3023 1.334 . S
C3023 H3000 0.950 . S
C3023 C3022 1.334 . S
C3023 C3024 1.287 . S
C3024 C3023 1.287 . S
C3024 C3025 1.524 . S
C3024 H3043 0.913 . S
C3025 H3001 0.950 . S
C3025 C3024 1.524 . S
C3025 C3026 1.415 . S
C3026 H3002 0.950 . S
C3026 C3021 1.363 . S
C3026 C3025 1.415 . S
C3027 H3003 0.951 . S
C3027 C3028 1.366 . S
C3027 C3029 1.388 . S
C3028 C3027 1.366 . S
C3028 C3032 1.385 . S
C3029 H3004 0.951 . S
C3029 C3027 1.388 . S
C3029 C3030 1.366 . S
C3030 C3029 1.366 . S
C3030 C3031 1.414 . S
C3030 C3033 1.499 . S
C3031 H3005 0.950 . S
C3031 C3030 1.414 . S
C3031 C3032 1.374 . S
C3032 H3006 0.950 . S
C3032 C3028 1.385 . S
C3032 C3031 1.374 . S
C3033 C3030 1.499 . S
C3033 C3034 1.373 . S
C3033 C3035 1.389 . S
C3034 H3007 0.950 . S
C3034 C3020 1.377 . S
C3034 C3033 1.373 . S
C3035 C3019 1.377 . S
C3035 C3033 1.389 . S
C3035 C3036 1.524 . S
C3036 C3035 1.524 . S
C3036 C3037 1.397 . S
C3036 C3041 1.363 . S
C3037 H3008 0.950 . S
C3037 C3036 1.397 . S
C3037 C3038 1.334 . S
C3038 H3009 0.950 . S
C3038 C3037 1.334 . S
C3038 C3039 1.287 . S
C3039 C3038 1.287 . S
C3039 C3040 1.524 . S
C3039 H3042 0.999 . S
C3040 H3010 0.950 . S
C3040 C3039 1.524 . S
C3040 C3041 1.415 . S
C3041 H3011 0.950 . S
C3041 C3036 1.363 . S
C3041 C3040 1.415 . S
H3042 C3039 0.999 . S
H3043 C3024 0.913 . S
C678 C355 2.323 . S
C663 C18 2.300 . S
C728 C333 2.690 . S
C713 C59 2.687 . S
C778 C330 0.410 . S
C763 C98 0.471 . S
C813 C125 1.146 . S
C828 C342 1.107 . S
C863 C169 2.581 . S
C878 C325 2.569 . S
C928 C347 0.414 . S
C913 C218 0.462 . S
C963 C255 1.330 . S
C978 C352 1.279 . S
C1013 C288 2.303 . S
C1028 C348 2.327 . S
C1078 C406 1.014 . S
C1063 C15 1.053 . S
C1113 C45 0.825 . S
C1128 C456 0.843 . S
C1178 C379 0.515 . S
C1163 C95 0.453 . S
C1228 C455 0.166 . S
C1213 C128 0.347 . S
C1263 C178 0.318 . S
C1278 C384 0.200 . S
C1328 C450 1.763 . S
C1313 C215 1.835 . S
C1363 C249 2.044 . S
C1378 C409 2.102 . S
C1413 C299 2.377 . S
C1428 C441 2.355 1_556 S
C1463 C9 2.939 . S
C1478 C433 2.942 . S
C1513 C175 0.484 . S
C1528 C463 0.463 . S
C1578 C387 1.879 . S
C1563 C209 1.900 . S
C1628 C438 0.759 . S
C1613 C258 0.759 . S
C1663 C285 1.527 . S
C1678 C396 1.488 . S
C1713 C89 3.421 . S
C1728 C460 3.386 . S
C1778 C402 2.456 . S
C1763 C139 2.379 . S
C1813 C48 0.743 . S
C1828 C401 0.741 . S
C1863 C298 2.300 . S
C1878 C517 2.323 . S
C1913 C179 2.581 . S
C1928 C495 2.571 . S
C1978 C492 0.419 . S
C1963 C208 0.465 . S
C2028 C504 1.290 . S
C2013 C245 1.329 . S
C2063 C49 2.688 . S
C2078 C487 2.687 . S
C2128 C509 0.412 . S
C2113 C88 0.472 . S
C2163 C135 1.147 . S
C2178 C514 1.112 . S
C2213 C8 2.302 . S
C2228 C510 2.326 . S
C2263 C295 1.520 . S
C2278 C568 1.480 . S
C2328 C618 0.455 . S
C2313 C165 0.488 . S
C2363 C219 1.889 . S
C2378 C541 1.866 . S
C2413 C248 0.743 . S
C2428 C617 0.743 . S
C2478 C546 0.730 . S
C2463 C58 0.730 . S
C2513 C99 3.410 . S
C2528 C612 3.371 . S
C2578 C571 2.448 . S
C2563 C129 2.374 . S
C2628 C603 2.934 . S
C2613 C19 2.931 . S
C2678 C595 2.357 . S
C2663 C289 2.381 . S
C2713 C55 0.818 . S
C2728 C625 0.841 . S
C2763 C85 0.466 . S
C2778 C549 0.519 . S
C2828 C600 0.181 . S
C2813 C138 0.348 . S
C2863 C5 1.063 . S
C2878 C558 1.019 . S
C2913 C205 1.847 . S
C2928 C622 1.778 . S
C2978 C564 2.112 . S
C2963 C259 2.056 . S
C3028 C563 0.207 . S
C3013 C168 0.321 . S
