# Generated by pormake.
# Topology apo, (3,6)-cn, num edge types: 1
# Building blocks:
#     Node 0, Type 0, BuildingBlock: WUSLED_clean_sbu_0, # of connection points: 3
#     Node 1, Type 0, BuildingBlock: WUSLED_clean_sbu_0, # of connection points: 3
#     Node 2, Type 0, BuildingBlock: WUSLED_clean_sbu_0, # of connection points: 3
#     Node 3, Type 0, BuildingBlock: WUSLED_clean_sbu_0, # of connection points: 3
#     Node 4, Type 0, BuildingBlock: WUSLED_clean_sbu_0, # of connection points: 3
#     Node 5, Type 0, BuildingBlock: WUSLED_clean_sbu_0, # of connection points: 3
#     Node 6, Type 0, BuildingBlock: WUSLED_clean_sbu_0, # of connection points: 3
#     Node 7, Type 0, BuildingBlock: WUSLED_clean_sbu_0, # of connection points: 3
#     Node 8, Type 1, BuildingBlock: KUMJIN_clean_sbu_1, # of connection points: 6
#     Node 9, Type 1, BuildingBlock: KUMJIN_clean_sbu_1, # of connection points: 6
#     Node 10, Type 1, BuildingBlock: KUMJIN_clean_sbu_1, # of connection points: 6
#     Node 11, Type 1, BuildingBlock: KUMJIN_clean_sbu_1, # of connection points: 6
#     Edge 12, Type (0, 1), BuildingBlock: OJICUG_clean_linker_0, # of connection points: 2
#     Edge 13, Type (0, 1), BuildingBlock: OJICUG_clean_linker_0, # of connection points: 2
#     Edge 14, Type (0, 1), BuildingBlock: OJICUG_clean_linker_0, # of connection points: 2
#     Edge 15, Type (0, 1), BuildingBlock: OJICUG_clean_linker_0, # of connection points: 2
#     Edge 16, Type (0, 1), BuildingBlock: OJICUG_clean_linker_0, # of connection points: 2
#     Edge 17, Type (0, 1), BuildingBlock: OJICUG_clean_linker_0, # of connection points: 2
#     Edge 18, Type (0, 1), BuildingBlock: OJICUG_clean_linker_0, # of connection points: 2
#     Edge 19, Type (0, 1), BuildingBlock: OJICUG_clean_linker_0, # of connection points: 2
#     Edge 20, Type (0, 1), BuildingBlock: OJICUG_clean_linker_0, # of connection points: 2
#     Edge 21, Type (0, 1), BuildingBlock: OJICUG_clean_linker_0, # of connection points: 2
#     Edge 22, Type (0, 1), BuildingBlock: OJICUG_clean_linker_0, # of connection points: 2
#     Edge 23, Type (0, 1), BuildingBlock: OJICUG_clean_linker_0, # of connection points: 2
#     Edge 24, Type (0, 1), BuildingBlock: OJICUG_clean_linker_0, # of connection points: 2
#     Edge 25, Type (0, 1), BuildingBlock: OJICUG_clean_linker_0, # of connection points: 2
#     Edge 26, Type (0, 1), BuildingBlock: OJICUG_clean_linker_0, # of connection points: 2
#     Edge 27, Type (0, 1), BuildingBlock: OJICUG_clean_linker_0, # of connection points: 2
#     Edge 28, Type (0, 1), BuildingBlock: OJICUG_clean_linker_0, # of connection points: 2
#     Edge 29, Type (0, 1), BuildingBlock: OJICUG_clean_linker_0, # of connection points: 2
#     Edge 30, Type (0, 1), BuildingBlock: OJICUG_clean_linker_0, # of connection points: 2
#     Edge 31, Type (0, 1), BuildingBlock: OJICUG_clean_linker_0, # of connection points: 2
#     Edge 32, Type (0, 1), BuildingBlock: OJICUG_clean_linker_0, # of connection points: 2
#     Edge 33, Type (0, 1), BuildingBlock: OJICUG_clean_linker_0, # of connection points: 2
#     Edge 34, Type (0, 1), BuildingBlock: OJICUG_clean_linker_0, # of connection points: 2
#     Edge 35, Type (0, 1), BuildingBlock: OJICUG_clean_linker_0, # of connection points: 2
# Relax obj value: 0.008
# Max RMSD: 0.111
# Mean RMSD: 0.083
data_MOF--net-apo--node1-WUSLED_clean_sbu_0--node2-KUMJIN_clean_sbu_1--edge1-OJICUG_clean_linker_0
_symmetry_space_group_name_H-M    P1
_symmetry_Int_Tables_number       1
_symmetry_cell_setting            triclinic
loop_
_symmetry_equiv_pos_as_xyz
'x, y, z'
_cell_length_a     25.231792
_cell_length_b     43.217883
_cell_length_c     53.463752
_cell_angle_alpha  90.454231
_cell_angle_beta   89.894527
_cell_angle_gamma 90.202196
loop_
_atom_site_label
_atom_site_type_symbol
_atom_site_fract_x
_atom_site_fract_y
_atom_site_fract_z
_atom_type_partial_charge
C0 C 0.32835 0.44488 0.3767 0.0
C1 C 0.31232 0.47467 0.38426 0.0
C2 C 0.37131 0.49813 0.35347 0.0
C3 C 0.33354 0.50097 0.37277 0.0
C4 C 0.38809 0.46829 0.34637 0.0
C5 C 0.36669 0.44203 0.35777 0.0
U6 U 0.29001 0.38855 0.42986 0.0
O7 O 0.21417 0.36397 0.43543 0.0
O8 O 0.28741 0.33769 0.42947 0.0
C9 C 0.23537 0.33672 0.43098 0.0
C10 C 0.30311 0.41658 0.38682 0.0
C11 C 0.20739 0.31684 0.41243 0.0
C12 C 0.20746 0.28349 0.37543 0.0
C13 C 0.23429 0.30313 0.39212 0.0
C14 C 0.12606 0.29138 0.3986 0.0
C15 C 0.1531 0.27726 0.37854 0.0
C16 C 0.153 0.31081 0.41542 0.0
C17 C 0.33442 0.40733 0.49772 0.0
C18 C 0.30383 0.38167 0.53547 0.0
C19 C 0.36982 0.42235 0.53834 0.0
C20 C 0.36855 0.4256 0.51234 0.0
C21 C 0.33688 0.40069 0.55035 0.0
C22 C 0.30259 0.38498 0.50938 0.0
C23 C 0.33124 0.41316 0.47063 0.0
O24 O 0.33516 0.39492 0.39488 0.0
O25 O 0.26122 0.42044 0.40116 0.0
O26 O 0.28421 0.42047 0.46199 0.0
O27 O 0.35705 0.39384 0.45596 0.0
H28 H 0.28262 0.47773 0.39871 0.0
H29 H 0.31919 0.5235 0.37856 0.0
H30 H 0.41774 0.46516 0.33191 0.0
H31 H 0.37959 0.41936 0.3515 0.0
H32 H 0.22926 0.27325 0.35999 0.0
H33 H 0.27615 0.30736 0.38915 0.0
H34 H 0.08431 0.28681 0.40164 0.0
H35 H 0.13136 0.32093 0.43096 0.0
H36 H 0.27838 0.3645 0.544 0.0
H37 H 0.39513 0.43774 0.54908 0.0
H38 H 0.39335 0.44302 0.50367 0.0
H39 H 0.27613 0.37054 0.49838 0.0
C40 C 0.21764 0.15971 0.99631 0.0
C41 C 0.16346 0.1605 1.00256 0.0
C42 C 0.18362 0.14897 0.04615 0.0
C43 C 0.14672 0.15524 1.02715 0.0
C44 C 0.23785 0.1485 0.0399 0.0
C45 C 0.2546 0.15391 1.01532 0.0
U46 U 0.22947 0.13588 0.92726 0.0
O47 O 0.22159 0.16314 0.89292 0.0
O48 O 0.29638 0.13936 0.90086 0.0
C49 C 0.27079 0.15808 0.8859 0.0
C50 C 0.23626 0.16533 0.97033 0.0
C51 C 0.30076 0.18499 0.87663 0.0
C52 C 0.32757 0.23907 0.87902 0.0
C53 C 0.30026 0.2137 0.88909 0.0
C54 C 0.35653 0.20711 0.84421 0.0
C55 C 0.35595 0.23607 0.85639 0.0
C56 C 0.32925 0.18189 0.85424 0.0
C57 C 0.16639 0.05914 0.9059 0.0
C58 C 0.13564 0.0454 0.86414 0.0
C59 C 0.15065 1.00525 0.89464 0.0
C60 C 0.16639 0.02768 0.91214 0.0
C61 C 0.13423 1.01389 0.87057 0.0
C62 C 0.1518 0.06782 0.8816 0.0
C63 C 0.17982 0.08241 0.92525 0.0
O64 O 0.27343 0.14668 0.96188 0.0
O65 O 0.19966 0.17117 0.95354 0.0
O66 O 0.15558 0.1092 0.92362 0.0
O67 O 0.23034 0.08507 0.93081 0.0
H68 H 0.13378 0.16519 0.9885 0.0
H69 H 0.10473 0.15633 0.03128 0.0
H70 H 0.26744 0.14339 0.0539 0.0
H71 H 0.29662 0.15336 1.01113 0.0
H72 H 0.32672 0.26095 0.88902 0.0
H73 H 0.27854 0.21654 0.90645 0.0
H74 H 0.37716 0.20404 0.82659 0.0
H75 H 0.32985 0.15995 0.84428 0.0
H76 H 0.12381 0.05274 0.84565 0.0
H77 H 0.14952 0.98123 0.90026 0.0
H78 H 0.17755 0.0205 0.93077 0.0
H79 H 0.15201 0.09194 0.87624 0.0
C80 C 0.8074 0.08307 0.68786 0.0
C81 C 0.84839 0.06722 0.67548 0.0
C82 C 0.85074 0.02892 0.70878 0.0
C83 C 0.86988 0.04034 0.68586 0.0
C84 C 0.80859 0.04449 0.72064 0.0
C85 C 0.78725 0.07129 0.71028 0.0
U86 U 0.78801 0.1441 0.63662 0.0
O87 O 0.71818 0.17255 0.62839 0.0
O88 O 0.79247 0.1949 0.63997 0.0
C89 C 0.74187 0.19848 0.63504 0.0
C90 C 0.78662 0.11255 0.67844 0.0
C91 C 0.7124 0.21857 0.65257 0.0
C92 C 0.65707 0.22591 0.68945 0.0
C93 C 0.68528 0.20636 0.67323 0.0
C94 C 0.68341 0.27013 0.66476 0.0
C95 C 0.65567 0.25809 0.68541 0.0
C96 C 0.71138 0.25055 0.64852 0.0
C97 C 0.846 0.13182 0.57073 0.0
C98 C 0.87195 0.17094 0.54053 0.0
C99 C 0.85377 0.11854 0.52655 0.0
C100 C 0.84255 0.11002 0.55121 0.0
C101 C 0.86907 0.14903 0.52095 0.0
C102 C 0.86029 0.16246 0.56516 0.0
C103 C 0.83581 0.12187 0.59668 0.0
O104 O 0.82231 0.13382 0.67335 0.0
O105 O 0.749 0.11053 0.66152 0.0
O106 O 0.78619 0.11556 0.60224 0.0
O107 O 0.86054 0.13742 0.61443 0.0
H108 H 0.86445 0.07599 0.65811 0.0
H109 H 0.90253 0.02908 0.67632 0.0
H110 H 0.79223 0.03606 0.73805 0.0
H111 H 0.75545 0.08313 0.72004 0.0
H112 H 0.63577 0.21574 0.70496 0.0
H113 H 0.6857 0.1817 0.67675 0.0
H114 H 0.68412 0.29477 0.66127 0.0
H115 H 0.73235 0.26044 0.63277 0.0
H116 H 0.88291 0.19471 0.53678 0.0
H117 H 0.85158 0.10107 0.51195 0.0
H118 H 0.83166 0.08626 0.55509 0.0
H119 H 0.86282 0.17982 0.57985 0.0
C120 C 0.69542 0.35954 0.06517 0.0
C121 C 0.70753 0.38672 0.05199 0.0
C122 C 0.67575 0.36322 1.01312 0.0
C123 C 0.69797 0.38847 1.02623 0.0
C124 C 0.66134 0.33665 1.02661 0.0
C125 C 0.67128 0.33481 0.05232 0.0
U126 U 0.70433 0.38661 0.134 0.0
O127 O 0.69711 0.36003 0.1688 0.0
O128 O 0.77145 0.38437 0.16017 0.0
C129 C 0.74639 0.36568 0.17546 0.0
C130 C 0.71098 0.35556 0.09166 0.0
C131 C 0.77753 0.33965 0.18532 0.0
C132 C 0.79489 0.28465 0.19031 0.0
C133 C 0.76656 0.30866 0.179 0.0
C134 C 0.84604 0.32239 0.21382 0.0
C135 C 0.83447 0.29126 0.20814 0.0
C136 C 0.81782 0.34624 0.20258 0.0
C137 C 0.647 0.46459 0.1549 0.0
C138 C 0.6138 0.48069 0.19581 0.0
C139 C 0.64626 0.51901 0.16671 0.0
C140 C 0.6578 0.49562 0.14937 0.0
C141 C 0.62314 0.51194 0.18998 0.0
C142 C 0.62571 0.45723 0.17847 0.0
C143 C 0.65731 0.44063 0.13562 0.0
O144 O 0.74873 0.37391 0.10011 0.0
O145 O 0.67229 0.35147 0.10783 0.0
O146 O 0.63175 0.41423 0.138 0.0
O147 O 0.70715 0.43716 0.12904 0.0
H148 H 0.72577 0.4063 0.06141 0.0
H149 H 0.70903 0.40938 1.01645 0.0
H150 H 0.64472 0.31666 1.01708 0.0
H151 H 0.66166 0.31361 0.06204 0.0
H152 H 0.78482 0.26094 0.1856 0.0
H153 H 0.73564 0.30298 0.16569 0.0
H154 H 0.87693 0.32837 0.22706 0.0
H155 H 0.827 0.36998 0.20768 0.0
H156 H 0.59569 0.4744 0.21344 0.0
H157 H 0.655 0.54273 0.16175 0.0
H158 H 0.67464 0.50184 0.13143 0.0
H159 H 0.61736 0.43342 0.18334 0.0
C160 C 0.68575 0.58327 0.68543 0.0
C161 C 0.68655 0.55441 0.67315 0.0
C162 C 0.63786 0.53102 0.70773 0.0
C163 C 0.66297 0.52849 0.68426 0.0
C164 C 0.63695 0.56005 0.71981 0.0
C165 C 0.6607 0.58584 0.70878 0.0
U166 U 0.72953 0.63644 0.63115 0.0
O167 O 0.72902 0.68744 0.63023 0.0
O168 O 0.80413 0.66231 0.62673 0.0
C169 C 0.781 0.68933 0.62969 0.0
C170 C 0.71173 0.61089 0.67485 0.0
C171 C 0.80511 0.71071 0.64821 0.0
C172 C 0.85778 0.72059 0.68559 0.0
C173 C 0.8344 0.69977 0.66864 0.0
C174 C 0.82187 0.76351 0.66232 0.0
C175 C 0.85188 0.75271 0.68259 0.0
C176 C 0.7989 0.74272 0.64528 0.0
C177 C 0.69585 0.61541 0.56243 0.0
C178 C 0.74254 0.62515 0.52331 0.0
C179 C 0.64814 0.61512 0.52286 0.0
C180 C 0.64853 0.61212 0.54891 0.0
C181 C 0.69525 0.62129 0.50962 0.0
C182 C 0.74284 0.6223 0.54941 0.0
C183 C 0.69535 0.60989 0.58976 0.0
O184 O 0.75514 0.60622 0.66171 0.0
O185 O 0.68012 0.63152 0.66494 0.0
O186 O 0.66619 0.62879 0.60335 0.0
O187 O 0.74096 0.60321 0.60027 0.0
H188 H 0.70551 0.55189 0.65506 0.0
H189 H 0.66387 0.50654 0.67435 0.0
H190 H 0.6186 0.56276 0.73802 0.0
H191 H 0.65986 0.60785 0.71862 0.0
H192 H 0.88011 0.71153 0.70117 0.0
H193 H 0.83938 0.67517 0.6715 0.0
H194 H 0.81699 0.7881 0.65934 0.0
H195 H 0.77648 0.75167 0.62968 0.0
H196 H 0.77972 0.62959 0.51382 0.0
H197 H 0.61079 0.61257 0.51311 0.0
H198 H 0.61178 0.60683 0.55851 0.0
H199 H 0.78001 0.62496 0.55931 0.0
C200 C 0.78111 0.86569 0.06629 0.0
C201 C 0.76705 0.89248 0.05312 0.0
C202 C 0.80236 0.87046 1.01437 0.0
C203 C 0.7774 0.89477 1.02745 0.0
C204 C 0.8181 0.84417 1.02777 0.0
C205 C 0.80735 0.84177 0.05341 0.0
U206 U 0.77947 0.89146 0.13544 0.0
O207 O 0.71483 0.89018 0.16323 0.0
O208 O 0.78807 0.8642 0.16976 0.0
C209 C 0.73993 0.87063 0.17767 0.0
C210 C 0.76635 0.86145 0.09294 0.0
C211 C 0.70826 0.84463 0.18755 0.0
C212 C 0.68303 0.79021 0.1883 0.0
C213 C 0.71153 0.8146 0.17743 0.0
C214 C 0.64696 0.82568 0.21914 0.0
C215 C 0.6506 0.79543 0.2094 0.0
C216 C 0.6755 0.84995 0.20834 0.0
C217 C 0.85049 0.9671 0.15432 0.0
C218 C 0.83586 0.99853 0.19171 0.0
C219 C 0.91757 1.00382 0.16826 0.0
C220 C 0.90007 0.98129 0.15127 0.0
C221 C 0.88571 1.01275 0.18868 0.0
C222 C 0.81849 0.97576 0.17474 0.0
C223 C 0.83331 0.94361 0.13582 0.0
O224 O 0.8054 0.85564 0.10845 0.0
O225 O 0.73117 0.88075 0.1023 0.0
O226 O 0.78222 0.94202 0.13114 0.0
O227 O 0.85571 0.91633 0.13772 0.0
H228 H 0.74712 0.91147 0.0625 0.0
H229 H 0.76529 0.91548 1.01774 0.0
H230 H 0.83688 0.82489 1.01825 0.0
H231 H 0.81846 0.82084 0.06308 0.0
H232 H 0.68626 0.76728 0.18013 0.0
H233 H 0.73643 0.80996 0.16131 0.0
H234 H 0.62303 0.83052 0.23554 0.0
H235 H 0.67262 0.87291 0.21651 0.0
H236 H 0.81062 1.00471 0.20737 0.0
H237 H 0.95583 1.01459 0.16518 0.0
H238 H 0.9253 0.975 0.13562 0.0
H239 H 0.78015 0.96498 0.17757 0.0
C240 C 0.18252 0.94544 0.37168 0.0
C241 C 0.13464 0.95848 0.37991 0.0
C242 C 0.14325 0.99967 0.34917 0.0
C243 C 0.11512 0.98528 0.36871 0.0
C244 C 0.1917 0.98675 0.34136 0.0
C245 C 0.21101 0.9599 0.35248 0.0
U246 U 0.20645 0.88744 0.42509 0.0
O247 O 0.2018 0.83666 0.42386 0.0
O248 O 0.27774 0.85948 0.43198 0.0
C249 C 0.25318 0.83334 0.4268 0.0
C250 C 0.20282 0.91633 0.38208 0.0
C251 C 0.27979 0.81307 0.40841 0.0
C252 C 0.2926 0.79446 0.36572 0.0
C253 C 0.26752 0.81436 0.38281 0.0
C254 C 0.34333 0.77234 0.39954 0.0
C255 C 0.3306 0.77302 0.3739 0.0
C256 C 0.31807 0.7921 0.41659 0.0
C257 C 0.16001 0.90332 0.49216 0.0
C258 C 0.18322 0.86978 0.5267 0.0
C259 C 0.12414 0.91303 0.53378 0.0
C260 C 0.12833 0.92089 0.50847 0.0
C261 C 0.15159 0.88737 0.54326 0.0
C262 C 0.18727 0.87764 0.50142 0.0
C263 C 0.1648 0.91218 0.46569 0.0
O264 O 0.24273 0.91899 0.39771 0.0
O265 O 0.16717 0.8959 0.38916 0.0
O266 O 0.13757 0.89518 0.44973 0.0
O267 O 0.21318 0.91821 0.45792 0.0
H268 H 0.11198 0.94773 0.39474 0.0
H269 H 0.07739 0.99432 0.37503 0.0
H270 H 0.21489 0.99745 0.3267 0.0
H271 H 0.24814 0.95023 0.34592 0.0
H272 H 0.28149 0.79551 0.3462 0.0
H273 H 0.23826 0.83056 0.37608 0.0
H274 H 0.37317 0.75667 0.40649 0.0
H275 H 0.32843 0.79097 0.43622 0.0
H276 H 0.20571 0.85021 0.53334 0.0
H277 H 0.09902 0.9269 0.54585 0.0
H278 H 0.10688 0.94077 0.50162 0.0
H279 H 0.21205 0.86382 0.48912 0.0
C280 C 0.3189 0.68645 0.99136 0.0
C281 C 0.31513 0.66064 1.00712 0.0
C282 C 0.35437 0.69031 0.0415 0.0
C283 C 0.33252 0.6626 0.03198 0.0
C284 C 0.35863 0.7159 1.02551 0.0
C285 C 0.34099 0.71398 1.00077 0.0
U286 U 0.30218 0.64917 0.92591 0.0
O287 O 0.23314 0.64877 0.90083 0.0
O288 O 0.3071 0.67122 0.88897 0.0
C289 C 0.25686 0.66599 0.88396 0.0
C290 C 0.29889 0.6858 0.96536 0.0
C291 C 0.22669 0.69244 0.87381 0.0
C292 C 0.14784 0.72482 0.87228 0.0
C293 C 0.1771 0.70122 0.88356 0.0
C294 C 0.21763 0.73169 0.84169 0.0
C295 C 0.16747 0.74013 0.85101 0.0
C296 C 0.24669 0.70807 0.85289 0.0
C297 C 0.3646 0.5705 0.91055 0.0
C298 C 0.34868 0.5419 0.87188 0.0
C299 C 0.41837 0.52575 0.89994 0.0
C300 C 0.40571 0.55007 0.91626 0.0
C301 C 0.39001 0.52126 0.87753 0.0
C302 C 0.33615 0.56634 0.88822 0.0
C303 C 0.35276 0.5962 0.92793 0.0
O304 O 0.33494 0.68826 0.94771 0.0
O305 O 0.26171 0.66538 0.96005 0.0
O306 O 0.30278 0.59943 0.93442 0.0
O307 O 0.37623 0.6226 0.92285 0.0
H308 H 0.2985 0.63903 1.0003 0.0
H309 H 0.32917 0.64237 0.04371 0.0
H310 H 0.37457 0.7377 0.03228 0.0
H311 H 0.34409 0.73422 0.98901 0.0
H312 H 0.10918 0.73045 0.87983 0.0
H313 H 0.16039 0.68956 0.89961 0.0
H314 H 0.23453 0.7433 0.82566 0.0
H315 H 0.2847 0.70172 0.84494 0.0
H316 H 0.32568 0.53903 0.85494 0.0
H317 H 0.45109 0.51078 0.90473 0.0
H318 H 0.42837 0.55307 0.93331 0.0
H319 H 0.30433 0.58198 0.88345 0.0
Eu320 Eu 0.06552 0.15911 0.25728 0.0
C321 C 0.82587 0.13113 0.28847 0.0
N322 N 0.85461 0.15733 0.2927 0.0
C323 C 0.77982 0.18857 0.28208 0.0
C324 C 0.77282 0.13276 0.28034 0.0
C325 C 0.83224 0.18581 0.29016 0.0
C326 C 0.75006 0.16195 0.27699 0.0
C327 C 0.82084 0.07497 0.28788 0.0
C328 C 0.84958 0.10252 0.29225 0.0
C329 C 0.76813 0.07654 0.27961 0.0
C330 C 0.7442 0.10534 0.27585 0.0
Eu331 Eu 0.94311 0.15019 0.30541 0.0
N332 N 0.90128 0.10165 0.29948 0.0
C333 C 0.84605 0.04663 0.29183 0.0
C334 C 0.92537 0.07414 0.30431 0.0
C335 C 0.89838 0.04624 0.30028 0.0
H336 H 0.85453 0.20637 0.29488 0.0
H337 H 0.91792 0.02444 0.30377 0.0
H338 H 0.16645 0.12028 0.28224 0.0
H339 H 0.04452 0.28357 0.24048 0.0
H340 H 0.96528 0.07354 0.31128 0.0
H341 H 0.82535 0.02495 0.28863 0.0
H342 H 0.02309 0.22846 0.23515 0.0
H343 H 0.7623 0.21122 0.27994 0.0
H344 H 0.74551 0.05561 0.27607 0.0
H345 H 0.70346 0.10616 0.26953 0.0
H346 H 0.25206 0.13152 0.30298 0.0
H347 H 0.70942 0.16417 0.27076 0.0
H348 H 0.12394 0.29926 0.26454 0.0
N349 N 0.14831 0.16763 0.27645 0.0
C350 C 0.16422 0.19759 0.27891 0.0
C351 C 0.22768 0.15029 0.29635 0.0
C352 C 0.2125 0.20506 0.29079 0.0
C353 C 0.17923 0.14399 0.28469 0.0
C354 C 0.24432 0.18095 0.2995 0.0
N355 N 0.08429 0.21294 0.25921 0.0
C356 C 0.05525 0.2349 0.24728 0.0
C357 C 0.14625 0.25217 0.27303 0.0
C358 C 0.13098 0.22087 0.2704 0.0
C359 C 0.11359 0.27497 0.26294 0.0
C360 C 0.06849 0.26623 0.24954 0.0
H361 H 0.28166 0.18576 0.30874 0.0
H362 H 0.26375 0.24243 0.30326 0.0
H363 H 0.20604 0.28364 0.28753 0.0
O364 O 0.07111 0.16923 0.21726 0.0
O365 O 0.0744 0.17206 0.29851 0.0
O366 O 0.99427 0.19333 0.30784 0.0
O367 O 0.12952 0.14009 0.23431 0.0
O368 O 0.98404 0.17796 0.24658 0.0
O369 O 0.9504 0.19488 0.28419 0.0
O370 O 0.95582 0.13844 0.34471 0.0
O371 O 0.93374 0.12734 0.26689 0.0
O372 O 0.01767 0.11519 0.25247 0.0
O373 O 0.88765 0.16542 0.33433 0.0
O374 O 0.01819 0.12309 0.31399 0.0
O375 O 0.06536 0.11304 0.27729 0.0
C376 C 0.04571 0.19215 0.311 0.0
C377 C 0.10736 0.12946 0.19218 0.0
C378 C 0.11712 0.1182 0.14741 0.0
C379 C 0.09777 0.08809 0.15172 0.0
C380 C 0.08829 0.09934 0.1959 0.0
C381 C 0.0834 0.07884 0.17576 0.0
C382 C 0.12173 0.13884 0.16792 0.0
C383 C 0.95172 0.19575 0.25965 0.0
C384 C 0.11163 0.15126 0.21346 0.0
C385 C 0.22702 0.23623 0.29399 0.0
C386 C 0.194 0.2597 0.28515 0.0
C387 C 0.96619 0.11062 0.25306 0.0
C388 C 0.92436 0.17511 0.3741 0.0
C389 C 0.92126 0.18519 0.41921 0.0
C390 C 0.94059 0.2153 0.41482 0.0
C391 C 0.94333 0.20521 0.37025 0.0
C392 C 0.91351 0.16513 0.39856 0.0
C393 C 0.95167 0.22511 0.39053 0.0
C394 C 0.05296 0.10701 0.30079 0.0
C395 C 0.91508 0.15417 0.3527 0.0
H396 H 0.0945 0.07143 0.13657 0.0
H397 H 0.0775 0.09167 0.21441 0.0
H398 H 0.06872 0.0556 0.17883 0.0
H399 H 0.13588 0.16226 0.16505 0.0
H400 H 0.94624 0.23155 0.43011 0.0
H401 H 0.9511 0.21336 0.35153 0.0
H402 H 0.89931 0.14173 0.40142 0.0
H403 H 0.96623 0.24835 0.3874 0.0
Eu404 Eu 0.43472 0.38336 0.7604 0.0
C405 C 0.66857 0.41756 0.78323 0.0
N406 N 0.64714 0.38872 0.78128 0.0
C407 C 0.71909 0.37234 0.75511 0.0
C408 C 0.71582 0.4251 0.77049 0.0
C409 C 0.67196 0.36601 0.7679 0.0
C410 C 0.74098 0.40206 0.75629 0.0
C411 C 0.66319 0.47004 0.79946 0.0
C412 C 0.64209 0.43984 0.79737 0.0
C413 C 0.70978 0.47776 0.78647 0.0
C414 C 0.73604 0.45535 0.77205 0.0
Eu415 Eu 0.56716 0.38012 0.80308 0.0
N416 N 0.59653 0.43185 0.80949 0.0
C417 C 0.63752 0.49142 0.81503 0.0
C418 C 0.57461 0.45175 0.8265 0.0
C419 C 0.59368 0.48202 0.829 0.0
H420 H 0.65563 0.34294 0.76734 0.0
H421 H 0.57523 0.49787 0.84213 0.0
H422 H 0.34668 0.41977 0.79685 0.0
H423 H 0.43119 0.26471 0.7228 0.0
H424 H 0.54373 0.44422 0.83891 0.0
H425 H 0.65248 0.51483 0.81715 0.0
H426 H 0.46179 0.31846 0.72576 0.0
H427 H 0.73853 0.35431 0.74439 0.0
H428 H 0.72623 0.50091 0.78772 0.0
H429 H 0.77207 0.46163 0.76225 0.0
H430 H 0.26335 0.40793 0.81935 0.0
H431 H 0.77734 0.40694 0.74623 0.0
H432 H 0.35329 0.24767 0.74724 0.0
N433 N 0.35521 0.37418 0.78232 0.0
C434 C 0.3343 0.34521 0.7803 0.0
C435 C 0.28301 0.39008 0.80851 0.0
C436 C 0.28702 0.33742 0.79292 0.0
C437 C 0.33022 0.39668 0.79589 0.0
C438 C 0.26139 0.36031 0.8071 0.0
N439 N 0.40729 0.33115 0.75448 0.0
C440 C 0.43038 0.31107 0.73794 0.0
C441 C 0.34113 0.29262 0.76442 0.0
C442 C 0.36153 0.323 0.76638 0.0
C443 C 0.36771 0.2712 0.74925 0.0
C444 C 0.41193 0.28066 0.73558 0.0
H445 H 0.22501 0.35521 0.81707 0.0
H446 H 0.23134 0.30057 0.80109 0.0
H447 H 0.27847 0.26142 0.77604 0.0
O448 O 0.41841 0.38367 0.71959 0.0
O449 O 0.43068 0.36133 0.799 0.0
O450 O 0.51187 0.33864 0.80378 0.0
O451 O 0.37066 0.41112 0.74552 0.0
O452 O 0.50931 0.36158 0.74347 0.0
O453 O 0.55286 0.33953 0.77689 0.0
O454 O 0.58193 0.37909 0.84398 0.0
O455 O 0.57119 0.40339 0.7649 0.0
O456 O 0.48919 0.42512 0.75947 0.0
O457 O 0.63075 0.35212 0.81812 0.0
O458 O 0.49316 0.40288 0.81971 0.0
O459 O 0.44796 0.42439 0.78638 0.0
C460 C 0.46052 0.33906 0.80763 0.0
C461 C 0.34545 0.41452 0.70188 0.0
C462 C 0.31917 0.41629 0.65773 0.0
C463 C 0.27863 0.43712 0.66427 0.0
C464 C 0.30439 0.4353 0.70767 0.0
C465 C 0.27144 0.44652 0.689 0.0
C466 C 0.35302 0.40519 0.67671 0.0
C467 C 0.54284 0.34127 0.75278 0.0
C468 C 0.3788 0.40264 0.72249 0.0
C469 C 0.26739 0.30704 0.79138 0.0
C470 C 0.29439 0.28471 0.77721 0.0
C471 C 0.54082 0.42559 0.75651 0.0
C472 C 0.65421 0.34799 0.86194 0.0
C473 C 0.67977 0.34629 0.90608 0.0
C474 C 0.72105 0.32594 0.89977 0.0
C475 C 0.69571 0.32741 0.85629 0.0
C476 C 0.64587 0.35712 0.88709 0.0
C477 C 0.72868 0.31646 0.87509 0.0
C478 C 0.4606 0.42365 0.81028 0.0
C479 C 0.62167 0.36019 0.84118 0.0
H480 H 0.25273 0.44658 0.65013 0.0
H481 H 0.29751 0.44295 0.72675 0.0
H482 H 0.24013 0.46261 0.69372 0.0
H483 H 0.38434 0.38908 0.67198 0.0
H484 H 0.74731 0.31719 0.91407 0.0
H485 H 0.70311 0.31988 0.83723 0.0
H486 H 0.6142 0.37301 0.89181 0.0
H487 H 0.76053 0.30069 0.87048 0.0
Eu488 Eu 0.06004 0.88281 0.7548 0.0
C489 C 0.82242 0.85408 0.78386 0.0
N490 N 0.84877 0.88121 0.78764 0.0
C491 C 0.77363 0.90974 0.77335 0.0
C492 C 0.77035 0.85381 0.77435 0.0
C493 C 0.82525 0.90885 0.78277 0.0
C494 C 0.74609 0.8821 0.76906 0.0
C495 C 0.82178 0.79793 0.78533 0.0
C496 C 0.84799 0.82642 0.78925 0.0
C497 C 0.76997 0.79759 0.77577 0.0
C498 C 0.74434 0.82543 0.7703 0.0
Eu499 Eu 0.93591 0.87752 0.80303 0.0
N500 N 0.89873 0.82743 0.79794 0.0
C501 C 0.84842 0.77059 0.79118 0.0
C502 C 0.92388 0.80092 0.80473 0.0
C503 C 0.89946 0.77213 0.80115 0.0
H504 H 0.84609 0.93026 0.78645 0.0
H505 H 0.91987 0.75115 0.8063 0.0
H506 H 0.15764 0.84872 0.78655 0.0
H507 H 0.04823 1.00167 0.71995 0.0
H508 H 0.96231 0.8017 0.81331 0.0
H509 H 0.82965 0.74824 0.78843 0.0
H510 H 0.02546 0.94639 0.72139 0.0
H511 H 0.75508 0.93172 0.76946 0.0
H512 H 0.74932 0.7759 0.77257 0.0
H513 H 0.70437 0.82477 0.76294 0.0
H514 H 0.24084 0.86348 0.80812 0.0
H515 H 0.70612 0.88286 0.76172 0.0
H516 H 0.12323 0.02186 0.745 0.0
N517 N 0.14039 0.8946 0.77533 0.0
C518 C 0.15664 0.92463 0.77459 0.0
C519 C 0.21741 0.8809 0.79886 0.0
C520 C 0.20356 0.9341 0.78676 0.0
C521 C 0.17037 0.87261 0.78673 0.0
C522 C 0.2339 0.91181 0.79904 0.0
N523 N 0.08096 0.93604 0.75001 0.0
C524 C 0.05557 0.95519 0.73381 0.0
C525 C 0.14171 0.97725 0.76087 0.0
C526 C 0.12556 0.94598 0.762 0.0
C527 C 0.11212 0.99769 0.74637 0.0
C528 C 0.06957 0.98644 0.73233 0.0
H529 H 0.27019 0.91819 0.80861 0.0
H530 H 0.25417 0.97318 0.79588 0.0
H531 H 0.2003 1.0109 0.77306 0.0
O532 O 0.07191 0.88489 0.71359 0.0
O533 O 0.06915 0.89858 0.79553 0.0
O534 O 0.98877 0.91982 0.80513 0.0
O535 O 0.12446 0.85776 0.73712 0.0
O536 O 0.98158 0.9056 0.74374 0.0
O537 O 0.94584 0.92204 0.78143 0.0
O538 O 0.93766 0.86571 0.84285 0.0
O539 O 0.924 0.85931 0.76325 0.0
O540 O 0.00562 0.8412 0.75097 0.0
O541 O 0.88307 0.90022 0.82987 0.0
O542 O 0.0117 0.85178 0.81339 0.0
O543 O 0.05288 0.83808 0.77618 0.0
C544 C 0.04055 0.91974 0.80688 0.0
C545 C 0.14488 0.85636 0.69287 0.0
C546 C 0.16319 0.85404 0.64784 0.0
C547 C 0.20495 0.83343 0.65252 0.0
C548 C 0.18707 0.83578 0.69684 0.0
C549 C 0.21682 0.82452 0.67682 0.0
C550 C 0.13336 0.86576 0.66821 0.0
C551 C 0.95111 0.92444 0.75698 0.0
C552 C 0.1129 0.86669 0.71467 0.0
C553 C 0.21852 0.96541 0.78643 0.0
C554 C 0.18768 0.98692 0.77354 0.0
C555 C 0.95372 0.84086 0.74959 0.0
C556 C 0.85647 0.87081 0.86486 0.0
C557 C 0.81613 0.86387 0.90616 0.0
C558 C 0.77384 0.84789 0.89475 0.0
C559 C 0.81383 0.85471 0.85406 0.0
C560 C 0.85785 0.87507 0.89105 0.0
C561 C 0.77293 0.84325 0.86892 0.0
C562 C 0.04542 0.83474 0.80038 0.0
C563 C 0.89858 0.88396 0.84887 0.0
H564 H 0.22893 0.82442 0.63731 0.0
H565 H 0.19704 0.82813 0.71549 0.0
H566 H 0.24917 0.80869 0.68015 0.0
H567 H 0.10089 0.88151 0.66481 0.0
H568 H 0.74158 0.83873 0.9059 0.0
H569 H 0.81179 0.85123 0.83412 0.0
H570 H 0.89051 0.88765 0.89954 0.0
H571 H 0.7402 0.83087 0.86036 0.0
Eu572 Eu 0.4387 0.65183 0.25418 0.0
C573 C 0.65286 0.69485 0.29726 0.0
N574 N 0.63683 0.66549 0.29196 0.0
C575 C 0.71816 0.65554 0.27022 0.0
C576 C 0.70191 0.70607 0.28844 0.0
C577 C 0.66889 0.64555 0.27914 0.0
C578 C 0.73459 0.68599 0.27473 0.0
C579 C 0.63485 0.74448 0.31685 0.0
C580 C 0.61949 0.71381 0.31117 0.0
C581 C 0.68315 0.75602 0.30762 0.0
C582 C 0.71662 0.73685 0.29348 0.0
Eu583 Eu 0.55363 0.6502 0.30778 0.0
N584 N 0.57292 0.70199 0.31981 0.0
C585 C 0.6018 0.76243 0.33215 0.0
C586 C 0.54283 0.71862 0.33632 0.0
C587 C 0.55603 0.74925 0.34226 0.0
H588 H 0.65632 0.62196 0.27578 0.0
H589 H 0.53139 0.76248 0.35498 0.0
H590 H 0.34906 0.70476 0.27509 0.0
H591 H 0.39771 0.53407 0.22262 0.0
H592 H 0.50944 0.70816 0.34558 0.0
H593 H 0.61217 0.78609 0.33695 0.0
H594 H 0.44807 0.5834 0.22564 0.0
H595 H 0.74337 0.63978 0.25986 0.0
H596 H 0.69537 0.77959 0.31165 0.0
H597 H 0.75397 0.74598 0.28669 0.0
H598 H 0.26225 0.70504 0.29618 0.0
H599 H 0.77262 0.69373 0.26766 0.0
H600 H 0.31288 0.5283 0.24553 0.0
N601 N 0.3525 0.65564 0.27188 0.0
C602 C 0.32432 0.62881 0.27314 0.0
C603 C 0.27962 0.68334 0.29018 0.0
C604 C 0.27345 0.62803 0.28412 0.0
C605 C 0.32944 0.683 0.27869 0.0
C606 C 0.25192 0.65563 0.29338 0.0
N607 N 0.39266 0.60445 0.25031 0.0
C608 C 0.41093 0.58086 0.23553 0.0
C609 C 0.31471 0.57496 0.26061 0.0
C610 C 0.34455 0.60257 0.26159 0.0
C611 C 0.3347 0.54989 0.2468 0.0
C612 C 0.38255 0.55306 0.23381 0.0
H613 H 0.213 0.65601 0.30198 0.0
H614 H 0.20594 0.59897 0.29312 0.0
H615 H 0.24209 0.55249 0.27248 0.0
O616 O 0.45832 0.65029 0.21436 0.0
O617 O 0.44875 0.60849 0.27791 0.0
O618 O 0.47289 0.62937 0.31546 0.0
O619 O 0.38449 0.67041 0.22617 0.0
O620 O 0.51935 0.63176 0.24464 0.0
O621 O 0.55555 0.6096 0.28008 0.0
O622 O 0.57424 0.6512 0.34734 0.0
O623 O 0.56824 0.67341 0.27012 0.0
O624 O 0.48826 0.6951 0.26052 0.0
O625 O 0.59837 0.61222 0.32468 0.0
O626 O 0.47182 0.66831 0.31828 0.0
O627 O 0.43999 0.69156 0.28265 0.0
C628 C 0.45186 0.60681 0.30236 0.0
C629 C 0.4228 0.68914 0.18886 0.0
C630 C 0.41671 0.70668 0.14554 0.0
C631 C 0.43801 0.73544 0.15312 0.0
C632 C 0.4439 0.71791 0.19595 0.0
C633 C 0.45152 0.74091 0.17812 0.0
C634 C 0.40931 0.68357 0.16371 0.0
C635 C 0.5466 0.60977 0.25567 0.0
C636 C 0.41562 0.66449 0.20734 0.0
C637 C 0.24482 0.60008 0.28452 0.0
C638 C 0.26535 0.57362 0.27273 0.0
C639 C 0.5403 0.69567 0.26005 0.0
C640 C 0.65103 0.62558 0.36041 0.0
C641 C 0.69732 0.62634 0.40068 0.0
C642 C 0.74569 0.62943 0.38779 0.0
C643 C 0.69971 0.62866 0.34798 0.0
C644 C 0.65008 0.62432 0.38671 0.0
C645 C 0.74676 0.63049 0.36166 0.0
C646 C 0.44229 0.68917 0.30718 0.0
C647 C 0.60038 0.62541 0.34669 0.0
H648 H 0.44353 0.75392 0.1398 0.0
H649 H 0.45437 0.7225 0.21525 0.0
H650 H 0.46777 0.76312 0.18371 0.0
H651 H 0.39376 0.66109 0.15831 0.0
H652 H 0.78281 0.63069 0.3979 0.0
H653 H 0.70141 0.62987 0.32781 0.0
H654 H 0.61231 0.62252 0.39631 0.0
H655 H 0.78424 0.63285 0.35196 0.0
C656 C 0.12684 0.03173 0.31076 0.0
C657 C 0.12181 0.02775 0.33678 0.0
H658 H 0.10929 0.05978 0.27898 0.0
C659 C 0.09545 0.05063 0.35083 0.0
H660 H 0.14625 1.0144 0.29927 0.0
C661 C 0.07385 0.07648 0.33916 0.0
C662 C 0.07827 0.08025 0.31313 0.0
H663 H 0.09165 0.04868 0.37094 0.0
H664 H 0.05354 0.0935 0.35062 0.0
C665 C 0.10546 0.05772 0.29908 0.0
C666 C 0.40433 0.49981 0.834 0.0
C667 C 0.40439 0.49548 0.86007 0.0
H668 H 0.4219 0.48056 0.79785 0.0
C669 C 0.42009 0.46656 0.8694 0.0
H670 H 0.39301 0.52181 0.82612 0.0
C671 C 0.43699 0.44302 0.8532 0.0
C672 C 0.4385 0.44772 0.82723 0.0
H673 H 0.41959 0.46211 0.8893 0.0
H674 H 0.44959 0.42123 0.86106 0.0
C675 C 0.42103 0.47616 0.81777 0.0
C676 C 0.56326 0.50647 0.73177 0.0
C677 C 0.6126 0.50364 0.71969 0.0
H678 H 0.50201 0.48407 0.75278 0.0
C679 C 0.63774 0.47464 0.71944 0.0
H680 H 0.5425 0.52836 0.73206 0.0
C681 C 0.61429 0.44918 0.7312 0.0
C682 C 0.56528 0.45218 0.74349 0.0
H683 H 0.67596 0.47171 0.71049 0.0
H684 H 0.63441 0.4271 0.73057 0.0
C685 C 0.53981 0.48102 0.74346 0.0
C686 C 0.95775 0.03673 0.21473 0.0
C687 C 0.90484 0.03688 0.20656 0.0
H688 H 0.01786 0.05921 0.2364 0.0
C689 C 0.87125 0.06076 0.21492 0.0
H690 H 0.98434 0.01831 0.20912 0.0
C691 C 0.8908 0.08457 0.23033 0.0
C692 C 0.9442 0.08485 0.2378 0.0
H693 H 0.83032 0.06159 0.20891 0.0
H694 H 0.86442 0.10313 0.23586 0.0
C695 C 0.97706 0.0603 0.23026 0.0
C696 C 0.89169 0.97568 0.70681 0.0
C697 C 0.87582 1.0017 0.72091 0.0
H698 H 0.92726 0.93062 0.70715 0.0
C699 C 0.88459 1.00178 0.74688 0.0
H700 H 0.88508 0.97472 0.68681 0.0
C701 C 0.90856 0.97662 0.75846 0.0
C702 C 0.92454 0.95065 0.74442 0.0
H703 H 0.87381 0.02162 0.75827 0.0
H704 H 0.9153 0.97777 0.77846 0.0
C705 C 0.91565 0.95038 0.71846 0.0
C706 C 0.58241 0.56395 0.19746 0.0
C707 C 0.60591 0.53726 0.20725 0.0
H708 H 0.54614 0.60748 0.20478 0.0
C709 C 0.61123 0.53486 0.2334 0.0
H710 H 0.57664 0.56644 0.17751 0.0
C711 C 0.59308 0.55859 0.24931 0.0
C712 C 0.56905 0.58509 0.23937 0.0
H713 H 0.62951 0.51469 0.24156 0.0
H714 H 0.5972 0.55596 0.26934 0.0
C715 C 0.56444 0.5875 0.21324 0.0
C716 C 0.40159 0.52542 0.31446 0.0
C717 C 0.39225 0.52606 0.34043 0.0
H718 H 0.42897 0.54995 0.28234 0.0
C719 C 0.4029 0.55362 0.35373 0.0
H720 H 0.39334 0.5048 0.30349 0.0
C721 C 0.42221 0.5798 0.34138 0.0
C722 C 0.43131 0.5791 0.31543 0.0
H723 H 0.39692 0.55489 0.37377 0.0
H724 H 0.42985 0.60064 0.3522 0.0
C725 C 0.42118 0.55153 0.30218 0.0
C726 C 0.06542 0.99613 0.83983 0.0
C727 C 0.11264 0.99032 0.85286 0.0
H728 H 0.0057 0.97829 0.81518 0.0
C729 C 0.13719 0.96133 0.84986 0.0
H730 H 0.04523 0.01807 0.84193 0.0
C731 C 0.11439 0.93849 0.83453 0.0
C732 C 0.06651 0.94414 0.82206 0.0
H733 H 0.17381 0.95625 0.8595 0.0
H734 H 0.13352 0.91617 0.83294 0.0
C735 C 0.04249 0.97324 0.82471 0.0
C736 C 0.11937 0.12476 0.07645 0.0
C737 C 0.16556 0.1423 0.07221 0.0
H738 H 0.06738 0.10406 0.1032 0.0
C739 C 0.19465 0.15287 0.09307 0.0
H740 H 0.09615 0.11591 0.06093 0.0
C741 C 0.1785 0.14562 0.11744 0.0
C742 C 0.13283 0.1276 0.1216 0.0
H743 H 0.23 0.1668 0.0906 0.0
H744 H 0.20256 0.15355 0.13298 0.0
C745 C 0.10319 0.11759 0.10076 0.0
C746 C 0.28476 0.39696 0.59036 0.0
C747 C 0.33404 0.39993 0.57828 0.0
H748 H 0.24175 0.39908 0.62484 0.0
C749 C 0.37955 0.40476 0.59311 0.0
H750 H 0.24877 0.39347 0.57969 0.0
C751 C 0.37539 0.40827 0.61916 0.0
C752 C 0.3256 0.40718 0.63094 0.0
H753 H 0.4183 0.40666 0.5845 0.0
H754 H 0.41075 0.41341 0.62989 0.0
C755 C 0.28064 0.40049 0.6163 0.0
C756 C 0.62836 0.35068 0.97262 0.0
C757 C 0.67248 0.36329 0.98527 0.0
H758 H 0.5955 0.33614 0.9373 0.0
C759 C 0.71599 0.37359 0.97108 0.0
H760 H 0.59409 0.34273 0.98301 0.0
C761 C 0.71675 0.36971 0.94511 0.0
C762 C 0.67378 0.35584 0.93263 0.0
H763 H 0.75083 0.38308 0.98017 0.0
H764 H 0.75196 0.37639 0.93482 0.0
C765 C 0.62888 0.34717 0.94649 0.0
C766 C 0.92744 0.17632 0.48996 0.0
C767 C 0.88269 0.15787 0.49484 0.0
H768 H 0.97556 0.19859 0.46244 0.0
C769 C 0.8513 0.14786 0.47461 0.0
H770 H 0.95297 0.18396 0.50507 0.0
C771 C 0.86396 0.15646 0.45012 0.0
C772 C 0.90857 0.17512 0.44521 0.0
H773 H 0.81626 0.13387 0.47778 0.0
H774 H 0.83806 0.14902 0.43509 0.0
C775 C 0.94033 0.18473 0.46548 0.0
C776 C 0.76602 0.88123 0.97166 0.0
C777 C 0.8085 0.87152 0.98663 0.0
H778 H 0.73542 0.88656 0.93461 0.0
C779 C 0.85529 0.86135 0.97479 0.0
H780 H 0.72927 0.88893 0.98011 0.0
C781 C 0.85891 0.86018 0.94859 0.0
C782 C 0.81551 0.86869 0.93375 0.0
H783 H 0.88886 0.85394 0.9858 0.0
H784 H 0.89483 0.85149 0.93997 0.0
C785 C 0.7694 0.87968 0.94558 0.0
C786 C 0.72777 0.64432 0.46906 0.0
C787 C 0.6952 0.623 0.48168 0.0
H788 H 0.75356 0.66233 0.43382 0.0
C789 C 0.66294 0.60301 0.46732 0.0
H790 H 0.75247 0.66045 0.4794 0.0
C791 C 0.66332 0.60426 0.44116 0.0
C792 C 0.6962 0.62539 0.42858 0.0
H793 H 0.63804 0.58589 0.47627 0.0
H794 H 0.6386 0.5882 0.43074 0.0
C795 C 0.72835 0.64544 0.44288 0.0
C796 C 0.41863 0.70885 0.07435 0.0
C797 C 0.37174 0.69292 0.06809 0.0
H798 H 0.47012 0.72507 0.10342 0.0
C799 C 0.34075 0.68048 0.08749 0.0
H800 H 0.44393 0.71825 0.05988 0.0
C801 C 0.35563 0.68454 0.11254 0.0
C802 C 0.40199 0.70105 0.11883 0.0
H803 H 0.30409 0.66839 0.08336 0.0
H804 H 0.32995 0.67547 0.12701 0.0
C805 C 0.43359 0.71281 0.09936 0.0
C806 C 0.14754 0.84791 0.57757 0.0
C807 C 0.14825 0.87911 0.57031 0.0
H808 H 0.15067 0.81566 0.60771 0.0
C809 C 0.1481 0.90215 0.58914 0.0
H810 H 0.14622 0.82953 0.5637 0.0
C811 C 0.14988 0.8941 0.61451 0.0
C812 C 0.15219 0.8629 0.62154 0.0
H813 H 0.14895 0.92642 0.5843 0.0
H814 H 0.15218 0.91228 0.62854 0.0
C815 C 0.14967 0.83993 0.60282 0.0
C816 C 0.07473 0.26264 0.35171 0.0
C817 C 0.12511 0.25552 0.36128 0.0
H818 H 0.01057 0.24853 0.32787 0.0
C819 C 0.14858 0.22726 0.3544 0.0
H820 H 0.05579 0.28435 0.3565 0.0
C821 C 0.1223 0.20658 0.33843 0.0
C822 C 0.07229 0.21383 0.32861 0.0
H823 H 0.18702 0.22089 0.36169 0.0
H824 H 0.14118 0.18479 0.33385 0.0
C825 C 0.04876 0.2421 0.3354 0.0
C826 C 0.36085 0.29252 0.84511 0.0
C827 C 0.38413 0.263 0.84515 0.0
H828 H 0.36726 0.33981 0.8337 0.0
C829 C 0.43394 0.25917 0.83365 0.0
H830 H 0.32238 0.2963 0.85359 0.0
C831 C 0.45923 0.28401 0.82193 0.0
C832 C 0.43525 0.31326 0.82135 0.0
H833 H 0.45343 0.23688 0.83365 0.0
H834 H 0.49708 0.28012 0.81286 0.0
C835 C 0.38623 0.31738 0.83342 0.0
C836 C 0.5977 0.3046 0.69334 0.0
C837 C 0.62574 0.27905 0.70265 0.0
H838 H 0.54981 0.34418 0.70171 0.0
C839 C 0.62535 0.27392 0.72861 0.0
H840 H 0.59634 0.30904 0.67345 0.0
C841 C 0.59804 0.29389 0.7448 0.0
C842 C 0.57062 0.31962 0.73549 0.0
H843 H 0.64696 0.25476 0.73653 0.0
H844 H 0.59881 0.28924 0.76467 0.0
C845 C 0.57059 0.32464 0.70954 0.0
C846 C 0.87406 0.26882 0.24702 0.0
C847 C 0.86301 0.26606 0.22132 0.0
H848 H 0.91105 0.24915 0.27911 0.0
C849 C 0.8803 0.23944 0.20842 0.0
H850 H 0.86075 0.28878 0.25765 0.0
C851 C 0.90872 0.21643 0.22087 0.0
C852 C 0.92007 0.21945 0.24652 0.0
H853 H 0.87287 0.2367 0.18858 0.0
H854 H 0.92199 0.19633 0.2104 0.0
C855 C 0.90238 0.24589 0.25942 0.0
C856 C 0.85004 0.80106 0.70912 0.0
C857 C 0.87757 0.77494 0.70026 0.0
H858 H 0.8525 0.84241 0.73141 0.0
C859 C 0.93026 0.77056 0.70797 0.0
H860 H 0.80927 0.80497 0.70373 0.0
C861 C 0.95503 0.79199 0.72391 0.0
C862 C 0.92753 0.81814 0.73269 0.0
H863 H 0.95273 0.75084 0.7013 0.0
H864 H 0.99571 0.78797 0.72941 0.0
C865 C 0.8747 0.82238 0.72517 0.0
C866 C 0.56965 0.77359 0.23076 0.0
C867 C 0.62158 0.76947 0.22166 0.0
H868 H 0.50346 0.75366 0.2501 0.0
C869 C 0.64605 0.7406 0.22498 0.0
H870 H 0.54932 0.79538 0.22827 0.0
C871 C 0.61949 0.71663 0.23727 0.0
C872 C 0.56794 0.72093 0.24663 0.0
H873 H 0.68615 0.73667 0.21848 0.0
H874 H 0.63935 0.69464 0.23935 0.0
C875 C 0.54317 0.74961 0.24309 0.0
C876 C 0.3718 0.76071 0.33183 0.0
C877 C 0.35671 0.75121 0.35598 0.0
H878 H 0.41073 0.74852 0.29737 0.0
C879 C 0.36767 0.72066 0.36317 0.0
H880 H 0.36444 0.78412 0.32571 0.0
C881 C 0.39443 0.7005 0.34705 0.0
C882 C 0.41058 0.71021 0.32321 0.0
H883 H 0.35558 0.71224 0.38133 0.0
H884 H 0.40277 0.67725 0.35334 0.0
C885 C 0.39838 0.74037 0.31559 0.0
C886 C 0.13518 0.766 0.8119 0.0
C887 C 0.13546 0.76425 0.83817 0.0
H888 H 0.10672 0.78927 0.77947 0.0
C889 C 0.10495 0.78566 0.85192 0.0
H890 H 0.15728 0.74957 0.80063 0.0
C891 C 0.07535 0.80836 0.8397 0.0
C892 C 0.07565 0.81025 0.81345 0.0
H893 H 0.1046 0.78524 0.87216 0.0
H894 H 0.05275 0.82463 0.85089 0.0
C895 C 0.10579 0.7887 0.79972 0.0
loop_
_geom_bond_atom_site_label_1
_geom_bond_atom_site_label_2
_geom_bond_distance
_geom_bond_site_symmetry_2
_ccdc_geom_bond_type
C0 C1 1.264 . S
C0 C5 1.479 . S
C0 C10 1.465 . S
C1 C0 1.264 . S
C1 C3 1.339 . S
C1 H28 0.931 . S
C2 C3 1.395 . S
C2 C4 1.320 . S
C3 C1 1.339 . S
C3 C2 1.395 . S
C3 H29 0.929 . S
C4 C2 1.320 . S
C4 C5 1.405 . S
C4 H30 0.930 . S
C5 C0 1.479 . S
C5 C4 1.405 . S
C5 H31 0.931 . S
U6 O7 2.454 . S
U6 O8 2.458 . S
U6 C9 2.984 . S
U6 C10 2.847 . S
U6 C23 2.882 . S
U6 O24 2.441 . S
U6 O25 2.420 . S
U6 O26 2.455 . S
U6 O27 2.449 . S
O7 U6 2.454 . S
O7 C9 1.353 . S
O8 U6 2.458 . S
O8 C9 1.286 . S
C9 U6 2.984 . S
C9 O7 1.353 . S
C9 O8 1.286 . S
C9 C11 1.363 . S
C10 C0 1.465 . S
C10 U6 2.847 . S
C10 O24 1.249 . S
C10 O25 1.202 . S
C11 C9 1.363 . S
C11 C13 1.408 . S
C11 C16 1.342 . S
C12 C13 1.310 . S
C12 C15 1.461 . S
C12 H32 0.932 . S
C13 C11 1.408 . S
C13 C12 1.310 . S
C13 H33 0.930 . S
C14 C15 1.474 . S
C14 C16 1.285 . S
C14 H34 0.929 . S
C15 C12 1.461 . S
C15 C14 1.474 . S
C16 C11 1.342 . S
C16 C14 1.285 . S
C16 H35 0.930 . S
C17 C20 1.424 . S
C17 C22 1.245 . S
C17 C23 1.428 . S
C18 C21 1.260 . S
C18 C22 1.477 . S
C18 H36 0.932 . S
C19 C20 1.384 . S
C19 C21 1.479 . S
C19 H37 0.929 . S
C20 C17 1.424 . S
C20 C19 1.384 . S
C20 H38 0.928 . S
C21 C18 1.260 . S
C21 C19 1.479 . S
C22 C17 1.245 . S
C22 C18 1.477 . S
C22 H39 0.932 . S
C23 U6 2.882 . S
C23 C17 1.428 . S
C23 O26 1.301 . S
C23 O27 1.282 . S
O24 U6 2.441 . S
O24 C10 1.249 . S
O25 U6 2.420 . S
O25 C10 1.202 . S
O26 U6 2.455 . S
O26 C23 1.301 . S
O27 U6 2.449 . S
O27 C23 1.282 . S
H28 C1 0.931 . S
H29 C3 0.929 . S
H30 C4 0.930 . S
H31 C5 0.931 . S
H32 C12 0.932 . S
H33 C13 0.930 . S
H34 C14 0.929 . S
H35 C16 0.930 . S
H36 C18 0.932 . S
H37 C19 0.929 . S
H38 C20 0.928 . S
H39 C22 0.932 . S
C40 C41 1.264 . S
C40 C45 1.479 . S
C40 C50 1.465 . S
C41 C40 1.264 . S
C41 C43 1.339 1_556 S
C41 H68 0.931 . S
C42 C43 1.395 . S
C42 C44 1.320 . S
C43 C41 1.339 1_554 S
C43 C42 1.395 . S
C43 H69 0.929 . S
C44 C42 1.320 . S
C44 C45 1.405 1_554 S
C44 H70 0.930 . S
C45 C40 1.479 . S
C45 C44 1.405 1_556 S
C45 H71 0.931 . S
U46 O47 2.454 . S
U46 O48 2.458 . S
U46 C49 2.984 . S
U46 C50 2.847 . S
U46 C63 2.882 . S
U46 O64 2.441 . S
U46 O65 2.420 . S
U46 O66 2.455 . S
U46 O67 2.449 . S
O47 U46 2.454 . S
O47 C49 1.353 . S
O48 U46 2.458 . S
O48 C49 1.286 . S
C49 U46 2.984 . S
C49 O47 1.353 . S
C49 O48 1.286 . S
C49 C51 1.363 . S
C50 C40 1.465 . S
C50 U46 2.847 . S
C50 O64 1.249 . S
C50 O65 1.202 . S
C51 C49 1.363 . S
C51 C53 1.408 . S
C51 C56 1.342 . S
C52 C53 1.310 . S
C52 C55 1.461 . S
C52 H72 0.932 . S
C53 C51 1.408 . S
C53 C52 1.310 . S
C53 H73 0.930 . S
C54 C55 1.474 . S
C54 C56 1.285 . S
C54 H74 0.929 . S
C55 C52 1.461 . S
C55 C54 1.474 . S
C56 C51 1.342 . S
C56 C54 1.285 . S
C56 H75 0.930 . S
C57 C60 1.424 . S
C57 C62 1.245 . S
C57 C63 1.428 . S
C58 C61 1.260 1_545 S
C58 C62 1.477 . S
C58 H76 0.932 . S
C59 C60 1.380 1_565 S
C59 C61 1.480 . S
C59 H77 0.932 . S
C60 C57 1.424 . S
C60 C59 1.380 1_545 S
C60 H78 0.928 . S
C61 C58 1.260 1_565 S
C61 C59 1.480 . S
C62 C57 1.245 . S
C62 C58 1.477 . S
C62 H79 0.932 . S
C63 U46 2.882 . S
C63 C57 1.428 . S
C63 O66 1.301 . S
C63 O67 1.282 . S
O64 U46 2.441 . S
O64 C50 1.249 . S
O65 U46 2.420 . S
O65 C50 1.202 . S
O66 U46 2.455 . S
O66 C63 1.301 . S
O67 U46 2.449 . S
O67 C63 1.282 . S
H68 C41 0.931 . S
H69 C43 0.929 . S
H70 C44 0.930 . S
H71 C45 0.931 . S
H72 C52 0.932 . S
H73 C53 0.930 . S
H74 C54 0.929 . S
H75 C56 0.930 . S
H76 C58 0.932 . S
H77 C59 0.932 . S
H78 C60 0.928 . S
H79 C62 0.932 . S
C80 C81 1.264 . S
C80 C85 1.479 . S
C80 C90 1.465 . S
C81 C80 1.264 . S
C81 C83 1.339 1_545 S
C81 H108 0.931 . S
C82 C83 1.395 . S
C82 C84 1.320 1_565 S
C83 C81 1.339 1_565 S
C83 C82 1.395 . S
C83 H109 0.929 . S
C84 C82 1.320 1_545 S
C84 C85 1.405 . S
C84 H110 0.930 . S
C85 C80 1.479 . S
C85 C84 1.405 . S
C85 H111 0.931 . S
U86 O87 2.454 . S
U86 O88 2.458 . S
U86 C89 2.984 . S
U86 C90 2.847 . S
U86 C103 2.882 . S
U86 O104 2.441 . S
U86 O105 2.420 . S
U86 O106 2.455 . S
U86 O107 2.449 . S
O87 U86 2.454 . S
O87 C89 1.353 . S
O88 U86 2.458 . S
O88 C89 1.286 . S
C89 U86 2.984 . S
C89 O87 1.353 . S
C89 O88 1.286 . S
C89 C91 1.363 . S
C90 C80 1.465 . S
C90 U86 2.847 . S
C90 O104 1.249 . S
C90 O105 1.202 . S
C91 C89 1.363 . S
C91 C93 1.408 . S
C91 C96 1.342 . S
C92 C93 1.310 . S
C92 C95 1.461 . S
C92 H112 0.932 . S
C93 C91 1.408 . S
C93 C92 1.310 . S
C93 H113 0.930 . S
C94 C95 1.474 . S
C94 C96 1.285 . S
C94 H114 0.929 . S
C95 C92 1.461 . S
C95 C94 1.474 . S
C96 C91 1.342 . S
C96 C94 1.285 . S
C96 H115 0.930 . S
C97 C100 1.424 . S
C97 C102 1.245 . S
C97 C103 1.428 . S
C98 C101 1.260 . S
C98 C102 1.477 . S
C98 H116 0.932 . S
C99 C100 1.384 . S
C99 C101 1.479 . S
C99 H117 0.929 . S
C100 C97 1.424 . S
C100 C99 1.384 . S
C100 H118 0.928 . S
C101 C98 1.260 . S
C101 C99 1.479 . S
C102 C97 1.245 . S
C102 C98 1.477 . S
C102 H119 0.932 . S
C103 U86 2.882 . S
C103 C97 1.428 . S
C103 O106 1.301 . S
C103 O107 1.282 . S
O104 U86 2.441 . S
O104 C90 1.249 . S
O105 U86 2.420 . S
O105 C90 1.202 . S
O106 U86 2.455 . S
O106 C103 1.301 . S
O107 U86 2.449 . S
O107 C103 1.282 . S
H108 C81 0.931 . S
H109 C83 0.929 . S
H110 C84 0.930 . S
H111 C85 0.931 . S
H112 C92 0.932 . S
H113 C93 0.930 . S
H114 C94 0.929 . S
H115 C96 0.930 . S
H116 C98 0.932 . S
H117 C99 0.929 . S
H118 C100 0.928 . S
H119 C102 0.932 . S
C120 C121 1.264 . S
C120 C125 1.479 . S
C120 C130 1.465 . S
C121 C120 1.264 . S
C121 C123 1.339 1_554 S
C121 H148 0.931 . S
C122 C123 1.395 . S
C122 C124 1.320 . S
C123 C121 1.339 1_556 S
C123 C122 1.395 . S
C123 H149 0.929 . S
C124 C122 1.320 . S
C124 C125 1.405 1_556 S
C124 H150 0.930 . S
C125 C120 1.479 . S
C125 C124 1.405 1_554 S
C125 H151 0.931 . S
U126 O127 2.454 . S
U126 O128 2.458 . S
U126 C129 2.984 . S
U126 C130 2.847 . S
U126 C143 2.882 . S
U126 O144 2.441 . S
U126 O145 2.420 . S
U126 O146 2.455 . S
U126 O147 2.449 . S
O127 U126 2.454 . S
O127 C129 1.353 . S
O128 U126 2.458 . S
O128 C129 1.286 . S
C129 U126 2.984 . S
C129 O127 1.353 . S
C129 O128 1.286 . S
C129 C131 1.363 . S
C130 C120 1.465 . S
C130 U126 2.847 . S
C130 O144 1.249 . S
C130 O145 1.202 . S
C131 C129 1.363 . S
C131 C133 1.408 . S
C131 C136 1.342 . S
C132 C133 1.310 . S
C132 C135 1.461 . S
C132 H152 0.932 . S
C133 C131 1.408 . S
C133 C132 1.310 . S
C133 H153 0.930 . S
C134 C135 1.474 . S
C134 C136 1.285 . S
C134 H154 0.929 . S
C135 C132 1.461 . S
C135 C134 1.474 . S
C136 C131 1.342 . S
C136 C134 1.285 . S
C136 H155 0.930 . S
C137 C140 1.424 . S
C137 C142 1.245 . S
C137 C143 1.428 . S
C138 C141 1.260 . S
C138 C142 1.477 . S
C138 H156 0.932 . S
C139 C140 1.384 . S
C139 C141 1.479 . S
C139 H157 0.929 . S
C140 C137 1.424 . S
C140 C139 1.384 . S
C140 H158 0.928 . S
C141 C138 1.260 . S
C141 C139 1.479 . S
C142 C137 1.245 . S
C142 C138 1.477 . S
C142 H159 0.932 . S
C143 U126 2.882 . S
C143 C137 1.428 . S
C143 O146 1.301 . S
C143 O147 1.282 . S
O144 U126 2.441 . S
O144 C130 1.249 . S
O145 U126 2.420 . S
O145 C130 1.202 . S
O146 U126 2.455 . S
O146 C143 1.301 . S
O147 U126 2.449 . S
O147 C143 1.282 . S
H148 C121 0.931 . S
H149 C123 0.929 . S
H150 C124 0.930 . S
H151 C125 0.931 . S
H152 C132 0.932 . S
H153 C133 0.930 . S
H154 C134 0.929 . S
H155 C136 0.930 . S
H156 C138 0.932 . S
H157 C139 0.929 . S
H158 C140 0.928 . S
H159 C142 0.932 . S
C160 C161 1.264 . S
C160 C165 1.479 . S
C160 C170 1.465 . S
C161 C160 1.264 . S
C161 C163 1.339 . S
C161 H188 0.931 . S
C162 C163 1.395 . S
C162 C164 1.320 . S
C163 C161 1.339 . S
C163 C162 1.395 . S
C163 H189 0.929 . S
C164 C162 1.320 . S
C164 C165 1.405 . S
C164 H190 0.930 . S
C165 C160 1.479 . S
C165 C164 1.405 . S
C165 H191 0.931 . S
U166 O167 2.454 . S
U166 O168 2.458 . S
U166 C169 2.984 . S
U166 C170 2.847 . S
U166 C183 2.882 . S
U166 O184 2.441 . S
U166 O185 2.420 . S
U166 O186 2.455 . S
U166 O187 2.449 . S
O167 U166 2.454 . S
O167 C169 1.353 . S
O168 U166 2.458 . S
O168 C169 1.286 . S
C169 U166 2.984 . S
C169 O167 1.353 . S
C169 O168 1.286 . S
C169 C171 1.363 . S
C170 C160 1.465 . S
C170 U166 2.847 . S
C170 O184 1.249 . S
C170 O185 1.202 . S
C171 C169 1.363 . S
C171 C173 1.408 . S
C171 C176 1.342 . S
C172 C173 1.310 . S
C172 C175 1.461 . S
C172 H192 0.932 . S
C173 C171 1.408 . S
C173 C172 1.310 . S
C173 H193 0.930 . S
C174 C175 1.474 . S
C174 C176 1.285 . S
C174 H194 0.929 . S
C175 C172 1.461 . S
C175 C174 1.474 . S
C176 C171 1.342 . S
C176 C174 1.285 . S
C176 H195 0.930 . S
C177 C180 1.424 . S
C177 C182 1.245 . S
C177 C183 1.428 . S
C178 C181 1.260 . S
C178 C182 1.477 . S
C178 H196 0.932 . S
C179 C180 1.384 . S
C179 C181 1.479 . S
C179 H197 0.929 . S
C180 C177 1.424 . S
C180 C179 1.384 . S
C180 H198 0.928 . S
C181 C178 1.260 . S
C181 C179 1.479 . S
C182 C177 1.245 . S
C182 C178 1.477 . S
C182 H199 0.932 . S
C183 U166 2.882 . S
C183 C177 1.428 . S
C183 O186 1.301 . S
C183 O187 1.282 . S
O184 U166 2.441 . S
O184 C170 1.249 . S
O185 U166 2.420 . S
O185 C170 1.202 . S
O186 U166 2.455 . S
O186 C183 1.301 . S
O187 U166 2.449 . S
O187 C183 1.282 . S
H188 C161 0.931 . S
H189 C163 0.929 . S
H190 C164 0.930 . S
H191 C165 0.931 . S
H192 C172 0.932 . S
H193 C173 0.930 . S
H194 C174 0.929 . S
H195 C176 0.930 . S
H196 C178 0.932 . S
H197 C179 0.929 . S
H198 C180 0.928 . S
H199 C182 0.932 . S
C200 C201 1.264 . S
C200 C205 1.479 . S
C200 C210 1.465 . S
C201 C200 1.264 . S
C201 C203 1.339 1_554 S
C201 H228 0.931 . S
C202 C203 1.395 . S
C202 C204 1.320 . S
C203 C201 1.339 1_556 S
C203 C202 1.395 . S
C203 H229 0.929 . S
C204 C202 1.320 . S
C204 C205 1.405 1_556 S
C204 H230 0.930 . S
C205 C200 1.479 . S
C205 C204 1.405 1_554 S
C205 H231 0.931 . S
U206 O207 2.454 . S
U206 O208 2.458 . S
U206 C209 2.984 . S
U206 C210 2.847 . S
U206 C223 2.882 . S
U206 O224 2.441 . S
U206 O225 2.420 . S
U206 O226 2.455 . S
U206 O227 2.449 . S
O207 U206 2.454 . S
O207 C209 1.353 . S
O208 U206 2.458 . S
O208 C209 1.286 . S
C209 U206 2.984 . S
C209 O207 1.353 . S
C209 O208 1.286 . S
C209 C211 1.363 . S
C210 C200 1.465 . S
C210 U206 2.847 . S
C210 O224 1.249 . S
C210 O225 1.202 . S
C211 C209 1.363 . S
C211 C213 1.408 . S
C211 C216 1.342 . S
C212 C213 1.310 . S
C212 C215 1.461 . S
C212 H232 0.932 . S
C213 C211 1.408 . S
C213 C212 1.310 . S
C213 H233 0.930 . S
C214 C215 1.474 . S
C214 C216 1.285 . S
C214 H234 0.929 . S
C215 C212 1.461 . S
C215 C214 1.474 . S
C216 C211 1.342 . S
C216 C214 1.285 . S
C216 H235 0.930 . S
C217 C220 1.424 . S
C217 C222 1.245 . S
C217 C223 1.428 . S
C218 C221 1.260 1_565 S
C218 C222 1.477 . S
C218 H236 0.932 . S
C219 C220 1.384 1_545 S
C219 C221 1.479 . S
C219 H237 0.929 . S
C220 C217 1.424 . S
C220 C219 1.384 1_565 S
C220 H238 0.928 . S
C221 C218 1.260 1_545 S
C221 C219 1.479 . S
C222 C217 1.245 . S
C222 C218 1.477 . S
C222 H239 0.932 . S
C223 U206 2.882 . S
C223 C217 1.428 . S
C223 O226 1.301 . S
C223 O227 1.282 . S
O224 U206 2.441 . S
O224 C210 1.249 . S
O225 U206 2.420 . S
O225 C210 1.202 . S
O226 U206 2.455 . S
O226 C223 1.301 . S
O227 U206 2.449 . S
O227 C223 1.282 . S
H228 C201 0.931 . S
H229 C203 0.929 . S
H230 C204 0.930 . S
H231 C205 0.931 . S
H232 C212 0.932 . S
H233 C213 0.930 . S
H234 C214 0.929 . S
H235 C216 0.930 . S
H236 C218 0.932 . S
H237 C219 0.929 . S
H238 C220 0.928 . S
H239 C222 0.932 . S
C240 C241 1.264 . S
C240 C245 1.479 . S
C240 C250 1.465 . S
C241 C240 1.264 . S
C241 C243 1.358 . S
C241 H268 0.931 . S
C242 C243 1.389 1_545 S
C242 C244 1.320 1_545 S
C243 C241 1.358 . S
C243 C242 1.389 1_565 S
C243 H269 0.914 1_565 S
C244 C242 1.320 1_565 S
C244 C245 1.405 . S
C244 H270 0.930 . S
C245 C240 1.479 . S
C245 C244 1.405 . S
C245 H271 0.931 . S
U246 O247 2.454 . S
U246 O248 2.458 . S
U246 C249 2.984 . S
U246 C250 2.847 . S
U246 C263 2.882 . S
U246 O264 2.441 . S
U246 O265 2.420 . S
U246 O266 2.455 . S
U246 O267 2.449 . S
O247 U246 2.454 . S
O247 C249 1.353 . S
O248 U246 2.458 . S
O248 C249 1.286 . S
C249 U246 2.984 . S
C249 O247 1.353 . S
C249 O248 1.286 . S
C249 C251 1.363 . S
C250 C240 1.465 . S
C250 U246 2.847 . S
C250 O264 1.249 . S
C250 O265 1.202 . S
C251 C249 1.363 . S
C251 C253 1.408 . S
C251 C256 1.342 . S
C252 C253 1.310 . S
C252 C255 1.461 . S
C252 H272 0.932 . S
C253 C251 1.408 . S
C253 C252 1.310 . S
C253 H273 0.930 . S
C254 C255 1.474 . S
C254 C256 1.285 . S
C254 H274 0.929 . S
C255 C252 1.461 . S
C255 C254 1.474 . S
C256 C251 1.342 . S
C256 C254 1.285 . S
C256 H275 0.930 . S
C257 C260 1.424 . S
C257 C262 1.245 . S
C257 C263 1.428 . S
C258 C261 1.260 . S
C258 C262 1.477 . S
C258 H276 0.932 . S
C259 C260 1.384 . S
C259 C261 1.479 . S
C259 H277 0.929 . S
C260 C257 1.424 . S
C260 C259 1.384 . S
C260 H278 0.928 . S
C261 C258 1.260 . S
C261 C259 1.479 . S
C262 C257 1.245 . S
C262 C258 1.477 . S
C262 H279 0.932 . S
C263 U246 2.882 . S
C263 C257 1.428 . S
C263 O266 1.301 . S
C263 O267 1.282 . S
O264 U246 2.441 . S
O264 C250 1.249 . S
O265 U246 2.420 . S
O265 C250 1.202 . S
O266 U246 2.455 . S
O266 C263 1.301 . S
O267 U246 2.449 . S
O267 C263 1.282 . S
H268 C241 0.931 . S
H269 C243 0.914 1_545 S
H270 C244 0.930 . S
H271 C245 0.931 . S
H272 C252 0.932 . S
H273 C253 0.930 . S
H274 C254 0.929 . S
H275 C256 0.930 . S
H276 C258 0.932 . S
H277 C259 0.929 . S
H278 C260 0.928 . S
H279 C262 0.932 . S
C280 C281 1.264 . S
C280 C285 1.479 . S
C280 C290 1.465 . S
C281 C280 1.264 . S
C281 C283 1.339 1_556 S
C281 H308 0.931 . S
C282 C283 1.395 . S
C282 C284 1.320 . S
C283 C281 1.339 1_554 S
C283 C282 1.395 . S
C283 H309 0.929 . S
C284 C282 1.320 . S
C284 C285 1.405 1_554 S
C284 H310 0.930 . S
C285 C280 1.479 . S
C285 C284 1.405 1_556 S
C285 H311 0.931 . S
U286 O287 2.454 . S
U286 O288 2.458 . S
U286 C289 2.984 . S
U286 C290 2.847 . S
U286 C303 2.882 . S
U286 O304 2.441 . S
U286 O305 2.420 . S
U286 O306 2.455 . S
U286 O307 2.449 . S
O287 U286 2.454 . S
O287 C289 1.353 . S
O288 U286 2.458 . S
O288 C289 1.286 . S
C289 U286 2.984 . S
C289 O287 1.353 . S
C289 O288 1.286 . S
C289 C291 1.363 . S
C290 C280 1.465 . S
C290 U286 2.847 . S
C290 O304 1.249 . S
C290 O305 1.202 . S
C291 C289 1.363 . S
C291 C293 1.408 . S
C291 C296 1.342 . S
C292 C293 1.310 . S
C292 C295 1.461 . S
C292 H312 0.932 . S
C293 C291 1.408 . S
C293 C292 1.310 . S
C293 H313 0.930 . S
C294 C295 1.474 . S
C294 C296 1.285 . S
C294 H314 0.929 . S
C295 C292 1.461 . S
C295 C294 1.474 . S
C296 C291 1.342 . S
C296 C294 1.285 . S
C296 H315 0.930 . S
C297 C300 1.424 . S
C297 C302 1.245 . S
C297 C303 1.428 . S
C298 C301 1.260 . S
C298 C302 1.477 . S
C298 H316 0.932 . S
C299 C300 1.384 . S
C299 C301 1.479 . S
C299 H317 0.929 . S
C300 C297 1.424 . S
C300 C299 1.384 . S
C300 H318 0.928 . S
C301 C298 1.260 . S
C301 C299 1.479 . S
C302 C297 1.245 . S
C302 C298 1.477 . S
C302 H319 0.932 . S
C303 U286 2.882 . S
C303 C297 1.428 . S
C303 O306 1.301 . S
C303 O307 1.282 . S
O304 U286 2.441 . S
O304 C290 1.249 . S
O305 U286 2.420 . S
O305 C290 1.202 . S
O306 U286 2.455 . S
O306 C303 1.301 . S
O307 U286 2.449 . S
O307 C303 1.282 . S
H308 C281 0.931 . S
H309 C283 0.929 . S
H310 C284 0.930 . S
H311 C285 0.931 . S
H312 C292 0.932 . S
H313 C293 0.930 . S
H314 C294 0.929 . S
H315 C296 0.930 . S
H316 C298 0.932 . S
H317 C299 0.929 . S
H318 C300 0.928 . S
H319 C302 0.932 . S
Eu320 N349 2.600 . S
Eu320 N355 2.562 . S
Eu320 O364 2.462 . S
Eu320 O365 2.373 . S
Eu320 O367 2.432 . S
Eu320 O368 2.291 . S
Eu320 O372 2.335 . S
Eu320 O375 2.372 . S
Eu320 C384 2.787 . S
C321 N322 1.365 . S
C321 C324 1.405 . S
C321 C328 1.448 . S
N322 C321 1.365 . S
N322 C325 1.319 . S
N322 Eu331 2.600 . S
C323 C325 1.397 . S
C323 C326 1.367 . S
C323 H343 0.931 . S
C324 C321 1.405 . S
C324 C326 1.403 . S
C324 C330 1.439 . S
C325 N322 1.319 . S
C325 C323 1.397 . S
C325 H336 0.930 . S
C326 C323 1.367 . S
C326 C324 1.403 . S
C326 H347 0.929 . S
C327 C328 1.430 . S
C327 C329 1.387 . S
C327 C333 1.404 . S
C328 C321 1.448 . S
C328 C327 1.430 . S
C328 N332 1.351 . S
C329 C327 1.387 . S
C329 C330 1.374 . S
C329 H344 0.931 . S
C330 C324 1.439 . S
C330 C329 1.374 . S
C330 H345 0.931 . S
Eu331 N322 2.600 . S
Eu331 N332 2.562 . S
Eu331 O366 2.335 . S
Eu331 O369 2.372 . S
Eu331 O370 2.462 . S
Eu331 O371 2.373 . S
Eu331 O373 2.432 . S
Eu331 O374 2.291 1_655 S
Eu331 C395 2.787 . S
N332 C328 1.351 . S
N332 Eu331 2.562 . S
N332 C334 1.325 . S
C333 C327 1.404 . S
C333 C335 1.366 . S
C333 H341 0.930 . S
C334 N332 1.325 . S
C334 C335 1.416 . S
C334 H340 0.929 . S
C335 C333 1.366 . S
C335 C334 1.416 . S
C335 H337 0.930 . S
H336 C325 0.930 . S
H337 C335 0.930 . S
H338 C353 0.930 . S
H339 C360 0.930 . S
H340 C334 0.929 . S
H341 C333 0.930 . S
H342 C356 0.929 . S
H343 C323 0.931 . S
H344 C329 0.931 . S
H345 C330 0.931 . S
H346 C351 0.931 . S
H347 C326 0.929 . S
H348 C359 0.930 . S
N349 Eu320 2.600 . S
N349 C350 1.365 . S
N349 C353 1.319 . S
C350 N349 1.365 . S
C350 C352 1.405 . S
C350 C358 1.448 . S
C351 H346 0.931 . S
C351 C353 1.397 . S
C351 C354 1.367 . S
C352 C350 1.405 . S
C352 C354 1.403 . S
C352 C385 1.439 . S
C353 H338 0.930 . S
C353 N349 1.319 . S
C353 C351 1.397 . S
C354 C351 1.367 . S
C354 C352 1.403 . S
C354 H361 0.929 . S
N355 Eu320 2.562 . S
N355 C356 1.325 . S
N355 C358 1.351 . S
C356 H342 0.929 . S
C356 N355 1.325 . S
C356 C360 1.416 . S
C357 C358 1.430 . S
C357 C359 1.404 . S
C357 C386 1.387 . S
C358 C350 1.448 . S
C358 N355 1.351 . S
C358 C357 1.430 . S
C359 H348 0.930 . S
C359 C357 1.404 . S
C359 C360 1.366 . S
C360 H339 0.930 . S
C360 C356 1.416 . S
C360 C359 1.366 . S
H361 C354 0.929 . S
H362 C385 0.931 . S
H363 C386 0.931 . S
O364 Eu320 2.462 . S
O364 C384 1.252 . S
O365 Eu320 2.373 . S
O365 C376 1.249 . S
O366 Eu331 2.335 . S
O366 C376 1.263 1_655 S
O367 Eu320 2.432 . S
O367 C384 1.268 . S
O368 Eu320 2.291 . S
O368 C383 1.256 1_455 S
O369 Eu331 2.372 . S
O369 C383 1.257 . S
O370 Eu331 2.462 . S
O370 C395 1.252 . S
O371 Eu331 2.373 . S
O371 C387 1.249 . S
O372 Eu320 2.335 . S
O372 C387 1.264 1_455 S
O373 Eu331 2.432 . S
O373 C395 1.268 . S
O374 Eu331 2.291 1_455 S
O374 C394 1.255 . S
O375 Eu320 2.372 . S
O375 C394 1.257 . S
C376 O365 1.249 . S
C376 O366 1.263 1_455 S
C377 C380 1.382 . S
C377 C382 1.390 . S
C377 C384 1.506 . S
C378 C379 1.398 . S
C378 C382 1.392 . S
C379 C378 1.398 . S
C379 C381 1.372 . S
C379 H396 0.931 . S
C380 C377 1.382 . S
C380 C381 1.390 . S
C380 H397 0.931 . S
C381 C379 1.372 . S
C381 C380 1.390 . S
C381 H398 0.929 . S
C382 C377 1.390 . S
C382 C378 1.392 . S
C382 H399 0.930 . S
C383 O368 1.256 1_655 S
C383 O369 1.257 . S
C384 Eu320 2.787 . S
C384 O364 1.252 . S
C384 O367 1.268 . S
C384 C377 1.506 . S
C385 C352 1.439 . S
C385 H362 0.931 . S
C385 C386 1.374 . S
C386 C357 1.387 . S
C386 H363 0.931 . S
C386 C385 1.374 . S
C387 O371 1.249 . S
C387 O372 1.264 1_655 S
C388 C391 1.382 . S
C388 C392 1.390 . S
C388 C395 1.506 . S
C389 C390 1.398 . S
C389 C392 1.392 . S
C390 C389 1.398 . S
C390 C393 1.372 . S
C390 H400 0.931 . S
C391 C388 1.382 . S
C391 C393 1.390 . S
C391 H401 0.931 . S
C392 C388 1.390 . S
C392 C389 1.392 . S
C392 H402 0.930 . S
C393 C390 1.372 . S
C393 C391 1.390 . S
C393 H403 0.929 . S
C394 O374 1.255 . S
C394 O375 1.257 . S
C395 Eu331 2.787 . S
C395 O370 1.252 . S
C395 O373 1.268 . S
C395 C388 1.506 . S
H396 C379 0.931 . S
H397 C380 0.931 . S
H398 C381 0.929 . S
H399 C382 0.930 . S
H400 C390 0.931 . S
H401 C391 0.931 . S
H402 C392 0.930 . S
H403 C393 0.929 . S
Eu404 N433 2.600 . S
Eu404 N439 2.562 . S
Eu404 O448 2.462 . S
Eu404 O449 2.373 . S
Eu404 O451 2.432 . S
Eu404 O452 2.291 . S
Eu404 O456 2.335 . S
Eu404 O459 2.372 . S
Eu404 C468 2.787 . S
C405 N406 1.365 . S
C405 C408 1.405 . S
C405 C412 1.448 . S
N406 C405 1.365 . S
N406 C409 1.319 . S
N406 Eu415 2.600 . S
C407 C409 1.397 . S
C407 C410 1.367 . S
C407 H427 0.931 . S
C408 C405 1.405 . S
C408 C410 1.403 . S
C408 C414 1.439 . S
C409 N406 1.319 . S
C409 C407 1.397 . S
C409 H420 0.930 . S
C410 C407 1.367 . S
C410 C408 1.403 . S
C410 H431 0.929 . S
C411 C412 1.430 . S
C411 C413 1.387 . S
C411 C417 1.404 . S
C412 C405 1.448 . S
C412 C411 1.430 . S
C412 N416 1.351 . S
C413 C411 1.387 . S
C413 C414 1.374 . S
C413 H428 0.931 . S
C414 C408 1.439 . S
C414 C413 1.374 . S
C414 H429 0.931 . S
Eu415 N406 2.600 . S
Eu415 N416 2.562 . S
Eu415 O450 2.335 . S
Eu415 O453 2.372 . S
Eu415 O454 2.462 . S
Eu415 O455 2.373 . S
Eu415 O457 2.432 . S
Eu415 O458 2.291 . S
Eu415 C479 2.787 . S
N416 C412 1.351 . S
N416 Eu415 2.562 . S
N416 C418 1.325 . S
C417 C411 1.404 . S
C417 C419 1.366 . S
C417 H425 0.930 . S
C418 N416 1.325 . S
C418 C419 1.416 . S
C418 H424 0.929 . S
C419 C417 1.366 . S
C419 C418 1.416 . S
C419 H421 0.930 . S
H420 C409 0.930 . S
H421 C419 0.930 . S
H422 C437 0.930 . S
H423 C444 0.930 . S
H424 C418 0.929 . S
H425 C417 0.930 . S
H426 C440 0.929 . S
H427 C407 0.931 . S
H428 C413 0.931 . S
H429 C414 0.931 . S
H430 C435 0.931 . S
H431 C410 0.929 . S
H432 C443 0.930 . S
N433 Eu404 2.600 . S
N433 C434 1.365 . S
N433 C437 1.319 . S
C434 N433 1.365 . S
C434 C436 1.405 . S
C434 C442 1.448 . S
C435 H430 0.931 . S
C435 C437 1.397 . S
C435 C438 1.367 . S
C436 C434 1.405 . S
C436 C438 1.403 . S
C436 C469 1.439 . S
C437 H422 0.930 . S
C437 N433 1.319 . S
C437 C435 1.397 . S
C438 C435 1.367 . S
C438 C436 1.403 . S
C438 H445 0.929 . S
N439 Eu404 2.562 . S
N439 C440 1.325 . S
N439 C442 1.351 . S
C440 H426 0.929 . S
C440 N439 1.325 . S
C440 C444 1.416 . S
C441 C442 1.430 . S
C441 C443 1.404 . S
C441 C470 1.387 . S
C442 C434 1.448 . S
C442 N439 1.351 . S
C442 C441 1.430 . S
C443 H432 0.930 . S
C443 C441 1.404 . S
C443 C444 1.366 . S
C444 H423 0.930 . S
C444 C440 1.416 . S
C444 C443 1.366 . S
H445 C438 0.929 . S
H446 C469 0.931 . S
H447 C470 0.931 . S
O448 Eu404 2.462 . S
O448 C468 1.252 . S
O449 Eu404 2.373 . S
O449 C460 1.249 . S
O450 Eu415 2.335 . S
O450 C460 1.264 . S
O451 Eu404 2.432 . S
O451 C468 1.268 . S
O452 Eu404 2.291 . S
O452 C467 1.255 . S
O453 Eu415 2.372 . S
O453 C467 1.257 . S
O454 Eu415 2.462 . S
O454 C479 1.252 . S
O455 Eu415 2.373 . S
O455 C471 1.249 . S
O456 Eu404 2.335 . S
O456 C471 1.264 . S
O457 Eu415 2.432 . S
O457 C479 1.268 . S
O458 Eu415 2.291 . S
O458 C478 1.255 . S
O459 Eu404 2.372 . S
O459 C478 1.257 . S
C460 O449 1.249 . S
C460 O450 1.264 . S
C461 C464 1.382 . S
C461 C466 1.390 . S
C461 C468 1.506 . S
C462 C463 1.398 . S
C462 C466 1.392 . S
C463 C462 1.398 . S
C463 C465 1.372 . S
C463 H480 0.931 . S
C464 C461 1.382 . S
C464 C465 1.390 . S
C464 H481 0.931 . S
C465 C463 1.372 . S
C465 C464 1.390 . S
C465 H482 0.929 . S
C466 C461 1.390 . S
C466 C462 1.392 . S
C466 H483 0.930 . S
C467 O452 1.255 . S
C467 O453 1.257 . S
C468 Eu404 2.787 . S
C468 O448 1.252 . S
C468 O451 1.268 . S
C468 C461 1.506 . S
C469 C436 1.439 . S
C469 H446 0.931 . S
C469 C470 1.374 . S
C470 C441 1.387 . S
C470 H447 0.931 . S
C470 C469 1.374 . S
C471 O455 1.249 . S
C471 O456 1.264 . S
C472 C475 1.382 . S
C472 C476 1.390 . S
C472 C479 1.506 . S
C473 C474 1.398 . S
C473 C476 1.392 . S
C474 C473 1.398 . S
C474 C477 1.372 . S
C474 H484 0.931 . S
C475 C472 1.382 . S
C475 C477 1.390 . S
C475 H485 0.931 . S
C476 C472 1.390 . S
C476 C473 1.392 . S
C476 H486 0.930 . S
C477 C474 1.372 . S
C477 C475 1.390 . S
C477 H487 0.929 . S
C478 O458 1.255 . S
C478 O459 1.257 . S
C479 Eu415 2.787 . S
C479 O454 1.252 . S
C479 O457 1.268 . S
C479 C472 1.506 . S
H480 C463 0.931 . S
H481 C464 0.931 . S
H482 C465 0.929 . S
H483 C466 0.930 . S
H484 C474 0.931 . S
H485 C475 0.931 . S
H486 C476 0.930 . S
H487 C477 0.929 . S
Eu488 N517 2.600 . S
Eu488 N523 2.562 . S
Eu488 O532 2.462 . S
Eu488 O533 2.373 . S
Eu488 O535 2.432 . S
Eu488 O536 2.291 . S
Eu488 O540 2.335 . S
Eu488 O543 2.372 . S
Eu488 C552 2.787 . S
C489 N490 1.365 . S
C489 C492 1.405 . S
C489 C496 1.448 . S
N490 C489 1.365 . S
N490 C493 1.319 . S
N490 Eu499 2.600 . S
C491 C493 1.397 . S
C491 C494 1.367 . S
C491 H511 0.931 . S
C492 C489 1.405 . S
C492 C494 1.403 . S
C492 C498 1.439 . S
C493 N490 1.319 . S
C493 C491 1.397 . S
C493 H504 0.930 . S
C494 C491 1.367 . S
C494 C492 1.403 . S
C494 H515 0.929 . S
C495 C496 1.430 . S
C495 C497 1.387 . S
C495 C501 1.404 . S
C496 C489 1.448 . S
C496 C495 1.430 . S
C496 N500 1.351 . S
C497 C495 1.387 . S
C497 C498 1.374 . S
C497 H512 0.931 . S
C498 C492 1.439 . S
C498 C497 1.374 . S
C498 H513 0.931 . S
Eu499 N490 2.600 . S
Eu499 N500 2.562 . S
Eu499 O534 2.335 1_655 S
Eu499 O537 2.372 . S
Eu499 O538 2.462 . S
Eu499 O539 2.373 . S
Eu499 O541 2.432 . S
Eu499 O542 2.291 1_655 S
Eu499 C563 2.787 . S
N500 C496 1.351 . S
N500 Eu499 2.562 . S
N500 C502 1.325 . S
C501 C495 1.404 . S
C501 C503 1.366 . S
C501 H509 0.930 . S
C502 N500 1.325 . S
C502 C503 1.416 . S
C502 H508 0.929 . S
C503 C501 1.366 . S
C503 C502 1.416 . S
C503 H505 0.930 . S
H504 C493 0.930 . S
H505 C503 0.930 . S
H506 C521 0.930 . S
H507 C528 0.930 . S
H508 C502 0.929 . S
H509 C501 0.930 . S
H510 C524 0.929 . S
H511 C491 0.931 . S
H512 C497 0.931 . S
H513 C498 0.931 . S
H514 C519 0.931 . S
H515 C494 0.929 . S
H516 C527 0.930 . S
N517 Eu488 2.600 . S
N517 C518 1.365 . S
N517 C521 1.319 . S
C518 N517 1.365 . S
C518 C520 1.405 . S
C518 C526 1.448 . S
C519 H514 0.931 . S
C519 C521 1.397 . S
C519 C522 1.367 . S
C520 C518 1.405 . S
C520 C522 1.403 . S
C520 C553 1.439 . S
C521 H506 0.930 . S
C521 N517 1.319 . S
C521 C519 1.397 . S
C522 C519 1.367 . S
C522 C520 1.403 . S
C522 H529 0.929 . S
N523 Eu488 2.562 . S
N523 C524 1.325 . S
N523 C526 1.351 . S
C524 H510 0.929 . S
C524 N523 1.325 . S
C524 C528 1.416 . S
C525 C526 1.430 . S
C525 C527 1.404 . S
C525 C554 1.387 . S
C526 C518 1.448 . S
C526 N523 1.351 . S
C526 C525 1.430 . S
C527 H516 0.930 . S
C527 C525 1.404 . S
C527 C528 1.366 . S
C528 H507 0.930 . S
C528 C524 1.416 . S
C528 C527 1.366 . S
H529 C522 0.929 . S
H530 C553 0.931 . S
H531 C554 0.931 . S
O532 Eu488 2.462 . S
O532 C552 1.252 . S
O533 Eu488 2.373 . S
O533 C544 1.249 . S
O534 Eu499 2.335 1_455 S
O534 C544 1.264 . S
O535 Eu488 2.432 . S
O535 C552 1.268 . S
O536 Eu488 2.291 . S
O536 C551 1.255 1_455 S
O537 Eu499 2.372 . S
O537 C551 1.257 . S
O538 Eu499 2.462 . S
O538 C563 1.252 . S
O539 Eu499 2.373 . S
O539 C555 1.249 . S
O540 Eu488 2.335 . S
O540 C555 1.264 1_455 S
O541 Eu499 2.432 . S
O541 C563 1.268 . S
O542 Eu499 2.291 1_455 S
O542 C562 1.255 . S
O543 Eu488 2.372 . S
O543 C562 1.257 . S
C544 O533 1.249 . S
C544 O534 1.264 . S
C545 C548 1.382 . S
C545 C550 1.390 . S
C545 C552 1.506 . S
C546 C547 1.398 . S
C546 C550 1.392 . S
C547 C546 1.398 . S
C547 C549 1.372 . S
C547 H564 0.931 . S
C548 C545 1.382 . S
C548 C549 1.390 . S
C548 H565 0.931 . S
C549 C547 1.372 . S
C549 C548 1.390 . S
C549 H566 0.929 . S
C550 C545 1.390 . S
C550 C546 1.392 . S
C550 H567 0.930 . S
C551 O536 1.255 1_655 S
C551 O537 1.257 . S
C552 Eu488 2.787 . S
C552 O532 1.252 . S
C552 O535 1.268 . S
C552 C545 1.506 . S
C553 C520 1.439 . S
C553 H530 0.931 . S
C553 C554 1.374 . S
C554 C525 1.387 . S
C554 H531 0.931 . S
C554 C553 1.374 . S
C555 O539 1.249 . S
C555 O540 1.264 1_655 S
C556 C559 1.382 . S
C556 C560 1.390 . S
C556 C563 1.506 . S
C557 C558 1.398 . S
C557 C560 1.392 . S
C558 C557 1.398 . S
C558 C561 1.372 . S
C558 H568 0.931 . S
C559 C556 1.382 . S
C559 C561 1.390 . S
C559 H569 0.931 . S
C560 C556 1.390 . S
C560 C557 1.392 . S
C560 H570 0.930 . S
C561 C558 1.372 . S
C561 C559 1.390 . S
C561 H571 0.929 . S
C562 O542 1.255 . S
C562 O543 1.257 . S
C563 Eu499 2.787 . S
C563 O538 1.252 . S
C563 O541 1.268 . S
C563 C556 1.506 . S
H564 C547 0.931 . S
H565 C548 0.931 . S
H566 C549 0.929 . S
H567 C550 0.930 . S
H568 C558 0.931 . S
H569 C559 0.931 . S
H570 C560 0.930 . S
H571 C561 0.929 . S
Eu572 N601 2.600 . S
Eu572 N607 2.562 . S
Eu572 O616 2.462 . S
Eu572 O617 2.373 . S
Eu572 O619 2.432 . S
Eu572 O620 2.291 . S
Eu572 O624 2.335 . S
Eu572 O627 2.372 . S
Eu572 C636 2.787 . S
C573 N574 1.365 . S
C573 C576 1.405 . S
C573 C580 1.448 . S
N574 C573 1.365 . S
N574 C577 1.319 . S
N574 Eu583 2.600 . S
C575 C577 1.397 . S
C575 C578 1.367 . S
C575 H595 0.931 . S
C576 C573 1.405 . S
C576 C578 1.403 . S
C576 C582 1.439 . S
C577 N574 1.319 . S
C577 C575 1.397 . S
C577 H588 0.930 . S
C578 C575 1.367 . S
C578 C576 1.403 . S
C578 H599 0.929 . S
C579 C580 1.430 . S
C579 C581 1.387 . S
C579 C585 1.404 . S
C580 C573 1.448 . S
C580 C579 1.430 . S
C580 N584 1.351 . S
C581 C579 1.387 . S
C581 C582 1.374 . S
C581 H596 0.931 . S
C582 C576 1.439 . S
C582 C581 1.374 . S
C582 H597 0.931 . S
Eu583 N574 2.600 . S
Eu583 N584 2.562 . S
Eu583 O618 2.335 . S
Eu583 O621 2.372 . S
Eu583 O622 2.462 . S
Eu583 O623 2.373 . S
Eu583 O625 2.432 . S
Eu583 O626 2.291 . S
Eu583 C647 2.787 . S
N584 C580 1.351 . S
N584 Eu583 2.562 . S
N584 C586 1.325 . S
C585 C579 1.404 . S
C585 C587 1.366 . S
C585 H593 0.930 . S
C586 N584 1.325 . S
C586 C587 1.416 . S
C586 H592 0.929 . S
C587 C585 1.366 . S
C587 C586 1.416 . S
C587 H589 0.930 . S
H588 C577 0.930 . S
H589 C587 0.930 . S
H590 C605 0.930 . S
H591 C612 0.930 . S
H592 C586 0.929 . S
H593 C585 0.930 . S
H594 C608 0.929 . S
H595 C575 0.931 . S
H596 C581 0.931 . S
H597 C582 0.931 . S
H598 C603 0.931 . S
H599 C578 0.929 . S
H600 C611 0.930 . S
N601 Eu572 2.600 . S
N601 C602 1.365 . S
N601 C605 1.319 . S
C602 N601 1.365 . S
C602 C604 1.405 . S
C602 C610 1.448 . S
C603 H598 0.931 . S
C603 C605 1.397 . S
C603 C606 1.367 . S
C604 C602 1.405 . S
C604 C606 1.403 . S
C604 C637 1.439 . S
C605 H590 0.930 . S
C605 N601 1.319 . S
C605 C603 1.397 . S
C606 C603 1.367 . S
C606 C604 1.403 . S
C606 H613 0.929 . S
N607 Eu572 2.562 . S
N607 C608 1.325 . S
N607 C610 1.351 . S
C608 H594 0.929 . S
C608 N607 1.325 . S
C608 C612 1.416 . S
C609 C610 1.430 . S
C609 C611 1.404 . S
C609 C638 1.387 . S
C610 C602 1.448 . S
C610 N607 1.351 . S
C610 C609 1.430 . S
C611 H600 0.930 . S
C611 C609 1.404 . S
C611 C612 1.366 . S
C612 H591 0.930 . S
C612 C608 1.416 . S
C612 C611 1.366 . S
H613 C606 0.929 . S
H614 C637 0.931 . S
H615 C638 0.931 . S
O616 Eu572 2.462 . S
O616 C636 1.252 . S
O617 Eu572 2.373 . S
O617 C628 1.249 . S
O618 Eu583 2.335 . S
O618 C628 1.264 . S
O619 Eu572 2.432 . S
O619 C636 1.268 . S
O620 Eu572 2.291 . S
O620 C635 1.255 . S
O621 Eu583 2.372 . S
O621 C635 1.257 . S
O622 Eu583 2.462 . S
O622 C647 1.252 . S
O623 Eu583 2.373 . S
O623 C639 1.249 . S
O624 Eu572 2.335 . S
O624 C639 1.264 . S
O625 Eu583 2.432 . S
O625 C647 1.268 . S
O626 Eu583 2.291 . S
O626 C646 1.255 . S
O627 Eu572 2.372 . S
O627 C646 1.257 . S
C628 O617 1.249 . S
C628 O618 1.264 . S
C629 C632 1.382 . S
C629 C634 1.390 . S
C629 C636 1.506 . S
C630 C631 1.398 . S
C630 C634 1.392 . S
C631 C630 1.398 . S
C631 C633 1.372 . S
C631 H648 0.931 . S
C632 C629 1.382 . S
C632 C633 1.390 . S
C632 H649 0.931 . S
C633 C631 1.372 . S
C633 C632 1.390 . S
C633 H650 0.929 . S
C634 C629 1.390 . S
C634 C630 1.392 . S
C634 H651 0.930 . S
C635 O620 1.255 . S
C635 O621 1.257 . S
C636 Eu572 2.787 . S
C636 O616 1.252 . S
C636 O619 1.268 . S
C636 C629 1.506 . S
C637 C604 1.439 . S
C637 H614 0.931 . S
C637 C638 1.374 . S
C638 C609 1.387 . S
C638 H615 0.931 . S
C638 C637 1.374 . S
C639 O623 1.249 . S
C639 O624 1.264 . S
C640 C643 1.382 . S
C640 C644 1.390 . S
C640 C647 1.506 . S
C641 C642 1.398 . S
C641 C644 1.392 . S
C642 C641 1.398 . S
C642 C645 1.372 . S
C642 H652 0.931 . S
C643 C640 1.382 . S
C643 C645 1.390 . S
C643 H653 0.931 . S
C644 C640 1.390 . S
C644 C641 1.392 . S
C644 H654 0.930 . S
C645 C642 1.372 . S
C645 C643 1.390 . S
C645 H655 0.929 . S
C646 O626 1.255 . S
C646 O627 1.257 . S
C647 Eu583 2.787 . S
C647 O622 1.252 . S
C647 O625 1.268 . S
C647 C640 1.506 . S
H648 C631 0.931 . S
H649 C632 0.931 . S
H650 C633 0.929 . S
H651 C634 0.930 . S
H652 C642 0.931 . S
H653 C643 0.931 . S
H654 C644 0.930 . S
H655 C645 0.929 . S
C656 C657 1.387 . S
C656 H660 0.950 . S
C656 C665 1.390 . S
C657 C656 1.387 . S
C657 C659 1.387 . S
H658 C665 0.950 . S
C659 C657 1.387 . S
C659 C661 1.390 . S
C659 H663 0.950 . S
H660 C656 0.950 . S
C661 C659 1.390 . S
C661 C662 1.387 . S
C661 H664 0.950 . S
C662 C661 1.387 . S
C662 C665 1.387 . S
H663 C659 0.950 . S
H664 C661 0.950 . S
C665 C656 1.390 . S
C665 H658 0.950 . S
C665 C662 1.387 . S
C666 C667 1.387 . S
C666 H670 0.950 . S
C666 C675 1.390 . S
C667 C666 1.387 . S
C667 C669 1.387 . S
H668 C675 0.950 . S
C669 C667 1.387 . S
C669 C671 1.390 . S
C669 H673 0.950 . S
H670 C666 0.950 . S
C671 C669 1.390 . S
C671 C672 1.387 . S
C671 H674 0.950 . S
C672 C671 1.387 . S
C672 C675 1.387 . S
H673 C669 0.950 . S
H674 C671 0.950 . S
C675 C666 1.390 . S
C675 H668 0.950 . S
C675 C672 1.387 . S
C676 C677 1.387 . S
C676 H680 0.950 . S
C676 C685 1.390 . S
C677 C676 1.387 . S
C677 C679 1.387 . S
H678 C685 0.950 . S
C679 C677 1.387 . S
C679 C681 1.390 . S
C679 H683 0.950 . S
H680 C676 0.950 . S
C681 C679 1.390 . S
C681 C682 1.387 . S
C681 H684 0.950 . S
C682 C681 1.387 . S
C682 C685 1.387 . S
H683 C679 0.950 . S
H684 C681 0.950 . S
C685 C676 1.390 . S
C685 H678 0.950 . S
C685 C682 1.387 . S
C686 C687 1.387 . S
C686 H690 0.950 . S
C686 C695 1.390 . S
C687 C686 1.387 . S
C687 C689 1.387 . S
H688 C695 0.950 . S
C689 C687 1.387 . S
C689 C691 1.390 . S
C689 H693 0.950 . S
H690 C686 0.950 . S
C691 C689 1.390 . S
C691 C692 1.387 . S
C691 H694 0.950 . S
C692 C691 1.387 . S
C692 C695 1.387 . S
H693 C689 0.950 . S
H694 C691 0.950 . S
C695 C686 1.390 . S
C695 H688 0.950 . S
C695 C692 1.387 . S
C696 C697 1.387 . S
C696 H700 0.950 . S
C696 C705 1.390 . S
C697 C696 1.387 . S
C697 C699 1.387 . S
H698 C705 0.950 . S
C699 C697 1.387 . S
C699 C701 1.390 . S
C699 H703 0.950 . S
H700 C696 0.950 . S
C701 C699 1.390 . S
C701 C702 1.387 . S
C701 H704 0.950 . S
C702 C701 1.387 . S
C702 C705 1.387 . S
H703 C699 0.950 . S
H704 C701 0.950 . S
C705 C696 1.390 . S
C705 H698 0.950 . S
C705 C702 1.387 . S
C706 C707 1.387 . S
C706 H710 0.950 . S
C706 C715 1.390 . S
C707 C706 1.387 . S
C707 C709 1.387 . S
H708 C715 0.950 . S
C709 C707 1.387 . S
C709 C711 1.390 . S
C709 H713 0.950 . S
H710 C706 0.950 . S
C711 C709 1.390 . S
C711 C712 1.387 . S
C711 H714 0.950 . S
C712 C711 1.387 . S
C712 C715 1.387 . S
H713 C709 0.950 . S
H714 C711 0.950 . S
C715 C706 1.390 . S
C715 H708 0.950 . S
C715 C712 1.387 . S
C716 C717 1.387 . S
C716 H720 0.950 . S
C716 C725 1.390 . S
C717 C716 1.387 . S
C717 C719 1.387 . S
H718 C725 0.950 . S
C719 C717 1.387 . S
C719 C721 1.390 . S
C719 H723 0.950 . S
H720 C716 0.950 . S
C721 C719 1.390 . S
C721 C722 1.387 . S
C721 H724 0.950 . S
C722 C721 1.387 . S
C722 C725 1.387 . S
H723 C719 0.950 . S
H724 C721 0.950 . S
C725 C716 1.390 . S
C725 H718 0.950 . S
C725 C722 1.387 . S
C726 C727 1.387 . S
C726 H730 0.950 . S
C726 C735 1.390 . S
C727 C726 1.387 . S
C727 C729 1.387 . S
H728 C735 0.950 . S
C729 C727 1.387 . S
C729 C731 1.390 . S
C729 H733 0.950 . S
H730 C726 0.950 . S
C731 C729 1.390 . S
C731 C732 1.387 . S
C731 H734 0.950 . S
C732 C731 1.387 . S
C732 C735 1.387 . S
H733 C729 0.950 . S
H734 C731 0.950 . S
C735 C726 1.390 . S
C735 H728 0.950 . S
C735 C732 1.387 . S
C736 C737 1.387 . S
C736 H740 0.950 . S
C736 C745 1.390 . S
C737 C736 1.387 . S
C737 C739 1.387 . S
H738 C745 0.950 . S
C739 C737 1.387 . S
C739 C741 1.390 . S
C739 H743 0.950 . S
H740 C736 0.950 . S
C741 C739 1.390 . S
C741 C742 1.387 . S
C741 H744 0.950 . S
C742 C741 1.387 . S
C742 C745 1.387 . S
H743 C739 0.950 . S
H744 C741 0.950 . S
C745 C736 1.390 . S
C745 H738 0.950 . S
C745 C742 1.387 . S
C746 C747 1.387 . S
C746 H750 0.950 . S
C746 C755 1.390 . S
C747 C746 1.387 . S
C747 C749 1.387 . S
H748 C755 0.950 . S
C749 C747 1.387 . S
C749 C751 1.390 . S
C749 H753 0.950 . S
H750 C746 0.950 . S
C751 C749 1.390 . S
C751 C752 1.387 . S
C751 H754 0.950 . S
C752 C751 1.387 . S
C752 C755 1.387 . S
H753 C749 0.950 . S
H754 C751 0.950 . S
C755 C746 1.390 . S
C755 H748 0.950 . S
C755 C752 1.387 . S
C756 C757 1.387 . S
C756 H760 0.950 . S
C756 C765 1.390 . S
C757 C756 1.387 . S
C757 C759 1.387 . S
H758 C765 0.950 . S
C759 C757 1.387 . S
C759 C761 1.390 . S
C759 H763 0.950 . S
H760 C756 0.950 . S
C761 C759 1.390 . S
C761 C762 1.387 . S
C761 H764 0.950 . S
C762 C761 1.387 . S
C762 C765 1.387 . S
H763 C759 0.950 . S
H764 C761 0.950 . S
C765 C756 1.390 . S
C765 H758 0.950 . S
C765 C762 1.387 . S
C766 C767 1.387 . S
C766 H770 0.950 . S
C766 C775 1.390 . S
C767 C766 1.387 . S
C767 C769 1.387 . S
H768 C775 0.950 . S
C769 C767 1.387 . S
C769 C771 1.390 . S
C769 H773 0.950 . S
H770 C766 0.950 . S
C771 C769 1.390 . S
C771 C772 1.387 . S
C771 H774 0.950 . S
C772 C771 1.387 . S
C772 C775 1.387 . S
H773 C769 0.950 . S
H774 C771 0.950 . S
C775 C766 1.390 . S
C775 H768 0.950 . S
C775 C772 1.387 . S
C776 C777 1.387 . S
C776 H780 0.950 . S
C776 C785 1.390 . S
C777 C776 1.387 . S
C777 C779 1.387 . S
H778 C785 0.950 . S
C779 C777 1.387 . S
C779 C781 1.390 . S
C779 H783 0.950 . S
H780 C776 0.950 . S
C781 C779 1.390 . S
C781 C782 1.387 . S
C781 H784 0.950 . S
C782 C781 1.387 . S
C782 C785 1.387 . S
H783 C779 0.950 . S
H784 C781 0.950 . S
C785 C776 1.390 . S
C785 H778 0.950 . S
C785 C782 1.387 . S
C786 C787 1.387 . S
C786 H790 0.950 . S
C786 C795 1.390 . S
C787 C786 1.387 . S
C787 C789 1.387 . S
H788 C795 0.950 . S
C789 C787 1.387 . S
C789 C791 1.390 . S
C789 H793 0.950 . S
H790 C786 0.950 . S
C791 C789 1.390 . S
C791 C792 1.387 . S
C791 H794 0.950 . S
C792 C791 1.387 . S
C792 C795 1.387 . S
H793 C789 0.950 . S
H794 C791 0.950 . S
C795 C786 1.390 . S
C795 H788 0.950 . S
C795 C792 1.387 . S
C796 C797 1.387 . S
C796 H800 0.950 . S
C796 C805 1.390 . S
C797 C796 1.387 . S
C797 C799 1.387 . S
H798 C805 0.950 . S
C799 C797 1.387 . S
C799 C801 1.390 . S
C799 H803 0.950 . S
H800 C796 0.950 . S
C801 C799 1.390 . S
C801 C802 1.387 . S
C801 H804 0.950 . S
C802 C801 1.387 . S
C802 C805 1.387 . S
H803 C799 0.950 . S
H804 C801 0.950 . S
C805 C796 1.390 . S
C805 H798 0.950 . S
C805 C802 1.387 . S
C806 C807 1.387 . S
C806 H810 0.950 . S
C806 C815 1.390 . S
C807 C806 1.387 . S
C807 C809 1.387 . S
H808 C815 0.950 . S
C809 C807 1.387 . S
C809 C811 1.390 . S
C809 H813 0.950 . S
H810 C806 0.950 . S
C811 C809 1.390 . S
C811 C812 1.387 . S
C811 H814 0.950 . S
C812 C811 1.387 . S
C812 C815 1.387 . S
H813 C809 0.950 . S
H814 C811 0.950 . S
C815 C806 1.390 . S
C815 H808 0.950 . S
C815 C812 1.387 . S
C816 C817 1.387 . S
C816 H820 0.950 . S
C816 C825 1.390 . S
C817 C816 1.387 . S
C817 C819 1.387 . S
H818 C825 0.950 1_655 S
C819 C817 1.387 . S
C819 C821 1.390 . S
C819 H823 0.950 . S
H820 C816 0.950 . S
C821 C819 1.390 . S
C821 C822 1.387 . S
C821 H824 0.950 . S
C822 C821 1.387 . S
C822 C825 1.387 . S
H823 C819 0.950 . S
H824 C821 0.950 . S
C825 C816 1.390 . S
C825 H818 0.950 1_455 S
C825 C822 1.387 . S
C826 C827 1.387 . S
C826 H830 0.950 . S
C826 C835 1.390 . S
C827 C826 1.387 . S
C827 C829 1.387 . S
H828 C835 0.950 . S
C829 C827 1.387 . S
C829 C831 1.390 . S
C829 H833 0.950 . S
H830 C826 0.950 . S
C831 C829 1.390 . S
C831 C832 1.387 . S
C831 H834 0.950 . S
C832 C831 1.387 . S
C832 C835 1.387 . S
H833 C829 0.950 . S
H834 C831 0.950 . S
C835 C826 1.390 . S
C835 H828 0.950 . S
C835 C832 1.387 . S
C836 C837 1.387 . S
C836 H840 0.950 . S
C836 C845 1.390 . S
C837 C836 1.387 . S
C837 C839 1.387 . S
H838 C845 0.950 . S
C839 C837 1.387 . S
C839 C841 1.390 . S
C839 H843 0.950 . S
H840 C836 0.950 . S
C841 C839 1.390 . S
C841 C842 1.387 . S
C841 H844 0.950 . S
C842 C841 1.387 . S
C842 C845 1.387 . S
H843 C839 0.950 . S
H844 C841 0.950 . S
C845 C836 1.390 . S
C845 H838 0.950 . S
C845 C842 1.387 . S
C846 C847 1.387 . S
C846 H850 0.950 . S
C846 C855 1.390 . S
C847 C846 1.387 . S
C847 C849 1.387 . S
H848 C855 0.950 . S
C849 C847 1.387 . S
C849 C851 1.390 . S
C849 H853 0.950 . S
H850 C846 0.950 . S
C851 C849 1.390 . S
C851 C852 1.387 . S
C851 H854 0.950 . S
C852 C851 1.387 . S
C852 C855 1.387 . S
H853 C849 0.950 . S
H854 C851 0.950 . S
C855 C846 1.390 . S
C855 H848 0.950 . S
C855 C852 1.387 . S
C856 C857 1.387 . S
C856 H860 0.950 . S
C856 C865 1.390 . S
C857 C856 1.387 . S
C857 C859 1.387 . S
H858 C865 0.950 . S
C859 C857 1.387 . S
C859 C861 1.390 . S
C859 H863 0.950 . S
H860 C856 0.950 . S
C861 C859 1.390 . S
C861 C862 1.387 . S
C861 H864 0.950 . S
C862 C861 1.387 . S
C862 C865 1.387 . S
H863 C859 0.950 . S
H864 C861 0.950 . S
C865 C856 1.390 . S
C865 H858 0.950 . S
C865 C862 1.387 . S
C866 C867 1.387 . S
C866 H870 0.950 . S
C866 C875 1.390 . S
C867 C866 1.387 . S
C867 C869 1.387 . S
H868 C875 0.950 . S
C869 C867 1.387 . S
C869 C871 1.390 . S
C869 H873 0.950 . S
H870 C866 0.950 . S
C871 C869 1.390 . S
C871 C872 1.387 . S
C871 H874 0.950 . S
C872 C871 1.387 . S
C872 C875 1.387 . S
H873 C869 0.950 . S
H874 C871 0.950 . S
C875 C866 1.390 . S
C875 H868 0.950 . S
C875 C872 1.387 . S
C876 C877 1.387 . S
C876 H880 0.950 . S
C876 C885 1.390 . S
C877 C876 1.387 . S
C877 C879 1.387 . S
H878 C885 0.950 . S
C879 C877 1.387 . S
C879 C881 1.390 . S
C879 H883 0.950 . S
H880 C876 0.950 . S
C881 C879 1.390 . S
C881 C882 1.387 . S
C881 H884 0.950 . S
C882 C881 1.387 . S
C882 C885 1.387 . S
H883 C879 0.950 . S
H884 C881 0.950 . S
C885 C876 1.390 . S
C885 H878 0.950 . S
C885 C882 1.387 . S
C886 C887 1.387 . S
C886 H890 0.950 . S
C886 C895 1.390 . S
C887 C886 1.387 . S
C887 C889 1.387 . S
H888 C895 0.950 . S
C889 C887 1.387 . S
C889 C891 1.390 . S
C889 H893 0.950 . S
H890 C886 0.950 . S
C891 C889 1.390 . S
C891 C892 1.387 . S
C891 H894 0.950 . S
C892 C891 1.387 . S
C892 C895 1.387 . S
H893 C889 0.950 . S
H894 C891 0.950 . S
C895 C886 1.390 . S
C895 H888 0.950 . S
C895 C892 1.387 . S
C657 C242 1.468 . S
C662 C394 1.501 . S
C672 C478 1.493 . S
C667 C301 1.506 . S
C682 C471 1.502 . S
C677 C162 1.463 . S
C687 C221 1.507 . S
C692 C387 1.495 . S
C702 C551 1.501 . S
C697 C82 1.505 . S
C712 C635 1.492 . S
C707 C141 1.474 . S
C717 C2 1.507 . S
C722 C628 1.502 . S
C727 C61 1.467 . S
C732 C544 1.496 . S
C742 C378 1.324 . S
C737 C42 1.497 . S
C752 C462 1.327 . S
C747 C21 1.548 . S
C762 C473 1.400 . S
C757 C122 1.513 . S
C772 C389 1.401 . S
C767 C101 1.556 . S
C782 C557 1.327 . S
C777 C202 1.539 . S
C787 C181 1.495 . S
C792 C641 1.322 . S
C802 C630 1.396 . S
C797 C282 1.548 . S
C807 C261 1.510 . S
C812 C546 1.397 . S
C822 C376 1.615 . S
C817 C15 1.601 . S
C832 C460 1.597 . S
C827 C55 1.583 . S
C837 C95 1.589 . S
C842 C467 1.603 . S
C852 C383 1.586 . S
C847 C135 1.574 . S
C862 C555 1.615 . S
C857 C175 1.597 . S
C867 C215 1.587 . S
C872 C639 1.597 . S
C877 C255 1.584 . S
C882 C646 1.604 . S
C887 C295 1.577 . S
C892 C562 1.586 . S
