# Generated by pormake.
# Topology tsx, (6,3)-cn, num edge types: 1
# Building blocks:
#     Node 0, Type 0, BuildingBlock: CIFDUS_clean_sbu_1, # of connection points: 6
#     Node 1, Type 0, BuildingBlock: CIFDUS_clean_sbu_1, # of connection points: 6
#     Node 2, Type 1, BuildingBlock: OLANEW_clean_sbu_2, # of connection points: 3
#     Node 3, Type 1, BuildingBlock: OLANEW_clean_sbu_2, # of connection points: 3
#     Node 4, Type 1, BuildingBlock: OLANEW_clean_sbu_2, # of connection points: 3
#     Node 5, Type 1, BuildingBlock: OLANEW_clean_sbu_2, # of connection points: 3
#     Edge 6, Type (0, 1), BuildingBlock: ZUJKAS_clean_linker_0, # of connection points: 2
#     Edge 7, Type (0, 1), BuildingBlock: ZUJKAS_clean_linker_0, # of connection points: 2
#     Edge 8, Type (0, 1), BuildingBlock: ZUJKAS_clean_linker_0, # of connection points: 2
#     Edge 9, Type (0, 1), BuildingBlock: ZUJKAS_clean_linker_0, # of connection points: 2
#     Edge 10, Type (0, 1), BuildingBlock: ZUJKAS_clean_linker_0, # of connection points: 2
#     Edge 11, Type (0, 1), BuildingBlock: ZUJKAS_clean_linker_0, # of connection points: 2
#     Edge 12, Type (0, 1), BuildingBlock: ZUJKAS_clean_linker_0, # of connection points: 2
#     Edge 13, Type (0, 1), BuildingBlock: ZUJKAS_clean_linker_0, # of connection points: 2
#     Edge 14, Type (0, 1), BuildingBlock: ZUJKAS_clean_linker_0, # of connection points: 2
#     Edge 15, Type (0, 1), BuildingBlock: ZUJKAS_clean_linker_0, # of connection points: 2
#     Edge 16, Type (0, 1), BuildingBlock: ZUJKAS_clean_linker_0, # of connection points: 2
#     Edge 17, Type (0, 1), BuildingBlock: ZUJKAS_clean_linker_0, # of connection points: 2
# Relax obj value: 0.039
# Max RMSD: 0.094
# Mean RMSD: 0.052
data_MOF--net-tsx--node1-CIFDUS_clean_sbu_1--node2-OLANEW_clean_sbu_2--edge1-ZUJKAS_clean_linker_0
_symmetry_space_group_name_H-M    P1
_symmetry_Int_Tables_number       1
_symmetry_cell_setting            triclinic
loop_
_symmetry_equiv_pos_as_xyz
'x, y, z'
_cell_length_a     25.982839
_cell_length_b     31.459471
_cell_length_c     45.453984
_cell_angle_alpha  102.70738
_cell_angle_beta   91.39023
_cell_angle_gamma 90.674796
loop_
_atom_site_label
_atom_site_type_symbol
_atom_site_fract_x
_atom_site_fract_y
_atom_site_fract_z
_atom_type_partial_charge
O0 O 0.00513 0.09223 0.01402 0.0
Mn1 Mn 0.03569 0.02919 0.00481 0.0
O2 O 0.92006 0.08515 0.00272 0.0
Mn3 Mn 0.92259 0.02851 0.98053 0.0
O4 O 0.06574 0.96603 0.99535 0.0
O5 O 0.10633 0.0567 0.00842 0.0
Mn6 Mn 0.14881 0.02915 0.02819 0.0
O7 O 0.03733 0.02934 0.05081 0.0
O8 O 0.1511 0.97288 0.00529 0.0
O9 O 0.03448 0.0283 0.95876 0.0
O10 O 0.95133 0.02246 0.94278 0.0
O11 O 0.18695 0.07355 0.01807 0.0
O12 O 0.12087 0.03486 0.0661 0.0
C13 C 0.92795 0.97601 0.00376 0.0
C14 C 0.95972 0.10801 0.01347 0.0
C15 C 0.11116 0.95009 0.99497 0.0
C16 C 0.144 0.08272 0.00608 0.0
C17 C 0.07296 0.03241 0.07139 0.0
C18 C 0.99941 0.02476 0.93785 0.0
O19 O 0.96513 0.00213 0.00107 0.0
O20 O 0.88504 0.98396 0.99118 0.0
O21 O 0.50589 0.59315 0.51266 0.0
Mn22 Mn 0.53582 0.52966 0.50333 0.0
O23 O 0.42027 0.58601 0.50313 0.0
Mn24 Mn 0.42165 0.52938 0.48094 0.0
O25 O 0.5645 0.46602 0.49342 0.0
O26 O 0.60699 0.55635 0.50574 0.0
Mn27 Mn 0.64984 0.52708 0.52409 0.0
O28 O 0.53975 0.53014 0.54936 0.0
O29 O 0.65047 0.47132 0.50041 0.0
O30 O 0.53237 0.52839 0.45725 0.0
O31 O 0.44854 0.52283 0.44265 0.0
O32 O 0.68848 0.5713 0.51431 0.0
O33 O 0.62416 0.53199 0.5625 0.0
C34 C 0.42813 0.47733 0.5045 0.0
C35 C 0.46032 0.60903 0.51289 0.0
C36 C 0.60952 0.44929 0.49136 0.0
C37 C 0.64522 0.58193 0.50345 0.0
C38 C 0.5766 0.53142 0.56901 0.0
C39 C 0.49633 0.52482 0.4369 0.0
O40 O 0.46514 0.50308 0.50089 0.0
O41 O 0.38463 0.48537 0.49259 0.0
O42 O 0.05218 0.97352 0.38836 0.0
Cd43 Cd 0.05412 0.97346 0.44237 0.0
O44 O 0.96847 0.98354 0.38591 0.0
Cd45 Cd 0.94941 0.99409 0.43341 0.0
O46 O 0.8899 0.0377 0.45524 0.0
C47 C 0.853 0.04215 0.43731 0.0
O48 O 0.85288 0.01865 0.40955 0.0
C49 C 0.01153 0.97753 0.37308 0.0
C50 C 0.13802 0.928 0.45925 0.0
O51 O 0.09512 0.90857 0.4499 0.0
O52 O 0.14147 0.96907 0.46062 0.0
O53 O 0.09319 0.04909 0.61681 0.0
Cd54 Cd 0.09552 0.05517 0.56415 0.0
O55 O 0.05408 0.98461 0.60857 0.0
Cd56 Cd 0.02745 0.97705 0.56158 0.0
O57 O 0.96518 0.94191 0.53221 0.0
C58 C 0.91897 0.95339 0.53774 0.0
O59 O 0.91078 0.98829 0.55891 0.0
C60 C 0.07683 0.01651 0.62641 0.0
C61 C 0.17004 0.11735 0.55759 0.0
O62 O 0.12297 0.12774 0.56249 0.0
O63 O 0.18196 0.07739 0.55549 0.0
O64 O 0.54748 0.47135 0.88721 0.0
Cd65 Cd 0.54248 0.46505 0.93992 0.0
O66 O 0.46478 0.48481 0.88335 0.0
Cd67 Cd 0.44124 0.49111 0.92983 0.0
O68 O 0.37977 0.53258 0.9515 0.0
C69 C 0.34731 0.54183 0.93255 0.0
O70 O 0.35259 0.5241 0.9038 0.0
C71 C 0.50864 0.47849 0.8715 0.0
C72 C 0.62528 0.42012 0.95859 0.0
O73 O 0.58577 0.39983 0.94454 0.0
O74 O 0.62601 0.46186 0.96378 0.0
O75 O 0.57936 0.55348 0.11561 0.0
Cd76 Cd 0.58127 0.56095 0.06325 0.0
O77 O 0.54079 0.48873 0.1069 0.0
Cd78 Cd 0.51405 0.48134 0.05994 0.0
O79 O 0.45332 0.44479 0.03 0.0
C80 C 0.40669 0.45608 0.03402 0.0
O81 O 0.39687 0.49181 0.05408 0.0
C82 C 0.56337 0.52054 0.12493 0.0
C83 C 0.65707 0.62234 0.05707 0.0
O84 O 0.61028 0.63343 0.06227 0.0
O85 O 0.66807 0.58211 0.0545 0.0
H86 H 0.07798 0.15082 0.02028 0.0
H87 H 0.0946 0.22437 0.01257 0.0
H88 H 0.22491 0.17677 0.95862 0.0
H89 H 0.20719 0.10361 0.96551 0.0
H90 H 0.18054 0.26281 0.03678 0.0
H91 H 0.18076 0.26973 0.91701 0.0
H92 H 0.1484 0.22628 0.92986 0.0
H93 H 0.21624 0.22336 0.92218 0.0
C94 C 0.10787 0.1556 0.00512 0.0
C95 C 0.14079 0.12149 0.99304 0.0
C96 C 0.11788 0.19781 0.00104 0.0
C97 C 0.16092 0.20632 0.98484 0.0
C98 C 0.19075 0.17123 0.97053 0.0
H99 H 0.41341 0.37487 0.99709 0.0
H100 H 0.34401 0.32069 0.98212 0.0
C101 C 0.18075 0.12928 0.9746 0.0
C102 C 0.18183 0.25147 0.98831 0.0
H103 H 0.2451 0.31718 0.94982 0.0
C104 C 0.19316 0.2754 0.01773 0.0
C105 C 0.19867 0.26794 0.96352 0.0
C106 C 0.18482 0.24556 0.93141 0.0
C107 C 0.22438 0.31316 0.02305 0.0
C108 C 0.24426 0.32787 -0.00175 0.0
C109 C 0.2302 0.30567 0.96881 0.0
C110 C 0.2839 0.36325 0.00276 0.0
C111 C 0.23888 0.3352 0.05522 0.0
C112 C 0.27282 0.4057 0.01827 0.0
C113 C 0.31248 0.43674 0.02701 0.0
C114 C 0.36395 0.4259 0.02028 0.0
C115 C 0.37433 0.38426 0.00284 0.0
C116 C 0.33464 0.35325 0.99417 0.0
H117 H 0.22697 0.31562 0.07155 0.0
H118 H 0.28113 0.34117 0.05783 0.0
H119 H 0.21976 0.36718 0.06116 0.0
H120 H 0.23379 0.41428 0.02473 0.0
H121 H 0.30301 0.46863 0.04014 0.0
H122 H 0.05601 0.88373 0.00967 0.0
H123 H 0.08121 0.80699 0.00136 0.0
H124 H 0.20994 0.83443 0.94989 0.0
H125 H 0.18515 0.91082 0.95838 0.0
H126 H 0.10279 0.73829 0.95028 0.0
H127 H 0.27636 0.79404 0.02201 0.0
H128 H 0.22236 0.82892 0.01987 0.0
H129 H 0.26999 0.82086 0.99115 0.0
C130 C 0.08843 0.87286 0.99564 0.0
C131 C 0.11847 0.9029 0.98447 0.0
C132 C 0.10314 0.82922 0.99119 0.0
C133 C 0.14808 0.81536 0.97558 0.0
C134 C 0.17574 0.84472 0.96252 0.0
H135 H 0.28387 0.57676 0.89593 0.0
H136 H 0.22781 0.63879 0.91013 0.0
C137 C 0.16138 0.8882 0.96719 0.0
C138 C 0.16892 0.77149 0.97476 0.0
H139 H 0.27808 0.72159 0.99162 0.0
C140 C 0.14081 0.73444 0.95964 0.0
C141 C 0.21783 0.76642 0.98782 0.0
C142 C 0.24817 0.80464 0.00641 0.0
C143 C 0.16189 0.69263 0.95555 0.0
C144 C 0.21276 0.68807 0.96629 0.0
C145 C 0.23935 0.72493 0.98306 0.0
C146 C 0.24118 0.64657 0.95825 0.0
C147 C 0.12953 0.65393 0.93956 0.0
C148 C 0.26816 0.63029 0.9805 0.0
C149 C 0.30136 0.59514 0.97237 0.0
C150 C 0.3081 0.57562 0.94181 0.0
C151 C 0.27946 0.59086 0.9197 0.0
C152 C 0.24679 0.62616 0.92781 0.0
H153 H 0.08792 0.65992 0.94341 0.0
H154 H 0.13533 0.64844 0.91492 0.0
H155 H 0.14006 0.62389 0.94718 0.0
H156 H 0.26475 0.64568 0.00414 0.0
H157 H 0.32279 0.58411 0.98994 0.0
H158 H 0.88784 0.96878 0.05652 0.0
H159 H 0.86434 0.90024 0.07004 0.0
H160 H 0.94766 0.82931 0.9943 0.0
H161 H 0.97069 0.89824 0.98066 0.0
H162 H 0.84535 0.8085 0.99108 0.0
H163 H 0.92222 0.80111 0.10431 0.0
H164 H 0.89374 0.85267 0.10388 0.0
H165 H 0.94999 0.83631 0.08215 0.0
C166 C 0.90342 0.93867 0.0438 0.0
C167 C 0.93189 0.93859 0.01798 0.0
C168 C 0.88998 0.89946 0.05151 0.0
C169 C 0.90446 0.85952 0.03331 0.0
C170 C 0.93644 0.85972 0.00882 0.0
H171 H 0.76125 0.611 0.05185 0.0
H172 H 0.82672 0.66527 0.04608 0.0
C173 C 0.95001 0.89906 0.00119 0.0
C174 C 0.87773 0.81871 0.03625 0.0
H175 H 0.84398 0.75898 0.08741 0.0
C176 C 0.84603 0.79711 0.01194 0.0
C177 C 0.87838 0.80385 0.06347 0.0
C178 C 0.91333 0.82446 0.08983 0.0
C179 C 0.81298 0.7627 0.01464 0.0
C180 C 0.81136 0.74962 0.0424 0.0
C181 C 0.84498 0.76947 0.06624 0.0
C182 C 0.77257 0.71723 0.04736 0.0
C183 C 0.7787 0.74138 0.9881 0.0
C184 C 0.72066 0.72874 0.05024 0.0
C185 C 0.68326 0.69801 0.05364 0.0
C186 C 0.69706 0.65505 0.05405 0.0
C187 C 0.74931 0.64376 0.05148 0.0
C188 C 0.78679 0.6747 0.04831 0.0
H189 H 0.79149 0.74924 0.96673 0.0
H190 H 0.77792 0.70543 0.98545 0.0
H191 H 0.73879 0.75304 0.99212 0.0
H192 H 0.70903 0.76151 0.04964 0.0
H193 H 0.64346 0.70784 0.05561 0.0
H194 H 0.98301 0.16443 0.97898 0.0
H195 H 0.93851 0.23239 0.97975 0.0
H196 H 0.87245 0.22561 0.0649 0.0
H197 H 0.91429 0.15572 0.06278 0.0
H198 H 0.80033 0.2294 0.02854 0.0
H199 H 0.93655 0.35791 0.01434 0.0
H200 H 0.94726 0.31016 0.98564 0.0
H201 H 0.95815 0.30882 0.02481 0.0
C202 C 0.96107 0.17869 -0.00142 0.0
C203 C 0.9524 0.15531 0.02099 0.0
C204 C 0.93556 0.21774 -0.00092 0.0
C205 C 0.90195 0.2346 0.02244 0.0
C206 C 0.89794 0.21339 0.04656 0.0
H207 H 0.70307 0.45191 -0.00026 0.0
H208 H 0.77101 0.41039 0.01852 0.0
C209 C 0.92234 0.17372 0.04559 0.0
C210 C 0.86392 0.26834 0.01866 0.0
H211 H 0.84942 0.36208 0.99315 0.0
C212 C 0.81147 0.2589 0.0215 0.0
C213 C 0.87773 0.30727 0.00973 0.0
C214 C 0.93308 0.32177 0.00881 0.0
C215 C 0.77273 0.28579 0.01425 0.0
C216 C 0.78642 0.32237 0.00257 0.0
C217 C 0.83878 0.33342 0.00136 0.0
C218 C 0.74678 0.34822 0.99044 0.0
C219 C 0.71742 0.27438 0.01908 0.0
C220 C 0.71137 0.32736 0.96787 0.0
C221 C 0.67219 0.3508 0.95747 0.0
C222 C 0.66823 0.39588 0.96889 0.0
C223 C 0.705 0.41716 0.99057 0.0
C224 C 0.74388 0.3935 0.0013 0.0
H225 H 0.71456 0.25617 0.03736 0.0
H226 H 0.6936 0.30396 0.02496 0.0
H227 H 0.70113 0.25306 -0.00191 0.0
H228 H 0.71376 0.29273 0.95839 0.0
H229 H 0.64498 0.33354 0.94044 0.0
H230 H 0.58526 0.65192 0.52411 0.0
H231 H 0.60446 0.72657 0.51933 0.0
H232 H 0.7241 0.6782 0.45708 0.0
H233 H 0.7035 0.60409 0.46107 0.0
H234 H 0.69395 0.75947 0.54038 0.0
H235 H 0.67977 0.77841 0.42306 0.0
H236 H 0.64767 0.73418 0.43513 0.0
H237 H 0.71411 0.72982 0.42434 0.0
C238 C 0.61313 0.65712 0.50787 0.0
C239 C 0.64212 0.62234 0.4924 0.0
C240 C 0.62467 0.69985 0.50544 0.0
C241 C 0.66561 0.70826 0.48767 0.0
C242 C 0.69147 0.67286 0.47027 0.0
H243 H 0.92248 0.87401 0.49813 0.0
H244 H 0.85184 0.82088 0.48345 0.0
C245 C 0.6798 0.63036 0.47263 0.0
C246 C 0.68889 0.75278 0.49219 0.0
H247 H 0.74857 0.82168 0.45463 0.0
C248 C 0.70446 0.77376 0.52167 0.0
C249 C 0.70306 0.77146 0.46784 0.0
C250 C 0.68472 0.7524 0.43589 0.0
C251 C 0.73687 0.8108 0.52727 0.0
C252 C 0.75377 0.82775 0.50273 0.0
C253 C 0.73589 0.80841 0.47339 0.0
C254 C 0.79377 0.8628 0.50717 0.0
C255 C 0.75556 0.82977 0.55924 0.0
C256 C 0.78412 0.90458 0.52439 0.0
C257 C 0.82446 0.935 0.53293 0.0
C258 C 0.87519 0.92418 0.52435 0.0
C259 C 0.884 0.88334 0.50531 0.0
C260 C 0.84362 0.85295 0.49681 0.0
H261 H 0.74531 0.80865 0.57493 0.0
H262 H 0.79801 0.8347 0.56021 0.0
H263 H 0.73784 0.862 0.56736 0.0
H264 H 0.74578 0.913 0.5323 0.0
H265 H 0.81617 0.96628 0.54735 0.0
H266 H 0.67009 0.40896 0.44673 0.0
H267 H 0.69691 0.333 0.437 0.0
H268 H 0.59356 0.30853 0.50458 0.0
H269 H 0.56573 0.38444 0.51367 0.0
H270 H 0.74625 0.30299 0.48022 0.0
H271 H 0.57483 0.19721 0.4402 0.0
H272 H 0.57664 0.25456 0.44004 0.0
H273 H 0.56596 0.23713 0.47452 0.0
C274 C 0.6517 0.38682 0.4586 0.0
C275 C 0.6153 0.40209 0.48053 0.0
C276 C 0.66719 0.34356 0.45319 0.0
C277 C 0.6472 0.31495 0.46999 0.0
C278 C 0.60872 0.32962 0.49086 0.0
H279 H 0.84053 0.09694 0.49266 0.0
H280 H 0.78492 0.16053 0.50417 0.0
C281 C 0.59265 0.37293 0.49597 0.0
C282 C 0.67188 0.2722 0.46838 0.0
H283 H 0.6503 0.16209 0.45256 0.0
C284 C 0.72521 0.27218 0.47415 0.0
C285 C 0.64438 0.23207 0.46057 0.0
C286 C 0.58736 0.23 0.45321 0.0
C287 C 0.75211 0.23327 0.47164 0.0
C288 C 0.72468 0.19305 0.46406 0.0
C289 C 0.67114 0.19297 0.45874 0.0
C290 C 0.75186 0.15093 0.45896 0.0
C291 C 0.81 0.23571 0.47589 0.0
C292 C 0.74947 0.12306 0.43026 0.0
C293 C 0.78057 0.08647 0.42376 0.0
C294 C 0.81492 0.07711 0.4458 0.0
C295 C 0.81498 0.10357 0.47509 0.0
C296 C 0.78339 0.14001 0.48166 0.0
H297 H 0.82591 0.26811 0.47448 0.0
H298 H 0.82058 0.23011 0.49851 0.0
H299 H 0.8286 0.21043 0.45866 0.0
H300 H 0.72527 0.1307 0.41244 0.0
H301 H 0.77922 0.06663 0.40102 0.0
H302 H 0.48084 0.40268 0.48534 0.0
H303 H 0.4606 0.3327 0.49844 0.0
H304 H 0.35977 0.39817 0.56735 0.0
H305 H 0.38041 0.46777 0.55448 0.0
H306 H 0.41024 0.32236 0.58102 0.0
H307 H 0.31182 0.29236 0.46777 0.0
H308 H 0.3801 0.30289 0.46932 0.0
H309 H 0.33744 0.34529 0.48621 0.0
C310 C 0.45669 0.40228 0.50437 0.0
C311 C 0.43259 0.4404 0.51921 0.0
C312 C 0.44459 0.36229 0.51159 0.0
C313 C 0.40795 0.3602 0.53351 0.0
C314 C 0.38814 0.39903 0.55039 0.0
H315 H 0.15453 0.20246 0.55584 0.0
H316 H 0.21889 0.25719 0.55016 0.0
C317 C 0.40006 0.43879 0.54312 0.0
C318 C 0.38295 0.31826 0.53538 0.0
H319 H 0.29378 0.24348 0.49827 0.0
C320 C 0.38566 0.30446 0.56274 0.0
C321 C 0.35012 0.29548 0.51162 0.0
C322 C 0.34417 0.3097 0.48209 0.0
C323 C 0.3553 0.26917 0.56718 0.0
C324 C 0.32142 0.24744 0.54374 0.0
C325 C 0.32002 0.26025 0.51611 0.0
C326 C 0.28352 0.21408 0.54827 0.0
C327 C 0.35752 0.2566 0.59733 0.0
C328 C 0.29864 0.17165 0.54892 0.0
C329 C 0.26182 0.14009 0.55196 0.0
C330 C 0.20932 0.15057 0.55448 0.0
C331 C 0.19456 0.19327 0.55399 0.0
C332 C 0.23127 0.22461 0.55076 0.0
H333 H 0.38367 0.27841 0.61386 0.0
H334 H 0.31838 0.25759 0.60672 0.0
H335 H 0.37121 0.22266 0.59435 0.0
H336 H 0.33877 0.16285 0.54675 0.0
H337 H 0.27448 0.10752 0.55229 0.0
H338 H 0.51007 0.67061 0.49009 0.0
H339 H 0.47655 0.74239 0.48817 0.0
H340 H 0.3544 0.72333 0.54684 0.0
H341 H 0.38889 0.65256 0.54951 0.0
H342 H 0.38497 0.7443 0.46174 0.0
H343 H 0.37775 0.85231 0.57479 0.0
H344 H 0.41926 0.80572 0.56682 0.0
H345 H 0.35268 0.79926 0.57552 0.0
C346 C 0.47828 0.6831 0.50421 0.0
C347 C 0.45271 0.65649 0.52046 0.0
C348 C 0.45856 0.72387 0.50272 0.0
C349 C 0.413 0.73855 0.51749 0.0
C350 C 0.39018 0.71347 0.53583 0.0
H351 H 0.14375 0.84032 0.45524 0.0
H352 H 0.21651 0.79967 0.46912 0.0
C353 C 0.40987 0.67286 0.53731 0.0
C354 C 0.38356 0.77463 0.50913 0.0
H355 H 0.30987 0.8622 0.53872 0.0
C356 C 0.36965 0.77071 0.47857 0.0
C357 C 0.36362 0.80936 0.53091 0.0
C358 C 0.37961 0.81715 0.56379 0.0
C359 C 0.33379 0.79858 0.46949 0.0
C360 C 0.31053 0.83086 0.49156 0.0
C361 C 0.32706 0.8369 0.52186 0.0
C362 C 0.2665 0.85628 0.48372 0.0
C363 C 0.32 0.79241 0.43636 0.0
C364 C 0.27 0.90178 0.48801 0.0
C365 C 0.2283 0.92523 0.48007 0.0
C366 C 0.18222 0.90355 0.46801 0.0
C367 C 0.17868 0.85804 0.4643 0.0
C368 C 0.22035 0.8347 0.4721 0.0
H369 H 0.35117 0.77592 0.42205 0.0
H370 H 0.28468 0.77168 0.43108 0.0
H371 H 0.31232 0.82412 0.43031 0.0
H372 H 0.30517 0.91906 0.49713 0.0
H373 H 0.2322 0.96028 0.48336 0.0
H374 H 0.98493 -0.00198 0.08977 0.0
H375 H 0.96713 0.98793 0.14066 0.0
H376 H 0.1117 0.05144 0.17366 0.0
H377 H 0.12998 0.06142 0.12316 0.0
H378 H 0.0401 0.94175 0.17579 0.0
H379 H 0.99761 0.11242 0.23286 0.0
H380 H 0.99076 0.09265 0.19247 0.0
H381 H 0.05353 0.10516 0.2098 0.0
C382 C 0.01248 0.01048 0.10798 0.0
C383 C 0.05886 0.03055 0.10245 0.0
C384 C 1.0024 0.00446 0.13694 0.0
C385 C 0.03806 0.01913 0.16082 0.0
C386 C 0.08357 0.04022 0.15553 0.0
H387 H 0.09499 0.96243 0.33631 0.0
H388 H 0.09918 0.9693 0.28368 0.0
C389 C 0.09395 0.04579 0.12664 0.0
C390 C 0.02938 0.01077 0.19109 0.0
H391 H 0.01076 0.06218 0.26427 0.0
C392 C 0.03323 0.96794 0.19513 0.0
C393 C 0.02046 0.04508 0.21616 0.0
C394 C 0.01493 0.09145 0.21276 0.0
C395 C 0.02963 0.95871 0.22389 0.0
C396 C 0.02212 0.99322 0.24908 0.0
C397 C 0.01693 0.03587 0.24489 0.0
C398 C 0.01905 0.98586 0.28004 0.0
C399 C 0.03382 0.91224 0.22724 0.0
C400 C 0.97264 0.9928 0.29526 0.0
C401 C 0.97002 0.98873 0.32515 0.0
C402 C 0.01403 0.97814 0.3406 0.0
C403 C 0.06041 0.97054 0.32509 0.0
C404 C 0.06285 0.97433 0.29502 0.0
H405 H 0.03034 0.88863 0.20514 0.0
H406 H 0.07181 0.9079 0.23779 0.0
H407 H 1.00356 0.90455 0.24221 0.0
H408 H 0.93851 0.00188 0.28407 0.0
H409 H 0.93367 -0.00507 0.33633 0.0
H410 H 0.94032 0.04376 0.89232 0.0
H411 H 0.964 0.0405 0.84038 0.0
H412 H 0.11646 -0.00053 0.86 0.0
H413 H 0.0935 0.00421 0.91267 0.0
H414 H 0.12036 0.05751 0.82476 0.0
H415 H 0.97414 0.93073 0.7768 0.0
H416 H 0.94494 0.97744 0.79969 0.0
H417 H 0.98949 0.94579 0.81668 0.0
C418 C 0.9789 0.0339 0.88564 0.0
C419 C 0.01482 0.02364 0.90654 0.0
C420 C 0.9923 0.03185 0.85585 0.0
C421 C 0.04152 0.01851 0.84604 0.0
C422 C 0.07806 0.00941 0.86701 0.0
H423 H 0.07985 0.94566 0.65166 0.0
H424 H 0.08055 0.94465 0.70524 0.0
C425 C 0.06489 0.01209 0.89706 0.0
C426 C 0.05436 0.0143 0.81388 0.0
H427 H 0.00967 0.97025 0.74239 0.0
C428 C 0.09659 0.038 0.80669 0.0
C429 C 0.02412 0.98806 0.79029 0.0
C430 C 0.98103 0.9587 0.79626 0.0
C431 C 0.10808 0.03757 0.77656 0.0
C432 C 0.07546 0.01386 0.75304 0.0
C433 C 0.03443 0.98891 0.76031 0.0
C434 C 0.08196 0.01489 0.72077 0.0
C435 C 0.15533 0.06216 0.77035 0.0
C436 C 0.08341 0.05467 0.7115 0.0
C437 C 0.08416 0.05528 0.68082 0.0
C438 C 0.08195 0.01612 0.65882 0.0
C439 C 0.08132 0.97637 0.66811 0.0
C440 C 0.08172 0.97577 0.69874 0.0
H441 H 0.1849 0.06482 0.78878 0.0
H442 H 0.17274 0.04619 0.74873 0.0
H443 H 0.1445 0.09574 0.7691 0.0
H444 H 0.082 0.08531 0.72788 0.0
H445 H 0.08408 0.0864 0.6743 0.0
H446 H 0.63972 0.55373 0.61894 0.0
H447 H 0.62344 0.54434 0.66976 0.0
H448 H 0.4702 0.49579 0.64143 0.0
H449 H 0.48614 0.50495 0.59014 0.0
H450 H 0.54226 0.57971 0.71013 0.0
H451 H 0.54032 0.39837 0.67778 0.0
H452 H 0.56694 0.43181 0.65408 0.0
H453 H 0.49846 0.42593 0.65622 0.0
C454 C 0.60236 0.5413 0.62346 0.0
C455 C 0.5643 0.52988 0.60041 0.0
C456 C 0.59316 0.53602 0.65256 0.0
C457 C 0.54595 0.51884 0.65919 0.0
C458 C 0.50716 0.5086 0.63658 0.0
H459 H 0.43569 0.5031 0.83469 0.0
H460 H 0.44487 0.51197 0.78308 0.0
C461 C 0.51619 0.51419 0.60739 0.0
C462 C 0.53822 0.51115 0.68977 0.0
H463 H 0.5262 0.43062 0.72894 0.0
C464 C 0.53848 0.54716 0.71426 0.0
C465 C 0.53402 0.46856 0.69501 0.0
C466 C 0.53524 0.42879 0.66949 0.0
C467 C 0.53425 0.54171 0.74393 0.0
C468 C 0.52971 0.4992 0.74915 0.0
C469 C 0.52968 0.46313 0.72472 0.0
C470 C 0.52414 0.49187 0.77993 0.0
C471 C 0.53521 0.58131 0.76964 0.0
C472 C 0.56565 0.47703 0.79503 0.0
C473 C 0.56075 0.4721 0.82473 0.0
C474 C 0.51403 0.48156 0.83961 0.0
C475 C 0.47225 0.49547 0.82399 0.0
C476 C 0.47734 0.50066 0.79448 0.0
H477 H 0.54611 0.61149 0.76223 0.0
H478 H 0.49644 0.58566 0.77949 0.0
H479 H 0.56277 0.57677 0.78772 0.0
H480 H 0.60206 0.47004 0.78401 0.0
H481 H 0.59358 0.46125 0.83607 0.0
H482 H 0.43496 0.54322 0.39207 0.0
H483 H 0.4565 0.54015 0.33982 0.0
H484 H 0.61014 0.4997 0.35741 0.0
H485 H 0.58935 0.50426 0.41038 0.0
H486 H 0.61218 0.55808 0.32264 0.0
H487 H 0.46555 0.43137 0.27539 0.0
H488 H 0.43664 0.47774 0.29885 0.0
H489 H 0.48202 0.44595 0.31514 0.0
C490 C 0.47332 0.53349 0.38487 0.0
C491 C 0.51025 0.52343 0.40531 0.0
C492 C 0.4855 0.53153 0.3549 0.0
C493 C 0.53446 0.51849 0.34444 0.0
C494 C 0.57193 0.50943 0.36492 0.0
H495 H 0.5671 0.44901 0.14945 0.0
H496 H 0.56914 0.44697 0.20287 0.0
C497 C 0.55999 0.51201 0.39515 0.0
C498 C 0.5462 0.51479 0.31217 0.0
H499 H 0.49941 0.47175 0.24098 0.0
C500 C 0.58796 0.53878 0.30473 0.0
C501 C 0.51537 0.48881 0.28875 0.0
C502 C 0.47279 0.45915 0.29494 0.0
C503 C 0.5984 0.53888 0.27454 0.0
C504 C 0.56516 0.51547 0.25124 0.0
C505 C 0.52462 0.49021 0.25873 0.0
C506 C 0.57052 0.51711 0.21899 0.0
C507 C 0.64524 0.56373 0.26803 0.0
C508 C 0.57144 0.55718 0.2101 0.0
C509 C 0.57141 0.55839 0.17951 0.0
C510 C 0.56894 0.51953 0.15723 0.0
C511 C 0.56874 0.47949 0.16612 0.0
C512 C 0.56991 0.47831 0.19666 0.0
H513 H 0.67541 0.5661 0.2861 0.0
H514 H 0.662 0.54812 0.24613 0.0
H515 H 0.63415 0.5974 0.26721 0.0
H516 H 0.57029 0.5876 0.22674 0.0
H517 H 0.57101 0.58972 0.17331 0.0
loop_
_geom_bond_atom_site_label_1
_geom_bond_atom_site_label_2
_geom_bond_distance
_geom_bond_site_symmetry_2
_ccdc_geom_bond_type
O0 Mn1 2.163 1_654 S
O0 C14 1.244 1_554 S
Mn1 O0 2.163 1_456 S
Mn1 O4 2.160 1_545 S
Mn1 O5 2.221 1_556 S
Mn1 O7 2.163 1_556 S
Mn1 O9 2.160 . S
Mn1 O19 2.221 1_445 S
O2 Mn3 2.083 1_545 S
O2 C14 1.256 . S
Mn3 O2 2.083 1_565 S
Mn3 O10 2.086 1_565 S
Mn3 O19 2.293 . S
Mn3 O20 2.255 . S
O4 Mn1 2.160 1_565 S
O4 C15 1.239 1_556 S
O5 Mn1 2.221 1_554 S
O5 Mn6 2.290 . S
O5 C16 1.278 . S
Mn6 O5 2.290 . S
Mn6 O8 2.089 1_545 S
Mn6 O11 2.251 . S
Mn6 O12 2.087 . S
O7 Mn1 2.163 1_554 S
O7 C17 1.244 . S
O8 Mn6 2.089 1_565 S
O8 C15 1.256 . S
O9 Mn1 2.160 . S
O9 C18 1.239 . S
O10 Mn3 2.086 1_545 S
O10 C18 1.256 1_655 S
O11 Mn6 2.251 . S
O11 C16 1.241 . S
O12 Mn6 2.087 . S
O12 C17 1.256 . S
C13 O19 1.278 . S
C13 O20 1.241 . S
C14 O0 1.244 1_556 S
C14 O2 1.256 . S
C15 O4 1.239 1_554 S
C15 O8 1.256 . S
C16 O5 1.278 . S
C16 O11 1.241 . S
C17 O7 1.244 . S
C17 O12 1.256 . S
C18 O9 1.239 . S
C18 O10 1.256 1_455 S
O19 Mn1 2.221 1_665 S
O19 Mn3 2.293 . S
O19 C13 1.278 . S
O20 Mn3 2.255 . S
O20 C13 1.241 . S
O21 Mn22 2.163 . S
O21 C35 1.244 . S
Mn22 O21 2.163 . S
Mn22 O25 2.160 . S
Mn22 O26 2.221 . S
Mn22 O28 2.163 . S
Mn22 O30 2.160 . S
Mn22 O40 2.221 . S
O23 Mn24 2.087 . S
O23 C35 1.256 . S
Mn24 O23 2.087 . S
Mn24 O31 2.089 . S
Mn24 O40 2.290 . S
Mn24 O41 2.251 . S
O25 Mn22 2.160 . S
O25 C36 1.239 . S
O26 Mn22 2.221 . S
O26 Mn27 2.290 . S
O26 C37 1.278 . S
Mn27 O26 2.290 . S
Mn27 O29 2.089 . S
Mn27 O32 2.251 . S
Mn27 O33 2.087 . S
O28 Mn22 2.163 . S
O28 C38 1.244 . S
O29 Mn27 2.089 . S
O29 C36 1.256 . S
O30 Mn22 2.160 . S
O30 C39 1.239 . S
O31 Mn24 2.089 . S
O31 C39 1.256 . S
O32 Mn27 2.251 . S
O32 C37 1.241 . S
O33 Mn27 2.087 . S
O33 C38 1.256 . S
C34 O40 1.278 . S
C34 O41 1.241 . S
C35 O21 1.244 . S
C35 O23 1.256 . S
C36 O25 1.239 . S
C36 O29 1.256 . S
C37 O26 1.278 . S
C37 O32 1.241 . S
C38 O28 1.244 . S
C38 O33 1.256 . S
C39 O30 1.239 . S
C39 O31 1.256 . S
O40 Mn22 2.221 . S
O40 Mn24 2.290 . S
O40 C34 1.278 . S
O41 Mn24 2.251 . S
O41 C34 1.241 . S
O42 Cd43 2.300 . S
O42 C49 1.275 1_565 S
Cd43 O42 2.300 . S
Cd43 O51 2.381 . S
Cd43 O52 2.378 . S
O44 Cd45 2.385 . S
O44 C49 1.255 . S
Cd45 O44 2.385 . S
Cd45 O46 2.317 . S
O46 Cd45 2.317 . S
O46 C47 1.232 1_455 S
C47 O46 1.232 1_655 S
C47 O48 1.218 . S
O48 C47 1.218 . S
C49 O42 1.275 1_545 S
C49 O44 1.255 . S
C50 O51 1.258 . S
C50 O52 1.256 . S
O51 Cd43 2.381 . S
O51 C50 1.258 . S
O52 Cd43 2.378 . S
O52 C50 1.256 . S
O53 Cd54 2.300 . S
O53 C60 1.275 . S
Cd54 O53 2.300 . S
Cd54 O62 2.381 . S
Cd54 O63 2.378 . S
O55 Cd56 2.385 1_545 S
O55 C60 1.255 . S
Cd56 O55 2.385 1_565 S
Cd56 O57 2.317 1_455 S
O57 Cd56 2.317 1_655 S
O57 C58 1.232 . S
C58 O57 1.232 . S
C58 O59 1.218 . S
O59 C58 1.218 . S
C60 O53 1.275 . S
C60 O55 1.255 . S
C61 O62 1.258 . S
C61 O63 1.256 . S
O62 Cd54 2.381 . S
O62 C61 1.258 . S
O63 Cd54 2.378 . S
O63 C61 1.256 . S
O64 Cd65 2.300 . S
O64 C71 1.275 . S
Cd65 O64 2.300 . S
Cd65 O73 2.381 . S
Cd65 O74 2.378 . S
O66 Cd67 2.385 . S
O66 C71 1.255 . S
Cd67 O66 2.385 . S
Cd67 O68 2.317 . S
O68 Cd67 2.317 . S
O68 C69 1.232 . S
C69 O68 1.232 . S
C69 O70 1.218 . S
O70 C69 1.218 . S
C71 O64 1.275 . S
C71 O66 1.255 . S
C72 O73 1.258 . S
C72 O74 1.256 . S
O73 Cd65 2.381 . S
O73 C72 1.258 . S
O74 Cd65 2.378 . S
O74 C72 1.256 . S
O75 Cd76 2.300 . S
O75 C82 1.275 . S
Cd76 O75 2.300 . S
Cd76 O84 2.381 . S
Cd76 O85 2.378 . S
O77 Cd78 2.385 . S
O77 C82 1.255 . S
Cd78 O77 2.385 . S
Cd78 O79 2.317 . S
O79 Cd78 2.317 . S
O79 C80 1.232 . S
C80 O79 1.232 . S
C80 O81 1.218 . S
O81 C80 1.218 . S
C82 O75 1.275 . S
C82 O77 1.255 . S
C83 O84 1.258 . S
C83 O85 1.256 . S
O84 Cd76 2.381 . S
O84 C83 1.258 . S
O85 Cd76 2.378 . S
O85 C83 1.256 . S
H86 C94 0.929 . S
H87 C96 0.930 . S
H88 C98 0.930 . S
H89 C101 0.929 . S
H90 C104 0.930 . S
H91 C106 0.960 . S
H92 C106 0.960 . S
H93 C106 0.960 . S
C94 H86 0.929 . S
C94 C95 1.377 . S
C94 C96 1.384 . S
C95 C94 1.377 . S
C95 C101 1.390 1_554 S
C96 H87 0.930 . S
C96 C94 1.384 . S
C96 C97 1.372 . S
C97 C96 1.372 . S
C97 C98 1.400 1_554 S
C97 C102 1.490 . S
C98 H88 0.930 . S
C98 C97 1.400 1_556 S
C98 C101 1.386 . S
H99 C115 0.930 . S
H100 C116 0.909 1_556 S
C101 H89 0.929 . S
C101 C95 1.390 1_556 S
C101 C98 1.386 . S
C102 C97 1.490 . S
C102 C104 1.395 . S
C102 C105 1.403 . S
H103 C109 0.930 . S
C104 H90 0.930 . S
C104 C102 1.395 . S
C104 C107 1.403 . S
C105 C102 1.403 . S
C105 C106 1.524 1_554 S
C105 C109 1.400 . S
C106 H91 0.960 . S
C106 H92 0.960 . S
C106 H93 0.960 . S
C106 C105 1.524 1_556 S
C107 C104 1.403 . S
C107 C108 1.392 . S
C107 C111 1.495 . S
C108 C107 1.392 . S
C108 C109 1.385 . S
C108 C110 1.478 . S
C109 H103 0.930 . S
C109 C105 1.400 . S
C109 C108 1.385 . S
C110 C108 1.478 . S
C110 C112 1.381 . S
C110 C116 1.383 . S
C111 C107 1.495 . S
C111 H117 0.959 . S
C111 H118 0.961 . S
C111 H119 0.960 . S
C112 C110 1.381 . S
C112 C113 1.394 . S
C112 H120 0.930 . S
C113 C112 1.394 . S
C113 C114 1.383 . S
C113 H121 0.929 . S
C114 C113 1.383 . S
C114 C115 1.377 . S
C115 H99 0.930 . S
C115 C114 1.377 . S
C115 C116 1.379 . S
C116 H100 0.909 1_554 S
C116 C110 1.383 . S
C116 C115 1.379 . S
H117 C111 0.959 . S
H118 C111 0.961 . S
H119 C111 0.960 . S
H120 C112 0.930 . S
H121 C113 0.929 . S
H122 C130 0.929 . S
H123 C132 0.930 . S
H124 C134 0.930 . S
H125 C137 0.929 . S
H126 C140 0.930 . S
H127 C142 0.960 . S
H128 C142 0.960 1_554 S
H129 C142 0.960 . S
C130 H122 0.929 . S
C130 C131 1.377 1_554 S
C130 C132 1.384 . S
C131 C130 1.377 1_556 S
C131 C137 1.390 . S
C132 H123 0.930 . S
C132 C130 1.384 . S
C132 C133 1.372 1_554 S
C133 C132 1.372 1_556 S
C133 C134 1.400 . S
C133 C138 1.490 . S
C134 H124 0.930 . S
C134 C133 1.400 . S
C134 C137 1.386 . S
H135 C151 0.930 . S
H136 C152 0.931 . S
C137 H125 0.929 . S
C137 C131 1.390 . S
C137 C134 1.386 . S
C138 C133 1.490 . S
C138 C140 1.395 . S
C138 C141 1.403 . S
H139 C145 0.930 . S
C140 H126 0.930 . S
C140 C138 1.395 . S
C140 C143 1.403 . S
C141 C138 1.403 . S
C141 C142 1.524 . S
C141 C145 1.400 . S
C142 H127 0.960 . S
C142 H128 0.960 1_556 S
C142 H129 0.960 . S
C142 C141 1.524 . S
C143 C140 1.403 . S
C143 C144 1.392 . S
C143 C147 1.495 . S
C144 C143 1.392 . S
C144 C145 1.385 . S
C144 C146 1.478 . S
C145 H139 0.930 . S
C145 C141 1.400 . S
C145 C144 1.385 . S
C146 C144 1.478 . S
C146 C148 1.381 . S
C146 C152 1.383 . S
C147 C143 1.495 . S
C147 H153 0.959 . S
C147 H154 0.961 . S
C147 H155 0.960 . S
C148 C146 1.381 . S
C148 C149 1.394 . S
C148 H156 0.930 1_556 S
C149 C148 1.394 . S
C149 C150 1.383 . S
C149 H157 0.929 1_556 S
C150 C149 1.383 . S
C150 C151 1.377 . S
C151 H135 0.930 . S
C151 C150 1.377 . S
C151 C152 1.379 . S
C152 H136 0.931 . S
C152 C146 1.383 . S
C152 C151 1.379 . S
H153 C147 0.959 . S
H154 C147 0.961 . S
H155 C147 0.960 . S
H156 C148 0.930 1_554 S
H157 C149 0.929 1_554 S
H158 C166 0.929 . S
H159 C168 0.930 . S
H160 C170 0.930 . S
H161 C173 0.929 . S
H162 C176 0.930 . S
H163 C178 0.960 . S
H164 C178 0.960 . S
H165 C178 0.960 . S
C166 H158 0.929 . S
C166 C167 1.377 . S
C166 C168 1.384 . S
C167 C166 1.377 . S
C167 C173 1.390 1_554 S
C168 H159 0.930 . S
C168 C166 1.384 . S
C168 C169 1.372 . S
C169 C168 1.372 . S
C169 C170 1.400 1_554 S
C169 C174 1.490 . S
C170 H160 0.930 . S
C170 C169 1.400 1_556 S
C170 C173 1.386 . S
H171 C187 0.930 1_556 S
H172 C188 0.931 1_556 S
C173 H161 0.929 . S
C173 C167 1.390 1_556 S
C173 C170 1.386 . S
C174 C169 1.490 . S
C174 C176 1.395 . S
C174 C177 1.403 . S
H175 C181 0.930 . S
C176 H162 0.930 . S
C176 C174 1.395 . S
C176 C179 1.403 . S
C177 C174 1.403 . S
C177 C178 1.524 . S
C177 C181 1.400 . S
C178 H163 0.960 . S
C178 H164 0.960 . S
C178 H165 0.960 . S
C178 C177 1.524 . S
C179 C176 1.403 . S
C179 C180 1.392 . S
C179 C183 1.495 . S
C180 C179 1.392 . S
C180 C181 1.385 . S
C180 C182 1.478 . S
C181 H175 0.930 . S
C181 C177 1.400 . S
C181 C180 1.385 . S
C182 C180 1.478 . S
C182 C184 1.381 . S
C182 C188 1.383 . S
C183 C179 1.495 . S
C183 H189 0.959 . S
C183 H190 0.961 . S
C183 H191 0.960 . S
C184 C182 1.381 . S
C184 C185 1.394 . S
C184 H192 0.930 . S
C185 C184 1.394 . S
C185 C186 1.383 . S
C185 H193 0.929 . S
C186 C185 1.383 . S
C186 C187 1.377 . S
C187 H171 0.930 1_554 S
C187 C186 1.377 . S
C187 C188 1.379 . S
C188 H172 0.931 1_554 S
C188 C182 1.383 . S
C188 C187 1.379 . S
H189 C183 0.959 . S
H190 C183 0.961 . S
H191 C183 0.960 . S
H192 C184 0.930 . S
H193 C185 0.929 . S
H194 C202 0.929 . S
H195 C204 0.930 . S
H196 C206 0.930 . S
H197 C209 0.929 . S
H198 C212 0.941 . S
H199 C214 0.960 . S
H200 C214 0.960 . S
H201 C214 0.960 . S
C202 H194 0.929 . S
C202 C203 1.401 . S
C202 C204 1.384 . S
C203 C202 1.401 . S
C203 C209 1.378 1_556 S
C204 H195 0.930 . S
C204 C202 1.384 . S
C204 C205 1.372 . S
C205 C204 1.372 . S
C205 C206 1.400 1_556 S
C205 C210 1.490 . S
C206 H196 0.930 . S
C206 C205 1.400 1_554 S
C206 C209 1.386 . S
H207 C223 0.930 1_554 S
H208 C224 0.931 1_554 S
C209 H197 0.929 . S
C209 C203 1.378 1_554 S
C209 C206 1.386 . S
C210 C205 1.490 . S
C210 C212 1.395 . S
C210 C213 1.403 . S
H211 C217 0.930 . S
C212 H198 0.941 . S
C212 C210 1.395 . S
C212 C215 1.403 . S
C213 C210 1.403 . S
C213 C214 1.524 . S
C213 C217 1.400 . S
C214 H199 0.960 . S
C214 H200 0.960 . S
C214 H201 0.960 . S
C214 C213 1.524 . S
C215 C212 1.403 . S
C215 C216 1.392 . S
C215 C219 1.495 . S
C216 C215 1.392 . S
C216 C217 1.385 . S
C216 C218 1.478 . S
C217 H211 0.930 . S
C217 C213 1.400 . S
C217 C216 1.385 . S
C218 C216 1.478 . S
C218 C220 1.381 . S
C218 C224 1.383 . S
C219 C215 1.495 . S
C219 H225 0.959 1_556 S
C219 H226 0.961 1_556 S
C219 H227 0.960 . S
C220 C218 1.381 . S
C220 C221 1.394 . S
C220 H228 0.930 . S
C221 C220 1.394 . S
C221 C222 1.383 . S
C221 H229 0.929 . S
C222 C221 1.383 . S
C222 C223 1.377 . S
C223 H207 0.930 1_556 S
C223 C222 1.377 . S
C223 C224 1.379 . S
C224 H208 0.931 1_556 S
C224 C218 1.383 . S
C224 C223 1.379 . S
H225 C219 0.959 1_554 S
H226 C219 0.961 1_554 S
H227 C219 0.960 . S
H228 C220 0.930 . S
H229 C221 0.929 . S
H230 C238 0.929 . S
H231 C240 0.930 . S
H232 C242 0.930 . S
H233 C245 0.929 . S
H234 C248 0.930 . S
H235 C250 0.960 . S
H236 C250 0.960 . S
H237 C250 0.960 . S
C238 H230 0.929 . S
C238 C239 1.377 . S
C238 C240 1.384 . S
C239 C238 1.377 . S
C239 C245 1.390 . S
C240 H231 0.930 . S
C240 C238 1.384 . S
C240 C241 1.372 . S
C241 C240 1.372 . S
C241 C242 1.400 . S
C241 C246 1.490 . S
C242 H232 0.930 . S
C242 C241 1.400 . S
C242 C245 1.386 . S
H243 C259 0.930 . S
H244 C260 0.931 . S
C245 H233 0.929 . S
C245 C239 1.390 . S
C245 C242 1.386 . S
C246 C241 1.490 . S
C246 C248 1.395 . S
C246 C249 1.403 . S
H247 C253 0.930 . S
C248 H234 0.930 . S
C248 C246 1.395 . S
C248 C251 1.403 . S
C249 C246 1.403 . S
C249 C250 1.524 . S
C249 C253 1.400 . S
C250 H235 0.960 . S
C250 H236 0.960 . S
C250 H237 0.960 . S
C250 C249 1.524 . S
C251 C248 1.403 . S
C251 C252 1.392 . S
C251 C255 1.495 . S
C252 C251 1.392 . S
C252 C253 1.385 . S
C252 C254 1.478 . S
C253 H247 0.930 . S
C253 C249 1.400 . S
C253 C252 1.385 . S
C254 C252 1.478 . S
C254 C256 1.381 . S
C254 C260 1.383 . S
C255 C251 1.495 . S
C255 H261 0.959 . S
C255 H262 0.961 . S
C255 H263 0.960 . S
C256 C254 1.381 . S
C256 C257 1.394 . S
C256 H264 0.930 . S
C257 C256 1.394 . S
C257 C258 1.383 . S
C257 H265 0.929 . S
C258 C257 1.383 . S
C258 C259 1.377 . S
C259 H243 0.930 . S
C259 C258 1.377 . S
C259 C260 1.379 . S
C260 H244 0.931 . S
C260 C254 1.383 . S
C260 C259 1.379 . S
H261 C255 0.959 . S
H262 C255 0.961 . S
H263 C255 0.960 . S
H264 C256 0.930 . S
H265 C257 0.929 . S
H266 C274 0.929 . S
H267 C276 0.930 . S
H268 C278 0.930 . S
H269 C281 0.929 . S
H270 C284 0.930 . S
H271 C286 0.960 . S
H272 C286 0.960 . S
H273 C286 0.960 . S
C274 H266 0.929 . S
C274 C275 1.377 . S
C274 C276 1.384 . S
C275 C274 1.377 . S
C275 C281 1.390 . S
C276 H267 0.930 . S
C276 C274 1.384 . S
C276 C277 1.372 . S
C277 C276 1.372 . S
C277 C278 1.400 . S
C277 C282 1.490 . S
C278 H268 0.930 . S
C278 C277 1.400 . S
C278 C281 1.386 . S
H279 C295 0.930 . S
H280 C296 0.931 . S
C281 H269 0.929 . S
C281 C275 1.390 . S
C281 C278 1.386 . S
C282 C277 1.490 . S
C282 C284 1.395 . S
C282 C285 1.403 . S
H283 C289 0.930 . S
C284 H270 0.930 . S
C284 C282 1.395 . S
C284 C287 1.403 . S
C285 C282 1.403 . S
C285 C286 1.524 . S
C285 C289 1.400 . S
C286 H271 0.960 . S
C286 H272 0.960 . S
C286 H273 0.960 . S
C286 C285 1.524 . S
C287 C284 1.403 . S
C287 C288 1.392 . S
C287 C291 1.495 . S
C288 C287 1.392 . S
C288 C289 1.385 . S
C288 C290 1.478 . S
C289 H283 0.930 . S
C289 C285 1.400 . S
C289 C288 1.385 . S
C290 C288 1.478 . S
C290 C292 1.381 . S
C290 C296 1.383 . S
C291 C287 1.495 . S
C291 H297 0.959 . S
C291 H298 0.961 . S
C291 H299 0.960 . S
C292 C290 1.381 . S
C292 C293 1.394 . S
C292 H300 0.930 . S
C293 C292 1.394 . S
C293 C294 1.383 . S
C293 H301 0.929 . S
C294 C293 1.383 . S
C294 C295 1.377 . S
C295 H279 0.930 . S
C295 C294 1.377 . S
C295 C296 1.379 . S
C296 H280 0.931 . S
C296 C290 1.383 . S
C296 C295 1.379 . S
H297 C291 0.959 . S
H298 C291 0.961 . S
H299 C291 0.960 . S
H300 C292 0.930 . S
H301 C293 0.929 . S
H302 C310 0.929 . S
H303 C312 0.930 . S
H304 C314 0.930 . S
H305 C317 0.929 . S
H306 C320 0.930 . S
H307 C322 0.960 . S
H308 C322 0.960 . S
H309 C322 0.960 . S
C310 H302 0.929 . S
C310 C311 1.377 . S
C310 C312 1.384 . S
C311 C310 1.377 . S
C311 C317 1.390 . S
C312 H303 0.930 . S
C312 C310 1.384 . S
C312 C313 1.372 . S
C313 C312 1.372 . S
C313 C314 1.400 . S
C313 C318 1.490 . S
C314 H304 0.930 . S
C314 C313 1.400 . S
C314 C317 1.386 . S
H315 C331 0.930 . S
H316 C332 0.931 . S
C317 H305 0.929 . S
C317 C311 1.390 . S
C317 C314 1.386 . S
C318 C313 1.490 . S
C318 C320 1.395 . S
C318 C321 1.403 . S
H319 C325 0.930 . S
C320 H306 0.930 . S
C320 C318 1.395 . S
C320 C323 1.403 . S
C321 C318 1.403 . S
C321 C322 1.524 . S
C321 C325 1.400 . S
C322 H307 0.960 . S
C322 H308 0.960 . S
C322 H309 0.960 . S
C322 C321 1.524 . S
C323 C320 1.403 . S
C323 C324 1.392 . S
C323 C327 1.495 . S
C324 C323 1.392 . S
C324 C325 1.385 . S
C324 C326 1.478 . S
C325 H319 0.930 . S
C325 C321 1.400 . S
C325 C324 1.385 . S
C326 C324 1.478 . S
C326 C328 1.381 . S
C326 C332 1.383 . S
C327 C323 1.495 . S
C327 H333 0.959 . S
C327 H334 0.961 . S
C327 H335 0.960 . S
C328 C326 1.381 . S
C328 C329 1.394 . S
C328 H336 0.930 . S
C329 C328 1.394 . S
C329 C330 1.383 . S
C329 H337 0.929 . S
C330 C329 1.383 . S
C330 C331 1.377 . S
C331 H315 0.930 . S
C331 C330 1.377 . S
C331 C332 1.379 . S
C332 H316 0.931 . S
C332 C326 1.383 . S
C332 C331 1.379 . S
H333 C327 0.959 . S
H334 C327 0.961 . S
H335 C327 0.960 . S
H336 C328 0.930 . S
H337 C329 0.929 . S
H338 C346 0.929 . S
H339 C348 0.930 . S
H340 C350 0.930 . S
H341 C353 0.929 . S
H342 C356 0.930 . S
H343 C358 0.960 . S
H344 C358 0.960 . S
H345 C358 0.960 . S
C346 H338 0.929 . S
C346 C347 1.377 . S
C346 C348 1.384 . S
C347 C346 1.377 . S
C347 C353 1.390 . S
C348 H339 0.930 . S
C348 C346 1.384 . S
C348 C349 1.372 . S
C349 C348 1.372 . S
C349 C350 1.400 . S
C349 C354 1.490 . S
C350 H340 0.930 . S
C350 C349 1.400 . S
C350 C353 1.386 . S
H351 C367 0.930 . S
H352 C368 0.931 . S
C353 H341 0.929 . S
C353 C347 1.390 . S
C353 C350 1.386 . S
C354 C349 1.490 . S
C354 C356 1.395 . S
C354 C357 1.403 . S
H355 C361 0.930 . S
C356 H342 0.930 . S
C356 C354 1.395 . S
C356 C359 1.403 . S
C357 C354 1.403 . S
C357 C358 1.524 . S
C357 C361 1.400 . S
C358 H343 0.960 . S
C358 H344 0.960 . S
C358 H345 0.960 . S
C358 C357 1.524 . S
C359 C356 1.403 . S
C359 C360 1.392 . S
C359 C363 1.495 . S
C360 C359 1.392 . S
C360 C361 1.385 . S
C360 C362 1.478 . S
C361 H355 0.930 . S
C361 C357 1.400 . S
C361 C360 1.385 . S
C362 C360 1.478 . S
C362 C364 1.381 . S
C362 C368 1.383 . S
C363 C359 1.495 . S
C363 H369 0.959 . S
C363 H370 0.961 . S
C363 H371 0.960 . S
C364 C362 1.381 . S
C364 C365 1.394 . S
C364 H372 0.930 . S
C365 C364 1.394 . S
C365 C366 1.383 . S
C365 H373 0.929 . S
C366 C365 1.383 . S
C366 C367 1.377 . S
C367 H351 0.930 . S
C367 C366 1.377 . S
C367 C368 1.379 . S
C368 H352 0.931 . S
C368 C362 1.383 . S
C368 C367 1.379 . S
H369 C363 0.959 . S
H370 C363 0.961 . S
H371 C363 0.960 . S
H372 C364 0.930 . S
H373 C365 0.929 . S
H374 C382 0.929 . S
H375 C384 0.930 . S
H376 C386 0.930 . S
H377 C389 0.929 . S
H378 C392 0.930 . S
H379 C394 0.960 . S
H380 C394 0.960 . S
H381 C394 0.960 . S
C382 H374 0.929 . S
C382 C383 1.377 1_655 S
C382 C384 1.384 . S
C383 C382 1.377 1_455 S
C383 C389 1.390 1_545 S
C384 H375 0.930 . S
C384 C382 1.384 . S
C384 C385 1.372 1_655 S
C385 C384 1.372 1_455 S
C385 C386 1.400 1_545 S
C385 C390 1.490 . S
C386 H376 0.930 . S
C386 C385 1.400 1_565 S
C386 C389 1.386 . S
H387 C403 0.930 . S
H388 C404 0.931 . S
C389 H377 0.929 . S
C389 C383 1.390 1_565 S
C389 C386 1.386 . S
C390 C385 1.490 . S
C390 C392 1.395 1_445 S
C390 C393 1.403 . S
H391 C397 0.930 . S
C392 H378 0.930 . S
C392 C390 1.395 1_665 S
C392 C395 1.403 . S
C393 C390 1.403 . S
C393 C394 1.524 . S
C393 C397 1.400 . S
C394 H379 0.960 . S
C394 H380 0.960 . S
C394 H381 0.960 . S
C394 C393 1.524 . S
C395 C392 1.403 . S
C395 C396 1.392 1_665 S
C395 C399 1.495 . S
C396 C395 1.392 1_445 S
C396 C397 1.385 . S
C396 C398 1.478 . S
C397 H391 0.930 . S
C397 C393 1.400 . S
C397 C396 1.385 . S
C398 C396 1.478 . S
C398 C400 1.381 1_455 S
C398 C404 1.383 1_545 S
C399 C395 1.495 . S
C399 H405 0.959 . S
C399 H406 0.961 . S
C399 H407 0.960 . S
C400 C398 1.381 1_655 S
C400 C401 1.394 . S
C400 H408 0.930 . S
C401 C400 1.394 . S
C401 C402 1.383 1_655 S
C401 H409 0.929 . S
C402 C401 1.383 1_455 S
C402 C403 1.377 1_545 S
C403 H387 0.930 . S
C403 C402 1.377 1_565 S
C403 C404 1.379 . S
C404 H388 0.931 . S
C404 C398 1.383 1_565 S
C404 C403 1.379 . S
H405 C399 0.959 . S
H406 C399 0.961 . S
H407 C399 0.960 . S
H408 C400 0.930 . S
H409 C401 0.929 . S
H410 C418 0.929 . S
H411 C420 0.930 . S
H412 C422 0.930 . S
H413 C425 0.929 . S
H414 C428 0.930 1_655 S
H415 C430 0.960 . S
H416 C430 0.952 1_655 S
H417 C430 0.960 . S
C418 H410 0.929 . S
C418 C419 1.377 1_655 S
C418 C420 1.384 . S
C419 C418 1.377 1_455 S
C419 C425 1.390 . S
C420 H411 0.930 . S
C420 C418 1.384 . S
C420 C421 1.372 1_655 S
C421 C420 1.372 1_455 S
C421 C422 1.400 . S
C421 C426 1.490 . S
C422 H412 0.930 . S
C422 C421 1.400 . S
C422 C425 1.386 . S
H423 C439 0.930 . S
H424 C440 0.931 . S
C425 H413 0.929 . S
C425 C419 1.390 . S
C425 C422 1.386 . S
C426 C421 1.490 . S
C426 C428 1.395 . S
C426 C429 1.403 1_545 S
H427 C433 0.930 1_565 S
C428 H414 0.930 1_455 S
C428 C426 1.395 . S
C428 C431 1.403 1_455 S
C429 C426 1.403 1_565 S
C429 C430 1.524 . S
C429 C433 1.400 1_565 S
C430 H415 0.960 . S
C430 H416 0.952 1_455 S
C430 H417 0.960 . S
C430 C429 1.524 . S
C431 C428 1.403 1_655 S
C431 C432 1.392 1_655 S
C431 C435 1.495 . S
C432 C431 1.392 1_455 S
C432 C433 1.385 . S
C432 C434 1.478 . S
C433 H427 0.930 1_545 S
C433 C429 1.400 1_545 S
C433 C432 1.385 . S
C434 C432 1.478 . S
C434 C436 1.381 1_455 S
C434 C440 1.383 . S
C435 C431 1.495 . S
C435 H441 0.959 . S
C435 H442 0.961 1_655 S
C435 H443 0.960 . S
C436 C434 1.381 1_655 S
C436 C437 1.394 . S
C436 H444 0.930 . S
C437 C436 1.394 . S
C437 C438 1.383 . S
C437 H445 0.929 . S
C438 C437 1.383 . S
C438 C439 1.377 1_655 S
C439 H423 0.930 . S
C439 C438 1.377 1_455 S
C439 C440 1.379 . S
C440 H424 0.931 . S
C440 C434 1.383 . S
C440 C439 1.379 . S
H441 C435 0.959 . S
H442 C435 0.961 1_455 S
H443 C435 0.960 . S
H444 C436 0.930 . S
H445 C437 0.929 . S
H446 C454 0.929 . S
H447 C456 0.930 . S
H448 C458 0.930 . S
H449 C461 0.929 . S
H450 C464 0.930 . S
H451 C466 0.960 . S
H452 C466 0.960 . S
H453 C466 0.960 . S
C454 H446 0.929 . S
C454 C455 1.377 . S
C454 C456 1.384 . S
C455 C454 1.377 . S
C455 C461 1.390 . S
C456 H447 0.930 . S
C456 C454 1.384 . S
C456 C457 1.372 . S
C457 C456 1.372 . S
C457 C458 1.400 . S
C457 C462 1.490 . S
C458 H448 0.930 . S
C458 C457 1.400 . S
C458 C461 1.386 . S
H459 C475 0.930 . S
H460 C476 0.931 . S
C461 H449 0.929 . S
C461 C455 1.390 . S
C461 C458 1.386 . S
C462 C457 1.490 . S
C462 C464 1.395 . S
C462 C465 1.403 . S
H463 C469 0.930 . S
C464 H450 0.930 . S
C464 C462 1.395 . S
C464 C467 1.403 . S
C465 C462 1.403 . S
C465 C466 1.524 . S
C465 C469 1.400 . S
C466 H451 0.960 . S
C466 H452 0.960 . S
C466 H453 0.960 . S
C466 C465 1.524 . S
C467 C464 1.403 . S
C467 C468 1.392 . S
C467 C471 1.495 . S
C468 C467 1.392 . S
C468 C469 1.385 . S
C468 C470 1.478 . S
C469 H463 0.930 . S
C469 C465 1.400 . S
C469 C468 1.385 . S
C470 C468 1.478 . S
C470 C472 1.381 . S
C470 C476 1.383 . S
C471 C467 1.495 . S
C471 H477 0.959 . S
C471 H478 0.961 . S
C471 H479 0.960 . S
C472 C470 1.381 . S
C472 C473 1.394 . S
C472 H480 0.930 . S
C473 C472 1.394 . S
C473 C474 1.383 . S
C473 H481 0.929 . S
C474 C473 1.383 . S
C474 C475 1.377 . S
C475 H459 0.930 . S
C475 C474 1.377 . S
C475 C476 1.379 . S
C476 H460 0.931 . S
C476 C470 1.383 . S
C476 C475 1.379 . S
H477 C471 0.959 . S
H478 C471 0.961 . S
H479 C471 0.960 . S
H480 C472 0.930 . S
H481 C473 0.929 . S
H482 C490 0.929 . S
H483 C492 0.930 . S
H484 C494 0.930 . S
H485 C497 0.929 . S
H486 C500 0.930 . S
H487 C502 0.960 . S
H488 C502 0.960 . S
H489 C502 0.960 . S
C490 H482 0.929 . S
C490 C491 1.377 . S
C490 C492 1.384 . S
C491 C490 1.377 . S
C491 C497 1.390 . S
C492 H483 0.930 . S
C492 C490 1.384 . S
C492 C493 1.372 . S
C493 C492 1.372 . S
C493 C494 1.400 . S
C493 C498 1.490 . S
C494 H484 0.930 . S
C494 C493 1.400 . S
C494 C497 1.386 . S
H495 C511 0.930 . S
H496 C512 0.931 . S
C497 H485 0.929 . S
C497 C491 1.390 . S
C497 C494 1.386 . S
C498 C493 1.490 . S
C498 C500 1.395 . S
C498 C501 1.403 . S
H499 C505 0.930 . S
C500 H486 0.930 . S
C500 C498 1.395 . S
C500 C503 1.403 . S
C501 C498 1.403 . S
C501 C502 1.524 . S
C501 C505 1.400 . S
C502 H487 0.960 . S
C502 H488 0.960 . S
C502 H489 0.960 . S
C502 C501 1.524 . S
C503 C500 1.403 . S
C503 C504 1.392 . S
C503 C507 1.495 . S
C504 C503 1.392 . S
C504 C505 1.385 . S
C504 C506 1.478 . S
C505 H499 0.930 . S
C505 C501 1.400 . S
C505 C504 1.385 . S
C506 C504 1.478 . S
C506 C508 1.381 . S
C506 C512 1.383 . S
C507 C503 1.495 . S
C507 H513 0.959 . S
C507 H514 0.961 . S
C507 H515 0.960 . S
C508 C506 1.381 . S
C508 C509 1.394 . S
C508 H516 0.930 . S
C509 C508 1.394 . S
C509 C510 1.383 . S
C509 H517 0.929 . S
C510 C509 1.383 . S
C510 C511 1.377 . S
C511 H495 0.930 . S
C511 C510 1.377 . S
C511 C512 1.379 . S
C512 H496 0.931 . S
C512 C506 1.383 . S
C512 C511 1.379 . S
H513 C507 0.959 . S
H514 C507 0.961 . S
H515 C507 0.960 . S
H516 C508 0.930 . S
H517 C509 0.929 . S
C114 C80 1.122 . S
C95 C16 1.242 . S
C131 C15 1.465 1_556 S
C150 C69 1.306 . S
C167 C13 1.279 1_554 S
C186 C83 1.426 . S
C203 C14 1.310 . S
C222 C72 1.363 . S
C239 C37 1.249 . S
C258 C58 1.165 . S
C275 C36 1.472 . S
C294 C47 1.208 . S
C330 C61 1.390 . S
C311 C34 1.262 . S
C366 C50 1.336 . S
C347 C35 1.325 . S
C383 C17 1.526 . S
C402 C49 1.539 . S
C419 C18 1.365 . S
C438 C60 1.366 1_655 S
C474 C71 1.502 . S
C455 C38 1.530 . S
C491 C39 1.366 . S
C510 C82 1.374 . S
