# Generated by pormake.
# Topology bcu-b, (8,8)-cn, num edge types: 1
# Building blocks:
#     Node 0, Type 0, BuildingBlock: VETTIZ_charged_sbu_0, # of connection points: 8
#     Node 1, Type 1, BuildingBlock: TAGTUT_clean_sbu_1, # of connection points: 8
#     Edge 2, Type (0, 1), BuildingBlock: XUDNAN_clean_linker_2, # of connection points: 2
#     Edge 3, Type (0, 1), BuildingBlock: XUDNAN_clean_linker_2, # of connection points: 2
#     Edge 4, Type (0, 1), BuildingBlock: XUDNAN_clean_linker_2, # of connection points: 2
#     Edge 5, Type (0, 1), BuildingBlock: XUDNAN_clean_linker_2, # of connection points: 2
#     Edge 6, Type (0, 1), BuildingBlock: XUDNAN_clean_linker_2, # of connection points: 2
#     Edge 7, Type (0, 1), BuildingBlock: XUDNAN_clean_linker_2, # of connection points: 2
#     Edge 8, Type (0, 1), BuildingBlock: XUDNAN_clean_linker_2, # of connection points: 2
#     Edge 9, Type (0, 1), BuildingBlock: XUDNAN_clean_linker_2, # of connection points: 2
# Relax obj value: 0.027
# Max RMSD: 0.119
# Mean RMSD: 0.086
data_MOF--net-bcu-b--node1-VETTIZ_charged_sbu_0--node2-TAGTUT_clean_sbu_1--edge1-XUDNAN_clean_linker_2
_symmetry_space_group_name_H-M    P1
_symmetry_Int_Tables_number       1
_symmetry_cell_setting            triclinic
loop_
_symmetry_equiv_pos_as_xyz
'x, y, z'
_cell_length_a     19.96092
_cell_length_b     19.139561
_cell_length_c     20.786198
_cell_angle_alpha  89.838792
_cell_angle_beta   91.236388
_cell_angle_gamma 100.42822
loop_
_atom_site_label
_atom_site_type_symbol
_atom_site_fract_x
_atom_site_fract_y
_atom_site_fract_z
_atom_type_partial_charge
Fe0 Fe 0.02991 0.85129 -0.00277 0.0
O1 O 0.04202 0.95535 0.99203 0.0
Fe2 Fe 0.98798 0.99981 0.9192 0.0
Fe3 Fe 0.02296 0.01532 0.06535 0.0
O4 O 0.03947 0.95415 0.98599 0.0
O5 O 0.96903 0.06036 0.99264 0.0
O6 O 0.97145 0.06145 -0.00105 0.0
Fe7 Fe 0.98437 0.16523 0.98912 0.0
C8 C 0.92934 0.88015 0.09881 0.0
O9 O 0.1133 0.87536 0.05711 0.0
O10 O 0.08274 0.95905 0.12507 0.0
O11 O 0.0449 0.17363 0.90899 0.0
O12 O 0.0769 0.06864 0.89916 0.0
O13 O 0.01661 0.93055 0.85095 0.0
O14 O 0.07867 0.86063 0.91028 0.0
O15 O 0.11069 0.08633 0.04835 0.0
O16 O 0.06959 0.18592 0.04864 0.0
C17 C 0.05907 0.88639 0.8565 0.0
O18 O 0.90312 0.14412 0.92578 0.0
O19 O 0.92954 0.05682 0.85918 0.0
O20 O 0.97214 0.84311 0.07971 0.0
O21 O 0.93497 0.94567 0.08537 0.0
C22 C 0.11978 0.91197 0.10991 0.0
C23 C 0.11647 0.1515 0.06312 0.0
C24 C 0.95087 0.12856 0.12801 0.0
O25 O 0.99337 0.08435 0.13383 0.0
O26 O 0.93237 0.155 0.07409 0.0
C27 C 0.08478 0.13474 0.88737 0.0
O28 O 0.899 0.92814 0.93387 0.0
O29 O 0.94226 0.82887 0.94323 0.0
C30 C 0.89508 0.10644 0.87351 0.0
C31 C 0.89334 0.86083 0.92965 0.0
C32 C 0.31733 0.66111 0.55228 0.0
C33 C 0.41952 0.68024 0.37675 0.0
C34 C 0.40934 0.39076 0.40114 0.0
Mg35 Mg 0.4682 0.66823 0.51596 0.0
O36 O 0.43908 0.5702 0.51619 0.0
Mg37 Mg 0.35814 0.53006 0.46075 0.0
Mg38 Mg 0.50444 0.50868 0.4919 0.0
O39 O 0.57034 0.4474 0.4679 0.0
Mg40 Mg 0.54345 0.34941 0.46713 0.0
Mg41 Mg 0.65119 0.48772 0.52351 0.0
C42 C 0.59722 0.62421 0.58875 0.0
C43 C 0.62929 0.60302 0.41246 0.0
O44 O 0.29925 0.60537 0.517 0.0
O45 O 0.37962 0.69145 0.56036 0.0
O46 O 0.3814 0.61948 0.3847 0.0
O47 O 0.46351 0.70708 0.41947 0.0
O48 O 0.56244 0.67184 0.5717 0.0
O49 O 0.58086 0.55908 0.57007 0.0
C50 C 0.37966 0.4143 0.57143 0.0
O51 O 0.44438 0.42678 0.56282 0.0
O52 O 0.33925 0.44618 0.53862 0.0
O53 O 0.71116 0.41356 0.46644 0.0
O54 O 0.63147 0.32864 0.42048 0.0
O55 O 0.6297 0.39796 0.59956 0.0
C56 C 0.6936 0.35899 0.42956 0.0
O57 O 0.55029 0.30899 0.56279 0.0
O58 O 0.44606 0.34464 0.41741 0.0
C59 C 0.59316 0.33615 0.60626 0.0
O60 O 0.42684 0.4573 0.41468 0.0
O61 O 0.56451 0.59051 0.42072 0.0
O62 O 0.66953 0.57161 0.44588 0.0
H63 H 0.19856 0.28282 0.07867 0.0
H64 H 0.12773 0.08265 0.17497 0.0
H65 H 0.1794 0.13299 0.27681 0.0
H66 H 0.3625 0.317 0.16279 0.0
H67 H 0.36636 0.41176 0.16609 0.0
H68 H 0.31994 0.36079 0.10153 0.0
H69 H 0.21274 0.41187 0.13083 0.0
H70 H 0.2585 0.46114 0.1969 0.0
H71 H 0.18027 0.40008 0.21116 0.0
H72 H 0.23396 0.20361 0.36796 0.0
H73 H 0.31654 0.27983 0.43883 0.0
H74 H 0.36187 0.43357 0.28513 0.0
C75 C 0.19517 0.24956 0.12113 0.0
C76 C 0.16007 0.17845 0.1189 0.0
C77 C 0.15591 0.13648 0.17526 0.0
C78 C 0.18384 0.16514 0.23367 0.0
C79 C 0.21653 0.23577 0.23483 0.0
C80 C 0.22456 0.27693 0.17988 0.0
C81 C 0.26821 0.34911 0.19392 0.0
C82 C 0.33311 0.36029 0.15373 0.0
C83 C 0.22748 0.40909 0.18251 0.0
C84 C 0.28426 0.34127 0.26508 0.0
C85 C 0.25163 0.27622 0.28779 0.0
C86 C 0.25984 0.2547 0.35095 0.0
C87 C 0.30635 0.29856 0.39097 0.0
C88 C 0.34482 0.3625 0.36739 0.0
C89 C 0.33159 0.38583 0.30463 0.0
H90 H 0.82244 0.14972 0.14388 0.0
H91 H 0.01855 0.16844 0.24213 0.0
H92 H 0.97499 0.23036 0.33293 0.0
H93 H 0.78914 0.31622 0.18372 0.0
H94 H 0.69907 0.28681 0.19433 0.0
H95 H 0.74446 0.2397 0.1404 0.0
H96 H 0.70367 0.12219 0.2021 0.0
H97 H 0.65704 0.16868 0.25556 0.0
H98 H 0.71868 0.11905 0.28781 0.0
H99 H 0.9107 0.3017 0.40766 0.0
H100 H 0.82819 0.36109 0.46478 0.0
H101 H 0.67588 0.28953 0.31586 0.0
C102 C 0.85581 0.16575 0.18509 0.0
C103 C 0.92352 0.15452 0.18652 0.0
C104 C 0.96606 0.17604 0.2409 0.0
C105 C 0.94193 0.21164 0.29224 0.0
C106 C 0.87508 0.2239 0.28837 0.0
C107 C 0.83241 0.20016 0.23658 0.0
C108 C 0.76321 0.22019 0.24273 0.0
C109 C 0.74815 0.26861 0.18699 0.0
C110 C 0.70737 0.15356 0.24736 0.0
C111 C 0.77357 0.2601 0.30559 0.0
C112 C 0.83833 0.2624 0.33137 0.0
C113 C 0.85959 0.29933 0.38825 0.0
C114 C 0.81276 0.33331 0.42006 0.0
C115 C 0.74567 0.32922 0.39493 0.0
C116 C 0.72654 0.29269 0.33676 0.0
H117 H 0.92296 0.76003 0.17189 0.0
H118 H 0.80929 0.92595 0.12132 0.0
H119 H 0.71672 0.87132 0.19284 0.0
H120 H 0.77978 0.61545 0.18407 0.0
H121 H 0.81609 0.57629 0.25237 0.0
H122 H 0.871 0.62657 0.19448 0.0
H123 H 0.9314 0.70815 0.2857 0.0
H124 H 0.87671 0.65815 0.34382 0.0
H125 H 0.88142 0.75286 0.33757 0.0
H126 H 0.63546 0.79619 0.27111 0.0
H127 H 0.57862 0.7133 0.35363 0.0
H128 H 0.74996 0.60246 0.35482 0.0
C129 C 0.87831 0.78452 0.17524 0.0
C130 C 0.87313 0.84691 0.14059 0.0
C131 C 0.81433 0.87801 0.14736 0.0
C132 C 0.76138 0.84725 0.18771 0.0
C133 C 0.76828 0.78579 0.22145 0.0
C134 C 0.82564 0.75523 0.21589 0.0
C135 C 0.82265 0.6915 0.25952 0.0
C136 C 0.82234 0.62343 0.22025 0.0
C137 C 0.88153 0.70342 0.30962 0.0
C138 C 0.75474 0.69085 0.29059 0.0
C139 C 0.72348 0.74496 0.26773 0.0
C140 C 0.65974 0.75382 0.28948 0.0
C141 C 0.62769 0.70648 0.33623 0.0
C142 C 0.66002 0.6519 0.36125 0.0
C143 C 0.72411 0.64418 0.33745 0.0
H144 H 0.14116 0.78024 0.13767 0.0
H145 H 0.21528 1.00177 0.18387 0.0
H146 H 0.31109 0.96728 0.2476 0.0
H147 H 0.17931 0.71008 0.29151 0.0
H148 H 0.20121 0.63108 0.25704 0.0
H149 H 0.14063 0.67562 0.21622 0.0
H150 H 0.21429 0.68464 0.11411 0.0
H151 H 0.27612 0.64202 0.15556 0.0
H152 H 0.30232 0.72794 0.11912 0.0
H153 H 0.40043 0.90594 0.30416 0.0
H154 H 0.46178 0.82455 0.36403 0.0
H155 H 0.32666 0.64402 0.27823 0.0
C156 C 0.17737 0.8216 0.16153 0.0
C157 C 0.17112 0.89367 0.156 0.0
C158 C 0.21889 0.94622 0.18826 0.0
C159 C 0.27384 0.92708 0.22367 0.0
C160 C 0.27967 0.85534 0.22622 0.0
C161 C 0.23174 0.80348 0.19689 0.0
C162 C 0.24683 0.72989 0.20888 0.0
C163 C 0.18857 0.684 0.24562 0.0
C164 C 0.26072 0.69405 0.14564 0.0
C165 C 0.31079 0.74791 0.25013 0.0
C166 C 0.32974 0.82049 0.25892 0.0
C167 C 0.38592 0.8491 0.29751 0.0
C168 C 0.42095 0.80226 0.33088 0.0
C169 C 0.39899 0.72757 0.32619 0.0
C170 C 0.34519 0.70062 0.28275 0.0
H171 H 0.18886 0.87146 0.83761 0.0
H172 H 0.98929 0.84161 0.74474 0.0
H173 H 0.03322 0.78136 0.6531 0.0
H174 H 0.28702 0.90538 0.68961 0.0
H175 H 0.35273 0.86019 0.72038 0.0
H176 H 0.30546 0.90478 0.77487 0.0
H177 H 0.27245 0.78762 0.83911 0.0
H178 H 0.3186 0.74241 0.78432 0.0
H179 H 0.22976 0.70865 0.79799 0.0
H180 H 0.0983 0.71205 0.57785 0.0
H181 H 0.18139 0.65427 0.51999 0.0
H182 H 0.33707 0.73673 0.66286 0.0
C183 C 0.15479 0.85333 0.79736 0.0
C184 C 0.08603 0.86084 0.79769 0.0
C185 C 0.04253 0.83674 0.74457 0.0
C186 C 0.06691 0.80217 0.69275 0.0
C187 C 0.13495 0.79372 0.69477 0.0
C188 C 0.17846 0.82011 0.74524 0.0
C189 C 0.2489 0.80385 0.73715 0.0
C190 C 0.30163 0.87264 0.73005 0.0
C191 C 0.26852 0.7579 0.79294 0.0
C192 C 0.23817 0.76259 0.67499 0.0
C193 C 0.17225 0.7567 0.65109 0.0
C194 C 0.15033 0.71735 0.59564 0.0
C195 C 0.19755 0.68435 0.56341 0.0
C196 C 0.26566 0.69176 0.58667 0.0
C197 C 0.28563 0.73111 0.64326 0.0
H198 H 0.08875 0.25279 0.81276 0.0
H199 H 0.20488 0.08905 0.86351 0.0
H200 H 0.29621 0.14392 0.79045 0.0
H201 H 0.12886 0.25826 0.64603 0.0
H202 H 0.13167 0.35263 0.63916 0.0
H203 H 0.07802 0.3021 0.69775 0.0
H204 H 0.13736 0.38543 0.78828 0.0
H205 H 0.19122 0.43622 0.72995 0.0
H206 H 0.22872 0.39853 0.79841 0.0
H207 H 0.37652 0.22054 0.71162 0.0
H208 H 0.43218 0.30479 0.62947 0.0
H209 H 0.25812 0.41163 0.62847 0.0
C210 C 0.13368 0.22879 0.8091 0.0
C211 C 0.14011 0.16717 0.84438 0.0
C212 C 0.19905 0.13649 0.83704 0.0
C213 C 0.25122 0.16738 0.79582 0.0
C214 C 0.24318 0.22831 0.76166 0.0
C215 C 0.18538 0.25805 0.76752 0.0
C216 C 0.18692 0.32126 0.72355 0.0
C217 C 0.12788 0.30771 0.67367 0.0
C218 C 0.18603 0.38938 0.76239 0.0
C219 C 0.25485 0.32307 0.69228 0.0
C220 C 0.28717 0.26965 0.71501 0.0
C221 C 0.35133 0.26226 0.69329 0.0
C222 C 0.38269 0.31039 0.64677 0.0
C223 C 0.34932 0.36434 0.62202 0.0
C224 C 0.28478 0.37046 0.64565 0.0
H225 H 0.86986 0.23796 0.84903 0.0
H226 H 0.80338 0.01721 0.79553 0.0
H227 H 0.70746 0.05061 0.73126 0.0
H228 H 0.70589 0.28511 0.8649 0.0
H229 H 0.73115 0.3723 0.83065 0.0
H230 H 0.79309 0.33042 0.87277 0.0
H231 H 0.86991 0.34428 0.77272 0.0
H232 H 0.80915 0.38799 0.73116 0.0
H233 H 0.83424 0.31094 0.69599 0.0
H234 H 0.61698 0.11047 0.6752 0.0
H235 H 0.55456 0.19119 0.61582 0.0
H236 H 0.68395 0.37242 0.70665 0.0
C237 C 0.83518 0.19648 0.8237 0.0
C238 C 0.84344 0.12483 0.82761 0.0
C239 C 0.79788 0.07234 0.79295 0.0
C240 C 0.74295 0.09085 0.75707 0.0
C241 C 0.73505 0.16202 0.7562 0.0
C242 C 0.781 0.21404 0.78761 0.0
C243 C 0.76437 0.28719 0.77653 0.0
C244 C 0.74763 0.32069 0.84 0.0
C245 C 0.82286 0.33541 0.74203 0.0
C246 C 0.70179 0.26873 0.73346 0.0
C247 C 0.68481 0.19624 0.72307 0.0
C248 C 0.63001 0.16724 0.68303 0.0
C249 C 0.59435 0.2137 0.64993 0.0
C250 C 0.61441 0.2885 0.65622 0.0
C251 C 0.66689 0.31572 0.7009 0.0
H252 H 0.82273 0.90046 0.82589 0.0
H253 H 0.83791 0.72307 0.952 0.0
H254 H 0.76754 0.64123 0.87527 0.0
H255 H 0.64454 0.83228 0.76605 0.0
H256 H 0.66431 0.86724 0.68671 0.0
H257 H 0.70798 0.91127 0.75618 0.0
H258 H 0.82292 0.90155 0.70452 0.0
H259 H 0.77966 0.8543 0.63639 0.0
H260 H 0.84018 0.81527 0.68356 0.0
H261 H 0.70814 0.57701 0.77878 0.0
H262 H 0.64306 0.53777 0.67866 0.0
H263 H 0.66679 0.7573 0.61603 0.0
C264 C 0.80837 0.84503 0.83871 0.0
C265 C 0.83487 0.81814 0.8951 0.0
C266 C 0.81737 0.74467 0.90919 0.0
C267 C 0.77805 0.69772 0.86567 0.0
C268 C 0.75631 0.72522 0.80849 0.0
C269 C 0.76916 0.79736 0.79567 0.0
C270 C 0.7419 0.81279 0.72968 0.0
C271 C 0.68636 0.85857 0.73498 0.0
C272 C 0.79963 0.84805 0.68599 0.0
C273 C 0.71245 0.73809 0.70729 0.0
C274 C 0.72185 0.68822 0.75311 0.0
C275 C 0.69971 0.61561 0.74276 0.0
C276 C 0.66366 0.5937 0.6854 0.0
C277 C 0.64977 0.64445 0.6397 0.0
C278 C 0.67656 0.71724 0.65013 0.0
loop_
_geom_bond_atom_site_label_1
_geom_bond_atom_site_label_2
_geom_bond_distance
_geom_bond_site_symmetry_2
_ccdc_geom_bond_type
Fe0 O1 1.895 . S
Fe0 O4 1.706 1_554 S
Fe0 O9 2.085 1_655 S
Fe0 O14 1.928 1_654 S
Fe0 O20 2.086 . S
Fe0 O29 1.928 1_554 S
O1 Fe0 1.895 . S
O1 Fe3 1.715 1_665 S
Fe2 O4 1.886 . S
Fe2 O5 1.715 1_665 S
Fe2 O12 1.935 1_665 S
Fe2 O13 2.077 1_655 S
Fe2 O19 1.935 1_565 S
Fe2 O28 2.077 . S
Fe3 O1 1.715 1_445 S
Fe3 O6 1.886 . S
Fe3 O10 1.935 1_545 S
Fe3 O15 2.077 . S
Fe3 O21 1.935 1_445 S
Fe3 O25 2.077 1_455 S
O4 Fe0 1.706 1_556 S
O4 Fe2 1.886 . S
O5 Fe2 1.715 1_445 S
O5 Fe7 1.892 . S
O6 Fe3 1.886 . S
O6 Fe7 1.709 1_554 S
Fe7 O5 1.892 . S
Fe7 O6 1.709 1_556 S
Fe7 O11 2.083 . S
Fe7 O16 1.931 1_556 S
Fe7 O18 2.083 1_455 S
Fe7 O26 1.930 1_456 S
C8 O20 1.381 . S
C8 O21 1.421 . S
O9 Fe0 2.085 1_455 S
O9 C22 1.381 . S
O10 Fe3 1.935 1_565 S
O10 C22 1.421 . S
O11 Fe7 2.083 . S
O11 C27 1.381 . S
O12 Fe2 1.935 1_445 S
O12 C27 1.421 . S
O13 Fe2 2.077 1_455 S
O13 C17 1.381 . S
O14 Fe0 1.928 1_456 S
O14 C17 1.421 . S
O15 Fe3 2.077 . S
O15 C23 1.381 . S
O16 Fe7 1.931 1_554 S
O16 C23 1.421 . S
C17 O13 1.381 . S
C17 O14 1.421 . S
O18 Fe7 2.083 1_655 S
O18 C30 1.381 . S
O19 Fe2 1.935 1_545 S
O19 C30 1.421 . S
O20 Fe0 2.086 . S
O20 C8 1.381 . S
O21 Fe3 1.935 1_665 S
O21 C8 1.421 . S
C22 O9 1.381 . S
C22 O10 1.421 . S
C23 O15 1.381 . S
C23 O16 1.421 . S
C24 O25 1.381 . S
C24 O26 1.421 . S
O25 Fe3 2.077 1_655 S
O25 C24 1.381 . S
O26 Fe7 1.930 1_654 S
O26 C24 1.421 . S
C27 O11 1.381 . S
C27 O12 1.421 . S
O28 Fe2 2.077 . S
O28 C31 1.381 . S
O29 Fe0 1.928 1_556 S
O29 C31 1.421 . S
C30 O18 1.381 . S
C30 O19 1.421 . S
C31 O28 1.381 . S
C31 O29 1.421 . S
C32 O44 1.241 . S
C32 O45 1.280 . S
C33 O46 1.277 . S
C33 O47 1.245 . S
C34 O58 1.247 . S
C34 O60 1.289 . S
Mg35 O36 1.926 . S
Mg35 O45 1.984 . S
Mg35 O47 1.988 . S
Mg35 O48 2.061 . S
O36 Mg35 1.926 . S
O36 Mg37 1.986 . S
O36 Mg38 1.917 . S
Mg37 O36 1.986 . S
Mg37 O44 2.042 . S
Mg37 O46 2.041 . S
Mg37 O52 2.038 . S
Mg37 O60 2.238 . S
Mg38 O36 1.917 . S
Mg38 O39 1.917 . S
Mg38 O49 2.106 . S
Mg38 O51 2.079 . S
Mg38 O60 2.106 . S
Mg38 O61 2.079 . S
O39 Mg38 1.917 . S
O39 Mg40 1.926 . S
O39 Mg41 1.986 . S
Mg40 O39 1.926 . S
Mg40 O54 1.984 . S
Mg40 O57 1.988 . S
Mg40 O58 2.061 . S
Mg41 O39 1.986 . S
Mg41 O49 2.238 . S
Mg41 O53 2.042 . S
Mg41 O55 2.041 . S
Mg41 O62 2.038 . S
C42 O48 1.247 . S
C42 O49 1.289 . S
C43 O61 1.245 . S
C43 O62 1.274 . S
O44 C32 1.241 . S
O44 Mg37 2.042 . S
O45 C32 1.280 . S
O45 Mg35 1.984 . S
O46 C33 1.277 . S
O46 Mg37 2.041 . S
O47 C33 1.245 . S
O47 Mg35 1.988 . S
O48 Mg35 2.061 . S
O48 C42 1.247 . S
O49 Mg38 2.106 . S
O49 Mg41 2.238 . S
O49 C42 1.289 . S
C50 O51 1.245 . S
C50 O52 1.274 . S
O51 Mg38 2.079 . S
O51 C50 1.245 . S
O52 Mg37 2.038 . S
O52 C50 1.274 . S
O53 Mg41 2.042 . S
O53 C56 1.241 . S
O54 Mg40 1.984 . S
O54 C56 1.280 . S
O55 Mg41 2.041 . S
O55 C59 1.277 . S
C56 O53 1.241 . S
C56 O54 1.280 . S
O57 Mg40 1.988 . S
O57 C59 1.245 . S
O58 C34 1.247 . S
O58 Mg40 2.061 . S
C59 O55 1.277 . S
C59 O57 1.245 . S
O60 C34 1.289 . S
O60 Mg37 2.238 . S
O60 Mg38 2.106 . S
O61 Mg38 2.079 . S
O61 C43 1.245 . S
O62 Mg41 2.038 . S
O62 C43 1.274 . S
H63 C75 0.930 . S
H64 C77 0.930 . S
H65 C78 0.930 . S
H66 C82 0.959 . S
H67 C82 0.959 . S
H68 C82 0.961 . S
H69 C83 0.960 . S
H70 C83 0.961 . S
H71 C83 0.959 . S
H72 C86 0.929 . S
H73 C87 0.931 . S
H74 C89 0.930 . S
C75 H63 0.930 . S
C75 C76 1.399 . S
C75 C80 1.399 . S
C76 C75 1.399 . S
C76 C77 1.376 . S
C77 H64 0.930 . S
C77 C76 1.376 . S
C77 C78 1.388 . S
C78 H65 0.930 . S
C78 C77 1.388 . S
C78 C79 1.390 . S
C79 C78 1.390 . S
C79 C80 1.394 . S
C79 C85 1.465 . S
C80 C75 1.399 . S
C80 C79 1.394 . S
C80 C81 1.516 . S
C81 C80 1.516 . S
C81 C82 1.502 . S
C81 C83 1.561 . S
C81 C84 1.526 . S
C82 H66 0.959 . S
C82 H67 0.959 . S
C82 H68 0.961 . S
C82 C81 1.502 . S
C83 H69 0.960 . S
C83 H70 0.961 . S
C83 H71 0.959 . S
C83 C81 1.561 . S
C84 C81 1.526 . S
C84 C85 1.396 . S
C84 C89 1.390 . S
C85 C79 1.465 . S
C85 C84 1.396 . S
C85 C86 1.399 . S
C86 H72 0.929 . S
C86 C85 1.399 . S
C86 C87 1.385 . S
C87 H73 0.931 . S
C87 C86 1.385 . S
C87 C88 1.389 . S
C88 C87 1.389 . S
C88 C89 1.387 . S
C89 H74 0.930 . S
C89 C84 1.390 . S
C89 C88 1.387 . S
H90 C102 0.930 . S
H91 C104 0.930 . S
H92 C105 0.930 . S
H93 C109 0.959 . S
H94 C109 0.959 . S
H95 C109 0.961 . S
H96 C110 0.960 . S
H97 C110 0.961 . S
H98 C110 0.959 . S
H99 C113 0.929 . S
H100 C114 0.931 . S
H101 C116 0.930 . S
C102 H90 0.930 . S
C102 C103 1.399 . S
C102 C107 1.399 . S
C103 C102 1.399 . S
C103 C104 1.376 . S
C104 H91 0.930 . S
C104 C103 1.376 . S
C104 C105 1.388 . S
C105 H92 0.930 . S
C105 C104 1.388 . S
C105 C106 1.390 . S
C106 C105 1.390 . S
C106 C107 1.394 . S
C106 C112 1.465 . S
C107 C102 1.399 . S
C107 C106 1.394 . S
C107 C108 1.516 . S
C108 C107 1.516 . S
C108 C109 1.502 . S
C108 C110 1.561 . S
C108 C111 1.526 . S
C109 H93 0.959 . S
C109 H94 0.959 . S
C109 H95 0.961 . S
C109 C108 1.502 . S
C110 H96 0.960 . S
C110 H97 0.961 . S
C110 H98 0.959 . S
C110 C108 1.561 . S
C111 C108 1.526 . S
C111 C112 1.396 . S
C111 C116 1.390 . S
C112 C106 1.465 . S
C112 C111 1.396 . S
C112 C113 1.399 . S
C113 H99 0.929 . S
C113 C112 1.399 . S
C113 C114 1.385 . S
C114 H100 0.931 . S
C114 C113 1.385 . S
C114 C115 1.389 . S
C115 C114 1.389 . S
C115 C116 1.387 . S
C116 H101 0.930 . S
C116 C111 1.390 . S
C116 C115 1.387 . S
H117 C129 0.930 . S
H118 C131 0.930 . S
H119 C132 0.930 . S
H120 C136 0.959 . S
H121 C136 0.959 . S
H122 C136 0.961 . S
H123 C137 0.960 . S
H124 C137 0.961 . S
H125 C137 0.959 . S
H126 C140 0.929 . S
H127 C141 0.931 . S
H128 C143 0.930 . S
C129 H117 0.930 . S
C129 C130 1.399 . S
C129 C134 1.399 . S
C130 C129 1.399 . S
C130 C131 1.376 . S
C131 H118 0.930 . S
C131 C130 1.376 . S
C131 C132 1.388 . S
C132 H119 0.930 . S
C132 C131 1.388 . S
C132 C133 1.390 . S
C133 C132 1.390 . S
C133 C134 1.394 . S
C133 C139 1.465 . S
C134 C129 1.399 . S
C134 C133 1.394 . S
C134 C135 1.516 . S
C135 C134 1.516 . S
C135 C136 1.502 . S
C135 C137 1.561 . S
C135 C138 1.526 . S
C136 H120 0.959 . S
C136 H121 0.959 . S
C136 H122 0.961 . S
C136 C135 1.502 . S
C137 H123 0.960 . S
C137 H124 0.961 . S
C137 H125 0.959 . S
C137 C135 1.561 . S
C138 C135 1.526 . S
C138 C139 1.396 . S
C138 C143 1.390 . S
C139 C133 1.465 . S
C139 C138 1.396 . S
C139 C140 1.399 . S
C140 H126 0.929 . S
C140 C139 1.399 . S
C140 C141 1.385 . S
C141 H127 0.931 . S
C141 C140 1.385 . S
C141 C142 1.389 . S
C142 C141 1.389 . S
C142 C143 1.387 . S
C143 H128 0.930 . S
C143 C138 1.390 . S
C143 C142 1.387 . S
H144 C156 0.930 . S
H145 C158 0.930 . S
H146 C159 0.930 . S
H147 C163 0.959 . S
H148 C163 0.959 . S
H149 C163 0.961 . S
H150 C164 0.960 . S
H151 C164 0.961 . S
H152 C164 0.959 . S
H153 C167 0.929 . S
H154 C168 0.931 . S
H155 C170 0.930 . S
C156 H144 0.930 . S
C156 C157 1.399 . S
C156 C161 1.399 . S
C157 C156 1.399 . S
C157 C158 1.376 . S
C158 H145 0.930 . S
C158 C157 1.376 . S
C158 C159 1.388 . S
C159 H146 0.930 . S
C159 C158 1.388 . S
C159 C160 1.390 . S
C160 C159 1.390 . S
C160 C161 1.394 . S
C160 C166 1.465 . S
C161 C156 1.399 . S
C161 C160 1.394 . S
C161 C162 1.516 . S
C162 C161 1.516 . S
C162 C163 1.502 . S
C162 C164 1.561 . S
C162 C165 1.526 . S
C163 H147 0.959 . S
C163 H148 0.959 . S
C163 H149 0.961 . S
C163 C162 1.502 . S
C164 H150 0.960 . S
C164 H151 0.961 . S
C164 H152 0.959 . S
C164 C162 1.561 . S
C165 C162 1.526 . S
C165 C166 1.396 . S
C165 C170 1.390 . S
C166 C160 1.465 . S
C166 C165 1.396 . S
C166 C167 1.399 . S
C167 H153 0.929 . S
C167 C166 1.399 . S
C167 C168 1.385 . S
C168 H154 0.931 . S
C168 C167 1.385 . S
C168 C169 1.389 . S
C169 C168 1.389 . S
C169 C170 1.387 . S
C170 H155 0.930 . S
C170 C165 1.390 . S
C170 C169 1.387 . S
H171 C183 0.930 . S
H172 C185 0.930 . S
H173 C186 0.930 . S
H174 C190 0.959 . S
H175 C190 0.959 . S
H176 C190 0.961 . S
H177 C191 0.960 . S
H178 C191 0.961 . S
H179 C191 0.959 . S
H180 C194 0.929 . S
H181 C195 0.931 . S
H182 C197 0.930 . S
C183 H171 0.930 . S
C183 C184 1.399 . S
C183 C188 1.399 . S
C184 C183 1.399 . S
C184 C185 1.376 . S
C185 H172 0.930 . S
C185 C184 1.376 . S
C185 C186 1.388 . S
C186 H173 0.930 . S
C186 C185 1.388 . S
C186 C187 1.390 . S
C187 C186 1.390 . S
C187 C188 1.394 . S
C187 C193 1.465 . S
C188 C183 1.399 . S
C188 C187 1.394 . S
C188 C189 1.516 . S
C189 C188 1.516 . S
C189 C190 1.502 . S
C189 C191 1.561 . S
C189 C192 1.526 . S
C190 H174 0.959 . S
C190 H175 0.959 . S
C190 H176 0.961 . S
C190 C189 1.502 . S
C191 H177 0.960 . S
C191 H178 0.961 . S
C191 H179 0.959 . S
C191 C189 1.561 . S
C192 C189 1.526 . S
C192 C193 1.396 . S
C192 C197 1.390 . S
C193 C187 1.465 . S
C193 C192 1.396 . S
C193 C194 1.399 . S
C194 H180 0.929 . S
C194 C193 1.399 . S
C194 C195 1.385 . S
C195 H181 0.931 . S
C195 C194 1.385 . S
C195 C196 1.389 . S
C196 C195 1.389 . S
C196 C197 1.387 . S
C197 H182 0.930 . S
C197 C192 1.390 . S
C197 C196 1.387 . S
H198 C210 0.930 . S
H199 C212 0.930 . S
H200 C213 0.930 . S
H201 C217 0.959 . S
H202 C217 0.959 . S
H203 C217 0.961 . S
H204 C218 0.960 . S
H205 C218 0.961 . S
H206 C218 0.959 . S
H207 C221 0.929 . S
H208 C222 0.931 . S
H209 C224 0.930 . S
C210 H198 0.930 . S
C210 C211 1.399 . S
C210 C215 1.399 . S
C211 C210 1.399 . S
C211 C212 1.376 . S
C212 H199 0.930 . S
C212 C211 1.376 . S
C212 C213 1.388 . S
C213 H200 0.930 . S
C213 C212 1.388 . S
C213 C214 1.390 . S
C214 C213 1.390 . S
C214 C215 1.394 . S
C214 C220 1.465 . S
C215 C210 1.399 . S
C215 C214 1.394 . S
C215 C216 1.516 . S
C216 C215 1.516 . S
C216 C217 1.502 . S
C216 C218 1.561 . S
C216 C219 1.526 . S
C217 H201 0.959 . S
C217 H202 0.959 . S
C217 H203 0.961 . S
C217 C216 1.502 . S
C218 H204 0.960 . S
C218 H205 0.961 . S
C218 H206 0.959 . S
C218 C216 1.561 . S
C219 C216 1.526 . S
C219 C220 1.396 . S
C219 C224 1.390 . S
C220 C214 1.465 . S
C220 C219 1.396 . S
C220 C221 1.399 . S
C221 H207 0.929 . S
C221 C220 1.399 . S
C221 C222 1.385 . S
C222 H208 0.931 . S
C222 C221 1.385 . S
C222 C223 1.389 . S
C223 C222 1.389 . S
C223 C224 1.387 . S
C224 H209 0.930 . S
C224 C219 1.390 . S
C224 C223 1.387 . S
H225 C237 0.930 . S
H226 C239 0.930 . S
H227 C240 0.930 . S
H228 C244 0.959 . S
H229 C244 0.959 . S
H230 C244 0.961 . S
H231 C245 0.960 . S
H232 C245 0.961 . S
H233 C245 0.959 . S
H234 C248 0.929 . S
H235 C249 0.931 . S
H236 C251 0.930 . S
C237 H225 0.930 . S
C237 C238 1.399 . S
C237 C242 1.399 . S
C238 C237 1.399 . S
C238 C239 1.376 . S
C239 H226 0.930 . S
C239 C238 1.376 . S
C239 C240 1.388 . S
C240 H227 0.930 . S
C240 C239 1.388 . S
C240 C241 1.390 . S
C241 C240 1.390 . S
C241 C242 1.394 . S
C241 C247 1.465 . S
C242 C237 1.399 . S
C242 C241 1.394 . S
C242 C243 1.516 . S
C243 C242 1.516 . S
C243 C244 1.502 . S
C243 C245 1.561 . S
C243 C246 1.526 . S
C244 H228 0.959 . S
C244 H229 0.959 . S
C244 H230 0.961 . S
C244 C243 1.502 . S
C245 H231 0.960 . S
C245 H232 0.961 . S
C245 H233 0.959 . S
C245 C243 1.561 . S
C246 C243 1.526 . S
C246 C247 1.396 . S
C246 C251 1.390 . S
C247 C241 1.465 . S
C247 C246 1.396 . S
C247 C248 1.399 . S
C248 H234 0.929 . S
C248 C247 1.399 . S
C248 C249 1.385 . S
C249 H235 0.931 . S
C249 C248 1.385 . S
C249 C250 1.389 . S
C250 C249 1.389 . S
C250 C251 1.387 . S
C251 H236 0.930 . S
C251 C246 1.390 . S
C251 C250 1.387 . S
H252 C264 0.930 . S
H253 C266 0.930 . S
H254 C267 0.930 . S
H255 C271 0.959 . S
H256 C271 0.959 . S
H257 C271 0.961 . S
H258 C272 0.960 . S
H259 C272 0.961 . S
H260 C272 0.959 . S
H261 C275 0.929 . S
H262 C276 0.931 . S
H263 C278 0.930 . S
C264 H252 0.930 . S
C264 C265 1.399 . S
C264 C269 1.399 . S
C265 C264 1.399 . S
C265 C266 1.376 . S
C266 H253 0.930 . S
C266 C265 1.376 . S
C266 C267 1.388 . S
C267 H254 0.930 . S
C267 C266 1.388 . S
C267 C268 1.390 . S
C268 C267 1.390 . S
C268 C269 1.394 . S
C268 C274 1.465 . S
C269 C264 1.399 . S
C269 C268 1.394 . S
C269 C270 1.516 . S
C270 C269 1.516 . S
C270 C271 1.502 . S
C270 C272 1.561 . S
C270 C273 1.526 . S
C271 H255 0.959 . S
C271 H256 0.959 . S
C271 H257 0.961 . S
C271 C270 1.502 . S
C272 H258 0.960 . S
C272 H259 0.961 . S
C272 H260 0.959 . S
C272 C270 1.561 . S
C273 C270 1.526 . S
C273 C274 1.396 . S
C273 C278 1.390 . S
C274 C268 1.465 . S
C274 C273 1.396 . S
C274 C275 1.399 . S
C275 H261 0.929 . S
C275 C274 1.399 . S
C275 C276 1.385 . S
C276 H262 0.931 . S
C276 C275 1.385 . S
C276 C277 1.389 . S
C277 C276 1.389 . S
C277 C278 1.387 . S
C278 H263 0.930 . S
C278 C273 1.390 . S
C278 C277 1.387 . S
C76 C23 1.148 . S
C88 C34 1.133 . S
C103 C24 1.492 . S
C115 C56 1.493 . S
C130 C8 1.530 . S
C142 C43 1.513 . S
C157 C22 1.618 . S
C169 C33 1.610 . S
C184 C17 1.511 . S
C196 C32 1.550 . S
C223 C50 1.452 . S
C211 C27 1.465 . S
C238 C30 1.577 . S
C250 C59 1.574 . S
C277 C42 1.220 . S
C265 C31 1.161 . S
