# Generated by pormake.
# Topology zzz, (3,6)-cn, num edge types: 1
# Building blocks:
#     Node 0, Type 0, BuildingBlock: WUSLED_clean_sbu_0, # of connection points: 3
#     Node 1, Type 0, BuildingBlock: WUSLED_clean_sbu_0, # of connection points: 3
#     Node 2, Type 0, BuildingBlock: WUSLED_clean_sbu_0, # of connection points: 3
#     Node 3, Type 0, BuildingBlock: WUSLED_clean_sbu_0, # of connection points: 3
#     Node 4, Type 0, BuildingBlock: WUSLED_clean_sbu_0, # of connection points: 3
#     Node 5, Type 0, BuildingBlock: WUSLED_clean_sbu_0, # of connection points: 3
#     Node 6, Type 0, BuildingBlock: WUSLED_clean_sbu_0, # of connection points: 3
#     Node 7, Type 0, BuildingBlock: WUSLED_clean_sbu_0, # of connection points: 3
#     Node 8, Type 1, BuildingBlock: FUNLAD_clean_sbu_0, # of connection points: 6
#     Node 9, Type 1, BuildingBlock: FUNLAD_clean_sbu_0, # of connection points: 6
#     Node 10, Type 1, BuildingBlock: FUNLAD_clean_sbu_0, # of connection points: 6
#     Node 11, Type 1, BuildingBlock: FUNLAD_clean_sbu_0, # of connection points: 6
#     Edge 12, Type (0, 1), BuildingBlock: XIVTED_clean_linker_0, # of connection points: 2
#     Edge 13, Type (0, 1), BuildingBlock: XIVTED_clean_linker_0, # of connection points: 2
#     Edge 14, Type (0, 1), BuildingBlock: XIVTED_clean_linker_0, # of connection points: 2
#     Edge 15, Type (0, 1), BuildingBlock: XIVTED_clean_linker_0, # of connection points: 2
#     Edge 16, Type (0, 1), BuildingBlock: XIVTED_clean_linker_0, # of connection points: 2
#     Edge 17, Type (0, 1), BuildingBlock: XIVTED_clean_linker_0, # of connection points: 2
#     Edge 18, Type (0, 1), BuildingBlock: XIVTED_clean_linker_0, # of connection points: 2
#     Edge 19, Type (0, 1), BuildingBlock: XIVTED_clean_linker_0, # of connection points: 2
#     Edge 20, Type (0, 1), BuildingBlock: XIVTED_clean_linker_0, # of connection points: 2
#     Edge 21, Type (0, 1), BuildingBlock: XIVTED_clean_linker_0, # of connection points: 2
#     Edge 22, Type (0, 1), BuildingBlock: XIVTED_clean_linker_0, # of connection points: 2
#     Edge 23, Type (0, 1), BuildingBlock: XIVTED_clean_linker_0, # of connection points: 2
#     Edge 24, Type (0, 1), BuildingBlock: XIVTED_clean_linker_0, # of connection points: 2
#     Edge 25, Type (0, 1), BuildingBlock: XIVTED_clean_linker_0, # of connection points: 2
#     Edge 26, Type (0, 1), BuildingBlock: XIVTED_clean_linker_0, # of connection points: 2
#     Edge 27, Type (0, 1), BuildingBlock: XIVTED_clean_linker_0, # of connection points: 2
#     Edge 28, Type (0, 1), BuildingBlock: XIVTED_clean_linker_0, # of connection points: 2
#     Edge 29, Type (0, 1), BuildingBlock: XIVTED_clean_linker_0, # of connection points: 2
#     Edge 30, Type (0, 1), BuildingBlock: XIVTED_clean_linker_0, # of connection points: 2
#     Edge 31, Type (0, 1), BuildingBlock: XIVTED_clean_linker_0, # of connection points: 2
#     Edge 32, Type (0, 1), BuildingBlock: XIVTED_clean_linker_0, # of connection points: 2
#     Edge 33, Type (0, 1), BuildingBlock: XIVTED_clean_linker_0, # of connection points: 2
#     Edge 34, Type (0, 1), BuildingBlock: XIVTED_clean_linker_0, # of connection points: 2
#     Edge 35, Type (0, 1), BuildingBlock: XIVTED_clean_linker_0, # of connection points: 2
# Relax obj value: 0.265
# Max RMSD: 0.215
# Mean RMSD: 0.185
data_MOF--net-zzz--node1-WUSLED_clean_sbu_0--node2-FUNLAD_clean_sbu_0--edge1-XIVTED_clean_linker_0
_symmetry_space_group_name_H-M    P1
_symmetry_Int_Tables_number       1
_symmetry_cell_setting            triclinic
loop_
_symmetry_equiv_pos_as_xyz
'x, y, z'
_cell_length_a     62.216652
_cell_length_b     67.150117
_cell_length_c     24.373869
_cell_angle_alpha  87.095713
_cell_angle_beta   87.11198
_cell_angle_gamma 92.061729
loop_
_atom_site_label
_atom_site_type_symbol
_atom_site_fract_x
_atom_site_fract_y
_atom_site_fract_z
_atom_type_partial_charge
C0 C 0.80447 0.48278 0.37116 0.0
C1 C 0.82413 0.47749 0.34635 0.0
C2 C 0.8432 0.48914 0.42409 0.0
C3 C 0.8433 0.48063 0.37251 0.0
C4 C 0.82339 0.49431 0.44898 0.0
C5 C 0.80417 0.49116 0.42263 0.0
U6 U 0.77903 0.46957 0.2414 0.0
O7 O 0.74832 0.45407 0.22523 0.0
O8 O 0.75473 0.48534 0.19579 0.0
C9 C 0.7416 0.46953 0.19651 0.0
C10 C 0.78466 0.48061 0.34143 0.0
C11 C 0.73164 0.46544 0.14451 0.0
C12 C 0.69936 0.4558 0.09903 0.0
C13 C 0.71046 0.45756 0.14697 0.0
C14 C 0.73083 0.46908 0.04481 0.0
C15 C 0.70923 0.4619 0.04739 0.0
C16 C 0.74197 0.47081 0.09302 0.0
C17 C 0.82198 0.4538 0.13072 0.0
C18 C 0.8268 0.46073 0.03211 0.0
C19 C 0.85218 0.44045 0.07961 0.0
C20 C 0.84014 0.44206 0.12892 0.0
C21 C 0.84626 0.45062 0.03116 0.0
C22 C 0.81476 0.46238 0.08162 0.0
C23 C 0.81357 0.45959 0.18476 0.0
O24 O 0.78368 0.49331 0.29894 0.0
O25 O 0.779 0.46223 0.33053 0.0
O26 O 0.80113 0.44651 0.21456 0.0
O27 O 0.80743 0.47806 0.18755 0.0
H28 H 0.82467 0.4712 0.30624 0.0
H29 H 0.85826 0.47676 0.35175 0.0
H30 H 0.82273 0.50068 0.48895 0.0
H31 H 0.78911 0.49543 0.44215 0.0
H32 H 0.68267 0.45052 0.10285 0.0
H33 H 0.70218 0.45345 0.18632 0.0
H34 H 0.73897 0.4737 0.00568 0.0
H35 H 0.75838 0.47688 0.09016 0.0
H36 H 0.82158 0.46841 0.99524 0.0
H37 H 0.86711 0.43266 0.08065 0.0
H38 H 0.84596 0.43537 0.16648 0.0
H39 H 0.80068 0.47141 0.0821 0.0
C40 C 0.92633 0.77843 0.30243 0.0
C41 C 0.90829 0.79028 0.30964 0.0
C42 C 0.92603 0.80846 0.37971 0.0
C43 C 0.90819 0.80518 0.34772 0.0
C44 C 0.94302 0.79522 0.37663 0.0
C45 C 0.94312 0.78033 0.3386 0.0
U46 U 0.9477 0.78087 0.15806 0.0
O47 O 0.96742 0.76204 0.10646 0.0
O48 O 0.93574 0.77104 0.07972 0.0
C49 C 0.95286 0.76064 0.06938 0.0
C50 C 0.92943 0.76718 0.25181 0.0
C51 C 0.94943 0.74095 0.04662 0.0
C52 C 0.95441 0.70517 0.04908 0.0
C53 C 0.9542 0.72318 0.07565 0.0
C54 C 0.94403 0.72233 0.96525 0.0
C55 C 0.94996 0.70469 0.99308 0.0
C56 C 0.94379 0.74027 0.99178 0.0
C57 C 0.97295 0.83193 0.1121 0.0
C58 C 0.97797 0.84505 0.01758 0.0
C59 C 0.99789 0.86005 0.0889 0.0
C60 C 0.988 0.84626 0.12793 0.0
C61 C 0.99275 0.8598 0.03336 0.0
C62 C 0.96826 0.83117 0.05654 0.0
C63 C 0.96212 0.81809 0.15409 0.0
O64 O 0.9183 0.77331 0.21006 0.0
O65 O 0.94956 0.76375 0.23702 0.0
O66 O 0.97355 0.80314 0.17106 0.0
O67 O 0.94207 0.81281 0.14549 0.0
H68 H 0.89486 0.789 0.28326 0.0
H69 H 0.89458 0.81477 0.35016 0.0
H70 H 0.95703 0.79725 0.40064 0.0
H71 H 0.95715 0.77129 0.33486 0.0
H72 H 0.95913 0.69185 0.07159 0.0
H73 H 0.95864 0.72334 0.11803 0.0
H74 H 0.94014 0.72239 0.92243 0.0
H75 H 0.94008 0.75382 0.96865 0.0
H76 H 0.97337 0.84456 0.97541 0.0
H77 H 0.00945 0.87096 0.10235 0.0
H78 H 0.99194 0.84692 0.17062 0.0
H79 H 0.9568 0.82009 0.04339 0.0
C80 C 0.71903 0.99242 0.30158 0.0
C81 C 0.70138 0.98031 0.28777 0.0
C82 C 0.67954 0.99184 0.36485 0.0
C83 C 0.68191 0.97994 0.31926 0.0
C84 C 0.69719 0.00399 0.37848 0.0
C85 C 0.71674 0.0042 0.34729 0.0
U86 U 0.74944 0.99827 0.16232 0.0
O87 O 0.78034 0.01381 0.13647 0.0
O88 O 0.77639 0.98145 0.12869 0.0
C89 C 0.78901 0.99753 0.11905 0.0
C90 C 0.73966 0.99322 0.26822 0.0
C91 C 0.80226 0.99916 0.06636 0.0
C92 C 0.8251 0.01924 0.99875 0.0
C93 C 0.80948 0.01787 0.0424 0.0
C94 C 0.82608 0.98325 0.00051 0.0
C95 C 0.83401 0.00197 0.97813 0.0
C96 C 0.81049 0.98188 0.04419 0.0
C97 C 0.70885 0.00666 0.04391 0.0
C98 C 0.69182 0.02878 0.97823 0.0
C99 C 0.68752 0.99299 0.97283 0.0
C100 C 0.70066 0.99022 0.0171 0.0
C101 C 0.6822 0.01229 0.95427 0.0
C102 C 0.70492 0.026 0.02278 0.0
C103 C 0.71682 0.00363 0.09975 0.0
O104 O 0.74278 0.97835 0.23604 0.0
O105 O 0.74547 0.01069 0.2442 0.0
O106 O 0.72761 0.01842 0.12048 0.0
O107 O 0.7237 0.98592 0.11421 0.0
H108 H 0.70252 0.9712 0.2524 0.0
H109 H 0.66856 0.97062 0.30725 0.0
H110 H 0.69595 0.0132 0.41363 0.0
H111 H 0.73008 0.01367 0.35875 0.0
H112 H 0.83058 0.03391 0.98204 0.0
H113 H 0.8037 0.03152 0.05865 0.0
H114 H 0.83271 0.96963 0.98626 0.0
H115 H 0.80561 0.96724 0.06225 0.0
H116 H 0.6884 0.04385 0.96433 0.0
H117 H 0.68026 0.97989 0.95604 0.0
H118 H 0.70306 0.97512 0.03276 0.0
H119 H 0.7108 0.039 0.04281 0.0
C120 C 0.56287 0.68727 0.31304 0.0
C121 C 0.55968 0.66968 0.28533 0.0
C122 C 0.56232 0.64976 0.37087 0.0
C123 C 0.55942 0.6511 0.31394 0.0
C124 C 0.56624 0.66743 0.3981 0.0
C125 C 0.56645 0.68605 0.36938 0.0
U126 U 0.55092 0.71627 0.18284 0.0
O127 O 0.53167 0.7429 0.17201 0.0
O128 O 0.56567 0.74381 0.14207 0.0
C129 C 0.54756 0.75334 0.1454 0.0
C130 C 0.56106 0.70677 0.28378 0.0
C131 C 0.5418 0.76568 0.09684 0.0
C132 C 0.52328 0.79455 0.06185 0.0
C133 C 0.52787 0.78131 0.10527 0.0
C134 C 0.54625 0.77661 -7e-05 0.0
C135 C 0.53252 0.79252 0.00865 0.0
C136 C 0.55084 0.76327 0.04366 0.0
C137 C 0.538 0.6797 0.06565 0.0
C138 C 0.51107 0.66709 0.00564 0.0
C139 C 0.54858 0.65984 0.98886 0.0
C140 C 0.554 0.67097 0.03326 0.0
C141 C 0.52695 0.65715 0.97561 0.0
C142 C 0.51652 0.67818 0.05043 0.0
C143 C 0.54346 0.6864 0.12025 0.0
O144 O 0.57553 0.711 0.2433 0.0
O145 O 0.54142 0.71079 0.27055 0.0
O146 O 0.52835 0.69415 0.15128 0.0
O147 O 0.56271 0.69475 0.12459 0.0
H148 H 0.55689 0.67035 0.24176 0.0
H149 H 0.55664 0.63779 0.29162 0.0
H150 H 0.56831 0.66693 0.44199 0.0
H151 H 0.56884 0.6995 0.39142 0.0
H152 H 0.51301 0.80681 0.07055 0.0
H153 H 0.52091 0.7836 0.14602 0.0
H154 H 0.55351 0.77452 0.95941 0.0
H155 H 0.56167 0.75133 0.03604 0.0
H156 H 0.4943 0.66563 0.99604 0.0
H157 H 0.56128 0.65222 0.96752 0.0
H158 H 0.57064 0.67154 0.04449 0.0
H159 H 0.50375 0.6846 0.07481 0.0
C160 C 0.21239 0.51684 0.03985 0.0
C161 C 0.20407 0.49742 0.03318 0.0
C162 C 0.17394 0.51067 0.98492 0.0
C163 C 0.18501 0.49437 0.00627 0.0
C164 C 0.18277 0.53006 0.98956 0.0
C165 C 0.20176 0.53312 0.01674 0.0
U166 U 0.23554 0.53182 0.17309 0.0
O167 O 0.2597 0.51696 0.22141 0.0
O168 O 0.26569 0.5481 0.19013 0.0
C169 C 0.27254 0.53299 0.22005 0.0
C170 C 0.23134 0.51985 0.07338 0.0
C171 C 0.28239 0.53768 0.27175 0.0
C172 C 0.31447 0.54875 0.3159 0.0
C173 C 0.3031 0.54666 0.26854 0.0
C174 C 0.28413 0.53371 0.37118 0.0
C175 C 0.30536 0.54189 0.36774 0.0
C176 C 0.27272 0.53162 0.32354 0.0
C177 C 0.19118 0.5476 0.27991 0.0
C178 C 0.1869 0.54241 0.37919 0.0
C179 C 0.16015 0.5602 0.32941 0.0
C180 C 0.17223 0.55824 0.28032 0.0
C181 C 0.16683 0.55151 0.37912 0.0
C182 C 0.19897 0.5404 0.32987 0.0
C183 C 0.20018 0.54154 0.22669 0.0
O184 O 0.23676 0.53838 0.08352 0.0
O185 O 0.23203 0.50751 0.11678 0.0
O186 O 0.20679 0.52319 0.22554 0.0
O187 O 0.21261 0.55463 0.19688 0.0
H188 H 0.21198 0.48457 0.05018 0.0
H189 H 0.17862 0.47925 0.00376 0.0
H190 H 0.17494 0.54293 0.97245 0.0
H191 H 0.20784 0.54828 0.02047 0.0
H192 H 0.33087 0.55481 0.31134 0.0
H193 H 0.3109 0.5513 0.22895 0.0
H194 H 0.27654 0.52849 0.4105 0.0
H195 H 0.25668 0.5247 0.32701 0.0
H196 H 0.19272 0.53589 0.41693 0.0
H197 H 0.14475 0.56715 0.32752 0.0
H198 H 0.16595 0.56384 0.24207 0.0
H199 H 0.21366 0.53223 0.33042 0.0
C200 C 0.0891 0.19715 0.14275 0.0
C201 C 0.07545 0.18195 0.16807 0.0
C202 C 0.08209 0.1613 0.09002 0.0
C203 C 0.07193 0.16414 0.14184 0.0
C204 C 0.09632 0.17639 0.06592 0.0
C205 C 0.09974 0.19415 0.09207 0.0
U206 U 0.07868 0.23503 0.25411 0.0
O207 O 0.10123 0.25844 0.27899 0.0
O208 O 0.07159 0.26667 0.23983 0.0
C209 C 0.08847 0.27287 0.26541 0.0
C210 C 0.0914 0.21675 0.16619 0.0
C211 C 0.08401 0.287 0.30816 0.0
C212 C 0.08372 0.32112 0.33619 0.0
C213 C 0.08819 0.30741 0.29631 0.0
C214 C 0.07087 0.29406 0.40045 0.0
C215 C 0.07503 0.31462 0.3888 0.0
C216 C 0.0753 0.28035 0.36039 0.0
C217 C 0.0465 0.19536 0.35067 0.0
C218 C 0.03754 0.17085 0.42553 0.0
C219 C 0.02766 0.16409 0.33318 0.0
C220 C 0.0369 0.18268 0.31397 0.0
C221 C 0.02764 0.15815 0.38939 0.0
C222 C 0.04686 0.18922 0.40634 0.0
C223 C 0.0556 0.21538 0.33361 0.0
O224 O 0.07371 0.22684 0.16954 0.0
O225 O 0.10279 0.21767 0.21003 0.0
O226 O 0.07669 0.21754 0.33306 0.0
O227 O 0.04708 0.22492 0.29206 0.0
H228 H 0.06721 0.18405 0.20739 0.0
H229 H 0.06107 0.15271 0.16175 0.0
H230 H 0.10416 0.17485 0.02575 0.0
H231 H 0.11027 0.20581 0.07189 0.0
H232 H 0.08674 0.33684 0.3254 0.0
H233 H 0.09477 0.31278 0.25603 0.0
H234 H 0.06436 0.28853 0.44062 0.0
H235 H 0.07193 0.26459 0.37011 0.0
H236 H 0.03817 0.16653 0.46884 0.0
H237 H 0.02012 0.1546 0.30447 0.0
H238 H 0.03628 0.18722 0.27084 0.0
H239 H 0.0542 0.19877 0.43528 0.0
C240 C 0.30637 0.00651 0.0751 0.0
C241 C 0.32378 0.01888 0.08913 0.0
C242 C 0.34604 0.00751 0.01261 0.0
C243 C 0.34334 0.01945 0.05801 0.0
C244 C 0.32862 0.99511 0.99876 0.0
C245 C 0.30898 0.99469 0.02956 0.0
U246 U 0.27525 1.00065 0.21361 0.0
O247 O 0.24754 0.01695 0.24512 0.0
O248 O 0.24457 0.98449 0.23819 0.0
C249 C 0.23522 1.00065 0.25414 0.0
C250 C 0.28563 0.00547 0.10795 0.0
C251 C 0.22102 0.99897 0.30524 0.0
C252 C 0.19562 0.97902 0.36689 0.0
C253 C 0.21229 0.9803 0.32586 0.0
C254 C 0.19658 0.01499 0.36936 0.0
C255 C 0.18714 0.99637 0.38813 0.0
C256 C 0.21323 0.01627 0.3283 0.0
C257 C 0.31572 0.99351 0.33347 0.0
C258 C 0.33295 0.97176 0.39972 0.0
C259 C 0.33766 0.0076 0.40282 0.0
C260 C 0.32426 0.01012 0.35895 0.0
C261 C 0.34289 0.98838 0.42233 0.0
C262 C 0.31959 0.97429 0.35556 0.0
C263 C 0.30756 0.99624 0.27773 0.0
O264 O 0.2801 0.98799 0.13229 0.0
O265 O 0.28205 0.02041 0.13961 0.0
O266 O 0.30022 0.01373 0.26288 0.0
O267 O 0.29727 0.98114 0.25701 0.0
H268 H 0.32236 0.02803 0.12438 0.0
H269 H 0.35651 0.02897 0.07014 0.0
H270 H 0.33012 0.98587 0.96372 0.0
H271 H 0.29583 0.98504 0.01795 0.0
H272 H 0.18898 0.96441 0.38092 0.0
H273 H 0.21766 0.96665 0.3087 0.0
H274 H 0.19035 0.02869 0.38419 0.0
H275 H 0.21926 0.03092 0.31275 0.0
H276 H 0.33628 0.95675 0.41437 0.0
H277 H 0.34515 0.02079 0.41853 0.0
H278 H 0.32194 0.02513 0.34246 0.0
H279 H 0.31345 0.96116 0.33657 0.0
C280 C 0.45533 0.31918 0.09249 0.0
C281 C 0.46025 0.33655 0.11975 0.0
C282 C 0.45734 0.35676 0.03484 0.0
C283 C 0.4612 0.35516 0.09125 0.0
C284 C 0.45176 0.33935 0.00811 0.0
C285 C 0.45082 0.32069 0.03674 0.0
U286 U 0.47018 0.28918 0.21835 0.0
O287 O 0.45441 0.26312 0.26445 0.0
O288 O 0.48658 0.26076 0.2241 0.0
C289 C 0.47103 0.25188 0.25591 0.0
C290 C 0.45639 0.29952 0.12141 0.0
C291 C 0.47784 0.23903 0.30239 0.0
C292 C 0.49612 0.20927 0.33191 0.0
C293 C 0.49088 0.22305 0.29045 0.0
C294 C 0.47565 0.22733 0.39888 0.0
C295 C 0.48843 0.21107 0.38663 0.0
C296 C 0.4704 0.24122 0.35712 0.0
C297 C 0.49269 0.32484 0.32811 0.0
C298 C 0.51639 0.34878 0.36932 0.0
C299 C 0.4857 0.33357 0.42276 0.0
C300 C 0.48052 0.32225 0.37829 0.0
C301 C 0.50305 0.3477 0.41773 0.0
C302 C 0.51122 0.33748 0.32493 0.0
C303 C 0.4841 0.31839 0.27628 0.0
O304 O 0.47603 0.29376 0.1288 0.0
O305 O 0.44352 0.29657 0.16575 0.0
O306 O 0.46385 0.31197 0.2776 0.0
O307 O 0.49682 0.30903 0.24231 0.0
H308 H 0.46382 0.33565 0.16285 0.0
H309 H 0.46526 0.36828 0.11325 0.0
H310 H 0.44892 0.34003 0.96459 0.0
H311 H 0.44713 0.30741 0.01502 0.0
H312 H 0.50561 0.19676 0.32057 0.0
H313 H 0.49657 0.22089 0.24849 0.0
H314 H 0.46959 0.22925 0.44064 0.0
H315 H 0.46025 0.25339 0.36751 0.0
H316 H 0.52979 0.35957 0.36385 0.0
H317 H 0.47534 0.33214 0.45994 0.0
H318 H 0.46617 0.31256 0.38207 0.0
H319 H 0.52074 0.33986 0.28654 0.0
C320 C 0.01739 0.96931 0.74741 0.0
N321 N 0.98912 0.96807 0.59649 0.0
C322 C 1.00136 0.9519 0.58961 0.0
C323 C 0.99301 0.93506 0.56582 0.0
C324 C 0.97177 0.9347 0.54892 0.0
C325 C 0.9598 0.95194 0.55388 0.0
C326 C 0.96882 0.96855 0.57815 0.0
Zn327 Zn 1.00106 0.98954 0.64496 0.0
C328 C 0.96796 0.00198 0.72824 0.0
N329 N 0.027 0.03073 0.75448 0.0
C330 C 0.04569 0.02763 0.77976 0.0
C331 C 0.01499 0.04674 0.76535 0.0
C332 C 0.02135 0.06011 0.80391 0.0
C333 C 0.04028 0.05704 0.83172 0.0
C334 C 0.05269 0.04068 0.81865 0.0
Zn335 Zn 0.01533 0.01033 0.70292 0.0
O336 O 0.00831 0.9664 0.70287 0.0
C337 C 0.04856 0.99797 0.6203 0.0
O338 O 0.02272 0.98698 0.7588 0.0
H339 H 1.00019 0.04896 0.74479 0.0
H340 H 0.01738 0.95167 0.60483 0.0
H341 H 0.05495 0.01476 0.77067 0.0
O342 O 0.03227 0.98808 0.60506 0.0
O343 O 0.04628 0.00891 0.66119 0.0
H344 H 0.95929 0.98148 0.58443 0.0
O345 O 0.00749 0.0334 0.64672 0.0
O346 O 0.99418 0.01322 0.58745 0.0
O347 O 0.98445 0.01145 0.74366 0.0
O348 O 0.9699 0.99142 0.6865 0.0
C349 C 0.99893 0.03082 0.60121 0.0
H350 H 1.00296 0.92225 0.56183 0.0
H351 H 0.94334 0.95227 0.54149 0.0
H352 H 0.0115 0.07272 0.81194 0.0
H353 H 0.06731 0.03767 0.83937 0.0
C354 C 0.47878 0.99184 0.6234 0.0
N355 N 0.51101 0.046 0.65188 0.0
C356 C 0.51171 0.04972 0.59638 0.0
C357 C 0.51102 0.06918 0.57398 0.0
C358 C 0.50918 0.08508 0.60883 0.0
C359 C 0.50806 0.08092 0.66599 0.0
C360 C 0.5092 0.06114 0.6868 0.0
Zn361 Zn 0.51227 0.01662 0.67959 0.0
C362 C 0.482 0.00523 0.77268 0.0
N363 N 0.51436 0.95425 0.72548 0.0
C364 C 0.51623 0.93891 0.69122 0.0
C365 C 0.51367 0.95083 0.78109 0.0
C366 C 0.51435 0.93149 0.8043 0.0
C367 C 0.51622 0.91539 0.77018 0.0
C368 C 0.5174 0.91924 0.71289 0.0
Zn369 Zn 0.51306 0.98362 0.69724 0.0
O370 O 0.48656 0.0093 0.62964 0.0
C371 C 0.54338 0.995 0.60421 0.0
O372 O 0.48737 0.97688 0.64636 0.0
H373 H 0.51269 0.96316 0.80781 0.0
H374 H 0.5127 0.03753 0.56917 0.0
H375 H 0.51687 0.94193 0.64715 0.0
O376 O 0.53576 0.01177 0.615 0.0
O377 O 0.53626 0.97941 0.63213 0.0
H378 H 0.5086 0.05789 0.73078 0.0
O379 O 0.53883 0.99096 0.74703 0.0
O380 O 0.53786 0.02337 0.7305 0.0
O381 O 0.48964 0.98848 0.76184 0.0
O382 O 0.48904 0.02081 0.74465 0.0
C383 C 0.54652 0.00845 0.75334 0.0
H384 H 0.51158 0.07174 0.52967 0.0
H385 H 0.50664 0.09283 0.69414 0.0
H386 H 0.51376 0.92917 0.84867 0.0
H387 H 0.51886 0.90716 0.6853 0.0
C388 C 0.51178 0.46992 0.63598 0.0
N389 N 0.46324 0.51092 0.6594 0.0
C390 C 0.46195 0.512 0.60377 0.0
C391 C 0.44291 0.51729 0.58018 0.0
C392 C 0.42482 0.52115 0.61404 0.0
C393 C 0.42623 0.51926 0.67134 0.0
C394 C 0.44582 0.51428 0.69335 0.0
Zn395 Zn 0.49275 0.50522 0.6892 0.0
C396 C 0.49161 0.47746 0.78462 0.0
N397 N 0.55604 0.49434 0.74131 0.0
C398 C 0.57354 0.49035 0.70835 0.0
C399 C 0.55704 0.4938 0.79701 0.0
C400 C 0.57578 0.48838 0.82177 0.0
C401 C 0.59391 0.48381 0.78903 0.0
C402 C 0.59289 0.4852 0.73157 0.0
Zn403 Zn 0.5266 0.50002 0.71089 0.0
O404 O 0.49515 0.48034 0.63979 0.0
C405 C 0.5277 0.52778 0.61547 0.0
O406 O 0.52834 0.47487 0.66143 0.0
H407 H 0.5431 0.49725 0.82256 0.0
H408 H 0.47584 0.50903 0.57742 0.0
H409 H 0.57239 0.49084 0.66418 0.0
O410 O 0.50759 0.52436 0.62488 0.0
O411 O 0.54087 0.51901 0.6458 0.0
H412 H 0.44721 0.51338 0.73746 0.0
O413 O 0.52439 0.52528 0.759 0.0
O414 O 0.49081 0.53007 0.73954 0.0
O415 O 0.51171 0.48113 0.77587 0.0
O416 O 0.47852 0.48597 0.75358 0.0
C417 C 0.50759 0.53542 0.76354 0.0
H418 H 0.4423 0.51833 0.53578 0.0
H419 H 0.41253 0.52213 0.69863 0.0
H420 H 0.57611 0.48771 0.86623 0.0
H421 H 0.60664 0.48178 0.70515 0.0
C422 C 0.04002 0.51994 0.63914 0.0
N423 N 0.01779 0.4607 0.66795 0.0
C424 C 0.02182 0.46071 0.61257 0.0
C425 C 0.02886 0.44366 0.58821 0.0
C426 C 0.03157 0.42625 0.62089 0.0
C427 C 0.02653 0.42628 0.67771 0.0
C428 C 0.01977 0.44388 0.70067 0.0
Zn429 Zn 0.01037 0.48758 0.69859 0.0
C430 C 0.03726 0.49899 0.78766 0.0
N431 N 0.99671 0.5458 0.74972 0.0
C432 C 0.99324 0.56209 0.7163 0.0
C433 C 0.99459 0.54651 0.80541 0.0
C434 C 0.98864 0.56398 0.8296 0.0
C435 C 0.98462 0.58099 0.79635 0.0
C436 C 0.98715 0.57994 0.73888 0.0
Zn437 Zn 1.00405 0.51887 0.71915 0.0
O438 O 0.03526 0.5014 0.64612 0.0
C439 C 0.97719 0.50724 0.62984 0.0
O440 O 0.02873 0.5323 0.66454 0.0
H441 H 0.99732 0.5334 0.83135 0.0
H442 H 0.02 0.47414 0.58712 0.0
H443 H 0.99492 0.56117 0.67212 0.0
O444 O 0.98764 0.49152 0.63764 0.0
O445 O 0.98094 0.52217 0.6585 0.0
H446 H 0.01651 0.44422 0.74463 0.0
O447 O 0.97955 0.50512 0.7727 0.0
O448 O 0.98537 0.47426 0.7522 0.0
O449 O 0.02728 0.51497 0.77941 0.0
O450 O 0.033 0.48402 0.75968 0.0
C451 C 0.97446 0.48661 0.77872 0.0
H452 H 0.03225 0.44411 0.54411 0.0
H453 H 0.02845 0.41308 0.70416 0.0
H454 H 0.98734 0.56414 0.87404 0.0
H455 H 0.98406 0.59263 0.71159 0.0
H456 H 0.15127 0.97153 0.38498 0.0
H457 H 0.08631 0.01906 0.63603 0.0
H458 H 0.17787 0.01874 0.47777 0.0
H459 H 0.05921 0.9747 0.53461 0.0
H460 H 0.12066 0.01787 0.58268 0.0
H461 H 0.11839 0.97099 0.44392 0.0
C462 C 0.15036 0.98162 0.41821 0.0
C463 C 0.16751 0.99517 0.42631 0.0
C464 C 0.1072 0.00837 0.57222 0.0
C465 C 0.12948 0.99487 0.49377 0.0
C466 C 0.08758 0.00902 0.60272 0.0
C467 C 0.06976 0.99701 0.58976 0.0
C468 C 0.10911 0.99558 0.52846 0.0
C469 C 0.07243 0.98429 0.54609 0.0
C470 C 0.13144 0.98142 0.45165 0.0
C471 C 0.16505 0.00817 0.4695 0.0
N472 N 0.09166 0.98394 0.51708 0.0
N473 N 0.14641 0.00771 0.50149 0.0
H474 H 0.4612 0.1945 0.47075 0.0
H475 H 0.53644 0.10352 0.5296 0.0
H476 H 0.52596 0.19155 0.40004 0.0
H477 H 0.47988 0.11344 0.63265 0.0
H478 H 0.53293 0.13622 0.48306 0.0
H479 H 0.46775 0.16575 0.53273 0.0
C480 C 0.47691 0.18806 0.46881 0.0
C481 C 0.49295 0.19535 0.42946 0.0
C482 C 0.52138 0.1314 0.51622 0.0
C483 C 0.50039 0.16218 0.49966 0.0
C484 C 0.52335 0.1127 0.54264 0.0
C485 C 0.50835 0.10576 0.58475 0.0
C486 C 0.50406 0.14319 0.5313 0.0
C487 C 0.49181 0.11831 0.60044 0.0
C488 C 0.48059 0.17155 0.50405 0.0
C489 C 0.51292 0.18619 0.42868 0.0
N490 N 0.48992 0.13634 0.57319 0.0
N491 N 0.51596 0.17 0.46269 0.0
H492 H 0.30682 0.51268 0.45053 0.0
H493 H 0.42041 0.5518 0.53886 0.0
H494 H 0.33502 0.57043 0.39588 0.0
H495 H 0.38408 0.50432 0.63114 0.0
H496 H 0.38845 0.55956 0.48881 0.0
H497 H 0.33341 0.51009 0.52072 0.0
C498 C 0.31827 0.52502 0.45397 0.0
C499 C 0.31885 0.54168 0.41651 0.0
C500 C 0.38731 0.54761 0.52049 0.0
C501 C 0.34968 0.53854 0.49606 0.0
C502 C 0.40556 0.54315 0.54887 0.0
C503 C 0.40483 0.52732 0.58875 0.0
C504 C 0.36825 0.5359 0.53126 0.0
C505 C 0.38522 0.51665 0.60061 0.0
C506 C 0.33355 0.52346 0.49392 0.0
C507 C 0.33427 0.55708 0.42282 0.0
N508 N 0.36775 0.52092 0.57131 0.0
N509 N 0.34925 0.555 0.46116 0.0
H510 H 0.04007 0.31458 0.46269 0.0
H511 H 0.06707 0.42476 0.5518 0.0
H512 H 0.09856 0.34834 0.41063 0.0
H513 H 0.01543 0.38754 0.63082 0.0
H514 H 0.07919 0.39637 0.50157 0.0
H515 H 0.03111 0.34032 0.52668 0.0
C516 C 0.05117 0.32726 0.46513 0.0
C517 C 0.07001 0.32937 0.43069 0.0
C518 C 0.06532 0.39429 0.5302 0.0
C519 C 0.05967 0.35901 0.50335 0.0
C520 C 0.05836 0.41051 0.55873 0.0
C521 C 0.04012 0.40849 0.59504 0.0
C522 C 0.0538 0.3759 0.53742 0.0
C523 C 0.02958 0.38967 0.60314 0.0
C524 C 0.04599 0.34199 0.50155 0.0
C525 C 0.08363 0.34626 0.43536 0.0
N526 N 0.03642 0.37411 0.57398 0.0
N527 N 0.07811 0.36047 0.4706 0.0
H528 H 0.86867 0.02855 0.97215 0.0
H529 H 0.93021 0.9801 0.7171 0.0
H530 H 0.84214 0.97855 0.88997 0.0
H531 H 0.95801 0.02591 0.81264 0.0
H532 H 0.89665 0.98094 0.7743 0.0
H533 H 0.90009 0.0296 0.90805 0.0
C534 C 0.86927 0.01794 0.94016 0.0
C535 C 0.8526 0.00345 0.93662 0.0
C536 C 0.91009 0.99085 0.78254 0.0
C537 C 0.88899 0.00436 0.86316 0.0
C538 C 0.92924 0.99042 0.74981 0.0
C539 C 0.94704 0.0029 0.76013 0.0
C540 C 0.90868 0.00393 0.82576 0.0
C541 C 0.94481 0.01594 0.80319 0.0
C542 C 0.88737 0.01844 0.90375 0.0
C543 C 0.85465 0.98985 0.89476 0.0
N544 N 0.92606 0.01608 0.83432 0.0
N545 N 0.8725 0.99061 0.85979 0.0
H546 H 0.49465 0.8104 0.98731 0.0
H547 H 0.54599 0.88711 0.74965 0.0
H548 H 0.56107 0.80924 0.92747 0.0
H549 H 0.48838 0.89722 0.8485 0.0
H550 H 0.54895 0.85473 0.80021 0.0
H551 H 0.48939 0.83833 0.92205 0.0
C552 C 0.50814 0.81594 0.96031 0.0
C553 C 0.52845 0.80762 0.96373 0.0
C554 C 0.53556 0.86397 0.81035 0.0
C555 C 0.52241 0.83957 0.88816 0.0
C556 C 0.5338 0.88235 0.78135 0.0
C557 C 0.517 0.89485 0.79527 0.0
C558 C 0.52022 0.85802 0.8529 0.0
C559 C 0.5017 0.88809 0.83692 0.0
C560 C 0.50508 0.83187 0.92289 0.0
C561 C 0.54512 0.81513 0.92638 0.0
N562 N 0.5037 0.87018 0.86428 0.0
N563 N 0.54179 0.8308 0.89048 0.0
H564 H 0.70977 0.49057 0.9626 0.0
H565 H 0.59686 0.45299 0.86433 0.0
H566 H 0.67885 0.43412 0.01892 0.0
H567 H 0.63503 0.50006 0.77544 0.0
H568 H 0.62782 0.44488 0.91785 0.0
H569 H 0.68431 0.49334 0.88966 0.0
C570 C 0.69794 0.47854 0.95902 0.0
C571 C 0.69628 0.46222 0.99763 0.0
C572 C 0.62961 0.45681 0.88616 0.0
C573 C 0.66677 0.46554 0.91482 0.0
C574 C 0.61193 0.46145 0.85575 0.0
C575 C 0.61345 0.47727 0.81583 0.0
C576 C 0.64888 0.46834 0.87741 0.0
C577 C 0.63329 0.48773 0.80593 0.0
C578 C 0.68331 0.48021 0.91747 0.0
C579 C 0.68043 0.44722 0.99105 0.0
N580 N 0.65019 0.48329 0.83719 0.0
N581 N 0.66613 0.44938 0.95105 0.0
H582 H 0.93813 0.6659 0.02629 0.0
H583 H 0.99656 0.61984 0.76421 0.0
H584 H 0.96927 0.7016 0.89079 0.0
H585 H 0.95733 0.58464 0.8871 0.0
H586 H 0.98659 0.64999 0.80983 0.0
H587 H 0.94525 0.63585 0.97652 0.0
C588 C 0.94641 0.66742 0.98605 0.0
C589 C 0.95305 0.6863 0.96264 0.0
C590 C 0.9801 0.63566 0.82669 0.0
C591 C 0.96128 0.65201 0.90545 0.0
C592 C 0.9857 0.61843 0.80045 0.0
C593 C 0.97792 0.5996 0.82197 0.0
C594 C 0.96669 0.6341 0.87499 0.0
C595 C 0.9641 0.59876 0.86958 0.0
C596 C 0.95039 0.65028 0.95753 0.0
C597 C 0.96358 0.68738 0.91013 0.0
N598 N 0.95903 0.61573 0.89459 0.0
N599 N 0.96746 0.6705 0.88349 0.0
H600 H 0.03092 0.12097 0.3476 0.0
H601 H 0.98818 0.06756 0.63087 0.0
H602 H 1.00117 0.15147 0.48144 0.0
H603 H 1.00369 0.03429 0.48839 0.0
H604 H 0.98971 0.09819 0.5728 0.0
H605 H 0.01819 0.08894 0.39323 0.0
C606 C 0.02138 0.12094 0.38603 0.0
C607 C 0.01746 0.13886 0.41137 0.0
C608 C 0.99246 0.08422 0.55377 0.0
C609 C 1.00305 0.10243 0.46382 0.0
C610 C 0.99157 0.06672 0.58701 0.0
C611 C 0.99593 0.04846 0.56432 0.0
C612 C 0.99831 0.08358 0.49748 0.0
C613 C 1.00017 0.04813 0.50729 0.0
C614 C 0.01417 0.10267 0.41211 0.0
C615 C 1.00504 0.13798 0.46115 0.0
N616 N 1.00168 0.06554 0.47582 0.0
N617 N 0.99853 0.12011 0.48599 0.0
H618 H 0.35226 0.01103 0.50964 0.0
H619 H 0.46073 0.95785 0.58262 0.0
H620 H 0.37413 0.96037 0.4229 0.0
H621 H 0.45042 0.0205 0.60014 0.0
H622 H 0.4259 0.95482 0.5393 0.0
H623 H 0.38487 0.01046 0.56129 0.0
C624 C 0.36378 0.99968 0.50168 0.0
C625 C 0.36051 0.98595 0.46105 0.0
C626 C 0.43139 0.96918 0.5527 0.0
C627 C 0.39778 0.98509 0.52073 0.0
C628 C 0.45121 0.97093 0.57722 0.0
C629 C 0.45857 0.98949 0.59454 0.0
C630 C 0.41873 0.986 0.54683 0.0
C631 C 0.44554 0.00595 0.5869 0.0
C632 C 0.38238 0.99937 0.53126 0.0
C633 C 0.37582 0.97122 0.45388 0.0
N634 N 0.42625 0.00378 0.56397 0.0
N635 N 0.39388 0.97127 0.48313 0.0
H636 H 0.54005 0.36397 0.45825 0.0
H637 H 0.47722 0.45325 0.5885 0.0
H638 H 0.47086 0.36774 0.46793 0.0
H639 H 0.54454 0.44453 0.61329 0.0
H640 H 0.47541 0.42229 0.54115 0.0
H641 H 0.54279 0.39335 0.51382 0.0
C642 C 0.52545 0.3708 0.47261 0.0
C643 C 0.50519 0.36334 0.45838 0.0
C644 C 0.4906 0.42708 0.55697 0.0
C645 C 0.50823 0.39702 0.52124 0.0
C646 C 0.49169 0.44487 0.58378 0.0
C647 C 0.51109 0.45155 0.60487 0.0
C648 C 0.50908 0.41584 0.5506 0.0
C649 C 0.52926 0.43994 0.59761 0.0
C650 C 0.52702 0.38755 0.5043 0.0
C651 C 0.4868 0.37273 0.47839 0.0
N652 N 0.52784 0.42265 0.57088 0.0
N653 N 0.48879 0.38914 0.50825 0.0
H654 H 0.15981 0.51883 0.44986 0.0
H655 H 0.05412 0.55819 0.60375 0.0
H656 H 0.13804 0.57849 0.41852 0.0
H657 H 0.0705 0.49639 0.5963 0.0
H658 H 0.08724 0.56773 0.5475 0.0
H659 H 0.13044 0.51267 0.51865 0.0
C660 C 0.14918 0.53084 0.45825 0.0
C661 C 0.1514 0.54919 0.42788 0.0
C662 C 0.0835 0.55211 0.55843 0.0
C663 C 0.11708 0.54192 0.50586 0.0
C664 C 0.06462 0.54667 0.59033 0.0
C665 C 0.05944 0.52646 0.60442 0.0
C666 C 0.09731 0.53724 0.54134 0.0
C667 C 0.07367 0.51214 0.58619 0.0
C668 C 0.13216 0.5272 0.49715 0.0
C669 C 0.13674 0.564 0.44026 0.0
N670 N 0.09189 0.51782 0.5558 0.0
N671 N 0.12005 0.55999 0.47797 0.0
H672 H 1.00057 0.89956 0.04861 0.0
H673 H 0.01321 0.92946 0.73073 0.0
H674 H 1.00531 0.85592 0.9247 0.0
H675 H 0.02661 0.97083 0.85572 0.0
H676 H 0.01199 0.90207 0.80075 0.0
H677 H 0.01191 0.92563 0.97902 0.0
C678 C 1.00435 0.89536 0.00701 0.0
C679 C 1.00176 0.87547 0.99252 0.0
C680 C 0.01551 0.9171 0.81275 0.0
C681 C 0.01429 0.90543 0.91225 0.0
C682 C 0.01617 0.93275 0.77281 0.0
C683 C 0.01977 0.95247 0.78759 0.0
C684 C 0.01814 0.92124 0.86795 0.0
C685 C 0.02366 0.95586 0.84261 0.0
C686 C 0.01073 0.91031 0.96718 0.0
C687 C 0.00658 0.87109 0.9376 0.0
N688 N 0.02242 0.94042 0.88099 0.0
N689 N 0.01236 0.88598 0.89935 0.0
H690 H 0.67349 0.99035 0.86515 0.0
H691 H 0.56413 0.04242 0.79502 0.0
H692 H 0.65063 0.03995 0.95488 0.0
H693 H 0.57532 0.98004 0.77525 0.0
H694 H 0.599 0.04569 0.838 0.0
H695 H 0.64095 0.9909 0.81322 0.0
C696 C 0.66177 0.00147 0.87367 0.0
C697 C 0.66472 0.01489 0.91525 0.0
C698 C 0.59369 0.03134 0.82416 0.0
C699 C 0.62755 0.01573 0.85531 0.0
C700 C 0.57385 0.02945 0.79985 0.0
C701 C 0.56674 0.01089 0.78204 0.0
C702 C 0.60661 0.01468 0.8293 0.0
C703 C 0.58002 0.99458 0.78893 0.0
C704 C 0.64322 0.00178 0.84395 0.0
C705 C 0.64918 0.02935 0.92317 0.0
N706 N 0.59933 0.99689 0.81166 0.0
N707 N 0.63116 0.02929 0.89378 0.0
H708 H 0.54899 0.64869 0.87934 0.0
H709 H 0.47398 0.55557 0.8094 0.0
H710 H 0.49162 0.6311 0.97996 0.0
H711 H 0.54314 0.55821 0.78231 0.0
H712 H 0.47647 0.58737 0.8553 0.0
H713 H 0.54278 0.61987 0.82418 0.0
C714 C 0.53498 0.63892 0.88963 0.0
C715 C 0.52107 0.64219 0.93523 0.0
C716 C 0.49102 0.58091 0.83912 0.0
C717 C 0.5137 0.60939 0.8714 0.0
C718 C 0.48963 0.56283 0.8131 0.0
C719 C 0.5084 0.55418 0.7926 0.0
C720 C 0.51124 0.59055 0.84315 0.0
C721 C 0.52829 0.56422 0.79815 0.0
C722 C 0.53145 0.62251 0.85802 0.0
C723 C 0.50279 0.6293 0.94524 0.0
N724 N 0.52917 0.58191 0.82257 0.0
N725 N 0.49971 0.61336 0.91384 0.0
H726 H 0.87378 0.4235 0.98688 0.0
H727 H 0.94559 0.51039 0.82745 0.0
H728 H 0.85567 0.48486 0.96835 0.0
H729 H 0.95869 0.44832 0.80817 0.0
H730 H 0.91276 0.50043 0.8809 0.0
H731 H 0.90451 0.43121 0.92117 0.0
C732 C 0.87603 0.43848 0.96839 0.0
C733 C 0.86214 0.45357 0.98352 0.0
C734 C 0.9227 0.48892 0.86495 0.0
C735 C 0.89729 0.46248 0.90898 0.0
C736 C 0.94162 0.4946 0.83464 0.0
C737 C 0.95501 0.48016 0.81337 0.0
C738 C 0.91705 0.46859 0.87485 0.0
C739 C 0.94885 0.45994 0.82395 0.0
C740 C 0.89356 0.44285 0.93092 0.0
C741 C 0.86572 0.47265 0.95777 0.0
N742 N 0.93032 0.45472 0.8543 0.0
N743 N 0.88304 0.47658 0.92241 0.0
H744 H 0.10961 0.13928 0.02801 0.0
H745 H 0.01442 0.07318 0.91073 0.0
H746 H 0.04263 0.14266 0.08082 0.0
H747 H 0.08083 0.07179 0.85106 0.0
H748 H 0.02497 0.09661 0.9787 0.0
H749 H 0.09993 0.11234 0.96902 0.0
C750 C 0.09288 0.13429 0.02744 0.0
C751 C 0.07688 0.14337 0.05914 0.0
C752 C 0.03727 0.09115 0.9509 0.0
C753 C 0.0657 0.11249 0.99175 0.0
C754 C 0.03123 0.07786 0.91178 0.0
C755 C 0.04673 0.07066 0.87468 0.0
C756 C 0.05898 0.09736 0.95303 0.0
C757 C 0.06835 0.07688 0.87895 0.0
C758 C 0.08737 0.11887 0.99384 0.0
C759 C 0.05552 0.13603 0.05747 0.0
N760 N 0.07381 0.08997 0.91717 0.0
N761 N 0.05055 0.12114 0.02401 0.0
H762 H 0.37208 0.03995 0.97652 0.0
H763 H 0.46201 0.97416 0.83441 0.0
H764 H 0.3678 0.97572 0.97507 0.0
H765 H 0.46016 0.03801 0.80506 0.0
H766 H 0.42984 0.97498 0.89551 0.0
H767 H 0.40642 0.03994 0.9225 0.0
C768 C 0.37842 0.02584 0.9651 0.0
C769 C 0.36699 0.0078 0.98017 0.0
C770 C 0.4365 0.98884 0.87595 0.0
C771 C 0.40628 0.00769 0.91842 0.0
C772 C 0.45497 0.98841 0.84116 0.0
C773 C 0.4638 0.00605 0.81421 0.0
C774 C 0.42672 0.00704 0.88426 0.0
C775 C 0.45391 0.02404 0.82481 0.0
C776 C 0.39796 0.02586 0.93407 0.0
C777 C 0.37589 0.98999 0.96378 0.0
N778 N 0.43585 0.02407 0.85886 0.0
N779 N 0.39498 0.99039 0.93395 0.0
H780 H 0.48948 0.38511 0.04343 0.0
H781 H 0.45202 0.45778 0.7984 0.0
H782 H 0.43271 0.3729 0.95414 0.0
H783 H 0.5142 0.46208 0.86878 0.0
H784 H 0.44185 0.42966 0.86396 0.0
H785 H 0.49582 0.41632 0.98863 0.0
C786 C 0.47816 0.3891 0.01275 0.0
C787 C 0.46053 0.37631 0.00341 0.0
C788 C 0.45764 0.4369 0.86526 0.0
C789 C 0.46791 0.41204 0.93971 0.0
C790 C 0.4634 0.45301 0.82811 0.0
C791 C 0.48404 0.4622 0.82788 0.0
C792 C 0.47256 0.43008 0.90265 0.0
C793 C 0.49818 0.45535 0.86715 0.0
C794 C 0.48189 0.40689 0.98115 0.0
C795 C 0.44665 0.38218 0.96231 0.0
N796 N 0.49221 0.43969 0.90271 0.0
N797 N 0.45066 0.3996 0.93186 0.0
H798 H 0.16186 0.48108 0.91735 0.0
H799 H 0.04793 0.52688 0.86048 0.0
H800 H 0.13802 0.53298 0.99459 0.0
H801 H 0.06777 0.4708 0.79935 0.0
H802 H 0.08029 0.52859 0.91273 0.0
H803 H 0.12719 0.47641 0.87591 0.0
C804 C 0.14932 0.49143 0.9259 0.0
C805 C 0.15297 0.50754 0.95928 0.0
C806 C 0.0775 0.5158 0.88833 0.0
C807 C 0.11328 0.50236 0.91149 0.0
C808 C 0.05898 0.5148 0.85854 0.0
C809 C 0.05519 0.49873 0.82521 0.0
C810 C 0.09249 0.50073 0.88445 0.0
C811 C 0.07005 0.48348 0.82447 0.0
C812 C 0.12954 0.48878 0.90208 0.0
C813 C 0.13615 0.52059 0.96829 0.0
N814 N 0.08817 0.48496 0.85319 0.0
N815 N 0.11711 0.51776 0.94439 0.0
H816 H 0.9147 0.84631 0.34881 0.0
H817 H 0.97539 0.89652 0.59087 0.0
H818 H 0.94298 0.81282 0.4809 0.0
H819 H 0.94589 0.93035 0.46158 0.0
H820 H 0.96119 0.86578 0.5549 0.0
H821 H 0.92284 0.87706 0.39402 0.0
C822 C 0.92223 0.84534 0.38791 0.0
C823 C 0.92823 0.82686 0.41092 0.0
C824 C 0.95772 0.8799 0.53444 0.0
C825 C 0.93808 0.86223 0.46232 0.0
C826 C 0.96596 0.89748 0.55474 0.0
C827 C 0.9621 0.91606 0.5287 0.0
C828 C 0.94554 0.88079 0.48751 0.0
C829 C 0.94928 0.91638 0.48292 0.0
C830 C 0.92706 0.86298 0.41345 0.0
C831 C 0.93834 0.8267 0.46117 0.0
N832 N 0.94161 0.89899 0.46349 0.0
N833 N 0.94308 0.8441 0.48491 0.0
H834 H 0.65308 0.95965 0.40065 0.0
H835 H 0.56397 0.02609 0.54371 0.0
H836 H 0.65836 0.02381 0.40354 0.0
H837 H 0.5649 0.96211 0.57133 0.0
H838 H 0.59629 0.02511 0.48315 0.0
H839 H 0.6188 0.95994 0.45475 0.0
C840 C 0.64698 0.97381 0.41242 0.0
C841 C 0.65867 0.99174 0.39766 0.0
C842 C 0.58939 0.01126 0.50222 0.0
C843 C 0.61942 0.99217 0.45953 0.0
C844 C 0.57084 0.01178 0.53669 0.0
C845 C 0.56169 0.99415 0.56297 0.0
C846 C 0.59894 0.99298 0.49354 0.0
C847 C 0.57138 0.97608 0.55208 0.0
C848 C 0.62746 0.97395 0.4435 0.0
C849 C 0.65006 0.00962 0.41455 0.0
N850 N 0.58951 0.97597 0.51834 0.0
N851 N 0.63098 0.00938 0.4444 0.0
H852 H 0.58661 0.63497 0.45404 0.0
H853 H 0.50558 0.54186 0.52905 0.0
H854 H 0.53203 0.61996 0.35961 0.0
H855 H 0.56652 0.54889 0.60431 0.0
H856 H 0.51586 0.57001 0.46499 0.0
H857 H 0.58029 0.60343 0.50871 0.0
C858 C 0.57337 0.62502 0.44465 0.0
C859 C 0.55981 0.63015 0.40221 0.0
C860 C 0.52713 0.56532 0.49506 0.0
C861 C 0.5525 0.59408 0.46449 0.0
C862 C 0.52126 0.54922 0.53171 0.0
C863 C 0.53518 0.54308 0.57226 0.0
C864 C 0.54696 0.57563 0.49935 0.0
C865 C 0.55532 0.55312 0.57358 0.0
C866 C 0.56985 0.60697 0.47563 0.0
C867 C 0.54304 0.61657 0.39147 0.0
N868 N 0.56051 0.5691 0.53809 0.0
N869 N 0.53978 0.59929 0.42264 0.0
H870 H 0.87747 0.46474 0.42882 0.0
H871 H 0.94622 0.53501 0.61596 0.0
H872 H 0.85584 0.52142 0.48153 0.0
H873 H 0.96722 0.47879 0.55827 0.0
H874 H 0.91413 0.53169 0.56232 0.0
H875 H 0.9113 0.47076 0.47234 0.0
C876 C 0.87988 0.47853 0.44925 0.0
C877 C 0.86374 0.49259 0.45142 0.0
C878 C 0.92588 0.52018 0.56106 0.0
C879 C 0.90253 0.49952 0.5021 0.0
C880 C 0.94426 0.52213 0.59143 0.0
C881 C 0.95936 0.50709 0.59194 0.0
C882 C 0.92262 0.50308 0.5311 0.0
C883 C 0.95595 0.49069 0.55949 0.0
C884 C 0.89921 0.48194 0.47433 0.0
C885 C 0.86769 0.51004 0.47942 0.0
N886 N 0.9379 0.48908 0.53078 0.0
N887 N 0.88668 0.513 0.50373 0.0
loop_
_geom_bond_atom_site_label_1
_geom_bond_atom_site_label_2
_geom_bond_distance
_geom_bond_site_symmetry_2
_ccdc_geom_bond_type
C0 C1 1.264 . S
C0 C5 1.479 . S
C0 C10 1.465 . S
C1 C0 1.264 . S
C1 C3 1.339 . S
C1 H28 0.931 . S
C2 C3 1.395 . S
C2 C4 1.320 . S
C3 C1 1.339 . S
C3 C2 1.395 . S
C3 H29 0.929 . S
C4 C2 1.320 . S
C4 C5 1.405 . S
C4 H30 0.930 . S
C5 C0 1.479 . S
C5 C4 1.405 . S
C5 H31 0.931 . S
U6 O7 2.454 . S
U6 O8 2.458 . S
U6 C9 2.984 . S
U6 C10 2.847 . S
U6 C23 2.882 . S
U6 O24 2.441 . S
U6 O25 2.420 . S
U6 O26 2.455 . S
U6 O27 2.449 . S
O7 U6 2.454 . S
O7 C9 1.353 . S
O8 U6 2.458 . S
O8 C9 1.286 . S
C9 U6 2.984 . S
C9 O7 1.353 . S
C9 O8 1.286 . S
C9 C11 1.363 . S
C10 C0 1.465 . S
C10 U6 2.847 . S
C10 O24 1.249 . S
C10 O25 1.202 . S
C11 C9 1.363 . S
C11 C13 1.408 . S
C11 C16 1.342 . S
C12 C13 1.310 . S
C12 C15 1.461 . S
C12 H32 0.932 . S
C13 C11 1.408 . S
C13 C12 1.310 . S
C13 H33 0.930 . S
C14 C15 1.474 . S
C14 C16 1.285 . S
C14 H34 0.929 1_554 S
C15 C12 1.461 . S
C15 C14 1.474 . S
C16 C11 1.342 . S
C16 C14 1.285 . S
C16 H35 0.930 . S
C17 C20 1.424 . S
C17 C22 1.245 1_554 S
C17 C23 1.428 . S
C18 C21 1.260 . S
C18 C22 1.477 . S
C18 H36 0.932 . S
C19 C20 1.384 1_556 S
C19 C21 1.479 . S
C19 H37 0.929 . S
C20 C17 1.424 . S
C20 C19 1.384 1_554 S
C20 H38 0.928 . S
C21 C18 1.260 . S
C21 C19 1.479 . S
C22 C17 1.245 1_556 S
C22 C18 1.477 . S
C22 H39 0.932 . S
C23 U6 2.882 . S
C23 C17 1.428 . S
C23 O26 1.301 . S
C23 O27 1.282 . S
O24 U6 2.441 . S
O24 C10 1.249 . S
O25 U6 2.420 . S
O25 C10 1.202 . S
O26 U6 2.455 . S
O26 C23 1.301 . S
O27 U6 2.449 . S
O27 C23 1.282 . S
H28 C1 0.931 . S
H29 C3 0.929 . S
H30 C4 0.930 . S
H31 C5 0.931 . S
H32 C12 0.932 . S
H33 C13 0.930 . S
H34 C14 0.929 1_556 S
H35 C16 0.930 . S
H36 C18 0.932 . S
H37 C19 0.929 . S
H38 C20 0.928 . S
H39 C22 0.932 . S
C40 C41 1.264 . S
C40 C45 1.479 . S
C40 C50 1.465 . S
C41 C40 1.264 . S
C41 C43 1.339 . S
C41 H68 0.931 . S
C42 C43 1.395 . S
C42 C44 1.320 . S
C43 C41 1.339 . S
C43 C42 1.395 . S
C43 H69 0.929 . S
C44 C42 1.320 . S
C44 C45 1.405 . S
C44 H70 0.930 . S
C45 C40 1.479 . S
C45 C44 1.405 . S
C45 H71 0.931 . S
U46 O47 2.454 . S
U46 O48 2.458 1_554 S
U46 C49 2.984 1_554 S
U46 C50 2.847 . S
U46 C63 2.882 1_554 S
U46 O64 2.441 . S
U46 O65 2.420 . S
U46 O66 2.455 1_554 S
U46 O67 2.449 1_554 S
O47 U46 2.454 . S
O47 C49 1.353 1_554 S
O48 U46 2.458 1_556 S
O48 C49 1.286 . S
C49 U46 2.984 1_556 S
C49 O47 1.353 1_556 S
C49 O48 1.286 . S
C49 C51 1.363 . S
C50 C40 1.465 . S
C50 U46 2.847 . S
C50 O64 1.249 . S
C50 O65 1.202 . S
C51 C49 1.363 . S
C51 C53 1.408 1_556 S
C51 C56 1.342 . S
C52 C53 1.310 1_556 S
C52 C55 1.461 . S
C52 H72 0.932 1_556 S
C53 C51 1.408 1_554 S
C53 C52 1.310 1_554 S
C53 H73 0.930 . S
C54 C55 1.474 . S
C54 C56 1.285 . S
C54 H74 0.929 . S
C55 C52 1.461 . S
C55 C54 1.474 . S
C56 C51 1.342 . S
C56 C54 1.285 . S
C56 H75 0.930 . S
C57 C60 1.424 . S
C57 C62 1.245 . S
C57 C63 1.428 . S
C58 C61 1.260 . S
C58 C62 1.477 . S
C58 H76 0.932 . S
C59 C60 1.384 . S
C59 C61 1.479 . S
C59 H77 0.929 . S
C60 C57 1.424 . S
C60 C59 1.384 . S
C60 H78 0.928 . S
C61 C58 1.260 . S
C61 C59 1.479 . S
C62 C57 1.245 . S
C62 C58 1.477 . S
C62 H79 0.932 . S
C63 U46 2.882 1_556 S
C63 C57 1.428 . S
C63 O66 1.301 . S
C63 O67 1.282 . S
O64 U46 2.441 . S
O64 C50 1.249 . S
O65 U46 2.420 . S
O65 C50 1.202 . S
O66 U46 2.455 1_556 S
O66 C63 1.301 . S
O67 U46 2.449 1_556 S
O67 C63 1.282 . S
H68 C41 0.931 . S
H69 C43 0.929 . S
H70 C44 0.930 . S
H71 C45 0.931 . S
H72 C52 0.932 1_554 S
H73 C53 0.930 . S
H74 C54 0.929 . S
H75 C56 0.930 . S
H76 C58 0.932 . S
H77 C59 0.929 . S
H78 C60 0.928 . S
H79 C62 0.932 . S
C80 C81 1.264 . S
C80 C85 1.479 . S
C80 C90 1.465 . S
C81 C80 1.264 . S
C81 C83 1.339 . S
C81 H108 0.931 . S
C82 C83 1.395 . S
C82 C84 1.320 . S
C83 C81 1.339 . S
C83 C82 1.395 . S
C83 H109 0.929 . S
C84 C82 1.320 . S
C84 C85 1.405 . S
C84 H110 0.922 1_545 S
C85 C80 1.479 . S
C85 C84 1.405 . S
C85 H111 0.931 . S
U86 O87 2.454 . S
U86 O88 2.458 . S
U86 C89 2.984 . S
U86 C90 2.847 . S
U86 C103 2.877 1_554 S
U86 O104 2.441 . S
U86 O105 2.420 . S
U86 O106 2.455 1_554 S
U86 O107 2.449 . S
O87 U86 2.454 . S
O87 C89 1.353 . S
O88 U86 2.458 . S
O88 C89 1.286 . S
C89 U86 2.984 . S
C89 O87 1.353 . S
C89 O88 1.286 . S
C89 C91 1.363 . S
C90 C80 1.465 . S
C90 U86 2.847 . S
C90 O104 1.249 . S
C90 O105 1.202 . S
C91 C89 1.363 . S
C91 C93 1.408 . S
C91 C96 1.342 1_554 S
C92 C93 1.310 . S
C92 C95 1.461 . S
C92 H112 0.932 . S
C93 C91 1.408 . S
C93 C92 1.310 . S
C93 H113 0.930 . S
C94 C95 1.474 1_566 S
C94 C96 1.284 1_565 S
C94 H114 0.931 . S
C95 C92 1.461 . S
C95 C94 1.474 1_544 S
C96 C91 1.342 1_556 S
C96 C94 1.284 1_545 S
C96 H115 0.933 . S
C97 C100 1.424 . S
C97 C102 1.245 . S
C97 C103 1.433 . S
C98 C101 1.260 . S
C98 C102 1.477 . S
C98 H116 0.932 . S
C99 C100 1.384 . S
C99 C101 1.479 . S
C99 H117 0.929 . S
C100 C97 1.424 . S
C100 C99 1.384 . S
C100 H118 0.928 1_556 S
C101 C98 1.260 . S
C101 C99 1.479 . S
C102 C97 1.245 . S
C102 C98 1.477 . S
C102 H119 0.932 . S
C103 U86 2.877 1_556 S
C103 C97 1.433 . S
C103 O106 1.303 . S
C103 O107 1.276 1_556 S
O104 U86 2.441 . S
O104 C90 1.249 . S
O105 U86 2.420 . S
O105 C90 1.202 . S
O106 U86 2.455 1_556 S
O106 C103 1.303 . S
O107 U86 2.449 . S
O107 C103 1.276 1_554 S
H108 C81 0.931 . S
H109 C83 0.929 . S
H110 C84 0.922 1_565 S
H111 C85 0.931 . S
H112 C92 0.932 . S
H113 C93 0.930 . S
H114 C94 0.931 . S
H115 C96 0.933 . S
H116 C98 0.932 . S
H117 C99 0.929 . S
H118 C100 0.928 1_554 S
H119 C102 0.932 . S
C120 C121 1.264 . S
C120 C125 1.479 . S
C120 C130 1.465 . S
C121 C120 1.264 . S
C121 C123 1.339 . S
C121 H148 0.931 . S
C122 C123 1.395 . S
C122 C124 1.320 . S
C123 C121 1.339 . S
C123 C122 1.395 . S
C123 H149 0.929 . S
C124 C122 1.320 . S
C124 C125 1.405 . S
C124 H150 0.930 . S
C125 C120 1.479 . S
C125 C124 1.405 . S
C125 H151 0.931 . S
U126 O127 2.454 . S
U126 O128 2.458 . S
U126 C129 2.984 . S
U126 C130 2.847 . S
U126 C143 2.882 . S
U126 O144 2.441 . S
U126 O145 2.420 . S
U126 O146 2.437 1_554 S
U126 O147 2.449 . S
O127 U126 2.454 . S
O127 C129 1.353 . S
O128 U126 2.458 . S
O128 C129 1.286 . S
C129 U126 2.984 . S
C129 O127 1.353 . S
C129 O128 1.286 . S
C129 C131 1.363 . S
C130 C120 1.465 . S
C130 U126 2.847 . S
C130 O144 1.249 . S
C130 O145 1.202 . S
C131 C129 1.363 . S
C131 C133 1.408 . S
C131 C136 1.342 1_554 S
C132 C133 1.310 . S
C132 C135 1.461 . S
C132 H152 0.932 . S
C133 C131 1.408 . S
C133 C132 1.310 . S
C133 H153 0.930 . S
C134 C135 1.474 1_556 S
C134 C136 1.285 . S
C134 H154 0.929 . S
C135 C132 1.461 . S
C135 C134 1.474 1_554 S
C136 C131 1.342 1_556 S
C136 C134 1.285 . S
C136 H155 0.930 . S
C137 C140 1.424 . S
C137 C142 1.245 . S
C137 C143 1.428 1_556 S
C138 C141 1.260 . S
C138 C142 1.477 . S
C138 H156 0.932 . S
C139 C140 1.384 . S
C139 C141 1.479 . S
C139 H157 0.929 . S
C140 C137 1.424 . S
C140 C139 1.384 . S
C140 H158 0.928 1_556 S
C141 C138 1.260 . S
C141 C139 1.479 . S
C142 C137 1.245 . S
C142 C138 1.477 . S
C142 H159 0.932 . S
C143 U126 2.882 . S
C143 C137 1.428 1_554 S
C143 O146 1.299 1_554 S
C143 O147 1.282 . S
O144 U126 2.441 . S
O144 C130 1.249 . S
O145 U126 2.420 . S
O145 C130 1.202 . S
O146 U126 2.437 1_556 S
O146 C143 1.299 1_556 S
O147 U126 2.449 . S
O147 C143 1.282 . S
H148 C121 0.931 . S
H149 C123 0.929 . S
H150 C124 0.930 . S
H151 C125 0.931 . S
H152 C132 0.932 . S
H153 C133 0.930 . S
H154 C134 0.929 . S
H155 C136 0.930 . S
H156 C138 0.932 . S
H157 C139 0.929 . S
H158 C140 0.928 1_554 S
H159 C142 0.932 . S
C160 C161 1.264 . S
C160 C165 1.479 . S
C160 C170 1.465 . S
C161 C160 1.264 . S
C161 C163 1.339 . S
C161 H188 0.931 . S
C162 C163 1.395 1_556 S
C162 C164 1.320 . S
C163 C161 1.339 . S
C163 C162 1.395 1_554 S
C163 H189 0.929 . S
C164 C162 1.320 . S
C164 C165 1.405 1_556 S
C164 H190 0.930 . S
C165 C160 1.479 . S
C165 C164 1.405 1_554 S
C165 H191 0.931 . S
U166 O167 2.454 . S
U166 O168 2.458 . S
U166 C169 2.984 . S
U166 C170 2.847 . S
U166 C183 2.882 . S
U166 O184 2.441 . S
U166 O185 2.420 . S
U166 O186 2.455 . S
U166 O187 2.449 . S
O167 U166 2.454 . S
O167 C169 1.353 . S
O168 U166 2.458 . S
O168 C169 1.286 . S
C169 U166 2.984 . S
C169 O167 1.353 . S
C169 O168 1.286 . S
C169 C171 1.363 . S
C170 C160 1.465 . S
C170 U166 2.847 . S
C170 O184 1.249 . S
C170 O185 1.202 . S
C171 C169 1.363 . S
C171 C173 1.408 . S
C171 C176 1.342 . S
C172 C173 1.310 . S
C172 C175 1.461 . S
C172 H192 0.932 . S
C173 C171 1.408 . S
C173 C172 1.310 . S
C173 H193 0.930 . S
C174 C175 1.474 . S
C174 C176 1.285 . S
C174 H194 0.929 . S
C175 C172 1.461 . S
C175 C174 1.474 . S
C176 C171 1.342 . S
C176 C174 1.285 . S
C176 H195 0.930 . S
C177 C180 1.424 . S
C177 C182 1.245 . S
C177 C183 1.428 . S
C178 C181 1.260 . S
C178 C182 1.477 . S
C178 H196 0.932 . S
C179 C180 1.384 . S
C179 C181 1.479 . S
C179 H197 0.929 . S
C180 C177 1.424 . S
C180 C179 1.384 . S
C180 H198 0.928 . S
C181 C178 1.260 . S
C181 C179 1.479 . S
C182 C177 1.245 . S
C182 C178 1.477 . S
C182 H199 0.932 . S
C183 U166 2.882 . S
C183 C177 1.428 . S
C183 O186 1.301 . S
C183 O187 1.282 . S
O184 U166 2.441 . S
O184 C170 1.249 . S
O185 U166 2.420 . S
O185 C170 1.202 . S
O186 U166 2.455 . S
O186 C183 1.301 . S
O187 U166 2.449 . S
O187 C183 1.282 . S
H188 C161 0.931 . S
H189 C163 0.929 . S
H190 C164 0.930 . S
H191 C165 0.931 . S
H192 C172 0.932 . S
H193 C173 0.930 . S
H194 C174 0.929 . S
H195 C176 0.930 . S
H196 C178 0.932 . S
H197 C179 0.929 . S
H198 C180 0.928 . S
H199 C182 0.932 . S
C200 C201 1.264 . S
C200 C205 1.479 . S
C200 C210 1.465 . S
C201 C200 1.264 . S
C201 C203 1.339 . S
C201 H228 0.931 . S
C202 C203 1.395 . S
C202 C204 1.320 . S
C203 C201 1.339 . S
C203 C202 1.395 . S
C203 H229 0.929 . S
C204 C202 1.320 . S
C204 C205 1.405 . S
C204 H230 0.930 . S
C205 C200 1.479 . S
C205 C204 1.405 . S
C205 H231 0.931 . S
U206 O207 2.454 . S
U206 O208 2.458 . S
U206 C209 2.984 . S
U206 C210 2.847 . S
U206 C223 2.882 . S
U206 O224 2.441 . S
U206 O225 2.420 . S
U206 O226 2.455 . S
U206 O227 2.449 . S
O207 U206 2.454 . S
O207 C209 1.353 . S
O208 U206 2.458 . S
O208 C209 1.286 . S
C209 U206 2.984 . S
C209 O207 1.353 . S
C209 O208 1.286 . S
C209 C211 1.363 . S
C210 C200 1.465 . S
C210 U206 2.847 . S
C210 O224 1.249 . S
C210 O225 1.202 . S
C211 C209 1.363 . S
C211 C213 1.408 . S
C211 C216 1.342 . S
C212 C213 1.310 . S
C212 C215 1.461 . S
C212 H232 0.932 . S
C213 C211 1.408 . S
C213 C212 1.310 . S
C213 H233 0.930 . S
C214 C215 1.474 . S
C214 C216 1.285 . S
C214 H234 0.929 . S
C215 C212 1.461 . S
C215 C214 1.474 . S
C216 C211 1.342 . S
C216 C214 1.285 . S
C216 H235 0.930 . S
C217 C220 1.424 . S
C217 C222 1.245 . S
C217 C223 1.428 . S
C218 C221 1.260 . S
C218 C222 1.477 . S
C218 H236 0.932 . S
C219 C220 1.384 . S
C219 C221 1.479 . S
C219 H237 0.929 . S
C220 C217 1.424 . S
C220 C219 1.384 . S
C220 H238 0.928 . S
C221 C218 1.260 . S
C221 C219 1.479 . S
C222 C217 1.245 . S
C222 C218 1.477 . S
C222 H239 0.932 . S
C223 U206 2.882 . S
C223 C217 1.428 . S
C223 O226 1.301 . S
C223 O227 1.282 . S
O224 U206 2.441 . S
O224 C210 1.249 . S
O225 U206 2.420 . S
O225 C210 1.202 . S
O226 U206 2.455 . S
O226 C223 1.301 . S
O227 U206 2.449 . S
O227 C223 1.282 . S
H228 C201 0.931 . S
H229 C203 0.929 . S
H230 C204 0.930 . S
H231 C205 0.931 . S
H232 C212 0.932 . S
H233 C213 0.930 . S
H234 C214 0.929 . S
H235 C216 0.930 . S
H236 C218 0.932 . S
H237 C219 0.929 . S
H238 C220 0.928 . S
H239 C222 0.932 . S
C240 C241 1.264 . S
C240 C245 1.479 . S
C240 C250 1.465 . S
C241 C240 1.264 . S
C241 C243 1.339 . S
C241 H268 0.931 . S
C242 C243 1.395 . S
C242 C244 1.320 . S
C243 C241 1.339 . S
C243 C242 1.395 . S
C243 H269 0.929 . S
C244 C242 1.320 . S
C244 C245 1.405 . S
C244 H270 0.923 1_545 S
C245 C240 1.479 . S
C245 C244 1.405 . S
C245 H271 0.931 . S
U246 O247 2.454 . S
U246 O248 2.458 . S
U246 C249 2.984 . S
U246 C250 2.847 . S
U246 C263 2.882 . S
U246 O264 2.441 . S
U246 O265 2.420 . S
U246 O266 2.455 . S
U246 O267 2.449 . S
O247 U246 2.454 . S
O247 C249 1.353 . S
O248 U246 2.458 . S
O248 C249 1.286 . S
C249 U246 2.984 . S
C249 O247 1.353 . S
C249 O248 1.286 . S
C249 C251 1.363 . S
C250 C240 1.465 . S
C250 U246 2.847 . S
C250 O264 1.249 . S
C250 O265 1.202 . S
C251 C249 1.363 . S
C251 C253 1.408 . S
C251 C256 1.342 . S
C252 C253 1.310 . S
C252 C255 1.461 . S
C252 H272 0.932 . S
C253 C251 1.408 . S
C253 C252 1.310 . S
C253 H273 0.930 . S
C254 C255 1.474 1_565 S
C254 C256 1.286 1_565 S
C254 H274 0.929 . S
C255 C252 1.461 . S
C255 C254 1.474 1_545 S
C256 C251 1.342 . S
C256 C254 1.286 1_545 S
C256 H275 0.933 . S
C257 C260 1.424 . S
C257 C262 1.245 . S
C257 C263 1.428 . S
C258 C261 1.260 . S
C258 C262 1.477 . S
C258 H276 0.932 . S
C259 C260 1.384 . S
C259 C261 1.479 . S
C259 H277 0.929 . S
C260 C257 1.424 . S
C260 C259 1.384 . S
C260 H278 0.928 . S
C261 C258 1.260 . S
C261 C259 1.479 . S
C262 C257 1.245 . S
C262 C258 1.477 . S
C262 H279 0.932 . S
C263 U246 2.882 . S
C263 C257 1.428 . S
C263 O266 1.301 . S
C263 O267 1.282 . S
O264 U246 2.441 . S
O264 C250 1.249 . S
O265 U246 2.420 . S
O265 C250 1.202 . S
O266 U246 2.455 . S
O266 C263 1.301 . S
O267 U246 2.449 . S
O267 C263 1.282 . S
H268 C241 0.931 . S
H269 C243 0.929 . S
H270 C244 0.923 1_565 S
H271 C245 0.931 . S
H272 C252 0.932 . S
H273 C253 0.930 . S
H274 C254 0.929 . S
H275 C256 0.933 . S
H276 C258 0.932 . S
H277 C259 0.929 . S
H278 C260 0.928 . S
H279 C262 0.932 . S
C280 C281 1.264 . S
C280 C285 1.479 . S
C280 C290 1.465 . S
C281 C280 1.264 . S
C281 C283 1.339 . S
C281 H308 0.931 . S
C282 C283 1.395 . S
C282 C284 1.320 . S
C283 C281 1.339 . S
C283 C282 1.395 . S
C283 H309 0.929 . S
C284 C282 1.320 . S
C284 C285 1.405 . S
C284 H310 0.930 . S
C285 C280 1.479 . S
C285 C284 1.405 . S
C285 H311 0.931 . S
U286 O287 2.454 . S
U286 O288 2.458 . S
U286 C289 2.984 . S
U286 C290 2.847 . S
U286 C303 2.882 . S
U286 O304 2.441 . S
U286 O305 2.420 . S
U286 O306 2.455 . S
U286 O307 2.449 . S
O287 U286 2.454 . S
O287 C289 1.353 . S
O288 U286 2.458 . S
O288 C289 1.286 . S
C289 U286 2.984 . S
C289 O287 1.353 . S
C289 O288 1.286 . S
C289 C291 1.363 . S
C290 C280 1.465 . S
C290 U286 2.847 . S
C290 O304 1.249 . S
C290 O305 1.202 . S
C291 C289 1.363 . S
C291 C293 1.408 . S
C291 C296 1.342 . S
C292 C293 1.310 . S
C292 C295 1.461 . S
C292 H312 0.932 . S
C293 C291 1.408 . S
C293 C292 1.310 . S
C293 H313 0.930 . S
C294 C295 1.474 . S
C294 C296 1.285 . S
C294 H314 0.929 . S
C295 C292 1.461 . S
C295 C294 1.474 . S
C296 C291 1.342 . S
C296 C294 1.285 . S
C296 H315 0.930 . S
C297 C300 1.424 . S
C297 C302 1.245 . S
C297 C303 1.428 . S
C298 C301 1.260 . S
C298 C302 1.477 . S
C298 H316 0.932 . S
C299 C300 1.384 . S
C299 C301 1.479 . S
C299 H317 0.929 . S
C300 C297 1.424 . S
C300 C299 1.384 . S
C300 H318 0.928 . S
C301 C298 1.260 . S
C301 C299 1.479 . S
C302 C297 1.245 . S
C302 C298 1.477 . S
C302 H319 0.932 . S
C303 U286 2.882 . S
C303 C297 1.428 . S
C303 O306 1.301 . S
C303 O307 1.282 . S
O304 U286 2.441 . S
O304 C290 1.249 . S
O305 U286 2.420 . S
O305 C290 1.202 . S
O306 U286 2.455 . S
O306 C303 1.301 . S
O307 U286 2.449 . S
O307 C303 1.282 . S
H308 C281 0.931 . S
H309 C283 0.929 . S
H310 C284 0.930 . S
H311 C285 0.931 . S
H312 C292 0.932 . S
H313 C293 0.930 . S
H314 C294 0.929 . S
H315 C296 0.930 . S
H316 C298 0.932 . S
H317 C299 0.929 . S
H318 C300 0.928 . S
H319 C302 0.932 . S
C320 O336 1.251 . S
C320 O338 1.254 1_655 S
N321 C322 1.333 . S
N321 C326 1.307 . S
N321 Zn327 2.020 . S
C322 N321 1.333 . S
C322 C323 1.379 . S
C322 H340 0.952 . S
C323 C322 1.379 . S
C323 C324 1.390 . S
C323 H350 0.949 . S
C324 C323 1.390 . S
C324 C325 1.357 . S
C325 C324 1.357 . S
C325 C326 1.370 . S
C325 H351 0.950 . S
C326 N321 1.307 . S
C326 C325 1.370 . S
C326 H344 0.948 . S
Zn327 N321 2.020 . S
Zn327 O336 2.039 . S
Zn327 O342 2.034 1_655 S
Zn327 O346 2.025 1_665 S
Zn327 O348 2.024 . S
C328 O347 1.246 . S
C328 O348 1.249 1_545 S
N329 C330 1.307 . S
N329 C331 1.333 . S
N329 Zn335 2.020 . S
C330 N329 1.307 . S
C330 C334 1.370 . S
C330 H341 0.948 . S
C331 N329 1.333 . S
C331 C332 1.379 . S
C331 H339 0.952 . S
C332 C331 1.379 . S
C332 C333 1.390 . S
C332 H352 0.949 . S
C333 C332 1.390 . S
C333 C334 1.357 . S
C334 C330 1.370 . S
C334 C333 1.357 . S
C334 H353 0.950 . S
Zn335 N329 2.020 . S
Zn335 O338 2.025 1_545 S
Zn335 O343 2.024 . S
Zn335 O345 2.039 . S
Zn335 O347 2.034 1_455 S
O336 C320 1.251 . S
O336 Zn327 2.039 . S
C337 O342 1.246 . S
C337 O343 1.249 1_565 S
O338 C320 1.254 1_455 S
O338 Zn335 2.025 1_565 S
H339 C331 0.952 . S
H340 C322 0.952 . S
H341 C330 0.948 . S
O342 Zn327 2.034 1_455 S
O342 C337 1.246 . S
O343 Zn335 2.024 . S
O343 C337 1.249 1_545 S
H344 C326 0.948 . S
O345 Zn335 2.039 . S
O345 C349 1.251 . S
O346 Zn327 2.025 1_445 S
O346 C349 1.254 . S
O347 C328 1.246 . S
O347 Zn335 2.034 1_655 S
O348 Zn327 2.024 . S
O348 C328 1.249 1_565 S
C349 O345 1.251 . S
C349 O346 1.254 . S
H350 C323 0.949 . S
H351 C325 0.950 . S
H352 C332 0.949 . S
H353 C334 0.950 . S
C354 O370 1.251 1_565 S
C354 O372 1.254 . S
N355 C356 1.333 . S
N355 C360 1.307 . S
N355 Zn361 2.020 . S
C356 N355 1.333 . S
C356 C357 1.379 . S
C356 H374 0.952 . S
C357 C356 1.379 . S
C357 C358 1.390 . S
C357 H384 0.949 . S
C358 C357 1.390 . S
C358 C359 1.357 . S
C359 C358 1.357 . S
C359 C360 1.370 . S
C359 H385 0.950 . S
C360 N355 1.307 . S
C360 C359 1.370 . S
C360 H378 0.948 . S
Zn361 N355 2.020 . S
Zn361 O370 2.039 . S
Zn361 O376 2.034 . S
Zn361 O380 2.025 . S
Zn361 O382 2.024 . S
C362 O381 1.246 1_545 S
C362 O382 1.249 . S
N363 C364 1.307 . S
N363 C365 1.333 . S
N363 Zn369 2.020 . S
C364 N363 1.307 . S
C364 C368 1.370 . S
C364 H375 0.948 . S
C365 N363 1.333 . S
C365 C366 1.379 . S
C365 H373 0.952 . S
C366 C365 1.379 . S
C366 C367 1.390 . S
C366 H386 0.949 . S
C367 C366 1.390 . S
C367 C368 1.357 . S
C368 C364 1.370 . S
C368 C367 1.357 . S
C368 H387 0.950 . S
Zn369 N363 2.020 . S
Zn369 O372 2.025 . S
Zn369 O377 2.024 . S
Zn369 O379 2.039 . S
Zn369 O381 2.034 . S
O370 C354 1.251 1_545 S
O370 Zn361 2.039 . S
C371 O376 1.246 1_565 S
C371 O377 1.249 . S
O372 C354 1.254 . S
O372 Zn369 2.025 . S
H373 C365 0.952 . S
H374 C356 0.952 . S
H375 C364 0.948 . S
O376 Zn361 2.034 . S
O376 C371 1.246 1_545 S
O377 Zn369 2.024 . S
O377 C371 1.249 . S
H378 C360 0.948 . S
O379 Zn369 2.039 . S
O379 C383 1.251 1_565 S
O380 Zn361 2.025 . S
O380 C383 1.254 . S
O381 C362 1.246 1_565 S
O381 Zn369 2.034 . S
O382 Zn361 2.024 . S
O382 C362 1.249 . S
C383 O379 1.251 1_545 S
C383 O380 1.254 . S
H384 C357 0.949 . S
H385 C359 0.950 . S
H386 C366 0.949 . S
H387 C368 0.950 . S
C388 O404 1.251 . S
C388 O406 1.254 . S
N389 C390 1.333 . S
N389 C394 1.307 . S
N389 Zn395 2.020 . S
C390 N389 1.333 . S
C390 C391 1.379 . S
C390 H408 0.952 . S
C391 C390 1.379 . S
C391 C392 1.390 . S
C391 H418 0.949 . S
C392 C391 1.390 . S
C392 C393 1.357 . S
C393 C392 1.357 . S
C393 C394 1.370 . S
C393 H419 0.950 . S
C394 N389 1.307 . S
C394 C393 1.370 . S
C394 H412 0.948 . S
Zn395 N389 2.020 . S
Zn395 O404 2.039 . S
Zn395 O410 2.034 . S
Zn395 O414 2.025 . S
Zn395 O416 2.024 . S
C396 O415 1.246 . S
C396 O416 1.249 . S
N397 C398 1.307 . S
N397 C399 1.333 . S
N397 Zn403 2.020 . S
C398 N397 1.307 . S
C398 C402 1.370 . S
C398 H409 0.948 . S
C399 N397 1.333 . S
C399 C400 1.379 . S
C399 H407 0.952 . S
C400 C399 1.379 . S
C400 C401 1.390 . S
C400 H420 0.949 . S
C401 C400 1.390 . S
C401 C402 1.357 . S
C402 C398 1.370 . S
C402 C401 1.357 . S
C402 H421 0.950 . S
Zn403 N397 2.020 . S
Zn403 O406 2.025 . S
Zn403 O411 2.024 . S
Zn403 O413 2.039 . S
Zn403 O415 2.034 . S
O404 C388 1.251 . S
O404 Zn395 2.039 . S
C405 O410 1.246 . S
C405 O411 1.249 . S
O406 C388 1.254 . S
O406 Zn403 2.025 . S
H407 C399 0.952 . S
H408 C390 0.952 . S
H409 C398 0.948 . S
O410 Zn395 2.034 . S
O410 C405 1.246 . S
O411 Zn403 2.024 . S
O411 C405 1.249 . S
H412 C394 0.948 . S
O413 Zn403 2.039 . S
O413 C417 1.251 . S
O414 Zn395 2.025 . S
O414 C417 1.254 . S
O415 C396 1.246 . S
O415 Zn403 2.034 . S
O416 Zn395 2.024 . S
O416 C396 1.249 . S
C417 O413 1.251 . S
C417 O414 1.254 . S
H418 C391 0.949 . S
H419 C393 0.950 . S
H420 C400 0.949 . S
H421 C402 0.950 . S
C422 O438 1.251 . S
C422 O440 1.254 . S
N423 C424 1.333 . S
N423 C428 1.307 . S
N423 Zn429 2.020 . S
C424 N423 1.333 . S
C424 C425 1.379 . S
C424 H442 0.952 . S
C425 C424 1.379 . S
C425 C426 1.390 . S
C425 H452 0.949 . S
C426 C425 1.390 . S
C426 C427 1.357 . S
C427 C426 1.357 . S
C427 C428 1.370 . S
C427 H453 0.950 . S
C428 N423 1.307 . S
C428 C427 1.370 . S
C428 H446 0.948 . S
Zn429 N423 2.020 . S
Zn429 O438 2.039 . S
Zn429 O444 2.034 1_455 S
Zn429 O448 2.025 1_455 S
Zn429 O450 2.024 . S
C430 O449 1.246 . S
C430 O450 1.249 . S
N431 C432 1.307 . S
N431 C433 1.333 . S
N431 Zn437 2.020 . S
C432 N431 1.307 . S
C432 C436 1.370 . S
C432 H443 0.958 . S
C433 N431 1.333 . S
C433 C434 1.379 . S
C433 H441 0.952 . S
C434 C433 1.379 . S
C434 C435 1.390 . S
C434 H454 0.949 . S
C435 C434 1.390 . S
C435 C436 1.357 . S
C436 C432 1.370 . S
C436 C435 1.357 . S
C436 H455 0.950 . S
Zn437 N431 2.020 . S
Zn437 O440 2.025 1_655 S
Zn437 O445 2.024 . S
Zn437 O447 2.039 . S
Zn437 O449 2.034 1_655 S
O438 C422 1.251 . S
O438 Zn429 2.039 . S
C439 O444 1.246 . S
C439 O445 1.249 . S
O440 C422 1.254 . S
O440 Zn437 2.025 1_455 S
H441 C433 0.952 . S
H442 C424 0.952 . S
H443 C432 0.958 . S
O444 Zn429 2.034 1_655 S
O444 C439 1.246 . S
O445 Zn437 2.024 . S
O445 C439 1.249 . S
H446 C428 0.948 . S
O447 Zn437 2.039 . S
O447 C451 1.251 . S
O448 Zn429 2.025 1_655 S
O448 C451 1.254 . S
O449 C430 1.246 . S
O449 Zn437 2.034 1_455 S
O450 Zn429 2.024 . S
O450 C430 1.249 . S
C451 O447 1.251 . S
C451 O448 1.254 . S
H452 C425 0.949 . S
H453 C427 0.950 . S
H454 C434 0.949 . S
H455 C436 0.950 . S
H456 C462 0.930 . S
H457 C466 0.930 . S
H458 C471 0.929 . S
H459 C469 0.929 . S
H460 C464 0.929 . S
H461 C470 0.929 . S
C462 H456 0.930 . S
C462 C463 1.347 1_545 S
C462 C470 1.378 . S
C463 C462 1.347 1_565 S
C463 C471 1.453 . S
C464 H460 0.929 . S
C464 C466 1.378 . S
C464 C468 1.350 . S
C465 C468 1.463 . S
C465 C470 1.350 1_565 S
C465 N473 1.427 . S
C466 H457 0.930 . S
C466 C464 1.378 . S
C466 C467 1.367 . S
C467 C466 1.367 . S
C467 C469 1.433 1_565 S
C468 C464 1.350 . S
C468 C465 1.463 . S
C468 N472 1.427 1_565 S
C469 H459 0.929 . S
C469 C467 1.433 1_545 S
C469 N472 1.384 . S
C470 H461 0.929 . S
C470 C462 1.378 . S
C470 C465 1.350 1_545 S
C471 H458 0.929 . S
C471 C463 1.453 . S
C471 N473 1.384 . S
N472 C468 1.427 1_545 S
N472 C469 1.384 . S
N473 C465 1.427 . S
N473 C471 1.384 . S
H474 C480 0.930 . S
H475 C484 0.930 . S
H476 C489 0.929 . S
H477 C487 0.929 . S
H478 C482 0.929 . S
H479 C488 0.929 . S
C480 H474 0.930 . S
C480 C481 1.367 . S
C480 C488 1.378 . S
C481 C480 1.367 . S
C481 C489 1.433 . S
C482 H478 0.929 . S
C482 C484 1.378 . S
C482 C486 1.350 . S
C483 C486 1.463 . S
C483 C488 1.350 . S
C483 N491 1.427 . S
C484 H475 0.930 . S
C484 C482 1.378 . S
C484 C485 1.367 . S
C485 C484 1.367 . S
C485 C487 1.433 . S
C486 C482 1.350 . S
C486 C483 1.463 . S
C486 N490 1.427 . S
C487 H477 0.929 . S
C487 C485 1.433 . S
C487 N490 1.384 . S
C488 H479 0.929 . S
C488 C480 1.378 . S
C488 C483 1.350 . S
C489 H476 0.929 . S
C489 C481 1.433 . S
C489 N491 1.384 . S
N490 C486 1.427 . S
N490 C487 1.384 . S
N491 C483 1.427 . S
N491 C489 1.384 . S
H492 C498 0.930 . S
H493 C502 0.930 . S
H494 C507 0.929 . S
H495 C505 0.929 . S
H496 C500 0.929 . S
H497 C506 0.929 . S
C498 H492 0.930 . S
C498 C499 1.367 . S
C498 C506 1.378 . S
C499 C498 1.367 . S
C499 C507 1.433 . S
C500 H496 0.929 . S
C500 C502 1.378 . S
C500 C504 1.350 . S
C501 C504 1.463 . S
C501 C506 1.350 . S
C501 N509 1.427 . S
C502 H493 0.930 . S
C502 C500 1.378 . S
C502 C503 1.367 . S
C503 C502 1.367 . S
C503 C505 1.433 . S
C504 C500 1.350 . S
C504 C501 1.463 . S
C504 N508 1.427 . S
C505 H495 0.929 . S
C505 C503 1.433 . S
C505 N508 1.384 . S
C506 H497 0.929 . S
C506 C498 1.378 . S
C506 C501 1.350 . S
C507 H494 0.929 . S
C507 C499 1.433 . S
C507 N509 1.384 . S
N508 C504 1.427 . S
N508 C505 1.384 . S
N509 C501 1.427 . S
N509 C507 1.384 . S
H510 C516 0.930 . S
H511 C520 0.930 . S
H512 C525 0.929 . S
H513 C523 0.929 . S
H514 C518 0.929 . S
H515 C524 0.929 . S
C516 H510 0.930 . S
C516 C517 1.367 . S
C516 C524 1.378 . S
C517 C516 1.367 . S
C517 C525 1.433 . S
C518 H514 0.929 . S
C518 C520 1.378 . S
C518 C522 1.350 . S
C519 C522 1.463 . S
C519 C524 1.350 . S
C519 N527 1.427 . S
C520 H511 0.930 . S
C520 C518 1.378 . S
C520 C521 1.367 . S
C521 C520 1.367 . S
C521 C523 1.433 . S
C522 C518 1.350 . S
C522 C519 1.463 . S
C522 N526 1.427 . S
C523 H513 0.929 . S
C523 C521 1.433 . S
C523 N526 1.384 . S
C524 H515 0.929 . S
C524 C516 1.378 . S
C524 C519 1.350 . S
C525 H512 0.929 . S
C525 C517 1.433 . S
C525 N527 1.384 . S
N526 C522 1.427 . S
N526 C523 1.384 . S
N527 C519 1.427 . S
N527 C525 1.384 . S
H528 C534 0.930 1_554 S
H529 C538 0.930 . S
H530 C543 0.929 . S
H531 C541 0.929 . S
H532 C536 0.929 . S
H533 C542 0.929 . S
C534 H528 0.930 1_556 S
C534 C535 1.341 1_565 S
C534 C542 1.378 . S
C535 C534 1.341 1_545 S
C535 C543 1.460 . S
C536 H532 0.929 . S
C536 C538 1.378 . S
C536 C540 1.350 . S
C537 C540 1.463 . S
C537 C542 1.350 1_545 S
C537 N545 1.427 . S
C538 H529 0.930 . S
C538 C536 1.378 . S
C538 C539 1.367 . S
C539 C538 1.367 . S
C539 C541 1.433 1_545 S
C540 C536 1.350 . S
C540 C537 1.463 . S
C540 N544 1.427 1_545 S
C541 H531 0.929 . S
C541 C539 1.433 1_565 S
C541 N544 1.384 . S
C542 H533 0.929 . S
C542 C534 1.378 . S
C542 C537 1.350 1_565 S
C543 H530 0.929 . S
C543 C535 1.460 . S
C543 N545 1.384 . S
N544 C540 1.427 1_565 S
N544 C541 1.384 . S
N545 C537 1.427 . S
N545 C543 1.384 . S
H546 C552 0.930 . S
H547 C556 0.930 . S
H548 C561 0.929 . S
H549 C559 0.929 . S
H550 C554 0.929 . S
H551 C560 0.929 . S
C552 H546 0.930 . S
C552 C553 1.367 1_554 S
C552 C560 1.378 1_554 S
C553 C552 1.367 1_556 S
C553 C561 1.433 . S
C554 H550 0.929 . S
C554 C556 1.378 . S
C554 C558 1.350 . S
C555 C558 1.463 . S
C555 C560 1.350 . S
C555 N563 1.427 . S
C556 H547 0.930 . S
C556 C554 1.378 . S
C556 C557 1.367 . S
C557 C556 1.367 . S
C557 C559 1.433 . S
C558 C554 1.350 . S
C558 C555 1.463 . S
C558 N562 1.427 . S
C559 H549 0.929 . S
C559 C557 1.433 . S
C559 N562 1.384 . S
C560 H551 0.929 . S
C560 C552 1.378 1_556 S
C560 C555 1.350 . S
C561 H548 0.929 . S
C561 C553 1.433 . S
C561 N563 1.384 . S
N562 C558 1.427 . S
N562 C559 1.384 . S
N563 C555 1.427 . S
N563 C561 1.384 . S
H564 C570 0.930 . S
H565 C574 0.930 . S
H566 C579 0.929 . S
H567 C577 0.929 . S
H568 C572 0.929 . S
H569 C578 0.929 . S
C570 H564 0.930 . S
C570 C571 1.367 1_556 S
C570 C578 1.378 . S
C571 C570 1.367 1_554 S
C571 C579 1.433 . S
C572 H568 0.929 . S
C572 C574 1.378 . S
C572 C576 1.350 . S
C573 C576 1.463 . S
C573 C578 1.350 . S
C573 N581 1.427 . S
C574 H565 0.930 . S
C574 C572 1.378 . S
C574 C575 1.367 . S
C575 C574 1.367 . S
C575 C577 1.433 . S
C576 C572 1.350 . S
C576 C573 1.463 . S
C576 N580 1.427 . S
C577 H567 0.929 . S
C577 C575 1.433 . S
C577 N580 1.384 . S
C578 H569 0.929 . S
C578 C570 1.378 . S
C578 C573 1.350 . S
C579 H566 0.929 . S
C579 C571 1.433 . S
C579 N581 1.384 1_554 S
N580 C576 1.427 . S
N580 C577 1.384 . S
N581 C573 1.427 . S
N581 C579 1.384 1_556 S
H582 C588 0.930 . S
H583 C592 0.930 . S
H584 C597 0.929 . S
H585 C595 0.929 . S
H586 C590 0.929 . S
H587 C596 0.929 . S
C588 H582 0.930 . S
C588 C589 1.367 . S
C588 C596 1.378 . S
C589 C588 1.367 . S
C589 C597 1.433 . S
C590 H586 0.929 . S
C590 C592 1.378 . S
C590 C594 1.350 . S
C591 C594 1.463 . S
C591 C596 1.350 . S
C591 N599 1.427 . S
C592 H583 0.930 . S
C592 C590 1.378 . S
C592 C593 1.367 . S
C593 C592 1.367 . S
C593 C595 1.433 . S
C594 C590 1.350 . S
C594 C591 1.463 . S
C594 N598 1.427 . S
C595 H585 0.929 . S
C595 C593 1.433 . S
C595 N598 1.384 . S
C596 H587 0.929 . S
C596 C588 1.378 . S
C596 C591 1.350 . S
C597 H584 0.929 . S
C597 C589 1.433 . S
C597 N599 1.384 . S
N598 C594 1.427 . S
N598 C595 1.384 . S
N599 C591 1.427 . S
N599 C597 1.384 . S
H600 C606 0.930 . S
H601 C610 0.931 1_655 S
H602 C615 0.929 . S
H603 C613 0.929 . S
H604 C608 0.929 . S
H605 C614 0.929 . S
C606 H600 0.930 . S
C606 C607 1.367 . S
C606 C614 1.378 . S
C607 C606 1.367 . S
C607 C615 1.433 . S
C608 H604 0.929 . S
C608 C610 1.378 . S
C608 C612 1.350 . S
C609 C612 1.463 . S
C609 C614 1.350 . S
C609 N617 1.427 . S
C610 H601 0.931 1_455 S
C610 C608 1.378 . S
C610 C611 1.367 . S
C611 C610 1.367 . S
C611 C613 1.433 . S
C612 C608 1.350 . S
C612 C609 1.463 . S
C612 N616 1.427 . S
C613 H603 0.929 . S
C613 C611 1.433 . S
C613 N616 1.384 . S
C614 H605 0.929 . S
C614 C606 1.378 . S
C614 C609 1.350 . S
C615 H602 0.929 . S
C615 C607 1.433 . S
C615 N617 1.384 . S
N616 C612 1.427 . S
N616 C613 1.384 . S
N617 C609 1.427 . S
N617 C615 1.384 . S
H618 C624 0.930 . S
H619 C628 0.930 . S
H620 C633 0.929 . S
H621 C631 0.939 . S
H622 C626 0.929 . S
H623 C632 0.929 . S
C624 H618 0.930 . S
C624 C625 1.386 . S
C624 C632 1.378 . S
C625 C624 1.386 . S
C625 C633 1.410 1_545 S
C626 H622 0.929 . S
C626 C628 1.378 . S
C626 C630 1.350 . S
C627 C630 1.463 . S
C627 C632 1.350 1_565 S
C627 N635 1.427 . S
C628 H619 0.930 . S
C628 C626 1.378 . S
C628 C629 1.367 . S
C629 C628 1.367 . S
C629 C631 1.421 1_565 S
C630 C626 1.350 . S
C630 C627 1.463 . S
C630 N634 1.427 1_565 S
C631 H621 0.939 . S
C631 C629 1.421 1_545 S
C631 N634 1.386 . S
C632 H623 0.929 . S
C632 C624 1.378 . S
C632 C627 1.350 1_545 S
C633 H620 0.929 . S
C633 C625 1.410 1_565 S
C633 N635 1.384 . S
N634 C630 1.427 1_545 S
N634 C631 1.386 . S
N635 C627 1.427 . S
N635 C633 1.384 . S
H636 C642 0.930 . S
H637 C646 0.930 . S
H638 C651 0.929 . S
H639 C649 0.929 . S
H640 C644 0.929 . S
H641 C650 0.929 . S
C642 H636 0.930 . S
C642 C643 1.367 . S
C642 C650 1.378 . S
C643 C642 1.367 . S
C643 C651 1.433 . S
C644 H640 0.929 . S
C644 C646 1.378 . S
C644 C648 1.350 . S
C645 C648 1.463 . S
C645 C650 1.350 . S
C645 N653 1.427 . S
C646 H637 0.930 . S
C646 C644 1.378 . S
C646 C647 1.367 . S
C647 C646 1.367 . S
C647 C649 1.433 . S
C648 C644 1.350 . S
C648 C645 1.463 . S
C648 N652 1.427 . S
C649 H639 0.929 . S
C649 C647 1.433 . S
C649 N652 1.384 . S
C650 H641 0.929 . S
C650 C642 1.378 . S
C650 C645 1.350 . S
C651 H638 0.929 . S
C651 C643 1.433 . S
C651 N653 1.384 . S
N652 C648 1.427 . S
N652 C649 1.384 . S
N653 C645 1.427 . S
N653 C651 1.384 . S
H654 C660 0.930 . S
H655 C664 0.930 . S
H656 C669 0.929 . S
H657 C667 0.929 . S
H658 C662 0.929 . S
H659 C668 0.929 . S
C660 H654 0.930 . S
C660 C661 1.367 . S
C660 C668 1.378 . S
C661 C660 1.367 . S
C661 C669 1.433 . S
C662 H658 0.929 . S
C662 C664 1.378 . S
C662 C666 1.350 . S
C663 C666 1.463 . S
C663 C668 1.350 . S
C663 N671 1.427 . S
C664 H655 0.930 . S
C664 C662 1.378 . S
C664 C665 1.367 . S
C665 C664 1.367 . S
C665 C667 1.433 . S
C666 C662 1.350 . S
C666 C663 1.463 . S
C666 N670 1.427 . S
C667 H657 0.929 . S
C667 C665 1.433 . S
C667 N670 1.384 . S
C668 H659 0.929 . S
C668 C660 1.378 . S
C668 C663 1.350 . S
C669 H656 0.929 . S
C669 C661 1.433 . S
C669 N671 1.384 . S
N670 C666 1.427 . S
N670 C667 1.384 . S
N671 C663 1.427 . S
N671 C669 1.384 . S
H672 C678 0.930 . S
H673 C682 0.920 1_455 S
H674 C687 0.929 . S
H675 C685 0.929 . S
H676 C680 0.929 . S
H677 C686 0.929 . S
C678 H672 0.930 . S
C678 C679 1.367 . S
C678 C686 1.378 . S
C679 C678 1.367 . S
C679 C687 1.433 . S
C680 H676 0.929 . S
C680 C682 1.378 . S
C680 C684 1.350 . S
C681 C684 1.463 . S
C681 C686 1.350 . S
C681 N689 1.427 . S
C682 H673 0.920 1_655 S
C682 C680 1.378 . S
C682 C683 1.367 . S
C683 C682 1.367 . S
C683 C685 1.433 . S
C684 C680 1.350 . S
C684 C681 1.463 . S
C684 N688 1.427 . S
C685 H675 0.929 . S
C685 C683 1.433 . S
C685 N688 1.384 . S
C686 H677 0.929 . S
C686 C678 1.378 . S
C686 C681 1.350 . S
C687 H674 0.929 . S
C687 C679 1.433 . S
C687 N689 1.384 . S
N688 C684 1.427 . S
N688 C685 1.384 . S
N689 C681 1.427 . S
N689 C687 1.384 . S
H690 C696 0.930 . S
H691 C700 0.930 . S
H692 C705 0.929 . S
H693 C703 0.929 . S
H694 C698 0.929 . S
H695 C704 0.929 . S
C696 H690 0.930 . S
C696 C697 1.385 . S
C696 C704 1.378 . S
C697 C696 1.385 . S
C697 C705 1.412 1_565 S
C698 H694 0.929 . S
C698 C700 1.378 . S
C698 C702 1.350 . S
C699 C702 1.463 . S
C699 C704 1.350 1_545 S
C699 N707 1.427 . S
C700 H691 0.930 . S
C700 C698 1.378 . S
C700 C701 1.367 . S
C701 C700 1.367 . S
C701 C703 1.433 1_545 S
C702 C698 1.350 . S
C702 C699 1.463 . S
C702 N706 1.427 1_545 S
C703 H693 0.929 . S
C703 C701 1.433 1_565 S
C703 N706 1.384 . S
C704 H695 0.929 . S
C704 C696 1.378 . S
C704 C699 1.350 1_565 S
C705 H692 0.929 . S
C705 C697 1.412 1_545 S
C705 N707 1.384 . S
N706 C702 1.427 1_565 S
N706 C703 1.384 . S
N707 C699 1.427 . S
N707 C705 1.384 . S
H708 C714 0.930 . S
H709 C718 0.930 . S
H710 C723 0.929 . S
H711 C721 0.929 . S
H712 C716 0.929 . S
H713 C722 0.929 . S
C714 H708 0.930 . S
C714 C715 1.367 . S
C714 C722 1.378 . S
C715 C714 1.367 . S
C715 C723 1.433 . S
C716 H712 0.929 . S
C716 C718 1.378 . S
C716 C720 1.350 . S
C717 C720 1.463 . S
C717 C722 1.350 . S
C717 N725 1.427 . S
C718 H709 0.930 . S
C718 C716 1.378 . S
C718 C719 1.367 . S
C719 C718 1.367 . S
C719 C721 1.433 . S
C720 C716 1.350 . S
C720 C717 1.463 . S
C720 N724 1.427 . S
C721 H711 0.929 . S
C721 C719 1.433 . S
C721 N724 1.384 . S
C722 H713 0.929 . S
C722 C714 1.378 . S
C722 C717 1.350 . S
C723 H710 0.929 . S
C723 C715 1.433 . S
C723 N725 1.384 . S
N724 C720 1.427 . S
N724 C721 1.384 . S
N725 C717 1.427 . S
N725 C723 1.384 . S
H726 C732 0.930 . S
H727 C736 0.930 . S
H728 C741 0.929 . S
H729 C739 0.929 . S
H730 C734 0.929 . S
H731 C740 0.929 . S
C732 H726 0.930 . S
C732 C733 1.367 . S
C732 C740 1.378 . S
C733 C732 1.367 . S
C733 C741 1.433 . S
C734 H730 0.929 . S
C734 C736 1.378 . S
C734 C738 1.350 . S
C735 C738 1.463 . S
C735 C740 1.350 . S
C735 N743 1.427 . S
C736 H727 0.930 . S
C736 C734 1.378 . S
C736 C737 1.367 . S
C737 C736 1.367 . S
C737 C739 1.433 . S
C738 C734 1.350 . S
C738 C735 1.463 . S
C738 N742 1.427 . S
C739 H729 0.929 . S
C739 C737 1.433 . S
C739 N742 1.384 . S
C740 H731 0.929 . S
C740 C732 1.378 . S
C740 C735 1.350 . S
C741 H728 0.929 . S
C741 C733 1.433 . S
C741 N743 1.384 . S
N742 C738 1.427 . S
N742 C739 1.384 . S
N743 C735 1.427 . S
N743 C741 1.384 . S
H744 C750 0.930 . S
H745 C754 0.930 1_554 S
H746 C759 0.929 . S
H747 C757 0.929 . S
H748 C752 0.929 . S
H749 C758 0.929 . S
C750 H744 0.930 . S
C750 C751 1.367 . S
C750 C758 1.378 1_554 S
C751 C750 1.367 . S
C751 C759 1.433 . S
C752 H748 0.929 . S
C752 C754 1.378 1_554 S
C752 C756 1.350 1_554 S
C753 C756 1.463 1_554 S
C753 C758 1.350 1_554 S
C753 N761 1.427 . S
C754 H745 0.930 1_556 S
C754 C752 1.378 1_556 S
C754 C755 1.367 . S
C755 C754 1.367 . S
C755 C757 1.433 . S
C756 C752 1.350 1_556 S
C756 C753 1.463 1_556 S
C756 N760 1.427 . S
C757 H747 0.929 . S
C757 C755 1.433 . S
C757 N760 1.384 . S
C758 H749 0.929 . S
C758 C750 1.378 1_556 S
C758 C753 1.350 1_556 S
C759 H746 0.929 . S
C759 C751 1.433 . S
C759 N761 1.384 . S
N760 C756 1.427 . S
N760 C757 1.384 . S
N761 C753 1.427 . S
N761 C759 1.384 . S
H762 C768 0.930 1_554 S
H763 C772 0.930 . S
H764 C777 0.929 . S
H765 C775 0.929 . S
H766 C770 0.929 . S
H767 C776 0.929 . S
C768 H762 0.930 1_556 S
C768 C769 1.408 . S
C768 C776 1.378 . S
C769 C768 1.408 . S
C769 C777 1.390 1_545 S
C770 H766 0.929 . S
C770 C772 1.378 . S
C770 C774 1.350 1_565 S
C771 C774 1.463 . S
C771 C776 1.350 . S
C771 N779 1.427 1_545 S
C772 H763 0.930 . S
C772 C770 1.378 . S
C772 C773 1.367 1_565 S
C773 C772 1.367 1_545 S
C773 C775 1.433 . S
C774 C770 1.350 1_545 S
C774 C771 1.463 . S
C774 N778 1.427 . S
C775 H765 0.929 . S
C775 C773 1.433 . S
C775 N778 1.384 . S
C776 H767 0.929 . S
C776 C768 1.378 . S
C776 C771 1.350 . S
C777 H764 0.929 . S
C777 C769 1.390 1_565 S
C777 N779 1.384 . S
N778 C774 1.427 . S
N778 C775 1.384 . S
N779 C771 1.427 1_565 S
N779 C777 1.384 . S
H780 C786 0.930 1_554 S
H781 C790 0.930 . S
H782 C795 0.929 . S
H783 C793 0.929 . S
H784 C788 0.929 . S
H785 C794 0.929 . S
C786 H780 0.930 1_556 S
C786 C787 1.367 . S
C786 C794 1.378 . S
C787 C786 1.367 . S
C787 C795 1.433 . S
C788 H784 0.929 . S
C788 C790 1.378 . S
C788 C792 1.350 . S
C789 C792 1.463 . S
C789 C794 1.350 . S
C789 N797 1.427 . S
C790 H781 0.930 . S
C790 C788 1.378 . S
C790 C791 1.367 . S
C791 C790 1.367 . S
C791 C793 1.433 . S
C792 C788 1.350 . S
C792 C789 1.463 . S
C792 N796 1.427 . S
C793 H783 0.929 . S
C793 C791 1.433 . S
C793 N796 1.384 . S
C794 H785 0.929 . S
C794 C786 1.378 . S
C794 C789 1.350 . S
C795 H782 0.929 . S
C795 C787 1.433 . S
C795 N797 1.384 . S
N796 C792 1.427 . S
N796 C793 1.384 . S
N797 C789 1.427 . S
N797 C795 1.384 . S
H798 C804 0.930 1_554 S
H799 C808 0.930 . S
H800 C813 0.929 . S
H801 C811 0.929 . S
H802 C806 0.929 . S
H803 C812 0.929 . S
C804 H798 0.930 1_556 S
C804 C805 1.367 . S
C804 C812 1.378 . S
C805 C804 1.367 . S
C805 C813 1.433 . S
C806 H802 0.929 . S
C806 C808 1.378 . S
C806 C810 1.350 . S
C807 C810 1.463 . S
C807 C812 1.350 . S
C807 N815 1.427 . S
C808 H799 0.930 . S
C808 C806 1.378 . S
C808 C809 1.367 . S
C809 C808 1.367 . S
C809 C811 1.433 . S
C810 C806 1.350 . S
C810 C807 1.463 . S
C810 N814 1.427 . S
C811 H801 0.929 . S
C811 C809 1.433 . S
C811 N814 1.384 . S
C812 H803 0.929 . S
C812 C804 1.378 . S
C812 C807 1.350 . S
C813 H800 0.929 . S
C813 C805 1.433 . S
C813 N815 1.384 . S
N814 C810 1.427 . S
N814 C811 1.384 . S
N815 C807 1.427 . S
N815 C813 1.384 . S
H816 C822 0.930 . S
H817 C826 0.930 . S
H818 C831 0.929 . S
H819 C829 0.929 . S
H820 C824 0.929 . S
H821 C830 0.929 . S
C822 H816 0.930 . S
C822 C823 1.367 . S
C822 C830 1.378 . S
C823 C822 1.367 . S
C823 C831 1.433 . S
C824 H820 0.929 . S
C824 C826 1.378 . S
C824 C828 1.350 . S
C825 C828 1.463 . S
C825 C830 1.350 . S
C825 N833 1.427 . S
C826 H817 0.930 . S
C826 C824 1.378 . S
C826 C827 1.367 . S
C827 C826 1.367 . S
C827 C829 1.433 . S
C828 C824 1.350 . S
C828 C825 1.463 . S
C828 N832 1.427 . S
C829 H819 0.929 . S
C829 C827 1.433 . S
C829 N832 1.384 . S
C830 H821 0.929 . S
C830 C822 1.378 . S
C830 C825 1.350 . S
C831 H818 0.929 . S
C831 C823 1.433 . S
C831 N833 1.384 . S
N832 C828 1.427 . S
N832 C829 1.384 . S
N833 C825 1.427 . S
N833 C831 1.384 . S
H834 C840 0.930 . S
H835 C844 0.930 . S
H836 C849 0.929 . S
H837 C847 0.929 . S
H838 C842 0.929 . S
H839 C848 0.929 . S
C840 H834 0.930 . S
C840 C841 1.399 . S
C840 C848 1.378 . S
C841 C840 1.399 . S
C841 C849 1.399 1_565 S
C842 H838 0.929 . S
C842 C844 1.378 . S
C842 C846 1.350 1_545 S
C843 C846 1.463 . S
C843 C848 1.350 . S
C843 N851 1.427 1_565 S
C844 H835 0.930 . S
C844 C842 1.378 . S
C844 C845 1.367 1_545 S
C845 C844 1.367 1_565 S
C845 C847 1.433 . S
C846 C842 1.350 1_565 S
C846 C843 1.463 . S
C846 N850 1.427 . S
C847 H837 0.929 . S
C847 C845 1.433 . S
C847 N850 1.384 . S
C848 H839 0.929 . S
C848 C840 1.378 . S
C848 C843 1.350 . S
C849 H836 0.929 . S
C849 C841 1.399 1_545 S
C849 N851 1.384 . S
N850 C846 1.427 . S
N850 C847 1.384 . S
N851 C843 1.427 1_545 S
N851 C849 1.384 . S
H852 C858 0.930 . S
H853 C862 0.930 . S
H854 C867 0.929 . S
H855 C865 0.929 . S
H856 C860 0.929 . S
H857 C866 0.929 . S
C858 H852 0.930 . S
C858 C859 1.367 . S
C858 C866 1.378 . S
C859 C858 1.367 . S
C859 C867 1.433 . S
C860 H856 0.929 . S
C860 C862 1.378 . S
C860 C864 1.350 . S
C861 C864 1.463 . S
C861 C866 1.350 . S
C861 N869 1.427 . S
C862 H853 0.930 . S
C862 C860 1.378 . S
C862 C863 1.367 . S
C863 C862 1.367 . S
C863 C865 1.433 . S
C864 C860 1.350 . S
C864 C861 1.463 . S
C864 N868 1.427 . S
C865 H855 0.929 . S
C865 C863 1.433 . S
C865 N868 1.384 . S
C866 H857 0.929 . S
C866 C858 1.378 . S
C866 C861 1.350 . S
C867 H854 0.929 . S
C867 C859 1.433 . S
C867 N869 1.384 . S
N868 C864 1.427 . S
N868 C865 1.384 . S
N869 C861 1.427 . S
N869 C867 1.384 . S
H870 C876 0.930 . S
H871 C880 0.930 . S
H872 C885 0.929 . S
H873 C883 0.929 . S
H874 C878 0.929 . S
H875 C884 0.929 . S
C876 H870 0.930 . S
C876 C877 1.367 . S
C876 C884 1.378 . S
C877 C876 1.367 . S
C877 C885 1.433 . S
C878 H874 0.929 . S
C878 C880 1.378 . S
C878 C882 1.350 . S
C879 C882 1.463 . S
C879 C884 1.350 . S
C879 N887 1.427 . S
C880 H871 0.930 . S
C880 C878 1.378 . S
C880 C881 1.367 . S
C881 C880 1.367 . S
C881 C883 1.433 . S
C882 C878 1.350 . S
C882 C879 1.463 . S
C882 N886 1.427 . S
C883 H873 0.929 . S
C883 C881 1.433 . S
C883 N886 1.384 . S
C884 H875 0.929 . S
C884 C876 1.378 . S
C884 C879 1.350 . S
C885 H872 0.929 . S
C885 C877 1.433 . S
C885 N887 1.384 . S
N886 C882 1.427 . S
N886 C883 1.384 . S
N887 C879 1.427 . S
N887 C885 1.384 . S
C463 C255 1.905 1_565 S
C467 C337 1.925 . S
C485 C358 1.795 . S
C481 C295 1.759 . S
C503 C392 1.609 . S
C499 C175 1.577 . S
C521 C426 1.762 . S
C517 C215 1.721 . S
C539 C328 1.925 . S
C535 C95 1.904 1_556 S
C553 C135 1.758 1_556 S
C557 C367 1.803 . S
C571 C15 1.582 . S
C575 C401 1.610 . S
C589 C55 1.725 . S
C593 C435 1.766 . S
C611 C349 0.692 . S
C607 C221 0.687 . S
C629 C354 0.430 . S
C625 C261 0.483 . S
C647 C388 0.631 . S
C643 C301 0.636 . S
C661 C181 0.481 . S
C665 C422 0.116 . S
C679 C61 0.720 . S
C683 C320 0.688 . S
C701 C383 0.431 . S
C697 C101 0.482 1_565 S
C719 C417 0.632 . S
C715 C141 0.675 . S
C733 C21 0.252 . S
C737 C451 0.162 . S
C751 C202 1.828 . S
C755 C333 1.868 . S
C769 C242 2.157 1_556 S
C773 C362 2.245 . S
C791 C396 2.001 . S
C787 C282 1.935 1_556 S
C809 C430 2.053 . S
C805 C162 1.905 . S
C823 C42 1.737 . S
C827 C324 1.870 . S
C845 C371 2.245 . S
C841 C82 2.157 1_565 S
C863 C405 2.003 . S
C859 C122 1.882 . S
C877 C2 1.985 . S
C881 C439 2.057 . S
