# Generated by pormake.
# Topology myd, (4,6)-cn, num edge types: 1
# Building blocks:
#     Node 0, Type 0, BuildingBlock: NAWXER_clean_sbu_0, # of connection points: 4
#     Node 1, Type 0, BuildingBlock: NAWXER_clean_sbu_0, # of connection points: 4
#     Node 2, Type 0, BuildingBlock: NAWXER_clean_sbu_0, # of connection points: 4
#     Node 3, Type 0, BuildingBlock: NAWXER_clean_sbu_0, # of connection points: 4
#     Node 4, Type 0, BuildingBlock: NAWXER_clean_sbu_0, # of connection points: 4
#     Node 5, Type 0, BuildingBlock: NAWXER_clean_sbu_0, # of connection points: 4
#     Node 6, Type 0, BuildingBlock: NAWXER_clean_sbu_0, # of connection points: 4
#     Node 7, Type 0, BuildingBlock: NAWXER_clean_sbu_0, # of connection points: 4
#     Node 8, Type 0, BuildingBlock: NAWXER_clean_sbu_0, # of connection points: 4
#     Node 9, Type 0, BuildingBlock: NAWXER_clean_sbu_0, # of connection points: 4
#     Node 10, Type 0, BuildingBlock: NAWXER_clean_sbu_0, # of connection points: 4
#     Node 11, Type 0, BuildingBlock: NAWXER_clean_sbu_0, # of connection points: 4
#     Node 12, Type 1, BuildingBlock: CUWYAW_clean_sbu_0, # of connection points: 6
#     Node 13, Type 1, BuildingBlock: CUWYAW_clean_sbu_0, # of connection points: 6
#     Node 14, Type 1, BuildingBlock: CUWYAW_clean_sbu_0, # of connection points: 6
#     Node 15, Type 1, BuildingBlock: CUWYAW_clean_sbu_0, # of connection points: 6
#     Node 16, Type 1, BuildingBlock: CUWYAW_clean_sbu_0, # of connection points: 6
#     Node 17, Type 1, BuildingBlock: CUWYAW_clean_sbu_0, # of connection points: 6
#     Node 18, Type 1, BuildingBlock: CUWYAW_clean_sbu_0, # of connection points: 6
#     Node 19, Type 1, BuildingBlock: CUWYAW_clean_sbu_0, # of connection points: 6
#     Edge 20, Type (0, 1), BuildingBlock: ZUJKAS_clean_linker_0, # of connection points: 2
#     Edge 21, Type (0, 1), BuildingBlock: ZUJKAS_clean_linker_0, # of connection points: 2
#     Edge 22, Type (0, 1), BuildingBlock: ZUJKAS_clean_linker_0, # of connection points: 2
#     Edge 23, Type (0, 1), BuildingBlock: ZUJKAS_clean_linker_0, # of connection points: 2
#     Edge 24, Type (0, 1), BuildingBlock: ZUJKAS_clean_linker_0, # of connection points: 2
#     Edge 25, Type (0, 1), BuildingBlock: ZUJKAS_clean_linker_0, # of connection points: 2
#     Edge 26, Type (0, 1), BuildingBlock: ZUJKAS_clean_linker_0, # of connection points: 2
#     Edge 27, Type (0, 1), BuildingBlock: ZUJKAS_clean_linker_0, # of connection points: 2
#     Edge 28, Type (0, 1), BuildingBlock: ZUJKAS_clean_linker_0, # of connection points: 2
#     Edge 29, Type (0, 1), BuildingBlock: ZUJKAS_clean_linker_0, # of connection points: 2
#     Edge 30, Type (0, 1), BuildingBlock: ZUJKAS_clean_linker_0, # of connection points: 2
#     Edge 31, Type (0, 1), BuildingBlock: ZUJKAS_clean_linker_0, # of connection points: 2
#     Edge 32, Type (0, 1), BuildingBlock: ZUJKAS_clean_linker_0, # of connection points: 2
#     Edge 33, Type (0, 1), BuildingBlock: ZUJKAS_clean_linker_0, # of connection points: 2
#     Edge 34, Type (0, 1), BuildingBlock: ZUJKAS_clean_linker_0, # of connection points: 2
#     Edge 35, Type (0, 1), BuildingBlock: ZUJKAS_clean_linker_0, # of connection points: 2
#     Edge 36, Type (0, 1), BuildingBlock: ZUJKAS_clean_linker_0, # of connection points: 2
#     Edge 37, Type (0, 1), BuildingBlock: ZUJKAS_clean_linker_0, # of connection points: 2
#     Edge 38, Type (0, 1), BuildingBlock: ZUJKAS_clean_linker_0, # of connection points: 2
#     Edge 39, Type (0, 1), BuildingBlock: ZUJKAS_clean_linker_0, # of connection points: 2
#     Edge 40, Type (0, 1), BuildingBlock: ZUJKAS_clean_linker_0, # of connection points: 2
#     Edge 41, Type (0, 1), BuildingBlock: ZUJKAS_clean_linker_0, # of connection points: 2
#     Edge 42, Type (0, 1), BuildingBlock: ZUJKAS_clean_linker_0, # of connection points: 2
#     Edge 43, Type (0, 1), BuildingBlock: ZUJKAS_clean_linker_0, # of connection points: 2
#     Edge 44, Type (0, 1), BuildingBlock: ZUJKAS_clean_linker_0, # of connection points: 2
#     Edge 45, Type (0, 1), BuildingBlock: ZUJKAS_clean_linker_0, # of connection points: 2
#     Edge 46, Type (0, 1), BuildingBlock: ZUJKAS_clean_linker_0, # of connection points: 2
#     Edge 47, Type (0, 1), BuildingBlock: ZUJKAS_clean_linker_0, # of connection points: 2
#     Edge 48, Type (0, 1), BuildingBlock: ZUJKAS_clean_linker_0, # of connection points: 2
#     Edge 49, Type (0, 1), BuildingBlock: ZUJKAS_clean_linker_0, # of connection points: 2
#     Edge 50, Type (0, 1), BuildingBlock: ZUJKAS_clean_linker_0, # of connection points: 2
#     Edge 51, Type (0, 1), BuildingBlock: ZUJKAS_clean_linker_0, # of connection points: 2
#     Edge 52, Type (0, 1), BuildingBlock: ZUJKAS_clean_linker_0, # of connection points: 2
#     Edge 53, Type (0, 1), BuildingBlock: ZUJKAS_clean_linker_0, # of connection points: 2
#     Edge 54, Type (0, 1), BuildingBlock: ZUJKAS_clean_linker_0, # of connection points: 2
#     Edge 55, Type (0, 1), BuildingBlock: ZUJKAS_clean_linker_0, # of connection points: 2
#     Edge 56, Type (0, 1), BuildingBlock: ZUJKAS_clean_linker_0, # of connection points: 2
#     Edge 57, Type (0, 1), BuildingBlock: ZUJKAS_clean_linker_0, # of connection points: 2
#     Edge 58, Type (0, 1), BuildingBlock: ZUJKAS_clean_linker_0, # of connection points: 2
#     Edge 59, Type (0, 1), BuildingBlock: ZUJKAS_clean_linker_0, # of connection points: 2
#     Edge 60, Type (0, 1), BuildingBlock: ZUJKAS_clean_linker_0, # of connection points: 2
#     Edge 61, Type (0, 1), BuildingBlock: ZUJKAS_clean_linker_0, # of connection points: 2
#     Edge 62, Type (0, 1), BuildingBlock: ZUJKAS_clean_linker_0, # of connection points: 2
#     Edge 63, Type (0, 1), BuildingBlock: ZUJKAS_clean_linker_0, # of connection points: 2
#     Edge 64, Type (0, 1), BuildingBlock: ZUJKAS_clean_linker_0, # of connection points: 2
#     Edge 65, Type (0, 1), BuildingBlock: ZUJKAS_clean_linker_0, # of connection points: 2
#     Edge 66, Type (0, 1), BuildingBlock: ZUJKAS_clean_linker_0, # of connection points: 2
#     Edge 67, Type (0, 1), BuildingBlock: ZUJKAS_clean_linker_0, # of connection points: 2
# Relax obj value: 0.351
# Max RMSD: 0.389
# Mean RMSD: 0.177
data_MOF--net-myd--node1-NAWXER_clean_sbu_0--node2-CUWYAW_clean_sbu_0--edge1-ZUJKAS_clean_linker_0
_symmetry_space_group_name_H-M    P1
_symmetry_Int_Tables_number       1
_symmetry_cell_setting            triclinic
loop_
_symmetry_equiv_pos_as_xyz
'x, y, z'
_cell_length_a     62.514979
_cell_length_b     61.913109
_cell_length_c     62.217684
_cell_angle_alpha  88.476517
_cell_angle_beta   88.126962
_cell_angle_gamma 86.092625
loop_
_atom_site_label
_atom_site_type_symbol
_atom_site_fract_x
_atom_site_fract_y
_atom_site_fract_z
_atom_type_partial_charge
C0 C 0.07328 0.29686 0.32064 0.0
C1 C 0.04859 0.34822 0.37608 0.0
O2 O 0.085 0.30852 0.33121 0.0
Zn3 Zn 0.06137 0.32118 0.3486 0.0
O4 O 0.053 0.29734 0.32442 0.0
Zn5 Zn 0.02929 0.31332 0.34562 0.0
O6 O 0.01145 0.32826 0.32339 0.0
O7 O 0.0441 0.33948 0.32341 0.0
O8 O 0.03282 0.33849 0.36893 0.0
O9 O 0.06743 0.34268 0.36916 0.0
O10 O 0.05378 0.2921 0.36677 0.0
O11 O 0.01987 0.28728 0.36169 0.0
C12 C 0.02546 0.34034 0.3152 0.0
C13 C 0.03762 0.28055 0.36982 0.0
C14 C 0.99589 0.77834 0.28047 0.0
C15 C 1.00563 0.72147 0.22738 0.0
O16 O 0.01538 0.77079 0.27789 0.0
Zn17 Zn 0.03384 0.74741 0.25873 0.0
O18 O 0.98128 0.77079 0.26965 0.0
Zn19 Zn 1.00045 0.75062 0.25359 0.0
O20 O 0.0106 0.72761 0.27875 0.0
O21 O 0.04575 0.7284 0.28077 0.0
O22 O 0.98872 0.7331 0.23217 0.0
O23 O 0.0233 0.72513 0.2361 0.0
O24 O 0.05282 0.76602 0.24291 0.0
O25 O 0.01883 0.77342 0.23561 0.0
C26 C 0.02825 0.72094 0.28752 0.0
C27 C 0.03852 0.77788 0.23336 0.0
C28 C 0.38112 0.03859 0.2702 0.0
C29 C 0.32536 0.02051 0.32305 0.0
O30 O 0.37561 0.02004 0.27651 0.0
Zn31 Zn 0.35456 0.02864 0.29873 0.0
O32 O 0.37323 0.05538 0.28017 0.0
Zn33 Zn 0.35047 0.06186 0.30667 0.0
O34 O 0.36659 0.07065 0.33195 0.0
O35 O 0.37214 0.03581 0.32676 0.0
O36 O 0.32904 0.04059 0.32247 0.0
O37 O 0.33668 1.00703 0.31164 0.0
O38 O 0.33013 0.04771 0.28076 0.0
O39 O 0.32823 0.0811 0.2924 0.0
C40 C 0.37503 0.0523 0.33812 0.0
C41 C 0.32138 0.0671 0.28006 0.0
C42 C 0.72297 0.51625 0.33345 0.0
C43 C 0.66367 0.52151 0.38753 0.0
O44 O 0.71542 0.50073 0.34445 0.0
Zn45 Zn 0.69195 0.51765 0.35894 0.0
O46 O 0.71428 0.53549 0.33553 0.0
Zn47 Zn 0.68813 0.55177 0.35323 0.0
O48 O 0.7029 0.57184 0.36971 0.0
O49 O 0.70856 0.53733 0.37972 0.0
O50 O 0.66717 0.53964 0.37808 0.0
O51 O 0.67346 0.50422 0.38065 0.0
O52 O 0.67224 0.52741 0.33237 0.0
O53 O 0.66974 0.5631 0.3309 0.0
C54 C 0.71114 0.55741 0.38243 0.0
C55 C 0.66533 0.54521 0.32319 0.0
C56 C 0.326 0.38073 0.01255 0.0
C57 C 0.38458 0.32365 0.01328 0.0
O58 O 0.33383 0.37016 0.99655 0.0
Zn59 Zn 0.35797 0.35476 0.01103 0.0
O60 O 0.33591 0.37931 0.0303 0.0
Zn61 Zn 0.3633 0.36151 0.04353 0.0
O62 O 0.38345 0.3826 0.04954 0.0
O63 O 0.38166 0.37806 0.01472 0.0
O64 O 0.38234 0.33391 0.03096 0.0
O65 O 0.37398 0.33064 0.9971 0.0
O66 O 0.34044 0.33693 0.03529 0.0
O67 O 0.34872 0.34762 0.06749 0.0
C68 C 0.38983 0.38721 0.03052 0.0
C69 C 0.33821 0.33575 0.05585 0.0
C70 C 0.29413 0.80869 0.53503 0.0
C71 C 0.35356 0.75364 0.55356 0.0
O72 O 0.30258 0.79847 0.51882 0.0
Zn73 Zn 0.32643 0.772 0.51261 0.0
O74 O 0.30047 0.80323 0.55378 0.0
Zn75 Zn 0.3224 0.78008 0.54557 0.0
O76 O 0.34491 0.79794 0.52653 0.0
O77 O 0.34627 0.78599 0.49326 0.0
O78 O 0.34177 0.76506 0.56662 0.0
O79 O 0.34916 0.75469 0.53353 0.0
O80 O 0.30968 0.74989 0.50146 0.0
O81 O 0.30281 0.75524 0.53593 0.0
C82 C 0.35266 0.7986 0.50717 0.0
C83 C 0.29929 0.74535 0.51868 0.0
C84 C 0.82693 0.88218 0.50343 0.0
C85 C 0.88475 0.82413 0.5039 0.0
O86 O 0.83463 0.87174 0.48727 0.0
Zn87 Zn 0.85856 0.85584 0.50164 0.0
O88 O 0.83682 0.88036 0.52119 0.0
Zn89 Zn 0.86371 0.86165 0.53448 0.0
O90 O 0.88447 0.88184 0.54127 0.0
O91 O 0.88227 0.87908 0.50622 0.0
O92 O 0.88246 0.83419 0.52168 0.0
O93 O 0.87434 0.83139 0.4877 0.0
O94 O 0.84021 0.8381 0.52511 0.0
O95 O 0.8482 0.8475 0.55781 0.0
C96 C 0.8907 0.8873 0.52242 0.0
C97 C 0.83748 0.83642 0.54557 0.0
C98 C 0.52484 0.83909 0.81399 0.0
C99 C 0.53762 0.78044 0.87001 0.0
O100 O 0.51082 0.82746 0.82288 0.0
Zn101 Zn 0.52892 0.8126 0.84521 0.0
O102 O 0.54372 0.83796 0.82162 0.0
Zn103 Zn 0.56148 0.82016 0.84647 0.0
O104 O 0.58418 0.80654 0.8282 0.0
O105 O 0.55176 0.79487 0.82461 0.0
O106 O 0.55392 0.79158 0.86579 0.0
O107 O 0.51952 0.78741 0.86275 0.0
O108 O 0.53373 0.83799 0.86759 0.0
O109 O 0.56837 0.84219 0.86635 0.0
C110 C 0.57188 0.79377 0.81974 0.0
C111 C 0.54977 0.84781 0.87391 0.0
C112 C 0.52385 0.22106 0.78629 0.0
C113 C 0.53123 0.2788 0.73242 0.0
O114 O 0.50577 0.22761 0.77834 0.0
Zn115 Zn 0.49438 0.25046 0.75365 0.0
O116 O 0.54098 0.22874 0.7788 0.0
Zn117 Zn 0.52791 0.24796 0.75752 0.0
O118 O 0.50971 0.2708 0.77774 0.0
O119 O 0.47543 0.2704 0.77023 0.0
O120 O 0.54602 0.26716 0.74149 0.0
O121 O 0.51172 0.27386 0.73513 0.0
O122 O 0.48223 0.23233 0.73291 0.0
O123 O 0.51722 0.22604 0.7345 0.0
C124 C 0.49016 0.278 0.78086 0.0
C125 C 0.49929 0.22163 0.72676 0.0
C126 C 0.81884 0.56743 0.78207 0.0
C127 C 0.87406 0.55353 0.83906 0.0
O128 O 0.82601 0.5816 0.79399 0.0
Zn129 Zn 0.84889 0.56273 0.8081 0.0
O130 O 0.82762 0.54808 0.78293 0.0
Zn131 Zn 0.85265 0.52944 0.80018 0.0
O132 O 0.83512 0.50783 0.81371 0.0
O133 O 0.829 0.5412 0.82566 0.0
O134 O 0.871 0.53694 0.82786 0.0
O135 O 0.8656 0.57187 0.83284 0.0
O136 O 0.87118 0.55612 0.78128 0.0
O137 O 0.87327 0.5208 0.77751 0.0
C138 C 0.82526 0.52112 0.82649 0.0
C139 C 0.8788 0.53933 0.77115 0.0
C140 C 0.21876 0.01633 0.83207 0.0
C141 C 0.16066 0.02638 0.88704 0.0
O142 O 0.21005 1.00142 0.84301 0.0
Zn143 Zn 0.18836 0.02007 0.85802 0.0
O144 O 0.21148 0.03608 0.83415 0.0
Zn145 Zn 0.18643 0.05427 0.85196 0.0
O146 O 0.20282 0.07333 0.86803 0.0
O147 O 0.20801 0.03854 0.87689 0.0
O148 O 0.16516 0.04398 0.87715 0.0
O149 O 0.1696 1.00849 0.88072 0.0
O150 O 0.16863 0.03075 0.8319 0.0
O151 O 0.1684 0.06635 0.82959 0.0
C152 C 0.21196 0.05832 0.87952 0.0
C153 C 0.16265 0.04869 0.82244 0.0
C154 C 0.79958 0.24729 0.02097 0.0
C155 C 0.85307 0.29943 1.00577 0.0
O156 O 0.80322 0.25809 0.03764 0.0
Zn157 Zn 0.82378 0.28296 0.04577 0.0
O158 O 0.81023 0.25056 1.00361 0.0
Zn159 Zn 0.827 0.27312 0.01334 0.0
O160 O 0.85005 0.25668 0.03438 0.0
O161 O 0.84346 0.26871 0.06699 0.0
O162 O 0.84642 0.28605 0.99279 0.0
O163 O 0.8458 0.29983 0.0253 0.0
O164 O 0.80287 0.307 0.05352 0.0
O165 O 0.8029 0.29963 0.0191 0.0
C166 C 0.85486 0.25656 0.05427 0.0
C167 C 0.79534 0.31102 0.03494 0.0
C168 C 0.06449 0.07068 0.16966 0.0
Eu169 Eu 0.08009 0.09852 0.14205 0.0
C170 C 0.06429 0.0469 0.17237 0.0
C171 C 0.05868 0.03384 0.15557 0.0
C172 C 0.05806 0.01142 0.15877 0.0
C173 C 0.0632 1.00159 0.17876 0.0
C174 C 0.06911 0.01469 0.19542 0.0
C175 C 0.06958 0.0371 0.19226 0.0
C176 C 0.08978 0.08509 0.10093 0.0
C177 C 0.13162 0.10212 0.14901 0.0
C178 C 0.11775 0.1551 0.08627 0.0
Eu179 Eu 0.10238 0.12939 0.11575 0.0
C180 C 0.13368 0.17145 0.08655 0.0
C181 C 0.13506 0.18438 0.1046 0.0
C182 C 0.15035 0.1997 0.10497 0.0
C183 C 0.16475 0.20223 0.08742 0.0
C184 C 0.16331 0.18926 0.06934 0.0
C185 C 0.14785 0.17401 0.06891 0.0
C186 C 0.09635 0.14269 0.15657 0.0
C187 C 0.05077 0.13259 0.11698 0.0
O188 O 0.08291 0.07902 0.17179 0.0
O189 O 0.05366 0.07982 0.15388 0.0
O190 O 0.07187 0.08219 0.11109 0.0
O191 O 0.10192 0.09416 0.11294 0.0
O192 O 0.1131 0.09605 0.15723 0.0
O193 O 0.13225 0.11342 0.1307 0.0
O194 O 0.09999 0.15966 0.09735 0.0
O195 O 0.12503 0.13493 0.08894 0.0
O196 O 0.11314 0.14596 0.14458 0.0
O197 O 0.08236 0.13389 0.1462 0.0
O198 O 0.06787 0.1321 0.10387 0.0
O199 O 0.0526 0.12348 0.13628 0.0
H200 H 0.0547 0.04092 0.13998 0.0
H201 H 0.0537 1.00175 0.14554 0.0
H202 H 0.07294 1.00766 0.21107 0.0
H203 H 0.07394 0.04685 0.20544 0.0
H204 H 0.12433 0.18264 0.11847 0.0
H205 H 0.15082 0.20962 0.119 0.0
H206 H 0.17439 0.19057 0.05569 0.0
H207 H 0.14709 0.16407 0.05492 0.0
C208 C 0.91327 0.50329 0.09552 0.0
Eu209 Eu 0.95432 0.49363 0.09105 0.0
C210 C 0.89889 0.50447 0.11485 0.0
C211 C 0.90716 0.50732 0.13524 0.0
C212 C 0.89374 0.5071 0.15371 0.0
C213 C 0.87174 0.504 0.15221 0.0
C214 C 0.86352 0.50133 0.13169 0.0
C215 C 0.87698 0.50152 0.11322 0.0
C216 C 0.97445 0.47091 0.12406 0.0
C217 C 0.98531 0.52944 0.10536 0.0
C218 C 0.04382 0.4818 0.07544 0.0
Eu219 Eu 1.00191 0.48701 0.07747 0.0
C220 C 0.06379 0.47124 0.06567 0.0
C221 C 0.07184 0.47757 0.04522 0.0
C222 C 0.09239 0.46985 0.03789 0.0
C223 C 0.10545 0.45584 0.05092 0.0
C224 C 0.09701 0.44898 0.07101 0.0
C225 C 0.07652 0.4566 0.07827 0.0
C226 C 0.9759 0.49971 0.04413 0.0
C227 C 0.97117 0.45149 0.06435 0.0
O228 O 0.92745 0.51791 0.09358 0.0
O229 O 0.92143 0.48389 0.09087 0.0
O230 O 0.95432 0.47687 0.12378 0.0
O231 O 0.98328 0.47733 0.10663 0.0
O232 O 0.96559 0.52328 0.10568 0.0
O233 O 1.00148 0.51851 0.0955 0.0
O234 O 0.03171 0.47011 0.08801 0.0
O235 O 0.03278 0.49677 0.06441 0.0
O236 O 0.993 0.48664 0.0426 0.0
O237 O 0.97377 0.50679 0.06323 0.0
O238 O 0.99091 0.45415 0.07023 0.0
O239 O 0.95533 0.46633 0.06785 0.0
H240 H 0.92406 0.50954 0.13693 0.0
H241 H 0.90061 0.50949 0.16915 0.0
H242 H 0.84675 0.4986 0.12992 0.0
H243 H 0.87033 0.49905 0.09769 0.0
H244 H 0.0626 0.48904 0.03518 0.0
H245 H 0.09839 0.4756 0.0224 0.0
H246 H 0.10643 0.43795 0.08135 0.0
H247 H 0.07092 0.4516 0.09418 0.0
C248 C 0.13128 0.0509 0.528 0.0
Eu249 Eu 0.11379 0.03417 0.49537 0.0
C250 C 0.13136 0.04832 0.5516 0.0
C251 C 0.11226 0.0467 0.5639 0.0
C252 C 0.1127 0.04554 0.58636 0.0
C253 C 0.13225 0.04584 0.59691 0.0
C254 C 0.15136 0.04684 0.58444 0.0
C255 C 0.15089 0.04815 0.56202 0.0
C256 C 0.07508 0.01598 0.50099 0.0
C257 C 0.13198 0.98383 0.48994 0.0
C258 C 0.07542 0.99305 0.43208 0.0
Eu259 Eu 0.09976 0.01053 0.45853 0.0
C260 C 0.06147 0.98313 0.41706 0.0
C261 C 0.07045 0.96957 0.401 0.0
C262 C 0.05727 0.95855 0.38801 0.0
C263 C 0.03478 0.96107 0.39061 0.0
C264 C 0.02584 0.97542 0.40617 0.0
C265 C 0.03907 0.98623 0.41936 0.0
C266 C 0.14009 0.02153 0.45293 0.0
C267 C 0.09283 0.06395 0.45841 0.0
O268 O 0.14062 0.03509 0.51692 0.0
O269 O 0.11346 0.05886 0.51959 0.0
O270 O 0.07827 0.03532 0.50686 0.0
O271 O 0.09204 1.00758 0.49288 0.0
O272 O 0.13531 1.00301 0.49759 0.0
O273 O 0.11612 0.98169 0.47665 0.0
O274 O 0.06811 1.00094 0.45042 0.0
O275 O 0.09593 0.99475 0.42803 0.0
O276 O 0.13303 1.00402 0.44561 0.0
O277 O 0.12519 0.03398 0.46108 0.0
O278 O 0.08558 0.04564 0.45175 0.0
O279 O 0.10731 0.06317 0.47337 0.0
H280 H 0.09696 0.04668 0.55622 0.0
H281 H 0.09767 0.04497 0.59544 0.0
H282 H 0.16674 0.04664 0.592 0.0
H283 H 0.1658 0.04925 0.55281 0.0
H284 H 0.08769 0.96682 0.39897 0.0
H285 H 0.06484 0.94735 0.37656 0.0
H286 H 0.00863 0.97808 0.40841 0.0
H287 H 0.03174 0.99675 0.43157 0.0
C288 C 0.05036 0.59618 0.54543 0.0
Eu289 Eu 0.01941 0.57817 0.52695 0.0
C290 C 0.07045 0.6066 0.53964 0.0
C291 C 0.08833 0.59501 0.53019 0.0
C292 C 0.10748 0.60505 0.52595 0.0
C293 C 0.10913 0.62689 0.53096 0.0
C294 C 0.09113 0.6385 0.54011 0.0
C295 C 0.07206 0.62844 0.54447 0.0
C296 C 0.02471 0.53864 0.50824 0.0
C297 C 0.01321 0.5859 0.47723 0.0
C298 C 0.95044 0.54319 0.49081 0.0
Eu299 Eu 0.97982 0.56254 0.5099 0.0
C300 C 0.92767 0.54024 0.49533 0.0
C301 C 0.91399 0.55721 0.50347 0.0
C302 C 0.89204 0.55484 0.50593 0.0
C303 C 0.88344 0.53535 0.50057 0.0
C304 C 0.89746 0.51789 0.49388 0.0
C305 C 0.91941 0.52039 0.49115 0.0
C306 C 0.97377 0.60373 0.5244 0.0
C307 C 0.98272 0.56062 0.56082 0.0
O308 O 0.03243 0.60673 0.53998 0.0
O309 O 0.05006 0.5753 0.5429 0.0
O310 O 0.03836 0.55346 0.50613 0.0
O311 O 0.00937 0.54499 0.52073 0.0
O312 O 0.02187 0.59368 0.49417 0.0
O313 O 0.99913 0.57091 0.4794 0.0
O314 O 0.96382 0.53315 0.50398 0.0
O315 O 0.9554 0.56293 0.48586 0.0
O316 O 0.95983 0.58918 0.52668 0.0
O317 O 0.99015 0.59594 0.51413 0.0
O318 O 0.973 0.55301 0.54444 0.0
O319 O 0.99978 0.57197 0.5578 0.0
H320 H 0.08761 0.57815 0.52624 0.0
H321 H 0.12101 0.59573 0.51871 0.0
H322 H 0.09194 0.65524 0.54444 0.0
H323 H 0.0586 0.6377 0.55192 0.0
H324 H 0.92013 0.57259 0.50719 0.0
H325 H 0.88175 0.56871 0.5109 0.0
H326 H 0.89139 0.50254 0.49002 0.0
H327 H 0.92985 0.507 0.48524 0.0
C328 C 0.4162 0.99731 0.60097 0.0
Eu329 Eu 0.45681 0.98974 0.59049 0.0
C330 C 0.40234 0.99719 0.62064 0.0
C331 C 0.41001 1.0022 0.64078 0.0
C332 C 0.39646 1.00182 0.6592 0.0
C333 C 0.37509 0.99621 0.65784 0.0
C334 C 0.36762 0.99107 0.63763 0.0
C335 C 0.3811 0.99158 0.61926 0.0
C336 C 0.48276 0.96334 0.61637 0.0
C337 C 0.48584 0.02863 0.60395 0.0
C338 C 0.54545 0.97645 0.57556 0.0
Eu339 Eu 0.50428 0.98738 0.57643 0.0
C340 C 0.56496 0.9684 0.56299 0.0
C341 C 0.57629 0.9823 0.54921 0.0
C342 C 0.59645 0.97549 0.54023 0.0
C343 C 0.60589 0.95463 0.54486 0.0
C344 C 0.59417 0.94053 0.55808 0.0
C345 C 0.57405 0.94735 0.56705 0.0
C346 C 0.4812 1.00589 0.54255 0.0
C347 C 0.47292 0.95517 0.55623 0.0
O348 O 0.42978 0.01245 0.59892 0.0
O349 O 0.42456 0.97849 0.59483 0.0
O350 O 0.46353 0.9597 0.61123 0.0
O351 O 0.48716 0.98158 0.60827 0.0
O352 O 0.46643 0.02176 0.60235 0.0
O353 O 0.50313 0.01748 0.59642 0.0
O354 O 0.53079 0.96287 0.58079 0.0
O355 O 0.53731 0.99621 0.5717 0.0
O356 O 0.50193 1.0027 0.54258 0.0
O357 O 0.47388 0.99966 0.56071 0.0
O358 O 0.49226 0.95641 0.56391 0.0
O359 O 0.45718 0.96966 0.5611 0.0
H360 H 0.42645 1.00634 0.64227 0.0
H361 H 0.4028 1.00564 0.67453 0.0
H362 H 0.35121 0.98695 0.63594 0.0
H363 H 0.37489 0.98761 0.6039 0.0
H364 H 0.56993 0.99871 0.54585 0.0
H365 H 0.60477 0.98672 0.52989 0.0
H366 H 0.60093 0.92448 0.56232 0.0
H367 H 0.56597 0.93635 0.57789 0.0
C368 C 0.55892 0.57105 0.66374 0.0
Eu369 Eu 0.58175 0.59654 0.63952 0.0
C370 C 0.55821 0.54754 0.66796 0.0
C371 C 0.56413 0.53255 0.65192 0.0
C372 C 0.56269 0.51034 0.65604 0.0
C373 C 0.55544 0.50266 0.67632 0.0
C374 C 0.54988 0.51779 0.69242 0.0
C375 C 0.55122 0.53999 0.68825 0.0
C376 C 0.59845 0.58045 0.60144 0.0
C377 C 0.63121 0.60249 0.64784 0.0
C378 C 0.62319 0.64861 0.58188 0.0
Eu379 Eu 0.60101 0.62831 0.61117 0.0
C380 C 0.63876 0.66523 0.58211 0.0
C381 C 0.63904 0.67908 0.59958 0.0
C382 C 0.65291 0.69581 0.59915 0.0
C383 C 0.6669 0.69885 0.58133 0.0
C384 C 0.66674 0.6847 0.56399 0.0
C385 C 0.65272 0.66805 0.56438 0.0
C386 C 0.58569 0.64702 0.64788 0.0
C387 C 0.55082 0.6297 0.61231 0.0
O388 O 0.57562 0.58016 0.6705 0.0
O389 O 0.55346 0.57817 0.64461 0.0
O390 O 0.60071 0.5705 0.61982 0.0
O391 O 0.58737 0.59786 0.60392 0.0
O392 O 0.61351 0.5946 0.65596 0.0
O393 O 0.63062 0.61457 0.62983 0.0
O394 O 0.60377 0.65503 0.5883 0.0
O395 O 0.62934 0.62942 0.58964 0.0
O396 O 0.58588 0.65651 0.62911 0.0
O397 O 0.59482 0.62821 0.64684 0.0
O398 O 0.56736 0.62986 0.59861 0.0
O399 O 0.55358 0.62073 0.63162 0.0
H400 H 0.56964 0.53801 0.63614 0.0
H401 H 0.56689 0.49924 0.64317 0.0
H402 H 0.54462 0.5125 0.70834 0.0
H403 H 0.54671 0.55129 0.70087 0.0
H404 H 0.62829 0.67715 0.61342 0.0
H405 H 0.65247 0.70654 0.61265 0.0
H406 H 0.6776 0.68634 0.55021 0.0
H407 H 0.65269 0.65746 0.55079 0.0
C408 C 0.62797 0.55164 0.02902 0.0
Eu409 Eu 0.61146 0.53418 0.99624 0.0
C410 C 0.62934 0.54796 0.0524 0.0
C411 C 0.61271 0.53887 0.06452 0.0
C412 C 0.61385 0.53669 0.0869 0.0
C413 C 0.63171 0.54342 0.09749 0.0
C414 C 0.64853 0.55203 0.08517 0.0
C415 C 0.64732 0.5543 0.06284 0.0
C416 C 0.57288 0.51576 0.99927 0.0
C417 C 0.63226 0.4845 0.98983 0.0
C418 C 0.58044 0.4892 0.92924 0.0
Eu419 Eu 0.59988 0.51064 0.95728 0.0
C420 C 0.56275 0.48394 0.91549 0.0
C421 C 0.56578 0.48467 0.89305 0.0
C422 C 0.55212 0.4743 0.87993 0.0
C423 C 0.5353 0.46271 0.88901 0.0
C424 C 0.53127 0.46349 0.91137 0.0
C425 C 0.54483 0.47401 0.92447 0.0
C426 C 0.63996 0.52332 0.95498 0.0
C427 C 0.58908 0.56319 0.95922 0.0
O428 O 0.63867 0.53756 0.0168 0.0
O429 O 0.609 0.55755 0.0218 0.0
O430 O 0.57603 0.53432 1.00721 0.0
O431 O 0.59012 0.50773 0.99127 0.0
O432 O 0.6321 0.50263 1.00069 0.0
O433 O 0.61981 0.48295 0.9732 0.0
O434 O 0.57803 0.48648 0.95007 0.0
O435 O 0.59337 0.5043 0.92355 0.0
O436 O 0.63413 0.50588 0.94642 0.0
O437 O 0.62408 0.53485 0.96244 0.0
O438 O 0.58259 0.54465 0.95218 0.0
O439 O 0.60357 0.56288 0.9742 0.0
H440 H 0.59875 0.5337 0.05672 0.0
H441 H 0.60077 0.52975 0.09592 0.0
H442 H 0.66239 0.55759 0.09285 0.0
H443 H 0.66029 0.56135 0.05374 0.0
H444 H 0.57952 0.49208 0.88569 0.0
H445 H 0.55542 0.47445 0.86273 0.0
H446 H 0.5186 0.45467 0.919 0.0
H447 H 0.54208 0.47301 0.94174 0.0
C448 C 0.55345 0.09312 0.04501 0.0
Eu449 Eu 0.52162 0.07722 0.02599 0.0
C450 C 0.57402 0.10274 0.0401 0.0
C451 C 0.59098 0.09826 0.05405 0.0
C452 C 0.61017 0.10837 0.05087 0.0
C453 C 0.61278 0.12329 0.03368 0.0
C454 C 0.59595 0.12725 0.01929 0.0
C455 C 0.57673 0.11705 0.02246 0.0
C456 C 0.52547 0.03834 1.00601 0.0
C457 C 0.51456 0.08633 0.97668 0.0
C458 C 0.44958 0.04742 0.99118 0.0
Eu459 Eu 0.48116 0.06373 1.00971 0.0
C460 C 0.42641 0.04783 0.99605 0.0
C461 C 0.41457 0.06741 1.00037 0.0
C462 C 0.3924 0.06785 1.00356 0.0
C463 C 0.38164 0.04868 1.00283 0.0
C464 C 0.39376 0.02891 0.99989 0.0
C465 C 0.41595 0.02853 0.99638 0.0
C466 C 0.47705 0.10456 0.02555 0.0
C467 C 0.4853 0.05986 0.06029 0.0
O468 O 0.53598 0.10456 0.03969 0.0
O469 O 0.55258 0.07251 0.04141 0.0
O470 O 0.53949 0.05282 1.00419 0.0
O471 O 0.51045 0.04454 0.01899 0.0
O472 O 0.52381 0.09358 0.99354 0.0
O473 O 0.50024 0.07159 0.97896 0.0
O474 O 0.46185 0.03632 1.0047 0.0
O475 O 0.45715 0.06588 0.9852 0.0
O476 O 0.46276 0.09043 0.02809 0.0
O477 O 0.49271 0.09655 0.01443 0.0
O478 O 0.47509 0.05288 0.04395 0.0
O479 O 0.50252 0.07091 0.05714 0.0
H480 H 0.58924 0.08718 0.06768 0.0
H481 H 0.62293 0.1046 0.06201 0.0
H482 H 0.59735 0.13874 1.00598 0.0
H483 H 0.56385 0.12069 0.01142 0.0
H484 H 0.42232 0.08253 1.00063 0.0
H485 H 0.38366 0.08342 1.00547 0.0
H486 H 0.38603 0.01379 0.99965 0.0
H487 H 0.4249 0.01321 0.99348 0.0
H488 H 0.07189 0.26379 0.3929 0.0
H489 H 0.07867 0.22697 0.40758 0.0
H490 H 0.01764 0.20987 0.38544 0.0
H491 H 0.01064 0.24684 0.37076 0.0
H492 H 0.05383 0.20273 0.43875 0.0
H493 H 0.06106 0.16257 0.35976 0.0
H494 H 0.06287 0.19139 0.36222 0.0
H495 H 0.03725 0.17997 0.36458 0.0
C496 C 0.05975 0.25233 0.39128 0.0
C497 C 0.04062 0.25854 0.38064 0.0
C498 C 0.06371 0.23115 0.39968 0.0
C499 C 0.04886 0.21535 0.39744 0.0
C500 C 0.02956 0.22154 0.38717 0.0
H501 H 0.05926 0.07476 0.43108 0.0
H502 H 0.04747 0.11091 0.41676 0.0
C503 C 0.02547 0.24284 0.37894 0.0
C504 C 0.05366 0.19258 0.40599 0.0
H505 H 0.06444 0.14 0.39071 0.0
C506 C 0.05611 0.18903 0.42821 0.0
C507 C 0.05647 0.17449 0.39241 0.0
C508 C 0.05445 0.17716 0.36839 0.0
C509 C 0.06114 0.16815 0.43717 0.0
C510 C 0.0647 0.1501 0.42354 0.0
C511 C 0.06188 0.15361 0.40131 0.0
C512 C 0.07198 0.12774 0.43195 0.0
C513 C 0.06204 0.16571 0.46133 0.0
C514 C 0.09004 0.12468 0.44488 0.0
C515 C 0.09663 0.1041 0.45325 0.0
C516 C 0.08569 0.08565 0.44866 0.0
C517 C 0.06805 0.0885 0.4351 0.0
C518 C 0.06129 0.10926 0.42687 0.0
H519 H 0.05177 0.17861 0.46943 0.0
H520 H 0.05679 0.14974 0.46713 0.0
H521 H 0.07876 0.16721 0.46628 0.0
H522 H 0.09921 0.13826 0.4485 0.0
H523 H 0.11048 0.10269 0.46332 0.0
H524 H 0.01104 0.36296 0.39722 0.0
H525 H 1.00542 0.3943 0.42074 0.0
H526 H 0.0722 0.40667 0.41253 0.0
H527 H 0.07803 0.37543 0.38933 0.0
H528 H 0.03171 0.404 0.4612 0.0
H529 H 0.03475 0.46457 0.39374 0.0
H530 H 0.02768 0.43713 0.38996 0.0
H531 H 0.05511 0.44255 0.39368 0.0
C532 C 0.02457 0.37225 0.40052 0.0
C533 C 0.045 0.36656 0.39129 0.0
C534 C 0.02133 0.39018 0.414 0.0
C535 C 0.03836 0.40297 0.41831 0.0
C536 C 0.05878 0.39716 0.40937 0.0
H537 H 0.05575 0.52506 0.47887 0.0
H538 H 0.05832 0.49187 0.4582 0.0
C539 C 0.06208 0.37919 0.39611 0.0
C540 C 0.03492 0.42264 0.43178 0.0
H541 H 0.0338 0.47796 0.4289 0.0
C542 C 0.03199 0.4202 0.45417 0.0
C543 C 0.03548 0.44377 0.42264 0.0
C544 C 0.03829 0.44735 0.39867 0.0
C545 C 0.03019 0.43826 0.46769 0.0
C546 C 0.0307 0.4595 0.45855 0.0
C547 C 0.03337 0.46183 0.43606 0.0
C548 C 0.02916 0.4795 0.47187 0.0
C549 C 0.02863 0.43427 0.4917 0.0
C550 C 0.01189 0.48394 0.48657 0.0
C551 C 0.01057 0.50288 0.49869 0.0
C552 C 0.02625 0.51808 0.49611 0.0
C553 C 0.04341 0.51371 0.48132 0.0
C554 C 0.04485 0.49471 0.4694 0.0
H555 H 0.03489 0.4176 0.49627 0.0
H556 H 0.03767 0.44599 0.50036 0.0
H557 H 0.01155 0.43611 0.49716 0.0
H558 H 0.99923 0.4729 0.48851 0.0
H559 H 0.99721 0.50565 0.50999 0.0
H560 H 0.07578 0.7987 0.23502 0.0
H561 H 0.08121 0.83615 0.22359 0.0
H562 H 0.01836 0.84178 0.19662 0.0
H563 H 0.01262 0.80461 0.20832 0.0
H564 H 0.08043 0.85908 0.18473 0.0
H565 H 0.01443 0.89024 0.23968 0.0
H566 H 0.02528 0.8625 0.24088 0.0
H567 H 0.00617 0.8712 0.2209 0.0
C568 C 0.06328 0.80776 0.22628 0.0
C569 C 0.04369 0.79869 0.22273 0.0
C570 C 0.06637 0.82921 0.21985 0.0
C571 C 0.04996 0.84194 0.20977 0.0
C572 C 0.03101 0.83245 0.20491 0.0
H573 H 0.03192 0.97607 0.1664 0.0
H574 H 0.02959 0.93713 0.17321 0.0
C575 C 0.02784 0.81111 0.21143 0.0
C576 C 0.05229 0.86534 0.20508 0.0
H577 H 0.0293 0.91583 0.21539 0.0
C578 C 0.06931 0.8715 0.1915 0.0
C579 C 0.03785 0.88155 0.21407 0.0
C580 C 0.02003 0.87611 0.22986 0.0
C581 C 0.07197 0.89341 0.18625 0.0
C582 C 0.05732 0.90953 0.19495 0.0
C583 C 0.0404 0.9034 0.20863 0.0
C584 C 0.0593 0.93292 0.19017 0.0
C585 C 0.09018 0.89916 0.17113 0.0
C586 C 0.07672 0.94346 0.19757 0.0
C587 C 0.07809 0.9657 0.19372 0.0
C588 C 0.06206 0.97782 0.18238 0.0
C589 C 0.04468 0.96716 0.17492 0.0
C590 C 0.04326 0.94495 0.17889 0.0
H591 H 0.0973 0.88484 0.16241 0.0
H592 H 0.08462 0.91179 0.15918 0.0
H593 H 0.10295 0.90578 0.18048 0.0
H594 H 0.08911 0.93452 0.20657 0.0
H595 H 0.09175 0.97339 0.19956 0.0
H596 H 0.9783 0.71693 0.19458 0.0
H597 H 0.9763 0.68547 0.17189 0.0
H598 H 0.02801 0.65204 0.20636 0.0
H599 H 0.03101 0.684 0.22795 0.0
H600 H 0.03339 0.64287 0.16722 0.0
H601 H 0.94787 0.63248 0.18732 0.0
H602 H 0.95133 0.6583 0.17451 0.0
H603 H 0.96269 0.65201 0.20041 0.0
C604 C 0.98929 0.70289 0.19718 0.0
C605 C 1.00475 0.70288 0.21306 0.0
C606 C 0.988 0.68479 0.18436 0.0
C607 C 1.00156 0.666 0.18775 0.0
C608 C 0.01727 0.66621 0.20339 0.0
H609 H 0.96993 0.54024 0.14504 0.0
H610 H 0.9756 0.57284 0.16477 0.0
C611 C 0.01898 0.68451 0.21577 0.0
C612 C 0.99952 0.64611 0.1751 0.0
H613 H 0.9635 0.61129 0.15891 0.0
C614 C 0.01811 0.63588 0.16556 0.0
C615 C 0.97968 0.63664 0.17314 0.0
C616 C 0.95933 0.64529 0.1846 0.0
C617 C 0.01747 0.61652 0.15432 0.0
C618 C 0.99746 0.60765 0.15146 0.0
C619 C 0.97887 0.61803 0.16085 0.0
C620 C 0.99532 0.58722 0.13965 0.0
C621 C 0.03845 0.60547 0.14648 0.0
C622 C 1.00462 0.58407 0.11894 0.0
C623 C 1.00205 0.56494 0.10799 0.0
C624 C 0.98933 0.54907 0.11715 0.0
C625 C 0.97976 0.55231 0.13762 0.0
C626 C 0.98295 0.571 0.14885 0.0
H627 H 0.05204 0.61004 0.15609 0.0
H628 H 0.03801 0.58758 0.14728 0.0
H629 H 0.04175 0.61065 0.12955 0.0
H630 H 0.01356 0.59652 0.11102 0.0
H631 H 0.00935 0.5629 0.09208 0.0
H632 H 0.4 1.00643 0.24504 0.0
H633 H 0.41958 1.0103 0.21065 0.0
H634 H 0.41285 0.07977 0.21544 0.0
H635 H 0.39298 0.07606 0.24979 0.0
H636 H 0.40173 0.06635 0.17591 0.0
H637 H 0.48056 0.02653 0.19707 0.0
H638 H 0.45852 1.01004 0.2032 0.0
H639 H 0.4604 0.03488 0.21715 0.0
C640 C 0.40293 0.02256 0.23898 0.0
C641 C 0.39495 0.04093 0.25035 0.0
C642 C 0.41424 0.02474 0.21929 0.0
C643 C 0.41799 0.04532 0.21048 0.0
C644 C 0.41028 0.0637 0.22191 0.0
H645 H 0.50122 0.07254 0.09832 0.0
H646 H 0.48514 0.06921 0.13458 0.0
C647 C 0.39898 0.06154 0.24163 0.0
C648 C 0.42887 0.04769 0.18885 0.0
H649 H 0.4748 0.03328 0.15971 0.0
C650 C 0.41775 0.0592 0.17243 0.0
C651 C 0.44988 0.03859 0.18426 0.0
C652 C 0.46315 0.02699 0.20139 0.0
C653 C 0.42683 0.06146 0.15154 0.0
C654 C 0.44752 0.05166 0.14673 0.0
C655 C 0.45885 0.04058 0.16327 0.0
C656 C 0.45769 0.05292 0.12469 0.0
C657 C 0.41426 0.0746 0.13487 0.0
C658 C 0.44792 0.04445 0.10701 0.0
C659 C 0.45709 0.04631 0.08623 0.0
C660 C 0.47635 0.05658 0.08259 0.0
C661 C 0.48639 0.06454 0.10043 0.0
C662 C 0.47721 0.06266 0.12122 0.0
H663 H 0.40161 0.08569 0.14239 0.0
H664 H 0.42495 0.08435 0.1245 0.0
H665 H 0.40629 0.0635 0.12447 0.0
H666 H 0.43311 0.03646 0.10927 0.0
H667 H 0.44889 0.0399 0.07297 0.0
H668 H 0.64868 0.57956 0.29902 0.0
H669 H 0.63802 0.57916 0.26158 0.0
H670 H 0.65003 0.50972 0.26153 0.0
H671 H 0.66012 0.50989 0.29902 0.0
H672 H 0.66447 0.56665 0.22901 0.0
H673 H 0.5943 0.51667 0.2308 0.0
H674 H 0.60439 0.52754 0.25483 0.0
H675 H 0.61696 0.50317 0.24359 0.0
C676 C 0.64848 0.56414 0.29123 0.0
C677 C 0.65522 0.54476 0.30204 0.0
C678 C 0.64246 0.56395 0.2698 0.0
C679 C 0.64304 0.5444 0.25879 0.0
C680 C 0.64895 0.52495 0.2698 0.0
H681 H 0.66596 0.53007 0.12194 0.0
H682 H 0.66799 0.53025 0.16112 0.0
C683 C 0.65482 0.5251 0.29126 0.0
C684 C 0.63968 0.54457 0.23529 0.0
H685 H 0.61179 0.52199 0.19632 0.0
C686 C 0.65278 0.55706 0.22189 0.0
C687 C 0.62436 0.53215 0.22601 0.0
C688 C 0.60906 0.5193 0.23958 0.0
C689 C 0.6513 0.55714 0.19945 0.0
C690 C 0.63667 0.54395 0.19012 0.0
C691 C 0.62319 0.53186 0.20351 0.0
C692 C 0.63509 0.54265 0.16649 0.0
C693 C 0.66529 0.57153 0.18599 0.0
C694 C 0.61568 0.54874 0.15657 0.0
C695 C 0.61444 0.54852 0.13418 0.0
C696 C 0.63259 0.54217 0.12132 0.0
C697 C 0.65182 0.53543 0.13138 0.0
C698 C 0.65301 0.53555 0.15375 0.0
H699 H 0.6709 0.58486 0.19553 0.0
H700 H 0.67965 0.56177 0.1799 0.0
H701 H 0.65659 0.57873 0.17196 0.0
H702 H 0.60164 0.55417 0.16613 0.0
H703 H 0.59944 0.55396 0.12692 0.0
H704 H 0.37879 0.08167 0.37049 0.0
H705 H 0.39516 0.07528 0.40559 0.0
H706 H 0.4138 1.00946 0.38866 0.0
H707 H 0.39694 0.01556 0.35395 0.0
H708 H 0.39913 1.00907 0.42826 0.0
H709 H 0.456 0.07371 0.42215 0.0
H710 H 0.42871 0.0841 0.41958 0.0
H711 H 0.44097 0.06635 0.39954 0.0
C712 C 0.38661 0.0659 0.37409 0.0
C713 C 0.38662 0.04925 0.35904 0.0
C714 C 0.39612 0.06224 0.39428 0.0
C715 C 0.40625 0.04191 0.40002 0.0
C716 C 0.40627 0.02534 0.38494 0.0
H717 H 0.49734 0.01596 0.50265 0.0
H718 H 0.47839 0.02445 0.46949 0.0
C719 C 0.39665 0.02892 0.36487 0.0
C720 C 0.41633 0.0376 0.42173 0.0
H721 H 0.45247 0.05597 0.4562 0.0
C722 C 0.4108 0.01938 0.43429 0.0
C723 C 0.43187 0.05071 0.42987 0.0
C724 C 0.43992 0.06967 0.41701 0.0
C725 C 0.42017 0.01399 0.45435 0.0
C726 C 0.43526 0.02745 0.46275 0.0
C727 C 0.44078 0.04565 0.45018 0.0
C728 C 0.44653 0.02234 0.48372 0.0
C729 C 0.4143 0.9934 0.46592 0.0
C730 C 0.43524 0.01846 0.50336 0.0
C731 C 0.44622 0.01338 0.52259 0.0
C732 C 0.4688 0.01232 0.52278 0.0
C733 C 0.47997 0.01664 0.50326 0.0
C734 C 0.46907 0.02156 0.48414 0.0
H735 H 0.40763 0.98199 0.45482 0.0
H736 H 0.42843 0.98505 0.47368 0.0
H737 H 0.40185 0.99737 0.47858 0.0
H738 H 0.41789 0.01945 0.50392 0.0
H739 H 0.43704 1.01019 0.53725 0.0
H740 H 0.63624 0.55387 0.40317 0.0
H741 H 0.62377 0.5587 0.44043 0.0
H742 H 0.65262 0.49566 0.45765 0.0
H743 H 0.66537 0.49073 0.42025 0.0
H744 H 0.59826 0.53466 0.46968 0.0
H745 H 0.68212 0.53732 0.49643 0.0
H746 H 0.67536 0.53937 0.46843 0.0
H747 H 0.67614 0.51357 0.48235 0.0
C748 C 0.63955 0.54078 0.41474 0.0
C749 C 0.65186 0.52191 0.40867 0.0
C750 C 0.63245 0.54362 0.4361 0.0
C751 C 0.63763 0.52776 0.45195 0.0
C752 C 0.64876 0.5083 0.44576 0.0
H753 H 0.61934 0.54106 0.5925 0.0
H754 H 0.62862 0.52622 0.55683 0.0
C755 C 0.65579 0.50538 0.4243 0.0
C756 C 0.63219 0.53229 0.47496 0.0
H757 H 0.65452 0.54285 0.52275 0.0
C758 C 0.61056 0.53627 0.48132 0.0
C759 C 0.64825 0.53443 0.49018 0.0
C760 C 0.67179 0.53113 0.48409 0.0
C761 C 0.60455 0.54255 0.50235 0.0
C762 C 0.62061 0.54535 0.51738 0.0
C763 C 0.64222 0.54073 0.51124 0.0
C764 C 0.61531 0.55425 0.53909 0.0
C765 C 0.58101 0.54619 0.50828 0.0
C766 C 0.60518 0.57509 0.54101 0.0
C767 C 0.59996 0.58357 0.56127 0.0
C768 C 0.6048 0.57144 0.58012 0.0
C769 C 0.61533 0.55074 0.57826 0.0
C770 C 0.62063 0.54226 0.5579 0.0
H771 H 0.57095 0.53743 0.49747 0.0
H772 H 0.57762 0.54084 0.52515 0.0
H773 H 0.57619 0.56373 0.50671 0.0
H774 H 0.60136 0.58487 0.52678 0.0
H775 H 0.59202 0.59965 0.56216 0.0
H776 H 0.30553 0.40431 0.04447 0.0
H777 H 0.26817 0.41824 0.04658 0.0
H778 H 0.25921 0.39708 0.98222 0.0
H779 H 0.2967 0.38245 0.98016 0.0
H780 H 0.24463 0.44833 0.02404 0.0
H781 H 0.21171 0.36806 0.01496 0.0
H782 H 0.23974 0.37097 0.01929 0.0
H783 H 0.22901 0.37622 0.99306 0.0
C784 C 0.29575 0.40276 0.0306 0.0
C785 C 0.30421 0.39213 0.01215 0.0
C786 C 0.27429 0.41074 0.03187 0.0
C787 C 0.26063 0.40834 0.01476 0.0
C788 C 0.26923 0.39866 0.99588 0.0
H789 H 0.12145 0.44348 0.01094 0.0
H790 H 0.15884 0.43287 1.00038 0.0
C791 C 0.29078 0.39054 0.99461 0.0
C792 C 0.23743 0.41576 0.01714 0.0
H793 H 0.18665 0.39808 0.01862 0.0
C794 C 0.23198 0.43733 0.02273 0.0
C795 C 0.2208 0.40145 0.0155 0.0
C796 C 0.22553 0.37784 0.01057 0.0
C797 C 0.21055 0.4449 0.02692 0.0
C798 C 0.19401 0.43051 0.02569 0.0
C799 C 0.19933 0.40911 0.01952 0.0
C800 C 0.1713 0.43708 0.03191 0.0
C801 C 0.20577 0.46828 0.0327 0.0
C802 C 0.16581 0.44274 0.05318 0.0
C803 C 0.14452 0.44875 0.05925 0.0
C804 C 0.12811 0.44922 0.04422 0.0
C805 C 0.13366 0.44348 0.02289 0.0
C806 C 0.15501 0.43731 0.01685 0.0
H807 H 0.2191 0.47842 0.02753 0.0
H808 H 0.19079 0.47506 0.02524 0.0
H809 H 0.20357 0.46935 0.05042 0.0
H810 H 0.17802 0.4424 0.06516 0.0
H811 H 0.14096 0.45329 0.07574 0.0
H812 H 0.27997 0.72631 0.55354 0.0
H813 H 0.24956 0.70355 0.55407 0.0
H814 H 0.2486 0.70766 0.48477 0.0
H815 H 0.27954 0.72988 0.4841 0.0
H816 H 0.21054 0.71476 0.5412 0.0
H817 H 0.24262 0.64404 0.49461 0.0
H818 H 0.25965 0.66379 0.50437 0.0
H819 H 0.24499 0.66928 0.48019 0.0
C820 C 0.27352 0.72209 0.53838 0.0
C821 C 0.28221 0.72988 0.51877 0.0
C822 C 0.2561 0.70909 0.53871 0.0
C823 C 0.24686 0.70367 0.51946 0.0
C824 C 0.25573 0.71114 0.49982 0.0
H825 H 0.11496 0.66745 0.51412 0.0
H826 H 0.14844 0.68567 0.51041 0.0
C827 C 0.27336 0.72395 0.49946 0.0
C828 C 0.22705 0.69159 0.5202 0.0
H829 H 0.20478 0.64703 0.50161 0.0
C830 C 0.20935 0.69989 0.53261 0.0
C831 C 0.22551 0.67207 0.50916 0.0
C832 C 0.24427 0.66164 0.49651 0.0
C833 C 0.19016 0.68936 0.5342 0.0
C834 C 0.18834 0.67028 0.52255 0.0
C835 C 0.2061 0.6618 0.51031 0.0
C836 C 0.16827 0.65869 0.52332 0.0
C837 C 0.17219 0.69856 0.54875 0.0
C838 C 0.16839 0.63714 0.53096 0.0
C839 C 0.14928 0.62662 0.53295 0.0
C840 C 0.12967 0.63746 0.52732 0.0
C841 C 0.12973 0.65879 0.51898 0.0
C842 C 0.14885 0.66924 0.51687 0.0
H843 H 0.17815 0.70936 0.56089 0.0
H844 H 0.16036 0.70827 0.53894 0.0
H845 H 0.16381 0.68546 0.55732 0.0
H846 H 0.1832 0.62865 0.53595 0.0
H847 H 0.14977 0.61023 0.53955 0.0
H848 H 0.90053 0.91202 0.48656 0.0
H849 H 0.92964 0.93646 0.48175 0.0
H850 H 0.95017 0.92 0.54603 0.0
H851 H 0.92046 0.89663 0.55128 0.0
H852 H 0.95286 0.9606 0.53984 0.0
H853 H 0.99066 0.92119 0.46791 0.0
H854 H 0.9636 0.93138 0.46352 0.0
H855 H 0.96891 0.9098 0.48304 0.0
C856 C 0.91126 0.91366 0.49966 0.0
C857 C 0.90819 0.90232 0.51929 0.0
C858 C 0.92806 0.92751 0.49683 0.0
C859 C 0.94258 0.9298 0.51332 0.0
C860 C 0.93933 0.91859 0.53298 0.0
H861 H 0.07067 0.97297 0.49802 0.0
H862 H 0.03793 0.9537 0.50102 0.0
C863 C 0.92229 0.90516 0.53598 0.0
C864 C 0.96103 0.94394 0.51043 0.0
H865 H 1.00477 0.9538 0.47809 0.0
C866 C 0.96423 0.95904 0.52634 0.0
C867 C 0.97611 0.94189 0.49295 0.0
C868 C 0.97481 0.92505 0.47602 0.0
C869 C 0.98209 0.97175 0.52551 0.0
C870 C 0.99686 0.9701 0.50775 0.0
C871 C 0.99345 0.95528 0.49165 0.0
C872 C 0.01673 0.98236 0.5062 0.0
C873 C 0.98535 0.98609 0.54421 0.0
C874 C 0.01598 1.00505 0.50803 0.0
C875 C 0.03492 0.01611 0.50685 0.0
C876 C 0.05488 1.00475 0.50323 0.0
C877 C 0.05554 0.98218 0.50094 0.0
C878 C 0.03676 0.97114 0.50254 0.0
H879 H 0.97646 0.98076 0.55895 0.0
H880 H 1.00259 0.98622 0.54792 0.0
H881 H 0.97923 1.00289 0.54013 0.0
H882 H 1.00076 0.01428 0.51017 0.0
H883 H 0.03391 0.03354 0.50834 0.0
H884 H 0.38553 0.73378 0.52844 0.0
H885 H 0.41794 0.71272 0.53963 0.0
H886 H 0.39876 0.72158 0.60611 0.0
H887 H 0.36617 0.74296 0.59501 0.0
H888 H 0.45123 0.72662 0.56685 0.0
H889 H 0.41265 0.65468 0.60139 0.0
H890 H 0.3992 0.67364 0.58291 0.0
H891 H 0.40193 0.68072 0.61042 0.0
C892 C 0.38801 0.73118 0.54548 0.0
C893 C 0.37298 0.74006 0.56079 0.0
C894 C 0.4067 0.71913 0.55186 0.0
C895 C 0.41084 0.71527 0.57374 0.0
C896 C 0.39587 0.72402 0.58912 0.0
H897 H 0.51534 0.63927 0.6387 0.0
H898 H 0.48197 0.6602 0.62975 0.0
C899 C 0.37723 0.73633 0.58274 0.0
C900 C 0.43107 0.70258 0.58025 0.0
H901 H 0.45014 0.65495 0.60424 0.0
C902 C 0.45098 0.71094 0.57503 0.0
C903 C 0.43088 0.68216 0.59107 0.0
C904 C 0.41008 0.67208 0.59671 0.0
C905 C 0.47055 0.69969 0.58049 0.0
C906 C 0.47046 0.67896 0.59086 0.0
C907 C 0.45047 0.6707 0.59625 0.0
C908 C 0.49081 0.66565 0.5962 0.0
C909 C 0.49111 0.71056 0.5756 0.0
C910 C 0.507 0.66107 0.58037 0.0
C911 C 0.52624 0.64925 0.58553 0.0
C912 C 0.52978 0.64122 0.60661 0.0
C913 C 0.51329 0.64514 0.6223 0.0
C914 C 0.49411 0.65717 0.61717 0.0
H915 H 0.48823 0.72846 0.57451 0.0
H916 H 0.50313 0.70648 0.58808 0.0
H917 H 0.49795 0.7051 0.55983 0.0
H918 H 0.50479 0.66664 0.56391 0.0
H919 H 0.53841 0.64645 0.57293 0.0
H920 H 0.50735 0.75128 0.88221 0.0
H921 H 0.51365 0.71429 0.89708 0.0
H922 H 0.58159 0.72221 0.89657 0.0
H923 H 0.57547 0.75898 0.8818 0.0
H924 H 0.57224 0.68298 0.87924 0.0
H925 H 0.52959 0.69398 0.95823 0.0
H926 H 0.51399 0.70199 0.93524 0.0
H927 H 0.53687 0.71656 0.94121 0.0
C928 C 0.52361 0.7453 0.88555 0.0
C929 C 0.54082 0.75846 0.88094 0.0
C930 C 0.52722 0.72405 0.89411 0.0
C931 C 0.54814 0.71527 0.89824 0.0
C932 C 0.56529 0.72841 0.89367 0.0
H933 H 0.59428 0.6033 0.97495 0.0
H934 H 0.5834 0.63886 0.95959 0.0
C935 C 0.5617 0.74963 0.8853 0.0
C936 C 0.55239 0.69236 0.90679 0.0
H937 H 0.54308 0.65844 0.95012 0.0
C938 C 0.56573 0.67762 0.8947 0.0
C939 C 0.5442 0.68518 0.92708 0.0
C940 C 0.53051 0.70024 0.94134 0.0
C941 C 0.57099 0.65619 0.90221 0.0
C942 C 0.56263 0.64896 0.92242 0.0
C943 C 0.54936 0.66371 0.93454 0.0
C944 C 0.56858 0.62672 0.93185 0.0
C945 C 0.58604 0.64165 0.88872 0.0
C946 C 0.56368 0.60761 0.92171 0.0
C947 C 0.56984 0.58696 0.93062 0.0
C948 C 0.58116 0.58486 0.94987 0.0
C949 C 0.5857 0.60405 0.96008 0.0
C950 C 0.57942 0.62456 0.9513 0.0
H951 H 0.59461 0.65088 0.87595 0.0
H952 H 0.5981 0.63265 0.89888 0.0
H953 H 0.57672 0.62963 0.88084 0.0
H954 H 0.55505 0.60864 0.90687 0.0
H955 H 0.56602 0.57267 0.92225 0.0
H956 H 0.51276 0.86256 0.89574 0.0
H957 H 0.5075 0.89402 0.91902 0.0
H958 H 0.57412 0.90657 0.90941 0.0
H959 H 0.57956 0.87521 0.88627 0.0
H960 H 0.53019 0.9041 0.95811 0.0
H961 H 0.54053 0.96455 0.89169 0.0
H962 H 0.53465 0.93695 0.88697 0.0
H963 H 0.56135 0.94311 0.89332 0.0
C964 C 0.52634 0.87194 0.89864 0.0
C965 C 0.54659 0.86628 0.889 0.0
C966 C 0.52329 0.88994 0.912 0.0
C967 C 0.54033 0.90289 0.91581 0.0
C968 C 0.56063 0.89706 0.90653 0.0
H969 H 0.55817 0.02324 0.97933 0.0
H970 H 0.56096 0.99013 0.95863 0.0
C971 C 0.56373 0.879 0.89334 0.0
C972 C 0.53697 0.92261 0.92926 0.0
H973 H 0.53852 0.97776 0.92704 0.0
C974 C 0.53188 0.92024 0.95132 0.0
C975 C 0.53923 0.94368 0.92046 0.0
C976 C 0.54407 0.94738 0.89679 0.0
C977 C 0.52965 0.93823 0.96491 0.0
C978 C 0.53194 0.95938 0.95611 0.0
C979 C 0.53675 0.96168 0.93394 0.0
C980 C 0.53015 0.9793 0.96954 0.0
C981 C 0.52569 0.93423 0.98868 0.0
C982 C 0.51186 0.9846 0.9827 0.0
C983 C 0.51037 1.00352 0.99487 0.0
C984 C 0.52697 0.0178 0.99387 0.0
C985 C 0.54511 0.01259 0.98057 0.0
C986 C 0.5467 0.99363 0.96862 0.0
H987 H 0.5307 0.9173 0.99361 0.0
H988 H 0.53444 0.94539 0.99835 0.0
H989 H 0.50828 0.93694 0.99255 0.0
H990 H 0.49855 0.97427 0.98336 0.0
H991 H 0.49614 1.00707 1.00487 0.0
H992 H 0.56882 0.29926 0.73168 0.0
H993 H 0.57403 0.33668 0.72 0.0
H994 H 0.50906 0.34378 0.69841 0.0
H995 H 0.50366 0.30643 0.70997 0.0
H996 H 0.54095 0.36255 0.6698 0.0
H997 H 0.54412 0.38817 0.75456 0.0
H998 H 0.56231 0.36563 0.7472 0.0
H999 H 0.53391 0.36283 0.74739 0.0
C1000 C 0.55577 0.30861 0.72404 0.0
C1001 C 0.53579 0.29983 0.72183 0.0
C1002 C 0.55872 0.33005 0.71755 0.0
C1003 C 0.54182 0.34308 0.70868 0.0
C1004 C 0.52228 0.33402 0.70533 0.0
H1005 H 0.52399 0.48308 0.69998 0.0
H1006 H 0.52095 0.44441 0.70727 0.0
C1007 C 0.51925 0.31264 0.71191 0.0
C1008 C 0.54411 0.3664 0.70379 0.0
H1009 H 0.55037 0.41465 0.72745 0.0
C1010 C 0.54308 0.37396 0.68236 0.0
C1011 C 0.54647 0.38128 0.72029 0.0
C1012 C 0.5466 0.3742 0.74369 0.0
C1013 C 0.54469 0.396 0.67695 0.0
C1014 C 0.54761 0.41079 0.69339 0.0
C1015 C 0.54834 0.40325 0.71485 0.0
C1016 C 0.54957 0.43424 0.68874 0.0
C1017 C 0.54279 0.40336 0.65374 0.0
C1018 C 0.56683 0.4414 0.67611 0.0
C1019 C 0.56876 0.46354 0.67207 0.0
C1020 C 0.55347 0.47902 0.68063 0.0
C1021 C 0.53624 0.47172 0.69336 0.0
C1022 C 0.53438 0.44958 0.69745 0.0
H1023 H 0.53555 0.39114 0.64398 0.0
H1024 H 0.5329 0.41891 0.6524 0.0
H1025 H 0.55901 0.40595 0.64678 0.0
H1026 H 0.57898 0.42986 0.66959 0.0
H1027 H 0.58244 0.46853 0.66253 0.0
H1028 H 0.53297 0.1967 0.70918 0.0
H1029 H 0.53155 0.16527 0.6864 0.0
H1030 H 0.46245 0.17299 0.6885 0.0
H1031 H 0.46373 0.2047 0.7109 0.0
H1032 H 0.51392 0.1273 0.6957 0.0
H1033 H 0.47448 0.16635 0.62486 0.0
H1034 H 0.48548 0.18175 0.64559 0.0
H1035 H 0.45949 0.17117 0.64954 0.0
C1036 C 0.51745 0.19191 0.70458 0.0
C1037 C 0.49846 0.20337 0.71179 0.0
C1038 C 0.51667 0.17387 0.69158 0.0
C1039 C 0.49691 0.16688 0.68542 0.0
C1040 C 0.47792 0.17833 0.69254 0.0
H1041 H 0.45399 0.0562 0.62107 0.0
H1042 H 0.4577 0.08951 0.64036 0.0
C1043 C 0.47868 0.19644 0.70547 0.0
C1044 C 0.49616 0.14702 0.67248 0.0
H1045 H 0.47654 0.12772 0.62657 0.0
C1046 C 0.50591 0.12745 0.68048 0.0
C1047 C 0.48571 0.14715 0.65261 0.0
C1048 C 0.47588 0.16777 0.64252 0.0
C1049 C 0.50501 0.10797 0.66951 0.0
C1050 C 0.4943 0.10806 0.64981 0.0
C1051 C 0.48472 0.12764 0.64169 0.0
C1052 C 0.49234 0.0879 0.63768 0.0
C1053 C 0.51497 0.08732 0.67943 0.0
C1054 C 0.51059 0.07599 0.62944 0.0
C1055 C 0.50855 0.05685 0.61834 0.0
C1056 C 0.48818 0.04925 0.61519 0.0
C1057 C 0.46994 0.06145 0.6232 0.0
C1058 C 0.47201 0.08056 0.63424 0.0
H1059 H 0.51807 0.08909 0.69676 0.0
H1060 H 0.50446 0.07375 0.67777 0.0
H1061 H 0.53052 0.08299 0.671 0.0
H1062 H 0.52643 0.08153 0.63154 0.0
H1063 H 0.52294 0.04798 0.61233 0.0
H1064 H 0.89917 0.50717 0.74692 0.0
H1065 H 0.91847 0.51091 0.71231 0.0
H1066 H 0.90805 0.58034 0.7148 0.0
H1067 H 0.88862 0.57676 0.74941 0.0
H1068 H 0.89729 0.56378 0.67553 0.0
H1069 H 0.97854 0.53137 0.69825 0.0
H1070 H 0.95758 0.51386 0.70557 0.0
H1071 H 0.95796 0.53975 0.71792 0.0
C1072 C 0.90121 0.52328 0.7403 0.0
C1073 C 0.89237 0.54166 0.75111 0.0
C1074 C 0.91236 0.52539 0.72048 0.0
C1075 C 0.91496 0.54592 0.71096 0.0
C1076 C 0.90636 0.56432 0.72182 0.0
H1077 H 0.99676 0.57575 0.5987 0.0
H1078 H 0.98042 0.57224 0.63481 0.0
C1079 C 0.89532 0.56224 0.7417 0.0
C1080 C 0.92566 0.54815 0.68924 0.0
H1081 H 0.97272 0.53671 0.66084 0.0
C1082 C 0.91381 0.55792 0.67235 0.0
C1083 C 0.9473 0.54073 0.68505 0.0
C1084 C 0.9612 0.53101 0.70267 0.0
C1085 C 0.92282 0.56013 0.65142 0.0
C1086 C 0.94425 0.55207 0.64705 0.0
C1087 C 0.95624 0.54268 0.66404 0.0
C1088 C 0.95456 0.55354 0.62505 0.0
C1089 C 0.90936 0.57143 0.63425 0.0
C1090 C 0.9458 0.54383 0.60747 0.0
C1091 C 0.9551 0.54584 0.58674 0.0
C1092 C 0.97353 0.55746 0.58307 0.0
C1093 C 0.98259 0.56669 0.60082 0.0
C1094 C 0.97325 0.5647 0.62155 0.0
H1095 H 0.8958 0.58172 0.64132 0.0
H1096 H 0.91916 0.58172 0.62349 0.0
H1097 H 0.90252 0.55911 0.62434 0.0
H1098 H 0.9317 0.53471 0.60975 0.0
H1099 H 0.94769 0.5384 0.57356 0.0
H1100 H 0.15075 0.08313 0.79583 0.0
H1101 H 0.14067 0.08157 0.75826 0.0
H1102 H 0.14192 0.01194 0.76357 0.0
H1103 H 0.15197 0.01324 0.80105 0.0
H1104 H 0.16904 0.02891 0.73025 0.0
H1105 H 0.08555 0.0658 0.72788 0.0
H1106 H 0.104 0.08066 0.74227 0.0
H1107 H 0.09718 0.05446 0.75225 0.0
C1108 C 0.14829 0.06752 0.7892 0.0
C1109 C 0.15225 0.04831 0.80144 0.0
C1110 C 0.1425 0.06667 0.76773 0.0
C1111 C 0.1405 0.04664 0.75822 0.0
C1112 C 0.14333 0.02754 0.77069 0.0
H1113 H 0.1081 0.02273 0.62589 0.0
H1114 H 0.10921 0.02253 0.66522 0.0
C1115 C 0.14902 0.02836 0.79214 0.0
C1116 C 0.13784 0.04546 0.73478 0.0
H1117 H 0.10414 0.06058 0.69417 0.0
C1118 C 0.15479 0.03568 0.72237 0.0
C1119 C 0.11919 0.05422 0.72463 0.0
C1120 C 0.10033 0.06424 0.7374 0.0
C1121 C 0.15379 0.03489 0.69994 0.0
C1122 C 0.13544 0.04426 0.68971 0.0
C1123 C 0.11823 0.05354 0.70214 0.0
C1124 C 0.13416 0.04499 0.66605 0.0
C1125 C 0.17239 0.02411 0.6873 0.0
C1126 C 0.14761 0.05793 0.65364 0.0
C1127 C 0.14689 0.05827 0.63124 0.0
C1128 C 0.13273 0.04559 0.6208 0.0
C1129 C 0.11905 0.03283 0.63338 0.0
C1130 C 0.1197 0.03262 0.65583 0.0
H1131 H 0.18314 0.01375 0.69776 0.0
H1132 H 0.16656 0.01403 0.6745 0.0
H1133 H 0.18195 0.03673 0.67943 0.0
H1134 H 0.15866 0.06781 0.66131 0.0
H1135 H 0.1573 0.06866 0.62212 0.0
H1136 H 0.89767 0.51748 0.85417 0.0
H1137 H 0.91373 0.51108 0.88933 0.0
H1138 H 0.89215 0.57572 0.90765 0.0
H1139 H 0.87603 0.5823 0.87234 0.0
H1140 H 0.94557 0.53262 0.90975 0.0
H1141 H 0.86953 0.5388 0.9585 0.0
H1142 H 0.87009 0.53561 0.92971 0.0
H1143 H 0.87412 0.56149 0.94071 0.0
C1144 C 0.89641 0.53048 0.86555 0.0
C1145 C 0.8855 0.55051 0.8601 0.0
C1146 C 0.90562 0.52674 0.88581 0.0
C1147 C 0.904 0.54272 0.90158 0.0
C1148 C 0.89341 0.56287 0.89611 0.0
H1149 H 0.94798 0.53644 0.03721 0.0
H1150 H 0.93066 0.54808 1.00327 0.0
C1151 C 0.88435 0.56673 0.87571 0.0
C1152 C 0.91372 0.53822 0.9234 0.0
H1153 H 0.90157 0.53324 0.97754 0.0
C1154 C 0.93588 0.5328 0.92453 0.0
C1155 C 0.90134 0.53859 0.94297 0.0
C1156 C 0.87742 0.54376 0.94306 0.0
C1157 C 0.9459 0.52787 0.94432 0.0
C1158 C 0.93345 0.52749 0.96388 0.0
C1159 C 0.91131 0.53334 0.9628 0.0
C1160 C 0.94302 0.52021 0.98524 0.0
C1161 C 0.96997 0.52361 0.94395 0.0
C1162 C 0.95518 0.50031 0.98709 0.0
C1163 C 0.96519 0.49381 1.00632 0.0
C1164 C 0.96312 0.50669 0.02472 0.0
C1165 C 0.95004 0.52611 0.02341 0.0
C1166 C 0.94014 0.53279 1.0039 0.0
H1167 H 0.9776 0.53191 0.92993 0.0
H1168 H 0.97701 0.52911 0.95885 0.0
H1169 H 0.97402 0.50598 0.94245 0.0
H1170 H 0.95712 0.48969 0.97352 0.0
H1171 H 0.97479 0.47857 1.00671 0.0
H1172 H 0.13069 0.05815 0.89902 0.0
H1173 H 0.11645 0.0654 0.93535 0.0
H1174 H 0.14963 1.00658 0.95886 0.0
H1175 H 0.16334 0.99883 0.92227 0.0
H1176 H 0.11147 0.0137 0.97998 0.0
H1177 H 0.15457 0.08889 0.97862 0.0
H1178 H 0.13578 0.08882 0.95747 0.0
H1179 H 0.15842 0.06921 0.95779 0.0
C1180 C 0.13454 0.04647 0.91183 0.0
C1181 C 0.14822 0.02795 0.90776 0.0
C1182 C 0.12659 0.05078 0.93267 0.0
C1183 C 0.13254 0.03694 0.95003 0.0
C1184 C 0.14497 0.01764 0.94579 0.0
H1185 H 0.12958 0.08309 0.08146 0.0
H1186 H 0.13998 0.0698 0.04568 0.0
C1187 C 0.1527 0.01314 0.92482 0.0
C1188 C 0.12674 0.04324 0.9726 0.0
H1189 H 0.12995 0.08411 1.008 0.0
C1190 C 0.11558 0.02906 0.98614 0.0
C1191 C 0.13256 0.06304 0.98092 0.0
C1192 C 0.14619 0.07825 0.96803 0.0
C1193 C 0.10964 0.03434 1.00751 0.0
C1194 C 0.11443 0.05469 0.01544 0.0
C1195 C 0.12598 0.06864 1.00198 0.0
C1196 C 0.10803 0.06183 0.03766 0.0
C1197 C 0.09879 0.01777 0.02148 0.0
C1198 C 0.08656 0.062 0.04523 0.0
C1199 C 0.08066 0.06928 0.06589 0.0
C1200 C 0.09601 0.077 0.07923 0.0
C1201 C 0.11739 0.07717 0.07157 0.0
C1202 C 0.12334 0.06959 0.05108 0.0
H1203 H 0.10263 1.00111 0.01564 0.0
H1204 H 0.10364 0.01833 0.03846 0.0
H1205 H 0.08115 0.02111 0.02096 0.0
H1206 H 0.07425 0.05682 0.03506 0.0
H1207 H 0.06401 0.0692 0.07128 0.0
H1208 H 0.80719 0.90652 0.5352 0.0
H1209 H 0.76947 0.91919 0.53853 0.0
H1210 H 0.75861 0.89545 0.47561 0.0
H1211 H 0.7966 0.88254 0.47208 0.0
H1212 H 0.73705 0.938 0.48548 0.0
H1213 H 0.72231 0.87501 0.54835 0.0
H1214 H 0.74441 0.8911 0.55338 0.0
H1215 H 0.74581 0.8737 0.53064 0.0
C1216 C 0.79696 0.90425 0.52185 0.0
C1217 C 0.80504 0.89339 0.50338 0.0
C1218 C 0.77529 0.91141 0.52387 0.0
C1219 C 0.7611 0.90792 0.50752 0.0
C1220 C 0.76925 0.8982 0.48851 0.0
H1221 H 0.62178 0.91463 0.53083 0.0
H1222 H 0.65872 0.90327 0.51999 0.0
C1223 C 0.79102 0.89093 0.48647 0.0
C1224 C 0.73769 0.91368 0.51083 0.0
H1225 H 0.6945 0.90267 0.54347 0.0
C1226 C 0.72768 0.9302 0.49805 0.0
C1227 C 0.72536 0.90326 0.52702 0.0
C1228 C 0.73491 0.88464 0.54053 0.0
C1229 C 0.70589 0.93706 0.50151 0.0
C1230 C 0.69382 0.92734 0.51839 0.0
C1231 C 0.7037 0.91032 0.53067 0.0
C1232 C 0.67106 0.93469 0.52387 0.0
C1233 C 0.69598 0.95454 0.4869 0.0
C1234 C 0.66555 0.95615 0.5298 0.0
C1235 C 0.6444 0.9627 0.53614 0.0
C1236 C 0.6282 0.94791 0.53685 0.0
C1237 C 0.63377 0.92646 0.53073 0.0
C1238 C 0.65492 0.91993 0.52441 0.0
H1239 H 0.70504 0.95559 0.47129 0.0
H1240 H 0.67905 0.95165 0.48372 0.0
H1241 H 0.69627 0.97041 0.49473 0.0
H1242 H 0.67773 0.96775 0.53011 0.0
H1243 H 0.64094 0.97922 0.54114 0.0
H1244 H 0.77594 0.23427 0.05613 0.0
H1245 H 0.74541 0.21161 0.05693 0.0
H1246 H 0.75247 0.20428 0.98828 0.0
H1247 H 0.78334 0.22654 0.98738 0.0
H1248 H 0.70776 0.22024 0.03668 0.0
H1249 H 0.74657 0.14228 1.0086 0.0
H1250 H 0.76178 0.16404 0.01728 0.0
H1251 H 0.75097 0.16496 0.99082 0.0
C1252 C 0.77121 0.2276 0.04123 0.0
C1253 C 0.78215 0.23218 0.0217 0.0
C1254 C 0.75372 0.21467 0.04171 0.0
C1255 C 0.74678 0.20602 0.02271 0.0
C1256 C 0.75781 0.21034 1.00322 0.0
H1257 H 0.63553 0.13347 0.99662 0.0
H1258 H 0.66776 0.15394 0.99322 0.0
C1259 C 0.77541 0.22318 1.00273 0.0
C1260 C 0.72725 0.1936 0.02322 0.0
H1261 H 0.70852 0.14475 0.01172 0.0
C1262 C 0.70796 0.2037 0.0313 0.0
C1263 C 0.72748 0.17208 0.01602 0.0
C1264 C 0.74784 0.1601 1.00786 0.0
C1265 C 0.68891 0.19293 0.03233 0.0
C1266 C 0.68919 0.17134 0.0254 0.0
C1267 C 0.70837 0.16131 0.01702 0.0
C1268 C 0.66984 0.15873 0.02738 0.0
C1269 C 0.66857 0.20487 0.04061 0.0
C1270 C 0.66052 0.1544 0.04772 0.0
C1271 C 0.64209 0.14288 0.0497 0.0
C1272 C 0.63265 0.13524 0.03138 0.0
C1273 C 0.64222 0.13934 0.01102 0.0
C1274 C 0.66071 0.1509 1.00906 0.0
H1275 H 0.66972 0.22271 0.03967 0.0
H1276 H 0.65454 0.20074 0.03141 0.0
H1277 H 0.66565 0.20016 0.05773 0.0
H1278 H 0.6675 0.15999 0.0621 0.0
H1279 H 0.63505 0.14025 0.06561 0.0
H1280 H 0.41088 0.3971 0.99244 0.0
H1281 H 0.44096 0.42025 0.98694 0.0
H1282 H 0.4378 0.43502 0.05434 0.0
H1283 H 0.40807 0.41166 0.06006 0.0
H1284 H 0.44528 0.4638 0.99397 0.0
H1285 H 0.49999 0.41252 0.04556 0.0
H1286 H 0.47493 0.40354 0.03675 0.0
H1287 H 0.47525 0.42148 0.059 0.0
C1288 C 0.41653 0.40533 1.00609 0.0
C1289 C 0.40715 0.40233 0.02674 0.0
C1290 C 0.43373 0.41858 1.00291 0.0
C1291 C 0.44193 0.42908 0.0203 0.0
C1292 C 0.43211 0.42671 0.04077 0.0
H1293 H 0.53305 0.5311 0.01421 0.0
H1294 H 0.50066 0.51082 0.01894 0.0
C1295 C 0.41501 0.4134 0.04398 0.0
C1296 C 0.46096 0.4422 0.01713 0.0
H1297 H 0.51222 0.44626 0.03337 0.0
C1298 C 0.45992 0.45997 1.00258 0.0
C1299 C 0.48019 0.43704 0.02814 0.0
C1300 C 0.48281 0.41749 0.04308 0.0
C1301 C 0.47747 0.47286 0.99899 0.0
C1302 C 0.49646 0.46802 0.01044 0.0
C1303 C 0.49757 0.45012 0.02479 0.0
C1304 C 0.51574 0.48072 1.00716 0.0
C1305 C 0.47575 0.49123 0.98259 0.0
C1306 C 0.53504 0.47049 0.99931 0.0
C1307 C 0.55348 0.48198 0.99672 0.0
C1308 C 0.55308 0.50395 1.00198 0.0
C1309 C 0.5338 0.51421 0.00993 0.0
C1310 C 0.51527 0.50268 0.0125 0.0
H1311 H 0.462 0.48995 0.97193 0.0
H1312 H 0.47339 0.50681 0.99104 0.0
H1313 H 0.49071 0.49163 0.97249 0.0
H1314 H 0.53585 0.45355 0.9952 0.0
H1315 H 0.56815 0.47352 0.99082 0.0
H1316 H 0.88632 0.23549 0.02948 0.0
H1317 H 0.91871 0.21456 0.04098 0.0
H1318 H 0.9005 0.2262 0.10724 0.0
H1319 H 0.86797 0.24746 0.09584 0.0
H1320 H 0.95259 0.22934 0.06762 0.0
H1321 H 0.91333 0.15874 0.1043 0.0
H1322 H 0.90009 0.17717 0.08518 0.0
H1323 H 0.90281 0.18517 0.1124 0.0
C1324 C 0.88903 0.23354 0.04655 0.0
C1325 C 0.87429 0.24315 0.06171 0.0
C1326 C 0.90769 0.22157 0.0531 0.0
C1327 C 0.91208 0.21853 0.07501 0.0
C1328 C 0.89741 0.22802 0.09024 0.0
H1329 H 0.01497 0.1433 0.14238 0.0
H1330 H 0.98205 0.16433 0.13237 0.0
C1331 C 0.8788 0.24026 0.08368 0.0
C1332 C 0.93221 0.20584 0.08172 0.0
H1333 H 0.95084 0.15873 0.10694 0.0
C1334 C 0.9522 0.21389 0.07622 0.0
C1335 C 0.93184 0.18572 0.09306 0.0
C1336 C 0.91092 0.176 0.09902 0.0
C1337 C 0.97169 0.20265 0.08198 0.0
C1338 C 0.97141 0.18222 0.09294 0.0
C1339 C 0.95132 0.17425 0.09851 0.0
C1340 C 0.99163 0.16898 0.0989 0.0
C1341 C 0.99234 0.21325 0.07681 0.0
C1342 C 0.00813 0.16396 0.08349 0.0
C1343 C 0.02717 0.15211 0.08928 0.0
C1344 C 0.03014 0.14446 0.11057 0.0
C1345 C 0.01335 0.14887 0.12583 0.0
C1346 C 0.99442 0.16096 0.12009 0.0
H1347 H 0.98958 0.23113 0.07519 0.0
H1348 H 1.00429 0.20948 0.08941 0.0
H1349 H 0.9992 0.20729 0.06122 0.0
H1350 H 0.00631 0.16916 0.06687 0.0
H1351 H 0.03959 0.1489 0.07701 0.0
H1352 H 0.09133 0.25671 0.32822 0.0
H1353 H 0.09756 0.22805 0.30171 0.0
H1354 H 0.07937 0.27389 0.251 0.0
H1355 H 0.0731 0.30244 0.27752 0.0
H1356 H 0.06431 0.21552 0.27548 0.0
H1357 H 0.13449 0.24131 0.22678 0.0
H1358 H 0.12787 0.25127 0.25336 0.0
H1359 H 0.11342 0.26221 0.2306 0.0
C1360 C 0.08956 0.26074 0.31129 0.0
C1361 C 0.08241 0.28174 0.30465 0.0
C1362 C 0.09284 0.2444 0.29624 0.0
C1363 C 0.08909 0.24894 0.27442 0.0
C1364 C 0.08273 0.27017 0.26771 0.0
H1365 H 0.05913 0.16273 0.17307 0.0
H1366 H 0.05634 0.18725 0.20364 0.0
C1367 C 0.07929 0.28646 0.28278 0.0
C1368 C 0.09001 0.23122 0.2589 0.0
H1369 H 0.11478 0.21391 0.21231 0.0
C1370 C 0.07546 0.21499 0.26174 0.0
C1371 C 0.1046 0.23063 0.24111 0.0
C1372 C 0.12113 0.24717 0.2378 0.0
C1373 C 0.07493 0.19826 0.24701 0.0
C1374 C 0.08912 0.19802 0.22885 0.0
C1375 C 0.10383 0.21415 0.2262 0.0
C1376 C 0.08951 0.18106 0.21245 0.0
C1377 C 0.05939 0.18091 0.25117 0.0
C1378 C 0.10891 0.1693 0.20745 0.0
C1379 C 0.11056 0.15574 0.18992 0.0
C1380 C 0.09278 0.15346 0.1772 0.0
C1381 C 0.07295 0.16408 0.18289 0.0
C1382 C 0.07137 0.17803 0.20033 0.0
H1383 H 0.0541 0.18002 0.26838 0.0
H1384 H 0.04494 0.18472 0.2415 0.0
H1385 H 0.06662 0.16478 0.24646 0.0
H1386 H 0.12306 0.17133 0.21661 0.0
H1387 H 0.12601 0.14764 0.18577 0.0
H1388 H 0.98963 0.34335 0.29003 0.0
H1389 H 0.98382 0.36519 0.25696 0.0
H1390 H 0.04583 0.39064 0.2623 0.0
H1391 H 0.05165 0.36912 0.29536 0.0
H1392 H 0.01555 0.42259 0.2521 0.0
H1393 H 0.00987 0.35439 0.19713 0.0
H1394 H 0.99124 0.35401 0.2197 0.0
H1395 H 0.01958 0.35054 0.22407 0.0
C1396 C 1.00202 0.35364 0.28423 0.0
C1397 C 0.02112 0.35437 0.29553 0.0
C1398 C 0.99876 0.36601 0.26512 0.0
C1399 C 0.01454 0.37938 0.25672 0.0
C1400 C 0.03342 0.38042 0.26822 0.0
H1401 H 0.01248 0.44438 0.12671 0.0
H1402 H 0.02457 0.4222 0.15834 0.0
C1403 C 0.03671 0.36805 0.28723 0.0
C1404 C 0.01127 0.39272 0.23634 0.0
H1405 H 1.0004 0.38976 0.18282 0.0
C1406 C 0.01239 0.41532 0.23696 0.0
C1407 C 0.00745 0.38342 0.21632 0.0
C1408 C 0.00716 0.35925 0.21412 0.0
C1409 C 0.0091 0.42877 0.21852 0.0
C1410 C 1.00442 0.41957 0.19872 0.0
C1411 C 1.00397 0.39693 0.19789 0.0
C1412 C 0.99807 0.43337 0.17941 0.0
C1413 C 0.01058 0.45286 0.22043 0.0
C1414 C 0.97925 0.44701 0.18057 0.0
C1415 C 0.97238 0.45945 0.16269 0.0
C1416 C 0.98409 0.45883 0.14294 0.0
C1417 C 1.00322 0.44546 0.1417 0.0
C1418 C 0.01003 0.43268 0.15975 0.0
H1419 H 0.0201 0.45672 0.23443 0.0
H1420 H 0.01796 0.45996 0.20562 0.0
H1421 H 0.9942 0.4607 0.22274 0.0
H1422 H 0.96951 0.44771 0.1953 0.0
H1423 H 0.95753 0.46945 0.16431 0.0
H1424 H 0.95823 0.8039 0.28593 0.0
H1425 H 0.95316 0.83734 0.30653 0.0
H1426 H 0.01866 0.82862 0.32657 0.0
H1427 H 0.02363 0.79535 0.30687 0.0
H1428 H 0.99115 0.84086 0.35931 0.0
H1429 H 0.97809 0.8943 0.28678 0.0
H1430 H 0.96002 0.87319 0.29166 0.0
H1431 H 0.98771 0.86627 0.2848 0.0
C1432 C 0.97139 0.809 0.29502 0.0
C1433 C 0.99136 0.79703 0.29464 0.0
C1434 C 0.96854 0.82819 0.30659 0.0
C1435 C 0.98565 0.83563 0.31778 0.0
C1436 C 1.00524 0.82322 0.31803 0.0
H1437 H 0.04057 0.94783 0.3489 0.0
H1438 H 0.02251 0.91945 0.33189 0.0
C1439 C 0.00806 0.80416 0.30668 0.0
C1440 C 0.98402 0.85656 0.3289 0.0
H1441 H 0.98367 0.91112 0.3192 0.0
C1442 C 0.98908 0.8563 0.3507 0.0
C1443 C 0.98145 0.87659 0.31749 0.0
C1444 C 0.97664 0.87778 0.29386 0.0
C1445 C 0.99337 0.8753 0.36102 0.0
C1446 C 0.99156 0.89533 0.34943 0.0
C1447 C 0.98494 0.89577 0.32804 0.0
C1448 C 0.9995 0.91523 0.3582 0.0
C1449 C 1.00156 0.87337 0.38363 0.0
C1450 C 0.99192 0.92309 0.37817 0.0
C1451 C 1.00274 0.9388 0.38832 0.0
C1452 C 0.02099 0.94738 0.37838 0.0
C1453 C 0.02708 0.94106 0.35738 0.0
C1454 C 0.01655 0.92503 0.34747 0.0
H1455 H 0.00635 0.85634 0.38837 0.0
H1456 H 0.01563 0.88315 0.38526 0.0
H1457 H 0.98872 0.87939 0.39512 0.0
H1458 H 0.97838 0.91623 0.38645 0.0
H1459 H 0.99749 0.94321 0.40446 0.0
H1460 H 0.06077 0.70892 0.31469 0.0
H1461 H 0.05961 0.68381 0.34577 0.0
H1462 H 0.99415 0.67216 0.33278 0.0
H1463 H 0.99501 0.69733 0.3018 0.0
H1464 H 0.02395 0.68842 0.38201 0.0
H1465 H 0.03076 0.61044 0.33886 0.0
H1466 H 0.04125 0.63485 0.32742 0.0
H1467 H 0.01288 0.63209 0.32864 0.0
C1468 C 0.04618 0.70089 0.31833 0.0
C1469 C 0.02799 0.7051 0.30575 0.0
C1470 C 0.04555 0.6866 0.33609 0.0
C1471 C 0.02686 0.67608 0.34137 0.0
C1472 C 0.00877 0.68003 0.32878 0.0
H1473 H 0.98997 0.58402 0.44086 0.0
H1474 H 0.99403 0.6055 0.40755 0.0
C1475 C 0.00929 0.69445 0.31114 0.0
C1476 C 0.02594 0.66162 0.3606 0.0
H1477 H 0.02523 0.60851 0.37655 0.0
C1478 C 0.02434 0.67093 0.3809 0.0
C1479 C 0.02617 0.63891 0.35892 0.0
C1480 C 0.02795 0.62832 0.33734 0.0
C1481 C 0.02266 0.65809 0.39972 0.0
C1482 C 0.02333 0.63525 0.39815 0.0
C1483 C 0.02488 0.62597 0.37775 0.0
C1484 C 0.02209 0.62081 0.4175 0.0
C1485 C 0.01952 0.66918 0.42103 0.0
C1486 C 0.037 0.62163 0.43378 0.0
C1487 C 0.03462 0.60954 0.45287 0.0
C1488 C 0.0175 0.59606 0.45589 0.0
C1489 C 1.00335 0.59421 0.43902 0.0
C1490 C 1.00561 0.60653 0.42 0.0
H1491 H 0.0131 0.68627 0.41894 0.0
H1492 H 0.00836 0.6606 0.43197 0.0
H1493 H 0.03521 0.66931 0.42885 0.0
H1494 H 0.05022 0.63202 0.43193 0.0
H1495 H 0.04592 0.61115 0.46547 0.0
H1496 H 0.30796 0.0428 0.24758 0.0
H1497 H 0.27693 0.04975 0.22503 0.0
H1498 H 0.26045 0.10936 0.25783 0.0
H1499 H 0.29213 0.10283 0.27997 0.0
H1500 H 0.23648 0.05179 0.23322 0.0
H1501 H 0.254 0.13184 0.19807 0.0
H1502 H 0.27336 0.11552 0.21336 0.0
H1503 H 0.25245 0.13198 0.22688 0.0
C1504 C 0.29794 0.05758 0.24987 0.0
C1505 C 0.30283 0.07233 0.26559 0.0
C1506 C 0.28002 0.06152 0.23693 0.0
C1507 C 0.26622 0.0803 0.23926 0.0
C1508 C 0.271 0.09505 0.25505 0.0
H1509 H 0.13498 0.08714 0.1908 0.0
H1510 H 0.16693 0.08234 0.21238 0.0
C1511 C 0.28915 0.09123 0.26788 0.0
C1512 C 0.24657 0.08377 0.22571 0.0
H1513 H 0.21904 0.12032 0.19261 0.0
C1514 C 0.2328 0.0668 0.22431 0.0
C1515 C 0.24162 0.10314 0.21361 0.0
C1516 C 0.25625 0.12156 0.21284 0.0
C1517 C 0.21446 0.06864 0.21153 0.0
C1518 C 0.20898 0.08836 0.2002 0.0
C1519 C 0.22286 0.10526 0.20138 0.0
C1520 C 0.18915 0.09167 0.18692 0.0
C1521 C 0.20155 0.04906 0.20986 0.0
C1522 C 0.19042 0.0994 0.16542 0.0
C1523 C 0.17193 0.10254 0.15304 0.0
C1524 C 0.15158 0.09797 0.16174 0.0
C1525 C 0.15032 0.09044 0.1833 0.0
C1526 C 0.16874 0.08756 0.19572 0.0
H1527 H 0.21143 0.03381 0.21324 0.0
H1528 H 0.18809 0.05004 0.22195 0.0
H1529 H 0.19483 0.0481 0.19364 0.0
H1530 H 0.2058 0.10291 0.15812 0.0
H1531 H 0.17361 0.10858 0.13661 0.0
H1532 H 0.74132 0.47743 0.31873 0.0
H1533 H 0.76907 0.47211 0.29012 0.0
H1534 H 0.77237 0.54126 0.28294 0.0
H1535 H 0.74503 0.54671 0.31142 0.0
H1536 H 0.76679 0.48689 0.24759 0.0
H1537 H 0.83545 0.52044 0.28606 0.0
H1538 H 0.81176 0.51303 0.30113 0.0
H1539 H 0.81184 0.53862 0.28672 0.0
C1540 C 0.74821 0.49148 0.31128 0.0
C1541 C 0.74095 0.51249 0.31744 0.0
C1542 C 0.76401 0.48841 0.29488 0.0
C1543 C 0.77304 0.50628 0.28456 0.0
C1544 C 0.76602 0.52721 0.29093 0.0
H1545 H 0.83044 0.52156 0.15764 0.0
H1546 H 0.80709 0.52028 0.18987 0.0
C1547 C 0.75023 0.53028 0.30718 0.0
C1548 C 0.7888 0.50333 0.26623 0.0
H1549 H 0.83823 0.51718 0.24772 0.0
C1550 C 0.78251 0.49328 0.24771 0.0
C1551 C 0.80943 0.51144 0.26644 0.0
C1552 C 0.81763 0.52129 0.28623 0.0
C1553 C 0.79592 0.4919 0.22912 0.0
C1554 C 0.81604 0.50113 0.22891 0.0
C1555 C 0.8227 0.51037 0.24774 0.0
C1556 C 0.83025 0.5017 0.20923 0.0
C1557 C 0.78839 0.48052 0.2099 0.0
C1558 C 0.85128 0.49219 0.20947 0.0
C1559 C 0.86473 0.49294 0.19104 0.0
C1560 C 0.85748 0.50333 0.17195 0.0
C1561 C 0.83645 0.51305 0.17187 0.0
C1562 C 0.82304 0.51232 0.19031 0.0
H1563 H 0.77604 0.46905 0.21461 0.0
H1564 H 0.78109 0.49272 0.19846 0.0
H1565 H 0.80196 0.47146 0.20143 0.0
H1566 H 0.85725 0.48399 0.2239 0.0
H1567 H 0.88071 0.48507 0.19167 0.0
H1568 H 0.28375 0.02996 0.31572 0.0
H1569 H 0.25417 0.02923 0.34245 0.0
H1570 H 0.29711 0.99819 0.38851 0.0
H1571 H 0.32683 0.99888 0.36158 0.0
H1572 H 0.23678 0.99499 0.36842 0.0
H1573 H 0.27399 0.05681 0.41582 0.0
H1574 H 0.28232 0.05099 0.3884 0.0
H1575 H 0.29038 0.03256 0.40983 0.0
C1576 C 0.28661 0.02224 0.3313 0.0
C1577 C 0.30728 0.01407 0.33662 0.0
C1578 C 0.26983 0.02202 0.34659 0.0
C1579 C 0.27361 0.01399 0.36749 0.0
C1580 C 0.29401 1.00466 0.37249 0.0
H1581 H 0.17468 0.99638 0.46355 0.0
H1582 H 0.21018 0.99704 0.44607 0.0
C1583 C 0.31083 1.00474 0.35708 0.0
C1584 C 0.25635 0.01664 0.38416 0.0
H1585 H 0.24056 0.04532 0.42884 0.0
C1586 C 0.23764 1.00586 0.38171 0.0
C1587 C 0.25751 0.03113 0.40126 0.0
C1588 C 0.27703 0.04371 0.40402 0.0
C1589 C 0.21999 1.00915 0.39595 0.0
C1590 C 0.22117 0.02352 0.41309 0.0
C1591 C 0.23985 0.03431 0.41565 0.0
C1592 C 0.20288 0.02703 0.42843 0.0
C1593 C 0.20004 0.9974 0.39249 0.0
C1594 C 0.18763 0.04447 0.42527 0.0
C1595 C 0.16737 0.0443 0.43557 0.0
C1596 C 0.16238 0.02657 0.44884 0.0
C1597 C 0.17838 1.01031 0.45355 0.0
C1598 C 0.19859 0.01062 0.44354 0.0
H1599 H 0.20074 0.98902 0.37689 0.0
H1600 H 0.19809 0.98513 0.40561 0.0
H1601 H 0.18563 1.00892 0.393 0.0
H1602 H 0.19072 0.05717 0.41349 0.0
H1603 H 0.15506 0.05676 0.43147 0.0
H1604 H 0.69742 0.54841 0.42263 0.0
H1605 H 0.71796 0.5495 0.4553 0.0
H1606 H 0.76911 0.57809 0.41855 0.0
H1607 H 0.74805 0.57779 0.38603 0.0
H1608 H 0.75316 0.52538 0.45841 0.0
H1609 H 0.7724 0.60887 0.47387 0.0
H1610 H 0.7509 0.60301 0.45666 0.0
H1611 H 0.77812 0.60321 0.44612 0.0
C1612 C 0.7127 0.55575 0.42183 0.0
C1613 C 0.72129 0.56315 0.40208 0.0
C1614 C 0.72439 0.55635 0.44044 0.0
C1615 C 0.74499 0.56403 0.43944 0.0
C1616 C 0.753 0.57267 0.41986 0.0
H1617 H 0.86207 0.51629 0.46958 0.0
H1618 H 0.82417 0.52101 0.46256 0.0
C1619 C 0.74109 0.5724 0.40126 0.0
C1620 C 0.75957 0.55926 0.45744 0.0
H1621 H 0.80017 0.58032 0.48339 0.0
C1622 C 0.76297 0.53755 0.46442 0.0
C1623 C 0.77208 0.57509 0.4657 0.0
C1624 C 0.76798 0.59887 0.46034 0.0
C1625 C 0.78003 0.53096 0.47759 0.0
C1626 C 0.7942 0.5464 0.48352 0.0
C1627 C 0.78943 0.56842 0.47854 0.0
C1628 C 0.81591 0.53979 0.49087 0.0
C1629 C 0.78349 0.50733 0.48392 0.0
C1630 C 0.82382 0.54848 0.50937 0.0
C1631 C 0.84567 0.54565 0.51357 0.0
C1632 C 0.85991 0.5344 0.49911 0.0
C1633 C 0.8516 0.52466 0.48131 0.0
C1634 C 0.82984 0.52736 0.47724 0.0
H1635 H 0.76795 0.49967 0.48574 0.0
H1636 H 0.79311 0.49875 0.47106 0.0
H1637 H 0.79214 0.50507 0.49921 0.0
H1638 H 0.81328 0.55823 0.51998 0.0
H1639 H 0.85154 0.5531 0.52758 0.0
H1640 H 0.32498 0.29976 0.03821 0.0
H1641 H 0.29533 0.27855 0.05055 0.0
H1642 H 0.28562 0.31795 0.10662 0.0
H1643 H 0.31559 0.33947 0.09429 0.0
H1644 H 0.28832 0.25566 0.09215 0.0
H1645 H 0.22727 0.3226 0.07258 0.0
H1646 H 0.25429 0.32194 0.06133 0.0
H1647 H 0.24928 0.32838 0.08903 0.0
C1648 C 0.31674 0.30377 0.05333 0.0
C1649 C 0.32248 0.32131 0.06527 0.0
C1650 C 0.29984 0.29162 0.06034 0.0
C1651 C 0.28824 0.29689 0.07932 0.0
C1652 C 0.29438 0.31382 0.09182 0.0
H1653 H 0.18862 0.21105 0.12182 0.0
H1654 H 0.21725 0.23588 0.12286 0.0
C1655 C 0.31154 0.32594 0.08488 0.0
C1656 C 0.26916 0.285 0.08511 0.0
H1657 H 0.21462 0.28868 0.08219 0.0
C1658 C 0.27215 0.2629 0.09042 0.0
C1659 C 0.24822 0.29457 0.08236 0.0
C1660 C 0.24438 0.31815 0.07591 0.0
C1661 C 0.25472 0.24984 0.09242 0.0
C1662 C 0.23378 0.25931 0.08936 0.0
C1663 C 0.23073 0.28158 0.08465 0.0
C1664 C 0.21506 0.246 0.08943 0.0
C1665 C 0.25897 0.22583 0.09665 0.0
C1666 C 0.20387 0.24412 0.07046 0.0
C1667 C 0.18728 0.23019 0.06987 0.0
C1668 C 0.1816 0.21791 0.08826 0.0
C1669 C 0.19246 0.22038 0.10741 0.0
C1670 C 0.20896 0.2344 0.10801 0.0
H1671 H 0.2762 0.22053 0.09416 0.0
H1672 H 0.25426 0.22186 0.11357 0.0
H1673 H 0.24937 0.21641 0.08601 0.0
H1674 H 0.20833 0.25306 0.05598 0.0
H1675 H 0.17897 0.22896 0.05499 0.0
H1676 H 0.26195 0.82427 0.56315 0.0
H1677 H 0.23315 0.85228 0.5561 0.0
H1678 H 0.26012 0.86287 0.49229 0.0
H1679 H 0.28788 0.83401 0.49881 0.0
H1680 H 0.22975 0.8923 0.54907 0.0
H1681 H 0.20134 0.85871 0.47485 0.0
H1682 H 0.22089 0.84396 0.4912 0.0
H1683 H 0.22905 0.86395 0.47147 0.0
C1684 C 0.26163 0.83248 0.54756 0.0
C1685 C 0.27714 0.82661 0.53148 0.0
C1686 C 0.2451 0.84859 0.54349 0.0
C1687 C 0.24377 0.85953 0.52333 0.0
C1688 C 0.25989 0.85423 0.50763 0.0
H1689 H 0.17188 0.98503 0.50635 0.0
H1690 H 0.19794 0.95516 0.51432 0.0
C1691 C 0.27603 0.8378 0.51149 0.0
C1692 C 0.22601 0.8768 0.51896 0.0
H1693 H 0.19003 0.89579 0.48128 0.0
C1694 C 0.22097 0.89283 0.5343 0.0
C1695 C 0.2139 0.8776 0.49996 0.0
C1696 C 0.21641 0.85998 0.48359 0.0
C1697 C 0.20483 0.90962 0.53104 0.0
C1698 C 0.19384 0.91131 0.51135 0.0
C1699 C 0.1985 0.89499 0.49625 0.0
C1700 C 0.17766 0.92981 0.50603 0.0
C1701 C 0.19942 0.92493 0.5492 0.0
C1702 C 0.15764 0.92608 0.49746 0.0
C1703 C 0.14275 0.94342 0.49217 0.0
C1704 C 0.14736 0.96499 0.49555 0.0
C1705 C 0.16745 0.96868 0.50391 0.0
C1706 C 0.18243 0.95145 0.50872 0.0
H1707 H 0.20293 0.91699 0.56504 0.0
H1708 H 0.20947 0.939 0.54736 0.0
H1709 H 0.18226 0.93088 0.54939 0.0
H1710 H 0.15341 0.90969 0.49493 0.0
H1711 H 0.12757 0.93991 0.48562 0.0
H1712 H 0.88281 0.79107 0.47548 0.0
H1713 H 0.90005 0.75436 0.47862 0.0
H1714 H 0.9332 0.77284 0.53427 0.0
H1715 H 0.91553 0.80917 0.53168 0.0
H1716 H 0.94041 0.73631 0.47818 0.0
H1717 H 0.90303 0.72227 0.55875 0.0
H1718 H 0.89544 0.74561 0.54208 0.0
H1719 H 0.91905 0.74523 0.55797 0.0
C1720 C 0.89399 0.78738 0.48821 0.0
C1721 C 0.89763 0.80303 0.50344 0.0
C1722 C 0.9038 0.76635 0.49004 0.0
C1723 C 0.91751 0.76058 0.50706 0.0
C1724 C 0.92217 0.7766 0.52143 0.0
H1725 H 0.99796 0.63801 0.51346 0.0
H1726 H 0.98545 0.67632 0.50955 0.0
C1727 C 0.91219 0.79748 0.51979 0.0
C1728 C 0.92641 0.73774 0.51021 0.0
H1729 H 0.92996 0.69589 0.54719 0.0
C1730 C 0.93809 0.72745 0.49325 0.0
C1731 C 0.92307 0.72594 0.52974 0.0
C1732 C 0.90928 0.73523 0.54808 0.0
C1733 C 0.94667 0.70587 0.49533 0.0
C1734 C 0.94408 0.69439 0.51519 0.0
C1735 C 0.93227 0.70468 0.53206 0.0
C1736 C 0.95233 0.67133 0.51853 0.0
C1737 C 0.95782 0.69544 0.47598 0.0
C1738 C 0.93826 0.65582 0.52599 0.0
C1739 C 0.9455 0.63408 0.52877 0.0
C1740 C 0.96699 0.62721 0.524 0.0
C1741 C 0.98129 0.64278 0.51718 0.0
C1742 C 0.97406 0.66465 0.51465 0.0
H1743 H 0.953 0.70395 0.46076 0.0
H1744 H 0.97541 0.69624 0.47721 0.0
H1745 H 0.95424 0.67818 0.47502 0.0
H1746 H 0.92147 0.66046 0.52926 0.0
H1747 H 0.93405 0.62253 0.53407 0.0
H1748 H 0.36125 0.83408 0.52886 0.0
H1749 H 0.39189 0.85604 0.52366 0.0
H1750 H 0.41401 0.81845 0.46895 0.0
H1751 H 0.38291 0.79615 0.47397 0.0
H1752 H 0.43871 0.83223 0.52089 0.0
H1753 H 0.41376 0.88935 0.45441 0.0
H1754 H 0.39309 0.87867 0.47172 0.0
H1755 H 0.40892 0.86088 0.45429 0.0
C1756 C 0.37244 0.83056 0.51555 0.0
C1757 C 0.36977 0.81331 0.5019 0.0
C1758 C 0.38993 0.84312 0.51261 0.0
C1759 C 0.40518 0.83869 0.49605 0.0
C1760 C 0.40231 0.82203 0.48181 0.0
H1761 H 0.50119 0.92373 0.53882 0.0
H1762 H 0.49233 0.89361 0.51649 0.0
C1763 C 0.38456 0.80942 0.48466 0.0
C1764 C 0.4244 0.85123 0.49508 0.0
H1765 H 0.43786 0.90173 0.47946 0.0
C1766 C 0.43927 0.84709 0.5113 0.0
C1767 C 0.42499 0.87037 0.48237 0.0
C1768 C 0.40944 0.87519 0.46459 0.0
C1769 C 0.45277 0.86298 0.51718 0.0
C1770 C 0.45149 0.8833 0.50614 0.0
C1771 C 0.43871 0.88619 0.48797 0.0
C1772 C 0.4583 0.90289 0.51644 0.0
C1773 C 0.46627 0.85879 0.53673 0.0
C1774 C 0.4423 0.9185 0.52304 0.0
C1775 C 0.44729 0.93566 0.53548 0.0
C1776 C 0.46843 0.93759 0.54179 0.0
C1777 C 0.4847 0.92248 0.53446 0.0
C1778 C 0.47967 0.90529 0.52172 0.0
H1779 H 0.46406 0.84265 0.54438 0.0
H1780 H 0.48347 0.85954 0.532 0.0
H1781 H 0.46217 0.87136 0.54887 0.0
H1782 H 0.42567 0.91695 0.51929 0.0
H1783 H 0.43434 0.94705 0.54067 0.0
H1784 H 0.60059 0.79628 0.78548 0.0
H1785 H 0.60705 0.76901 0.75737 0.0
H1786 H 0.56768 0.7256 0.7937 0.0
H1787 H 0.5609 0.75268 0.82131 0.0
H1788 H 0.62114 0.72145 0.75697 0.0
H1789 H 0.53612 0.7413 0.73648 0.0
H1790 H 0.55074 0.75831 0.75304 0.0
H1791 H 0.54005 0.73412 0.7643 0.0
C1792 C 0.59388 0.78067 0.78763 0.0
C1793 C 0.58007 0.77656 0.80528 0.0
C1794 C 0.59752 0.76517 0.77164 0.0
C1795 C 0.58751 0.74551 0.77341 0.0
C1796 C 0.57528 0.74079 0.79197 0.0
H1797 H 0.59646 0.63407 0.68893 0.0
H1798 H 0.59757 0.65733 0.72024 0.0
C1799 C 0.57144 0.75625 0.80768 0.0
C1800 C 0.5875 0.73093 0.75503 0.0
H1801 H 0.55376 0.71092 0.71969 0.0
C1802 C 0.6065 0.71916 0.74868 0.0
C1803 C 0.56835 0.72823 0.74421 0.0
C1804 C 0.54768 0.74129 0.74968 0.0
C1805 C 0.60675 0.70442 0.73184 0.0
C1806 C 0.5874 0.70122 0.72151 0.0
C1807 C 0.56851 0.71321 0.72781 0.0
C1808 C 0.58646 0.68668 0.70311 0.0
C1809 C 0.62777 0.69281 0.72498 0.0
C1810 C 0.57897 0.69528 0.68347 0.0
C1811 C 0.57789 0.68205 0.66587 0.0
C1812 C 0.58444 0.65993 0.66747 0.0
C1813 C 0.59136 0.65109 0.68729 0.0
C1814 C 0.59228 0.6644 0.70506 0.0
H1815 H 0.64171 0.7009 0.73085 0.0
H1816 H 0.62847 0.67603 0.73177 0.0
H1817 H 0.62927 0.69192 0.70719 0.0
H1818 H 0.57423 0.71238 0.68166 0.0
H1819 H 0.57241 0.6893 0.65081 0.0
H1820 H 0.48752 0.84435 0.79095 0.0
H1821 H 0.48114 0.86636 0.75807 0.0
H1822 H 0.54544 0.88726 0.7592 0.0
H1823 H 0.55177 0.86575 0.79211 0.0
H1824 H 0.51809 0.92085 0.74934 0.0
H1825 H 0.50187 0.85277 0.69761 0.0
H1826 H 0.4843 0.85495 0.72096 0.0
H1827 H 0.51256 0.84857 0.72409 0.0
C1828 C 0.50029 0.85368 0.78426 0.0
C1829 C 0.5202 0.85312 0.79435 0.0
C1830 C 0.49669 0.86616 0.76526 0.0
C1831 C 0.51291 0.87831 0.75569 0.0
C1832 C 0.53261 0.87806 0.76601 0.0
H1833 H 0.51298 0.92977 0.62227 0.0
H1834 H 0.5214 0.91004 0.65615 0.0
C1835 C 0.53622 0.86565 0.78495 0.0
C1836 C 0.50951 0.89144 0.73516 0.0
H1837 H 0.49571 0.88816 0.68249 0.0
C1838 C 0.51321 0.91363 0.73475 0.0
C1839 C 0.50351 0.88217 0.7158 0.0
C1840 C 0.50053 0.85828 0.71448 0.0
C1841 C 0.51082 0.92672 0.71589 0.0
C1842 C 0.50411 0.91761 0.69673 0.0
C1843 C 0.5007 0.89535 0.69706 0.0
C1844 C 0.5004 0.9308 0.67627 0.0
C1845 C 0.51603 0.95012 0.71664 0.0
C1846 C 0.48597 0.9493 0.67599 0.0
C1847 C 0.48143 0.96074 0.65666 0.0
C1848 C 0.49113 0.95401 0.63701 0.0
C1849 C 0.50573 0.93571 0.63721 0.0
C1850 C 0.51034 0.92428 0.65659 0.0
H1851 H 0.52716 0.95275 0.72974 0.0
H1852 H 0.52341 0.95567 0.70116 0.0
H1853 H 0.50104 0.96032 0.71982 0.0
H1854 H 0.47752 0.95447 0.69063 0.0
H1855 H 0.46958 0.97435 0.65691 0.0
H1856 H 0.51323 0.28826 0.81482 0.0
H1857 H 0.51066 0.3222 0.83403 0.0
H1858 H 0.45541 0.34441 0.79782 0.0
H1859 H 0.45783 0.31015 0.77847 0.0
H1860 H 0.48973 0.37257 0.79594 0.0
H1861 H 0.46884 0.34926 0.88008 0.0
H1862 H 0.49003 0.33176 0.86857 0.0
H1863 H 0.46371 0.33269 0.85756 0.0
C1864 C 0.50017 0.30012 0.81132 0.0
C1865 C 0.48571 0.29655 0.79517 0.0
C1866 C 0.49866 0.31948 0.82239 0.0
C1867 C 0.48273 0.33575 0.81749 0.0
C1868 C 0.4677 0.33195 0.80196 0.0
H1869 H 0.49268 0.4536 0.89178 0.0
H1870 H 0.47555 0.42538 0.87298 0.0
C1871 C 0.46903 0.31236 0.79102 0.0
C1872 C 0.48366 0.3574 0.8269 0.0
H1873 H 0.48778 0.38185 0.87495 0.0
C1874 C 0.48879 0.37479 0.8132 0.0
C1875 C 0.48223 0.36034 0.84937 0.0
C1876 C 0.47568 0.34257 0.86474 0.0
C1877 C 0.49406 0.39457 0.82147 0.0
C1878 C 0.49442 0.39688 0.84402 0.0
C1879 C 0.48772 0.38003 0.85766 0.0
C1880 C 0.50385 0.41553 0.85379 0.0
C1881 C 0.49981 0.41256 0.80597 0.0
C1882 C 0.5254 0.41938 0.84923 0.0
C1883 C 0.53525 0.43531 0.86001 0.0
C1884 C 0.52381 0.44777 0.87573 0.0
C1885 C 0.50202 0.44424 0.8799 0.0
C1886 C 0.49217 0.42819 0.8691 0.0
H1887 H 0.49183 0.4113 0.7904 0.0
H1888 H 0.49526 0.42872 0.8127 0.0
H1889 H 0.5174 0.41131 0.80263 0.0
H1890 H 0.53492 0.40941 0.83795 0.0
H1891 H 0.55216 0.43708 0.85674 0.0
H1892 H 0.55754 0.20947 0.81216 0.0
H1893 H 0.55784 0.1844 0.84333 0.0
H1894 H 0.4921 0.17176 0.83283 0.0
H1895 H 0.49151 0.1969 0.80179 0.0
H1896 H 0.5239 0.18876 0.88073 0.0
H1897 H 0.52907 0.1105 0.83815 0.0
H1898 H 0.53877 0.13497 0.82599 0.0
H1899 H 0.5105 0.13185 0.82856 0.0
C1900 C 0.5432 0.20123 0.81636 0.0
C1901 C 0.5245 0.20516 0.80449 0.0
C1902 C 0.54341 0.18696 0.83417 0.0
C1903 C 0.52505 0.17617 0.84018 0.0
C1904 C 0.50647 0.17982 0.82826 0.0
H1905 H 0.49073 0.08466 0.94074 0.0
H1906 H 0.4943 0.10611 0.90739 0.0
C1907 C 0.50616 0.19423 0.81059 0.0
C1908 C 0.52497 0.16182 0.85953 0.0
H1909 H 0.52457 0.10883 0.87597 0.0
C1910 C 0.52418 0.17127 0.87978 0.0
C1911 C 0.52507 0.1391 0.85807 0.0
C1912 C 0.526 0.12835 0.83656 0.0
C1913 C 0.52309 0.15856 0.89874 0.0
C1914 C 0.52354 0.13571 0.89736 0.0
C1915 C 0.52438 0.1263 0.87703 0.0
C1916 C 0.52256 0.12139 0.91684 0.0
C1917 C 0.52071 0.16983 0.92 0.0
C1918 C 0.53771 0.12223 0.93291 0.0
C1919 C 0.53558 0.11018 0.95208 0.0
C1920 C 0.5185 0.09669 0.95535 0.0
C1921 C 0.50409 0.09486 0.93871 0.0
C1922 C 0.50608 0.10716 0.91965 0.0
H1923 H 0.51436 0.18694 0.91795 0.0
H1924 H 0.50981 0.16142 0.93137 0.0
H1925 H 0.53666 0.1699 0.9273 0.0
H1926 H 0.55094 0.13259 0.93084 0.0
H1927 H 0.54707 0.11179 0.9645 0.0
H1928 H 0.79948 0.53971 0.75638 0.0
H1929 H 0.76896 0.54711 0.73328 0.0
H1930 H 0.76489 0.61404 0.7512 0.0
H1931 H 0.79539 0.60659 0.77491 0.0
H1932 H 0.7255 0.59938 0.75093 0.0
H1933 H 0.76707 0.57523 0.6747 0.0
H1934 H 0.76876 0.55386 0.6947 0.0
H1935 H 0.78136 0.57864 0.69898 0.0
C1936 C 0.79228 0.5561 0.7554 0.0
C1937 C 0.80023 0.57257 0.76754 0.0
C1938 C 0.77477 0.56036 0.74193 0.0
C1939 C 0.76467 0.58129 0.73988 0.0
C1940 C 0.77238 0.59776 0.7522 0.0
H1941 H 0.67119 0.61808 0.63875 0.0
H1942 H 0.70329 0.61401 0.66069 0.0
C1943 C 0.78993 0.59349 0.76578 0.0
C1944 C 0.74577 0.5857 0.72545 0.0
H1945 H 0.72875 0.57919 0.67423 0.0
C1946 C 0.72634 0.59507 0.73413 0.0
C1947 C 0.74662 0.58047 0.70332 0.0
C1948 C 0.76713 0.57171 0.69231 0.0
C1949 C 0.70784 0.59872 0.72166 0.0
C1950 C 0.70841 0.59251 0.69982 0.0
C1951 C 0.72801 0.58375 0.69096 0.0
C1952 C 0.68885 0.59473 0.68606 0.0
C1953 C 0.6879 0.60955 0.73204 0.0
C1954 C 0.66995 0.58491 0.6925 0.0
C1955 C 0.65159 0.58719 0.67996 0.0
C1956 C 0.65146 0.59924 0.66038 0.0
C1957 C 0.67054 0.60868 0.65365 0.0
C1958 C 0.68898 0.60637 0.66626 0.0
H1959 H 0.6918 0.61917 0.74605 0.0
H1960 H 0.67904 0.62041 0.72041 0.0
H1961 H 0.67718 0.59697 0.73795 0.0
H1962 H 0.66937 0.57535 0.70731 0.0
H1963 H 0.63737 0.57954 0.68578 0.0
H1964 H 0.23158 0.97732 0.81385 0.0
H1965 H 0.25978 0.97059 0.78582 0.0
H1966 H 0.27476 0.03744 0.7871 0.0
H1967 H 0.24664 0.04439 0.81472 0.0
H1968 H 0.26107 0.9992 0.74319 0.0
H1969 H 0.33383 0.99707 0.79259 0.0
H1970 H 0.3081 0.9897 0.80352 0.0
H1971 H 0.31276 0.01763 0.79828 0.0
C1972 C 0.24106 0.99051 0.80833 0.0
C1973 C 0.23682 0.0114 0.81649 0.0
C1974 C 0.2571 0.98665 0.7923 0.0
C1975 C 0.2694 1.00351 0.78452 0.0
C1976 C 0.26555 0.02419 0.79301 0.0
H1977 H 0.37054 0.02567 0.69016 0.0
H1978 H 0.34514 0.02604 0.72098 0.0
C1979 C 0.24941 0.02812 0.80876 0.0
C1980 C 0.28547 1.00005 0.76665 0.0
H1981 H 0.33929 0.99817 0.75478 0.0
C1982 C 0.2782 0.9987 0.74568 0.0
C1983 C 0.30773 0.99975 0.77 0.0
C1984 C 0.31623 1.00099 0.7923 0.0
C1985 C 0.2926 0.99764 0.72784 0.0
C1986 C 0.31497 0.99731 0.73114 0.0
C1987 C 0.3222 0.99837 0.75222 0.0
C1988 C 0.33103 0.99645 0.71289 0.0
C1989 C 0.28364 0.99782 0.7056 0.0
C1990 C 0.33197 0.97944 0.69832 0.0
C1991 C 0.34641 0.97924 0.68065 0.0
C1992 C 0.36048 0.9959 0.67728 0.0
C1993 C 0.36003 0.01253 0.69231 0.0
C1994 C 0.34546 0.01279 0.70991 0.0
H1995 H 0.26659 1.00419 0.70558 0.0
H1996 H 0.29302 1.0078 0.69414 0.0
H1997 H 0.28442 0.98102 0.6997 0.0
H1998 H 0.32147 0.9663 0.70058 0.0
H1999 H 0.34663 0.96596 0.66964 0.0
H2000 H 0.78649 0.50498 0.82084 0.0
H2001 H 0.75703 0.50497 0.84802 0.0
H2002 H 0.80004 0.52309 0.89628 0.0
H2003 H 0.82917 0.52375 0.86907 0.0
H2004 H 0.74923 0.48564 0.88823 0.0
H2005 H 0.75545 0.57432 0.89417 0.0
H2006 H 0.76946 0.55855 0.87349 0.0
H2007 H 0.77971 0.55843 0.90017 0.0
C2008 C 0.78972 0.50814 0.83743 0.0
C2009 C 0.80993 0.51422 0.84307 0.0
C2010 C 0.77293 0.50833 0.85287 0.0
C2011 C 0.77631 0.5146 0.87398 0.0
C2012 C 0.79703 0.51872 0.87996 0.0
H2013 H 0.67601 0.50698 0.97321 0.0
H2014 H 0.71194 0.50731 0.95636 0.0
C2015 C 0.81367 0.5188 0.86453 0.0
C2016 C 0.75791 0.5186 0.8892 0.0
H2017 H 0.73032 0.5584 0.91786 0.0
C2018 C 0.74513 0.50149 0.89482 0.0
C2019 C 0.75244 0.53946 0.89741 0.0
C2020 C 0.76484 0.55881 0.89087 0.0
C2021 C 0.72697 0.50463 0.90848 0.0
C2022 C 0.72183 0.52536 0.91715 0.0
C2023 C 0.73459 0.54248 0.9115 0.0
C2024 C 0.70225 0.52979 0.9307 0.0
C2025 C 0.71303 0.48591 0.91284 0.0
C2026 C 0.68552 0.5439 0.92297 0.0
C2027 C 0.66516 0.54419 0.93297 0.0
C2028 C 0.66148 0.53038 0.9507 0.0
C2029 C 0.67871 0.51801 0.95972 0.0
C2030 C 0.69909 0.51794 0.94993 0.0
H2031 H 0.7164 0.47284 0.90107 0.0
H2032 H 0.71619 0.47892 0.92913 0.0
H2033 H 0.69576 0.49137 0.91229 0.0
H2034 H 0.68772 0.55325 0.90819 0.0
H2035 H 0.65191 0.55345 0.92554 0.0
H2036 H 0.24259 0.03111 0.89679 0.0
H2037 H 0.26247 0.0361 0.92895 0.0
H2038 H 0.23257 0.10065 0.93493 0.0
H2039 H 0.21251 0.0958 0.90215 0.0
H2040 H 0.27647 0.0978 0.94092 0.0
H2041 H 0.23934 0.03488 0.99075 0.0
H2042 H 0.24745 0.02436 0.96498 0.0
H2043 H 0.22718 0.04647 0.96673 0.0
C2044 C 0.24025 0.04643 0.90486 0.0
C2045 C 0.22591 0.06303 0.89711 0.0
C2046 C 0.25141 0.04914 0.9234 0.0
C2047 C 0.24828 0.06839 0.93476 0.0
C2048 C 0.23476 0.08549 0.92658 0.0
H2049 H 0.35228 0.07548 0.02525 0.0
H2050 H 0.31455 0.08348 0.01653 0.0
C2051 C 0.22356 0.08281 0.9078 0.0
C2052 C 0.26055 0.07057 0.95432 0.0
H2053 H 0.2776 0.0395 0.99726 0.0
C2054 C 0.27622 0.08571 0.95385 0.0
C2055 C 0.25992 0.05495 0.9713 0.0
C2056 C 0.24237 0.03942 0.97358 0.0
C2057 C 0.29304 0.08374 0.96826 0.0
C2058 C 0.29395 0.06626 0.98338 0.0
C2059 C 0.27687 0.05278 0.98552 0.0
C2060 C 0.31452 0.05872 0.99271 0.0
C2061 C 0.31098 0.09882 0.96566 0.0
C2062 C 0.32646 0.04156 0.98284 0.0
C2063 C 0.34797 0.03722 0.9874 0.0
C2064 C 0.35789 0.04989 1.00208 0.0
C2065 C 0.34525 0.06576 0.01349 0.0
C2066 C 0.32368 0.07026 1.0087 0.0
H2067 H 0.30769 0.11169 0.95319 0.0
H2068 H 0.31336 0.10663 0.98117 0.0
H2069 H 0.32618 0.08948 0.96112 0.0
H2070 H 0.31959 0.03258 0.97035 0.0
H2071 H 0.35714 0.02506 0.97809 0.0
H2072 H 0.82242 0.80241 0.52593 0.0
H2073 H 0.79195 0.78187 0.53718 0.0
H2074 H 0.78385 0.81842 0.59526 0.0
H2075 H 0.81465 0.8393 0.58403 0.0
H2076 H 0.78647 0.75721 0.57787 0.0
H2077 H 0.72403 0.82423 0.56324 0.0
H2078 H 0.75055 0.82418 0.55082 0.0
H2079 H 0.74676 0.82963 0.57887 0.0
C2080 C 0.81431 0.80599 0.54121 0.0
C2081 C 0.82087 0.82246 0.55412 0.0
C2082 C 0.7969 0.79426 0.54757 0.0
C2083 C 0.78559 0.79886 0.56686 0.0
C2084 C 0.79235 0.81486 0.58019 0.0
H2085 H 0.68985 0.71201 0.61471 0.0
H2086 H 0.71679 0.73883 0.61356 0.0
C2087 C 0.81001 0.82657 0.57388 0.0
C2088 C 0.76675 0.78661 0.57267 0.0
H2089 H 0.712 0.78987 0.57278 0.0
C2090 C 0.77017 0.76437 0.57715 0.0
C2091 C 0.74561 0.79607 0.57122 0.0
C2092 C 0.74132 0.81981 0.56568 0.0
C2093 C 0.75294 0.75115 0.57982 0.0
C2094 C 0.73178 0.76054 0.57831 0.0
C2095 C 0.72829 0.78286 0.57414 0.0
C2096 C 0.71328 0.74695 0.57979 0.0
C2097 C 0.75752 0.72707 0.58331 0.0
C2098 C 0.70193 0.7433 0.56132 0.0
C2099 C 0.6864 0.72809 0.56193 0.0
C2100 C 0.682 0.71633 0.58105 0.0
C2101 C 0.69275 0.72084 0.59976 0.0
C2102 C 0.70822 0.73608 0.59913 0.0
H2103 H 0.77471 0.72198 0.58026 0.0
H2104 H 0.75321 0.72255 0.6002 0.0
H2105 H 0.7477 0.71791 0.57263 0.0
H2106 H 0.70564 0.75161 0.54626 0.0
H2107 H 0.67808 0.72531 0.54736 0.0
H2108 H 0.779 0.34254 0.0628 0.0
H2109 H 0.75096 0.3715 0.05606 0.0
H2110 H 0.74454 0.34861 0.99196 0.0
H2111 H 0.77246 0.31979 0.99849 0.0
H2112 H 0.74992 0.40502 0.02271 0.0
H2113 H 0.68218 0.3523 0.01652 0.0
H2114 H 0.70714 0.34299 0.02859 0.0
H2115 H 0.70539 0.34491 0.99983 0.0
C2116 C 0.77157 0.34358 0.04729 0.0
C2117 C 0.77805 0.32865 0.03125 0.0
C2118 C 0.75552 0.36022 0.04344 0.0
C2119 C 0.74531 0.36217 0.02358 0.0
C2120 C 0.75181 0.34733 1.00755 0.0
H2121 H 0.6432 0.44741 0.96734 0.0
H2122 H 0.67059 0.41851 0.97572 0.0
C2123 C 0.76794 0.33085 0.0113 0.0
C2124 C 0.72823 0.37991 0.01939 0.0
H2125 H 0.67537 0.38933 1.00696 0.0
C2126 C 0.73358 0.40159 0.01941 0.0
C2127 C 0.7069 0.37556 0.01484 0.0
C2128 C 0.69991 0.35271 0.01509 0.0
C2129 C 0.71845 0.4189 0.01457 0.0
C2130 C 0.69699 0.41459 0.01021 0.0
C2131 C 0.69167 0.39285 0.01028 0.0
C2132 C 0.67992 0.43226 1.00536 0.0
C2133 C 0.72593 0.44158 0.0134 0.0
C2134 C 0.67544 0.44962 0.01934 0.0
C2135 C 0.65985 0.46633 0.01446 0.0
C2136 C 0.64792 0.46599 0.99566 0.0
C2137 C 0.65194 0.44828 0.98201 0.0
C2138 C 0.6677 0.43168 0.98679 0.0
H2139 H 0.74353 0.44151 0.01028 0.0
H2140 H 0.71777 0.4515 1.00057 0.0
H2141 H 0.72227 0.44944 0.02903 0.0
H2142 H 0.68399 0.45029 0.03413 0.0
H2143 H 0.6572 0.47957 0.02548 0.0
H2144 H 0.40613 0.3031 0.04629 0.0
H2145 H 0.42449 0.26714 0.04686 0.0
H2146 H 0.41135 0.2603 0.97986 0.0
H2147 H 0.39231 0.29626 0.9793 0.0
H2148 H 0.40168 0.22507 1.00256 0.0
H2149 H 0.48266 0.24554 0.02462 0.0
H2150 H 0.46248 0.2559 0.04349 0.0
H2151 H 0.46244 0.26585 0.01601 0.0
C2152 C 0.40739 0.29416 0.03153 0.0
C2153 C 0.3978 0.30273 0.01269 0.0
C2154 C 0.41806 0.27355 0.03187 0.0
C2155 C 0.41973 0.26106 0.01331 0.0
C2156 C 0.41045 0.26966 0.99436 0.0
H2157 H 0.49751 0.13772 1.00546 0.0
H2158 H 0.48414 0.1758 1.00191 0.0
C2159 C 0.39962 0.29028 0.99404 0.0
C2160 C 0.42987 0.23853 0.01417 0.0
H2161 H 0.47487 0.20825 0.02958 0.0
C2162 C 0.41777 0.22145 1.00827 0.0
C2163 C 0.45099 0.23368 0.02133 0.0
C2164 C 0.46547 0.25124 0.0265 0.0
C2165 C 0.42589 0.19974 0.00995 0.0
C2166 C 0.44652 0.19483 0.01832 0.0
C2167 C 0.45892 0.21192 0.02353 0.0
C2168 C 0.45544 0.17206 0.02172 0.0
C2169 C 0.41232 0.18232 1.00244 0.0
C2170 C 0.44424 0.15741 0.03469 0.0
C2171 C 0.45178 0.13566 0.03663 0.0
C2172 C 0.47087 0.12812 0.02592 0.0
C2173 C 0.48273 0.14303 0.01391 0.0
C2174 C 0.47507 0.16479 0.01183 0.0
H2175 H 0.40042 0.18887 0.99064 0.0
H2176 H 0.42237 0.16893 0.9949 0.0
H2177 H 0.40331 0.17557 0.01644 0.0
H2178 H 0.42942 0.16272 0.04303 0.0
H2179 H 0.44237 0.1246 0.04613 0.0
H2180 H 0.88821 0.29053 0.97923 0.0
H2181 H 0.92001 0.31199 0.97541 0.0
H2182 H 0.88788 0.36145 0.01461 0.0
H2183 H 0.85656 0.34012 0.0188 0.0
H2184 H 0.91652 0.37318 0.97162 0.0
H2185 H 0.95287 0.32074 0.03679 0.0
H2186 H 0.93985 0.30968 0.01444 0.0
H2187 H 0.92404 0.32305 0.03534 0.0
C2188 C 0.8878 0.30629 0.98645 0.0
C2189 C 0.87008 0.31373 0.99938 0.0
C2190 C 0.90592 0.31842 0.98432 0.0
C2191 C 0.90616 0.33819 0.99478 0.0
C2192 C 0.88788 0.34623 1.00638 0.0
H2193 H 0.93273 0.44239 0.04914 0.0
H2194 H 0.92493 0.41326 0.02609 0.0
C2195 C 0.87005 0.33405 1.0088 0.0
C2196 C 0.92586 0.34973 0.99631 0.0
H2197 H 0.96168 0.35744 0.035 0.0
C2198 C 0.92717 0.36937 0.98482 0.0
C2199 C 0.93987 0.34456 0.01334 0.0
C2200 C 0.9393 0.32332 0.02572 0.0
C2201 C 0.94025 0.38515 0.99174 0.0
C2202 C 0.95168 0.38124 0.01086 0.0
C2203 C 0.95269 0.36048 0.02048 0.0
C2204 C 0.95765 0.39941 0.02384 0.0
C2205 C 0.94016 0.40662 0.97972 0.0
C2206 C 0.97856 0.40078 0.03103 0.0
C2207 C 0.98313 0.41754 0.04454 0.0
C2208 C 0.96675 0.43286 0.05122 0.0
C2209 C 0.94581 0.43101 0.04427 0.0
C2210 C 0.94134 0.41448 0.03081 0.0
H2211 H 0.93843 0.40443 0.96221 0.0
H2212 H 0.92622 0.41723 0.98547 0.0
H2213 H 0.95506 0.41489 0.98225 0.0
H2214 H 0.99125 0.38897 0.02616 0.0
H2215 H 0.99943 0.41855 0.04962 0.0
loop_
_geom_bond_atom_site_label_1
_geom_bond_atom_site_label_2
_geom_bond_distance
_geom_bond_site_symmetry_2
_ccdc_geom_bond_type
C0 O2 1.247 . S
C0 O4 1.258 . S
C1 O8 1.247 . S
C1 O9 1.258 . S
O2 C0 1.247 . S
O2 Zn3 2.028 . S
Zn3 O2 2.028 . S
Zn3 O7 2.035 . S
Zn3 O9 2.035 . S
Zn3 O10 2.028 . S
O4 C0 1.258 . S
O4 Zn5 2.035 . S
Zn5 O4 2.035 . S
Zn5 O6 2.028 . S
Zn5 O8 2.028 . S
Zn5 O11 2.035 . S
O6 Zn5 2.028 . S
O6 C12 1.247 . S
O7 Zn3 2.035 . S
O7 C12 1.258 . S
O8 C1 1.247 . S
O8 Zn5 2.028 . S
O9 C1 1.258 . S
O9 Zn3 2.035 . S
O10 Zn3 2.028 . S
O10 C13 1.247 . S
O11 Zn5 2.035 . S
O11 C13 1.258 . S
C12 O6 1.247 . S
C12 O7 1.258 . S
C13 O10 1.247 . S
C13 O11 1.258 . S
C14 O16 1.247 . S
C14 O18 1.258 1_455 S
C15 O22 1.247 . S
C15 O23 1.258 1_655 S
O16 C14 1.247 . S
O16 Zn17 2.028 . S
Zn17 O16 2.028 . S
Zn17 O21 2.035 . S
Zn17 O23 2.035 . S
Zn17 O24 2.028 . S
O18 C14 1.258 1_655 S
O18 Zn19 2.035 . S
Zn19 O18 2.035 . S
Zn19 O20 2.028 . S
Zn19 O22 2.028 . S
Zn19 O25 2.035 . S
O20 Zn19 2.028 . S
O20 C26 1.247 . S
O21 Zn17 2.035 . S
O21 C26 1.258 1_455 S
O22 C15 1.247 . S
O22 Zn19 2.028 . S
O23 C15 1.258 1_455 S
O23 Zn17 2.035 . S
O24 Zn17 2.028 . S
O24 C27 1.247 . S
O25 Zn19 2.035 . S
O25 C27 1.258 1_655 S
C26 O20 1.247 . S
C26 O21 1.258 1_655 S
C27 O24 1.247 . S
C27 O25 1.258 1_455 S
C28 O30 1.247 1_545 S
C28 O32 1.258 . S
C29 O36 1.247 . S
C29 O37 1.258 1_545 S
O30 C28 1.247 1_565 S
O30 Zn31 2.028 . S
Zn31 O30 2.028 . S
Zn31 O35 2.035 . S
Zn31 O37 2.035 . S
Zn31 O38 2.028 . S
O32 C28 1.258 . S
O32 Zn33 2.035 . S
Zn33 O32 2.035 . S
Zn33 O34 2.028 . S
Zn33 O36 2.028 . S
Zn33 O39 2.035 . S
O34 Zn33 2.028 . S
O34 C40 1.247 . S
O35 Zn31 2.035 . S
O35 C40 1.258 1_565 S
O36 C29 1.247 . S
O36 Zn33 2.028 . S
O37 C29 1.258 1_565 S
O37 Zn31 2.035 . S
O38 Zn31 2.028 . S
O38 C41 1.247 1_565 S
O39 Zn33 2.035 . S
O39 C41 1.258 . S
C40 O34 1.247 . S
C40 O35 1.258 1_545 S
C41 O38 1.247 1_545 S
C41 O39 1.258 . S
C42 O44 1.247 . S
C42 O46 1.258 . S
C43 O50 1.247 . S
C43 O51 1.258 . S
O44 C42 1.247 . S
O44 Zn45 2.028 . S
Zn45 O44 2.028 . S
Zn45 O49 2.035 . S
Zn45 O51 2.035 . S
Zn45 O52 2.028 . S
O46 C42 1.258 . S
O46 Zn47 2.035 . S
Zn47 O46 2.035 . S
Zn47 O48 2.028 . S
Zn47 O50 2.028 . S
Zn47 O53 2.035 . S
O48 Zn47 2.028 . S
O48 C54 1.247 . S
O49 Zn45 2.035 . S
O49 C54 1.258 . S
O50 C43 1.247 . S
O50 Zn47 2.028 . S
O51 C43 1.258 . S
O51 Zn45 2.035 . S
O52 Zn45 2.028 . S
O52 C55 1.247 . S
O53 Zn47 2.035 . S
O53 C55 1.258 . S
C54 O48 1.247 . S
C54 O49 1.258 . S
C55 O52 1.247 . S
C55 O53 1.258 . S
C56 O58 1.247 1_554 S
C56 O60 1.258 . S
C57 O64 1.247 1_556 S
C57 O65 1.258 . S
O58 C56 1.247 1_556 S
O58 Zn59 2.028 . S
Zn59 O58 2.028 . S
Zn59 O63 2.035 . S
Zn59 O65 2.035 . S
Zn59 O66 2.028 . S
O60 C56 1.258 . S
O60 Zn61 2.035 . S
Zn61 O60 2.035 . S
Zn61 O62 2.028 . S
Zn61 O64 2.028 . S
Zn61 O67 2.035 . S
O62 Zn61 2.028 . S
O62 C68 1.247 1_554 S
O63 Zn59 2.035 . S
O63 C68 1.258 . S
O64 C57 1.247 1_554 S
O64 Zn61 2.028 . S
O65 C57 1.258 . S
O65 Zn59 2.035 . S
O66 Zn59 2.028 . S
O66 C69 1.247 1_556 S
O67 Zn61 2.035 . S
O67 C69 1.258 . S
C68 O62 1.247 1_556 S
C68 O63 1.258 . S
C69 O66 1.247 1_554 S
C69 O67 1.258 . S
C70 O72 1.247 . S
C70 O74 1.258 . S
C71 O78 1.247 . S
C71 O79 1.258 . S
O72 C70 1.247 . S
O72 Zn73 2.028 . S
Zn73 O72 2.028 . S
Zn73 O77 2.035 . S
Zn73 O79 2.035 . S
Zn73 O80 2.028 . S
O74 C70 1.258 . S
O74 Zn75 2.035 . S
Zn75 O74 2.035 . S
Zn75 O76 2.028 . S
Zn75 O78 2.028 . S
Zn75 O81 2.035 . S
O76 Zn75 2.028 . S
O76 C82 1.247 . S
O77 Zn73 2.035 . S
O77 C82 1.258 . S
O78 C71 1.247 . S
O78 Zn75 2.028 . S
O79 C71 1.258 . S
O79 Zn73 2.035 . S
O80 Zn73 2.028 . S
O80 C83 1.247 . S
O81 Zn75 2.035 . S
O81 C83 1.258 . S
C82 O76 1.247 . S
C82 O77 1.258 . S
C83 O80 1.247 . S
C83 O81 1.258 . S
C84 O86 1.247 . S
C84 O88 1.258 . S
C85 O92 1.247 . S
C85 O93 1.258 . S
O86 C84 1.247 . S
O86 Zn87 2.028 . S
Zn87 O86 2.028 . S
Zn87 O91 2.035 . S
Zn87 O93 2.035 . S
Zn87 O94 2.028 . S
O88 C84 1.258 . S
O88 Zn89 2.035 . S
Zn89 O88 2.035 . S
Zn89 O90 2.028 . S
Zn89 O92 2.028 . S
Zn89 O95 2.035 . S
O90 Zn89 2.028 . S
O90 C96 1.247 . S
O91 Zn87 2.035 . S
O91 C96 1.258 . S
O92 C85 1.247 . S
O92 Zn89 2.028 . S
O93 C85 1.258 . S
O93 Zn87 2.035 . S
O94 Zn87 2.028 . S
O94 C97 1.247 . S
O95 Zn89 2.035 . S
O95 C97 1.258 . S
C96 O90 1.247 . S
C96 O91 1.258 . S
C97 O94 1.247 . S
C97 O95 1.258 . S
C98 O100 1.247 . S
C98 O102 1.258 . S
C99 O106 1.247 . S
C99 O107 1.258 . S
O100 C98 1.247 . S
O100 Zn101 2.028 . S
Zn101 O100 2.028 . S
Zn101 O105 2.035 . S
Zn101 O107 2.035 . S
Zn101 O108 2.028 . S
O102 C98 1.258 . S
O102 Zn103 2.035 . S
Zn103 O102 2.035 . S
Zn103 O104 2.028 . S
Zn103 O106 2.028 . S
Zn103 O109 2.035 . S
O104 Zn103 2.028 . S
O104 C110 1.247 . S
O105 Zn101 2.035 . S
O105 C110 1.258 . S
O106 C99 1.247 . S
O106 Zn103 2.028 . S
O107 C99 1.258 . S
O107 Zn101 2.035 . S
O108 Zn101 2.028 . S
O108 C111 1.247 . S
O109 Zn103 2.035 . S
O109 C111 1.258 . S
C110 O104 1.247 . S
C110 O105 1.258 . S
C111 O108 1.247 . S
C111 O109 1.258 . S
C112 O114 1.247 . S
C112 O116 1.258 . S
C113 O120 1.247 . S
C113 O121 1.258 . S
O114 C112 1.247 . S
O114 Zn115 2.028 . S
Zn115 O114 2.028 . S
Zn115 O119 2.035 . S
Zn115 O121 2.035 . S
Zn115 O122 2.028 . S
O116 C112 1.258 . S
O116 Zn117 2.035 . S
Zn117 O116 2.035 . S
Zn117 O118 2.028 . S
Zn117 O120 2.028 . S
Zn117 O123 2.035 . S
O118 Zn117 2.028 . S
O118 C124 1.247 . S
O119 Zn115 2.035 . S
O119 C124 1.258 . S
O120 C113 1.247 . S
O120 Zn117 2.028 . S
O121 C113 1.258 . S
O121 Zn115 2.035 . S
O122 Zn115 2.028 . S
O122 C125 1.247 . S
O123 Zn117 2.035 . S
O123 C125 1.258 . S
C124 O118 1.247 . S
C124 O119 1.258 . S
C125 O122 1.247 . S
C125 O123 1.258 . S
C126 O128 1.247 . S
C126 O130 1.258 . S
C127 O134 1.247 . S
C127 O135 1.258 . S
O128 C126 1.247 . S
O128 Zn129 2.028 . S
Zn129 O128 2.028 . S
Zn129 O133 2.035 . S
Zn129 O135 2.035 . S
Zn129 O136 2.028 . S
O130 C126 1.258 . S
O130 Zn131 2.035 . S
Zn131 O130 2.035 . S
Zn131 O132 2.028 . S
Zn131 O134 2.028 . S
Zn131 O137 2.035 . S
O132 Zn131 2.028 . S
O132 C138 1.247 . S
O133 Zn129 2.035 . S
O133 C138 1.258 . S
O134 C127 1.247 . S
O134 Zn131 2.028 . S
O135 C127 1.258 . S
O135 Zn129 2.035 . S
O136 Zn129 2.028 . S
O136 C139 1.247 . S
O137 Zn131 2.035 . S
O137 C139 1.258 . S
C138 O132 1.247 . S
C138 O133 1.258 . S
C139 O136 1.247 . S
C139 O137 1.258 . S
C140 O142 1.247 . S
C140 O144 1.258 1_565 S
C141 O148 1.247 . S
C141 O149 1.258 1_545 S
O142 C140 1.247 . S
O142 Zn143 2.028 . S
Zn143 O142 2.028 . S
Zn143 O147 2.035 . S
Zn143 O149 2.035 . S
Zn143 O150 2.028 . S
O144 C140 1.258 1_545 S
O144 Zn145 2.035 . S
Zn145 O144 2.035 . S
Zn145 O146 2.028 . S
Zn145 O148 2.028 . S
Zn145 O151 2.035 . S
O146 Zn145 2.028 . S
O146 C152 1.247 . S
O147 Zn143 2.035 . S
O147 C152 1.258 1_565 S
O148 C141 1.247 . S
O148 Zn145 2.028 . S
O149 C141 1.258 1_565 S
O149 Zn143 2.035 . S
O150 Zn143 2.028 . S
O150 C153 1.247 . S
O151 Zn145 2.035 . S
O151 C153 1.258 1_545 S
C152 O146 1.247 . S
C152 O147 1.258 1_545 S
C153 O150 1.247 . S
C153 O151 1.258 1_565 S
C154 O156 1.247 1_556 S
C154 O158 1.258 . S
C155 O162 1.247 1_554 S
C155 O163 1.258 . S
O156 C154 1.247 1_554 S
O156 Zn157 2.028 . S
Zn157 O156 2.028 . S
Zn157 O161 2.035 . S
Zn157 O163 2.035 . S
Zn157 O164 2.028 . S
O158 C154 1.258 . S
O158 Zn159 2.035 . S
Zn159 O158 2.035 . S
Zn159 O160 2.028 . S
Zn159 O162 2.028 . S
Zn159 O165 2.035 . S
O160 Zn159 2.028 . S
O160 C166 1.247 1_556 S
O161 Zn157 2.035 . S
O161 C166 1.258 . S
O162 C155 1.247 1_556 S
O162 Zn159 2.028 . S
O163 C155 1.258 . S
O163 Zn157 2.035 . S
O164 Zn157 2.028 . S
O164 C167 1.247 1_554 S
O165 Zn159 2.035 . S
O165 C167 1.258 . S
C166 O160 1.247 1_554 S
C166 O161 1.258 . S
C167 O164 1.247 1_556 S
C167 O165 1.258 . S
C168 Eu169 2.835 . S
C168 C170 1.500 . S
C168 O188 1.257 . S
C168 O189 1.260 . S
Eu169 C168 2.835 . S
Eu169 O188 2.473 . S
Eu169 O189 2.480 . S
Eu169 O190 2.430 . S
Eu169 O191 2.670 . S
Eu169 O192 2.394 . S
Eu169 O197 2.355 . S
Eu169 O199 2.374 . S
C170 C168 1.500 . S
C170 C171 1.351 1_545 S
C170 C175 1.377 . S
C171 C170 1.351 1_565 S
C171 C172 1.418 . S
C171 H200 0.935 . S
C172 C171 1.418 . S
C172 C173 1.383 . S
C172 H201 0.931 . S
C173 C172 1.383 . S
C173 C174 1.394 1_565 S
C174 C173 1.394 1_545 S
C174 C175 1.378 . S
C174 H202 0.931 . S
C175 C170 1.377 . S
C175 C174 1.378 . S
C175 H203 0.931 . S
C176 O190 1.259 . S
C176 O191 1.270 . S
C177 O192 1.251 . S
C177 O193 1.251 . S
C178 Eu179 2.835 . S
C178 C180 1.500 . S
C178 O194 1.257 . S
C178 O195 1.260 . S
Eu179 C178 2.835 . S
Eu179 O191 2.355 . S
Eu179 O193 2.374 . S
Eu179 O194 2.473 . S
Eu179 O195 2.480 . S
Eu179 O196 2.430 . S
Eu179 O197 2.670 . S
Eu179 O198 2.394 . S
C180 C178 1.500 . S
C180 C181 1.377 . S
C180 C185 1.377 . S
C181 C180 1.377 . S
C181 C182 1.395 . S
C181 H204 0.931 . S
C182 C181 1.395 . S
C182 C183 1.383 . S
C182 H205 0.931 . S
C183 C182 1.383 . S
C183 C184 1.394 . S
C184 C183 1.394 . S
C184 C185 1.378 . S
C184 H206 0.931 . S
C185 C180 1.377 . S
C185 C184 1.378 . S
C185 H207 0.931 . S
C186 O196 1.259 . S
C186 O197 1.270 . S
C187 O198 1.251 . S
C187 O199 1.251 . S
O188 C168 1.257 . S
O188 Eu169 2.473 . S
O189 C168 1.260 . S
O189 Eu169 2.480 . S
O190 Eu169 2.430 . S
O190 C176 1.259 . S
O191 Eu169 2.670 . S
O191 C176 1.270 . S
O191 Eu179 2.355 . S
O192 Eu169 2.394 . S
O192 C177 1.251 . S
O193 C177 1.251 . S
O193 Eu179 2.374 . S
O194 C178 1.257 . S
O194 Eu179 2.473 . S
O195 C178 1.260 . S
O195 Eu179 2.480 . S
O196 Eu179 2.430 . S
O196 C186 1.259 . S
O197 Eu169 2.355 . S
O197 Eu179 2.670 . S
O197 C186 1.270 . S
O198 Eu179 2.394 . S
O198 C187 1.251 . S
O199 Eu169 2.374 . S
O199 C187 1.251 . S
H200 C171 0.935 . S
H201 C172 0.931 . S
H202 C174 0.931 . S
H203 C175 0.931 . S
H204 C181 0.931 . S
H205 C182 0.931 . S
H206 C184 0.931 . S
H207 C185 0.931 . S
C208 Eu209 2.835 . S
C208 C210 1.500 . S
C208 O228 1.257 . S
C208 O229 1.260 . S
Eu209 C208 2.835 . S
Eu209 O228 2.473 . S
Eu209 O229 2.480 . S
Eu209 O230 2.430 . S
Eu209 O231 2.670 . S
Eu209 O232 2.394 . S
Eu209 O237 2.355 . S
Eu209 O239 2.374 . S
C210 C208 1.500 . S
C210 C211 1.377 . S
C210 C215 1.377 . S
C211 C210 1.377 . S
C211 C212 1.395 . S
C211 H240 0.931 . S
C212 C211 1.395 . S
C212 C213 1.383 . S
C212 H241 0.931 . S
C213 C212 1.383 . S
C213 C214 1.394 . S
C214 C213 1.394 . S
C214 C215 1.378 . S
C214 H242 0.931 . S
C215 C210 1.377 . S
C215 C214 1.378 . S
C215 H243 0.931 . S
C216 O230 1.259 . S
C216 O231 1.270 . S
C217 O232 1.251 . S
C217 O233 1.251 1_655 S
C218 Eu219 2.835 . S
C218 C220 1.500 . S
C218 O234 1.257 . S
C218 O235 1.260 . S
Eu219 C218 2.835 . S
Eu219 O231 2.355 1_455 S
Eu219 O233 2.374 . S
Eu219 O234 2.473 . S
Eu219 O235 2.480 . S
Eu219 O236 2.430 1_455 S
Eu219 O237 2.670 1_455 S
Eu219 O238 2.394 1_455 S
C220 C218 1.500 . S
C220 C221 1.377 . S
C220 C225 1.377 . S
C221 C220 1.377 . S
C221 C222 1.395 . S
C221 H244 0.931 . S
C222 C221 1.395 . S
C222 C223 1.383 . S
C222 H245 0.931 . S
C223 C222 1.383 . S
C223 C224 1.394 . S
C224 C223 1.394 . S
C224 C225 1.378 . S
C224 H246 0.931 . S
C225 C220 1.377 . S
C225 C224 1.378 . S
C225 H247 0.931 . S
C226 O236 1.259 . S
C226 O237 1.270 . S
C227 O238 1.251 . S
C227 O239 1.251 . S
O228 C208 1.257 . S
O228 Eu209 2.473 . S
O229 C208 1.260 . S
O229 Eu209 2.480 . S
O230 Eu209 2.430 . S
O230 C216 1.259 . S
O231 Eu209 2.670 . S
O231 C216 1.270 . S
O231 Eu219 2.355 1_655 S
O232 Eu209 2.394 . S
O232 C217 1.251 . S
O233 C217 1.251 1_455 S
O233 Eu219 2.374 . S
O234 C218 1.257 . S
O234 Eu219 2.473 . S
O235 C218 1.260 . S
O235 Eu219 2.480 . S
O236 Eu219 2.430 1_655 S
O236 C226 1.259 . S
O237 Eu209 2.355 . S
O237 Eu219 2.670 1_655 S
O237 C226 1.270 . S
O238 Eu219 2.394 1_655 S
O238 C227 1.251 . S
O239 Eu209 2.374 . S
O239 C227 1.251 . S
H240 C211 0.931 . S
H241 C212 0.931 . S
H242 C214 0.931 . S
H243 C215 0.931 . S
H244 C221 0.931 . S
H245 C222 0.931 . S
H246 C224 0.931 . S
H247 C225 0.931 . S
C248 Eu249 2.835 . S
C248 C250 1.500 . S
C248 O268 1.257 . S
C248 O269 1.260 . S
Eu249 C248 2.835 . S
Eu249 O268 2.473 . S
Eu249 O269 2.480 . S
Eu249 O270 2.430 1_545 S
Eu249 O271 2.670 1_545 S
Eu249 O272 2.394 1_545 S
Eu249 O277 2.355 . S
Eu249 O279 2.374 . S
C250 C248 1.500 . S
C250 C251 1.377 . S
C250 C255 1.377 . S
C251 C250 1.377 . S
C251 C252 1.395 . S
C251 H280 0.931 . S
C252 C251 1.395 . S
C252 C253 1.383 . S
C252 H281 0.931 . S
C253 C252 1.383 . S
C253 C254 1.394 . S
C254 C253 1.394 . S
C254 C255 1.378 . S
C254 H282 0.931 . S
C255 C250 1.377 . S
C255 C254 1.378 . S
C255 H283 0.931 . S
C256 O270 1.259 . S
C256 O271 1.270 . S
C257 O272 1.251 . S
C257 O273 1.251 . S
C258 Eu259 2.835 . S
C258 C260 1.500 . S
C258 O274 1.257 . S
C258 O275 1.260 . S
Eu259 C258 2.835 . S
Eu259 O271 2.355 . S
Eu259 O273 2.374 . S
Eu259 O274 2.473 . S
Eu259 O275 2.480 . S
Eu259 O276 2.430 . S
Eu259 O277 2.670 1_565 S
Eu259 O278 2.394 1_565 S
C260 C258 1.500 . S
C260 C261 1.377 . S
C260 C265 1.377 . S
C261 C260 1.377 . S
C261 C262 1.395 . S
C261 H284 0.931 . S
C262 C261 1.395 . S
C262 C263 1.383 . S
C262 H285 0.931 . S
C263 C262 1.383 . S
C263 C264 1.394 . S
C264 C263 1.394 . S
C264 C265 1.378 . S
C264 H286 0.931 . S
C265 C260 1.377 . S
C265 C264 1.378 . S
C265 H287 0.931 . S
C266 O276 1.259 1_545 S
C266 O277 1.270 . S
C267 O278 1.251 . S
C267 O279 1.251 . S
O268 C248 1.257 . S
O268 Eu249 2.473 . S
O269 C248 1.260 . S
O269 Eu249 2.480 . S
O270 Eu249 2.430 1_565 S
O270 C256 1.259 . S
O271 Eu249 2.670 1_565 S
O271 C256 1.270 . S
O271 Eu259 2.355 . S
O272 Eu249 2.394 1_565 S
O272 C257 1.251 . S
O273 C257 1.251 . S
O273 Eu259 2.374 . S
O274 C258 1.257 . S
O274 Eu259 2.473 . S
O275 C258 1.260 . S
O275 Eu259 2.480 . S
O276 Eu259 2.430 . S
O276 C266 1.259 1_565 S
O277 Eu249 2.355 . S
O277 Eu259 2.670 1_545 S
O277 C266 1.270 . S
O278 Eu259 2.394 1_545 S
O278 C267 1.251 . S
O279 Eu249 2.374 . S
O279 C267 1.251 . S
H280 C251 0.931 . S
H281 C252 0.931 . S
H282 C254 0.931 . S
H283 C255 0.931 . S
H284 C261 0.931 . S
H285 C262 0.931 . S
H286 C264 0.931 . S
H287 C265 0.931 . S
C288 Eu289 2.835 . S
C288 C290 1.500 . S
C288 O308 1.257 . S
C288 O309 1.260 . S
Eu289 C288 2.835 . S
Eu289 O308 2.473 . S
Eu289 O309 2.480 . S
Eu289 O310 2.430 . S
Eu289 O311 2.670 . S
Eu289 O312 2.394 . S
Eu289 O317 2.355 1_455 S
Eu289 O319 2.374 1_455 S
C290 C288 1.500 . S
C290 C291 1.377 . S
C290 C295 1.377 . S
C291 C290 1.377 . S
C291 C292 1.395 . S
C291 H320 0.931 . S
C292 C291 1.395 . S
C292 C293 1.383 . S
C292 H321 0.931 . S
C293 C292 1.383 . S
C293 C294 1.394 . S
C294 C293 1.394 . S
C294 C295 1.378 . S
C294 H322 0.931 . S
C295 C290 1.377 . S
C295 C294 1.378 . S
C295 H323 0.931 . S
C296 O310 1.259 . S
C296 O311 1.270 . S
C297 O312 1.251 . S
C297 O313 1.307 . S
C298 Eu299 2.835 . S
C298 C300 1.500 . S
C298 O314 1.257 . S
C298 O315 1.260 . S
Eu299 C298 2.835 . S
Eu299 O311 2.355 1_655 S
Eu299 O313 2.333 1_655 S
Eu299 O314 2.473 . S
Eu299 O315 2.480 . S
Eu299 O316 2.430 . S
Eu299 O317 2.670 . S
Eu299 O318 2.394 . S
C300 C298 1.500 . S
C300 C301 1.377 . S
C300 C305 1.377 . S
C301 C300 1.377 . S
C301 C302 1.395 . S
C301 H324 0.931 . S
C302 C301 1.395 . S
C302 C303 1.383 . S
C302 H325 0.931 . S
C303 C302 1.383 . S
C303 C304 1.394 . S
C304 C303 1.394 . S
C304 C305 1.378 . S
C304 H326 0.931 . S
C305 C300 1.377 . S
C305 C304 1.378 . S
C305 H327 0.931 . S
C306 O316 1.259 . S
C306 O317 1.270 . S
C307 O318 1.251 . S
C307 O319 1.251 . S
O308 C288 1.257 . S
O308 Eu289 2.473 . S
O309 C288 1.260 . S
O309 Eu289 2.480 . S
O310 Eu289 2.430 . S
O310 C296 1.259 . S
O311 Eu289 2.670 . S
O311 C296 1.270 . S
O311 Eu299 2.355 1_455 S
O312 Eu289 2.394 . S
O312 C297 1.251 . S
O313 C297 1.307 . S
O313 Eu299 2.333 1_455 S
O314 C298 1.257 . S
O314 Eu299 2.473 . S
O315 C298 1.260 . S
O315 Eu299 2.480 . S
O316 Eu299 2.430 . S
O316 C306 1.259 . S
O317 Eu289 2.355 1_655 S
O317 Eu299 2.670 . S
O317 C306 1.270 . S
O318 Eu299 2.394 . S
O318 C307 1.251 . S
O319 Eu289 2.374 1_655 S
O319 C307 1.251 . S
H320 C291 0.931 . S
H321 C292 0.931 . S
H322 C294 0.931 . S
H323 C295 0.931 . S
H324 C301 0.931 . S
H325 C302 0.931 . S
H326 C304 0.931 . S
H327 C305 0.931 . S
C328 Eu329 2.835 1_545 S
C328 C330 1.500 . S
C328 O348 1.257 . S
C328 O349 1.260 . S
Eu329 C328 2.835 1_565 S
Eu329 O348 2.473 1_565 S
Eu329 O349 2.480 1_565 S
Eu329 O350 2.430 . S
Eu329 O351 2.670 . S
Eu329 O352 2.394 1_565 S
Eu329 O357 2.355 1_565 S
Eu329 O359 2.374 . S
C330 C328 1.500 . S
C330 C331 1.377 . S
C330 C335 1.377 . S
C331 C330 1.377 . S
C331 C332 1.395 . S
C331 H360 0.931 . S
C332 C331 1.395 . S
C332 C333 1.383 . S
C332 H361 0.931 . S
C333 C332 1.383 . S
C333 C334 1.394 . S
C334 C333 1.394 . S
C334 C335 1.378 . S
C334 H362 0.931 . S
C335 C330 1.377 . S
C335 C334 1.378 . S
C335 H363 0.931 . S
C336 O350 1.259 . S
C336 O351 1.270 . S
C337 O352 1.251 . S
C337 O353 1.251 . S
C338 Eu339 2.835 1_565 S
C338 C340 1.500 . S
C338 O354 1.257 . S
C338 O355 1.260 . S
Eu339 C338 2.835 1_545 S
Eu339 O351 2.355 1_545 S
Eu339 O353 2.374 . S
Eu339 O354 2.473 1_545 S
Eu339 O355 2.480 1_545 S
Eu339 O356 2.430 . S
Eu339 O357 2.670 . S
Eu339 O358 2.394 1_545 S
C340 C338 1.500 . S
C340 C341 1.377 . S
C340 C345 1.377 . S
C341 C340 1.377 . S
C341 C342 1.395 . S
C341 H364 0.931 . S
C342 C341 1.395 . S
C342 C343 1.383 . S
C342 H365 0.931 . S
C343 C342 1.383 . S
C343 C344 1.394 . S
C344 C343 1.394 . S
C344 C345 1.378 . S
C344 H366 0.931 . S
C345 C340 1.377 . S
C345 C344 1.378 . S
C345 H367 0.931 . S
C346 O356 1.259 . S
C346 O357 1.270 . S
C347 O358 1.251 . S
C347 O359 1.251 . S
O348 C328 1.257 . S
O348 Eu329 2.473 1_545 S
O349 C328 1.260 . S
O349 Eu329 2.480 1_545 S
O350 Eu329 2.430 . S
O350 C336 1.259 . S
O351 Eu329 2.670 . S
O351 C336 1.270 . S
O351 Eu339 2.355 1_565 S
O352 Eu329 2.394 1_545 S
O352 C337 1.251 . S
O353 C337 1.251 . S
O353 Eu339 2.374 . S
O354 C338 1.257 . S
O354 Eu339 2.473 1_565 S
O355 C338 1.260 . S
O355 Eu339 2.480 1_565 S
O356 Eu339 2.430 . S
O356 C346 1.259 . S
O357 Eu329 2.355 1_545 S
O357 Eu339 2.670 . S
O357 C346 1.270 . S
O358 Eu339 2.394 1_565 S
O358 C347 1.251 . S
O359 Eu329 2.374 . S
O359 C347 1.251 . S
H360 C331 0.931 . S
H361 C332 0.931 . S
H362 C334 0.931 . S
H363 C335 0.931 . S
H364 C341 0.931 . S
H365 C342 0.931 . S
H366 C344 0.931 . S
H367 C345 0.931 . S
C368 Eu369 2.835 . S
C368 C370 1.500 . S
C368 O388 1.257 . S
C368 O389 1.260 . S
Eu369 C368 2.835 . S
Eu369 O388 2.473 . S
Eu369 O389 2.480 . S
Eu369 O390 2.430 . S
Eu369 O391 2.670 . S
Eu369 O392 2.394 . S
Eu369 O397 2.355 . S
Eu369 O399 2.374 . S
C370 C368 1.500 . S
C370 C371 1.377 . S
C370 C375 1.377 . S
C371 C370 1.377 . S
C371 C372 1.395 . S
C371 H400 0.931 . S
C372 C371 1.395 . S
C372 C373 1.383 . S
C372 H401 0.931 . S
C373 C372 1.383 . S
C373 C374 1.394 . S
C374 C373 1.394 . S
C374 C375 1.378 . S
C374 H402 0.931 . S
C375 C370 1.377 . S
C375 C374 1.378 . S
C375 H403 0.931 . S
C376 O390 1.259 . S
C376 O391 1.270 . S
C377 O392 1.251 . S
C377 O393 1.251 . S
C378 Eu379 2.835 . S
C378 C380 1.500 . S
C378 O394 1.257 . S
C378 O395 1.260 . S
Eu379 C378 2.835 . S
Eu379 O391 2.355 . S
Eu379 O393 2.374 . S
Eu379 O394 2.473 . S
Eu379 O395 2.480 . S
Eu379 O396 2.430 . S
Eu379 O397 2.670 . S
Eu379 O398 2.394 . S
C380 C378 1.500 . S
C380 C381 1.377 . S
C380 C385 1.377 . S
C381 C380 1.377 . S
C381 C382 1.395 . S
C381 H404 0.931 . S
C382 C381 1.395 . S
C382 C383 1.383 . S
C382 H405 0.931 . S
C383 C382 1.383 . S
C383 C384 1.394 . S
C384 C383 1.394 . S
C384 C385 1.378 . S
C384 H406 0.931 . S
C385 C380 1.377 . S
C385 C384 1.378 . S
C385 H407 0.931 . S
C386 O396 1.259 . S
C386 O397 1.270 . S
C387 O398 1.251 . S
C387 O399 1.251 . S
O388 C368 1.257 . S
O388 Eu369 2.473 . S
O389 C368 1.260 . S
O389 Eu369 2.480 . S
O390 Eu369 2.430 . S
O390 C376 1.259 . S
O391 Eu369 2.670 . S
O391 C376 1.270 . S
O391 Eu379 2.355 . S
O392 Eu369 2.394 . S
O392 C377 1.251 . S
O393 C377 1.251 . S
O393 Eu379 2.374 . S
O394 C378 1.257 . S
O394 Eu379 2.473 . S
O395 C378 1.260 . S
O395 Eu379 2.480 . S
O396 Eu379 2.430 . S
O396 C386 1.259 . S
O397 Eu369 2.355 . S
O397 Eu379 2.670 . S
O397 C386 1.270 . S
O398 Eu379 2.394 . S
O398 C387 1.251 . S
O399 Eu369 2.374 . S
O399 C387 1.251 . S
H400 C371 0.931 . S
H401 C372 0.931 . S
H402 C374 0.931 . S
H403 C375 0.931 . S
H404 C381 0.931 . S
H405 C382 0.931 . S
H406 C384 0.931 . S
H407 C385 0.931 . S
C408 Eu409 2.835 . S
C408 C410 1.500 . S
C408 O428 1.257 . S
C408 O429 1.260 . S
Eu409 C408 2.835 . S
Eu409 O428 2.473 . S
Eu409 O429 2.480 . S
Eu409 O430 2.430 . S
Eu409 O431 2.670 1_554 S
Eu409 O432 2.394 . S
Eu409 O437 2.355 1_554 S
Eu409 O439 2.374 1_554 S
C410 C408 1.500 . S
C410 C411 1.377 . S
C410 C415 1.377 . S
C411 C410 1.377 . S
C411 C412 1.395 . S
C411 H440 0.931 . S
C412 C411 1.395 . S
C412 C413 1.383 . S
C412 H441 0.931 . S
C413 C412 1.383 . S
C413 C414 1.394 . S
C414 C413 1.394 . S
C414 C415 1.378 . S
C414 H442 0.931 . S
C415 C410 1.377 . S
C415 C414 1.378 . S
C415 H443 0.931 . S
C416 O430 1.259 . S
C416 O431 1.270 1_554 S
C417 O432 1.251 . S
C417 O433 1.251 1_554 S
C418 Eu419 2.835 . S
C418 C420 1.500 . S
C418 O434 1.257 . S
C418 O435 1.260 . S
Eu419 C418 2.835 . S
Eu419 O431 2.355 . S
Eu419 O433 2.374 . S
Eu419 O434 2.473 . S
Eu419 O435 2.480 . S
Eu419 O436 2.430 . S
Eu419 O437 2.670 . S
Eu419 O438 2.394 . S
C420 C418 1.500 . S
C420 C421 1.377 . S
C420 C425 1.377 . S
C421 C420 1.377 . S
C421 C422 1.395 . S
C421 H444 0.931 . S
C422 C421 1.395 . S
C422 C423 1.383 . S
C422 H445 0.931 . S
C423 C422 1.383 . S
C423 C424 1.394 . S
C424 C423 1.394 . S
C424 C425 1.378 . S
C424 H446 0.931 . S
C425 C420 1.377 . S
C425 C424 1.378 . S
C425 H447 0.931 . S
C426 O436 1.259 . S
C426 O437 1.270 . S
C427 O438 1.251 . S
C427 O439 1.251 . S
O428 C408 1.257 . S
O428 Eu409 2.473 . S
O429 C408 1.260 . S
O429 Eu409 2.480 . S
O430 Eu409 2.430 . S
O430 C416 1.259 . S
O431 Eu409 2.670 1_556 S
O431 C416 1.270 1_556 S
O431 Eu419 2.355 . S
O432 Eu409 2.394 . S
O432 C417 1.251 . S
O433 C417 1.251 1_556 S
O433 Eu419 2.374 . S
O434 C418 1.257 . S
O434 Eu419 2.473 . S
O435 C418 1.260 . S
O435 Eu419 2.480 . S
O436 Eu419 2.430 . S
O436 C426 1.259 . S
O437 Eu409 2.355 1_556 S
O437 Eu419 2.670 . S
O437 C426 1.270 . S
O438 Eu419 2.394 . S
O438 C427 1.251 . S
O439 Eu409 2.374 1_556 S
O439 C427 1.251 . S
H440 C411 0.931 . S
H441 C412 0.931 . S
H442 C414 0.931 . S
H443 C415 0.931 . S
H444 C421 0.931 . S
H445 C422 0.931 . S
H446 C424 0.931 . S
H447 C425 0.931 . S
C448 Eu449 2.835 . S
C448 C450 1.500 . S
C448 O468 1.257 . S
C448 O469 1.260 . S
Eu449 C448 2.835 . S
Eu449 O468 2.473 . S
Eu449 O469 2.480 . S
Eu449 O470 2.430 1_554 S
Eu449 O471 2.670 1_554 S
Eu449 O472 2.394 1_554 S
Eu449 O477 2.355 . S
Eu449 O479 2.374 . S
C450 C448 1.500 . S
C450 C451 1.377 . S
C450 C455 1.377 . S
C451 C450 1.377 . S
C451 C452 1.395 . S
C451 H480 0.931 . S
C452 C451 1.395 . S
C452 C453 1.383 . S
C452 H481 0.931 . S
C453 C452 1.383 . S
C453 C454 1.394 . S
C454 C453 1.394 . S
C454 C455 1.378 . S
C454 H482 0.931 . S
C455 C450 1.377 . S
C455 C454 1.378 . S
C455 H483 0.931 . S
C456 O470 1.259 . S
C456 O471 1.270 . S
C457 O472 1.251 . S
C457 O473 1.251 . S
C458 Eu459 2.835 . S
C458 C460 1.500 . S
C458 O474 1.257 . S
C458 O475 1.260 . S
Eu459 C458 2.835 . S
Eu459 O471 2.355 . S
Eu459 O473 2.374 . S
Eu459 O474 2.473 . S
Eu459 O475 2.480 . S
Eu459 O476 2.430 1_556 S
Eu459 O477 2.670 1_556 S
Eu459 O478 2.394 1_556 S
C460 C458 1.500 . S
C460 C461 1.377 . S
C460 C465 1.377 . S
C461 C460 1.377 . S
C461 C462 1.395 . S
C461 H484 0.931 . S
C462 C461 1.395 . S
C462 C463 1.383 . S
C462 H485 0.931 . S
C463 C462 1.383 . S
C463 C464 1.401 . S
C464 C463 1.401 . S
C464 C465 1.387 . S
C464 H486 0.915 1_545 S
C465 C460 1.377 . S
C465 C464 1.387 . S
C465 H487 0.931 . S
C466 O476 1.259 . S
C466 O477 1.270 . S
C467 O478 1.251 . S
C467 O479 1.251 . S
O468 C448 1.257 . S
O468 Eu449 2.473 . S
O469 C448 1.260 . S
O469 Eu449 2.480 . S
O470 Eu449 2.430 1_556 S
O470 C456 1.259 . S
O471 Eu449 2.670 1_556 S
O471 C456 1.270 . S
O471 Eu459 2.355 . S
O472 Eu449 2.394 1_556 S
O472 C457 1.251 . S
O473 C457 1.251 . S
O473 Eu459 2.374 . S
O474 C458 1.257 . S
O474 Eu459 2.473 . S
O475 C458 1.260 . S
O475 Eu459 2.480 . S
O476 Eu459 2.430 1_554 S
O476 C466 1.259 . S
O477 Eu449 2.355 . S
O477 Eu459 2.670 1_554 S
O477 C466 1.270 . S
O478 Eu459 2.394 1_554 S
O478 C467 1.251 . S
O479 Eu449 2.374 . S
O479 C467 1.251 . S
H480 C451 0.931 . S
H481 C452 0.931 . S
H482 C454 0.931 . S
H483 C455 0.931 . S
H484 C461 0.931 . S
H485 C462 0.931 . S
H486 C464 0.915 1_565 S
H487 C465 0.931 . S
H488 C496 0.929 . S
H489 C498 0.930 . S
H490 C500 0.930 . S
H491 C503 0.929 . S
H492 C506 0.930 . S
H493 C508 0.960 . S
H494 C508 0.960 . S
H495 C508 0.960 . S
C496 H488 0.929 . S
C496 C497 1.377 . S
C496 C498 1.384 . S
C497 C496 1.377 . S
C497 C503 1.390 . S
C498 H489 0.930 . S
C498 C496 1.384 . S
C498 C499 1.372 . S
C499 C498 1.372 . S
C499 C500 1.400 . S
C499 C504 1.490 . S
C500 H490 0.930 . S
C500 C499 1.400 . S
C500 C503 1.386 . S
H501 C517 0.930 . S
H502 C518 0.931 . S
C503 H491 0.929 . S
C503 C497 1.390 . S
C503 C500 1.386 . S
C504 C499 1.490 . S
C504 C506 1.395 . S
C504 C507 1.403 . S
H505 C511 0.930 . S
C506 H492 0.930 . S
C506 C504 1.395 . S
C506 C509 1.403 . S
C507 C504 1.403 . S
C507 C508 1.524 . S
C507 C511 1.400 . S
C508 H493 0.960 . S
C508 H494 0.960 . S
C508 H495 0.960 . S
C508 C507 1.524 . S
C509 C506 1.403 . S
C509 C510 1.392 . S
C509 C513 1.495 . S
C510 C509 1.392 . S
C510 C511 1.385 . S
C510 C512 1.478 . S
C511 H505 0.930 . S
C511 C507 1.400 . S
C511 C510 1.385 . S
C512 C510 1.478 . S
C512 C514 1.381 . S
C512 C518 1.383 . S
C513 C509 1.495 . S
C513 H519 0.959 . S
C513 H520 0.961 . S
C513 H521 0.960 . S
C514 C512 1.381 . S
C514 C515 1.394 . S
C514 H522 0.930 . S
C515 C514 1.394 . S
C515 C516 1.383 . S
C515 H523 0.929 . S
C516 C515 1.383 . S
C516 C517 1.377 . S
C517 H501 0.930 . S
C517 C516 1.377 . S
C517 C518 1.379 . S
C518 H502 0.931 . S
C518 C512 1.383 . S
C518 C517 1.379 . S
H519 C513 0.959 . S
H520 C513 0.961 . S
H521 C513 0.960 . S
H522 C514 0.930 . S
H523 C515 0.929 . S
H524 C532 0.929 1_655 S
H525 C534 0.897 1_655 S
H526 C536 0.930 . S
H527 C539 0.929 . S
H528 C542 0.930 . S
H529 C544 0.960 . S
H530 C544 0.960 . S
H531 C544 0.960 . S
C532 H524 0.929 1_455 S
C532 C533 1.377 . S
C532 C534 1.382 . S
C533 C532 1.377 . S
C533 C539 1.390 . S
C534 H525 0.897 1_455 S
C534 C532 1.382 . S
C534 C535 1.407 . S
C535 C534 1.407 . S
C535 C536 1.400 . S
C535 C540 1.490 . S
C536 H526 0.930 . S
C536 C535 1.400 . S
C536 C539 1.386 . S
H537 C553 0.930 . S
H538 C554 0.931 . S
C539 H527 0.929 . S
C539 C533 1.390 . S
C539 C536 1.386 . S
C540 C535 1.490 . S
C540 C542 1.395 . S
C540 C543 1.403 . S
H541 C547 0.930 . S
C542 H528 0.930 . S
C542 C540 1.395 . S
C542 C545 1.403 . S
C543 C540 1.403 . S
C543 C544 1.524 . S
C543 C547 1.400 . S
C544 H529 0.960 . S
C544 H530 0.960 . S
C544 H531 0.960 . S
C544 C543 1.524 . S
C545 C542 1.403 . S
C545 C546 1.392 . S
C545 C549 1.495 . S
C546 C545 1.392 . S
C546 C547 1.385 . S
C546 C548 1.478 . S
C547 H541 0.930 . S
C547 C543 1.400 . S
C547 C546 1.385 . S
C548 C546 1.478 . S
C548 C550 1.392 . S
C548 C554 1.383 . S
C549 C545 1.495 . S
C549 H555 0.959 . S
C549 H556 0.961 . S
C549 H557 0.960 . S
C550 C548 1.392 . S
C550 C551 1.394 . S
C550 H558 0.918 1_455 S
C551 C550 1.394 . S
C551 C552 1.398 . S
C551 H559 0.915 1_455 S
C552 C551 1.398 . S
C552 C553 1.377 . S
C553 H537 0.930 . S
C553 C552 1.377 . S
C553 C554 1.379 . S
C554 H538 0.931 . S
C554 C548 1.383 . S
C554 C553 1.379 . S
H555 C549 0.959 . S
H556 C549 0.961 . S
H557 C549 0.960 . S
H558 C550 0.918 1_655 S
H559 C551 0.915 1_655 S
H560 C568 0.929 . S
H561 C570 0.930 . S
H562 C572 0.958 . S
H563 C575 0.929 . S
H564 C578 0.930 . S
H565 C580 0.960 . S
H566 C580 0.960 . S
H567 C580 0.960 . S
C568 H560 0.929 . S
C568 C569 1.377 . S
C568 C570 1.384 . S
C569 C568 1.377 . S
C569 C575 1.390 1_455 S
C570 H561 0.930 . S
C570 C568 1.384 . S
C570 C571 1.372 . S
C571 C570 1.372 . S
C571 C572 1.362 1_455 S
C571 C576 1.490 . S
C572 H562 0.958 . S
C572 C571 1.362 1_655 S
C572 C575 1.397 . S
H573 C589 0.930 . S
H574 C590 0.931 . S
C575 H563 0.929 . S
C575 C569 1.390 1_655 S
C575 C572 1.397 . S
C576 C571 1.490 . S
C576 C578 1.395 . S
C576 C579 1.403 . S
H577 C583 0.930 . S
C578 H564 0.930 . S
C578 C576 1.395 . S
C578 C581 1.403 . S
C579 C576 1.403 . S
C579 C580 1.524 1_455 S
C579 C583 1.400 . S
C580 H565 0.960 . S
C580 H566 0.960 . S
C580 H567 0.960 . S
C580 C579 1.524 1_655 S
C581 C578 1.403 . S
C581 C582 1.392 . S
C581 C585 1.495 . S
C582 C581 1.392 . S
C582 C583 1.385 . S
C582 C584 1.478 . S
C583 H577 0.930 . S
C583 C579 1.400 . S
C583 C582 1.385 . S
C584 C582 1.478 . S
C584 C586 1.381 . S
C584 C590 1.383 . S
C585 C581 1.495 . S
C585 H591 0.959 . S
C585 H592 0.961 . S
C585 H593 0.960 . S
C586 C584 1.381 . S
C586 C587 1.394 . S
C586 H594 0.930 . S
C587 C586 1.394 . S
C587 C588 1.383 . S
C587 H595 0.929 . S
C588 C587 1.383 . S
C588 C589 1.377 . S
C589 H573 0.930 . S
C589 C588 1.377 . S
C589 C590 1.379 . S
C590 H574 0.931 . S
C590 C584 1.383 . S
C590 C589 1.379 . S
H591 C585 0.959 . S
H592 C585 0.961 . S
H593 C585 0.960 . S
H594 C586 0.930 . S
H595 C587 0.929 . S
H596 C604 0.929 . S
H597 C606 0.930 . S
H598 C608 0.930 . S
H599 C611 0.929 . S
H600 C614 0.930 . S
H601 C616 0.960 . S
H602 C616 0.960 . S
H603 C616 0.960 . S
C604 H596 0.929 . S
C604 C605 1.377 . S
C604 C606 1.384 . S
C605 C604 1.377 . S
C605 C611 1.390 . S
C606 H597 0.930 . S
C606 C604 1.384 . S
C606 C607 1.372 . S
C607 C606 1.372 . S
C607 C608 1.400 . S
C607 C612 1.490 . S
C608 H598 0.930 . S
C608 C607 1.400 . S
C608 C611 1.386 . S
H609 C625 0.930 . S
H610 C626 0.931 . S
C611 H599 0.929 . S
C611 C605 1.390 . S
C611 C608 1.386 . S
C612 C607 1.490 . S
C612 C614 1.395 1_655 S
C612 C615 1.403 . S
H613 C619 0.930 . S
C614 H600 0.930 . S
C614 C612 1.395 1_455 S
C614 C617 1.403 . S
C615 C612 1.403 . S
C615 C616 1.524 . S
C615 C619 1.400 . S
C616 H601 0.960 . S
C616 H602 0.960 . S
C616 H603 0.960 . S
C616 C615 1.524 . S
C617 C614 1.403 . S
C617 C618 1.392 1_455 S
C617 C621 1.495 . S
C618 C617 1.392 1_655 S
C618 C619 1.385 . S
C618 C620 1.478 . S
C619 H613 0.930 . S
C619 C615 1.400 . S
C619 C618 1.385 . S
C620 C618 1.478 . S
C620 C622 1.381 . S
C620 C626 1.383 . S
C621 C617 1.495 . S
C621 H627 0.959 . S
C621 H628 0.961 . S
C621 H629 0.960 . S
C622 C620 1.381 . S
C622 C623 1.394 . S
C622 H630 0.930 . S
C623 C622 1.394 . S
C623 C624 1.383 . S
C623 H631 0.929 . S
C624 C623 1.383 . S
C624 C625 1.377 . S
C625 H609 0.930 . S
C625 C624 1.377 . S
C625 C626 1.379 . S
C626 H610 0.931 . S
C626 C620 1.383 . S
C626 C625 1.379 . S
H627 C621 0.959 . S
H628 C621 0.961 . S
H629 C621 0.960 . S
H630 C622 0.930 . S
H631 C623 0.929 . S
H632 C640 0.947 . S
H633 C642 0.930 . S
H634 C644 0.930 . S
H635 C647 0.929 . S
H636 C650 0.930 . S
H637 C652 0.960 . S
H638 C652 0.954 . S
H639 C652 0.960 . S
C640 H632 0.947 . S
C640 C641 1.377 . S
C640 C642 1.384 . S
C641 C640 1.377 . S
C641 C647 1.390 . S
C642 H633 0.930 . S
C642 C640 1.384 . S
C642 C643 1.372 . S
C643 C642 1.372 . S
C643 C644 1.400 . S
C643 C648 1.490 . S
C644 H634 0.930 . S
C644 C643 1.400 . S
C644 C647 1.386 . S
H645 C661 0.930 . S
H646 C662 0.931 . S
C647 H635 0.929 . S
C647 C641 1.390 . S
C647 C644 1.386 . S
C648 C643 1.490 . S
C648 C650 1.395 . S
C648 C651 1.403 . S
H649 C655 0.930 . S
C650 H636 0.930 . S
C650 C648 1.395 . S
C650 C653 1.403 . S
C651 C648 1.403 . S
C651 C652 1.524 . S
C651 C655 1.400 . S
C652 H637 0.960 . S
C652 H638 0.954 . S
C652 H639 0.960 . S
C652 C651 1.524 . S
C653 C650 1.403 . S
C653 C654 1.392 . S
C653 C657 1.495 . S
C654 C653 1.392 . S
C654 C655 1.385 . S
C654 C656 1.478 . S
C655 H649 0.930 . S
C655 C651 1.400 . S
C655 C654 1.385 . S
C656 C654 1.478 . S
C656 C658 1.381 . S
C656 C662 1.383 . S
C657 C653 1.495 . S
C657 H663 0.959 . S
C657 H664 0.961 . S
C657 H665 0.960 . S
C658 C656 1.381 . S
C658 C659 1.394 . S
C658 H666 0.930 . S
C659 C658 1.394 . S
C659 C660 1.383 . S
C659 H667 0.929 . S
C660 C659 1.383 . S
C660 C661 1.377 . S
C661 H645 0.930 . S
C661 C660 1.377 . S
C661 C662 1.379 . S
C662 H646 0.931 . S
C662 C656 1.383 . S
C662 C661 1.379 . S
H663 C657 0.959 . S
H664 C657 0.961 . S
H665 C657 0.960 . S
H666 C658 0.930 . S
H667 C659 0.929 . S
H668 C676 0.929 . S
H669 C678 0.930 . S
H670 C680 0.930 . S
H671 C683 0.929 . S
H672 C686 0.930 . S
H673 C688 0.960 . S
H674 C688 0.960 . S
H675 C688 0.960 . S
C676 H668 0.929 . S
C676 C677 1.377 . S
C676 C678 1.384 . S
C677 C676 1.377 . S
C677 C683 1.390 . S
C678 H669 0.930 . S
C678 C676 1.384 . S
C678 C679 1.372 . S
C679 C678 1.372 . S
C679 C680 1.400 . S
C679 C684 1.490 . S
C680 H670 0.930 . S
C680 C679 1.400 . S
C680 C683 1.386 . S
H681 C697 0.930 . S
H682 C698 0.931 . S
C683 H671 0.929 . S
C683 C677 1.390 . S
C683 C680 1.386 . S
C684 C679 1.490 . S
C684 C686 1.395 . S
C684 C687 1.403 . S
H685 C691 0.930 . S
C686 H672 0.930 . S
C686 C684 1.395 . S
C686 C689 1.403 . S
C687 C684 1.403 . S
C687 C688 1.524 . S
C687 C691 1.400 . S
C688 H673 0.960 . S
C688 H674 0.960 . S
C688 H675 0.960 . S
C688 C687 1.524 . S
C689 C686 1.403 . S
C689 C690 1.392 . S
C689 C693 1.495 . S
C690 C689 1.392 . S
C690 C691 1.385 . S
C690 C692 1.478 . S
C691 H685 0.930 . S
C691 C687 1.400 . S
C691 C690 1.385 . S
C692 C690 1.478 . S
C692 C694 1.381 . S
C692 C698 1.383 . S
C693 C689 1.495 . S
C693 H699 0.959 . S
C693 H700 0.961 . S
C693 H701 0.960 . S
C694 C692 1.381 . S
C694 C695 1.394 . S
C694 H702 0.930 . S
C695 C694 1.394 . S
C695 C696 1.383 . S
C695 H703 0.929 . S
C696 C695 1.383 . S
C696 C697 1.377 . S
C697 H681 0.930 . S
C697 C696 1.377 . S
C697 C698 1.379 . S
C698 H682 0.931 . S
C698 C692 1.383 . S
C698 C697 1.379 . S
H699 C693 0.959 . S
H700 C693 0.961 . S
H701 C693 0.960 . S
H702 C694 0.930 . S
H703 C695 0.929 . S
H704 C712 0.929 . S
H705 C714 0.930 . S
H706 C716 0.930 1_565 S
H707 C719 0.929 . S
H708 C722 0.923 1_565 S
H709 C724 0.960 . S
H710 C724 0.960 . S
H711 C724 0.960 . S
C712 H704 0.929 . S
C712 C713 1.377 . S
C712 C714 1.384 . S
C713 C712 1.377 . S
C713 C719 1.390 1_545 S
C714 H705 0.930 . S
C714 C712 1.384 . S
C714 C715 1.372 . S
C715 C714 1.372 . S
C715 C716 1.400 . S
C715 C720 1.490 . S
C716 H706 0.930 1_545 S
C716 C715 1.400 . S
C716 C719 1.386 1_545 S
H717 C733 0.930 . S
H718 C734 0.928 1_565 S
C719 H707 0.929 . S
C719 C713 1.390 1_565 S
C719 C716 1.386 1_565 S
C720 C715 1.490 . S
C720 C722 1.401 . S
C720 C723 1.403 . S
H721 C727 0.930 . S
C722 H708 0.923 1_545 S
C722 C720 1.401 . S
C722 C725 1.404 . S
C723 C720 1.403 . S
C723 C724 1.524 . S
C723 C727 1.400 . S
C724 H709 0.960 . S
C724 H710 0.960 . S
C724 H711 0.960 . S
C724 C723 1.524 . S
C725 C722 1.404 . S
C725 C726 1.392 . S
C725 C729 1.495 1_545 S
C726 C725 1.392 . S
C726 C727 1.385 . S
C726 C728 1.478 . S
C727 H721 0.930 . S
C727 C723 1.400 . S
C727 C726 1.385 . S
C728 C726 1.478 . S
C728 C730 1.381 . S
C728 C734 1.383 . S
C729 C725 1.495 1_565 S
C729 H735 0.959 . S
C729 H736 0.961 . S
C729 H737 0.960 . S
C730 C728 1.381 . S
C730 C731 1.394 . S
C730 H738 0.930 . S
C731 C730 1.394 . S
C731 C732 1.383 . S
C731 H739 0.929 . S
C732 C731 1.383 . S
C732 C733 1.377 . S
C733 H717 0.930 . S
C733 C732 1.377 . S
C733 C734 1.379 . S
C734 H718 0.928 1_545 S
C734 C728 1.383 . S
C734 C733 1.379 . S
H735 C729 0.959 . S
H736 C729 0.961 . S
H737 C729 0.960 . S
H738 C730 0.930 . S
H739 C731 0.929 . S
H740 C748 0.929 . S
H741 C750 0.930 . S
H742 C752 0.930 . S
H743 C755 0.929 . S
H744 C758 0.930 . S
H745 C760 0.960 . S
H746 C760 0.960 . S
H747 C760 0.960 . S
C748 H740 0.929 . S
C748 C749 1.377 . S
C748 C750 1.384 . S
C749 C748 1.377 . S
C749 C755 1.390 . S
C750 H741 0.930 . S
C750 C748 1.384 . S
C750 C751 1.372 . S
C751 C750 1.372 . S
C751 C752 1.400 . S
C751 C756 1.490 . S
C752 H742 0.930 . S
C752 C751 1.400 . S
C752 C755 1.386 . S
H753 C769 0.930 . S
H754 C770 0.931 . S
C755 H743 0.929 . S
C755 C749 1.390 . S
C755 C752 1.386 . S
C756 C751 1.490 . S
C756 C758 1.395 . S
C756 C759 1.403 . S
H757 C763 0.930 . S
C758 H744 0.930 . S
C758 C756 1.395 . S
C758 C761 1.403 . S
C759 C756 1.403 . S
C759 C760 1.524 . S
C759 C763 1.400 . S
C760 H745 0.960 . S
C760 H746 0.960 . S
C760 H747 0.960 . S
C760 C759 1.524 . S
C761 C758 1.403 . S
C761 C762 1.392 . S
C761 C765 1.495 . S
C762 C761 1.392 . S
C762 C763 1.385 . S
C762 C764 1.478 . S
C763 H757 0.930 . S
C763 C759 1.400 . S
C763 C762 1.385 . S
C764 C762 1.478 . S
C764 C766 1.381 . S
C764 C770 1.383 . S
C765 C761 1.495 . S
C765 H771 0.959 . S
C765 H772 0.961 . S
C765 H773 0.960 . S
C766 C764 1.381 . S
C766 C767 1.394 . S
C766 H774 0.930 . S
C767 C766 1.394 . S
C767 C768 1.383 . S
C767 H775 0.929 . S
C768 C767 1.383 . S
C768 C769 1.377 . S
C769 H753 0.930 . S
C769 C768 1.377 . S
C769 C770 1.379 . S
C770 H754 0.931 . S
C770 C764 1.383 . S
C770 C769 1.379 . S
H771 C765 0.959 . S
H772 C765 0.961 . S
H773 C765 0.960 . S
H774 C766 0.930 . S
H775 C767 0.929 . S
H776 C784 0.929 . S
H777 C786 0.930 . S
H778 C788 0.930 . S
H779 C791 0.929 . S
H780 C794 0.930 . S
H781 C796 0.960 . S
H782 C796 0.960 . S
H783 C796 0.960 . S
C784 H776 0.929 . S
C784 C785 1.377 . S
C784 C786 1.384 . S
C785 C784 1.377 . S
C785 C791 1.390 1_554 S
C786 H777 0.930 . S
C786 C784 1.384 . S
C786 C787 1.372 . S
C787 C786 1.372 . S
C787 C788 1.400 1_554 S
C787 C792 1.490 . S
C788 H778 0.930 . S
C788 C787 1.400 1_556 S
C788 C791 1.386 . S
H789 C805 0.930 1_556 S
H790 C806 0.931 1_556 S
C791 H779 0.929 . S
C791 C785 1.390 1_556 S
C791 C788 1.386 . S
C792 C787 1.490 . S
C792 C794 1.395 . S
C792 C795 1.406 . S
H793 C799 0.930 1_556 S
C794 H780 0.930 . S
C794 C792 1.395 . S
C794 C797 1.403 . S
C795 C792 1.406 . S
C795 C796 1.520 1_554 S
C795 C799 1.400 . S
C796 H781 0.960 . S
C796 H782 0.960 . S
C796 H783 0.960 . S
C796 C795 1.520 1_556 S
C797 C794 1.403 . S
C797 C798 1.392 . S
C797 C801 1.495 . S
C798 C797 1.392 . S
C798 C799 1.385 . S
C798 C800 1.478 . S
C799 H793 0.930 1_554 S
C799 C795 1.400 . S
C799 C798 1.385 . S
C800 C798 1.478 . S
C800 C802 1.381 . S
C800 C806 1.383 . S
C801 C797 1.495 . S
C801 H807 0.959 . S
C801 H808 0.961 . S
C801 H809 0.960 . S
C802 C800 1.381 . S
C802 C803 1.394 . S
C802 H810 0.930 . S
C803 C802 1.394 . S
C803 C804 1.383 . S
C803 H811 0.929 . S
C804 C803 1.383 . S
C804 C805 1.377 . S
C805 H789 0.930 1_554 S
C805 C804 1.377 . S
C805 C806 1.379 . S
C806 H790 0.931 1_554 S
C806 C800 1.383 . S
C806 C805 1.379 . S
H807 C801 0.959 . S
H808 C801 0.961 . S
H809 C801 0.960 . S
H810 C802 0.930 . S
H811 C803 0.929 . S
H812 C820 0.929 . S
H813 C822 0.930 . S
H814 C824 0.930 . S
H815 C827 0.929 . S
H816 C830 0.930 . S
H817 C832 0.960 . S
H818 C832 0.960 . S
H819 C832 0.960 . S
C820 H812 0.929 . S
C820 C821 1.377 . S
C820 C822 1.384 . S
C821 C820 1.377 . S
C821 C827 1.390 . S
C822 H813 0.930 . S
C822 C820 1.384 . S
C822 C823 1.372 . S
C823 C822 1.372 . S
C823 C824 1.400 . S
C823 C828 1.490 . S
C824 H814 0.930 . S
C824 C823 1.400 . S
C824 C827 1.386 . S
H825 C841 0.930 . S
H826 C842 0.931 . S
C827 H815 0.929 . S
C827 C821 1.390 . S
C827 C824 1.386 . S
C828 C823 1.490 . S
C828 C830 1.395 . S
C828 C831 1.403 . S
H829 C835 0.930 . S
C830 H816 0.930 . S
C830 C828 1.395 . S
C830 C833 1.403 . S
C831 C828 1.403 . S
C831 C832 1.524 . S
C831 C835 1.400 . S
C832 H817 0.960 . S
C832 H818 0.960 . S
C832 H819 0.960 . S
C832 C831 1.524 . S
C833 C830 1.403 . S
C833 C834 1.392 . S
C833 C837 1.495 . S
C834 C833 1.392 . S
C834 C835 1.385 . S
C834 C836 1.478 . S
C835 H829 0.930 . S
C835 C831 1.400 . S
C835 C834 1.385 . S
C836 C834 1.478 . S
C836 C838 1.381 . S
C836 C842 1.383 . S
C837 C833 1.495 . S
C837 H843 0.959 . S
C837 H844 0.961 . S
C837 H845 0.960 . S
C838 C836 1.381 . S
C838 C839 1.394 . S
C838 H846 0.930 . S
C839 C838 1.394 . S
C839 C840 1.383 . S
C839 H847 0.929 . S
C840 C839 1.383 . S
C840 C841 1.377 . S
C841 H825 0.930 . S
C841 C840 1.377 . S
C841 C842 1.379 . S
C842 H826 0.931 . S
C842 C836 1.383 . S
C842 C841 1.379 . S
H843 C837 0.959 . S
H844 C837 0.961 . S
H845 C837 0.960 . S
H846 C838 0.930 . S
H847 C839 0.929 . S
H848 C856 0.929 . S
H849 C858 0.930 . S
H850 C860 0.930 . S
H851 C863 0.929 . S
H852 C866 0.930 . S
H853 C868 0.960 . S
H854 C868 0.960 . S
H855 C868 0.960 . S
C856 H848 0.929 . S
C856 C857 1.377 . S
C856 C858 1.384 . S
C857 C856 1.377 . S
C857 C863 1.390 . S
C858 H849 0.930 . S
C858 C856 1.384 . S
C858 C859 1.372 . S
C859 C858 1.372 . S
C859 C860 1.400 . S
C859 C864 1.490 . S
C860 H850 0.930 . S
C860 C859 1.400 . S
C860 C863 1.386 . S
H861 C877 0.930 . S
H862 C878 0.931 . S
C863 H851 0.929 . S
C863 C857 1.390 . S
C863 C860 1.386 . S
C864 C859 1.490 . S
C864 C866 1.395 . S
C864 C867 1.403 . S
H865 C871 0.930 . S
C866 H852 0.930 . S
C866 C864 1.395 . S
C866 C869 1.403 . S
C867 C864 1.403 . S
C867 C868 1.524 . S
C867 C871 1.400 . S
C868 H853 0.960 . S
C868 H854 0.960 . S
C868 H855 0.960 . S
C868 C867 1.524 . S
C869 C866 1.403 . S
C869 C870 1.392 . S
C869 C873 1.495 . S
C870 C869 1.392 . S
C870 C871 1.385 . S
C870 C872 1.478 . S
C871 H865 0.930 . S
C871 C867 1.400 . S
C871 C870 1.385 . S
C872 C870 1.478 . S
C872 C874 1.392 . S
C872 C878 1.383 1_655 S
C873 C869 1.495 . S
C873 H879 0.959 . S
C873 H880 0.961 . S
C873 H881 0.960 . S
C874 C872 1.392 . S
C874 C875 1.347 1_655 S
C874 H882 0.970 . S
C875 C874 1.347 1_455 S
C875 C876 1.383 . S
C875 H883 0.929 . S
C876 C875 1.383 . S
C876 C877 1.377 . S
C877 H861 0.930 . S
C877 C876 1.377 . S
C877 C878 1.379 . S
C878 H862 0.931 . S
C878 C872 1.383 1_455 S
C878 C877 1.379 . S
H879 C873 0.959 . S
H880 C873 0.961 . S
H881 C873 0.960 . S
H882 C874 0.970 . S
H883 C875 0.929 . S
H884 C892 0.929 . S
H885 C894 0.930 . S
H886 C896 0.930 . S
H887 C899 0.929 . S
H888 C902 0.930 . S
H889 C904 0.960 . S
H890 C904 0.960 . S
H891 C904 0.960 . S
C892 H884 0.929 . S
C892 C893 1.377 . S
C892 C894 1.384 . S
C893 C892 1.377 . S
C893 C899 1.390 . S
C894 H885 0.930 . S
C894 C892 1.384 . S
C894 C895 1.372 . S
C895 C894 1.372 . S
C895 C896 1.400 . S
C895 C900 1.490 . S
C896 H886 0.930 . S
C896 C895 1.400 . S
C896 C899 1.386 . S
H897 C913 0.930 . S
H898 C914 0.931 . S
C899 H887 0.929 . S
C899 C893 1.390 . S
C899 C896 1.386 . S
C900 C895 1.490 . S
C900 C902 1.395 . S
C900 C903 1.403 . S
H901 C907 0.930 . S
C902 H888 0.930 . S
C902 C900 1.395 . S
C902 C905 1.403 . S
C903 C900 1.403 . S
C903 C904 1.524 . S
C903 C907 1.400 . S
C904 H889 0.960 . S
C904 H890 0.960 . S
C904 H891 0.960 . S
C904 C903 1.524 . S
C905 C902 1.403 . S
C905 C906 1.392 . S
C905 C909 1.495 . S
C906 C905 1.392 . S
C906 C907 1.385 . S
C906 C908 1.478 . S
C907 H901 0.930 . S
C907 C903 1.400 . S
C907 C906 1.385 . S
C908 C906 1.478 . S
C908 C910 1.381 . S
C908 C914 1.383 . S
C909 C905 1.495 . S
C909 H915 0.959 . S
C909 H916 0.961 . S
C909 H917 0.960 . S
C910 C908 1.381 . S
C910 C911 1.394 . S
C910 H918 0.930 . S
C911 C910 1.394 . S
C911 C912 1.383 . S
C911 H919 0.929 . S
C912 C911 1.383 . S
C912 C913 1.377 . S
C913 H897 0.930 . S
C913 C912 1.377 . S
C913 C914 1.379 . S
C914 H898 0.931 . S
C914 C908 1.383 . S
C914 C913 1.379 . S
H915 C909 0.959 . S
H916 C909 0.961 . S
H917 C909 0.960 . S
H918 C910 0.930 . S
H919 C911 0.929 . S
H920 C928 0.929 . S
H921 C930 0.930 . S
H922 C932 0.930 . S
H923 C935 0.929 . S
H924 C938 0.930 . S
H925 C940 0.960 . S
H926 C940 0.960 . S
H927 C940 0.960 . S
C928 H920 0.929 . S
C928 C929 1.377 . S
C928 C930 1.384 . S
C929 C928 1.377 . S
C929 C935 1.390 . S
C930 H921 0.930 . S
C930 C928 1.384 . S
C930 C931 1.372 . S
C931 C930 1.372 . S
C931 C932 1.400 . S
C931 C936 1.490 . S
C932 H922 0.930 . S
C932 C931 1.400 . S
C932 C935 1.386 . S
H933 C949 0.930 . S
H934 C950 0.931 . S
C935 H923 0.929 . S
C935 C929 1.390 . S
C935 C932 1.386 . S
C936 C931 1.490 . S
C936 C938 1.395 . S
C936 C939 1.403 . S
H937 C943 0.930 . S
C938 H924 0.930 . S
C938 C936 1.395 . S
C938 C941 1.403 . S
C939 C936 1.403 . S
C939 C940 1.524 . S
C939 C943 1.400 . S
C940 H925 0.960 . S
C940 H926 0.960 . S
C940 H927 0.960 . S
C940 C939 1.524 . S
C941 C938 1.403 . S
C941 C942 1.392 . S
C941 C945 1.495 . S
C942 C941 1.392 . S
C942 C943 1.385 . S
C942 C944 1.478 . S
C943 H937 0.930 . S
C943 C939 1.400 . S
C943 C942 1.385 . S
C944 C942 1.478 . S
C944 C946 1.381 . S
C944 C950 1.383 . S
C945 C941 1.495 . S
C945 H951 0.959 . S
C945 H952 0.961 . S
C945 H953 0.960 . S
C946 C944 1.381 . S
C946 C947 1.394 . S
C946 H954 0.930 . S
C947 C946 1.394 . S
C947 C948 1.383 . S
C947 H955 0.929 . S
C948 C947 1.383 . S
C948 C949 1.377 . S
C949 H933 0.930 . S
C949 C948 1.377 . S
C949 C950 1.379 . S
C950 H934 0.931 . S
C950 C944 1.383 . S
C950 C949 1.379 . S
H951 C945 0.959 . S
H952 C945 0.961 . S
H953 C945 0.960 . S
H954 C946 0.930 . S
H955 C947 0.929 . S
H956 C964 0.929 . S
H957 C966 0.930 . S
H958 C968 0.930 . S
H959 C971 0.929 . S
H960 C974 0.930 . S
H961 C976 0.960 . S
H962 C976 0.960 . S
H963 C976 0.960 . S
C964 H956 0.929 . S
C964 C965 1.377 . S
C964 C966 1.384 . S
C965 C964 1.377 . S
C965 C971 1.390 . S
C966 H957 0.930 . S
C966 C964 1.384 . S
C966 C967 1.372 . S
C967 C966 1.372 . S
C967 C968 1.400 . S
C967 C972 1.490 . S
C968 H958 0.930 . S
C968 C967 1.400 . S
C968 C971 1.386 . S
H969 C985 0.930 . S
H970 C986 0.931 . S
C971 H959 0.929 . S
C971 C965 1.390 . S
C971 C968 1.386 . S
C972 C967 1.490 . S
C972 C974 1.395 . S
C972 C975 1.403 . S
H973 C979 0.930 . S
C974 H960 0.930 . S
C974 C972 1.395 . S
C974 C977 1.403 . S
C975 C972 1.403 . S
C975 C976 1.524 . S
C975 C979 1.400 . S
C976 H961 0.960 . S
C976 H962 0.960 . S
C976 H963 0.960 . S
C976 C975 1.524 . S
C977 C974 1.403 . S
C977 C978 1.392 . S
C977 C981 1.495 . S
C978 C977 1.392 . S
C978 C979 1.385 . S
C978 C980 1.478 . S
C979 H973 0.930 . S
C979 C975 1.400 . S
C979 C978 1.385 . S
C980 C978 1.478 . S
C980 C982 1.381 . S
C980 C986 1.383 . S
C981 C977 1.495 . S
C981 H987 0.959 . S
C981 H988 0.961 . S
C981 H989 0.960 . S
C982 C980 1.381 . S
C982 C983 1.394 1_565 S
C982 H990 0.930 . S
C983 C982 1.394 1_545 S
C983 C984 1.383 . S
C983 H991 0.929 . S
C984 C983 1.383 . S
C984 C985 1.377 1_545 S
C985 H969 0.930 . S
C985 C984 1.377 1_565 S
C985 C986 1.379 . S
C986 H970 0.931 . S
C986 C980 1.383 . S
C986 C985 1.379 . S
H987 C981 0.959 . S
H988 C981 0.961 . S
H989 C981 0.960 . S
H990 C982 0.930 . S
H991 C983 0.929 . S
H992 C1000 0.929 . S
H993 C1002 0.930 . S
H994 C1004 0.930 . S
H995 C1007 0.929 . S
H996 C1010 0.930 . S
H997 C1012 0.960 . S
H998 C1012 0.960 . S
H999 C1012 0.960 . S
C1000 H992 0.929 . S
C1000 C1001 1.377 . S
C1000 C1002 1.384 . S
C1001 C1000 1.377 . S
C1001 C1007 1.390 . S
C1002 H993 0.930 . S
C1002 C1000 1.384 . S
C1002 C1003 1.372 . S
C1003 C1002 1.372 . S
C1003 C1004 1.400 . S
C1003 C1008 1.490 . S
C1004 H994 0.930 . S
C1004 C1003 1.400 . S
C1004 C1007 1.386 . S
H1005 C1021 0.930 . S
H1006 C1022 0.931 . S
C1007 H995 0.929 . S
C1007 C1001 1.390 . S
C1007 C1004 1.386 . S
C1008 C1003 1.490 . S
C1008 C1010 1.395 . S
C1008 C1011 1.403 . S
H1009 C1015 0.930 . S
C1010 H996 0.930 . S
C1010 C1008 1.395 . S
C1010 C1013 1.403 . S
C1011 C1008 1.403 . S
C1011 C1012 1.524 . S
C1011 C1015 1.400 . S
C1012 H997 0.960 . S
C1012 H998 0.960 . S
C1012 H999 0.960 . S
C1012 C1011 1.524 . S
C1013 C1010 1.403 . S
C1013 C1014 1.392 . S
C1013 C1017 1.495 . S
C1014 C1013 1.392 . S
C1014 C1015 1.385 . S
C1014 C1016 1.478 . S
C1015 H1009 0.930 . S
C1015 C1011 1.400 . S
C1015 C1014 1.385 . S
C1016 C1014 1.478 . S
C1016 C1018 1.381 . S
C1016 C1022 1.383 . S
C1017 C1013 1.495 . S
C1017 H1023 0.959 . S
C1017 H1024 0.961 . S
C1017 H1025 0.960 . S
C1018 C1016 1.381 . S
C1018 C1019 1.394 . S
C1018 H1026 0.930 . S
C1019 C1018 1.394 . S
C1019 C1020 1.383 . S
C1019 H1027 0.929 . S
C1020 C1019 1.383 . S
C1020 C1021 1.377 . S
C1021 H1005 0.930 . S
C1021 C1020 1.377 . S
C1021 C1022 1.379 . S
C1022 H1006 0.931 . S
C1022 C1016 1.383 . S
C1022 C1021 1.379 . S
H1023 C1017 0.959 . S
H1024 C1017 0.961 . S
H1025 C1017 0.960 . S
H1026 C1018 0.930 . S
H1027 C1019 0.929 . S
H1028 C1036 0.929 . S
H1029 C1038 0.930 . S
H1030 C1040 0.930 . S
H1031 C1043 0.929 . S
H1032 C1046 0.930 . S
H1033 C1048 0.960 . S
H1034 C1048 0.960 . S
H1035 C1048 0.960 . S
C1036 H1028 0.929 . S
C1036 C1037 1.377 . S
C1036 C1038 1.384 . S
C1037 C1036 1.377 . S
C1037 C1043 1.390 . S
C1038 H1029 0.930 . S
C1038 C1036 1.384 . S
C1038 C1039 1.372 . S
C1039 C1038 1.372 . S
C1039 C1040 1.400 . S
C1039 C1044 1.490 . S
C1040 H1030 0.930 . S
C1040 C1039 1.400 . S
C1040 C1043 1.386 . S
H1041 C1057 0.930 . S
H1042 C1058 0.931 . S
C1043 H1031 0.929 . S
C1043 C1037 1.390 . S
C1043 C1040 1.386 . S
C1044 C1039 1.490 . S
C1044 C1046 1.395 . S
C1044 C1047 1.403 . S
H1045 C1051 0.930 . S
C1046 H1032 0.930 . S
C1046 C1044 1.395 . S
C1046 C1049 1.403 . S
C1047 C1044 1.403 . S
C1047 C1048 1.524 . S
C1047 C1051 1.400 . S
C1048 H1033 0.960 . S
C1048 H1034 0.960 . S
C1048 H1035 0.960 . S
C1048 C1047 1.524 . S
C1049 C1046 1.403 . S
C1049 C1050 1.392 . S
C1049 C1053 1.495 . S
C1050 C1049 1.392 . S
C1050 C1051 1.385 . S
C1050 C1052 1.478 . S
C1051 H1045 0.930 . S
C1051 C1047 1.400 . S
C1051 C1050 1.385 . S
C1052 C1050 1.478 . S
C1052 C1054 1.381 . S
C1052 C1058 1.383 . S
C1053 C1049 1.495 . S
C1053 H1059 0.959 . S
C1053 H1060 0.961 . S
C1053 H1061 0.960 . S
C1054 C1052 1.381 . S
C1054 C1055 1.394 . S
C1054 H1062 0.930 . S
C1055 C1054 1.394 . S
C1055 C1056 1.383 . S
C1055 H1063 0.929 . S
C1056 C1055 1.383 . S
C1056 C1057 1.377 . S
C1057 H1041 0.930 . S
C1057 C1056 1.377 . S
C1057 C1058 1.379 . S
C1058 H1042 0.931 . S
C1058 C1052 1.383 . S
C1058 C1057 1.379 . S
H1059 C1053 0.959 . S
H1060 C1053 0.961 . S
H1061 C1053 0.960 . S
H1062 C1054 0.930 . S
H1063 C1055 0.929 . S
H1064 C1072 0.929 . S
H1065 C1074 0.930 . S
H1066 C1076 0.930 . S
H1067 C1079 0.929 . S
H1068 C1082 0.930 . S
H1069 C1084 0.960 . S
H1070 C1084 0.960 . S
H1071 C1084 0.960 . S
C1072 H1064 0.929 . S
C1072 C1073 1.377 . S
C1072 C1074 1.384 . S
C1073 C1072 1.377 . S
C1073 C1079 1.390 . S
C1074 H1065 0.930 . S
C1074 C1072 1.384 . S
C1074 C1075 1.372 . S
C1075 C1074 1.372 . S
C1075 C1076 1.400 . S
C1075 C1080 1.490 . S
C1076 H1066 0.930 . S
C1076 C1075 1.400 . S
C1076 C1079 1.386 . S
H1077 C1093 0.930 . S
H1078 C1094 0.931 . S
C1079 H1067 0.929 . S
C1079 C1073 1.390 . S
C1079 C1076 1.386 . S
C1080 C1075 1.490 . S
C1080 C1082 1.395 . S
C1080 C1083 1.403 . S
H1081 C1087 0.930 . S
C1082 H1068 0.930 . S
C1082 C1080 1.395 . S
C1082 C1085 1.403 . S
C1083 C1080 1.403 . S
C1083 C1084 1.524 . S
C1083 C1087 1.400 . S
C1084 H1069 0.960 . S
C1084 H1070 0.960 . S
C1084 H1071 0.960 . S
C1084 C1083 1.524 . S
C1085 C1082 1.403 . S
C1085 C1086 1.392 . S
C1085 C1089 1.495 . S
C1086 C1085 1.392 . S
C1086 C1087 1.385 . S
C1086 C1088 1.478 . S
C1087 H1081 0.930 . S
C1087 C1083 1.400 . S
C1087 C1086 1.385 . S
C1088 C1086 1.478 . S
C1088 C1090 1.381 . S
C1088 C1094 1.383 . S
C1089 C1085 1.495 . S
C1089 H1095 0.959 . S
C1089 H1096 0.961 . S
C1089 H1097 0.960 . S
C1090 C1088 1.381 . S
C1090 C1091 1.394 . S
C1090 H1098 0.930 . S
C1091 C1090 1.394 . S
C1091 C1092 1.383 . S
C1091 H1099 0.929 . S
C1092 C1091 1.383 . S
C1092 C1093 1.377 . S
C1093 H1077 0.930 . S
C1093 C1092 1.377 . S
C1093 C1094 1.379 . S
C1094 H1078 0.931 . S
C1094 C1088 1.383 . S
C1094 C1093 1.379 . S
H1095 C1089 0.959 . S
H1096 C1089 0.961 . S
H1097 C1089 0.960 . S
H1098 C1090 0.930 . S
H1099 C1091 0.929 . S
H1100 C1108 0.929 . S
H1101 C1110 0.930 . S
H1102 C1112 0.930 . S
H1103 C1115 0.929 . S
H1104 C1118 0.930 . S
H1105 C1120 0.960 . S
H1106 C1120 0.960 . S
H1107 C1120 0.960 . S
C1108 H1100 0.929 . S
C1108 C1109 1.377 1_545 S
C1108 C1110 1.384 . S
C1109 C1108 1.377 1_565 S
C1109 C1115 1.390 . S
C1110 H1101 0.930 . S
C1110 C1108 1.384 . S
C1110 C1111 1.372 . S
C1111 C1110 1.372 . S
C1111 C1112 1.400 1_545 S
C1111 C1116 1.490 . S
C1112 H1102 0.930 . S
C1112 C1111 1.400 1_565 S
C1112 C1115 1.386 . S
H1113 C1129 0.930 1_565 S
H1114 C1130 0.933 1_565 S
C1115 H1103 0.929 . S
C1115 C1109 1.390 . S
C1115 C1112 1.386 . S
C1116 C1111 1.490 . S
C1116 C1118 1.395 1_545 S
C1116 C1119 1.403 . S
H1117 C1123 0.930 . S
C1118 H1104 0.930 . S
C1118 C1116 1.395 1_565 S
C1118 C1121 1.402 1_565 S
C1119 C1116 1.403 . S
C1119 C1120 1.524 . S
C1119 C1123 1.400 . S
C1120 H1105 0.960 . S
C1120 H1106 0.960 . S
C1120 H1107 0.960 . S
C1120 C1119 1.524 . S
C1121 C1118 1.402 1_545 S
C1121 C1122 1.401 . S
C1121 C1125 1.489 1_545 S
C1122 C1121 1.401 . S
C1122 C1123 1.385 . S
C1122 C1124 1.478 . S
C1123 H1117 0.930 . S
C1123 C1119 1.400 . S
C1123 C1122 1.385 . S
C1124 C1122 1.478 . S
C1124 C1126 1.381 . S
C1124 C1130 1.381 . S
C1125 C1121 1.489 1_565 S
C1125 H1131 0.959 . S
C1125 H1132 0.961 . S
C1125 H1133 0.960 1_565 S
C1126 C1124 1.381 . S
C1126 C1127 1.394 . S
C1126 H1134 0.930 . S
C1127 C1126 1.394 . S
C1127 C1128 1.383 . S
C1127 H1135 0.929 . S
C1128 C1127 1.383 . S
C1128 C1129 1.377 . S
C1129 H1113 0.930 1_545 S
C1129 C1128 1.377 . S
C1129 C1130 1.379 . S
C1130 H1114 0.933 1_545 S
C1130 C1124 1.381 . S
C1130 C1129 1.379 . S
H1131 C1125 0.959 . S
H1132 C1125 0.961 . S
H1133 C1125 0.960 1_545 S
H1134 C1126 0.930 . S
H1135 C1127 0.929 . S
H1136 C1144 0.929 . S
H1137 C1146 0.930 . S
H1138 C1148 0.930 . S
H1139 C1151 0.929 . S
H1140 C1154 0.930 . S
H1141 C1156 0.960 . S
H1142 C1156 0.960 . S
H1143 C1156 0.960 . S
C1144 H1136 0.929 . S
C1144 C1145 1.377 . S
C1144 C1146 1.384 . S
C1145 C1144 1.377 . S
C1145 C1151 1.390 . S
C1146 H1137 0.930 . S
C1146 C1144 1.384 . S
C1146 C1147 1.372 . S
C1147 C1146 1.372 . S
C1147 C1148 1.400 . S
C1147 C1152 1.490 . S
C1148 H1138 0.930 . S
C1148 C1147 1.400 . S
C1148 C1151 1.386 . S
H1149 C1165 0.930 . S
H1150 C1166 0.949 . S
C1151 H1139 0.929 . S
C1151 C1145 1.390 . S
C1151 C1148 1.386 . S
C1152 C1147 1.490 . S
C1152 C1154 1.395 . S
C1152 C1155 1.403 . S
H1153 C1159 0.930 . S
C1154 H1140 0.930 . S
C1154 C1152 1.395 . S
C1154 C1157 1.403 . S
C1155 C1152 1.403 . S
C1155 C1156 1.524 . S
C1155 C1159 1.400 . S
C1156 H1141 0.960 . S
C1156 H1142 0.960 . S
C1156 H1143 0.960 . S
C1156 C1155 1.524 . S
C1157 C1154 1.403 . S
C1157 C1158 1.392 . S
C1157 C1161 1.495 . S
C1158 C1157 1.392 . S
C1158 C1159 1.385 . S
C1158 C1160 1.478 . S
C1159 H1153 0.930 . S
C1159 C1155 1.400 . S
C1159 C1158 1.385 . S
C1160 C1158 1.478 . S
C1160 C1162 1.381 1_556 S
C1160 C1166 1.393 . S
C1161 C1157 1.495 . S
C1161 H1167 0.959 . S
C1161 H1168 0.961 . S
C1161 H1169 0.960 . S
C1162 C1160 1.381 1_554 S
C1162 C1163 1.394 . S
C1162 H1170 0.930 . S
C1163 C1162 1.394 . S
C1163 C1164 1.383 . S
C1163 H1171 0.929 . S
C1164 C1163 1.383 . S
C1164 C1165 1.377 . S
C1165 H1149 0.930 . S
C1165 C1164 1.377 . S
C1165 C1166 1.352 1_554 S
C1166 H1150 0.949 . S
C1166 C1160 1.393 . S
C1166 C1165 1.352 1_556 S
H1167 C1161 0.959 . S
H1168 C1161 0.961 . S
H1169 C1161 0.960 . S
H1170 C1162 0.930 . S
H1171 C1163 0.929 . S
H1172 C1180 0.929 . S
H1173 C1182 0.930 . S
H1174 C1184 0.930 . S
H1175 C1187 0.929 1_565 S
H1176 C1190 0.930 . S
H1177 C1192 0.960 . S
H1178 C1192 0.960 . S
H1179 C1192 0.960 . S
C1180 H1172 0.929 . S
C1180 C1181 1.377 . S
C1180 C1182 1.384 . S
C1181 C1180 1.377 . S
C1181 C1187 1.390 . S
C1182 H1173 0.930 . S
C1182 C1180 1.384 . S
C1182 C1183 1.372 . S
C1183 C1182 1.372 . S
C1183 C1184 1.400 . S
C1183 C1188 1.490 . S
C1184 H1174 0.930 . S
C1184 C1183 1.400 . S
C1184 C1187 1.386 . S
H1185 C1201 0.930 . S
H1186 C1202 0.931 . S
C1187 H1175 0.929 1_545 S
C1187 C1181 1.390 . S
C1187 C1184 1.386 . S
C1188 C1183 1.490 . S
C1188 C1190 1.395 . S
C1188 C1191 1.403 . S
H1189 C1195 0.933 . S
C1190 H1176 0.930 . S
C1190 C1188 1.395 . S
C1190 C1193 1.403 . S
C1191 C1188 1.403 . S
C1191 C1192 1.524 . S
C1191 C1195 1.400 . S
C1192 H1177 0.960 . S
C1192 H1178 0.960 . S
C1192 H1179 0.960 . S
C1192 C1191 1.524 . S
C1193 C1190 1.403 . S
C1193 C1194 1.392 . S
C1193 C1197 1.495 . S
C1194 C1193 1.392 . S
C1194 C1195 1.385 . S
C1194 C1196 1.478 1_556 S
C1195 H1189 0.933 . S
C1195 C1191 1.400 . S
C1195 C1194 1.385 . S
C1196 C1194 1.478 1_554 S
C1196 C1198 1.381 . S
C1196 C1202 1.383 . S
C1197 C1193 1.495 . S
C1197 H1203 0.959 . S
C1197 H1204 0.954 1_556 S
C1197 H1205 0.960 . S
C1198 C1196 1.381 . S
C1198 C1199 1.394 . S
C1198 H1206 0.930 . S
C1199 C1198 1.394 . S
C1199 C1200 1.383 . S
C1199 H1207 0.929 . S
C1200 C1199 1.383 . S
C1200 C1201 1.377 . S
C1201 H1185 0.930 . S
C1201 C1200 1.377 . S
C1201 C1202 1.379 . S
C1202 H1186 0.931 . S
C1202 C1196 1.383 . S
C1202 C1201 1.379 . S
H1203 C1197 0.959 . S
H1204 C1197 0.954 1_554 S
H1205 C1197 0.960 . S
H1206 C1198 0.930 . S
H1207 C1199 0.929 . S
H1208 C1216 0.929 . S
H1209 C1218 0.930 . S
H1210 C1220 0.930 . S
H1211 C1223 0.929 . S
H1212 C1226 0.930 . S
H1213 C1228 0.960 . S
H1214 C1228 0.960 . S
H1215 C1228 0.960 . S
C1216 H1208 0.929 . S
C1216 C1217 1.377 . S
C1216 C1218 1.384 . S
C1217 C1216 1.377 . S
C1217 C1223 1.390 . S
C1218 H1209 0.930 . S
C1218 C1216 1.384 . S
C1218 C1219 1.372 . S
C1219 C1218 1.372 . S
C1219 C1220 1.400 . S
C1219 C1224 1.490 . S
C1220 H1210 0.930 . S
C1220 C1219 1.400 . S
C1220 C1223 1.386 . S
H1221 C1237 0.930 . S
H1222 C1238 0.931 . S
C1223 H1211 0.929 . S
C1223 C1217 1.390 . S
C1223 C1220 1.386 . S
C1224 C1219 1.490 . S
C1224 C1226 1.395 . S
C1224 C1227 1.403 . S
H1225 C1231 0.930 . S
C1226 H1212 0.930 . S
C1226 C1224 1.395 . S
C1226 C1229 1.403 . S
C1227 C1224 1.403 . S
C1227 C1228 1.524 . S
C1227 C1231 1.400 . S
C1228 H1213 0.960 . S
C1228 H1214 0.960 . S
C1228 H1215 0.960 . S
C1228 C1227 1.524 . S
C1229 C1226 1.403 . S
C1229 C1230 1.392 . S
C1229 C1233 1.495 . S
C1230 C1229 1.392 . S
C1230 C1231 1.385 . S
C1230 C1232 1.478 . S
C1231 H1225 0.930 . S
C1231 C1227 1.400 . S
C1231 C1230 1.385 . S
C1232 C1230 1.478 . S
C1232 C1234 1.381 . S
C1232 C1238 1.383 . S
C1233 C1229 1.495 . S
C1233 H1239 0.959 . S
C1233 H1240 0.961 . S
C1233 H1241 0.960 . S
C1234 C1232 1.381 . S
C1234 C1235 1.394 . S
C1234 H1242 0.930 . S
C1235 C1234 1.394 . S
C1235 C1236 1.383 . S
C1235 H1243 0.929 . S
C1236 C1235 1.383 . S
C1236 C1237 1.377 . S
C1237 H1221 0.930 . S
C1237 C1236 1.377 . S
C1237 C1238 1.379 . S
C1238 H1222 0.931 . S
C1238 C1232 1.383 . S
C1238 C1237 1.379 . S
H1239 C1233 0.959 . S
H1240 C1233 0.961 . S
H1241 C1233 0.960 . S
H1242 C1234 0.930 . S
H1243 C1235 0.929 . S
H1244 C1252 0.929 . S
H1245 C1254 0.930 . S
H1246 C1256 0.930 . S
H1247 C1259 0.929 . S
H1248 C1262 0.930 . S
H1249 C1264 0.960 . S
H1250 C1264 0.960 . S
H1251 C1264 0.960 . S
C1252 H1244 0.929 . S
C1252 C1253 1.377 1_554 S
C1252 C1254 1.384 . S
C1253 C1252 1.377 1_556 S
C1253 C1259 1.390 . S
C1254 H1245 0.930 . S
C1254 C1252 1.384 . S
C1254 C1255 1.372 1_554 S
C1255 C1254 1.372 1_556 S
C1255 C1256 1.400 . S
C1255 C1260 1.490 . S
C1256 H1246 0.930 . S
C1256 C1255 1.400 . S
C1256 C1259 1.386 . S
H1257 C1273 0.930 . S
H1258 C1274 0.931 . S
C1259 H1247 0.929 . S
C1259 C1253 1.390 . S
C1259 C1256 1.386 . S
C1260 C1255 1.490 . S
C1260 C1262 1.395 1_556 S
C1260 C1263 1.403 . S
H1261 C1267 0.930 . S
C1262 H1248 0.930 . S
C1262 C1260 1.395 1_554 S
C1262 C1265 1.403 . S
C1263 C1260 1.403 . S
C1263 C1264 1.524 . S
C1263 C1267 1.400 . S
C1264 H1249 0.960 . S
C1264 H1250 0.960 . S
C1264 H1251 0.960 . S
C1264 C1263 1.524 . S
C1265 C1262 1.403 . S
C1265 C1266 1.392 . S
C1265 C1269 1.495 . S
C1266 C1265 1.392 . S
C1266 C1267 1.385 1_554 S
C1266 C1268 1.478 . S
C1267 H1261 0.930 . S
C1267 C1263 1.400 . S
C1267 C1266 1.385 1_556 S
C1268 C1266 1.478 . S
C1268 C1270 1.381 . S
C1268 C1274 1.383 1_554 S
C1269 C1265 1.495 . S
C1269 H1275 0.959 . S
C1269 H1276 0.961 . S
C1269 H1277 0.960 . S
C1270 C1268 1.381 . S
C1270 C1271 1.394 . S
C1270 H1278 0.930 . S
C1271 C1270 1.394 . S
C1271 C1272 1.383 . S
C1271 H1279 0.929 . S
C1272 C1271 1.383 . S
C1272 C1273 1.377 1_554 S
C1273 H1257 0.930 . S
C1273 C1272 1.377 1_556 S
C1273 C1274 1.379 . S
C1274 H1258 0.931 . S
C1274 C1268 1.383 1_556 S
C1274 C1273 1.379 . S
H1275 C1269 0.959 . S
H1276 C1269 0.961 . S
H1277 C1269 0.960 . S
H1278 C1270 0.930 . S
H1279 C1271 0.929 . S
H1280 C1288 0.929 . S
H1281 C1290 0.930 . S
H1282 C1292 0.930 . S
H1283 C1295 0.929 . S
H1284 C1298 0.930 . S
H1285 C1300 0.960 . S
H1286 C1300 0.960 . S
H1287 C1300 0.960 . S
C1288 H1280 0.929 . S
C1288 C1289 1.377 . S
C1288 C1290 1.384 . S
C1289 C1288 1.377 . S
C1289 C1295 1.390 . S
C1290 H1281 0.930 . S
C1290 C1288 1.384 . S
C1290 C1291 1.372 . S
C1291 C1290 1.372 . S
C1291 C1292 1.400 . S
C1291 C1296 1.489 1_556 S
C1292 H1282 0.930 . S
C1292 C1291 1.400 . S
C1292 C1295 1.386 . S
H1293 C1309 0.930 . S
H1294 C1310 0.931 . S
C1295 H1283 0.929 . S
C1295 C1289 1.390 . S
C1295 C1292 1.386 . S
C1296 C1291 1.489 1_554 S
C1296 C1298 1.390 1_554 S
C1296 C1299 1.408 . S
H1297 C1303 0.930 . S
C1298 H1284 0.930 . S
C1298 C1296 1.390 1_556 S
C1298 C1301 1.403 . S
C1299 C1296 1.408 . S
C1299 C1300 1.524 . S
C1299 C1303 1.400 . S
C1300 H1285 0.960 . S
C1300 H1286 0.960 . S
C1300 H1287 0.960 . S
C1300 C1299 1.524 . S
C1301 C1298 1.403 . S
C1301 C1302 1.392 1_556 S
C1301 C1305 1.495 . S
C1302 C1301 1.392 1_554 S
C1302 C1303 1.385 . S
C1302 C1304 1.478 . S
C1303 H1297 0.930 . S
C1303 C1299 1.400 . S
C1303 C1302 1.385 . S
C1304 C1302 1.478 . S
C1304 C1306 1.381 . S
C1304 C1310 1.383 . S
C1305 C1301 1.495 . S
C1305 H1311 0.959 . S
C1305 H1312 0.961 . S
C1305 H1313 0.960 . S
C1306 C1304 1.381 . S
C1306 C1307 1.394 . S
C1306 H1314 0.930 . S
C1307 C1306 1.394 . S
C1307 C1308 1.383 . S
C1307 H1315 0.929 . S
C1308 C1307 1.383 . S
C1308 C1309 1.377 . S
C1309 H1293 0.930 . S
C1309 C1308 1.377 . S
C1309 C1310 1.379 . S
C1310 H1294 0.931 . S
C1310 C1304 1.383 . S
C1310 C1309 1.379 . S
H1311 C1305 0.959 . S
H1312 C1305 0.961 . S
H1313 C1305 0.960 . S
H1314 C1306 0.930 . S
H1315 C1307 0.929 . S
H1316 C1324 0.951 . S
H1317 C1326 0.930 1_556 S
H1318 C1328 0.930 . S
H1319 C1331 0.929 . S
H1320 C1334 0.930 . S
H1321 C1336 0.960 . S
H1322 C1336 0.960 . S
H1323 C1336 0.960 . S
C1324 H1316 0.951 . S
C1324 C1325 1.363 1_556 S
C1324 C1326 1.377 1_556 S
C1325 C1324 1.363 1_554 S
C1325 C1331 1.390 . S
C1326 H1317 0.930 1_554 S
C1326 C1324 1.377 1_554 S
C1326 C1327 1.372 . S
C1327 C1326 1.372 . S
C1327 C1328 1.400 . S
C1327 C1332 1.490 . S
C1328 H1318 0.930 . S
C1328 C1327 1.400 . S
C1328 C1331 1.386 . S
H1329 C1345 0.930 . S
H1330 C1346 0.931 . S
C1331 H1319 0.929 . S
C1331 C1325 1.390 . S
C1331 C1328 1.386 . S
C1332 C1327 1.490 . S
C1332 C1334 1.395 . S
C1332 C1335 1.403 . S
H1333 C1339 0.930 . S
C1334 H1320 0.930 . S
C1334 C1332 1.395 . S
C1334 C1337 1.402 . S
C1335 C1332 1.403 . S
C1335 C1336 1.524 . S
C1335 C1339 1.400 . S
C1336 H1321 0.960 . S
C1336 H1322 0.960 . S
C1336 H1323 0.960 . S
C1336 C1335 1.524 . S
C1337 C1334 1.402 . S
C1337 C1338 1.392 . S
C1337 C1341 1.497 1_655 S
C1338 C1337 1.392 . S
C1338 C1339 1.385 . S
C1338 C1340 1.478 1_655 S
C1339 H1333 0.930 . S
C1339 C1335 1.400 . S
C1339 C1338 1.385 . S
C1340 C1338 1.478 1_455 S
C1340 C1342 1.381 . S
C1340 C1346 1.383 . S
C1341 C1337 1.497 1_455 S
C1341 H1347 0.959 . S
C1341 H1348 0.961 . S
C1341 H1349 0.960 . S
C1342 C1340 1.381 . S
C1342 C1343 1.394 . S
C1342 H1350 0.930 . S
C1343 C1342 1.394 . S
C1343 C1344 1.383 . S
C1343 H1351 0.929 . S
C1344 C1343 1.383 . S
C1344 C1345 1.377 . S
C1345 H1329 0.930 . S
C1345 C1344 1.377 . S
C1345 C1346 1.379 . S
C1346 H1330 0.931 . S
C1346 C1340 1.383 . S
C1346 C1345 1.379 . S
H1347 C1341 0.959 . S
H1348 C1341 0.961 . S
H1349 C1341 0.960 . S
H1350 C1342 0.930 . S
H1351 C1343 0.929 . S
H1352 C1360 0.929 . S
H1353 C1362 0.930 . S
H1354 C1364 0.930 . S
H1355 C1367 0.929 . S
H1356 C1370 0.930 . S
H1357 C1372 0.960 . S
H1358 C1372 0.960 . S
H1359 C1372 0.960 . S
C1360 H1352 0.929 . S
C1360 C1361 1.377 . S
C1360 C1362 1.384 . S
C1361 C1360 1.377 . S
C1361 C1367 1.390 . S
C1362 H1353 0.930 . S
C1362 C1360 1.384 . S
C1362 C1363 1.372 . S
C1363 C1362 1.372 . S
C1363 C1364 1.400 . S
C1363 C1368 1.490 . S
C1364 H1354 0.930 . S
C1364 C1363 1.400 . S
C1364 C1367 1.386 . S
H1365 C1381 0.930 . S
H1366 C1382 0.931 . S
C1367 H1355 0.929 . S
C1367 C1361 1.390 . S
C1367 C1364 1.386 . S
C1368 C1363 1.490 . S
C1368 C1370 1.395 . S
C1368 C1371 1.403 . S
H1369 C1375 0.930 . S
C1370 H1356 0.930 . S
C1370 C1368 1.395 . S
C1370 C1373 1.403 . S
C1371 C1368 1.403 . S
C1371 C1372 1.524 . S
C1371 C1375 1.400 . S
C1372 H1357 0.960 . S
C1372 H1358 0.960 . S
C1372 H1359 0.960 . S
C1372 C1371 1.524 . S
C1373 C1370 1.403 . S
C1373 C1374 1.392 . S
C1373 C1377 1.495 . S
C1374 C1373 1.392 . S
C1374 C1375 1.385 . S
C1374 C1376 1.478 . S
C1375 H1369 0.930 . S
C1375 C1371 1.400 . S
C1375 C1374 1.385 . S
C1376 C1374 1.478 . S
C1376 C1378 1.381 . S
C1376 C1382 1.383 . S
C1377 C1373 1.495 . S
C1377 H1383 0.959 . S
C1377 H1384 0.961 . S
C1377 H1385 0.960 . S
C1378 C1376 1.381 . S
C1378 C1379 1.394 . S
C1378 H1386 0.930 . S
C1379 C1378 1.394 . S
C1379 C1380 1.383 . S
C1379 H1387 0.929 . S
C1380 C1379 1.383 . S
C1380 C1381 1.377 . S
C1381 H1365 0.930 . S
C1381 C1380 1.377 . S
C1381 C1382 1.379 . S
C1382 H1366 0.931 . S
C1382 C1376 1.383 . S
C1382 C1381 1.379 . S
H1383 C1377 0.959 . S
H1384 C1377 0.961 . S
H1385 C1377 0.960 . S
H1386 C1378 0.930 . S
H1387 C1379 0.929 . S
H1388 C1396 0.929 . S
H1389 C1398 0.930 . S
H1390 C1400 0.930 . S
H1391 C1403 0.929 . S
H1392 C1406 0.930 . S
H1393 C1408 0.960 . S
H1394 C1408 0.960 . S
H1395 C1408 0.960 . S
C1396 H1388 0.929 . S
C1396 C1397 1.377 . S
C1396 C1398 1.384 . S
C1397 C1396 1.377 . S
C1397 C1403 1.390 . S
C1398 H1389 0.930 . S
C1398 C1396 1.384 . S
C1398 C1399 1.372 . S
C1399 C1398 1.372 . S
C1399 C1400 1.400 . S
C1399 C1404 1.490 . S
C1400 H1390 0.930 . S
C1400 C1399 1.400 . S
C1400 C1403 1.386 . S
H1401 C1417 0.930 . S
H1402 C1418 0.931 . S
C1403 H1391 0.929 . S
C1403 C1397 1.390 . S
C1403 C1400 1.386 . S
C1404 C1399 1.490 . S
C1404 C1406 1.395 . S
C1404 C1407 1.403 1_455 S
H1405 C1411 0.965 . S
C1406 H1392 0.930 . S
C1406 C1404 1.395 . S
C1406 C1409 1.403 . S
C1407 C1404 1.403 1_655 S
C1407 C1408 1.524 . S
C1407 C1411 1.403 . S
C1408 H1393 0.960 . S
C1408 H1394 0.960 . S
C1408 H1395 0.960 . S
C1408 C1407 1.524 . S
C1409 C1406 1.403 . S
C1409 C1410 1.392 . S
C1409 C1413 1.495 . S
C1410 C1409 1.392 . S
C1410 C1411 1.352 1_455 S
C1410 C1412 1.478 . S
C1411 H1405 0.965 . S
C1411 C1407 1.403 . S
C1411 C1410 1.352 1_655 S
C1412 C1410 1.478 . S
C1412 C1414 1.381 . S
C1412 C1418 1.383 . S
C1413 C1409 1.495 . S
C1413 H1419 0.959 . S
C1413 H1420 0.961 . S
C1413 H1421 0.960 . S
C1414 C1412 1.381 . S
C1414 C1415 1.394 . S
C1414 H1422 0.942 . S
C1415 C1414 1.394 . S
C1415 C1416 1.383 . S
C1415 H1423 0.929 1_455 S
C1416 C1415 1.383 . S
C1416 C1417 1.377 . S
C1417 H1401 0.930 . S
C1417 C1416 1.377 . S
C1417 C1418 1.379 . S
C1418 H1402 0.931 . S
C1418 C1412 1.383 . S
C1418 C1417 1.379 . S
H1419 C1413 0.959 . S
H1420 C1413 0.961 . S
H1421 C1413 0.960 . S
H1422 C1414 0.942 . S
H1423 C1415 0.929 1_655 S
H1424 C1432 0.912 1_655 S
H1425 C1434 0.930 1_655 S
H1426 C1436 0.930 . S
H1427 C1439 0.929 . S
H1428 C1442 0.930 . S
H1429 C1444 0.960 . S
H1430 C1444 0.960 . S
H1431 C1444 0.960 . S
C1432 H1424 0.912 1_455 S
C1432 C1433 1.389 . S
C1432 C1434 1.390 . S
C1433 C1432 1.389 . S
C1433 C1439 1.390 . S
C1434 H1425 0.930 1_455 S
C1434 C1432 1.390 . S
C1434 C1435 1.372 . S
C1435 C1434 1.372 . S
C1435 C1436 1.400 . S
C1435 C1440 1.490 . S
C1436 H1426 0.930 . S
C1436 C1435 1.400 . S
C1436 C1439 1.386 . S
H1437 C1453 0.930 . S
H1438 C1454 0.931 . S
C1439 H1427 0.929 . S
C1439 C1433 1.390 . S
C1439 C1436 1.386 . S
C1440 C1435 1.490 . S
C1440 C1442 1.395 . S
C1440 C1443 1.403 . S
H1441 C1447 0.930 . S
C1442 H1428 0.930 . S
C1442 C1440 1.395 . S
C1442 C1445 1.403 . S
C1443 C1440 1.403 . S
C1443 C1444 1.524 1_455 S
C1443 C1447 1.400 . S
C1444 H1429 0.960 . S
C1444 H1430 0.960 . S
C1444 H1431 0.960 . S
C1444 C1443 1.524 1_655 S
C1445 C1442 1.403 . S
C1445 C1446 1.392 . S
C1445 C1449 1.495 . S
C1446 C1445 1.392 . S
C1446 C1447 1.385 . S
C1446 C1448 1.478 . S
C1447 H1441 0.930 . S
C1447 C1443 1.400 . S
C1447 C1446 1.385 . S
C1448 C1446 1.478 . S
C1448 C1450 1.381 . S
C1448 C1454 1.383 . S
C1449 C1445 1.495 . S
C1449 H1455 0.959 . S
C1449 H1456 0.961 . S
C1449 H1457 0.960 . S
C1450 C1448 1.381 . S
C1450 C1451 1.394 . S
C1450 H1458 0.930 . S
C1451 C1450 1.394 . S
C1451 C1452 1.383 . S
C1451 H1459 0.929 . S
C1452 C1451 1.383 . S
C1452 C1453 1.377 . S
C1453 H1437 0.930 . S
C1453 C1452 1.377 . S
C1453 C1454 1.379 . S
C1454 H1438 0.931 . S
C1454 C1448 1.383 . S
C1454 C1453 1.379 . S
H1455 C1449 0.959 . S
H1456 C1449 0.961 . S
H1457 C1449 0.960 . S
H1458 C1450 0.930 . S
H1459 C1451 0.929 . S
H1460 C1468 0.929 . S
H1461 C1470 0.930 . S
H1462 C1472 0.930 . S
H1463 C1475 0.929 . S
H1464 C1478 0.930 . S
H1465 C1480 0.960 . S
H1466 C1480 0.960 . S
H1467 C1480 0.960 . S
C1468 H1460 0.929 . S
C1468 C1469 1.377 1_455 S
C1468 C1470 1.384 . S
C1469 C1468 1.377 1_655 S
C1469 C1475 1.390 . S
C1470 H1461 0.930 . S
C1470 C1468 1.384 . S
C1470 C1471 1.372 . S
C1471 C1470 1.372 . S
C1471 C1472 1.400 1_455 S
C1471 C1476 1.490 . S
C1472 H1462 0.930 . S
C1472 C1471 1.400 1_655 S
C1472 C1475 1.386 . S
H1473 C1489 0.930 1_655 S
H1474 C1490 0.931 1_655 S
C1475 H1463 0.929 . S
C1475 C1469 1.390 . S
C1475 C1472 1.386 . S
C1476 C1471 1.490 . S
C1476 C1478 1.395 . S
C1476 C1479 1.403 1_455 S
H1477 C1483 0.930 . S
C1478 H1464 0.930 . S
C1478 C1476 1.395 . S
C1478 C1481 1.403 . S
C1479 C1476 1.403 1_655 S
C1479 C1480 1.524 . S
C1479 C1483 1.400 . S
C1480 H1465 0.960 . S
C1480 H1466 0.960 . S
C1480 H1467 0.960 . S
C1480 C1479 1.524 . S
C1481 C1478 1.403 . S
C1481 C1482 1.392 . S
C1481 C1485 1.495 . S
C1482 C1481 1.392 . S
C1482 C1483 1.385 1_455 S
C1482 C1484 1.478 . S
C1483 H1477 0.930 . S
C1483 C1479 1.400 . S
C1483 C1482 1.385 1_655 S
C1484 C1482 1.478 . S
C1484 C1486 1.381 . S
C1484 C1490 1.383 . S
C1485 C1481 1.495 . S
C1485 H1491 0.959 . S
C1485 H1492 0.961 . S
C1485 H1493 0.960 . S
C1486 C1484 1.381 . S
C1486 C1487 1.394 . S
C1486 H1494 0.930 . S
C1487 C1486 1.394 . S
C1487 C1488 1.383 . S
C1487 H1495 0.929 . S
C1488 C1487 1.383 . S
C1488 C1489 1.377 . S
C1489 H1473 0.930 1_455 S
C1489 C1488 1.377 . S
C1489 C1490 1.379 . S
C1490 H1474 0.931 1_455 S
C1490 C1484 1.383 . S
C1490 C1489 1.379 . S
H1491 C1485 0.959 . S
H1492 C1485 0.961 . S
H1493 C1485 0.960 . S
H1494 C1486 0.930 . S
H1495 C1487 0.929 . S
H1496 C1504 0.929 . S
H1497 C1506 0.930 . S
H1498 C1508 0.930 . S
H1499 C1511 0.929 . S
H1500 C1514 0.930 . S
H1501 C1516 0.960 . S
H1502 C1516 0.960 . S
H1503 C1516 0.960 . S
C1504 H1496 0.929 . S
C1504 C1505 1.377 . S
C1504 C1506 1.384 . S
C1505 C1504 1.377 . S
C1505 C1511 1.390 . S
C1506 H1497 0.930 . S
C1506 C1504 1.384 . S
C1506 C1507 1.372 . S
C1507 C1506 1.372 . S
C1507 C1508 1.400 . S
C1507 C1512 1.490 . S
C1508 H1498 0.930 . S
C1508 C1507 1.400 . S
C1508 C1511 1.386 . S
H1509 C1525 0.930 . S
H1510 C1526 0.931 . S
C1511 H1499 0.929 . S
C1511 C1505 1.390 . S
C1511 C1508 1.386 . S
C1512 C1507 1.490 . S
C1512 C1514 1.395 . S
C1512 C1515 1.403 . S
H1513 C1519 0.930 . S
C1514 H1500 0.930 . S
C1514 C1512 1.395 . S
C1514 C1517 1.403 . S
C1515 C1512 1.403 . S
C1515 C1516 1.524 . S
C1515 C1519 1.400 . S
C1516 H1501 0.960 . S
C1516 H1502 0.960 . S
C1516 H1503 0.960 . S
C1516 C1515 1.524 . S
C1517 C1514 1.403 . S
C1517 C1518 1.392 . S
C1517 C1521 1.495 . S
C1518 C1517 1.392 . S
C1518 C1519 1.385 . S
C1518 C1520 1.478 . S
C1519 H1513 0.930 . S
C1519 C1515 1.400 . S
C1519 C1518 1.385 . S
C1520 C1518 1.478 . S
C1520 C1522 1.381 . S
C1520 C1526 1.383 . S
C1521 C1517 1.495 . S
C1521 H1527 0.959 1_545 S
C1521 H1528 0.969 . S
C1521 H1529 0.960 . S
C1522 C1520 1.381 . S
C1522 C1523 1.394 . S
C1522 H1530 0.930 . S
C1523 C1522 1.394 . S
C1523 C1524 1.383 . S
C1523 H1531 0.929 . S
C1524 C1523 1.383 . S
C1524 C1525 1.377 . S
C1525 H1509 0.930 . S
C1525 C1524 1.377 . S
C1525 C1526 1.379 . S
C1526 H1510 0.931 . S
C1526 C1520 1.383 . S
C1526 C1525 1.379 . S
H1527 C1521 0.959 1_565 S
H1528 C1521 0.969 . S
H1529 C1521 0.960 . S
H1530 C1522 0.930 . S
H1531 C1523 0.929 . S
H1532 C1540 0.929 . S
H1533 C1542 0.930 . S
H1534 C1544 0.930 . S
H1535 C1547 0.929 . S
H1536 C1550 0.930 . S
H1537 C1552 0.960 . S
H1538 C1552 0.960 . S
H1539 C1552 0.960 . S
C1540 H1532 0.929 . S
C1540 C1541 1.377 . S
C1540 C1542 1.384 . S
C1541 C1540 1.377 . S
C1541 C1547 1.390 . S
C1542 H1533 0.930 . S
C1542 C1540 1.384 . S
C1542 C1543 1.372 . S
C1543 C1542 1.372 . S
C1543 C1544 1.400 . S
C1543 C1548 1.490 . S
C1544 H1534 0.930 . S
C1544 C1543 1.400 . S
C1544 C1547 1.386 . S
H1545 C1561 0.930 . S
H1546 C1562 0.931 . S
C1547 H1535 0.929 . S
C1547 C1541 1.390 . S
C1547 C1544 1.386 . S
C1548 C1543 1.490 . S
C1548 C1550 1.395 . S
C1548 C1551 1.403 . S
H1549 C1555 0.930 . S
C1550 H1536 0.930 . S
C1550 C1548 1.395 . S
C1550 C1553 1.403 . S
C1551 C1548 1.403 . S
C1551 C1552 1.524 . S
C1551 C1555 1.400 . S
C1552 H1537 0.960 . S
C1552 H1538 0.960 . S
C1552 H1539 0.960 . S
C1552 C1551 1.524 . S
C1553 C1550 1.403 . S
C1553 C1554 1.392 . S
C1553 C1557 1.495 . S
C1554 C1553 1.392 . S
C1554 C1555 1.385 . S
C1554 C1556 1.478 . S
C1555 H1549 0.930 . S
C1555 C1551 1.400 . S
C1555 C1554 1.385 . S
C1556 C1554 1.478 . S
C1556 C1558 1.381 . S
C1556 C1562 1.383 . S
C1557 C1553 1.495 . S
C1557 H1563 0.959 . S
C1557 H1564 0.961 . S
C1557 H1565 0.960 . S
C1558 C1556 1.381 . S
C1558 C1559 1.394 . S
C1558 H1566 0.930 . S
C1559 C1558 1.394 . S
C1559 C1560 1.383 . S
C1559 H1567 0.929 . S
C1560 C1559 1.383 . S
C1560 C1561 1.377 . S
C1561 H1545 0.930 . S
C1561 C1560 1.377 . S
C1561 C1562 1.379 . S
C1562 H1546 0.931 . S
C1562 C1556 1.383 . S
C1562 C1561 1.379 . S
H1563 C1557 0.959 . S
H1564 C1557 0.961 . S
H1565 C1557 0.960 . S
H1566 C1558 0.930 . S
H1567 C1559 0.929 . S
H1568 C1576 0.929 . S
H1569 C1578 0.930 . S
H1570 C1580 0.930 1_565 S
H1571 C1583 0.936 . S
H1572 C1586 0.930 . S
H1573 C1588 0.960 . S
H1574 C1588 0.960 . S
H1575 C1588 0.960 . S
C1576 H1568 0.929 . S
C1576 C1577 1.377 . S
C1576 C1578 1.384 . S
C1577 C1576 1.377 . S
C1577 C1583 1.385 1_545 S
C1578 H1569 0.930 . S
C1578 C1576 1.384 . S
C1578 C1579 1.372 . S
C1579 C1578 1.372 . S
C1579 C1580 1.400 . S
C1579 C1584 1.490 . S
C1580 H1570 0.930 1_545 S
C1580 C1579 1.400 . S
C1580 C1583 1.385 1_545 S
H1581 C1597 0.930 . S
H1582 C1598 0.931 1_565 S
C1583 H1571 0.936 . S
C1583 C1577 1.385 1_565 S
C1583 C1580 1.385 1_565 S
C1584 C1579 1.490 . S
C1584 C1586 1.395 1_545 S
C1584 C1587 1.403 . S
H1585 C1591 0.930 . S
C1586 H1572 0.930 . S
C1586 C1584 1.395 1_565 S
C1586 C1589 1.403 . S
C1587 C1584 1.403 . S
C1587 C1588 1.524 . S
C1587 C1591 1.400 . S
C1588 H1573 0.960 . S
C1588 H1574 0.960 . S
C1588 H1575 0.960 . S
C1588 C1587 1.524 . S
C1589 C1586 1.403 . S
C1589 C1590 1.392 1_565 S
C1589 C1593 1.495 . S
C1590 C1589 1.392 1_545 S
C1590 C1591 1.385 . S
C1590 C1592 1.478 . S
C1591 H1585 0.930 . S
C1591 C1587 1.400 . S
C1591 C1590 1.385 . S
C1592 C1590 1.478 . S
C1592 C1594 1.381 . S
C1592 C1598 1.383 . S
C1593 C1589 1.495 . S
C1593 H1599 0.959 . S
C1593 H1600 0.961 . S
C1593 H1601 0.960 . S
C1594 C1592 1.381 . S
C1594 C1595 1.394 . S
C1594 H1602 0.930 . S
C1595 C1594 1.394 . S
C1595 C1596 1.383 . S
C1595 H1603 0.929 . S
C1596 C1595 1.383 . S
C1596 C1597 1.377 . S
C1597 H1581 0.930 . S
C1597 C1596 1.377 . S
C1597 C1598 1.379 . S
C1598 H1582 0.931 1_545 S
C1598 C1592 1.383 . S
C1598 C1597 1.379 . S
H1599 C1593 0.959 . S
H1600 C1593 0.961 . S
H1601 C1593 0.960 . S
H1602 C1594 0.930 . S
H1603 C1595 0.929 . S
H1604 C1612 0.929 . S
H1605 C1614 0.930 . S
H1606 C1616 0.930 . S
H1607 C1619 0.929 . S
H1608 C1622 0.930 . S
H1609 C1624 0.960 . S
H1610 C1624 0.960 . S
H1611 C1624 0.960 . S
C1612 H1604 0.929 . S
C1612 C1613 1.377 . S
C1612 C1614 1.384 . S
C1613 C1612 1.377 . S
C1613 C1619 1.390 . S
C1614 H1605 0.930 . S
C1614 C1612 1.384 . S
C1614 C1615 1.372 . S
C1615 C1614 1.372 . S
C1615 C1616 1.400 . S
C1615 C1620 1.490 . S
C1616 H1606 0.930 . S
C1616 C1615 1.400 . S
C1616 C1619 1.386 . S
H1617 C1633 0.930 . S
H1618 C1634 0.931 . S
C1619 H1607 0.929 . S
C1619 C1613 1.390 . S
C1619 C1616 1.386 . S
C1620 C1615 1.490 . S
C1620 C1622 1.395 . S
C1620 C1623 1.403 . S
H1621 C1627 0.930 . S
C1622 H1608 0.930 . S
C1622 C1620 1.395 . S
C1622 C1625 1.403 . S
C1623 C1620 1.403 . S
C1623 C1624 1.524 . S
C1623 C1627 1.400 . S
C1624 H1609 0.960 . S
C1624 H1610 0.960 . S
C1624 H1611 0.960 . S
C1624 C1623 1.524 . S
C1625 C1622 1.403 . S
C1625 C1626 1.392 . S
C1625 C1629 1.495 . S
C1626 C1625 1.392 . S
C1626 C1627 1.385 . S
C1626 C1628 1.478 . S
C1627 H1621 0.930 . S
C1627 C1623 1.400 . S
C1627 C1626 1.385 . S
C1628 C1626 1.478 . S
C1628 C1630 1.381 . S
C1628 C1634 1.383 . S
C1629 C1625 1.495 . S
C1629 H1635 0.959 . S
C1629 H1636 0.961 . S
C1629 H1637 0.960 . S
C1630 C1628 1.381 . S
C1630 C1631 1.394 . S
C1630 H1638 0.930 . S
C1631 C1630 1.394 . S
C1631 C1632 1.383 . S
C1631 H1639 0.929 . S
C1632 C1631 1.383 . S
C1632 C1633 1.377 . S
C1633 H1617 0.930 . S
C1633 C1632 1.377 . S
C1633 C1634 1.379 . S
C1634 H1618 0.931 . S
C1634 C1628 1.383 . S
C1634 C1633 1.379 . S
H1635 C1629 0.959 . S
H1636 C1629 0.961 . S
H1637 C1629 0.960 . S
H1638 C1630 0.930 . S
H1639 C1631 0.929 . S
H1640 C1648 0.929 . S
H1641 C1650 0.930 . S
H1642 C1652 0.930 . S
H1643 C1655 0.929 . S
H1644 C1658 0.930 . S
H1645 C1660 0.960 . S
H1646 C1660 0.960 . S
H1647 C1660 0.960 . S
C1648 H1640 0.929 . S
C1648 C1649 1.377 1_556 S
C1648 C1650 1.384 . S
C1649 C1648 1.377 1_554 S
C1649 C1655 1.390 . S
C1650 H1641 0.930 . S
C1650 C1648 1.384 . S
C1650 C1651 1.372 1_556 S
C1651 C1650 1.372 1_554 S
C1651 C1652 1.400 . S
C1651 C1656 1.490 . S
C1652 H1642 0.930 . S
C1652 C1651 1.400 . S
C1652 C1655 1.386 . S
H1653 C1669 0.930 . S
H1654 C1670 0.931 . S
C1655 H1643 0.929 . S
C1655 C1649 1.390 . S
C1655 C1652 1.386 . S
C1656 C1651 1.490 . S
C1656 C1658 1.395 . S
C1656 C1659 1.403 . S
H1657 C1663 0.930 . S
C1658 H1644 0.930 . S
C1658 C1656 1.395 . S
C1658 C1661 1.403 . S
C1659 C1656 1.403 . S
C1659 C1660 1.524 . S
C1659 C1663 1.400 . S
C1660 H1645 0.960 . S
C1660 H1646 0.960 . S
C1660 H1647 0.960 . S
C1660 C1659 1.524 . S
C1661 C1658 1.403 . S
C1661 C1662 1.392 . S
C1661 C1665 1.495 . S
C1662 C1661 1.392 . S
C1662 C1663 1.385 . S
C1662 C1664 1.478 . S
C1663 H1657 0.930 . S
C1663 C1659 1.400 . S
C1663 C1662 1.385 . S
C1664 C1662 1.478 . S
C1664 C1666 1.381 . S
C1664 C1670 1.383 . S
C1665 C1661 1.495 . S
C1665 H1671 0.959 . S
C1665 H1672 0.961 . S
C1665 H1673 0.960 . S
C1666 C1664 1.381 . S
C1666 C1667 1.394 . S
C1666 H1674 0.930 1_554 S
C1667 C1666 1.394 . S
C1667 C1668 1.383 . S
C1667 H1675 0.929 1_554 S
C1668 C1667 1.383 . S
C1668 C1669 1.377 . S
C1669 H1653 0.930 . S
C1669 C1668 1.377 . S
C1669 C1670 1.379 . S
C1670 H1654 0.931 . S
C1670 C1664 1.383 . S
C1670 C1669 1.379 . S
H1671 C1665 0.959 . S
H1672 C1665 0.961 . S
H1673 C1665 0.960 . S
H1674 C1666 0.930 1_556 S
H1675 C1667 0.929 1_556 S
H1676 C1684 0.929 . S
H1677 C1686 0.930 . S
H1678 C1688 0.930 . S
H1679 C1691 0.929 . S
H1680 C1694 0.930 . S
H1681 C1696 0.960 . S
H1682 C1696 0.960 . S
H1683 C1696 0.960 . S
C1684 H1676 0.929 . S
C1684 C1685 1.377 . S
C1684 C1686 1.384 . S
C1685 C1684 1.377 . S
C1685 C1691 1.390 . S
C1686 H1677 0.930 . S
C1686 C1684 1.384 . S
C1686 C1687 1.372 . S
C1687 C1686 1.372 . S
C1687 C1688 1.400 . S
C1687 C1692 1.490 . S
C1688 H1678 0.930 . S
C1688 C1687 1.400 . S
C1688 C1691 1.386 . S
H1689 C1705 0.930 . S
H1690 C1706 0.931 . S
C1691 H1679 0.929 . S
C1691 C1685 1.390 . S
C1691 C1688 1.386 . S
C1692 C1687 1.490 . S
C1692 C1694 1.395 . S
C1692 C1695 1.403 . S
H1693 C1699 0.930 . S
C1694 H1680 0.930 . S
C1694 C1692 1.395 . S
C1694 C1697 1.403 . S
C1695 C1692 1.403 . S
C1695 C1696 1.524 . S
C1695 C1699 1.400 . S
C1696 H1681 0.960 . S
C1696 H1682 0.960 . S
C1696 H1683 0.960 . S
C1696 C1695 1.524 . S
C1697 C1694 1.403 . S
C1697 C1698 1.392 . S
C1697 C1701 1.495 . S
C1698 C1697 1.392 . S
C1698 C1699 1.385 . S
C1698 C1700 1.478 . S
C1699 H1693 0.930 . S
C1699 C1695 1.400 . S
C1699 C1698 1.385 . S
C1700 C1698 1.478 . S
C1700 C1702 1.381 . S
C1700 C1706 1.383 . S
C1701 C1697 1.495 . S
C1701 H1707 0.959 . S
C1701 H1708 0.961 . S
C1701 H1709 0.960 . S
C1702 C1700 1.381 . S
C1702 C1703 1.394 . S
C1702 H1710 0.930 . S
C1703 C1702 1.394 . S
C1703 C1704 1.383 . S
C1703 H1711 0.929 . S
C1704 C1703 1.383 . S
C1704 C1705 1.377 . S
C1705 H1689 0.930 . S
C1705 C1704 1.377 . S
C1705 C1706 1.379 . S
C1706 H1690 0.931 . S
C1706 C1700 1.383 . S
C1706 C1705 1.379 . S
H1707 C1701 0.959 . S
H1708 C1701 0.961 . S
H1709 C1701 0.960 . S
H1710 C1702 0.930 . S
H1711 C1703 0.929 . S
H1712 C1720 0.929 . S
H1713 C1722 0.930 . S
H1714 C1724 0.930 . S
H1715 C1727 0.929 . S
H1716 C1730 0.930 . S
H1717 C1732 0.960 . S
H1718 C1732 0.960 . S
H1719 C1732 0.960 . S
C1720 H1712 0.929 . S
C1720 C1721 1.377 . S
C1720 C1722 1.384 . S
C1721 C1720 1.377 . S
C1721 C1727 1.390 . S
C1722 H1713 0.930 . S
C1722 C1720 1.384 . S
C1722 C1723 1.372 . S
C1723 C1722 1.372 . S
C1723 C1724 1.400 . S
C1723 C1728 1.490 . S
C1724 H1714 0.930 . S
C1724 C1723 1.400 . S
C1724 C1727 1.386 . S
H1725 C1741 0.930 . S
H1726 C1742 0.931 . S
C1727 H1715 0.929 . S
C1727 C1721 1.390 . S
C1727 C1724 1.386 . S
C1728 C1723 1.490 . S
C1728 C1730 1.395 . S
C1728 C1731 1.403 . S
H1729 C1735 0.930 . S
C1730 H1716 0.930 . S
C1730 C1728 1.395 . S
C1730 C1733 1.403 . S
C1731 C1728 1.403 . S
C1731 C1732 1.524 . S
C1731 C1735 1.400 . S
C1732 H1717 0.960 . S
C1732 H1718 0.960 . S
C1732 H1719 0.960 . S
C1732 C1731 1.524 . S
C1733 C1730 1.403 . S
C1733 C1734 1.392 . S
C1733 C1737 1.495 . S
C1734 C1733 1.392 . S
C1734 C1735 1.385 . S
C1734 C1736 1.478 . S
C1735 H1729 0.930 . S
C1735 C1731 1.400 . S
C1735 C1734 1.385 . S
C1736 C1734 1.478 . S
C1736 C1738 1.381 . S
C1736 C1742 1.383 . S
C1737 C1733 1.495 . S
C1737 H1743 0.959 . S
C1737 H1744 0.961 . S
C1737 H1745 0.960 . S
C1738 C1736 1.381 . S
C1738 C1739 1.394 . S
C1738 H1746 0.930 . S
C1739 C1738 1.394 . S
C1739 C1740 1.383 . S
C1739 H1747 0.929 . S
C1740 C1739 1.383 . S
C1740 C1741 1.377 . S
C1741 H1725 0.930 . S
C1741 C1740 1.377 . S
C1741 C1742 1.379 . S
C1742 H1726 0.931 . S
C1742 C1736 1.383 . S
C1742 C1741 1.379 . S
H1743 C1737 0.959 . S
H1744 C1737 0.961 . S
H1745 C1737 0.960 . S
H1746 C1738 0.930 . S
H1747 C1739 0.929 . S
H1748 C1756 0.929 . S
H1749 C1758 0.930 . S
H1750 C1760 0.930 . S
H1751 C1763 0.929 . S
H1752 C1766 0.930 . S
H1753 C1768 0.960 . S
H1754 C1768 0.960 . S
H1755 C1768 0.960 . S
C1756 H1748 0.929 . S
C1756 C1757 1.377 . S
C1756 C1758 1.384 . S
C1757 C1756 1.377 . S
C1757 C1763 1.390 . S
C1758 H1749 0.930 . S
C1758 C1756 1.384 . S
C1758 C1759 1.372 . S
C1759 C1758 1.372 . S
C1759 C1760 1.400 . S
C1759 C1764 1.490 . S
C1760 H1750 0.930 . S
C1760 C1759 1.400 . S
C1760 C1763 1.386 . S
H1761 C1777 0.930 . S
H1762 C1778 0.931 . S
C1763 H1751 0.929 . S
C1763 C1757 1.390 . S
C1763 C1760 1.386 . S
C1764 C1759 1.490 . S
C1764 C1766 1.395 . S
C1764 C1767 1.403 . S
H1765 C1771 0.930 . S
C1766 H1752 0.930 . S
C1766 C1764 1.395 . S
C1766 C1769 1.403 . S
C1767 C1764 1.403 . S
C1767 C1768 1.524 . S
C1767 C1771 1.400 . S
C1768 H1753 0.960 . S
C1768 H1754 0.960 . S
C1768 H1755 0.960 . S
C1768 C1767 1.524 . S
C1769 C1766 1.403 . S
C1769 C1770 1.392 . S
C1769 C1773 1.495 . S
C1770 C1769 1.392 . S
C1770 C1771 1.385 . S
C1770 C1772 1.478 . S
C1771 H1765 0.930 . S
C1771 C1767 1.400 . S
C1771 C1770 1.385 . S
C1772 C1770 1.478 . S
C1772 C1774 1.381 . S
C1772 C1778 1.383 . S
C1773 C1769 1.495 . S
C1773 H1779 0.959 . S
C1773 H1780 0.961 . S
C1773 H1781 0.960 . S
C1774 C1772 1.381 . S
C1774 C1775 1.394 . S
C1774 H1782 0.930 . S
C1775 C1774 1.394 . S
C1775 C1776 1.383 . S
C1775 H1783 0.929 . S
C1776 C1775 1.383 . S
C1776 C1777 1.377 . S
C1777 H1761 0.930 . S
C1777 C1776 1.377 . S
C1777 C1778 1.379 . S
C1778 H1762 0.931 . S
C1778 C1772 1.383 . S
C1778 C1777 1.379 . S
H1779 C1773 0.959 . S
H1780 C1773 0.961 . S
H1781 C1773 0.960 . S
H1782 C1774 0.930 . S
H1783 C1775 0.929 . S
H1784 C1792 0.929 . S
H1785 C1794 0.930 . S
H1786 C1796 0.930 . S
H1787 C1799 0.929 . S
H1788 C1802 0.930 . S
H1789 C1804 0.960 . S
H1790 C1804 0.960 . S
H1791 C1804 0.960 . S
C1792 H1784 0.929 . S
C1792 C1793 1.377 . S
C1792 C1794 1.384 . S
C1793 C1792 1.377 . S
C1793 C1799 1.390 . S
C1794 H1785 0.930 . S
C1794 C1792 1.384 . S
C1794 C1795 1.372 . S
C1795 C1794 1.372 . S
C1795 C1796 1.400 . S
C1795 C1800 1.490 . S
C1796 H1786 0.930 . S
C1796 C1795 1.400 . S
C1796 C1799 1.386 . S
H1797 C1813 0.930 . S
H1798 C1814 0.931 . S
C1799 H1787 0.929 . S
C1799 C1793 1.390 . S
C1799 C1796 1.386 . S
C1800 C1795 1.490 . S
C1800 C1802 1.395 . S
C1800 C1803 1.403 . S
H1801 C1807 0.930 . S
C1802 H1788 0.930 . S
C1802 C1800 1.395 . S
C1802 C1805 1.403 . S
C1803 C1800 1.403 . S
C1803 C1804 1.524 . S
C1803 C1807 1.400 . S
C1804 H1789 0.960 . S
C1804 H1790 0.960 . S
C1804 H1791 0.960 . S
C1804 C1803 1.524 . S
C1805 C1802 1.403 . S
C1805 C1806 1.392 . S
C1805 C1809 1.495 . S
C1806 C1805 1.392 . S
C1806 C1807 1.385 . S
C1806 C1808 1.478 . S
C1807 H1801 0.930 . S
C1807 C1803 1.400 . S
C1807 C1806 1.385 . S
C1808 C1806 1.478 . S
C1808 C1810 1.381 . S
C1808 C1814 1.383 . S
C1809 C1805 1.495 . S
C1809 H1815 0.959 . S
C1809 H1816 0.961 . S
C1809 H1817 0.960 . S
C1810 C1808 1.381 . S
C1810 C1811 1.394 . S
C1810 H1818 0.930 . S
C1811 C1810 1.394 . S
C1811 C1812 1.383 . S
C1811 H1819 0.929 . S
C1812 C1811 1.383 . S
C1812 C1813 1.377 . S
C1813 H1797 0.930 . S
C1813 C1812 1.377 . S
C1813 C1814 1.379 . S
C1814 H1798 0.931 . S
C1814 C1808 1.383 . S
C1814 C1813 1.379 . S
H1815 C1809 0.959 . S
H1816 C1809 0.961 . S
H1817 C1809 0.960 . S
H1818 C1810 0.930 . S
H1819 C1811 0.929 . S
H1820 C1828 0.929 . S
H1821 C1830 0.930 . S
H1822 C1832 0.930 . S
H1823 C1835 0.929 . S
H1824 C1838 0.930 . S
H1825 C1840 0.960 . S
H1826 C1840 0.960 . S
H1827 C1840 0.960 . S
C1828 H1820 0.929 . S
C1828 C1829 1.377 . S
C1828 C1830 1.384 . S
C1829 C1828 1.377 . S
C1829 C1835 1.390 . S
C1830 H1821 0.930 . S
C1830 C1828 1.384 . S
C1830 C1831 1.372 . S
C1831 C1830 1.372 . S
C1831 C1832 1.400 . S
C1831 C1836 1.490 . S
C1832 H1822 0.930 . S
C1832 C1831 1.400 . S
C1832 C1835 1.386 . S
H1833 C1849 0.930 . S
H1834 C1850 0.931 . S
C1835 H1823 0.929 . S
C1835 C1829 1.390 . S
C1835 C1832 1.386 . S
C1836 C1831 1.490 . S
C1836 C1838 1.395 . S
C1836 C1839 1.403 . S
H1837 C1843 0.930 . S
C1838 H1824 0.930 . S
C1838 C1836 1.395 . S
C1838 C1841 1.403 . S
C1839 C1836 1.403 . S
C1839 C1840 1.524 . S
C1839 C1843 1.400 . S
C1840 H1825 0.960 . S
C1840 H1826 0.960 . S
C1840 H1827 0.960 . S
C1840 C1839 1.524 . S
C1841 C1838 1.403 . S
C1841 C1842 1.392 . S
C1841 C1845 1.495 . S
C1842 C1841 1.392 . S
C1842 C1843 1.385 . S
C1842 C1844 1.478 . S
C1843 H1837 0.930 . S
C1843 C1839 1.400 . S
C1843 C1842 1.385 . S
C1844 C1842 1.478 . S
C1844 C1846 1.381 . S
C1844 C1850 1.383 . S
C1845 C1841 1.495 . S
C1845 H1851 0.959 . S
C1845 H1852 0.961 . S
C1845 H1853 0.960 . S
C1846 C1844 1.381 . S
C1846 C1847 1.394 . S
C1846 H1854 0.930 . S
C1847 C1846 1.394 . S
C1847 C1848 1.383 . S
C1847 H1855 0.929 . S
C1848 C1847 1.383 . S
C1848 C1849 1.377 . S
C1849 H1833 0.930 . S
C1849 C1848 1.377 . S
C1849 C1850 1.379 . S
C1850 H1834 0.931 . S
C1850 C1844 1.383 . S
C1850 C1849 1.379 . S
H1851 C1845 0.959 . S
H1852 C1845 0.961 . S
H1853 C1845 0.960 . S
H1854 C1846 0.930 . S
H1855 C1847 0.929 . S
H1856 C1864 0.929 . S
H1857 C1866 0.930 . S
H1858 C1868 0.930 . S
H1859 C1871 0.929 . S
H1860 C1874 0.930 . S
H1861 C1876 0.960 . S
H1862 C1876 0.960 . S
H1863 C1876 0.960 . S
C1864 H1856 0.929 . S
C1864 C1865 1.377 . S
C1864 C1866 1.384 . S
C1865 C1864 1.377 . S
C1865 C1871 1.390 . S
C1866 H1857 0.930 . S
C1866 C1864 1.384 . S
C1866 C1867 1.372 . S
C1867 C1866 1.372 . S
C1867 C1868 1.400 . S
C1867 C1872 1.490 . S
C1868 H1858 0.930 . S
C1868 C1867 1.400 . S
C1868 C1871 1.386 . S
H1869 C1885 0.930 . S
H1870 C1886 0.931 . S
C1871 H1859 0.929 . S
C1871 C1865 1.390 . S
C1871 C1868 1.386 . S
C1872 C1867 1.490 . S
C1872 C1874 1.395 . S
C1872 C1875 1.403 . S
H1873 C1879 0.930 . S
C1874 H1860 0.930 . S
C1874 C1872 1.395 . S
C1874 C1877 1.403 . S
C1875 C1872 1.403 . S
C1875 C1876 1.524 . S
C1875 C1879 1.400 . S
C1876 H1861 0.960 . S
C1876 H1862 0.960 . S
C1876 H1863 0.960 . S
C1876 C1875 1.524 . S
C1877 C1874 1.403 . S
C1877 C1878 1.392 . S
C1877 C1881 1.495 . S
C1878 C1877 1.392 . S
C1878 C1879 1.385 . S
C1878 C1880 1.478 . S
C1879 H1873 0.930 . S
C1879 C1875 1.400 . S
C1879 C1878 1.385 . S
C1880 C1878 1.478 . S
C1880 C1882 1.381 . S
C1880 C1886 1.383 . S
C1881 C1877 1.495 . S
C1881 H1887 0.959 . S
C1881 H1888 0.961 . S
C1881 H1889 0.960 . S
C1882 C1880 1.381 . S
C1882 C1883 1.394 . S
C1882 H1890 0.930 . S
C1883 C1882 1.394 . S
C1883 C1884 1.383 . S
C1883 H1891 0.929 . S
C1884 C1883 1.383 . S
C1884 C1885 1.377 . S
C1885 H1869 0.930 . S
C1885 C1884 1.377 . S
C1885 C1886 1.379 . S
C1886 H1870 0.931 . S
C1886 C1880 1.383 . S
C1886 C1885 1.379 . S
H1887 C1881 0.959 . S
H1888 C1881 0.961 . S
H1889 C1881 0.960 . S
H1890 C1882 0.930 . S
H1891 C1883 0.929 . S
H1892 C1900 0.929 . S
H1893 C1902 0.930 . S
H1894 C1904 0.930 . S
H1895 C1907 0.929 . S
H1896 C1910 0.930 . S
H1897 C1912 0.960 . S
H1898 C1912 0.960 . S
H1899 C1912 0.960 . S
C1900 H1892 0.929 . S
C1900 C1901 1.377 . S
C1900 C1902 1.384 . S
C1901 C1900 1.377 . S
C1901 C1907 1.390 . S
C1902 H1893 0.930 . S
C1902 C1900 1.384 . S
C1902 C1903 1.372 . S
C1903 C1902 1.372 . S
C1903 C1904 1.400 . S
C1903 C1908 1.490 . S
C1904 H1894 0.930 . S
C1904 C1903 1.400 . S
C1904 C1907 1.386 . S
H1905 C1921 0.930 . S
H1906 C1922 0.931 . S
C1907 H1895 0.929 . S
C1907 C1901 1.390 . S
C1907 C1904 1.386 . S
C1908 C1903 1.490 . S
C1908 C1910 1.395 . S
C1908 C1911 1.403 . S
H1909 C1915 0.930 . S
C1910 H1896 0.930 . S
C1910 C1908 1.395 . S
C1910 C1913 1.403 . S
C1911 C1908 1.403 . S
C1911 C1912 1.524 . S
C1911 C1915 1.400 . S
C1912 H1897 0.960 . S
C1912 H1898 0.960 . S
C1912 H1899 0.960 . S
C1912 C1911 1.524 . S
C1913 C1910 1.403 . S
C1913 C1914 1.392 . S
C1913 C1917 1.495 . S
C1914 C1913 1.392 . S
C1914 C1915 1.385 . S
C1914 C1916 1.478 . S
C1915 H1909 0.930 . S
C1915 C1911 1.400 . S
C1915 C1914 1.385 . S
C1916 C1914 1.478 . S
C1916 C1918 1.381 . S
C1916 C1922 1.383 . S
C1917 C1913 1.495 . S
C1917 H1923 0.959 . S
C1917 H1924 0.961 . S
C1917 H1925 0.960 . S
C1918 C1916 1.381 . S
C1918 C1919 1.394 . S
C1918 H1926 0.930 . S
C1919 C1918 1.394 . S
C1919 C1920 1.383 . S
C1919 H1927 0.929 . S
C1920 C1919 1.383 . S
C1920 C1921 1.377 . S
C1921 H1905 0.930 . S
C1921 C1920 1.377 . S
C1921 C1922 1.379 . S
C1922 H1906 0.931 . S
C1922 C1916 1.383 . S
C1922 C1921 1.379 . S
H1923 C1917 0.959 . S
H1924 C1917 0.961 . S
H1925 C1917 0.960 . S
H1926 C1918 0.930 . S
H1927 C1919 0.929 . S
H1928 C1936 0.929 . S
H1929 C1938 0.930 . S
H1930 C1940 0.930 . S
H1931 C1943 0.929 . S
H1932 C1946 0.930 . S
H1933 C1948 0.960 . S
H1934 C1948 0.960 . S
H1935 C1948 0.960 . S
C1936 H1928 0.929 . S
C1936 C1937 1.377 . S
C1936 C1938 1.384 . S
C1937 C1936 1.377 . S
C1937 C1943 1.390 . S
C1938 H1929 0.930 . S
C1938 C1936 1.384 . S
C1938 C1939 1.372 . S
C1939 C1938 1.372 . S
C1939 C1940 1.400 . S
C1939 C1944 1.490 . S
C1940 H1930 0.930 . S
C1940 C1939 1.400 . S
C1940 C1943 1.386 . S
H1941 C1957 0.930 . S
H1942 C1958 0.931 . S
C1943 H1931 0.929 . S
C1943 C1937 1.390 . S
C1943 C1940 1.386 . S
C1944 C1939 1.490 . S
C1944 C1946 1.395 . S
C1944 C1947 1.403 . S
H1945 C1951 0.930 . S
C1946 H1932 0.930 . S
C1946 C1944 1.395 . S
C1946 C1949 1.403 . S
C1947 C1944 1.403 . S
C1947 C1948 1.524 . S
C1947 C1951 1.400 . S
C1948 H1933 0.960 . S
C1948 H1934 0.960 . S
C1948 H1935 0.960 . S
C1948 C1947 1.524 . S
C1949 C1946 1.403 . S
C1949 C1950 1.392 . S
C1949 C1953 1.495 . S
C1950 C1949 1.392 . S
C1950 C1951 1.385 . S
C1950 C1952 1.478 . S
C1951 H1945 0.930 . S
C1951 C1947 1.400 . S
C1951 C1950 1.385 . S
C1952 C1950 1.478 . S
C1952 C1954 1.381 . S
C1952 C1958 1.383 . S
C1953 C1949 1.495 . S
C1953 H1959 0.959 . S
C1953 H1960 0.961 . S
C1953 H1961 0.960 . S
C1954 C1952 1.381 . S
C1954 C1955 1.394 . S
C1954 H1962 0.930 . S
C1955 C1954 1.394 . S
C1955 C1956 1.383 . S
C1955 H1963 0.929 . S
C1956 C1955 1.383 . S
C1956 C1957 1.377 . S
C1957 H1941 0.930 . S
C1957 C1956 1.377 . S
C1957 C1958 1.379 . S
C1958 H1942 0.931 . S
C1958 C1952 1.383 . S
C1958 C1957 1.379 . S
H1959 C1953 0.959 . S
H1960 C1953 0.961 . S
H1961 C1953 0.960 . S
H1962 C1954 0.930 . S
H1963 C1955 0.929 . S
H1964 C1972 0.929 . S
H1965 C1974 0.930 . S
H1966 C1976 0.930 . S
H1967 C1979 0.929 . S
H1968 C1982 0.930 . S
H1969 C1984 0.960 . S
H1970 C1984 0.960 . S
H1971 C1984 0.960 . S
C1972 H1964 0.929 . S
C1972 C1973 1.377 . S
C1972 C1974 1.384 . S
C1973 C1972 1.377 . S
C1973 C1979 1.390 1_565 S
C1974 H1965 0.930 . S
C1974 C1972 1.384 . S
C1974 C1975 1.372 1_565 S
C1975 C1974 1.372 1_545 S
C1975 C1976 1.400 . S
C1975 C1980 1.490 . S
C1976 H1966 0.930 . S
C1976 C1975 1.400 . S
C1976 C1979 1.386 . S
H1977 C1993 0.930 . S
H1978 C1994 0.931 . S
C1979 H1967 0.929 . S
C1979 C1973 1.390 1_545 S
C1979 C1976 1.386 . S
C1980 C1975 1.490 . S
C1980 C1982 1.395 . S
C1980 C1983 1.403 . S
H1981 C1987 0.930 . S
C1982 H1968 0.930 . S
C1982 C1980 1.395 . S
C1982 C1985 1.403 . S
C1983 C1980 1.403 . S
C1983 C1984 1.524 . S
C1983 C1987 1.400 . S
C1984 H1969 0.960 . S
C1984 H1970 0.960 . S
C1984 H1971 0.960 . S
C1984 C1983 1.524 . S
C1985 C1982 1.403 . S
C1985 C1986 1.392 . S
C1985 C1989 1.495 . S
C1986 C1985 1.392 . S
C1986 C1987 1.385 . S
C1986 C1988 1.478 . S
C1987 H1981 0.930 . S
C1987 C1983 1.400 . S
C1987 C1986 1.385 . S
C1988 C1986 1.478 . S
C1988 C1990 1.381 . S
C1988 C1994 1.383 . S
C1989 C1985 1.495 . S
C1989 H1995 0.959 . S
C1989 H1996 0.961 . S
C1989 H1997 0.960 . S
C1990 C1988 1.381 . S
C1990 C1991 1.394 . S
C1990 H1998 0.930 . S
C1991 C1990 1.394 . S
C1991 C1992 1.383 . S
C1991 H1999 0.929 . S
C1992 C1991 1.383 . S
C1992 C1993 1.377 . S
C1993 H1977 0.930 . S
C1993 C1992 1.377 . S
C1993 C1994 1.379 . S
C1994 H1978 0.931 . S
C1994 C1988 1.383 . S
C1994 C1993 1.379 . S
H1995 C1989 0.959 . S
H1996 C1989 0.961 . S
H1997 C1989 0.960 . S
H1998 C1990 0.930 . S
H1999 C1991 0.929 . S
H2000 C2008 0.929 . S
H2001 C2010 0.930 . S
H2002 C2012 0.930 . S
H2003 C2015 0.929 . S
H2004 C2018 0.930 . S
H2005 C2020 0.960 . S
H2006 C2020 0.960 . S
H2007 C2020 0.960 . S
C2008 H2000 0.929 . S
C2008 C2009 1.377 . S
C2008 C2010 1.384 . S
C2009 C2008 1.377 . S
C2009 C2015 1.390 . S
C2010 H2001 0.930 . S
C2010 C2008 1.384 . S
C2010 C2011 1.372 . S
C2011 C2010 1.372 . S
C2011 C2012 1.400 . S
C2011 C2016 1.490 . S
C2012 H2002 0.930 . S
C2012 C2011 1.400 . S
C2012 C2015 1.386 . S
H2013 C2029 0.930 . S
H2014 C2030 0.931 . S
C2015 H2003 0.929 . S
C2015 C2009 1.390 . S
C2015 C2012 1.386 . S
C2016 C2011 1.490 . S
C2016 C2018 1.395 . S
C2016 C2019 1.403 . S
H2017 C2023 0.930 . S
C2018 H2004 0.930 . S
C2018 C2016 1.395 . S
C2018 C2021 1.403 . S
C2019 C2016 1.403 . S
C2019 C2020 1.524 . S
C2019 C2023 1.400 . S
C2020 H2005 0.960 . S
C2020 H2006 0.960 . S
C2020 H2007 0.960 . S
C2020 C2019 1.524 . S
C2021 C2018 1.403 . S
C2021 C2022 1.392 . S
C2021 C2025 1.495 . S
C2022 C2021 1.392 . S
C2022 C2023 1.385 . S
C2022 C2024 1.478 . S
C2023 H2017 0.930 . S
C2023 C2019 1.400 . S
C2023 C2022 1.385 . S
C2024 C2022 1.478 . S
C2024 C2026 1.381 . S
C2024 C2030 1.383 . S
C2025 C2021 1.495 . S
C2025 H2031 0.959 . S
C2025 H2032 0.961 . S
C2025 H2033 0.960 . S
C2026 C2024 1.381 . S
C2026 C2027 1.394 . S
C2026 H2034 0.930 . S
C2027 C2026 1.394 . S
C2027 C2028 1.383 . S
C2027 H2035 0.929 . S
C2028 C2027 1.383 . S
C2028 C2029 1.377 . S
C2029 H2013 0.930 . S
C2029 C2028 1.377 . S
C2029 C2030 1.379 . S
C2030 H2014 0.931 . S
C2030 C2024 1.383 . S
C2030 C2029 1.379 . S
H2031 C2025 0.959 . S
H2032 C2025 0.961 . S
H2033 C2025 0.960 . S
H2034 C2026 0.930 . S
H2035 C2027 0.929 . S
H2036 C2044 0.929 . S
H2037 C2046 0.930 . S
H2038 C2048 0.930 . S
H2039 C2051 0.929 . S
H2040 C2054 0.930 . S
H2041 C2056 0.960 . S
H2042 C2056 0.960 . S
H2043 C2056 0.960 1_545 S
C2044 H2036 0.929 . S
C2044 C2045 1.377 1_565 S
C2044 C2046 1.384 . S
C2045 C2044 1.377 1_545 S
C2045 C2051 1.390 . S
C2046 H2037 0.930 . S
C2046 C2044 1.384 . S
C2046 C2047 1.372 1_565 S
C2047 C2046 1.372 1_545 S
C2047 C2048 1.400 . S
C2047 C2052 1.490 . S
C2048 H2038 0.930 . S
C2048 C2047 1.400 . S
C2048 C2051 1.386 . S
H2049 C2065 0.930 1_554 S
H2050 C2066 0.931 . S
C2051 H2039 0.929 . S
C2051 C2045 1.390 . S
C2051 C2048 1.386 . S
C2052 C2047 1.490 . S
C2052 C2054 1.395 . S
C2052 C2055 1.403 . S
H2053 C2059 0.931 1_565 S
C2054 H2040 0.930 . S
C2054 C2052 1.395 . S
C2054 C2057 1.403 . S
C2055 C2052 1.403 . S
C2055 C2056 1.524 1_545 S
C2055 C2059 1.400 . S
C2056 H2041 0.960 . S
C2056 H2042 0.960 . S
C2056 H2043 0.960 1_565 S
C2056 C2055 1.524 1_565 S
C2057 C2054 1.403 . S
C2057 C2058 1.392 . S
C2057 C2061 1.495 . S
C2058 C2057 1.392 . S
C2058 C2059 1.385 . S
C2058 C2060 1.478 . S
C2059 H2053 0.931 1_545 S
C2059 C2055 1.400 . S
C2059 C2058 1.385 . S
C2060 C2058 1.478 . S
C2060 C2062 1.381 1_545 S
C2060 C2066 1.383 . S
C2061 C2057 1.495 . S
C2061 H2067 0.959 . S
C2061 H2068 0.961 . S
C2061 H2069 0.964 1_545 S
C2062 C2060 1.381 1_565 S
C2062 C2063 1.394 . S
C2062 H2070 0.930 . S
C2063 C2062 1.394 . S
C2063 C2064 1.383 1_565 S
C2063 H2071 0.929 . S
C2064 C2063 1.383 1_545 S
C2064 C2065 1.377 . S
C2065 H2049 0.930 1_556 S
C2065 C2064 1.377 . S
C2065 C2066 1.379 . S
C2066 H2050 0.931 . S
C2066 C2060 1.383 . S
C2066 C2065 1.379 . S
H2067 C2061 0.959 . S
H2068 C2061 0.961 . S
H2069 C2061 0.964 1_565 S
H2070 C2062 0.930 . S
H2071 C2063 0.929 . S
H2072 C2080 0.929 . S
H2073 C2082 0.930 . S
H2074 C2084 0.930 . S
H2075 C2087 0.929 . S
H2076 C2090 0.930 . S
H2077 C2092 0.960 . S
H2078 C2092 0.960 . S
H2079 C2092 0.960 . S
C2080 H2072 0.929 . S
C2080 C2081 1.377 . S
C2080 C2082 1.384 . S
C2081 C2080 1.377 . S
C2081 C2087 1.390 . S
C2082 H2073 0.930 . S
C2082 C2080 1.384 . S
C2082 C2083 1.372 . S
C2083 C2082 1.372 . S
C2083 C2084 1.400 . S
C2083 C2088 1.490 . S
C2084 H2074 0.930 . S
C2084 C2083 1.400 . S
C2084 C2087 1.386 . S
H2085 C2101 0.930 . S
H2086 C2102 0.931 . S
C2087 H2075 0.929 . S
C2087 C2081 1.390 . S
C2087 C2084 1.386 . S
C2088 C2083 1.490 . S
C2088 C2090 1.395 . S
C2088 C2091 1.403 . S
H2089 C2095 0.930 . S
C2090 H2076 0.930 . S
C2090 C2088 1.395 . S
C2090 C2093 1.403 . S
C2091 C2088 1.403 . S
C2091 C2092 1.524 . S
C2091 C2095 1.400 . S
C2092 H2077 0.960 . S
C2092 H2078 0.960 . S
C2092 H2079 0.960 . S
C2092 C2091 1.524 . S
C2093 C2090 1.403 . S
C2093 C2094 1.392 . S
C2093 C2097 1.495 . S
C2094 C2093 1.392 . S
C2094 C2095 1.385 . S
C2094 C2096 1.478 . S
C2095 H2089 0.930 . S
C2095 C2091 1.400 . S
C2095 C2094 1.385 . S
C2096 C2094 1.478 . S
C2096 C2098 1.381 . S
C2096 C2102 1.383 . S
C2097 C2093 1.495 . S
C2097 H2103 0.959 . S
C2097 H2104 0.961 . S
C2097 H2105 0.960 . S
C2098 C2096 1.381 . S
C2098 C2099 1.394 . S
C2098 H2106 0.930 . S
C2099 C2098 1.394 . S
C2099 C2100 1.383 . S
C2099 H2107 0.929 . S
C2100 C2099 1.383 . S
C2100 C2101 1.377 . S
C2101 H2085 0.930 . S
C2101 C2100 1.377 . S
C2101 C2102 1.379 . S
C2102 H2086 0.931 . S
C2102 C2096 1.383 . S
C2102 C2101 1.379 . S
H2103 C2097 0.959 . S
H2104 C2097 0.961 . S
H2105 C2097 0.960 . S
H2106 C2098 0.930 . S
H2107 C2099 0.929 . S
H2108 C2116 0.929 . S
H2109 C2118 0.930 . S
H2110 C2120 0.930 . S
H2111 C2123 0.929 . S
H2112 C2126 0.930 . S
H2113 C2128 0.960 . S
H2114 C2128 0.960 . S
H2115 C2128 0.960 . S
C2116 H2108 0.929 . S
C2116 C2117 1.377 1_554 S
C2116 C2118 1.384 . S
C2117 C2116 1.377 1_556 S
C2117 C2123 1.390 . S
C2118 H2109 0.930 . S
C2118 C2116 1.384 . S
C2118 C2119 1.372 . S
C2119 C2118 1.372 . S
C2119 C2120 1.400 1_554 S
C2119 C2124 1.490 . S
C2120 H2110 0.930 . S
C2120 C2119 1.400 1_556 S
C2120 C2123 1.386 . S
H2121 C2137 0.910 1_556 S
H2122 C2138 0.931 . S
C2123 H2111 0.929 . S
C2123 C2117 1.390 . S
C2123 C2120 1.386 . S
C2124 C2119 1.490 . S
C2124 C2126 1.394 1_554 S
C2124 C2127 1.403 . S
H2125 C2131 0.930 . S
C2126 H2112 0.930 . S
C2126 C2124 1.394 1_556 S
C2126 C2129 1.403 1_556 S
C2127 C2124 1.403 . S
C2127 C2128 1.524 . S
C2127 C2131 1.400 . S
C2128 H2113 0.960 . S
C2128 H2114 0.960 . S
C2128 H2115 0.960 . S
C2128 C2127 1.524 . S
C2129 C2126 1.403 1_554 S
C2129 C2130 1.392 . S
C2129 C2133 1.495 1_554 S
C2130 C2129 1.392 . S
C2130 C2131 1.385 . S
C2130 C2132 1.478 . S
C2131 H2125 0.930 . S
C2131 C2127 1.400 . S
C2131 C2130 1.385 . S
C2132 C2130 1.478 . S
C2132 C2134 1.381 . S
C2132 C2138 1.383 1_554 S
C2133 C2129 1.495 1_556 S
C2133 H2139 0.959 . S
C2133 H2140 0.961 . S
C2133 H2141 0.960 1_556 S
C2134 C2132 1.381 . S
C2134 C2135 1.394 . S
C2134 H2142 0.930 . S
C2135 C2134 1.394 . S
C2135 C2136 1.383 . S
C2135 H2143 0.929 . S
C2136 C2135 1.383 . S
C2136 C2137 1.400 . S
C2137 H2121 0.910 1_554 S
C2137 C2136 1.400 . S
C2137 C2138 1.376 1_554 S
C2138 H2122 0.931 . S
C2138 C2132 1.383 1_556 S
C2138 C2137 1.376 1_556 S
H2139 C2133 0.959 . S
H2140 C2133 0.961 . S
H2141 C2133 0.960 1_554 S
H2142 C2134 0.930 . S
H2143 C2135 0.929 . S
H2144 C2152 0.929 . S
H2145 C2154 0.930 . S
H2146 C2156 0.930 . S
H2147 C2159 0.929 . S
H2148 C2162 0.930 . S
H2149 C2164 0.960 . S
H2150 C2164 0.960 . S
H2151 C2164 0.960 . S
C2152 H2144 0.929 . S
C2152 C2153 1.377 1_554 S
C2152 C2154 1.384 . S
C2153 C2152 1.377 1_556 S
C2153 C2159 1.390 . S
C2154 H2145 0.930 . S
C2154 C2152 1.384 . S
C2154 C2155 1.401 . S
C2155 C2154 1.401 . S
C2155 C2156 1.365 1_554 S
C2155 C2160 1.496 . S
C2156 H2146 0.930 . S
C2156 C2155 1.365 1_556 S
C2156 C2159 1.386 . S
H2157 C2173 0.930 . S
H2158 C2174 0.931 . S
C2159 H2147 0.929 . S
C2159 C2153 1.390 . S
C2159 C2156 1.386 . S
C2160 C2155 1.496 . S
C2160 C2162 1.395 . S
C2160 C2163 1.403 1_554 S
H2161 C2167 0.949 . S
C2162 H2148 0.930 . S
C2162 C2160 1.395 . S
C2162 C2165 1.403 . S
C2163 C2160 1.403 1_556 S
C2163 C2164 1.524 . S
C2163 C2167 1.409 . S
C2164 H2149 0.960 . S
C2164 H2150 0.960 . S
C2164 H2151 0.960 . S
C2164 C2163 1.524 . S
C2165 C2162 1.403 . S
C2165 C2166 1.392 . S
C2165 C2169 1.495 . S
C2166 C2165 1.392 . S
C2166 C2167 1.360 1_554 S
C2166 C2168 1.478 . S
C2167 H2161 0.949 . S
C2167 C2163 1.409 . S
C2167 C2166 1.360 1_556 S
C2168 C2166 1.478 . S
C2168 C2170 1.381 . S
C2168 C2174 1.383 1_554 S
C2169 C2165 1.495 . S
C2169 H2175 0.959 . S
C2169 H2176 0.961 . S
C2169 H2177 0.960 . S
C2170 C2168 1.381 . S
C2170 C2171 1.394 . S
C2170 H2178 0.930 . S
C2171 C2170 1.394 . S
C2171 C2172 1.383 . S
C2171 H2179 0.929 . S
C2172 C2171 1.383 . S
C2172 C2173 1.377 1_554 S
C2173 H2157 0.930 . S
C2173 C2172 1.377 1_556 S
C2173 C2174 1.379 . S
C2174 H2158 0.931 . S
C2174 C2168 1.383 1_556 S
C2174 C2173 1.379 . S
H2175 C2169 0.959 . S
H2176 C2169 0.961 . S
H2177 C2169 0.960 . S
H2178 C2170 0.930 . S
H2179 C2171 0.929 . S
H2180 C2188 0.899 1_556 S
H2181 C2190 0.930 . S
H2182 C2192 0.930 . S
H2183 C2195 0.929 . S
H2184 C2198 0.947 . S
H2185 C2200 0.960 . S
H2186 C2200 0.960 . S
H2187 C2200 0.960 . S
C2188 H2180 0.899 1_554 S
C2188 C2189 1.389 . S
C2188 C2190 1.404 . S
C2189 C2188 1.389 . S
C2189 C2195 1.390 . S
C2190 H2181 0.930 . S
C2190 C2188 1.404 . S
C2190 C2191 1.372 . S
C2191 C2190 1.372 . S
C2191 C2192 1.400 . S
C2191 C2196 1.490 . S
C2192 H2182 0.930 . S
C2192 C2191 1.400 . S
C2192 C2195 1.386 . S
H2193 C2209 0.930 . S
H2194 C2210 0.931 . S
C2195 H2183 0.929 . S
C2195 C2189 1.390 . S
C2195 C2192 1.386 . S
C2196 C2191 1.490 . S
C2196 C2198 1.395 . S
C2196 C2199 1.403 . S
H2197 C2203 0.930 . S
C2198 H2184 0.947 . S
C2198 C2196 1.395 . S
C2198 C2201 1.403 . S
C2199 C2196 1.403 . S
C2199 C2200 1.524 . S
C2199 C2203 1.400 . S
C2200 H2185 0.960 . S
C2200 H2186 0.960 . S
C2200 H2187 0.960 . S
C2200 C2199 1.524 . S
C2201 C2198 1.403 . S
C2201 C2202 1.392 . S
C2201 C2205 1.495 . S
C2202 C2201 1.392 . S
C2202 C2203 1.385 . S
C2202 C2204 1.478 . S
C2203 H2197 0.930 . S
C2203 C2199 1.400 . S
C2203 C2202 1.385 . S
C2204 C2202 1.478 . S
C2204 C2206 1.381 . S
C2204 C2210 1.383 . S
C2205 C2201 1.495 . S
C2205 H2211 0.959 1_554 S
C2205 H2212 0.961 . S
C2205 H2213 0.960 . S
C2206 C2204 1.381 . S
C2206 C2207 1.394 . S
C2206 H2214 0.930 . S
C2207 C2206 1.394 . S
C2207 C2208 1.383 . S
C2207 H2215 0.929 1_655 S
C2208 C2207 1.383 . S
C2208 C2209 1.377 . S
C2209 H2193 0.930 . S
C2209 C2208 1.377 . S
C2209 C2210 1.379 . S
C2210 H2194 0.931 . S
C2210 C2204 1.383 . S
C2210 C2209 1.379 . S
H2211 C2205 0.959 1_556 S
H2212 C2205 0.961 . S
H2213 C2205 0.960 . S
H2214 C2206 0.930 . S
H2215 C2207 0.929 1_455 S
C497 C13 2.391 . S
C516 C267 2.248 . S
C552 C296 2.982 . S
C533 C1 2.981 . S
C588 C173 1.078 . S
C569 C27 1.090 . S
C605 C15 1.667 . S
C624 C217 1.655 . S
C641 C28 3.287 . S
C660 C467 3.191 . S
C677 C55 1.592 . S
C696 C413 1.604 . S
C732 C346 2.621 . S
C713 C40 2.698 . S
C749 C43 0.741 . S
C768 C376 0.737 . S
C804 C223 1.531 . S
C785 C56 1.574 . S
C840 C293 2.307 . S
C821 C83 2.299 . S
C857 C96 1.852 . S
C876 C256 1.856 . S
C893 C71 1.808 . S
C912 C387 1.774 . S
C948 C427 2.424 . S
C929 C99 2.581 . S
C984 C456 2.711 . S
C965 C111 2.706 . S
C1001 C113 1.084 . S
C1020 C373 1.077 . S
C1056 C337 1.877 . S
C1037 C125 1.885 . S
C1073 C139 3.007 . S
C1092 C307 2.924 . S
C1109 C153 1.470 . S
C1128 C253 1.494 . S
C1164 C226 2.708 . S
C1145 C127 2.803 . S
C1181 C141 0.994 . S
C1200 C176 0.949 . S
C1236 C343 1.539 . S
C1217 C84 1.538 . S
C1272 C453 2.177 . S
C1253 C154 2.168 . S
C1289 C68 1.566 . S
C1308 C416 1.567 . S
C1325 C166 1.776 . S
C1344 C187 1.721 . S
C1380 C186 1.227 . S
C1361 C0 1.266 . S
C1397 C12 2.028 . S
C1416 C216 1.874 1_455 S
C1452 C263 0.766 . S
C1433 C14 0.900 . S
C1488 C297 1.767 . S
C1469 C26 1.791 . S
C1505 C41 1.880 . S
C1524 C177 1.850 . S
C1541 C42 1.546 . S
C1560 C213 1.435 . S
C1596 C266 0.812 . S
C1577 C29 0.970 . S
C1613 C54 0.665 . S
C1632 C303 0.734 . S
C1649 C69 1.159 . S
C1668 C183 1.039 . S
C1704 C257 2.398 . S
C1685 C70 2.456 . S
C1721 C85 1.914 . S
C1740 C306 1.727 . S
C1757 C82 0.663 . S
C1776 C347 0.747 . S
C1812 C386 1.078 . S
C1793 C110 1.156 . S
C1829 C98 2.072 . S
C1848 C336 1.894 . S
C1865 C124 1.000 . S
C1884 C423 0.920 . S
C1901 C112 1.832 . S
C1920 C457 1.784 . S
C1937 C126 2.075 . S
C1956 C377 2.044 . S
C1992 C333 1.412 . S
C1973 C140 1.509 . S
C2009 C138 0.855 . S
C2028 C426 0.733 . S
C2064 C463 0.552 . S
C2045 C152 0.553 . S
C2100 C383 1.050 . S
C2081 C97 1.110 . S
C2136 C417 2.455 . S
C2117 C167 2.527 . S
C2172 C466 1.606 . S
C2153 C57 1.762 . S
C2189 C155 0.513 . S
C2208 C227 0.569 . S
