# Generated by pormake.
# Topology ssa, (4,4)-cn, num edge types: 1
# Building blocks:
#     Node 0, Type 0, BuildingBlock: KOZSID_clean_sbu_0, # of connection points: 4
#     Node 1, Type 0, BuildingBlock: KOZSID_clean_sbu_0, # of connection points: 4
#     Node 2, Type 0, BuildingBlock: KOZSID_clean_sbu_0, # of connection points: 4
#     Node 3, Type 0, BuildingBlock: KOZSID_clean_sbu_0, # of connection points: 4
#     Node 4, Type 0, BuildingBlock: KOZSID_clean_sbu_0, # of connection points: 4
#     Node 5, Type 0, BuildingBlock: KOZSID_clean_sbu_0, # of connection points: 4
#     Node 6, Type 1, BuildingBlock: ESEHIV_clean_sbu_0, # of connection points: 4
#     Node 7, Type 1, BuildingBlock: ESEHIV_clean_sbu_0, # of connection points: 4
#     Node 8, Type 1, BuildingBlock: ESEHIV_clean_sbu_0, # of connection points: 4
#     Node 9, Type 1, BuildingBlock: ESEHIV_clean_sbu_0, # of connection points: 4
#     Node 10, Type 1, BuildingBlock: ESEHIV_clean_sbu_0, # of connection points: 4
#     Node 11, Type 1, BuildingBlock: ESEHIV_clean_sbu_0, # of connection points: 4
#     Edge 12, Type (0, 1), BuildingBlock: KIFKEQ_clean_linker_1, # of connection points: 2
#     Edge 13, Type (0, 1), BuildingBlock: KIFKEQ_clean_linker_1, # of connection points: 2
#     Edge 14, Type (0, 1), BuildingBlock: KIFKEQ_clean_linker_1, # of connection points: 2
#     Edge 15, Type (0, 1), BuildingBlock: KIFKEQ_clean_linker_1, # of connection points: 2
#     Edge 16, Type (0, 1), BuildingBlock: KIFKEQ_clean_linker_1, # of connection points: 2
#     Edge 17, Type (0, 1), BuildingBlock: KIFKEQ_clean_linker_1, # of connection points: 2
#     Edge 18, Type (0, 1), BuildingBlock: KIFKEQ_clean_linker_1, # of connection points: 2
#     Edge 19, Type (0, 1), BuildingBlock: KIFKEQ_clean_linker_1, # of connection points: 2
#     Edge 20, Type (0, 1), BuildingBlock: KIFKEQ_clean_linker_1, # of connection points: 2
#     Edge 21, Type (0, 1), BuildingBlock: KIFKEQ_clean_linker_1, # of connection points: 2
#     Edge 22, Type (0, 1), BuildingBlock: KIFKEQ_clean_linker_1, # of connection points: 2
#     Edge 23, Type (0, 1), BuildingBlock: KIFKEQ_clean_linker_1, # of connection points: 2
#     Edge 24, Type (0, 1), BuildingBlock: KIFKEQ_clean_linker_1, # of connection points: 2
#     Edge 25, Type (0, 1), BuildingBlock: KIFKEQ_clean_linker_1, # of connection points: 2
#     Edge 26, Type (0, 1), BuildingBlock: KIFKEQ_clean_linker_1, # of connection points: 2
#     Edge 27, Type (0, 1), BuildingBlock: KIFKEQ_clean_linker_1, # of connection points: 2
#     Edge 28, Type (0, 1), BuildingBlock: KIFKEQ_clean_linker_1, # of connection points: 2
#     Edge 29, Type (0, 1), BuildingBlock: KIFKEQ_clean_linker_1, # of connection points: 2
#     Edge 30, Type (0, 1), BuildingBlock: KIFKEQ_clean_linker_1, # of connection points: 2
#     Edge 31, Type (0, 1), BuildingBlock: KIFKEQ_clean_linker_1, # of connection points: 2
#     Edge 32, Type (0, 1), BuildingBlock: KIFKEQ_clean_linker_1, # of connection points: 2
#     Edge 33, Type (0, 1), BuildingBlock: KIFKEQ_clean_linker_1, # of connection points: 2
#     Edge 34, Type (0, 1), BuildingBlock: KIFKEQ_clean_linker_1, # of connection points: 2
#     Edge 35, Type (0, 1), BuildingBlock: KIFKEQ_clean_linker_1, # of connection points: 2
# Relax obj value: 0.019
# Max RMSD: 0.096
# Mean RMSD: 0.055
data_MOF--net-ssa--node1-KOZSID_clean_sbu_0--node2-ESEHIV_clean_sbu_0--edge1-KIFKEQ_clean_linker_1
_symmetry_space_group_name_H-M    P1
_symmetry_Int_Tables_number       1
_symmetry_cell_setting            triclinic
loop_
_symmetry_equiv_pos_as_xyz
'x, y, z'
_cell_length_a     54.618901
_cell_length_b     55.893805
_cell_length_c     41.078459
_cell_angle_alpha  87.538693
_cell_angle_beta   89.940589
_cell_angle_gamma 122.31462
loop_
_atom_site_label
_atom_site_type_symbol
_atom_site_fract_x
_atom_site_fract_y
_atom_site_fract_z
_atom_type_partial_charge
C0 C 0.95334 0.50061 1.00694 0.0
C1 C 0.9262 0.48892 0.0218 0.0
C2 C 0.92729 0.47809 0.0518 0.0
C3 C 0.95486 0.48353 0.05359 0.0
N4 N 0.97165 0.49748 0.02669 0.0
Co5 Co 0.01262 0.50753 0.01889 0.0
N6 N 0.01436 0.49189 0.06335 0.0
C7 C 0.99296 0.48028 0.08654 0.0
C8 C 1.00033 0.47244 0.11511 0.0
C9 C 0.02832 0.47986 0.11017 0.0
C10 C 0.03658 0.49198 0.07873 0.0
N11 N 0.05319 0.51663 0.01063 0.0
C12 C 0.07164 0.51373 0.03041 0.0
C13 C 0.09811 0.52374 0.01458 0.0
C14 C 0.0964 0.53316 0.98399 0.0
C15 C 0.06914 0.52856 0.98272 0.0
N16 N 0.01134 0.52423 0.97496 0.0
C17 C 0.03334 0.53737 0.95255 0.0
C18 C 0.02667 0.54701 0.92482 0.0
C19 C 0.99867 0.53956 0.9297 0.0
C20 C 0.98968 0.52554 0.96017 0.0
N21 N 0.02826 0.54497 0.03776 0.0
C22 C 0.05468 0.59579 0.07081 0.0
C23 C 0.06743 0.59368 0.04242 0.0
C24 C 0.05377 0.56841 0.02618 0.0
C25 C 0.02743 0.57265 0.08085 0.0
C26 C 0.01479 0.54767 0.06423 0.0
N27 N 0.99677 0.46998 1.00006 0.0
C28 C 0.98975 0.4425 0.95311 0.0
C29 C 0.96688 0.41809 0.96913 0.0
C30 C 0.9608 0.41967 1.00173 0.0
C31 C 0.97603 0.44554 0.01666 0.0
C32 C 1.00442 0.46796 0.96898 0.0
H33 H 0.97003 0.44534 0.04136 0.0
H34 H 0.0212 0.4859 0.95521 0.0
H35 H 0.06474 0.5681 1.00492 0.0
H36 H 0.99446 0.53061 0.07384 0.0
C37 C 0.96599 0.47664 0.08051 0.0
C38 C 0.9603 0.5138 0.97375 0.0
C39 C 0.06573 0.50299 0.06469 0.0
C40 C 0.05914 0.53821 0.9572 0.0
H41 H 0.90743 0.48809 0.01187 0.0
H42 H 0.90999 0.46742 0.07011 0.0
H43 H 0.98696 0.46254 0.137 0.0
H44 H 0.04117 0.47671 0.12779 0.0
H45 H 0.1171 0.52495 0.02439 0.0
H46 H 0.11344 0.54327 0.96534 0.0
H47 H 0.04034 0.55766 0.9033 0.0
H48 H 0.98616 0.54371 0.91258 0.0
H49 H 0.08848 0.61095 0.0334 0.0
H50 H 0.01608 0.57345 0.102 0.0
H51 H 0.99549 0.4424 0.92789 0.0
H52 H 0.94389 0.40112 0.01553 0.0
C53 C 0.56062 0.01174 0.56546 0.0
C54 C 0.56243 0.99875 0.59408 0.0
C55 C 0.53531 0.97567 0.60092 0.0
C56 C 0.51862 0.97592 0.57615 0.0
N57 N 0.53358 0.99736 0.55347 0.0
Co58 Co 0.51762 0.00725 0.51492 0.0
N59 N 0.47698 0.97597 0.52754 0.0
C60 C 0.4684 0.95747 0.55369 0.0
C61 C 0.43932 0.93726 0.55483 0.0
C62 C 0.42877 0.94278 0.52736 0.0
C63 C 0.45213 0.96619 0.51108 0.0
N64 N 0.50169 0.01746 0.47664 0.0
C65 C 0.47442 1.00386 0.46536 0.0
C66 C 0.47252 0.0175 0.43736 0.0
C67 C 0.4998 0.04021 0.43022 0.0
C68 C 0.51666 0.03915 0.45424 0.0
N69 N 0.55829 0.03833 0.50214 0.0
C70 C 0.56703 0.05621 0.47537 0.0
C71 C 0.59616 0.07625 0.4741 0.0
C72 C 0.60657 0.0713 0.50207 0.0
C73 C 0.58306 0.0484 0.51882 0.0
N74 N 0.52148 0.98012 0.48763 0.0
C75 C 0.52461 0.94094 0.44755 0.0
C76 C 0.53335 0.96843 0.4358 0.0
C77 C 0.53168 0.98734 0.45589 0.0
C78 C 0.51422 0.93365 0.48003 0.0
C79 C 0.51292 0.95327 0.49936 0.0
N80 N 0.51367 0.0343 0.54212 0.0
C81 C 0.52298 0.08141 0.55034 0.0
C82 C 0.51024 0.07346 0.58184 0.0
C83 C 0.49907 0.0452 0.5927 0.0
C84 C 0.50102 0.0263 0.57281 0.0
C85 C 0.52438 0.06182 0.53119 0.0
H86 H 0.49223 1.00527 0.5829 0.0
H87 H 0.53456 0.06956 0.50765 0.0
H88 H 0.53857 0.00771 0.445 0.0
H89 H 0.50482 0.94616 0.52379 0.0
C90 C 0.48851 0.95822 0.57527 0.0
C91 C 0.58465 0.03867 0.55176 0.0
C92 C 0.45026 0.97693 0.47884 0.0
C93 C 0.54688 0.05609 0.45436 0.0
H94 H 0.58122 1.00586 0.60899 0.0
H95 H 0.5283 0.96122 0.62221 0.0
H96 H 0.42743 0.91986 0.57275 0.0
H97 H 0.40659 0.93033 0.51965 0.0
H98 H 0.45354 0.01104 0.423 0.0
H99 H 0.50676 0.05493 0.40919 0.0
H100 H 0.60811 0.09344 0.45595 0.0
H101 H 0.62869 0.08393 0.5099 0.0
H102 H 0.54117 0.97542 0.41085 0.0
H103 H 0.50749 0.91296 0.49087 0.0
H104 H 0.53245 0.10293 0.54047 0.0
H105 H 0.48849 0.03736 0.61648 0.0
C106 C 0.57093 0.54781 0.96338 0.0
C107 C 0.57401 0.55302 0.92961 0.0
C108 C 0.54724 0.54399 0.9178 0.0
C109 C 0.52879 0.53208 0.94429 0.0
N110 N 0.54228 0.53311 0.97223 0.0
Co111 Co 0.52182 0.5066 0.01053 0.0
N112 N 0.48431 0.50128 0.99823 0.0
C113 C 0.47725 0.50578 0.96836 0.0
C114 C 0.44966 0.50059 0.96749 0.0
C115 C 0.43881 0.49227 0.99896 0.0
C116 C 0.46053 0.49289 0.01715 0.0
N117 N 0.50074 0.47963 0.04803 0.0
C118 C 0.47557 0.47284 0.06299 0.0
C119 C 0.46891 0.45377 0.08935 0.0
C120 C 0.49062 0.44829 0.09041 0.0
C121 C 0.50931 0.46442 0.06487 0.0
N122 N 0.5593 0.51146 0.02324 0.0
C123 C 0.56101 0.49152 0.04099 0.0
C124 C 0.58747 0.49461 0.03839 0.0
C125 C 0.60345 0.51782 0.01765 0.0
C126 C 0.58649 0.529 0.00998 0.0
N127 N 0.52915 0.53831 0.03751 0.0
C128 C 0.53297 0.57954 0.07925 0.0
C129 C 0.53977 0.55953 0.09 0.0
C130 C 0.53784 0.53937 0.06895 0.0
C131 C 0.5248 0.57854 0.04656 0.0
C132 C 0.52318 0.55803 0.02622 0.0
N133 N 0.51443 0.47462 0.98333 0.0
C134 C 0.53288 0.45624 0.94436 0.0
C135 C 0.50566 0.43141 0.94157 0.0
C136 C 0.48285 0.42827 0.96133 0.0
C137 C 0.48769 0.45005 0.98199 0.0
C138 C 0.53668 0.47724 0.96474 0.0
H139 H 0.46972 0.44717 0.99655 0.0
H140 H 0.55801 0.49578 0.9648 0.0
H141 H 0.54266 0.52407 0.07843 0.0
H142 H 0.51649 0.55774 1.00143 0.0
C143 C 0.4986 0.51895 0.94364 0.0
C144 C 0.59477 0.55263 0.98526 0.0
C145 C 0.45734 0.4833 0.05152 0.0
C146 C 0.53717 0.46996 0.05947 0.0
H147 H 0.59293 0.56024 0.91416 0.0
H148 H 0.54171 0.54444 0.89258 0.0
H149 H 0.43907 0.50349 0.94681 0.0
H150 H 0.41739 0.4862 1.00749 0.0
H151 H 0.45048 0.44485 0.10614 0.0
H152 H 0.49314 0.43521 0.10857 0.0
H153 H 0.59384 0.48065 0.04871 0.0
H154 H 0.62413 0.52356 1.00715 0.0
H155 H 0.54591 0.55884 0.11489 0.0
H156 H 0.51981 0.59363 0.03653 0.0
H157 H 0.55159 0.45973 0.93073 0.0
H158 H 0.4613 0.4095 0.96033 0.0
C159 C 0.95639 0.46047 0.53072 0.0
C160 C 0.92944 0.44377 0.51716 0.0
C161 C 0.93091 0.45588 0.48705 0.0
C162 C 0.95855 0.47924 0.48381 0.0
N163 N 0.97496 0.48274 0.50994 0.0
Co164 Co 0.01631 0.51468 0.51504 0.0
N165 N 0.01707 0.53467 0.47271 0.0
C166 C 0.99444 0.52638 0.45287 0.0
C167 C 1.00113 0.54359 0.42523 0.0
C168 C 0.02982 0.56406 0.42736 0.0
C169 C 0.03912 0.55822 0.45634 0.0
N170 N 0.05811 0.54587 0.51934 0.0
C171 C 0.07679 0.56767 0.49808 0.0
C172 C 0.10447 0.58305 0.51029 0.0
C173 C 0.10349 0.57032 0.5398 0.0
C174 C 0.07538 0.54796 0.54405 0.0
N175 N 0.01507 0.49549 0.55818 0.0
C176 C 0.0371 0.50473 0.5791 0.0
C177 C 0.02979 0.4885 0.60766 0.0
C178 C 1.00118 0.46793 0.60519 0.0
C179 C 0.99256 0.47279 0.57517 0.0
N180 N 0.02983 0.49305 0.49185 0.0
C181 C 0.05539 0.46941 0.4559 0.0
C182 C 0.06091 0.4745 0.48897 0.0
C183 C 0.04817 0.48633 0.50624 0.0
C184 C 0.0354 0.47484 0.44182 0.0
C185 C 0.02267 0.48608 0.46017 0.0
N186 N 1.00281 0.53619 0.53838 0.0
C187 C 1.00499 0.56194 0.58531 0.0
C188 C 0.97803 0.55806 0.57851 0.0
C189 C 0.96477 0.54479 0.54991 0.0
C190 C 0.97756 0.53437 0.53023 0.0
C191 C 0.01694 0.55105 0.56503 0.0
H192 H 0.96609 0.52407 0.5091 0.0
H193 H 0.03725 0.55424 0.57192 0.0
H194 H 0.05401 0.49032 0.53104 0.0
H195 H 1.00766 0.48962 0.44784 0.0
C196 C 0.96842 0.50032 0.45875 0.0
C197 C 0.9627 0.45524 0.5641 0.0
C198 C 0.06949 0.57472 0.46616 0.0
C199 C 0.06443 0.52866 0.57101 0.0
H200 H 0.91034 0.42529 0.52827 0.0
H201 H 0.91346 0.44919 0.47017 0.0
H202 H 0.98717 0.54083 0.40516 0.0
H203 H 0.04263 0.58079 0.40903 0.0
H204 H 0.12348 0.60147 0.49891 0.0
H205 H 0.12124 0.57649 0.55611 0.0
H206 H 0.04357 0.49144 0.62799 0.0
H207 H 0.98807 0.45132 0.62355 0.0
H208 H 0.07534 0.46977 0.50161 0.0
H209 H 0.03016 0.47142 0.41636 0.0
H210 H 0.01669 0.57292 0.60653 0.0
H211 H 0.94395 0.54129 0.5433 0.0
C212 C 0.47995 0.98836 0.07242 0.0
C213 C 0.47805 0.9976 0.10262 0.0
C214 C 0.49981 0.02545 0.10314 0.0
C215 C 0.51387 0.03174 0.07342 0.0
N216 N 0.50243 0.00961 0.05381 0.0
Co217 Co 0.51739 0.01001 0.00877 0.0
N218 N 0.55051 0.05062 0.01044 0.0
C219 C 0.55731 0.06701 0.0363 0.0
C220 C 0.58109 0.09389 0.03078 0.0
C221 C 0.59003 0.09485 0.99944 0.0
C222 C 0.57104 0.06843 0.98745 0.0
N223 N 0.53168 0.01077 0.96323 0.0
C224 C 0.55351 0.03235 0.94427 0.0
C225 C 0.55448 0.02369 0.91338 0.0
C226 C 0.53269 0.99584 0.91271 0.0
C227 C 0.51949 0.98905 0.943 0.0
N228 N 0.48483 0.9691 1.00753 0.0
C229 C 0.47951 0.95199 0.98267 0.0
C230 C 0.45657 0.92475 0.98876 0.0
C231 C 0.44678 0.92422 0.01953 0.0
C232 C 0.46444 0.95127 0.03067 0.0
N233 N 0.49251 0.02272 0.99002 0.0
C234 C 0.46441 0.04588 0.95656 0.0
C235 C 0.46156 0.02092 0.94695 0.0
C236 C 0.47531 0.00953 0.96422 0.0
C237 C 0.47984 0.05802 0.98453 0.0
C238 C 0.49368 0.04618 1.00079 0.0
N239 N 0.54224 0.99709 0.02743 0.0
C240 C 0.55928 0.96513 0.02631 0.0
C241 C 0.56799 0.97028 0.05856 0.0
C242 C 0.56605 0.99111 0.07385 0.0
C243 C 0.55361 1.00446 0.05776 0.0
C244 C 0.5465 0.97854 0.01142 0.0
H245 H 0.55256 0.01994 0.07084 0.0
H246 H 0.53947 0.97278 0.98729 0.0
H247 H 0.47237 0.9905 0.95565 0.0
H248 H 0.50595 0.05686 0.02135 0.0
C249 C 0.53946 0.05734 0.06435 0.0
C250 C 0.46066 0.95888 0.06331 0.0
C251 C 0.5735 0.06147 0.95403 0.0
C252 C 0.49594 0.96238 0.95353 0.0
H253 H 0.46299 0.98532 0.12264 0.0
H254 H 0.50533 0.03923 0.12323 0.0
H255 H 0.5904 0.111 0.04733 0.0
H256 H 0.60829 0.11305 0.98673 0.0
H257 H 0.56925 0.03627 0.89326 0.0
H258 H 0.52702 0.98221 0.89245 0.0
H259 H 0.44791 0.90734 0.97266 0.0
H260 H 0.42865 0.90595 0.03229 0.0
H261 H 0.44922 0.0105 0.92578 0.0
H262 H 0.4824 0.07734 0.99292 0.0
H263 H 0.56142 0.95011 0.01279 0.0
H264 H 0.57276 0.99624 0.0987 0.0
C265 C 0.53866 0.5742 0.52169 0.0
C266 C 0.53524 0.59355 0.53786 0.0
C267 C 0.5158 0.57867 0.56299 0.0
C268 C 0.50856 0.55124 0.56065 0.0
N269 N 0.52273 0.54781 0.5361 0.0
Co270 Co 0.51692 0.51129 0.52194 0.0
N271 N 0.48573 0.48872 0.55627 0.0
C272 C 0.47588 0.49895 0.57859 0.0
C273 C 0.45592 0.47862 0.60053 0.0
C274 C 0.45329 0.45399 0.5922 0.0
C275 C 0.47178 0.46075 0.56542 0.0
N276 N 0.51061 0.47474 0.50716 0.0
C277 C 0.49361 0.44802 0.52038 0.0
C278 C 0.4957 0.42856 0.50267 0.0
C279 C 0.51537 0.44366 0.47783 0.0
C280 C 0.52397 0.47131 0.4817 0.0
N281 N 0.54859 0.53381 0.48819 0.0
C282 C 0.55965 0.52379 0.46717 0.0
C283 C 0.58058 0.54428 0.44614 0.0
C284 C 0.58261 0.56879 0.45376 0.0
C285 C 0.56272 0.56176 0.47912 0.0
N286 N 0.54647 0.51417 0.55374 0.0
C287 C 0.5871 0.51652 0.5998 0.0
C288 C 0.58562 0.50715 0.56824 0.0
C289 C 0.56553 0.50623 0.54593 0.0
C290 C 0.56776 0.52489 0.60743 0.0
C291 C 0.54793 0.5235 0.58449 0.0
N292 N 0.48742 0.50855 0.4902 0.0
C293 C 0.46988 0.50408 0.43485 0.0
C294 C 0.44714 0.50733 0.44443 0.0
C295 C 0.4452 0.51118 0.47768 0.0
C296 C 0.46522 0.5117 0.49979 0.0
C297 C 0.48939 0.50467 0.45774 0.0
H298 H 0.46233 0.51476 0.52462 0.0
H299 H 0.50613 0.50217 0.4485 0.0
H300 H 0.56565 0.49872 0.52252 0.0
H301 H 0.53387 0.53003 0.59233 0.0
C302 C 0.48712 0.52797 0.57956 0.0
C303 C 0.55578 0.58153 0.49157 0.0
C304 C 0.47695 0.44039 0.55091 0.0
C305 C 0.547 0.49469 0.46458 0.0
H306 H 0.5451 0.6159 0.53145 0.0
H307 H 0.50714 0.58668 0.58011 0.0
H308 H 0.44535 0.48153 0.6209 0.0
H309 H 0.43994 0.43359 0.60505 0.0
H310 H 0.48493 0.40595 0.50796 0.0
H311 H 0.52346 0.43561 0.46005 0.0
H312 H 0.59178 0.54147 0.42636 0.0
H313 H 0.59624 0.58921 0.44104 0.0
H314 H 0.59954 0.49998 0.56071 0.0
H315 H 0.56796 0.53286 0.63104 0.0
H316 H 0.47306 0.50146 0.40955 0.0
H317 H 0.42798 0.51337 0.48695 0.0
Cu318 Cu 0.24629 0.47475 0.24528 0.0
N319 N 0.25617 0.45633 0.21571 0.0
N320 N 0.28394 0.44975 0.18175 0.0
C321 C 0.28224 0.46817 0.20041 0.0
C322 C 0.25775 0.42534 0.18542 0.0
C323 C 0.24073 0.42942 0.20648 0.0
O324 O 0.2809 0.49449 0.2741 0.0
C325 C 0.20676 0.47605 0.20373 0.0
O326 O 0.1979 0.44912 0.20757 0.0
H327 H 0.29966 0.48992 0.20316 0.0
H328 H 0.21884 0.41373 0.21486 0.0
N329 N 0.21537 0.44908 0.27346 0.0
N330 N 0.17858 0.43429 0.30919 0.0
C331 C 0.19758 0.45535 0.28813 0.0
C332 C 0.20714 0.42293 0.28546 0.0
C333 C 0.18455 0.41384 0.3078 0.0
C334 C 0.28792 0.47751 0.28667 0.0
O335 O 0.27238 0.45095 0.27881 0.0
H336 H 0.19926 0.47546 0.28429 0.0
H337 H 0.21715 0.41147 0.279 0.0
O338 O 0.22983 0.49382 0.21857 0.0
H339 H 0.25156 0.40568 0.17444 0.0
H340 H 0.17349 0.39391 0.32204 0.0
Cu341 Cu 0.78049 0.2409 0.7505 0.0
N342 N 0.77365 0.21432 0.71982 0.0
N343 N 0.74979 0.1801 0.6847 0.0
C344 C 0.74755 0.1932 0.71041 0.0
C345 C 0.77848 0.19366 0.67766 0.0
C346 C 0.79307 0.21484 0.69916 0.0
O347 O 0.74452 0.22305 0.77899 0.0
C348 C 0.81778 0.30104 0.7296 0.0
O349 O 0.82821 0.30424 0.75894 0.0
H350 H 0.72727 0.18859 0.72111 0.0
H351 H 0.81611 0.23039 0.69869 0.0
N352 N 0.81028 0.24637 0.7779 0.0
N353 N 0.84199 0.26518 0.81794 0.0
C354 C 0.81653 0.25974 0.80602 0.0
C355 C 0.83197 0.2422 0.77233 0.0
C356 C 0.85154 0.25377 0.79693 0.0
C357 C 0.73761 0.19903 0.79267 0.0
O358 O 0.75467 0.18969 0.78695 0.0
H359 H 0.80337 0.26683 0.8163 0.0
H360 H 0.83432 0.23282 0.75107 0.0
O361 O 0.79537 0.27697 0.72309 0.0
H362 H 0.78827 0.18913 0.6579 0.0
H363 H 0.87213 0.25532 0.79792 0.0
Cu364 Cu 0.5625 0.7744 0.26969 0.0
N365 N 0.58695 0.8048 0.24064 0.0
N366 N 0.59937 0.84007 0.20341 0.0
C367 C 0.57802 0.81938 0.22298 0.0
C368 C 0.62284 0.83851 0.20915 0.0
C369 C 0.61508 0.81666 0.23213 0.0
O370 O 0.54166 0.78862 0.29536 0.0
C371 C 0.56146 0.73519 0.22923 0.0
O372 O 0.5889 0.75225 0.23583 0.0
H373 H 0.55618 0.8149 0.22486 0.0
H374 H 0.6289 0.80975 0.24156 0.0
N375 N 0.58355 0.76723 0.30013 0.0
N376 N 0.59227 0.74311 0.33817 0.0
C377 C 0.57286 0.74245 0.31732 0.0
C378 C 0.61074 0.78425 0.31037 0.0
C379 C 0.61616 0.76943 0.33394 0.0
C380 C 0.55919 0.81191 0.30908 0.0
O381 O 0.58704 0.82264 0.30447 0.0
H382 H 0.551 0.72447 0.31495 0.0
H383 H 0.62553 0.80596 0.30163 0.0
O384 O 0.54325 0.74014 0.2423 0.0
H385 H 0.6439 0.85176 0.19718 0.0
H386 H 0.63617 0.77735 0.34676 0.0
Cu387 Cu 0.79018 0.55934 0.79776 0.0
N388 N 0.82274 0.58191 0.77037 0.0
N389 N 0.85881 0.59291 0.73478 0.0
C390 C 0.83733 0.57247 0.75458 0.0
C391 C 0.85753 0.61616 0.73835 0.0
C392 C 0.83522 0.60928 0.76022 0.0
O393 O 0.80045 0.53495 0.82394 0.0
C394 C 0.72999 0.52756 0.77148 0.0
O395 O 0.71969 0.51618 0.80082 0.0
H396 H 0.83155 0.55068 0.75687 0.0
H397 H 0.82825 0.62309 0.76767 0.0
N398 N 0.78561 0.58235 0.8264 0.0
N399 N 0.76602 0.59763 0.86158 0.0
C400 C 0.761 0.57714 0.84122 0.0
C401 C 0.80681 0.60713 0.83772 0.0
C402 C 0.79486 0.61649 0.85946 0.0
C403 C 0.82399 0.54811 0.83994 0.0
O404 O 0.83883 0.5759 0.8387 0.0
H405 H 0.7399 0.55838 0.83785 0.0
H406 H 0.82952 0.61763 0.8309 0.0
O407 O 0.75748 0.54329 0.76663 0.0
H408 H 0.87155 0.63668 0.72597 0.0
H409 H 0.80646 0.63577 0.87253 0.0
Cu410 Cu 0.25336 0.7865 0.2706 0.0
N411 N 0.22385 0.78073 0.24271 0.0
N412 N 0.18728 0.75723 0.20899 0.0
C413 C 0.20767 0.75675 0.227 0.0
C414 C 0.191 0.78277 0.21334 0.0
C415 C 0.21358 0.79723 0.23424 0.0
O416 O 0.23567 0.75021 0.29839 0.0
C417 C 0.29528 0.82404 0.22435 0.0
O418 O 0.2793 0.83479 0.22859 0.0
H419 H 0.21103 0.73935 0.22878 0.0
H420 H 0.22181 0.81822 0.24264 0.0
N421 N 0.26226 0.81516 0.29897 0.0
N422 N 0.28763 0.84853 0.33445 0.0
C423 C 0.28738 0.82978 0.31456 0.0
C424 C 0.24592 0.8249 0.30931 0.0
C425 C 0.26157 0.84558 0.33113 0.0
C426 C 0.21105 0.74264 0.31175 0.0
O427 O 0.2013 0.7594 0.30649 0.0
H428 H 0.30514 0.82668 0.31121 0.0
H429 H 0.224 0.81719 0.30206 0.0
O430 O 0.28865 0.80142 0.24147 0.0
H431 H 0.17805 0.7903 0.20271 0.0
H432 H 0.25402 0.85697 0.34414 0.0
Cu433 Cu 0.46293 0.23558 0.75095 0.0
N434 N 0.44022 0.2431 0.72336 0.0
N435 N 0.42898 0.26556 0.6856 0.0
C436 C 0.44969 0.26141 0.69711 0.0
C437 C 0.4052 0.24819 0.70463 0.0
C438 C 0.41218 0.23436 0.72777 0.0
O439 O 0.48516 0.26867 0.77926 0.0
C440 C 0.49609 0.20998 0.7302 0.0
O441 O 0.5047 0.21143 0.76031 0.0
H442 H 0.47204 0.2732 0.68841 0.0
H443 H 0.39808 0.21993 0.74732 0.0
N444 N 0.43806 0.2065 0.7811 0.0
N445 N 0.42218 0.17054 0.81822 0.0
C446 C 0.43786 0.18296 0.79031 0.0
C447 C 0.42168 0.20876 0.80375 0.0
C448 C 0.41184 0.18663 0.82666 0.0
C449 C 0.48932 0.29328 0.77295 0.0
O450 O 0.48555 0.29982 0.74315 0.0
H451 H 0.45089 0.17641 0.77854 0.0
H452 H 0.41895 0.22651 0.80485 0.0
O453 O 0.48141 0.22105 0.7224 0.0
H454 H 0.38451 0.24637 0.70288 0.0
H455 H 0.39958 0.18359 0.84885 0.0
H456 H 0.09317 0.53111 0.11994 0.0
H457 H 0.08992 0.47171 0.05406 0.0
H458 H 0.12888 0.52744 0.15258 0.0
H459 H 0.12608 0.46864 0.08555 0.0
H460 H 0.16152 0.44041 0.167 0.0
H461 H 0.12979 0.44861 0.13468 0.0
H462 H 0.1779 0.53655 0.15845 0.0
H463 H 0.21006 0.52795 0.19237 0.0
C464 C 0.10025 0.51739 0.11232 0.0
C465 C 0.08849 0.50159 0.0844 0.0
C466 C 0.12097 0.51545 0.1309 0.0
C467 C 0.13057 0.49753 0.12221 0.0
C468 C 0.11909 0.48225 0.09378 0.0
C469 C 0.09839 0.48413 0.07539 0.0
C470 C 0.16576 0.46171 0.16555 0.0
C471 C 0.18881 0.48349 0.18262 0.0
C472 C 0.1474 0.46648 0.14646 0.0
C473 C 0.15107 0.49337 0.14319 0.0
C474 C 0.1741 0.51544 0.16027 0.0
C475 C 0.19278 0.5106 0.17962 0.0
H476 H 0.63985 0.05009 0.55072 0.0
H477 H 0.58343 0.06973 0.5998 0.0
H478 H 0.68009 0.08285 0.58435 0.0
H479 H 0.62353 0.10287 0.63318 0.0
H480 H 0.75093 0.1692 0.62109 0.0
H481 H 0.71098 0.13357 0.59024 0.0
H482 H 0.65511 0.1054 0.67632 0.0
H483 H 0.6952 0.14116 0.70727 0.0
C484 C 0.63621 0.0615 0.5688 0.0
C485 C 0.60885 0.05772 0.57274 0.0
C486 C 0.65916 0.08032 0.58792 0.0
C487 C 0.65509 0.0956 0.61141 0.0
C488 C 0.62738 0.09124 0.61563 0.0
C489 C 0.60448 0.07244 0.59648 0.0
C490 C 0.7303 0.1552 0.63363 0.0
C491 C 0.72635 0.15816 0.66673 0.0
C492 C 0.70732 0.13471 0.61589 0.0
C493 C 0.67979 0.11661 0.63076 0.0
C494 C 0.67591 0.11928 0.66397 0.0
C495 C 0.69891 0.1398 0.68173 0.0
H496 H 0.57134 0.60622 0.1285 0.0
H497 H 0.49873 0.60269 0.08197 0.0
H498 H 0.57471 0.64091 0.16478 0.0
H499 H 0.50297 0.63865 0.11778 0.0
H500 H 0.50719 0.68999 0.20948 0.0
H501 H 0.49828 0.65164 0.17395 0.0
H502 H 0.59052 0.68929 0.16237 0.0
H503 H 0.59923 0.72636 0.1973 0.0
C504 C 0.5559 0.61264 0.12593 0.0
C505 C 0.53479 0.60129 0.10181 0.0
C506 C 0.55808 0.63303 0.14671 0.0
C507 C 0.53935 0.6432 0.14433 0.0
C508 C 0.5178 0.6315 0.12068 0.0
C509 C 0.51563 0.61102 0.09973 0.0
C510 C 0.52548 0.68999 0.19932 0.0
C511 C 0.55395 0.71146 0.20687 0.0
C512 C 0.52042 0.668 0.17879 0.0
C513 C 0.54366 0.66678 0.16542 0.0
C514 C 0.57189 0.68865 0.17261 0.0
C515 C 0.57689 0.71032 0.19277 0.0
H516 H 0.97751 0.55442 0.64531 0.0
H517 H 0.94439 0.58014 0.56475 0.0
H518 H 0.95121 0.56534 0.68347 0.0
H519 H 0.91673 0.58952 0.60292 0.0
H520 H 0.88838 0.62591 0.68056 0.0
H521 H 0.91952 0.62004 0.64374 0.0
H522 H 0.90274 0.54634 0.7021 0.0
H523 H 0.87293 0.55308 0.73978 0.0
C524 C 0.96484 0.56265 0.63566 0.0
C525 C 0.96315 0.56636 0.60181 0.0
C526 C 0.94935 0.5685 0.65762 0.0
C527 C 0.93156 0.57809 0.64638 0.0
C528 C 0.93036 0.5824 0.61256 0.0
C529 C 0.94597 0.57666 0.59059 0.0
C530 C 0.89163 0.6087 0.68588 0.0
C531 C 0.87791 0.58993 0.71325 0.0
C532 C 0.90927 0.60511 0.66446 0.0
C533 C 0.91365 0.58264 0.66977 0.0
C534 C 0.90022 0.5641 0.69735 0.0
C535 C 0.8827 0.56774 0.71881 0.0
H536 H 0.45382 0.91049 0.09379 0.0
H537 H 0.4132 0.95849 0.0857 0.0
H538 H 0.41457 0.87559 0.13137 0.0
H539 H 0.37469 0.92463 0.12385 0.0
H540 H 0.29424 0.84917 0.16731 0.0
H541 H 0.33343 0.87935 0.12857 0.0
H542 H 0.39121 0.86443 0.18477 0.0
H543 H 0.35092 0.83297 0.22352 0.0
C544 C 0.43648 0.91358 0.10011 0.0
C545 C 0.4366 0.93725 0.08654 0.0
C546 C 0.41402 0.89367 0.12192 0.0
C547 C 0.39091 0.89677 0.13083 0.0
C548 C 0.39144 0.92076 0.11733 0.0
C549 C 0.41375 0.94049 0.09553 0.0
C550 C 0.31519 0.85194 0.17135 0.0
C551 C 0.31923 0.83853 0.19877 0.0
C552 C 0.33798 0.8697 0.14914 0.0
C553 C 0.36611 0.8753 0.15355 0.0
C554 C 0.37001 0.86084 0.18027 0.0
C555 C 0.34684 0.84264 0.20255 0.0
H556 H 0.42266 0.3932 0.56128 0.0
H557 H 0.51269 0.42698 0.58037 0.0
H558 H 0.40935 0.34863 0.59098 0.0
H559 H 0.49968 0.38274 0.61026 0.0
H560 H 0.4699 0.29146 0.63686 0.0
H561 H 0.48053 0.33261 0.60216 0.0
H562 H 0.4086 0.33172 0.64729 0.0
H563 H 0.39808 0.29086 0.68204 0.0
C564 C 0.4395 0.391 0.57203 0.0
C565 C 0.46859 0.41338 0.569 0.0
C566 C 0.43197 0.3656 0.589 0.0
C567 C 0.45346 0.36211 0.60298 0.0
C568 C 0.48263 0.38455 0.59943 0.0
C569 C 0.4901 0.40992 0.5826 0.0
C570 C 0.4563 0.29997 0.63936 0.0
C571 C 0.43324 0.28783 0.66251 0.0
C572 C 0.46241 0.32359 0.61947 0.0
C573 C 0.44556 0.33561 0.62213 0.0
C574 C 0.42184 0.32283 0.64435 0.0
C575 C 0.41577 0.29927 0.6643 0.0
H576 H 0.56617 0.95316 0.40019 0.0
H577 H 0.48869 0.88209 0.44624 0.0
H578 H 0.57092 0.92119 0.3665 0.0
H579 H 0.49416 0.84971 0.41296 0.0
H580 H 0.50403 0.80248 0.3242 0.0
H581 H 0.49347 0.83226 0.35689 0.0
H582 H 0.58473 0.88762 0.37378 0.0
H583 H 0.59511 0.85889 0.34178 0.0
C584 C 0.54992 0.93073 0.40314 0.0
C585 C 0.52703 0.9206 0.42637 0.0
C586 C 0.55286 0.91215 0.38387 0.0
C587 C 0.53313 0.88252 0.38694 0.0
C588 C 0.5098 0.87227 0.40961 0.0
C589 C 0.50688 0.89096 0.42909 0.0
C590 C 0.52176 0.82099 0.33496 0.0
C591 C 0.5505 0.82812 0.32977 0.0
C592 C 0.51572 0.8381 0.35383 0.0
C593 C 0.53828 0.8629 0.36776 0.0
C594 C 0.56671 0.86937 0.36298 0.0
C595 C 0.57265 0.85248 0.34452 0.0
H596 H 0.61984 0.60027 0.93948 0.0
H597 H 0.64757 0.56837 0.0176 0.0
H598 H 0.66439 0.61567 0.90849 0.0
H599 H 0.69247 0.58362 0.98745 0.0
H600 H 0.77408 0.61858 0.92169 0.0
H601 H 0.73811 0.61938 0.95664 0.0
H602 H 0.6748 0.58058 0.882 0.0
H603 H 0.71064 0.57966 0.84734 0.0
C604 C 0.63444 0.59446 0.94912 0.0
C605 C 0.62654 0.57529 0.97641 0.0
C606 C 0.66055 0.60434 0.93189 0.0
C607 C 0.68061 0.59799 0.94389 0.0
C608 C 0.67638 0.58664 0.97606 0.0
C609 C 0.64993 0.5766 0.99276 0.0
C610 C 0.75255 0.61052 0.91268 0.0
C611 C 0.74513 0.59893 0.8818 0.0
C612 C 0.73196 0.61091 0.93272 0.0
C613 C 0.70367 0.60029 0.92202 0.0
C614 C 0.69653 0.58936 0.8908 0.0
C615 C 0.71692 0.58848 0.87107 0.0
H616 H 0.07532 0.6258 0.45148 0.0
H617 H 0.11554 0.57925 0.43204 0.0
H618 H 0.11073 0.66494 0.41498 0.0
H619 H 0.15104 0.61832 0.39468 0.0
H620 H 0.22521 0.70818 0.34856 0.0
H621 H 0.19272 0.66765 0.38652 0.0
H622 H 0.12124 0.67582 0.35873 0.0
H623 H 0.15312 0.71571 0.32206 0.0
C624 C 0.09179 0.62395 0.43928 0.0
C625 C 0.09237 0.59926 0.44449 0.0
C626 C 0.11212 0.64637 0.41807 0.0
C627 C 0.13383 0.64497 0.40112 0.0
C628 C 0.13491 0.62048 0.40715 0.0
C629 C 0.11445 0.59796 0.42848 0.0
C630 C 0.2025 0.70107 0.35041 0.0
C631 C 0.19208 0.71568 0.33232 0.0
C632 C 0.18377 0.6778 0.37226 0.0
C633 C 0.15418 0.66856 0.37658 0.0
C634 C 0.14386 0.68256 0.35727 0.0
C635 C 0.16234 0.70555 0.33581 0.0
H636 H 0.47383 0.05906 0.89164 0.0
H637 H 0.43063 0.06564 0.97554 0.0
H638 H 0.4598 0.08654 0.8583 0.0
H639 H 0.41499 0.09194 0.9419 0.0
H640 H 0.4271 0.16953 0.8835 0.0
H641 H 0.43369 0.1366 0.91693 0.0
H642 H 0.42384 0.08932 0.83196 0.0
H643 H 0.4188 0.12352 0.79837 0.0
C644 C 0.4607 0.06589 0.90272 0.0
C645 C 0.45333 0.06033 0.93611 0.0
C646 C 0.45245 0.08152 0.88358 0.0
C647 C 0.43619 0.0916 0.89726 0.0
C648 C 0.42799 0.08509 0.93057 0.0
C649 C 0.43675 0.06988 0.94986 0.0
C650 C 0.42587 0.15181 0.87214 0.0
C651 C 0.42248 0.14903 0.83837 0.0
C652 C 0.42955 0.13278 0.89132 0.0
C653 C 0.42947 0.11021 0.87727 0.0
C654 C 0.42473 0.10677 0.84361 0.0
C655 C 0.42161 0.12617 0.82433 0.0
H656 H 0.42648 0.47571 0.38983 0.0
H657 H 0.41792 0.5358 0.44335 0.0
H658 H 0.39124 0.47247 0.35151 0.0
H659 H 0.38129 0.53145 0.40543 0.0
H660 H 0.32919 0.53021 0.31206 0.0
H661 H 0.36875 0.53985 0.34923 0.0
H662 H 0.3407 0.45151 0.35093 0.0
H663 H 0.30259 0.44218 0.31445 0.0
C664 C 0.41733 0.48847 0.39351 0.0
C665 C 0.42542 0.50597 0.42023 0.0
C666 C 0.39659 0.48631 0.37152 0.0
C667 C 0.38277 0.50138 0.37526 0.0
C668 C 0.39131 0.5195 0.40145 0.0
C669 C 0.41218 0.52169 0.42358 0.0
C670 C 0.33161 0.51295 0.32035 0.0
C671 C 0.31248 0.48542 0.30968 0.0
C672 C 0.35427 0.51842 0.34183 0.0
C673 C 0.35852 0.49656 0.35298 0.0
C674 C 0.33902 0.4692 0.34252 0.0
C675 C 0.3167 0.4638 0.32146 0.0
H676 H 0.90795 0.38325 0.97332 0.0
H677 H 0.98343 0.394 0.92414 0.0
H678 H 0.87672 0.34307 0.94062 0.0
H679 H 0.95202 0.35422 0.89063 0.0
H680 H 0.88634 0.26781 0.85132 0.0
H681 H 0.9163 0.30218 0.8912 0.0
H682 H 0.86433 0.33911 0.88297 0.0
H683 H 0.83484 0.3054 0.84311 0.0
C684 C 0.91793 0.37677 0.95589 0.0
C685 C 0.94822 0.39193 0.9513 0.0
C686 C 0.89999 0.35392 0.93689 0.0
C687 C 0.91187 0.3456 0.91284 0.0
C688 C 0.94219 0.35999 0.90909 0.0
C689 C 0.96017 0.38296 0.92805 0.0
C690 C 0.88126 0.28322 0.85803 0.0
C691 C 0.85808 0.28369 0.84376 0.0
C692 C 0.89844 0.30291 0.88091 0.0
C693 C 0.89269 0.32337 0.89026 0.0
C694 C 0.86907 0.32334 0.87672 0.0
C695 C 0.85205 0.30384 0.85378 0.0
H696 H 0.93829 0.54705 0.98392 0.0
H697 H 0.93183 0.48536 0.91947 0.0
H698 H 0.90282 0.55128 0.95226 0.0
H699 H 0.89546 0.48861 0.88806 0.0
H700 H 0.85436 0.52526 0.81848 0.0
H701 H 0.88604 0.51542 0.85063 0.0
H702 H 0.85492 0.53171 0.9385 0.0
H703 H 0.82436 0.54254 0.90593 0.0
C704 C 0.92901 0.53417 0.96306 0.0
C705 C 0.93791 0.51587 0.95429 0.0
C706 C 0.90835 0.53635 0.94489 0.0
C707 C 0.89564 0.52015 0.91732 0.0
C708 C 0.90468 0.50176 0.90869 0.0
C709 C 0.92549 0.49972 0.92683 0.0
C710 C 0.85356 0.5257 0.84479 0.0
C711 C 0.83609 0.53385 0.85967 0.0
C712 C 0.87199 0.52027 0.8634 0.0
C713 C 0.8737 0.52301 0.89755 0.0
C714 C 0.85505 0.52991 0.91239 0.0
C715 C 0.8369 0.53555 0.89375 0.0
H716 H 0.45197 0.94873 0.42794 0.0
H717 H 0.39459 0.96428 0.48199 0.0
H718 H 0.41244 0.91808 0.39248 0.0
H719 H 0.35457 0.93305 0.44711 0.0
H720 H 0.29888 0.89851 0.3563 0.0
H721 H 0.33812 0.93008 0.39132 0.0
H722 H 0.36759 0.87207 0.39549 0.0
H723 H 0.32852 0.84066 0.36057 0.0
C724 C 0.43074 0.94539 0.43216 0.0
C725 C 0.42602 0.9585 0.45761 0.0
C726 C 0.4081 0.92777 0.41209 0.0
C727 C 0.38028 0.92296 0.41709 0.0
C728 C 0.37577 0.93649 0.44243 0.0
C729 C 0.3985 0.95415 0.46251 0.0
C730 C 0.3136 0.89241 0.36489 0.0
C731 C 0.31061 0.8671 0.35543 0.0
C732 C 0.33609 0.91049 0.38498 0.0
C733 C 0.35609 0.90367 0.39609 0.0
C734 C 0.35291 0.87825 0.38685 0.0
C735 C 0.33049 0.86022 0.36678 0.0
H736 H 0.53176 0.44176 0.88107 0.0
H737 H 0.47128 0.37225 0.94666 0.0
H738 H 0.52999 0.4088 0.84367 0.0
H739 H 0.46805 0.33862 0.90764 0.0
H740 H 0.48828 0.28531 0.84065 0.0
H741 H 0.49149 0.3174 0.88195 0.0
H742 H 0.50171 0.37763 0.80524 0.0
H743 H 0.49974 0.34661 0.76482 0.0
C744 C 0.51795 0.41935 0.88768 0.0
C745 C 0.50195 0.41 0.91748 0.0
C746 C 0.51659 0.40019 0.8657 0.0
C747 C 0.49874 0.37066 0.8721 0.0
C748 C 0.48235 0.3611 0.90175 0.0
C749 C 0.48387 0.38046 0.92404 0.0
C750 C 0.49177 0.30566 0.83271 0.0
C751 C 0.49407 0.31329 0.79915 0.0
C752 C 0.49322 0.32399 0.85645 0.0
C753 C 0.49701 0.35049 0.84733 0.0
C754 C 0.49945 0.35793 0.81373 0.0
C755 C 0.49816 0.33985 0.79026 0.0
H756 H 0.03621 0.43552 0.403 0.0
H757 H 0.1111 0.48184 0.46295 0.0
H758 H 0.06416 0.42424 0.36752 0.0
H759 H 0.13804 0.46887 0.42851 0.0
H760 H 0.1662 0.4161 0.37256 0.0
H761 H 0.13417 0.42127 0.40966 0.0
H762 H 0.11222 0.45891 0.33024 0.0
H763 H 0.14468 0.45429 0.29346 0.0
C764 C 0.05848 0.44325 0.40884 0.0
C765 C 0.07129 0.45987 0.43595 0.0
C766 C 0.07436 0.43652 0.38859 0.0
C767 C 0.10317 0.44566 0.39537 0.0
C768 C 0.11571 0.46129 0.42299 0.0
C769 C 0.1001 0.46855 0.44285 0.0
C770 C 0.15419 0.42511 0.36307 0.0
C771 C 0.15787 0.43486 0.33026 0.0
C772 C 0.13606 0.4282 0.38423 0.0
C773 C 0.12076 0.44045 0.37272 0.0
C774 C 0.12363 0.44923 0.33964 0.0
C775 C 0.14226 0.44674 0.3187 0.0
H776 H 0.57891 0.10886 0.92276 0.0
H777 H 0.62205 0.06336 0.933 0.0
H778 H 0.61681 0.14298 0.88335 0.0
H779 H 0.66028 0.09751 0.89468 0.0
H780 H 0.70874 0.14198 0.80157 0.0
H781 H 0.6694 0.11052 0.83942 0.0
H782 H 0.66642 0.18139 0.87193 0.0
H783 H 0.70598 0.21324 0.83259 0.0
C784 C 0.59665 0.1063 0.9167 0.0
C785 C 0.59732 0.08323 0.93079 0.0
C786 C 0.61854 0.12597 0.89419 0.0
C787 C 0.6418 0.12315 0.8851 0.0
C788 C 0.64258 0.1003 0.90005 0.0
C789 C 0.62072 0.08069 0.92235 0.0
C790 C 0.69972 0.15106 0.81659 0.0
C791 C 0.71094 0.1804 0.81398 0.0
C792 C 0.67712 0.13286 0.83875 0.0
C793 C 0.66479 0.14314 0.85975 0.0
C794 C 0.67517 0.17243 0.85636 0.0
C795 C 0.6979 0.19081 0.83371 0.0
H796 H 0.51677 0.58743 0.45769 0.0
H797 H 0.60755 0.63126 0.47913 0.0
H798 H 0.52581 0.62735 0.42139 0.0
H799 H 0.61708 0.67106 0.44202 0.0
H800 H 0.61775 0.74802 0.39626 0.0
H801 H 0.60908 0.70958 0.43476 0.0
H802 H 0.54849 0.64842 0.36891 0.0
H803 H 0.55698 0.68678 0.33075 0.0
C804 C 0.53867 0.60575 0.45452 0.0
C805 C 0.56154 0.60644 0.4708 0.0
C806 C 0.54394 0.62848 0.4336 0.0
C807 C 0.57224 0.65232 0.42852 0.0
C808 C 0.59502 0.65315 0.44554 0.0
C809 C 0.58968 0.6304 0.46658 0.0
C810 C 0.60277 0.72636 0.38993 0.0
C811 C 0.58793 0.72047 0.36052 0.0
C812 C 0.59779 0.70432 0.41199 0.0
C813 C 0.57793 0.67589 0.40505 0.0
C814 C 0.56344 0.67006 0.37539 0.0
C815 C 0.56834 0.69206 0.35345 0.0
H816 H 0.50487 0.11884 0.56331 0.0
H817 H 0.51234 0.07608 0.64917 0.0
H818 H 0.50347 0.15271 0.5973 0.0
H819 H 0.5092 0.10887 0.68322 0.0
H820 H 0.52841 0.18573 0.73787 0.0
H821 H 0.53269 0.15442 0.70215 0.0
H822 H 0.47643 0.16132 0.63386 0.0
H823 H 0.473 0.19347 0.66928 0.0
C824 C 0.50626 0.11652 0.58941 0.0
C825 C 0.50879 0.09432 0.60306 0.0
C826 C 0.50502 0.13591 0.60915 0.0
C827 C 0.50619 0.13395 0.64343 0.0
C828 C 0.50865 0.11172 0.65707 0.0
C829 C 0.51 0.0924 0.63734 0.0
C830 C 0.51713 0.18084 0.71509 0.0
C831 C 0.50039 0.19242 0.70669 0.0
C832 C 0.51934 0.16247 0.69456 0.0
C833 C 0.50472 0.15471 0.66483 0.0
C834 C 0.48839 0.16677 0.65616 0.0
C835 C 0.48631 0.1853 0.67666 0.0
H836 H 0.40751 0.43281 0.06783 0.0
H837 H 0.45013 0.52278 0.07825 0.0
H838 H 0.36563 0.42476 0.09965 0.0
H839 H 0.40795 0.51511 0.10928 0.0
H840 H 0.34072 0.48799 0.19254 0.0
H841 H 0.38261 0.49619 0.16115 0.0
H842 H 0.3257 0.4313 0.0965 0.0
H843 H 0.28381 0.42298 0.1281 0.0
C844 C 0.40785 0.45081 0.07718 0.0
C845 C 0.4321 0.47833 0.07131 0.0
C846 C 0.38378 0.4463 0.09505 0.0
C847 C 0.38335 0.46927 0.10716 0.0
C848 C 0.40767 0.49688 0.10086 0.0
C849 C 0.43176 0.50134 0.083 0.0
C850 C 0.33709 0.47565 0.17146 0.0
C851 C 0.3088 0.45481 0.16289 0.0
C852 C 0.36117 0.48037 0.15341 0.0
C853 C 0.35764 0.46442 0.12623 0.0
C854 C 0.32933 0.44367 0.11758 0.0
C855 C 0.30525 0.4389 0.1357 0.0
H856 H 0.93286 0.39713 0.56056 0.0
H857 H 0.93929 0.46213 0.61923 0.0
H858 H 0.89586 0.36052 0.59868 0.0
H859 H 0.90201 0.42587 0.65712 0.0
H860 H 0.86161 0.35564 0.73847 0.0
H861 H 0.89451 0.39193 0.69826 0.0
H862 H 0.84723 0.33628 0.62119 0.0
H863 H 0.81436 0.29936 0.66202 0.0
C864 C 0.92611 0.40357 0.5815 0.0
C865 C 0.93906 0.43258 0.58683 0.0
C866 C 0.90471 0.38256 0.60336 0.0
C867 C 0.89564 0.38988 0.6314 0.0
C868 C 0.90849 0.41906 0.63632 0.0
C869 C 0.92984 0.44 0.61446 0.0
C870 C 0.85784 0.35108 0.71296 0.0
C871 C 0.83502 0.32432 0.70378 0.0
C872 C 0.87683 0.37216 0.68965 0.0
C873 C 0.87392 0.36743 0.65606 0.0
C874 C 0.85062 0.34085 0.64671 0.0
C875 C 0.83143 0.31967 0.67018 0.0
H876 H 0.54604 0.91382 0.05299 0.0
H877 H 0.60897 0.98577 0.10593 0.0
H878 H 0.55674 0.88337 0.08511 0.0
H879 H 0.61829 0.95462 0.13974 0.0
H880 H 0.64271 0.89216 0.17965 0.0
H881 H 0.63804 0.92446 0.14193 0.0
H882 H 0.54571 0.86399 0.13959 0.0
H883 H 0.55054 0.83145 0.17555 0.0
C884 C 0.56247 0.92332 0.07118 0.0
C885 C 0.57659 0.95238 0.07678 0.0
C886 C 0.56826 0.90567 0.09003 0.0
C887 C 0.58803 0.91642 0.11538 0.0
C888 C 0.60299 0.94564 0.12034 0.0
C889 C 0.59736 0.96344 0.10121 0.0
C890 C 0.62151 0.88565 0.17071 0.0
C891 C 0.597 0.85919 0.18081 0.0
C892 C 0.61879 0.90428 0.14937 0.0
C893 C 0.59152 0.8968 0.13762 0.0
C894 C 0.56713 0.87031 0.14768 0.0
C895 C 0.56985 0.85175 0.16881 0.0
H896 H 0.58071 0.50854 0.66715 0.0
H897 H 0.64222 0.52652 0.5892 0.0
H898 H 0.6149 0.51117 0.70675 0.0
H899 H 0.67581 0.52744 0.62881 0.0
H900 H 0.74252 0.55497 0.71034 0.0
H901 H 0.70883 0.55221 0.66938 0.0
H902 H 0.63684 0.48927 0.73092 0.0
H903 H 0.67048 0.49285 0.77214 0.0
C904 C 0.6015 0.5131 0.65822 0.0
C905 C 0.60831 0.51744 0.62446 0.0
C906 C 0.62117 0.51415 0.68119 0.0
C907 C 0.64852 0.51942 0.67149 0.0
C908 C 0.65531 0.52366 0.63772 0.0
C909 C 0.63566 0.52271 0.61472 0.0
C910 C 0.7195 0.54038 0.71509 0.0
C911 C 0.70946 0.52419 0.74486 0.0
C912 C 0.7 0.53868 0.69137 0.0
C913 C 0.66967 0.52062 0.69643 0.0
C914 C 0.65978 0.50397 0.72598 0.0
C915 C 0.67925 0.5058 0.74972 0.0
H916 H 0.09134 0.65196 0.05062 0.0
H917 H 0.05452 0.59654 0.13733 0.0
H918 H 0.12174 0.69165 0.08448 0.0
H919 H 0.08326 0.63639 0.17093 0.0
H920 H 0.1665 0.70118 0.21763 0.0
H921 H 0.13283 0.66356 0.18389 0.0
H922 H 0.12402 0.72377 0.12375 0.0
H923 H 0.15927 0.76201 0.15678 0.0
C924 C 0.08944 0.64825 0.07685 0.0
C925 C 0.0706 0.62089 0.09113 0.0
C926 C 0.10661 0.67112 0.09629 0.0
C927 C 0.10519 0.66717 0.13045 0.0
C928 C 0.08534 0.64011 0.14469 0.0
C929 C 0.06845 0.61727 0.12533 0.0
C930 C 0.15771 0.70659 0.19706 0.0
C931 C 0.16592 0.73477 0.18978 0.0
C932 C 0.13794 0.68484 0.17795 0.0
C933 C 0.12554 0.69055 0.15116 0.0
C934 C 0.13336 0.71867 0.14406 0.0
C935 C 0.15333 0.74055 0.16319 0.0
loop_
_geom_bond_atom_site_label_1
_geom_bond_atom_site_label_2
_geom_bond_distance
_geom_bond_site_symmetry_2
_ccdc_geom_bond_type
C0 C1 1.437 1_556 S
C0 N4 1.376 1_556 S
C0 C38 1.389 . S
C1 C0 1.437 1_554 S
C1 C2 1.360 . S
C1 H41 0.940 1_554 S
C2 C1 1.360 . S
C2 C3 1.439 . S
C2 H42 0.950 . S
C3 C2 1.439 . S
C3 N4 1.374 . S
C3 C37 1.395 . S
N4 C0 1.376 1_554 S
N4 C3 1.374 . S
N4 Co5 2.008 1_655 S
Co5 N4 2.008 1_455 S
Co5 N6 1.995 . S
Co5 N11 2.010 . S
Co5 N16 1.995 1_554 S
Co5 N21 2.282 . S
Co5 N27 2.282 1_454 S
N6 Co5 1.995 . S
N6 C7 1.376 1_455 S
N6 C10 1.383 . S
C7 N6 1.376 1_655 S
C7 C8 1.446 . S
C7 C37 1.391 . S
C8 C7 1.446 . S
C8 C9 1.339 1_655 S
C8 H43 0.949 . S
C9 C8 1.339 1_455 S
C9 C10 1.439 . S
C9 H44 0.950 . S
C10 N6 1.383 . S
C10 C9 1.439 . S
C10 C39 1.392 . S
N11 Co5 2.010 . S
N11 C12 1.384 . S
N11 C15 1.365 1_554 S
C12 N11 1.384 . S
C12 C13 1.443 . S
C12 C39 1.389 . S
C13 C12 1.443 . S
C13 C14 1.340 1_554 S
C13 H45 0.951 . S
C14 C13 1.340 1_556 S
C14 C15 1.439 . S
C14 H46 0.950 . S
C15 N11 1.365 1_556 S
C15 C14 1.439 . S
C15 C40 1.395 . S
N16 Co5 1.995 1_556 S
N16 C17 1.376 . S
N16 C20 1.383 1_455 S
C17 N16 1.376 . S
C17 C18 1.446 . S
C17 C40 1.391 . S
C18 C17 1.446 . S
C18 C19 1.339 . S
C18 H47 0.949 . S
C19 C18 1.339 . S
C19 C20 1.439 1_455 S
C19 H48 0.953 . S
C20 N16 1.383 1_655 S
C20 C19 1.439 1_655 S
C20 C38 1.392 . S
N21 Co5 2.282 . S
N21 C24 1.332 . S
N21 C26 1.332 . S
C22 C23 1.386 . S
C22 C25 1.388 . S
C23 C22 1.386 . S
C23 C24 1.382 . S
C23 H49 0.950 . S
C24 N21 1.332 . S
C24 C23 1.382 . S
C24 H35 0.952 . S
C25 C22 1.388 . S
C25 C26 1.382 . S
C25 H50 0.950 . S
C26 N21 1.332 . S
C26 C25 1.382 . S
C26 H36 0.948 . S
N27 Co5 2.282 1_656 S
N27 C31 1.332 . S
N27 C32 1.332 . S
C28 C29 1.388 . S
C28 C32 1.382 . S
C28 H51 0.950 . S
C29 C28 1.388 . S
C29 C30 1.386 . S
C30 C29 1.386 . S
C30 C31 1.382 . S
C30 H52 0.950 . S
C31 N27 1.332 . S
C31 C30 1.382 . S
C31 H33 0.952 1_556 S
C32 N27 1.332 . S
C32 C28 1.382 . S
C32 H34 0.948 1_655 S
H33 C31 0.952 1_554 S
H34 C32 0.948 1_455 S
H35 C24 0.952 . S
H36 C26 0.948 . S
C37 C3 1.395 . S
C37 C7 1.391 . S
C38 C0 1.389 . S
C38 C20 1.392 . S
C39 C10 1.392 . S
C39 C12 1.389 . S
C40 C15 1.395 . S
C40 C17 1.391 . S
H41 C1 0.940 1_556 S
H42 C2 0.950 . S
H43 C8 0.949 . S
H44 C9 0.950 . S
H45 C13 0.951 . S
H46 C14 0.950 . S
H47 C18 0.949 . S
H48 C19 0.953 . S
H49 C23 0.950 . S
H50 C25 0.950 . S
H51 C28 0.950 . S
H52 C30 0.950 . S
C53 C54 1.443 . S
C53 N57 1.376 . S
C53 C91 1.389 . S
C54 C53 1.443 . S
C54 C55 1.340 1_545 S
C54 H94 0.951 . S
C55 C54 1.340 1_565 S
C55 C56 1.439 . S
C55 H95 0.950 . S
C56 C55 1.439 . S
C56 N57 1.374 1_565 S
C56 C90 1.395 . S
N57 C53 1.376 . S
N57 C56 1.374 1_545 S
N57 Co58 2.008 . S
Co58 N57 2.008 . S
Co58 N59 1.995 1_545 S
Co58 N64 2.008 . S
Co58 N69 1.995 . S
Co58 N74 2.282 1_545 S
Co58 N80 2.282 . S
N59 Co58 1.995 1_565 S
N59 C60 1.376 . S
N59 C63 1.383 . S
C60 N59 1.376 . S
C60 C61 1.446 . S
C60 C90 1.391 . S
C61 C60 1.446 . S
C61 C62 1.339 . S
C61 H96 0.949 . S
C62 C61 1.339 . S
C62 C63 1.439 . S
C62 H97 0.950 . S
C63 N59 1.383 . S
C63 C62 1.439 . S
C63 C92 1.392 . S
N64 Co58 2.008 . S
N64 C65 1.376 1_545 S
N64 C68 1.374 . S
C65 N64 1.376 1_565 S
C65 C66 1.443 1_565 S
C65 C92 1.389 . S
C66 C65 1.443 1_545 S
C66 C67 1.340 . S
C66 H98 0.951 1_545 S
C67 C66 1.340 . S
C67 C68 1.439 . S
C67 H99 0.950 . S
C68 N64 1.374 . S
C68 C67 1.439 . S
C68 C93 1.395 . S
N69 Co58 1.995 . S
N69 C70 1.376 . S
N69 C73 1.383 . S
C70 N69 1.376 . S
C70 C71 1.446 . S
C70 C93 1.391 . S
C71 C70 1.446 . S
C71 C72 1.339 . S
C71 H100 0.949 . S
C72 C71 1.339 . S
C72 C73 1.439 . S
C72 H101 0.950 . S
C73 N69 1.383 . S
C73 C72 1.439 . S
C73 C91 1.392 . S
N74 Co58 2.282 1_565 S
N74 C77 1.332 . S
N74 C79 1.332 . S
C75 C76 1.386 . S
C75 C78 1.388 . S
C76 C75 1.386 . S
C76 C77 1.382 . S
C76 H102 0.950 . S
C77 N74 1.332 . S
C77 C76 1.382 . S
C77 H88 0.952 1_565 S
C78 C75 1.388 . S
C78 C79 1.382 . S
C78 H103 0.950 . S
C79 N74 1.332 . S
C79 C78 1.382 . S
C79 H89 0.948 . S
N80 Co58 2.282 . S
N80 C84 1.332 . S
N80 C85 1.332 . S
C81 C82 1.388 . S
C81 C85 1.382 . S
C81 H104 0.950 . S
C82 C81 1.388 . S
C82 C83 1.386 . S
C83 C82 1.386 . S
C83 C84 1.382 . S
C83 H105 0.950 . S
C84 N80 1.332 . S
C84 C83 1.382 . S
C84 H86 0.952 . S
C85 N80 1.332 . S
C85 C81 1.382 . S
C85 H87 0.948 . S
H86 C84 0.952 . S
H87 C85 0.948 . S
H88 C77 0.952 1_545 S
H89 C79 0.948 . S
C90 C56 1.395 . S
C90 C60 1.391 . S
C91 C53 1.389 . S
C91 C73 1.392 . S
C92 C63 1.392 . S
C92 C65 1.389 . S
C93 C68 1.395 . S
C93 C70 1.391 . S
H94 C54 0.951 . S
H95 C55 0.950 . S
H96 C61 0.949 . S
H97 C62 0.950 . S
H98 C66 0.951 1_565 S
H99 C67 0.950 . S
H100 C71 0.949 . S
H101 C72 0.950 . S
H102 C76 0.950 . S
H103 C78 0.950 . S
H104 C81 0.950 . S
H105 C83 0.950 . S
C106 C107 1.443 . S
C106 N110 1.376 . S
C106 C144 1.389 . S
C107 C106 1.443 . S
C107 C108 1.340 . S
C107 H147 0.951 . S
C108 C107 1.340 . S
C108 C109 1.439 . S
C108 H148 0.950 . S
C109 C108 1.439 . S
C109 N110 1.374 . S
C109 C143 1.395 . S
N110 C106 1.376 . S
N110 C109 1.374 . S
N110 Co111 2.008 1_556 S
Co111 N110 2.008 1_554 S
Co111 N112 1.995 1_554 S
Co111 N117 2.008 . S
Co111 N122 1.995 . S
Co111 N127 2.282 . S
Co111 N133 2.282 1_554 S
N112 Co111 1.995 1_556 S
N112 C113 1.376 . S
N112 C116 1.383 1_556 S
C113 N112 1.376 . S
C113 C114 1.446 . S
C113 C143 1.391 . S
C114 C113 1.446 . S
C114 C115 1.339 1_556 S
C114 H149 0.949 . S
C115 C114 1.339 1_554 S
C115 C116 1.439 . S
C115 H150 0.950 . S
C116 N112 1.383 1_554 S
C116 C115 1.439 . S
C116 C145 1.392 . S
N117 Co111 2.008 . S
N117 C118 1.376 . S
N117 C121 1.374 . S
C118 N117 1.376 . S
C118 C119 1.443 . S
C118 C145 1.389 . S
C119 C118 1.443 . S
C119 C120 1.340 . S
C119 H151 0.951 . S
C120 C119 1.340 . S
C120 C121 1.439 . S
C120 H152 0.950 . S
C121 N117 1.374 . S
C121 C120 1.439 . S
C121 C146 1.395 . S
N122 Co111 1.995 . S
N122 C123 1.376 . S
N122 C126 1.383 1_554 S
C123 N122 1.376 . S
C123 C124 1.446 . S
C123 C146 1.391 . S
C124 C123 1.446 . S
C124 C125 1.339 . S
C124 H153 0.949 . S
C125 C124 1.339 . S
C125 C126 1.439 1_554 S
C125 H154 0.950 1_554 S
C126 N122 1.383 1_556 S
C126 C125 1.439 1_556 S
C126 C144 1.392 . S
N127 Co111 2.282 . S
N127 C130 1.332 . S
N127 C132 1.332 . S
C128 C129 1.386 . S
C128 C131 1.388 . S
C129 C128 1.386 . S
C129 C130 1.382 . S
C129 H155 0.950 . S
C130 N127 1.332 . S
C130 C129 1.382 . S
C130 H141 0.952 . S
C131 C128 1.388 . S
C131 C132 1.382 . S
C131 H156 0.950 . S
C132 N127 1.332 . S
C132 C131 1.382 . S
C132 H142 0.948 . S
N133 Co111 2.282 1_556 S
N133 C137 1.332 . S
N133 C138 1.332 . S
C134 C135 1.388 . S
C134 C138 1.382 . S
C134 H157 0.950 . S
C135 C134 1.388 . S
C135 C136 1.386 . S
C136 C135 1.386 . S
C136 C137 1.382 . S
C136 H158 0.950 . S
C137 N133 1.332 . S
C137 C136 1.382 . S
C137 H139 0.952 . S
C138 N133 1.332 . S
C138 C134 1.382 . S
C138 H140 0.948 1_556 S
H139 C137 0.952 . S
H140 C138 0.948 1_554 S
H141 C130 0.952 . S
H142 C132 0.948 . S
C143 C109 1.395 . S
C143 C113 1.391 . S
C144 C106 1.389 . S
C144 C126 1.392 . S
C145 C116 1.392 . S
C145 C118 1.389 . S
C146 C121 1.395 . S
C146 C123 1.391 . S
H147 C107 0.951 . S
H148 C108 0.950 . S
H149 C114 0.949 . S
H150 C115 0.950 . S
H151 C119 0.951 . S
H152 C120 0.950 . S
H153 C124 0.949 . S
H154 C125 0.950 1_556 S
H155 C129 0.950 . S
H156 C131 0.950 . S
H157 C134 0.950 . S
H158 C136 0.950 . S
C159 C160 1.443 . S
C159 N163 1.376 . S
C159 C197 1.389 . S
C160 C159 1.443 . S
C160 C161 1.340 . S
C160 H200 0.951 . S
C161 C160 1.340 . S
C161 C162 1.439 . S
C161 H201 0.950 . S
C162 C161 1.439 . S
C162 N163 1.374 . S
C162 C196 1.395 . S
N163 C159 1.376 . S
N163 C162 1.374 . S
N163 Co164 2.008 1_655 S
Co164 N163 2.008 1_455 S
Co164 N165 1.995 1_455 S
Co164 N170 2.008 . S
Co164 N175 1.995 . S
Co164 N180 2.282 . S
Co164 N186 2.282 1_455 S
N165 Co164 1.995 1_655 S
N165 C166 1.376 . S
N165 C169 1.383 1_655 S
C166 N165 1.376 . S
C166 C167 1.446 . S
C166 C196 1.391 . S
C167 C166 1.446 . S
C167 C168 1.339 1_655 S
C167 H202 0.949 . S
C168 C167 1.339 1_455 S
C168 C169 1.439 . S
C168 H203 0.950 . S
C169 N165 1.383 1_455 S
C169 C168 1.439 . S
C169 C198 1.392 . S
N170 Co164 2.008 . S
N170 C171 1.376 . S
N170 C174 1.374 . S
C171 N170 1.376 . S
C171 C172 1.443 . S
C171 C198 1.389 . S
C172 C171 1.443 . S
C172 C173 1.340 . S
C172 H204 0.951 . S
C173 C172 1.340 . S
C173 C174 1.439 . S
C173 H205 0.950 . S
C174 N170 1.374 . S
C174 C173 1.439 . S
C174 C199 1.395 . S
N175 Co164 1.995 . S
N175 C176 1.376 . S
N175 C179 1.383 1_455 S
C176 N175 1.376 . S
C176 C177 1.446 . S
C176 C199 1.391 . S
C177 C176 1.446 . S
C177 C178 1.319 1_455 S
C177 H206 0.949 . S
C178 C177 1.319 1_655 S
C178 C179 1.455 . S
C178 H207 0.953 . S
C179 N175 1.383 1_655 S
C179 C178 1.455 . S
C179 C197 1.392 . S
N180 Co164 2.282 . S
N180 C183 1.332 . S
N180 C185 1.332 . S
C181 C182 1.386 . S
C181 C184 1.388 . S
C182 C181 1.386 . S
C182 C183 1.382 . S
C182 H208 0.950 . S
C183 N180 1.332 . S
C183 C182 1.382 . S
C183 H194 0.952 . S
C184 C181 1.388 . S
C184 C185 1.382 . S
C184 H209 0.950 . S
C185 N180 1.332 . S
C185 C184 1.382 . S
C185 H195 0.948 . S
N186 Co164 2.282 1_655 S
N186 C190 1.332 . S
N186 C191 1.332 . S
C187 C188 1.388 . S
C187 C191 1.382 . S
C187 H210 0.950 . S
C188 C187 1.388 . S
C188 C189 1.386 . S
C189 C188 1.386 . S
C189 C190 1.382 . S
C189 H211 0.950 . S
C190 N186 1.332 . S
C190 C189 1.382 . S
C190 H192 0.952 . S
C191 N186 1.332 . S
C191 C187 1.382 . S
C191 H193 0.948 1_655 S
H192 C190 0.952 . S
H193 C191 0.948 1_455 S
H194 C183 0.952 . S
H195 C185 0.948 . S
C196 C162 1.395 . S
C196 C166 1.391 . S
C197 C159 1.389 . S
C197 C179 1.392 . S
C198 C169 1.392 . S
C198 C171 1.389 . S
C199 C174 1.395 . S
C199 C176 1.391 . S
H200 C160 0.951 . S
H201 C161 0.950 . S
H202 C167 0.949 . S
H203 C168 0.950 . S
H204 C172 0.951 . S
H205 C173 0.950 . S
H206 C177 0.949 . S
H207 C178 0.953 . S
H208 C182 0.950 . S
H209 C184 0.950 . S
H210 C187 0.950 . S
H211 C189 0.950 . S
C212 C213 1.443 . S
C212 N216 1.376 1_565 S
C212 C250 1.389 . S
C213 C212 1.443 . S
C213 C214 1.340 1_565 S
C213 H253 0.951 . S
C214 C213 1.340 1_545 S
C214 C215 1.439 . S
C214 H254 0.950 . S
C215 C214 1.439 . S
C215 N216 1.374 . S
C215 C249 1.395 . S
N216 C212 1.376 1_545 S
N216 C215 1.374 . S
N216 Co217 2.008 . S
Co217 N216 2.008 . S
Co217 N218 1.995 . S
Co217 N223 2.008 1_544 S
Co217 N228 1.995 1_545 S
Co217 N233 2.282 1_554 S
Co217 N239 2.282 1_545 S
N218 Co217 1.995 . S
N218 C219 1.376 . S
N218 C222 1.383 1_554 S
C219 N218 1.376 . S
C219 C220 1.446 . S
C219 C249 1.391 . S
C220 C219 1.446 . S
C220 C221 1.339 1_554 S
C220 H255 0.949 . S
C221 C220 1.339 1_556 S
C221 C222 1.439 . S
C221 H256 0.950 . S
C222 N218 1.383 1_556 S
C222 C221 1.439 . S
C222 C251 1.392 . S
N223 Co217 2.008 1_566 S
N223 C224 1.376 1_565 S
N223 C227 1.374 . S
C224 N223 1.376 1_545 S
C224 C225 1.443 . S
C224 C251 1.389 . S
C225 C224 1.443 . S
C225 C226 1.340 1_545 S
C225 H257 0.951 . S
C226 C225 1.340 1_565 S
C226 C227 1.439 . S
C226 H258 0.950 . S
C227 N223 1.374 . S
C227 C226 1.439 . S
C227 C252 1.395 . S
N228 Co217 1.995 1_565 S
N228 C229 1.376 1_554 S
N228 C232 1.383 . S
C229 N228 1.376 1_556 S
C229 C230 1.446 . S
C229 C252 1.391 . S
C230 C229 1.446 . S
C230 C231 1.339 1_556 S
C230 H259 0.949 . S
C231 C230 1.339 1_554 S
C231 C232 1.439 . S
C231 H260 0.950 . S
C232 N228 1.383 . S
C232 C231 1.439 . S
C232 C250 1.392 . S
N233 Co217 2.282 1_556 S
N233 C236 1.332 . S
N233 C238 1.332 . S
C234 C235 1.386 . S
C234 C237 1.388 . S
C235 C234 1.386 . S
C235 C236 1.382 . S
C235 H261 0.950 . S
C236 N233 1.332 . S
C236 C235 1.382 . S
C236 H247 0.952 1_545 S
C237 C234 1.388 . S
C237 C238 1.382 . S
C237 H262 0.950 . S
C238 N233 1.332 . S
C238 C237 1.382 . S
C238 H248 0.948 . S
N239 Co217 2.282 1_565 S
N239 C243 1.332 . S
N239 C244 1.332 . S
C240 C241 1.388 . S
C240 C244 1.382 . S
C240 H263 0.950 . S
C241 C240 1.388 . S
C241 C242 1.386 . S
C242 C241 1.386 . S
C242 C243 1.382 . S
C242 H264 0.950 . S
C243 N239 1.332 . S
C243 C242 1.382 . S
C243 H245 0.952 1_565 S
C244 N239 1.332 . S
C244 C240 1.382 . S
C244 H246 0.948 . S
H245 C243 0.952 1_545 S
H246 C244 0.948 . S
H247 C236 0.952 1_565 S
H248 C238 0.948 . S
C249 C215 1.395 . S
C249 C219 1.391 . S
C250 C212 1.389 . S
C250 C232 1.392 . S
C251 C222 1.392 . S
C251 C224 1.389 . S
C252 C227 1.395 . S
C252 C229 1.391 . S
H253 C213 0.951 . S
H254 C214 0.950 . S
H255 C220 0.949 . S
H256 C221 0.950 . S
H257 C225 0.951 . S
H258 C226 0.950 . S
H259 C230 0.949 . S
H260 C231 0.950 . S
H261 C235 0.950 . S
H262 C237 0.950 . S
H263 C240 0.950 . S
H264 C242 0.950 . S
C265 C266 1.443 . S
C265 N269 1.376 . S
C265 C303 1.389 . S
C266 C265 1.443 . S
C266 C267 1.340 . S
C266 H306 0.951 . S
C267 C266 1.340 . S
C267 C268 1.439 . S
C267 H307 0.950 . S
C268 C267 1.439 . S
C268 N269 1.374 . S
C268 C302 1.395 . S
N269 C265 1.376 . S
N269 C268 1.374 . S
N269 Co270 2.008 . S
Co270 N269 2.008 . S
Co270 N271 1.995 . S
Co270 N276 2.008 . S
Co270 N281 1.995 . S
Co270 N286 2.282 . S
Co270 N292 2.282 . S
N271 Co270 1.995 . S
N271 C272 1.376 . S
N271 C275 1.383 . S
C272 N271 1.376 . S
C272 C273 1.446 . S
C272 C302 1.391 . S
C273 C272 1.446 . S
C273 C274 1.339 . S
C273 H308 0.949 . S
C274 C273 1.339 . S
C274 C275 1.439 . S
C274 H309 0.950 . S
C275 N271 1.383 . S
C275 C274 1.439 . S
C275 C304 1.392 . S
N276 Co270 2.008 . S
N276 C277 1.376 . S
N276 C280 1.374 . S
C277 N276 1.376 . S
C277 C278 1.443 . S
C277 C304 1.389 . S
C278 C277 1.443 . S
C278 C279 1.340 . S
C278 H310 0.951 . S
C279 C278 1.340 . S
C279 C280 1.439 . S
C279 H311 0.950 . S
C280 N276 1.374 . S
C280 C279 1.439 . S
C280 C305 1.395 . S
N281 Co270 1.995 . S
N281 C282 1.376 . S
N281 C285 1.383 . S
C282 N281 1.376 . S
C282 C283 1.446 . S
C282 C305 1.391 . S
C283 C282 1.446 . S
C283 C284 1.339 . S
C283 H312 0.949 . S
C284 C283 1.339 . S
C284 C285 1.439 . S
C284 H313 0.950 . S
C285 N281 1.383 . S
C285 C284 1.439 . S
C285 C303 1.392 . S
N286 Co270 2.282 . S
N286 C289 1.332 . S
N286 C291 1.332 . S
C287 C288 1.386 . S
C287 C290 1.388 . S
C288 C287 1.386 . S
C288 C289 1.382 . S
C288 H314 0.950 . S
C289 N286 1.332 . S
C289 C288 1.382 . S
C289 H300 0.952 . S
C290 C287 1.388 . S
C290 C291 1.382 . S
C290 H315 0.950 . S
C291 N286 1.332 . S
C291 C290 1.382 . S
C291 H301 0.948 . S
N292 Co270 2.282 . S
N292 C296 1.332 . S
N292 C297 1.332 . S
C293 C294 1.388 . S
C293 C297 1.382 . S
C293 H316 0.950 . S
C294 C293 1.388 . S
C294 C295 1.386 . S
C295 C294 1.386 . S
C295 C296 1.382 . S
C295 H317 0.950 . S
C296 N292 1.332 . S
C296 C295 1.382 . S
C296 H298 0.952 . S
C297 N292 1.332 . S
C297 C293 1.382 . S
C297 H299 0.948 . S
H298 C296 0.952 . S
H299 C297 0.948 . S
H300 C289 0.952 . S
H301 C291 0.948 . S
C302 C268 1.395 . S
C302 C272 1.391 . S
C303 C265 1.389 . S
C303 C285 1.392 . S
C304 C275 1.392 . S
C304 C277 1.389 . S
C305 C280 1.395 . S
C305 C282 1.391 . S
H306 C266 0.951 . S
H307 C267 0.950 . S
H308 C273 0.949 . S
H309 C274 0.950 . S
H310 C278 0.951 . S
H311 C279 0.950 . S
H312 C283 0.949 . S
H313 C284 0.950 . S
H314 C288 0.950 . S
H315 C290 0.950 . S
H316 C293 0.950 . S
H317 C295 0.950 . S
Cu318 N319 1.999 . S
Cu318 O324 1.974 . S
Cu318 N329 1.985 . S
Cu318 O338 1.959 . S
N319 Cu318 1.999 . S
N319 C321 1.263 . S
N319 C323 1.389 . S
N320 C321 1.358 . S
N320 C322 1.400 . S
C321 N319 1.263 . S
C321 N320 1.358 . S
C321 H327 0.930 . S
C322 N320 1.400 . S
C322 C323 1.351 . S
C322 H339 0.930 . S
C323 N319 1.389 . S
C323 C322 1.351 . S
C323 H328 0.930 . S
O324 Cu318 1.974 . S
O324 C334 1.282 . S
C325 O326 1.261 . S
C325 O338 1.251 . S
O326 C325 1.261 . S
H327 C321 0.930 . S
H328 C323 0.930 . S
N329 Cu318 1.985 . S
N329 C331 1.335 . S
N329 C332 1.390 . S
N330 C331 1.345 . S
N330 C333 1.336 . S
C331 N329 1.335 . S
C331 N330 1.345 . S
C331 H336 0.930 . S
C332 N329 1.390 . S
C332 C333 1.346 . S
C332 H337 0.930 . S
C333 N330 1.336 . S
C333 C332 1.346 . S
C333 H340 0.929 . S
C334 O324 1.282 . S
C334 O335 1.216 . S
O335 C334 1.216 . S
H336 C331 0.930 . S
H337 C332 0.930 . S
O338 Cu318 1.959 . S
O338 C325 1.251 . S
H339 C322 0.930 . S
H340 C333 0.929 . S
Cu341 N342 1.999 . S
Cu341 O347 1.974 . S
Cu341 N352 1.985 . S
Cu341 O361 1.959 . S
N342 Cu341 1.999 . S
N342 C344 1.263 . S
N342 C346 1.389 . S
N343 C344 1.358 . S
N343 C345 1.400 . S
C344 N342 1.263 . S
C344 N343 1.358 . S
C344 H350 0.930 . S
C345 N343 1.400 . S
C345 C346 1.351 . S
C345 H362 0.930 . S
C346 N342 1.389 . S
C346 C345 1.351 . S
C346 H351 0.930 . S
O347 Cu341 1.974 . S
O347 C357 1.282 . S
C348 O349 1.261 . S
C348 O361 1.251 . S
O349 C348 1.261 . S
H350 C344 0.930 . S
H351 C346 0.930 . S
N352 Cu341 1.985 . S
N352 C354 1.335 . S
N352 C355 1.390 . S
N353 C354 1.345 . S
N353 C356 1.336 . S
C354 N352 1.335 . S
C354 N353 1.345 . S
C354 H359 0.930 . S
C355 N352 1.390 . S
C355 C356 1.346 . S
C355 H360 0.930 . S
C356 N353 1.336 . S
C356 C355 1.346 . S
C356 H363 0.929 . S
C357 O347 1.282 . S
C357 O358 1.216 . S
O358 C357 1.216 . S
H359 C354 0.930 . S
H360 C355 0.930 . S
O361 Cu341 1.959 . S
O361 C348 1.251 . S
H362 C345 0.930 . S
H363 C356 0.929 . S
Cu364 N365 1.999 . S
Cu364 O370 1.974 . S
Cu364 N375 1.985 . S
Cu364 O384 1.959 . S
N365 Cu364 1.999 . S
N365 C367 1.263 . S
N365 C369 1.389 . S
N366 C367 1.358 . S
N366 C368 1.400 . S
C367 N365 1.263 . S
C367 N366 1.358 . S
C367 H373 0.930 . S
C368 N366 1.400 . S
C368 C369 1.351 . S
C368 H385 0.930 . S
C369 N365 1.389 . S
C369 C368 1.351 . S
C369 H374 0.930 . S
O370 Cu364 1.974 . S
O370 C380 1.282 . S
C371 O372 1.261 . S
C371 O384 1.251 . S
O372 C371 1.261 . S
H373 C367 0.930 . S
H374 C369 0.930 . S
N375 Cu364 1.985 . S
N375 C377 1.335 . S
N375 C378 1.390 . S
N376 C377 1.345 . S
N376 C379 1.336 . S
C377 N375 1.335 . S
C377 N376 1.345 . S
C377 H382 0.930 . S
C378 N375 1.390 . S
C378 C379 1.346 . S
C378 H383 0.930 . S
C379 N376 1.336 . S
C379 C378 1.346 . S
C379 H386 0.929 . S
C380 O370 1.282 . S
C380 O381 1.216 . S
O381 C380 1.216 . S
H382 C377 0.930 . S
H383 C378 0.930 . S
O384 Cu364 1.959 . S
O384 C371 1.251 . S
H385 C368 0.930 . S
H386 C379 0.929 . S
Cu387 N388 1.999 . S
Cu387 O393 1.974 . S
Cu387 N398 1.985 . S
Cu387 O407 1.959 . S
N388 Cu387 1.999 . S
N388 C390 1.263 . S
N388 C392 1.389 . S
N389 C390 1.358 . S
N389 C391 1.400 . S
C390 N388 1.263 . S
C390 N389 1.358 . S
C390 H396 0.930 . S
C391 N389 1.400 . S
C391 C392 1.351 . S
C391 H408 0.930 . S
C392 N388 1.389 . S
C392 C391 1.351 . S
C392 H397 0.930 . S
O393 Cu387 1.974 . S
O393 C403 1.282 . S
C394 O395 1.261 . S
C394 O407 1.251 . S
O395 C394 1.261 . S
H396 C390 0.930 . S
H397 C392 0.930 . S
N398 Cu387 1.985 . S
N398 C400 1.335 . S
N398 C401 1.390 . S
N399 C400 1.345 . S
N399 C402 1.336 . S
C400 N398 1.335 . S
C400 N399 1.345 . S
C400 H405 0.930 . S
C401 N398 1.390 . S
C401 C402 1.346 . S
C401 H406 0.930 . S
C402 N399 1.336 . S
C402 C401 1.346 . S
C402 H409 0.929 . S
C403 O393 1.282 . S
C403 O404 1.216 . S
O404 C403 1.216 . S
H405 C400 0.930 . S
H406 C401 0.930 . S
O407 Cu387 1.959 . S
O407 C394 1.251 . S
H408 C391 0.930 . S
H409 C402 0.929 . S
Cu410 N411 1.999 . S
Cu410 O416 1.974 . S
Cu410 N421 1.985 . S
Cu410 O430 1.959 . S
N411 Cu410 1.999 . S
N411 C413 1.263 . S
N411 C415 1.389 . S
N412 C413 1.358 . S
N412 C414 1.400 . S
C413 N411 1.263 . S
C413 N412 1.358 . S
C413 H419 0.930 . S
C414 N412 1.400 . S
C414 C415 1.351 . S
C414 H431 0.930 . S
C415 N411 1.389 . S
C415 C414 1.351 . S
C415 H420 0.930 . S
O416 Cu410 1.974 . S
O416 C426 1.282 . S
C417 O418 1.261 . S
C417 O430 1.251 . S
O418 C417 1.261 . S
H419 C413 0.930 . S
H420 C415 0.930 . S
N421 Cu410 1.985 . S
N421 C423 1.335 . S
N421 C424 1.390 . S
N422 C423 1.345 . S
N422 C425 1.336 . S
C423 N421 1.335 . S
C423 N422 1.345 . S
C423 H428 0.930 . S
C424 N421 1.390 . S
C424 C425 1.346 . S
C424 H429 0.930 . S
C425 N422 1.336 . S
C425 C424 1.346 . S
C425 H432 0.929 . S
C426 O416 1.282 . S
C426 O427 1.216 . S
O427 C426 1.216 . S
H428 C423 0.930 . S
H429 C424 0.930 . S
O430 Cu410 1.959 . S
O430 C417 1.251 . S
H431 C414 0.930 . S
H432 C425 0.929 . S
Cu433 N434 1.999 . S
Cu433 O439 1.974 . S
Cu433 N444 1.985 . S
Cu433 O453 1.959 . S
N434 Cu433 1.999 . S
N434 C436 1.263 . S
N434 C438 1.389 . S
N435 C436 1.358 . S
N435 C437 1.400 . S
C436 N434 1.263 . S
C436 N435 1.358 . S
C436 H442 0.930 . S
C437 N435 1.400 . S
C437 C438 1.351 . S
C437 H454 0.930 . S
C438 N434 1.389 . S
C438 C437 1.351 . S
C438 H443 0.930 . S
O439 Cu433 1.974 . S
O439 C449 1.282 . S
C440 O441 1.261 . S
C440 O453 1.251 . S
O441 C440 1.261 . S
H442 C436 0.930 . S
H443 C438 0.930 . S
N444 Cu433 1.985 . S
N444 C446 1.335 . S
N444 C447 1.390 . S
N445 C446 1.345 . S
N445 C448 1.336 . S
C446 N444 1.335 . S
C446 N445 1.345 . S
C446 H451 0.930 . S
C447 N444 1.390 . S
C447 C448 1.346 . S
C447 H452 0.930 . S
C448 N445 1.336 . S
C448 C447 1.346 . S
C448 H455 0.929 . S
C449 O439 1.282 . S
C449 O450 1.216 . S
O450 C449 1.216 . S
H451 C446 0.930 . S
H452 C447 0.930 . S
O453 Cu433 1.959 . S
O453 C440 1.251 . S
H454 C437 0.930 . S
H455 C448 0.929 . S
H456 C464 0.950 . S
H457 C469 0.950 . S
H458 C466 0.950 . S
H459 C468 0.950 . S
H460 C470 0.950 . S
H461 C472 0.950 . S
H462 C474 0.950 . S
H463 C475 0.950 . S
C464 H456 0.950 . S
C464 C465 1.386 . S
C464 C466 1.391 . S
C465 C464 1.386 . S
C465 C469 1.393 . S
C466 H458 0.950 . S
C466 C464 1.391 . S
C466 C467 1.400 . S
C467 C466 1.400 . S
C467 C468 1.398 . S
C467 C473 1.491 . S
C468 H459 0.950 . S
C468 C467 1.398 . S
C468 C469 1.391 . S
C469 H457 0.950 . S
C469 C465 1.393 . S
C469 C468 1.391 . S
C470 H460 0.950 . S
C470 C471 1.386 . S
C470 C472 1.391 . S
C471 C470 1.386 . S
C471 C475 1.393 . S
C472 H461 0.950 . S
C472 C470 1.391 . S
C472 C473 1.400 . S
C473 C467 1.491 . S
C473 C472 1.400 . S
C473 C474 1.398 . S
C474 H462 0.950 . S
C474 C473 1.398 . S
C474 C475 1.391 . S
C475 H463 0.950 . S
C475 C471 1.393 . S
C475 C474 1.391 . S
H476 C484 0.950 . S
H477 C489 0.950 . S
H478 C486 0.950 . S
H479 C488 0.950 . S
H480 C490 0.950 . S
H481 C492 0.950 . S
H482 C494 0.950 . S
H483 C495 0.950 . S
C484 H476 0.950 . S
C484 C485 1.386 . S
C484 C486 1.391 . S
C485 C484 1.386 . S
C485 C489 1.393 . S
C486 H478 0.950 . S
C486 C484 1.391 . S
C486 C487 1.400 . S
C487 C486 1.400 . S
C487 C488 1.398 . S
C487 C493 1.491 . S
C488 H479 0.950 . S
C488 C487 1.398 . S
C488 C489 1.391 . S
C489 H477 0.950 . S
C489 C485 1.393 . S
C489 C488 1.391 . S
C490 H480 0.950 . S
C490 C491 1.386 . S
C490 C492 1.391 . S
C491 C490 1.386 . S
C491 C495 1.393 . S
C492 H481 0.950 . S
C492 C490 1.391 . S
C492 C493 1.400 . S
C493 C487 1.491 . S
C493 C492 1.400 . S
C493 C494 1.398 . S
C494 H482 0.950 . S
C494 C493 1.398 . S
C494 C495 1.391 . S
C495 H483 0.950 . S
C495 C491 1.393 . S
C495 C494 1.391 . S
H496 C504 0.950 . S
H497 C509 0.950 . S
H498 C506 0.950 . S
H499 C508 0.950 . S
H500 C510 0.950 . S
H501 C512 0.950 . S
H502 C514 0.950 . S
H503 C515 0.950 . S
C504 H496 0.950 . S
C504 C505 1.386 . S
C504 C506 1.391 . S
C505 C504 1.386 . S
C505 C509 1.393 . S
C506 H498 0.950 . S
C506 C504 1.391 . S
C506 C507 1.400 . S
C507 C506 1.400 . S
C507 C508 1.398 . S
C507 C513 1.491 . S
C508 H499 0.950 . S
C508 C507 1.398 . S
C508 C509 1.391 . S
C509 H497 0.950 . S
C509 C505 1.393 . S
C509 C508 1.391 . S
C510 H500 0.950 . S
C510 C511 1.386 . S
C510 C512 1.391 . S
C511 C510 1.386 . S
C511 C515 1.393 . S
C512 H501 0.950 . S
C512 C510 1.391 . S
C512 C513 1.400 . S
C513 C507 1.491 . S
C513 C512 1.400 . S
C513 C514 1.398 . S
C514 H502 0.950 . S
C514 C513 1.398 . S
C514 C515 1.391 . S
C515 H503 0.950 . S
C515 C511 1.393 . S
C515 C514 1.391 . S
H516 C524 0.950 . S
H517 C529 0.950 . S
H518 C526 0.950 . S
H519 C528 0.950 . S
H520 C530 0.950 . S
H521 C532 0.950 . S
H522 C534 0.950 . S
H523 C535 0.950 . S
C524 H516 0.950 . S
C524 C525 1.386 . S
C524 C526 1.391 . S
C525 C524 1.386 . S
C525 C529 1.393 . S
C526 H518 0.950 . S
C526 C524 1.391 . S
C526 C527 1.400 . S
C527 C526 1.400 . S
C527 C528 1.398 . S
C527 C533 1.491 . S
C528 H519 0.950 . S
C528 C527 1.398 . S
C528 C529 1.391 . S
C529 H517 0.950 . S
C529 C525 1.393 . S
C529 C528 1.391 . S
C530 H520 0.950 . S
C530 C531 1.386 . S
C530 C532 1.391 . S
C531 C530 1.386 . S
C531 C535 1.393 . S
C532 H521 0.950 . S
C532 C530 1.391 . S
C532 C533 1.400 . S
C533 C527 1.491 . S
C533 C532 1.400 . S
C533 C534 1.398 . S
C534 H522 0.950 . S
C534 C533 1.398 . S
C534 C535 1.391 . S
C535 H523 0.950 . S
C535 C531 1.393 . S
C535 C534 1.391 . S
H536 C544 0.950 . S
H537 C549 0.950 . S
H538 C546 0.950 . S
H539 C548 0.950 . S
H540 C550 0.950 . S
H541 C552 0.950 . S
H542 C554 0.950 . S
H543 C555 0.950 . S
C544 H536 0.950 . S
C544 C545 1.386 . S
C544 C546 1.391 . S
C545 C544 1.386 . S
C545 C549 1.393 . S
C546 H538 0.950 . S
C546 C544 1.391 . S
C546 C547 1.400 . S
C547 C546 1.400 . S
C547 C548 1.398 . S
C547 C553 1.491 . S
C548 H539 0.950 . S
C548 C547 1.398 . S
C548 C549 1.391 . S
C549 H537 0.950 . S
C549 C545 1.393 . S
C549 C548 1.391 . S
C550 H540 0.950 . S
C550 C551 1.386 . S
C550 C552 1.391 . S
C551 C550 1.386 . S
C551 C555 1.393 . S
C552 H541 0.950 . S
C552 C550 1.391 . S
C552 C553 1.400 . S
C553 C547 1.491 . S
C553 C552 1.400 . S
C553 C554 1.398 . S
C554 H542 0.950 . S
C554 C553 1.398 . S
C554 C555 1.391 . S
C555 H543 0.950 . S
C555 C551 1.393 . S
C555 C554 1.391 . S
H556 C564 0.950 . S
H557 C569 0.950 . S
H558 C566 0.950 . S
H559 C568 0.950 . S
H560 C570 0.950 . S
H561 C572 0.950 . S
H562 C574 0.950 . S
H563 C575 0.950 . S
C564 H556 0.950 . S
C564 C565 1.386 . S
C564 C566 1.391 . S
C565 C564 1.386 . S
C565 C569 1.393 . S
C566 H558 0.950 . S
C566 C564 1.391 . S
C566 C567 1.400 . S
C567 C566 1.400 . S
C567 C568 1.398 . S
C567 C573 1.491 . S
C568 H559 0.950 . S
C568 C567 1.398 . S
C568 C569 1.391 . S
C569 H557 0.950 . S
C569 C565 1.393 . S
C569 C568 1.391 . S
C570 H560 0.950 . S
C570 C571 1.386 . S
C570 C572 1.391 . S
C571 C570 1.386 . S
C571 C575 1.393 . S
C572 H561 0.950 . S
C572 C570 1.391 . S
C572 C573 1.400 . S
C573 C567 1.491 . S
C573 C572 1.400 . S
C573 C574 1.398 . S
C574 H562 0.950 . S
C574 C573 1.398 . S
C574 C575 1.391 . S
C575 H563 0.950 . S
C575 C571 1.393 . S
C575 C574 1.391 . S
H576 C584 0.950 . S
H577 C589 0.950 . S
H578 C586 0.950 . S
H579 C588 0.950 . S
H580 C590 0.950 . S
H581 C592 0.950 . S
H582 C594 0.950 . S
H583 C595 0.950 . S
C584 H576 0.950 . S
C584 C585 1.386 . S
C584 C586 1.391 . S
C585 C584 1.386 . S
C585 C589 1.393 . S
C586 H578 0.950 . S
C586 C584 1.391 . S
C586 C587 1.400 . S
C587 C586 1.400 . S
C587 C588 1.398 . S
C587 C593 1.491 . S
C588 H579 0.950 . S
C588 C587 1.398 . S
C588 C589 1.391 . S
C589 H577 0.950 . S
C589 C585 1.393 . S
C589 C588 1.391 . S
C590 H580 0.950 . S
C590 C591 1.386 . S
C590 C592 1.391 . S
C591 C590 1.386 . S
C591 C595 1.393 . S
C592 H581 0.950 . S
C592 C590 1.391 . S
C592 C593 1.400 . S
C593 C587 1.491 . S
C593 C592 1.400 . S
C593 C594 1.398 . S
C594 H582 0.950 . S
C594 C593 1.398 . S
C594 C595 1.391 . S
C595 H583 0.950 . S
C595 C591 1.393 . S
C595 C594 1.391 . S
H596 C604 0.950 . S
H597 C609 0.950 . S
H598 C606 0.950 . S
H599 C608 0.950 . S
H600 C610 0.950 . S
H601 C612 0.950 . S
H602 C614 0.950 . S
H603 C615 0.950 . S
C604 H596 0.950 . S
C604 C605 1.386 . S
C604 C606 1.391 . S
C605 C604 1.386 . S
C605 C609 1.393 . S
C606 H598 0.950 . S
C606 C604 1.391 . S
C606 C607 1.400 . S
C607 C606 1.400 . S
C607 C608 1.398 . S
C607 C613 1.491 . S
C608 H599 0.950 . S
C608 C607 1.398 . S
C608 C609 1.391 . S
C609 H597 0.950 . S
C609 C605 1.393 . S
C609 C608 1.391 . S
C610 H600 0.950 . S
C610 C611 1.386 . S
C610 C612 1.391 . S
C611 C610 1.386 . S
C611 C615 1.393 . S
C612 H601 0.950 . S
C612 C610 1.391 . S
C612 C613 1.400 . S
C613 C607 1.491 . S
C613 C612 1.400 . S
C613 C614 1.398 . S
C614 H602 0.950 . S
C614 C613 1.398 . S
C614 C615 1.391 . S
C615 H603 0.950 . S
C615 C611 1.393 . S
C615 C614 1.391 . S
H616 C624 0.950 . S
H617 C629 0.950 . S
H618 C626 0.950 . S
H619 C628 0.950 . S
H620 C630 0.950 . S
H621 C632 0.950 . S
H622 C634 0.950 . S
H623 C635 0.950 . S
C624 H616 0.950 . S
C624 C625 1.386 . S
C624 C626 1.391 . S
C625 C624 1.386 . S
C625 C629 1.393 . S
C626 H618 0.950 . S
C626 C624 1.391 . S
C626 C627 1.400 . S
C627 C626 1.400 . S
C627 C628 1.398 . S
C627 C633 1.491 . S
C628 H619 0.950 . S
C628 C627 1.398 . S
C628 C629 1.391 . S
C629 H617 0.950 . S
C629 C625 1.393 . S
C629 C628 1.391 . S
C630 H620 0.950 . S
C630 C631 1.386 . S
C630 C632 1.391 . S
C631 C630 1.386 . S
C631 C635 1.393 . S
C632 H621 0.950 . S
C632 C630 1.391 . S
C632 C633 1.400 . S
C633 C627 1.491 . S
C633 C632 1.400 . S
C633 C634 1.398 . S
C634 H622 0.950 . S
C634 C633 1.398 . S
C634 C635 1.391 . S
C635 H623 0.950 . S
C635 C631 1.393 . S
C635 C634 1.391 . S
H636 C644 0.950 . S
H637 C649 0.950 . S
H638 C646 0.950 . S
H639 C648 0.950 . S
H640 C650 0.950 . S
H641 C652 0.950 . S
H642 C654 0.950 . S
H643 C655 0.950 . S
C644 H636 0.950 . S
C644 C645 1.386 . S
C644 C646 1.391 . S
C645 C644 1.386 . S
C645 C649 1.393 . S
C646 H638 0.950 . S
C646 C644 1.391 . S
C646 C647 1.400 . S
C647 C646 1.400 . S
C647 C648 1.398 . S
C647 C653 1.491 . S
C648 H639 0.950 . S
C648 C647 1.398 . S
C648 C649 1.391 . S
C649 H637 0.950 . S
C649 C645 1.393 . S
C649 C648 1.391 . S
C650 H640 0.950 . S
C650 C651 1.386 . S
C650 C652 1.391 . S
C651 C650 1.386 . S
C651 C655 1.393 . S
C652 H641 0.950 . S
C652 C650 1.391 . S
C652 C653 1.400 . S
C653 C647 1.491 . S
C653 C652 1.400 . S
C653 C654 1.398 . S
C654 H642 0.950 . S
C654 C653 1.398 . S
C654 C655 1.391 . S
C655 H643 0.950 . S
C655 C651 1.393 . S
C655 C654 1.391 . S
H656 C664 0.950 . S
H657 C669 0.950 . S
H658 C666 0.950 . S
H659 C668 0.950 . S
H660 C670 0.950 . S
H661 C672 0.950 . S
H662 C674 0.950 . S
H663 C675 0.950 . S
C664 H656 0.950 . S
C664 C665 1.386 . S
C664 C666 1.391 . S
C665 C664 1.386 . S
C665 C669 1.393 . S
C666 H658 0.950 . S
C666 C664 1.391 . S
C666 C667 1.400 . S
C667 C666 1.400 . S
C667 C668 1.398 . S
C667 C673 1.491 . S
C668 H659 0.950 . S
C668 C667 1.398 . S
C668 C669 1.391 . S
C669 H657 0.950 . S
C669 C665 1.393 . S
C669 C668 1.391 . S
C670 H660 0.950 . S
C670 C671 1.386 . S
C670 C672 1.391 . S
C671 C670 1.386 . S
C671 C675 1.393 . S
C672 H661 0.950 . S
C672 C670 1.391 . S
C672 C673 1.400 . S
C673 C667 1.491 . S
C673 C672 1.400 . S
C673 C674 1.398 . S
C674 H662 0.950 . S
C674 C673 1.398 . S
C674 C675 1.391 . S
C675 H663 0.950 . S
C675 C671 1.393 . S
C675 C674 1.391 . S
H676 C684 0.950 . S
H677 C689 0.950 . S
H678 C686 0.950 . S
H679 C688 0.950 . S
H680 C690 0.950 . S
H681 C692 0.950 . S
H682 C694 0.950 . S
H683 C695 0.950 . S
C684 H676 0.950 . S
C684 C685 1.386 . S
C684 C686 1.391 . S
C685 C684 1.386 . S
C685 C689 1.393 . S
C686 H678 0.950 . S
C686 C684 1.391 . S
C686 C687 1.400 . S
C687 C686 1.400 . S
C687 C688 1.398 . S
C687 C693 1.491 . S
C688 H679 0.950 . S
C688 C687 1.398 . S
C688 C689 1.391 . S
C689 H677 0.950 . S
C689 C685 1.393 . S
C689 C688 1.391 . S
C690 H680 0.950 . S
C690 C691 1.386 . S
C690 C692 1.391 . S
C691 C690 1.386 . S
C691 C695 1.393 . S
C692 H681 0.950 . S
C692 C690 1.391 . S
C692 C693 1.400 . S
C693 C687 1.491 . S
C693 C692 1.400 . S
C693 C694 1.398 . S
C694 H682 0.950 . S
C694 C693 1.398 . S
C694 C695 1.391 . S
C695 H683 0.950 . S
C695 C691 1.393 . S
C695 C694 1.391 . S
H696 C704 0.950 . S
H697 C709 0.950 . S
H698 C706 0.950 . S
H699 C708 0.950 . S
H700 C710 0.950 . S
H701 C712 0.950 . S
H702 C714 0.950 . S
H703 C715 0.950 . S
C704 H696 0.950 . S
C704 C705 1.386 . S
C704 C706 1.391 . S
C705 C704 1.386 . S
C705 C709 1.393 . S
C706 H698 0.950 . S
C706 C704 1.391 . S
C706 C707 1.400 . S
C707 C706 1.400 . S
C707 C708 1.398 . S
C707 C713 1.491 . S
C708 H699 0.950 . S
C708 C707 1.398 . S
C708 C709 1.391 . S
C709 H697 0.950 . S
C709 C705 1.393 . S
C709 C708 1.391 . S
C710 H700 0.950 . S
C710 C711 1.386 . S
C710 C712 1.391 . S
C711 C710 1.386 . S
C711 C715 1.393 . S
C712 H701 0.950 . S
C712 C710 1.391 . S
C712 C713 1.400 . S
C713 C707 1.491 . S
C713 C712 1.400 . S
C713 C714 1.398 . S
C714 H702 0.950 . S
C714 C713 1.398 . S
C714 C715 1.391 . S
C715 H703 0.950 . S
C715 C711 1.393 . S
C715 C714 1.391 . S
H716 C724 0.950 . S
H717 C729 0.950 . S
H718 C726 0.950 . S
H719 C728 0.950 . S
H720 C730 0.950 . S
H721 C732 0.950 . S
H722 C734 0.950 . S
H723 C735 0.950 . S
C724 H716 0.950 . S
C724 C725 1.386 . S
C724 C726 1.391 . S
C725 C724 1.386 . S
C725 C729 1.393 . S
C726 H718 0.950 . S
C726 C724 1.391 . S
C726 C727 1.400 . S
C727 C726 1.400 . S
C727 C728 1.398 . S
C727 C733 1.491 . S
C728 H719 0.950 . S
C728 C727 1.398 . S
C728 C729 1.391 . S
C729 H717 0.950 . S
C729 C725 1.393 . S
C729 C728 1.391 . S
C730 H720 0.950 . S
C730 C731 1.386 . S
C730 C732 1.391 . S
C731 C730 1.386 . S
C731 C735 1.393 . S
C732 H721 0.950 . S
C732 C730 1.391 . S
C732 C733 1.400 . S
C733 C727 1.491 . S
C733 C732 1.400 . S
C733 C734 1.398 . S
C734 H722 0.950 . S
C734 C733 1.398 . S
C734 C735 1.391 . S
C735 H723 0.950 . S
C735 C731 1.393 . S
C735 C734 1.391 . S
H736 C744 0.950 . S
H737 C749 0.950 . S
H738 C746 0.950 . S
H739 C748 0.950 . S
H740 C750 0.950 . S
H741 C752 0.950 . S
H742 C754 0.950 . S
H743 C755 0.950 . S
C744 H736 0.950 . S
C744 C745 1.386 . S
C744 C746 1.391 . S
C745 C744 1.386 . S
C745 C749 1.393 . S
C746 H738 0.950 . S
C746 C744 1.391 . S
C746 C747 1.400 . S
C747 C746 1.400 . S
C747 C748 1.398 . S
C747 C753 1.491 . S
C748 H739 0.950 . S
C748 C747 1.398 . S
C748 C749 1.391 . S
C749 H737 0.950 . S
C749 C745 1.393 . S
C749 C748 1.391 . S
C750 H740 0.950 . S
C750 C751 1.386 . S
C750 C752 1.391 . S
C751 C750 1.386 . S
C751 C755 1.393 . S
C752 H741 0.950 . S
C752 C750 1.391 . S
C752 C753 1.400 . S
C753 C747 1.491 . S
C753 C752 1.400 . S
C753 C754 1.398 . S
C754 H742 0.950 . S
C754 C753 1.398 . S
C754 C755 1.391 . S
C755 H743 0.950 . S
C755 C751 1.393 . S
C755 C754 1.391 . S
H756 C764 0.950 . S
H757 C769 0.950 . S
H758 C766 0.950 . S
H759 C768 0.950 . S
H760 C770 0.950 . S
H761 C772 0.950 . S
H762 C774 0.950 . S
H763 C775 0.950 . S
C764 H756 0.950 . S
C764 C765 1.386 . S
C764 C766 1.391 . S
C765 C764 1.386 . S
C765 C769 1.393 . S
C766 H758 0.950 . S
C766 C764 1.391 . S
C766 C767 1.400 . S
C767 C766 1.400 . S
C767 C768 1.398 . S
C767 C773 1.491 . S
C768 H759 0.950 . S
C768 C767 1.398 . S
C768 C769 1.391 . S
C769 H757 0.950 . S
C769 C765 1.393 . S
C769 C768 1.391 . S
C770 H760 0.950 . S
C770 C771 1.386 . S
C770 C772 1.391 . S
C771 C770 1.386 . S
C771 C775 1.393 . S
C772 H761 0.950 . S
C772 C770 1.391 . S
C772 C773 1.400 . S
C773 C767 1.491 . S
C773 C772 1.400 . S
C773 C774 1.398 . S
C774 H762 0.950 . S
C774 C773 1.398 . S
C774 C775 1.391 . S
C775 H763 0.950 . S
C775 C771 1.393 . S
C775 C774 1.391 . S
H776 C784 0.950 . S
H777 C789 0.950 . S
H778 C786 0.950 . S
H779 C788 0.950 . S
H780 C790 0.950 . S
H781 C792 0.950 . S
H782 C794 0.950 . S
H783 C795 0.950 . S
C784 H776 0.950 . S
C784 C785 1.386 . S
C784 C786 1.391 . S
C785 C784 1.386 . S
C785 C789 1.393 . S
C786 H778 0.950 . S
C786 C784 1.391 . S
C786 C787 1.400 . S
C787 C786 1.400 . S
C787 C788 1.398 . S
C787 C793 1.491 . S
C788 H779 0.950 . S
C788 C787 1.398 . S
C788 C789 1.391 . S
C789 H777 0.950 . S
C789 C785 1.393 . S
C789 C788 1.391 . S
C790 H780 0.950 . S
C790 C791 1.386 . S
C790 C792 1.391 . S
C791 C790 1.386 . S
C791 C795 1.393 . S
C792 H781 0.950 . S
C792 C790 1.391 . S
C792 C793 1.400 . S
C793 C787 1.491 . S
C793 C792 1.400 . S
C793 C794 1.398 . S
C794 H782 0.950 . S
C794 C793 1.398 . S
C794 C795 1.391 . S
C795 H783 0.950 . S
C795 C791 1.393 . S
C795 C794 1.391 . S
H796 C804 0.950 . S
H797 C809 0.950 . S
H798 C806 0.950 . S
H799 C808 0.950 . S
H800 C810 0.950 . S
H801 C812 0.950 . S
H802 C814 0.950 . S
H803 C815 0.950 . S
C804 H796 0.950 . S
C804 C805 1.386 . S
C804 C806 1.391 . S
C805 C804 1.386 . S
C805 C809 1.393 . S
C806 H798 0.950 . S
C806 C804 1.391 . S
C806 C807 1.400 . S
C807 C806 1.400 . S
C807 C808 1.398 . S
C807 C813 1.491 . S
C808 H799 0.950 . S
C808 C807 1.398 . S
C808 C809 1.391 . S
C809 H797 0.950 . S
C809 C805 1.393 . S
C809 C808 1.391 . S
C810 H800 0.950 . S
C810 C811 1.386 . S
C810 C812 1.391 . S
C811 C810 1.386 . S
C811 C815 1.393 . S
C812 H801 0.950 . S
C812 C810 1.391 . S
C812 C813 1.400 . S
C813 C807 1.491 . S
C813 C812 1.400 . S
C813 C814 1.398 . S
C814 H802 0.950 . S
C814 C813 1.398 . S
C814 C815 1.391 . S
C815 H803 0.950 . S
C815 C811 1.393 . S
C815 C814 1.391 . S
H816 C824 0.950 . S
H817 C829 0.950 . S
H818 C826 0.950 . S
H819 C828 0.950 . S
H820 C830 0.950 . S
H821 C832 0.950 . S
H822 C834 0.950 . S
H823 C835 0.950 . S
C824 H816 0.950 . S
C824 C825 1.386 . S
C824 C826 1.391 . S
C825 C824 1.386 . S
C825 C829 1.393 . S
C826 H818 0.950 . S
C826 C824 1.391 . S
C826 C827 1.400 . S
C827 C826 1.400 . S
C827 C828 1.398 . S
C827 C833 1.491 . S
C828 H819 0.950 . S
C828 C827 1.398 . S
C828 C829 1.391 . S
C829 H817 0.950 . S
C829 C825 1.393 . S
C829 C828 1.391 . S
C830 H820 0.950 . S
C830 C831 1.386 . S
C830 C832 1.391 . S
C831 C830 1.386 . S
C831 C835 1.393 . S
C832 H821 0.950 . S
C832 C830 1.391 . S
C832 C833 1.400 . S
C833 C827 1.491 . S
C833 C832 1.400 . S
C833 C834 1.398 . S
C834 H822 0.950 . S
C834 C833 1.398 . S
C834 C835 1.391 . S
C835 H823 0.950 . S
C835 C831 1.393 . S
C835 C834 1.391 . S
H836 C844 0.950 . S
H837 C849 0.950 . S
H838 C846 0.950 . S
H839 C848 0.950 . S
H840 C850 0.950 . S
H841 C852 0.950 . S
H842 C854 0.950 . S
H843 C855 0.950 . S
C844 H836 0.950 . S
C844 C845 1.386 . S
C844 C846 1.391 . S
C845 C844 1.386 . S
C845 C849 1.393 . S
C846 H838 0.950 . S
C846 C844 1.391 . S
C846 C847 1.400 . S
C847 C846 1.400 . S
C847 C848 1.398 . S
C847 C853 1.491 . S
C848 H839 0.950 . S
C848 C847 1.398 . S
C848 C849 1.391 . S
C849 H837 0.950 . S
C849 C845 1.393 . S
C849 C848 1.391 . S
C850 H840 0.950 . S
C850 C851 1.386 . S
C850 C852 1.391 . S
C851 C850 1.386 . S
C851 C855 1.393 . S
C852 H841 0.950 . S
C852 C850 1.391 . S
C852 C853 1.400 . S
C853 C847 1.491 . S
C853 C852 1.400 . S
C853 C854 1.398 . S
C854 H842 0.950 . S
C854 C853 1.398 . S
C854 C855 1.391 . S
C855 H843 0.950 . S
C855 C851 1.393 . S
C855 C854 1.391 . S
H856 C864 0.950 . S
H857 C869 0.950 . S
H858 C866 0.950 . S
H859 C868 0.950 . S
H860 C870 0.950 . S
H861 C872 0.950 . S
H862 C874 0.950 . S
H863 C875 0.950 . S
C864 H856 0.950 . S
C864 C865 1.386 . S
C864 C866 1.391 . S
C865 C864 1.386 . S
C865 C869 1.393 . S
C866 H858 0.950 . S
C866 C864 1.391 . S
C866 C867 1.400 . S
C867 C866 1.400 . S
C867 C868 1.398 . S
C867 C873 1.491 . S
C868 H859 0.950 . S
C868 C867 1.398 . S
C868 C869 1.391 . S
C869 H857 0.950 . S
C869 C865 1.393 . S
C869 C868 1.391 . S
C870 H860 0.950 . S
C870 C871 1.386 . S
C870 C872 1.391 . S
C871 C870 1.386 . S
C871 C875 1.393 . S
C872 H861 0.950 . S
C872 C870 1.391 . S
C872 C873 1.400 . S
C873 C867 1.491 . S
C873 C872 1.400 . S
C873 C874 1.398 . S
C874 H862 0.950 . S
C874 C873 1.398 . S
C874 C875 1.391 . S
C875 H863 0.950 . S
C875 C871 1.393 . S
C875 C874 1.391 . S
H876 C884 0.950 . S
H877 C889 0.950 . S
H878 C886 0.950 . S
H879 C888 0.950 . S
H880 C890 0.950 . S
H881 C892 0.950 . S
H882 C894 0.950 . S
H883 C895 0.950 . S
C884 H876 0.950 . S
C884 C885 1.386 . S
C884 C886 1.391 . S
C885 C884 1.386 . S
C885 C889 1.393 . S
C886 H878 0.950 . S
C886 C884 1.391 . S
C886 C887 1.400 . S
C887 C886 1.400 . S
C887 C888 1.398 . S
C887 C893 1.491 . S
C888 H879 0.950 . S
C888 C887 1.398 . S
C888 C889 1.391 . S
C889 H877 0.950 . S
C889 C885 1.393 . S
C889 C888 1.391 . S
C890 H880 0.950 . S
C890 C891 1.386 . S
C890 C892 1.391 . S
C891 C890 1.386 . S
C891 C895 1.393 . S
C892 H881 0.950 . S
C892 C890 1.391 . S
C892 C893 1.400 . S
C893 C887 1.491 . S
C893 C892 1.400 . S
C893 C894 1.398 . S
C894 H882 0.950 . S
C894 C893 1.398 . S
C894 C895 1.391 . S
C895 H883 0.950 . S
C895 C891 1.393 . S
C895 C894 1.391 . S
H896 C904 0.950 . S
H897 C909 0.950 . S
H898 C906 0.950 . S
H899 C908 0.950 . S
H900 C910 0.950 . S
H901 C912 0.950 . S
H902 C914 0.950 . S
H903 C915 0.950 . S
C904 H896 0.950 . S
C904 C905 1.386 . S
C904 C906 1.391 . S
C905 C904 1.386 . S
C905 C909 1.393 . S
C906 H898 0.950 . S
C906 C904 1.391 . S
C906 C907 1.400 . S
C907 C906 1.400 . S
C907 C908 1.398 . S
C907 C913 1.491 . S
C908 H899 0.950 . S
C908 C907 1.398 . S
C908 C909 1.391 . S
C909 H897 0.950 . S
C909 C905 1.393 . S
C909 C908 1.391 . S
C910 H900 0.950 . S
C910 C911 1.386 . S
C910 C912 1.391 . S
C911 C910 1.386 . S
C911 C915 1.393 . S
C912 H901 0.950 . S
C912 C910 1.391 . S
C912 C913 1.400 . S
C913 C907 1.491 . S
C913 C912 1.400 . S
C913 C914 1.398 . S
C914 H902 0.950 . S
C914 C913 1.398 . S
C914 C915 1.391 . S
C915 H903 0.950 . S
C915 C911 1.393 . S
C915 C914 1.391 . S
H916 C924 0.950 . S
H917 C929 0.950 . S
H918 C926 0.950 . S
H919 C928 0.950 . S
H920 C930 0.950 . S
H921 C932 0.950 . S
H922 C934 0.950 . S
H923 C935 0.950 . S
C924 H916 0.950 . S
C924 C925 1.386 . S
C924 C926 1.391 . S
C925 C924 1.386 . S
C925 C929 1.393 . S
C926 H918 0.950 . S
C926 C924 1.391 . S
C926 C927 1.400 . S
C927 C926 1.400 . S
C927 C928 1.398 . S
C927 C933 1.491 . S
C928 H919 0.950 . S
C928 C927 1.398 . S
C928 C929 1.391 . S
C929 H917 0.950 . S
C929 C925 1.393 . S
C929 C928 1.391 . S
C930 H920 0.950 . S
C930 C931 1.386 . S
C930 C932 1.391 . S
C931 C930 1.386 . S
C931 C935 1.393 . S
C932 H921 0.950 . S
C932 C930 1.391 . S
C932 C933 1.400 . S
C933 C927 1.491 . S
C933 C932 1.400 . S
C933 C934 1.398 . S
C934 H922 0.950 . S
C934 C933 1.398 . S
C934 C935 1.391 . S
C935 H923 0.950 . S
C935 C931 1.393 . S
C935 C934 1.391 . S
C465 C39 2.133 . S
C471 C325 2.107 . S
C485 C91 1.417 . S
C491 N343 1.415 . S
C511 C371 1.919 . S
C505 C128 1.946 . S
C531 N389 1.235 . S
C525 C188 1.257 . S
C551 C417 2.021 . S
C545 C250 2.044 . S
C571 N435 1.414 . S
C565 C304 1.413 . S
C585 C75 1.982 . S
C591 C380 1.981 . S
C605 C144 1.425 . S
C611 N399 1.365 . S
C631 C426 2.072 . S
C625 C198 2.070 . S
C651 N445 1.203 . S
C645 C234 1.261 . S
C665 C294 1.887 . S
C671 C334 1.884 . S
C691 N353 1.215 . S
C685 C29 1.278 . S
C711 C403 1.969 . S
C705 C38 2.018 . S
C725 C92 1.310 . S
C731 N422 1.295 . S
C751 C449 1.785 . S
C745 C135 1.831 . S
C765 C181 1.150 . S
C771 N330 1.122 . S
C785 C251 1.933 . S
C791 C357 1.884 . S
C805 C303 1.284 . S
C811 N376 1.262 . S
C825 C82 1.884 . S
C831 C440 1.866 . S
C851 N320 1.232 . S
C845 C145 1.311 . S
C865 C197 1.985 . S
C871 C348 1.971 . S
C885 C241 1.139 . S
C891 N366 1.078 . S
C905 C287 1.802 . S
C911 C394 1.791 . S
C925 C22 1.166 . S
C931 N412 1.091 . S
