# Generated by pormake.
# Topology zzz, (3,6)-cn, num edge types: 1
# Building blocks:
#     Node 0, Type 0, BuildingBlock: WUSLED_clean_sbu_0, # of connection points: 3
#     Node 1, Type 0, BuildingBlock: WUSLED_clean_sbu_0, # of connection points: 3
#     Node 2, Type 0, BuildingBlock: WUSLED_clean_sbu_0, # of connection points: 3
#     Node 3, Type 0, BuildingBlock: WUSLED_clean_sbu_0, # of connection points: 3
#     Node 4, Type 0, BuildingBlock: WUSLED_clean_sbu_0, # of connection points: 3
#     Node 5, Type 0, BuildingBlock: WUSLED_clean_sbu_0, # of connection points: 3
#     Node 6, Type 0, BuildingBlock: WUSLED_clean_sbu_0, # of connection points: 3
#     Node 7, Type 0, BuildingBlock: WUSLED_clean_sbu_0, # of connection points: 3
#     Node 8, Type 1, BuildingBlock: LEVNOQ01_clean_sbu_1, # of connection points: 6
#     Node 9, Type 1, BuildingBlock: LEVNOQ01_clean_sbu_1, # of connection points: 6
#     Node 10, Type 1, BuildingBlock: LEVNOQ01_clean_sbu_1, # of connection points: 6
#     Node 11, Type 1, BuildingBlock: LEVNOQ01_clean_sbu_1, # of connection points: 6
#     Edge 12, Type (0, 1), BuildingBlock: AJUNOK_clean_linker_0, # of connection points: 2
#     Edge 13, Type (0, 1), BuildingBlock: AJUNOK_clean_linker_0, # of connection points: 2
#     Edge 14, Type (0, 1), BuildingBlock: AJUNOK_clean_linker_0, # of connection points: 2
#     Edge 15, Type (0, 1), BuildingBlock: AJUNOK_clean_linker_0, # of connection points: 2
#     Edge 16, Type (0, 1), BuildingBlock: AJUNOK_clean_linker_0, # of connection points: 2
#     Edge 17, Type (0, 1), BuildingBlock: AJUNOK_clean_linker_0, # of connection points: 2
#     Edge 18, Type (0, 1), BuildingBlock: AJUNOK_clean_linker_0, # of connection points: 2
#     Edge 19, Type (0, 1), BuildingBlock: AJUNOK_clean_linker_0, # of connection points: 2
#     Edge 20, Type (0, 1), BuildingBlock: AJUNOK_clean_linker_0, # of connection points: 2
#     Edge 21, Type (0, 1), BuildingBlock: AJUNOK_clean_linker_0, # of connection points: 2
#     Edge 22, Type (0, 1), BuildingBlock: AJUNOK_clean_linker_0, # of connection points: 2
#     Edge 23, Type (0, 1), BuildingBlock: AJUNOK_clean_linker_0, # of connection points: 2
#     Edge 24, Type (0, 1), BuildingBlock: AJUNOK_clean_linker_0, # of connection points: 2
#     Edge 25, Type (0, 1), BuildingBlock: AJUNOK_clean_linker_0, # of connection points: 2
#     Edge 26, Type (0, 1), BuildingBlock: AJUNOK_clean_linker_0, # of connection points: 2
#     Edge 27, Type (0, 1), BuildingBlock: AJUNOK_clean_linker_0, # of connection points: 2
#     Edge 28, Type (0, 1), BuildingBlock: AJUNOK_clean_linker_0, # of connection points: 2
#     Edge 29, Type (0, 1), BuildingBlock: AJUNOK_clean_linker_0, # of connection points: 2
#     Edge 30, Type (0, 1), BuildingBlock: AJUNOK_clean_linker_0, # of connection points: 2
#     Edge 31, Type (0, 1), BuildingBlock: AJUNOK_clean_linker_0, # of connection points: 2
#     Edge 32, Type (0, 1), BuildingBlock: AJUNOK_clean_linker_0, # of connection points: 2
#     Edge 33, Type (0, 1), BuildingBlock: AJUNOK_clean_linker_0, # of connection points: 2
#     Edge 34, Type (0, 1), BuildingBlock: AJUNOK_clean_linker_0, # of connection points: 2
#     Edge 35, Type (0, 1), BuildingBlock: AJUNOK_clean_linker_0, # of connection points: 2
# Relax obj value: 0.288
# Max RMSD: 0.214
# Mean RMSD: 0.200
data_MOF--net-zzz--node1-WUSLED_clean_sbu_0--node2-LEVNOQ01_clean_sbu_1--edge1-AJUNOK_clean_linker_0
_symmetry_space_group_name_H-M    P1
_symmetry_Int_Tables_number       1
_symmetry_cell_setting            triclinic
loop_
_symmetry_equiv_pos_as_xyz
'x, y, z'
_cell_length_a     46.36179
_cell_length_b     50.112449
_cell_length_c     17.909462
_cell_angle_alpha  89.658198
_cell_angle_beta   90.124325
_cell_angle_gamma 88.347713
loop_
_atom_site_label
_atom_site_type_symbol
_atom_site_fract_x
_atom_site_fract_y
_atom_site_fract_z
_atom_type_partial_charge
C0 C 0.82854 0.58906 0.31377 0.0
C1 C 0.85644 0.58521 0.28414 0.0
C2 C 0.87579 0.57587 0.40931 0.0
C3 C 0.87998 0.57884 0.33181 0.0
C4 C 0.84811 0.58101 0.43848 0.0
C5 C 0.82488 0.58763 0.39139 0.0
U6 U 0.77263 0.59774 0.14221 0.0
O7 O 0.73449 0.57292 0.14101 0.0
O8 O 0.7289 0.61637 0.14893 0.0
C9 C 0.71626 0.59344 0.13987 0.0
C10 C 0.802 0.59134 0.26741 0.0
C11 C 0.69376 0.59231 0.08151 0.0
C12 C 0.643 0.58831 0.04986 0.0
C13 C 0.66462 0.5935 0.10216 0.0
C14 C 0.67937 0.58166 0.95452 0.0
C15 C 0.65008 0.5817 0.97567 0.0
C16 C 0.70097 0.58703 0.00681 0.0
C17 C 0.82806 0.60482 0.98722 0.0
C18 C 0.85991 0.59434 0.88427 0.0
C19 C 0.87744 0.59082 0.01183 0.0
C20 C 0.85074 0.60011 0.03769 0.0
C21 C 0.88157 0.58623 0.93528 0.0
C22 C 0.8331 0.60341 0.91031 0.0
C23 C 0.79845 0.60502 0.01393 0.0
O24 O 0.79269 0.61487 0.24304 0.0
O25 O 0.79622 0.57163 0.2222 0.0
O26 O 0.79052 0.62483 0.05779 0.0
O27 O 0.79038 0.58161 0.03827 0.0
H28 H 0.85981 0.58598 0.22441 0.0
H29 H 0.90103 0.57463 0.30776 0.0
H30 H 0.84415 0.5786 0.49772 0.0
H31 H 0.80359 0.5903 0.41557 0.0
H32 H 0.62075 0.58856 0.06817 0.0
H33 H 0.65863 0.59739 0.1596 0.0
H34 H 0.68584 0.57596 0.89866 0.0
H35 H 0.72338 0.58578 0.98975 0.0
H36 H 0.86276 0.59116 0.8249 0.0
H37 H 0.89359 0.58442 0.05243 0.0
H38 H 0.84695 0.60103 0.09727 0.0
H39 H 0.81564 0.60696 0.87081 0.0
C40 C 0.01571 0.80751 0.33624 0.0
C41 C 0.02454 0.83204 0.30716 0.0
C42 C 1.0122 0.85411 0.42505 0.0
C43 C 0.02276 0.85518 0.35127 0.0
C44 C 1.00366 0.82941 0.45364 0.0
C45 C 1.00535 0.80646 0.4097 0.0
U46 U 0.0188 0.75793 0.16359 0.0
O47 O 0.0402 0.71815 0.16502 0.0
O48 O 0.99299 0.72186 0.15935 0.0
C49 C 0.01582 0.70582 0.15554 0.0
C50 C 0.01687 0.78236 0.29342 0.0
C51 C 0.01551 0.6861 0.09497 0.0
C52 C 1.01289 0.63983 0.05758 0.0
C53 C 1.01181 0.65925 0.1131 0.0
C54 C 0.02026 0.67399 0.96388 0.0
C55 C 0.01782 0.64683 0.98256 0.0
C56 C 0.01921 0.69352 0.01981 0.0
C57 C 0.02383 0.81064 0.00606 0.0
C58 C 0.02686 0.83983 0.89826 0.0
C59 C 0.02957 0.85795 0.0234 0.0
C60 C 0.0264 0.83251 0.05349 0.0
C61 C 0.0302 0.86176 0.94566 0.0
C62 C 0.02381 0.81435 0.92847 0.0
C63 C 0.02186 0.78367 0.03609 0.0
O64 O 0.99379 0.77653 0.25483 0.0
O65 O 0.04118 0.77516 0.26037 0.0
O66 O 0.04468 0.77459 0.07297 0.0
O67 O 0.99733 0.77809 0.06846 0.0
H68 H 0.03291 0.83327 0.25092 0.0
H69 H 0.03019 0.87379 0.32825 0.0
H70 H 0.99556 0.82782 0.51014 0.0
H71 H 0.99855 0.78771 0.4334 0.0
H72 H 1.0107 0.61916 0.07386 0.0
H73 H 1.00866 0.6532 0.17064 0.0
H74 H 0.02417 0.67996 0.90665 0.0
H75 H 0.0219 0.71427 0.00473 0.0
H76 H 0.0267 0.84235 0.83813 0.0
H77 H 0.0322 0.87459 0.06091 0.0
H78 H 0.02639 0.82982 0.11351 0.0
H79 H 0.02169 0.79752 0.89132 0.0
C80 C 0.7018 0.91671 0.34696 0.0
C81 C 0.67482 0.92198 0.31281 0.0
C82 C 0.6531 0.9318 0.43427 0.0
C83 C 0.65062 0.92943 0.35627 0.0
C84 C 0.67972 0.92507 0.46818 0.0
C85 C 0.70373 0.91757 0.42504 0.0
U86 U 0.74594 0.90857 0.16377 0.0
O87 O 0.78347 0.93219 0.13435 0.0
O88 O 0.78816 0.88853 0.1402 0.0
C89 C 0.80085 0.91122 0.1268 0.0
C90 C 0.7289 0.91388 0.30338 0.0
C91 C 0.82191 0.91248 0.06491 0.0
C92 C 0.87084 0.92332 0.02777 0.0
C93 C 0.85094 0.91654 0.08303 0.0
C94 C 0.83348 0.91998 0.93405 0.0
C95 C 0.86206 0.92628 0.95303 0.0
C96 C 0.81348 0.91331 0.98959 0.0
C97 C 0.69442 0.90319 0.98753 0.0
C98 C 0.68776 0.92867 0.87327 0.0
C99 C 0.64894 0.90237 0.92206 0.0
C100 C 0.66698 0.89277 0.97874 0.0
C101 C 0.65835 0.92256 0.87389 0.0
C102 C 0.70577 0.91928 0.93097 0.0
C103 C 0.70525 0.90421 0.06411 0.0
O104 O 0.73514 0.89057 0.2731 0.0
O105 O 0.73444 0.93403 0.25908 0.0
O106 O 0.71455 0.92726 0.08746 0.0
O107 O 0.71862 0.88319 0.09361 0.0
H108 H 0.67282 0.92167 0.25254 0.0
H109 H 0.63051 0.93499 0.32864 0.0
H110 H 0.68238 0.92719 0.52796 0.0
H111 H 0.72431 0.91386 0.45257 0.0
H112 H 0.89252 0.92826 0.04441 0.0
H113 H 0.85788 0.91609 0.14086 0.0
H114 H 0.82616 0.92192 0.87675 0.0
H115 H 0.79122 0.91025 0.97419 0.0
H116 H 0.6956 0.94374 0.8354 0.0
H117 H 0.62644 0.89717 0.92439 0.0
H118 H 0.65788 0.88033 0.02195 0.0
H119 H 0.72713 0.92726 0.9365 0.0
C120 C 0.50314 0.70504 0.3711 0.0
C121 C 0.50039 0.68074 0.33324 0.0
C122 C 0.50641 0.65613 0.45035 0.0
C123 C 0.50203 0.65645 0.37262 0.0
C124 C 0.5098 0.68053 0.48746 0.0
C125 C 0.50803 0.70472 0.44824 0.0
U126 U 0.50072 0.74468 0.18927 0.0
O127 O 0.47797 0.78261 0.16005 0.0
O128 O 0.52542 0.77971 0.15683 0.0
C129 C 0.50214 0.79494 0.14706 0.0
C130 C 0.50207 0.73077 0.33082 0.0
C131 C 0.50225 0.81484 0.08595 0.0
C132 C 0.4931 0.86106 0.04866 0.0
C133 C 0.49231 0.8408 0.10237 0.0
C134 C 0.51388 0.82974 0.96007 0.0
C135 C 0.50403 0.85592 0.97688 0.0
C136 C 0.51314 0.80933 0.01434 0.0
C137 C 0.49946 0.69346 0.02032 0.0
C138 C 0.47086 0.67544 0.91977 0.0
C139 C 0.51801 0.65593 0.94921 0.0
C140 C 0.52175 0.67496 0.00401 0.0
C141 C 0.49189 0.65508 0.90971 0.0
C142 C 0.47463 0.69463 0.97505 0.0
C143 C 0.4996 0.70522 0.09505 0.0
O144 O 0.52527 0.73591 0.29203 0.0
O145 O 0.47799 0.73666 0.29464 0.0
O146 O 0.47603 0.71736 0.12007 0.0
O147 O 0.52377 0.71496 0.12024 0.0
H148 H 0.49682 0.68059 0.27343 0.0
H149 H 0.49911 0.638 0.34273 0.0
H150 H 0.51356 0.68092 0.54716 0.0
H151 H 0.51048 0.72324 0.47823 0.0
H152 H 0.48451 0.88068 0.06305 0.0
H153 H 0.4839 0.84548 0.15733 0.0
H154 H 0.52224 0.8251 0.90508 0.0
H155 H 0.52108 0.78943 1.00054 0.0
H156 H 0.45062 0.67512 0.88951 0.0
H157 H 0.53435 0.64015 0.94379 0.0
H158 H 0.54084 0.67332 0.03897 0.0
H159 H 0.45708 0.70871 0.98667 0.0
C160 C 0.20405 0.4082 0.09116 0.0
C161 C 0.17646 0.4063 0.12294 0.0
C162 C 0.15438 0.42569 0.0097 0.0
C163 C 0.15176 0.41479 0.08221 0.0
C164 C 0.18213 0.42677 0.97827 0.0
C165 C 0.2065 0.41806 0.01829 0.0
U166 U 0.25147 0.39543 0.26973 0.0
O167 O 0.28802 0.42106 0.28996 0.0
O168 O 0.29535 0.37757 0.28763 0.0
C169 C 0.30678 0.40112 0.29649 0.0
C170 C 0.23103 0.40379 0.13408 0.0
C171 C 0.32945 0.40478 0.35331 0.0
C172 C 0.37334 0.4277 0.38467 0.0
C173 C 0.35267 0.42044 0.33254 0.0
C174 C 0.34881 0.40257 0.47989 0.0
C175 C 0.3718 0.41904 0.45934 0.0
C176 C 0.32766 0.39562 0.42739 0.0
C177 C 0.1948 0.38717 0.4391 0.0
C178 C 0.1764 0.41149 0.54548 0.0
C179 C 0.14345 0.38985 0.46139 0.0
C180 C 0.16684 0.37931 0.42136 0.0
C181 C 0.14831 0.40778 0.51938 0.0
C182 C 0.19973 0.40121 0.50507 0.0
C183 C 0.21518 0.39013 0.37817 0.0
O184 O 0.23697 0.42286 0.1809 0.0
O185 O 0.23747 0.37975 0.16034 0.0
O186 O 0.22617 0.36933 0.34263 0.0
O187 O 0.22388 0.41365 0.35654 0.0
H188 H 0.1741 0.39896 0.17956 0.0
H189 H 0.13076 0.41313 0.10782 0.0
H190 H 0.18526 0.43537 0.92337 0.0
H191 H 0.22758 0.42011 0.99315 0.0
H192 H 0.38967 0.44133 0.36677 0.0
H193 H 0.35418 0.42811 0.27599 0.0
H194 H 0.34677 0.39564 0.53696 0.0
H195 H 0.30969 0.38378 0.445 0.0
H196 H 0.18032 0.42528 0.59054 0.0
H197 H 0.12176 0.38689 0.44092 0.0
H198 H 0.16275 0.36856 0.37028 0.0
H199 H 0.22126 0.40739 0.51932 0.0
C200 C 0.03218 0.20081 0.08071 0.0
C201 C 0.03706 0.17636 0.11775 0.0
C202 C 0.03103 0.15203 1.00043 0.0
C203 C 0.03645 0.15227 0.07807 0.0
C204 C 0.02648 0.17666 0.96355 0.0
C205 C 0.02709 0.20071 0.00328 0.0
U206 U 0.03142 0.25123 0.25055 0.0
O207 O 0.05424 0.28919 0.25816 0.0
O208 O 1.00714 0.28955 0.24906 0.0
C209 C 0.03012 0.30358 0.26167 0.0
C210 C 0.0322 0.22679 0.12013 0.0
C211 C 0.02745 0.32251 0.32455 0.0
C212 C 0.02295 0.36839 0.36823 0.0
C213 C 0.02796 0.35005 0.31053 0.0
C214 C 0.01768 0.33185 0.45564 0.0
C215 C 0.01716 0.35955 0.44124 0.0
C216 C 0.02268 0.31351 0.39783 0.0
C217 C 0.0273 0.19906 0.41237 0.0
C218 C 0.01481 0.17355 0.52215 0.0
C219 C 0.02192 0.15133 0.40324 0.0
C220 C 0.02831 0.17569 0.36986 0.0
C221 C 0.01414 0.15034 0.47891 0.0
C222 C 0.02133 0.1978 0.48891 0.0
C223 C 0.02946 0.22535 0.378 0.0
O224 O 1.00835 0.2343 0.15466 0.0
O225 O 0.05565 0.23284 0.15713 0.0
O226 O 0.05379 0.23076 0.3443 0.0
O227 O 1.00638 0.23396 0.34152 0.0
H228 H 0.04118 0.17588 0.17722 0.0
H229 H 0.04009 0.1337 0.10835 0.0
H230 H 0.02158 0.17737 0.90442 0.0
H231 H 0.02323 0.21936 0.97345 0.0
H232 H 0.02261 0.38952 0.35512 0.0
H233 H 0.03154 0.35741 0.25441 0.0
H234 H 0.01386 0.32434 0.51148 0.0
H235 H 0.02227 0.29231 0.41003 0.0
H236 H 1.00946 0.17304 0.58102 0.0
H237 H 0.0217 0.13351 0.36931 0.0
H238 H 0.03293 0.17648 0.31073 0.0
H239 H 0.02062 0.21576 0.52237 0.0
C240 C 0.32191 0.10593 0.08695 0.0
C241 C 0.34831 0.09859 0.12163 0.0
C242 C 0.3699 0.08845 1.0004 0.0
C243 C 0.37215 0.08996 0.0786 0.0
C244 C 0.34427 0.09805 0.96601 0.0
C245 C 0.32053 0.10657 0.00882 0.0
U246 U 0.27934 0.11443 0.27024 0.0
O247 O 0.23539 0.13057 0.29632 0.0
O248 O 0.24579 0.08763 0.30876 0.0
C249 C 0.22593 0.10678 0.3135 0.0
C250 C 0.29464 0.10834 0.12985 0.0
C251 C 0.20345 0.10395 0.37156 0.0
C252 C 0.15248 0.09635 0.39491 0.0
C253 C 0.17447 0.10534 0.34837 0.0
C254 C 0.18778 0.08629 0.49146 0.0
C255 C 0.15901 0.08591 0.46596 0.0
C256 C 0.20989 0.09524 0.44462 0.0
C257 C 0.33403 0.12258 0.43801 0.0
C258 C 0.34478 0.09089 0.53698 0.0
C259 C 0.38229 0.11897 0.489 0.0
C260 C 0.36209 0.13214 0.4432 0.0
C261 C 0.37407 0.09662 0.53013 0.0
C262 C 0.32458 0.1041 0.49114 0.0
C263 C 0.32177 0.12237 0.36285 0.0
O264 O 0.29025 0.08847 0.176 0.0
O265 O 0.28732 0.13175 0.15815 0.0
O266 O 0.30495 0.14217 0.33873 0.0
O267 O 0.31478 0.09877 0.3382 0.0
H268 H 0.3499 0.09786 0.18198 0.0
H269 H 0.39152 0.08256 0.10667 0.0
H270 H 0.34188 0.09714 0.90589 0.0
H271 H 0.30044 0.11198 0.98082 0.0
H272 H 0.1307 0.09559 0.37312 0.0
H273 H 0.16904 0.11155 0.29188 0.0
H274 H 0.19341 0.07786 0.54557 0.0
H275 H 0.23207 0.09371 0.46366 0.0
H276 H 0.33821 0.07384 0.5696 0.0
H277 H 0.40487 0.12371 0.48379 0.0
H278 H 0.3697 0.14654 0.4029 0.0
H279 H 0.30288 0.09669 0.48843 0.0
C280 C 0.50452 0.30214 0.05961 0.0
C281 C 0.5007 0.32527 0.10296 0.0
C282 C 0.50704 0.35324 0.99285 0.0
C283 C 0.50207 0.35062 0.06985 0.0
C284 C 0.51043 0.33012 0.94941 0.0
C285 C 0.5093 0.30476 0.98263 0.0
U286 U 0.50432 0.25968 0.23496 0.0
O287 O 0.48259 0.22241 0.26377 0.0
O288 O 0.52992 0.22354 0.26516 0.0
C289 C 0.50702 0.2092 0.27676 0.0
C290 C 0.50472 0.27537 0.09475 0.0
C291 C 0.50801 0.19066 0.34133 0.0
C292 C 0.5088 0.14452 0.38524 0.0
C293 C 0.50585 0.16327 0.32732 0.0
C294 C 0.51575 0.18033 0.47309 0.0
C295 C 0.5141 0.15283 0.45846 0.0
C296 C 0.51258 0.19919 0.41493 0.0
C297 C 0.50366 0.31294 0.40089 0.0
C298 C 0.53352 0.32916 0.50109 0.0
C299 C 0.49181 0.35534 0.45795 0.0
C300 C 0.48531 0.33547 0.40755 0.0
C301 C 0.51675 0.35286 0.5021 0.0
C302 C 0.52687 0.30909 0.45073 0.0
C303 C 0.50265 0.29851 0.33052 0.0
O304 O 0.52826 0.2689 0.13242 0.0
O305 O 0.48103 0.26918 0.13033 0.0
O306 O 0.47895 0.28727 0.3076 0.0
O307 O 0.52683 0.28793 0.30442 0.0
H308 H 0.49713 0.32371 0.16258 0.0
H309 H 0.49962 0.36821 0.10443 0.0
H310 H 0.51475 0.33169 0.89014 0.0
H311 H 0.51258 0.28719 0.9484 0.0
H312 H 0.508 0.12346 0.3724 0.0
H313 H 0.50258 0.15628 0.27086 0.0
H314 H 0.52015 0.18711 0.52918 0.0
H315 H 0.51441 0.22022 0.42703 0.0
H316 H 0.5527 0.32699 0.53551 0.0
H317 H 0.47878 0.37367 0.45764 0.0
H318 H 0.46759 0.33896 0.36878 0.0
H319 H 0.54126 0.29176 0.44628 0.0
O320 O 0.07203 0.9759 0.8098 0.0
Mg321 Mg 0.06057 0.98223 0.69799 0.0
O322 O 0.02545 0.97514 0.79708 0.0
Mg323 Mg 1.0104 0.0047 0.70494 0.0
O324 O 0.05576 0.01915 0.64675 0.0
O325 O 0.09599 0.993 0.64498 0.0
O326 O 0.99264 0.03242 0.61426 0.0
O327 O 0.0206 0.04316 0.78551 0.0
Mg328 Mg 0.97123 0.0281 0.77128 0.0
O329 O 0.96386 0.98865 0.75679 0.0
O330 O 0.96899 0.0589 0.69032 0.0
O331 O 0.98878 0.03904 0.87314 0.0
O332 O 0.93098 0.01923 0.79598 0.0
C333 C 0.02161 0.94806 0.61285 0.0
C334 C 0.04812 0.96749 0.83149 0.0
C335 C 0.08259 0.01481 0.62568 0.0
C336 C 0.97977 0.05456 0.62683 0.0
C337 C 1.01052 0.05066 0.84886 0.0
C338 C 0.93829 0.99464 0.78456 0.0
O339 O 0.04613 0.94795 0.64365 0.0
O340 O 1.00435 0.96823 0.62118 0.0
O341 O 0.43868 0.00646 0.77737 0.0
Mg342 Mg 0.45722 0.97838 0.70349 0.0
O343 O 0.47813 0.0269 0.81291 0.0
Mg344 Mg 0.5111 0.00677 0.72279 0.0
O345 O 0.49433 0.96384 0.75309 0.0
O346 O 0.45532 0.93928 0.73426 0.0
O347 O 0.54353 0.98678 0.63191 0.0
O348 O 0.54405 0.99276 0.80649 0.0
Mg349 Mg 0.56343 0.03296 0.74299 0.0
O350 O 0.52802 0.0499 0.68996 0.0
O351 O 0.58364 0.00533 0.67082 0.0
O352 O 0.56923 0.02347 0.85678 0.0
O353 O 0.56896 0.07126 0.7132 0.0
C354 C 0.45949 0.01355 0.59113 0.0
C355 C 0.45066 0.02369 0.81773 0.0
C356 C 0.48076 0.94158 0.7626 0.0
C357 C 0.57107 0.98935 0.62776 0.0
C358 C 0.56387 -0.001 0.85071 0.0
C359 C 0.54387 0.07091 0.68189 0.0
O360 O 0.4517 0.9896 0.59 0.0
O361 O 0.47869 0.02002 0.63711 0.0
O362 O 0.55554 0.45185 0.81246 0.0
Mg363 Mg 0.57223 0.47776 0.73088 0.0
O364 O 0.51046 0.46818 0.80636 0.0
Mg365 Mg 0.51198 0.50207 0.71316 0.0
O366 O 0.5577 0.51594 0.75502 0.0
O367 O 0.60415 0.50193 0.76245 0.0
O368 O 0.51348 0.53704 0.62163 0.0
O369 O 0.4974 0.5348 0.79134 0.0
Mg370 Mg 0.45577 0.52293 0.7101 0.0
O371 O 0.46605 0.48579 0.66989 0.0
O372 O 0.469 0.55299 0.63842 0.0
O373 O 0.45202 0.53657 0.82073 0.0
O374 O 0.42109 0.50425 0.67396 0.0
C375 C 0.54781 0.45628 0.6061 0.0
C376 C 0.5294 0.45157 0.83345 0.0
C377 C 0.58446 0.52019 0.77371 0.0
C378 C 0.4938 0.5552 0.61015 0.0
C379 C 0.4769 0.54589 0.82693 0.0
C380 C 0.43833 0.48471 0.65556 0.0
O381 O 0.57361 0.46096 0.62309 0.0
O382 O 0.5276 0.46993 0.63571 0.0
O383 O 0.96085 0.48256 0.84532 0.0
Mg384 Mg 0.96339 0.47669 0.72939 0.0
O385 O 0.98307 0.51711 0.80282 0.0
Mg386 Mg 0.01519 0.50345 0.71411 0.0
O387 O 0.99866 0.46073 0.67668 0.0
O388 O 0.95776 0.43887 0.69354 0.0
O389 O 0.04814 0.49017 0.63053 0.0
O390 O 0.04583 0.48231 0.80574 0.0
Mg391 Mg 0.0742 0.53081 0.70995 0.0
O392 O 0.0342 0.54474 0.74372 0.0
O393 O 0.08241 0.51704 0.60013 0.0
O394 O 0.08779 0.50264 0.79305 0.0
O395 O 0.07251 0.57057 0.73642 0.0
C396 C 0.95633 0.52224 0.61772 0.0
C397 C 0.96667 0.5069 0.85081 0.0
C398 C 0.98328 0.43968 0.66519 0.0
C399 C 0.07032 0.49492 0.59262 0.0
C400 C 0.07244 0.4851 0.82394 0.0
C401 C 0.04622 0.56738 0.75746 0.0
O402 O 0.94345 0.50594 0.65973 0.0
O403 O 0.98387 0.52448 0.62267 0.0
C404 C 0.11506 0.07903 0.54846 0.0
C405 C 0.13784 0.0687 0.50405 0.0
C406 C 0.09586 0.0618 0.58525 0.0
C407 C 0.0989 0.03382 0.57822 0.0
H408 H 0.1125 0.10038 0.55608 0.0
H409 H 0.07937 0.07035 0.62139 0.0
S410 S 0.15256 -0.00236 0.459 0.0
N411 N 0.16052 0.02935 0.44961 0.0
N412 N 0.12468 -0.00277 0.51604 0.0
C413 C 0.12066 0.02371 0.53021 0.0
C414 C 0.14007 0.04106 0.49392 0.0
C415 C 0.49998 0.11665 0.54898 0.0
C416 C 0.52127 0.13267 0.51729 0.0
C417 C 0.5072 0.09699 0.60314 0.0
C418 C 0.5359 0.09259 0.62725 0.0
H419 H 0.47766 0.11934 0.53176 0.0
H420 H 0.49028 0.08518 0.62628 0.0
S421 S 0.59989 0.12708 0.55252 0.0
N422 N 0.57219 0.14146 0.5086 0.0
N423 N 0.58601 0.10466 0.60877 0.0
C424 C 0.55738 0.10814 0.59383 0.0
C425 C 0.54998 0.1281 0.53926 0.0
C426 C 0.38067 0.43963 0.58453 0.0
C427 C 0.39188 0.43018 0.51637 0.0
C428 C 0.39706 0.45533 0.63219 0.0
C429 C 0.42539 0.46241 0.61409 0.0
H430 H 0.35837 0.43651 0.59911 0.0
H431 H 0.38678 0.46335 0.68184 0.0
S432 S 0.46662 0.43958 0.44806 0.0
N433 N 0.43484 0.4259 0.43861 0.0
N434 N 0.46491 0.45687 0.52628 0.0
C435 C 0.43771 0.4516 0.54894 0.0
C436 C 0.42113 0.43517 0.50065 0.0
C437 C 0.02503 0.40242 0.51136 0.0
C438 C 1.00914 0.37917 0.50096 0.0
C439 C 0.01672 0.4217 0.5647 0.0
C440 C 0.99282 0.41821 0.61187 0.0
H441 H 0.0438 0.40598 0.47718 0.0
H442 H 0.02852 0.43992 0.56693 0.0
S443 S 0.94165 0.36252 0.59961 0.0
N444 N 0.9664 0.35532 0.53624 0.0
N445 N 0.95179 0.39043 0.63894 0.0
C446 C 0.97646 0.3952 0.6008 0.0
C447 C 0.98448 0.37594 0.5453 0.0
C448 C 0.90967 0.93319 0.88552 0.0
C449 C 0.88062 0.94094 0.89921 0.0
C450 C 0.92799 0.94942 0.84262 0.0
C451 C 0.91799 0.97417 0.81292 0.0
H452 H 0.91849 0.9149 0.91007 0.0
H453 H 0.95047 0.94332 0.83664 0.0
S454 S 0.84383 0.00352 0.83419 0.0
N455 N 0.84308 0.97494 0.88006 0.0
N456 N 0.87664 0.00491 0.79932 0.0
C457 C 0.88868 0.98147 0.82453 0.0
C458 C 0.87028 0.96507 0.86775 0.0
C459 C 0.49039 0.87252 0.84874 0.0
C460 C 0.50288 0.87747 0.91875 0.0
C461 C 0.48489 0.89325 0.79709 0.0
C462 C 0.49187 0.91981 0.81274 0.0
H463 H 0.48342 0.85268 0.83513 0.0
H464 H 0.47409 0.88856 0.74529 0.0
S465 S 0.52664 0.94324 0.98637 0.0
N466 N 0.52404 0.91072 0.99898 0.0
N467 N 0.51244 0.94983 0.90337 0.0
C468 C 0.50527 0.92495 0.88155 0.0
C469 C 0.51111 0.90377 0.93404 0.0
C470 C 0.60827 0.5523 0.9498 0.0
C471 C 0.62767 0.5714 0.92373 0.0
C472 C 0.59102 0.53808 0.90026 0.0
C473 C 0.59248 0.54232 0.82275 0.0
H474 H 0.60797 0.54672 0.00831 0.0
H475 H 0.57845 0.52193 0.92229 0.0
S476 S 0.63531 0.59327 0.72651 0.0
N477 N 0.64363 0.59665 0.81567 0.0
N478 N 0.6121 0.56891 0.7227 0.0
C479 C 0.60989 0.56273 0.79635 0.0
C480 C 0.62723 0.57752 0.84677 0.0
C481 C 1.00849 0.6256 0.85689 0.0
C482 C 0.02326 0.6256 0.92596 0.0
C483 C 0.01438 0.6057 0.80301 0.0
C484 C 0.03524 0.58532 0.8168 0.0
H485 H 0.99249 0.64117 0.84431 0.0
H486 H 1.00337 0.60678 0.74964 0.0
S487 S 0.08003 0.57655 0.98741 0.0
N488 N 0.05984 0.60353 0.00373 0.0
N489 N 0.0704 0.56624 0.90387 0.0
C490 C 0.04966 0.58494 0.88585 0.0
C491 C 0.04385 0.60505 0.94003 0.0
C492 C 0.02081 0.10192 0.50718 0.0
C493 C 1.00377 0.12543 0.51163 0.0
C494 C 1.01159 0.07825 0.53959 0.0
C495 C 0.98509 0.0774 0.57771 0.0
H496 H 0.04179 0.10206 0.48063 0.0
H497 H 0.02614 0.06094 0.53844 0.0
S498 S 0.93159 0.13319 0.59883 0.0
N499 N 0.95844 0.14623 0.55194 0.0
N500 N 0.94122 0.10163 0.61403 0.0
C501 C 0.96742 0.10058 0.58009 0.0
C502 C 0.97678 0.12466 0.54695 0.0
C503 C 0.41605 0.07826 0.60175 0.0
C504 C 0.39575 0.07545 0.54503 0.0
C505 C 0.43708 0.0583 0.61424 0.0
C506 C 0.43903 0.03519 0.56908 0.0
H507 H 0.4153 0.09566 0.6374 0.0
H508 H 0.45119 0.06065 0.66185 0.0
S509 S 0.39133 0.01978 0.41038 0.0
N510 N 0.37889 0.04886 0.44145 0.0
N511 N 0.41898 0.01126 0.46469 0.0
C512 C 0.41903 0.03252 0.51133 0.0
C513 C 0.39734 0.05276 0.49913 0.0
C514 C 0.55276 0.38824 0.51529 0.0
C515 C 0.52701 0.37674 0.5392 0.0
C516 C 0.55949 0.41422 0.53636 0.0
C517 C 0.54047 0.42935 0.58121 0.0
H518 H 0.56703 0.37758 0.47723 0.0
H519 H 0.57928 0.42267 0.51622 0.0
S520 S 0.47293 0.40551 0.66913 0.0
N521 N 0.4844 0.38053 0.61651 0.0
N522 N 0.49685 0.42894 0.65833 0.0
C523 C 0.51558 0.41706 0.60954 0.0
C524 C 0.50891 0.39081 0.58797 0.0
C525 C 0.12748 0.45283 0.49575 0.0
C526 C 0.12642 0.42849 0.53506 0.0
C527 C 0.1084 0.47406 0.51221 0.0
C528 C 0.08766 0.47147 0.56832 0.0
H529 H 0.14365 0.45558 0.45299 0.0
H530 H 0.11029 0.49275 0.48214 0.0
S531 S 0.07726 0.41137 0.6886 0.0
N532 N 0.10361 0.40252 0.63126 0.0
N533 N 0.06836 0.44254 0.66616 0.0
C534 C 0.08658 0.44692 0.60819 0.0
C535 C 0.10581 0.42533 0.59042 0.0
C536 C 0.01899 0.91063 0.94248 0.0
C537 C 0.0352 0.88863 0.91529 0.0
C538 C 0.02453 0.93657 0.91859 0.0
C539 C 0.04689 0.9414 0.8681 0.0
H540 H 1.0016 0.90769 0.98175 0.0
H541 H 1.01082 0.95292 0.9383 0.0
S542 S 0.09318 0.89038 0.7731 0.0
N543 N 0.07298 0.8731 0.83054 0.0
N544 N 0.08344 0.92198 0.78566 0.0
C545 C 0.06285 0.91952 0.83905 0.0
C546 C 0.05692 0.89308 0.86248 0.0
C547 C 0.63935 0.9692 0.87379 0.0
C548 C 0.63656 0.94278 0.84897 0.0
C549 C 0.61553 0.98687 0.87719 0.0
C550 C 0.58798 0.97892 0.85544 0.0
H551 H 0.65967 0.97584 0.89586 0.0
H552 H 0.61882 0.00687 0.89749 0.0
S553 S 0.57094 0.91336 0.77 0.0
N554 N 0.60556 0.91072 0.79097 0.0
N555 N 0.56054 0.94357 0.79655 0.0
C556 C 0.58551 0.95302 0.82458 0.0
C557 C 0.60987 0.93518 0.82088 0.0
C558 C 0.46093 0.61572 0.899 0.0
C559 C 0.48477 0.62987 0.8732 0.0
C560 C 0.45856 0.58844 0.88461 0.0
C561 C 0.48015 0.5744 0.84491 0.0
H562 H 0.44495 0.62536 0.93457 0.0
H563 H 0.44012 0.57815 0.90642 0.0
S564 S 0.54375 0.60428 0.75207 0.0
N565 N 0.52763 0.62936 0.79605 0.0
N566 N 0.52419 0.57808 0.77027 0.0
C567 C 0.50307 0.58902 0.81407 0.0
C568 C 0.50501 0.61679 0.82755 0.0
C569 C 0.8968 0.54465 0.8709 0.0
C570 C 0.90457 0.56723 0.9118 0.0
C571 C 0.91679 0.52403 0.85688 0.0
C572 C 0.94527 0.52529 0.88291 0.0
H573 H 0.87491 0.54257 0.85089 0.0
H574 H 0.91017 0.50745 0.82286 0.0
S575 S 0.97666 0.58 0.99065 0.0
N576 N 0.94273 0.58979 0.97721 0.0
N577 N 0.9807 0.55082 0.94909 0.0
C578 C 0.95353 0.54778 0.92273 0.0
C579 C 0.93306 0.56879 0.93772 0.0
C580 C 1.01133 0.10607 0.99307 0.0
C581 C 0.02787 0.12604 0.96021 0.0
C582 C 1.0072 0.08159 0.95781 0.0
C583 C 0.0193 0.07564 0.88741 0.0
H584 H 1.0008 0.10958 0.0462 0.0
H585 H 0.99369 0.06739 0.98579 0.0
S586 S 0.06458 0.12104 0.77616 0.0
N587 N 0.05684 0.13814 0.85253 0.0
N588 N 0.04864 0.09214 0.78559 0.0
C589 C 0.0361 0.09534 0.85356 0.0
C590 C 0.04035 0.1205 0.88981 0.0
C591 C 0.42071 0.07837 0.95081 0.0
C592 C 0.39126 0.07219 0.95602 0.0
C593 C 0.44021 0.06265 0.90721 0.0
C594 C 0.43101 0.03997 0.8682 0.0
H595 H 0.42859 0.09568 0.9795 0.0
H596 H 0.46247 0.0685 0.90337 0.0
S597 S 0.35612 0.01433 0.87041 0.0
N598 N 0.3543 0.04129 0.92253 0.0
N599 N 0.38995 0.01177 0.84271 0.0
C600 C 0.40155 0.03343 0.87551 0.0
C601 C 0.382 0.04947 0.91879 0.0
C602 C 0.49114 0.39065 0.90621 0.0
C603 C 0.511 0.37997 0.95877 0.0
C604 C 0.49593 0.41518 0.8701 0.0
C605 C 0.52115 0.42939 0.88375 0.0
H606 H 0.47206 0.37974 0.8921 0.0
H607 H 0.48055 0.42236 0.82853 0.0
S608 S 0.57914 0.41022 0.01866 0.0
N609 N 0.55592 0.38595 0.02528 0.0
N610 N 0.56549 0.43139 0.95604 0.0
C611 C 0.54069 0.41915 0.93778 0.0
C612 C 0.5355 0.39458 0.97548 0.0
C613 C 0.12777 0.43336 0.8886 0.0
C614 C 0.12906 0.43713 0.9665 0.0
C615 C 0.10798 0.44786 0.84377 0.0
C616 C 0.08768 0.46593 0.87469 0.0
H617 H 0.14321 0.42007 0.86127 0.0
H618 H 0.10972 0.44601 0.78381 0.0
S619 S 0.08084 0.48292 0.07489 0.0
N620 N 0.10763 0.46047 0.07253 0.0
N621 N 0.06955 0.48667 0.98777 0.0
C622 C 0.08757 0.46903 0.95254 0.0
C623 C 0.10826 0.45471 0.99855 0.0
C624 C 0.02355 0.87647 0.54618 0.0
C625 C 1.01151 0.87818 0.47405 0.0
C626 C 0.02513 0.89902 0.59179 0.0
C627 C 0.0144 0.92427 0.56792 0.0
H628 H 0.03284 0.85773 0.56664 0.0
H629 H 0.03563 0.8968 0.6457 0.0
S630 S 0.97792 0.93894 0.38736 0.0
N631 N 0.98655 0.90676 0.38322 0.0
N632 N 0.98942 0.94921 0.46945 0.0
C633 C 1.00087 0.92604 0.49771 0.0
C634 C 0.99957 0.90302 0.45061 0.0
C635 C 0.60434 0.93504 0.49999 0.0
C636 C 0.63056 0.94647 0.47856 0.0
C637 C 0.58427 0.94908 0.5461 0.0
C638 C 0.58983 0.97501 0.57186 0.0
H639 H 0.59969 0.91494 0.48265 0.0
H640 H 0.56487 0.93929 0.56356 0.0
S641 S 0.65464 0.01412 0.52583 0.0
N642 N 0.66025 0.98533 0.4834 0.0
N643 N 0.62312 0.0118 0.56751 0.0
C644 C 0.61571 0.98669 0.54819 0.0
C645 C 0.63589 0.97243 0.5023 0.0
C646 C 0.52159 0.60779 0.4738 0.0
C647 C 0.50498 0.63072 0.49367 0.0
C648 C 0.51906 0.5834 0.51294 0.0
C649 C 0.49942 0.5811 0.57224 0.0
H650 H 0.5365 0.6087 0.42745 0.0
H651 H 0.53181 0.56614 0.49525 0.0
S652 S 0.45236 0.63588 0.64896 0.0
N653 N 0.46912 0.64968 0.5781 0.0
N654 N 0.46476 0.60474 0.65234 0.0
C655 C 0.48353 0.6043 0.59399 0.0
C656 C 0.48615 0.62884 0.55449 0.0
C657 C 0.89238 0.53804 0.49033 0.0
C658 C 0.89824 0.56293 0.45848 0.0
C659 C 0.91173 0.52524 0.53972 0.0
C660 C 0.93805 0.53667 0.56046 0.0
H661 H 0.87242 0.52833 0.47716 0.0
H662 H 0.90574 0.50607 0.56221 0.0
S663 S 0.96314 0.60243 0.49512 0.0
N664 N 0.9319 0.59911 0.45189 0.0
N665 N 0.96853 0.57502 0.54575 0.0
C666 C 0.94438 0.56162 0.52869 0.0
C667 C 0.92444 0.57474 0.47764 0.0
loop_
_geom_bond_atom_site_label_1
_geom_bond_atom_site_label_2
_geom_bond_distance
_geom_bond_site_symmetry_2
_ccdc_geom_bond_type
C0 C1 1.264 . S
C0 C5 1.479 . S
C0 C10 1.465 . S
C1 C0 1.264 . S
C1 C3 1.339 . S
C1 H28 0.931 . S
C2 C3 1.395 . S
C2 C4 1.320 . S
C3 C1 1.339 . S
C3 C2 1.395 . S
C3 H29 0.929 . S
C4 C2 1.320 . S
C4 C5 1.405 . S
C4 H30 0.930 . S
C5 C0 1.479 . S
C5 C4 1.405 . S
C5 H31 0.931 . S
U6 O7 2.454 . S
U6 O8 2.458 . S
U6 C9 2.984 . S
U6 C10 2.847 . S
U6 C23 2.882 1_554 S
U6 O24 2.441 . S
U6 O25 2.420 . S
U6 O26 2.455 1_554 S
U6 O27 2.449 . S
O7 U6 2.454 . S
O7 C9 1.353 . S
O8 U6 2.458 . S
O8 C9 1.286 . S
C9 U6 2.984 . S
C9 O7 1.353 . S
C9 O8 1.286 . S
C9 C11 1.363 . S
C10 C0 1.465 . S
C10 U6 2.847 . S
C10 O24 1.249 . S
C10 O25 1.202 . S
C11 C9 1.363 . S
C11 C13 1.408 . S
C11 C16 1.342 1_554 S
C12 C13 1.310 . S
C12 C15 1.461 1_554 S
C12 H32 0.932 . S
C13 C11 1.408 . S
C13 C12 1.310 . S
C13 H33 0.930 . S
C14 C15 1.474 . S
C14 C16 1.285 . S
C14 H34 0.929 . S
C15 C12 1.461 1_556 S
C15 C14 1.474 . S
C16 C11 1.342 1_556 S
C16 C14 1.285 . S
C16 H35 0.930 . S
C17 C20 1.424 . S
C17 C22 1.245 . S
C17 C23 1.428 . S
C18 C21 1.260 . S
C18 C22 1.477 . S
C18 H36 0.932 . S
C19 C20 1.384 . S
C19 C21 1.479 . S
C19 H37 0.929 . S
C20 C17 1.424 . S
C20 C19 1.384 . S
C20 H38 0.928 . S
C21 C18 1.260 . S
C21 C19 1.479 . S
C22 C17 1.245 . S
C22 C18 1.477 . S
C22 H39 0.932 . S
C23 U6 2.882 1_556 S
C23 C17 1.428 . S
C23 O26 1.301 . S
C23 O27 1.282 1_556 S
O24 U6 2.441 . S
O24 C10 1.249 . S
O25 U6 2.420 . S
O25 C10 1.202 . S
O26 U6 2.455 1_556 S
O26 C23 1.301 . S
O27 U6 2.449 . S
O27 C23 1.282 1_554 S
H28 C1 0.931 . S
H29 C3 0.929 . S
H30 C4 0.930 . S
H31 C5 0.931 . S
H32 C12 0.932 . S
H33 C13 0.930 . S
H34 C14 0.929 . S
H35 C16 0.930 . S
H36 C18 0.932 . S
H37 C19 0.929 . S
H38 C20 0.928 . S
H39 C22 0.932 . S
C40 C41 1.264 . S
C40 C45 1.479 . S
C40 C50 1.465 . S
C41 C40 1.264 . S
C41 C43 1.339 . S
C41 H68 0.931 . S
C42 C43 1.395 . S
C42 C44 1.320 . S
C43 C41 1.339 . S
C43 C42 1.395 . S
C43 H69 0.929 . S
C44 C42 1.320 . S
C44 C45 1.405 . S
C44 H70 0.930 1_455 S
C45 C40 1.479 . S
C45 C44 1.405 . S
C45 H71 0.931 . S
U46 O47 2.454 . S
U46 O48 2.458 . S
U46 C49 2.984 . S
U46 C50 2.847 . S
U46 C63 2.882 1_554 S
U46 O64 2.441 . S
U46 O65 2.420 . S
U46 O66 2.455 1_554 S
U46 O67 2.449 . S
O47 U46 2.454 . S
O47 C49 1.353 . S
O48 U46 2.458 . S
O48 C49 1.286 . S
C49 U46 2.984 . S
C49 O47 1.353 . S
C49 O48 1.286 . S
C49 C51 1.363 . S
C50 C40 1.465 . S
C50 U46 2.847 . S
C50 O64 1.249 . S
C50 O65 1.202 . S
C51 C49 1.363 . S
C51 C53 1.408 . S
C51 C56 1.342 1_554 S
C52 C53 1.310 . S
C52 C55 1.461 . S
C52 H72 0.932 . S
C53 C51 1.408 . S
C53 C52 1.310 . S
C53 H73 0.930 . S
C54 C55 1.474 1_656 S
C54 C56 1.284 1_655 S
C54 H74 0.931 . S
C55 C52 1.461 . S
C55 C54 1.474 1_454 S
C56 C51 1.342 1_556 S
C56 C54 1.284 1_455 S
C56 H75 0.932 . S
C57 C60 1.424 . S
C57 C62 1.245 . S
C57 C63 1.428 . S
C58 C61 1.260 . S
C58 C62 1.477 . S
C58 H76 0.932 . S
C59 C60 1.384 . S
C59 C61 1.479 . S
C59 H77 0.929 . S
C60 C57 1.424 . S
C60 C59 1.384 . S
C60 H78 0.928 1_556 S
C61 C58 1.260 . S
C61 C59 1.479 . S
C62 C57 1.245 . S
C62 C58 1.477 . S
C62 H79 0.932 . S
C63 U46 2.882 1_556 S
C63 C57 1.428 . S
C63 O66 1.301 . S
C63 O67 1.282 1_556 S
O64 U46 2.441 . S
O64 C50 1.249 . S
O65 U46 2.420 . S
O65 C50 1.202 . S
O66 U46 2.455 1_556 S
O66 C63 1.301 . S
O67 U46 2.449 . S
O67 C63 1.282 1_554 S
H68 C41 0.931 . S
H69 C43 0.929 . S
H70 C44 0.930 1_655 S
H71 C45 0.931 . S
H72 C52 0.932 . S
H73 C53 0.930 . S
H74 C54 0.931 . S
H75 C56 0.932 . S
H76 C58 0.932 . S
H77 C59 0.929 . S
H78 C60 0.928 1_554 S
H79 C62 0.932 . S
C80 C81 1.264 . S
C80 C85 1.479 . S
C80 C90 1.465 . S
C81 C80 1.264 . S
C81 C83 1.339 . S
C81 H108 0.931 . S
C82 C83 1.395 . S
C82 C84 1.320 . S
C83 C81 1.339 . S
C83 C82 1.395 . S
C83 H109 0.929 . S
C84 C82 1.320 . S
C84 C85 1.405 . S
C84 H110 0.930 . S
C85 C80 1.479 . S
C85 C84 1.405 . S
C85 H111 0.931 . S
U86 O87 2.454 . S
U86 O88 2.458 . S
U86 C89 2.984 . S
U86 C90 2.847 . S
U86 C103 2.882 1_554 S
U86 O104 2.441 . S
U86 O105 2.420 . S
U86 O106 2.455 1_554 S
U86 O107 2.449 . S
O87 U86 2.454 . S
O87 C89 1.353 . S
O88 U86 2.458 . S
O88 C89 1.286 . S
C89 U86 2.984 . S
C89 O87 1.353 . S
C89 O88 1.286 . S
C89 C91 1.363 . S
C90 C80 1.465 . S
C90 U86 2.847 . S
C90 O104 1.249 . S
C90 O105 1.202 . S
C91 C89 1.363 . S
C91 C93 1.408 . S
C91 C96 1.342 1_554 S
C92 C93 1.310 . S
C92 C95 1.461 1_554 S
C92 H112 0.932 . S
C93 C91 1.408 . S
C93 C92 1.310 . S
C93 H113 0.930 . S
C94 C95 1.474 . S
C94 C96 1.285 . S
C94 H114 0.929 . S
C95 C92 1.461 1_556 S
C95 C94 1.474 . S
C96 C91 1.342 1_556 S
C96 C94 1.285 . S
C96 H115 0.930 . S
C97 C100 1.424 . S
C97 C102 1.245 . S
C97 C103 1.428 . S
C98 C101 1.260 . S
C98 C102 1.477 . S
C98 H116 0.932 . S
C99 C100 1.384 . S
C99 C101 1.479 . S
C99 H117 0.929 . S
C100 C97 1.424 . S
C100 C99 1.384 . S
C100 H118 0.913 1_556 S
C101 C98 1.260 . S
C101 C99 1.479 . S
C102 C97 1.245 . S
C102 C98 1.477 . S
C102 H119 0.932 . S
C103 U86 2.882 1_556 S
C103 C97 1.428 . S
C103 O106 1.301 . S
C103 O107 1.282 1_556 S
O104 U86 2.441 . S
O104 C90 1.249 . S
O105 U86 2.420 . S
O105 C90 1.202 . S
O106 U86 2.455 1_556 S
O106 C103 1.301 . S
O107 U86 2.449 . S
O107 C103 1.282 1_554 S
H108 C81 0.931 . S
H109 C83 0.929 . S
H110 C84 0.930 . S
H111 C85 0.931 . S
H112 C92 0.932 . S
H113 C93 0.930 . S
H114 C94 0.929 . S
H115 C96 0.930 . S
H116 C98 0.932 . S
H117 C99 0.929 . S
H118 C100 0.913 1_554 S
H119 C102 0.932 . S
C120 C121 1.264 . S
C120 C125 1.479 . S
C120 C130 1.465 . S
C121 C120 1.264 . S
C121 C123 1.339 . S
C121 H148 0.931 . S
C122 C123 1.395 . S
C122 C124 1.320 . S
C123 C121 1.339 . S
C123 C122 1.395 . S
C123 H149 0.929 . S
C124 C122 1.320 . S
C124 C125 1.405 . S
C124 H150 0.930 . S
C125 C120 1.479 . S
C125 C124 1.405 . S
C125 H151 0.931 . S
U126 O127 2.454 . S
U126 O128 2.458 . S
U126 C129 2.984 . S
U126 C130 2.847 . S
U126 C143 2.876 1_554 S
U126 O144 2.441 . S
U126 O145 2.420 . S
U126 O146 2.455 1_554 S
U126 O147 2.449 . S
O127 U126 2.454 . S
O127 C129 1.353 . S
O128 U126 2.458 . S
O128 C129 1.286 . S
C129 U126 2.984 . S
C129 O127 1.353 . S
C129 O128 1.286 . S
C129 C131 1.363 . S
C130 C120 1.465 . S
C130 U126 2.847 . S
C130 O144 1.249 . S
C130 O145 1.202 . S
C131 C129 1.363 . S
C131 C133 1.408 . S
C131 C136 1.342 1_554 S
C132 C133 1.310 . S
C132 C135 1.461 . S
C132 H152 0.932 . S
C133 C131 1.408 . S
C133 C132 1.310 . S
C133 H153 0.930 . S
C134 C135 1.474 1_556 S
C134 C136 1.285 . S
C134 H154 0.929 . S
C135 C132 1.461 . S
C135 C134 1.474 1_554 S
C136 C131 1.342 1_556 S
C136 C134 1.285 . S
C136 H155 0.930 . S
C137 C140 1.424 . S
C137 C142 1.245 . S
C137 C143 1.434 . S
C138 C141 1.260 . S
C138 C142 1.477 . S
C138 H156 0.932 . S
C139 C140 1.384 . S
C139 C141 1.479 . S
C139 H157 0.929 . S
C140 C137 1.424 . S
C140 C139 1.384 . S
C140 H158 0.928 1_556 S
C141 C138 1.260 . S
C141 C139 1.479 . S
C142 C137 1.245 . S
C142 C138 1.477 . S
C142 H159 0.932 . S
C143 U126 2.876 1_556 S
C143 C137 1.434 . S
C143 O146 1.303 . S
C143 O147 1.274 1_556 S
O144 U126 2.441 . S
O144 C130 1.249 . S
O145 U126 2.420 . S
O145 C130 1.202 . S
O146 U126 2.455 1_556 S
O146 C143 1.303 . S
O147 U126 2.449 . S
O147 C143 1.274 1_554 S
H148 C121 0.931 . S
H149 C123 0.929 . S
H150 C124 0.930 . S
H151 C125 0.931 . S
H152 C132 0.932 . S
H153 C133 0.930 . S
H154 C134 0.929 . S
H155 C136 0.930 . S
H156 C138 0.932 . S
H157 C139 0.929 . S
H158 C140 0.928 1_554 S
H159 C142 0.932 . S
C160 C161 1.264 . S
C160 C165 1.479 . S
C160 C170 1.465 . S
C161 C160 1.264 . S
C161 C163 1.339 . S
C161 H188 0.931 . S
C162 C163 1.395 1_556 S
C162 C164 1.320 . S
C163 C161 1.339 . S
C163 C162 1.395 1_554 S
C163 H189 0.929 . S
C164 C162 1.320 . S
C164 C165 1.405 1_556 S
C164 H190 0.930 . S
C165 C160 1.479 . S
C165 C164 1.405 1_554 S
C165 H191 0.931 . S
U166 O167 2.454 . S
U166 O168 2.458 . S
U166 C169 2.984 . S
U166 C170 2.847 . S
U166 C183 2.882 . S
U166 O184 2.441 . S
U166 O185 2.420 . S
U166 O186 2.455 . S
U166 O187 2.449 . S
O167 U166 2.454 . S
O167 C169 1.353 . S
O168 U166 2.458 . S
O168 C169 1.286 . S
C169 U166 2.984 . S
C169 O167 1.353 . S
C169 O168 1.286 . S
C169 C171 1.363 . S
C170 C160 1.465 . S
C170 U166 2.847 . S
C170 O184 1.249 . S
C170 O185 1.202 . S
C171 C169 1.363 . S
C171 C173 1.408 . S
C171 C176 1.342 . S
C172 C173 1.310 . S
C172 C175 1.461 . S
C172 H192 0.932 . S
C173 C171 1.408 . S
C173 C172 1.310 . S
C173 H193 0.930 . S
C174 C175 1.474 . S
C174 C176 1.285 . S
C174 H194 0.929 . S
C175 C172 1.461 . S
C175 C174 1.474 . S
C176 C171 1.342 . S
C176 C174 1.285 . S
C176 H195 0.930 . S
C177 C180 1.424 . S
C177 C182 1.245 . S
C177 C183 1.428 . S
C178 C181 1.260 . S
C178 C182 1.477 . S
C178 H196 0.932 . S
C179 C180 1.384 . S
C179 C181 1.479 . S
C179 H197 0.929 . S
C180 C177 1.424 . S
C180 C179 1.384 . S
C180 H198 0.928 . S
C181 C178 1.260 . S
C181 C179 1.479 . S
C182 C177 1.245 . S
C182 C178 1.477 . S
C182 H199 0.932 . S
C183 U166 2.882 . S
C183 C177 1.428 . S
C183 O186 1.301 . S
C183 O187 1.282 . S
O184 U166 2.441 . S
O184 C170 1.249 . S
O185 U166 2.420 . S
O185 C170 1.202 . S
O186 U166 2.455 . S
O186 C183 1.301 . S
O187 U166 2.449 . S
O187 C183 1.282 . S
H188 C161 0.931 . S
H189 C163 0.929 . S
H190 C164 0.930 . S
H191 C165 0.931 . S
H192 C172 0.932 . S
H193 C173 0.930 . S
H194 C174 0.929 . S
H195 C176 0.930 . S
H196 C178 0.932 . S
H197 C179 0.929 . S
H198 C180 0.928 . S
H199 C182 0.932 . S
C200 C201 1.264 . S
C200 C205 1.479 . S
C200 C210 1.465 . S
C201 C200 1.264 . S
C201 C203 1.352 . S
C201 H228 0.931 . S
C202 C203 1.384 1_556 S
C202 C204 1.320 . S
C203 C201 1.352 . S
C203 C202 1.384 1_554 S
C203 H229 0.926 1_554 S
C204 C202 1.320 . S
C204 C205 1.405 1_556 S
C204 H230 0.923 1_455 S
C205 C200 1.479 . S
C205 C204 1.405 1_554 S
C205 H231 0.931 . S
U206 O207 2.454 . S
U206 O208 2.458 . S
U206 C209 2.984 . S
U206 C210 2.847 . S
U206 C223 2.882 . S
U206 O224 2.441 . S
U206 O225 2.420 . S
U206 O226 2.455 . S
U206 O227 2.449 . S
O207 U206 2.454 . S
O207 C209 1.353 . S
O208 U206 2.458 . S
O208 C209 1.286 . S
C209 U206 2.984 . S
C209 O207 1.353 . S
C209 O208 1.286 . S
C209 C211 1.363 . S
C210 C200 1.465 . S
C210 U206 2.847 . S
C210 O224 1.249 . S
C210 O225 1.202 . S
C211 C209 1.363 . S
C211 C213 1.408 . S
C211 C216 1.342 . S
C212 C213 1.310 . S
C212 C215 1.462 . S
C212 H232 0.932 . S
C213 C211 1.408 . S
C213 C212 1.310 . S
C213 H233 0.930 . S
C214 C215 1.473 1_655 S
C214 C216 1.285 1_655 S
C214 H234 0.929 . S
C215 C212 1.462 . S
C215 C214 1.473 1_455 S
C216 C211 1.342 . S
C216 C214 1.285 1_455 S
C216 H235 0.930 . S
C217 C220 1.424 . S
C217 C222 1.245 . S
C217 C223 1.428 . S
C218 C221 1.260 . S
C218 C222 1.477 . S
C218 H236 0.932 . S
C219 C220 1.384 . S
C219 C221 1.479 . S
C219 H237 0.929 . S
C220 C217 1.424 . S
C220 C219 1.384 . S
C220 H238 0.928 . S
C221 C218 1.260 . S
C221 C219 1.479 . S
C222 C217 1.245 . S
C222 C218 1.477 . S
C222 H239 0.932 . S
C223 U206 2.882 . S
C223 C217 1.428 . S
C223 O226 1.301 . S
C223 O227 1.282 . S
O224 U206 2.441 . S
O224 C210 1.249 . S
O225 U206 2.420 . S
O225 C210 1.202 . S
O226 U206 2.455 . S
O226 C223 1.301 . S
O227 U206 2.449 . S
O227 C223 1.282 . S
H228 C201 0.931 . S
H229 C203 0.926 1_556 S
H230 C204 0.923 1_655 S
H231 C205 0.931 . S
H232 C212 0.932 . S
H233 C213 0.930 . S
H234 C214 0.929 . S
H235 C216 0.930 . S
H236 C218 0.932 . S
H237 C219 0.929 . S
H238 C220 0.928 . S
H239 C222 0.932 . S
C240 C241 1.264 . S
C240 C245 1.479 . S
C240 C250 1.465 . S
C241 C240 1.264 . S
C241 C243 1.339 . S
C241 H268 0.931 . S
C242 C243 1.395 1_556 S
C242 C244 1.320 . S
C243 C241 1.339 . S
C243 C242 1.395 1_554 S
C243 H269 0.929 . S
C244 C242 1.320 . S
C244 C245 1.405 1_556 S
C244 H270 0.930 . S
C245 C240 1.479 . S
C245 C244 1.405 1_554 S
C245 H271 0.931 . S
U246 O247 2.454 . S
U246 O248 2.458 . S
U246 C249 2.984 . S
U246 C250 2.847 . S
U246 C263 2.882 . S
U246 O264 2.441 . S
U246 O265 2.420 . S
U246 O266 2.455 . S
U246 O267 2.449 . S
O247 U246 2.454 . S
O247 C249 1.353 . S
O248 U246 2.458 . S
O248 C249 1.286 . S
C249 U246 2.984 . S
C249 O247 1.353 . S
C249 O248 1.286 . S
C249 C251 1.363 . S
C250 C240 1.465 . S
C250 U246 2.847 . S
C250 O264 1.249 . S
C250 O265 1.202 . S
C251 C249 1.363 . S
C251 C253 1.408 . S
C251 C256 1.342 . S
C252 C253 1.310 . S
C252 C255 1.461 . S
C252 H272 0.932 . S
C253 C251 1.408 . S
C253 C252 1.310 . S
C253 H273 0.930 . S
C254 C255 1.474 . S
C254 C256 1.285 . S
C254 H274 0.929 . S
C255 C252 1.461 . S
C255 C254 1.474 . S
C256 C251 1.342 . S
C256 C254 1.285 . S
C256 H275 0.930 . S
C257 C260 1.424 . S
C257 C262 1.245 . S
C257 C263 1.428 . S
C258 C261 1.260 . S
C258 C262 1.477 . S
C258 H276 0.932 . S
C259 C260 1.384 . S
C259 C261 1.479 . S
C259 H277 0.929 . S
C260 C257 1.424 . S
C260 C259 1.384 . S
C260 H278 0.928 . S
C261 C258 1.260 . S
C261 C259 1.479 . S
C262 C257 1.245 . S
C262 C258 1.477 . S
C262 H279 0.932 . S
C263 U246 2.882 . S
C263 C257 1.428 . S
C263 O266 1.301 . S
C263 O267 1.282 . S
O264 U246 2.441 . S
O264 C250 1.249 . S
O265 U246 2.420 . S
O265 C250 1.202 . S
O266 U246 2.455 . S
O266 C263 1.301 . S
O267 U246 2.449 . S
O267 C263 1.282 . S
H268 C241 0.931 . S
H269 C243 0.929 . S
H270 C244 0.930 . S
H271 C245 0.931 . S
H272 C252 0.932 . S
H273 C253 0.930 . S
H274 C254 0.929 . S
H275 C256 0.930 . S
H276 C258 0.932 . S
H277 C259 0.929 . S
H278 C260 0.928 . S
H279 C262 0.932 . S
C280 C281 1.264 . S
C280 C285 1.479 . S
C280 C290 1.465 . S
C281 C280 1.264 . S
C281 C283 1.339 1_554 S
C281 H308 0.931 . S
C282 C283 1.395 . S
C282 C284 1.320 . S
C283 C281 1.339 1_556 S
C283 C282 1.395 . S
C283 H309 0.929 . S
C284 C282 1.320 . S
C284 C285 1.405 1_556 S
C284 H310 0.930 . S
C285 C280 1.479 . S
C285 C284 1.405 1_554 S
C285 H311 0.931 . S
U286 O287 2.454 . S
U286 O288 2.458 . S
U286 C289 2.984 . S
U286 C290 2.847 . S
U286 C303 2.882 . S
U286 O304 2.441 . S
U286 O305 2.420 . S
U286 O306 2.455 . S
U286 O307 2.449 . S
O287 U286 2.454 . S
O287 C289 1.353 . S
O288 U286 2.458 . S
O288 C289 1.286 . S
C289 U286 2.984 . S
C289 O287 1.353 . S
C289 O288 1.286 . S
C289 C291 1.363 . S
C290 C280 1.465 . S
C290 U286 2.847 . S
C290 O304 1.249 . S
C290 O305 1.202 . S
C291 C289 1.363 . S
C291 C293 1.408 . S
C291 C296 1.342 . S
C292 C293 1.310 . S
C292 C295 1.461 . S
C292 H312 0.932 . S
C293 C291 1.408 . S
C293 C292 1.310 . S
C293 H313 0.930 . S
C294 C295 1.474 . S
C294 C296 1.285 . S
C294 H314 0.929 . S
C295 C292 1.461 . S
C295 C294 1.474 . S
C296 C291 1.342 . S
C296 C294 1.285 . S
C296 H315 0.930 . S
C297 C300 1.424 . S
C297 C302 1.245 . S
C297 C303 1.428 . S
C298 C301 1.260 . S
C298 C302 1.477 . S
C298 H316 0.932 . S
C299 C300 1.384 . S
C299 C301 1.479 . S
C299 H317 0.929 . S
C300 C297 1.424 . S
C300 C299 1.384 . S
C300 H318 0.928 . S
C301 C298 1.260 . S
C301 C299 1.479 . S
C302 C297 1.245 . S
C302 C298 1.477 . S
C302 H319 0.932 . S
C303 U286 2.882 . S
C303 C297 1.428 . S
C303 O306 1.301 . S
C303 O307 1.282 . S
O304 U286 2.441 . S
O304 C290 1.249 . S
O305 U286 2.420 . S
O305 C290 1.202 . S
O306 U286 2.455 . S
O306 C303 1.301 . S
O307 U286 2.449 . S
O307 C303 1.282 . S
H308 C281 0.931 . S
H309 C283 0.929 . S
H310 C284 0.930 . S
H311 C285 0.931 . S
H312 C292 0.932 . S
H313 C293 0.930 . S
H314 C294 0.929 . S
H315 C296 0.930 . S
H316 C298 0.932 . S
H317 C299 0.929 . S
H318 C300 0.928 . S
H319 C302 0.932 . S
O320 Mg321 1.990 . S
O320 C334 1.253 . S
Mg321 O320 1.990 . S
Mg321 O324 2.180 1_565 S
Mg321 O325 2.117 . S
Mg321 O339 2.030 . S
O322 Mg323 2.072 1_465 S
O322 C334 1.260 . S
Mg323 O322 2.072 1_645 S
Mg323 O324 2.099 1_655 S
Mg323 O326 2.079 . S
Mg323 O327 2.072 1_655 S
Mg323 O329 2.099 . S
Mg323 O340 2.079 1_545 S
O324 Mg321 2.180 1_545 S
O324 Mg323 2.099 1_455 S
O324 C335 1.279 . S
O325 Mg321 2.117 . S
O325 C335 1.250 1_565 S
O326 Mg323 2.079 . S
O326 C336 1.264 . S
O327 Mg323 2.072 1_455 S
O327 C337 1.260 . S
Mg328 O329 2.180 . S
Mg328 O330 2.030 . S
Mg328 O331 1.990 . S
Mg328 O332 2.117 . S
O329 Mg323 2.099 . S
O329 Mg328 2.180 . S
O329 C338 1.279 . S
O330 Mg328 2.030 . S
O330 C336 1.248 . S
O331 Mg328 1.990 . S
O331 C337 1.253 1_655 S
O332 Mg328 2.117 . S
O332 C338 1.250 . S
C333 O339 1.248 1_655 S
C333 O340 1.264 . S
C334 O320 1.253 . S
C334 O322 1.260 . S
C335 O324 1.279 . S
C335 O325 1.250 1_545 S
C336 O326 1.264 . S
C336 O330 1.248 . S
C337 O327 1.260 . S
C337 O331 1.253 1_455 S
C338 O329 1.279 . S
C338 O332 1.250 . S
O339 Mg321 2.030 . S
O339 C333 1.248 1_455 S
O340 Mg323 2.079 1_565 S
O340 C333 1.264 . S
O341 Mg342 1.990 1_545 S
O341 C355 1.253 . S
Mg342 O341 1.990 1_565 S
Mg342 O345 2.180 . S
Mg342 O346 2.117 . S
Mg342 O360 2.030 1_565 S
O343 Mg344 2.072 . S
O343 C355 1.260 . S
Mg344 O343 2.072 . S
Mg344 O345 2.099 1_545 S
Mg344 O347 2.079 1_545 S
Mg344 O348 2.072 1_545 S
Mg344 O350 2.099 . S
Mg344 O361 2.079 . S
O345 Mg342 2.180 . S
O345 Mg344 2.099 1_565 S
O345 C356 1.279 . S
O346 Mg342 2.117 . S
O346 C356 1.250 . S
O347 Mg344 2.079 1_565 S
O347 C357 1.264 . S
O348 Mg344 2.072 1_565 S
O348 C358 1.260 1_565 S
Mg349 O350 2.180 . S
Mg349 O351 2.034 . S
Mg349 O352 1.990 . S
Mg349 O353 2.117 . S
O350 Mg344 2.099 . S
O350 Mg349 2.180 . S
O350 C359 1.279 . S
O351 Mg349 2.034 . S
O351 C357 1.245 1_545 S
O352 Mg349 1.990 . S
O352 C358 1.253 . S
O353 Mg349 2.117 . S
O353 C359 1.250 . S
C354 O360 1.248 . S
C354 O361 1.264 . S
C355 O341 1.253 . S
C355 O343 1.260 . S
C356 O345 1.279 . S
C356 O346 1.250 . S
C357 O347 1.264 . S
C357 O351 1.245 1_565 S
C358 O348 1.260 1_545 S
C358 O352 1.253 . S
C359 O350 1.279 . S
C359 O353 1.250 . S
O360 Mg342 2.030 1_545 S
O360 C354 1.248 . S
O361 Mg344 2.079 . S
O361 C354 1.264 . S
O362 Mg363 1.990 . S
O362 C376 1.253 . S
Mg363 O362 1.990 . S
Mg363 O366 2.180 . S
Mg363 O367 2.117 . S
Mg363 O381 2.030 . S
O364 Mg365 2.072 . S
O364 C376 1.260 . S
Mg365 O364 2.072 . S
Mg365 O366 2.099 . S
Mg365 O368 2.079 . S
Mg365 O369 2.072 . S
Mg365 O371 2.099 . S
Mg365 O382 2.079 . S
O366 Mg363 2.180 . S
O366 Mg365 2.099 . S
O366 C377 1.279 . S
O367 Mg363 2.117 . S
O367 C377 1.250 . S
O368 Mg365 2.079 . S
O368 C378 1.264 . S
O369 Mg365 2.072 . S
O369 C379 1.260 . S
Mg370 O371 2.180 . S
Mg370 O372 2.030 . S
Mg370 O373 1.990 . S
Mg370 O374 2.117 . S
O371 Mg365 2.099 . S
O371 Mg370 2.180 . S
O371 C380 1.279 . S
O372 Mg370 2.030 . S
O372 C378 1.248 . S
O373 Mg370 1.990 . S
O373 C379 1.253 . S
O374 Mg370 2.117 . S
O374 C380 1.250 . S
C375 O381 1.248 . S
C375 O382 1.264 . S
C376 O362 1.253 . S
C376 O364 1.260 . S
C377 O366 1.279 . S
C377 O367 1.250 . S
C378 O368 1.264 . S
C378 O372 1.248 . S
C379 O369 1.260 . S
C379 O373 1.253 . S
C380 O371 1.279 . S
C380 O374 1.250 . S
O381 Mg363 2.030 . S
O381 C375 1.248 . S
O382 Mg365 2.079 . S
O382 C375 1.264 . S
O383 Mg384 1.990 . S
O383 C397 1.253 . S
Mg384 O383 1.990 . S
Mg384 O387 2.180 . S
Mg384 O388 2.117 . S
Mg384 O402 2.030 . S
O385 Mg386 2.072 1_655 S
O385 C397 1.260 . S
Mg386 O385 2.072 1_455 S
Mg386 O387 2.099 1_455 S
Mg386 O389 2.079 . S
Mg386 O390 2.072 . S
Mg386 O392 2.099 . S
Mg386 O403 2.079 1_455 S
O387 Mg384 2.180 . S
O387 Mg386 2.099 1_655 S
O387 C398 1.279 . S
O388 Mg384 2.117 . S
O388 C398 1.250 . S
O389 Mg386 2.079 . S
O389 C399 1.264 . S
O390 Mg386 2.072 . S
O390 C400 1.260 . S
Mg391 O392 2.180 . S
Mg391 O393 2.030 . S
Mg391 O394 1.990 . S
Mg391 O395 2.117 . S
O392 Mg386 2.099 . S
O392 Mg391 2.180 . S
O392 C401 1.279 . S
O393 Mg391 2.030 . S
O393 C399 1.248 . S
O394 Mg391 1.990 . S
O394 C400 1.253 . S
O395 Mg391 2.117 . S
O395 C401 1.250 . S
C396 O402 1.248 . S
C396 O403 1.264 . S
C397 O383 1.253 . S
C397 O385 1.260 . S
C398 O387 1.279 . S
C398 O388 1.250 . S
C399 O389 1.264 . S
C399 O393 1.248 . S
C400 O390 1.260 . S
C400 O394 1.253 . S
C401 O392 1.279 . S
C401 O395 1.250 . S
O402 Mg384 2.030 . S
O402 C396 1.248 . S
O403 Mg386 2.079 1_655 S
O403 C396 1.264 . S
C404 C405 1.369 . S
C404 C406 1.419 . S
C404 H408 0.930 . S
C405 C404 1.369 . S
C405 C414 1.429 . S
C406 C404 1.419 . S
C406 C407 1.363 . S
C406 H409 0.929 . S
C407 C406 1.363 . S
C407 C413 1.428 . S
H408 C404 0.930 . S
H409 C406 0.929 . S
S410 N411 1.613 . S
S410 N412 1.610 . S
N411 S410 1.613 . S
N411 C414 1.350 . S
N412 S410 1.610 . S
N412 C413 1.351 . S
C413 C407 1.428 . S
C413 N412 1.351 . S
C413 C414 1.434 . S
C414 C405 1.429 . S
C414 N411 1.350 . S
C414 C413 1.434 . S
C415 C416 1.369 . S
C415 C417 1.419 . S
C415 H419 0.930 . S
C416 C415 1.369 . S
C416 C425 1.429 . S
C417 C415 1.419 . S
C417 C418 1.363 . S
C417 H420 0.929 . S
C418 C417 1.363 . S
C418 C424 1.428 . S
H419 C415 0.930 . S
H420 C417 0.929 . S
S421 N422 1.613 . S
S421 N423 1.610 . S
N422 S421 1.613 . S
N422 C425 1.350 . S
N423 S421 1.610 . S
N423 C424 1.351 . S
C424 C418 1.428 . S
C424 N423 1.351 . S
C424 C425 1.434 . S
C425 C416 1.429 . S
C425 N422 1.350 . S
C425 C424 1.434 . S
C426 C427 1.369 . S
C426 C428 1.419 . S
C426 H430 0.930 . S
C427 C426 1.369 . S
C427 C436 1.429 . S
C428 C426 1.419 . S
C428 C429 1.363 . S
C428 H431 0.929 . S
C429 C428 1.363 . S
C429 C435 1.428 . S
H430 C426 0.930 . S
H431 C428 0.929 . S
S432 N433 1.613 . S
S432 N434 1.610 . S
N433 S432 1.613 . S
N433 C436 1.350 . S
N434 S432 1.610 . S
N434 C435 1.351 . S
C435 C429 1.428 . S
C435 N434 1.351 . S
C435 C436 1.434 . S
C436 C427 1.429 . S
C436 N433 1.350 . S
C436 C435 1.434 . S
C437 C438 1.369 1_455 S
C437 C439 1.419 . S
C437 H441 0.930 . S
C438 C437 1.369 1_655 S
C438 C447 1.429 . S
C439 C437 1.419 . S
C439 C440 1.363 1_455 S
C439 H442 0.929 . S
C440 C439 1.363 1_655 S
C440 C446 1.428 . S
H441 C437 0.930 . S
H442 C439 0.929 . S
S443 N444 1.613 . S
S443 N445 1.610 . S
N444 S443 1.613 . S
N444 C447 1.350 . S
N445 S443 1.610 . S
N445 C446 1.351 . S
C446 C440 1.428 . S
C446 N445 1.351 . S
C446 C447 1.434 . S
C447 C438 1.429 . S
C447 N444 1.350 . S
C447 C446 1.434 . S
C448 C449 1.369 . S
C448 C450 1.419 . S
C448 H452 0.930 . S
C449 C448 1.369 . S
C449 C458 1.429 . S
C450 C448 1.419 . S
C450 C451 1.363 . S
C450 H453 0.929 . S
C451 C450 1.363 . S
C451 C457 1.428 . S
H452 C448 0.930 . S
H453 C450 0.929 . S
S454 N455 1.613 . S
S454 N456 1.610 . S
N455 S454 1.613 . S
N455 C458 1.350 . S
N456 S454 1.610 . S
N456 C457 1.351 . S
C457 C451 1.428 . S
C457 N456 1.351 . S
C457 C458 1.434 . S
C458 C449 1.429 . S
C458 N455 1.350 . S
C458 C457 1.434 . S
C459 C460 1.369 . S
C459 C461 1.419 . S
C459 H463 0.930 . S
C460 C459 1.369 . S
C460 C469 1.429 . S
C461 C459 1.419 . S
C461 C462 1.363 . S
C461 H464 0.929 . S
C462 C461 1.363 . S
C462 C468 1.428 . S
H463 C459 0.930 . S
H464 C461 0.929 . S
S465 N466 1.613 1_556 S
S465 N467 1.610 . S
N466 S465 1.613 1_554 S
N466 C469 1.350 1_554 S
N467 S465 1.610 . S
N467 C468 1.351 . S
C468 C462 1.428 . S
C468 N467 1.351 . S
C468 C469 1.434 . S
C469 C460 1.429 . S
C469 N466 1.350 1_556 S
C469 C468 1.434 . S
C470 C471 1.369 . S
C470 C472 1.419 . S
C470 H474 0.930 . S
C471 C470 1.369 . S
C471 C480 1.429 . S
C472 C470 1.419 . S
C472 C473 1.363 . S
C472 H475 0.929 . S
C473 C472 1.363 . S
C473 C479 1.428 . S
H474 C470 0.930 . S
H475 C472 0.929 . S
S476 N477 1.613 . S
S476 N478 1.610 . S
N477 S476 1.613 . S
N477 C480 1.350 . S
N478 S476 1.610 . S
N478 C479 1.351 . S
C479 C473 1.428 . S
C479 N478 1.351 . S
C479 C480 1.434 . S
C480 C471 1.429 . S
C480 N477 1.350 . S
C480 C479 1.434 . S
C481 C482 1.369 1_655 S
C481 C483 1.419 . S
C481 H485 0.930 . S
C482 C481 1.369 1_455 S
C482 C491 1.429 . S
C483 C481 1.419 . S
C483 C484 1.363 1_655 S
C483 H486 0.929 . S
C484 C483 1.363 1_455 S
C484 C490 1.428 . S
H485 C481 0.930 . S
H486 C483 0.929 . S
S487 N488 1.613 . S
S487 N489 1.610 . S
N488 S487 1.613 . S
N488 C491 1.350 . S
N489 S487 1.610 . S
N489 C490 1.351 . S
C490 C484 1.428 . S
C490 N489 1.351 . S
C490 C491 1.434 . S
C491 C482 1.429 . S
C491 N488 1.350 . S
C491 C490 1.434 . S
C492 C493 1.361 1_455 S
C492 C494 1.419 . S
C492 H496 0.930 . S
C493 C492 1.361 1_655 S
C493 C502 1.441 . S
C494 C492 1.419 . S
C494 C495 1.363 1_455 S
C494 H497 0.929 . S
C495 C494 1.363 1_655 S
C495 C501 1.428 . S
H496 C492 0.930 . S
H497 C494 0.929 . S
S498 N499 1.613 . S
S498 N500 1.610 . S
N499 S498 1.613 . S
N499 C502 1.350 . S
N500 S498 1.610 . S
N500 C501 1.351 . S
C501 C495 1.428 . S
C501 N500 1.351 . S
C501 C502 1.434 . S
C502 C493 1.441 . S
C502 N499 1.350 . S
C502 C501 1.434 . S
C503 C504 1.369 . S
C503 C505 1.419 . S
C503 H507 0.930 . S
C504 C503 1.369 . S
C504 C513 1.429 . S
C505 C503 1.419 . S
C505 C506 1.363 . S
C505 H508 0.929 . S
C506 C505 1.363 . S
C506 C512 1.428 . S
H507 C503 0.930 . S
H508 C505 0.929 . S
S509 N510 1.613 . S
S509 N511 1.610 . S
N510 S509 1.613 . S
N510 C513 1.350 . S
N511 S509 1.610 . S
N511 C512 1.351 . S
C512 C506 1.428 . S
C512 N511 1.351 . S
C512 C513 1.434 . S
C513 C504 1.429 . S
C513 N510 1.350 . S
C513 C512 1.434 . S
C514 C515 1.369 . S
C514 C516 1.419 . S
C514 H518 0.930 . S
C515 C514 1.369 . S
C515 C524 1.429 . S
C516 C514 1.419 . S
C516 C517 1.363 . S
C516 H519 0.929 . S
C517 C516 1.363 . S
C517 C523 1.428 . S
H518 C514 0.930 . S
H519 C516 0.929 . S
S520 N521 1.613 . S
S520 N522 1.610 . S
N521 S520 1.613 . S
N521 C524 1.350 . S
N522 S520 1.610 . S
N522 C523 1.351 . S
C523 C517 1.428 . S
C523 N522 1.351 . S
C523 C524 1.434 . S
C524 C515 1.429 . S
C524 N521 1.350 . S
C524 C523 1.434 . S
C525 C526 1.369 . S
C525 C527 1.419 . S
C525 H529 0.930 . S
C526 C525 1.369 . S
C526 C535 1.429 . S
C527 C525 1.419 . S
C527 C528 1.363 . S
C527 H530 0.929 . S
C528 C527 1.363 . S
C528 C534 1.428 . S
H529 C525 0.930 . S
H530 C527 0.929 . S
S531 N532 1.613 . S
S531 N533 1.610 . S
N532 S531 1.613 . S
N532 C535 1.350 . S
N533 S531 1.610 . S
N533 C534 1.351 . S
C534 C528 1.428 . S
C534 N533 1.351 . S
C534 C535 1.434 . S
C535 C526 1.429 . S
C535 N532 1.350 . S
C535 C534 1.434 . S
C536 C537 1.361 1_655 S
C536 C538 1.419 . S
C536 H540 0.930 . S
C537 C536 1.361 1_455 S
C537 C546 1.442 . S
C538 C536 1.419 . S
C538 C539 1.363 1_655 S
C538 H541 0.929 . S
C539 C538 1.363 1_455 S
C539 C545 1.428 . S
H540 C536 0.930 . S
H541 C538 0.929 . S
S542 N543 1.613 . S
S542 N544 1.610 . S
N543 S542 1.613 . S
N543 C546 1.350 . S
N544 S542 1.610 . S
N544 C545 1.351 . S
C545 C539 1.428 . S
C545 N544 1.351 . S
C545 C546 1.434 . S
C546 C537 1.442 . S
C546 N543 1.350 . S
C546 C545 1.434 . S
C547 C548 1.369 . S
C547 C549 1.419 . S
C547 H551 0.930 . S
C548 C547 1.369 . S
C548 C557 1.429 . S
C549 C547 1.419 . S
C549 C550 1.363 . S
C549 H552 0.929 . S
C550 C549 1.363 . S
C550 C556 1.428 . S
H551 C547 0.930 . S
H552 C549 0.929 . S
S553 N554 1.613 . S
S553 N555 1.610 . S
N554 S553 1.613 . S
N554 C557 1.350 . S
N555 S553 1.610 . S
N555 C556 1.351 . S
C556 C550 1.428 . S
C556 N555 1.351 . S
C556 C557 1.434 . S
C557 C548 1.429 . S
C557 N554 1.350 . S
C557 C556 1.434 . S
C558 C559 1.369 . S
C558 C560 1.419 . S
C558 H562 0.930 . S
C559 C558 1.369 . S
C559 C568 1.429 . S
C560 C558 1.419 . S
C560 C561 1.363 . S
C560 H563 0.929 . S
C561 C560 1.363 . S
C561 C567 1.428 . S
H562 C558 0.930 . S
H563 C560 0.929 . S
S564 N565 1.613 . S
S564 N566 1.610 . S
N565 S564 1.613 . S
N565 C568 1.350 . S
N566 S564 1.610 . S
N566 C567 1.351 . S
C567 C561 1.428 . S
C567 N566 1.351 . S
C567 C568 1.434 . S
C568 C559 1.429 . S
C568 N565 1.350 . S
C568 C567 1.434 . S
C569 C570 1.369 . S
C569 C571 1.419 . S
C569 H573 0.930 . S
C570 C569 1.369 . S
C570 C579 1.429 . S
C571 C569 1.419 . S
C571 C572 1.363 . S
C571 H574 0.929 . S
C572 C571 1.363 . S
C572 C578 1.428 . S
H573 C569 0.930 . S
H574 C571 0.929 . S
S575 N576 1.613 . S
S575 N577 1.610 . S
N576 S575 1.613 . S
N576 C579 1.350 . S
N577 S575 1.610 . S
N577 C578 1.351 . S
C578 C572 1.428 . S
C578 N577 1.351 . S
C578 C579 1.434 . S
C579 C570 1.429 . S
C579 N576 1.350 . S
C579 C578 1.434 . S
C580 C581 1.369 1_655 S
C580 C582 1.419 . S
C580 H584 0.930 . S
C581 C580 1.369 1_455 S
C581 C590 1.429 . S
C582 C580 1.419 . S
C582 C583 1.363 1_655 S
C582 H585 0.929 . S
C583 C582 1.363 1_455 S
C583 C589 1.428 . S
H584 C580 0.930 . S
H585 C582 0.929 . S
S586 N587 1.613 . S
S586 N588 1.610 . S
N587 S586 1.613 . S
N587 C590 1.350 . S
N588 S586 1.610 . S
N588 C589 1.351 . S
C589 C583 1.428 . S
C589 N588 1.351 . S
C589 C590 1.434 . S
C590 C581 1.429 . S
C590 N587 1.350 . S
C590 C589 1.434 . S
C591 C592 1.369 . S
C591 C593 1.419 . S
C591 H595 0.930 . S
C592 C591 1.369 . S
C592 C601 1.429 . S
C593 C591 1.419 . S
C593 C594 1.363 . S
C593 H596 0.929 . S
C594 C593 1.363 . S
C594 C600 1.428 . S
H595 C591 0.930 . S
H596 C593 0.929 . S
S597 N598 1.613 . S
S597 N599 1.610 . S
N598 S597 1.613 . S
N598 C601 1.350 . S
N599 S597 1.610 . S
N599 C600 1.351 . S
C600 C594 1.428 . S
C600 N599 1.351 . S
C600 C601 1.434 . S
C601 C592 1.429 . S
C601 N598 1.350 . S
C601 C600 1.434 . S
C602 C603 1.369 . S
C602 C604 1.419 . S
C602 H606 0.930 . S
C603 C602 1.369 . S
C603 C612 1.429 . S
C604 C602 1.419 . S
C604 C605 1.363 . S
C604 H607 0.929 . S
C605 C604 1.363 . S
C605 C611 1.428 . S
H606 C602 0.930 . S
H607 C604 0.929 . S
S608 N609 1.613 1_554 S
S608 N610 1.610 1_554 S
N609 S608 1.613 1_556 S
N609 C612 1.350 . S
N610 S608 1.610 1_556 S
N610 C611 1.351 . S
C611 C605 1.428 . S
C611 N610 1.351 . S
C611 C612 1.434 . S
C612 C603 1.429 . S
C612 N609 1.350 . S
C612 C611 1.434 . S
C613 C614 1.369 . S
C613 C615 1.419 . S
C613 H617 0.930 . S
C614 C613 1.369 . S
C614 C623 1.429 . S
C615 C613 1.419 . S
C615 C616 1.363 . S
C615 H618 0.929 . S
C616 C615 1.363 . S
C616 C622 1.428 . S
H617 C613 0.930 . S
H618 C615 0.929 . S
S619 N620 1.613 . S
S619 N621 1.610 1_554 S
N620 S619 1.613 . S
N620 C623 1.350 1_554 S
N621 S619 1.610 1_556 S
N621 C622 1.351 . S
C622 C616 1.428 . S
C622 N621 1.351 . S
C622 C623 1.434 . S
C623 C614 1.429 . S
C623 N620 1.350 1_556 S
C623 C622 1.434 . S
C624 C625 1.369 1_455 S
C624 C626 1.419 . S
C624 H628 0.930 . S
C625 C624 1.369 1_655 S
C625 C634 1.429 . S
C626 C624 1.419 . S
C626 C627 1.363 1_455 S
C626 H629 0.929 . S
C627 C626 1.363 1_655 S
C627 C633 1.428 . S
H628 C624 0.930 . S
H629 C626 0.929 . S
S630 N631 1.613 . S
S630 N632 1.610 . S
N631 S630 1.613 . S
N631 C634 1.350 . S
N632 S630 1.610 . S
N632 C633 1.351 . S
C633 C627 1.428 . S
C633 N632 1.351 . S
C633 C634 1.434 . S
C634 C625 1.429 . S
C634 N631 1.350 . S
C634 C633 1.434 . S
C635 C636 1.369 . S
C635 C637 1.419 . S
C635 H639 0.930 . S
C636 C635 1.369 . S
C636 C645 1.429 . S
C637 C635 1.419 . S
C637 C638 1.363 . S
C637 H640 0.929 . S
C638 C637 1.363 . S
C638 C644 1.428 . S
H639 C635 0.930 . S
H640 C637 0.929 . S
S641 N642 1.613 1_545 S
S641 N643 1.608 1_545 S
N642 S641 1.613 1_565 S
N642 C645 1.350 . S
N643 S641 1.608 1_565 S
N643 C644 1.363 . S
C644 C638 1.428 . S
C644 N643 1.363 . S
C644 C645 1.434 . S
C645 C636 1.429 . S
C645 N642 1.350 . S
C645 C644 1.434 . S
C646 C647 1.369 . S
C646 C648 1.419 . S
C646 H650 0.930 . S
C647 C646 1.369 . S
C647 C656 1.429 . S
C648 C646 1.419 . S
C648 C649 1.363 . S
C648 H651 0.929 . S
C649 C648 1.363 . S
C649 C655 1.428 . S
H650 C646 0.930 . S
H651 C648 0.929 . S
S652 N653 1.613 . S
S652 N654 1.610 . S
N653 S652 1.613 . S
N653 C656 1.350 . S
N654 S652 1.610 . S
N654 C655 1.351 . S
C655 C649 1.428 . S
C655 N654 1.351 . S
C655 C656 1.434 . S
C656 C647 1.429 . S
C656 N653 1.350 . S
C656 C655 1.434 . S
C657 C658 1.369 . S
C657 C659 1.419 . S
C657 H661 0.930 . S
C658 C657 1.369 . S
C658 C667 1.429 . S
C659 C657 1.419 . S
C659 C660 1.363 . S
C659 H662 0.929 . S
C660 C659 1.363 . S
C660 C666 1.428 . S
H661 C657 0.930 . S
H662 C659 0.929 . S
S663 N664 1.613 . S
S663 N665 1.610 . S
N664 S663 1.613 . S
N664 C667 1.350 . S
N665 S663 1.610 . S
N665 C666 1.351 . S
C666 C660 1.428 . S
C666 N665 1.351 . S
C666 C667 1.434 . S
C667 C658 1.429 . S
C667 N664 1.350 . S
C667 C666 1.434 . S
C405 C255 2.204 . S
C407 C335 2.289 . S
C418 C359 1.567 . S
C416 C295 1.776 . S
C429 C380 2.256 . S
C427 C175 2.182 . S
C440 C398 1.610 . S
C438 C215 1.787 1_655 S
C451 C338 2.152 1_565 S
C449 C95 2.047 . S
C460 C135 1.623 1_556 S
C462 C356 1.414 . S
C471 C15 2.028 . S
C473 C377 2.123 . S
C482 C55 1.625 1_556 S
C484 C401 1.453 . S
C495 C336 0.758 . S
C493 C221 0.768 1_655 S
C506 C354 1.366 . S
C504 C261 1.331 . S
C517 C375 0.744 . S
C515 C301 0.761 . S
C526 C181 1.358 . S
C528 C399 1.362 . S
C537 C61 0.787 . S
C539 C334 0.790 . S
C550 C358 1.448 1_565 S
C548 C101 1.147 . S
C561 C379 0.782 . S
C559 C141 0.796 . S
C570 C21 1.142 . S
C572 C397 1.463 . S
C581 C202 2.188 . S
C583 C337 2.220 . S
C592 C242 2.462 . S
C594 C355 2.498 . S
C605 C376 2.200 . S
C603 C282 2.160 . S
C616 C400 2.513 . S
C614 C162 2.464 . S
C625 C42 2.100 1_655 S
C627 C333 2.086 . S
C638 C357 2.353 . S
C636 C82 2.237 . S
C649 C378 2.057 . S
C647 C122 2.106 . S
C658 C2 2.245 . S
C660 C396 2.375 . S
