# Generated by pormake.
# Topology iac, (4,6)-cn, num edge types: 1
# Building blocks:
#     Node 0, Type 0, BuildingBlock: KUFVIS_clean_sbu_0, # of connection points: 4
#     Node 1, Type 0, BuildingBlock: KUFVIS_clean_sbu_0, # of connection points: 4
#     Node 2, Type 0, BuildingBlock: KUFVIS_clean_sbu_0, # of connection points: 4
#     Node 3, Type 0, BuildingBlock: KUFVIS_clean_sbu_0, # of connection points: 4
#     Node 4, Type 0, BuildingBlock: KUFVIS_clean_sbu_0, # of connection points: 4
#     Node 5, Type 0, BuildingBlock: KUFVIS_clean_sbu_0, # of connection points: 4
#     Node 6, Type 0, BuildingBlock: KUFVIS_clean_sbu_0, # of connection points: 4
#     Node 7, Type 0, BuildingBlock: KUFVIS_clean_sbu_0, # of connection points: 4
#     Node 8, Type 0, BuildingBlock: KUFVIS_clean_sbu_0, # of connection points: 4
#     Node 9, Type 0, BuildingBlock: KUFVIS_clean_sbu_0, # of connection points: 4
#     Node 10, Type 0, BuildingBlock: KUFVIS_clean_sbu_0, # of connection points: 4
#     Node 11, Type 0, BuildingBlock: KUFVIS_clean_sbu_0, # of connection points: 4
#     Node 12, Type 0, BuildingBlock: KUFVIS_clean_sbu_0, # of connection points: 4
#     Node 13, Type 0, BuildingBlock: KUFVIS_clean_sbu_0, # of connection points: 4
#     Node 14, Type 0, BuildingBlock: KUFVIS_clean_sbu_0, # of connection points: 4
#     Node 15, Type 0, BuildingBlock: KUFVIS_clean_sbu_0, # of connection points: 4
#     Node 16, Type 0, BuildingBlock: KUFVIS_clean_sbu_0, # of connection points: 4
#     Node 17, Type 0, BuildingBlock: KUFVIS_clean_sbu_0, # of connection points: 4
#     Node 18, Type 0, BuildingBlock: KUFVIS_clean_sbu_0, # of connection points: 4
#     Node 19, Type 0, BuildingBlock: KUFVIS_clean_sbu_0, # of connection points: 4
#     Node 20, Type 0, BuildingBlock: KUFVIS_clean_sbu_0, # of connection points: 4
#     Node 21, Type 0, BuildingBlock: KUFVIS_clean_sbu_0, # of connection points: 4
#     Node 22, Type 0, BuildingBlock: KUFVIS_clean_sbu_0, # of connection points: 4
#     Node 23, Type 0, BuildingBlock: KUFVIS_clean_sbu_0, # of connection points: 4
#     Node 24, Type 1, BuildingBlock: JUFBIX_clean_sbu_0, # of connection points: 6
#     Node 25, Type 1, BuildingBlock: JUFBIX_clean_sbu_0, # of connection points: 6
#     Node 26, Type 1, BuildingBlock: JUFBIX_clean_sbu_0, # of connection points: 6
#     Node 27, Type 1, BuildingBlock: JUFBIX_clean_sbu_0, # of connection points: 6
#     Node 28, Type 1, BuildingBlock: JUFBIX_clean_sbu_0, # of connection points: 6
#     Node 29, Type 1, BuildingBlock: JUFBIX_clean_sbu_0, # of connection points: 6
#     Node 30, Type 1, BuildingBlock: JUFBIX_clean_sbu_0, # of connection points: 6
#     Node 31, Type 1, BuildingBlock: JUFBIX_clean_sbu_0, # of connection points: 6
#     Node 32, Type 1, BuildingBlock: JUFBIX_clean_sbu_0, # of connection points: 6
#     Node 33, Type 1, BuildingBlock: JUFBIX_clean_sbu_0, # of connection points: 6
#     Node 34, Type 1, BuildingBlock: JUFBIX_clean_sbu_0, # of connection points: 6
#     Node 35, Type 1, BuildingBlock: JUFBIX_clean_sbu_0, # of connection points: 6
#     Node 36, Type 1, BuildingBlock: JUFBIX_clean_sbu_0, # of connection points: 6
#     Node 37, Type 1, BuildingBlock: JUFBIX_clean_sbu_0, # of connection points: 6
#     Node 38, Type 1, BuildingBlock: JUFBIX_clean_sbu_0, # of connection points: 6
#     Node 39, Type 1, BuildingBlock: JUFBIX_clean_sbu_0, # of connection points: 6
#     Edge 40, Type (0, 1), BuildingBlock: KIFKEQ_clean_linker_1, # of connection points: 2
#     Edge 41, Type (0, 1), BuildingBlock: KIFKEQ_clean_linker_1, # of connection points: 2
#     Edge 42, Type (0, 1), BuildingBlock: KIFKEQ_clean_linker_1, # of connection points: 2
#     Edge 43, Type (0, 1), BuildingBlock: KIFKEQ_clean_linker_1, # of connection points: 2
#     Edge 44, Type (0, 1), BuildingBlock: KIFKEQ_clean_linker_1, # of connection points: 2
#     Edge 45, Type (0, 1), BuildingBlock: KIFKEQ_clean_linker_1, # of connection points: 2
#     Edge 46, Type (0, 1), BuildingBlock: KIFKEQ_clean_linker_1, # of connection points: 2
#     Edge 47, Type (0, 1), BuildingBlock: KIFKEQ_clean_linker_1, # of connection points: 2
#     Edge 48, Type (0, 1), BuildingBlock: KIFKEQ_clean_linker_1, # of connection points: 2
#     Edge 49, Type (0, 1), BuildingBlock: KIFKEQ_clean_linker_1, # of connection points: 2
#     Edge 50, Type (0, 1), BuildingBlock: KIFKEQ_clean_linker_1, # of connection points: 2
#     Edge 51, Type (0, 1), BuildingBlock: KIFKEQ_clean_linker_1, # of connection points: 2
#     Edge 52, Type (0, 1), BuildingBlock: KIFKEQ_clean_linker_1, # of connection points: 2
#     Edge 53, Type (0, 1), BuildingBlock: KIFKEQ_clean_linker_1, # of connection points: 2
#     Edge 54, Type (0, 1), BuildingBlock: KIFKEQ_clean_linker_1, # of connection points: 2
#     Edge 55, Type (0, 1), BuildingBlock: KIFKEQ_clean_linker_1, # of connection points: 2
#     Edge 56, Type (0, 1), BuildingBlock: KIFKEQ_clean_linker_1, # of connection points: 2
#     Edge 57, Type (0, 1), BuildingBlock: KIFKEQ_clean_linker_1, # of connection points: 2
#     Edge 58, Type (0, 1), BuildingBlock: KIFKEQ_clean_linker_1, # of connection points: 2
#     Edge 59, Type (0, 1), BuildingBlock: KIFKEQ_clean_linker_1, # of connection points: 2
#     Edge 60, Type (0, 1), BuildingBlock: KIFKEQ_clean_linker_1, # of connection points: 2
#     Edge 61, Type (0, 1), BuildingBlock: KIFKEQ_clean_linker_1, # of connection points: 2
#     Edge 62, Type (0, 1), BuildingBlock: KIFKEQ_clean_linker_1, # of connection points: 2
#     Edge 63, Type (0, 1), BuildingBlock: KIFKEQ_clean_linker_1, # of connection points: 2
#     Edge 64, Type (0, 1), BuildingBlock: KIFKEQ_clean_linker_1, # of connection points: 2
#     Edge 65, Type (0, 1), BuildingBlock: KIFKEQ_clean_linker_1, # of connection points: 2
#     Edge 66, Type (0, 1), BuildingBlock: KIFKEQ_clean_linker_1, # of connection points: 2
#     Edge 67, Type (0, 1), BuildingBlock: KIFKEQ_clean_linker_1, # of connection points: 2
#     Edge 68, Type (0, 1), BuildingBlock: KIFKEQ_clean_linker_1, # of connection points: 2
#     Edge 69, Type (0, 1), BuildingBlock: KIFKEQ_clean_linker_1, # of connection points: 2
#     Edge 70, Type (0, 1), BuildingBlock: KIFKEQ_clean_linker_1, # of connection points: 2
#     Edge 71, Type (0, 1), BuildingBlock: KIFKEQ_clean_linker_1, # of connection points: 2
#     Edge 72, Type (0, 1), BuildingBlock: KIFKEQ_clean_linker_1, # of connection points: 2
#     Edge 73, Type (0, 1), BuildingBlock: KIFKEQ_clean_linker_1, # of connection points: 2
#     Edge 74, Type (0, 1), BuildingBlock: KIFKEQ_clean_linker_1, # of connection points: 2
#     Edge 75, Type (0, 1), BuildingBlock: KIFKEQ_clean_linker_1, # of connection points: 2
#     Edge 76, Type (0, 1), BuildingBlock: KIFKEQ_clean_linker_1, # of connection points: 2
#     Edge 77, Type (0, 1), BuildingBlock: KIFKEQ_clean_linker_1, # of connection points: 2
#     Edge 78, Type (0, 1), BuildingBlock: KIFKEQ_clean_linker_1, # of connection points: 2
#     Edge 79, Type (0, 1), BuildingBlock: KIFKEQ_clean_linker_1, # of connection points: 2
#     Edge 80, Type (0, 1), BuildingBlock: KIFKEQ_clean_linker_1, # of connection points: 2
#     Edge 81, Type (0, 1), BuildingBlock: KIFKEQ_clean_linker_1, # of connection points: 2
#     Edge 82, Type (0, 1), BuildingBlock: KIFKEQ_clean_linker_1, # of connection points: 2
#     Edge 83, Type (0, 1), BuildingBlock: KIFKEQ_clean_linker_1, # of connection points: 2
#     Edge 84, Type (0, 1), BuildingBlock: KIFKEQ_clean_linker_1, # of connection points: 2
#     Edge 85, Type (0, 1), BuildingBlock: KIFKEQ_clean_linker_1, # of connection points: 2
#     Edge 86, Type (0, 1), BuildingBlock: KIFKEQ_clean_linker_1, # of connection points: 2
#     Edge 87, Type (0, 1), BuildingBlock: KIFKEQ_clean_linker_1, # of connection points: 2
#     Edge 88, Type (0, 1), BuildingBlock: KIFKEQ_clean_linker_1, # of connection points: 2
#     Edge 89, Type (0, 1), BuildingBlock: KIFKEQ_clean_linker_1, # of connection points: 2
#     Edge 90, Type (0, 1), BuildingBlock: KIFKEQ_clean_linker_1, # of connection points: 2
#     Edge 91, Type (0, 1), BuildingBlock: KIFKEQ_clean_linker_1, # of connection points: 2
#     Edge 92, Type (0, 1), BuildingBlock: KIFKEQ_clean_linker_1, # of connection points: 2
#     Edge 93, Type (0, 1), BuildingBlock: KIFKEQ_clean_linker_1, # of connection points: 2
#     Edge 94, Type (0, 1), BuildingBlock: KIFKEQ_clean_linker_1, # of connection points: 2
#     Edge 95, Type (0, 1), BuildingBlock: KIFKEQ_clean_linker_1, # of connection points: 2
#     Edge 96, Type (0, 1), BuildingBlock: KIFKEQ_clean_linker_1, # of connection points: 2
#     Edge 97, Type (0, 1), BuildingBlock: KIFKEQ_clean_linker_1, # of connection points: 2
#     Edge 98, Type (0, 1), BuildingBlock: KIFKEQ_clean_linker_1, # of connection points: 2
#     Edge 99, Type (0, 1), BuildingBlock: KIFKEQ_clean_linker_1, # of connection points: 2
#     Edge 100, Type (0, 1), BuildingBlock: KIFKEQ_clean_linker_1, # of connection points: 2
#     Edge 101, Type (0, 1), BuildingBlock: KIFKEQ_clean_linker_1, # of connection points: 2
#     Edge 102, Type (0, 1), BuildingBlock: KIFKEQ_clean_linker_1, # of connection points: 2
#     Edge 103, Type (0, 1), BuildingBlock: KIFKEQ_clean_linker_1, # of connection points: 2
#     Edge 104, Type (0, 1), BuildingBlock: KIFKEQ_clean_linker_1, # of connection points: 2
#     Edge 105, Type (0, 1), BuildingBlock: KIFKEQ_clean_linker_1, # of connection points: 2
#     Edge 106, Type (0, 1), BuildingBlock: KIFKEQ_clean_linker_1, # of connection points: 2
#     Edge 107, Type (0, 1), BuildingBlock: KIFKEQ_clean_linker_1, # of connection points: 2
#     Edge 108, Type (0, 1), BuildingBlock: KIFKEQ_clean_linker_1, # of connection points: 2
#     Edge 109, Type (0, 1), BuildingBlock: KIFKEQ_clean_linker_1, # of connection points: 2
#     Edge 110, Type (0, 1), BuildingBlock: KIFKEQ_clean_linker_1, # of connection points: 2
#     Edge 111, Type (0, 1), BuildingBlock: KIFKEQ_clean_linker_1, # of connection points: 2
#     Edge 112, Type (0, 1), BuildingBlock: KIFKEQ_clean_linker_1, # of connection points: 2
#     Edge 113, Type (0, 1), BuildingBlock: KIFKEQ_clean_linker_1, # of connection points: 2
#     Edge 114, Type (0, 1), BuildingBlock: KIFKEQ_clean_linker_1, # of connection points: 2
#     Edge 115, Type (0, 1), BuildingBlock: KIFKEQ_clean_linker_1, # of connection points: 2
#     Edge 116, Type (0, 1), BuildingBlock: KIFKEQ_clean_linker_1, # of connection points: 2
#     Edge 117, Type (0, 1), BuildingBlock: KIFKEQ_clean_linker_1, # of connection points: 2
#     Edge 118, Type (0, 1), BuildingBlock: KIFKEQ_clean_linker_1, # of connection points: 2
#     Edge 119, Type (0, 1), BuildingBlock: KIFKEQ_clean_linker_1, # of connection points: 2
#     Edge 120, Type (0, 1), BuildingBlock: KIFKEQ_clean_linker_1, # of connection points: 2
#     Edge 121, Type (0, 1), BuildingBlock: KIFKEQ_clean_linker_1, # of connection points: 2
#     Edge 122, Type (0, 1), BuildingBlock: KIFKEQ_clean_linker_1, # of connection points: 2
#     Edge 123, Type (0, 1), BuildingBlock: KIFKEQ_clean_linker_1, # of connection points: 2
#     Edge 124, Type (0, 1), BuildingBlock: KIFKEQ_clean_linker_1, # of connection points: 2
#     Edge 125, Type (0, 1), BuildingBlock: KIFKEQ_clean_linker_1, # of connection points: 2
#     Edge 126, Type (0, 1), BuildingBlock: KIFKEQ_clean_linker_1, # of connection points: 2
#     Edge 127, Type (0, 1), BuildingBlock: KIFKEQ_clean_linker_1, # of connection points: 2
#     Edge 128, Type (0, 1), BuildingBlock: KIFKEQ_clean_linker_1, # of connection points: 2
#     Edge 129, Type (0, 1), BuildingBlock: KIFKEQ_clean_linker_1, # of connection points: 2
#     Edge 130, Type (0, 1), BuildingBlock: KIFKEQ_clean_linker_1, # of connection points: 2
#     Edge 131, Type (0, 1), BuildingBlock: KIFKEQ_clean_linker_1, # of connection points: 2
#     Edge 132, Type (0, 1), BuildingBlock: KIFKEQ_clean_linker_1, # of connection points: 2
#     Edge 133, Type (0, 1), BuildingBlock: KIFKEQ_clean_linker_1, # of connection points: 2
#     Edge 134, Type (0, 1), BuildingBlock: KIFKEQ_clean_linker_1, # of connection points: 2
#     Edge 135, Type (0, 1), BuildingBlock: KIFKEQ_clean_linker_1, # of connection points: 2
# Relax obj value: 0.224
# Max RMSD: 0.236
# Mean RMSD: 0.107
data_MOF--net-iac--node1-KUFVIS_clean_sbu_0--node2-JUFBIX_clean_sbu_0--edge1-KIFKEQ_clean_linker_1
_symmetry_space_group_name_H-M    P1
_symmetry_Int_Tables_number       1
_symmetry_cell_setting            triclinic
loop_
_symmetry_equiv_pos_as_xyz
'x, y, z'
_cell_length_a     54.743696
_cell_length_b     55.372861
_cell_length_c     56.594814
_cell_angle_alpha  89.402058
_cell_angle_beta   88.210976
_cell_angle_gamma 89.088681
loop_
_atom_site_label
_atom_site_type_symbol
_atom_site_fract_x
_atom_site_fract_y
_atom_site_fract_z
_atom_type_partial_charge
Mn0 Mn 0.04158 0.28059 0.1545 0.0
Mn1 Mn 1.00482 0.27532 0.10755 0.0
C2 C 0.03477 0.2419 0.13776 0.0
C3 C 0.08003 0.28691 0.17298 0.0
C4 C 0.98452 0.28125 0.15781 0.0
O5 O 0.03988 0.316 0.14113 0.0
O6 O 0.01484 0.30962 0.11114 0.0
C7 C 0.04194 0.28679 0.07009 0.0
N8 N 0.0247 0.27168 0.07942 0.0
C9 C 0.02994 0.24457 0.04664 0.0
C10 C 0.04764 0.25992 0.0366 0.0
C11 C 0.05374 0.28107 0.04843 0.0
C12 C 0.0189 0.25115 0.06832 0.0
H13 H 0.04662 0.3031 0.07909 0.0
C14 C 0.02771 0.32371 0.12339 0.0
O15 O 0.05912 0.29134 0.18349 0.0
O16 O 0.07885 0.27938 0.15136 0.0
N17 N 0.99331 0.24367 0.10111 0.0
C18 C 0.97652 0.23036 0.11359 0.0
C19 C 0.96879 0.20839 0.10441 0.0
C20 C 0.97804 0.20056 0.08231 0.0
C21 C 0.99494 0.21479 0.06958 0.0
C22 C 1.00202 0.23648 0.07965 0.0
H23 H 0.96917 0.23639 0.13048 0.0
O24 O 0.04166 0.24414 0.15936 0.0
O25 O 0.0321 0.26236 0.12637 0.0
O26 O 1.00537 0.28301 0.16732 0.0
O27 O 0.98243 0.27835 0.1356 0.0
C28 C 1.0053 0.20814 0.04745 0.0
C29 C 0.02293 0.22292 0.03607 0.0
H30 H 0.05675 0.25559 0.01987 0.0
H31 H 0.06744 0.29296 0.04084 0.0
H32 H 0.95571 0.19753 0.11432 0.0
H33 H 0.97213 0.18354 0.07534 0.0
H34 H 1.00004 0.19157 0.03913 0.0
H35 H 0.03103 0.21743 0.01923 0.0
Mn36 Mn 0.03455 0.78089 0.42711 0.0
Mn37 Mn 1.00175 0.78386 0.47864 0.0
C38 C 0.01972 0.81737 0.44048 0.0
C39 C 0.07069 0.77934 0.40496 0.0
C40 C 0.98027 0.76865 0.43285 0.0
O41 O 0.04261 0.74892 0.44251 0.0
O42 O 0.01926 0.75229 0.4757 0.0
C43 C 0.04416 0.78337 0.50996 0.0
N44 N 0.02308 0.79405 0.50261 0.0
C45 C 0.02549 0.82507 0.53186 0.0
C46 C 0.04714 0.81434 0.53981 0.0
C47 C 0.05657 0.79346 0.52872 0.0
C48 C 0.0141 0.81438 0.51288 0.0
H49 H 0.05144 0.76725 0.50161 0.0
C50 C 0.0345 0.74074 0.46224 0.0
O51 O 0.05076 0.77024 0.39736 0.0
O52 O 0.06966 0.78949 0.4256 0.0
N53 N 0.98396 0.81332 0.48481 0.0
C54 C 0.9629 0.82151 0.47508 0.0
C55 C 0.95103 0.84221 0.48424 0.0
C56 C 0.9607 0.85405 0.50359 0.0
C57 C 0.98212 0.84503 0.51363 0.0
C58 C 0.99317 0.82436 0.5037 0.0
H59 H 0.95536 0.81251 0.46025 0.0
O60 O 0.02529 0.81454 0.41821 0.0
O61 O 0.02346 0.79898 0.45449 0.0
O62 O 1.00031 0.76973 0.42096 0.0
O63 O 0.97817 0.77403 0.45473 0.0
C64 C 0.9929 0.85571 0.53315 0.0
C65 C 0.01472 0.84591 0.54209 0.0
H66 H 0.05668 0.82198 0.55439 0.0
H67 H 0.07331 0.7851 0.53471 0.0
H68 H 0.93448 0.84902 0.4764 0.0
H69 H 0.95155 0.87006 0.51057 0.0
H70 H 0.98467 0.87161 0.5413 0.0
H71 H 0.02301 0.85448 0.55691 0.0
Mn72 Mn 0.54374 0.77663 0.65522 0.0
Mn73 Mn 0.50651 0.77224 0.60849 0.0
C74 C 0.53661 0.73833 0.63792 0.0
C75 C 0.58209 0.78261 0.67389 0.0
C76 C 0.48675 0.77774 0.65896 0.0
O77 O 0.54227 0.81215 0.64225 0.0
O78 O 0.51691 0.80634 0.61237 0.0
C79 C 0.54333 0.78385 0.57079 0.0
N80 N 0.52604 0.76879 0.58012 0.0
C81 C 0.53043 0.74222 0.54684 0.0
C82 C 0.54818 0.75752 0.5368 0.0
C83 C 0.55474 0.77836 0.54889 0.0
C84 C 0.51982 0.74854 0.56879 0.0
H85 H 0.54834 0.79995 0.57997 0.0
C86 C 0.53005 0.82012 0.62465 0.0
O87 O 0.56116 0.78695 0.68435 0.0
O88 O 0.58103 0.77529 0.65218 0.0
N89 N 0.49465 0.7408 0.6018 0.0
C90 C 0.47788 0.72748 0.61431 0.0
C91 C 0.46973 0.70578 0.60489 0.0
C92 C 0.47851 0.69824 0.58253 0.0
C93 C 0.4954 0.71249 0.56979 0.0
C94 C 0.50293 0.73388 0.58012 0.0
H95 H 0.47086 0.7333 0.63139 0.0
O96 O 0.5436 0.74012 0.65955 0.0
O97 O 0.53398 0.75896 0.62687 0.0
O98 O 0.50772 0.77916 0.66824 0.0
O99 O 0.48437 0.77514 0.63675 0.0
C100 C 0.50528 0.70615 0.54738 0.0
C101 C 0.52294 0.72089 0.536 0.0
H102 H 0.55697 0.75338 0.51988 0.0
H103 H 0.56849 0.79021 0.5413 0.0
H104 H 0.45665 0.69491 0.6148 0.0
H105 H 0.47226 0.68145 0.57536 0.0
H106 H 0.49962 0.68984 0.53884 0.0
H107 H 0.53069 0.71562 0.51895 0.0
Mn108 Mn 0.53966 0.27664 0.92442 0.0
Mn109 Mn 0.50449 0.28185 0.97449 0.0
C110 C 0.52856 0.31419 0.93807 0.0
C111 C 0.57654 0.27098 0.90424 0.0
C112 C 0.48448 0.26929 0.92714 0.0
O113 O 0.54258 0.24358 0.93931 0.0
O114 O 0.52009 0.24922 0.9728 0.0
C115 C 0.54411 0.27887 0.00891 0.0
N116 N 0.52439 0.29076 1.00005 0.0
C117 C 0.52641 0.32171 0.02943 0.0
C118 C 0.54665 0.30971 0.03897 0.0
C119 C 0.55558 0.28825 0.02861 0.0
C120 C 0.51574 0.31151 0.00979 0.0
H121 H 0.55104 0.26236 1.00102 0.0
C122 C 0.53401 0.23629 0.95923 0.0
O123 O 0.55607 0.26506 0.89519 0.0
O124 O 0.57573 0.28038 0.92524 0.0
N125 N 0.4884 0.31248 0.97912 0.0
C126 C 0.46968 0.32262 0.96695 0.0
C127 C 0.45893 0.34443 0.97476 0.0
C128 C 0.46738 0.3555 0.9951 0.0
C129 C 0.48656 0.34467 0.00743 0.0
C130 C 0.49644 0.32283 0.9989 0.0
H131 H 0.46324 0.31433 0.95122 0.0
O132 O 0.53534 0.31131 0.91609 0.0
O133 O 0.52907 0.29514 0.95176 0.0
O134 O 0.50487 0.27014 0.91588 0.0
O135 O 0.48194 0.27329 0.94926 0.0
C136 C 0.49668 0.35501 0.02748 0.0
C137 C 0.51664 0.34358 0.03842 0.0
H138 H 0.55558 0.31691 0.05413 0.0
H139 H 0.57126 0.27894 0.0358 0.0
H140 H 0.44425 0.35276 0.96505 0.0
H141 H 0.45923 0.37246 1.00091 0.0
H142 H 0.48951 0.37195 0.03438 0.0
H143 H 0.5245 0.35189 0.05361 0.0
Mn144 Mn 0.15179 0.02388 0.30456 0.0
Mn145 Mn 0.20409 0.03588 0.33171 0.0
C146 C 0.15956 0.0625 0.31598 0.0
C147 C 0.13144 0.01894 0.2699 0.0
C148 C 0.16067 0.012 0.35624 0.0
O149 O 0.17291 0.99444 0.29779 0.0
O150 O 0.20806 0.00521 0.31412 0.0
C151 C 0.23571 0.0446 0.28918 0.0
N152 N 0.22574 0.05239 0.31015 0.0
C153 C 0.24719 0.08993 0.3068 0.0
C154 C 0.25778 0.08227 0.28522 0.0
C155 C 0.25194 0.05955 0.27634 0.0
C156 C 0.23104 0.07432 0.31874 0.0
H157 H 0.2313 0.02714 0.28231 0.0
C158 C 0.1953 0.99071 0.30228 0.0
O159 O 0.12368 0.00869 0.28944 0.0
O160 O 0.15094 0.03185 0.27059 0.0
N161 N 0.20299 0.06531 0.34918 0.0
C162 C 0.19035 0.07045 0.36968 0.0
C163 C 0.19388 0.09263 0.38077 0.0
C164 C 0.21055 0.10918 0.37082 0.0
C165 C 0.22339 0.10348 0.34973 0.0
C166 C 0.21916 0.08107 0.33952 0.0
H167 H 0.17769 0.05772 0.37754 0.0
O168 O 0.13728 0.05629 0.31213 0.0
O169 O 0.17639 0.04599 0.31279 0.0
O170 O 0.14669 0.01283 0.33866 0.0
O171 O 0.18264 0.01954 0.35541 0.0
C172 C 0.2401 0.1192 0.33837 0.0
C173 C 0.25182 0.11253 0.31681 0.0
H174 H 0.27032 0.09373 0.27527 0.0
H175 H 0.25997 0.05355 0.25965 0.0
H176 H 0.18387 0.09692 0.39702 0.0
H177 H 0.21328 0.12623 0.37948 0.0
H178 H 0.24389 0.13659 0.34593 0.0
H179 H 0.2643 0.12496 0.30804 0.0
Mn180 Mn 0.25874 0.91279 0.56174 0.0
Mn181 Mn 0.25365 0.95537 0.5188 0.0
C182 C 0.29332 0.93056 0.54637 0.0
C183 C 0.25634 0.90128 0.60108 0.0
C184 C 0.25234 0.90184 0.50934 0.0
O185 O 0.22283 0.92152 0.56331 0.0
O186 O 0.22138 0.9503 0.53508 0.0
C187 C 0.24278 0.99691 0.55013 0.0
N188 N 0.25673 0.98648 0.53257 0.0
C189 C 0.28124 0.022 0.52796 0.0
C190 C 0.26704 0.03319 0.54589 0.0
C191 C 0.24779 0.02055 0.55709 0.0
C192 C 0.27545 0.99838 0.52186 0.0
H193 H 0.22795 0.98727 0.55876 0.0
C194 C 0.21136 0.93726 0.55135 0.0
O195 O 0.25245 0.88611 0.58435 0.0
O196 O 0.2621 0.92321 0.59504 0.0
N197 N 0.283 0.9628 0.50116 0.0
C198 C 0.29525 0.94925 0.48453 0.0
C199 C 0.31522 0.95917 0.47185 0.0
C200 C 0.32207 0.98304 0.47605 0.0
C201 C 0.30887 0.99681 0.49289 0.0
C202 C 0.28913 0.98597 0.50496 0.0
H203 H 0.28992 0.93098 0.48103 0.0
O204 O 0.2947 0.91009 0.55769 0.0
O205 O 0.27173 0.94076 0.5452 0.0
O206 O 0.25495 0.89487 0.53067 0.0
O207 O 0.25101 0.92401 0.50301 0.0
C208 C 0.31472 0.02075 0.49839 0.0
C209 C 0.30101 0.03328 0.51602 0.0
H210 H 0.27083 0.05144 0.55128 0.0
H211 H 0.23681 0.02903 0.571 0.0
H212 H 0.32526 0.94845 0.45883 0.0
H213 H 0.33753 0.99058 0.46629 0.0
H214 H 0.32986 0.02963 0.48934 0.0
H215 H 0.30587 0.05158 0.52028 0.0
Mn216 Mn 0.39932 0.04814 0.75908 0.0
Mn217 Mn 0.35389 0.04574 0.80085 0.0
C218 C 0.38798 0.01136 0.77461 0.0
C219 C 0.41249 0.05194 0.72012 0.0
C220 C 0.40577 0.05964 0.81099 0.0
O221 O 0.38333 0.08116 0.75702 0.0
O222 O 0.35167 0.07635 0.7827 0.0
C223 C 0.31178 0.04364 0.76938 0.0
N224 N 0.32462 0.0343 0.78766 0.0
C225 C 0.29409 0.00435 0.79587 0.0
C226 C 0.28046 0.0137 0.7772 0.0
C227 C 0.28944 0.03333 0.76379 0.0
C228 C 0.31637 0.01517 0.80039 0.0
H229 H 0.31851 0.05891 0.75922 0.0
C230 C 0.36353 0.08853 0.76699 0.0
O231 O 0.42563 0.05911 0.7373 0.0
O232 O 0.39171 0.04191 0.72553 0.0
N233 N 0.35297 0.01717 0.82009 0.0
C234 C 0.36886 0.00966 0.83681 0.0
C235 C 0.36276 0.99006 0.85164 0.0
C236 C 0.34019 0.97871 0.84947 0.0
C237 C 0.32409 0.98678 0.83216 0.0
C238 C 0.33122 0.00634 0.81783 0.0
H239 H 0.38601 0.01862 0.83891 0.0
O240 O 0.40905 0.01375 0.76373 0.0
O241 O 0.37354 0.03028 0.77519 0.0
O242 O 0.4145 0.05656 0.79015 0.0
O243 O 0.38317 0.05716 0.81661 0.0
C244 C 0.3013 0.97615 0.82849 0.0
C245 C 0.28645 0.98474 0.81018 0.0
H246 H 0.26313 0.00591 0.77295 0.0
H247 H 0.27905 0.04062 0.74933 0.0
H248 H 0.37529 0.98389 0.86491 0.0
H249 H 0.33547 0.96376 0.86113 0.0
H250 H 0.29513 0.96118 0.83946 0.0
H251 H 0.26918 0.97615 0.80728 0.0
Mn252 Mn 0.27419 0.16816 0.03637 0.0
Mn253 Mn 0.27147 0.12117 0.99823 0.0
C254 C 0.23647 0.14843 0.03025 0.0
C255 C 0.27999 0.18467 0.07543 0.0
C256 C 0.27505 0.17354 0.98086 0.0
O257 O 0.31046 0.15621 0.03329 0.0
O258 O 0.30581 0.12528 0.00825 0.0
C259 C 0.28395 0.08153 0.03149 0.0
N260 N 0.26843 0.09155 0.01565 0.0
C261 C 0.24141 0.05777 0.01947 0.0
C262 C 0.25719 0.04701 0.0357 0.0
C263 C 0.27851 0.05898 0.04178 0.0
C264 C 0.24781 0.08025 0.00976 0.0
H265 H 0.30034 0.09066 0.03624 0.0
C266 C 0.31909 0.13823 0.02127 0.0
O267 O 0.28319 0.19718 0.05611 0.0
O268 O 0.27382 0.16244 0.07219 0.0
N269 N 0.23959 0.11457 0.98712 0.0
C270 C 0.2256 0.128 0.97224 0.0
C271 C 0.20334 0.11885 0.96487 0.0
C272 C 0.19576 0.09594 0.97271 0.0
C273 C 0.21056 0.08235 0.98784 0.0
C274 C 0.23265 0.09233 0.99447 0.0
H275 H 0.23128 0.14565 0.96618 0.0
O276 O 0.23694 0.17045 0.03792 0.0
O277 O 0.25795 0.1388 0.02595 0.0
O278 O 0.27556 0.18303 1.00156 0.0
O279 O 0.27389 0.1507 0.97815 0.0
C280 C 0.204 0.05953 0.99702 0.0
C281 C 0.21939 0.04727 0.01287 0.0
H282 H 0.25303 0.02966 0.04374 0.0
H283 H 0.29072 0.05085 0.05438 0.0
H284 H 0.19199 0.12948 0.95324 0.0
H285 H 0.17846 0.08905 0.96719 0.0
H286 H 0.18697 0.05142 0.99231 0.0
H287 H 0.21397 0.0299 0.02009 0.0
Mn288 Mn 0.76043 0.40393 0.05293 0.0
Mn289 Mn 0.7552 0.44332 0.00722 0.0
C290 C 0.79459 0.42264 0.03783 0.0
C291 C 0.75686 0.39529 0.0929 0.0
C292 C 0.75683 0.38915 1.00117 0.0
O293 O 0.72416 0.41091 0.0526 0.0
O294 O 0.72268 0.4379 0.02273 0.0
C295 C 0.74108 0.48649 0.03523 0.0
N296 N 0.75623 0.47551 0.01894 0.0
C297 C 0.77897 0.51193 0.01254 0.0
C298 C 0.76352 0.52369 0.02913 0.0
C299 C 0.74457 0.51087 0.0406 0.0
C300 C 0.77469 0.48758 0.008 0.0
H301 H 0.72645 0.47672 0.04404 0.0
C302 C 0.71258 0.42546 0.03939 0.0
O303 O 0.7545 0.37865 0.07719 0.0
O304 O 0.76177 0.417 0.0855 0.0
N305 N 0.78491 0.45091 0.99023 0.0
C306 C 0.79865 0.43674 0.97524 0.0
C307 C 0.81868 0.44671 0.9627 0.0
C308 C 0.82406 0.47124 0.96533 0.0
C309 C 0.80935 0.48559 0.98047 0.0
C310 C 0.78968 0.47465 0.99255 0.0
H311 H 0.79445 0.41794 0.97295 0.0
O312 O 0.79659 0.40299 0.05039 0.0
O313 O 0.77261 0.43143 0.03517 0.0
O314 O 0.75897 0.38368 0.02296 0.0
O315 O 0.75464 0.41081 0.99347 0.0
C316 C 0.8136 0.51026 0.98429 0.0
C317 C 0.79854 0.52337 1.00044 0.0
H318 H 0.76612 0.54251 0.03329 0.0
H319 H 0.73262 0.51978 0.0535 0.0
H320 H 0.82991 0.43553 0.95099 0.0
H321 H 0.83958 0.47883 0.9557 0.0
H322 H 0.82856 0.51928 0.97506 0.0
H323 H 0.80222 0.54223 1.00346 0.0
Mn324 Mn 0.89519 0.54923 0.25794 0.0
Mn325 Mn 0.85149 0.5475 0.30145 0.0
C326 C 0.88274 0.51254 0.2726 0.0
C327 C 0.90692 0.55441 0.2188 0.0
C328 C 0.90447 0.55843 0.30969 0.0
O329 O 0.88094 0.58306 0.25792 0.0
O330 O 0.84978 0.57868 0.28425 0.0
C331 C 0.80796 0.54812 0.27167 0.0
N332 N 0.82115 0.5377 0.28918 0.0
C333 C 0.78977 0.5087 0.29765 0.0
C334 C 0.77575 0.51918 0.2798 0.0
C335 C 0.78497 0.53887 0.26665 0.0
C336 C 0.81267 0.5185 0.30163 0.0
H337 H 0.8149 0.56341 0.2617 0.0
C338 C 0.86176 0.59089 0.26866 0.0
O339 O 0.92114 0.55994 0.23574 0.0
O340 O 0.88586 0.54508 0.22449 0.0
N341 N 0.85018 0.51841 0.31991 0.0
C342 C 0.86645 0.50973 0.33576 0.0
C343 C 0.86022 0.48978 0.35011 0.0
C344 C 0.83714 0.47933 0.3484 0.0
C345 C 0.8206 0.48871 0.33211 0.0
C346 C 0.82789 0.5085 0.31818 0.0
H347 H 0.88402 0.518 0.33752 0.0
O348 O 0.90334 0.51431 0.26075 0.0
O349 O 0.86926 0.53207 0.27451 0.0
O350 O 0.91214 0.55525 0.28854 0.0
O351 O 0.882 0.55729 0.31629 0.0
C352 C 0.79721 0.47913 0.32903 0.0
C353 C 0.78193 0.48893 0.31163 0.0
H354 H 0.75794 0.5122 0.27599 0.0
H355 H 0.77431 0.54701 0.2528 0.0
H356 H 0.87308 0.48264 0.36264 0.0
H357 H 0.83236 0.46406 0.35963 0.0
H358 H 0.79088 0.46404 0.33977 0.0
H359 H 0.76419 0.48112 0.30914 0.0
Mn360 Mn 0.77384 0.66911 0.53762 0.0
Mn361 Mn 0.77081 0.62325 0.49822 0.0
C362 C 0.73601 0.64938 0.53142 0.0
C363 C 0.78025 0.68494 0.57689 0.0
C364 C 0.77539 0.67609 0.48256 0.0
O365 O 0.8104 0.65733 0.53336 0.0
O366 O 0.80461 0.62556 0.50969 0.0
C367 C 0.78049 0.58166 0.53009 0.0
N368 N 0.76591 0.5931 0.51429 0.0
C369 C 0.73754 0.56032 0.51555 0.0
C370 C 0.75231 0.54813 0.53175 0.0
C371 C 0.77383 0.55889 0.5391 0.0
C372 C 0.74511 0.58296 0.50716 0.0
H373 H 0.79706 0.58985 0.53576 0.0
C374 C 0.81844 0.63844 0.5222 0.0
O375 O 0.78272 0.69782 0.55775 0.0
O376 O 0.77459 0.66259 0.57337 0.0
N377 N 0.73905 0.61865 0.48591 0.0
C378 C 0.72609 0.63341 0.47132 0.0
C379 C 0.7037 0.62564 0.4629 0.0
C380 C 0.69496 0.60272 0.46939 0.0
C381 C 0.70872 0.58776 0.48426 0.0
C382 C 0.73096 0.59643 0.49201 0.0
H383 H 0.73274 0.65101 0.46619 0.0
O384 O 0.7365 0.67102 0.54002 0.0
O385 O 0.75749 0.64011 0.52646 0.0
O386 O 0.77401 0.68502 0.50347 0.0
O387 O 0.7755 0.65332 0.4791 0.0
C388 C 0.70098 0.5648 0.49208 0.0
C389 C 0.71536 0.55111 0.50775 0.0
H390 H 0.7472 0.53061 0.53881 0.0
H391 H 0.78528 0.54964 0.55168 0.0
H392 H 0.69317 0.6373 0.45146 0.0
H393 H 0.67758 0.59687 0.46303 0.0
H394 H 0.6838 0.55768 0.48648 0.0
H395 H 0.70903 0.53365 0.51394 0.0
Mn396 Mn 0.66897 0.51196 0.79301 0.0
Mn397 Mn 0.71958 0.51624 0.82541 0.0
C398 C 0.68419 0.54915 0.80092 0.0
C399 C 0.65023 0.50653 0.75743 0.0
C400 C 0.66929 0.50868 0.84711 0.0
O401 O 0.68287 0.47806 0.79201 0.0
O402 O 0.71571 0.48278 0.81428 0.0
C403 C 0.75575 0.50709 0.7864 0.0
N404 N 0.74714 0.52118 0.80449 0.0
C405 C 0.78079 0.54832 0.79935 0.0
C406 C 0.79012 0.53404 0.78073 0.0
C407 C 0.77745 0.51342 0.77413 0.0
C408 C 0.75893 0.54129 0.81069 0.0
H409 H 0.74618 0.49111 0.78143 0.0
C410 C 0.70187 0.46995 0.80188 0.0
O411 O 0.63923 0.50113 0.77739 0.0
O412 O 0.67222 0.51489 0.75811 0.0
N413 N 0.72651 0.54734 0.83768 0.0
C414 C 0.71468 0.55954 0.85555 0.0
C415 C 0.72481 0.58075 0.86411 0.0
C416 C 0.74726 0.58887 0.85463 0.0
C417 C 0.75927 0.57584 0.83646 0.0
C418 C 0.74821 0.55493 0.82855 0.0
H419 H 0.69766 0.55312 0.86323 0.0
O420 O 0.6616 0.54699 0.79507 0.0
O421 O 0.69764 0.52953 0.80137 0.0
O422 O 0.6582 0.50757 0.82768 0.0
O423 O 0.69225 0.51183 0.8483 0.0
C424 C 0.78173 0.58282 0.82582 0.0
C425 C 0.79234 0.56923 0.8071 0.0
H426 H 0.80694 0.53877 0.77134 0.0
H427 H 0.78448 0.50234 0.75975 0.0
H428 H 0.71546 0.59069 0.87815 0.0
H429 H 0.75508 0.60516 0.86139 0.0
H430 H 0.7909 0.59876 0.83173 0.0
H431 H 0.8094 0.57501 0.79883 0.0
Mn432 Mn 0.035 0.79504 0.90624 0.0
Mn433 Mn 0.99333 0.80302 0.95099 0.0
C434 C 0.02791 0.83407 0.92278 0.0
C435 C 0.07529 0.78764 0.89008 0.0
C436 C 0.97873 0.79495 0.89986 0.0
O437 O 0.03116 0.76003 0.92011 0.0
O438 O 1.00477 0.76835 0.95048 0.0
C439 C 0.02559 0.79405 0.99134 0.0
N440 N 0.00958 0.80871 0.97981 0.0
C441 C 0.01247 0.83947 0.0093 0.0
C442 C 0.02869 0.82453 0.02166 0.0
C443 C 0.03533 0.80176 0.0126 0.0
C444 C 1.00319 0.83074 0.9883 0.0
H445 H 0.03103 0.77668 0.98431 0.0
C446 C 0.01862 0.75349 0.9387 0.0
O447 O 0.05579 0.7838 0.87837 0.0
O448 O 0.0715 0.79471 0.91173 0.0
N449 N 0.98133 0.83559 0.95391 0.0
C450 C 0.96712 0.8486 0.9389 0.0
C451 C 0.95959 0.87216 0.94493 0.0
C452 C 0.96677 0.88213 0.9663 0.0
C453 C 0.98143 0.86843 0.98145 0.0
C454 C 0.98813 0.84493 0.97464 0.0
H455 H 0.96175 0.84117 0.92234 0.0
O456 O 0.03653 0.83153 0.90131 0.0
O457 O 0.02298 0.81377 0.93358 0.0
O458 O 1.00066 0.79364 0.89142 0.0
O459 O 0.97405 0.79807 0.92194 0.0
C460 C 0.99012 0.87738 1.00278 0.0
C461 C 1.00566 0.86293 0.01667 0.0
H462 H 0.0364 0.83049 0.03796 0.0
H463 H 0.04804 0.79022 0.02191 0.0
H464 H 0.94842 0.88268 0.93306 0.0
H465 H 0.96117 0.90042 0.97075 0.0
H466 H 0.98534 0.89552 0.00844 0.0
H467 H 0.01259 0.87018 0.03281 0.0
Mn468 Mn 0.01261 0.30414 0.65119 0.0
Mn469 Mn 0.98097 0.2838 0.60553 0.0
C470 C 0.0203 0.26614 0.63671 0.0
C471 C 0.0462 0.3225 0.66667 0.0
C472 C 0.95992 0.28769 0.65545 0.0
O473 O 0.99856 0.33487 0.63696 0.0
O474 O 0.97989 0.3197 0.60542 0.0
C475 C 0.01208 0.30158 0.56551 0.0
N476 N 1.00138 0.2829 0.57752 0.0
C477 C 0.01767 0.25419 0.54931 0.0
C478 C 0.02877 0.27313 0.53658 0.0
C479 C 0.02601 0.29692 0.54475 0.0
C480 C 1.00395 0.25994 0.56984 0.0
H481 H 0.01002 0.3199 0.57173 0.0
C482 C 0.98658 0.3374 0.61804 0.0
O483 O 0.02561 0.32121 0.67863 0.0
O484 O 0.0465 0.315 0.64501 0.0
N485 N 0.9813 0.24929 0.60372 0.0
C486 C 0.97085 0.23293 0.61891 0.0
C487 C 0.97282 0.20819 0.61383 0.0
C488 C 0.98537 0.20055 0.59314 0.0
C489 C 0.99589 0.21773 0.57773 0.0
C490 C 0.99332 0.24213 0.58371 0.0
H491 H 0.9612 0.23869 0.63485 0.0
O492 O 0.02564 0.27116 0.65826 0.0
O493 O 0.0102 0.28338 0.62454 0.0
O494 O 0.97925 0.29504 0.66472 0.0
O495 O 0.95831 0.28349 0.63343 0.0
C496 C 0.00912 0.21158 0.55686 0.0
C497 C 0.02001 0.22979 0.54266 0.0
H498 H 0.03961 0.2696 0.52061 0.0
H499 H 0.03461 0.31163 0.53507 0.0
H500 H 0.96472 0.19503 0.62585 0.0
H501 H 0.98696 0.18144 0.58934 0.0
H502 H 0.01136 0.19285 0.55174 0.0
H503 H 0.03046 0.2248 0.52684 0.0
Mn504 Mn 0.52224 0.2823 0.40822 0.0
Mn505 Mn 0.51882 0.31954 0.36042 0.0
C506 C 0.48417 0.28971 0.38964 0.0
C507 C 0.52749 0.24302 0.42645 0.0
C508 C 0.52612 0.33831 0.41049 0.0
O509 O 0.55855 0.28367 0.39528 0.0
O510 O 0.55244 0.3056 0.36204 0.0
C511 C 0.52559 0.28317 0.32268 0.0
N512 N 0.51218 0.30143 0.33283 0.0
C513 C 0.48198 0.29932 0.30295 0.0
C514 C 0.4957 0.28077 0.29195 0.0
C515 C 0.51753 0.27258 0.30194 0.0
C516 C 0.49094 0.30919 0.32358 0.0
H517 H 0.54222 0.27663 0.33045 0.0
C518 C 0.5663 0.29307 0.37552 0.0
O519 O 0.53124 0.26297 0.43745 0.0
O520 O 0.52155 0.24572 0.40453 0.0
N521 N 0.48716 0.33397 0.35649 0.0
C522 C 0.47531 0.35091 0.37009 0.0
C523 C 0.45275 0.36047 0.36297 0.0
C524 C 0.4427 0.35265 0.34189 0.0
C525 C 0.45529 0.33531 0.32812 0.0
C526 C 0.47777 0.32655 0.33602 0.0
H527 H 0.48299 0.35709 0.38625 0.0
O528 O 0.48487 0.28252 0.41153 0.0
O529 O 0.50556 0.29286 0.37969 0.0
O530 O 0.52418 0.31768 0.4209 0.0
O531 O 0.52522 0.34054 0.38799 0.0
C532 C 0.44624 0.32611 0.30703 0.0
C533 C 0.45951 0.30804 0.29453 0.0
H534 H 0.48949 0.27248 0.276 0.0
H535 H 0.52808 0.25808 0.2937 0.0
H536 H 0.44313 0.37382 0.37371 0.0
H537 H 0.42522 0.35994 0.33654 0.0
H538 H 0.42893 0.33257 0.30045 0.0
H539 H 0.45214 0.30079 0.27859 0.0
Mn540 Mn 0.51301 0.804 0.15476 0.0
Mn541 Mn 0.48016 0.78149 0.111 0.0
C542 C 0.52099 0.76572 0.14112 0.0
C543 C 0.54661 0.82364 0.16855 0.0
C544 C 0.46077 0.78683 0.16134 0.0
O545 O 0.4979 0.83392 0.14016 0.0
O546 O 0.47802 0.8174 0.11003 0.0
C547 C 0.50921 0.79905 0.06948 0.0
N548 N 0.49954 0.7804 0.08235 0.0
C549 C 0.51546 0.75138 0.05426 0.0
C550 C 0.52549 0.77029 0.04065 0.0
C551 C 0.52241 0.79422 0.04834 0.0
C552 C 0.50248 0.7573 0.07517 0.0
H553 H 0.50687 0.81748 0.07531 0.0
C554 C 0.48489 0.83562 0.12184 0.0
O555 O 0.52643 0.82229 0.18115 0.0
O556 O 0.54649 0.8153 0.1472 0.0
N557 N 0.48142 0.74694 0.11006 0.0
C558 C 0.47196 0.7307 0.12598 0.0
C559 C 0.47439 0.70588 0.12143 0.0
C560 C 0.48636 0.69803 0.10051 0.0
C561 C 0.49585 0.71508 0.08435 0.0
C562 C 0.4929 0.73957 0.08984 0.0
H563 H 0.46275 0.73664 0.14209 0.0
O564 O 0.52691 0.77143 0.16235 0.0
O565 O 0.51007 0.7824 0.12891 0.0
O566 O 0.48025 0.79505 0.16956 0.0
O567 O 0.4586 0.78132 0.13967 0.0
C568 C 0.50837 0.70873 0.06314 0.0
C569 C 0.51812 0.72688 0.04808 0.0
H570 H 0.53573 0.76663 0.02436 0.0
H571 H 0.53017 0.8089 0.03798 0.0
H572 H 0.46707 0.69283 0.13402 0.0
H573 H 0.48828 0.67887 0.0971 0.0
H574 H 0.51088 0.68994 0.05838 0.0
H575 H 0.52798 0.72175 0.03196 0.0
Mn576 Mn 0.92004 0.03346 0.75621 0.0
Mn577 Mn 0.87864 1.00179 0.78796 0.0
C578 C 0.91948 0.99212 0.75236 0.0
C579 C 0.9292 0.05662 0.72305 0.0
C580 C 0.92258 0.02566 0.80849 0.0
O581 O 0.89509 0.05834 0.76778 0.0
O582 O 0.86483 0.03448 0.78199 0.0
C583 C 0.83912 0.99742 0.75384 0.0
N584 N 0.85567 0.98684 0.7683 0.0
C585 C 0.83938 0.94746 0.76182 0.0
C586 C 0.82208 0.95791 0.7469 0.0
C587 C 0.82213 0.98298 0.7427 0.0
C588 C 0.85629 0.96268 0.77186 0.0
H589 H 0.8388 0.01675 0.75103 0.0
C590 C 0.8734 0.05511 0.77597 0.0
O591 O 0.94119 0.05897 0.74232 0.0
O592 O 0.91184 0.04092 0.72315 0.0
N593 N 0.88971 0.96967 0.7951 0.0
C594 C 0.90777 0.9624 0.80973 0.0
C595 C 0.91068 0.93774 0.81522 0.0
C596 C 0.89464 0.92089 0.80608 0.0
C597 C 0.8759 0.92886 0.79142 0.0
C598 C 0.87417 0.9536 0.78623 0.0
H599 H 0.91977 0.9753 0.8173 0.0
O600 O 0.93879 0.00401 0.74568 0.0
O601 O 0.90128 0.00502 0.76072 0.0
O602 O 0.93358 0.0307 0.78899 0.0
O603 O 0.90147 0.01618 0.80998 0.0
C604 C 0.85874 0.91325 0.78192 0.0
C605 C 0.84035 0.9226 0.76734 0.0
H606 H 0.80873 0.94687 0.73856 0.0
H607 H 0.80887 0.99118 0.73118 0.0
H608 H 0.92506 0.93177 0.8267 0.0
H609 H 0.8968 0.90192 0.81052 0.0
H610 H 0.85947 0.89405 0.78576 0.0
H611 H 0.82702 0.9105 0.76049 0.0
Mn612 Mn 0.80353 0.15171 0.50961 0.0
Mn613 Mn 0.80663 0.10099 0.47732 0.0
C614 C 0.76956 0.12868 0.50574 0.0
C615 C 0.806 0.17053 0.54592 0.0
C616 C 0.80242 0.15059 0.45545 0.0
O617 O 0.83999 0.14583 0.50632 0.0
O618 O 0.84008 0.11283 0.48324 0.0
C619 C 0.82805 0.06964 0.51421 0.0
N620 N 0.80972 0.07457 0.49909 0.0
C621 C 0.7871 0.04012 0.5132 0.0
C622 C 0.80583 0.03457 0.52881 0.0
C623 C 0.82639 0.04941 0.52931 0.0
C624 C 0.78985 0.06042 0.49847 0.0
H625 H 0.84377 0.08113 0.51481 0.0
C626 C 0.85098 0.12963 0.49402 0.0
O627 O 0.80781 0.18298 0.52633 0.0
O628 O 0.8042 0.14736 0.54415 0.0
N629 N 0.77568 0.08767 0.47029 0.0
C630 C 0.75923 0.09558 0.45426 0.0
C631 C 0.73753 0.08281 0.45163 0.0
C632 C 0.73307 0.06199 0.46539 0.0
C633 C 0.75052 0.05393 0.48142 0.0
C634 C 0.77193 0.06724 0.48306 0.0
H635 H 0.76252 0.11167 0.44376 0.0
O636 O 0.76737 0.15123 0.5114 0.0
O637 O 0.7917 0.12015 0.50278 0.0
O638 O 0.80294 0.16226 0.47482 0.0
O639 O 0.80285 0.12754 0.45431 0.0
C640 C 0.74741 0.03336 0.496 0.0
C641 C 0.76567 0.02647 0.5119 0.0
H642 H 0.80455 0.01906 0.54058 0.0
H643 H 0.84086 0.04532 0.54139 0.0
H644 H 0.7242 0.08909 0.43916 0.0
H645 H 0.71619 0.05234 0.4635 0.0
H646 H 0.73098 0.02278 0.49523 0.0
H647 H 0.763 0.01071 0.52312 0.0
Mn648 Mn 0.6462 0.02614 0.29201 0.0
Mn649 Mn 0.69623 0.05033 0.31478 0.0
C650 C 0.656 0.06513 0.28255 0.0
C651 C 0.62801 0.0046 0.26272 0.0
C652 C 0.64929 0.04077 0.34295 0.0
O653 O 0.66533 0.99728 0.30423 0.0
O654 O 0.70084 0.01471 0.31353 0.0
C655 C 0.7334 0.03921 0.27722 0.0
N656 N 0.72106 0.05569 0.29092 0.0
C657 C 0.74432 0.08835 0.27377 0.0
C658 C 0.75739 0.0717 0.25957 0.0
C659 C 0.75184 0.04703 0.26125 0.0
C660 C 0.72619 0.07947 0.2894 0.0
H661 H 0.72915 0.02025 0.27846 0.0
C662 C 0.68736 0.99623 0.311 0.0
O663 O 0.61807 0.00603 0.28382 0.0
O664 O 0.64921 0.0144 0.25921 0.0
N665 N 0.69391 0.0848 0.31666 0.0
C666 C 0.67832 0.09865 0.33021 0.0
C667 C 0.6807 0.12387 0.32984 0.0
C668 C 0.69918 0.13456 0.31569 0.0
C669 C 0.71503 0.11993 0.30191 0.0
C670 C 0.71182 0.0949 0.30306 0.0
H671 H 0.66415 0.09052 0.3412 0.0
O672 O 0.63384 0.05782 0.28009 0.0
O673 O 0.67169 0.04933 0.29033 0.0
O674 O 0.63648 0.03507 0.32557 0.0
O675 O 0.67195 0.04582 0.34103 0.0
C676 C 0.7336 0.12922 0.28676 0.0
C677 C 0.74819 0.11345 0.27265 0.0
H678 H 0.77154 0.07767 0.24715 0.0
H679 H 0.76176 0.03409 0.25026 0.0
H680 H 0.66834 0.13505 0.34045 0.0
H681 H 0.70091 0.15402 0.3154 0.0
H682 H 0.73652 0.1485 0.2855 0.0
H683 H 0.76208 0.12085 0.26073 0.0
Mn684 Mn 0.79001 0.90769 0.03371 0.0
Mn685 Mn 0.79307 0.95606 0.99657 0.0
C686 C 0.82796 0.92758 0.02626 0.0
C687 C 0.78452 0.89078 0.07325 0.0
C688 C 0.78695 0.90434 0.97877 0.0
O689 O 0.75361 0.9196 0.03205 0.0
O690 O 0.75919 0.95376 0.01048 0.0
C691 C 0.78515 0.99576 0.03076 0.0
N692 N 0.79894 0.98515 0.01321 0.0
C693 C 0.82791 0.01739 0.01311 0.0
C694 C 0.81377 0.0289 0.03089 0.0
C695 C 0.79238 0.01796 0.03985 0.0
C696 C 0.8197 0.99538 1.00464 0.0
H697 H 0.76888 0.98726 0.03788 0.0
C698 C 0.74551 0.93943 0.02279 0.0
O699 O 0.78122 0.87834 0.05433 0.0
O700 O 0.79016 0.91314 0.0693 0.0
N701 N 0.82486 0.96053 0.9823 0.0
C702 C 0.83777 0.94579 0.96718 0.0
C703 C 0.86052 0.95324 0.95781 0.0
C704 C 0.86966 0.97582 0.96395 0.0
C705 C 0.85603 0.99067 0.97953 0.0
C706 C 0.83347 0.9823 0.98829 0.0
H707 H 0.83083 0.92844 0.96237 0.0
O708 O 0.82729 0.90529 0.03357 0.0
O709 O 0.80652 0.93722 0.02291 0.0
O710 O 0.78881 0.89373 0.99902 0.0
O711 O 0.78742 0.92735 0.97672 0.0
C712 C 0.86418 0.01322 0.98712 0.0
C713 C 0.85018 0.02655 1.00395 0.0
H714 H 0.81938 0.04592 0.03807 0.0
H715 H 0.78154 0.02657 0.05378 0.0
H716 H 0.87098 0.94162 0.94589 0.0
H717 H 0.88727 0.98144 0.9568 0.0
H718 H 0.88146 0.02025 0.98049 0.0
H719 H 0.85695 0.04357 0.01009 0.0
Mn720 Mn 0.30136 0.66189 0.019 0.0
Mn721 Mn 0.30039 0.60873 0.99064 0.0
C722 C 0.26564 0.64095 0.01719 0.0
C723 C 0.30516 0.68325 0.05372 0.0
C724 C 0.30128 0.65705 0.96524 0.0
O725 O 0.33739 0.65305 0.01582 0.0
O726 O 0.33454 0.61706 0.99786 0.0
C727 C 0.3162 0.5773 0.03009 0.0
N728 N 0.29936 0.58332 0.01374 0.0
C729 C 0.27278 0.5516 0.02751 0.0
C730 C 0.28991 0.54495 0.0444 0.0
C731 C 0.31171 0.55787 0.0457 0.0
C732 C 0.27834 0.571 0.01232 0.0
H733 H 0.33289 0.5873 0.03126 0.0
C734 C 0.34698 0.63405 0.00664 0.0
O735 O 0.30808 0.69389 0.03325 0.0
O736 O 0.30194 0.66014 0.05377 0.0
N737 N 0.26839 0.59863 0.98277 0.0
C738 C 0.25345 0.60784 0.96598 0.0
C739 C 0.23071 0.5972 0.96264 0.0
C740 C 0.22362 0.57717 0.97652 0.0
C741 C 0.23946 0.56782 0.99346 0.0
C742 C 0.26201 0.579 0.9958 0.0
H743 H 0.25876 0.6233 0.95534 0.0
O744 O 0.26506 0.66395 0.02112 0.0
O745 O 0.28712 0.6309 0.01446 0.0
O746 O 0.30125 0.67007 0.98374 0.0
O747 O 0.30085 0.63398 0.96579 0.0
C748 C 0.23359 0.54809 0.00839 0.0
C749 C 0.25022 0.54 0.02542 0.0
H750 H 0.28644 0.53009 0.05657 0.0
H751 H 0.32496 0.55293 0.05877 0.0
H752 H 0.2186 0.60451 0.94952 0.0
H753 H 0.20595 0.56919 0.97409 0.0
H754 H 0.21621 0.53918 0.00709 0.0
H755 H 0.24539 0.52498 0.03695 0.0
Mn756 Mn 0.14746 0.52406 0.79352 0.0
Mn757 Mn 0.19714 0.54571 0.81943 0.0
C758 C 0.15741 0.56372 0.78848 0.0
C759 C 0.12912 0.50613 0.76216 0.0
C760 C 0.15008 0.53423 0.84602 0.0
O761 O 0.16652 0.49402 0.80176 0.0
O762 O 0.20026 0.50989 0.81711 0.0
C763 C 0.23451 0.5343 0.78213 0.0
N764 N 0.22259 0.55082 0.79612 0.0
C765 C 0.2469 0.58313 0.77976 0.0
C766 C 0.25953 0.56643 0.76526 0.0
C767 C 0.25327 0.54193 0.76642 0.0
C768 C 0.22846 0.57444 0.79515 0.0
H769 H 0.22971 0.51546 0.78295 0.0
C770 C 0.18747 0.49194 0.81084 0.0
O771 O 0.11928 0.50515 0.78332 0.0
O772 O 0.1501 0.51658 0.75953 0.0
N773 N 0.19632 0.58011 0.8225 0.0
C774 C 0.18122 0.59407 0.83644 0.0
C775 C 0.18447 0.61917 0.83675 0.0
C776 C 0.20327 0.62962 0.82282 0.0
C777 C 0.21861 0.61487 0.80865 0.0
C778 C 0.21458 0.58995 0.80918 0.0
H779 H 0.16673 0.58612 0.84716 0.0
O780 O 0.13508 0.55702 0.78567 0.0
O781 O 0.17305 0.54702 0.79449 0.0
O782 O 0.13823 0.52821 0.8281 0.0
O783 O 0.17211 0.54141 0.84494 0.0
C784 C 0.23742 0.62396 0.79366 0.0
C785 C 0.25153 0.6081 0.7792 0.0
H786 H 0.27391 0.57226 0.75301 0.0
H787 H 0.26286 0.52896 0.7552 0.0
H788 H 0.17249 0.63045 0.84766 0.0
H789 H 0.20563 0.649 0.82301 0.0
H790 H 0.24092 0.64315 0.79282 0.0
H791 H 0.26566 0.61535 0.76746 0.0
Mn792 Mn 0.29023 0.40772 0.53243 0.0
Mn793 Mn 0.29463 0.45606 0.49521 0.0
C794 C 0.32853 0.42677 0.52476 0.0
C795 C 0.28473 0.39036 0.57174 0.0
C796 C 0.2889 0.40467 0.47699 0.0
O797 O 0.25416 0.42044 0.53141 0.0
O798 O 0.26009 0.45238 0.50694 0.0
C799 C 0.28319 0.49435 0.53017 0.0
N800 N 0.29862 0.48456 0.5134 0.0
C801 C 0.32747 0.51642 0.51782 0.0
C802 C 0.31182 0.52693 0.53504 0.0
C803 C 0.28961 0.5158 0.54128 0.0
C804 C 0.32009 0.49504 0.50736 0.0
H805 H 0.26613 0.48584 0.53507 0.0
C806 C 0.24614 0.4391 0.52009 0.0
O807 O 0.28092 0.37831 0.55268 0.0
O808 O 0.29093 0.41262 0.56806 0.0
N809 N 0.3269 0.46208 0.48272 0.0
C810 C 0.34036 0.44916 0.46644 0.0
C811 C 0.36317 0.45776 0.45839 0.0
C812 C 0.37188 0.47956 0.46711 0.0
C813 C 0.35768 0.49258 0.48378 0.0
C814 C 0.33495 0.48327 0.49093 0.0
H815 H 0.33381 0.43237 0.45972 0.0
O816 O 0.32747 0.40445 0.53189 0.0
O817 O 0.3073 0.43693 0.5217 0.0
O818 O 0.28821 0.39433 0.49753 0.0
O819 O 0.29123 0.42753 0.47456 0.0
C820 C 0.36531 0.51428 0.49381 0.0
C821 C 0.35026 0.52614 0.51088 0.0
H822 H 0.31673 0.54343 0.5437 0.0
H823 H 0.27748 0.52374 0.55463 0.0
H824 H 0.37405 0.44757 0.44557 0.0
H825 H 0.38956 0.48603 0.46098 0.0
H826 H 0.38285 0.52185 0.48872 0.0
H827 H 0.35646 0.54265 0.51868 0.0
Mn828 Mn 0.4095 0.55059 0.25266 0.0
Mn829 Mn 0.36715 0.52332 0.28761 0.0
C830 C 0.40664 0.50931 0.25266 0.0
C831 C 0.42026 0.56864 0.21688 0.0
C832 C 0.41368 0.54462 0.30562 0.0
O833 O 0.38616 0.57784 0.26198 0.0
O834 O 0.35644 0.55706 0.28141 0.0
C835 C 0.32617 0.52273 0.25472 0.0
N836 N 0.34192 0.51066 0.26897 0.0
C837 C 0.32285 0.47276 0.26153 0.0
C838 C 0.30632 0.48479 0.24688 0.0
C839 C 0.30808 0.50987 0.24336 0.0
C840 C 0.34062 0.4865 0.2722 0.0
H841 H 0.32741 0.54202 0.25206 0.0
C842 C 0.36526 0.57654 0.27251 0.0
O843 O 0.43208 0.57319 0.23586 0.0
O844 O 0.40161 0.55456 0.21906 0.0
N845 N 0.37519 0.49033 0.2947 0.0
C846 C 0.3934 0.48128 0.30823 0.0
C847 C 0.39464 0.45635 0.31299 0.0
C848 C 0.37695 0.44107 0.30408 0.0
C849 C 0.35834 0.45081 0.29024 0.0
C850 C 0.35814 0.47575 0.28596 0.0
H851 H 0.40683 0.493 0.31541 0.0
O852 O 0.42669 0.51938 0.24512 0.0
O853 O 0.3891 0.52374 0.25977 0.0
O854 O 0.4232 0.55024 0.28555 0.0
O855 O 0.39253 0.53537 0.30846 0.0
C856 C 0.34002 0.43676 0.28048 0.0
C857 C 0.32248 0.44766 0.26588 0.0
H858 H 0.2923 0.47494 0.23815 0.0
H859 H 0.29546 0.51927 0.232 0.0
H860 H 0.40908 0.44896 0.32366 0.0
H861 H 0.3779 0.42187 0.3079 0.0
H862 H 0.33936 0.41752 0.28392 0.0
H863 H 0.30882 0.43657 0.25806 0.0
Co864 Co 0.0284 0.04602 0.01749 0.0
C865 C 0.02475 0.07557 0.05801 0.0
Co866 Co 0.03705 0.02637 0.04976 0.0
C867 C 0.00697 0.05492 0.97362 0.0
C868 C 0.02811 0.08515 0.98344 0.0
N869 N 0.02131 0.06286 0.99057 0.0
N870 N 1.00426 0.07131 0.95616 0.0
C871 C 0.01767 0.09039 0.9621 0.0
H872 H 0.99891 0.03719 0.97399 0.0
H873 H 0.03974 0.09683 0.99319 0.0
C874 C 0.04064 0.99689 0.00907 0.0
N875 N 0.04365 0.00911 0.07675 0.0
C876 C 0.05663 0.01588 0.09529 0.0
C877 C 0.03502 0.9871 0.08271 0.0
N878 N 0.05617 0.99908 0.11268 0.0
C879 C 0.04257 0.98094 0.10492 0.0
C880 C 0.98762 0.02171 0.03735 0.0
O881 O 0.03479 0.01673 0.99892 0.0
O882 O 0.04415 0.99738 0.03122 0.0
O883 O 1.00331 0.01588 0.0526 0.0
O884 O 0.99413 0.0364 0.02096 0.0
O885 O 0.02985 0.05565 0.06849 0.0
H886 H 0.02357 0.9764 0.07176 0.0
H887 H 0.06554 0.03314 0.09636 0.0
O888 O 0.02211 0.07505 0.03574 0.0
O889 O 0.06228 0.05569 0.01395 0.0
O890 O 0.07105 0.03688 0.0468 0.0
C891 C 0.07779 0.0507 0.02968 0.0
H892 H 0.01954 0.10696 0.95194 0.0
H893 H 0.03835 0.96452 0.11466 0.0
Co894 Co 0.27737 0.78169 0.30252 0.0
C895 C 0.27706 0.73425 0.28974 0.0
Co896 Co 0.25813 0.776 0.26942 0.0
C897 C 0.27938 0.80048 0.34872 0.0
C898 C 0.31006 0.77695 0.34178 0.0
N899 N 0.29024 0.78688 0.33172 0.0
N900 N 0.29126 0.79926 0.3692 0.0
C901 C 0.31077 0.78459 0.36488 0.0
H902 H 0.26278 0.81087 0.34607 0.0
H903 H 0.32269 0.76441 0.33312 0.0
C904 C 0.25899 0.82352 0.28195 0.0
N905 N 0.24522 0.77094 0.2401 0.0
C906 C 0.25784 0.76177 0.22135 0.0
C907 C 0.22299 0.77679 0.23185 0.0
N908 N 0.24471 0.76201 0.2017 0.0
C909 C 0.22257 0.7711 0.20814 0.0
C910 C 0.22678 0.7733 0.30697 0.0
O911 O 0.27097 0.81507 0.2991 0.0
O912 O 0.25117 0.80927 0.2666 0.0
O913 O 0.22734 0.77139 0.28462 0.0
O914 O 0.24635 0.77759 0.31746 0.0
O915 O 0.26534 0.74251 0.2723 0.0
H916 H 0.2083 0.78516 0.24221 0.0
H917 H 0.2765 0.75508 0.22198 0.0
O918 O 0.28375 0.74856 0.30556 0.0
O919 O 0.30839 0.78557 0.28752 0.0
O920 O 0.28904 0.78092 0.25464 0.0
C921 C 0.30876 0.78444 0.26513 0.0
H922 H 0.32414 0.77912 0.37764 0.0
H923 H 0.20753 0.77409 0.19643 0.0
Co924 Co 0.51528 0.0291 0.52131 0.0
C925 C 0.52912 0.07758 0.51262 0.0
Co926 Co 0.5467 0.03945 0.54185 0.0
C927 C 0.46986 0.00687 0.51332 0.0
C928 C 0.48129 0.02824 0.48337 0.0
N929 N 0.48821 0.02074 0.50496 0.0
N930 N 0.45167 0.00555 0.49798 0.0
C931 C 0.4586 0.01905 0.47911 0.0
H932 H 0.46932 0.99876 0.53082 0.0
H933 H 0.49175 0.04011 0.47177 0.0
C934 C 0.53298 0.99093 0.55025 0.0
N935 N 0.57398 0.0476 0.558 0.0
C936 C 0.59264 0.06047 0.54874 0.0
C937 C 0.58199 0.03893 0.57881 0.0
N938 N 0.61212 0.05983 0.56259 0.0
C939 C 0.60571 0.04622 0.58154 0.0
C940 C 0.50342 0.04761 0.5658 0.0
O941 O 0.51711 0.99657 0.53503 0.0
O942 O 0.54807 0.00704 0.55579 0.0
O943 O 0.52639 0.04965 0.56717 0.0
O944 O 0.49467 0.03917 0.54712 0.0
O945 O 0.54514 0.07198 0.52772 0.0
H946 H 0.57185 0.02689 0.5905 0.0
H947 H 0.59271 0.06854 0.53122 0.0
O948 O 0.51371 0.06155 0.50757 0.0
O949 O 0.53577 0.01924 0.49571 0.0
O950 O 0.56712 0.02931 0.51635 0.0
C951 C 0.55868 0.02143 0.49737 0.0
H952 H 0.44792 0.02225 0.46357 0.0
H953 H 0.61761 0.04117 0.59576 0.0
Co954 Co 0.29558 0.29672 0.78317 0.0
C955 C 0.27929 0.31188 0.73868 0.0
Co956 Co 0.25887 0.28351 0.7771 0.0
C957 C 0.34281 0.29298 0.80136 0.0
C958 C 0.33635 0.32853 0.78749 0.0
N959 N 0.32655 0.30639 0.78944 0.0
N960 N 0.36208 0.30591 0.80767 0.0
C961 C 0.35823 0.32834 0.79891 0.0
H962 H 0.33953 0.27458 0.80714 0.0
H963 H 0.32739 0.34413 0.77977 0.0
C964 C 0.27511 0.26808 0.8216 0.0
N965 N 0.22768 0.27417 0.7709 0.0
C966 C 0.21023 0.28886 0.76221 0.0
C967 C 0.21783 0.252 0.77157 0.0
N968 N 0.18996 0.27682 0.75712 0.0
C969 C 0.19459 0.25356 0.76289 0.0
C970 C 0.29483 0.25237 0.76126 0.0
O971 O 0.29343 0.28046 0.81445 0.0
O972 O 0.25724 0.26662 0.80774 0.0
O973 O 0.27182 0.25539 0.76271 0.0
O974 O 0.30854 0.26831 0.76944 0.0
O975 O 0.26062 0.30026 0.74624 0.0
H976 H 0.22725 0.2357 0.77716 0.0
H977 H 0.21286 0.30787 0.75844 0.0
O978 O 0.29747 0.31287 0.75221 0.0
O979 O 0.28285 0.32508 0.7968 0.0
O980 O 0.246 0.31177 0.79167 0.0
C981 C 0.25992 0.32794 0.79908 0.0
H982 H 0.3697 0.34374 0.80167 0.0
H983 H 0.1823 0.23872 0.76046 0.0
Co984 Co 0.02336 0.0355 0.53188 0.0
C985 C 0.0088 0.06387 0.56965 0.0
Co986 Co 0.04975 0.06339 0.54015 0.0
C987 C 1.00509 0.98978 0.51974 0.0
C988 C 0.97695 0.01696 0.51831 0.0
N989 N 1.0005 0.01326 0.52404 0.0
N990 N 0.98558 0.97876 0.51124 0.0
C991 C 0.96778 0.9957 0.51007 0.0
H992 H 0.02295 0.98129 0.52125 0.0
H993 H 0.96747 0.03425 0.51895 0.0
C994 C 0.06443 0.0348 0.50257 0.0
N995 N 0.07263 0.08572 0.54777 0.0
C996 C 0.06804 0.10931 0.55139 0.0
C997 C 0.09618 0.08222 0.5536 0.0
N998 N 0.08755 0.12065 0.55949 0.0
C999 C 0.10533 0.10375 0.56124 0.0
C1000 C 0.05727 0.01886 0.56266 0.0
O1001 O 0.04429 0.02446 0.50706 0.0
O1002 O 0.07012 0.053 0.51458 0.0
O1003 O 0.06511 0.04021 0.56 0.0
O1004 O 0.03804 0.01294 0.5524 0.0
O1005 O 0.02935 0.07369 0.56581 0.0
H1006 H 0.10568 0.06494 0.55346 0.0
H1007 H 0.05015 0.11769 0.54981 0.0
O1008 O 1.00258 0.04655 0.55672 0.0
O1009 O 0.009 0.05777 0.51127 0.0
O1010 O 0.03397 0.08652 0.52017 0.0
C1011 C 0.01584 0.07941 0.50882 0.0
H1012 H 0.94986 0.99306 0.50306 0.0
H1013 H 0.12314 0.10658 0.56843 0.0
Co1014 Co 0.29211 0.79537 0.79307 0.0
C1015 C 0.24357 0.78329 0.80462 0.0
Co1016 Co 0.27948 0.76564 0.77169 0.0
C1017 C 0.31921 0.83665 0.80456 0.0
C1018 C 0.29927 0.82307 0.83487 0.0
N1019 N 0.30388 0.81912 0.81166 0.0
N1020 N 0.32431 0.85149 0.82232 0.0
C1021 C 0.31167 0.84325 0.84145 0.0
H1022 H 0.32574 0.83909 0.78645 0.0
H1023 H 0.2874 0.81221 0.84615 0.0
C1024 C 0.3278 0.77762 0.75996 0.0
N1025 N 0.26752 0.7419 0.75316 0.0
C1026 C 0.25248 0.72444 0.76096 0.0
C1027 C 0.26851 0.7398 0.72943 0.0
N1028 N 0.24342 0.71178 0.74313 0.0
C1029 C 0.25368 0.72118 0.72318 0.0
C1030 C 0.27182 0.81132 0.7521 0.0
O1031 O 0.32364 0.79294 0.7763 0.0
O1032 O 0.31079 0.76325 0.75508 0.0
O1033 O 0.26918 0.78881 0.74957 0.0
O1034 O 0.28161 0.8189 0.77061 0.0
O1035 O 0.24801 0.76809 0.78828 0.0
H1036 H 0.27847 0.75171 0.71745 0.0
H1037 H 0.24788 0.72153 0.77948 0.0
O1038 O 0.2605 0.79768 0.80974 0.0
O1039 O 0.30255 0.77214 0.81532 0.0
O1040 O 0.28974 0.74228 0.79412 0.0
C1041 C 0.29955 0.74967 0.81267 0.0
H1042 H 0.31114 0.85146 0.85874 0.0
H1043 H 0.25 0.71571 0.70536 0.0
Co1044 Co 0.52671 0.02476 0.01338 0.0
C1045 C 0.57084 0.00821 0.03122 0.0
Co1046 Co 0.53125 0.0376 0.04943 0.0
C1047 C 0.51371 0.03241 0.96605 0.0
C1048 C 0.52526 0.9957 0.97122 0.0
N1049 N 0.52239 0.01698 0.98237 0.0
N1050 N 0.51052 0.02171 0.94515 0.0
C1051 C 0.51793 0.99855 0.94825 0.0
H1052 H 0.50937 0.05116 0.96971 0.0
H1053 H 0.53148 0.9791 0.97946 0.0
C1054 C 0.48726 0.05448 0.03146 0.0
N1055 N 0.53539 0.0452 0.08051 0.0
C1056 C 0.54275 0.02926 0.09702 0.0
C1057 C 0.53195 0.06622 0.092 0.0
N1058 N 0.54421 0.03933 0.11845 0.0
C1059 C 0.53739 0.06266 0.11544 0.0
C1060 C 0.55012 0.06915 0.01737 0.0
O1061 O 0.49519 0.04193 0.01399 0.0
O1062 O 0.50038 0.05535 0.04961 0.0
O1063 O 0.54745 0.06566 0.03947 0.0
O1064 O 0.54254 0.05344 1.00328 0.0
O1065 O 0.56252 0.02003 0.04902 0.0
H1066 H 0.52605 0.08299 0.08385 0.0
H1067 H 0.54676 0.01047 0.09331 0.0
O1068 O 0.5579 0.00766 0.01292 0.0
O1069 O 0.51088 0.99624 0.02347 0.0
O1070 O 0.5146 0.00952 0.05945 0.0
C1071 C 0.50707 0.99366 0.04556 0.0
H1072 H 0.51706 0.98441 0.93526 0.0
H1073 H 0.53691 0.07631 0.129 0.0
Co1074 Co 0.27904 0.2724 0.28824 0.0
C1075 C 0.328 0.28305 0.29383 0.0
Co1076 Co 0.2882 0.30598 0.26991 0.0
C1077 C 0.2507 0.23127 0.29948 0.0
C1078 C 0.27556 0.23847 0.32685 0.0
N1079 N 0.26898 0.2458 0.30514 0.0
N1080 N 0.24517 0.21531 0.31688 0.0
C1081 C 0.26096 0.21963 0.33412 0.0
H1082 H 0.241 0.23312 0.28321 0.0
H1083 H 0.28946 0.24682 0.33705 0.0
C1084 C 0.2391 0.29527 0.26454 0.0
N1085 N 0.29829 0.33243 0.25252 0.0
C1086 C 0.31842 0.3455 0.25562 0.0
C1087 C 0.29 0.33964 0.23138 0.0
N1088 N 0.32349 0.36026 0.23703 0.0
C1089 C 0.30532 0.35682 0.22189 0.0
C1090 C 0.29082 0.26374 0.2405 0.0
O1091 O 0.24553 0.27776 0.27784 0.0
O1092 O 0.25487 0.31134 0.25965 0.0
O1093 O 0.29429 0.28641 0.24159 0.0
O1094 O 0.28502 0.25273 0.25977 0.0
O1095 O 0.32163 0.30067 0.28061 0.0
H1096 H 0.27456 0.332 0.2228 0.0
H1097 H 0.32964 0.34337 0.27086 0.0
O1098 O 0.31229 0.26686 0.29844 0.0
O1099 O 0.27317 0.29202 0.31671 0.0
O1100 O 0.28208 0.32566 0.29813 0.0
C1101 C 0.2765 0.31477 0.31752 0.0
H1102 H 0.26185 0.21005 0.35083 0.0
H1103 H 0.30331 0.36558 0.20489 0.0
Co1104 Co 0.52813 0.54003 0.02483 0.0
C1105 C 0.51573 0.56189 0.06666 0.0
Co1106 Co 0.5551 0.5667 0.03496 0.0
C1107 C 0.51558 0.49513 0.00733 0.0
C1108 C 0.48272 0.51401 0.01765 0.0
N1109 N 0.5072 0.51628 0.01598 0.0
N1110 N 0.49766 0.47939 1.00377 0.0
C1111 C 0.47675 0.49123 0.01004 0.0
H1112 H 0.53478 0.49135 1.00393 0.0
H1113 H 0.47016 0.52771 0.02447 0.0
C1114 C 0.56743 0.5451 0.99292 0.0
N1115 N 0.57689 0.58954 0.044 0.0
C1116 C 0.57101 0.6123 0.05015 0.0
C1117 C 0.60091 0.58699 0.04849 0.0
N1118 N 0.59019 0.624 0.05846 0.0
C1119 C 0.60908 0.60821 0.05781 0.0
C1120 C 0.56583 0.52096 0.05129 0.0
O1121 O 0.54795 0.5338 0.99772 0.0
O1122 O 0.57404 0.56145 0.00681 0.0
O1123 O 0.57365 0.54239 0.05043 0.0
O1124 O 0.54578 0.5164 0.04186 0.0
O1125 O 0.53624 0.57193 0.06316 0.0
H1126 H 0.61152 0.5705 0.04613 0.0
H1127 H 0.5526 0.61976 0.04998 0.0
O1128 O 0.50834 0.54678 0.05185 0.0
O1129 O 0.51066 0.5632 0.00794 0.0
O1130 O 0.5358 0.59098 0.01941 0.0
C1131 C 0.51688 0.58515 0.00844 0.0
H1132 H 0.45859 0.48381 0.00981 0.0
H1133 H 0.62713 0.61157 0.06423 0.0
Co1134 Co 0.78694 0.29677 0.28853 0.0
C1135 C 0.73845 0.28384 0.29944 0.0
Co1136 Co 0.77499 0.26716 0.26662 0.0
C1137 C 0.81333 0.33818 0.30099 0.0
C1138 C 0.79294 0.32409 0.33079 0.0
N1139 N 0.79805 0.32044 0.3076 0.0
N1140 N 0.81793 0.35284 0.31904 0.0
C1141 C 0.80499 0.3443 0.33784 0.0
H1142 H 0.82022 0.34088 0.28303 0.0
H1143 H 0.78097 0.31298 0.34173 0.0
C1144 C 0.82336 0.27991 0.25568 0.0
N1145 N 0.76368 0.24348 0.24758 0.0
C1146 C 0.74848 0.22591 0.25479 0.0
C1147 C 0.76552 0.24148 0.22386 0.0
N1148 N 0.74015 0.21329 0.23658 0.0
C1149 C 0.75106 0.22281 0.21701 0.0
C1150 C 0.76683 0.31287 0.24745 0.0
O1151 O 0.81871 0.29506 0.27207 0.0
O1152 O 0.80662 0.26537 0.25042 0.0
O1153 O 0.76469 0.29034 0.24469 0.0
O1154 O 0.77626 0.32048 0.26615 0.0
O1155 O 0.74321 0.26905 0.28281 0.0
H1156 H 0.77583 0.25348 0.21227 0.0
H1157 H 0.74324 0.22285 0.27316 0.0
O1158 O 0.75515 0.2983 0.305 0.0
O1159 O 0.79751 0.27342 0.31057 0.0
O1160 O 0.78522 0.24372 0.28885 0.0
C1161 C 0.79478 0.25096 0.30759 0.0
H1162 H 0.80406 0.3523 0.35522 0.0
H1163 H 0.74805 0.21737 0.19904 0.0
Co1164 Co 0.02858 0.52974 0.51227 0.0
C1165 C 0.0729 0.51264 0.5298 0.0
Co1166 Co 0.03329 0.54135 0.54867 0.0
C1167 C 0.01166 0.53549 0.4656 0.0
C1168 C 0.03358 0.50332 0.46847 0.0
N1169 N 0.02449 0.52219 0.48107 0.0
N1170 N 0.01226 0.52573 0.444 0.0
C1171 C 0.02609 0.50552 0.44549 0.0
H1172 H 1.00204 0.55216 0.46996 0.0
H1173 H 0.04471 0.48881 0.47554 0.0
C1174 C 0.9891 0.55874 0.53103 0.0
N1175 N 0.03737 0.54866 0.57975 0.0
C1176 C 0.04464 0.53258 0.59614 0.0
C1177 C 0.03382 0.56958 0.59141 0.0
N1178 N 0.04595 0.54246 0.61765 0.0
C1179 C 0.03911 0.5658 0.61484 0.0
C1180 C 0.05194 0.57375 0.51692 0.0
O1181 O 0.99698 0.54655 0.51332 0.0
O1182 O 1.00229 0.55917 0.54916 0.0
O1183 O 0.04963 0.56954 0.53895 0.0
O1184 O 0.04387 0.55865 0.50247 0.0
O1185 O 0.06462 0.5235 0.5482 0.0
H1186 H 0.02793 0.58641 0.58338 0.0
H1187 H 0.0487 0.51382 0.59229 0.0
O1188 O 0.05995 0.51328 0.51152 0.0
O1189 O 0.01319 0.50071 0.52204 0.0
O1190 O 0.01667 0.51327 0.55832 0.0
C1191 C 0.00939 0.4976 0.54409 0.0
H1192 H 0.02981 0.49296 0.43124 0.0
H1193 H 0.03854 0.5793 0.62855 0.0
Co1194 Co 0.79489 0.80011 0.28622 0.0
C1195 C 0.77929 0.8149 0.24149 0.0
Co1196 Co 0.75835 0.78658 0.27988 0.0
C1197 C 0.84174 0.79561 0.30492 0.0
C1198 C 0.83542 0.83193 0.29305 0.0
N1199 N 0.82578 0.80968 0.29326 0.0
N1200 N 0.86056 0.80818 0.31285 0.0
C1201 C 0.85683 0.83109 0.30529 0.0
H1202 H 0.83834 0.77691 0.30953 0.0
H1203 H 0.82654 0.84797 0.28613 0.0
C1204 C 0.77404 0.77129 0.32446 0.0
N1205 N 0.72743 0.77706 0.2731 0.0
C1206 C 0.71027 0.79171 0.26388 0.0
C1207 C 0.71743 0.75496 0.27391 0.0
N1208 N 0.69003 0.77974 0.25864 0.0
C1209 C 0.69437 0.75653 0.26479 0.0
C1210 C 0.79467 0.75565 0.26451 0.0
O1211 O 0.79259 0.78312 0.317 0.0
O1212 O 0.75582 0.77046 0.31098 0.0
O1213 O 0.77163 0.75819 0.26647 0.0
O1214 O 0.80823 0.77203 0.27208 0.0
O1215 O 0.76095 0.80259 0.2487 0.0
H1216 H 0.72662 0.73869 0.27994 0.0
H1217 H 0.71309 0.81066 0.2599 0.0
O1218 O 0.79701 0.81683 0.25549 0.0
O1219 O 0.78154 0.82835 0.30034 0.0
O1220 O 0.74513 0.81503 0.29326 0.0
C1221 C 0.75852 0.83126 0.30132 0.0
H1222 H 0.86793 0.84637 0.30951 0.0
H1223 H 0.68201 0.74175 0.26241 0.0
Co1224 Co 0.78282 0.25897 0.80137 0.0
C1225 C 0.7829 0.21123 0.78964 0.0
Co1226 Co 0.7619 0.2521 0.7695 0.0
C1227 C 0.78603 0.27959 0.84659 0.0
C1228 C 0.81699 0.25641 0.8398 0.0
N1229 N 0.79668 0.26545 0.8299 0.0
N1230 N 0.79848 0.27955 0.86674 0.0
C1231 C 0.8182 0.26514 0.86252 0.0
H1232 H 0.76916 0.28956 0.84398 0.0
H1233 H 0.82966 0.24377 0.83134 0.0
C1234 C 0.76174 0.29977 0.78102 0.0
N1235 N 0.74811 0.2458 0.74089 0.0
C1236 C 0.75994 0.23373 0.72336 0.0
C1237 C 0.72731 0.2541 0.73137 0.0
N1238 N 0.74784 0.23447 0.70299 0.0
C1239 C 0.7271 0.24719 0.70798 0.0
C1240 C 0.73249 0.24957 0.80828 0.0
O1241 O 0.77531 0.29212 0.79735 0.0
O1242 O 0.75343 0.285 0.76642 0.0
O1243 O 0.73191 0.24671 0.78606 0.0
O1244 O 0.75254 0.25458 0.8176 0.0
O1245 O 0.77031 0.21923 0.77273 0.0
H1246 H 0.71378 0.26536 0.74047 0.0
H1247 H 0.77795 0.2258 0.72525 0.0
O1248 O 0.79024 0.22574 0.80503 0.0
O1249 O 0.81296 0.26349 0.78504 0.0
O1250 O 0.79216 0.25772 0.75319 0.0
C1251 C 0.81228 0.26204 0.76272 0.0
H1252 H 0.83204 0.26057 0.87513 0.0
H1253 H 0.7131 0.25178 0.69555 0.0
Co1254 Co 0.7806 0.77261 0.78979 0.0
C1255 C 0.82992 0.78571 0.79413 0.0
Co1256 Co 0.78929 0.80604 0.77083 0.0
C1257 C 0.75835 0.72782 0.80192 0.0
C1258 C 0.78222 0.73951 0.82867 0.0
N1259 N 0.77328 0.74578 0.80746 0.0
N1260 N 0.7578 0.71049 0.81871 0.0
C1261 C 0.77288 0.71756 0.83554 0.0
H1262 H 0.74878 0.72699 0.78549 0.0
H1263 H 0.79503 0.75002 0.83829 0.0
C1264 C 0.73984 0.7926 0.76696 0.0
N1265 N 0.79689 0.83277 0.75215 0.0
C1266 C 0.81821 0.84464 0.75069 0.0
C1267 C 0.78449 0.84071 0.7332 0.0
N1268 N 0.81969 0.85921 0.73149 0.0
C1269 C 0.79837 0.85711 0.72062 0.0
C1270 C 0.79254 0.76346 0.74204 0.0
O1271 O 0.74669 0.77541 0.78046 0.0
O1272 O 0.75522 0.80894 0.76174 0.0
O1273 O 0.79579 0.7862 0.74271 0.0
O1274 O 0.78682 0.75279 0.7615 0.0
O1275 O 0.8232 0.80296 0.78063 0.0
H1276 H 0.76712 0.83398 0.72781 0.0
H1277 H 0.83273 0.84225 0.76306 0.0
O1278 O 0.81449 0.76934 0.79908 0.0
O1279 O 0.77424 0.79247 0.81798 0.0
O1280 O 0.78298 0.82595 0.79896 0.0
C1281 C 0.77743 0.81525 0.81851 0.0
H1282 H 0.77703 0.70741 0.85141 0.0
H1283 H 0.79362 0.86592 0.7042 0.0
Co1284 Co 0.52924 0.54563 0.51297 0.0
C1285 C 0.52511 0.57453 0.55416 0.0
Co1286 Co 0.53735 0.52573 0.54539 0.0
C1287 C 0.51098 0.55468 0.46712 0.0
C1288 C 0.52637 0.58651 0.48133 0.0
N1289 N 0.5223 0.56295 0.4861 0.0
N1290 N 0.50768 0.57211 0.45075 0.0
C1291 C 0.51716 0.59227 0.45957 0.0
H1292 H 0.50461 0.53637 0.4656 0.0
H1293 H 0.53521 0.59876 0.493 0.0
C1294 C 0.54145 0.4968 0.50411 0.0
N1295 N 0.54405 0.50825 0.57234 0.0
C1296 C 0.55958 0.51372 0.58943 0.0
C1297 C 0.53368 0.48736 0.57955 0.0
N1298 N 0.55909 0.4972 0.60707 0.0
C1299 C 0.54277 0.48062 0.60105 0.0
C1300 C 0.48812 0.52132 0.53234 0.0
O1301 O 0.53649 0.51696 0.49416 0.0
O1302 O 0.54398 0.49669 0.52646 0.0
O1303 O 0.50317 0.51608 0.5484 0.0
O1304 O 0.49539 0.53514 0.51549 0.0
O1305 O 0.53074 0.55463 0.56433 0.0
H1306 H 0.52022 0.47773 0.56988 0.0
H1307 H 0.57058 0.5298 0.58926 0.0
O1308 O 0.52205 0.57423 0.53193 0.0
O1309 O 0.56289 0.55605 0.5102 0.0
O1310 O 0.57156 0.53585 0.5423 0.0
C1311 C 0.57833 0.55042 0.5258 0.0
H1312 H 0.51745 0.60977 0.45088 0.0
H1313 H 0.53792 0.46476 0.61141 0.0
Co1314 Co 0.01075 0.53423 0.02157 0.0
C1315 C 0.0248 0.58255 0.01287 0.0
Co1316 Co 0.04204 0.54428 0.04235 0.0
C1317 C 0.96597 0.51113 0.01278 0.0
C1318 C 0.97752 0.53288 0.98313 0.0
N1319 N 0.98395 0.52574 1.00498 0.0
N1320 N 0.94855 0.50887 0.99676 0.0
C1321 C 0.95554 0.52262 0.97808 0.0
H1322 H 0.96532 0.50281 0.03018 0.0
H1323 H 0.98802 0.54487 0.9717 0.0
C1324 C 0.0283 0.49594 0.05095 0.0
N1325 N 0.06921 0.55266 0.05845 0.0
C1326 C 0.08884 0.56321 0.04823 0.0
C1327 C 0.07567 0.54745 0.08075 0.0
N1328 N 0.10765 0.56434 0.0629 0.0
C1329 C 0.09941 0.55471 0.08357 0.0
C1330 C 0.99852 0.55295 0.06577 0.0
O1331 O 0.01246 0.5017 0.0357 0.0
O1332 O 0.04344 0.512 0.05656 0.0
O1333 O 0.0215 0.55468 0.06753 0.0
O1334 O 0.98998 0.54461 0.04697 0.0
O1335 O 0.04055 0.57679 0.02819 0.0
H1336 H 0.06429 0.53808 0.09372 0.0
H1337 H 0.08947 0.56936 0.03002 0.0
O1338 O 0.00947 0.5666 0.00742 0.0
O1339 O 0.0311 0.52402 0.99639 0.0
O1340 O 0.06263 0.53372 0.01686 0.0
C1341 C 0.05402 0.52571 0.99801 0.0
H1342 H 0.94553 0.52499 0.962 0.0
H1343 H 0.11007 0.55209 0.09921 0.0
H1344 H 0.05563 0.22604 0.0957 0.0
H1345 H 0.01208 0.20119 0.15542 0.0
H1346 H 0.05302 0.18627 0.07748 0.0
H1347 H 0.00922 0.1613 0.13729 0.0
H1348 H 0.02723 0.08483 0.10617 0.0
H1349 H 0.02998 0.12401 0.12575 0.0
H1350 H 0.02567 0.16018 0.05813 0.0
H1351 H 0.02268 0.12135 0.03876 0.0
C1352 C 0.04519 0.21214 0.10483 0.0
C1353 C 0.03326 0.21727 0.12665 0.0
C1354 C 0.0437 0.18916 0.09438 0.0
C1355 C 0.03053 0.1702 0.10553 0.0
C1356 C 0.01953 0.17512 0.12794 0.0
C1357 C 0.02105 0.19815 0.13836 0.0
C1358 C 0.02654 0.10115 0.09548 0.0
C1359 C 0.0245 0.09957 0.07074 0.0
C1360 C 0.02812 0.12379 0.10677 0.0
C1361 C 0.02813 0.14573 0.09372 0.0
C1362 C 0.02596 0.14402 0.06901 0.0
C1363 C 0.02403 0.12151 0.05781 0.0
H1364 H 0.07886 0.75416 0.36443 0.0
H1365 H 0.11392 0.80123 0.41304 0.0
H1366 H 0.11654 0.75129 0.34062 0.0
H1367 H 0.15148 0.79898 0.38878 0.0
H1368 H 0.22131 0.76993 0.35472 0.0
H1369 H 0.1835 0.77055 0.37829 0.0
H1370 H 0.14219 0.77526 0.31448 0.0
H1371 H 0.1802 0.77387 0.29075 0.0
C1372 C 0.0946 0.76402 0.36994 0.0
C1373 C 0.09352 0.7779 0.3906 0.0
C1374 C 0.11613 0.76248 0.35622 0.0
C1375 C 0.13697 0.77489 0.36281 0.0
C1376 C 0.13583 0.78888 0.38344 0.0
C1377 C 0.11431 0.79029 0.39727 0.0
C1378 C 0.20415 0.77089 0.34568 0.0
C1379 C 0.20368 0.77189 0.32088 0.0
C1380 C 0.1825 0.77146 0.35922 0.0
C1381 C 0.15988 0.77322 0.34827 0.0
C1382 C 0.15935 0.77368 0.32343 0.0
C1383 C 0.18109 0.77293 0.30983 0.0
H1384 H 0.4942 0.84618 0.60324 0.0
H1385 H 0.56737 0.85375 0.62779 0.0
H1386 H 0.49514 0.88668 0.58679 0.0
H1387 H 0.56897 0.89443 0.61015 0.0
H1388 H 0.55887 0.97496 0.58883 0.0
H1389 H 0.55833 0.93529 0.6082 0.0
H1390 H 0.50848 0.91042 0.55632 0.0
H1391 H 0.5082 0.95026 0.5379 0.0
C1392 C 0.51065 0.85652 0.60512 0.0
C1393 C 0.53071 0.84636 0.61695 0.0
C1394 C 0.51134 0.87993 0.5953 0.0
C1395 C 0.53234 0.89429 0.59638 0.0
C1396 C 0.55229 0.88438 0.60884 0.0
C1397 C 0.55144 0.86088 0.61906 0.0
C1398 C 0.54775 0.96101 0.58157 0.0
C1399 C 0.53348 0.96613 0.56172 0.0
C1400 C 0.54754 0.938 0.59268 0.0
C1401 C 0.53319 0.91908 0.58428 0.0
C1402 C 0.51932 0.92426 0.56408 0.0
C1403 C 0.51931 0.94729 0.55319 0.0
H1404 H 0.48257 0.24889 0.88384 0.0
H1405 H 0.43727 0.28391 0.93769 0.0
H1406 H 0.45063 0.25506 0.8555 0.0
H1407 H 0.40524 0.29024 0.90905 0.0
H1408 H 0.38184 0.26138 0.81253 0.0
H1409 H 0.40779 0.24705 0.84432 0.0
H1410 H 0.40692 0.31883 0.87355 0.0
H1411 H 0.38064 0.33298 0.84204 0.0
C1412 C 0.46553 0.25738 0.88979 0.0
C1413 C 0.46271 0.26663 0.91278 0.0
C1414 C 0.44722 0.26084 0.87355 0.0
C1415 C 0.42579 0.27365 0.87998 0.0
C1416 C 0.42191 0.28078 0.90358 0.0
C1417 C 0.44018 0.27705 0.91998 0.0
C1418 C 0.38728 0.27404 0.82576 0.0
C1419 C 0.37943 0.29829 0.82479 0.0
C1420 C 0.40201 0.26585 0.84392 0.0
C1421 C 0.409 0.28177 0.86153 0.0
C1422 C 0.40135 0.30608 0.86044 0.0
C1423 C 0.38677 0.3143 0.84217 0.0
H1424 H 0.04441 0.84103 0.47306 0.0
H1425 H 0.98338 0.84794 0.42707 0.0
H1426 H 0.03522 0.88076 0.48907 0.0
H1427 H 0.97243 0.88697 0.44447 0.0
H1428 H 0.97167 0.96594 0.46804 0.0
H1429 H 0.98016 0.92714 0.44915 0.0
H1430 H 0.00913 0.89967 0.51472 0.0
H1431 H 1.0016 0.93873 0.53271 0.0
C1432 C 0.02876 0.85111 0.46669 0.0
C1433 C 0.01407 0.84144 0.44951 0.0
C1434 C 0.02328 0.87377 0.47598 0.0
C1435 C 1.00257 0.88695 0.46866 0.0
C1436 C 0.98856 0.87753 0.45054 0.0
C1437 C 0.99461 0.85512 0.44069 0.0
C1438 C 0.9793 0.95124 0.47836 0.0
C1439 C 0.98597 0.95499 0.50172 0.0
C1440 C 0.98424 0.92902 0.46762 0.0
C1441 C 0.99559 0.91012 0.48027 0.0
C1442 C 1.00089 0.91376 0.50414 0.0
C1443 C 0.99635 0.93602 0.51464 0.0
H1444 H 0.48182 0.78455 0.70743 0.0
H1445 H 0.43926 0.77211 0.64589 0.0
H1446 H 0.44435 0.78417 0.73224 0.0
H1447 H 0.40208 0.77207 0.67047 0.0
H1448 H 0.36837 0.80567 0.76584 0.0
H1449 H 0.40663 0.80593 0.74231 0.0
H1450 H 0.38003 0.7486 0.69936 0.0
H1451 H 0.34177 0.7486 0.72262 0.0
C1452 C 0.46454 0.78185 0.69911 0.0
C1453 C 0.46386 0.77836 0.67449 0.0
C1454 C 0.44293 0.78174 0.71338 0.0
C1455 C 0.41992 0.77795 0.70355 0.0
C1456 C 0.41931 0.77463 0.67893 0.0
C1457 C 0.44081 0.77485 0.6647 0.0
C1458 C 0.3707 0.79302 0.75144 0.0
C1459 C 0.35177 0.77712 0.74623 0.0
C1460 C 0.39279 0.7931 0.73794 0.0
C1461 C 0.39666 0.77737 0.71868 0.0
C1462 C 0.37778 0.7613 0.71371 0.0
C1463 C 0.35578 0.76116 0.72723 0.0
H1464 H 0.52094 0.21441 1.00106 0.0
H1465 H 0.5642 0.20336 0.93664 0.0
H1466 H 0.53268 0.17442 0.01484 0.0
H1467 H 0.57632 0.16334 0.95081 0.0
H1468 H 0.55293 0.08391 0.97131 0.0
H1469 H 0.55472 0.12538 0.95712 0.0
H1470 H 0.56707 0.14951 0.02807 0.0
H1471 H 0.56466 0.10795 0.04247 0.0
C1472 C 0.53308 0.20354 0.98988 0.0
C1473 C 0.54136 0.212 0.96761 0.0
C1474 C 0.54009 0.18072 0.99795 0.0
C1475 C 0.5556 0.16585 0.98398 0.0
C1476 C 0.56428 0.17442 0.9619 0.0
C1477 C 0.55726 0.19729 0.95379 0.0
C1478 C 0.5567 0.09796 0.98381 0.0
C1479 C 0.55805 0.09278 0.0081 0.0
C1480 C 0.55784 0.12174 0.97563 0.0
C1481 C 0.56048 0.14069 0.9916 0.0
C1482 C 0.56444 0.13524 0.01549 0.0
C1483 C 0.56321 0.11145 0.0237 0.0
H1484 H 0.12418 0.26301 0.16478 0.0
H1485 H 0.08979 0.31627 0.21037 0.0
H1486 H 0.16175 0.26529 0.18735 0.0
H1487 H 0.12764 0.31924 0.23227 0.0
H1488 H 0.21297 0.33354 0.24513 0.0
H1489 H 0.17494 0.33226 0.22312 0.0
H1490 H 0.17307 0.25503 0.23278 0.0
H1491 H 0.21038 0.25636 0.25552 0.0
C1492 C 0.12468 0.27545 0.17939 0.0
C1493 C 0.10377 0.28947 0.18561 0.0
C1494 C 0.14624 0.27667 0.19245 0.0
C1495 C 0.14789 0.29247 0.21174 0.0
C1496 C 0.1272 0.30695 0.21754 0.0
C1497 C 0.10542 0.3052 0.20494 0.0
C1498 C 0.20429 0.31631 0.24288 0.0
C1499 C 0.21482 0.29511 0.25249 0.0
C1500 C 0.18245 0.31557 0.23018 0.0
C1501 C 0.17085 0.29351 0.22596 0.0
C1502 C 0.18144 0.27233 0.23549 0.0
C1503 C 0.20282 0.27316 0.24876 0.0
H1504 H 0.10204 0.98215 0.25746 0.0
H1505 H 0.13292 0.04923 0.23215 0.0
H1506 H 0.08394 0.97624 0.21909 0.0
H1507 H 0.11383 0.0442 0.19442 0.0
H1508 H 0.10007 0.01721 0.12167 0.0
H1509 H 0.11812 0.02114 0.16022 0.0
H1510 H 0.05351 0.98992 0.19343 0.0
H1511 H 0.03624 0.98499 0.15457 0.0
C1512 C 0.10461 0.99577 0.24377 0.0
C1513 C 0.11897 0.01602 0.24758 0.0
C1514 C 0.09418 0.99248 0.22184 0.0
C1515 C 0.09762 0.00964 0.20355 0.0
C1516 C 0.11137 0.03028 0.20782 0.0
C1517 C 0.12215 0.03329 0.22951 0.0
C1518 C 0.08988 0.01119 0.13729 0.0
C1519 C 0.06687 1.00085 0.13533 0.0
C1520 C 0.10007 0.01354 0.15937 0.0
C1521 C 0.08716 0.00607 0.18001 0.0
C1522 C 0.06413 0.99554 0.17792 0.0
C1523 C 0.05417 0.99278 0.15574 0.0
H1524 H 0.23647 0.90643 0.46425 0.0
H1525 H 0.27187 0.85619 0.51167 0.0
H1526 H 0.24427 0.87868 0.43161 0.0
H1527 H 0.27976 0.82851 0.47885 0.0
H1528 H 0.32003 0.81036 0.40568 0.0
H1529 H 0.3077 0.83225 0.44147 0.0
H1530 H 0.23346 0.83642 0.41806 0.0
H1531 H 0.24543 0.81402 0.38275 0.0
C1532 C 0.24555 0.8893 0.46779 0.0
C1533 C 0.25359 0.88353 0.49053 0.0
C1534 C 0.24995 0.8734 0.44912 0.0
C1535 C 0.26275 0.85157 0.45275 0.0
C1536 C 0.27003 0.84535 0.47561 0.0
C1537 C 0.26531 0.8611 0.49439 0.0
C1538 C 0.30101 0.81556 0.40833 0.0
C1539 C 0.28386 0.81076 0.39108 0.0
C1540 C 0.29396 0.82807 0.42883 0.0
C1541 C 0.26967 0.83613 0.43238 0.0
C1542 C 0.25237 0.83069 0.41556 0.0
C1543 C 0.25934 0.818 0.39523 0.0
H1544 H 0.44247 0.08681 0.70342 0.0
H1545 H 0.40185 0.02512 0.68162 0.0
H1546 H 0.46087 0.09049 0.66392 0.0
H1547 H 0.42123 0.02795 0.64218 0.0
H1548 H 0.45355 0.04444 0.56957 0.0
H1549 H 0.42779 0.04957 0.60527 0.0
H1550 H 0.49168 0.06715 0.64433 0.0
H1551 H 0.51704 0.06289 0.60881 0.0
C1552 C 0.43747 0.07406 0.69007 0.0
C1553 C 0.42115 0.05541 0.69555 0.0
C1554 C 0.44804 0.07611 0.66749 0.0
C1555 C 0.44292 0.05921 0.65005 0.0
C1556 C 0.42546 0.04135 0.65517 0.0
C1557 C 0.41449 0.03959 0.67776 0.0
C1558 C 0.46195 0.04982 0.58573 0.0
C1559 C 0.48732 0.05317 0.58643 0.0
C1560 C 0.44724 0.05259 0.60618 0.0
C1561 C 0.45767 0.05873 0.62765 0.0
C1562 C 0.48293 0.06286 0.62803 0.0
C1563 C 0.49755 0.06023 0.60766 0.0
H1564 H 0.28574 0.22273 0.9737 0.0
H1565 H 0.26434 0.15957 0.93596 0.0
H1566 H 0.28574 0.24611 0.93637 0.0
H1567 H 0.26415 0.18266 0.89933 0.0
H1568 H 0.24222 0.23481 0.83995 0.0
H1569 H 0.24199 0.21381 0.87818 0.0
H1570 H 0.30695 0.25137 0.89675 0.0
H1571 H 0.30724 0.27232 0.85831 0.0
C1572 C 0.28096 0.21375 0.95762 0.0
C1573 C 0.27502 0.189 0.95834 0.0
C1574 C 0.28107 0.22719 0.93603 0.0
C1575 C 0.27479 0.21654 0.91442 0.0
C1576 C 0.26875 0.19189 0.91532 0.0
C1577 C 0.26902 0.17847 0.93663 0.0
C1578 C 0.25649 0.23871 0.85211 0.0
C1579 C 0.27477 0.25542 0.84562 0.0
C1580 C 0.25645 0.22648 0.8742 0.0
C1581 C 0.2745 0.2306 0.891 0.0
C1582 C 0.29255 0.24766 0.88467 0.0
C1583 C 0.29279 0.25966 0.8624 0.0
H1584 H 0.18234 0.0118 0.39927 0.0
H1585 H 0.11422 0.99666 0.36599 0.0
H1586 H 0.16146 0.01044 0.43786 0.0
H1587 H 0.09341 0.99601 0.40436 0.0
H1588 H 0.10723 0.05443 0.48665 0.0
H1589 H 0.1334 0.0409 0.45384 0.0
H1590 H 0.08631 0.98013 0.44385 0.0
H1591 H 0.05966 0.99407 0.47643 0.0
C1592 C 0.16307 0.00764 0.40017 0.0
C1593 C 0.1498 0.00505 0.37949 0.0
C1594 C 0.1511 0.00698 0.42228 0.0
C1595 C 0.12571 0.00372 0.42407 0.0
C1596 C 0.113 0.99856 0.4036 0.0
C1597 C 0.12494 0.99914 0.38153 0.0
C1598 C 0.10256 0.03807 0.4776 0.0
C1599 C 0.08116 0.02558 0.48379 0.0
C1600 C 0.11775 0.03011 0.45898 0.0
C1601 C 0.11191 0.00942 0.44625 0.0
C1602 C 0.09112 0.99627 0.45319 0.0
C1603 C 0.07585 0.0043 0.47178 0.0
H1604 H 0.22232 0.87178 0.62028 0.0
H1605 H 0.28507 0.91355 0.63747 0.0
H1606 H 0.22107 0.8544 0.65994 0.0
H1607 H 0.28507 0.89489 0.67687 0.0
H1608 H 0.2759 0.86081 0.74966 0.0
H1609 H 0.26771 0.88695 0.71551 0.0
H1610 H 0.24563 0.82454 0.67657 0.0
H1611 H 0.25266 0.79908 0.71046 0.0
C1612 C 0.23581 0.87725 0.63269 0.0
C1613 C 0.25404 0.89358 0.62589 0.0
C1614 C 0.23521 0.86724 0.65536 0.0
C1615 C 0.25338 0.87271 0.67142 0.0
C1616 C 0.27074 0.89031 0.66502 0.0
C1617 C 0.27088 0.90088 0.64245 0.0
C1618 C 0.26887 0.85288 0.73388 0.0
C1619 C 0.26498 0.8279 0.73274 0.0
C1620 C 0.26432 0.86779 0.7143 0.0
C1621 C 0.25592 0.85791 0.69327 0.0
C1622 C 0.2515 0.833 0.69255 0.0
C1623 C 0.2558 0.81826 0.71202 0.0
H1624 H 0.45575 0.06073 0.8073 0.0
H1625 H 0.39524 0.06485 0.85823 0.0
H1626 H 0.48409 0.05643 0.83943 0.0
H1627 H 0.42354 0.06014 0.89015 0.0
H1628 H 0.47942 0.06044 0.94481 0.0
H1629 H 0.45726 0.07631 0.91156 0.0
H1630 H 0.49136 0.02217 0.86649 0.0
H1631 H 0.51461 0.00689 0.89965 0.0
C1632 C 0.44849 0.06124 0.82532 0.0
C1633 C 0.42314 0.06272 0.83017 0.0
C1634 C 0.46476 0.0586 0.84369 0.0
C1635 C 0.45601 0.05754 0.86725 0.0
C1636 C 0.43088 0.06099 0.87217 0.0
C1637 C 0.41461 0.06361 0.85383 0.0
C1638 C 0.4828 0.05223 0.92775 0.0
C1639 C 0.49879 0.03222 0.92498 0.0
C1640 C 0.46984 0.06125 0.90871 0.0
C1641 C 0.47243 0.05042 0.88647 0.0
C1642 C 0.48914 0.03107 0.88339 0.0
C1643 C 0.50221 0.02207 0.90246 0.0
H1644 H 0.30085 0.2278 0.08737 0.0
H1645 H 0.2654 0.16623 0.11934 0.0
H1646 H 0.30517 0.24547 0.12615 0.0
H1647 H 0.26835 0.18435 0.15827 0.0
H1648 H 0.2886 0.21465 0.23018 0.0
H1649 H 0.2873 0.1954 0.19156 0.0
H1650 H 0.29038 0.26565 0.15771 0.0
H1651 H 0.29302 0.28438 0.19604 0.0
C1652 C 0.29374 0.21803 0.1027 0.0
C1653 C 0.28275 0.19543 0.09983 0.0
C1654 C 0.296 0.22837 0.12529 0.0
C1655 C 0.28698 0.21683 0.1462 0.0
C1656 C 0.27601 0.19408 0.1432 0.0
C1657 C 0.27411 0.18358 0.12058 0.0
C1658 C 0.28933 0.22596 0.21446 0.0
C1659 C 0.29122 0.25123 0.21664 0.0
C1660 C 0.28829 0.21487 0.192 0.0
C1661 C 0.28871 0.22857 0.17065 0.0
C1662 C 0.29056 0.2539 0.17308 0.0
C1663 C 0.29196 0.26489 0.19543 0.0
H1664 H 0.19212 0.16053 0.01123 0.0
H1665 H 0.22748 0.10484 0.05194 0.0
H1666 H 0.15468 0.13685 0.01141 0.0
H1667 H 0.19046 0.08073 0.0518 0.0
H1668 H 0.11293 0.05044 0.06386 0.0
H1669 H 0.15019 0.07406 0.06492 0.0
H1670 H 0.1357 0.10319 0.99561 0.0
H1671 H 0.09813 0.08015 0.99497 0.0
C1672 C 0.19192 0.14313 0.02016 0.0
C1673 C 0.21318 0.13427 0.03083 0.0
C1674 C 0.17042 0.12933 0.02013 0.0
C1675 C 0.1692 0.10634 0.03125 0.0
C1676 C 0.19023 0.09817 0.04302 0.0
C1677 C 0.21173 0.11193 0.04287 0.0
C1678 C 0.11777 0.06169 0.04871 0.0
C1679 C 0.10225 0.06313 0.0293 0.0
C1680 C 0.13935 0.07535 0.04928 0.0
C1681 C 0.14633 0.09103 0.03045 0.0
C1682 C 0.13103 0.09195 0.0108 0.0
C1683 C 0.10943 0.07838 0.01028 0.0
H1684 H 0.69095 0.4281 0.08318 0.0
H1685 H 0.67643 0.43525 0.00883 0.0
H1686 H 0.65051 0.44556 0.09303 0.0
H1687 H 0.63584 0.45185 0.01871 0.0
H1688 H 0.60707 0.5236 0.07701 0.0
H1689 H 0.63902 0.49248 0.07951 0.0
H1690 H 0.5934 0.4424 0.04401 0.0
H1691 H 0.56113 0.47315 0.04201 0.0
C1692 C 0.67875 0.43254 0.06901 0.0
C1693 C 0.68671 0.43053 0.04524 0.0
C1694 C 0.65573 0.44251 0.07466 0.0
C1695 C 0.64021 0.44987 0.05661 0.0
C1696 C 0.64744 0.44599 0.03291 0.0
C1697 C 0.67064 0.43666 0.02725 0.0
C1698 C 0.60348 0.50567 0.0706 0.0
C1699 C 0.58183 0.50093 0.05895 0.0
C1700 C 0.62169 0.48785 0.07215 0.0
C1701 C 0.61858 0.46524 0.06176 0.0
C1702 C 0.59609 0.45975 0.05212 0.0
C1703 C 0.57769 0.4774 0.05099 0.0
H1704 H 0.8392 0.49182 0.26577 0.0
H1705 H 0.90922 0.47972 0.29712 0.0
H1706 H 0.82556 0.45242 0.28077 0.0
H1707 H 0.8959 0.4398 0.31141 0.0
H1708 H 0.86041 0.3602 0.29511 0.0
H1709 H 0.87856 0.39957 0.28575 0.0
H1710 H 0.82173 0.43454 0.32794 0.0
H1711 H 0.80394 0.39541 0.33771 0.0
C1712 C 0.85148 0.48077 0.27612 0.0
C1713 C 0.87477 0.48893 0.28127 0.0
C1714 C 0.8438 0.45832 0.28452 0.0
C1715 C 0.85964 0.44353 0.29751 0.0
C1716 C 0.88339 0.45118 0.30165 0.0
C1717 C 0.89094 0.47382 0.29352 0.0
C1718 C 0.85226 0.37637 0.3028 0.0
C1719 C 0.83085 0.37502 0.31706 0.0
C1720 C 0.8626 0.39871 0.29751 0.0
C1721 C 0.85132 0.41989 0.30609 0.0
C1722 C 0.83062 0.41841 0.32121 0.0
C1723 C 0.82059 0.39608 0.3269 0.0
H1724 H 0.83991 0.60046 0.49871 0.0
H1725 H 0.85688 0.65494 0.54946 0.0
H1726 H 0.88018 0.58307 0.5017 0.0
H1727 H 0.89848 0.63756 0.5519 0.0
H1728 H 0.96356 0.58309 0.56691 0.0
H1729 H 0.9238 0.60402 0.56518 0.0
H1730 H 0.92093 0.58725 0.49098 0.0
H1731 H 0.95984 0.5658 0.493 0.0
C1732 C 0.8523 0.6091 0.51041 0.0
C1733 C 0.84466 0.62945 0.52376 0.0
C1734 C 0.87585 0.59904 0.51197 0.0
C1735 C 0.89321 0.60883 0.52682 0.0
C1736 C 0.88578 0.62926 0.54028 0.0
C1737 C 0.86189 0.63944 0.53875 0.0
C1738 C 0.95439 0.58384 0.55023 0.0
C1739 C 0.96501 0.57235 0.53018 0.0
C1740 C 0.93155 0.59607 0.54918 0.0
C1741 C 0.91856 0.59731 0.528 0.0
C1742 C 0.92968 0.58634 0.50786 0.0
C1743 C 0.9523 0.57403 0.50896 0.0
H1744 H 0.14322 0.09818 0.34587 0.0
H1745 H 0.18903 0.08372 0.2841 0.0
H1746 H 0.15698 0.14032 0.34544 0.0
H1747 H 0.2031 0.12488 0.28374 0.0
H1748 H 0.22219 0.19846 0.27868 0.0
H1749 H 0.19308 0.1663 0.27805 0.0
H1750 H 0.19581 0.15908 0.35399 0.0
H1751 H 0.22411 0.19241 0.35491 0.0
C1752 C 0.15603 0.10421 0.33215 0.0
C1753 C 0.16583 0.08793 0.31548 0.0
C1754 C 0.16386 0.12813 0.33186 0.0
C1755 C 0.18109 0.13592 0.31456 0.0
C1756 C 0.18949 0.11971 0.29706 0.0
C1757 C 0.1818 0.09601 0.29746 0.0
C1758 C 0.21625 0.1906 0.29539 0.0
C1759 C 0.22613 0.1977 0.31683 0.0
C1760 C 0.19956 0.17199 0.29497 0.0
C1761 C 0.19276 0.15968 0.31587 0.0
C1762 C 0.2009 0.16808 0.33754 0.0
C1763 C 0.21751 0.1869 0.33801 0.0
H1764 H 0.32934 0.90964 0.51982 0.0
H1765 H 0.30864 0.9759 0.55504 0.0
H1766 H 0.36811 0.92753 0.50646 0.0
H1767 H 0.34723 0.99408 0.54129 0.0
H1768 H 0.40693 0.02312 0.48796 0.0
H1769 H 0.36768 0.00482 0.49911 0.0
H1770 H 0.40578 0.9435 0.52908 0.0
H1771 H 0.44496 0.96204 0.51833 0.0
C1772 C 0.33309 0.92813 0.52444 0.0
C1773 C 0.31586 0.94184 0.53759 0.0
C1774 C 0.35516 0.93829 0.51689 0.0
C1775 C 0.36036 0.96223 0.52261 0.0
C1776 C 0.34335 0.97573 0.53631 0.0
C1777 C 0.32134 0.96545 0.54403 0.0
C1778 C 0.40679 0.00559 0.49662 0.0
C1779 C 0.42878 0.99389 0.50231 0.0
C1780 C 0.38445 0.99526 0.50314 0.0
C1781 C 0.38384 0.97283 0.51493 0.0
C1782 C 0.40585 0.96077 0.5199 0.0
C1783 C 0.42815 0.97134 0.51384 0.0
H1784 H 0.88415 0.62578 0.24134 0.0
H1785 H 0.81738 0.61028 0.28122 0.0
H1786 H 0.86809 0.66611 0.23201 0.0
H1787 H 0.80172 0.65029 0.27216 0.0
H1788 H 0.77114 0.71747 0.24608 0.0
H1789 H 0.78807 0.67701 0.23972 0.0
H1790 H 0.85953 0.70194 0.25753 0.0
H1791 H 0.84283 0.74243 0.26342 0.0
C1792 C 0.86605 0.63089 0.24798 0.0
C1793 C 0.85217 0.61499 0.26229 0.0
C1794 C 0.85689 0.65389 0.24258 0.0
C1795 C 0.83364 0.66118 0.25121 0.0
C1796 C 0.81952 0.64499 0.26487 0.0
C1797 C 0.82868 0.62217 0.27037 0.0
C1798 C 0.79057 0.71444 0.24806 0.0
C1799 C 0.80557 0.73289 0.25583 0.0
C1800 C 0.80023 0.69132 0.24441 0.0
C1801 C 0.82496 0.68634 0.24859 0.0
C1802 C 0.8404 0.70532 0.25412 0.0
C1803 C 0.83078 0.72846 0.25768 0.0
H1804 H 0.72723 0.44096 0.83151 0.0
H1805 H 0.69326 0.44222 0.7636 0.0
H1806 H 0.74183 0.39996 0.82446 0.0
H1807 H 0.70895 0.40147 0.7559 0.0
H1808 H 0.72025 0.31898 0.76287 0.0
H1809 H 0.70499 0.36034 0.76714 0.0
H1810 H 0.77159 0.37932 0.80124 0.0
H1811 H 0.78612 0.33771 0.79809 0.0
C1812 C 0.72301 0.43243 0.81501 0.0
C1813 C 0.7092 0.44467 0.79807 0.0
C1814 C 0.73157 0.40905 0.81084 0.0
C1815 C 0.72693 0.39759 0.78942 0.0
C1816 C 0.71269 0.40972 0.77264 0.0
C1817 C 0.70373 0.43302 0.77702 0.0
C1818 C 0.73169 0.33214 0.771 0.0
C1819 C 0.75421 0.32525 0.78037 0.0
C1820 C 0.723 0.35582 0.7734 0.0
C1821 C 0.7369 0.37303 0.78488 0.0
C1822 C 0.7601 0.36633 0.79296 0.0
C1823 C 0.76854 0.34259 0.79097 0.0
H1824 H 0.05075 0.8436 0.96401 0.0
H1825 H 0.01037 0.87898 0.90925 0.0
H1826 H 0.05512 0.88208 0.98392 0.0
H1827 H 0.01362 0.91759 0.92951 0.0
H1828 H 0.03798 0.98891 0.96093 0.0
H1829 H 0.03554 0.9506 0.94021 0.0
H1830 H 0.03874 0.91228 0.00696 0.0
H1831 H 0.04235 0.95051 0.02731 0.0
C1832 C 0.04239 0.85962 0.95641 0.0
C1833 C 0.02959 0.85791 0.93531 0.0
C1834 C 0.04483 0.88193 0.96792 0.0
C1835 C 0.03458 0.9036 0.9588 0.0
C1836 C 0.02214 0.90179 0.93731 0.0
C1837 C 0.02001 0.87946 0.92565 0.0
C1838 C 0.03851 0.9723 0.97118 0.0
C1839 C 0.04072 0.97314 0.99593 0.0
C1840 C 0.03678 0.95007 0.95925 0.0
C1841 C 0.03687 0.92767 0.97156 0.0
C1842 C 0.0391 0.92867 0.99638 0.0
C1843 C 0.04111 0.95085 0.00824 0.0
H1844 H 0.95936 0.27881 0.70286 0.0
H1845 H 0.91197 0.28738 0.64361 0.0
H1846 H 0.92406 0.27189 0.72901 0.0
H1847 H 0.87647 0.28163 0.66993 0.0
H1848 H 0.81985 0.24646 0.71778 0.0
H1849 H 0.85575 0.25196 0.69218 0.0
H1850 H 0.8901 0.29133 0.74748 0.0
H1851 H 0.85445 0.28466 0.77355 0.0
C1852 C 0.94133 0.27946 0.69547 0.0
C1853 C 0.93839 0.28363 0.67119 0.0
C1854 C 0.92107 0.27564 0.7105 0.0
C1855 C 0.89737 0.27626 0.70164 0.0
C1856 C 0.89447 0.28058 0.67732 0.0
C1857 C 0.91479 0.28401 0.66222 0.0
C1858 C 0.83511 0.25623 0.72449 0.0
C1859 C 0.83439 0.26519 0.74763 0.0
C1860 C 0.85564 0.25955 0.70974 0.0
C1861 C 0.87579 0.27227 0.71765 0.0
C1862 C 0.87507 0.28114 0.7409 0.0
C1863 C 0.85463 0.27745 0.75582 0.0
H1864 H 0.51771 0.19788 0.40875 0.0
H1865 H 0.5399 0.23243 0.47233 0.0
H1866 H 0.51843 0.1587 0.42913 0.0
H1867 H 0.54024 0.19343 0.49288 0.0
H1868 H 0.55956 0.11636 0.51871 0.0
H1869 H 0.55992 0.15531 0.49796 0.0
H1870 H 0.49842 0.13365 0.45772 0.0
H1871 H 0.49838 0.09462 0.4782 0.0
C1872 C 0.5228 0.19719 0.42708 0.0
C1873 C 0.5288 0.2186 0.43871 0.0
C1874 C 0.52302 0.17458 0.43895 0.0
C1875 C 0.52933 0.17242 0.46294 0.0
C1876 C 0.53557 0.1939 0.47444 0.0
C1877 C 0.53526 0.21649 0.4626 0.0
C1878 C 0.54603 0.11988 0.5055 0.0
C1879 C 0.52889 0.10205 0.50037 0.0
C1880 C 0.54615 0.14244 0.49356 0.0
C1881 C 0.52921 0.14811 0.47589 0.0
C1882 C 0.51206 0.13021 0.47082 0.0
C1883 C 0.5119 0.1077 0.48282 0.0
H1884 H 0.59251 0.81873 0.14911 0.0
H1885 H 0.55333 0.83839 0.21377 0.0
H1886 H 0.62955 0.81204 0.17119 0.0
H1887 H 0.59056 0.83183 0.23574 0.0
H1888 H 0.66957 0.82402 0.26411 0.0
H1889 H 0.63688 0.8421 0.24071 0.0
H1890 H 0.63274 0.77603 0.20127 0.0
H1891 H 0.66522 0.75803 0.22465 0.0
C1892 C 0.592 0.82253 0.16786 0.0
C1893 C 0.56989 0.8285 0.17983 0.0
C1894 C 0.61316 0.81852 0.18048 0.0
C1895 C 0.61259 0.82082 0.20516 0.0
C1896 C 0.59134 0.82979 0.21671 0.0
C1897 C 0.57006 0.83358 0.20411 0.0
C1898 C 0.66157 0.81344 0.25043 0.0
C1899 C 0.66974 0.78964 0.24615 0.0
C1900 C 0.643 0.82377 0.2371 0.0
C1901 C 0.6327 0.81057 0.21901 0.0
C1902 C 0.64076 0.78672 0.21487 0.0
C1903 C 0.65902 0.77629 0.22843 0.0
H1904 H 0.02118 0.21928 0.65132 0.0
H1905 H 0.04896 0.26793 0.59725 0.0
H1906 H 0.04374 0.18572 0.63245 0.0
H1907 H 0.07168 0.23466 0.57843 0.0
H1908 H 0.07282 0.16099 0.53762 0.0
H1909 H 0.06049 0.19864 0.55684 0.0
H1910 H 0.08586 0.17038 0.62334 0.0
H1911 H 0.09863 0.13279 0.60368 0.0
C1912 C 0.0321 0.22265 0.63536 0.0
C1913 C 0.03274 0.24574 0.62511 0.0
C1914 C 0.04523 0.20364 0.62475 0.0
C1915 C 0.05951 0.20765 0.60401 0.0
C1916 C 0.06065 0.23102 0.59425 0.0
C1917 C 0.0475 0.24994 0.60484 0.0
C1918 C 0.07649 0.16332 0.55614 0.0
C1919 C 0.0866 0.1443 0.56927 0.0
C1920 C 0.06933 0.18472 0.5672 0.0
C1921 C 0.07165 0.18715 0.5917 0.0
C1922 C 0.08348 0.16875 0.6045 0.0
C1923 C 0.09108 0.14747 0.59328 0.0
H1924 H 0.58266 0.29462 0.32964 0.0
H1925 H 0.60925 0.28353 0.4 0.0
H1926 H 0.62388 0.29118 0.31323 0.0
H1927 H 0.65139 0.28045 0.38319 0.0
H1928 H 0.7238 0.30753 0.34049 0.0
H1929 H 0.68336 0.30761 0.36064 0.0
H1930 H 0.65694 0.2602 0.30748 0.0
H1931 H 0.69713 0.2599 0.28757 0.0
C1932 C 0.59728 0.29128 0.34176 0.0
C1933 C 0.59225 0.28927 0.36632 0.0
C1934 C 0.62112 0.28923 0.33219 0.0
C1935 C 0.64119 0.28547 0.34673 0.0
C1936 C 0.63642 0.28344 0.37138 0.0
C1937 C 0.61223 0.28503 0.38104 0.0
C1938 C 0.70938 0.29706 0.33312 0.0
C1939 C 0.71386 0.2839 0.31216 0.0
C1940 C 0.6862 0.29695 0.34483 0.0
C1941 C 0.66668 0.28397 0.33575 0.0
C1942 C 0.67133 0.2706 0.31497 0.0
C1943 C 0.6945 0.27043 0.3035 0.0
H1944 H 0.49678 0.87888 0.14074 0.0
H1945 H 0.46099 0.84771 0.08142 0.0
H1946 H 0.49489 0.91818 0.1218 0.0
H1947 H 0.45848 0.88746 0.06272 0.0
H1948 H 0.48498 0.98881 0.08887 0.0
H1949 H 0.47112 0.95165 0.10788 0.0
H1950 H 0.48956 0.9124 0.04394 0.0
H1951 H 0.50253 0.94983 0.02466 0.0
C1952 C 0.48796 0.88048 0.12391 0.0
C1953 C 0.47946 0.86003 0.11242 0.0
C1954 C 0.48667 0.90313 0.11311 0.0
C1955 C 0.47671 0.90591 0.09063 0.0
C1956 C 0.46661 0.88579 0.07987 0.0
C1957 C 0.46796 0.86305 0.09067 0.0
C1958 C 0.48561 0.9723 0.07875 0.0
C1959 C 0.49523 0.97202 0.05546 0.0
C1960 C 0.47772 0.95103 0.08964 0.0
C1961 C 0.47965 0.92903 0.07757 0.0
C1962 C 0.48765 0.92908 0.05369 0.0
C1963 C 0.49525 0.95047 0.04267 0.0
H1964 H 0.97731 0.77259 0.85633 0.0
H1965 H 0.93172 0.81327 0.90563 0.0
H1966 H 0.94268 0.76965 0.82985 0.0
H1967 H 0.89764 0.81123 0.87864 0.0
H1968 H 0.85737 0.82531 0.80428 0.0
H1969 H 0.89318 0.82732 0.82924 0.0
H1970 H 0.89284 0.74998 0.83799 0.0
H1971 H 0.85631 0.74797 0.81386 0.0
C1972 C 0.96004 0.78107 0.86152 0.0
C1973 C 0.95759 0.7932 0.88332 0.0
C1974 C 0.94013 0.77933 0.8463 0.0
C1975 C 0.9173 0.79028 0.85199 0.0
C1976 C 0.91492 0.80265 0.87359 0.0
C1977 C 0.93455 0.80378 0.88912 0.0
C1978 C 0.86506 0.80864 0.81121 0.0
C1979 C 0.85385 0.78642 0.80672 0.0
C1980 C 0.88555 0.80984 0.8257 0.0
C1981 C 0.89602 0.78882 0.83568 0.0
C1982 C 0.88539 0.76653 0.83056 0.0
C1983 C 0.86443 0.76538 0.81663 0.0
H1984 H 0.90005 0.03359 0.85122 0.0
H1985 H 0.97078 0.0344 0.81505 0.0
H1986 H 0.91829 0.04817 0.88684 0.0
H1987 H 0.98926 0.04806 0.85104 0.0
H1988 H 0.01271 0.09141 0.9129 0.0
H1989 H 0.99153 0.08224 0.87678 0.0
H1990 H 0.94432 0.03362 0.91649 0.0
H1991 H 0.96432 0.04394 0.95245 0.0
C1992 C 0.91957 0.03652 0.85101 0.0
C1993 C 0.93404 0.03273 0.83044 0.0
C1994 C 0.93002 0.04492 0.8714 0.0
C1995 C 0.9552 0.04931 0.87173 0.0
C1996 C 0.96972 0.04531 0.85119 0.0
C1997 C 0.9592 0.03722 0.83068 0.0
C1998 C 0.99745 0.07921 0.91389 0.0
C1999 C 0.99041 0.0681 0.93538 0.0
C2000 C 0.98555 0.0737 0.89322 0.0
C2001 C 0.96648 0.05697 0.89375 0.0
C2002 C 0.95882 0.0467 0.91546 0.0
C2003 C 0.97054 0.05235 0.93605 0.0
H2004 H 0.80438 0.14773 0.58842 0.0
H2005 H 0.79894 0.21863 0.55622 0.0
H2006 H 0.79099 0.16413 0.62608 0.0
H2007 H 0.78638 0.23552 0.59465 0.0
H2008 H 0.73392 0.24897 0.65913 0.0
H2009 H 0.75095 0.23511 0.62124 0.0
H2010 H 0.80132 0.18807 0.65778 0.0
H2011 H 0.78321 0.20034 0.69523 0.0
C2012 C 0.80089 0.167 0.58952 0.0
C2013 C 0.80261 0.18187 0.5693 0.0
C2014 C 0.79329 0.17647 0.61124 0.0
C2015 C 0.78747 0.20117 0.61345 0.0
C2016 C 0.79033 0.21634 0.59346 0.0
C2017 C 0.79784 0.20675 0.57153 0.0
C2018 C 0.74836 0.23541 0.65908 0.0
C2019 C 0.75712 0.22585 0.6804 0.0
C2020 C 0.75844 0.22778 0.63733 0.0
C2021 C 0.77759 0.21052 0.63642 0.0
C2022 C 0.78641 0.20116 0.65773 0.0
C2023 C 0.77614 0.20847 0.67935 0.0
H2024 H 0.67138 0.03176 0.38473 0.0
H2025 H 0.60092 0.04543 0.35445 0.0
H2026 H 0.65135 0.02307 0.42291 0.0
H2027 H 0.58098 0.03769 0.39266 0.0
H2028 H 0.54836 1.00097 0.45527 0.0
H2029 H 0.57223 0.00435 0.41836 0.0
H2030 H 0.62876 0.04118 0.45491 0.0
H2031 H 0.60548 0.03682 0.49186 0.0
C2032 C 0.65165 0.03341 0.38638 0.0
C2033 C 0.63766 0.03917 0.36666 0.0
C2034 C 0.64018 0.02834 0.4082 0.0
C2035 C 0.61455 0.02924 0.4107 0.0
C2036 C 0.60071 0.03607 0.39115 0.0
C2037 C 0.61213 0.04082 0.36933 0.0
C2038 C 0.56615 0.00925 0.45547 0.0
C2039 C 0.57493 0.01886 0.47634 0.0
C2040 C 0.5797 0.01145 0.43432 0.0
C2041 C 0.60209 0.0236 0.43362 0.0
C2042 C 0.61162 0.0317 0.45483 0.0
C2043 C 0.59822 0.02921 0.47603 0.0
H2044 H 0.79667 0.9113 0.11555 0.0
H2045 H 0.76927 0.84526 0.08761 0.0
H2046 H 0.79544 0.89358 0.15536 0.0
H2047 H 0.76803 0.82745 0.12742 0.0
H2048 H 0.74678 0.80979 0.20554 0.0
H2049 H 0.7477 0.82778 0.16591 0.0
H2050 H 0.81423 0.86431 0.18145 0.0
H2051 H 0.81324 0.84628 0.22118 0.0
C2052 C 0.79029 0.89298 0.11782 0.0
C2053 C 0.78302 0.87989 0.09802 0.0
C2054 C 0.78975 0.88266 0.14082 0.0
C2055 C 0.78166 0.85885 0.14511 0.0
C2056 C 0.77415 0.84585 0.12527 0.0
C2057 C 0.77495 0.8561 0.10222 0.0
C2058 C 0.76166 0.82166 0.20061 0.0
C2059 C 0.77994 0.8264 0.21695 0.0
C2060 C 0.76228 0.83196 0.17761 0.0
C2061 C 0.78106 0.8477 0.16996 0.0
C2062 C 0.79925 0.85259 0.18641 0.0
C2063 C 0.79877 0.84207 0.20935 0.0
H2064 H 0.97324 0.07658 0.71228 0.0
H2065 H 0.90194 0.06479 0.68434 0.0
H2066 H 0.98888 0.08716 0.67299 0.0
H2067 H 0.91721 0.07661 0.64506 0.0
H2068 H 0.96556 0.04433 0.58397 0.0
H2069 H 0.94249 0.0522 0.6202 0.0
H2070 H 0.99199 0.10933 0.63672 0.0
H2071 H 0.01579 0.10076 0.60047 0.0
C2072 C 0.96069 0.07717 0.69785 0.0
C2073 C 0.93662 0.0692 0.7011 0.0
C2074 C 0.96959 0.08343 0.67529 0.0
C2075 C 0.95443 0.08212 0.65574 0.0
C2076 C 0.92953 0.07707 0.65965 0.0
C2077 C 0.92076 0.07037 0.68212 0.0
C2078 C 0.97135 0.05883 0.5951 0.0
C2079 C 0.99282 0.0715 0.5897 0.0
C2080 C 0.95789 0.06361 0.61582 0.0
C2081 C 0.96549 0.08131 0.63152 0.0
C2082 C 0.98592 0.0953 0.62517 0.0
C2083 C 0.99953 0.09039 0.60444 0.0
H2084 H 0.80757 0.13303 0.41055 0.0
H2085 H 0.79666 0.19939 0.44946 0.0
H2086 H 0.8088 0.15592 0.37363 0.0
H2087 H 0.79722 0.22212 0.41248 0.0
H2088 H 0.82193 0.25929 0.34597 0.0
H2089 H 0.82549 0.23381 0.38102 0.0
H2090 H 0.78212 0.1794 0.34862 0.0
H2091 H 0.77919 0.20462 0.31322 0.0
C2092 C 0.80525 0.15248 0.41125 0.0
C2093 C 0.80208 0.1644 0.433 0.0
C2094 C 0.80591 0.16556 0.39006 0.0
C2095 C 0.8033 0.19081 0.39016 0.0
C2096 C 0.79982 0.2027 0.41186 0.0
C2097 C 0.79929 0.18965 0.43306 0.0
C2098 C 0.81351 0.24171 0.34619 0.0
C2099 C 0.80013 0.23399 0.32698 0.0
C2100 C 0.81537 0.22722 0.36633 0.0
C2101 C 0.8037 0.20482 0.36774 0.0
C2102 C 0.79141 0.19653 0.34802 0.0
C2103 C 0.78971 0.21097 0.32775 0.0
H2104 H 0.57883 0.99758 0.26146 0.0
H2105 H 0.64515 0.99581 0.21803 0.0
H2106 H 0.55467 0.99906 0.22594 0.0
H2107 H 0.62114 0.99758 0.18271 0.0
H2108 H 0.57423 0.99999 0.12113 0.0
H2109 H 0.59081 0.98189 0.15656 0.0
H2110 H 0.55108 0.03451 0.19922 0.0
H2111 H 0.53359 0.05204 0.16378 0.0
C2112 C 0.58823 0.9966 0.24436 0.0
C2113 C 0.61386 0.99711 0.24244 0.0
C2114 C 0.57439 0.99767 0.22405 0.0
C2115 C 0.58603 0.99903 0.2016 0.0
C2116 C 0.6116 0.99658 0.19974 0.0
C2117 C 0.62541 0.99563 0.22001 0.0
C2118 C 0.56846 0.00737 0.13806 0.0
C2119 C 0.5527 0.02766 0.13958 0.0
C2120 C 0.57811 0.99702 0.15837 0.0
C2121 C 0.5723 0.00678 0.18065 0.0
C2122 C 0.55567 0.02636 0.18231 0.0
C2123 C 0.54597 0.0367 0.16198 0.0
H2124 H 0.77681 0.92197 0.93449 0.0
H2125 H 0.79138 0.85442 0.97032 0.0
H2126 H 0.77348 0.90109 0.89744 0.0
H2127 H 0.78883 0.83323 0.9326 0.0
H2128 H 0.76499 0.79789 0.86334 0.0
H2129 H 0.76667 0.81811 0.90141 0.0
H2130 H 0.79242 0.88258 0.86572 0.0
H2131 H 0.78989 0.86252 0.82776 0.0
C2132 C 0.77948 0.90255 0.9346 0.0
C2133 C 0.78445 0.89016 0.95596 0.0
C2134 C 0.77776 0.89041 0.91293 0.0
C2135 C 0.78109 0.86514 0.91124 0.0
C2136 C 0.78584 0.85259 0.93268 0.0
C2137 C 0.78744 0.86483 0.95456 0.0
C2138 C 0.77074 0.8165 0.86352 0.0
C2139 C 0.77698 0.82846 0.84202 0.0
C2140 C 0.77199 0.82816 0.88563 0.0
C2141 C 0.77967 0.85234 0.88735 0.0
C2142 C 0.78589 0.86424 0.86572 0.0
C2143 C 0.78451 0.85262 0.84363 0.0
H2144 H 0.87449 0.91503 0.01012 0.0
H2145 H 0.8346 0.97166 0.04668 0.0
H2146 H 0.91244 0.93788 0.0133 0.0
H2147 H 0.87215 0.9951 0.04876 0.0
H2148 H 0.94319 0.03831 0.02075 0.0
H2149 H 0.90473 0.01617 0.01852 0.0
H2150 H 0.93939 0.95314 0.04863 0.0
H2151 H 0.97733 0.97558 0.0521 0.0
C2152 C 0.87371 0.93253 0.01851 0.0
C2153 C 0.85114 0.94191 0.0272 0.0
C2154 C 0.89551 0.94565 0.02038 0.0
C2155 C 0.89547 0.96863 0.03099 0.0
C2156 C 0.87295 0.97776 0.04006 0.0
C2157 C 0.85131 0.96439 0.03865 0.0
C2158 C 0.94253 0.01983 0.02719 0.0
C2159 C 0.96346 0.00896 0.0369 0.0
C2160 C 0.92045 0.00706 0.02581 0.0
C2161 C 0.91883 0.98266 0.03315 0.0
C2162 C 0.93985 0.97177 0.04264 0.0
C2163 C 0.96162 0.98477 0.04482 0.0
H2164 H 0.37379 0.59464 0.99274 0.0
H2165 H 0.38128 0.66815 0.01631 0.0
H2166 H 0.41764 0.59069 0.98809 0.0
H2167 H 0.42576 0.66417 0.01125 0.0
H2168 H 0.50027 0.62381 0.03337 0.0
H2169 H 0.45941 0.64148 0.0299 0.0
H2170 H 0.45173 0.60461 0.96367 0.0
H2171 H 0.49204 0.58605 0.96789 0.0
C2172 C 0.38477 0.61008 0.99677 0.0
C2173 C 0.37393 0.63173 1.00488 0.0
C2174 C 0.41001 0.60791 0.9938 0.0
C2175 C 0.42519 0.62733 0.99875 0.0
C2176 C 0.4145 0.64896 0.00713 0.0
C2177 C 0.38906 0.65117 0.01013 0.0
C2178 C 0.49029 0.6205 0.01751 0.0
C2179 C 0.49898 0.6034 1.00102 0.0
C2180 C 0.46682 0.63052 0.01556 0.0
C2181 C 0.45207 0.62373 0.99692 0.0
C2182 C 0.46243 0.60954 0.97862 0.0
C2183 C 0.4856 0.59917 0.98082 0.0
H2184 H 0.13724 0.60835 0.79549 0.0
H2185 H 0.19399 0.56974 0.75641 0.0
H2186 H 0.15208 0.64654 0.7788 0.0
H2187 H 0.2099 0.6075 0.74083 0.0
H2188 H 0.23512 0.67631 0.71175 0.0
H2189 H 0.20797 0.64224 0.71776 0.0
H2190 H 0.18549 0.67019 0.7863 0.0
H2191 H 0.21079 0.70485 0.77944 0.0
C2192 C 0.15297 0.60819 0.78339 0.0
C2193 C 0.16542 0.58658 0.77811 0.0
C2194 C 0.16151 0.62993 0.77385 0.0
C2195 C 0.18256 0.63021 0.75887 0.0
C2196 C 0.19362 0.60814 0.75217 0.0
C2197 C 0.18491 0.58651 0.76152 0.0
C2198 C 0.22391 0.67543 0.72782 0.0
C2199 C 0.2257 0.69295 0.74539 0.0
C2200 C 0.20851 0.65579 0.73138 0.0
C2201 C 0.19487 0.65317 0.75272 0.0
C2202 C 0.19554 0.67154 0.76958 0.0
C2203 C 0.21059 0.69127 0.76586 0.0
H2204 H 0.2108 0.42944 0.55551 0.0
H2205 H 0.22101 0.46718 0.48894 0.0
H2206 H 0.16866 0.44568 0.55876 0.0
H2207 H 0.17959 0.48321 0.49218 0.0
H2208 H 0.09722 0.4916 0.49196 0.0
H2209 H 0.13734 0.47188 0.49034 0.0
H2210 H 0.14498 0.48449 0.56482 0.0
H2211 H 0.1045 0.50426 0.56648 0.0
C2212 C 0.20408 0.44092 0.54146 0.0
C2213 C 0.21957 0.44683 0.52193 0.0
C2214 C 0.17993 0.45046 0.54341 0.0
C2215 C 0.17041 0.46585 0.52571 0.0
C2216 C 0.18586 0.47127 0.50608 0.0
C2217 C 0.20988 0.46207 0.50429 0.0
C2218 C 0.10732 0.49017 0.50808 0.0
C2219 C 0.09742 0.49981 0.52932 0.0
C2220 C 0.13053 0.47887 0.50713 0.0
C2221 C 0.14478 0.47658 0.52741 0.0
C2222 C 0.13465 0.48567 0.54883 0.0
C2223 C 0.11141 0.49721 0.54975 0.0
H2224 H 0.89833 0.98722 0.71096 0.0
H2225 H 0.93153 0.94631 0.76685 0.0
H2226 H 0.88307 0.95041 0.6943 0.0
H2227 H 0.91359 0.90961 0.75251 0.0
H2228 H 0.86774 0.84964 0.73767 0.0
H2229 H 0.90092 0.87802 0.73224 0.0
H2230 H 0.84956 0.93066 0.70434 0.0
H2231 H 0.81746 0.90184 0.70848 0.0
C2232 C 0.90223 0.97012 0.71967 0.0
C2233 C 0.91471 0.96936 0.74085 0.0
C2234 C 0.89329 0.94902 0.71033 0.0
C2235 C 0.89548 0.92704 0.72283 0.0
C2236 C 0.91091 0.92606 0.7424 0.0
C2237 C 0.92086 0.94715 0.75107 0.0
C2238 C 0.86387 0.86721 0.72997 0.0
C2239 C 0.83993 0.87396 0.72427 0.0
C2240 C 0.88286 0.88355 0.72688 0.0
C2241 C 0.87807 0.9072 0.71871 0.0
C2242 C 0.8545 0.91279 0.71058 0.0
C2243 C 0.83573 0.89625 0.71315 0.0
H2244 H 0.72599 0.13293 0.48503 0.0
H2245 H 0.76531 0.09164 0.53689 0.0
H2246 H 0.68815 0.11331 0.49763 0.0
H2247 H 0.72736 0.07301 0.55078 0.0
H2248 H 0.65461 0.03464 0.56289 0.0
H2249 H 0.69392 0.04769 0.54573 0.0
H2250 H 0.6617 0.11777 0.53023 0.0
H2251 H 0.62244 0.10393 0.54605 0.0
C2252 C 0.72646 0.11927 0.49888 0.0
C2253 C 0.74837 0.11333 0.50974 0.0
C2254 C 0.70482 0.10829 0.50638 0.0
C2255 C 0.70455 0.092 0.52565 0.0
C2256 C 0.72683 0.08531 0.53581 0.0
C2257 C 0.74859 0.09592 0.52788 0.0
C2258 C 0.65627 0.05289 0.55603 0.0
C2259 C 0.63582 0.06844 0.5558 0.0
C2260 C 0.67865 0.06037 0.54614 0.0
C2261 C 0.68095 0.08368 0.53623 0.0
C2262 C 0.6605 0.09944 0.53694 0.0
C2263 C 0.63812 0.09176 0.54634 0.0
H2264 H 0.22725 0.47778 0.83608 0.0
H2265 H 0.17012 0.45038 0.79301 0.0
H2266 H 0.24406 0.43691 0.84021 0.0
H2267 H 0.18723 0.41008 0.79652 0.0
H2268 H 0.2127 0.33726 0.81308 0.0
H2269 H 0.19447 0.37657 0.8224 0.0
H2270 H 0.26552 0.40921 0.81417 0.0
H2271 H 0.28383 0.36985 0.80588 0.0
C2272 C 0.21828 0.46308 0.82753 0.0
C2273 C 0.19746 0.46733 0.81409 0.0
C2274 C 0.22788 0.43971 0.82992 0.0
C2275 C 0.21691 0.42028 0.81878 0.0
C2276 C 0.19581 0.42454 0.80579 0.0
C2277 C 0.18615 0.44776 0.80355 0.0
C2278 C 0.22445 0.35278 0.81376 0.0
C2279 C 0.24956 0.35066 0.80834 0.0
C2280 C 0.21403 0.37527 0.81902 0.0
C2281 C 0.2285 0.39602 0.81855 0.0
C2282 C 0.2539 0.39356 0.81482 0.0
C2283 C 0.26437 0.37102 0.80988 0.0
H2284 H 0.31574 0.58044 0.27862 0.0
H2285 H 0.38144 0.62273 0.27237 0.0
H2286 H 0.2914 0.61748 0.28443 0.0
H2287 H 0.35705 0.65954 0.27854 0.0
H2288 H 0.30961 0.71381 0.31951 0.0
H2289 H 0.32931 0.67424 0.31587 0.0
H2290 H 0.28389 0.65787 0.25734 0.0
H2291 H 0.2642 0.69776 0.26062 0.0
C2292 C 0.32495 0.59761 0.2785 0.0
C2293 C 0.35047 0.59878 0.27509 0.0
C2294 C 0.31102 0.61869 0.28175 0.0
C2295 C 0.32251 0.64109 0.28211 0.0
C2296 C 0.34794 0.64231 0.27855 0.0
C2297 C 0.36181 0.62133 0.27487 0.0
C2298 C 0.30346 0.70167 0.30612 0.0
C2299 C 0.28556 0.70895 0.29016 0.0
C2300 C 0.31482 0.67912 0.30402 0.0
C2301 C 0.30821 0.66338 0.28618 0.0
C2302 C 0.2892 0.66987 0.27122 0.0
C2303 C 0.27802 0.69263 0.27309 0.0
H2304 H 0.55727 0.72351 0.59549 0.0
H2305 H 0.51377 0.69734 0.6547 0.0
H2306 H 0.55424 0.68435 0.57618 0.0
H2307 H 0.51041 0.65808 0.63545 0.0
H2308 H 0.52744 0.58257 0.6024 0.0
H2309 H 0.5306 0.62112 0.62291 0.0
H2310 H 0.52684 0.65905 0.55615 0.0
H2311 H 0.52338 0.62076 0.53583 0.0
C2312 C 0.54677 0.70944 0.60428 0.0
C2313 C 0.535 0.71401 0.62629 0.0
C2314 C 0.54502 0.68682 0.5932 0.0
C2315 C 0.5317 0.66771 0.60386 0.0
C2316 C 0.52085 0.67205 0.62646 0.0
C2317 C 0.52266 0.69471 0.63753 0.0
C2318 C 0.52693 0.59915 0.59209 0.0
C2319 C 0.5249 0.59824 0.56732 0.0
C2320 C 0.52874 0.62143 0.60392 0.0
C2321 C 0.52902 0.64367 0.5914 0.0
C2322 C 0.52686 0.64263 0.56664 0.0
C2323 C 0.52467 0.62046 0.55489 0.0
H2324 H 0.62191 0.26368 0.92183 0.0
H2325 H 0.58293 0.26843 0.85676 0.0
H2326 H 0.65974 0.2548 0.89945 0.0
H2327 H 0.62074 0.26116 0.83423 0.0
H2328 H 0.68814 0.23025 0.79864 0.0
H2329 H 0.65061 0.23283 0.82304 0.0
H2330 H 0.68879 0.27324 0.87514 0.0
H2331 H 0.72618 0.26927 0.85162 0.0
C2332 C 0.62157 0.26314 0.90271 0.0
C2333 C 0.59965 0.26678 0.89097 0.0
C2334 C 0.64321 0.25813 0.88984 0.0
C2335 C 0.64337 0.25723 0.86495 0.0
C2336 C 0.62131 0.2611 0.85334 0.0
C2337 C 0.59965 0.26555 0.86623 0.0
C2338 C 0.68844 0.23936 0.81547 0.0
C2339 C 0.71002 0.24953 0.82323 0.0
C2340 C 0.66695 0.24105 0.82939 0.0
C2341 C 0.66656 0.25341 0.85106 0.0
C2342 C 0.68837 0.26318 0.85887 0.0
C2343 C 0.70986 0.26105 0.84524 0.0
H2344 H 0.06396 0.35838 0.12768 0.0
H2345 H 0.99204 0.34896 0.10072 0.0
H2346 H 0.06491 0.39928 0.11053 0.0
H2347 H 0.99225 0.38967 0.0848 0.0
H2348 H 1.0041 0.4551 0.0379 0.0
H2349 H 1.00491 0.41494 0.05562 0.0
H2350 H 0.05382 0.43972 0.1084 0.0
H2351 H 0.05387 0.47969 0.08967 0.0
C2352 C 0.04815 0.36512 0.11849 0.0
C2353 C 0.028 0.35 0.11561 0.0
C2354 C 0.04861 0.38878 0.10855 0.0
C2355 C 0.0288 0.39833 0.09562 0.0
C2356 C 0.00836 0.38331 0.09369 0.0
C2357 C 0.00809 0.35973 0.10321 0.0
C2358 C 0.0151 0.45204 0.05326 0.0
C2359 C 0.02889 0.47097 0.06219 0.0
C2360 C 0.01542 0.4288 0.06375 0.0
C2361 C 0.02921 0.42344 0.08398 0.0
C2362 C 0.04311 0.44249 0.09283 0.0
C2363 C 0.04304 0.46571 0.08209 0.0
H2364 H 0.97783 0.74681 0.39022 0.0
H2365 H 0.93275 0.78207 0.44405 0.0
H2366 H 0.946 0.75326 0.36186 0.0
H2367 H 0.90081 0.78868 0.41541 0.0
H2368 H 0.87809 0.8335 0.34909 0.0
H2369 H 0.90298 0.81776 0.38093 0.0
H2370 H 0.9039 0.74717 0.34908 0.0
H2371 H 0.8795 0.76314 0.31688 0.0
C2372 C 0.96082 0.75533 0.3962 0.0
C2373 C 0.95819 0.76483 0.41912 0.0
C2374 C 0.94254 0.75898 0.37992 0.0
C2375 C 0.92129 0.77215 0.38628 0.0
C2376 C 0.91739 0.77906 0.40994 0.0
C2377 C 0.93563 0.77517 0.42636 0.0
C2378 C 0.88392 0.81474 0.34871 0.0
C2379 C 0.87707 0.79959 0.33041 0.0
C2380 C 0.8977 0.80559 0.36719 0.0
C2381 C 0.90501 0.78114 0.36766 0.0
C2382 C 0.89841 0.76605 0.34922 0.0
C2383 C 0.88454 0.77519 0.3308 0.0
H2384 H 0.54928 0.33369 0.97576 0.0
H2385 H 0.49981 0.34957 0.91972 0.0
H2386 H 0.54072 0.37312 0.99277 0.0
H2387 H 0.4921 0.38995 0.93574 0.0
H2388 H 0.46442 0.4509 0.98315 0.0
H2389 H 0.47186 0.41047 0.9673 0.0
H2390 H 0.54702 0.41347 0.9884 0.0
H2391 H 0.53901 0.45198 1.00611 0.0
C2392 C 0.53656 0.34582 0.96713 0.0
C2393 C 0.52432 0.3385 0.9472 0.0
C2394 C 0.53191 0.36859 0.97658 0.0
C2395 C 0.51541 0.38472 0.96582 0.0
C2396 C 0.50429 0.37774 0.94492 0.0
C2397 C 0.50885 0.35481 0.93559 0.0
C2398 C 0.48236 0.44266 0.98474 0.0
C2399 C 0.50118 0.45502 0.99552 0.0
C2400 C 0.48676 0.41966 0.97533 0.0
C2401 C 0.51015 0.40877 0.97629 0.0
C2402 C 0.52871 0.42102 0.98749 0.0
C2403 C 0.52418 0.44357 0.99729 0.0
H2404 H 0.93737 0.27533 0.14394 0.0
H2405 H 0.97855 0.28816 0.20629 0.0
H2406 H 0.89975 0.27507 0.16779 0.0
H2407 H 0.94057 0.28755 0.2304 0.0
H2408 H 0.86355 0.30828 0.26252 0.0
H2409 H 0.90236 0.30885 0.23986 0.0
H2410 H 0.87724 0.25148 0.1961 0.0
H2411 H 0.83845 0.25117 0.21848 0.0
C2412 C 0.93853 0.27811 0.16278 0.0
C2413 C 0.96135 0.28178 0.173 0.0
C2414 C 0.91675 0.27775 0.1766 0.0
C2415 C 0.9168 0.28109 0.20124 0.0
C2416 C 0.93957 0.28507 0.21151 0.0
C2417 C 0.96148 0.28533 0.19764 0.0
C2418 C 0.86631 0.2957 0.24811 0.0
C2419 C 0.84763 0.2797 0.24242 0.0
C2420 C 0.88873 0.29595 0.23513 0.0
C2421 C 0.8932 0.28031 0.21589 0.0
C2422 C 0.87456 0.26413 0.21044 0.0
C2423 C 0.85223 0.26382 0.22345 0.0
H2424 H 0.02416 0.71858 0.50452 0.0
H2425 H 0.06575 0.70925 0.43887 0.0
H2426 H 0.03725 0.67881 0.51755 0.0
H2427 H 0.07931 0.66936 0.45231 0.0
H2428 H 0.05486 0.58969 0.47124 0.0
H2429 H 0.05778 0.63139 0.45807 0.0
H2430 H 0.07139 0.65323 0.5295 0.0
H2431 H 0.06778 0.61142 0.54291 0.0
C2432 C 0.0363 0.70816 0.49293 0.0
C2433 C 0.04356 0.71696 0.47047 0.0
C2434 C 0.04412 0.68546 0.50058 0.0
C2435 C 0.05943 0.67102 0.486 0.0
C2436 C 0.06742 0.68009 0.46386 0.0
C2437 C 0.05958 0.70288 0.45617 0.0
C2438 C 0.05913 0.60327 0.48406 0.0
C2439 C 0.0604 0.59742 0.50822 0.0
C2440 C 0.06098 0.62719 0.47646 0.0
C2441 C 0.06426 0.64561 0.49287 0.0
C2442 C 0.06827 0.63939 0.51658 0.0
C2443 C 0.06631 0.61546 0.52423 0.0
H2444 H 0.59127 0.81197 0.71128 0.0
H2445 H 0.62641 0.75876 0.66614 0.0
H2446 H 0.62873 0.81505 0.73369 0.0
H2447 H 0.66365 0.76116 0.68923 0.0
H2448 H 0.71196 0.75307 0.75779 0.0
H2449 H 0.67491 0.75113 0.73462 0.0
H2450 H 0.67547 0.82844 0.72525 0.0
H2451 H 0.71314 0.83033 0.74767 0.0
C2452 C 0.607 0.80093 0.70607 0.0
C2453 C 0.60567 0.78519 0.68671 0.0
C2454 C 0.62854 0.80273 0.71896 0.0
C2455 C 0.64934 0.78831 0.71344 0.0
C2456 C 0.64803 0.77249 0.69412 0.0
C2457 C 0.62668 0.77121 0.68076 0.0
C2458 C 0.70411 0.76974 0.75102 0.0
C2459 C 0.71561 0.79192 0.75494 0.0
C2460 C 0.68293 0.76857 0.73749 0.0
C2461 C 0.67208 0.7896 0.72791 0.0
C2462 C 0.68318 0.81186 0.73235 0.0
C2463 C 0.7048 0.81295 0.7453 0.0
H2464 H 0.65843 0.53206 0.71682 0.0
H2465 H 0.6144 0.47515 0.7475 0.0
H2466 H 0.63641 0.52959 0.68029 0.0
H2467 H 0.59344 0.47128 0.71046 0.0
H2468 H 0.542 0.4878 0.65114 0.0
H2469 H 0.56453 0.48976 0.68748 0.0
H2470 H 0.62996 0.508 0.64657 0.0
H2471 H 0.60663 0.50757 0.61056 0.0
C2472 C 0.64429 0.51871 0.71552 0.0
C2473 C 0.63797 0.50387 0.73491 0.0
C2474 C 0.63174 0.51713 0.69452 0.0
C2475 C 0.61302 0.50024 0.69228 0.0
C2476 C 0.60728 0.48493 0.71162 0.0
C2477 C 0.61941 0.48696 0.73281 0.0
C2478 C 0.56121 0.49218 0.6501 0.0
C2479 C 0.57267 0.4976 0.62826 0.0
C2480 C 0.57424 0.49315 0.67085 0.0
C2481 C 0.5992 0.49897 0.6701 0.0
C2482 C 0.61069 0.50397 0.64801 0.0
C2483 C 0.59745 0.50359 0.62734 0.0
H2484 H 0.74063 0.38975 0.95614 0.0
H2485 H 0.77963 0.34516 1.00601 0.0
H2486 H 0.74973 0.36031 0.92526 0.0
H2487 H 0.78886 0.31573 0.9749 0.0
H2488 H 0.82788 0.29405 0.90155 0.0
H2489 H 0.81563 0.31775 0.93633 0.0
H2490 H 0.74054 0.31669 0.91533 0.0
H2491 H 0.75248 0.29265 0.88112 0.0
C2492 C 0.75083 0.37349 0.96059 0.0
C2493 C 0.75938 0.36976 0.9835 0.0
C2494 C 0.75599 0.35663 0.94293 0.0
C2495 C 0.77008 0.33583 0.94772 0.0
C2496 C 0.7781 0.33171 0.97076 0.0
C2497 C 0.77261 0.34844 0.98857 0.0
C2498 C 0.80873 0.29852 0.90457 0.0
C2499 C 0.79128 0.29183 0.88825 0.0
C2500 C 0.80172 0.31205 0.92448 0.0
C2501 C 0.77718 0.31921 0.92832 0.0
C2502 C 0.75964 0.31173 0.91255 0.0
C2503 C 0.76657 0.29809 0.89284 0.0
H2504 H 0.89596 0.52877 0.17963 0.0
H2505 H 0.93559 0.59052 0.20285 0.0
H2506 H 0.91526 0.53286 0.14023 0.0
H2507 H 0.9539 0.59544 0.16344 0.0
H2508 H 0.94862 0.55034 0.06848 0.0
H2509 H 0.92218 0.55533 0.10371 0.0
H2510 H 0.98529 0.57227 0.14418 0.0
H2511 H 0.01138 0.56807 0.10911 0.0
C2512 C 0.90828 0.54358 0.17606 0.0
C2513 C 0.9148 0.559 0.19421 0.0
C2514 C 0.91922 0.54605 0.15352 0.0
C2515 C 0.93648 0.56422 0.14887 0.0
C2516 C 0.94123 0.58085 0.16665 0.0
C2517 C 0.93072 0.57809 0.18917 0.0
C2518 C 0.95672 0.55556 0.08485 0.0
C2519 C 0.98209 0.55869 0.08609 0.0
C2520 C 0.9416 0.55827 0.10501 0.0
C2521 C 0.95162 0.56414 0.12673 0.0
C2522 C 0.97687 0.56817 0.12766 0.0
C2523 C 0.99191 0.56558 0.10756 0.0
H2524 H 0.80134 0.66859 0.44098 0.0
H2525 H 0.7512 0.71983 0.4737 0.0
H2526 H 0.80112 0.69216 0.40415 0.0
H2527 H 0.75025 0.74308 0.43629 0.0
H2528 H 0.73484 0.75677 0.35335 0.0
H2529 H 0.73556 0.73596 0.39199 0.0
H2530 H 0.81428 0.73483 0.38823 0.0
H2531 H 0.81361 0.75632 0.35015 0.0
C2532 C 0.79034 0.68501 0.44043 0.0
C2533 C 0.7765 0.69226 0.4607 0.0
C2534 C 0.7902 0.69859 0.41916 0.0
C2535 C 0.77562 0.71966 0.41691 0.0
C2536 C 0.76167 0.72697 0.43714 0.0
C2537 C 0.76238 0.71371 0.45874 0.0
C2538 C 0.75234 0.75222 0.36077 0.0
C2539 C 0.77416 0.7584 0.34831 0.0
C2540 C 0.75275 0.74034 0.3831 0.0
C2541 C 0.77499 0.73356 0.39353 0.0
C2542 C 0.79677 0.73958 0.38095 0.0
C2543 C 0.79636 0.75202 0.35899 0.0
H2544 H 0.61952 0.50659 0.85266 0.0
H2545 H 0.6856 0.51224 0.89214 0.0
H2546 H 0.59518 0.514 0.88859 0.0
H2547 H 0.66112 0.51923 0.92809 0.0
H2548 H 0.61034 0.56508 0.977 0.0
H2549 H 0.6353 0.55316 0.94245 0.0
H2550 H 0.58383 0.49738 0.92749 0.0
H2551 H 0.55868 0.50951 0.96163 0.0
C2552 C 0.62887 0.50893 0.86904 0.0
C2553 C 0.65453 0.50906 0.86942 0.0
C2554 C 0.6149 0.51313 0.88965 0.0
C2555 C 0.62629 0.5175 0.91106 0.0
C2556 C 0.65188 0.51639 0.91172 0.0
C2557 C 0.66588 0.51218 0.89113 0.0
C2558 C 0.60435 0.55033 0.96629 0.0
C2559 C 0.58249 0.53836 0.97192 0.0
C2560 C 0.61873 0.54335 0.94665 0.0
C2561 C 0.61151 0.52429 0.93234 0.0
C2562 C 0.58971 0.51229 0.93806 0.0
C2563 C 0.57534 0.51925 0.95764 0.0
H2564 H 0.78596 0.40784 0.1288 0.0
H2565 H 0.72024 0.36995 0.11335 0.0
H2566 H 0.78402 0.39194 0.1693 0.0
H2567 H 0.71696 0.3556 0.15411 0.0
H2568 H 0.74448 0.30073 0.20746 0.0
H2569 H 0.73844 0.3251 0.17274 0.0
H2570 H 0.76663 0.3872 0.20815 0.0
H2571 H 0.77388 0.36196 0.24317 0.0
C2572 C 0.77072 0.39668 0.13439 0.0
C2573 C 0.75356 0.38955 0.11809 0.0
C2574 C 0.76944 0.38773 0.15761 0.0
C2575 C 0.75062 0.37199 0.16488 0.0
C2576 C 0.73219 0.36693 0.14893 0.0
C2577 C 0.73394 0.37521 0.12564 0.0
C2578 C 0.74916 0.31965 0.2081 0.0
C2579 C 0.75992 0.32934 0.22802 0.0
C2580 C 0.7454 0.33381 0.18813 0.0
C2581 C 0.75195 0.35826 0.18753 0.0
C2582 C 0.76163 0.36836 0.20791 0.0
C2583 C 0.76562 0.35399 0.22802 0.0
H2584 H 0.94981 0.53841 0.30829 0.0
H2585 H 0.90038 0.58117 0.35235 0.0
H2586 H 0.97742 0.53387 0.34052 0.0
H2587 H 0.92905 0.57833 0.38444 0.0
H2588 H 0.96468 0.53725 0.44491 0.0
H2589 H 0.94032 0.54974 0.41166 0.0
H2590 H 1.00538 0.54752 0.36604 0.0
H2591 H 0.02908 0.53305 0.39941 0.0
C2592 C 0.94528 0.54759 0.32471 0.0
C2593 C 0.92288 0.55999 0.32794 0.0
C2594 C 0.96124 0.54511 0.34325 0.0
C2595 C 0.95547 0.55548 0.36534 0.0
C2596 C 0.93381 0.56944 0.36795 0.0
C2597 C 0.91747 0.57134 0.34953 0.0
C2598 C 0.97359 0.53951 0.42768 0.0
C2599 C 0.9985 0.53402 0.4244 0.0
C2600 C 0.95977 0.54698 0.40864 0.0
C2601 C 0.97077 0.54975 0.38598 0.0
C2602 C 0.99608 0.54508 0.38304 0.0
C2603 C 0.00974 0.5369 0.40204 0.0
H2604 H 0.78183 0.66168 0.62069 0.0
H2605 H 0.78488 0.73269 0.58915 0.0
H2606 H 0.78632 0.67917 0.65979 0.0
H2607 H 0.78816 0.75042 0.62801 0.0
H2608 H 0.81071 0.77925 0.69859 0.0
H2609 H 0.80909 0.76014 0.66019 0.0
H2610 H 0.77203 0.69937 0.69261 0.0
H2611 H 0.77486 0.71822 0.73124 0.0
C2612 C 0.78334 0.68109 0.62203 0.0
C2613 C 0.78308 0.69558 0.60136 0.0
C2614 C 0.78575 0.69132 0.64473 0.0
C2615 C 0.78776 0.71659 0.64787 0.0
C2616 C 0.78732 0.73097 0.62702 0.0
C2617 C 0.7852 0.72071 0.60438 0.0
C2618 C 0.80245 0.76165 0.69765 0.0
C2619 C 0.79311 0.75042 0.71846 0.0
C2620 C 0.80119 0.75063 0.67528 0.0
C2621 C 0.79011 0.72793 0.67243 0.0
C2622 C 0.78104 0.71656 0.69342 0.0
C2623 C 0.78261 0.7275 0.71589 0.0
H2624 H 0.72701 0.60525 0.55197 0.0
H2625 H 0.69183 0.66171 0.51213 0.0
H2626 H 0.69022 0.5809 0.5507 0.0
H2627 H 0.6546 0.63778 0.51116 0.0
H2628 H 0.59888 0.58115 0.49229 0.0
H2629 H 0.63612 0.60453 0.49423 0.0
H2630 H 0.64993 0.57327 0.56282 0.0
H2631 H 0.61301 0.54931 0.56044 0.0
C2632 C 0.71133 0.61247 0.54288 0.0
C2633 C 0.71278 0.63512 0.53142 0.0
C2634 C 0.68996 0.59857 0.54236 0.0
C2635 C 0.66906 0.60686 0.53046 0.0
C2636 C 0.67026 0.63016 0.51995 0.0
C2637 C 0.69163 0.64411 0.52064 0.0
C2638 C 0.60997 0.57898 0.50771 0.0
C2639 C 0.60269 0.56302 0.52613 0.0
C2640 C 0.63137 0.59276 0.50899 0.0
C2641 C 0.64638 0.59135 0.52884 0.0
C2642 C 0.63932 0.57497 0.54706 0.0
C2643 C 0.61794 0.56109 0.54572 0.0
H2644 H 0.18945 0.93662 0.5952 0.0
H2645 H 0.1752 0.94875 0.52135 0.0
H2646 H 0.14758 0.95005 0.60578 0.0
H2647 H 0.1333 0.96126 0.53187 0.0
H2648 H 0.05672 0.97062 0.55404 0.0
H2649 H 0.09205 0.94345 0.55642 0.0
H2650 H 0.13041 0.99723 0.59474 0.0
H2651 H 0.09539 0.02483 0.59185 0.0
C2652 C 0.17714 0.94149 0.58125 0.0
C2653 C 0.18544 0.94184 0.55748 0.0
C2654 C 0.15331 0.94909 0.58731 0.0
C2655 C 0.13734 0.95634 0.5696 0.0
C2656 C 0.14525 0.95533 0.54578 0.0
C2657 C 0.1692 0.94841 0.53978 0.0
C2658 C 0.07222 0.9763 0.56393 0.0
C2659 C 0.07356 1.00004 0.57232 0.0
C2660 C 0.09242 0.96072 0.56522 0.0
C2661 C 0.11387 0.96848 0.57549 0.0
C2662 C 0.11396 0.9909 0.5868 0.0
C2663 C 0.09395 0.00669 0.5851 0.0
H2664 H 0.34562 0.98912 0.76616 0.0
H2665 H 0.41431 0.97961 0.80068 0.0
H2666 H 0.33247 0.94958 0.78122 0.0
H2667 H 0.40153 0.93949 0.815 0.0
H2668 H 0.36609 0.85862 0.79705 0.0
H2669 H 0.38424 0.8979 0.78715 0.0
H2670 H 0.32893 0.93316 0.8309 0.0
H2671 H 0.31117 0.89419 0.84122 0.0
C2672 C 0.35771 0.9786 0.77719 0.0
C2673 C 0.38043 0.98756 0.78322 0.0
C2674 C 0.35033 0.95605 0.7856 0.0
C2675 C 0.36594 0.94195 0.79948 0.0
C2676 C 0.3892 0.95035 0.80452 0.0
C2677 C 0.39644 0.97311 0.79637 0.0
C2678 C 0.35828 0.87483 0.80495 0.0
C2679 C 0.33731 0.8736 0.81984 0.0
C2680 C 0.36863 0.89712 0.79937 0.0
C2681 C 0.35778 0.91835 0.80829 0.0
C2682 C 0.33752 0.91699 0.82396 0.0
C2683 C 0.3275 0.89474 0.82994 0.0
H2684 H 0.34904 0.12082 0.98583 0.0
H2685 H 0.34867 0.13661 0.06018 0.0
H2686 H 0.38954 0.10273 0.98819 0.0
H2687 H 0.38889 0.11702 0.06318 0.0
H2688 H 0.46913 0.09106 0.06028 0.0
H2689 H 0.43051 0.1135 0.05773 0.0
H2690 H 0.41136 0.06975 0.99844 0.0
H2691 H 0.45042 0.04859 1.00027 0.0
C2692 C 0.35772 0.1205 1.00278 0.0
C2693 C 0.34547 0.1304 0.02276 0.0
C2694 C 0.38103 0.10966 1.00428 0.0
C2695 C 0.39292 0.10758 0.02602 0.0
C2696 C 0.38088 0.1182 0.04597 0.0
C2697 C 0.35764 0.12957 0.04431 0.0
C2698 C 0.45666 0.08631 0.04664 0.0
C2699 C 0.46315 0.06794 0.03044 0.0
C2700 C 0.43424 0.09917 0.04522 0.0
C2701 C 0.41724 0.09392 0.02774 0.0
C2702 C 0.42377 0.07519 0.01181 0.0
C2703 C 0.44632 0.06269 0.01299 0.0
H2704 H 0.66427 0.58633 0.8258 0.0
H2705 H 0.72541 0.56624 0.77982 0.0
H2706 H 0.68115 0.62683 0.82985 0.0
H2707 H 0.74262 0.60645 0.78423 0.0
H2708 H 0.77784 0.66706 0.82739 0.0
H2709 H 0.75896 0.62803 0.82171 0.0
H2710 H 0.69225 0.66385 0.80116 0.0
H2711 H 0.71163 0.70318 0.80602 0.0
C2712 C 0.68135 0.59068 0.81667 0.0
C2713 C 0.69421 0.57319 0.80333 0.0
C2714 C 0.69088 0.61371 0.81887 0.0
C2715 C 0.71325 0.61943 0.80757 0.0
C2716 C 0.72552 0.6022 0.79338 0.0
C2717 C 0.71586 0.57929 0.79103 0.0
C2718 C 0.75908 0.66649 0.82193 0.0
C2719 C 0.746 0.68782 0.81725 0.0
C2720 C 0.74836 0.64426 0.81857 0.0
C2721 C 0.72423 0.64306 0.81114 0.0
C2722 C 0.71088 0.66444 0.80702 0.0
C2723 C 0.72186 0.68675 0.80975 0.0
H2724 H 0.83391 0.40332 0.01459 0.0
H2725 H 0.80549 0.46942 0.04518 0.0
H2726 H 0.87179 0.4238 1.00264 0.0
H2727 H 0.84313 0.49012 0.03288 0.0
H2728 H 0.90351 0.52226 0.98324 0.0
H2729 H 0.86544 0.50081 0.9921 0.0
H2730 H 0.90618 0.44376 0.02634 0.0
H2731 H 0.94415 0.46533 0.01771 0.0
C2732 C 0.83579 0.4223 0.0185 0.0
C2733 C 0.81669 0.43519 0.02991 0.0
C2734 C 0.85734 0.43395 0.01174 0.0
C2735 C 0.86008 0.45855 0.01657 0.0
C2736 C 0.84116 0.47125 0.02856 0.0
C2737 C 0.8197 0.45952 0.03548 0.0
C2738 C 0.90424 0.50498 0.99235 0.0
C2739 C 0.92657 0.49539 0.99989 0.0
C2740 C 0.88256 0.49285 0.99754 0.0
C2741 C 0.88301 0.47076 0.00991 0.0
C2742 C 0.90544 0.46074 0.01669 0.0
C2743 C 0.92705 0.47308 0.01188 0.0
H2744 H 0.31857 0.10711 0.77884 0.0
H2745 H 0.38495 0.12312 0.73854 0.0
H2746 H 0.30217 0.14667 0.76915 0.0
H2747 H 0.36812 0.16293 0.7285 0.0
H2748 H 0.34299 0.23925 0.75912 0.0
H2749 H 0.35966 0.19878 0.7533 0.0
H2750 H 0.28782 0.1734 0.7374 0.0
H2751 H 0.27091 0.21388 0.74376 0.0
C2752 C 0.3296 0.11899 0.76772 0.0
C2753 C 0.35325 0.11213 0.7598 0.0
C2754 C 0.32001 0.14156 0.76185 0.0
C2755 C 0.33383 0.1578 0.74796 0.0
C2756 C 0.35714 0.15071 0.7393 0.0
C2757 C 0.36676 0.12799 0.74511 0.0
C2758 C 0.33082 0.22518 0.75383 0.0
C2759 C 0.30554 0.22953 0.75252 0.0
C2760 C 0.34043 0.20203 0.75029 0.0
C2761 C 0.32492 0.18292 0.74531 0.0
C2762 C 0.30006 0.18779 0.74166 0.0
C2763 C 0.29041 0.21094 0.74529 0.0
H2764 H 0.17339 0.95197 0.28288 0.0
H2765 H 0.24378 0.97829 0.30283 0.0
H2766 H 0.19197 0.91296 0.2736 0.0
H2767 H 0.2624 0.93931 0.293 0.0
H2768 H 0.27191 0.85811 0.31272 0.0
H2769 H 0.25905 0.90024 0.313 0.0
H2770 H 0.22085 0.89012 0.24821 0.0
H2771 H 0.23333 0.84761 0.24816 0.0
C2772 C 0.1929 0.94959 0.2849 0.0
C2773 C 0.20703 0.96806 0.29405 0.0
C2774 C 0.20358 0.92728 0.27938 0.0
C2775 C 0.22859 0.92309 0.28277 0.0
C2776 C 0.24299 0.94198 0.2906 0.0
C2777 C 0.23231 0.96427 0.29622 0.0
C2778 C 0.26103 0.86491 0.29836 0.0
C2779 C 0.25336 0.84952 0.28058 0.0
C2780 C 0.25384 0.88911 0.29841 0.0
C2781 C 0.23891 0.89841 0.28064 0.0
C2782 C 0.23215 0.8833 0.26225 0.0
C2783 C 0.23933 0.85903 0.26221 0.0
H2784 H 0.53751 0.38398 0.39429 0.0
H2785 H 0.52244 0.34497 0.4593 0.0
H2786 H 0.5428 0.4208 0.41627 0.0
H2787 H 0.52674 0.38227 0.48151 0.0
H2788 H 0.55295 0.45014 0.51893 0.0
H2789 H 0.55026 0.41241 0.49716 0.0
H2790 H 0.5254 0.45252 0.43636 0.0
H2791 H 0.52911 0.49002 0.45781 0.0
C2792 C 0.53512 0.38318 0.41335 0.0
C2793 C 0.52947 0.36108 0.42478 0.0
C2794 C 0.53799 0.40464 0.42613 0.0
C2795 C 0.53507 0.40521 0.45103 0.0
C2796 C 0.52953 0.38301 0.46251 0.0
C2797 C 0.52688 0.3614 0.44967 0.0
C2798 C 0.54723 0.45096 0.50078 0.0
C2799 C 0.54157 0.47349 0.49024 0.0
C2800 C 0.54538 0.42909 0.48824 0.0
C2801 C 0.53756 0.42878 0.46463 0.0
C2802 C 0.532 0.45146 0.45416 0.0
C2803 C 0.53406 0.47326 0.46663 0.0
H2804 H 0.41802 0.76349 0.15397 0.0
H2805 H 0.45515 0.80526 0.20571 0.0
H2806 H 0.38193 0.76216 0.18022 0.0
H2807 H 0.41891 0.80452 0.23151 0.0
H2808 H 0.35555 0.78037 0.28057 0.0
H2809 H 0.39315 0.77901 0.25612 0.0
H2810 H 0.35095 0.79053 0.19355 0.0
H2811 H 0.31361 0.79121 0.21775 0.0
C2812 C 0.41849 0.77238 0.17091 0.0
C2813 C 0.43938 0.78461 0.17767 0.0
C2814 C 0.3978 0.77172 0.1859 0.0
C2815 C 0.39752 0.78345 0.20783 0.0
C2816 C 0.41863 0.79511 0.21485 0.0
C2817 C 0.43937 0.79561 0.19996 0.0
C2818 C 0.35442 0.78279 0.26162 0.0
C2819 C 0.33172 0.78582 0.25105 0.0
C2820 C 0.37589 0.782 0.24762 0.0
C2821 C 0.37496 0.78438 0.22288 0.0
C2822 C 0.35224 0.78804 0.21248 0.0
C2823 C 0.33086 0.78866 0.22639 0.0
H2824 H 0.00857 0.73772 0.98401 0.0
H2825 H 0.03276 0.71059 0.91589 0.0
H2826 H 0.01112 0.69715 1.00079 0.0
H2827 H 0.03452 0.66937 0.93281 0.0
H2828 H 1.00439 0.59689 0.97077 0.0
H2829 H 1.00428 0.63706 0.9519 0.0
H2830 H 0.04413 0.66499 0.00985 0.0
H2831 H 0.04489 0.62476 0.02836 0.0
C2832 C 0.01443 0.72314 0.97245 0.0
C2833 C 0.02051 0.72787 0.9484 0.0
C2834 C 0.01596 0.69969 0.98224 0.0
C2835 C 0.02306 0.67971 0.96832 0.0
C2836 C 0.02889 0.6842 0.94416 0.0
C2837 C 0.02797 0.70793 0.93443 0.0
C2838 C 0.01321 0.61155 0.97951 0.0
C2839 C 0.02456 0.60733 1.00128 0.0
C2840 C 0.01329 0.63465 0.96854 0.0
C2841 C 0.02418 0.65453 0.97923 0.0
C2842 C 0.03544 0.6503 1.00103 0.0
C2843 C 0.0359 0.62711 0.01169 0.0
H2844 H 0.05212 0.33489 0.71278 0.0
H2845 H 0.09246 0.31759 0.6481 0.0
H2846 H 0.089 0.32752 0.73517 0.0
H2847 H 0.12908 0.31003 0.67059 0.0
H2848 H 0.16887 0.32076 0.76333 0.0
H2849 H 0.13563 0.33867 0.74047 0.0
H2850 H 0.13219 0.27312 0.70015 0.0
H2851 H 0.16514 0.25527 0.72304 0.0
C2852 C 0.06901 0.33037 0.70325 0.0
C2853 C 0.06928 0.32634 0.67875 0.0
C2854 C 0.09008 0.32612 0.71608 0.0
C2855 C 0.11157 0.31765 0.70458 0.0
C2856 C 0.11252 0.31614 0.67984 0.0
C2857 C 0.09159 0.32064 0.66699 0.0
C2858 C 0.16088 0.31025 0.7496 0.0
C2859 C 0.1694 0.28664 0.74493 0.0
C2860 C 0.14198 0.32047 0.73658 0.0
C2861 C 0.13173 0.30738 0.71839 0.0
C2862 C 0.14014 0.28371 0.71386 0.0
C2863 C 0.15869 0.27337 0.72713 0.0
H2864 H 0.54882 0.76866 0.10134 0.0
H2865 H 0.52387 0.71873 0.15554 0.0
H2866 H 0.57207 0.73634 0.08174 0.0
H2867 H 0.54672 0.68593 0.13565 0.0
H2868 H 0.60105 0.63402 0.10324 0.0
H2869 H 0.58791 0.67051 0.1247 0.0
H2870 H 0.56154 0.70141 0.05964 0.0
H2871 H 0.57424 0.66491 0.03872 0.0
C2872 C 0.54813 0.75058 0.10882 0.0
C2873 C 0.53401 0.74576 0.12937 0.0
C2874 C 0.56154 0.73216 0.09774 0.0
C2875 C 0.56117 0.70861 0.10712 0.0
C2876 C 0.54761 0.70399 0.12819 0.0
C2877 C 0.53431 0.72256 0.1394 0.0
C2878 C 0.59313 0.64906 0.0936 0.0
C2879 C 0.58857 0.64701 0.06949 0.0
C2880 C 0.58533 0.66971 0.10583 0.0
C2881 C 0.57319 0.68857 0.09393 0.0
C2882 C 0.57062 0.68717 0.06937 0.0
C2883 C 0.57799 0.66642 0.05732 0.0
H2884 H 0.08748 0.77444 0.8446 0.0
H2885 H 0.12018 0.79681 0.909 0.0
H2886 H 0.12751 0.77358 0.82466 0.0
H2887 H 0.16059 0.79538 0.88919 0.0
H2888 H 0.22683 0.81414 0.83989 0.0
H2889 H 0.18703 0.81463 0.8608 0.0
H2890 H 0.16533 0.75324 0.82041 0.0
H2891 H 0.20473 0.75321 0.79922 0.0
C2892 C 0.10326 0.77892 0.85466 0.0
C2893 C 0.10038 0.78562 0.87854 0.0
C2894 C 0.12643 0.77832 0.84317 0.0
C2895 C 0.14771 0.78437 0.85511 0.0
C2896 C 0.14482 0.79089 0.87913 0.0
C2897 C 0.12157 0.7915 0.89064 0.0
C2898 C 0.21354 0.80078 0.83542 0.0
C2899 C 0.21916 0.78374 0.81764 0.0
C2900 C 0.19065 0.80092 0.8476 0.0
C2901 C 0.17254 0.78402 0.84246 0.0
C2902 C 0.17834 0.76689 0.82476 0.0
C2903 C 0.20117 0.76678 0.81259 0.0
H2904 H 0.96315 0.35089 0.57778 0.0
H2905 H 1.00038 0.37996 0.63727 0.0
H2906 H 0.96175 0.39094 0.55963 0.0
H2907 H 0.99947 0.41964 0.61887 0.0
H2908 H 0.98816 0.49141 0.58761 0.0
H2909 H 0.97531 0.45363 0.60606 0.0
H2910 H 0.99308 0.41605 0.54103 0.0
H2911 H 1.00519 0.4541 0.52232 0.0
C2912 C 0.97072 0.36584 0.58717 0.0
C2913 C 0.98217 0.36213 0.60887 0.0
C2914 C 0.97 0.38875 0.57668 0.0
C2915 C 0.98068 0.40839 0.58769 0.0
C2916 C 0.99082 0.40495 0.61002 0.0
C2917 C 0.99149 0.3821 0.62053 0.0
C2918 C 0.98889 0.47513 0.57712 0.0
C2919 C 0.99804 0.47554 0.55366 0.0
C2920 C 0.98159 0.45351 0.58772 0.0
C2921 C 0.98358 0.43182 0.57515 0.0
C2922 C 0.99116 0.4325 0.55115 0.0
C2923 C 0.99823 0.45424 0.54045 0.0
H2924 H 0.44005 0.31382 0.39718 0.0
H2925 H 0.47577 0.26178 0.35127 0.0
H2926 H 0.40309 0.31208 0.37353 0.0
H2927 H 0.43866 0.25933 0.32817 0.0
H2928 H 0.35486 0.2446 0.31182 0.0
H2929 H 0.39227 0.24579 0.33474 0.0
H2930 H 0.39189 0.32345 0.32907 0.0
H2931 H 0.35529 0.32223 0.30528 0.0
C2932 C 0.43998 0.30191 0.38213 0.0
C2933 C 0.46114 0.28837 0.37586 0.0
C2934 C 0.41879 0.30092 0.36851 0.0
C2935 C 0.41776 0.28561 0.34876 0.0
C2936 C 0.43863 0.2713 0.34319 0.0
C2937 C 0.45999 0.2728 0.35639 0.0
C2938 C 0.36296 0.26191 0.3151 0.0
C2939 C 0.35202 0.28327 0.30629 0.0
C2940 C 0.38443 0.26261 0.32833 0.0
C2941 C 0.39522 0.28474 0.33394 0.0
C2942 C 0.3842 0.30607 0.32523 0.0
C2943 C 0.36323 0.30534 0.31137 0.0
H2944 H 0.39623 0.55372 0.35034 0.0
H2945 H 0.46316 0.54592 0.30831 0.0
H2946 H 0.42009 0.56199 0.38516 0.0
H2947 H 0.48687 0.55371 0.34327 0.0
H2948 H 0.51224 0.5347 0.42107 0.0
H2949 H 0.48966 0.52884 0.38494 0.0
H2950 H 0.45263 0.59745 0.39559 0.0
H2951 H 0.47564 0.6035 0.43158 0.0
C2952 C 0.416 0.55367 0.34859 0.0
C2953 C 0.42789 0.54919 0.32669 0.0
C2954 C 0.42956 0.55856 0.3684 0.0
C2955 C 0.45517 0.55853 0.36666 0.0
C2956 C 0.46709 0.55382 0.34488 0.0
C2957 C 0.45355 0.54942 0.32498 0.0
C2958 C 0.49939 0.54855 0.41552 0.0
C2959 C 0.49557 0.56953 0.42891 0.0
C2960 C 0.48662 0.54526 0.39493 0.0
C2961 C 0.46948 0.56269 0.38773 0.0
C2962 C 0.46575 0.58378 0.40098 0.0
C2963 C 0.47894 0.58731 0.42134 0.0
H2964 H 0.29282 0.66491 0.09697 0.0
H2965 H 0.30741 0.73234 0.06031 0.0
H2966 H 0.27789 0.68704 0.13151 0.0
H2967 H 0.29291 0.75451 0.09561 0.0
H2968 H 0.28882 0.77102 0.18147 0.0
H2969 H 0.30571 0.75419 0.14439 0.0
H2970 H 0.23741 0.71873 0.13347 0.0
H2971 H 0.22037 0.73597 0.17038 0.0
C2972 C 0.29334 0.68446 0.09642 0.0
C2973 C 0.30115 0.6969 0.07581 0.0
C2974 C 0.28459 0.69706 0.11615 0.0
C2975 C 0.28389 0.72234 0.11589 0.0
C2976 C 0.29316 0.73495 0.096 0.0
C2977 C 0.30156 0.72228 0.07595 0.0
C2978 C 0.27737 0.7599 0.17091 0.0
C2979 C 0.2534 0.75455 0.17871 0.0
C2980 C 0.28696 0.75045 0.14974 0.0
C2981 C 0.27283 0.73517 0.13634 0.0
C2982 C 0.24858 0.7305 0.14367 0.0
C2983 C 0.23883 0.74036 0.1646 0.0
H2984 H 0.15708 0.55925 0.88665 0.0
H2985 H 0.11682 0.50044 0.85791 0.0
H2986 H 0.13573 0.5534 0.92484 0.0
H2987 H 0.09654 0.49376 0.89605 0.0
H2988 H 0.04042 0.51408 0.95392 0.0
H2989 H 0.06566 0.51414 0.91811 0.0
H2990 H 0.12952 0.52751 0.95889 0.0
H2991 H 0.10386 0.52844 0.99493 0.0
C2992 C 0.14385 0.54496 0.88862 0.0
C2993 C 0.13811 0.53068 0.86931 0.0
C2994 C 0.13184 0.54141 0.91048 0.0
C2995 C 0.11428 0.52323 0.91339 0.0
C2996 C 0.10949 0.5083 0.89425 0.0
C2997 C 0.12108 0.51215 0.87239 0.0
C2998 C 0.0599 0.51663 0.95535 0.0
C2999 C 0.07014 0.52143 0.97719 0.0
C3000 C 0.07443 0.51655 0.93479 0.0
C3001 C 0.0996 0.52096 0.93564 0.0
C3002 C 0.11011 0.52448 0.95765 0.0
C3003 C 0.09547 0.52477 0.97828 0.0
H3004 H 0.26816 0.34516 0.58551 0.0
H3005 H 0.29792 0.40978 0.6142 0.0
H3006 H 0.26674 0.32671 0.62505 0.0
H3007 H 0.29652 0.39143 0.65373 0.0
H3008 H 0.31394 0.34233 0.71832 0.0
H3009 H 0.3149 0.36101 0.6789 0.0
H3010 H 0.24678 0.32714 0.66385 0.0
H3011 H 0.24588 0.30849 0.70324 0.0
C3012 C 0.27433 0.35555 0.60023 0.0
C3013 C 0.28311 0.37913 0.59633 0.0
C3014 C 0.27342 0.34494 0.62311 0.0
C3015 C 0.28155 0.35735 0.64306 0.0
C3016 C 0.29034 0.38096 0.63908 0.0
C3017 C 0.29098 0.39165 0.61625 0.0
C3018 C 0.29911 0.33884 0.70667 0.0
C3019 C 0.27984 0.32373 0.71433 0.0
C3020 C 0.29958 0.34974 0.68392 0.0
C3021 C 0.28093 0.34579 0.66771 0.0
C3022 C 0.2617 0.33059 0.6754 0.0
C3023 C 0.2611 0.31991 0.69824 0.0
H3024 H 0.45647 0.60078 0.20576 0.0
H3025 H 0.40582 0.55214 0.17475 0.0
H3026 H 0.47745 0.60568 0.16736 0.0
H3027 H 0.42742 0.5556 0.13715 0.0
H3028 H 0.4663 0.56525 0.06899 0.0
H3029 H 0.4403 0.57512 0.10333 0.0
H3030 H 0.50466 0.58197 0.14523 0.0
H3031 H 0.53043 0.57395 0.11031 0.0
C3032 C 0.44963 0.59143 0.19066 0.0
C3033 C 0.42977 0.57582 0.19328 0.0
C3034 C 0.46178 0.594 0.16871 0.0
C3035 C 0.45457 0.58061 0.14915 0.0
C3036 C 0.43351 0.56644 0.15157 0.0
C3037 C 0.42113 0.56429 0.1733 0.0
C3038 C 0.47476 0.56906 0.08558 0.0
C3039 C 0.50024 0.56841 0.08727 0.0
C3040 C 0.45991 0.57469 0.10528 0.0
C3041 C 0.47026 0.57901 0.12728 0.0
C3042 C 0.49591 0.57914 0.12861 0.0
C3043 C 0.51075 0.57421 0.1087 0.0
H3044 H 0.30601 0.63625 0.92156 0.0
H3045 H 0.29921 0.70556 0.95597 0.0
H3046 H 0.30922 0.65661 0.88323 0.0
H3047 H 0.30179 0.72572 0.91772 0.0
H3048 H 0.28203 0.70421 0.82012 0.0
H3049 H 0.28418 0.68033 0.85649 0.0
H3050 H 0.33104 0.73364 0.88595 0.0
H3051 H 0.32829 0.7578 0.84995 0.0
C3052 C 0.30508 0.6558 0.92098 0.0
C3053 C 0.30242 0.66928 0.94188 0.0
C3054 C 0.30688 0.66744 0.89899 0.0
C3055 C 0.30601 0.69276 0.89746 0.0
C3056 C 0.3031 0.70619 0.91833 0.0
C3057 C 0.3014 0.6946 0.94028 0.0
C3058 C 0.2932 0.71054 0.83419 0.0
C3059 C 0.30475 0.73298 0.83236 0.0
C3060 C 0.29444 0.69687 0.85502 0.0
C3061 C 0.3074 0.70535 0.87425 0.0
C3062 C 0.32038 0.72695 0.87167 0.0
C3063 C 0.31896 0.74069 0.85099 0.0
H3064 H 0.14685 0.5005 0.71721 0.0
H3065 H 0.0802 0.49816 0.76009 0.0
H3066 H 0.1231 0.5025 0.68172 0.0
H3067 H 0.0563 0.49998 0.72437 0.0
H3068 H 0.0345 0.55419 0.66303 0.0
H3069 H 0.05202 0.53642 0.69839 0.0
H3070 H 0.09336 0.48541 0.65521 0.0
H3071 H 0.07669 0.50371 0.61991 0.0
C3072 C 0.12712 0.49956 0.71899 0.0
C3073 C 0.11533 0.49969 0.74135 0.0
C3074 C 0.11349 0.50059 0.69864 0.0
C3075 C 0.08784 0.50186 0.70036 0.0
C3076 C 0.07607 0.49942 0.72264 0.0
C3077 C 0.08975 0.49821 0.74304 0.0
C3078 C 0.04722 0.53913 0.66112 0.0
C3079 C 0.0544 0.5306 0.63866 0.0
C3080 C 0.05693 0.52866 0.68137 0.0
C3081 C 0.07403 0.5095 0.6795 0.0
C3082 C 0.08027 0.5002 0.65713 0.0
C3083 C 0.0706 0.51066 0.63692 0.0
H3084 H 0.30212 0.41848 0.43166 0.0
H3085 H 0.27145 0.35795 0.47001 0.0
H3086 H 0.29896 0.3972 0.39489 0.0
H3087 H 0.26684 0.33675 0.43267 0.0
H3088 H 0.27685 0.29515 0.36265 0.0
H3089 H 0.28005 0.3154 0.40041 0.0
H3090 H 0.27802 0.38448 0.36422 0.0
H3091 H 0.27625 0.36396 0.32649 0.0
C3092 C 0.29446 0.40057 0.43236 0.0
C3093 C 0.28711 0.39019 0.45432 0.0
C3094 C 0.29232 0.38825 0.41084 0.0
C3095 C 0.28223 0.36494 0.40991 0.0
C3096 C 0.27498 0.35442 0.432 0.0
C3097 C 0.27753 0.3667 0.45372 0.0
C3098 C 0.27696 0.31471 0.36271 0.0
C3099 C 0.27622 0.32772 0.34113 0.0
C3100 C 0.27872 0.32652 0.38467 0.0
C3101 C 0.27955 0.352 0.38619 0.0
C3102 C 0.27817 0.36496 0.36448 0.0
C3103 C 0.2768 0.35311 0.3425 0.0
H3104 H 0.33722 0.4666 0.5513 0.0
H3105 H 0.37304 0.4181 0.50184 0.0
H3106 H 0.37508 0.4896 0.55386 0.0
H3107 H 0.41072 0.44169 0.50364 0.0
H3108 H 0.46068 0.51154 0.49374 0.0
H3109 H 0.42292 0.48838 0.49216 0.0
H3110 H 0.42173 0.48024 0.56796 0.0
H3111 H 0.46014 0.50254 0.56952 0.0
C3112 C 0.35315 0.46094 0.54082 0.0
C3113 C 0.35184 0.44077 0.52594 0.0
C3114 C 0.37493 0.47407 0.54239 0.0
C3115 C 0.39605 0.46772 0.52883 0.0
C3116 C 0.39483 0.44731 0.51419 0.0
C3117 C 0.37322 0.43374 0.51316 0.0
C3118 C 0.45232 0.50502 0.51015 0.0
C3119 C 0.46358 0.50921 0.5318 0.0
C3120 C 0.4307 0.49154 0.50919 0.0
C3121 C 0.41914 0.48231 0.52991 0.0
C3122 C 0.42999 0.48706 0.55163 0.0
C3123 C 0.45205 0.49993 0.55253 0.0
H3124 H 0.87846 0.1208 0.45436 0.0
H3125 H 0.88354 0.14115 0.5274 0.0
H3126 H 0.92287 0.11894 0.4503 0.0
H3127 H 0.92792 0.13768 0.52403 0.0
H3128 H 0.98824 0.06969 0.47162 0.0
H3129 H 0.95015 0.0898 0.46296 0.0
H3130 H 0.96757 0.14772 0.51007 0.0
H3131 H 1.00569 0.12664 0.51945 0.0
C3132 C 0.88919 0.12484 0.46955 0.0
C3133 C 0.87774 0.13052 0.49135 0.0
C3134 C 0.91462 0.12384 0.46725 0.0
C3135 C 0.92911 0.12769 0.48692 0.0
C3136 C 0.91751 0.13486 0.50837 0.0
C3137 C 0.89205 0.13652 0.51047 0.0
C3138 C 0.98441 0.08722 0.47937 0.0
C3139 C 0.99954 0.09636 0.49658 0.0
C3140 C 0.96248 0.09891 0.47436 0.0
C3141 C 0.95532 0.12011 0.48638 0.0
C3142 C 0.9722 0.13103 0.50105 0.0
C3143 C 0.99423 0.11919 0.50615 0.0
H3144 H 0.63451 0.10933 0.28752 0.0
H3145 H 0.69277 0.07088 0.25049 0.0
H3146 H 0.6485 0.14729 0.26976 0.0
H3147 H 0.70799 0.10855 0.23396 0.0
H3148 H 0.7339 0.17723 0.20532 0.0
H3149 H 0.70698 0.14286 0.21063 0.0
H3150 H 0.68052 0.172 0.27751 0.0
H3151 H 0.70564 0.20684 0.2712 0.0
C3152 C 0.65043 0.10917 0.27565 0.0
C3153 C 0.66357 0.08773 0.27132 0.0
C3154 C 0.65849 0.1308 0.2655 0.0
C3155 C 0.67985 0.13118 0.25093 0.0
C3156 C 0.69151 0.10915 0.24501 0.0
C3157 C 0.68322 0.08759 0.25493 0.0
C3158 C 0.72185 0.17651 0.22082 0.0
C3159 C 0.72248 0.19439 0.23818 0.0
C3160 C 0.70657 0.1567 0.22401 0.0
C3161 C 0.69189 0.1543 0.24475 0.0
C3162 C 0.69137 0.17311 0.26123 0.0
C3163 C 0.70631 0.19296 0.25788 0.0
H3164 H 0.70336 0.91189 0.0283 0.0
H3165 H 0.72765 0.98562 0.02503 0.0
H3166 H 0.66056 0.92669 0.03109 0.0
H3167 H 0.68556 1.00009 0.02867 0.0
H3168 H 0.60841 0.0166 0.061 0.0
H3169 H 0.6495 0.99845 0.06052 0.0
H3170 H 0.63079 0.95332 1.00242 0.0
H3171 H 0.58974 0.97201 1.00238 0.0
C3172 C 0.69971 0.93116 0.02854 0.0
C3173 C 0.71922 0.94746 0.02652 0.0
C3174 C 0.67515 0.93966 0.02999 0.0
C3175 C 0.66951 0.96466 0.03018 0.0
C3176 C 0.68907 0.98078 0.02876 0.0
C3177 C 0.71336 0.97238 0.02666 0.0
C3178 C 0.61292 0.00274 0.04815 0.0
C3179 C 0.5956 0.99596 0.03164 0.0
C3180 C 0.63657 0.99232 0.04788 0.0
C3181 C 0.64357 0.97432 0.03147 0.0
C3182 C 0.62604 0.96696 0.01543 0.0
C3183 C 0.60252 0.97781 0.01533 0.0
H3184 H 0.43201 0.46784 0.26307 0.0
H3185 H 0.3706 0.49624 0.22517 0.0
H3186 H 0.42057 0.42657 0.25277 0.0
H3187 H 0.35878 0.45577 0.21533 0.0
H3188 H 0.33704 0.38617 0.19754 0.0
H3189 H 0.36619 0.41854 0.19545 0.0
H3190 H 0.38703 0.40235 0.26691 0.0
H3191 H 0.35817 0.37016 0.26925 0.0
C3192 C 0.41625 0.46512 0.25236 0.0
C3193 C 0.40152 0.48474 0.24559 0.0
C3194 C 0.40976 0.44169 0.24639 0.0
C3195 C 0.38875 0.43787 0.23326 0.0
C3196 C 0.3753 0.45793 0.22508 0.0
C3197 C 0.38171 0.48112 0.23112 0.0
C3198 C 0.34784 0.38925 0.21284 0.0
C3199 C 0.34398 0.37622 0.23406 0.0
C3200 C 0.36481 0.40773 0.21149 0.0
C3201 C 0.37815 0.41362 0.23136 0.0
C3202 C 0.3768 0.39851 0.25136 0.0
C3203 C 0.3598 0.38008 0.25278 0.0
H3204 H 0.22141 0.64668 0.99776 0.0
H3205 H 0.26049 0.60557 0.05001 0.0
H3206 H 0.18374 0.62563 0.00924 0.0
H3207 H 0.22282 0.58459 0.06172 0.0
H3208 H 0.14084 0.58245 0.0923 0.0
H3209 H 0.18083 0.5989 0.08088 0.0
H3210 H 0.16902 0.5812 0.00807 0.0
H3211 H 0.12964 0.56425 0.01936 0.0
C3212 C 0.22187 0.63288 0.01147 0.0
C3213 C 0.24372 0.62701 0.02252 0.0
C3214 C 0.20048 0.62089 0.01803 0.0
C3215 C 0.20057 0.60345 0.03624 0.0
C3216 C 0.22239 0.59797 0.04763 0.0
C3217 C 0.24386 0.60971 0.04079 0.0
C3218 C 0.14696 0.58176 0.07395 0.0
C3219 C 0.13184 0.57253 0.05671 0.0
C3220 C 0.16977 0.59115 0.06743 0.0
C3221 C 0.17768 0.59152 0.04358 0.0
C3222 C 0.16303 0.58149 0.0265 0.0
C3223 C 0.14042 0.57196 0.03301 0.0
H3224 H 0.66364 0.95602 0.32638 0.0
H3225 H 0.73522 0.98252 0.3064 0.0
H3226 H 0.68076 0.91548 0.33117 0.0
H3227 H 0.75219 0.94185 0.30985 0.0
H3228 H 0.78047 0.86798 0.3242 0.0
H3229 H 0.76294 0.9078 0.33302 0.0
H3230 H 0.6944 0.88593 0.30442 0.0
H3231 H 0.71145 0.84617 0.29679 0.0
C3232 C 0.68305 0.95311 0.32299 0.0
C3233 C 0.69807 0.97223 0.31565 0.0
C3234 C 0.69286 0.92992 0.32569 0.0
C3235 C 0.71779 0.92532 0.32057 0.0
C3236 C 0.73298 0.94474 0.31425 0.0
C3237 C 0.72324 0.96804 0.31203 0.0
C3238 C 0.76152 0.87163 0.32028 0.0
C3239 C 0.7474 0.8541 0.3096 0.0
C3240 C 0.75152 0.89445 0.32519 0.0
C3241 C 0.72734 0.90017 0.31921 0.0
C3242 C 0.71295 0.88213 0.30963 0.0
C3243 C 0.72281 0.85931 0.30504 0.0
H3244 H 0.83612 0.06199 0.80837 0.0
H3245 H 0.87447 0.09607 0.74931 0.0
H3246 H 0.81023 0.0983 0.81324 0.0
H3247 H 0.84831 0.13193 0.75394 0.0
H3248 H 0.77966 0.17911 0.75399 0.0
H3249 H 0.7988 0.13917 0.75153 0.0
H3250 H 0.82353 0.14576 0.82279 0.0
H3251 H 0.80471 0.18613 0.82533 0.0
C3252 C 0.83881 0.07713 0.79633 0.0
C3253 C 0.85725 0.07637 0.7785 0.0
C3254 C 0.82412 0.09778 0.79918 0.0
C3255 C 0.82736 0.11758 0.78386 0.0
C3256 C 0.84546 0.11666 0.7658 0.0
C3257 C 0.86046 0.09629 0.76326 0.0
C3258 C 0.78875 0.17192 0.76934 0.0
C3259 C 0.79095 0.1858 0.7898 0.0
C3260 C 0.79968 0.14913 0.76786 0.0
C3261 C 0.8126 0.13971 0.78693 0.0
C3262 C 0.81349 0.1528 0.80795 0.0
C3263 C 0.80286 0.17583 0.80934 0.0
loop_
_geom_bond_atom_site_label_1
_geom_bond_atom_site_label_2
_geom_bond_distance
_geom_bond_site_symmetry_2
_ccdc_geom_bond_type
Mn0 O5 2.095 . S
Mn0 O15 2.162 . S
Mn0 O16 2.297 . S
Mn0 O24 2.385 . S
Mn0 O25 2.209 . S
Mn0 O26 2.094 1_455 S
Mn1 O6 2.121 1_655 S
Mn1 N8 2.257 . S
Mn1 N17 2.282 . S
Mn1 O25 2.215 1_655 S
Mn1 O27 2.117 . S
C2 O24 1.234 . S
C2 O25 1.283 . S
C3 O15 1.281 . S
C3 O16 1.236 . S
C4 O26 1.240 . S
C4 O27 1.264 . S
O5 Mn0 2.095 . S
O5 C14 1.250 . S
O6 Mn1 2.121 1_455 S
O6 C14 1.258 . S
C7 N8 1.326 1_455 S
C7 C11 1.460 . S
C7 H13 0.929 . S
N8 Mn1 2.257 . S
N8 C7 1.326 1_655 S
N8 C12 1.362 . S
C9 C10 1.258 . S
C9 C12 1.431 . S
C9 C29 1.449 . S
C10 C9 1.258 . S
C10 C11 1.477 1_655 S
C10 H30 0.931 . S
C11 C7 1.460 . S
C11 C10 1.477 1_455 S
C11 H31 0.930 . S
C12 N8 1.362 . S
C12 C9 1.431 . S
C12 C22 1.476 . S
H13 C7 0.929 . S
C14 O5 1.250 . S
C14 O6 1.258 . S
O15 Mn0 2.162 . S
O15 C3 1.281 . S
O16 Mn0 2.297 . S
O16 C3 1.236 . S
N17 Mn1 2.282 . S
N17 C18 1.328 . S
N17 C22 1.318 . S
C18 N17 1.328 . S
C18 C19 1.457 . S
C18 H23 0.929 . S
C19 C18 1.457 . S
C19 C20 1.291 . S
C19 H32 0.931 . S
C20 C19 1.291 . S
C20 C21 1.373 . S
C20 H33 0.929 . S
C21 C20 1.373 . S
C21 C22 1.396 . S
C21 C28 1.403 . S
C22 C12 1.476 . S
C22 N17 1.318 . S
C22 C21 1.396 . S
H23 C18 0.929 . S
O24 Mn0 2.385 . S
O24 C2 1.234 . S
O25 Mn0 2.209 . S
O25 Mn1 2.215 1_455 S
O25 C2 1.283 . S
O26 Mn0 2.094 1_655 S
O26 C4 1.240 . S
O27 Mn1 2.117 . S
O27 C4 1.264 . S
C28 C21 1.403 . S
C28 C29 1.399 . S
C28 H34 0.929 . S
C29 C9 1.449 . S
C29 C28 1.399 . S
C29 H35 0.930 . S
H30 C10 0.931 . S
H31 C11 0.930 . S
H32 C19 0.931 . S
H33 C20 0.929 . S
H34 C28 0.929 . S
H35 C29 0.930 . S
Mn36 O41 2.095 . S
Mn36 O51 2.162 . S
Mn36 O52 2.297 . S
Mn36 O60 2.385 . S
Mn36 O61 2.209 . S
Mn36 O62 2.094 . S
Mn37 O42 2.121 . S
Mn37 N44 2.257 . S
Mn37 N53 2.282 1_455 S
Mn37 O61 2.215 . S
Mn37 O63 2.117 1_455 S
C38 O60 1.234 . S
C38 O61 1.283 . S
C39 O51 1.281 . S
C39 O52 1.236 . S
C40 O62 1.275 . S
C40 O63 1.259 1_455 S
O41 Mn36 2.095 . S
O41 C50 1.250 . S
O42 Mn37 2.121 . S
O42 C50 1.258 . S
C43 N44 1.326 . S
C43 C47 1.460 . S
C43 H49 0.929 . S
N44 Mn37 2.257 . S
N44 C43 1.326 . S
N44 C48 1.362 . S
C45 C46 1.258 . S
C45 C48 1.431 . S
C45 C65 1.449 1_455 S
C46 C45 1.258 . S
C46 C47 1.477 . S
C46 H66 0.931 . S
C47 C43 1.460 . S
C47 C46 1.477 . S
C47 H67 0.930 . S
C48 N44 1.362 . S
C48 C45 1.431 . S
C48 C58 1.476 1_455 S
H49 C43 0.929 . S
C50 O41 1.250 . S
C50 O42 1.258 . S
O51 Mn36 2.162 . S
O51 C39 1.281 . S
O52 Mn36 2.297 . S
O52 C39 1.236 . S
N53 Mn37 2.282 1_655 S
N53 C54 1.328 . S
N53 C58 1.318 . S
C54 N53 1.328 . S
C54 C55 1.457 . S
C54 H59 0.929 . S
C55 C54 1.457 . S
C55 C56 1.291 . S
C55 H68 0.931 . S
C56 C55 1.291 . S
C56 C57 1.373 . S
C56 H69 0.929 . S
C57 C56 1.373 . S
C57 C58 1.396 . S
C57 C64 1.403 . S
C58 C48 1.476 1_655 S
C58 N53 1.318 . S
C58 C57 1.396 . S
H59 C54 0.929 . S
O60 Mn36 2.385 . S
O60 C38 1.234 . S
O61 Mn36 2.209 . S
O61 Mn37 2.215 . S
O61 C38 1.283 . S
O62 Mn36 2.094 . S
O62 C40 1.275 . S
O63 Mn37 2.117 1_655 S
O63 C40 1.259 1_655 S
C64 C57 1.403 . S
C64 C65 1.399 . S
C64 H70 0.929 . S
C65 C45 1.449 1_655 S
C65 C64 1.399 . S
C65 H71 0.930 . S
H66 C46 0.931 . S
H67 C47 0.930 . S
H68 C55 0.931 . S
H69 C56 0.929 . S
H70 C64 0.929 . S
H71 C65 0.930 . S
Mn72 O77 2.095 . S
Mn72 O87 2.162 . S
Mn72 O88 2.297 . S
Mn72 O96 2.385 . S
Mn72 O97 2.209 . S
Mn72 O98 2.094 . S
Mn73 O78 2.121 . S
Mn73 N80 2.257 . S
Mn73 N89 2.282 . S
Mn73 O97 2.215 . S
Mn73 O99 2.117 . S
C74 O96 1.234 . S
C74 O97 1.283 . S
C75 O87 1.281 . S
C75 O88 1.236 . S
C76 O98 1.240 . S
C76 O99 1.264 . S
O77 Mn72 2.095 . S
O77 C86 1.250 . S
O78 Mn73 2.121 . S
O78 C86 1.258 . S
C79 N80 1.326 . S
C79 C83 1.460 . S
C79 H85 0.929 . S
N80 Mn73 2.257 . S
N80 C79 1.326 . S
N80 C84 1.362 . S
C81 C82 1.258 . S
C81 C84 1.431 . S
C81 C101 1.449 . S
C82 C81 1.258 . S
C82 C83 1.477 . S
C82 H102 0.931 . S
C83 C79 1.460 . S
C83 C82 1.477 . S
C83 H103 0.930 . S
C84 N80 1.362 . S
C84 C81 1.431 . S
C84 C94 1.476 . S
H85 C79 0.929 . S
C86 O77 1.250 . S
C86 O78 1.258 . S
O87 Mn72 2.162 . S
O87 C75 1.281 . S
O88 Mn72 2.297 . S
O88 C75 1.236 . S
N89 Mn73 2.282 . S
N89 C90 1.328 . S
N89 C94 1.318 . S
C90 N89 1.328 . S
C90 C91 1.457 . S
C90 H95 0.929 . S
C91 C90 1.457 . S
C91 C92 1.291 . S
C91 H104 0.931 . S
C92 C91 1.291 . S
C92 C93 1.373 . S
C92 H105 0.929 . S
C93 C92 1.373 . S
C93 C94 1.396 . S
C93 C100 1.403 . S
C94 C84 1.476 . S
C94 N89 1.318 . S
C94 C93 1.396 . S
H95 C90 0.929 . S
O96 Mn72 2.385 . S
O96 C74 1.234 . S
O97 Mn72 2.209 . S
O97 Mn73 2.215 . S
O97 C74 1.283 . S
O98 Mn72 2.094 . S
O98 C76 1.240 . S
O99 Mn73 2.117 . S
O99 C76 1.264 . S
C100 C93 1.403 . S
C100 C101 1.399 . S
C100 H106 0.929 . S
C101 C81 1.449 . S
C101 C100 1.399 . S
C101 H107 0.930 . S
H102 C82 0.931 . S
H103 C83 0.930 . S
H104 C91 0.931 . S
H105 C92 0.929 . S
H106 C100 0.929 . S
H107 C101 0.930 . S
Mn108 O113 2.095 . S
Mn108 O123 2.162 . S
Mn108 O124 2.297 . S
Mn108 O132 2.385 . S
Mn108 O133 2.209 . S
Mn108 O134 2.094 . S
Mn109 O114 2.121 . S
Mn109 N116 2.257 . S
Mn109 N125 2.282 . S
Mn109 O133 2.215 . S
Mn109 O135 2.117 . S
C110 O132 1.234 . S
C110 O133 1.283 . S
C111 O123 1.281 . S
C111 O124 1.236 . S
C112 O134 1.240 . S
C112 O135 1.264 . S
O113 Mn108 2.095 . S
O113 C122 1.250 . S
O114 Mn109 2.121 . S
O114 C122 1.258 . S
C115 N116 1.326 . S
C115 C119 1.460 1_556 S
C115 H121 0.929 . S
N116 Mn109 2.257 . S
N116 C115 1.326 . S
N116 C120 1.362 . S
C117 C118 1.258 . S
C117 C120 1.431 1_554 S
C117 C137 1.449 . S
C118 C117 1.258 . S
C118 C119 1.477 . S
C118 H138 0.931 . S
C119 C115 1.460 1_554 S
C119 C118 1.477 . S
C119 H139 0.930 . S
C120 N116 1.362 . S
C120 C117 1.431 1_556 S
C120 C130 1.476 . S
H121 C115 0.929 . S
C122 O113 1.250 . S
C122 O114 1.258 . S
O123 Mn108 2.162 . S
O123 C111 1.281 . S
O124 Mn108 2.297 . S
O124 C111 1.236 . S
N125 Mn109 2.282 . S
N125 C126 1.328 . S
N125 C130 1.318 . S
C126 N125 1.328 . S
C126 C127 1.457 . S
C126 H131 0.929 . S
C127 C126 1.457 . S
C127 C128 1.291 . S
C127 H140 0.931 . S
C128 C127 1.291 . S
C128 C129 1.373 . S
C128 H141 0.929 . S
C129 C128 1.373 . S
C129 C130 1.396 . S
C129 C136 1.403 . S
C130 C120 1.476 . S
C130 N125 1.318 . S
C130 C129 1.396 . S
H131 C126 0.929 . S
O132 Mn108 2.385 . S
O132 C110 1.234 . S
O133 Mn108 2.209 . S
O133 Mn109 2.215 . S
O133 C110 1.283 . S
O134 Mn108 2.094 . S
O134 C112 1.240 . S
O135 Mn109 2.117 . S
O135 C112 1.264 . S
C136 C129 1.403 . S
C136 C137 1.399 1_556 S
C136 H142 0.929 . S
C137 C117 1.449 . S
C137 C136 1.399 1_554 S
C137 H143 0.930 . S
H138 C118 0.931 . S
H139 C119 0.930 . S
H140 C127 0.931 . S
H141 C128 0.929 . S
H142 C136 0.929 . S
H143 C137 0.930 . S
Mn144 O149 2.095 1_545 S
Mn144 O159 2.162 . S
Mn144 O160 2.297 . S
Mn144 O168 2.385 . S
Mn144 O169 2.209 . S
Mn144 O170 2.094 . S
Mn145 O150 2.121 1_545 S
Mn145 N152 2.257 . S
Mn145 N161 2.282 . S
Mn145 O169 2.215 . S
Mn145 O171 2.117 . S
C146 O168 1.234 . S
C146 O169 1.283 . S
C147 O159 1.281 . S
C147 O160 1.236 . S
C148 O170 1.240 . S
C148 O171 1.264 . S
O149 Mn144 2.095 1_565 S
O149 C158 1.250 . S
O150 Mn145 2.121 1_565 S
O150 C158 1.258 . S
C151 N152 1.326 . S
C151 C155 1.460 . S
C151 H157 0.929 1_545 S
N152 Mn145 2.257 . S
N152 C151 1.326 . S
N152 C156 1.362 . S
C153 C154 1.258 . S
C153 C156 1.431 . S
C153 C173 1.449 . S
C154 C153 1.258 . S
C154 C155 1.477 . S
C154 H174 0.931 . S
C155 C151 1.460 . S
C155 C154 1.477 . S
C155 H175 0.930 . S
C156 N152 1.362 . S
C156 C153 1.431 . S
C156 C166 1.476 . S
H157 C151 0.929 1_565 S
C158 O149 1.250 . S
C158 O150 1.258 . S
O159 Mn144 2.162 . S
O159 C147 1.281 . S
O160 Mn144 2.297 . S
O160 C147 1.236 . S
N161 Mn145 2.282 . S
N161 C162 1.328 . S
N161 C166 1.318 . S
C162 N161 1.328 . S
C162 C163 1.457 . S
C162 H167 0.929 . S
C163 C162 1.457 . S
C163 C164 1.291 . S
C163 H176 0.931 . S
C164 C163 1.291 . S
C164 C165 1.373 . S
C164 H177 0.929 . S
C165 C164 1.373 . S
C165 C166 1.396 . S
C165 C172 1.403 . S
C166 C156 1.476 . S
C166 N161 1.318 . S
C166 C165 1.396 . S
H167 C162 0.929 . S
O168 Mn144 2.385 . S
O168 C146 1.234 . S
O169 Mn144 2.209 . S
O169 Mn145 2.215 . S
O169 C146 1.283 . S
O170 Mn144 2.094 . S
O170 C148 1.240 . S
O171 Mn145 2.117 . S
O171 C148 1.264 . S
C172 C165 1.403 . S
C172 C173 1.399 . S
C172 H178 0.929 . S
C173 C153 1.449 . S
C173 C172 1.399 . S
C173 H179 0.930 . S
H174 C154 0.931 . S
H175 C155 0.930 . S
H176 C163 0.931 . S
H177 C164 0.929 . S
H178 C172 0.929 . S
H179 C173 0.930 . S
Mn180 O185 2.095 . S
Mn180 O195 2.162 . S
Mn180 O196 2.297 . S
Mn180 O204 2.385 . S
Mn180 O205 2.209 . S
Mn180 O206 2.094 . S
Mn181 O186 2.121 . S
Mn181 N188 2.257 . S
Mn181 N197 2.282 . S
Mn181 O205 2.215 . S
Mn181 O207 2.117 . S
C182 O204 1.234 . S
C182 O205 1.283 . S
C183 O195 1.281 . S
C183 O196 1.236 . S
C184 O206 1.240 . S
C184 O207 1.264 . S
O185 Mn180 2.095 . S
O185 C194 1.250 . S
O186 Mn181 2.121 . S
O186 C194 1.258 . S
C187 N188 1.328 1_545 S
C187 C191 1.457 . S
C187 H193 0.930 1_545 S
N188 Mn181 2.257 . S
N188 C187 1.328 1_565 S
N188 C192 1.362 . S
C189 C190 1.258 . S
C189 C192 1.431 1_545 S
C189 C209 1.449 . S
C190 C189 1.258 . S
C190 C191 1.477 . S
C190 H210 0.931 . S
C191 C187 1.457 . S
C191 C190 1.477 . S
C191 H211 0.930 . S
C192 N188 1.362 . S
C192 C189 1.431 1_565 S
C192 C202 1.476 . S
H193 C187 0.930 1_565 S
C194 O185 1.250 . S
C194 O186 1.258 . S
O195 Mn180 2.162 . S
O195 C183 1.281 . S
O196 Mn180 2.297 . S
O196 C183 1.236 . S
N197 Mn181 2.282 . S
N197 C198 1.328 . S
N197 C202 1.318 . S
C198 N197 1.328 . S
C198 C199 1.457 . S
C198 H203 0.929 . S
C199 C198 1.457 . S
C199 C200 1.291 . S
C199 H212 0.931 . S
C200 C199 1.291 . S
C200 C201 1.373 . S
C200 H213 0.929 . S
C201 C200 1.373 . S
C201 C202 1.396 . S
C201 C208 1.403 1_565 S
C202 C192 1.476 . S
C202 N197 1.318 . S
C202 C201 1.396 . S
H203 C198 0.929 . S
O204 Mn180 2.385 . S
O204 C182 1.234 . S
O205 Mn180 2.209 . S
O205 Mn181 2.215 . S
O205 C182 1.283 . S
O206 Mn180 2.094 . S
O206 C184 1.240 . S
O207 Mn181 2.117 . S
O207 C184 1.264 . S
C208 C201 1.403 1_545 S
C208 C209 1.399 . S
C208 H214 0.929 . S
C209 C189 1.449 . S
C209 C208 1.399 . S
C209 H215 0.930 . S
H210 C190 0.931 . S
H211 C191 0.930 . S
H212 C199 0.931 . S
H213 C200 0.929 . S
H214 C208 0.929 . S
H215 C209 0.930 . S
Mn216 O221 2.095 . S
Mn216 O231 2.162 . S
Mn216 O232 2.297 . S
Mn216 O240 2.385 . S
Mn216 O241 2.209 . S
Mn216 O242 2.094 . S
Mn217 O222 2.121 . S
Mn217 N224 2.257 . S
Mn217 N233 2.282 . S
Mn217 O241 2.215 . S
Mn217 O243 2.117 . S
C218 O240 1.234 . S
C218 O241 1.283 . S
C219 O231 1.281 . S
C219 O232 1.236 . S
C220 O242 1.240 . S
C220 O243 1.264 . S
O221 Mn216 2.095 . S
O221 C230 1.250 . S
O222 Mn217 2.121 . S
O222 C230 1.258 . S
C223 N224 1.326 . S
C223 C227 1.460 . S
C223 H229 0.929 . S
N224 Mn217 2.257 . S
N224 C223 1.326 . S
N224 C228 1.362 . S
C225 C226 1.258 . S
C225 C228 1.431 . S
C225 C245 1.449 1_545 S
C226 C225 1.258 . S
C226 C227 1.477 . S
C226 H246 0.931 . S
C227 C223 1.460 . S
C227 C226 1.477 . S
C227 H247 0.930 . S
C228 N224 1.362 . S
C228 C225 1.431 . S
C228 C238 1.476 . S
H229 C223 0.929 . S
C230 O221 1.250 . S
C230 O222 1.258 . S
O231 Mn216 2.162 . S
O231 C219 1.281 . S
O232 Mn216 2.297 . S
O232 C219 1.236 . S
N233 Mn217 2.282 . S
N233 C234 1.328 . S
N233 C238 1.318 . S
C234 N233 1.328 . S
C234 C235 1.457 1_545 S
C234 H239 0.929 . S
C235 C234 1.457 1_565 S
C235 C236 1.291 . S
C235 H248 0.931 . S
C236 C235 1.291 . S
C236 C237 1.373 . S
C236 H249 0.929 . S
C237 C236 1.373 . S
C237 C238 1.396 1_565 S
C237 C244 1.403 . S
C238 C228 1.476 . S
C238 N233 1.318 . S
C238 C237 1.396 1_545 S
H239 C234 0.929 . S
O240 Mn216 2.385 . S
O240 C218 1.234 . S
O241 Mn216 2.209 . S
O241 Mn217 2.215 . S
O241 C218 1.283 . S
O242 Mn216 2.094 . S
O242 C220 1.240 . S
O243 Mn217 2.117 . S
O243 C220 1.264 . S
C244 C237 1.403 . S
C244 C245 1.399 . S
C244 H250 0.929 . S
C245 C225 1.449 1_565 S
C245 C244 1.399 . S
C245 H251 0.930 . S
H246 C226 0.931 . S
H247 C227 0.930 . S
H248 C235 0.931 . S
H249 C236 0.929 . S
H250 C244 0.929 . S
H251 C245 0.930 . S
Mn252 O257 2.095 . S
Mn252 O267 2.162 . S
Mn252 O268 2.297 . S
Mn252 O276 2.385 . S
Mn252 O277 2.209 . S
Mn252 O278 2.091 . S
Mn253 O258 2.121 1_556 S
Mn253 N260 2.257 . S
Mn253 N269 2.282 . S
Mn253 O277 2.215 1_556 S
Mn253 O279 2.117 . S
C254 O276 1.234 . S
C254 O277 1.283 . S
C255 O267 1.281 . S
C255 O268 1.236 . S
C256 O278 1.243 1_556 S
C256 O279 1.264 . S
O257 Mn252 2.095 . S
O257 C266 1.250 . S
O258 Mn253 2.121 1_554 S
O258 C266 1.258 . S
C259 N260 1.326 1_554 S
C259 C263 1.460 . S
C259 H265 0.929 . S
N260 Mn253 2.257 . S
N260 C259 1.326 1_556 S
N260 C264 1.362 . S
C261 C262 1.258 . S
C261 C264 1.431 . S
C261 C281 1.449 . S
C262 C261 1.258 . S
C262 C263 1.477 1_556 S
C262 H282 0.931 . S
C263 C259 1.460 . S
C263 C262 1.477 1_554 S
C263 H283 0.930 . S
C264 N260 1.362 . S
C264 C261 1.431 . S
C264 C274 1.476 . S
H265 C259 0.929 . S
C266 O257 1.250 . S
C266 O258 1.258 . S
O267 Mn252 2.162 . S
O267 C255 1.281 . S
O268 Mn252 2.297 . S
O268 C255 1.236 . S
N269 Mn253 2.282 . S
N269 C270 1.328 . S
N269 C274 1.318 . S
C270 N269 1.328 . S
C270 C271 1.457 . S
C270 H275 0.929 . S
C271 C270 1.457 . S
C271 C272 1.291 . S
C271 H284 0.931 . S
C272 C271 1.291 . S
C272 C273 1.373 . S
C272 H285 0.929 . S
C273 C272 1.373 . S
C273 C274 1.396 . S
C273 C280 1.403 . S
C274 C264 1.476 . S
C274 N269 1.318 . S
C274 C273 1.396 . S
H275 C270 0.929 . S
O276 Mn252 2.385 . S
O276 C254 1.234 . S
O277 Mn252 2.209 . S
O277 Mn253 2.215 1_554 S
O277 C254 1.283 . S
O278 Mn252 2.091 . S
O278 C256 1.243 1_554 S
O279 Mn253 2.117 . S
O279 C256 1.264 . S
C280 C273 1.403 . S
C280 C281 1.399 . S
C280 H286 0.929 . S
C281 C261 1.449 . S
C281 C280 1.399 . S
C281 H287 0.930 . S
H282 C262 0.931 . S
H283 C263 0.930 . S
H284 C271 0.931 . S
H285 C272 0.929 . S
H286 C280 0.929 . S
H287 C281 0.930 . S
Mn288 O293 2.095 . S
Mn288 O303 2.162 . S
Mn288 O304 2.297 . S
Mn288 O312 2.385 . S
Mn288 O313 2.209 . S
Mn288 O314 2.094 . S
Mn289 O294 2.121 . S
Mn289 N296 2.257 . S
Mn289 N305 2.282 1_554 S
Mn289 O313 2.215 . S
Mn289 O315 2.117 1_554 S
C290 O312 1.234 . S
C290 O313 1.283 . S
C291 O303 1.281 . S
C291 O304 1.236 . S
C292 O314 1.240 . S
C292 O315 1.264 1_554 S
O293 Mn288 2.095 . S
O293 C302 1.250 . S
O294 Mn289 2.121 . S
O294 C302 1.258 . S
C295 N296 1.326 . S
C295 C299 1.460 . S
C295 H301 0.929 . S
N296 Mn289 2.257 . S
N296 C295 1.326 . S
N296 C300 1.362 . S
C297 C298 1.258 . S
C297 C300 1.431 . S
C297 C317 1.449 1_554 S
C298 C297 1.258 . S
C298 C299 1.477 . S
C298 H318 0.931 . S
C299 C295 1.460 . S
C299 C298 1.477 . S
C299 H319 0.930 . S
C300 N296 1.362 . S
C300 C297 1.431 . S
C300 C310 1.476 1_554 S
H301 C295 0.929 . S
C302 O293 1.250 . S
C302 O294 1.258 . S
O303 Mn288 2.162 . S
O303 C291 1.281 . S
O304 Mn288 2.297 . S
O304 C291 1.236 . S
N305 Mn289 2.282 1_556 S
N305 C306 1.328 . S
N305 C310 1.318 . S
C306 N305 1.328 . S
C306 C307 1.457 . S
C306 H311 0.929 . S
C307 C306 1.457 . S
C307 C308 1.291 . S
C307 H320 0.931 . S
C308 C307 1.291 . S
C308 C309 1.373 . S
C308 H321 0.929 . S
C309 C308 1.373 . S
C309 C310 1.396 . S
C309 C316 1.403 . S
C310 C300 1.476 1_556 S
C310 N305 1.318 . S
C310 C309 1.396 . S
H311 C306 0.929 . S
O312 Mn288 2.385 . S
O312 C290 1.234 . S
O313 Mn288 2.209 . S
O313 Mn289 2.215 . S
O313 C290 1.283 . S
O314 Mn288 2.094 . S
O314 C292 1.240 . S
O315 Mn289 2.117 1_556 S
O315 C292 1.264 1_556 S
C316 C309 1.403 . S
C316 C317 1.399 . S
C316 H322 0.929 . S
C317 C297 1.449 1_556 S
C317 C316 1.399 . S
C317 H323 0.930 . S
H318 C298 0.931 . S
H319 C299 0.930 . S
H320 C307 0.931 . S
H321 C308 0.929 . S
H322 C316 0.929 . S
H323 C317 0.930 . S
Mn324 O329 2.095 . S
Mn324 O339 2.162 . S
Mn324 O340 2.297 . S
Mn324 O348 2.385 . S
Mn324 O349 2.209 . S
Mn324 O350 2.094 . S
Mn325 O330 2.121 . S
Mn325 N332 2.257 . S
Mn325 N341 2.282 . S
Mn325 O349 2.215 . S
Mn325 O351 2.117 . S
C326 O348 1.234 . S
C326 O349 1.283 . S
C327 O339 1.281 . S
C327 O340 1.236 . S
C328 O350 1.240 . S
C328 O351 1.264 . S
O329 Mn324 2.095 . S
O329 C338 1.250 . S
O330 Mn325 2.121 . S
O330 C338 1.258 . S
C331 N332 1.326 . S
C331 C335 1.460 . S
C331 H337 0.929 . S
N332 Mn325 2.257 . S
N332 C331 1.326 . S
N332 C336 1.362 . S
C333 C334 1.258 . S
C333 C336 1.431 . S
C333 C353 1.449 . S
C334 C333 1.258 . S
C334 C335 1.477 . S
C334 H354 0.931 . S
C335 C331 1.460 . S
C335 C334 1.477 . S
C335 H355 0.930 . S
C336 N332 1.362 . S
C336 C333 1.431 . S
C336 C346 1.476 . S
H337 C331 0.929 . S
C338 O329 1.250 . S
C338 O330 1.258 . S
O339 Mn324 2.162 . S
O339 C327 1.281 . S
O340 Mn324 2.297 . S
O340 C327 1.236 . S
N341 Mn325 2.282 . S
N341 C342 1.328 . S
N341 C346 1.318 . S
C342 N341 1.328 . S
C342 C343 1.457 . S
C342 H347 0.929 . S
C343 C342 1.457 . S
C343 C344 1.291 . S
C343 H356 0.931 . S
C344 C343 1.291 . S
C344 C345 1.373 . S
C344 H357 0.929 . S
C345 C344 1.373 . S
C345 C346 1.396 . S
C345 C352 1.403 . S
C346 C336 1.476 . S
C346 N341 1.318 . S
C346 C345 1.396 . S
H347 C342 0.929 . S
O348 Mn324 2.385 . S
O348 C326 1.234 . S
O349 Mn324 2.209 . S
O349 Mn325 2.215 . S
O349 C326 1.283 . S
O350 Mn324 2.094 . S
O350 C328 1.240 . S
O351 Mn325 2.117 . S
O351 C328 1.264 . S
C352 C345 1.403 . S
C352 C353 1.399 . S
C352 H358 0.929 . S
C353 C333 1.449 . S
C353 C352 1.399 . S
C353 H359 0.930 . S
H354 C334 0.931 . S
H355 C335 0.930 . S
H356 C343 0.931 . S
H357 C344 0.929 . S
H358 C352 0.929 . S
H359 C353 0.930 . S
Mn360 O365 2.095 . S
Mn360 O375 2.162 . S
Mn360 O376 2.297 . S
Mn360 O384 2.385 . S
Mn360 O385 2.209 . S
Mn360 O386 2.094 . S
Mn361 O366 2.121 . S
Mn361 N368 2.257 . S
Mn361 N377 2.282 . S
Mn361 O385 2.215 . S
Mn361 O387 2.117 . S
C362 O384 1.234 . S
C362 O385 1.283 . S
C363 O375 1.281 . S
C363 O376 1.236 . S
C364 O386 1.240 . S
C364 O387 1.264 . S
O365 Mn360 2.095 . S
O365 C374 1.250 . S
O366 Mn361 2.121 . S
O366 C374 1.258 . S
C367 N368 1.326 . S
C367 C371 1.460 . S
C367 H373 0.929 . S
N368 Mn361 2.257 . S
N368 C367 1.326 . S
N368 C372 1.362 . S
C369 C370 1.258 . S
C369 C372 1.431 . S
C369 C389 1.449 . S
C370 C369 1.258 . S
C370 C371 1.477 . S
C370 H390 0.931 . S
C371 C367 1.460 . S
C371 C370 1.477 . S
C371 H391 0.930 . S
C372 N368 1.362 . S
C372 C369 1.431 . S
C372 C382 1.476 . S
H373 C367 0.929 . S
C374 O365 1.250 . S
C374 O366 1.258 . S
O375 Mn360 2.162 . S
O375 C363 1.281 . S
O376 Mn360 2.297 . S
O376 C363 1.236 . S
N377 Mn361 2.282 . S
N377 C378 1.328 . S
N377 C382 1.318 . S
C378 N377 1.328 . S
C378 C379 1.457 . S
C378 H383 0.929 . S
C379 C378 1.457 . S
C379 C380 1.291 . S
C379 H392 0.931 . S
C380 C379 1.291 . S
C380 C381 1.373 . S
C380 H393 0.929 . S
C381 C380 1.373 . S
C381 C382 1.396 . S
C381 C388 1.403 . S
C382 C372 1.476 . S
C382 N377 1.318 . S
C382 C381 1.396 . S
H383 C378 0.929 . S
O384 Mn360 2.385 . S
O384 C362 1.234 . S
O385 Mn360 2.209 . S
O385 Mn361 2.215 . S
O385 C362 1.283 . S
O386 Mn360 2.094 . S
O386 C364 1.240 . S
O387 Mn361 2.117 . S
O387 C364 1.264 . S
C388 C381 1.403 . S
C388 C389 1.399 . S
C388 H394 0.929 . S
C389 C369 1.449 . S
C389 C388 1.399 . S
C389 H395 0.930 . S
H390 C370 0.931 . S
H391 C371 0.930 . S
H392 C379 0.931 . S
H393 C380 0.929 . S
H394 C388 0.929 . S
H395 C389 0.930 . S
Mn396 O401 2.095 . S
Mn396 O411 2.162 . S
Mn396 O412 2.297 . S
Mn396 O420 2.385 . S
Mn396 O421 2.209 . S
Mn396 O422 2.094 . S
Mn397 O402 2.121 . S
Mn397 N404 2.257 . S
Mn397 N413 2.282 . S
Mn397 O421 2.215 . S
Mn397 O423 2.117 . S
C398 O420 1.234 . S
C398 O421 1.283 . S
C399 O411 1.281 . S
C399 O412 1.236 . S
C400 O422 1.240 . S
C400 O423 1.264 . S
O401 Mn396 2.095 . S
O401 C410 1.250 . S
O402 Mn397 2.121 . S
O402 C410 1.258 . S
C403 N404 1.326 . S
C403 C407 1.460 . S
C403 H409 0.929 . S
N404 Mn397 2.257 . S
N404 C403 1.326 . S
N404 C408 1.362 . S
C405 C406 1.258 . S
C405 C408 1.431 . S
C405 C425 1.449 . S
C406 C405 1.258 . S
C406 C407 1.477 . S
C406 H426 0.931 . S
C407 C403 1.460 . S
C407 C406 1.477 . S
C407 H427 0.930 . S
C408 N404 1.362 . S
C408 C405 1.431 . S
C408 C418 1.476 . S
H409 C403 0.929 . S
C410 O401 1.250 . S
C410 O402 1.258 . S
O411 Mn396 2.162 . S
O411 C399 1.281 . S
O412 Mn396 2.297 . S
O412 C399 1.236 . S
N413 Mn397 2.282 . S
N413 C414 1.328 . S
N413 C418 1.318 . S
C414 N413 1.328 . S
C414 C415 1.457 . S
C414 H419 0.929 . S
C415 C414 1.457 . S
C415 C416 1.291 . S
C415 H428 0.931 . S
C416 C415 1.291 . S
C416 C417 1.373 . S
C416 H429 0.929 . S
C417 C416 1.373 . S
C417 C418 1.396 . S
C417 C424 1.403 . S
C418 C408 1.476 . S
C418 N413 1.318 . S
C418 C417 1.396 . S
H419 C414 0.929 . S
O420 Mn396 2.385 . S
O420 C398 1.234 . S
O421 Mn396 2.209 . S
O421 Mn397 2.215 . S
O421 C398 1.283 . S
O422 Mn396 2.094 . S
O422 C400 1.240 . S
O423 Mn397 2.117 . S
O423 C400 1.264 . S
C424 C417 1.403 . S
C424 C425 1.399 . S
C424 H430 0.929 . S
C425 C405 1.449 . S
C425 C424 1.399 . S
C425 H431 0.930 . S
H426 C406 0.931 . S
H427 C407 0.930 . S
H428 C415 0.931 . S
H429 C416 0.929 . S
H430 C424 0.929 . S
H431 C425 0.930 . S
Mn432 O437 2.095 . S
Mn432 O447 2.162 . S
Mn432 O448 2.297 . S
Mn432 O456 2.385 . S
Mn432 O457 2.209 . S
Mn432 O458 2.094 1_455 S
Mn433 O438 2.121 1_655 S
Mn433 N440 2.257 . S
Mn433 N449 2.282 . S
Mn433 O457 2.215 1_655 S
Mn433 O459 2.117 . S
C434 O456 1.234 . S
C434 O457 1.283 . S
C435 O447 1.281 . S
C435 O448 1.236 . S
C436 O458 1.240 . S
C436 O459 1.264 . S
O437 Mn432 2.095 . S
O437 C446 1.250 . S
O438 Mn433 2.121 1_455 S
O438 C446 1.258 . S
C439 N440 1.348 . S
C439 C443 1.459 1_556 S
C439 H445 0.912 1_655 S
N440 Mn433 2.257 . S
N440 C439 1.348 . S
N440 C444 1.362 . S
C441 C442 1.258 . S
C441 C444 1.431 1_554 S
C441 C461 1.449 . S
C442 C441 1.258 . S
C442 C443 1.494 . S
C442 H462 0.931 . S
C443 C439 1.459 1_554 S
C443 C442 1.494 . S
C443 H463 0.913 1_655 S
C444 N440 1.362 . S
C444 C441 1.431 1_556 S
C444 C454 1.476 . S
H445 C439 0.912 1_455 S
C446 O437 1.250 . S
C446 O438 1.258 . S
O447 Mn432 2.162 . S
O447 C435 1.281 . S
O448 Mn432 2.297 . S
O448 C435 1.236 . S
N449 Mn433 2.282 . S
N449 C450 1.328 . S
N449 C454 1.318 . S
C450 N449 1.328 . S
C450 C451 1.457 . S
C450 H455 0.929 . S
C451 C450 1.457 . S
C451 C452 1.291 . S
C451 H464 0.931 . S
C452 C451 1.291 . S
C452 C453 1.373 . S
C452 H465 0.929 . S
C453 C452 1.373 . S
C453 C454 1.396 . S
C453 C460 1.403 . S
C454 C444 1.476 . S
C454 N449 1.318 . S
C454 C453 1.396 . S
H455 C450 0.929 . S
O456 Mn432 2.385 . S
O456 C434 1.234 . S
O457 Mn432 2.209 . S
O457 Mn433 2.215 1_455 S
O457 C434 1.283 . S
O458 Mn432 2.094 1_655 S
O458 C436 1.240 . S
O459 Mn433 2.117 . S
O459 C436 1.264 . S
C460 C453 1.403 . S
C460 C461 1.399 1_556 S
C460 H466 0.926 1_556 S
C461 C441 1.449 . S
C461 C460 1.399 1_554 S
C461 H467 0.930 . S
H462 C442 0.931 . S
H463 C443 0.913 1_455 S
H464 C451 0.931 . S
H465 C452 0.929 . S
H466 C460 0.926 1_554 S
H467 C461 0.930 . S
Mn468 O473 2.095 1_455 S
Mn468 O483 2.162 . S
Mn468 O484 2.297 . S
Mn468 O492 2.385 . S
Mn468 O493 2.209 1_455 S
Mn468 O494 2.094 1_455 S
Mn469 O474 2.121 . S
Mn469 N476 2.257 . S
Mn469 N485 2.282 . S
Mn469 O493 2.215 . S
Mn469 O495 2.117 . S
C470 O492 1.234 . S
C470 O493 1.283 1_455 S
C471 O483 1.281 . S
C471 O484 1.236 . S
C472 O494 1.240 . S
C472 O495 1.264 . S
O473 Mn468 2.095 1_655 S
O473 C482 1.250 . S
O474 Mn469 2.121 . S
O474 C482 1.258 . S
C475 N476 1.326 . S
C475 C479 1.460 . S
C475 H481 0.929 . S
N476 Mn469 2.257 . S
N476 C475 1.326 . S
N476 C480 1.362 . S
C477 C478 1.258 . S
C477 C480 1.431 . S
C477 C497 1.449 . S
C478 C477 1.258 . S
C478 C479 1.477 . S
C478 H498 0.931 . S
C479 C475 1.460 . S
C479 C478 1.477 . S
C479 H499 0.930 . S
C480 N476 1.362 . S
C480 C477 1.431 . S
C480 C490 1.476 . S
H481 C475 0.929 . S
C482 O473 1.250 . S
C482 O474 1.258 . S
O483 Mn468 2.162 . S
O483 C471 1.281 . S
O484 Mn468 2.297 . S
O484 C471 1.236 . S
N485 Mn469 2.282 . S
N485 C486 1.328 . S
N485 C490 1.318 . S
C486 N485 1.328 . S
C486 C487 1.457 . S
C486 H491 0.929 . S
C487 C486 1.457 . S
C487 C488 1.291 . S
C487 H500 0.931 . S
C488 C487 1.291 . S
C488 C489 1.373 . S
C488 H501 0.929 . S
C489 C488 1.373 . S
C489 C490 1.396 . S
C489 C496 1.403 . S
C490 C480 1.476 . S
C490 N485 1.318 . S
C490 C489 1.396 . S
H491 C486 0.929 . S
O492 Mn468 2.385 . S
O492 C470 1.234 . S
O493 Mn468 2.209 1_655 S
O493 Mn469 2.215 . S
O493 C470 1.283 1_655 S
O494 Mn468 2.094 1_655 S
O494 C472 1.240 . S
O495 Mn469 2.117 . S
O495 C472 1.264 . S
C496 C489 1.403 . S
C496 C497 1.399 . S
C496 H502 0.929 . S
C497 C477 1.449 . S
C497 C496 1.399 . S
C497 H503 0.930 . S
H498 C478 0.931 . S
H499 C479 0.930 . S
H500 C487 0.931 . S
H501 C488 0.929 . S
H502 C496 0.929 . S
H503 C497 0.930 . S
Mn504 O509 2.095 . S
Mn504 O519 2.162 . S
Mn504 O520 2.297 . S
Mn504 O528 2.385 . S
Mn504 O529 2.209 . S
Mn504 O530 2.094 . S
Mn505 O510 2.121 . S
Mn505 N512 2.257 . S
Mn505 N521 2.282 . S
Mn505 O529 2.215 . S
Mn505 O531 2.117 . S
C506 O528 1.234 . S
C506 O529 1.283 . S
C507 O519 1.281 . S
C507 O520 1.236 . S
C508 O530 1.240 . S
C508 O531 1.264 . S
O509 Mn504 2.095 . S
O509 C518 1.250 . S
O510 Mn505 2.121 . S
O510 C518 1.258 . S
C511 N512 1.326 . S
C511 C515 1.460 . S
C511 H517 0.929 . S
N512 Mn505 2.257 . S
N512 C511 1.326 . S
N512 C516 1.362 . S
C513 C514 1.258 . S
C513 C516 1.431 . S
C513 C533 1.449 . S
C514 C513 1.258 . S
C514 C515 1.477 . S
C514 H534 0.931 . S
C515 C511 1.460 . S
C515 C514 1.477 . S
C515 H535 0.930 . S
C516 N512 1.362 . S
C516 C513 1.431 . S
C516 C526 1.476 . S
H517 C511 0.929 . S
C518 O509 1.250 . S
C518 O510 1.258 . S
O519 Mn504 2.162 . S
O519 C507 1.281 . S
O520 Mn504 2.297 . S
O520 C507 1.236 . S
N521 Mn505 2.282 . S
N521 C522 1.328 . S
N521 C526 1.318 . S
C522 N521 1.328 . S
C522 C523 1.457 . S
C522 H527 0.929 . S
C523 C522 1.457 . S
C523 C524 1.291 . S
C523 H536 0.931 . S
C524 C523 1.291 . S
C524 C525 1.373 . S
C524 H537 0.929 . S
C525 C524 1.373 . S
C525 C526 1.396 . S
C525 C532 1.403 . S
C526 C516 1.476 . S
C526 N521 1.318 . S
C526 C525 1.396 . S
H527 C522 0.929 . S
O528 Mn504 2.385 . S
O528 C506 1.234 . S
O529 Mn504 2.209 . S
O529 Mn505 2.215 . S
O529 C506 1.283 . S
O530 Mn504 2.094 . S
O530 C508 1.240 . S
O531 Mn505 2.117 . S
O531 C508 1.264 . S
C532 C525 1.403 . S
C532 C533 1.399 . S
C532 H538 0.929 . S
C533 C513 1.449 . S
C533 C532 1.399 . S
C533 H539 0.930 . S
H534 C514 0.931 . S
H535 C515 0.930 . S
H536 C523 0.931 . S
H537 C524 0.929 . S
H538 C532 0.929 . S
H539 C533 0.930 . S
Mn540 O545 2.095 . S
Mn540 O555 2.162 . S
Mn540 O556 2.297 . S
Mn540 O564 2.385 . S
Mn540 O565 2.209 . S
Mn540 O566 2.094 . S
Mn541 O546 2.121 . S
Mn541 N548 2.257 . S
Mn541 N557 2.282 . S
Mn541 O565 2.215 . S
Mn541 O567 2.117 . S
C542 O564 1.234 . S
C542 O565 1.283 . S
C543 O555 1.281 . S
C543 O556 1.236 . S
C544 O566 1.240 . S
C544 O567 1.264 . S
O545 Mn540 2.095 . S
O545 C554 1.250 . S
O546 Mn541 2.121 . S
O546 C554 1.258 . S
C547 N548 1.326 . S
C547 C551 1.460 . S
C547 H553 0.929 . S
N548 Mn541 2.257 . S
N548 C547 1.326 . S
N548 C552 1.362 . S
C549 C550 1.258 . S
C549 C552 1.431 . S
C549 C569 1.449 . S
C550 C549 1.258 . S
C550 C551 1.477 . S
C550 H570 0.931 . S
C551 C547 1.460 . S
C551 C550 1.477 . S
C551 H571 0.930 . S
C552 N548 1.362 . S
C552 C549 1.431 . S
C552 C562 1.476 . S
H553 C547 0.929 . S
C554 O545 1.250 . S
C554 O546 1.258 . S
O555 Mn540 2.162 . S
O555 C543 1.281 . S
O556 Mn540 2.297 . S
O556 C543 1.236 . S
N557 Mn541 2.282 . S
N557 C558 1.328 . S
N557 C562 1.318 . S
C558 N557 1.328 . S
C558 C559 1.457 . S
C558 H563 0.929 . S
C559 C558 1.457 . S
C559 C560 1.291 . S
C559 H572 0.931 . S
C560 C559 1.291 . S
C560 C561 1.373 . S
C560 H573 0.929 . S
C561 C560 1.373 . S
C561 C562 1.396 . S
C561 C568 1.403 . S
C562 C552 1.476 . S
C562 N557 1.318 . S
C562 C561 1.396 . S
H563 C558 0.929 . S
O564 Mn540 2.385 . S
O564 C542 1.234 . S
O565 Mn540 2.209 . S
O565 Mn541 2.215 . S
O565 C542 1.283 . S
O566 Mn540 2.094 . S
O566 C544 1.240 . S
O567 Mn541 2.117 . S
O567 C544 1.264 . S
C568 C561 1.403 . S
C568 C569 1.399 . S
C568 H574 0.929 . S
C569 C549 1.449 . S
C569 C568 1.399 . S
C569 H575 0.930 . S
H570 C550 0.931 . S
H571 C551 0.930 . S
H572 C559 0.931 . S
H573 C560 0.929 . S
H574 C568 0.929 . S
H575 C569 0.930 . S
Mn576 O581 2.095 . S
Mn576 O591 2.162 . S
Mn576 O592 2.297 . S
Mn576 O600 2.385 . S
Mn576 O601 2.209 . S
Mn576 O602 2.094 . S
Mn577 O582 2.121 . S
Mn577 N584 2.257 . S
Mn577 N593 2.282 . S
Mn577 O601 2.215 . S
Mn577 O603 2.117 . S
C578 O600 1.234 . S
C578 O601 1.283 . S
C579 O591 1.281 . S
C579 O592 1.236 . S
C580 O602 1.240 . S
C580 O603 1.264 . S
O581 Mn576 2.095 . S
O581 C590 1.250 . S
O582 Mn577 2.121 . S
O582 C590 1.258 . S
C583 N584 1.326 . S
C583 C587 1.460 . S
C583 H589 0.929 . S
N584 Mn577 2.257 . S
N584 C583 1.326 . S
N584 C588 1.362 . S
C585 C586 1.258 . S
C585 C588 1.431 . S
C585 C605 1.449 1_545 S
C586 C585 1.258 . S
C586 C587 1.477 . S
C586 H606 0.931 . S
C587 C583 1.460 . S
C587 C586 1.477 . S
C587 H607 0.930 . S
C588 N584 1.362 . S
C588 C585 1.431 . S
C588 C598 1.476 . S
H589 C583 0.929 . S
C590 O581 1.250 . S
C590 O582 1.258 . S
O591 Mn576 2.162 . S
O591 C579 1.281 . S
O592 Mn576 2.297 . S
O592 C579 1.236 . S
N593 Mn577 2.282 . S
N593 C594 1.328 . S
N593 C598 1.318 . S
C594 N593 1.328 . S
C594 C595 1.457 1_545 S
C594 H599 0.929 . S
C595 C594 1.457 1_565 S
C595 C596 1.291 . S
C595 H608 0.931 . S
C596 C595 1.291 . S
C596 C597 1.373 . S
C596 H609 0.929 . S
C597 C596 1.373 . S
C597 C598 1.396 1_565 S
C597 C604 1.403 . S
C598 C588 1.476 . S
C598 N593 1.318 . S
C598 C597 1.396 1_545 S
H599 C594 0.929 . S
O600 Mn576 2.385 . S
O600 C578 1.234 . S
O601 Mn576 2.209 . S
O601 Mn577 2.215 . S
O601 C578 1.283 . S
O602 Mn576 2.094 . S
O602 C580 1.240 . S
O603 Mn577 2.117 . S
O603 C580 1.264 . S
C604 C597 1.403 . S
C604 C605 1.399 . S
C604 H610 0.929 . S
C605 C585 1.449 1_565 S
C605 C604 1.399 . S
C605 H611 0.930 . S
H606 C586 0.931 . S
H607 C587 0.930 . S
H608 C595 0.931 . S
H609 C596 0.929 . S
H610 C604 0.929 . S
H611 C605 0.930 . S
Mn612 O617 2.095 . S
Mn612 O627 2.162 . S
Mn612 O628 2.297 . S
Mn612 O636 2.385 . S
Mn612 O637 2.209 . S
Mn612 O638 2.094 . S
Mn613 O618 2.121 . S
Mn613 N620 2.257 . S
Mn613 N629 2.282 . S
Mn613 O637 2.215 . S
Mn613 O639 2.117 . S
C614 O636 1.234 . S
C614 O637 1.283 . S
C615 O627 1.281 . S
C615 O628 1.236 . S
C616 O638 1.240 . S
C616 O639 1.264 . S
O617 Mn612 2.095 . S
O617 C626 1.250 . S
O618 Mn613 2.121 . S
O618 C626 1.258 . S
C619 N620 1.326 . S
C619 C623 1.460 . S
C619 H625 0.929 . S
N620 Mn613 2.257 . S
N620 C619 1.326 . S
N620 C624 1.362 . S
C621 C622 1.258 . S
C621 C624 1.431 . S
C621 C641 1.449 . S
C622 C621 1.258 . S
C622 C623 1.477 . S
C622 H642 0.931 . S
C623 C619 1.460 . S
C623 C622 1.477 . S
C623 H643 0.930 . S
C624 N620 1.362 . S
C624 C621 1.431 . S
C624 C634 1.476 . S
H625 C619 0.929 . S
C626 O617 1.250 . S
C626 O618 1.258 . S
O627 Mn612 2.162 . S
O627 C615 1.281 . S
O628 Mn612 2.297 . S
O628 C615 1.236 . S
N629 Mn613 2.282 . S
N629 C630 1.328 . S
N629 C634 1.318 . S
C630 N629 1.328 . S
C630 C631 1.457 . S
C630 H635 0.929 . S
C631 C630 1.457 . S
C631 C632 1.291 . S
C631 H644 0.931 . S
C632 C631 1.291 . S
C632 C633 1.373 . S
C632 H645 0.929 . S
C633 C632 1.373 . S
C633 C634 1.396 . S
C633 C640 1.403 . S
C634 C624 1.476 . S
C634 N629 1.318 . S
C634 C633 1.396 . S
H635 C630 0.929 . S
O636 Mn612 2.385 . S
O636 C614 1.234 . S
O637 Mn612 2.209 . S
O637 Mn613 2.215 . S
O637 C614 1.283 . S
O638 Mn612 2.094 . S
O638 C616 1.240 . S
O639 Mn613 2.117 . S
O639 C616 1.264 . S
C640 C633 1.403 . S
C640 C641 1.399 . S
C640 H646 0.929 . S
C641 C621 1.449 . S
C641 C640 1.399 . S
C641 H647 0.930 . S
H642 C622 0.931 . S
H643 C623 0.930 . S
H644 C631 0.931 . S
H645 C632 0.929 . S
H646 C640 0.929 . S
H647 C641 0.930 . S
Mn648 O653 2.095 1_545 S
Mn648 O663 2.162 . S
Mn648 O664 2.297 . S
Mn648 O672 2.385 . S
Mn648 O673 2.209 . S
Mn648 O674 2.094 . S
Mn649 O654 2.121 1_545 S
Mn649 N656 2.257 . S
Mn649 N665 2.282 . S
Mn649 O673 2.215 . S
Mn649 O675 2.117 . S
C650 O672 1.234 . S
C650 O673 1.283 . S
C651 O663 1.281 . S
C651 O664 1.236 . S
C652 O674 1.240 . S
C652 O675 1.264 . S
O653 Mn648 2.095 1_565 S
O653 C662 1.250 . S
O654 Mn649 2.121 1_565 S
O654 C662 1.258 . S
C655 N656 1.326 . S
C655 C659 1.460 . S
C655 H661 0.929 1_545 S
N656 Mn649 2.257 . S
N656 C655 1.326 . S
N656 C660 1.362 . S
C657 C658 1.258 . S
C657 C660 1.431 . S
C657 C677 1.449 . S
C658 C657 1.258 . S
C658 C659 1.477 . S
C658 H678 0.931 . S
C659 C655 1.460 . S
C659 C658 1.477 . S
C659 H679 0.930 . S
C660 N656 1.362 . S
C660 C657 1.431 . S
C660 C670 1.476 . S
H661 C655 0.929 1_565 S
C662 O653 1.250 . S
C662 O654 1.258 . S
O663 Mn648 2.162 . S
O663 C651 1.281 . S
O664 Mn648 2.297 . S
O664 C651 1.236 . S
N665 Mn649 2.282 . S
N665 C666 1.328 . S
N665 C670 1.318 . S
C666 N665 1.328 . S
C666 C667 1.457 . S
C666 H671 0.929 . S
C667 C666 1.457 . S
C667 C668 1.291 . S
C667 H680 0.931 . S
C668 C667 1.291 . S
C668 C669 1.373 . S
C668 H681 0.929 . S
C669 C668 1.373 . S
C669 C670 1.396 . S
C669 C676 1.403 . S
C670 C660 1.476 . S
C670 N665 1.318 . S
C670 C669 1.396 . S
H671 C666 0.929 . S
O672 Mn648 2.385 . S
O672 C650 1.234 . S
O673 Mn648 2.209 . S
O673 Mn649 2.215 . S
O673 C650 1.283 . S
O674 Mn648 2.094 . S
O674 C652 1.240 . S
O675 Mn649 2.117 . S
O675 C652 1.264 . S
C676 C669 1.403 . S
C676 C677 1.399 . S
C676 H682 0.929 . S
C677 C657 1.449 . S
C677 C676 1.399 . S
C677 H683 0.930 . S
H678 C658 0.931 . S
H679 C659 0.930 . S
H680 C667 0.931 . S
H681 C668 0.929 . S
H682 C676 0.929 . S
H683 C677 0.930 . S
Mn684 O689 2.095 . S
Mn684 O699 2.162 . S
Mn684 O700 2.297 . S
Mn684 O708 2.385 . S
Mn684 O709 2.209 . S
Mn684 O710 2.094 1_554 S
Mn685 O690 2.121 1_556 S
Mn685 N692 2.257 . S
Mn685 N701 2.282 . S
Mn685 O709 2.215 1_556 S
Mn685 O711 2.117 . S
C686 O708 1.234 . S
C686 O709 1.283 . S
C687 O699 1.281 . S
C687 O700 1.236 . S
C688 O710 1.240 . S
C688 O711 1.264 . S
O689 Mn684 2.095 . S
O689 C698 1.250 . S
O690 Mn685 2.121 1_554 S
O690 C698 1.258 . S
C691 N692 1.311 1_544 S
C691 C695 1.461 . S
C691 H697 0.931 1_545 S
N692 Mn685 2.257 . S
N692 C691 1.311 1_566 S
N692 C696 1.362 . S
C693 C694 1.258 . S
C693 C696 1.431 1_545 S
C693 C713 1.449 . S
C694 C693 1.258 . S
C694 C695 1.477 1_556 S
C694 H714 0.931 . S
C695 C691 1.461 . S
C695 C694 1.477 1_554 S
C695 H715 0.930 . S
C696 N692 1.362 . S
C696 C693 1.431 1_565 S
C696 C706 1.476 . S
H697 C691 0.931 1_565 S
C698 O689 1.250 . S
C698 O690 1.258 . S
O699 Mn684 2.162 . S
O699 C687 1.281 . S
O700 Mn684 2.297 . S
O700 C687 1.236 . S
N701 Mn685 2.282 . S
N701 C702 1.328 . S
N701 C706 1.318 . S
C702 N701 1.328 . S
C702 C703 1.457 . S
C702 H707 0.929 . S
C703 C702 1.457 . S
C703 C704 1.291 . S
C703 H716 0.931 . S
C704 C703 1.291 . S
C704 C705 1.373 . S
C704 H717 0.929 . S
C705 C704 1.373 . S
C705 C706 1.396 . S
C705 C712 1.403 1_565 S
C706 C696 1.476 . S
C706 N701 1.318 . S
C706 C705 1.396 . S
H707 C702 0.929 . S
O708 Mn684 2.385 . S
O708 C686 1.234 . S
O709 Mn684 2.209 . S
O709 Mn685 2.215 1_554 S
O709 C686 1.283 . S
O710 Mn684 2.094 1_556 S
O710 C688 1.240 . S
O711 Mn685 2.117 . S
O711 C688 1.264 . S
C712 C705 1.403 1_545 S
C712 C713 1.399 . S
C712 H718 0.929 . S
C713 C693 1.449 . S
C713 C712 1.399 . S
C713 H719 0.930 . S
H714 C694 0.931 . S
H715 C695 0.930 . S
H716 C703 0.931 . S
H717 C704 0.929 . S
H718 C712 0.929 . S
H719 C713 0.930 . S
Mn720 O725 2.095 1_554 S
Mn720 O735 2.162 . S
Mn720 O736 2.297 . S
Mn720 O744 2.385 . S
Mn720 O745 2.209 1_554 S
Mn720 O746 2.094 1_554 S
Mn721 O726 2.121 . S
Mn721 N728 2.257 . S
Mn721 N737 2.282 . S
Mn721 O745 2.215 . S
Mn721 O747 2.117 . S
C722 O744 1.234 . S
C722 O745 1.283 1_554 S
C723 O735 1.281 . S
C723 O736 1.236 . S
C724 O746 1.240 . S
C724 O747 1.264 . S
O725 Mn720 2.095 1_556 S
O725 C734 1.250 . S
O726 Mn721 2.121 . S
O726 C734 1.258 . S
C727 N728 1.326 . S
C727 C731 1.460 . S
C727 H733 0.929 . S
N728 Mn721 2.257 . S
N728 C727 1.326 . S
N728 C732 1.362 . S
C729 C730 1.258 . S
C729 C732 1.431 . S
C729 C749 1.449 . S
C730 C729 1.258 . S
C730 C731 1.477 . S
C730 H750 0.931 . S
C731 C727 1.460 . S
C731 C730 1.477 . S
C731 H751 0.930 . S
C732 N728 1.362 . S
C732 C729 1.431 . S
C732 C742 1.476 . S
H733 C727 0.929 . S
C734 O725 1.250 . S
C734 O726 1.258 . S
O735 Mn720 2.162 . S
O735 C723 1.281 . S
O736 Mn720 2.297 . S
O736 C723 1.236 . S
N737 Mn721 2.282 . S
N737 C738 1.328 . S
N737 C742 1.318 . S
C738 N737 1.328 . S
C738 C739 1.457 . S
C738 H743 0.929 . S
C739 C738 1.457 . S
C739 C740 1.291 . S
C739 H752 0.931 . S
C740 C739 1.291 . S
C740 C741 1.373 . S
C740 H753 0.929 . S
C741 C740 1.373 . S
C741 C742 1.396 . S
C741 C748 1.403 . S
C742 C732 1.476 . S
C742 N737 1.318 . S
C742 C741 1.396 . S
H743 C738 0.929 . S
O744 Mn720 2.385 . S
O744 C722 1.234 . S
O745 Mn720 2.209 1_556 S
O745 Mn721 2.215 . S
O745 C722 1.283 1_556 S
O746 Mn720 2.094 1_556 S
O746 C724 1.240 . S
O747 Mn721 2.117 . S
O747 C724 1.264 . S
C748 C741 1.403 . S
C748 C749 1.399 . S
C748 H754 0.929 . S
C749 C729 1.449 . S
C749 C748 1.399 . S
C749 H755 0.930 . S
H750 C730 0.931 . S
H751 C731 0.930 . S
H752 C739 0.931 . S
H753 C740 0.929 . S
H754 C748 0.929 . S
H755 C749 0.930 . S
Mn756 O761 2.095 . S
Mn756 O771 2.162 . S
Mn756 O772 2.297 . S
Mn756 O780 2.385 . S
Mn756 O781 2.209 . S
Mn756 O782 2.094 . S
Mn757 O762 2.121 . S
Mn757 N764 2.257 . S
Mn757 N773 2.282 . S
Mn757 O781 2.215 . S
Mn757 O783 2.117 . S
C758 O780 1.234 . S
C758 O781 1.283 . S
C759 O771 1.281 . S
C759 O772 1.236 . S
C760 O782 1.240 . S
C760 O783 1.264 . S
O761 Mn756 2.095 . S
O761 C770 1.250 . S
O762 Mn757 2.121 . S
O762 C770 1.258 . S
C763 N764 1.326 . S
C763 C767 1.460 . S
C763 H769 0.929 . S
N764 Mn757 2.257 . S
N764 C763 1.326 . S
N764 C768 1.362 . S
C765 C766 1.258 . S
C765 C768 1.431 . S
C765 C785 1.449 . S
C766 C765 1.258 . S
C766 C767 1.477 . S
C766 H786 0.931 . S
C767 C763 1.460 . S
C767 C766 1.477 . S
C767 H787 0.930 . S
C768 N764 1.362 . S
C768 C765 1.431 . S
C768 C778 1.476 . S
H769 C763 0.929 . S
C770 O761 1.250 . S
C770 O762 1.258 . S
O771 Mn756 2.162 . S
O771 C759 1.281 . S
O772 Mn756 2.297 . S
O772 C759 1.236 . S
N773 Mn757 2.282 . S
N773 C774 1.328 . S
N773 C778 1.318 . S
C774 N773 1.328 . S
C774 C775 1.457 . S
C774 H779 0.929 . S
C775 C774 1.457 . S
C775 C776 1.291 . S
C775 H788 0.931 . S
C776 C775 1.291 . S
C776 C777 1.373 . S
C776 H789 0.929 . S
C777 C776 1.373 . S
C777 C778 1.396 . S
C777 C784 1.403 . S
C778 C768 1.476 . S
C778 N773 1.318 . S
C778 C777 1.396 . S
H779 C774 0.929 . S
O780 Mn756 2.385 . S
O780 C758 1.234 . S
O781 Mn756 2.209 . S
O781 Mn757 2.215 . S
O781 C758 1.283 . S
O782 Mn756 2.094 . S
O782 C760 1.240 . S
O783 Mn757 2.117 . S
O783 C760 1.264 . S
C784 C777 1.403 . S
C784 C785 1.399 . S
C784 H790 0.929 . S
C785 C765 1.449 . S
C785 C784 1.399 . S
C785 H791 0.930 . S
H786 C766 0.931 . S
H787 C767 0.930 . S
H788 C775 0.931 . S
H789 C776 0.929 . S
H790 C784 0.929 . S
H791 C785 0.930 . S
Mn792 O797 2.095 . S
Mn792 O807 2.162 . S
Mn792 O808 2.297 . S
Mn792 O816 2.385 . S
Mn792 O817 2.209 . S
Mn792 O818 2.094 . S
Mn793 O798 2.121 . S
Mn793 N800 2.257 . S
Mn793 N809 2.282 . S
Mn793 O817 2.215 . S
Mn793 O819 2.117 . S
C794 O816 1.234 . S
C794 O817 1.283 . S
C795 O807 1.281 . S
C795 O808 1.236 . S
C796 O818 1.240 . S
C796 O819 1.264 . S
O797 Mn792 2.095 . S
O797 C806 1.250 . S
O798 Mn793 2.121 . S
O798 C806 1.258 . S
C799 N800 1.326 . S
C799 C803 1.460 . S
C799 H805 0.929 . S
N800 Mn793 2.257 . S
N800 C799 1.326 . S
N800 C804 1.362 . S
C801 C802 1.258 . S
C801 C804 1.431 . S
C801 C821 1.449 . S
C802 C801 1.258 . S
C802 C803 1.477 . S
C802 H822 0.931 . S
C803 C799 1.460 . S
C803 C802 1.477 . S
C803 H823 0.930 . S
C804 N800 1.362 . S
C804 C801 1.431 . S
C804 C814 1.476 . S
H805 C799 0.929 . S
C806 O797 1.250 . S
C806 O798 1.258 . S
O807 Mn792 2.162 . S
O807 C795 1.281 . S
O808 Mn792 2.297 . S
O808 C795 1.236 . S
N809 Mn793 2.282 . S
N809 C810 1.328 . S
N809 C814 1.318 . S
C810 N809 1.328 . S
C810 C811 1.457 . S
C810 H815 0.929 . S
C811 C810 1.457 . S
C811 C812 1.291 . S
C811 H824 0.931 . S
C812 C811 1.291 . S
C812 C813 1.373 . S
C812 H825 0.929 . S
C813 C812 1.373 . S
C813 C814 1.396 . S
C813 C820 1.403 . S
C814 C804 1.476 . S
C814 N809 1.318 . S
C814 C813 1.396 . S
H815 C810 0.929 . S
O816 Mn792 2.385 . S
O816 C794 1.234 . S
O817 Mn792 2.209 . S
O817 Mn793 2.215 . S
O817 C794 1.283 . S
O818 Mn792 2.094 . S
O818 C796 1.240 . S
O819 Mn793 2.117 . S
O819 C796 1.264 . S
C820 C813 1.403 . S
C820 C821 1.399 . S
C820 H826 0.929 . S
C821 C801 1.449 . S
C821 C820 1.399 . S
C821 H827 0.930 . S
H822 C802 0.931 . S
H823 C803 0.930 . S
H824 C811 0.931 . S
H825 C812 0.929 . S
H826 C820 0.929 . S
H827 C821 0.930 . S
Mn828 O833 2.095 . S
Mn828 O843 2.162 . S
Mn828 O844 2.297 . S
Mn828 O852 2.385 . S
Mn828 O853 2.209 . S
Mn828 O854 2.094 . S
Mn829 O834 2.121 . S
Mn829 N836 2.257 . S
Mn829 N845 2.282 . S
Mn829 O853 2.215 . S
Mn829 O855 2.117 . S
C830 O852 1.234 . S
C830 O853 1.283 . S
C831 O843 1.281 . S
C831 O844 1.236 . S
C832 O854 1.240 . S
C832 O855 1.264 . S
O833 Mn828 2.095 . S
O833 C842 1.250 . S
O834 Mn829 2.121 . S
O834 C842 1.258 . S
C835 N836 1.326 . S
C835 C839 1.460 . S
C835 H841 0.929 . S
N836 Mn829 2.257 . S
N836 C835 1.326 . S
N836 C840 1.362 . S
C837 C838 1.258 . S
C837 C840 1.431 . S
C837 C857 1.449 . S
C838 C837 1.258 . S
C838 C839 1.477 . S
C838 H858 0.931 . S
C839 C835 1.460 . S
C839 C838 1.477 . S
C839 H859 0.930 . S
C840 N836 1.362 . S
C840 C837 1.431 . S
C840 C850 1.476 . S
H841 C835 0.929 . S
C842 O833 1.250 . S
C842 O834 1.258 . S
O843 Mn828 2.162 . S
O843 C831 1.281 . S
O844 Mn828 2.297 . S
O844 C831 1.236 . S
N845 Mn829 2.282 . S
N845 C846 1.328 . S
N845 C850 1.318 . S
C846 N845 1.328 . S
C846 C847 1.457 . S
C846 H851 0.929 . S
C847 C846 1.457 . S
C847 C848 1.291 . S
C847 H860 0.931 . S
C848 C847 1.291 . S
C848 C849 1.373 . S
C848 H861 0.929 . S
C849 C848 1.373 . S
C849 C850 1.396 . S
C849 C856 1.403 . S
C850 C840 1.476 . S
C850 N845 1.318 . S
C850 C849 1.396 . S
H851 C846 0.929 . S
O852 Mn828 2.385 . S
O852 C830 1.234 . S
O853 Mn828 2.209 . S
O853 Mn829 2.215 . S
O853 C830 1.283 . S
O854 Mn828 2.094 . S
O854 C832 1.240 . S
O855 Mn829 2.117 . S
O855 C832 1.264 . S
C856 C849 1.403 . S
C856 C857 1.399 . S
C856 H862 0.929 . S
C857 C837 1.449 . S
C857 C856 1.399 . S
C857 H863 0.930 . S
H858 C838 0.931 . S
H859 C839 0.930 . S
H860 C847 0.931 . S
H861 C848 0.929 . S
H862 C856 0.929 . S
H863 C857 0.930 . S
Co864 N869 2.057 1_554 S
Co864 O881 2.021 1_554 S
Co864 O884 2.062 1_455 S
Co864 O888 2.117 . S
Co864 O889 2.020 . S
C865 O885 1.259 . S
C865 O888 1.258 . S
Co866 N875 2.057 . S
Co866 O882 2.117 1_545 S
Co866 O883 2.020 1_455 S
Co866 O885 2.021 . S
Co866 O890 2.062 . S
C867 N869 1.316 . S
C867 N870 1.347 1_455 S
C867 H872 0.931 . S
C868 N869 1.372 1_655 S
C868 C871 1.355 . S
C868 H873 0.928 1_655 S
N869 Co864 2.057 1_556 S
N869 C867 1.316 . S
N869 C868 1.372 1_455 S
N870 C867 1.347 1_655 S
N870 C871 1.373 . S
C871 C868 1.355 . S
C871 N870 1.373 . S
C871 H892 0.931 . S
H872 C867 0.931 . S
H873 C868 0.928 1_455 S
C874 O881 1.259 1_564 S
C874 O882 1.258 . S
N875 Co866 2.057 . S
N875 C876 1.316 . S
N875 C877 1.375 1_545 S
C876 N875 1.316 . S
C876 N878 1.347 . S
C876 H887 0.931 . S
C877 N875 1.375 1_565 S
C877 C879 1.350 . S
C877 H886 0.930 . S
N878 C876 1.347 . S
N878 C879 1.373 1_545 S
C879 C877 1.350 . S
C879 N878 1.373 1_565 S
C879 H893 0.931 . S
C880 O883 1.256 . S
C880 O884 1.255 . S
O881 Co864 2.021 1_556 S
O881 C874 1.259 1_546 S
O882 Co866 2.117 1_565 S
O882 C874 1.258 . S
O883 Co866 2.020 1_655 S
O883 C880 1.256 . S
O884 Co864 2.062 1_655 S
O884 C880 1.255 . S
O885 C865 1.259 . S
O885 Co866 2.021 . S
H886 C877 0.930 . S
H887 C876 0.931 . S
O888 Co864 2.117 . S
O888 C865 1.258 . S
O889 Co864 2.020 . S
O889 C891 1.256 . S
O890 Co866 2.062 . S
O890 C891 1.255 . S
C891 O889 1.256 . S
C891 O890 1.255 . S
H892 C871 0.931 . S
H893 C879 0.931 . S
Co894 N899 2.057 . S
Co894 O911 2.021 . S
Co894 O914 2.062 . S
Co894 O918 2.117 . S
Co894 O919 2.020 . S
C895 O915 1.259 . S
C895 O918 1.258 . S
Co896 N905 2.057 . S
Co896 O912 2.117 . S
Co896 O913 2.020 . S
Co896 O915 2.021 . S
Co896 O920 2.062 . S
C897 N899 1.316 . S
C897 N900 1.347 . S
C897 H902 0.931 . S
C898 N899 1.375 . S
C898 C901 1.350 . S
C898 H903 0.930 . S
N899 Co894 2.057 . S
N899 C897 1.316 . S
N899 C898 1.375 . S
N900 C897 1.347 . S
N900 C901 1.373 . S
C901 C898 1.350 . S
C901 N900 1.373 . S
C901 H922 0.931 . S
H902 C897 0.931 . S
H903 C898 0.930 . S
C904 O911 1.259 . S
C904 O912 1.258 . S
N905 Co896 2.057 . S
N905 C906 1.316 . S
N905 C907 1.375 . S
C906 N905 1.316 . S
C906 N908 1.347 . S
C906 H917 0.931 . S
C907 N905 1.375 . S
C907 C909 1.350 . S
C907 H916 0.930 . S
N908 C906 1.347 . S
N908 C909 1.373 . S
C909 C907 1.350 . S
C909 N908 1.373 . S
C909 H923 0.931 . S
C910 O913 1.256 . S
C910 O914 1.255 . S
O911 Co894 2.021 . S
O911 C904 1.259 . S
O912 Co896 2.117 . S
O912 C904 1.258 . S
O913 Co896 2.020 . S
O913 C910 1.256 . S
O914 Co894 2.062 . S
O914 C910 1.255 . S
O915 C895 1.259 . S
O915 Co896 2.021 . S
H916 C907 0.930 . S
H917 C906 0.931 . S
O918 Co894 2.117 . S
O918 C895 1.258 . S
O919 Co894 2.020 . S
O919 C921 1.256 . S
O920 Co896 2.062 . S
O920 C921 1.255 . S
C921 O919 1.256 . S
C921 O920 1.255 . S
H922 C901 0.931 . S
H923 C909 0.931 . S
Co924 N929 2.057 . S
Co924 O941 2.021 1_545 S
Co924 O944 2.062 . S
Co924 O948 2.117 . S
Co924 O949 2.020 . S
C925 O945 1.259 . S
C925 O948 1.258 . S
Co926 N935 2.057 . S
Co926 O942 2.117 . S
Co926 O943 2.020 . S
Co926 O945 2.021 . S
Co926 O950 2.062 . S
C927 N929 1.316 1_565 S
C927 N930 1.347 1_565 S
C927 H932 0.931 . S
C928 N929 1.375 . S
C928 C931 1.350 . S
C928 H933 0.930 . S
N929 Co924 2.057 . S
N929 C927 1.316 1_545 S
N929 C928 1.375 . S
N930 C927 1.347 1_545 S
N930 C931 1.373 . S
C931 C928 1.350 . S
C931 N930 1.373 . S
C931 H952 0.931 . S
H932 C927 0.931 . S
H933 C928 0.930 . S
C934 O941 1.259 . S
C934 O942 1.258 1_565 S
N935 Co926 2.057 . S
N935 C936 1.316 . S
N935 C937 1.375 . S
C936 N935 1.316 . S
C936 N938 1.347 . S
C936 H947 0.931 . S
C937 N935 1.375 . S
C937 C939 1.350 . S
C937 H946 0.930 . S
N938 C936 1.347 . S
N938 C939 1.373 . S
C939 C937 1.350 . S
C939 N938 1.373 . S
C939 H953 0.931 . S
C940 O943 1.256 . S
C940 O944 1.255 . S
O941 Co924 2.021 1_565 S
O941 C934 1.259 . S
O942 Co926 2.117 . S
O942 C934 1.258 1_545 S
O943 Co926 2.020 . S
O943 C940 1.256 . S
O944 Co924 2.062 . S
O944 C940 1.255 . S
O945 C925 1.259 . S
O945 Co926 2.021 . S
H946 C937 0.930 . S
H947 C936 0.931 . S
O948 Co924 2.117 . S
O948 C925 1.258 . S
O949 Co924 2.020 . S
O949 C951 1.256 . S
O950 Co926 2.062 . S
O950 C951 1.255 . S
C951 O949 1.256 . S
C951 O950 1.255 . S
H952 C931 0.931 . S
H953 C939 0.931 . S
Co954 N959 2.057 . S
Co954 O971 2.021 . S
Co954 O974 2.062 . S
Co954 O978 2.117 . S
Co954 O979 2.020 . S
C955 O975 1.259 . S
C955 O978 1.258 . S
Co956 N965 2.057 . S
Co956 O972 2.117 . S
Co956 O973 2.020 . S
Co956 O975 2.021 . S
Co956 O980 2.062 . S
C957 N959 1.316 . S
C957 N960 1.347 . S
C957 H962 0.931 . S
C958 N959 1.375 . S
C958 C961 1.350 . S
C958 H963 0.930 . S
N959 Co954 2.057 . S
N959 C957 1.316 . S
N959 C958 1.375 . S
N960 C957 1.347 . S
N960 C961 1.373 . S
C961 C958 1.350 . S
C961 N960 1.373 . S
C961 H982 0.931 . S
H962 C957 0.931 . S
H963 C958 0.930 . S
C964 O971 1.259 . S
C964 O972 1.258 . S
N965 Co956 2.057 . S
N965 C966 1.316 . S
N965 C967 1.375 . S
C966 N965 1.316 . S
C966 N968 1.347 . S
C966 H977 0.931 . S
C967 N965 1.375 . S
C967 C969 1.350 . S
C967 H976 0.930 . S
N968 C966 1.347 . S
N968 C969 1.373 . S
C969 C967 1.350 . S
C969 N968 1.373 . S
C969 H983 0.931 . S
C970 O973 1.256 . S
C970 O974 1.255 . S
O971 Co954 2.021 . S
O971 C964 1.259 . S
O972 Co956 2.117 . S
O972 C964 1.258 . S
O973 Co956 2.020 . S
O973 C970 1.256 . S
O974 Co954 2.062 . S
O974 C970 1.255 . S
O975 C955 1.259 . S
O975 Co956 2.021 . S
H976 C967 0.930 . S
H977 C966 0.931 . S
O978 Co954 2.117 . S
O978 C955 1.258 . S
O979 Co954 2.020 . S
O979 C981 1.256 . S
O980 Co956 2.062 . S
O980 C981 1.255 . S
C981 O979 1.256 . S
C981 O980 1.255 . S
H982 C961 0.931 . S
H983 C969 0.931 . S
Co984 N989 2.057 1_545 S
Co984 O1001 2.021 . S
Co984 O1004 2.062 . S
Co984 O1008 2.117 . S
Co984 O1009 2.020 1_455 S
C985 O1005 1.259 . S
C985 O1008 1.258 . S
Co986 N995 2.057 . S
Co986 O1002 2.117 . S
Co986 O1003 2.020 . S
Co986 O1005 2.021 . S
Co986 O1010 2.062 1_455 S
C987 N989 1.316 . S
C987 N990 1.347 . S
C987 H992 0.931 . S
C988 N989 1.375 1_655 S
C988 C991 1.350 . S
C988 H993 0.930 . S
N989 Co984 2.057 1_565 S
N989 C987 1.316 . S
N989 C988 1.375 1_455 S
N990 C987 1.347 . S
N990 C991 1.373 1_455 S
C991 C988 1.350 . S
C991 N990 1.373 1_655 S
C991 H1012 0.931 . S
H992 C987 0.931 . S
H993 C988 0.930 . S
C994 O1001 1.259 . S
C994 O1002 1.258 . S
N995 Co986 2.057 . S
N995 C996 1.316 . S
N995 C997 1.375 . S
C996 N995 1.316 . S
C996 N998 1.347 . S
C996 H1007 0.931 . S
C997 N995 1.375 . S
C997 C999 1.350 . S
C997 H1006 0.930 . S
N998 C996 1.347 . S
N998 C999 1.373 . S
C999 C997 1.350 . S
C999 N998 1.373 . S
C999 H1013 0.931 . S
C1000 O1003 1.256 . S
C1000 O1004 1.255 . S
O1001 Co984 2.021 . S
O1001 C994 1.259 . S
O1002 Co986 2.117 . S
O1002 C994 1.258 . S
O1003 Co986 2.020 . S
O1003 C1000 1.256 . S
O1004 Co984 2.062 . S
O1004 C1000 1.255 . S
O1005 C985 1.259 . S
O1005 Co986 2.021 . S
H1006 C997 0.930 . S
H1007 C996 0.931 . S
O1008 Co984 2.117 . S
O1008 C985 1.258 . S
O1009 Co984 2.020 1_655 S
O1009 C1011 1.256 . S
O1010 Co986 2.062 1_655 S
O1010 C1011 1.255 . S
C1011 O1009 1.256 . S
C1011 O1010 1.255 . S
H1012 C991 0.931 . S
H1013 C999 0.931 . S
Co1014 N1019 2.057 . S
Co1014 O1031 2.021 . S
Co1014 O1034 2.062 . S
Co1014 O1038 2.117 . S
Co1014 O1039 2.020 . S
C1015 O1035 1.259 . S
C1015 O1038 1.258 . S
Co1016 N1025 2.057 . S
Co1016 O1032 2.117 . S
Co1016 O1033 2.020 . S
Co1016 O1035 2.021 . S
Co1016 O1040 2.062 . S
C1017 N1019 1.316 . S
C1017 N1020 1.347 . S
C1017 H1022 0.931 . S
C1018 N1019 1.375 . S
C1018 C1021 1.350 . S
C1018 H1023 0.930 . S
N1019 Co1014 2.057 . S
N1019 C1017 1.316 . S
N1019 C1018 1.375 . S
N1020 C1017 1.347 . S
N1020 C1021 1.373 . S
C1021 C1018 1.350 . S
C1021 N1020 1.373 . S
C1021 H1042 0.931 . S
H1022 C1017 0.931 . S
H1023 C1018 0.930 . S
C1024 O1031 1.259 . S
C1024 O1032 1.258 . S
N1025 Co1016 2.057 . S
N1025 C1026 1.316 . S
N1025 C1027 1.375 . S
C1026 N1025 1.316 . S
C1026 N1028 1.347 . S
C1026 H1037 0.931 . S
C1027 N1025 1.375 . S
C1027 C1029 1.350 . S
C1027 H1036 0.930 . S
N1028 C1026 1.347 . S
N1028 C1029 1.373 . S
C1029 C1027 1.350 . S
C1029 N1028 1.373 . S
C1029 H1043 0.931 . S
C1030 O1033 1.256 . S
C1030 O1034 1.255 . S
O1031 Co1014 2.021 . S
O1031 C1024 1.259 . S
O1032 Co1016 2.117 . S
O1032 C1024 1.258 . S
O1033 Co1016 2.020 . S
O1033 C1030 1.256 . S
O1034 Co1014 2.062 . S
O1034 C1030 1.255 . S
O1035 C1015 1.259 . S
O1035 Co1016 2.021 . S
H1036 C1027 0.930 . S
H1037 C1026 0.931 . S
O1038 Co1014 2.117 . S
O1038 C1015 1.258 . S
O1039 Co1014 2.020 . S
O1039 C1041 1.256 . S
O1040 Co1016 2.062 . S
O1040 C1041 1.255 . S
C1041 O1039 1.256 . S
C1041 O1040 1.255 . S
H1042 C1021 0.931 . S
H1043 C1029 0.931 . S
Co1044 N1049 2.057 1_554 S
Co1044 O1061 2.021 . S
Co1044 O1064 2.062 1_554 S
Co1044 O1068 2.117 . S
Co1044 O1069 2.020 1_545 S
C1045 O1065 1.259 . S
C1045 O1068 1.258 . S
Co1046 N1055 2.057 . S
Co1046 O1062 2.117 . S
Co1046 O1063 2.020 . S
Co1046 O1065 2.021 . S
Co1046 O1070 2.062 . S
C1047 N1049 1.316 . S
C1047 N1050 1.347 . S
C1047 H1052 0.931 . S
C1048 N1049 1.375 . S
C1048 C1051 1.350 . S
C1048 H1053 0.915 1_545 S
N1049 Co1044 2.057 1_556 S
N1049 C1047 1.316 . S
N1049 C1048 1.375 . S
N1050 C1047 1.347 . S
N1050 C1051 1.373 . S
C1051 C1048 1.350 . S
C1051 N1050 1.373 . S
C1051 H1072 0.931 1_545 S
H1052 C1047 0.931 . S
H1053 C1048 0.915 1_565 S
C1054 O1061 1.259 . S
C1054 O1062 1.258 . S
N1055 Co1046 2.057 . S
N1055 C1056 1.316 . S
N1055 C1057 1.375 . S
C1056 N1055 1.316 . S
C1056 N1058 1.347 . S
C1056 H1067 0.931 . S
C1057 N1055 1.375 . S
C1057 C1059 1.350 . S
C1057 H1066 0.930 . S
N1058 C1056 1.347 . S
N1058 C1059 1.373 . S
C1059 C1057 1.350 . S
C1059 N1058 1.373 . S
C1059 H1073 0.931 . S
C1060 O1063 1.256 . S
C1060 O1064 1.255 1_554 S
O1061 Co1044 2.021 . S
O1061 C1054 1.259 . S
O1062 Co1046 2.117 . S
O1062 C1054 1.258 . S
O1063 Co1046 2.020 . S
O1063 C1060 1.256 . S
O1064 Co1044 2.062 1_556 S
O1064 C1060 1.255 1_556 S
O1065 C1045 1.259 . S
O1065 Co1046 2.021 . S
H1066 C1057 0.930 . S
H1067 C1056 0.931 . S
O1068 Co1044 2.117 . S
O1068 C1045 1.258 . S
O1069 Co1044 2.020 1_565 S
O1069 C1071 1.256 . S
O1070 Co1046 2.062 . S
O1070 C1071 1.255 1_545 S
C1071 O1069 1.256 . S
C1071 O1070 1.255 1_565 S
H1072 C1051 0.931 1_565 S
H1073 C1059 0.931 . S
Co1074 N1079 2.057 . S
Co1074 O1091 2.021 . S
Co1074 O1094 2.062 . S
Co1074 O1098 2.117 . S
Co1074 O1099 2.020 . S
C1075 O1095 1.259 . S
C1075 O1098 1.258 . S
Co1076 N1085 2.057 . S
Co1076 O1092 2.117 . S
Co1076 O1093 2.020 . S
Co1076 O1095 2.021 . S
Co1076 O1100 2.062 . S
C1077 N1079 1.316 . S
C1077 N1080 1.347 . S
C1077 H1082 0.931 . S
C1078 N1079 1.375 . S
C1078 C1081 1.350 . S
C1078 H1083 0.930 . S
N1079 Co1074 2.057 . S
N1079 C1077 1.316 . S
N1079 C1078 1.375 . S
N1080 C1077 1.347 . S
N1080 C1081 1.373 . S
C1081 C1078 1.350 . S
C1081 N1080 1.373 . S
C1081 H1102 0.931 . S
H1082 C1077 0.931 . S
H1083 C1078 0.930 . S
C1084 O1091 1.259 . S
C1084 O1092 1.258 . S
N1085 Co1076 2.057 . S
N1085 C1086 1.316 . S
N1085 C1087 1.375 . S
C1086 N1085 1.316 . S
C1086 N1088 1.347 . S
C1086 H1097 0.931 . S
C1087 N1085 1.375 . S
C1087 C1089 1.350 . S
C1087 H1096 0.930 . S
N1088 C1086 1.347 . S
N1088 C1089 1.373 . S
C1089 C1087 1.350 . S
C1089 N1088 1.373 . S
C1089 H1103 0.931 . S
C1090 O1093 1.256 . S
C1090 O1094 1.255 . S
O1091 Co1074 2.021 . S
O1091 C1084 1.259 . S
O1092 Co1076 2.117 . S
O1092 C1084 1.258 . S
O1093 Co1076 2.020 . S
O1093 C1090 1.256 . S
O1094 Co1074 2.062 . S
O1094 C1090 1.255 . S
O1095 C1075 1.259 . S
O1095 Co1076 2.021 . S
H1096 C1087 0.930 . S
H1097 C1086 0.931 . S
O1098 Co1074 2.117 . S
O1098 C1075 1.258 . S
O1099 Co1074 2.020 . S
O1099 C1101 1.256 . S
O1100 Co1076 2.062 . S
O1100 C1101 1.255 . S
C1101 O1099 1.256 . S
C1101 O1100 1.255 . S
H1102 C1081 0.931 . S
H1103 C1089 0.931 . S
Co1104 N1109 2.057 . S
Co1104 O1121 2.021 1_554 S
Co1104 O1124 2.062 . S
Co1104 O1128 2.117 . S
Co1104 O1129 2.020 . S
C1105 O1125 1.259 . S
C1105 O1128 1.258 . S
Co1106 N1115 2.057 . S
Co1106 O1122 2.117 1_554 S
Co1106 O1123 2.020 . S
Co1106 O1125 2.021 . S
Co1106 O1130 2.062 . S
C1107 N1109 1.316 1_556 S
C1107 N1110 1.347 . S
C1107 H1112 0.931 . S
C1108 N1109 1.375 . S
C1108 C1111 1.350 . S
C1108 H1113 0.930 . S
N1109 Co1104 2.057 . S
N1109 C1107 1.316 1_554 S
N1109 C1108 1.375 . S
N1110 C1107 1.347 . S
N1110 C1111 1.372 1_556 S
C1111 C1108 1.350 . S
C1111 N1110 1.372 1_554 S
C1111 H1132 0.931 . S
H1112 C1107 0.931 . S
H1113 C1108 0.930 . S
C1114 O1121 1.259 . S
C1114 O1122 1.258 . S
N1115 Co1106 2.057 . S
N1115 C1116 1.316 . S
N1115 C1117 1.375 . S
C1116 N1115 1.316 . S
C1116 N1118 1.347 . S
C1116 H1127 0.931 . S
C1117 N1115 1.375 . S
C1117 C1119 1.350 . S
C1117 H1126 0.930 . S
N1118 C1116 1.347 . S
N1118 C1119 1.373 . S
C1119 C1117 1.350 . S
C1119 N1118 1.373 . S
C1119 H1133 0.931 . S
C1120 O1123 1.256 . S
C1120 O1124 1.255 . S
O1121 Co1104 2.021 1_556 S
O1121 C1114 1.259 . S
O1122 Co1106 2.117 1_556 S
O1122 C1114 1.258 . S
O1123 Co1106 2.020 . S
O1123 C1120 1.256 . S
O1124 Co1104 2.062 . S
O1124 C1120 1.255 . S
O1125 C1105 1.259 . S
O1125 Co1106 2.021 . S
H1126 C1117 0.930 . S
H1127 C1116 0.931 . S
O1128 Co1104 2.117 . S
O1128 C1105 1.258 . S
O1129 Co1104 2.020 . S
O1129 C1131 1.256 . S
O1130 Co1106 2.062 . S
O1130 C1131 1.255 . S
C1131 O1129 1.256 . S
C1131 O1130 1.255 . S
H1132 C1111 0.931 . S
H1133 C1119 0.931 . S
Co1134 N1139 2.057 . S
Co1134 O1151 2.021 . S
Co1134 O1154 2.062 . S
Co1134 O1158 2.117 . S
Co1134 O1159 2.020 . S
C1135 O1155 1.259 . S
C1135 O1158 1.258 . S
Co1136 N1145 2.057 . S
Co1136 O1152 2.117 . S
Co1136 O1153 2.020 . S
Co1136 O1155 2.021 . S
Co1136 O1160 2.062 . S
C1137 N1139 1.316 . S
C1137 N1140 1.347 . S
C1137 H1142 0.931 . S
C1138 N1139 1.375 . S
C1138 C1141 1.350 . S
C1138 H1143 0.930 . S
N1139 Co1134 2.057 . S
N1139 C1137 1.316 . S
N1139 C1138 1.375 . S
N1140 C1137 1.347 . S
N1140 C1141 1.373 . S
C1141 C1138 1.350 . S
C1141 N1140 1.373 . S
C1141 H1162 0.931 . S
H1142 C1137 0.931 . S
H1143 C1138 0.930 . S
C1144 O1151 1.259 . S
C1144 O1152 1.258 . S
N1145 Co1136 2.057 . S
N1145 C1146 1.316 . S
N1145 C1147 1.375 . S
C1146 N1145 1.316 . S
C1146 N1148 1.347 . S
C1146 H1157 0.931 . S
C1147 N1145 1.375 . S
C1147 C1149 1.350 . S
C1147 H1156 0.930 . S
N1148 C1146 1.347 . S
N1148 C1149 1.373 . S
C1149 C1147 1.350 . S
C1149 N1148 1.373 . S
C1149 H1163 0.931 . S
C1150 O1153 1.256 . S
C1150 O1154 1.255 . S
O1151 Co1134 2.021 . S
O1151 C1144 1.259 . S
O1152 Co1136 2.117 . S
O1152 C1144 1.258 . S
O1153 Co1136 2.020 . S
O1153 C1150 1.256 . S
O1154 Co1134 2.062 . S
O1154 C1150 1.255 . S
O1155 C1135 1.259 . S
O1155 Co1136 2.021 . S
H1156 C1147 0.930 . S
H1157 C1146 0.931 . S
O1158 Co1134 2.117 . S
O1158 C1135 1.258 . S
O1159 Co1134 2.020 . S
O1159 C1161 1.256 . S
O1160 Co1136 2.062 . S
O1160 C1161 1.255 . S
C1161 O1159 1.256 . S
C1161 O1160 1.255 . S
H1162 C1141 0.931 . S
H1163 C1149 0.931 . S
Co1164 N1169 2.057 . S
Co1164 O1181 2.021 1_455 S
Co1164 O1184 2.062 . S
Co1164 O1188 2.117 . S
Co1164 O1189 2.020 . S
C1165 O1185 1.259 . S
C1165 O1188 1.258 . S
Co1166 N1175 2.057 . S
Co1166 O1182 2.117 1_455 S
Co1166 O1183 2.020 . S
Co1166 O1185 2.021 . S
Co1166 O1190 2.062 . S
C1167 N1169 1.316 1_655 S
C1167 N1170 1.347 . S
C1167 H1172 0.931 . S
C1168 N1169 1.375 . S
C1168 C1171 1.350 . S
C1168 H1173 0.930 . S
N1169 Co1164 2.057 . S
N1169 C1167 1.316 1_455 S
N1169 C1168 1.375 . S
N1170 C1167 1.347 . S
N1170 C1171 1.373 1_655 S
C1171 C1168 1.350 . S
C1171 N1170 1.373 1_455 S
C1171 H1192 0.931 . S
H1172 C1167 0.931 . S
H1173 C1168 0.930 . S
C1174 O1181 1.259 . S
C1174 O1182 1.258 . S
N1175 Co1166 2.057 . S
N1175 C1176 1.316 . S
N1175 C1177 1.375 . S
C1176 N1175 1.316 . S
C1176 N1178 1.347 . S
C1176 H1187 0.931 . S
C1177 N1175 1.375 . S
C1177 C1179 1.350 . S
C1177 H1186 0.930 . S
N1178 C1176 1.347 . S
N1178 C1179 1.373 . S
C1179 C1177 1.350 . S
C1179 N1178 1.373 . S
C1179 H1193 0.931 . S
C1180 O1183 1.256 . S
C1180 O1184 1.255 . S
O1181 Co1164 2.021 1_655 S
O1181 C1174 1.259 . S
O1182 Co1166 2.117 1_655 S
O1182 C1174 1.258 . S
O1183 Co1166 2.020 . S
O1183 C1180 1.256 . S
O1184 Co1164 2.062 . S
O1184 C1180 1.255 . S
O1185 C1165 1.259 . S
O1185 Co1166 2.021 . S
H1186 C1177 0.930 . S
H1187 C1176 0.931 . S
O1188 Co1164 2.117 . S
O1188 C1165 1.258 . S
O1189 Co1164 2.020 . S
O1189 C1191 1.256 . S
O1190 Co1166 2.062 . S
O1190 C1191 1.255 . S
C1191 O1189 1.256 . S
C1191 O1190 1.255 . S
H1192 C1171 0.931 . S
H1193 C1179 0.931 . S
Co1194 N1199 2.057 . S
Co1194 O1211 2.021 . S
Co1194 O1214 2.062 . S
Co1194 O1218 2.117 . S
Co1194 O1219 2.020 . S
C1195 O1215 1.259 . S
C1195 O1218 1.258 . S
Co1196 N1205 2.057 . S
Co1196 O1212 2.117 . S
Co1196 O1213 2.020 . S
Co1196 O1215 2.021 . S
Co1196 O1220 2.062 . S
C1197 N1199 1.316 . S
C1197 N1200 1.347 . S
C1197 H1202 0.931 . S
C1198 N1199 1.375 . S
C1198 C1201 1.350 . S
C1198 H1203 0.930 . S
N1199 Co1194 2.057 . S
N1199 C1197 1.316 . S
N1199 C1198 1.375 . S
N1200 C1197 1.347 . S
N1200 C1201 1.373 . S
C1201 C1198 1.350 . S
C1201 N1200 1.373 . S
C1201 H1222 0.931 . S
H1202 C1197 0.931 . S
H1203 C1198 0.930 . S
C1204 O1211 1.259 . S
C1204 O1212 1.258 . S
N1205 Co1196 2.057 . S
N1205 C1206 1.316 . S
N1205 C1207 1.375 . S
C1206 N1205 1.316 . S
C1206 N1208 1.347 . S
C1206 H1217 0.931 . S
C1207 N1205 1.375 . S
C1207 C1209 1.350 . S
C1207 H1216 0.930 . S
N1208 C1206 1.347 . S
N1208 C1209 1.373 . S
C1209 C1207 1.350 . S
C1209 N1208 1.373 . S
C1209 H1223 0.931 . S
C1210 O1213 1.256 . S
C1210 O1214 1.255 . S
O1211 Co1194 2.021 . S
O1211 C1204 1.259 . S
O1212 Co1196 2.117 . S
O1212 C1204 1.258 . S
O1213 Co1196 2.020 . S
O1213 C1210 1.256 . S
O1214 Co1194 2.062 . S
O1214 C1210 1.255 . S
O1215 C1195 1.259 . S
O1215 Co1196 2.021 . S
H1216 C1207 0.930 . S
H1217 C1206 0.931 . S
O1218 Co1194 2.117 . S
O1218 C1195 1.258 . S
O1219 Co1194 2.020 . S
O1219 C1221 1.256 . S
O1220 Co1196 2.062 . S
O1220 C1221 1.255 . S
C1221 O1219 1.256 . S
C1221 O1220 1.255 . S
H1222 C1201 0.931 . S
H1223 C1209 0.931 . S
Co1224 N1229 2.057 . S
Co1224 O1241 2.021 . S
Co1224 O1244 2.062 . S
Co1224 O1248 2.117 . S
Co1224 O1249 2.020 . S
C1225 O1245 1.259 . S
C1225 O1248 1.258 . S
Co1226 N1235 2.057 . S
Co1226 O1242 2.117 . S
Co1226 O1243 2.020 . S
Co1226 O1245 2.021 . S
Co1226 O1250 2.062 . S
C1227 N1229 1.316 . S
C1227 N1230 1.347 . S
C1227 H1232 0.931 . S
C1228 N1229 1.375 . S
C1228 C1231 1.350 . S
C1228 H1233 0.930 . S
N1229 Co1224 2.057 . S
N1229 C1227 1.316 . S
N1229 C1228 1.375 . S
N1230 C1227 1.347 . S
N1230 C1231 1.373 . S
C1231 C1228 1.350 . S
C1231 N1230 1.373 . S
C1231 H1252 0.931 . S
H1232 C1227 0.931 . S
H1233 C1228 0.930 . S
C1234 O1241 1.259 . S
C1234 O1242 1.258 . S
N1235 Co1226 2.057 . S
N1235 C1236 1.316 . S
N1235 C1237 1.375 . S
C1236 N1235 1.316 . S
C1236 N1238 1.347 . S
C1236 H1247 0.931 . S
C1237 N1235 1.375 . S
C1237 C1239 1.350 . S
C1237 H1246 0.930 . S
N1238 C1236 1.347 . S
N1238 C1239 1.373 . S
C1239 C1237 1.350 . S
C1239 N1238 1.373 . S
C1239 H1253 0.931 . S
C1240 O1243 1.256 . S
C1240 O1244 1.255 . S
O1241 Co1224 2.021 . S
O1241 C1234 1.259 . S
O1242 Co1226 2.117 . S
O1242 C1234 1.258 . S
O1243 Co1226 2.020 . S
O1243 C1240 1.256 . S
O1244 Co1224 2.062 . S
O1244 C1240 1.255 . S
O1245 C1225 1.259 . S
O1245 Co1226 2.021 . S
H1246 C1237 0.930 . S
H1247 C1236 0.931 . S
O1248 Co1224 2.117 . S
O1248 C1225 1.258 . S
O1249 Co1224 2.020 . S
O1249 C1251 1.256 . S
O1250 Co1226 2.062 . S
O1250 C1251 1.255 . S
C1251 O1249 1.256 . S
C1251 O1250 1.255 . S
H1252 C1231 0.931 . S
H1253 C1239 0.931 . S
Co1254 N1259 2.057 . S
Co1254 O1271 2.021 . S
Co1254 O1274 2.062 . S
Co1254 O1278 2.117 . S
Co1254 O1279 2.020 . S
C1255 O1275 1.259 . S
C1255 O1278 1.258 . S
Co1256 N1265 2.057 . S
Co1256 O1272 2.117 . S
Co1256 O1273 2.020 . S
Co1256 O1275 2.021 . S
Co1256 O1280 2.062 . S
C1257 N1259 1.316 . S
C1257 N1260 1.347 . S
C1257 H1262 0.931 . S
C1258 N1259 1.375 . S
C1258 C1261 1.350 . S
C1258 H1263 0.930 . S
N1259 Co1254 2.057 . S
N1259 C1257 1.316 . S
N1259 C1258 1.375 . S
N1260 C1257 1.347 . S
N1260 C1261 1.373 . S
C1261 C1258 1.350 . S
C1261 N1260 1.373 . S
C1261 H1282 0.931 . S
H1262 C1257 0.931 . S
H1263 C1258 0.930 . S
C1264 O1271 1.259 . S
C1264 O1272 1.258 . S
N1265 Co1256 2.057 . S
N1265 C1266 1.316 . S
N1265 C1267 1.375 . S
C1266 N1265 1.316 . S
C1266 N1268 1.347 . S
C1266 H1277 0.931 . S
C1267 N1265 1.375 . S
C1267 C1269 1.350 . S
C1267 H1276 0.930 . S
N1268 C1266 1.347 . S
N1268 C1269 1.373 . S
C1269 C1267 1.350 . S
C1269 N1268 1.373 . S
C1269 H1283 0.931 . S
C1270 O1273 1.256 . S
C1270 O1274 1.255 . S
O1271 Co1254 2.021 . S
O1271 C1264 1.259 . S
O1272 Co1256 2.117 . S
O1272 C1264 1.258 . S
O1273 Co1256 2.020 . S
O1273 C1270 1.256 . S
O1274 Co1254 2.062 . S
O1274 C1270 1.255 . S
O1275 C1255 1.259 . S
O1275 Co1256 2.021 . S
H1276 C1267 0.930 . S
H1277 C1266 0.931 . S
O1278 Co1254 2.117 . S
O1278 C1255 1.258 . S
O1279 Co1254 2.020 . S
O1279 C1281 1.256 . S
O1280 Co1256 2.062 . S
O1280 C1281 1.255 . S
C1281 O1279 1.256 . S
C1281 O1280 1.255 . S
H1282 C1261 0.931 . S
H1283 C1269 0.931 . S
Co1284 N1289 2.057 . S
Co1284 O1301 2.021 . S
Co1284 O1304 2.062 . S
Co1284 O1308 2.117 . S
Co1284 O1309 2.020 . S
C1285 O1305 1.259 . S
C1285 O1308 1.258 . S
Co1286 N1295 2.057 . S
Co1286 O1302 2.117 . S
Co1286 O1303 2.020 . S
Co1286 O1305 2.021 . S
Co1286 O1310 2.062 . S
C1287 N1289 1.316 . S
C1287 N1290 1.347 . S
C1287 H1292 0.931 . S
C1288 N1289 1.375 . S
C1288 C1291 1.350 . S
C1288 H1293 0.930 . S
N1289 Co1284 2.057 . S
N1289 C1287 1.316 . S
N1289 C1288 1.375 . S
N1290 C1287 1.347 . S
N1290 C1291 1.373 . S
C1291 C1288 1.350 . S
C1291 N1290 1.373 . S
C1291 H1312 0.931 . S
H1292 C1287 0.931 . S
H1293 C1288 0.930 . S
C1294 O1301 1.259 . S
C1294 O1302 1.258 . S
N1295 Co1286 2.057 . S
N1295 C1296 1.316 . S
N1295 C1297 1.375 . S
C1296 N1295 1.316 . S
C1296 N1298 1.347 . S
C1296 H1307 0.931 . S
C1297 N1295 1.375 . S
C1297 C1299 1.350 . S
C1297 H1306 0.930 . S
N1298 C1296 1.347 . S
N1298 C1299 1.373 . S
C1299 C1297 1.350 . S
C1299 N1298 1.373 . S
C1299 H1313 0.931 . S
C1300 O1303 1.256 . S
C1300 O1304 1.255 . S
O1301 Co1284 2.021 . S
O1301 C1294 1.259 . S
O1302 Co1286 2.117 . S
O1302 C1294 1.258 . S
O1303 Co1286 2.020 . S
O1303 C1300 1.256 . S
O1304 Co1284 2.062 . S
O1304 C1300 1.255 . S
O1305 C1285 1.259 . S
O1305 Co1286 2.021 . S
H1306 C1297 0.930 . S
H1307 C1296 0.931 . S
O1308 Co1284 2.117 . S
O1308 C1285 1.258 . S
O1309 Co1284 2.020 . S
O1309 C1311 1.256 . S
O1310 Co1286 2.062 . S
O1310 C1311 1.255 . S
C1311 O1309 1.256 . S
C1311 O1310 1.255 . S
H1312 C1291 0.931 . S
H1313 C1299 0.931 . S
Co1314 N1319 2.057 1_455 S
Co1314 O1331 2.021 . S
Co1314 O1334 2.062 1_455 S
Co1314 O1338 2.117 . S
Co1314 O1339 2.020 1_554 S
C1315 O1335 1.259 . S
C1315 O1338 1.258 . S
Co1316 N1325 2.057 . S
Co1316 O1332 2.117 . S
Co1316 O1333 2.020 . S
Co1316 O1335 2.021 . S
Co1316 O1340 2.062 1_554 S
C1317 N1319 1.316 . S
C1317 N1320 1.347 . S
C1317 H1322 0.931 . S
C1318 N1319 1.384 . S
C1318 C1321 1.350 . S
C1318 H1323 0.923 1_554 S
N1319 Co1314 2.057 1_655 S
N1319 C1317 1.316 . S
N1319 C1318 1.384 . S
N1320 C1317 1.347 . S
N1320 C1321 1.380 . S
C1321 C1318 1.350 . S
C1321 N1320 1.380 . S
C1321 H1342 0.925 1_554 S
H1322 C1317 0.931 . S
H1323 C1318 0.923 1_556 S
C1324 O1331 1.259 . S
C1324 O1332 1.258 . S
N1325 Co1316 2.057 . S
N1325 C1326 1.316 . S
N1325 C1327 1.375 . S
C1326 N1325 1.316 . S
C1326 N1328 1.347 . S
C1326 H1337 0.931 . S
C1327 N1325 1.375 . S
C1327 C1329 1.350 . S
C1327 H1336 0.930 . S
N1328 C1326 1.347 . S
N1328 C1329 1.373 . S
C1329 C1327 1.350 . S
C1329 N1328 1.373 . S
C1329 H1343 0.931 . S
C1330 O1333 1.256 . S
C1330 O1334 1.255 1_455 S
O1331 Co1314 2.021 . S
O1331 C1324 1.259 . S
O1332 Co1316 2.117 . S
O1332 C1324 1.258 . S
O1333 Co1316 2.020 . S
O1333 C1330 1.256 . S
O1334 Co1314 2.062 1_655 S
O1334 C1330 1.255 1_655 S
O1335 C1315 1.259 . S
O1335 Co1316 2.021 . S
H1336 C1327 0.930 . S
H1337 C1326 0.931 . S
O1338 Co1314 2.117 . S
O1338 C1315 1.258 . S
O1339 Co1314 2.020 1_556 S
O1339 C1341 1.256 . S
O1340 Co1316 2.062 1_556 S
O1340 C1341 1.255 . S
C1341 O1339 1.256 . S
C1341 O1340 1.255 . S
H1342 C1321 0.925 1_556 S
H1343 C1329 0.931 . S
H1344 C1352 0.950 . S
H1345 C1357 0.950 1_655 S
H1346 C1354 0.950 . S
H1347 C1356 0.950 1_655 S
H1348 C1358 0.950 . S
H1349 C1360 0.950 . S
H1350 C1362 0.950 . S
H1351 C1363 0.950 . S
C1352 H1344 0.950 . S
C1352 C1353 1.386 . S
C1352 C1354 1.391 . S
C1353 C1352 1.386 . S
C1353 C1357 1.393 . S
C1354 H1346 0.950 . S
C1354 C1352 1.391 . S
C1354 C1355 1.400 . S
C1355 C1354 1.400 . S
C1355 C1356 1.398 . S
C1355 C1361 1.491 . S
C1356 H1347 0.950 1_455 S
C1356 C1355 1.398 . S
C1356 C1357 1.391 . S
C1357 H1345 0.950 1_455 S
C1357 C1353 1.393 . S
C1357 C1356 1.391 . S
C1358 H1348 0.950 . S
C1358 C1359 1.386 1_655 S
C1358 C1360 1.391 . S
C1359 C1358 1.386 1_455 S
C1359 C1363 1.393 . S
C1360 H1349 0.950 . S
C1360 C1358 1.391 . S
C1360 C1361 1.400 1_655 S
C1361 C1355 1.491 . S
C1361 C1360 1.400 1_455 S
C1361 C1362 1.398 . S
C1362 H1350 0.950 . S
C1362 C1361 1.398 . S
C1362 C1363 1.391 . S
C1363 H1351 0.950 . S
C1363 C1359 1.393 . S
C1363 C1362 1.391 . S
H1364 C1372 0.950 . S
H1365 C1377 0.950 . S
H1366 C1374 0.950 . S
H1367 C1376 0.950 . S
H1368 C1378 0.950 . S
H1369 C1380 0.950 . S
H1370 C1382 0.950 . S
H1371 C1383 0.950 . S
C1372 H1364 0.950 . S
C1372 C1373 1.386 . S
C1372 C1374 1.391 . S
C1373 C1372 1.386 . S
C1373 C1377 1.393 . S
C1374 H1366 0.950 . S
C1374 C1372 1.391 . S
C1374 C1375 1.400 . S
C1375 C1374 1.400 . S
C1375 C1376 1.398 . S
C1375 C1381 1.491 . S
C1376 H1367 0.950 . S
C1376 C1375 1.398 . S
C1376 C1377 1.391 . S
C1377 H1365 0.950 . S
C1377 C1373 1.393 . S
C1377 C1376 1.391 . S
C1378 H1368 0.950 . S
C1378 C1379 1.386 . S
C1378 C1380 1.391 . S
C1379 C1378 1.386 . S
C1379 C1383 1.393 . S
C1380 H1369 0.950 . S
C1380 C1378 1.391 . S
C1380 C1381 1.400 . S
C1381 C1375 1.491 . S
C1381 C1380 1.400 . S
C1381 C1382 1.398 . S
C1382 H1370 0.950 . S
C1382 C1381 1.398 . S
C1382 C1383 1.391 . S
C1383 H1371 0.950 . S
C1383 C1379 1.393 . S
C1383 C1382 1.391 . S
H1384 C1392 0.950 . S
H1385 C1397 0.950 . S
H1386 C1394 0.950 . S
H1387 C1396 0.950 . S
H1388 C1398 0.950 . S
H1389 C1400 0.950 . S
H1390 C1402 0.950 . S
H1391 C1403 0.950 . S
C1392 H1384 0.950 . S
C1392 C1393 1.386 . S
C1392 C1394 1.391 . S
C1393 C1392 1.386 . S
C1393 C1397 1.393 . S
C1394 H1386 0.950 . S
C1394 C1392 1.391 . S
C1394 C1395 1.400 . S
C1395 C1394 1.400 . S
C1395 C1396 1.398 . S
C1395 C1401 1.491 . S
C1396 H1387 0.950 . S
C1396 C1395 1.398 . S
C1396 C1397 1.391 . S
C1397 H1385 0.950 . S
C1397 C1393 1.393 . S
C1397 C1396 1.391 . S
C1398 H1388 0.950 . S
C1398 C1399 1.386 . S
C1398 C1400 1.391 . S
C1399 C1398 1.386 . S
C1399 C1403 1.393 . S
C1400 H1389 0.950 . S
C1400 C1398 1.391 . S
C1400 C1401 1.400 . S
C1401 C1395 1.491 . S
C1401 C1400 1.400 . S
C1401 C1402 1.398 . S
C1402 H1390 0.950 . S
C1402 C1401 1.398 . S
C1402 C1403 1.391 . S
C1403 H1391 0.950 . S
C1403 C1399 1.393 . S
C1403 C1402 1.391 . S
H1404 C1412 0.950 . S
H1405 C1417 0.950 . S
H1406 C1414 0.950 . S
H1407 C1416 0.950 . S
H1408 C1418 0.950 . S
H1409 C1420 0.950 . S
H1410 C1422 0.950 . S
H1411 C1423 0.950 . S
C1412 H1404 0.950 . S
C1412 C1413 1.386 . S
C1412 C1414 1.391 . S
C1413 C1412 1.386 . S
C1413 C1417 1.393 . S
C1414 H1406 0.950 . S
C1414 C1412 1.391 . S
C1414 C1415 1.400 . S
C1415 C1414 1.400 . S
C1415 C1416 1.398 . S
C1415 C1421 1.491 . S
C1416 H1407 0.950 . S
C1416 C1415 1.398 . S
C1416 C1417 1.391 . S
C1417 H1405 0.950 . S
C1417 C1413 1.393 . S
C1417 C1416 1.391 . S
C1418 H1408 0.950 . S
C1418 C1419 1.386 . S
C1418 C1420 1.391 . S
C1419 C1418 1.386 . S
C1419 C1423 1.393 . S
C1420 H1409 0.950 . S
C1420 C1418 1.391 . S
C1420 C1421 1.400 . S
C1421 C1415 1.491 . S
C1421 C1420 1.400 . S
C1421 C1422 1.398 . S
C1422 H1410 0.950 . S
C1422 C1421 1.398 . S
C1422 C1423 1.391 . S
C1423 H1411 0.950 . S
C1423 C1419 1.393 . S
C1423 C1422 1.391 . S
H1424 C1432 0.950 . S
H1425 C1437 0.950 . S
H1426 C1434 0.950 . S
H1427 C1436 0.950 . S
H1428 C1438 0.950 . S
H1429 C1440 0.950 . S
H1430 C1442 0.950 . S
H1431 C1443 0.950 . S
C1432 H1424 0.950 . S
C1432 C1433 1.386 . S
C1432 C1434 1.391 . S
C1433 C1432 1.386 . S
C1433 C1437 1.393 . S
C1434 H1426 0.950 . S
C1434 C1432 1.391 . S
C1434 C1435 1.400 . S
C1435 C1434 1.400 . S
C1435 C1436 1.398 . S
C1435 C1441 1.491 . S
C1436 H1427 0.950 . S
C1436 C1435 1.398 . S
C1436 C1437 1.391 . S
C1437 H1425 0.950 . S
C1437 C1433 1.393 . S
C1437 C1436 1.391 . S
C1438 H1428 0.950 . S
C1438 C1439 1.386 . S
C1438 C1440 1.391 . S
C1439 C1438 1.386 . S
C1439 C1443 1.393 . S
C1440 H1429 0.950 . S
C1440 C1438 1.391 . S
C1440 C1441 1.400 . S
C1441 C1435 1.491 . S
C1441 C1440 1.400 . S
C1441 C1442 1.398 . S
C1442 H1430 0.950 . S
C1442 C1441 1.398 . S
C1442 C1443 1.391 . S
C1443 H1431 0.950 . S
C1443 C1439 1.393 . S
C1443 C1442 1.391 . S
H1444 C1452 0.950 . S
H1445 C1457 0.950 . S
H1446 C1454 0.950 . S
H1447 C1456 0.950 . S
H1448 C1458 0.950 . S
H1449 C1460 0.950 . S
H1450 C1462 0.950 . S
H1451 C1463 0.950 . S
C1452 H1444 0.950 . S
C1452 C1453 1.386 . S
C1452 C1454 1.391 . S
C1453 C1452 1.386 . S
C1453 C1457 1.393 . S
C1454 H1446 0.950 . S
C1454 C1452 1.391 . S
C1454 C1455 1.400 . S
C1455 C1454 1.400 . S
C1455 C1456 1.398 . S
C1455 C1461 1.491 . S
C1456 H1447 0.950 . S
C1456 C1455 1.398 . S
C1456 C1457 1.391 . S
C1457 H1445 0.950 . S
C1457 C1453 1.393 . S
C1457 C1456 1.391 . S
C1458 H1448 0.950 . S
C1458 C1459 1.386 . S
C1458 C1460 1.391 . S
C1459 C1458 1.386 . S
C1459 C1463 1.393 . S
C1460 H1449 0.950 . S
C1460 C1458 1.391 . S
C1460 C1461 1.400 . S
C1461 C1455 1.491 . S
C1461 C1460 1.400 . S
C1461 C1462 1.398 . S
C1462 H1450 0.950 . S
C1462 C1461 1.398 . S
C1462 C1463 1.391 . S
C1463 H1451 0.950 . S
C1463 C1459 1.393 . S
C1463 C1462 1.391 . S
H1464 C1472 0.950 . S
H1465 C1477 0.950 . S
H1466 C1474 0.950 . S
H1467 C1476 0.950 . S
H1468 C1478 0.950 . S
H1469 C1480 0.950 . S
H1470 C1482 0.950 . S
H1471 C1483 0.950 1_554 S
C1472 H1464 0.950 . S
C1472 C1473 1.386 . S
C1472 C1474 1.391 . S
C1473 C1472 1.386 . S
C1473 C1477 1.393 . S
C1474 H1466 0.950 . S
C1474 C1472 1.391 . S
C1474 C1475 1.400 . S
C1475 C1474 1.400 . S
C1475 C1476 1.398 . S
C1475 C1481 1.491 . S
C1476 H1467 0.950 . S
C1476 C1475 1.398 . S
C1476 C1477 1.391 . S
C1477 H1465 0.950 . S
C1477 C1473 1.393 . S
C1477 C1476 1.391 . S
C1478 H1468 0.950 . S
C1478 C1479 1.395 . S
C1478 C1480 1.391 . S
C1479 C1478 1.395 . S
C1479 C1483 1.396 . S
C1480 H1469 0.950 . S
C1480 C1478 1.391 . S
C1480 C1481 1.400 . S
C1481 C1475 1.491 . S
C1481 C1480 1.400 . S
C1481 C1482 1.398 . S
C1482 H1470 0.950 . S
C1482 C1481 1.398 . S
C1482 C1483 1.391 . S
C1483 H1471 0.950 1_556 S
C1483 C1479 1.396 . S
C1483 C1482 1.391 . S
H1484 C1492 0.950 . S
H1485 C1497 0.950 . S
H1486 C1494 0.950 . S
H1487 C1496 0.950 . S
H1488 C1498 0.950 . S
H1489 C1500 0.950 . S
H1490 C1502 0.950 . S
H1491 C1503 0.950 . S
C1492 H1484 0.950 . S
C1492 C1493 1.386 . S
C1492 C1494 1.391 . S
C1493 C1492 1.386 . S
C1493 C1497 1.393 . S
C1494 H1486 0.950 . S
C1494 C1492 1.391 . S
C1494 C1495 1.400 . S
C1495 C1494 1.400 . S
C1495 C1496 1.398 . S
C1495 C1501 1.491 . S
C1496 H1487 0.950 . S
C1496 C1495 1.398 . S
C1496 C1497 1.391 . S
C1497 H1485 0.950 . S
C1497 C1493 1.393 . S
C1497 C1496 1.391 . S
C1498 H1488 0.950 . S
C1498 C1499 1.386 . S
C1498 C1500 1.391 . S
C1499 C1498 1.386 . S
C1499 C1503 1.393 . S
C1500 H1489 0.950 . S
C1500 C1498 1.391 . S
C1500 C1501 1.400 . S
C1501 C1495 1.491 . S
C1501 C1500 1.400 . S
C1501 C1502 1.398 . S
C1502 H1490 0.950 . S
C1502 C1501 1.398 . S
C1502 C1503 1.391 . S
C1503 H1491 0.950 . S
C1503 C1499 1.393 . S
C1503 C1502 1.391 . S
H1504 C1512 0.950 . S
H1505 C1517 0.950 . S
H1506 C1514 0.950 . S
H1507 C1516 0.950 . S
H1508 C1518 0.950 . S
H1509 C1520 0.950 . S
H1510 C1522 0.950 . S
H1511 C1523 0.950 . S
C1512 H1504 0.950 . S
C1512 C1513 1.386 1_565 S
C1512 C1514 1.391 . S
C1513 C1512 1.386 1_545 S
C1513 C1517 1.393 . S
C1514 H1506 0.950 . S
C1514 C1512 1.391 . S
C1514 C1515 1.400 1_565 S
C1515 C1514 1.400 1_545 S
C1515 C1516 1.398 . S
C1515 C1521 1.491 . S
C1516 H1507 0.950 . S
C1516 C1515 1.398 . S
C1516 C1517 1.391 . S
C1517 H1505 0.950 . S
C1517 C1513 1.393 . S
C1517 C1516 1.391 . S
C1518 H1508 0.950 . S
C1518 C1519 1.386 . S
C1518 C1520 1.391 . S
C1519 C1518 1.386 . S
C1519 C1523 1.393 1_545 S
C1520 H1509 0.950 . S
C1520 C1518 1.391 . S
C1520 C1521 1.400 . S
C1521 C1515 1.491 . S
C1521 C1520 1.400 . S
C1521 C1522 1.398 1_545 S
C1522 H1510 0.950 . S
C1522 C1521 1.398 1_565 S
C1522 C1523 1.391 . S
C1523 H1511 0.950 . S
C1523 C1519 1.393 1_565 S
C1523 C1522 1.391 . S
H1524 C1532 0.950 . S
H1525 C1537 0.950 . S
H1526 C1534 0.950 . S
H1527 C1536 0.950 . S
H1528 C1538 0.950 . S
H1529 C1540 0.950 . S
H1530 C1542 0.950 . S
H1531 C1543 0.950 . S
C1532 H1524 0.950 . S
C1532 C1533 1.386 . S
C1532 C1534 1.391 . S
C1533 C1532 1.386 . S
C1533 C1537 1.393 . S
C1534 H1526 0.950 . S
C1534 C1532 1.391 . S
C1534 C1535 1.400 . S
C1535 C1534 1.400 . S
C1535 C1536 1.398 . S
C1535 C1541 1.491 . S
C1536 H1527 0.950 . S
C1536 C1535 1.398 . S
C1536 C1537 1.391 . S
C1537 H1525 0.950 . S
C1537 C1533 1.393 . S
C1537 C1536 1.391 . S
C1538 H1528 0.950 . S
C1538 C1539 1.386 . S
C1538 C1540 1.391 . S
C1539 C1538 1.386 . S
C1539 C1543 1.393 . S
C1540 H1529 0.950 . S
C1540 C1538 1.391 . S
C1540 C1541 1.400 . S
C1541 C1535 1.491 . S
C1541 C1540 1.400 . S
C1541 C1542 1.398 . S
C1542 H1530 0.950 . S
C1542 C1541 1.398 . S
C1542 C1543 1.391 . S
C1543 H1531 0.950 . S
C1543 C1539 1.393 . S
C1543 C1542 1.391 . S
H1544 C1552 0.950 . S
H1545 C1557 0.950 . S
H1546 C1554 0.950 . S
H1547 C1556 0.950 . S
H1548 C1558 0.950 . S
H1549 C1560 0.950 . S
H1550 C1562 0.950 . S
H1551 C1563 0.950 . S
C1552 H1544 0.950 . S
C1552 C1553 1.386 . S
C1552 C1554 1.391 . S
C1553 C1552 1.386 . S
C1553 C1557 1.393 . S
C1554 H1546 0.950 . S
C1554 C1552 1.391 . S
C1554 C1555 1.400 . S
C1555 C1554 1.400 . S
C1555 C1556 1.398 . S
C1555 C1561 1.491 . S
C1556 H1547 0.950 . S
C1556 C1555 1.398 . S
C1556 C1557 1.391 . S
C1557 H1545 0.950 . S
C1557 C1553 1.393 . S
C1557 C1556 1.391 . S
C1558 H1548 0.950 . S
C1558 C1559 1.386 . S
C1558 C1560 1.391 . S
C1559 C1558 1.386 . S
C1559 C1563 1.393 . S
C1560 H1549 0.950 . S
C1560 C1558 1.391 . S
C1560 C1561 1.400 . S
C1561 C1555 1.491 . S
C1561 C1560 1.400 . S
C1561 C1562 1.398 . S
C1562 H1550 0.950 . S
C1562 C1561 1.398 . S
C1562 C1563 1.391 . S
C1563 H1551 0.950 . S
C1563 C1559 1.393 . S
C1563 C1562 1.391 . S
H1564 C1572 0.950 . S
H1565 C1577 0.950 . S
H1566 C1574 0.950 . S
H1567 C1576 0.950 . S
H1568 C1578 0.950 . S
H1569 C1580 0.950 . S
H1570 C1582 0.950 . S
H1571 C1583 0.950 . S
C1572 H1564 0.950 . S
C1572 C1573 1.386 . S
C1572 C1574 1.391 . S
C1573 C1572 1.386 . S
C1573 C1577 1.393 . S
C1574 H1566 0.950 . S
C1574 C1572 1.391 . S
C1574 C1575 1.400 . S
C1575 C1574 1.400 . S
C1575 C1576 1.398 . S
C1575 C1581 1.491 . S
C1576 H1567 0.950 . S
C1576 C1575 1.398 . S
C1576 C1577 1.391 . S
C1577 H1565 0.950 . S
C1577 C1573 1.393 . S
C1577 C1576 1.391 . S
C1578 H1568 0.950 . S
C1578 C1579 1.386 . S
C1578 C1580 1.391 . S
C1579 C1578 1.386 . S
C1579 C1583 1.393 . S
C1580 H1569 0.950 . S
C1580 C1578 1.391 . S
C1580 C1581 1.400 . S
C1581 C1575 1.491 . S
C1581 C1580 1.400 . S
C1581 C1582 1.398 . S
C1582 H1570 0.950 . S
C1582 C1581 1.398 . S
C1582 C1583 1.391 . S
C1583 H1571 0.950 . S
C1583 C1579 1.393 . S
C1583 C1582 1.391 . S
H1584 C1592 0.950 . S
H1585 C1597 0.950 . S
H1586 C1594 0.946 1_565 S
H1587 C1596 0.950 . S
H1588 C1598 0.950 . S
H1589 C1600 0.950 . S
H1590 C1602 0.950 1_565 S
H1591 C1603 0.950 . S
C1592 H1584 0.950 . S
C1592 C1593 1.386 1_565 S
C1592 C1594 1.390 1_565 S
C1593 C1592 1.386 1_545 S
C1593 C1597 1.393 . S
C1594 H1586 0.946 1_545 S
C1594 C1592 1.390 1_545 S
C1594 C1595 1.405 . S
C1595 C1594 1.405 . S
C1595 C1596 1.398 . S
C1595 C1601 1.491 . S
C1596 H1587 0.950 . S
C1596 C1595 1.398 . S
C1596 C1597 1.391 . S
C1597 H1585 0.950 . S
C1597 C1593 1.393 . S
C1597 C1596 1.391 . S
C1598 H1588 0.950 . S
C1598 C1599 1.386 . S
C1598 C1600 1.391 . S
C1599 C1598 1.386 . S
C1599 C1603 1.393 . S
C1600 H1589 0.950 . S
C1600 C1598 1.391 . S
C1600 C1601 1.400 . S
C1601 C1595 1.491 . S
C1601 C1600 1.400 . S
C1601 C1602 1.398 . S
C1602 H1590 0.950 1_545 S
C1602 C1601 1.398 . S
C1602 C1603 1.391 . S
C1603 H1591 0.950 . S
C1603 C1599 1.393 . S
C1603 C1602 1.391 . S
H1604 C1612 0.950 . S
H1605 C1617 0.950 . S
H1606 C1614 0.950 . S
H1607 C1616 0.950 . S
H1608 C1618 0.950 . S
H1609 C1620 0.950 . S
H1610 C1622 0.950 . S
H1611 C1623 0.950 . S
C1612 H1604 0.950 . S
C1612 C1613 1.386 . S
C1612 C1614 1.391 . S
C1613 C1612 1.386 . S
C1613 C1617 1.393 . S
C1614 H1606 0.950 . S
C1614 C1612 1.391 . S
C1614 C1615 1.400 . S
C1615 C1614 1.400 . S
C1615 C1616 1.398 . S
C1615 C1621 1.491 . S
C1616 H1607 0.950 . S
C1616 C1615 1.398 . S
C1616 C1617 1.391 . S
C1617 H1605 0.950 . S
C1617 C1613 1.393 . S
C1617 C1616 1.391 . S
C1618 H1608 0.950 . S
C1618 C1619 1.386 . S
C1618 C1620 1.391 . S
C1619 C1618 1.386 . S
C1619 C1623 1.393 . S
C1620 H1609 0.950 . S
C1620 C1618 1.391 . S
C1620 C1621 1.400 . S
C1621 C1615 1.491 . S
C1621 C1620 1.400 . S
C1621 C1622 1.398 . S
C1622 H1610 0.950 . S
C1622 C1621 1.398 . S
C1622 C1623 1.391 . S
C1623 H1611 0.950 . S
C1623 C1619 1.393 . S
C1623 C1622 1.391 . S
H1624 C1632 0.950 . S
H1625 C1637 0.950 . S
H1626 C1634 0.950 . S
H1627 C1636 0.950 . S
H1628 C1638 0.950 . S
H1629 C1640 0.950 . S
H1630 C1642 0.950 . S
H1631 C1643 0.950 1_565 S
C1632 H1624 0.950 . S
C1632 C1633 1.386 . S
C1632 C1634 1.391 . S
C1633 C1632 1.386 . S
C1633 C1637 1.393 . S
C1634 H1626 0.950 . S
C1634 C1632 1.391 . S
C1634 C1635 1.400 . S
C1635 C1634 1.400 . S
C1635 C1636 1.398 . S
C1635 C1641 1.491 . S
C1636 H1627 0.950 . S
C1636 C1635 1.398 . S
C1636 C1637 1.391 . S
C1637 H1625 0.950 . S
C1637 C1633 1.393 . S
C1637 C1636 1.391 . S
C1638 H1628 0.950 . S
C1638 C1639 1.386 . S
C1638 C1640 1.391 . S
C1639 C1638 1.386 . S
C1639 C1643 1.393 . S
C1640 H1629 0.950 . S
C1640 C1638 1.391 . S
C1640 C1641 1.400 . S
C1641 C1635 1.491 . S
C1641 C1640 1.400 . S
C1641 C1642 1.398 . S
C1642 H1630 0.950 . S
C1642 C1641 1.398 . S
C1642 C1643 1.391 . S
C1643 H1631 0.950 1_545 S
C1643 C1639 1.393 . S
C1643 C1642 1.391 . S
H1644 C1652 0.950 . S
H1645 C1657 0.950 . S
H1646 C1654 0.950 . S
H1647 C1656 0.950 . S
H1648 C1658 0.950 . S
H1649 C1660 0.950 . S
H1650 C1662 0.950 . S
H1651 C1663 0.950 . S
C1652 H1644 0.950 . S
C1652 C1653 1.386 . S
C1652 C1654 1.391 . S
C1653 C1652 1.386 . S
C1653 C1657 1.393 . S
C1654 H1646 0.950 . S
C1654 C1652 1.391 . S
C1654 C1655 1.400 . S
C1655 C1654 1.400 . S
C1655 C1656 1.398 . S
C1655 C1661 1.491 . S
C1656 H1647 0.950 . S
C1656 C1655 1.398 . S
C1656 C1657 1.391 . S
C1657 H1645 0.950 . S
C1657 C1653 1.393 . S
C1657 C1656 1.391 . S
C1658 H1648 0.950 . S
C1658 C1659 1.386 . S
C1658 C1660 1.391 . S
C1659 C1658 1.386 . S
C1659 C1663 1.393 . S
C1660 H1649 0.950 . S
C1660 C1658 1.391 . S
C1660 C1661 1.400 . S
C1661 C1655 1.491 . S
C1661 C1660 1.400 . S
C1661 C1662 1.398 . S
C1662 H1650 0.950 . S
C1662 C1661 1.398 . S
C1662 C1663 1.391 . S
C1663 H1651 0.950 . S
C1663 C1659 1.393 . S
C1663 C1662 1.391 . S
H1664 C1672 0.950 . S
H1665 C1677 0.950 . S
H1666 C1674 0.950 . S
H1667 C1676 0.950 . S
H1668 C1678 0.950 . S
H1669 C1680 0.950 . S
H1670 C1682 0.950 . S
H1671 C1683 0.950 . S
C1672 H1664 0.950 . S
C1672 C1673 1.386 . S
C1672 C1674 1.391 . S
C1673 C1672 1.386 . S
C1673 C1677 1.393 . S
C1674 H1666 0.950 . S
C1674 C1672 1.391 . S
C1674 C1675 1.400 . S
C1675 C1674 1.400 . S
C1675 C1676 1.398 . S
C1675 C1681 1.491 . S
C1676 H1667 0.950 . S
C1676 C1675 1.398 . S
C1676 C1677 1.391 . S
C1677 H1665 0.950 . S
C1677 C1673 1.393 . S
C1677 C1676 1.391 . S
C1678 H1668 0.950 . S
C1678 C1679 1.386 . S
C1678 C1680 1.391 . S
C1679 C1678 1.386 . S
C1679 C1683 1.393 . S
C1680 H1669 0.950 . S
C1680 C1678 1.391 . S
C1680 C1681 1.400 . S
C1681 C1675 1.491 . S
C1681 C1680 1.400 . S
C1681 C1682 1.398 . S
C1682 H1670 0.950 . S
C1682 C1681 1.398 . S
C1682 C1683 1.391 . S
C1683 H1671 0.950 . S
C1683 C1679 1.393 . S
C1683 C1682 1.391 . S
H1684 C1692 0.950 . S
H1685 C1697 0.950 . S
H1686 C1694 0.950 . S
H1687 C1696 0.950 . S
H1688 C1698 0.950 . S
H1689 C1700 0.950 . S
H1690 C1702 0.950 . S
H1691 C1703 0.950 . S
C1692 H1684 0.950 . S
C1692 C1693 1.386 . S
C1692 C1694 1.391 . S
C1693 C1692 1.386 . S
C1693 C1697 1.393 . S
C1694 H1686 0.950 . S
C1694 C1692 1.391 . S
C1694 C1695 1.400 . S
C1695 C1694 1.400 . S
C1695 C1696 1.398 . S
C1695 C1701 1.491 . S
C1696 H1687 0.950 . S
C1696 C1695 1.398 . S
C1696 C1697 1.391 . S
C1697 H1685 0.950 . S
C1697 C1693 1.393 . S
C1697 C1696 1.391 . S
C1698 H1688 0.950 . S
C1698 C1699 1.386 . S
C1698 C1700 1.391 . S
C1699 C1698 1.386 . S
C1699 C1703 1.393 . S
C1700 H1689 0.950 . S
C1700 C1698 1.391 . S
C1700 C1701 1.400 . S
C1701 C1695 1.491 . S
C1701 C1700 1.400 . S
C1701 C1702 1.398 . S
C1702 H1690 0.950 . S
C1702 C1701 1.398 . S
C1702 C1703 1.391 . S
C1703 H1691 0.950 . S
C1703 C1699 1.393 . S
C1703 C1702 1.391 . S
H1704 C1712 0.950 . S
H1705 C1717 0.950 . S
H1706 C1714 0.950 . S
H1707 C1716 0.950 . S
H1708 C1718 0.950 . S
H1709 C1720 0.950 . S
H1710 C1722 0.950 . S
H1711 C1723 0.950 . S
C1712 H1704 0.950 . S
C1712 C1713 1.386 . S
C1712 C1714 1.391 . S
C1713 C1712 1.386 . S
C1713 C1717 1.393 . S
C1714 H1706 0.950 . S
C1714 C1712 1.391 . S
C1714 C1715 1.400 . S
C1715 C1714 1.400 . S
C1715 C1716 1.398 . S
C1715 C1721 1.491 . S
C1716 H1707 0.950 . S
C1716 C1715 1.398 . S
C1716 C1717 1.391 . S
C1717 H1705 0.950 . S
C1717 C1713 1.393 . S
C1717 C1716 1.391 . S
C1718 H1708 0.950 . S
C1718 C1719 1.386 . S
C1718 C1720 1.391 . S
C1719 C1718 1.386 . S
C1719 C1723 1.393 . S
C1720 H1709 0.950 . S
C1720 C1718 1.391 . S
C1720 C1721 1.400 . S
C1721 C1715 1.491 . S
C1721 C1720 1.400 . S
C1721 C1722 1.398 . S
C1722 H1710 0.950 . S
C1722 C1721 1.398 . S
C1722 C1723 1.391 . S
C1723 H1711 0.950 . S
C1723 C1719 1.393 . S
C1723 C1722 1.391 . S
H1724 C1732 0.950 . S
H1725 C1737 0.950 . S
H1726 C1734 0.950 . S
H1727 C1736 0.950 . S
H1728 C1738 0.950 . S
H1729 C1740 0.950 . S
H1730 C1742 0.950 . S
H1731 C1743 0.950 . S
C1732 H1724 0.950 . S
C1732 C1733 1.386 . S
C1732 C1734 1.391 . S
C1733 C1732 1.386 . S
C1733 C1737 1.393 . S
C1734 H1726 0.950 . S
C1734 C1732 1.391 . S
C1734 C1735 1.400 . S
C1735 C1734 1.400 . S
C1735 C1736 1.398 . S
C1735 C1741 1.491 . S
C1736 H1727 0.950 . S
C1736 C1735 1.398 . S
C1736 C1737 1.391 . S
C1737 H1725 0.950 . S
C1737 C1733 1.393 . S
C1737 C1736 1.391 . S
C1738 H1728 0.950 . S
C1738 C1739 1.386 . S
C1738 C1740 1.391 . S
C1739 C1738 1.386 . S
C1739 C1743 1.393 . S
C1740 H1729 0.950 . S
C1740 C1738 1.391 . S
C1740 C1741 1.400 . S
C1741 C1735 1.491 . S
C1741 C1740 1.400 . S
C1741 C1742 1.398 . S
C1742 H1730 0.950 . S
C1742 C1741 1.398 . S
C1742 C1743 1.391 . S
C1743 H1731 0.950 . S
C1743 C1739 1.393 . S
C1743 C1742 1.391 . S
H1744 C1752 0.950 . S
H1745 C1757 0.950 . S
H1746 C1754 0.950 . S
H1747 C1756 0.950 . S
H1748 C1758 0.950 . S
H1749 C1760 0.950 . S
H1750 C1762 0.950 . S
H1751 C1763 0.950 . S
C1752 H1744 0.950 . S
C1752 C1753 1.386 . S
C1752 C1754 1.391 . S
C1753 C1752 1.386 . S
C1753 C1757 1.393 . S
C1754 H1746 0.950 . S
C1754 C1752 1.391 . S
C1754 C1755 1.400 . S
C1755 C1754 1.400 . S
C1755 C1756 1.398 . S
C1755 C1761 1.491 . S
C1756 H1747 0.950 . S
C1756 C1755 1.398 . S
C1756 C1757 1.391 . S
C1757 H1745 0.950 . S
C1757 C1753 1.393 . S
C1757 C1756 1.391 . S
C1758 H1748 0.950 . S
C1758 C1759 1.386 . S
C1758 C1760 1.391 . S
C1759 C1758 1.386 . S
C1759 C1763 1.393 . S
C1760 H1749 0.950 . S
C1760 C1758 1.391 . S
C1760 C1761 1.400 . S
C1761 C1755 1.491 . S
C1761 C1760 1.400 . S
C1761 C1762 1.398 . S
C1762 H1750 0.950 . S
C1762 C1761 1.398 . S
C1762 C1763 1.391 . S
C1763 H1751 0.950 . S
C1763 C1759 1.393 . S
C1763 C1762 1.391 . S
H1764 C1772 0.950 . S
H1765 C1777 0.950 . S
H1766 C1774 0.950 . S
H1767 C1776 0.950 . S
H1768 C1778 0.950 . S
H1769 C1780 0.950 1_545 S
H1770 C1782 0.950 . S
H1771 C1783 0.950 . S
C1772 H1764 0.950 . S
C1772 C1773 1.386 . S
C1772 C1774 1.391 . S
C1773 C1772 1.386 . S
C1773 C1777 1.393 . S
C1774 H1766 0.950 . S
C1774 C1772 1.391 . S
C1774 C1775 1.400 . S
C1775 C1774 1.400 . S
C1775 C1776 1.398 . S
C1775 C1781 1.491 . S
C1776 H1767 0.950 . S
C1776 C1775 1.398 . S
C1776 C1777 1.391 . S
C1777 H1765 0.950 . S
C1777 C1773 1.393 . S
C1777 C1776 1.391 . S
C1778 H1768 0.950 . S
C1778 C1779 1.386 1_545 S
C1778 C1780 1.391 1_545 S
C1779 C1778 1.386 1_565 S
C1779 C1783 1.393 . S
C1780 H1769 0.950 1_565 S
C1780 C1778 1.391 1_565 S
C1780 C1781 1.400 . S
C1781 C1775 1.491 . S
C1781 C1780 1.400 . S
C1781 C1782 1.398 . S
C1782 H1770 0.950 . S
C1782 C1781 1.398 . S
C1782 C1783 1.391 . S
C1783 H1771 0.950 . S
C1783 C1779 1.393 . S
C1783 C1782 1.391 . S
H1784 C1792 0.950 . S
H1785 C1797 0.950 . S
H1786 C1794 0.950 . S
H1787 C1796 0.950 . S
H1788 C1798 0.950 . S
H1789 C1800 0.950 . S
H1790 C1802 0.950 . S
H1791 C1803 0.950 . S
C1792 H1784 0.950 . S
C1792 C1793 1.386 . S
C1792 C1794 1.391 . S
C1793 C1792 1.386 . S
C1793 C1797 1.393 . S
C1794 H1786 0.950 . S
C1794 C1792 1.391 . S
C1794 C1795 1.400 . S
C1795 C1794 1.400 . S
C1795 C1796 1.398 . S
C1795 C1801 1.491 . S
C1796 H1787 0.950 . S
C1796 C1795 1.398 . S
C1796 C1797 1.391 . S
C1797 H1785 0.950 . S
C1797 C1793 1.393 . S
C1797 C1796 1.391 . S
C1798 H1788 0.950 . S
C1798 C1799 1.386 . S
C1798 C1800 1.391 . S
C1799 C1798 1.386 . S
C1799 C1803 1.393 . S
C1800 H1789 0.950 . S
C1800 C1798 1.391 . S
C1800 C1801 1.400 . S
C1801 C1795 1.491 . S
C1801 C1800 1.400 . S
C1801 C1802 1.398 . S
C1802 H1790 0.950 . S
C1802 C1801 1.398 . S
C1802 C1803 1.391 . S
C1803 H1791 0.950 . S
C1803 C1799 1.393 . S
C1803 C1802 1.391 . S
H1804 C1812 0.950 . S
H1805 C1817 0.950 . S
H1806 C1814 0.950 . S
H1807 C1816 0.950 . S
H1808 C1818 0.950 . S
H1809 C1820 0.950 . S
H1810 C1822 0.950 . S
H1811 C1823 0.950 . S
C1812 H1804 0.950 . S
C1812 C1813 1.386 . S
C1812 C1814 1.391 . S
C1813 C1812 1.386 . S
C1813 C1817 1.393 . S
C1814 H1806 0.950 . S
C1814 C1812 1.391 . S
C1814 C1815 1.400 . S
C1815 C1814 1.400 . S
C1815 C1816 1.398 . S
C1815 C1821 1.491 . S
C1816 H1807 0.950 . S
C1816 C1815 1.398 . S
C1816 C1817 1.391 . S
C1817 H1805 0.950 . S
C1817 C1813 1.393 . S
C1817 C1816 1.391 . S
C1818 H1808 0.950 . S
C1818 C1819 1.386 . S
C1818 C1820 1.391 . S
C1819 C1818 1.386 . S
C1819 C1823 1.393 . S
C1820 H1809 0.950 . S
C1820 C1818 1.391 . S
C1820 C1821 1.400 . S
C1821 C1815 1.491 . S
C1821 C1820 1.400 . S
C1821 C1822 1.398 . S
C1822 H1810 0.950 . S
C1822 C1821 1.398 . S
C1822 C1823 1.391 . S
C1823 H1811 0.950 . S
C1823 C1819 1.393 . S
C1823 C1822 1.391 . S
H1824 C1832 0.950 . S
H1825 C1837 0.950 . S
H1826 C1834 0.950 . S
H1827 C1836 0.950 . S
H1828 C1838 0.950 . S
H1829 C1840 0.950 . S
H1830 C1842 0.950 1_554 S
H1831 C1843 0.950 . S
C1832 H1824 0.950 . S
C1832 C1833 1.386 . S
C1832 C1834 1.391 . S
C1833 C1832 1.386 . S
C1833 C1837 1.393 . S
C1834 H1826 0.950 . S
C1834 C1832 1.391 . S
C1834 C1835 1.400 . S
C1835 C1834 1.400 . S
C1835 C1836 1.398 . S
C1835 C1841 1.491 . S
C1836 H1827 0.950 . S
C1836 C1835 1.398 . S
C1836 C1837 1.391 . S
C1837 H1825 0.950 . S
C1837 C1833 1.393 . S
C1837 C1836 1.391 . S
C1838 H1828 0.950 . S
C1838 C1839 1.386 . S
C1838 C1840 1.391 . S
C1839 C1838 1.386 . S
C1839 C1843 1.393 1_556 S
C1840 H1829 0.950 . S
C1840 C1838 1.391 . S
C1840 C1841 1.400 . S
C1841 C1835 1.491 . S
C1841 C1840 1.400 . S
C1841 C1842 1.398 . S
C1842 H1830 0.950 1_556 S
C1842 C1841 1.398 . S
C1842 C1843 1.391 1_556 S
C1843 H1831 0.950 . S
C1843 C1839 1.393 1_554 S
C1843 C1842 1.391 1_554 S
H1844 C1852 0.950 . S
H1845 C1857 0.950 . S
H1846 C1854 0.950 . S
H1847 C1856 0.950 . S
H1848 C1858 0.950 . S
H1849 C1860 0.950 . S
H1850 C1862 0.950 . S
H1851 C1863 0.950 . S
C1852 H1844 0.950 . S
C1852 C1853 1.386 . S
C1852 C1854 1.391 . S
C1853 C1852 1.386 . S
C1853 C1857 1.393 . S
C1854 H1846 0.950 . S
C1854 C1852 1.391 . S
C1854 C1855 1.400 . S
C1855 C1854 1.400 . S
C1855 C1856 1.398 . S
C1855 C1861 1.491 . S
C1856 H1847 0.950 . S
C1856 C1855 1.398 . S
C1856 C1857 1.391 . S
C1857 H1845 0.950 . S
C1857 C1853 1.393 . S
C1857 C1856 1.391 . S
C1858 H1848 0.950 . S
C1858 C1859 1.386 . S
C1858 C1860 1.391 . S
C1859 C1858 1.386 . S
C1859 C1863 1.393 . S
C1860 H1849 0.950 . S
C1860 C1858 1.391 . S
C1860 C1861 1.400 . S
C1861 C1855 1.491 . S
C1861 C1860 1.400 . S
C1861 C1862 1.398 . S
C1862 H1850 0.950 . S
C1862 C1861 1.398 . S
C1862 C1863 1.391 . S
C1863 H1851 0.950 . S
C1863 C1859 1.393 . S
C1863 C1862 1.391 . S
H1864 C1872 0.950 . S
H1865 C1877 0.950 . S
H1866 C1874 0.950 . S
H1867 C1876 0.950 . S
H1868 C1878 0.950 . S
H1869 C1880 0.950 . S
H1870 C1882 0.950 . S
H1871 C1883 0.950 . S
C1872 H1864 0.950 . S
C1872 C1873 1.386 . S
C1872 C1874 1.391 . S
C1873 C1872 1.386 . S
C1873 C1877 1.393 . S
C1874 H1866 0.950 . S
C1874 C1872 1.391 . S
C1874 C1875 1.400 . S
C1875 C1874 1.400 . S
C1875 C1876 1.398 . S
C1875 C1881 1.491 . S
C1876 H1867 0.950 . S
C1876 C1875 1.398 . S
C1876 C1877 1.391 . S
C1877 H1865 0.950 . S
C1877 C1873 1.393 . S
C1877 C1876 1.391 . S
C1878 H1868 0.950 . S
C1878 C1879 1.386 . S
C1878 C1880 1.391 . S
C1879 C1878 1.386 . S
C1879 C1883 1.393 . S
C1880 H1869 0.950 . S
C1880 C1878 1.391 . S
C1880 C1881 1.400 . S
C1881 C1875 1.491 . S
C1881 C1880 1.400 . S
C1881 C1882 1.398 . S
C1882 H1870 0.950 . S
C1882 C1881 1.398 . S
C1882 C1883 1.391 . S
C1883 H1871 0.950 . S
C1883 C1879 1.393 . S
C1883 C1882 1.391 . S
H1884 C1892 0.950 . S
H1885 C1897 0.950 . S
H1886 C1894 0.950 . S
H1887 C1896 0.950 . S
H1888 C1898 0.950 . S
H1889 C1900 0.950 . S
H1890 C1902 0.950 . S
H1891 C1903 0.950 . S
C1892 H1884 0.950 . S
C1892 C1893 1.386 . S
C1892 C1894 1.391 . S
C1893 C1892 1.386 . S
C1893 C1897 1.393 . S
C1894 H1886 0.950 . S
C1894 C1892 1.391 . S
C1894 C1895 1.400 . S
C1895 C1894 1.400 . S
C1895 C1896 1.398 . S
C1895 C1901 1.491 . S
C1896 H1887 0.950 . S
C1896 C1895 1.398 . S
C1896 C1897 1.391 . S
C1897 H1885 0.950 . S
C1897 C1893 1.393 . S
C1897 C1896 1.391 . S
C1898 H1888 0.950 . S
C1898 C1899 1.386 . S
C1898 C1900 1.391 . S
C1899 C1898 1.386 . S
C1899 C1903 1.393 . S
C1900 H1889 0.950 . S
C1900 C1898 1.391 . S
C1900 C1901 1.400 . S
C1901 C1895 1.491 . S
C1901 C1900 1.400 . S
C1901 C1902 1.398 . S
C1902 H1890 0.950 . S
C1902 C1901 1.398 . S
C1902 C1903 1.391 . S
C1903 H1891 0.950 . S
C1903 C1899 1.393 . S
C1903 C1902 1.391 . S
H1904 C1912 0.950 . S
H1905 C1917 0.950 . S
H1906 C1914 0.950 . S
H1907 C1916 0.950 . S
H1908 C1918 0.950 . S
H1909 C1920 0.950 . S
H1910 C1922 0.950 . S
H1911 C1923 0.950 . S
C1912 H1904 0.950 . S
C1912 C1913 1.386 . S
C1912 C1914 1.391 . S
C1913 C1912 1.386 . S
C1913 C1917 1.393 1_455 S
C1914 H1906 0.950 . S
C1914 C1912 1.391 . S
C1914 C1915 1.400 . S
C1915 C1914 1.400 . S
C1915 C1916 1.398 . S
C1915 C1921 1.491 . S
C1916 H1907 0.950 . S
C1916 C1915 1.398 . S
C1916 C1917 1.391 1_455 S
C1917 H1905 0.950 . S
C1917 C1913 1.393 1_655 S
C1917 C1916 1.391 1_655 S
C1918 H1908 0.950 . S
C1918 C1919 1.386 . S
C1918 C1920 1.391 . S
C1919 C1918 1.386 . S
C1919 C1923 1.393 . S
C1920 H1909 0.950 . S
C1920 C1918 1.391 . S
C1920 C1921 1.400 . S
C1921 C1915 1.491 . S
C1921 C1920 1.400 . S
C1921 C1922 1.398 . S
C1922 H1910 0.950 . S
C1922 C1921 1.398 . S
C1922 C1923 1.391 . S
C1923 H1911 0.950 . S
C1923 C1919 1.393 . S
C1923 C1922 1.391 . S
H1924 C1932 0.950 . S
H1925 C1937 0.950 . S
H1926 C1934 0.950 . S
H1927 C1936 0.950 . S
H1928 C1938 0.950 . S
H1929 C1940 0.950 . S
H1930 C1942 0.950 . S
H1931 C1943 0.950 . S
C1932 H1924 0.950 . S
C1932 C1933 1.386 . S
C1932 C1934 1.391 . S
C1933 C1932 1.386 . S
C1933 C1937 1.393 . S
C1934 H1926 0.950 . S
C1934 C1932 1.391 . S
C1934 C1935 1.400 . S
C1935 C1934 1.400 . S
C1935 C1936 1.398 . S
C1935 C1941 1.491 . S
C1936 H1927 0.950 . S
C1936 C1935 1.398 . S
C1936 C1937 1.391 . S
C1937 H1925 0.950 . S
C1937 C1933 1.393 . S
C1937 C1936 1.391 . S
C1938 H1928 0.950 . S
C1938 C1939 1.386 . S
C1938 C1940 1.391 . S
C1939 C1938 1.386 . S
C1939 C1943 1.393 . S
C1940 H1929 0.950 . S
C1940 C1938 1.391 . S
C1940 C1941 1.400 . S
C1941 C1935 1.491 . S
C1941 C1940 1.400 . S
C1941 C1942 1.398 . S
C1942 H1930 0.950 . S
C1942 C1941 1.398 . S
C1942 C1943 1.391 . S
C1943 H1931 0.950 . S
C1943 C1939 1.393 . S
C1943 C1942 1.391 . S
H1944 C1952 0.950 . S
H1945 C1957 0.950 . S
H1946 C1954 0.950 . S
H1947 C1956 0.950 . S
H1948 C1958 0.950 . S
H1949 C1960 0.950 . S
H1950 C1962 0.950 . S
H1951 C1963 0.950 . S
C1952 H1944 0.950 . S
C1952 C1953 1.386 . S
C1952 C1954 1.391 . S
C1953 C1952 1.386 . S
C1953 C1957 1.393 . S
C1954 H1946 0.950 . S
C1954 C1952 1.391 . S
C1954 C1955 1.400 . S
C1955 C1954 1.400 . S
C1955 C1956 1.398 . S
C1955 C1961 1.491 . S
C1956 H1947 0.950 . S
C1956 C1955 1.398 . S
C1956 C1957 1.391 . S
C1957 H1945 0.950 . S
C1957 C1953 1.393 . S
C1957 C1956 1.391 . S
C1958 H1948 0.950 . S
C1958 C1959 1.386 . S
C1958 C1960 1.391 . S
C1959 C1958 1.386 . S
C1959 C1963 1.393 . S
C1960 H1949 0.950 . S
C1960 C1958 1.391 . S
C1960 C1961 1.400 . S
C1961 C1955 1.491 . S
C1961 C1960 1.400 . S
C1961 C1962 1.398 . S
C1962 H1950 0.950 . S
C1962 C1961 1.398 . S
C1962 C1963 1.391 . S
C1963 H1951 0.950 . S
C1963 C1959 1.393 . S
C1963 C1962 1.391 . S
H1964 C1972 0.950 . S
H1965 C1977 0.950 . S
H1966 C1974 0.950 . S
H1967 C1976 0.950 . S
H1968 C1978 0.950 . S
H1969 C1980 0.950 . S
H1970 C1982 0.950 . S
H1971 C1983 0.950 . S
C1972 H1964 0.950 . S
C1972 C1973 1.386 . S
C1972 C1974 1.391 . S
C1973 C1972 1.386 . S
C1973 C1977 1.393 . S
C1974 H1966 0.950 . S
C1974 C1972 1.391 . S
C1974 C1975 1.400 . S
C1975 C1974 1.400 . S
C1975 C1976 1.398 . S
C1975 C1981 1.491 . S
C1976 H1967 0.950 . S
C1976 C1975 1.398 . S
C1976 C1977 1.391 . S
C1977 H1965 0.950 . S
C1977 C1973 1.393 . S
C1977 C1976 1.391 . S
C1978 H1968 0.950 . S
C1978 C1979 1.386 . S
C1978 C1980 1.391 . S
C1979 C1978 1.386 . S
C1979 C1983 1.393 . S
C1980 H1969 0.950 . S
C1980 C1978 1.391 . S
C1980 C1981 1.400 . S
C1981 C1975 1.491 . S
C1981 C1980 1.400 . S
C1981 C1982 1.398 . S
C1982 H1970 0.950 . S
C1982 C1981 1.398 . S
C1982 C1983 1.391 . S
C1983 H1971 0.950 . S
C1983 C1979 1.393 . S
C1983 C1982 1.391 . S
H1984 C1992 0.950 . S
H1985 C1997 0.950 . S
H1986 C1994 0.950 . S
H1987 C1996 0.950 . S
H1988 C1998 0.950 1_455 S
H1989 C2000 0.950 . S
H1990 C2002 0.950 . S
H1991 C2003 0.950 . S
C1992 H1984 0.950 . S
C1992 C1993 1.386 . S
C1992 C1994 1.391 . S
C1993 C1992 1.386 . S
C1993 C1997 1.393 . S
C1994 H1986 0.950 . S
C1994 C1992 1.391 . S
C1994 C1995 1.400 . S
C1995 C1994 1.400 . S
C1995 C1996 1.398 . S
C1995 C2001 1.491 . S
C1996 H1987 0.950 . S
C1996 C1995 1.398 . S
C1996 C1997 1.391 . S
C1997 H1985 0.950 . S
C1997 C1993 1.393 . S
C1997 C1996 1.391 . S
C1998 H1988 0.950 1_655 S
C1998 C1999 1.386 . S
C1998 C2000 1.391 . S
C1999 C1998 1.386 . S
C1999 C2003 1.393 . S
C2000 H1989 0.950 . S
C2000 C1998 1.391 . S
C2000 C2001 1.400 . S
C2001 C1995 1.491 . S
C2001 C2000 1.400 . S
C2001 C2002 1.398 . S
C2002 H1990 0.950 . S
C2002 C2001 1.398 . S
C2002 C2003 1.391 . S
C2003 H1991 0.950 . S
C2003 C1999 1.393 . S
C2003 C2002 1.391 . S
H2004 C2012 0.950 . S
H2005 C2017 0.950 . S
H2006 C2014 0.950 . S
H2007 C2016 0.950 . S
H2008 C2018 0.950 . S
H2009 C2020 0.950 . S
H2010 C2022 0.950 . S
H2011 C2023 0.950 . S
C2012 H2004 0.950 . S
C2012 C2013 1.386 . S
C2012 C2014 1.391 . S
C2013 C2012 1.386 . S
C2013 C2017 1.393 . S
C2014 H2006 0.950 . S
C2014 C2012 1.391 . S
C2014 C2015 1.400 . S
C2015 C2014 1.400 . S
C2015 C2016 1.398 . S
C2015 C2021 1.491 . S
C2016 H2007 0.950 . S
C2016 C2015 1.398 . S
C2016 C2017 1.391 . S
C2017 H2005 0.950 . S
C2017 C2013 1.393 . S
C2017 C2016 1.391 . S
C2018 H2008 0.950 . S
C2018 C2019 1.386 . S
C2018 C2020 1.391 . S
C2019 C2018 1.386 . S
C2019 C2023 1.393 . S
C2020 H2009 0.950 . S
C2020 C2018 1.391 . S
C2020 C2021 1.400 . S
C2021 C2015 1.491 . S
C2021 C2020 1.400 . S
C2021 C2022 1.398 . S
C2022 H2010 0.950 . S
C2022 C2021 1.398 . S
C2022 C2023 1.391 . S
C2023 H2011 0.950 . S
C2023 C2019 1.393 . S
C2023 C2022 1.391 . S
H2024 C2032 0.938 1_565 S
H2025 C2037 0.950 . S
H2026 C2034 0.950 1_565 S
H2027 C2036 0.950 . S
H2028 C2038 0.950 . S
H2029 C2040 0.950 . S
H2030 C2042 0.950 1_565 S
H2031 C2043 0.950 1_565 S
C2032 H2024 0.938 1_545 S
C2032 C2033 1.396 . S
C2032 C2034 1.393 . S
C2033 C2032 1.396 . S
C2033 C2037 1.393 . S
C2034 H2026 0.950 1_545 S
C2034 C2032 1.393 . S
C2034 C2035 1.400 . S
C2035 C2034 1.400 . S
C2035 C2036 1.398 . S
C2035 C2041 1.491 . S
C2036 H2027 0.950 . S
C2036 C2035 1.398 . S
C2036 C2037 1.391 . S
C2037 H2025 0.950 . S
C2037 C2033 1.393 . S
C2037 C2036 1.391 . S
C2038 H2028 0.950 . S
C2038 C2039 1.386 . S
C2038 C2040 1.391 . S
C2039 C2038 1.386 . S
C2039 C2043 1.393 . S
C2040 H2029 0.950 . S
C2040 C2038 1.391 . S
C2040 C2041 1.400 . S
C2041 C2035 1.491 . S
C2041 C2040 1.400 . S
C2041 C2042 1.398 . S
C2042 H2030 0.950 1_545 S
C2042 C2041 1.398 . S
C2042 C2043 1.391 . S
C2043 H2031 0.950 1_545 S
C2043 C2039 1.393 . S
C2043 C2042 1.391 . S
H2044 C2052 0.950 . S
H2045 C2057 0.950 . S
H2046 C2054 0.950 . S
H2047 C2056 0.950 . S
H2048 C2058 0.950 . S
H2049 C2060 0.950 . S
H2050 C2062 0.950 . S
H2051 C2063 0.950 . S
C2052 H2044 0.950 . S
C2052 C2053 1.386 . S
C2052 C2054 1.391 . S
C2053 C2052 1.386 . S
C2053 C2057 1.393 . S
C2054 H2046 0.950 . S
C2054 C2052 1.391 . S
C2054 C2055 1.400 . S
C2055 C2054 1.400 . S
C2055 C2056 1.398 . S
C2055 C2061 1.491 . S
C2056 H2047 0.950 . S
C2056 C2055 1.398 . S
C2056 C2057 1.391 . S
C2057 H2045 0.950 . S
C2057 C2053 1.393 . S
C2057 C2056 1.391 . S
C2058 H2048 0.950 . S
C2058 C2059 1.386 . S
C2058 C2060 1.391 . S
C2059 C2058 1.386 . S
C2059 C2063 1.393 . S
C2060 H2049 0.950 . S
C2060 C2058 1.391 . S
C2060 C2061 1.400 . S
C2061 C2055 1.491 . S
C2061 C2060 1.400 . S
C2061 C2062 1.398 . S
C2062 H2050 0.950 . S
C2062 C2061 1.398 . S
C2062 C2063 1.391 . S
C2063 H2051 0.950 . S
C2063 C2059 1.393 . S
C2063 C2062 1.391 . S
H2064 C2072 0.950 . S
H2065 C2077 0.950 . S
H2066 C2074 0.950 . S
H2067 C2076 0.950 . S
H2068 C2078 0.950 1_465 S
H2069 C2080 0.950 . S
H2070 C2082 0.950 . S
H2071 C2083 0.950 . S
C2072 H2064 0.950 . S
C2072 C2073 1.386 . S
C2072 C2074 1.391 . S
C2073 C2072 1.386 . S
C2073 C2077 1.393 . S
C2074 H2066 0.950 . S
C2074 C2072 1.391 . S
C2074 C2075 1.400 . S
C2075 C2074 1.400 . S
C2075 C2076 1.398 . S
C2075 C2081 1.491 . S
C2076 H2067 0.950 . S
C2076 C2075 1.398 . S
C2076 C2077 1.391 . S
C2077 H2065 0.950 . S
C2077 C2073 1.393 . S
C2077 C2076 1.391 . S
C2078 H2068 0.950 1_645 S
C2078 C2079 1.386 . S
C2078 C2080 1.391 . S
C2079 C2078 1.386 . S
C2079 C2083 1.393 . S
C2080 H2069 0.950 . S
C2080 C2078 1.391 . S
C2080 C2081 1.400 . S
C2081 C2075 1.491 . S
C2081 C2080 1.400 . S
C2081 C2082 1.398 . S
C2082 H2070 0.950 . S
C2082 C2081 1.398 . S
C2082 C2083 1.391 . S
C2083 H2071 0.950 . S
C2083 C2079 1.393 . S
C2083 C2082 1.391 . S
H2084 C2092 0.950 . S
H2085 C2097 0.950 . S
H2086 C2094 0.950 . S
H2087 C2096 0.950 . S
H2088 C2098 0.950 . S
H2089 C2100 0.950 . S
H2090 C2102 0.950 . S
H2091 C2103 0.950 . S
C2092 H2084 0.950 . S
C2092 C2093 1.386 . S
C2092 C2094 1.391 . S
C2093 C2092 1.386 . S
C2093 C2097 1.393 . S
C2094 H2086 0.950 . S
C2094 C2092 1.391 . S
C2094 C2095 1.400 . S
C2095 C2094 1.400 . S
C2095 C2096 1.398 . S
C2095 C2101 1.491 . S
C2096 H2087 0.950 . S
C2096 C2095 1.398 . S
C2096 C2097 1.391 . S
C2097 H2085 0.950 . S
C2097 C2093 1.393 . S
C2097 C2096 1.391 . S
C2098 H2088 0.950 . S
C2098 C2099 1.386 . S
C2098 C2100 1.391 . S
C2099 C2098 1.386 . S
C2099 C2103 1.393 . S
C2100 H2089 0.950 . S
C2100 C2098 1.391 . S
C2100 C2101 1.400 . S
C2101 C2095 1.491 . S
C2101 C2100 1.400 . S
C2101 C2102 1.398 . S
C2102 H2090 0.950 . S
C2102 C2101 1.398 . S
C2102 C2103 1.391 . S
C2103 H2091 0.950 . S
C2103 C2099 1.393 . S
C2103 C2102 1.391 . S
H2104 C2112 0.950 . S
H2105 C2117 0.950 . S
H2106 C2114 0.950 . S
H2107 C2116 0.950 1_565 S
H2108 C2118 0.950 . S
H2109 C2120 0.950 . S
H2110 C2122 0.950 . S
H2111 C2123 0.950 . S
C2112 H2104 0.950 . S
C2112 C2113 1.386 . S
C2112 C2114 1.391 . S
C2113 C2112 1.386 . S
C2113 C2117 1.393 1_545 S
C2114 H2106 0.950 . S
C2114 C2112 1.391 . S
C2114 C2115 1.400 . S
C2115 C2114 1.400 . S
C2115 C2116 1.398 . S
C2115 C2121 1.491 . S
C2116 H2107 0.950 1_545 S
C2116 C2115 1.398 . S
C2116 C2117 1.391 1_545 S
C2117 H2105 0.950 . S
C2117 C2113 1.393 1_565 S
C2117 C2116 1.391 1_565 S
C2118 H2108 0.950 . S
C2118 C2119 1.386 . S
C2118 C2120 1.391 . S
C2119 C2118 1.386 . S
C2119 C2123 1.393 . S
C2120 H2109 0.950 . S
C2120 C2118 1.391 . S
C2120 C2121 1.400 . S
C2121 C2115 1.491 . S
C2121 C2120 1.400 . S
C2121 C2122 1.398 . S
C2122 H2110 0.950 . S
C2122 C2121 1.398 . S
C2122 C2123 1.391 . S
C2123 H2111 0.950 . S
C2123 C2119 1.393 . S
C2123 C2122 1.391 . S
H2124 C2132 0.950 . S
H2125 C2137 0.950 . S
H2126 C2134 0.950 . S
H2127 C2136 0.950 . S
H2128 C2138 0.950 . S
H2129 C2140 0.950 . S
H2130 C2142 0.950 . S
H2131 C2143 0.950 . S
C2132 H2124 0.950 . S
C2132 C2133 1.386 . S
C2132 C2134 1.391 . S
C2133 C2132 1.386 . S
C2133 C2137 1.393 . S
C2134 H2126 0.950 . S
C2134 C2132 1.391 . S
C2134 C2135 1.400 . S
C2135 C2134 1.400 . S
C2135 C2136 1.398 . S
C2135 C2141 1.491 . S
C2136 H2127 0.950 . S
C2136 C2135 1.398 . S
C2136 C2137 1.391 . S
C2137 H2125 0.950 . S
C2137 C2133 1.393 . S
C2137 C2136 1.391 . S
C2138 H2128 0.950 . S
C2138 C2139 1.386 . S
C2138 C2140 1.391 . S
C2139 C2138 1.386 . S
C2139 C2143 1.393 . S
C2140 H2129 0.950 . S
C2140 C2138 1.391 . S
C2140 C2141 1.400 . S
C2141 C2135 1.491 . S
C2141 C2140 1.400 . S
C2141 C2142 1.398 . S
C2142 H2130 0.950 . S
C2142 C2141 1.398 . S
C2142 C2143 1.391 . S
C2143 H2131 0.950 . S
C2143 C2139 1.393 . S
C2143 C2142 1.391 . S
H2144 C2152 0.950 . S
H2145 C2157 0.950 . S
H2146 C2154 0.950 . S
H2147 C2156 0.950 . S
H2148 C2158 0.950 . S
H2149 C2160 0.950 . S
H2150 C2162 0.950 . S
H2151 C2163 0.950 . S
C2152 H2144 0.950 . S
C2152 C2153 1.386 . S
C2152 C2154 1.391 . S
C2153 C2152 1.386 . S
C2153 C2157 1.393 . S
C2154 H2146 0.950 . S
C2154 C2152 1.391 . S
C2154 C2155 1.400 . S
C2155 C2154 1.400 . S
C2155 C2156 1.398 . S
C2155 C2161 1.491 . S
C2156 H2147 0.950 . S
C2156 C2155 1.398 . S
C2156 C2157 1.391 . S
C2157 H2145 0.950 . S
C2157 C2153 1.393 . S
C2157 C2156 1.391 . S
C2158 H2148 0.950 . S
C2158 C2159 1.386 . S
C2158 C2160 1.391 . S
C2159 C2158 1.386 . S
C2159 C2163 1.393 1_545 S
C2160 H2149 0.950 . S
C2160 C2158 1.391 . S
C2160 C2161 1.400 1_545 S
C2161 C2155 1.491 . S
C2161 C2160 1.400 1_565 S
C2161 C2162 1.398 . S
C2162 H2150 0.950 . S
C2162 C2161 1.398 . S
C2162 C2163 1.391 . S
C2163 H2151 0.950 . S
C2163 C2159 1.393 1_565 S
C2163 C2162 1.391 . S
H2164 C2172 0.950 . S
H2165 C2177 0.950 . S
H2166 C2174 0.950 . S
H2167 C2176 0.950 . S
H2168 C2178 0.950 . S
H2169 C2180 0.950 . S
H2170 C2182 0.950 . S
H2171 C2183 0.950 . S
C2172 H2164 0.950 . S
C2172 C2173 1.386 . S
C2172 C2174 1.391 . S
C2173 C2172 1.386 . S
C2173 C2177 1.393 1_556 S
C2174 H2166 0.950 . S
C2174 C2172 1.391 . S
C2174 C2175 1.400 1_556 S
C2175 C2174 1.400 1_554 S
C2175 C2176 1.398 . S
C2175 C2181 1.491 . S
C2176 H2167 0.950 . S
C2176 C2175 1.398 . S
C2176 C2177 1.391 . S
C2177 H2165 0.950 . S
C2177 C2173 1.393 1_554 S
C2177 C2176 1.391 . S
C2178 H2168 0.950 . S
C2178 C2179 1.386 . S
C2178 C2180 1.391 . S
C2179 C2178 1.386 . S
C2179 C2183 1.393 . S
C2180 H2169 0.950 . S
C2180 C2178 1.391 . S
C2180 C2181 1.400 . S
C2181 C2175 1.491 . S
C2181 C2180 1.400 . S
C2181 C2182 1.398 . S
C2182 H2170 0.950 . S
C2182 C2181 1.398 . S
C2182 C2183 1.391 . S
C2183 H2171 0.950 . S
C2183 C2179 1.393 . S
C2183 C2182 1.391 . S
H2184 C2192 0.950 . S
H2185 C2197 0.950 . S
H2186 C2194 0.950 . S
H2187 C2196 0.950 . S
H2188 C2198 0.950 . S
H2189 C2200 0.950 . S
H2190 C2202 0.950 . S
H2191 C2203 0.950 . S
C2192 H2184 0.950 . S
C2192 C2193 1.386 . S
C2192 C2194 1.391 . S
C2193 C2192 1.386 . S
C2193 C2197 1.393 . S
C2194 H2186 0.950 . S
C2194 C2192 1.391 . S
C2194 C2195 1.400 . S
C2195 C2194 1.400 . S
C2195 C2196 1.398 . S
C2195 C2201 1.491 . S
C2196 H2187 0.950 . S
C2196 C2195 1.398 . S
C2196 C2197 1.391 . S
C2197 H2185 0.950 . S
C2197 C2193 1.393 . S
C2197 C2196 1.391 . S
C2198 H2188 0.950 . S
C2198 C2199 1.386 . S
C2198 C2200 1.391 . S
C2199 C2198 1.386 . S
C2199 C2203 1.393 . S
C2200 H2189 0.950 . S
C2200 C2198 1.391 . S
C2200 C2201 1.400 . S
C2201 C2195 1.491 . S
C2201 C2200 1.400 . S
C2201 C2202 1.398 . S
C2202 H2190 0.950 . S
C2202 C2201 1.398 . S
C2202 C2203 1.391 . S
C2203 H2191 0.950 . S
C2203 C2199 1.393 . S
C2203 C2202 1.391 . S
H2204 C2212 0.950 . S
H2205 C2217 0.950 . S
H2206 C2214 0.950 . S
H2207 C2216 0.950 . S
H2208 C2218 0.950 . S
H2209 C2220 0.950 . S
H2210 C2222 0.950 . S
H2211 C2223 0.950 . S
C2212 H2204 0.950 . S
C2212 C2213 1.386 . S
C2212 C2214 1.391 . S
C2213 C2212 1.386 . S
C2213 C2217 1.393 . S
C2214 H2206 0.950 . S
C2214 C2212 1.391 . S
C2214 C2215 1.400 . S
C2215 C2214 1.400 . S
C2215 C2216 1.398 . S
C2215 C2221 1.491 . S
C2216 H2207 0.950 . S
C2216 C2215 1.398 . S
C2216 C2217 1.391 . S
C2217 H2205 0.950 . S
C2217 C2213 1.393 . S
C2217 C2216 1.391 . S
C2218 H2208 0.950 . S
C2218 C2219 1.386 . S
C2218 C2220 1.391 . S
C2219 C2218 1.386 . S
C2219 C2223 1.393 . S
C2220 H2209 0.950 . S
C2220 C2218 1.391 . S
C2220 C2221 1.400 . S
C2221 C2215 1.491 . S
C2221 C2220 1.400 . S
C2221 C2222 1.398 . S
C2222 H2210 0.950 . S
C2222 C2221 1.398 . S
C2222 C2223 1.391 . S
C2223 H2211 0.950 . S
C2223 C2219 1.393 . S
C2223 C2222 1.391 . S
H2224 C2232 0.950 . S
H2225 C2237 0.950 . S
H2226 C2234 0.950 . S
H2227 C2236 0.950 . S
H2228 C2238 0.950 . S
H2229 C2240 0.950 . S
H2230 C2242 0.950 . S
H2231 C2243 0.950 . S
C2232 H2224 0.950 . S
C2232 C2233 1.386 . S
C2232 C2234 1.391 1_545 S
C2233 C2232 1.386 . S
C2233 C2237 1.393 1_545 S
C2234 H2226 0.950 . S
C2234 C2232 1.391 1_565 S
C2234 C2235 1.400 . S
C2235 C2234 1.400 . S
C2235 C2236 1.398 . S
C2235 C2241 1.491 . S
C2236 H2227 0.950 . S
C2236 C2235 1.398 . S
C2236 C2237 1.391 . S
C2237 H2225 0.950 . S
C2237 C2233 1.393 1_565 S
C2237 C2236 1.391 . S
C2238 H2228 0.950 . S
C2238 C2239 1.386 . S
C2238 C2240 1.391 . S
C2239 C2238 1.386 . S
C2239 C2243 1.393 . S
C2240 H2229 0.950 . S
C2240 C2238 1.391 . S
C2240 C2241 1.400 . S
C2241 C2235 1.491 . S
C2241 C2240 1.400 . S
C2241 C2242 1.398 . S
C2242 H2230 0.950 . S
C2242 C2241 1.398 . S
C2242 C2243 1.391 . S
C2243 H2231 0.950 . S
C2243 C2239 1.393 . S
C2243 C2242 1.391 . S
H2244 C2252 0.950 . S
H2245 C2257 0.950 . S
H2246 C2254 0.950 . S
H2247 C2256 0.950 . S
H2248 C2258 0.950 . S
H2249 C2260 0.950 . S
H2250 C2262 0.950 . S
H2251 C2263 0.950 . S
C2252 H2244 0.950 . S
C2252 C2253 1.386 . S
C2252 C2254 1.391 . S
C2253 C2252 1.386 . S
C2253 C2257 1.393 . S
C2254 H2246 0.950 . S
C2254 C2252 1.391 . S
C2254 C2255 1.400 . S
C2255 C2254 1.400 . S
C2255 C2256 1.398 . S
C2255 C2261 1.491 . S
C2256 H2247 0.950 . S
C2256 C2255 1.398 . S
C2256 C2257 1.391 . S
C2257 H2245 0.950 . S
C2257 C2253 1.393 . S
C2257 C2256 1.391 . S
C2258 H2248 0.950 . S
C2258 C2259 1.386 . S
C2258 C2260 1.391 . S
C2259 C2258 1.386 . S
C2259 C2263 1.393 . S
C2260 H2249 0.950 . S
C2260 C2258 1.391 . S
C2260 C2261 1.400 . S
C2261 C2255 1.491 . S
C2261 C2260 1.400 . S
C2261 C2262 1.398 . S
C2262 H2250 0.950 . S
C2262 C2261 1.398 . S
C2262 C2263 1.391 . S
C2263 H2251 0.950 . S
C2263 C2259 1.393 . S
C2263 C2262 1.391 . S
H2264 C2272 0.950 . S
H2265 C2277 0.950 . S
H2266 C2274 0.950 . S
H2267 C2276 0.950 . S
H2268 C2278 0.950 . S
H2269 C2280 0.950 . S
H2270 C2282 0.950 . S
H2271 C2283 0.950 . S
C2272 H2264 0.950 . S
C2272 C2273 1.386 . S
C2272 C2274 1.391 . S
C2273 C2272 1.386 . S
C2273 C2277 1.393 . S
C2274 H2266 0.950 . S
C2274 C2272 1.391 . S
C2274 C2275 1.400 . S
C2275 C2274 1.400 . S
C2275 C2276 1.398 . S
C2275 C2281 1.491 . S
C2276 H2267 0.950 . S
C2276 C2275 1.398 . S
C2276 C2277 1.391 . S
C2277 H2265 0.950 . S
C2277 C2273 1.393 . S
C2277 C2276 1.391 . S
C2278 H2268 0.950 . S
C2278 C2279 1.386 . S
C2278 C2280 1.391 . S
C2279 C2278 1.386 . S
C2279 C2283 1.393 . S
C2280 H2269 0.950 . S
C2280 C2278 1.391 . S
C2280 C2281 1.400 . S
C2281 C2275 1.491 . S
C2281 C2280 1.400 . S
C2281 C2282 1.398 . S
C2282 H2270 0.950 . S
C2282 C2281 1.398 . S
C2282 C2283 1.391 . S
C2283 H2271 0.950 . S
C2283 C2279 1.393 . S
C2283 C2282 1.391 . S
H2284 C2292 0.950 . S
H2285 C2297 0.950 . S
H2286 C2294 0.950 . S
H2287 C2296 0.950 . S
H2288 C2298 0.950 . S
H2289 C2300 0.950 . S
H2290 C2302 0.950 . S
H2291 C2303 0.950 . S
C2292 H2284 0.950 . S
C2292 C2293 1.386 . S
C2292 C2294 1.391 . S
C2293 C2292 1.386 . S
C2293 C2297 1.393 . S
C2294 H2286 0.950 . S
C2294 C2292 1.391 . S
C2294 C2295 1.400 . S
C2295 C2294 1.400 . S
C2295 C2296 1.398 . S
C2295 C2301 1.491 . S
C2296 H2287 0.950 . S
C2296 C2295 1.398 . S
C2296 C2297 1.391 . S
C2297 H2285 0.950 . S
C2297 C2293 1.393 . S
C2297 C2296 1.391 . S
C2298 H2288 0.950 . S
C2298 C2299 1.386 . S
C2298 C2300 1.391 . S
C2299 C2298 1.386 . S
C2299 C2303 1.393 . S
C2300 H2289 0.950 . S
C2300 C2298 1.391 . S
C2300 C2301 1.400 . S
C2301 C2295 1.491 . S
C2301 C2300 1.400 . S
C2301 C2302 1.398 . S
C2302 H2290 0.950 . S
C2302 C2301 1.398 . S
C2302 C2303 1.391 . S
C2303 H2291 0.950 . S
C2303 C2299 1.393 . S
C2303 C2302 1.391 . S
H2304 C2312 0.950 . S
H2305 C2317 0.950 . S
H2306 C2314 0.950 . S
H2307 C2316 0.950 . S
H2308 C2318 0.950 . S
H2309 C2320 0.950 . S
H2310 C2322 0.950 . S
H2311 C2323 0.950 . S
C2312 H2304 0.950 . S
C2312 C2313 1.386 . S
C2312 C2314 1.391 . S
C2313 C2312 1.386 . S
C2313 C2317 1.393 . S
C2314 H2306 0.950 . S
C2314 C2312 1.391 . S
C2314 C2315 1.400 . S
C2315 C2314 1.400 . S
C2315 C2316 1.398 . S
C2315 C2321 1.491 . S
C2316 H2307 0.950 . S
C2316 C2315 1.398 . S
C2316 C2317 1.391 . S
C2317 H2305 0.950 . S
C2317 C2313 1.393 . S
C2317 C2316 1.391 . S
C2318 H2308 0.950 . S
C2318 C2319 1.386 . S
C2318 C2320 1.391 . S
C2319 C2318 1.386 . S
C2319 C2323 1.393 . S
C2320 H2309 0.950 . S
C2320 C2318 1.391 . S
C2320 C2321 1.400 . S
C2321 C2315 1.491 . S
C2321 C2320 1.400 . S
C2321 C2322 1.398 . S
C2322 H2310 0.950 . S
C2322 C2321 1.398 . S
C2322 C2323 1.391 . S
C2323 H2311 0.950 . S
C2323 C2319 1.393 . S
C2323 C2322 1.391 . S
H2324 C2332 0.950 . S
H2325 C2337 0.950 . S
H2326 C2334 0.950 . S
H2327 C2336 0.950 . S
H2328 C2338 0.950 . S
H2329 C2340 0.950 . S
H2330 C2342 0.950 . S
H2331 C2343 0.950 . S
C2332 H2324 0.950 . S
C2332 C2333 1.386 . S
C2332 C2334 1.391 . S
C2333 C2332 1.386 . S
C2333 C2337 1.393 . S
C2334 H2326 0.950 . S
C2334 C2332 1.391 . S
C2334 C2335 1.400 . S
C2335 C2334 1.400 . S
C2335 C2336 1.398 . S
C2335 C2341 1.491 . S
C2336 H2327 0.950 . S
C2336 C2335 1.398 . S
C2336 C2337 1.391 . S
C2337 H2325 0.950 . S
C2337 C2333 1.393 . S
C2337 C2336 1.391 . S
C2338 H2328 0.950 . S
C2338 C2339 1.386 . S
C2338 C2340 1.391 . S
C2339 C2338 1.386 . S
C2339 C2343 1.393 . S
C2340 H2329 0.950 . S
C2340 C2338 1.391 . S
C2340 C2341 1.400 . S
C2341 C2335 1.491 . S
C2341 C2340 1.400 . S
C2341 C2342 1.398 . S
C2342 H2330 0.950 . S
C2342 C2341 1.398 . S
C2342 C2343 1.391 . S
C2343 H2331 0.950 . S
C2343 C2339 1.393 . S
C2343 C2342 1.391 . S
H2344 C2352 0.950 . S
H2345 C2357 0.944 1_655 S
H2346 C2354 0.950 . S
H2347 C2356 0.950 . S
H2348 C2358 0.950 . S
H2349 C2360 0.950 . S
H2350 C2362 0.950 . S
H2351 C2363 0.950 . S
C2352 H2344 0.950 . S
C2352 C2353 1.386 . S
C2352 C2354 1.391 . S
C2353 C2352 1.386 . S
C2353 C2357 1.393 . S
C2354 H2346 0.950 . S
C2354 C2352 1.391 . S
C2354 C2355 1.400 . S
C2355 C2354 1.400 . S
C2355 C2356 1.398 . S
C2355 C2361 1.491 . S
C2356 H2347 0.950 . S
C2356 C2355 1.398 . S
C2356 C2357 1.391 . S
C2357 H2345 0.944 1_455 S
C2357 C2353 1.393 . S
C2357 C2356 1.391 . S
C2358 H2348 0.950 . S
C2358 C2359 1.386 . S
C2358 C2360 1.391 . S
C2359 C2358 1.386 . S
C2359 C2363 1.393 . S
C2360 H2349 0.950 . S
C2360 C2358 1.391 . S
C2360 C2361 1.400 . S
C2361 C2355 1.491 . S
C2361 C2360 1.400 . S
C2361 C2362 1.398 . S
C2362 H2350 0.950 . S
C2362 C2361 1.398 . S
C2362 C2363 1.391 . S
C2363 H2351 0.950 . S
C2363 C2359 1.393 . S
C2363 C2362 1.391 . S
H2364 C2372 0.950 . S
H2365 C2377 0.950 . S
H2366 C2374 0.950 . S
H2367 C2376 0.950 . S
H2368 C2378 0.950 . S
H2369 C2380 0.950 . S
H2370 C2382 0.950 . S
H2371 C2383 0.950 . S
C2372 H2364 0.950 . S
C2372 C2373 1.386 . S
C2372 C2374 1.391 . S
C2373 C2372 1.386 . S
C2373 C2377 1.393 . S
C2374 H2366 0.950 . S
C2374 C2372 1.391 . S
C2374 C2375 1.400 . S
C2375 C2374 1.400 . S
C2375 C2376 1.398 . S
C2375 C2381 1.491 . S
C2376 H2367 0.950 . S
C2376 C2375 1.398 . S
C2376 C2377 1.391 . S
C2377 H2365 0.950 . S
C2377 C2373 1.393 . S
C2377 C2376 1.391 . S
C2378 H2368 0.950 . S
C2378 C2379 1.386 . S
C2378 C2380 1.391 . S
C2379 C2378 1.386 . S
C2379 C2383 1.393 . S
C2380 H2369 0.950 . S
C2380 C2378 1.391 . S
C2380 C2381 1.400 . S
C2381 C2375 1.491 . S
C2381 C2380 1.400 . S
C2381 C2382 1.398 . S
C2382 H2370 0.950 . S
C2382 C2381 1.398 . S
C2382 C2383 1.391 . S
C2383 H2371 0.950 . S
C2383 C2379 1.393 . S
C2383 C2382 1.391 . S
H2384 C2392 0.950 . S
H2385 C2397 0.950 . S
H2386 C2394 0.950 . S
H2387 C2396 0.950 . S
H2388 C2398 0.950 . S
H2389 C2400 0.950 . S
H2390 C2402 0.950 . S
H2391 C2403 0.948 1_554 S
C2392 H2384 0.950 . S
C2392 C2393 1.386 . S
C2392 C2394 1.391 . S
C2393 C2392 1.386 . S
C2393 C2397 1.393 . S
C2394 H2386 0.950 . S
C2394 C2392 1.391 . S
C2394 C2395 1.400 . S
C2395 C2394 1.400 . S
C2395 C2396 1.398 . S
C2395 C2401 1.491 . S
C2396 H2387 0.950 . S
C2396 C2395 1.398 . S
C2396 C2397 1.391 . S
C2397 H2385 0.950 . S
C2397 C2393 1.393 . S
C2397 C2396 1.391 . S
C2398 H2388 0.950 . S
C2398 C2399 1.386 . S
C2398 C2400 1.391 . S
C2399 C2398 1.386 . S
C2399 C2403 1.394 . S
C2400 H2389 0.950 . S
C2400 C2398 1.391 . S
C2400 C2401 1.400 . S
C2401 C2395 1.491 . S
C2401 C2400 1.400 . S
C2401 C2402 1.398 . S
C2402 H2390 0.950 . S
C2402 C2401 1.398 . S
C2402 C2403 1.392 . S
C2403 H2391 0.948 1_556 S
C2403 C2399 1.394 . S
C2403 C2402 1.392 . S
H2404 C2412 0.950 . S
H2405 C2417 0.950 . S
H2406 C2414 0.950 . S
H2407 C2416 0.950 . S
H2408 C2418 0.950 . S
H2409 C2420 0.950 . S
H2410 C2422 0.950 . S
H2411 C2423 0.950 . S
C2412 H2404 0.950 . S
C2412 C2413 1.386 . S
C2412 C2414 1.391 . S
C2413 C2412 1.386 . S
C2413 C2417 1.393 . S
C2414 H2406 0.950 . S
C2414 C2412 1.391 . S
C2414 C2415 1.400 . S
C2415 C2414 1.400 . S
C2415 C2416 1.398 . S
C2415 C2421 1.491 . S
C2416 H2407 0.950 . S
C2416 C2415 1.398 . S
C2416 C2417 1.391 . S
C2417 H2405 0.950 . S
C2417 C2413 1.393 . S
C2417 C2416 1.391 . S
C2418 H2408 0.950 . S
C2418 C2419 1.386 . S
C2418 C2420 1.391 . S
C2419 C2418 1.386 . S
C2419 C2423 1.393 . S
C2420 H2409 0.950 . S
C2420 C2418 1.391 . S
C2420 C2421 1.400 . S
C2421 C2415 1.491 . S
C2421 C2420 1.400 . S
C2421 C2422 1.398 . S
C2422 H2410 0.950 . S
C2422 C2421 1.398 . S
C2422 C2423 1.391 . S
C2423 H2411 0.950 . S
C2423 C2419 1.393 . S
C2423 C2422 1.391 . S
H2424 C2432 0.950 . S
H2425 C2437 0.950 . S
H2426 C2434 0.950 . S
H2427 C2436 0.950 . S
H2428 C2438 0.950 . S
H2429 C2440 0.950 . S
H2430 C2442 0.950 . S
H2431 C2443 0.950 . S
C2432 H2424 0.950 . S
C2432 C2433 1.386 . S
C2432 C2434 1.391 . S
C2433 C2432 1.386 . S
C2433 C2437 1.393 . S
C2434 H2426 0.950 . S
C2434 C2432 1.391 . S
C2434 C2435 1.400 . S
C2435 C2434 1.400 . S
C2435 C2436 1.398 . S
C2435 C2441 1.491 . S
C2436 H2427 0.950 . S
C2436 C2435 1.398 . S
C2436 C2437 1.391 . S
C2437 H2425 0.950 . S
C2437 C2433 1.393 . S
C2437 C2436 1.391 . S
C2438 H2428 0.950 . S
C2438 C2439 1.386 . S
C2438 C2440 1.391 . S
C2439 C2438 1.386 . S
C2439 C2443 1.393 . S
C2440 H2429 0.950 . S
C2440 C2438 1.391 . S
C2440 C2441 1.400 . S
C2441 C2435 1.491 . S
C2441 C2440 1.400 . S
C2441 C2442 1.398 . S
C2442 H2430 0.950 . S
C2442 C2441 1.398 . S
C2442 C2443 1.391 . S
C2443 H2431 0.950 . S
C2443 C2439 1.393 . S
C2443 C2442 1.391 . S
H2444 C2452 0.950 . S
H2445 C2457 0.950 . S
H2446 C2454 0.950 . S
H2447 C2456 0.950 . S
H2448 C2458 0.950 . S
H2449 C2460 0.950 . S
H2450 C2462 0.950 . S
H2451 C2463 0.950 . S
C2452 H2444 0.950 . S
C2452 C2453 1.386 . S
C2452 C2454 1.391 . S
C2453 C2452 1.386 . S
C2453 C2457 1.393 . S
C2454 H2446 0.950 . S
C2454 C2452 1.391 . S
C2454 C2455 1.400 . S
C2455 C2454 1.400 . S
C2455 C2456 1.398 . S
C2455 C2461 1.491 . S
C2456 H2447 0.950 . S
C2456 C2455 1.398 . S
C2456 C2457 1.391 . S
C2457 H2445 0.950 . S
C2457 C2453 1.393 . S
C2457 C2456 1.391 . S
C2458 H2448 0.950 . S
C2458 C2459 1.386 . S
C2458 C2460 1.391 . S
C2459 C2458 1.386 . S
C2459 C2463 1.393 . S
C2460 H2449 0.950 . S
C2460 C2458 1.391 . S
C2460 C2461 1.400 . S
C2461 C2455 1.491 . S
C2461 C2460 1.400 . S
C2461 C2462 1.398 . S
C2462 H2450 0.950 . S
C2462 C2461 1.398 . S
C2462 C2463 1.391 . S
C2463 H2451 0.950 . S
C2463 C2459 1.393 . S
C2463 C2462 1.391 . S
H2464 C2472 0.950 . S
H2465 C2477 0.950 . S
H2466 C2474 0.950 . S
H2467 C2476 0.950 . S
H2468 C2478 0.950 . S
H2469 C2480 0.950 . S
H2470 C2482 0.950 . S
H2471 C2483 0.950 . S
C2472 H2464 0.950 . S
C2472 C2473 1.386 . S
C2472 C2474 1.391 . S
C2473 C2472 1.386 . S
C2473 C2477 1.393 . S
C2474 H2466 0.950 . S
C2474 C2472 1.391 . S
C2474 C2475 1.400 . S
C2475 C2474 1.400 . S
C2475 C2476 1.398 . S
C2475 C2481 1.491 . S
C2476 H2467 0.950 . S
C2476 C2475 1.398 . S
C2476 C2477 1.391 . S
C2477 H2465 0.950 . S
C2477 C2473 1.393 . S
C2477 C2476 1.391 . S
C2478 H2468 0.950 . S
C2478 C2479 1.386 . S
C2478 C2480 1.391 . S
C2479 C2478 1.386 . S
C2479 C2483 1.393 . S
C2480 H2469 0.950 . S
C2480 C2478 1.391 . S
C2480 C2481 1.400 . S
C2481 C2475 1.491 . S
C2481 C2480 1.400 . S
C2481 C2482 1.398 . S
C2482 H2470 0.950 . S
C2482 C2481 1.398 . S
C2482 C2483 1.391 . S
C2483 H2471 0.950 . S
C2483 C2479 1.393 . S
C2483 C2482 1.391 . S
H2484 C2492 0.950 . S
H2485 C2497 0.950 . S
H2486 C2494 0.950 . S
H2487 C2496 0.950 . S
H2488 C2498 0.950 . S
H2489 C2500 0.950 . S
H2490 C2502 0.950 . S
H2491 C2503 0.950 . S
C2492 H2484 0.950 . S
C2492 C2493 1.386 . S
C2492 C2494 1.391 . S
C2493 C2492 1.386 . S
C2493 C2497 1.393 . S
C2494 H2486 0.950 . S
C2494 C2492 1.391 . S
C2494 C2495 1.400 . S
C2495 C2494 1.400 . S
C2495 C2496 1.398 . S
C2495 C2501 1.491 . S
C2496 H2487 0.950 . S
C2496 C2495 1.398 . S
C2496 C2497 1.391 . S
C2497 H2485 0.950 . S
C2497 C2493 1.393 . S
C2497 C2496 1.391 . S
C2498 H2488 0.950 . S
C2498 C2499 1.386 . S
C2498 C2500 1.391 . S
C2499 C2498 1.386 . S
C2499 C2503 1.393 . S
C2500 H2489 0.950 . S
C2500 C2498 1.391 . S
C2500 C2501 1.400 . S
C2501 C2495 1.491 . S
C2501 C2500 1.400 . S
C2501 C2502 1.398 . S
C2502 H2490 0.950 . S
C2502 C2501 1.398 . S
C2502 C2503 1.391 . S
C2503 H2491 0.950 . S
C2503 C2499 1.393 . S
C2503 C2502 1.391 . S
H2504 C2512 0.950 . S
H2505 C2517 0.950 . S
H2506 C2514 0.950 . S
H2507 C2516 0.950 . S
H2508 C2518 0.950 . S
H2509 C2520 0.950 . S
H2510 C2522 0.950 . S
H2511 C2523 0.950 1_455 S
C2512 H2504 0.950 . S
C2512 C2513 1.386 . S
C2512 C2514 1.391 . S
C2513 C2512 1.386 . S
C2513 C2517 1.393 . S
C2514 H2506 0.950 . S
C2514 C2512 1.391 . S
C2514 C2515 1.400 . S
C2515 C2514 1.400 . S
C2515 C2516 1.398 . S
C2515 C2521 1.491 . S
C2516 H2507 0.950 . S
C2516 C2515 1.398 . S
C2516 C2517 1.391 . S
C2517 H2505 0.950 . S
C2517 C2513 1.393 . S
C2517 C2516 1.391 . S
C2518 H2508 0.950 . S
C2518 C2519 1.390 . S
C2518 C2520 1.391 . S
C2519 C2518 1.390 . S
C2519 C2523 1.394 . S
C2520 H2509 0.950 . S
C2520 C2518 1.391 . S
C2520 C2521 1.400 . S
C2521 C2515 1.491 . S
C2521 C2520 1.400 . S
C2521 C2522 1.398 . S
C2522 H2510 0.950 . S
C2522 C2521 1.398 . S
C2522 C2523 1.391 . S
C2523 H2511 0.950 1_655 S
C2523 C2519 1.394 . S
C2523 C2522 1.391 . S
H2524 C2532 0.950 . S
H2525 C2537 0.950 . S
H2526 C2534 0.950 . S
H2527 C2536 0.950 . S
H2528 C2538 0.950 . S
H2529 C2540 0.950 . S
H2530 C2542 0.950 . S
H2531 C2543 0.950 . S
C2532 H2524 0.950 . S
C2532 C2533 1.386 . S
C2532 C2534 1.391 . S
C2533 C2532 1.386 . S
C2533 C2537 1.393 . S
C2534 H2526 0.950 . S
C2534 C2532 1.391 . S
C2534 C2535 1.400 . S
C2535 C2534 1.400 . S
C2535 C2536 1.398 . S
C2535 C2541 1.491 . S
C2536 H2527 0.950 . S
C2536 C2535 1.398 . S
C2536 C2537 1.391 . S
C2537 H2525 0.950 . S
C2537 C2533 1.393 . S
C2537 C2536 1.391 . S
C2538 H2528 0.950 . S
C2538 C2539 1.386 . S
C2538 C2540 1.391 . S
C2539 C2538 1.386 . S
C2539 C2543 1.393 . S
C2540 H2529 0.950 . S
C2540 C2538 1.391 . S
C2540 C2541 1.400 . S
C2541 C2535 1.491 . S
C2541 C2540 1.400 . S
C2541 C2542 1.398 . S
C2542 H2530 0.950 . S
C2542 C2541 1.398 . S
C2542 C2543 1.391 . S
C2543 H2531 0.950 . S
C2543 C2539 1.393 . S
C2543 C2542 1.391 . S
H2544 C2552 0.950 . S
H2545 C2557 0.950 . S
H2546 C2554 0.950 . S
H2547 C2556 0.950 . S
H2548 C2558 0.950 . S
H2549 C2560 0.950 . S
H2550 C2562 0.950 . S
H2551 C2563 0.950 . S
C2552 H2544 0.950 . S
C2552 C2553 1.386 . S
C2552 C2554 1.391 . S
C2553 C2552 1.386 . S
C2553 C2557 1.393 . S
C2554 H2546 0.950 . S
C2554 C2552 1.391 . S
C2554 C2555 1.400 . S
C2555 C2554 1.400 . S
C2555 C2556 1.398 . S
C2555 C2561 1.491 . S
C2556 H2547 0.950 . S
C2556 C2555 1.398 . S
C2556 C2557 1.391 . S
C2557 H2545 0.950 . S
C2557 C2553 1.393 . S
C2557 C2556 1.391 . S
C2558 H2548 0.950 . S
C2558 C2559 1.386 . S
C2558 C2560 1.391 . S
C2559 C2558 1.386 . S
C2559 C2563 1.393 . S
C2560 H2549 0.950 . S
C2560 C2558 1.391 . S
C2560 C2561 1.400 . S
C2561 C2555 1.491 . S
C2561 C2560 1.400 . S
C2561 C2562 1.398 . S
C2562 H2550 0.950 . S
C2562 C2561 1.398 . S
C2562 C2563 1.391 . S
C2563 H2551 0.950 . S
C2563 C2559 1.393 . S
C2563 C2562 1.391 . S
H2564 C2572 0.950 . S
H2565 C2577 0.950 . S
H2566 C2574 0.950 . S
H2567 C2576 0.950 . S
H2568 C2578 0.950 . S
H2569 C2580 0.950 . S
H2570 C2582 0.950 . S
H2571 C2583 0.950 . S
C2572 H2564 0.950 . S
C2572 C2573 1.386 . S
C2572 C2574 1.391 . S
C2573 C2572 1.386 . S
C2573 C2577 1.393 . S
C2574 H2566 0.950 . S
C2574 C2572 1.391 . S
C2574 C2575 1.400 . S
C2575 C2574 1.400 . S
C2575 C2576 1.398 . S
C2575 C2581 1.491 . S
C2576 H2567 0.950 . S
C2576 C2575 1.398 . S
C2576 C2577 1.391 . S
C2577 H2565 0.950 . S
C2577 C2573 1.393 . S
C2577 C2576 1.391 . S
C2578 H2568 0.950 . S
C2578 C2579 1.386 . S
C2578 C2580 1.391 . S
C2579 C2578 1.386 . S
C2579 C2583 1.393 . S
C2580 H2569 0.950 . S
C2580 C2578 1.391 . S
C2580 C2581 1.400 . S
C2581 C2575 1.491 . S
C2581 C2580 1.400 . S
C2581 C2582 1.398 . S
C2582 H2570 0.950 . S
C2582 C2581 1.398 . S
C2582 C2583 1.391 . S
C2583 H2571 0.950 . S
C2583 C2579 1.393 . S
C2583 C2582 1.391 . S
H2584 C2592 0.950 . S
H2585 C2597 0.950 . S
H2586 C2594 0.950 . S
H2587 C2596 0.950 . S
H2588 C2598 0.950 . S
H2589 C2600 0.950 . S
H2590 C2602 0.974 . S
H2591 C2603 0.950 . S
C2592 H2584 0.950 . S
C2592 C2593 1.386 . S
C2592 C2594 1.391 . S
C2593 C2592 1.386 . S
C2593 C2597 1.393 . S
C2594 H2586 0.950 . S
C2594 C2592 1.391 . S
C2594 C2595 1.400 . S
C2595 C2594 1.400 . S
C2595 C2596 1.398 . S
C2595 C2601 1.491 . S
C2596 H2587 0.950 . S
C2596 C2595 1.398 . S
C2596 C2597 1.391 . S
C2597 H2585 0.950 . S
C2597 C2593 1.393 . S
C2597 C2596 1.391 . S
C2598 H2588 0.950 . S
C2598 C2599 1.386 . S
C2598 C2600 1.391 . S
C2599 C2598 1.386 . S
C2599 C2603 1.393 1_655 S
C2600 H2589 0.950 . S
C2600 C2598 1.391 . S
C2600 C2601 1.400 . S
C2601 C2595 1.491 . S
C2601 C2600 1.400 . S
C2601 C2602 1.398 . S
C2602 H2590 0.974 . S
C2602 C2601 1.398 . S
C2602 C2603 1.391 1_655 S
C2603 H2591 0.950 . S
C2603 C2599 1.393 1_455 S
C2603 C2602 1.391 1_455 S
H2604 C2612 0.950 . S
H2605 C2617 0.950 . S
H2606 C2614 0.950 . S
H2607 C2616 0.950 . S
H2608 C2618 0.950 . S
H2609 C2620 0.950 . S
H2610 C2622 0.950 . S
H2611 C2623 0.950 . S
C2612 H2604 0.950 . S
C2612 C2613 1.386 . S
C2612 C2614 1.391 . S
C2613 C2612 1.386 . S
C2613 C2617 1.393 . S
C2614 H2606 0.950 . S
C2614 C2612 1.391 . S
C2614 C2615 1.400 . S
C2615 C2614 1.400 . S
C2615 C2616 1.398 . S
C2615 C2621 1.491 . S
C2616 H2607 0.950 . S
C2616 C2615 1.398 . S
C2616 C2617 1.391 . S
C2617 H2605 0.950 . S
C2617 C2613 1.393 . S
C2617 C2616 1.391 . S
C2618 H2608 0.950 . S
C2618 C2619 1.386 . S
C2618 C2620 1.391 . S
C2619 C2618 1.386 . S
C2619 C2623 1.393 . S
C2620 H2609 0.950 . S
C2620 C2618 1.391 . S
C2620 C2621 1.400 . S
C2621 C2615 1.491 . S
C2621 C2620 1.400 . S
C2621 C2622 1.398 . S
C2622 H2610 0.950 . S
C2622 C2621 1.398 . S
C2622 C2623 1.391 . S
C2623 H2611 0.950 . S
C2623 C2619 1.393 . S
C2623 C2622 1.391 . S
H2624 C2632 0.950 . S
H2625 C2637 0.950 . S
H2626 C2634 0.950 . S
H2627 C2636 0.950 . S
H2628 C2638 0.950 . S
H2629 C2640 0.950 . S
H2630 C2642 0.950 . S
H2631 C2643 0.950 . S
C2632 H2624 0.950 . S
C2632 C2633 1.386 . S
C2632 C2634 1.391 . S
C2633 C2632 1.386 . S
C2633 C2637 1.393 . S
C2634 H2626 0.950 . S
C2634 C2632 1.391 . S
C2634 C2635 1.400 . S
C2635 C2634 1.400 . S
C2635 C2636 1.398 . S
C2635 C2641 1.491 . S
C2636 H2627 0.950 . S
C2636 C2635 1.398 . S
C2636 C2637 1.391 . S
C2637 H2625 0.950 . S
C2637 C2633 1.393 . S
C2637 C2636 1.391 . S
C2638 H2628 0.950 . S
C2638 C2639 1.386 . S
C2638 C2640 1.391 . S
C2639 C2638 1.386 . S
C2639 C2643 1.393 . S
C2640 H2629 0.950 . S
C2640 C2638 1.391 . S
C2640 C2641 1.400 . S
C2641 C2635 1.491 . S
C2641 C2640 1.400 . S
C2641 C2642 1.398 . S
C2642 H2630 0.950 . S
C2642 C2641 1.398 . S
C2642 C2643 1.391 . S
C2643 H2631 0.950 . S
C2643 C2639 1.393 . S
C2643 C2642 1.391 . S
H2644 C2652 0.950 . S
H2645 C2657 0.950 . S
H2646 C2654 0.950 . S
H2647 C2656 0.950 . S
H2648 C2658 0.950 . S
H2649 C2660 0.950 . S
H2650 C2662 0.950 . S
H2651 C2663 0.950 . S
C2652 H2644 0.950 . S
C2652 C2653 1.386 . S
C2652 C2654 1.391 . S
C2653 C2652 1.386 . S
C2653 C2657 1.393 . S
C2654 H2646 0.950 . S
C2654 C2652 1.391 . S
C2654 C2655 1.400 . S
C2655 C2654 1.400 . S
C2655 C2656 1.398 . S
C2655 C2661 1.491 . S
C2656 H2647 0.950 . S
C2656 C2655 1.398 . S
C2656 C2657 1.391 . S
C2657 H2645 0.950 . S
C2657 C2653 1.393 . S
C2657 C2656 1.391 . S
C2658 H2648 0.950 . S
C2658 C2659 1.386 1_565 S
C2658 C2660 1.391 . S
C2659 C2658 1.386 1_545 S
C2659 C2663 1.393 . S
C2660 H2649 0.950 . S
C2660 C2658 1.391 . S
C2660 C2661 1.400 . S
C2661 C2655 1.491 . S
C2661 C2660 1.400 . S
C2661 C2662 1.398 1_565 S
C2662 H2650 0.950 . S
C2662 C2661 1.398 1_545 S
C2662 C2663 1.391 . S
C2663 H2651 0.950 . S
C2663 C2659 1.393 . S
C2663 C2662 1.391 . S
H2664 C2672 0.950 . S
H2665 C2677 0.950 . S
H2666 C2674 0.950 . S
H2667 C2676 0.950 . S
H2668 C2678 0.950 . S
H2669 C2680 0.950 . S
H2670 C2682 0.950 . S
H2671 C2683 0.950 . S
C2672 H2664 0.950 . S
C2672 C2673 1.386 . S
C2672 C2674 1.391 1_545 S
C2673 C2672 1.386 . S
C2673 C2677 1.393 1_545 S
C2674 H2666 0.950 . S
C2674 C2672 1.391 1_565 S
C2674 C2675 1.400 . S
C2675 C2674 1.400 . S
C2675 C2676 1.398 . S
C2675 C2681 1.491 . S
C2676 H2667 0.950 . S
C2676 C2675 1.398 . S
C2676 C2677 1.391 . S
C2677 H2665 0.950 . S
C2677 C2673 1.393 1_565 S
C2677 C2676 1.391 . S
C2678 H2668 0.950 . S
C2678 C2679 1.386 . S
C2678 C2680 1.391 . S
C2679 C2678 1.386 . S
C2679 C2683 1.393 . S
C2680 H2669 0.950 . S
C2680 C2678 1.391 . S
C2680 C2681 1.400 . S
C2681 C2675 1.491 . S
C2681 C2680 1.400 . S
C2681 C2682 1.398 . S
C2682 H2670 0.950 . S
C2682 C2681 1.398 . S
C2682 C2683 1.391 . S
C2683 H2671 0.950 . S
C2683 C2679 1.393 . S
C2683 C2682 1.391 . S
H2684 C2692 0.950 . S
H2685 C2697 0.950 . S
H2686 C2694 0.950 . S
H2687 C2696 0.950 . S
H2688 C2698 0.950 . S
H2689 C2700 0.950 . S
H2690 C2702 0.950 . S
H2691 C2703 0.950 . S
C2692 H2684 0.950 . S
C2692 C2693 1.386 . S
C2692 C2694 1.391 . S
C2693 C2692 1.386 . S
C2693 C2697 1.393 . S
C2694 H2686 0.950 . S
C2694 C2692 1.391 . S
C2694 C2695 1.400 . S
C2695 C2694 1.400 . S
C2695 C2696 1.398 . S
C2695 C2701 1.491 . S
C2696 H2687 0.950 . S
C2696 C2695 1.398 . S
C2696 C2697 1.391 . S
C2697 H2685 0.950 . S
C2697 C2693 1.393 . S
C2697 C2696 1.391 . S
C2698 H2688 0.950 . S
C2698 C2699 1.386 . S
C2698 C2700 1.391 . S
C2699 C2698 1.386 . S
C2699 C2703 1.393 . S
C2700 H2689 0.950 . S
C2700 C2698 1.391 . S
C2700 C2701 1.400 . S
C2701 C2695 1.491 . S
C2701 C2700 1.400 . S
C2701 C2702 1.398 . S
C2702 H2690 0.950 . S
C2702 C2701 1.398 . S
C2702 C2703 1.391 . S
C2703 H2691 0.950 . S
C2703 C2699 1.393 . S
C2703 C2702 1.391 . S
H2704 C2712 0.950 . S
H2705 C2717 0.950 . S
H2706 C2714 0.950 . S
H2707 C2716 0.950 . S
H2708 C2718 0.950 . S
H2709 C2720 0.950 . S
H2710 C2722 0.950 . S
H2711 C2723 0.950 . S
C2712 H2704 0.950 . S
C2712 C2713 1.386 . S
C2712 C2714 1.391 . S
C2713 C2712 1.386 . S
C2713 C2717 1.393 . S
C2714 H2706 0.950 . S
C2714 C2712 1.391 . S
C2714 C2715 1.400 . S
C2715 C2714 1.400 . S
C2715 C2716 1.398 . S
C2715 C2721 1.491 . S
C2716 H2707 0.950 . S
C2716 C2715 1.398 . S
C2716 C2717 1.391 . S
C2717 H2705 0.950 . S
C2717 C2713 1.393 . S
C2717 C2716 1.391 . S
C2718 H2708 0.950 . S
C2718 C2719 1.386 . S
C2718 C2720 1.391 . S
C2719 C2718 1.386 . S
C2719 C2723 1.393 . S
C2720 H2709 0.950 . S
C2720 C2718 1.391 . S
C2720 C2721 1.400 . S
C2721 C2715 1.491 . S
C2721 C2720 1.400 . S
C2721 C2722 1.398 . S
C2722 H2710 0.950 . S
C2722 C2721 1.398 . S
C2722 C2723 1.391 . S
C2723 H2711 0.950 . S
C2723 C2719 1.393 . S
C2723 C2722 1.391 . S
H2724 C2732 0.950 . S
H2725 C2737 0.950 . S
H2726 C2734 0.950 . S
H2727 C2736 0.950 . S
H2728 C2738 0.950 . S
H2729 C2740 0.950 . S
H2730 C2742 0.950 . S
H2731 C2743 0.950 . S
C2732 H2724 0.950 . S
C2732 C2733 1.386 . S
C2732 C2734 1.391 . S
C2733 C2732 1.386 . S
C2733 C2737 1.393 . S
C2734 H2726 0.950 . S
C2734 C2732 1.391 . S
C2734 C2735 1.400 . S
C2735 C2734 1.400 . S
C2735 C2736 1.398 . S
C2735 C2741 1.491 . S
C2736 H2727 0.950 . S
C2736 C2735 1.398 . S
C2736 C2737 1.391 . S
C2737 H2725 0.950 . S
C2737 C2733 1.393 . S
C2737 C2736 1.391 . S
C2738 H2728 0.950 . S
C2738 C2739 1.386 . S
C2738 C2740 1.391 . S
C2739 C2738 1.386 . S
C2739 C2743 1.393 . S
C2740 H2729 0.950 . S
C2740 C2738 1.391 . S
C2740 C2741 1.400 . S
C2741 C2735 1.491 . S
C2741 C2740 1.400 . S
C2741 C2742 1.398 . S
C2742 H2730 0.950 . S
C2742 C2741 1.398 . S
C2742 C2743 1.391 . S
C2743 H2731 0.950 . S
C2743 C2739 1.393 . S
C2743 C2742 1.391 . S
H2744 C2752 0.950 . S
H2745 C2757 0.950 . S
H2746 C2754 0.950 . S
H2747 C2756 0.950 . S
H2748 C2758 0.950 . S
H2749 C2760 0.950 . S
H2750 C2762 0.950 . S
H2751 C2763 0.950 . S
C2752 H2744 0.950 . S
C2752 C2753 1.386 . S
C2752 C2754 1.391 . S
C2753 C2752 1.386 . S
C2753 C2757 1.393 . S
C2754 H2746 0.950 . S
C2754 C2752 1.391 . S
C2754 C2755 1.400 . S
C2755 C2754 1.400 . S
C2755 C2756 1.398 . S
C2755 C2761 1.491 . S
C2756 H2747 0.950 . S
C2756 C2755 1.398 . S
C2756 C2757 1.391 . S
C2757 H2745 0.950 . S
C2757 C2753 1.393 . S
C2757 C2756 1.391 . S
C2758 H2748 0.950 . S
C2758 C2759 1.386 . S
C2758 C2760 1.391 . S
C2759 C2758 1.386 . S
C2759 C2763 1.393 . S
C2760 H2749 0.950 . S
C2760 C2758 1.391 . S
C2760 C2761 1.400 . S
C2761 C2755 1.491 . S
C2761 C2760 1.400 . S
C2761 C2762 1.398 . S
C2762 H2750 0.950 . S
C2762 C2761 1.398 . S
C2762 C2763 1.391 . S
C2763 H2751 0.950 . S
C2763 C2759 1.393 . S
C2763 C2762 1.391 . S
H2764 C2772 0.950 . S
H2765 C2777 0.950 . S
H2766 C2774 0.950 . S
H2767 C2776 0.950 . S
H2768 C2778 0.950 . S
H2769 C2780 0.950 . S
H2770 C2782 0.950 . S
H2771 C2783 0.950 . S
C2772 H2764 0.950 . S
C2772 C2773 1.386 . S
C2772 C2774 1.391 . S
C2773 C2772 1.386 . S
C2773 C2777 1.393 . S
C2774 H2766 0.950 . S
C2774 C2772 1.391 . S
C2774 C2775 1.400 . S
C2775 C2774 1.400 . S
C2775 C2776 1.398 . S
C2775 C2781 1.491 . S
C2776 H2767 0.950 . S
C2776 C2775 1.398 . S
C2776 C2777 1.391 . S
C2777 H2765 0.950 . S
C2777 C2773 1.393 . S
C2777 C2776 1.391 . S
C2778 H2768 0.950 . S
C2778 C2779 1.386 . S
C2778 C2780 1.391 . S
C2779 C2778 1.386 . S
C2779 C2783 1.393 . S
C2780 H2769 0.950 . S
C2780 C2778 1.391 . S
C2780 C2781 1.400 . S
C2781 C2775 1.491 . S
C2781 C2780 1.400 . S
C2781 C2782 1.398 . S
C2782 H2770 0.950 . S
C2782 C2781 1.398 . S
C2782 C2783 1.391 . S
C2783 H2771 0.950 . S
C2783 C2779 1.393 . S
C2783 C2782 1.391 . S
H2784 C2792 0.950 . S
H2785 C2797 0.950 . S
H2786 C2794 0.950 . S
H2787 C2796 0.950 . S
H2788 C2798 0.950 . S
H2789 C2800 0.950 . S
H2790 C2802 0.950 . S
H2791 C2803 0.950 . S
C2792 H2784 0.950 . S
C2792 C2793 1.386 . S
C2792 C2794 1.391 . S
C2793 C2792 1.386 . S
C2793 C2797 1.393 . S
C2794 H2786 0.950 . S
C2794 C2792 1.391 . S
C2794 C2795 1.400 . S
C2795 C2794 1.400 . S
C2795 C2796 1.398 . S
C2795 C2801 1.491 . S
C2796 H2787 0.950 . S
C2796 C2795 1.398 . S
C2796 C2797 1.391 . S
C2797 H2785 0.950 . S
C2797 C2793 1.393 . S
C2797 C2796 1.391 . S
C2798 H2788 0.950 . S
C2798 C2799 1.386 . S
C2798 C2800 1.391 . S
C2799 C2798 1.386 . S
C2799 C2803 1.393 . S
C2800 H2789 0.950 . S
C2800 C2798 1.391 . S
C2800 C2801 1.400 . S
C2801 C2795 1.491 . S
C2801 C2800 1.400 . S
C2801 C2802 1.398 . S
C2802 H2790 0.950 . S
C2802 C2801 1.398 . S
C2802 C2803 1.391 . S
C2803 H2791 0.950 . S
C2803 C2799 1.393 . S
C2803 C2802 1.391 . S
H2804 C2812 0.950 . S
H2805 C2817 0.950 . S
H2806 C2814 0.950 . S
H2807 C2816 0.950 . S
H2808 C2818 0.950 . S
H2809 C2820 0.950 . S
H2810 C2822 0.950 . S
H2811 C2823 0.950 . S
C2812 H2804 0.950 . S
C2812 C2813 1.386 . S
C2812 C2814 1.391 . S
C2813 C2812 1.386 . S
C2813 C2817 1.393 . S
C2814 H2806 0.950 . S
C2814 C2812 1.391 . S
C2814 C2815 1.400 . S
C2815 C2814 1.400 . S
C2815 C2816 1.398 . S
C2815 C2821 1.491 . S
C2816 H2807 0.950 . S
C2816 C2815 1.398 . S
C2816 C2817 1.391 . S
C2817 H2805 0.950 . S
C2817 C2813 1.393 . S
C2817 C2816 1.391 . S
C2818 H2808 0.950 . S
C2818 C2819 1.386 . S
C2818 C2820 1.391 . S
C2819 C2818 1.386 . S
C2819 C2823 1.393 . S
C2820 H2809 0.950 . S
C2820 C2818 1.391 . S
C2820 C2821 1.400 . S
C2821 C2815 1.491 . S
C2821 C2820 1.400 . S
C2821 C2822 1.398 . S
C2822 H2810 0.950 . S
C2822 C2821 1.398 . S
C2822 C2823 1.391 . S
C2823 H2811 0.950 . S
C2823 C2819 1.393 . S
C2823 C2822 1.391 . S
H2824 C2832 0.950 . S
H2825 C2837 0.950 . S
H2826 C2834 0.950 . S
H2827 C2836 0.951 . S
H2828 C2838 0.950 1_655 S
H2829 C2840 0.955 . S
H2830 C2842 0.950 1_554 S
H2831 C2843 0.950 . S
C2832 H2824 0.950 . S
C2832 C2833 1.386 . S
C2832 C2834 1.391 . S
C2833 C2832 1.386 . S
C2833 C2837 1.393 . S
C2834 H2826 0.950 . S
C2834 C2832 1.391 . S
C2834 C2835 1.400 . S
C2835 C2834 1.400 . S
C2835 C2836 1.398 . S
C2835 C2841 1.491 . S
C2836 H2827 0.951 . S
C2836 C2835 1.398 . S
C2836 C2837 1.391 . S
C2837 H2825 0.950 . S
C2837 C2833 1.393 . S
C2837 C2836 1.391 . S
C2838 H2828 0.950 1_455 S
C2838 C2839 1.386 . S
C2838 C2840 1.391 . S
C2839 C2838 1.386 . S
C2839 C2843 1.393 1_556 S
C2840 H2829 0.955 . S
C2840 C2838 1.391 . S
C2840 C2841 1.400 . S
C2841 C2835 1.491 . S
C2841 C2840 1.400 . S
C2841 C2842 1.398 . S
C2842 H2830 0.950 1_556 S
C2842 C2841 1.398 . S
C2842 C2843 1.391 1_556 S
C2843 H2831 0.950 . S
C2843 C2839 1.393 1_554 S
C2843 C2842 1.391 1_554 S
H2844 C2852 0.950 . S
H2845 C2857 0.950 . S
H2846 C2854 0.950 . S
H2847 C2856 0.950 . S
H2848 C2858 0.950 . S
H2849 C2860 0.950 . S
H2850 C2862 0.950 . S
H2851 C2863 0.950 . S
C2852 H2844 0.950 . S
C2852 C2853 1.386 . S
C2852 C2854 1.391 . S
C2853 C2852 1.386 . S
C2853 C2857 1.393 . S
C2854 H2846 0.950 . S
C2854 C2852 1.391 . S
C2854 C2855 1.400 . S
C2855 C2854 1.400 . S
C2855 C2856 1.398 . S
C2855 C2861 1.491 . S
C2856 H2847 0.950 . S
C2856 C2855 1.398 . S
C2856 C2857 1.391 . S
C2857 H2845 0.950 . S
C2857 C2853 1.393 . S
C2857 C2856 1.391 . S
C2858 H2848 0.950 . S
C2858 C2859 1.386 . S
C2858 C2860 1.391 . S
C2859 C2858 1.386 . S
C2859 C2863 1.393 . S
C2860 H2849 0.950 . S
C2860 C2858 1.391 . S
C2860 C2861 1.400 . S
C2861 C2855 1.491 . S
C2861 C2860 1.400 . S
C2861 C2862 1.398 . S
C2862 H2850 0.950 . S
C2862 C2861 1.398 . S
C2862 C2863 1.391 . S
C2863 H2851 0.950 . S
C2863 C2859 1.393 . S
C2863 C2862 1.391 . S
H2864 C2872 0.950 . S
H2865 C2877 0.950 . S
H2866 C2874 0.950 . S
H2867 C2876 0.950 . S
H2868 C2878 0.950 . S
H2869 C2880 0.950 . S
H2870 C2882 0.950 . S
H2871 C2883 0.950 . S
C2872 H2864 0.950 . S
C2872 C2873 1.386 . S
C2872 C2874 1.391 . S
C2873 C2872 1.386 . S
C2873 C2877 1.393 . S
C2874 H2866 0.950 . S
C2874 C2872 1.391 . S
C2874 C2875 1.400 . S
C2875 C2874 1.400 . S
C2875 C2876 1.398 . S
C2875 C2881 1.491 . S
C2876 H2867 0.950 . S
C2876 C2875 1.398 . S
C2876 C2877 1.391 . S
C2877 H2865 0.950 . S
C2877 C2873 1.393 . S
C2877 C2876 1.391 . S
C2878 H2868 0.950 . S
C2878 C2879 1.386 . S
C2878 C2880 1.391 . S
C2879 C2878 1.386 . S
C2879 C2883 1.393 . S
C2880 H2869 0.950 . S
C2880 C2878 1.391 . S
C2880 C2881 1.400 . S
C2881 C2875 1.491 . S
C2881 C2880 1.400 . S
C2881 C2882 1.398 . S
C2882 H2870 0.950 . S
C2882 C2881 1.398 . S
C2882 C2883 1.391 . S
C2883 H2871 0.950 . S
C2883 C2879 1.393 . S
C2883 C2882 1.391 . S
H2884 C2892 0.950 . S
H2885 C2897 0.950 . S
H2886 C2894 0.950 . S
H2887 C2896 0.950 . S
H2888 C2898 0.950 . S
H2889 C2900 0.950 . S
H2890 C2902 0.950 . S
H2891 C2903 0.950 . S
C2892 H2884 0.950 . S
C2892 C2893 1.386 . S
C2892 C2894 1.391 . S
C2893 C2892 1.386 . S
C2893 C2897 1.393 . S
C2894 H2886 0.950 . S
C2894 C2892 1.391 . S
C2894 C2895 1.400 . S
C2895 C2894 1.400 . S
C2895 C2896 1.398 . S
C2895 C2901 1.491 . S
C2896 H2887 0.950 . S
C2896 C2895 1.398 . S
C2896 C2897 1.391 . S
C2897 H2885 0.950 . S
C2897 C2893 1.393 . S
C2897 C2896 1.391 . S
C2898 H2888 0.950 . S
C2898 C2899 1.386 . S
C2898 C2900 1.391 . S
C2899 C2898 1.386 . S
C2899 C2903 1.393 . S
C2900 H2889 0.950 . S
C2900 C2898 1.391 . S
C2900 C2901 1.400 . S
C2901 C2895 1.491 . S
C2901 C2900 1.400 . S
C2901 C2902 1.398 . S
C2902 H2890 0.950 . S
C2902 C2901 1.398 . S
C2902 C2903 1.391 . S
C2903 H2891 0.950 . S
C2903 C2899 1.393 . S
C2903 C2902 1.391 . S
H2904 C2912 0.950 . S
H2905 C2917 0.950 . S
H2906 C2914 0.950 . S
H2907 C2916 0.950 . S
H2908 C2918 0.950 . S
H2909 C2920 0.950 . S
H2910 C2922 0.950 . S
H2911 C2923 0.950 . S
C2912 H2904 0.950 . S
C2912 C2913 1.392 . S
C2912 C2914 1.391 . S
C2913 C2912 1.392 . S
C2913 C2917 1.386 1_655 S
C2914 H2906 0.950 . S
C2914 C2912 1.391 . S
C2914 C2915 1.400 1_655 S
C2915 C2914 1.400 1_455 S
C2915 C2916 1.398 . S
C2915 C2921 1.491 . S
C2916 H2907 0.950 . S
C2916 C2915 1.398 . S
C2916 C2917 1.391 . S
C2917 H2905 0.950 . S
C2917 C2913 1.386 1_455 S
C2917 C2916 1.391 . S
C2918 H2908 0.950 . S
C2918 C2919 1.386 . S
C2918 C2920 1.391 . S
C2919 C2918 1.386 . S
C2919 C2923 1.393 1_455 S
C2920 H2909 0.950 . S
C2920 C2918 1.391 . S
C2920 C2921 1.400 . S
C2921 C2915 1.491 . S
C2921 C2920 1.400 . S
C2921 C2922 1.398 1_455 S
C2922 H2910 0.950 . S
C2922 C2921 1.398 1_655 S
C2922 C2923 1.391 . S
C2923 H2911 0.950 . S
C2923 C2919 1.393 1_655 S
C2923 C2922 1.391 . S
H2924 C2932 0.950 . S
H2925 C2937 0.950 . S
H2926 C2934 0.950 . S
H2927 C2936 0.950 . S
H2928 C2938 0.950 . S
H2929 C2940 0.950 . S
H2930 C2942 0.950 . S
H2931 C2943 0.950 . S
C2932 H2924 0.950 . S
C2932 C2933 1.386 . S
C2932 C2934 1.391 . S
C2933 C2932 1.386 . S
C2933 C2937 1.393 . S
C2934 H2926 0.950 . S
C2934 C2932 1.391 . S
C2934 C2935 1.400 . S
C2935 C2934 1.400 . S
C2935 C2936 1.398 . S
C2935 C2941 1.491 . S
C2936 H2927 0.950 . S
C2936 C2935 1.398 . S
C2936 C2937 1.391 . S
C2937 H2925 0.950 . S
C2937 C2933 1.393 . S
C2937 C2936 1.391 . S
C2938 H2928 0.950 . S
C2938 C2939 1.386 . S
C2938 C2940 1.391 . S
C2939 C2938 1.386 . S
C2939 C2943 1.393 . S
C2940 H2929 0.950 . S
C2940 C2938 1.391 . S
C2940 C2941 1.400 . S
C2941 C2935 1.491 . S
C2941 C2940 1.400 . S
C2941 C2942 1.398 . S
C2942 H2930 0.950 . S
C2942 C2941 1.398 . S
C2942 C2943 1.391 . S
C2943 H2931 0.950 . S
C2943 C2939 1.393 . S
C2943 C2942 1.391 . S
H2944 C2952 0.950 . S
H2945 C2957 0.950 . S
H2946 C2954 0.950 . S
H2947 C2956 0.950 . S
H2948 C2958 0.950 . S
H2949 C2960 0.950 . S
H2950 C2962 0.950 . S
H2951 C2963 0.950 . S
C2952 H2944 0.950 . S
C2952 C2953 1.386 . S
C2952 C2954 1.391 . S
C2953 C2952 1.386 . S
C2953 C2957 1.393 . S
C2954 H2946 0.950 . S
C2954 C2952 1.391 . S
C2954 C2955 1.400 . S
C2955 C2954 1.400 . S
C2955 C2956 1.398 . S
C2955 C2961 1.491 . S
C2956 H2947 0.950 . S
C2956 C2955 1.398 . S
C2956 C2957 1.391 . S
C2957 H2945 0.950 . S
C2957 C2953 1.393 . S
C2957 C2956 1.391 . S
C2958 H2948 0.950 . S
C2958 C2959 1.386 . S
C2958 C2960 1.391 . S
C2959 C2958 1.386 . S
C2959 C2963 1.393 . S
C2960 H2949 0.950 . S
C2960 C2958 1.391 . S
C2960 C2961 1.400 . S
C2961 C2955 1.491 . S
C2961 C2960 1.400 . S
C2961 C2962 1.398 . S
C2962 H2950 0.950 . S
C2962 C2961 1.398 . S
C2962 C2963 1.391 . S
C2963 H2951 0.950 . S
C2963 C2959 1.393 . S
C2963 C2962 1.391 . S
H2964 C2972 0.950 . S
H2965 C2977 0.950 . S
H2966 C2974 0.950 . S
H2967 C2976 0.950 . S
H2968 C2978 0.950 . S
H2969 C2980 0.950 . S
H2970 C2982 0.950 . S
H2971 C2983 0.950 . S
C2972 H2964 0.950 . S
C2972 C2973 1.386 . S
C2972 C2974 1.391 . S
C2973 C2972 1.386 . S
C2973 C2977 1.393 . S
C2974 H2966 0.950 . S
C2974 C2972 1.391 . S
C2974 C2975 1.400 . S
C2975 C2974 1.400 . S
C2975 C2976 1.398 . S
C2975 C2981 1.491 . S
C2976 H2967 0.950 . S
C2976 C2975 1.398 . S
C2976 C2977 1.391 . S
C2977 H2965 0.950 . S
C2977 C2973 1.393 . S
C2977 C2976 1.391 . S
C2978 H2968 0.950 . S
C2978 C2979 1.386 . S
C2978 C2980 1.391 . S
C2979 C2978 1.386 . S
C2979 C2983 1.393 . S
C2980 H2969 0.950 . S
C2980 C2978 1.391 . S
C2980 C2981 1.400 . S
C2981 C2975 1.491 . S
C2981 C2980 1.400 . S
C2981 C2982 1.398 . S
C2982 H2970 0.950 . S
C2982 C2981 1.398 . S
C2982 C2983 1.391 . S
C2983 H2971 0.950 . S
C2983 C2979 1.393 . S
C2983 C2982 1.391 . S
H2984 C2992 0.950 . S
H2985 C2997 0.950 . S
H2986 C2994 0.950 . S
H2987 C2996 0.950 . S
H2988 C2998 0.950 . S
H2989 C3000 0.950 . S
H2990 C3002 0.950 . S
H2991 C3003 0.950 . S
C2992 H2984 0.950 . S
C2992 C2993 1.386 . S
C2992 C2994 1.391 . S
C2993 C2992 1.386 . S
C2993 C2997 1.393 . S
C2994 H2986 0.950 . S
C2994 C2992 1.391 . S
C2994 C2995 1.400 . S
C2995 C2994 1.400 . S
C2995 C2996 1.398 . S
C2995 C3001 1.491 . S
C2996 H2987 0.950 . S
C2996 C2995 1.398 . S
C2996 C2997 1.391 . S
C2997 H2985 0.950 . S
C2997 C2993 1.393 . S
C2997 C2996 1.391 . S
C2998 H2988 0.950 . S
C2998 C2999 1.386 . S
C2998 C3000 1.391 . S
C2999 C2998 1.386 . S
C2999 C3003 1.393 . S
C3000 H2989 0.950 . S
C3000 C2998 1.391 . S
C3000 C3001 1.400 . S
C3001 C2995 1.491 . S
C3001 C3000 1.400 . S
C3001 C3002 1.398 . S
C3002 H2990 0.950 . S
C3002 C3001 1.398 . S
C3002 C3003 1.391 . S
C3003 H2991 0.950 . S
C3003 C2999 1.393 . S
C3003 C3002 1.391 . S
H3004 C3012 0.950 . S
H3005 C3017 0.950 . S
H3006 C3014 0.950 . S
H3007 C3016 0.950 . S
H3008 C3018 0.950 . S
H3009 C3020 0.950 . S
H3010 C3022 0.950 . S
H3011 C3023 0.950 . S
C3012 H3004 0.950 . S
C3012 C3013 1.386 . S
C3012 C3014 1.391 . S
C3013 C3012 1.386 . S
C3013 C3017 1.393 . S
C3014 H3006 0.950 . S
C3014 C3012 1.391 . S
C3014 C3015 1.400 . S
C3015 C3014 1.400 . S
C3015 C3016 1.398 . S
C3015 C3021 1.491 . S
C3016 H3007 0.950 . S
C3016 C3015 1.398 . S
C3016 C3017 1.391 . S
C3017 H3005 0.950 . S
C3017 C3013 1.393 . S
C3017 C3016 1.391 . S
C3018 H3008 0.950 . S
C3018 C3019 1.386 . S
C3018 C3020 1.391 . S
C3019 C3018 1.386 . S
C3019 C3023 1.393 . S
C3020 H3009 0.950 . S
C3020 C3018 1.391 . S
C3020 C3021 1.400 . S
C3021 C3015 1.491 . S
C3021 C3020 1.400 . S
C3021 C3022 1.398 . S
C3022 H3010 0.950 . S
C3022 C3021 1.398 . S
C3022 C3023 1.391 . S
C3023 H3011 0.950 . S
C3023 C3019 1.393 . S
C3023 C3022 1.391 . S
H3024 C3032 0.950 . S
H3025 C3037 0.950 . S
H3026 C3034 0.950 . S
H3027 C3036 0.950 . S
H3028 C3038 0.950 . S
H3029 C3040 0.950 . S
H3030 C3042 0.950 . S
H3031 C3043 0.950 . S
C3032 H3024 0.950 . S
C3032 C3033 1.386 . S
C3032 C3034 1.391 . S
C3033 C3032 1.386 . S
C3033 C3037 1.393 . S
C3034 H3026 0.950 . S
C3034 C3032 1.391 . S
C3034 C3035 1.400 . S
C3035 C3034 1.400 . S
C3035 C3036 1.398 . S
C3035 C3041 1.491 . S
C3036 H3027 0.950 . S
C3036 C3035 1.398 . S
C3036 C3037 1.391 . S
C3037 H3025 0.950 . S
C3037 C3033 1.393 . S
C3037 C3036 1.391 . S
C3038 H3028 0.950 . S
C3038 C3039 1.386 . S
C3038 C3040 1.391 . S
C3039 C3038 1.386 . S
C3039 C3043 1.393 . S
C3040 H3029 0.950 . S
C3040 C3038 1.391 . S
C3040 C3041 1.400 . S
C3041 C3035 1.491 . S
C3041 C3040 1.400 . S
C3041 C3042 1.398 . S
C3042 H3030 0.950 . S
C3042 C3041 1.398 . S
C3042 C3043 1.391 . S
C3043 H3031 0.950 . S
C3043 C3039 1.393 . S
C3043 C3042 1.391 . S
H3044 C3052 0.950 . S
H3045 C3057 0.950 . S
H3046 C3054 0.950 . S
H3047 C3056 0.950 . S
H3048 C3058 0.950 . S
H3049 C3060 0.950 . S
H3050 C3062 0.950 . S
H3051 C3063 0.950 . S
C3052 H3044 0.950 . S
C3052 C3053 1.386 . S
C3052 C3054 1.391 . S
C3053 C3052 1.386 . S
C3053 C3057 1.393 . S
C3054 H3046 0.950 . S
C3054 C3052 1.391 . S
C3054 C3055 1.400 . S
C3055 C3054 1.400 . S
C3055 C3056 1.398 . S
C3055 C3061 1.491 . S
C3056 H3047 0.950 . S
C3056 C3055 1.398 . S
C3056 C3057 1.391 . S
C3057 H3045 0.950 . S
C3057 C3053 1.393 . S
C3057 C3056 1.391 . S
C3058 H3048 0.950 . S
C3058 C3059 1.386 . S
C3058 C3060 1.391 . S
C3059 C3058 1.386 . S
C3059 C3063 1.393 . S
C3060 H3049 0.950 . S
C3060 C3058 1.391 . S
C3060 C3061 1.400 . S
C3061 C3055 1.491 . S
C3061 C3060 1.400 . S
C3061 C3062 1.398 . S
C3062 H3050 0.950 . S
C3062 C3061 1.398 . S
C3062 C3063 1.391 . S
C3063 H3051 0.950 . S
C3063 C3059 1.393 . S
C3063 C3062 1.391 . S
H3064 C3072 0.950 . S
H3065 C3077 0.950 . S
H3066 C3074 0.950 . S
H3067 C3076 0.950 . S
H3068 C3078 0.950 . S
H3069 C3080 0.950 . S
H3070 C3082 0.950 . S
H3071 C3083 0.950 . S
C3072 H3064 0.950 . S
C3072 C3073 1.386 . S
C3072 C3074 1.391 . S
C3073 C3072 1.386 . S
C3073 C3077 1.393 . S
C3074 H3066 0.950 . S
C3074 C3072 1.391 . S
C3074 C3075 1.400 . S
C3075 C3074 1.400 . S
C3075 C3076 1.398 . S
C3075 C3081 1.491 . S
C3076 H3067 0.950 . S
C3076 C3075 1.398 . S
C3076 C3077 1.391 . S
C3077 H3065 0.950 . S
C3077 C3073 1.393 . S
C3077 C3076 1.391 . S
C3078 H3068 0.950 . S
C3078 C3079 1.386 . S
C3078 C3080 1.391 . S
C3079 C3078 1.386 . S
C3079 C3083 1.393 . S
C3080 H3069 0.950 . S
C3080 C3078 1.391 . S
C3080 C3081 1.400 . S
C3081 C3075 1.491 . S
C3081 C3080 1.400 . S
C3081 C3082 1.398 . S
C3082 H3070 0.950 . S
C3082 C3081 1.398 . S
C3082 C3083 1.391 . S
C3083 H3071 0.950 . S
C3083 C3079 1.393 . S
C3083 C3082 1.391 . S
H3084 C3092 0.950 . S
H3085 C3097 0.950 . S
H3086 C3094 0.950 . S
H3087 C3096 0.950 . S
H3088 C3098 0.950 . S
H3089 C3100 0.950 . S
H3090 C3102 0.950 . S
H3091 C3103 0.950 . S
C3092 H3084 0.950 . S
C3092 C3093 1.386 . S
C3092 C3094 1.391 . S
C3093 C3092 1.386 . S
C3093 C3097 1.393 . S
C3094 H3086 0.950 . S
C3094 C3092 1.391 . S
C3094 C3095 1.400 . S
C3095 C3094 1.400 . S
C3095 C3096 1.398 . S
C3095 C3101 1.491 . S
C3096 H3087 0.950 . S
C3096 C3095 1.398 . S
C3096 C3097 1.391 . S
C3097 H3085 0.950 . S
C3097 C3093 1.393 . S
C3097 C3096 1.391 . S
C3098 H3088 0.950 . S
C3098 C3099 1.386 . S
C3098 C3100 1.391 . S
C3099 C3098 1.386 . S
C3099 C3103 1.393 . S
C3100 H3089 0.950 . S
C3100 C3098 1.391 . S
C3100 C3101 1.400 . S
C3101 C3095 1.491 . S
C3101 C3100 1.400 . S
C3101 C3102 1.398 . S
C3102 H3090 0.950 . S
C3102 C3101 1.398 . S
C3102 C3103 1.391 . S
C3103 H3091 0.950 . S
C3103 C3099 1.393 . S
C3103 C3102 1.391 . S
H3104 C3112 0.950 . S
H3105 C3117 0.950 . S
H3106 C3114 0.950 . S
H3107 C3116 0.950 . S
H3108 C3118 0.950 . S
H3109 C3120 0.950 . S
H3110 C3122 0.950 . S
H3111 C3123 0.950 . S
C3112 H3104 0.950 . S
C3112 C3113 1.386 . S
C3112 C3114 1.391 . S
C3113 C3112 1.386 . S
C3113 C3117 1.393 . S
C3114 H3106 0.950 . S
C3114 C3112 1.391 . S
C3114 C3115 1.400 . S
C3115 C3114 1.400 . S
C3115 C3116 1.398 . S
C3115 C3121 1.491 . S
C3116 H3107 0.950 . S
C3116 C3115 1.398 . S
C3116 C3117 1.391 . S
C3117 H3105 0.950 . S
C3117 C3113 1.393 . S
C3117 C3116 1.391 . S
C3118 H3108 0.950 . S
C3118 C3119 1.386 . S
C3118 C3120 1.391 . S
C3119 C3118 1.386 . S
C3119 C3123 1.393 . S
C3120 H3109 0.950 . S
C3120 C3118 1.391 . S
C3120 C3121 1.400 . S
C3121 C3115 1.491 . S
C3121 C3120 1.400 . S
C3121 C3122 1.398 . S
C3122 H3110 0.950 . S
C3122 C3121 1.398 . S
C3122 C3123 1.391 . S
C3123 H3111 0.950 . S
C3123 C3119 1.393 . S
C3123 C3122 1.391 . S
H3124 C3132 0.950 . S
H3125 C3137 0.950 . S
H3126 C3134 0.950 . S
H3127 C3136 0.950 . S
H3128 C3138 0.950 . S
H3129 C3140 0.950 . S
H3130 C3142 0.950 . S
H3131 C3143 0.950 . S
C3132 H3124 0.950 . S
C3132 C3133 1.386 . S
C3132 C3134 1.391 . S
C3133 C3132 1.386 . S
C3133 C3137 1.393 . S
C3134 H3126 0.950 . S
C3134 C3132 1.391 . S
C3134 C3135 1.400 . S
C3135 C3134 1.400 . S
C3135 C3136 1.398 . S
C3135 C3141 1.491 . S
C3136 H3127 0.950 . S
C3136 C3135 1.398 . S
C3136 C3137 1.391 . S
C3137 H3125 0.950 . S
C3137 C3133 1.393 . S
C3137 C3136 1.391 . S
C3138 H3128 0.950 . S
C3138 C3139 1.386 . S
C3138 C3140 1.391 . S
C3139 C3138 1.386 . S
C3139 C3143 1.393 . S
C3140 H3129 0.950 . S
C3140 C3138 1.391 . S
C3140 C3141 1.400 . S
C3141 C3135 1.491 . S
C3141 C3140 1.400 . S
C3141 C3142 1.398 . S
C3142 H3130 0.950 . S
C3142 C3141 1.398 . S
C3142 C3143 1.391 . S
C3143 H3131 0.950 . S
C3143 C3139 1.393 . S
C3143 C3142 1.391 . S
H3144 C3152 0.950 . S
H3145 C3157 0.950 . S
H3146 C3154 0.950 . S
H3147 C3156 0.950 . S
H3148 C3158 0.950 . S
H3149 C3160 0.950 . S
H3150 C3162 0.950 . S
H3151 C3163 0.950 . S
C3152 H3144 0.950 . S
C3152 C3153 1.386 . S
C3152 C3154 1.391 . S
C3153 C3152 1.386 . S
C3153 C3157 1.393 . S
C3154 H3146 0.950 . S
C3154 C3152 1.391 . S
C3154 C3155 1.400 . S
C3155 C3154 1.400 . S
C3155 C3156 1.398 . S
C3155 C3161 1.491 . S
C3156 H3147 0.950 . S
C3156 C3155 1.398 . S
C3156 C3157 1.391 . S
C3157 H3145 0.950 . S
C3157 C3153 1.393 . S
C3157 C3156 1.391 . S
C3158 H3148 0.950 . S
C3158 C3159 1.386 . S
C3158 C3160 1.391 . S
C3159 C3158 1.386 . S
C3159 C3163 1.393 . S
C3160 H3149 0.950 . S
C3160 C3158 1.391 . S
C3160 C3161 1.400 . S
C3161 C3155 1.491 . S
C3161 C3160 1.400 . S
C3161 C3162 1.398 . S
C3162 H3150 0.950 . S
C3162 C3161 1.398 . S
C3162 C3163 1.391 . S
C3163 H3151 0.950 . S
C3163 C3159 1.393 . S
C3163 C3162 1.391 . S
H3164 C3172 0.950 . S
H3165 C3177 0.950 . S
H3166 C3174 0.950 . S
H3167 C3176 0.950 . S
H3168 C3178 0.960 . S
H3169 C3180 0.950 . S
H3170 C3182 0.950 . S
H3171 C3183 0.950 . S
C3172 H3164 0.950 . S
C3172 C3173 1.386 . S
C3172 C3174 1.391 . S
C3173 C3172 1.386 . S
C3173 C3177 1.393 . S
C3174 H3166 0.950 . S
C3174 C3172 1.391 . S
C3174 C3175 1.400 . S
C3175 C3174 1.400 . S
C3175 C3176 1.398 . S
C3175 C3181 1.491 . S
C3176 H3167 0.950 . S
C3176 C3175 1.398 . S
C3176 C3177 1.391 . S
C3177 H3165 0.950 . S
C3177 C3173 1.393 . S
C3177 C3176 1.391 . S
C3178 H3168 0.960 . S
C3178 C3179 1.386 . S
C3178 C3180 1.391 . S
C3179 C3178 1.386 . S
C3179 C3183 1.393 1_545 S
C3180 H3169 0.950 . S
C3180 C3178 1.391 . S
C3180 C3181 1.400 1_545 S
C3181 C3175 1.491 . S
C3181 C3180 1.400 1_565 S
C3181 C3182 1.398 . S
C3182 H3170 0.950 . S
C3182 C3181 1.398 . S
C3182 C3183 1.391 . S
C3183 H3171 0.950 . S
C3183 C3179 1.393 1_565 S
C3183 C3182 1.391 . S
H3184 C3192 0.950 . S
H3185 C3197 0.950 . S
H3186 C3194 0.950 . S
H3187 C3196 0.950 . S
H3188 C3198 0.950 . S
H3189 C3200 0.950 . S
H3190 C3202 0.950 . S
H3191 C3203 0.950 . S
C3192 H3184 0.950 . S
C3192 C3193 1.386 . S
C3192 C3194 1.391 . S
C3193 C3192 1.386 . S
C3193 C3197 1.393 . S
C3194 H3186 0.950 . S
C3194 C3192 1.391 . S
C3194 C3195 1.400 . S
C3195 C3194 1.400 . S
C3195 C3196 1.398 . S
C3195 C3201 1.491 . S
C3196 H3187 0.950 . S
C3196 C3195 1.398 . S
C3196 C3197 1.391 . S
C3197 H3185 0.950 . S
C3197 C3193 1.393 . S
C3197 C3196 1.391 . S
C3198 H3188 0.950 . S
C3198 C3199 1.386 . S
C3198 C3200 1.391 . S
C3199 C3198 1.386 . S
C3199 C3203 1.393 . S
C3200 H3189 0.950 . S
C3200 C3198 1.391 . S
C3200 C3201 1.400 . S
C3201 C3195 1.491 . S
C3201 C3200 1.400 . S
C3201 C3202 1.398 . S
C3202 H3190 0.950 . S
C3202 C3201 1.398 . S
C3202 C3203 1.391 . S
C3203 H3191 0.950 . S
C3203 C3199 1.393 . S
C3203 C3202 1.391 . S
H3204 C3212 0.950 . S
H3205 C3217 0.950 . S
H3206 C3214 0.950 . S
H3207 C3216 0.950 . S
H3208 C3218 0.950 . S
H3209 C3220 0.950 . S
H3210 C3222 0.950 1_556 S
H3211 C3223 0.950 . S
C3212 H3204 0.950 . S
C3212 C3213 1.386 1_556 S
C3212 C3214 1.391 . S
C3213 C3212 1.386 1_554 S
C3213 C3217 1.393 . S
C3214 H3206 0.950 . S
C3214 C3212 1.391 . S
C3214 C3215 1.400 1_556 S
C3215 C3214 1.400 1_554 S
C3215 C3216 1.398 . S
C3215 C3221 1.491 . S
C3216 H3207 0.950 . S
C3216 C3215 1.398 . S
C3216 C3217 1.391 . S
C3217 H3205 0.950 . S
C3217 C3213 1.393 . S
C3217 C3216 1.391 . S
C3218 H3208 0.950 . S
C3218 C3219 1.386 . S
C3218 C3220 1.391 . S
C3219 C3218 1.386 . S
C3219 C3223 1.393 . S
C3220 H3209 0.950 . S
C3220 C3218 1.391 . S
C3220 C3221 1.400 . S
C3221 C3215 1.491 . S
C3221 C3220 1.400 . S
C3221 C3222 1.398 . S
C3222 H3210 0.950 1_554 S
C3222 C3221 1.398 . S
C3222 C3223 1.391 . S
C3223 H3211 0.950 . S
C3223 C3219 1.393 . S
C3223 C3222 1.391 . S
H3224 C3232 0.950 . S
H3225 C3237 0.950 . S
H3226 C3234 0.950 . S
H3227 C3236 0.950 . S
H3228 C3238 0.950 . S
H3229 C3240 0.950 . S
H3230 C3242 0.950 . S
H3231 C3243 0.950 . S
C3232 H3224 0.950 . S
C3232 C3233 1.386 . S
C3232 C3234 1.391 . S
C3233 C3232 1.386 . S
C3233 C3237 1.393 . S
C3234 H3226 0.950 . S
C3234 C3232 1.391 . S
C3234 C3235 1.400 . S
C3235 C3234 1.400 . S
C3235 C3236 1.398 . S
C3235 C3241 1.491 . S
C3236 H3227 0.950 . S
C3236 C3235 1.398 . S
C3236 C3237 1.391 . S
C3237 H3225 0.950 . S
C3237 C3233 1.393 . S
C3237 C3236 1.391 . S
C3238 H3228 0.950 . S
C3238 C3239 1.386 . S
C3238 C3240 1.391 . S
C3239 C3238 1.386 . S
C3239 C3243 1.393 . S
C3240 H3229 0.950 . S
C3240 C3238 1.391 . S
C3240 C3241 1.400 . S
C3241 C3235 1.491 . S
C3241 C3240 1.400 . S
C3241 C3242 1.398 . S
C3242 H3230 0.950 . S
C3242 C3241 1.398 . S
C3242 C3243 1.391 . S
C3243 H3231 0.950 . S
C3243 C3239 1.393 . S
C3243 C3242 1.391 . S
H3244 C3252 0.950 . S
H3245 C3257 0.950 . S
H3246 C3254 0.950 . S
H3247 C3256 0.950 . S
H3248 C3258 0.950 . S
H3249 C3260 0.950 . S
H3250 C3262 0.950 . S
H3251 C3263 0.950 . S
C3252 H3244 0.950 . S
C3252 C3253 1.386 . S
C3252 C3254 1.391 . S
C3253 C3252 1.386 . S
C3253 C3257 1.393 . S
C3254 H3246 0.950 . S
C3254 C3252 1.391 . S
C3254 C3255 1.400 . S
C3255 C3254 1.400 . S
C3255 C3256 1.398 . S
C3255 C3261 1.491 . S
C3256 H3247 0.950 . S
C3256 C3255 1.398 . S
C3256 C3257 1.391 . S
C3257 H3245 0.950 . S
C3257 C3253 1.393 . S
C3257 C3256 1.391 . S
C3258 H3248 0.950 . S
C3258 C3259 1.386 . S
C3258 C3260 1.391 . S
C3259 C3258 1.386 . S
C3259 C3263 1.393 . S
C3260 H3249 0.950 . S
C3260 C3258 1.391 . S
C3260 C3261 1.400 . S
C3261 C3255 1.491 . S
C3261 C3260 1.400 . S
C3261 C3262 1.398 . S
C3262 H3250 0.950 . S
C3262 C3261 1.398 . S
C3262 C3263 1.391 . S
C3263 H3251 0.950 . S
C3263 C3259 1.393 . S
C3263 C3262 1.391 . S
C1359 C865 1.754 . S
C1353 C2 1.764 . S
C1373 C39 0.875 . S
C1379 C910 0.878 . S
C1393 C86 1.552 . S
C1399 C934 1.548 . S
C1419 N960 0.953 . S
C1413 C112 0.944 . S
C1433 C38 1.084 . S
C1439 N990 1.089 . S
C1459 C1024 1.463 . S
C1453 C76 1.488 . S
C1479 C1060 1.073 1_556 S
C1473 C122 1.052 . S
C1493 C3 1.705 . S
C1499 C1084 1.678 . S
C1513 C147 0.931 . S
C1519 N878 0.931 . S
C1533 C184 1.020 . S
C1539 N900 1.038 . S
C1559 C940 1.006 . S
C1553 C219 1.003 . S
C1579 C964 1.732 . S
C1573 C256 1.753 . S
C1593 C148 1.161 . S
C1599 C994 1.139 . S
C1619 C1030 1.060 . S
C1613 C183 1.057 . S
C1639 N1050 1.052 . S
C1633 C220 1.048 . S
C1659 C1090 1.673 . S
C1653 C255 1.686 . S
C1679 C891 1.674 . S
C1673 C254 1.685 . S
C1699 C1120 0.976 . S
C1693 C302 0.975 . S
C1713 C326 1.076 . S
C1719 N1140 1.083 . S
C1739 C1174 1.589 . S
C1733 C374 1.569 . S
C1753 C146 0.933 . S
C1759 N1080 0.935 . S
C1779 N930 1.050 1_565 S
C1773 C182 1.032 . S
C1793 C338 0.977 . S
C1799 C1210 1.014 . S
C1819 C1234 1.007 . S
C1813 C410 1.016 . S
C1833 C434 1.814 . S
C1839 C874 1.786 1_556 S
C1859 C1251 0.927 . S
C1853 C472 0.940 . S
C1873 C507 1.606 . S
C1879 C925 1.583 . S
C1893 C543 0.988 . S
C1899 N1208 0.984 . S
C1919 N998 1.114 . S
C1913 C470 1.107 . S
C1939 C1135 1.578 . S
C1933 C518 1.544 . S
C1959 C1071 1.111 . S
C1953 C554 1.083 . S
C1979 C1255 1.657 . S
C1973 C436 1.692 . S
C1999 N870 0.954 . S
C1993 C580 0.957 . S
C2013 C615 1.080 . S
C2019 N1238 1.079 . S
C2039 C951 1.020 . S
C2033 C652 1.010 . S
C2053 C687 1.794 . S
C2059 C1195 1.768 . S
C2073 C579 1.212 . S
C2079 C985 1.190 1_655 S
C2093 C616 1.114 . S
C2099 C1161 1.124 . S
C2119 N1058 1.065 . S
C2113 C651 1.065 . S
C2133 C688 1.714 . S
C2139 C1281 1.700 . S
C2153 C686 1.725 . S
C2159 C880 1.721 . S
C2173 C734 1.008 . S
C2179 C1131 1.025 . S
C2193 C758 1.095 . S
C2199 N1028 1.098 . S
C2213 C806 1.597 . S
C2219 C1165 1.632 . S
C2239 N1268 0.941 . S
C2233 C578 0.933 . S
C2259 N938 1.094 . S
C2253 C614 1.089 . S
C2279 C981 1.060 . S
C2273 C770 1.041 . S
C2299 C895 1.026 . S
C2293 C842 0.991 . S
C2313 C74 1.711 . S
C2319 C1285 1.683 . S
C2339 C1240 0.884 . S
C2333 C111 0.892 . S
C2359 C1324 1.623 . S
C2353 C14 1.597 . S
C2373 C40 0.914 1_655 S
C2379 N1200 0.951 . S
C2393 C110 1.075 . S
C2399 N1110 1.089 . S
C2419 C1144 1.519 . S
C2413 C4 1.547 . S
C2439 C1180 1.081 . S
C2433 C50 1.025 . S
C2459 C1264 1.619 . S
C2453 C75 1.640 . S
C2479 N1298 0.933 . S
C2473 C399 0.922 . S
C2493 C292 1.023 1_556 S
C2499 N1230 1.039 . S
C2513 C327 0.995 . S
C2519 C1330 0.988 1_655 S
C2539 C1204 1.717 . S
C2533 C364 1.742 . S
C2559 C1114 1.158 . S
C2553 C400 1.174 . S
C2573 C291 1.046 . S
C2579 C1150 1.037 . S
C2599 N1170 1.050 . S
C2593 C328 1.047 . S
C2613 C363 1.674 . S
C2619 C1270 1.661 . S
C2639 C1311 1.670 . S
C2633 C362 1.675 . S
C2659 C1000 0.998 . S
C2653 C194 0.948 . S
C2679 N1020 1.065 . S
C2673 C218 1.061 . S
C2693 C266 1.561 . S
C2699 C1054 1.570 . S
C2719 N1260 0.917 . S
C2713 C398 0.908 . S
C2733 C290 1.046 . S
C2739 N1320 1.067 . S
C2759 C970 1.031 . S
C2753 C230 0.995 . S
C2779 C904 0.969 . S
C2773 C158 1.009 . S
C2793 C508 1.708 . S
C2799 C1294 1.687 . S
C2819 C921 0.942 . S
C2813 C544 0.933 . S
C2839 C1315 1.650 1_556 S
C2833 C446 1.616 . S
C2853 C471 0.984 . S
C2859 N968 0.979 . S
C2873 C542 1.090 . S
C2879 N1118 1.108 . S
C2893 C435 1.535 . S
C2899 C1015 1.501 . S
C2913 C482 1.099 . S
C2919 C1191 1.114 . S
C2933 C506 1.797 . S
C2939 C1075 1.763 . S
C2959 N1290 0.944 . S
C2953 C832 0.939 . S
C2973 C723 1.068 . S
C2979 N908 1.062 . S
C2999 C1341 1.033 . S
C2993 C760 1.037 . S
C3013 C795 1.798 . S
C3019 C955 1.761 . S
C3033 C831 1.203 . S
C3039 C1105 1.164 . S
C3059 C1041 1.102 . S
C3053 C724 1.099 . S
C3073 C759 1.074 . S
C3079 N1178 1.083 . S
C3099 C1101 1.721 . S
C3093 C796 1.741 . S
C3119 C1300 1.713 . S
C3113 C794 1.719 . S
C3139 C1011 1.055 . S
C3133 C626 1.046 . S
C3153 C650 1.090 . S
C3159 N1148 1.096 . S
C3179 C1045 1.622 . S
C3173 C698 1.592 . S
C3199 N1088 0.944 . S
C3193 C830 0.948 . S
C3213 C722 1.087 . S
C3219 N1328 1.092 . S
C3239 C1221 1.046 . S
C3233 C662 1.028 . S
C3259 C1225 1.024 . S
C3253 C590 0.996 . S
