# Generated by pormake.
# Topology gar, (4,6)-cn, num edge types: 1
# Building blocks:
#     Node 0, Type 0, BuildingBlock: QUQFOY_clean_sbu_1, # of connection points: 4
#     Node 1, Type 0, BuildingBlock: QUQFOY_clean_sbu_1, # of connection points: 4
#     Node 2, Type 0, BuildingBlock: QUQFOY_clean_sbu_1, # of connection points: 4
#     Node 3, Type 0, BuildingBlock: QUQFOY_clean_sbu_1, # of connection points: 4
#     Node 4, Type 0, BuildingBlock: QUQFOY_clean_sbu_1, # of connection points: 4
#     Node 5, Type 0, BuildingBlock: QUQFOY_clean_sbu_1, # of connection points: 4
#     Node 6, Type 0, BuildingBlock: QUQFOY_clean_sbu_1, # of connection points: 4
#     Node 7, Type 0, BuildingBlock: QUQFOY_clean_sbu_1, # of connection points: 4
#     Node 8, Type 0, BuildingBlock: QUQFOY_clean_sbu_1, # of connection points: 4
#     Node 9, Type 0, BuildingBlock: QUQFOY_clean_sbu_1, # of connection points: 4
#     Node 10, Type 0, BuildingBlock: QUQFOY_clean_sbu_1, # of connection points: 4
#     Node 11, Type 0, BuildingBlock: QUQFOY_clean_sbu_1, # of connection points: 4
#     Node 12, Type 0, BuildingBlock: QUQFOY_clean_sbu_1, # of connection points: 4
#     Node 13, Type 0, BuildingBlock: QUQFOY_clean_sbu_1, # of connection points: 4
#     Node 14, Type 0, BuildingBlock: QUQFOY_clean_sbu_1, # of connection points: 4
#     Node 15, Type 0, BuildingBlock: QUQFOY_clean_sbu_1, # of connection points: 4
#     Node 16, Type 0, BuildingBlock: QUQFOY_clean_sbu_1, # of connection points: 4
#     Node 17, Type 0, BuildingBlock: QUQFOY_clean_sbu_1, # of connection points: 4
#     Node 18, Type 0, BuildingBlock: QUQFOY_clean_sbu_1, # of connection points: 4
#     Node 19, Type 0, BuildingBlock: QUQFOY_clean_sbu_1, # of connection points: 4
#     Node 20, Type 0, BuildingBlock: QUQFOY_clean_sbu_1, # of connection points: 4
#     Node 21, Type 0, BuildingBlock: QUQFOY_clean_sbu_1, # of connection points: 4
#     Node 22, Type 0, BuildingBlock: QUQFOY_clean_sbu_1, # of connection points: 4
#     Node 23, Type 0, BuildingBlock: QUQFOY_clean_sbu_1, # of connection points: 4
#     Node 24, Type 1, BuildingBlock: CUWYAW_clean_sbu_0, # of connection points: 6
#     Node 25, Type 1, BuildingBlock: CUWYAW_clean_sbu_0, # of connection points: 6
#     Node 26, Type 1, BuildingBlock: CUWYAW_clean_sbu_0, # of connection points: 6
#     Node 27, Type 1, BuildingBlock: CUWYAW_clean_sbu_0, # of connection points: 6
#     Node 28, Type 1, BuildingBlock: CUWYAW_clean_sbu_0, # of connection points: 6
#     Node 29, Type 1, BuildingBlock: CUWYAW_clean_sbu_0, # of connection points: 6
#     Node 30, Type 1, BuildingBlock: CUWYAW_clean_sbu_0, # of connection points: 6
#     Node 31, Type 1, BuildingBlock: CUWYAW_clean_sbu_0, # of connection points: 6
#     Node 32, Type 1, BuildingBlock: CUWYAW_clean_sbu_0, # of connection points: 6
#     Node 33, Type 1, BuildingBlock: CUWYAW_clean_sbu_0, # of connection points: 6
#     Node 34, Type 1, BuildingBlock: CUWYAW_clean_sbu_0, # of connection points: 6
#     Node 35, Type 1, BuildingBlock: CUWYAW_clean_sbu_0, # of connection points: 6
#     Node 36, Type 1, BuildingBlock: CUWYAW_clean_sbu_0, # of connection points: 6
#     Node 37, Type 1, BuildingBlock: CUWYAW_clean_sbu_0, # of connection points: 6
#     Node 38, Type 1, BuildingBlock: CUWYAW_clean_sbu_0, # of connection points: 6
#     Node 39, Type 1, BuildingBlock: CUWYAW_clean_sbu_0, # of connection points: 6
#     Edge 40, Type (0, 1), BuildingBlock: UVAHIK_clean_linker_0, # of connection points: 2
#     Edge 41, Type (0, 1), BuildingBlock: UVAHIK_clean_linker_0, # of connection points: 2
#     Edge 42, Type (0, 1), BuildingBlock: UVAHIK_clean_linker_0, # of connection points: 2
#     Edge 43, Type (0, 1), BuildingBlock: UVAHIK_clean_linker_0, # of connection points: 2
#     Edge 44, Type (0, 1), BuildingBlock: UVAHIK_clean_linker_0, # of connection points: 2
#     Edge 45, Type (0, 1), BuildingBlock: UVAHIK_clean_linker_0, # of connection points: 2
#     Edge 46, Type (0, 1), BuildingBlock: UVAHIK_clean_linker_0, # of connection points: 2
#     Edge 47, Type (0, 1), BuildingBlock: UVAHIK_clean_linker_0, # of connection points: 2
#     Edge 48, Type (0, 1), BuildingBlock: UVAHIK_clean_linker_0, # of connection points: 2
#     Edge 49, Type (0, 1), BuildingBlock: UVAHIK_clean_linker_0, # of connection points: 2
#     Edge 50, Type (0, 1), BuildingBlock: UVAHIK_clean_linker_0, # of connection points: 2
#     Edge 51, Type (0, 1), BuildingBlock: UVAHIK_clean_linker_0, # of connection points: 2
#     Edge 52, Type (0, 1), BuildingBlock: UVAHIK_clean_linker_0, # of connection points: 2
#     Edge 53, Type (0, 1), BuildingBlock: UVAHIK_clean_linker_0, # of connection points: 2
#     Edge 54, Type (0, 1), BuildingBlock: UVAHIK_clean_linker_0, # of connection points: 2
#     Edge 55, Type (0, 1), BuildingBlock: UVAHIK_clean_linker_0, # of connection points: 2
#     Edge 56, Type (0, 1), BuildingBlock: UVAHIK_clean_linker_0, # of connection points: 2
#     Edge 57, Type (0, 1), BuildingBlock: UVAHIK_clean_linker_0, # of connection points: 2
#     Edge 58, Type (0, 1), BuildingBlock: UVAHIK_clean_linker_0, # of connection points: 2
#     Edge 59, Type (0, 1), BuildingBlock: UVAHIK_clean_linker_0, # of connection points: 2
#     Edge 60, Type (0, 1), BuildingBlock: UVAHIK_clean_linker_0, # of connection points: 2
#     Edge 61, Type (0, 1), BuildingBlock: UVAHIK_clean_linker_0, # of connection points: 2
#     Edge 62, Type (0, 1), BuildingBlock: UVAHIK_clean_linker_0, # of connection points: 2
#     Edge 63, Type (0, 1), BuildingBlock: UVAHIK_clean_linker_0, # of connection points: 2
#     Edge 64, Type (0, 1), BuildingBlock: UVAHIK_clean_linker_0, # of connection points: 2
#     Edge 65, Type (0, 1), BuildingBlock: UVAHIK_clean_linker_0, # of connection points: 2
#     Edge 66, Type (0, 1), BuildingBlock: UVAHIK_clean_linker_0, # of connection points: 2
#     Edge 67, Type (0, 1), BuildingBlock: UVAHIK_clean_linker_0, # of connection points: 2
#     Edge 68, Type (0, 1), BuildingBlock: UVAHIK_clean_linker_0, # of connection points: 2
#     Edge 69, Type (0, 1), BuildingBlock: UVAHIK_clean_linker_0, # of connection points: 2
#     Edge 70, Type (0, 1), BuildingBlock: UVAHIK_clean_linker_0, # of connection points: 2
#     Edge 71, Type (0, 1), BuildingBlock: UVAHIK_clean_linker_0, # of connection points: 2
#     Edge 72, Type (0, 1), BuildingBlock: UVAHIK_clean_linker_0, # of connection points: 2
#     Edge 73, Type (0, 1), BuildingBlock: UVAHIK_clean_linker_0, # of connection points: 2
#     Edge 74, Type (0, 1), BuildingBlock: UVAHIK_clean_linker_0, # of connection points: 2
#     Edge 75, Type (0, 1), BuildingBlock: UVAHIK_clean_linker_0, # of connection points: 2
#     Edge 76, Type (0, 1), BuildingBlock: UVAHIK_clean_linker_0, # of connection points: 2
#     Edge 77, Type (0, 1), BuildingBlock: UVAHIK_clean_linker_0, # of connection points: 2
#     Edge 78, Type (0, 1), BuildingBlock: UVAHIK_clean_linker_0, # of connection points: 2
#     Edge 79, Type (0, 1), BuildingBlock: UVAHIK_clean_linker_0, # of connection points: 2
#     Edge 80, Type (0, 1), BuildingBlock: UVAHIK_clean_linker_0, # of connection points: 2
#     Edge 81, Type (0, 1), BuildingBlock: UVAHIK_clean_linker_0, # of connection points: 2
#     Edge 82, Type (0, 1), BuildingBlock: UVAHIK_clean_linker_0, # of connection points: 2
#     Edge 83, Type (0, 1), BuildingBlock: UVAHIK_clean_linker_0, # of connection points: 2
#     Edge 84, Type (0, 1), BuildingBlock: UVAHIK_clean_linker_0, # of connection points: 2
#     Edge 85, Type (0, 1), BuildingBlock: UVAHIK_clean_linker_0, # of connection points: 2
#     Edge 86, Type (0, 1), BuildingBlock: UVAHIK_clean_linker_0, # of connection points: 2
#     Edge 87, Type (0, 1), BuildingBlock: UVAHIK_clean_linker_0, # of connection points: 2
#     Edge 88, Type (0, 1), BuildingBlock: UVAHIK_clean_linker_0, # of connection points: 2
#     Edge 89, Type (0, 1), BuildingBlock: UVAHIK_clean_linker_0, # of connection points: 2
#     Edge 90, Type (0, 1), BuildingBlock: UVAHIK_clean_linker_0, # of connection points: 2
#     Edge 91, Type (0, 1), BuildingBlock: UVAHIK_clean_linker_0, # of connection points: 2
#     Edge 92, Type (0, 1), BuildingBlock: UVAHIK_clean_linker_0, # of connection points: 2
#     Edge 93, Type (0, 1), BuildingBlock: UVAHIK_clean_linker_0, # of connection points: 2
#     Edge 94, Type (0, 1), BuildingBlock: UVAHIK_clean_linker_0, # of connection points: 2
#     Edge 95, Type (0, 1), BuildingBlock: UVAHIK_clean_linker_0, # of connection points: 2
#     Edge 96, Type (0, 1), BuildingBlock: UVAHIK_clean_linker_0, # of connection points: 2
#     Edge 97, Type (0, 1), BuildingBlock: UVAHIK_clean_linker_0, # of connection points: 2
#     Edge 98, Type (0, 1), BuildingBlock: UVAHIK_clean_linker_0, # of connection points: 2
#     Edge 99, Type (0, 1), BuildingBlock: UVAHIK_clean_linker_0, # of connection points: 2
#     Edge 100, Type (0, 1), BuildingBlock: UVAHIK_clean_linker_0, # of connection points: 2
#     Edge 101, Type (0, 1), BuildingBlock: UVAHIK_clean_linker_0, # of connection points: 2
#     Edge 102, Type (0, 1), BuildingBlock: UVAHIK_clean_linker_0, # of connection points: 2
#     Edge 103, Type (0, 1), BuildingBlock: UVAHIK_clean_linker_0, # of connection points: 2
#     Edge 104, Type (0, 1), BuildingBlock: UVAHIK_clean_linker_0, # of connection points: 2
#     Edge 105, Type (0, 1), BuildingBlock: UVAHIK_clean_linker_0, # of connection points: 2
#     Edge 106, Type (0, 1), BuildingBlock: UVAHIK_clean_linker_0, # of connection points: 2
#     Edge 107, Type (0, 1), BuildingBlock: UVAHIK_clean_linker_0, # of connection points: 2
#     Edge 108, Type (0, 1), BuildingBlock: UVAHIK_clean_linker_0, # of connection points: 2
#     Edge 109, Type (0, 1), BuildingBlock: UVAHIK_clean_linker_0, # of connection points: 2
#     Edge 110, Type (0, 1), BuildingBlock: UVAHIK_clean_linker_0, # of connection points: 2
#     Edge 111, Type (0, 1), BuildingBlock: UVAHIK_clean_linker_0, # of connection points: 2
#     Edge 112, Type (0, 1), BuildingBlock: UVAHIK_clean_linker_0, # of connection points: 2
#     Edge 113, Type (0, 1), BuildingBlock: UVAHIK_clean_linker_0, # of connection points: 2
#     Edge 114, Type (0, 1), BuildingBlock: UVAHIK_clean_linker_0, # of connection points: 2
#     Edge 115, Type (0, 1), BuildingBlock: UVAHIK_clean_linker_0, # of connection points: 2
#     Edge 116, Type (0, 1), BuildingBlock: UVAHIK_clean_linker_0, # of connection points: 2
#     Edge 117, Type (0, 1), BuildingBlock: UVAHIK_clean_linker_0, # of connection points: 2
#     Edge 118, Type (0, 1), BuildingBlock: UVAHIK_clean_linker_0, # of connection points: 2
#     Edge 119, Type (0, 1), BuildingBlock: UVAHIK_clean_linker_0, # of connection points: 2
#     Edge 120, Type (0, 1), BuildingBlock: UVAHIK_clean_linker_0, # of connection points: 2
#     Edge 121, Type (0, 1), BuildingBlock: UVAHIK_clean_linker_0, # of connection points: 2
#     Edge 122, Type (0, 1), BuildingBlock: UVAHIK_clean_linker_0, # of connection points: 2
#     Edge 123, Type (0, 1), BuildingBlock: UVAHIK_clean_linker_0, # of connection points: 2
#     Edge 124, Type (0, 1), BuildingBlock: UVAHIK_clean_linker_0, # of connection points: 2
#     Edge 125, Type (0, 1), BuildingBlock: UVAHIK_clean_linker_0, # of connection points: 2
#     Edge 126, Type (0, 1), BuildingBlock: UVAHIK_clean_linker_0, # of connection points: 2
#     Edge 127, Type (0, 1), BuildingBlock: UVAHIK_clean_linker_0, # of connection points: 2
#     Edge 128, Type (0, 1), BuildingBlock: UVAHIK_clean_linker_0, # of connection points: 2
#     Edge 129, Type (0, 1), BuildingBlock: UVAHIK_clean_linker_0, # of connection points: 2
#     Edge 130, Type (0, 1), BuildingBlock: UVAHIK_clean_linker_0, # of connection points: 2
#     Edge 131, Type (0, 1), BuildingBlock: UVAHIK_clean_linker_0, # of connection points: 2
#     Edge 132, Type (0, 1), BuildingBlock: UVAHIK_clean_linker_0, # of connection points: 2
#     Edge 133, Type (0, 1), BuildingBlock: UVAHIK_clean_linker_0, # of connection points: 2
#     Edge 134, Type (0, 1), BuildingBlock: UVAHIK_clean_linker_0, # of connection points: 2
#     Edge 135, Type (0, 1), BuildingBlock: UVAHIK_clean_linker_0, # of connection points: 2
# Relax obj value: 0.176
# Max RMSD: 0.274
# Mean RMSD: 0.170
data_MOF--net-gar--node1-QUQFOY_clean_sbu_1--node2-CUWYAW_clean_sbu_0--edge1-UVAHIK_clean_linker_0
_symmetry_space_group_name_H-M    P1
_symmetry_Int_Tables_number       1
_symmetry_cell_setting            triclinic
loop_
_symmetry_equiv_pos_as_xyz
'x, y, z'
_cell_length_a     82.802996
_cell_length_b     71.619151
_cell_length_c     71.689494
_cell_angle_alpha  97.492132
_cell_angle_beta   95.738833
_cell_angle_gamma 101.01871
loop_
_atom_site_label
_atom_site_type_symbol
_atom_site_fract_x
_atom_site_fract_y
_atom_site_fract_z
_atom_type_partial_charge
O0 O 0.04904 0.29179 0.42914 0.0
Cd1 Cd 0.05531 0.31913 0.42264 0.0
Cd2 Cd 0.05607 0.32695 0.45784 0.0
O3 O 0.06169 0.3005 0.45833 0.0
O4 O 0.06213 0.31813 0.39683 0.0
O5 O 0.07939 0.32923 0.42345 0.0
C6 C 0.07695 0.32542 0.40521 0.0
C7 C 0.07148 0.35727 0.46803 0.0
C8 C 0.05442 0.28732 0.44484 0.0
C9 C 0.02724 0.33285 0.4355 0.0
O10 O 0.03136 0.32633 0.45051 0.0
O11 O 0.03753 0.33549 0.42364 0.0
O12 O 0.0654 0.34684 0.48013 0.0
O13 O 0.07028 0.3495 0.45056 0.0
O14 O 0.9954 0.72337 0.6514 0.0
Cd15 Cd 0.99937 0.74926 0.66862 0.0
Cd16 Cd 0.99918 0.75938 0.63698 0.0
O17 O 0.98339 0.73359 0.6273 0.0
O18 O 0.99163 0.74317 0.69243 0.0
O19 O 0.9797 0.75999 0.67304 0.0
C20 C 0.97965 0.75163 0.688 0.0
C21 C 0.99667 0.78773 0.62659 0.0
C22 C 0.987 0.71977 0.63508 0.0
C23 C 0.03147 0.76452 0.66021 0.0
O24 O 0.02406 0.75921 0.64343 0.0
O25 O 0.02302 0.76499 0.674 0.0
O26 O 0.99927 0.7734 0.61526 0.0
O27 O 0.99356 0.78514 0.64349 0.0
O28 O 0.59141 0.80934 0.95244 0.0
Cd29 Cd 0.57465 0.82285 0.96484 0.0
Cd30 Cd 0.55522 0.81068 0.91161 0.0
O31 O 0.5689 0.80149 0.93257 0.0
O32 O 0.56752 0.81192 0.98825 0.0
O33 O 0.55272 0.8047 0.96021 0.0
C34 C 0.55482 0.80163 0.97729 0.0
C35 C 0.52804 0.79412 0.9013 0.0
C36 C 0.58453 0.80373 0.9355 0.0
C37 C 0.56339 0.84845 0.93223 0.0
O38 O 0.55796 0.84027 0.91533 0.0
O39 O 0.56768 0.83862 0.94463 0.0
O40 O 0.5394 0.7936 0.89026 0.0
O41 O 0.53238 0.80326 0.91826 0.0
O42 O 0.50348 0.22115 0.15876 0.0
Cd43 Cd 0.50428 0.24716 0.17472 0.0
Cd44 Cd 0.50417 0.25576 0.14241 0.0
O45 O 0.48974 0.22896 0.13432 0.0
O46 O 0.49332 0.24198 0.19693 0.0
O47 O 0.48337 0.25616 0.17359 0.0
C48 C 0.48143 0.24877 0.18898 0.0
C49 C 0.50144 0.28186 0.12793 0.0
C50 C 0.49501 0.21624 0.14249 0.0
C51 C 0.53578 0.26434 0.16785 0.0
O52 O 0.52898 0.25742 0.15109 0.0
O53 O 0.52683 0.26541 0.18113 0.0
O54 O 0.50531 0.26694 0.11886 0.0
O55 O 0.49711 0.28093 0.14468 0.0
O56 O 0.05319 0.77319 0.16179 0.0
Cd57 Cd 0.05665 0.79652 0.18299 0.0
Cd58 Cd 0.0716 0.81374 0.15509 0.0
O59 O 0.06314 0.78733 0.13856 0.0
O60 O 0.04185 0.78659 0.20152 0.0
O61 O 0.03732 0.80985 0.18558 0.0
C62 C 0.03247 0.79823 0.19722 0.0
C63 C 0.06713 0.84116 0.1426 0.0
C64 C 0.0563 0.77233 0.14472 0.0
C65 C 0.09355 0.81154 0.19076 0.0
O66 O 0.09252 0.81556 0.17399 0.0
O67 O 0.08047 0.8052 0.19792 0.0
O68 O 0.07853 0.83232 0.13753 0.0
O69 O 0.05815 0.83443 0.15492 0.0
O70 O 0.52993 0.76597 0.41625 0.0
Cd71 Cd 0.51171 0.76234 0.43387 0.0
Cd72 Cd 0.49532 0.77769 0.40175 0.0
O73 O 0.51695 0.77336 0.39053 0.0
O74 O 0.52212 0.75119 0.45514 0.0
O75 O 0.49981 0.73531 0.43607 0.0
C76 C 0.51085 0.73576 0.45027 0.0
C77 C 0.46919 0.77272 0.38324 0.0
C78 C 0.52991 0.76982 0.39941 0.0
C79 C 0.5019 0.8009 0.44157 0.0
O80 O 0.49787 0.80001 0.42385 0.0
O81 O 0.50667 0.78699 0.44827 0.0
O82 O 0.48133 0.78624 0.38128 0.0
O83 O 0.47216 0.76103 0.39481 0.0
O84 O 0.55751 0.26805 0.66244 0.0
Cd85 Cd 0.56094 0.29068 0.68445 0.0
Cd86 Cd 0.57615 0.30946 0.65745 0.0
O87 O 0.56806 0.28333 0.64024 0.0
O88 O 0.5452 0.27986 0.70172 0.0
O89 O 0.5422 0.30491 0.68776 0.0
C90 C 0.53646 0.29237 0.69817 0.0
C91 C 0.57095 0.33686 0.64528 0.0
C92 C 0.56102 0.26794 0.64558 0.0
C93 C 0.59794 0.30626 0.69291 0.0
O94 O 0.59704 0.31129 0.67651 0.0
O95 O 0.58481 0.29894 0.69951 0.0
O96 O 0.58219 0.32806 0.63958 0.0
O97 O 0.56275 0.33029 0.65828 0.0
O98 O 1.00503 0.23107 0.91868 0.0
Cd99 Cd 1.00513 0.25248 0.9016 0.0
Cd100 Cd 0.99659 0.272 0.93317 0.0
O101 O 1.00018 0.24799 0.94469 0.0
O102 O 0.0195 0.24656 0.88164 0.0
O103 O 0.02656 0.27233 0.90363 0.0
C104 C 0.03034 0.26176 0.88934 0.0
C105 C 1.00679 0.30186 0.95169 0.0
C106 C 1.00319 0.23258 0.93619 0.0
C107 C 0.97202 0.26459 0.89763 0.0
O108 O 0.97529 0.27084 0.91528 0.0
O109 O 0.98239 0.25689 0.88893 0.0
O110 O 0.99439 0.28997 0.95579 0.0
O111 O 0.01381 0.29663 0.93715 0.0
O112 O 0.41568 0.06117 0.25891 0.0
Cd113 Cd 0.3966 0.06323 0.27678 0.0
Cd114 Cd 0.42621 0.04589 0.30121 0.0
O115 O 0.43622 0.05192 0.27575 0.0
O116 O 0.37959 0.07714 0.26393 0.0
O117 O 0.39385 0.08942 0.29151 0.0
C118 C 0.38288 0.09107 0.27801 0.0
C119 C 0.44301 0.04714 0.33164 0.0
C120 C 0.43004 0.05667 0.26029 0.0
C121 C 0.38927 0.02229 0.28941 0.0
O122 O 0.40445 0.02458 0.29648 0.0
O123 O 0.38386 0.03584 0.28226 0.0
O124 O 0.44302 0.03445 0.31713 0.0
O125 O 0.43414 0.05977 0.32888 0.0
O126 O 0.27161 0.16857 0.55572 0.0
Cd127 Cd 0.26781 0.14661 0.53301 0.0
Cd128 Cd 0.25509 0.17542 0.51564 0.0
O129 O 0.26483 0.19209 0.54154 0.0
O130 O 0.28077 0.12804 0.54285 0.0
O131 O 0.28773 0.14351 0.51928 0.0
C132 C 0.29113 0.13209 0.53097 0.0
C133 C 0.25877 0.189 0.48767 0.0
C134 C 0.27015 0.18599 0.55637 0.0
C135 C 0.23083 0.13903 0.52014 0.0
O136 O 0.23317 0.15606 0.51612 0.0
O137 O 0.24312 0.13172 0.52542 0.0
O138 O 0.2492 0.19455 0.4994 0.0
O139 O 0.26641 0.17564 0.49174 0.0
O140 O 0.14806 1.00839 0.76862 0.0
Cd141 Cd 0.16967 1.00987 0.78792 0.0
Cd142 Cd 0.14517 0.03239 0.81303 0.0
O143 O 0.13191 0.02436 0.78495 0.0
O144 O 0.18416 0.99283 0.77435 0.0
O145 O 0.17465 0.98645 0.80059 0.0
C146 C 0.18305 0.98168 0.78713 0.0
C147 C 0.1312 0.03199 0.84201 0.0
C148 C 0.13497 0.01549 0.7693 0.0
C149 C 0.18023 0.05429 0.80515 0.0
O150 O 0.167 0.05355 0.81322 0.0
O151 O 0.18328 0.03909 0.79563 0.0
O152 O 0.13054 0.04481 0.83103 0.0
O153 O 0.13946 0.0191 0.83664 0.0
O154 O 0.24169 0.87518 0.04534 0.0
Cd155 Cd 0.23822 0.88708 0.021 0.0
Cd156 Cd 0.24017 0.8541 0.00885 0.0
O157 O 0.23058 0.84571 0.03207 0.0
O158 O 0.23306 0.91212 0.0298 0.0
O159 O 0.21546 0.88879 0.01029 0.0
C160 C 0.21864 0.90582 0.02009 0.0
C161 C 0.22982 0.84615 0.97776 0.0
C162 C 0.2368 0.85761 0.04686 0.0
C163 C 0.26964 0.88315 0.00942 0.0
O164 O 0.26513 0.86615 0.01293 0.0
O165 O 0.25902 0.89368 1.00789 0.0
O166 O 0.23548 0.83378 0.98681 0.0
O167 O 0.22821 0.86225 0.98711 0.0
O168 O 0.30292 0.40755 0.0991 0.0
Cd169 Cd 0.30425 0.42512 0.07824 0.0
Cd170 Cd 0.31087 0.39317 0.05724 0.0
O171 O 0.30447 0.38085 0.08083 0.0
O172 O 0.29109 0.44513 0.08545 0.0
O173 O 0.28342 0.42305 0.05995 0.0
C174 C 0.28027 0.43737 0.07094 0.0
C175 C 0.30178 0.37554 0.02693 0.0
C176 C 0.30256 0.38955 0.09684 0.0
C177 C 0.33809 0.42939 0.06545 0.0
O178 O 0.33369 0.41155 0.05892 0.0
O179 O 0.32795 0.43825 0.07328 0.0
O180 O 0.31289 0.37099 0.03837 0.0
O181 O 0.29522 0.3898 0.03298 0.0
O182 O 0.81407 0.18799 0.0856 0.0
Cd183 Cd 0.81218 0.17069 0.06042 0.0
Cd184 Cd 0.81055 0.20165 0.04947 0.0
O185 O 0.82488 0.21392 0.07432 0.0
O186 O 0.82422 0.15009 0.06403 0.0
O187 O 0.83211 0.17399 0.04766 0.0
C188 C 0.83493 0.15895 0.05451 0.0
C189 C 0.8143 0.20871 0.0198 0.0
C190 C 0.82113 0.20562 0.08833 0.0
C191 C 0.77949 0.17366 0.04669 0.0
O192 O 0.78586 0.19146 0.05132 0.0
O193 O 0.78882 0.16149 0.04583 0.0
O194 O 0.81093 0.22129 0.03263 0.0
O195 O 0.8174 0.19287 0.02458 0.0
O196 O 0.14479 0.51082 0.27515 0.0
Cd197 Cd 0.16519 0.51207 0.29616 0.0
Cd198 Cd 0.13869 0.53227 0.31835 0.0
O199 O 0.12589 0.52309 0.29019 0.0
O200 O 0.18046 0.49526 0.284 0.0
O201 O 0.16923 0.48862 0.30925 0.0
C202 C 0.17848 0.484 0.29663 0.0
C203 C 0.12489 0.53152 0.3473 0.0
C204 C 0.13072 0.51594 0.2748 0.0
C205 C 0.17377 0.55611 0.31255 0.0
O206 O 0.15951 0.55462 0.31843 0.0
O207 O 0.17853 0.54115 0.30488 0.0
O208 O 0.12323 0.54368 0.33581 0.0
O209 O 0.13399 0.5194 0.34236 0.0
O210 O 0.80295 0.90992 0.60131 0.0
Cd211 Cd 0.80498 0.92592 0.57886 0.0
Cd212 Cd 0.81416 0.89388 0.56231 0.0
O213 O 0.80773 0.88297 0.58639 0.0
O214 O 0.79112 0.94592 0.58339 0.0
O215 O 0.78452 0.92201 0.55945 0.0
C216 C 0.78082 0.93694 0.56885 0.0
C217 C 0.80434 0.87634 0.53223 0.0
C218 C 0.80408 0.89239 0.6011 0.0
C219 C 0.84006 0.93047 0.56828 0.0
O220 O 0.83682 0.91224 0.56417 0.0
O221 O 0.82882 0.93921 0.57354 0.0
O222 O 0.81542 0.87139 0.54342 0.0
O223 O 0.7983 0.89097 0.53843 0.0
O224 O 0.91054 0.04787 0.24308 0.0
Cd225 Cd 0.89199 0.0485 0.26203 0.0
Cd226 Cd 0.92193 0.03366 0.2855 0.0
O227 O 0.93173 0.03972 0.25964 0.0
O228 O 0.87505 0.06387 0.25155 0.0
O229 O 0.89047 0.07414 0.27884 0.0
C230 C 0.87925 0.07706 0.26628 0.0
C231 C 0.93914 0.03843 0.31604 0.0
C232 C 0.92525 0.04437 0.24427 0.0
C233 C 0.88544 1.00807 0.27626 0.0
O234 O 0.90073 0.01133 0.28324 0.0
O235 O 0.87969 0.02071 0.26784 0.0
O236 O 0.93933 0.02457 0.3027 0.0
O237 O 0.92989 0.05033 0.31191 0.0
O238 O 0.31624 0.6923 0.58212 0.0
Cd239 Cd 0.31231 0.67325 0.55757 0.0
Cd240 Cd 0.30918 0.70282 0.54471 0.0
O241 O 0.3246 0.71725 0.56821 0.0
O242 O 0.32281 0.65135 0.56123 0.0
O243 O 0.33113 0.67323 0.5429 0.0
C244 C 0.33299 0.65798 0.54996 0.0
C245 C 0.31177 0.70631 0.51381 0.0
C246 C 0.32238 0.71013 0.58327 0.0
C247 C 0.27858 0.6756 0.54558 0.0
O248 O 0.28473 0.69353 0.54842 0.0
O249 O 0.28815 0.66369 0.54539 0.0
O250 O 0.30903 0.7202 0.52565 0.0
O251 O 0.31475 0.69106 0.52008 0.0
O252 O 0.41205 0.55081 0.74649 0.0
Cd253 Cd 0.39315 0.55195 0.76514 0.0
Cd254 Cd 0.42327 0.5363 0.78893 0.0
O255 O 0.43325 0.54297 0.76345 0.0
O256 O 0.37556 0.5662 0.75384 0.0
O257 O 0.39148 0.57842 0.78041 0.0
C258 C 0.37985 0.58026 0.76777 0.0
C259 C 0.4401 0.53982 0.81969 0.0
C260 C 0.42683 0.54745 0.74795 0.0
C261 C 0.3867 0.51111 0.77891 0.0
O262 O 0.40211 0.51389 0.78527 0.0
O263 O 0.38085 0.52438 0.77168 0.0
O264 O 0.44034 0.52638 0.80593 0.0
O265 O 0.43103 0.552 0.81591 0.0
O266 O 0.64534 0.01351 0.77216 0.0
Cd267 Cd 0.66457 0.01452 0.79444 0.0
Cd268 Cd 0.63805 0.033 0.81508 0.0
O269 O 0.62546 0.02389 0.78683 0.0
O270 O 0.68104 0.99851 0.78426 0.0
O271 O 0.66684 0.99045 0.80714 0.0
C272 C 0.67755 0.98662 0.79605 0.0
C273 C 0.62441 0.03005 0.84376 0.0
C274 C 0.63094 0.01773 0.77152 0.0
C275 C 0.67289 0.05805 0.8114 0.0
O276 O 0.65826 0.05639 0.81626 0.0
O277 O 0.67797 0.0432 0.80418 0.0
O278 O 0.622 0.04246 0.8328 0.0
O279 O 0.63417 0.01888 0.83839 0.0
O280 O 0.7721 0.67298 0.06227 0.0
Cd281 Cd 0.76875 0.65019 0.0406 0.0
Cd282 Cd 0.75485 0.67772 0.02114 0.0
O283 O 0.7629 0.6947 0.04723 0.0
O284 O 0.78197 0.63255 0.05167 0.0
O285 O 0.78879 0.64684 0.02731 0.0
C286 C 0.79232 0.63614 0.03968 0.0
C287 C 0.75858 0.6927 0.99403 0.0
C288 C 0.76918 0.68977 0.06228 0.0
C289 C 0.73194 0.64021 0.02575 0.0
O290 O 0.73379 0.65654 0.0201 0.0
O291 O 0.7444 0.63451 0.0333 0.0
O292 O 0.74793 0.69649 1.00512 0.0
O293 O 0.76717 0.68019 0.99817 0.0
O294 O 0.91505 0.5664 0.76417 0.0
Cd295 Cd 0.89581 0.56708 0.78195 0.0
Cd296 Cd 0.92589 0.55104 0.80605 0.0
O297 O 0.93614 0.55824 0.78102 0.0
O298 O 0.87843 0.58049 0.7691 0.0
O299 O 0.89236 0.59285 0.79684 0.0
C300 C 0.88142 0.59435 0.78323 0.0
C301 C 0.94207 0.55313 0.83698 0.0
C302 C 0.92973 0.56283 0.7656 0.0
C303 C 0.88979 0.52564 0.79361 0.0
O304 O 0.90504 0.52848 0.80059 0.0
O305 O 0.88381 0.53909 0.78694 0.0
O306 O 0.94351 0.5412 0.82244 0.0
O307 O 0.93211 0.56459 0.834 0.0
O308 O 0.74384 0.37067 0.56071 0.0
Cd309 Cd 0.74031 0.38248 0.5363 0.0
Cd310 Cd 0.74935 0.35264 0.52544 0.0
O311 O 0.73777 0.34113 0.54609 0.0
O312 O 0.72862 0.40316 0.54339 0.0
O313 O 0.7178 0.37772 0.52132 0.0
C314 C 0.71638 0.39359 0.53122 0.0
C315 C 0.74443 0.34227 0.49382 0.0
C316 C 0.7416 0.35277 0.56147 0.0
C317 C 0.77444 0.3874 0.52986 0.0
O318 O 0.7723 0.37024 0.53331 0.0
O319 O 0.76192 0.39494 0.52674 0.0
O320 O 0.75205 0.33306 0.50501 0.0
O321 O 0.73799 0.3562 0.50108 0.0
O322 O 0.65151 0.50735 0.27315 0.0
Cd323 Cd 0.67196 0.50889 0.29419 0.0
Cd324 Cd 0.64481 0.52885 0.31628 0.0
O325 O 0.63206 0.51868 0.28803 0.0
O326 O 0.68802 0.49289 0.28225 0.0
O327 O 0.67589 0.48483 0.30648 0.0
C328 C 0.68568 0.48096 0.29423 0.0
C329 C 0.6312 0.52789 0.34555 0.0
C330 C 0.63717 0.5118 0.2727 0.0
C331 C 0.67973 0.55329 0.31031 0.0
O332 O 0.66533 0.55171 0.31591 0.0
O333 O 0.68477 0.5383 0.30314 0.0
O334 O 0.62874 0.53942 0.33364 0.0
O335 O 0.641 0.51651 0.3409 0.0
C336 C 0.07979 0.06841 0.0716 0.0
Eu337 Eu 0.04903 0.05289 0.05927 0.0
C338 C 0.09452 0.06014 0.06943 0.0
C339 C 0.10339 0.05603 0.08561 0.0
C340 C 0.11316 0.0422 0.08382 0.0
C341 C 0.11409 0.03241 0.06582 0.0
C342 C 0.10669 0.03804 0.04959 0.0
C343 C 0.09705 0.05192 0.05138 0.0
C344 C 0.02397 0.05184 0.08229 0.0
C345 C 0.04079 1.0064 0.05756 0.0
C346 C 0.98697 0.0139 0.02239 0.0
Eu347 Eu 0.01766 0.02897 0.03497 0.0
C348 C 0.97332 0.02411 0.02173 0.0
C349 C 0.96344 0.02301 1.0044 0.0
C350 C 0.95414 0.037 1.00178 0.0
C351 C 0.95464 0.05217 0.01652 0.0
C352 C 0.96371 0.05247 0.03421 0.0
C353 C 0.97307 0.03867 0.03674 0.0
C354 C 0.04262 0.0302 0.01188 0.0
C355 C 0.02585 0.0754 0.03617 0.0
O356 O 0.07202 0.0724 0.05623 0.0
O357 O 0.06964 0.05935 0.08185 0.0
O358 O 0.03901 0.06152 0.08666 0.0
O359 O 0.02247 0.04393 0.06498 0.0
O360 O 0.05243 0.0223 0.06055 0.0
O361 O 0.02582 1.00574 0.04906 0.0
O362 O 0.99374 0.01219 0.03925 0.0
O363 O 0.99795 0.01969 0.01143 0.0
O364 O 0.02757 0.02063 1.00743 0.0
O365 O 0.04422 0.03804 0.02924 0.0
O366 O 0.01436 0.05937 0.03283 0.0
O367 O 0.04072 0.07617 0.04511 0.0
H368 H 0.10156 0.0622 0.09967 0.0
H369 H 0.11892 0.03815 0.0965 0.0
H370 H 0.10766 0.03098 0.03555 0.0
H371 H 0.09057 0.05505 0.03868 0.0
H372 H 0.96383 0.01215 0.99251 0.0
H373 H 0.94715 0.0364 0.98804 0.0
H374 H 0.96391 0.06365 0.04602 0.0
H375 H 0.98091 0.04018 0.05008 0.0
C376 C 0.28099 0.80141 0.35323 0.0
Eu377 Eu 0.27702 0.79639 0.31677 0.0
C378 C 0.26971 0.79238 0.3657 0.0
C379 C 0.2556 0.79958 0.37005 0.0
C380 C 0.24344 0.78886 0.37888 0.0
C381 C 0.24515 0.77073 0.38315 0.0
C382 C 0.25961 0.76406 0.37957 0.0
C383 C 0.27177 0.77478 0.3711 0.0
C384 C 0.24809 0.79677 0.29461 0.0
C385 C 0.26196 0.75102 0.29724 0.0
C386 C 0.27413 0.77916 0.2354 0.0
Eu387 Eu 0.27881 0.78302 0.27184 0.0
C388 C 0.28461 0.7881 0.22214 0.0
C389 C 0.29727 0.77965 0.21521 0.0
C390 C 0.30762 0.78886 0.20344 0.0
C391 C 0.30554 0.80669 0.19857 0.0
C392 C 0.29308 0.81522 0.20576 0.0
C393 C 0.28267 0.80599 0.21729 0.0
C394 C 0.30795 0.78345 0.29386 0.0
C395 C 0.29427 0.82817 0.29167 0.0
O396 O 0.28817 0.78958 0.343 0.0
O397 O 0.27552 0.8138 0.34356 0.0
O398 O 0.25056 0.80179 0.31287 0.0
O399 O 0.26103 0.7919 0.28976 0.0
O400 O 0.26716 0.76377 0.31301 0.0
O401 O 0.26386 0.75555 0.27999 0.0
O402 O 0.26761 0.79107 0.24636 0.0
O403 O 0.27983 0.76643 0.24442 0.0
O404 O 0.30571 0.77888 0.27553 0.0
O405 O 0.29472 0.78736 0.29884 0.0
O406 O 0.28915 0.81554 0.27584 0.0
O407 O 0.29215 0.82362 0.30881 0.0
H408 H 0.25371 0.81319 0.36616 0.0
H409 H 0.23263 0.79454 0.38205 0.0
H410 H 0.26164 0.75051 0.3835 0.0
H411 H 0.28255 0.76891 0.36818 0.0
H412 H 0.29912 0.76591 0.21876 0.0
H413 H 0.31698 0.78186 0.1978 0.0
H414 H 0.29081 0.82865 0.20173 0.0
H415 H 0.27301 0.81288 0.2223 0.0
C416 C 0.48645 0.03644 0.56076 0.0
Eu417 Eu 0.51676 0.03194 0.55763 0.0
C418 C 0.47418 0.04901 0.55896 0.0
C419 C 0.46644 0.05429 0.57482 0.0
C420 C 0.45311 0.06368 0.57313 0.0
C421 C 0.44706 0.06799 0.55548 0.0
C422 C 0.45532 0.06346 0.53973 0.0
C423 C 0.46868 0.05403 0.54144 0.0
C424 C 0.53819 0.02474 0.58653 0.0
C425 C 0.54243 0.073 0.56032 0.0
C426 C 0.58452 0.02943 0.55479 0.0
Eu427 Eu 0.55357 0.03286 0.54898 0.0
C428 C 0.59737 0.01804 0.55048 0.0
C429 C 0.60521 0.01878 0.53398 0.0
C430 C 0.61872 1.00978 0.53159 0.0
C431 C 0.62481 0.99993 0.54569 0.0
C432 C 0.61664 0.9989 0.56195 0.0
C433 C 0.60319 1.00782 0.5643 0.0
C434 C 0.53353 0.03383 0.5158 0.0
C435 C 0.52613 0.99255 0.5407 0.0
O436 O 0.49091 0.02804 0.54531 0.0
O437 O 0.49859 0.04155 0.57476 0.0
O438 O 0.52266 0.01628 0.58231 0.0
O439 O 0.5416 0.03701 0.57544 0.0
O440 O 0.52688 0.0634 0.5578 0.0
O441 O 0.55523 0.06448 0.55917 0.0
O442 O 0.57283 0.02185 0.56423 0.0
O443 O 0.57924 0.03967 0.54245 0.0
O444 O 0.54926 0.03351 0.51683 0.0
O445 O 0.52955 0.0332 0.53234 0.0
O446 O 0.54197 1.00107 0.54496 0.0
O447 O 0.51395 1.00194 0.54221 0.0
H448 H 0.47034 0.05056 0.58849 0.0
H449 H 0.44733 0.06723 0.58566 0.0
H450 H 0.45099 0.06643 0.52588 0.0
H451 H 0.47432 0.05011 0.5289 0.0
H452 H 0.60117 0.02666 0.5231 0.0
H453 H 0.62451 1.01073 0.51876 0.0
H454 H 0.62104 0.99185 0.57333 0.0
H455 H 0.59766 1.00726 0.57735 0.0
C456 C 0.33244 0.28042 0.79046 0.0
Eu457 Eu 0.30084 0.27903 0.79245 0.0
C458 C 0.34548 0.27639 0.77865 0.0
C459 C 0.35709 0.26619 0.78556 0.0
C460 C 0.37124 0.26495 0.77671 0.0
C461 C 0.37418 0.27392 0.76069 0.0
C462 C 0.36206 0.28318 0.75307 0.0
C463 C 0.34788 0.28449 0.76202 0.0
C464 C 0.27767 0.24795 0.79806 0.0
C465 C 0.27919 0.27118 0.75018 0.0
C466 C 0.23216 0.27588 0.79048 0.0
Eu467 Eu 0.26401 0.28428 0.78834 0.0
C468 C 0.21897 0.279 0.80255 0.0
C469 C 0.21163 0.29519 0.80264 0.0
C470 C 0.19778 0.29645 0.81226 0.0
C471 C 0.19085 0.28143 0.82178 0.0
C472 C 0.19862 0.26564 0.82224 0.0
C473 C 0.21242 0.26443 0.81274 0.0
C474 C 0.28496 0.31974 0.78902 0.0
C475 C 0.28661 0.29511 0.82955 0.0
O476 O 0.32491 0.29435 0.78713 0.0
O477 O 0.32266 0.26596 0.79567 0.0
O478 O 0.29229 0.25379 0.80784 0.0
O479 O 0.27605 0.25875 0.78553 0.0
O480 O 0.29352 0.27219 0.7607 0.0
O481 O 0.2658 0.2748 0.75742 0.0
O482 O 0.24276 0.26599 0.79671 0.0
O483 O 0.239 0.28969 0.78163 0.0
O484 O 0.26885 0.31685 0.7874 0.0
O485 O 0.28881 0.30359 0.79025 0.0
O486 O 0.27161 0.28882 0.82005 0.0
O487 O 0.3002 0.29537 0.82129 0.0
H488 H 0.35558 0.25985 0.79837 0.0
H489 H 0.38016 0.25743 0.78276 0.0
H490 H 0.36395 0.29029 0.74079 0.0
H491 H 0.33918 0.29249 0.75635 0.0
H492 H 0.21624 0.30662 0.79482 0.0
H493 H 0.19205 0.30876 0.81152 0.0
H494 H 0.19378 0.25394 0.82963 0.0
H495 H 0.21766 0.25168 0.81289 0.0
C496 C 0.02938 0.9751 0.53278 0.0
Eu497 Eu 0.03551 0.01208 0.53819 0.0
C498 C 0.03953 0.96235 0.54036 0.0
C499 C 0.04753 0.95117 0.52825 0.0
C500 C 0.0579 0.9399 0.53567 0.0
C501 C 0.06034 0.93958 0.55532 0.0
C502 C 0.05266 0.95127 0.56738 0.0
C503 C 0.04244 0.96251 0.56002 0.0
C504 C 0.06606 0.0346 0.53669 0.0
C505 C 0.05042 0.03102 0.58261 0.0
C506 C 0.04426 0.09428 0.55807 0.0
Eu507 Eu 0.0363 0.05715 0.55237 0.0
C508 C 0.03522 0.10827 0.55151 0.0
C509 C 0.01892 0.1019 0.54234 0.0
C510 C 0.01124 0.11416 0.53268 0.0
C511 C 0.01977 0.13295 0.53219 0.0
C512 C 0.03575 0.13961 0.5423 0.0
C513 C 0.04348 0.12727 0.55184 0.0
C514 C 1.00556 0.03493 0.5534 0.0
C515 C 0.02097 0.03768 0.50802 0.0
O516 O 0.02264 0.98519 0.54531 0.0
O517 O 0.0358 0.98517 0.52028 0.0
O518 O 0.06232 0.01612 0.5315 0.0
O519 O 0.05333 0.03959 0.54213 0.0
O520 O 0.04497 0.01523 0.56983 0.0
O521 O 0.04934 0.04849 0.57873 0.0
O522 O 0.04917 0.08361 0.54435 0.0
O523 O 0.03753 0.08435 0.5705 0.0
O524 O 1.00933 0.05347 0.55842 0.0
O525 O 0.01838 0.02968 0.54845 0.0
O526 O 0.02657 0.05367 0.52059 0.0
O527 O 0.02201 0.02031 0.51213 0.0
H528 H 0.04573 0.95111 0.51306 0.0
H529 H 0.06366 0.93108 0.526 0.0
H530 H 0.05382 0.95107 0.58253 0.0
H531 H 0.03671 0.97118 0.56986 0.0
H532 H 0.01248 0.08713 0.54179 0.0
H533 H 0.99895 0.10877 0.52496 0.0
H534 H 0.04266 0.15397 0.54182 0.0
H535 H 0.05615 0.13224 0.55861 0.0
C536 C 0.23972 0.74068 0.75266 0.0
Eu537 Eu 0.2643 0.7665 0.77133 0.0
C538 C 0.22426 0.74136 0.74106 0.0
C539 C 0.20905 0.7324 0.74603 0.0
C540 C 0.19419 0.73471 0.73654 0.0
C541 C 0.19433 0.74594 0.72184 0.0
C542 C 0.20958 0.75426 0.71641 0.0
C543 C 0.22442 0.75207 0.72599 0.0
C544 C 0.27155 0.77662 0.80913 0.0
C545 C 0.26252 0.81189 0.77798 0.0
C546 C 0.32242 0.82043 0.80154 0.0
Eu547 Eu 0.29709 0.79468 0.78434 0.0
C548 C 0.33865 0.81931 0.81125 0.0
C549 C 0.35315 0.82606 0.80345 0.0
C550 C 0.36837 0.82276 0.811 0.0
C551 C 0.36933 0.81274 0.82655 0.0
C552 C 0.35494 0.80688 0.8349 0.0
C553 C 0.33973 0.81006 0.8273 0.0
C554 C 0.28854 0.78477 0.74666 0.0
C555 C 0.29907 0.74953 0.77756 0.0
O556 O 0.25357 0.74642 0.74574 0.0
O557 O 0.24054 0.74708 0.77075 0.0
O558 O 0.25662 0.77283 0.80016 0.0
O559 O 0.28176 0.77331 0.7979 0.0
O560 O 0.25482 0.79449 0.76899 0.0
O561 O 0.27814 0.81466 0.78618 0.0
O562 O 0.30936 0.81425 0.80971 0.0
O563 O 0.32013 0.8148 0.78319 0.0
O564 O 0.30354 0.78643 0.75487 0.0
O565 O 0.27915 0.78872 0.7585 0.0
O566 O 0.30679 0.76691 0.78645 0.0
O567 O 0.28339 0.74669 0.76957 0.0
H568 H 0.20869 0.72415 0.75768 0.0
H569 H 0.18263 0.72829 0.74117 0.0
H570 H 0.21006 0.76272 0.70493 0.0
H571 H 0.23598 0.75917 0.72187 0.0
H572 H 0.3526 0.83326 0.79108 0.0
H573 H 0.37924 0.82738 0.8042 0.0
H574 H 0.35536 0.79951 0.84715 0.0
H575 H 0.32879 0.80474 0.83371 0.0
C576 C 0.57412 0.0487 0.0907 0.0
Eu577 Eu 0.5478 0.03105 0.06775 0.0
C578 C 0.5905 0.05986 0.08839 0.0
C579 C 0.60316 0.05046 0.08315 0.0
C580 C 0.61805 0.06098 0.07919 0.0
C581 C 0.62061 0.08109 0.08043 0.0
C582 C 0.60828 0.09057 0.08656 0.0
C583 C 0.59338 0.08005 0.09056 0.0
C584 C 0.53559 0.99313 0.05831 0.0
C585 C 0.54809 0.02543 0.02175 0.0
C586 C 0.48617 1.00634 0.0212 0.0
Eu587 Eu 0.51383 0.0213 0.0431 0.0
C588 C 0.46879 0.9997 0.02419 0.0
C589 C 0.45832 0.0127 0.02784 0.0
C590 C 0.44212 1.00602 0.03146 0.0
C591 C 0.43622 0.98631 0.03158 0.0
C592 C 0.44664 0.97336 0.02772 0.0
C593 C 0.46271 0.97997 0.02395 0.0
C594 C 0.52736 0.05874 0.05358 0.0
C595 C 0.51334 0.02882 0.08865 0.0
O596 O 0.56141 0.0566 0.08674 0.0
O597 O 0.57105 0.03023 0.08429 0.0
O598 O 0.55131 1.00071 0.06126 0.0
O599 O 0.52707 1.0057 0.06201 0.0
O600 O 0.55705 0.03235 0.0386 0.0
O601 O 0.5317 0.01944 0.02041 0.0
O602 O 0.4965 0.99626 0.02753 0.0
O603 O 0.49233 0.02488 0.02472 0.0
O604 O 0.51166 0.05175 0.0533 0.0
O605 O 0.53489 0.04588 0.04818 0.0
O606 O 0.50434 0.0217 0.07196 0.0
O607 O 0.52978 0.03396 0.09006 0.0
H608 H 0.60146 0.03494 0.08167 0.0
H609 H 0.6275 0.05334 0.07492 0.0
H610 H 0.6099 0.10606 0.0876 0.0
H611 H 0.58391 0.08769 0.0948 0.0
H612 H 0.46264 0.02799 0.02802 0.0
H613 H 0.43425 0.01626 0.0343 0.0
H614 H 0.44226 0.95803 0.02725 0.0
H615 H 0.47043 0.96959 0.02095 0.0
C616 C 0.32157 0.32529 0.2988 0.0
Eu617 Eu 0.29392 0.30102 0.29744 0.0
C618 C 0.33565 0.32282 0.28845 0.0
C619 C 0.34983 0.3189 0.29831 0.0
C620 C 0.36017 0.30905 0.28859 0.0
C621 C 0.35655 0.3033 0.26889 0.0
C622 C 0.34374 0.30957 0.25879 0.0
C623 C 0.33337 0.31934 0.2685 0.0
C624 C 0.27773 0.28628 0.32536 0.0
C625 C 0.29584 0.25474 0.28542 0.0
C626 C 0.23264 0.24417 0.27835 0.0
Eu627 Eu 0.2602 0.2689 0.2802 0.0
C628 C 0.21735 0.24551 0.28672 0.0
C629 C 0.20301 0.24631 0.27487 0.0
C630 C 0.18987 0.25268 0.28257 0.0
C631 C 0.19085 0.25817 0.30224 0.0
C632 C 0.2045 0.25557 0.31418 0.0
C633 C 0.21766 0.2493 0.30649 0.0
C634 C 0.27659 0.28308 0.2522 0.0
C635 C 0.25849 0.31544 0.29168 0.0
O636 O 0.30788 0.32662 0.28858 0.0
O637 O 0.31884 0.31358 0.31131 0.0
O638 O 0.29116 0.2996 0.32876 0.0
O639 O 0.27364 0.2828 0.30773 0.0
O640 O 0.30389 0.27318 0.28946 0.0
O641 O 0.27932 0.24986 0.28252 0.0
O642 O 0.24588 0.2442 0.2901 0.0
O643 O 0.23576 0.25538 0.26552 0.0
O644 O 0.26323 0.26967 0.24889 0.0
O645 O 0.28056 0.28698 0.26987 0.0
O646 O 0.25031 0.29707 0.28694 0.0
O647 O 0.27496 0.32017 0.29547 0.0
H648 H 0.35196 0.32167 0.31368 0.0
H649 H 0.37033 0.30483 0.29659 0.0
H650 H 0.34081 0.30549 0.24355 0.0
H651 H 0.32272 0.32249 0.26045 0.0
H652 H 0.20247 0.24331 0.25958 0.0
H653 H 0.17933 0.25423 0.2731 0.0
H654 H 0.20563 0.25975 0.3294 0.0
H655 H 0.22851 0.24875 0.31603 0.0
C656 C 0.54096 0.47571 0.03316 0.0
Eu657 Eu 0.53877 0.51149 0.04042 0.0
C658 C 0.55031 0.46407 0.04363 0.0
C659 C 0.56137 0.45444 0.03469 0.0
C660 C 0.57048 0.44356 0.04468 0.0
C661 C 0.56858 0.44208 0.06374 0.0
C662 C 0.55797 0.45243 0.0728 0.0
C663 C 0.54898 0.46332 0.06288 0.0
C664 C 0.56456 0.53954 0.03579 0.0
C665 C 0.55195 0.52654 0.08603 0.0
C666 C 0.5348 0.58517 0.06252 0.0
Eu667 Eu 0.53517 0.54873 0.05608 0.0
C668 C 0.52952 0.59874 0.05066 0.0
C669 C 0.51725 0.60863 0.056 0.0
C670 C 0.51186 0.62126 0.04472 0.0
C671 C 0.51881 0.62442 0.02799 0.0
C672 C 0.53097 0.61427 0.02257 0.0
C673 C 0.5362 0.60147 0.03372 0.0
C674 C 0.50921 0.5209 0.06071 0.0
C675 C 0.52146 0.53304 0.01073 0.0
O676 O 0.52868 0.48124 0.04098 0.0
O677 O 0.55 0.48941 0.02615 0.0
O678 O 0.55703 0.52568 0.02258 0.0
O679 O 0.558 0.53828 0.05085 0.0
O680 O 0.54683 0.51155 0.07236 0.0
O681 O 0.55027 0.5438 0.08261 0.0
O682 O 0.54791 0.57859 0.05845 0.0
O683 O 0.52297 0.57183 0.06622 0.0
O684 O 0.51666 0.53495 0.07387 0.0
O685 O 0.51591 0.52193 0.04568 0.0
O686 O 0.52728 0.54831 0.02397 0.0
O687 O 0.52253 0.51581 0.01469 0.0
H688 H 0.5628 0.45517 0.01993 0.0
H689 H 0.5786 0.43583 0.03733 0.0
H690 H 0.55584 0.45132 0.08731 0.0
H691 H 0.54073 0.47082 0.07024 0.0
H692 H 0.51181 0.60655 0.06891 0.0
H693 H 0.50231 0.62864 0.04917 0.0
H694 H 0.53681 0.61659 0.00997 0.0
H695 H 0.54557 0.59387 0.02912 0.0
C696 C 0.74544 0.24134 0.25138 0.0
Eu697 Eu 0.76703 0.266 0.27559 0.0
C698 C 0.72748 0.23778 0.24665 0.0
C699 C 0.71732 0.24089 0.2608 0.0
C700 C 0.70045 0.23978 0.25585 0.0
C701 C 0.69359 0.2359 0.23668 0.0
C702 C 0.7037 0.23192 0.22265 0.0
C703 C 0.72055 0.23281 0.22764 0.0
C704 C 0.7656 0.27371 0.31286 0.0
C705 C 0.76481 0.31095 0.28694 0.0
C706 C 0.82166 0.31517 0.32174 0.0
Eu707 Eu 0.79819 0.29266 0.29825 0.0
C708 C 0.83883 0.31323 0.32668 0.0
C709 C 0.84927 0.31104 0.31256 0.0
C710 C 0.86468 0.30646 0.317 0.0
C711 C 0.86975 0.30376 0.33552 0.0
C712 C 0.85947 0.30634 0.34968 0.0
C713 C 0.84416 0.31111 0.3453 0.0
C714 C 0.79733 0.28665 0.26039 0.0
C715 C 0.801 0.24843 0.28546 0.0
O716 O 0.75361 0.25746 0.24714 0.0
O717 O 0.75079 0.23787 0.26813 0.0
O718 O 0.75264 0.26978 0.30012 0.0
O719 O 0.77826 0.27086 0.30539 0.0
O720 O 0.75774 0.29432 0.27589 0.0
O721 O 0.77939 0.31282 0.2976 0.0
O722 O 0.81036 0.30224 0.32715 0.0
O723 O 0.81772 0.31842 0.30447 0.0
O724 O 0.81071 0.28725 0.27177 0.0
O725 O 0.78577 0.28943 0.26954 0.0
O726 O 0.80759 0.26445 0.29749 0.0
O727 O 0.78674 0.24709 0.27455 0.0
H728 H 0.7225 0.24481 0.2756 0.0
H729 H 0.6929 0.24263 0.26696 0.0
H730 H 0.69884 0.22915 0.20774 0.0
H731 H 0.7283 0.23047 0.2166 0.0
H732 H 0.84541 0.31235 0.29799 0.0
H733 H 0.87248 0.30464 0.3059 0.0
H734 H 0.86332 0.30477 0.36419 0.0
H735 H 0.83626 0.31261 0.35635 0.0
C736 C 0.07399 0.55232 0.59441 0.0
Eu737 Eu 0.04662 0.54053 0.57153 0.0
C738 C 0.08985 0.56483 0.59252 0.0
C739 C 0.10445 0.55766 0.59409 0.0
C740 C 0.11919 0.56833 0.5898 0.0
C741 C 0.11955 0.58639 0.58399 0.0
C742 C 0.10511 0.59395 0.58327 0.0
C743 C 0.09036 0.58323 0.58741 0.0
C744 C 0.02724 0.50505 0.56065 0.0
C745 C 0.04733 0.53873 0.5254 0.0
C746 C 0.98599 0.53062 0.52491 0.0
Eu747 Eu 0.01379 0.54048 0.54726 0.0
C748 C 0.96932 0.52015 0.52704 0.0
C749 C 0.95577 0.52916 0.52505 0.0
C750 C 0.93999 0.51965 0.52769 0.0
C751 C 0.93745 0.50085 0.53219 0.0
C752 C 0.95108 0.49188 0.5342 0.0
C753 C 0.96686 0.50146 0.53175 0.0
C754 C 0.03336 0.57509 0.55967 0.0
C755 C 0.01323 0.54411 0.59297 0.0
O756 O 0.06122 0.56061 0.59526 0.0
O757 O 0.07044 0.53559 0.58339 0.0
O758 O 0.04329 0.50831 0.56425 0.0
O759 O 0.02231 0.52044 0.56476 0.0
O760 O 0.05632 0.5415 0.54242 0.0
O761 O 0.031 0.53767 0.524 0.0
O762 O 0.99766 0.52058 0.52449 0.0
O763 O 0.99094 0.54767 0.53521 0.0
O764 O 0.01729 0.57224 0.5579 0.0
O765 O 0.03817 0.56017 0.55377 0.0
O766 O 1.00411 0.53939 0.57605 0.0
O767 O 0.02968 0.54648 0.59442 0.0
H768 H 0.10433 0.54353 0.59801 0.0
H769 H 0.13024 0.56231 0.5907 0.0
H770 H 0.10505 0.60778 0.5787 0.0
H771 H 0.07927 0.58912 0.58596 0.0
H772 H 0.95742 0.54364 0.5216 0.0
H773 H 0.92981 0.52709 0.52632 0.0
H774 H 0.94955 0.47731 0.53735 0.0
H775 H 0.9771 0.49415 0.53354 0.0
C776 C 0.8317 0.78802 0.29478 0.0
Eu777 Eu 0.79989 0.78017 0.29669 0.0
C778 C 0.84458 0.78379 0.28282 0.0
C779 C 0.85067 0.76673 0.28253 0.0
C780 C 0.86405 0.76413 0.27259 0.0
C781 C 0.87167 0.77857 0.2628 0.0
C782 C 0.86521 0.79536 0.26275 0.0
C783 C 0.8519 0.79793 0.27263 0.0
C784 C 0.77818 0.74566 0.29786 0.0
C785 C 0.77664 0.77121 0.2556 0.0
C786 C 0.72901 0.77777 0.29481 0.0
Eu787 Eu 0.76102 0.78542 0.29379 0.0
C788 C 0.71556 0.7811 0.30633 0.0
C789 C 0.70644 0.79534 0.30325 0.0
C790 C 0.69227 0.79646 0.31224 0.0
C791 C 0.6868 0.7832 0.3243 0.0
C792 C 0.69629 0.76945 0.32789 0.0
C793 C 0.71044 0.76839 0.31902 0.0
C794 C 0.78334 0.81969 0.29317 0.0
C795 C 0.78429 0.79489 0.3347 0.0
O796 O 0.82127 0.79779 0.2879 0.0
O797 O 0.82471 0.77483 0.30426 0.0
O798 O 0.79427 0.74795 0.29907 0.0
O799 O 0.77488 0.76203 0.29609 0.0
O800 O 0.79156 0.77359 0.26531 0.0
O801 O 0.76317 0.77393 0.26334 0.0
O802 O 0.73923 0.7676 0.30135 0.0
O803 O 0.73639 0.79163 0.28636 0.0
O804 O 0.76742 0.8183 0.29315 0.0
O805 O 0.7859 0.80294 0.29401 0.0
O806 O 0.76912 0.79093 0.32529 0.0
O807 O 0.79784 0.7934 0.32662 0.0
H808 H 0.84536 0.75556 0.29029 0.0
H809 H 0.86856 0.75092 0.27279 0.0
H810 H 0.87087 0.80697 0.25572 0.0
H811 H 0.84765 0.81135 0.27277 0.0
H812 H 0.7099 0.8052 0.29339 0.0
H813 H 0.68518 0.80715 0.30907 0.0
H814 H 0.69257 0.75919 0.3373 0.0
H815 H 0.71703 0.75711 0.32164 0.0
C816 C 0.78534 0.30241 0.85582 0.0
Eu817 Eu 0.78297 0.29651 0.81932 0.0
C818 C 0.77339 0.29507 0.86826 0.0
C819 C 0.75647 0.29582 0.86464 0.0
C820 C 0.74463 0.28479 0.87357 0.0
C821 C 0.74965 0.27288 0.88599 0.0
C822 C 0.7666 0.27308 0.89046 0.0
C823 C 0.77838 0.28412 0.88169 0.0
C824 C 0.75432 0.29676 0.79693 0.0
C825 C 0.76666 0.25149 0.80095 0.0
C826 C 0.79185 0.27699 0.74386 0.0
Eu827 Eu 0.78774 0.28216 0.77935 0.0
C828 C 0.80171 0.28933 0.7325 0.0
C829 C 0.81422 0.28267 0.72344 0.0
C830 C 0.82383 0.29429 0.71277 0.0
C831 C 0.82091 0.31268 0.71077 0.0
C832 C 0.80891 0.31966 0.72068 0.0
C833 C 0.79946 0.30813 0.7315 0.0
C834 C 0.81094 0.27676 0.80649 0.0
C835 C 0.80106 0.32849 0.79608 0.0
O836 O 0.79159 0.2891 0.84643 0.0
O837 O 0.7812 0.3149 0.84538 0.0
O838 O 0.75685 0.30202 0.8151 0.0
O839 O 0.76703 0.29161 0.79153 0.0
O840 O 0.77308 0.26386 0.81658 0.0
O841 O 0.76868 0.25639 0.78401 0.0
O842 O 0.77888 0.28268 0.74982 0.0
O843 O 0.80051 0.27058 0.75689 0.0
O844 O 0.80371 0.26381 0.79227 0.0
O845 O 0.80529 0.29193 0.80605 0.0
O846 O 0.7983 0.31462 0.7812 0.0
O847 O 0.79701 0.32477 0.81278 0.0
H848 H 0.75228 0.30409 0.85421 0.0
H849 H 0.7316 0.28485 0.87013 0.0
H850 H 0.77065 0.26401 0.90018 0.0
H851 H 0.79128 0.28317 0.88453 0.0
H852 H 0.81642 0.26837 0.72442 0.0
H853 H 0.83309 0.2886 0.70546 0.0
H854 H 0.80611 0.3336 0.71924 0.0
H855 H 0.79015 0.31383 0.73872 0.0
C856 C 0.82119 0.82497 0.8092 0.0
Eu857 Eu 0.7918 0.80322 0.80291 0.0
C858 C 0.83627 0.82225 0.80107 0.0
C859 C 0.84986 0.81939 0.81286 0.0
C860 C 0.86209 0.81119 0.805 0.0
C861 C 0.86083 0.80584 0.78527 0.0
C862 C 0.84807 0.81044 0.77347 0.0
C863 C 0.83593 0.81864 0.78129 0.0
C864 C 0.77397 0.7883 0.8293 0.0
C865 C 0.79389 0.75741 0.78808 0.0
C866 C 0.73119 0.75021 0.7879 0.0
Eu867 Eu 0.75939 0.77303 0.78715 0.0
C868 C 0.71588 0.75541 0.79331 0.0
C869 C 0.70031 0.74426 0.78539 0.0
C870 C 0.68587 0.75022 0.78998 0.0
C871 C 0.68699 0.76757 0.80219 0.0
C872 C 0.70261 0.77863 0.81004 0.0
C873 C 0.7169 0.77255 0.80573 0.0
C874 C 0.77174 0.78906 0.75775 0.0
C875 C 0.75815 0.81934 0.79678 0.0
O876 O 0.80918 0.82815 0.79748 0.0
O877 O 0.81592 0.81235 0.82006 0.0
O878 O 0.78139 0.80625 0.83114 0.0
O879 O 0.77654 0.77953 0.81387 0.0
O880 O 0.80188 0.77577 0.79327 0.0
O881 O 0.77741 0.75271 0.78509 0.0
O882 O 0.74346 0.75354 0.80169 0.0
O883 O 0.73578 0.75609 0.77237 0.0
O884 O 0.75876 0.77521 0.7557 0.0
O885 O 0.77783 0.79264 0.77497 0.0
O886 O 0.75 0.80117 0.79549 0.0
O887 O 0.7745 0.82352 0.79779 0.0
H888 H 0.85036 0.82215 0.82816 0.0
H889 H 0.87204 0.80814 0.81436 0.0
H890 H 0.84671 0.80641 0.75821 0.0
H891 H 0.82567 0.82074 0.77179 0.0
H892 H 0.69935 0.73105 0.77569 0.0
H893 H 0.67388 0.7414 0.784 0.0
H894 H 0.70378 0.79177 0.81993 0.0
H895 H 0.72877 0.78126 0.81222 0.0
C896 C 0.58535 0.56542 0.57715 0.0
Eu897 Eu 0.55427 0.55069 0.56593 0.0
C898 C 0.59997 0.55815 0.57218 0.0
C899 C 0.61222 0.55688 0.58666 0.0
C900 C 0.62349 0.54504 0.58308 0.0
C901 C 0.62261 0.53441 0.56496 0.0
C902 C 0.61119 0.53697 0.55015 0.0
C903 C 0.59991 0.54868 0.55375 0.0
C904 C 0.52904 0.55054 0.58879 0.0
C905 C 0.54493 0.50397 0.5633 0.0
C906 C 0.491 0.51341 0.53036 0.0
Eu907 Eu 0.52205 0.52766 0.54147 0.0
C908 C 0.47748 0.52335 0.53325 0.0
C909 C 0.46344 0.5196 0.51969 0.0
C910 C 0.45266 0.53237 0.5199 0.0
C911 C 0.45593 0.54902 0.53362 0.0
C912 C 0.46962 0.55221 0.54766 0.0
C913 C 0.48035 0.53952 0.5474 0.0
C914 C 0.54726 0.52865 0.51857 0.0
C915 C 0.5317 0.57392 0.54292 0.0
O916 O 0.57675 0.57133 0.56358 0.0
O917 O 0.57601 0.55437 0.58673 0.0
O918 O 0.54427 0.55964 0.5934 0.0
O919 O 0.52763 0.54273 0.57147 0.0
O920 O 0.55671 0.51978 0.56689 0.0
O921 O 0.53009 0.50368 0.55459 0.0
O922 O 0.49882 0.5095 0.54573 0.0
O923 O 0.50107 0.5213 0.51933 0.0
O924 O 0.53196 0.51999 0.51349 0.0
O925 O 0.54852 0.53598 0.536 0.0
O926 O 0.51956 0.55855 0.54059 0.0
O927 O 0.54674 0.57389 0.55088 0.0
H928 H 0.6123 0.5639 0.60102 0.0
H929 H 0.6323 0.54342 0.59468 0.0
H930 H 0.61009 0.52877 0.5361 0.0
H931 H 0.59037 0.54916 0.54242 0.0
H932 H 0.46133 0.50743 0.5084 0.0
H933 H 0.44204 0.52954 0.50904 0.0
H934 H 0.47259 0.56507 0.55819 0.0
H935 H 0.49153 0.54309 0.55748 0.0
C936 C 0.98428 0.53524 0.05807 0.0
Eu937 Eu 0.01581 0.53373 0.0614 0.0
C938 C 0.97258 0.54864 0.06006 0.0
C939 C 0.96502 0.55126 0.07666 0.0
C940 C 0.95238 0.56179 0.07755 0.0
C941 C 0.94685 0.56987 0.0618 0.0
C942 C 0.95481 0.56773 0.04542 0.0
C943 C 0.96745 0.55725 0.04455 0.0
C944 C 0.0368 0.52984 0.09281 0.0
C945 C 0.04189 0.57546 0.06848 0.0
C946 C 0.08589 0.53564 0.05312 0.0
Eu947 Eu 0.05448 0.53699 0.05228 0.0
C948 C 0.0983 0.52317 0.05481 0.0
C949 C 0.10511 0.51676 0.03855 0.0
C950 C 0.11817 0.50695 0.03982 0.0
C951 C 0.12494 0.50333 0.05745 0.0
C952 C 0.11781 0.50926 0.07371 0.0
C953 C 0.10468 0.5191 0.07242 0.0
C954 C 0.0334 0.54095 0.02084 0.0
C955 C 0.0288 0.49535 0.04667 0.0
O956 O 0.99343 0.53643 0.04429 0.0
O957 O 0.99225 0.5315 0.07339 0.0
O958 O 0.02096 0.5292 0.09239 0.0
O959 O 0.04029 0.53231 0.07634 0.0
O960 O 0.02646 0.56555 0.06735 0.0
O961 O 0.05471 0.56781 0.06424 0.0
O962 O 0.07938 0.54174 0.06815 0.0
O963 O 0.07527 0.53165 0.03766 0.0
O964 O 0.04932 0.54243 0.02155 0.0
O965 O 0.02996 0.53799 0.0372 0.0
O966 O 0.04435 0.50518 0.05013 0.0
O967 O 0.01571 0.50335 0.04818 0.0
H968 H 0.96854 0.54471 0.08882 0.0
H969 H 0.94676 0.56334 0.09052 0.0
H970 H 0.95081 0.57342 0.03288 0.0
H971 H 0.97278 0.55533 0.03141 0.0
H972 H 0.10068 0.5199 0.02479 0.0
H973 H 0.12343 0.50295 0.02702 0.0
H974 H 0.12253 0.50653 0.08751 0.0
H975 H 0.09981 0.52389 0.08527 0.0
C976 C 1.00058 0.21707 0.96553 0.0
C977 C 1.00479 0.21649 0.94695 0.0
C978 C 1.00235 0.20214 0.97586 0.0
C979 C 0.02516 0.16305 0.979 0.0
H980 H 0.99081 0.1427 0.00834 0.0
C981 C 0.03523 0.10909 0.0297 0.0
C982 C 0.02241 0.09279 0.02859 0.0
C983 C 0.03265 0.12473 0.02086 0.0
C984 C 1.00048 0.14819 1.00018 0.0
H985 H 0.0142 0.19967 0.92472 0.0
H986 H 0.01735 0.17366 0.9428 0.0
H987 H 0.98711 0.16856 0.99017 0.0
H988 H 0.99655 0.08063 0.01797 0.0
H989 H 0.99205 0.10805 1.00258 0.0
H990 H 0.03848 0.14263 0.98881 0.0
C991 C 0.01271 0.18573 0.94937 0.0
C992 C 0.99843 0.16311 0.98989 0.0
C993 C 1.01081 0.20058 0.93896 0.0
C994 C 1.00673 0.0929 0.01906 0.0
C995 C 1.00412 0.10865 0.0103 0.0
C996 C 0.02727 0.14827 0.98939 0.0
C997 C 1.00851 0.18634 0.96795 0.0
C998 C 1.01071 0.17064 0.97909 0.0
C999 C 0.01717 0.12458 0.01074 0.0
C1000 C 0.01494 0.14061 1.00006 0.0
H1001 H 0.99592 0.22909 0.97215 0.0
H1002 H 0.99916 0.20315 0.9902 0.0
H1003 H 0.03493 0.16866 0.97101 0.0
H1004 H 0.04745 0.1096 0.03697 0.0
H1005 H 0.04287 0.13691 0.02177 0.0
C1006 C 0.1236 0.8105 0.19075 0.0
C1007 C 0.11019 0.8122 0.20104 0.0
C1008 C 0.13899 0.80928 0.19997 0.0
C1009 C 0.16586 0.82246 0.24488 0.0
H1010 H 0.18524 0.77874 0.22887 0.0
C1011 C 0.22083 0.80643 0.29093 0.0
C1012 C 0.23294 0.79826 0.28244 0.0
C1013 C 0.20645 0.80841 0.28012 0.0
C1014 C 0.18022 0.79124 0.23335 0.0
H1015 H 0.10259 0.81439 0.22916 0.0
H1016 H 0.1298 0.81308 0.24541 0.0
H1017 H 0.15917 0.78221 0.21178 0.0
H1018 H 0.23905 0.78498 0.25597 0.0
H1019 H 0.21422 0.78921 0.23671 0.0
H1020 H 0.18695 0.83198 0.266 0.0
C1021 C 0.12823 0.81241 0.23014 0.0
C1022 C 0.16521 0.79314 0.2236 0.0
C1023 C 0.11268 0.81316 0.22086 0.0
C1024 C 0.23019 0.7918 0.26282 0.0
C1025 C 0.21579 0.79398 0.25186 0.0
C1026 C 0.18099 0.82078 0.25439 0.0
C1027 C 0.14146 0.81018 0.21974 0.0
C1028 C 0.15775 0.8086 0.22948 0.0
C1029 C 0.20373 0.80246 0.26038 0.0
C1030 C 0.18826 0.80494 0.24906 0.0
H1031 H 0.12208 0.80951 0.17545 0.0
H1032 H 0.149 0.80768 0.19164 0.0
H1033 H 0.16052 0.8347 0.2495 0.0
H1034 H 0.22244 0.81135 0.30607 0.0
H1035 H 0.19735 0.81443 0.28742 0.0
C1036 C 0.51161 0.82312 0.47226 0.0
C1037 C 0.50195 0.81884 0.45438 0.0
C1038 C 0.51298 0.84092 0.48356 0.0
C1039 C 0.49356 0.88228 0.49278 0.0
H1040 H 0.5385 0.91176 0.5071 0.0
C1041 C 0.50755 0.96379 0.52072 0.0
C1042 C 0.522 0.97177 0.53339 0.0
C1043 C 0.50429 0.94439 0.51267 0.0
C1044 C 0.52586 0.90366 0.50365 0.0
H1045 H 0.48551 0.82947 0.43473 0.0
H1046 H 0.48766 0.86044 0.45474 0.0
H1047 H 0.53386 0.87889 0.49078 0.0
H1048 H 0.54397 0.96562 0.54835 0.0
H1049 H 0.53794 0.9316 0.53511 0.0
H1050 H 0.48547 0.90682 0.50593 0.0
C1051 C 0.49425 0.85005 0.45986 0.0
C1052 C 0.52324 0.88483 0.49419 0.0
C1053 C 0.49311 0.83239 0.4484 0.0
C1054 C 0.53283 0.95987 0.53842 0.0
C1055 C 0.52941 0.94039 0.5307 0.0
C1056 C 0.49617 0.90103 0.50258 0.0
C1057 C 0.50446 0.85461 0.47736 0.0
C1058 C 0.50708 0.87406 0.48849 0.0
C1059 C 0.51527 0.93245 0.51741 0.0
C1060 C 0.51237 0.91207 0.50796 0.0
H1061 H 0.51859 0.813 0.47725 0.0
H1062 H 0.52086 0.84411 0.49706 0.0
H1063 H 0.48097 0.87417 0.48861 0.0
H1064 H 0.49905 0.9727 0.51649 0.0
H1065 H 0.49343 0.93897 0.50228 0.0
C1066 C 0.51157 0.27411 0.70997 0.0
C1067 C 0.51984 0.29129 0.70465 0.0
C1068 C 0.49546 0.27236 0.71487 0.0
C1069 C 0.46652 0.29993 0.73404 0.0
H1070 H 0.43244 0.25513 0.71208 0.0
C1071 C 0.40529 0.27947 0.76564 0.0
C1072 C 0.39043 0.27498 0.75307 0.0
C1073 C 0.42068 0.28147 0.75883 0.0
C1074 C 0.4418 0.26776 0.71825 0.0
H1075 H 0.51769 0.3202 0.70055 0.0
H1076 H 0.48967 0.31735 0.70982 0.0
H1077 H 0.46017 0.2589 0.70194 0.0
H1078 H 0.38019 0.26866 0.72338 0.0
H1079 H 0.40723 0.27188 0.71142 0.0
H1080 H 0.44833 0.30858 0.75068 0.0
C1081 C 0.49566 0.30518 0.70995 0.0
C1082 C 0.45769 0.26986 0.71255 0.0
C1083 C 0.51169 0.30681 0.70465 0.0
C1084 C 0.39139 0.27222 0.73344 0.0
C1085 C 0.40685 0.27395 0.7266 0.0
C1086 C 0.45074 0.29766 0.73998 0.0
C1087 C 0.48731 0.28786 0.71493 0.0
C1088 C 0.47024 0.28594 0.72043 0.0
C1089 C 0.42168 0.27885 0.73925 0.0
C1090 C 0.43821 0.28151 0.73224 0.0
H1091 H 0.51742 0.26181 0.70998 0.0
H1092 H 0.48942 0.2589 0.71881 0.0
H1093 H 0.47594 0.31241 0.74044 0.0
H1094 H 0.40505 0.28192 0.78084 0.0
H1095 H 0.43185 0.28505 0.76894 0.0
C1096 C 1.00316 0.80911 0.6028 0.0
C1097 C 1.00155 0.80714 0.62178 0.0
C1098 C 0.01405 0.82484 0.59851 0.0
C1099 C 0.03937 0.87265 0.61583 0.0
H1100 H 0.06748 0.8557 0.57964 0.0
C1101 C 0.07591 0.92838 0.582 0.0
C1102 C 0.06803 0.92474 0.56317 0.0
C1103 C 0.0759 0.91326 0.59245 0.0
C1104 C 0.05997 0.8606 0.59005 0.0
H1105 H 1.00818 0.82123 0.65097 0.0
H1106 H 0.02704 0.84902 0.64335 0.0
H1107 H 0.04728 0.83196 0.59133 0.0
H1108 H 0.0576 0.90225 0.53934 0.0
H1109 H 0.05804 0.87612 0.55724 0.0
H1110 H 0.05128 0.90132 0.6137 0.0
C1111 C 0.02014 0.8382 0.63188 0.0
C1112 C 0.04827 0.84709 0.59653 0.0
C1113 C 1.0092 0.82241 0.6362 0.0
C1114 C 0.0635 0.90564 0.5539 0.0
C1115 C 0.06374 0.89054 0.56425 0.0
C1116 C 0.05105 0.8862 0.60931 0.0
C1117 C 0.02341 0.83885 0.61312 0.0
C1118 C 0.03734 0.85307 0.60872 0.0
C1119 C 0.06838 0.89441 0.58399 0.0
C1120 C 0.06087 0.88032 0.59561 0.0
H1121 H 0.99725 0.79763 0.59141 0.0
H1122 H 0.01593 0.82543 0.58383 0.0
H1123 H 0.03118 0.87758 0.62537 0.0
H1124 H 0.08016 0.943 0.5893 0.0
H1125 H 0.07999 0.91654 0.60757 0.0
C1126 C 0.4982 0.79074 0.9057 0.0
C1127 C 0.5103 0.78696 0.89412 0.0
C1128 C 0.48171 0.78845 0.89786 0.0
C1129 C 0.44629 0.77932 0.87807 0.0
H1130 H 0.44436 0.80341 0.83266 0.0
C1131 C 0.38501 0.78926 0.83859 0.0
C1132 C 0.38509 0.8076 0.83355 0.0
C1133 C 0.39975 0.78429 0.8453 0.0
C1134 C 0.44472 0.79666 0.84533 0.0
H1135 H 0.51434 0.77563 0.86581 0.0
H1136 H 0.48541 0.77129 0.85216 0.0
H1137 H 0.47055 0.79678 0.84587 0.0
H1138 H 0.40068 0.83507 0.83148 0.0
H1139 H 0.42653 0.82629 0.84308 0.0
H1140 H 0.42051 0.77992 0.87785 0.0
C1141 C 0.4888 0.77657 0.86717 0.0
C1142 C 0.45964 0.79259 0.85274 0.0
C1143 C 0.50532 0.77895 0.875 0.0
C1144 C 0.40025 0.82078 0.8351 0.0
C1145 C 0.41503 0.81576 0.84173 0.0
C1146 C 0.43131 0.78332 0.87059 0.0
C1147 C 0.47702 0.7822 0.87833 0.0
C1148 C 0.46065 0.78411 0.86933 0.0
C1149 C 0.41488 0.7975 0.84697 0.0
C1150 C 0.43048 0.7923 0.85432 0.0
H1151 H 0.50162 0.79677 0.92055 0.0
H1152 H 0.47294 0.79294 0.90683 0.0
H1153 H 0.44669 0.77277 0.89086 0.0
H1154 H 0.37356 0.77862 0.83713 0.0
H1155 H 0.39934 0.77002 0.84897 0.0
C1156 C 0.50172 0.18391 0.14023 0.0
C1157 C 0.4967 0.19839 0.13109 0.0
C1158 C 0.50971 0.17088 0.13072 0.0
C1159 C 0.53761 0.15688 0.114 0.0
H1160 H 0.52537 0.13303 0.06154 0.0
C1161 C 0.54469 0.09112 0.05484 0.0
C1162 C 0.53567 0.07732 0.06407 0.0
C1163 C 0.54916 0.11024 0.06367 0.0
C1164 C 0.52939 0.14019 0.07599 0.0
H1165 H 0.4941 0.20917 0.10425 0.0
H1166 H 0.50829 0.18676 0.0878 0.0
H1167 H 0.50998 0.15584 0.07495 0.0
H1168 H 0.52638 0.07132 0.09027 0.0
H1169 H 0.53464 0.10442 0.10597 0.0
H1170 H 0.55576 0.13926 0.11542 0.0
C1171 C 0.50617 0.18539 0.10226 0.0
C1172 C 0.52042 0.1531 0.08376 0.0
C1173 C 0.4979 0.19817 0.11167 0.0
C1174 C 0.53316 0.08197 0.08294 0.0
C1175 C 0.53815 0.10083 0.09199 0.0
C1176 C 0.54637 0.14362 0.1063 0.0
C1177 C 0.51296 0.17235 0.11203 0.0
C1178 C 0.52391 0.16083 0.10308 0.0
C1179 C 0.54492 0.1153 0.08186 0.0
C1180 C 0.5417 0.13447 0.08752 0.0
H1181 H 0.50072 0.18366 0.15516 0.0
H1182 H 0.5141 0.16034 0.13833 0.0
H1183 H 0.54102 0.16324 0.12877 0.0
H1184 H 0.54684 0.0875 0.04027 0.0
H1185 H 0.55427 0.12126 0.05564 0.0
C1186 C 0.08936 0.33259 0.3761 0.0
C1187 C 0.09102 0.32772 0.39439 0.0
C1188 C 0.1023 0.3324 0.36508 0.0
C1189 C 0.14568 0.32373 0.36638 0.0
H1190 H 0.12911 0.29712 0.31539 0.0
C1191 C 0.17345 0.26539 0.32767 0.0
C1192 C 0.17884 0.26873 0.31023 0.0
C1193 C 0.16404 0.27721 0.3365 0.0
C1194 C 0.13392 0.30485 0.32948 0.0
H1195 H 0.10736 0.31954 0.41596 0.0
H1196 H 0.12939 0.31781 0.39649 0.0
H1197 H 0.1106 0.31162 0.33421 0.0
H1198 H 0.17833 0.28676 0.28811 0.0
H1199 H 0.16114 0.30693 0.30334 0.0
H1200 H 0.16856 0.31507 0.36203 0.0
C1201 C 0.11863 0.32272 0.39073 0.0
C1202 C 0.1234 0.31332 0.34027 0.0
C1203 C 0.10593 0.32349 0.40189 0.0
C1204 C 0.17409 0.28363 0.3014 0.0
C1205 C 0.16447 0.2953 0.31014 0.0
C1206 C 0.15605 0.31482 0.35575 0.0
C1207 C 0.11682 0.32668 0.37199 0.0
C1208 C 0.12896 0.32213 0.35915 0.0
C1209 C 0.15973 0.29237 0.3279 0.0
C1210 C 0.15 0.30477 0.33753 0.0
H1211 H 0.07796 0.33615 0.37023 0.0
H1212 H 0.10065 0.33598 0.3509 0.0
H1213 H 0.15054 0.33091 0.38063 0.0
H1214 H 0.17677 0.25387 0.33465 0.0
H1215 H 0.16015 0.27457 0.35007 0.0
C1216 C 0.95227 0.04811 0.22895 0.0
C1217 C 0.93477 0.04509 0.22708 0.0
C1218 C 0.96102 0.04871 0.21292 0.0
C1219 C 0.95732 0.03281 0.16024 0.0
H1220 H 0.99566 0.07373 0.1622 0.0
C1221 C 0.99536 0.03993 0.09396 0.0
C1222 C 0.01199 0.05019 0.09717 0.0
C1223 C 0.98522 0.03915 0.10898 0.0
C1224 C 0.98528 0.06178 0.1612 0.0
H1225 H 0.91302 0.03985 0.20613 0.0
H1226 H 0.92815 0.04019 0.17837 0.0
H1227 H 0.98045 0.072 0.18929 0.0
H1228 H 0.03074 0.06705 0.11943 0.0
H1229 H 0.01406 0.06495 0.14483 0.0
H1230 H 0.96242 0.02212 0.13241 0.0
C1231 C 0.93517 0.04242 0.19234 0.0
C1232 C 0.97635 0.06094 0.17702 0.0
C1233 C 0.92644 0.04235 0.20841 0.0
C1234 C 0.01802 0.0592 0.11596 0.0
C1235 C 1.00814 0.05816 0.13083 0.0
C1236 C 0.96651 0.03336 0.14449 0.0
C1237 C 0.95267 0.04575 0.19422 0.0
C1238 C 0.96218 0.04645 0.17696 0.0
C1239 C 0.99137 0.04835 0.12789 0.0
C1240 C 0.98086 0.04782 0.14456 0.0
H1241 H 0.95929 0.05027 0.24291 0.0
H1242 H 0.97443 0.05122 0.21518 0.0
H1243 H 0.94655 0.02132 0.15945 0.0
H1244 H 0.99017 0.03247 0.07992 0.0
H1245 H 0.97249 0.0314 0.10559 0.0
C1246 C 0.29349 0.69032 0.485 0.0
C1247 C 0.3063 0.70569 0.49371 0.0
C1248 C 0.28171 0.69326 0.47098 0.0
C1249 C 0.26562 0.73553 0.45976 0.0
H1250 H 0.23432 0.69834 0.42289 0.0
C1251 C 0.23056 0.76714 0.41139 0.0
C1252 C 0.2332 0.75924 0.3933 0.0
C1253 C 0.22885 0.75541 0.42548 0.0
C1254 C 0.24294 0.70905 0.43304 0.0
H1255 H 0.31901 0.73468 0.49234 0.0
H1256 H 0.29957 0.73919 0.46633 0.0
H1257 H 0.25791 0.68869 0.43877 0.0
H1258 H 0.23074 0.73269 0.37406 0.0
H1259 H 0.22913 0.71267 0.39841 0.0
H1260 H 0.25198 0.75635 0.45328 0.0
C1261 C 0.29769 0.72541 0.47133 0.0
C1262 C 0.25649 0.7034 0.44229 0.0
C1263 C 0.30908 0.72273 0.48588 0.0
C1264 C 0.22966 0.73916 0.38829 0.0
C1265 C 0.22875 0.72762 0.4025 0.0
C1266 C 0.25246 0.7413 0.45019 0.0
C1267 C 0.28302 0.71141 0.46513 0.0
C1268 C 0.26835 0.71681 0.45526 0.0
C1269 C 0.23102 0.73626 0.42166 0.0
C1270 C 0.24127 0.72842 0.43596 0.0
H1271 H 0.29112 0.67702 0.49091 0.0
H1272 H 0.27077 0.682 0.46639 0.0
H1273 H 0.27389 0.74605 0.47047 0.0
H1274 H 0.23239 0.78258 0.41542 0.0
H1275 H 0.22868 0.76219 0.43985 0.0
C1276 C 0.62926 0.01848 0.73599 0.0
C1277 C 0.62113 0.01715 0.75233 0.0
C1278 C 0.62058 0.01939 0.71825 0.0
C1279 C 0.57918 1.00633 0.68949 0.0
H1280 H 0.59636 0.04584 0.66035 0.0
C1281 C 0.54081 0.01437 0.61893 0.0
C1282 C 0.54835 0.0239 0.60505 0.0
C1283 C 0.54972 0.01372 0.63657 0.0
C1284 C 0.59135 0.03438 0.66789 0.0
H1285 H 0.59711 0.01547 0.76224 0.0
H1286 H 0.58187 0.01617 0.73116 0.0
H1287 H 0.61141 0.04392 0.69078 0.0
H1288 H 0.57161 0.04026 0.59928 0.0
H1289 H 0.58746 0.03814 0.62927 0.0
H1290 H 0.55966 0.99598 0.66655 0.0
C1291 C 0.59511 0.0168 0.73221 0.0
C1292 C 0.60007 0.03341 0.68564 0.0
C1293 C 0.60388 0.0164 0.75012 0.0
C1294 C 0.5653 0.03265 0.60945 0.0
C1295 C 0.57439 0.0316 0.62699 0.0
C1296 C 0.57068 1.00697 0.67156 0.0
C1297 C 0.60334 0.01853 0.71599 0.0
C1298 C 0.59407 0.01947 0.69686 0.0
C1299 C 0.56681 0.02216 0.6411 0.0
C1300 C 0.5764 0.02115 0.66031 0.0
H1301 H 0.64252 0.01929 0.73697 0.0
H1302 H 0.62741 0.0206 0.70619 0.0
H1303 H 0.57423 0.99518 0.69747 0.0
H1304 H 0.52776 1.0076 0.61632 0.0
H1305 H 0.54289 1.00676 0.64672 0.0
C1306 C 0.28866 0.37292 0.99329 0.0
C1307 C 0.29772 0.36547 1.00714 0.0
C1308 C 0.28663 0.36457 0.97419 0.0
C1309 C 0.27803 0.3389 0.93561 0.0
H1310 H 0.31619 0.3222 0.91707 0.0
C1311 C 0.27435 0.29791 0.86004 0.0
C1312 C 0.28803 0.30232 0.85008 0.0
C1313 C 0.27537 0.30517 0.87926 0.0
C1314 C 0.30546 0.32694 0.92194 0.0
H1315 H 0.31101 0.34285 0.01195 0.0
H1316 H 0.30715 0.32809 0.97886 0.0
H1317 H 0.31777 0.33579 0.95027 0.0
H1318 H 0.31353 0.31779 0.85252 0.0
H1319 H 0.31521 0.33085 0.88599 0.0
H1320 H 0.26591 0.3306 0.90713 0.0
C1321 C 0.30199 0.34067 0.9826 0.0
C1322 C 0.30628 0.33449 0.94107 0.0
C1323 C 0.30409 0.34905 1.00161 0.0
C1324 C 0.30281 0.31402 0.85982 0.0
C1325 C 0.30378 0.32145 0.87904 0.0
C1326 C 0.27723 0.3314 0.91644 0.0
C1327 C 0.29356 0.34857 0.96858 0.0
C1328 C 0.29256 0.3405 0.94818 0.0
C1329 C 0.29004 0.31719 0.88898 0.0
C1330 C 0.29093 0.32528 0.90937 0.0
H1331 H 0.28366 0.3856 0.99709 0.0
H1332 H 0.28015 0.3711 0.96376 0.0
H1333 H 0.2672 0.34326 0.94061 0.0
H1334 H 0.26282 0.28876 0.853 0.0
H1335 H 0.26465 0.30124 0.88653 0.0
C1336 C 0.94931 0.05567 0.34992 0.0
C1337 C 0.94855 0.03992 0.33559 0.0
C1338 C 0.95757 0.05648 0.36836 0.0
C1339 C 0.98734 0.03265 0.39639 0.0
H1340 H 0.97218 0.05886 0.43995 0.0
C1341 C 1.00978 0.02303 0.47382 0.0
C1342 C 0.01306 0.03906 0.48838 0.0
C1343 C 1.00241 0.02403 0.45547 0.0
C1344 C 0.97674 0.0516 0.42798 0.0
H1345 H 0.95601 0.01257 0.32994 0.0
H1346 H 0.96984 0.01364 0.36173 0.0
H1347 H 0.95862 0.05883 0.4081 0.0
H1348 H 1.0108 0.06883 0.49453 0.0
H1349 H 0.9978 0.07049 0.46265 0.0
H1350 H 1.00521 0.02509 0.41635 0.0
C1351 C 0.9645 0.02577 0.35881 0.0
C1352 C 0.96893 0.05161 0.4095 0.0
C1353 C 0.95638 0.02506 0.34039 0.0
C1354 C 1.00856 0.05614 0.48384 0.0
C1355 C 1.00098 0.05706 0.46548 0.0
C1356 C 0.99501 0.03247 0.41483 0.0
C1357 C 0.9653 0.04149 0.37328 0.0
C1358 C 0.97398 0.04202 0.39325 0.0
C1359 C 0.99782 0.04103 0.45089 0.0
C1360 C 0.98982 0.04184 0.43104 0.0
H1361 H 0.94348 0.06745 0.34691 0.0
H1362 H 0.95798 0.06905 0.3787 0.0
H1363 H 0.99212 0.02549 0.38455 0.0
H1364 H 0.01296 1.00958 0.47654 0.0
H1365 H 1.00007 0.01124 0.4449 0.0
C1366 C 0.31931 0.71516 0.61728 0.0
C1367 C 0.32012 0.72266 0.60022 0.0
C1368 C 0.30977 0.72192 0.6305 0.0
C1369 C 0.28794 0.76024 0.64506 0.0
H1370 H 0.26501 0.71979 0.66981 0.0
C1371 C 0.26969 0.77966 0.71654 0.0
C1372 C 0.28232 0.77422 0.7278 0.0
C1373 C 0.2649 0.7706 0.69782 0.0
C1374 C 0.27075 0.73114 0.66249 0.0
H1375 H 0.31366 0.74487 0.58472 0.0
H1376 H 0.29703 0.75666 0.60785 0.0
H1377 H 0.27869 0.71134 0.64227 0.0
H1378 H 0.29838 0.75382 0.7298 0.0
H1379 H 0.28995 0.73779 0.69728 0.0
H1380 H 0.28089 0.78003 0.66603 0.0
C1381 C 0.30349 0.74538 0.6109 0.0
C1382 C 0.27891 0.72638 0.64707 0.0
C1383 C 0.31324 0.7388 0.59779 0.0
C1384 C 0.28894 0.7585 0.72103 0.0
C1385 C 0.28382 0.74909 0.70262 0.0
C1386 C 0.27958 0.76497 0.66033 0.0
C1387 C 0.30086 0.73617 0.62677 0.0
C1388 C 0.2887 0.74098 0.6393 0.0
C1389 C 0.27238 0.75568 0.69061 0.0
C1390 C 0.27227 0.75051 0.67014 0.0
H1391 H 0.32464 0.70282 0.61953 0.0
H1392 H 0.30862 0.71522 0.64315 0.0
H1393 H 0.29513 0.77177 0.63911 0.0
H1394 H 0.26424 0.79158 0.72185 0.0
H1395 H 0.2562 0.77597 0.68868 0.0
C1396 C 0.6061 0.04164 0.86758 0.0
C1397 C 0.61651 0.02903 0.86197 0.0
C1398 C 0.59894 0.04104 0.88466 0.0
C1399 C 0.60237 0.02243 0.93188 0.0
H1400 H 0.55903 0.03476 0.93446 0.0
C1401 C 0.57364 0.03107 1.004 0.0
C1402 C 0.5563 0.02534 1.00367 0.0
C1403 C 0.58107 0.03125 0.98702 0.0
C1404 C 0.5711 0.03111 0.93413 0.0
H1405 H 0.62735 1.00577 0.87055 0.0
H1406 H 0.61486 1.00455 0.90003 0.0
H1407 H 0.57126 0.03514 0.90497 0.0
H1408 H 0.53341 0.0151 0.98452 0.0
H1409 H 0.54617 0.01537 0.95534 0.0
H1410 H 0.60207 0.01813 0.96102 0.0
C1411 C 0.61232 0.01518 0.89133 0.0
C1412 C 0.5783 0.03157 0.91706 0.0
C1413 C 0.61946 0.01577 0.8742 0.0
C1414 C 0.54675 0.0197 0.98564 0.0
C1415 C 0.55415 0.02 0.9687 0.0
C1416 C 0.5952 0.02206 0.949 0.0
C1417 C 0.60187 0.02781 0.89699 0.0
C1418 C 0.59411 0.02723 0.91549 0.0
C1419 C 0.57148 0.02583 0.96894 0.0
C1420 C 0.57937 0.02635 0.95054 0.0
H1421 H 0.60351 0.05218 0.85878 0.0
H1422 H 0.59128 0.05129 0.88833 0.0
H1423 H 0.61459 0.01916 0.93164 0.0
H1424 H 0.58154 0.03554 0.01743 0.0
H1425 H 0.59439 0.03604 0.98812 0.0
C1426 C 0.30169 0.38851 0.13167 0.0
C1427 C 0.30023 0.37872 0.11304 0.0
C1428 C 0.3 0.37831 0.147 0.0
C1429 C 0.28201 0.33095 0.15917 0.0
H1430 H 0.31352 0.34696 0.20493 0.0
C1431 C 0.28109 0.28439 0.21866 0.0
C1432 C 0.28329 0.29379 0.23745 0.0
C1433 C 0.28444 0.29476 0.20379 0.0
C1434 C 0.3045 0.3424 0.19236 0.0
H1435 H 0.29559 0.35046 0.09597 0.0
H1436 H 0.29246 0.3327 0.12268 0.0
H1437 H 0.31619 0.36516 0.17845 0.0
H1438 H 0.29061 0.32142 0.25545 0.0
H1439 H 0.29662 0.33972 0.22953 0.0
H1440 H 0.27011 0.30844 0.17304 0.0
C1441 C 0.29494 0.34828 0.12542 0.0
C1442 C 0.30605 0.35284 0.17717 0.0
C1443 C 0.29682 0.35847 0.11011 0.0
C1444 C 0.28937 0.31375 0.24119 0.0
C1445 C 0.29266 0.32422 0.22626 0.0
C1446 C 0.2804 0.32061 0.17438 0.0
C1447 C 0.29662 0.35807 0.14406 0.0
C1448 C 0.29486 0.34718 0.16036 0.0
C1449 C 0.28984 0.3149 0.2073 0.0
C1450 C 0.29168 0.32609 0.19115 0.0
H1451 H 0.30433 0.40409 0.13446 0.0
H1452 H 0.30119 0.38628 0.16116 0.0
H1453 H 0.27303 0.3264 0.14656 0.0
H1454 H 0.27628 0.269 0.21538 0.0
H1455 H 0.28246 0.28699 0.18947 0.0
C1456 C 0.20967 0.93541 0.03304 0.0
C1457 C 0.20572 0.91716 0.02186 0.0
C1458 C 0.19718 0.9449 0.03776 0.0
C1459 C 0.15523 0.94977 0.02514 0.0
H1460 H 0.15834 0.96872 0.07893 0.0
C1461 C 0.11282 0.99828 0.05253 0.0
C1462 C 0.12161 0.01539 0.06386 0.0
C1463 C 0.12034 0.98259 0.04917 0.0
C1464 C 0.15728 0.96345 0.0639 0.0
H1465 H 0.1858 0.89517 1.00553 0.0
H1466 H 0.1638 0.91213 0.01366 0.0
H1467 H 0.17727 0.94878 0.06772 0.0
H1468 H 0.14455 0.02929 0.08161 0.0
H1469 H 0.15797 1.00201 0.0754 0.0
H1470 H 0.13586 0.96526 0.02114 0.0
C1471 C 0.17659 0.9188 0.01895 0.0
C1472 C 0.16807 0.95209 0.05751 0.0
C1473 C 0.18915 0.90918 0.01429 0.0
C1474 C 0.13763 0.01624 0.07274 0.0
C1475 C 0.14521 1.00058 0.06928 0.0
C1476 C 0.14449 0.96126 0.03152 0.0
C1477 C 0.18054 0.93637 0.03127 0.0
C1478 C 0.16748 0.94576 0.03804 0.0
C1479 C 0.13678 0.98383 0.05704 0.0
C1480 C 0.14582 0.96874 0.05089 0.0
H1481 H 0.22236 0.94206 0.03885 0.0
H1482 H 0.20048 0.95872 0.04688 0.0
H1483 H 0.15462 0.94499 0.01006 0.0
H1484 H 0.10023 0.9972 0.04597 0.0
H1485 H 0.11348 0.96972 0.03998 0.0
C1486 C 0.7011 0.63506 0.01682 0.0
C1487 C 0.71481 0.6287 0.02511 0.0
C1488 C 0.68487 0.62555 0.01784 0.0
C1489 C 0.6602 0.59275 0.04547 0.0
H1490 H 0.62605 0.58744 1.00288 0.0
C1491 C 0.59035 0.56383 0.05053 0.0
C1492 C 0.58121 0.55121 0.03472 0.0
C1493 C 0.60651 0.57383 0.04955 0.0
C1494 C 0.63542 0.58866 0.01489 0.0
H1495 H 0.722 0.60697 0.04072 0.0
H1496 H 0.69365 0.59017 0.04221 0.0
H1497 H 0.65449 0.60249 1.00027 0.0
H1498 H 0.58173 0.53938 1.00543 0.0
H1499 H 0.60976 0.55649 1.00376 0.0
H1500 H 0.64113 0.57845 0.0599 0.0
C1501 C 0.6955 0.60274 0.03514 0.0
C1502 C 0.65175 0.59752 0.01347 0.0
C1503 C 0.71179 0.61226 0.0341 0.0
C1504 C 0.58842 0.54905 0.01786 0.0
C1505 C 0.60451 0.55897 0.01687 0.0
C1506 C 0.64382 0.58385 0.04689 0.0
C1507 C 0.68181 0.60937 0.02717 0.0
C1508 C 0.6644 0.59967 0.02871 0.0
C1509 C 0.61385 0.57144 0.03271 0.0
C1510 C 0.63121 0.5816 0.03158 0.0
H1511 H 0.70287 0.64771 0.00985 0.0
H1512 H 0.6747 0.63126 0.01173 0.0
H1513 H 0.66953 0.59436 0.0576 0.0
H1514 H 0.5851 0.56581 0.06372 0.0
H1515 H 0.61321 0.58349 0.06196 0.0
C1516 C 0.69004 0.44948 0.30573 0.0
C1517 C 0.69377 0.46343 0.29369 0.0
C1518 C 0.69738 0.43306 0.30494 0.0
C1519 C 0.73352 0.41316 0.28747 0.0
H1520 H 0.70852 0.3642 0.29609 0.0
C1521 C 0.7651 0.34689 0.29553 0.0
C1522 C 0.75633 0.32815 0.2876 0.0
C1523 C 0.75745 0.36302 0.2961 0.0
C1524 C 0.71577 0.37768 0.29353 0.0
H1525 H 0.70851 0.4704 0.27128 0.0
H1526 H 0.72124 0.4422 0.26997 0.0
H1527 H 0.69558 0.39227 0.29734 0.0
H1528 H 0.73212 0.31221 0.27433 0.0
H1529 H 0.71876 0.34006 0.27562 0.0
H1530 H 0.75371 0.3986 0.28368 0.0
C1531 C 0.71268 0.44392 0.28022 0.0
C1532 C 0.70832 0.39402 0.29445 0.0
C1533 C 0.70523 0.46023 0.2809 0.0
C1534 C 0.73946 0.32625 0.28049 0.0
C1535 C 0.73171 0.34236 0.28135 0.0
C1536 C 0.74103 0.39691 0.2868 0.0
C1537 C 0.70893 0.42987 0.29219 0.0
C1538 C 0.71699 0.41218 0.29138 0.0
C1539 C 0.74055 0.36119 0.28907 0.0
C1540 C 0.73235 0.37873 0.28977 0.0
H1541 H 0.68133 0.4512 0.31582 0.0
H1542 H 0.69412 0.42297 0.31463 0.0
H1543 H 0.74089 0.42667 0.28516 0.0
H1544 H 0.77806 0.34922 0.30123 0.0
H1545 H 0.76483 0.377 0.30239 0.0
C1546 C 0.79413 0.41476 0.52094 0.0
C1547 C 0.79135 0.39864 0.53028 0.0
C1548 C 0.81012 0.42574 0.52191 0.0
C1549 C 0.85459 0.42504 0.53457 0.0
H1550 H 0.85952 0.48034 0.53738 0.0
C1551 C 0.91825 0.47789 0.54778 0.0
C1552 C 0.9206 0.49035 0.53419 0.0
C1553 C 0.90252 0.46705 0.54874 0.0
C1554 C 0.85829 0.46491 0.5366 0.0
H1555 H 0.803 0.38118 0.54782 0.0
H1556 H 0.83081 0.40075 0.55015 0.0
H1557 H 0.83199 0.46027 0.53592 0.0
H1558 H 0.90816 0.50133 0.51115 0.0
H1559 H 0.88068 0.48283 0.51325 0.0
H1560 H 0.88104 0.4299 0.53559 0.0
C1561 C 0.82078 0.40469 0.54166 0.0
C1562 C 0.84253 0.45338 0.53561 0.0
C1563 C 0.80483 0.39352 0.54041 0.0
C1564 C 0.90678 0.49214 0.52199 0.0
C1565 C 0.89105 0.4815 0.52312 0.0
C1566 C 0.87038 0.43663 0.53582 0.0
C1567 C 0.8236 0.42102 0.53253 0.0
C1568 C 0.84046 0.43328 0.53429 0.0
C1569 C 0.88883 0.46869 0.53632 0.0
C1570 C 0.87231 0.45662 0.53657 0.0
H1571 H 0.78397 0.41884 0.51281 0.0
H1572 H 0.8119 0.43792 0.51428 0.0
H1573 H 0.85346 0.4096 0.53335 0.0
H1574 H 0.92856 0.47644 0.55765 0.0
H1575 H 0.90104 0.45739 0.55917 0.0
C1576 C 0.36303 0.11013 0.26319 0.0
C1577 C 0.37439 0.10824 0.27855 0.0
C1578 C 0.3551 0.12603 0.26361 0.0
C1579 C 0.35667 0.17635 0.29041 0.0
H1580 H 0.31296 0.16961 0.26247 0.0
C1581 C 0.323 0.24197 0.28567 0.0
C1582 C 0.30549 0.23853 0.28414 0.0
C1583 C 0.33166 0.2266 0.28466 0.0
C1584 C 0.3251 0.17195 0.27059 0.0
H1585 H 0.38603 0.12228 0.30656 0.0
H1586 H 0.37216 0.14957 0.30749 0.0
H1587 H 0.32682 0.14261 0.26193 0.0
H1588 H 0.28369 0.21548 0.28039 0.0
H1589 H 0.29847 0.18925 0.27901 0.0
H1590 H 0.35471 0.20561 0.29945 0.0
C1591 C 0.3695 0.13892 0.29481 0.0
C1592 C 0.33329 0.15627 0.27003 0.0
C1593 C 0.37747 0.12302 0.29436 0.0
C1594 C 0.2971 0.21906 0.28154 0.0
C1595 C 0.30571 0.20376 0.2806 0.0
C1596 C 0.34846 0.19206 0.29097 0.0
C1597 C 0.35807 0.14086 0.27945 0.0
C1598 C 0.34929 0.15799 0.27997 0.0
C1599 C 0.32322 0.20706 0.28212 0.0
C1600 C 0.3324 0.19026 0.28115 0.0
H1601 H 0.36027 0.09928 0.25066 0.0
H1602 H 0.34675 0.12674 0.25124 0.0
H1603 H 0.36899 0.17877 0.29812 0.0
H1604 H 0.33009 0.2566 0.28759 0.0
H1605 H 0.34506 0.23014 0.28565 0.0
C1606 C 0.31977 0.1321 0.5216 0.0
C1607 C 0.3069 0.12487 0.5318 0.0
C1608 C 0.33509 0.12638 0.52375 0.0
C1609 C 0.35491 0.08795 0.54035 0.0
H1610 H 0.39597 0.12557 0.54388 0.0
C1611 C 0.41812 0.06933 0.56291 0.0
C1612 C 0.43161 0.07597 0.55332 0.0
C1613 C 0.40331 0.07593 0.56032 0.0
C1614 C 0.38463 0.11481 0.54272 0.0
H1615 H 0.30013 0.10577 0.55214 0.0
H1616 H 0.32662 0.0958 0.55579 0.0
H1617 H 0.36939 0.13546 0.53876 0.0
H1618 H 0.44006 0.09535 0.53382 0.0
H1619 H 0.41412 0.1067 0.5291 0.0
H1620 H 0.37002 0.0673 0.54427 0.0
C1621 C 0.32491 0.10578 0.546 0.0
C1622 C 0.36936 0.12049 0.53975 0.0
C1623 C 0.30968 0.11156 0.54395 0.0
C1624 C 0.42991 0.08973 0.54129 0.0
C1625 C 0.41506 0.0964 0.53874 0.0
C1626 C 0.37013 0.08228 0.54329 0.0
C1627 C 0.3379 0.11318 0.53604 0.0
C1628 C 0.35426 0.10715 0.53863 0.0
C1629 C 0.40145 0.0894 0.54803 0.0
C1630 C 0.38524 0.09562 0.54463 0.0
H1631 H 0.31812 0.14246 0.51221 0.0
H1632 H 0.34471 0.13225 0.51569 0.0
H1633 H 0.3436 0.07716 0.53922 0.0
H1634 H 0.41881 0.05859 0.57213 0.0
H1635 H 0.39326 0.07041 0.56799 0.0
C1636 C 0.68259 0.58957 0.31188 0.0
C1637 C 0.69004 0.57333 0.31052 0.0
C1638 C 0.69163 0.60814 0.31066 0.0
C1639 C 0.73456 0.63835 0.31642 0.0
H1640 H 0.71476 0.67125 0.28627 0.0
C1641 C 0.77421 0.71105 0.30325 0.0
C1642 C 0.76691 0.72663 0.29939 0.0
C1643 C 0.76461 0.69292 0.30471 0.0
C1644 C 0.72055 0.66256 0.29506 0.0
H1645 H 0.71332 0.56458 0.30697 0.0
H1646 H 0.72917 0.59694 0.30551 0.0
H1647 H 0.69903 0.63938 0.28886 0.0
H1648 H 0.7432 0.73442 0.29339 0.0
H1649 H 0.72636 0.70328 0.2968 0.0
H1650 H 0.7558 0.66148 0.32328 0.0
C1651 C 0.71618 0.59523 0.30738 0.0
C1652 C 0.71143 0.64403 0.29647 0.0
C1653 C 0.70704 0.57655 0.3082 0.0
C1654 C 0.74943 0.72319 0.29686 0.0
C1655 C 0.73971 0.70497 0.29853 0.0
C1656 C 0.74357 0.65695 0.31529 0.0
C1657 C 0.70862 0.6114 0.30838 0.0
C1658 C 0.7183 0.63145 0.30704 0.0
C1659 C 0.7471 0.68935 0.30257 0.0
C1660 C 0.73691 0.66951 0.30438 0.0
H1661 H 0.66956 0.58791 0.31349 0.0
H1662 H 0.68526 0.62004 0.31168 0.0
H1663 H 0.7403 0.62944 0.32501 0.0
H1664 H 0.78758 0.71279 0.30509 0.0
H1665 H 0.77114 0.6816 0.30722 0.0
C1666 C 0.88701 0.49022 0.79577 0.0
C1667 C 0.8793 0.50571 0.79268 0.0
C1668 C 0.87775 0.47141 0.79471 0.0
C1669 C 0.83578 0.44311 0.79813 0.0
H1670 H 0.8531 0.40015 0.77532 0.0
C1671 C 0.81049 0.36398 0.80937 0.0
C1672 C 0.80914 0.34882 0.79424 0.0
C1673 C 0.81809 0.383 0.80797 0.0
C1674 C 0.84795 0.41191 0.78164 0.0
H1675 H 0.8554 0.51303 0.78609 0.0
H1676 H 0.83914 0.48018 0.7846 0.0
H1677 H 0.86768 0.4331 0.77486 0.0
H1678 H 0.81491 0.34229 0.76558 0.0
H1679 H 0.82826 0.37537 0.76319 0.0
H1680 H 0.81611 0.4219 0.80506 0.0
C1681 C 0.85251 0.48272 0.7878 0.0
C1682 C 0.85644 0.43092 0.78153 0.0
C1683 C 0.86186 0.50162 0.78858 0.0
C1684 C 0.81568 0.35343 0.77759 0.0
C1685 C 0.82344 0.37249 0.77625 0.0
C1686 C 0.82737 0.42408 0.79843 0.0
C1687 C 0.86033 0.46725 0.79073 0.0
C1688 C 0.85061 0.4469 0.78992 0.0
C1689 C 0.82479 0.38765 0.79144 0.0
C1690 C 0.83337 0.40809 0.79032 0.0
H1691 H 0.90037 0.49254 0.7989 0.0
H1692 H 0.88432 0.46011 0.79733 0.0
H1693 H 0.83086 0.45489 0.80482 0.0
H1694 H 0.80567 0.36118 0.82245 0.0
H1695 H 0.819 0.39404 0.8201 0.0
C1696 C 0.07731 0.86888 0.12601 0.0
C1697 C 0.06454 0.85842 0.13435 0.0
C1698 C 0.07494 0.88498 0.11782 0.0
C1699 C 0.04353 0.90574 0.09426 0.0
H1700 H 0.07481 0.95451 0.10865 0.0
C1701 C 0.03077 0.97466 0.06775 0.0
C1702 C 0.04413 0.98893 0.06493 0.0
C1703 C 0.03354 0.95866 0.07581 0.0
C1704 C 0.06611 0.94094 0.10415 0.0
H1705 H 0.03924 0.85653 0.14054 0.0
H1706 H 0.03494 0.88449 0.12566 0.0
H1707 H 0.07896 0.92689 0.12378 0.0
H1708 H 0.07093 0.99735 0.06794 0.0
H1709 H 0.07585 0.96893 0.08127 0.0
H1710 H 0.03098 0.91931 0.07414 0.0
C1711 C 0.04683 0.88027 0.12572 0.0
C1712 C 0.06843 0.92517 0.11298 0.0
C1713 C 0.04932 0.86437 0.13429 0.0
C1714 C 0.06038 0.98664 0.07001 0.0
C1715 C 0.06317 0.97039 0.07781 0.0
C1716 C 0.04137 0.92138 0.08517 0.0
C1717 C 0.05966 0.89074 0.11745 0.0
C1718 C 0.0571 0.90748 0.10821 0.0
C1719 C 0.04977 0.95625 0.081 0.0
C1720 C 0.05254 0.93929 0.09009 0.0
H1721 H 0.08919 0.86467 0.12587 0.0
H1722 H 0.08498 0.89273 0.11145 0.0
H1723 H 0.03476 0.89215 0.09014 0.0
H1724 H 0.01808 0.97607 0.06423 0.0
H1725 H 0.02287 0.94845 0.0784 0.0
C1726 C 0.94872 0.25454 0.87044 0.0
C1727 C 0.95597 0.26654 0.8875 0.0
C1728 C 0.93309 0.2559 0.86176 0.0
C1729 C 0.9038 0.28857 0.85845 0.0
H1730 H 0.87008 0.24185 0.84418 0.0
C1731 C 0.83555 0.29065 0.83149 0.0
C1732 C 0.82691 0.27566 0.81732 0.0
C1733 C 0.85114 0.28971 0.84066 0.0
C1734 C 0.87936 0.25507 0.84775 0.0
H1735 H 0.95268 0.28983 0.90843 0.0
H1736 H 0.92574 0.29245 0.89309 0.0
H1737 H 0.89785 0.24007 0.85758 0.0
H1738 H 0.82782 0.2479 0.80175 0.0
H1739 H 0.8549 0.24653 0.81705 0.0
H1740 H 0.88555 0.30359 0.8482 0.0
C1741 C 0.93202 0.28188 0.88651 0.0
C1742 C 0.89531 0.254 0.8555 0.0
C1743 C 0.94744 0.28028 0.89535 0.0
C1744 C 0.83408 0.25967 0.81269 0.0
C1745 C 0.84966 0.25882 0.82163 0.0
C1746 C 0.8879 0.28963 0.85041 0.0
C1747 C 0.92455 0.26957 0.86974 0.0
C1748 C 0.90773 0.27073 0.86096 0.0
C1749 C 0.85851 0.27382 0.83574 0.0
C1750 C 0.8754 0.27288 0.8449 0.0
H1751 H 0.95493 0.2438 0.86404 0.0
H1752 H 0.92769 0.24629 0.84877 0.0
H1753 H 0.91314 0.30172 0.86242 0.0
H1754 H 0.83032 0.30315 0.83539 0.0
H1755 H 0.85737 0.30144 0.85164 0.0
C1756 C 0.56635 0.24742 0.61666 0.0
C1757 C 0.55783 0.24946 0.63258 0.0
C1758 C 0.5646 0.2294 0.60556 0.0
C1759 C 0.53733 0.18189 0.59279 0.0
H1760 H 0.57736 0.16194 0.58806 0.0
C1761 C 0.53408 0.1013 0.57724 0.0
C1762 C 0.54519 0.09398 0.5662 0.0
C1763 C 0.536 0.121 0.58286 0.0
C1764 C 0.56607 0.16737 0.58886 0.0
H1765 H 0.54028 0.23441 0.64888 0.0
H1766 H 0.53698 0.2031 0.62928 0.0
H1767 H 0.57945 0.19558 0.60163 0.0
H1768 H 0.56716 0.10147 0.55249 0.0
H1769 H 0.57024 0.13635 0.56176 0.0
H1770 H 0.52387 0.15396 0.58002 0.0
C1771 C 0.54509 0.2154 0.62548 0.0
C1772 C 0.56729 0.18662 0.59668 0.0
C1773 C 0.54704 0.2333 0.63673 0.0
C1774 C 0.55844 0.1068 0.56101 0.0
C1775 C 0.5602 0.12672 0.56637 0.0
C1776 C 0.53612 0.1628 0.58471 0.0
C1777 C 0.55406 0.21322 0.61 0.0
C1778 C 0.5529 0.19384 0.59922 0.0
C1779 C 0.54888 0.13404 0.57726 0.0
C1780 C 0.55044 0.15508 0.58326 0.0
H1781 H 0.57479 0.2596 0.61313 0.0
H1782 H 0.57158 0.22805 0.59363 0.0
H1783 H 0.52607 0.18723 0.59435 0.0
H1784 H 0.52395 0.09172 0.58181 0.0
H1785 H 0.5274 0.12595 0.59181 0.0
C1786 C 0.54616 0.77338 0.37156 0.0
C1787 C 0.54562 0.77121 0.39073 0.0
C1788 C 0.56124 0.77536 0.36389 0.0
C1789 C 0.60666 0.78995 0.37766 0.0
H1790 H 0.60949 0.76024 0.32932 0.0
C1791 C 0.66613 0.79982 0.33977 0.0
C1792 C 0.67073 0.78278 0.33214 0.0
C1793 C 0.65085 0.79917 0.34681 0.0
C1794 C 0.60891 0.76862 0.34286 0.0
H1795 H 0.56069 0.76949 0.41682 0.0
H1796 H 0.58677 0.77303 0.40351 0.0
H1797 H 0.58278 0.75765 0.34159 0.0
H1798 H 0.66272 0.75173 0.32572 0.0
H1799 H 0.6362 0.75063 0.33797 0.0
H1800 H 0.63283 0.80077 0.37903 0.0
C1801 C 0.57558 0.77327 0.3944 0.0
C1802 C 0.59357 0.76727 0.34979 0.0
C1803 C 0.56054 0.77107 0.40198 0.0
C1804 C 0.65967 0.76512 0.33168 0.0
C1805 C 0.64437 0.7645 0.33851 0.0
C1806 C 0.62197 0.79146 0.37063 0.0
C1807 C 0.57615 0.77549 0.37529 0.0
C1808 C 0.59228 0.77775 0.36738 0.0
C1809 C 0.63973 0.7815 0.34612 0.0
C1810 C 0.62332 0.78065 0.35324 0.0
H1811 H 0.53494 0.7736 0.36249 0.0
H1812 H 0.56129 0.77713 0.34912 0.0
H1813 H 0.60606 0.79835 0.39119 0.0
H1814 H 0.67441 0.81364 0.34043 0.0
H1815 H 0.64762 0.81254 0.35252 0.0
C1816 C 0.04143 0.25261 0.43392 0.0
C1817 C 0.04893 0.2676 0.44874 0.0
C1818 C 0.03311 0.235 0.43798 0.0
C1819 C 1.01001 0.21587 0.47366 0.0
H1820 H 0.02582 0.16852 0.46303 0.0
C1821 C 0.01371 0.16429 0.5255 0.0
C1822 C 0.01313 0.1448 0.51925 0.0
C1823 C 0.01105 0.17651 0.51243 0.0
C1824 C 0.02079 0.18139 0.46559 0.0
H1825 H 0.05428 0.27559 0.47934 0.0
H1826 H 0.03968 0.24499 0.48631 0.0
H1827 H 0.0364 0.19592 0.44754 0.0
H1828 H 1.00808 0.12231 0.49478 0.0
H1829 H 1.00354 0.1438 0.47182 0.0
H1830 H 0.99517 0.20185 0.49257 0.0
C1831 C 0.04017 0.24695 0.47162 0.0
C1832 C 0.02694 0.19706 0.45679 0.0
C1833 C 0.0487 0.26434 0.46761 0.0
C1834 C 1.00851 0.13733 0.49992 0.0
C1835 C 1.00599 0.1496 0.4868 0.0
C1836 C 1.00377 0.20019 0.48233 0.0
C1837 C 0.03196 0.2324 0.45687 0.0
C1838 C 0.02227 0.21466 0.46165 0.0
C1839 C 1.00793 0.16943 0.49289 0.0
C1840 C 1.00988 0.18322 0.47925 0.0
H1841 H 0.04143 0.25475 0.41924 0.0
H1842 H 0.02701 0.22377 0.42645 0.0
H1843 H 1.00613 0.22935 0.47735 0.0
H1844 H 0.01718 0.17028 0.54036 0.0
H1845 H 0.01282 0.19176 0.51757 0.0
C1846 C 0.56173 0.27729 0.19022 0.0
C1847 C 0.55387 0.26759 0.17237 0.0
C1848 C 0.57816 0.27663 0.19604 0.0
C1849 C 0.60282 0.24186 0.19229 0.0
H1850 H 0.64083 0.2822 0.21376 0.0
C1851 C 0.66655 0.22602 0.21554 0.0
C1852 C 0.67651 0.23814 0.23111 0.0
C1853 C 0.65151 0.23004 0.2085 0.0
C1854 C 0.63022 0.27079 0.20809 0.0
H1855 H 0.55736 0.25112 0.14594 0.0
H1856 H 0.58594 0.24958 0.15643 0.0
H1857 H 0.61557 0.29073 0.1998 0.0
H1858 H 0.67816 0.26343 0.25212 0.0
H1859 H 0.65152 0.26979 0.24048 0.0
H1860 H 0.61695 0.2219 0.2012 0.0
C1861 C 0.57938 0.25772 0.16578 0.0
C1862 C 0.61591 0.2757 0.19995 0.0
C1863 C 0.56308 0.25865 0.15982 0.0
C1864 C 0.6707 0.25369 0.2402 0.0
C1865 C 0.65557 0.25756 0.23331 0.0
C1866 C 0.61697 0.23695 0.2007 0.0
C1867 C 0.58675 0.26606 0.18416 0.0
C1868 C 0.60221 0.26124 0.19192 0.0
C1869 C 0.64605 0.24611 0.21707 0.0
C1870 C 0.63085 0.25135 0.20863 0.0
H1871 H 0.55492 0.28444 0.20006 0.0
H1872 H 0.58371 0.28314 0.21031 0.0
H1873 H 0.59217 0.23053 0.18646 0.0
H1874 H 0.67062 0.21378 0.20843 0.0
H1875 H 0.6445 0.22097 0.1959 0.0
C1876 C 0.57326 0.87729 0.95571 0.0
C1877 C 0.56316 0.8685 0.9388 0.0
C1878 C 0.56898 0.89226 0.96701 0.0
C1879 C 0.53072 0.90761 0.97655 0.0
H1880 H 0.56097 0.94383 0.0155 0.0
C1881 C 0.5232 0.97335 0.02774 0.0
C1882 C 0.52954 0.9743 0.04674 0.0
C1883 C 0.52257 0.95703 0.01472 0.0
C1884 C 0.55246 0.93347 1.00485 0.0
H1885 H 0.54238 0.87026 0.91869 0.0
H1886 H 0.53541 0.89768 0.93805 0.0
H1887 H 0.57191 0.92776 0.98911 0.0
H1888 H 0.54005 0.95895 0.06735 0.0
H1889 H 0.54008 0.93059 0.04413 0.0
H1890 H 0.5112 0.91463 0.99199 0.0
C1891 C 0.54612 0.89221 0.94302 0.0
C1892 C 0.55866 0.92443 0.98966 0.0
C1893 C 0.55026 0.87682 0.93179 0.0
C1894 C 0.53457 0.95824 0.05283 0.0
C1895 C 0.53452 0.94207 0.03965 0.0
C1896 C 0.52447 0.91713 0.99155 0.0
C1897 C 0.55478 0.89913 0.9613 0.0
C1898 C 0.54791 0.91112 0.97552 0.0
C1899 C 0.52925 0.94188 0.0204 0.0
C1900 C 0.53538 0.92979 1.00592 0.0
H1901 H 0.58339 0.87115 0.9613 0.0
H1902 H 0.57592 0.89704 0.98099 0.0
H1903 H 0.52212 0.89717 0.96608 0.0
H1904 H 0.52087 0.98594 0.02228 0.0
H1905 H 0.51908 0.95742 0.99981 0.0
C1906 C 0.95213 0.75858 0.69352 0.0
C1907 C 0.96557 0.75033 0.69894 0.0
C1908 C 0.93827 0.75623 0.7031 0.0
C1909 C 0.9269 0.75009 0.74931 0.0
H1910 H 0.88337 0.74901 0.72302 0.0
C1911 C 0.87496 0.77801 0.78545 0.0
C1912 C 0.87156 0.79372 0.77695 0.0
C1913 C 0.88376 0.76542 0.77657 0.0
C1914 C 0.89535 0.74882 0.73055 0.0
H1915 H 0.97507 0.73297 0.71842 0.0
H1916 H 0.9508 0.7291 0.73533 0.0
H1917 H 0.90466 0.73898 0.70515 0.0
H1918 H 0.87492 0.80879 0.75281 0.0
H1919 H 0.89008 0.78667 0.73723 0.0
H1920 H 0.91788 0.76121 0.77448 0.0
C1921 C 0.95103 0.73729 0.72365 0.0
C1922 C 0.90751 0.74322 0.72037 0.0
C1923 C 0.96492 0.73965 0.71406 0.0
C1924 C 0.87718 0.79668 0.75954 0.0
C1925 C 0.88571 0.78397 0.75058 0.0
C1926 C 0.91468 0.75554 0.75951 0.0
C1927 C 0.9376 0.74557 0.71823 0.0
C1928 C 0.92367 0.74512 0.72949 0.0
C1929 C 0.88896 0.76823 0.75898 0.0
C1930 C 0.89924 0.75614 0.74993 0.0
H1931 H 0.95227 0.76682 0.68187 0.0
H1932 H 0.92827 0.76323 0.69896 0.0
H1933 H 0.93928 0.75166 0.75667 0.0
H1934 H 0.87047 0.77518 0.79869 0.0
H1935 H 0.88637 0.75344 0.78331 0.0
C1936 C 0.11545 0.04769 0.86657 0.0
C1937 C 0.12296 0.03233 0.86016 0.0
C1938 C 0.10792 0.04827 0.88349 0.0
C1939 C 0.10377 0.02499 0.92853 0.0
H1940 H 0.06772 0.052 0.93244 0.0
C1941 C 0.07111 0.03343 0.99889 0.0
C1942 C 0.05398 0.03347 0.99666 0.0
C1943 C 0.08038 0.03404 0.98314 0.0
C1944 C 0.07765 0.04418 0.93177 0.0
H1945 H 0.12813 1.0054 0.86722 0.0
H1946 H 0.11479 1.0061 0.89621 0.0
H1947 H 0.08105 0.05066 0.90388 0.0
H1948 H 0.03347 0.034 0.97563 0.0
H1949 H 0.04913 0.03501 0.9489 0.0
H1950 H 0.09987 0.01804 0.95635 0.0
C1951 C 0.11495 0.01806 0.88839 0.0
C1952 C 0.08563 0.04365 0.9152 0.0
C1953 C 0.12258 0.01755 0.87148 0.0
C1954 C 0.04664 0.03425 0.97821 0.0
C1955 C 0.05578 0.03494 0.96266 0.0
C1956 C 0.09573 0.02549 0.94517 0.0
C1957 C 0.10738 0.03344 0.89485 0.0
C1958 C 0.09888 0.03401 0.91304 0.0
C1959 C 0.07288 0.03477 0.96458 0.0
C1960 C 0.08235 0.03497 0.94716 0.0
H1961 H 0.11549 0.05949 0.85854 0.0
H1962 H 0.10271 0.06067 0.88772 0.0
H1963 H 0.11397 0.01758 0.92798 0.0
H1964 H 0.07719 0.03212 0.01257 0.0
H1965 H 0.09346 0.03387 0.98556 0.0
C1966 C 0.76737 0.34282 0.5707 0.0
C1967 C 0.75278 0.3478 0.57617 0.0
C1968 C 0.78104 0.34425 0.58407 0.0
C1969 C 0.79669 0.36291 0.63559 0.0
H1970 H 0.82846 0.33088 0.6253 0.0
C1971 C 0.83082 0.3431 0.69769 0.0
C1972 C 0.82764 0.32289 0.69566 0.0
C1973 C 0.83073 0.35226 0.68163 0.0
C1974 C 0.81972 0.33995 0.62847 0.0
H1975 H 0.74056 0.3573 0.59979 0.0
H1976 H 0.76355 0.357 0.62374 0.0
H1977 H 0.80687 0.33165 0.60073 0.0
H1978 H 0.82484 0.29674 0.67551 0.0
H1979 H 0.82438 0.31221 0.64806 0.0
H1980 H 0.80814 0.36885 0.66418 0.0
C1981 C 0.76506 0.3534 0.60898 0.0
C1982 C 0.80729 0.34065 0.61415 0.0
C1983 C 0.75161 0.35297 0.59538 0.0
C1984 C 0.82718 0.31232 0.67766 0.0
C1985 C 0.82695 0.32138 0.66169 0.0
C1986 C 0.80861 0.36141 0.65017 0.0
C1987 C 0.78024 0.34976 0.60346 0.0
C1988 C 0.79502 0.35137 0.61777 0.0
C1989 C 0.82721 0.34126 0.6634 0.0
C1990 C 0.81956 0.34884 0.64708 0.0
H1991 H 0.76875 0.33948 0.55582 0.0
H1992 H 0.79238 0.34182 0.57886 0.0
H1993 H 0.78825 0.37236 0.63874 0.0
H1994 H 0.83181 0.35168 0.71152 0.0
H1995 H 0.83176 0.3677 0.68351 0.0
C1996 C 0.46418 0.03506 0.35273 0.0
C1997 C 0.45227 0.0466 0.35085 0.0
C1998 C 0.47239 0.03385 0.37065 0.0
C1999 C 0.47932 0.05656 0.42308 0.0
H2000 H 0.49717 0.01121 0.42918 0.0
C2001 C 0.50752 0.04063 0.49746 0.0
C2002 C 0.52271 0.03443 0.4977 0.0
C2003 C 0.49834 0.04217 0.4801 0.0
C2004 C 0.49234 0.02407 0.42781 0.0
H2005 H 0.43977 0.06588 0.36698 0.0
H2006 H 0.45342 0.0633 0.39803 0.0
H2007 H 0.48265 0.01368 0.39872 0.0
H2008 H 0.53981 0.02474 0.47956 0.0
H2009 H 0.52376 0.02676 0.4497 0.0
H2010 H 0.48871 0.06648 0.45259 0.0
C2011 C 0.45694 0.0555 0.38566 0.0
C2012 C 0.48402 0.02562 0.41007 0.0
C2013 C 0.44892 0.05694 0.36766 0.0
C2014 C 0.52819 0.02951 0.48007 0.0
C2015 C 0.5189 0.03063 0.46282 0.0
C2016 C 0.4874 0.05482 0.44095 0.0
C2017 C 0.46886 0.04385 0.38765 0.0
C2018 C 0.47746 0.04202 0.40712 0.0
C2019 C 0.50386 0.03712 0.46242 0.0
C2020 C 0.49425 0.03863 0.44361 0.0
H2021 H 0.46725 0.02692 0.34023 0.0
H2022 H 0.48166 0.02509 0.37099 0.0
H2023 H 0.47486 0.06963 0.42181 0.0
H2024 H 0.5029 0.04468 0.51068 0.0
H2025 H 0.48681 0.04715 0.48052 0.0
C2026 C 0.78242 0.69987 0.09586 0.0
C2027 C 0.77198 0.70306 0.08043 0.0
C2028 C 0.78363 0.7109 0.11367 0.0
C2029 C 0.75922 0.73588 0.14325 0.0
H2030 H 0.80105 0.75526 0.17561 0.0
C2031 C 0.76296 0.76957 0.22232 0.0
C2032 C 0.77524 0.76504 0.23492 0.0
C2033 C 0.76257 0.76459 0.20269 0.0
C2034 C 0.78923 0.74978 0.16684 0.0
H2035 H 0.75499 0.72074 0.07143 0.0
H2036 H 0.75692 0.73985 0.10282 0.0
H2037 H 0.801 0.74249 0.1424 0.0
H2038 H 0.79624 0.75103 0.23694 0.0
H2039 H 0.79519 0.74177 0.20305 0.0
H2040 H 0.7474 0.74223 0.16785 0.0
C2041 C 0.7642 0.72883 0.10099 0.0
C2042 C 0.78924 0.74261 0.14779 0.0
C2043 C 0.76319 0.71798 0.08305 0.0
C2044 C 0.78678 0.75501 0.22759 0.0
C2045 C 0.78626 0.74983 0.20809 0.0
C2046 C 0.75919 0.74284 0.16241 0.0
C2047 C 0.77426 0.72519 0.11651 0.0
C2048 C 0.77425 0.73521 0.13592 0.0
C2049 C 0.77434 0.75481 0.19534 0.0
C2050 C 0.77421 0.74943 0.17455 0.0
H2051 H 0.78938 0.68851 0.09428 0.0
H2052 H 0.79138 0.70769 0.12543 0.0
H2053 H 0.74747 0.73011 0.1344 0.0
H2054 H 0.75396 0.77738 0.2276 0.0
H2055 H 0.75327 0.76874 0.19328 0.0
C2056 C 0.11431 0.02918 0.74899 0.0
C2057 C 0.1241 0.01524 0.75088 0.0
C2058 C 0.10582 0.0305 0.73125 0.0
C2059 C 0.08913 1.00331 0.6827 0.0
H2060 H 0.09225 0.05375 0.6677 0.0
C2061 C 0.06315 0.01181 0.6056 0.0
C2062 C 0.05832 0.02901 0.60207 0.0
C2063 C 0.07077 1.00998 0.62364 0.0
C2064 C 0.09084 0.03948 0.67156 0.0
H2065 H 0.132 0.9914 0.73509 0.0
H2066 H 0.11678 0.99325 0.70449 0.0
H2067 H 0.10524 0.05061 0.6988 0.0
H2068 H 0.05765 0.0577 0.61548 0.0
H2069 H 0.07013 0.05439 0.64677 0.0
H2070 H 0.07435 0.9921 0.65587 0.0
C2071 C 0.11581 1.00335 0.71675 0.0
C2072 C 0.09847 0.0377 0.6896 0.0
C2073 C 0.1246 1.00228 0.73441 0.0
C2074 C 0.06124 0.04424 0.6174 0.0
C2075 C 0.06863 0.04233 0.63552 0.0
C2076 C 0.08123 1.0051 0.66478 0.0
C2077 C 0.10648 0.0177 0.71473 0.0
C2078 C 0.09786 0.01958 0.69551 0.0
C2079 C 0.07369 0.02519 0.63911 0.0
C2080 C 0.08197 0.02324 0.65867 0.0
H2081 H 0.11366 0.03957 0.76115 0.0
H2082 H 0.09871 0.04165 0.73047 0.0
H2083 H 0.08813 0.98909 0.68666 0.0
H2084 H 0.06129 0.99971 0.59429 0.0
H2085 H 0.0746 0.9966 0.62522 0.0
C2086 C 0.73922 0.35071 0.4614 0.0
C2087 C 0.74565 0.33914 0.47343 0.0
C2088 C 0.74321 0.3503 0.44293 0.0
C2089 C 0.77424 0.33802 0.41326 0.0
H2090 H 0.73763 0.32141 0.3728 0.0
C2091 C 0.77788 0.28865 0.34578 0.0
C2092 C 0.76647 0.28779 0.32978 0.0
C2093 C 0.77798 0.30181 0.36199 0.0
C2094 C 0.74815 0.32668 0.38368 0.0
H2095 H 0.76073 0.31758 0.47539 0.0
H2096 H 0.76748 0.31678 0.44315 0.0
H2097 H 0.73217 0.3321 0.40445 0.0
H2098 H 0.7472 0.3008 0.31732 0.0
H2099 H 0.74829 0.32462 0.34483 0.0
H2100 H 0.79022 0.33202 0.3926 0.0
C2101 C 0.7597 0.32644 0.44816 0.0
C2102 C 0.74493 0.33273 0.40188 0.0
C2103 C 0.75557 0.32666 0.46647 0.0
C2104 C 0.75596 0.30099 0.32965 0.0
C2105 C 0.75655 0.31462 0.34545 0.0
C2106 C 0.77753 0.33225 0.39494 0.0
C2107 C 0.75381 0.3385 0.43641 0.0
C2108 C 0.75783 0.33741 0.4169 0.0
C2109 C 0.76696 0.3146 0.36212 0.0
C2110 C 0.76439 0.3255 0.38018 0.0
H2111 H 0.7316 0.36054 0.46644 0.0
H2112 H 0.73834 0.35947 0.43388 0.0
H2113 H 0.78439 0.3419 0.42474 0.0
H2114 H 0.78619 0.27867 0.346 0.0
H2115 H 0.78606 0.30121 0.37464 0.0
C2116 C 0.43078 0.05435 0.22452 0.0
C2117 C 0.43915 0.05537 0.24291 0.0
C2118 C 0.43879 0.0516 0.20815 0.0
C2119 C 0.48061 0.05615 0.19097 0.0
H2120 H 0.45681 0.02089 0.14696 0.0
C2121 C 0.51402 0.03696 0.12455 0.0
C2122 C 0.50482 0.0314 0.10635 0.0
C2123 C 0.50617 0.03973 0.14104 0.0
C2124 C 0.46372 0.03109 0.15887 0.0
H2125 H 0.46296 0.05452 0.25798 0.0
H2126 H 0.47697 0.0503 0.22963 0.0
H2127 H 0.44325 0.02646 0.17519 0.0
H2128 H 0.47976 0.02465 0.0917 0.0
H2129 H 0.46619 0.02996 0.11998 0.0
H2130 H 0.50092 0.06127 0.17466 0.0
C2131 C 0.46409 0.05151 0.22785 0.0
C2132 C 0.45583 0.03424 0.17529 0.0
C2133 C 0.45599 0.05391 0.24423 0.0
C2134 C 0.48741 0.02878 0.10533 0.0
C2135 C 0.47954 0.03174 0.1218 0.0
C2136 C 0.48843 0.05323 0.17447 0.0
C2137 C 0.4556 0.05007 0.20943 0.0
C2138 C 0.46411 0.0468 0.19172 0.0
C2139 C 0.48871 0.0373 0.14011 0.0
C2140 C 0.48021 0.04056 0.15798 0.0
H2141 H 0.41783 0.05525 0.22268 0.0
H2142 H 0.43175 0.05079 0.1944 0.0
H2143 H 0.48746 0.06613 0.2031 0.0
H2144 H 0.52742 0.03912 0.12615 0.0
H2145 H 0.51393 0.04359 0.15458 0.0
C2146 C 0.76705 0.69423 0.9614 0.0
C2147 C 0.76073 0.70256 0.97722 0.0
C2148 C 0.76828 0.70335 0.94527 0.0
C2149 C 0.77254 0.75026 0.92927 0.0
H2150 H 0.75134 0.72212 0.88035 0.0
C2151 C 0.76865 0.78869 0.86325 0.0
C2152 C 0.77003 0.77832 0.84566 0.0
C2153 C 0.76677 0.77936 0.87917 0.0
C2154 C 0.75759 0.73018 0.89379 0.0
H2155 H 0.75121 0.72722 0.98872 0.0
H2156 H 0.75389 0.74337 0.96086 0.0
H2157 H 0.75086 0.70596 0.90825 0.0
H2158 H 0.77023 0.74997 0.8309 0.0
H2159 H 0.76757 0.7339 0.85853 0.0
H2160 H 0.77983 0.77429 0.91495 0.0
C2161 C 0.75765 0.72969 0.96083 0.0
C2162 C 0.75724 0.72087 0.9098 0.0
C2163 C 0.75606 0.72039 0.97674 0.0
C2164 C 0.76907 0.75837 0.84422 0.0
C2165 C 0.76746 0.74911 0.86015 0.0
C2166 C 0.77318 0.75949 0.91321 0.0
C2167 C 0.76361 0.72119 0.94485 0.0
C2168 C 0.76462 0.73084 0.92772 0.0
C2169 C 0.76648 0.75946 0.87796 0.0
C2170 C 0.76563 0.74964 0.8952 0.0
H2171 H 0.7707 0.68049 0.96135 0.0
H2172 H 0.77298 0.69653 0.93316 0.0
H2173 H 0.77844 0.75825 0.94291 0.0
H2174 H 0.7693 0.80407 0.86477 0.0
H2175 H 0.76567 0.78783 0.89245 0.0
C2176 C 0.85581 0.14003 0.06347 0.0
C2177 C 0.8502 0.15224 0.05169 0.0
C2178 C 0.86995 0.13296 0.06024 0.0
C2179 C 0.9055 0.13657 0.03239 0.0
H2180 H 0.89688 0.08137 0.03207 0.0
C2181 C 0.95211 0.08651 0.02249 0.0
C2182 C 0.94532 0.0674 0.014 0.0
C2183 C 0.94196 0.09987 0.02444 0.0
C2184 C 0.89935 0.09675 0.03182 0.0
H2185 H 0.85527 0.1676 0.02806 0.0
H2186 H 0.87957 0.15449 0.02183 0.0
H2187 H 0.87733 0.09965 0.04377 0.0
H2188 H 0.92337 0.04799 0.99846 0.0
H2189 H 0.90581 0.07155 1.00122 0.0
H2190 H 0.92747 0.13329 0.0199 0.0
C2191 C 0.87333 0.15074 0.0338 0.0
C2192 C 0.88835 0.10728 0.03893 0.0
C2193 C 0.85932 0.15803 0.03722 0.0
C2194 C 0.92886 0.06255 1.00526 0.0
C2195 C 0.9188 0.07597 1.00697 0.0
C2196 C 0.91658 0.12594 0.02519 0.0
C2197 C 0.87847 0.13773 0.04496 0.0
C2198 C 0.89122 0.12725 0.03915 0.0
C2199 C 0.92501 0.09427 0.01769 0.0
C2200 C 0.91339 0.10589 0.02459 0.0
H2201 H 0.84918 0.13575 0.07502 0.0
H2202 H 0.8739 0.12325 0.06929 0.0
H2203 H 0.90801 0.152 0.03255 0.0
H2204 H 0.96497 0.09075 0.02878 0.0
H2205 H 0.94708 0.11396 0.0326 0.0
C2206 C 0.36434 0.43209 0.05034 0.0
C2207 C 0.3553 0.4395 0.06414 0.0
C2208 C 0.38086 0.44083 0.04956 0.0
C2209 C 0.41796 0.46984 0.07924 0.0
H2210 H 0.43351 0.48093 0.03183 0.0
C2211 C 0.48399 0.51361 0.07723 0.0
C2212 C 0.49218 0.50988 0.06134 0.0
C2213 C 0.46749 0.50448 0.07745 0.0
C2214 C 0.42952 0.47764 0.04518 0.0
H2215 H 0.35661 0.462 0.08791 0.0
H2216 H 0.38566 0.47703 0.08683 0.0
H2217 H 0.40437 0.46654 0.03228 0.0
H2218 H 0.48961 0.49315 0.03339 0.0
H2219 H 0.46097 0.47666 0.03394 0.0
H2220 H 0.44304 0.4803 0.09214 0.0
C2221 C 0.37984 0.46451 0.07652 0.0
C2222 C 0.41274 0.4695 0.04542 0.0
C2223 C 0.36318 0.45599 0.07706 0.0
C2224 C 0.48361 0.49638 0.04583 0.0
C2225 C 0.46711 0.48707 0.04611 0.0
C2226 C 0.43477 0.4777 0.07897 0.0
C2227 C 0.38889 0.45698 0.06279 0.0
C2228 C 0.40673 0.46565 0.06249 0.0
C2229 C 0.45871 0.49113 0.06186 0.0
C2230 C 0.44083 0.48191 0.06196 0.0
H2231 H 0.35865 0.41944 0.04013 0.0
H2232 H 0.38749 0.43462 0.03888 0.0
H2233 H 0.41378 0.46672 0.09256 0.0
H2234 H 0.4902 0.524 0.0894 0.0
H2235 H 0.46152 0.50834 0.08973 0.0
C2236 C 0.35784 0.5985 0.75626 0.0
C2237 C 0.37179 0.59784 0.76903 0.0
C2238 C 0.35036 0.61479 0.75727 0.0
C2239 C 0.34979 0.66236 0.78894 0.0
H2240 H 0.32466 0.67196 0.74394 0.0
C2241 C 0.32352 0.73372 0.78719 0.0
C2242 C 0.30792 0.73258 0.77661 0.0
C2243 C 0.33146 0.71775 0.78638 0.0
C2244 C 0.33147 0.66955 0.7568 0.0
H2245 H 0.38869 0.61465 0.79294 0.0
H2246 H 0.37617 0.64296 0.79443 0.0
H2247 H 0.33786 0.64434 0.74231 0.0
H2248 H 0.28882 0.71308 0.75655 0.0
H2249 H 0.30252 0.68569 0.75502 0.0
H2250 H 0.34357 0.68792 0.80326 0.0
C2251 C 0.37057 0.63071 0.78376 0.0
C2252 C 0.33913 0.6534 0.7559 0.0
C2253 C 0.37795 0.61431 0.78284 0.0
C2254 C 0.30075 0.71481 0.76501 0.0
C2255 C 0.30876 0.69895 0.76403 0.0
C2256 C 0.34225 0.67863 0.78978 0.0
C2257 C 0.35653 0.63144 0.771 0.0
C2258 C 0.34844 0.64922 0.77196 0.0
C2259 C 0.32429 0.69995 0.77474 0.0
C2260 C 0.3328 0.6826 0.77377 0.0
H2261 H 0.35253 0.58625 0.74543 0.0
H2262 H 0.33949 0.61407 0.74729 0.0
H2263 H 0.35644 0.65998 0.80188 0.0
H2264 H 0.32963 0.74699 0.79629 0.0
H2265 H 0.34343 0.71952 0.79475 0.0
C2266 C 0.25352 0.64947 0.53597 0.0
C2267 C 0.26057 0.6685 0.54424 0.0
C2268 C 0.23696 0.64172 0.53709 0.0
C2269 C 0.19727 0.65288 0.55037 0.0
H2270 H 0.19207 0.6022 0.56546 0.0
C2271 C 0.1405 0.6166 0.58358 0.0
C2272 C 0.13469 0.59675 0.57761 0.0
C2273 C 0.15498 0.62616 0.57763 0.0
C2274 C 0.19324 0.61623 0.561 0.0
H2275 H 0.25568 0.69478 0.55915 0.0
H2276 H 0.22678 0.68102 0.56167 0.0
H2277 H 0.21865 0.61757 0.5575 0.0
H2278 H 0.13884 0.57155 0.56 0.0
H2279 H 0.16404 0.5882 0.5496 0.0
H2280 H 0.17177 0.65152 0.5544 0.0
C2281 C 0.23396 0.67218 0.55403 0.0
C2282 C 0.20846 0.62503 0.55637 0.0
C2283 C 0.25052 0.68004 0.55266 0.0
C2284 C 0.14329 0.58676 0.56519 0.0
C2285 C 0.15767 0.5963 0.55919 0.0
C2286 C 0.18196 0.64403 0.55508 0.0
C2287 C 0.22719 0.65275 0.5468 0.0
C2288 C 0.21066 0.64341 0.55094 0.0
C2289 C 0.1638 0.61602 0.56557 0.0
C2290 C 0.17982 0.62559 0.56039 0.0
H2291 H 0.26095 0.64038 0.5291 0.0
H2292 H 0.23196 0.62685 0.53092 0.0
H2293 H 0.1986 0.66703 0.54619 0.0
H2294 H 0.13407 0.62461 0.59318 0.0
H2295 H 0.15951 0.64134 0.58289 0.0
C2296 C 0.67912 0.95395 0.80618 0.0
C2297 C 0.68547 0.96922 0.79663 0.0
C2298 C 0.68633 0.93753 0.80623 0.0
C2299 C 0.71773 0.9126 0.78241 0.0
H2300 H 0.71242 0.88131 0.82245 0.0
C2301 C 0.75682 0.85376 0.79264 0.0
C2302 C 0.74895 0.83578 0.79686 0.0
C2303 C 0.74862 0.86931 0.79252 0.0
C2304 C 0.71396 0.88975 0.81103 0.0
H2305 H 0.70493 0.97895 0.77995 0.0
H2306 H 0.71786 0.95126 0.78069 0.0
H2307 H 0.69979 0.90946 0.82285 0.0
H2308 H 0.72591 0.82057 0.80448 0.0
H2309 H 0.71174 0.84785 0.80476 0.0
H2310 H 0.7324 0.89315 0.77103 0.0
C2311 C 0.70687 0.95132 0.78766 0.0
C2312 C 0.70658 0.90607 0.81117 0.0
C2313 C 0.69948 0.96754 0.78736 0.0
C2314 C 0.73249 0.83406 0.80113 0.0
C2315 C 0.72436 0.84982 0.80138 0.0
C2316 C 0.72532 0.89652 0.78248 0.0
C2317 C 0.70043 0.93576 0.79695 0.0
C2318 C 0.70829 0.91797 0.79686 0.0
C2319 C 0.73224 0.86775 0.79694 0.0
C2320 C 0.72363 0.88475 0.79678 0.0
H2321 H 0.66831 0.9545 0.81342 0.0
H2322 H 0.68056 0.92609 0.81335 0.0
H2323 H 0.71921 0.92064 0.77072 0.0
H2324 H 0.76942 0.85586 0.78922 0.0
H2325 H 0.7553 0.88276 0.78921 0.0
C2326 C 0.75294 0.93253 0.54897 0.0
C2327 C 0.76496 0.9432 0.56373 0.0
C2328 C 0.73771 0.93805 0.54495 0.0
C2329 C 0.71696 0.97988 0.5531 0.0
H2330 H 0.67629 0.9411 0.54102 0.0
C2331 C 0.65368 1.00128 0.53634 0.0
C2332 C 0.64009 0.99167 0.54415 0.0
C2333 C 0.66854 0.99456 0.53654 0.0
C2334 C 0.6875 0.95216 0.54446 0.0
H2335 H 0.77028 0.96814 0.58575 0.0
H2336 H 0.74391 0.97763 0.57889 0.0
H2337 H 0.70287 0.93129 0.54594 0.0
H2338 H 0.63145 0.96664 0.55737 0.0
H2339 H 0.65736 0.9553 0.5582 0.0
H2340 H 0.70167 1.00077 0.55229 0.0
C2341 C 0.74624 0.96513 0.57018 0.0
C2342 C 0.70282 0.9465 0.54706 0.0
C2343 C 0.76141 0.95961 0.57421 0.0
C2344 C 0.64167 0.9747 0.55152 0.0
C2345 C 0.65654 0.96801 0.55178 0.0
C2346 C 0.70169 0.98553 0.55051 0.0
C2347 C 0.73411 0.95443 0.55554 0.0
C2348 C 0.71778 0.9603 0.55165 0.0
C2349 C 0.67033 0.97802 0.5446 0.0
C2350 C 0.68668 0.97179 0.54631 0.0
H2351 H 0.75522 0.91979 0.54062 0.0
H2352 H 0.72879 0.92953 0.53345 0.0
H2353 H 0.72817 0.99096 0.55632 0.0
H2354 H 0.65309 0.01444 0.53063 0.0
H2355 H 0.67871 1.0025 0.53053 0.0
C2356 C 0.35833 0.48803 0.77691 0.0
C2357 C 0.37583 0.49159 0.77975 0.0
C2358 C 0.34863 0.46967 0.77804 0.0
C2359 C 0.35097 0.41706 0.77627 0.0
H2360 H 0.31032 0.4129 0.79921 0.0
C2361 C 0.31354 0.34192 0.78952 0.0
C2362 C 0.29613 0.33906 0.78849 0.0
C2363 C 0.32339 0.36027 0.78865 0.0
C2364 C 0.32149 0.41356 0.79246 0.0
H2365 H 0.39654 0.47783 0.78582 0.0
H2366 H 0.37991 0.44635 0.78755 0.0
H2367 H 0.32638 0.44454 0.79671 0.0
H2368 H 0.27567 0.35378 0.78572 0.0
H2369 H 0.29243 0.38512 0.78397 0.0
H2370 H 0.34604 0.38611 0.77183 0.0
C2371 C 0.37353 0.45765 0.78442 0.0
C2372 C 0.33081 0.43196 0.79105 0.0
C2373 C 0.38317 0.47597 0.78355 0.0
C2374 C 0.289 0.35522 0.78664 0.0
C2375 C 0.29876 0.37346 0.78578 0.0
C2376 C 0.3416 0.39865 0.77757 0.0
C2377 C 0.35604 0.45403 0.78174 0.0
C2378 C 0.34578 0.43416 0.78294 0.0
C2379 C 0.3162 0.37652 0.78676 0.0
C2380 C 0.3266 0.39641 0.78568 0.0
H2381 H 0.35207 0.49949 0.77396 0.0
H2382 H 0.33525 0.46767 0.77572 0.0
H2383 H 0.36223 0.41784 0.76968 0.0
H2384 H 0.31959 0.32999 0.79103 0.0
H2385 H 0.33671 0.36172 0.7897 0.0
C2386 C 0.20093 0.57928 0.30991 0.0
C2387 C 0.18407 0.57608 0.31281 0.0
C2388 C 0.20991 0.59797 0.30886 0.0
C2389 C 0.20396 0.64544 0.2967 0.0
H2390 H 0.24807 0.66616 0.32353 0.0
C2391 C 0.24484 0.71772 0.28311 0.0
C2392 C 0.25348 0.73075 0.29904 0.0
C2393 C 0.23672 0.69892 0.28487 0.0
C2394 C 0.23574 0.66066 0.31593 0.0
H2395 H 0.16366 0.5906 0.31679 0.0
H2396 H 0.17905 0.62266 0.31451 0.0
H2397 H 0.23367 0.63358 0.32651 0.0
H2398 H 0.26027 0.73361 0.32946 0.0
H2399 H 0.24646 0.70091 0.33241 0.0
H2400 H 0.20606 0.67234 0.2859 0.0
C2401 C 0.18543 0.61078 0.31322 0.0
C2402 C 0.22751 0.64184 0.31754 0.0
C2403 C 0.1766 0.59227 0.31469 0.0
C2404 C 0.25382 0.72417 0.31678 0.0
C2405 C 0.24592 0.70526 0.31849 0.0
C2406 C 0.21232 0.66407 0.29477 0.0
C2407 C 0.20222 0.61401 0.31018 0.0
C2408 C 0.2114 0.63394 0.30807 0.0
C2409 C 0.23714 0.69229 0.30258 0.0
C2410 C 0.22833 0.67211 0.30444 0.0
H2411 H 0.20719 0.56731 0.30831 0.0
H2412 H 0.22278 0.59977 0.30647 0.0
H2413 H 0.19165 0.63995 0.28906 0.0
H2414 H 0.2442 0.72207 0.26919 0.0
H2415 H 0.23025 0.68945 0.27222 0.0
C2416 C 0.51883 0.72189 0.47928 0.0
C2417 C 0.511 0.71909 0.4605 0.0
C2418 C 0.5198 0.70618 0.48877 0.0
C2419 C 0.52328 0.6566 0.48097 0.0
H2420 H 0.50759 0.65239 0.5298 0.0
C2421 C 0.542 0.60443 0.5304 0.0
C2422 C 0.52868 0.59138 0.53525 0.0
C2423 C 0.53921 0.6201 0.52169 0.0
C2424 C 0.51199 0.65341 0.51616 0.0
H2425 H 0.49807 0.69765 0.43693 0.0
H2426 H 0.50032 0.67006 0.45336 0.0
H2427 H 0.50364 0.67969 0.51356 0.0
H2428 H 0.502 0.58492 0.53531 0.0
H2429 H 0.49722 0.61286 0.52065 0.0
H2430 H 0.53216 0.63073 0.48385 0.0
C2431 C 0.50543 0.68448 0.46077 0.0
C2432 C 0.50978 0.669 0.50693 0.0
C2433 C 0.50409 0.70024 0.45143 0.0
C2434 C 0.51252 0.59471 0.53173 0.0
C2435 C 0.50978 0.61068 0.52339 0.0
C2436 C 0.52584 0.64129 0.49041 0.0
C2437 C 0.51332 0.68732 0.47952 0.0
C2438 C 0.51534 0.67067 0.48921 0.0
C2439 C 0.52308 0.62332 0.51802 0.0
C2440 C 0.52018 0.63952 0.50806 0.0
H2441 H 0.52426 0.73626 0.48665 0.0
H2442 H 0.52603 0.70874 0.50317 0.0
H2443 H 0.5278 0.65766 0.4674 0.0
H2444 H 0.55458 0.60223 0.53279 0.0
H2445 H 0.54967 0.62969 0.51776 0.0
C2446 C 0.62854 0.3078 0.69365 0.0
C2447 C 0.61458 0.30724 0.70347 0.0
C2448 C 0.64402 0.30708 0.70303 0.0
C2449 C 0.66901 0.31718 0.74968 0.0
H2450 H 0.69328 0.27983 0.72879 0.0
C2451 C 0.72525 0.30148 0.79385 0.0
C2452 C 0.73879 0.29733 0.78497 0.0
C2453 C 0.71058 0.30284 0.78319 0.0
C2454 C 0.68685 0.29057 0.7347 0.0
H2455 H 0.60613 0.30591 0.731 0.0
H2456 H 0.63336 0.3053 0.74755 0.0
H2457 H 0.6669 0.28244 0.71174 0.0
H2458 H 0.74752 0.29115 0.75783 0.0
H2459 H 0.72188 0.29394 0.73898 0.0
H2460 H 0.68895 0.32573 0.77237 0.0
C2461 C 0.6322 0.30609 0.7325 0.0
C2462 C 0.67167 0.292 0.72495 0.0
C2463 C 0.61661 0.30641 0.72303 0.0
C2464 C 0.73727 0.29434 0.76505 0.0
C2465 C 0.72253 0.29587 0.75429 0.0
C2466 C 0.68425 0.31597 0.75929 0.0
C2467 C 0.64604 0.30617 0.72255 0.0
C2468 C 0.66247 0.30514 0.73248 0.0
C2469 C 0.70901 0.30033 0.76325 0.0
C2470 C 0.69329 0.30241 0.75214 0.0
H2471 H 0.62743 0.30827 0.67854 0.0
H2472 H 0.65446 0.3073 0.69501 0.0
H2473 H 0.66237 0.32768 0.75567 0.0
H2474 H 0.72596 0.30369 0.80917 0.0
H2475 H 0.7004 0.30575 0.79069 0.0
C2476 C 1.00856 0.32432 0.98166 0.0
C2477 C 0.01191 0.32125 0.96283 0.0
C2478 C 0.0113 0.34292 0.99164 0.0
C2479 C 0.03198 0.39347 0.99143 0.0
H2480 H 0.99807 0.40436 0.02244 0.0
C2481 C 1.01057 0.46387 0.03126 0.0
C2482 C 0.02622 0.47451 0.03976 0.0
C2483 C 1.00875 0.44475 0.02273 0.0
C2484 C 1.00757 0.40155 0.01375 0.0
H2485 H 0.02117 0.33504 0.93975 0.0
H2486 H 0.02558 0.36774 0.95704 0.0
H2487 H 0.99568 0.372 1.00542 0.0
H2488 H 0.05204 0.47306 0.04695 0.0
H2489 H 0.04878 0.43981 0.0323 0.0
H2490 H 0.04362 0.42318 0.99939 0.0
C2491 C 0.02115 0.35575 0.96424 0.0
C2492 C 1.00633 0.38297 1.00418 0.0
C2493 C 0.01863 0.33705 0.95434 0.0
C2494 C 0.03983 0.46539 0.04031 0.0
C2495 C 0.03801 0.44635 0.03182 0.0
C2496 C 0.0332 0.41205 1.00099 0.0
C2497 C 0.01718 0.35889 0.98289 0.0
C2498 C 0.01856 0.37869 0.99299 0.0
C2499 C 0.02255 0.43596 0.02258 0.0
C2500 C 0.02106 0.41625 0.01232 0.0
H2501 H 1.00353 0.31232 0.98859 0.0
H2502 H 1.00855 0.3448 1.00614 0.0
H2503 H 0.04164 0.39064 0.98301 0.0
H2504 H 0.99984 0.47048 0.03057 0.0
H2505 H 0.99669 0.43709 0.01566 0.0
C2506 C 0.01228 0.78623 0.21894 0.0
C2507 C 0.01615 0.7971 0.20441 0.0
C2508 C 0.99647 0.78363 0.22471 0.0
C2509 C 0.95284 0.78363 0.20832 0.0
H2510 H 0.94811 0.78793 0.26187 0.0
C2511 C 0.88982 0.78461 0.23703 0.0
C2512 C 0.88699 0.77698 0.25383 0.0
C2513 C 0.90511 0.78551 0.23004 0.0
C2514 C 0.94914 0.7863 0.24683 0.0
H2515 H 1.00637 0.81387 0.1846 0.0
H2516 H 0.97866 0.80928 0.19469 0.0
H2517 H 0.97567 0.79344 0.25201 0.0
H2518 H 0.8979 0.76334 0.27581 0.0
H2519 H 0.92422 0.76424 0.26326 0.0
H2520 H 0.92629 0.77631 0.20312 0.0
C2521 C 0.98792 0.80274 0.20158 0.0
C2522 C 0.965 0.78959 0.24119 0.0
C2523 C 1.00384 0.80553 0.19593 0.0
C2524 C 0.89954 0.76927 0.26282 0.0
C2525 C 0.91479 0.77006 0.25576 0.0
C2526 C 0.93694 0.78019 0.21397 0.0
C2527 C 0.98403 0.79167 0.21598 0.0
C2528 C 0.96707 0.78834 0.22188 0.0
C2529 C 0.91797 0.77869 0.23957 0.0
C2530 C 0.93486 0.78153 0.23333 0.0
H2531 H 0.02143 0.77946 0.22573 0.0
H2532 H 0.99386 0.77488 0.23572 0.0
H2533 H 0.95401 0.78228 0.19331 0.0
H2534 H 0.88035 0.79034 0.22949 0.0
H2535 H 0.90702 0.79228 0.21756 0.0
C2536 C 0.50959 0.31751 0.13449 0.0
C2537 C 0.50608 0.30049 0.12131 0.0
C2538 C 0.51986 0.33398 0.13054 0.0
C2539 C 0.5534 0.34608 0.10144 0.0
H2540 H 0.54818 0.39851 0.11515 0.0
C2541 C 0.57883 0.43019 0.09309 0.0
C2542 C 0.5749 0.42726 0.07324 0.0
C2543 C 0.57736 0.41445 0.10284 0.0
C2544 C 0.55012 0.38398 0.11178 0.0
H2545 H 0.50852 0.28805 0.09273 0.0
H2546 H 0.52591 0.317 0.0856 0.0
H2547 H 0.52798 0.37216 0.12275 0.0
H2548 H 0.56994 0.40576 0.0479 0.0
H2549 H 0.56782 0.37857 0.0648 0.0
H2550 H 0.57502 0.35799 0.08941 0.0
C2551 C 0.52141 0.31737 0.09929 0.0
C2552 C 0.53843 0.36888 0.11596 0.0
C2553 C 0.51122 0.30091 0.10326 0.0
C2554 C 0.57283 0.40858 0.0632 0.0
C2555 C 0.5716 0.39288 0.07294 0.0
C2556 C 0.56505 0.3612 0.09714 0.0
C2557 C 0.52658 0.33367 0.1133 0.0
C2558 C 0.53965 0.34978 0.11028 0.0
C2559 C 0.57228 0.39572 0.09277 0.0
C2560 C 0.56322 0.38025 0.10177 0.0
H2561 H 0.50579 0.31761 0.14852 0.0
H2562 H 0.52349 0.34642 0.14153 0.0
H2563 H 0.55492 0.33147 0.09742 0.0
H2564 H 0.5811 0.44452 0.10117 0.0
H2565 H 0.57833 0.41695 0.11819 0.0
C2566 C 1.00563 0.34172 0.41391 0.0
C2567 C 1.00973 0.33235 0.42917 0.0
C2568 C 0.98988 0.33638 0.4036 0.0
C2569 C 0.94741 0.30871 0.40239 0.0
H2570 H 0.94909 0.30205 0.34803 0.0
C2571 C 0.88775 0.28543 0.35235 0.0
C2572 C 0.88611 0.29932 0.34057 0.0
C2573 C 0.90338 0.28429 0.36071 0.0
C2574 C 0.94848 0.3037 0.36317 0.0
H2575 H 1.00016 0.31164 0.447 0.0
H2576 H 0.97263 0.30224 0.42891 0.0
H2577 H 0.97474 0.31318 0.36982 0.0
H2578 H 0.89938 0.32142 0.32654 0.0
H2579 H 0.92669 0.31962 0.34127 0.0
H2580 H 0.92114 0.29969 0.39577 0.0
C2581 C 0.98158 0.31363 0.42485 0.0
C2582 C 0.96309 0.31026 0.37563 0.0
C2583 C 0.99732 0.3191 0.43528 0.0
C2584 C 0.90036 0.31063 0.33563 0.0
C2585 C 0.91599 0.30953 0.34402 0.0
C2586 C 0.93281 0.3021 0.38993 0.0
C2587 C 0.97804 0.32152 0.40835 0.0
C2588 C 0.96262 0.31338 0.39533 0.0
C2589 C 0.91753 0.29708 0.35742 0.0
C2590 C 0.93318 0.30006 0.37021 0.0
H2591 H 0.01494 0.35217 0.40909 0.0
H2592 H 0.98725 0.34318 0.39132 0.0
H2593 H 0.94671 0.31093 0.4175 0.0
H2594 H 0.87689 0.27623 0.35596 0.0
H2595 H 0.90432 0.2743 0.37069 0.0
C2596 C 0.9912 0.68645 0.63228 0.0
C2597 C 0.98736 0.70159 0.62326 0.0
C2598 C 1.00051 0.67429 0.62381 0.0
C2599 C 0.01891 0.66042 0.58086 0.0
H2600 H 0.05503 0.65654 0.61818 0.0
C2601 C 0.05124 0.6065 0.55877 0.0
C2602 C 0.04418 0.59274 0.56939 0.0
C2603 C 0.05499 0.62589 0.56677 0.0
C2604 C 0.04531 0.65803 0.60752 0.0
H2605 H 0.98685 0.71328 0.59679 0.0
H2606 H 1.00297 0.69195 0.58198 0.0
H2607 H 0.0343 0.67476 0.62756 0.0
H2608 H 0.03855 0.58716 0.59718 0.0
H2609 H 0.04511 0.62072 0.61119 0.0
H2610 H 0.02925 0.64292 0.56104 0.0
C2611 C 0.99936 0.68984 0.59579 0.0
C2612 C 0.03324 0.66801 0.61294 0.0
C2613 C 0.98994 0.70193 0.60422 0.0
C2614 C 0.04381 0.59779 0.5888 0.0
C2615 C 0.04777 0.61707 0.59684 0.0
C2616 C 0.03099 0.65051 0.57542 0.0
C2617 C 1.00585 0.67708 0.60621 0.0
C2618 C 0.01949 0.66838 0.59986 0.0
C2619 C 0.05122 0.63127 0.58514 0.0
C2620 C 0.04375 0.64825 0.58896 0.0
H2621 H 0.98895 0.6856 0.64681 0.0
H2622 H 1.00473 0.66385 0.63173 0.0
H2623 H 1.00856 0.66071 0.57047 0.0
H2624 H 0.05174 0.60262 0.54375 0.0
H2625 H 0.05805 0.63663 0.55764 0.0
C2626 C 0.58711 0.79672 0.90144 0.0
C2627 C 0.59424 0.80575 0.91972 0.0
C2628 C 0.5963 0.79802 0.88632 0.0
C2629 C 0.63865 0.80152 0.87822 0.0
H2630 H 0.62094 0.80141 0.82593 0.0
C2631 C 0.66109 0.76091 0.81696 0.0
C2632 C 0.67215 0.77356 0.8085 0.0
C2633 C 0.64979 0.76791 0.82764 0.0
C2634 C 0.626 0.80163 0.84051 0.0
H2635 H 0.61604 0.82432 0.93655 0.0
H2636 H 0.63225 0.8265 0.90996 0.0
H2637 H 0.60536 0.81102 0.85174 0.0
H2638 H 0.67915 0.80285 0.80284 0.0
H2639 H 0.6591 0.81506 0.82154 0.0
H2640 H 0.65887 0.79137 0.86699 0.0
C2641 C 0.61962 0.81825 0.90742 0.0
C2642 C 0.61719 0.80709 0.85518 0.0
C2643 C 0.61043 0.81687 0.9226 0.0
C2644 C 0.6707 0.79288 0.80931 0.0
C2645 C 0.65928 0.79984 0.81988 0.0
C2646 C 0.64733 0.79597 0.86361 0.0
C2647 C 0.61274 0.80843 0.88927 0.0
C2648 C 0.62327 0.80656 0.8741 0.0
C2649 C 0.64933 0.78753 0.82972 0.0
C2650 C 0.64082 0.79551 0.84473 0.0
H2651 H 0.57461 0.78809 0.89894 0.0
H2652 H 0.59081 0.79003 0.87254 0.0
H2653 H 0.64349 0.80072 0.89264 0.0
H2654 H 0.66214 0.74603 0.81669 0.0
H2655 H 0.6422 0.75832 0.83534 0.0
C2656 C 0.42854 0.54506 0.71211 0.0
C2657 C 0.43659 0.54803 0.73094 0.0
C2658 C 0.43756 0.54478 0.69626 0.0
C2659 C 0.47916 0.56266 0.68161 0.0
H2660 H 0.46608 0.52281 0.63777 0.0
C2661 C 0.52221 0.55945 0.62188 0.0
C2662 C 0.51666 0.54959 0.60329 0.0
C2663 C 0.51199 0.55892 0.63646 0.0
C2664 C 0.46996 0.53433 0.64963 0.0
H2665 H 0.46091 0.55329 0.74727 0.0
H2666 H 0.47652 0.55366 0.71993 0.0
H2667 H 0.44958 0.52279 0.66426 0.0
H2668 H 0.4953 0.53079 0.58613 0.0
H2669 H 0.47701 0.53067 0.61114 0.0
H2670 H 0.49887 0.57498 0.6671 0.0
C2671 C 0.46312 0.55123 0.71737 0.0
C2672 C 0.46039 0.53423 0.66506 0.0
C2673 C 0.45409 0.55098 0.73318 0.0
C2674 C 0.50013 0.53901 0.59997 0.0
C2675 C 0.48963 0.53874 0.61465 0.0
C2676 C 0.48847 0.56306 0.66609 0.0
C2677 C 0.45507 0.54799 0.69853 0.0
C2678 C 0.46492 0.54826 0.68153 0.0
C2679 C 0.4953 0.54877 0.63338 0.0
C2680 C 0.48439 0.54871 0.64972 0.0
H2681 H 0.41514 0.5426 0.70955 0.0
H2682 H 0.43076 0.54235 0.68216 0.0
H2683 H 0.48303 0.57399 0.69369 0.0
H2684 H 0.53484 0.56759 0.62544 0.0
H2685 H 0.51758 0.56637 0.65036 0.0
C2686 C 0.79845 0.19379 0.98908 0.0
C2687 C 0.80932 0.20985 0.99993 0.0
C2688 C 0.78684 0.19632 0.97468 0.0
C2689 C 0.76647 0.23601 0.96354 0.0
H2690 H 0.74205 0.19786 0.92207 0.0
C2691 C 0.73249 0.265 0.91115 0.0
C2692 C 0.73776 0.25908 0.89382 0.0
C2693 C 0.73077 0.2524 0.92449 0.0
C2694 C 0.74874 0.20883 0.93349 0.0
H2695 H 0.81891 0.24044 1.00223 0.0
H2696 H 0.79998 0.24465 0.9756 0.0
H2697 H 0.76548 0.19089 0.94078 0.0
H2698 H 0.74112 0.23462 0.8747 0.0
H2699 H 0.73918 0.21319 0.89779 0.0
H2700 H 0.75119 0.25475 0.95544 0.0
C2701 C 0.79931 0.23032 0.9792 0.0
C2702 C 0.76219 0.2047 0.94442 0.0
C2703 C 0.81048 0.2279 0.99411 0.0
C2704 C 0.73751 0.23953 0.88832 0.0
C2705 C 0.73645 0.22721 0.90183 0.0
C2706 C 0.75349 0.24039 0.95225 0.0
C2707 C 0.7864 0.21488 0.97052 0.0
C2708 C 0.77164 0.21857 0.95912 0.0
C2709 C 0.73551 0.23448 0.92086 0.0
C2710 C 0.74492 0.22727 0.93636 0.0
H2711 H 0.79731 0.17969 0.99338 0.0
H2712 H 0.77731 0.18399 0.96825 0.0
H2713 H 0.77273 0.24667 0.97545 0.0
H2714 H 0.73212 0.27998 0.91543 0.0
H2715 H 0.72835 0.25792 0.93849 0.0
C2716 C 0.1047 0.51971 0.25423 0.0
C2717 C 0.12067 0.51538 0.25572 0.0
C2718 C 0.09604 0.52066 0.23643 0.0
C2719 C 0.10235 0.527 0.18595 0.0
H2720 H 0.05479 0.50853 0.17592 0.0
C2721 C 0.06434 0.52608 0.11094 0.0
C2722 C 0.04783 0.52856 0.11058 0.0
C2723 C 0.07367 0.52421 0.12813 0.0
C2724 C 0.06804 0.51412 0.17839 0.0
H2725 H 0.1398 0.50867 0.23894 0.0
H2726 H 0.12486 0.51036 0.20828 0.0
H2727 H 0.06955 0.50606 0.20626 0.0
H2728 H 0.02855 0.53137 0.12845 0.0
H2729 H 0.04452 0.52871 0.15776 0.0
H2730 H 0.1008 0.53531 0.15814 0.0
C2731 C 0.11897 0.5131 0.22089 0.0
C2732 C 0.07659 0.51262 0.19601 0.0
C2733 C 0.12754 0.51192 0.23863 0.0
C2734 C 0.04114 0.52935 0.12793 0.0
C2735 C 0.05037 0.5276 0.14494 0.0
C2736 C 0.09376 0.52866 0.16833 0.0
C2737 C 0.10306 0.51757 0.21938 0.0
C2738 C 0.09392 0.51908 0.20025 0.0
C2739 C 0.0668 0.52476 0.14552 0.0
C2740 C 0.07636 0.52239 0.16417 0.0
H2741 H 0.09892 0.52263 0.26689 0.0
H2742 H 0.08393 0.52431 0.23613 0.0
H2743 H 0.11564 0.53237 0.18852 0.0
H2744 H 0.06994 0.52521 0.09795 0.0
H2745 H 0.08617 0.52192 0.12763 0.0
C2746 C 0.79103 0.87428 0.49879 0.0
C2747 C 0.79969 0.86625 0.51249 0.0
C2748 C 0.78843 0.86581 0.4797 0.0
C2749 C 0.77844 0.84042 0.44111 0.0
H2750 H 0.81478 0.81998 0.4221 0.0
C2751 C 0.77226 0.79896 0.36528 0.0
C2752 C 0.78607 0.80197 0.3553 0.0
C2753 C 0.77365 0.80636 0.38452 0.0
C2754 C 0.80457 0.82577 0.42709 0.0
H2755 H 0.81163 0.8425 0.51711 0.0
H2756 H 0.80671 0.8275 0.48405 0.0
H2757 H 0.81724 0.83385 0.45529 0.0
H2758 H 0.81219 0.81513 0.35771 0.0
H2759 H 0.81455 0.82844 0.39118 0.0
H2760 H 0.76601 0.83296 0.41272 0.0
C2761 C 0.80235 0.84063 0.48787 0.0
C2762 C 0.80587 0.83348 0.44624 0.0
C2763 C 0.80505 0.84915 0.50687 0.0
C2764 C 0.80135 0.8124 0.36503 0.0
C2765 C 0.8027 0.81999 0.38425 0.0
C2766 C 0.77717 0.8328 0.42191 0.0
C2767 C 0.79435 0.84908 0.47396 0.0
C2768 C 0.7928 0.84083 0.45353 0.0
C2769 C 0.78885 0.81712 0.39423 0.0
C2770 C 0.79021 0.82533 0.41466 0.0
H2771 H 0.7868 0.88749 0.50267 0.0
H2772 H 0.78232 0.8728 0.46937 0.0
H2773 H 0.76809 0.84583 0.44624 0.0
H2774 H 0.76032 0.79084 0.35824 0.0
H2775 H 0.7628 0.8035 0.3918 0.0
C2776 C 0.45643 0.52505 0.84375 0.0
C2777 C 0.44925 0.54052 0.83926 0.0
C2778 C 0.46422 0.525 0.86218 0.0
C2779 C 0.48353 0.55666 0.90814 0.0
H2780 H 0.47622 0.50876 0.92861 0.0
C2781 C 0.5097 0.55242 0.98694 0.0
C2782 C 0.51352 0.53496 0.99127 0.0
C2783 C 0.50193 0.55372 0.96875 0.0
C2784 C 0.47878 0.52228 0.9232 0.0
H2785 H 0.44509 0.56832 0.85117 0.0
H2786 H 0.45888 0.56842 0.88314 0.0
H2787 H 0.46329 0.50992 0.89697 0.0
H2788 H 0.5123 0.50531 0.97916 0.0
H2789 H 0.4995 0.50763 0.94784 0.0
H2790 H 0.49928 0.56898 0.93424 0.0
C2791 C 0.45845 0.55621 0.87233 0.0
C2792 C 0.47119 0.52294 0.90484 0.0
C2793 C 0.45044 0.55613 0.8539 0.0
C2794 C 0.50949 0.519 0.97665 0.0
C2795 C 0.50191 0.52032 0.9585 0.0
C2796 C 0.49131 0.55596 0.92649 0.0
C2797 C 0.46535 0.54053 0.87691 0.0
C2798 C 0.47343 0.5401 0.89686 0.0
C2799 C 0.49777 0.53764 0.95409 0.0
C2800 C 0.48919 0.53871 0.93444 0.0
H2801 H 0.45583 0.51271 0.83303 0.0
H2802 H 0.46948 0.51274 0.86484 0.0
H2803 H 0.48577 0.57016 0.90263 0.0
H2804 H 0.51252 0.56509 0.9977 0.0
H2805 H 0.49893 0.56734 0.96636 0.0
C2806 C 0.81941 0.20958 0.1226 0.0
C2807 C 0.81844 0.21708 0.10556 0.0
C2808 C 0.81103 0.2161 0.13717 0.0
C2809 C 0.79114 0.25543 0.15428 0.0
H2810 H 0.77679 0.2194 0.18827 0.0
C2811 C 0.78103 0.28185 0.22899 0.0
C2812 C 0.79391 0.27744 0.24079 0.0
C2813 C 0.77627 0.2718 0.21075 0.0
C2814 C 0.78023 0.22944 0.17856 0.0
H2815 H 0.8087 0.23767 0.09038 0.0
H2816 H 0.79378 0.24876 0.1156 0.0
H2817 H 0.78446 0.20748 0.15763 0.0
H2818 H 0.81147 0.25882 0.24357 0.0
H2819 H 0.80342 0.2414 0.2113 0.0
H2820 H 0.78752 0.27742 0.17553 0.0
C2821 C 0.8012 0.23818 0.11799 0.0
C2822 C 0.78489 0.22275 0.16124 0.0
C2823 C 0.80996 0.23205 0.10366 0.0
C2824 C 0.80178 0.26265 0.23444 0.0
C2825 C 0.79686 0.25242 0.21627 0.0
C2826 C 0.78613 0.26204 0.17137 0.0
C2827 C 0.80123 0.22983 0.13464 0.0
C2828 C 0.79169 0.23592 0.14974 0.0
C2829 C 0.78422 0.25711 0.20429 0.0
C2830 C 0.78198 0.24926 0.18418 0.0
H2831 H 0.82573 0.19785 0.12417 0.0
H2832 H 0.81188 0.20997 0.15017 0.0
H2833 H 0.79614 0.26595 0.14568 0.0
H2834 H 0.77467 0.29308 0.23393 0.0
H2835 H 0.76669 0.27575 0.20154 0.0
C2836 C 0.1077 0.54587 0.37101 0.0
C2837 C 0.11688 0.53181 0.36556 0.0
C2838 C 0.10045 0.54644 0.3881 0.0
C2839 C 0.1011 0.52739 0.43545 0.0
H2840 H 0.06088 0.54711 0.43826 0.0
C2841 C 0.07296 0.53975 0.5077 0.0
C2842 C 0.05562 0.53769 0.50734 0.0
C2843 C 0.08049 0.53886 0.49075 0.0
C2844 C 0.07203 0.54135 0.43789 0.0
H2845 H 0.12537 0.5072 0.37449 0.0
H2846 H 0.11265 0.50794 0.40388 0.0
H2847 H 0.07317 0.54537 0.40885 0.0
H2848 H 0.03278 0.53273 0.48811 0.0
H2849 H 0.04563 0.53098 0.459 0.0
H2850 H 0.0997 0.52296 0.46441 0.0
C2851 C 0.1112 0.51886 0.3951 0.0
C2852 C 0.07933 0.54061 0.42084 0.0
C2853 C 0.11847 0.51831 0.37799 0.0
C2854 C 0.04615 0.53457 0.48928 0.0
C2855 C 0.05364 0.53368 0.47237 0.0
C2856 C 0.0938 0.52814 0.45253 0.0
C2857 C 0.10199 0.53295 0.40062 0.0
C2858 C 0.09407 0.53362 0.41914 0.0
C2859 C 0.07101 0.53588 0.47262 0.0
C2860 C 0.07905 0.53513 0.4542 0.0
H2861 H 0.10617 0.55665 0.36208 0.0
H2862 H 0.09383 0.55781 0.3916 0.0
H2863 H 0.11248 0.52208 0.43519 0.0
H2864 H 0.08083 0.54218 0.52116 0.0
H2865 H 0.09386 0.54086 0.49195 0.0
C2866 C 0.79364 0.89089 0.63285 0.0
C2867 C 0.80139 0.88285 0.6181 0.0
C2868 C 0.79102 0.88166 0.64872 0.0
C2869 C 0.80634 0.84752 0.67663 0.0
H2870 H 0.76253 0.83844 0.69268 0.0
C2871 C 0.7904 0.81563 0.74546 0.0
C2872 C 0.77674 0.80009 0.74242 0.0
C2873 C 0.79422 0.82647 0.7309 0.0
C2874 C 0.77484 0.84095 0.6884 0.0
H2875 H 0.81264 0.85886 0.60866 0.0
H2876 H 0.80833 0.84303 0.63645 0.0
H2877 H 0.76763 0.85621 0.66618 0.0
H2878 H 0.75631 0.78378 0.7218 0.0
H2879 H 0.76272 0.80286 0.69671 0.0
H2880 H 0.81352 0.83224 0.69891 0.0
C2881 C 0.80424 0.85643 0.6357 0.0
C2882 C 0.77778 0.8512 0.67331 0.0
C2883 C 0.8066 0.86547 0.61972 0.0
C2884 C 0.76698 0.79562 0.72459 0.0
C2885 C 0.77058 0.80661 0.71023 0.0
C2886 C 0.80347 0.83756 0.69196 0.0
C2887 C 0.79637 0.86437 0.65035 0.0
C2888 C 0.79351 0.8544 0.66708 0.0
C2889 C 0.78418 0.8222 0.71321 0.0
C2890 C 0.78763 0.83394 0.69784 0.0
H2891 H 0.78944 0.90422 0.63206 0.0
H2892 H 0.78497 0.88815 0.65982 0.0
H2893 H 0.81861 0.84986 0.67222 0.0
H2894 H 0.79794 0.81956 0.75913 0.0
H2895 H 0.80474 0.83848 0.73361 0.0
C2896 C 0.69747 0.41204 0.51667 0.0
C2897 C 0.70085 0.40027 0.53005 0.0
C2898 C 0.68527 0.42287 0.51898 0.0
C2899 C 0.66951 0.44682 0.55857 0.0
H2900 H 0.64103 0.46232 0.51978 0.0
C2901 C 0.63208 0.50575 0.57489 0.0
C2902 C 0.6319 0.51885 0.56192 0.0
C2903 C 0.6388 0.48949 0.57085 0.0
C2904 C 0.64902 0.45817 0.53072 0.0
H2905 H 0.69385 0.38925 0.55541 0.0
H2906 H 0.67225 0.40787 0.55932 0.0
H2907 H 0.65403 0.43492 0.51168 0.0
H2908 H 0.63914 0.52567 0.53497 0.0
H2909 H 0.65115 0.49737 0.52802 0.0
H2910 H 0.66503 0.47038 0.57746 0.0
C2911 C 0.679 0.40893 0.54718 0.0
C2912 C 0.65634 0.44246 0.52611 0.0
C2913 C 0.6912 0.3982 0.54488 0.0
C2914 C 0.63902 0.51571 0.54513 0.0
C2915 C 0.64575 0.49946 0.5411 0.0
C2916 C 0.66224 0.46252 0.56316 0.0
C2917 C 0.67649 0.42205 0.53478 0.0
C2918 C 0.66686 0.43685 0.53994 0.0
C2919 C 0.64546 0.48605 0.55377 0.0
C2920 C 0.65218 0.46857 0.5492 0.0
H2921 H 0.70506 0.41397 0.50532 0.0
H2922 H 0.68368 0.433 0.50931 0.0
H2923 H 0.67784 0.44306 0.56944 0.0
H2924 H 0.62637 0.50761 0.58777 0.0
H2925 H 0.63831 0.47932 0.58082 0.0
C2926 C 0.20068 0.13878 0.52211 0.0
C2927 C 0.2135 0.12849 0.52037 0.0
C2928 C 0.18455 0.12935 0.52376 0.0
C2929 C 0.15555 0.0829 0.51231 0.0
H2930 H 0.13297 0.1017 0.55346 0.0
C2931 C 0.09483 0.0377 0.52851 0.0
C2932 C 0.0825 0.04674 0.53539 0.0
C2933 C 0.11042 0.04837 0.52669 0.0
C2934 C 0.13891 0.09639 0.54168 0.0
H2935 H 0.21921 0.10008 0.51869 0.0
H2936 H 0.19081 0.08348 0.5209 0.0
H2937 H 0.16076 0.11876 0.5499 0.0
H2938 H 0.07716 0.07418 0.54628 0.0
H2939 H 0.10426 0.09313 0.54242 0.0
H2940 H 0.13373 0.06094 0.50359 0.0
C2941 C 0.19339 0.09893 0.5212 0.0
C2942 C 0.15492 0.10615 0.53972 0.0
C2943 C 0.20965 0.10843 0.51995 0.0
C2944 C 0.08626 0.06683 0.54065 0.0
C2945 C 0.10192 0.07764 0.53862 0.0
C2946 C 0.13949 0.07335 0.51405 0.0
C2947 C 0.1807 0.10933 0.52334 0.0
C2948 C 0.16351 0.09934 0.52515 0.0
C2949 C 0.11422 0.06854 0.53145 0.0
C2950 C 0.13098 0.07971 0.52896 0.0
H2951 H 0.20319 0.15426 0.52266 0.0
H2952 H 0.17504 0.13774 0.52526 0.0
H2953 H 0.16171 0.07751 0.50074 0.0
H2954 H 0.09247 0.02221 0.52453 0.0
H2955 H 0.11957 0.04063 0.52168 0.0
C2956 C 0.19824 0.9577 0.77016 0.0
C2957 C 0.19097 0.96402 0.78621 0.0
C2958 C 0.20545 0.9412 0.76915 0.0
C2959 C 0.2226 0.90798 0.79946 0.0
H2960 H 0.21949 0.87461 0.75158 0.0
C2961 C 0.26082 0.84649 0.79073 0.0
C2962 C 0.2538 0.82891 0.77876 0.0
C2963 C 0.25295 0.86245 0.7916 0.0
C2964 C 0.22048 0.88362 0.76517 0.0
H2965 H 0.18586 0.95724 0.81387 0.0
H2966 H 0.19845 0.92887 0.81226 0.0
H2967 H 0.20644 0.90258 0.75317 0.0
H2968 H 0.23255 0.81495 0.75821 0.0
H2969 H 0.21897 0.84262 0.75956 0.0
H2970 H 0.23662 0.88905 0.81148 0.0
C2971 C 0.19868 0.93671 0.80034 0.0
C2972 C 0.21306 0.89997 0.76606 0.0
C2973 C 0.1913 0.9531 0.80125 0.0
C2974 C 0.23851 0.82806 0.76763 0.0
C2975 C 0.23071 0.84414 0.76835 0.0
C2976 C 0.23019 0.89178 0.79853 0.0
C2977 C 0.20591 0.93031 0.78424 0.0
C2978 C 0.21391 0.91257 0.78324 0.0
C2979 C 0.23772 0.86173 0.78041 0.0
C2980 C 0.22933 0.87916 0.78137 0.0
H2981 H 0.19833 0.96551 0.7582 0.0
H2982 H 0.21093 0.93718 0.75653 0.0
H2983 H 0.22382 0.91714 0.81301 0.0
H2984 H 0.27252 0.84799 0.7996 0.0
H2985 H 0.25906 0.87555 0.80094 0.0
C2986 C 0.29937 0.88462 0.02068 0.0
C2987 C 0.28732 0.89183 0.01022 0.0
C2988 C 0.31571 0.89498 0.02458 0.0
C2989 C 0.33939 0.9447 0.02804 0.0
H2990 H 0.37758 0.92071 0.02847 0.0
C2991 C 0.40582 0.98465 0.02455 0.0
C2992 C 0.41895 0.97884 0.03459 0.0
C2993 C 0.3895 0.9752 0.02479 0.0
C2994 C 0.36701 0.92757 0.02874 0.0
H2995 H 0.28304 0.91462 0.99441 0.0
H2996 H 0.3117 0.93233 1.00057 0.0
H2997 H 0.3498 0.90068 0.02063 0.0
H2998 H 0.42537 0.95989 0.05409 0.0
H2999 H 0.39677 0.94329 0.05447 0.0
H3000 H 0.35668 0.97163 0.03562 0.0
C3001 C 0.30843 0.91909 1.00638 0.0
C3002 C 0.35111 0.91611 0.02419 0.0
C3003 C 0.29208 0.90886 1.00267 0.0
C3004 C 0.41544 0.96437 0.04594 0.0
C3005 C 0.39913 0.9549 0.04616 0.0
C3006 C 0.35529 0.95616 0.03248 0.0
C3007 C 0.32029 0.9126 0.0179 0.0
C3008 C 0.33716 0.92459 0.02348 0.0
C3009 C 0.38608 0.9598 0.03507 0.0
C3010 C 0.36923 0.94771 0.0326 0.0
H3011 H 0.29599 0.87158 0.02679 0.0
H3012 H 0.32455 0.88964 0.03355 0.0
H3013 H 0.32885 0.95162 0.02811 0.0
H3014 H 0.40821 0.99568 0.01559 0.0
H3015 H 0.37966 0.97916 0.016 0.0
C3016 C 0.87532 0.62595 0.79952 0.0
C3017 C 0.87273 0.61133 0.78362 0.0
C3018 C 0.86724 0.64175 0.79974 0.0
C3019 C 0.83171 0.65914 0.77354 0.0
H3020 H 0.85213 0.70823 0.80407 0.0
C3021 C 0.79512 0.72174 0.783 0.0
C3022 C 0.80353 0.74122 0.78645 0.0
C3023 C 0.80373 0.70646 0.7824 0.0
C3024 C 0.84617 0.69476 0.79525 0.0
H3025 H 0.85937 0.60254 0.75532 0.0
H3026 H 0.84572 0.62985 0.75548 0.0
H3027 H 0.86647 0.68149 0.80336 0.0
H3028 H 0.82816 0.75935 0.79178 0.0
H3029 H 0.84314 0.73293 0.79031 0.0
H3030 H 0.81165 0.67248 0.76498 0.0
C3031 C 0.85373 0.62908 0.76811 0.0
C3032 C 0.85441 0.67909 0.79506 0.0
C3033 C 0.86174 0.61326 0.76794 0.0
C3034 C 0.82106 0.7447 0.78909 0.0
C3035 C 0.82972 0.72935 0.7884 0.0
C3036 C 0.82351 0.67478 0.7737 0.0
C3037 C 0.85622 0.64375 0.78404 0.0
C3038 C 0.84738 0.66082 0.78423 0.0
C3039 C 0.82127 0.70979 0.78511 0.0
C3040 C 0.83046 0.69301 0.78462 0.0
H3041 H 0.88359 0.62516 0.81196 0.0
H3042 H 0.86953 0.65227 0.81249 0.0
H3043 H 0.82549 0.64554 0.76513 0.0
H3044 H 0.78169 0.71816 0.78104 0.0
H3045 H 0.79645 0.69192 0.78019 0.0
C3046 C 0.82125 0.63676 0.03126 0.0
C3047 C 0.80823 0.62931 0.04113 0.0
C3048 C 0.83673 0.63159 0.03408 0.0
C3049 C 0.86241 0.61009 0.06814 0.0
H3050 H 0.88815 0.60382 0.02634 0.0
C3051 C 0.91842 0.57208 0.0708 0.0
C3052 C 0.93219 0.57938 0.0619 0.0
C3053 C 0.90408 0.5798 0.06942 0.0
C3054 C 0.88124 0.60575 0.03825 0.0
H3055 H 0.80124 0.61018 0.06137 0.0
H3056 H 0.8279 0.60071 0.06579 0.0
H3057 H 0.86158 0.61342 0.02107 0.0
H3058 H 0.94179 0.60142 0.04543 0.0
H3059 H 0.91673 0.61464 0.04283 0.0
H3060 H 0.88197 0.60196 0.08517 0.0
C3061 C 0.82639 0.61097 0.05625 0.0
C3062 C 0.86595 0.61129 0.03523 0.0
C3063 C 0.81098 0.61625 0.05355 0.0
C3064 C 0.93136 0.59509 0.05212 0.0
C3065 C 0.91697 0.60271 0.05064 0.0
C3066 C 0.87764 0.60441 0.07111 0.0
C3067 C 0.8396 0.61872 0.04675 0.0
C3068 C 0.85621 0.6134 0.05009 0.0
C3069 C 0.90303 0.59497 0.059 0.0
C3070 C 0.88722 0.60203 0.05617 0.0
H3071 H 0.81963 0.647 0.02173 0.0
H3072 H 0.84658 0.63808 0.02664 0.0
H3073 H 0.85554 0.61198 0.08009 0.0
H3074 H 0.91842 0.55986 0.07824 0.0
H3075 H 0.89356 0.57334 0.0759 0.0
C3076 C 0.19002 0.09002 0.81821 0.0
C3077 C 0.19137 0.07383 0.80539 0.0
C3078 C 0.19921 0.10861 0.81743 0.0
C3079 C 0.22199 0.13854 0.78498 0.0
H3080 H 0.23978 0.17367 0.83142 0.0
C3081 C 0.25278 0.2203 0.78523 0.0
C3082 C 0.26674 0.22857 0.79874 0.0
C3083 C 0.24334 0.20167 0.78577 0.0
C3084 C 0.23502 0.16413 0.81822 0.0
H3085 H 0.20378 0.06514 0.7815 0.0
H3086 H 0.21966 0.09742 0.78005 0.0
H3087 H 0.22477 0.14123 0.83292 0.0
H3088 H 0.28145 0.22332 0.8235 0.0
H3089 H 0.26525 0.19135 0.82447 0.0
H3090 H 0.23234 0.1615 0.77028 0.0
C3091 C 0.21144 0.09572 0.79083 0.0
C3092 C 0.22618 0.1454 0.81909 0.0
C3093 C 0.20242 0.07704 0.7918 0.0
C3094 C 0.27078 0.21764 0.81287 0.0
C3095 C 0.26135 0.19917 0.81348 0.0
C3096 C 0.2307 0.15739 0.78409 0.0
C3097 C 0.20999 0.11194 0.80359 0.0
C3098 C 0.21952 0.13213 0.80251 0.0
C3099 C 0.24745 0.19069 0.79994 0.0
C3100 C 0.23751 0.17058 0.80071 0.0
H3101 H 0.18163 0.08839 0.82883 0.0
H3102 H 0.19748 0.12053 0.82745 0.0
H3103 H 0.217 0.12903 0.77181 0.0
H3104 H 0.24922 0.22815 0.7741 0.0
H3105 H 0.2327 0.19595 0.77514 0.0
C3106 C 0.38519 0.98703 0.29277 0.0
C3107 C 0.37817 1.0028 0.28883 0.0
C3108 C 0.37535 0.96856 0.29184 0.0
C3109 C 0.33266 0.94204 0.29437 0.0
H3110 H 0.3487 0.89778 0.27227 0.0
C3111 C 0.30514 0.86333 0.30569 0.0
C3112 C 0.30293 0.84836 0.29021 0.0
C3113 C 0.31334 0.88219 0.30447 0.0
C3114 C 0.34393 0.90992 0.27841 0.0
H3115 H 0.35486 1.01099 0.28089 0.0
H3116 H 0.33758 0.97872 0.27967 0.0
H3117 H 0.36443 0.93026 0.27186 0.0
H3118 H 0.30784 0.84194 0.26116 0.0
H3119 H 0.32237 0.87465 0.25918 0.0
H3120 H 0.31228 0.92165 0.30117 0.0
C3121 C 0.35086 0.9808 0.28342 0.0
C3122 C 0.35306 0.92864 0.27831 0.0
C3123 C 0.3608 0.99935 0.28407 0.0
C3124 C 0.30924 0.85296 0.27343 0.0
C3125 C 0.31768 0.87178 0.27231 0.0
C3126 C 0.32365 0.92329 0.29472 0.0
C3127 C 0.35801 0.96505 0.28717 0.0
C3128 C 0.34766 0.94505 0.2864 0.0
C3129 C 0.31986 0.88675 0.28782 0.0
C3130 C 0.32917 0.90688 0.28684 0.0
H3131 H 0.39847 0.98886 0.29643 0.0
H3132 H 0.38138 0.957 0.29507 0.0
H3133 H 0.32808 0.95421 0.30082 0.0
H3134 H 0.30048 0.86051 0.31885 0.0
H3135 H 0.31486 0.89316 0.31679 0.0
C3136 C 0.57326 0.35728 0.61953 0.0
C3137 C 0.56754 0.35373 0.63681 0.0
C3138 C 0.57015 0.37312 0.61133 0.0
C3139 C 0.56206 0.42141 0.62272 0.0
H3140 H 0.54671 0.41545 0.56893 0.0
C3141 C 0.5626 0.48647 0.58238 0.0
C3142 C 0.54811 0.48616 0.5702 0.0
C3143 C 0.56479 0.47009 0.59027 0.0
C3144 C 0.55095 0.41734 0.58397 0.0
H3145 H 0.55407 0.36406 0.65906 0.0
H3146 H 0.54894 0.39209 0.64487 0.0
H3147 H 0.55016 0.38718 0.58347 0.0
H3148 H 0.52476 0.46812 0.55638 0.0
H3149 H 0.52869 0.43962 0.56999 0.0
H3150 H 0.56295 0.45159 0.62321 0.0
C3151 C 0.55576 0.38248 0.63766 0.0
C3152 C 0.55301 0.40118 0.59227 0.0
C3153 C 0.55864 0.36642 0.64574 0.0
C3154 C 0.53609 0.46892 0.56568 0.0
C3155 C 0.53835 0.45253 0.57345 0.0
C3156 C 0.56019 0.43762 0.61437 0.0
C3157 C 0.56146 0.38596 0.62034 0.0
C3158 C 0.55863 0.40304 0.61172 0.0
C3159 C 0.55262 0.45299 0.58603 0.0
C3160 C 0.55465 0.43577 0.59489 0.0
H3161 H 0.58009 0.34775 0.61224 0.0
H3162 H 0.57482 0.3755 0.59807 0.0
H3163 H 0.56651 0.4233 0.63771 0.0
H3164 H 0.57212 0.49948 0.58618 0.0
H3165 H 0.57603 0.47082 0.59972 0.0
C3166 C 0.43812 0.76159 0.38014 0.0
C3167 C 0.45217 0.77196 0.37378 0.0
C3168 C 0.42208 0.76296 0.3728 0.0
C3169 C 0.40017 0.79458 0.34615 0.0
H3170 H 0.36262 0.75169 0.34029 0.0
C3171 C 0.33873 0.78992 0.29839 0.0
C3172 C 0.3238 0.78451 0.30587 0.0
C3173 C 0.35391 0.7894 0.30853 0.0
C3174 C 0.37296 0.76386 0.34208 0.0
H3175 H 0.46031 0.79124 0.35409 0.0
H3176 H 0.43258 0.79299 0.34078 0.0
H3177 H 0.39003 0.74785 0.35329 0.0
H3178 H 0.31295 0.77407 0.32974 0.0
H3179 H 0.33967 0.77262 0.34745 0.0
H3180 H 0.38316 0.81025 0.33414 0.0
C3181 C 0.4338 0.78432 0.35193 0.0
C3182 C 0.38872 0.7617 0.34956 0.0
C3183 C 0.44978 0.78313 0.35941 0.0
C3184 C 0.32432 0.77864 0.32383 0.0
C3185 C 0.33957 0.77764 0.33384 0.0
C3186 C 0.38451 0.79662 0.33842 0.0
C3187 C 0.41967 0.77461 0.35878 0.0
C3188 C 0.40264 0.77697 0.35149 0.0
C3189 C 0.35452 0.78295 0.32622 0.0
C3190 C 0.37076 0.78124 0.33612 0.0
H3191 H 0.4395 0.75297 0.39131 0.0
H3192 H 0.41162 0.75536 0.37862 0.0
H3193 H 0.41036 0.8069 0.34789 0.0
H3194 H 0.33866 0.79441 0.28452 0.0
H3195 H 0.36518 0.79344 0.30222 0.0
C3196 C 0.06139 0.75052 0.11663 0.0
C3197 C 0.053 0.7534 0.13254 0.0
C3198 C 0.05984 0.73203 0.10661 0.0
C3199 C 0.03382 0.68341 0.09774 0.0
H3200 H 0.07491 0.6656 0.09361 0.0
C3201 C 0.03412 0.60338 0.08702 0.0
C3202 C 0.0446 0.59633 0.07491 0.0
C3203 C 0.03556 0.62309 0.09219 0.0
C3204 C 0.06333 0.67041 0.09431 0.0
H3205 H 0.03573 0.7394 0.14979 0.0
H3206 H 0.03285 0.70725 0.13213 0.0
H3207 H 0.07578 0.69957 0.10468 0.0
H3208 H 0.06515 0.60426 0.05905 0.0
H3209 H 0.06745 0.63901 0.06773 0.0
H3210 H 0.0213 0.65442 0.08749 0.0
C3211 C 0.04069 0.71924 0.12749 0.0
C3212 C 0.06384 0.68985 0.10065 0.0
C3213 C 0.04241 0.73763 0.13765 0.0
C3214 C 0.05693 0.60937 0.06845 0.0
C3215 C 0.05824 0.62923 0.07343 0.0
C3216 C 0.0333 0.66408 0.09123 0.0
C3217 C 0.04966 0.71621 0.11215 0.0
C3218 C 0.04909 0.69638 0.10288 0.0
C3219 C 0.04735 0.63628 0.08511 0.0
C3220 C 0.04805 0.65723 0.08998 0.0
H3221 H 0.06966 0.76241 0.11238 0.0
H3222 H 0.0668 0.73004 0.09475 0.0
H3223 H 0.02228 0.68817 0.0991 0.0
H3224 H 0.02471 0.59363 0.09251 0.0
H3225 H 0.02736 0.62799 0.10172 0.0
C3226 C 0.05859 0.28316 0.88998 0.0
C3227 C 0.04685 0.26621 0.88247 0.0
C3228 C 0.07434 0.28668 0.88381 0.0
C3229 C 0.09725 0.27022 0.84434 0.0
H3230 H 0.13668 0.29405 0.87954 0.0
C3231 C 0.16245 0.26449 0.82668 0.0
C3232 C 0.17491 0.28135 0.82995 0.0
C3233 C 0.14723 0.26422 0.83361 0.0
C3234 C 0.12576 0.28754 0.86951 0.0
H3235 H 0.04268 0.23958 0.86275 0.0
H3236 H 0.06994 0.2454 0.85243 0.0
H3237 H 0.10932 0.2907 0.89051 0.0
H3238 H 0.18113 0.31112 0.84354 0.0
H3239 H 0.15441 0.31058 0.85589 0.0
H3240 H 0.11367 0.26655 0.82353 0.0
C3241 C 0.06698 0.25633 0.86268 0.0
C3242 C 0.11004 0.28566 0.87577 0.0
C3243 C 0.05128 0.25291 0.86871 0.0
C3244 C 0.17178 0.29792 0.84066 0.0
C3245 C 0.15653 0.29758 0.84784 0.0
C3246 C 0.1129 0.2719 0.83819 0.0
C3247 C 0.07878 0.27329 0.87004 0.0
C3248 C 0.09555 0.27667 0.86332 0.0
C3249 C 0.14399 0.28076 0.84416 0.0
C3250 C 0.12737 0.28032 0.85072 0.0
H3251 H 0.05563 0.2937 0.90065 0.0
H3252 H 0.08298 0.29998 0.88973 0.0
H3253 H 0.08646 0.26375 0.83413 0.0
H3254 H 0.16432 0.25151 0.81835 0.0
H3255 H 0.13792 0.25098 0.83068 0.0
C3256 C 0.55365 0.77191 0.9914 0.0
C3257 C 0.54528 0.7839 0.98196 0.0
C3258 C 0.54623 0.75264 0.99078 0.0
C3259 C 0.50799 0.7197 0.98822 0.0
H3260 H 0.53412 0.68159 0.97468 0.0
C3261 C 0.51215 0.65682 0.0266 0.0
C3262 C 0.5144 0.63929 0.01702 0.0
C3263 C 0.51028 0.6719 0.01672 0.0
C3264 C 0.52641 0.6919 0.978 0.0
H3265 H 0.52258 0.7856 0.96496 0.0
H3266 H 0.50913 0.75199 0.96497 0.0
H3267 H 0.54279 0.71437 0.96812 0.0
H3268 H 0.51521 0.62339 0.98929 0.0
H3269 H 0.5126 0.65023 0.97208 0.0
H3270 H 0.49233 0.69766 0.99946 0.0
C3271 C 0.5215 0.75747 0.97248 0.0
C3272 C 0.53147 0.71065 0.97442 0.0
C3273 C 0.52907 0.77666 0.97274 0.0
C3274 C 0.51383 0.63685 0.99714 0.0
C3275 C 0.51218 0.65209 0.98725 0.0
C3276 C 0.50302 0.701 0.992 0.0
C3277 C 0.53025 0.74524 0.98103 0.0
C3278 C 0.52274 0.72484 0.9804 0.0
C3279 C 0.5108 0.66988 0.99707 0.0
C3280 C 0.5127 0.68725 0.98782 0.0
H3281 H 0.56636 0.77703 0.99805 0.0
H3282 H 0.55308 0.74341 0.99766 0.0
H3283 H 0.50107 0.73049 0.99283 0.0
H3284 H 0.51282 0.65936 0.04191 0.0
H3285 H 0.50962 0.6856 0.02471 0.0
C3286 C 0.0578 0.77436 0.68243 0.0
C3287 C 0.04971 0.76822 0.66386 0.0
C3288 C 0.07478 0.77533 0.68637 0.0
C3289 C 0.10651 0.75172 0.66861 0.0
H3290 H 0.13574 0.78893 0.70768 0.0
C3291 C 0.16437 0.73506 0.70847 0.0
C3292 C 0.17868 0.74974 0.71281 0.0
C3293 C 0.14951 0.73891 0.70056 0.0
C3294 C 0.12781 0.77856 0.69655 0.0
H3295 H 0.05321 0.75957 0.63462 0.0
H3296 H 0.08296 0.76134 0.64155 0.0
H3297 H 0.10855 0.79468 0.69661 0.0
H3298 H 0.18863 0.78 0.71243 0.0
H3299 H 0.16277 0.78658 0.69815 0.0
H3300 H 0.12569 0.73554 0.66862 0.0
C3301 C 0.07609 0.76512 0.65307 0.0
C3302 C 0.11222 0.78178 0.69033 0.0
C3303 C 0.05909 0.7642 0.64911 0.0
C3304 C 0.17786 0.76831 0.70896 0.0
C3305 C 0.16302 0.77214 0.701 0.0
C3306 C 0.1221 0.74852 0.6748 0.0
C3307 C 0.08399 0.77017 0.67182 0.0
C3308 C 0.1013 0.76821 0.67657 0.0
C3309 C 0.14869 0.75751 0.6968 0.0
C3310 C 0.13276 0.76171 0.68909 0.0
H3311 H 0.05093 0.77771 0.69408 0.0
H3312 H 0.08051 0.77912 0.70099 0.0
H3313 H 0.09828 0.74088 0.65814 0.0
H3314 H 0.16466 0.72059 0.71118 0.0
H3315 H 0.13859 0.7274 0.69772 0.0
C3316 C 0.06613 0.38777 0.45984 0.0
C3317 C 0.07422 0.37822 0.47259 0.0
C3318 C 0.06003 0.40378 0.46665 0.0
C3319 C 0.04777 0.42111 0.51333 0.0
H3320 H 0.02423 0.45043 0.48269 0.0
C3321 C 0.01476 0.47053 0.55189 0.0
C3322 C 0.0185 0.4888 0.54655 0.0
C3323 C 0.01476 0.45425 0.53882 0.0
C3324 C 0.03082 0.44258 0.49167 0.0
H3325 H 0.08613 0.38034 0.50123 0.0
H3326 H 0.07775 0.41008 0.51269 0.0
H3327 H 0.04479 0.43502 0.46961 0.0
H3328 H 0.02255 0.50416 0.52301 0.0
H3329 H 0.02342 0.47698 0.50085 0.0
H3330 H 0.03547 0.43045 0.5361 0.0
C3331 C 0.0742 0.40397 0.49789 0.0
C3332 C 0.04259 0.43338 0.48397 0.0
C3333 C 0.07947 0.38725 0.49129 0.0
C3334 C 0.0196 0.49035 0.5275 0.0
C3335 C 0.02015 0.47435 0.51463 0.0
C3336 C 0.03669 0.43108 0.52131 0.0
C3337 C 0.06268 0.41095 0.48619 0.0
C3338 C 0.05136 0.42256 0.49473 0.0
C3339 C 0.01958 0.45638 0.52073 0.0
C3340 C 0.02822 0.44231 0.51077 0.0
H3341 H 0.06214 0.3812 0.4452 0.0
H3342 H 0.0517 0.4088 0.45682 0.0
H3343 H 0.05343 0.41223 0.52199 0.0
H3344 H 0.01369 0.46899 0.56658 0.0
H3345 H 0.01297 0.44042 0.5437 0.0
C3346 C 0.45301 0.2552 0.18872 0.0
C3347 C 0.46543 0.24654 0.19637 0.0
C3348 C 0.43747 0.25212 0.19491 0.0
C3349 C 0.41869 0.24229 0.23674 0.0
H3350 H 0.37942 0.24566 0.20405 0.0
C3351 C 0.36677 0.27268 0.26734 0.0
C3352 C 0.36483 0.2891 0.25924 0.0
C3353 C 0.37455 0.25912 0.25826 0.0
C3354 C 0.39017 0.24429 0.21331 0.0
H3355 H 0.47132 0.22743 0.21603 0.0
H3356 H 0.44408 0.22213 0.2269 0.0
H3357 H 0.40287 0.23617 0.19001 0.0
H3358 H 0.36877 0.30389 0.23506 0.0
H3359 H 0.38265 0.2804 0.21931 0.0
H3360 H 0.40651 0.25169 0.25996 0.0
C3361 C 0.44641 0.23136 0.21622 0.0
C3362 C 0.40357 0.23896 0.20532 0.0
C3363 C 0.46202 0.23454 0.21012 0.0
C3364 C 0.37016 0.29137 0.24158 0.0
C3365 C 0.37789 0.27781 0.23249 0.0
C3366 C 0.40526 0.24749 0.24472 0.0
C3367 C 0.43404 0.24023 0.20875 0.0
C3368 C 0.41834 0.23928 0.21694 0.0
C3369 C 0.3804 0.26176 0.24091 0.0
C3370 C 0.3914 0.24981 0.23299 0.0
H3371 H 0.4553 0.26445 0.17805 0.0
H3372 H 0.42833 0.2596 0.18927 0.0
H3373 H 0.42991 0.24262 0.24606 0.0
H3374 H 0.36231 0.27034 0.28072 0.0
H3375 H 0.37635 0.24685 0.26498 0.0
C3376 C 0.61121 0.53907 0.36762 0.0
C3377 C 0.62329 0.52805 0.36395 0.0
C3378 C 0.60404 0.53961 0.3848 0.0
C3379 C 0.60018 0.51533 0.42947 0.0
H3380 H 0.58225 0.55969 0.4468 0.0
C3381 C 0.57372 0.5248 0.50363 0.0
C3382 C 0.55919 0.53237 0.50406 0.0
C3383 C 0.58253 0.52486 0.48753 0.0
C3384 C 0.58704 0.54703 0.44225 0.0
H3385 H 0.63713 0.50892 0.37628 0.0
H3386 H 0.62516 0.5102 0.40612 0.0
H3387 H 0.59503 0.55846 0.41773 0.0
H3388 H 0.54276 0.5458 0.48744 0.0
H3389 H 0.55807 0.5465 0.46012 0.0
H3390 H 0.59233 0.50416 0.45439 0.0
C3391 C 0.6208 0.51822 0.39558 0.0
C3392 C 0.59442 0.54624 0.42523 0.0
C3393 C 0.62786 0.51755 0.37829 0.0
C3394 C 0.55408 0.54029 0.488 0.0
C3395 C 0.56294 0.54062 0.47214 0.0
C3396 C 0.59292 0.51622 0.44664 0.0
C3397 C 0.6087 0.52933 0.39937 0.0
C3398 C 0.60106 0.53028 0.41819 0.0
C3399 C 0.57722 0.53262 0.47129 0.0
C3400 C 0.586 0.53202 0.45337 0.0
H3401 H 0.60715 0.54732 0.3571 0.0
H3402 H 0.5946 0.54805 0.38642 0.0
H3403 H 0.60477 0.50255 0.4249 0.0
H3404 H 0.57786 0.51804 0.51536 0.0
H3405 H 0.59345 0.51862 0.48777 0.0
C3406 C 0.24499 0.85562 0.08081 0.0
C3407 C 0.2465 0.8508 0.06163 0.0
C3408 C 0.25725 0.85326 0.09469 0.0
C3409 C 0.29545 0.83223 0.1007 0.0
H3410 H 0.29943 0.86212 0.15054 0.0
C3411 C 0.31226 0.80306 0.1657 0.0
C3412 C 0.31383 0.81478 0.18328 0.0
C3413 C 0.31275 0.8113 0.14919 0.0
C3414 C 0.29905 0.85406 0.13659 0.0
H3415 H 0.2619 0.84042 0.04162 0.0
H3416 H 0.28369 0.83772 0.06535 0.0
H3417 H 0.28115 0.86858 0.12504 0.0
H3418 H 0.3208 0.84409 0.19799 0.0
H3419 H 0.32251 0.85862 0.16913 0.0
H3420 H 0.31415 0.81859 0.11197 0.0
C3421 C 0.27279 0.84203 0.07016 0.0
C3422 C 0.28802 0.85737 0.12199 0.0
C3423 C 0.26023 0.84353 0.05644 0.0
C3424 C 0.31908 0.83479 0.18444 0.0
C3425 C 0.31987 0.84307 0.16789 0.0
C3426 C 0.30698 0.82951 0.11508 0.0
C3427 C 0.27162 0.84703 0.08953 0.0
C3428 C 0.28529 0.84568 0.10416 0.0
C3429 C 0.315 0.83142 0.15007 0.0
C3430 C 0.30803 0.83934 0.13358 0.0
H3431 H 0.23464 0.86169 0.085 0.0
H3432 H 0.25552 0.8567 0.1094 0.0
H3433 H 0.29397 0.8229 0.08726 0.0
H3434 H 0.30837 0.78757 0.16441 0.0
H3435 H 0.30916 0.80164 0.13588 0.0
C3436 C 0.94403 0.55785 0.87311 0.0
C3437 C 0.95102 0.55303 0.85642 0.0
C3438 C 0.95199 0.55664 0.8912 0.0
C3439 C 0.9927 0.56049 0.91843 0.0
H3440 H 0.97096 0.52841 0.95191 0.0
C3441 C 0.03029 0.54879 0.98764 0.0
C3442 C 0.02253 0.54297 1.00317 0.0
C3443 C 0.02112 0.55021 0.97044 0.0
C3444 C 0.9773 0.53779 0.94309 0.0
H3445 H 0.9722 0.5434 0.8461 0.0
H3446 H 0.98646 0.54236 0.87757 0.0
H3447 H 0.95607 0.53098 0.92144 0.0
H3448 H 0.99849 0.53326 0.01178 0.0
H3449 H 0.98238 0.53698 0.98258 0.0
H3450 H 0.01354 0.56833 0.93999 0.0
C3451 C 0.97459 0.54668 0.87662 0.0
C3452 C 0.96866 0.53913 0.92538 0.0
C3453 C 0.96639 0.54728 0.85851 0.0
C3454 C 1.00506 0.5385 1.00068 0.0
C3455 C 0.99576 0.54026 0.98348 0.0
C3456 C 1.00118 0.55959 0.93627 0.0
C3457 C 0.96747 0.55114 0.89328 0.0
C3458 C 0.97631 0.55028 0.91263 0.0
C3459 C 1.00359 0.54619 0.96786 0.0
C3460 C 0.99386 0.54792 0.94898 0.0
H3461 H 0.93217 0.56217 0.87216 0.0
H3462 H 0.94611 0.56026 0.90363 0.0
H3463 H 0.99897 0.56946 0.90919 0.0
H3464 H 0.04369 0.5521 0.98862 0.0
H3465 H 0.02806 0.55415 0.95906 0.0
C3466 C 0.2665 0.21517 0.57778 0.0
C3467 C 0.27338 0.19867 0.57498 0.0
C3468 C 0.26781 0.2257 0.59595 0.0
C3469 C 0.29169 0.23536 0.64342 0.0
H3470 H 0.25067 0.24297 0.66202 0.0
C3471 C 0.28862 0.25262 0.72301 0.0
C3472 C 0.27816 0.26462 0.72958 0.0
C3473 C 0.28808 0.24642 0.70366 0.0
C3474 C 0.2623 0.24134 0.65702 0.0
H3475 H 0.28765 0.18081 0.58893 0.0
H3476 H 0.29021 0.19939 0.62047 0.0
H3477 H 0.25039 0.2298 0.62879 0.0
H3478 H 0.25887 0.27951 0.72105 0.0
H3479 H 0.25835 0.26928 0.687 0.0
H3480 H 0.30373 0.24701 0.67138 0.0
C3481 C 0.28372 0.20411 0.60865 0.0
C3482 C 0.26212 0.23374 0.63796 0.0
C3483 C 0.2822 0.19343 0.59058 0.0
C3484 C 0.26704 0.27021 0.71636 0.0
C3485 C 0.26672 0.26427 0.69686 0.0
C3486 C 0.29194 0.24321 0.66235 0.0
C3487 C 0.27628 0.22012 0.61159 0.0
C3488 C 0.27676 0.23027 0.63111 0.0
C3489 C 0.27732 0.25235 0.69025 0.0
C3490 C 0.27718 0.24583 0.66958 0.0
H3491 H 0.25957 0.21955 0.56607 0.0
H3492 H 0.26206 0.23807 0.59783 0.0
H3493 H 0.3032 0.23309 0.63844 0.0
H3494 H 0.29712 0.24777 0.73287 0.0
H3495 H 0.29605 0.23675 0.69928 0.0
C3496 C 0.63485 0.50982 0.23675 0.0
C3497 C 0.62715 0.51088 0.25348 0.0
C3498 C 0.62632 0.51082 0.21896 0.0
C3499 C 0.58442 0.50404 0.19104 0.0
H3500 H 0.60721 0.53771 0.1595 0.0
C3501 C 0.55894 0.50587 0.11115 0.0
C3502 C 0.56003 0.52412 0.10531 0.0
C3503 C 0.56651 0.50382 0.12918 0.0
C3504 C 0.60057 0.52823 0.16805 0.0
H3505 H 0.60386 0.51337 0.26389 0.0
H3506 H 0.58881 0.5144 0.23277 0.0
H3507 H 0.6211 0.5347 0.19039 0.0
H3508 H 0.57032 0.5545 0.11442 0.0
H3509 H 0.58374 0.5509 0.14535 0.0
H3510 H 0.56398 0.49733 0.16845 0.0
C3511 C 0.60165 0.513 0.23355 0.0
C3512 C 0.60864 0.52639 0.18585 0.0
C3513 C 0.61033 0.51243 0.2515 0.0
C3514 C 0.56909 0.54018 0.1182 0.0
C3515 C 0.57691 0.5381 0.13604 0.0
C3516 C 0.57647 0.50556 0.17301 0.0
C3517 C 0.60957 0.51255 0.21696 0.0
C3518 C 0.60072 0.51435 0.19778 0.0
C3519 C 0.57577 0.51989 0.14196 0.0
C3520 C 0.58435 0.5178 0.16119 0.0
H3521 H 0.64776 0.50875 0.23742 0.0
H3522 H 0.63291 0.51022 0.20666 0.0
H3523 H 0.57785 0.49452 0.19962 0.0
H3524 H 0.55212 0.4931 0.10181 0.0
H3525 H 0.56536 0.48952 0.13298 0.0
C3526 C 0.22612 0.82619 0.94626 0.0
C3527 C 0.23049 0.84438 0.95738 0.0
C3528 C 0.23319 0.82267 0.92965 0.0
C3529 C 0.2618 0.84543 0.898 0.0
H3530 H 0.2709 0.794 0.89099 0.0
C3531 C 0.26796 0.80622 0.82808 0.0
C3532 C 0.27586 0.7906 0.82646 0.0
C3533 C 0.26905 0.81772 0.84542 0.0
C3534 C 0.269 0.80864 0.89311 0.0
H3535 H 0.24418 0.87369 0.95921 0.0
H3536 H 0.25711 0.86744 0.93089 0.0
H3537 H 0.25653 0.8038 0.91714 0.0
H3538 H 0.29238 0.77553 0.84088 0.0
H3539 H 0.29382 0.7954 0.87197 0.0
H3540 H 0.27468 0.8503 0.87413 0.0
C3541 C 0.24801 0.8559 0.93445 0.0
C3542 C 0.26024 0.81408 0.90777 0.0
C3543 C 0.24047 0.85956 0.95067 0.0
C3544 C 0.28612 0.78752 0.84202 0.0
C3545 C 0.28693 0.79886 0.85968 0.0
C3546 C 0.27091 0.84012 0.8836 0.0
C3547 C 0.24521 0.83713 0.92441 0.0
C3548 C 0.2558 0.83218 0.90979 0.0
C3549 C 0.27771 0.81348 0.86165 0.0
C3550 C 0.27376 0.82131 0.88035 0.0
H3551 H 0.2184 0.81433 0.95123 0.0
H3552 H 0.2301 0.80826 0.92169 0.0
H3553 H 0.25883 0.85957 0.89923 0.0
H3554 H 0.26 0.80885 0.81621 0.0
H3555 H 0.26164 0.82866 0.84634 0.0
C3556 C 0.93075 0.56247 0.73005 0.0
C3557 C 0.939 0.56252 0.74829 0.0
C3558 C 0.93887 0.56071 0.71366 0.0
C3559 C 0.98096 0.56594 0.69672 0.0
H3560 H 0.95668 0.53427 0.65084 0.0
C3561 C 0.01401 0.54988 0.62909 0.0
C3562 C 1.00484 0.54627 0.61084 0.0
C3563 C 1.00622 0.55187 0.64573 0.0
C3564 C 0.96373 0.54348 0.66331 0.0
H3565 H 0.96273 0.56099 0.76308 0.0
H3566 H 0.97691 0.55836 0.73472 0.0
H3567 H 0.94312 0.53808 0.67929 0.0
H3568 H 0.9799 0.54217 0.59632 0.0
H3569 H 0.96647 0.54605 0.62491 0.0
H3570 H 1.00148 0.57168 0.68075 0.0
C3571 C 0.96405 0.55963 0.73305 0.0
C3572 C 0.95585 0.54562 0.67985 0.0
C3573 C 0.95584 0.56111 0.74945 0.0
C3574 C 0.98753 0.54482 0.60996 0.0
C3575 C 0.97974 0.54693 0.62659 0.0
C3576 C 0.98881 0.56397 0.68011 0.0
C3577 C 0.95568 0.55917 0.71475 0.0
C3578 C 0.96427 0.55689 0.69695 0.0
C3579 C 0.98887 0.55048 0.64493 0.0
C3580 C 0.9804 0.55266 0.66295 0.0
H3581 H 0.9178 0.56342 0.7283 0.0
H3582 H 0.9319 0.56068 0.70004 0.0
H3583 H 0.98795 0.57495 0.70935 0.0
H3584 H 0.02733 0.55107 0.6306 0.0
H3585 H 0.01392 0.55424 0.65928 0.0
C3586 C 0.26514 0.18782 0.4539 0.0
C3587 C 0.26079 0.19787 0.47022 0.0
C3588 C 0.26629 0.19617 0.43727 0.0
C3589 C 0.27523 0.2424 0.4206 0.0
H3590 H 0.24842 0.21798 0.37309 0.0
C3591 C 0.27187 0.28469 0.35838 0.0
C3592 C 0.27125 0.2751 0.33991 0.0
C3593 C 0.26935 0.27438 0.37346 0.0
C3594 C 0.2562 0.22492 0.38613 0.0
H3595 H 0.25463 0.22468 0.48201 0.0
H3596 H 0.25728 0.23946 0.45332 0.0
H3597 H 0.24763 0.20131 0.40083 0.0
H3598 H 0.26728 0.24717 0.32256 0.0
H3599 H 0.26327 0.22896 0.34896 0.0
H3600 H 0.28432 0.26567 0.40615 0.0
C3601 C 0.2595 0.22502 0.45327 0.0
C3602 C 0.2557 0.21535 0.40203 0.0
C3603 C 0.25795 0.21653 0.46967 0.0
C3604 C 0.26741 0.2549 0.33662 0.0
C3605 C 0.26522 0.24449 0.35183 0.0
C3606 C 0.27598 0.2518 0.4047 0.0
C3607 C 0.26355 0.21491 0.43685 0.0
C3608 C 0.265 0.22416 0.4195 0.0
C3609 C 0.26665 0.25413 0.3706 0.0
C3610 C 0.26622 0.24343 0.38728 0.0
H3611 H 0.26733 0.17338 0.45388 0.0
H3612 H 0.26951 0.1881 0.42483 0.0
H3613 H 0.28271 0.24941 0.43383 0.0
H3614 H 0.27487 0.30028 0.36129 0.0
H3615 H 0.26998 0.28242 0.38748 0.0
C3616 C 0.35896 0.65725 0.53541 0.0
C3617 C 0.34661 0.64851 0.54545 0.0
C3618 C 0.3721 0.64845 0.5315 0.0
C3619 C 0.38338 0.602 0.52506 0.0
H3620 H 0.42865 0.62879 0.54351 0.0
C3621 C 0.44093 0.57232 0.54955 0.0
C3622 C 0.44563 0.56358 0.53282 0.0
C3623 C 0.43094 0.58582 0.54874 0.0
C3624 C 0.41607 0.62138 0.53803 0.0
H3625 H 0.33818 0.62379 0.5592 0.0
H3626 H 0.3611 0.60832 0.55213 0.0
H3627 H 0.40584 0.64612 0.5461 0.0
H3628 H 0.44446 0.56282 0.50233 0.0
H3629 H 0.42619 0.58591 0.50092 0.0
H3630 H 0.39351 0.57717 0.51747 0.0
C3631 C 0.36054 0.62193 0.5473 0.0
C3632 C 0.40313 0.63119 0.53947 0.0
C3633 C 0.34751 0.6308 0.55139 0.0
C3634 C 0.44064 0.56901 0.51536 0.0
C3635 C 0.43047 0.58235 0.51454 0.0
C3636 C 0.3963 0.59233 0.52332 0.0
C3637 C 0.37289 0.63071 0.53737 0.0
C3638 C 0.38669 0.62135 0.53348 0.0
C3639 C 0.42546 0.59059 0.53121 0.0
C3640 C 0.4126 0.60187 0.5302 0.0
H3641 H 0.35856 0.67096 0.53072 0.0
H3642 H 0.38156 0.65537 0.5238 0.0
H3643 H 0.37075 0.59424 0.52033 0.0
H3644 H 0.44456 0.5683 0.56316 0.0
H3645 H 0.42685 0.59187 0.56166 0.0
C3646 C 0.86092 0.96141 0.56825 0.0
C3647 C 0.85709 0.94122 0.56668 0.0
C3648 C 0.87694 0.97113 0.56621 0.0
C3649 C 0.92086 0.9651 0.56794 0.0
H3650 H 0.92628 1.00862 0.54056 0.0
C3651 C 0.98544 1.00282 0.55052 0.0
C3652 C 0.98871 0.02304 0.55336 0.0
C3653 C 0.96941 0.99223 0.55136 0.0
C3654 C 0.92502 0.99658 0.54839 0.0
H3655 H 0.86735 0.91553 0.56186 0.0
H3656 H 0.895 0.93236 0.55831 0.0
H3657 H 0.89847 0.99188 0.54414 0.0
H3658 H 0.97761 0.04794 0.5589 0.0
H3659 H 0.94992 0.02968 0.56022 0.0
H3660 H 0.94744 0.96986 0.57221 0.0
C3661 C 0.88573 0.94077 0.56126 0.0
C3662 C 0.90903 0.987 0.55049 0.0
C3663 C 0.86976 0.93108 0.56318 0.0
C3664 C 0.97556 0.03237 0.55667 0.0
C3665 C 0.9596 0.02187 0.55731 0.0
C3666 C 0.93686 0.97468 0.56582 0.0
C3667 C 0.88959 0.96094 0.56269 0.0
C3668 C 0.90669 0.97117 0.5604 0.0
C3669 C 0.95626 1.00164 0.55478 0.0
C3670 C 0.93919 0.99066 0.55613 0.0
H3671 H 0.85151 0.9697 0.57091 0.0
H3672 H 0.87945 0.98668 0.5676 0.0
H3673 H 0.91961 0.95313 0.57587 0.0
H3674 H 0.99524 0.99521 0.54788 0.0
H3675 H 0.9673 0.97666 0.54918 0.0
C3676 C 0.87377 0.10743 0.28587 0.0
C3677 C 0.87159 0.09488 0.26849 0.0
C3678 C 0.86653 0.12392 0.28783 0.0
C3679 C 0.83509 0.14822 0.26189 0.0
H3680 H 0.85279 0.19059 0.30246 0.0
C3681 C 0.80112 0.21306 0.27419 0.0
C3682 C 0.8096 0.23131 0.28383 0.0
C3683 C 0.80877 0.19695 0.27258 0.0
C3684 C 0.84763 0.17914 0.29081 0.0
H3685 H 0.86006 0.09066 0.2394 0.0
H3686 H 0.84819 0.11928 0.2424 0.0
H3687 H 0.86582 0.16297 0.2989 0.0
H3688 H 0.83334 0.24638 0.29916 0.0
H3689 H 0.84684 0.21881 0.29583 0.0
H3690 H 0.81746 0.1647 0.25317 0.0
C3691 C 0.85498 0.11629 0.25496 0.0
C3692 C 0.85508 0.1628 0.28892 0.0
C3693 C 0.86201 0.09968 0.25311 0.0
C3694 C 0.8262 0.2327 0.2917 0.0
C3695 C 0.83398 0.2166 0.28985 0.0
C3696 C 0.82779 0.16463 0.26362 0.0
C3697 C 0.85692 0.12888 0.27241 0.0
C3698 C 0.84899 0.14679 0.27444 0.0
C3699 C 0.82547 0.1982 0.28025 0.0
C3700 C 0.83374 0.18055 0.27821 0.0
H3701 H 0.88097 0.1044 0.29816 0.0
H3702 H 0.86836 0.13259 0.30169 0.0
H3703 H 0.8295 0.13652 0.25064 0.0
H3704 H 0.78832 0.21107 0.26799 0.0
H3705 H 0.80127 0.18337 0.26547 0.0
C3706 C 0.75184 0.17716 0.05551 0.0
C3707 C 0.76144 0.16695 0.04466 0.0
C3708 C 0.73521 0.16919 0.05616 0.0
C3709 C 0.70794 0.12122 0.04942 0.0
H3710 H 0.67406 0.15035 0.0599 0.0
C3711 C 0.64189 0.08467 0.05813 0.0
C3712 C 0.63578 0.09198 0.07454 0.0
C3713 C 0.65625 0.09472 0.05252 0.0
C3714 C 0.68345 0.1421 0.057 0.0
H3715 H 0.76103 0.14145 0.0246 0.0
H3716 H 0.73173 0.12794 0.02488 0.0
H3717 H 0.70058 0.16672 0.05182 0.0
H3718 H 0.63978 0.11564 0.09783 0.0
H3719 H 0.66496 0.13333 0.08789 0.0
H3720 H 0.69082 0.09664 0.05455 0.0
C3721 C 0.73717 0.14165 0.0336 0.0
C3722 C 0.69862 0.15143 0.05241 0.0
C3723 C 0.75389 0.14941 0.03331 0.0
C3724 C 0.64415 0.10975 0.08504 0.0
C3725 C 0.6585 0.11987 0.07935 0.0
C3726 C 0.69276 0.1119 0.05376 0.0
C3727 C 0.72782 0.15105 0.04566 0.0
C3728 C 0.71111 0.14111 0.04876 0.0
C3729 C 0.66472 0.11233 0.06314 0.0
C3730 C 0.68046 0.12228 0.05777 0.0
H3731 H 0.75744 0.19072 0.06444 0.0
H3732 H 0.72847 0.17677 0.06573 0.0
H3733 H 0.71739 0.11287 0.04723 0.0
H3734 H 0.6355 0.07122 0.04951 0.0
H3735 H 0.66073 0.08874 0.03984 0.0
C3736 C 0.18644 0.45592 0.31182 0.0
C3737 C 0.18634 0.46638 0.29642 0.0
C3738 C 0.19376 0.43953 0.31152 0.0
C3739 C 0.20734 0.40138 0.27861 0.0
H3740 H 0.23269 0.39298 0.32405 0.0
C3741 C 0.23283 0.32985 0.28364 0.0
C3742 C 0.24912 0.33186 0.29283 0.0
C3743 C 0.22478 0.34572 0.28404 0.0
C3744 C 0.22568 0.39499 0.31115 0.0
H3745 H 0.19405 0.46712 0.26848 0.0
H3746 H 0.20643 0.43864 0.26783 0.0
H3747 H 0.21988 0.42111 0.32474 0.0
H3748 H 0.26931 0.35273 0.31003 0.0
H3749 H 0.25532 0.37982 0.31112 0.0
H3750 H 0.21308 0.37516 0.26507 0.0
C3751 C 0.20086 0.44309 0.28025 0.0
C3752 C 0.21816 0.41121 0.31159 0.0
C3753 C 0.19378 0.45964 0.28068 0.0
C3754 C 0.25683 0.35032 0.30272 0.0
C3755 C 0.2487 0.36602 0.30343 0.0
C3756 C 0.21462 0.38496 0.27826 0.0
C3757 C 0.20108 0.43266 0.29569 0.0
C3758 C 0.2089 0.41489 0.2953 0.0
C3759 C 0.23255 0.36418 0.29399 0.0
C3760 C 0.22409 0.38146 0.29448 0.0
H3761 H 0.18089 0.46044 0.32424 0.0
H3762 H 0.19343 0.43203 0.3237 0.0
H3763 H 0.20027 0.40336 0.26574 0.0
H3764 H 0.22636 0.31605 0.27578 0.0
H3765 H 0.21234 0.34345 0.27666 0.0
C3766 C 0.26105 0.45899 0.0807 0.0
C3767 C 0.26442 0.44416 0.06773 0.0
C3768 C 0.24586 0.46481 0.07855 0.0
C3769 C 0.20218 0.44884 0.0554 0.0
H3770 H 0.2013 0.50274 0.06942 0.0
C3771 C 0.14217 0.48007 0.04461 0.0
C3772 C 0.14001 0.49457 0.05887 0.0
C3773 C 0.15694 0.47312 0.04516 0.0
C3774 C 0.20126 0.48759 0.06565 0.0
H3775 H 0.25434 0.42395 0.04212 0.0
H3776 H 0.22786 0.43435 0.03816 0.0
H3777 H 0.22774 0.49264 0.07055 0.0
H3778 H 0.15181 0.51277 0.08514 0.0
H3779 H 0.17727 0.50045 0.0863 0.0
H3780 H 0.17559 0.44391 0.05041 0.0
C3781 C 0.23694 0.44131 0.0502 0.0
C3782 C 0.21648 0.48176 0.06628 0.0
C3783 C 0.2522 0.43544 0.05238 0.0
C3784 C 0.15288 0.50151 0.07397 0.0
C3785 C 0.16763 0.49461 0.0745 0.0
C3786 C 0.1869 0.4547 0.05469 0.0
C3787 C 0.23352 0.45606 0.06331 0.0
C3788 C 0.2172 0.46227 0.06143 0.0
C3789 C 0.17 0.48054 0.05996 0.0
C3790 C 0.18622 0.47414 0.06006 0.0
H3791 H 0.27007 0.46596 0.09278 0.0
H3792 H 0.24366 0.47595 0.08916 0.0
H3793 H 0.20216 0.43369 0.05171 0.0
H3794 H 0.13249 0.47417 0.03286 0.0
H3795 H 0.15829 0.46232 0.03369 0.0
C3796 C 0.86002 0.9804 0.26541 0.0
C3797 C 0.87452 0.98889 0.27808 0.0
C3798 C 0.85066 0.96193 0.26679 0.0
C3799 C 0.84164 0.92692 0.30091 0.0
H3800 H 0.82588 0.88826 0.25643 0.0
C3801 C 0.79294 0.85576 0.30202 0.0
C3802 C 0.79556 0.83822 0.29266 0.0
C3803 C 0.80311 0.87359 0.30049 0.0
C3804 C 0.83021 0.89882 0.26905 0.0
H3805 H 0.89009 0.9841 0.30242 0.0
H3806 H 0.87366 0.95265 0.30518 0.0
H3807 H 0.84169 0.92014 0.25311 0.0
H3808 H 0.81087 0.82616 0.27361 0.0
H3809 H 0.82847 0.85726 0.27061 0.0
H3810 H 0.82987 0.90584 0.31681 0.0
C3811 C 0.86955 0.96012 0.29399 0.0
C3812 C 0.8392 0.91727 0.26712 0.0
C3813 C 0.87907 0.9783 0.29235 0.0
C3814 C 0.80871 0.8392 0.2815 0.0
C3815 C 0.81868 0.85715 0.27956 0.0
C3816 C 0.83234 0.90868 0.30278 0.0
C3817 C 0.85521 0.95144 0.28118 0.0
C3818 C 0.84517 0.9317 0.28303 0.0
C3819 C 0.81606 0.87474 0.28904 0.0
C3820 C 0.82646 0.89419 0.28692 0.0
H3821 H 0.85606 0.98786 0.25413 0.0
H3822 H 0.8397 0.95594 0.25667 0.0
H3823 H 0.84587 0.93748 0.31355 0.0
H3824 H 0.78284 0.85573 0.31054 0.0
H3825 H 0.80048 0.88662 0.30791 0.0
C3826 C 0.70053 0.08097 0.81053 0.0
C3827 C 0.68345 0.07798 0.81241 0.0
C3828 C 0.7099 0.09959 0.81009 0.0
C3829 C 0.70537 0.14757 0.79811 0.0
H3830 H 0.74911 0.16673 0.82642 0.0
C3831 C 0.74849 0.219 0.78637 0.0
C3832 C 0.75727 0.23158 0.80251 0.0
C3833 C 0.73973 0.2004 0.7878 0.0
C3834 C 0.73689 0.16168 0.81843 0.0
H3835 H 0.66308 0.09277 0.81527 0.0
H3836 H 0.6792 0.12481 0.8141 0.0
H3837 H 0.73375 0.13438 0.82865 0.0
H3838 H 0.7636 0.23394 0.83293 0.0
H3839 H 0.7486 0.20157 0.83536 0.0
H3840 H 0.70853 0.1747 0.7877 0.0
C3841 C 0.68542 0.11279 0.8131 0.0
C3842 C 0.72811 0.14299 0.8196 0.0
C3843 C 0.67616 0.0943 0.81394 0.0
C3844 C 0.75705 0.22481 0.82013 0.0
C3845 C 0.74848 0.2061 0.82152 0.0
C3846 C 0.71427 0.16608 0.79666 0.0
C3847 C 0.70244 0.11579 0.81106 0.0
C3848 C 0.71213 0.13564 0.80957 0.0
C3849 C 0.7396 0.19355 0.80539 0.0
C3850 C 0.73017 0.17355 0.80686 0.0
H3851 H 0.70665 0.06888 0.80924 0.0
H3852 H 0.72292 0.10121 0.80844 0.0
H3853 H 0.6932 0.14249 0.79003 0.0
H3854 H 0.7483 0.22352 0.77253 0.0
H3855 H 0.73323 0.19124 0.77499 0.0
loop_
_geom_bond_atom_site_label_1
_geom_bond_atom_site_label_2
_geom_bond_distance
_geom_bond_site_symmetry_2
_ccdc_geom_bond_type
O0 Cd1 2.223 . S
O0 C8 1.315 . S
Cd1 O0 2.223 . S
Cd1 O4 2.297 . S
Cd1 O5 2.439 . S
Cd1 O11 2.240 . S
Cd2 O3 2.240 . S
Cd2 O10 2.241 . S
Cd2 O12 2.297 . S
Cd2 O13 2.439 . S
O3 Cd2 2.240 . S
O3 C8 1.279 . S
O4 Cd1 2.297 . S
O4 C6 1.247 . S
O5 Cd1 2.439 . S
O5 C6 1.208 . S
C6 O4 1.247 . S
C6 O5 1.208 . S
C7 O12 1.247 . S
C7 O13 1.208 . S
C8 O0 1.315 . S
C8 O3 1.279 . S
C9 O10 1.319 . S
C9 O11 1.279 . S
O10 Cd2 2.241 . S
O10 C9 1.319 . S
O11 Cd1 2.240 . S
O11 C9 1.279 . S
O12 Cd2 2.297 . S
O12 C7 1.247 . S
O13 Cd2 2.439 . S
O13 C7 1.208 . S
O14 Cd15 2.236 . S
O14 C22 1.315 . S
Cd15 O14 2.236 . S
Cd15 O18 2.267 1_455 S
Cd15 O19 2.410 1_455 S
Cd15 O25 2.265 . S
Cd16 O17 2.240 1_455 S
Cd16 O24 2.223 . S
Cd16 O26 2.297 . S
Cd16 O27 2.439 . S
O17 Cd16 2.240 1_655 S
O17 C22 1.279 1_655 S
O18 Cd15 2.267 1_655 S
O18 C20 1.247 . S
O19 Cd15 2.410 1_655 S
O19 C20 1.208 . S
C20 O18 1.247 . S
C20 O19 1.208 . S
C21 O26 1.247 . S
C21 O27 1.208 . S
C22 O14 1.315 . S
C22 O17 1.279 1_455 S
C23 O24 1.315 . S
C23 O25 1.279 . S
O24 Cd16 2.223 . S
O24 C23 1.315 . S
O25 Cd15 2.265 . S
O25 C23 1.279 . S
O26 Cd16 2.297 . S
O26 C21 1.247 . S
O27 Cd16 2.439 . S
O27 C21 1.208 . S
O28 Cd29 2.223 . S
O28 C36 1.315 . S
Cd29 O28 2.223 . S
Cd29 O32 2.297 . S
Cd29 O33 2.439 . S
Cd29 O39 2.240 . S
Cd30 O31 2.240 . S
Cd30 O38 2.223 . S
Cd30 O40 2.297 . S
Cd30 O41 2.439 . S
O31 Cd30 2.240 . S
O31 C36 1.279 . S
O32 Cd29 2.297 . S
O32 C34 1.247 . S
O33 Cd29 2.439 . S
O33 C34 1.208 . S
C34 O32 1.247 . S
C34 O33 1.208 . S
C35 O40 1.247 . S
C35 O41 1.208 . S
C36 O28 1.315 . S
C36 O31 1.279 . S
C37 O38 1.315 . S
C37 O39 1.279 . S
O38 Cd30 2.223 . S
O38 C37 1.315 . S
O39 Cd29 2.240 . S
O39 C37 1.279 . S
O40 Cd30 2.297 . S
O40 C35 1.247 . S
O41 Cd30 2.439 . S
O41 C35 1.208 . S
O42 Cd43 2.223 . S
O42 C50 1.315 . S
Cd43 O42 2.223 . S
Cd43 O46 2.297 . S
Cd43 O47 2.439 . S
Cd43 O53 2.240 . S
Cd44 O45 2.240 . S
Cd44 O52 2.223 . S
Cd44 O54 2.297 . S
Cd44 O55 2.439 . S
O45 Cd44 2.240 . S
O45 C50 1.279 . S
O46 Cd43 2.297 . S
O46 C48 1.247 . S
O47 Cd43 2.439 . S
O47 C48 1.208 . S
C48 O46 1.247 . S
C48 O47 1.208 . S
C49 O54 1.247 . S
C49 O55 1.208 . S
C50 O42 1.315 . S
C50 O45 1.279 . S
C51 O52 1.315 . S
C51 O53 1.279 . S
O52 Cd44 2.223 . S
O52 C51 1.315 . S
O53 Cd43 2.240 . S
O53 C51 1.279 . S
O54 Cd44 2.297 . S
O54 C49 1.247 . S
O55 Cd44 2.439 . S
O55 C49 1.208 . S
O56 Cd57 2.223 . S
O56 C64 1.315 . S
Cd57 O56 2.223 . S
Cd57 O60 2.297 . S
Cd57 O61 2.439 . S
Cd57 O67 2.240 . S
Cd58 O59 2.240 . S
Cd58 O66 2.223 . S
Cd58 O68 2.297 . S
Cd58 O69 2.439 . S
O59 Cd58 2.240 . S
O59 C64 1.279 . S
O60 Cd57 2.297 . S
O60 C62 1.247 . S
O61 Cd57 2.439 . S
O61 C62 1.208 . S
C62 O60 1.247 . S
C62 O61 1.208 . S
C63 O68 1.247 . S
C63 O69 1.208 . S
C64 O56 1.315 . S
C64 O59 1.279 . S
C65 O66 1.315 . S
C65 O67 1.279 . S
O66 Cd58 2.223 . S
O66 C65 1.315 . S
O67 Cd57 2.240 . S
O67 C65 1.279 . S
O68 Cd58 2.297 . S
O68 C63 1.247 . S
O69 Cd58 2.439 . S
O69 C63 1.208 . S
O70 Cd71 2.223 . S
O70 C78 1.315 . S
Cd71 O70 2.223 . S
Cd71 O74 2.297 . S
Cd71 O75 2.439 . S
Cd71 O81 2.240 . S
Cd72 O73 2.240 . S
Cd72 O80 2.223 . S
Cd72 O82 2.297 . S
Cd72 O83 2.439 . S
O73 Cd72 2.240 . S
O73 C78 1.279 . S
O74 Cd71 2.297 . S
O74 C76 1.247 . S
O75 Cd71 2.439 . S
O75 C76 1.208 . S
C76 O74 1.247 . S
C76 O75 1.208 . S
C77 O82 1.247 . S
C77 O83 1.208 . S
C78 O70 1.315 . S
C78 O73 1.279 . S
C79 O80 1.315 . S
C79 O81 1.279 . S
O80 Cd72 2.223 . S
O80 C79 1.315 . S
O81 Cd71 2.240 . S
O81 C79 1.279 . S
O82 Cd72 2.297 . S
O82 C77 1.247 . S
O83 Cd72 2.439 . S
O83 C77 1.208 . S
O84 Cd85 2.223 . S
O84 C92 1.315 . S
Cd85 O84 2.223 . S
Cd85 O88 2.297 . S
Cd85 O89 2.439 . S
Cd85 O95 2.240 . S
Cd86 O87 2.240 . S
Cd86 O94 2.223 . S
Cd86 O96 2.297 . S
Cd86 O97 2.439 . S
O87 Cd86 2.240 . S
O87 C92 1.279 . S
O88 Cd85 2.297 . S
O88 C90 1.247 . S
O89 Cd85 2.439 . S
O89 C90 1.208 . S
C90 O88 1.247 . S
C90 O89 1.208 . S
C91 O96 1.247 . S
C91 O97 1.208 . S
C92 O84 1.315 . S
C92 O87 1.279 . S
C93 O94 1.315 . S
C93 O95 1.279 . S
O94 Cd86 2.223 . S
O94 C93 1.315 . S
O95 Cd85 2.240 . S
O95 C93 1.279 . S
O96 Cd86 2.297 . S
O96 C91 1.247 . S
O97 Cd86 2.439 . S
O97 C91 1.208 . S
O98 Cd99 2.223 1_655 S
O98 C106 1.315 . S
Cd99 O98 2.223 1_455 S
Cd99 O102 2.297 . S
Cd99 O103 2.439 . S
Cd99 O109 2.240 1_455 S
Cd100 O101 2.240 1_655 S
Cd100 O108 2.223 . S
Cd100 O110 2.297 . S
Cd100 O111 2.439 1_655 S
O101 Cd100 2.240 1_455 S
O101 C106 1.279 1_455 S
O102 Cd99 2.297 . S
O102 C104 1.247 . S
O103 Cd99 2.439 . S
O103 C104 1.208 . S
C104 O102 1.247 . S
C104 O103 1.208 . S
C105 O110 1.247 1_455 S
C105 O111 1.208 . S
C106 O98 1.315 . S
C106 O101 1.279 1_655 S
C107 O108 1.315 . S
C107 O109 1.279 . S
O108 Cd100 2.223 . S
O108 C107 1.315 . S
O109 Cd99 2.240 1_655 S
O109 C107 1.279 . S
O110 Cd100 2.297 . S
O110 C105 1.247 1_655 S
O111 Cd100 2.439 1_455 S
O111 C105 1.208 . S
O112 Cd113 2.223 . S
O112 C120 1.315 . S
Cd113 O112 2.223 . S
Cd113 O116 2.297 . S
Cd113 O117 2.439 . S
Cd113 O123 2.240 . S
Cd114 O115 2.240 . S
Cd114 O122 2.241 . S
Cd114 O124 2.297 . S
Cd114 O125 2.439 . S
O115 Cd114 2.240 . S
O115 C120 1.279 . S
O116 Cd113 2.297 . S
O116 C118 1.247 . S
O117 Cd113 2.439 . S
O117 C118 1.208 . S
C118 O116 1.247 . S
C118 O117 1.208 . S
C119 O124 1.247 . S
C119 O125 1.208 . S
C120 O112 1.315 . S
C120 O115 1.279 . S
C121 O122 1.321 . S
C121 O123 1.279 . S
O122 Cd114 2.241 . S
O122 C121 1.321 . S
O123 Cd113 2.240 . S
O123 C121 1.279 . S
O124 Cd114 2.297 . S
O124 C119 1.247 . S
O125 Cd114 2.439 . S
O125 C119 1.208 . S
O126 Cd127 2.223 . S
O126 C134 1.315 . S
Cd127 O126 2.223 . S
Cd127 O130 2.297 . S
Cd127 O131 2.439 . S
Cd127 O137 2.240 . S
Cd128 O129 2.240 . S
Cd128 O136 2.223 . S
Cd128 O138 2.297 . S
Cd128 O139 2.439 . S
O129 Cd128 2.240 . S
O129 C134 1.279 . S
O130 Cd127 2.297 . S
O130 C132 1.247 . S
O131 Cd127 2.439 . S
O131 C132 1.208 . S
C132 O130 1.247 . S
C132 O131 1.208 . S
C133 O138 1.247 . S
C133 O139 1.208 . S
C134 O126 1.315 . S
C134 O129 1.279 . S
C135 O136 1.315 . S
C135 O137 1.279 . S
O136 Cd128 2.223 . S
O136 C135 1.315 . S
O137 Cd127 2.240 . S
O137 C135 1.279 . S
O138 Cd128 2.297 . S
O138 C133 1.247 . S
O139 Cd128 2.439 . S
O139 C133 1.208 . S
O140 Cd141 2.223 1_545 S
O140 C148 1.315 1_545 S
Cd141 O140 2.223 1_565 S
Cd141 O144 2.297 . S
Cd141 O145 2.439 . S
Cd141 O151 2.240 1_565 S
Cd142 O143 2.240 1_545 S
Cd142 O150 2.223 . S
Cd142 O152 2.297 . S
Cd142 O153 2.439 1_545 S
O143 Cd142 2.240 1_565 S
O143 C148 1.279 . S
O144 Cd141 2.297 . S
O144 C146 1.247 . S
O145 Cd141 2.439 . S
O145 C146 1.208 . S
C146 O144 1.247 . S
C146 O145 1.208 . S
C147 O152 1.247 . S
C147 O153 1.208 1_545 S
C148 O140 1.315 1_565 S
C148 O143 1.279 . S
C149 O150 1.315 . S
C149 O151 1.279 . S
O150 Cd142 2.223 . S
O150 C149 1.315 . S
O151 Cd141 2.240 1_545 S
O151 C149 1.279 . S
O152 Cd142 2.297 . S
O152 C147 1.247 . S
O153 Cd142 2.439 1_565 S
O153 C147 1.208 1_565 S
O154 Cd155 2.223 . S
O154 C162 1.315 . S
Cd155 O154 2.223 . S
Cd155 O158 2.297 . S
Cd155 O159 2.439 1_554 S
Cd155 O165 2.240 1_554 S
Cd156 O157 2.240 1_556 S
Cd156 O164 2.223 1_556 S
Cd156 O166 2.297 . S
Cd156 O167 2.439 . S
O157 Cd156 2.240 1_554 S
O157 C162 1.279 . S
O158 Cd155 2.297 . S
O158 C160 1.247 . S
O159 Cd155 2.439 1_556 S
O159 C160 1.208 1_556 S
C160 O158 1.247 . S
C160 O159 1.208 1_554 S
C161 O166 1.247 . S
C161 O167 1.208 . S
C162 O154 1.315 . S
C162 O157 1.279 . S
C163 O164 1.315 . S
C163 O165 1.279 1_554 S
O164 Cd156 2.223 1_554 S
O164 C163 1.315 . S
O165 Cd155 2.240 1_556 S
O165 C163 1.279 1_556 S
O166 Cd156 2.297 . S
O166 C161 1.247 . S
O167 Cd156 2.439 . S
O167 C161 1.208 . S
O168 Cd169 2.223 . S
O168 C176 1.315 . S
Cd169 O168 2.223 . S
Cd169 O172 2.297 . S
Cd169 O173 2.439 . S
Cd169 O179 2.240 . S
Cd170 O171 2.240 . S
Cd170 O178 2.223 . S
Cd170 O180 2.297 . S
Cd170 O181 2.439 . S
O171 Cd170 2.240 . S
O171 C176 1.279 . S
O172 Cd169 2.297 . S
O172 C174 1.247 . S
O173 Cd169 2.439 . S
O173 C174 1.208 . S
C174 O172 1.247 . S
C174 O173 1.208 . S
C175 O180 1.247 1_556 S
C175 O181 1.208 1_556 S
C176 O168 1.315 . S
C176 O171 1.279 . S
C177 O178 1.315 . S
C177 O179 1.279 . S
O178 Cd170 2.223 . S
O178 C177 1.315 . S
O179 Cd169 2.240 . S
O179 C177 1.279 . S
O180 Cd170 2.297 . S
O180 C175 1.247 1_554 S
O181 Cd170 2.439 . S
O181 C175 1.208 1_554 S
O182 Cd183 2.223 . S
O182 C190 1.315 . S
Cd183 O182 2.223 . S
Cd183 O186 2.297 . S
Cd183 O187 2.439 . S
Cd183 O193 2.240 . S
Cd184 O185 2.240 . S
Cd184 O192 2.223 . S
Cd184 O194 2.297 . S
Cd184 O195 2.439 . S
O185 Cd184 2.240 . S
O185 C190 1.279 . S
O186 Cd183 2.297 . S
O186 C188 1.247 . S
O187 Cd183 2.439 . S
O187 C188 1.208 . S
C188 O186 1.247 . S
C188 O187 1.208 . S
C189 O194 1.247 . S
C189 O195 1.208 . S
C190 O182 1.315 . S
C190 O185 1.279 . S
C191 O192 1.315 . S
C191 O193 1.279 . S
O192 Cd184 2.223 . S
O192 C191 1.315 . S
O193 Cd183 2.240 . S
O193 C191 1.279 . S
O194 Cd184 2.297 . S
O194 C189 1.247 . S
O195 Cd184 2.439 . S
O195 C189 1.208 . S
O196 Cd197 2.223 . S
O196 C204 1.315 . S
Cd197 O196 2.223 . S
Cd197 O200 2.297 . S
Cd197 O201 2.439 . S
Cd197 O207 2.240 . S
Cd198 O199 2.240 . S
Cd198 O206 2.223 . S
Cd198 O208 2.297 . S
Cd198 O209 2.439 . S
O199 Cd198 2.240 . S
O199 C204 1.279 . S
O200 Cd197 2.297 . S
O200 C202 1.247 . S
O201 Cd197 2.439 . S
O201 C202 1.208 . S
C202 O200 1.247 . S
C202 O201 1.208 . S
C203 O208 1.247 . S
C203 O209 1.208 . S
C204 O196 1.315 . S
C204 O199 1.279 . S
C205 O206 1.315 . S
C205 O207 1.279 . S
O206 Cd198 2.223 . S
O206 C205 1.315 . S
O207 Cd197 2.240 . S
O207 C205 1.279 . S
O208 Cd198 2.297 . S
O208 C203 1.247 . S
O209 Cd198 2.439 . S
O209 C203 1.208 . S
O210 Cd211 2.223 . S
O210 C218 1.315 . S
Cd211 O210 2.223 . S
Cd211 O214 2.297 . S
Cd211 O215 2.439 . S
Cd211 O221 2.240 . S
Cd212 O213 2.240 . S
Cd212 O220 2.223 . S
Cd212 O222 2.297 . S
Cd212 O223 2.439 . S
O213 Cd212 2.240 . S
O213 C218 1.279 . S
O214 Cd211 2.297 . S
O214 C216 1.247 . S
O215 Cd211 2.439 . S
O215 C216 1.208 . S
C216 O214 1.247 . S
C216 O215 1.208 . S
C217 O222 1.247 . S
C217 O223 1.208 . S
C218 O210 1.315 . S
C218 O213 1.279 . S
C219 O220 1.315 . S
C219 O221 1.279 . S
O220 Cd212 2.223 . S
O220 C219 1.315 . S
O221 Cd211 2.240 . S
O221 C219 1.279 . S
O222 Cd212 2.297 . S
O222 C217 1.247 . S
O223 Cd212 2.439 . S
O223 C217 1.208 . S
O224 Cd225 2.223 . S
O224 C232 1.315 . S
Cd225 O224 2.223 . S
Cd225 O228 2.297 . S
Cd225 O229 2.439 . S
Cd225 O235 2.240 . S
Cd226 O227 2.240 . S
Cd226 O234 2.223 . S
Cd226 O236 2.297 . S
Cd226 O237 2.439 . S
O227 Cd226 2.240 . S
O227 C232 1.279 . S
O228 Cd225 2.297 . S
O228 C230 1.247 . S
O229 Cd225 2.439 . S
O229 C230 1.208 . S
C230 O228 1.247 . S
C230 O229 1.208 . S
C231 O236 1.247 . S
C231 O237 1.208 . S
C232 O224 1.315 . S
C232 O227 1.279 . S
C233 O234 1.315 . S
C233 O235 1.279 . S
O234 Cd226 2.223 . S
O234 C233 1.315 . S
O235 Cd225 2.240 . S
O235 C233 1.279 . S
O236 Cd226 2.297 . S
O236 C231 1.247 . S
O237 Cd226 2.439 . S
O237 C231 1.208 . S
O238 Cd239 2.223 . S
O238 C246 1.315 . S
Cd239 O238 2.223 . S
Cd239 O242 2.297 . S
Cd239 O243 2.439 . S
Cd239 O249 2.240 . S
Cd240 O241 2.240 . S
Cd240 O248 2.223 . S
Cd240 O250 2.297 . S
Cd240 O251 2.439 . S
O241 Cd240 2.240 . S
O241 C246 1.279 . S
O242 Cd239 2.297 . S
O242 C244 1.247 . S
O243 Cd239 2.439 . S
O243 C244 1.208 . S
C244 O242 1.247 . S
C244 O243 1.208 . S
C245 O250 1.247 . S
C245 O251 1.208 . S
C246 O238 1.315 . S
C246 O241 1.279 . S
C247 O248 1.315 . S
C247 O249 1.279 . S
O248 Cd240 2.223 . S
O248 C247 1.315 . S
O249 Cd239 2.240 . S
O249 C247 1.279 . S
O250 Cd240 2.297 . S
O250 C245 1.247 . S
O251 Cd240 2.439 . S
O251 C245 1.208 . S
O252 Cd253 2.223 . S
O252 C260 1.315 . S
Cd253 O252 2.223 . S
Cd253 O256 2.297 . S
Cd253 O257 2.439 . S
Cd253 O263 2.240 . S
Cd254 O255 2.240 . S
Cd254 O262 2.223 . S
Cd254 O264 2.297 . S
Cd254 O265 2.439 . S
O255 Cd254 2.240 . S
O255 C260 1.279 . S
O256 Cd253 2.297 . S
O256 C258 1.247 . S
O257 Cd253 2.439 . S
O257 C258 1.208 . S
C258 O256 1.247 . S
C258 O257 1.208 . S
C259 O264 1.247 . S
C259 O265 1.208 . S
C260 O252 1.315 . S
C260 O255 1.279 . S
C261 O262 1.315 . S
C261 O263 1.279 . S
O262 Cd254 2.223 . S
O262 C261 1.315 . S
O263 Cd253 2.240 . S
O263 C261 1.279 . S
O264 Cd254 2.297 . S
O264 C259 1.247 . S
O265 Cd254 2.439 . S
O265 C259 1.208 . S
O266 Cd267 2.223 . S
O266 C274 1.315 . S
Cd267 O266 2.223 . S
Cd267 O270 2.297 1_545 S
Cd267 O271 2.439 1_545 S
Cd267 O277 2.240 . S
Cd268 O269 2.240 . S
Cd268 O276 2.223 . S
Cd268 O278 2.297 . S
Cd268 O279 2.439 . S
O269 Cd268 2.240 . S
O269 C274 1.279 . S
O270 Cd267 2.297 1_565 S
O270 C272 1.247 . S
O271 Cd267 2.439 1_565 S
O271 C272 1.208 . S
C272 O270 1.247 . S
C272 O271 1.208 . S
C273 O278 1.247 . S
C273 O279 1.208 . S
C274 O266 1.315 . S
C274 O269 1.279 . S
C275 O276 1.315 . S
C275 O277 1.279 . S
O276 Cd268 2.223 . S
O276 C275 1.315 . S
O277 Cd267 2.240 . S
O277 C275 1.279 . S
O278 Cd268 2.297 . S
O278 C273 1.247 . S
O279 Cd268 2.439 . S
O279 C273 1.208 . S
O280 Cd281 2.223 . S
O280 C288 1.315 . S
Cd281 O280 2.223 . S
Cd281 O284 2.297 . S
Cd281 O285 2.439 . S
Cd281 O291 2.240 . S
Cd282 O283 2.240 . S
Cd282 O290 2.223 . S
Cd282 O292 2.277 1_554 S
Cd282 O293 2.479 . S
O283 Cd282 2.240 . S
O283 C288 1.279 . S
O284 Cd281 2.297 . S
O284 C286 1.247 . S
O285 Cd281 2.439 . S
O285 C286 1.208 . S
C286 O284 1.247 . S
C286 O285 1.208 . S
C287 O292 1.257 . S
C287 O293 1.184 1_556 S
C288 O280 1.315 . S
C288 O283 1.279 . S
C289 O290 1.315 . S
C289 O291 1.279 . S
O290 Cd282 2.223 . S
O290 C289 1.315 . S
O291 Cd281 2.240 . S
O291 C289 1.279 . S
O292 Cd282 2.277 1_556 S
O292 C287 1.257 . S
O293 Cd282 2.479 . S
O293 C287 1.184 1_554 S
O294 Cd295 2.223 . S
O294 C302 1.315 . S
Cd295 O294 2.223 . S
Cd295 O298 2.297 . S
Cd295 O299 2.439 . S
Cd295 O305 2.240 . S
Cd296 O297 2.240 . S
Cd296 O304 2.223 . S
Cd296 O306 2.297 . S
Cd296 O307 2.439 . S
O297 Cd296 2.240 . S
O297 C302 1.279 . S
O298 Cd295 2.297 . S
O298 C300 1.247 . S
O299 Cd295 2.439 . S
O299 C300 1.208 . S
C300 O298 1.247 . S
C300 O299 1.208 . S
C301 O306 1.247 . S
C301 O307 1.208 . S
C302 O294 1.315 . S
C302 O297 1.279 . S
C303 O304 1.315 . S
C303 O305 1.279 . S
O304 Cd296 2.223 . S
O304 C303 1.315 . S
O305 Cd295 2.240 . S
O305 C303 1.279 . S
O306 Cd296 2.297 . S
O306 C301 1.247 . S
O307 Cd296 2.439 . S
O307 C301 1.208 . S
O308 Cd309 2.223 . S
O308 C316 1.315 . S
Cd309 O308 2.223 . S
Cd309 O312 2.297 . S
Cd309 O313 2.439 . S
Cd309 O319 2.240 . S
Cd310 O311 2.240 . S
Cd310 O318 2.223 . S
Cd310 O320 2.297 . S
Cd310 O321 2.439 . S
O311 Cd310 2.240 . S
O311 C316 1.279 . S
O312 Cd309 2.297 . S
O312 C314 1.247 . S
O313 Cd309 2.439 . S
O313 C314 1.208 . S
C314 O312 1.247 . S
C314 O313 1.208 . S
C315 O320 1.247 . S
C315 O321 1.208 . S
C316 O308 1.315 . S
C316 O311 1.279 . S
C317 O318 1.315 . S
C317 O319 1.279 . S
O318 Cd310 2.223 . S
O318 C317 1.315 . S
O319 Cd309 2.240 . S
O319 C317 1.279 . S
O320 Cd310 2.297 . S
O320 C315 1.247 . S
O321 Cd310 2.439 . S
O321 C315 1.208 . S
O322 Cd323 2.223 . S
O322 C330 1.315 . S
Cd323 O322 2.223 . S
Cd323 O326 2.297 . S
Cd323 O327 2.439 . S
Cd323 O333 2.240 . S
Cd324 O325 2.240 . S
Cd324 O332 2.223 . S
Cd324 O334 2.297 . S
Cd324 O335 2.439 . S
O325 Cd324 2.240 . S
O325 C330 1.279 . S
O326 Cd323 2.297 . S
O326 C328 1.247 . S
O327 Cd323 2.439 . S
O327 C328 1.208 . S
C328 O326 1.247 . S
C328 O327 1.208 . S
C329 O334 1.247 . S
C329 O335 1.208 . S
C330 O322 1.315 . S
C330 O325 1.279 . S
C331 O332 1.315 . S
C331 O333 1.279 . S
O332 Cd324 2.223 . S
O332 C331 1.315 . S
O333 Cd323 2.240 . S
O333 C331 1.279 . S
O334 Cd324 2.297 . S
O334 C329 1.247 . S
O335 Cd324 2.439 . S
O335 C329 1.208 . S
C336 Eu337 2.835 . S
C336 C338 1.500 . S
C336 O356 1.257 . S
C336 O357 1.260 . S
Eu337 C336 2.835 . S
Eu337 O356 2.473 . S
Eu337 O357 2.480 . S
Eu337 O358 2.430 . S
Eu337 O359 2.670 . S
Eu337 O360 2.394 . S
Eu337 O365 2.355 . S
Eu337 O367 2.374 . S
C338 C336 1.500 . S
C338 C339 1.377 . S
C338 C343 1.377 1_545 S
C339 C338 1.377 . S
C339 C340 1.395 . S
C339 H368 0.931 . S
C340 C339 1.395 . S
C340 C341 1.383 1_545 S
C340 H369 0.931 . S
C341 C340 1.383 1_565 S
C341 C342 1.394 . S
C342 C341 1.394 . S
C342 C343 1.378 . S
C342 H370 0.931 . S
C343 C338 1.377 1_565 S
C343 C342 1.378 . S
C343 H371 0.931 . S
C344 O358 1.259 . S
C344 O359 1.270 . S
C345 O360 1.251 1_565 S
C345 O361 1.251 . S
C346 Eu347 2.864 . S
C346 C348 1.500 . S
C346 O362 1.257 . S
C346 O363 1.260 . S
Eu347 C346 2.864 . S
Eu347 O359 2.341 1_655 S
Eu347 O361 2.357 1_645 S
Eu347 O362 2.500 . S
Eu347 O363 2.505 . S
Eu347 O364 2.425 1_655 S
Eu347 O365 2.635 1_655 S
Eu347 O366 2.384 1_655 S
C348 C346 1.500 . S
C348 C349 1.377 . S
C348 C353 1.377 . S
C349 C348 1.377 . S
C349 C350 1.389 1_554 S
C349 H372 0.931 1_554 S
C350 C349 1.389 1_556 S
C350 C351 1.349 1_556 S
C350 H373 0.972 . S
C351 C350 1.349 1_554 S
C351 C352 1.394 . S
C352 C351 1.394 . S
C352 C353 1.378 . S
C352 H374 0.931 . S
C353 C348 1.377 . S
C353 C352 1.378 . S
C353 H375 0.931 . S
C354 O364 1.262 . S
C354 O365 1.270 . S
C355 O366 1.251 . S
C355 O367 1.251 . S
O356 C336 1.257 . S
O356 Eu337 2.473 . S
O357 C336 1.260 . S
O357 Eu337 2.480 . S
O358 Eu337 2.430 . S
O358 C344 1.259 . S
O359 Eu337 2.670 . S
O359 C344 1.270 . S
O359 Eu347 2.341 1_455 S
O360 Eu337 2.394 . S
O360 C345 1.251 1_545 S
O361 C345 1.251 . S
O361 Eu347 2.357 1_465 S
O362 C346 1.257 . S
O362 Eu347 2.500 . S
O363 C346 1.260 . S
O363 Eu347 2.505 . S
O364 Eu347 2.425 1_455 S
O364 C354 1.262 . S
O365 Eu337 2.355 . S
O365 Eu347 2.635 1_455 S
O365 C354 1.270 . S
O366 Eu347 2.384 1_455 S
O366 C355 1.251 . S
O367 Eu337 2.374 . S
O367 C355 1.251 . S
H368 C339 0.931 . S
H369 C340 0.931 . S
H370 C342 0.931 . S
H371 C343 0.931 . S
H372 C349 0.931 1_556 S
H373 C350 0.972 . S
H374 C352 0.931 . S
H375 C353 0.931 . S
C376 Eu377 2.835 . S
C376 C378 1.500 . S
C376 O396 1.257 . S
C376 O397 1.260 . S
Eu377 C376 2.835 . S
Eu377 O396 2.473 . S
Eu377 O397 2.480 . S
Eu377 O398 2.430 . S
Eu377 O399 2.670 . S
Eu377 O400 2.394 . S
Eu377 O405 2.355 . S
Eu377 O407 2.374 . S
C378 C376 1.500 . S
C378 C379 1.377 . S
C378 C383 1.377 . S
C379 C378 1.377 . S
C379 C380 1.395 . S
C379 H408 0.931 . S
C380 C379 1.395 . S
C380 C381 1.383 . S
C380 H409 0.931 . S
C381 C380 1.383 . S
C381 C382 1.394 . S
C382 C381 1.394 . S
C382 C383 1.378 . S
C382 H410 0.931 . S
C383 C378 1.377 . S
C383 C382 1.378 . S
C383 H411 0.931 . S
C384 O398 1.259 . S
C384 O399 1.270 . S
C385 O400 1.251 . S
C385 O401 1.251 . S
C386 Eu387 2.835 . S
C386 C388 1.500 . S
C386 O402 1.257 . S
C386 O403 1.260 . S
Eu387 C386 2.835 . S
Eu387 O399 2.355 . S
Eu387 O401 2.374 . S
Eu387 O402 2.473 . S
Eu387 O403 2.480 . S
Eu387 O404 2.430 . S
Eu387 O405 2.670 . S
Eu387 O406 2.394 . S
C388 C386 1.500 . S
C388 C389 1.377 . S
C388 C393 1.377 . S
C389 C388 1.377 . S
C389 C390 1.395 . S
C389 H412 0.931 . S
C390 C389 1.395 . S
C390 C391 1.383 . S
C390 H413 0.931 . S
C391 C390 1.383 . S
C391 C392 1.394 . S
C392 C391 1.394 . S
C392 C393 1.378 . S
C392 H414 0.931 . S
C393 C388 1.377 . S
C393 C392 1.378 . S
C393 H415 0.931 . S
C394 O404 1.259 . S
C394 O405 1.270 . S
C395 O406 1.251 . S
C395 O407 1.251 . S
O396 C376 1.257 . S
O396 Eu377 2.473 . S
O397 C376 1.260 . S
O397 Eu377 2.480 . S
O398 Eu377 2.430 . S
O398 C384 1.259 . S
O399 Eu377 2.670 . S
O399 C384 1.270 . S
O399 Eu387 2.355 . S
O400 Eu377 2.394 . S
O400 C385 1.251 . S
O401 C385 1.251 . S
O401 Eu387 2.374 . S
O402 C386 1.257 . S
O402 Eu387 2.473 . S
O403 C386 1.260 . S
O403 Eu387 2.480 . S
O404 Eu387 2.430 . S
O404 C394 1.259 . S
O405 Eu377 2.355 . S
O405 Eu387 2.670 . S
O405 C394 1.270 . S
O406 Eu387 2.394 . S
O406 C395 1.251 . S
O407 Eu377 2.374 . S
O407 C395 1.251 . S
H408 C379 0.931 . S
H409 C380 0.931 . S
H410 C382 0.931 . S
H411 C383 0.931 . S
H412 C389 0.931 . S
H413 C390 0.931 . S
H414 C392 0.931 . S
H415 C393 0.931 . S
C416 Eu417 2.835 . S
C416 C418 1.500 . S
C416 O436 1.257 . S
C416 O437 1.260 . S
Eu417 C416 2.835 . S
Eu417 O436 2.473 . S
Eu417 O437 2.480 . S
Eu417 O438 2.430 . S
Eu417 O439 2.670 . S
Eu417 O440 2.394 . S
Eu417 O445 2.355 . S
Eu417 O447 2.374 1_545 S
C418 C416 1.500 . S
C418 C419 1.377 . S
C418 C423 1.377 . S
C419 C418 1.377 . S
C419 C420 1.395 . S
C419 H448 0.931 . S
C420 C419 1.395 . S
C420 C421 1.383 . S
C420 H449 0.931 . S
C421 C420 1.383 . S
C421 C422 1.394 . S
C422 C421 1.394 . S
C422 C423 1.378 . S
C422 H450 0.931 . S
C423 C418 1.377 . S
C423 C422 1.378 . S
C423 H451 0.931 . S
C424 O438 1.259 . S
C424 O439 1.270 . S
C425 O440 1.251 . S
C425 O441 1.251 . S
C426 Eu427 2.835 . S
C426 C428 1.500 1_545 S
C426 O442 1.257 . S
C426 O443 1.260 . S
Eu427 C426 2.835 . S
Eu427 O439 2.355 . S
Eu427 O441 2.374 . S
Eu427 O442 2.473 . S
Eu427 O443 2.480 . S
Eu427 O444 2.430 . S
Eu427 O445 2.670 . S
Eu427 O446 2.394 1_545 S
C428 C426 1.500 1_565 S
C428 C429 1.377 . S
C428 C433 1.377 . S
C429 C428 1.377 . S
C429 C430 1.395 . S
C429 H452 0.896 1_565 S
C430 C429 1.395 . S
C430 C431 1.383 . S
C430 H453 0.931 . S
C431 C430 1.383 . S
C431 C432 1.394 . S
C432 C431 1.394 . S
C432 C433 1.378 . S
C432 H454 0.931 . S
C433 C428 1.377 . S
C433 C432 1.378 . S
C433 H455 0.931 . S
C434 O444 1.259 . S
C434 O445 1.270 . S
C435 O446 1.251 . S
C435 O447 1.251 . S
O436 C416 1.257 . S
O436 Eu417 2.473 . S
O437 C416 1.260 . S
O437 Eu417 2.480 . S
O438 Eu417 2.430 . S
O438 C424 1.259 . S
O439 Eu417 2.670 . S
O439 C424 1.270 . S
O439 Eu427 2.355 . S
O440 Eu417 2.394 . S
O440 C425 1.251 . S
O441 C425 1.251 . S
O441 Eu427 2.374 . S
O442 C426 1.257 . S
O442 Eu427 2.473 . S
O443 C426 1.260 . S
O443 Eu427 2.480 . S
O444 Eu427 2.430 . S
O444 C434 1.259 . S
O445 Eu417 2.355 . S
O445 Eu427 2.670 . S
O445 C434 1.270 . S
O446 Eu427 2.394 1_565 S
O446 C435 1.251 . S
O447 Eu417 2.374 1_565 S
O447 C435 1.251 . S
H448 C419 0.931 . S
H449 C420 0.931 . S
H450 C422 0.931 . S
H451 C423 0.931 . S
H452 C429 0.896 1_545 S
H453 C430 0.931 . S
H454 C432 0.931 . S
H455 C433 0.931 . S
C456 Eu457 2.835 . S
C456 C458 1.500 . S
C456 O476 1.257 . S
C456 O477 1.260 . S
Eu457 C456 2.835 . S
Eu457 O476 2.473 . S
Eu457 O477 2.480 . S
Eu457 O478 2.430 . S
Eu457 O479 2.670 . S
Eu457 O480 2.394 . S
Eu457 O485 2.355 . S
Eu457 O487 2.374 . S
C458 C456 1.500 . S
C458 C459 1.377 . S
C458 C463 1.377 . S
C459 C458 1.377 . S
C459 C460 1.395 . S
C459 H488 0.931 . S
C460 C459 1.395 . S
C460 C461 1.383 . S
C460 H489 0.931 . S
C461 C460 1.383 . S
C461 C462 1.394 . S
C462 C461 1.394 . S
C462 C463 1.378 . S
C462 H490 0.931 . S
C463 C458 1.377 . S
C463 C462 1.378 . S
C463 H491 0.931 . S
C464 O478 1.259 . S
C464 O479 1.270 . S
C465 O480 1.251 . S
C465 O481 1.251 . S
C466 Eu467 2.835 . S
C466 C468 1.500 . S
C466 O482 1.257 . S
C466 O483 1.260 . S
Eu467 C466 2.835 . S
Eu467 O479 2.355 . S
Eu467 O481 2.374 . S
Eu467 O482 2.473 . S
Eu467 O483 2.480 . S
Eu467 O484 2.430 . S
Eu467 O485 2.670 . S
Eu467 O486 2.394 . S
C468 C466 1.500 . S
C468 C469 1.377 . S
C468 C473 1.377 . S
C469 C468 1.377 . S
C469 C470 1.395 . S
C469 H492 0.931 . S
C470 C469 1.395 . S
C470 C471 1.383 . S
C470 H493 0.931 . S
C471 C470 1.383 . S
C471 C472 1.394 . S
C472 C471 1.394 . S
C472 C473 1.378 . S
C472 H494 0.931 . S
C473 C468 1.377 . S
C473 C472 1.378 . S
C473 H495 0.931 . S
C474 O484 1.259 . S
C474 O485 1.270 . S
C475 O486 1.251 . S
C475 O487 1.251 . S
O476 C456 1.257 . S
O476 Eu457 2.473 . S
O477 C456 1.260 . S
O477 Eu457 2.480 . S
O478 Eu457 2.430 . S
O478 C464 1.259 . S
O479 Eu457 2.670 . S
O479 C464 1.270 . S
O479 Eu467 2.355 . S
O480 Eu457 2.394 . S
O480 C465 1.251 . S
O481 C465 1.251 . S
O481 Eu467 2.374 . S
O482 C466 1.257 . S
O482 Eu467 2.473 . S
O483 C466 1.260 . S
O483 Eu467 2.480 . S
O484 Eu467 2.430 . S
O484 C474 1.259 . S
O485 Eu457 2.355 . S
O485 Eu467 2.670 . S
O485 C474 1.270 . S
O486 Eu467 2.394 . S
O486 C475 1.251 . S
O487 Eu457 2.374 . S
O487 C475 1.251 . S
H488 C459 0.931 . S
H489 C460 0.931 . S
H490 C462 0.931 . S
H491 C463 0.931 . S
H492 C469 0.931 . S
H493 C470 0.931 . S
H494 C472 0.931 . S
H495 C473 0.931 . S
C496 Eu497 2.852 . S
C496 C498 1.500 . S
C496 O516 1.257 . S
C496 O517 1.260 . S
Eu497 C496 2.852 . S
Eu497 O516 2.487 . S
Eu497 O517 2.496 . S
Eu497 O518 2.424 1_565 S
Eu497 O519 2.653 1_565 S
Eu497 O520 2.391 1_565 S
Eu497 O525 2.346 1_565 S
Eu497 O527 2.363 1_565 S
C498 C496 1.500 . S
C498 C499 1.377 . S
C498 C503 1.377 . S
C499 C498 1.377 . S
C499 C500 1.395 . S
C499 H528 0.931 . S
C500 C499 1.395 . S
C500 C501 1.383 . S
C500 H529 0.931 . S
C501 C500 1.383 . S
C501 C502 1.394 . S
C502 C501 1.394 . S
C502 C503 1.378 . S
C502 H530 0.931 . S
C503 C498 1.377 . S
C503 C502 1.378 . S
C503 H531 0.931 . S
C504 O518 1.259 . S
C504 O519 1.270 . S
C505 O520 1.251 . S
C505 O521 1.251 . S
C506 Eu507 2.835 . S
C506 C508 1.500 . S
C506 O522 1.257 . S
C506 O523 1.260 . S
Eu507 C506 2.835 . S
Eu507 O519 2.355 . S
Eu507 O521 2.374 . S
Eu507 O522 2.473 . S
Eu507 O523 2.480 . S
Eu507 O524 2.430 1_455 S
Eu507 O525 2.670 . S
Eu507 O526 2.394 . S
C508 C506 1.500 . S
C508 C509 1.377 . S
C508 C513 1.377 . S
C509 C508 1.377 . S
C509 C510 1.395 . S
C509 H532 0.931 1_455 S
C510 C509 1.395 . S
C510 C511 1.383 . S
C510 H533 0.931 1_455 S
C511 C510 1.383 . S
C511 C512 1.394 . S
C512 C511 1.394 . S
C512 C513 1.378 . S
C512 H534 0.931 . S
C513 C508 1.377 . S
C513 C512 1.378 . S
C513 H535 0.931 . S
C514 O524 1.259 . S
C514 O525 1.270 1_655 S
C515 O526 1.251 . S
C515 O527 1.251 . S
O516 C496 1.257 . S
O516 Eu497 2.487 . S
O517 C496 1.260 . S
O517 Eu497 2.496 . S
O518 Eu497 2.424 1_545 S
O518 C504 1.259 . S
O519 Eu497 2.653 1_545 S
O519 C504 1.270 . S
O519 Eu507 2.355 . S
O520 Eu497 2.391 1_545 S
O520 C505 1.251 . S
O521 C505 1.251 . S
O521 Eu507 2.374 . S
O522 C506 1.257 . S
O522 Eu507 2.473 . S
O523 C506 1.260 . S
O523 Eu507 2.480 . S
O524 Eu507 2.430 1_655 S
O524 C514 1.259 . S
O525 Eu497 2.346 1_545 S
O525 Eu507 2.670 . S
O525 C514 1.270 1_455 S
O526 Eu507 2.394 . S
O526 C515 1.251 . S
O527 Eu497 2.363 1_545 S
O527 C515 1.251 . S
H528 C499 0.931 . S
H529 C500 0.931 . S
H530 C502 0.931 . S
H531 C503 0.931 . S
H532 C509 0.931 1_655 S
H533 C510 0.931 1_655 S
H534 C512 0.931 . S
H535 C513 0.931 . S
C536 Eu537 2.835 . S
C536 C538 1.500 . S
C536 O556 1.257 . S
C536 O557 1.260 . S
Eu537 C536 2.835 . S
Eu537 O556 2.473 . S
Eu537 O557 2.480 . S
Eu537 O558 2.430 . S
Eu537 O559 2.670 . S
Eu537 O560 2.394 . S
Eu537 O565 2.355 . S
Eu537 O567 2.374 . S
C538 C536 1.500 . S
C538 C539 1.377 . S
C538 C543 1.377 . S
C539 C538 1.377 . S
C539 C540 1.395 . S
C539 H568 0.931 . S
C540 C539 1.395 . S
C540 C541 1.383 . S
C540 H569 0.931 . S
C541 C540 1.383 . S
C541 C542 1.394 . S
C542 C541 1.394 . S
C542 C543 1.378 . S
C542 H570 0.931 . S
C543 C538 1.377 . S
C543 C542 1.378 . S
C543 H571 0.931 . S
C544 O558 1.259 . S
C544 O559 1.270 . S
C545 O560 1.251 . S
C545 O561 1.251 . S
C546 Eu547 2.835 . S
C546 C548 1.500 . S
C546 O562 1.257 . S
C546 O563 1.260 . S
Eu547 C546 2.835 . S
Eu547 O559 2.355 . S
Eu547 O561 2.374 . S
Eu547 O562 2.473 . S
Eu547 O563 2.480 . S
Eu547 O564 2.430 . S
Eu547 O565 2.670 . S
Eu547 O566 2.394 . S
C548 C546 1.500 . S
C548 C549 1.377 . S
C548 C553 1.377 . S
C549 C548 1.377 . S
C549 C550 1.395 . S
C549 H572 0.931 . S
C550 C549 1.395 . S
C550 C551 1.383 . S
C550 H573 0.931 . S
C551 C550 1.383 . S
C551 C552 1.394 . S
C552 C551 1.394 . S
C552 C553 1.378 . S
C552 H574 0.931 . S
C553 C548 1.377 . S
C553 C552 1.378 . S
C553 H575 0.931 . S
C554 O564 1.259 . S
C554 O565 1.270 . S
C555 O566 1.251 . S
C555 O567 1.251 . S
O556 C536 1.257 . S
O556 Eu537 2.473 . S
O557 C536 1.260 . S
O557 Eu537 2.480 . S
O558 Eu537 2.430 . S
O558 C544 1.259 . S
O559 Eu537 2.670 . S
O559 C544 1.270 . S
O559 Eu547 2.355 . S
O560 Eu537 2.394 . S
O560 C545 1.251 . S
O561 C545 1.251 . S
O561 Eu547 2.374 . S
O562 C546 1.257 . S
O562 Eu547 2.473 . S
O563 C546 1.260 . S
O563 Eu547 2.480 . S
O564 Eu547 2.430 . S
O564 C554 1.259 . S
O565 Eu537 2.355 . S
O565 Eu547 2.670 . S
O565 C554 1.270 . S
O566 Eu547 2.394 . S
O566 C555 1.251 . S
O567 Eu537 2.374 . S
O567 C555 1.251 . S
H568 C539 0.931 . S
H569 C540 0.931 . S
H570 C542 0.931 . S
H571 C543 0.931 . S
H572 C549 0.931 . S
H573 C550 0.931 . S
H574 C552 0.931 . S
H575 C553 0.931 . S
C576 Eu577 2.835 . S
C576 C578 1.500 . S
C576 O596 1.257 . S
C576 O597 1.260 . S
Eu577 C576 2.835 . S
Eu577 O596 2.473 . S
Eu577 O597 2.480 . S
Eu577 O598 2.430 1_545 S
Eu577 O599 2.656 1_545 S
Eu577 O600 2.394 . S
Eu577 O605 2.355 . S
Eu577 O607 2.374 . S
C578 C576 1.500 . S
C578 C579 1.377 . S
C578 C583 1.377 . S
C579 C578 1.377 . S
C579 C580 1.395 . S
C579 H608 0.931 . S
C580 C579 1.395 . S
C580 C581 1.383 . S
C580 H609 0.931 . S
C581 C580 1.383 . S
C581 C582 1.394 . S
C582 C581 1.394 . S
C582 C583 1.378 . S
C582 H610 0.931 . S
C583 C578 1.377 . S
C583 C582 1.378 . S
C583 H611 0.931 . S
C584 O598 1.259 . S
C584 O599 1.297 . S
C585 O600 1.251 . S
C585 O601 1.251 . S
C586 Eu587 2.852 . S
C586 C588 1.485 1_545 S
C586 O602 1.215 1_545 S
C586 O603 1.319 . S
Eu587 C586 2.852 . S
Eu587 O599 2.330 1_545 S
Eu587 O601 2.374 . S
Eu587 O602 2.473 1_545 S
Eu587 O603 2.480 . S
Eu587 O604 2.430 . S
Eu587 O605 2.670 . S
Eu587 O606 2.394 . S
C588 C586 1.485 1_565 S
C588 C589 1.377 1_565 S
C588 C593 1.377 . S
C589 C588 1.377 1_545 S
C589 C590 1.395 1_545 S
C589 H612 0.931 . S
C590 C589 1.395 1_565 S
C590 C591 1.383 . S
C590 H613 0.925 1_565 S
C591 C590 1.383 . S
C591 C592 1.394 . S
C592 C591 1.394 . S
C592 C593 1.378 . S
C592 H614 0.931 . S
C593 C588 1.377 . S
C593 C592 1.378 . S
C593 H615 0.931 . S
C594 O604 1.259 . S
C594 O605 1.270 . S
C595 O606 1.251 . S
C595 O607 1.251 . S
O596 C576 1.257 . S
O596 Eu577 2.473 . S
O597 C576 1.260 . S
O597 Eu577 2.480 . S
O598 Eu577 2.430 1_565 S
O598 C584 1.259 . S
O599 Eu577 2.656 1_565 S
O599 C584 1.297 . S
O599 Eu587 2.330 1_565 S
O600 Eu577 2.394 . S
O600 C585 1.251 . S
O601 C585 1.251 . S
O601 Eu587 2.374 . S
O602 C586 1.215 1_565 S
O602 Eu587 2.473 1_565 S
O603 C586 1.319 . S
O603 Eu587 2.480 . S
O604 Eu587 2.430 . S
O604 C594 1.259 . S
O605 Eu577 2.355 . S
O605 Eu587 2.670 . S
O605 C594 1.270 . S
O606 Eu587 2.394 . S
O606 C595 1.251 . S
O607 Eu577 2.374 . S
O607 C595 1.251 . S
H608 C579 0.931 . S
H609 C580 0.931 . S
H610 C582 0.931 . S
H611 C583 0.931 . S
H612 C589 0.931 . S
H613 C590 0.925 1_545 S
H614 C592 0.931 . S
H615 C593 0.931 . S
C616 Eu617 2.835 . S
C616 C618 1.500 . S
C616 O636 1.257 . S
C616 O637 1.260 . S
Eu617 C616 2.835 . S
Eu617 O636 2.473 . S
Eu617 O637 2.480 . S
Eu617 O638 2.430 . S
Eu617 O639 2.670 . S
Eu617 O640 2.394 . S
Eu617 O645 2.355 . S
Eu617 O647 2.374 . S
C618 C616 1.500 . S
C618 C619 1.377 . S
C618 C623 1.377 . S
C619 C618 1.377 . S
C619 C620 1.395 . S
C619 H648 0.931 . S
C620 C619 1.395 . S
C620 C621 1.383 . S
C620 H649 0.931 . S
C621 C620 1.383 . S
C621 C622 1.394 . S
C622 C621 1.394 . S
C622 C623 1.378 . S
C622 H650 0.931 . S
C623 C618 1.377 . S
C623 C622 1.378 . S
C623 H651 0.931 . S
C624 O638 1.259 . S
C624 O639 1.270 . S
C625 O640 1.251 . S
C625 O641 1.251 . S
C626 Eu627 2.835 . S
C626 C628 1.500 . S
C626 O642 1.257 . S
C626 O643 1.260 . S
Eu627 C626 2.835 . S
Eu627 O639 2.355 . S
Eu627 O641 2.374 . S
Eu627 O642 2.473 . S
Eu627 O643 2.480 . S
Eu627 O644 2.430 . S
Eu627 O645 2.670 . S
Eu627 O646 2.394 . S
C628 C626 1.500 . S
C628 C629 1.377 . S
C628 C633 1.377 . S
C629 C628 1.377 . S
C629 C630 1.395 . S
C629 H652 0.931 . S
C630 C629 1.395 . S
C630 C631 1.383 . S
C630 H653 0.931 . S
C631 C630 1.383 . S
C631 C632 1.394 . S
C632 C631 1.394 . S
C632 C633 1.378 . S
C632 H654 0.931 . S
C633 C628 1.377 . S
C633 C632 1.378 . S
C633 H655 0.931 . S
C634 O644 1.259 . S
C634 O645 1.270 . S
C635 O646 1.251 . S
C635 O647 1.251 . S
O636 C616 1.257 . S
O636 Eu617 2.473 . S
O637 C616 1.260 . S
O637 Eu617 2.480 . S
O638 Eu617 2.430 . S
O638 C624 1.259 . S
O639 Eu617 2.670 . S
O639 C624 1.270 . S
O639 Eu627 2.355 . S
O640 Eu617 2.394 . S
O640 C625 1.251 . S
O641 C625 1.251 . S
O641 Eu627 2.374 . S
O642 C626 1.257 . S
O642 Eu627 2.473 . S
O643 C626 1.260 . S
O643 Eu627 2.480 . S
O644 Eu627 2.430 . S
O644 C634 1.259 . S
O645 Eu617 2.355 . S
O645 Eu627 2.670 . S
O645 C634 1.270 . S
O646 Eu627 2.394 . S
O646 C635 1.251 . S
O647 Eu617 2.374 . S
O647 C635 1.251 . S
H648 C619 0.931 . S
H649 C620 0.931 . S
H650 C622 0.931 . S
H651 C623 0.931 . S
H652 C629 0.931 . S
H653 C630 0.931 . S
H654 C632 0.931 . S
H655 C633 0.931 . S
C656 Eu657 2.835 . S
C656 C658 1.500 . S
C656 O676 1.257 . S
C656 O677 1.260 . S
Eu657 C656 2.835 . S
Eu657 O676 2.473 . S
Eu657 O677 2.480 . S
Eu657 O678 2.430 . S
Eu657 O679 2.670 . S
Eu657 O680 2.394 . S
Eu657 O685 2.355 . S
Eu657 O687 2.374 . S
C658 C656 1.500 . S
C658 C659 1.377 . S
C658 C663 1.377 . S
C659 C658 1.377 . S
C659 C660 1.395 . S
C659 H688 0.931 . S
C660 C659 1.395 . S
C660 C661 1.383 . S
C660 H689 0.931 . S
C661 C660 1.383 . S
C661 C662 1.394 . S
C662 C661 1.394 . S
C662 C663 1.378 . S
C662 H690 0.931 . S
C663 C658 1.377 . S
C663 C662 1.378 . S
C663 H691 0.931 . S
C664 O678 1.259 . S
C664 O679 1.270 . S
C665 O680 1.251 . S
C665 O681 1.251 . S
C666 Eu667 2.835 . S
C666 C668 1.500 . S
C666 O682 1.257 . S
C666 O683 1.260 . S
Eu667 C666 2.835 . S
Eu667 O679 2.355 . S
Eu667 O681 2.374 . S
Eu667 O682 2.473 . S
Eu667 O683 2.480 . S
Eu667 O684 2.430 . S
Eu667 O685 2.670 . S
Eu667 O686 2.394 . S
C668 C666 1.500 . S
C668 C669 1.377 . S
C668 C673 1.377 . S
C669 C668 1.377 . S
C669 C670 1.395 . S
C669 H692 0.931 . S
C670 C669 1.395 . S
C670 C671 1.383 . S
C670 H693 0.931 . S
C671 C670 1.383 . S
C671 C672 1.394 . S
C672 C671 1.394 . S
C672 C673 1.378 . S
C672 H694 0.931 1_554 S
C673 C668 1.377 . S
C673 C672 1.378 . S
C673 H695 0.931 . S
C674 O684 1.259 . S
C674 O685 1.270 . S
C675 O686 1.251 . S
C675 O687 1.251 . S
O676 C656 1.257 . S
O676 Eu657 2.473 . S
O677 C656 1.260 . S
O677 Eu657 2.480 . S
O678 Eu657 2.430 . S
O678 C664 1.259 . S
O679 Eu657 2.670 . S
O679 C664 1.270 . S
O679 Eu667 2.355 . S
O680 Eu657 2.394 . S
O680 C665 1.251 . S
O681 C665 1.251 . S
O681 Eu667 2.374 . S
O682 C666 1.257 . S
O682 Eu667 2.473 . S
O683 C666 1.260 . S
O683 Eu667 2.480 . S
O684 Eu667 2.430 . S
O684 C674 1.259 . S
O685 Eu657 2.355 . S
O685 Eu667 2.670 . S
O685 C674 1.270 . S
O686 Eu667 2.394 . S
O686 C675 1.251 . S
O687 Eu657 2.374 . S
O687 C675 1.251 . S
H688 C659 0.931 . S
H689 C660 0.931 . S
H690 C662 0.931 . S
H691 C663 0.931 . S
H692 C669 0.931 . S
H693 C670 0.931 . S
H694 C672 0.931 1_556 S
H695 C673 0.931 . S
C696 Eu697 2.835 . S
C696 C698 1.500 . S
C696 O716 1.257 . S
C696 O717 1.260 . S
Eu697 C696 2.835 . S
Eu697 O716 2.473 . S
Eu697 O717 2.480 . S
Eu697 O718 2.430 . S
Eu697 O719 2.670 . S
Eu697 O720 2.394 . S
Eu697 O725 2.355 . S
Eu697 O727 2.374 . S
C698 C696 1.500 . S
C698 C699 1.377 . S
C698 C703 1.377 . S
C699 C698 1.377 . S
C699 C700 1.395 . S
C699 H728 0.931 . S
C700 C699 1.395 . S
C700 C701 1.383 . S
C700 H729 0.931 . S
C701 C700 1.383 . S
C701 C702 1.394 . S
C702 C701 1.394 . S
C702 C703 1.378 . S
C702 H730 0.931 . S
C703 C698 1.377 . S
C703 C702 1.378 . S
C703 H731 0.931 . S
C704 O718 1.259 . S
C704 O719 1.270 . S
C705 O720 1.251 . S
C705 O721 1.251 . S
C706 Eu707 2.835 . S
C706 C708 1.500 . S
C706 O722 1.257 . S
C706 O723 1.260 . S
Eu707 C706 2.835 . S
Eu707 O719 2.355 . S
Eu707 O721 2.374 . S
Eu707 O722 2.473 . S
Eu707 O723 2.480 . S
Eu707 O724 2.430 . S
Eu707 O725 2.670 . S
Eu707 O726 2.394 . S
C708 C706 1.500 . S
C708 C709 1.377 . S
C708 C713 1.377 . S
C709 C708 1.377 . S
C709 C710 1.395 . S
C709 H732 0.931 . S
C710 C709 1.395 . S
C710 C711 1.383 . S
C710 H733 0.931 . S
C711 C710 1.383 . S
C711 C712 1.394 . S
C712 C711 1.394 . S
C712 C713 1.378 . S
C712 H734 0.931 . S
C713 C708 1.377 . S
C713 C712 1.378 . S
C713 H735 0.931 . S
C714 O724 1.259 . S
C714 O725 1.270 . S
C715 O726 1.251 . S
C715 O727 1.251 . S
O716 C696 1.257 . S
O716 Eu697 2.473 . S
O717 C696 1.260 . S
O717 Eu697 2.480 . S
O718 Eu697 2.430 . S
O718 C704 1.259 . S
O719 Eu697 2.670 . S
O719 C704 1.270 . S
O719 Eu707 2.355 . S
O720 Eu697 2.394 . S
O720 C705 1.251 . S
O721 C705 1.251 . S
O721 Eu707 2.374 . S
O722 C706 1.257 . S
O722 Eu707 2.473 . S
O723 C706 1.260 . S
O723 Eu707 2.480 . S
O724 Eu707 2.430 . S
O724 C714 1.259 . S
O725 Eu697 2.355 . S
O725 Eu707 2.670 . S
O725 C714 1.270 . S
O726 Eu707 2.394 . S
O726 C715 1.251 . S
O727 Eu697 2.374 . S
O727 C715 1.251 . S
H728 C699 0.931 . S
H729 C700 0.931 . S
H730 C702 0.931 . S
H731 C703 0.931 . S
H732 C709 0.931 . S
H733 C710 0.931 . S
H734 C712 0.931 . S
H735 C713 0.931 . S
C736 Eu737 2.835 . S
C736 C738 1.500 . S
C736 O756 1.257 . S
C736 O757 1.260 . S
Eu737 C736 2.835 . S
Eu737 O756 2.473 . S
Eu737 O757 2.480 . S
Eu737 O758 2.430 . S
Eu737 O759 2.670 . S
Eu737 O760 2.394 . S
Eu737 O765 2.355 . S
Eu737 O767 2.374 . S
C738 C736 1.500 . S
C738 C739 1.377 . S
C738 C743 1.377 . S
C739 C738 1.377 . S
C739 C740 1.395 . S
C739 H768 0.931 . S
C740 C739 1.395 . S
C740 C741 1.383 . S
C740 H769 0.931 . S
C741 C740 1.383 . S
C741 C742 1.394 . S
C742 C741 1.394 . S
C742 C743 1.378 . S
C742 H770 0.931 . S
C743 C738 1.377 . S
C743 C742 1.378 . S
C743 H771 0.931 . S
C744 O758 1.259 . S
C744 O759 1.270 . S
C745 O760 1.251 . S
C745 O761 1.251 . S
C746 Eu747 2.835 . S
C746 C748 1.500 . S
C746 O762 1.257 . S
C746 O763 1.260 . S
Eu747 C746 2.835 . S
Eu747 O759 2.355 1_655 S
Eu747 O761 2.374 1_655 S
Eu747 O762 2.473 . S
Eu747 O763 2.480 . S
Eu747 O764 2.430 . S
Eu747 O765 2.670 1_655 S
Eu747 O766 2.394 . S
C748 C746 1.500 . S
C748 C749 1.377 . S
C748 C753 1.377 . S
C749 C748 1.377 . S
C749 C750 1.395 . S
C749 H772 0.931 . S
C750 C749 1.395 . S
C750 C751 1.383 . S
C750 H773 0.931 . S
C751 C750 1.383 . S
C751 C752 1.394 . S
C752 C751 1.394 . S
C752 C753 1.378 . S
C752 H774 0.931 . S
C753 C748 1.377 . S
C753 C752 1.378 . S
C753 H775 0.931 . S
C754 O764 1.259 1_455 S
C754 O765 1.270 . S
C755 O766 1.251 1_455 S
C755 O767 1.251 . S
O756 C736 1.257 . S
O756 Eu737 2.473 . S
O757 C736 1.260 . S
O757 Eu737 2.480 . S
O758 Eu737 2.430 . S
O758 C744 1.259 . S
O759 Eu737 2.670 . S
O759 C744 1.270 . S
O759 Eu747 2.355 1_455 S
O760 Eu737 2.394 . S
O760 C745 1.251 . S
O761 C745 1.251 . S
O761 Eu747 2.374 1_455 S
O762 C746 1.257 . S
O762 Eu747 2.473 . S
O763 C746 1.260 . S
O763 Eu747 2.480 . S
O764 Eu747 2.430 . S
O764 C754 1.259 1_655 S
O765 Eu737 2.355 . S
O765 Eu747 2.670 1_455 S
O765 C754 1.270 . S
O766 Eu747 2.394 . S
O766 C755 1.251 1_655 S
O767 Eu737 2.374 . S
O767 C755 1.251 . S
H768 C739 0.931 . S
H769 C740 0.931 . S
H770 C742 0.931 . S
H771 C743 0.931 . S
H772 C749 0.931 . S
H773 C750 0.931 . S
H774 C752 0.931 . S
H775 C753 0.931 . S
C776 Eu777 2.835 . S
C776 C778 1.500 . S
C776 O796 1.257 . S
C776 O797 1.260 . S
Eu777 C776 2.835 . S
Eu777 O796 2.473 . S
Eu777 O797 2.480 . S
Eu777 O798 2.430 . S
Eu777 O799 2.670 . S
Eu777 O800 2.394 . S
Eu777 O805 2.355 . S
Eu777 O807 2.374 . S
C778 C776 1.500 . S
C778 C779 1.377 . S
C778 C783 1.377 . S
C779 C778 1.377 . S
C779 C780 1.395 . S
C779 H808 0.931 . S
C780 C779 1.395 . S
C780 C781 1.383 . S
C780 H809 0.931 . S
C781 C780 1.383 . S
C781 C782 1.394 . S
C782 C781 1.394 . S
C782 C783 1.378 . S
C782 H810 0.931 . S
C783 C778 1.377 . S
C783 C782 1.378 . S
C783 H811 0.931 . S
C784 O798 1.259 . S
C784 O799 1.270 . S
C785 O800 1.251 . S
C785 O801 1.251 . S
C786 Eu787 2.835 . S
C786 C788 1.500 . S
C786 O802 1.257 . S
C786 O803 1.260 . S
Eu787 C786 2.835 . S
Eu787 O799 2.355 . S
Eu787 O801 2.374 . S
Eu787 O802 2.473 . S
Eu787 O803 2.480 . S
Eu787 O804 2.430 . S
Eu787 O805 2.670 . S
Eu787 O806 2.394 . S
C788 C786 1.500 . S
C788 C789 1.377 . S
C788 C793 1.377 . S
C789 C788 1.377 . S
C789 C790 1.395 . S
C789 H812 0.931 . S
C790 C789 1.395 . S
C790 C791 1.383 . S
C790 H813 0.931 . S
C791 C790 1.383 . S
C791 C792 1.394 . S
C792 C791 1.394 . S
C792 C793 1.378 . S
C792 H814 0.931 . S
C793 C788 1.377 . S
C793 C792 1.378 . S
C793 H815 0.931 . S
C794 O804 1.259 . S
C794 O805 1.270 . S
C795 O806 1.251 . S
C795 O807 1.251 . S
O796 C776 1.257 . S
O796 Eu777 2.473 . S
O797 C776 1.260 . S
O797 Eu777 2.480 . S
O798 Eu777 2.430 . S
O798 C784 1.259 . S
O799 Eu777 2.670 . S
O799 C784 1.270 . S
O799 Eu787 2.355 . S
O800 Eu777 2.394 . S
O800 C785 1.251 . S
O801 C785 1.251 . S
O801 Eu787 2.374 . S
O802 C786 1.257 . S
O802 Eu787 2.473 . S
O803 C786 1.260 . S
O803 Eu787 2.480 . S
O804 Eu787 2.430 . S
O804 C794 1.259 . S
O805 Eu777 2.355 . S
O805 Eu787 2.670 . S
O805 C794 1.270 . S
O806 Eu787 2.394 . S
O806 C795 1.251 . S
O807 Eu777 2.374 . S
O807 C795 1.251 . S
H808 C779 0.931 . S
H809 C780 0.931 . S
H810 C782 0.931 . S
H811 C783 0.931 . S
H812 C789 0.931 . S
H813 C790 0.931 . S
H814 C792 0.931 . S
H815 C793 0.931 . S
C816 Eu817 2.835 . S
C816 C818 1.500 . S
C816 O836 1.257 . S
C816 O837 1.260 . S
Eu817 C816 2.835 . S
Eu817 O836 2.473 . S
Eu817 O837 2.480 . S
Eu817 O838 2.430 . S
Eu817 O839 2.670 . S
Eu817 O840 2.394 . S
Eu817 O845 2.355 . S
Eu817 O847 2.374 . S
C818 C816 1.500 . S
C818 C819 1.377 . S
C818 C823 1.377 . S
C819 C818 1.377 . S
C819 C820 1.395 . S
C819 H848 0.931 . S
C820 C819 1.395 . S
C820 C821 1.383 . S
C820 H849 0.931 . S
C821 C820 1.383 . S
C821 C822 1.394 . S
C822 C821 1.394 . S
C822 C823 1.378 . S
C822 H850 0.931 . S
C823 C818 1.377 . S
C823 C822 1.378 . S
C823 H851 0.931 . S
C824 O838 1.259 . S
C824 O839 1.270 . S
C825 O840 1.251 . S
C825 O841 1.251 . S
C826 Eu827 2.835 . S
C826 C828 1.500 . S
C826 O842 1.257 . S
C826 O843 1.260 . S
Eu827 C826 2.835 . S
Eu827 O839 2.355 . S
Eu827 O841 2.374 . S
Eu827 O842 2.473 . S
Eu827 O843 2.480 . S
Eu827 O844 2.430 . S
Eu827 O845 2.670 . S
Eu827 O846 2.394 . S
C828 C826 1.500 . S
C828 C829 1.377 . S
C828 C833 1.377 . S
C829 C828 1.377 . S
C829 C830 1.395 . S
C829 H852 0.931 . S
C830 C829 1.395 . S
C830 C831 1.383 . S
C830 H853 0.931 . S
C831 C830 1.383 . S
C831 C832 1.394 . S
C832 C831 1.394 . S
C832 C833 1.378 . S
C832 H854 0.931 . S
C833 C828 1.377 . S
C833 C832 1.378 . S
C833 H855 0.931 . S
C834 O844 1.259 . S
C834 O845 1.270 . S
C835 O846 1.251 . S
C835 O847 1.251 . S
O836 C816 1.257 . S
O836 Eu817 2.473 . S
O837 C816 1.260 . S
O837 Eu817 2.480 . S
O838 Eu817 2.430 . S
O838 C824 1.259 . S
O839 Eu817 2.670 . S
O839 C824 1.270 . S
O839 Eu827 2.355 . S
O840 Eu817 2.394 . S
O840 C825 1.251 . S
O841 C825 1.251 . S
O841 Eu827 2.374 . S
O842 C826 1.257 . S
O842 Eu827 2.473 . S
O843 C826 1.260 . S
O843 Eu827 2.480 . S
O844 Eu827 2.430 . S
O844 C834 1.259 . S
O845 Eu817 2.355 . S
O845 Eu827 2.670 . S
O845 C834 1.270 . S
O846 Eu827 2.394 . S
O846 C835 1.251 . S
O847 Eu817 2.374 . S
O847 C835 1.251 . S
H848 C819 0.931 . S
H849 C820 0.931 . S
H850 C822 0.931 . S
H851 C823 0.931 . S
H852 C829 0.931 . S
H853 C830 0.931 . S
H854 C832 0.931 . S
H855 C833 0.931 . S
C856 Eu857 2.835 . S
C856 C858 1.500 . S
C856 O876 1.257 . S
C856 O877 1.260 . S
Eu857 C856 2.835 . S
Eu857 O876 2.473 . S
Eu857 O877 2.480 . S
Eu857 O878 2.430 . S
Eu857 O879 2.670 . S
Eu857 O880 2.394 . S
Eu857 O885 2.355 . S
Eu857 O887 2.374 . S
C858 C856 1.500 . S
C858 C859 1.377 . S
C858 C863 1.377 . S
C859 C858 1.377 . S
C859 C860 1.395 . S
C859 H888 0.931 . S
C860 C859 1.395 . S
C860 C861 1.383 . S
C860 H889 0.931 . S
C861 C860 1.383 . S
C861 C862 1.394 . S
C862 C861 1.394 . S
C862 C863 1.378 . S
C862 H890 0.931 . S
C863 C858 1.377 . S
C863 C862 1.378 . S
C863 H891 0.931 . S
C864 O878 1.259 . S
C864 O879 1.270 . S
C865 O880 1.251 . S
C865 O881 1.251 . S
C866 Eu867 2.835 . S
C866 C868 1.500 . S
C866 O882 1.257 . S
C866 O883 1.260 . S
Eu867 C866 2.835 . S
Eu867 O879 2.355 . S
Eu867 O881 2.374 . S
Eu867 O882 2.473 . S
Eu867 O883 2.480 . S
Eu867 O884 2.430 . S
Eu867 O885 2.670 . S
Eu867 O886 2.394 . S
C868 C866 1.500 . S
C868 C869 1.377 . S
C868 C873 1.377 . S
C869 C868 1.377 . S
C869 C870 1.395 . S
C869 H892 0.931 . S
C870 C869 1.395 . S
C870 C871 1.383 . S
C870 H893 0.931 . S
C871 C870 1.383 . S
C871 C872 1.394 . S
C872 C871 1.394 . S
C872 C873 1.378 . S
C872 H894 0.931 . S
C873 C868 1.377 . S
C873 C872 1.378 . S
C873 H895 0.931 . S
C874 O884 1.259 . S
C874 O885 1.270 . S
C875 O886 1.251 . S
C875 O887 1.251 . S
O876 C856 1.257 . S
O876 Eu857 2.473 . S
O877 C856 1.260 . S
O877 Eu857 2.480 . S
O878 Eu857 2.430 . S
O878 C864 1.259 . S
O879 Eu857 2.670 . S
O879 C864 1.270 . S
O879 Eu867 2.355 . S
O880 Eu857 2.394 . S
O880 C865 1.251 . S
O881 C865 1.251 . S
O881 Eu867 2.374 . S
O882 C866 1.257 . S
O882 Eu867 2.473 . S
O883 C866 1.260 . S
O883 Eu867 2.480 . S
O884 Eu867 2.430 . S
O884 C874 1.259 . S
O885 Eu857 2.355 . S
O885 Eu867 2.670 . S
O885 C874 1.270 . S
O886 Eu867 2.394 . S
O886 C875 1.251 . S
O887 Eu857 2.374 . S
O887 C875 1.251 . S
H888 C859 0.931 . S
H889 C860 0.931 . S
H890 C862 0.931 . S
H891 C863 0.931 . S
H892 C869 0.931 . S
H893 C870 0.931 . S
H894 C872 0.931 . S
H895 C873 0.931 . S
C896 Eu897 2.835 . S
C896 C898 1.500 . S
C896 O916 1.257 . S
C896 O917 1.260 . S
Eu897 C896 2.835 . S
Eu897 O916 2.473 . S
Eu897 O917 2.480 . S
Eu897 O918 2.430 . S
Eu897 O919 2.670 . S
Eu897 O920 2.394 . S
Eu897 O925 2.355 . S
Eu897 O927 2.374 . S
C898 C896 1.500 . S
C898 C899 1.377 . S
C898 C903 1.377 . S
C899 C898 1.377 . S
C899 C900 1.395 . S
C899 H928 0.931 . S
C900 C899 1.395 . S
C900 C901 1.383 . S
C900 H929 0.931 . S
C901 C900 1.383 . S
C901 C902 1.394 . S
C902 C901 1.394 . S
C902 C903 1.378 . S
C902 H930 0.931 . S
C903 C898 1.377 . S
C903 C902 1.378 . S
C903 H931 0.931 . S
C904 O918 1.259 . S
C904 O919 1.270 . S
C905 O920 1.251 . S
C905 O921 1.251 . S
C906 Eu907 2.835 . S
C906 C908 1.500 . S
C906 O922 1.257 . S
C906 O923 1.260 . S
Eu907 C906 2.835 . S
Eu907 O919 2.355 . S
Eu907 O921 2.374 . S
Eu907 O922 2.473 . S
Eu907 O923 2.480 . S
Eu907 O924 2.430 . S
Eu907 O925 2.670 . S
Eu907 O926 2.394 . S
C908 C906 1.500 . S
C908 C909 1.377 . S
C908 C913 1.377 . S
C909 C908 1.377 . S
C909 C910 1.395 . S
C909 H932 0.931 . S
C910 C909 1.395 . S
C910 C911 1.383 . S
C910 H933 0.931 . S
C911 C910 1.383 . S
C911 C912 1.394 . S
C912 C911 1.394 . S
C912 C913 1.378 . S
C912 H934 0.931 . S
C913 C908 1.377 . S
C913 C912 1.378 . S
C913 H935 0.931 . S
C914 O924 1.259 . S
C914 O925 1.270 . S
C915 O926 1.251 . S
C915 O927 1.251 . S
O916 C896 1.257 . S
O916 Eu897 2.473 . S
O917 C896 1.260 . S
O917 Eu897 2.480 . S
O918 Eu897 2.430 . S
O918 C904 1.259 . S
O919 Eu897 2.670 . S
O919 C904 1.270 . S
O919 Eu907 2.355 . S
O920 Eu897 2.394 . S
O920 C905 1.251 . S
O921 C905 1.251 . S
O921 Eu907 2.374 . S
O922 C906 1.257 . S
O922 Eu907 2.473 . S
O923 C906 1.260 . S
O923 Eu907 2.480 . S
O924 Eu907 2.430 . S
O924 C914 1.259 . S
O925 Eu897 2.355 . S
O925 Eu907 2.670 . S
O925 C914 1.270 . S
O926 Eu907 2.394 . S
O926 C915 1.251 . S
O927 Eu897 2.374 . S
O927 C915 1.251 . S
H928 C899 0.931 . S
H929 C900 0.931 . S
H930 C902 0.931 . S
H931 C903 0.931 . S
H932 C909 0.931 . S
H933 C910 0.931 . S
H934 C912 0.931 . S
H935 C913 0.931 . S
C936 Eu937 2.835 . S
C936 C938 1.500 . S
C936 O956 1.257 . S
C936 O957 1.260 . S
Eu937 C936 2.835 . S
Eu937 O956 2.473 . S
Eu937 O957 2.480 . S
Eu937 O958 2.430 1_655 S
Eu937 O959 2.670 1_655 S
Eu937 O960 2.394 1_655 S
Eu937 O965 2.355 1_655 S
Eu937 O967 2.374 1_655 S
C938 C936 1.500 . S
C938 C939 1.377 . S
C938 C943 1.377 . S
C939 C938 1.377 . S
C939 C940 1.395 . S
C939 H968 0.931 . S
C940 C939 1.395 . S
C940 C941 1.383 . S
C940 H969 0.931 . S
C941 C940 1.383 . S
C941 C942 1.394 . S
C942 C941 1.394 . S
C942 C943 1.378 . S
C942 H970 0.931 . S
C943 C938 1.377 . S
C943 C942 1.378 . S
C943 H971 0.931 . S
C944 O958 1.259 . S
C944 O959 1.270 . S
C945 O960 1.251 . S
C945 O961 1.251 . S
C946 Eu947 2.835 . S
C946 C948 1.500 . S
C946 O962 1.257 . S
C946 O963 1.260 . S
Eu947 C946 2.835 . S
Eu947 O959 2.355 . S
Eu947 O961 2.374 . S
Eu947 O962 2.473 . S
Eu947 O963 2.480 . S
Eu947 O964 2.430 . S
Eu947 O965 2.670 . S
Eu947 O966 2.394 . S
C948 C946 1.500 . S
C948 C949 1.377 . S
C948 C953 1.377 . S
C949 C948 1.377 . S
C949 C950 1.395 . S
C949 H972 0.931 . S
C950 C949 1.395 . S
C950 C951 1.383 . S
C950 H973 0.931 . S
C951 C950 1.383 . S
C951 C952 1.394 . S
C952 C951 1.394 . S
C952 C953 1.378 . S
C952 H974 0.931 . S
C953 C948 1.377 . S
C953 C952 1.378 . S
C953 H975 0.931 . S
C954 O964 1.259 . S
C954 O965 1.270 . S
C955 O966 1.251 . S
C955 O967 1.251 . S
O956 C936 1.257 . S
O956 Eu937 2.473 . S
O957 C936 1.260 . S
O957 Eu937 2.480 . S
O958 Eu937 2.430 1_455 S
O958 C944 1.259 . S
O959 Eu937 2.670 1_455 S
O959 C944 1.270 . S
O959 Eu947 2.355 . S
O960 Eu937 2.394 1_455 S
O960 C945 1.251 . S
O961 C945 1.251 . S
O961 Eu947 2.374 . S
O962 C946 1.257 . S
O962 Eu947 2.473 . S
O963 C946 1.260 . S
O963 Eu947 2.480 . S
O964 Eu947 2.430 . S
O964 C954 1.259 . S
O965 Eu937 2.355 1_455 S
O965 Eu947 2.670 . S
O965 C954 1.270 . S
O966 Eu947 2.394 . S
O966 C955 1.251 . S
O967 Eu937 2.374 1_455 S
O967 C955 1.251 . S
H968 C939 0.931 . S
H969 C940 0.931 . S
H970 C942 0.931 . S
H971 C943 0.931 . S
H972 C949 0.931 . S
H973 C950 0.931 . S
H974 C952 0.931 . S
H975 C953 0.931 . S
C976 C977 1.349 . S
C976 C978 1.327 . S
C976 H1001 0.950 . S
C977 C976 1.349 . S
C977 C993 1.349 1_655 S
C978 C976 1.327 . S
C978 C997 1.429 1_655 S
C978 H1002 0.950 . S
C979 C996 1.574 . S
C979 C998 1.368 . S
C979 H1003 0.949 . S
H980 C984 0.949 . S
C981 C982 1.349 . S
C981 C983 1.327 . S
C981 H1004 0.950 . S
C982 C981 1.349 . S
C982 C994 1.349 . S
C983 C981 1.327 . S
C983 C999 1.429 . S
C983 H1005 0.950 . S
C984 H980 0.949 . S
C984 C992 1.574 . S
C984 C1000 1.368 1_655 S
H985 C993 0.950 . S
H986 C991 0.950 . S
H987 C992 0.949 . S
H988 C994 0.950 1_655 S
H989 C995 0.950 1_655 S
H990 C996 0.949 . S
C991 H986 0.950 . S
C991 C993 1.327 . S
C991 C997 1.429 . S
C992 C984 1.574 . S
C992 H987 0.949 . S
C992 C998 1.368 1_655 S
C993 C977 1.349 1_455 S
C993 H985 0.950 . S
C993 C991 1.327 . S
C994 C982 1.349 . S
C994 H988 0.950 1_455 S
C994 C995 1.327 . S
C995 H989 0.950 1_455 S
C995 C994 1.327 . S
C995 C999 1.429 . S
C996 C979 1.574 . S
C996 H990 0.949 . S
C996 C1000 1.368 . S
C997 C978 1.429 1_455 S
C997 C991 1.429 . S
C997 C998 1.523 . S
C998 C979 1.368 . S
C998 C992 1.368 1_455 S
C998 C997 1.523 . S
C999 C983 1.429 . S
C999 C995 1.429 . S
C999 C1000 1.523 1_554 S
C1000 C984 1.368 1_455 S
C1000 C996 1.368 . S
C1000 C999 1.523 1_556 S
H1001 C976 0.950 . S
H1002 C978 0.950 . S
H1003 C979 0.949 . S
H1004 C981 0.950 . S
H1005 C983 0.950 . S
C1006 C1007 1.349 . S
C1006 C1008 1.327 . S
C1006 H1031 0.950 . S
C1007 C1006 1.349 . S
C1007 C1023 1.349 . S
C1008 C1006 1.327 . S
C1008 C1027 1.429 . S
C1008 H1032 0.950 . S
C1009 C1026 1.574 . S
C1009 C1028 1.368 . S
C1009 H1033 0.949 . S
H1010 C1014 0.949 . S
C1011 C1012 1.349 . S
C1011 C1013 1.327 . S
C1011 H1034 0.950 . S
C1012 C1011 1.349 . S
C1012 C1024 1.349 . S
C1013 C1011 1.327 . S
C1013 C1029 1.429 . S
C1013 H1035 0.950 . S
C1014 H1010 0.949 . S
C1014 C1022 1.574 . S
C1014 C1030 1.368 . S
H1015 C1023 0.950 . S
H1016 C1021 0.950 . S
H1017 C1022 0.949 . S
H1018 C1024 0.950 . S
H1019 C1025 0.950 . S
H1020 C1026 0.949 . S
C1021 H1016 0.950 . S
C1021 C1023 1.327 . S
C1021 C1027 1.429 . S
C1022 C1014 1.574 . S
C1022 H1017 0.949 . S
C1022 C1028 1.368 . S
C1023 C1007 1.349 . S
C1023 H1015 0.950 . S
C1023 C1021 1.327 . S
C1024 C1012 1.349 . S
C1024 H1018 0.950 . S
C1024 C1025 1.327 . S
C1025 H1019 0.950 . S
C1025 C1024 1.327 . S
C1025 C1029 1.429 . S
C1026 C1009 1.574 . S
C1026 H1020 0.949 . S
C1026 C1030 1.368 . S
C1027 C1008 1.429 . S
C1027 C1021 1.429 . S
C1027 C1028 1.523 . S
C1028 C1009 1.368 . S
C1028 C1022 1.368 . S
C1028 C1027 1.523 . S
C1029 C1013 1.429 . S
C1029 C1025 1.429 . S
C1029 C1030 1.523 . S
C1030 C1014 1.368 . S
C1030 C1026 1.368 . S
C1030 C1029 1.523 . S
H1031 C1006 0.950 . S
H1032 C1008 0.950 . S
H1033 C1009 0.949 . S
H1034 C1011 0.950 . S
H1035 C1013 0.950 . S
C1036 C1037 1.349 . S
C1036 C1038 1.327 . S
C1036 H1061 0.950 . S
C1037 C1036 1.349 . S
C1037 C1053 1.349 . S
C1038 C1036 1.327 . S
C1038 C1057 1.429 . S
C1038 H1062 0.950 . S
C1039 C1056 1.574 . S
C1039 C1058 1.368 . S
C1039 H1063 0.949 . S
H1040 C1044 0.949 . S
C1041 C1042 1.349 . S
C1041 C1043 1.327 . S
C1041 H1064 0.950 . S
C1042 C1041 1.349 . S
C1042 C1054 1.349 . S
C1043 C1041 1.327 . S
C1043 C1059 1.429 . S
C1043 H1065 0.950 . S
C1044 H1040 0.949 . S
C1044 C1052 1.574 . S
C1044 C1060 1.368 . S
H1045 C1053 0.950 . S
H1046 C1051 0.950 . S
H1047 C1052 0.949 . S
H1048 C1054 0.950 . S
H1049 C1055 0.950 . S
H1050 C1056 0.949 . S
C1051 H1046 0.950 . S
C1051 C1053 1.327 . S
C1051 C1057 1.429 . S
C1052 C1044 1.574 . S
C1052 H1047 0.949 . S
C1052 C1058 1.368 . S
C1053 C1037 1.349 . S
C1053 H1045 0.950 . S
C1053 C1051 1.327 . S
C1054 C1042 1.349 . S
C1054 H1048 0.950 . S
C1054 C1055 1.327 . S
C1055 H1049 0.950 . S
C1055 C1054 1.327 . S
C1055 C1059 1.429 . S
C1056 C1039 1.574 . S
C1056 H1050 0.949 . S
C1056 C1060 1.368 . S
C1057 C1038 1.429 . S
C1057 C1051 1.429 . S
C1057 C1058 1.523 . S
C1058 C1039 1.368 . S
C1058 C1052 1.368 . S
C1058 C1057 1.523 . S
C1059 C1043 1.429 . S
C1059 C1055 1.429 . S
C1059 C1060 1.523 . S
C1060 C1044 1.368 . S
C1060 C1056 1.368 . S
C1060 C1059 1.523 . S
H1061 C1036 0.950 . S
H1062 C1038 0.950 . S
H1063 C1039 0.949 . S
H1064 C1041 0.950 . S
H1065 C1043 0.950 . S
C1066 C1067 1.349 . S
C1066 C1068 1.327 . S
C1066 H1091 0.950 . S
C1067 C1066 1.349 . S
C1067 C1083 1.349 . S
C1068 C1066 1.327 . S
C1068 C1087 1.429 . S
C1068 H1092 0.950 . S
C1069 C1086 1.574 . S
C1069 C1088 1.368 . S
C1069 H1093 0.949 . S
H1070 C1074 0.949 . S
C1071 C1072 1.349 . S
C1071 C1073 1.327 . S
C1071 H1094 0.950 . S
C1072 C1071 1.349 . S
C1072 C1084 1.349 . S
C1073 C1071 1.327 . S
C1073 C1089 1.429 . S
C1073 H1095 0.950 . S
C1074 H1070 0.949 . S
C1074 C1082 1.574 . S
C1074 C1090 1.368 . S
H1075 C1083 0.950 . S
H1076 C1081 0.950 . S
H1077 C1082 0.949 . S
H1078 C1084 0.950 . S
H1079 C1085 0.950 . S
H1080 C1086 0.949 . S
C1081 H1076 0.950 . S
C1081 C1083 1.327 . S
C1081 C1087 1.429 . S
C1082 C1074 1.574 . S
C1082 H1077 0.949 . S
C1082 C1088 1.368 . S
C1083 C1067 1.349 . S
C1083 H1075 0.950 . S
C1083 C1081 1.327 . S
C1084 C1072 1.349 . S
C1084 H1078 0.950 . S
C1084 C1085 1.327 . S
C1085 H1079 0.950 . S
C1085 C1084 1.327 . S
C1085 C1089 1.429 . S
C1086 C1069 1.574 . S
C1086 H1080 0.949 . S
C1086 C1090 1.368 . S
C1087 C1068 1.429 . S
C1087 C1081 1.429 . S
C1087 C1088 1.523 . S
C1088 C1069 1.368 . S
C1088 C1082 1.368 . S
C1088 C1087 1.523 . S
C1089 C1073 1.429 . S
C1089 C1085 1.429 . S
C1089 C1090 1.523 . S
C1090 C1074 1.368 . S
C1090 C1086 1.368 . S
C1090 C1089 1.523 . S
H1091 C1066 0.950 . S
H1092 C1068 0.950 . S
H1093 C1069 0.949 . S
H1094 C1071 0.950 . S
H1095 C1073 0.950 . S
C1096 C1097 1.349 . S
C1096 C1098 1.327 . S
C1096 H1121 0.950 1_455 S
C1097 C1096 1.349 . S
C1097 C1113 1.349 . S
C1098 C1096 1.327 . S
C1098 C1117 1.429 . S
C1098 H1122 0.950 . S
C1099 C1116 1.574 . S
C1099 C1118 1.368 . S
C1099 H1123 0.949 . S
H1100 C1104 0.949 . S
C1101 C1102 1.349 . S
C1101 C1103 1.327 . S
C1101 H1124 0.950 . S
C1102 C1101 1.349 . S
C1102 C1114 1.349 . S
C1103 C1101 1.327 . S
C1103 C1119 1.429 . S
C1103 H1125 0.950 . S
C1104 H1100 0.949 . S
C1104 C1112 1.574 . S
C1104 C1120 1.368 . S
H1105 C1113 0.950 . S
H1106 C1111 0.950 . S
H1107 C1112 0.949 . S
H1108 C1114 0.950 . S
H1109 C1115 0.950 . S
H1110 C1116 0.949 . S
C1111 H1106 0.950 . S
C1111 C1113 1.327 . S
C1111 C1117 1.429 . S
C1112 C1104 1.574 . S
C1112 H1107 0.949 . S
C1112 C1118 1.368 . S
C1113 C1097 1.349 . S
C1113 H1105 0.950 . S
C1113 C1111 1.327 . S
C1114 C1102 1.349 . S
C1114 H1108 0.950 . S
C1114 C1115 1.327 . S
C1115 H1109 0.950 . S
C1115 C1114 1.327 . S
C1115 C1119 1.429 . S
C1116 C1099 1.574 . S
C1116 H1110 0.949 . S
C1116 C1120 1.368 . S
C1117 C1098 1.429 . S
C1117 C1111 1.429 . S
C1117 C1118 1.523 . S
C1118 C1099 1.368 . S
C1118 C1112 1.368 . S
C1118 C1117 1.523 . S
C1119 C1103 1.429 . S
C1119 C1115 1.429 . S
C1119 C1120 1.523 . S
C1120 C1104 1.368 . S
C1120 C1116 1.368 . S
C1120 C1119 1.523 . S
H1121 C1096 0.950 1_655 S
H1122 C1098 0.950 . S
H1123 C1099 0.949 . S
H1124 C1101 0.950 . S
H1125 C1103 0.950 . S
C1126 C1127 1.349 . S
C1126 C1128 1.327 . S
C1126 H1151 0.950 . S
C1127 C1126 1.349 . S
C1127 C1143 1.349 . S
C1128 C1126 1.327 . S
C1128 C1147 1.429 . S
C1128 H1152 0.950 . S
C1129 C1146 1.574 . S
C1129 C1148 1.368 . S
C1129 H1153 0.949 . S
H1130 C1134 0.949 . S
C1131 C1132 1.349 . S
C1131 C1133 1.327 . S
C1131 H1154 0.950 . S
C1132 C1131 1.349 . S
C1132 C1144 1.349 . S
C1133 C1131 1.327 . S
C1133 C1149 1.429 . S
C1133 H1155 0.950 . S
C1134 H1130 0.949 . S
C1134 C1142 1.574 . S
C1134 C1150 1.368 . S
H1135 C1143 0.950 . S
H1136 C1141 0.950 . S
H1137 C1142 0.949 . S
H1138 C1144 0.950 . S
H1139 C1145 0.950 . S
H1140 C1146 0.949 . S
C1141 H1136 0.950 . S
C1141 C1143 1.327 . S
C1141 C1147 1.429 . S
C1142 C1134 1.574 . S
C1142 H1137 0.949 . S
C1142 C1148 1.368 . S
C1143 C1127 1.349 . S
C1143 H1135 0.950 . S
C1143 C1141 1.327 . S
C1144 C1132 1.349 . S
C1144 H1138 0.950 . S
C1144 C1145 1.327 . S
C1145 H1139 0.950 . S
C1145 C1144 1.327 . S
C1145 C1149 1.429 . S
C1146 C1129 1.574 . S
C1146 H1140 0.949 . S
C1146 C1150 1.368 . S
C1147 C1128 1.429 . S
C1147 C1141 1.429 . S
C1147 C1148 1.523 . S
C1148 C1129 1.368 . S
C1148 C1142 1.368 . S
C1148 C1147 1.523 . S
C1149 C1133 1.429 . S
C1149 C1145 1.429 . S
C1149 C1150 1.523 . S
C1150 C1134 1.368 . S
C1150 C1146 1.368 . S
C1150 C1149 1.523 . S
H1151 C1126 0.950 . S
H1152 C1128 0.950 . S
H1153 C1129 0.949 . S
H1154 C1131 0.950 . S
H1155 C1133 0.950 . S
C1156 C1157 1.349 . S
C1156 C1158 1.327 . S
C1156 H1181 0.950 . S
C1157 C1156 1.349 . S
C1157 C1173 1.349 . S
C1158 C1156 1.327 . S
C1158 C1177 1.429 . S
C1158 H1182 0.950 . S
C1159 C1176 1.574 . S
C1159 C1178 1.368 . S
C1159 H1183 0.949 . S
H1160 C1164 0.949 . S
C1161 C1162 1.349 . S
C1161 C1163 1.327 . S
C1161 H1184 0.950 . S
C1162 C1161 1.349 . S
C1162 C1174 1.349 . S
C1163 C1161 1.327 . S
C1163 C1179 1.429 . S
C1163 H1185 0.950 . S
C1164 H1160 0.949 . S
C1164 C1172 1.574 . S
C1164 C1180 1.368 . S
H1165 C1173 0.950 . S
H1166 C1171 0.950 . S
H1167 C1172 0.949 . S
H1168 C1174 0.950 . S
H1169 C1175 0.950 . S
H1170 C1176 0.949 . S
C1171 H1166 0.950 . S
C1171 C1173 1.327 . S
C1171 C1177 1.429 . S
C1172 C1164 1.574 . S
C1172 H1167 0.949 . S
C1172 C1178 1.368 . S
C1173 C1157 1.349 . S
C1173 H1165 0.950 . S
C1173 C1171 1.327 . S
C1174 C1162 1.349 . S
C1174 H1168 0.950 . S
C1174 C1175 1.327 . S
C1175 H1169 0.950 . S
C1175 C1174 1.327 . S
C1175 C1179 1.429 . S
C1176 C1159 1.574 . S
C1176 H1170 0.949 . S
C1176 C1180 1.368 . S
C1177 C1158 1.429 . S
C1177 C1171 1.429 . S
C1177 C1178 1.523 . S
C1178 C1159 1.368 . S
C1178 C1172 1.368 . S
C1178 C1177 1.523 . S
C1179 C1163 1.429 . S
C1179 C1175 1.429 . S
C1179 C1180 1.523 . S
C1180 C1164 1.368 . S
C1180 C1176 1.368 . S
C1180 C1179 1.523 . S
H1181 C1156 0.950 . S
H1182 C1158 0.950 . S
H1183 C1159 0.949 . S
H1184 C1161 0.950 . S
H1185 C1163 0.950 . S
C1186 C1187 1.349 . S
C1186 C1188 1.327 . S
C1186 H1211 0.950 . S
C1187 C1186 1.349 . S
C1187 C1203 1.349 . S
C1188 C1186 1.327 . S
C1188 C1207 1.429 . S
C1188 H1212 0.950 . S
C1189 C1206 1.574 . S
C1189 C1208 1.368 . S
C1189 H1213 0.949 . S
H1190 C1194 0.949 . S
C1191 C1192 1.349 . S
C1191 C1193 1.327 . S
C1191 H1214 0.950 . S
C1192 C1191 1.349 . S
C1192 C1204 1.349 . S
C1193 C1191 1.327 . S
C1193 C1209 1.429 . S
C1193 H1215 0.950 . S
C1194 H1190 0.949 . S
C1194 C1202 1.574 . S
C1194 C1210 1.368 . S
H1195 C1203 0.950 . S
H1196 C1201 0.950 . S
H1197 C1202 0.949 . S
H1198 C1204 0.950 . S
H1199 C1205 0.950 . S
H1200 C1206 0.949 . S
C1201 H1196 0.950 . S
C1201 C1203 1.327 . S
C1201 C1207 1.429 . S
C1202 C1194 1.574 . S
C1202 H1197 0.949 . S
C1202 C1208 1.368 . S
C1203 C1187 1.349 . S
C1203 H1195 0.950 . S
C1203 C1201 1.327 . S
C1204 C1192 1.349 . S
C1204 H1198 0.950 . S
C1204 C1205 1.327 . S
C1205 H1199 0.950 . S
C1205 C1204 1.327 . S
C1205 C1209 1.429 . S
C1206 C1189 1.574 . S
C1206 H1200 0.949 . S
C1206 C1210 1.368 . S
C1207 C1188 1.429 . S
C1207 C1201 1.429 . S
C1207 C1208 1.523 . S
C1208 C1189 1.368 . S
C1208 C1202 1.368 . S
C1208 C1207 1.523 . S
C1209 C1193 1.429 . S
C1209 C1205 1.429 . S
C1209 C1210 1.523 . S
C1210 C1194 1.368 . S
C1210 C1206 1.368 . S
C1210 C1209 1.523 . S
H1211 C1186 0.950 . S
H1212 C1188 0.950 . S
H1213 C1189 0.949 . S
H1214 C1191 0.950 . S
H1215 C1193 0.950 . S
C1216 C1217 1.349 . S
C1216 C1218 1.327 . S
C1216 H1241 0.950 . S
C1217 C1216 1.349 . S
C1217 C1233 1.349 . S
C1218 C1216 1.327 . S
C1218 C1237 1.429 . S
C1218 H1242 0.950 . S
C1219 C1236 1.574 . S
C1219 C1238 1.368 . S
C1219 H1243 0.949 . S
H1220 C1224 0.949 . S
C1221 C1222 1.349 1_655 S
C1221 C1223 1.327 . S
C1221 H1244 0.950 . S
C1222 C1221 1.349 1_455 S
C1222 C1234 1.349 . S
C1223 C1221 1.327 . S
C1223 C1239 1.429 . S
C1223 H1245 0.950 . S
C1224 H1220 0.949 . S
C1224 C1232 1.574 . S
C1224 C1240 1.368 . S
H1225 C1233 0.950 . S
H1226 C1231 0.950 . S
H1227 C1232 0.949 . S
H1228 C1234 0.950 . S
H1229 C1235 0.950 . S
H1230 C1236 0.949 . S
C1231 H1226 0.950 . S
C1231 C1233 1.327 . S
C1231 C1237 1.429 . S
C1232 C1224 1.574 . S
C1232 H1227 0.949 . S
C1232 C1238 1.368 . S
C1233 C1217 1.349 . S
C1233 H1225 0.950 . S
C1233 C1231 1.327 . S
C1234 C1222 1.349 . S
C1234 H1228 0.950 . S
C1234 C1235 1.327 1_455 S
C1235 H1229 0.950 . S
C1235 C1234 1.327 1_655 S
C1235 C1239 1.429 . S
C1236 C1219 1.574 . S
C1236 H1230 0.949 . S
C1236 C1240 1.368 . S
C1237 C1218 1.429 . S
C1237 C1231 1.429 . S
C1237 C1238 1.523 . S
C1238 C1219 1.368 . S
C1238 C1232 1.368 . S
C1238 C1237 1.523 . S
C1239 C1223 1.429 . S
C1239 C1235 1.429 . S
C1239 C1240 1.523 . S
C1240 C1224 1.368 . S
C1240 C1236 1.368 . S
C1240 C1239 1.523 . S
H1241 C1216 0.950 . S
H1242 C1218 0.950 . S
H1243 C1219 0.949 . S
H1244 C1221 0.950 . S
H1245 C1223 0.950 . S
C1246 C1247 1.349 . S
C1246 C1248 1.327 . S
C1246 H1271 0.950 . S
C1247 C1246 1.349 . S
C1247 C1263 1.349 . S
C1248 C1246 1.327 . S
C1248 C1267 1.429 . S
C1248 H1272 0.950 . S
C1249 C1266 1.574 . S
C1249 C1268 1.368 . S
C1249 H1273 0.949 . S
H1250 C1254 0.949 . S
C1251 C1252 1.349 . S
C1251 C1253 1.327 . S
C1251 H1274 0.950 . S
C1252 C1251 1.349 . S
C1252 C1264 1.349 . S
C1253 C1251 1.327 . S
C1253 C1269 1.429 . S
C1253 H1275 0.950 . S
C1254 H1250 0.949 . S
C1254 C1262 1.574 . S
C1254 C1270 1.368 . S
H1255 C1263 0.950 . S
H1256 C1261 0.950 . S
H1257 C1262 0.949 . S
H1258 C1264 0.950 . S
H1259 C1265 0.950 . S
H1260 C1266 0.949 . S
C1261 H1256 0.950 . S
C1261 C1263 1.327 . S
C1261 C1267 1.429 . S
C1262 C1254 1.574 . S
C1262 H1257 0.949 . S
C1262 C1268 1.368 . S
C1263 C1247 1.349 . S
C1263 H1255 0.950 . S
C1263 C1261 1.327 . S
C1264 C1252 1.349 . S
C1264 H1258 0.950 . S
C1264 C1265 1.327 . S
C1265 H1259 0.950 . S
C1265 C1264 1.327 . S
C1265 C1269 1.429 . S
C1266 C1249 1.574 . S
C1266 H1260 0.949 . S
C1266 C1270 1.368 . S
C1267 C1248 1.429 . S
C1267 C1261 1.429 . S
C1267 C1268 1.523 . S
C1268 C1249 1.368 . S
C1268 C1262 1.368 . S
C1268 C1267 1.523 . S
C1269 C1253 1.429 . S
C1269 C1265 1.429 . S
C1269 C1270 1.523 . S
C1270 C1254 1.368 . S
C1270 C1266 1.368 . S
C1270 C1269 1.523 . S
H1271 C1246 0.950 . S
H1272 C1248 0.950 . S
H1273 C1249 0.949 . S
H1274 C1251 0.950 . S
H1275 C1253 0.950 . S
C1276 C1277 1.349 . S
C1276 C1278 1.327 . S
C1276 H1301 0.950 . S
C1277 C1276 1.349 . S
C1277 C1293 1.349 . S
C1278 C1276 1.327 . S
C1278 C1297 1.429 . S
C1278 H1302 0.950 . S
C1279 C1296 1.574 . S
C1279 C1298 1.368 . S
C1279 H1303 0.949 1_545 S
H1280 C1284 0.949 . S
C1281 C1282 1.349 . S
C1281 C1283 1.327 . S
C1281 H1304 0.950 1_545 S
C1282 C1281 1.349 . S
C1282 C1294 1.349 . S
C1283 C1281 1.327 . S
C1283 C1299 1.429 . S
C1283 H1305 0.950 1_545 S
C1284 H1280 0.949 . S
C1284 C1292 1.574 . S
C1284 C1300 1.368 . S
H1285 C1293 0.950 1_565 S
H1286 C1291 0.950 1_565 S
H1287 C1292 0.949 . S
H1288 C1294 0.950 . S
H1289 C1295 0.950 . S
H1290 C1296 0.949 1_565 S
C1291 H1286 0.950 1_545 S
C1291 C1293 1.327 . S
C1291 C1297 1.429 . S
C1292 C1284 1.574 . S
C1292 H1287 0.949 . S
C1292 C1298 1.368 . S
C1293 C1277 1.349 . S
C1293 H1285 0.950 1_545 S
C1293 C1291 1.327 . S
C1294 C1282 1.349 . S
C1294 H1288 0.950 . S
C1294 C1295 1.327 . S
C1295 H1289 0.950 . S
C1295 C1294 1.327 . S
C1295 C1299 1.429 . S
C1296 C1279 1.574 . S
C1296 H1290 0.949 1_545 S
C1296 C1300 1.368 . S
C1297 C1278 1.429 . S
C1297 C1291 1.429 . S
C1297 C1298 1.523 . S
C1298 C1279 1.368 . S
C1298 C1292 1.368 . S
C1298 C1297 1.523 . S
C1299 C1283 1.429 . S
C1299 C1295 1.429 . S
C1299 C1300 1.523 . S
C1300 C1284 1.368 . S
C1300 C1296 1.368 . S
C1300 C1299 1.523 . S
H1301 C1276 0.950 . S
H1302 C1278 0.950 . S
H1303 C1279 0.949 1_565 S
H1304 C1281 0.950 1_565 S
H1305 C1283 0.950 1_565 S
C1306 C1307 1.349 . S
C1306 C1308 1.327 . S
C1306 H1331 0.950 . S
C1307 C1306 1.349 . S
C1307 C1323 1.349 . S
C1308 C1306 1.327 . S
C1308 C1327 1.429 . S
C1308 H1332 0.950 . S
C1309 C1326 1.574 . S
C1309 C1328 1.368 . S
C1309 H1333 0.949 . S
H1310 C1314 0.949 . S
C1311 C1312 1.349 . S
C1311 C1313 1.327 . S
C1311 H1334 0.950 . S
C1312 C1311 1.349 . S
C1312 C1324 1.349 . S
C1313 C1311 1.327 . S
C1313 C1329 1.429 . S
C1313 H1335 0.950 . S
C1314 H1310 0.949 . S
C1314 C1322 1.574 . S
C1314 C1330 1.368 . S
H1315 C1323 0.950 . S
H1316 C1321 0.950 . S
H1317 C1322 0.949 . S
H1318 C1324 0.950 . S
H1319 C1325 0.950 . S
H1320 C1326 0.949 . S
C1321 H1316 0.950 . S
C1321 C1323 1.327 . S
C1321 C1327 1.429 . S
C1322 C1314 1.574 . S
C1322 H1317 0.949 . S
C1322 C1328 1.368 . S
C1323 C1307 1.349 . S
C1323 H1315 0.950 . S
C1323 C1321 1.327 . S
C1324 C1312 1.349 . S
C1324 H1318 0.950 . S
C1324 C1325 1.327 . S
C1325 H1319 0.950 . S
C1325 C1324 1.327 . S
C1325 C1329 1.429 . S
C1326 C1309 1.574 . S
C1326 H1320 0.949 . S
C1326 C1330 1.368 . S
C1327 C1308 1.429 . S
C1327 C1321 1.429 . S
C1327 C1328 1.523 . S
C1328 C1309 1.368 . S
C1328 C1322 1.368 . S
C1328 C1327 1.523 . S
C1329 C1313 1.429 . S
C1329 C1325 1.429 . S
C1329 C1330 1.523 . S
C1330 C1314 1.368 . S
C1330 C1326 1.368 . S
C1330 C1329 1.523 . S
H1331 C1306 0.950 . S
H1332 C1308 0.950 . S
H1333 C1309 0.949 . S
H1334 C1311 0.950 . S
H1335 C1313 0.950 . S
C1336 C1337 1.349 . S
C1336 C1338 1.327 . S
C1336 H1361 0.950 . S
C1337 C1336 1.349 . S
C1337 C1353 1.349 . S
C1338 C1336 1.327 . S
C1338 C1357 1.429 . S
C1338 H1362 0.950 . S
C1339 C1356 1.574 . S
C1339 C1358 1.368 . S
C1339 H1363 0.949 . S
H1340 C1344 0.949 . S
C1341 C1342 1.349 . S
C1341 C1343 1.327 1_455 S
C1341 H1364 0.950 . S
C1342 C1341 1.349 . S
C1342 C1354 1.349 . S
C1343 C1341 1.327 1_655 S
C1343 C1359 1.429 . S
C1343 H1365 0.950 . S
C1344 H1340 0.949 . S
C1344 C1352 1.574 . S
C1344 C1360 1.368 . S
H1345 C1353 0.950 . S
H1346 C1351 0.950 . S
H1347 C1352 0.949 . S
H1348 C1354 0.950 . S
H1349 C1355 0.950 . S
H1350 C1356 0.949 . S
C1351 H1346 0.950 . S
C1351 C1353 1.327 . S
C1351 C1357 1.429 . S
C1352 C1344 1.574 . S
C1352 H1347 0.949 . S
C1352 C1358 1.368 . S
C1353 C1337 1.349 . S
C1353 H1345 0.950 . S
C1353 C1351 1.327 . S
C1354 C1342 1.349 . S
C1354 H1348 0.950 . S
C1354 C1355 1.327 1_455 S
C1355 H1349 0.950 . S
C1355 C1354 1.327 1_655 S
C1355 C1359 1.429 . S
C1356 C1339 1.574 . S
C1356 H1350 0.949 . S
C1356 C1360 1.368 . S
C1357 C1338 1.429 . S
C1357 C1351 1.429 . S
C1357 C1358 1.523 . S
C1358 C1339 1.368 . S
C1358 C1352 1.368 . S
C1358 C1357 1.523 . S
C1359 C1343 1.429 . S
C1359 C1355 1.429 . S
C1359 C1360 1.523 . S
C1360 C1344 1.368 . S
C1360 C1356 1.368 . S
C1360 C1359 1.523 . S
H1361 C1336 0.950 . S
H1362 C1338 0.950 . S
H1363 C1339 0.949 . S
H1364 C1341 0.950 . S
H1365 C1343 0.950 . S
C1366 C1367 1.349 . S
C1366 C1368 1.327 . S
C1366 H1391 0.950 . S
C1367 C1366 1.349 . S
C1367 C1383 1.349 . S
C1368 C1366 1.327 . S
C1368 C1387 1.429 . S
C1368 H1392 0.950 . S
C1369 C1386 1.574 . S
C1369 C1388 1.368 . S
C1369 H1393 0.949 . S
H1370 C1374 0.949 . S
C1371 C1372 1.349 . S
C1371 C1373 1.327 . S
C1371 H1394 0.950 . S
C1372 C1371 1.349 . S
C1372 C1384 1.349 . S
C1373 C1371 1.327 . S
C1373 C1389 1.429 . S
C1373 H1395 0.950 . S
C1374 H1370 0.949 . S
C1374 C1382 1.574 . S
C1374 C1390 1.368 . S
H1375 C1383 0.950 . S
H1376 C1381 0.950 . S
H1377 C1382 0.949 . S
H1378 C1384 0.950 . S
H1379 C1385 0.950 . S
H1380 C1386 0.949 . S
C1381 H1376 0.950 . S
C1381 C1383 1.327 . S
C1381 C1387 1.429 . S
C1382 C1374 1.574 . S
C1382 H1377 0.949 . S
C1382 C1388 1.368 . S
C1383 C1367 1.349 . S
C1383 H1375 0.950 . S
C1383 C1381 1.327 . S
C1384 C1372 1.349 . S
C1384 H1378 0.950 . S
C1384 C1385 1.327 . S
C1385 H1379 0.950 . S
C1385 C1384 1.327 . S
C1385 C1389 1.429 . S
C1386 C1369 1.574 . S
C1386 H1380 0.949 . S
C1386 C1390 1.368 . S
C1387 C1368 1.429 . S
C1387 C1381 1.429 . S
C1387 C1388 1.523 . S
C1388 C1369 1.368 . S
C1388 C1382 1.368 . S
C1388 C1387 1.523 . S
C1389 C1373 1.429 . S
C1389 C1385 1.429 . S
C1389 C1390 1.523 . S
C1390 C1374 1.368 . S
C1390 C1386 1.368 . S
C1390 C1389 1.523 . S
H1391 C1366 0.950 . S
H1392 C1368 0.950 . S
H1393 C1369 0.949 . S
H1394 C1371 0.950 . S
H1395 C1373 0.950 . S
C1396 C1397 1.349 . S
C1396 C1398 1.327 . S
C1396 H1421 0.950 . S
C1397 C1396 1.349 . S
C1397 C1413 1.349 . S
C1398 C1396 1.327 . S
C1398 C1417 1.429 . S
C1398 H1422 0.950 . S
C1399 C1416 1.574 . S
C1399 C1418 1.368 . S
C1399 H1423 0.949 . S
H1400 C1404 0.949 . S
C1401 C1402 1.349 . S
C1401 C1403 1.327 . S
C1401 H1424 0.950 1_556 S
C1402 C1401 1.349 . S
C1402 C1414 1.349 . S
C1403 C1401 1.327 . S
C1403 C1419 1.429 . S
C1403 H1425 0.950 . S
C1404 H1400 0.949 . S
C1404 C1412 1.574 . S
C1404 C1420 1.368 . S
H1405 C1413 0.950 . S
H1406 C1411 0.950 . S
H1407 C1412 0.949 . S
H1408 C1414 0.950 . S
H1409 C1415 0.950 . S
H1410 C1416 0.949 . S
C1411 H1406 0.950 . S
C1411 C1413 1.327 . S
C1411 C1417 1.429 . S
C1412 C1404 1.574 . S
C1412 H1407 0.949 . S
C1412 C1418 1.368 . S
C1413 C1397 1.349 . S
C1413 H1405 0.950 . S
C1413 C1411 1.327 . S
C1414 C1402 1.349 . S
C1414 H1408 0.950 . S
C1414 C1415 1.327 . S
C1415 H1409 0.950 . S
C1415 C1414 1.327 . S
C1415 C1419 1.429 . S
C1416 C1399 1.574 . S
C1416 H1410 0.949 . S
C1416 C1420 1.368 . S
C1417 C1398 1.429 . S
C1417 C1411 1.429 . S
C1417 C1418 1.523 . S
C1418 C1399 1.368 . S
C1418 C1412 1.368 . S
C1418 C1417 1.523 . S
C1419 C1403 1.429 . S
C1419 C1415 1.429 . S
C1419 C1420 1.523 . S
C1420 C1404 1.368 . S
C1420 C1416 1.368 . S
C1420 C1419 1.523 . S
H1421 C1396 0.950 . S
H1422 C1398 0.950 . S
H1423 C1399 0.949 . S
H1424 C1401 0.950 1_554 S
H1425 C1403 0.950 . S
C1426 C1427 1.349 . S
C1426 C1428 1.327 . S
C1426 H1451 0.950 . S
C1427 C1426 1.349 . S
C1427 C1443 1.349 . S
C1428 C1426 1.327 . S
C1428 C1447 1.429 . S
C1428 H1452 0.950 . S
C1429 C1446 1.574 . S
C1429 C1448 1.368 . S
C1429 H1453 0.949 . S
H1430 C1434 0.949 . S
C1431 C1432 1.349 . S
C1431 C1433 1.327 . S
C1431 H1454 0.950 . S
C1432 C1431 1.349 . S
C1432 C1444 1.349 . S
C1433 C1431 1.327 . S
C1433 C1449 1.429 . S
C1433 H1455 0.950 . S
C1434 H1430 0.949 . S
C1434 C1442 1.574 . S
C1434 C1450 1.368 . S
H1435 C1443 0.950 . S
H1436 C1441 0.950 . S
H1437 C1442 0.949 . S
H1438 C1444 0.950 . S
H1439 C1445 0.950 . S
H1440 C1446 0.949 . S
C1441 H1436 0.950 . S
C1441 C1443 1.327 . S
C1441 C1447 1.429 . S
C1442 C1434 1.574 . S
C1442 H1437 0.949 . S
C1442 C1448 1.368 . S
C1443 C1427 1.349 . S
C1443 H1435 0.950 . S
C1443 C1441 1.327 . S
C1444 C1432 1.349 . S
C1444 H1438 0.950 . S
C1444 C1445 1.327 . S
C1445 H1439 0.950 . S
C1445 C1444 1.327 . S
C1445 C1449 1.429 . S
C1446 C1429 1.574 . S
C1446 H1440 0.949 . S
C1446 C1450 1.368 . S
C1447 C1428 1.429 . S
C1447 C1441 1.429 . S
C1447 C1448 1.523 . S
C1448 C1429 1.368 . S
C1448 C1442 1.368 . S
C1448 C1447 1.523 . S
C1449 C1433 1.429 . S
C1449 C1445 1.429 . S
C1449 C1450 1.523 . S
C1450 C1434 1.368 . S
C1450 C1446 1.368 . S
C1450 C1449 1.523 . S
H1451 C1426 0.950 . S
H1452 C1428 0.950 . S
H1453 C1429 0.949 . S
H1454 C1431 0.950 . S
H1455 C1433 0.950 . S
C1456 C1457 1.349 . S
C1456 C1458 1.327 . S
C1456 H1481 0.950 . S
C1457 C1456 1.349 . S
C1457 C1473 1.349 1_554 S
C1458 C1456 1.327 . S
C1458 C1477 1.429 . S
C1458 H1482 0.950 . S
C1459 C1476 1.574 . S
C1459 C1478 1.368 . S
C1459 H1483 0.949 . S
H1460 C1464 0.949 . S
C1461 C1462 1.349 . S
C1461 C1463 1.327 . S
C1461 H1484 0.950 . S
C1462 C1461 1.349 . S
C1462 C1474 1.349 . S
C1463 C1461 1.327 . S
C1463 C1479 1.429 . S
C1463 H1485 0.950 . S
C1464 H1460 0.949 . S
C1464 C1472 1.574 . S
C1464 C1480 1.368 . S
H1465 C1473 0.950 . S
H1466 C1471 0.950 1_556 S
H1467 C1472 0.949 . S
H1468 C1474 0.950 . S
H1469 C1475 0.950 . S
H1470 C1476 0.949 . S
C1471 H1466 0.950 1_554 S
C1471 C1473 1.327 1_554 S
C1471 C1477 1.429 . S
C1472 C1464 1.574 . S
C1472 H1467 0.949 . S
C1472 C1478 1.368 . S
C1473 C1457 1.349 1_556 S
C1473 H1465 0.950 . S
C1473 C1471 1.327 1_556 S
C1474 C1462 1.349 . S
C1474 H1468 0.950 . S
C1474 C1475 1.327 . S
C1475 H1469 0.950 . S
C1475 C1474 1.327 . S
C1475 C1479 1.429 . S
C1476 C1459 1.574 . S
C1476 H1470 0.949 . S
C1476 C1480 1.368 . S
C1477 C1458 1.429 . S
C1477 C1471 1.429 . S
C1477 C1478 1.523 . S
C1478 C1459 1.368 . S
C1478 C1472 1.368 . S
C1478 C1477 1.523 . S
C1479 C1463 1.429 . S
C1479 C1475 1.429 . S
C1479 C1480 1.523 . S
C1480 C1464 1.368 . S
C1480 C1476 1.368 . S
C1480 C1479 1.523 . S
H1481 C1456 0.950 . S
H1482 C1458 0.950 . S
H1483 C1459 0.949 . S
H1484 C1461 0.950 . S
H1485 C1463 0.950 . S
C1486 C1487 1.349 . S
C1486 C1488 1.327 . S
C1486 H1511 0.950 . S
C1487 C1486 1.349 . S
C1487 C1503 1.349 . S
C1488 C1486 1.327 . S
C1488 C1507 1.429 . S
C1488 H1512 0.950 . S
C1489 C1506 1.574 . S
C1489 C1508 1.368 . S
C1489 H1513 0.949 . S
H1490 C1494 0.949 . S
C1491 C1492 1.349 . S
C1491 C1493 1.327 . S
C1491 H1514 0.950 . S
C1492 C1491 1.349 . S
C1492 C1504 1.349 . S
C1493 C1491 1.327 . S
C1493 C1509 1.429 . S
C1493 H1515 0.950 . S
C1494 H1490 0.949 . S
C1494 C1502 1.574 . S
C1494 C1510 1.368 . S
H1495 C1503 0.950 . S
H1496 C1501 0.950 . S
H1497 C1502 0.949 . S
H1498 C1504 0.950 . S
H1499 C1505 0.950 . S
H1500 C1506 0.949 . S
C1501 H1496 0.950 . S
C1501 C1503 1.327 . S
C1501 C1507 1.429 . S
C1502 C1494 1.574 . S
C1502 H1497 0.949 . S
C1502 C1508 1.368 . S
C1503 C1487 1.349 . S
C1503 H1495 0.950 . S
C1503 C1501 1.327 . S
C1504 C1492 1.349 . S
C1504 H1498 0.950 . S
C1504 C1505 1.327 . S
C1505 H1499 0.950 . S
C1505 C1504 1.327 . S
C1505 C1509 1.429 . S
C1506 C1489 1.574 . S
C1506 H1500 0.949 . S
C1506 C1510 1.368 . S
C1507 C1488 1.429 . S
C1507 C1501 1.429 . S
C1507 C1508 1.523 . S
C1508 C1489 1.368 . S
C1508 C1502 1.368 . S
C1508 C1507 1.523 . S
C1509 C1493 1.429 . S
C1509 C1505 1.429 . S
C1509 C1510 1.523 . S
C1510 C1494 1.368 . S
C1510 C1506 1.368 . S
C1510 C1509 1.523 . S
H1511 C1486 0.950 . S
H1512 C1488 0.950 . S
H1513 C1489 0.949 . S
H1514 C1491 0.950 . S
H1515 C1493 0.950 . S
C1516 C1517 1.349 . S
C1516 C1518 1.327 . S
C1516 H1541 0.950 . S
C1517 C1516 1.349 . S
C1517 C1533 1.349 . S
C1518 C1516 1.327 . S
C1518 C1537 1.429 . S
C1518 H1542 0.950 . S
C1519 C1536 1.574 . S
C1519 C1538 1.368 . S
C1519 H1543 0.949 . S
H1520 C1524 0.949 . S
C1521 C1522 1.349 . S
C1521 C1523 1.327 . S
C1521 H1544 0.950 . S
C1522 C1521 1.349 . S
C1522 C1534 1.349 . S
C1523 C1521 1.327 . S
C1523 C1539 1.429 . S
C1523 H1545 0.950 . S
C1524 H1520 0.949 . S
C1524 C1532 1.574 . S
C1524 C1540 1.368 . S
H1525 C1533 0.950 . S
H1526 C1531 0.950 . S
H1527 C1532 0.949 . S
H1528 C1534 0.950 . S
H1529 C1535 0.950 . S
H1530 C1536 0.949 . S
C1531 H1526 0.950 . S
C1531 C1533 1.327 . S
C1531 C1537 1.429 . S
C1532 C1524 1.574 . S
C1532 H1527 0.949 . S
C1532 C1538 1.368 . S
C1533 C1517 1.349 . S
C1533 H1525 0.950 . S
C1533 C1531 1.327 . S
C1534 C1522 1.349 . S
C1534 H1528 0.950 . S
C1534 C1535 1.327 . S
C1535 H1529 0.950 . S
C1535 C1534 1.327 . S
C1535 C1539 1.429 . S
C1536 C1519 1.574 . S
C1536 H1530 0.949 . S
C1536 C1540 1.368 . S
C1537 C1518 1.429 . S
C1537 C1531 1.429 . S
C1537 C1538 1.523 . S
C1538 C1519 1.368 . S
C1538 C1532 1.368 . S
C1538 C1537 1.523 . S
C1539 C1523 1.429 . S
C1539 C1535 1.429 . S
C1539 C1540 1.523 . S
C1540 C1524 1.368 . S
C1540 C1536 1.368 . S
C1540 C1539 1.523 . S
H1541 C1516 0.950 . S
H1542 C1518 0.950 . S
H1543 C1519 0.949 . S
H1544 C1521 0.950 . S
H1545 C1523 0.950 . S
C1546 C1547 1.349 . S
C1546 C1548 1.327 . S
C1546 H1571 0.950 . S
C1547 C1546 1.349 . S
C1547 C1563 1.349 . S
C1548 C1546 1.327 . S
C1548 C1567 1.429 . S
C1548 H1572 0.950 . S
C1549 C1566 1.574 . S
C1549 C1568 1.368 . S
C1549 H1573 0.949 . S
H1550 C1554 0.949 . S
C1551 C1552 1.349 . S
C1551 C1553 1.327 . S
C1551 H1574 0.950 . S
C1552 C1551 1.349 . S
C1552 C1564 1.349 . S
C1553 C1551 1.327 . S
C1553 C1569 1.429 . S
C1553 H1575 0.950 . S
C1554 H1550 0.949 . S
C1554 C1562 1.574 . S
C1554 C1570 1.368 . S
H1555 C1563 0.950 . S
H1556 C1561 0.950 . S
H1557 C1562 0.949 . S
H1558 C1564 0.950 . S
H1559 C1565 0.950 . S
H1560 C1566 0.949 . S
C1561 H1556 0.950 . S
C1561 C1563 1.327 . S
C1561 C1567 1.429 . S
C1562 C1554 1.574 . S
C1562 H1557 0.949 . S
C1562 C1568 1.368 . S
C1563 C1547 1.349 . S
C1563 H1555 0.950 . S
C1563 C1561 1.327 . S
C1564 C1552 1.349 . S
C1564 H1558 0.950 . S
C1564 C1565 1.327 . S
C1565 H1559 0.950 . S
C1565 C1564 1.327 . S
C1565 C1569 1.429 . S
C1566 C1549 1.574 . S
C1566 H1560 0.949 . S
C1566 C1570 1.368 . S
C1567 C1548 1.429 . S
C1567 C1561 1.429 . S
C1567 C1568 1.523 . S
C1568 C1549 1.368 . S
C1568 C1562 1.368 . S
C1568 C1567 1.523 . S
C1569 C1553 1.429 . S
C1569 C1565 1.429 . S
C1569 C1570 1.523 . S
C1570 C1554 1.368 . S
C1570 C1566 1.368 . S
C1570 C1569 1.523 . S
H1571 C1546 0.950 . S
H1572 C1548 0.950 . S
H1573 C1549 0.949 . S
H1574 C1551 0.950 . S
H1575 C1553 0.950 . S
C1576 C1577 1.349 . S
C1576 C1578 1.327 . S
C1576 H1601 0.950 . S
C1577 C1576 1.349 . S
C1577 C1593 1.349 . S
C1578 C1576 1.327 . S
C1578 C1597 1.429 . S
C1578 H1602 0.950 . S
C1579 C1596 1.574 . S
C1579 C1598 1.368 . S
C1579 H1603 0.949 . S
H1580 C1584 0.949 . S
C1581 C1582 1.349 . S
C1581 C1583 1.327 . S
C1581 H1604 0.950 . S
C1582 C1581 1.349 . S
C1582 C1594 1.349 . S
C1583 C1581 1.327 . S
C1583 C1599 1.429 . S
C1583 H1605 0.950 . S
C1584 H1580 0.949 . S
C1584 C1592 1.574 . S
C1584 C1600 1.368 . S
H1585 C1593 0.950 . S
H1586 C1591 0.950 . S
H1587 C1592 0.949 . S
H1588 C1594 0.950 . S
H1589 C1595 0.950 . S
H1590 C1596 0.949 . S
C1591 H1586 0.950 . S
C1591 C1593 1.327 . S
C1591 C1597 1.429 . S
C1592 C1584 1.574 . S
C1592 H1587 0.949 . S
C1592 C1598 1.368 . S
C1593 C1577 1.349 . S
C1593 H1585 0.950 . S
C1593 C1591 1.327 . S
C1594 C1582 1.349 . S
C1594 H1588 0.950 . S
C1594 C1595 1.327 . S
C1595 H1589 0.950 . S
C1595 C1594 1.327 . S
C1595 C1599 1.429 . S
C1596 C1579 1.574 . S
C1596 H1590 0.949 . S
C1596 C1600 1.368 . S
C1597 C1578 1.429 . S
C1597 C1591 1.429 . S
C1597 C1598 1.523 . S
C1598 C1579 1.368 . S
C1598 C1592 1.368 . S
C1598 C1597 1.523 . S
C1599 C1583 1.429 . S
C1599 C1595 1.429 . S
C1599 C1600 1.523 . S
C1600 C1584 1.368 . S
C1600 C1596 1.368 . S
C1600 C1599 1.523 . S
H1601 C1576 0.950 . S
H1602 C1578 0.950 . S
H1603 C1579 0.949 . S
H1604 C1581 0.950 . S
H1605 C1583 0.950 . S
C1606 C1607 1.349 . S
C1606 C1608 1.327 . S
C1606 H1631 0.950 . S
C1607 C1606 1.349 . S
C1607 C1623 1.349 . S
C1608 C1606 1.327 . S
C1608 C1627 1.429 . S
C1608 H1632 0.950 . S
C1609 C1626 1.574 . S
C1609 C1628 1.368 . S
C1609 H1633 0.949 . S
H1610 C1614 0.949 . S
C1611 C1612 1.349 . S
C1611 C1613 1.327 . S
C1611 H1634 0.950 . S
C1612 C1611 1.349 . S
C1612 C1624 1.349 . S
C1613 C1611 1.327 . S
C1613 C1629 1.429 . S
C1613 H1635 0.950 . S
C1614 H1610 0.949 . S
C1614 C1622 1.574 . S
C1614 C1630 1.368 . S
H1615 C1623 0.950 . S
H1616 C1621 0.950 . S
H1617 C1622 0.949 . S
H1618 C1624 0.950 . S
H1619 C1625 0.950 . S
H1620 C1626 0.949 . S
C1621 H1616 0.950 . S
C1621 C1623 1.327 . S
C1621 C1627 1.429 . S
C1622 C1614 1.574 . S
C1622 H1617 0.949 . S
C1622 C1628 1.368 . S
C1623 C1607 1.349 . S
C1623 H1615 0.950 . S
C1623 C1621 1.327 . S
C1624 C1612 1.349 . S
C1624 H1618 0.950 . S
C1624 C1625 1.327 . S
C1625 H1619 0.950 . S
C1625 C1624 1.327 . S
C1625 C1629 1.429 . S
C1626 C1609 1.574 . S
C1626 H1620 0.949 . S
C1626 C1630 1.368 . S
C1627 C1608 1.429 . S
C1627 C1621 1.429 . S
C1627 C1628 1.523 . S
C1628 C1609 1.368 . S
C1628 C1622 1.368 . S
C1628 C1627 1.523 . S
C1629 C1613 1.429 . S
C1629 C1625 1.429 . S
C1629 C1630 1.523 . S
C1630 C1614 1.368 . S
C1630 C1626 1.368 . S
C1630 C1629 1.523 . S
H1631 C1606 0.950 . S
H1632 C1608 0.950 . S
H1633 C1609 0.949 . S
H1634 C1611 0.950 . S
H1635 C1613 0.950 . S
C1636 C1637 1.349 . S
C1636 C1638 1.327 . S
C1636 H1661 0.950 . S
C1637 C1636 1.349 . S
C1637 C1653 1.349 . S
C1638 C1636 1.327 . S
C1638 C1657 1.429 . S
C1638 H1662 0.950 . S
C1639 C1656 1.574 . S
C1639 C1658 1.368 . S
C1639 H1663 0.949 . S
H1640 C1644 0.949 . S
C1641 C1642 1.349 . S
C1641 C1643 1.327 . S
C1641 H1664 0.950 . S
C1642 C1641 1.349 . S
C1642 C1654 1.349 . S
C1643 C1641 1.327 . S
C1643 C1659 1.429 . S
C1643 H1665 0.950 . S
C1644 H1640 0.949 . S
C1644 C1652 1.574 . S
C1644 C1660 1.368 . S
H1645 C1653 0.950 . S
H1646 C1651 0.950 . S
H1647 C1652 0.949 . S
H1648 C1654 0.950 . S
H1649 C1655 0.950 . S
H1650 C1656 0.949 . S
C1651 H1646 0.950 . S
C1651 C1653 1.327 . S
C1651 C1657 1.429 . S
C1652 C1644 1.574 . S
C1652 H1647 0.949 . S
C1652 C1658 1.368 . S
C1653 C1637 1.349 . S
C1653 H1645 0.950 . S
C1653 C1651 1.327 . S
C1654 C1642 1.349 . S
C1654 H1648 0.950 . S
C1654 C1655 1.327 . S
C1655 H1649 0.950 . S
C1655 C1654 1.327 . S
C1655 C1659 1.429 . S
C1656 C1639 1.574 . S
C1656 H1650 0.949 . S
C1656 C1660 1.368 . S
C1657 C1638 1.429 . S
C1657 C1651 1.429 . S
C1657 C1658 1.523 . S
C1658 C1639 1.368 . S
C1658 C1652 1.368 . S
C1658 C1657 1.523 . S
C1659 C1643 1.429 . S
C1659 C1655 1.429 . S
C1659 C1660 1.523 . S
C1660 C1644 1.368 . S
C1660 C1656 1.368 . S
C1660 C1659 1.523 . S
H1661 C1636 0.950 . S
H1662 C1638 0.950 . S
H1663 C1639 0.949 . S
H1664 C1641 0.950 . S
H1665 C1643 0.950 . S
C1666 C1667 1.349 . S
C1666 C1668 1.327 . S
C1666 H1691 0.950 . S
C1667 C1666 1.349 . S
C1667 C1683 1.349 . S
C1668 C1666 1.327 . S
C1668 C1687 1.429 . S
C1668 H1692 0.950 . S
C1669 C1686 1.574 . S
C1669 C1688 1.368 . S
C1669 H1693 0.949 . S
H1670 C1674 0.949 . S
C1671 C1672 1.349 . S
C1671 C1673 1.327 . S
C1671 H1694 0.950 . S
C1672 C1671 1.349 . S
C1672 C1684 1.349 . S
C1673 C1671 1.327 . S
C1673 C1689 1.429 . S
C1673 H1695 0.950 . S
C1674 H1670 0.949 . S
C1674 C1682 1.574 . S
C1674 C1690 1.368 . S
H1675 C1683 0.950 . S
H1676 C1681 0.950 . S
H1677 C1682 0.949 . S
H1678 C1684 0.950 . S
H1679 C1685 0.950 . S
H1680 C1686 0.949 . S
C1681 H1676 0.950 . S
C1681 C1683 1.327 . S
C1681 C1687 1.429 . S
C1682 C1674 1.574 . S
C1682 H1677 0.949 . S
C1682 C1688 1.368 . S
C1683 C1667 1.349 . S
C1683 H1675 0.950 . S
C1683 C1681 1.327 . S
C1684 C1672 1.349 . S
C1684 H1678 0.950 . S
C1684 C1685 1.327 . S
C1685 H1679 0.950 . S
C1685 C1684 1.327 . S
C1685 C1689 1.429 . S
C1686 C1669 1.574 . S
C1686 H1680 0.949 . S
C1686 C1690 1.368 . S
C1687 C1668 1.429 . S
C1687 C1681 1.429 . S
C1687 C1688 1.523 . S
C1688 C1669 1.368 . S
C1688 C1682 1.368 . S
C1688 C1687 1.523 . S
C1689 C1673 1.429 . S
C1689 C1685 1.429 . S
C1689 C1690 1.523 . S
C1690 C1674 1.368 . S
C1690 C1686 1.368 . S
C1690 C1689 1.523 . S
H1691 C1666 0.950 . S
H1692 C1668 0.950 . S
H1693 C1669 0.949 . S
H1694 C1671 0.950 . S
H1695 C1673 0.950 . S
C1696 C1697 1.349 . S
C1696 C1698 1.327 . S
C1696 H1721 0.950 . S
C1697 C1696 1.349 . S
C1697 C1713 1.349 . S
C1698 C1696 1.327 . S
C1698 C1717 1.429 . S
C1698 H1722 0.950 . S
C1699 C1716 1.574 . S
C1699 C1718 1.368 . S
C1699 H1723 0.949 . S
H1700 C1704 0.949 . S
C1701 C1702 1.349 . S
C1701 C1703 1.327 . S
C1701 H1724 0.950 . S
C1702 C1701 1.349 . S
C1702 C1714 1.349 . S
C1703 C1701 1.327 . S
C1703 C1719 1.429 . S
C1703 H1725 0.950 . S
C1704 H1700 0.949 . S
C1704 C1712 1.574 . S
C1704 C1720 1.368 . S
H1705 C1713 0.950 . S
H1706 C1711 0.950 . S
H1707 C1712 0.949 . S
H1708 C1714 0.950 . S
H1709 C1715 0.950 . S
H1710 C1716 0.949 . S
C1711 H1706 0.950 . S
C1711 C1713 1.327 . S
C1711 C1717 1.429 . S
C1712 C1704 1.574 . S
C1712 H1707 0.949 . S
C1712 C1718 1.368 . S
C1713 C1697 1.349 . S
C1713 H1705 0.950 . S
C1713 C1711 1.327 . S
C1714 C1702 1.349 . S
C1714 H1708 0.950 . S
C1714 C1715 1.327 . S
C1715 H1709 0.950 . S
C1715 C1714 1.327 . S
C1715 C1719 1.429 . S
C1716 C1699 1.574 . S
C1716 H1710 0.949 . S
C1716 C1720 1.368 . S
C1717 C1698 1.429 . S
C1717 C1711 1.429 . S
C1717 C1718 1.523 . S
C1718 C1699 1.368 . S
C1718 C1712 1.368 . S
C1718 C1717 1.523 . S
C1719 C1703 1.429 . S
C1719 C1715 1.429 . S
C1719 C1720 1.523 . S
C1720 C1704 1.368 . S
C1720 C1716 1.368 . S
C1720 C1719 1.523 . S
H1721 C1696 0.950 . S
H1722 C1698 0.950 . S
H1723 C1699 0.949 . S
H1724 C1701 0.950 . S
H1725 C1703 0.950 . S
C1726 C1727 1.349 . S
C1726 C1728 1.327 . S
C1726 H1751 0.950 . S
C1727 C1726 1.349 . S
C1727 C1743 1.349 . S
C1728 C1726 1.327 . S
C1728 C1747 1.429 . S
C1728 H1752 0.950 . S
C1729 C1746 1.574 . S
C1729 C1748 1.368 . S
C1729 H1753 0.949 . S
H1730 C1734 0.949 . S
C1731 C1732 1.349 . S
C1731 C1733 1.327 . S
C1731 H1754 0.950 . S
C1732 C1731 1.349 . S
C1732 C1744 1.349 . S
C1733 C1731 1.327 . S
C1733 C1749 1.429 . S
C1733 H1755 0.950 . S
C1734 H1730 0.949 . S
C1734 C1742 1.574 . S
C1734 C1750 1.368 . S
H1735 C1743 0.950 . S
H1736 C1741 0.950 . S
H1737 C1742 0.949 . S
H1738 C1744 0.950 . S
H1739 C1745 0.950 . S
H1740 C1746 0.949 . S
C1741 H1736 0.950 . S
C1741 C1743 1.327 . S
C1741 C1747 1.429 . S
C1742 C1734 1.574 . S
C1742 H1737 0.949 . S
C1742 C1748 1.368 . S
C1743 C1727 1.349 . S
C1743 H1735 0.950 . S
C1743 C1741 1.327 . S
C1744 C1732 1.349 . S
C1744 H1738 0.950 . S
C1744 C1745 1.327 . S
C1745 H1739 0.950 . S
C1745 C1744 1.327 . S
C1745 C1749 1.429 . S
C1746 C1729 1.574 . S
C1746 H1740 0.949 . S
C1746 C1750 1.368 . S
C1747 C1728 1.429 . S
C1747 C1741 1.429 . S
C1747 C1748 1.523 . S
C1748 C1729 1.368 . S
C1748 C1742 1.368 . S
C1748 C1747 1.523 . S
C1749 C1733 1.429 . S
C1749 C1745 1.429 . S
C1749 C1750 1.523 . S
C1750 C1734 1.368 . S
C1750 C1746 1.368 . S
C1750 C1749 1.523 . S
H1751 C1726 0.950 . S
H1752 C1728 0.950 . S
H1753 C1729 0.949 . S
H1754 C1731 0.950 . S
H1755 C1733 0.950 . S
C1756 C1757 1.349 . S
C1756 C1758 1.327 . S
C1756 H1781 0.950 . S
C1757 C1756 1.349 . S
C1757 C1773 1.349 . S
C1758 C1756 1.327 . S
C1758 C1777 1.429 . S
C1758 H1782 0.950 . S
C1759 C1776 1.574 . S
C1759 C1778 1.368 . S
C1759 H1783 0.949 . S
H1760 C1764 0.949 . S
C1761 C1762 1.349 . S
C1761 C1763 1.327 . S
C1761 H1784 0.950 . S
C1762 C1761 1.349 . S
C1762 C1774 1.349 . S
C1763 C1761 1.327 . S
C1763 C1779 1.429 . S
C1763 H1785 0.950 . S
C1764 H1760 0.949 . S
C1764 C1772 1.574 . S
C1764 C1780 1.368 . S
H1765 C1773 0.950 . S
H1766 C1771 0.950 . S
H1767 C1772 0.949 . S
H1768 C1774 0.950 . S
H1769 C1775 0.950 . S
H1770 C1776 0.949 . S
C1771 H1766 0.950 . S
C1771 C1773 1.327 . S
C1771 C1777 1.429 . S
C1772 C1764 1.574 . S
C1772 H1767 0.949 . S
C1772 C1778 1.368 . S
C1773 C1757 1.349 . S
C1773 H1765 0.950 . S
C1773 C1771 1.327 . S
C1774 C1762 1.349 . S
C1774 H1768 0.950 . S
C1774 C1775 1.327 . S
C1775 H1769 0.950 . S
C1775 C1774 1.327 . S
C1775 C1779 1.429 . S
C1776 C1759 1.574 . S
C1776 H1770 0.949 . S
C1776 C1780 1.368 . S
C1777 C1758 1.429 . S
C1777 C1771 1.429 . S
C1777 C1778 1.523 . S
C1778 C1759 1.368 . S
C1778 C1772 1.368 . S
C1778 C1777 1.523 . S
C1779 C1763 1.429 . S
C1779 C1775 1.429 . S
C1779 C1780 1.523 . S
C1780 C1764 1.368 . S
C1780 C1776 1.368 . S
C1780 C1779 1.523 . S
H1781 C1756 0.950 . S
H1782 C1758 0.950 . S
H1783 C1759 0.949 . S
H1784 C1761 0.950 . S
H1785 C1763 0.950 . S
C1786 C1787 1.349 . S
C1786 C1788 1.327 . S
C1786 H1811 0.950 . S
C1787 C1786 1.349 . S
C1787 C1803 1.349 . S
C1788 C1786 1.327 . S
C1788 C1807 1.429 . S
C1788 H1812 0.950 . S
C1789 C1806 1.574 . S
C1789 C1808 1.368 . S
C1789 H1813 0.949 . S
H1790 C1794 0.949 . S
C1791 C1792 1.349 . S
C1791 C1793 1.327 . S
C1791 H1814 0.950 . S
C1792 C1791 1.349 . S
C1792 C1804 1.349 . S
C1793 C1791 1.327 . S
C1793 C1809 1.429 . S
C1793 H1815 0.950 . S
C1794 H1790 0.949 . S
C1794 C1802 1.574 . S
C1794 C1810 1.368 . S
H1795 C1803 0.950 . S
H1796 C1801 0.950 . S
H1797 C1802 0.949 . S
H1798 C1804 0.950 . S
H1799 C1805 0.950 . S
H1800 C1806 0.949 . S
C1801 H1796 0.950 . S
C1801 C1803 1.327 . S
C1801 C1807 1.429 . S
C1802 C1794 1.574 . S
C1802 H1797 0.949 . S
C1802 C1808 1.368 . S
C1803 C1787 1.349 . S
C1803 H1795 0.950 . S
C1803 C1801 1.327 . S
C1804 C1792 1.349 . S
C1804 H1798 0.950 . S
C1804 C1805 1.327 . S
C1805 H1799 0.950 . S
C1805 C1804 1.327 . S
C1805 C1809 1.429 . S
C1806 C1789 1.574 . S
C1806 H1800 0.949 . S
C1806 C1810 1.368 . S
C1807 C1788 1.429 . S
C1807 C1801 1.429 . S
C1807 C1808 1.523 . S
C1808 C1789 1.368 . S
C1808 C1802 1.368 . S
C1808 C1807 1.523 . S
C1809 C1793 1.429 . S
C1809 C1805 1.429 . S
C1809 C1810 1.523 . S
C1810 C1794 1.368 . S
C1810 C1806 1.368 . S
C1810 C1809 1.523 . S
H1811 C1786 0.950 . S
H1812 C1788 0.950 . S
H1813 C1789 0.949 . S
H1814 C1791 0.950 . S
H1815 C1793 0.950 . S
C1816 C1817 1.349 . S
C1816 C1818 1.327 . S
C1816 H1841 0.950 . S
C1817 C1816 1.349 . S
C1817 C1833 1.349 . S
C1818 C1816 1.327 . S
C1818 C1837 1.429 . S
C1818 H1842 0.950 . S
C1819 C1836 1.574 . S
C1819 C1838 1.368 . S
C1819 H1843 0.949 . S
H1820 C1824 0.949 . S
C1821 C1822 1.349 . S
C1821 C1823 1.327 . S
C1821 H1844 0.950 . S
C1822 C1821 1.349 . S
C1822 C1834 1.349 . S
C1823 C1821 1.327 . S
C1823 C1839 1.429 . S
C1823 H1845 0.950 . S
C1824 H1820 0.949 . S
C1824 C1832 1.574 . S
C1824 C1840 1.368 . S
H1825 C1833 0.950 . S
H1826 C1831 0.950 . S
H1827 C1832 0.949 . S
H1828 C1834 0.950 . S
H1829 C1835 0.950 . S
H1830 C1836 0.949 . S
C1831 H1826 0.950 . S
C1831 C1833 1.327 . S
C1831 C1837 1.429 . S
C1832 C1824 1.574 . S
C1832 H1827 0.949 . S
C1832 C1838 1.368 . S
C1833 C1817 1.349 . S
C1833 H1825 0.950 . S
C1833 C1831 1.327 . S
C1834 C1822 1.349 . S
C1834 H1828 0.950 . S
C1834 C1835 1.327 . S
C1835 H1829 0.950 . S
C1835 C1834 1.327 . S
C1835 C1839 1.429 . S
C1836 C1819 1.574 . S
C1836 H1830 0.949 . S
C1836 C1840 1.368 . S
C1837 C1818 1.429 . S
C1837 C1831 1.429 . S
C1837 C1838 1.523 . S
C1838 C1819 1.368 . S
C1838 C1832 1.368 . S
C1838 C1837 1.523 . S
C1839 C1823 1.429 . S
C1839 C1835 1.429 . S
C1839 C1840 1.523 . S
C1840 C1824 1.368 . S
C1840 C1836 1.368 . S
C1840 C1839 1.523 . S
H1841 C1816 0.950 . S
H1842 C1818 0.950 . S
H1843 C1819 0.949 . S
H1844 C1821 0.950 . S
H1845 C1823 0.950 . S
C1846 C1847 1.349 . S
C1846 C1848 1.327 . S
C1846 H1871 0.950 . S
C1847 C1846 1.349 . S
C1847 C1863 1.349 . S
C1848 C1846 1.327 . S
C1848 C1867 1.429 . S
C1848 H1872 0.950 . S
C1849 C1866 1.574 . S
C1849 C1868 1.368 . S
C1849 H1873 0.949 . S
H1850 C1854 0.949 . S
C1851 C1852 1.349 . S
C1851 C1853 1.327 . S
C1851 H1874 0.950 . S
C1852 C1851 1.349 . S
C1852 C1864 1.349 . S
C1853 C1851 1.327 . S
C1853 C1869 1.429 . S
C1853 H1875 0.950 . S
C1854 H1850 0.949 . S
C1854 C1862 1.574 . S
C1854 C1870 1.368 . S
H1855 C1863 0.950 . S
H1856 C1861 0.950 . S
H1857 C1862 0.949 . S
H1858 C1864 0.950 . S
H1859 C1865 0.950 . S
H1860 C1866 0.949 . S
C1861 H1856 0.950 . S
C1861 C1863 1.327 . S
C1861 C1867 1.429 . S
C1862 C1854 1.574 . S
C1862 H1857 0.949 . S
C1862 C1868 1.368 . S
C1863 C1847 1.349 . S
C1863 H1855 0.950 . S
C1863 C1861 1.327 . S
C1864 C1852 1.349 . S
C1864 H1858 0.950 . S
C1864 C1865 1.327 . S
C1865 H1859 0.950 . S
C1865 C1864 1.327 . S
C1865 C1869 1.429 . S
C1866 C1849 1.574 . S
C1866 H1860 0.949 . S
C1866 C1870 1.368 . S
C1867 C1848 1.429 . S
C1867 C1861 1.429 . S
C1867 C1868 1.523 . S
C1868 C1849 1.368 . S
C1868 C1862 1.368 . S
C1868 C1867 1.523 . S
C1869 C1853 1.429 . S
C1869 C1865 1.429 . S
C1869 C1870 1.523 . S
C1870 C1854 1.368 . S
C1870 C1866 1.368 . S
C1870 C1869 1.523 . S
H1871 C1846 0.950 . S
H1872 C1848 0.950 . S
H1873 C1849 0.949 . S
H1874 C1851 0.950 . S
H1875 C1853 0.950 . S
C1876 C1877 1.349 . S
C1876 C1878 1.327 . S
C1876 H1901 0.950 . S
C1877 C1876 1.349 . S
C1877 C1893 1.349 . S
C1878 C1876 1.327 . S
C1878 C1897 1.429 . S
C1878 H1902 0.950 . S
C1879 C1896 1.574 . S
C1879 C1898 1.368 . S
C1879 H1903 0.949 . S
H1880 C1884 0.949 . S
C1881 C1882 1.349 . S
C1881 C1883 1.327 . S
C1881 H1904 0.950 . S
C1882 C1881 1.349 . S
C1882 C1894 1.349 . S
C1883 C1881 1.327 . S
C1883 C1899 1.429 . S
C1883 H1905 0.950 1_554 S
C1884 H1880 0.949 . S
C1884 C1892 1.574 1_554 S
C1884 C1900 1.369 1_554 S
H1885 C1893 0.950 . S
H1886 C1891 0.950 . S
H1887 C1892 0.949 . S
H1888 C1894 0.950 . S
H1889 C1895 0.950 . S
H1890 C1896 0.949 . S
C1891 H1886 0.950 . S
C1891 C1893 1.327 . S
C1891 C1897 1.429 . S
C1892 C1884 1.574 1_556 S
C1892 H1887 0.949 . S
C1892 C1898 1.368 . S
C1893 C1877 1.349 . S
C1893 H1885 0.950 . S
C1893 C1891 1.327 . S
C1894 C1882 1.349 . S
C1894 H1888 0.950 . S
C1894 C1895 1.327 . S
C1895 H1889 0.950 . S
C1895 C1894 1.327 . S
C1895 C1899 1.429 . S
C1896 C1879 1.574 . S
C1896 H1890 0.949 . S
C1896 C1900 1.367 . S
C1897 C1878 1.429 . S
C1897 C1891 1.429 . S
C1897 C1898 1.523 . S
C1898 C1879 1.368 . S
C1898 C1892 1.368 . S
C1898 C1897 1.523 . S
C1899 C1883 1.429 . S
C1899 C1895 1.429 . S
C1899 C1900 1.524 1_554 S
C1900 C1884 1.369 1_556 S
C1900 C1896 1.367 . S
C1900 C1899 1.524 1_556 S
H1901 C1876 0.950 . S
H1902 C1878 0.950 . S
H1903 C1879 0.949 . S
H1904 C1881 0.950 . S
H1905 C1883 0.950 1_556 S
C1906 C1907 1.349 . S
C1906 C1908 1.327 . S
C1906 H1931 0.950 . S
C1907 C1906 1.349 . S
C1907 C1923 1.349 . S
C1908 C1906 1.327 . S
C1908 C1927 1.429 . S
C1908 H1932 0.950 . S
C1909 C1926 1.574 . S
C1909 C1928 1.368 . S
C1909 H1933 0.949 . S
H1910 C1914 0.949 . S
C1911 C1912 1.349 . S
C1911 C1913 1.327 . S
C1911 H1934 0.950 . S
C1912 C1911 1.349 . S
C1912 C1924 1.349 . S
C1913 C1911 1.327 . S
C1913 C1929 1.429 . S
C1913 H1935 0.950 . S
C1914 H1910 0.949 . S
C1914 C1922 1.574 . S
C1914 C1930 1.368 . S
H1915 C1923 0.950 . S
H1916 C1921 0.950 . S
H1917 C1922 0.949 . S
H1918 C1924 0.950 . S
H1919 C1925 0.950 . S
H1920 C1926 0.949 . S
C1921 H1916 0.950 . S
C1921 C1923 1.327 . S
C1921 C1927 1.429 . S
C1922 C1914 1.574 . S
C1922 H1917 0.949 . S
C1922 C1928 1.368 . S
C1923 C1907 1.349 . S
C1923 H1915 0.950 . S
C1923 C1921 1.327 . S
C1924 C1912 1.349 . S
C1924 H1918 0.950 . S
C1924 C1925 1.327 . S
C1925 H1919 0.950 . S
C1925 C1924 1.327 . S
C1925 C1929 1.429 . S
C1926 C1909 1.574 . S
C1926 H1920 0.949 . S
C1926 C1930 1.368 . S
C1927 C1908 1.429 . S
C1927 C1921 1.429 . S
C1927 C1928 1.523 . S
C1928 C1909 1.368 . S
C1928 C1922 1.368 . S
C1928 C1927 1.523 . S
C1929 C1913 1.429 . S
C1929 C1925 1.429 . S
C1929 C1930 1.523 . S
C1930 C1914 1.368 . S
C1930 C1926 1.368 . S
C1930 C1929 1.523 . S
H1931 C1906 0.950 . S
H1932 C1908 0.950 . S
H1933 C1909 0.949 . S
H1934 C1911 0.950 . S
H1935 C1913 0.950 . S
C1936 C1937 1.349 . S
C1936 C1938 1.327 . S
C1936 H1961 0.950 . S
C1937 C1936 1.349 . S
C1937 C1953 1.352 . S
C1938 C1936 1.327 . S
C1938 C1957 1.429 . S
C1938 H1962 0.950 . S
C1939 C1956 1.574 . S
C1939 C1958 1.368 . S
C1939 H1963 0.949 1_545 S
H1940 C1944 0.949 . S
C1941 C1942 1.349 . S
C1941 C1943 1.327 . S
C1941 H1964 0.950 . S
C1942 C1941 1.349 . S
C1942 C1954 1.349 . S
C1943 C1941 1.327 . S
C1943 C1959 1.429 . S
C1943 H1965 0.938 1_545 S
C1944 H1940 0.949 . S
C1944 C1952 1.574 . S
C1944 C1960 1.368 . S
H1945 C1953 0.946 1_565 S
H1946 C1951 0.950 1_565 S
H1947 C1952 0.949 . S
H1948 C1954 0.950 . S
H1949 C1955 0.950 . S
H1950 C1956 0.949 1_565 S
C1951 H1946 0.950 1_545 S
C1951 C1953 1.327 . S
C1951 C1957 1.429 . S
C1952 C1944 1.574 . S
C1952 H1947 0.949 . S
C1952 C1958 1.368 . S
C1953 C1937 1.352 . S
C1953 H1945 0.946 1_545 S
C1953 C1951 1.327 . S
C1954 C1942 1.349 . S
C1954 H1948 0.950 . S
C1954 C1955 1.327 . S
C1955 H1949 0.950 . S
C1955 C1954 1.327 . S
C1955 C1959 1.429 . S
C1956 C1939 1.574 . S
C1956 H1950 0.949 1_545 S
C1956 C1960 1.368 . S
C1957 C1938 1.429 . S
C1957 C1951 1.429 . S
C1957 C1958 1.523 . S
C1958 C1939 1.368 . S
C1958 C1952 1.368 . S
C1958 C1957 1.523 . S
C1959 C1943 1.429 . S
C1959 C1955 1.429 . S
C1959 C1960 1.523 . S
C1960 C1944 1.368 . S
C1960 C1956 1.368 . S
C1960 C1959 1.523 . S
H1961 C1936 0.950 . S
H1962 C1938 0.950 . S
H1963 C1939 0.949 1_565 S
H1964 C1941 0.950 . S
H1965 C1943 0.938 1_565 S
C1966 C1967 1.349 . S
C1966 C1968 1.327 . S
C1966 H1991 0.950 . S
C1967 C1966 1.349 . S
C1967 C1983 1.349 . S
C1968 C1966 1.327 . S
C1968 C1987 1.429 . S
C1968 H1992 0.950 . S
C1969 C1986 1.574 . S
C1969 C1988 1.368 . S
C1969 H1993 0.949 . S
H1970 C1974 0.949 . S
C1971 C1972 1.349 . S
C1971 C1973 1.327 . S
C1971 H1994 0.950 . S
C1972 C1971 1.349 . S
C1972 C1984 1.349 . S
C1973 C1971 1.327 . S
C1973 C1989 1.429 . S
C1973 H1995 0.950 . S
C1974 H1970 0.949 . S
C1974 C1982 1.574 . S
C1974 C1990 1.368 . S
H1975 C1983 0.950 . S
H1976 C1981 0.950 . S
H1977 C1982 0.949 . S
H1978 C1984 0.950 . S
H1979 C1985 0.950 . S
H1980 C1986 0.949 . S
C1981 H1976 0.950 . S
C1981 C1983 1.327 . S
C1981 C1987 1.429 . S
C1982 C1974 1.574 . S
C1982 H1977 0.949 . S
C1982 C1988 1.368 . S
C1983 C1967 1.349 . S
C1983 H1975 0.950 . S
C1983 C1981 1.327 . S
C1984 C1972 1.349 . S
C1984 H1978 0.950 . S
C1984 C1985 1.327 . S
C1985 H1979 0.950 . S
C1985 C1984 1.327 . S
C1985 C1989 1.429 . S
C1986 C1969 1.574 . S
C1986 H1980 0.949 . S
C1986 C1990 1.368 . S
C1987 C1968 1.429 . S
C1987 C1981 1.429 . S
C1987 C1988 1.523 . S
C1988 C1969 1.368 . S
C1988 C1982 1.368 . S
C1988 C1987 1.523 . S
C1989 C1973 1.429 . S
C1989 C1985 1.429 . S
C1989 C1990 1.523 . S
C1990 C1974 1.368 . S
C1990 C1986 1.368 . S
C1990 C1989 1.523 . S
H1991 C1966 0.950 . S
H1992 C1968 0.950 . S
H1993 C1969 0.949 . S
H1994 C1971 0.950 . S
H1995 C1973 0.950 . S
C1996 C1997 1.349 . S
C1996 C1998 1.327 . S
C1996 H2021 0.950 . S
C1997 C1996 1.349 . S
C1997 C2013 1.349 . S
C1998 C1996 1.327 . S
C1998 C2017 1.429 . S
C1998 H2022 0.950 . S
C1999 C2016 1.574 . S
C1999 C2018 1.368 . S
C1999 H2023 0.949 . S
H2000 C2004 0.949 . S
C2001 C2002 1.349 . S
C2001 C2003 1.327 . S
C2001 H2024 0.950 . S
C2002 C2001 1.349 . S
C2002 C2014 1.349 . S
C2003 C2001 1.327 . S
C2003 C2019 1.429 . S
C2003 H2025 0.950 . S
C2004 H2000 0.949 . S
C2004 C2012 1.574 . S
C2004 C2020 1.368 . S
H2005 C2013 0.950 . S
H2006 C2011 0.950 . S
H2007 C2012 0.949 . S
H2008 C2014 0.950 . S
H2009 C2015 0.950 . S
H2010 C2016 0.949 . S
C2011 H2006 0.950 . S
C2011 C2013 1.327 . S
C2011 C2017 1.429 . S
C2012 C2004 1.574 . S
C2012 H2007 0.949 . S
C2012 C2018 1.368 . S
C2013 C1997 1.349 . S
C2013 H2005 0.950 . S
C2013 C2011 1.327 . S
C2014 C2002 1.349 . S
C2014 H2008 0.950 . S
C2014 C2015 1.327 . S
C2015 H2009 0.950 . S
C2015 C2014 1.327 . S
C2015 C2019 1.429 . S
C2016 C1999 1.574 . S
C2016 H2010 0.949 . S
C2016 C2020 1.368 . S
C2017 C1998 1.429 . S
C2017 C2011 1.429 . S
C2017 C2018 1.523 . S
C2018 C1999 1.368 . S
C2018 C2012 1.368 . S
C2018 C2017 1.523 . S
C2019 C2003 1.429 . S
C2019 C2015 1.429 . S
C2019 C2020 1.523 . S
C2020 C2004 1.368 . S
C2020 C2016 1.368 . S
C2020 C2019 1.523 . S
H2021 C1996 0.950 . S
H2022 C1998 0.950 . S
H2023 C1999 0.949 . S
H2024 C2001 0.950 . S
H2025 C2003 0.950 . S
C2026 C2027 1.349 . S
C2026 C2028 1.327 . S
C2026 H2051 0.950 . S
C2027 C2026 1.349 . S
C2027 C2043 1.349 . S
C2028 C2026 1.327 . S
C2028 C2047 1.429 . S
C2028 H2052 0.950 . S
C2029 C2046 1.574 . S
C2029 C2048 1.368 . S
C2029 H2053 0.949 . S
H2030 C2034 0.949 . S
C2031 C2032 1.349 . S
C2031 C2033 1.327 . S
C2031 H2054 0.950 . S
C2032 C2031 1.349 . S
C2032 C2044 1.349 . S
C2033 C2031 1.327 . S
C2033 C2049 1.429 . S
C2033 H2055 0.950 . S
C2034 H2030 0.949 . S
C2034 C2042 1.574 . S
C2034 C2050 1.368 . S
H2035 C2043 0.950 . S
H2036 C2041 0.950 . S
H2037 C2042 0.949 . S
H2038 C2044 0.950 . S
H2039 C2045 0.950 . S
H2040 C2046 0.949 . S
C2041 H2036 0.950 . S
C2041 C2043 1.327 . S
C2041 C2047 1.429 . S
C2042 C2034 1.574 . S
C2042 H2037 0.949 . S
C2042 C2048 1.368 . S
C2043 C2027 1.349 . S
C2043 H2035 0.950 . S
C2043 C2041 1.327 . S
C2044 C2032 1.349 . S
C2044 H2038 0.950 . S
C2044 C2045 1.327 . S
C2045 H2039 0.950 . S
C2045 C2044 1.327 . S
C2045 C2049 1.429 . S
C2046 C2029 1.574 . S
C2046 H2040 0.949 . S
C2046 C2050 1.368 . S
C2047 C2028 1.429 . S
C2047 C2041 1.429 . S
C2047 C2048 1.523 . S
C2048 C2029 1.368 . S
C2048 C2042 1.368 . S
C2048 C2047 1.523 . S
C2049 C2033 1.429 . S
C2049 C2045 1.429 . S
C2049 C2050 1.523 . S
C2050 C2034 1.368 . S
C2050 C2046 1.368 . S
C2050 C2049 1.523 . S
H2051 C2026 0.950 . S
H2052 C2028 0.950 . S
H2053 C2029 0.949 . S
H2054 C2031 0.950 . S
H2055 C2033 0.950 . S
C2056 C2057 1.349 . S
C2056 C2058 1.327 . S
C2056 H2081 0.950 . S
C2057 C2056 1.349 . S
C2057 C2073 1.349 1_545 S
C2058 C2056 1.327 . S
C2058 C2077 1.429 . S
C2058 H2082 0.950 . S
C2059 C2076 1.574 . S
C2059 C2078 1.368 1_565 S
C2059 H2083 0.949 . S
H2060 C2064 0.949 . S
C2061 C2062 1.349 . S
C2061 C2063 1.339 . S
C2061 H2084 0.950 1_545 S
C2062 C2061 1.349 . S
C2062 C2074 1.349 . S
C2063 C2061 1.339 . S
C2063 C2079 1.445 . S
C2063 H2085 0.921 1_545 S
C2064 H2060 0.949 . S
C2064 C2072 1.574 . S
C2064 C2080 1.368 . S
H2065 C2073 0.950 . S
H2066 C2071 0.950 . S
H2067 C2072 0.949 . S
H2068 C2074 0.950 . S
H2069 C2075 0.950 . S
H2070 C2076 0.949 . S
C2071 H2066 0.950 . S
C2071 C2073 1.327 . S
C2071 C2077 1.429 1_565 S
C2072 C2064 1.574 . S
C2072 H2067 0.949 . S
C2072 C2078 1.368 . S
C2073 C2057 1.349 1_565 S
C2073 H2065 0.950 . S
C2073 C2071 1.327 . S
C2074 C2062 1.349 . S
C2074 H2068 0.950 . S
C2074 C2075 1.327 . S
C2075 H2069 0.950 . S
C2075 C2074 1.327 . S
C2075 C2079 1.429 . S
C2076 C2059 1.574 . S
C2076 H2070 0.949 . S
C2076 C2080 1.368 1_565 S
C2077 C2058 1.429 . S
C2077 C2071 1.429 1_545 S
C2077 C2078 1.523 . S
C2078 C2059 1.368 1_545 S
C2078 C2072 1.368 . S
C2078 C2077 1.523 . S
C2079 C2063 1.445 . S
C2079 C2075 1.429 . S
C2079 C2080 1.523 . S
C2080 C2064 1.368 . S
C2080 C2076 1.368 1_545 S
C2080 C2079 1.523 . S
H2081 C2056 0.950 . S
H2082 C2058 0.950 . S
H2083 C2059 0.949 . S
H2084 C2061 0.950 1_565 S
H2085 C2063 0.921 1_565 S
C2086 C2087 1.349 . S
C2086 C2088 1.327 . S
C2086 H2111 0.950 . S
C2087 C2086 1.349 . S
C2087 C2103 1.349 . S
C2088 C2086 1.327 . S
C2088 C2107 1.429 . S
C2088 H2112 0.950 . S
C2089 C2106 1.574 . S
C2089 C2108 1.368 . S
C2089 H2113 0.949 . S
H2090 C2094 0.949 . S
C2091 C2092 1.349 . S
C2091 C2093 1.327 . S
C2091 H2114 0.950 . S
C2092 C2091 1.349 . S
C2092 C2104 1.349 . S
C2093 C2091 1.327 . S
C2093 C2109 1.429 . S
C2093 H2115 0.950 . S
C2094 H2090 0.949 . S
C2094 C2102 1.574 . S
C2094 C2110 1.368 . S
H2095 C2103 0.950 . S
H2096 C2101 0.950 . S
H2097 C2102 0.949 . S
H2098 C2104 0.950 . S
H2099 C2105 0.950 . S
H2100 C2106 0.949 . S
C2101 H2096 0.950 . S
C2101 C2103 1.327 . S
C2101 C2107 1.429 . S
C2102 C2094 1.574 . S
C2102 H2097 0.949 . S
C2102 C2108 1.368 . S
C2103 C2087 1.349 . S
C2103 H2095 0.950 . S
C2103 C2101 1.327 . S
C2104 C2092 1.349 . S
C2104 H2098 0.950 . S
C2104 C2105 1.327 . S
C2105 H2099 0.950 . S
C2105 C2104 1.327 . S
C2105 C2109 1.429 . S
C2106 C2089 1.574 . S
C2106 H2100 0.949 . S
C2106 C2110 1.368 . S
C2107 C2088 1.429 . S
C2107 C2101 1.429 . S
C2107 C2108 1.523 . S
C2108 C2089 1.368 . S
C2108 C2102 1.368 . S
C2108 C2107 1.523 . S
C2109 C2093 1.429 . S
C2109 C2105 1.429 . S
C2109 C2110 1.523 . S
C2110 C2094 1.368 . S
C2110 C2106 1.368 . S
C2110 C2109 1.523 . S
H2111 C2086 0.950 . S
H2112 C2088 0.950 . S
H2113 C2089 0.949 . S
H2114 C2091 0.950 . S
H2115 C2093 0.950 . S
C2116 C2117 1.349 . S
C2116 C2118 1.327 . S
C2116 H2141 0.950 . S
C2117 C2116 1.349 . S
C2117 C2133 1.349 . S
C2118 C2116 1.327 . S
C2118 C2137 1.429 . S
C2118 H2142 0.950 . S
C2119 C2136 1.574 . S
C2119 C2138 1.368 . S
C2119 H2143 0.949 . S
H2120 C2124 0.949 1_565 S
C2121 C2122 1.349 . S
C2121 C2123 1.327 . S
C2121 H2144 0.950 . S
C2122 C2121 1.349 . S
C2122 C2134 1.318 1_545 S
C2123 C2121 1.327 . S
C2123 C2139 1.429 . S
C2123 H2145 0.950 . S
C2124 H2120 0.949 1_545 S
C2124 C2132 1.574 . S
C2124 C2140 1.368 . S
H2125 C2133 0.950 . S
H2126 C2131 0.950 . S
H2127 C2132 0.949 1_565 S
H2128 C2134 0.988 . S
H2129 C2135 0.923 1_565 S
H2130 C2136 0.949 . S
C2131 H2126 0.950 . S
C2131 C2133 1.327 . S
C2131 C2137 1.429 . S
C2132 C2124 1.574 . S
C2132 H2127 0.949 1_545 S
C2132 C2138 1.368 . S
C2133 C2117 1.349 . S
C2133 H2125 0.950 . S
C2133 C2131 1.327 . S
C2134 C2122 1.318 1_565 S
C2134 H2128 0.988 . S
C2134 C2135 1.323 1_565 S
C2135 H2129 0.923 1_545 S
C2135 C2134 1.323 1_545 S
C2135 C2139 1.459 . S
C2136 C2119 1.574 . S
C2136 H2130 0.949 . S
C2136 C2140 1.368 . S
C2137 C2118 1.429 . S
C2137 C2131 1.429 . S
C2137 C2138 1.523 . S
C2138 C2119 1.368 . S
C2138 C2132 1.368 . S
C2138 C2137 1.523 . S
C2139 C2123 1.429 . S
C2139 C2135 1.459 . S
C2139 C2140 1.523 . S
C2140 C2124 1.368 . S
C2140 C2136 1.368 . S
C2140 C2139 1.523 . S
H2141 C2116 0.950 . S
H2142 C2118 0.950 . S
H2143 C2119 0.949 . S
H2144 C2121 0.950 . S
H2145 C2123 0.950 . S
C2146 C2147 1.349 . S
C2146 C2148 1.327 . S
C2146 H2171 0.950 . S
C2147 C2146 1.349 . S
C2147 C2163 1.349 . S
C2148 C2146 1.327 . S
C2148 C2167 1.429 . S
C2148 H2172 0.950 . S
C2149 C2166 1.574 . S
C2149 C2168 1.368 . S
C2149 H2173 0.949 . S
H2150 C2154 0.949 . S
C2151 C2152 1.349 . S
C2151 C2153 1.327 . S
C2151 H2174 0.950 . S
C2152 C2151 1.349 . S
C2152 C2164 1.349 . S
C2153 C2151 1.327 . S
C2153 C2169 1.429 . S
C2153 H2175 0.950 . S
C2154 H2150 0.949 . S
C2154 C2162 1.574 . S
C2154 C2170 1.368 . S
H2155 C2163 0.950 . S
H2156 C2161 0.950 . S
H2157 C2162 0.949 . S
H2158 C2164 0.950 . S
H2159 C2165 0.950 . S
H2160 C2166 0.949 . S
C2161 H2156 0.950 . S
C2161 C2163 1.327 . S
C2161 C2167 1.429 . S
C2162 C2154 1.574 . S
C2162 H2157 0.949 . S
C2162 C2168 1.368 . S
C2163 C2147 1.349 . S
C2163 H2155 0.950 . S
C2163 C2161 1.327 . S
C2164 C2152 1.349 . S
C2164 H2158 0.950 . S
C2164 C2165 1.327 . S
C2165 H2159 0.950 . S
C2165 C2164 1.327 . S
C2165 C2169 1.429 . S
C2166 C2149 1.574 . S
C2166 H2160 0.949 . S
C2166 C2170 1.368 . S
C2167 C2148 1.429 . S
C2167 C2161 1.429 . S
C2167 C2168 1.523 . S
C2168 C2149 1.368 . S
C2168 C2162 1.368 . S
C2168 C2167 1.523 . S
C2169 C2153 1.429 . S
C2169 C2165 1.429 . S
C2169 C2170 1.523 . S
C2170 C2154 1.368 . S
C2170 C2166 1.368 . S
C2170 C2169 1.523 . S
H2171 C2146 0.950 . S
H2172 C2148 0.950 . S
H2173 C2149 0.949 . S
H2174 C2151 0.950 . S
H2175 C2153 0.950 . S
C2176 C2177 1.349 . S
C2176 C2178 1.327 . S
C2176 H2201 0.950 . S
C2177 C2176 1.349 . S
C2177 C2193 1.349 . S
C2178 C2176 1.327 . S
C2178 C2197 1.429 . S
C2178 H2202 0.950 . S
C2179 C2196 1.574 . S
C2179 C2198 1.368 . S
C2179 H2203 0.949 . S
H2180 C2184 0.949 . S
C2181 C2182 1.349 . S
C2181 C2183 1.327 . S
C2181 H2204 0.950 . S
C2182 C2181 1.349 . S
C2182 C2194 1.349 . S
C2183 C2181 1.327 . S
C2183 C2199 1.429 . S
C2183 H2205 0.950 . S
C2184 H2180 0.949 . S
C2184 C2192 1.574 . S
C2184 C2200 1.368 . S
H2185 C2193 0.950 . S
H2186 C2191 0.950 . S
H2187 C2192 0.949 . S
H2188 C2194 0.950 . S
H2189 C2195 0.950 . S
H2190 C2196 0.949 . S
C2191 H2186 0.950 . S
C2191 C2193 1.327 . S
C2191 C2197 1.429 . S
C2192 C2184 1.574 . S
C2192 H2187 0.949 . S
C2192 C2198 1.368 . S
C2193 C2177 1.349 . S
C2193 H2185 0.950 . S
C2193 C2191 1.327 . S
C2194 C2182 1.349 . S
C2194 H2188 0.950 . S
C2194 C2195 1.327 . S
C2195 H2189 0.950 . S
C2195 C2194 1.327 . S
C2195 C2199 1.429 . S
C2196 C2179 1.574 . S
C2196 H2190 0.949 . S
C2196 C2200 1.368 . S
C2197 C2178 1.429 . S
C2197 C2191 1.429 . S
C2197 C2198 1.523 . S
C2198 C2179 1.368 . S
C2198 C2192 1.368 . S
C2198 C2197 1.523 . S
C2199 C2183 1.429 . S
C2199 C2195 1.429 . S
C2199 C2200 1.523 . S
C2200 C2184 1.368 . S
C2200 C2196 1.368 . S
C2200 C2199 1.523 . S
H2201 C2176 0.950 . S
H2202 C2178 0.950 . S
H2203 C2179 0.949 . S
H2204 C2181 0.950 . S
H2205 C2183 0.950 . S
C2206 C2207 1.349 . S
C2206 C2208 1.327 . S
C2206 H2231 0.950 . S
C2207 C2206 1.349 . S
C2207 C2223 1.349 . S
C2208 C2206 1.327 . S
C2208 C2227 1.429 . S
C2208 H2232 0.950 . S
C2209 C2226 1.574 . S
C2209 C2228 1.368 . S
C2209 H2233 0.949 . S
H2210 C2214 0.949 . S
C2211 C2212 1.349 . S
C2211 C2213 1.327 . S
C2211 H2234 0.950 . S
C2212 C2211 1.349 . S
C2212 C2224 1.349 . S
C2213 C2211 1.327 . S
C2213 C2229 1.429 . S
C2213 H2235 0.950 . S
C2214 H2210 0.949 . S
C2214 C2222 1.574 . S
C2214 C2230 1.368 . S
H2215 C2223 0.950 . S
H2216 C2221 0.950 . S
H2217 C2222 0.949 . S
H2218 C2224 0.950 . S
H2219 C2225 0.950 . S
H2220 C2226 0.949 . S
C2221 H2216 0.950 . S
C2221 C2223 1.327 . S
C2221 C2227 1.429 . S
C2222 C2214 1.574 . S
C2222 H2217 0.949 . S
C2222 C2228 1.368 . S
C2223 C2207 1.349 . S
C2223 H2215 0.950 . S
C2223 C2221 1.327 . S
C2224 C2212 1.349 . S
C2224 H2218 0.950 . S
C2224 C2225 1.327 . S
C2225 H2219 0.950 . S
C2225 C2224 1.327 . S
C2225 C2229 1.429 . S
C2226 C2209 1.574 . S
C2226 H2220 0.949 . S
C2226 C2230 1.368 . S
C2227 C2208 1.429 . S
C2227 C2221 1.429 . S
C2227 C2228 1.523 . S
C2228 C2209 1.368 . S
C2228 C2222 1.368 . S
C2228 C2227 1.523 . S
C2229 C2213 1.429 . S
C2229 C2225 1.429 . S
C2229 C2230 1.523 . S
C2230 C2214 1.368 . S
C2230 C2226 1.368 . S
C2230 C2229 1.523 . S
H2231 C2206 0.950 . S
H2232 C2208 0.950 . S
H2233 C2209 0.949 . S
H2234 C2211 0.950 . S
H2235 C2213 0.950 . S
C2236 C2237 1.349 . S
C2236 C2238 1.327 . S
C2236 H2261 0.950 . S
C2237 C2236 1.349 . S
C2237 C2253 1.349 . S
C2238 C2236 1.327 . S
C2238 C2257 1.429 . S
C2238 H2262 0.950 . S
C2239 C2256 1.574 . S
C2239 C2258 1.368 . S
C2239 H2263 0.949 . S
H2240 C2244 0.949 . S
C2241 C2242 1.349 . S
C2241 C2243 1.327 . S
C2241 H2264 0.950 . S
C2242 C2241 1.349 . S
C2242 C2254 1.349 . S
C2243 C2241 1.327 . S
C2243 C2259 1.429 . S
C2243 H2265 0.950 . S
C2244 H2240 0.949 . S
C2244 C2252 1.574 . S
C2244 C2260 1.368 . S
H2245 C2253 0.950 . S
H2246 C2251 0.950 . S
H2247 C2252 0.949 . S
H2248 C2254 0.950 . S
H2249 C2255 0.950 . S
H2250 C2256 0.949 . S
C2251 H2246 0.950 . S
C2251 C2253 1.327 . S
C2251 C2257 1.429 . S
C2252 C2244 1.574 . S
C2252 H2247 0.949 . S
C2252 C2258 1.368 . S
C2253 C2237 1.349 . S
C2253 H2245 0.950 . S
C2253 C2251 1.327 . S
C2254 C2242 1.349 . S
C2254 H2248 0.950 . S
C2254 C2255 1.327 . S
C2255 H2249 0.950 . S
C2255 C2254 1.327 . S
C2255 C2259 1.429 . S
C2256 C2239 1.574 . S
C2256 H2250 0.949 . S
C2256 C2260 1.368 . S
C2257 C2238 1.429 . S
C2257 C2251 1.429 . S
C2257 C2258 1.523 . S
C2258 C2239 1.368 . S
C2258 C2252 1.368 . S
C2258 C2257 1.523 . S
C2259 C2243 1.429 . S
C2259 C2255 1.429 . S
C2259 C2260 1.523 . S
C2260 C2244 1.368 . S
C2260 C2256 1.368 . S
C2260 C2259 1.523 . S
H2261 C2236 0.950 . S
H2262 C2238 0.950 . S
H2263 C2239 0.949 . S
H2264 C2241 0.950 . S
H2265 C2243 0.950 . S
C2266 C2267 1.349 . S
C2266 C2268 1.327 . S
C2266 H2291 0.950 . S
C2267 C2266 1.349 . S
C2267 C2283 1.349 . S
C2268 C2266 1.327 . S
C2268 C2287 1.429 . S
C2268 H2292 0.950 . S
C2269 C2286 1.574 . S
C2269 C2288 1.368 . S
C2269 H2293 0.949 . S
H2270 C2274 0.949 . S
C2271 C2272 1.349 . S
C2271 C2273 1.327 . S
C2271 H2294 0.950 . S
C2272 C2271 1.349 . S
C2272 C2284 1.349 . S
C2273 C2271 1.327 . S
C2273 C2289 1.429 . S
C2273 H2295 0.950 . S
C2274 H2270 0.949 . S
C2274 C2282 1.574 . S
C2274 C2290 1.368 . S
H2275 C2283 0.950 . S
H2276 C2281 0.950 . S
H2277 C2282 0.949 . S
H2278 C2284 0.950 . S
H2279 C2285 0.950 . S
H2280 C2286 0.949 . S
C2281 H2276 0.950 . S
C2281 C2283 1.327 . S
C2281 C2287 1.429 . S
C2282 C2274 1.574 . S
C2282 H2277 0.949 . S
C2282 C2288 1.368 . S
C2283 C2267 1.349 . S
C2283 H2275 0.950 . S
C2283 C2281 1.327 . S
C2284 C2272 1.349 . S
C2284 H2278 0.950 . S
C2284 C2285 1.327 . S
C2285 H2279 0.950 . S
C2285 C2284 1.327 . S
C2285 C2289 1.429 . S
C2286 C2269 1.574 . S
C2286 H2280 0.949 . S
C2286 C2290 1.368 . S
C2287 C2268 1.429 . S
C2287 C2281 1.429 . S
C2287 C2288 1.523 . S
C2288 C2269 1.368 . S
C2288 C2282 1.368 . S
C2288 C2287 1.523 . S
C2289 C2273 1.429 . S
C2289 C2285 1.429 . S
C2289 C2290 1.523 . S
C2290 C2274 1.368 . S
C2290 C2286 1.368 . S
C2290 C2289 1.523 . S
H2291 C2266 0.950 . S
H2292 C2268 0.950 . S
H2293 C2269 0.949 . S
H2294 C2271 0.950 . S
H2295 C2273 0.950 . S
C2296 C2297 1.349 . S
C2296 C2298 1.327 . S
C2296 H2321 0.950 . S
C2297 C2296 1.349 . S
C2297 C2313 1.349 . S
C2298 C2296 1.327 . S
C2298 C2317 1.429 . S
C2298 H2322 0.950 . S
C2299 C2316 1.574 . S
C2299 C2318 1.368 . S
C2299 H2323 0.949 . S
H2300 C2304 0.949 . S
C2301 C2302 1.349 . S
C2301 C2303 1.327 . S
C2301 H2324 0.950 . S
C2302 C2301 1.349 . S
C2302 C2314 1.349 . S
C2303 C2301 1.327 . S
C2303 C2319 1.429 . S
C2303 H2325 0.950 . S
C2304 H2300 0.949 . S
C2304 C2312 1.574 . S
C2304 C2320 1.368 . S
H2305 C2313 0.950 . S
H2306 C2311 0.950 . S
H2307 C2312 0.949 . S
H2308 C2314 0.950 . S
H2309 C2315 0.950 . S
H2310 C2316 0.949 . S
C2311 H2306 0.950 . S
C2311 C2313 1.327 . S
C2311 C2317 1.429 . S
C2312 C2304 1.574 . S
C2312 H2307 0.949 . S
C2312 C2318 1.368 . S
C2313 C2297 1.349 . S
C2313 H2305 0.950 . S
C2313 C2311 1.327 . S
C2314 C2302 1.349 . S
C2314 H2308 0.950 . S
C2314 C2315 1.327 . S
C2315 H2309 0.950 . S
C2315 C2314 1.327 . S
C2315 C2319 1.429 . S
C2316 C2299 1.574 . S
C2316 H2310 0.949 . S
C2316 C2320 1.368 . S
C2317 C2298 1.429 . S
C2317 C2311 1.429 . S
C2317 C2318 1.523 . S
C2318 C2299 1.368 . S
C2318 C2312 1.368 . S
C2318 C2317 1.523 . S
C2319 C2303 1.429 . S
C2319 C2315 1.429 . S
C2319 C2320 1.523 . S
C2320 C2304 1.368 . S
C2320 C2316 1.368 . S
C2320 C2319 1.523 . S
H2321 C2296 0.950 . S
H2322 C2298 0.950 . S
H2323 C2299 0.949 . S
H2324 C2301 0.950 . S
H2325 C2303 0.950 . S
C2326 C2327 1.349 . S
C2326 C2328 1.327 . S
C2326 H2351 0.950 . S
C2327 C2326 1.349 . S
C2327 C2343 1.349 . S
C2328 C2326 1.327 . S
C2328 C2347 1.429 . S
C2328 H2352 0.950 . S
C2329 C2346 1.574 . S
C2329 C2348 1.368 . S
C2329 H2353 0.949 . S
H2330 C2334 0.949 . S
C2331 C2332 1.349 . S
C2331 C2333 1.327 . S
C2331 H2354 0.950 . S
C2332 C2331 1.349 . S
C2332 C2344 1.349 . S
C2333 C2331 1.327 . S
C2333 C2349 1.429 . S
C2333 H2355 0.950 . S
C2334 H2330 0.949 . S
C2334 C2342 1.574 . S
C2334 C2350 1.368 . S
H2335 C2343 0.950 . S
H2336 C2341 0.950 . S
H2337 C2342 0.949 . S
H2338 C2344 0.950 . S
H2339 C2345 0.950 . S
H2340 C2346 0.949 . S
C2341 H2336 0.950 . S
C2341 C2343 1.327 . S
C2341 C2347 1.429 . S
C2342 C2334 1.574 . S
C2342 H2337 0.949 . S
C2342 C2348 1.368 . S
C2343 C2327 1.349 . S
C2343 H2335 0.950 . S
C2343 C2341 1.327 . S
C2344 C2332 1.349 . S
C2344 H2338 0.950 . S
C2344 C2345 1.327 . S
C2345 H2339 0.950 . S
C2345 C2344 1.327 . S
C2345 C2349 1.429 . S
C2346 C2329 1.574 . S
C2346 H2340 0.949 . S
C2346 C2350 1.368 . S
C2347 C2328 1.429 . S
C2347 C2341 1.429 . S
C2347 C2348 1.523 . S
C2348 C2329 1.368 . S
C2348 C2342 1.368 . S
C2348 C2347 1.523 . S
C2349 C2333 1.429 . S
C2349 C2345 1.429 . S
C2349 C2350 1.523 . S
C2350 C2334 1.368 . S
C2350 C2346 1.368 . S
C2350 C2349 1.523 . S
H2351 C2326 0.950 . S
H2352 C2328 0.950 . S
H2353 C2329 0.949 . S
H2354 C2331 0.950 . S
H2355 C2333 0.950 . S
C2356 C2357 1.349 . S
C2356 C2358 1.327 . S
C2356 H2381 0.950 . S
C2357 C2356 1.349 . S
C2357 C2373 1.349 . S
C2358 C2356 1.327 . S
C2358 C2377 1.429 . S
C2358 H2382 0.950 . S
C2359 C2376 1.574 . S
C2359 C2378 1.368 . S
C2359 H2383 0.949 . S
H2360 C2364 0.949 . S
C2361 C2362 1.349 . S
C2361 C2363 1.327 . S
C2361 H2384 0.950 . S
C2362 C2361 1.349 . S
C2362 C2374 1.349 . S
C2363 C2361 1.327 . S
C2363 C2379 1.429 . S
C2363 H2385 0.950 . S
C2364 H2360 0.949 . S
C2364 C2372 1.574 . S
C2364 C2380 1.368 . S
H2365 C2373 0.950 . S
H2366 C2371 0.950 . S
H2367 C2372 0.949 . S
H2368 C2374 0.950 . S
H2369 C2375 0.950 . S
H2370 C2376 0.949 . S
C2371 H2366 0.950 . S
C2371 C2373 1.327 . S
C2371 C2377 1.429 . S
C2372 C2364 1.574 . S
C2372 H2367 0.949 . S
C2372 C2378 1.368 . S
C2373 C2357 1.349 . S
C2373 H2365 0.950 . S
C2373 C2371 1.327 . S
C2374 C2362 1.349 . S
C2374 H2368 0.950 . S
C2374 C2375 1.327 . S
C2375 H2369 0.950 . S
C2375 C2374 1.327 . S
C2375 C2379 1.429 . S
C2376 C2359 1.574 . S
C2376 H2370 0.949 . S
C2376 C2380 1.368 . S
C2377 C2358 1.429 . S
C2377 C2371 1.429 . S
C2377 C2378 1.523 . S
C2378 C2359 1.368 . S
C2378 C2372 1.368 . S
C2378 C2377 1.523 . S
C2379 C2363 1.429 . S
C2379 C2375 1.429 . S
C2379 C2380 1.523 . S
C2380 C2364 1.368 . S
C2380 C2376 1.368 . S
C2380 C2379 1.523 . S
H2381 C2356 0.950 . S
H2382 C2358 0.950 . S
H2383 C2359 0.949 . S
H2384 C2361 0.950 . S
H2385 C2363 0.950 . S
C2386 C2387 1.349 . S
C2386 C2388 1.327 . S
C2386 H2411 0.950 . S
C2387 C2386 1.349 . S
C2387 C2403 1.349 . S
C2388 C2386 1.327 . S
C2388 C2407 1.429 . S
C2388 H2412 0.950 . S
C2389 C2406 1.574 . S
C2389 C2408 1.368 . S
C2389 H2413 0.949 . S
H2390 C2394 0.949 . S
C2391 C2392 1.349 . S
C2391 C2393 1.327 . S
C2391 H2414 0.950 . S
C2392 C2391 1.349 . S
C2392 C2404 1.349 . S
C2393 C2391 1.327 . S
C2393 C2409 1.429 . S
C2393 H2415 0.950 . S
C2394 H2390 0.949 . S
C2394 C2402 1.574 . S
C2394 C2410 1.368 . S
H2395 C2403 0.950 . S
H2396 C2401 0.950 . S
H2397 C2402 0.949 . S
H2398 C2404 0.950 . S
H2399 C2405 0.950 . S
H2400 C2406 0.949 . S
C2401 H2396 0.950 . S
C2401 C2403 1.327 . S
C2401 C2407 1.429 . S
C2402 C2394 1.574 . S
C2402 H2397 0.949 . S
C2402 C2408 1.368 . S
C2403 C2387 1.349 . S
C2403 H2395 0.950 . S
C2403 C2401 1.327 . S
C2404 C2392 1.349 . S
C2404 H2398 0.950 . S
C2404 C2405 1.327 . S
C2405 H2399 0.950 . S
C2405 C2404 1.327 . S
C2405 C2409 1.429 . S
C2406 C2389 1.574 . S
C2406 H2400 0.949 . S
C2406 C2410 1.368 . S
C2407 C2388 1.429 . S
C2407 C2401 1.429 . S
C2407 C2408 1.523 . S
C2408 C2389 1.368 . S
C2408 C2402 1.368 . S
C2408 C2407 1.523 . S
C2409 C2393 1.429 . S
C2409 C2405 1.429 . S
C2409 C2410 1.523 . S
C2410 C2394 1.368 . S
C2410 C2406 1.368 . S
C2410 C2409 1.523 . S
H2411 C2386 0.950 . S
H2412 C2388 0.950 . S
H2413 C2389 0.949 . S
H2414 C2391 0.950 . S
H2415 C2393 0.950 . S
C2416 C2417 1.349 . S
C2416 C2418 1.327 . S
C2416 H2441 0.950 . S
C2417 C2416 1.349 . S
C2417 C2433 1.349 . S
C2418 C2416 1.327 . S
C2418 C2437 1.429 . S
C2418 H2442 0.950 . S
C2419 C2436 1.574 . S
C2419 C2438 1.368 . S
C2419 H2443 0.949 . S
H2420 C2424 0.949 . S
C2421 C2422 1.349 . S
C2421 C2423 1.327 . S
C2421 H2444 0.950 . S
C2422 C2421 1.349 . S
C2422 C2434 1.349 . S
C2423 C2421 1.327 . S
C2423 C2439 1.429 . S
C2423 H2445 0.950 . S
C2424 H2420 0.949 . S
C2424 C2432 1.574 . S
C2424 C2440 1.368 . S
H2425 C2433 0.950 . S
H2426 C2431 0.950 . S
H2427 C2432 0.949 . S
H2428 C2434 0.950 . S
H2429 C2435 0.950 . S
H2430 C2436 0.949 . S
C2431 H2426 0.950 . S
C2431 C2433 1.327 . S
C2431 C2437 1.429 . S
C2432 C2424 1.574 . S
C2432 H2427 0.949 . S
C2432 C2438 1.368 . S
C2433 C2417 1.349 . S
C2433 H2425 0.950 . S
C2433 C2431 1.327 . S
C2434 C2422 1.349 . S
C2434 H2428 0.950 . S
C2434 C2435 1.327 . S
C2435 H2429 0.950 . S
C2435 C2434 1.327 . S
C2435 C2439 1.429 . S
C2436 C2419 1.574 . S
C2436 H2430 0.949 . S
C2436 C2440 1.368 . S
C2437 C2418 1.429 . S
C2437 C2431 1.429 . S
C2437 C2438 1.523 . S
C2438 C2419 1.368 . S
C2438 C2432 1.368 . S
C2438 C2437 1.523 . S
C2439 C2423 1.429 . S
C2439 C2435 1.429 . S
C2439 C2440 1.523 . S
C2440 C2424 1.368 . S
C2440 C2436 1.368 . S
C2440 C2439 1.523 . S
H2441 C2416 0.950 . S
H2442 C2418 0.950 . S
H2443 C2419 0.949 . S
H2444 C2421 0.950 . S
H2445 C2423 0.950 . S
C2446 C2447 1.349 . S
C2446 C2448 1.327 . S
C2446 H2471 0.950 . S
C2447 C2446 1.349 . S
C2447 C2463 1.349 . S
C2448 C2446 1.327 . S
C2448 C2467 1.429 . S
C2448 H2472 0.950 . S
C2449 C2466 1.574 . S
C2449 C2468 1.368 . S
C2449 H2473 0.949 . S
H2450 C2454 0.949 . S
C2451 C2452 1.349 . S
C2451 C2453 1.327 . S
C2451 H2474 0.950 . S
C2452 C2451 1.349 . S
C2452 C2464 1.349 . S
C2453 C2451 1.327 . S
C2453 C2469 1.429 . S
C2453 H2475 0.950 . S
C2454 H2450 0.949 . S
C2454 C2462 1.574 . S
C2454 C2470 1.368 . S
H2455 C2463 0.950 . S
H2456 C2461 0.950 . S
H2457 C2462 0.949 . S
H2458 C2464 0.950 . S
H2459 C2465 0.950 . S
H2460 C2466 0.949 . S
C2461 H2456 0.950 . S
C2461 C2463 1.327 . S
C2461 C2467 1.429 . S
C2462 C2454 1.574 . S
C2462 H2457 0.949 . S
C2462 C2468 1.368 . S
C2463 C2447 1.349 . S
C2463 H2455 0.950 . S
C2463 C2461 1.327 . S
C2464 C2452 1.349 . S
C2464 H2458 0.950 . S
C2464 C2465 1.327 . S
C2465 H2459 0.950 . S
C2465 C2464 1.327 . S
C2465 C2469 1.429 . S
C2466 C2449 1.574 . S
C2466 H2460 0.949 . S
C2466 C2470 1.368 . S
C2467 C2448 1.429 . S
C2467 C2461 1.429 . S
C2467 C2468 1.523 . S
C2468 C2449 1.368 . S
C2468 C2462 1.368 . S
C2468 C2467 1.523 . S
C2469 C2453 1.429 . S
C2469 C2465 1.429 . S
C2469 C2470 1.523 . S
C2470 C2454 1.368 . S
C2470 C2466 1.368 . S
C2470 C2469 1.523 . S
H2471 C2446 0.950 . S
H2472 C2448 0.950 . S
H2473 C2449 0.949 . S
H2474 C2451 0.950 . S
H2475 C2453 0.950 . S
C2476 C2477 1.349 . S
C2476 C2478 1.327 . S
C2476 H2501 0.950 . S
C2477 C2476 1.349 . S
C2477 C2493 1.349 . S
C2478 C2476 1.327 . S
C2478 C2497 1.429 . S
C2478 H2502 0.950 . S
C2479 C2496 1.574 . S
C2479 C2498 1.368 . S
C2479 H2503 0.949 . S
H2480 C2484 0.949 . S
C2481 C2482 1.349 . S
C2481 C2483 1.327 . S
C2481 H2504 0.950 . S
C2482 C2481 1.349 . S
C2482 C2494 1.349 . S
C2483 C2481 1.327 . S
C2483 C2499 1.429 . S
C2483 H2505 0.950 1_554 S
C2484 H2480 0.949 . S
C2484 C2492 1.574 . S
C2484 C2500 1.368 . S
H2485 C2493 0.952 . S
H2486 C2491 0.950 . S
H2487 C2492 0.949 . S
H2488 C2494 0.950 . S
H2489 C2495 0.950 . S
H2490 C2496 0.949 . S
C2491 H2486 0.950 . S
C2491 C2493 1.327 . S
C2491 C2497 1.429 . S
C2492 C2484 1.574 . S
C2492 H2487 0.949 . S
C2492 C2498 1.368 1_554 S
C2493 C2477 1.349 . S
C2493 H2485 0.952 . S
C2493 C2491 1.327 . S
C2494 C2482 1.349 . S
C2494 H2488 0.950 . S
C2494 C2495 1.327 . S
C2495 H2489 0.950 . S
C2495 C2494 1.327 . S
C2495 C2499 1.429 . S
C2496 C2479 1.574 . S
C2496 H2490 0.949 . S
C2496 C2500 1.368 1_556 S
C2497 C2478 1.429 . S
C2497 C2491 1.429 . S
C2497 C2498 1.523 . S
C2498 C2479 1.368 . S
C2498 C2492 1.368 1_556 S
C2498 C2497 1.523 . S
C2499 C2483 1.429 . S
C2499 C2495 1.429 . S
C2499 C2500 1.523 . S
C2500 C2484 1.368 . S
C2500 C2496 1.368 1_554 S
C2500 C2499 1.523 . S
H2501 C2476 0.950 . S
H2502 C2478 0.950 . S
H2503 C2479 0.949 . S
H2504 C2481 0.950 . S
H2505 C2483 0.950 1_556 S
C2506 C2507 1.349 . S
C2506 C2508 1.327 . S
C2506 H2531 0.981 . S
C2507 C2506 1.349 . S
C2507 C2523 1.349 . S
C2508 C2506 1.327 . S
C2508 C2527 1.429 . S
C2508 H2532 0.950 . S
C2509 C2526 1.574 . S
C2509 C2528 1.368 . S
C2509 H2533 0.949 . S
H2510 C2514 0.949 . S
C2511 C2512 1.349 . S
C2511 C2513 1.327 . S
C2511 H2534 0.950 . S
C2512 C2511 1.349 . S
C2512 C2524 1.349 . S
C2513 C2511 1.327 . S
C2513 C2529 1.429 . S
C2513 H2535 0.950 . S
C2514 H2510 0.949 . S
C2514 C2522 1.574 . S
C2514 C2530 1.368 . S
H2515 C2523 0.950 . S
H2516 C2521 0.950 . S
H2517 C2522 0.949 . S
H2518 C2524 0.950 . S
H2519 C2525 0.950 . S
H2520 C2526 0.949 . S
C2521 H2516 0.950 . S
C2521 C2523 1.327 . S
C2521 C2527 1.429 . S
C2522 C2514 1.574 . S
C2522 H2517 0.949 . S
C2522 C2528 1.368 . S
C2523 C2507 1.349 . S
C2523 H2515 0.950 . S
C2523 C2521 1.327 . S
C2524 C2512 1.349 . S
C2524 H2518 0.950 . S
C2524 C2525 1.327 . S
C2525 H2519 0.950 . S
C2525 C2524 1.327 . S
C2525 C2529 1.429 . S
C2526 C2509 1.574 . S
C2526 H2520 0.949 . S
C2526 C2530 1.368 . S
C2527 C2508 1.429 . S
C2527 C2521 1.429 . S
C2527 C2528 1.523 . S
C2528 C2509 1.368 . S
C2528 C2522 1.368 . S
C2528 C2527 1.523 . S
C2529 C2513 1.429 . S
C2529 C2525 1.429 . S
C2529 C2530 1.523 . S
C2530 C2514 1.368 . S
C2530 C2526 1.368 . S
C2530 C2529 1.523 . S
H2531 C2506 0.981 . S
H2532 C2508 0.950 . S
H2533 C2509 0.949 . S
H2534 C2511 0.950 . S
H2535 C2513 0.950 . S
C2536 C2537 1.349 . S
C2536 C2538 1.327 . S
C2536 H2561 0.950 . S
C2537 C2536 1.349 . S
C2537 C2553 1.349 . S
C2538 C2536 1.327 . S
C2538 C2557 1.429 . S
C2538 H2562 0.950 . S
C2539 C2556 1.574 . S
C2539 C2558 1.368 . S
C2539 H2563 0.949 . S
H2540 C2544 0.949 . S
C2541 C2542 1.349 . S
C2541 C2543 1.327 . S
C2541 H2564 0.950 . S
C2542 C2541 1.349 . S
C2542 C2554 1.349 . S
C2543 C2541 1.327 . S
C2543 C2559 1.429 . S
C2543 H2565 0.950 . S
C2544 H2540 0.949 . S
C2544 C2552 1.574 . S
C2544 C2560 1.368 . S
H2545 C2553 0.950 . S
H2546 C2551 0.950 . S
H2547 C2552 0.949 . S
H2548 C2554 0.950 . S
H2549 C2555 0.950 . S
H2550 C2556 0.949 . S
C2551 H2546 0.950 . S
C2551 C2553 1.327 . S
C2551 C2557 1.429 . S
C2552 C2544 1.574 . S
C2552 H2547 0.949 . S
C2552 C2558 1.368 . S
C2553 C2537 1.349 . S
C2553 H2545 0.950 . S
C2553 C2551 1.327 . S
C2554 C2542 1.349 . S
C2554 H2548 0.950 . S
C2554 C2555 1.327 . S
C2555 H2549 0.950 . S
C2555 C2554 1.327 . S
C2555 C2559 1.429 . S
C2556 C2539 1.574 . S
C2556 H2550 0.949 . S
C2556 C2560 1.368 . S
C2557 C2538 1.429 . S
C2557 C2551 1.429 . S
C2557 C2558 1.523 . S
C2558 C2539 1.368 . S
C2558 C2552 1.368 . S
C2558 C2557 1.523 . S
C2559 C2543 1.429 . S
C2559 C2555 1.429 . S
C2559 C2560 1.523 . S
C2560 C2544 1.368 . S
C2560 C2556 1.368 . S
C2560 C2559 1.523 . S
H2561 C2536 0.950 . S
H2562 C2538 0.950 . S
H2563 C2539 0.949 . S
H2564 C2541 0.950 . S
H2565 C2543 0.950 . S
C2566 C2567 1.349 . S
C2566 C2568 1.327 . S
C2566 H2591 0.950 1_655 S
C2567 C2566 1.349 . S
C2567 C2583 1.349 . S
C2568 C2566 1.327 . S
C2568 C2587 1.429 . S
C2568 H2592 0.950 . S
C2569 C2586 1.574 . S
C2569 C2588 1.368 . S
C2569 H2593 0.949 . S
H2570 C2574 0.949 . S
C2571 C2572 1.349 . S
C2571 C2573 1.327 . S
C2571 H2594 0.950 . S
C2572 C2571 1.349 . S
C2572 C2584 1.349 . S
C2573 C2571 1.327 . S
C2573 C2589 1.429 . S
C2573 H2595 0.950 . S
C2574 H2570 0.949 . S
C2574 C2582 1.574 . S
C2574 C2590 1.368 . S
H2575 C2583 0.950 . S
H2576 C2581 0.950 . S
H2577 C2582 0.949 . S
H2578 C2584 0.950 . S
H2579 C2585 0.950 . S
H2580 C2586 0.949 . S
C2581 H2576 0.950 . S
C2581 C2583 1.327 . S
C2581 C2587 1.429 . S
C2582 C2574 1.574 . S
C2582 H2577 0.949 . S
C2582 C2588 1.368 . S
C2583 C2567 1.349 . S
C2583 H2575 0.950 . S
C2583 C2581 1.327 . S
C2584 C2572 1.349 . S
C2584 H2578 0.950 . S
C2584 C2585 1.327 . S
C2585 H2579 0.950 . S
C2585 C2584 1.327 . S
C2585 C2589 1.429 . S
C2586 C2569 1.574 . S
C2586 H2580 0.949 . S
C2586 C2590 1.368 . S
C2587 C2568 1.429 . S
C2587 C2581 1.429 . S
C2587 C2588 1.523 . S
C2588 C2569 1.368 . S
C2588 C2582 1.368 . S
C2588 C2587 1.523 . S
C2589 C2573 1.429 . S
C2589 C2585 1.429 . S
C2589 C2590 1.523 . S
C2590 C2574 1.368 . S
C2590 C2586 1.368 . S
C2590 C2589 1.523 . S
H2591 C2566 0.950 1_455 S
H2592 C2568 0.950 . S
H2593 C2569 0.949 . S
H2594 C2571 0.950 . S
H2595 C2573 0.950 . S
C2596 C2597 1.349 1_655 S
C2596 C2598 1.327 . S
C2596 H2621 0.950 . S
C2597 C2596 1.349 1_455 S
C2597 C2613 1.350 . S
C2598 C2596 1.327 . S
C2598 C2617 1.429 1_655 S
C2598 H2622 0.950 . S
C2599 C2616 1.574 . S
C2599 C2618 1.368 . S
C2599 H2623 0.949 . S
H2600 C2604 0.949 . S
C2601 C2602 1.349 . S
C2601 C2603 1.327 . S
C2601 H2624 0.950 . S
C2602 C2601 1.349 . S
C2602 C2614 1.349 . S
C2603 C2601 1.327 . S
C2603 C2619 1.429 . S
C2603 H2625 0.950 . S
C2604 H2600 0.949 . S
C2604 C2612 1.574 . S
C2604 C2620 1.368 . S
H2605 C2613 0.950 . S
H2606 C2611 0.950 . S
H2607 C2612 0.949 1_655 S
H2608 C2614 0.950 . S
H2609 C2615 0.950 . S
H2610 C2616 0.949 . S
C2611 H2606 0.950 . S
C2611 C2613 1.327 . S
C2611 C2617 1.429 . S
C2612 C2604 1.574 . S
C2612 H2607 0.949 1_455 S
C2612 C2618 1.368 . S
C2613 C2597 1.350 . S
C2613 H2605 0.950 . S
C2613 C2611 1.327 . S
C2614 C2602 1.349 . S
C2614 H2608 0.950 . S
C2614 C2615 1.327 . S
C2615 H2609 0.950 . S
C2615 C2614 1.327 . S
C2615 C2619 1.429 . S
C2616 C2599 1.574 . S
C2616 H2610 0.949 . S
C2616 C2620 1.368 . S
C2617 C2598 1.429 1_455 S
C2617 C2611 1.429 . S
C2617 C2618 1.523 . S
C2618 C2599 1.368 . S
C2618 C2612 1.368 . S
C2618 C2617 1.523 . S
C2619 C2603 1.429 . S
C2619 C2615 1.429 . S
C2619 C2620 1.523 . S
C2620 C2604 1.368 . S
C2620 C2616 1.368 . S
C2620 C2619 1.523 . S
H2621 C2596 0.950 . S
H2622 C2598 0.950 . S
H2623 C2599 0.949 . S
H2624 C2601 0.950 . S
H2625 C2603 0.950 . S
C2626 C2627 1.349 . S
C2626 C2628 1.327 . S
C2626 H2651 0.950 . S
C2627 C2626 1.349 . S
C2627 C2643 1.349 . S
C2628 C2626 1.327 . S
C2628 C2647 1.429 . S
C2628 H2652 0.950 . S
C2629 C2646 1.574 . S
C2629 C2648 1.368 . S
C2629 H2653 0.949 . S
H2630 C2634 0.949 . S
C2631 C2632 1.349 . S
C2631 C2633 1.327 . S
C2631 H2654 0.950 . S
C2632 C2631 1.349 . S
C2632 C2644 1.349 . S
C2633 C2631 1.327 . S
C2633 C2649 1.429 . S
C2633 H2655 0.950 . S
C2634 H2630 0.949 . S
C2634 C2642 1.574 . S
C2634 C2650 1.368 . S
H2635 C2643 0.950 . S
H2636 C2641 0.950 . S
H2637 C2642 0.949 . S
H2638 C2644 0.950 . S
H2639 C2645 0.950 . S
H2640 C2646 0.949 . S
C2641 H2636 0.950 . S
C2641 C2643 1.327 . S
C2641 C2647 1.429 . S
C2642 C2634 1.574 . S
C2642 H2637 0.949 . S
C2642 C2648 1.368 . S
C2643 C2627 1.349 . S
C2643 H2635 0.950 . S
C2643 C2641 1.327 . S
C2644 C2632 1.349 . S
C2644 H2638 0.950 . S
C2644 C2645 1.327 . S
C2645 H2639 0.950 . S
C2645 C2644 1.327 . S
C2645 C2649 1.429 . S
C2646 C2629 1.574 . S
C2646 H2640 0.949 . S
C2646 C2650 1.368 . S
C2647 C2628 1.429 . S
C2647 C2641 1.429 . S
C2647 C2648 1.523 . S
C2648 C2629 1.368 . S
C2648 C2642 1.368 . S
C2648 C2647 1.523 . S
C2649 C2633 1.429 . S
C2649 C2645 1.429 . S
C2649 C2650 1.523 . S
C2650 C2634 1.368 . S
C2650 C2646 1.368 . S
C2650 C2649 1.523 . S
H2651 C2626 0.950 . S
H2652 C2628 0.950 . S
H2653 C2629 0.949 . S
H2654 C2631 0.950 . S
H2655 C2633 0.950 . S
C2656 C2657 1.349 . S
C2656 C2658 1.327 . S
C2656 H2681 0.950 . S
C2657 C2656 1.349 . S
C2657 C2673 1.349 . S
C2658 C2656 1.327 . S
C2658 C2677 1.429 . S
C2658 H2682 0.950 . S
C2659 C2676 1.574 . S
C2659 C2678 1.368 . S
C2659 H2683 0.949 . S
H2660 C2664 0.949 . S
C2661 C2662 1.349 . S
C2661 C2663 1.327 . S
C2661 H2684 0.950 . S
C2662 C2661 1.349 . S
C2662 C2674 1.349 . S
C2663 C2661 1.327 . S
C2663 C2679 1.429 . S
C2663 H2685 0.950 . S
C2664 H2660 0.949 . S
C2664 C2672 1.574 . S
C2664 C2680 1.368 . S
H2665 C2673 0.950 . S
H2666 C2671 0.950 . S
H2667 C2672 0.949 . S
H2668 C2674 0.950 . S
H2669 C2675 0.950 . S
H2670 C2676 0.949 . S
C2671 H2666 0.950 . S
C2671 C2673 1.327 . S
C2671 C2677 1.429 . S
C2672 C2664 1.574 . S
C2672 H2667 0.949 . S
C2672 C2678 1.368 . S
C2673 C2657 1.349 . S
C2673 H2665 0.950 . S
C2673 C2671 1.327 . S
C2674 C2662 1.349 . S
C2674 H2668 0.950 . S
C2674 C2675 1.327 . S
C2675 H2669 0.950 . S
C2675 C2674 1.327 . S
C2675 C2679 1.429 . S
C2676 C2659 1.574 . S
C2676 H2670 0.949 . S
C2676 C2680 1.368 . S
C2677 C2658 1.429 . S
C2677 C2671 1.429 . S
C2677 C2678 1.523 . S
C2678 C2659 1.368 . S
C2678 C2672 1.368 . S
C2678 C2677 1.523 . S
C2679 C2663 1.429 . S
C2679 C2675 1.429 . S
C2679 C2680 1.523 . S
C2680 C2664 1.368 . S
C2680 C2676 1.368 . S
C2680 C2679 1.523 . S
H2681 C2656 0.950 . S
H2682 C2658 0.950 . S
H2683 C2659 0.949 . S
H2684 C2661 0.950 . S
H2685 C2663 0.950 . S
C2686 C2687 1.349 . S
C2686 C2688 1.327 1_554 S
C2686 H2711 0.950 . S
C2687 C2686 1.349 . S
C2687 C2703 1.349 . S
C2688 C2686 1.327 1_556 S
C2688 C2707 1.429 . S
C2688 H2712 0.950 . S
C2689 C2706 1.574 . S
C2689 C2708 1.368 . S
C2689 H2713 0.949 . S
H2690 C2694 0.949 . S
C2691 C2692 1.349 . S
C2691 C2693 1.327 . S
C2691 H2714 0.950 . S
C2692 C2691 1.349 . S
C2692 C2704 1.349 . S
C2693 C2691 1.327 . S
C2693 C2709 1.429 . S
C2693 H2715 0.950 . S
C2694 H2690 0.949 . S
C2694 C2702 1.574 . S
C2694 C2710 1.368 . S
H2695 C2703 0.950 . S
H2696 C2701 0.950 . S
H2697 C2702 0.949 . S
H2698 C2704 0.950 . S
H2699 C2705 0.950 . S
H2700 C2706 0.949 . S
C2701 H2696 0.950 . S
C2701 C2703 1.327 1_556 S
C2701 C2707 1.429 . S
C2702 C2694 1.574 . S
C2702 H2697 0.949 . S
C2702 C2708 1.368 . S
C2703 C2687 1.349 . S
C2703 H2695 0.950 . S
C2703 C2701 1.327 1_554 S
C2704 C2692 1.349 . S
C2704 H2698 0.950 . S
C2704 C2705 1.327 . S
C2705 H2699 0.950 . S
C2705 C2704 1.327 . S
C2705 C2709 1.429 . S
C2706 C2689 1.574 . S
C2706 H2700 0.949 . S
C2706 C2710 1.368 . S
C2707 C2688 1.429 . S
C2707 C2701 1.429 . S
C2707 C2708 1.523 . S
C2708 C2689 1.368 . S
C2708 C2702 1.368 . S
C2708 C2707 1.523 . S
C2709 C2693 1.429 . S
C2709 C2705 1.429 . S
C2709 C2710 1.523 . S
C2710 C2694 1.368 . S
C2710 C2706 1.368 . S
C2710 C2709 1.523 . S
H2711 C2686 0.950 . S
H2712 C2688 0.950 . S
H2713 C2689 0.949 . S
H2714 C2691 0.950 . S
H2715 C2693 0.950 . S
C2716 C2717 1.349 . S
C2716 C2718 1.327 . S
C2716 H2741 0.950 . S
C2717 C2716 1.349 . S
C2717 C2733 1.349 . S
C2718 C2716 1.327 . S
C2718 C2737 1.429 . S
C2718 H2742 0.950 . S
C2719 C2736 1.574 . S
C2719 C2738 1.368 . S
C2719 H2743 0.949 . S
H2720 C2724 0.949 . S
C2721 C2722 1.349 . S
C2721 C2723 1.327 . S
C2721 H2744 0.950 . S
C2722 C2721 1.349 . S
C2722 C2734 1.349 . S
C2723 C2721 1.327 . S
C2723 C2739 1.429 . S
C2723 H2745 0.950 . S
C2724 H2720 0.949 . S
C2724 C2732 1.574 . S
C2724 C2740 1.368 . S
H2725 C2733 0.950 . S
H2726 C2731 0.950 . S
H2727 C2732 0.949 . S
H2728 C2734 0.950 . S
H2729 C2735 0.950 . S
H2730 C2736 0.949 . S
C2731 H2726 0.950 . S
C2731 C2733 1.327 . S
C2731 C2737 1.429 . S
C2732 C2724 1.574 . S
C2732 H2727 0.949 . S
C2732 C2738 1.368 . S
C2733 C2717 1.349 . S
C2733 H2725 0.950 . S
C2733 C2731 1.327 . S
C2734 C2722 1.349 . S
C2734 H2728 0.950 . S
C2734 C2735 1.327 . S
C2735 H2729 0.950 . S
C2735 C2734 1.327 . S
C2735 C2739 1.429 . S
C2736 C2719 1.574 . S
C2736 H2730 0.949 . S
C2736 C2740 1.368 . S
C2737 C2718 1.429 . S
C2737 C2731 1.429 . S
C2737 C2738 1.523 . S
C2738 C2719 1.368 . S
C2738 C2732 1.368 . S
C2738 C2737 1.523 . S
C2739 C2723 1.429 . S
C2739 C2735 1.429 . S
C2739 C2740 1.523 . S
C2740 C2724 1.368 . S
C2740 C2736 1.368 . S
C2740 C2739 1.523 . S
H2741 C2716 0.950 . S
H2742 C2718 0.950 . S
H2743 C2719 0.949 . S
H2744 C2721 0.950 . S
H2745 C2723 0.950 . S
C2746 C2747 1.349 . S
C2746 C2748 1.327 . S
C2746 H2771 0.950 . S
C2747 C2746 1.349 . S
C2747 C2763 1.349 . S
C2748 C2746 1.327 . S
C2748 C2767 1.429 . S
C2748 H2772 0.950 . S
C2749 C2766 1.574 . S
C2749 C2768 1.368 . S
C2749 H2773 0.949 . S
H2750 C2754 0.949 . S
C2751 C2752 1.349 . S
C2751 C2753 1.327 . S
C2751 H2774 0.950 . S
C2752 C2751 1.349 . S
C2752 C2764 1.349 . S
C2753 C2751 1.327 . S
C2753 C2769 1.429 . S
C2753 H2775 0.950 . S
C2754 H2750 0.949 . S
C2754 C2762 1.574 . S
C2754 C2770 1.368 . S
H2755 C2763 0.950 . S
H2756 C2761 0.950 . S
H2757 C2762 0.949 . S
H2758 C2764 0.950 . S
H2759 C2765 0.950 . S
H2760 C2766 0.949 . S
C2761 H2756 0.950 . S
C2761 C2763 1.327 . S
C2761 C2767 1.429 . S
C2762 C2754 1.574 . S
C2762 H2757 0.949 . S
C2762 C2768 1.368 . S
C2763 C2747 1.349 . S
C2763 H2755 0.950 . S
C2763 C2761 1.327 . S
C2764 C2752 1.349 . S
C2764 H2758 0.950 . S
C2764 C2765 1.327 . S
C2765 H2759 0.950 . S
C2765 C2764 1.327 . S
C2765 C2769 1.429 . S
C2766 C2749 1.574 . S
C2766 H2760 0.949 . S
C2766 C2770 1.368 . S
C2767 C2748 1.429 . S
C2767 C2761 1.429 . S
C2767 C2768 1.523 . S
C2768 C2749 1.368 . S
C2768 C2762 1.368 . S
C2768 C2767 1.523 . S
C2769 C2753 1.429 . S
C2769 C2765 1.429 . S
C2769 C2770 1.523 . S
C2770 C2754 1.368 . S
C2770 C2766 1.368 . S
C2770 C2769 1.523 . S
H2771 C2746 0.950 . S
H2772 C2748 0.950 . S
H2773 C2749 0.949 . S
H2774 C2751 0.950 . S
H2775 C2753 0.950 . S
C2776 C2777 1.349 . S
C2776 C2778 1.327 . S
C2776 H2801 0.950 . S
C2777 C2776 1.349 . S
C2777 C2793 1.349 . S
C2778 C2776 1.327 . S
C2778 C2797 1.429 . S
C2778 H2802 0.950 . S
C2779 C2796 1.574 . S
C2779 C2798 1.368 . S
C2779 H2803 0.949 . S
H2780 C2784 0.949 . S
C2781 C2782 1.349 . S
C2781 C2783 1.327 . S
C2781 H2804 0.950 . S
C2782 C2781 1.349 . S
C2782 C2794 1.349 . S
C2783 C2781 1.327 . S
C2783 C2799 1.429 . S
C2783 H2805 0.950 . S
C2784 H2780 0.949 . S
C2784 C2792 1.574 . S
C2784 C2800 1.368 . S
H2785 C2793 0.950 . S
H2786 C2791 0.950 . S
H2787 C2792 0.949 . S
H2788 C2794 0.950 . S
H2789 C2795 0.950 . S
H2790 C2796 0.949 . S
C2791 H2786 0.950 . S
C2791 C2793 1.327 . S
C2791 C2797 1.429 . S
C2792 C2784 1.574 . S
C2792 H2787 0.949 . S
C2792 C2798 1.368 . S
C2793 C2777 1.349 . S
C2793 H2785 0.950 . S
C2793 C2791 1.327 . S
C2794 C2782 1.349 . S
C2794 H2788 0.950 . S
C2794 C2795 1.327 . S
C2795 H2789 0.950 . S
C2795 C2794 1.327 . S
C2795 C2799 1.429 . S
C2796 C2779 1.574 . S
C2796 H2790 0.949 . S
C2796 C2800 1.368 . S
C2797 C2778 1.429 . S
C2797 C2791 1.429 . S
C2797 C2798 1.523 . S
C2798 C2779 1.368 . S
C2798 C2792 1.368 . S
C2798 C2797 1.523 . S
C2799 C2783 1.429 . S
C2799 C2795 1.429 . S
C2799 C2800 1.523 . S
C2800 C2784 1.368 . S
C2800 C2796 1.368 . S
C2800 C2799 1.523 . S
H2801 C2776 0.950 . S
H2802 C2778 0.950 . S
H2803 C2779 0.949 . S
H2804 C2781 0.950 . S
H2805 C2783 0.950 . S
C2806 C2807 1.349 . S
C2806 C2808 1.327 . S
C2806 H2831 0.950 . S
C2807 C2806 1.349 . S
C2807 C2823 1.349 . S
C2808 C2806 1.327 . S
C2808 C2827 1.429 . S
C2808 H2832 0.950 . S
C2809 C2826 1.574 . S
C2809 C2828 1.368 . S
C2809 H2833 0.949 . S
H2810 C2814 0.949 . S
C2811 C2812 1.349 . S
C2811 C2813 1.327 . S
C2811 H2834 0.950 . S
C2812 C2811 1.349 . S
C2812 C2824 1.349 . S
C2813 C2811 1.327 . S
C2813 C2829 1.429 . S
C2813 H2835 0.950 . S
C2814 H2810 0.949 . S
C2814 C2822 1.574 . S
C2814 C2830 1.368 . S
H2815 C2823 0.950 . S
H2816 C2821 0.950 . S
H2817 C2822 0.949 . S
H2818 C2824 0.950 . S
H2819 C2825 0.950 . S
H2820 C2826 0.949 . S
C2821 H2816 0.950 . S
C2821 C2823 1.327 . S
C2821 C2827 1.429 . S
C2822 C2814 1.574 . S
C2822 H2817 0.949 . S
C2822 C2828 1.368 . S
C2823 C2807 1.349 . S
C2823 H2815 0.950 . S
C2823 C2821 1.327 . S
C2824 C2812 1.349 . S
C2824 H2818 0.950 . S
C2824 C2825 1.327 . S
C2825 H2819 0.950 . S
C2825 C2824 1.327 . S
C2825 C2829 1.429 . S
C2826 C2809 1.574 . S
C2826 H2820 0.949 . S
C2826 C2830 1.368 . S
C2827 C2808 1.429 . S
C2827 C2821 1.429 . S
C2827 C2828 1.523 . S
C2828 C2809 1.368 . S
C2828 C2822 1.368 . S
C2828 C2827 1.523 . S
C2829 C2813 1.429 . S
C2829 C2825 1.429 . S
C2829 C2830 1.523 . S
C2830 C2814 1.368 . S
C2830 C2826 1.368 . S
C2830 C2829 1.523 . S
H2831 C2806 0.950 . S
H2832 C2808 0.950 . S
H2833 C2809 0.949 . S
H2834 C2811 0.950 . S
H2835 C2813 0.950 . S
C2836 C2837 1.349 . S
C2836 C2838 1.327 . S
C2836 H2861 0.950 . S
C2837 C2836 1.349 . S
C2837 C2853 1.349 . S
C2838 C2836 1.327 . S
C2838 C2857 1.429 . S
C2838 H2862 0.950 . S
C2839 C2856 1.574 . S
C2839 C2858 1.368 . S
C2839 H2863 0.949 . S
H2840 C2844 0.949 . S
C2841 C2842 1.349 . S
C2841 C2843 1.327 . S
C2841 H2864 0.950 . S
C2842 C2841 1.349 . S
C2842 C2854 1.349 . S
C2843 C2841 1.327 . S
C2843 C2859 1.429 . S
C2843 H2865 0.950 . S
C2844 H2840 0.949 . S
C2844 C2852 1.574 . S
C2844 C2860 1.368 . S
H2845 C2853 0.950 . S
H2846 C2851 0.950 . S
H2847 C2852 0.949 . S
H2848 C2854 0.950 . S
H2849 C2855 0.950 . S
H2850 C2856 0.949 . S
C2851 H2846 0.950 . S
C2851 C2853 1.327 . S
C2851 C2857 1.429 . S
C2852 C2844 1.574 . S
C2852 H2847 0.949 . S
C2852 C2858 1.368 . S
C2853 C2837 1.349 . S
C2853 H2845 0.950 . S
C2853 C2851 1.327 . S
C2854 C2842 1.349 . S
C2854 H2848 0.950 . S
C2854 C2855 1.327 . S
C2855 H2849 0.950 . S
C2855 C2854 1.327 . S
C2855 C2859 1.429 . S
C2856 C2839 1.574 . S
C2856 H2850 0.949 . S
C2856 C2860 1.368 . S
C2857 C2838 1.429 . S
C2857 C2851 1.429 . S
C2857 C2858 1.523 . S
C2858 C2839 1.368 . S
C2858 C2852 1.368 . S
C2858 C2857 1.523 . S
C2859 C2843 1.429 . S
C2859 C2855 1.429 . S
C2859 C2860 1.523 . S
C2860 C2844 1.368 . S
C2860 C2856 1.368 . S
C2860 C2859 1.523 . S
H2861 C2836 0.950 . S
H2862 C2838 0.950 . S
H2863 C2839 0.949 . S
H2864 C2841 0.950 . S
H2865 C2843 0.950 . S
C2866 C2867 1.349 . S
C2866 C2868 1.327 . S
C2866 H2891 0.950 . S
C2867 C2866 1.349 . S
C2867 C2883 1.349 . S
C2868 C2866 1.327 . S
C2868 C2887 1.429 . S
C2868 H2892 0.950 . S
C2869 C2886 1.574 . S
C2869 C2888 1.368 . S
C2869 H2893 0.949 . S
H2870 C2874 0.949 . S
C2871 C2872 1.349 . S
C2871 C2873 1.327 . S
C2871 H2894 0.950 . S
C2872 C2871 1.349 . S
C2872 C2884 1.349 . S
C2873 C2871 1.327 . S
C2873 C2889 1.429 . S
C2873 H2895 0.950 . S
C2874 H2870 0.949 . S
C2874 C2882 1.574 . S
C2874 C2890 1.368 . S
H2875 C2883 0.950 . S
H2876 C2881 0.950 . S
H2877 C2882 0.949 . S
H2878 C2884 0.950 . S
H2879 C2885 0.950 . S
H2880 C2886 0.949 . S
C2881 H2876 0.950 . S
C2881 C2883 1.327 . S
C2881 C2887 1.429 . S
C2882 C2874 1.574 . S
C2882 H2877 0.949 . S
C2882 C2888 1.368 . S
C2883 C2867 1.349 . S
C2883 H2875 0.950 . S
C2883 C2881 1.327 . S
C2884 C2872 1.349 . S
C2884 H2878 0.950 . S
C2884 C2885 1.327 . S
C2885 H2879 0.950 . S
C2885 C2884 1.327 . S
C2885 C2889 1.429 . S
C2886 C2869 1.574 . S
C2886 H2880 0.949 . S
C2886 C2890 1.368 . S
C2887 C2868 1.429 . S
C2887 C2881 1.429 . S
C2887 C2888 1.523 . S
C2888 C2869 1.368 . S
C2888 C2882 1.368 . S
C2888 C2887 1.523 . S
C2889 C2873 1.429 . S
C2889 C2885 1.429 . S
C2889 C2890 1.523 . S
C2890 C2874 1.368 . S
C2890 C2886 1.368 . S
C2890 C2889 1.523 . S
H2891 C2866 0.950 . S
H2892 C2868 0.950 . S
H2893 C2869 0.949 . S
H2894 C2871 0.950 . S
H2895 C2873 0.950 . S
C2896 C2897 1.349 . S
C2896 C2898 1.327 . S
C2896 H2921 0.950 . S
C2897 C2896 1.349 . S
C2897 C2913 1.349 . S
C2898 C2896 1.327 . S
C2898 C2917 1.429 . S
C2898 H2922 0.950 . S
C2899 C2916 1.574 . S
C2899 C2918 1.368 . S
C2899 H2923 0.949 . S
H2900 C2904 0.949 . S
C2901 C2902 1.349 . S
C2901 C2903 1.327 . S
C2901 H2924 0.950 . S
C2902 C2901 1.349 . S
C2902 C2914 1.349 . S
C2903 C2901 1.327 . S
C2903 C2919 1.429 . S
C2903 H2925 0.950 . S
C2904 H2900 0.949 . S
C2904 C2912 1.574 . S
C2904 C2920 1.368 . S
H2905 C2913 0.950 . S
H2906 C2911 0.950 . S
H2907 C2912 0.949 . S
H2908 C2914 0.950 . S
H2909 C2915 0.950 . S
H2910 C2916 0.949 . S
C2911 H2906 0.950 . S
C2911 C2913 1.327 . S
C2911 C2917 1.429 . S
C2912 C2904 1.574 . S
C2912 H2907 0.949 . S
C2912 C2918 1.368 . S
C2913 C2897 1.349 . S
C2913 H2905 0.950 . S
C2913 C2911 1.327 . S
C2914 C2902 1.349 . S
C2914 H2908 0.950 . S
C2914 C2915 1.327 . S
C2915 H2909 0.950 . S
C2915 C2914 1.327 . S
C2915 C2919 1.429 . S
C2916 C2899 1.574 . S
C2916 H2910 0.949 . S
C2916 C2920 1.368 . S
C2917 C2898 1.429 . S
C2917 C2911 1.429 . S
C2917 C2918 1.523 . S
C2918 C2899 1.368 . S
C2918 C2912 1.368 . S
C2918 C2917 1.523 . S
C2919 C2903 1.429 . S
C2919 C2915 1.429 . S
C2919 C2920 1.523 . S
C2920 C2904 1.368 . S
C2920 C2916 1.368 . S
C2920 C2919 1.523 . S
H2921 C2896 0.950 . S
H2922 C2898 0.950 . S
H2923 C2899 0.949 . S
H2924 C2901 0.950 . S
H2925 C2903 0.950 . S
C2926 C2927 1.349 . S
C2926 C2928 1.327 . S
C2926 H2951 0.950 . S
C2927 C2926 1.349 . S
C2927 C2943 1.349 . S
C2928 C2926 1.327 . S
C2928 C2947 1.429 . S
C2928 H2952 0.950 . S
C2929 C2946 1.574 . S
C2929 C2948 1.368 . S
C2929 H2953 0.949 . S
H2930 C2934 0.949 . S
C2931 C2932 1.349 . S
C2931 C2933 1.327 . S
C2931 H2954 0.950 . S
C2932 C2931 1.349 . S
C2932 C2944 1.349 . S
C2933 C2931 1.327 . S
C2933 C2949 1.429 . S
C2933 H2955 0.950 . S
C2934 H2930 0.949 . S
C2934 C2942 1.574 . S
C2934 C2950 1.368 . S
H2935 C2943 0.950 . S
H2936 C2941 0.950 . S
H2937 C2942 0.949 . S
H2938 C2944 0.950 . S
H2939 C2945 0.950 . S
H2940 C2946 0.949 . S
C2941 H2936 0.950 . S
C2941 C2943 1.327 . S
C2941 C2947 1.429 . S
C2942 C2934 1.574 . S
C2942 H2937 0.949 . S
C2942 C2948 1.368 . S
C2943 C2927 1.349 . S
C2943 H2935 0.950 . S
C2943 C2941 1.327 . S
C2944 C2932 1.349 . S
C2944 H2938 0.950 . S
C2944 C2945 1.327 . S
C2945 H2939 0.950 . S
C2945 C2944 1.327 . S
C2945 C2949 1.429 . S
C2946 C2929 1.574 . S
C2946 H2940 0.949 . S
C2946 C2950 1.368 . S
C2947 C2928 1.429 . S
C2947 C2941 1.429 . S
C2947 C2948 1.523 . S
C2948 C2929 1.368 . S
C2948 C2942 1.368 . S
C2948 C2947 1.523 . S
C2949 C2933 1.429 . S
C2949 C2945 1.429 . S
C2949 C2950 1.523 . S
C2950 C2934 1.368 . S
C2950 C2946 1.368 . S
C2950 C2949 1.523 . S
H2951 C2926 0.950 . S
H2952 C2928 0.950 . S
H2953 C2929 0.949 . S
H2954 C2931 0.950 . S
H2955 C2933 0.950 . S
C2956 C2957 1.349 . S
C2956 C2958 1.327 . S
C2956 H2981 0.950 . S
C2957 C2956 1.349 . S
C2957 C2973 1.349 . S
C2958 C2956 1.327 . S
C2958 C2977 1.429 . S
C2958 H2982 0.950 . S
C2959 C2976 1.574 . S
C2959 C2978 1.368 . S
C2959 H2983 0.949 . S
H2960 C2964 0.949 . S
C2961 C2962 1.349 . S
C2961 C2963 1.327 . S
C2961 H2984 0.950 . S
C2962 C2961 1.349 . S
C2962 C2974 1.349 . S
C2963 C2961 1.327 . S
C2963 C2979 1.429 . S
C2963 H2985 0.950 . S
C2964 H2960 0.949 . S
C2964 C2972 1.574 . S
C2964 C2980 1.368 . S
H2965 C2973 0.950 . S
H2966 C2971 0.950 . S
H2967 C2972 0.949 . S
H2968 C2974 0.950 . S
H2969 C2975 0.950 . S
H2970 C2976 0.949 . S
C2971 H2966 0.950 . S
C2971 C2973 1.327 . S
C2971 C2977 1.429 . S
C2972 C2964 1.574 . S
C2972 H2967 0.949 . S
C2972 C2978 1.368 . S
C2973 C2957 1.349 . S
C2973 H2965 0.950 . S
C2973 C2971 1.327 . S
C2974 C2962 1.349 . S
C2974 H2968 0.950 . S
C2974 C2975 1.327 . S
C2975 H2969 0.950 . S
C2975 C2974 1.327 . S
C2975 C2979 1.429 . S
C2976 C2959 1.574 . S
C2976 H2970 0.949 . S
C2976 C2980 1.368 . S
C2977 C2958 1.429 . S
C2977 C2971 1.429 . S
C2977 C2978 1.523 . S
C2978 C2959 1.368 . S
C2978 C2972 1.368 . S
C2978 C2977 1.523 . S
C2979 C2963 1.429 . S
C2979 C2975 1.429 . S
C2979 C2980 1.523 . S
C2980 C2964 1.368 . S
C2980 C2976 1.368 . S
C2980 C2979 1.523 . S
H2981 C2956 0.950 . S
H2982 C2958 0.950 . S
H2983 C2959 0.949 . S
H2984 C2961 0.950 . S
H2985 C2963 0.950 . S
C2986 C2987 1.349 . S
C2986 C2988 1.327 . S
C2986 H3011 0.950 . S
C2987 C2986 1.349 . S
C2987 C3003 1.349 1_554 S
C2988 C2986 1.327 . S
C2988 C3007 1.429 . S
C2988 H3012 0.950 . S
C2989 C3006 1.574 . S
C2989 C3008 1.368 . S
C2989 H3013 0.949 1_554 S
H2990 C2994 0.949 . S
C2991 C2992 1.349 . S
C2991 C2993 1.327 . S
C2991 H3014 0.950 . S
C2992 C2991 1.349 . S
C2992 C3004 1.349 . S
C2993 C2991 1.327 . S
C2993 C3009 1.429 . S
C2993 H3015 0.950 . S
C2994 H2990 0.949 . S
C2994 C3002 1.574 . S
C2994 C3010 1.368 . S
H2995 C3003 0.950 . S
H2996 C3001 0.938 1_556 S
H2997 C3002 0.949 . S
H2998 C3004 0.950 . S
H2999 C3005 0.950 . S
H3000 C3006 0.949 . S
C3001 H2996 0.938 1_554 S
C3001 C3003 1.328 1_554 S
C3001 C3007 1.439 . S
C3002 C2994 1.574 . S
C3002 H2997 0.949 . S
C3002 C3008 1.368 . S
C3003 C2987 1.349 1_556 S
C3003 H2995 0.950 . S
C3003 C3001 1.328 1_556 S
C3004 C2992 1.349 . S
C3004 H2998 0.950 . S
C3004 C3005 1.327 . S
C3005 H2999 0.950 . S
C3005 C3004 1.327 . S
C3005 C3009 1.429 . S
C3006 C2989 1.574 . S
C3006 H3000 0.949 . S
C3006 C3010 1.368 . S
C3007 C2988 1.429 . S
C3007 C3001 1.439 . S
C3007 C3008 1.523 . S
C3008 C2989 1.368 . S
C3008 C3002 1.368 . S
C3008 C3007 1.523 . S
C3009 C2993 1.429 . S
C3009 C3005 1.429 . S
C3009 C3010 1.523 . S
C3010 C2994 1.368 . S
C3010 C3006 1.368 . S
C3010 C3009 1.523 . S
H3011 C2986 0.950 . S
H3012 C2988 0.950 . S
H3013 C2989 0.949 1_556 S
H3014 C2991 0.950 . S
H3015 C2993 0.950 . S
C3016 C3017 1.349 . S
C3016 C3018 1.327 . S
C3016 H3041 0.950 . S
C3017 C3016 1.349 . S
C3017 C3033 1.349 . S
C3018 C3016 1.327 . S
C3018 C3037 1.429 . S
C3018 H3042 0.950 . S
C3019 C3036 1.574 . S
C3019 C3038 1.368 . S
C3019 H3043 0.949 . S
H3020 C3024 0.949 . S
C3021 C3022 1.349 . S
C3021 C3023 1.327 . S
C3021 H3044 0.950 . S
C3022 C3021 1.349 . S
C3022 C3034 1.349 . S
C3023 C3021 1.327 . S
C3023 C3039 1.429 . S
C3023 H3045 0.950 . S
C3024 H3020 0.949 . S
C3024 C3032 1.574 . S
C3024 C3040 1.368 . S
H3025 C3033 0.950 . S
H3026 C3031 0.950 . S
H3027 C3032 0.949 . S
H3028 C3034 0.950 . S
H3029 C3035 0.950 . S
H3030 C3036 0.949 . S
C3031 H3026 0.950 . S
C3031 C3033 1.327 . S
C3031 C3037 1.429 . S
C3032 C3024 1.574 . S
C3032 H3027 0.949 . S
C3032 C3038 1.368 . S
C3033 C3017 1.349 . S
C3033 H3025 0.950 . S
C3033 C3031 1.327 . S
C3034 C3022 1.349 . S
C3034 H3028 0.950 . S
C3034 C3035 1.327 . S
C3035 H3029 0.950 . S
C3035 C3034 1.327 . S
C3035 C3039 1.429 . S
C3036 C3019 1.574 . S
C3036 H3030 0.949 . S
C3036 C3040 1.368 . S
C3037 C3018 1.429 . S
C3037 C3031 1.429 . S
C3037 C3038 1.523 . S
C3038 C3019 1.368 . S
C3038 C3032 1.368 . S
C3038 C3037 1.523 . S
C3039 C3023 1.429 . S
C3039 C3035 1.429 . S
C3039 C3040 1.523 . S
C3040 C3024 1.368 . S
C3040 C3036 1.368 . S
C3040 C3039 1.523 . S
H3041 C3016 0.950 . S
H3042 C3018 0.950 . S
H3043 C3019 0.949 . S
H3044 C3021 0.950 . S
H3045 C3023 0.950 . S
C3046 C3047 1.349 . S
C3046 C3048 1.327 . S
C3046 H3071 0.950 . S
C3047 C3046 1.349 . S
C3047 C3063 1.349 . S
C3048 C3046 1.327 . S
C3048 C3067 1.429 . S
C3048 H3072 0.950 . S
C3049 C3066 1.574 . S
C3049 C3068 1.368 . S
C3049 H3073 0.949 . S
H3050 C3054 0.949 . S
C3051 C3052 1.349 . S
C3051 C3053 1.327 . S
C3051 H3074 0.950 . S
C3052 C3051 1.349 . S
C3052 C3064 1.349 . S
C3053 C3051 1.327 . S
C3053 C3069 1.429 . S
C3053 H3075 0.950 . S
C3054 H3050 0.949 . S
C3054 C3062 1.574 . S
C3054 C3070 1.368 . S
H3055 C3063 0.950 . S
H3056 C3061 0.950 . S
H3057 C3062 0.949 . S
H3058 C3064 0.950 . S
H3059 C3065 0.950 . S
H3060 C3066 0.949 . S
C3061 H3056 0.950 . S
C3061 C3063 1.327 . S
C3061 C3067 1.429 . S
C3062 C3054 1.574 . S
C3062 H3057 0.949 . S
C3062 C3068 1.368 . S
C3063 C3047 1.349 . S
C3063 H3055 0.950 . S
C3063 C3061 1.327 . S
C3064 C3052 1.349 . S
C3064 H3058 0.950 . S
C3064 C3065 1.327 . S
C3065 H3059 0.950 . S
C3065 C3064 1.327 . S
C3065 C3069 1.429 . S
C3066 C3049 1.574 . S
C3066 H3060 0.949 . S
C3066 C3070 1.368 . S
C3067 C3048 1.429 . S
C3067 C3061 1.429 . S
C3067 C3068 1.523 . S
C3068 C3049 1.368 . S
C3068 C3062 1.368 . S
C3068 C3067 1.523 . S
C3069 C3053 1.429 . S
C3069 C3065 1.429 . S
C3069 C3070 1.523 . S
C3070 C3054 1.368 . S
C3070 C3066 1.368 . S
C3070 C3069 1.523 . S
H3071 C3046 0.950 . S
H3072 C3048 0.950 . S
H3073 C3049 0.949 . S
H3074 C3051 0.950 . S
H3075 C3053 0.950 . S
C3076 C3077 1.349 . S
C3076 C3078 1.327 . S
C3076 H3101 0.950 . S
C3077 C3076 1.349 . S
C3077 C3093 1.349 . S
C3078 C3076 1.327 . S
C3078 C3097 1.429 . S
C3078 H3102 0.950 . S
C3079 C3096 1.574 . S
C3079 C3098 1.368 . S
C3079 H3103 0.949 . S
H3080 C3084 0.949 . S
C3081 C3082 1.349 . S
C3081 C3083 1.327 . S
C3081 H3104 0.950 . S
C3082 C3081 1.349 . S
C3082 C3094 1.349 . S
C3083 C3081 1.327 . S
C3083 C3099 1.429 . S
C3083 H3105 0.950 . S
C3084 H3080 0.949 . S
C3084 C3092 1.574 . S
C3084 C3100 1.368 . S
H3085 C3093 0.950 . S
H3086 C3091 0.950 . S
H3087 C3092 0.949 . S
H3088 C3094 0.950 . S
H3089 C3095 0.950 . S
H3090 C3096 0.949 . S
C3091 H3086 0.950 . S
C3091 C3093 1.327 . S
C3091 C3097 1.429 . S
C3092 C3084 1.574 . S
C3092 H3087 0.949 . S
C3092 C3098 1.368 . S
C3093 C3077 1.349 . S
C3093 H3085 0.950 . S
C3093 C3091 1.327 . S
C3094 C3082 1.349 . S
C3094 H3088 0.950 . S
C3094 C3095 1.327 . S
C3095 H3089 0.950 . S
C3095 C3094 1.327 . S
C3095 C3099 1.429 . S
C3096 C3079 1.574 . S
C3096 H3090 0.949 . S
C3096 C3100 1.368 . S
C3097 C3078 1.429 . S
C3097 C3091 1.429 . S
C3097 C3098 1.523 . S
C3098 C3079 1.368 . S
C3098 C3092 1.368 . S
C3098 C3097 1.523 . S
C3099 C3083 1.429 . S
C3099 C3095 1.429 . S
C3099 C3100 1.523 . S
C3100 C3084 1.368 . S
C3100 C3096 1.368 . S
C3100 C3099 1.523 . S
H3101 C3076 0.950 . S
H3102 C3078 0.950 . S
H3103 C3079 0.949 . S
H3104 C3081 0.950 . S
H3105 C3083 0.950 . S
C3106 C3107 1.349 . S
C3106 C3108 1.327 . S
C3106 H3131 0.950 . S
C3107 C3106 1.349 . S
C3107 C3123 1.349 . S
C3108 C3106 1.327 . S
C3108 C3127 1.429 . S
C3108 H3132 0.950 . S
C3109 C3126 1.574 . S
C3109 C3128 1.368 . S
C3109 H3133 0.949 . S
H3110 C3114 0.949 . S
C3111 C3112 1.349 . S
C3111 C3113 1.327 . S
C3111 H3134 0.950 . S
C3112 C3111 1.349 . S
C3112 C3124 1.349 . S
C3113 C3111 1.327 . S
C3113 C3129 1.429 . S
C3113 H3135 0.950 . S
C3114 H3110 0.949 . S
C3114 C3122 1.574 . S
C3114 C3130 1.368 . S
H3115 C3123 0.950 . S
H3116 C3121 0.950 . S
H3117 C3122 0.949 . S
H3118 C3124 0.950 . S
H3119 C3125 0.950 . S
H3120 C3126 0.949 . S
C3121 H3116 0.950 . S
C3121 C3123 1.327 . S
C3121 C3127 1.429 . S
C3122 C3114 1.574 . S
C3122 H3117 0.949 . S
C3122 C3128 1.368 . S
C3123 C3107 1.349 . S
C3123 H3115 0.950 . S
C3123 C3121 1.327 . S
C3124 C3112 1.349 . S
C3124 H3118 0.950 . S
C3124 C3125 1.327 . S
C3125 H3119 0.950 . S
C3125 C3124 1.327 . S
C3125 C3129 1.429 . S
C3126 C3109 1.574 . S
C3126 H3120 0.949 . S
C3126 C3130 1.368 . S
C3127 C3108 1.429 . S
C3127 C3121 1.429 . S
C3127 C3128 1.523 . S
C3128 C3109 1.368 . S
C3128 C3122 1.368 . S
C3128 C3127 1.523 . S
C3129 C3113 1.429 . S
C3129 C3125 1.429 . S
C3129 C3130 1.523 . S
C3130 C3114 1.368 . S
C3130 C3126 1.368 . S
C3130 C3129 1.523 . S
H3131 C3106 0.950 . S
H3132 C3108 0.950 . S
H3133 C3109 0.949 . S
H3134 C3111 0.950 . S
H3135 C3113 0.950 . S
C3136 C3137 1.349 . S
C3136 C3138 1.327 . S
C3136 H3161 0.950 . S
C3137 C3136 1.349 . S
C3137 C3153 1.349 . S
C3138 C3136 1.327 . S
C3138 C3157 1.429 . S
C3138 H3162 0.950 . S
C3139 C3156 1.574 . S
C3139 C3158 1.368 . S
C3139 H3163 0.949 . S
H3140 C3144 0.949 . S
C3141 C3142 1.349 . S
C3141 C3143 1.327 . S
C3141 H3164 0.950 . S
C3142 C3141 1.349 . S
C3142 C3154 1.349 . S
C3143 C3141 1.327 . S
C3143 C3159 1.429 . S
C3143 H3165 0.950 . S
C3144 H3140 0.949 . S
C3144 C3152 1.574 . S
C3144 C3160 1.368 . S
H3145 C3153 0.950 . S
H3146 C3151 0.950 . S
H3147 C3152 0.949 . S
H3148 C3154 0.950 . S
H3149 C3155 0.950 . S
H3150 C3156 0.949 . S
C3151 H3146 0.950 . S
C3151 C3153 1.327 . S
C3151 C3157 1.429 . S
C3152 C3144 1.574 . S
C3152 H3147 0.949 . S
C3152 C3158 1.368 . S
C3153 C3137 1.349 . S
C3153 H3145 0.950 . S
C3153 C3151 1.327 . S
C3154 C3142 1.349 . S
C3154 H3148 0.950 . S
C3154 C3155 1.327 . S
C3155 H3149 0.950 . S
C3155 C3154 1.327 . S
C3155 C3159 1.429 . S
C3156 C3139 1.574 . S
C3156 H3150 0.949 . S
C3156 C3160 1.368 . S
C3157 C3138 1.429 . S
C3157 C3151 1.429 . S
C3157 C3158 1.523 . S
C3158 C3139 1.368 . S
C3158 C3152 1.368 . S
C3158 C3157 1.523 . S
C3159 C3143 1.429 . S
C3159 C3155 1.429 . S
C3159 C3160 1.523 . S
C3160 C3144 1.368 . S
C3160 C3156 1.368 . S
C3160 C3159 1.523 . S
H3161 C3136 0.950 . S
H3162 C3138 0.950 . S
H3163 C3139 0.949 . S
H3164 C3141 0.950 . S
H3165 C3143 0.950 . S
C3166 C3167 1.349 . S
C3166 C3168 1.327 . S
C3166 H3191 0.950 . S
C3167 C3166 1.349 . S
C3167 C3183 1.349 . S
C3168 C3166 1.327 . S
C3168 C3187 1.429 . S
C3168 H3192 0.950 . S
C3169 C3186 1.574 . S
C3169 C3188 1.368 . S
C3169 H3193 0.949 . S
H3170 C3174 0.949 . S
C3171 C3172 1.349 . S
C3171 C3173 1.327 . S
C3171 H3194 0.950 . S
C3172 C3171 1.349 . S
C3172 C3184 1.349 . S
C3173 C3171 1.327 . S
C3173 C3189 1.429 . S
C3173 H3195 0.950 . S
C3174 H3170 0.949 . S
C3174 C3182 1.574 . S
C3174 C3190 1.368 . S
H3175 C3183 0.950 . S
H3176 C3181 0.950 . S
H3177 C3182 0.949 . S
H3178 C3184 0.950 . S
H3179 C3185 0.950 . S
H3180 C3186 0.949 . S
C3181 H3176 0.950 . S
C3181 C3183 1.327 . S
C3181 C3187 1.429 . S
C3182 C3174 1.574 . S
C3182 H3177 0.949 . S
C3182 C3188 1.368 . S
C3183 C3167 1.349 . S
C3183 H3175 0.950 . S
C3183 C3181 1.327 . S
C3184 C3172 1.349 . S
C3184 H3178 0.950 . S
C3184 C3185 1.327 . S
C3185 H3179 0.950 . S
C3185 C3184 1.327 . S
C3185 C3189 1.429 . S
C3186 C3169 1.574 . S
C3186 H3180 0.949 . S
C3186 C3190 1.368 . S
C3187 C3168 1.429 . S
C3187 C3181 1.429 . S
C3187 C3188 1.523 . S
C3188 C3169 1.368 . S
C3188 C3182 1.368 . S
C3188 C3187 1.523 . S
C3189 C3173 1.429 . S
C3189 C3185 1.429 . S
C3189 C3190 1.523 . S
C3190 C3174 1.368 . S
C3190 C3186 1.368 . S
C3190 C3189 1.523 . S
H3191 C3166 0.950 . S
H3192 C3168 0.950 . S
H3193 C3169 0.949 . S
H3194 C3171 0.950 . S
H3195 C3173 0.950 . S
C3196 C3197 1.349 . S
C3196 C3198 1.327 . S
C3196 H3221 0.950 . S
C3197 C3196 1.349 . S
C3197 C3213 1.349 . S
C3198 C3196 1.327 . S
C3198 C3217 1.429 . S
C3198 H3222 0.950 . S
C3199 C3216 1.574 . S
C3199 C3218 1.368 . S
C3199 H3223 0.949 . S
H3200 C3204 0.949 . S
C3201 C3202 1.349 . S
C3201 C3203 1.327 . S
C3201 H3224 0.950 . S
C3202 C3201 1.349 . S
C3202 C3214 1.349 . S
C3203 C3201 1.327 . S
C3203 C3219 1.429 . S
C3203 H3225 0.950 . S
C3204 H3200 0.949 . S
C3204 C3212 1.574 . S
C3204 C3220 1.368 . S
H3205 C3213 0.950 . S
H3206 C3211 0.950 . S
H3207 C3212 0.949 . S
H3208 C3214 0.950 . S
H3209 C3215 0.950 . S
H3210 C3216 0.949 . S
C3211 H3206 0.950 . S
C3211 C3213 1.327 . S
C3211 C3217 1.429 . S
C3212 C3204 1.574 . S
C3212 H3207 0.949 . S
C3212 C3218 1.368 . S
C3213 C3197 1.349 . S
C3213 H3205 0.950 . S
C3213 C3211 1.327 . S
C3214 C3202 1.349 . S
C3214 H3208 0.950 . S
C3214 C3215 1.327 . S
C3215 H3209 0.950 . S
C3215 C3214 1.327 . S
C3215 C3219 1.429 . S
C3216 C3199 1.574 . S
C3216 H3210 0.949 . S
C3216 C3220 1.368 . S
C3217 C3198 1.429 . S
C3217 C3211 1.429 . S
C3217 C3218 1.523 . S
C3218 C3199 1.368 . S
C3218 C3212 1.368 . S
C3218 C3217 1.523 . S
C3219 C3203 1.429 . S
C3219 C3215 1.429 . S
C3219 C3220 1.523 . S
C3220 C3204 1.368 . S
C3220 C3216 1.368 . S
C3220 C3219 1.523 . S
H3221 C3196 0.950 . S
H3222 C3198 0.950 . S
H3223 C3199 0.949 . S
H3224 C3201 0.950 . S
H3225 C3203 0.950 . S
C3226 C3227 1.349 . S
C3226 C3228 1.327 . S
C3226 H3251 0.950 . S
C3227 C3226 1.349 . S
C3227 C3243 1.349 . S
C3228 C3226 1.327 . S
C3228 C3247 1.429 . S
C3228 H3252 0.950 . S
C3229 C3246 1.574 . S
C3229 C3248 1.368 . S
C3229 H3253 0.949 . S
H3230 C3234 0.949 . S
C3231 C3232 1.349 . S
C3231 C3233 1.327 . S
C3231 H3254 0.950 . S
C3232 C3231 1.349 . S
C3232 C3244 1.349 . S
C3233 C3231 1.327 . S
C3233 C3249 1.429 . S
C3233 H3255 0.950 . S
C3234 H3230 0.949 . S
C3234 C3242 1.574 . S
C3234 C3250 1.368 . S
H3235 C3243 0.950 . S
H3236 C3241 0.950 . S
H3237 C3242 0.949 . S
H3238 C3244 0.950 . S
H3239 C3245 0.950 . S
H3240 C3246 0.949 . S
C3241 H3236 0.950 . S
C3241 C3243 1.327 . S
C3241 C3247 1.429 . S
C3242 C3234 1.574 . S
C3242 H3237 0.949 . S
C3242 C3248 1.368 . S
C3243 C3227 1.349 . S
C3243 H3235 0.950 . S
C3243 C3241 1.327 . S
C3244 C3232 1.349 . S
C3244 H3238 0.950 . S
C3244 C3245 1.327 . S
C3245 H3239 0.950 . S
C3245 C3244 1.327 . S
C3245 C3249 1.429 . S
C3246 C3229 1.574 . S
C3246 H3240 0.949 . S
C3246 C3250 1.368 . S
C3247 C3228 1.429 . S
C3247 C3241 1.429 . S
C3247 C3248 1.523 . S
C3248 C3229 1.368 . S
C3248 C3242 1.368 . S
C3248 C3247 1.523 . S
C3249 C3233 1.429 . S
C3249 C3245 1.429 . S
C3249 C3250 1.523 . S
C3250 C3234 1.368 . S
C3250 C3246 1.368 . S
C3250 C3249 1.523 . S
H3251 C3226 0.950 . S
H3252 C3228 0.950 . S
H3253 C3229 0.949 . S
H3254 C3231 0.950 . S
H3255 C3233 0.950 . S
C3256 C3257 1.349 . S
C3256 C3258 1.327 . S
C3256 H3281 0.950 . S
C3257 C3256 1.349 . S
C3257 C3273 1.349 . S
C3258 C3256 1.327 . S
C3258 C3277 1.429 . S
C3258 H3282 0.950 . S
C3259 C3276 1.574 . S
C3259 C3278 1.368 . S
C3259 H3283 0.949 . S
H3260 C3264 0.949 . S
C3261 C3262 1.349 . S
C3261 C3263 1.327 . S
C3261 H3284 0.950 . S
C3262 C3261 1.349 . S
C3262 C3274 1.349 1_554 S
C3263 C3261 1.327 . S
C3263 C3279 1.429 1_554 S
C3263 H3285 0.950 . S
C3264 H3260 0.949 . S
C3264 C3272 1.574 . S
C3264 C3280 1.368 . S
H3265 C3273 0.950 . S
H3266 C3271 0.950 . S
H3267 C3272 0.949 . S
H3268 C3274 0.950 . S
H3269 C3275 0.950 . S
H3270 C3276 0.949 1_554 S
C3271 H3266 0.950 . S
C3271 C3273 1.327 . S
C3271 C3277 1.429 . S
C3272 C3264 1.574 . S
C3272 H3267 0.949 . S
C3272 C3278 1.368 . S
C3273 C3257 1.349 . S
C3273 H3265 0.950 . S
C3273 C3271 1.327 . S
C3274 C3262 1.349 1_556 S
C3274 H3268 0.950 . S
C3274 C3275 1.327 . S
C3275 H3269 0.950 . S
C3275 C3274 1.327 . S
C3275 C3279 1.429 . S
C3276 C3259 1.574 . S
C3276 H3270 0.949 1_556 S
C3276 C3280 1.368 . S
C3277 C3258 1.429 . S
C3277 C3271 1.429 . S
C3277 C3278 1.523 . S
C3278 C3259 1.368 . S
C3278 C3272 1.368 . S
C3278 C3277 1.523 . S
C3279 C3263 1.429 1_556 S
C3279 C3275 1.429 . S
C3279 C3280 1.523 . S
C3280 C3264 1.368 . S
C3280 C3276 1.368 . S
C3280 C3279 1.523 . S
H3281 C3256 0.950 . S
H3282 C3258 0.950 . S
H3283 C3259 0.949 . S
H3284 C3261 0.950 . S
H3285 C3263 0.950 . S
C3286 C3287 1.349 . S
C3286 C3288 1.327 . S
C3286 H3311 0.950 . S
C3287 C3286 1.349 . S
C3287 C3303 1.349 . S
C3288 C3286 1.327 . S
C3288 C3307 1.429 . S
C3288 H3312 0.950 . S
C3289 C3306 1.574 . S
C3289 C3308 1.368 . S
C3289 H3313 0.949 . S
H3290 C3294 0.949 . S
C3291 C3292 1.349 . S
C3291 C3293 1.327 . S
C3291 H3314 0.950 . S
C3292 C3291 1.349 . S
C3292 C3304 1.349 . S
C3293 C3291 1.327 . S
C3293 C3309 1.429 . S
C3293 H3315 0.950 . S
C3294 H3290 0.949 . S
C3294 C3302 1.574 . S
C3294 C3310 1.368 . S
H3295 C3303 0.950 . S
H3296 C3301 0.950 . S
H3297 C3302 0.949 . S
H3298 C3304 0.950 . S
H3299 C3305 0.950 . S
H3300 C3306 0.949 . S
C3301 H3296 0.950 . S
C3301 C3303 1.327 . S
C3301 C3307 1.429 . S
C3302 C3294 1.574 . S
C3302 H3297 0.949 . S
C3302 C3308 1.368 . S
C3303 C3287 1.349 . S
C3303 H3295 0.950 . S
C3303 C3301 1.327 . S
C3304 C3292 1.349 . S
C3304 H3298 0.950 . S
C3304 C3305 1.327 . S
C3305 H3299 0.950 . S
C3305 C3304 1.327 . S
C3305 C3309 1.429 . S
C3306 C3289 1.574 . S
C3306 H3300 0.949 . S
C3306 C3310 1.368 . S
C3307 C3288 1.429 . S
C3307 C3301 1.429 . S
C3307 C3308 1.523 . S
C3308 C3289 1.368 . S
C3308 C3302 1.368 . S
C3308 C3307 1.523 . S
C3309 C3293 1.429 . S
C3309 C3305 1.429 . S
C3309 C3310 1.523 . S
C3310 C3294 1.368 . S
C3310 C3306 1.368 . S
C3310 C3309 1.523 . S
H3311 C3286 0.950 . S
H3312 C3288 0.950 . S
H3313 C3289 0.949 . S
H3314 C3291 0.950 . S
H3315 C3293 0.950 . S
C3316 C3317 1.349 . S
C3316 C3318 1.327 . S
C3316 H3341 0.950 . S
C3317 C3316 1.349 . S
C3317 C3333 1.349 . S
C3318 C3316 1.327 . S
C3318 C3337 1.429 . S
C3318 H3342 0.950 . S
C3319 C3336 1.574 . S
C3319 C3338 1.368 . S
C3319 H3343 0.949 . S
H3320 C3324 0.949 . S
C3321 C3322 1.349 . S
C3321 C3323 1.327 . S
C3321 H3344 0.950 . S
C3322 C3321 1.349 . S
C3322 C3334 1.349 . S
C3323 C3321 1.327 . S
C3323 C3339 1.429 . S
C3323 H3345 0.950 . S
C3324 H3320 0.949 . S
C3324 C3332 1.574 . S
C3324 C3340 1.368 . S
H3325 C3333 0.950 . S
H3326 C3331 0.950 . S
H3327 C3332 0.949 . S
H3328 C3334 0.950 . S
H3329 C3335 0.950 . S
H3330 C3336 0.949 . S
C3331 H3326 0.950 . S
C3331 C3333 1.327 . S
C3331 C3337 1.429 . S
C3332 C3324 1.574 . S
C3332 H3327 0.949 . S
C3332 C3338 1.368 . S
C3333 C3317 1.349 . S
C3333 H3325 0.950 . S
C3333 C3331 1.327 . S
C3334 C3322 1.349 . S
C3334 H3328 0.950 . S
C3334 C3335 1.327 . S
C3335 H3329 0.950 . S
C3335 C3334 1.327 . S
C3335 C3339 1.429 . S
C3336 C3319 1.574 . S
C3336 H3330 0.949 . S
C3336 C3340 1.368 . S
C3337 C3318 1.429 . S
C3337 C3331 1.429 . S
C3337 C3338 1.523 . S
C3338 C3319 1.368 . S
C3338 C3332 1.368 . S
C3338 C3337 1.523 . S
C3339 C3323 1.429 . S
C3339 C3335 1.429 . S
C3339 C3340 1.523 . S
C3340 C3324 1.368 . S
C3340 C3336 1.368 . S
C3340 C3339 1.523 . S
H3341 C3316 0.950 . S
H3342 C3318 0.950 . S
H3343 C3319 0.949 . S
H3344 C3321 0.950 . S
H3345 C3323 0.950 . S
C3346 C3347 1.349 . S
C3346 C3348 1.327 . S
C3346 H3371 0.950 . S
C3347 C3346 1.349 . S
C3347 C3363 1.349 . S
C3348 C3346 1.327 . S
C3348 C3367 1.429 . S
C3348 H3372 0.950 . S
C3349 C3366 1.574 . S
C3349 C3368 1.368 . S
C3349 H3373 0.949 . S
H3350 C3354 0.949 . S
C3351 C3352 1.349 . S
C3351 C3353 1.327 . S
C3351 H3374 0.950 . S
C3352 C3351 1.349 . S
C3352 C3364 1.349 . S
C3353 C3351 1.327 . S
C3353 C3369 1.429 . S
C3353 H3375 0.950 . S
C3354 H3350 0.949 . S
C3354 C3362 1.574 . S
C3354 C3370 1.368 . S
H3355 C3363 0.950 . S
H3356 C3361 0.950 . S
H3357 C3362 0.949 . S
H3358 C3364 0.950 . S
H3359 C3365 0.950 . S
H3360 C3366 0.949 . S
C3361 H3356 0.950 . S
C3361 C3363 1.327 . S
C3361 C3367 1.429 . S
C3362 C3354 1.574 . S
C3362 H3357 0.949 . S
C3362 C3368 1.368 . S
C3363 C3347 1.349 . S
C3363 H3355 0.950 . S
C3363 C3361 1.327 . S
C3364 C3352 1.349 . S
C3364 H3358 0.950 . S
C3364 C3365 1.327 . S
C3365 H3359 0.950 . S
C3365 C3364 1.327 . S
C3365 C3369 1.429 . S
C3366 C3349 1.574 . S
C3366 H3360 0.949 . S
C3366 C3370 1.368 . S
C3367 C3348 1.429 . S
C3367 C3361 1.429 . S
C3367 C3368 1.523 . S
C3368 C3349 1.368 . S
C3368 C3362 1.368 . S
C3368 C3367 1.523 . S
C3369 C3353 1.429 . S
C3369 C3365 1.429 . S
C3369 C3370 1.523 . S
C3370 C3354 1.368 . S
C3370 C3366 1.368 . S
C3370 C3369 1.523 . S
H3371 C3346 0.950 . S
H3372 C3348 0.950 . S
H3373 C3349 0.949 . S
H3374 C3351 0.950 . S
H3375 C3353 0.950 . S
C3376 C3377 1.349 . S
C3376 C3378 1.327 . S
C3376 H3401 0.950 . S
C3377 C3376 1.349 . S
C3377 C3393 1.349 . S
C3378 C3376 1.327 . S
C3378 C3397 1.429 . S
C3378 H3402 0.950 . S
C3379 C3396 1.574 . S
C3379 C3398 1.368 . S
C3379 H3403 0.949 . S
H3380 C3384 0.949 . S
C3381 C3382 1.349 . S
C3381 C3383 1.327 . S
C3381 H3404 0.950 . S
C3382 C3381 1.349 . S
C3382 C3394 1.349 . S
C3383 C3381 1.327 . S
C3383 C3399 1.429 . S
C3383 H3405 0.950 . S
C3384 H3380 0.949 . S
C3384 C3392 1.574 . S
C3384 C3400 1.368 . S
H3385 C3393 0.950 . S
H3386 C3391 0.950 . S
H3387 C3392 0.949 . S
H3388 C3394 0.950 . S
H3389 C3395 0.950 . S
H3390 C3396 0.949 . S
C3391 H3386 0.950 . S
C3391 C3393 1.327 . S
C3391 C3397 1.429 . S
C3392 C3384 1.574 . S
C3392 H3387 0.949 . S
C3392 C3398 1.368 . S
C3393 C3377 1.349 . S
C3393 H3385 0.950 . S
C3393 C3391 1.327 . S
C3394 C3382 1.349 . S
C3394 H3388 0.950 . S
C3394 C3395 1.327 . S
C3395 H3389 0.950 . S
C3395 C3394 1.327 . S
C3395 C3399 1.429 . S
C3396 C3379 1.574 . S
C3396 H3390 0.949 . S
C3396 C3400 1.368 . S
C3397 C3378 1.429 . S
C3397 C3391 1.429 . S
C3397 C3398 1.523 . S
C3398 C3379 1.368 . S
C3398 C3392 1.368 . S
C3398 C3397 1.523 . S
C3399 C3383 1.429 . S
C3399 C3395 1.429 . S
C3399 C3400 1.523 . S
C3400 C3384 1.368 . S
C3400 C3396 1.368 . S
C3400 C3399 1.523 . S
H3401 C3376 0.950 . S
H3402 C3378 0.950 . S
H3403 C3379 0.949 . S
H3404 C3381 0.950 . S
H3405 C3383 0.950 . S
C3406 C3407 1.349 . S
C3406 C3408 1.327 . S
C3406 H3431 0.950 . S
C3407 C3406 1.349 . S
C3407 C3423 1.349 . S
C3408 C3406 1.327 . S
C3408 C3427 1.429 . S
C3408 H3432 0.950 . S
C3409 C3426 1.574 . S
C3409 C3428 1.368 . S
C3409 H3433 0.949 . S
H3410 C3414 0.949 . S
C3411 C3412 1.349 . S
C3411 C3413 1.327 . S
C3411 H3434 0.950 . S
C3412 C3411 1.349 . S
C3412 C3424 1.349 . S
C3413 C3411 1.327 . S
C3413 C3429 1.429 . S
C3413 H3435 0.950 . S
C3414 H3410 0.949 . S
C3414 C3422 1.574 . S
C3414 C3430 1.368 . S
H3415 C3423 0.950 . S
H3416 C3421 0.950 . S
H3417 C3422 0.949 . S
H3418 C3424 0.950 . S
H3419 C3425 0.950 . S
H3420 C3426 0.949 . S
C3421 H3416 0.950 . S
C3421 C3423 1.327 . S
C3421 C3427 1.429 . S
C3422 C3414 1.574 . S
C3422 H3417 0.949 . S
C3422 C3428 1.368 . S
C3423 C3407 1.349 . S
C3423 H3415 0.950 . S
C3423 C3421 1.327 . S
C3424 C3412 1.349 . S
C3424 H3418 0.950 . S
C3424 C3425 1.327 . S
C3425 H3419 0.950 . S
C3425 C3424 1.327 . S
C3425 C3429 1.429 . S
C3426 C3409 1.574 . S
C3426 H3420 0.949 . S
C3426 C3430 1.368 . S
C3427 C3408 1.429 . S
C3427 C3421 1.429 . S
C3427 C3428 1.523 . S
C3428 C3409 1.368 . S
C3428 C3422 1.368 . S
C3428 C3427 1.523 . S
C3429 C3413 1.429 . S
C3429 C3425 1.429 . S
C3429 C3430 1.523 . S
C3430 C3414 1.368 . S
C3430 C3426 1.368 . S
C3430 C3429 1.523 . S
H3431 C3406 0.950 . S
H3432 C3408 0.950 . S
H3433 C3409 0.949 . S
H3434 C3411 0.950 . S
H3435 C3413 0.950 . S
C3436 C3437 1.349 . S
C3436 C3438 1.327 . S
C3436 H3461 0.950 . S
C3437 C3436 1.349 . S
C3437 C3453 1.349 . S
C3438 C3436 1.327 . S
C3438 C3457 1.429 . S
C3438 H3462 0.950 . S
C3439 C3456 1.574 . S
C3439 C3458 1.368 . S
C3439 H3463 0.949 . S
H3440 C3444 0.949 . S
C3441 C3442 1.326 1_455 S
C3441 C3443 1.327 1_455 S
C3441 H3464 0.950 . S
C3442 C3441 1.326 1_655 S
C3442 C3454 1.397 . S
C3443 C3441 1.327 1_655 S
C3443 C3459 1.429 . S
C3443 H3465 0.950 1_655 S
C3444 H3440 0.949 . S
C3444 C3452 1.574 . S
C3444 C3460 1.368 . S
H3445 C3453 0.950 . S
H3446 C3451 0.950 . S
H3447 C3452 0.949 . S
H3448 C3454 0.950 . S
H3449 C3455 0.950 . S
H3450 C3456 0.949 . S
C3451 H3446 0.950 . S
C3451 C3453 1.327 . S
C3451 C3457 1.429 . S
C3452 C3444 1.574 . S
C3452 H3447 0.949 . S
C3452 C3458 1.368 . S
C3453 C3437 1.349 . S
C3453 H3445 0.950 . S
C3453 C3451 1.327 . S
C3454 C3442 1.397 . S
C3454 H3448 0.950 . S
C3454 C3455 1.327 . S
C3455 H3449 0.950 . S
C3455 C3454 1.327 . S
C3455 C3459 1.429 . S
C3456 C3439 1.574 . S
C3456 H3450 0.949 . S
C3456 C3460 1.368 . S
C3457 C3438 1.429 . S
C3457 C3451 1.429 . S
C3457 C3458 1.523 . S
C3458 C3439 1.368 . S
C3458 C3452 1.368 . S
C3458 C3457 1.523 . S
C3459 C3443 1.429 . S
C3459 C3455 1.429 . S
C3459 C3460 1.523 . S
C3460 C3444 1.368 . S
C3460 C3456 1.368 . S
C3460 C3459 1.523 . S
H3461 C3436 0.950 . S
H3462 C3438 0.950 . S
H3463 C3439 0.949 . S
H3464 C3441 0.950 . S
H3465 C3443 0.950 1_455 S
C3466 C3467 1.349 . S
C3466 C3468 1.327 . S
C3466 H3491 0.950 . S
C3467 C3466 1.349 . S
C3467 C3483 1.349 . S
C3468 C3466 1.327 . S
C3468 C3487 1.429 . S
C3468 H3492 0.950 . S
C3469 C3486 1.574 . S
C3469 C3488 1.368 . S
C3469 H3493 0.949 . S
H3470 C3474 0.949 . S
C3471 C3472 1.349 . S
C3471 C3473 1.327 . S
C3471 H3494 0.950 . S
C3472 C3471 1.349 . S
C3472 C3484 1.349 . S
C3473 C3471 1.327 . S
C3473 C3489 1.429 . S
C3473 H3495 0.950 . S
C3474 H3470 0.949 . S
C3474 C3482 1.574 . S
C3474 C3490 1.368 . S
H3475 C3483 0.950 . S
H3476 C3481 0.950 . S
H3477 C3482 0.949 . S
H3478 C3484 0.950 . S
H3479 C3485 0.950 . S
H3480 C3486 0.949 . S
C3481 H3476 0.950 . S
C3481 C3483 1.327 . S
C3481 C3487 1.429 . S
C3482 C3474 1.574 . S
C3482 H3477 0.949 . S
C3482 C3488 1.368 . S
C3483 C3467 1.349 . S
C3483 H3475 0.950 . S
C3483 C3481 1.327 . S
C3484 C3472 1.349 . S
C3484 H3478 0.950 . S
C3484 C3485 1.327 . S
C3485 H3479 0.950 . S
C3485 C3484 1.327 . S
C3485 C3489 1.429 . S
C3486 C3469 1.574 . S
C3486 H3480 0.949 . S
C3486 C3490 1.368 . S
C3487 C3468 1.429 . S
C3487 C3481 1.429 . S
C3487 C3488 1.523 . S
C3488 C3469 1.368 . S
C3488 C3482 1.368 . S
C3488 C3487 1.523 . S
C3489 C3473 1.429 . S
C3489 C3485 1.429 . S
C3489 C3490 1.523 . S
C3490 C3474 1.368 . S
C3490 C3486 1.368 . S
C3490 C3489 1.523 . S
H3491 C3466 0.950 . S
H3492 C3468 0.950 . S
H3493 C3469 0.949 . S
H3494 C3471 0.950 . S
H3495 C3473 0.950 . S
C3496 C3497 1.349 . S
C3496 C3498 1.327 . S
C3496 H3521 0.950 . S
C3497 C3496 1.349 . S
C3497 C3513 1.349 . S
C3498 C3496 1.327 . S
C3498 C3517 1.429 . S
C3498 H3522 0.950 . S
C3499 C3516 1.574 . S
C3499 C3518 1.368 . S
C3499 H3523 0.949 . S
H3500 C3504 0.949 . S
C3501 C3502 1.349 . S
C3501 C3503 1.327 . S
C3501 H3524 0.950 . S
C3502 C3501 1.349 . S
C3502 C3514 1.349 . S
C3503 C3501 1.327 . S
C3503 C3519 1.429 . S
C3503 H3525 0.950 . S
C3504 H3500 0.949 . S
C3504 C3512 1.574 . S
C3504 C3520 1.368 . S
H3505 C3513 0.950 . S
H3506 C3511 0.950 . S
H3507 C3512 0.949 . S
H3508 C3514 0.950 . S
H3509 C3515 0.950 . S
H3510 C3516 0.949 . S
C3511 H3506 0.950 . S
C3511 C3513 1.327 . S
C3511 C3517 1.429 . S
C3512 C3504 1.574 . S
C3512 H3507 0.949 . S
C3512 C3518 1.368 . S
C3513 C3497 1.349 . S
C3513 H3505 0.950 . S
C3513 C3511 1.327 . S
C3514 C3502 1.349 . S
C3514 H3508 0.950 . S
C3514 C3515 1.327 . S
C3515 H3509 0.950 . S
C3515 C3514 1.327 . S
C3515 C3519 1.429 . S
C3516 C3499 1.574 . S
C3516 H3510 0.949 . S
C3516 C3520 1.368 . S
C3517 C3498 1.429 . S
C3517 C3511 1.429 . S
C3517 C3518 1.523 . S
C3518 C3499 1.368 . S
C3518 C3512 1.368 . S
C3518 C3517 1.523 . S
C3519 C3503 1.429 . S
C3519 C3515 1.429 . S
C3519 C3520 1.523 . S
C3520 C3504 1.368 . S
C3520 C3516 1.368 . S
C3520 C3519 1.523 . S
H3521 C3496 0.950 . S
H3522 C3498 0.950 . S
H3523 C3499 0.949 . S
H3524 C3501 0.950 . S
H3525 C3503 0.950 . S
C3526 C3527 1.349 . S
C3526 C3528 1.327 . S
C3526 H3551 0.950 . S
C3527 C3526 1.349 . S
C3527 C3543 1.349 . S
C3528 C3526 1.327 . S
C3528 C3547 1.429 . S
C3528 H3552 0.950 . S
C3529 C3546 1.574 . S
C3529 C3548 1.368 . S
C3529 H3553 0.949 . S
H3530 C3534 0.949 . S
C3531 C3532 1.349 . S
C3531 C3533 1.327 . S
C3531 H3554 0.950 . S
C3532 C3531 1.349 . S
C3532 C3544 1.349 . S
C3533 C3531 1.327 . S
C3533 C3549 1.429 . S
C3533 H3555 0.950 . S
C3534 H3530 0.949 . S
C3534 C3542 1.574 . S
C3534 C3550 1.368 . S
H3535 C3543 0.950 . S
H3536 C3541 0.950 . S
H3537 C3542 0.949 . S
H3538 C3544 0.950 . S
H3539 C3545 0.950 . S
H3540 C3546 0.949 . S
C3541 H3536 0.950 . S
C3541 C3543 1.327 . S
C3541 C3547 1.429 . S
C3542 C3534 1.574 . S
C3542 H3537 0.949 . S
C3542 C3548 1.368 . S
C3543 C3527 1.349 . S
C3543 H3535 0.950 . S
C3543 C3541 1.327 . S
C3544 C3532 1.349 . S
C3544 H3538 0.950 . S
C3544 C3545 1.327 . S
C3545 H3539 0.950 . S
C3545 C3544 1.327 . S
C3545 C3549 1.429 . S
C3546 C3529 1.574 . S
C3546 H3540 0.949 . S
C3546 C3550 1.368 . S
C3547 C3528 1.429 . S
C3547 C3541 1.429 . S
C3547 C3548 1.523 . S
C3548 C3529 1.368 . S
C3548 C3542 1.368 . S
C3548 C3547 1.523 . S
C3549 C3533 1.429 . S
C3549 C3545 1.429 . S
C3549 C3550 1.523 . S
C3550 C3534 1.368 . S
C3550 C3546 1.368 . S
C3550 C3549 1.523 . S
H3551 C3526 0.950 . S
H3552 C3528 0.950 . S
H3553 C3529 0.949 . S
H3554 C3531 0.950 . S
H3555 C3533 0.950 . S
C3556 C3557 1.349 . S
C3556 C3558 1.327 . S
C3556 H3581 0.950 . S
C3557 C3556 1.349 . S
C3557 C3573 1.349 . S
C3558 C3556 1.327 . S
C3558 C3577 1.429 . S
C3558 H3582 0.950 . S
C3559 C3576 1.574 . S
C3559 C3578 1.368 . S
C3559 H3583 0.949 . S
H3560 C3564 0.949 . S
C3561 C3562 1.349 . S
C3561 C3563 1.327 . S
C3561 H3584 0.950 1_655 S
C3562 C3561 1.349 . S
C3562 C3574 1.349 . S
C3563 C3561 1.327 . S
C3563 C3579 1.429 . S
C3563 H3585 0.950 . S
C3564 H3560 0.949 . S
C3564 C3572 1.574 . S
C3564 C3580 1.368 . S
H3565 C3573 0.950 . S
H3566 C3571 0.950 . S
H3567 C3572 0.949 . S
H3568 C3574 0.950 . S
H3569 C3575 0.950 . S
H3570 C3576 0.949 . S
C3571 H3566 0.950 . S
C3571 C3573 1.327 . S
C3571 C3577 1.429 . S
C3572 C3564 1.574 . S
C3572 H3567 0.949 . S
C3572 C3578 1.368 . S
C3573 C3557 1.349 . S
C3573 H3565 0.950 . S
C3573 C3571 1.327 . S
C3574 C3562 1.349 . S
C3574 H3568 0.950 . S
C3574 C3575 1.327 . S
C3575 H3569 0.950 . S
C3575 C3574 1.327 . S
C3575 C3579 1.429 . S
C3576 C3559 1.574 . S
C3576 H3570 0.949 . S
C3576 C3580 1.368 . S
C3577 C3558 1.429 . S
C3577 C3571 1.429 . S
C3577 C3578 1.523 . S
C3578 C3559 1.368 . S
C3578 C3572 1.368 . S
C3578 C3577 1.523 . S
C3579 C3563 1.429 . S
C3579 C3575 1.429 . S
C3579 C3580 1.523 . S
C3580 C3564 1.368 . S
C3580 C3576 1.368 . S
C3580 C3579 1.523 . S
H3581 C3556 0.950 . S
H3582 C3558 0.950 . S
H3583 C3559 0.949 . S
H3584 C3561 0.950 1_455 S
H3585 C3563 0.950 . S
C3586 C3587 1.349 . S
C3586 C3588 1.327 . S
C3586 H3611 0.950 . S
C3587 C3586 1.349 . S
C3587 C3603 1.349 . S
C3588 C3586 1.327 . S
C3588 C3607 1.429 . S
C3588 H3612 0.950 . S
C3589 C3606 1.574 . S
C3589 C3608 1.368 . S
C3589 H3613 0.949 . S
H3590 C3594 0.949 . S
C3591 C3592 1.349 . S
C3591 C3593 1.327 . S
C3591 H3614 0.950 . S
C3592 C3591 1.349 . S
C3592 C3604 1.349 . S
C3593 C3591 1.327 . S
C3593 C3609 1.429 . S
C3593 H3615 0.950 . S
C3594 H3590 0.949 . S
C3594 C3602 1.574 . S
C3594 C3610 1.368 . S
H3595 C3603 0.950 . S
H3596 C3601 0.950 . S
H3597 C3602 0.949 . S
H3598 C3604 0.950 . S
H3599 C3605 0.950 . S
H3600 C3606 0.949 . S
C3601 H3596 0.950 . S
C3601 C3603 1.327 . S
C3601 C3607 1.429 . S
C3602 C3594 1.574 . S
C3602 H3597 0.949 . S
C3602 C3608 1.368 . S
C3603 C3587 1.349 . S
C3603 H3595 0.950 . S
C3603 C3601 1.327 . S
C3604 C3592 1.349 . S
C3604 H3598 0.950 . S
C3604 C3605 1.327 . S
C3605 H3599 0.950 . S
C3605 C3604 1.327 . S
C3605 C3609 1.429 . S
C3606 C3589 1.574 . S
C3606 H3600 0.949 . S
C3606 C3610 1.368 . S
C3607 C3588 1.429 . S
C3607 C3601 1.429 . S
C3607 C3608 1.523 . S
C3608 C3589 1.368 . S
C3608 C3602 1.368 . S
C3608 C3607 1.523 . S
C3609 C3593 1.429 . S
C3609 C3605 1.429 . S
C3609 C3610 1.523 . S
C3610 C3594 1.368 . S
C3610 C3606 1.368 . S
C3610 C3609 1.523 . S
H3611 C3586 0.950 . S
H3612 C3588 0.950 . S
H3613 C3589 0.949 . S
H3614 C3591 0.950 . S
H3615 C3593 0.950 . S
C3616 C3617 1.349 . S
C3616 C3618 1.327 . S
C3616 H3641 0.950 . S
C3617 C3616 1.349 . S
C3617 C3633 1.349 . S
C3618 C3616 1.327 . S
C3618 C3637 1.429 . S
C3618 H3642 0.950 . S
C3619 C3636 1.574 . S
C3619 C3638 1.368 . S
C3619 H3643 0.949 . S
H3620 C3624 0.949 . S
C3621 C3622 1.349 . S
C3621 C3623 1.327 . S
C3621 H3644 0.950 . S
C3622 C3621 1.349 . S
C3622 C3634 1.349 . S
C3623 C3621 1.327 . S
C3623 C3639 1.429 . S
C3623 H3645 0.950 . S
C3624 H3620 0.949 . S
C3624 C3632 1.574 . S
C3624 C3640 1.368 . S
H3625 C3633 0.950 . S
H3626 C3631 0.950 . S
H3627 C3632 0.949 . S
H3628 C3634 0.950 . S
H3629 C3635 0.950 . S
H3630 C3636 0.949 . S
C3631 H3626 0.950 . S
C3631 C3633 1.327 . S
C3631 C3637 1.429 . S
C3632 C3624 1.574 . S
C3632 H3627 0.949 . S
C3632 C3638 1.368 . S
C3633 C3617 1.349 . S
C3633 H3625 0.950 . S
C3633 C3631 1.327 . S
C3634 C3622 1.349 . S
C3634 H3628 0.950 . S
C3634 C3635 1.327 . S
C3635 H3629 0.950 . S
C3635 C3634 1.327 . S
C3635 C3639 1.429 . S
C3636 C3619 1.574 . S
C3636 H3630 0.949 . S
C3636 C3640 1.368 . S
C3637 C3618 1.429 . S
C3637 C3631 1.429 . S
C3637 C3638 1.523 . S
C3638 C3619 1.368 . S
C3638 C3632 1.368 . S
C3638 C3637 1.523 . S
C3639 C3623 1.429 . S
C3639 C3635 1.429 . S
C3639 C3640 1.523 . S
C3640 C3624 1.368 . S
C3640 C3636 1.368 . S
C3640 C3639 1.523 . S
H3641 C3616 0.950 . S
H3642 C3618 0.950 . S
H3643 C3619 0.949 . S
H3644 C3621 0.950 . S
H3645 C3623 0.950 . S
C3646 C3647 1.349 . S
C3646 C3648 1.327 . S
C3646 H3671 0.950 . S
C3647 C3646 1.349 . S
C3647 C3663 1.349 . S
C3648 C3646 1.327 . S
C3648 C3667 1.429 . S
C3648 H3672 0.950 . S
C3649 C3666 1.574 . S
C3649 C3668 1.368 . S
C3649 H3673 0.949 . S
H3650 C3654 0.949 . S
C3651 C3652 1.349 . S
C3651 C3653 1.327 . S
C3651 H3674 0.950 . S
C3652 C3651 1.349 . S
C3652 C3664 1.349 . S
C3653 C3651 1.327 . S
C3653 C3669 1.429 . S
C3653 H3675 0.950 . S
C3654 H3650 0.949 . S
C3654 C3662 1.574 . S
C3654 C3670 1.368 . S
H3655 C3663 0.950 . S
H3656 C3661 0.950 . S
H3657 C3662 0.949 . S
H3658 C3664 0.950 1_545 S
H3659 C3665 0.950 . S
H3660 C3666 0.949 . S
C3661 H3656 0.950 . S
C3661 C3663 1.327 . S
C3661 C3667 1.429 . S
C3662 C3654 1.574 . S
C3662 H3657 0.949 . S
C3662 C3668 1.368 . S
C3663 C3647 1.349 . S
C3663 H3655 0.950 . S
C3663 C3661 1.327 . S
C3664 C3652 1.349 . S
C3664 H3658 0.950 1_565 S
C3664 C3665 1.327 . S
C3665 H3659 0.950 . S
C3665 C3664 1.327 . S
C3665 C3669 1.429 . S
C3666 C3649 1.574 . S
C3666 H3660 0.949 . S
C3666 C3670 1.368 . S
C3667 C3648 1.429 . S
C3667 C3661 1.429 . S
C3667 C3668 1.523 . S
C3668 C3649 1.368 . S
C3668 C3662 1.368 . S
C3668 C3667 1.523 . S
C3669 C3653 1.429 . S
C3669 C3665 1.429 . S
C3669 C3670 1.523 . S
C3670 C3654 1.368 . S
C3670 C3666 1.368 . S
C3670 C3669 1.523 . S
H3671 C3646 0.950 . S
H3672 C3648 0.950 . S
H3673 C3649 0.949 . S
H3674 C3651 0.950 . S
H3675 C3653 0.950 . S
C3676 C3677 1.349 . S
C3676 C3678 1.327 . S
C3676 H3701 0.950 . S
C3677 C3676 1.349 . S
C3677 C3693 1.349 . S
C3678 C3676 1.327 . S
C3678 C3697 1.429 . S
C3678 H3702 0.950 . S
C3679 C3696 1.574 . S
C3679 C3698 1.368 . S
C3679 H3703 0.949 . S
H3680 C3684 0.949 . S
C3681 C3682 1.349 . S
C3681 C3683 1.327 . S
C3681 H3704 0.950 . S
C3682 C3681 1.349 . S
C3682 C3694 1.349 . S
C3683 C3681 1.327 . S
C3683 C3699 1.429 . S
C3683 H3705 0.950 . S
C3684 H3680 0.949 . S
C3684 C3692 1.574 . S
C3684 C3700 1.368 . S
H3685 C3693 0.950 . S
H3686 C3691 0.950 . S
H3687 C3692 0.949 . S
H3688 C3694 0.950 . S
H3689 C3695 0.950 . S
H3690 C3696 0.949 . S
C3691 H3686 0.950 . S
C3691 C3693 1.327 . S
C3691 C3697 1.429 . S
C3692 C3684 1.574 . S
C3692 H3687 0.949 . S
C3692 C3698 1.368 . S
C3693 C3677 1.349 . S
C3693 H3685 0.950 . S
C3693 C3691 1.327 . S
C3694 C3682 1.349 . S
C3694 H3688 0.950 . S
C3694 C3695 1.327 . S
C3695 H3689 0.950 . S
C3695 C3694 1.327 . S
C3695 C3699 1.429 . S
C3696 C3679 1.574 . S
C3696 H3690 0.949 . S
C3696 C3700 1.368 . S
C3697 C3678 1.429 . S
C3697 C3691 1.429 . S
C3697 C3698 1.523 . S
C3698 C3679 1.368 . S
C3698 C3692 1.368 . S
C3698 C3697 1.523 . S
C3699 C3683 1.429 . S
C3699 C3695 1.429 . S
C3699 C3700 1.523 . S
C3700 C3684 1.368 . S
C3700 C3696 1.368 . S
C3700 C3699 1.523 . S
H3701 C3676 0.950 . S
H3702 C3678 0.950 . S
H3703 C3679 0.949 . S
H3704 C3681 0.950 . S
H3705 C3683 0.950 . S
C3706 C3707 1.349 . S
C3706 C3708 1.327 . S
C3706 H3731 0.950 . S
C3707 C3706 1.349 . S
C3707 C3723 1.349 . S
C3708 C3706 1.327 . S
C3708 C3727 1.429 . S
C3708 H3732 0.950 . S
C3709 C3726 1.574 . S
C3709 C3728 1.368 . S
C3709 H3733 0.949 . S
H3710 C3714 0.949 . S
C3711 C3712 1.349 . S
C3711 C3713 1.327 . S
C3711 H3734 0.950 . S
C3712 C3711 1.349 . S
C3712 C3724 1.349 . S
C3713 C3711 1.327 . S
C3713 C3729 1.429 . S
C3713 H3735 0.950 . S
C3714 H3710 0.949 . S
C3714 C3722 1.574 . S
C3714 C3730 1.368 . S
H3715 C3723 0.950 . S
H3716 C3721 0.950 . S
H3717 C3722 0.949 . S
H3718 C3724 0.950 . S
H3719 C3725 0.950 . S
H3720 C3726 0.949 . S
C3721 H3716 0.950 . S
C3721 C3723 1.327 . S
C3721 C3727 1.429 . S
C3722 C3714 1.574 . S
C3722 H3717 0.949 . S
C3722 C3728 1.368 . S
C3723 C3707 1.349 . S
C3723 H3715 0.950 . S
C3723 C3721 1.327 . S
C3724 C3712 1.349 . S
C3724 H3718 0.950 . S
C3724 C3725 1.327 . S
C3725 H3719 0.950 . S
C3725 C3724 1.327 . S
C3725 C3729 1.429 . S
C3726 C3709 1.574 . S
C3726 H3720 0.949 . S
C3726 C3730 1.368 . S
C3727 C3708 1.429 . S
C3727 C3721 1.429 . S
C3727 C3728 1.523 . S
C3728 C3709 1.368 . S
C3728 C3722 1.368 . S
C3728 C3727 1.523 . S
C3729 C3713 1.429 . S
C3729 C3725 1.429 . S
C3729 C3730 1.523 . S
C3730 C3714 1.368 . S
C3730 C3726 1.368 . S
C3730 C3729 1.523 . S
H3731 C3706 0.950 . S
H3732 C3708 0.950 . S
H3733 C3709 0.949 . S
H3734 C3711 0.950 . S
H3735 C3713 0.950 . S
C3736 C3737 1.349 . S
C3736 C3738 1.327 . S
C3736 H3761 0.950 . S
C3737 C3736 1.349 . S
C3737 C3753 1.349 . S
C3738 C3736 1.327 . S
C3738 C3757 1.429 . S
C3738 H3762 0.950 . S
C3739 C3756 1.574 . S
C3739 C3758 1.368 . S
C3739 H3763 0.949 . S
H3740 C3744 0.949 . S
C3741 C3742 1.349 . S
C3741 C3743 1.327 . S
C3741 H3764 0.950 . S
C3742 C3741 1.349 . S
C3742 C3754 1.349 . S
C3743 C3741 1.327 . S
C3743 C3759 1.429 . S
C3743 H3765 0.950 . S
C3744 H3740 0.949 . S
C3744 C3752 1.574 . S
C3744 C3760 1.368 . S
H3745 C3753 0.950 . S
H3746 C3751 0.950 . S
H3747 C3752 0.949 . S
H3748 C3754 0.950 . S
H3749 C3755 0.950 . S
H3750 C3756 0.949 . S
C3751 H3746 0.950 . S
C3751 C3753 1.327 . S
C3751 C3757 1.429 . S
C3752 C3744 1.574 . S
C3752 H3747 0.949 . S
C3752 C3758 1.368 . S
C3753 C3737 1.349 . S
C3753 H3745 0.950 . S
C3753 C3751 1.327 . S
C3754 C3742 1.349 . S
C3754 H3748 0.950 . S
C3754 C3755 1.327 . S
C3755 H3749 0.950 . S
C3755 C3754 1.327 . S
C3755 C3759 1.429 . S
C3756 C3739 1.574 . S
C3756 H3750 0.949 . S
C3756 C3760 1.368 . S
C3757 C3738 1.429 . S
C3757 C3751 1.429 . S
C3757 C3758 1.523 . S
C3758 C3739 1.368 . S
C3758 C3752 1.368 . S
C3758 C3757 1.523 . S
C3759 C3743 1.429 . S
C3759 C3755 1.429 . S
C3759 C3760 1.523 . S
C3760 C3744 1.368 . S
C3760 C3756 1.368 . S
C3760 C3759 1.523 . S
H3761 C3736 0.950 . S
H3762 C3738 0.950 . S
H3763 C3739 0.949 . S
H3764 C3741 0.950 . S
H3765 C3743 0.950 . S
C3766 C3767 1.349 . S
C3766 C3768 1.327 . S
C3766 H3791 0.950 . S
C3767 C3766 1.349 . S
C3767 C3783 1.349 . S
C3768 C3766 1.327 . S
C3768 C3787 1.429 . S
C3768 H3792 0.950 . S
C3769 C3786 1.574 . S
C3769 C3788 1.368 . S
C3769 H3793 0.949 . S
H3770 C3774 0.949 . S
C3771 C3772 1.349 . S
C3771 C3773 1.327 . S
C3771 H3794 0.950 . S
C3772 C3771 1.349 . S
C3772 C3784 1.349 . S
C3773 C3771 1.327 . S
C3773 C3789 1.429 . S
C3773 H3795 0.950 . S
C3774 H3770 0.949 . S
C3774 C3782 1.574 . S
C3774 C3790 1.368 . S
H3775 C3783 0.950 . S
H3776 C3781 0.950 . S
H3777 C3782 0.949 . S
H3778 C3784 0.950 . S
H3779 C3785 0.950 . S
H3780 C3786 0.949 . S
C3781 H3776 0.950 . S
C3781 C3783 1.327 . S
C3781 C3787 1.429 . S
C3782 C3774 1.574 . S
C3782 H3777 0.949 . S
C3782 C3788 1.368 . S
C3783 C3767 1.349 . S
C3783 H3775 0.950 . S
C3783 C3781 1.327 . S
C3784 C3772 1.349 . S
C3784 H3778 0.950 . S
C3784 C3785 1.327 . S
C3785 H3779 0.950 . S
C3785 C3784 1.327 . S
C3785 C3789 1.429 . S
C3786 C3769 1.574 . S
C3786 H3780 0.949 . S
C3786 C3790 1.368 . S
C3787 C3768 1.429 . S
C3787 C3781 1.429 . S
C3787 C3788 1.523 . S
C3788 C3769 1.368 . S
C3788 C3782 1.368 . S
C3788 C3787 1.523 . S
C3789 C3773 1.429 . S
C3789 C3785 1.429 . S
C3789 C3790 1.523 . S
C3790 C3774 1.368 . S
C3790 C3786 1.368 . S
C3790 C3789 1.523 . S
H3791 C3766 0.950 . S
H3792 C3768 0.950 . S
H3793 C3769 0.949 . S
H3794 C3771 0.950 . S
H3795 C3773 0.950 . S
C3796 C3797 1.349 . S
C3796 C3798 1.327 . S
C3796 H3821 0.950 . S
C3797 C3796 1.349 . S
C3797 C3813 1.349 . S
C3798 C3796 1.327 . S
C3798 C3817 1.429 . S
C3798 H3822 0.950 . S
C3799 C3816 1.574 . S
C3799 C3818 1.368 . S
C3799 H3823 0.949 . S
H3800 C3804 0.949 . S
C3801 C3802 1.349 . S
C3801 C3803 1.327 . S
C3801 H3824 0.950 . S
C3802 C3801 1.349 . S
C3802 C3814 1.349 . S
C3803 C3801 1.327 . S
C3803 C3819 1.429 . S
C3803 H3825 0.950 . S
C3804 H3800 0.949 . S
C3804 C3812 1.574 . S
C3804 C3820 1.368 . S
H3805 C3813 0.950 . S
H3806 C3811 0.950 . S
H3807 C3812 0.949 . S
H3808 C3814 0.950 . S
H3809 C3815 0.950 . S
H3810 C3816 0.949 . S
C3811 H3806 0.950 . S
C3811 C3813 1.327 . S
C3811 C3817 1.429 . S
C3812 C3804 1.574 . S
C3812 H3807 0.949 . S
C3812 C3818 1.368 . S
C3813 C3797 1.349 . S
C3813 H3805 0.950 . S
C3813 C3811 1.327 . S
C3814 C3802 1.349 . S
C3814 H3808 0.950 . S
C3814 C3815 1.327 . S
C3815 H3809 0.950 . S
C3815 C3814 1.327 . S
C3815 C3819 1.429 . S
C3816 C3799 1.574 . S
C3816 H3810 0.949 . S
C3816 C3820 1.368 . S
C3817 C3798 1.429 . S
C3817 C3811 1.429 . S
C3817 C3818 1.523 . S
C3818 C3799 1.368 . S
C3818 C3812 1.368 . S
C3818 C3817 1.523 . S
C3819 C3803 1.429 . S
C3819 C3815 1.429 . S
C3819 C3820 1.523 . S
C3820 C3804 1.368 . S
C3820 C3816 1.368 . S
C3820 C3819 1.523 . S
H3821 C3796 0.950 . S
H3822 C3798 0.950 . S
H3823 C3799 0.949 . S
H3824 C3801 0.950 . S
H3825 C3803 0.950 . S
C3826 C3827 1.349 . S
C3826 C3828 1.327 . S
C3826 H3851 0.950 . S
C3827 C3826 1.349 . S
C3827 C3843 1.349 . S
C3828 C3826 1.327 . S
C3828 C3847 1.429 . S
C3828 H3852 0.950 . S
C3829 C3846 1.574 . S
C3829 C3848 1.368 . S
C3829 H3853 0.949 . S
H3830 C3834 0.949 . S
C3831 C3832 1.349 . S
C3831 C3833 1.327 . S
C3831 H3854 0.950 . S
C3832 C3831 1.349 . S
C3832 C3844 1.349 . S
C3833 C3831 1.327 . S
C3833 C3849 1.429 . S
C3833 H3855 0.950 . S
C3834 H3830 0.949 . S
C3834 C3842 1.574 . S
C3834 C3850 1.368 . S
H3835 C3843 0.950 . S
H3836 C3841 0.950 . S
H3837 C3842 0.949 . S
H3838 C3844 0.950 . S
H3839 C3845 0.950 . S
H3840 C3846 0.949 . S
C3841 H3836 0.950 . S
C3841 C3843 1.327 . S
C3841 C3847 1.429 . S
C3842 C3834 1.574 . S
C3842 H3837 0.949 . S
C3842 C3848 1.368 . S
C3843 C3827 1.349 . S
C3843 H3835 0.950 . S
C3843 C3841 1.327 . S
C3844 C3832 1.349 . S
C3844 H3838 0.950 . S
C3844 C3845 1.327 . S
C3845 H3839 0.950 . S
C3845 C3844 1.327 . S
C3845 C3849 1.429 . S
C3846 C3829 1.574 . S
C3846 H3840 0.949 . S
C3846 C3850 1.368 . S
C3847 C3828 1.429 . S
C3847 C3841 1.429 . S
C3847 C3848 1.523 . S
C3848 C3829 1.368 . S
C3848 C3842 1.368 . S
C3848 C3847 1.523 . S
C3849 C3833 1.429 . S
C3849 C3845 1.429 . S
C3849 C3850 1.523 . S
C3850 C3834 1.368 . S
C3850 C3846 1.368 . S
C3850 C3849 1.523 . S
H3851 C3826 0.950 . S
H3852 C3828 0.950 . S
H3853 C3829 0.949 . S
H3854 C3831 0.950 . S
H3855 C3833 0.950 . S
C977 C106 2.442 . S
C982 C355 2.409 . S
C1007 C65 2.155 . S
C1012 C384 2.144 . S
C1037 C79 1.459 . S
C1042 C435 1.433 . S
C1072 C461 1.306 . S
C1067 C90 1.296 . S
C1097 C21 0.298 . S
C1102 C501 0.246 . S
C1132 C551 0.217 . S
C1127 C35 0.429 . S
C1162 C594 0.338 . S
C1157 C50 0.123 . S
C1187 C6 0.957 . S
C1192 C631 0.991 . S
C1222 C344 2.618 . S
C1217 C232 2.610 . S
C1247 C245 0.557 . S
C1252 C381 0.486 . S
C1282 C424 2.506 . S
C1277 C274 2.520 . S
C1312 C475 1.099 . S
C1307 C175 1.102 . S
C1337 C231 1.475 . S
C1342 C515 1.492 . S
C1372 C554 0.354 . S
C1367 C246 0.273 . S
C1402 C585 1.707 1_556 S
C1397 C273 1.695 . S
C1432 C634 2.152 . S
C1427 C176 2.132 . S
C1462 C341 1.209 . S
C1457 C160 1.175 . S
C1487 C289 2.322 . S
C1492 C664 2.310 . S
C1522 C705 2.456 . S
C1517 C328 2.431 . S
C1552 C751 0.599 . S
C1547 C317 0.596 . S
C1577 C118 2.488 . S
C1582 C625 2.508 . S
C1607 C132 1.471 . S
C1612 C421 1.493 . S
C1637 C331 2.353 . S
C1642 C784 2.335 . S
C1672 C835 1.954 . S
C1667 C303 1.972 . S
C1702 C345 1.911 . S
C1697 C63 1.930 . S
C1732 C834 2.636 . S
C1727 C107 2.610 . S
C1757 C92 1.186 . S
C1762 C425 1.182 . S
C1787 C78 1.848 . S
C1792 C791 1.859 . S
C1822 C511 0.710 . S
C1817 C8 0.711 . S
C1847 C51 0.278 . S
C1852 C701 0.254 . S
C1882 C584 0.475 . S
C1877 C37 0.469 . S
C1912 C861 0.899 . S
C1907 C20 0.889 . S
C1942 C354 2.389 1_556 S
C1937 C147 2.334 . S
C1972 C831 0.306 . S
C1967 C316 0.259 . S
C1997 C119 2.377 . S
C2002 C434 2.423 . S
C2027 C288 1.220 . S
C2032 C785 1.217 . S
C2057 C148 1.966 1_545 S
C2062 C505 1.935 . S
C2092 C704 0.427 . S
C2087 C315 0.435 . S
C2117 C120 2.060 . S
C2122 C595 1.986 . S
C2147 C287 1.841 . S
C2152 C864 1.859 . S
C2177 C188 0.953 . S
C2182 C351 0.960 . S
C2207 C177 2.741 . S
C2212 C674 2.748 . S
C2237 C258 2.515 . S
C2242 C555 2.557 . S
C2267 C247 0.524 . S
C2272 C741 0.525 . S
C2302 C875 2.440 . S
C2297 C272 2.436 . S
C2327 C216 1.319 . S
C2332 C431 1.331 . S
C2362 C474 2.586 . S
C2357 C261 2.581 . S
C2392 C385 2.091 . S
C2387 C205 2.123 . S
C2417 C76 2.026 . S
C2422 C915 2.027 . S
C2452 C824 2.239 . S
C2447 C93 2.249 . S
C2477 C105 1.009 . S
C2482 C955 1.005 . S
C2507 C62 1.326 1_655 S
C2512 C781 1.340 . S
C2537 C49 0.294 . S
C2542 C661 0.253 . S
C2572 C711 0.524 . S
C2567 C9 0.521 1_655 S
C2602 C754 0.382 . S
C2597 C22 0.182 . S
C2632 C871 1.274 . S
C2627 C36 1.274 . S
C2662 C904 2.550 . S
C2657 C260 2.543 . S
C2687 C189 0.609 . S
C2692 C821 0.560 . S
C2722 C944 2.378 . S
C2717 C204 2.391 . S
C2752 C795 0.926 . S
C2747 C217 0.931 . S
C2782 C675 1.798 1_556 S
C2777 C259 1.768 . S
C2807 C190 0.422 . S
C2812 C714 0.454 . S
C2842 C745 1.917 . S
C2837 C203 1.906 . S
C2867 C218 2.249 . S
C2872 C874 2.274 . S
C2902 C901 1.194 . S
C2897 C314 1.158 . S
C2927 C135 2.405 . S
C2932 C504 2.392 . S
C2962 C545 2.313 . S
C2957 C146 2.283 . S
C2992 C591 0.606 . S
C2987 C163 0.604 . S
C3022 C865 2.588 . S
C3017 C300 2.572 . S
C3047 C286 1.396 . S
C3052 C941 1.422 . S
C3082 C464 2.238 . S
C3077 C149 2.253 . S
C3112 C395 1.890 . S
C3107 C121 1.918 1_565 S
C3137 C91 1.893 . S
C3142 C905 1.882 . S
C3172 C394 2.213 . S
C3167 C77 2.159 . S
C3197 C64 1.152 . S
C3202 C945 1.153 . S
C3227 C104 1.498 . S
C3232 C471 1.515 . S
C3257 C34 0.363 . S
C3262 C671 0.314 . S
C3292 C541 0.214 . S
C3287 C23 0.270 . S
C3317 C7 0.451 . S
C3322 C744 0.348 . S
C3347 C48 0.825 . S
C3352 C621 0.832 . S
C3382 C914 2.353 . S
C3377 C329 2.304 . S
C3407 C162 0.275 . S
C3412 C391 0.282 . S
C3442 C954 2.387 1_656 S
C3437 C301 2.377 . S
C3467 C134 1.231 . S
C3472 C465 1.229 . S
C3497 C330 1.929 . S
C3502 C665 1.899 . S
C3532 C544 0.482 . S
C3527 C161 0.482 . S
C3557 C302 2.022 . S
C3562 C755 1.960 1_655 S
C3592 C624 1.845 . S
C3587 C133 1.832 . S
C3622 C911 1.147 . S
C3617 C244 1.134 . S
C3652 C514 2.689 1_565 S
C3647 C219 2.673 . S
C3677 C230 2.129 . S
C3682 C715 2.158 . S
C3712 C581 0.559 . S
C3707 C191 0.554 . S
C3737 C202 2.717 . S
C3742 C635 2.731 . S
C3767 C174 1.563 . S
C3772 C951 1.581 . S
C3802 C794 2.564 . S
C3797 C233 2.551 1_565 S
C3832 C825 2.046 . S
C3827 C275 2.091 . S
