# Generated by pormake.
# Topology llj, (12,3)-cn, num edge types: 1
# Building blocks:
#     Node 0, Type 0, BuildingBlock: QEWDON_clean_sbu_0, # of connection points: 12
#     Node 1, Type 0, BuildingBlock: QEWDON_clean_sbu_0, # of connection points: 12
#     Node 2, Type 1, BuildingBlock: OLANEW_clean_sbu_2, # of connection points: 3
#     Node 3, Type 1, BuildingBlock: OLANEW_clean_sbu_2, # of connection points: 3
#     Node 4, Type 1, BuildingBlock: OLANEW_clean_sbu_2, # of connection points: 3
#     Node 5, Type 1, BuildingBlock: OLANEW_clean_sbu_2, # of connection points: 3
#     Node 6, Type 1, BuildingBlock: OLANEW_clean_sbu_2, # of connection points: 3
#     Node 7, Type 1, BuildingBlock: OLANEW_clean_sbu_2, # of connection points: 3
#     Node 8, Type 1, BuildingBlock: OLANEW_clean_sbu_2, # of connection points: 3
#     Node 9, Type 1, BuildingBlock: OLANEW_clean_sbu_2, # of connection points: 3
#     Edge 10, Type (0, 1), BuildingBlock: MIFKUJ_clean_linker_0, # of connection points: 2
#     Edge 11, Type (0, 1), BuildingBlock: MIFKUJ_clean_linker_0, # of connection points: 2
#     Edge 12, Type (0, 1), BuildingBlock: MIFKUJ_clean_linker_0, # of connection points: 2
#     Edge 13, Type (0, 1), BuildingBlock: MIFKUJ_clean_linker_0, # of connection points: 2
#     Edge 14, Type (0, 1), BuildingBlock: MIFKUJ_clean_linker_0, # of connection points: 2
#     Edge 15, Type (0, 1), BuildingBlock: MIFKUJ_clean_linker_0, # of connection points: 2
#     Edge 16, Type (0, 1), BuildingBlock: MIFKUJ_clean_linker_0, # of connection points: 2
#     Edge 17, Type (0, 1), BuildingBlock: MIFKUJ_clean_linker_0, # of connection points: 2
#     Edge 18, Type (0, 1), BuildingBlock: MIFKUJ_clean_linker_0, # of connection points: 2
#     Edge 19, Type (0, 1), BuildingBlock: MIFKUJ_clean_linker_0, # of connection points: 2
#     Edge 20, Type (0, 1), BuildingBlock: MIFKUJ_clean_linker_0, # of connection points: 2
#     Edge 21, Type (0, 1), BuildingBlock: MIFKUJ_clean_linker_0, # of connection points: 2
#     Edge 22, Type (0, 1), BuildingBlock: MIFKUJ_clean_linker_0, # of connection points: 2
#     Edge 23, Type (0, 1), BuildingBlock: MIFKUJ_clean_linker_0, # of connection points: 2
#     Edge 24, Type (0, 1), BuildingBlock: MIFKUJ_clean_linker_0, # of connection points: 2
#     Edge 25, Type (0, 1), BuildingBlock: MIFKUJ_clean_linker_0, # of connection points: 2
#     Edge 26, Type (0, 1), BuildingBlock: MIFKUJ_clean_linker_0, # of connection points: 2
#     Edge 27, Type (0, 1), BuildingBlock: MIFKUJ_clean_linker_0, # of connection points: 2
#     Edge 28, Type (0, 1), BuildingBlock: MIFKUJ_clean_linker_0, # of connection points: 2
#     Edge 29, Type (0, 1), BuildingBlock: MIFKUJ_clean_linker_0, # of connection points: 2
#     Edge 30, Type (0, 1), BuildingBlock: MIFKUJ_clean_linker_0, # of connection points: 2
#     Edge 31, Type (0, 1), BuildingBlock: MIFKUJ_clean_linker_0, # of connection points: 2
#     Edge 32, Type (0, 1), BuildingBlock: MIFKUJ_clean_linker_0, # of connection points: 2
#     Edge 33, Type (0, 1), BuildingBlock: MIFKUJ_clean_linker_0, # of connection points: 2
# Relax obj value: 0.011
# Max RMSD: 0.108
# Mean RMSD: 0.087
data_MOF--net-llj--node1-QEWDON_clean_sbu_0--node2-OLANEW_clean_sbu_2--edge1-MIFKUJ_clean_linker_0
_symmetry_space_group_name_H-M    P1
_symmetry_Int_Tables_number       1
_symmetry_cell_setting            triclinic
loop_
_symmetry_equiv_pos_as_xyz
'x, y, z'
_cell_length_a     51.556357
_cell_length_b     51.569125
_cell_length_c     32.806781
_cell_angle_alpha  88.233726
_cell_angle_beta   92.000047
_cell_angle_gamma 90.034727
loop_
_atom_site_label
_atom_site_type_symbol
_atom_site_fract_x
_atom_site_fract_y
_atom_site_fract_z
_atom_type_partial_charge
Zn0 Zn 0.95393 0.06842 0.96499 0.0
Zn1 Zn 0.95236 0.06417 0.05668 0.0
O2 O 0.9785 0.0713 0.01442 0.0
H3 H 0.99669 0.06674 0.01535 0.0
C4 C 0.92898 0.02691 0.89858 0.0
O5 O 0.92057 0.02819 0.93582 0.0
Zn6 Zn 0.04389 0.94568 0.04669 0.0
Zn7 Zn 0.05299 0.94086 0.95005 0.0
O8 O 0.03016 0.95663 0.99092 0.0
H9 H 0.01716 0.96969 0.98414 0.0
Zn10 Zn 0.95378 0.98294 0.93791 0.0
O11 O 0.96475 0.99844 0.99165 0.0
Zn12 Zn 0.95702 0.97084 0.03375 0.0
H13 H 0.97224 0.01543 0.99491 0.0
Zn14 Zn 0.04039 0.03651 0.98328 0.0
O15 O 0.02423 0.01754 0.03056 0.0
H16 H 0.01163 0.00368 0.02943 0.0
Zn17 Zn 0.03421 0.03609 0.08053 0.0
C18 C 0.0723 0.00028 0.94463 0.0
O19 O 0.08493 0.00289 0.97975 0.0
O20 O 0.91893 0.08634 0.97412 0.0
O21 O 0.91923 0.08395 0.04186 0.0
O22 O 0.08588 0.925 0.97693 0.0
O23 O 0.07871 0.92653 0.04355 0.0
O24 O 0.92691 0.95374 0.94524 0.0
O25 O 0.92904 0.94667 0.01264 0.0
C26 C 0.98994 0.06734 0.12014 0.0
O27 O 0.06715 0.06368 0.00199 0.0
O28 O 0.06212 0.06298 0.0692 0.0
O29 O 0.03464 0.92066 0.90382 0.0
C30 C 0.90857 0.09129 0.00773 0.0
O31 O 0.97061 0.07613 0.90966 0.0
C32 C 0.9941 0.93181 0.06955 0.0
O33 O 0.94479 0.00902 0.8907 0.0
C34 C 0.09284 0.92033 0.01406 0.0
O35 O 0.05159 0.01315 0.93738 0.0
C36 C 0.94408 0.01088 0.08944 0.0
O37 O 0.96718 0.07536 0.11083 0.0
O38 O 0.00113 0.05387 0.09418 0.0
C39 C 0.91935 0.94188 0.97732 0.0
O40 O 0.0171 0.92324 0.07421 0.0
O41 O 0.98985 0.95074 0.04459 0.0
C42 C 0.05257 0.98631 0.11419 0.0
O43 O 0.94621 0.98652 0.08613 0.0
O44 O 0.94712 0.02556 0.05821 0.0
C45 C 0.07326 0.07169 0.03742 0.0
O46 O 0.04855 0.00988 0.12265 0.0
O47 O 0.04585 0.97888 0.07867 0.0
C48 C 0.01182 0.92735 0.89204 0.0
O49 O 0.00099 0.94731 0.90871 0.0
C50 C 0.98897 0.06259 0.89659 0.0
O51 O 0.9971 0.04205 0.91803 0.0
Zn52 Zn 0.46089 0.58541 0.44784 0.0
Zn53 Zn 0.4578 0.563 0.53885 0.0
O54 O 0.48037 0.564 0.49071 0.0
H55 H 0.49269 0.55072 0.48443 0.0
C56 C 0.43889 0.51089 0.396 0.0
O57 O 0.45403 0.52052 0.42478 0.0
Zn58 Zn 0.54358 0.44728 0.54219 0.0
Zn59 Zn 0.54588 0.44968 0.44669 0.0
O60 O 0.52017 0.44832 0.49246 0.0
H61 H 0.50275 0.44151 0.49011 0.0
Zn62 Zn 0.44216 0.467 0.45289 0.0
O63 O 0.46272 0.48613 0.4964 0.0
Zn64 Zn 0.457 0.46696 0.5488 0.0
H65 H 0.47748 0.49722 0.49149 0.0
Zn66 Zn 0.54972 0.54688 0.45117 0.0
O67 O 0.53857 0.52273 0.49691 0.0
H68 H 0.52638 0.50868 0.4933 0.0
Zn69 Zn 0.54519 0.54181 0.54774 0.0
C70 C 0.58178 0.50896 0.41844 0.0
O71 O 0.58715 0.50642 0.45781 0.0
O72 O 0.42981 0.60512 0.46868 0.0
O73 O 0.42598 0.58626 0.53018 0.0
O74 O 0.58001 0.43047 0.46341 0.0
O75 O 0.57577 0.42676 0.53058 0.0
O76 O 0.41829 0.43823 0.4754 0.0
O77 O 0.43063 0.43815 0.54119 0.0
C78 C 0.50182 0.56755 0.58998 0.0
O79 O 0.57095 0.57832 0.471 0.0
O80 O 0.57047 0.57164 0.53842 0.0
O81 O 0.52974 0.43938 0.39095 0.0
C82 C 0.41813 0.6024 0.50211 0.0
O83 O 0.48158 0.60093 0.40052 0.0
C84 C 0.5015 0.43605 0.59228 0.0
O85 O 0.4309 0.48768 0.40014 0.0
C86 C 0.58807 0.42205 0.49853 0.0
O87 O 0.56566 0.52625 0.40568 0.0
C88 C 0.44406 0.51612 0.58358 0.0
O89 O 0.47845 0.57518 0.58821 0.0
O90 O 0.50998 0.55477 0.5607 0.0
C91 C 0.41692 0.4291 0.51182 0.0
O92 O 0.52532 0.43036 0.58958 0.0
O93 O 0.49168 0.45168 0.56529 0.0
C94 C 0.56036 0.49359 0.58769 0.0
O95 O 0.44511 0.49183 0.59095 0.0
O96 O 0.44978 0.52518 0.54869 0.0
C97 C 0.57816 0.58433 0.50705 0.0
O98 O 0.56029 0.51794 0.59204 0.0
O99 O 0.55076 0.48445 0.55503 0.0
C100 C 0.50885 0.44934 0.37593 0.0
O101 O 0.49773 0.46816 0.39506 0.0
C102 C 0.49977 0.5878 0.38609 0.0
O103 O 0.50487 0.56448 0.40155 0.0
O104 O 0.38032 0.25416 0.12216 0.0
Cd105 Cd 0.36728 0.22067 0.07467 0.0
O106 O 0.37026 0.28096 0.07126 0.0
Cd107 Cd 0.37116 0.31696 0.03455 0.0
O108 O 0.37884 0.33818 0.97767 0.0
C109 C 0.39847 0.33038 0.95915 0.0
O110 O 0.41263 0.3115 0.97606 0.0
C111 C 0.37929 0.27724 0.10751 0.0
C112 C 0.31659 0.203 0.08138 0.0
O113 O 0.33559 0.19082 0.09946 0.0
O114 O 0.32152 0.22386 0.06083 0.0
O115 O 0.71179 0.38156 0.94729 0.0
Cd116 Cd 0.73217 0.37001 0.01389 0.0
O117 O 0.67788 0.35622 0.9553 0.0
Cd118 Cd 0.68816 0.34801 0.01911 0.0
O119 O 0.68786 0.35663 0.08349 0.0
C120 C 0.66686 0.35258 0.10174 0.0
O121 O 0.64739 0.34164 0.08186 0.0
C122 C 0.69067 0.372 0.93327 0.0
C123 C 0.75771 0.32238 0.01277 0.0
O124 O 0.73401 0.32377 0.02293 0.0
O125 O 0.76942 0.34354 0.00335 0.0
O126 O 0.62841 0.74441 0.06188 0.0
Cd127 Cd 0.64149 0.76185 0.99574 0.0
O128 O 0.64312 0.70915 0.03607 0.0
Cd129 Cd 0.64696 0.66789 0.02463 0.0
O130 O 0.64125 0.64201 0.97398 0.0
C131 C 0.63914 0.65444 0.93999 0.0
O132 O 0.6416 0.67982 0.93966 0.0
C133 C 0.63194 0.72005 0.06493 0.0
C134 C 0.68627 0.79171 0.99718 0.0
O135 O 0.66385 0.80247 0.99425 0.0
O136 O 0.68749 0.76691 0.00027 0.0
O137 O 0.32327 0.6539 0.03053 0.0
Cd138 Cd 0.3043 0.67203 0.96651 0.0
O139 O 0.35195 0.68485 0.0405 0.0
Cd140 Cd 0.3466 0.6978 0.97698 0.0
O141 O 0.357 0.68623 0.91631 0.0
C142 C 0.37835 0.67393 0.91605 0.0
O143 O 0.39189 0.67072 0.95053 0.0
C144 C 0.34074 0.66428 0.053 0.0
C145 C 0.27309 0.71485 0.9804 0.0
O146 O 0.26437 0.6917 0.98476 0.0
O147 O 0.2965 0.7178 0.96924 0.0
O148 O 0.87586 0.7773 0.56134 0.0
Cd149 Cd 0.85864 0.76051 0.49676 0.0
O150 O 0.85428 0.81405 0.55528 0.0
Cd151 Cd 0.84463 0.80837 0.49099 0.0
O152 O 0.85589 0.81949 0.42935 0.0
C153 C 0.8668 0.84155 0.42627 0.0
O154 O 0.86941 0.85553 0.45899 0.0
C155 C 0.86926 0.79875 0.57607 0.0
C156 C 0.81022 0.73661 0.50368 0.0
O157 O 0.8313 0.72414 0.51234 0.0
O158 O 0.81198 0.76048 0.49202 0.0
O159 O 0.17143 0.84178 0.46864 0.0
Cd160 Cd 0.18028 0.82856 0.53993 0.0
O161 O 0.19826 0.87497 0.47159 0.0
Cd162 Cd 0.20586 0.86898 0.53682 0.0
O163 O 0.19472 0.87178 0.5999 0.0
C164 C 0.17049 0.87401 0.60475 0.0
O165 O 0.15467 0.87358 0.57248 0.0
C166 C 0.18237 0.86109 0.4513 0.0
C167 C 0.21863 0.79071 0.546 0.0
O168 O 0.19458 0.78448 0.54691 0.0
O169 O 0.22449 0.81481 0.54268 0.0
O170 O 0.12143 0.24372 0.6323 0.0
Cd171 Cd 0.13581 0.27928 0.58819 0.0
O172 O 0.13379 0.21737 0.5856 0.0
Cd173 Cd 0.13228 0.18029 0.55531 0.0
O174 O 0.11864 0.15258 0.51063 0.0
C175 C 0.09442 0.15279 0.50206 0.0
O176 O 0.0795 0.16843 0.52177 0.0
C177 C 0.12326 0.22083 0.61945 0.0
C178 C 0.18826 0.29106 0.59733 0.0
O179 O 0.17126 0.30335 0.61684 0.0
O180 O 0.18045 0.27283 0.57421 0.0
O181 O 0.74319 0.11442 0.57206 0.0
Cd182 Cd 0.71114 0.12347 0.51734 0.0
O183 O 0.77355 0.11849 0.52742 0.0
Cd184 Cd 0.81281 0.1203 0.50442 0.0
O185 O 0.84387 0.11577 0.46185 0.0
C186 C 0.86096 0.09811 0.46688 0.0
O187 O 0.86088 0.08309 0.49997 0.0
C188 C 0.76711 0.1143 0.56409 0.0
C189 C 0.70202 0.17661 0.51227 0.0
O190 O 0.68911 0.16169 0.53606 0.0
O191 O 0.71901 0.1663 0.49021 0.0
H192 H 0.11244 0.07972 0.98538 0.0
H193 H 0.15128 0.10595 0.9958 0.0
H194 H 0.12246 0.13146 0.10992 0.0
H195 H 0.08391 0.10425 0.10027 0.0
H196 H 0.16298 0.15347 0.00219 0.0
H197 H 0.17194 0.1405 0.1777 0.0
H198 H 0.15866 0.10948 0.23189 0.0
H199 H 0.15772 0.04784 0.14677 0.0
H200 H 0.17128 0.07842 0.09227 0.0
H201 H 0.27113 0.22873 0.0631 0.0
H202 H 0.22732 0.21049 0.06012 0.0
H203 H 0.2583 0.13524 0.09675 0.0
H204 H 0.30187 0.15365 0.10167 0.0
H205 H 0.21522 0.14055 0.13108 0.0
H206 H 0.24285 0.15395 0.99383 0.0
H207 H 0.25905 0.1788 0.93453 0.0
H208 H 0.19258 0.22893 0.93469 0.0
H209 H 0.17614 0.20454 0.99434 0.0
C210 C 0.11422 0.09119 0.01242 0.0
C211 C 0.09523 0.08986 0.04207 0.0
C212 C 0.13645 0.10619 0.01839 0.0
C213 C 0.14006 0.1204 0.05397 0.0
C214 C 0.12043 0.12019 0.08268 0.0
C215 C 0.09836 0.10475 0.07706 0.0
C216 C 0.16492 0.13433 0.06154 0.0
C217 C 0.17431 0.15076 0.03049 0.0
C218 C 0.18002 0.13046 0.09813 0.0
C219 C 0.17233 0.11182 0.13086 0.0
C220 C 0.16898 0.12031 0.17063 0.0
C221 C 0.16139 0.10281 0.20137 0.0
C222 C 0.15726 0.07673 0.19274 0.0
C223 C 0.16083 0.06806 0.15339 0.0
C224 C 0.16845 0.08547 0.12256 0.0
C225 C 0.26852 0.20836 0.07092 0.0
C226 C 0.28992 0.19257 0.08237 0.0
C227 C 0.2435 0.19792 0.06901 0.0
C228 C 0.23951 0.17135 0.07741 0.0
C229 C 0.26082 0.15578 0.09011 0.0
C230 C 0.28575 0.16631 0.09281 0.0
C231 C 0.21344 0.15945 0.07152 0.0
C232 C 0.20376 0.1435 0.10296 0.0
C233 C 0.19857 0.16288 0.03459 0.0
C234 C 0.20843 0.17762 0.99882 0.0
C235 C 0.2318 0.1704 0.9814 0.0
C236 C 0.241 0.18437 0.9477 0.0
C237 C 0.2269 0.20548 0.93093 0.0
C238 C 0.20351 0.21261 0.94777 0.0
C239 C 0.19424 0.19871 0.98151 0.0
H240 H 0.23405 0.21628 0.90483 0.0
H241 H 0.15134 0.06323 0.21656 0.0
H242 H 0.88413 0.11548 0.94159 0.0
H243 H 0.85375 0.1517 0.94257 0.0
H244 H 0.8511 0.14336 0.07357 0.0
H245 H 0.88189 0.10742 0.07309 0.0
H246 H 0.80582 0.16301 0.96853 0.0
H247 H 0.85649 0.2032 0.11272 0.0
H248 H 0.89868 0.19971 0.15045 0.0
H249 H 0.93629 0.18278 0.03959 0.0
H250 H 0.89441 0.18652 0.00116 0.0
H251 H 0.73806 0.27445 0.03181 0.0
H252 H 0.76021 0.23262 0.03029 0.0
H253 H 0.82948 0.27106 0.98973 0.0
H254 H 0.8076 0.31301 0.9917 0.0
H255 H 0.84098 0.236 0.04873 0.0
H256 H 0.79049 0.23835 0.92328 0.0
H257 H 0.75066 0.24309 0.87984 0.0
H258 H 0.71669 0.17793 0.94276 0.0
H259 H 0.75621 0.17301 0.98695 0.0
C260 C 0.87669 0.12096 0.97059 0.0
C261 C 0.8859 0.10892 0.00737 0.0
C262 C 0.85923 0.14164 0.97104 0.0
C263 C 0.85066 0.15057 0.00821 0.0
C264 C 0.8579 0.13705 0.04462 0.0
C265 C 0.87547 0.11646 0.04425 0.0
C266 C 0.83666 0.17561 0.0092 0.0
C267 C 0.81335 0.17891 0.98629 0.0
C268 C 0.84689 0.19657 0.03156 0.0
C269 C 0.87228 0.19487 0.0542 0.0
C270 C 0.87379 0.19884 0.0964 0.0
C271 C 0.89764 0.1968 0.1179 0.0
C272 C 0.92013 0.19093 0.09745 0.0
C273 C 0.91884 0.18723 0.05542 0.0
C274 C 0.89506 0.18929 0.03377 0.0
C275 C 0.75801 0.27401 0.02254 0.0
C276 C 0.77108 0.29705 0.01183 0.0
C277 C 0.7706 0.25007 0.02153 0.0
C278 C 0.79641 0.24871 0.00954 0.0
C279 C 0.80955 0.27168 0.99908 0.0
C280 C 0.79699 0.29563 0.00013 0.0
C281 C 0.8099 0.22338 0.00844 0.0
C282 C 0.83321 0.22003 0.03131 0.0
C283 C 0.79995 0.20264 0.98529 0.0
C284 C 0.7762 0.20548 0.95869 0.0
C285 C 0.77445 0.22516 0.92806 0.0
C286 C 0.75194 0.22785 0.90327 0.0
C287 C 0.73113 0.21086 0.90861 0.0
C288 C 0.73281 0.1911 0.93869 0.0
C289 C 0.75527 0.18833 0.9636 0.0
H290 H 0.71372 0.21298 0.88938 0.0
H291 H 0.93856 0.18931 0.11417 0.0
H292 H 0.88044 0.94216 0.91905 0.0
H293 H 0.84116 0.91548 0.9184 0.0
H294 H 0.87006 0.87315 0.02592 0.0
H295 H 0.90883 0.9006 0.02806 0.0
H296 H 0.84613 0.842 0.96699 0.0
H297 H 0.83055 0.92398 0.0322 0.0
H298 H 0.8274 0.97148 0.03439 0.0
H299 H 0.76978 0.97182 0.93669 0.0
H300 H 0.77282 0.92421 0.93364 0.0
H301 H 0.73296 0.78161 0.03558 0.0
H302 H 0.77296 0.80676 0.03013 0.0
H303 H 0.73359 0.86095 0.94609 0.0
H304 H 0.69315 0.83687 0.95413 0.0
H305 H 0.76301 0.88691 0.98944 0.0
H306 H 0.77755 0.81027 0.91648 0.0
H307 H 0.77971 0.76337 0.90441 0.0
H308 H 0.83783 0.754 0.00071 0.0
H309 H 0.83577 0.80081 0.01372 0.0
C310 C 0.87848 0.92705 0.94242 0.0
C311 C 0.89744 0.92365 0.97397 0.0
C312 C 0.85601 0.91195 0.94209 0.0
C313 C 0.85244 0.89295 0.97286 0.0
C314 C 0.87219 0.88827 0.00267 0.0
C315 C 0.89433 0.90383 0.00371 0.0
C316 C 0.82764 0.87874 0.97531 0.0
C317 C 0.82793 0.85171 0.97222 0.0
C318 C 0.80384 0.8917 0.98048 0.0
C319 C 0.80205 0.92041 0.98259 0.0
C320 C 0.81728 0.9341 0.01109 0.0
C321 C 0.81552 0.9611 0.01247 0.0
C322 C 0.79842 0.97468 0.98565 0.0
C323 C 0.78303 0.96128 0.95744 0.0
C324 C 0.78477 0.93427 0.95591 0.0
C325 C 0.7329 0.79901 0.01622 0.0
C326 C 0.7101 0.80733 0.99518 0.0
C327 C 0.75581 0.81325 0.01275 0.0
C328 C 0.7566 0.83543 0.98678 0.0
C329 C 0.73361 0.84392 0.96626 0.0
C330 C 0.7105 0.83015 0.9708 0.0
C331 C 0.78127 0.8499 0.9812 0.0
C332 C 0.78106 0.87704 0.98385 0.0
C333 C 0.80499 0.83717 0.97404 0.0
C334 C 0.80631 0.809 0.96633 0.0
C335 C 0.79066 0.79817 0.93527 0.0
C336 C 0.79188 0.77161 0.92824 0.0
C337 C 0.80885 0.7557 0.95185 0.0
C338 C 0.82467 0.76634 0.98248 0.0
C339 C 0.8235 0.79289 0.98968 0.0
H340 H 0.80977 0.73514 0.94635 0.0
H341 H 0.79708 0.99559 0.98676 0.0
H342 H 0.13706 0.92274 0.97184 0.0
H343 H 0.17187 0.89062 0.9737 0.0
H344 H 0.13597 0.84959 0.07358 0.0
H345 H 0.10166 0.88254 0.07304 0.0
H346 H 0.18684 0.84349 0.08036 0.0
H347 H 0.12235 0.83284 0.97523 0.0
H348 H 0.09344 0.84664 0.91714 0.0
H349 H 0.15953 0.86389 0.84502 0.0
H350 H 0.18893 0.85045 0.90297 0.0
H351 H 0.22925 0.71604 0.0247 0.0
H352 H 0.2019 0.75373 0.03681 0.0
H353 H 0.25187 0.80224 0.96443 0.0
H354 H 0.2797 0.76482 0.953 0.0
H355 H 0.1944 0.80414 0.94502 0.0
H356 H 0.25834 0.8102 0.05645 0.0
H357 H 0.28322 0.79305 0.11691 0.0
H358 H 0.21239 0.77929 0.17917 0.0
H359 H 0.18705 0.79599 0.11878 0.0
C360 C 0.13704 0.90728 0.99497 0.0
C361 C 0.11657 0.90485 0.02195 0.0
C362 C 0.15683 0.88886 0.99587 0.0
C363 C 0.15603 0.86723 0.02285 0.0
C364 C 0.13684 0.86599 0.05224 0.0
C365 C 0.11728 0.88482 0.05196 0.0
C366 C 0.17346 0.8448 0.01737 0.0
C367 C 0.18835 0.83478 0.05085 0.0
C368 C 0.17532 0.83327 0.97887 0.0
C369 C 0.15784 0.84086 0.94356 0.0
C370 C 0.13074 0.83968 0.94705 0.0
C371 C 0.11427 0.84743 0.91418 0.0
C372 C 0.12466 0.85616 0.8775 0.0
C373 C 0.15155 0.85711 0.87352 0.0
C374 C 0.16813 0.8494 0.90635 0.0
C375 C 0.23445 0.73475 0.01148 0.0
C376 C 0.2566 0.73752 0.9879 0.0
C377 C 0.21888 0.75623 0.01854 0.0
C378 C 0.22499 0.78068 0.00161 0.0
C379 C 0.24694 0.78348 0.97781 0.0
C380 C 0.26281 0.76213 0.9714 0.0
C381 C 0.20804 0.80322 0.00779 0.0
C382 C 0.19305 0.81306 0.9744 0.0
C383 C 0.20556 0.81401 0.04657 0.0
C384 C 0.22079 0.80408 0.08293 0.0
C385 C 0.24805 0.80328 0.08287 0.0
C386 C 0.26224 0.79369 0.11717 0.0
C387 C 0.24939 0.78501 0.15182 0.0
C388 C 0.22232 0.78598 0.15229 0.0
C389 C 0.20804 0.79552 0.11804 0.0
H390 H 0.26042 0.7776 0.17835 0.0
H391 H 0.11184 0.86211 0.85218 0.0
H392 H 0.58363 0.62894 0.46131 0.0
H393 H 0.61993 0.65949 0.46427 0.0
H394 H 0.65521 0.61427 0.56444 0.0
H395 H 0.61796 0.58502 0.56352 0.0
H396 H 0.66654 0.6602 0.57681 0.0
H397 H 0.67137 0.60927 0.45719 0.0
H398 H 0.65525 0.59104 0.39243 0.0
H399 H 0.64751 0.66778 0.33887 0.0
H400 H 0.66335 0.6865 0.40349 0.0
H401 H 0.79938 0.69011 0.54147 0.0
H402 H 0.75731 0.66824 0.54464 0.0
H403 H 0.72134 0.7315 0.47475 0.0
H404 H 0.76332 0.75373 0.47187 0.0
H405 H 0.70948 0.67978 0.44637 0.0
H406 H 0.70893 0.72858 0.57078 0.0
H407 H 0.72826 0.74274 0.63627 0.0
H408 H 0.73307 0.66351 0.68012 0.0
H409 H 0.71362 0.64891 0.615 0.0
C410 C 0.59894 0.6259 0.48442 0.0
C411 C 0.59812 0.6046 0.51204 0.0
C412 C 0.61983 0.64318 0.48585 0.0
C413 C 0.64088 0.63877 0.51366 0.0
C414 C 0.63939 0.61812 0.5425 0.0
C415 C 0.61808 0.60137 0.54198 0.0
C416 C 0.66488 0.65486 0.51176 0.0
C417 C 0.67594 0.66422 0.54822 0.0
C418 C 0.67727 0.66048 0.47451 0.0
C419 C 0.66826 0.64929 0.43533 0.0
C420 C 0.66613 0.62226 0.43165 0.0
C421 C 0.65706 0.61184 0.39498 0.0
C422 C 0.65027 0.62825 0.36162 0.0
C423 C 0.65274 0.65511 0.36477 0.0
C424 C 0.66178 0.66563 0.4014 0.0
C425 C 0.78251 0.69944 0.52691 0.0
C426 C 0.78467 0.72366 0.50644 0.0
C427 C 0.75849 0.68695 0.52885 0.0
C428 C 0.73625 0.69833 0.51006 0.0
C429 C 0.73831 0.72245 0.48948 0.0
C430 C 0.76227 0.73513 0.48799 0.0
C431 C 0.71096 0.68471 0.51128 0.0
C432 C 0.69978 0.67583 0.47472 0.0
C433 C 0.6989 0.67885 0.54847 0.0
C434 C 0.70997 0.68767 0.58797 0.0
C435 C 0.71415 0.71419 0.59439 0.0
C436 C 0.72505 0.7223 0.63149 0.0
C437 C 0.73185 0.70404 0.66237 0.0
C438 C 0.72768 0.67764 0.65626 0.0
C439 C 0.71662 0.66946 0.61934 0.0
H440 H 0.74035 0.71034 0.69103 0.0
H441 H 0.64312 0.62013 0.33336 0.0
H442 H 0.37962 0.5953 0.55695 0.0
H443 H 0.3444 0.62559 0.57049 0.0
H444 H 0.37275 0.67918 0.4789 0.0
H445 H 0.40749 0.64904 0.46461 0.0
H446 H 0.36292 0.70026 0.55949 0.0
H447 H 0.32325 0.64899 0.45166 0.0
H448 H 0.30926 0.60776 0.42169 0.0
H449 H 0.26163 0.59148 0.52418 0.0
H450 H 0.27556 0.63253 0.55494 0.0
H451 H 0.26749 0.795 0.5179 0.0
H452 H 0.30055 0.76127 0.51697 0.0
H453 H 0.24936 0.70769 0.57819 0.0
H454 H 0.21561 0.74111 0.57701 0.0
H455 H 0.27047 0.68377 0.52196 0.0
H456 H 0.30521 0.73679 0.62697 0.0
H457 H 0.31963 0.77695 0.65978 0.0
H458 H 0.37707 0.78873 0.56939 0.0
H459 H 0.36279 0.74882 0.53569 0.0
C460 C 0.37817 0.61344 0.5395 0.0
C461 C 0.39617 0.61974 0.50953 0.0
C462 C 0.3581 0.63066 0.54726 0.0
C463 C 0.35612 0.65452 0.52564 0.0
C464 C 0.37408 0.66085 0.49589 0.0
C465 C 0.3938 0.64354 0.48765 0.0
C466 C 0.33552 0.67323 0.53405 0.0
C467 C 0.34268 0.69682 0.55124 0.0
C468 C 0.30916 0.66819 0.52439 0.0
C469 C 0.30068 0.64364 0.5058 0.0
C470 C 0.30998 0.63649 0.46796 0.0
C471 C 0.30203 0.61319 0.4508 0.0
C472 C 0.28466 0.59695 0.4711 0.0
C473 C 0.27513 0.60405 0.50853 0.0
C474 C 0.28302 0.62734 0.52582 0.0
C475 C 0.26337 0.77608 0.53143 0.0
C476 C 0.23904 0.77066 0.54762 0.0
C477 C 0.28236 0.75683 0.53117 0.0
C478 C 0.27772 0.73201 0.54831 0.0
C479 C 0.25346 0.72667 0.56488 0.0
C480 C 0.23421 0.74577 0.56427 0.0
C481 C 0.29775 0.71136 0.54699 0.0
C482 C 0.29056 0.68728 0.53106 0.0
C483 C 0.32411 0.71585 0.55843 0.0
C484 C 0.33278 0.73989 0.57863 0.0
C485 C 0.3208 0.74803 0.61392 0.0
C486 C 0.32897 0.77074 0.6327 0.0
C487 C 0.34922 0.78541 0.61664 0.0
C488 C 0.36138 0.77736 0.58179 0.0
C489 C 0.35328 0.75467 0.56287 0.0
H490 H 0.35551 0.80298 0.63123 0.0
H491 H 0.27853 0.57892 0.45777 0.0
H492 H 0.36995 0.42201 0.47399 0.0
H493 H 0.33601 0.3919 0.49437 0.0
H494 H 0.38749 0.3589 0.58896 0.0
H495 H 0.42085 0.39053 0.57049 0.0
H496 H 0.32825 0.34425 0.49674 0.0
H497 H 0.35346 0.33509 0.66774 0.0
H498 H 0.37816 0.35849 0.72092 0.0
H499 H 0.36227 0.43088 0.65688 0.0
H500 H 0.33717 0.40796 0.60359 0.0
H501 H 0.23 0.26416 0.57165 0.0
H502 H 0.27441 0.28009 0.56526 0.0
H503 H 0.25278 0.35216 0.61833 0.0
H504 H 0.20871 0.33596 0.62627 0.0
H505 H 0.30115 0.34104 0.64046 0.0
H506 H 0.25039 0.34417 0.51337 0.0
H507 H 0.22377 0.32568 0.45746 0.0
H508 H 0.28622 0.2746 0.43051 0.0
H509 H 0.31311 0.29261 0.48661 0.0
C510 C 0.37405 0.40821 0.49896 0.0
C511 C 0.39784 0.40872 0.52096 0.0
C512 C 0.35467 0.39093 0.51057 0.0
C513 C 0.35892 0.37338 0.5438 0.0
C514 C 0.38339 0.37274 0.56409 0.0
C515 C 0.4025 0.39066 0.55334 0.0
C516 C 0.33718 0.35678 0.55773 0.0
C517 C 0.32251 0.34343 0.52827 0.0
C518 C 0.32955 0.35561 0.59889 0.0
C519 C 0.34367 0.36977 0.63152 0.0
C520 C 0.35511 0.35601 0.66516 0.0
C521 C 0.36921 0.36918 0.69527 0.0
C522 C 0.37187 0.39612 0.6922 0.0
C523 C 0.36025 0.41 0.65916 0.0
C524 C 0.34606 0.39694 0.62902 0.0
C525 C 0.23486 0.2832 0.58267 0.0
C526 C 0.2158 0.29898 0.59888 0.0
C527 C 0.26023 0.29229 0.57897 0.0
C528 C 0.26678 0.31754 0.59048 0.0
C529 C 0.24819 0.33264 0.60916 0.0
C530 C 0.22294 0.32339 0.61349 0.0
C531 C 0.29186 0.32939 0.57913 0.0
C532 C 0.30721 0.3416 0.6091 0.0
C533 C 0.29971 0.33031 0.53818 0.0
C534 C 0.28361 0.31949 0.50445 0.0
C535 C 0.25836 0.32887 0.49568 0.0
C536 C 0.24324 0.3185 0.46395 0.0
C537 C 0.25327 0.29892 0.44054 0.0
C538 C 0.27846 0.28972 0.44873 0.0
C539 C 0.29365 0.3 0.48048 0.0
H540 H 0.24154 0.29092 0.41597 0.0
H541 H 0.38287 0.40625 0.71546 0.0
H542 H 0.60165 0.38967 0.56286 0.0
H543 H 0.63132 0.35324 0.56305 0.0
H544 H 0.6545 0.37595 0.44183 0.0
H545 H 0.62331 0.41169 0.4405 0.0
H546 H 0.6444 0.32846 0.44167 0.0
H547 H 0.69697 0.37736 0.53203 0.0
H548 H 0.70744 0.40509 0.59024 0.0
H549 H 0.68378 0.34448 0.67345 0.0
H550 H 0.67258 0.31659 0.6159 0.0
H551 H 0.72161 0.21274 0.45872 0.0
H552 H 0.7128 0.25947 0.45516 0.0
H553 H 0.66361 0.25109 0.5584 0.0
H554 H 0.67223 0.20449 0.5622 0.0
H555 H 0.6975 0.29514 0.56102 0.0
H556 H 0.63266 0.2552 0.4669 0.0
H557 H 0.62273 0.22658 0.40942 0.0
H558 H 0.67435 0.27066 0.33428 0.0
H559 H 0.68413 0.29988 0.39112 0.0
C560 C 0.61344 0.38733 0.53653 0.0
C561 C 0.60999 0.40353 0.50154 0.0
C562 C 0.63067 0.3665 0.5368 0.0
C563 C 0.64555 0.3619 0.50266 0.0
C564 C 0.64328 0.37904 0.46857 0.0
C565 C 0.62554 0.39956 0.46791 0.0
C566 C 0.6609 0.33755 0.50104 0.0
C567 C 0.65663 0.32166 0.46738 0.0
C568 C 0.67677 0.32829 0.53456 0.0
C569 C 0.68385 0.34488 0.5695 0.0
C570 C 0.69384 0.36998 0.56274 0.0
C571 C 0.69987 0.38576 0.59567 0.0
C572 C 0.69618 0.37659 0.63556 0.0
C573 C 0.68654 0.3516 0.6426 0.0
C574 C 0.68039 0.33577 0.60982 0.0
C575 C 0.70903 0.22088 0.4808 0.0
C576 C 0.69744 0.20491 0.51056 0.0
C577 C 0.70407 0.24755 0.47874 0.0
C578 C 0.68756 0.25864 0.50651 0.0
C579 C 0.67653 0.24287 0.53686 0.0
C580 C 0.68132 0.21623 0.53877 0.0
C581 C 0.68017 0.28633 0.50252 0.0
C582 C 0.68593 0.30263 0.53502 0.0
C583 C 0.666 0.29617 0.46787 0.0
C584 C 0.65914 0.27959 0.43313 0.0
C585 C 0.64173 0.25885 0.43799 0.0
C586 C 0.6361 0.24258 0.40554 0.0
C587 C 0.64786 0.24686 0.36818 0.0
C588 C 0.66515 0.2675 0.36316 0.0
C589 C 0.67062 0.28401 0.39537 0.0
H590 H 0.64359 0.23418 0.34315 0.0
H591 H 0.70083 0.38882 0.66103 0.0
H592 H 0.03846 0.05375 0.15144 0.0
H593 H 0.05747 0.0641 0.2185 0.0
H594 H 0.98858 0.10709 0.24462 0.0
H595 H 0.96946 0.0966 0.17823 0.0
H596 H 0.03253 0.13398 0.26154 0.0
H597 H 0.9977 0.04879 0.29345 0.0
H598 H 0.99163 0.00193 0.28311 0.0
H599 H 0.07394 0.98997 0.29536 0.0
H600 H 0.08051 0.03673 0.30646 0.0
H601 H 0.04462 0.15362 0.471 0.0
H602 H 0.02833 0.13483 0.40766 0.0
H603 H 0.10325 0.10053 0.39037 0.0
H604 H 0.11987 0.1194 0.45374 0.0
H605 H 0.0594 0.06797 0.36802 0.0
H606 H 0.09227 0.15434 0.34523 0.0
H607 H 0.09613 0.20117 0.35706 0.0
H608 H 0.0153 0.2116 0.32468 0.0
H609 H 0.01096 0.16475 0.31309 0.0
C610 C 0.02729 0.0651 0.17164 0.0
C611 C 0.00233 0.07399 0.15973 0.0
C612 C 0.03814 0.07101 0.20993 0.0
C613 C 0.02424 0.08608 0.23663 0.0
C614 C 0.99953 0.0953 0.22451 0.0
C615 C 0.98866 0.08925 0.18654 0.0
C616 C 0.03558 0.09317 0.27677 0.0
C617 C 0.0382 0.11957 0.28496 0.0
C618 C 0.04345 0.07431 0.30685 0.0
C619 C 0.03961 0.04623 0.30049 0.0
C620 C 0.01451 0.03617 0.29378 0.0
C621 C 0.01097 0.00966 0.2878 0.0
C622 C 0.03239 0.99305 0.28819 0.0
C623 C 0.05739 0.00288 0.29495 0.0
C624 C 0.06102 0.02936 0.30132 0.0
C625 C 0.05758 0.14178 0.45411 0.0
C626 C 0.08367 0.13833 0.46707 0.0
C627 C 0.04821 0.13104 0.41795 0.0
C628 C 0.06471 0.1166 0.3942 0.0
C629 C 0.09027 0.11167 0.40832 0.0
C630 C 0.09973 0.12256 0.44442 0.0
C631 C 0.0559 0.10883 0.35297 0.0
C632 C 0.05386 0.08237 0.34452 0.0
C633 C 0.04838 0.12767 0.32256 0.0
C634 C 0.05114 0.15593 0.32907 0.0
C635 C 0.07524 0.16656 0.34109 0.0
C636 C 0.07756 0.19313 0.34762 0.0
C637 C 0.05595 0.20934 0.34184 0.0
C638 C 0.03201 0.19902 0.32932 0.0
C639 C 0.02961 0.17246 0.32279 0.0
H640 H 0.05778 0.22991 0.3469 0.0
H641 H 0.02958 0.97255 0.28346 0.0
H642 H 0.96724 0.99484 0.16127 0.0
H643 H 0.96022 0.01104 0.229 0.0
H644 H 0.90673 0.06819 0.17687 0.0
H645 H 0.91312 0.05129 0.10866 0.0
H646 H 0.94346 0.08712 0.23793 0.0
H647 H 0.88317 0.01643 0.21642 0.0
H648 H 0.87152 0.97148 0.19992 0.0
H649 H 0.91851 0.94289 0.30207 0.0
H650 H 0.9312 0.98762 0.31843 0.0
H651 H 0.86348 0.12353 0.39294 0.0
H652 H 0.88663 0.11013 0.33384 0.0
H653 H 0.92095 0.04634 0.40485 0.0
H654 H 0.8972 0.05934 0.46422 0.0
H655 H 0.90051 0.02903 0.33812 0.0
H656 H 0.96002 0.09622 0.36496 0.0
H657 H 0.9759 0.13968 0.38282 0.0
H658 H 0.93737 0.17271 0.27531 0.0
H659 H 0.92111 0.12948 0.2569 0.0
C660 C 0.95381 0.01064 0.16422 0.0
C661 C 0.94054 0.02166 0.12987 0.0
C662 C 0.95007 0.02008 0.20288 0.0
C663 C 0.93296 0.04072 0.20786 0.0
C664 C 0.92011 0.05227 0.1735 0.0
C665 C 0.9237 0.04262 0.13472 0.0
C666 C 0.9274 0.04925 0.24921 0.0
C667 C 0.93415 0.0745 0.25994 0.0
C668 C 0.91598 0.03234 0.2782 0.0
C669 C 0.90835 0.0054 0.2684 0.0
C670 C 0.8913 0.00055 0.23508 0.0
C671 C 0.88454 0.9751 0.22572 0.0
C672 C 0.89439 0.95434 0.24983 0.0
C673 C 0.91107 0.95898 0.28328 0.0
C674 C 0.91807 0.98438 0.29259 0.0
C675 C 0.8763 0.10692 0.39632 0.0
C676 C 0.87826 0.09234 0.43322 0.0
C677 C 0.88975 0.09938 0.36248 0.0
C678 C 0.90571 0.0773 0.36487 0.0
C679 C 0.90874 0.06344 0.40227 0.0
C680 C 0.89518 0.07093 0.43619 0.0
C681 C 0.91653 0.06719 0.32711 0.0
C682 C 0.91063 0.04155 0.31678 0.0
C683 C 0.9295 0.0835 0.29892 0.0
C684 C 0.93907 0.10963 0.30984 0.0
C685 C 0.95472 0.11279 0.34533 0.0
C686 C 0.96383 0.13737 0.35551 0.0
C687 C 0.95743 0.15897 0.33041 0.0
C688 C 0.94218 0.15598 0.29484 0.0
C689 C 0.93307 0.13143 0.28445 0.0
H690 H 0.96447 0.178 0.33839 0.0
H691 H 0.88894 0.9347 0.24276 0.0
H692 H 0.96481 0.88739 0.07368 0.0
H693 H 0.93766 0.87339 0.13066 0.0
H694 H 0.95405 0.94559 0.1897 0.0
H695 H 0.98215 0.95851 0.13396 0.0
H696 H 0.96534 0.90778 0.23852 0.0
H697 H 0.89128 0.92902 0.15306 0.0
H698 H 0.85899 0.92916 0.09582 0.0
H699 H 0.84837 0.847 0.11294 0.0
H700 H 0.88087 0.84628 0.16991 0.0
H701 H 0.88825 0.88888 0.40963 0.0
H702 H 0.90701 0.90436 0.34622 0.0
H703 H 0.88888 0.83128 0.29131 0.0
H704 H 0.86953 0.81578 0.35465 0.0
H705 H 0.87721 0.86967 0.23969 0.0
H706 H 0.9506 0.84709 0.32458 0.0
H707 H 0.98106 0.84619 0.38415 0.0
H708 H 0.9951 0.92779 0.36682 0.0
H709 H 0.96444 0.92932 0.30755 0.0
C710 C 0.96202 0.90033 0.09854 0.0
C711 C 0.97481 0.92431 0.09947 0.0
C712 C 0.9464 0.89249 0.13086 0.0
C713 C 0.94354 0.90856 0.16435 0.0
C714 C 0.95573 0.93293 0.16416 0.0
C715 C 0.97148 0.94049 0.13228 0.0
C716 C 0.93125 0.89875 0.2021 0.0
C717 C 0.94601 0.89957 0.2388 0.0
C718 C 0.90622 0.88753 0.2023 0.0
C719 C 0.88866 0.88757 0.16556 0.0
C720 C 0.88242 0.91091 0.14415 0.0
C721 C 0.86393 0.91111 0.11193 0.0
C722 C 0.85147 0.88812 0.10107 0.0
C723 C 0.85791 0.8648 0.12164 0.0
C724 C 0.87638 0.86448 0.15382 0.0
C725 C 0.8882 0.87607 0.38408 0.0
C726 C 0.87746 0.85104 0.38724 0.0
C727 C 0.89909 0.88492 0.34786 0.0
C728 C 0.89975 0.86885 0.31415 0.0
C729 C 0.88867 0.844 0.31697 0.0
C730 C 0.87763 0.83515 0.3532 0.0
C731 C 0.91162 0.87819 0.27581 0.0
C732 C 0.89677 0.87741 0.23919 0.0
C733 C 0.93685 0.88902 0.27544 0.0
C734 C 0.9547 0.88841 0.31204 0.0
C735 C 0.95981 0.86495 0.33385 0.0
C736 C 0.97724 0.8643 0.36749 0.0
C737 C 0.98988 0.88695 0.37943 0.0
C738 C 0.98516 0.91029 0.35772 0.0
C739 C 0.96771 0.91106 0.32413 0.0
H740 H 0.00343 0.88638 0.40539 0.0
H741 H 0.83682 0.88824 0.07666 0.0
H742 H 0.05848 0.93304 0.114 0.0
H743 H 0.0829 0.90563 0.16397 0.0
H744 H 0.10086 0.97281 0.23467 0.0
H745 H 0.07637 0.0002 0.18536 0.0
H746 H 0.14479 0.94057 0.21553 0.0
H747 H 0.05663 0.93397 0.26645 0.0
H748 H 0.01039 0.92163 0.26341 0.0
H749 H 0.03134 0.84273 0.24204 0.0
H750 H 0.07767 0.85474 0.24429 0.0
H751 H 0.18757 0.90872 0.41458 0.0
H752 H 0.16915 0.92357 0.34879 0.0
H753 H 0.14209 0.84598 0.32542 0.0
H754 H 0.15935 0.8313 0.39265 0.0
H755 H 0.10507 0.87612 0.30965 0.0
H756 H 0.19152 0.87828 0.2678 0.0
H757 H 0.23852 0.88717 0.27018 0.0
H758 H 0.22345 0.96907 0.26874 0.0
H759 H 0.17635 0.9607 0.26695 0.0
C760 C 0.06748 0.94197 0.14012 0.0
C761 C 0.06556 0.96885 0.14528 0.0
C762 C 0.08139 0.92626 0.16874 0.0
C763 C 0.09375 0.93729 0.20279 0.0
C764 C 0.09154 0.96399 0.20842 0.0
C765 C 0.07742 0.97958 0.1802 0.0
C766 C 0.10954 0.92139 0.2325 0.0
C767 C 0.13623 0.92647 0.23629 0.0
C768 C 0.09846 0.90214 0.25799 0.0
C769 C 0.07056 0.89533 0.25496 0.0
C770 C 0.05133 0.91409 0.26047 0.0
C771 C 0.02511 0.90712 0.25907 0.0
C772 C 0.01794 0.88138 0.25249 0.0
C773 C 0.03693 0.86264 0.24707 0.0
C774 C 0.06315 0.86953 0.24837 0.0
C775 C 0.17814 0.89468 0.39513 0.0
C776 C 0.17478 0.86887 0.40886 0.0
C777 C 0.16776 0.90317 0.35723 0.0
C778 C 0.15446 0.88587 0.33166 0.0
C779 C 0.15222 0.85974 0.34454 0.0
C780 C 0.16213 0.85135 0.38292 0.0
C781 C 0.14047 0.89582 0.29397 0.0
C782 C 0.11405 0.88967 0.28849 0.0
C783 C 0.15198 0.91361 0.26624 0.0
C784 C 0.18034 0.91883 0.26746 0.0
C785 C 0.1982 0.89819 0.26829 0.0
C786 C 0.22488 0.90314 0.26948 0.0
C787 C 0.23396 0.92867 0.26967 0.0
C788 C 0.21639 0.9493 0.26859 0.0
C789 C 0.18969 0.94447 0.26741 0.0
H790 H 0.25462 0.93246 0.27058 0.0
H791 H 0.99773 0.87582 0.2518 0.0
H792 H 0.11866 0.97467 0.94688 0.0
H793 H 0.13537 0.9465 0.89526 0.0
H794 H 0.06486 0.95762 0.82215 0.0
H795 H 0.04794 0.98584 0.87359 0.0
H796 H 0.08281 0.90614 0.82445 0.0
H797 H 0.11413 0.99236 0.79639 0.0
H798 H 0.13528 0.03364 0.81351 0.0
H799 H 0.20591 0.99305 0.84717 0.0
H800 H 0.18503 0.95141 0.83039 0.0
H801 H 0.12039 0.88418 0.62298 0.0
H802 H 0.10432 0.89838 0.68756 0.0
H803 H 0.18119 0.89038 0.74286 0.0
H804 H 0.19762 0.87671 0.67781 0.0
H805 H 0.16201 0.93647 0.7557 0.0
H806 H 0.1301 0.84986 0.76978 0.0
H807 H 0.10685 0.81015 0.75003 0.0
H808 H 0.03506 0.8524 0.73993 0.0
H809 H 0.05789 0.89247 0.75911 0.0
C810 C 0.10667 0.97108 0.91988 0.0
C811 C 0.08213 0.98272 0.91403 0.0
C812 C 0.11622 0.95493 0.89053 0.0
C813 C 0.10139 0.95019 0.85488 0.0
C814 C 0.07655 0.96108 0.84953 0.0
C815 C 0.06704 0.97737 0.87875 0.0
C816 C 0.11252 0.93538 0.82186 0.0
C817 C 0.10003 0.91273 0.80911 0.0
C818 C 0.13524 0.94386 0.80265 0.0
C819 C 0.14795 0.96878 0.81261 0.0
C820 C 0.13411 0.99222 0.80775 0.0
C821 C 0.14606 0.01569 0.81733 0.0
C822 C 0.1719 0.01598 0.83164 0.0
C823 C 0.18588 0.99279 0.83618 0.0
C824 C 0.17401 0.96925 0.82656 0.0
C825 C 0.13385 0.88505 0.649 0.0
C826 C 0.16034 0.87952 0.64518 0.0
C827 C 0.12456 0.89299 0.68606 0.0
C828 C 0.1415 0.89522 0.72019 0.0
C829 C 0.16778 0.88874 0.71691 0.0
C830 C 0.17713 0.88093 0.67973 0.0
C831 C 0.1323 0.90702 0.75772 0.0
C832 C 0.14508 0.92936 0.77131 0.0
C833 C 0.10963 0.89835 0.77723 0.0
C834 C 0.09581 0.87428 0.76544 0.0
C835 C 0.10941 0.85077 0.76291 0.0
C836 C 0.09628 0.82817 0.75196 0.0
C837 C 0.06951 0.82877 0.74362 0.0
C838 C 0.0558 0.85197 0.74637 0.0
C839 C 0.06883 0.87463 0.75734 0.0
H840 H 0.05939 0.81125 0.73513 0.0
H841 H 0.18111 0.03418 0.83909 0.0
H842 H 0.03098 0.04044 0.8618 0.0
H843 H 0.05617 0.05867 0.80567 0.0
H844 H 0.00406 0.12408 0.79463 0.0
H845 H 0.97832 0.1057 0.84902 0.0
H846 H 0.01673 0.1072 0.72 0.0
H847 H 0.06047 0.12562 0.85037 0.0
H848 H 0.08381 0.11477 0.91562 0.0
H849 H 0.14255 0.07534 0.85166 0.0
H850 H 0.11922 0.08534 0.78608 0.0
H851 H 0.0786 0.22185 0.66037 0.0
H852 H 0.0581 0.18597 0.69761 0.0
H853 H 0.12041 0.13502 0.66739 0.0
H854 H 0.14104 0.17099 0.6297 0.0
H855 H 0.10717 0.13458 0.7528 0.0
H856 H 0.06701 0.11947 0.6228 0.0
H857 H 0.0453 0.13132 0.55664 0.0
H858 H 0.98228 0.16525 0.61864 0.0
H859 H 0.00382 0.15386 0.68508 0.0
C860 C 0.02463 0.05847 0.84685 0.0
C861 C 0.00275 0.07172 0.86007 0.0
C862 C 0.03908 0.06888 0.81489 0.0
C863 C 0.03195 0.09274 0.79598 0.0
C864 C 0.00963 0.10544 0.80827 0.0
C865 C 0.99507 0.09499 0.83973 0.0
C866 C 0.04822 0.10566 0.76505 0.0
C867 C 0.03653 0.1131 0.72716 0.0
C868 C 0.07438 0.1126 0.77377 0.0
C869 C 0.08788 0.10588 0.81337 0.0
C870 C 0.07814 0.11428 0.85026 0.0
C871 C 0.0914 0.10832 0.88729 0.0
C872 C 0.11458 0.09427 0.88774 0.0
C873 C 0.12451 0.08608 0.85122 0.0
C874 C 0.11126 0.09184 0.81415 0.0
C875 C 0.08788 0.20298 0.66157 0.0
C876 C 0.11121 0.19905 0.64187 0.0
C877 C 0.0761 0.1825 0.68256 0.0
C878 C 0.08762 0.15784 0.68472 0.0
C879 C 0.11114 0.15388 0.66562 0.0
C880 C 0.12277 0.17434 0.64399 0.0
C881 C 0.0753 0.1368 0.70871 0.0
C882 C 0.08766 0.12795 0.74523 0.0
C883 C 0.04986 0.12844 0.69875 0.0
C884 C 0.03692 0.13565 0.65892 0.0
C885 C 0.04857 0.12955 0.62229 0.0
C886 C 0.03632 0.13621 0.58474 0.0
C887 C 0.01244 0.14905 0.58342 0.0
C888 C 0.00075 0.15524 0.61968 0.0
C889 C 0.01291 0.14858 0.65731 0.0
H890 H 0.003 0.15421 0.55432 0.0
H891 H 0.12498 0.08988 0.9163 0.0
H892 H 0.94208 0.02942 0.81848 0.0
H893 H 0.91796 0.05123 0.76186 0.0
H894 H 0.86578 0.08381 0.84664 0.0
H895 H 0.88966 0.06199 0.9034 0.0
H896 H 0.84046 0.05657 0.78844 0.0
H897 H 0.905 0.12233 0.79373 0.0
H898 H 0.94887 0.14132 0.79494 0.0
H899 H 0.96193 0.11181 0.67646 0.0
H900 H 0.91827 0.09214 0.67481 0.0
H901 H 0.76317 0.12687 0.64317 0.0
H902 H 0.79404 0.11749 0.69991 0.0
H903 H 0.84569 0.08162 0.6177 0.0
H904 H 0.81464 0.09053 0.56085 0.0
H905 H 0.87176 0.11271 0.67487 0.0
H906 H 0.80853 0.04415 0.67266 0.0
H907 H 0.76442 0.0256 0.67132 0.0
H908 H 0.74933 0.06078 0.78504 0.0
H909 H 0.79325 0.07986 0.78676 0.0
C910 C 0.92575 0.04161 0.82514 0.0
C911 C 0.91746 0.04358 0.86531 0.0
C912 C 0.91209 0.05418 0.79277 0.0
C913 C 0.89 0.069 0.80008 0.0
C914 C 0.8827 0.07233 0.84039 0.0
C915 C 0.89639 0.05985 0.87277 0.0
C916 C 0.87284 0.07837 0.76563 0.0
C917 C 0.84719 0.06927 0.76402 0.0
C918 C 0.88192 0.09422 0.73317 0.0
C919 C 0.9084 0.10555 0.73431 0.0
C920 C 0.91731 0.1196 0.76812 0.0
C921 C 0.94211 0.13055 0.76884 0.0
C922 C 0.95811 0.12779 0.73578 0.0
C923 C 0.94946 0.11393 0.70201 0.0
C924 C 0.92468 0.10288 0.70117 0.0
C925 C 0.78119 0.11713 0.63713 0.0
C926 C 0.78666 0.10976 0.59746 0.0
C927 C 0.7988 0.11185 0.66952 0.0
C928 C 0.82208 0.09881 0.66296 0.0
C929 C 0.82793 0.09194 0.62325 0.0
C930 C 0.81026 0.09724 0.59074 0.0
C931 C 0.83947 0.09099 0.698 0.0
C932 C 0.8651 0.1002 0.69954 0.0
C933 C 0.83047 0.07516 0.73052 0.0
C934 C 0.80407 0.06366 0.72961 0.0
C935 C 0.79573 0.04811 0.6972 0.0
C936 C 0.77078 0.03747 0.69641 0.0
C937 C 0.75406 0.04207 0.72801 0.0
C938 C 0.76228 0.05727 0.76054 0.0
C939 C 0.78721 0.06799 0.76146 0.0
H940 H 0.73475 0.0338 0.72735 0.0
H941 H 0.97718 0.13648 0.73631 0.0
H942 H 0.96186 0.93487 0.86378 0.0
H943 H 0.93732 0.90913 0.81458 0.0
H944 H 0.00375 0.8594 0.80259 0.0
H945 H 0.02867 0.88546 0.85106 0.0
H946 H 0.98292 0.87051 0.73078 0.0
H947 H 0.95116 0.83974 0.85673 0.0
H948 H 0.93264 0.84121 0.92486 0.0
H949 H 0.86274 0.87523 0.87231 0.0
H950 H 0.88105 0.87454 0.80387 0.0
H951 H 0.91111 0.77757 0.61845 0.0
H952 H 0.93473 0.79569 0.67695 0.0
H953 H 0.87842 0.8573 0.68033 0.0
H954 H 0.85476 0.83949 0.62161 0.0
H955 H 0.89511 0.83638 0.759 0.0
H956 H 0.93083 0.86855 0.63218 0.0
H957 H 0.95062 0.86399 0.56544 0.0
H958 H 0.01513 0.82302 0.62325 0.0
H959 H 0.99548 0.82695 0.69029 0.0
C960 C 0.97129 0.91849 0.85063 0.0
C961 C 0.99718 0.91214 0.86147 0.0
C962 C 0.95715 0.90366 0.82274 0.0
C963 C 0.96853 0.88204 0.80542 0.0
C964 C 0.99452 0.8759 0.81572 0.0
C965 C 0.00872 0.89079 0.8435 0.0
C966 C 0.95352 0.86637 0.77563 0.0
C967 C 0.96392 0.86267 0.73729 0.0
C968 C 0.92859 0.85633 0.78394 0.0
C969 C 0.91761 0.85731 0.82514 0.0
C970 C 0.93196 0.84784 0.85971 0.0
C971 C 0.92149 0.8485 0.89839 0.0
C972 C 0.89657 0.85836 0.9029 0.0
C973 C 0.88208 0.86767 0.86876 0.0
C974 C 0.8925 0.86715 0.83 0.0
C975 C 0.90346 0.7947 0.63207 0.0
C976 C 0.88117 0.80723 0.61516 0.0
C977 C 0.91704 0.80506 0.6654 0.0
C978 C 0.90845 0.82797 0.68257 0.0
C979 C 0.88537 0.83963 0.66739 0.0
C980 C 0.87192 0.82946 0.63378 0.0
C981 C 0.92446 0.84089 0.7143 0.0
C982 C 0.91422 0.84408 0.75287 0.0
C983 C 0.94972 0.8501 0.70651 0.0
C984 C 0.96149 0.84771 0.66617 0.0
C985 C 0.94909 0.85831 0.63061 0.0
C986 C 0.96031 0.85589 0.59273 0.0
C987 C 0.98406 0.84313 0.59008 0.0
C988 C 0.99668 0.83282 0.62533 0.0
C989 C 0.98551 0.83514 0.66327 0.0
H990 H 0.99273 0.84129 0.56073 0.0
H991 H 0.88848 0.85862 0.93282 0.0
H992 H 0.52566 0.53294 0.64186 0.0
H993 H 0.55521 0.54212 0.70006 0.0
H994 H 0.54416 0.62425 0.67632 0.0
H995 H 0.51513 0.61493 0.61761 0.0
H996 H 0.59664 0.60973 0.69042 0.0
H997 H 0.51321 0.59828 0.75696 0.0
H998 H 0.4734 0.57437 0.77404 0.0
H999 H 0.51908 0.50832 0.81486 0.0
H1000 H 0.55919 0.53212 0.79877 0.0
H1001 H 0.62589 0.67709 0.86632 0.0
H1002 H 0.60926 0.65625 0.80546 0.0
H1003 H 0.61914 0.58112 0.86568 0.0
H1004 H 0.63505 0.60211 0.92779 0.0
H1005 H 0.57348 0.58389 0.83147 0.0
H1006 H 0.65704 0.60124 0.78346 0.0
H1007 H 0.69667 0.62656 0.77072 0.0
H1008 H 0.65286 0.67996 0.69255 0.0
H1009 H 0.61284 0.65529 0.70543 0.0
C1010 C 0.53008 0.55288 0.64881 0.0
C1011 C 0.51889 0.57328 0.62508 0.0
C1012 C 0.54659 0.55811 0.68217 0.0
C1013 C 0.5519 0.58385 0.69228 0.0
C1014 C 0.54044 0.60426 0.66871 0.0
C1015 C 0.52383 0.59899 0.63547 0.0
C1016 C 0.5691 0.58968 0.72776 0.0
C1017 C 0.59162 0.60427 0.72136 0.0
C1018 C 0.56309 0.58144 0.76775 0.0
C1019 C 0.5391 0.56686 0.77644 0.0
C1020 C 0.51471 0.57861 0.7694 0.0
C1021 C 0.49212 0.56512 0.77908 0.0
C1022 C 0.4937 0.53979 0.79539 0.0
C1023 C 0.51789 0.52793 0.80222 0.0
C1024 C 0.54057 0.54146 0.79306 0.0
C1025 C 0.62489 0.6561 0.86659 0.0
C1026 C 0.63169 0.64125 0.90197 0.0
C1027 C 0.61557 0.64416 0.83151 0.0
C1028 C 0.61332 0.61705 0.83065 0.0
C1029 C 0.62081 0.60206 0.86558 0.0
C1030 C 0.6299 0.61407 0.901 0.0
C1031 C 0.60077 0.60492 0.79457 0.0
C1032 C 0.57906 0.589 0.80067 0.0
C1033 C 0.60776 0.61177 0.75424 0.0
C1034 C 0.63186 0.62649 0.74573 0.0
C1035 C 0.6558 0.61848 0.76377 0.0
C1036 C 0.67834 0.63272 0.75651 0.0
C1037 C 0.67724 0.65492 0.73101 0.0
C1038 C 0.65365 0.6628 0.71239 0.0
C1039 C 0.63103 0.64867 0.71963 0.0
H1040 H 0.69465 0.66604 0.72578 0.0
H1041 H 0.47623 0.52937 0.80296 0.0
H1042 H 0.4058 0.55189 0.58328 0.0
H1043 H 0.39619 0.58167 0.63761 0.0
H1044 H 0.46085 0.55028 0.7103 0.0
H1045 H 0.46956 0.51964 0.65683 0.0
H1046 H 0.41884 0.55348 0.75448 0.0
H1047 H 0.46275 0.60996 0.66035 0.0
H1048 H 0.47019 0.63114 0.59334 0.0
H1049 H 0.39538 0.66748 0.59451 0.0
H1050 H 0.38705 0.64588 0.66082 0.0
H1051 H 0.42233 0.64565 0.90739 0.0
H1052 H 0.43471 0.62159 0.84826 0.0
H1053 H 0.36622 0.64929 0.78134 0.0
H1054 H 0.35367 0.67368 0.84053 0.0
H1055 H 0.41003 0.64883 0.73369 0.0
H1056 H 0.36495 0.59072 0.82394 0.0
H1057 H 0.35591 0.5687 0.88972 0.0
H1058 H 0.43235 0.53548 0.89478 0.0
H1059 H 0.44196 0.55768 0.82938 0.0
C1060 C 0.41793 0.55155 0.61092 0.0
C1061 C 0.43838 0.53375 0.61619 0.0
C1062 C 0.41253 0.56855 0.64181 0.0
C1063 C 0.42793 0.56832 0.67799 0.0
C1064 C 0.44858 0.55061 0.6829 0.0
C1065 C 0.45356 0.53318 0.65245 0.0
C1066 C 0.42181 0.58569 0.71148 0.0
C1067 C 0.41738 0.57437 0.75004 0.0
C1068 C 0.41906 0.61289 0.70532 0.0
C1069 C 0.42418 0.62609 0.6655 0.0
C1070 C 0.44776 0.62226 0.64616 0.0
C1071 C 0.45212 0.63432 0.60826 0.0
C1072 C 0.43323 0.65055 0.58963 0.0
C1073 C 0.40995 0.65482 0.6089 0.0
C1074 C 0.40537 0.64263 0.64661 0.0
C1075 C 0.40997 0.64688 0.88002 0.0
C1076 C 0.38687 0.6614 0.8788 0.0
C1077 C 0.41708 0.63306 0.84627 0.0
C1078 C 0.4012 0.63339 0.81067 0.0
C1079 C 0.3787 0.64876 0.80861 0.0
C1080 C 0.37153 0.66261 0.84248 0.0
C1081 C 0.40745 0.61657 0.77658 0.0
C1082 C 0.41173 0.62796 0.738 0.0
C1083 C 0.41003 0.58939 0.78254 0.0
C1084 C 0.40427 0.57604 0.82193 0.0
C1085 C 0.37991 0.57889 0.83925 0.0
C1086 C 0.37466 0.56636 0.87645 0.0
C1087 C 0.39356 0.55075 0.89648 0.0
C1088 C 0.41773 0.5476 0.87928 0.0
C1089 C 0.42308 0.56013 0.84212 0.0
H1090 H 0.38946 0.54106 0.92527 0.0
H1091 H 0.43664 0.65986 0.56028 0.0
H1092 H 0.45082 0.44576 0.61155 0.0
H1093 H 0.42684 0.42728 0.66813 0.0
H1094 H 0.49363 0.38118 0.70609 0.0
H1095 H 0.51763 0.39943 0.64923 0.0
H1096 H 0.44724 0.35351 0.70834 0.0
H1097 H 0.48112 0.4375 0.7508 0.0
H1098 H 0.48532 0.48517 0.7462 0.0
H1099 H 0.40287 0.49323 0.75524 0.0
H1100 H 0.39811 0.4456 0.75928 0.0
H1101 H 0.44071 0.31971 0.91497 0.0
H1102 H 0.45121 0.33708 0.84769 0.0
H1103 H 0.38117 0.38298 0.84332 0.0
H1104 H 0.37073 0.36599 0.91142 0.0
H1105 H 0.42028 0.4111 0.81762 0.0
H1106 H 0.38583 0.32929 0.78545 0.0
H1107 H 0.37911 0.282 0.78992 0.0
H1108 H 0.45832 0.26945 0.75933 0.0
H1109 H 0.46566 0.31669 0.75517 0.0
C1110 C 0.46039 0.43163 0.63152 0.0
C1111 C 0.4862 0.42427 0.62561 0.0
C1112 C 0.44663 0.42109 0.66405 0.0
C1113 C 0.45854 0.40302 0.69147 0.0
C1114 C 0.48407 0.3951 0.68521 0.0
C1115 C 0.49779 0.40567 0.65274 0.0
C1116 C 0.44495 0.3929 0.72766 0.0
C1117 C 0.44148 0.36602 0.73242 0.0
C1118 C 0.43632 0.40941 0.75807 0.0
C1119 C 0.43923 0.43799 0.75486 0.0
C1120 C 0.46386 0.44943 0.75133 0.0
C1121 C 0.46634 0.47643 0.74892 0.0
C1122 C 0.44436 0.49215 0.75038 0.0
C1123 C 0.41985 0.48097 0.75406 0.0
C1124 C 0.41725 0.454 0.75639 0.0
C1125 C 0.42747 0.33347 0.89976 0.0
C1126 C 0.40485 0.34142 0.91854 0.0
C1127 C 0.43341 0.34324 0.86109 0.0
C1128 C 0.41672 0.36095 0.84007 0.0
C1129 C 0.39424 0.3692 0.85888 0.0
C1130 C 0.38832 0.35949 0.89778 0.0
C1131 C 0.42357 0.37151 0.79924 0.0
C1132 C 0.42565 0.39849 0.79342 0.0
C1133 C 0.43058 0.3551 0.76759 0.0
C1134 C 0.42633 0.3266 0.77021 0.0
C1135 C 0.40189 0.31647 0.77994 0.0
C1136 C 0.39795 0.28966 0.78237 0.0
C1137 C 0.41828 0.27273 0.77497 0.0
C1138 C 0.44258 0.28259 0.76505 0.0
C1139 C 0.44663 0.3094 0.76259 0.0
H1140 H 0.41519 0.25197 0.77687 0.0
H1141 H 0.4463 0.51299 0.749 0.0
H1142 H 0.54991 0.49325 0.66815 0.0
H1143 H 0.57317 0.46912 0.72356 0.0
H1144 H 0.62098 0.43321 0.63567 0.0
H1145 H 0.59755 0.45727 0.58042 0.0
H1146 H 0.61056 0.39927 0.69419 0.0
H1147 H 0.64129 0.48632 0.68672 0.0
H1148 H 0.63849 0.53407 0.68505 0.0
H1149 H 0.60849 0.53202 0.8055 0.0
H1150 H 0.61038 0.48416 0.80751 0.0
H1151 H 0.71215 0.40617 0.87849 0.0
H1152 H 0.69223 0.42368 0.81475 0.0
H1153 H 0.62465 0.37598 0.83348 0.0
H1154 H 0.64454 0.35805 0.8967 0.0
H1155 H 0.64956 0.45171 0.80486 0.0
H1156 H 0.59666 0.36069 0.74064 0.0
H1157 H 0.60346 0.3134 0.73945 0.0
H1158 H 0.68562 0.32424 0.75689 0.0
H1159 H 0.67943 0.37161 0.75702 0.0
C1160 C 0.56508 0.47983 0.6608 0.0
C1161 C 0.57175 0.47662 0.62019 0.0
C1162 C 0.57841 0.46616 0.69235 0.0
C1163 C 0.59908 0.44966 0.68377 0.0
C1164 C 0.60504 0.44573 0.64299 0.0
C1165 C 0.5915 0.45921 0.61142 0.0
C1166 C 0.61537 0.43768 0.71734 0.0
C1167 C 0.61906 0.4107 0.71844 0.0
C1168 C 0.62714 0.45276 0.74826 0.0
C1169 C 0.62577 0.48158 0.74711 0.0
C1170 C 0.63382 0.49601 0.7127 0.0
C1171 C 0.63237 0.52309 0.71167 0.0
C1172 C 0.62323 0.53603 0.74509 0.0
C1173 C 0.61545 0.52193 0.77957 0.0
C1174 C 0.61668 0.49481 0.78066 0.0
C1175 C 0.69321 0.39912 0.86876 0.0
C1176 C 0.67992 0.38073 0.89274 0.0
C1177 C 0.68181 0.40923 0.83241 0.0
C1178 C 0.65701 0.40108 0.8193 0.0
C1179 C 0.64396 0.38229 0.84269 0.0
C1180 C 0.65535 0.37211 0.87894 0.0
C1181 C 0.64409 0.41319 0.78241 0.0
C1182 C 0.64108 0.44025 0.78062 0.0
C1183 C 0.6335 0.39824 0.7504 0.0
C1184 C 0.63751 0.36975 0.74933 0.0
C1185 C 0.6162 0.35301 0.74395 0.0
C1186 C 0.61995 0.32618 0.74344 0.0
C1187 C 0.64494 0.31582 0.74825 0.0
C1188 C 0.66625 0.33228 0.75341 0.0
C1189 C 0.66263 0.35913 0.75364 0.0
H1190 H 0.6478 0.29503 0.74791 0.0
H1191 H 0.62234 0.55698 0.74435 0.0
H1192 H 0.61875 0.47198 0.43582 0.0
H1193 H 0.63907 0.44344 0.38804 0.0
H1194 H 0.59224 0.47761 0.28897 0.0
H1195 H 0.57221 0.50662 0.33624 0.0
H1196 H 0.61776 0.40686 0.33961 0.0
H1197 H 0.6277 0.48111 0.20454 0.0
H1198 H 0.63429 0.5282 0.19401 0.0
H1199 H 0.67259 0.53189 0.31202 0.0
H1200 H 0.66658 0.48478 0.32302 0.0
H1201 H 0.62312 0.35058 0.14628 0.0
H1202 H 0.61469 0.3741 0.20778 0.0
H1203 H 0.69324 0.40305 0.21037 0.0
H1204 H 0.70176 0.37985 0.14836 0.0
H1205 H 0.65962 0.44153 0.21539 0.0
H1206 H 0.67316 0.35948 0.28303 0.0
H1207 H 0.66765 0.3125 0.2954 0.0
H1208 H 0.58683 0.32388 0.31693 0.0
H1209 H 0.59171 0.37092 0.30374 0.0
C1210 C 0.61283 0.4735 0.40383 0.0
C1211 C 0.594 0.49167 0.38971 0.0
C1212 C 0.62437 0.45709 0.37668 0.0
C1213 C 0.61728 0.45858 0.33506 0.0
C1214 C 0.59826 0.47646 0.32094 0.0
C1215 C 0.58679 0.49296 0.348 0.0
C1216 C 0.62949 0.44125 0.30625 0.0
C1217 C 0.62704 0.41435 0.31251 0.0
C1218 C 0.64213 0.45117 0.27153 0.0
C1219 C 0.64651 0.47942 0.26469 0.0
C1220 C 0.63769 0.49193 0.22813 0.0
C1221 C 0.64129 0.51864 0.2221 0.0
C1222 C 0.65379 0.53304 0.25237 0.0
C1223 C 0.66283 0.52073 0.28865 0.0
C1224 C 0.65932 0.49403 0.2948 0.0
C1225 C 0.63876 0.36157 0.16028 0.0
C1226 C 0.66304 0.36351 0.14223 0.0
C1227 C 0.63394 0.37492 0.19559 0.0
C1228 C 0.65337 0.39027 0.21373 0.0
C1229 C 0.67798 0.39134 0.1968 0.0
C1230 C 0.68282 0.37801 0.16143 0.0
C1231 C 0.64716 0.40701 0.24795 0.0
C1232 C 0.65068 0.4339 0.2427 0.0
C1233 C 0.63579 0.39704 0.28383 0.0
C1234 C 0.63278 0.36875 0.29205 0.0
C1235 C 0.65416 0.35196 0.29008 0.0
C1236 C 0.65114 0.3253 0.29731 0.0
C1237 C 0.62688 0.31519 0.30692 0.0
C1238 C 0.6056 0.33174 0.30945 0.0
C1239 C 0.60849 0.35841 0.3021 0.0
H1240 H 0.62453 0.29453 0.31235 0.0
H1241 H 0.65649 0.55373 0.24769 0.0
H1242 H 0.49342 0.635 0.34757 0.0
H1243 H 0.51792 0.65315 0.29137 0.0
H1244 H 0.56433 0.58357 0.29091 0.0
H1245 H 0.54007 0.56528 0.34794 0.0
H1246 H 0.59369 0.62764 0.28487 0.0
H1247 H 0.51786 0.59346 0.21841 0.0
H1248 H 0.47068 0.58637 0.20972 0.0
H1249 H 0.45895 0.668 0.18687 0.0
H1250 H 0.50599 0.67568 0.19611 0.0
H1251 H 0.64776 0.67255 0.09667 0.0
H1252 H 0.62684 0.64614 0.14933 0.0
H1253 H 0.5712 0.70726 0.16446 0.0
H1254 H 0.59138 0.73328 0.11079 0.0
H1255 H 0.5475 0.66118 0.15886 0.0
H1256 H 0.62164 0.69567 0.23409 0.0
H1257 H 0.66804 0.70375 0.24969 0.0
H1258 H 0.68237 0.62171 0.25822 0.0
H1259 H 0.6361 0.61316 0.24216 0.0
C1260 C 0.50881 0.62349 0.33558 0.0
C1261 C 0.51474 0.59865 0.35207 0.0
C1262 C 0.52273 0.63387 0.30333 0.0
C1263 C 0.54263 0.61952 0.2866 0.0
C1264 C 0.54891 0.59486 0.30331 0.0
C1265 C 0.535 0.58444 0.33577 0.0
C1266 C 0.5569 0.63067 0.25191 0.0
C1267 C 0.58374 0.63449 0.25688 0.0
C1268 C 0.54372 0.63987 0.21577 0.0
C1269 C 0.5155 0.63517 0.20823 0.0
C1270 C 0.50523 0.60992 0.21163 0.0
C1271 C 0.4785 0.6058 0.20664 0.0
C1272 C 0.46184 0.62674 0.19793 0.0
C1273 C 0.47189 0.65181 0.1937 0.0
C1274 C 0.4986 0.65605 0.19875 0.0
C1275 C 0.63083 0.68017 0.11074 0.0
C1276 C 0.62084 0.70473 0.0989 0.0
C1277 C 0.61913 0.66522 0.14126 0.0
C1278 C 0.59743 0.67472 0.16076 0.0
C1279 C 0.58782 0.69949 0.14961 0.0
C1280 C 0.59948 0.7144 0.11913 0.0
C1281 C 0.58425 0.65882 0.19223 0.0
C1282 C 0.55757 0.65397 0.18651 0.0
C1283 C 0.59758 0.64865 0.22765 0.0
C1284 C 0.62549 0.65379 0.23637 0.0
C1285 C 0.63475 0.67937 0.23881 0.0
C1286 C 0.66101 0.68403 0.24784 0.0
C1287 C 0.67816 0.66326 0.25476 0.0
C1288 C 0.66909 0.63778 0.25268 0.0
C1289 C 0.64285 0.63302 0.24361 0.0
H1290 H 0.69847 0.66691 0.2619 0.0
H1291 H 0.44115 0.62358 0.19453 0.0
H1292 H 0.44884 0.56216 0.38227 0.0
H1293 H 0.43388 0.58984 0.32452 0.0
H1294 H 0.39393 0.52463 0.27193 0.0
H1295 H 0.40965 0.49663 0.32909 0.0
H1296 H 0.41769 0.55275 0.21462 0.0
H1297 H 0.36082 0.56956 0.323 0.0
H1298 H 0.34975 0.58082 0.39281 0.0
H1299 H 0.38626 0.65511 0.37692 0.0
H1300 H 0.39785 0.64416 0.30706 0.0
H1301 H 0.3265 0.6164 0.08197 0.0
H1302 H 0.34444 0.59257 0.14186 0.0
H1303 H 0.39267 0.65806 0.17191 0.0
H1304 H 0.37497 0.68217 0.11161 0.0
H1305 H 0.3669 0.63196 0.24057 0.0
H1306 H 0.42014 0.6139 0.12692 0.0
H1307 H 0.42824 0.60063 0.05702 0.0
H1308 H 0.39463 0.52599 0.083 0.0
H1309 H 0.38599 0.53894 0.153 0.0
C1310 C 0.43716 0.55366 0.35819 0.0
C1311 C 0.43042 0.52726 0.36027 0.0
C1312 C 0.42843 0.56954 0.32535 0.0
C1313 C 0.41247 0.55937 0.29425 0.0
C1314 C 0.40619 0.53287 0.2957 0.0
C1315 C 0.41507 0.51693 0.32846 0.0
C1316 C 0.40186 0.57647 0.2606 0.0
C1317 C 0.40637 0.56991 0.22029 0.0
C1318 C 0.3875 0.59914 0.26811 0.0
C1319 C 0.38041 0.60594 0.30994 0.0
C1320 C 0.36665 0.58823 0.33448 0.0
C1321 C 0.36025 0.59457 0.37402 0.0
C1322 C 0.36733 0.61864 0.38928 0.0
C1323 C 0.3808 0.63646 0.36502 0.0
C1324 C 0.38727 0.63021 0.32542 0.0
C1325 C 0.34068 0.62594 0.10151 0.0
C1326 C 0.34944 0.65115 0.09184 0.0
C1327 C 0.35093 0.61224 0.13566 0.0
C1328 C 0.37 0.62352 0.16093 0.0
C1329 C 0.37796 0.64908 0.15262 0.0
C1330 C 0.36787 0.66277 0.11815 0.0
C1331 C 0.38247 0.60797 0.19474 0.0
C1332 C 0.37837 0.61488 0.23501 0.0
C1333 C 0.39683 0.58535 0.18722 0.0
C1334 C 0.40223 0.57748 0.14519 0.0
C1335 C 0.41431 0.59472 0.11772 0.0
C1336 C 0.41903 0.58724 0.07805 0.0
C1337 C 0.41191 0.5625 0.06554 0.0
C1338 C 0.40012 0.54516 0.09272 0.0
C1339 C 0.39533 0.55255 0.13241 0.0
H1340 H 0.41556 0.55676 0.03481 0.0
H1341 H 0.36229 0.6235 0.41985 0.0
H1342 H 0.46375 0.465 0.33548 0.0
H1343 H 0.43976 0.4421 0.28183 0.0
H1344 H 0.49953 0.38346 0.2838 0.0
H1345 H 0.52389 0.40654 0.33612 0.0
H1346 H 0.48323 0.39228 0.20897 0.0
H1347 H 0.44226 0.37633 0.3378 0.0
H1348 H 0.42092 0.38935 0.40017 0.0
H1349 H 0.35973 0.42595 0.32727 0.0
H1350 H 0.3809 0.41341 0.26444 0.0
H1351 H 0.42015 0.2748 0.16179 0.0
H1352 H 0.43974 0.31029 0.19994 0.0
H1353 H 0.38292 0.36345 0.14591 0.0
H1354 H 0.36335 0.32795 0.10701 0.0
H1355 H 0.39382 0.3635 0.23892 0.0
H1356 H 0.43431 0.37177 0.10918 0.0
H1357 H 0.45676 0.35518 0.05018 0.0
H1358 H 0.52032 0.32924 0.12914 0.0
H1359 H 0.49802 0.34526 0.18875 0.0
C1360 C 0.47193 0.44742 0.32405 0.0
C1361 C 0.4956 0.43744 0.3404 0.0
C1362 C 0.45814 0.43429 0.29351 0.0
C1363 C 0.46759 0.41078 0.2793 0.0
C1364 C 0.49179 0.40152 0.29428 0.0
C1365 C 0.50568 0.41472 0.32438 0.0
C1366 C 0.45194 0.39487 0.25056 0.0
C1367 C 0.46368 0.38604 0.21557 0.0
C1368 C 0.42623 0.38698 0.25874 0.0
C1369 C 0.4133 0.3942 0.29645 0.0
C1370 C 0.42433 0.38728 0.33509 0.0
C1371 C 0.41227 0.39456 0.37051 0.0
C1372 C 0.38903 0.40854 0.36768 0.0
C1373 C 0.37776 0.41517 0.32941 0.0
C1374 C 0.38977 0.40797 0.29389 0.0
C1375 C 0.41179 0.29404 0.15807 0.0
C1376 C 0.39044 0.29873 0.1311 0.0
C1377 C 0.42302 0.31426 0.17979 0.0
C1378 C 0.41282 0.33943 0.17547 0.0
C1379 C 0.39107 0.34413 0.14941 0.0
C1380 C 0.3801 0.32393 0.12702 0.0
C1381 C 0.42539 0.36066 0.19808 0.0
C1382 C 0.41312 0.37032 0.23193 0.0
C1383 C 0.45077 0.36895 0.18933 0.0
C1384 C 0.46438 0.35955 0.15348 0.0
C1385 C 0.45297 0.36233 0.11402 0.0
C1386 C 0.46569 0.35306 0.08045 0.0
C1387 C 0.48993 0.34112 0.08592 0.0
C1388 C 0.50153 0.33848 0.12496 0.0
C1389 C 0.48887 0.34767 0.15864 0.0
H1390 H 0.49975 0.33396 0.05989 0.0
H1391 H 0.37974 0.41417 0.39513 0.0
loop_
_geom_bond_atom_site_label_1
_geom_bond_atom_site_label_2
_geom_bond_distance
_geom_bond_site_symmetry_2
_ccdc_geom_bond_type
Zn0 O2 1.933 1_556 S
Zn0 O20 1.985 . S
Zn0 O31 1.962 . S
Zn1 O2 1.911 . S
Zn1 O21 1.970 . S
Zn1 O37 1.964 . S
Zn1 O44 1.981 . S
O2 Zn0 1.933 1_554 S
O2 Zn1 1.911 . S
O2 H3 0.841 1_655 S
H3 O2 0.841 1_455 S
C4 O5 1.246 . S
C4 O33 1.288 . S
O5 C4 1.246 . S
Zn6 O8 1.911 . S
Zn6 O23 1.970 . S
Zn6 O40 1.945 . S
Zn6 O47 1.981 . S
Zn7 O8 1.933 1_556 S
Zn7 O22 1.985 . S
Zn7 O29 1.955 . S
O8 Zn6 1.911 . S
O8 Zn7 1.933 1_554 S
O8 H9 0.841 1_455 S
H9 O8 0.841 1_655 S
Zn10 O11 1.933 1_556 S
Zn10 O24 1.985 . S
Zn10 O33 1.950 1_565 S
O11 Zn10 1.933 1_554 S
O11 Zn12 1.911 . S
O11 H13 0.841 1_565 S
Zn12 O11 1.911 . S
Zn12 O25 1.970 . S
Zn12 O41 1.981 . S
Zn12 O43 1.945 . S
H13 O11 0.841 1_545 S
Zn14 O15 1.933 1_556 S
Zn14 O27 1.985 . S
Zn14 O35 1.955 . S
O15 Zn14 1.933 1_554 S
O15 H16 0.841 1_545 S
O15 Zn17 1.911 . S
H16 O15 0.841 1_565 S
Zn17 O15 1.911 . S
Zn17 O28 1.970 . S
Zn17 O38 1.981 . S
Zn17 O46 1.945 . S
C18 O19 1.246 . S
C18 O35 1.276 1_565 S
O19 C18 1.246 . S
O20 Zn0 1.985 . S
O20 C30 1.245 1_556 S
O21 Zn1 1.970 . S
O21 C30 1.263 . S
O22 Zn7 1.985 . S
O22 C34 1.245 1_556 S
O23 Zn6 1.970 . S
O23 C34 1.263 . S
O24 Zn10 1.985 . S
O24 C39 1.245 1_556 S
O25 Zn12 1.970 . S
O25 C39 1.263 . S
C26 O37 1.223 1_455 S
C26 O38 1.245 . S
O27 Zn14 1.985 . S
O27 C45 1.245 1_556 S
O28 Zn17 1.970 . S
O28 C45 1.263 . S
O29 Zn7 1.955 . S
O29 C48 1.276 1_455 S
C30 O20 1.245 1_554 S
C30 O21 1.263 . S
O31 Zn0 1.962 . S
O31 C50 1.259 1_655 S
C32 O40 1.262 1_655 S
C32 O41 1.245 . S
O33 C4 1.288 . S
O33 Zn10 1.950 1_545 S
C34 O22 1.245 1_554 S
C34 O23 1.263 . S
O35 Zn14 1.955 . S
O35 C18 1.276 1_545 S
C36 O43 1.262 1_545 S
C36 O44 1.245 . S
O37 Zn1 1.964 . S
O37 C26 1.223 1_655 S
O38 Zn17 1.981 . S
O38 C26 1.245 . S
C39 O24 1.245 1_554 S
C39 O25 1.263 . S
O40 Zn6 1.945 . S
O40 C32 1.262 1_455 S
O41 Zn12 1.981 . S
O41 C32 1.245 . S
C42 O46 1.262 1_565 S
C42 O47 1.245 . S
O43 Zn12 1.945 . S
O43 C36 1.262 1_565 S
O44 Zn1 1.981 . S
O44 C36 1.245 . S
C45 O27 1.245 1_554 S
C45 O28 1.263 . S
O46 Zn17 1.945 . S
O46 C42 1.262 1_545 S
O47 Zn6 1.981 . S
O47 C42 1.245 . S
C48 O29 1.276 1_655 S
C48 O49 1.246 . S
O49 C48 1.246 . S
C50 O31 1.259 1_455 S
C50 O51 1.246 . S
O51 C50 1.246 . S
Zn52 O54 1.933 . S
Zn52 O72 1.985 . S
Zn52 O83 1.955 . S
Zn53 O54 1.911 . S
Zn53 O73 1.970 . S
Zn53 O89 1.945 . S
Zn53 O96 1.981 . S
O54 Zn52 1.933 . S
O54 Zn53 1.911 . S
O54 H55 0.841 . S
H55 O54 0.841 . S
C56 O57 1.246 . S
C56 O85 1.276 . S
O57 C56 1.246 . S
Zn58 O60 1.911 . S
Zn58 O75 1.970 . S
Zn58 O92 1.945 . S
Zn58 O99 1.981 . S
Zn59 O60 1.933 . S
Zn59 O74 1.985 . S
Zn59 O81 1.955 . S
O60 Zn58 1.911 . S
O60 Zn59 1.933 . S
O60 H61 0.841 . S
H61 O60 0.841 . S
Zn62 O63 1.933 . S
Zn62 O76 1.985 . S
Zn62 O85 1.955 . S
O63 Zn62 1.933 . S
O63 Zn64 1.911 . S
O63 H65 0.841 . S
Zn64 O63 1.911 . S
Zn64 O77 1.970 . S
Zn64 O93 1.981 . S
Zn64 O95 1.945 . S
H65 O63 0.841 . S
Zn66 O67 1.933 . S
Zn66 O79 1.985 . S
Zn66 O87 1.955 . S
O67 Zn66 1.933 . S
O67 H68 0.841 . S
O67 Zn69 1.911 . S
H68 O67 0.841 . S
Zn69 O67 1.911 . S
Zn69 O80 1.970 . S
Zn69 O90 1.981 . S
Zn69 O98 1.945 . S
C70 O71 1.246 . S
C70 O87 1.276 . S
O71 C70 1.246 . S
O72 Zn52 1.985 . S
O72 C82 1.245 . S
O73 Zn53 1.970 . S
O73 C82 1.263 . S
O74 Zn59 1.985 . S
O74 C86 1.245 . S
O75 Zn58 1.970 . S
O75 C86 1.263 . S
O76 Zn62 1.985 . S
O76 C91 1.245 . S
O77 Zn64 1.970 . S
O77 C91 1.263 . S
C78 O89 1.262 . S
C78 O90 1.245 . S
O79 Zn66 1.985 . S
O79 C97 1.245 . S
O80 Zn69 1.970 . S
O80 C97 1.263 . S
O81 Zn59 1.955 . S
O81 C100 1.276 . S
C82 O72 1.245 . S
C82 O73 1.263 . S
O83 Zn52 1.955 . S
O83 C102 1.276 . S
C84 O92 1.262 . S
C84 O93 1.245 . S
O85 C56 1.276 . S
O85 Zn62 1.955 . S
C86 O74 1.245 . S
C86 O75 1.263 . S
O87 Zn66 1.955 . S
O87 C70 1.276 . S
C88 O95 1.262 . S
C88 O96 1.245 . S
O89 Zn53 1.945 . S
O89 C78 1.262 . S
O90 Zn69 1.981 . S
O90 C78 1.245 . S
C91 O76 1.245 . S
C91 O77 1.263 . S
O92 Zn58 1.945 . S
O92 C84 1.262 . S
O93 Zn64 1.981 . S
O93 C84 1.245 . S
C94 O98 1.262 . S
C94 O99 1.245 . S
O95 Zn64 1.945 . S
O95 C88 1.262 . S
O96 Zn53 1.981 . S
O96 C88 1.245 . S
C97 O79 1.245 . S
C97 O80 1.263 . S
O98 Zn69 1.945 . S
O98 C94 1.262 . S
O99 Zn58 1.981 . S
O99 C94 1.245 . S
C100 O81 1.276 . S
C100 O101 1.246 . S
O101 C100 1.246 . S
C102 O83 1.276 . S
C102 O103 1.246 . S
O103 C102 1.246 . S
O104 Cd105 2.300 . S
O104 C111 1.275 . S
Cd105 O104 2.300 . S
Cd105 O113 2.381 . S
Cd105 O114 2.378 . S
O106 Cd107 2.385 1_554 S
O106 C111 1.255 . S
Cd107 O106 2.385 1_556 S
Cd107 O108 2.317 . S
O108 Cd107 2.317 . S
O108 C109 1.232 . S
C109 O108 1.232 . S
C109 O110 1.218 . S
O110 C109 1.218 . S
C111 O104 1.275 . S
C111 O106 1.255 . S
C112 O113 1.258 . S
C112 O114 1.256 . S
O113 Cd105 2.381 . S
O113 C112 1.258 . S
O114 Cd105 2.378 . S
O114 C112 1.256 . S
O115 Cd116 2.300 . S
O115 C122 1.275 . S
Cd116 O115 2.300 . S
Cd116 O124 2.381 . S
Cd116 O125 2.378 1_556 S
O117 Cd118 2.385 1_556 S
O117 C122 1.255 . S
Cd118 O117 2.385 1_554 S
Cd118 O119 2.317 . S
O119 Cd118 2.317 . S
O119 C120 1.232 . S
C120 O119 1.232 . S
C120 O121 1.218 . S
O121 C120 1.218 . S
C122 O115 1.275 . S
C122 O117 1.255 . S
C123 O124 1.258 . S
C123 O125 1.256 1_556 S
O124 Cd116 2.381 . S
O124 C123 1.258 . S
O125 Cd116 2.378 1_554 S
O125 C123 1.256 1_554 S
O126 Cd127 2.300 . S
O126 C133 1.275 . S
Cd127 O126 2.300 . S
Cd127 O135 2.381 . S
Cd127 O136 2.378 . S
O128 Cd129 2.385 1_554 S
O128 C133 1.255 . S
Cd129 O128 2.385 1_556 S
Cd129 O130 2.317 . S
O130 Cd129 2.317 . S
O130 C131 1.232 . S
C131 O130 1.232 . S
C131 O132 1.218 . S
O132 C131 1.218 . S
C133 O126 1.275 . S
C133 O128 1.255 . S
C134 O135 1.258 . S
C134 O136 1.256 . S
O135 Cd127 2.381 . S
O135 C134 1.258 . S
O136 Cd127 2.378 . S
O136 C134 1.256 . S
O137 Cd138 2.300 . S
O137 C144 1.275 . S
Cd138 O137 2.300 . S
Cd138 O146 2.381 . S
Cd138 O147 2.372 1_554 S
O139 Cd140 2.385 1_554 S
O139 C144 1.255 . S
Cd140 O139 2.385 1_556 S
Cd140 O141 2.317 . S
O141 Cd140 2.317 . S
O141 C142 1.232 . S
C142 O141 1.232 . S
C142 O143 1.218 . S
O143 C142 1.218 . S
C144 O137 1.275 . S
C144 O139 1.255 . S
C145 O146 1.258 . S
C145 O147 1.244 1_554 S
O146 Cd138 2.381 . S
O146 C145 1.258 . S
O147 Cd138 2.372 1_556 S
O147 C145 1.244 1_556 S
O148 Cd149 2.300 . S
O148 C155 1.275 . S
Cd149 O148 2.300 . S
Cd149 O157 2.381 . S
Cd149 O158 2.378 . S
O150 Cd151 2.385 . S
O150 C155 1.255 . S
Cd151 O150 2.385 . S
Cd151 O152 2.317 . S
O152 Cd151 2.317 . S
O152 C153 1.232 . S
C153 O152 1.232 . S
C153 O154 1.218 . S
O154 C153 1.218 . S
C155 O148 1.275 . S
C155 O150 1.255 . S
C156 O157 1.258 . S
C156 O158 1.256 . S
O157 Cd149 2.381 . S
O157 C156 1.258 . S
O158 Cd149 2.378 . S
O158 C156 1.256 . S
O159 Cd160 2.300 . S
O159 C166 1.275 . S
Cd160 O159 2.300 . S
Cd160 O168 2.381 . S
Cd160 O169 2.378 . S
O161 Cd162 2.385 . S
O161 C166 1.255 . S
Cd162 O161 2.385 . S
Cd162 O163 2.317 . S
O163 Cd162 2.317 . S
O163 C164 1.232 . S
C164 O163 1.232 . S
C164 O165 1.218 . S
O165 C164 1.218 . S
C166 O159 1.275 . S
C166 O161 1.255 . S
C167 O168 1.258 . S
C167 O169 1.256 . S
O168 Cd160 2.381 . S
O168 C167 1.258 . S
O169 Cd160 2.378 . S
O169 C167 1.256 . S
O170 Cd171 2.300 . S
O170 C177 1.275 . S
Cd171 O170 2.300 . S
Cd171 O179 2.381 . S
Cd171 O180 2.378 . S
O172 Cd173 2.385 . S
O172 C177 1.255 . S
Cd173 O172 2.385 . S
Cd173 O174 2.317 . S
O174 Cd173 2.317 . S
O174 C175 1.232 . S
C175 O174 1.232 . S
C175 O176 1.218 . S
O176 C175 1.218 . S
C177 O170 1.275 . S
C177 O172 1.255 . S
C178 O179 1.258 . S
C178 O180 1.256 . S
O179 Cd171 2.381 . S
O179 C178 1.258 . S
O180 Cd171 2.378 . S
O180 C178 1.256 . S
O181 Cd182 2.300 . S
O181 C188 1.275 . S
Cd182 O181 2.300 . S
Cd182 O190 2.381 . S
Cd182 O191 2.378 . S
O183 Cd184 2.385 . S
O183 C188 1.255 . S
Cd184 O183 2.385 . S
Cd184 O185 2.317 . S
O185 Cd184 2.317 . S
O185 C186 1.232 . S
C186 O185 1.232 . S
C186 O187 1.218 . S
O187 C186 1.218 . S
C188 O181 1.275 . S
C188 O183 1.255 . S
C189 O190 1.258 . S
C189 O191 1.256 . S
O190 Cd182 2.381 . S
O190 C189 1.258 . S
O191 Cd182 2.378 . S
O191 C189 1.256 . S
H192 C210 0.948 1_556 S
H193 C212 0.951 1_556 S
H194 C214 0.950 . S
H195 C215 0.950 . S
H196 C217 0.950 . S
H197 C220 0.950 . S
H198 C221 0.950 . S
H199 C223 0.950 . S
H200 C224 0.950 . S
H201 C225 0.951 . S
H202 C227 0.951 . S
H203 C229 0.950 . S
H204 C230 0.950 . S
H205 C232 0.950 . S
H206 C235 0.950 . S
H207 C236 0.950 . S
H208 C238 0.950 . S
H209 C239 0.950 . S
C210 H192 0.948 1_554 S
C210 C211 1.369 . S
C210 C212 1.388 . S
C211 C210 1.369 . S
C211 C215 1.385 . S
C212 H193 0.951 1_554 S
C212 C210 1.388 . S
C212 C213 1.366 . S
C213 C212 1.366 . S
C213 C214 1.414 . S
C213 C216 1.499 . S
C214 H194 0.950 . S
C214 C213 1.414 . S
C214 C215 1.374 . S
C215 H195 0.950 . S
C215 C211 1.385 . S
C215 C214 1.374 . S
C216 C213 1.499 . S
C216 C217 1.373 . S
C216 C218 1.389 . S
C217 H196 0.950 . S
C217 C216 1.373 . S
C217 C233 1.377 . S
C218 C216 1.389 . S
C218 C219 1.524 . S
C218 C232 1.377 . S
C219 C218 1.524 . S
C219 C220 1.397 . S
C219 C224 1.363 . S
C220 H197 0.950 . S
C220 C219 1.397 . S
C220 C221 1.334 . S
C221 H198 0.950 . S
C221 C220 1.334 . S
C221 C222 1.287 . S
C222 C221 1.287 . S
C222 C223 1.524 . S
C222 H241 0.913 . S
C223 H199 0.950 . S
C223 C222 1.524 . S
C223 C224 1.415 . S
C224 H200 0.950 . S
C224 C219 1.363 . S
C224 C223 1.415 . S
C225 H201 0.951 . S
C225 C226 1.366 . S
C225 C227 1.388 . S
C226 C225 1.366 . S
C226 C230 1.385 . S
C227 H202 0.951 . S
C227 C225 1.388 . S
C227 C228 1.366 . S
C228 C227 1.366 . S
C228 C229 1.414 . S
C228 C231 1.499 . S
C229 H203 0.950 . S
C229 C228 1.414 . S
C229 C230 1.374 . S
C230 H204 0.950 . S
C230 C226 1.385 . S
C230 C229 1.374 . S
C231 C228 1.499 . S
C231 C232 1.373 . S
C231 C233 1.389 . S
C232 H205 0.950 . S
C232 C218 1.377 . S
C232 C231 1.373 . S
C233 C217 1.377 . S
C233 C231 1.389 . S
C233 C234 1.524 1_554 S
C234 C233 1.524 1_556 S
C234 C235 1.397 . S
C234 C239 1.363 1_556 S
C235 H206 0.950 . S
C235 C234 1.397 . S
C235 C236 1.334 . S
C236 H207 0.950 . S
C236 C235 1.334 . S
C236 C237 1.287 . S
C237 C236 1.287 . S
C237 C238 1.524 . S
C237 H240 0.999 . S
C238 H208 0.950 . S
C238 C237 1.524 . S
C238 C239 1.415 1_556 S
C239 H209 0.950 . S
C239 C234 1.363 1_554 S
C239 C238 1.415 1_554 S
H240 C237 0.999 . S
H241 C222 0.913 . S
H242 C260 0.951 . S
H243 C262 0.951 . S
H244 C264 0.950 . S
H245 C265 0.950 . S
H246 C267 0.950 . S
H247 C270 0.950 . S
H248 C271 0.950 . S
H249 C273 0.950 . S
H250 C274 0.950 . S
H251 C275 0.951 . S
H252 C277 0.951 . S
H253 C279 0.950 . S
H254 C280 0.950 . S
H255 C282 0.950 . S
H256 C285 0.950 . S
H257 C286 0.950 . S
H258 C288 0.950 . S
H259 C289 0.950 . S
C260 H242 0.951 . S
C260 C261 1.366 1_556 S
C260 C262 1.388 . S
C261 C260 1.366 1_554 S
C261 C265 1.385 . S
C262 H243 0.951 . S
C262 C260 1.388 . S
C262 C263 1.366 1_556 S
C263 C262 1.366 1_554 S
C263 C264 1.414 . S
C263 C266 1.499 . S
C264 H244 0.950 . S
C264 C263 1.414 . S
C264 C265 1.374 . S
C265 H245 0.950 . S
C265 C261 1.385 . S
C265 C264 1.374 . S
C266 C263 1.499 . S
C266 C267 1.373 1_554 S
C266 C268 1.389 . S
C267 H246 0.950 . S
C267 C266 1.373 1_556 S
C267 C283 1.377 . S
C268 C266 1.389 . S
C268 C269 1.524 . S
C268 C282 1.377 . S
C269 C268 1.524 . S
C269 C270 1.397 . S
C269 C274 1.363 . S
C270 H247 0.950 . S
C270 C269 1.397 . S
C270 C271 1.334 . S
C271 H248 0.950 . S
C271 C270 1.334 . S
C271 C272 1.287 . S
C272 C271 1.287 . S
C272 C273 1.524 . S
C272 H291 0.913 . S
C273 H249 0.950 . S
C273 C272 1.524 . S
C273 C274 1.415 . S
C274 H250 0.950 . S
C274 C269 1.363 . S
C274 C273 1.415 . S
C275 H251 0.951 . S
C275 C276 1.366 1_554 S
C275 C277 1.388 . S
C276 C275 1.366 1_556 S
C276 C280 1.385 . S
C277 H252 0.951 . S
C277 C275 1.388 . S
C277 C278 1.366 1_554 S
C278 C277 1.366 1_556 S
C278 C279 1.414 . S
C278 C281 1.499 . S
C279 H253 0.950 . S
C279 C278 1.414 . S
C279 C280 1.374 . S
C280 H254 0.950 . S
C280 C276 1.385 . S
C280 C279 1.374 . S
C281 C278 1.499 . S
C281 C282 1.373 1_556 S
C281 C283 1.389 . S
C282 H255 0.950 . S
C282 C268 1.377 . S
C282 C281 1.373 1_554 S
C283 C267 1.377 . S
C283 C281 1.389 . S
C283 C284 1.524 . S
C284 C283 1.524 . S
C284 C285 1.397 . S
C284 C289 1.363 . S
C285 H256 0.950 . S
C285 C284 1.397 . S
C285 C286 1.334 . S
C286 H257 0.950 . S
C286 C285 1.334 . S
C286 C287 1.287 . S
C287 C286 1.287 . S
C287 C288 1.524 . S
C287 H290 0.999 . S
C288 H258 0.950 . S
C288 C287 1.524 . S
C288 C289 1.415 . S
C289 H259 0.950 . S
C289 C284 1.363 . S
C289 C288 1.415 . S
H290 C287 0.999 . S
H291 C272 0.913 . S
H292 C310 0.951 . S
H293 C312 0.951 . S
H294 C314 0.950 . S
H295 C315 0.950 . S
H296 C317 0.950 . S
H297 C320 0.950 . S
H298 C321 0.950 . S
H299 C323 0.950 . S
H300 C324 0.950 1_556 S
H301 C325 0.951 . S
H302 C327 0.951 . S
H303 C329 0.950 . S
H304 C330 0.950 1_556 S
H305 C332 0.950 . S
H306 C335 0.950 . S
H307 C336 0.950 . S
H308 C338 0.950 . S
H309 C339 0.950 . S
C310 H292 0.951 . S
C310 C311 1.366 1_556 S
C310 C312 1.388 . S
C311 C310 1.366 1_554 S
C311 C315 1.385 . S
C312 H293 0.951 . S
C312 C310 1.388 . S
C312 C313 1.366 1_556 S
C313 C312 1.366 1_554 S
C313 C314 1.414 . S
C313 C316 1.499 . S
C314 H294 0.950 . S
C314 C313 1.414 . S
C314 C315 1.374 . S
C315 H295 0.950 . S
C315 C311 1.385 . S
C315 C314 1.374 . S
C316 C313 1.499 . S
C316 C317 1.373 . S
C316 C318 1.389 . S
C317 H296 0.950 . S
C317 C316 1.373 . S
C317 C333 1.377 . S
C318 C316 1.389 . S
C318 C319 1.524 . S
C318 C332 1.377 . S
C319 C318 1.524 . S
C319 C320 1.397 . S
C319 C324 1.363 . S
C320 H297 0.950 . S
C320 C319 1.397 . S
C320 C321 1.334 . S
C321 H298 0.950 . S
C321 C320 1.334 . S
C321 C322 1.287 . S
C322 C321 1.287 . S
C322 C323 1.524 . S
C322 H341 0.913 . S
C323 H299 0.950 . S
C323 C322 1.524 . S
C323 C324 1.415 . S
C324 H300 0.950 1_554 S
C324 C319 1.363 . S
C324 C323 1.415 . S
C325 H301 0.951 . S
C325 C326 1.366 . S
C325 C327 1.388 . S
C326 C325 1.366 . S
C326 C330 1.385 . S
C327 H302 0.951 . S
C327 C325 1.388 . S
C327 C328 1.366 . S
C328 C327 1.366 . S
C328 C329 1.414 1_554 S
C328 C331 1.499 . S
C329 H303 0.950 . S
C329 C328 1.414 1_556 S
C329 C330 1.374 1_556 S
C330 H304 0.950 1_554 S
C330 C326 1.385 . S
C330 C329 1.374 1_554 S
C331 C328 1.499 . S
C331 C332 1.373 . S
C331 C333 1.389 . S
C332 H305 0.950 . S
C332 C318 1.377 . S
C332 C331 1.373 . S
C333 C317 1.377 . S
C333 C331 1.389 . S
C333 C334 1.524 1_554 S
C334 C333 1.524 1_556 S
C334 C335 1.397 . S
C334 C339 1.363 1_556 S
C335 H306 0.950 . S
C335 C334 1.397 . S
C335 C336 1.334 . S
C336 H307 0.950 . S
C336 C335 1.334 . S
C336 C337 1.287 . S
C337 C336 1.287 . S
C337 C338 1.524 1_556 S
C337 H340 0.999 . S
C338 H308 0.950 . S
C338 C337 1.524 1_554 S
C338 C339 1.415 . S
C339 H309 0.950 . S
C339 C334 1.363 1_554 S
C339 C338 1.415 . S
H340 C337 0.999 . S
H341 C322 0.913 . S
H342 C360 0.951 . S
H343 C362 0.951 . S
H344 C364 0.950 . S
H345 C365 0.950 . S
H346 C367 0.950 . S
H347 C370 0.950 . S
H348 C371 0.950 . S
H349 C373 0.950 . S
H350 C374 0.950 . S
H351 C375 0.951 . S
H352 C377 0.951 . S
H353 C379 0.950 . S
H354 C380 0.950 . S
H355 C382 0.950 1_556 S
H356 C385 0.950 1_556 S
H357 C386 0.950 . S
H358 C388 0.950 . S
H359 C389 0.950 . S
C360 H342 0.951 . S
C360 C361 1.366 1_556 S
C360 C362 1.388 . S
C361 C360 1.366 1_554 S
C361 C365 1.385 . S
C362 H343 0.951 . S
C362 C360 1.388 . S
C362 C363 1.366 1_556 S
C363 C362 1.366 1_554 S
C363 C364 1.414 . S
C363 C366 1.499 . S
C364 H344 0.950 . S
C364 C363 1.414 . S
C364 C365 1.374 . S
C365 H345 0.950 . S
C365 C361 1.385 . S
C365 C364 1.374 . S
C366 C363 1.499 . S
C366 C367 1.373 . S
C366 C368 1.389 . S
C367 H346 0.950 . S
C367 C366 1.373 . S
C367 C383 1.377 . S
C368 C366 1.389 . S
C368 C369 1.524 1_554 S
C368 C382 1.377 . S
C369 C368 1.524 1_556 S
C369 C370 1.397 1_556 S
C369 C374 1.363 . S
C370 H347 0.950 . S
C370 C369 1.397 1_554 S
C370 C371 1.334 . S
C371 H348 0.950 . S
C371 C370 1.334 . S
C371 C372 1.287 1_554 S
C372 C371 1.287 1_556 S
C372 C373 1.524 . S
C372 H391 0.913 . S
C373 H349 0.950 . S
C373 C372 1.524 . S
C373 C374 1.415 . S
C374 H350 0.950 . S
C374 C369 1.363 . S
C374 C373 1.415 . S
C375 H351 0.951 . S
C375 C376 1.366 . S
C375 C377 1.388 . S
C376 C375 1.366 . S
C376 C380 1.385 1_554 S
C377 H352 0.951 . S
C377 C375 1.388 . S
C377 C378 1.366 . S
C378 C377 1.366 . S
C378 C379 1.414 1_554 S
C378 C381 1.499 . S
C379 H353 0.950 . S
C379 C378 1.414 1_556 S
C379 C380 1.374 . S
C380 H354 0.950 . S
C380 C376 1.385 1_556 S
C380 C379 1.374 . S
C381 C378 1.499 . S
C381 C382 1.373 . S
C381 C383 1.389 . S
C382 H355 0.950 1_554 S
C382 C368 1.377 . S
C382 C381 1.373 . S
C383 C367 1.377 . S
C383 C381 1.389 . S
C383 C384 1.524 . S
C384 C383 1.524 . S
C384 C385 1.397 . S
C384 C389 1.363 . S
C385 H356 0.950 1_554 S
C385 C384 1.397 . S
C385 C386 1.334 . S
C386 H357 0.950 . S
C386 C385 1.334 . S
C386 C387 1.287 . S
C387 C386 1.287 . S
C387 C388 1.524 . S
C387 H390 0.999 . S
C388 H358 0.950 . S
C388 C387 1.524 . S
C388 C389 1.415 . S
C389 H359 0.950 . S
C389 C384 1.363 . S
C389 C388 1.415 . S
H390 C387 0.999 . S
H391 C372 0.913 . S
H392 C410 0.951 . S
H393 C412 0.951 . S
H394 C414 0.950 . S
H395 C415 0.950 . S
H396 C417 0.950 . S
H397 C420 0.950 . S
H398 C421 0.950 . S
H399 C423 0.950 . S
H400 C424 0.950 . S
H401 C425 0.951 . S
H402 C427 0.951 . S
H403 C429 0.950 . S
H404 C430 0.950 . S
H405 C432 0.950 . S
H406 C435 0.950 . S
H407 C436 0.950 . S
H408 C438 0.950 . S
H409 C439 0.950 . S
C410 H392 0.951 . S
C410 C411 1.366 . S
C410 C412 1.388 . S
C411 C410 1.366 . S
C411 C415 1.385 . S
C412 H393 0.951 . S
C412 C410 1.388 . S
C412 C413 1.366 . S
C413 C412 1.366 . S
C413 C414 1.414 . S
C413 C416 1.499 . S
C414 H394 0.950 . S
C414 C413 1.414 . S
C414 C415 1.374 . S
C415 H395 0.950 . S
C415 C411 1.385 . S
C415 C414 1.374 . S
C416 C413 1.499 . S
C416 C417 1.373 . S
C416 C418 1.389 . S
C417 H396 0.950 . S
C417 C416 1.373 . S
C417 C433 1.377 . S
C418 C416 1.389 . S
C418 C419 1.524 . S
C418 C432 1.377 . S
C419 C418 1.524 . S
C419 C420 1.397 . S
C419 C424 1.363 . S
C420 H397 0.950 . S
C420 C419 1.397 . S
C420 C421 1.334 . S
C421 H398 0.950 . S
C421 C420 1.334 . S
C421 C422 1.287 . S
C422 C421 1.287 . S
C422 C423 1.524 . S
C422 H441 0.913 . S
C423 H399 0.950 . S
C423 C422 1.524 . S
C423 C424 1.415 . S
C424 H400 0.950 . S
C424 C419 1.363 . S
C424 C423 1.415 . S
C425 H401 0.951 . S
C425 C426 1.366 . S
C425 C427 1.388 . S
C426 C425 1.366 . S
C426 C430 1.385 . S
C427 H402 0.951 . S
C427 C425 1.388 . S
C427 C428 1.366 . S
C428 C427 1.366 . S
C428 C429 1.414 . S
C428 C431 1.499 . S
C429 H403 0.950 . S
C429 C428 1.414 . S
C429 C430 1.374 . S
C430 H404 0.950 . S
C430 C426 1.385 . S
C430 C429 1.374 . S
C431 C428 1.499 . S
C431 C432 1.373 . S
C431 C433 1.389 . S
C432 H405 0.950 . S
C432 C418 1.377 . S
C432 C431 1.373 . S
C433 C417 1.377 . S
C433 C431 1.389 . S
C433 C434 1.524 . S
C434 C433 1.524 . S
C434 C435 1.397 . S
C434 C439 1.363 . S
C435 H406 0.950 . S
C435 C434 1.397 . S
C435 C436 1.334 . S
C436 H407 0.950 . S
C436 C435 1.334 . S
C436 C437 1.287 . S
C437 C436 1.287 . S
C437 C438 1.524 . S
C437 H440 0.999 . S
C438 H408 0.950 . S
C438 C437 1.524 . S
C438 C439 1.415 . S
C439 H409 0.950 . S
C439 C434 1.363 . S
C439 C438 1.415 . S
H440 C437 0.999 . S
H441 C422 0.913 . S
H442 C460 0.951 . S
H443 C462 0.951 . S
H444 C464 0.950 . S
H445 C465 0.950 . S
H446 C467 0.950 . S
H447 C470 0.950 . S
H448 C471 0.950 . S
H449 C473 0.950 . S
H450 C474 0.950 . S
H451 C475 0.951 . S
H452 C477 0.951 . S
H453 C479 0.950 . S
H454 C480 0.950 . S
H455 C482 0.950 . S
H456 C485 0.950 . S
H457 C486 0.950 . S
H458 C488 0.950 . S
H459 C489 0.950 . S
C460 H442 0.951 . S
C460 C461 1.366 . S
C460 C462 1.388 . S
C461 C460 1.366 . S
C461 C465 1.385 . S
C462 H443 0.951 . S
C462 C460 1.388 . S
C462 C463 1.366 . S
C463 C462 1.366 . S
C463 C464 1.414 . S
C463 C466 1.499 . S
C464 H444 0.950 . S
C464 C463 1.414 . S
C464 C465 1.374 . S
C465 H445 0.950 . S
C465 C461 1.385 . S
C465 C464 1.374 . S
C466 C463 1.499 . S
C466 C467 1.373 . S
C466 C468 1.389 . S
C467 H446 0.950 . S
C467 C466 1.373 . S
C467 C483 1.377 . S
C468 C466 1.389 . S
C468 C469 1.524 . S
C468 C482 1.377 . S
C469 C468 1.524 . S
C469 C470 1.397 . S
C469 C474 1.363 . S
C470 H447 0.950 . S
C470 C469 1.397 . S
C470 C471 1.334 . S
C471 H448 0.950 . S
C471 C470 1.334 . S
C471 C472 1.287 . S
C472 C471 1.287 . S
C472 C473 1.524 . S
C472 H491 0.913 . S
C473 H449 0.950 . S
C473 C472 1.524 . S
C473 C474 1.415 . S
C474 H450 0.950 . S
C474 C469 1.363 . S
C474 C473 1.415 . S
C475 H451 0.951 . S
C475 C476 1.366 . S
C475 C477 1.388 . S
C476 C475 1.366 . S
C476 C480 1.385 . S
C477 H452 0.951 . S
C477 C475 1.388 . S
C477 C478 1.366 . S
C478 C477 1.366 . S
C478 C479 1.414 . S
C478 C481 1.499 . S
C479 H453 0.950 . S
C479 C478 1.414 . S
C479 C480 1.374 . S
C480 H454 0.950 . S
C480 C476 1.385 . S
C480 C479 1.374 . S
C481 C478 1.499 . S
C481 C482 1.373 . S
C481 C483 1.389 . S
C482 H455 0.950 . S
C482 C468 1.377 . S
C482 C481 1.373 . S
C483 C467 1.377 . S
C483 C481 1.389 . S
C483 C484 1.524 . S
C484 C483 1.524 . S
C484 C485 1.397 . S
C484 C489 1.363 . S
C485 H456 0.950 . S
C485 C484 1.397 . S
C485 C486 1.334 . S
C486 H457 0.950 . S
C486 C485 1.334 . S
C486 C487 1.287 . S
C487 C486 1.287 . S
C487 C488 1.524 . S
C487 H490 0.999 . S
C488 H458 0.950 . S
C488 C487 1.524 . S
C488 C489 1.415 . S
C489 H459 0.950 . S
C489 C484 1.363 . S
C489 C488 1.415 . S
H490 C487 0.999 . S
H491 C472 0.913 . S
H492 C510 0.951 . S
H493 C512 0.951 . S
H494 C514 0.950 . S
H495 C515 0.950 . S
H496 C517 0.950 . S
H497 C520 0.950 . S
H498 C521 0.950 . S
H499 C523 0.950 . S
H500 C524 0.950 . S
H501 C525 0.951 . S
H502 C527 0.951 . S
H503 C529 0.950 . S
H504 C530 0.950 . S
H505 C532 0.950 . S
H506 C535 0.950 . S
H507 C536 0.950 . S
H508 C538 0.950 . S
H509 C539 0.950 . S
C510 H492 0.951 . S
C510 C511 1.366 . S
C510 C512 1.388 . S
C511 C510 1.366 . S
C511 C515 1.385 . S
C512 H493 0.951 . S
C512 C510 1.388 . S
C512 C513 1.366 . S
C513 C512 1.366 . S
C513 C514 1.414 . S
C513 C516 1.499 . S
C514 H494 0.950 . S
C514 C513 1.414 . S
C514 C515 1.374 . S
C515 H495 0.950 . S
C515 C511 1.385 . S
C515 C514 1.374 . S
C516 C513 1.499 . S
C516 C517 1.373 . S
C516 C518 1.389 . S
C517 H496 0.950 . S
C517 C516 1.373 . S
C517 C533 1.377 . S
C518 C516 1.389 . S
C518 C519 1.524 . S
C518 C532 1.377 . S
C519 C518 1.524 . S
C519 C520 1.397 . S
C519 C524 1.363 . S
C520 H497 0.950 . S
C520 C519 1.397 . S
C520 C521 1.334 . S
C521 H498 0.950 . S
C521 C520 1.334 . S
C521 C522 1.287 . S
C522 C521 1.287 . S
C522 C523 1.524 . S
C522 H541 0.913 . S
C523 H499 0.950 . S
C523 C522 1.524 . S
C523 C524 1.415 . S
C524 H500 0.950 . S
C524 C519 1.363 . S
C524 C523 1.415 . S
C525 H501 0.951 . S
C525 C526 1.366 . S
C525 C527 1.388 . S
C526 C525 1.366 . S
C526 C530 1.385 . S
C527 H502 0.951 . S
C527 C525 1.388 . S
C527 C528 1.366 . S
C528 C527 1.366 . S
C528 C529 1.414 . S
C528 C531 1.499 . S
C529 H503 0.950 . S
C529 C528 1.414 . S
C529 C530 1.374 . S
C530 H504 0.950 . S
C530 C526 1.385 . S
C530 C529 1.374 . S
C531 C528 1.499 . S
C531 C532 1.373 . S
C531 C533 1.389 . S
C532 H505 0.950 . S
C532 C518 1.377 . S
C532 C531 1.373 . S
C533 C517 1.377 . S
C533 C531 1.389 . S
C533 C534 1.524 . S
C534 C533 1.524 . S
C534 C535 1.397 . S
C534 C539 1.363 . S
C535 H506 0.950 . S
C535 C534 1.397 . S
C535 C536 1.334 . S
C536 H507 0.950 . S
C536 C535 1.334 . S
C536 C537 1.287 . S
C537 C536 1.287 . S
C537 C538 1.524 . S
C537 H540 0.999 . S
C538 H508 0.950 . S
C538 C537 1.524 . S
C538 C539 1.415 . S
C539 H509 0.950 . S
C539 C534 1.363 . S
C539 C538 1.415 . S
H540 C537 0.999 . S
H541 C522 0.913 . S
H542 C560 0.951 . S
H543 C562 0.951 . S
H544 C564 0.950 . S
H545 C565 0.950 . S
H546 C567 0.950 . S
H547 C570 0.950 . S
H548 C571 0.950 . S
H549 C573 0.950 . S
H550 C574 0.950 . S
H551 C575 0.951 . S
H552 C577 0.951 . S
H553 C579 0.950 . S
H554 C580 0.950 . S
H555 C582 0.950 . S
H556 C585 0.950 . S
H557 C586 0.950 . S
H558 C588 0.950 . S
H559 C589 0.950 . S
C560 H542 0.951 . S
C560 C561 1.366 . S
C560 C562 1.388 . S
C561 C560 1.366 . S
C561 C565 1.385 . S
C562 H543 0.951 . S
C562 C560 1.388 . S
C562 C563 1.366 . S
C563 C562 1.366 . S
C563 C564 1.414 . S
C563 C566 1.499 . S
C564 H544 0.950 . S
C564 C563 1.414 . S
C564 C565 1.374 . S
C565 H545 0.950 . S
C565 C561 1.385 . S
C565 C564 1.374 . S
C566 C563 1.499 . S
C566 C567 1.373 . S
C566 C568 1.389 . S
C567 H546 0.950 . S
C567 C566 1.373 . S
C567 C583 1.377 . S
C568 C566 1.389 . S
C568 C569 1.524 . S
C568 C582 1.377 . S
C569 C568 1.524 . S
C569 C570 1.397 . S
C569 C574 1.363 . S
C570 H547 0.950 . S
C570 C569 1.397 . S
C570 C571 1.334 . S
C571 H548 0.950 . S
C571 C570 1.334 . S
C571 C572 1.287 . S
C572 C571 1.287 . S
C572 C573 1.524 . S
C572 H591 0.913 . S
C573 H549 0.950 . S
C573 C572 1.524 . S
C573 C574 1.415 . S
C574 H550 0.950 . S
C574 C569 1.363 . S
C574 C573 1.415 . S
C575 H551 0.951 . S
C575 C576 1.366 . S
C575 C577 1.388 . S
C576 C575 1.366 . S
C576 C580 1.385 . S
C577 H552 0.951 . S
C577 C575 1.388 . S
C577 C578 1.366 . S
C578 C577 1.366 . S
C578 C579 1.414 . S
C578 C581 1.499 . S
C579 H553 0.950 . S
C579 C578 1.414 . S
C579 C580 1.374 . S
C580 H554 0.950 . S
C580 C576 1.385 . S
C580 C579 1.374 . S
C581 C578 1.499 . S
C581 C582 1.373 . S
C581 C583 1.389 . S
C582 H555 0.950 . S
C582 C568 1.377 . S
C582 C581 1.373 . S
C583 C567 1.377 . S
C583 C581 1.389 . S
C583 C584 1.524 . S
C584 C583 1.524 . S
C584 C585 1.397 . S
C584 C589 1.363 . S
C585 H556 0.950 . S
C585 C584 1.397 . S
C585 C586 1.334 . S
C586 H557 0.950 . S
C586 C585 1.334 . S
C586 C587 1.287 . S
C587 C586 1.287 . S
C587 C588 1.524 . S
C587 H590 0.999 . S
C588 H558 0.950 . S
C588 C587 1.524 . S
C588 C589 1.415 . S
C589 H559 0.950 . S
C589 C584 1.363 . S
C589 C588 1.415 . S
H590 C587 0.999 . S
H591 C572 0.913 . S
H592 C610 0.951 . S
H593 C612 0.951 . S
H594 C614 0.950 . S
H595 C615 0.950 . S
H596 C617 0.950 . S
H597 C620 0.950 . S
H598 C621 0.950 1_655 S
H599 C623 0.950 . S
H600 C624 0.950 . S
H601 C625 0.951 . S
H602 C627 0.951 . S
H603 C629 0.950 . S
H604 C630 0.950 . S
H605 C632 0.950 . S
H606 C635 0.950 . S
H607 C636 0.950 . S
H608 C638 0.950 . S
H609 C639 0.950 . S
C610 H592 0.951 . S
C610 C611 1.366 . S
C610 C612 1.388 . S
C611 C610 1.366 . S
C611 C615 1.385 . S
C612 H593 0.951 . S
C612 C610 1.388 . S
C612 C613 1.366 . S
C613 C612 1.366 . S
C613 C614 1.414 . S
C613 C616 1.499 . S
C614 H594 0.950 . S
C614 C613 1.414 . S
C614 C615 1.374 . S
C615 H595 0.950 . S
C615 C611 1.385 . S
C615 C614 1.374 . S
C616 C613 1.499 . S
C616 C617 1.373 . S
C616 C618 1.389 . S
C617 H596 0.950 . S
C617 C616 1.373 . S
C617 C633 1.377 . S
C618 C616 1.389 . S
C618 C619 1.524 . S
C618 C632 1.377 . S
C619 C618 1.524 . S
C619 C620 1.397 . S
C619 C624 1.363 . S
C620 H597 0.950 . S
C620 C619 1.397 . S
C620 C621 1.334 . S
C621 H598 0.950 1_455 S
C621 C620 1.334 . S
C621 C622 1.287 . S
C622 C621 1.287 . S
C622 C623 1.524 . S
C622 H641 0.913 . S
C623 H599 0.950 . S
C623 C622 1.524 . S
C623 C624 1.415 . S
C624 H600 0.950 . S
C624 C619 1.363 . S
C624 C623 1.415 . S
C625 H601 0.951 . S
C625 C626 1.366 . S
C625 C627 1.388 . S
C626 C625 1.366 . S
C626 C630 1.385 . S
C627 H602 0.951 . S
C627 C625 1.388 . S
C627 C628 1.366 . S
C628 C627 1.366 . S
C628 C629 1.414 . S
C628 C631 1.499 . S
C629 H603 0.950 . S
C629 C628 1.414 . S
C629 C630 1.374 . S
C630 H604 0.950 . S
C630 C626 1.385 . S
C630 C629 1.374 . S
C631 C628 1.499 . S
C631 C632 1.373 . S
C631 C633 1.389 . S
C632 H605 0.950 . S
C632 C618 1.377 . S
C632 C631 1.373 . S
C633 C617 1.377 . S
C633 C631 1.389 . S
C633 C634 1.524 . S
C634 C633 1.524 . S
C634 C635 1.397 . S
C634 C639 1.363 . S
C635 H606 0.950 . S
C635 C634 1.397 . S
C635 C636 1.334 . S
C636 H607 0.950 . S
C636 C635 1.334 . S
C636 C637 1.287 . S
C637 C636 1.287 . S
C637 C638 1.524 . S
C637 H640 0.999 . S
C638 H608 0.950 . S
C638 C637 1.524 . S
C638 C639 1.415 . S
C639 H609 0.950 . S
C639 C634 1.363 . S
C639 C638 1.415 . S
H640 C637 0.999 . S
H641 C622 0.913 . S
H642 C660 0.951 . S
H643 C662 0.951 . S
H644 C664 0.950 . S
H645 C665 0.950 . S
H646 C667 0.950 . S
H647 C670 0.950 1_545 S
H648 C671 0.950 . S
H649 C673 0.950 . S
H650 C674 0.950 . S
H651 C675 0.951 . S
H652 C677 0.951 . S
H653 C679 0.950 . S
H654 C680 0.950 . S
H655 C682 0.950 . S
H656 C685 0.950 . S
H657 C686 0.950 . S
H658 C688 0.950 . S
H659 C689 0.950 . S
C660 H642 0.951 . S
C660 C661 1.366 . S
C660 C662 1.388 . S
C661 C660 1.366 . S
C661 C665 1.385 . S
C662 H643 0.951 . S
C662 C660 1.388 . S
C662 C663 1.366 . S
C663 C662 1.366 . S
C663 C664 1.414 . S
C663 C666 1.499 . S
C664 H644 0.950 . S
C664 C663 1.414 . S
C664 C665 1.374 . S
C665 H645 0.950 . S
C665 C661 1.385 . S
C665 C664 1.374 . S
C666 C663 1.499 . S
C666 C667 1.373 . S
C666 C668 1.389 . S
C667 H646 0.950 . S
C667 C666 1.373 . S
C667 C683 1.377 . S
C668 C666 1.389 . S
C668 C669 1.524 . S
C668 C682 1.377 . S
C669 C668 1.524 . S
C669 C670 1.397 1_545 S
C669 C674 1.363 1_545 S
C670 H647 0.950 1_565 S
C670 C669 1.397 1_565 S
C670 C671 1.334 . S
C671 H648 0.950 . S
C671 C670 1.334 . S
C671 C672 1.287 . S
C672 C671 1.287 . S
C672 C673 1.524 . S
C672 H691 0.913 . S
C673 H649 0.950 . S
C673 C672 1.524 . S
C673 C674 1.415 . S
C674 H650 0.950 . S
C674 C669 1.363 1_565 S
C674 C673 1.415 . S
C675 H651 0.951 . S
C675 C676 1.366 . S
C675 C677 1.388 . S
C676 C675 1.366 . S
C676 C680 1.385 . S
C677 H652 0.951 . S
C677 C675 1.388 . S
C677 C678 1.366 . S
C678 C677 1.366 . S
C678 C679 1.414 . S
C678 C681 1.499 . S
C679 H653 0.950 . S
C679 C678 1.414 . S
C679 C680 1.374 . S
C680 H654 0.950 . S
C680 C676 1.385 . S
C680 C679 1.374 . S
C681 C678 1.499 . S
C681 C682 1.373 . S
C681 C683 1.389 . S
C682 H655 0.950 . S
C682 C668 1.377 . S
C682 C681 1.373 . S
C683 C667 1.377 . S
C683 C681 1.389 . S
C683 C684 1.524 . S
C684 C683 1.524 . S
C684 C685 1.397 . S
C684 C689 1.363 . S
C685 H656 0.950 . S
C685 C684 1.397 . S
C685 C686 1.334 . S
C686 H657 0.950 . S
C686 C685 1.334 . S
C686 C687 1.287 . S
C687 C686 1.287 . S
C687 C688 1.524 . S
C687 H690 0.999 . S
C688 H658 0.950 . S
C688 C687 1.524 . S
C688 C689 1.415 . S
C689 H659 0.950 . S
C689 C684 1.363 . S
C689 C688 1.415 . S
H690 C687 0.999 . S
H691 C672 0.913 . S
H692 C710 0.951 . S
H693 C712 0.951 . S
H694 C714 0.950 . S
H695 C715 0.950 . S
H696 C717 0.950 . S
H697 C720 0.950 . S
H698 C721 0.950 . S
H699 C723 0.950 . S
H700 C724 0.950 . S
H701 C725 0.951 . S
H702 C727 0.951 . S
H703 C729 0.950 . S
H704 C730 0.950 . S
H705 C732 0.950 . S
H706 C735 0.961 . S
H707 C736 0.950 . S
H708 C738 0.950 . S
H709 C739 0.950 1_655 S
C710 H692 0.951 . S
C710 C711 1.366 . S
C710 C712 1.388 . S
C711 C710 1.366 . S
C711 C715 1.385 . S
C712 H693 0.951 . S
C712 C710 1.388 . S
C712 C713 1.366 . S
C713 C712 1.366 . S
C713 C714 1.414 . S
C713 C716 1.499 . S
C714 H694 0.950 . S
C714 C713 1.414 . S
C714 C715 1.374 . S
C715 H695 0.950 . S
C715 C711 1.385 . S
C715 C714 1.374 . S
C716 C713 1.499 . S
C716 C717 1.373 . S
C716 C718 1.389 . S
C717 H696 0.950 . S
C717 C716 1.373 . S
C717 C733 1.377 . S
C718 C716 1.389 . S
C718 C719 1.524 . S
C718 C732 1.377 . S
C719 C718 1.524 . S
C719 C720 1.397 . S
C719 C724 1.363 . S
C720 H697 0.950 . S
C720 C719 1.397 . S
C720 C721 1.334 . S
C721 H698 0.950 . S
C721 C720 1.334 . S
C721 C722 1.287 . S
C722 C721 1.287 . S
C722 C723 1.524 . S
C722 H741 0.913 . S
C723 H699 0.950 . S
C723 C722 1.524 . S
C723 C724 1.415 . S
C724 H700 0.950 . S
C724 C719 1.363 . S
C724 C723 1.415 . S
C725 H701 0.951 . S
C725 C726 1.366 . S
C725 C727 1.388 . S
C726 C725 1.366 . S
C726 C730 1.385 . S
C727 H702 0.951 . S
C727 C725 1.388 . S
C727 C728 1.366 . S
C728 C727 1.366 . S
C728 C729 1.414 . S
C728 C731 1.499 . S
C729 H703 0.950 . S
C729 C728 1.414 . S
C729 C730 1.374 . S
C730 H704 0.950 . S
C730 C726 1.385 . S
C730 C729 1.374 . S
C731 C728 1.499 . S
C731 C732 1.373 . S
C731 C733 1.389 . S
C732 H705 0.950 . S
C732 C718 1.377 . S
C732 C731 1.373 . S
C733 C717 1.377 . S
C733 C731 1.389 . S
C733 C734 1.524 . S
C734 C733 1.524 . S
C734 C735 1.405 . S
C734 C739 1.363 1_655 S
C735 H706 0.961 . S
C735 C734 1.405 . S
C735 C736 1.315 1_655 S
C736 H707 0.950 . S
C736 C735 1.315 1_455 S
C736 C737 1.287 . S
C737 C736 1.287 . S
C737 C738 1.524 . S
C737 H740 0.999 . S
C738 H708 0.950 . S
C738 C737 1.524 . S
C738 C739 1.415 . S
C739 H709 0.950 1_455 S
C739 C734 1.363 1_455 S
C739 C738 1.415 . S
H740 C737 0.999 . S
H741 C722 0.913 . S
H742 C760 0.951 . S
H743 C762 0.951 . S
H744 C764 0.950 . S
H745 C765 0.950 1_545 S
H746 C767 0.950 . S
H747 C770 0.950 . S
H748 C771 0.950 . S
H749 C773 0.950 . S
H750 C774 0.950 . S
H751 C775 0.951 . S
H752 C777 0.951 . S
H753 C779 0.950 . S
H754 C780 0.950 . S
H755 C782 0.950 . S
H756 C785 0.950 . S
H757 C786 0.950 . S
H758 C788 0.950 . S
H759 C789 0.950 . S
C760 H742 0.951 . S
C760 C761 1.366 . S
C760 C762 1.388 . S
C761 C760 1.366 . S
C761 C765 1.385 . S
C762 H743 0.951 . S
C762 C760 1.388 . S
C762 C763 1.366 . S
C763 C762 1.366 . S
C763 C764 1.414 . S
C763 C766 1.499 . S
C764 H744 0.950 . S
C764 C763 1.414 . S
C764 C765 1.374 . S
C765 H745 0.950 1_565 S
C765 C761 1.385 . S
C765 C764 1.374 . S
C766 C763 1.499 . S
C766 C767 1.373 . S
C766 C768 1.389 . S
C767 H746 0.950 . S
C767 C766 1.373 . S
C767 C783 1.377 . S
C768 C766 1.389 . S
C768 C769 1.524 . S
C768 C782 1.377 . S
C769 C768 1.524 . S
C769 C770 1.397 . S
C769 C774 1.363 . S
C770 H747 0.950 . S
C770 C769 1.397 . S
C770 C771 1.334 . S
C771 H748 0.950 . S
C771 C770 1.334 . S
C771 C772 1.287 . S
C772 C771 1.287 . S
C772 C773 1.524 . S
C772 H791 0.913 . S
C773 H749 0.950 . S
C773 C772 1.524 . S
C773 C774 1.415 . S
C774 H750 0.950 . S
C774 C769 1.363 . S
C774 C773 1.415 . S
C775 H751 0.951 . S
C775 C776 1.366 . S
C775 C777 1.388 . S
C776 C775 1.366 . S
C776 C780 1.385 . S
C777 H752 0.951 . S
C777 C775 1.388 . S
C777 C778 1.366 . S
C778 C777 1.366 . S
C778 C779 1.414 . S
C778 C781 1.499 . S
C779 H753 0.950 . S
C779 C778 1.414 . S
C779 C780 1.374 . S
C780 H754 0.950 . S
C780 C776 1.385 . S
C780 C779 1.374 . S
C781 C778 1.499 . S
C781 C782 1.373 . S
C781 C783 1.389 . S
C782 H755 0.950 . S
C782 C768 1.377 . S
C782 C781 1.373 . S
C783 C767 1.377 . S
C783 C781 1.389 . S
C783 C784 1.524 . S
C784 C783 1.524 . S
C784 C785 1.397 . S
C784 C789 1.363 1_565 S
C785 H756 0.950 . S
C785 C784 1.397 . S
C785 C786 1.334 . S
C786 H757 0.950 . S
C786 C785 1.334 . S
C786 C787 1.287 1_565 S
C787 C786 1.287 1_545 S
C787 C788 1.524 . S
C787 H790 0.999 . S
C788 H758 0.950 . S
C788 C787 1.524 . S
C788 C789 1.415 . S
C789 H759 0.950 . S
C789 C784 1.363 1_545 S
C789 C788 1.415 . S
H790 C787 0.999 . S
H791 C772 0.913 . S
H792 C810 0.951 . S
H793 C812 0.951 . S
H794 C814 0.950 . S
H795 C815 0.950 . S
H796 C817 0.950 . S
H797 C820 0.950 . S
H798 C821 0.950 . S
H799 C823 0.950 . S
H800 C824 0.950 1_565 S
H801 C825 0.951 . S
H802 C827 0.951 . S
H803 C829 0.950 . S
H804 C830 0.950 . S
H805 C832 0.950 . S
H806 C835 0.950 . S
H807 C836 0.950 . S
H808 C838 0.950 . S
H809 C839 0.950 . S
C810 H792 0.951 . S
C810 C811 1.366 . S
C810 C812 1.388 . S
C811 C810 1.366 . S
C811 C815 1.385 . S
C812 H793 0.951 . S
C812 C810 1.388 . S
C812 C813 1.366 . S
C813 C812 1.366 . S
C813 C814 1.414 . S
C813 C816 1.499 . S
C814 H794 0.950 . S
C814 C813 1.414 . S
C814 C815 1.374 . S
C815 H795 0.950 . S
C815 C811 1.385 . S
C815 C814 1.374 . S
C816 C813 1.499 . S
C816 C817 1.373 . S
C816 C818 1.389 . S
C817 H796 0.950 . S
C817 C816 1.373 . S
C817 C833 1.377 . S
C818 C816 1.389 . S
C818 C819 1.524 . S
C818 C832 1.377 . S
C819 C818 1.524 . S
C819 C820 1.397 1_565 S
C819 C824 1.363 1_565 S
C820 H797 0.950 . S
C820 C819 1.397 1_545 S
C820 C821 1.334 . S
C821 H798 0.950 . S
C821 C820 1.334 . S
C821 C822 1.287 . S
C822 C821 1.287 . S
C822 C823 1.524 . S
C822 H841 0.913 . S
C823 H799 0.950 . S
C823 C822 1.524 . S
C823 C824 1.415 . S
C824 H800 0.950 1_545 S
C824 C819 1.363 1_545 S
C824 C823 1.415 . S
C825 H801 0.951 . S
C825 C826 1.366 . S
C825 C827 1.388 . S
C826 C825 1.366 . S
C826 C830 1.385 . S
C827 H802 0.951 . S
C827 C825 1.388 . S
C827 C828 1.366 . S
C828 C827 1.366 . S
C828 C829 1.414 . S
C828 C831 1.499 . S
C829 H803 0.950 . S
C829 C828 1.414 . S
C829 C830 1.374 . S
C830 H804 0.950 . S
C830 C826 1.385 . S
C830 C829 1.374 . S
C831 C828 1.499 . S
C831 C832 1.373 . S
C831 C833 1.389 . S
C832 H805 0.950 . S
C832 C818 1.377 . S
C832 C831 1.373 . S
C833 C817 1.377 . S
C833 C831 1.389 . S
C833 C834 1.524 . S
C834 C833 1.524 . S
C834 C835 1.397 . S
C834 C839 1.363 . S
C835 H806 0.950 . S
C835 C834 1.397 . S
C835 C836 1.334 . S
C836 H807 0.950 . S
C836 C835 1.334 . S
C836 C837 1.287 . S
C837 C836 1.287 . S
C837 C838 1.524 . S
C837 H840 0.999 . S
C838 H808 0.950 . S
C838 C837 1.524 . S
C838 C839 1.415 . S
C839 H809 0.950 . S
C839 C834 1.363 . S
C839 C838 1.415 . S
H840 C837 0.999 . S
H841 C822 0.913 . S
H842 C860 0.951 . S
H843 C862 0.951 . S
H844 C864 0.950 . S
H845 C865 0.950 . S
H846 C867 0.950 . S
H847 C870 0.950 . S
H848 C871 0.950 . S
H849 C873 0.950 . S
H850 C874 0.950 . S
H851 C875 0.951 . S
H852 C877 0.951 . S
H853 C879 0.950 . S
H854 C880 0.950 . S
H855 C882 0.950 . S
H856 C885 0.950 . S
H857 C886 0.950 . S
H858 C888 0.950 . S
H859 C889 0.950 . S
C860 H842 0.951 . S
C860 C861 1.366 . S
C860 C862 1.388 . S
C861 C860 1.366 . S
C861 C865 1.385 . S
C862 H843 0.951 . S
C862 C860 1.388 . S
C862 C863 1.366 . S
C863 C862 1.366 . S
C863 C864 1.414 . S
C863 C866 1.499 . S
C864 H844 0.950 . S
C864 C863 1.414 . S
C864 C865 1.374 . S
C865 H845 0.950 . S
C865 C861 1.385 . S
C865 C864 1.374 . S
C866 C863 1.499 . S
C866 C867 1.373 . S
C866 C868 1.389 . S
C867 H846 0.950 . S
C867 C866 1.373 . S
C867 C883 1.377 . S
C868 C866 1.389 . S
C868 C869 1.524 . S
C868 C882 1.377 . S
C869 C868 1.524 . S
C869 C870 1.397 . S
C869 C874 1.363 . S
C870 H847 0.950 . S
C870 C869 1.397 . S
C870 C871 1.334 . S
C871 H848 0.950 . S
C871 C870 1.334 . S
C871 C872 1.287 . S
C872 C871 1.287 . S
C872 C873 1.524 . S
C872 H891 0.913 . S
C873 H849 0.950 . S
C873 C872 1.524 . S
C873 C874 1.415 . S
C874 H850 0.950 . S
C874 C869 1.363 . S
C874 C873 1.415 . S
C875 H851 0.951 . S
C875 C876 1.366 . S
C875 C877 1.388 . S
C876 C875 1.366 . S
C876 C880 1.385 . S
C877 H852 0.951 . S
C877 C875 1.388 . S
C877 C878 1.366 . S
C878 C877 1.366 . S
C878 C879 1.414 . S
C878 C881 1.499 . S
C879 H853 0.950 . S
C879 C878 1.414 . S
C879 C880 1.374 . S
C880 H854 0.950 . S
C880 C876 1.385 . S
C880 C879 1.374 . S
C881 C878 1.499 . S
C881 C882 1.373 . S
C881 C883 1.389 . S
C882 H855 0.950 . S
C882 C868 1.377 . S
C882 C881 1.373 . S
C883 C867 1.377 . S
C883 C881 1.389 . S
C883 C884 1.524 . S
C884 C883 1.524 . S
C884 C885 1.397 . S
C884 C889 1.363 . S
C885 H856 0.950 . S
C885 C884 1.397 . S
C885 C886 1.334 1_455 S
C886 H857 0.950 . S
C886 C885 1.334 1_655 S
C886 C887 1.287 . S
C887 C886 1.287 . S
C887 C888 1.524 . S
C887 H890 0.999 . S
C888 H858 0.950 . S
C888 C887 1.524 . S
C888 C889 1.415 1_655 S
C889 H859 0.950 . S
C889 C884 1.363 . S
C889 C888 1.415 1_455 S
H890 C887 0.999 . S
H891 C872 0.913 . S
H892 C910 0.951 . S
H893 C912 0.951 . S
H894 C914 0.950 . S
H895 C915 0.950 . S
H896 C917 0.950 . S
H897 C920 0.950 . S
H898 C921 0.950 . S
H899 C923 0.950 . S
H900 C924 0.950 . S
H901 C925 0.951 . S
H902 C927 0.951 . S
H903 C929 0.950 . S
H904 C930 0.950 . S
H905 C932 0.950 . S
H906 C935 0.950 . S
H907 C936 0.938 1_565 S
H908 C938 0.950 . S
H909 C939 0.950 . S
C910 H892 0.951 . S
C910 C911 1.366 . S
C910 C912 1.388 . S
C911 C910 1.366 . S
C911 C915 1.385 . S
C912 H893 0.951 . S
C912 C910 1.388 . S
C912 C913 1.366 . S
C913 C912 1.366 . S
C913 C914 1.414 . S
C913 C916 1.499 . S
C914 H894 0.950 . S
C914 C913 1.414 . S
C914 C915 1.374 . S
C915 H895 0.950 . S
C915 C911 1.385 . S
C915 C914 1.374 . S
C916 C913 1.499 . S
C916 C917 1.373 . S
C916 C918 1.389 . S
C917 H896 0.950 . S
C917 C916 1.373 . S
C917 C933 1.377 . S
C918 C916 1.389 . S
C918 C919 1.524 . S
C918 C932 1.377 . S
C919 C918 1.524 . S
C919 C920 1.397 . S
C919 C924 1.363 . S
C920 H897 0.950 . S
C920 C919 1.397 . S
C920 C921 1.334 . S
C921 H898 0.950 . S
C921 C920 1.334 . S
C921 C922 1.287 . S
C922 C921 1.287 . S
C922 C923 1.524 . S
C922 H941 0.913 . S
C923 H899 0.950 . S
C923 C922 1.524 . S
C923 C924 1.415 . S
C924 H900 0.950 . S
C924 C919 1.363 . S
C924 C923 1.415 . S
C925 H901 0.951 . S
C925 C926 1.366 . S
C925 C927 1.388 . S
C926 C925 1.366 . S
C926 C930 1.385 . S
C927 H902 0.951 . S
C927 C925 1.388 . S
C927 C928 1.366 . S
C928 C927 1.366 . S
C928 C929 1.414 . S
C928 C931 1.499 . S
C929 H903 0.950 . S
C929 C928 1.414 . S
C929 C930 1.374 . S
C930 H904 0.950 . S
C930 C926 1.385 . S
C930 C929 1.374 . S
C931 C928 1.499 . S
C931 C932 1.373 . S
C931 C933 1.389 . S
C932 H905 0.950 . S
C932 C918 1.377 . S
C932 C931 1.373 . S
C933 C917 1.377 . S
C933 C931 1.389 . S
C933 C934 1.524 . S
C934 C933 1.524 . S
C934 C935 1.397 . S
C934 C939 1.363 . S
C935 H906 0.950 . S
C935 C934 1.397 . S
C935 C936 1.353 . S
C936 H907 0.938 1_545 S
C936 C935 1.353 . S
C936 C937 1.282 1_545 S
C937 C936 1.282 1_565 S
C937 C938 1.524 1_565 S
C937 H940 0.999 . S
C938 H908 0.950 . S
C938 C937 1.524 1_545 S
C938 C939 1.415 . S
C939 H909 0.950 . S
C939 C934 1.363 . S
C939 C938 1.415 . S
H940 C937 0.999 . S
H941 C922 0.913 . S
H942 C960 0.951 . S
H943 C962 0.951 . S
H944 C964 0.950 . S
H945 C965 0.950 1_455 S
H946 C967 0.950 . S
H947 C970 0.950 . S
H948 C971 0.950 . S
H949 C973 0.950 . S
H950 C974 0.950 . S
H951 C975 0.951 . S
H952 C977 0.951 . S
H953 C979 0.950 . S
H954 C980 0.950 . S
H955 C982 0.950 . S
H956 C985 0.950 . S
H957 C986 0.950 . S
H958 C988 0.950 . S
H959 C989 0.950 . S
C960 H942 0.951 . S
C960 C961 1.366 . S
C960 C962 1.388 . S
C961 C960 1.366 . S
C961 C965 1.385 . S
C962 H943 0.951 . S
C962 C960 1.388 . S
C962 C963 1.366 . S
C963 C962 1.366 . S
C963 C964 1.414 . S
C963 C966 1.499 . S
C964 H944 0.950 . S
C964 C963 1.414 . S
C964 C965 1.374 . S
C965 H945 0.950 1_655 S
C965 C961 1.385 . S
C965 C964 1.374 . S
C966 C963 1.499 . S
C966 C967 1.373 . S
C966 C968 1.389 . S
C967 H946 0.950 . S
C967 C966 1.373 . S
C967 C983 1.377 . S
C968 C966 1.389 . S
C968 C969 1.524 . S
C968 C982 1.377 . S
C969 C968 1.524 . S
C969 C970 1.397 . S
C969 C974 1.363 . S
C970 H947 0.950 . S
C970 C969 1.397 . S
C970 C971 1.334 . S
C971 H948 0.950 . S
C971 C970 1.334 . S
C971 C972 1.287 . S
C972 C971 1.287 . S
C972 C973 1.524 . S
C972 H991 0.913 . S
C973 H949 0.950 . S
C973 C972 1.524 . S
C973 C974 1.415 . S
C974 H950 0.950 . S
C974 C969 1.363 . S
C974 C973 1.415 . S
C975 H951 0.951 . S
C975 C976 1.366 . S
C975 C977 1.388 . S
C976 C975 1.366 . S
C976 C980 1.385 . S
C977 H952 0.951 . S
C977 C975 1.388 . S
C977 C978 1.366 . S
C978 C977 1.366 . S
C978 C979 1.414 . S
C978 C981 1.499 . S
C979 H953 0.950 . S
C979 C978 1.414 . S
C979 C980 1.374 . S
C980 H954 0.950 . S
C980 C976 1.385 . S
C980 C979 1.374 . S
C981 C978 1.499 . S
C981 C982 1.373 . S
C981 C983 1.389 . S
C982 H955 0.950 . S
C982 C968 1.377 . S
C982 C981 1.373 . S
C983 C967 1.377 . S
C983 C981 1.389 . S
C983 C984 1.524 . S
C984 C983 1.524 . S
C984 C985 1.397 . S
C984 C989 1.363 1_655 S
C985 H956 0.950 . S
C985 C984 1.397 . S
C985 C986 1.334 . S
C986 H957 0.950 . S
C986 C985 1.334 . S
C986 C987 1.287 1_655 S
C987 C986 1.287 1_455 S
C987 C988 1.524 . S
C987 H990 0.999 . S
C988 H958 0.950 . S
C988 C987 1.524 . S
C988 C989 1.415 . S
C989 H959 0.950 . S
C989 C984 1.363 1_455 S
C989 C988 1.415 . S
H990 C987 0.999 . S
H991 C972 0.913 . S
H992 C1010 0.951 . S
H993 C1012 0.951 . S
H994 C1014 0.950 . S
H995 C1015 0.950 . S
H996 C1017 0.950 . S
H997 C1020 0.950 . S
H998 C1021 0.950 . S
H999 C1023 0.950 . S
H1000 C1024 0.950 . S
H1001 C1025 0.951 . S
H1002 C1027 0.951 . S
H1003 C1029 0.950 . S
H1004 C1030 0.950 . S
H1005 C1032 0.950 . S
H1006 C1035 0.950 . S
H1007 C1036 0.950 . S
H1008 C1038 0.950 . S
H1009 C1039 0.950 . S
C1010 H992 0.951 . S
C1010 C1011 1.366 . S
C1010 C1012 1.388 . S
C1011 C1010 1.366 . S
C1011 C1015 1.385 . S
C1012 H993 0.951 . S
C1012 C1010 1.388 . S
C1012 C1013 1.366 . S
C1013 C1012 1.366 . S
C1013 C1014 1.414 . S
C1013 C1016 1.499 . S
C1014 H994 0.950 . S
C1014 C1013 1.414 . S
C1014 C1015 1.374 . S
C1015 H995 0.950 . S
C1015 C1011 1.385 . S
C1015 C1014 1.374 . S
C1016 C1013 1.499 . S
C1016 C1017 1.373 . S
C1016 C1018 1.389 . S
C1017 H996 0.950 . S
C1017 C1016 1.373 . S
C1017 C1033 1.377 . S
C1018 C1016 1.389 . S
C1018 C1019 1.524 . S
C1018 C1032 1.377 . S
C1019 C1018 1.524 . S
C1019 C1020 1.397 . S
C1019 C1024 1.363 . S
C1020 H997 0.950 . S
C1020 C1019 1.397 . S
C1020 C1021 1.334 . S
C1021 H998 0.950 . S
C1021 C1020 1.334 . S
C1021 C1022 1.287 . S
C1022 C1021 1.287 . S
C1022 C1023 1.524 . S
C1022 H1041 0.913 . S
C1023 H999 0.950 . S
C1023 C1022 1.524 . S
C1023 C1024 1.415 . S
C1024 H1000 0.950 . S
C1024 C1019 1.363 . S
C1024 C1023 1.415 . S
C1025 H1001 0.951 . S
C1025 C1026 1.366 . S
C1025 C1027 1.388 . S
C1026 C1025 1.366 . S
C1026 C1030 1.385 . S
C1027 H1002 0.951 . S
C1027 C1025 1.388 . S
C1027 C1028 1.366 . S
C1028 C1027 1.366 . S
C1028 C1029 1.414 . S
C1028 C1031 1.499 . S
C1029 H1003 0.950 . S
C1029 C1028 1.414 . S
C1029 C1030 1.374 . S
C1030 H1004 0.950 . S
C1030 C1026 1.385 . S
C1030 C1029 1.374 . S
C1031 C1028 1.499 . S
C1031 C1032 1.373 . S
C1031 C1033 1.389 . S
C1032 H1005 0.950 . S
C1032 C1018 1.377 . S
C1032 C1031 1.373 . S
C1033 C1017 1.377 . S
C1033 C1031 1.389 . S
C1033 C1034 1.524 . S
C1034 C1033 1.524 . S
C1034 C1035 1.397 . S
C1034 C1039 1.363 . S
C1035 H1006 0.950 . S
C1035 C1034 1.397 . S
C1035 C1036 1.334 . S
C1036 H1007 0.950 . S
C1036 C1035 1.334 . S
C1036 C1037 1.287 . S
C1037 C1036 1.287 . S
C1037 C1038 1.524 . S
C1037 H1040 0.999 . S
C1038 H1008 0.950 . S
C1038 C1037 1.524 . S
C1038 C1039 1.415 . S
C1039 H1009 0.950 . S
C1039 C1034 1.363 . S
C1039 C1038 1.415 . S
H1040 C1037 0.999 . S
H1041 C1022 0.913 . S
H1042 C1060 0.951 . S
H1043 C1062 0.951 . S
H1044 C1064 0.950 . S
H1045 C1065 0.950 . S
H1046 C1067 0.950 . S
H1047 C1070 0.950 . S
H1048 C1071 0.950 . S
H1049 C1073 0.950 . S
H1050 C1074 0.950 . S
H1051 C1075 0.951 . S
H1052 C1077 0.951 . S
H1053 C1079 0.950 . S
H1054 C1080 0.950 . S
H1055 C1082 0.950 . S
H1056 C1085 0.950 . S
H1057 C1086 0.950 . S
H1058 C1088 0.950 . S
H1059 C1089 0.950 . S
C1060 H1042 0.951 . S
C1060 C1061 1.366 . S
C1060 C1062 1.388 . S
C1061 C1060 1.366 . S
C1061 C1065 1.385 . S
C1062 H1043 0.951 . S
C1062 C1060 1.388 . S
C1062 C1063 1.366 . S
C1063 C1062 1.366 . S
C1063 C1064 1.414 . S
C1063 C1066 1.499 . S
C1064 H1044 0.950 . S
C1064 C1063 1.414 . S
C1064 C1065 1.374 . S
C1065 H1045 0.950 . S
C1065 C1061 1.385 . S
C1065 C1064 1.374 . S
C1066 C1063 1.499 . S
C1066 C1067 1.373 . S
C1066 C1068 1.389 . S
C1067 H1046 0.950 . S
C1067 C1066 1.373 . S
C1067 C1083 1.377 . S
C1068 C1066 1.389 . S
C1068 C1069 1.524 . S
C1068 C1082 1.377 . S
C1069 C1068 1.524 . S
C1069 C1070 1.397 . S
C1069 C1074 1.363 . S
C1070 H1047 0.950 . S
C1070 C1069 1.397 . S
C1070 C1071 1.334 . S
C1071 H1048 0.950 . S
C1071 C1070 1.334 . S
C1071 C1072 1.287 . S
C1072 C1071 1.287 . S
C1072 C1073 1.524 . S
C1072 H1091 0.913 . S
C1073 H1049 0.950 . S
C1073 C1072 1.524 . S
C1073 C1074 1.415 . S
C1074 H1050 0.950 . S
C1074 C1069 1.363 . S
C1074 C1073 1.415 . S
C1075 H1051 0.951 . S
C1075 C1076 1.366 . S
C1075 C1077 1.388 . S
C1076 C1075 1.366 . S
C1076 C1080 1.385 . S
C1077 H1052 0.951 . S
C1077 C1075 1.388 . S
C1077 C1078 1.366 . S
C1078 C1077 1.366 . S
C1078 C1079 1.414 . S
C1078 C1081 1.499 . S
C1079 H1053 0.950 . S
C1079 C1078 1.414 . S
C1079 C1080 1.374 . S
C1080 H1054 0.950 . S
C1080 C1076 1.385 . S
C1080 C1079 1.374 . S
C1081 C1078 1.499 . S
C1081 C1082 1.373 . S
C1081 C1083 1.389 . S
C1082 H1055 0.950 . S
C1082 C1068 1.377 . S
C1082 C1081 1.373 . S
C1083 C1067 1.377 . S
C1083 C1081 1.389 . S
C1083 C1084 1.524 . S
C1084 C1083 1.524 . S
C1084 C1085 1.397 . S
C1084 C1089 1.363 . S
C1085 H1056 0.950 . S
C1085 C1084 1.397 . S
C1085 C1086 1.334 . S
C1086 H1057 0.950 . S
C1086 C1085 1.334 . S
C1086 C1087 1.287 . S
C1087 C1086 1.287 . S
C1087 C1088 1.524 . S
C1087 H1090 0.999 . S
C1088 H1058 0.950 . S
C1088 C1087 1.524 . S
C1088 C1089 1.415 . S
C1089 H1059 0.950 . S
C1089 C1084 1.363 . S
C1089 C1088 1.415 . S
H1090 C1087 0.999 . S
H1091 C1072 0.913 . S
H1092 C1110 0.951 . S
H1093 C1112 0.951 . S
H1094 C1114 0.950 . S
H1095 C1115 0.950 . S
H1096 C1117 0.950 . S
H1097 C1120 0.950 . S
H1098 C1121 0.950 . S
H1099 C1123 0.950 . S
H1100 C1124 0.950 . S
H1101 C1125 0.951 . S
H1102 C1127 0.951 . S
H1103 C1129 0.950 . S
H1104 C1130 0.950 . S
H1105 C1132 0.950 . S
H1106 C1135 0.950 . S
H1107 C1136 0.950 . S
H1108 C1138 0.950 . S
H1109 C1139 0.950 . S
C1110 H1092 0.951 . S
C1110 C1111 1.366 . S
C1110 C1112 1.388 . S
C1111 C1110 1.366 . S
C1111 C1115 1.385 . S
C1112 H1093 0.951 . S
C1112 C1110 1.388 . S
C1112 C1113 1.366 . S
C1113 C1112 1.366 . S
C1113 C1114 1.414 . S
C1113 C1116 1.499 . S
C1114 H1094 0.950 . S
C1114 C1113 1.414 . S
C1114 C1115 1.374 . S
C1115 H1095 0.950 . S
C1115 C1111 1.385 . S
C1115 C1114 1.374 . S
C1116 C1113 1.499 . S
C1116 C1117 1.373 . S
C1116 C1118 1.389 . S
C1117 H1096 0.950 . S
C1117 C1116 1.373 . S
C1117 C1133 1.377 . S
C1118 C1116 1.389 . S
C1118 C1119 1.524 . S
C1118 C1132 1.377 . S
C1119 C1118 1.524 . S
C1119 C1120 1.397 . S
C1119 C1124 1.363 . S
C1120 H1097 0.950 . S
C1120 C1119 1.397 . S
C1120 C1121 1.334 . S
C1121 H1098 0.950 . S
C1121 C1120 1.334 . S
C1121 C1122 1.287 . S
C1122 C1121 1.287 . S
C1122 C1123 1.524 . S
C1122 H1141 0.913 . S
C1123 H1099 0.950 . S
C1123 C1122 1.524 . S
C1123 C1124 1.415 . S
C1124 H1100 0.950 . S
C1124 C1119 1.363 . S
C1124 C1123 1.415 . S
C1125 H1101 0.951 . S
C1125 C1126 1.366 . S
C1125 C1127 1.388 . S
C1126 C1125 1.366 . S
C1126 C1130 1.385 . S
C1127 H1102 0.951 . S
C1127 C1125 1.388 . S
C1127 C1128 1.366 . S
C1128 C1127 1.366 . S
C1128 C1129 1.414 . S
C1128 C1131 1.499 . S
C1129 H1103 0.950 . S
C1129 C1128 1.414 . S
C1129 C1130 1.374 . S
C1130 H1104 0.950 . S
C1130 C1126 1.385 . S
C1130 C1129 1.374 . S
C1131 C1128 1.499 . S
C1131 C1132 1.373 . S
C1131 C1133 1.389 . S
C1132 H1105 0.950 . S
C1132 C1118 1.377 . S
C1132 C1131 1.373 . S
C1133 C1117 1.377 . S
C1133 C1131 1.389 . S
C1133 C1134 1.524 . S
C1134 C1133 1.524 . S
C1134 C1135 1.397 . S
C1134 C1139 1.363 . S
C1135 H1106 0.950 . S
C1135 C1134 1.397 . S
C1135 C1136 1.334 . S
C1136 H1107 0.950 . S
C1136 C1135 1.334 . S
C1136 C1137 1.287 . S
C1137 C1136 1.287 . S
C1137 C1138 1.524 . S
C1137 H1140 0.999 . S
C1138 H1108 0.950 . S
C1138 C1137 1.524 . S
C1138 C1139 1.415 . S
C1139 H1109 0.950 . S
C1139 C1134 1.363 . S
C1139 C1138 1.415 . S
H1140 C1137 0.999 . S
H1141 C1122 0.913 . S
H1142 C1160 0.951 . S
H1143 C1162 0.951 . S
H1144 C1164 0.950 . S
H1145 C1165 0.950 . S
H1146 C1167 0.950 . S
H1147 C1170 0.950 . S
H1148 C1171 0.950 . S
H1149 C1173 0.950 . S
H1150 C1174 0.950 . S
H1151 C1175 0.951 . S
H1152 C1177 0.951 . S
H1153 C1179 0.950 . S
H1154 C1180 0.950 . S
H1155 C1182 0.950 . S
H1156 C1185 0.950 . S
H1157 C1186 0.950 . S
H1158 C1188 0.950 . S
H1159 C1189 0.950 . S
C1160 H1142 0.951 . S
C1160 C1161 1.366 . S
C1160 C1162 1.388 . S
C1161 C1160 1.366 . S
C1161 C1165 1.385 . S
C1162 H1143 0.951 . S
C1162 C1160 1.388 . S
C1162 C1163 1.366 . S
C1163 C1162 1.366 . S
C1163 C1164 1.414 . S
C1163 C1166 1.499 . S
C1164 H1144 0.950 . S
C1164 C1163 1.414 . S
C1164 C1165 1.374 . S
C1165 H1145 0.950 . S
C1165 C1161 1.385 . S
C1165 C1164 1.374 . S
C1166 C1163 1.499 . S
C1166 C1167 1.373 . S
C1166 C1168 1.389 . S
C1167 H1146 0.950 . S
C1167 C1166 1.373 . S
C1167 C1183 1.377 . S
C1168 C1166 1.389 . S
C1168 C1169 1.524 . S
C1168 C1182 1.377 . S
C1169 C1168 1.524 . S
C1169 C1170 1.397 . S
C1169 C1174 1.363 . S
C1170 H1147 0.950 . S
C1170 C1169 1.397 . S
C1170 C1171 1.334 . S
C1171 H1148 0.950 . S
C1171 C1170 1.334 . S
C1171 C1172 1.287 . S
C1172 C1171 1.287 . S
C1172 C1173 1.524 . S
C1172 H1191 0.913 . S
C1173 H1149 0.950 . S
C1173 C1172 1.524 . S
C1173 C1174 1.415 . S
C1174 H1150 0.950 . S
C1174 C1169 1.363 . S
C1174 C1173 1.415 . S
C1175 H1151 0.951 . S
C1175 C1176 1.366 . S
C1175 C1177 1.388 . S
C1176 C1175 1.366 . S
C1176 C1180 1.385 . S
C1177 H1152 0.951 . S
C1177 C1175 1.388 . S
C1177 C1178 1.366 . S
C1178 C1177 1.366 . S
C1178 C1179 1.414 . S
C1178 C1181 1.499 . S
C1179 H1153 0.950 . S
C1179 C1178 1.414 . S
C1179 C1180 1.374 . S
C1180 H1154 0.950 . S
C1180 C1176 1.385 . S
C1180 C1179 1.374 . S
C1181 C1178 1.499 . S
C1181 C1182 1.373 . S
C1181 C1183 1.389 . S
C1182 H1155 0.950 . S
C1182 C1168 1.377 . S
C1182 C1181 1.373 . S
C1183 C1167 1.377 . S
C1183 C1181 1.389 . S
C1183 C1184 1.524 . S
C1184 C1183 1.524 . S
C1184 C1185 1.397 . S
C1184 C1189 1.363 . S
C1185 H1156 0.950 . S
C1185 C1184 1.397 . S
C1185 C1186 1.334 . S
C1186 H1157 0.950 . S
C1186 C1185 1.334 . S
C1186 C1187 1.287 . S
C1187 C1186 1.287 . S
C1187 C1188 1.524 . S
C1187 H1190 0.999 . S
C1188 H1158 0.950 . S
C1188 C1187 1.524 . S
C1188 C1189 1.415 . S
C1189 H1159 0.950 . S
C1189 C1184 1.363 . S
C1189 C1188 1.415 . S
H1190 C1187 0.999 . S
H1191 C1172 0.913 . S
H1192 C1210 0.951 . S
H1193 C1212 0.951 . S
H1194 C1214 0.950 . S
H1195 C1215 0.950 . S
H1196 C1217 0.950 . S
H1197 C1220 0.950 . S
H1198 C1221 0.950 . S
H1199 C1223 0.950 . S
H1200 C1224 0.950 . S
H1201 C1225 0.951 . S
H1202 C1227 0.951 . S
H1203 C1229 0.950 . S
H1204 C1230 0.950 . S
H1205 C1232 0.950 . S
H1206 C1235 0.950 . S
H1207 C1236 0.950 . S
H1208 C1238 0.950 . S
H1209 C1239 0.950 . S
C1210 H1192 0.951 . S
C1210 C1211 1.366 . S
C1210 C1212 1.388 . S
C1211 C1210 1.366 . S
C1211 C1215 1.385 . S
C1212 H1193 0.951 . S
C1212 C1210 1.388 . S
C1212 C1213 1.366 . S
C1213 C1212 1.366 . S
C1213 C1214 1.414 . S
C1213 C1216 1.499 . S
C1214 H1194 0.950 . S
C1214 C1213 1.414 . S
C1214 C1215 1.374 . S
C1215 H1195 0.950 . S
C1215 C1211 1.385 . S
C1215 C1214 1.374 . S
C1216 C1213 1.499 . S
C1216 C1217 1.373 . S
C1216 C1218 1.389 . S
C1217 H1196 0.950 . S
C1217 C1216 1.373 . S
C1217 C1233 1.377 . S
C1218 C1216 1.389 . S
C1218 C1219 1.524 . S
C1218 C1232 1.377 . S
C1219 C1218 1.524 . S
C1219 C1220 1.397 . S
C1219 C1224 1.363 . S
C1220 H1197 0.950 . S
C1220 C1219 1.397 . S
C1220 C1221 1.334 . S
C1221 H1198 0.950 . S
C1221 C1220 1.334 . S
C1221 C1222 1.287 . S
C1222 C1221 1.287 . S
C1222 C1223 1.524 . S
C1222 H1241 0.913 . S
C1223 H1199 0.950 . S
C1223 C1222 1.524 . S
C1223 C1224 1.415 . S
C1224 H1200 0.950 . S
C1224 C1219 1.363 . S
C1224 C1223 1.415 . S
C1225 H1201 0.951 . S
C1225 C1226 1.366 . S
C1225 C1227 1.388 . S
C1226 C1225 1.366 . S
C1226 C1230 1.385 . S
C1227 H1202 0.951 . S
C1227 C1225 1.388 . S
C1227 C1228 1.366 . S
C1228 C1227 1.366 . S
C1228 C1229 1.414 . S
C1228 C1231 1.499 . S
C1229 H1203 0.950 . S
C1229 C1228 1.414 . S
C1229 C1230 1.374 . S
C1230 H1204 0.950 . S
C1230 C1226 1.385 . S
C1230 C1229 1.374 . S
C1231 C1228 1.499 . S
C1231 C1232 1.373 . S
C1231 C1233 1.389 . S
C1232 H1205 0.950 . S
C1232 C1218 1.377 . S
C1232 C1231 1.373 . S
C1233 C1217 1.377 . S
C1233 C1231 1.389 . S
C1233 C1234 1.524 . S
C1234 C1233 1.524 . S
C1234 C1235 1.397 . S
C1234 C1239 1.363 . S
C1235 H1206 0.950 . S
C1235 C1234 1.397 . S
C1235 C1236 1.334 . S
C1236 H1207 0.950 . S
C1236 C1235 1.334 . S
C1236 C1237 1.287 . S
C1237 C1236 1.287 . S
C1237 C1238 1.524 . S
C1237 H1240 0.999 . S
C1238 H1208 0.950 . S
C1238 C1237 1.524 . S
C1238 C1239 1.415 . S
C1239 H1209 0.950 . S
C1239 C1234 1.363 . S
C1239 C1238 1.415 . S
H1240 C1237 0.999 . S
H1241 C1222 0.913 . S
H1242 C1260 0.951 . S
H1243 C1262 0.951 . S
H1244 C1264 0.950 . S
H1245 C1265 0.950 . S
H1246 C1267 0.950 . S
H1247 C1270 0.950 . S
H1248 C1271 0.950 . S
H1249 C1273 0.950 . S
H1250 C1274 0.950 . S
H1251 C1275 0.951 . S
H1252 C1277 0.951 . S
H1253 C1279 0.950 . S
H1254 C1280 0.950 . S
H1255 C1282 0.950 . S
H1256 C1285 0.950 . S
H1257 C1286 0.950 . S
H1258 C1288 0.950 . S
H1259 C1289 0.950 . S
C1260 H1242 0.951 . S
C1260 C1261 1.366 . S
C1260 C1262 1.388 . S
C1261 C1260 1.366 . S
C1261 C1265 1.385 . S
C1262 H1243 0.951 . S
C1262 C1260 1.388 . S
C1262 C1263 1.366 . S
C1263 C1262 1.366 . S
C1263 C1264 1.414 . S
C1263 C1266 1.499 . S
C1264 H1244 0.950 . S
C1264 C1263 1.414 . S
C1264 C1265 1.374 . S
C1265 H1245 0.950 . S
C1265 C1261 1.385 . S
C1265 C1264 1.374 . S
C1266 C1263 1.499 . S
C1266 C1267 1.373 . S
C1266 C1268 1.389 . S
C1267 H1246 0.950 . S
C1267 C1266 1.373 . S
C1267 C1283 1.377 . S
C1268 C1266 1.389 . S
C1268 C1269 1.524 . S
C1268 C1282 1.377 . S
C1269 C1268 1.524 . S
C1269 C1270 1.397 . S
C1269 C1274 1.363 . S
C1270 H1247 0.950 . S
C1270 C1269 1.397 . S
C1270 C1271 1.334 . S
C1271 H1248 0.950 . S
C1271 C1270 1.334 . S
C1271 C1272 1.287 . S
C1272 C1271 1.287 . S
C1272 C1273 1.524 . S
C1272 H1291 0.913 . S
C1273 H1249 0.950 . S
C1273 C1272 1.524 . S
C1273 C1274 1.415 . S
C1274 H1250 0.950 . S
C1274 C1269 1.363 . S
C1274 C1273 1.415 . S
C1275 H1251 0.951 . S
C1275 C1276 1.366 . S
C1275 C1277 1.388 . S
C1276 C1275 1.366 . S
C1276 C1280 1.385 . S
C1277 H1252 0.951 . S
C1277 C1275 1.388 . S
C1277 C1278 1.366 . S
C1278 C1277 1.366 . S
C1278 C1279 1.414 . S
C1278 C1281 1.499 . S
C1279 H1253 0.950 . S
C1279 C1278 1.414 . S
C1279 C1280 1.374 . S
C1280 H1254 0.950 . S
C1280 C1276 1.385 . S
C1280 C1279 1.374 . S
C1281 C1278 1.499 . S
C1281 C1282 1.373 . S
C1281 C1283 1.389 . S
C1282 H1255 0.950 . S
C1282 C1268 1.377 . S
C1282 C1281 1.373 . S
C1283 C1267 1.377 . S
C1283 C1281 1.389 . S
C1283 C1284 1.524 . S
C1284 C1283 1.524 . S
C1284 C1285 1.397 . S
C1284 C1289 1.363 . S
C1285 H1256 0.950 . S
C1285 C1284 1.397 . S
C1285 C1286 1.334 . S
C1286 H1257 0.950 . S
C1286 C1285 1.334 . S
C1286 C1287 1.287 . S
C1287 C1286 1.287 . S
C1287 C1288 1.524 . S
C1287 H1290 0.999 . S
C1288 H1258 0.950 . S
C1288 C1287 1.524 . S
C1288 C1289 1.415 . S
C1289 H1259 0.950 . S
C1289 C1284 1.363 . S
C1289 C1288 1.415 . S
H1290 C1287 0.999 . S
H1291 C1272 0.913 . S
H1292 C1310 0.951 . S
H1293 C1312 0.951 . S
H1294 C1314 0.950 . S
H1295 C1315 0.950 . S
H1296 C1317 0.950 . S
H1297 C1320 0.950 . S
H1298 C1321 0.950 . S
H1299 C1323 0.950 . S
H1300 C1324 0.950 . S
H1301 C1325 0.951 . S
H1302 C1327 0.951 . S
H1303 C1329 0.950 . S
H1304 C1330 0.950 . S
H1305 C1332 0.950 . S
H1306 C1335 0.950 . S
H1307 C1336 0.950 . S
H1308 C1338 0.950 . S
H1309 C1339 0.950 . S
C1310 H1292 0.951 . S
C1310 C1311 1.366 . S
C1310 C1312 1.388 . S
C1311 C1310 1.366 . S
C1311 C1315 1.385 . S
C1312 H1293 0.951 . S
C1312 C1310 1.388 . S
C1312 C1313 1.366 . S
C1313 C1312 1.366 . S
C1313 C1314 1.414 . S
C1313 C1316 1.499 . S
C1314 H1294 0.950 . S
C1314 C1313 1.414 . S
C1314 C1315 1.374 . S
C1315 H1295 0.950 . S
C1315 C1311 1.385 . S
C1315 C1314 1.374 . S
C1316 C1313 1.499 . S
C1316 C1317 1.373 . S
C1316 C1318 1.389 . S
C1317 H1296 0.950 . S
C1317 C1316 1.373 . S
C1317 C1333 1.377 . S
C1318 C1316 1.389 . S
C1318 C1319 1.524 . S
C1318 C1332 1.377 . S
C1319 C1318 1.524 . S
C1319 C1320 1.397 . S
C1319 C1324 1.363 . S
C1320 H1297 0.950 . S
C1320 C1319 1.397 . S
C1320 C1321 1.334 . S
C1321 H1298 0.950 . S
C1321 C1320 1.334 . S
C1321 C1322 1.287 . S
C1322 C1321 1.287 . S
C1322 C1323 1.524 . S
C1322 H1341 0.913 . S
C1323 H1299 0.950 . S
C1323 C1322 1.524 . S
C1323 C1324 1.415 . S
C1324 H1300 0.950 . S
C1324 C1319 1.363 . S
C1324 C1323 1.415 . S
C1325 H1301 0.951 . S
C1325 C1326 1.366 . S
C1325 C1327 1.388 . S
C1326 C1325 1.366 . S
C1326 C1330 1.385 . S
C1327 H1302 0.951 . S
C1327 C1325 1.388 . S
C1327 C1328 1.366 . S
C1328 C1327 1.366 . S
C1328 C1329 1.414 . S
C1328 C1331 1.499 . S
C1329 H1303 0.950 . S
C1329 C1328 1.414 . S
C1329 C1330 1.374 . S
C1330 H1304 0.950 . S
C1330 C1326 1.385 . S
C1330 C1329 1.374 . S
C1331 C1328 1.499 . S
C1331 C1332 1.373 . S
C1331 C1333 1.389 . S
C1332 H1305 0.950 . S
C1332 C1318 1.377 . S
C1332 C1331 1.373 . S
C1333 C1317 1.377 . S
C1333 C1331 1.389 . S
C1333 C1334 1.524 . S
C1334 C1333 1.524 . S
C1334 C1335 1.397 . S
C1334 C1339 1.363 . S
C1335 H1306 0.950 . S
C1335 C1334 1.397 . S
C1335 C1336 1.334 . S
C1336 H1307 0.950 . S
C1336 C1335 1.334 . S
C1336 C1337 1.287 . S
C1337 C1336 1.287 . S
C1337 C1338 1.524 . S
C1337 H1340 0.999 . S
C1338 H1308 0.950 . S
C1338 C1337 1.524 . S
C1338 C1339 1.415 . S
C1339 H1309 0.950 . S
C1339 C1334 1.363 . S
C1339 C1338 1.415 . S
H1340 C1337 0.999 . S
H1341 C1322 0.913 . S
H1342 C1360 0.951 . S
H1343 C1362 0.951 . S
H1344 C1364 0.950 . S
H1345 C1365 0.950 . S
H1346 C1367 0.950 . S
H1347 C1370 0.950 . S
H1348 C1371 0.950 . S
H1349 C1373 0.950 . S
H1350 C1374 0.950 . S
H1351 C1375 0.951 . S
H1352 C1377 0.951 . S
H1353 C1379 0.950 . S
H1354 C1380 0.950 . S
H1355 C1382 0.950 . S
H1356 C1385 0.950 . S
H1357 C1386 0.950 . S
H1358 C1388 0.950 . S
H1359 C1389 0.950 . S
C1360 H1342 0.951 . S
C1360 C1361 1.366 . S
C1360 C1362 1.388 . S
C1361 C1360 1.366 . S
C1361 C1365 1.385 . S
C1362 H1343 0.951 . S
C1362 C1360 1.388 . S
C1362 C1363 1.366 . S
C1363 C1362 1.366 . S
C1363 C1364 1.414 . S
C1363 C1366 1.499 . S
C1364 H1344 0.950 . S
C1364 C1363 1.414 . S
C1364 C1365 1.374 . S
C1365 H1345 0.950 . S
C1365 C1361 1.385 . S
C1365 C1364 1.374 . S
C1366 C1363 1.499 . S
C1366 C1367 1.373 . S
C1366 C1368 1.389 . S
C1367 H1346 0.950 . S
C1367 C1366 1.373 . S
C1367 C1383 1.377 . S
C1368 C1366 1.389 . S
C1368 C1369 1.524 . S
C1368 C1382 1.377 . S
C1369 C1368 1.524 . S
C1369 C1370 1.397 . S
C1369 C1374 1.363 . S
C1370 H1347 0.950 . S
C1370 C1369 1.397 . S
C1370 C1371 1.334 . S
C1371 H1348 0.950 . S
C1371 C1370 1.334 . S
C1371 C1372 1.287 . S
C1372 C1371 1.287 . S
C1372 C1373 1.524 . S
C1372 H1391 0.913 . S
C1373 H1349 0.950 . S
C1373 C1372 1.524 . S
C1373 C1374 1.415 . S
C1374 H1350 0.950 . S
C1374 C1369 1.363 . S
C1374 C1373 1.415 . S
C1375 H1351 0.951 . S
C1375 C1376 1.366 . S
C1375 C1377 1.388 . S
C1376 C1375 1.366 . S
C1376 C1380 1.385 . S
C1377 H1352 0.951 . S
C1377 C1375 1.388 . S
C1377 C1378 1.366 . S
C1378 C1377 1.366 . S
C1378 C1379 1.414 . S
C1378 C1381 1.499 . S
C1379 H1353 0.950 . S
C1379 C1378 1.414 . S
C1379 C1380 1.374 . S
C1380 H1354 0.950 . S
C1380 C1376 1.385 . S
C1380 C1379 1.374 . S
C1381 C1378 1.499 . S
C1381 C1382 1.373 . S
C1381 C1383 1.389 . S
C1382 H1355 0.950 . S
C1382 C1368 1.377 . S
C1382 C1381 1.373 . S
C1383 C1367 1.377 . S
C1383 C1381 1.389 . S
C1383 C1384 1.524 . S
C1384 C1383 1.524 . S
C1384 C1385 1.397 . S
C1384 C1389 1.363 . S
C1385 H1356 0.950 . S
C1385 C1384 1.397 . S
C1385 C1386 1.334 . S
C1386 H1357 0.950 . S
C1386 C1385 1.334 . S
C1386 C1387 1.287 . S
C1387 C1386 1.287 . S
C1387 C1388 1.524 . S
C1387 H1390 0.999 . S
C1388 H1358 0.950 . S
C1388 C1387 1.524 . S
C1388 C1389 1.415 . S
C1389 H1359 0.950 . S
C1389 C1384 1.363 . S
C1389 C1388 1.415 . S
H1390 C1387 0.999 . S
H1391 C1372 0.913 . S
C211 C45 1.609 . S
C226 C112 1.585 . S
C261 C30 1.600 . S
C276 C123 1.621 . S
C311 C39 1.610 . S
C326 C134 1.587 . S
C376 C145 1.577 . S
C361 C34 1.600 . S
C411 C97 1.609 . S
C426 C156 1.585 . S
C476 C167 1.620 . S
C461 C82 1.599 . S
C526 C178 1.587 . S
C511 C91 1.610 . S
C576 C189 1.576 . S
C561 C86 1.599 . S
C626 C175 1.108 . S
C611 C26 1.320 . S
C676 C186 1.245 . S
C661 C36 1.484 . S
C726 C153 1.109 . S
C711 C32 1.324 . S
C776 C166 1.561 . S
C761 C42 1.520 . S
C811 C18 1.559 . S
C826 C164 1.519 . S
C876 C177 1.757 . S
C861 C50 1.776 . S
C911 C4 1.601 . S
C926 C188 1.583 . S
C961 C48 1.773 . S
C976 C155 1.761 . S
C1026 C131 1.109 . S
C1011 C78 1.320 . S
C1061 C88 1.484 . S
C1076 C142 1.243 . S
C1126 C109 1.109 . S
C1111 C84 1.324 . S
C1176 C122 1.562 . S
C1161 C94 1.521 . S
C1226 C120 1.519 . S
C1211 C70 1.559 . S
C1276 C133 1.758 . S
C1261 C102 1.776 . S
C1311 C56 1.602 . S
C1326 C144 1.584 . S
C1361 C100 1.773 . S
C1376 C111 1.761 . S
