# Generated by pormake.
# Topology gar, (4,6)-cn, num edge types: 1
# Building blocks:
#     Node 0, Type 0, BuildingBlock: TATPOV_clean_sbu_0, # of connection points: 4
#     Node 1, Type 0, BuildingBlock: TATPOV_clean_sbu_0, # of connection points: 4
#     Node 2, Type 0, BuildingBlock: TATPOV_clean_sbu_0, # of connection points: 4
#     Node 3, Type 0, BuildingBlock: TATPOV_clean_sbu_0, # of connection points: 4
#     Node 4, Type 0, BuildingBlock: TATPOV_clean_sbu_0, # of connection points: 4
#     Node 5, Type 0, BuildingBlock: TATPOV_clean_sbu_0, # of connection points: 4
#     Node 6, Type 0, BuildingBlock: TATPOV_clean_sbu_0, # of connection points: 4
#     Node 7, Type 0, BuildingBlock: TATPOV_clean_sbu_0, # of connection points: 4
#     Node 8, Type 0, BuildingBlock: TATPOV_clean_sbu_0, # of connection points: 4
#     Node 9, Type 0, BuildingBlock: TATPOV_clean_sbu_0, # of connection points: 4
#     Node 10, Type 0, BuildingBlock: TATPOV_clean_sbu_0, # of connection points: 4
#     Node 11, Type 0, BuildingBlock: TATPOV_clean_sbu_0, # of connection points: 4
#     Node 12, Type 0, BuildingBlock: TATPOV_clean_sbu_0, # of connection points: 4
#     Node 13, Type 0, BuildingBlock: TATPOV_clean_sbu_0, # of connection points: 4
#     Node 14, Type 0, BuildingBlock: TATPOV_clean_sbu_0, # of connection points: 4
#     Node 15, Type 0, BuildingBlock: TATPOV_clean_sbu_0, # of connection points: 4
#     Node 16, Type 0, BuildingBlock: TATPOV_clean_sbu_0, # of connection points: 4
#     Node 17, Type 0, BuildingBlock: TATPOV_clean_sbu_0, # of connection points: 4
#     Node 18, Type 0, BuildingBlock: TATPOV_clean_sbu_0, # of connection points: 4
#     Node 19, Type 0, BuildingBlock: TATPOV_clean_sbu_0, # of connection points: 4
#     Node 20, Type 0, BuildingBlock: TATPOV_clean_sbu_0, # of connection points: 4
#     Node 21, Type 0, BuildingBlock: TATPOV_clean_sbu_0, # of connection points: 4
#     Node 22, Type 0, BuildingBlock: TATPOV_clean_sbu_0, # of connection points: 4
#     Node 23, Type 0, BuildingBlock: TATPOV_clean_sbu_0, # of connection points: 4
#     Node 24, Type 1, BuildingBlock: KUMBOL_clean_sbu_0, # of connection points: 6
#     Node 25, Type 1, BuildingBlock: KUMBOL_clean_sbu_0, # of connection points: 6
#     Node 26, Type 1, BuildingBlock: KUMBOL_clean_sbu_0, # of connection points: 6
#     Node 27, Type 1, BuildingBlock: KUMBOL_clean_sbu_0, # of connection points: 6
#     Node 28, Type 1, BuildingBlock: KUMBOL_clean_sbu_0, # of connection points: 6
#     Node 29, Type 1, BuildingBlock: KUMBOL_clean_sbu_0, # of connection points: 6
#     Node 30, Type 1, BuildingBlock: KUMBOL_clean_sbu_0, # of connection points: 6
#     Node 31, Type 1, BuildingBlock: KUMBOL_clean_sbu_0, # of connection points: 6
#     Node 32, Type 1, BuildingBlock: KUMBOL_clean_sbu_0, # of connection points: 6
#     Node 33, Type 1, BuildingBlock: KUMBOL_clean_sbu_0, # of connection points: 6
#     Node 34, Type 1, BuildingBlock: KUMBOL_clean_sbu_0, # of connection points: 6
#     Node 35, Type 1, BuildingBlock: KUMBOL_clean_sbu_0, # of connection points: 6
#     Node 36, Type 1, BuildingBlock: KUMBOL_clean_sbu_0, # of connection points: 6
#     Node 37, Type 1, BuildingBlock: KUMBOL_clean_sbu_0, # of connection points: 6
#     Node 38, Type 1, BuildingBlock: KUMBOL_clean_sbu_0, # of connection points: 6
#     Node 39, Type 1, BuildingBlock: KUMBOL_clean_sbu_0, # of connection points: 6
#     Edge 40, Type (0, 1), BuildingBlock: XIVTED_clean_linker_0, # of connection points: 2
#     Edge 41, Type (0, 1), BuildingBlock: XIVTED_clean_linker_0, # of connection points: 2
#     Edge 42, Type (0, 1), BuildingBlock: XIVTED_clean_linker_0, # of connection points: 2
#     Edge 43, Type (0, 1), BuildingBlock: XIVTED_clean_linker_0, # of connection points: 2
#     Edge 44, Type (0, 1), BuildingBlock: XIVTED_clean_linker_0, # of connection points: 2
#     Edge 45, Type (0, 1), BuildingBlock: XIVTED_clean_linker_0, # of connection points: 2
#     Edge 46, Type (0, 1), BuildingBlock: XIVTED_clean_linker_0, # of connection points: 2
#     Edge 47, Type (0, 1), BuildingBlock: XIVTED_clean_linker_0, # of connection points: 2
#     Edge 48, Type (0, 1), BuildingBlock: XIVTED_clean_linker_0, # of connection points: 2
#     Edge 49, Type (0, 1), BuildingBlock: XIVTED_clean_linker_0, # of connection points: 2
#     Edge 50, Type (0, 1), BuildingBlock: XIVTED_clean_linker_0, # of connection points: 2
#     Edge 51, Type (0, 1), BuildingBlock: XIVTED_clean_linker_0, # of connection points: 2
#     Edge 52, Type (0, 1), BuildingBlock: XIVTED_clean_linker_0, # of connection points: 2
#     Edge 53, Type (0, 1), BuildingBlock: XIVTED_clean_linker_0, # of connection points: 2
#     Edge 54, Type (0, 1), BuildingBlock: XIVTED_clean_linker_0, # of connection points: 2
#     Edge 55, Type (0, 1), BuildingBlock: XIVTED_clean_linker_0, # of connection points: 2
#     Edge 56, Type (0, 1), BuildingBlock: XIVTED_clean_linker_0, # of connection points: 2
#     Edge 57, Type (0, 1), BuildingBlock: XIVTED_clean_linker_0, # of connection points: 2
#     Edge 58, Type (0, 1), BuildingBlock: XIVTED_clean_linker_0, # of connection points: 2
#     Edge 59, Type (0, 1), BuildingBlock: XIVTED_clean_linker_0, # of connection points: 2
#     Edge 60, Type (0, 1), BuildingBlock: XIVTED_clean_linker_0, # of connection points: 2
#     Edge 61, Type (0, 1), BuildingBlock: XIVTED_clean_linker_0, # of connection points: 2
#     Edge 62, Type (0, 1), BuildingBlock: XIVTED_clean_linker_0, # of connection points: 2
#     Edge 63, Type (0, 1), BuildingBlock: XIVTED_clean_linker_0, # of connection points: 2
#     Edge 64, Type (0, 1), BuildingBlock: XIVTED_clean_linker_0, # of connection points: 2
#     Edge 65, Type (0, 1), BuildingBlock: XIVTED_clean_linker_0, # of connection points: 2
#     Edge 66, Type (0, 1), BuildingBlock: XIVTED_clean_linker_0, # of connection points: 2
#     Edge 67, Type (0, 1), BuildingBlock: XIVTED_clean_linker_0, # of connection points: 2
#     Edge 68, Type (0, 1), BuildingBlock: XIVTED_clean_linker_0, # of connection points: 2
#     Edge 69, Type (0, 1), BuildingBlock: XIVTED_clean_linker_0, # of connection points: 2
#     Edge 70, Type (0, 1), BuildingBlock: XIVTED_clean_linker_0, # of connection points: 2
#     Edge 71, Type (0, 1), BuildingBlock: XIVTED_clean_linker_0, # of connection points: 2
#     Edge 72, Type (0, 1), BuildingBlock: XIVTED_clean_linker_0, # of connection points: 2
#     Edge 73, Type (0, 1), BuildingBlock: XIVTED_clean_linker_0, # of connection points: 2
#     Edge 74, Type (0, 1), BuildingBlock: XIVTED_clean_linker_0, # of connection points: 2
#     Edge 75, Type (0, 1), BuildingBlock: XIVTED_clean_linker_0, # of connection points: 2
#     Edge 76, Type (0, 1), BuildingBlock: XIVTED_clean_linker_0, # of connection points: 2
#     Edge 77, Type (0, 1), BuildingBlock: XIVTED_clean_linker_0, # of connection points: 2
#     Edge 78, Type (0, 1), BuildingBlock: XIVTED_clean_linker_0, # of connection points: 2
#     Edge 79, Type (0, 1), BuildingBlock: XIVTED_clean_linker_0, # of connection points: 2
#     Edge 80, Type (0, 1), BuildingBlock: XIVTED_clean_linker_0, # of connection points: 2
#     Edge 81, Type (0, 1), BuildingBlock: XIVTED_clean_linker_0, # of connection points: 2
#     Edge 82, Type (0, 1), BuildingBlock: XIVTED_clean_linker_0, # of connection points: 2
#     Edge 83, Type (0, 1), BuildingBlock: XIVTED_clean_linker_0, # of connection points: 2
#     Edge 84, Type (0, 1), BuildingBlock: XIVTED_clean_linker_0, # of connection points: 2
#     Edge 85, Type (0, 1), BuildingBlock: XIVTED_clean_linker_0, # of connection points: 2
#     Edge 86, Type (0, 1), BuildingBlock: XIVTED_clean_linker_0, # of connection points: 2
#     Edge 87, Type (0, 1), BuildingBlock: XIVTED_clean_linker_0, # of connection points: 2
#     Edge 88, Type (0, 1), BuildingBlock: XIVTED_clean_linker_0, # of connection points: 2
#     Edge 89, Type (0, 1), BuildingBlock: XIVTED_clean_linker_0, # of connection points: 2
#     Edge 90, Type (0, 1), BuildingBlock: XIVTED_clean_linker_0, # of connection points: 2
#     Edge 91, Type (0, 1), BuildingBlock: XIVTED_clean_linker_0, # of connection points: 2
#     Edge 92, Type (0, 1), BuildingBlock: XIVTED_clean_linker_0, # of connection points: 2
#     Edge 93, Type (0, 1), BuildingBlock: XIVTED_clean_linker_0, # of connection points: 2
#     Edge 94, Type (0, 1), BuildingBlock: XIVTED_clean_linker_0, # of connection points: 2
#     Edge 95, Type (0, 1), BuildingBlock: XIVTED_clean_linker_0, # of connection points: 2
#     Edge 96, Type (0, 1), BuildingBlock: XIVTED_clean_linker_0, # of connection points: 2
#     Edge 97, Type (0, 1), BuildingBlock: XIVTED_clean_linker_0, # of connection points: 2
#     Edge 98, Type (0, 1), BuildingBlock: XIVTED_clean_linker_0, # of connection points: 2
#     Edge 99, Type (0, 1), BuildingBlock: XIVTED_clean_linker_0, # of connection points: 2
#     Edge 100, Type (0, 1), BuildingBlock: XIVTED_clean_linker_0, # of connection points: 2
#     Edge 101, Type (0, 1), BuildingBlock: XIVTED_clean_linker_0, # of connection points: 2
#     Edge 102, Type (0, 1), BuildingBlock: XIVTED_clean_linker_0, # of connection points: 2
#     Edge 103, Type (0, 1), BuildingBlock: XIVTED_clean_linker_0, # of connection points: 2
#     Edge 104, Type (0, 1), BuildingBlock: XIVTED_clean_linker_0, # of connection points: 2
#     Edge 105, Type (0, 1), BuildingBlock: XIVTED_clean_linker_0, # of connection points: 2
#     Edge 106, Type (0, 1), BuildingBlock: XIVTED_clean_linker_0, # of connection points: 2
#     Edge 107, Type (0, 1), BuildingBlock: XIVTED_clean_linker_0, # of connection points: 2
#     Edge 108, Type (0, 1), BuildingBlock: XIVTED_clean_linker_0, # of connection points: 2
#     Edge 109, Type (0, 1), BuildingBlock: XIVTED_clean_linker_0, # of connection points: 2
#     Edge 110, Type (0, 1), BuildingBlock: XIVTED_clean_linker_0, # of connection points: 2
#     Edge 111, Type (0, 1), BuildingBlock: XIVTED_clean_linker_0, # of connection points: 2
#     Edge 112, Type (0, 1), BuildingBlock: XIVTED_clean_linker_0, # of connection points: 2
#     Edge 113, Type (0, 1), BuildingBlock: XIVTED_clean_linker_0, # of connection points: 2
#     Edge 114, Type (0, 1), BuildingBlock: XIVTED_clean_linker_0, # of connection points: 2
#     Edge 115, Type (0, 1), BuildingBlock: XIVTED_clean_linker_0, # of connection points: 2
#     Edge 116, Type (0, 1), BuildingBlock: XIVTED_clean_linker_0, # of connection points: 2
#     Edge 117, Type (0, 1), BuildingBlock: XIVTED_clean_linker_0, # of connection points: 2
#     Edge 118, Type (0, 1), BuildingBlock: XIVTED_clean_linker_0, # of connection points: 2
#     Edge 119, Type (0, 1), BuildingBlock: XIVTED_clean_linker_0, # of connection points: 2
#     Edge 120, Type (0, 1), BuildingBlock: XIVTED_clean_linker_0, # of connection points: 2
#     Edge 121, Type (0, 1), BuildingBlock: XIVTED_clean_linker_0, # of connection points: 2
#     Edge 122, Type (0, 1), BuildingBlock: XIVTED_clean_linker_0, # of connection points: 2
#     Edge 123, Type (0, 1), BuildingBlock: XIVTED_clean_linker_0, # of connection points: 2
#     Edge 124, Type (0, 1), BuildingBlock: XIVTED_clean_linker_0, # of connection points: 2
#     Edge 125, Type (0, 1), BuildingBlock: XIVTED_clean_linker_0, # of connection points: 2
#     Edge 126, Type (0, 1), BuildingBlock: XIVTED_clean_linker_0, # of connection points: 2
#     Edge 127, Type (0, 1), BuildingBlock: XIVTED_clean_linker_0, # of connection points: 2
#     Edge 128, Type (0, 1), BuildingBlock: XIVTED_clean_linker_0, # of connection points: 2
#     Edge 129, Type (0, 1), BuildingBlock: XIVTED_clean_linker_0, # of connection points: 2
#     Edge 130, Type (0, 1), BuildingBlock: XIVTED_clean_linker_0, # of connection points: 2
#     Edge 131, Type (0, 1), BuildingBlock: XIVTED_clean_linker_0, # of connection points: 2
#     Edge 132, Type (0, 1), BuildingBlock: XIVTED_clean_linker_0, # of connection points: 2
#     Edge 133, Type (0, 1), BuildingBlock: XIVTED_clean_linker_0, # of connection points: 2
#     Edge 134, Type (0, 1), BuildingBlock: XIVTED_clean_linker_0, # of connection points: 2
#     Edge 135, Type (0, 1), BuildingBlock: XIVTED_clean_linker_0, # of connection points: 2
# Relax obj value: 0.137
# Max RMSD: 0.331
# Mean RMSD: 0.171
data_MOF--net-gar--node1-TATPOV_clean_sbu_0--node2-KUMBOL_clean_sbu_0--edge1-XIVTED_clean_linker_0
_symmetry_space_group_name_H-M    P1
_symmetry_Int_Tables_number       1
_symmetry_cell_setting            triclinic
loop_
_symmetry_equiv_pos_as_xyz
'x, y, z'
_cell_length_a     61.352346
_cell_length_b     56.58487
_cell_length_c     56.928224
_cell_angle_alpha  101.00961
_cell_angle_beta   94.111136
_cell_angle_gamma 104.54986
loop_
_atom_site_label
_atom_site_type_symbol
_atom_site_fract_x
_atom_site_fract_y
_atom_site_fract_z
_atom_type_partial_charge
Zn0 Zn 0.10674 0.34541 0.42988 0.0
Zn1 Zn 0.12753 0.33914 0.39423 0.0
O2 O 0.14263 0.3755 0.41129 0.0
O3 O 0.12464 0.37995 0.44305 0.0
O4 O 0.14864 0.33441 0.37121 0.0
O5 O 0.11383 0.31939 0.44466 0.0
O6 O 0.12562 0.309 0.40965 0.0
C7 C 0.13975 0.38884 0.43079 0.0
C8 C 0.07908 0.33391 0.38311 0.0
O9 O 0.09779 0.33498 0.37461 0.0
O10 O 0.07851 0.33716 0.4057 0.0
C11 C 0.15069 0.34331 0.35247 0.0
O12 O 0.13681 0.3558 0.34588 0.0
C13 C 0.12079 0.30426 0.42986 0.0
Zn14 Zn 0.99622 0.71779 0.68039 0.0
Zn15 Zn 0.99982 0.75323 0.65905 0.0
O16 O 0.97839 0.75981 0.68342 0.0
O17 O 0.98422 0.73543 0.70775 0.0
O18 O 0.00544 0.78073 0.64134 0.0
O19 O 0.02938 0.72081 0.67941 0.0
O20 O 0.03206 0.75852 0.67324 0.0
C21 C 0.97522 0.75193 0.70274 0.0
C22 C 0.97695 0.69898 0.63404 0.0
O23 O 0.98798 0.72103 0.63307 0.0
O24 O 0.97414 0.6935 0.65429 0.0
C25 C 0.99292 0.78365 0.62406 0.0
O26 O 0.97261 0.76819 0.61706 0.0
C27 C 0.04131 0.74197 0.67768 0.0
Zn28 Zn 0.60107 0.83975 0.91996 0.0
Zn29 Zn 0.6287 0.83457 0.89422 0.0
O30 O 0.64551 0.86997 0.91247 0.0
O31 O 0.61379 0.87631 0.92458 0.0
O32 O 0.64766 0.82509 0.86973 0.0
O33 O 0.61101 0.82359 0.94463 0.0
O34 O 0.62586 0.80688 0.91395 0.0
C35 C 0.6345 0.88457 0.9223 0.0
C36 C 0.5798 0.82587 0.87515 0.0
O37 O 0.60052 0.83431 0.87267 0.0
O38 O 0.57453 0.82125 0.89513 0.0
C39 C 0.65227 0.83607 0.85252 0.0
O40 O 0.64625 0.85662 0.85164 0.0
C41 C 0.62015 0.80716 0.93506 0.0
Zn42 Zn 0.49358 0.21477 0.1764 0.0
Zn43 Zn 0.5013 0.25516 0.15711 0.0
O44 O 0.47978 0.26087 0.18121 0.0
O45 O 0.47797 0.23125 0.20168 0.0
O46 O 0.50609 0.28443 0.14168 0.0
O47 O 0.52758 0.22093 0.18021 0.0
O48 O 0.53297 0.25805 0.17128 0.0
C49 C 0.47291 0.25081 0.19843 0.0
C50 C 0.47913 0.20246 0.12675 0.0
O51 O 0.48978 0.22531 0.12903 0.0
O52 O 0.47579 0.19342 0.14528 0.0
C53 C 0.49387 0.28369 0.12248 0.0
O54 O 0.47685 0.26387 0.11349 0.0
C55 C 0.54074 0.24135 0.17803 0.0
Zn56 Zn 0.13052 0.81794 0.08004 0.0
Zn57 Zn 0.10254 0.81741 0.11352 0.0
O58 O 0.09936 0.84764 0.09758 0.0
O59 O 0.12047 0.84655 0.06804 0.0
O60 O 0.07793 0.81602 0.13608 0.0
O61 O 0.11569 0.78108 0.064 0.0
O62 O 0.09372 0.78053 0.09286 0.0
C63 C 0.10692 0.85637 0.07971 0.0
C64 C 0.15299 0.82406 0.12989 0.0
O65 O 0.13302 0.82289 0.13565 0.0
O66 O 0.15636 0.82353 0.10802 0.0
C67 C 0.05819 0.81754 0.12909 0.0
O68 O 0.05376 0.8203 0.10701 0.0
C69 C 0.10049 0.76893 0.07443 0.0
Zn70 Zn 0.49201 0.76076 0.46219 0.0
Zn71 Zn 0.52064 0.76197 0.42886 0.0
O72 O 0.52751 0.79864 0.44911 0.0
O73 O 0.50545 0.79789 0.47787 0.0
O74 O 0.5467 0.76334 0.40735 0.0
O75 O 0.50215 0.73304 0.47483 0.0
O76 O 0.52418 0.73253 0.44612 0.0
C77 C 0.52025 0.81019 0.46713 0.0
C78 C 0.46979 0.75357 0.41248 0.0
O79 O 0.48995 0.75603 0.40673 0.0
O80 O 0.46637 0.75336 0.43421 0.0
C81 C 0.56014 0.7839 0.40533 0.0
O82 O 0.55614 0.80498 0.41552 0.0
C83 C 0.51632 0.72371 0.46385 0.0
Zn84 Zn 0.63159 0.31765 0.58054 0.0
Zn85 Zn 0.60244 0.31601 0.613 0.0
O86 O 0.59859 0.34487 0.59553 0.0
O87 O 0.62275 0.34711 0.56893 0.0
O88 O 0.57766 0.31495 0.63543 0.0
O89 O 0.61671 0.28087 0.56396 0.0
O90 O 0.59505 0.27876 0.59308 0.0
C91 C 0.60737 0.35507 0.57896 0.0
C92 C 0.65265 0.32405 0.63076 0.0
O93 O 0.63265 0.3234 0.63606 0.0
O94 O 0.65647 0.32228 0.60894 0.0
C95 C 0.55881 0.3193 0.62952 0.0
O96 O 0.55512 0.32468 0.60839 0.0
C97 C 0.60212 0.26789 0.57445 0.0
Zn98 Zn 0.99304 0.26441 0.96398 0.0
Zn99 Zn 0.02046 0.26643 0.93058 0.0
O100 O 0.02837 0.3036 0.95108 0.0
O101 O 0.00538 0.30168 0.97899 0.0
O102 O 0.04528 0.26811 0.90781 0.0
O103 O 0.00394 0.23669 0.97632 0.0
O104 O 0.02508 0.23651 0.94685 0.0
C105 C 0.02045 0.31452 0.96896 0.0
C106 C 0.96913 0.25809 0.9157 0.0
O107 O 0.98899 0.26028 0.90915 0.0
O108 O 0.96643 0.25759 0.93753 0.0
C109 C 0.06518 0.28252 0.91538 0.0
O110 O 0.06899 0.29674 0.93718 0.0
C111 C 0.01784 0.22744 0.96471 0.0
Zn112 Zn 0.45024 1.00194 0.30092 0.0
Zn113 Zn 0.42915 0.04346 0.29827 0.0
O114 O 0.44216 0.04763 0.33135 0.0
O115 O 0.43295 0.00771 0.33052 0.0
O116 O 0.41452 0.07028 0.30009 0.0
O117 O 0.45022 0.00989 0.26758 0.0
O118 O 0.45139 0.04979 0.27603 0.0
C119 C 0.43877 0.03006 0.34247 0.0
C120 C 0.40049 0.99267 0.29373 0.0
O121 O 0.40352 0.01222 0.28529 0.0
O122 O 0.41676 0.98801 0.30566 0.0
C123 C 0.39647 0.06733 0.30995 0.0
O124 O 0.38921 0.04734 0.31876 0.0
C125 C 0.45268 0.03063 0.26135 0.0
Zn126 Zn 0.27683 0.22782 0.50688 0.0
Zn127 Zn 0.30311 0.19762 0.50842 0.0
O128 O 0.31021 0.21275 0.47849 0.0
O129 O 0.29206 0.24189 0.48058 0.0
O130 O 0.32766 0.17997 0.511 0.0
O131 O 0.28614 0.24561 0.54172 0.0
O132 O 0.30794 0.22028 0.54266 0.0
C133 C 0.30523 0.23045 0.47032 0.0
C134 C 0.25269 0.17428 0.49851 0.0
O135 O 0.27232 0.17106 0.50281 0.0
O136 O 0.25058 0.19599 0.49831 0.0
C137 C 0.32916 0.16084 0.49602 0.0
O138 O 0.31323 0.15041 0.47765 0.0
C139 C 0.30016 0.23778 0.55339 0.0
Zn140 Zn 0.15427 0.03419 0.76883 0.0
Zn141 Zn 0.18105 1.00499 0.76619 0.0
O142 O 0.16225 1.00422 0.80044 0.0
O143 O 0.1378 0.02623 0.79694 0.0
O144 O 0.20087 0.97425 0.76342 0.0
O145 O 0.13786 0.02592 0.73493 0.0
O146 O 0.16208 1.00316 0.72842 0.0
C147 C 0.14616 0.01337 0.80909 0.0
C148 C 0.20191 0.06342 0.77566 0.0
O149 O 0.20587 0.0417 0.77206 0.0
O150 O 0.18162 0.06471 0.77607 0.0
C151 C 0.20746 0.96383 0.78029 0.0
O152 O 0.20228 0.9715 0.80191 0.0
C153 C 0.14642 0.01251 0.71994 0.0
Zn154 Zn 0.37612 0.94842 0.01762 0.0
Zn155 Zn 0.33341 0.94835 0.01358 0.0
O156 O 0.34176 0.93342 0.98088 0.0
O157 O 0.37279 0.92203 0.98957 0.0
O158 O 0.30249 0.9515 0.0075 0.0
O159 O 0.36648 0.93638 0.04815 0.0
O160 O 0.32999 0.92463 0.03449 0.0
C161 C 0.35658 0.92197 0.97456 0.0
C162 C 0.3677 0.99314 0.02285 0.0
O163 O 0.35214 0.98238 0.03357 0.0
O164 O 0.37325 0.97954 0.00553 0.0
C165 C 0.29925 0.9662 0.9943 0.0
O166 O 0.3162 0.97736 0.98396 0.0
C167 C 0.34618 0.92467 0.04949 0.0
Zn168 Zn 0.34617 0.35619 0.03479 0.0
Zn169 Zn 0.31553 0.38089 0.0289 0.0
O170 O 0.31134 0.35649 0.99583 0.0
O171 O 0.3384 0.33788 1.00002 0.0
O172 O 0.29004 0.39686 0.02536 0.0
O173 O 0.33089 0.34153 0.06077 0.0
O174 O 0.30874 0.36652 0.05909 0.0
C175 C 0.32239 0.34133 0.98696 0.0
C176 C 0.3655 0.40939 0.03982 0.0
O177 O 0.34513 0.40917 0.0334 0.0
O178 O 0.37024 0.38953 0.04278 0.0
C179 C 0.29177 0.41971 0.03426 0.0
O180 O 0.31131 0.43422 0.04571 0.0
C181 C 0.31544 0.35069 0.06883 0.0
Zn182 Zn 0.73957 0.16142 0.04069 0.0
Zn183 Zn 0.79342 0.13531 0.03627 0.0
O184 O 0.78103 0.15107 0.00954 0.0
O185 O 0.74999 0.16596 0.00841 0.0
O186 O 0.82066 0.12624 0.02763 0.0
O187 O 0.7709 0.16273 0.05673 0.0
O188 O 0.80392 0.15977 0.06835 0.0
C189 C 0.76729 0.16094 0.99932 0.0
C190 C 0.75195 0.11249 0.04047 0.0
O191 O 0.76874 0.10354 0.03838 0.0
O192 O 0.75633 0.13601 0.04612 0.0
C193 C 0.81848 0.10404 0.01665 0.0
O194 O 0.7981 0.0891 0.00865 0.0
C195 C 0.78845 0.17048 0.07214 0.0
Zn196 Zn 0.16855 0.58521 0.25111 0.0
Zn197 Zn 0.19407 0.53447 0.23312 0.0
O198 O 0.2012 0.53749 0.26949 0.0
O199 O 0.19273 0.56988 0.26214 0.0
O200 O 0.19984 0.5028 0.21727 0.0
O201 O 0.14783 0.56393 0.22097 0.0
O202 O 0.16076 0.53348 0.22977 0.0
C203 C 0.19378 0.55614 0.27692 0.0
C204 C 0.21698 0.58727 0.23072 0.0
O205 O 0.21499 0.56406 0.22339 0.0
O206 O 0.20217 0.59529 0.24233 0.0
C207 C 0.21939 0.50379 0.21088 0.0
O208 O 0.23289 0.5256 0.21009 0.0
C209 C 0.14985 0.54184 0.21508 0.0
Zn210 Zn 0.84101 0.8531 0.53401 0.0
Zn211 Zn 0.81572 0.88192 0.53268 0.0
O212 O 0.81089 0.86034 0.49731 0.0
O213 O 0.83299 0.83549 0.49962 0.0
O214 O 0.79088 0.89963 0.53207 0.0
O215 O 0.82824 0.83751 0.56018 0.0
O216 O 0.80822 0.86481 0.56181 0.0
C217 C 0.81953 0.84327 0.48717 0.0
C218 C 0.86657 0.90495 0.54115 0.0
O219 O 0.84708 0.90906 0.53853 0.0
O220 O 0.86796 0.88299 0.54111 0.0
C221 C 0.79337 0.92057 0.52615 0.0
O222 O 0.81299 0.93161 0.52005 0.0
C223 C 0.81404 0.84755 0.57006 0.0
Zn224 Zn 0.965 0.04294 0.26716 0.0
Zn225 Zn 0.94325 0.07626 0.27164 0.0
O226 O 0.96319 0.07856 0.30937 0.0
O227 O 0.98237 0.05079 0.30009 0.0
O228 O 0.92471 0.10808 0.27099 0.0
O229 O 0.98134 0.0478 0.23857 0.0
O230 O 0.96279 0.0761 0.23753 0.0
C231 C 0.97722 0.06636 0.31628 0.0
C232 C 0.91821 0.01739 0.26359 0.0
O233 O 0.91657 0.04018 0.26692 0.0
O234 O 0.93752 0.01353 0.26218 0.0
C235 C 0.91585 0.12193 0.28666 0.0
O236 O 0.91728 0.11841 0.30881 0.0
C237 C 0.97649 0.06374 0.22782 0.0
Zn238 Zn 0.25788 0.64539 0.52934 0.0
Zn239 Zn 0.29216 0.63404 0.5321 0.0
O240 O 0.29465 0.64817 0.50215 0.0
O241 O 0.25778 0.63567 0.4931 0.0
O242 O 0.3197 0.62339 0.53847 0.0
O243 O 0.27062 0.68095 0.54567 0.0
O244 O 0.29269 0.66127 0.56128 0.0
C245 C 0.27719 0.64406 0.48697 0.0
C246 C 0.25084 0.60087 0.5391 0.0
O247 O 0.26649 0.60209 0.52571 0.0
O248 O 0.24916 0.62113 0.55147 0.0
C249 C 0.32361 0.6084 0.52085 0.0
O250 O 0.30992 0.60181 0.50049 0.0
C251 C 0.2849 0.68027 0.56245 0.0
Zn252 Zn 0.46916 0.54721 0.76707 0.0
Zn253 Zn 0.44242 0.57583 0.7729 0.0
O254 O 0.46283 0.57863 0.81032 0.0
O255 O 0.48611 0.55548 0.80048 0.0
O256 O 0.42226 0.60599 0.77254 0.0
O257 O 0.48522 0.55485 0.73848 0.0
O258 O 0.46008 0.5765 0.73804 0.0
C259 C 0.47877 0.56867 0.81696 0.0
C260 C 0.42207 0.51709 0.76301 0.0
O261 O 0.41784 0.53867 0.76789 0.0
O262 O 0.44231 0.51639 0.76073 0.0
C263 C 0.41883 0.6244 0.78831 0.0
O264 O 0.42833 0.62781 0.81056 0.0
C265 C 0.47582 0.56799 0.72778 0.0
Zn266 Zn 0.67622 0.08121 0.75145 0.0
Zn267 Zn 0.68782 0.03654 0.73548 0.0
O268 O 0.67895 0.03243 0.76716 0.0
O269 O 0.69067 0.07267 0.78213 0.0
O270 O 0.6976 0.00669 0.72469 0.0
O271 O 0.67553 0.07303 0.71438 0.0
O272 O 0.66237 0.03303 0.71248 0.0
C273 C 0.68525 0.0504 0.78521 0.0
C274 C 0.72218 0.08561 0.7517 0.0
O275 O 0.71476 0.06606 0.73512 0.0
O276 O 0.70936 0.09155 0.76708 0.0
C277 C 0.71635 0.00684 0.71677 0.0
O278 O 0.72758 0.02641 0.70924 0.0
C279 C 0.6669 0.05105 0.70209 0.0
Zn280 Zn 0.77547 0.72455 0.00698 0.0
Zn281 Zn 0.80527 0.69818 0.00707 0.0
O282 O 0.81251 0.7156 0.9779 0.0
O283 O 0.7888 0.73912 0.98032 0.0
O284 O 0.82841 0.67835 0.00991 0.0
O285 O 0.785 0.74221 0.0419 0.0
O286 O 0.80983 0.72015 0.04186 0.0
C287 C 0.80408 0.73147 0.96995 0.0
C288 C 0.75413 0.6718 0.99714 0.0
O289 O 0.77458 0.67073 0.0008 0.0
O290 O 0.74982 0.69268 0.99809 0.0
C291 C 0.84432 0.67618 0.99716 0.0
O292 O 0.84715 0.68767 0.97916 0.0
C293 C 0.80056 0.73608 0.05308 0.0
Zn294 Zn 0.94269 0.49652 0.8081 0.0
Zn295 Zn 0.93125 0.54179 0.80325 0.0
O296 O 0.94095 0.54478 0.83772 0.0
O297 O 0.92469 0.50549 0.83636 0.0
O298 O 0.92258 0.57227 0.80134 0.0
O299 O 0.94504 0.50071 0.77362 0.0
O300 O 0.95494 0.54168 0.78209 0.0
C301 C 0.9331 0.52755 0.84858 0.0
C302 C 0.89484 0.49565 0.7981 0.0
O303 O 0.90201 0.51478 0.78943 0.0
O304 O 0.90833 0.48825 0.81132 0.0
C305 C 0.90674 0.57598 0.81336 0.0
O306 O 0.90001 0.56179 0.82868 0.0
C307 C 0.95253 0.52122 0.76735 0.0
Zn308 Zn 0.87255 0.44323 0.52595 0.0
Zn309 Zn 0.8323 0.44349 0.51673 0.0
O310 O 0.8329 0.41478 0.49067 0.0
O311 O 0.86976 0.42848 0.49025 0.0
O312 O 0.802 0.4481 0.51476 0.0
O313 O 0.86244 0.41855 0.54634 0.0
O314 O 0.83456 0.43626 0.54967 0.0
C315 C 0.85059 0.41403 0.48057 0.0
C316 C 0.86929 0.48929 0.52338 0.0
O317 O 0.85145 0.47543 0.51027 0.0
O318 O 0.8784 0.48058 0.53917 0.0
C319 C 0.79317 0.45528 0.49764 0.0
O320 O 0.80252 0.45539 0.47762 0.0
C321 C 0.84539 0.42186 0.55625 0.0
Zn322 Zn 0.65485 0.53344 0.27112 0.0
Zn323 Zn 0.68038 0.50535 0.26754 0.0
O324 O 0.66195 0.50434 0.30233 0.0
O325 O 0.63932 0.52851 0.30002 0.0
O326 O 0.70033 0.47473 0.26448 0.0
O327 O 0.63648 0.52575 0.23903 0.0
O328 O 0.66027 0.50328 0.22969 0.0
C329 C 0.64675 0.51466 0.31163 0.0
C330 C 0.70124 0.56351 0.27473 0.0
O331 O 0.70569 0.54211 0.27288 0.0
O332 O 0.68082 0.56419 0.27502 0.0
C333 C 0.7068 0.46412 0.28126 0.0
O334 O 0.7013 0.47143 0.30282 0.0
C335 C 0.64426 0.51301 0.22268 0.0
Gd336 Gd 0.09243 0.05788 0.03372 0.0
Gd337 Gd 0.03738 0.02594 0.00699 0.0
C338 C 0.01105 0.94553 0.01695 0.0
C339 C 0.00194 0.92202 0.97558 0.0
C340 C 0.02008 0.96691 0.98435 0.0
C341 C 0.01967 0.96781 0.00884 0.0
C342 C 0.01077 0.94397 0.96749 0.0
C343 C 0.00221 0.92277 1.00024 0.0
C344 C 0.01144 0.94664 0.04168 0.0
C345 C 0.02041 0.96946 0.05775 0.0
N346 N 0.02757 0.99027 0.0247 0.0
C347 C 0.02838 0.99105 0.049 0.0
H348 H 0.03591 0.00785 0.06217 0.0
C349 C 0.02617 0.98834 0.95265 0.0
N350 N 0.02848 0.98847 0.97687 0.0
C351 C 0.01734 0.96613 0.93544 0.0
C352 C 0.00978 0.94379 0.94286 0.0
H353 H 0.03035 0.00554 0.94632 0.0
H354 H 0.99534 0.90563 0.00621 0.0
H355 H 0.09736 0.07687 0.97935 0.0
H356 H 0.0051 0.92995 0.04855 0.0
H357 H 0.0213 0.97048 0.07699 0.0
H358 H 0.99466 0.90436 0.96287 0.0
H359 H 0.09889 0.07699 0.09474 0.0
H360 H 0.12168 0.15575 0.99454 0.0
H361 H 0.11004 0.11517 0.96552 0.0
H362 H 0.12782 0.17982 0.08009 0.0
H363 H 0.01579 0.9664 0.91643 0.0
H364 H 0.00255 0.92662 0.92946 0.0
H365 H 0.12809 0.17951 0.037 0.0
H366 H 0.11098 0.116 0.12518 0.0
N367 N 0.10183 0.09413 0.01694 0.0
C368 C 0.11611 0.13867 0.00101 0.0
C369 C 0.10971 0.11584 0.98462 0.0
C370 C 0.11531 0.13925 0.02554 0.0
C371 C 0.10779 0.11646 0.03314 0.0
C372 C 0.1027 0.09377 0.99286 0.0
N373 N 0.09993 0.09466 0.06456 0.0
C374 C 0.1069 0.11672 0.0575 0.0
C375 C 0.10951 0.11656 0.10624 0.0
C376 C 0.11543 0.13932 0.09924 0.0
C377 C 0.10228 0.09439 0.0887 0.0
C378 C 0.11453 0.13964 0.07472 0.0
H379 H 0.12139 0.15648 0.1129 0.0
O380 O 0.11288 0.05012 0.06287 0.0
O381 O 0.06575 0.02189 0.03083 0.0
O382 O 0.03034 0.04177 0.04507 0.0
O383 O 0.06756 0.05849 0.06353 0.0
O384 O 0.09696 0.01922 0.02167 0.0
O385 O 0.12896 0.06885 0.03535 0.0
O386 O 0.01829 0.03474 0.97745 0.0
O387 O 0.06402 0.062 0.00963 0.0
O388 O 0.09905 0.04234 0.99536 0.0
O389 O 0.06197 0.02423 0.97716 0.0
O390 O 0.03282 0.0644 0.01977 0.0
O391 O 1.00095 0.01445 0.00331 0.0
C392 C 0.07718 0.00639 0.0244 0.0
C393 C 0.12192 0.16215 0.0671 0.0
C394 C 0.12217 0.16197 0.04259 0.0
C395 C 0.13153 0.06092 0.05518 0.0
C396 C 0.15393 0.06125 0.06576 0.0
C397 C 0.16235 0.07474 0.08935 0.0
C398 C 0.16703 0.0482 0.0523 0.0
C399 C 0.18874 0.04889 0.06226 0.0
C400 C 0.1841 0.07558 0.09926 0.0
C401 C 0.19737 0.06282 0.08571 0.0
C402 C 0.04513 0.05333 0.06467 0.0
C403 C 0.05237 0.07728 0.01635 0.0
C404 C 0.99922 0.02268 0.98351 0.0
C405 C 0.97742 0.02476 0.97393 0.0
C406 C 0.97013 0.01614 0.94915 0.0
C407 C 0.96337 0.03398 0.98934 0.0
C408 C 0.94178 0.03403 0.97996 0.0
C409 C 0.94856 0.01637 0.93981 0.0
C410 C 0.9343 0.02516 0.9552 0.0
C411 C 0.08434 0.03033 0.97583 0.0
H412 H 0.15223 0.08482 0.09993 0.0
H413 H 0.16041 0.03767 0.03408 0.0
H414 H 0.19068 0.08613 0.11741 0.0
H415 H 0.2142 0.06353 0.09358 0.0
H416 H 0.98098 0.00889 0.93714 0.0
H417 H 0.96904 0.04074 0.00851 0.0
H418 H 0.94286 0.00962 0.9207 0.0
H419 H 0.91757 0.02532 0.94783 0.0
Gd420 Gd 0.29433 0.8008 0.30471 0.0
Gd421 Gd 0.32315 0.78296 0.25171 0.0
C422 C 0.29505 0.70621 0.20021 0.0
C423 C 0.32865 0.69107 0.19786 0.0
C424 C 0.33027 0.73068 0.22479 0.0
C425 C 0.3077 0.72793 0.21711 0.0
C426 C 0.34106 0.71237 0.21499 0.0
C427 C 0.30567 0.68793 0.19059 0.0
C428 C 0.27205 0.70335 0.19351 0.0
C429 C 0.26209 0.72174 0.2037 0.0
N430 N 0.29799 0.74616 0.22648 0.0
C431 C 0.27528 0.74305 0.22007 0.0
H432 H 0.26657 0.75614 0.22812 0.0
C433 C 0.36472 0.75575 0.24765 0.0
N434 N 0.34185 0.75142 0.24144 0.0
C435 C 0.37607 0.73813 0.23859 0.0
C436 C 0.36416 0.71625 0.22228 0.0
H437 H 0.37451 0.77325 0.25909 0.0
H438 H 0.29625 0.67129 0.17747 0.0
H439 H 0.34887 0.82949 0.33342 0.0
H440 H 0.26177 0.68688 0.18076 0.0
H441 H 0.24415 0.71947 0.19906 0.0
H442 H 0.33669 0.67692 0.19009 0.0
H443 H 0.24145 0.80538 0.29715 0.0
H444 H 0.35088 0.90223 0.37166 0.0
H445 H 0.3695 0.86856 0.36024 0.0
H446 H 0.27551 0.90867 0.35457 0.0
H447 H 0.39412 0.74174 0.24378 0.0
H448 H 0.37305 0.70274 0.21503 0.0
H449 H 0.31598 0.91712 0.36913 0.0
H450 H 0.21993 0.83644 0.30795 0.0
N451 N 0.3174 0.83927 0.32928 0.0
C452 C 0.34137 0.88473 0.35982 0.0
C453 C 0.35187 0.86574 0.35353 0.0
C454 C 0.31866 0.88085 0.35092 0.0
C455 C 0.30697 0.85767 0.33553 0.0
C456 C 0.33968 0.84312 0.33829 0.0
N457 N 0.27342 0.83044 0.31299 0.0
C458 C 0.28432 0.85311 0.32707 0.0
C459 C 0.23808 0.84151 0.31323 0.0
C460 C 0.24927 0.86536 0.32666 0.0
C461 C 0.25039 0.82406 0.30697 0.0
C462 C 0.27258 0.87131 0.33412 0.0
H463 H 0.23966 0.87879 0.33176 0.0
O464 O 0.2652 0.78203 0.31976 0.0
O465 O 0.30292 0.7708 0.27964 0.0
O466 O 0.29235 0.79531 0.23875 0.0
O467 O 0.27418 0.80754 0.27216 0.0
O468 O 0.26915 0.76482 0.28586 0.0
O469 O 0.29928 0.791 0.33919 0.0
O470 O 0.35479 0.80099 0.24012 0.0
O471 O 0.3144 0.81264 0.27695 0.0
O472 O 0.32671 0.79034 0.31692 0.0
O473 O 0.34292 0.77533 0.28304 0.0
O474 O 0.34774 0.81993 0.27044 0.0
O475 O 0.32227 0.7913 0.21625 0.0
C476 C 0.28394 0.7551 0.27576 0.0
C477 C 0.28424 0.89449 0.34902 0.0
C478 C 0.30725 0.89927 0.35735 0.0
C479 C 0.27757 0.78156 0.33912 0.0
C480 C 0.2686 0.78606 0.36202 0.0
C481 C 0.25491 0.80234 0.36754 0.0
C482 C 0.27274 0.77157 0.37803 0.0
C483 C 0.26278 0.77231 0.39929 0.0
C484 C 0.24507 0.80343 0.38905 0.0
C485 C 0.2487 0.78815 0.40479 0.0
C486 C 0.27575 0.80354 0.24853 0.0
C487 C 0.33294 0.82892 0.28122 0.0
C488 C 0.34432 0.80066 0.21933 0.0
C489 C 0.35634 0.81072 0.20093 0.0
C490 C 0.37896 0.81041 0.19887 0.0
C491 C 0.34516 0.82158 0.1857 0.0
C492 C 0.35641 0.83213 0.16842 0.0
C493 C 0.39019 0.82092 0.18128 0.0
C494 C 0.37893 0.83182 0.166 0.0
C495 C 0.34261 0.78117 0.30665 0.0
H496 H 0.25152 0.81372 0.3552 0.0
H497 H 0.28289 0.75857 0.37326 0.0
H498 H 0.23427 0.81572 0.39328 0.0
H499 H 0.24051 0.78856 0.42104 0.0
H500 H 0.3878 0.80203 0.21072 0.0
H501 H 0.32777 0.82214 0.18744 0.0
H502 H 0.40759 0.82066 0.17952 0.0
H503 H 0.38767 0.84003 0.1524 0.0
Gd504 Gd 0.52701 0.03554 0.5313 0.0
Gd505 Gd 0.58146 0.03752 0.50952 0.0
C506 C 0.63038 0.11521 0.52392 0.0
C507 C 0.63637 0.12071 0.48333 0.0
C508 C 0.6114 0.08214 0.48942 0.0
C509 C 0.6156 0.09126 0.5142 0.0
C510 C 0.62219 0.09655 0.47376 0.0
C511 C 0.6404 0.13005 0.50834 0.0
C512 C 0.63495 0.12335 0.54904 0.0
C513 C 0.62537 0.10745 0.56376 0.0
N514 N 0.60578 0.07646 0.52883 0.0
C515 C 0.6109 0.08382 0.55325 0.0
H516 H 0.60358 0.07158 0.56453 0.0
C517 C 0.59519 0.04785 0.45669 0.0
N518 N 0.59753 0.05877 0.48067 0.0
C519 C 0.60554 0.06141 0.44047 0.0
C520 C 0.61885 0.08599 0.449 0.0
H521 H 0.58507 0.02874 0.45017 0.0
H522 H 0.65165 0.14858 0.51548 0.0
H523 H 0.49612 1.00469 0.4767 0.0
H524 H 0.64614 0.14167 0.55721 0.0
H525 H 0.62907 0.11339 0.58319 0.0
H526 H 0.64463 0.13215 0.47157 0.0
H527 H 0.52963 0.03694 0.59174 0.0
H528 H 0.46428 0.93001 0.48146 0.0
H529 H 0.47284 0.96271 0.45773 0.0
H530 H 0.47973 0.93025 0.5649 0.0
H531 H 0.60332 0.05288 0.42145 0.0
H532 H 0.62691 0.09643 0.4364 0.0
H533 H 0.46707 0.91807 0.52135 0.0
H534 H 0.51905 0.0078 0.61827 0.0
N535 N 0.50246 0.99625 0.51123 0.0
C536 C 0.47484 0.94853 0.49003 0.0
C537 C 0.47964 0.96693 0.47659 0.0
C538 C 0.48308 0.95446 0.51455 0.0
C539 C 0.49695 0.97883 0.52486 0.0
C540 C 0.49316 0.99088 0.48757 0.0
N541 N 0.51721 0.00926 0.55898 0.0
C542 C 0.50453 0.98551 0.54937 0.0
C543 C 0.5152 1.00112 0.59891 0.0
C544 C 0.50374 0.97622 0.58915 0.0
C545 C 0.52141 0.01754 0.5836 0.0
C546 C 0.49785 0.96822 0.56419 0.0
H547 H 0.49879 0.96355 0.60109 0.0
O548 O 0.51321 0.05586 0.56 0.0
O549 O 0.56259 0.06036 0.53291 0.0
O550 O 0.5751 0.01934 0.54085 0.0
O551 O 0.55443 0.04256 0.56175 0.0
O552 O 0.53551 0.07526 0.52689 0.0
O553 O 0.49379 0.04196 0.52373 0.0
O554 O 0.59607 0.00875 0.49221 0.0
O555 O 0.54878 0.01214 0.51446 0.0
O556 O 0.52519 0.03998 0.49318 0.0
O557 O 0.56242 0.05268 0.48399 0.0
O558 O 0.55951 0.0061 0.48055 0.0
O559 O 0.61353 0.0336 0.52561 0.0
C560 C 0.55726 0.07995 0.52938 0.0
C561 C 0.48478 0.94379 0.55381 0.0
C562 C 0.47751 0.93689 0.52904 0.0
C563 C 0.49478 0.05384 0.54599 0.0
C564 C 0.47655 0.06417 0.55509 0.0
C565 C 0.4733 0.06595 0.57946 0.0
C566 C 0.46283 0.07307 0.53993 0.0
C567 C 0.44644 0.08427 0.54943 0.0
C568 C 0.45671 0.07664 0.58871 0.0
C569 C 0.44344 0.08592 0.57383 0.0
C570 C 0.5686 0.02864 0.56113 0.0
C571 C 0.54491 0.99697 0.49409 0.0
C572 C 0.61388 0.01502 0.50825 0.0
C573 C 0.63558 0.01482 0.49876 0.0
C574 C 0.64077 0.02425 0.47816 0.0
C575 C 0.6505 1.00328 0.50918 0.0
C576 C 0.67048 1.00156 0.4991 0.0
C577 C 0.66031 0.02213 0.46791 0.0
C578 C 0.67511 0.01089 0.4783 0.0
C579 C 0.54046 0.04995 0.48012 0.0
H580 H 0.48362 0.0591 0.59138 0.0
H581 H 0.46537 0.07207 0.52115 0.0
H582 H 0.45429 0.07797 0.60751 0.0
H583 H 0.43084 0.09451 0.58137 0.0
H584 H 0.6296 0.03289 0.46968 0.0
H585 H 0.64665 0.99583 0.52505 0.0
H586 H 0.66398 0.02918 0.45183 0.0
H587 H 0.69023 0.00941 0.47004 0.0
Gd588 Gd 0.33988 0.28348 0.77146 0.0
Gd589 Gd 0.28398 0.29689 0.7704 0.0
C590 C 0.24593 0.27756 0.69387 0.0
C591 C 0.24391 0.31835 0.68793 0.0
C592 C 0.26149 0.31411 0.72603 0.0
C593 C 0.25731 0.28874 0.71735 0.0
C594 C 0.25407 0.32909 0.71176 0.0
C595 C 0.23989 0.29261 0.67897 0.0
C596 C 0.24026 0.25154 0.68636 0.0
C597 C 0.24511 0.23729 0.70244 0.0
N598 N 0.26312 0.27479 0.73238 0.0
C599 C 0.2563 0.2492 0.72555 0.0
H600 H 0.25992 0.23757 0.73733 0.0
C601 C 0.27127 0.34763 0.76005 0.0
N602 N 0.27102 0.32377 0.74919 0.0
C603 C 0.2644 0.36333 0.74663 0.0
C604 C 0.25617 0.35416 0.72221 0.0
H605 H 0.27755 0.35478 0.77899 0.0
H606 H 0.2314 0.2844 0.66081 0.0
H607 H 0.36757 0.34361 0.79993 0.0
H608 H 0.23158 0.24225 0.66847 0.0
H609 H 0.24036 0.21709 0.69702 0.0
H610 H 0.23839 0.32962 0.67658 0.0
H611 H 0.34318 0.22439 0.76685 0.0
H612 H 0.40158 0.34303 0.86741 0.0
H613 H 0.39175 0.36599 0.83727 0.0
H614 H 0.38948 0.25619 0.8666 0.0
H615 H 0.26539 0.38245 0.75514 0.0
H616 H 0.25066 0.36628 0.71187 0.0
H617 H 0.39988 0.30205 0.8786 0.0
H618 H 0.35511 0.19828 0.7926 0.0
N619 N 0.36266 0.3073 0.80798 0.0
C620 C 0.39069 0.33285 0.85086 0.0
C621 C 0.38524 0.34585 0.83388 0.0
C622 C 0.38284 0.30679 0.84582 0.0
C623 C 0.36897 0.29436 0.8238 0.0
C624 C 0.3712 0.3328 0.81252 0.0
N625 N 0.35218 0.25755 0.79463 0.0
C626 C 0.36333 0.26862 0.81699 0.0
C627 C 0.35729 0.21798 0.79982 0.0
C628 C 0.36735 0.22881 0.82346 0.0
C629 C 0.35041 0.23281 0.78538 0.0
C630 C 0.37114 0.25454 0.83208 0.0
H631 H 0.37305 0.21738 0.83451 0.0
O632 O 0.35656 0.26463 0.74432 0.0
O633 O 0.31074 0.28769 0.74834 0.0
O634 O 0.27947 0.25665 0.7754 0.0
O635 O 0.3148 0.24812 0.77696 0.0
O636 O 0.32157 0.25547 0.7387 0.0
O637 O 0.37196 0.30326 0.76106 0.0
O638 O 0.26587 0.31399 0.79735 0.0
O639 O 0.3132 0.29255 0.79298 0.0
O640 O 0.34335 0.32342 0.76539 0.0
O641 O 0.30845 0.33298 0.76581 0.0
O642 O 0.30234 0.32401 0.80429 0.0
O643 O 0.25235 0.27526 0.77986 0.0
C644 C 0.30822 0.26801 0.7322 0.0
C645 C 0.38353 0.26671 0.85471 0.0
C646 C 0.38945 0.29282 0.86154 0.0
C647 C 0.37399 0.28375 0.74602 0.0
C648 C 0.39647 0.27859 0.74695 0.0
C649 C 0.40167 0.26314 0.76181 0.0
C650 C 0.41254 0.28822 0.7322 0.0
C651 C 0.43366 0.28239 0.73247 0.0
C652 C 0.42217 0.25683 0.76169 0.0
C653 C 0.43801 0.26627 0.74714 0.0
C654 C 0.2925 0.24134 0.77712 0.0
C655 C 0.31613 0.31155 0.80984 0.0
C656 C 0.2492 0.29399 0.79515 0.0
C657 C 0.2261 0.29745 0.79376 0.0
C658 C 0.2181 0.30694 0.77484 0.0
C659 C 0.21193 0.29155 0.81154 0.0
C660 C 0.18986 0.29488 0.81005 0.0
C661 C 0.19646 0.31064 0.7736 0.0
C662 C 0.18239 0.30456 0.79098 0.0
C663 C 0.33064 0.3393 0.76468 0.0
H664 H 0.38984 0.25571 0.77337 0.0
H665 H 0.4087 0.30032 0.7208 0.0
H666 H 0.4258 0.24451 0.77292 0.0
H667 H 0.45371 0.26079 0.74727 0.0
H668 H 0.22856 0.31148 0.76099 0.0
H669 H 0.21793 0.28419 0.82625 0.0
H670 H 0.19052 0.31817 0.75904 0.0
H671 H 0.16561 0.30754 0.78963 0.0
Gd672 Gd 0.06476 0.01047 0.50545 0.0
Gd673 Gd 0.0572 0.06822 0.53291 0.0
C674 C 0.08192 0.10764 0.61192 0.0
C675 C 0.04718 0.1142 0.6264 0.0
C676 C 0.04659 0.09239 0.58502 0.0
C677 C 0.06964 0.095 0.58912 0.0
C678 C 0.03517 0.10235 0.60351 0.0
C679 C 0.07051 0.11685 0.63059 0.0
C680 C 0.10543 0.11143 0.61513 0.0
C681 C 0.11624 0.10324 0.59575 0.0
N682 N 0.08029 0.0865 0.5705 0.0
C683 C 0.10346 0.09104 0.57348 0.0
H684 H 0.11256 0.08508 0.55905 0.0
C685 C 0.01345 0.0813 0.55698 0.0
N686 N 0.03555 0.08148 0.56257 0.0
C687 C 1.00133 0.09052 0.57478 0.0
C688 C 0.01219 0.1009 0.59822 0.0
H689 H 0.00509 0.07366 0.53874 0.0
H690 H 0.07967 0.12656 0.64818 0.0
H691 H 0.00991 0.9951 0.47833 0.0
H692 H 0.11544 0.12111 0.63231 0.0
H693 H 0.13449 0.10641 0.5979 0.0
H694 H 0.03869 0.12191 0.64081 0.0
H695 H 0.11741 0.00619 0.50023 0.0
H696 H 0.00823 0.961 0.40463 0.0
H697 H 0.98865 0.97553 0.43867 0.0
H698 H 0.08496 0.95894 0.39763 0.0
H699 H 0.98371 0.08984 0.57034 0.0
H700 H 0.00285 0.10834 0.61193 0.0
H701 H 0.04414 0.9549 0.38954 0.0
H702 H 0.13924 0.99052 0.46878 0.0
N703 N 0.04222 0.99291 0.46756 0.0
C704 C 0.01791 0.96988 0.42216 0.0
C705 C 0.0068 0.978 0.44132 0.0
C706 C 0.04129 0.97285 0.42595 0.0
C707 C 0.05316 0.98459 0.44913 0.0
C708 C 0.01916 0.98919 0.46401 0.0
N709 N 0.08698 0.99775 0.47621 0.0
C710 C 0.07619 0.98704 0.4536 0.0
C711 C 0.12156 0.98958 0.46423 0.0
C712 C 0.11091 0.97922 0.44069 0.0
C713 C 0.1092 0.99847 0.48195 0.0
C714 C 0.08791 0.97759 0.43517 0.0
H715 H 0.12046 0.97212 0.42703 0.0
O716 O 0.07928 0.98576 0.52202 0.0
O717 O 0.06699 0.03514 0.54229 0.0
O718 O 0.0925 0.07277 0.52121 0.0
O719 O 0.09131 0.0378 0.49182 0.0
O720 O 0.09517 0.02332 0.53475 0.0
O721 O 0.04423 0.97289 0.50518 0.0
O722 O 0.04192 0.0926 0.51685 0.0
O723 O 0.05485 0.04367 0.49588 0.0
O724 O 0.02965 0.00593 0.51667 0.0
O725 O 0.02945 0.0407 0.54551 0.0
O726 O 0.02686 0.05556 0.50395 0.0
O727 O 0.07758 0.10543 0.53187 0.0
C728 C 0.08645 0.03472 0.55192 0.0
C729 C 0.07624 0.96628 0.41201 0.0
C730 C 0.053 0.96397 0.40741 0.0
C731 C 0.06072 0.9676 0.517 0.0
C732 C 0.06347 0.94242 0.51074 0.0
C733 C 0.07759 0.93587 0.49376 0.0
C734 C 0.05382 0.92559 0.52456 0.0
C735 C 0.05862 0.90241 0.52211 0.0
C736 C 0.08234 0.91266 0.49112 0.0
C737 C 0.07311 0.89606 0.50543 0.0
C738 C 0.10129 0.06076 0.50374 0.0
C739 C 0.0355 0.04471 0.48637 0.0
C740 C 0.06053 0.11061 0.52097 0.0
C741 C 0.058 0.13574 0.52733 0.0
C742 C 0.04447 0.14283 0.54475 0.0
C743 C 0.0671 0.1519 0.51285 0.0
C744 C 0.06248 0.17504 0.51507 0.0
C745 C 0.03983 0.16608 0.54715 0.0
C746 C 0.04861 0.18212 0.53215 0.0
C747 C 0.02005 0.01747 0.53366 0.0
H748 H 0.0853 0.94878 0.48305 0.0
H749 H 0.04328 0.93098 0.53802 0.0
H750 H 0.09343 0.90769 0.47822 0.0
H751 H 0.07709 0.87823 0.50334 0.0
H752 H 0.03713 0.13032 0.55598 0.0
H753 H 0.07703 0.14592 0.49896 0.0
H754 H 0.02917 0.17151 0.56036 0.0
H755 H 0.04474 0.19998 0.53398 0.0
Gd756 Gd 0.2883 0.77173 0.77735 0.0
Gd757 Gd 0.33923 0.81275 0.76883 0.0
C758 C 0.34339 0.89122 0.75745 0.0
C759 C 0.35432 0.88865 0.71704 0.0
C760 C 0.34826 0.85226 0.73509 0.0
C761 C 0.34288 0.86588 0.75576 0.0
C762 C 0.35446 0.86366 0.7157 0.0
C763 C 0.34878 0.90239 0.73785 0.0
C764 C 0.33911 0.90481 0.77904 0.0
C765 C 0.33506 0.89332 0.79849 0.0
N766 N 0.33836 0.85478 0.77466 0.0
C767 C 0.335 0.86827 0.79608 0.0
H768 H 0.33204 0.85987 0.81144 0.0
C769 C 0.35695 0.81534 0.71599 0.0
N770 N 0.3489 0.82836 0.73459 0.0
C771 C 0.36287 0.82568 0.69617 0.0
C772 C 0.36142 0.84987 0.69591 0.0
H773 H 0.35858 0.79686 0.71637 0.0
H774 H 0.34923 0.92182 0.73883 0.0
H775 H 0.29563 0.72442 0.73474 0.0
H776 H 0.33936 0.92431 0.78104 0.0
H777 H 0.33209 0.90376 0.8154 0.0
H778 H 0.35898 0.89771 0.7023 0.0
H779 H 0.26616 0.78614 0.82844 0.0
H780 H 0.28852 0.66008 0.76512 0.0
H781 H 0.2959 0.68074 0.73086 0.0
H782 H 0.26735 0.68597 0.84323 0.0
H783 H 0.36878 0.81511 0.68124 0.0
H784 H 0.36632 0.85798 0.68067 0.0
H785 H 0.27815 0.6623 0.80711 0.0
H786 H 0.25541 0.76766 0.86328 0.0
N787 N 0.2889 0.72949 0.77143 0.0
C788 C 0.28855 0.67951 0.76708 0.0
C789 C 0.29266 0.69107 0.7477 0.0
C790 C 0.28386 0.69294 0.78852 0.0
C791 C 0.28407 0.7182 0.79015 0.0
C792 C 0.29252 0.71606 0.75008 0.0
N793 N 0.2771 0.75528 0.81086 0.0
C794 C 0.278 0.7315 0.81049 0.0
C795 C 0.26193 0.75737 0.84867 0.0
C796 C 0.26387 0.73341 0.84918 0.0
C797 C 0.26819 0.76787 0.82901 0.0
C798 C 0.27152 0.71995 0.82973 0.0
H799 H 0.25877 0.7252 0.86431 0.0
O800 O 0.25526 0.77836 0.77729 0.0
O801 O 0.30188 0.81025 0.76927 0.0
O802 O 0.33289 0.81759 0.80753 0.0
O803 O 0.30962 0.78028 0.81254 0.0
O804 O 0.28153 0.80821 0.79601 0.0
O805 O 0.26034 0.74735 0.75118 0.0
O806 O 0.37302 0.80809 0.76772 0.0
O807 O 0.32569 0.77455 0.77721 0.0
O808 O 0.29543 0.76633 0.73882 0.0
O809 O 0.31622 0.80477 0.73451 0.0
O810 O 0.3466 0.77621 0.751 0.0
O811 O 0.36718 0.83768 0.79486 0.0
C812 C 0.29176 0.82335 0.78346 0.0
C813 C 0.27215 0.69512 0.82857 0.0
C814 C 0.27829 0.68164 0.80801 0.0
C815 C 0.24605 0.75929 0.75973 0.0
C816 C 0.22363 0.74482 0.76243 0.0
C817 C 0.21958 0.73029 0.77989 0.0
C818 C 0.2056 0.74819 0.74853 0.0
C819 C 0.18345 0.73737 0.75197 0.0
C820 C 0.19722 0.71916 0.78318 0.0
C821 C 0.17908 0.72268 0.76921 0.0
C822 C 0.32445 0.8019 0.82099 0.0
C823 C 0.33591 0.76125 0.76344 0.0
C824 C 0.38206 0.82716 0.78543 0.0
C825 C 0.40377 0.84332 0.78206 0.0
C826 C 0.40579 0.8567 0.76364 0.0
C827 C 0.42326 0.84246 0.7957 0.0
C828 C 0.44489 0.85356 0.79018 0.0
C829 C 0.42722 0.86875 0.75869 0.0
C830 C 0.44673 0.86702 0.77171 0.0
C831 C 0.30239 0.78261 0.72547 0.0
H832 H 0.23347 0.72788 0.79108 0.0
H833 H 0.20879 0.75978 0.7353 0.0
H834 H 0.19398 0.70807 0.79672 0.0
H835 H 0.1618 0.71425 0.77194 0.0
H836 H 0.39099 0.85738 0.75273 0.0
H837 H 0.42146 0.83211 0.80996 0.0
H838 H 0.42873 0.87873 0.7442 0.0
H839 H 0.46313 0.87538 0.76668 0.0
Gd840 Gd 0.54498 0.05365 0.97575 0.0
Gd841 Gd 0.56026 0.03815 0.03369 0.0
C842 C 0.63097 0.07424 0.0758 0.0
C843 C 0.64412 0.03794 0.07974 0.0
C844 C 0.60728 0.0327 0.05737 0.0
C845 C 0.61071 0.05828 0.06218 0.0
C846 C 0.62378 0.02218 0.06644 0.0
C847 C 0.64772 0.06394 0.08438 0.0
C848 C 0.63369 0.10006 0.08061 0.0
C849 C 0.61643 0.10935 0.07194 0.0
N850 N 0.59411 0.06756 0.05369 0.0
C851 C 0.59666 0.09278 0.05849 0.0
H852 H 0.5837 0.10041 0.05179 0.0
C853 C 0.58217 0.99269 0.04196 0.0
N854 N 0.58745 0.01805 0.04453 0.0
C855 C 0.59803 0.98131 0.05036 0.0
C856 C 0.61905 0.99612 0.06244 0.0
H857 H 0.56555 0.98125 0.03351 0.0
H858 H 0.66339 0.07589 0.09485 0.0
H859 H 0.52658 0.98784 0.96045 0.0
H860 H 0.64897 0.11293 0.09105 0.0
H861 H 0.61834 0.1293 0.07558 0.0
H862 H 0.65701 0.03021 0.08681 0.0
H863 H 0.5278 0.10657 0.98044 0.0
H864 H 0.46082 0.96695 0.92155 0.0
H865 H 0.4943 0.95584 0.93778 0.0
H866 H 0.44085 0.04366 0.92648 0.0
H867 H 0.59388 0.96117 0.04786 0.0
H868 H 0.63123 0.9873 0.06917 0.0
H869 H 0.44118 0.99962 0.91742 0.0
H870 H 0.49451 0.11939 0.96833 0.0
N871 N 0.51343 0.01888 0.95655 0.0
C872 C 0.47535 0.98159 0.93139 0.0
C873 C 0.49424 0.97529 0.94041 0.0
C874 C 0.47512 0.00662 0.93577 0.0
C875 C 0.49446 0.02508 0.94883 0.0
C876 C 0.51304 0.99405 0.95305 0.0
N877 N 0.51238 0.06729 0.96746 0.0
C878 C 0.49398 0.04988 0.95437 0.0
C879 C 0.49395 0.09974 0.96454 0.0
C880 C 0.47471 0.08201 0.95181 0.0
C881 C 0.51277 0.09213 0.97184 0.0
C882 C 0.47458 0.05683 0.94637 0.0
H883 H 0.4602 0.08801 0.94588 0.0
O884 O 0.55933 0.08969 0.96763 0.0
O885 O 0.57101 0.06126 0.00741 0.0
O886 O 0.54615 0.0712 0.0425 0.0
O887 O 0.54118 0.08367 0.00617 0.0
O888 O 0.5822 0.0575 0.97344 0.0
O889 O 0.54466 0.05692 0.93854 0.0
O890 O 0.54073 0.0123 0.05247 0.0
O891 O 0.53301 0.03957 0.00711 0.0
O892 O 0.55892 0.0202 0.96616 0.0
O893 O 0.56973 0.01176 0.00386 0.0
O894 O 0.5293 0.00628 0.01762 0.0
O895 O 0.55363 0.05197 0.0699 0.0
C896 C 0.58819 0.06206 0.99638 0.0
C897 C 0.45574 0.03859 0.93289 0.0
C898 C 0.45598 0.01355 0.92766 0.0
C899 C 0.55464 0.08094 0.94441 0.0
C900 C 0.5718 0.09091 0.92991 0.0
C901 C 0.57388 0.11503 0.92591 0.0
C902 C 0.58592 0.07683 0.91994 0.0
C903 C 0.60219 0.087 0.90611 0.0
C904 C 0.59007 0.12509 0.91195 0.0
C905 C 0.60427 0.11114 0.90208 0.0
C906 C 0.54073 0.0864 0.02963 0.0
C907 C 0.51893 0.01909 0.00661 0.0
C908 C 0.54193 0.02977 0.07139 0.0
C909 C 0.54283 0.0229 0.09445 0.0
C910 C 0.55771 0.00978 0.10185 0.0
C911 C 0.52574 0.02709 0.10789 0.0
C912 C 0.52253 0.01735 0.12828 0.0
C913 C 0.55486 1.00047 0.12285 0.0
C914 C 0.53702 1.00392 0.13595 0.0
C915 C 0.5677 0.00744 0.97992 0.0
H916 H 0.56294 0.12602 0.93354 0.0
H917 H 0.58439 0.05817 0.923 0.0
H918 H 0.59158 0.14365 0.90875 0.0
H919 H 0.6167 0.11903 0.89112 0.0
H920 H 0.57097 0.0063 0.09126 0.0
H921 H 0.51405 0.03692 0.10178 0.0
H922 H 0.56612 0.99016 0.12867 0.0
H923 H 0.53453 0.99627 0.15191 0.0
Gd924 Gd 0.28609 0.2508 0.25234 0.0
Gd925 Gd 0.32053 0.31526 0.27733 0.0
C926 C 0.39334 0.3361 0.25744 0.0
C927 C 0.41589 0.34345 0.29615 0.0
C928 C 0.37456 0.32924 0.29252 0.0
C929 C 0.37316 0.32925 0.26811 0.0
C930 C 0.39599 0.33723 0.30689 0.0
C931 C 0.41457 0.34275 0.27146 0.0
C932 C 0.39175 0.33655 0.23299 0.0
C933 C 0.3705 0.3305 0.21972 0.0
N934 N 0.35229 0.32335 0.25497 0.0
C935 C 0.35101 0.32407 0.23092 0.0
H936 H 0.33536 0.31934 0.21944 0.0
C937 C 0.35607 0.32904 0.32729 0.0
N938 N 0.35508 0.3235 0.30266 0.0
C939 C 0.37673 0.3366 0.34218 0.0
C940 C 0.39685 0.34018 0.3319 0.0
H941 H 0.34092 0.32887 0.33568 0.0
H942 H 0.4301 0.348 0.26347 0.0
H943 H 0.27028 0.24961 0.31015 0.0
H944 H 0.40681 0.34161 0.22421 0.0
H945 H 0.36905 0.33069 0.2007 0.0
H946 H 0.4324 0.34952 0.30692 0.0
H947 H 0.26678 0.23846 0.19343 0.0
H948 H 0.19879 0.22426 0.3037 0.0
H949 H 0.23619 0.23775 0.32831 0.0
H950 H 0.17463 0.21253 0.22 0.0
H951 H 0.37711 0.3405 0.3616 0.0
H952 H 0.41292 0.34659 0.34348 0.0
H953 H 0.17616 0.2151 0.26358 0.0
H954 H 0.23097 0.2249 0.16687 0.0
N955 N 0.25385 0.24318 0.27401 0.0
C956 C 0.21401 0.22964 0.29524 0.0
C957 C 0.23506 0.23708 0.30912 0.0
C958 C 0.2128 0.2291 0.2706 0.0
C959 C 0.23317 0.23639 0.26035 0.0
C960 C 0.25476 0.24364 0.29827 0.0
N961 N 0.25186 0.24226 0.22619 0.0
C962 C 0.23217 0.23585 0.23584 0.0
C963 C 0.23094 0.22857 0.18624 0.0
C964 C 0.2106 0.2237 0.19599 0.0
C965 C 0.25137 0.23714 0.20156 0.0
C966 C 0.211 0.22674 0.22096 0.0
H967 H 0.19475 0.21647 0.18404 0.0
O968 O 0.29325 0.22764 0.22047 0.0
O969 O 0.31914 0.27896 0.25391 0.0
O970 O 0.30566 0.31725 0.24112 0.0
O971 O 0.28669 0.27519 0.22438 0.0
O972 O 0.32016 0.24397 0.25998 0.0
O973 O 0.27423 0.21055 0.24681 0.0
O974 O 0.31342 0.33894 0.30897 0.0
O975 O 0.28744 0.28696 0.27587 0.0
O976 O 0.30041 0.24888 0.28916 0.0
O977 O 0.31986 0.291 0.3054 0.0
O978 O 0.28633 0.32154 0.26942 0.0
O979 O 0.33277 0.35541 0.28263 0.0
C980 C 0.332 0.26585 0.25856 0.0
C981 C 0.19092 0.21962 0.23119 0.0
C982 C 0.19181 0.22095 0.25596 0.0
C983 C 0.28201 0.20703 0.22598 0.0
C984 C 0.28974 0.18474 0.21851 0.0
C985 C 0.28491 0.17232 0.19416 0.0
C986 C 0.30039 0.17481 0.23523 0.0
C987 C 0.3057 0.15211 0.22769 0.0
C988 C 0.2904 0.14984 0.1866 0.0
C989 C 0.30064 0.13962 0.20332 0.0
C990 C 0.29375 0.29909 0.22313 0.0
C991 C 0.27437 0.29976 0.27102 0.0
C992 C 0.3245 0.35942 0.3031 0.0
C993 C 0.31561 0.38119 0.3087 0.0
C994 C 0.3197 0.39512 0.33254 0.0
C995 C 0.30432 0.38907 0.29069 0.0
C996 C 0.29721 0.41085 0.29662 0.0
C997 C 0.31257 0.41683 0.33838 0.0
C998 C 0.3013 0.42471 0.32047 0.0
C999 C 0.31246 0.26721 0.30705 0.0
H1000 H 0.27656 0.17984 0.18107 0.0
H1001 H 0.30401 0.18435 0.25408 0.0
H1002 H 0.28655 0.14024 0.16782 0.0
H1003 H 0.30482 0.12214 0.19722 0.0
H1004 H 0.32866 0.38933 0.34657 0.0
H1005 H 0.30116 0.37844 0.27221 0.0
H1006 H 0.31588 0.42762 0.35675 0.0
H1007 H 0.2959 0.44165 0.32513 0.0
Gd1008 Gd 0.5642 0.51077 0.0053 0.0
Gd1009 Gd 0.55809 0.56908 0.03306 0.0
C1010 C 0.58418 0.60712 0.11226 0.0
C1011 C 0.55011 0.61455 0.12758 0.0
C1012 C 0.5483 0.59198 0.0861 0.0
C1013 C 0.57157 0.59477 0.08947 0.0
C1014 C 0.53749 0.6022 0.10516 0.0
C1015 C 0.57335 0.61694 0.13114 0.0
C1016 C 0.60743 0.60941 0.11557 0.0
C1017 C 0.61766 0.59933 0.09661 0.0
N1018 N 0.58192 0.58563 0.07073 0.0
C1019 C 0.60471 0.58754 0.07437 0.0
H1020 H 0.61328 0.579 0.06085 0.0
C1021 C 0.51382 0.57963 0.05993 0.0
N1022 N 0.53634 0.58021 0.06415 0.0
C1023 C 0.5025 0.58916 0.07829 0.0
C1024 C 0.51434 0.60037 0.10106 0.0
H1025 H 0.50429 0.5717 0.04223 0.0
H1026 H 0.58287 0.62658 0.14859 0.0
H1027 H 0.51122 0.50133 0.97728 0.0
H1028 H 0.61758 0.61866 0.13278 0.0
H1029 H 0.63558 0.60046 0.09914 0.0
H1030 H 0.54205 0.62252 0.14227 0.0
H1031 H 0.61624 0.50447 1.0004 0.0
H1032 H 0.51025 0.47228 0.90229 0.0
H1033 H 0.49039 0.4853 0.93671 0.0
H1034 H 0.5865 0.46753 0.89577 0.0
H1035 H 0.48469 0.58818 0.07472 0.0
H1036 H 0.50556 0.60806 0.11521 0.0
H1037 H 0.54619 0.46583 0.88719 0.0
H1038 H 0.63861 0.4907 0.96857 0.0
N1039 N 0.54308 0.49778 0.96653 0.0
C1040 C 0.51961 0.4794 0.9202 0.0
C1041 C 0.50832 0.48663 0.93956 0.0
C1042 C 0.54277 0.4811 0.92423 0.0
C1043 C 0.55419 0.49054 0.9479 0.0
C1044 C 0.52029 0.49557 0.96271 0.0
N1045 N 0.587 0.49996 0.97582 0.0
C1046 C 0.57686 0.49166 0.95269 0.0
C1047 C 0.62131 0.49104 0.96383 0.0
C1048 C 0.61137 0.48327 0.93982 0.0
C1049 C 0.60867 0.49892 0.98176 0.0
C1050 C 0.58878 0.48315 0.93402 0.0
H1051 H 0.62109 0.47687 0.92599 0.0
O1052 O 0.57605 0.48489 0.02301 0.0
O1053 O 0.56609 0.53493 0.04279 0.0
O1054 O 0.59406 0.57506 0.02404 0.0
O1055 O 0.59302 0.53952 0.9951 0.0
O1056 O 0.59403 0.52251 0.03455 0.0
O1057 O 0.54423 0.47195 0.99962 0.0
O1058 O 0.53438 0.58674 0.01846 0.0
O1059 O 0.54645 0.53957 0.99845 0.0
O1060 O 0.52948 0.5031 0.01644 0.0
O1061 O 0.52596 0.54076 0.03764 0.0
O1062 O 0.56272 0.57459 0.99489 0.0
O1063 O 0.56827 0.60946 0.03729 0.0
C1064 C 0.58524 0.53311 0.05215 0.0
C1065 C 0.57763 0.47416 0.91035 0.0
C1066 C 0.55467 0.47316 0.90546 0.0
C1067 C 0.55842 0.46637 0.01424 0.0
C1068 C 0.56225 0.4417 0.00853 0.0
C1069 C 0.57522 0.43492 0.99044 0.0
C1070 C 0.55376 0.42519 0.0231 0.0
C1071 C 0.55801 0.40172 0.0198 0.0
C1072 C 0.57951 0.41144 0.98699 0.0
C1073 C 0.57089 0.39482 0.00154 0.0
C1074 C 0.60336 0.56246 0.00743 0.0
C1075 C 0.55154 0.55287 0.98263 0.0
C1076 C 0.54872 0.60879 0.02587 0.0
C1077 C 0.54298 0.63125 0.02192 0.0
C1078 C 0.52165 0.6347 0.02617 0.0
C1079 C 0.55841 0.64878 0.01271 0.0
C1080 C 0.55265 0.66995 0.00804 0.0
C1081 C 0.51598 0.65595 0.02172 0.0
C1082 C 0.53146 0.67363 0.01277 0.0
C1083 C 0.51795 0.51651 0.02895 0.0
H1084 H 0.5821 0.44771 0.97924 0.0
H1085 H 0.54373 0.43067 0.03707 0.0
H1086 H 0.58961 0.40615 0.97311 0.0
H1087 H 0.57447 0.37677 0.99874 0.0
H1088 H 0.50947 0.62103 0.03301 0.0
H1089 H 0.57479 0.64591 0.00906 0.0
H1090 H 0.49956 0.65869 0.02512 0.0
H1091 H 0.52683 0.69002 0.00928 0.0
Gd1092 Gd 0.7911 0.27564 0.28008 0.0
Gd1093 Gd 0.84166 0.31558 0.26956 0.0
C1094 C 0.84162 0.39348 0.25903 0.0
C1095 C 0.85166 0.3919 0.21834 0.0
C1096 C 0.84862 0.35582 0.23647 0.0
C1097 C 0.84269 0.36859 0.25722 0.0
C1098 C 0.85389 0.36762 0.21712 0.0
C1099 C 0.84552 0.4048 0.23925 0.0
C1100 C 0.83753 0.4066 0.28096 0.0
C1101 C 0.83551 0.39523 0.30066 0.0
N1102 N 0.83967 0.35738 0.27625 0.0
C1103 C 0.83697 0.37064 0.2981 0.0
H1104 H 0.83542 0.36232 0.31363 0.0
C1105 C 0.86165 0.32158 0.21842 0.0
N1106 N 0.85127 0.33266 0.2361 0.0
C1107 C 0.8667 0.33225 0.19857 0.0
C1108 C 0.86236 0.35516 0.19767 0.0
H1109 H 0.86607 0.30454 0.21972 0.0
H1110 H 0.8446 0.42384 0.24027 0.0
H1111 H 0.79755 0.22951 0.23533 0.0
H1112 H 0.83659 0.42574 0.28307 0.0
H1113 H 0.83287 0.40539 0.31787 0.0
H1114 H 0.85544 0.40121 0.20357 0.0
H1115 H 0.77076 0.28876 0.33221 0.0
H1116 H 0.78975 0.16316 0.26253 0.0
H1117 H 0.79717 0.18549 0.2294 0.0
H1118 H 0.76894 0.18602 0.34141 0.0
H1119 H 0.87428 0.32302 0.1842 0.0
H1120 H 0.86661 0.36359 0.18246 0.0
H1121 H 0.77947 0.16361 0.3044 0.0
H1122 H 0.75863 0.26812 0.36547 0.0
N1123 N 0.79122 0.23314 0.27212 0.0
C1124 C 0.79006 0.18273 0.2654 0.0
C1125 C 0.79419 0.19524 0.24665 0.0
C1126 C 0.78565 0.19541 0.28738 0.0
C1127 C 0.7863 0.22093 0.29022 0.0
C1128 C 0.79437 0.22041 0.2502 0.0
N1129 N 0.78025 0.25769 0.31275 0.0
C1130 C 0.78056 0.23356 0.31113 0.0
C1131 C 0.7649 0.25823 0.35037 0.0
C1132 C 0.7662 0.23382 0.3496 0.0
C1133 C 0.77177 0.26986 0.33153 0.0
C1134 C 0.77376 0.22102 0.32965 0.0
H1135 H 0.76079 0.22481 0.36417 0.0
O1136 O 0.75808 0.28172 0.28385 0.0
O1137 O 0.80439 0.31367 0.27116 0.0
O1138 O 0.83779 0.32063 0.30885 0.0
O1139 O 0.81386 0.28422 0.31491 0.0
O1140 O 0.78589 0.31252 0.2996 0.0
O1141 O 0.76229 0.25371 0.25376 0.0
O1142 O 0.87467 0.30859 0.26852 0.0
O1143 O 0.82819 0.27746 0.27832 0.0
O1144 O 0.7946 0.27061 0.24051 0.0
O1145 O 0.81965 0.30648 0.23466 0.0
O1146 O 0.84731 0.27856 0.25042 0.0
O1147 O 0.87111 0.34159 0.29265 0.0
C1148 C 0.79486 0.327 0.28585 0.0
C1149 C 0.77394 0.19591 0.3273 0.0
C1150 C 0.77992 0.18315 0.30622 0.0
C1151 C 0.74837 0.26469 0.2647 0.0
C1152 C 0.72578 0.24951 0.26608 0.0
C1153 C 0.72105 0.23535 0.28375 0.0
C1154 C 0.70821 0.25131 0.25027 0.0
C1155 C 0.68586 0.2393 0.25207 0.0
C1156 C 0.69855 0.22308 0.28542 0.0
C1157 C 0.6809 0.22506 0.2696 0.0
C1158 C 0.83017 0.30506 0.32272 0.0
C1159 C 0.83755 0.26388 0.26366 0.0
C1160 C 0.88496 0.32905 0.28407 0.0
C1161 C 0.90664 0.34289 0.27817 0.0
C1162 C 0.90816 0.35779 0.26096 0.0
C1163 C 0.92631 0.33924 0.28888 0.0
C1164 C 0.94746 0.34989 0.28226 0.0
C1165 C 0.92928 0.36822 0.25405 0.0
C1166 C 0.94895 0.36413 0.26454 0.0
C1167 C 0.80337 0.2858 0.22671 0.0
H1168 H 0.73453 0.23408 0.29634 0.0
H1169 H 0.71187 0.26258 0.23685 0.0
H1170 H 0.69478 0.21233 0.29915 0.0
H1171 H 0.66348 0.21584 0.27119 0.0
H1172 H 0.89322 0.36127 0.25278 0.0
H1173 H 0.92517 0.3278 0.30229 0.0
H1174 H 0.9304 0.37951 0.24061 0.0
H1175 H 0.96527 0.37252 0.25932 0.0
Gd1176 Gd 0.04732 0.55557 0.476 0.0
Gd1177 Gd 0.06107 0.54033 0.53512 0.0
C1178 C 0.1325 0.5682 0.57696 0.0
C1179 C 0.14031 0.52936 0.58206 0.0
C1180 C 0.10489 0.5287 0.5594 0.0
C1181 C 0.11136 0.55446 0.56356 0.0
C1182 C 0.1191 0.51585 0.56901 0.0
C1183 C 0.14701 0.5555 0.58599 0.0
C1184 C 0.13835 0.5943 0.58105 0.0
C1185 C 0.12331 0.60606 0.57182 0.0
N1186 N 0.09691 0.56608 0.55453 0.0
C1187 C 0.10262 0.59164 0.55854 0.0
H1188 H 0.09165 0.60129 0.55118 0.0
C1189 C 0.07593 0.49116 0.54509 0.0
N1190 N 0.08428 0.51625 0.5468 0.0
C1191 C 0.08942 0.4775 0.55411 0.0
C1192 C 0.11124 0.48986 0.56586 0.0
H1193 H 0.0588 0.48171 0.53663 0.0
H1194 H 0.16332 0.56573 0.59627 0.0
H1195 H 0.02955 0.48975 0.45145 0.0
H1196 H 0.15439 0.60552 0.59131 0.0
H1197 H 0.12768 0.62625 0.5748 0.0
H1198 H 0.15149 0.51982 0.5895 0.0
H1199 H 0.03348 0.60933 0.47652 0.0
H1200 H 0.96082 0.47124 0.42198 0.0
H1201 H 0.99578 0.45921 0.43123 0.0
H1202 H 0.94164 0.54864 0.43386 0.0
H1203 H 0.08289 0.45752 0.55225 0.0
H1204 H 0.12158 0.4793 0.57304 0.0
H1205 H 0.94078 0.50432 0.42365 0.0
H1206 H 1.00048 0.62367 0.46575 0.0
N1207 N 0.01565 0.5216 0.45466 0.0
C1208 C 0.976 0.48545 0.43101 0.0
C1209 C 0.99569 0.47863 0.43618 0.0
C1210 C 0.97606 0.51047 0.43753 0.0
C1211 C 0.99627 0.52839 0.44944 0.0
C1212 C 0.01529 0.49677 0.44794 0.0
N1213 N 0.01576 0.57044 0.46715 0.0
C1214 C 0.99639 0.55336 0.45585 0.0
C1215 C 0.99893 0.60383 0.46314 0.0
C1216 C 0.97825 0.58651 0.45386 0.0
C1217 C 0.01765 0.59546 0.46921 0.0
C1218 C 0.97687 0.56099 0.44959 0.0
H1219 H 0.96368 0.59304 0.44921 0.0
O1220 O 0.06512 0.59131 0.46899 0.0
O1221 O 0.07288 0.56224 0.50805 0.0
O1222 O 0.05382 0.5776 0.54282 0.0
O1223 O 0.03932 0.58332 0.506 0.0
O1224 O 0.08452 0.55843 0.47437 0.0
O1225 O 0.04746 0.5598 0.43932 0.0
O1226 O 0.03651 0.51993 0.5543 0.0
O1227 O 0.03526 0.54199 0.50716 0.0
O1228 O 0.05976 0.52119 0.46811 0.0
O1229 O 0.06896 0.5119 0.50587 0.0
O1230 O 0.0284 0.50976 0.52011 0.0
O1231 O 0.05735 0.55714 0.57168 0.0
C1232 C 0.09028 0.56265 0.49734 0.0
C1233 C 0.95681 0.54311 0.43844 0.0
C1234 C 0.95638 0.51791 0.43251 0.0
C1235 C 0.05933 0.58325 0.44574 0.0
C1236 C 0.07518 0.59273 0.42981 0.0
C1237 C 0.07873 0.61782 0.42824 0.0
C1238 C 0.08427 0.57669 0.41402 0.0
C1239 C 0.09595 0.58558 0.39596 0.0
C1240 C 0.09086 0.62677 0.41055 0.0
C1241 C 0.09925 0.61066 0.39426 0.0
C1242 C 0.04402 0.58978 0.52975 0.0
C1243 C 0.02058 0.52187 0.50598 0.0
C1244 C 0.04169 0.53758 0.57365 0.0
C1245 C 0.04265 0.52922 0.59605 0.0
C1246 C 0.05975 0.51886 0.60357 0.0
C1247 C 0.02417 0.5292 0.60871 0.0
C1248 C 0.02211 0.51811 0.62845 0.0
C1249 C 0.05787 0.508 0.62369 0.0
C1250 C 0.0389 0.50736 0.63604 0.0
C1251 C 0.06727 0.50764 0.48188 0.0
H1252 H 0.07148 0.63024 0.44023 0.0
H1253 H 0.08142 0.55721 0.41501 0.0
H1254 H 0.09333 0.64605 0.40915 0.0
H1255 H 0.10834 0.61772 0.38031 0.0
H1256 H 0.07418 0.51877 0.59379 0.0
H1257 H 0.01089 0.53707 0.60269 0.0
H1258 H 0.07092 0.49983 0.62953 0.0
H1259 H 0.03744 0.49882 0.65155 0.0
Gd1260 Gd 0.84032 0.78464 0.27429 0.0
Gd1261 Gd 0.78416 0.79677 0.26726 0.0
C1262 C 0.7451 0.78054 0.19171 0.0
C1263 C 0.74131 0.82159 0.18873 0.0
C1264 C 0.76083 0.8159 0.2251 0.0
C1265 C 0.75704 0.79077 0.21508 0.0
C1266 C 0.75247 0.83147 0.21231 0.0
C1267 C 0.73769 0.79617 0.17843 0.0
C1268 C 0.7404 0.75479 0.18261 0.0
C1269 C 0.74691 0.7398 0.197 0.0
N1270 N 0.76409 0.77613 0.22859 0.0
C1271 C 0.75849 0.75074 0.22011 0.0
H1272 H 0.76352 0.73857 0.23045 0.0
C1273 C 0.77249 0.84856 0.25992 0.0
N1274 N 0.77135 0.82481 0.24801 0.0
C1275 C 0.76468 0.86479 0.24794 0.0
C1276 C 0.75487 0.8563 0.2239 0.0
H1277 H 0.78002 0.85509 0.27856 0.0
H1278 H 0.72862 0.78866 0.16042 0.0
H1279 H 0.87064 0.84233 0.30574 0.0
H1280 H 0.73134 0.74624 0.16474 0.0
H1281 H 0.7431 0.71979 0.19029 0.0
H1282 H 0.73493 0.8333 0.17854 0.0
H1283 H 0.84298 0.72542 0.26472 0.0
H1284 H 0.89859 0.83606 0.37401 0.0
H1285 H 0.89233 0.86199 0.34521 0.0
H1286 H 0.88487 0.74784 0.36601 0.0
H1287 H 0.76612 0.88377 0.25726 0.0
H1288 H 0.74864 0.86884 0.2147 0.0
H1289 H 0.89512 0.7933 0.38188 0.0
H1290 H 0.85425 0.69643 0.28764 0.0
N1291 N 0.86229 0.80536 0.31202 0.0
C1292 C 0.88841 0.82726 0.35673 0.0
C1293 C 0.88493 0.84194 0.34055 0.0
C1294 C 0.88002 0.80127 0.34972 0.0
C1295 C 0.86711 0.79073 0.32684 0.0
C1296 C 0.87207 0.83062 0.31812 0.0
N1297 N 0.85143 0.75623 0.29483 0.0
C1298 C 0.86149 0.76526 0.31791 0.0
C1299 C 0.85621 0.71569 0.29644 0.0
C1300 C 0.86508 0.7243 0.32074 0.0
C1301 C 0.84987 0.73211 0.28354 0.0
C1302 C 0.86842 0.74952 0.3316 0.0
H1303 H 0.87019 0.71162 0.33065 0.0
O1304 O 0.85749 0.76887 0.24566 0.0
O1305 O 0.8124 0.78725 0.2485 0.0
O1306 O 0.78044 0.756 0.26957 0.0
O1307 O 0.81522 0.75154 0.28453 0.0
O1308 O 0.82401 0.75556 0.24107 0.0
O1309 O 0.87335 0.8057 0.26697 0.0
O1310 O 0.76571 0.81134 0.29533 0.0
O1311 O 0.81234 0.79452 0.29263 0.0
O1312 O 0.84323 0.82615 0.27296 0.0
O1313 O 0.80844 0.82983 0.2568 0.0
O1314 O 0.80049 0.82557 0.30115 0.0
O1315 O 0.75163 0.77414 0.27379 0.0
C1316 C 0.81081 0.76747 0.23294 0.0
C1317 C 0.87965 0.75967 0.35512 0.0
C1318 C 0.88546 0.78555 0.36417 0.0
C1319 C 0.87535 0.78785 0.2498 0.0
C1320 C 0.8974 0.7817 0.24994 0.0
C1321 C 0.90218 0.76569 0.26437 0.0
C1322 C 0.91326 0.79058 0.23465 0.0
C1323 C 0.93374 0.7834 0.2339 0.0
C1324 C 0.92195 0.75794 0.26316 0.0
C1325 C 0.93754 0.76657 0.24803 0.0
C1326 C 0.79289 0.74262 0.27804 0.0
C1327 C 0.81435 0.81402 0.30858 0.0
C1328 C 0.74861 0.79146 0.29092 0.0
C1329 C 0.72582 0.79581 0.29035 0.0
C1330 C 0.71797 0.80604 0.27194 0.0
C1331 C 0.71217 0.79084 0.30881 0.0
C1332 C 0.69107 0.79664 0.30891 0.0
C1333 C 0.69716 0.81176 0.27204 0.0
C1334 C 0.68387 0.80726 0.29043 0.0
C1335 C 0.83054 0.83926 0.26411 0.0
H1336 H 0.89053 0.7589 0.27639 0.0
H1337 H 0.90975 0.80315 0.22362 0.0
H1338 H 0.92521 0.74514 0.27401 0.0
H1339 H 0.95262 0.75994 0.24734 0.0
H1340 H 0.728 0.80981 0.25758 0.0
H1341 H 0.7181 0.78304 0.32321 0.0
H1342 H 0.69135 0.81988 0.25787 0.0
H1343 H 0.66782 0.81201 0.29021 0.0
Gd1344 Gd 0.79606 0.30505 0.80166 0.0
Gd1345 Gd 0.82502 0.2824 0.74968 0.0
C1346 C 0.79661 0.20178 0.70572 0.0
C1347 C 0.8265 0.18289 0.71536 0.0
C1348 C 0.83 0.22661 0.73325 0.0
C1349 C 0.80904 0.22473 0.7211 0.0
C1350 C 0.8394 0.20599 0.72943 0.0
C1351 C 0.80506 0.18074 0.70368 0.0
C1352 C 0.77657 0.20085 0.69188 0.0
C1353 C 0.77039 0.22284 0.69191 0.0
N1354 N 0.80173 0.24571 0.72256 0.0
C1355 C 0.78371 0.24524 0.70658 0.0
H1356 H 0.78002 0.26197 0.70355 0.0
C1357 C 0.86508 0.25322 0.75321 0.0
N1358 N 0.84226 0.24917 0.74669 0.0
C1359 C 0.87512 0.23347 0.74983 0.0
C1360 C 0.86204 0.20956 0.73849 0.0
H1361 H 0.87553 0.27172 0.7619 0.0
H1362 H 0.79561 0.163 0.69217 0.0
H1363 H 0.85202 0.33298 0.82556 0.0
H1364 H 0.76653 0.18359 0.68004 0.0
H1365 H 0.75583 0.22277 0.67993 0.0
H1366 H 0.83335 0.16683 0.71255 0.0
H1367 H 0.74436 0.31348 0.79138 0.0
H1368 H 0.85616 0.4051 0.86722 0.0
H1369 H 0.87391 0.37122 0.85319 0.0
H1370 H 0.78148 0.41449 0.85273 0.0
H1371 H 0.89296 0.23675 0.75591 0.0
H1372 H 0.86991 0.19428 0.7357 0.0
H1373 H 0.82179 0.42111 0.86675 0.0
H1374 H 0.72443 0.34569 0.80327 0.0
N1375 N 0.82081 0.34347 0.82419 0.0
C1376 C 0.84614 0.38799 0.85514 0.0
C1377 C 0.85616 0.36887 0.84738 0.0
C1378 C 0.82335 0.38491 0.84707 0.0
C1379 C 0.81099 0.36223 0.83132 0.0
C1380 C 0.84329 0.34674 0.83188 0.0
N1381 N 0.7769 0.33666 0.80824 0.0
C1382 C 0.78841 0.35873 0.82307 0.0
C1383 C 0.74249 0.34978 0.8087 0.0
C1384 C 0.75429 0.37285 0.82323 0.0
C1385 C 0.75398 0.3317 0.80172 0.0
C1386 C 0.77744 0.37749 0.83084 0.0
H1387 H 0.74526 0.38671 0.82894 0.0
O1388 O 0.76551 0.29032 0.81665 0.0
O1389 O 0.80337 0.2734 0.77738 0.0
O1390 O 0.79265 0.29278 0.73627 0.0
O1391 O 0.77712 0.31161 0.76901 0.0
O1392 O 0.76998 0.26863 0.78396 0.0
O1393 O 0.79907 0.29854 0.83814 0.0
O1394 O 0.85804 0.29794 0.73983 0.0
O1395 O 0.81637 0.31386 0.77276 0.0
O1396 O 0.82704 0.29389 0.81626 0.0
O1397 O 0.8412 0.27387 0.78323 0.0
O1398 O 0.8489 0.32123 0.76401 0.0
O1399 O 0.82831 0.28434 0.71259 0.0
C1400 C 0.78405 0.25848 0.77296 0.0
C1401 C 0.78966 0.39997 0.84651 0.0
C1402 C 0.81259 0.4037 0.85455 0.0
C1403 C 0.77699 0.29121 0.83705 0.0
C1404 C 0.76549 0.28411 0.85702 0.0
C1405 C 0.747 0.29307 0.86378 0.0
C1406 C 0.77181 0.26646 0.86797 0.0
C1407 C 0.75905 0.25677 0.8849 0.0
C1408 C 0.73473 0.28405 0.88144 0.0
C1409 C 0.74054 0.26565 0.8918 0.0
C1410 C 0.77707 0.30342 0.74559 0.0
C1411 C 0.83444 0.3306 0.77501 0.0
C1412 C 0.85014 0.29525 0.71736 0.0
C1413 C 0.8592 0.31636 0.70646 0.0
C1414 C 0.88277 0.32706 0.70898 0.0
C1415 C 0.84465 0.32519 0.69261 0.0
C1416 C 0.85352 0.34445 0.68125 0.0
C1417 C 0.89163 0.34665 0.69779 0.0
C1418 C 0.87702 0.35538 0.68388 0.0
C1419 C 0.84141 0.28169 0.80679 0.0
H1420 H 0.74197 0.30676 0.85524 0.0
H1421 H 0.78579 0.25915 0.86228 0.0
H1422 H 0.72044 0.29088 0.8867 0.0
H1423 H 0.73056 0.25822 0.90501 0.0
H1424 H 0.89429 0.32011 0.71939 0.0
H1425 H 0.82644 0.31682 0.6901 0.0
H1426 H 0.90979 0.35474 0.69953 0.0
H1427 H 0.88403 0.37002 0.67456 0.0
Gd1428 Gd 0.78675 0.74905 0.75102 0.0
Gd1429 Gd 0.81998 0.81384 0.77993 0.0
C1430 C 0.88978 0.85712 0.76505 0.0
C1431 C 0.90969 0.87375 0.80559 0.0
C1432 C 0.87139 0.84592 0.7991 0.0
C1433 C 0.87068 0.84444 0.77456 0.0
C1434 C 0.8909 0.86061 0.81492 0.0
C1435 C 0.90915 0.87196 0.78069 0.0
C1436 C 0.88902 0.85432 0.74007 0.0
C1437 C 0.86974 0.83884 0.72521 0.0
N1438 N 0.85162 0.82996 0.75997 0.0
C1439 C 0.8512 0.82677 0.7354 0.0
H1440 H 0.83695 0.8146 0.72309 0.0
C1441 C 0.85271 0.83466 0.83181 0.0
N1442 N 0.85302 0.83296 0.80755 0.0
C1443 C 0.87169 0.84881 0.84817 0.0
C1444 C 0.89089 0.86185 0.83969 0.0
H1445 H 0.83757 0.82537 0.83857 0.0
H1446 H 0.92385 0.88198 0.77369 0.0
H1447 H 0.76876 0.72902 0.80105 0.0
H1448 H 0.90333 0.8637 0.73209 0.0
H1449 H 0.86911 0.83615 0.7058 0.0
H1450 H 0.92476 0.88523 0.81746 0.0
H1451 H 0.77201 0.73015 0.69175 0.0
H1452 H 0.6967 0.71173 0.79425 0.0
H1453 H 0.73343 0.71684 0.81822 0.0
H1454 H 0.6766 0.70928 0.71097 0.0
H1455 H 0.87135 0.84997 0.86733 0.0
H1456 H 0.90552 0.87297 0.85241 0.0
H1457 H 0.67556 0.70943 0.75413 0.0
H1458 H 0.73747 0.71733 0.66209 0.0
N1459 N 0.75315 0.73417 0.76833 0.0
C1460 C 0.71237 0.71796 0.7868 0.0
C1461 C 0.73304 0.72079 0.80035 0.0
C1462 C 0.71215 0.72142 0.76314 0.0
C1463 C 0.73308 0.72945 0.75429 0.0
C1464 C 0.75328 0.72838 0.79061 0.0
N1465 N 0.75413 0.73431 0.72217 0.0
C1466 C 0.73361 0.72945 0.73022 0.0
C1467 C 0.7361 0.72107 0.68121 0.0
C1468 C 0.71482 0.71794 0.68929 0.0
C1469 C 0.75563 0.72864 0.69801 0.0
C1470 C 0.71333 0.72133 0.71407 0.0
H1471 H 0.69966 0.71163 0.67628 0.0
O1472 O 0.79678 0.72112 0.72604 0.0
O1473 O 0.82057 0.77634 0.76067 0.0
O1474 O 0.80495 0.81217 0.74184 0.0
O1475 O 0.77772 0.77362 0.72711 0.0
O1476 O 0.81216 0.75649 0.72533 0.0
O1477 O 0.7926 0.71657 0.76265 0.0
O1478 O 0.81115 0.84071 0.80728 0.0
O1479 O 0.78652 0.78614 0.77044 0.0
O1480 O 0.80077 0.75388 0.79056 0.0
O1481 O 0.83201 0.78896 0.80162 0.0
O1482 O 0.79407 0.80593 0.80572 0.0
O1483 O 0.81074 0.84541 0.77006 0.0
C1484 C 0.82828 0.77168 0.74097 0.0
C1485 C 0.69237 0.71528 0.72304 0.0
C1486 C 0.69178 0.71537 0.7476 0.0
C1487 C 0.79698 0.70696 0.74143 0.0
C1488 C 0.78773 0.68014 0.7324 0.0
C1489 C 0.77181 0.66964 0.71167 0.0
C1490 C 0.79749 0.66487 0.74357 0.0
C1491 C 0.79237 0.63931 0.73382 0.0
C1492 C 0.76634 0.64387 0.70204 0.0
C1493 C 0.77692 0.6287 0.71284 0.0
C1494 C 0.78882 0.79644 0.72531 0.0
C1495 C 0.77857 0.78991 0.79001 0.0
C1496 C 0.80825 0.85465 0.79224 0.0
C1497 C 0.81675 0.88165 0.80079 0.0
C1498 C 0.83245 0.893 0.82157 0.0
C1499 C 0.80691 0.89624 0.78868 0.0
C1500 C 0.81209 0.922 0.79727 0.0
C1501 C 0.83772 0.91891 0.83023 0.0
C1502 C 0.82734 0.93342 0.8183 0.0
C1503 C 0.81891 0.76806 0.80565 0.0
H1504 H 0.76415 0.6813 0.70265 0.0
H1505 H 0.81024 0.67318 0.75921 0.0
H1506 H 0.75438 0.63577 0.68585 0.0
H1507 H 0.77325 0.60894 0.70485 0.0
H1508 H 0.8402 0.88194 0.83132 0.0
H1509 H 0.79437 0.88733 0.77295 0.0
H1510 H 0.84958 0.92768 0.84641 0.0
H1511 H 0.83118 0.95339 0.82534 0.0
Gd1512 Gd 0.5882 0.55571 0.53476 0.0
Gd1513 Gd 0.53391 0.52105 0.50524 0.0
C1514 C 0.50653 0.44157 0.51772 0.0
C1515 C 0.50261 0.41635 0.4774 0.0
C1516 C 0.5197 0.46147 0.48524 0.0
C1517 C 0.51635 0.46343 0.50937 0.0
C1518 C 0.51243 0.43782 0.46902 0.0
C1519 C 0.49975 0.41821 0.50167 0.0
C1520 C 0.50343 0.44364 0.54196 0.0
C1521 C 0.51023 0.46695 0.55746 0.0
N1522 N 0.52216 0.48646 0.52453 0.0
C1523 C 0.51959 0.48808 0.54857 0.0
H1524 H 0.52559 0.50509 0.56187 0.0
C1525 C 0.52884 0.4811 0.45283 0.0
N1526 N 0.52862 0.48258 0.47721 0.0
C1527 C 0.52231 0.45817 0.43639 0.0
C1528 C 0.51426 0.43639 0.44452 0.0
H1529 H 0.5328 0.49754 0.44532 0.0
H1530 H 0.49199 0.40143 0.50783 0.0
H1531 H 0.59352 0.57746 0.48384 0.0
H1532 H 0.49603 0.42731 0.54896 0.0
H1533 H 0.50848 0.46871 0.57646 0.0
H1534 H 0.49683 0.39822 0.46513 0.0
H1535 H 0.59815 0.56883 0.5947 0.0
H1536 H 0.62025 0.65668 0.50268 0.0
H1537 H 0.60711 0.61733 0.47174 0.0
H1538 H 0.63051 0.67482 0.589 0.0
H1539 H 0.52271 0.45745 0.41728 0.0
H1540 H 0.50865 0.41865 0.43161 0.0
H1541 H 0.62887 0.67794 0.54644 0.0
H1542 H 0.61328 0.60573 0.62823 0.0
N1543 N 0.59784 0.59357 0.52142 0.0
C1544 C 0.61398 0.63913 0.50814 0.0
C1545 C 0.60668 0.61698 0.49065 0.0
C1546 C 0.61372 0.63828 0.53251 0.0
C1547 C 0.60539 0.61492 0.53867 0.0
C1548 C 0.59893 0.59427 0.49766 0.0
N1549 N 0.59915 0.59024 0.5677 0.0
C1550 C 0.60612 0.61319 0.56257 0.0
C1551 C 0.6111 0.60815 0.60988 0.0
C1552 C 0.61756 0.63199 0.60495 0.0
C1553 C 0.60232 0.58735 0.59091 0.0
C1554 C 0.61545 0.63472 0.58105 0.0
H1555 H 0.62475 0.64804 0.61963 0.0
O1556 O 0.61321 0.54293 0.55382 0.0
O1557 O 0.56649 0.51628 0.52063 0.0
O1558 O 0.52768 0.53747 0.5441 0.0
O1559 O 0.56329 0.56272 0.56289 0.0
O1560 O 0.57889 0.52707 0.55722 0.0
O1561 O 0.62297 0.56327 0.52595 0.0
O1562 O 0.51618 0.52662 0.47321 0.0
O1563 O 0.5595 0.55793 0.5098 0.0
O1564 O 0.59455 0.53813 0.49665 0.0
O1565 O 0.55844 0.5248 0.47595 0.0
O1566 O 0.52702 0.55856 0.51711 0.0
O1567 O 0.49741 0.50693 0.49796 0.0
C1568 C 0.56869 0.50838 0.53992 0.0
C1569 C 0.62325 0.6581 0.57506 0.0
C1570 C 0.62234 0.65988 0.55083 0.0
C1571 C 0.62936 0.55198 0.54192 0.0
C1572 C 0.65221 0.56187 0.555 0.0
C1573 C 0.65668 0.57549 0.57894 0.0
C1574 C 0.66929 0.5536 0.54408 0.0
C1575 C 0.69029 0.55661 0.55736 0.0
C1576 C 0.67808 0.58011 0.59192 0.0
C1577 C 0.69473 0.57035 0.58138 0.0
C1578 C 0.54114 0.55272 0.56359 0.0
C1579 C 0.54685 0.57233 0.51544 0.0
C1580 C 0.49645 0.51459 0.47781 0.0
C1581 C 0.47702 0.52356 0.47158 0.0
C1582 C 0.46686 0.51648 0.44753 0.0
C1583 C 0.46776 0.53771 0.4891 0.0
C1584 C 0.44832 0.54466 0.48233 0.0
C1585 C 0.44746 0.5234 0.44089 0.0
C1586 C 0.43819 0.53746 0.45822 0.0
C1587 C 0.5808 0.52899 0.47604 0.0
H1588 H 0.64361 0.58182 0.58782 0.0
H1589 H 0.66561 0.54343 0.52543 0.0
H1590 H 0.68144 0.59034 0.6105 0.0
H1591 H 0.71064 0.57279 0.59231 0.0
H1592 H 0.47381 0.50531 0.43394 0.0
H1593 H 0.4755 0.54317 0.50774 0.0
H1594 H 0.43955 0.51778 0.42235 0.0
H1595 H 0.42304 0.54269 0.45289 0.0
Gd1596 Gd 0.03357 0.5371 0.03431 0.0
Gd1597 Gd 0.08854 0.54565 0.01056 0.0
C1598 C 0.13667 0.62201 0.0123 0.0
C1599 C 0.13901 0.62084 0.96969 0.0
C1600 C 0.11556 0.58519 0.98244 0.0
C1601 C 0.12164 0.59774 0.00634 0.0
C1602 C 0.12448 0.59646 0.96388 0.0
C1603 C 0.14503 0.63361 0.99383 0.0
C1604 C 0.14325 0.63368 0.03666 0.0
C1605 C 0.13549 0.62086 0.05437 0.0
N1606 N 0.11351 0.58592 0.0238 0.0
C1607 C 0.12086 0.59672 0.0476 0.0
H1608 H 0.11525 0.58706 0.06157 0.0
C1609 C 0.09656 0.5478 0.95424 0.0
N1610 N 0.10147 0.56165 0.97738 0.0
C1611 C 0.10502 0.5582 0.93524 0.0
C1612 C 0.11888 0.5827 0.94005 0.0
H1613 H 0.08601 0.52878 0.95041 0.0
H1614 H 0.15651 0.65228 0.99807 0.0
H1615 H 0.00537 0.50261 0.98042 0.0
H1616 H 0.15469 0.65234 0.04196 0.0
H1617 H 0.14082 0.62952 0.07327 0.0
H1618 H 0.14593 0.62986 0.95566 0.0
H1619 H 0.03616 0.54587 0.09399 0.0
H1620 H 0.96516 0.43328 0.99169 0.0
H1621 H 0.97859 0.46143 0.96434 0.0
H1622 H 0.97594 0.44305 0.07752 0.0
H1623 H 0.1009 0.54727 0.91692 0.0
H1624 H 0.12547 0.59068 0.9253 0.0
H1625 H 0.96447 0.4265 0.03396 0.0
H1626 H 0.02145 0.52217 0.12453 0.0
N1627 N 0.00779 0.49806 0.01679 0.0
C1628 C 0.97704 0.45142 0.99894 0.0
C1629 C 0.98452 0.46728 0.98346 0.0
C1630 C 0.98442 0.45949 0.02369 0.0
C1631 C 0.99991 0.48328 0.0322 0.0
C1632 C 0.99981 0.49072 0.99274 0.0
N1633 N 0.02055 0.5159 0.06428 0.0
C1634 C 0.00641 0.49254 0.0567 0.0
C1635 C 0.0172 0.51357 0.10552 0.0
C1636 C 0.00337 0.48908 0.09806 0.0
C1637 C 0.02549 0.52691 0.08826 0.0
C1638 C 0.99757 0.47836 0.0734 0.0
H1639 H 0.99689 0.47882 0.11146 0.0
O1640 O 0.01959 0.56542 0.05365 0.0
O1641 O 0.06435 0.56487 0.02834 0.0
O1642 O 0.0899 0.5459 0.05014 0.0
O1643 O 0.05566 0.52054 0.05595 0.0
O1644 O 0.05346 0.57155 0.06175 0.0
O1645 O 0.00186 0.54258 0.01929 0.0
O1646 O 0.10096 0.51324 0.9993 0.0
O1647 O 0.05727 0.51852 0.01592 0.0
O1648 O 0.03205 0.54203 0.99589 0.0
O1649 O 0.06807 0.56029 0.98613 0.0
O1650 O 0.06866 0.51045 0.98331 0.0
O1651 O 0.12218 0.54507 0.0253 0.0
C1652 C 0.06758 0.58096 0.04798 0.0
C1653 C 0.98279 0.4543 0.06498 0.0
C1654 C 0.97626 0.44487 0.04017 0.0
C1655 C 0.00183 0.5603 0.03767 0.0
C1656 C 0.98018 0.56043 0.04723 0.0
C1657 C 0.97511 0.55107 0.06786 0.0
C1658 C 0.96556 0.57242 0.03706 0.0
C1659 C 0.94624 0.57585 0.04787 0.0
C1660 C 0.95613 0.55437 0.0787 0.0
C1661 C 0.94199 0.5669 0.06906 0.0
C1662 C 0.07798 0.52915 0.06078 0.0
C1663 C 0.05345 0.50215 0.99651 0.0
C1664 C 0.12051 0.52292 0.01242 0.0
C1665 C 0.14006 0.51897 0.00052 0.0
C1666 C 0.14398 0.52593 0.9785 0.0
C1667 C 0.15364 0.50571 0.01014 0.0
C1668 C 0.17055 0.49874 0.99741 0.0
C1669 C 0.16089 0.51906 0.96586 0.0
C1670 C 0.17402 0.5053 0.97515 0.0
C1671 C 0.04579 0.55389 0.98244 0.0
H1672 H 0.98614 0.54187 0.07601 0.0
H1673 H 0.9695 0.57928 0.02092 0.0
H1674 H 0.95259 0.54762 0.09496 0.0
H1675 H 0.92796 0.56993 0.07859 0.0
H1676 H 0.13375 0.53619 0.97086 0.0
H1677 H 0.15063 0.50019 0.02712 0.0
H1678 H 0.1637 0.52423 0.94875 0.0
H1679 H 0.18706 0.50003 0.96515 0.0
H1680 H 0.01807 0.21513 0.00908 0.0
H1681 H 0.05437 0.08738 0.97083 0.0
H1682 H 0.03505 0.19115 0.93789 0.0
H1683 H 0.05022 0.12137 0.04411 0.0
H1684 H 0.04788 0.12453 0.95791 0.0
H1685 H 0.02956 0.18056 0.02156 0.0
C1686 C 0.0242 0.2026 0.99598 0.0
C1687 C 0.02554 0.20634 0.97232 0.0
C1688 C 0.04885 0.12414 0.97688 0.0
C1689 C 0.03869 0.16591 0.98664 0.0
C1690 C 0.05284 0.10301 0.98432 0.0
C1691 C 0.05358 0.10152 0.00876 0.0
C1692 C 0.04503 0.14385 0.9939 0.0
C1693 C 0.05032 0.12189 0.0252 0.0
C1694 C 0.03086 0.18278 0.0032 0.0
C1695 C 0.03381 0.18928 0.95635 0.0
N1696 N 0.04614 0.14199 0.01752 0.0
N1697 N 0.03984 0.1698 0.9637 0.0
H1698 H 0.1944 0.81619 0.1214 0.0
H1699 H 0.23907 0.82237 0.25935 0.0
H1700 H 0.15483 0.82971 0.17966 0.0
H1701 H 0.27132 0.7955 0.19881 0.0
H1702 H 0.20975 0.82835 0.23136 0.0
H1703 H 0.22403 0.81197 0.15007 0.0
C1704 C 0.19197 0.8186 0.14028 0.0
C1705 C 0.17192 0.82349 0.14796 0.0
C1706 C 0.22324 0.82115 0.2242 0.0
C1707 C 0.20624 0.81854 0.18129 0.0
C1708 C 0.24012 0.8177 0.24026 0.0
C1709 C 0.25794 0.8083 0.23173 0.0
C1710 C 0.22407 0.81535 0.19918 0.0
C1711 C 0.25812 0.80284 0.20652 0.0
C1712 C 0.20896 0.81602 0.15669 0.0
C1713 C 0.16991 0.82603 0.17277 0.0
N1714 N 0.24158 0.80644 0.19129 0.0
N1715 N 0.18679 0.82359 0.18846 0.0
H1716 H 0.53825 0.84232 0.43875 0.0
H1717 H 0.54235 0.96979 0.52986 0.0
H1718 H 0.51498 0.84193 0.50844 0.0
H1719 H 0.53475 0.9611 0.4526 0.0
H1720 H 0.53658 0.92441 0.52455 0.0
H1721 H 0.54298 0.8874 0.44596 0.0
C1722 C 0.53453 0.85173 0.45579 0.0
C1723 C 0.52627 0.83814 0.47303 0.0
C1724 C 0.53591 0.93242 0.50877 0.0
C1725 C 0.53149 0.8901 0.48132 0.0
C1726 C 0.53892 0.9583 0.51177 0.0
C1727 C 0.53837 0.96926 0.4916 0.0
C1728 C 0.53319 0.91746 0.48545 0.0
C1729 C 0.53491 0.95347 0.46864 0.0
C1730 C 0.53698 0.8775 0.45976 0.0
C1731 C 0.52142 0.85156 0.49462 0.0
N1732 N 0.53266 0.92851 0.4662 0.0
N1733 N 0.52415 0.87676 0.49819 0.0
H1734 H 0.56207 0.31532 0.6769 0.0
H1735 H 0.42874 0.28687 0.68495 0.0
H1736 H 0.51431 0.31887 0.61909 0.0
H1737 H 0.47927 0.30118 0.7464 0.0
H1738 H 0.4593 0.299 0.66033 0.0
H1739 H 0.53161 0.31006 0.70248 0.0
C1740 C 0.5452 0.31503 0.66958 0.0
C1741 C 0.54076 0.3173 0.64571 0.0
C1742 C 0.46364 0.29969 0.67927 0.0
C1743 C 0.50562 0.31113 0.67493 0.0
C1744 C 0.4462 0.2929 0.69335 0.0
C1745 C 0.45143 0.29264 0.71773 0.0
C1746 C 0.48646 0.30618 0.68962 0.0
C1747 C 0.47441 0.30052 0.72758 0.0
C1748 C 0.52778 0.31211 0.68423 0.0
C1749 C 0.51853 0.31705 0.63733 0.0
N1750 N 0.491 0.30669 0.7135 0.0
N1751 N 0.50177 0.31377 0.65182 0.0
H1752 H 0.03709 0.81075 0.62773 0.0
H1753 H 0.01431 0.88732 0.52898 0.0
H1754 H 0.97071 0.80007 0.58958 0.0
H1755 H 0.08057 0.87967 0.55063 0.0
H1756 H 0.99805 0.85986 0.55532 0.0
H1757 H 0.05324 0.8407 0.60381 0.0
C1758 C 0.02585 0.81484 0.61445 0.0
C1759 C 0.00246 0.80285 0.61059 0.0
C1760 C 0.01612 0.8641 0.55424 0.0
C1761 C 0.02094 0.8371 0.58318 0.0
C1762 C 0.02538 0.87974 0.53928 0.0
C1763 C 0.0487 0.88535 0.53746 0.0
C1764 C 0.03036 0.85429 0.56768 0.0
C1765 C 0.06242 0.87531 0.55124 0.0
C1766 C 0.03514 0.83186 0.60073 0.0
C1767 C 0.98881 0.80882 0.59307 0.0
N1768 N 0.05303 0.86026 0.56587 0.0
N1769 N 0.99826 0.82558 0.58 0.0
H1770 H 0.58102 0.8608 0.84829 0.0
H1771 H 0.44841 0.81048 0.80325 0.0
H1772 H 0.53788 0.79355 0.86272 0.0
H1773 H 0.48774 0.88564 0.80378 0.0
H1774 H 0.48194 0.80223 0.82126 0.0
H1775 H 0.54815 0.86754 0.82627 0.0
C1776 C 0.56472 0.84707 0.84614 0.0
C1777 C 0.56192 0.82662 0.85724 0.0
C1778 C 0.48326 0.82052 0.81743 0.0
C1779 C 0.52453 0.83431 0.83259 0.0
C1780 C 0.46402 0.82541 0.80739 0.0
C1781 C 0.46518 0.8489 0.80207 0.0
C1782 C 0.50395 0.83908 0.82188 0.0
C1783 C 0.48612 0.86717 0.80727 0.0
C1784 C 0.54597 0.85109 0.8339 0.0
C1785 C 0.54053 0.80958 0.85443 0.0
N1786 N 0.50476 0.86185 0.81687 0.0
N1787 N 0.52255 0.81387 0.84243 0.0
H1788 H 0.45564 0.15302 0.11406 0.0
H1789 H 0.54293 0.13265 0.02134 0.0
H1790 H 0.4972 0.21239 0.08607 0.0
H1791 H 0.51066 0.07918 0.06158 0.0
H1792 H 0.51882 0.15938 0.0362 0.0
H1793 H 0.46567 0.12253 0.08344 0.0
C1794 C 0.46626 0.15964 0.10097 0.0
C1795 C 0.47647 0.18521 0.10327 0.0
C1796 C 0.51695 0.14172 0.04164 0.0
C1797 C 0.48847 0.15066 0.06889 0.0
C1798 C 0.53083 0.12671 0.03343 0.0
C1799 C 0.52898 0.10414 0.04075 0.0
C1800 C 0.50107 0.13384 0.05705 0.0
C1801 C 0.513 0.09691 0.05616 0.0
C1802 C 0.47215 0.14224 0.08365 0.0
C1803 C 0.48954 0.19279 0.08542 0.0
N1804 N 0.49963 0.11177 0.06385 0.0
N1805 N 0.49583 0.17553 0.06939 0.0
H1806 H 0.1922 0.34375 0.37089 0.0
H1807 H 0.23553 0.30116 0.24611 0.0
H1808 H 0.15044 0.33303 0.30338 0.0
H1809 H 0.26507 0.29645 0.31547 0.0
H1810 H 0.20335 0.31174 0.26494 0.0
H1811 H 0.22026 0.32866 0.34924 0.0
C1812 C 0.18911 0.33836 0.35136 0.0
C1813 C 0.169 0.33917 0.33876 0.0
C1814 C 0.21657 0.30766 0.27583 0.0
C1815 C 0.20067 0.32128 0.31387 0.0
C1816 C 0.23467 0.30143 0.26511 0.0
C1817 C 0.25242 0.29756 0.27936 0.0
C1818 C 0.21693 0.31057 0.3009 0.0
C1819 C 0.25124 0.29865 0.30389 0.0
C1820 C 0.20499 0.3295 0.33901 0.0
C1821 C 0.16585 0.33251 0.31355 0.0
N1822 N 0.23385 0.30531 0.31397 0.0
N1823 N 0.18156 0.32351 0.30177 0.0
H1824 H 0.00928 0.04253 0.21024 0.0
H1825 H 0.00817 0.07178 0.07662 0.0
H1826 H 0.9686 0.0889 0.18943 0.0
H1827 H 0.06012 0.0454 0.10945 0.0
H1828 H 0.9922 0.07705 0.11542 0.0
H1829 H 0.02561 0.04184 0.1726 0.0
C1830 C 0.00368 0.05288 0.19797 0.0
C1831 C 0.98716 0.06592 0.20402 0.0
C1832 C 0.00711 0.07015 0.11426 0.0
C1833 C 0.00663 0.06486 0.15886 0.0
C1834 C 0.01635 0.06708 0.09191 0.0
C1835 C 0.03586 0.05819 0.08922 0.0
C1836 C 0.0168 0.06359 0.13453 0.0
C1837 C 0.04536 0.05258 0.1102 0.0
C1838 C 0.01328 0.0524 0.17609 0.0
C1839 C 0.98115 0.0786 0.18632 0.0
N1840 N 0.03571 0.05504 0.13142 0.0
N1841 N 0.99067 0.0776 0.16481 0.0
H1842 H 0.31391 0.67711 0.47594 0.0
H1843 H 0.22963 0.73674 0.4114 0.0
H1844 H 0.24328 0.6391 0.45132 0.0
H1845 H 0.30235 0.76568 0.41755 0.0
H1846 H 0.23478 0.70083 0.42693 0.0
H1847 H 0.31129 0.7081 0.45219 0.0
C1848 C 0.29806 0.67477 0.4649 0.0
C1849 C 0.27855 0.65602 0.4662 0.0
C1850 C 0.24963 0.71509 0.42497 0.0
C1851 C 0.27532 0.69164 0.43975 0.0
C1852 C 0.24665 0.73578 0.41667 0.0
C1853 C 0.2656 0.75418 0.41367 0.0
C1854 C 0.2717 0.713 0.43036 0.0
C1855 C 0.28737 0.75188 0.41999 0.0
C1856 C 0.29651 0.69265 0.45158 0.0
C1857 C 0.25857 0.6537 0.45132 0.0
N1858 N 0.28986 0.73158 0.42807 0.0
N1859 N 0.25729 0.67175 0.43917 0.0
H1860 H 0.65176 0.00578 0.67122 0.0
H1861 H 0.58143 0.06529 0.60136 0.0
H1862 H 0.67197 0.0852 0.67364 0.0
H1863 H 0.58742 0.99218 0.56843 0.0
H1864 H 0.61544 0.07142 0.62905 0.0
H1865 H 0.63271 0.99869 0.63072 0.0
C1866 C 0.65259 0.02169 0.66299 0.0
C1867 C 0.66178 0.04629 0.67615 0.0
C1868 C 0.60934 0.05409 0.61564 0.0
C1869 C 0.64028 0.03829 0.63052 0.0
C1870 C 0.58955 0.05025 0.60057 0.0
C1871 C 0.58219 0.02844 0.58266 0.0
C1872 C 0.62098 0.03551 0.61317 0.0
C1873 C 0.59311 0.00943 0.58202 0.0
C1874 C 0.64198 0.01758 0.6398 0.0
C1875 C 0.66369 0.06609 0.6644 0.0
N1876 N 0.61223 0.01343 0.59713 0.0
N1877 N 0.65221 0.06175 0.64223 0.0
H1878 H 0.28605 0.33699 0.95335 0.0
H1879 H 0.3425 0.34831 0.84563 0.0
H1880 H 0.35152 0.32189 0.96062 0.0
H1881 H 0.29538 0.27514 0.83216 0.0
H1882 H 0.34327 0.35044 0.88915 0.0
H1883 H 0.2844 0.32479 0.90913 0.0
C1884 C 0.29983 0.33071 0.94573 0.0
C1885 C 0.31898 0.33051 0.96071 0.0
C1886 C 0.3331 0.33378 0.87657 0.0
C1887 C 0.31725 0.31706 0.91067 0.0
C1888 C 0.33308 0.33231 0.85187 0.0
C1889 C 0.32006 0.31088 0.83543 0.0
C1890 C 0.31881 0.3144 0.88475 0.0
C1891 C 0.30653 0.29144 0.8444 0.0
C1892 C 0.29882 0.32373 0.92063 0.0
C1893 C 0.3364 0.32227 0.94984 0.0
N1894 N 0.30594 0.2938 0.8686 0.0
N1895 N 0.33536 0.31642 0.92546 0.0
H1896 H 0.9665 0.08756 0.36284 0.0
H1897 H 0.05335 0.03371 0.44133 0.0
H1898 H 0.01088 0.04595 0.33086 0.0
H1899 H 1.00136 0.06424 0.47156 0.0
H1900 H 0.03997 0.04027 0.40152 0.0
H1901 H 0.98119 0.08276 0.403 0.0
C1902 C 0.97941 0.07769 0.36398 0.0
C1903 C 0.98715 0.06731 0.34257 0.0
C1904 C 0.03148 0.04561 0.41689 0.0
C1905 C 0.00423 0.06125 0.38957 0.0
C1906 C 0.03914 0.04166 0.43986 0.0
C1907 C 0.02852 0.04793 0.46055 0.0
C1908 C 0.01323 0.05658 0.4141 0.0
C1909 C 0.01029 0.0587 0.45664 0.0
C1910 C 0.98778 0.07473 0.38715 0.0
C1911 C 0.00399 0.05451 0.34622 0.0
N1912 N 0.0035 0.06268 0.43446 0.0
N1913 N 0.01169 0.05189 0.36866 0.0
H1914 H 0.26953 0.72218 0.57255 0.0
H1915 H 0.32923 0.75557 0.7076 0.0
H1916 H 0.31185 0.68196 0.60277 0.0
H1917 H 0.27475 0.7859 0.68705 0.0
H1918 H 0.32807 0.73499 0.66613 0.0
H1919 H 0.27561 0.75142 0.61174 0.0
C1920 C 0.28031 0.7197 0.5873 0.0
C1921 C 0.29025 0.69968 0.58453 0.0
C1922 C 0.3164 0.74623 0.67047 0.0
C1923 C 0.29708 0.73266 0.62878 0.0
C1924 C 0.31721 0.75811 0.6941 0.0
C1925 C 0.30225 0.77246 0.70027 0.0
C1926 C 0.3 0.74816 0.65304 0.0
C1927 C 0.28662 0.77498 0.68249 0.0
C1928 C 0.28365 0.73627 0.60955 0.0
C1929 C 0.30395 0.69717 0.60406 0.0
N1930 N 0.28568 0.76257 0.65936 0.0
N1931 N 0.30684 0.71342 0.6254 0.0
H1932 H 0.70474 0.08073 0.82851 0.0
H1933 H 0.5897 0.04479 0.87087 0.0
H1934 H 0.65574 0.01055 0.79606 0.0
H1935 H 0.64752 0.09642 0.91707 0.0
H1936 H 0.61532 0.02583 0.8476 0.0
H1937 H 0.68798 0.08053 0.86591 0.0
C1938 C 0.6909 0.06488 0.82958 0.0
C1939 C 0.68105 0.04611 0.80914 0.0
C1940 C 0.62245 0.04069 0.86335 0.0
C1941 C 0.66133 0.04609 0.85131 0.0
C1942 C 0.60784 0.05153 0.87647 0.0
C1943 C 0.61681 0.07235 0.89537 0.0
C1944 C 0.64604 0.0511 0.86921 0.0
C1945 C 0.64024 0.08065 0.90217 0.0
C1946 C 0.6813 0.06471 0.85091 0.0
C1947 C 0.66346 0.0257 0.81141 0.0
N1948 N 0.65416 0.07025 0.88879 0.0
N1949 N 0.65355 0.02665 0.83195 0.0
H1950 H 0.31586 0.38167 0.11174 0.0
H1951 H 0.2848 0.26869 0.17785 0.0
H1952 H 0.29513 0.3042 0.07476 0.0
H1953 H 0.29613 0.34559 0.21473 0.0
H1954 H 0.28391 0.28122 0.13956 0.0
H1955 H 0.30547 0.36915 0.14928 0.0
C1956 C 0.30854 0.36207 0.1115 0.0
C1957 C 0.30622 0.34385 0.09036 0.0
C1958 C 0.28619 0.29535 0.15598 0.0
C1959 C 0.29435 0.32939 0.13286 0.0
C1960 C 0.28624 0.28807 0.17798 0.0
C1961 C 0.29006 0.30594 0.19966 0.0
C1962 C 0.29064 0.32084 0.15561 0.0
C1963 C 0.29314 0.33112 0.19846 0.0
C1964 C 0.30268 0.35492 0.13286 0.0
C1965 C 0.29719 0.31869 0.09085 0.0
N1966 N 0.29369 0.33787 0.17682 0.0
N1967 N 0.29163 0.31217 0.11182 0.0
H1968 H 0.29339 0.00958 0.98457 0.0
H1969 H 0.17889 0.99873 0.04488 0.0
H1970 H 0.25913 0.94353 0.0085 0.0
H1971 H 0.22906 0.06814 0.04728 0.0
H1972 H 0.2026 0.97602 0.0219 0.0
H1973 H 0.26329 0.02867 0.99669 0.0
C1974 C 0.27922 0.99884 0.99175 0.0
C1975 C 0.27885 0.97515 0.99588 0.0
C1976 C 0.20826 0.99623 0.02729 0.0
C1977 C 0.24465 0.99687 0.0099 0.0
C1978 C 0.19485 0.00909 0.04035 0.0
C1979 C 0.20237 0.03514 0.04804 0.0
C1980 C 0.22897 0.00972 0.02161 0.0
C1981 C 0.22299 0.04797 0.04184 0.0
C1982 C 0.26218 0.00981 0.99885 0.0
C1983 C 0.26013 0.96202 0.00532 0.0
N1984 N 0.23564 0.03509 0.02893 0.0
N1985 N 0.24382 0.9732 0.01231 0.0
H1986 H 0.74558 0.64062 0.02813 0.0
H1987 H 0.62459 0.55411 0.96651 0.0
H1988 H 0.71862 0.65332 0.96107 0.0
H1989 H 0.63549 0.59976 0.03855 0.0
H1990 H 0.6634 0.57638 0.96071 0.0
H1991 H 0.70946 0.60961 0.02842 0.0
C1992 C 0.73235 0.63617 0.01305 0.0
C1993 C 0.73495 0.64936 0.99452 0.0
C1994 C 0.65717 0.58102 0.97785 0.0
C1995 C 0.69404 0.61392 0.99458 0.0
C1996 C 0.63514 0.56841 0.98119 0.0
C1997 C 0.62672 0.57483 0.00318 0.0
C1998 C 0.671 0.59934 0.99696 0.0
C1999 C 0.64111 0.59373 0.02148 0.0
C2000 C 0.7118 0.61866 0.01329 0.0
C2001 C 0.71714 0.6434 0.97563 0.0
N2002 N 0.66253 0.60505 0.01806 0.0
N2003 N 0.69732 0.6261 0.97613 0.0
H2004 H 0.71641 0.43798 0.31492 0.0
H2005 H 0.79039 0.35076 0.24557 0.0
H2006 H 0.72891 0.44203 0.24212 0.0
H2007 H 0.77343 0.35313 0.31782 0.0
H2008 H 0.76994 0.38316 0.24217 0.0
H2009 H 0.73766 0.40712 0.31426 0.0
C2010 C 0.72354 0.43259 0.29853 0.0
C2011 C 0.72025 0.44361 0.27859 0.0
C2012 C 0.77074 0.37668 0.25883 0.0
C2013 C 0.74601 0.40631 0.27781 0.0
C2014 C 0.78269 0.35806 0.26087 0.0
C2015 C 0.78423 0.34869 0.28223 0.0
C2016 C 0.75981 0.38639 0.2782 0.0
C2017 C 0.77321 0.35928 0.30096 0.0
C2018 C 0.73596 0.41452 0.29825 0.0
C2019 C 0.73048 0.43468 0.25817 0.0
N2020 N 0.76183 0.37698 0.29848 0.0
N2021 N 0.7427 0.41691 0.25837 0.0
H2022 H 0.89834 0.53371 0.54668 0.0
H2023 H 0.98423 0.48078 0.48856 0.0
H2024 H 0.87662 0.48399 0.47681 0.0
H2025 H 0.00209 0.56023 0.51717 0.0
H2026 H 0.94396 0.48099 0.484 0.0
H2027 H 0.93617 0.54724 0.53493 0.0
C2028 C 0.90121 0.52677 0.52839 0.0
C2029 C 0.88472 0.50734 0.51292 0.0
C2030 C 0.95697 0.49846 0.49055 0.0
C2031 C 0.92777 0.52124 0.50008 0.0
C2032 C 0.97972 0.49823 0.49347 0.0
C2033 C 0.99644 0.52068 0.50255 0.0
C2034 C 0.95125 0.52114 0.49764 0.0
C2035 C 0.98989 0.54279 0.50922 0.0
C2036 C 0.92284 0.53414 0.52178 0.0
C2037 C 0.88917 0.49876 0.48939 0.0
N2038 N 0.9678 0.54248 0.50686 0.0
N2039 N 0.91075 0.50477 0.48404 0.0
H2040 H 0.40953 0.11566 0.30617 0.0
H2041 H 0.29273 0.10476 0.23492 0.0
H2042 H 0.35041 0.05475 0.30494 0.0
H2043 H 0.34322 0.17552 0.26008 0.0
H2044 H 0.31303 0.08641 0.26191 0.0
H2045 H 0.3851 0.13902 0.29142 0.0
C2046 C 0.39131 0.10754 0.30335 0.0
C2047 C 0.38183 0.08336 0.30662 0.0
C2048 C 0.31944 0.10606 0.26183 0.0
C2049 C 0.354 0.10952 0.28939 0.0
C2050 C 0.30803 0.1164 0.24632 0.0
C2051 C 0.3166 0.14147 0.24522 0.0
C2052 C 0.33968 0.1209 0.27596 0.0
C2053 C 0.3362 0.15604 0.26048 0.0
C2054 C 0.3774 0.12082 0.29497 0.0
C2055 C 0.35824 0.07347 0.30272 0.0
N2056 N 0.34734 0.14541 0.27505 0.0
N2057 N 0.34507 0.08645 0.29379 0.0
H2058 H 0.36999 0.18419 0.52346 0.0
H2059 H 0.40993 0.06012 0.51554 0.0
H2060 H 0.33295 0.11401 0.47649 0.0
H2061 H 0.45161 0.13342 0.55094 0.0
H2062 H 0.38291 0.07946 0.49792 0.0
H2063 H 0.40128 0.16621 0.53117 0.0
C2064 C 0.36846 0.16497 0.51472 0.0
C2065 C 0.3487 0.15045 0.49956 0.0
C2066 C 0.39821 0.09135 0.5091 0.0
C2067 C 0.38448 0.12965 0.50841 0.0
C2068 C 0.41362 0.08032 0.519 0.0
C2069 C 0.43283 0.09533 0.53462 0.0
C2070 C 0.40208 0.11749 0.51515 0.0
C2071 C 0.43687 0.12134 0.53896 0.0
C2072 C 0.3864 0.15475 0.51902 0.0
C2073 C 0.34782 0.1258 0.48842 0.0
N2074 N 0.42149 0.13161 0.52949 0.0
N2075 N 0.36534 0.11604 0.49332 0.0
H2076 H 0.74767 0.584 0.29469 0.0
H2077 H 0.7485 0.71692 0.26122 0.0
H2078 H 0.69329 0.59992 0.25372 0.0
H2079 H 0.80863 0.70645 0.29692 0.0
H2080 H 0.72887 0.67373 0.25987 0.0
H2081 H 0.77122 0.62723 0.29634 0.0
C2082 C 0.74074 0.59627 0.28577 0.0
C2083 C 0.71822 0.588 0.27414 0.0
C2084 C 0.74642 0.68062 0.26794 0.0
C2085 C 0.74504 0.63776 0.27623 0.0
C2086 C 0.75781 0.70564 0.26875 0.0
C2087 C 0.78073 0.71582 0.27876 0.0
C2088 C 0.75759 0.66493 0.2774 0.0
C2089 C 0.79126 0.69963 0.28849 0.0
C2090 C 0.75416 0.62108 0.28688 0.0
C2091 C 0.71033 0.60516 0.26317 0.0
N2092 N 0.77971 0.67515 0.28756 0.0
N2093 N 0.72349 0.6288 0.26457 0.0
H2094 H 0.87308 0.4713 0.7538 0.0
H2095 H 0.87107 0.36893 0.79481 0.0
H2096 H 0.86506 0.48419 0.82933 0.0
H2097 H 0.80135 0.35243 0.76377 0.0
H2098 H 0.87358 0.41367 0.80058 0.0
H2099 H 0.84617 0.42998 0.74781 0.0
C2100 C 0.86439 0.46614 0.76875 0.0
C2101 C 0.87146 0.48054 0.79218 0.0
C2102 C 0.85764 0.40003 0.79283 0.0
C2103 C 0.8417 0.43384 0.78563 0.0
C2104 C 0.85628 0.37477 0.78945 0.0
C2105 C 0.83582 0.35722 0.77943 0.0
C2106 C 0.83873 0.40751 0.78508 0.0
C2107 C 0.81713 0.3655 0.77228 0.0
C2108 C 0.84914 0.44258 0.76535 0.0
C2109 C 0.86014 0.47309 0.8111 0.0
N2110 N 0.81907 0.39029 0.77486 0.0
N2111 N 0.84643 0.44959 0.80766 0.0
H2112 H 0.10308 0.89991 0.10856 0.0
H2113 H 0.0682 0.95862 0.99736 0.0
H2114 H 0.09499 0.86199 0.03403 0.0
H2115 H 0.08475 1.00059 0.07072 0.0
H2116 H 0.07327 0.92142 0.01106 0.0
H2117 H 0.0931 0.93548 0.09577 0.0
C2118 C 0.09892 0.89891 0.08952 0.0
C2119 C 0.09992 0.87783 0.07238 0.0
C2120 C 0.07558 0.93866 0.02426 0.0
C2121 C 0.08802 0.91853 0.05749 0.0
C2122 C 0.07244 0.95985 0.01643 0.0
C2123 C 0.07555 0.98264 0.03295 0.0
C2124 C 0.08245 0.94025 0.04882 0.0
C2125 C 0.08164 0.98327 0.05742 0.0
C2126 C 0.09327 0.91929 0.08219 0.0
C2127 C 0.09464 0.87786 0.04791 0.0
N2128 N 0.08499 0.96255 0.06456 0.0
N2129 N 0.08884 0.89769 0.04126 0.0
H2130 H 0.93259 0.27439 0.92862 0.0
H2131 H 0.86504 0.24622 0.79736 0.0
H2132 H 0.96103 0.24653 0.86539 0.0
H2133 H 0.85735 0.30407 0.85478 0.0
H2134 H 0.89663 0.2409 0.82253 0.0
H2135 H 0.90155 0.27985 0.90274 0.0
C2136 C 0.93221 0.26907 0.90925 0.0
C2137 C 0.94955 0.25974 0.89928 0.0
C2138 C 0.88816 0.2549 0.82958 0.0
C2139 C 0.91353 0.26594 0.86932 0.0
C2140 C 0.87024 0.25822 0.81503 0.0
C2141 C 0.85895 0.2764 0.82334 0.0
C2142 C 0.89455 0.26922 0.85318 0.0
C2143 C 0.86558 0.29002 0.84731 0.0
C2144 C 0.91448 0.27243 0.89448 0.0
C2145 C 0.94811 0.25368 0.87396 0.0
N2146 N 0.88285 0.28613 0.86133 0.0
N2147 N 0.93034 0.25666 0.85989 0.0
H2148 H 0.60914 0.2389 0.53241 0.0
H2149 H 0.56972 0.10877 0.57475 0.0
H2150 H 0.58089 0.23263 0.59889 0.0
H2151 H 0.57252 0.11197 0.5001 0.0
H2152 H 0.58104 0.15474 0.58569 0.0
H2153 H 0.60173 0.19322 0.52173 0.0
C2154 C 0.6012 0.22797 0.54471 0.0
C2155 C 0.59551 0.23987 0.56658 0.0
C2156 C 0.57969 0.14543 0.56696 0.0
C2157 C 0.5875 0.18725 0.5546 0.0
C2158 C 0.57362 0.11918 0.56076 0.0
C2159 C 0.57096 0.10649 0.53656 0.0
C2160 C 0.58305 0.15927 0.54882 0.0
C2161 C 0.57509 0.12099 0.51904 0.0
C2162 C 0.59705 0.20184 0.5386 0.0
C2163 C 0.58541 0.22447 0.58177 0.0
N2164 N 0.581 0.14652 0.52548 0.0
N2165 N 0.58191 0.19913 0.5756 0.0
H2166 H 0.59235 0.82517 0.40051 0.0
H2167 H 0.66411 0.75251 0.31611 0.0
H2168 H 0.57574 0.74456 0.38232 0.0
H2169 H 0.68333 0.83206 0.34426 0.0
H2170 H 0.63334 0.74806 0.3419 0.0
H2171 H 0.62652 0.82711 0.38106 0.0
C2172 C 0.59583 0.80778 0.39239 0.0
C2173 C 0.58089 0.78464 0.39296 0.0
C2174 C 0.64456 0.76642 0.34279 0.0
C2175 C 0.62055 0.78679 0.37043 0.0
C2176 C 0.66223 0.76892 0.32826 0.0
C2177 C 0.6763 0.79268 0.3282 0.0
C2178 C 0.64087 0.7879 0.35716 0.0
C2179 C 0.6729 0.81342 0.34386 0.0
C2180 C 0.61553 0.80893 0.38133 0.0
C2181 C 0.58661 0.76283 0.38217 0.0
N2182 N 0.65548 0.81057 0.35749 0.0
N2183 N 0.6059 0.76443 0.37122 0.0
H2184 H 0.08006 0.27253 0.41687 0.0
H2185 H 0.10604 0.18754 0.50533 0.0
H2186 H 0.14717 0.27962 0.45069 0.0
H2187 H 0.03992 0.19751 0.48704 0.0
H2188 H 0.1213 0.21279 0.4769 0.0
H2189 H 0.06537 0.23562 0.43309 0.0
C2190 C 0.09182 0.26547 0.42687 0.0
C2191 C 0.11475 0.27863 0.43249 0.0
C2192 C 0.10345 0.20937 0.47907 0.0
C2193 C 0.09819 0.23726 0.4515 0.0
C2194 C 0.09479 0.19515 0.4953 0.0
C2195 C 0.07185 0.19104 0.49877 0.0
C2196 C 0.08903 0.21941 0.46624 0.0
C2197 C 0.05784 0.20091 0.48527 0.0
C2198 C 0.08343 0.24469 0.43633 0.0
C2199 C 0.1294 0.26959 0.44598 0.0
N2200 N 0.06671 0.21482 0.46959 0.0
N2201 N 0.12077 0.24941 0.45537 0.0
H2202 H 0.57321 0.28456 0.19895 0.0
H2203 H 0.66385 0.20755 0.21078 0.0
H2204 H 0.56346 0.20672 0.16626 0.0
H2205 H 0.66865 0.27926 0.25636 0.0
H2206 H 0.63263 0.21269 0.18468 0.0
H2207 H 0.61347 0.28824 0.21064 0.0
C2208 C 0.57971 0.26842 0.19392 0.0
C2209 C 0.56517 0.24512 0.18241 0.0
C2210 C 0.64058 0.22739 0.20031 0.0
C2211 C 0.61059 0.24916 0.19518 0.0
C2212 C 0.65814 0.22431 0.21519 0.0
C2213 C 0.66785 0.24258 0.23596 0.0
C2214 C 0.63262 0.24868 0.20667 0.0
C2215 C 0.6608 0.26449 0.24074 0.0
C2216 C 0.60256 0.27051 0.2005 0.0
C2217 C 0.57416 0.22479 0.17587 0.0
N2218 N 0.6432 0.26679 0.22638 0.0
N2219 N 0.59631 0.22722 0.18257 0.0
H2220 H 0.64775 0.90665 0.96886 0.0
H2221 H 0.59116 0.0114 0.94137 0.0
H2222 H 0.64132 0.92189 0.89787 0.0
H2223 H 0.57397 0.96609 0.99382 0.0
H2224 H 0.61983 0.98941 0.92981 0.0
H2225 H 0.63522 0.94344 0.9848 0.0
C2226 C 0.64529 0.91883 0.95693 0.0
C2227 C 0.64479 0.91104 0.93199 0.0
C2228 C 0.60976 0.98447 0.94391 0.0
C2229 C 0.62983 0.95223 0.9497 0.0
C2230 C 0.59309 0.99649 0.95009 0.0
C2231 C 0.58029 0.99049 0.96862 0.0
C2232 C 0.61364 0.96667 0.95656 0.0
C2233 C 0.5838 0.97153 0.97977 0.0
C2234 C 0.63756 0.93942 0.96591 0.0
C2235 C 0.64141 0.92723 0.9172 0.0
N2236 N 0.60028 0.96038 0.97368 0.0
N2237 N 0.6331 0.94673 0.92611 0.0
H2238 H 0.96211 0.79508 0.70981 0.0
H2239 H 0.84221 0.74035 0.70693 0.0
H2240 H 0.9471 0.72118 0.72508 0.0
H2241 H 0.8664 0.79506 0.77372 0.0
H2242 H 0.88036 0.73536 0.70513 0.0
H2243 H 0.92709 0.80054 0.72585 0.0
C2244 C 0.95181 0.78041 0.71721 0.0
C2245 C 0.95744 0.75783 0.71648 0.0
C2246 C 0.87723 0.74883 0.71988 0.0
C2247 C 0.91788 0.7637 0.73396 0.0
C2248 C 0.85564 0.75196 0.72084 0.0
C2249 C 0.8515 0.76961 0.73967 0.0
C2250 C 0.89482 0.76411 0.73729 0.0
C2251 C 0.8693 0.78291 0.75794 0.0
C2252 C 0.93208 0.78356 0.72636 0.0
C2253 C 0.94345 0.73904 0.72579 0.0
N2254 N 0.89059 0.78057 0.75591 0.0
N2255 N 0.92383 0.74212 0.73357 0.0
H2256 H 0.10412 0.01577 0.82128 0.0
H2257 H 0.1278 0.02766 0.96572 0.0
H2258 H 0.1664 0.00723 0.85384 0.0
H2259 H 0.06252 0.02195 0.92852 0.0
H2260 H 0.14259 0.02106 0.92647 0.0
H2261 H 0.08956 0.01841 0.86026 0.0
C2262 C 0.11483 0.01408 0.83649 0.0
C2263 C 0.13676 0.01095 0.83339 0.0
C2264 C 0.12498 0.02108 0.92678 0.0
C2265 C 0.11968 0.01468 0.87987 0.0
C2266 C 0.11638 0.02491 0.94943 0.0
C2267 C 0.09349 0.02519 0.95116 0.0
C2268 C 0.11094 0.01782 0.90496 0.0
C2269 C 0.08003 0.02152 0.92877 0.0
C2270 C 0.10634 0.01572 0.85909 0.0
C2271 C 0.14938 0.00923 0.8546 0.0
N2272 N 0.08887 0.01823 0.9071 0.0
N2273 N 0.14082 0.01131 0.87662 0.0
H2274 H 0.82205 0.435 0.59306 0.0
H2275 H 0.82984 0.31485 0.6398 0.0
H2276 H 0.84751 0.37495 0.55714 0.0
H2277 H 0.84334 0.38875 0.68469 0.0
H2278 H 0.81363 0.3295 0.60658 0.0
H2279 H 0.80887 0.4103 0.62286 0.0
C2280 C 0.82456 0.4165 0.59136 0.0
C2281 C 0.83656 0.40718 0.57343 0.0
C2282 C 0.81924 0.34216 0.62404 0.0
C2283 C 0.82082 0.37888 0.60627 0.0
C2284 C 0.82856 0.33392 0.6428 0.0
C2285 C 0.83848 0.35108 0.66433 0.0
C2286 C 0.82014 0.36758 0.62716 0.0
C2287 C 0.83636 0.37541 0.66787 0.0
C2288 C 0.81678 0.40239 0.60801 0.0
C2289 C 0.83905 0.38302 0.57138 0.0
N2290 N 0.82775 0.3832 0.64914 0.0
N2291 N 0.83144 0.36971 0.58788 0.0
H2292 H 0.43579 0.06059 0.38426 0.0
H2293 H 0.55422 0.04822 0.43572 0.0
H2294 H 0.47514 0.01389 0.3495 0.0
H2295 H 0.50769 0.07376 0.48109 0.0
H2296 H 0.532 0.05306 0.40075 0.0
H2297 H 0.46677 0.07805 0.41782 0.0
C2298 C 0.45077 0.05372 0.38414 0.0
C2299 C 0.45296 0.03538 0.36495 0.0
C2300 C 0.52704 0.05829 0.41848 0.0
C2301 C 0.48846 0.05627 0.40132 0.0
C2302 C 0.53982 0.0557 0.43837 0.0
C2303 C 0.53201 0.0596 0.46079 0.0
C2304 C 0.50634 0.06412 0.42146 0.0
C2305 C 0.51342 0.06951 0.46361 0.0
C2306 C 0.46851 0.06403 0.40273 0.0
C2307 C 0.47271 0.0274 0.36465 0.0
N2308 N 0.50064 0.07077 0.44388 0.0
N2309 N 0.48985 0.03805 0.38262 0.0
H2310 H 0.82384 0.71757 0.08479 0.0
H2311 H 0.80584 0.80274 0.20656 0.0
H2312 H 0.78796 0.7738 0.08228 0.0
H2313 H 0.80743 0.72592 0.19915 0.0
H2314 H 0.80473 0.79759 0.16239 0.0
H2315 H 0.82584 0.72687 0.12873 0.0
C2316 C 0.81672 0.73217 0.09346 0.0
C2317 C 0.80549 0.7447 0.07974 0.0
C2318 C 0.80516 0.78189 0.17055 0.0
C2319 C 0.80759 0.75531 0.13013 0.0
C2320 C 0.80555 0.78474 0.19564 0.0
C2321 C 0.80653 0.76464 0.20647 0.0
C2322 C 0.80648 0.75908 0.1565 0.0
C2323 C 0.80666 0.74188 0.19155 0.0
C2324 C 0.81768 0.7373 0.11855 0.0
C2325 C 0.79659 0.76349 0.09212 0.0
N2326 N 0.8069 0.73981 0.16745 0.0
N2327 N 0.79774 0.76818 0.11663 0.0
H2328 H 0.16968 0.03838 0.68834 0.0
H2329 H 0.06116 0.01297 0.58583 0.0
H2330 H 0.10518 0.98767 0.69089 0.0
H2331 H 0.12927 0.05117 0.57769 0.0
H2332 H 0.0757 0.00553 0.62481 0.0
H2333 H 0.15474 0.04482 0.64933 0.0
C2334 C 0.15266 0.02769 0.68035 0.0
C2335 C 0.13931 0.01136 0.69302 0.0
C2336 C 0.0875 0.01594 0.61476 0.0
C2337 C 0.12117 0.01979 0.64763 0.0
C2338 C 0.07906 0.0205 0.59242 0.0
C2339 C 0.09372 0.03345 0.57817 0.0
C2340 C 0.11097 0.02452 0.62364 0.0
C2341 C 0.11699 0.04158 0.58783 0.0
C2342 C 0.1439 0.03175 0.65799 0.0
C2343 C 0.11669 0.99969 0.68184 0.0
N2344 N 0.12466 0.03726 0.60958 0.0
N2345 N 0.10853 1.00401 0.66019 0.0
H2346 H 0.81598 0.37225 0.46213 0.0
H2347 H 0.86939 0.33963 0.34295 0.0
H2348 H 0.88229 0.41287 0.44971 0.0
H2349 H 0.81027 0.29022 0.36117 0.0
H2350 H 0.87731 0.36321 0.38429 0.0
H2351 H 0.81491 0.34002 0.42656 0.0
C2352 C 0.83028 0.37437 0.45186 0.0
C2353 C 0.84923 0.39518 0.4587 0.0
C2354 C 0.86274 0.34701 0.37939 0.0
C2355 C 0.84826 0.35842 0.41842 0.0
C2356 C 0.8582 0.33351 0.35578 0.0
C2357 C 0.83837 0.31381 0.34843 0.0
C2358 C 0.84717 0.34083 0.39557 0.0
C2359 C 0.82503 0.30603 0.36588 0.0
C2360 C 0.82979 0.35584 0.43179 0.0
C2361 C 0.8674 0.39702 0.44501 0.0
N2362 N 0.8293 0.32005 0.38867 0.0
N2363 N 0.86639 0.37889 0.42535 0.0
H2364 H 0.46615 0.07161 0.24193 0.0
H2365 H 0.48433 0.98204 0.13075 0.0
H2366 H 0.43808 0.99143 0.22341 0.0
H2367 H 0.51645 0.06124 0.15071 0.0
H2368 H 0.4531 0.9885 0.15332 0.0
H2369 H 0.46982 0.07125 0.19947 0.0
C2370 C 0.46062 0.054 0.22885 0.0
C2371 C 0.45315 0.03134 0.23607 0.0
C2372 C 0.46684 1.00456 0.15255 0.0
C2373 C 0.4571 0.03075 0.18801 0.0
C2374 C 0.48474 1.00074 0.14015 0.0
C2375 C 0.50339 0.02096 0.14065 0.0
C2376 C 0.46843 0.02853 0.16629 0.0
C2377 C 0.50276 0.0451 0.15136 0.0
C2378 C 0.46237 0.0538 0.20464 0.0
C2379 C 0.4452 0.00913 0.21858 0.0
N2380 N 0.48579 0.04821 0.16445 0.0
N2381 N 0.44779 0.00933 0.19531 0.0
H2382 H 0.77974 0.75286 0.94326 0.0
H2383 H 0.85572 0.76512 0.83558 0.0
H2384 H 0.84047 0.7274 0.94397 0.0
H2385 H 0.78503 0.76316 0.83264 0.0
H2386 H 0.85481 0.75735 0.87707 0.0
H2387 H 0.78595 0.76336 0.90482 0.0
C2388 C 0.79465 0.74972 0.93549 0.0
C2389 C 0.80961 0.7392 0.94706 0.0
C2390 C 0.83953 0.75848 0.86712 0.0
C2391 C 0.81681 0.75122 0.90217 0.0
C2392 C 0.84006 0.76294 0.84361 0.0
C2393 C 0.82016 0.76401 0.83051 0.0
C2394 C 0.81912 0.75584 0.87749 0.0
C2395 C 0.80044 0.76158 0.84173 0.0
C2396 C 0.79811 0.75563 0.91329 0.0
C2397 C 0.82845 0.73539 0.93565 0.0
N2398 N 0.80042 0.75766 0.8644 0.0
N2399 N 0.83156 0.74141 0.91372 0.0
H2400 H 0.86289 0.13059 0.02857 0.0
H2401 H 0.9033 0.00784 0.99337 0.0
H2402 H 0.81891 0.05533 0.00698 0.0
H2403 H 0.94721 0.0823 0.00195 0.0
H2404 H 0.87464 0.02547 0.01213 0.0
H2405 H 0.89564 0.11357 0.03051 0.0
C2406 C 0.86016 0.11048 0.02421 0.0
C2407 C 0.83829 0.09425 0.017 0.0
C2408 C 0.8907 0.03797 0.01032 0.0
C2409 C 0.8754 0.07486 0.01968 0.0
C2410 C 0.90693 0.02791 0.9997 0.0
C2411 C 0.92706 0.04386 0.99578 0.0
C2412 C 0.89455 0.06406 0.01619 0.0
C2413 C 0.93152 0.06964 0.00448 0.0
C2414 C 0.87879 0.10083 0.02558 0.0
C2415 C 0.83556 0.06846 0.012 0.0
N2416 N 0.91504 0.07911 0.01384 0.0
N2417 N 0.85397 0.05954 0.01327 0.0
H2418 H 0.38986 0.44795 0.0767 0.0
H2419 H 0.49249 0.47204 0.00179 0.0
H2420 H 0.38457 0.41805 1.00041 0.0
H2421 H 0.48934 0.53043 0.06157 0.0
H2422 H 0.45375 0.45016 0.00428 0.0
H2423 H 0.42635 0.47786 0.0744 0.0
C2424 C 0.39616 0.44819 0.05943 0.0
C2425 C 0.38435 0.43082 0.03864 0.0
C2426 C 0.46138 0.46789 0.01675 0.0
C2427 C 0.42592 0.46388 0.03606 0.0
C2428 C 0.48367 0.48042 0.01547 0.0
C2429 C 0.49429 0.50338 0.03136 0.0
C2430 C 0.44943 0.47796 0.03433 0.0
C2431 C 0.48176 0.513 0.04875 0.0
C2432 C 0.4169 0.46511 0.05813 0.0
C2433 C 0.39318 0.43138 0.01674 0.0
N2434 N 0.45997 0.5001 0.04995 0.0
N2435 N 0.41359 0.44737 0.01608 0.0
H2436 H 0.40543 0.65918 0.82123 0.0
H2437 H 0.34937 0.72785 0.72952 0.0
H2438 H 0.39902 0.63342 0.74421 0.0
H2439 H 0.344 0.74214 0.80549 0.0
H2440 H 0.36754 0.69456 0.73419 0.0
H2441 H 0.38448 0.68961 0.81558 0.0
C2442 C 0.39966 0.6596 0.80294 0.0
C2443 C 0.40451 0.64279 0.78329 0.0
C2444 C 0.36233 0.70471 0.74993 0.0
C2445 C 0.37961 0.67941 0.77657 0.0
C2446 C 0.35172 0.72394 0.74728 0.0
C2447 C 0.34452 0.73829 0.76698 0.0
C2448 C 0.36674 0.69938 0.77276 0.0
C2449 C 0.34866 0.73183 0.78947 0.0
C2450 C 0.38745 0.67735 0.79978 0.0
C2451 C 0.39605 0.64534 0.76022 0.0
N2452 N 0.35948 0.71337 0.79166 0.0
N2453 N 0.38438 0.66305 0.75763 0.0
H2454 H 0.22851 0.58944 0.49479 0.0
H2455 H 0.10884 0.52461 0.50526 0.0
H2456 H 0.22389 0.57335 0.56563 0.0
H2457 H 0.12487 0.60429 0.51087 0.0
H2458 H 0.1483 0.52794 0.51667 0.0
H2459 H 0.18717 0.57828 0.48734 0.0
C2460 C 0.21878 0.58195 0.50815 0.0
C2461 C 0.2294 0.58208 0.53081 0.0
C2462 C 0.14297 0.54466 0.51585 0.0
C2463 C 0.18271 0.56974 0.52244 0.0
C2464 C 0.12033 0.54287 0.50925 0.0
C2465 C 0.11328 0.56431 0.50767 0.0
C2466 C 0.15868 0.56792 0.51975 0.0
C2467 C 0.1296 0.58741 0.51243 0.0
C2468 C 0.19533 0.57621 0.50407 0.0
C2469 C 0.21609 0.57317 0.5479 0.0
N2470 N 0.15177 0.58863 0.51803 0.0
N2471 N 0.19313 0.56755 0.54349 0.0
H2472 H 0.70846 0.98531 0.75489 0.0
H2473 H 0.81021 0.92333 0.74988 0.0
H2474 H 0.75256 0.99236 0.69918 0.0
H2475 H 0.78534 0.95045 0.81591 0.0
H2476 H 0.78531 0.94166 0.72779 0.0
H2477 H 0.7322 0.96428 0.77376 0.0
C2478 C 0.72286 0.98185 0.74621 0.0
C2479 C 0.72858 0.99046 0.7253 0.0
C2480 C 0.78564 0.9439 0.74715 0.0
C2481 C 0.75589 0.96665 0.74717 0.0
C2482 C 0.79982 0.93366 0.7597 0.0
C2483 C 0.80005 0.93606 0.78469 0.0
C2484 C 0.77146 0.95615 0.75975 0.0
C2485 C 0.78599 0.94889 0.79673 0.0
C2486 C 0.73653 0.97011 0.75724 0.0
C2487 C 0.74768 0.98594 0.71527 0.0
N2488 N 0.77206 0.95839 0.78405 0.0
N2489 N 0.7608 0.97422 0.72637 0.0
H2490 H 0.74857 0.90046 0.53145 0.0
H2491 H 0.71467 0.02443 0.51473 0.0
H2492 H 0.79486 0.96766 0.52054 0.0
H2493 H 0.66436 0.95405 0.50742 0.0
H2494 H 0.74414 1.00504 0.52536 0.0
H2495 H 0.7175 0.92059 0.52971 0.0
C2496 C 0.75224 0.91945 0.52881 0.0
C2497 C 0.77437 0.93237 0.52597 0.0
C2498 C 0.72666 0.99378 0.52168 0.0
C2499 C 0.73905 0.95544 0.52426 0.0
C2500 C 0.70986 1.00491 0.51577 0.0
C2501 C 0.6872 0.99073 0.51002 0.0
C2502 C 0.72087 0.96815 0.52165 0.0
C2503 C 0.68173 0.96555 0.51175 0.0
C2504 C 0.73451 0.93088 0.52783 0.0
C2505 C 0.77812 0.9569 0.52266 0.0
N2506 N 0.69855 0.95488 0.51712 0.0
N2507 N 0.76068 0.96757 0.52188 0.0
H2508 H 0.42207 0.4727 0.7345 0.0
H2509 H 0.31803 0.38278 0.7813 0.0
H2510 H 0.38302 0.50315 0.78631 0.0
H2511 H 0.37027 0.35748 0.74574 0.0
H2512 H 0.33791 0.42615 0.7802 0.0
H2513 H 0.39939 0.43066 0.73449 0.0
C2514 C 0.40848 0.47067 0.74573 0.0
C2515 C 0.40467 0.49199 0.76038 0.0
C2516 C 0.34495 0.41112 0.77249 0.0
C2517 C 0.37825 0.44267 0.7607 0.0
C2518 C 0.3335 0.38619 0.77295 0.0
C2519 C 0.3422 0.36602 0.76335 0.0
C2520 C 0.36524 0.41626 0.76196 0.0
C2521 C 0.3627 0.3721 0.75332 0.0
C2522 C 0.39554 0.4464 0.74581 0.0
C2523 C 0.38659 0.48759 0.77443 0.0
N2524 N 0.37326 0.39637 0.75275 0.0
N2525 N 0.37421 0.46356 0.77433 0.0
H2526 H 0.23689 0.61172 0.19769 0.0
H2527 H 0.24405 0.71973 0.26533 0.0
H2528 H 0.2464 0.60282 0.27089 0.0
H2529 H 0.31647 0.72955 0.27371 0.0
H2530 H 0.23844 0.67458 0.2533 0.0
H2531 H 0.26508 0.65258 0.20927 0.0
C2532 C 0.24589 0.6178 0.2158 0.0
C2533 C 0.23934 0.60454 0.23357 0.0
C2534 C 0.25555 0.68686 0.25748 0.0
C2535 C 0.2704 0.65068 0.2468 0.0
C2536 C 0.25873 0.71237 0.26436 0.0
C2537 C 0.28072 0.72818 0.26933 0.0
C2538 C 0.27447 0.67735 0.25546 0.0
C2539 C 0.29929 0.71781 0.26882 0.0
C2540 C 0.26195 0.64092 0.22237 0.0
C2541 C 0.25109 0.61301 0.25691 0.0
N2542 N 0.29581 0.69273 0.26155 0.0
N2543 N 0.26555 0.63622 0.26321 0.0
H2544 H 0.51221 0.7096 0.50721 0.0
H2545 H 0.55274 0.58465 0.47139 0.0
H2546 H 0.53688 0.68951 0.43923 0.0
H2547 H 0.54182 0.61498 0.54345 0.0
H2548 H 0.54771 0.62252 0.45899 0.0
H2549 H 0.52287 0.67488 0.52029 0.0
C2550 C 0.51988 0.69791 0.49496 0.0
C2551 C 0.52356 0.70269 0.47198 0.0
C2552 C 0.54685 0.62117 0.47764 0.0
C2553 C 0.53579 0.66224 0.48699 0.0
C2554 C 0.55 0.59964 0.4848 0.0
C2555 C 0.54853 0.59699 0.50875 0.0
C2556 C 0.54146 0.64 0.49435 0.0
C2557 C 0.54371 0.61649 0.52499 0.0
C2558 C 0.52606 0.67803 0.50253 0.0
C2559 C 0.53374 0.68674 0.45711 0.0
N2560 N 0.54028 0.63698 0.51752 0.0
N2561 N 0.53929 0.6672 0.46476 0.0
H2562 H 0.67004 0.3549 0.67586 0.0
H2563 H 0.74675 0.26798 0.7105 0.0
H2564 H 0.67595 0.28908 0.62725 0.0
H2565 H 0.76295 0.34595 0.74505 0.0
H2566 H 0.71685 0.27371 0.6833 0.0
H2567 H 0.70028 0.35066 0.7047 0.0
C2568 C 0.67762 0.33954 0.67132 0.0
C2569 C 0.67062 0.32243 0.64903 0.0
C2570 C 0.72721 0.28974 0.69651 0.0
C2571 C 0.7047 0.31708 0.68205 0.0
C2572 C 0.74472 0.28656 0.71174 0.0
C2573 C 0.75859 0.30685 0.72903 0.0
C2574 C 0.72294 0.3133 0.69882 0.0
C2575 C 0.75327 0.32995 0.73141 0.0
C2576 C 0.69489 0.33716 0.68772 0.0
C2577 C 0.68102 0.30287 0.64407 0.0
N2578 N 0.73599 0.3326 0.71642 0.0
N2579 N 0.69729 0.30063 0.66042 0.0
H2580 H 0.98966 0.34148 0.96976 0.0
H2581 H 0.06204 0.47599 0.03056 0.0
H2582 H 0.06178 0.35084 0.98124 0.0
H2583 H 0.02941 0.46554 0.95835 0.0
H2584 H 0.05478 0.43023 0.02494 0.0
H2585 H 0.99662 0.38721 0.9775 0.0
C2586 C 0.00696 0.35319 0.97425 0.0
C2587 C 0.02517 0.34232 0.97495 0.0
C2588 C 0.04892 0.43805 0.01054 0.0
C2589 C 0.03312 0.39466 0.98441 0.0
C2590 C 0.05275 0.46409 0.01381 0.0
C2591 C 0.0458 0.47463 0.99508 0.0
C2592 C 0.03755 0.42238 0.98862 0.0
C2593 C 0.03467 0.45822 0.97339 0.0
C2594 C 0.01086 0.37921 0.97855 0.0
C2595 C 0.04727 0.35843 0.98053 0.0
N2596 N 0.03057 0.43295 0.97088 0.0
N2597 N 0.05064 0.38384 0.98534 0.0
H2598 H 0.06114 0.81171 0.17585 0.0
H2599 H 0.92853 0.79038 0.18707 0.0
H2600 H 0.01387 0.81854 0.11929 0.0
H2601 H 0.9797 0.7985 0.24633 0.0
H2602 H 0.95883 0.80146 0.1618 0.0
H2603 H 0.03091 0.80674 0.20161 0.0
C2604 C 0.04443 0.81227 0.16885 0.0
C2605 C 0.0401 0.81544 0.14529 0.0
C2606 C 0.96337 0.80094 0.18039 0.0
C2607 C 0.00515 0.80966 0.17482 0.0
C2608 C 0.94607 0.79476 0.19487 0.0
C2609 C 0.9515 0.79303 0.2188 0.0
C2610 C 0.98621 0.80534 0.18991 0.0
C2611 C 0.9746 0.79891 0.22785 0.0
C2612 C 0.02712 0.80948 0.18362 0.0
C2613 C 0.01801 0.81602 0.13729 0.0
N2614 N 0.99097 0.80451 0.21341 0.0
N2615 N 1.00135 0.81301 0.15195 0.0
H2616 H 0.52384 0.32988 0.13822 0.0
H2617 H 0.53435 0.35272 0.00565 0.0
H2618 H 0.48044 0.28153 0.07524 0.0
H2619 H 0.5596 0.41207 0.06892 0.0
H2620 H 0.51684 0.32509 0.03129 0.0
H2621 H 0.53886 0.35973 0.11356 0.0
C2622 C 0.5173 0.32569 0.11926 0.0
C2623 C 0.50095 0.30318 0.10868 0.0
C2624 C 0.52618 0.34417 0.03956 0.0
C2625 C 0.51828 0.33692 0.08045 0.0
C2626 C 0.53636 0.3598 0.02498 0.0
C2627 C 0.5485 0.38454 0.03525 0.0
C2628 C 0.5284 0.35332 0.06458 0.0
C2629 C 0.55031 0.39305 0.06035 0.0
C2630 C 0.52588 0.34271 0.10524 0.0
C2631 C 0.49302 0.29868 0.08411 0.0
N2632 N 0.54045 0.37739 0.07423 0.0
N2633 N 0.50197 0.31529 0.07074 0.0
H2634 H 0.03857 0.33869 0.39641 0.0
H2635 H 0.97791 0.3254 0.26425 0.0
H2636 H 0.07226 0.32278 0.33349 0.0
H2637 H 0.96205 0.36675 0.32955 0.0
H2638 H 0.0094 0.3172 0.28805 0.0
H2639 H 0.00603 0.34017 0.37054 0.0
C2640 C 0.03903 0.33522 0.3771 0.0
C2641 C 0.05832 0.33116 0.36711 0.0
C2642 C 0.9991 0.32825 0.29701 0.0
C2643 C 0.02111 0.33298 0.33739 0.0
C2644 C 0.98139 0.33304 0.28351 0.0
C2645 C 0.96777 0.3469 0.29514 0.0
C2646 C 0.00282 0.33734 0.32211 0.0
C2647 C 0.97234 0.35603 0.32008 0.0
C2648 C 0.02048 0.3362 0.36234 0.0
C2649 C 0.05783 0.32647 0.34191 0.0
N2650 N 0.98949 0.35106 0.33276 0.0
N2651 N 0.0395 0.32772 0.3278 0.0
H2652 H 0.97856 0.70161 0.58662 0.0
H2653 H 0.05215 0.61185 0.57781 0.0
H2654 H 0.97202 0.64995 0.63434 0.0
H2655 H 0.0098 0.6069 0.51223 0.0
H2656 H 0.0284 0.63462 0.60024 0.0
H2657 H 0.99276 0.67272 0.55785 0.0
C2658 C 0.97927 0.68384 0.59064 0.0
C2659 C 0.97487 0.67852 0.61317 0.0
C2660 C 0.02464 0.62862 0.5808 0.0
C2661 C 0.99182 0.64657 0.58129 0.0
C2662 C 0.03828 0.616 0.56799 0.0
C2663 C 0.03326 0.60783 0.54287 0.0
C2664 C 0.00624 0.63335 0.56829 0.0
C2665 C 0.01497 0.61364 0.53118 0.0
C2666 C 0.98756 0.6676 0.5744 0.0
C2667 C 0.97577 0.65509 0.61741 0.0
N2668 N 0.00209 0.62616 0.54397 0.0
N2669 N 0.98509 0.64034 0.602 0.0
H2670 H 0.67953 0.85975 0.82295 0.0
H2671 H 0.75388 0.77596 0.82485 0.0
H2672 H 0.65234 0.78769 0.83985 0.0
H2673 H 0.75037 0.80345 0.75949 0.0
H2674 H 0.71645 0.78118 0.83098 0.0
H2675 H 0.70533 0.84185 0.79845 0.0
C2676 C 0.67857 0.84007 0.82094 0.0
C2677 C 0.66443 0.82529 0.83395 0.0
C2678 C 0.7236 0.78547 0.81494 0.0
C2679 C 0.69332 0.80502 0.80625 0.0
C2680 C 0.74491 0.78244 0.81146 0.0
C2681 C 0.75476 0.78865 0.7914 0.0
C2682 C 0.71287 0.7964 0.79908 0.0
C2683 C 0.74284 0.7979 0.77491 0.0
C2684 C 0.69309 0.82988 0.80688 0.0
C2685 C 0.66358 0.79988 0.8307 0.0
N2686 N 0.72262 0.80227 0.77949 0.0
N2687 N 0.67825 0.79065 0.8176 0.0
H2688 H 0.45334 0.54281 0.6822 0.0
H2689 H 0.56062 0.58515 0.60838 0.0
H2690 H 0.5158 0.59658 0.71569 0.0
H2691 H 0.4977 0.53183 0.57503 0.0
H2692 H 0.54445 0.59079 0.64676 0.0
H2693 H 0.4685 0.54001 0.64304 0.0
C2694 C 0.46992 0.55482 0.68131 0.0
C2695 C 0.48268 0.57082 0.7027 0.0
C2696 C 0.53407 0.57785 0.6311 0.0
C2697 C 0.50103 0.5669 0.65694 0.0
C2698 C 0.54342 0.57454 0.60885 0.0
C2699 C 0.53087 0.55781 0.58765 0.0
C2700 C 0.51168 0.56438 0.63291 0.0
C2701 C 0.50841 0.545 0.59033 0.0
C2702 C 0.47881 0.55291 0.65876 0.0
C2703 C 0.50476 0.5846 0.69995 0.0
N2704 N 0.49979 0.54845 0.61212 0.0
N2705 N 0.51302 0.58241 0.6779 0.0
H2706 H 0.80669 0.18392 0.98404 0.0
H2707 H 0.73177 0.21004 0.8791 0.0
H2708 H 0.73551 0.1486 0.96087 0.0
H2709 H 0.7984 0.25677 0.91012 0.0
H2710 H 0.73887 0.17694 0.89794 0.0
H2711 H 0.80936 0.19991 0.94683 0.0
C2712 C 0.79185 0.17899 0.97074 0.0
C2713 C 0.7707 0.16575 0.9755 0.0
C2714 C 0.7521 0.19429 0.9004 0.0
C2715 C 0.77356 0.18349 0.93349 0.0
C2716 C 0.74793 0.21314 0.88988 0.0
C2717 C 0.76421 0.23618 0.89407 0.0
C2718 C 0.77237 0.19899 0.91578 0.0
C2719 C 0.78525 0.2393 0.90725 0.0
C2720 C 0.79335 0.18803 0.94961 0.0
C2721 C 0.75194 0.15945 0.95792 0.0
N2722 N 0.78858 0.22105 0.91826 0.0
N2723 N 0.75373 0.16871 0.93777 0.0
H2724 H 0.17237 0.55513 0.17885 0.0
H2725 H 0.06074 0.49912 0.09148 0.0
H2726 H 0.11548 0.5009 0.19476 0.0
H2727 H 0.12363 0.54047 0.07191 0.0
H2728 H 0.08229 0.49144 0.1257 0.0
H2729 H 0.1579 0.54154 0.13613 0.0
C2730 C 0.15711 0.5398 0.17306 0.0
C2731 C 0.14472 0.52927 0.18989 0.0
C2732 C 0.09136 0.50176 0.11358 0.0
C2733 C 0.12759 0.51427 0.14161 0.0
C2734 C 0.07903 0.50638 0.09425 0.0
C2735 C 0.09032 0.52135 0.07953 0.0
C2736 C 0.11499 0.51232 0.11806 0.0
C2737 C 0.1141 0.52954 0.0833 0.0
C2738 C 0.1488 0.53201 0.14875 0.0
C2739 C 0.12518 0.5095 0.18197 0.0
N2740 N 0.12561 0.52527 0.10245 0.0
N2741 N 0.11678 0.50299 0.15826 0.0
H2742 H 0.85144 0.83068 0.46086 0.0
H2743 H 0.79153 0.77969 0.33175 0.0
H2744 H 0.78344 0.83905 0.45295 0.0
H2745 H 0.841 0.85129 0.34417 0.0
H2746 H 0.79051 0.78506 0.37568 0.0
H2747 H 0.85024 0.82152 0.41696 0.0
C2748 C 0.83605 0.83009 0.44989 0.0
C2749 C 0.81742 0.83551 0.46058 0.0
C2750 C 0.80197 0.79919 0.36866 0.0
C2751 C 0.81603 0.82463 0.41047 0.0
C2752 C 0.80287 0.79601 0.34381 0.0
C2753 C 0.81727 0.81457 0.33456 0.0
C2754 C 0.81594 0.82078 0.38418 0.0
C2755 C 0.83059 0.83606 0.35073 0.0
C2756 C 0.83551 0.82498 0.42493 0.0
C2757 C 0.79812 0.83495 0.44541 0.0
N2758 N 0.82995 0.83842 0.37487 0.0
N2759 N 0.79784 0.82945 0.42096 0.0
H2760 H 0.52085 0.56451 0.83194 0.0
H2761 H 0.50686 0.5552 0.9714 0.0
H2762 H 0.46054 0.57365 0.8625 0.0
H2763 H 0.56618 0.5495 0.93742 0.0
H2764 H 0.48884 0.56066 0.93311 0.0
H2765 H 0.5365 0.55895 0.87045 0.0
C2766 C 0.51082 0.5658 0.8468 0.0
C2767 C 0.4891 0.57002 0.84315 0.0
C2768 C 0.50567 0.55786 0.93381 0.0
C2769 C 0.50757 0.56285 0.88903 0.0
C2770 C 0.51597 0.5544 0.9558 0.0
C2771 C 0.53813 0.55109 0.95801 0.0
C2772 C 0.51742 0.55831 0.9133 0.0
C2773 C 0.54904 0.55137 0.93694 0.0
C2774 C 0.51993 0.56239 0.8691 0.0
C2775 C 0.47741 0.571 0.86385 0.0
N2776 N 0.53873 0.55478 0.91594 0.0
N2777 N 0.48665 0.56738 0.88551 0.0
H2778 H 0.81974 0.18308 0.11123 0.0
H2779 H 0.76364 0.26945 0.19606 0.0
H2780 H 0.76028 0.20053 0.08165 0.0
H2781 H 0.83521 0.27536 0.20105 0.0
H2782 H 0.75883 0.24291 0.15514 0.0
H2783 H 0.82222 0.21468 0.14731 0.0
C2784 C 0.80738 0.19384 0.11228 0.0
C2785 C 0.79001 0.18964 0.09354 0.0
C2786 C 0.77566 0.25102 0.16501 0.0
C2787 C 0.79282 0.22584 0.1344 0.0
C2788 C 0.77838 0.26604 0.18808 0.0
C2789 C 0.80006 0.27533 0.20117 0.0
C2790 C 0.79475 0.24505 0.15596 0.0
C2791 C 0.81863 0.27 0.19087 0.0
C2792 C 0.8088 0.21189 0.13277 0.0
C2793 C 0.77402 0.20357 0.09588 0.0
N2794 N 0.81554 0.25501 0.1689 0.0
N2795 N 0.77577 0.22128 0.11617 0.0
H2796 H 0.1718 0.5909 0.29263 0.0
H2797 H 0.12882 0.5626 0.40426 0.0
H2798 H 0.18263 0.5215 0.30516 0.0
H2799 H 0.08273 0.5717 0.34801 0.0
H2800 H 0.15098 0.54706 0.37342 0.0
H2801 H 0.14265 0.58756 0.31929 0.0
C2802 C 0.16796 0.57485 0.30085 0.0
C2803 C 0.17905 0.55597 0.29605 0.0
C2804 C 0.13543 0.5514 0.3679 0.0
C2805 C 0.14627 0.55257 0.32709 0.0
C2806 C 0.12291 0.56029 0.38535 0.0
C2807 C 0.1045 0.56893 0.37837 0.0
C2808 C 0.12937 0.55171 0.34379 0.0
C2809 C 0.09725 0.56569 0.35387 0.0
C2810 C 0.1513 0.57296 0.31598 0.0
C2811 C 0.17413 0.53622 0.30819 0.0
N2812 N 0.11013 0.55794 0.33734 0.0
N2813 N 0.15805 0.53506 0.32349 0.0
H2814 H 0.79551 0.87329 0.60598 0.0
H2815 H 0.78454 0.76638 0.6813 0.0
H2816 H 0.81306 0.80387 0.58354 0.0
H2817 H 0.78948 0.8425 0.71578 0.0
H2818 H 0.78589 0.77803 0.6426 0.0
H2819 H 0.78508 0.86065 0.64367 0.0
C2820 C 0.79687 0.8553 0.60882 0.0
C2821 C 0.80528 0.83965 0.59168 0.0
C2822 C 0.78619 0.79218 0.65849 0.0
C2823 C 0.79334 0.82517 0.63437 0.0
C2824 C 0.78488 0.78534 0.68062 0.0
C2825 C 0.78607 0.80323 0.70172 0.0
C2826 C 0.78892 0.81725 0.65732 0.0
C2827 C 0.78819 0.82807 0.69983 0.0
C2828 C 0.79105 0.8482 0.63032 0.0
C2829 C 0.80682 0.81661 0.59629 0.0
N2830 N 0.78961 0.83443 0.67794 0.0
N2831 N 0.80095 0.81012 0.61714 0.0
H2832 H 0.75556 0.45784 0.47028 0.0
H2833 H 0.73699 0.57165 0.56445 0.0
H2834 H 0.797 0.4885 0.53926 0.0
H2835 H 0.68025 0.51087 0.5261 0.0
H2836 H 0.76275 0.54802 0.54764 0.0
H2837 H 0.73053 0.48471 0.48298 0.0
C2838 C 0.75936 0.47029 0.48793 0.0
C2839 C 0.77796 0.47088 0.50392 0.0
C2840 C 0.7446 0.54024 0.54275 0.0
C2841 C 0.75045 0.50166 0.51799 0.0
C2842 C 0.72991 0.55353 0.55245 0.0
C2843 C 0.70638 0.54341 0.54661 0.0
C2844 C 0.73565 0.51698 0.52683 0.0
C2845 C 0.69822 0.5199 0.53063 0.0
C2846 C 0.74524 0.48548 0.49512 0.0
C2847 C 0.7825 0.48729 0.5266 0.0
N2848 N 0.71287 0.50751 0.52122 0.0
N2849 N 0.76886 0.50217 0.53296 0.0
H2850 H 0.24566 0.13208 0.51734 0.0
H2851 H 0.1123 0.08742 0.46924 0.0
H2852 H 0.21223 0.16914 0.47243 0.0
H2853 H 0.14169 0.06278 0.52793 0.0
H2854 H 0.15032 0.11192 0.46458 0.0
H2855 H 0.2092 0.10095 0.51585 0.0
C2856 C 0.23075 0.13338 0.5068 0.0
C2857 C 0.2319 0.15329 0.49512 0.0
C2858 C 0.14853 0.10095 0.47832 0.0
C2859 C 0.19028 0.11787 0.4933 0.0
C2860 C 0.12688 0.08694 0.48087 0.0
C2861 C 0.12409 0.07317 0.49891 0.0
C2862 C 0.16745 0.10113 0.49395 0.0
C2863 C 0.14335 0.07321 0.51375 0.0
C2864 C 0.20994 0.11574 0.50609 0.0
C2865 C 0.21204 0.15422 0.48189 0.0
N2866 N 0.16426 0.08706 0.51101 0.0
N2867 N 0.19209 0.13685 0.48139 0.0
H2868 H 0.21881 0.93937 0.81475 0.0
H2869 H 0.28819 0.84778 0.74353 0.0
H2870 H 0.22743 0.93967 0.74039 0.0
H2871 H 0.27214 0.85093 0.81616 0.0
H2872 H 0.26867 0.88103 0.74055 0.0
H2873 H 0.23949 0.90796 0.81391 0.0
C2874 C 0.22495 0.93303 0.79797 0.0
C2875 C 0.22073 0.94315 0.77764 0.0
C2876 C 0.26949 0.87457 0.75721 0.0
C2877 C 0.24582 0.9052 0.77664 0.0
C2878 C 0.28092 0.85546 0.75901 0.0
C2879 C 0.28233 0.84597 0.78031 0.0
C2880 C 0.25908 0.88476 0.77681 0.0
C2881 C 0.27193 0.85712 0.79931 0.0
C2882 C 0.23705 0.91465 0.79759 0.0
C2883 C 0.22977 0.93306 0.75676 0.0
N2884 N 0.2611 0.87534 0.79709 0.0
N2885 N 0.24168 0.915 0.75685 0.0
H2886 H 0.39235 0.99382 0.06416 0.0
H2887 H 0.49833 0.05606 0.00456 0.0
H2888 H 0.38735 0.03635 0.00984 0.0
H2889 H 0.48767 0.98397 0.02299 0.0
H2890 H 0.46259 0.0595 0.01802 0.0
H2891 H 0.43347 1.00415 0.06403 0.0
C2892 C 0.40005 0.00692 0.05352 0.0
C2893 C 0.38654 0.01351 0.03626 0.0
C2894 C 0.46803 0.04287 0.01898 0.0
C2895 C 0.43301 0.02505 0.03588 0.0
C2896 C 0.48816 0.04049 0.01055 0.0
C2897 C 0.49563 0.01915 0.01137 0.0
C2898 C 0.45543 0.02406 0.02908 0.0
C2899 C 0.48229 1.00046 0.02132 0.0
C2900 C 0.42342 0.01211 0.05293 0.0
C2901 C 0.39729 0.03055 0.02305 0.0
N2902 N 0.46276 1.00336 0.02986 0.0
N2903 N 0.41997 0.035 0.02238 0.0
H2904 H 0.91105 0.59903 0.77537 0.0
H2905 H 0.7923 0.63075 0.77887 0.0
H2906 H 0.86866 0.58445 0.83129 0.0
H2907 H 0.82414 0.61917 0.71415 0.0
H2908 H 0.8219 0.61819 0.80055 0.0
H2909 H 0.88188 0.61343 0.75567 0.0
C2910 C 0.8958 0.59931 0.78378 0.0
C2911 C 0.89205 0.59017 0.80481 0.0
C2912 C 0.82212 0.61786 0.78149 0.0
C2913 C 0.85867 0.60625 0.78219 0.0
C2914 C 0.80513 0.62462 0.76911 0.0
C2915 C 0.80564 0.62519 0.74468 0.0
C2916 C 0.83983 0.61213 0.76934 0.0
C2917 C 0.82295 0.61817 0.73285 0.0
C2918 C 0.87908 0.60726 0.77236 0.0
C2919 C 0.87208 0.59111 0.81497 0.0
N2920 N 0.8396 0.6121 0.7454 0.0
N2921 N 0.85596 0.59881 0.8034 0.0
H2922 H 0.88228 0.66982 0.97641 0.0
H2923 H 0.90022 0.56779 0.04906 0.0
H2924 H 0.84117 0.64758 0.03106 0.0
H2925 H 0.95655 0.61433 0.02313 0.0
H2926 H 0.8759 0.59194 0.03607 0.0
H2927 H 0.90726 0.64459 0.98699 0.0
C2928 C 0.87847 0.65966 0.99059 0.0
C2929 C 0.85958 0.66088 0.00289 0.0
C2930 C 0.89359 0.5968 0.03318 0.0
C2931 C 0.88792 0.63192 0.01482 0.0
C2932 C 0.90764 0.58313 0.04078 0.0
C2933 C 0.93081 0.58919 0.03778 0.0
C2934 C 0.90244 0.61645 0.0219 0.0
C2935 C 0.93889 0.60872 0.02584 0.0
C2936 C 0.89277 0.64535 0.99662 0.0
C2937 C 0.85549 0.64725 0.02106 0.0
N2938 N 0.92472 0.62166 0.01835 0.0
N2939 N 0.86946 0.63331 0.02638 0.0
H2940 H 0.2072 0.10555 0.81026 0.0
H2941 H 0.29932 0.19805 0.75109 0.0
H2942 H 0.23626 0.07839 0.74744 0.0
H2943 H 0.25942 0.22331 0.80471 0.0
H2944 H 0.27972 0.15438 0.75149 0.0
H2945 H 0.23006 0.14806 0.81136 0.0
C2946 C 0.2188 0.10841 0.79694 0.0
C2947 C 0.21995 0.08797 0.77901 0.0
C2948 C 0.27538 0.16942 0.76336 0.0
C2949 C 0.24601 0.13757 0.77963 0.0
C2950 C 0.28667 0.19444 0.76323 0.0
C2951 C 0.28123 0.21459 0.77804 0.0
C2952 C 0.2587 0.16419 0.77883 0.0
C2953 C 0.26426 0.20855 0.79296 0.0
C2954 C 0.23173 0.13289 0.79743 0.0
C2955 C 0.23512 0.09325 0.76201 0.0
N2956 N 0.25384 0.18412 0.79311 0.0
N2957 N 0.24736 0.11741 0.76265 0.0
H2958 H 0.37832 0.98324 0.33118 0.0
H2959 H 0.30039 0.85167 0.27029 0.0
H2960 H 0.37257 0.96477 0.25357 0.0
H2961 H 0.36966 0.8664 0.3024 0.0
H2962 H 0.30555 0.89676 0.27448 0.0
H2963 H 0.34952 0.94424 0.3302 0.0
C2964 C 0.37001 0.97153 0.31391 0.0
C2965 C 0.37784 0.97652 0.29244 0.0
C2966 C 0.31923 0.88993 0.2812 0.0
C2967 C 0.3456 0.93259 0.29131 0.0
C2968 C 0.31643 0.86439 0.27883 0.0
C2969 C 0.33468 0.85557 0.28626 0.0
C2970 C 0.34014 0.90629 0.29161 0.0
C2971 C 0.35526 0.87264 0.29661 0.0
C2972 C 0.35359 0.94952 0.31338 0.0
C2973 C 0.36688 0.96112 0.27043 0.0
N2974 N 0.35744 0.89737 0.29909 0.0
N2975 N 0.35166 0.93911 0.27041 0.0
H2976 H 0.57789 0.3801 0.59955 0.0
H2977 H 0.57926 0.47128 0.50641 0.0
H2978 H 0.61918 0.37864 0.54136 0.0
H2979 H 0.56282 0.4878 0.57895 0.0
H2980 H 0.58784 0.43285 0.51447 0.0
H2981 H 0.56621 0.41504 0.58795 0.0
C2982 C 0.5845 0.38701 0.58428 0.0
C2983 C 0.59972 0.37624 0.57158 0.0
C2984 C 0.582 0.44473 0.52847 0.0
C2985 C 0.58604 0.41654 0.55791 0.0
C2986 C 0.57687 0.46652 0.52377 0.0
C2987 C 0.56999 0.48269 0.54194 0.0
C2988 C 0.57984 0.43882 0.55134 0.0
C2989 C 0.56781 0.47583 0.56432 0.0
C2990 C 0.5778 0.40706 0.57766 0.0
C2991 C 0.60751 0.38624 0.55183 0.0
N2992 N 0.57256 0.45455 0.5683 0.0
N2993 N 0.60059 0.40568 0.54561 0.0
H2994 H 0.42413 0.73997 0.41605 0.0
H2995 H 0.38723 0.78887 0.29981 0.0
H2996 H 0.47137 0.76948 0.36942 0.0
H2997 H 0.34098 0.76463 0.34931 0.0
H2998 H 0.41775 0.78032 0.32399 0.0
H2999 H 0.39324 0.74633 0.39051 0.0
C3000 C 0.42804 0.74754 0.40028 0.0
C3001 C 0.45055 0.75407 0.39494 0.0
C3002 C 0.40094 0.77669 0.32956 0.0
C3003 C 0.41495 0.7619 0.36563 0.0
C3004 C 0.3834 0.78141 0.31562 0.0
C3005 C 0.36133 0.77702 0.32223 0.0
C3006 C 0.39652 0.76733 0.3504 0.0
C3007 C 0.35768 0.76825 0.34348 0.0
C3008 C 0.41032 0.75131 0.38575 0.0
C3009 C 0.45436 0.76387 0.3742 0.0
N3010 N 0.37501 0.76355 0.35668 0.0
N3011 N 0.43683 0.7676 0.36046 0.0
H3012 H 0.10914 0.73786 0.03451 0.0
H3013 H 0.0724 0.61604 0.08894 0.0
H3014 H 0.07573 0.73574 0.09852 0.0
H3015 H 0.0775 0.60929 0.01296 0.0
H3016 H 0.07859 0.66106 0.09359 0.0
H3017 H 0.10158 0.69207 0.0266 0.0
C3018 C 0.09995 0.72782 0.04675 0.0
C3019 C 0.09311 0.74091 0.0673 0.0
C3020 C 0.07856 0.64984 0.07589 0.0
C3021 C 0.0849 0.68837 0.05855 0.0
C3022 C 0.0752 0.62408 0.07324 0.0
C3023 C 0.07468 0.60872 0.05058 0.0
C3024 C 0.08175 0.66078 0.05581 0.0
C3025 C 0.07817 0.62035 0.03086 0.0
C3026 C 0.0957 0.70164 0.04221 0.0
C3027 C 0.08134 0.72669 0.08246 0.0
N3028 N 0.08169 0.6457 0.03394 0.0
N3029 N 0.07789 0.70139 0.07795 0.0
H3030 H 0.10689 0.31645 0.92362 0.0
H3031 H 0.15089 0.25719 0.8031 0.0
H3032 H 0.06738 0.24951 0.87359 0.0
H3033 H 0.19244 0.31931 0.85702 0.0
H3034 H 0.12114 0.25214 0.82977 0.0
H3035 H 0.1387 0.31677 0.9002 0.0
C3036 C 0.10488 0.30174 0.90771 0.0
C3037 C 0.08429 0.28296 0.90057 0.0
C3038 C 0.13685 0.26668 0.83597 0.0
C3039 C 0.121 0.28315 0.87357 0.0
C3040 C 0.15387 0.26943 0.82082 0.0
C3041 C 0.17413 0.2886 0.82797 0.0
C3042 C 0.13989 0.28356 0.8583 0.0
C3043 C 0.17713 0.30416 0.85096 0.0
C3044 C 0.12315 0.30191 0.89436 0.0
C3045 C 0.0828 0.26449 0.87969 0.0
N3046 N 0.16009 0.30149 0.86519 0.0
N3047 N 0.10087 0.26507 0.86694 0.0
H3048 H 0.62347 0.80968 0.983 0.0
H3049 H 0.56962 0.6633 0.96496 0.0
H3050 H 0.61644 0.75816 0.91467 0.0
H3051 H 0.57218 0.71823 0.02971 0.0
H3052 H 0.59383 0.69598 0.94809 0.0
H3053 H 0.61309 0.77462 0.00252 0.0
C3054 C 0.62032 0.79089 0.97223 0.0
C3055 C 0.6205 0.78667 0.94722 0.0
C3056 C 0.58939 0.70076 0.96613 0.0
C3057 C 0.608 0.7464 0.96927 0.0
C3058 C 0.57562 0.68222 0.97568 0.0
C3059 C 0.56881 0.68845 0.99851 0.0
C3060 C 0.59643 0.72545 0.97975 0.0
C3061 C 0.57688 0.71297 0.01188 0.0
C3062 C 0.61425 0.77085 0.98334 0.0
C3063 C 0.6164 0.76206 0.93404 0.0
N3064 N 0.59018 0.73064 0.00223 0.0
N3065 N 0.60979 0.74269 0.94518 0.0
H3066 H 0.06606 0.71265 0.65689 0.0
H3067 H 0.16849 0.77893 0.75854 0.0
H3068 H 0.07181 0.78327 0.70505 0.0
H3069 H 0.15951 0.70725 0.71101 0.0
H3070 H 0.13878 0.78691 0.7324 0.0
H3071 H 0.10626 0.71741 0.66804 0.0
C3072 C 0.07602 0.7293 0.66966 0.0
C3073 C 0.06585 0.7472 0.68081 0.0
C3074 C 0.14341 0.76952 0.72758 0.0
C3075 C 0.11121 0.75239 0.69429 0.0
C3076 C 0.15999 0.76486 0.74262 0.0
C3077 C 0.16527 0.74194 0.73724 0.0
C3078 C 0.13229 0.75102 0.70718 0.0
C3079 C 0.15493 0.72464 0.71608 0.0
C3080 C 0.09889 0.7321 0.67597 0.0
C3081 C 0.07925 0.76886 0.69659 0.0
N3082 N 0.13864 0.72941 0.70189 0.0
N3083 N 0.10129 0.77057 0.70349 0.0
H3084 H 0.15808 0.41968 0.47394 0.0
H3085 H 0.08372 0.50594 0.43832 0.0
H3086 H 0.13904 0.41935 0.39959 0.0
H3087 H 0.0798 0.47068 0.4994 0.0
H3088 H 0.11318 0.48591 0.42551 0.0
H3089 H 0.14357 0.45586 0.48622 0.0
C3090 C 0.15222 0.42829 0.46016 0.0
C3091 C 0.14849 0.41595 0.43587 0.0
C3092 C 0.10588 0.48283 0.44181 0.0
C3093 C 0.13138 0.45626 0.44957 0.0
C3094 C 0.08874 0.49373 0.44888 0.0
C3095 C 0.07959 0.49036 0.47033 0.0
C3096 C 0.11398 0.46888 0.45648 0.0
C3097 C 0.0868 0.47438 0.48321 0.0
C3098 C 0.14343 0.44852 0.46717 0.0
C3099 C 0.14134 0.42798 0.41862 0.0
N3100 N 0.10382 0.4645 0.47626 0.0
N3101 N 0.13184 0.44694 0.4258 0.0
H3102 H 0.45852 0.23817 0.23981 0.0
H3103 H 0.34612 0.27109 0.2161 0.0
H3104 H 0.45055 0.28459 0.18942 0.0
H3105 H 0.36924 0.26765 0.28832 0.0
H3106 H 0.38446 0.27451 0.2055 0.0
H3107 H 0.42648 0.24819 0.25872 0.0
C3108 C 0.45034 0.25086 0.23307 0.0
C3109 C 0.45687 0.26027 0.21282 0.0
C3110 C 0.38132 0.27361 0.22383 0.0
C3111 C 0.42046 0.27146 0.23408 0.0
C3112 C 0.35957 0.27167 0.22981 0.0
C3113 C 0.35513 0.26997 0.2532 0.0
C3114 C 0.39839 0.27298 0.24124 0.0
C3115 C 0.37249 0.26946 0.27021 0.0
C3116 C 0.43221 0.25665 0.24393 0.0
C3117 C 0.44589 0.27676 0.20487 0.0
N3118 N 0.39359 0.27085 0.26385 0.0
N3119 N 0.42783 0.28144 0.21524 0.0
H3120 H 0.60651 0.52226 0.32449 0.0
H3121 H 0.62347 0.52203 0.46702 0.0
H3122 H 0.66419 0.50307 0.35531 0.0
H3123 H 0.56202 0.52678 0.42908 0.0
H3124 H 0.63941 0.51604 0.42828 0.0
H3125 H 0.59144 0.52467 0.36298 0.0
C3126 C 0.61611 0.5182 0.33921 0.0
C3127 C 0.63695 0.51224 0.33574 0.0
C3128 C 0.62242 0.51831 0.42834 0.0
C3129 C 0.61911 0.51548 0.38178 0.0
C3130 C 0.61318 0.52183 0.45067 0.0
C3131 C 0.59101 0.52486 0.45195 0.0
C3132 C 0.60977 0.51819 0.40653 0.0
C3133 C 0.57894 0.52428 0.42959 0.0
C3134 C 0.60729 0.51969 0.36155 0.0
C3135 C 0.64807 0.50746 0.35637 0.0
N3136 N 0.5884 0.52126 0.40832 0.0
N3137 N 0.63918 0.50935 0.37823 0.0
H3138 H 0.31099 0.92161 0.07604 0.0
H3139 H 0.33299 0.80967 0.12475 0.0
H3140 H 0.36986 0.89452 0.06345 0.0
H3141 H 0.3524 0.87937 0.17741 0.0
H3142 H 0.31976 0.83111 0.09523 0.0
H3143 H 0.303 0.89627 0.10685 0.0
C3144 C 0.32207 0.9102 0.07974 0.0
C3145 C 0.34129 0.91021 0.0678 0.0
C3146 C 0.32603 0.84134 0.11358 0.0
C3147 C 0.33168 0.88101 0.10122 0.0
C3148 C 0.33382 0.82934 0.13011 0.0
C3149 C 0.34441 0.8433 0.15278 0.0
C3150 C 0.32917 0.8672 0.12007 0.0
C3151 C 0.34482 0.86848 0.1596 0.0
C3152 C 0.31741 0.89584 0.09699 0.0
C3153 C 0.35516 0.89523 0.07275 0.0
N3154 N 0.33784 0.88 0.14291 0.0
N3155 N 0.35001 0.88105 0.08918 0.0
H3156 H 0.94486 0.49267 0.8695 0.0
H3157 H 0.02237 0.58756 0.98066 0.0
H3158 H 0.9441 0.57023 0.88329 0.0
H3159 H 0.04217 0.52688 0.93768 0.0
H3160 H 0.99041 0.58122 0.94963 0.0
H3161 H 0.97524 0.50279 0.90261 0.0
C3162 C 0.95041 0.51164 0.88016 0.0
C3163 C 0.94254 0.5309 0.87347 0.0
C3164 C 0.00219 0.56986 0.94672 0.0
C3165 C 0.97725 0.54246 0.91058 0.0
C3166 C 0.02052 0.57378 0.96404 0.0
C3167 C 0.03473 0.55791 0.96113 0.0
C3168 C 0.99809 0.54958 0.92707 0.0
C3169 C 0.03159 0.53967 0.94002 0.0
C3170 C 0.96805 0.51745 0.89863 0.0
C3171 C 0.9502 0.55509 0.88784 0.0
N3172 N 0.01314 0.53557 0.9238 0.0
N3173 N 0.96759 0.56039 0.90568 0.0
H3174 H 0.32009 0.21685 0.5855 0.0
H3175 H 0.30713 0.30513 0.70694 0.0
H3176 H 0.28999 0.27758 0.58206 0.0
H3177 H 0.2989 0.22584 0.69807 0.0
H3178 H 0.30649 0.30031 0.66281 0.0
H3179 H 0.32088 0.22605 0.62927 0.0
C3180 C 0.314 0.2324 0.59394 0.0
C3181 C 0.30468 0.24624 0.58001 0.0
C3182 C 0.30456 0.28401 0.67064 0.0
C3183 C 0.3054 0.25672 0.63015 0.0
C3184 C 0.30466 0.2867 0.69568 0.0
C3185 C 0.3029 0.26578 0.70604 0.0
C3186 C 0.3034 0.26046 0.65627 0.0
C3187 C 0.30028 0.24241 0.69076 0.0
C3188 C 0.31426 0.23747 0.61891 0.0
C3189 C 0.2971 0.26625 0.59209 0.0
N3190 N 0.30092 0.24043 0.66675 0.0
N3191 N 0.29752 0.27086 0.61652 0.0
H3192 H 0.65564 0.49233 0.17616 0.0
H3193 H 0.56809 0.54511 0.09743 0.0
H3194 H 0.61135 0.53428 0.20784 0.0
H3195 H 0.61937 0.51357 0.06682 0.0
H3196 H 0.58209 0.53935 0.13736 0.0
H3197 H 0.64087 0.49682 0.13589 0.0
C3198 C 0.64282 0.50231 0.17496 0.0
C3199 C 0.63504 0.51275 0.19632 0.0
C3200 C 0.59027 0.53359 0.12187 0.0
C3201 C 0.61783 0.51839 0.1492 0.0
C3202 C 0.58224 0.53705 0.09884 0.0
C3203 C 0.59247 0.53024 0.07801 0.0
C3204 C 0.60851 0.52259 0.1246 0.0
C3205 C 0.61071 0.51947 0.08184 0.0
C3206 C 0.63436 0.50503 0.15172 0.0
C3207 C 0.61824 0.52559 0.19257 0.0
N3208 N 0.61787 0.51597 0.10411 0.0
N3209 N 0.61048 0.52799 0.17008 0.0
H3210 H 0.32457 0.91759 0.93698 0.0
H3211 H 0.36024 0.80764 0.85366 0.0
H3212 H 0.38206 0.89127 0.95739 0.0
H3213 H 0.29534 0.82305 0.84335 0.0
H3214 H 0.36971 0.83917 0.89147 0.0
H3215 H 0.31603 0.88574 0.89966 0.0
C3216 C 0.33544 0.90521 0.93352 0.0
C3217 C 0.3536 0.90644 0.95046 0.0
C3218 C 0.35314 0.83514 0.88123 0.0
C3219 C 0.34377 0.87006 0.90852 0.0
C3220 C 0.34767 0.81694 0.86007 0.0
C3221 C 0.32683 0.81253 0.84623 0.0
C3222 C 0.33774 0.8491 0.88785 0.0
C3223 C 0.31123 0.82547 0.85426 0.0
C3224 C 0.33048 0.88698 0.9124 0.0
C3225 C 0.36758 0.89054 0.94496 0.0
N3226 N 0.31712 0.84354 0.87457 0.0
N3227 N 0.36217 0.87269 0.92448 0.0
H3228 H 0.96159 0.56143 0.74616 0.0
H3229 H 0.98888 0.47813 0.63318 0.0
H3230 H 0.94676 0.48079 0.73079 0.0
H3231 H 0.01021 0.5587 0.65082 0.0
H3232 H 0.95912 0.47901 0.65944 0.0
H3233 H 0.96591 0.56064 0.70384 0.0
C3234 C 0.95927 0.54357 0.73388 0.0
C3235 C 0.95479 0.52119 0.74205 0.0
C3236 C 0.97007 0.49654 0.65728 0.0
C3237 C 0.95941 0.52018 0.69389 0.0
C3238 C 0.9871 0.49595 0.6426 0.0
C3239 C 0.00243 0.51832 0.64117 0.0
C3240 C 0.96931 0.5196 0.67124 0.0
C3241 C 0.99905 0.54108 0.65247 0.0
C3242 C 0.96136 0.54311 0.7097 0.0
C3243 C 0.95102 0.49854 0.72534 0.0
N3244 N 0.98316 0.54118 0.66771 0.0
N3245 N 0.95381 0.49865 0.70206 0.0
H3246 H 0.31612 0.27599 0.45887 0.0
H3247 H 0.30818 0.22098 0.31799 0.0
H3248 H 0.3108 0.19826 0.43008 0.0
H3249 H 0.32318 0.2993 0.35127 0.0
H3250 H 0.31107 0.21172 0.35833 0.0
H3251 H 0.32226 0.28486 0.41928 0.0
C3252 C 0.31656 0.26084 0.4442 0.0
C3253 C 0.31286 0.23638 0.44764 0.0
C3254 C 0.31441 0.23101 0.35666 0.0
C3255 C 0.31923 0.24616 0.40198 0.0
C3256 C 0.3127 0.23632 0.33365 0.0
C3257 C 0.31621 0.26117 0.33103 0.0
C3258 C 0.31957 0.25069 0.37716 0.0
C3259 C 0.32155 0.28014 0.35203 0.0
C3260 C 0.32002 0.26586 0.42155 0.0
C3261 C 0.31369 0.21741 0.4281 0.0
N3262 N 0.32302 0.27452 0.37407 0.0
N3263 N 0.3164 0.22261 0.40592 0.0
H3264 H 0.34148 0.58742 0.55426 0.0
H3265 H 0.45178 0.5938 0.48812 0.0
H3266 H 0.35435 0.61576 0.49002 0.0
H3267 H 0.42095 0.52857 0.51484 0.0
H3268 H 0.42475 0.61466 0.50634 0.0
H3269 H 0.37807 0.5765 0.55439 0.0
C3270 C 0.35218 0.59152 0.54041 0.0
C3271 C 0.34512 0.60206 0.52186 0.0
C3272 C 0.42445 0.59612 0.50895 0.0
C3273 C 0.38663 0.59106 0.52265 0.0
C3274 C 0.43986 0.58435 0.49872 0.0
C3275 C 0.43817 0.55954 0.49991 0.0
C3276 C 0.4072 0.58273 0.52001 0.0
C3277 C 0.42249 0.54777 0.5136 0.0
C3278 C 0.3729 0.58548 0.54059 0.0
C3279 C 0.35926 0.60726 0.50433 0.0
N3280 N 0.40708 0.55933 0.52277 0.0
N3281 N 0.37945 0.60177 0.50519 0.0
H3282 H 0.90183 0.89623 0.5195 0.0
H3283 H 0.98596 0.03441 0.55613 0.0
H3284 H 0.8799 0.95676 0.56007 0.0
H3285 H 0.002 0.96741 0.52082 0.0
H3286 H 0.9473 0.00897 0.55815 0.0
H3287 H 0.93809 0.92465 0.51886 0.0
C3288 C 0.90474 0.91565 0.52851 0.0
C3289 C 0.88791 0.92397 0.54028 0.0
C3290 C 0.95943 1.0 0.55006 0.0
C3291 C 0.9302 0.95726 0.53979 0.0
C3292 C 0.98153 0.01449 0.54897 0.0
C3293 C 0.99733 1.0032 0.53799 0.0
C3294 C 0.9533 0.97413 0.54019 0.0
C3295 C 0.99054 0.97723 0.52915 0.0
C3296 C 0.92561 0.93202 0.52812 0.0
C3297 C 0.89254 0.94957 0.55097 0.0
N3298 N 0.96923 0.96381 0.53039 0.0
N3299 N 0.91346 0.9654 0.55069 0.0
H3300 H 0.89585 0.15104 0.31851 0.0
H3301 H 0.8562 0.23476 0.23065 0.0
H3302 H 0.90684 0.14067 0.24382 0.0
H3303 H 0.84108 0.24005 0.30374 0.0
H3304 H 0.87408 0.20115 0.23478 0.0
H3305 H 0.87652 0.18288 0.31316 0.0
C3306 C 0.89435 0.1552 0.30077 0.0
C3307 C 0.90357 0.1422 0.28171 0.0
C3308 C 0.86684 0.20942 0.25 0.0
C3309 C 0.88037 0.1805 0.27537 0.0
C3310 C 0.85639 0.22888 0.24767 0.0
C3311 C 0.84662 0.24095 0.26674 0.0
C3312 C 0.86821 0.20123 0.27186 0.0
C3313 C 0.84795 0.23178 0.28822 0.0
C3314 C 0.88304 0.17378 0.29779 0.0
C3315 C 0.90042 0.14952 0.25939 0.0
N3316 N 0.85844 0.21296 0.29012 0.0
N3317 N 0.88936 0.16783 0.25698 0.0
H3318 H 0.72642 0.12153 0.00504 0.0
H3319 H 0.61125 0.02684 0.00103 0.0
H3320 H 0.72562 0.07137 0.05341 0.0
H3321 H 0.6185 0.10618 0.01346 0.0
H3322 H 0.65198 0.0351 0.01203 0.0
H3323 H 0.68531 0.10668 0.99648 0.0
C3324 C 0.71752 0.10705 0.01352 0.0
C3325 C 0.72903 0.09804 0.03037 0.0
C3326 C 0.64445 0.05057 0.0128 0.0
C3327 C 0.68246 0.08102 0.02065 0.0
C3328 C 0.62122 0.04596 0.00647 0.0
C3329 C 0.61151 0.06595 0.00677 0.0
C3330 C 0.65786 0.07526 0.01823 0.0
C3331 C 0.62543 0.09036 0.01345 0.0
C3332 C 0.69419 0.09871 0.00872 0.0
C3333 C 0.71701 0.07875 0.04042 0.0
N3334 N 0.64808 0.09439 0.01869 0.0
N3335 N 0.69398 0.07087 0.03558 0.0
H3336 H 0.19812 0.45873 0.22034 0.0
H3337 H 0.31581 0.4352 0.26316 0.0
H3338 H 0.26319 0.50196 0.20736 0.0
H3339 H 0.2522 0.40547 0.28842 0.0
H3340 H 0.2959 0.45242 0.23441 0.0
H3341 H 0.21682 0.43077 0.23593 0.0
C3342 C 0.21627 0.46195 0.22011 0.0
C3343 C 0.2292 0.48301 0.21301 0.0
C3344 C 0.28626 0.4418 0.24598 0.0
C3345 C 0.25066 0.45127 0.23111 0.0
C3346 C 0.29757 0.43207 0.26228 0.0
C3347 C 0.28543 0.41921 0.27797 0.0
C3348 C 0.26273 0.43836 0.24548 0.0
C3349 C 0.26196 0.41549 0.27652 0.0
C3350 C 0.22694 0.44607 0.22919 0.0
C3351 C 0.25262 0.48613 0.21296 0.0
N3352 N 0.25133 0.42518 0.26059 0.0
N3353 N 0.26271 0.47067 0.22236 0.0
H3354 H 0.24829 0.39421 0.01405 0.0
H3355 H 0.20222 0.51577 0.03684 0.0
H3356 H 0.28988 0.46798 0.04915 0.0
H3357 H 0.17166 0.4509 0.98012 0.0
H3358 H 0.2302 0.49487 0.04946 0.0
H3359 H 0.21599 0.41162 0.00904 0.0
C3360 C 0.25064 0.41405 0.02073 0.0
C3361 C 0.2719 0.42974 0.0318 0.0
C3362 C 0.21718 0.48509 0.03447 0.0
C3363 C 0.23501 0.4496 0.02629 0.0
C3364 C 0.20123 0.49692 0.0274 0.0
C3365 C 0.18499 0.48499 0.00735 0.0
C3366 C 0.21659 0.46115 0.02148 0.0
C3367 C 0.18421 0.46066 0.99554 0.0
C3368 C 0.23219 0.42391 0.0179 0.0
C3369 C 0.27386 0.45522 0.0404 0.0
N3370 N 0.19993 0.4495 0.00272 0.0
N3371 N 0.25566 0.46439 0.03736 0.0
H3372 H 0.88879 0.98432 0.22536 0.0
H3373 H 0.8596 0.87551 0.30006 0.0
H3374 H 0.90657 0.99662 0.30199 0.0
H3375 H 0.82576 0.86611 0.2287 0.0
H3376 H 0.87789 0.91916 0.3 0.0
H3377 H 0.86602 0.94154 0.22519 0.0
C3378 C 0.88719 0.97845 0.24232 0.0
C3379 C 0.89897 0.99479 0.26389 0.0
C3380 C 0.86657 0.90765 0.28423 0.0
C3381 C 0.87383 0.94478 0.26366 0.0
C3382 C 0.85632 0.88236 0.28409 0.0
C3383 C 0.8415 0.86647 0.26407 0.0
C3384 C 0.86229 0.91767 0.26409 0.0
C3385 C 0.83718 0.87736 0.24449 0.0
C3386 C 0.87442 0.95377 0.24217 0.0
C3387 C 0.89718 0.98527 0.28505 0.0
N3388 N 0.84764 0.90201 0.24488 0.0
N3389 N 0.88516 0.96113 0.28436 0.0
H3390 H 0.72943 0.10325 0.71132 0.0
H3391 H 0.81123 0.23122 0.78587 0.0
H3392 H 0.75694 0.11355 0.78557 0.0
H3393 H 0.74806 0.2253 0.74368 0.0
H3394 H 0.80442 0.18583 0.77418 0.0
H3395 H 0.75135 0.14598 0.71134 0.0
C3396 C 0.74106 0.11405 0.72718 0.0
C3397 C 0.74143 0.1053 0.74861 0.0
C3398 C 0.79235 0.19462 0.76715 0.0
C3399 C 0.76604 0.15337 0.74865 0.0
C3400 C 0.79612 0.22032 0.77381 0.0
C3401 C 0.78022 0.23167 0.76535 0.0
C3402 C 0.77263 0.18044 0.75199 0.0
C3403 C 0.76063 0.21694 0.75035 0.0
C3404 C 0.75329 0.13835 0.7272 0.0
C3405 C 0.7563 0.11992 0.76883 0.0
N3406 N 0.75732 0.19184 0.74405 0.0
N3407 N 0.76788 0.14358 0.7685 0.0
loop_
_geom_bond_atom_site_label_1
_geom_bond_atom_site_label_2
_geom_bond_distance
_geom_bond_site_symmetry_2
_ccdc_geom_bond_type
Zn0 O3 2.031 . S
Zn0 O5 2.049 . S
Zn0 O10 2.067 . S
Zn1 O2 1.962 . S
Zn1 O4 1.986 . S
Zn1 O6 1.996 . S
Zn1 O9 1.943 . S
O2 Zn1 1.962 . S
O2 C7 1.254 . S
O3 Zn0 2.031 . S
O3 C7 1.269 . S
O4 Zn1 1.986 . S
O4 C11 1.262 . S
O5 Zn0 2.049 . S
O5 C13 1.260 . S
O6 Zn1 1.996 . S
O6 C13 1.257 . S
C7 O2 1.254 . S
C7 O3 1.269 . S
C8 O9 1.249 . S
C8 O10 1.270 . S
O9 Zn1 1.943 . S
O9 C8 1.249 . S
O10 Zn0 2.067 . S
O10 C8 1.270 . S
C11 O4 1.262 . S
C11 O12 1.232 . S
O12 C11 1.232 . S
C13 O5 1.260 . S
C13 O6 1.257 . S
Zn14 O17 2.031 1_455 S
Zn14 O19 2.049 . S
Zn14 O24 2.067 . S
Zn15 O16 1.930 1_455 S
Zn15 O18 1.999 . S
Zn15 O20 2.022 . S
Zn15 O23 1.950 1_455 S
O16 Zn15 1.930 1_655 S
O16 C21 1.254 . S
O17 Zn14 2.031 1_655 S
O17 C21 1.269 . S
O18 Zn15 1.999 . S
O18 C25 1.262 . S
O19 Zn14 2.049 . S
O19 C27 1.260 . S
O20 Zn15 2.022 . S
O20 C27 1.257 . S
C21 O16 1.254 . S
C21 O17 1.269 . S
C22 O23 1.249 . S
C22 O24 1.270 1_655 S
O23 Zn15 1.950 1_655 S
O23 C22 1.249 . S
O24 Zn14 2.067 . S
O24 C22 1.270 1_455 S
C25 O18 1.262 . S
C25 O26 1.232 1_455 S
O26 C25 1.232 1_655 S
C27 O19 1.260 . S
C27 O20 1.257 . S
Zn28 O31 2.031 . S
Zn28 O33 2.049 . S
Zn28 O38 2.067 . S
Zn29 O30 1.962 . S
Zn29 O32 1.986 . S
Zn29 O34 1.996 . S
Zn29 O37 1.943 . S
O30 Zn29 1.962 . S
O30 C35 1.254 . S
O31 Zn28 2.031 . S
O31 C35 1.269 . S
O32 Zn29 1.986 . S
O32 C39 1.262 . S
O33 Zn28 2.049 . S
O33 C41 1.260 . S
O34 Zn29 1.996 . S
O34 C41 1.257 . S
C35 O30 1.254 . S
C35 O31 1.269 . S
C36 O37 1.249 . S
C36 O38 1.270 . S
O37 Zn29 1.943 . S
O37 C36 1.249 . S
O38 Zn28 2.067 . S
O38 C36 1.270 . S
C39 O32 1.262 . S
C39 O40 1.232 . S
O40 C39 1.232 . S
C41 O33 1.260 . S
C41 O34 1.257 . S
Zn42 O45 2.031 . S
Zn42 O47 2.049 . S
Zn42 O52 2.067 . S
Zn43 O44 1.962 . S
Zn43 O46 1.986 . S
Zn43 O48 1.996 . S
Zn43 O51 1.943 . S
O44 Zn43 1.962 . S
O44 C49 1.254 . S
O45 Zn42 2.031 . S
O45 C49 1.269 . S
O46 Zn43 1.986 . S
O46 C53 1.262 . S
O47 Zn42 2.049 . S
O47 C55 1.260 . S
O48 Zn43 1.996 . S
O48 C55 1.257 . S
C49 O44 1.254 . S
C49 O45 1.269 . S
C50 O51 1.249 . S
C50 O52 1.270 . S
O51 Zn43 1.943 . S
O51 C50 1.249 . S
O52 Zn42 2.067 . S
O52 C50 1.270 . S
C53 O46 1.262 . S
C53 O54 1.232 . S
O54 C53 1.232 . S
C55 O47 1.260 . S
C55 O48 1.257 . S
Zn56 O59 2.031 . S
Zn56 O61 2.049 . S
Zn56 O66 2.067 . S
Zn57 O58 1.962 . S
Zn57 O60 1.986 . S
Zn57 O62 1.996 . S
Zn57 O65 1.943 . S
O58 Zn57 1.962 . S
O58 C63 1.254 . S
O59 Zn56 2.031 . S
O59 C63 1.269 . S
O60 Zn57 1.986 . S
O60 C67 1.262 . S
O61 Zn56 2.049 . S
O61 C69 1.260 . S
O62 Zn57 1.996 . S
O62 C69 1.257 . S
C63 O58 1.254 . S
C63 O59 1.269 . S
C64 O65 1.249 . S
C64 O66 1.270 . S
O65 Zn57 1.943 . S
O65 C64 1.249 . S
O66 Zn56 2.067 . S
O66 C64 1.270 . S
C67 O60 1.262 . S
C67 O68 1.232 . S
O68 C67 1.232 . S
C69 O61 1.260 . S
C69 O62 1.257 . S
Zn70 O73 2.031 . S
Zn70 O75 2.049 . S
Zn70 O80 2.067 . S
Zn71 O72 1.962 . S
Zn71 O74 1.986 . S
Zn71 O76 1.996 . S
Zn71 O79 1.943 . S
O72 Zn71 1.962 . S
O72 C77 1.254 . S
O73 Zn70 2.031 . S
O73 C77 1.269 . S
O74 Zn71 1.986 . S
O74 C81 1.262 . S
O75 Zn70 2.049 . S
O75 C83 1.260 . S
O76 Zn71 1.996 . S
O76 C83 1.257 . S
C77 O72 1.254 . S
C77 O73 1.269 . S
C78 O79 1.249 . S
C78 O80 1.270 . S
O79 Zn71 1.943 . S
O79 C78 1.249 . S
O80 Zn70 2.067 . S
O80 C78 1.270 . S
C81 O74 1.262 . S
C81 O82 1.232 . S
O82 C81 1.232 . S
C83 O75 1.260 . S
C83 O76 1.257 . S
Zn84 O87 2.031 . S
Zn84 O89 2.049 . S
Zn84 O94 2.067 . S
Zn85 O86 1.962 . S
Zn85 O88 1.986 . S
Zn85 O90 1.996 . S
Zn85 O93 1.943 . S
O86 Zn85 1.962 . S
O86 C91 1.254 . S
O87 Zn84 2.031 . S
O87 C91 1.269 . S
O88 Zn85 1.986 . S
O88 C95 1.262 . S
O89 Zn84 2.049 . S
O89 C97 1.260 . S
O90 Zn85 1.996 . S
O90 C97 1.257 . S
C91 O86 1.254 . S
C91 O87 1.269 . S
C92 O93 1.249 . S
C92 O94 1.270 . S
O93 Zn85 1.943 . S
O93 C92 1.249 . S
O94 Zn84 2.067 . S
O94 C92 1.270 . S
C95 O88 1.262 . S
C95 O96 1.232 . S
O96 C95 1.232 . S
C97 O89 1.260 . S
C97 O90 1.257 . S
Zn98 O101 2.031 1_655 S
Zn98 O103 2.049 . S
Zn98 O108 2.067 . S
Zn99 O100 1.962 . S
Zn99 O102 1.986 . S
Zn99 O104 1.996 . S
Zn99 O107 1.943 . S
O100 Zn99 1.962 . S
O100 C105 1.254 . S
O101 Zn98 2.031 1_455 S
O101 C105 1.269 . S
O102 Zn99 1.986 . S
O102 C109 1.262 . S
O103 Zn98 2.049 . S
O103 C111 1.260 1_655 S
O104 Zn99 1.996 . S
O104 C111 1.257 . S
C105 O100 1.254 . S
C105 O101 1.269 . S
C106 O107 1.249 1_655 S
C106 O108 1.270 . S
O107 Zn99 1.943 . S
O107 C106 1.249 1_455 S
O108 Zn98 2.067 . S
O108 C106 1.270 . S
C109 O102 1.262 . S
C109 O110 1.232 . S
O110 C109 1.232 . S
C111 O103 1.260 1_455 S
C111 O104 1.257 . S
Zn112 O115 2.031 1_565 S
Zn112 O117 2.049 . S
Zn112 O122 2.067 . S
Zn113 O114 1.962 . S
Zn113 O116 1.986 . S
Zn113 O118 1.996 . S
Zn113 O121 1.919 1_545 S
O114 Zn113 1.962 . S
O114 C119 1.254 . S
O115 Zn112 2.031 1_545 S
O115 C119 1.269 . S
O116 Zn113 1.986 . S
O116 C123 1.262 . S
O117 Zn112 2.049 . S
O117 C125 1.260 1_565 S
O118 Zn113 1.996 . S
O118 C125 1.257 . S
C119 O114 1.254 . S
C119 O115 1.269 . S
C120 O121 1.282 . S
C120 O122 1.270 . S
O121 Zn113 1.919 1_565 S
O121 C120 1.282 . S
O122 Zn112 2.067 . S
O122 C120 1.270 . S
C123 O116 1.262 . S
C123 O124 1.232 . S
O124 C123 1.232 . S
C125 O117 1.260 1_545 S
C125 O118 1.257 . S
Zn126 O129 2.031 . S
Zn126 O131 2.049 . S
Zn126 O136 2.067 . S
Zn127 O128 1.962 . S
Zn127 O130 1.986 . S
Zn127 O132 1.996 . S
Zn127 O135 1.943 . S
O128 Zn127 1.962 . S
O128 C133 1.254 . S
O129 Zn126 2.031 . S
O129 C133 1.269 . S
O130 Zn127 1.986 . S
O130 C137 1.262 . S
O131 Zn126 2.049 . S
O131 C139 1.260 . S
O132 Zn127 1.996 . S
O132 C139 1.257 . S
C133 O128 1.254 . S
C133 O129 1.269 . S
C134 O135 1.249 . S
C134 O136 1.270 . S
O135 Zn127 1.943 . S
O135 C134 1.249 . S
O136 Zn126 2.067 . S
O136 C134 1.270 . S
C137 O130 1.262 . S
C137 O138 1.232 . S
O138 C137 1.232 . S
C139 O131 1.260 . S
C139 O132 1.257 . S
Zn140 O143 2.031 . S
Zn140 O145 2.049 . S
Zn140 O150 2.067 . S
Zn141 O142 1.962 . S
Zn141 O144 1.986 . S
Zn141 O146 1.996 . S
Zn141 O149 1.943 1_565 S
O142 Zn141 1.962 . S
O142 C147 1.254 1_565 S
O143 Zn140 2.031 . S
O143 C147 1.269 . S
O144 Zn141 1.986 . S
O144 C151 1.262 . S
O145 Zn140 2.049 . S
O145 C153 1.260 1_545 S
O146 Zn141 1.996 . S
O146 C153 1.257 . S
C147 O142 1.254 1_545 S
C147 O143 1.269 . S
C148 O149 1.249 . S
C148 O150 1.270 . S
O149 Zn141 1.943 1_545 S
O149 C148 1.249 . S
O150 Zn140 2.067 . S
O150 C148 1.270 . S
C151 O144 1.262 . S
C151 O152 1.232 . S
O152 C151 1.232 . S
C153 O145 1.260 1_565 S
C153 O146 1.257 . S
Zn154 O157 2.031 1_554 S
Zn154 O159 2.049 . S
Zn154 O164 2.067 . S
Zn155 O156 1.962 1_554 S
Zn155 O158 1.986 . S
Zn155 O160 1.996 . S
Zn155 O163 1.943 . S
O156 Zn155 1.962 1_556 S
O156 C161 1.254 . S
O157 Zn154 2.031 1_556 S
O157 C161 1.269 . S
O158 Zn155 1.986 . S
O158 C165 1.262 . S
O159 Zn154 2.049 . S
O159 C167 1.260 . S
O160 Zn155 1.996 . S
O160 C167 1.257 . S
C161 O156 1.254 . S
C161 O157 1.269 . S
C162 O163 1.249 . S
C162 O164 1.270 . S
O163 Zn155 1.943 . S
O163 C162 1.249 . S
O164 Zn154 2.067 . S
O164 C162 1.270 . S
C165 O158 1.262 . S
C165 O166 1.232 1_554 S
O166 C165 1.232 1_556 S
C167 O159 1.260 . S
C167 O160 1.257 . S
Zn168 O171 2.031 . S
Zn168 O173 2.049 . S
Zn168 O178 2.067 . S
Zn169 O170 1.962 . S
Zn169 O172 1.986 . S
Zn169 O174 1.996 . S
Zn169 O177 1.943 . S
O170 Zn169 1.962 . S
O170 C175 1.254 1_554 S
O171 Zn168 2.031 . S
O171 C175 1.269 1_554 S
O172 Zn169 1.986 . S
O172 C179 1.262 . S
O173 Zn168 2.049 . S
O173 C181 1.260 . S
O174 Zn169 1.996 . S
O174 C181 1.257 . S
C175 O170 1.254 1_556 S
C175 O171 1.269 1_556 S
C176 O177 1.249 . S
C176 O178 1.270 . S
O177 Zn169 1.943 . S
O177 C176 1.249 . S
O178 Zn168 2.067 . S
O178 C176 1.270 . S
C179 O172 1.262 . S
C179 O180 1.232 . S
O180 C179 1.232 . S
C181 O173 1.260 . S
C181 O174 1.257 . S
Zn182 O185 2.031 . S
Zn182 O187 2.049 . S
Zn182 O192 2.067 . S
Zn183 O184 1.962 . S
Zn183 O186 1.986 . S
Zn183 O188 1.996 . S
Zn183 O191 1.943 . S
O184 Zn183 1.962 . S
O184 C189 1.254 1_554 S
O185 Zn182 2.031 . S
O185 C189 1.269 1_554 S
O186 Zn183 1.986 . S
O186 C193 1.262 . S
O187 Zn182 2.049 . S
O187 C195 1.260 . S
O188 Zn183 1.996 . S
O188 C195 1.257 . S
C189 O184 1.254 1_556 S
C189 O185 1.269 1_556 S
C190 O191 1.249 . S
C190 O192 1.270 . S
O191 Zn183 1.943 . S
O191 C190 1.249 . S
O192 Zn182 2.067 . S
O192 C190 1.270 . S
C193 O186 1.262 . S
C193 O194 1.232 . S
O194 C193 1.232 . S
C195 O187 1.260 . S
C195 O188 1.257 . S
Zn196 O199 2.031 . S
Zn196 O201 2.049 . S
Zn196 O206 2.067 . S
Zn197 O198 1.962 . S
Zn197 O200 1.986 . S
Zn197 O202 1.996 . S
Zn197 O205 1.943 . S
O198 Zn197 1.962 . S
O198 C203 1.254 . S
O199 Zn196 2.031 . S
O199 C203 1.269 . S
O200 Zn197 1.986 . S
O200 C207 1.262 . S
O201 Zn196 2.049 . S
O201 C209 1.260 . S
O202 Zn197 1.996 . S
O202 C209 1.257 . S
C203 O198 1.254 . S
C203 O199 1.269 . S
C204 O205 1.249 . S
C204 O206 1.270 . S
O205 Zn197 1.943 . S
O205 C204 1.249 . S
O206 Zn196 2.067 . S
O206 C204 1.270 . S
C207 O200 1.262 . S
C207 O208 1.232 . S
O208 C207 1.232 . S
C209 O201 1.260 . S
C209 O202 1.257 . S
Zn210 O213 2.031 . S
Zn210 O215 2.049 . S
Zn210 O220 2.067 . S
Zn211 O212 1.962 . S
Zn211 O214 1.986 . S
Zn211 O216 1.996 . S
Zn211 O219 1.943 . S
O212 Zn211 1.962 . S
O212 C217 1.254 . S
O213 Zn210 2.031 . S
O213 C217 1.269 . S
O214 Zn211 1.986 . S
O214 C221 1.262 . S
O215 Zn210 2.049 . S
O215 C223 1.260 . S
O216 Zn211 1.996 . S
O216 C223 1.257 . S
C217 O212 1.254 . S
C217 O213 1.269 . S
C218 O219 1.249 . S
C218 O220 1.270 . S
O219 Zn211 1.943 . S
O219 C218 1.249 . S
O220 Zn210 2.067 . S
O220 C218 1.270 . S
C221 O214 1.262 . S
C221 O222 1.232 . S
O222 C221 1.232 . S
C223 O215 1.260 . S
C223 O216 1.257 . S
Zn224 O227 2.031 . S
Zn224 O229 2.049 . S
Zn224 O234 2.067 . S
Zn225 O226 1.962 . S
Zn225 O228 1.986 . S
Zn225 O230 1.996 . S
Zn225 O233 1.943 . S
O226 Zn225 1.962 . S
O226 C231 1.254 . S
O227 Zn224 2.031 . S
O227 C231 1.269 . S
O228 Zn225 1.986 . S
O228 C235 1.262 . S
O229 Zn224 2.049 . S
O229 C237 1.260 . S
O230 Zn225 1.996 . S
O230 C237 1.257 . S
C231 O226 1.254 . S
C231 O227 1.269 . S
C232 O233 1.249 . S
C232 O234 1.270 . S
O233 Zn225 1.943 . S
O233 C232 1.249 . S
O234 Zn224 2.067 . S
O234 C232 1.270 . S
C235 O228 1.262 . S
C235 O236 1.232 . S
O236 C235 1.232 . S
C237 O229 1.260 . S
C237 O230 1.257 . S
Zn238 O241 2.031 . S
Zn238 O243 2.049 . S
Zn238 O248 2.067 . S
Zn239 O240 1.962 . S
Zn239 O242 1.986 . S
Zn239 O244 1.996 . S
Zn239 O247 1.943 . S
O240 Zn239 1.962 . S
O240 C245 1.254 . S
O241 Zn238 2.031 . S
O241 C245 1.269 . S
O242 Zn239 1.986 . S
O242 C249 1.262 . S
O243 Zn238 2.049 . S
O243 C251 1.260 . S
O244 Zn239 1.996 . S
O244 C251 1.257 . S
C245 O240 1.254 . S
C245 O241 1.269 . S
C246 O247 1.249 . S
C246 O248 1.270 . S
O247 Zn239 1.943 . S
O247 C246 1.249 . S
O248 Zn238 2.067 . S
O248 C246 1.270 . S
C249 O242 1.262 . S
C249 O250 1.232 . S
O250 C249 1.232 . S
C251 O243 1.260 . S
C251 O244 1.257 . S
Zn252 O255 2.031 . S
Zn252 O257 2.049 . S
Zn252 O262 2.067 . S
Zn253 O254 1.962 . S
Zn253 O256 1.986 . S
Zn253 O258 1.996 . S
Zn253 O261 1.943 . S
O254 Zn253 1.962 . S
O254 C259 1.254 . S
O255 Zn252 2.031 . S
O255 C259 1.269 . S
O256 Zn253 1.986 . S
O256 C263 1.262 . S
O257 Zn252 2.049 . S
O257 C265 1.260 . S
O258 Zn253 1.996 . S
O258 C265 1.257 . S
C259 O254 1.254 . S
C259 O255 1.269 . S
C260 O261 1.249 . S
C260 O262 1.270 . S
O261 Zn253 1.943 . S
O261 C260 1.249 . S
O262 Zn252 2.067 . S
O262 C260 1.270 . S
C263 O256 1.262 . S
C263 O264 1.232 . S
O264 C263 1.232 . S
C265 O257 1.260 . S
C265 O258 1.257 . S
Zn266 O269 2.031 . S
Zn266 O271 2.049 . S
Zn266 O276 2.067 . S
Zn267 O268 1.962 . S
Zn267 O270 1.986 . S
Zn267 O272 1.996 . S
Zn267 O275 1.943 . S
O268 Zn267 1.962 . S
O268 C273 1.254 . S
O269 Zn266 2.031 . S
O269 C273 1.269 . S
O270 Zn267 1.986 . S
O270 C277 1.262 . S
O271 Zn266 2.049 . S
O271 C279 1.260 . S
O272 Zn267 1.996 . S
O272 C279 1.257 . S
C273 O268 1.254 . S
C273 O269 1.269 . S
C274 O275 1.249 . S
C274 O276 1.270 . S
O275 Zn267 1.943 . S
O275 C274 1.249 . S
O276 Zn266 2.067 . S
O276 C274 1.270 . S
C277 O270 1.262 . S
C277 O278 1.232 . S
O278 C277 1.232 . S
C279 O271 1.260 . S
C279 O272 1.257 . S
Zn280 O283 2.031 1_554 S
Zn280 O285 2.049 . S
Zn280 O290 2.067 . S
Zn281 O282 1.989 . S
Zn281 O284 1.972 1_556 S
Zn281 O286 1.976 1_556 S
Zn281 O289 1.940 . S
O282 Zn281 1.989 . S
O282 C287 1.254 . S
O283 Zn280 2.031 1_556 S
O283 C287 1.269 . S
O284 Zn281 1.972 1_554 S
O284 C291 1.262 1_554 S
O285 Zn280 2.049 . S
O285 C293 1.260 . S
O286 Zn281 1.976 1_554 S
O286 C293 1.257 . S
C287 O282 1.254 . S
C287 O283 1.269 . S
C288 O289 1.249 . S
C288 O290 1.270 1_556 S
O289 Zn281 1.940 . S
O289 C288 1.249 . S
O290 Zn280 2.067 . S
O290 C288 1.270 1_554 S
C291 O284 1.262 1_556 S
C291 O292 1.232 . S
O292 C291 1.232 . S
C293 O285 1.260 . S
C293 O286 1.257 . S
Zn294 O297 2.031 . S
Zn294 O299 2.049 . S
Zn294 O304 2.067 . S
Zn295 O296 1.962 . S
Zn295 O298 1.986 . S
Zn295 O300 1.996 . S
Zn295 O303 1.943 . S
O296 Zn295 1.962 . S
O296 C301 1.254 . S
O297 Zn294 2.031 . S
O297 C301 1.269 . S
O298 Zn295 1.986 . S
O298 C305 1.262 . S
O299 Zn294 2.049 . S
O299 C307 1.260 . S
O300 Zn295 1.996 . S
O300 C307 1.257 . S
C301 O296 1.254 . S
C301 O297 1.269 . S
C302 O303 1.249 . S
C302 O304 1.270 . S
O303 Zn295 1.943 . S
O303 C302 1.249 . S
O304 Zn294 2.067 . S
O304 C302 1.270 . S
C305 O298 1.262 . S
C305 O306 1.232 . S
O306 C305 1.232 . S
C307 O299 1.260 . S
C307 O300 1.257 . S
Zn308 O311 2.031 . S
Zn308 O313 2.049 . S
Zn308 O318 2.067 . S
Zn309 O310 1.962 . S
Zn309 O312 1.986 . S
Zn309 O314 1.996 . S
Zn309 O317 1.943 . S
O310 Zn309 1.962 . S
O310 C315 1.254 . S
O311 Zn308 2.031 . S
O311 C315 1.269 . S
O312 Zn309 1.986 . S
O312 C319 1.262 . S
O313 Zn308 2.049 . S
O313 C321 1.260 . S
O314 Zn309 1.996 . S
O314 C321 1.257 . S
C315 O310 1.254 . S
C315 O311 1.269 . S
C316 O317 1.249 . S
C316 O318 1.270 . S
O317 Zn309 1.943 . S
O317 C316 1.249 . S
O318 Zn308 2.067 . S
O318 C316 1.270 . S
C319 O312 1.262 . S
C319 O320 1.232 . S
O320 C319 1.232 . S
C321 O313 1.260 . S
C321 O314 1.257 . S
Zn322 O325 2.031 . S
Zn322 O327 2.049 . S
Zn322 O332 2.067 . S
Zn323 O324 1.962 . S
Zn323 O326 1.986 . S
Zn323 O328 1.996 . S
Zn323 O331 1.943 . S
O324 Zn323 1.962 . S
O324 C329 1.254 . S
O325 Zn322 2.031 . S
O325 C329 1.269 . S
O326 Zn323 1.986 . S
O326 C333 1.262 . S
O327 Zn322 2.049 . S
O327 C335 1.260 . S
O328 Zn323 1.996 . S
O328 C335 1.257 . S
C329 O324 1.254 . S
C329 O325 1.269 . S
C330 O331 1.249 . S
C330 O332 1.270 . S
O331 Zn323 1.943 . S
O331 C330 1.249 . S
O332 Zn322 2.067 . S
O332 C330 1.270 . S
C333 O326 1.262 . S
C333 O334 1.232 . S
O334 C333 1.232 . S
C335 O327 1.260 . S
C335 O328 1.257 . S
Gd336 N367 2.661 . S
Gd336 N373 2.601 . S
Gd336 O380 2.545 . S
Gd336 O381 2.606 . S
Gd336 O383 2.429 . S
Gd336 O384 2.545 . S
Gd336 O385 2.412 . S
Gd336 O387 2.362 . S
Gd336 O388 2.324 1_554 S
Gd336 C395 2.828 . S
Gd337 N346 2.661 1_545 S
Gd337 N350 2.601 1_544 S
Gd337 O381 2.362 . S
Gd337 O382 2.324 . S
Gd337 O386 2.545 1_454 S
Gd337 O387 2.606 . S
Gd337 O389 2.429 1_554 S
Gd337 O390 2.545 . S
Gd337 O391 2.412 1_455 S
Gd337 C404 2.828 1_454 S
C338 C341 1.417 1_655 S
C338 C343 1.434 . S
C338 C344 1.412 . S
C339 C342 1.437 . S
C339 C343 1.310 1_556 S
C339 H358 0.929 . S
C340 C341 1.426 1_556 S
C340 C342 1.413 1_455 S
C340 N350 1.359 . S
C341 C338 1.417 1_455 S
C341 C340 1.426 1_554 S
C341 N346 1.350 . S
C342 C339 1.437 . S
C342 C340 1.413 1_655 S
C342 C352 1.391 . S
C343 C338 1.434 . S
C343 C339 1.310 1_554 S
C343 H354 0.934 . S
C344 C338 1.412 . S
C344 C345 1.355 1_655 S
C344 H356 0.930 . S
C345 C344 1.355 1_455 S
C345 C347 1.402 . S
C345 H357 0.930 . S
N346 Gd337 2.661 1_565 S
N346 C341 1.350 . S
N346 C347 1.307 . S
C347 C345 1.402 . S
C347 N346 1.307 . S
C347 H348 0.924 1_565 S
H348 C347 0.924 1_545 S
C349 N350 1.334 . S
C349 C351 1.386 1_455 S
C349 H353 0.930 . S
N350 Gd337 2.601 1_566 S
N350 C340 1.359 . S
N350 C349 1.334 . S
C351 C349 1.386 1_655 S
C351 C352 1.368 . S
C351 H363 0.931 . S
C352 C342 1.391 . S
C352 C351 1.368 . S
C352 H364 0.929 . S
H353 C349 0.930 . S
H354 C343 0.934 . S
H355 C372 0.930 . S
H356 C344 0.930 . S
H357 C345 0.930 . S
H358 C339 0.929 . S
H359 C377 0.930 . S
H360 C368 0.930 1_556 S
H361 C369 0.930 . S
H362 C393 0.929 . S
H363 C351 0.931 . S
H364 C352 0.929 . S
H365 C394 0.930 . S
H366 C375 0.930 . S
N367 Gd336 2.661 . S
N367 C371 1.350 . S
N367 C372 1.307 1_554 S
C368 H360 0.930 1_554 S
C368 C369 1.355 1_554 S
C368 C370 1.412 . S
C369 H361 0.930 . S
C369 C368 1.355 1_556 S
C369 C372 1.402 . S
C370 C368 1.412 . S
C370 C371 1.417 . S
C370 C394 1.431 . S
C371 N367 1.350 . S
C371 C370 1.417 . S
C371 C374 1.426 . S
C372 H355 0.930 . S
C372 N367 1.307 1_556 S
C372 C369 1.402 . S
N373 Gd336 2.601 . S
N373 C374 1.359 . S
N373 C377 1.334 . S
C374 C371 1.426 . S
C374 N373 1.359 . S
C374 C378 1.413 . S
C375 H366 0.930 . S
C375 C376 1.359 . S
C375 C377 1.394 . S
C376 C375 1.359 . S
C376 C378 1.391 . S
C376 H379 0.929 . S
C377 H359 0.930 . S
C377 N373 1.334 . S
C377 C375 1.394 . S
C378 C374 1.413 . S
C378 C376 1.391 . S
C378 C393 1.437 . S
H379 C376 0.929 . S
O380 Gd336 2.545 . S
O380 C395 1.258 . S
O381 Gd336 2.606 . S
O381 Gd337 2.362 . S
O381 C392 1.284 1_545 S
O382 Gd337 2.324 . S
O382 C402 1.254 . S
O383 Gd336 2.429 . S
O383 C402 1.268 . S
O384 Gd336 2.545 . S
O384 C392 1.250 1_545 S
O385 Gd336 2.412 . S
O385 C395 1.252 . S
O386 Gd337 2.545 1_656 S
O386 C404 1.258 . S
O387 Gd336 2.362 . S
O387 Gd337 2.606 . S
O387 C403 1.284 . S
O388 Gd336 2.324 1_556 S
O388 C411 1.254 . S
O389 Gd337 2.429 1_556 S
O389 C411 1.268 . S
O390 Gd337 2.545 . S
O390 C403 1.250 . S
O391 Gd337 2.412 1_655 S
O391 C404 1.252 1_554 S
C392 O381 1.284 1_565 S
C392 O384 1.250 1_565 S
C393 H362 0.929 . S
C393 C378 1.437 . S
C393 C394 1.317 . S
C394 H365 0.930 . S
C394 C370 1.431 . S
C394 C393 1.317 . S
C395 Gd336 2.828 . S
C395 O380 1.258 . S
C395 O385 1.252 . S
C395 C396 1.497 . S
C396 C395 1.497 . S
C396 C397 1.395 . S
C396 C398 1.380 . S
C397 C396 1.395 . S
C397 C400 1.398 . S
C397 H412 0.930 . S
C398 C396 1.380 . S
C398 C399 1.391 . S
C398 H413 0.930 . S
C399 C398 1.391 . S
C399 C401 1.387 . S
C400 C397 1.398 . S
C400 C401 1.380 . S
C400 H414 0.930 . S
C401 C399 1.387 . S
C401 C400 1.380 . S
C401 H415 0.930 . S
C402 O382 1.254 . S
C402 O383 1.268 . S
C403 O387 1.284 . S
C403 O390 1.250 . S
C404 Gd337 2.828 1_656 S
C404 O386 1.258 . S
C404 O391 1.252 1_556 S
C404 C405 1.497 . S
C405 C404 1.497 . S
C405 C406 1.395 . S
C405 C407 1.380 1_556 S
C406 C405 1.395 . S
C406 C409 1.398 . S
C406 H416 0.930 . S
C407 C405 1.380 1_554 S
C407 C408 1.393 . S
C407 H417 0.930 . S
C408 C407 1.393 . S
C408 C410 1.380 1_554 S
C409 C406 1.398 . S
C409 C410 1.380 . S
C409 H418 0.930 . S
C410 C408 1.380 1_556 S
C410 C409 1.380 . S
C410 H419 0.930 . S
C411 O388 1.254 . S
C411 O389 1.268 . S
H412 C397 0.930 . S
H413 C398 0.930 . S
H414 C400 0.930 . S
H415 C401 0.930 . S
H416 C406 0.930 . S
H417 C407 0.930 . S
H418 C409 0.930 . S
H419 C410 0.930 . S
Gd420 N451 2.661 . S
Gd420 N457 2.601 . S
Gd420 O464 2.545 . S
Gd420 O465 2.606 . S
Gd420 O467 2.429 . S
Gd420 O468 2.545 . S
Gd420 O469 2.412 . S
Gd420 O471 2.362 . S
Gd420 O472 2.324 . S
Gd420 C479 2.828 . S
Gd421 N430 2.661 . S
Gd421 N434 2.601 . S
Gd421 O465 2.362 . S
Gd421 O466 2.324 . S
Gd421 O470 2.545 . S
Gd421 O471 2.606 . S
Gd421 O473 2.429 . S
Gd421 O474 2.545 . S
Gd421 O475 2.412 . S
Gd421 C488 2.828 . S
C422 C425 1.417 . S
C422 C427 1.431 . S
C422 C428 1.412 . S
C423 C426 1.437 . S
C423 C427 1.317 . S
C423 H442 0.929 . S
C424 C425 1.426 . S
C424 C426 1.413 . S
C424 N434 1.359 . S
C425 C422 1.417 . S
C425 C424 1.426 . S
C425 N430 1.350 . S
C426 C423 1.437 . S
C426 C424 1.413 . S
C426 C436 1.391 . S
C427 C422 1.431 . S
C427 C423 1.317 . S
C427 H438 0.930 . S
C428 C422 1.412 . S
C428 C429 1.355 . S
C428 H440 0.930 . S
C429 C428 1.355 . S
C429 C431 1.402 . S
C429 H441 0.930 . S
N430 Gd421 2.661 . S
N430 C425 1.350 . S
N430 C431 1.307 . S
C431 C429 1.402 . S
C431 N430 1.307 . S
C431 H432 0.930 . S
H432 C431 0.930 . S
C433 N434 1.334 . S
C433 C435 1.394 . S
C433 H437 0.930 . S
N434 Gd421 2.601 . S
N434 C424 1.359 . S
N434 C433 1.334 . S
C435 C433 1.394 . S
C435 C436 1.359 . S
C435 H447 0.930 . S
C436 C426 1.391 . S
C436 C435 1.359 . S
C436 H448 0.929 . S
H437 C433 0.930 . S
H438 C427 0.930 . S
H439 C456 0.930 . S
H440 C428 0.930 . S
H441 C429 0.930 . S
H442 C423 0.929 . S
H443 C461 0.930 . S
H444 C452 0.930 . S
H445 C453 0.930 . S
H446 C477 0.929 . S
H447 C435 0.930 . S
H448 C436 0.929 . S
H449 C478 0.930 . S
H450 C459 0.930 . S
N451 Gd420 2.661 . S
N451 C455 1.350 . S
N451 C456 1.307 . S
C452 H444 0.930 . S
C452 C453 1.355 . S
C452 C454 1.412 . S
C453 H445 0.930 . S
C453 C452 1.355 . S
C453 C456 1.402 . S
C454 C452 1.412 . S
C454 C455 1.417 . S
C454 C478 1.431 . S
C455 N451 1.350 . S
C455 C454 1.417 . S
C455 C458 1.426 . S
C456 H439 0.930 . S
C456 N451 1.307 . S
C456 C453 1.402 . S
N457 Gd420 2.601 . S
N457 C458 1.359 . S
N457 C461 1.334 . S
C458 C455 1.426 . S
C458 N457 1.359 . S
C458 C462 1.413 . S
C459 H450 0.930 . S
C459 C460 1.359 . S
C459 C461 1.394 . S
C460 C459 1.359 . S
C460 C462 1.391 . S
C460 H463 0.929 . S
C461 H443 0.930 . S
C461 N457 1.334 . S
C461 C459 1.394 . S
C462 C458 1.413 . S
C462 C460 1.391 . S
C462 C477 1.437 . S
H463 C460 0.929 . S
O464 Gd420 2.545 . S
O464 C479 1.258 . S
O465 Gd420 2.606 . S
O465 Gd421 2.362 . S
O465 C476 1.284 . S
O466 Gd421 2.324 . S
O466 C486 1.254 . S
O467 Gd420 2.429 . S
O467 C486 1.268 . S
O468 Gd420 2.545 . S
O468 C476 1.250 . S
O469 Gd420 2.412 . S
O469 C479 1.252 . S
O470 Gd421 2.545 . S
O470 C488 1.258 . S
O471 Gd420 2.362 . S
O471 Gd421 2.606 . S
O471 C487 1.284 . S
O472 Gd420 2.324 . S
O472 C495 1.254 . S
O473 Gd421 2.429 . S
O473 C495 1.268 . S
O474 Gd421 2.545 . S
O474 C487 1.250 . S
O475 Gd421 2.412 . S
O475 C488 1.252 . S
C476 O465 1.284 . S
C476 O468 1.250 . S
C477 H446 0.929 . S
C477 C462 1.437 . S
C477 C478 1.317 . S
C478 H449 0.930 . S
C478 C454 1.431 . S
C478 C477 1.317 . S
C479 Gd420 2.828 . S
C479 O464 1.258 . S
C479 O469 1.252 . S
C479 C480 1.497 . S
C480 C479 1.497 . S
C480 C481 1.395 . S
C480 C482 1.380 . S
C481 C480 1.395 . S
C481 C484 1.398 . S
C481 H496 0.930 . S
C482 C480 1.380 . S
C482 C483 1.391 . S
C482 H497 0.930 . S
C483 C482 1.391 . S
C483 C485 1.387 . S
C484 C481 1.398 . S
C484 C485 1.380 . S
C484 H498 0.930 . S
C485 C483 1.387 . S
C485 C484 1.380 . S
C485 H499 0.930 . S
C486 O466 1.254 . S
C486 O467 1.268 . S
C487 O471 1.284 . S
C487 O474 1.250 . S
C488 Gd421 2.828 . S
C488 O470 1.258 . S
C488 O475 1.252 . S
C488 C489 1.497 . S
C489 C488 1.497 . S
C489 C490 1.395 . S
C489 C491 1.380 . S
C490 C489 1.395 . S
C490 C493 1.398 . S
C490 H500 0.930 . S
C491 C489 1.380 . S
C491 C492 1.391 . S
C491 H501 0.930 . S
C492 C491 1.391 . S
C492 C494 1.387 . S
C493 C490 1.398 . S
C493 C494 1.380 . S
C493 H502 0.930 . S
C494 C492 1.387 . S
C494 C493 1.380 . S
C494 H503 0.930 . S
C495 O472 1.254 . S
C495 O473 1.268 . S
H496 C481 0.930 . S
H497 C482 0.930 . S
H498 C484 0.930 . S
H499 C485 0.930 . S
H500 C490 0.930 . S
H501 C491 0.930 . S
H502 C493 0.930 . S
H503 C494 0.930 . S
Gd504 N535 2.661 1_545 S
Gd504 N541 2.601 . S
Gd504 O548 2.545 . S
Gd504 O549 2.606 . S
Gd504 O551 2.429 . S
Gd504 O552 2.545 . S
Gd504 O553 2.412 . S
Gd504 O555 2.362 . S
Gd504 O556 2.324 . S
Gd504 C563 2.828 . S
Gd505 N514 2.661 . S
Gd505 N518 2.601 . S
Gd505 O549 2.362 . S
Gd505 O550 2.324 . S
Gd505 O554 2.545 . S
Gd505 O555 2.606 . S
Gd505 O557 2.429 . S
Gd505 O558 2.545 1_545 S
Gd505 O559 2.412 . S
Gd505 C572 2.828 . S
C506 C509 1.417 . S
C506 C511 1.431 . S
C506 C512 1.412 . S
C507 C510 1.437 . S
C507 C511 1.317 . S
C507 H526 0.929 . S
C508 C509 1.426 . S
C508 C510 1.413 . S
C508 N518 1.359 . S
C509 C506 1.417 . S
C509 C508 1.426 . S
C509 N514 1.350 . S
C510 C507 1.437 . S
C510 C508 1.413 . S
C510 C520 1.391 . S
C511 C506 1.431 . S
C511 C507 1.317 . S
C511 H522 0.930 . S
C512 C506 1.412 . S
C512 C513 1.355 . S
C512 H524 0.930 . S
C513 C512 1.355 . S
C513 C515 1.402 . S
C513 H525 0.930 . S
N514 Gd505 2.661 . S
N514 C509 1.350 . S
N514 C515 1.307 . S
C515 C513 1.402 . S
C515 N514 1.307 . S
C515 H516 0.930 . S
H516 C515 0.930 . S
C517 N518 1.334 . S
C517 C519 1.394 . S
C517 H521 0.930 . S
N518 Gd505 2.601 . S
N518 C508 1.359 . S
N518 C517 1.334 . S
C519 C517 1.394 . S
C519 C520 1.359 . S
C519 H531 0.930 . S
C520 C510 1.391 . S
C520 C519 1.359 . S
C520 H532 0.929 . S
H521 C517 0.930 . S
H522 C511 0.930 . S
H523 C540 0.930 . S
H524 C512 0.930 . S
H525 C513 0.930 . S
H526 C507 0.929 . S
H527 C545 0.930 . S
H528 C536 0.930 . S
H529 C537 0.930 . S
H530 C561 0.929 . S
H531 C519 0.930 . S
H532 C520 0.929 . S
H533 C562 0.930 . S
H534 C543 0.930 1_545 S
N535 Gd504 2.661 1_565 S
N535 C539 1.350 . S
N535 C540 1.307 . S
C536 H528 0.930 . S
C536 C537 1.355 . S
C536 C538 1.412 . S
C537 H529 0.930 . S
C537 C536 1.355 . S
C537 C540 1.402 . S
C538 C536 1.412 . S
C538 C539 1.417 . S
C538 C562 1.431 . S
C539 N535 1.350 . S
C539 C538 1.417 . S
C539 C542 1.426 . S
C540 H523 0.930 . S
C540 N535 1.307 . S
C540 C537 1.402 . S
N541 Gd504 2.601 . S
N541 C542 1.359 1_545 S
N541 C545 1.334 . S
C542 C539 1.426 . S
C542 N541 1.359 1_565 S
C542 C546 1.413 . S
C543 H534 0.930 1_565 S
C543 C544 1.359 . S
C543 C545 1.394 1_565 S
C544 C543 1.359 . S
C544 C546 1.391 . S
C544 H547 0.929 . S
C545 H527 0.930 . S
C545 N541 1.334 . S
C545 C543 1.394 1_545 S
C546 C542 1.413 . S
C546 C544 1.391 . S
C546 C561 1.437 . S
H547 C544 0.929 . S
O548 Gd504 2.545 . S
O548 C563 1.258 . S
O549 Gd504 2.606 . S
O549 Gd505 2.362 . S
O549 C560 1.284 . S
O550 Gd505 2.324 . S
O550 C570 1.254 . S
O551 Gd504 2.429 . S
O551 C570 1.268 . S
O552 Gd504 2.545 . S
O552 C560 1.250 . S
O553 Gd504 2.412 . S
O553 C563 1.252 . S
O554 Gd505 2.545 . S
O554 C572 1.258 . S
O555 Gd504 2.362 . S
O555 Gd505 2.606 . S
O555 C571 1.284 1_545 S
O556 Gd504 2.324 . S
O556 C579 1.254 . S
O557 Gd505 2.429 . S
O557 C579 1.268 . S
O558 Gd505 2.545 1_565 S
O558 C571 1.250 . S
O559 Gd505 2.412 . S
O559 C572 1.252 . S
C560 O549 1.284 . S
C560 O552 1.250 . S
C561 H530 0.929 . S
C561 C546 1.437 . S
C561 C562 1.317 . S
C562 H533 0.930 . S
C562 C538 1.431 . S
C562 C561 1.317 . S
C563 Gd504 2.828 . S
C563 O548 1.258 . S
C563 O553 1.252 . S
C563 C564 1.497 . S
C564 C563 1.497 . S
C564 C565 1.395 . S
C564 C566 1.380 . S
C565 C564 1.395 . S
C565 C568 1.398 . S
C565 H580 0.930 . S
C566 C564 1.380 . S
C566 C567 1.391 . S
C566 H581 0.930 . S
C567 C566 1.391 . S
C567 C569 1.387 . S
C568 C565 1.398 . S
C568 C569 1.380 . S
C568 H582 0.930 . S
C569 C567 1.387 . S
C569 C568 1.380 . S
C569 H583 0.930 . S
C570 O550 1.254 . S
C570 O551 1.268 . S
C571 O555 1.284 1_565 S
C571 O558 1.250 . S
C572 Gd505 2.828 . S
C572 O554 1.258 . S
C572 O559 1.252 . S
C572 C573 1.497 . S
C573 C572 1.497 . S
C573 C574 1.395 . S
C573 C575 1.380 1_545 S
C574 C573 1.395 . S
C574 C577 1.398 1_545 S
C574 H584 0.930 . S
C575 C573 1.380 1_565 S
C575 C576 1.391 . S
C575 H585 0.930 . S
C576 C575 1.391 . S
C576 C578 1.387 . S
C577 C574 1.398 1_565 S
C577 C578 1.380 . S
C577 H586 0.930 . S
C578 C576 1.387 . S
C578 C577 1.380 . S
C578 H587 0.930 . S
C579 O556 1.254 . S
C579 O557 1.268 . S
H580 C565 0.930 . S
H581 C566 0.930 . S
H582 C568 0.930 . S
H583 C569 0.930 . S
H584 C574 0.930 . S
H585 C575 0.930 . S
H586 C577 0.930 . S
H587 C578 0.930 . S
Gd588 N619 2.661 . S
Gd588 N625 2.601 . S
Gd588 O632 2.545 . S
Gd588 O633 2.606 . S
Gd588 O635 2.429 . S
Gd588 O636 2.545 . S
Gd588 O637 2.412 . S
Gd588 O639 2.362 . S
Gd588 O640 2.324 . S
Gd588 C647 2.828 . S
Gd589 N598 2.661 . S
Gd589 N602 2.601 . S
Gd589 O633 2.362 . S
Gd589 O634 2.324 . S
Gd589 O638 2.545 . S
Gd589 O639 2.606 . S
Gd589 O641 2.429 . S
Gd589 O642 2.545 . S
Gd589 O643 2.412 . S
Gd589 C656 2.828 . S
C590 C593 1.417 . S
C590 C595 1.431 . S
C590 C596 1.412 . S
C591 C594 1.437 . S
C591 C595 1.317 . S
C591 H610 0.929 . S
C592 C593 1.426 . S
C592 C594 1.413 . S
C592 N602 1.359 . S
C593 C590 1.417 . S
C593 C592 1.426 . S
C593 N598 1.350 . S
C594 C591 1.437 . S
C594 C592 1.413 . S
C594 C604 1.391 . S
C595 C590 1.431 . S
C595 C591 1.317 . S
C595 H606 0.930 . S
C596 C590 1.412 . S
C596 C597 1.355 . S
C596 H608 0.930 . S
C597 C596 1.355 . S
C597 C599 1.402 . S
C597 H609 0.930 . S
N598 Gd589 2.661 . S
N598 C593 1.350 . S
N598 C599 1.307 . S
C599 C597 1.402 . S
C599 N598 1.307 . S
C599 H600 0.930 . S
H600 C599 0.930 . S
C601 N602 1.334 . S
C601 C603 1.394 . S
C601 H605 0.930 . S
N602 Gd589 2.601 . S
N602 C592 1.359 . S
N602 C601 1.334 . S
C603 C601 1.394 . S
C603 C604 1.359 . S
C603 H615 0.930 . S
C604 C594 1.391 . S
C604 C603 1.359 . S
C604 H616 0.929 . S
H605 C601 0.930 . S
H606 C595 0.930 . S
H607 C624 0.930 . S
H608 C596 0.930 . S
H609 C597 0.930 . S
H610 C591 0.929 . S
H611 C629 0.930 . S
H612 C620 0.930 . S
H613 C621 0.930 . S
H614 C645 0.929 . S
H615 C603 0.930 . S
H616 C604 0.929 . S
H617 C646 0.930 . S
H618 C627 0.930 . S
N619 Gd588 2.661 . S
N619 C623 1.350 . S
N619 C624 1.307 . S
C620 H612 0.930 . S
C620 C621 1.355 . S
C620 C622 1.412 . S
C621 H613 0.930 . S
C621 C620 1.355 . S
C621 C624 1.402 . S
C622 C620 1.412 . S
C622 C623 1.417 . S
C622 C646 1.431 . S
C623 N619 1.350 . S
C623 C622 1.417 . S
C623 C626 1.426 . S
C624 H607 0.930 . S
C624 N619 1.307 . S
C624 C621 1.402 . S
N625 Gd588 2.601 . S
N625 C626 1.359 . S
N625 C629 1.334 . S
C626 C623 1.426 . S
C626 N625 1.359 . S
C626 C630 1.413 . S
C627 H618 0.930 . S
C627 C628 1.359 . S
C627 C629 1.394 . S
C628 C627 1.359 . S
C628 C630 1.391 . S
C628 H631 0.929 . S
C629 H611 0.930 . S
C629 N625 1.334 . S
C629 C627 1.394 . S
C630 C626 1.413 . S
C630 C628 1.391 . S
C630 C645 1.437 . S
H631 C628 0.929 . S
O632 Gd588 2.545 . S
O632 C647 1.258 . S
O633 Gd588 2.606 . S
O633 Gd589 2.362 . S
O633 C644 1.284 . S
O634 Gd589 2.324 . S
O634 C654 1.254 . S
O635 Gd588 2.429 . S
O635 C654 1.268 . S
O636 Gd588 2.545 . S
O636 C644 1.250 . S
O637 Gd588 2.412 . S
O637 C647 1.252 . S
O638 Gd589 2.545 . S
O638 C656 1.258 . S
O639 Gd588 2.362 . S
O639 Gd589 2.606 . S
O639 C655 1.284 . S
O640 Gd588 2.324 . S
O640 C663 1.254 . S
O641 Gd589 2.429 . S
O641 C663 1.268 . S
O642 Gd589 2.545 . S
O642 C655 1.250 . S
O643 Gd589 2.412 . S
O643 C656 1.252 . S
C644 O633 1.284 . S
C644 O636 1.250 . S
C645 H614 0.929 . S
C645 C630 1.437 . S
C645 C646 1.317 . S
C646 H617 0.930 . S
C646 C622 1.431 . S
C646 C645 1.317 . S
C647 Gd588 2.828 . S
C647 O632 1.258 . S
C647 O637 1.252 . S
C647 C648 1.497 . S
C648 C647 1.497 . S
C648 C649 1.395 . S
C648 C650 1.380 . S
C649 C648 1.395 . S
C649 C652 1.398 . S
C649 H664 0.930 . S
C650 C648 1.380 . S
C650 C651 1.391 . S
C650 H665 0.930 . S
C651 C650 1.391 . S
C651 C653 1.387 . S
C652 C649 1.398 . S
C652 C653 1.380 . S
C652 H666 0.930 . S
C653 C651 1.387 . S
C653 C652 1.380 . S
C653 H667 0.930 . S
C654 O634 1.254 . S
C654 O635 1.268 . S
C655 O639 1.284 . S
C655 O642 1.250 . S
C656 Gd589 2.828 . S
C656 O638 1.258 . S
C656 O643 1.252 . S
C656 C657 1.497 . S
C657 C656 1.497 . S
C657 C658 1.395 . S
C657 C659 1.380 . S
C658 C657 1.395 . S
C658 C661 1.398 . S
C658 H668 0.930 . S
C659 C657 1.380 . S
C659 C660 1.391 . S
C659 H669 0.930 . S
C660 C659 1.391 . S
C660 C662 1.387 . S
C661 C658 1.398 . S
C661 C662 1.380 . S
C661 H670 0.930 . S
C662 C660 1.387 . S
C662 C661 1.380 . S
C662 H671 0.930 . S
C663 O640 1.254 . S
C663 O641 1.268 . S
H664 C649 0.930 . S
H665 C650 0.930 . S
H666 C652 0.930 . S
H667 C653 0.930 . S
H668 C658 0.930 . S
H669 C659 0.930 . S
H670 C661 0.930 . S
H671 C662 0.930 . S
Gd672 N703 2.661 1_545 S
Gd672 N709 2.601 1_545 S
Gd672 O716 2.545 1_545 S
Gd672 O717 2.606 . S
Gd672 O719 2.429 . S
Gd672 O720 2.545 . S
Gd672 O721 2.412 1_545 S
Gd672 O723 2.362 . S
Gd672 O724 2.317 . S
Gd672 C731 2.828 1_545 S
Gd673 N682 2.661 . S
Gd673 N686 2.601 . S
Gd673 O717 2.362 . S
Gd673 O718 2.324 . S
Gd673 O722 2.545 . S
Gd673 O723 2.606 . S
Gd673 O725 2.429 . S
Gd673 O726 2.545 . S
Gd673 O727 2.412 . S
Gd673 C740 2.828 . S
C674 C677 1.417 . S
C674 C679 1.431 . S
C674 C680 1.412 . S
C675 C678 1.437 . S
C675 C679 1.317 . S
C675 H694 0.929 . S
C676 C677 1.426 . S
C676 C678 1.413 . S
C676 N686 1.359 . S
C677 C674 1.417 . S
C677 C676 1.426 . S
C677 N682 1.350 . S
C678 C675 1.437 . S
C678 C676 1.413 . S
C678 C688 1.391 . S
C679 C674 1.431 . S
C679 C675 1.317 . S
C679 H690 0.930 . S
C680 C674 1.412 . S
C680 C681 1.355 . S
C680 H692 0.930 . S
C681 C680 1.355 . S
C681 C683 1.402 . S
C681 H693 0.930 . S
N682 Gd673 2.661 . S
N682 C677 1.350 . S
N682 C683 1.307 . S
C683 C681 1.402 . S
C683 N682 1.307 . S
C683 H684 0.930 . S
H684 C683 0.930 . S
C685 N686 1.334 . S
C685 C687 1.394 . S
C685 H689 0.930 . S
N686 Gd673 2.601 . S
N686 C676 1.359 . S
N686 C685 1.334 . S
C687 C685 1.394 . S
C687 C688 1.359 . S
C687 H699 0.930 1_455 S
C688 C678 1.391 . S
C688 C687 1.359 . S
C688 H700 0.929 . S
H689 C685 0.930 . S
H690 C679 0.930 . S
H691 C708 0.930 . S
H692 C680 0.930 . S
H693 C681 0.930 . S
H694 C675 0.929 . S
H695 C713 0.930 . S
H696 C704 0.930 1_655 S
H697 C705 0.975 . S
H698 C729 0.929 . S
H699 C687 0.930 1_655 S
H700 C688 0.929 . S
H701 C730 0.930 . S
H702 C711 0.930 . S
N703 Gd672 2.661 1_565 S
N703 C707 1.350 . S
N703 C708 1.307 . S
C704 H696 0.930 1_455 S
C704 C705 1.331 1_455 S
C704 C706 1.412 . S
C705 H697 0.975 . S
C705 C704 1.331 1_655 S
C705 C708 1.381 1_655 S
C706 C704 1.412 . S
C706 C707 1.417 . S
C706 C730 1.431 . S
C707 N703 1.350 . S
C707 C706 1.417 . S
C707 C710 1.426 . S
C708 H691 0.930 . S
C708 N703 1.307 . S
C708 C705 1.381 1_455 S
N709 Gd672 2.601 1_565 S
N709 C710 1.359 . S
N709 C713 1.334 . S
C710 C707 1.426 . S
C710 N709 1.359 . S
C710 C714 1.413 . S
C711 H702 0.930 . S
C711 C712 1.359 . S
C711 C713 1.394 . S
C712 C711 1.359 . S
C712 C714 1.391 . S
C712 H715 0.929 . S
C713 H695 0.930 . S
C713 N709 1.334 . S
C713 C711 1.394 . S
C714 C710 1.413 . S
C714 C712 1.391 . S
C714 C729 1.437 . S
H715 C712 0.929 . S
O716 Gd672 2.545 1_565 S
O716 C731 1.258 . S
O717 Gd672 2.606 . S
O717 Gd673 2.362 . S
O717 C728 1.284 . S
O718 Gd673 2.324 . S
O718 C738 1.254 . S
O719 Gd672 2.429 . S
O719 C738 1.268 . S
O720 Gd672 2.545 . S
O720 C728 1.250 . S
O721 Gd672 2.412 1_565 S
O721 C731 1.252 . S
O722 Gd673 2.545 . S
O722 C740 1.258 . S
O723 Gd672 2.362 . S
O723 Gd673 2.606 . S
O723 C739 1.284 . S
O724 Gd672 2.317 . S
O724 C747 1.280 . S
O725 Gd673 2.429 . S
O725 C747 1.268 . S
O726 Gd673 2.545 . S
O726 C739 1.250 . S
O727 Gd673 2.412 . S
O727 C740 1.252 . S
C728 O717 1.284 . S
C728 O720 1.250 . S
C729 H698 0.929 . S
C729 C714 1.437 . S
C729 C730 1.317 . S
C730 H701 0.930 . S
C730 C706 1.431 . S
C730 C729 1.317 . S
C731 Gd672 2.828 1_565 S
C731 O716 1.258 . S
C731 O721 1.252 . S
C731 C732 1.497 . S
C732 C731 1.497 . S
C732 C733 1.395 . S
C732 C734 1.380 . S
C733 C732 1.395 . S
C733 C736 1.398 . S
C733 H748 0.930 . S
C734 C732 1.380 . S
C734 C735 1.391 . S
C734 H749 0.930 . S
C735 C734 1.391 . S
C735 C737 1.387 . S
C736 C733 1.398 . S
C736 C737 1.380 . S
C736 H750 0.930 . S
C737 C735 1.387 . S
C737 C736 1.380 . S
C737 H751 0.930 . S
C738 O718 1.254 . S
C738 O719 1.268 . S
C739 O723 1.284 . S
C739 O726 1.250 . S
C740 Gd673 2.828 . S
C740 O722 1.258 . S
C740 O727 1.252 . S
C740 C741 1.497 . S
C741 C740 1.497 . S
C741 C742 1.395 . S
C741 C743 1.380 . S
C742 C741 1.395 . S
C742 C745 1.398 . S
C742 H752 0.930 . S
C743 C741 1.380 . S
C743 C744 1.391 . S
C743 H753 0.930 . S
C744 C743 1.391 . S
C744 C746 1.387 . S
C745 C742 1.398 . S
C745 C746 1.380 . S
C745 H754 0.930 . S
C746 C744 1.387 . S
C746 C745 1.380 . S
C746 H755 0.930 . S
C747 O724 1.280 . S
C747 O725 1.268 . S
H748 C733 0.930 . S
H749 C734 0.930 . S
H750 C736 0.930 . S
H751 C737 0.930 . S
H752 C742 0.930 . S
H753 C743 0.930 . S
H754 C745 0.930 . S
H755 C746 0.930 . S
Gd756 N787 2.661 . S
Gd756 N793 2.601 . S
Gd756 O800 2.545 . S
Gd756 O801 2.606 . S
Gd756 O803 2.429 . S
Gd756 O804 2.545 . S
Gd756 O805 2.412 . S
Gd756 O807 2.362 . S
Gd756 O808 2.324 . S
Gd756 C815 2.828 . S
Gd757 N766 2.661 . S
Gd757 N770 2.601 . S
Gd757 O801 2.362 . S
Gd757 O802 2.324 . S
Gd757 O806 2.545 . S
Gd757 O807 2.606 . S
Gd757 O809 2.429 . S
Gd757 O810 2.545 . S
Gd757 O811 2.412 . S
Gd757 C824 2.828 . S
C758 C761 1.417 . S
C758 C763 1.431 . S
C758 C764 1.412 . S
C759 C762 1.437 . S
C759 C763 1.317 . S
C759 H778 0.929 . S
C760 C761 1.426 . S
C760 C762 1.413 . S
C760 N770 1.359 . S
C761 C758 1.417 . S
C761 C760 1.426 . S
C761 N766 1.350 . S
C762 C759 1.437 . S
C762 C760 1.413 . S
C762 C772 1.391 . S
C763 C758 1.431 . S
C763 C759 1.317 . S
C763 H774 0.930 . S
C764 C758 1.412 . S
C764 C765 1.355 . S
C764 H776 0.930 . S
C765 C764 1.355 . S
C765 C767 1.402 . S
C765 H777 0.930 . S
N766 Gd757 2.661 . S
N766 C761 1.350 . S
N766 C767 1.307 . S
C767 C765 1.402 . S
C767 N766 1.307 . S
C767 H768 0.930 . S
H768 C767 0.930 . S
C769 N770 1.334 . S
C769 C771 1.394 . S
C769 H773 0.930 . S
N770 Gd757 2.601 . S
N770 C760 1.359 . S
N770 C769 1.334 . S
C771 C769 1.394 . S
C771 C772 1.359 . S
C771 H783 0.930 . S
C772 C762 1.391 . S
C772 C771 1.359 . S
C772 H784 0.929 . S
H773 C769 0.930 . S
H774 C763 0.930 . S
H775 C792 0.930 . S
H776 C764 0.930 . S
H777 C765 0.930 . S
H778 C759 0.929 . S
H779 C797 0.930 . S
H780 C788 0.930 . S
H781 C789 0.930 . S
H782 C813 0.929 . S
H783 C771 0.930 . S
H784 C772 0.929 . S
H785 C814 0.930 . S
H786 C795 0.930 . S
N787 Gd756 2.661 . S
N787 C791 1.350 . S
N787 C792 1.307 . S
C788 H780 0.930 . S
C788 C789 1.355 . S
C788 C790 1.412 . S
C789 H781 0.930 . S
C789 C788 1.355 . S
C789 C792 1.402 . S
C790 C788 1.412 . S
C790 C791 1.417 . S
C790 C814 1.431 . S
C791 N787 1.350 . S
C791 C790 1.417 . S
C791 C794 1.426 . S
C792 H775 0.930 . S
C792 N787 1.307 . S
C792 C789 1.402 . S
N793 Gd756 2.601 . S
N793 C794 1.359 . S
N793 C797 1.334 . S
C794 C791 1.426 . S
C794 N793 1.359 . S
C794 C798 1.413 . S
C795 H786 0.930 . S
C795 C796 1.359 . S
C795 C797 1.394 . S
C796 C795 1.359 . S
C796 C798 1.391 . S
C796 H799 0.929 . S
C797 H779 0.930 . S
C797 N793 1.334 . S
C797 C795 1.394 . S
C798 C794 1.413 . S
C798 C796 1.391 . S
C798 C813 1.437 . S
H799 C796 0.929 . S
O800 Gd756 2.545 . S
O800 C815 1.258 . S
O801 Gd756 2.606 . S
O801 Gd757 2.362 . S
O801 C812 1.284 . S
O802 Gd757 2.324 . S
O802 C822 1.254 . S
O803 Gd756 2.429 . S
O803 C822 1.268 . S
O804 Gd756 2.545 . S
O804 C812 1.250 . S
O805 Gd756 2.412 . S
O805 C815 1.252 . S
O806 Gd757 2.545 . S
O806 C824 1.258 . S
O807 Gd756 2.362 . S
O807 Gd757 2.606 . S
O807 C823 1.284 . S
O808 Gd756 2.324 . S
O808 C831 1.254 . S
O809 Gd757 2.429 . S
O809 C831 1.268 . S
O810 Gd757 2.545 . S
O810 C823 1.250 . S
O811 Gd757 2.412 . S
O811 C824 1.252 . S
C812 O801 1.284 . S
C812 O804 1.250 . S
C813 H782 0.929 . S
C813 C798 1.437 . S
C813 C814 1.317 . S
C814 H785 0.930 . S
C814 C790 1.431 . S
C814 C813 1.317 . S
C815 Gd756 2.828 . S
C815 O800 1.258 . S
C815 O805 1.252 . S
C815 C816 1.497 . S
C816 C815 1.497 . S
C816 C817 1.395 . S
C816 C818 1.380 . S
C817 C816 1.395 . S
C817 C820 1.398 . S
C817 H832 0.930 . S
C818 C816 1.380 . S
C818 C819 1.391 . S
C818 H833 0.930 . S
C819 C818 1.391 . S
C819 C821 1.387 . S
C820 C817 1.398 . S
C820 C821 1.380 . S
C820 H834 0.930 . S
C821 C819 1.387 . S
C821 C820 1.380 . S
C821 H835 0.930 . S
C822 O802 1.254 . S
C822 O803 1.268 . S
C823 O807 1.284 . S
C823 O810 1.250 . S
C824 Gd757 2.828 . S
C824 O806 1.258 . S
C824 O811 1.252 . S
C824 C825 1.497 . S
C825 C824 1.497 . S
C825 C826 1.395 . S
C825 C827 1.380 . S
C826 C825 1.395 . S
C826 C829 1.398 . S
C826 H836 0.930 . S
C827 C825 1.380 . S
C827 C828 1.391 . S
C827 H837 0.930 . S
C828 C827 1.391 . S
C828 C830 1.387 . S
C829 C826 1.398 . S
C829 C830 1.380 . S
C829 H838 0.930 . S
C830 C828 1.387 . S
C830 C829 1.380 . S
C830 H839 0.930 . S
C831 O808 1.254 . S
C831 O809 1.268 . S
H832 C817 0.930 . S
H833 C818 0.930 . S
H834 C820 0.930 . S
H835 C821 0.930 . S
H836 C826 0.930 . S
H837 C827 0.930 . S
H838 C829 0.930 . S
H839 C830 0.930 . S
Gd840 N871 2.661 . S
Gd840 N877 2.601 . S
Gd840 O884 2.545 . S
Gd840 O885 2.606 1_556 S
Gd840 O887 2.429 1_556 S
Gd840 O888 2.545 . S
Gd840 O889 2.412 . S
Gd840 O891 2.362 1_556 S
Gd840 O892 2.324 . S
Gd840 C899 2.828 . S
Gd841 N850 2.661 . S
Gd841 N854 2.601 . S
Gd841 O885 2.362 . S
Gd841 O886 2.324 . S
Gd841 O890 2.557 . S
Gd841 O891 2.606 . S
Gd841 O893 2.429 1_545 S
Gd841 O894 2.545 . S
Gd841 O895 2.412 . S
Gd841 C908 2.828 . S
C842 C845 1.417 . S
C842 C847 1.431 . S
C842 C848 1.412 . S
C843 C846 1.437 . S
C843 C847 1.317 . S
C843 H862 0.929 . S
C844 C845 1.426 . S
C844 C846 1.413 . S
C844 N854 1.359 . S
C845 C842 1.417 . S
C845 C844 1.426 . S
C845 N850 1.350 . S
C846 C843 1.437 . S
C846 C844 1.413 . S
C846 C856 1.391 1_545 S
C847 C842 1.431 . S
C847 C843 1.317 . S
C847 H858 0.930 . S
C848 C842 1.412 . S
C848 C849 1.355 . S
C848 H860 0.930 . S
C849 C848 1.355 . S
C849 C851 1.402 . S
C849 H861 0.930 . S
N850 Gd841 2.661 . S
N850 C845 1.350 . S
N850 C851 1.307 . S
C851 C849 1.402 . S
C851 N850 1.307 . S
C851 H852 0.930 . S
H852 C851 0.930 . S
C853 N854 1.334 1_565 S
C853 C855 1.394 . S
C853 H857 0.930 . S
N854 Gd841 2.601 . S
N854 C844 1.359 . S
N854 C853 1.334 1_545 S
C855 C853 1.394 . S
C855 C856 1.359 . S
C855 H867 0.930 . S
C856 C846 1.391 1_565 S
C856 C855 1.359 . S
C856 H868 0.929 . S
H857 C853 0.930 . S
H858 C847 0.930 . S
H859 C876 0.930 . S
H860 C848 0.930 . S
H861 C849 0.930 . S
H862 C843 0.929 . S
H863 C881 0.930 . S
H864 C872 0.930 . S
H865 C873 0.930 . S
H866 C897 0.929 . S
H867 C855 0.930 . S
H868 C856 0.929 . S
H869 C898 0.930 . S
H870 C879 0.930 . S
N871 Gd840 2.661 . S
N871 C875 1.350 . S
N871 C876 1.307 1_545 S
C872 H864 0.930 . S
C872 C873 1.355 . S
C872 C874 1.412 1_565 S
C873 H865 0.930 . S
C873 C872 1.355 . S
C873 C876 1.402 . S
C874 C872 1.412 1_545 S
C874 C875 1.417 . S
C874 C898 1.431 . S
C875 N871 1.350 . S
C875 C874 1.417 . S
C875 C878 1.426 . S
C876 H859 0.930 . S
C876 N871 1.307 1_565 S
C876 C873 1.402 . S
N877 Gd840 2.601 . S
N877 C878 1.359 . S
N877 C881 1.334 . S
C878 C875 1.426 . S
C878 N877 1.359 . S
C878 C882 1.413 . S
C879 H870 0.930 . S
C879 C880 1.359 . S
C879 C881 1.394 . S
C880 C879 1.359 . S
C880 C882 1.391 . S
C880 H883 0.929 . S
C881 H863 0.930 . S
C881 N877 1.334 . S
C881 C879 1.394 . S
C882 C878 1.413 . S
C882 C880 1.391 . S
C882 C897 1.437 . S
H883 C880 0.929 . S
O884 Gd840 2.545 . S
O884 C899 1.258 . S
O885 Gd840 2.606 1_554 S
O885 Gd841 2.362 . S
O885 C896 1.284 . S
O886 Gd841 2.324 . S
O886 C906 1.254 . S
O887 Gd840 2.429 1_554 S
O887 C906 1.268 . S
O888 Gd840 2.545 . S
O888 C896 1.250 1_556 S
O889 Gd840 2.412 . S
O889 C899 1.252 . S
O890 Gd841 2.557 . S
O890 C908 1.269 . S
O891 Gd840 2.362 1_554 S
O891 Gd841 2.606 . S
O891 C907 1.284 . S
O892 Gd840 2.324 . S
O892 C915 1.253 . S
O893 Gd841 2.429 1_565 S
O893 C915 1.268 1_564 S
O894 Gd841 2.545 . S
O894 C907 1.250 . S
O895 Gd841 2.412 . S
O895 C908 1.252 . S
C896 O885 1.284 . S
C896 O888 1.250 1_554 S
C897 H866 0.929 . S
C897 C882 1.437 . S
C897 C898 1.317 . S
C898 H869 0.930 . S
C898 C874 1.431 . S
C898 C897 1.317 . S
C899 Gd840 2.828 . S
C899 O884 1.258 . S
C899 O889 1.252 . S
C899 C900 1.497 . S
C900 C899 1.497 . S
C900 C901 1.395 . S
C900 C902 1.380 . S
C901 C900 1.395 . S
C901 C904 1.398 . S
C901 H916 0.930 . S
C902 C900 1.380 . S
C902 C903 1.391 . S
C902 H917 0.930 . S
C903 C902 1.391 . S
C903 C905 1.387 . S
C904 C901 1.398 . S
C904 C905 1.380 . S
C904 H918 0.930 . S
C905 C903 1.387 . S
C905 C904 1.380 . S
C905 H919 0.930 . S
C906 O886 1.254 . S
C906 O887 1.268 . S
C907 O891 1.284 . S
C907 O894 1.250 . S
C908 Gd841 2.828 . S
C908 O890 1.269 . S
C908 O895 1.252 . S
C908 C909 1.497 . S
C909 C908 1.497 . S
C909 C910 1.395 1_545 S
C909 C911 1.380 . S
C910 C909 1.395 1_565 S
C910 C913 1.398 . S
C910 H920 0.930 . S
C911 C909 1.380 . S
C911 C912 1.391 . S
C911 H921 0.930 . S
C912 C911 1.391 . S
C912 C914 1.347 1_545 S
C913 C910 1.398 . S
C913 C914 1.409 . S
C913 H922 0.930 . S
C914 C912 1.347 1_565 S
C914 C913 1.409 . S
C914 H923 0.944 . S
C915 O892 1.253 . S
C915 O893 1.268 1_546 S
H916 C901 0.930 . S
H917 C902 0.930 . S
H918 C904 0.930 . S
H919 C905 0.930 . S
H920 C910 0.930 . S
H921 C911 0.930 . S
H922 C913 0.930 . S
H923 C914 0.944 . S
Gd924 N955 2.661 . S
Gd924 N961 2.601 . S
Gd924 O968 2.545 . S
Gd924 O969 2.606 . S
Gd924 O971 2.429 . S
Gd924 O972 2.545 . S
Gd924 O973 2.412 . S
Gd924 O975 2.362 . S
Gd924 O976 2.324 . S
Gd924 C983 2.828 . S
Gd925 N934 2.661 . S
Gd925 N938 2.601 . S
Gd925 O969 2.362 . S
Gd925 O970 2.324 . S
Gd925 O974 2.545 . S
Gd925 O975 2.606 . S
Gd925 O977 2.429 . S
Gd925 O978 2.545 . S
Gd925 O979 2.412 . S
Gd925 C992 2.828 . S
C926 C929 1.417 . S
C926 C931 1.431 . S
C926 C932 1.412 . S
C927 C930 1.437 . S
C927 C931 1.317 . S
C927 H946 0.929 . S
C928 C929 1.426 . S
C928 C930 1.413 . S
C928 N938 1.359 . S
C929 C926 1.417 . S
C929 C928 1.426 . S
C929 N934 1.350 . S
C930 C927 1.437 . S
C930 C928 1.413 . S
C930 C940 1.391 . S
C931 C926 1.431 . S
C931 C927 1.317 . S
C931 H942 0.930 . S
C932 C926 1.412 . S
C932 C933 1.355 . S
C932 H944 0.930 . S
C933 C932 1.355 . S
C933 C935 1.402 . S
C933 H945 0.930 . S
N934 Gd925 2.661 . S
N934 C929 1.350 . S
N934 C935 1.307 . S
C935 C933 1.402 . S
C935 N934 1.307 . S
C935 H936 0.930 . S
H936 C935 0.930 . S
C937 N938 1.334 . S
C937 C939 1.394 . S
C937 H941 0.930 . S
N938 Gd925 2.601 . S
N938 C928 1.359 . S
N938 C937 1.334 . S
C939 C937 1.394 . S
C939 C940 1.359 . S
C939 H951 0.930 . S
C940 C930 1.391 . S
C940 C939 1.359 . S
C940 H952 0.929 . S
H941 C937 0.930 . S
H942 C931 0.930 . S
H943 C960 0.930 . S
H944 C932 0.930 . S
H945 C933 0.930 . S
H946 C927 0.929 . S
H947 C965 0.930 . S
H948 C956 0.930 . S
H949 C957 0.930 . S
H950 C981 0.929 . S
H951 C939 0.930 . S
H952 C940 0.929 . S
H953 C982 0.930 . S
H954 C963 0.930 . S
N955 Gd924 2.661 . S
N955 C959 1.350 . S
N955 C960 1.307 . S
C956 H948 0.930 . S
C956 C957 1.355 . S
C956 C958 1.412 . S
C957 H949 0.930 . S
C957 C956 1.355 . S
C957 C960 1.402 . S
C958 C956 1.412 . S
C958 C959 1.417 . S
C958 C982 1.431 . S
C959 N955 1.350 . S
C959 C958 1.417 . S
C959 C962 1.426 . S
C960 H943 0.930 . S
C960 N955 1.307 . S
C960 C957 1.402 . S
N961 Gd924 2.601 . S
N961 C962 1.359 . S
N961 C965 1.334 . S
C962 C959 1.426 . S
C962 N961 1.359 . S
C962 C966 1.413 . S
C963 H954 0.930 . S
C963 C964 1.359 . S
C963 C965 1.394 . S
C964 C963 1.359 . S
C964 C966 1.391 . S
C964 H967 0.929 . S
C965 H947 0.930 . S
C965 N961 1.334 . S
C965 C963 1.394 . S
C966 C962 1.413 . S
C966 C964 1.391 . S
C966 C981 1.437 . S
H967 C964 0.929 . S
O968 Gd924 2.545 . S
O968 C983 1.258 . S
O969 Gd924 2.606 . S
O969 Gd925 2.362 . S
O969 C980 1.284 . S
O970 Gd925 2.324 . S
O970 C990 1.254 . S
O971 Gd924 2.429 . S
O971 C990 1.268 . S
O972 Gd924 2.545 . S
O972 C980 1.250 . S
O973 Gd924 2.412 . S
O973 C983 1.252 . S
O974 Gd925 2.545 . S
O974 C992 1.258 . S
O975 Gd924 2.362 . S
O975 Gd925 2.606 . S
O975 C991 1.284 . S
O976 Gd924 2.324 . S
O976 C999 1.254 . S
O977 Gd925 2.429 . S
O977 C999 1.268 . S
O978 Gd925 2.545 . S
O978 C991 1.250 . S
O979 Gd925 2.412 . S
O979 C992 1.252 . S
C980 O969 1.284 . S
C980 O972 1.250 . S
C981 H950 0.929 . S
C981 C966 1.437 . S
C981 C982 1.317 . S
C982 H953 0.930 . S
C982 C958 1.431 . S
C982 C981 1.317 . S
C983 Gd924 2.828 . S
C983 O968 1.258 . S
C983 O973 1.252 . S
C983 C984 1.497 . S
C984 C983 1.497 . S
C984 C985 1.395 . S
C984 C986 1.380 . S
C985 C984 1.395 . S
C985 C988 1.398 . S
C985 H1000 0.930 . S
C986 C984 1.380 . S
C986 C987 1.391 . S
C986 H1001 0.930 . S
C987 C986 1.391 . S
C987 C989 1.387 . S
C988 C985 1.398 . S
C988 C989 1.380 . S
C988 H1002 0.930 . S
C989 C987 1.387 . S
C989 C988 1.380 . S
C989 H1003 0.930 . S
C990 O970 1.254 . S
C990 O971 1.268 . S
C991 O975 1.284 . S
C991 O978 1.250 . S
C992 Gd925 2.828 . S
C992 O974 1.258 . S
C992 O979 1.252 . S
C992 C993 1.497 . S
C993 C992 1.497 . S
C993 C994 1.395 . S
C993 C995 1.380 . S
C994 C993 1.395 . S
C994 C997 1.398 . S
C994 H1004 0.930 . S
C995 C993 1.380 . S
C995 C996 1.391 . S
C995 H1005 0.930 . S
C996 C995 1.391 . S
C996 C998 1.387 . S
C997 C994 1.398 . S
C997 C998 1.380 . S
C997 H1006 0.930 . S
C998 C996 1.387 . S
C998 C997 1.380 . S
C998 H1007 0.930 . S
C999 O976 1.254 . S
C999 O977 1.268 . S
H1000 C985 0.930 . S
H1001 C986 0.930 . S
H1002 C988 0.930 . S
H1003 C989 0.930 . S
H1004 C994 0.930 . S
H1005 C995 0.930 . S
H1006 C997 0.930 . S
H1007 C998 0.930 . S
Gd1008 N1039 2.661 1_554 S
Gd1008 N1045 2.601 1_554 S
Gd1008 O1052 2.545 . S
Gd1008 O1053 2.606 . S
Gd1008 O1055 2.429 . S
Gd1008 O1056 2.545 . S
Gd1008 O1057 2.412 . S
Gd1008 O1059 2.362 1_554 S
Gd1008 O1060 2.324 . S
Gd1008 C1067 2.828 . S
Gd1009 N1018 2.661 . S
Gd1009 N1022 2.601 . S
Gd1009 O1053 2.362 . S
Gd1009 O1054 2.324 . S
Gd1009 O1058 2.545 . S
Gd1009 O1059 2.606 1_554 S
Gd1009 O1061 2.429 . S
Gd1009 O1062 2.545 1_554 S
Gd1009 O1063 2.412 . S
Gd1009 C1076 2.828 . S
C1010 C1013 1.417 . S
C1010 C1015 1.431 . S
C1010 C1016 1.412 . S
C1011 C1014 1.437 . S
C1011 C1015 1.317 . S
C1011 H1030 0.929 . S
C1012 C1013 1.426 . S
C1012 C1014 1.413 . S
C1012 N1022 1.359 . S
C1013 C1010 1.417 . S
C1013 C1012 1.426 . S
C1013 N1018 1.350 . S
C1014 C1011 1.437 . S
C1014 C1012 1.413 . S
C1014 C1024 1.391 . S
C1015 C1010 1.431 . S
C1015 C1011 1.317 . S
C1015 H1026 0.930 . S
C1016 C1010 1.412 . S
C1016 C1017 1.355 . S
C1016 H1028 0.930 . S
C1017 C1016 1.355 . S
C1017 C1019 1.402 . S
C1017 H1029 0.930 . S
N1018 Gd1009 2.661 . S
N1018 C1013 1.350 . S
N1018 C1019 1.307 . S
C1019 C1017 1.402 . S
C1019 N1018 1.307 . S
C1019 H1020 0.930 . S
H1020 C1019 0.930 . S
C1021 N1022 1.334 . S
C1021 C1023 1.394 . S
C1021 H1025 0.930 . S
N1022 Gd1009 2.601 . S
N1022 C1012 1.359 . S
N1022 C1021 1.334 . S
C1023 C1021 1.394 . S
C1023 C1024 1.359 . S
C1023 H1035 0.930 . S
C1024 C1014 1.391 . S
C1024 C1023 1.359 . S
C1024 H1036 0.929 . S
H1025 C1021 0.930 . S
H1026 C1015 0.930 . S
H1027 C1044 0.930 . S
H1028 C1016 0.930 . S
H1029 C1017 0.930 . S
H1030 C1011 0.929 . S
H1031 C1049 0.930 . S
H1032 C1040 0.930 . S
H1033 C1041 0.930 . S
H1034 C1065 0.929 . S
H1035 C1023 0.930 . S
H1036 C1024 0.929 . S
H1037 C1066 0.930 . S
H1038 C1047 0.930 . S
N1039 Gd1008 2.661 1_556 S
N1039 C1043 1.350 . S
N1039 C1044 1.307 . S
C1040 H1032 0.930 . S
C1040 C1041 1.355 . S
C1040 C1042 1.412 . S
C1041 H1033 0.930 . S
C1041 C1040 1.355 . S
C1041 C1044 1.402 . S
C1042 C1040 1.412 . S
C1042 C1043 1.417 . S
C1042 C1066 1.431 . S
C1043 N1039 1.350 . S
C1043 C1042 1.417 . S
C1043 C1046 1.426 . S
C1044 H1027 0.930 . S
C1044 N1039 1.307 . S
C1044 C1041 1.402 . S
N1045 Gd1008 2.601 1_556 S
N1045 C1046 1.359 . S
N1045 C1049 1.334 . S
C1046 C1043 1.426 . S
C1046 N1045 1.359 . S
C1046 C1050 1.413 . S
C1047 H1038 0.930 . S
C1047 C1048 1.359 . S
C1047 C1049 1.394 . S
C1048 C1047 1.359 . S
C1048 C1050 1.391 . S
C1048 H1051 0.929 . S
C1049 H1031 0.930 . S
C1049 N1045 1.334 . S
C1049 C1047 1.394 . S
C1050 C1046 1.413 . S
C1050 C1048 1.391 . S
C1050 C1065 1.437 . S
H1051 C1048 0.929 . S
O1052 Gd1008 2.545 . S
O1052 C1067 1.258 . S
O1053 Gd1008 2.606 . S
O1053 Gd1009 2.362 . S
O1053 C1064 1.284 . S
O1054 Gd1009 2.324 . S
O1054 C1074 1.254 . S
O1055 Gd1008 2.429 . S
O1055 C1074 1.268 . S
O1056 Gd1008 2.545 . S
O1056 C1064 1.250 . S
O1057 Gd1008 2.412 . S
O1057 C1067 1.252 . S
O1058 Gd1009 2.545 . S
O1058 C1076 1.258 . S
O1059 Gd1008 2.362 1_556 S
O1059 Gd1009 2.606 1_556 S
O1059 C1075 1.284 . S
O1060 Gd1008 2.324 . S
O1060 C1083 1.254 . S
O1061 Gd1009 2.429 . S
O1061 C1083 1.268 . S
O1062 Gd1009 2.545 1_556 S
O1062 C1075 1.250 . S
O1063 Gd1009 2.412 . S
O1063 C1076 1.252 . S
C1064 O1053 1.284 . S
C1064 O1056 1.250 . S
C1065 H1034 0.929 . S
C1065 C1050 1.437 . S
C1065 C1066 1.317 . S
C1066 H1037 0.930 . S
C1066 C1042 1.431 . S
C1066 C1065 1.317 . S
C1067 Gd1008 2.828 . S
C1067 O1052 1.258 . S
C1067 O1057 1.252 . S
C1067 C1068 1.497 . S
C1068 C1067 1.497 . S
C1068 C1069 1.395 . S
C1068 C1070 1.380 . S
C1069 C1068 1.395 . S
C1069 C1072 1.398 . S
C1069 H1084 0.950 . S
C1070 C1068 1.380 . S
C1070 C1071 1.391 . S
C1070 H1085 0.930 . S
C1071 C1070 1.391 . S
C1071 C1073 1.387 . S
C1072 C1069 1.398 . S
C1072 C1073 1.380 . S
C1072 H1086 0.930 . S
C1073 C1071 1.387 . S
C1073 C1072 1.380 . S
C1073 H1087 0.930 . S
C1074 O1054 1.254 . S
C1074 O1055 1.268 . S
C1075 O1059 1.284 . S
C1075 O1062 1.250 . S
C1076 Gd1009 2.828 . S
C1076 O1058 1.258 . S
C1076 O1063 1.252 . S
C1076 C1077 1.497 . S
C1077 C1076 1.497 . S
C1077 C1078 1.395 . S
C1077 C1079 1.380 . S
C1078 C1077 1.395 . S
C1078 C1081 1.398 . S
C1078 H1088 0.930 . S
C1079 C1077 1.380 . S
C1079 C1080 1.391 1_554 S
C1079 H1089 0.930 1_554 S
C1080 C1079 1.391 1_556 S
C1080 C1082 1.387 1_556 S
C1081 C1078 1.398 . S
C1081 C1082 1.380 . S
C1081 H1090 0.930 . S
C1082 C1080 1.387 1_554 S
C1082 C1081 1.380 . S
C1082 H1091 0.924 1_554 S
C1083 O1060 1.254 . S
C1083 O1061 1.268 . S
H1084 C1069 0.950 . S
H1085 C1070 0.930 . S
H1086 C1072 0.930 . S
H1087 C1073 0.930 . S
H1088 C1078 0.930 . S
H1089 C1079 0.930 1_556 S
H1090 C1081 0.930 . S
H1091 C1082 0.924 1_556 S
Gd1092 N1123 2.661 . S
Gd1092 N1129 2.601 . S
Gd1092 O1136 2.545 . S
Gd1092 O1137 2.606 . S
Gd1092 O1139 2.429 . S
Gd1092 O1140 2.545 . S
Gd1092 O1141 2.412 . S
Gd1092 O1143 2.362 . S
Gd1092 O1144 2.324 . S
Gd1092 C1151 2.828 . S
Gd1093 N1102 2.661 . S
Gd1093 N1106 2.601 . S
Gd1093 O1137 2.362 . S
Gd1093 O1138 2.324 . S
Gd1093 O1142 2.545 . S
Gd1093 O1143 2.606 . S
Gd1093 O1145 2.429 . S
Gd1093 O1146 2.545 . S
Gd1093 O1147 2.412 . S
Gd1093 C1160 2.828 . S
C1094 C1097 1.417 . S
C1094 C1099 1.431 . S
C1094 C1100 1.412 . S
C1095 C1098 1.437 . S
C1095 C1099 1.317 . S
C1095 H1114 0.929 . S
C1096 C1097 1.426 . S
C1096 C1098 1.413 . S
C1096 N1106 1.359 . S
C1097 C1094 1.417 . S
C1097 C1096 1.426 . S
C1097 N1102 1.350 . S
C1098 C1095 1.437 . S
C1098 C1096 1.413 . S
C1098 C1108 1.391 . S
C1099 C1094 1.431 . S
C1099 C1095 1.317 . S
C1099 H1110 0.930 . S
C1100 C1094 1.412 . S
C1100 C1101 1.355 . S
C1100 H1112 0.930 . S
C1101 C1100 1.355 . S
C1101 C1103 1.402 . S
C1101 H1113 0.930 . S
N1102 Gd1093 2.661 . S
N1102 C1097 1.350 . S
N1102 C1103 1.307 . S
C1103 C1101 1.402 . S
C1103 N1102 1.307 . S
C1103 H1104 0.930 . S
H1104 C1103 0.930 . S
C1105 N1106 1.334 . S
C1105 C1107 1.394 . S
C1105 H1109 0.930 . S
N1106 Gd1093 2.601 . S
N1106 C1096 1.359 . S
N1106 C1105 1.334 . S
C1107 C1105 1.394 . S
C1107 C1108 1.359 . S
C1107 H1119 0.930 . S
C1108 C1098 1.391 . S
C1108 C1107 1.359 . S
C1108 H1120 0.929 . S
H1109 C1105 0.930 . S
H1110 C1099 0.930 . S
H1111 C1128 0.930 . S
H1112 C1100 0.930 . S
H1113 C1101 0.930 . S
H1114 C1095 0.929 . S
H1115 C1133 0.930 . S
H1116 C1124 0.930 . S
H1117 C1125 0.930 . S
H1118 C1149 0.929 . S
H1119 C1107 0.930 . S
H1120 C1108 0.929 . S
H1121 C1150 0.930 . S
H1122 C1131 0.930 . S
N1123 Gd1092 2.661 . S
N1123 C1127 1.350 . S
N1123 C1128 1.307 . S
C1124 H1116 0.930 . S
C1124 C1125 1.355 . S
C1124 C1126 1.412 . S
C1125 H1117 0.930 . S
C1125 C1124 1.355 . S
C1125 C1128 1.402 . S
C1126 C1124 1.412 . S
C1126 C1127 1.417 . S
C1126 C1150 1.431 . S
C1127 N1123 1.350 . S
C1127 C1126 1.417 . S
C1127 C1130 1.426 . S
C1128 H1111 0.930 . S
C1128 N1123 1.307 . S
C1128 C1125 1.402 . S
N1129 Gd1092 2.601 . S
N1129 C1130 1.359 . S
N1129 C1133 1.334 . S
C1130 C1127 1.426 . S
C1130 N1129 1.359 . S
C1130 C1134 1.413 . S
C1131 H1122 0.930 . S
C1131 C1132 1.359 . S
C1131 C1133 1.394 . S
C1132 C1131 1.359 . S
C1132 C1134 1.391 . S
C1132 H1135 0.929 . S
C1133 H1115 0.930 . S
C1133 N1129 1.334 . S
C1133 C1131 1.394 . S
C1134 C1130 1.413 . S
C1134 C1132 1.391 . S
C1134 C1149 1.437 . S
H1135 C1132 0.929 . S
O1136 Gd1092 2.545 . S
O1136 C1151 1.258 . S
O1137 Gd1092 2.606 . S
O1137 Gd1093 2.362 . S
O1137 C1148 1.284 . S
O1138 Gd1093 2.324 . S
O1138 C1158 1.254 . S
O1139 Gd1092 2.429 . S
O1139 C1158 1.268 . S
O1140 Gd1092 2.545 . S
O1140 C1148 1.250 . S
O1141 Gd1092 2.412 . S
O1141 C1151 1.252 . S
O1142 Gd1093 2.545 . S
O1142 C1160 1.258 . S
O1143 Gd1092 2.362 . S
O1143 Gd1093 2.606 . S
O1143 C1159 1.284 . S
O1144 Gd1092 2.324 . S
O1144 C1167 1.254 . S
O1145 Gd1093 2.429 . S
O1145 C1167 1.268 . S
O1146 Gd1093 2.545 . S
O1146 C1159 1.250 . S
O1147 Gd1093 2.412 . S
O1147 C1160 1.252 . S
C1148 O1137 1.284 . S
C1148 O1140 1.250 . S
C1149 H1118 0.929 . S
C1149 C1134 1.437 . S
C1149 C1150 1.317 . S
C1150 H1121 0.930 . S
C1150 C1126 1.431 . S
C1150 C1149 1.317 . S
C1151 Gd1092 2.828 . S
C1151 O1136 1.258 . S
C1151 O1141 1.252 . S
C1151 C1152 1.497 . S
C1152 C1151 1.497 . S
C1152 C1153 1.395 . S
C1152 C1154 1.380 . S
C1153 C1152 1.395 . S
C1153 C1156 1.398 . S
C1153 H1168 0.930 . S
C1154 C1152 1.380 . S
C1154 C1155 1.391 . S
C1154 H1169 0.930 . S
C1155 C1154 1.391 . S
C1155 C1157 1.387 . S
C1156 C1153 1.398 . S
C1156 C1157 1.380 . S
C1156 H1170 0.930 . S
C1157 C1155 1.387 . S
C1157 C1156 1.380 . S
C1157 H1171 0.930 . S
C1158 O1138 1.254 . S
C1158 O1139 1.268 . S
C1159 O1143 1.284 . S
C1159 O1146 1.250 . S
C1160 Gd1093 2.828 . S
C1160 O1142 1.258 . S
C1160 O1147 1.252 . S
C1160 C1161 1.497 . S
C1161 C1160 1.497 . S
C1161 C1162 1.395 . S
C1161 C1163 1.380 . S
C1162 C1161 1.395 . S
C1162 C1165 1.398 . S
C1162 H1172 0.930 . S
C1163 C1161 1.380 . S
C1163 C1164 1.391 . S
C1163 H1173 0.930 . S
C1164 C1163 1.391 . S
C1164 C1166 1.387 . S
C1165 C1162 1.398 . S
C1165 C1166 1.380 . S
C1165 H1174 0.930 . S
C1166 C1164 1.387 . S
C1166 C1165 1.380 . S
C1166 H1175 0.930 . S
C1167 O1144 1.254 . S
C1167 O1145 1.268 . S
H1168 C1153 0.930 . S
H1169 C1154 0.930 . S
H1170 C1156 0.930 . S
H1171 C1157 0.930 . S
H1172 C1162 0.930 . S
H1173 C1163 0.930 . S
H1174 C1165 0.930 . S
H1175 C1166 0.930 . S
Gd1176 N1207 2.661 . S
Gd1176 N1213 2.601 . S
Gd1176 O1220 2.545 . S
Gd1176 O1221 2.606 . S
Gd1176 O1223 2.429 . S
Gd1176 O1224 2.545 . S
Gd1176 O1225 2.412 . S
Gd1176 O1227 2.362 . S
Gd1176 O1228 2.324 . S
Gd1176 C1235 2.828 . S
Gd1177 N1186 2.661 . S
Gd1177 N1190 2.601 . S
Gd1177 O1221 2.362 . S
Gd1177 O1222 2.324 . S
Gd1177 O1226 2.545 . S
Gd1177 O1227 2.606 . S
Gd1177 O1229 2.429 . S
Gd1177 O1230 2.545 . S
Gd1177 O1231 2.412 . S
Gd1177 C1244 2.828 . S
C1178 C1181 1.417 . S
C1178 C1183 1.431 . S
C1178 C1184 1.412 . S
C1179 C1182 1.437 . S
C1179 C1183 1.317 . S
C1179 H1198 0.929 . S
C1180 C1181 1.426 . S
C1180 C1182 1.413 . S
C1180 N1190 1.359 . S
C1181 C1178 1.417 . S
C1181 C1180 1.426 . S
C1181 N1186 1.350 . S
C1182 C1179 1.437 . S
C1182 C1180 1.413 . S
C1182 C1192 1.391 . S
C1183 C1178 1.431 . S
C1183 C1179 1.317 . S
C1183 H1194 0.930 . S
C1184 C1178 1.412 . S
C1184 C1185 1.355 . S
C1184 H1196 0.930 . S
C1185 C1184 1.355 . S
C1185 C1187 1.402 . S
C1185 H1197 0.930 . S
N1186 Gd1177 2.661 . S
N1186 C1181 1.350 . S
N1186 C1187 1.307 . S
C1187 C1185 1.402 . S
C1187 N1186 1.307 . S
C1187 H1188 0.930 . S
H1188 C1187 0.930 . S
C1189 N1190 1.334 . S
C1189 C1191 1.394 . S
C1189 H1193 0.930 . S
N1190 Gd1177 2.601 . S
N1190 C1180 1.359 . S
N1190 C1189 1.334 . S
C1191 C1189 1.394 . S
C1191 C1192 1.359 . S
C1191 H1203 0.930 . S
C1192 C1182 1.391 . S
C1192 C1191 1.359 . S
C1192 H1204 0.929 . S
H1193 C1189 0.930 . S
H1194 C1183 0.930 . S
H1195 C1212 0.930 . S
H1196 C1184 0.930 . S
H1197 C1185 0.930 . S
H1198 C1179 0.929 . S
H1199 C1217 0.930 . S
H1200 C1208 0.930 . S
H1201 C1209 0.930 . S
H1202 C1233 0.929 . S
H1203 C1191 0.930 . S
H1204 C1192 0.929 . S
H1205 C1234 0.930 . S
H1206 C1215 0.930 . S
N1207 Gd1176 2.661 . S
N1207 C1211 1.350 1_455 S
N1207 C1212 1.307 . S
C1208 H1200 0.930 . S
C1208 C1209 1.355 . S
C1208 C1210 1.412 . S
C1209 H1201 0.930 . S
C1209 C1208 1.355 . S
C1209 C1212 1.402 1_655 S
C1210 C1208 1.412 . S
C1210 C1211 1.417 . S
C1210 C1234 1.431 . S
C1211 N1207 1.350 1_655 S
C1211 C1210 1.417 . S
C1211 C1214 1.428 1_655 S
C1212 H1195 0.930 . S
C1212 N1207 1.307 . S
C1212 C1209 1.402 1_455 S
N1213 Gd1176 2.601 . S
N1213 C1214 1.366 . S
N1213 C1217 1.334 . S
C1214 C1211 1.428 1_455 S
C1214 N1213 1.366 . S
C1214 C1218 1.405 1_455 S
C1215 H1206 0.930 . S
C1215 C1216 1.359 1_455 S
C1215 C1217 1.394 . S
C1216 C1215 1.359 1_655 S
C1216 C1218 1.391 . S
C1216 H1219 0.929 . S
C1217 H1199 0.930 . S
C1217 N1213 1.334 . S
C1217 C1215 1.394 . S
C1218 C1214 1.405 1_655 S
C1218 C1216 1.391 . S
C1218 C1233 1.437 . S
H1219 C1216 0.929 . S
O1220 Gd1176 2.545 . S
O1220 C1235 1.258 . S
O1221 Gd1176 2.606 . S
O1221 Gd1177 2.362 . S
O1221 C1232 1.284 . S
O1222 Gd1177 2.324 . S
O1222 C1242 1.254 . S
O1223 Gd1176 2.429 . S
O1223 C1242 1.268 . S
O1224 Gd1176 2.545 . S
O1224 C1232 1.250 . S
O1225 Gd1176 2.412 . S
O1225 C1235 1.252 . S
O1226 Gd1177 2.545 . S
O1226 C1244 1.258 . S
O1227 Gd1176 2.362 . S
O1227 Gd1177 2.606 . S
O1227 C1243 1.284 . S
O1228 Gd1176 2.324 . S
O1228 C1251 1.254 . S
O1229 Gd1177 2.429 . S
O1229 C1251 1.268 . S
O1230 Gd1177 2.545 . S
O1230 C1243 1.250 . S
O1231 Gd1177 2.412 . S
O1231 C1244 1.252 . S
C1232 O1221 1.284 . S
C1232 O1224 1.250 . S
C1233 H1202 0.929 . S
C1233 C1218 1.437 . S
C1233 C1234 1.317 . S
C1234 H1205 0.930 . S
C1234 C1210 1.431 . S
C1234 C1233 1.317 . S
C1235 Gd1176 2.828 . S
C1235 O1220 1.258 . S
C1235 O1225 1.252 . S
C1235 C1236 1.497 . S
C1236 C1235 1.497 . S
C1236 C1237 1.395 . S
C1236 C1238 1.380 . S
C1237 C1236 1.395 . S
C1237 C1240 1.398 . S
C1237 H1252 0.930 . S
C1238 C1236 1.380 . S
C1238 C1239 1.391 . S
C1238 H1253 0.930 . S
C1239 C1238 1.391 . S
C1239 C1241 1.387 . S
C1240 C1237 1.398 . S
C1240 C1241 1.380 . S
C1240 H1254 0.930 . S
C1241 C1239 1.387 . S
C1241 C1240 1.380 . S
C1241 H1255 0.930 . S
C1242 O1222 1.254 . S
C1242 O1223 1.268 . S
C1243 O1227 1.284 . S
C1243 O1230 1.250 . S
C1244 Gd1177 2.828 . S
C1244 O1226 1.258 . S
C1244 O1231 1.252 . S
C1244 C1245 1.497 . S
C1245 C1244 1.497 . S
C1245 C1246 1.395 . S
C1245 C1247 1.380 . S
C1246 C1245 1.395 . S
C1246 C1249 1.398 . S
C1246 H1256 0.930 . S
C1247 C1245 1.380 . S
C1247 C1248 1.391 . S
C1247 H1257 0.930 . S
C1248 C1247 1.391 . S
C1248 C1250 1.387 . S
C1249 C1246 1.398 . S
C1249 C1250 1.380 . S
C1249 H1258 0.930 . S
C1250 C1248 1.387 . S
C1250 C1249 1.380 . S
C1250 H1259 0.930 . S
C1251 O1228 1.254 . S
C1251 O1229 1.268 . S
H1252 C1237 0.930 . S
H1253 C1238 0.930 . S
H1254 C1240 0.930 . S
H1255 C1241 0.930 . S
H1256 C1246 0.930 . S
H1257 C1247 0.930 . S
H1258 C1249 0.930 . S
H1259 C1250 0.930 . S
Gd1260 N1291 2.661 . S
Gd1260 N1297 2.601 . S
Gd1260 O1304 2.545 . S
Gd1260 O1305 2.606 . S
Gd1260 O1307 2.429 . S
Gd1260 O1308 2.545 . S
Gd1260 O1309 2.412 . S
Gd1260 O1311 2.362 . S
Gd1260 O1312 2.324 . S
Gd1260 C1319 2.828 . S
Gd1261 N1270 2.661 . S
Gd1261 N1274 2.601 . S
Gd1261 O1305 2.362 . S
Gd1261 O1306 2.324 . S
Gd1261 O1310 2.545 . S
Gd1261 O1311 2.606 . S
Gd1261 O1313 2.429 . S
Gd1261 O1314 2.545 . S
Gd1261 O1315 2.412 . S
Gd1261 C1328 2.828 . S
C1262 C1265 1.417 . S
C1262 C1267 1.431 . S
C1262 C1268 1.412 . S
C1263 C1266 1.437 . S
C1263 C1267 1.317 . S
C1263 H1282 0.929 . S
C1264 C1265 1.426 . S
C1264 C1266 1.413 . S
C1264 N1274 1.359 . S
C1265 C1262 1.417 . S
C1265 C1264 1.426 . S
C1265 N1270 1.350 . S
C1266 C1263 1.437 . S
C1266 C1264 1.413 . S
C1266 C1276 1.391 . S
C1267 C1262 1.431 . S
C1267 C1263 1.317 . S
C1267 H1278 0.930 . S
C1268 C1262 1.412 . S
C1268 C1269 1.355 . S
C1268 H1280 0.930 . S
C1269 C1268 1.355 . S
C1269 C1271 1.402 . S
C1269 H1281 0.930 . S
N1270 Gd1261 2.661 . S
N1270 C1265 1.350 . S
N1270 C1271 1.307 . S
C1271 C1269 1.402 . S
C1271 N1270 1.307 . S
C1271 H1272 0.930 . S
H1272 C1271 0.930 . S
C1273 N1274 1.334 . S
C1273 C1275 1.394 . S
C1273 H1277 0.930 . S
N1274 Gd1261 2.601 . S
N1274 C1264 1.359 . S
N1274 C1273 1.334 . S
C1275 C1273 1.394 . S
C1275 C1276 1.359 . S
C1275 H1287 0.930 . S
C1276 C1266 1.391 . S
C1276 C1275 1.359 . S
C1276 H1288 0.929 . S
H1277 C1273 0.930 . S
H1278 C1267 0.930 . S
H1279 C1296 0.930 . S
H1280 C1268 0.930 . S
H1281 C1269 0.930 . S
H1282 C1263 0.929 . S
H1283 C1301 0.930 . S
H1284 C1292 0.930 . S
H1285 C1293 0.930 . S
H1286 C1317 0.929 . S
H1287 C1275 0.930 . S
H1288 C1276 0.929 . S
H1289 C1318 0.930 . S
H1290 C1299 0.930 . S
N1291 Gd1260 2.661 . S
N1291 C1295 1.350 . S
N1291 C1296 1.307 . S
C1292 H1284 0.930 . S
C1292 C1293 1.355 . S
C1292 C1294 1.412 . S
C1293 H1285 0.930 . S
C1293 C1292 1.355 . S
C1293 C1296 1.402 . S
C1294 C1292 1.412 . S
C1294 C1295 1.417 . S
C1294 C1318 1.431 . S
C1295 N1291 1.350 . S
C1295 C1294 1.417 . S
C1295 C1298 1.426 . S
C1296 H1279 0.930 . S
C1296 N1291 1.307 . S
C1296 C1293 1.402 . S
N1297 Gd1260 2.601 . S
N1297 C1298 1.359 . S
N1297 C1301 1.334 . S
C1298 C1295 1.426 . S
C1298 N1297 1.359 . S
C1298 C1302 1.413 . S
C1299 H1290 0.930 . S
C1299 C1300 1.359 . S
C1299 C1301 1.394 . S
C1300 C1299 1.359 . S
C1300 C1302 1.391 . S
C1300 H1303 0.929 . S
C1301 H1283 0.930 . S
C1301 N1297 1.334 . S
C1301 C1299 1.394 . S
C1302 C1298 1.413 . S
C1302 C1300 1.391 . S
C1302 C1317 1.437 . S
H1303 C1300 0.929 . S
O1304 Gd1260 2.545 . S
O1304 C1319 1.258 . S
O1305 Gd1260 2.606 . S
O1305 Gd1261 2.362 . S
O1305 C1316 1.284 . S
O1306 Gd1261 2.324 . S
O1306 C1326 1.254 . S
O1307 Gd1260 2.429 . S
O1307 C1326 1.268 . S
O1308 Gd1260 2.545 . S
O1308 C1316 1.250 . S
O1309 Gd1260 2.412 . S
O1309 C1319 1.252 . S
O1310 Gd1261 2.545 . S
O1310 C1328 1.258 . S
O1311 Gd1260 2.362 . S
O1311 Gd1261 2.606 . S
O1311 C1327 1.284 . S
O1312 Gd1260 2.324 . S
O1312 C1335 1.254 . S
O1313 Gd1261 2.429 . S
O1313 C1335 1.268 . S
O1314 Gd1261 2.545 . S
O1314 C1327 1.250 . S
O1315 Gd1261 2.412 . S
O1315 C1328 1.252 . S
C1316 O1305 1.284 . S
C1316 O1308 1.250 . S
C1317 H1286 0.929 . S
C1317 C1302 1.437 . S
C1317 C1318 1.317 . S
C1318 H1289 0.930 . S
C1318 C1294 1.431 . S
C1318 C1317 1.317 . S
C1319 Gd1260 2.828 . S
C1319 O1304 1.258 . S
C1319 O1309 1.252 . S
C1319 C1320 1.497 . S
C1320 C1319 1.497 . S
C1320 C1321 1.395 . S
C1320 C1322 1.380 . S
C1321 C1320 1.395 . S
C1321 C1324 1.398 . S
C1321 H1336 0.930 . S
C1322 C1320 1.380 . S
C1322 C1323 1.391 . S
C1322 H1337 0.930 . S
C1323 C1322 1.391 . S
C1323 C1325 1.387 . S
C1324 C1321 1.398 . S
C1324 C1325 1.380 . S
C1324 H1338 0.930 . S
C1325 C1323 1.387 . S
C1325 C1324 1.380 . S
C1325 H1339 0.930 . S
C1326 O1306 1.254 . S
C1326 O1307 1.268 . S
C1327 O1311 1.284 . S
C1327 O1314 1.250 . S
C1328 Gd1261 2.828 . S
C1328 O1310 1.258 . S
C1328 O1315 1.252 . S
C1328 C1329 1.497 . S
C1329 C1328 1.497 . S
C1329 C1330 1.395 . S
C1329 C1331 1.380 . S
C1330 C1329 1.395 . S
C1330 C1333 1.398 . S
C1330 H1340 0.930 . S
C1331 C1329 1.380 . S
C1331 C1332 1.391 . S
C1331 H1341 0.930 . S
C1332 C1331 1.391 . S
C1332 C1334 1.387 . S
C1333 C1330 1.398 . S
C1333 C1334 1.380 . S
C1333 H1342 0.930 . S
C1334 C1332 1.387 . S
C1334 C1333 1.380 . S
C1334 H1343 0.930 . S
C1335 O1312 1.254 . S
C1335 O1313 1.268 . S
H1336 C1321 0.930 . S
H1337 C1322 0.930 . S
H1338 C1324 0.930 . S
H1339 C1325 0.930 . S
H1340 C1330 0.930 . S
H1341 C1331 0.930 . S
H1342 C1333 0.930 . S
H1343 C1334 0.930 . S
Gd1344 N1375 2.661 . S
Gd1344 N1381 2.601 . S
Gd1344 O1388 2.545 . S
Gd1344 O1389 2.606 . S
Gd1344 O1391 2.429 . S
Gd1344 O1392 2.545 . S
Gd1344 O1393 2.412 . S
Gd1344 O1395 2.362 . S
Gd1344 O1396 2.324 . S
Gd1344 C1403 2.828 . S
Gd1345 N1354 2.661 . S
Gd1345 N1358 2.601 . S
Gd1345 O1389 2.362 . S
Gd1345 O1390 2.324 . S
Gd1345 O1394 2.545 . S
Gd1345 O1395 2.606 . S
Gd1345 O1397 2.429 . S
Gd1345 O1398 2.545 . S
Gd1345 O1399 2.412 . S
Gd1345 C1412 2.828 . S
C1346 C1349 1.417 . S
C1346 C1351 1.431 . S
C1346 C1352 1.412 . S
C1347 C1350 1.437 . S
C1347 C1351 1.317 . S
C1347 H1366 0.929 . S
C1348 C1349 1.426 . S
C1348 C1350 1.413 . S
C1348 N1358 1.359 . S
C1349 C1346 1.417 . S
C1349 C1348 1.426 . S
C1349 N1354 1.350 . S
C1350 C1347 1.437 . S
C1350 C1348 1.413 . S
C1350 C1360 1.391 . S
C1351 C1346 1.431 . S
C1351 C1347 1.317 . S
C1351 H1362 0.930 . S
C1352 C1346 1.412 . S
C1352 C1353 1.355 . S
C1352 H1364 0.930 . S
C1353 C1352 1.355 . S
C1353 C1355 1.402 . S
C1353 H1365 0.930 . S
N1354 Gd1345 2.661 . S
N1354 C1349 1.350 . S
N1354 C1355 1.307 . S
C1355 C1353 1.402 . S
C1355 N1354 1.307 . S
C1355 H1356 0.930 . S
H1356 C1355 0.930 . S
C1357 N1358 1.334 . S
C1357 C1359 1.394 . S
C1357 H1361 0.930 . S
N1358 Gd1345 2.601 . S
N1358 C1348 1.359 . S
N1358 C1357 1.334 . S
C1359 C1357 1.394 . S
C1359 C1360 1.359 . S
C1359 H1371 0.930 . S
C1360 C1350 1.391 . S
C1360 C1359 1.359 . S
C1360 H1372 0.929 . S
H1361 C1357 0.930 . S
H1362 C1351 0.930 . S
H1363 C1380 0.930 . S
H1364 C1352 0.930 . S
H1365 C1353 0.930 . S
H1366 C1347 0.929 . S
H1367 C1385 0.930 . S
H1368 C1376 0.930 . S
H1369 C1377 0.930 . S
H1370 C1401 0.929 . S
H1371 C1359 0.930 . S
H1372 C1360 0.929 . S
H1373 C1402 0.930 . S
H1374 C1383 0.930 . S
N1375 Gd1344 2.661 . S
N1375 C1379 1.350 . S
N1375 C1380 1.307 . S
C1376 H1368 0.930 . S
C1376 C1377 1.355 . S
C1376 C1378 1.412 . S
C1377 H1369 0.930 . S
C1377 C1376 1.355 . S
C1377 C1380 1.402 . S
C1378 C1376 1.412 . S
C1378 C1379 1.417 . S
C1378 C1402 1.431 . S
C1379 N1375 1.350 . S
C1379 C1378 1.417 . S
C1379 C1382 1.426 . S
C1380 H1363 0.930 . S
C1380 N1375 1.307 . S
C1380 C1377 1.402 . S
N1381 Gd1344 2.601 . S
N1381 C1382 1.359 . S
N1381 C1385 1.334 . S
C1382 C1379 1.426 . S
C1382 N1381 1.359 . S
C1382 C1386 1.413 . S
C1383 H1374 0.930 . S
C1383 C1384 1.359 . S
C1383 C1385 1.394 . S
C1384 C1383 1.359 . S
C1384 C1386 1.391 . S
C1384 H1387 0.929 . S
C1385 H1367 0.930 . S
C1385 N1381 1.334 . S
C1385 C1383 1.394 . S
C1386 C1382 1.413 . S
C1386 C1384 1.391 . S
C1386 C1401 1.437 . S
H1387 C1384 0.929 . S
O1388 Gd1344 2.545 . S
O1388 C1403 1.258 . S
O1389 Gd1344 2.606 . S
O1389 Gd1345 2.362 . S
O1389 C1400 1.284 . S
O1390 Gd1345 2.324 . S
O1390 C1410 1.254 . S
O1391 Gd1344 2.429 . S
O1391 C1410 1.268 . S
O1392 Gd1344 2.545 . S
O1392 C1400 1.250 . S
O1393 Gd1344 2.412 . S
O1393 C1403 1.252 . S
O1394 Gd1345 2.545 . S
O1394 C1412 1.258 . S
O1395 Gd1344 2.362 . S
O1395 Gd1345 2.606 . S
O1395 C1411 1.284 . S
O1396 Gd1344 2.324 . S
O1396 C1419 1.254 . S
O1397 Gd1345 2.429 . S
O1397 C1419 1.268 . S
O1398 Gd1345 2.545 . S
O1398 C1411 1.250 . S
O1399 Gd1345 2.412 . S
O1399 C1412 1.252 . S
C1400 O1389 1.284 . S
C1400 O1392 1.250 . S
C1401 H1370 0.929 . S
C1401 C1386 1.437 . S
C1401 C1402 1.317 . S
C1402 H1373 0.930 . S
C1402 C1378 1.431 . S
C1402 C1401 1.317 . S
C1403 Gd1344 2.828 . S
C1403 O1388 1.258 . S
C1403 O1393 1.252 . S
C1403 C1404 1.497 . S
C1404 C1403 1.497 . S
C1404 C1405 1.395 . S
C1404 C1406 1.380 . S
C1405 C1404 1.395 . S
C1405 C1408 1.398 . S
C1405 H1420 0.930 . S
C1406 C1404 1.380 . S
C1406 C1407 1.391 . S
C1406 H1421 0.930 . S
C1407 C1406 1.391 . S
C1407 C1409 1.387 . S
C1408 C1405 1.398 . S
C1408 C1409 1.380 . S
C1408 H1422 0.930 . S
C1409 C1407 1.387 . S
C1409 C1408 1.380 . S
C1409 H1423 0.930 . S
C1410 O1390 1.254 . S
C1410 O1391 1.268 . S
C1411 O1395 1.284 . S
C1411 O1398 1.250 . S
C1412 Gd1345 2.828 . S
C1412 O1394 1.258 . S
C1412 O1399 1.252 . S
C1412 C1413 1.497 . S
C1413 C1412 1.497 . S
C1413 C1414 1.395 . S
C1413 C1415 1.380 . S
C1414 C1413 1.395 . S
C1414 C1417 1.398 . S
C1414 H1424 0.930 . S
C1415 C1413 1.380 . S
C1415 C1416 1.391 . S
C1415 H1425 0.930 . S
C1416 C1415 1.391 . S
C1416 C1418 1.387 . S
C1417 C1414 1.398 . S
C1417 C1418 1.380 . S
C1417 H1426 0.930 . S
C1418 C1416 1.387 . S
C1418 C1417 1.380 . S
C1418 H1427 0.930 . S
C1419 O1396 1.254 . S
C1419 O1397 1.268 . S
H1420 C1405 0.930 . S
H1421 C1406 0.930 . S
H1422 C1408 0.930 . S
H1423 C1409 0.930 . S
H1424 C1414 0.930 . S
H1425 C1415 0.930 . S
H1426 C1417 0.930 . S
H1427 C1418 0.930 . S
Gd1428 N1459 2.661 . S
Gd1428 N1465 2.601 . S
Gd1428 O1472 2.545 . S
Gd1428 O1473 2.606 . S
Gd1428 O1475 2.429 . S
Gd1428 O1476 2.545 . S
Gd1428 O1477 2.412 . S
Gd1428 O1479 2.362 . S
Gd1428 O1480 2.324 . S
Gd1428 C1487 2.828 . S
Gd1429 N1438 2.661 . S
Gd1429 N1442 2.601 . S
Gd1429 O1473 2.362 . S
Gd1429 O1474 2.324 . S
Gd1429 O1478 2.545 . S
Gd1429 O1479 2.606 . S
Gd1429 O1481 2.429 . S
Gd1429 O1482 2.545 . S
Gd1429 O1483 2.412 . S
Gd1429 C1496 2.828 . S
C1430 C1433 1.417 . S
C1430 C1435 1.431 . S
C1430 C1436 1.412 . S
C1431 C1434 1.437 . S
C1431 C1435 1.317 . S
C1431 H1450 0.929 . S
C1432 C1433 1.426 . S
C1432 C1434 1.413 . S
C1432 N1442 1.359 . S
C1433 C1430 1.417 . S
C1433 C1432 1.426 . S
C1433 N1438 1.350 . S
C1434 C1431 1.437 . S
C1434 C1432 1.413 . S
C1434 C1444 1.391 . S
C1435 C1430 1.431 . S
C1435 C1431 1.317 . S
C1435 H1446 0.930 . S
C1436 C1430 1.412 . S
C1436 C1437 1.355 . S
C1436 H1448 0.930 . S
C1437 C1436 1.355 . S
C1437 C1439 1.402 . S
C1437 H1449 0.930 . S
N1438 Gd1429 2.661 . S
N1438 C1433 1.350 . S
N1438 C1439 1.307 . S
C1439 C1437 1.402 . S
C1439 N1438 1.307 . S
C1439 H1440 0.930 . S
H1440 C1439 0.930 . S
C1441 N1442 1.334 . S
C1441 C1443 1.394 . S
C1441 H1445 0.930 . S
N1442 Gd1429 2.601 . S
N1442 C1432 1.359 . S
N1442 C1441 1.334 . S
C1443 C1441 1.394 . S
C1443 C1444 1.359 . S
C1443 H1455 0.930 . S
C1444 C1434 1.391 . S
C1444 C1443 1.359 . S
C1444 H1456 0.929 . S
H1445 C1441 0.930 . S
H1446 C1435 0.930 . S
H1447 C1464 0.930 . S
H1448 C1436 0.930 . S
H1449 C1437 0.930 . S
H1450 C1431 0.929 . S
H1451 C1469 0.930 . S
H1452 C1460 0.930 . S
H1453 C1461 0.930 . S
H1454 C1485 0.929 . S
H1455 C1443 0.930 . S
H1456 C1444 0.929 . S
H1457 C1486 0.930 . S
H1458 C1467 0.930 . S
N1459 Gd1428 2.661 . S
N1459 C1463 1.350 . S
N1459 C1464 1.307 . S
C1460 H1452 0.930 . S
C1460 C1461 1.355 . S
C1460 C1462 1.412 . S
C1461 H1453 0.930 . S
C1461 C1460 1.355 . S
C1461 C1464 1.402 . S
C1462 C1460 1.412 . S
C1462 C1463 1.417 . S
C1462 C1486 1.431 . S
C1463 N1459 1.350 . S
C1463 C1462 1.417 . S
C1463 C1466 1.426 . S
C1464 H1447 0.930 . S
C1464 N1459 1.307 . S
C1464 C1461 1.402 . S
N1465 Gd1428 2.601 . S
N1465 C1466 1.359 . S
N1465 C1469 1.334 . S
C1466 C1463 1.426 . S
C1466 N1465 1.359 . S
C1466 C1470 1.413 . S
C1467 H1458 0.930 . S
C1467 C1468 1.359 . S
C1467 C1469 1.394 . S
C1468 C1467 1.359 . S
C1468 C1470 1.391 . S
C1468 H1471 0.929 . S
C1469 H1451 0.930 . S
C1469 N1465 1.334 . S
C1469 C1467 1.394 . S
C1470 C1466 1.413 . S
C1470 C1468 1.391 . S
C1470 C1485 1.437 . S
H1471 C1468 0.929 . S
O1472 Gd1428 2.545 . S
O1472 C1487 1.258 . S
O1473 Gd1428 2.606 . S
O1473 Gd1429 2.362 . S
O1473 C1484 1.284 . S
O1474 Gd1429 2.324 . S
O1474 C1494 1.254 . S
O1475 Gd1428 2.429 . S
O1475 C1494 1.268 . S
O1476 Gd1428 2.545 . S
O1476 C1484 1.250 . S
O1477 Gd1428 2.412 . S
O1477 C1487 1.252 . S
O1478 Gd1429 2.545 . S
O1478 C1496 1.258 . S
O1479 Gd1428 2.362 . S
O1479 Gd1429 2.606 . S
O1479 C1495 1.284 . S
O1480 Gd1428 2.324 . S
O1480 C1503 1.254 . S
O1481 Gd1429 2.429 . S
O1481 C1503 1.268 . S
O1482 Gd1429 2.545 . S
O1482 C1495 1.250 . S
O1483 Gd1429 2.412 . S
O1483 C1496 1.252 . S
C1484 O1473 1.284 . S
C1484 O1476 1.250 . S
C1485 H1454 0.929 . S
C1485 C1470 1.437 . S
C1485 C1486 1.317 . S
C1486 H1457 0.930 . S
C1486 C1462 1.431 . S
C1486 C1485 1.317 . S
C1487 Gd1428 2.828 . S
C1487 O1472 1.258 . S
C1487 O1477 1.252 . S
C1487 C1488 1.497 . S
C1488 C1487 1.497 . S
C1488 C1489 1.395 . S
C1488 C1490 1.380 . S
C1489 C1488 1.395 . S
C1489 C1492 1.398 . S
C1489 H1504 0.930 . S
C1490 C1488 1.380 . S
C1490 C1491 1.391 . S
C1490 H1505 0.930 . S
C1491 C1490 1.391 . S
C1491 C1493 1.387 . S
C1492 C1489 1.398 . S
C1492 C1493 1.380 . S
C1492 H1506 0.930 . S
C1493 C1491 1.387 . S
C1493 C1492 1.380 . S
C1493 H1507 0.930 . S
C1494 O1474 1.254 . S
C1494 O1475 1.268 . S
C1495 O1479 1.284 . S
C1495 O1482 1.250 . S
C1496 Gd1429 2.828 . S
C1496 O1478 1.258 . S
C1496 O1483 1.252 . S
C1496 C1497 1.497 . S
C1497 C1496 1.497 . S
C1497 C1498 1.395 . S
C1497 C1499 1.380 . S
C1498 C1497 1.395 . S
C1498 C1501 1.398 . S
C1498 H1508 0.930 . S
C1499 C1497 1.380 . S
C1499 C1500 1.391 . S
C1499 H1509 0.930 . S
C1500 C1499 1.391 . S
C1500 C1502 1.387 . S
C1501 C1498 1.398 . S
C1501 C1502 1.380 . S
C1501 H1510 0.930 . S
C1502 C1500 1.387 . S
C1502 C1501 1.380 . S
C1502 H1511 0.930 . S
C1503 O1480 1.254 . S
C1503 O1481 1.268 . S
H1504 C1489 0.930 . S
H1505 C1490 0.930 . S
H1506 C1492 0.930 . S
H1507 C1493 0.930 . S
H1508 C1498 0.930 . S
H1509 C1499 0.930 . S
H1510 C1501 0.930 . S
H1511 C1502 0.930 . S
Gd1512 N1543 2.661 . S
Gd1512 N1549 2.601 . S
Gd1512 O1556 2.545 . S
Gd1512 O1557 2.606 . S
Gd1512 O1559 2.429 . S
Gd1512 O1560 2.545 . S
Gd1512 O1561 2.412 . S
Gd1512 O1563 2.362 . S
Gd1512 O1564 2.324 . S
Gd1512 C1571 2.828 . S
Gd1513 N1522 2.661 . S
Gd1513 N1526 2.601 . S
Gd1513 O1557 2.362 . S
Gd1513 O1558 2.324 . S
Gd1513 O1562 2.545 . S
Gd1513 O1563 2.606 . S
Gd1513 O1565 2.429 . S
Gd1513 O1566 2.545 . S
Gd1513 O1567 2.412 . S
Gd1513 C1580 2.828 . S
C1514 C1517 1.417 . S
C1514 C1519 1.431 . S
C1514 C1520 1.412 . S
C1515 C1518 1.437 . S
C1515 C1519 1.317 . S
C1515 H1534 0.929 . S
C1516 C1517 1.426 . S
C1516 C1518 1.413 . S
C1516 N1526 1.359 . S
C1517 C1514 1.417 . S
C1517 C1516 1.426 . S
C1517 N1522 1.350 . S
C1518 C1515 1.437 . S
C1518 C1516 1.413 . S
C1518 C1528 1.391 . S
C1519 C1514 1.431 . S
C1519 C1515 1.317 . S
C1519 H1530 0.930 . S
C1520 C1514 1.412 . S
C1520 C1521 1.355 . S
C1520 H1532 0.930 . S
C1521 C1520 1.355 . S
C1521 C1523 1.402 . S
C1521 H1533 0.930 . S
N1522 Gd1513 2.661 . S
N1522 C1517 1.350 . S
N1522 C1523 1.307 . S
C1523 C1521 1.402 . S
C1523 N1522 1.307 . S
C1523 H1524 0.930 . S
H1524 C1523 0.930 . S
C1525 N1526 1.334 . S
C1525 C1527 1.394 . S
C1525 H1529 0.930 . S
N1526 Gd1513 2.601 . S
N1526 C1516 1.359 . S
N1526 C1525 1.334 . S
C1527 C1525 1.394 . S
C1527 C1528 1.359 . S
C1527 H1539 0.930 . S
C1528 C1518 1.391 . S
C1528 C1527 1.359 . S
C1528 H1540 0.929 . S
H1529 C1525 0.930 . S
H1530 C1519 0.930 . S
H1531 C1548 0.930 . S
H1532 C1520 0.930 . S
H1533 C1521 0.930 . S
H1534 C1515 0.929 . S
H1535 C1553 0.930 . S
H1536 C1544 0.930 . S
H1537 C1545 0.930 . S
H1538 C1569 0.929 . S
H1539 C1527 0.930 . S
H1540 C1528 0.929 . S
H1541 C1570 0.930 . S
H1542 C1551 0.930 . S
N1543 Gd1512 2.661 . S
N1543 C1547 1.350 . S
N1543 C1548 1.307 . S
C1544 H1536 0.930 . S
C1544 C1545 1.355 . S
C1544 C1546 1.412 . S
C1545 H1537 0.930 . S
C1545 C1544 1.355 . S
C1545 C1548 1.402 . S
C1546 C1544 1.412 . S
C1546 C1547 1.417 . S
C1546 C1570 1.431 . S
C1547 N1543 1.350 . S
C1547 C1546 1.417 . S
C1547 C1550 1.426 . S
C1548 H1531 0.930 . S
C1548 N1543 1.307 . S
C1548 C1545 1.402 . S
N1549 Gd1512 2.601 . S
N1549 C1550 1.359 . S
N1549 C1553 1.334 . S
C1550 C1547 1.426 . S
C1550 N1549 1.359 . S
C1550 C1554 1.413 . S
C1551 H1542 0.930 . S
C1551 C1552 1.359 . S
C1551 C1553 1.394 . S
C1552 C1551 1.359 . S
C1552 C1554 1.391 . S
C1552 H1555 0.929 . S
C1553 H1535 0.930 . S
C1553 N1549 1.334 . S
C1553 C1551 1.394 . S
C1554 C1550 1.413 . S
C1554 C1552 1.391 . S
C1554 C1569 1.437 . S
H1555 C1552 0.929 . S
O1556 Gd1512 2.545 . S
O1556 C1571 1.258 . S
O1557 Gd1512 2.606 . S
O1557 Gd1513 2.362 . S
O1557 C1568 1.284 . S
O1558 Gd1513 2.324 . S
O1558 C1578 1.254 . S
O1559 Gd1512 2.429 . S
O1559 C1578 1.268 . S
O1560 Gd1512 2.545 . S
O1560 C1568 1.250 . S
O1561 Gd1512 2.412 . S
O1561 C1571 1.252 . S
O1562 Gd1513 2.545 . S
O1562 C1580 1.258 . S
O1563 Gd1512 2.362 . S
O1563 Gd1513 2.606 . S
O1563 C1579 1.284 . S
O1564 Gd1512 2.324 . S
O1564 C1587 1.254 . S
O1565 Gd1513 2.429 . S
O1565 C1587 1.268 . S
O1566 Gd1513 2.545 . S
O1566 C1579 1.250 . S
O1567 Gd1513 2.412 . S
O1567 C1580 1.252 . S
C1568 O1557 1.284 . S
C1568 O1560 1.250 . S
C1569 H1538 0.929 . S
C1569 C1554 1.437 . S
C1569 C1570 1.317 . S
C1570 H1541 0.930 . S
C1570 C1546 1.431 . S
C1570 C1569 1.317 . S
C1571 Gd1512 2.828 . S
C1571 O1556 1.258 . S
C1571 O1561 1.252 . S
C1571 C1572 1.497 . S
C1572 C1571 1.497 . S
C1572 C1573 1.395 . S
C1572 C1574 1.380 . S
C1573 C1572 1.395 . S
C1573 C1576 1.398 . S
C1573 H1588 0.930 . S
C1574 C1572 1.380 . S
C1574 C1575 1.391 . S
C1574 H1589 0.930 . S
C1575 C1574 1.391 . S
C1575 C1577 1.387 . S
C1576 C1573 1.398 . S
C1576 C1577 1.380 . S
C1576 H1590 0.930 . S
C1577 C1575 1.387 . S
C1577 C1576 1.380 . S
C1577 H1591 0.930 . S
C1578 O1558 1.254 . S
C1578 O1559 1.268 . S
C1579 O1563 1.284 . S
C1579 O1566 1.250 . S
C1580 Gd1513 2.828 . S
C1580 O1562 1.258 . S
C1580 O1567 1.252 . S
C1580 C1581 1.497 . S
C1581 C1580 1.497 . S
C1581 C1582 1.395 . S
C1581 C1583 1.380 . S
C1582 C1581 1.395 . S
C1582 C1585 1.398 . S
C1582 H1592 0.930 . S
C1583 C1581 1.380 . S
C1583 C1584 1.391 . S
C1583 H1593 0.930 . S
C1584 C1583 1.391 . S
C1584 C1586 1.387 . S
C1585 C1582 1.398 . S
C1585 C1586 1.380 . S
C1585 H1594 0.930 . S
C1586 C1584 1.387 . S
C1586 C1585 1.380 . S
C1586 H1595 0.930 . S
C1587 O1564 1.254 . S
C1587 O1565 1.268 . S
H1588 C1573 0.930 . S
H1589 C1574 0.930 . S
H1590 C1576 0.930 . S
H1591 C1577 0.930 . S
H1592 C1582 0.930 . S
H1593 C1583 0.930 . S
H1594 C1585 0.930 . S
H1595 C1586 0.930 . S
Gd1596 N1627 2.661 1_455 S
Gd1596 N1633 2.601 . S
Gd1596 O1640 2.545 . S
Gd1596 O1641 2.606 . S
Gd1596 O1643 2.429 . S
Gd1596 O1644 2.545 . S
Gd1596 O1645 2.412 1_455 S
Gd1596 O1647 2.362 . S
Gd1596 O1648 2.324 1_554 S
Gd1596 C1655 2.828 1_455 S
Gd1597 N1606 2.661 . S
Gd1597 N1610 2.601 1_554 S
Gd1597 O1641 2.362 . S
Gd1597 O1642 2.324 . S
Gd1597 O1646 2.545 1_554 S
Gd1597 O1647 2.606 . S
Gd1597 O1649 2.429 1_554 S
Gd1597 O1650 2.548 1_554 S
Gd1597 O1651 2.412 . S
Gd1597 C1664 2.828 1_554 S
C1598 C1601 1.417 . S
C1598 C1603 1.431 . S
C1598 C1604 1.412 . S
C1599 C1602 1.437 . S
C1599 C1603 1.317 1_556 S
C1599 H1618 0.929 . S
C1600 C1601 1.426 1_556 S
C1600 C1602 1.413 . S
C1600 N1610 1.359 . S
C1601 C1598 1.417 . S
C1601 C1600 1.426 1_554 S
C1601 N1606 1.350 . S
C1602 C1599 1.437 . S
C1602 C1600 1.413 . S
C1602 C1612 1.391 . S
C1603 C1598 1.431 . S
C1603 C1599 1.317 1_554 S
C1603 H1614 0.930 . S
C1604 C1598 1.412 . S
C1604 C1605 1.355 . S
C1604 H1616 0.930 . S
C1605 C1604 1.355 . S
C1605 C1607 1.402 . S
C1605 H1617 0.930 . S
N1606 Gd1597 2.661 . S
N1606 C1601 1.350 . S
N1606 C1607 1.307 . S
C1607 C1605 1.402 . S
C1607 N1606 1.307 . S
C1607 H1608 0.930 . S
H1608 C1607 0.930 . S
C1609 N1610 1.334 . S
C1609 C1611 1.394 . S
C1609 H1613 0.930 . S
N1610 Gd1597 2.601 1_556 S
N1610 C1600 1.359 . S
N1610 C1609 1.334 . S
C1611 C1609 1.394 . S
C1611 C1612 1.359 . S
C1611 H1623 0.930 . S
C1612 C1602 1.391 . S
C1612 C1611 1.359 . S
C1612 H1624 0.929 . S
H1613 C1609 0.930 . S
H1614 C1603 0.930 . S
H1615 C1632 0.930 1_455 S
H1616 C1604 0.930 . S
H1617 C1605 0.930 . S
H1618 C1599 0.929 . S
H1619 C1637 0.930 . S
H1620 C1628 0.930 . S
H1621 C1629 0.930 . S
H1622 C1653 0.929 . S
H1623 C1611 0.930 . S
H1624 C1612 0.929 . S
H1625 C1654 0.930 . S
H1626 C1635 0.930 . S
N1627 Gd1596 2.661 1_655 S
N1627 C1631 1.350 . S
N1627 C1632 1.307 1_554 S
C1628 H1620 0.930 . S
C1628 C1629 1.355 . S
C1628 C1630 1.412 1_556 S
C1629 H1621 0.930 . S
C1629 C1628 1.355 . S
C1629 C1632 1.402 . S
C1630 C1628 1.412 1_554 S
C1630 C1631 1.417 . S
C1630 C1654 1.431 . S
C1631 N1627 1.350 . S
C1631 C1630 1.417 . S
C1631 C1634 1.426 . S
C1632 H1615 0.930 1_655 S
C1632 N1627 1.307 1_556 S
C1632 C1629 1.402 . S
N1633 Gd1596 2.601 . S
N1633 C1634 1.359 1_455 S
N1633 C1637 1.334 . S
C1634 C1631 1.426 . S
C1634 N1633 1.359 1_655 S
C1634 C1638 1.413 . S
C1635 H1626 0.930 . S
C1635 C1636 1.359 1_455 S
C1635 C1637 1.394 . S
C1636 C1635 1.359 1_655 S
C1636 C1638 1.391 . S
C1636 H1639 0.929 . S
C1637 H1619 0.930 . S
C1637 N1633 1.334 . S
C1637 C1635 1.394 . S
C1638 C1634 1.413 . S
C1638 C1636 1.391 . S
C1638 C1653 1.437 . S
H1639 C1636 0.929 . S
O1640 Gd1596 2.545 . S
O1640 C1655 1.258 1_455 S
O1641 Gd1596 2.606 . S
O1641 Gd1597 2.362 . S
O1641 C1652 1.284 . S
O1642 Gd1597 2.324 . S
O1642 C1662 1.254 . S
O1643 Gd1596 2.429 . S
O1643 C1662 1.268 . S
O1644 Gd1596 2.545 . S
O1644 C1652 1.250 . S
O1645 Gd1596 2.412 1_655 S
O1645 C1655 1.252 . S
O1646 Gd1597 2.545 1_556 S
O1646 C1664 1.258 . S
O1647 Gd1596 2.362 . S
O1647 Gd1597 2.606 . S
O1647 C1663 1.284 . S
O1648 Gd1596 2.324 1_556 S
O1648 C1671 1.254 . S
O1649 Gd1597 2.429 1_556 S
O1649 C1671 1.268 . S
O1650 Gd1597 2.548 1_556 S
O1650 C1663 1.231 1_556 S
O1651 Gd1597 2.412 . S
O1651 C1664 1.252 1_554 S
C1652 O1641 1.284 . S
C1652 O1644 1.250 . S
C1653 H1622 0.929 . S
C1653 C1638 1.437 . S
C1653 C1654 1.317 . S
C1654 H1625 0.930 . S
C1654 C1630 1.431 . S
C1654 C1653 1.317 . S
C1655 Gd1596 2.828 1_655 S
C1655 O1640 1.258 1_655 S
C1655 O1645 1.252 . S
C1655 C1656 1.497 . S
C1656 C1655 1.497 . S
C1656 C1657 1.395 . S
C1656 C1658 1.380 . S
C1657 C1656 1.395 . S
C1657 C1660 1.398 . S
C1657 H1672 0.930 . S
C1658 C1656 1.380 . S
C1658 C1659 1.391 . S
C1658 H1673 0.930 . S
C1659 C1658 1.391 . S
C1659 C1661 1.387 . S
C1660 C1657 1.398 . S
C1660 C1661 1.380 . S
C1660 H1674 0.930 . S
C1661 C1659 1.387 . S
C1661 C1660 1.380 . S
C1661 H1675 0.930 . S
C1662 O1642 1.254 . S
C1662 O1643 1.268 . S
C1663 O1647 1.284 . S
C1663 O1650 1.231 1_554 S
C1664 Gd1597 2.828 1_556 S
C1664 O1646 1.258 . S
C1664 O1651 1.252 1_556 S
C1664 C1665 1.497 . S
C1665 C1664 1.497 . S
C1665 C1666 1.395 . S
C1665 C1667 1.380 1_556 S
C1666 C1665 1.395 . S
C1666 C1669 1.398 . S
C1666 H1676 0.930 . S
C1667 C1665 1.380 1_554 S
C1667 C1668 1.391 1_554 S
C1667 H1677 0.930 . S
C1668 C1667 1.391 1_556 S
C1668 C1670 1.387 . S
C1669 C1666 1.398 . S
C1669 C1670 1.380 . S
C1669 H1678 0.930 . S
C1670 C1668 1.387 . S
C1670 C1669 1.380 . S
C1670 H1679 0.930 . S
C1671 O1648 1.254 . S
C1671 O1649 1.268 . S
H1672 C1657 0.930 . S
H1673 C1658 0.930 . S
H1674 C1660 0.930 . S
H1675 C1661 0.930 . S
H1676 C1666 0.930 . S
H1677 C1667 0.930 . S
H1678 C1669 0.930 . S
H1679 C1670 0.930 . S
H1680 C1686 0.930 1_554 S
H1681 C1690 0.930 . S
H1682 C1695 0.929 . S
H1683 C1693 0.929 . S
H1684 C1688 0.929 . S
H1685 C1694 0.929 . S
C1686 H1680 0.930 1_556 S
C1686 C1687 1.367 . S
C1686 C1694 1.378 1_556 S
C1687 C1686 1.367 . S
C1687 C1695 1.433 . S
C1688 H1684 0.929 . S
C1688 C1690 1.378 . S
C1688 C1692 1.350 . S
C1689 C1692 1.463 . S
C1689 C1694 1.350 1_556 S
C1689 N1697 1.427 . S
C1690 H1681 0.930 . S
C1690 C1688 1.378 . S
C1690 C1691 1.367 1_556 S
C1691 C1690 1.367 1_554 S
C1691 C1693 1.433 . S
C1692 C1688 1.350 . S
C1692 C1689 1.463 . S
C1692 N1696 1.427 1_556 S
C1693 H1683 0.929 . S
C1693 C1691 1.433 . S
C1693 N1696 1.384 . S
C1694 H1685 0.929 . S
C1694 C1686 1.378 1_554 S
C1694 C1689 1.350 1_554 S
C1695 H1682 0.929 . S
C1695 C1687 1.433 . S
C1695 N1697 1.384 . S
N1696 C1692 1.427 1_554 S
N1696 C1693 1.384 . S
N1697 C1689 1.427 . S
N1697 C1695 1.384 . S
H1698 C1704 0.930 . S
H1699 C1708 0.930 . S
H1700 C1713 0.929 . S
H1701 C1711 0.929 . S
H1702 C1706 0.929 . S
H1703 C1712 0.929 . S
C1704 H1698 0.930 . S
C1704 C1705 1.367 . S
C1704 C1712 1.378 . S
C1705 C1704 1.367 . S
C1705 C1713 1.433 . S
C1706 H1702 0.929 . S
C1706 C1708 1.378 . S
C1706 C1710 1.350 . S
C1707 C1710 1.463 . S
C1707 C1712 1.350 . S
C1707 N1715 1.427 . S
C1708 H1699 0.930 . S
C1708 C1706 1.378 . S
C1708 C1709 1.367 . S
C1709 C1708 1.367 . S
C1709 C1711 1.433 . S
C1710 C1706 1.350 . S
C1710 C1707 1.463 . S
C1710 N1714 1.427 . S
C1711 H1701 0.929 . S
C1711 C1709 1.433 . S
C1711 N1714 1.384 . S
C1712 H1703 0.929 . S
C1712 C1704 1.378 . S
C1712 C1707 1.350 . S
C1713 H1700 0.929 . S
C1713 C1705 1.433 . S
C1713 N1715 1.384 . S
N1714 C1710 1.427 . S
N1714 C1711 1.384 . S
N1715 C1707 1.427 . S
N1715 C1713 1.384 . S
H1716 C1722 0.930 . S
H1717 C1726 0.930 . S
H1718 C1731 0.929 . S
H1719 C1729 0.929 . S
H1720 C1724 0.929 . S
H1721 C1730 0.929 . S
C1722 H1716 0.930 . S
C1722 C1723 1.367 . S
C1722 C1730 1.378 . S
C1723 C1722 1.367 . S
C1723 C1731 1.433 . S
C1724 H1720 0.929 . S
C1724 C1726 1.378 . S
C1724 C1728 1.350 . S
C1725 C1728 1.463 . S
C1725 C1730 1.350 . S
C1725 N1733 1.427 . S
C1726 H1717 0.930 . S
C1726 C1724 1.378 . S
C1726 C1727 1.367 . S
C1727 C1726 1.367 . S
C1727 C1729 1.433 . S
C1728 C1724 1.350 . S
C1728 C1725 1.463 . S
C1728 N1732 1.427 . S
C1729 H1719 0.929 . S
C1729 C1727 1.433 . S
C1729 N1732 1.384 . S
C1730 H1721 0.929 . S
C1730 C1722 1.378 . S
C1730 C1725 1.350 . S
C1731 H1718 0.929 . S
C1731 C1723 1.433 . S
C1731 N1733 1.384 . S
N1732 C1728 1.427 . S
N1732 C1729 1.384 . S
N1733 C1725 1.427 . S
N1733 C1731 1.384 . S
H1734 C1740 0.930 . S
H1735 C1744 0.930 . S
H1736 C1749 0.929 . S
H1737 C1747 0.929 . S
H1738 C1742 0.929 . S
H1739 C1748 0.929 . S
C1740 H1734 0.930 . S
C1740 C1741 1.367 . S
C1740 C1748 1.378 . S
C1741 C1740 1.367 . S
C1741 C1749 1.433 . S
C1742 H1738 0.929 . S
C1742 C1744 1.378 . S
C1742 C1746 1.350 . S
C1743 C1746 1.463 . S
C1743 C1748 1.350 . S
C1743 N1751 1.427 . S
C1744 H1735 0.930 . S
C1744 C1742 1.378 . S
C1744 C1745 1.367 . S
C1745 C1744 1.367 . S
C1745 C1747 1.433 . S
C1746 C1742 1.350 . S
C1746 C1743 1.463 . S
C1746 N1750 1.427 . S
C1747 H1737 0.929 . S
C1747 C1745 1.433 . S
C1747 N1750 1.384 . S
C1748 H1739 0.929 . S
C1748 C1740 1.378 . S
C1748 C1743 1.350 . S
C1749 H1736 0.929 . S
C1749 C1741 1.433 . S
C1749 N1751 1.384 . S
N1750 C1746 1.427 . S
N1750 C1747 1.384 . S
N1751 C1743 1.427 . S
N1751 C1749 1.384 . S
H1752 C1758 0.930 . S
H1753 C1762 0.930 . S
H1754 C1767 0.929 . S
H1755 C1765 0.929 . S
H1756 C1760 0.929 1_655 S
H1757 C1766 0.929 . S
C1758 H1752 0.930 . S
C1758 C1759 1.367 . S
C1758 C1766 1.378 . S
C1759 C1758 1.367 . S
C1759 C1767 1.433 1_455 S
C1760 H1756 0.929 1_455 S
C1760 C1762 1.378 . S
C1760 C1764 1.350 . S
C1761 C1764 1.463 . S
C1761 C1766 1.350 . S
C1761 N1769 1.412 1_455 S
C1762 H1753 0.930 . S
C1762 C1760 1.378 . S
C1762 C1763 1.367 . S
C1763 C1762 1.367 . S
C1763 C1765 1.433 . S
C1764 C1760 1.350 . S
C1764 C1761 1.463 . S
C1764 N1768 1.427 . S
C1765 H1755 0.929 . S
C1765 C1763 1.433 . S
C1765 N1768 1.384 . S
C1766 H1757 0.929 . S
C1766 C1758 1.378 . S
C1766 C1761 1.350 . S
C1767 H1754 0.929 . S
C1767 C1759 1.433 1_655 S
C1767 N1769 1.386 . S
N1768 C1764 1.427 . S
N1768 C1765 1.384 . S
N1769 C1761 1.412 1_655 S
N1769 C1767 1.386 . S
H1770 C1776 0.930 . S
H1771 C1780 0.930 . S
H1772 C1785 0.929 . S
H1773 C1783 0.929 . S
H1774 C1778 0.929 . S
H1775 C1784 0.929 . S
C1776 H1770 0.930 . S
C1776 C1777 1.367 . S
C1776 C1784 1.378 . S
C1777 C1776 1.367 . S
C1777 C1785 1.433 . S
C1778 H1774 0.929 . S
C1778 C1780 1.378 . S
C1778 C1782 1.350 . S
C1779 C1782 1.463 . S
C1779 C1784 1.350 . S
C1779 N1787 1.427 . S
C1780 H1771 0.930 . S
C1780 C1778 1.378 . S
C1780 C1781 1.367 . S
C1781 C1780 1.367 . S
C1781 C1783 1.433 . S
C1782 C1778 1.350 . S
C1782 C1779 1.463 . S
C1782 N1786 1.427 . S
C1783 H1773 0.929 . S
C1783 C1781 1.433 . S
C1783 N1786 1.384 . S
C1784 H1775 0.929 . S
C1784 C1776 1.378 . S
C1784 C1779 1.350 . S
C1785 H1772 0.929 . S
C1785 C1777 1.433 . S
C1785 N1787 1.384 . S
N1786 C1782 1.427 . S
N1786 C1783 1.384 . S
N1787 C1779 1.427 . S
N1787 C1785 1.384 . S
H1788 C1794 0.930 . S
H1789 C1798 0.930 . S
H1790 C1803 0.929 . S
H1791 C1801 0.929 . S
H1792 C1796 0.929 . S
H1793 C1802 0.929 . S
C1794 H1788 0.930 . S
C1794 C1795 1.367 . S
C1794 C1802 1.378 . S
C1795 C1794 1.367 . S
C1795 C1803 1.433 . S
C1796 H1792 0.929 . S
C1796 C1798 1.378 . S
C1796 C1800 1.350 . S
C1797 C1800 1.463 . S
C1797 C1802 1.350 . S
C1797 N1805 1.427 . S
C1798 H1789 0.930 . S
C1798 C1796 1.378 . S
C1798 C1799 1.367 . S
C1799 C1798 1.367 . S
C1799 C1801 1.433 . S
C1800 C1796 1.350 . S
C1800 C1797 1.463 . S
C1800 N1804 1.427 . S
C1801 H1791 0.929 . S
C1801 C1799 1.433 . S
C1801 N1804 1.384 . S
C1802 H1793 0.929 . S
C1802 C1794 1.378 . S
C1802 C1797 1.350 . S
C1803 H1790 0.929 . S
C1803 C1795 1.433 . S
C1803 N1805 1.384 . S
N1804 C1800 1.427 . S
N1804 C1801 1.384 . S
N1805 C1797 1.427 . S
N1805 C1803 1.384 . S
H1806 C1812 0.930 . S
H1807 C1816 0.930 . S
H1808 C1821 0.929 . S
H1809 C1819 0.929 . S
H1810 C1814 0.929 . S
H1811 C1820 0.929 . S
C1812 H1806 0.930 . S
C1812 C1813 1.367 . S
C1812 C1820 1.378 . S
C1813 C1812 1.367 . S
C1813 C1821 1.433 . S
C1814 H1810 0.929 . S
C1814 C1816 1.378 . S
C1814 C1818 1.350 . S
C1815 C1818 1.463 . S
C1815 C1820 1.350 . S
C1815 N1823 1.427 . S
C1816 H1807 0.930 . S
C1816 C1814 1.378 . S
C1816 C1817 1.367 . S
C1817 C1816 1.367 . S
C1817 C1819 1.433 . S
C1818 C1814 1.350 . S
C1818 C1815 1.463 . S
C1818 N1822 1.427 . S
C1819 H1809 0.929 . S
C1819 C1817 1.433 . S
C1819 N1822 1.384 . S
C1820 H1811 0.929 . S
C1820 C1812 1.378 . S
C1820 C1815 1.350 . S
C1821 H1808 0.929 . S
C1821 C1813 1.433 . S
C1821 N1823 1.384 . S
N1822 C1818 1.427 . S
N1822 C1819 1.384 . S
N1823 C1815 1.427 . S
N1823 C1821 1.384 . S
H1824 C1830 0.930 . S
H1825 C1834 0.930 . S
H1826 C1839 0.929 . S
H1827 C1837 0.929 . S
H1828 C1832 0.929 . S
H1829 C1838 0.929 . S
C1830 H1824 0.930 . S
C1830 C1831 1.367 . S
C1830 C1838 1.378 1_655 S
C1831 C1830 1.367 . S
C1831 C1839 1.433 . S
C1832 H1828 0.929 . S
C1832 C1834 1.378 . S
C1832 C1836 1.350 . S
C1833 C1836 1.463 . S
C1833 C1838 1.350 . S
C1833 N1841 1.401 1_455 S
C1834 H1825 0.930 . S
C1834 C1832 1.378 . S
C1834 C1835 1.367 . S
C1835 C1834 1.367 . S
C1835 C1837 1.433 . S
C1836 C1832 1.350 . S
C1836 C1833 1.463 . S
C1836 N1840 1.427 . S
C1837 H1827 0.929 . S
C1837 C1835 1.433 . S
C1837 N1840 1.384 . S
C1838 H1829 0.929 . S
C1838 C1830 1.378 1_455 S
C1838 C1833 1.350 . S
C1839 H1826 0.929 . S
C1839 C1831 1.433 . S
C1839 N1841 1.408 . S
N1840 C1836 1.427 . S
N1840 C1837 1.384 . S
N1841 C1833 1.401 1_655 S
N1841 C1839 1.408 . S
H1842 C1848 0.930 . S
H1843 C1852 0.930 . S
H1844 C1857 0.929 . S
H1845 C1855 0.929 . S
H1846 C1850 0.929 . S
H1847 C1856 0.929 . S
C1848 H1842 0.930 . S
C1848 C1849 1.367 . S
C1848 C1856 1.378 . S
C1849 C1848 1.367 . S
C1849 C1857 1.433 . S
C1850 H1846 0.929 . S
C1850 C1852 1.378 . S
C1850 C1854 1.350 . S
C1851 C1854 1.463 . S
C1851 C1856 1.350 . S
C1851 N1859 1.427 . S
C1852 H1843 0.930 . S
C1852 C1850 1.378 . S
C1852 C1853 1.367 . S
C1853 C1852 1.367 . S
C1853 C1855 1.433 . S
C1854 C1850 1.350 . S
C1854 C1851 1.463 . S
C1854 N1858 1.427 . S
C1855 H1845 0.929 . S
C1855 C1853 1.433 . S
C1855 N1858 1.384 . S
C1856 H1847 0.929 . S
C1856 C1848 1.378 . S
C1856 C1851 1.350 . S
C1857 H1844 0.929 . S
C1857 C1849 1.433 . S
C1857 N1859 1.384 . S
N1858 C1854 1.427 . S
N1858 C1855 1.384 . S
N1859 C1851 1.427 . S
N1859 C1857 1.384 . S
H1860 C1866 0.930 . S
H1861 C1870 0.930 . S
H1862 C1875 0.929 . S
H1863 C1873 0.929 1_565 S
H1864 C1868 0.929 . S
H1865 C1874 0.929 1_565 S
C1866 H1860 0.930 . S
C1866 C1867 1.367 . S
C1866 C1874 1.378 . S
C1867 C1866 1.367 . S
C1867 C1875 1.433 . S
C1868 H1864 0.929 . S
C1868 C1870 1.378 . S
C1868 C1872 1.350 . S
C1869 C1872 1.463 . S
C1869 C1874 1.350 . S
C1869 N1877 1.427 . S
C1870 H1861 0.930 . S
C1870 C1868 1.378 . S
C1870 C1871 1.367 . S
C1871 C1870 1.367 . S
C1871 C1873 1.433 . S
C1872 C1868 1.350 . S
C1872 C1869 1.463 . S
C1872 N1876 1.427 . S
C1873 H1863 0.929 1_545 S
C1873 C1871 1.433 . S
C1873 N1876 1.384 . S
C1874 H1865 0.929 1_545 S
C1874 C1866 1.378 . S
C1874 C1869 1.350 . S
C1875 H1862 0.929 . S
C1875 C1867 1.433 . S
C1875 N1877 1.384 . S
N1876 C1872 1.427 . S
N1876 C1873 1.384 . S
N1877 C1869 1.427 . S
N1877 C1875 1.384 . S
H1878 C1884 0.930 . S
H1879 C1888 0.930 . S
H1880 C1893 0.929 . S
H1881 C1891 0.929 . S
H1882 C1886 0.929 . S
H1883 C1892 0.929 . S
C1884 H1878 0.930 . S
C1884 C1885 1.367 . S
C1884 C1892 1.378 . S
C1885 C1884 1.367 . S
C1885 C1893 1.433 . S
C1886 H1882 0.929 . S
C1886 C1888 1.378 . S
C1886 C1890 1.350 . S
C1887 C1890 1.463 . S
C1887 C1892 1.350 . S
C1887 N1895 1.427 . S
C1888 H1879 0.930 . S
C1888 C1886 1.378 . S
C1888 C1889 1.367 . S
C1889 C1888 1.367 . S
C1889 C1891 1.433 . S
C1890 C1886 1.350 . S
C1890 C1887 1.463 . S
C1890 N1894 1.427 . S
C1891 H1881 0.929 . S
C1891 C1889 1.433 . S
C1891 N1894 1.384 . S
C1892 H1883 0.929 . S
C1892 C1884 1.378 . S
C1892 C1887 1.350 . S
C1893 H1880 0.929 . S
C1893 C1885 1.433 . S
C1893 N1895 1.384 . S
N1894 C1890 1.427 . S
N1894 C1891 1.384 . S
N1895 C1887 1.427 . S
N1895 C1893 1.384 . S
H1896 C1902 0.930 . S
H1897 C1906 0.930 . S
H1898 C1911 0.929 . S
H1899 C1909 0.929 . S
H1900 C1904 0.929 . S
H1901 C1910 0.929 . S
C1902 H1896 0.930 . S
C1902 C1903 1.367 . S
C1902 C1910 1.378 1_655 S
C1903 C1902 1.367 . S
C1903 C1911 1.433 . S
C1904 H1900 0.929 . S
C1904 C1906 1.378 . S
C1904 C1908 1.350 . S
C1905 C1908 1.463 . S
C1905 C1910 1.350 . S
C1905 N1913 1.427 . S
C1906 H1897 0.930 . S
C1906 C1904 1.378 . S
C1906 C1907 1.367 . S
C1907 C1906 1.367 . S
C1907 C1909 1.433 . S
C1908 C1904 1.350 . S
C1908 C1905 1.463 . S
C1908 N1912 1.427 . S
C1909 H1899 0.929 . S
C1909 C1907 1.433 . S
C1909 N1912 1.384 . S
C1910 H1901 0.929 . S
C1910 C1902 1.378 1_455 S
C1910 C1905 1.350 . S
C1911 H1898 0.929 . S
C1911 C1903 1.433 . S
C1911 N1913 1.384 1_655 S
N1912 C1908 1.427 . S
N1912 C1909 1.384 . S
N1913 C1905 1.427 . S
N1913 C1911 1.384 1_455 S
H1914 C1920 0.930 . S
H1915 C1924 0.930 . S
H1916 C1929 0.929 . S
H1917 C1927 0.929 . S
H1918 C1922 0.929 . S
H1919 C1928 0.929 . S
C1920 H1914 0.930 . S
C1920 C1921 1.367 . S
C1920 C1928 1.378 . S
C1921 C1920 1.367 . S
C1921 C1929 1.433 . S
C1922 H1918 0.929 . S
C1922 C1924 1.378 . S
C1922 C1926 1.350 . S
C1923 C1926 1.463 . S
C1923 C1928 1.350 . S
C1923 N1931 1.427 . S
C1924 H1915 0.930 . S
C1924 C1922 1.378 . S
C1924 C1925 1.367 . S
C1925 C1924 1.367 . S
C1925 C1927 1.433 . S
C1926 C1922 1.350 . S
C1926 C1923 1.463 . S
C1926 N1930 1.427 . S
C1927 H1917 0.929 . S
C1927 C1925 1.433 . S
C1927 N1930 1.384 . S
C1928 H1919 0.929 . S
C1928 C1920 1.378 . S
C1928 C1923 1.350 . S
C1929 H1916 0.929 . S
C1929 C1921 1.433 . S
C1929 N1931 1.384 . S
N1930 C1926 1.427 . S
N1930 C1927 1.384 . S
N1931 C1923 1.427 . S
N1931 C1929 1.384 . S
H1932 C1938 0.930 . S
H1933 C1942 0.930 . S
H1934 C1947 0.929 . S
H1935 C1945 0.929 . S
H1936 C1940 0.929 . S
H1937 C1946 0.929 . S
C1938 H1932 0.930 . S
C1938 C1939 1.367 . S
C1938 C1946 1.378 . S
C1939 C1938 1.367 . S
C1939 C1947 1.433 . S
C1940 H1936 0.929 . S
C1940 C1942 1.378 . S
C1940 C1944 1.350 . S
C1941 C1944 1.463 . S
C1941 C1946 1.350 . S
C1941 N1949 1.427 . S
C1942 H1933 0.930 . S
C1942 C1940 1.378 . S
C1942 C1943 1.367 . S
C1943 C1942 1.367 . S
C1943 C1945 1.433 . S
C1944 C1940 1.350 . S
C1944 C1941 1.463 . S
C1944 N1948 1.427 . S
C1945 H1935 0.929 . S
C1945 C1943 1.433 . S
C1945 N1948 1.384 . S
C1946 H1937 0.929 . S
C1946 C1938 1.378 . S
C1946 C1941 1.350 . S
C1947 H1934 0.929 . S
C1947 C1939 1.433 . S
C1947 N1949 1.384 . S
N1948 C1944 1.427 . S
N1948 C1945 1.384 . S
N1949 C1941 1.427 . S
N1949 C1947 1.384 . S
H1950 C1956 0.930 . S
H1951 C1960 0.930 . S
H1952 C1965 0.929 . S
H1953 C1963 0.929 . S
H1954 C1958 0.929 . S
H1955 C1964 0.929 . S
C1956 H1950 0.930 . S
C1956 C1957 1.367 . S
C1956 C1964 1.378 . S
C1957 C1956 1.367 . S
C1957 C1965 1.433 . S
C1958 H1954 0.929 . S
C1958 C1960 1.378 . S
C1958 C1962 1.350 . S
C1959 C1962 1.463 . S
C1959 C1964 1.350 . S
C1959 N1967 1.427 . S
C1960 H1951 0.930 . S
C1960 C1958 1.378 . S
C1960 C1961 1.367 . S
C1961 C1960 1.367 . S
C1961 C1963 1.433 . S
C1962 C1958 1.350 . S
C1962 C1959 1.463 . S
C1962 N1966 1.427 . S
C1963 H1953 0.929 . S
C1963 C1961 1.433 . S
C1963 N1966 1.384 . S
C1964 H1955 0.929 . S
C1964 C1956 1.378 . S
C1964 C1959 1.350 . S
C1965 H1952 0.929 . S
C1965 C1957 1.433 . S
C1965 N1967 1.384 . S
N1966 C1962 1.427 . S
N1966 C1963 1.384 . S
N1967 C1959 1.427 . S
N1967 C1965 1.384 . S
H1968 C1974 0.930 1_545 S
H1969 C1978 0.930 . S
H1970 C1983 0.929 . S
H1971 C1981 0.929 . S
H1972 C1976 0.929 . S
H1973 C1982 0.929 . S
C1974 H1968 0.930 1_565 S
C1974 C1975 1.367 . S
C1974 C1982 1.378 1_565 S
C1975 C1974 1.367 . S
C1975 C1983 1.433 . S
C1976 H1972 0.929 . S
C1976 C1978 1.378 . S
C1976 C1980 1.350 . S
C1977 C1980 1.463 . S
C1977 C1982 1.350 1_565 S
C1977 N1985 1.427 . S
C1978 H1969 0.930 . S
C1978 C1976 1.378 . S
C1978 C1979 1.367 1_565 S
C1979 C1978 1.367 1_545 S
C1979 C1981 1.433 . S
C1980 C1976 1.350 . S
C1980 C1977 1.463 . S
C1980 N1984 1.427 1_565 S
C1981 H1971 0.929 . S
C1981 C1979 1.433 . S
C1981 N1984 1.384 . S
C1982 H1973 0.929 . S
C1982 C1974 1.378 1_545 S
C1982 C1977 1.350 1_545 S
C1983 H1970 0.929 . S
C1983 C1975 1.433 . S
C1983 N1985 1.384 . S
N1984 C1980 1.427 1_545 S
N1984 C1981 1.384 . S
N1985 C1977 1.427 . S
N1985 C1983 1.384 . S
H1986 C1992 0.930 . S
H1987 C1996 0.930 . S
H1988 C2001 0.929 . S
H1989 C1999 0.929 . S
H1990 C1994 0.929 . S
H1991 C2000 0.929 . S
C1992 H1986 0.930 . S
C1992 C1993 1.367 1_554 S
C1992 C2000 1.378 . S
C1993 C1992 1.367 1_556 S
C1993 C2001 1.433 . S
C1994 H1990 0.929 . S
C1994 C1996 1.378 . S
C1994 C1998 1.350 . S
C1995 C1998 1.463 . S
C1995 C2000 1.350 1_556 S
C1995 N2003 1.427 . S
C1996 H1987 0.930 . S
C1996 C1994 1.378 . S
C1996 C1997 1.367 . S
C1997 C1996 1.367 . S
C1997 C1999 1.433 1_556 S
C1998 C1994 1.350 . S
C1998 C1995 1.463 . S
C1998 N2002 1.427 1_556 S
C1999 H1989 0.929 . S
C1999 C1997 1.433 1_554 S
C1999 N2002 1.384 . S
C2000 H1991 0.929 . S
C2000 C1992 1.378 . S
C2000 C1995 1.350 1_554 S
C2001 H1988 0.929 . S
C2001 C1993 1.433 . S
C2001 N2003 1.384 . S
N2002 C1998 1.427 1_554 S
N2002 C1999 1.384 . S
N2003 C1995 1.427 . S
N2003 C2001 1.384 . S
H2004 C2010 0.930 . S
H2005 C2014 0.930 . S
H2006 C2019 0.929 . S
H2007 C2017 0.929 . S
H2008 C2012 0.929 . S
H2009 C2018 0.929 . S
C2010 H2004 0.930 . S
C2010 C2011 1.367 . S
C2010 C2018 1.378 . S
C2011 C2010 1.367 . S
C2011 C2019 1.433 . S
C2012 H2008 0.929 . S
C2012 C2014 1.378 . S
C2012 C2016 1.350 . S
C2013 C2016 1.463 . S
C2013 C2018 1.350 . S
C2013 N2021 1.427 . S
C2014 H2005 0.930 . S
C2014 C2012 1.378 . S
C2014 C2015 1.367 . S
C2015 C2014 1.367 . S
C2015 C2017 1.433 . S
C2016 C2012 1.350 . S
C2016 C2013 1.463 . S
C2016 N2020 1.427 . S
C2017 H2007 0.929 . S
C2017 C2015 1.433 . S
C2017 N2020 1.384 . S
C2018 H2009 0.929 . S
C2018 C2010 1.378 . S
C2018 C2013 1.350 . S
C2019 H2006 0.929 . S
C2019 C2011 1.433 . S
C2019 N2021 1.384 . S
N2020 C2016 1.427 . S
N2020 C2017 1.384 . S
N2021 C2013 1.427 . S
N2021 C2019 1.384 . S
H2022 C2028 0.930 . S
H2023 C2032 0.930 1_455 S
H2024 C2037 0.929 . S
H2025 C2035 0.929 1_455 S
H2026 C2030 0.929 . S
H2027 C2036 0.929 . S
C2028 H2022 0.930 . S
C2028 C2029 1.367 . S
C2028 C2036 1.378 . S
C2029 C2028 1.367 . S
C2029 C2037 1.433 . S
C2030 H2026 0.929 . S
C2030 C2032 1.378 . S
C2030 C2034 1.350 . S
C2031 C2034 1.463 . S
C2031 C2036 1.350 . S
C2031 N2039 1.427 . S
C2032 H2023 0.930 1_655 S
C2032 C2030 1.378 . S
C2032 C2033 1.367 1_655 S
C2033 C2032 1.367 1_455 S
C2033 C2035 1.433 1_455 S
C2034 C2030 1.350 . S
C2034 C2031 1.463 . S
C2034 N2038 1.427 . S
C2035 H2025 0.929 1_655 S
C2035 C2033 1.433 1_655 S
C2035 N2038 1.384 . S
C2036 H2027 0.929 . S
C2036 C2028 1.378 . S
C2036 C2031 1.350 . S
C2037 H2024 0.929 . S
C2037 C2029 1.433 . S
C2037 N2039 1.384 . S
N2038 C2034 1.427 . S
N2038 C2035 1.384 . S
N2039 C2031 1.427 . S
N2039 C2037 1.384 . S
H2040 C2046 0.930 . S
H2041 C2050 0.930 . S
H2042 C2055 0.929 . S
H2043 C2053 0.929 . S
H2044 C2048 0.929 . S
H2045 C2054 0.929 . S
C2046 H2040 0.930 . S
C2046 C2047 1.367 . S
C2046 C2054 1.378 . S
C2047 C2046 1.367 . S
C2047 C2055 1.433 . S
C2048 H2044 0.929 . S
C2048 C2050 1.378 . S
C2048 C2052 1.350 . S
C2049 C2052 1.463 . S
C2049 C2054 1.350 . S
C2049 N2057 1.427 . S
C2050 H2041 0.930 . S
C2050 C2048 1.378 . S
C2050 C2051 1.367 . S
C2051 C2050 1.367 . S
C2051 C2053 1.433 . S
C2052 C2048 1.350 . S
C2052 C2049 1.463 . S
C2052 N2056 1.427 . S
C2053 H2043 0.929 . S
C2053 C2051 1.433 . S
C2053 N2056 1.384 . S
C2054 H2045 0.929 . S
C2054 C2046 1.378 . S
C2054 C2049 1.350 . S
C2055 H2042 0.929 . S
C2055 C2047 1.433 . S
C2055 N2057 1.384 . S
N2056 C2052 1.427 . S
N2056 C2053 1.384 . S
N2057 C2049 1.427 . S
N2057 C2055 1.384 . S
H2058 C2064 0.930 . S
H2059 C2068 0.930 . S
H2060 C2073 0.929 . S
H2061 C2071 0.929 . S
H2062 C2066 0.929 . S
H2063 C2072 0.929 . S
C2064 H2058 0.930 . S
C2064 C2065 1.367 . S
C2064 C2072 1.378 . S
C2065 C2064 1.367 . S
C2065 C2073 1.433 . S
C2066 H2062 0.929 . S
C2066 C2068 1.378 . S
C2066 C2070 1.350 . S
C2067 C2070 1.463 . S
C2067 C2072 1.350 . S
C2067 N2075 1.427 . S
C2068 H2059 0.930 . S
C2068 C2066 1.378 . S
C2068 C2069 1.367 . S
C2069 C2068 1.367 . S
C2069 C2071 1.433 . S
C2070 C2066 1.350 . S
C2070 C2067 1.463 . S
C2070 N2074 1.427 . S
C2071 H2061 0.929 . S
C2071 C2069 1.433 . S
C2071 N2074 1.384 . S
C2072 H2063 0.929 . S
C2072 C2064 1.378 . S
C2072 C2067 1.350 . S
C2073 H2060 0.929 . S
C2073 C2065 1.433 . S
C2073 N2075 1.384 . S
N2074 C2070 1.427 . S
N2074 C2071 1.384 . S
N2075 C2067 1.427 . S
N2075 C2073 1.384 . S
H2076 C2082 0.930 . S
H2077 C2086 0.930 . S
H2078 C2091 0.929 . S
H2079 C2089 0.929 . S
H2080 C2084 0.929 . S
H2081 C2090 0.929 . S
C2082 H2076 0.930 . S
C2082 C2083 1.367 . S
C2082 C2090 1.378 . S
C2083 C2082 1.367 . S
C2083 C2091 1.433 . S
C2084 H2080 0.929 . S
C2084 C2086 1.378 . S
C2084 C2088 1.350 . S
C2085 C2088 1.463 . S
C2085 C2090 1.350 . S
C2085 N2093 1.427 . S
C2086 H2077 0.930 . S
C2086 C2084 1.378 . S
C2086 C2087 1.367 . S
C2087 C2086 1.367 . S
C2087 C2089 1.433 . S
C2088 C2084 1.350 . S
C2088 C2085 1.463 . S
C2088 N2092 1.427 . S
C2089 H2079 0.929 . S
C2089 C2087 1.433 . S
C2089 N2092 1.384 . S
C2090 H2081 0.929 . S
C2090 C2082 1.378 . S
C2090 C2085 1.350 . S
C2091 H2078 0.929 . S
C2091 C2083 1.433 . S
C2091 N2093 1.384 . S
N2092 C2088 1.427 . S
N2092 C2089 1.384 . S
N2093 C2085 1.427 . S
N2093 C2091 1.384 . S
H2094 C2100 0.930 . S
H2095 C2104 0.930 . S
H2096 C2109 0.929 . S
H2097 C2107 0.929 . S
H2098 C2102 0.929 . S
H2099 C2108 0.929 . S
C2100 H2094 0.930 . S
C2100 C2101 1.367 . S
C2100 C2108 1.378 . S
C2101 C2100 1.367 . S
C2101 C2109 1.433 . S
C2102 H2098 0.929 . S
C2102 C2104 1.378 . S
C2102 C2106 1.350 . S
C2103 C2106 1.463 . S
C2103 C2108 1.350 . S
C2103 N2111 1.427 . S
C2104 H2095 0.930 . S
C2104 C2102 1.378 . S
C2104 C2105 1.367 . S
C2105 C2104 1.367 . S
C2105 C2107 1.433 . S
C2106 C2102 1.350 . S
C2106 C2103 1.463 . S
C2106 N2110 1.427 . S
C2107 H2097 0.929 . S
C2107 C2105 1.433 . S
C2107 N2110 1.384 . S
C2108 H2099 0.929 . S
C2108 C2100 1.378 . S
C2108 C2103 1.350 . S
C2109 H2096 0.929 . S
C2109 C2101 1.433 . S
C2109 N2111 1.384 . S
N2110 C2106 1.427 . S
N2110 C2107 1.384 . S
N2111 C2103 1.427 . S
N2111 C2109 1.384 . S
H2112 C2118 0.930 . S
H2113 C2122 0.930 . S
H2114 C2127 0.929 . S
H2115 C2125 0.929 . S
H2116 C2120 0.929 . S
H2117 C2126 0.929 . S
C2118 H2112 0.930 . S
C2118 C2119 1.367 . S
C2118 C2126 1.378 . S
C2119 C2118 1.367 . S
C2119 C2127 1.433 . S
C2120 H2116 0.929 . S
C2120 C2122 1.378 . S
C2120 C2124 1.350 . S
C2121 C2124 1.463 . S
C2121 C2126 1.350 . S
C2121 N2129 1.427 . S
C2122 H2113 0.930 . S
C2122 C2120 1.378 . S
C2122 C2123 1.367 . S
C2123 C2122 1.367 . S
C2123 C2125 1.433 . S
C2124 C2120 1.350 . S
C2124 C2121 1.463 . S
C2124 N2128 1.427 . S
C2125 H2115 0.929 . S
C2125 C2123 1.433 . S
C2125 N2128 1.384 . S
C2126 H2117 0.929 . S
C2126 C2118 1.378 . S
C2126 C2121 1.350 . S
C2127 H2114 0.929 . S
C2127 C2119 1.433 . S
C2127 N2129 1.384 . S
N2128 C2124 1.427 . S
N2128 C2125 1.384 . S
N2129 C2121 1.427 . S
N2129 C2127 1.384 . S
H2130 C2136 0.930 . S
H2131 C2140 0.930 . S
H2132 C2145 0.929 . S
H2133 C2143 0.929 . S
H2134 C2138 0.929 . S
H2135 C2144 0.929 . S
C2136 H2130 0.930 . S
C2136 C2137 1.367 . S
C2136 C2144 1.378 . S
C2137 C2136 1.367 . S
C2137 C2145 1.433 . S
C2138 H2134 0.929 . S
C2138 C2140 1.378 . S
C2138 C2142 1.350 . S
C2139 C2142 1.463 . S
C2139 C2144 1.350 . S
C2139 N2147 1.427 . S
C2140 H2131 0.930 . S
C2140 C2138 1.378 . S
C2140 C2141 1.367 . S
C2141 C2140 1.367 . S
C2141 C2143 1.433 . S
C2142 C2138 1.350 . S
C2142 C2139 1.463 . S
C2142 N2146 1.427 . S
C2143 H2133 0.929 . S
C2143 C2141 1.433 . S
C2143 N2146 1.384 . S
C2144 H2135 0.929 . S
C2144 C2136 1.378 . S
C2144 C2139 1.350 . S
C2145 H2132 0.929 . S
C2145 C2137 1.433 . S
C2145 N2147 1.384 . S
N2146 C2142 1.427 . S
N2146 C2143 1.384 . S
N2147 C2139 1.427 . S
N2147 C2145 1.384 . S
H2148 C2154 0.930 . S
H2149 C2158 0.930 . S
H2150 C2163 0.929 . S
H2151 C2161 0.929 . S
H2152 C2156 0.929 . S
H2153 C2162 0.929 . S
C2154 H2148 0.930 . S
C2154 C2155 1.367 . S
C2154 C2162 1.378 . S
C2155 C2154 1.367 . S
C2155 C2163 1.433 . S
C2156 H2152 0.929 . S
C2156 C2158 1.378 . S
C2156 C2160 1.350 . S
C2157 C2160 1.463 . S
C2157 C2162 1.350 . S
C2157 N2165 1.427 . S
C2158 H2149 0.930 . S
C2158 C2156 1.378 . S
C2158 C2159 1.367 . S
C2159 C2158 1.367 . S
C2159 C2161 1.433 . S
C2160 C2156 1.350 . S
C2160 C2157 1.463 . S
C2160 N2164 1.427 . S
C2161 H2151 0.929 . S
C2161 C2159 1.433 . S
C2161 N2164 1.384 . S
C2162 H2153 0.929 . S
C2162 C2154 1.378 . S
C2162 C2157 1.350 . S
C2163 H2150 0.929 . S
C2163 C2155 1.433 . S
C2163 N2165 1.384 . S
N2164 C2160 1.427 . S
N2164 C2161 1.384 . S
N2165 C2157 1.427 . S
N2165 C2163 1.384 . S
H2166 C2172 0.930 . S
H2167 C2176 0.930 . S
H2168 C2181 0.929 . S
H2169 C2179 0.929 . S
H2170 C2174 0.929 . S
H2171 C2180 0.929 . S
C2172 H2166 0.930 . S
C2172 C2173 1.367 . S
C2172 C2180 1.378 . S
C2173 C2172 1.367 . S
C2173 C2181 1.433 . S
C2174 H2170 0.929 . S
C2174 C2176 1.378 . S
C2174 C2178 1.350 . S
C2175 C2178 1.463 . S
C2175 C2180 1.350 . S
C2175 N2183 1.427 . S
C2176 H2167 0.930 . S
C2176 C2174 1.378 . S
C2176 C2177 1.367 . S
C2177 C2176 1.367 . S
C2177 C2179 1.433 . S
C2178 C2174 1.350 . S
C2178 C2175 1.463 . S
C2178 N2182 1.427 . S
C2179 H2169 0.929 . S
C2179 C2177 1.433 . S
C2179 N2182 1.384 . S
C2180 H2171 0.929 . S
C2180 C2172 1.378 . S
C2180 C2175 1.350 . S
C2181 H2168 0.929 . S
C2181 C2173 1.433 . S
C2181 N2183 1.384 . S
N2182 C2178 1.427 . S
N2182 C2179 1.384 . S
N2183 C2175 1.427 . S
N2183 C2181 1.384 . S
H2184 C2190 0.930 . S
H2185 C2194 0.930 . S
H2186 C2199 0.929 . S
H2187 C2197 0.929 . S
H2188 C2192 0.929 . S
H2189 C2198 0.929 . S
C2190 H2184 0.930 . S
C2190 C2191 1.367 . S
C2190 C2198 1.378 . S
C2191 C2190 1.367 . S
C2191 C2199 1.433 . S
C2192 H2188 0.929 . S
C2192 C2194 1.378 . S
C2192 C2196 1.350 . S
C2193 C2196 1.463 . S
C2193 C2198 1.350 . S
C2193 N2201 1.427 . S
C2194 H2185 0.930 . S
C2194 C2192 1.378 . S
C2194 C2195 1.367 . S
C2195 C2194 1.367 . S
C2195 C2197 1.433 . S
C2196 C2192 1.350 . S
C2196 C2193 1.463 . S
C2196 N2200 1.427 . S
C2197 H2187 0.929 . S
C2197 C2195 1.433 . S
C2197 N2200 1.384 . S
C2198 H2189 0.929 . S
C2198 C2190 1.378 . S
C2198 C2193 1.350 . S
C2199 H2186 0.929 . S
C2199 C2191 1.433 . S
C2199 N2201 1.384 . S
N2200 C2196 1.427 . S
N2200 C2197 1.384 . S
N2201 C2193 1.427 . S
N2201 C2199 1.384 . S
H2202 C2208 0.930 . S
H2203 C2212 0.930 . S
H2204 C2217 0.929 . S
H2205 C2215 0.929 . S
H2206 C2210 0.929 . S
H2207 C2216 0.929 . S
C2208 H2202 0.930 . S
C2208 C2209 1.367 . S
C2208 C2216 1.378 . S
C2209 C2208 1.367 . S
C2209 C2217 1.433 . S
C2210 H2206 0.929 . S
C2210 C2212 1.378 . S
C2210 C2214 1.350 . S
C2211 C2214 1.463 . S
C2211 C2216 1.350 . S
C2211 N2219 1.427 . S
C2212 H2203 0.930 . S
C2212 C2210 1.378 . S
C2212 C2213 1.367 . S
C2213 C2212 1.367 . S
C2213 C2215 1.433 . S
C2214 C2210 1.350 . S
C2214 C2211 1.463 . S
C2214 N2218 1.427 . S
C2215 H2205 0.929 . S
C2215 C2213 1.433 . S
C2215 N2218 1.384 . S
C2216 H2207 0.929 . S
C2216 C2208 1.378 . S
C2216 C2211 1.350 . S
C2217 H2204 0.929 . S
C2217 C2209 1.433 . S
C2217 N2219 1.384 . S
N2218 C2214 1.427 . S
N2218 C2215 1.384 . S
N2219 C2211 1.427 . S
N2219 C2217 1.384 . S
H2220 C2226 0.930 . S
H2221 C2230 0.930 1_545 S
H2222 C2235 0.929 . S
H2223 C2233 0.929 . S
H2224 C2228 0.929 . S
H2225 C2234 0.929 . S
C2226 H2220 0.930 . S
C2226 C2227 1.367 . S
C2226 C2234 1.378 . S
C2227 C2226 1.367 . S
C2227 C2235 1.433 . S
C2228 H2224 0.929 . S
C2228 C2230 1.378 . S
C2228 C2232 1.350 . S
C2229 C2232 1.463 . S
C2229 C2234 1.350 . S
C2229 N2237 1.427 . S
C2230 H2221 0.930 1_565 S
C2230 C2228 1.378 . S
C2230 C2231 1.367 . S
C2231 C2230 1.367 . S
C2231 C2233 1.433 . S
C2232 C2228 1.350 . S
C2232 C2229 1.463 . S
C2232 N2236 1.427 . S
C2233 H2223 0.929 . S
C2233 C2231 1.433 . S
C2233 N2236 1.384 . S
C2234 H2225 0.929 . S
C2234 C2226 1.378 . S
C2234 C2229 1.350 . S
C2235 H2222 0.929 . S
C2235 C2227 1.433 . S
C2235 N2237 1.384 . S
N2236 C2232 1.427 . S
N2236 C2233 1.384 . S
N2237 C2229 1.427 . S
N2237 C2235 1.384 . S
H2238 C2244 0.930 . S
H2239 C2248 0.930 . S
H2240 C2253 0.929 . S
H2241 C2251 0.929 . S
H2242 C2246 0.929 . S
H2243 C2252 0.929 . S
C2244 H2238 0.930 . S
C2244 C2245 1.367 . S
C2244 C2252 1.378 . S
C2245 C2244 1.367 . S
C2245 C2253 1.433 . S
C2246 H2242 0.929 . S
C2246 C2248 1.378 . S
C2246 C2250 1.350 . S
C2247 C2250 1.463 . S
C2247 C2252 1.350 . S
C2247 N2255 1.427 . S
C2248 H2239 0.930 . S
C2248 C2246 1.378 . S
C2248 C2249 1.367 . S
C2249 C2248 1.367 . S
C2249 C2251 1.433 . S
C2250 C2246 1.350 . S
C2250 C2247 1.463 . S
C2250 N2254 1.427 . S
C2251 H2241 0.929 . S
C2251 C2249 1.433 . S
C2251 N2254 1.384 . S
C2252 H2243 0.929 . S
C2252 C2244 1.378 . S
C2252 C2247 1.350 . S
C2253 H2240 0.929 . S
C2253 C2245 1.433 . S
C2253 N2255 1.384 . S
N2254 C2250 1.427 . S
N2254 C2251 1.384 . S
N2255 C2247 1.427 . S
N2255 C2253 1.384 . S
H2256 C2262 0.930 . S
H2257 C2266 0.928 . S
H2258 C2271 0.942 . S
H2259 C2269 0.929 . S
H2260 C2264 0.929 1_565 S
H2261 C2270 0.929 . S
C2262 H2256 0.930 . S
C2262 C2263 1.367 . S
C2262 C2270 1.378 . S
C2263 C2262 1.367 . S
C2263 C2271 1.420 1_545 S
C2264 H2260 0.929 1_545 S
C2264 C2266 1.378 . S
C2264 C2268 1.350 . S
C2265 C2268 1.463 . S
C2265 C2270 1.350 . S
C2265 N2273 1.427 . S
C2266 H2257 0.928 . S
C2266 C2264 1.378 . S
C2266 C2267 1.367 . S
C2267 C2266 1.367 . S
C2267 C2269 1.433 . S
C2268 C2264 1.350 . S
C2268 C2265 1.463 . S
C2268 N2272 1.427 . S
C2269 H2259 0.929 . S
C2269 C2267 1.433 . S
C2269 N2272 1.384 . S
C2270 H2261 0.929 . S
C2270 C2262 1.378 . S
C2270 C2265 1.350 . S
C2271 H2258 0.942 . S
C2271 C2263 1.420 1_565 S
C2271 N2273 1.384 1_565 S
N2272 C2268 1.427 . S
N2272 C2269 1.384 . S
N2273 C2265 1.427 . S
N2273 C2271 1.384 1_545 S
H2274 C2280 0.930 . S
H2275 C2284 0.930 . S
H2276 C2289 0.929 . S
H2277 C2287 0.929 . S
H2278 C2282 0.929 . S
H2279 C2288 0.929 . S
C2280 H2274 0.930 . S
C2280 C2281 1.367 . S
C2280 C2288 1.378 . S
C2281 C2280 1.367 . S
C2281 C2289 1.433 . S
C2282 H2278 0.929 . S
C2282 C2284 1.378 . S
C2282 C2286 1.350 . S
C2283 C2286 1.463 . S
C2283 C2288 1.350 . S
C2283 N2291 1.427 . S
C2284 H2275 0.930 . S
C2284 C2282 1.378 . S
C2284 C2285 1.367 . S
C2285 C2284 1.367 . S
C2285 C2287 1.433 . S
C2286 C2282 1.350 . S
C2286 C2283 1.463 . S
C2286 N2290 1.427 . S
C2287 H2277 0.929 . S
C2287 C2285 1.433 . S
C2287 N2290 1.384 . S
C2288 H2279 0.929 . S
C2288 C2280 1.378 . S
C2288 C2283 1.350 . S
C2289 H2276 0.929 . S
C2289 C2281 1.433 . S
C2289 N2291 1.384 . S
N2290 C2286 1.427 . S
N2290 C2287 1.384 . S
N2291 C2283 1.427 . S
N2291 C2289 1.384 . S
H2292 C2298 0.930 . S
H2293 C2302 0.930 . S
H2294 C2307 0.929 . S
H2295 C2305 0.929 . S
H2296 C2300 0.929 . S
H2297 C2306 0.929 . S
C2298 H2292 0.930 . S
C2298 C2299 1.367 . S
C2298 C2306 1.378 . S
C2299 C2298 1.367 . S
C2299 C2307 1.433 . S
C2300 H2296 0.929 . S
C2300 C2302 1.378 . S
C2300 C2304 1.350 . S
C2301 C2304 1.463 . S
C2301 C2306 1.350 . S
C2301 N2309 1.427 . S
C2302 H2293 0.930 . S
C2302 C2300 1.378 . S
C2302 C2303 1.367 . S
C2303 C2302 1.367 . S
C2303 C2305 1.433 . S
C2304 C2300 1.350 . S
C2304 C2301 1.463 . S
C2304 N2308 1.427 . S
C2305 H2295 0.929 . S
C2305 C2303 1.433 . S
C2305 N2308 1.384 . S
C2306 H2297 0.929 . S
C2306 C2298 1.378 . S
C2306 C2301 1.350 . S
C2307 H2294 0.929 . S
C2307 C2299 1.433 . S
C2307 N2309 1.384 . S
N2308 C2304 1.427 . S
N2308 C2305 1.384 . S
N2309 C2301 1.427 . S
N2309 C2307 1.384 . S
H2310 C2316 0.930 . S
H2311 C2320 0.930 . S
H2312 C2325 0.929 . S
H2313 C2323 0.929 . S
H2314 C2318 0.929 . S
H2315 C2324 0.929 . S
C2316 H2310 0.930 . S
C2316 C2317 1.367 . S
C2316 C2324 1.378 . S
C2317 C2316 1.367 . S
C2317 C2325 1.433 . S
C2318 H2314 0.929 . S
C2318 C2320 1.378 . S
C2318 C2322 1.350 . S
C2319 C2322 1.463 . S
C2319 C2324 1.350 . S
C2319 N2327 1.427 . S
C2320 H2311 0.930 . S
C2320 C2318 1.378 . S
C2320 C2321 1.367 . S
C2321 C2320 1.367 . S
C2321 C2323 1.433 . S
C2322 C2318 1.350 . S
C2322 C2319 1.463 . S
C2322 N2326 1.427 . S
C2323 H2313 0.929 . S
C2323 C2321 1.433 . S
C2323 N2326 1.384 . S
C2324 H2315 0.929 . S
C2324 C2316 1.378 . S
C2324 C2319 1.350 . S
C2325 H2312 0.929 . S
C2325 C2317 1.433 . S
C2325 N2327 1.384 . S
N2326 C2322 1.427 . S
N2326 C2323 1.384 . S
N2327 C2319 1.427 . S
N2327 C2325 1.384 . S
H2328 C2334 0.930 . S
H2329 C2338 0.932 1_565 S
H2330 C2343 0.929 . S
H2331 C2341 0.929 . S
H2332 C2336 0.929 . S
H2333 C2342 0.929 . S
C2334 H2328 0.930 . S
C2334 C2335 1.367 1_545 S
C2334 C2342 1.378 . S
C2335 C2334 1.367 1_565 S
C2335 C2343 1.433 . S
C2336 H2332 0.929 . S
C2336 C2338 1.380 1_565 S
C2336 C2340 1.350 1_565 S
C2337 C2340 1.463 . S
C2337 C2342 1.350 . S
C2337 N2345 1.427 1_545 S
C2338 H2329 0.932 1_545 S
C2338 C2336 1.380 1_545 S
C2338 C2339 1.363 . S
C2339 C2338 1.363 . S
C2339 C2341 1.433 . S
C2340 C2336 1.350 1_545 S
C2340 C2337 1.463 . S
C2340 N2344 1.427 . S
C2341 H2331 0.929 . S
C2341 C2339 1.433 . S
C2341 N2344 1.384 . S
C2342 H2333 0.929 . S
C2342 C2334 1.378 . S
C2342 C2337 1.350 . S
C2343 H2330 0.929 . S
C2343 C2335 1.433 . S
C2343 N2345 1.384 . S
N2344 C2340 1.427 . S
N2344 C2341 1.384 . S
N2345 C2337 1.427 1_565 S
N2345 C2343 1.384 . S
H2346 C2352 0.930 . S
H2347 C2356 0.930 . S
H2348 C2361 0.929 . S
H2349 C2359 0.929 . S
H2350 C2354 0.929 . S
H2351 C2360 0.929 . S
C2352 H2346 0.930 . S
C2352 C2353 1.367 . S
C2352 C2360 1.378 . S
C2353 C2352 1.367 . S
C2353 C2361 1.433 . S
C2354 H2350 0.929 . S
C2354 C2356 1.378 . S
C2354 C2358 1.350 . S
C2355 C2358 1.463 . S
C2355 C2360 1.350 . S
C2355 N2363 1.427 . S
C2356 H2347 0.930 . S
C2356 C2354 1.378 . S
C2356 C2357 1.367 . S
C2357 C2356 1.367 . S
C2357 C2359 1.433 . S
C2358 C2354 1.350 . S
C2358 C2355 1.463 . S
C2358 N2362 1.427 . S
C2359 H2349 0.929 . S
C2359 C2357 1.433 . S
C2359 N2362 1.384 . S
C2360 H2351 0.929 . S
C2360 C2352 1.378 . S
C2360 C2355 1.350 . S
C2361 H2348 0.929 . S
C2361 C2353 1.433 . S
C2361 N2363 1.384 . S
N2362 C2358 1.427 . S
N2362 C2359 1.384 . S
N2363 C2355 1.427 . S
N2363 C2361 1.384 . S
H2364 C2370 0.930 . S
H2365 C2374 0.930 1_565 S
H2366 C2379 0.929 . S
H2367 C2377 0.929 . S
H2368 C2372 0.909 1_565 S
H2369 C2378 0.929 . S
C2370 H2364 0.930 . S
C2370 C2371 1.367 . S
C2370 C2378 1.378 . S
C2371 C2370 1.367 . S
C2371 C2379 1.433 1_545 S
C2372 H2368 0.909 1_545 S
C2372 C2374 1.380 . S
C2372 C2376 1.367 . S
C2373 C2376 1.463 . S
C2373 C2378 1.350 . S
C2373 N2381 1.427 1_545 S
C2374 H2365 0.930 1_545 S
C2374 C2372 1.380 . S
C2374 C2375 1.367 . S
C2375 C2374 1.367 . S
C2375 C2377 1.433 . S
C2376 C2372 1.367 . S
C2376 C2373 1.463 . S
C2376 N2380 1.427 . S
C2377 H2367 0.929 . S
C2377 C2375 1.433 . S
C2377 N2380 1.384 . S
C2378 H2369 0.929 . S
C2378 C2370 1.378 . S
C2378 C2373 1.350 . S
C2379 H2366 0.929 . S
C2379 C2371 1.433 1_565 S
C2379 N2381 1.384 . S
N2380 C2376 1.427 . S
N2380 C2377 1.384 . S
N2381 C2373 1.427 1_565 S
N2381 C2379 1.384 . S
H2382 C2388 0.930 . S
H2383 C2392 0.930 . S
H2384 C2397 0.929 . S
H2385 C2395 0.929 . S
H2386 C2390 0.929 . S
H2387 C2396 0.929 . S
C2388 H2382 0.930 . S
C2388 C2389 1.367 . S
C2388 C2396 1.378 . S
C2389 C2388 1.367 . S
C2389 C2397 1.433 . S
C2390 H2386 0.929 . S
C2390 C2392 1.378 . S
C2390 C2394 1.350 . S
C2391 C2394 1.463 . S
C2391 C2396 1.350 . S
C2391 N2399 1.427 . S
C2392 H2383 0.930 . S
C2392 C2390 1.378 . S
C2392 C2393 1.367 . S
C2393 C2392 1.367 . S
C2393 C2395 1.433 . S
C2394 C2390 1.350 . S
C2394 C2391 1.463 . S
C2394 N2398 1.427 . S
C2395 H2385 0.929 . S
C2395 C2393 1.433 . S
C2395 N2398 1.384 . S
C2396 H2387 0.929 . S
C2396 C2388 1.378 . S
C2396 C2391 1.350 . S
C2397 H2384 0.929 . S
C2397 C2389 1.433 . S
C2397 N2399 1.384 . S
N2398 C2394 1.427 . S
N2398 C2395 1.384 . S
N2399 C2391 1.427 . S
N2399 C2397 1.384 . S
H2400 C2406 0.930 . S
H2401 C2410 0.930 . S
H2402 C2415 0.929 . S
H2403 C2413 0.929 . S
H2404 C2408 0.929 . S
H2405 C2414 0.929 . S
C2406 H2400 0.930 . S
C2406 C2407 1.367 . S
C2406 C2414 1.378 . S
C2407 C2406 1.367 . S
C2407 C2415 1.433 . S
C2408 H2404 0.929 . S
C2408 C2410 1.378 . S
C2408 C2412 1.350 . S
C2409 C2412 1.463 . S
C2409 C2414 1.350 . S
C2409 N2417 1.427 . S
C2410 H2401 0.930 . S
C2410 C2408 1.378 . S
C2410 C2411 1.367 . S
C2411 C2410 1.367 . S
C2411 C2413 1.433 . S
C2412 C2408 1.350 . S
C2412 C2409 1.463 . S
C2412 N2416 1.427 . S
C2413 H2403 0.929 . S
C2413 C2411 1.433 . S
C2413 N2416 1.384 . S
C2414 H2405 0.929 . S
C2414 C2406 1.378 . S
C2414 C2409 1.350 . S
C2415 H2402 0.929 . S
C2415 C2407 1.433 . S
C2415 N2417 1.384 . S
N2416 C2412 1.427 . S
N2416 C2413 1.384 . S
N2417 C2409 1.427 . S
N2417 C2415 1.384 . S
H2418 C2424 0.930 . S
H2419 C2428 0.930 . S
H2420 C2433 0.929 . S
H2421 C2431 0.929 . S
H2422 C2426 0.929 . S
H2423 C2432 0.929 . S
C2424 H2418 0.930 . S
C2424 C2425 1.367 . S
C2424 C2432 1.378 . S
C2425 C2424 1.367 . S
C2425 C2433 1.433 . S
C2426 H2422 0.929 . S
C2426 C2428 1.378 . S
C2426 C2430 1.350 . S
C2427 C2430 1.463 . S
C2427 C2432 1.350 . S
C2427 N2435 1.427 . S
C2428 H2419 0.930 . S
C2428 C2426 1.378 . S
C2428 C2429 1.367 . S
C2429 C2428 1.367 . S
C2429 C2431 1.433 . S
C2430 C2426 1.350 . S
C2430 C2427 1.463 . S
C2430 N2434 1.427 . S
C2431 H2421 0.929 . S
C2431 C2429 1.433 . S
C2431 N2434 1.384 . S
C2432 H2423 0.929 . S
C2432 C2424 1.378 . S
C2432 C2427 1.350 . S
C2433 H2420 0.929 . S
C2433 C2425 1.433 . S
C2433 N2435 1.384 . S
N2434 C2430 1.427 . S
N2434 C2431 1.384 . S
N2435 C2427 1.427 . S
N2435 C2433 1.384 . S
H2436 C2442 0.930 . S
H2437 C2446 0.930 . S
H2438 C2451 0.929 . S
H2439 C2449 0.929 . S
H2440 C2444 0.929 . S
H2441 C2450 0.929 . S
C2442 H2436 0.930 . S
C2442 C2443 1.367 . S
C2442 C2450 1.378 . S
C2443 C2442 1.367 . S
C2443 C2451 1.433 . S
C2444 H2440 0.929 . S
C2444 C2446 1.378 . S
C2444 C2448 1.350 . S
C2445 C2448 1.463 . S
C2445 C2450 1.350 . S
C2445 N2453 1.427 . S
C2446 H2437 0.930 . S
C2446 C2444 1.378 . S
C2446 C2447 1.367 . S
C2447 C2446 1.367 . S
C2447 C2449 1.433 . S
C2448 C2444 1.350 . S
C2448 C2445 1.463 . S
C2448 N2452 1.427 . S
C2449 H2439 0.929 . S
C2449 C2447 1.433 . S
C2449 N2452 1.384 . S
C2450 H2441 0.929 . S
C2450 C2442 1.378 . S
C2450 C2445 1.350 . S
C2451 H2438 0.929 . S
C2451 C2443 1.433 . S
C2451 N2453 1.384 . S
N2452 C2448 1.427 . S
N2452 C2449 1.384 . S
N2453 C2445 1.427 . S
N2453 C2451 1.384 . S
H2454 C2460 0.930 . S
H2455 C2464 0.930 . S
H2456 C2469 0.929 . S
H2457 C2467 0.929 . S
H2458 C2462 0.929 . S
H2459 C2468 0.929 . S
C2460 H2454 0.930 . S
C2460 C2461 1.367 . S
C2460 C2468 1.378 . S
C2461 C2460 1.367 . S
C2461 C2469 1.433 . S
C2462 H2458 0.929 . S
C2462 C2464 1.378 . S
C2462 C2466 1.350 . S
C2463 C2466 1.463 . S
C2463 C2468 1.350 . S
C2463 N2471 1.427 . S
C2464 H2455 0.930 . S
C2464 C2462 1.378 . S
C2464 C2465 1.367 . S
C2465 C2464 1.367 . S
C2465 C2467 1.433 . S
C2466 C2462 1.350 . S
C2466 C2463 1.463 . S
C2466 N2470 1.427 . S
C2467 H2457 0.929 . S
C2467 C2465 1.433 . S
C2467 N2470 1.384 . S
C2468 H2459 0.929 . S
C2468 C2460 1.378 . S
C2468 C2463 1.350 . S
C2469 H2456 0.929 . S
C2469 C2461 1.433 . S
C2469 N2471 1.384 . S
N2470 C2466 1.427 . S
N2470 C2467 1.384 . S
N2471 C2463 1.427 . S
N2471 C2469 1.384 . S
H2472 C2478 0.930 1_545 S
H2473 C2482 0.930 . S
H2474 C2487 0.929 . S
H2475 C2485 0.929 . S
H2476 C2480 0.929 . S
H2477 C2486 0.929 . S
C2478 H2472 0.930 1_565 S
C2478 C2479 1.367 . S
C2478 C2486 1.378 . S
C2479 C2478 1.367 . S
C2479 C2487 1.433 . S
C2480 H2476 0.929 . S
C2480 C2482 1.378 . S
C2480 C2484 1.350 . S
C2481 C2484 1.463 . S
C2481 C2486 1.350 . S
C2481 N2489 1.427 . S
C2482 H2473 0.930 . S
C2482 C2480 1.378 . S
C2482 C2483 1.367 . S
C2483 C2482 1.367 . S
C2483 C2485 1.433 . S
C2484 C2480 1.350 . S
C2484 C2481 1.463 . S
C2484 N2488 1.427 . S
C2485 H2475 0.929 . S
C2485 C2483 1.433 . S
C2485 N2488 1.384 . S
C2486 H2477 0.929 . S
C2486 C2478 1.378 . S
C2486 C2481 1.350 . S
C2487 H2474 0.929 . S
C2487 C2479 1.433 . S
C2487 N2489 1.384 . S
N2488 C2484 1.427 . S
N2488 C2485 1.384 . S
N2489 C2481 1.427 . S
N2489 C2487 1.384 . S
H2490 C2496 0.930 . S
H2491 C2500 0.930 . S
H2492 C2505 0.929 . S
H2493 C2503 0.929 . S
H2494 C2498 0.929 . S
H2495 C2504 0.929 . S
C2496 H2490 0.930 . S
C2496 C2497 1.367 . S
C2496 C2504 1.378 . S
C2497 C2496 1.367 . S
C2497 C2505 1.433 . S
C2498 H2494 0.929 . S
C2498 C2500 1.378 . S
C2498 C2502 1.350 . S
C2499 C2502 1.463 . S
C2499 C2504 1.350 . S
C2499 N2507 1.427 . S
C2500 H2491 0.930 . S
C2500 C2498 1.378 . S
C2500 C2501 1.367 . S
C2501 C2500 1.367 . S
C2501 C2503 1.433 . S
C2502 C2498 1.350 . S
C2502 C2499 1.463 . S
C2502 N2506 1.427 . S
C2503 H2493 0.929 . S
C2503 C2501 1.433 . S
C2503 N2506 1.384 . S
C2504 H2495 0.929 . S
C2504 C2496 1.378 . S
C2504 C2499 1.350 . S
C2505 H2492 0.929 . S
C2505 C2497 1.433 . S
C2505 N2507 1.384 . S
N2506 C2502 1.427 . S
N2506 C2503 1.384 . S
N2507 C2499 1.427 . S
N2507 C2505 1.384 . S
H2508 C2514 0.930 . S
H2509 C2518 0.930 . S
H2510 C2523 0.929 . S
H2511 C2521 0.929 . S
H2512 C2516 0.929 . S
H2513 C2522 0.929 . S
C2514 H2508 0.930 . S
C2514 C2515 1.367 . S
C2514 C2522 1.378 . S
C2515 C2514 1.367 . S
C2515 C2523 1.433 . S
C2516 H2512 0.929 . S
C2516 C2518 1.378 . S
C2516 C2520 1.350 . S
C2517 C2520 1.463 . S
C2517 C2522 1.350 . S
C2517 N2525 1.427 . S
C2518 H2509 0.930 . S
C2518 C2516 1.378 . S
C2518 C2519 1.367 . S
C2519 C2518 1.367 . S
C2519 C2521 1.433 . S
C2520 C2516 1.350 . S
C2520 C2517 1.463 . S
C2520 N2524 1.427 . S
C2521 H2511 0.929 . S
C2521 C2519 1.433 . S
C2521 N2524 1.384 . S
C2522 H2513 0.929 . S
C2522 C2514 1.378 . S
C2522 C2517 1.350 . S
C2523 H2510 0.929 . S
C2523 C2515 1.433 . S
C2523 N2525 1.384 . S
N2524 C2520 1.427 . S
N2524 C2521 1.384 . S
N2525 C2517 1.427 . S
N2525 C2523 1.384 . S
H2526 C2532 0.930 . S
H2527 C2536 0.930 . S
H2528 C2541 0.929 . S
H2529 C2539 0.929 . S
H2530 C2534 0.929 . S
H2531 C2540 0.929 . S
C2532 H2526 0.930 . S
C2532 C2533 1.367 . S
C2532 C2540 1.378 . S
C2533 C2532 1.367 . S
C2533 C2541 1.433 . S
C2534 H2530 0.929 . S
C2534 C2536 1.378 . S
C2534 C2538 1.350 . S
C2535 C2538 1.463 . S
C2535 C2540 1.350 . S
C2535 N2543 1.427 . S
C2536 H2527 0.930 . S
C2536 C2534 1.378 . S
C2536 C2537 1.367 . S
C2537 C2536 1.367 . S
C2537 C2539 1.433 . S
C2538 C2534 1.350 . S
C2538 C2535 1.463 . S
C2538 N2542 1.427 . S
C2539 H2529 0.929 . S
C2539 C2537 1.433 . S
C2539 N2542 1.384 . S
C2540 H2531 0.929 . S
C2540 C2532 1.378 . S
C2540 C2535 1.350 . S
C2541 H2528 0.929 . S
C2541 C2533 1.433 . S
C2541 N2543 1.384 . S
N2542 C2538 1.427 . S
N2542 C2539 1.384 . S
N2543 C2535 1.427 . S
N2543 C2541 1.384 . S
H2544 C2550 0.930 . S
H2545 C2554 0.930 . S
H2546 C2559 0.929 . S
H2547 C2557 0.929 . S
H2548 C2552 0.929 . S
H2549 C2558 0.929 . S
C2550 H2544 0.930 . S
C2550 C2551 1.367 . S
C2550 C2558 1.378 . S
C2551 C2550 1.367 . S
C2551 C2559 1.433 . S
C2552 H2548 0.929 . S
C2552 C2554 1.378 . S
C2552 C2556 1.350 . S
C2553 C2556 1.463 . S
C2553 C2558 1.350 . S
C2553 N2561 1.427 . S
C2554 H2545 0.930 . S
C2554 C2552 1.378 . S
C2554 C2555 1.367 . S
C2555 C2554 1.367 . S
C2555 C2557 1.433 . S
C2556 C2552 1.350 . S
C2556 C2553 1.463 . S
C2556 N2560 1.427 . S
C2557 H2547 0.929 . S
C2557 C2555 1.433 . S
C2557 N2560 1.384 . S
C2558 H2549 0.929 . S
C2558 C2550 1.378 . S
C2558 C2553 1.350 . S
C2559 H2546 0.929 . S
C2559 C2551 1.433 . S
C2559 N2561 1.384 . S
N2560 C2556 1.427 . S
N2560 C2557 1.384 . S
N2561 C2553 1.427 . S
N2561 C2559 1.384 . S
H2562 C2568 0.930 . S
H2563 C2572 0.930 . S
H2564 C2577 0.929 . S
H2565 C2575 0.929 . S
H2566 C2570 0.929 . S
H2567 C2576 0.929 . S
C2568 H2562 0.930 . S
C2568 C2569 1.367 . S
C2568 C2576 1.378 . S
C2569 C2568 1.367 . S
C2569 C2577 1.433 . S
C2570 H2566 0.929 . S
C2570 C2572 1.378 . S
C2570 C2574 1.350 . S
C2571 C2574 1.463 . S
C2571 C2576 1.350 . S
C2571 N2579 1.427 . S
C2572 H2563 0.930 . S
C2572 C2570 1.378 . S
C2572 C2573 1.367 . S
C2573 C2572 1.367 . S
C2573 C2575 1.433 . S
C2574 C2570 1.350 . S
C2574 C2571 1.463 . S
C2574 N2578 1.427 . S
C2575 H2565 0.929 . S
C2575 C2573 1.433 . S
C2575 N2578 1.384 . S
C2576 H2567 0.929 . S
C2576 C2568 1.378 . S
C2576 C2571 1.350 . S
C2577 H2564 0.929 . S
C2577 C2569 1.433 . S
C2577 N2579 1.384 . S
N2578 C2574 1.427 . S
N2578 C2575 1.384 . S
N2579 C2571 1.427 . S
N2579 C2577 1.384 . S
H2580 C2586 0.930 1_655 S
H2581 C2590 0.930 . S
H2582 C2595 0.929 . S
H2583 C2593 0.929 . S
H2584 C2588 0.929 . S
H2585 C2594 0.929 . S
C2586 H2580 0.930 1_455 S
C2586 C2587 1.367 . S
C2586 C2594 1.378 . S
C2587 C2586 1.367 . S
C2587 C2595 1.433 . S
C2588 H2584 0.929 . S
C2588 C2590 1.378 . S
C2588 C2592 1.350 1_554 S
C2589 C2592 1.463 . S
C2589 C2594 1.350 . S
C2589 N2597 1.427 . S
C2590 H2581 0.930 . S
C2590 C2588 1.378 . S
C2590 C2591 1.367 . S
C2591 C2590 1.367 . S
C2591 C2593 1.433 1_554 S
C2592 C2588 1.350 1_556 S
C2592 C2589 1.463 . S
C2592 N2596 1.427 . S
C2593 H2583 0.929 . S
C2593 C2591 1.433 1_556 S
C2593 N2596 1.384 . S
C2594 H2585 0.929 . S
C2594 C2586 1.378 . S
C2594 C2589 1.350 . S
C2595 H2582 0.929 . S
C2595 C2587 1.433 . S
C2595 N2597 1.384 . S
N2596 C2592 1.427 . S
N2596 C2593 1.384 . S
N2597 C2589 1.427 . S
N2597 C2595 1.384 . S
H2598 C2604 0.930 . S
H2599 C2608 0.930 . S
H2600 C2613 0.929 . S
H2601 C2611 0.929 . S
H2602 C2606 0.929 . S
H2603 C2612 0.929 . S
C2604 H2598 0.930 . S
C2604 C2605 1.367 . S
C2604 C2612 1.378 . S
C2605 C2604 1.367 . S
C2605 C2613 1.433 . S
C2606 H2602 0.929 . S
C2606 C2608 1.378 . S
C2606 C2610 1.350 . S
C2607 C2610 1.423 1_455 S
C2607 C2612 1.391 . S
C2607 N2615 1.423 1_455 S
C2608 H2599 0.930 . S
C2608 C2606 1.378 . S
C2608 C2609 1.367 . S
C2609 C2608 1.367 . S
C2609 C2611 1.433 . S
C2610 C2606 1.350 . S
C2610 C2607 1.423 1_655 S
C2610 N2614 1.427 . S
C2611 H2601 0.929 . S
C2611 C2609 1.433 . S
C2611 N2614 1.384 . S
C2612 H2603 0.929 . S
C2612 C2604 1.378 . S
C2612 C2607 1.391 . S
C2613 H2600 0.929 . S
C2613 C2605 1.433 . S
C2613 N2615 1.384 1_455 S
N2614 C2610 1.427 . S
N2614 C2611 1.384 . S
N2615 C2607 1.423 1_655 S
N2615 C2613 1.384 1_655 S
H2616 C2622 0.930 . S
H2617 C2626 0.930 . S
H2618 C2631 0.929 . S
H2619 C2629 0.929 . S
H2620 C2624 0.929 . S
H2621 C2630 0.929 . S
C2622 H2616 0.930 . S
C2622 C2623 1.367 . S
C2622 C2630 1.378 . S
C2623 C2622 1.367 . S
C2623 C2631 1.433 . S
C2624 H2620 0.929 . S
C2624 C2626 1.378 . S
C2624 C2628 1.350 . S
C2625 C2628 1.463 . S
C2625 C2630 1.350 . S
C2625 N2633 1.427 . S
C2626 H2617 0.930 . S
C2626 C2624 1.378 . S
C2626 C2627 1.367 . S
C2627 C2626 1.367 . S
C2627 C2629 1.433 . S
C2628 C2624 1.350 . S
C2628 C2625 1.463 . S
C2628 N2632 1.427 . S
C2629 H2619 0.929 . S
C2629 C2627 1.433 . S
C2629 N2632 1.384 . S
C2630 H2621 0.929 . S
C2630 C2622 1.378 . S
C2630 C2625 1.350 . S
C2631 H2618 0.929 . S
C2631 C2623 1.433 . S
C2631 N2633 1.384 . S
N2632 C2628 1.427 . S
N2632 C2629 1.384 . S
N2633 C2625 1.427 . S
N2633 C2631 1.384 . S
H2634 C2640 0.930 . S
H2635 C2644 0.930 . S
H2636 C2649 0.929 . S
H2637 C2647 0.929 . S
H2638 C2642 0.929 1_455 S
H2639 C2648 0.929 . S
C2640 H2634 0.930 . S
C2640 C2641 1.367 . S
C2640 C2648 1.378 . S
C2641 C2640 1.367 . S
C2641 C2649 1.433 . S
C2642 H2638 0.929 1_655 S
C2642 C2644 1.378 . S
C2642 C2646 1.350 1_655 S
C2643 C2646 1.463 . S
C2643 C2648 1.350 . S
C2643 N2651 1.427 . S
C2644 H2635 0.930 . S
C2644 C2642 1.378 . S
C2644 C2645 1.367 . S
C2645 C2644 1.367 . S
C2645 C2647 1.433 . S
C2646 C2642 1.350 1_455 S
C2646 C2643 1.463 . S
C2646 N2650 1.427 1_455 S
C2647 H2637 0.929 . S
C2647 C2645 1.433 . S
C2647 N2650 1.384 . S
C2648 H2639 0.929 . S
C2648 C2640 1.378 . S
C2648 C2643 1.350 . S
C2649 H2636 0.929 . S
C2649 C2641 1.433 . S
C2649 N2651 1.384 . S
N2650 C2646 1.427 1_655 S
N2650 C2647 1.384 . S
N2651 C2643 1.427 . S
N2651 C2649 1.384 . S
H2652 C2658 0.930 . S
H2653 C2662 0.930 . S
H2654 C2667 0.929 . S
H2655 C2665 0.929 . S
H2656 C2660 0.929 . S
H2657 C2666 0.929 . S
C2658 H2652 0.930 . S
C2658 C2659 1.367 . S
C2658 C2666 1.378 . S
C2659 C2658 1.367 . S
C2659 C2667 1.433 1_655 S
C2660 H2656 0.929 . S
C2660 C2662 1.378 . S
C2660 C2664 1.350 . S
C2661 C2664 1.463 . S
C2661 C2666 1.350 1_455 S
C2661 N2669 1.427 . S
C2662 H2653 0.930 . S
C2662 C2660 1.378 . S
C2662 C2663 1.367 . S
C2663 C2662 1.367 . S
C2663 C2665 1.433 . S
C2664 C2660 1.350 . S
C2664 C2661 1.463 . S
C2664 N2668 1.427 . S
C2665 H2655 0.929 . S
C2665 C2663 1.433 . S
C2665 N2668 1.384 . S
C2666 H2657 0.929 . S
C2666 C2658 1.378 . S
C2666 C2661 1.350 1_655 S
C2667 H2654 0.929 . S
C2667 C2659 1.433 1_455 S
C2667 N2669 1.384 . S
N2668 C2664 1.427 . S
N2668 C2665 1.384 . S
N2669 C2661 1.427 . S
N2669 C2667 1.384 . S
H2670 C2676 0.930 . S
H2671 C2680 0.930 . S
H2672 C2685 0.929 . S
H2673 C2683 0.929 . S
H2674 C2678 0.929 . S
H2675 C2684 0.929 . S
C2676 H2670 0.930 . S
C2676 C2677 1.367 . S
C2676 C2684 1.378 . S
C2677 C2676 1.367 . S
C2677 C2685 1.433 . S
C2678 H2674 0.929 . S
C2678 C2680 1.378 . S
C2678 C2682 1.350 . S
C2679 C2682 1.463 . S
C2679 C2684 1.350 . S
C2679 N2687 1.427 . S
C2680 H2671 0.930 . S
C2680 C2678 1.378 . S
C2680 C2681 1.367 . S
C2681 C2680 1.367 . S
C2681 C2683 1.433 . S
C2682 C2678 1.350 . S
C2682 C2679 1.463 . S
C2682 N2686 1.427 . S
C2683 H2673 0.929 . S
C2683 C2681 1.433 . S
C2683 N2686 1.384 . S
C2684 H2675 0.929 . S
C2684 C2676 1.378 . S
C2684 C2679 1.350 . S
C2685 H2672 0.929 . S
C2685 C2677 1.433 . S
C2685 N2687 1.384 . S
N2686 C2682 1.427 . S
N2686 C2683 1.384 . S
N2687 C2679 1.427 . S
N2687 C2685 1.384 . S
H2688 C2694 0.930 . S
H2689 C2698 0.930 . S
H2690 C2703 0.929 . S
H2691 C2701 0.929 . S
H2692 C2696 0.929 . S
H2693 C2702 0.929 . S
C2694 H2688 0.930 . S
C2694 C2695 1.367 . S
C2694 C2702 1.378 . S
C2695 C2694 1.367 . S
C2695 C2703 1.433 . S
C2696 H2692 0.929 . S
C2696 C2698 1.378 . S
C2696 C2700 1.350 . S
C2697 C2700 1.463 . S
C2697 C2702 1.350 . S
C2697 N2705 1.427 . S
C2698 H2689 0.930 . S
C2698 C2696 1.378 . S
C2698 C2699 1.367 . S
C2699 C2698 1.367 . S
C2699 C2701 1.433 . S
C2700 C2696 1.350 . S
C2700 C2697 1.463 . S
C2700 N2704 1.427 . S
C2701 H2691 0.929 . S
C2701 C2699 1.433 . S
C2701 N2704 1.384 . S
C2702 H2693 0.929 . S
C2702 C2694 1.378 . S
C2702 C2697 1.350 . S
C2703 H2690 0.929 . S
C2703 C2695 1.433 . S
C2703 N2705 1.384 . S
N2704 C2700 1.427 . S
N2704 C2701 1.384 . S
N2705 C2697 1.427 . S
N2705 C2703 1.384 . S
H2706 C2712 0.930 . S
H2707 C2716 0.930 . S
H2708 C2721 0.929 . S
H2709 C2719 0.929 . S
H2710 C2714 0.929 . S
H2711 C2720 0.929 . S
C2712 H2706 0.930 . S
C2712 C2713 1.367 . S
C2712 C2720 1.378 . S
C2713 C2712 1.367 . S
C2713 C2721 1.433 . S
C2714 H2710 0.929 . S
C2714 C2716 1.378 . S
C2714 C2718 1.350 . S
C2715 C2718 1.463 . S
C2715 C2720 1.350 . S
C2715 N2723 1.427 . S
C2716 H2707 0.930 . S
C2716 C2714 1.378 . S
C2716 C2717 1.367 . S
C2717 C2716 1.367 . S
C2717 C2719 1.433 . S
C2718 C2714 1.350 . S
C2718 C2715 1.463 . S
C2718 N2722 1.427 . S
C2719 H2709 0.929 . S
C2719 C2717 1.433 . S
C2719 N2722 1.384 . S
C2720 H2711 0.929 . S
C2720 C2712 1.378 . S
C2720 C2715 1.350 . S
C2721 H2708 0.929 . S
C2721 C2713 1.433 . S
C2721 N2723 1.384 . S
N2722 C2718 1.427 . S
N2722 C2719 1.384 . S
N2723 C2715 1.427 . S
N2723 C2721 1.384 . S
H2724 C2730 0.930 . S
H2725 C2734 0.930 . S
H2726 C2739 0.929 . S
H2727 C2737 0.929 . S
H2728 C2732 0.929 . S
H2729 C2738 0.929 . S
C2730 H2724 0.930 . S
C2730 C2731 1.367 . S
C2730 C2738 1.378 . S
C2731 C2730 1.367 . S
C2731 C2739 1.433 . S
C2732 H2728 0.929 . S
C2732 C2734 1.378 . S
C2732 C2736 1.350 . S
C2733 C2736 1.463 . S
C2733 C2738 1.350 . S
C2733 N2741 1.427 . S
C2734 H2725 0.930 . S
C2734 C2732 1.378 . S
C2734 C2735 1.367 . S
C2735 C2734 1.367 . S
C2735 C2737 1.433 . S
C2736 C2732 1.350 . S
C2736 C2733 1.463 . S
C2736 N2740 1.427 . S
C2737 H2727 0.929 . S
C2737 C2735 1.433 . S
C2737 N2740 1.384 . S
C2738 H2729 0.929 . S
C2738 C2730 1.378 . S
C2738 C2733 1.350 . S
C2739 H2726 0.929 . S
C2739 C2731 1.433 . S
C2739 N2741 1.384 . S
N2740 C2736 1.427 . S
N2740 C2737 1.384 . S
N2741 C2733 1.427 . S
N2741 C2739 1.384 . S
H2742 C2748 0.930 . S
H2743 C2752 0.930 . S
H2744 C2757 0.929 . S
H2745 C2755 0.929 . S
H2746 C2750 0.929 . S
H2747 C2756 0.929 . S
C2748 H2742 0.930 . S
C2748 C2749 1.367 . S
C2748 C2756 1.378 . S
C2749 C2748 1.367 . S
C2749 C2757 1.433 . S
C2750 H2746 0.929 . S
C2750 C2752 1.378 . S
C2750 C2754 1.350 . S
C2751 C2754 1.463 . S
C2751 C2756 1.350 . S
C2751 N2759 1.427 . S
C2752 H2743 0.930 . S
C2752 C2750 1.378 . S
C2752 C2753 1.367 . S
C2753 C2752 1.367 . S
C2753 C2755 1.433 . S
C2754 C2750 1.350 . S
C2754 C2751 1.463 . S
C2754 N2758 1.427 . S
C2755 H2745 0.929 . S
C2755 C2753 1.433 . S
C2755 N2758 1.384 . S
C2756 H2747 0.929 . S
C2756 C2748 1.378 . S
C2756 C2751 1.350 . S
C2757 H2744 0.929 . S
C2757 C2749 1.433 . S
C2757 N2759 1.384 . S
N2758 C2754 1.427 . S
N2758 C2755 1.384 . S
N2759 C2751 1.427 . S
N2759 C2757 1.384 . S
H2760 C2766 0.930 . S
H2761 C2770 0.930 . S
H2762 C2775 0.929 . S
H2763 C2773 0.929 . S
H2764 C2768 0.929 . S
H2765 C2774 0.929 . S
C2766 H2760 0.930 . S
C2766 C2767 1.367 . S
C2766 C2774 1.378 . S
C2767 C2766 1.367 . S
C2767 C2775 1.433 . S
C2768 H2764 0.929 . S
C2768 C2770 1.378 . S
C2768 C2772 1.350 . S
C2769 C2772 1.463 . S
C2769 C2774 1.350 . S
C2769 N2777 1.427 . S
C2770 H2761 0.930 . S
C2770 C2768 1.378 . S
C2770 C2771 1.367 . S
C2771 C2770 1.367 . S
C2771 C2773 1.433 . S
C2772 C2768 1.350 . S
C2772 C2769 1.463 . S
C2772 N2776 1.427 . S
C2773 H2763 0.929 . S
C2773 C2771 1.433 . S
C2773 N2776 1.384 . S
C2774 H2765 0.929 . S
C2774 C2766 1.378 . S
C2774 C2769 1.350 . S
C2775 H2762 0.929 . S
C2775 C2767 1.433 . S
C2775 N2777 1.384 . S
N2776 C2772 1.427 . S
N2776 C2773 1.384 . S
N2777 C2769 1.427 . S
N2777 C2775 1.384 . S
H2778 C2784 0.930 . S
H2779 C2788 0.930 . S
H2780 C2793 0.929 . S
H2781 C2791 0.929 . S
H2782 C2786 0.929 . S
H2783 C2792 0.929 . S
C2784 H2778 0.930 . S
C2784 C2785 1.367 . S
C2784 C2792 1.378 . S
C2785 C2784 1.367 . S
C2785 C2793 1.433 . S
C2786 H2782 0.929 . S
C2786 C2788 1.378 . S
C2786 C2790 1.350 . S
C2787 C2790 1.463 . S
C2787 C2792 1.350 . S
C2787 N2795 1.427 . S
C2788 H2779 0.930 . S
C2788 C2786 1.378 . S
C2788 C2789 1.367 . S
C2789 C2788 1.367 . S
C2789 C2791 1.433 . S
C2790 C2786 1.350 . S
C2790 C2787 1.463 . S
C2790 N2794 1.427 . S
C2791 H2781 0.929 . S
C2791 C2789 1.433 . S
C2791 N2794 1.384 . S
C2792 H2783 0.929 . S
C2792 C2784 1.378 . S
C2792 C2787 1.350 . S
C2793 H2780 0.929 . S
C2793 C2785 1.433 . S
C2793 N2795 1.384 . S
N2794 C2790 1.427 . S
N2794 C2791 1.384 . S
N2795 C2787 1.427 . S
N2795 C2793 1.384 . S
H2796 C2802 0.930 . S
H2797 C2806 0.930 . S
H2798 C2811 0.929 . S
H2799 C2809 0.929 . S
H2800 C2804 0.929 . S
H2801 C2810 0.929 . S
C2802 H2796 0.930 . S
C2802 C2803 1.367 . S
C2802 C2810 1.378 . S
C2803 C2802 1.367 . S
C2803 C2811 1.433 . S
C2804 H2800 0.929 . S
C2804 C2806 1.378 . S
C2804 C2808 1.350 . S
C2805 C2808 1.463 . S
C2805 C2810 1.350 . S
C2805 N2813 1.427 . S
C2806 H2797 0.930 . S
C2806 C2804 1.378 . S
C2806 C2807 1.367 . S
C2807 C2806 1.367 . S
C2807 C2809 1.433 . S
C2808 C2804 1.350 . S
C2808 C2805 1.463 . S
C2808 N2812 1.427 . S
C2809 H2799 0.929 . S
C2809 C2807 1.433 . S
C2809 N2812 1.384 . S
C2810 H2801 0.929 . S
C2810 C2802 1.378 . S
C2810 C2805 1.350 . S
C2811 H2798 0.929 . S
C2811 C2803 1.433 . S
C2811 N2813 1.384 . S
N2812 C2808 1.427 . S
N2812 C2809 1.384 . S
N2813 C2805 1.427 . S
N2813 C2811 1.384 . S
H2814 C2820 0.930 . S
H2815 C2824 0.930 . S
H2816 C2829 0.929 . S
H2817 C2827 0.929 . S
H2818 C2822 0.929 . S
H2819 C2828 0.929 . S
C2820 H2814 0.930 . S
C2820 C2821 1.367 . S
C2820 C2828 1.378 . S
C2821 C2820 1.367 . S
C2821 C2829 1.433 . S
C2822 H2818 0.929 . S
C2822 C2824 1.378 . S
C2822 C2826 1.350 . S
C2823 C2826 1.463 . S
C2823 C2828 1.350 . S
C2823 N2831 1.427 . S
C2824 H2815 0.930 . S
C2824 C2822 1.378 . S
C2824 C2825 1.367 . S
C2825 C2824 1.367 . S
C2825 C2827 1.433 . S
C2826 C2822 1.350 . S
C2826 C2823 1.463 . S
C2826 N2830 1.427 . S
C2827 H2817 0.929 . S
C2827 C2825 1.433 . S
C2827 N2830 1.384 . S
C2828 H2819 0.929 . S
C2828 C2820 1.378 . S
C2828 C2823 1.350 . S
C2829 H2816 0.929 . S
C2829 C2821 1.433 . S
C2829 N2831 1.384 . S
N2830 C2826 1.427 . S
N2830 C2827 1.384 . S
N2831 C2823 1.427 . S
N2831 C2829 1.384 . S
H2832 C2838 0.930 . S
H2833 C2842 0.930 . S
H2834 C2847 0.929 . S
H2835 C2845 0.929 . S
H2836 C2840 0.929 . S
H2837 C2846 0.929 . S
C2838 H2832 0.930 . S
C2838 C2839 1.367 . S
C2838 C2846 1.378 . S
C2839 C2838 1.367 . S
C2839 C2847 1.433 . S
C2840 H2836 0.929 . S
C2840 C2842 1.378 . S
C2840 C2844 1.350 . S
C2841 C2844 1.463 . S
C2841 C2846 1.350 . S
C2841 N2849 1.427 . S
C2842 H2833 0.930 . S
C2842 C2840 1.378 . S
C2842 C2843 1.367 . S
C2843 C2842 1.367 . S
C2843 C2845 1.433 . S
C2844 C2840 1.350 . S
C2844 C2841 1.463 . S
C2844 N2848 1.427 . S
C2845 H2835 0.929 . S
C2845 C2843 1.433 . S
C2845 N2848 1.384 . S
C2846 H2837 0.929 . S
C2846 C2838 1.378 . S
C2846 C2841 1.350 . S
C2847 H2834 0.929 . S
C2847 C2839 1.433 . S
C2847 N2849 1.384 . S
N2848 C2844 1.427 . S
N2848 C2845 1.384 . S
N2849 C2841 1.427 . S
N2849 C2847 1.384 . S
H2850 C2856 0.930 . S
H2851 C2860 0.930 . S
H2852 C2865 0.929 . S
H2853 C2863 0.929 . S
H2854 C2858 0.929 . S
H2855 C2864 0.929 . S
C2856 H2850 0.930 . S
C2856 C2857 1.367 . S
C2856 C2864 1.378 . S
C2857 C2856 1.367 . S
C2857 C2865 1.433 . S
C2858 H2854 0.929 . S
C2858 C2860 1.378 . S
C2858 C2862 1.350 . S
C2859 C2862 1.463 . S
C2859 C2864 1.350 . S
C2859 N2867 1.427 . S
C2860 H2851 0.930 . S
C2860 C2858 1.378 . S
C2860 C2861 1.367 . S
C2861 C2860 1.367 . S
C2861 C2863 1.433 . S
C2862 C2858 1.350 . S
C2862 C2859 1.463 . S
C2862 N2866 1.427 . S
C2863 H2853 0.929 . S
C2863 C2861 1.433 . S
C2863 N2866 1.384 . S
C2864 H2855 0.929 . S
C2864 C2856 1.378 . S
C2864 C2859 1.350 . S
C2865 H2852 0.929 . S
C2865 C2857 1.433 . S
C2865 N2867 1.384 . S
N2866 C2862 1.427 . S
N2866 C2863 1.384 . S
N2867 C2859 1.427 . S
N2867 C2865 1.384 . S
H2868 C2874 0.930 . S
H2869 C2878 0.930 . S
H2870 C2883 0.929 . S
H2871 C2881 0.929 . S
H2872 C2876 0.929 . S
H2873 C2882 0.929 . S
C2874 H2868 0.930 . S
C2874 C2875 1.367 . S
C2874 C2882 1.378 . S
C2875 C2874 1.367 . S
C2875 C2883 1.433 . S
C2876 H2872 0.929 . S
C2876 C2878 1.378 . S
C2876 C2880 1.350 . S
C2877 C2880 1.463 . S
C2877 C2882 1.350 . S
C2877 N2885 1.427 . S
C2878 H2869 0.930 . S
C2878 C2876 1.378 . S
C2878 C2879 1.367 . S
C2879 C2878 1.367 . S
C2879 C2881 1.433 . S
C2880 C2876 1.350 . S
C2880 C2877 1.463 . S
C2880 N2884 1.427 . S
C2881 H2871 0.929 . S
C2881 C2879 1.433 . S
C2881 N2884 1.384 . S
C2882 H2873 0.929 . S
C2882 C2874 1.378 . S
C2882 C2877 1.350 . S
C2883 H2870 0.929 . S
C2883 C2875 1.433 . S
C2883 N2885 1.384 . S
N2884 C2880 1.427 . S
N2884 C2881 1.384 . S
N2885 C2877 1.427 . S
N2885 C2883 1.384 . S
H2886 C2892 0.930 . S
H2887 C2896 0.930 . S
H2888 C2901 0.929 . S
H2889 C2899 0.929 . S
H2890 C2894 0.929 . S
H2891 C2900 0.929 . S
C2892 H2886 0.930 . S
C2892 C2893 1.367 . S
C2892 C2900 1.378 . S
C2893 C2892 1.367 . S
C2893 C2901 1.433 1_554 S
C2894 H2890 0.929 . S
C2894 C2896 1.378 . S
C2894 C2898 1.366 1_556 S
C2895 C2898 1.456 1_565 S
C2895 C2900 1.350 . S
C2895 N2903 1.427 1_554 S
C2896 H2887 0.930 . S
C2896 C2894 1.378 . S
C2896 C2897 1.367 1_556 S
C2897 C2896 1.367 1_554 S
C2897 C2899 1.433 . S
C2898 C2894 1.366 1_554 S
C2898 C2895 1.456 1_545 S
C2898 N2902 1.428 . S
C2899 H2889 0.929 . S
C2899 C2897 1.433 . S
C2899 N2902 1.391 . S
C2900 H2891 0.929 . S
C2900 C2892 1.378 . S
C2900 C2895 1.350 . S
C2901 H2888 0.929 . S
C2901 C2893 1.433 1_556 S
C2901 N2903 1.384 . S
N2902 C2898 1.428 . S
N2902 C2899 1.391 . S
N2903 C2895 1.427 1_556 S
N2903 C2901 1.384 . S
H2904 C2910 0.930 . S
H2905 C2914 0.930 . S
H2906 C2919 0.929 . S
H2907 C2917 0.929 . S
H2908 C2912 0.929 . S
H2909 C2918 0.929 . S
C2910 H2904 0.930 . S
C2910 C2911 1.367 . S
C2910 C2918 1.378 . S
C2911 C2910 1.367 . S
C2911 C2919 1.433 . S
C2912 H2908 0.929 . S
C2912 C2914 1.378 . S
C2912 C2916 1.350 . S
C2913 C2916 1.463 . S
C2913 C2918 1.350 . S
C2913 N2921 1.427 . S
C2914 H2905 0.930 . S
C2914 C2912 1.378 . S
C2914 C2915 1.367 . S
C2915 C2914 1.367 . S
C2915 C2917 1.433 . S
C2916 C2912 1.350 . S
C2916 C2913 1.463 . S
C2916 N2920 1.427 . S
C2917 H2907 0.929 . S
C2917 C2915 1.433 . S
C2917 N2920 1.384 . S
C2918 H2909 0.929 . S
C2918 C2910 1.378 . S
C2918 C2913 1.350 . S
C2919 H2906 0.929 . S
C2919 C2911 1.433 . S
C2919 N2921 1.384 . S
N2920 C2916 1.427 . S
N2920 C2917 1.384 . S
N2921 C2913 1.427 . S
N2921 C2919 1.384 . S
H2922 C2928 0.930 . S
H2923 C2932 0.930 . S
H2924 C2937 0.929 . S
H2925 C2935 0.929 1_556 S
H2926 C2930 0.929 . S
H2927 C2936 0.929 . S
C2928 H2922 0.930 . S
C2928 C2929 1.351 1_556 S
C2928 C2936 1.378 . S
C2929 C2928 1.351 1_554 S
C2929 C2937 1.457 . S
C2930 H2926 0.929 . S
C2930 C2932 1.378 . S
C2930 C2934 1.350 . S
C2931 C2934 1.463 . S
C2931 C2936 1.350 1_554 S
C2931 N2939 1.427 . S
C2932 H2923 0.930 . S
C2932 C2930 1.378 . S
C2932 C2933 1.367 . S
C2933 C2932 1.367 . S
C2933 C2935 1.433 . S
C2934 C2930 1.350 . S
C2934 C2931 1.463 . S
C2934 N2938 1.427 . S
C2935 H2925 0.929 1_554 S
C2935 C2933 1.433 . S
C2935 N2938 1.384 . S
C2936 H2927 0.929 . S
C2936 C2928 1.378 . S
C2936 C2931 1.350 1_556 S
C2937 H2924 0.929 . S
C2937 C2929 1.457 . S
C2937 N2939 1.384 . S
N2938 C2934 1.427 . S
N2938 C2935 1.384 . S
N2939 C2931 1.427 . S
N2939 C2937 1.384 . S
H2940 C2946 0.930 . S
H2941 C2950 0.930 . S
H2942 C2955 0.929 . S
H2943 C2953 0.929 . S
H2944 C2948 0.929 . S
H2945 C2954 0.929 . S
C2946 H2940 0.930 . S
C2946 C2947 1.367 . S
C2946 C2954 1.378 . S
C2947 C2946 1.367 . S
C2947 C2955 1.433 . S
C2948 H2944 0.929 . S
C2948 C2950 1.378 . S
C2948 C2952 1.350 . S
C2949 C2952 1.463 . S
C2949 C2954 1.350 . S
C2949 N2957 1.427 . S
C2950 H2941 0.930 . S
C2950 C2948 1.378 . S
C2950 C2951 1.367 . S
C2951 C2950 1.367 . S
C2951 C2953 1.433 . S
C2952 C2948 1.350 . S
C2952 C2949 1.463 . S
C2952 N2956 1.427 . S
C2953 H2943 0.929 . S
C2953 C2951 1.433 . S
C2953 N2956 1.384 . S
C2954 H2945 0.929 . S
C2954 C2946 1.378 . S
C2954 C2949 1.350 . S
C2955 H2942 0.929 . S
C2955 C2947 1.433 . S
C2955 N2957 1.384 . S
N2956 C2952 1.427 . S
N2956 C2953 1.384 . S
N2957 C2949 1.427 . S
N2957 C2955 1.384 . S
H2958 C2964 0.930 . S
H2959 C2968 0.930 . S
H2960 C2973 0.929 . S
H2961 C2971 0.929 . S
H2962 C2966 0.929 . S
H2963 C2972 0.929 . S
C2964 H2958 0.930 . S
C2964 C2965 1.367 . S
C2964 C2972 1.378 . S
C2965 C2964 1.367 . S
C2965 C2973 1.433 . S
C2966 H2962 0.929 . S
C2966 C2968 1.378 . S
C2966 C2970 1.350 . S
C2967 C2970 1.463 . S
C2967 C2972 1.350 . S
C2967 N2975 1.427 . S
C2968 H2959 0.930 . S
C2968 C2966 1.378 . S
C2968 C2969 1.367 . S
C2969 C2968 1.367 . S
C2969 C2971 1.433 . S
C2970 C2966 1.350 . S
C2970 C2967 1.463 . S
C2970 N2974 1.427 . S
C2971 H2961 0.929 . S
C2971 C2969 1.433 . S
C2971 N2974 1.384 . S
C2972 H2963 0.929 . S
C2972 C2964 1.378 . S
C2972 C2967 1.350 . S
C2973 H2960 0.929 . S
C2973 C2965 1.433 . S
C2973 N2975 1.384 . S
N2974 C2970 1.427 . S
N2974 C2971 1.384 . S
N2975 C2967 1.427 . S
N2975 C2973 1.384 . S
H2976 C2982 0.930 . S
H2977 C2986 0.930 . S
H2978 C2991 0.929 . S
H2979 C2989 0.929 . S
H2980 C2984 0.929 . S
H2981 C2990 0.929 . S
C2982 H2976 0.930 . S
C2982 C2983 1.367 . S
C2982 C2990 1.378 . S
C2983 C2982 1.367 . S
C2983 C2991 1.433 . S
C2984 H2980 0.929 . S
C2984 C2986 1.378 . S
C2984 C2988 1.350 . S
C2985 C2988 1.463 . S
C2985 C2990 1.350 . S
C2985 N2993 1.427 . S
C2986 H2977 0.930 . S
C2986 C2984 1.378 . S
C2986 C2987 1.367 . S
C2987 C2986 1.367 . S
C2987 C2989 1.433 . S
C2988 C2984 1.350 . S
C2988 C2985 1.463 . S
C2988 N2992 1.427 . S
C2989 H2979 0.929 . S
C2989 C2987 1.433 . S
C2989 N2992 1.384 . S
C2990 H2981 0.929 . S
C2990 C2982 1.378 . S
C2990 C2985 1.350 . S
C2991 H2978 0.929 . S
C2991 C2983 1.433 . S
C2991 N2993 1.384 . S
N2992 C2988 1.427 . S
N2992 C2989 1.384 . S
N2993 C2985 1.427 . S
N2993 C2991 1.384 . S
H2994 C3000 0.930 . S
H2995 C3004 0.930 . S
H2996 C3009 0.929 . S
H2997 C3007 0.929 . S
H2998 C3002 0.929 . S
H2999 C3008 0.929 . S
C3000 H2994 0.930 . S
C3000 C3001 1.367 . S
C3000 C3008 1.378 . S
C3001 C3000 1.367 . S
C3001 C3009 1.433 . S
C3002 H2998 0.929 . S
C3002 C3004 1.378 . S
C3002 C3006 1.350 . S
C3003 C3006 1.463 . S
C3003 C3008 1.350 . S
C3003 N3011 1.427 . S
C3004 H2995 0.930 . S
C3004 C3002 1.378 . S
C3004 C3005 1.367 . S
C3005 C3004 1.367 . S
C3005 C3007 1.433 . S
C3006 C3002 1.350 . S
C3006 C3003 1.463 . S
C3006 N3010 1.427 . S
C3007 H2997 0.929 . S
C3007 C3005 1.433 . S
C3007 N3010 1.384 . S
C3008 H2999 0.929 . S
C3008 C3000 1.378 . S
C3008 C3003 1.350 . S
C3009 H2996 0.929 . S
C3009 C3001 1.433 . S
C3009 N3011 1.384 . S
N3010 C3006 1.427 . S
N3010 C3007 1.384 . S
N3011 C3003 1.427 . S
N3011 C3009 1.384 . S
H3012 C3018 0.930 . S
H3013 C3022 0.930 . S
H3014 C3027 0.929 . S
H3015 C3025 0.934 . S
H3016 C3020 0.929 . S
H3017 C3026 0.929 . S
C3018 H3012 0.930 . S
C3018 C3019 1.367 . S
C3018 C3026 1.378 . S
C3019 C3018 1.367 . S
C3019 C3027 1.433 . S
C3020 H3016 0.929 . S
C3020 C3022 1.378 . S
C3020 C3024 1.350 . S
C3021 C3024 1.463 . S
C3021 C3026 1.350 . S
C3021 N3029 1.427 . S
C3022 H3013 0.930 . S
C3022 C3020 1.378 . S
C3022 C3023 1.367 . S
C3023 C3022 1.367 . S
C3023 C3025 1.433 . S
C3024 C3020 1.350 . S
C3024 C3021 1.463 . S
C3024 N3028 1.427 . S
C3025 H3015 0.934 . S
C3025 C3023 1.433 . S
C3025 N3028 1.384 . S
C3026 H3017 0.929 . S
C3026 C3018 1.378 . S
C3026 C3021 1.350 . S
C3027 H3014 0.929 . S
C3027 C3019 1.433 . S
C3027 N3029 1.384 . S
N3028 C3024 1.427 . S
N3028 C3025 1.384 . S
N3029 C3021 1.427 . S
N3029 C3027 1.384 . S
H3030 C3036 0.930 . S
H3031 C3040 0.930 . S
H3032 C3045 0.929 . S
H3033 C3043 0.929 . S
H3034 C3038 0.929 . S
H3035 C3044 0.929 . S
C3036 H3030 0.930 . S
C3036 C3037 1.367 . S
C3036 C3044 1.378 . S
C3037 C3036 1.367 . S
C3037 C3045 1.433 . S
C3038 H3034 0.929 . S
C3038 C3040 1.378 . S
C3038 C3042 1.350 . S
C3039 C3042 1.463 . S
C3039 C3044 1.350 . S
C3039 N3047 1.427 . S
C3040 H3031 0.930 . S
C3040 C3038 1.378 . S
C3040 C3041 1.367 . S
C3041 C3040 1.367 . S
C3041 C3043 1.433 . S
C3042 C3038 1.350 . S
C3042 C3039 1.463 . S
C3042 N3046 1.427 . S
C3043 H3033 0.929 . S
C3043 C3041 1.433 . S
C3043 N3046 1.384 . S
C3044 H3035 0.929 . S
C3044 C3036 1.378 . S
C3044 C3039 1.350 . S
C3045 H3032 0.929 . S
C3045 C3037 1.433 . S
C3045 N3047 1.384 . S
N3046 C3042 1.427 . S
N3046 C3043 1.384 . S
N3047 C3039 1.427 . S
N3047 C3045 1.384 . S
H3048 C3054 0.930 . S
H3049 C3058 0.930 . S
H3050 C3063 0.929 . S
H3051 C3061 0.929 1_554 S
H3052 C3056 0.929 . S
H3053 C3062 0.929 . S
C3054 H3048 0.930 . S
C3054 C3055 1.367 . S
C3054 C3062 1.378 . S
C3055 C3054 1.367 . S
C3055 C3063 1.433 . S
C3056 H3052 0.929 . S
C3056 C3058 1.378 . S
C3056 C3060 1.350 . S
C3057 C3060 1.463 . S
C3057 C3062 1.350 . S
C3057 N3065 1.427 . S
C3058 H3049 0.930 . S
C3058 C3056 1.378 . S
C3058 C3059 1.367 . S
C3059 C3058 1.367 . S
C3059 C3061 1.433 . S
C3060 C3056 1.350 . S
C3060 C3057 1.463 . S
C3060 N3064 1.427 . S
C3061 H3051 0.929 1_556 S
C3061 C3059 1.433 . S
C3061 N3064 1.384 . S
C3062 H3053 0.929 . S
C3062 C3054 1.378 . S
C3062 C3057 1.350 . S
C3063 H3050 0.929 . S
C3063 C3055 1.433 . S
C3063 N3065 1.384 . S
N3064 C3060 1.427 . S
N3064 C3061 1.384 . S
N3065 C3057 1.427 . S
N3065 C3063 1.384 . S
H3066 C3072 0.930 . S
H3067 C3076 0.930 . S
H3068 C3081 0.929 . S
H3069 C3079 0.929 . S
H3070 C3074 0.929 . S
H3071 C3080 0.929 . S
C3072 H3066 0.930 . S
C3072 C3073 1.367 . S
C3072 C3080 1.378 . S
C3073 C3072 1.367 . S
C3073 C3081 1.433 . S
C3074 H3070 0.929 . S
C3074 C3076 1.378 . S
C3074 C3078 1.350 . S
C3075 C3078 1.463 . S
C3075 C3080 1.350 . S
C3075 N3083 1.427 . S
C3076 H3067 0.930 . S
C3076 C3074 1.378 . S
C3076 C3077 1.367 . S
C3077 C3076 1.367 . S
C3077 C3079 1.433 . S
C3078 C3074 1.350 . S
C3078 C3075 1.463 . S
C3078 N3082 1.427 . S
C3079 H3069 0.929 . S
C3079 C3077 1.433 . S
C3079 N3082 1.384 . S
C3080 H3071 0.929 . S
C3080 C3072 1.378 . S
C3080 C3075 1.350 . S
C3081 H3068 0.929 . S
C3081 C3073 1.433 . S
C3081 N3083 1.384 . S
N3082 C3078 1.427 . S
N3082 C3079 1.384 . S
N3083 C3075 1.427 . S
N3083 C3081 1.384 . S
H3084 C3090 0.930 . S
H3085 C3094 0.930 . S
H3086 C3099 0.929 . S
H3087 C3097 0.929 . S
H3088 C3092 0.929 . S
H3089 C3098 0.929 . S
C3090 H3084 0.930 . S
C3090 C3091 1.367 . S
C3090 C3098 1.378 . S
C3091 C3090 1.367 . S
C3091 C3099 1.433 . S
C3092 H3088 0.929 . S
C3092 C3094 1.378 . S
C3092 C3096 1.350 . S
C3093 C3096 1.463 . S
C3093 C3098 1.350 . S
C3093 N3101 1.427 . S
C3094 H3085 0.930 . S
C3094 C3092 1.378 . S
C3094 C3095 1.367 . S
C3095 C3094 1.367 . S
C3095 C3097 1.433 . S
C3096 C3092 1.350 . S
C3096 C3093 1.463 . S
C3096 N3100 1.427 . S
C3097 H3087 0.929 . S
C3097 C3095 1.433 . S
C3097 N3100 1.384 . S
C3098 H3089 0.929 . S
C3098 C3090 1.378 . S
C3098 C3093 1.350 . S
C3099 H3086 0.929 . S
C3099 C3091 1.433 . S
C3099 N3101 1.384 . S
N3100 C3096 1.427 . S
N3100 C3097 1.384 . S
N3101 C3093 1.427 . S
N3101 C3099 1.384 . S
H3102 C3108 0.930 . S
H3103 C3112 0.930 . S
H3104 C3117 0.929 . S
H3105 C3115 0.929 . S
H3106 C3110 0.929 . S
H3107 C3116 0.929 . S
C3108 H3102 0.930 . S
C3108 C3109 1.367 . S
C3108 C3116 1.378 . S
C3109 C3108 1.367 . S
C3109 C3117 1.433 . S
C3110 H3106 0.929 . S
C3110 C3112 1.378 . S
C3110 C3114 1.350 . S
C3111 C3114 1.463 . S
C3111 C3116 1.350 . S
C3111 N3119 1.427 . S
C3112 H3103 0.930 . S
C3112 C3110 1.378 . S
C3112 C3113 1.367 . S
C3113 C3112 1.367 . S
C3113 C3115 1.433 . S
C3114 C3110 1.350 . S
C3114 C3111 1.463 . S
C3114 N3118 1.427 . S
C3115 H3105 0.929 . S
C3115 C3113 1.433 . S
C3115 N3118 1.384 . S
C3116 H3107 0.929 . S
C3116 C3108 1.378 . S
C3116 C3111 1.350 . S
C3117 H3104 0.929 . S
C3117 C3109 1.433 . S
C3117 N3119 1.384 . S
N3118 C3114 1.427 . S
N3118 C3115 1.384 . S
N3119 C3111 1.427 . S
N3119 C3117 1.384 . S
H3120 C3126 0.930 . S
H3121 C3130 0.930 . S
H3122 C3135 0.929 . S
H3123 C3133 0.929 . S
H3124 C3128 0.929 . S
H3125 C3134 0.929 . S
C3126 H3120 0.930 . S
C3126 C3127 1.367 . S
C3126 C3134 1.378 . S
C3127 C3126 1.367 . S
C3127 C3135 1.433 . S
C3128 H3124 0.929 . S
C3128 C3130 1.378 . S
C3128 C3132 1.350 . S
C3129 C3132 1.463 . S
C3129 C3134 1.350 . S
C3129 N3137 1.427 . S
C3130 H3121 0.930 . S
C3130 C3128 1.378 . S
C3130 C3131 1.367 . S
C3131 C3130 1.367 . S
C3131 C3133 1.433 . S
C3132 C3128 1.350 . S
C3132 C3129 1.463 . S
C3132 N3136 1.427 . S
C3133 H3123 0.929 . S
C3133 C3131 1.433 . S
C3133 N3136 1.384 . S
C3134 H3125 0.929 . S
C3134 C3126 1.378 . S
C3134 C3129 1.350 . S
C3135 H3122 0.929 . S
C3135 C3127 1.433 . S
C3135 N3137 1.384 . S
N3136 C3132 1.427 . S
N3136 C3133 1.384 . S
N3137 C3129 1.427 . S
N3137 C3135 1.384 . S
H3138 C3144 0.930 . S
H3139 C3148 0.930 . S
H3140 C3153 0.929 . S
H3141 C3151 0.929 . S
H3142 C3146 0.929 . S
H3143 C3152 0.929 . S
C3144 H3138 0.930 . S
C3144 C3145 1.367 . S
C3144 C3152 1.378 . S
C3145 C3144 1.367 . S
C3145 C3153 1.433 . S
C3146 H3142 0.929 . S
C3146 C3148 1.378 . S
C3146 C3150 1.350 . S
C3147 C3150 1.463 . S
C3147 C3152 1.350 . S
C3147 N3155 1.427 . S
C3148 H3139 0.930 . S
C3148 C3146 1.378 . S
C3148 C3149 1.367 . S
C3149 C3148 1.367 . S
C3149 C3151 1.433 . S
C3150 C3146 1.350 . S
C3150 C3147 1.463 . S
C3150 N3154 1.427 . S
C3151 H3141 0.929 . S
C3151 C3149 1.433 . S
C3151 N3154 1.384 . S
C3152 H3143 0.929 . S
C3152 C3144 1.378 . S
C3152 C3147 1.350 . S
C3153 H3140 0.929 . S
C3153 C3145 1.433 . S
C3153 N3155 1.384 . S
N3154 C3150 1.427 . S
N3154 C3151 1.384 . S
N3155 C3147 1.427 . S
N3155 C3153 1.384 . S
H3156 C3162 0.930 . S
H3157 C3166 0.930 . S
H3158 C3171 0.929 . S
H3159 C3169 0.929 . S
H3160 C3164 0.929 1_655 S
H3161 C3170 0.929 . S
C3162 H3156 0.930 . S
C3162 C3163 1.367 . S
C3162 C3170 1.378 . S
C3163 C3162 1.367 . S
C3163 C3171 1.433 . S
C3164 H3160 0.929 1_455 S
C3164 C3166 1.378 . S
C3164 C3168 1.350 1_455 S
C3165 C3168 1.463 . S
C3165 C3170 1.350 . S
C3165 N3173 1.427 . S
C3166 H3157 0.930 . S
C3166 C3164 1.378 . S
C3166 C3167 1.367 . S
C3167 C3166 1.367 . S
C3167 C3169 1.433 . S
C3168 C3164 1.350 1_655 S
C3168 C3165 1.463 . S
C3168 N3172 1.427 1_655 S
C3169 H3159 0.929 . S
C3169 C3167 1.433 . S
C3169 N3172 1.384 . S
C3170 H3161 0.929 . S
C3170 C3162 1.378 . S
C3170 C3165 1.350 . S
C3171 H3158 0.929 . S
C3171 C3163 1.433 . S
C3171 N3173 1.384 . S
N3172 C3168 1.427 1_455 S
N3172 C3169 1.384 . S
N3173 C3165 1.427 . S
N3173 C3171 1.384 . S
H3174 C3180 0.930 . S
H3175 C3184 0.930 . S
H3176 C3189 0.929 . S
H3177 C3187 0.929 . S
H3178 C3182 0.929 . S
H3179 C3188 0.929 . S
C3180 H3174 0.930 . S
C3180 C3181 1.367 . S
C3180 C3188 1.378 . S
C3181 C3180 1.367 . S
C3181 C3189 1.433 . S
C3182 H3178 0.929 . S
C3182 C3184 1.378 . S
C3182 C3186 1.350 . S
C3183 C3186 1.463 . S
C3183 C3188 1.350 . S
C3183 N3191 1.427 . S
C3184 H3175 0.930 . S
C3184 C3182 1.378 . S
C3184 C3185 1.367 . S
C3185 C3184 1.367 . S
C3185 C3187 1.433 . S
C3186 C3182 1.350 . S
C3186 C3183 1.463 . S
C3186 N3190 1.427 . S
C3187 H3177 0.929 . S
C3187 C3185 1.433 . S
C3187 N3190 1.384 . S
C3188 H3179 0.929 . S
C3188 C3180 1.378 . S
C3188 C3183 1.350 . S
C3189 H3176 0.929 . S
C3189 C3181 1.433 . S
C3189 N3191 1.384 . S
N3190 C3186 1.427 . S
N3190 C3187 1.384 . S
N3191 C3183 1.427 . S
N3191 C3189 1.384 . S
H3192 C3198 0.930 . S
H3193 C3202 0.930 . S
H3194 C3207 0.929 . S
H3195 C3205 0.929 . S
H3196 C3200 0.929 . S
H3197 C3206 0.929 . S
C3198 H3192 0.930 . S
C3198 C3199 1.367 . S
C3198 C3206 1.378 . S
C3199 C3198 1.367 . S
C3199 C3207 1.433 . S
C3200 H3196 0.929 . S
C3200 C3202 1.378 . S
C3200 C3204 1.350 . S
C3201 C3204 1.463 . S
C3201 C3206 1.350 . S
C3201 N3209 1.427 . S
C3202 H3193 0.930 . S
C3202 C3200 1.378 . S
C3202 C3203 1.367 . S
C3203 C3202 1.367 . S
C3203 C3205 1.433 . S
C3204 C3200 1.350 . S
C3204 C3201 1.463 . S
C3204 N3208 1.427 . S
C3205 H3195 0.929 . S
C3205 C3203 1.433 . S
C3205 N3208 1.384 . S
C3206 H3197 0.929 . S
C3206 C3198 1.378 . S
C3206 C3201 1.350 . S
C3207 H3194 0.929 . S
C3207 C3199 1.433 . S
C3207 N3209 1.384 . S
N3208 C3204 1.427 . S
N3208 C3205 1.384 . S
N3209 C3201 1.427 . S
N3209 C3207 1.384 . S
H3210 C3216 0.930 . S
H3211 C3220 0.930 . S
H3212 C3225 0.929 . S
H3213 C3223 0.929 . S
H3214 C3218 0.929 . S
H3215 C3224 0.929 . S
C3216 H3210 0.930 . S
C3216 C3217 1.367 . S
C3216 C3224 1.378 . S
C3217 C3216 1.367 . S
C3217 C3225 1.433 . S
C3218 H3214 0.929 . S
C3218 C3220 1.378 . S
C3218 C3222 1.350 . S
C3219 C3222 1.463 . S
C3219 C3224 1.350 . S
C3219 N3227 1.427 . S
C3220 H3211 0.930 . S
C3220 C3218 1.378 . S
C3220 C3221 1.367 . S
C3221 C3220 1.367 . S
C3221 C3223 1.433 . S
C3222 C3218 1.350 . S
C3222 C3219 1.463 . S
C3222 N3226 1.427 . S
C3223 H3213 0.929 . S
C3223 C3221 1.433 . S
C3223 N3226 1.384 . S
C3224 H3215 0.929 . S
C3224 C3216 1.378 . S
C3224 C3219 1.350 . S
C3225 H3212 0.929 . S
C3225 C3217 1.433 . S
C3225 N3227 1.384 . S
N3226 C3222 1.427 . S
N3226 C3223 1.384 . S
N3227 C3219 1.427 . S
N3227 C3225 1.384 . S
H3228 C3234 0.930 . S
H3229 C3238 0.930 1_455 S
H3230 C3243 0.929 . S
H3231 C3241 0.929 . S
H3232 C3236 0.929 . S
H3233 C3242 0.929 . S
C3234 H3228 0.930 . S
C3234 C3235 1.367 . S
C3234 C3242 1.378 . S
C3235 C3234 1.367 . S
C3235 C3243 1.433 . S
C3236 H3232 0.929 . S
C3236 C3238 1.378 . S
C3236 C3240 1.350 . S
C3237 C3240 1.463 . S
C3237 C3242 1.350 . S
C3237 N3245 1.427 . S
C3238 H3229 0.930 1_655 S
C3238 C3236 1.378 . S
C3238 C3239 1.367 . S
C3239 C3238 1.367 . S
C3239 C3241 1.433 . S
C3240 C3236 1.350 . S
C3240 C3237 1.463 . S
C3240 N3244 1.427 . S
C3241 H3231 0.929 . S
C3241 C3239 1.433 . S
C3241 N3244 1.384 . S
C3242 H3233 0.929 . S
C3242 C3234 1.378 . S
C3242 C3237 1.350 . S
C3243 H3230 0.929 . S
C3243 C3235 1.433 . S
C3243 N3245 1.384 . S
N3244 C3240 1.427 . S
N3244 C3241 1.384 . S
N3245 C3237 1.427 . S
N3245 C3243 1.384 . S
H3246 C3252 0.930 . S
H3247 C3256 0.930 . S
H3248 C3261 0.929 . S
H3249 C3259 0.929 . S
H3250 C3254 0.929 . S
H3251 C3260 0.929 . S
C3252 H3246 0.930 . S
C3252 C3253 1.367 . S
C3252 C3260 1.378 . S
C3253 C3252 1.367 . S
C3253 C3261 1.433 . S
C3254 H3250 0.929 . S
C3254 C3256 1.378 . S
C3254 C3258 1.350 . S
C3255 C3258 1.463 . S
C3255 C3260 1.350 . S
C3255 N3263 1.427 . S
C3256 H3247 0.930 . S
C3256 C3254 1.378 . S
C3256 C3257 1.367 . S
C3257 C3256 1.367 . S
C3257 C3259 1.433 . S
C3258 C3254 1.350 . S
C3258 C3255 1.463 . S
C3258 N3262 1.427 . S
C3259 H3249 0.929 . S
C3259 C3257 1.433 . S
C3259 N3262 1.384 . S
C3260 H3251 0.929 . S
C3260 C3252 1.378 . S
C3260 C3255 1.350 . S
C3261 H3248 0.929 . S
C3261 C3253 1.433 . S
C3261 N3263 1.384 . S
N3262 C3258 1.427 . S
N3262 C3259 1.384 . S
N3263 C3255 1.427 . S
N3263 C3261 1.384 . S
H3264 C3270 0.930 . S
H3265 C3274 0.930 . S
H3266 C3279 0.929 . S
H3267 C3277 0.929 . S
H3268 C3272 0.929 . S
H3269 C3278 0.929 . S
C3270 H3264 0.930 . S
C3270 C3271 1.367 . S
C3270 C3278 1.378 . S
C3271 C3270 1.367 . S
C3271 C3279 1.433 . S
C3272 H3268 0.929 . S
C3272 C3274 1.378 . S
C3272 C3276 1.350 . S
C3273 C3276 1.463 . S
C3273 C3278 1.350 . S
C3273 N3281 1.427 . S
C3274 H3265 0.930 . S
C3274 C3272 1.378 . S
C3274 C3275 1.367 . S
C3275 C3274 1.367 . S
C3275 C3277 1.433 . S
C3276 C3272 1.350 . S
C3276 C3273 1.463 . S
C3276 N3280 1.427 . S
C3277 H3267 0.929 . S
C3277 C3275 1.433 . S
C3277 N3280 1.384 . S
C3278 H3269 0.929 . S
C3278 C3270 1.378 . S
C3278 C3273 1.350 . S
C3279 H3266 0.929 . S
C3279 C3271 1.433 . S
C3279 N3281 1.384 . S
N3280 C3276 1.427 . S
N3280 C3277 1.384 . S
N3281 C3273 1.427 . S
N3281 C3279 1.384 . S
H3282 C3288 0.930 . S
H3283 C3292 0.930 . S
H3284 C3297 0.929 . S
H3285 C3295 0.929 . S
H3286 C3290 0.942 . S
H3287 C3296 0.929 . S
C3288 H3282 0.930 . S
C3288 C3289 1.367 . S
C3288 C3296 1.378 . S
C3289 C3288 1.367 . S
C3289 C3297 1.433 . S
C3290 H3286 0.942 . S
C3290 C3292 1.378 1_565 S
C3290 C3294 1.350 . S
C3291 C3294 1.463 . S
C3291 C3296 1.350 . S
C3291 N3299 1.427 . S
C3292 H3283 0.930 . S
C3292 C3290 1.378 1_545 S
C3292 C3293 1.367 1_545 S
C3293 C3292 1.367 1_565 S
C3293 C3295 1.433 . S
C3294 C3290 1.350 . S
C3294 C3291 1.463 . S
C3294 N3298 1.427 . S
C3295 H3285 0.929 . S
C3295 C3293 1.433 . S
C3295 N3298 1.384 . S
C3296 H3287 0.929 . S
C3296 C3288 1.378 . S
C3296 C3291 1.350 . S
C3297 H3284 0.929 . S
C3297 C3289 1.433 . S
C3297 N3299 1.384 . S
N3298 C3294 1.427 . S
N3298 C3295 1.384 . S
N3299 C3291 1.427 . S
N3299 C3297 1.384 . S
H3300 C3306 0.930 . S
H3301 C3310 0.930 . S
H3302 C3315 0.929 . S
H3303 C3313 0.929 . S
H3304 C3308 0.929 . S
H3305 C3314 0.929 . S
C3306 H3300 0.930 . S
C3306 C3307 1.367 . S
C3306 C3314 1.378 . S
C3307 C3306 1.367 . S
C3307 C3315 1.433 . S
C3308 H3304 0.929 . S
C3308 C3310 1.378 . S
C3308 C3312 1.350 . S
C3309 C3312 1.463 . S
C3309 C3314 1.350 . S
C3309 N3317 1.427 . S
C3310 H3301 0.930 . S
C3310 C3308 1.378 . S
C3310 C3311 1.367 . S
C3311 C3310 1.367 . S
C3311 C3313 1.433 . S
C3312 C3308 1.350 . S
C3312 C3309 1.463 . S
C3312 N3316 1.427 . S
C3313 H3303 0.929 . S
C3313 C3311 1.433 . S
C3313 N3316 1.384 . S
C3314 H3305 0.929 . S
C3314 C3306 1.378 . S
C3314 C3309 1.350 . S
C3315 H3302 0.929 . S
C3315 C3307 1.433 . S
C3315 N3317 1.384 . S
N3316 C3312 1.427 . S
N3316 C3313 1.384 . S
N3317 C3309 1.427 . S
N3317 C3315 1.384 . S
H3318 C3324 0.930 . S
H3319 C3328 0.930 . S
H3320 C3333 0.929 . S
H3321 C3331 0.929 . S
H3322 C3326 0.929 . S
H3323 C3332 0.929 . S
C3324 H3318 0.930 . S
C3324 C3325 1.367 . S
C3324 C3332 1.378 . S
C3325 C3324 1.367 . S
C3325 C3333 1.433 . S
C3326 H3322 0.929 . S
C3326 C3328 1.378 . S
C3326 C3330 1.350 . S
C3327 C3330 1.463 . S
C3327 C3332 1.350 . S
C3327 N3335 1.427 . S
C3328 H3319 0.930 . S
C3328 C3326 1.378 . S
C3328 C3329 1.367 . S
C3329 C3328 1.367 . S
C3329 C3331 1.433 . S
C3330 C3326 1.350 . S
C3330 C3327 1.463 . S
C3330 N3334 1.427 . S
C3331 H3321 0.929 . S
C3331 C3329 1.433 . S
C3331 N3334 1.384 . S
C3332 H3323 0.929 . S
C3332 C3324 1.378 . S
C3332 C3327 1.350 . S
C3333 H3320 0.929 . S
C3333 C3325 1.433 . S
C3333 N3335 1.384 . S
N3334 C3330 1.427 . S
N3334 C3331 1.384 . S
N3335 C3327 1.427 . S
N3335 C3333 1.384 . S
H3336 C3342 0.930 . S
H3337 C3346 0.930 . S
H3338 C3351 0.929 . S
H3339 C3349 0.929 . S
H3340 C3344 0.929 . S
H3341 C3350 0.929 . S
C3342 H3336 0.930 . S
C3342 C3343 1.367 . S
C3342 C3350 1.378 . S
C3343 C3342 1.367 . S
C3343 C3351 1.433 . S
C3344 H3340 0.929 . S
C3344 C3346 1.378 . S
C3344 C3348 1.350 . S
C3345 C3348 1.463 . S
C3345 C3350 1.350 . S
C3345 N3353 1.427 . S
C3346 H3337 0.930 . S
C3346 C3344 1.378 . S
C3346 C3347 1.367 . S
C3347 C3346 1.367 . S
C3347 C3349 1.433 . S
C3348 C3344 1.350 . S
C3348 C3345 1.463 . S
C3348 N3352 1.427 . S
C3349 H3339 0.929 . S
C3349 C3347 1.433 . S
C3349 N3352 1.384 . S
C3350 H3341 0.929 . S
C3350 C3342 1.378 . S
C3350 C3345 1.350 . S
C3351 H3338 0.929 . S
C3351 C3343 1.433 . S
C3351 N3353 1.384 . S
N3352 C3348 1.427 . S
N3352 C3349 1.384 . S
N3353 C3345 1.427 . S
N3353 C3351 1.384 . S
H3354 C3360 0.930 . S
H3355 C3364 0.930 . S
H3356 C3369 0.929 . S
H3357 C3367 0.929 1_556 S
H3358 C3362 0.929 . S
H3359 C3368 0.929 . S
C3360 H3354 0.930 . S
C3360 C3361 1.367 . S
C3360 C3368 1.378 . S
C3361 C3360 1.367 . S
C3361 C3369 1.433 . S
C3362 H3358 0.929 . S
C3362 C3364 1.378 . S
C3362 C3366 1.350 . S
C3363 C3366 1.463 . S
C3363 C3368 1.350 . S
C3363 N3371 1.427 . S
C3364 H3355 0.930 . S
C3364 C3362 1.378 . S
C3364 C3365 1.367 . S
C3365 C3364 1.367 . S
C3365 C3367 1.433 . S
C3366 C3362 1.350 . S
C3366 C3363 1.463 . S
C3366 N3370 1.427 . S
C3367 H3357 0.929 1_554 S
C3367 C3365 1.433 . S
C3367 N3370 1.384 . S
C3368 H3359 0.929 . S
C3368 C3360 1.378 . S
C3368 C3363 1.350 . S
C3369 H3356 0.929 . S
C3369 C3361 1.433 . S
C3369 N3371 1.384 . S
N3370 C3366 1.427 . S
N3370 C3367 1.384 . S
N3371 C3363 1.427 . S
N3371 C3369 1.384 . S
H3372 C3378 0.930 . S
H3373 C3382 0.930 . S
H3374 C3387 0.929 . S
H3375 C3385 0.929 . S
H3376 C3380 0.929 . S
H3377 C3386 0.929 . S
C3378 H3372 0.930 . S
C3378 C3379 1.367 . S
C3378 C3386 1.378 . S
C3379 C3378 1.367 . S
C3379 C3387 1.433 . S
C3380 H3376 0.929 . S
C3380 C3382 1.378 . S
C3380 C3384 1.350 . S
C3381 C3384 1.463 . S
C3381 C3386 1.350 . S
C3381 N3389 1.427 . S
C3382 H3373 0.930 . S
C3382 C3380 1.378 . S
C3382 C3383 1.367 . S
C3383 C3382 1.367 . S
C3383 C3385 1.433 . S
C3384 C3380 1.350 . S
C3384 C3381 1.463 . S
C3384 N3388 1.427 . S
C3385 H3375 0.929 . S
C3385 C3383 1.433 . S
C3385 N3388 1.384 . S
C3386 H3377 0.929 . S
C3386 C3378 1.378 . S
C3386 C3381 1.350 . S
C3387 H3374 0.929 . S
C3387 C3379 1.433 . S
C3387 N3389 1.384 . S
N3388 C3384 1.427 . S
N3388 C3385 1.384 . S
N3389 C3381 1.427 . S
N3389 C3387 1.384 . S
H3390 C3396 0.930 . S
H3391 C3400 0.930 . S
H3392 C3405 0.929 . S
H3393 C3403 0.929 . S
H3394 C3398 0.929 . S
H3395 C3404 0.929 . S
C3396 H3390 0.930 . S
C3396 C3397 1.367 . S
C3396 C3404 1.378 . S
C3397 C3396 1.367 . S
C3397 C3405 1.433 . S
C3398 H3394 0.929 . S
C3398 C3400 1.378 . S
C3398 C3402 1.350 . S
C3399 C3402 1.463 . S
C3399 C3404 1.350 . S
C3399 N3407 1.427 . S
C3400 H3391 0.930 . S
C3400 C3398 1.378 . S
C3400 C3401 1.367 . S
C3401 C3400 1.367 . S
C3401 C3403 1.433 . S
C3402 C3398 1.350 . S
C3402 C3399 1.463 . S
C3402 N3406 1.427 . S
C3403 H3393 0.929 . S
C3403 C3401 1.433 . S
C3403 N3406 1.384 . S
C3404 H3395 0.929 . S
C3404 C3396 1.378 . S
C3404 C3399 1.350 . S
C3405 H3392 0.929 . S
C3405 C3397 1.433 . S
C3405 N3407 1.384 . S
N3406 C3402 1.427 . S
N3406 C3403 1.384 . S
N3407 C3399 1.427 . S
N3407 C3405 1.384 . S
C1687 C111 1.776 . S
C1691 C403 1.633 . S
C1705 C64 2.184 . S
C1709 C486 2.214 . S
C1723 C77 1.515 . S
C1727 C571 1.443 . S
C1745 C651 1.291 . S
C1741 C95 1.411 . S
C1759 C25 1.377 . S
C1763 C735 1.327 . S
C1781 C828 0.967 . S
C1777 C36 1.014 . S
C1799 C906 0.905 . S
C1795 C50 0.880 . S
C1813 C11 1.441 . S
C1817 C991 1.257 . S
C1835 C402 1.968 . S
C1831 C237 1.958 . S
C1849 C245 0.655 . S
C1853 C483 0.655 . S
C1871 C570 1.046 . S
C1867 C279 1.025 . S
C1889 C655 1.509 . S
C1885 C175 1.598 . S
C1903 C231 1.974 . S
C1907 C739 1.842 . S
C1925 C831 1.040 . S
C1921 C251 1.048 . S
C1943 C903 0.751 . S
C1939 C273 0.766 . S
C1961 C990 1.460 . S
C1957 C181 1.550 . S
C1979 C399 1.310 . S
C1975 C165 1.388 . S
C1993 C288 1.879 . S
C1997 C1074 1.883 1_556 S
C2015 C1148 2.173 . S
C2011 C333 2.347 . S
C2033 C1243 0.529 . S
C2029 C316 0.480 . S
C2047 C123 0.870 . S
C2051 C987 0.855 . S
C2065 C137 1.373 . S
C2069 C567 1.313 . S
C2083 C330 2.184 . S
C2087 C1326 2.176 . S
C2105 C1411 0.736 . S
C2101 C302 0.712 . S
C2123 C392 1.781 . S
C2119 C63 1.912 . S
C2141 C1419 2.232 . S
C2137 C106 2.282 . S
C2155 C97 1.562 . S
C2159 C560 1.518 . S
C2173 C81 1.467 . S
C2177 C1332 1.351 . S
C2195 C744 1.416 . S
C2191 C13 1.329 . S
C2209 C55 0.986 . S
C2213 C1155 0.959 . S
C2231 C915 0.974 1_565 S
C2227 C35 0.927 . S
C2249 C1484 1.430 . S
C2245 C21 1.589 . S
C2267 C411 2.079 . S
C2263 C147 2.185 . S
C2285 C1416 0.668 . S
C2281 C321 0.698 . S
C2299 C119 1.132 . S
C2303 C579 1.094 . S
C2317 C293 1.656 . S
C2321 C1316 1.633 . S
C2335 C153 1.953 . S
C2339 C728 1.997 . S
C2357 C1158 1.088 . S
C2353 C315 1.163 . S
C2371 C125 0.785 . S
C2375 C912 0.752 . S
C2389 C287 1.717 . S
C2393 C1503 1.586 . S
C2407 C193 1.415 . S
C2411 C408 1.348 . S
C2425 C176 1.947 . S
C2429 C1083 1.896 . S
C2443 C263 2.305 . S
C2447 C823 2.126 . S
C2461 C246 0.637 . S
C2465 C1232 0.652 . S
C2483 C1500 0.864 . S
C2479 C277 0.838 1_565 S
C2497 C221 1.362 . S
C2501 C576 1.324 . S
C2519 C663 2.227 . S
C2515 C260 2.253 . S
C2537 C476 0.829 . S
C2533 C204 0.853 . S
C2551 C83 1.775 . S
C2555 C1579 1.634 . S
C2573 C1410 2.206 . S
C2569 C92 2.193 . S
C2587 C105 1.516 . S
C2591 C1663 1.435 . S
C2605 C67 1.412 . S
C2609 C1323 1.293 . S
C2623 C53 1.377 . S
C2627 C1071 1.318 . S
C2645 C1164 0.945 . S
C2641 C8 0.997 . S
C2663 C1242 0.906 . S
C2659 C22 0.884 . S
C2681 C1495 1.250 . S
C2677 C39 1.444 . S
C2699 C1578 1.966 . S
C2695 C265 1.961 . S
C2713 C189 0.652 . S
C2717 C1407 0.658 . S
C2735 C1662 1.067 . S
C2731 C209 1.014 . S
C2753 C1327 1.497 . S
C2749 C217 1.594 . S
C2771 C1075 1.826 . S
C2767 C259 1.966 . S
C2785 C195 1.075 . S
C2789 C1167 1.068 . S
C2807 C1239 0.777 . S
C2803 C203 0.757 . S
C2821 C223 1.556 . S
C2825 C1494 1.447 . S
C2843 C1575 1.296 . S
C2839 C319 1.383 . S
C2857 C134 1.881 . S
C2861 C738 1.886 . S
C2879 C812 2.174 . S
C2875 C151 2.353 . S
C2897 C907 0.557 . S
C2893 C162 0.450 . S
C2915 C1491 0.867 . S
C2911 C305 0.858 . S
C2929 C291 1.369 1_554 S
C2933 C1659 1.304 . S
C2951 C654 2.172 . S
C2947 C148 2.175 . S
C2969 C487 0.719 . S
C2965 C120 0.727 . S
C2983 C91 1.907 . S
C2987 C1568 1.768 . S
C3005 C495 2.225 . S
C3001 C78 2.283 . S
C3019 C69 1.562 . S
C3023 C1652 1.518 . S
C3037 C109 1.466 . S
C3041 C660 1.347 . S
C3055 C41 1.328 . S
C3059 C1080 1.416 . S
C3077 C819 0.933 . S
C3073 C27 0.978 . S
C3091 C7 0.937 . S
C3095 C1251 0.970 . S
C3109 C49 1.593 . S
C3113 C980 1.435 . S
C3131 C1587 2.081 . S
C3127 C329 2.185 . S
C3145 C167 0.698 . S
C3149 C492 0.666 . S
C3167 C1671 1.103 . S
C3163 C301 1.122 . S
C3181 C139 1.655 . S
C3185 C644 1.638 . S
C3199 C335 1.968 . S
C3203 C1064 2.010 . S
C3221 C822 1.105 . S
C3217 C161 1.170 . S
C3235 C307 0.789 . S
C3239 C1248 0.748 1_655 S
C3257 C999 1.569 . S
C3253 C133 1.716 . S
C3275 C1584 1.350 . S
C3271 C249 1.425 . S
C3293 C747 1.902 1_665 S
C3289 C218 1.944 . S
C3307 C235 2.305 . S
C3311 C1159 2.123 . S
C3329 C896 0.648 . S
C3325 C190 0.635 . S
C3343 C207 0.843 . S
C3347 C996 0.856 . S
C3361 C179 1.357 . S
C3365 C1668 1.330 1_554 S
C3383 C1335 2.228 . S
C3379 C232 2.255 1_565 S
C3401 C1400 0.840 . S
C3397 C274 0.841 . S
