# Generated by pormake.
# Topology nia, (6,6)-cn, num edge types: 1
# Building blocks:
#     Node 0, Type 0, BuildingBlock: KUMBOL_clean_sbu_0, # of connection points: 6
#     Node 1, Type 0, BuildingBlock: KUMBOL_clean_sbu_0, # of connection points: 6
#     Node 2, Type 1, BuildingBlock: MIDCAF_clean_sbu_0, # of connection points: 6
#     Node 3, Type 1, BuildingBlock: MIDCAF_clean_sbu_0, # of connection points: 6
#     Edge 4, Type (0, 1), BuildingBlock: XUDNAN_clean_linker_2, # of connection points: 2
#     Edge 5, Type (0, 1), BuildingBlock: XUDNAN_clean_linker_2, # of connection points: 2
#     Edge 6, Type (0, 1), BuildingBlock: XUDNAN_clean_linker_2, # of connection points: 2
#     Edge 7, Type (0, 1), BuildingBlock: XUDNAN_clean_linker_2, # of connection points: 2
#     Edge 8, Type (0, 1), BuildingBlock: XUDNAN_clean_linker_2, # of connection points: 2
#     Edge 9, Type (0, 1), BuildingBlock: XUDNAN_clean_linker_2, # of connection points: 2
#     Edge 10, Type (0, 1), BuildingBlock: XUDNAN_clean_linker_2, # of connection points: 2
#     Edge 11, Type (0, 1), BuildingBlock: XUDNAN_clean_linker_2, # of connection points: 2
#     Edge 12, Type (0, 1), BuildingBlock: XUDNAN_clean_linker_2, # of connection points: 2
#     Edge 13, Type (0, 1), BuildingBlock: XUDNAN_clean_linker_2, # of connection points: 2
#     Edge 14, Type (0, 1), BuildingBlock: XUDNAN_clean_linker_2, # of connection points: 2
#     Edge 15, Type (0, 1), BuildingBlock: XUDNAN_clean_linker_2, # of connection points: 2
# Relax obj value: 0.169
# Max RMSD: 0.286
# Mean RMSD: 0.205
data_MOF--net-nia--node1-KUMBOL_clean_sbu_0--node2-MIDCAF_clean_sbu_0--edge1-XUDNAN_clean_linker_2
_symmetry_space_group_name_H-M    P1
_symmetry_Int_Tables_number       1
_symmetry_cell_setting            triclinic
loop_
_symmetry_equiv_pos_as_xyz
'x, y, z'
_cell_length_a     28.466416
_cell_length_b     28.293786
_cell_length_c     32.853776
_cell_angle_alpha  89.539289
_cell_angle_beta   90.185651
_cell_angle_gamma 139.25068
loop_
_atom_site_label
_atom_site_type_symbol
_atom_site_fract_x
_atom_site_fract_y
_atom_site_fract_z
_atom_type_partial_charge
Gd0 Gd 0.9786 0.03289 0.96301 0.0
Gd1 Gd 0.00657 0.97743 0.05487 0.0
C2 C 0.82966 0.84605 0.15155 0.0
C3 C 0.88898 0.93072 0.20754 0.0
C4 C 0.95337 0.96632 0.14396 0.0
C5 C 0.89258 0.899 0.12766 0.0
C6 C 0.95262 0.98206 0.18449 0.0
C7 C 0.82778 0.8627 0.19121 0.0
C8 C 0.77072 0.77737 0.13516 0.0
C9 C 0.77432 0.76333 0.09545 0.0
N10 N 0.89532 0.88456 0.08892 0.0
C11 C 0.83717 0.81775 0.07259 0.0
H12 H 0.83828 0.8053 0.04204 0.0
C13 C 0.0786 0.07577 0.13888 0.0
N14 N 0.01459 0.01453 0.12125 0.0
C15 C 0.08019 0.09422 0.1786 0.0
C16 C 0.01666 0.04774 0.2013 0.0
H17 H 0.12823 0.11127 0.12165 0.0
H18 H 0.77956 0.82295 0.20973 0.0
H19 H 0.15134 0.18937 0.94276 0.0
H20 H 0.72248 0.73461 0.15306 0.0
H21 H 0.7287 0.71042 0.08242 0.0
H22 H 0.88716 0.9423 0.23848 0.0
H23 H 0.81566 0.88644 0.9241 0.0
H24 H 0.19561 0.18747 0.81891 0.0
H25 H 0.23478 0.2507 0.88459 0.0
H26 H 0.96663 0.96139 0.76938 0.0
H27 H 0.13052 0.1439 0.19181 0.0
H28 H 0.01818 0.0617 0.23228 0.0
H29 H 0.09542 0.07806 0.77649 0.0
H30 H 0.76301 0.82075 0.85891 0.0
N31 N 0.06413 0.09259 0.91033 0.0
C32 C 0.15817 0.16045 0.84424 0.0
C33 C 0.1808 0.19608 0.88134 0.0
C34 C 0.08666 0.09149 0.83985 0.0
C35 C 0.03986 0.05942 0.8736 0.0
C36 C 0.13303 0.16112 0.91429 0.0
N37 N 0.92341 0.96743 0.90196 0.0
C38 C 0.96724 0.99498 0.86922 0.0
C39 C 0.82057 0.86952 0.86146 0.0
C40 C 0.86538 0.89533 0.82802 0.0
C41 C 0.85049 0.90693 0.89827 0.0
C42 C 0.93959 0.95923 0.83148 0.0
H43 H 0.84206 0.8662 0.79955 0.0
O44 O 0.90937 0.0395 0.94701 0.0
O45 O 0.94777 0.99222 0.0266 0.0
O46 O 0.94605 0.89 1.00538 0.0
O47 O 0.95 0.93768 0.94485 0.0
O48 O 0.86622 0.95411 0.99065 0.0
O49 O 0.02381 0.13757 0.95602 0.0
O50 O 0.0938 0.00248 0.08027 0.0
O51 O 0.03976 0.02073 0.99201 0.0
O52 O 0.07019 0.12918 1.0023 0.0
O53 O 0.04248 0.07924 0.06722 0.0
O54 O 0.1215 0.06281 0.03041 0.0
O55 O 0.99021 0.89043 0.06931 0.0
C56 C 0.88204 0.95209 0.02683 0.0
C57 C 0.98668 0.98864 0.79846 0.0
C58 C 0.06004 0.05491 0.80255 0.0
C59 C 0.96371 0.10976 0.94247 0.0
C60 C 0.96756 0.13913 0.90343 0.0
C61 C 0.02543 0.17681 0.8763 0.0
C62 C 0.91275 0.12936 0.89291 0.0
C63 C 0.91581 0.15695 0.85576 0.0
C64 C 0.02776 0.20253 0.83911 0.0
C65 C 0.97335 0.19271 0.8288 0.0
C66 C 0.93492 0.88716 0.96553 0.0
C67 C 0.10637 0.06348 0.99353 0.0
C68 C 0.05475 0.9346 0.08446 0.0
C69 C 0.0609 0.91396 0.1238 0.0
C70 C 0.05062 0.92965 0.16083 0.0
C71 C 0.08085 0.88124 0.1245 0.0
C72 C 0.09243 0.86657 0.16184 0.0
C73 C 0.06171 0.91486 0.19785 0.0
C74 C 0.08317 0.88404 0.19843 0.0
C75 C 0.07645 0.1346 0.04244 0.0
H76 H 0.06937 0.18714 0.88367 0.0
H77 H 0.86882 0.1019 0.91405 0.0
H78 H 0.07231 0.2308 0.81837 0.0
H79 H 0.97645 0.21341 0.79977 0.0
H80 H 0.0348 0.95394 0.16147 0.0
H81 H 0.08881 0.86862 0.09614 0.0
H82 H 0.05394 0.92762 0.22616 0.0
H83 H 0.09147 0.87278 0.22745 0.0
Gd84 Gd 0.00566 0.95594 0.4737 0.0
Gd85 Gd 0.99238 0.04984 0.54135 0.0
C86 C 0.18503 0.21829 0.62535 0.0
C87 C 0.13038 0.16857 0.69231 0.0
C88 C 0.05752 0.10447 0.63141 0.0
C89 C 0.1176 0.15809 0.60726 0.0
C90 C 0.06286 0.11054 0.67421 0.0
C91 C 0.19143 0.22217 0.66791 0.0
C92 C 0.2436 0.27401 0.60021 0.0
C93 C 0.23386 0.26986 0.55823 0.0
N94 N 0.10946 0.15345 0.56618 0.0
C95 C 0.166 0.20941 0.54167 0.0
H96 H 0.15994 0.20751 0.50919 0.0
C97 C 0.93083 0.00288 0.63562 0.0
N98 N 0.99292 0.04937 0.61307 0.0
C99 C 0.93334 0.0064 0.67809 0.0
C100 C -0.00023 0.06002 0.6975 0.0
H101 H 0.87919 0.96232 0.6206 0.0
H102 H 0.24292 0.26761 0.68227 0.0
H103 H 0.82825 0.78999 0.49201 0.0
H104 H 0.29607 0.32122 0.61298 0.0
H105 H 0.27865 0.31324 0.53856 0.0
H106 H 0.13562 0.17371 0.72513 0.0
H107 H 0.13624 0.04751 0.40326 0.0
H108 H 0.7178 0.71195 0.37898 0.0
H109 H 0.71754 0.69836 0.45331 0.0
H110 H 0.90462 0.87925 0.28097 0.0
H111 H 0.88406 0.96844 0.69577 0.0
H112 H 0.00155 0.06386 0.73033 0.0
H113 H 0.78756 0.78078 0.31513 0.0
H114 H 0.14802 0.05966 0.32815 0.0
N115 N 0.89386 0.85913 0.44063 0.0
C116 C 0.76751 0.75315 0.39584 0.0
C117 C 0.76721 0.74523 0.43776 0.0
C118 C 0.83236 0.81267 0.37593 0.0
C119 C 0.89574 0.86506 0.39929 0.0
C120 C 0.83111 0.79829 0.45973 0.0
N121 N 0.02234 0.96817 0.40269 0.0
C122 C 0.96171 0.9214 0.37986 0.0
C123 C 0.09536 0.02114 0.34226 0.0
C124 C 0.03376 0.97789 0.31829 0.0
C125 C 0.08856 0.01422 0.38464 0.0
C126 C 0.96584 0.92584 0.33692 0.0
H127 H 0.03908 0.98302 0.28542 0.0
O128 O 0.03689 0.91854 0.51017 0.0
O129 O 0.04891 0.02632 0.52669 0.0
O130 O 0.04244 0.11 0.48085 0.0
O131 O 0.06057 0.05745 0.43981 0.0
O132 O 0.12428 0.05631 0.48692 0.0
O133 O 0.02202 0.89958 0.44582 0.0
O134 O 0.91484 0.04462 0.55887 0.0
O135 O 0.95012 0.98138 0.48695 0.0
O136 O 0.93167 0.88334 0.52721 0.0
O137 O 0.95383 0.95708 0.57728 0.0
O138 O 0.87461 0.95309 0.52531 0.0
O139 O 0.01499 0.14084 0.52896 0.0
C140 C 0.11517 0.07009 0.52159 0.0
C141 C 0.90246 0.87624 0.31391 0.0
C142 C 0.83585 0.81995 0.33338 0.0
C143 C 0.04618 0.89851 0.47888 0.0
C144 C 0.11607 0.92726 0.47509 0.0
C145 C 0.17712 0.99016 0.49571 0.0
C146 C 0.12275 0.89353 0.44885 0.0
C147 C 0.19036 0.92367 0.44196 0.0
C148 C 0.24423 0.02115 0.48851 0.0
C149 C 0.25118 0.98902 0.46148 0.0
C150 C 0.06559 0.10703 0.44708 0.0
C151 C 0.88398 0.93876 0.49117 0.0
C152 C 0.9591 0.11265 0.5497 0.0
C153 C 0.97329 0.15772 0.58235 0.0
C154 C 0.04239 0.21444 0.59938 0.0
C155 C 0.91732 0.14361 0.59723 0.0
C156 C 0.93073 0.18629 0.62841 0.0
C157 C 0.05511 0.25547 0.63107 0.0
C158 C -0.00033 0.24182 0.64542 0.0
C159 C 0.92794 0.89623 0.56517 0.0
H160 H 0.17347 0.01608 0.51704 0.0
H161 H 0.07497 0.84358 0.43421 0.0
H162 H 0.29125 0.07062 0.50375 0.0
H163 H 0.30458 0.01586 0.45595 0.0
H164 H 0.08695 0.22774 0.5881 0.0
H165 H 0.86417 0.10104 0.58386 0.0
H166 H 0.1084 0.2988 0.64402 0.0
H167 H 0.01082 0.2755 0.66927 0.0
Zn168 Zn 0.39148 0.71409 0.18563 0.0
Zn169 Zn 0.33753 0.64253 0.32547 0.0
Zn170 Zn 0.36672 0.67192 0.25469 0.0
C171 C 0.48032 0.72348 0.31863 0.0
C172 C 0.25212 0.51126 0.29259 0.0
O173 O 0.31586 0.70337 0.23774 0.0
O174 O 0.31999 0.70722 0.1705 0.0
C175 C 0.52283 0.80552 0.21215 0.0
O176 O 0.47206 0.73588 0.28309 0.0
O177 O 0.42659 0.67847 0.34198 0.0
O178 O 0.25111 0.53664 0.32348 0.0
O179 O 0.29552 0.5542 0.26297 0.0
O180 O 0.49323 0.81153 0.18783 0.0
O181 O 0.48385 0.75434 0.23915 0.0
O182 O 0.31582 0.57555 0.22121 0.0
O183 O 0.37486 0.63703 0.16453 0.0
C184 C 0.33523 0.57912 0.18493 0.0
O185 O 0.31877 0.70276 0.27954 0.0
O186 O 0.32534 0.69727 0.34608 0.0
C187 C 0.29869 0.70926 0.20317 0.0
C188 C 0.31154 0.71315 0.31612 0.0
Zn189 Zn 0.62098 0.30704 0.83695 0.0
Zn190 Zn 0.65258 0.35116 0.68894 0.0
Zn191 Zn 0.62576 0.32878 0.76211 0.0
C192 C 0.73979 0.48591 0.71615 0.0
C193 C 0.51106 0.2774 0.69871 0.0
O194 O 0.65281 0.2737 0.77806 0.0
O195 O 0.62713 0.24336 0.8434 0.0
C196 C 0.72641 0.45452 0.82939 0.0
O197 O 0.70455 0.44794 0.74888 0.0
O198 O 0.73267 0.4558 0.68473 0.0
O199 O 0.56067 0.30881 0.67307 0.0
O200 O 0.52138 0.27408 0.73641 0.0
O201 O 0.70236 0.4072 0.8554 0.0
O202 O 0.70334 0.43594 0.79238 0.0
O203 O 0.51383 0.26335 0.78053 0.0
O204 O 0.52789 0.26442 0.84693 0.0
C205 C 0.48975 0.24833 0.81731 0.0
O206 O 0.65698 0.28119 0.73585 0.0
O207 O 0.67165 0.30261 0.66959 0.0
C208 C 0.64798 0.2429 0.80988 0.0
C209 C 0.67127 0.27532 0.70017 0.0
H210 H 0.21314 0.92005 0.19563 0.0
H211 H 0.01717 0.73492 0.1318 0.0
H212 H 0.04542 0.67131 0.13988 0.0
H213 H 0.32138 0.9071 0.15039 0.0
H214 H 0.3729 0.93782 0.19624 0.0
H215 H 0.33685 0.9678 0.18406 0.0
H216 H 0.27838 0.92395 0.25422 0.0
H217 H 0.30428 0.88406 0.26704 0.0
H218 H 0.21051 0.82959 0.26726 0.0
H219 H 0.09415 0.62816 0.15521 0.0
H220 H 0.16564 0.6113 0.17146 0.0
H221 H 0.33078 0.82442 0.22536 0.0
C222 C 0.17667 0.86632 0.18313 0.0
C223 C 0.11294 0.83187 0.1632 0.0
C224 C 0.06638 0.76192 0.14695 0.0
C225 C 0.0818 0.72544 0.15163 0.0
C226 C 0.14446 0.7603 0.17213 0.0
C227 C 0.192 0.82977 0.18683 0.0
C228 C 0.25676 0.85583 0.20645 0.0
C229 C 0.32606 0.92098 0.18287 0.0
C230 C 0.26289 0.87438 0.25144 0.0
C231 C 0.23724 0.78926 0.20152 0.0
C232 C 0.17232 0.73499 0.18146 0.0
C233 C 0.14467 0.66988 0.17121 0.0
C234 C 0.18532 0.66063 0.18066 0.0
C235 C 0.25236 0.71583 0.20043 0.0
C236 C 0.27848 0.78069 0.21134 0.0
H237 H 0.26192 0.18112 0.52017 0.0
H238 H 0.07851 0.01798 0.59969 0.0
H239 H 0.15979 0.06103 0.65661 0.0
H240 H 0.36478 0.16382 0.558 0.0
H241 H 0.44948 0.25875 0.55253 0.0
H242 H 0.37547 0.21774 0.5199 0.0
H243 H 0.38603 0.31385 0.54355 0.0
H244 H 0.46044 0.35354 0.57549 0.0
H245 H 0.38382 0.32465 0.59728 0.0
H246 H 0.26247 0.11751 0.70407 0.0
H247 H 0.37714 0.17878 0.73547 0.0
H248 H 0.49099 0.30356 0.62482 0.0
C249 C 0.23918 0.15544 0.54978 0.0
C250 C 0.16423 0.09805 0.55594 0.0
C251 C 0.13596 0.06374 0.59466 0.0
C252 C 0.18171 0.08771 0.62721 0.0
C253 C 0.25563 0.14546 0.62039 0.0
C254 C 0.28412 0.17866 0.58256 0.0
C255 C 0.36508 0.23601 0.58234 0.0
C256 C 0.39012 0.21796 0.55135 0.0
C257 C 0.4009 0.31146 0.57416 0.0
C258 C 0.37752 0.2289 0.62561 0.0
C259 C 0.31408 0.17702 0.64735 0.0
C260 C 0.31262 0.15884 0.68739 0.0
C261 C 0.37776 0.19378 0.70519 0.0
C262 C 0.44283 0.24551 0.68297 0.0
C263 C 0.44228 0.26406 0.64295 0.0
H264 H 0.0593 0.17088 0.11288 0.0
H265 H 0.20763 0.25942 0.01292 0.0
H266 H 0.29594 0.3802 0.04461 0.0
H267 H 0.09464 0.32055 0.11913 0.0
H268 H 0.08558 0.3165 0.17371 0.0
H269 H 0.03758 0.2355 0.14584 0.0
H270 H 0.09574 0.21431 0.19048 0.0
H271 H 0.14305 0.29504 0.21843 0.0
H272 H 0.19238 0.28525 0.19479 0.0
H273 H 0.36545 0.48972 0.08485 0.0
H274 H 0.40785 0.58815 0.12626 0.0
H275 H 0.21187 0.43236 0.19861 0.0
C276 C 0.11075 0.2158 0.09801 0.0
C277 C 0.12736 0.2065 0.06068 0.0
C278 C 0.19424 0.26609 0.04145 0.0
C279 C 0.24483 0.33444 0.05945 0.0
C280 C 0.22706 0.34201 0.09633 0.0
C281 C 0.16129 0.28478 0.11514 0.0
C282 C 0.15306 0.30957 0.15231 0.0
C283 C 0.08893 0.29467 0.14743 0.0
C284 C 0.1457 0.27394 0.19131 0.0
C285 C 0.22421 0.39003 0.15102 0.0
C286 C 0.26642 0.40682 0.11895 0.0
C287 C 0.33312 0.47741 0.11011 0.0
C288 C 0.35654 0.5329 0.13377 0.0
C289 C 0.31301 0.51774 0.1656 0.0
C290 C 0.2467 0.44521 0.17499 0.0
H291 H 0.9304 0.27849 0.60948 0.0
H292 H 0.81001 0.07951 0.67523 0.0
H293 H 0.72491 0.07619 0.69995 0.0
H294 H 0.92213 0.35942 0.68139 0.0
H295 H 0.91045 0.39947 0.64663 0.0
H296 H 0.95667 0.3823 0.63027 0.0
H297 H 0.86927 0.30498 0.57036 0.0
H298 H 0.82357 0.3236 0.58493 0.0
H299 H 0.77361 0.23132 0.5797 0.0
H300 H 0.65725 0.10053 0.71997 0.0
H301 H 0.61292 0.14854 0.7317 0.0
H302 H 0.78242 0.33243 0.65371 0.0
C303 C 0.88527 0.23364 0.62852 0.0
C304 C 0.87578 0.17901 0.64042 0.0
C305 C 0.81704 0.12129 0.66563 0.0
C306 C 0.76876 0.1191 0.67969 0.0
C307 C 0.78 0.17456 0.66765 0.0
C308 C 0.83669 0.2304 0.64234 0.0
C309 C 0.83947 0.28513 0.63491 0.0
C310 C 0.91137 0.361 0.64919 0.0
C311 C 0.82563 0.28628 0.5898 0.0
C312 C 0.77738 0.25332 0.66132 0.0
C313 C 0.74274 0.18902 0.6796 0.0
C314 C 0.68393 0.15068 0.70563 0.0
C315 C 0.6598 0.1787 0.71268 0.0
C316 C 0.69556 0.24484 0.69444 0.0
C317 C 0.75448 0.28189 0.66827 0.0
H318 H 0.73795 0.83432 0.04137 0.0
H319 H 0.93387 0.04218 0.09092 0.0
H320 H 0.86568 0.02238 0.14896 0.0
H321 H 0.63225 0.85322 0.06485 0.0
H322 H 0.55127 0.75884 0.0762 0.0
H323 H 0.61637 0.78482 0.04113 0.0
H324 H 0.63022 0.71743 0.08571 0.0
H325 H 0.55831 0.68698 0.11599 0.0
H326 H 0.64061 0.73223 0.14002 0.0
H327 H 0.77315 0.98447 0.19857 0.0
H328 H 0.66378 0.93122 0.23399 0.0
H329 H 0.53013 0.74744 0.15325 0.0
C330 C 0.76646 0.8747 0.06502 0.0
C331 C 0.84162 0.93821 0.06272 0.0
C332 C 0.87689 0.99164 0.09308 0.0
C333 C 0.83843 0.98102 0.12609 0.0
C334 C 0.76442 0.91704 0.12802 0.0
C335 C 0.72875 0.86472 0.09823 0.0
C336 C 0.64819 0.80407 0.10522 0.0
C337 C 0.6098 0.80006 0.06975 0.0
C338 C 0.61772 0.73092 0.11206 0.0
C339 C 0.64433 0.82984 0.14381 0.0
C340 C 0.71166 0.8953 0.15651 0.0
C341 C 0.72028 0.93228 0.18952 0.0
C342 C 0.65826 0.9017 0.20965 0.0
C343 C 0.58933 0.83416 0.19724 0.0
C344 C 0.58268 0.79787 0.16424 0.0
H345 H 0.94504 0.81404 0.5692 0.0
H346 H 0.84586 0.85559 0.63232 0.0
H347 H 0.80176 0.76702 0.68589 0.0
H348 H 0.80902 0.62764 0.58586 0.0
H349 H 0.86942 0.62444 0.59273 0.0
H350 H 0.89664 0.69495 0.56206 0.0
H351 H 0.01016 0.79119 0.60691 0.0
H352 H 0.98239 0.72066 0.63825 0.0
H353 H 9e-05 0.79064 0.66112 0.0
H354 H 0.75743 0.6628 0.72849 0.0
H355 H 0.71401 0.55165 0.7532 0.0
H356 H 0.85065 0.58682 0.6645 0.0
C357 C 0.91414 0.80463 0.59432 0.0
C358 C 0.89885 0.84165 0.59666 0.0
C359 C 0.8589 0.82842 0.63022 0.0
C360 C 0.83371 0.77823 0.66079 0.0
C361 C 0.85027 0.74291 0.65772 0.0
C362 C 0.88996 0.75598 0.62533 0.0
C363 C 0.89818 0.70922 0.62782 0.0
C364 C 0.86638 0.66121 0.58989 0.0
C365 C 0.97742 0.75572 0.63389 0.0
C366 C 0.85403 0.66512 0.66561 0.0
C367 C 0.82743 0.68567 0.68292 0.0
C368 C 0.77926 0.64732 0.71572 0.0
C369 C 0.75529 0.5846 0.72984 0.0
C370 C 0.7798 0.5613 0.71116 0.0
C371 C 0.83204 0.6041 0.6799 0.0
H372 H 0.28664 0.92377 0.4499 0.0
H373 H 0.11144 0.8398 0.37339 0.0
H374 H 0.1234 0.77723 0.33154 0.0
H375 H 0.39471 0.96187 0.3663 0.0
H376 H 0.42929 0.93974 0.39628 0.0
H377 H 0.40475 0.97558 0.42057 0.0
H378 H 0.31874 0.8642 0.46918 0.0
H379 H 0.34286 0.82796 0.44501 0.0
H380 H 0.24972 0.77443 0.44807 0.0
H381 H 0.1509 0.71658 0.30076 0.0
H382 H 0.1991 0.67508 0.28076 0.0
H383 H 0.36354 0.81154 0.3731 0.0
C384 C 0.25144 0.89373 0.42393 0.0
C385 C 0.19787 0.88702 0.41536 0.0
C386 C 0.15203 0.84493 0.38145 0.0
C387 C 0.15881 0.80959 0.35715 0.0
C388 C 0.2125 0.81787 0.36663 0.0
C389 C 0.25862 0.85991 0.3989 0.0
C390 C 0.31306 0.862 0.40252 0.0
C391 C 0.39 0.9394 0.39602 0.0
C392 C 0.30559 0.83023 0.44363 0.0
C393 C 0.28985 0.81358 0.36763 0.0
C394 C 0.2314 0.78791 0.34734 0.0
C395 C 0.19811 0.73836 0.31564 0.0
C396 C 0.22622 0.7157 0.30409 0.0
C397 C 0.28664 0.74253 0.32429 0.0
C398 C 0.31841 0.79178 0.35645 0.0
H399 H 0.25022 0.18953 0.98233 0.0
H400 H 0.06641 0.981 0.92851 0.0
H401 H 0.14074 0.01152 0.87078 0.0
H402 H 0.34535 0.29962 0.88452 0.0
H403 H 0.42912 0.35122 0.90925 0.0
H404 H 0.35259 0.31134 0.93906 0.0
H405 H 0.37819 0.25321 0.98256 0.0
H406 H 0.44781 0.28835 0.94775 0.0
H407 H 0.37248 0.19239 0.9577 0.0
H408 H 0.2392 0.05825 0.82433 0.0
H409 H 0.35374 0.11913 0.79295 0.0
H410 H 0.47146 0.30273 0.87186 0.0
C411 C 0.22573 0.15111 0.95792 0.0
C412 C 0.15166 0.08387 0.95875 0.0
C413 C 0.12182 0.03382 0.92722 0.0
C414 C 0.164 0.05067 0.89449 0.0
C415 C 0.23649 0.11811 0.89383 0.0
C416 C 0.26719 0.1678 0.92463 0.0
C417 C 0.34749 0.23413 0.91825 0.0
C418 C 0.36973 0.30302 0.9125 0.0
C419 C 0.3889 0.24245 0.95365 0.0
C420 C 0.3568 0.21387 0.87917 0.0
C421 C 0.29242 0.14653 0.86564 0.0
C422 C 0.28959 0.11253 0.83337 0.0
C423 C 0.35458 0.14799 0.81499 0.0
C424 C 0.42062 0.21764 0.82793 0.0
C425 C 0.42114 0.25105 0.85994 0.0
H426 H 0.03342 0.17523 0.4335 0.0
H427 H 0.16183 0.15776 0.38636 0.0
H428 H 0.20736 0.24478 0.33131 0.0
H429 H 0.98977 0.19675 0.334 0.0
H430 H -0.00391 0.26047 0.3542 0.0
H431 H 0.96744 0.19039 0.38659 0.0
H432 H 0.06913 0.28705 0.43779 0.0
H433 H 0.09693 0.35688 0.406 0.0
H434 H 0.16082 0.36033 0.41983 0.0
H435 H 0.25041 0.34614 0.28674 0.0
H436 H 0.29175 0.4556 0.26107 0.0
H437 H 0.13039 0.40128 0.33554 0.0
C438 C 0.07076 0.18928 0.41144 0.0
C439 C 0.09385 0.15946 0.41412 0.0
C440 C 0.14254 0.17907 0.38456 0.0
C441 C 0.16861 0.22842 0.35313 0.0
C442 C 0.14461 0.25683 0.35135 0.0
C443 C 0.09657 0.23766 0.37978 0.0
C444 C 0.08306 0.27953 0.37336 0.0
C445 C 0.00441 0.22873 0.36131 0.0
C446 C 0.10377 0.32357 0.41148 0.0
C447 C 0.13363 0.32798 0.3381 0.0
C448 C 0.16789 0.31346 0.3252 0.0
C449 C 0.22274 0.3569 0.29597 0.0
C450 C 0.2454 0.41858 0.28112 0.0
C451 C 0.21347 0.43623 0.29583 0.0
C452 C 0.15471 0.38823 0.32311 0.0
H453 H 0.93936 0.26325 0.82453 0.0
H454 H 0.76909 0.039 0.86495 0.0
H455 H 0.67903 0.03251 0.85003 0.0
H456 H 0.86701 0.31104 0.86771 0.0
H457 H 0.89627 0.37183 0.82689 0.0
H458 H 0.94553 0.35614 0.838 0.0
H459 H 0.93127 0.32094 0.76353 0.0
H460 H 0.87629 0.32975 0.75139 0.0
H461 H 0.84301 0.24547 0.74267 0.0
H462 H 0.60998 0.0548 0.8376 0.0
H463 H 0.56701 0.10433 0.82857 0.0
H464 H 0.78131 0.31141 0.79232 0.0
C465 C 0.88297 0.21226 0.82942 0.0
C466 C 0.86103 0.15141 0.84562 0.0
C467 C 0.78697 0.08631 0.85272 0.0
C468 C 0.73551 0.08199 0.84403 0.0
C469 C 0.75912 0.14318 0.82817 0.0
C470 C 0.83114 0.20709 0.821 0.0
C471 C 0.84318 0.26656 0.80655 0.0
C472 C 0.89078 0.3301 0.83659 0.0
C473 C 0.87535 0.29223 0.76345 0.0
C474 C 0.76666 0.22639 0.80699 0.0
C475 C 0.71892 0.15525 0.81963 0.0
C476 C 0.64645 0.10975 0.82672 0.0
C477 C 0.62253 0.13816 0.82156 0.0
C478 C 0.67071 0.21072 0.80874 0.0
C479 C 0.74323 0.25497 0.80073 0.0
H480 H 0.73849 0.82726 0.49308 0.0
H481 H 0.92015 0.99149 0.41288 0.0
H482 H 0.83702 0.95002 0.35714 0.0
H483 H 0.61749 0.6864 0.41557 0.0
H484 H 0.53995 0.65482 0.43838 0.0
H485 H 0.61504 0.69474 0.46965 0.0
H486 H 0.62343 0.78726 0.49636 0.0
H487 H 0.54937 0.74811 0.46449 0.0
H488 H 0.63409 0.84342 0.46044 0.0
H489 H 0.73123 0.89355 0.3113 0.0
H490 H 0.61432 0.82846 0.28121 0.0
H491 H 0.50582 0.7029 0.39254 0.0
C492 C 0.76052 0.85364 0.46357 0.0
C493 C 0.83524 0.91113 0.45684 0.0
C494 C 0.86271 0.94598 0.41825 0.0
C495 C 0.81595 0.9229 0.38647 0.0
C496 C 0.74208 0.86526 0.39398 0.0
C497 C 0.71475 0.83105 0.43162 0.0
C498 C 0.63382 0.77282 0.43282 0.0
C499 C 0.59959 0.69776 0.43949 0.0
C500 C 0.60875 0.78892 0.46544 0.0
C501 C 0.61974 0.78062 0.39038 0.0
C502 C 0.6824 0.83362 0.36809 0.0
C503 C 0.6818 0.85155 0.32848 0.0
C504 C 0.61536 0.81461 0.31156 0.0
C505 C 0.55091 0.76094 0.3343 0.0
C506 C 0.55379 0.74358 0.37401 0.0
H507 H 0.85516 0.74724 0.98763 0.0
H508 H 0.96782 0.89877 0.88575 0.0
H509 H 0.93653 0.80862 0.84234 0.0
H510 H 0.89674 0.65582 0.96216 0.0
H511 H 0.80837 0.5672 0.97582 0.0
H512 H 0.84536 0.64618 1.00108 0.0
H513 H 0.73351 0.61037 0.98073 0.0
H514 H 0.69606 0.53116 0.95571 0.0
H515 H 0.7082 0.59502 0.92789 0.0
H516 H 0.89435 0.70323 0.80899 0.0
H517 H 0.82905 0.58222 0.78636 0.0
H518 H 0.73322 0.49465 0.90625 0.0
C519 C 0.87386 0.7615 0.95637 0.0
C520 C 0.91457 0.83056 0.94046 0.0
C521 C 0.93663 0.84654 0.899 0.0
C522 C 0.91967 0.79577 0.87391 0.0
C523 C 0.87961 0.72839 0.89036 0.0
C524 C 0.85592 0.71049 0.93038 0.0
C525 C 0.80803 0.63176 0.939 0.0
C526 C 0.84166 0.62486 0.97144 0.0
C527 C 0.73194 0.5896 0.95156 0.0
C528 C 0.80815 0.60866 0.89752 0.0
C529 C 0.851 0.66567 0.87016 0.0
C530 C 0.8596 0.65771 0.82995 0.0
C531 C 0.82147 0.58878 0.81703 0.0
C532 C 0.77393 0.52881 0.84381 0.0
C533 C 0.76891 0.53951 0.88487 0.0
loop_
_geom_bond_atom_site_label_1
_geom_bond_atom_site_label_2
_geom_bond_distance
_geom_bond_site_symmetry_2
_ccdc_geom_bond_type
Gd0 N31 2.661 1_655 S
Gd0 N37 2.601 . S
Gd0 O44 2.545 1_545 S
Gd0 O45 2.606 1_546 S
Gd0 O47 2.429 1_545 S
Gd0 O48 2.545 1_545 S
Gd0 O49 2.412 . S
Gd0 O51 2.362 1_655 S
Gd0 O52 2.324 1_656 S
Gd0 C59 2.828 . S
Gd1 N10 2.661 1_455 S
Gd1 N14 2.601 . S
Gd1 O45 2.362 1_455 S
Gd1 O46 2.324 1_454 S
Gd1 O50 2.545 1_565 S
Gd1 O51 2.606 1_564 S
Gd1 O53 2.429 1_565 S
Gd1 O54 2.545 1_565 S
Gd1 O55 2.412 . S
Gd1 C68 2.828 . S
C2 C5 1.417 . S
C2 C7 1.431 . S
C2 C8 1.412 . S
C3 C6 1.437 . S
C3 C7 1.317 . S
C3 H22 0.929 . S
C4 C5 1.426 . S
C4 C6 1.413 . S
C4 N14 1.359 1_655 S
C5 C2 1.417 . S
C5 C4 1.426 . S
C5 N10 1.350 . S
C6 C3 1.437 . S
C6 C4 1.413 . S
C6 C16 1.391 1_655 S
C7 C2 1.431 . S
C7 C3 1.317 . S
C7 H18 0.930 . S
C8 C2 1.412 . S
C8 C9 1.355 . S
C8 H20 0.930 . S
C9 C8 1.355 . S
C9 C11 1.402 . S
C9 H21 0.930 . S
N10 Gd1 2.661 1_655 S
N10 C5 1.350 . S
N10 C11 1.307 . S
C11 C9 1.402 . S
C11 N10 1.307 . S
C11 H12 0.930 . S
H12 C11 0.930 . S
C13 N14 1.334 1_545 S
C13 C15 1.394 . S
C13 H17 0.930 . S
N14 Gd1 2.601 . S
N14 C4 1.359 1_455 S
N14 C13 1.334 1_565 S
C15 C13 1.394 . S
C15 C16 1.359 1_545 S
C15 H27 0.930 . S
C16 C6 1.391 1_455 S
C16 C15 1.359 1_565 S
C16 H28 0.927 1_565 S
H17 C13 0.930 . S
H18 C7 0.930 . S
H19 C36 0.930 . S
H20 C8 0.930 . S
H21 C9 0.930 . S
H22 C3 0.929 . S
H23 C41 0.930 . S
H24 C32 0.930 . S
H25 C33 0.930 . S
H26 C57 0.929 . S
H27 C15 0.930 . S
H28 C16 0.927 1_545 S
H29 C58 0.930 . S
H30 C39 0.930 . S
N31 Gd0 2.661 1_455 S
N31 C35 1.350 . S
N31 C36 1.307 . S
C32 H24 0.930 . S
C32 C33 1.355 . S
C32 C34 1.412 . S
C33 H25 0.930 . S
C33 C32 1.355 . S
C33 C36 1.402 . S
C34 C32 1.412 . S
C34 C35 1.417 . S
C34 C58 1.431 . S
C35 N31 1.350 . S
C35 C34 1.417 . S
C35 C38 1.426 . S
C36 H19 0.930 . S
C36 N31 1.307 . S
C36 C33 1.402 . S
N37 Gd0 2.601 . S
N37 C38 1.359 1_655 S
N37 C41 1.334 1_545 S
C38 C35 1.426 . S
C38 N37 1.359 1_455 S
C38 C42 1.413 . S
C39 H30 0.930 . S
C39 C40 1.359 1_565 S
C39 C41 1.394 . S
C40 C39 1.359 1_545 S
C40 C42 1.391 1_655 S
C40 H43 0.929 . S
C41 H23 0.930 . S
C41 N37 1.334 1_565 S
C41 C39 1.394 . S
C42 C38 1.413 . S
C42 C40 1.391 1_455 S
C42 C57 1.437 . S
H43 C40 0.929 . S
O44 Gd0 2.545 1_565 S
O44 C59 1.258 1_565 S
O45 Gd0 2.606 1_564 S
O45 Gd1 2.362 1_655 S
O45 C56 1.284 . S
O46 Gd1 2.324 1_656 S
O46 C66 1.254 . S
O47 Gd0 2.429 1_565 S
O47 C66 1.268 . S
O48 Gd0 2.545 1_565 S
O48 C56 1.250 1_556 S
O49 Gd0 2.412 . S
O49 C59 1.252 . S
O50 Gd1 2.545 1_545 S
O50 C68 1.258 1_545 S
O51 Gd0 2.362 1_455 S
O51 Gd1 2.606 1_546 S
O51 C67 1.284 . S
O52 Gd0 2.324 1_454 S
O52 C75 1.254 . S
O53 Gd1 2.429 1_545 S
O53 C75 1.268 . S
O54 Gd1 2.545 1_545 S
O54 C67 1.250 1_554 S
O55 Gd1 2.412 . S
O55 C68 1.252 . S
C56 O45 1.284 . S
C56 O48 1.250 1_554 S
C57 H26 0.929 . S
C57 C42 1.437 . S
C57 C58 1.317 . S
C58 H29 0.930 . S
C58 C34 1.431 . S
C58 C57 1.317 . S
C59 Gd0 2.828 . S
C59 O44 1.258 1_545 S
C59 O49 1.252 . S
C59 C60 1.497 . S
C60 C59 1.497 . S
C60 C61 1.395 . S
C60 C62 1.380 . S
C61 C60 1.395 . S
C61 C64 1.398 . S
C61 H76 0.930 . S
C62 C60 1.380 . S
C62 C63 1.391 . S
C62 H77 0.930 . S
C63 C62 1.391 . S
C63 C65 1.387 . S
C64 C61 1.398 . S
C64 C65 1.380 . S
C64 H78 0.930 . S
C65 C63 1.387 . S
C65 C64 1.380 . S
C65 H79 0.930 . S
C66 O46 1.254 . S
C66 O47 1.268 . S
C67 O51 1.284 . S
C67 O54 1.250 1_556 S
C68 Gd1 2.828 . S
C68 O50 1.258 1_565 S
C68 O55 1.252 . S
C68 C69 1.497 . S
C69 C68 1.497 . S
C69 C70 1.395 . S
C69 C71 1.380 . S
C70 C69 1.395 . S
C70 C73 1.398 . S
C70 H80 0.930 . S
C71 C69 1.380 . S
C71 C72 1.391 . S
C71 H81 0.930 . S
C72 C71 1.391 . S
C72 C74 1.387 . S
C73 C70 1.398 . S
C73 C74 1.380 . S
C73 H82 0.930 . S
C74 C72 1.387 . S
C74 C73 1.380 . S
C74 H83 0.930 . S
C75 O52 1.254 . S
C75 O53 1.268 . S
H76 C61 0.930 . S
H77 C62 0.930 . S
H78 C64 0.930 . S
H79 C65 0.930 . S
H80 C70 0.930 . S
H81 C71 0.930 . S
H82 C73 0.930 . S
H83 C74 0.930 . S
Gd84 N115 2.661 1_455 S
Gd84 N121 2.601 1_565 S
Gd84 O128 2.545 1_565 S
Gd84 O129 2.606 1_565 S
Gd84 O131 2.429 1_565 S
Gd84 O132 2.545 1_565 S
Gd84 O133 2.412 . S
Gd84 O135 2.362 1_455 S
Gd84 O136 2.324 1_455 S
Gd84 C143 2.828 . S
Gd85 N94 2.661 1_655 S
Gd85 N98 2.601 1_655 S
Gd85 O129 2.362 1_655 S
Gd85 O130 2.324 1_655 S
Gd85 O134 2.545 . S
Gd85 O135 2.606 1_545 S
Gd85 O137 2.429 1_545 S
Gd85 O138 2.545 1_545 S
Gd85 O139 2.412 . S
Gd85 C152 2.828 . S
C86 C89 1.417 . S
C86 C91 1.431 . S
C86 C92 1.412 . S
C87 C90 1.437 . S
C87 C91 1.317 . S
C87 H106 0.929 . S
C88 C89 1.426 . S
C88 C90 1.413 . S
C88 N98 1.359 . S
C89 C86 1.417 . S
C89 C88 1.426 . S
C89 N94 1.350 . S
C90 C87 1.437 . S
C90 C88 1.413 . S
C90 C100 1.391 . S
C91 C86 1.431 . S
C91 C87 1.317 . S
C91 H102 0.930 . S
C92 C86 1.412 . S
C92 C93 1.355 . S
C92 H104 0.930 . S
C93 C92 1.355 . S
C93 C95 1.402 . S
C93 H105 0.930 . S
N94 Gd85 2.661 1_455 S
N94 C89 1.350 . S
N94 C95 1.307 . S
C95 C93 1.402 . S
C95 N94 1.307 . S
C95 H96 0.930 . S
H96 C95 0.930 . S
C97 N98 1.334 1_665 S
C97 C99 1.394 . S
C97 H101 0.930 . S
N98 Gd85 2.601 1_455 S
N98 C88 1.359 . S
N98 C97 1.334 1_445 S
C99 C97 1.394 . S
C99 C100 1.359 1_665 S
C99 H111 0.930 . S
C100 C90 1.391 . S
C100 C99 1.359 1_445 S
C100 H112 0.929 . S
H101 C97 0.930 . S
H102 C91 0.930 . S
H103 C120 0.930 . S
H104 C92 0.930 . S
H105 C93 0.930 . S
H106 C87 0.929 . S
H107 C125 0.930 . S
H108 C116 0.930 . S
H109 C117 0.930 . S
H110 C141 0.929 . S
H111 C99 0.930 . S
H112 C100 0.929 . S
H113 C142 0.930 . S
H114 C123 0.930 . S
N115 Gd84 2.661 1_655 S
N115 C119 1.350 . S
N115 C120 1.307 . S
C116 H108 0.930 . S
C116 C117 1.355 . S
C116 C118 1.412 . S
C117 H109 0.930 . S
C117 C116 1.355 . S
C117 C120 1.402 . S
C118 C116 1.412 . S
C118 C119 1.417 . S
C118 C142 1.431 . S
C119 N115 1.350 . S
C119 C118 1.417 . S
C119 C122 1.426 . S
C120 H103 0.930 . S
C120 N115 1.307 . S
C120 C117 1.402 . S
N121 Gd84 2.601 1_545 S
N121 C122 1.359 1_445 S
N121 C125 1.334 . S
C122 C119 1.426 . S
C122 N121 1.359 1_665 S
C122 C126 1.413 . S
C123 H114 0.930 . S
C123 C124 1.359 . S
C123 C125 1.394 . S
C124 C123 1.359 . S
C124 C126 1.391 1_445 S
C124 H127 0.929 . S
C125 H107 0.930 . S
C125 N121 1.334 . S
C125 C123 1.394 . S
C126 C122 1.413 . S
C126 C124 1.391 1_665 S
C126 C141 1.437 . S
H127 C124 0.929 . S
O128 Gd84 2.545 1_545 S
O128 C143 1.258 1_545 S
O129 Gd84 2.606 1_545 S
O129 Gd85 2.362 1_455 S
O129 C140 1.284 . S
O130 Gd85 2.324 1_455 S
O130 C150 1.254 . S
O131 Gd84 2.429 1_545 S
O131 C150 1.268 . S
O132 Gd84 2.545 1_545 S
O132 C140 1.250 . S
O133 Gd84 2.412 . S
O133 C143 1.252 . S
O134 Gd85 2.545 . S
O134 C152 1.258 . S
O135 Gd84 2.362 1_655 S
O135 Gd85 2.606 1_565 S
O135 C151 1.284 . S
O136 Gd84 2.324 1_655 S
O136 C159 1.254 . S
O137 Gd85 2.429 1_565 S
O137 C159 1.268 . S
O138 Gd85 2.545 1_565 S
O138 C151 1.250 . S
O139 Gd85 2.412 . S
O139 C152 1.252 . S
C140 O129 1.284 . S
C140 O132 1.250 . S
C141 H110 0.929 . S
C141 C126 1.437 . S
C141 C142 1.317 . S
C142 H113 0.930 . S
C142 C118 1.431 . S
C142 C141 1.317 . S
C143 Gd84 2.828 . S
C143 O128 1.258 1_565 S
C143 O133 1.252 . S
C143 C144 1.497 . S
C144 C143 1.497 . S
C144 C145 1.395 . S
C144 C146 1.380 . S
C145 C144 1.395 . S
C145 C148 1.398 . S
C145 H160 0.930 1_565 S
C146 C144 1.380 . S
C146 C147 1.391 . S
C146 H161 0.930 . S
C147 C146 1.391 . S
C147 C149 1.387 . S
C148 C145 1.398 . S
C148 C149 1.380 . S
C148 H162 0.930 . S
C149 C147 1.387 . S
C149 C148 1.380 . S
C149 H163 0.930 . S
C150 O130 1.254 . S
C150 O131 1.268 . S
C151 O135 1.284 . S
C151 O138 1.250 . S
C152 Gd85 2.828 . S
C152 O134 1.258 . S
C152 O139 1.252 . S
C152 C153 1.497 . S
C153 C152 1.497 . S
C153 C154 1.395 . S
C153 C155 1.380 . S
C154 C153 1.395 . S
C154 C157 1.398 . S
C154 H164 0.930 . S
C155 C153 1.380 . S
C155 C156 1.391 . S
C155 H165 0.930 . S
C156 C155 1.391 . S
C156 C158 1.387 . S
C157 C154 1.398 . S
C157 C158 1.380 . S
C157 H166 0.930 . S
C158 C156 1.387 . S
C158 C157 1.380 . S
C158 H167 0.930 . S
C159 O136 1.254 . S
C159 O137 1.268 . S
H160 C145 0.930 1_545 S
H161 C146 0.930 . S
H162 C148 0.930 . S
H163 C149 0.930 . S
H164 C154 0.930 . S
H165 C155 0.930 . S
H166 C157 0.930 . S
H167 C158 0.930 . S
Zn168 O174 1.920 . S
Zn168 O180 1.898 . S
Zn168 O183 1.905 . S
Zn169 O177 1.905 . S
Zn169 O178 1.898 . S
Zn169 O186 1.920 . S
Zn170 O173 2.080 . S
Zn170 O176 2.114 . S
Zn170 O179 2.120 . S
Zn170 O181 2.120 . S
Zn170 O182 2.114 . S
Zn170 O185 2.080 . S
C171 O176 1.166 . S
C171 O177 1.182 . S
C172 O178 1.167 . S
C172 O179 1.299 . S
O173 Zn170 2.080 . S
O173 C187 1.305 . S
O174 Zn168 1.920 . S
O174 C187 1.234 . S
C175 O180 1.167 . S
C175 O181 1.299 . S
O176 Zn170 2.114 . S
O176 C171 1.166 . S
O177 Zn169 1.905 . S
O177 C171 1.182 . S
O178 Zn169 1.898 . S
O178 C172 1.167 . S
O179 Zn170 2.120 . S
O179 C172 1.299 . S
O180 Zn168 1.898 . S
O180 C175 1.167 . S
O181 Zn170 2.120 . S
O181 C175 1.299 . S
O182 Zn170 2.114 . S
O182 C184 1.166 . S
O183 Zn168 1.905 . S
O183 C184 1.182 . S
C184 O182 1.166 . S
C184 O183 1.182 . S
O185 Zn170 2.080 . S
O185 C188 1.305 . S
O186 Zn169 1.920 . S
O186 C188 1.234 . S
C187 O173 1.305 . S
C187 O174 1.234 . S
C188 O185 1.305 . S
C188 O186 1.234 . S
Zn189 O195 1.920 . S
Zn189 O201 1.898 . S
Zn189 O204 1.905 . S
Zn190 O198 1.905 . S
Zn190 O199 1.898 . S
Zn190 O207 1.920 . S
Zn191 O194 2.080 . S
Zn191 O197 2.114 . S
Zn191 O200 2.120 . S
Zn191 O202 2.120 . S
Zn191 O203 2.114 . S
Zn191 O206 2.080 . S
C192 O197 1.166 . S
C192 O198 1.182 . S
C193 O199 1.167 . S
C193 O200 1.299 . S
O194 Zn191 2.080 . S
O194 C208 1.305 . S
O195 Zn189 1.920 . S
O195 C208 1.234 . S
C196 O201 1.167 . S
C196 O202 1.299 . S
O197 Zn191 2.114 . S
O197 C192 1.166 . S
O198 Zn190 1.905 . S
O198 C192 1.182 . S
O199 Zn190 1.898 . S
O199 C193 1.167 . S
O200 Zn191 2.120 . S
O200 C193 1.299 . S
O201 Zn189 1.898 . S
O201 C196 1.167 . S
O202 Zn191 2.120 . S
O202 C196 1.299 . S
O203 Zn191 2.114 . S
O203 C205 1.166 . S
O204 Zn189 1.905 . S
O204 C205 1.182 . S
C205 O203 1.166 . S
C205 O204 1.182 . S
O206 Zn191 2.080 . S
O206 C209 1.305 . S
O207 Zn190 1.920 . S
O207 C209 1.234 . S
C208 O194 1.305 . S
C208 O195 1.234 . S
C209 O206 1.305 . S
C209 O207 1.234 . S
H210 C222 0.930 . S
H211 C224 0.930 . S
H212 C225 0.930 . S
H213 C229 0.959 . S
H214 C229 0.959 . S
H215 C229 0.961 . S
H216 C230 0.960 . S
H217 C230 0.961 . S
H218 C230 0.959 . S
H219 C233 0.929 . S
H220 C234 0.931 . S
H221 C236 0.930 . S
C222 H210 0.930 . S
C222 C223 1.399 . S
C222 C227 1.399 . S
C223 C222 1.399 . S
C223 C224 1.376 . S
C224 H211 0.930 . S
C224 C223 1.376 . S
C224 C225 1.388 . S
C225 H212 0.930 . S
C225 C224 1.388 . S
C225 C226 1.390 . S
C226 C225 1.390 . S
C226 C227 1.394 . S
C226 C232 1.465 . S
C227 C222 1.399 . S
C227 C226 1.394 . S
C227 C228 1.516 . S
C228 C227 1.516 . S
C228 C229 1.502 . S
C228 C230 1.561 . S
C228 C231 1.526 . S
C229 H213 0.959 . S
C229 H214 0.959 . S
C229 H215 0.961 . S
C229 C228 1.502 . S
C230 H216 0.960 . S
C230 H217 0.961 . S
C230 H218 0.959 . S
C230 C228 1.561 . S
C231 C228 1.526 . S
C231 C232 1.396 . S
C231 C236 1.390 . S
C232 C226 1.465 . S
C232 C231 1.396 . S
C232 C233 1.399 . S
C233 H219 0.929 . S
C233 C232 1.399 . S
C233 C234 1.385 . S
C234 H220 0.931 . S
C234 C233 1.385 . S
C234 C235 1.389 . S
C235 C234 1.389 . S
C235 C236 1.387 . S
C236 H221 0.930 . S
C236 C231 1.390 . S
C236 C235 1.387 . S
H237 C249 0.930 . S
H238 C251 0.930 1_565 S
H239 C252 0.930 1_565 S
H240 C256 0.959 . S
H241 C256 0.959 . S
H242 C256 0.961 . S
H243 C257 0.960 . S
H244 C257 0.961 . S
H245 C257 0.959 . S
H246 C260 0.929 . S
H247 C261 0.931 . S
H248 C263 0.930 . S
C249 H237 0.930 . S
C249 C250 1.399 . S
C249 C254 1.399 . S
C250 C249 1.399 . S
C250 C251 1.376 . S
C251 H238 0.930 1_545 S
C251 C250 1.376 . S
C251 C252 1.388 . S
C252 H239 0.930 1_545 S
C252 C251 1.388 . S
C252 C253 1.390 . S
C253 C252 1.390 . S
C253 C254 1.394 . S
C253 C259 1.465 . S
C254 C249 1.399 . S
C254 C253 1.394 . S
C254 C255 1.516 . S
C255 C254 1.516 . S
C255 C256 1.502 . S
C255 C257 1.561 . S
C255 C258 1.526 . S
C256 H240 0.959 . S
C256 H241 0.959 . S
C256 H242 0.961 . S
C256 C255 1.502 . S
C257 H243 0.960 . S
C257 H244 0.961 . S
C257 H245 0.959 . S
C257 C255 1.561 . S
C258 C255 1.526 . S
C258 C259 1.396 . S
C258 C263 1.390 . S
C259 C253 1.465 . S
C259 C258 1.396 . S
C259 C260 1.399 . S
C260 H246 0.929 . S
C260 C259 1.399 . S
C260 C261 1.385 . S
C261 H247 0.931 . S
C261 C260 1.385 . S
C261 C262 1.389 . S
C262 C261 1.389 . S
C262 C263 1.387 . S
C263 H248 0.930 . S
C263 C258 1.390 . S
C263 C262 1.387 . S
H264 C276 0.930 . S
H265 C278 0.930 . S
H266 C279 0.930 . S
H267 C283 0.959 . S
H268 C283 0.959 . S
H269 C283 0.961 . S
H270 C284 0.960 . S
H271 C284 0.961 . S
H272 C284 0.959 . S
H273 C287 0.929 . S
H274 C288 0.931 . S
H275 C290 0.930 . S
C276 H264 0.930 . S
C276 C277 1.399 . S
C276 C281 1.399 . S
C277 C276 1.399 . S
C277 C278 1.376 . S
C278 H265 0.930 . S
C278 C277 1.376 . S
C278 C279 1.388 . S
C279 H266 0.930 . S
C279 C278 1.388 . S
C279 C280 1.390 . S
C280 C279 1.390 . S
C280 C281 1.394 . S
C280 C286 1.465 . S
C281 C276 1.399 . S
C281 C280 1.394 . S
C281 C282 1.516 . S
C282 C281 1.516 . S
C282 C283 1.502 . S
C282 C284 1.561 . S
C282 C285 1.526 . S
C283 H267 0.959 . S
C283 H268 0.959 . S
C283 H269 0.961 . S
C283 C282 1.502 . S
C284 H270 0.960 . S
C284 H271 0.961 . S
C284 H272 0.959 . S
C284 C282 1.561 . S
C285 C282 1.526 . S
C285 C286 1.396 . S
C285 C290 1.390 . S
C286 C280 1.465 . S
C286 C285 1.396 . S
C286 C287 1.399 . S
C287 H273 0.929 . S
C287 C286 1.399 . S
C287 C288 1.385 . S
C288 H274 0.931 . S
C288 C287 1.385 . S
C288 C289 1.389 . S
C289 C288 1.389 . S
C289 C290 1.387 . S
C290 H275 0.930 . S
C290 C285 1.390 . S
C290 C289 1.387 . S
H291 C303 0.930 . S
H292 C305 0.930 . S
H293 C306 0.930 . S
H294 C310 0.959 . S
H295 C310 0.959 . S
H296 C310 0.961 . S
H297 C311 0.960 . S
H298 C311 0.961 . S
H299 C311 0.959 . S
H300 C314 0.929 . S
H301 C315 0.931 . S
H302 C317 0.930 . S
C303 H291 0.930 . S
C303 C304 1.399 . S
C303 C308 1.399 . S
C304 C303 1.399 . S
C304 C305 1.376 . S
C305 H292 0.930 . S
C305 C304 1.376 . S
C305 C306 1.388 . S
C306 H293 0.930 . S
C306 C305 1.388 . S
C306 C307 1.390 . S
C307 C306 1.390 . S
C307 C308 1.394 . S
C307 C313 1.465 . S
C308 C303 1.399 . S
C308 C307 1.394 . S
C308 C309 1.516 . S
C309 C308 1.516 . S
C309 C310 1.502 . S
C309 C311 1.561 . S
C309 C312 1.526 . S
C310 H294 0.959 . S
C310 H295 0.959 . S
C310 H296 0.961 . S
C310 C309 1.502 . S
C311 H297 0.960 . S
C311 H298 0.961 . S
C311 H299 0.959 . S
C311 C309 1.561 . S
C312 C309 1.526 . S
C312 C313 1.396 . S
C312 C317 1.390 . S
C313 C307 1.465 . S
C313 C312 1.396 . S
C313 C314 1.399 . S
C314 H300 0.929 . S
C314 C313 1.399 . S
C314 C315 1.385 . S
C315 H301 0.931 . S
C315 C314 1.385 . S
C315 C316 1.389 . S
C316 C315 1.389 . S
C316 C317 1.387 . S
C317 H302 0.930 . S
C317 C312 1.390 . S
C317 C316 1.387 . S
H318 C330 0.930 . S
H319 C332 0.930 1_545 S
H320 C333 0.930 1_545 S
H321 C337 0.959 . S
H322 C337 0.959 . S
H323 C337 0.961 . S
H324 C338 0.960 . S
H325 C338 0.961 . S
H326 C338 0.959 . S
H327 C341 0.929 . S
H328 C342 0.931 . S
H329 C344 0.930 . S
C330 H318 0.930 . S
C330 C331 1.399 . S
C330 C335 1.399 . S
C331 C330 1.399 . S
C331 C332 1.376 . S
C332 H319 0.930 1_565 S
C332 C331 1.376 . S
C332 C333 1.388 . S
C333 H320 0.930 1_565 S
C333 C332 1.388 . S
C333 C334 1.390 . S
C334 C333 1.390 . S
C334 C335 1.394 . S
C334 C340 1.465 . S
C335 C330 1.399 . S
C335 C334 1.394 . S
C335 C336 1.516 . S
C336 C335 1.516 . S
C336 C337 1.502 . S
C336 C338 1.561 . S
C336 C339 1.526 . S
C337 H321 0.959 . S
C337 H322 0.959 . S
C337 H323 0.961 . S
C337 C336 1.502 . S
C338 H324 0.960 . S
C338 H325 0.961 . S
C338 H326 0.959 . S
C338 C336 1.561 . S
C339 C336 1.526 . S
C339 C340 1.396 . S
C339 C344 1.390 . S
C340 C334 1.465 . S
C340 C339 1.396 . S
C340 C341 1.399 . S
C341 H327 0.929 . S
C341 C340 1.399 . S
C341 C342 1.385 . S
C342 H328 0.931 . S
C342 C341 1.385 . S
C342 C343 1.389 . S
C343 C342 1.389 . S
C343 C344 1.387 . S
C344 H329 0.930 . S
C344 C339 1.390 . S
C344 C343 1.387 . S
H345 C357 0.930 . S
H346 C359 0.930 . S
H347 C360 0.930 . S
H348 C364 0.959 . S
H349 C364 0.959 . S
H350 C364 0.961 . S
H351 C365 0.960 . S
H352 C365 0.961 . S
H353 C365 0.959 . S
H354 C368 0.929 . S
H355 C369 0.931 . S
H356 C371 0.930 . S
C357 H345 0.930 . S
C357 C358 1.399 . S
C357 C362 1.399 . S
C358 C357 1.399 . S
C358 C359 1.376 . S
C359 H346 0.930 . S
C359 C358 1.376 . S
C359 C360 1.388 . S
C360 H347 0.930 . S
C360 C359 1.388 . S
C360 C361 1.390 . S
C361 C360 1.390 . S
C361 C362 1.394 . S
C361 C367 1.465 . S
C362 C357 1.399 . S
C362 C361 1.394 . S
C362 C363 1.516 . S
C363 C362 1.516 . S
C363 C364 1.502 . S
C363 C365 1.561 . S
C363 C366 1.526 . S
C364 H348 0.959 . S
C364 H349 0.959 . S
C364 H350 0.961 . S
C364 C363 1.502 . S
C365 H351 0.960 . S
C365 H352 0.961 . S
C365 H353 0.959 . S
C365 C363 1.561 . S
C366 C363 1.526 . S
C366 C367 1.396 . S
C366 C371 1.390 . S
C367 C361 1.465 . S
C367 C366 1.396 . S
C367 C368 1.399 . S
C368 H354 0.929 . S
C368 C367 1.399 . S
C368 C369 1.385 . S
C369 H355 0.931 . S
C369 C368 1.385 . S
C369 C370 1.389 . S
C370 C369 1.389 . S
C370 C371 1.387 . S
C371 H356 0.930 . S
C371 C366 1.390 . S
C371 C370 1.387 . S
H372 C384 0.930 . S
H373 C386 0.930 . S
H374 C387 0.930 . S
H375 C391 0.959 . S
H376 C391 0.959 . S
H377 C391 0.961 . S
H378 C392 0.960 . S
H379 C392 0.961 . S
H380 C392 0.959 . S
H381 C395 0.929 . S
H382 C396 0.931 . S
H383 C398 0.930 . S
C384 H372 0.930 . S
C384 C385 1.399 . S
C384 C389 1.399 . S
C385 C384 1.399 . S
C385 C386 1.376 . S
C386 H373 0.930 . S
C386 C385 1.376 . S
C386 C387 1.388 . S
C387 H374 0.930 . S
C387 C386 1.388 . S
C387 C388 1.390 . S
C388 C387 1.390 . S
C388 C389 1.394 . S
C388 C394 1.465 . S
C389 C384 1.399 . S
C389 C388 1.394 . S
C389 C390 1.516 . S
C390 C389 1.516 . S
C390 C391 1.502 . S
C390 C392 1.561 . S
C390 C393 1.526 . S
C391 H375 0.959 . S
C391 H376 0.959 . S
C391 H377 0.961 . S
C391 C390 1.502 . S
C392 H378 0.960 . S
C392 H379 0.961 . S
C392 H380 0.959 . S
C392 C390 1.561 . S
C393 C390 1.526 . S
C393 C394 1.396 . S
C393 C398 1.390 . S
C394 C388 1.465 . S
C394 C393 1.396 . S
C394 C395 1.399 . S
C395 H381 0.929 . S
C395 C394 1.399 . S
C395 C396 1.385 . S
C396 H382 0.931 . S
C396 C395 1.385 . S
C396 C397 1.389 . S
C397 C396 1.389 . S
C397 C398 1.387 . S
C398 H383 0.930 . S
C398 C393 1.390 . S
C398 C397 1.387 . S
H399 C411 0.930 . S
H400 C413 0.930 1_565 S
H401 C414 0.930 . S
H402 C418 0.959 . S
H403 C418 0.959 . S
H404 C418 0.961 . S
H405 C419 0.960 . S
H406 C419 0.961 . S
H407 C419 0.959 . S
H408 C422 0.929 . S
H409 C423 0.931 . S
H410 C425 0.930 . S
C411 H399 0.930 . S
C411 C412 1.399 . S
C411 C416 1.399 . S
C412 C411 1.399 . S
C412 C413 1.376 . S
C413 H400 0.930 1_545 S
C413 C412 1.376 . S
C413 C414 1.388 . S
C414 H401 0.930 . S
C414 C413 1.388 . S
C414 C415 1.390 . S
C415 C414 1.390 . S
C415 C416 1.394 . S
C415 C421 1.465 . S
C416 C411 1.399 . S
C416 C415 1.394 . S
C416 C417 1.516 . S
C417 C416 1.516 . S
C417 C418 1.502 . S
C417 C419 1.561 . S
C417 C420 1.526 . S
C418 H402 0.959 . S
C418 H403 0.959 . S
C418 H404 0.961 . S
C418 C417 1.502 . S
C419 H405 0.960 . S
C419 H406 0.961 . S
C419 H407 0.959 . S
C419 C417 1.561 . S
C420 C417 1.526 . S
C420 C421 1.396 . S
C420 C425 1.390 . S
C421 C415 1.465 . S
C421 C420 1.396 . S
C421 C422 1.399 . S
C422 H408 0.929 . S
C422 C421 1.399 . S
C422 C423 1.385 . S
C423 H409 0.931 . S
C423 C422 1.385 . S
C423 C424 1.389 . S
C424 C423 1.389 . S
C424 C425 1.387 . S
C425 H410 0.930 . S
C425 C420 1.390 . S
C425 C424 1.387 . S
H426 C438 0.930 . S
H427 C440 0.930 . S
H428 C441 0.930 . S
H429 C445 0.959 . S
H430 C445 0.959 . S
H431 C445 0.961 . S
H432 C446 0.960 . S
H433 C446 0.961 . S
H434 C446 0.959 . S
H435 C449 0.929 . S
H436 C450 0.931 . S
H437 C452 0.930 . S
C438 H426 0.930 . S
C438 C439 1.399 . S
C438 C443 1.399 . S
C439 C438 1.399 . S
C439 C440 1.376 . S
C440 H427 0.930 . S
C440 C439 1.376 . S
C440 C441 1.388 . S
C441 H428 0.930 . S
C441 C440 1.388 . S
C441 C442 1.390 . S
C442 C441 1.390 . S
C442 C443 1.394 . S
C442 C448 1.465 . S
C443 C438 1.399 . S
C443 C442 1.394 . S
C443 C444 1.516 . S
C444 C443 1.516 . S
C444 C445 1.502 . S
C444 C446 1.561 . S
C444 C447 1.526 . S
C445 H429 0.959 . S
C445 H430 0.959 . S
C445 H431 0.961 . S
C445 C444 1.502 . S
C446 H432 0.960 . S
C446 H433 0.961 . S
C446 H434 0.959 . S
C446 C444 1.561 . S
C447 C444 1.526 . S
C447 C448 1.396 . S
C447 C452 1.390 . S
C448 C442 1.465 . S
C448 C447 1.396 . S
C448 C449 1.399 . S
C449 H435 0.929 . S
C449 C448 1.399 . S
C449 C450 1.385 . S
C450 H436 0.931 . S
C450 C449 1.385 . S
C450 C451 1.389 . S
C451 C450 1.389 . S
C451 C452 1.387 . S
C452 H437 0.930 . S
C452 C447 1.390 . S
C452 C451 1.387 . S
H453 C465 0.930 . S
H454 C467 0.930 . S
H455 C468 0.930 . S
H456 C472 0.959 . S
H457 C472 0.959 . S
H458 C472 0.961 . S
H459 C473 0.960 . S
H460 C473 0.961 . S
H461 C473 0.959 . S
H462 C476 0.929 . S
H463 C477 0.931 . S
H464 C479 0.930 . S
C465 H453 0.930 . S
C465 C466 1.399 . S
C465 C470 1.399 . S
C466 C465 1.399 . S
C466 C467 1.376 . S
C467 H454 0.930 . S
C467 C466 1.376 . S
C467 C468 1.388 . S
C468 H455 0.930 . S
C468 C467 1.388 . S
C468 C469 1.390 . S
C469 C468 1.390 . S
C469 C470 1.394 . S
C469 C475 1.465 . S
C470 C465 1.399 . S
C470 C469 1.394 . S
C470 C471 1.516 . S
C471 C470 1.516 . S
C471 C472 1.502 . S
C471 C473 1.561 . S
C471 C474 1.526 . S
C472 H456 0.959 . S
C472 H457 0.959 . S
C472 H458 0.961 . S
C472 C471 1.502 . S
C473 H459 0.960 . S
C473 H460 0.961 . S
C473 H461 0.959 . S
C473 C471 1.561 . S
C474 C471 1.526 . S
C474 C475 1.396 . S
C474 C479 1.390 . S
C475 C469 1.465 . S
C475 C474 1.396 . S
C475 C476 1.399 . S
C476 H462 0.929 . S
C476 C475 1.399 . S
C476 C477 1.385 . S
C477 H463 0.931 . S
C477 C476 1.385 . S
C477 C478 1.389 . S
C478 C477 1.389 . S
C478 C479 1.387 . S
C479 H464 0.930 . S
C479 C474 1.390 . S
C479 C478 1.387 . S
H480 C492 0.930 . S
H481 C494 0.930 . S
H482 C495 0.930 . S
H483 C499 0.959 . S
H484 C499 0.959 . S
H485 C499 0.961 . S
H486 C500 0.960 . S
H487 C500 0.961 . S
H488 C500 0.959 . S
H489 C503 0.929 . S
H490 C504 0.931 . S
H491 C506 0.930 . S
C492 H480 0.930 . S
C492 C493 1.399 . S
C492 C497 1.399 . S
C493 C492 1.399 . S
C493 C494 1.376 . S
C494 H481 0.930 . S
C494 C493 1.376 . S
C494 C495 1.388 . S
C495 H482 0.930 . S
C495 C494 1.388 . S
C495 C496 1.390 . S
C496 C495 1.390 . S
C496 C497 1.394 . S
C496 C502 1.465 . S
C497 C492 1.399 . S
C497 C496 1.394 . S
C497 C498 1.516 . S
C498 C497 1.516 . S
C498 C499 1.502 . S
C498 C500 1.561 . S
C498 C501 1.526 . S
C499 H483 0.959 . S
C499 H484 0.959 . S
C499 H485 0.961 . S
C499 C498 1.502 . S
C500 H486 0.960 . S
C500 H487 0.961 . S
C500 H488 0.959 . S
C500 C498 1.561 . S
C501 C498 1.526 . S
C501 C502 1.396 . S
C501 C506 1.390 . S
C502 C496 1.465 . S
C502 C501 1.396 . S
C502 C503 1.399 . S
C503 H489 0.929 . S
C503 C502 1.399 . S
C503 C504 1.385 . S
C504 H490 0.931 . S
C504 C503 1.385 . S
C504 C505 1.389 . S
C505 C504 1.389 . S
C505 C506 1.387 . S
C506 H491 0.930 . S
C506 C501 1.390 . S
C506 C505 1.387 . S
H507 C519 0.930 . S
H508 C521 0.930 . S
H509 C522 0.930 . S
H510 C526 0.959 . S
H511 C526 0.959 . S
H512 C526 0.961 . S
H513 C527 0.960 . S
H514 C527 0.961 . S
H515 C527 0.959 . S
H516 C530 0.929 . S
H517 C531 0.931 . S
H518 C533 0.930 . S
C519 H507 0.930 . S
C519 C520 1.399 . S
C519 C524 1.399 . S
C520 C519 1.399 . S
C520 C521 1.376 . S
C521 H508 0.930 . S
C521 C520 1.376 . S
C521 C522 1.388 . S
C522 H509 0.930 . S
C522 C521 1.388 . S
C522 C523 1.390 . S
C523 C522 1.390 . S
C523 C524 1.394 . S
C523 C529 1.465 . S
C524 C519 1.399 . S
C524 C523 1.394 . S
C524 C525 1.516 . S
C525 C524 1.516 . S
C525 C526 1.502 . S
C525 C527 1.561 . S
C525 C528 1.526 . S
C526 H510 0.959 . S
C526 H511 0.959 . S
C526 H512 0.961 . S
C526 C525 1.502 . S
C527 H513 0.960 . S
C527 H514 0.961 . S
C527 H515 0.959 . S
C527 C525 1.561 . S
C528 C525 1.526 . S
C528 C529 1.396 . S
C528 C533 1.390 . S
C529 C523 1.465 . S
C529 C528 1.396 . S
C529 C530 1.399 . S
C530 H516 0.929 . S
C530 C529 1.399 . S
C530 C531 1.385 . S
C531 H517 0.931 . S
C531 C530 1.385 . S
C531 C532 1.389 . S
C532 C531 1.389 . S
C532 C533 1.387 . S
C533 H518 0.930 . S
C533 C528 1.390 . S
C533 C532 1.387 . S
C223 C72 1.178 . S
C235 C187 1.268 . S
C250 C140 1.589 . S
C262 C193 1.500 . S
C277 C75 1.509 . S
C289 C184 1.458 . S
C304 C156 1.106 . S
C316 C209 1.277 . S
C331 C56 1.588 . S
C343 C175 1.499 . S
C370 C192 1.424 . S
C358 C159 1.515 . S
C385 C147 1.087 . S
C397 C188 1.319 . S
C424 C205 1.465 . S
C412 C67 1.565 . S
C451 C172 1.419 . S
C439 C150 1.541 . S
C478 C208 1.306 . S
C466 C63 1.074 . S
C505 C171 1.534 . S
C493 C151 1.613 . S
C532 C196 1.458 . S
C520 C66 1.556 . S
