# Generated by pormake.
# Topology fgl, (4,4)-cn, num edge types: 1
# Building blocks:
#     Node 0, Type 0, BuildingBlock: ESEHIV_clean_sbu_0, # of connection points: 4
#     Node 1, Type 0, BuildingBlock: ESEHIV_clean_sbu_0, # of connection points: 4
#     Node 2, Type 0, BuildingBlock: ESEHIV_clean_sbu_0, # of connection points: 4
#     Node 3, Type 0, BuildingBlock: ESEHIV_clean_sbu_0, # of connection points: 4
#     Node 4, Type 0, BuildingBlock: ESEHIV_clean_sbu_0, # of connection points: 4
#     Node 5, Type 0, BuildingBlock: ESEHIV_clean_sbu_0, # of connection points: 4
#     Node 6, Type 0, BuildingBlock: ESEHIV_clean_sbu_0, # of connection points: 4
#     Node 7, Type 0, BuildingBlock: ESEHIV_clean_sbu_0, # of connection points: 4
#     Node 8, Type 0, BuildingBlock: ESEHIV_clean_sbu_0, # of connection points: 4
#     Node 9, Type 0, BuildingBlock: ESEHIV_clean_sbu_0, # of connection points: 4
#     Node 10, Type 0, BuildingBlock: ESEHIV_clean_sbu_0, # of connection points: 4
#     Node 11, Type 0, BuildingBlock: ESEHIV_clean_sbu_0, # of connection points: 4
#     Node 12, Type 0, BuildingBlock: ESEHIV_clean_sbu_0, # of connection points: 4
#     Node 13, Type 0, BuildingBlock: ESEHIV_clean_sbu_0, # of connection points: 4
#     Node 14, Type 0, BuildingBlock: ESEHIV_clean_sbu_0, # of connection points: 4
#     Node 15, Type 0, BuildingBlock: ESEHIV_clean_sbu_0, # of connection points: 4
#     Node 16, Type 0, BuildingBlock: ESEHIV_clean_sbu_0, # of connection points: 4
#     Node 17, Type 0, BuildingBlock: ESEHIV_clean_sbu_0, # of connection points: 4
#     Node 18, Type 1, BuildingBlock: QUQFOY_clean_sbu_3, # of connection points: 4
#     Node 19, Type 1, BuildingBlock: QUQFOY_clean_sbu_3, # of connection points: 4
#     Node 20, Type 1, BuildingBlock: QUQFOY_clean_sbu_3, # of connection points: 4
#     Node 21, Type 1, BuildingBlock: QUQFOY_clean_sbu_3, # of connection points: 4
#     Node 22, Type 1, BuildingBlock: QUQFOY_clean_sbu_3, # of connection points: 4
#     Node 23, Type 1, BuildingBlock: QUQFOY_clean_sbu_3, # of connection points: 4
#     Node 24, Type 1, BuildingBlock: QUQFOY_clean_sbu_3, # of connection points: 4
#     Node 25, Type 1, BuildingBlock: QUQFOY_clean_sbu_3, # of connection points: 4
#     Node 26, Type 1, BuildingBlock: QUQFOY_clean_sbu_3, # of connection points: 4
#     Node 27, Type 1, BuildingBlock: QUQFOY_clean_sbu_3, # of connection points: 4
#     Node 28, Type 1, BuildingBlock: QUQFOY_clean_sbu_3, # of connection points: 4
#     Node 29, Type 1, BuildingBlock: QUQFOY_clean_sbu_3, # of connection points: 4
#     Node 30, Type 1, BuildingBlock: QUQFOY_clean_sbu_3, # of connection points: 4
#     Node 31, Type 1, BuildingBlock: QUQFOY_clean_sbu_3, # of connection points: 4
#     Node 32, Type 1, BuildingBlock: QUQFOY_clean_sbu_3, # of connection points: 4
#     Node 33, Type 1, BuildingBlock: QUQFOY_clean_sbu_3, # of connection points: 4
#     Node 34, Type 1, BuildingBlock: QUQFOY_clean_sbu_3, # of connection points: 4
#     Node 35, Type 1, BuildingBlock: QUQFOY_clean_sbu_3, # of connection points: 4
#     Edge 36, Type (0, 1), BuildingBlock: OJICUG_clean_linker_0, # of connection points: 2
#     Edge 37, Type (0, 1), BuildingBlock: OJICUG_clean_linker_0, # of connection points: 2
#     Edge 38, Type (0, 1), BuildingBlock: OJICUG_clean_linker_0, # of connection points: 2
#     Edge 39, Type (0, 1), BuildingBlock: OJICUG_clean_linker_0, # of connection points: 2
#     Edge 40, Type (0, 1), BuildingBlock: OJICUG_clean_linker_0, # of connection points: 2
#     Edge 41, Type (0, 1), BuildingBlock: OJICUG_clean_linker_0, # of connection points: 2
#     Edge 42, Type (0, 1), BuildingBlock: OJICUG_clean_linker_0, # of connection points: 2
#     Edge 43, Type (0, 1), BuildingBlock: OJICUG_clean_linker_0, # of connection points: 2
#     Edge 44, Type (0, 1), BuildingBlock: OJICUG_clean_linker_0, # of connection points: 2
#     Edge 45, Type (0, 1), BuildingBlock: OJICUG_clean_linker_0, # of connection points: 2
#     Edge 46, Type (0, 1), BuildingBlock: OJICUG_clean_linker_0, # of connection points: 2
#     Edge 47, Type (0, 1), BuildingBlock: OJICUG_clean_linker_0, # of connection points: 2
#     Edge 48, Type (0, 1), BuildingBlock: OJICUG_clean_linker_0, # of connection points: 2
#     Edge 49, Type (0, 1), BuildingBlock: OJICUG_clean_linker_0, # of connection points: 2
#     Edge 50, Type (0, 1), BuildingBlock: OJICUG_clean_linker_0, # of connection points: 2
#     Edge 51, Type (0, 1), BuildingBlock: OJICUG_clean_linker_0, # of connection points: 2
#     Edge 52, Type (0, 1), BuildingBlock: OJICUG_clean_linker_0, # of connection points: 2
#     Edge 53, Type (0, 1), BuildingBlock: OJICUG_clean_linker_0, # of connection points: 2
#     Edge 54, Type (0, 1), BuildingBlock: OJICUG_clean_linker_0, # of connection points: 2
#     Edge 55, Type (0, 1), BuildingBlock: OJICUG_clean_linker_0, # of connection points: 2
#     Edge 56, Type (0, 1), BuildingBlock: OJICUG_clean_linker_0, # of connection points: 2
#     Edge 57, Type (0, 1), BuildingBlock: OJICUG_clean_linker_0, # of connection points: 2
#     Edge 58, Type (0, 1), BuildingBlock: OJICUG_clean_linker_0, # of connection points: 2
#     Edge 59, Type (0, 1), BuildingBlock: OJICUG_clean_linker_0, # of connection points: 2
#     Edge 60, Type (0, 1), BuildingBlock: OJICUG_clean_linker_0, # of connection points: 2
#     Edge 61, Type (0, 1), BuildingBlock: OJICUG_clean_linker_0, # of connection points: 2
#     Edge 62, Type (0, 1), BuildingBlock: OJICUG_clean_linker_0, # of connection points: 2
#     Edge 63, Type (0, 1), BuildingBlock: OJICUG_clean_linker_0, # of connection points: 2
#     Edge 64, Type (0, 1), BuildingBlock: OJICUG_clean_linker_0, # of connection points: 2
#     Edge 65, Type (0, 1), BuildingBlock: OJICUG_clean_linker_0, # of connection points: 2
#     Edge 66, Type (0, 1), BuildingBlock: OJICUG_clean_linker_0, # of connection points: 2
#     Edge 67, Type (0, 1), BuildingBlock: OJICUG_clean_linker_0, # of connection points: 2
#     Edge 68, Type (0, 1), BuildingBlock: OJICUG_clean_linker_0, # of connection points: 2
#     Edge 69, Type (0, 1), BuildingBlock: OJICUG_clean_linker_0, # of connection points: 2
#     Edge 70, Type (0, 1), BuildingBlock: OJICUG_clean_linker_0, # of connection points: 2
#     Edge 71, Type (0, 1), BuildingBlock: OJICUG_clean_linker_0, # of connection points: 2
#     Edge 72, Type (0, 1), BuildingBlock: OJICUG_clean_linker_0, # of connection points: 2
#     Edge 73, Type (0, 1), BuildingBlock: OJICUG_clean_linker_0, # of connection points: 2
#     Edge 74, Type (0, 1), BuildingBlock: OJICUG_clean_linker_0, # of connection points: 2
#     Edge 75, Type (0, 1), BuildingBlock: OJICUG_clean_linker_0, # of connection points: 2
#     Edge 76, Type (0, 1), BuildingBlock: OJICUG_clean_linker_0, # of connection points: 2
#     Edge 77, Type (0, 1), BuildingBlock: OJICUG_clean_linker_0, # of connection points: 2
#     Edge 78, Type (0, 1), BuildingBlock: OJICUG_clean_linker_0, # of connection points: 2
#     Edge 79, Type (0, 1), BuildingBlock: OJICUG_clean_linker_0, # of connection points: 2
#     Edge 80, Type (0, 1), BuildingBlock: OJICUG_clean_linker_0, # of connection points: 2
#     Edge 81, Type (0, 1), BuildingBlock: OJICUG_clean_linker_0, # of connection points: 2
#     Edge 82, Type (0, 1), BuildingBlock: OJICUG_clean_linker_0, # of connection points: 2
#     Edge 83, Type (0, 1), BuildingBlock: OJICUG_clean_linker_0, # of connection points: 2
#     Edge 84, Type (0, 1), BuildingBlock: OJICUG_clean_linker_0, # of connection points: 2
#     Edge 85, Type (0, 1), BuildingBlock: OJICUG_clean_linker_0, # of connection points: 2
#     Edge 86, Type (0, 1), BuildingBlock: OJICUG_clean_linker_0, # of connection points: 2
#     Edge 87, Type (0, 1), BuildingBlock: OJICUG_clean_linker_0, # of connection points: 2
#     Edge 88, Type (0, 1), BuildingBlock: OJICUG_clean_linker_0, # of connection points: 2
#     Edge 89, Type (0, 1), BuildingBlock: OJICUG_clean_linker_0, # of connection points: 2
#     Edge 90, Type (0, 1), BuildingBlock: OJICUG_clean_linker_0, # of connection points: 2
#     Edge 91, Type (0, 1), BuildingBlock: OJICUG_clean_linker_0, # of connection points: 2
#     Edge 92, Type (0, 1), BuildingBlock: OJICUG_clean_linker_0, # of connection points: 2
#     Edge 93, Type (0, 1), BuildingBlock: OJICUG_clean_linker_0, # of connection points: 2
#     Edge 94, Type (0, 1), BuildingBlock: OJICUG_clean_linker_0, # of connection points: 2
#     Edge 95, Type (0, 1), BuildingBlock: OJICUG_clean_linker_0, # of connection points: 2
#     Edge 96, Type (0, 1), BuildingBlock: OJICUG_clean_linker_0, # of connection points: 2
#     Edge 97, Type (0, 1), BuildingBlock: OJICUG_clean_linker_0, # of connection points: 2
#     Edge 98, Type (0, 1), BuildingBlock: OJICUG_clean_linker_0, # of connection points: 2
#     Edge 99, Type (0, 1), BuildingBlock: OJICUG_clean_linker_0, # of connection points: 2
#     Edge 100, Type (0, 1), BuildingBlock: OJICUG_clean_linker_0, # of connection points: 2
#     Edge 101, Type (0, 1), BuildingBlock: OJICUG_clean_linker_0, # of connection points: 2
#     Edge 102, Type (0, 1), BuildingBlock: OJICUG_clean_linker_0, # of connection points: 2
#     Edge 103, Type (0, 1), BuildingBlock: OJICUG_clean_linker_0, # of connection points: 2
#     Edge 104, Type (0, 1), BuildingBlock: OJICUG_clean_linker_0, # of connection points: 2
#     Edge 105, Type (0, 1), BuildingBlock: OJICUG_clean_linker_0, # of connection points: 2
#     Edge 106, Type (0, 1), BuildingBlock: OJICUG_clean_linker_0, # of connection points: 2
#     Edge 107, Type (0, 1), BuildingBlock: OJICUG_clean_linker_0, # of connection points: 2
# Relax obj value: 0.022
# Max RMSD: 0.137
# Mean RMSD: 0.075
data_MOF--net-fgl--node1-ESEHIV_clean_sbu_0--node2-QUQFOY_clean_sbu_3--edge1-OJICUG_clean_linker_0
_symmetry_space_group_name_H-M    P1
_symmetry_Int_Tables_number       1
_symmetry_cell_setting            triclinic
loop_
_symmetry_equiv_pos_as_xyz
'x, y, z'
_cell_length_a     57.252237
_cell_length_b     56.735228
_cell_length_c     38.539713
_cell_angle_alpha  89.542224
_cell_angle_beta   91.051327
_cell_angle_gamma 119.8391
loop_
_atom_site_label
_atom_site_type_symbol
_atom_site_fract_x
_atom_site_fract_y
_atom_site_fract_z
_atom_type_partial_charge
Cu0 Cu 0.02173 0.54601 0.01796 0.0
N1 N 0.04193 0.57212 0.05227 0.0
N2 N 0.05127 0.6017 0.09582 0.0
C3 C 0.03721 0.59126 0.06591 0.0
C4 C 0.06559 0.58892 0.10095 0.0
C5 C 0.05985 0.57082 0.07414 0.0
O6 O 0.99709 0.55581 0.99577 0.0
C7 C 0.99687 0.48826 0.02554 0.0
O8 O 0.99529 0.48749 0.99153 0.0
H9 H 0.02217 0.59585 0.05586 0.0
H10 H 0.06662 0.55617 0.07221 0.0
N11 N 0.04366 0.54445 0.98363 0.0
N12 N 0.05282 0.52789 0.93637 0.0
C13 C 0.03482 0.53288 0.95216 0.0
C14 C 0.06847 0.54769 0.98757 0.0
C15 C 0.07422 0.53762 0.95846 0.0
C16 C 0.97959 0.55835 0.01257 0.0
O17 O 0.97539 0.55052 0.04514 0.0
H18 H 0.01472 0.52646 0.94231 0.0
H19 H 0.08065 0.55484 0.01101 0.0
O20 O 0.00475 0.51076 0.04119 0.0
H21 H 0.07806 0.59132 0.1236 0.0
H22 H 0.09191 0.53565 0.95519 0.0
Cu23 Cu 0.519 0.57299 0.04101 0.0
N24 N 0.52197 0.58475 0.99278 0.0
N25 N 0.53344 0.59227 0.93698 0.0
C26 C 0.53824 0.58437 0.96829 0.0
C27 C 0.51322 0.59758 0.94238 0.0
C28 C 0.5062 0.5929 0.97674 0.0
O29 O 0.54981 0.61099 0.05473 0.0
C30 C 0.48996 0.51752 0.01089 0.0
O31 O 0.51392 0.52251 1.00139 0.0
H32 H 0.55311 0.5783 0.97344 0.0
H33 H 0.49037 0.59475 0.98908 0.0
N34 N 0.51478 0.56049 0.0892 0.0
N35 N 0.49323 0.53493 0.1351 0.0
C36 C 0.49086 0.54544 0.10451 0.0
C37 C 0.53315 0.5598 0.1108 0.0
C38 C 0.5199 0.54419 0.13934 0.0
C39 C 0.57412 0.61835 0.04744 0.0
O40 O 0.57934 0.6004 0.03364 0.0
H41 H 0.47198 0.54138 0.09255 0.0
H42 H 0.55434 0.56869 0.10532 0.0
O43 O 0.48764 0.53572 0.0271 0.0
H44 H 0.50363 0.60387 0.92289 0.0
H45 H 0.52905 0.5388 0.16048 0.0
Cu46 Cu 0.48682 0.00579 0.03593 0.0
N47 N 0.46741 0.99298 0.99467 0.0
N48 N 0.4456 0.98929 0.94489 0.0
C49 C 0.45596 0.00385 0.97433 0.0
C50 C 0.45077 0.96857 0.94695 0.0
C51 C 0.46433 0.97099 0.97762 0.0
O52 O 0.4633 0.98738 0.07514 0.0
C53 C 0.53209 0.01641 1.00222 0.0
O54 O 0.52063 0.0265 0.98178 0.0
H55 H 0.45562 0.02221 0.9808 0.0
H56 H 0.47204 0.95803 0.98665 0.0
N57 N 0.49886 0.04249 0.04411 0.0
N58 N 0.52791 0.07819 0.07635 0.0
C59 C 0.52473 0.05898 0.05341 0.0
C60 C 0.48504 0.05247 0.06042 0.0
C61 C 0.50292 0.0745 0.08035 0.0
C62 C 0.43869 0.96917 0.07057 0.0
O63 O 0.43107 0.95654 0.0406 0.0
H64 H 0.54009 0.05357 0.04942 0.0
H65 H 0.46334 0.04188 0.06246 0.0
O66 O 0.51982 0.00404 0.02978 0.0
H67 H 0.44601 0.95335 0.92714 0.0
H68 H 0.49741 0.08437 0.09989 0.0
Cu69 Cu 0.50105 0.0356 0.52599 0.0
N70 N 0.49701 0.02226 0.48116 0.0
N71 N 0.5094 0.02405 0.42615 0.0
C72 C 0.51762 0.0322 0.45909 0.0
C73 C 0.48238 0.00793 0.42773 0.0
C74 C 0.47475 0.00706 0.46176 0.0
O75 O 0.53599 0.04098 0.54302 0.0
C76 C 0.47225 0.06277 0.51792 0.0
O77 O 0.45254 0.03749 0.51878 0.0
H78 H 0.53818 0.04614 0.46708 0.0
H79 H 0.45438 0.99746 0.47121 0.0
N80 N 0.47418 0.01192 0.55598 0.0
N81 N 0.4452 1.00126 0.5993 0.0
C82 C 0.46822 0.02057 0.58505 0.0
C83 C 0.4545 0.98596 0.55171 0.0
C84 C 0.43654 0.9793 0.5785 0.0
C85 C 0.53654 0.01927 0.55066 0.0
O86 O 0.51401 0.99591 0.54835 0.0
H87 H 0.47953 0.04143 0.59385 0.0
H88 H 0.45262 0.97328 0.52983 0.0
O89 O 0.49658 0.06771 0.52097 0.0
H90 H 0.46892 0.99869 0.40569 0.0
H91 H 0.41816 0.96011 0.58171 0.0
Cu92 Cu 0.03935 0.5582 0.51183 0.0
N93 N 0.06325 0.55232 0.53868 0.0
N94 N 0.07051 0.53071 0.58281 0.0
C95 C 0.05543 0.54112 0.57018 0.0
C96 C 0.08895 0.53597 0.55806 0.0
C97 C 0.08426 0.54913 0.53067 0.0
O98 O 0.01001 0.52134 0.50479 0.0
C99 C 0.04939 0.6022 0.55261 0.0
O100 O 0.07393 0.606 0.55093 0.0
H101 H 0.03707 0.53813 0.58172 0.0
H102 H 0.09392 0.55376 0.50575 0.0
N103 N 0.05155 0.57652 0.46965 0.0
N104 N 0.05048 0.60078 0.42404 0.0
C105 C 0.03704 0.58523 0.45143 0.0
C106 C 0.07517 0.58676 0.45323 0.0
C107 C 0.0745 0.60162 0.42489 0.0
C108 C 0.01084 0.50769 0.47926 0.0
O109 O 0.02744 0.52052 0.45388 0.0
H110 H 0.01708 0.58063 0.45888 0.0
H111 H 0.09203 0.58453 0.4619 0.0
O112 O 0.03003 0.58104 0.53859 0.0
H113 H 0.10372 0.52938 0.55858 0.0
H114 H 0.09087 0.61312 0.40731 0.0
Cu115 Cu 0.51606 0.58159 0.50357 0.0
N116 N 0.53394 0.61551 0.48242 0.0
N117 N 0.56794 0.65627 0.46803 0.0
C118 C 0.55862 0.63581 0.4913 0.0
C119 C 0.54828 0.64857 0.44361 0.0
C120 C 0.52724 0.6234 0.45266 0.0
O121 O 0.54179 0.58039 0.53628 0.0
C122 C 0.48901 0.52831 0.47067 0.0
O123 O 0.48706 0.51803 0.50185 0.0
H124 H 0.57025 0.63478 0.51313 0.0
H125 H 0.50896 0.61113 0.43775 0.0
N126 N 0.48745 0.5788 0.52894 0.0
N127 N 0.44699 0.5579 0.55332 0.0
C128 C 0.46207 0.55806 0.52673 0.0
C129 C 0.48852 0.59269 0.55764 0.0
C130 C 0.46354 0.57973 0.57289 0.0
C131 C 0.53504 0.5665 0.56414 0.0
O132 O 0.50964 0.54828 0.56875 0.0
H133 H 0.45548 0.54193 0.50781 0.0
H134 H 0.50669 0.60972 0.56816 0.0
O135 O 0.50176 0.55405 0.4668 0.0
H136 H 0.54942 0.65987 0.42033 0.0
H137 H 0.45846 0.585 0.59745 0.0
Cu138 Cu 0.70957 0.92036 0.32781 0.0
N139 N 0.70946 0.94731 0.30029 0.0
N140 N 0.69117 0.97007 0.27569 0.0
C141 C 0.68741 0.94973 0.29715 0.0
C142 C 0.71669 0.9809 0.26455 0.0
C143 C 0.72804 0.96674 0.27993 0.0
O144 O 0.69402 0.92209 0.37311 0.0
C145 C 0.70843 0.89121 0.2713 0.0
O146 O 0.73071 0.91467 0.2684 0.0
H147 H 0.66892 0.93681 0.3107 0.0
H148 H 0.74835 0.97048 0.27678 0.0
N149 N 0.74378 0.92592 0.33898 0.0
N150 N 0.77069 0.91142 0.36103 0.0
C151 C 0.74727 0.90451 0.34453 0.0
C152 C 0.76614 0.94753 0.35195 0.0
C153 C 0.78272 0.93851 0.36603 0.0
C154 C 0.70567 0.94614 0.38612 0.0
O155 O 0.72449 0.96578 0.36778 0.0
H156 H 0.73145 0.88373 0.34023 0.0
H157 H 0.76921 0.96788 0.35381 0.0
O158 O 0.69339 0.88772 0.29737 0.0
H159 H 0.72666 0.99831 0.24758 0.0
H160 H 0.80105 0.95048 0.38103 0.0
Cu161 Cu 0.18018 0.90218 0.39857 0.0
N162 N 0.14636 0.88779 0.3769 0.0
N163 N 0.11086 0.85451 0.34906 0.0
C164 C 0.13131 0.86086 0.37163 0.0
C165 C 0.11281 0.87835 0.33964 0.0
C166 C 0.13473 0.89898 0.35717 0.0
O167 O 0.17367 0.87527 0.43468 0.0
C168 C 0.20525 0.92141 0.33781 0.0
O169 O 0.19278 0.93519 0.34292 0.0
H170 H 0.1365 0.84627 0.38209 0.0
H171 H 0.14247 0.92056 0.35409 0.0
N172 N 0.19426 0.93757 0.41628 0.0
N173 N 0.22533 0.98104 0.4267 0.0
C174 C 0.22063 0.95642 0.41595 0.0
C175 C 0.1817 0.95064 0.42779 0.0
C176 C 0.20086 0.97743 0.43449 0.0
C177 C 0.16607 0.87759 0.46475 0.0
O178 O 0.16917 0.90116 0.47423 0.0
H179 H 0.23601 0.95222 0.40706 0.0
H180 H 0.16011 0.94157 0.43008 0.0
O181 O 0.20394 0.90476 0.36118 0.0
H182 H 0.09983 0.88068 0.32083 0.0
H183 H 0.19693 0.99326 0.44294 0.0
Cu184 Cu 0.17793 0.40155 0.36221 0.0
N185 N 0.16967 0.42171 0.33093 0.0
N186 N 0.15068 0.42743 0.28263 0.0
C187 C 0.16175 0.41372 0.298 0.0
C188 C 0.15278 0.44556 0.3069 0.0
C189 C 0.16438 0.44188 0.33668 0.0
O190 O 0.14444 0.37194 0.37983 0.0
C191 C 0.2234 0.41269 0.32785 0.0
O192 O 0.22353 0.43585 0.32518 0.0
H193 H 0.1617 0.39622 0.28708 0.0
H194 H 0.16693 0.45179 0.36144 0.0
N195 N 0.19644 0.41998 0.40198 0.0
N196 N 0.22094 0.42298 0.44918 0.0
C197 C 0.20196 0.40634 0.4263 0.0
C198 C 0.21223 0.44646 0.4098 0.0
C199 C 0.22731 0.44836 0.43932 0.0
C200 C 0.12153 0.36254 0.36478 0.0
O201 O 0.12027 0.36673 0.33146 0.0
H202 H 0.1937 0.38454 0.42538 0.0
H203 H 0.21436 0.4631 0.39369 0.0
O204 O 0.20308 0.39242 0.34135 0.0
H205 H 0.14504 0.45943 0.30436 0.0
H206 H 0.24335 0.46689 0.45067 0.0
Cu207 Cu 0.17188 0.35392 0.87218 0.0
N208 N 0.17826 0.33626 0.83618 0.0
N209 N 0.20076 0.33596 0.78958 0.0
C210 C 0.19589 0.3512 0.81165 0.0
C211 C 0.18522 0.31008 0.80046 0.0
C212 C 0.17146 0.31034 0.82958 0.0
O213 O 0.20604 0.37001 0.8981 0.0
C214 C 0.13974 0.36316 0.8295 0.0
O215 O 0.13076 0.33696 0.82664 0.0
H216 H 0.20538 0.37312 0.81062 0.0
H217 H 0.15834 0.29309 0.84537 0.0
N218 N 0.1436 0.33286 0.90195 0.0
N219 N 0.11319 0.32678 0.94186 0.0
C220 C 0.13634 0.3446 0.92642 0.0
C221 C 0.12445 0.30647 0.90172 0.0
C222 C 0.10571 0.30261 0.9266 0.0
C223 C 0.20906 0.35307 0.917 0.0
O224 O 0.18824 0.32868 0.92129 0.0
H225 H 0.14766 0.36613 0.93201 0.0
H226 H 0.12346 0.29143 0.88382 0.0
O227 O 0.16008 0.37721 0.84942 0.0
H228 H 0.18471 0.29243 0.78915 0.0
H229 H 0.08743 0.28376 0.93186 0.0
Cu230 Cu 0.68884 0.87403 0.82577 0.0
N231 N 0.68307 0.84275 0.80164 0.0
N232 N 0.67433 0.80097 0.78674 0.0
C233 C 0.67116 0.81629 0.81105 0.0
C234 C 0.68871 0.81842 0.7614 0.0
C235 C 0.69424 0.84398 0.77076 0.0
O236 O 0.70952 0.87876 0.86911 0.0
C237 C 0.68757 0.9001 0.76453 0.0
O238 O 0.66636 0.87595 0.75983 0.0
H239 H 0.6613 0.80865 0.8356 0.0
H240 H 0.70663 0.86249 0.75659 0.0
N241 N 0.65818 0.87237 0.84397 0.0
N242 N 0.64694 0.89889 0.87384 0.0
C243 C 0.65676 0.89537 0.84402 0.0
C244 C 0.64763 0.86025 0.87444 0.0
C245 C 0.64086 0.87667 0.89304 0.0
C246 C 0.71719 0.86237 0.88009 0.0
O247 O 0.71913 0.84597 0.858 0.0
H248 H 0.66744 0.91168 0.82573 0.0
H249 H 0.64924 0.84339 0.88503 0.0
O250 O 0.70196 0.90448 0.7922 0.0
H251 H 0.69601 0.81333 0.73854 0.0
H252 H 0.63493 0.874 0.91993 0.0
Cu253 Cu 0.16096 0.87511 0.88339 0.0
N254 N 0.13828 0.87428 0.84745 0.0
N255 N 0.11376 0.85707 0.79873 0.0
C256 C 0.12738 0.8533 0.82507 0.0
C257 C 0.11602 0.88156 0.80512 0.0
C258 C 0.13119 0.89215 0.83526 0.0
O259 O 0.14095 0.83866 0.90278 0.0
C260 C 0.20408 0.89773 0.83543 0.0
O261 O 0.1859 0.89573 0.81262 0.0
H262 H 0.13087 0.83628 0.82725 0.0
H263 H 0.1374 0.91181 0.84657 0.0
N264 N 0.16833 0.89981 0.91937 0.0
N265 N 0.18899 0.92201 0.96829 0.0
C266 C 0.18475 0.90197 0.94606 0.0
C267 C 0.16179 0.91922 0.92464 0.0
C268 C 0.17456 0.93299 0.95488 0.0
C269 C 0.12043 0.8344 0.92019 0.0
O270 O 0.11697 0.85511 0.92692 0.0
H271 H 0.19414 0.88952 0.94833 0.0
H272 H 0.14902 0.92332 0.90763 0.0
O273 O 0.19662 0.88647 0.86509 0.0
H274 H 0.10785 0.89145 0.78889 0.0
H275 H 0.17332 0.94978 0.96601 0.0
Cu276 Cu 0.38301 0.24829 0.7136 0.0
N277 N 0.40252 0.28313 0.69495 0.0
N278 N 0.4041 0.31941 0.6696 0.0
C279 C 0.38924 0.29259 0.67566 0.0
C280 C 0.42807 0.32727 0.68559 0.0
C281 C 0.42713 0.30468 0.70108 0.0
O282 O 0.3625 0.25316 0.75111 0.0
C283 C 0.38491 0.22821 0.65158 0.0
O284 O 0.41001 0.24421 0.6617 0.0
H285 H 0.36807 0.28032 0.66892 0.0
H286 H 0.4425 0.30444 0.71757 0.0
N287 N 0.40251 0.23322 0.73377 0.0
N288 N 0.40757 0.19906 0.75412 0.0
C289 C 0.39182 0.20612 0.73574 0.0
C290 C 0.42618 0.24386 0.75125 0.0
C291 C 0.42923 0.2227 0.7642 0.0
C292 C 0.37839 0.27085 0.77336 0.0
O293 O 0.40439 0.28096 0.76989 0.0
H294 H 0.37212 0.19179 0.72525 0.0
H295 H 0.43982 0.26532 0.7553 0.0
O296 O 0.36626 0.22552 0.67194 0.0
H297 H 0.44452 0.348 0.68746 0.0
H298 H 0.44577 0.22451 0.78023 0.0
Cu299 Cu 0.8471 0.20805 0.70714 0.0
N300 N 0.87618 0.21203 0.68188 0.0
N301 N 0.90386 0.23325 0.63785 0.0
C302 C 0.87816 0.21986 0.64855 0.0
C303 C 0.91868 0.23318 0.66549 0.0
C304 C 0.90156 0.22036 0.6928 0.0
O305 O 0.85856 0.24646 0.7154 0.0
C306 C 0.81304 0.16394 0.66676 0.0
O307 O 0.83331 0.15965 0.67252 0.0
H308 H 0.86122 0.21838 0.6338 0.0
H309 H 0.90755 0.22033 0.71956 0.0
N310 N 0.84041 0.1885 0.7486 0.0
N311 N 0.81491 0.16141 0.79138 0.0
C312 C 0.81632 0.17712 0.76408 0.0
C313 C 0.85498 0.17977 0.76665 0.0
C314 C 0.83935 0.16318 0.79324 0.0
C315 C 0.87473 0.25868 0.74084 0.0
O316 O 0.87709 0.24402 0.76572 0.0
H317 H 0.79995 0.17999 0.75484 0.0
H318 H 0.87512 0.18433 0.76029 0.0
O319 O 0.81468 0.18575 0.67862 0.0
H320 H 0.94046 0.24419 0.66711 0.0
H321 H 0.8452 0.15243 0.81156 0.0
Cu322 Cu 0.83668 0.67879 0.6811 0.0
N323 N 0.81991 0.68224 0.64102 0.0
N324 N 0.79812 0.69131 0.59938 0.0
C325 C 0.81291 0.70033 0.62906 0.0
C326 C 0.79622 0.6672 0.59234 0.0
C327 C 0.80961 0.66172 0.61798 0.0
O328 O 0.80701 0.65123 0.70841 0.0
C329 C 0.87997 0.69082 0.64272 0.0
O330 O 0.87352 0.70927 0.63378 0.0
H331 H 0.81753 0.71893 0.64235 0.0
H332 H 0.81132 0.64362 0.62029 0.0
N333 N 0.85648 0.70874 0.71025 0.0
N334 N 0.88546 0.7253 0.75538 0.0
C335 C 0.87855 0.71067 0.72588 0.0
C336 C 0.8493 0.72338 0.73026 0.0
C337 C 0.86719 0.73362 0.7582 0.0
C338 C 0.78895 0.65782 0.71303 0.0
O339 O 0.79258 0.68091 0.70044 0.0
H340 H 0.88696 0.6981 0.71859 0.0
H341 H 0.83091 0.72417 0.72715 0.0
O342 O 0.8647 0.67207 0.66372 0.0
H343 H 0.78573 0.65437 0.57023 0.0
H344 H 0.86541 0.74426 0.78028 0.0
Cu345 Cu 0.83225 0.70568 0.18502 0.0
N346 N 0.82763 0.68501 0.1456 0.0
N347 N 0.84219 0.67733 0.09578 0.0
C348 C 0.84902 0.68842 0.12773 0.0
C349 C 0.8151 0.66592 0.09368 0.0
C350 C 0.80617 0.67094 0.12444 0.0
O351 O 0.86822 0.71509 0.20222 0.0
C352 C 0.80242 0.73167 0.17124 0.0
O353 O 0.78331 0.7088 0.18402 0.0
H354 H 0.86947 0.70032 0.13744 0.0
H355 H 0.78591 0.66646 0.12991 0.0
N356 N 0.80833 0.68736 0.2208 0.0
N357 N 0.7866 0.68471 0.2695 0.0
C358 C 0.8082 0.70018 0.24987 0.0
C359 C 0.78625 0.66256 0.2221 0.0
C360 C 0.77271 0.6609 0.25221 0.0
C361 C 0.86953 0.69477 0.21447 0.0
O362 O 0.84716 0.6713 0.21671 0.0
H363 H 0.82259 0.72134 0.25493 0.0
H364 H 0.77968 0.64747 0.20174 0.0
O365 O 0.82636 0.73549 0.16969 0.0
H366 H 0.80284 0.65633 0.0708 0.0
H367 H 0.75365 0.64391 0.26004 0.0
Cu368 Cu 0.36404 0.22457 0.20027 0.0
N369 N 0.35447 0.19123 0.17864 0.0
N370 N 0.34355 0.14809 0.16839 0.0
C371 C 0.34326 0.16574 0.19166 0.0
C372 C 0.35541 0.16301 0.14003 0.0
C373 C 0.36238 0.18942 0.14654 0.0
O374 O 0.38454 0.22835 0.24319 0.0
C375 C 0.36483 0.24958 0.13797 0.0
O376 O 0.3415 0.22703 0.13564 0.0
H377 H 0.33621 0.16053 0.21799 0.0
H378 H 0.37391 0.20645 0.12959 0.0
N379 N 0.33537 0.22758 0.21735 0.0
N380 N 0.32481 0.25706 0.24068 0.0
C381 C 0.33504 0.25102 0.21316 0.0
C382 C 0.32408 0.218 0.24843 0.0
C383 C 0.31767 0.23622 0.26296 0.0
C384 C 0.39345 0.21265 0.25256 0.0
O385 O 0.39639 0.19768 0.22915 0.0
H386 H 0.34634 0.26575 0.19338 0.0
H387 H 0.32449 0.20143 0.26196 0.0
O388 O 0.37975 0.25346 0.16493 0.0
H389 H 0.36027 0.15565 0.11697 0.0
H390 H 0.31104 0.23566 0.28924 0.0
Cu391 Cu 0.83758 0.21399 0.19745 0.0
N392 N 0.82153 0.21153 0.15409 0.0
N393 N 0.79828 0.19055 0.10582 0.0
C394 C 0.8058 0.18754 0.1382 0.0
C395 C 0.80965 0.21774 0.10141 0.0
C396 C 0.82405 0.23064 0.13123 0.0
O397 O 0.81018 0.18411 0.22391 0.0
C398 C 0.88356 0.21988 0.16386 0.0
O399 O 0.86936 0.21382 0.13484 0.0
H400 H 0.80034 0.16823 0.15026 0.0
H401 H 0.83613 0.25231 0.13551 0.0
N402 N 0.8484 0.24577 0.22247 0.0
N403 N 0.86826 0.27298 0.26821 0.0
C404 C 0.86329 0.25014 0.25147 0.0
C405 C 0.84382 0.26678 0.22 0.0
C406 C 0.85611 0.28369 0.24832 0.0
C407 C 0.79212 0.18766 0.23787 0.0
O408 O 0.79496 0.21209 0.23785 0.0
H409 H 0.87019 0.2364 0.2599 0.0
H410 H 0.83191 0.26927 0.19972 0.0
O411 O 0.87132 0.21405 0.19262 0.0
H412 H 0.80843 0.22772 0.07797 0.0
H413 H 0.85553 0.30202 0.25408 0.0
C414 C 0.01333 0.65742 0.33331 0.0
O415 O 0.99462 0.66124 0.34398 0.0
Cd416 Cd 0.97904 0.68813 0.31441 0.0
O417 O 0.02348 0.66609 0.30347 0.0
Cd418 Cd 0.01646 0.68896 0.25068 0.0
C419 C 0.04077 0.74618 0.29984 0.0
O420 O 0.96844 0.67297 0.25598 0.0
O421 O 0.98929 0.70603 0.22026 0.0
O422 O 0.01577 0.65033 0.22238 0.0
C423 C 0.96736 0.68958 0.23467 0.0
O424 O 0.01851 0.7333 0.31561 0.0
C425 C 0.03059 0.66307 0.197 0.0
O426 O 0.04661 0.73517 0.27513 0.0
O427 O 0.03931 0.68855 0.19585 0.0
C428 C 0.40503 0.4595 0.21973 0.0
O429 O 0.38141 0.44925 0.20678 0.0
Cd430 Cd 0.34062 0.42006 0.23642 0.0
O431 O 0.40859 0.4548 0.25131 0.0
Cd432 Cd 0.38097 0.42997 0.30355 0.0
C433 C 0.35166 0.36784 0.26322 0.0
O434 O 0.34503 0.44 0.29176 0.0
O435 O 0.33704 0.41144 0.33308 0.0
O436 O 0.4132 0.47152 0.33392 0.0
C437 C 0.32891 0.42458 0.31456 0.0
O438 O 0.3394 0.37694 0.24438 0.0
C439 C 0.4191 0.46044 0.35865 0.0
O440 O 0.36927 0.38295 0.28596 0.0
O441 O 0.40722 0.43459 0.3583 0.0
C442 C 0.60222 0.07819 0.17175 0.0
O443 O 0.61624 0.06923 0.15783 0.0
Cd444 Cd 0.63955 0.04836 0.18621 0.0
O445 O 0.59937 0.07724 0.20448 0.0
Cd446 Cd 0.61596 0.06306 0.25551 0.0
C447 C 0.68309 0.10107 0.23859 0.0
O448 O 0.61443 0.02185 0.23369 0.0
O449 O 0.63197 0.03643 0.28468 0.0
O450 O 0.57162 0.04093 0.28102 0.0
C451 C 0.62627 0.01936 0.26052 0.0
O452 O 0.67854 0.08405 0.21449 0.0
C453 C 0.57858 0.05543 0.30827 0.0
O454 O 0.66384 0.10049 0.25568 0.0
O455 O 0.6029 0.07467 0.3103 0.0
C456 C 0.06871 0.39368 0.75952 0.0
O457 O 0.06152 0.38584 0.72836 0.0
Cd458 Cd 0.03363 0.39705 0.69255 0.0
O459 O 0.0594 0.40692 0.77517 0.0
Cd460 Cd 0.02737 0.42371 0.75995 0.0
C461 C 0.97257 0.36263 0.73105 0.0
O462 O 0.05164 0.44412 0.70613 0.0
O463 O 0.01916 0.45163 0.71688 0.0
O464 O 0.05461 0.4582 0.80378 0.0
C465 C 0.03894 0.45634 0.69801 0.0
O466 O 0.98599 0.3658 0.70375 0.0
C467 C 0.03507 0.45786 0.81919 0.0
O468 O 0.98324 0.37925 0.75638 0.0
O469 O 0.01165 0.44118 0.80762 0.0
C470 C 0.68962 0.62828 0.77391 0.0
O471 O 0.68872 0.6331 0.80587 0.0
Cd472 Cd 0.65261 0.63671 0.83267 0.0
O473 O 0.67084 0.62551 0.75304 0.0
Cd474 Cd 0.62787 0.62682 0.75412 0.0
C475 C 0.65356 0.69062 0.7902 0.0
O476 O 0.61056 0.60234 0.80884 0.0
O477 O 0.58919 0.62114 0.78601 0.0
O478 O 0.60132 0.58975 0.71245 0.0
C479 C 0.59118 0.60715 0.81048 0.0
O480 O 0.65668 0.68082 0.81864 0.0
C481 C 0.60151 0.60514 0.68821 0.0
O482 O 0.64558 0.67613 0.76266 0.0
O483 O 0.61419 0.6305 0.69439 0.0
C484 C 0.37595 0.08984 0.79543 0.0
O485 O 0.3729 0.08407 0.82754 0.0
Cd486 Cd 0.3674 0.04332 0.85388 0.0
O487 O 0.37498 0.0727 0.77332 0.0
Cd488 Cd 0.37046 0.02631 0.77566 0.0
C489 C 0.31121 0.98901 0.81682 0.0
O490 O 0.40037 0.03733 0.8257 0.0
O491 O 0.37993 0.99539 0.80976 0.0
O492 O 0.4056 0.03917 0.73342 0.0
C493 C 0.39718 0.01377 0.82951 0.0
O494 O 0.32374 1.00268 0.84371 0.0
C495 C 0.39215 0.01974 0.71247 0.0
O496 O 0.32227 0.99519 0.78716 0.0
O497 O 0.3676 0.00387 0.71966 0.0
C498 C 0.68062 0.97553 0.66924 0.0
O499 O 0.67053 0.98878 0.68256 0.0
Cd500 Cd 0.65537 0.01574 0.65127 0.0
O501 O 0.68424 0.97644 0.63641 0.0
Cd502 Cd 0.67862 1.00275 0.58528 0.0
C503 C 0.71615 0.06592 0.62519 0.0
O504 O 0.63273 0.99399 0.5979 0.0
O505 O 0.65435 0.02556 0.56066 0.0
O506 O 0.66841 0.96544 0.54176 0.0
C507 C 0.63243 0.01073 0.5761 0.0
O508 O 0.69529 0.05977 0.64276 0.0
C509 C 0.68702 0.98045 0.52104 0.0
O510 O 0.71656 0.04846 0.60472 0.0
O511 O 0.70171 0.00505 0.53047 0.0
C512 C 0.08058 0.78801 0.53832 0.0
O513 O 0.05926 0.77298 0.52087 0.0
Cd514 Cd 0.01794 0.73745 0.54581 0.0
O515 O 0.08108 0.78508 0.57109 0.0
Cd516 Cd 0.04964 0.75507 0.61687 0.0
C517 C 0.0407 0.69689 0.58077 0.0
O518 O 0.00556 0.74931 0.59908 0.0
O519 O 0.00572 0.7218 0.63821 0.0
O520 O 0.06409 0.79626 0.65083 0.0
C521 C 0.99239 0.73001 0.62033 0.0
O522 O 0.02522 0.70008 0.55953 0.0
C523 C 0.07188 0.78865 0.67748 0.0
O524 O 0.05513 0.71531 0.60299 0.0
O525 O 0.06995 0.76532 0.67595 0.0
C526 C 0.28254 0.39367 0.5408 0.0
O527 O 0.29395 0.3817 0.52753 0.0
Cd528 Cd 0.33456 0.38858 0.55501 0.0
O529 O 0.28818 0.40237 0.57191 0.0
Cd530 Cd 0.31391 0.39859 0.62265 0.0
C531 C 0.35917 0.4547 0.58499 0.0
O532 O 0.32851 0.3657 0.60899 0.0
O533 O 0.35361 0.398 0.64496 0.0
O534 O 0.2725 0.36509 0.65022 0.0
C535 C 0.34856 0.37608 0.63 0.0
O536 O 0.35869 0.43759 0.56337 0.0
C537 C 0.27609 0.3786 0.67785 0.0
O538 O 0.34446 0.4469 0.61177 0.0
O539 O 0.29716 0.40195 0.67962 0.0
C540 C 0.7505 0.77858 0.09198 0.0
O541 O 0.75204 0.7769 0.05931 0.0
Cd542 Cd 0.72159 0.77956 0.01842 0.0
O543 O 0.73318 0.78389 0.10496 0.0
Cd544 Cd 0.6976 0.79662 0.08857 0.0
C545 C 0.66024 0.73139 0.0552 0.0
O546 O 0.72286 0.81974 0.03735 0.0
O547 O 0.68653 0.82142 0.04121 0.0
O548 O 0.71839 0.8276 0.13799 0.0
C549 C 0.70739 0.82728 0.02387 0.0
O550 O 0.67854 0.73898 0.03248 0.0
C551 C 0.697 0.82394 0.15226 0.0
O552 O 0.66166 0.74788 0.07872 0.0
O553 O 0.67503 0.80765 0.1367 0.0
C554 C 0.35752 0.97528 0.15111 0.0
O555 O 0.36179 0.9836 0.18235 0.0
Cd556 Cd 0.32895 0.98718 0.21767 0.0
O557 O 0.33566 0.97012 0.13539 0.0
Cd558 Cd 0.29486 0.97343 0.14873 0.0
C559 C 0.32431 0.03881 0.18109 0.0
O560 O 0.28509 0.94848 0.20496 0.0
O561 O 0.25904 0.96383 0.18847 0.0
O562 O 0.26642 0.93976 0.10389 0.0
C563 C 0.26428 0.95032 0.21041 0.0
O564 O 0.33059 0.0308 0.20881 0.0
C565 C 0.26066 0.95585 0.08761 0.0
O566 O 0.31376 0.02268 0.15543 0.0
O567 O 0.27125 0.9799 0.09926 0.0
C568 C 0.00895 0.40744 0.10307 0.0
O569 O 0.00642 0.40644 0.13585 0.0
Cd570 Cd 0.02272 0.38541 0.1763 0.0
O571 O 0.01979 0.39522 0.08822 0.0
Cd572 Cd 0.03964 0.36622 0.108 0.0
C573 C 0.98495 0.31893 0.15378 0.0
O574 O 0.06618 0.39942 0.15314 0.0
O575 O 0.07263 0.36533 0.15016 0.0
O576 O 0.06608 0.37732 0.05429 0.0
C577 C 0.07902 0.38798 0.16392 0.0
O578 O 0.99095 0.3365 0.17763 0.0
C579 C 0.06084 0.35307 0.04879 0.0
O580 O -0.00184 0.32536 0.12578 0.0
O581 O 0.04537 0.33522 0.07014 0.0
C582 C 0.35987 0.32346 0.03989 0.0
O583 O 0.35019 0.33713 0.05309 0.0
Cd584 Cd 0.33462 0.36335 0.0215 0.0
O585 O 0.36252 0.32326 1.00699 0.0
Cd586 Cd 0.35535 0.34724 0.95489 0.0
C587 C 0.39529 0.41116 0.99002 0.0
O588 O 0.31049 0.33957 0.97013 0.0
O589 O 0.33009 0.36845 0.92918 0.0
O590 O 0.34227 0.30705 0.91609 0.0
C591 C 0.30911 0.35484 0.94693 0.0
O592 O 0.37521 0.40554 1.00898 0.0
C593 C 0.35946 0.32025 0.89294 0.0
O594 O 0.39476 0.39324 0.96959 0.0
O595 O 0.3749 0.34542 0.89897 0.0
C596 C 0.72166 0.09632 0.87536 0.0
O597 O 0.69826 0.0896 0.8637 0.0
Cd598 Cd 0.6574 0.05797 0.89339 0.0
O599 O 0.72458 0.08895 0.90568 0.0
Cd600 Cd 0.69738 0.06612 0.95797 0.0
C601 C 0.67155 0.00654 0.91313 0.0
O602 O 0.65681 0.06963 0.95247 0.0
O603 O 0.65611 0.04066 0.99016 0.0
O604 O 0.7212 0.11079 0.98301 0.0
C605 C 0.64386 0.05153 0.97526 0.0
O606 O 0.65891 0.0162 0.8962 0.0
C607 C 0.73283 0.10557 1.00774 0.0
O608 O 0.68866 0.02046 0.93712 0.0
O609 O 0.72841 0.08119 1.00973 0.0
C610 C 0.94336 0.69936 0.85708 0.0
O611 O 0.95709 0.68891 0.84654 0.0
Cd612 Cd 0.97957 0.67221 0.88514 0.0
O613 O 0.94034 0.70092 0.88942 0.0
Cd614 Cd 0.95579 0.68904 0.9438 0.0
C615 C 0.0228 0.73077 0.92585 0.0
O616 O 0.9511 0.64391 0.93123 0.0
O617 O 0.97065 0.66396 0.97955 0.0
O618 O 0.91036 0.67211 0.96541 0.0
C619 C 0.96105 0.6429 0.96066 0.0
O620 O 0.02027 0.71204 0.90557 0.0
C621 C 0.91744 0.68799 0.99132 0.0
O622 O 0.00236 0.72862 0.94154 0.0
O623 O 0.94245 0.70502 0.99471 0.0
C624 C 0.42111 0.11783 0.45853 0.0
O625 O 0.41922 0.11467 0.42578 0.0
Cd626 Cd 0.38967 0.12145 0.3877 0.0
O627 O 0.40717 0.12633 0.47429 0.0
Cd628 Cd 0.37483 0.14388 0.45901 0.0
C629 C 0.32748 0.08122 0.42592 0.0
O630 O 0.39905 0.16513 0.40622 0.0
O631 O 0.36486 0.17022 0.41318 0.0
O632 O 0.39599 0.17783 0.50534 0.0
C633 C 0.3847 0.17465 0.39458 0.0
O634 O 0.34363 0.08539 0.40124 0.0
C635 C 0.37464 0.17223 0.5214 0.0
O636 O 0.33398 0.09868 0.45018 0.0
O637 O 0.35278 0.15333 0.50848 0.0
C638 C 0.03258 0.3475 0.44846 0.0
O639 O 0.0372 0.35396 0.48039 0.0
Cd640 Cd 0.00428 0.35088 0.52076 0.0
O641 O 0.00941 0.34002 0.43491 0.0
Cd642 Cd 0.96521 0.33319 0.45492 0.0
C643 C 0.98801 0.397 0.48902 0.0
O644 O 0.96677 0.30749 0.50496 0.0
O645 O 0.93111 0.31097 0.5011 0.0
O646 O 0.94229 0.30021 0.40809 0.0
C647 C 0.94388 0.30096 0.51667 0.0
O648 O -0.0019 0.3907 0.5147 0.0
C649 C 0.93086 0.31249 0.39469 0.0
O650 O 0.97695 0.38051 0.4639 0.0
O651 O 0.93507 0.33414 0.40957 0.0
C652 C 0.76107 0.82141 0.43667 0.0
O653 O 0.75687 0.82108 0.46894 0.0
Cd654 Cd 0.74027 0.78089 0.50386 0.0
O655 O 0.75644 0.79973 0.42114 0.0
Cd656 Cd 0.74102 0.75194 0.43756 0.0
C657 C 0.67973 0.73659 0.46596 0.0
O658 O 0.76698 0.76018 0.49227 0.0
O659 O 0.73488 0.71927 0.48243 0.0
O660 O 0.77299 0.74917 0.39887 0.0
C661 C 0.75524 0.73531 0.50064 0.0
O662 O 0.69205 0.74969 0.49328 0.0
C663 C 0.7555 0.72883 0.38168 0.0
O664 O 0.6929 0.73642 0.4398 0.0
O665 O 0.73109 0.71961 0.3898 0.0
C666 C 0.99401 0.46397 0.0813 0.0
C667 C 0.9953 0.46484 0.04495 0.0
H668 H 0.99676 0.44493 0.12803 0.0
C669 C -0.00166 0.4448 0.02759 0.0
H670 H 0.99163 0.47905 0.09545 0.0
C671 C 0.00174 0.42541 0.04629 0.0
C672 C 0.00174 0.42537 0.08275 0.0
H673 H -0.00048 0.44493 0.99956 0.0
H674 H 0.00521 0.41102 0.03221 0.0
C675 C 0.99696 0.44435 0.09996 0.0
C676 C 0.59272 0.66652 0.06993 0.0
C677 C 0.59605 0.64722 0.05108 0.0
H678 H 0.61039 0.7082 0.08653 0.0
C679 C 0.62062 0.65593 0.03435 0.0
H680 H 0.57405 0.66052 0.08314 0.0
C681 C 0.64109 0.6831 0.03582 0.0
C682 C 0.63791 0.70251 0.05449 0.0
H683 H 0.62399 0.64181 0.01947 0.0
H684 H 0.65958 0.68883 0.02229 0.0
C685 C 0.61354 0.69383 0.07189 0.0
C686 C 0.42485 0.98305 0.12507 0.0
C687 C 0.41779 0.96762 0.09433 0.0
H688 H 0.41135 0.99746 0.16728 0.0
C689 C 0.39048 0.95332 0.08395 0.0
H690 H 0.44567 0.99441 0.13377 0.0
C691 C 0.37098 0.95555 0.10266 0.0
C692 C 0.37813 0.97174 0.13264 0.0
H693 H 0.3842 0.94125 0.06043 0.0
H694 H 0.3503 0.94484 0.09329 0.0
C695 C 0.40518 0.9849 0.14418 0.0
C696 C 0.4745 0.09834 0.47755 0.0
C697 C 0.46512 0.08369 0.50849 0.0
H698 H 0.46761 0.12055 0.43723 0.0
C699 C 0.44367 0.0839 0.52548 0.0
H700 H 0.49059 0.098 0.4636 0.0
C701 C 0.43072 0.0971 0.51073 0.0
C702 C 0.43846 0.10959 0.47814 0.0
H703 H 0.43581 0.07233 0.54912 0.0
H704 H 0.41333 0.09561 0.52347 0.0
C705 C 0.4611 0.11094 0.46232 0.0
C706 C 0.99371 0.46191 0.45273 0.0
C707 C -7e-05 0.47808 0.4826 0.0
H708 H 0.98461 0.42349 0.43143 0.0
C709 C 3e-05 0.46666 0.51509 0.0
H710 H 0.99373 0.47029 0.42736 0.0
C711 C 0.99555 0.44007 0.51739 0.0
C712 C 0.99033 0.42422 0.48731 0.0
H713 H 0.00523 0.4788 0.53852 0.0
H714 H 0.99684 0.43217 0.5426 0.0
C715 C 0.98861 0.43515 0.4551 0.0
C716 C 0.60893 0.69131 0.49793 0.0
C717 C 0.5949 0.67908 0.46699 0.0
H718 H 0.64658 0.71954 0.52185 0.0
C719 C 0.60835 0.68796 0.43533 0.0
H720 H 0.59894 0.68498 0.52264 0.0
C721 C 0.6357 0.70755 0.43481 0.0
C722 C 0.65005 0.71895 0.46592 0.0
H723 H 0.59809 0.67876 0.41111 0.0
H724 H 0.6458 0.71314 0.41011 0.0
C725 C 0.63615 0.7112 0.49741 0.0
C726 C 0.9646 0.59225 0.02141 0.0
C727 C 0.96996 0.57643 0.99857 0.0
H728 H 0.95799 0.62595 0.02715 0.0
C729 C 0.96966 0.58089 0.96262 0.0
H730 H 0.96492 0.5895 0.04923 0.0
C731 C 0.96518 0.60156 0.9499 0.0
C732 C 0.9617 0.61852 0.97301 0.0
H733 H 0.9738 0.56902 0.94443 0.0
H734 H 0.96593 0.60521 0.9222 0.0
C735 C 0.96086 0.61328 1.00879 0.0
C736 C 0.46716 0.47067 0.98391 0.0
C737 C 0.46574 0.49058 1.00395 0.0
H738 H 0.44605 0.43002 0.9634 0.0
C739 C 0.44087 0.48436 0.01805 0.0
H740 H 0.48599 0.47481 0.97259 0.0
C741 C 0.41815 0.45883 0.01287 0.0
C742 C 0.41951 0.43869 0.9933 0.0
H743 H 0.43895 0.4991 0.03362 0.0
H744 H 0.39949 0.45484 0.02459 0.0
C745 C 0.44425 0.44501 0.97854 0.0
C746 C 0.57511 0.01617 0.01749 0.0
C747 C 0.56033 0.02382 0.99526 0.0
H748 H 0.6133 0.01898 0.02858 0.0
C749 C 0.57329 0.04044 0.96649 0.0
H750 H 0.56578 0.00354 0.03992 0.0
C751 C 0.60038 0.04959 0.96034 0.0
C752 C 0.61525 0.04213 0.98252 0.0
H753 H 0.56263 0.04682 0.94873 0.0
H754 H 0.60962 0.06241 0.93801 0.0
C755 C 0.60232 0.02513 0.01104 0.0
C756 C 0.58704 0.03924 0.54771 0.0
C757 C 0.56185 0.01912 0.55975 0.0
H758 H 0.62909 0.05218 0.54286 0.0
C759 C 0.5604 0.99694 0.57823 0.0
H760 H 0.58879 0.05643 0.53313 0.0
C761 C 0.58336 0.99459 0.58403 0.0
C762 C 0.6084 0.01413 0.57102 0.0
H763 H 0.54133 0.98107 0.58791 0.0
H764 H 0.58132 0.97706 0.59807 0.0
C765 C 0.61005 0.03665 0.55305 0.0
C766 C 0.06649 0.64697 0.58271 0.0
C767 C 0.04549 0.62458 0.56505 0.0
H768 H 0.0814 0.68747 0.602 0.0
C769 C 0.02199 0.62525 0.55604 0.0
H770 H 0.08483 0.64698 0.59016 0.0
C771 C 0.02022 0.64847 0.56245 0.0
C772 C 0.04177 0.67144 0.57839 0.0
H773 H 0.00547 0.60838 0.54246 0.0
H774 H 0.00218 0.64869 0.55399 0.0
C775 C 0.06456 0.67015 0.58955 0.0
C776 C 0.41498 0.52714 0.59718 0.0
C777 C 0.42128 0.53519 0.56235 0.0
H778 H 0.38978 0.49492 0.63191 0.0
C779 C 0.40391 0.51833 0.53596 0.0
H780 H 0.42801 0.53967 0.61809 0.0
C781 C 0.38251 0.49276 0.54381 0.0
C782 C 0.37769 0.48369 0.57829 0.0
H783 H 0.40789 0.52427 0.509 0.0
H784 H 0.37051 0.47951 0.5227 0.0
C785 C 0.39318 0.50153 0.60512 0.0
C786 C 0.78012 0.89389 0.41481 0.0
C787 C 0.77583 0.89209 0.37874 0.0
H788 H 0.77861 0.8727 0.46166 0.0
C789 C 0.77065 0.86825 0.36147 0.0
H790 H 0.78378 0.91196 0.4287 0.0
C791 C 0.76761 0.84576 0.38016 0.0
C792 C 0.76935 0.84662 0.41659 0.0
H793 H 0.76717 0.8665 0.33365 0.0
H794 H 0.76218 0.82719 0.36618 0.0
C795 C 0.77678 0.87128 0.43363 0.0
C796 C 0.27081 0.01028 0.40289 0.0
C797 C 0.25083 0.0062 0.42674 0.0
H798 H 0.31024 0.03688 0.38373 0.0
C799 C 0.2562 0.02718 0.45034 0.0
H800 H 0.26726 0.99481 0.38396 0.0
C801 C 0.28105 0.05148 0.45029 0.0
C802 C 0.301 0.05552 0.42635 0.0
H803 H 0.24132 0.02464 0.46916 0.0
H804 H 0.28457 0.06714 0.46895 0.0
C805 C 0.29546 0.03459 0.4026 0.0
C806 C 0.09988 0.35589 0.42263 0.0
C807 C 0.09739 0.35408 0.38625 0.0
H808 H 0.08161 0.35554 0.47064 0.0
C809 C 0.0726 0.34798 0.37065 0.0
H810 H 0.11865 0.36055 0.43559 0.0
C811 C 0.05128 0.34517 0.39084 0.0
C812 C 0.05435 0.34854 0.42706 0.0
H813 H 0.06996 0.34646 0.3427 0.0
H814 H 0.03271 0.34123 0.37793 0.0
C815 C 0.07867 0.35326 0.44276 0.0
C816 C 0.1195 0.3937 0.82523 0.0
C817 C 0.12499 0.37449 0.81035 0.0
H818 H 0.09682 0.41454 0.82115 0.0
C819 C 0.11284 0.36274 0.77833 0.0
H820 H 0.12831 0.40274 0.85016 0.0
C821 C 0.09499 0.36934 0.76186 0.0
C822 C 0.08846 0.38765 0.77717 0.0
H823 H 0.11666 0.34781 0.7663 0.0
H824 H 0.0858 0.35949 0.73743 0.0
C825 C 0.10121 0.40011 0.80884 0.0
C826 C 0.66763 0.76047 0.81986 0.0
C827 C 0.66714 0.77272 0.78825 0.0
H828 H 0.66418 0.72518 0.84527 0.0
C829 C 0.66156 0.75754 0.75746 0.0
H830 H 0.67216 0.77173 0.84393 0.0
C831 C 0.6571 0.73097 0.75809 0.0
C832 C 0.65826 0.71889 0.78955 0.0
H833 H 0.6608 0.76634 0.73273 0.0
H834 H 0.65299 0.72002 0.73381 0.0
C835 C 0.66336 0.7339 0.82049 0.0
C836 C 0.24145 0.92949 0.79664 0.0
C837 C 0.23263 0.91853 0.82989 0.0
H838 H 0.27315 0.96031 0.76629 0.0
C839 C 0.25027 0.93029 0.8584 0.0
H840 H 0.22829 0.92095 0.77415 0.0
C841 C 0.27565 0.95315 0.85399 0.0
C842 C 0.28422 0.96463 0.8209 0.0
H843 H 0.24407 0.92257 0.88441 0.0
H844 H 0.28851 0.96195 0.87668 0.0
C845 C 0.26707 0.95216 0.79214 0.0
C846 C 0.67094 0.99081 0.23781 0.0
C847 C 0.67265 0.97989 0.26998 0.0
H848 H 0.65366 0.01116 0.20897 0.0
C849 C 0.65642 0.97924 0.29726 0.0
H850 H 0.68314 0.99132 0.21639 0.0
C851 C 0.63983 0.9905 0.29314 0.0
C852 C 0.63874 1.0022 0.26146 0.0
H853 H 0.65754 0.97122 0.32243 0.0
H854 H 0.62866 0.99108 0.31518 0.0
C855 C 0.65383 1.00169 0.23345 0.0
C856 C 0.08961 0.82223 0.30026 0.0
C857 C 0.0927 0.82771 0.33607 0.0
H858 H 0.07131 0.79162 0.26045 0.0
C859 C 0.07944 0.80623 0.35949 0.0
H860 H 0.10007 0.83854 0.28184 0.0
C861 C 0.06285 0.77978 0.34745 0.0
C862 C 0.05986 0.77409 0.31171 0.0
H863 H 0.08182 0.81006 0.38718 0.0
H864 H 0.05246 0.76366 0.36617 0.0
C865 C 0.07355 0.79549 0.28813 0.0
C866 C 0.26761 0.43223 0.29882 0.0
C867 C 0.24867 0.41256 0.32112 0.0
H868 H 0.30764 0.4514 0.27933 0.0
C869 C 0.25583 0.39584 0.3402 0.0
H870 H 0.26268 0.44546 0.28386 0.0
C871 C 0.28189 0.39956 0.33803 0.0
C872 C 0.30109 0.41988 0.31649 0.0
H873 H 0.24177 0.38079 0.35798 0.0
H874 H 0.28712 0.38684 0.35363 0.0
C875 C 0.29345 0.43575 0.2964 0.0
C876 C 0.2593 0.375 0.90987 0.0
C877 C 0.23595 0.35775 0.92838 0.0
H878 H 0.30078 0.38744 0.90091 0.0
C879 C 0.23759 0.34135 0.95478 0.0
H880 H 0.25861 0.38762 0.88909 0.0
C881 C 0.26155 0.34112 0.96144 0.0
C882 C 0.28453 0.35717 0.94171 0.0
H883 H 0.21996 0.32782 0.96953 0.0
H884 H 0.26175 0.32763 0.98134 0.0
C885 C 0.28336 0.37465 0.91641 0.0
C886 C 0.64613 0.94109 0.8626 0.0
C887 C 0.65108 0.92477 0.88557 0.0
H888 H 0.64887 0.97944 0.85312 0.0
C889 C 0.66311 0.9355 0.91816 0.0
H890 H 0.63719 0.9334 0.83725 0.0
C891 C 0.6704 0.96229 0.92725 0.0
C892 C 0.66543 0.9786 0.90404 0.0
H893 H 0.66769 0.92351 0.93609 0.0
H894 H 0.67972 0.97012 0.95239 0.0
C895 C 0.65302 0.96753 0.87174 0.0
C896 C 0.07641 0.80304 0.9476 0.0
C897 C 0.09785 0.8066 0.9267 0.0
H898 H 0.03604 0.77644 0.96392 0.0
C899 C 0.0955 0.7841 0.90868 0.0
H900 H 0.07763 0.81993 0.96205 0.0
C901 C 0.07152 0.75909 0.90972 0.0
C902 C 0.0494 0.75604 0.92882 0.0
H903 H 0.11158 0.78617 0.89228 0.0
H904 H 0.06997 0.74246 0.89432 0.0
C905 C 0.05248 0.77808 0.94866 0.0
C906 C 0.38769 0.15035 0.74007 0.0
C907 C 0.40062 0.17186 0.76396 0.0
H908 H 0.36994 0.10746 0.73109 0.0
C909 C 0.40511 0.16616 0.79808 0.0
H910 H 0.38403 0.15431 0.71357 0.0
C911 C 0.39644 0.13942 0.80834 0.0
C912 C 0.38363 0.11784 0.78447 0.0
H913 H 0.41472 0.18234 0.81704 0.0
H914 H 0.40016 0.13571 0.83494 0.0
C915 C 0.37959 0.12361 0.75009 0.0
C916 C 0.90971 0.30251 0.76826 0.0
C917 C 0.89619 0.28774 0.73815 0.0
H918 H 0.94401 0.33788 0.78978 0.0
C919 C 0.90659 0.2993 0.70568 0.0
H920 H 0.90236 0.29408 0.79369 0.0
C921 C 0.93081 0.32412 0.70346 0.0
C922 C 0.94505 0.3383 0.73362 0.0
H923 H 0.89701 0.28833 0.68197 0.0
H924 H 0.93886 0.33177 0.67801 0.0
C925 C 0.93366 0.32762 0.76603 0.0
C926 C 0.76173 0.6432 0.76625 0.0
C927 C 0.76333 0.64046 0.73038 0.0
H928 H 0.73697 0.64124 0.80844 0.0
C929 C 0.73965 0.62947 0.71004 0.0
H930 H 0.77988 0.65243 0.78225 0.0
C931 C 0.71515 0.62351 0.72474 0.0
C932 C 0.71392 0.62867 0.7601 0.0
H933 H 0.74054 0.62789 0.68214 0.0
H934 H 0.69764 0.61671 0.70784 0.0
C935 C 0.73718 0.63719 0.78107 0.0
C936 C 0.77292 0.75221 0.16858 0.0
C937 C 0.79425 0.75002 0.15451 0.0
H938 H 0.7427 0.76348 0.16018 0.0
C939 C 0.80355 0.76084 0.1215 0.0
H940 H 0.76533 0.74393 0.194 0.0
C941 C 0.79018 0.77153 0.10175 0.0
C942 C 0.76758 0.77198 0.11493 0.0
H943 H 0.81973 0.75911 0.1099 0.0
H944 H 0.79677 0.77829 0.07554 0.0
C945 C 0.7599 0.76335 0.14917 0.0
C946 C 0.32682 0.10224 0.14459 0.0
C947 C 0.33639 0.12007 0.17308 0.0
H948 H 0.31563 0.06294 0.12468 0.0
C949 C 0.3412 0.11076 0.20483 0.0
H950 H 0.32274 0.10881 0.1199 0.0
C951 C 0.33732 0.08437 0.20761 0.0
C952 C 0.32837 0.06676 0.17873 0.0
H953 H 0.34887 0.12418 0.22708 0.0
H954 H 0.34159 0.07788 0.23225 0.0
C955 C 0.3228 0.07595 0.14737 0.0
C956 C 0.92436 0.25807 0.19264 0.0
C957 C 0.91217 0.24174 0.16315 0.0
H958 H 0.95673 0.29536 0.21276 0.0
C959 C 0.92591 0.24946 0.13156 0.0
H960 H 0.9144 0.25281 0.21743 0.0
C961 C 0.9503 0.27389 0.12893 0.0
C962 C 0.96136 0.29128 0.15777 0.0
H963 H 0.91714 0.23732 0.10839 0.0
H964 H 0.95974 0.27977 0.10384 0.0
C965 C 0.94858 0.28265 0.18991 0.0
C966 C 0.37294 0.32513 0.63016 0.0
C967 C 0.39351 0.33589 0.65568 0.0
H968 H 0.34262 0.32929 0.60203 0.0
C969 C 0.40082 0.36124 0.67041 0.0
H970 H 0.36711 0.30576 0.61811 0.0
C971 C 0.38672 0.37473 0.66129 0.0
C972 C 0.36512 0.36315 0.63718 0.0
H973 H 0.41639 0.36991 0.69034 0.0
H974 H 0.39216 0.39377 0.67401 0.0
C975 C 0.35889 0.33858 0.621 0.0
C976 C 0.76253 0.13752 0.65963 0.0
C977 C 0.78797 0.14163 0.65089 0.0
H978 H 0.71987 0.11034 0.65844 0.0
C979 C 0.78937 0.12193 0.63039 0.0
H980 H 0.76076 0.15217 0.67558 0.0
C981 C 0.76601 0.09801 0.6204 0.0
C982 C 0.74062 0.09299 0.63105 0.0
H983 H 0.80871 0.12453 0.62311 0.0
H984 H 0.768 0.0829 0.60576 0.0
C985 C 0.73912 0.11339 0.64999 0.0
C986 C 0.92159 0.68764 0.6551 0.0
C987 C 0.90713 0.69611 0.63359 0.0
H988 H 0.96014 0.69197 0.66792 0.0
C989 C 0.92045 0.71391 0.60595 0.0
H990 H 0.91196 0.67422 0.67682 0.0
C991 C 0.94796 0.72439 0.60115 0.0
C992 C 0.96282 0.7172 0.62378 0.0
H993 H 0.90981 0.72074 0.5888 0.0
H994 H 0.95769 0.73869 0.58026 0.0
C995 C 0.94923 0.69809 0.6502 0.0
C996 C 0.9196 0.71513 0.20693 0.0
C997 C 0.89544 0.69564 0.22206 0.0
H998 H 0.9613 0.72827 0.19854 0.0
C999 C 0.89542 0.67477 0.24205 0.0
H1000 H 0.92018 0.73126 0.19109 0.0
C1001 C 0.91877 0.67299 0.24624 0.0
C1002 C 0.94277 0.69192 0.23034 0.0
H1003 H 0.87714 0.65942 0.2541 0.0
H1004 H 0.91788 0.65649 0.26158 0.0
C1005 C 0.94304 0.71321 0.21091 0.0
C1006 C 0.34118 0.29693 0.27968 0.0
C1007 C 0.32931 0.28387 0.24804 0.0
H1008 H 0.35825 0.33403 0.30916 0.0
C1009 C 0.32491 0.29856 0.22184 0.0
H1010 H 0.34532 0.2862 0.30005 0.0
C1011 C 0.3322 0.32571 0.22698 0.0
C1012 C 0.34458 0.33909 0.25828 0.0
H1013 H 0.3161 0.28902 0.19713 0.0
H1014 H 0.3285 0.33638 0.20607 0.0
C1015 C 0.34896 0.32438 0.28467 0.0
C1016 C 0.75884 0.13807 0.23499 0.0
C1017 C 0.76545 0.16422 0.24581 0.0
H1018 H 0.72748 0.09757 0.22446 0.0
C1019 C 0.74509 0.16843 0.2593 0.0
H1020 H 0.77401 0.13408 0.22467 0.0
C1021 C 0.71825 0.14742 0.25917 0.0
C1022 C 0.71142 0.12198 0.2453 0.0
H1023 H 0.74962 0.18836 0.26816 0.0
H1024 H 0.70277 0.15157 0.26786 0.0
C1025 C 0.73209 0.11721 0.23462 0.0
C1026 C 0.02198 0.49196 0.89497 0.0
C1027 C 0.04829 0.51123 0.90594 0.0
H1028 H 0.99719 0.46004 0.8593 0.0
C1029 C 0.07011 0.51295 0.88762 0.0
H1030 H 0.00461 0.48959 0.90861 0.0
C1031 C 0.0658 0.49568 0.85951 0.0
C1032 C 0.03953 0.47626 0.84888 0.0
H1033 H 0.0906 0.52765 0.895 0.0
H1034 H 0.08311 0.49754 0.84614 0.0
C1035 C 0.01768 0.47475 0.86679 0.0
C1036 C 0.54426 0.60926 0.87661 0.0
C1037 C 0.54705 0.59478 0.9047 0.0
H1038 H 0.55558 0.62414 0.82503 0.0
C1039 C 0.5637 0.58325 0.9007 0.0
H1040 H 0.532 0.61876 0.87845 0.0
C1041 C 0.57762 0.5867 0.86987 0.0
C1042 C 0.57504 0.60155 0.8422 0.0
H1043 H 0.56615 0.57159 0.92132 0.0
H1044 H 0.59061 0.57798 0.86785 0.0
C1045 C 0.55794 0.61246 0.84578 0.0
C1046 C 0.41499 0.97457 0.89391 0.0
C1047 C 0.43326 0.9954 0.9161 0.0
H1048 H 0.38931 0.96405 0.84894 0.0
C1049 C 0.43977 0.02232 0.90929 0.0
H1050 H 0.40936 0.9536 0.89874 0.0
C1051 C 0.42821 0.02828 0.8809 0.0
C1052 C 0.40994 0.00744 0.85878 0.0
H1053 H 0.4541 0.03886 0.92554 0.0
H1054 H 0.43362 0.04924 0.8763 0.0
C1055 C 0.40346 0.98054 0.86547 0.0
C1056 C 0.44629 0.02575 0.6525 0.0
C1057 C 0.43161 0.00504 0.62811 0.0
H1058 H 0.44538 0.04683 0.69759 0.0
C1059 C 0.40351 0.98913 0.63158 0.0
H1060 H 0.46796 0.0381 0.65112 0.0
C1061 C 0.39046 0.99403 0.65868 0.0
C1062 C 0.40526 0.015 0.68269 0.0
H1063 H 0.3915 0.97322 0.61309 0.0
H1064 H 0.36883 0.98143 0.66078 0.0
C1065 C 0.4333 0.03076 0.67926 0.0
C1066 C 0.07354 0.49459 0.61621 0.0
C1067 C 0.06425 0.51329 0.61295 0.0
H1068 H 0.07274 0.46193 0.6455 0.0
C1069 C 0.04715 0.51346 0.63871 0.0
H1070 H 0.08651 0.49356 0.59697 0.0
C1071 C 0.03873 0.49484 0.66607 0.0
C1072 C 0.04764 0.47592 0.66887 0.0
H1073 H 0.04003 0.52789 0.63777 0.0
H1074 H 0.02539 0.49543 0.68518 0.0
C1075 C 0.06544 0.47624 0.64395 0.0
C1076 C 0.54902 0.55775 0.6228 0.0
C1077 C 0.55435 0.57487 0.5939 0.0
H1078 H 0.56008 0.55374 0.67508 0.0
C1079 C 0.57669 0.60132 0.59539 0.0
H1080 H 0.53195 0.53729 0.62247 0.0
C1081 C 0.59241 0.61091 0.62575 0.0
C1082 C 0.58652 0.59411 0.65505 0.0
H1083 H 0.58129 0.61512 0.57371 0.0
H1084 H 0.60887 0.63171 0.62651 0.0
C1085 C 0.56512 0.56718 0.65293 0.0
C1086 C 0.04368 0.61035 0.15606 0.0
C1087 C 0.04713 0.61798 0.12094 0.0
H1088 H 0.03543 0.61839 0.20723 0.0
C1089 C 0.0458 0.64118 0.11089 0.0
H1090 H 0.0443 0.59241 0.16447 0.0
C1091 C 0.04136 0.65658 0.13566 0.0
C1092 C 0.03729 0.64846 0.17067 0.0
H1093 H 0.04836 0.64743 0.08397 0.0
H1094 H 0.04035 0.67432 0.1273 0.0
C1095 C 0.03849 0.62518 0.18049 0.0
C1096 C 0.44561 0.49911 0.14195 0.0
C1097 C 0.4715 0.51552 0.15643 0.0
H1098 H 0.40473 0.46869 0.15022 0.0
C1099 C 0.47566 0.51246 0.19193 0.0
H1100 H 0.44164 0.50023 0.11462 0.0
C1101 C 0.45432 0.4939 0.2125 0.0
C1102 C 0.42832 0.47801 0.19802 0.0
H1103 H 0.49528 0.52477 0.20399 0.0
H1104 H 0.45808 0.4924 0.23984 0.0
C1105 C 0.42437 0.48073 0.16243 0.0
C1106 C 0.57554 0.0952 0.09106 0.0
C1107 C 0.54963 0.08871 0.10166 0.0
H1108 H 0.61249 0.09642 0.10494 0.0
C1109 C 0.54393 0.08518 0.13729 0.0
H1110 H 0.58057 0.09834 0.06383 0.0
C1111 C 0.56232 0.08432 0.16095 0.0
C1112 C 0.58654 0.08673 0.14928 0.0
H1113 H 0.52421 0.08012 0.14641 0.0
H1114 H 0.5564 0.07919 0.18772 0.0
C1115 C 0.59368 0.09382 0.11453 0.0
C1116 C 0.51774 0.01696 0.36529 0.0
C1117 C 0.52595 0.03277 0.39567 0.0
H1118 H 0.52781 0.01182 0.31375 0.0
C1119 C 0.55088 0.05715 0.39601 0.0
H1120 H 0.49877 0.99808 0.36411 0.0
C1121 C 0.56761 0.06496 0.36725 0.0
C1122 C 0.55976 0.04871 0.33734 0.0
H1123 H 0.55765 0.07029 0.41852 0.0
H1124 H 0.5869 0.08353 0.36871 0.0
C1125 C 0.53444 0.02486 0.33643 0.0
C1126 C 0.05215 0.62316 0.3675 0.0
C1127 C 0.04158 0.61516 0.401 0.0
H1128 H 0.05153 0.64262 0.31968 0.0
C1129 C 0.022 0.62149 0.41179 0.0
H1130 H 0.06715 0.61853 0.35823 0.0
C1131 C 0.01298 0.63506 0.38978 0.0
C1132 C 0.02331 0.64291 0.35622 0.0
H1133 H 0.01377 0.61633 0.43756 0.0
H1134 H -0.00209 0.63952 0.3993 0.0
C1135 C 0.0431 0.63687 0.34534 0.0
C1136 C 0.45815 0.48199 0.44466 0.0
C1137 C 0.47309 0.51045 0.44102 0.0
H1138 H 0.42954 0.44377 0.42151 0.0
C1139 C 0.4711 0.52194 0.40941 0.0
H1140 H 0.45916 0.47242 0.46863 0.0
C1141 C 0.45396 0.50558 0.38267 0.0
C1142 C 0.43849 0.47721 0.38658 0.0
H1143 H 0.48221 0.54373 0.40557 0.0
H1144 H 0.45259 0.51528 0.35901 0.0
C1145 C 0.44114 0.46554 0.41767 0.0
C1146 C 0.72585 0.87 0.23089 0.0
C1147 C 0.70335 0.87002 0.24491 0.0
H1148 H 0.74147 0.85574 0.19148 0.0
C1149 C 0.67786 0.85292 0.22975 0.0
H1150 H 0.74579 0.8828 0.24197 0.0
C1151 C 0.67536 0.83726 0.20005 0.0
C1152 C 0.69829 0.83843 0.18517 0.0
H1153 H 0.66019 0.85272 0.23966 0.0
H1154 H 0.65566 0.82495 0.18815 0.0
C1155 C 0.72339 0.8545 0.20167 0.0
C1156 C 0.21072 0.93488 0.27609 0.0
C1157 C 0.21915 0.92525 0.30458 0.0
H1158 H 0.21801 0.94987 0.22431 0.0
C1159 C 0.2415 0.92153 0.30108 0.0
H1160 H 0.1933 0.93756 0.27772 0.0
C1161 C 0.25598 0.92883 0.26999 0.0
C1162 C 0.24808 0.93969 0.24212 0.0
H1163 H 0.2484 0.91413 0.32268 0.0
H1164 H 0.27374 0.92678 0.26818 0.0
C1165 C 0.2249 0.94193 0.24533 0.0
C1166 C 0.13491 0.40038 0.22808 0.0
C1167 C 0.13484 0.41982 0.25064 0.0
H1168 H 0.11714 0.37479 0.18352 0.0
C1169 C 0.11738 0.42996 0.24261 0.0
H1170 H 0.14843 0.39248 0.23237 0.0
C1171 C 0.09978 0.4201 0.21394 0.0
C1172 C 0.09894 0.39965 0.19276 0.0
H1173 H 0.11653 0.44492 0.25888 0.0
H1174 H 0.0862 0.42792 0.20904 0.0
C1175 C 0.11698 0.3902 0.19979 0.0
C1176 C 0.08125 0.31289 0.99054 0.0
C1177 C 0.09899 0.33298 0.96764 0.0
H1178 H 0.05529 0.30343 0.03401 0.0
C1179 C 0.10303 0.3595 0.97074 0.0
H1180 H 0.07774 0.29233 0.98905 0.0
C1181 C 0.09028 0.36592 0.99661 0.0
C1182 C 0.07306 0.34597 0.01997 0.0
H1183 H 0.11602 0.37542 0.95314 0.0
H1184 H 0.09415 0.3866 0.99849 0.0
C1185 C 0.06844 0.3193 0.0164 0.0
C1186 C 0.70156 0.86173 0.94114 0.0
C1187 C 0.71771 0.85714 0.91805 0.0
H1188 H 0.68511 0.85542 0.99235 0.0
C1189 C 0.73152 0.84409 0.93078 0.0
H1190 H 0.69039 0.87146 0.93218 0.0
C1191 C 0.72882 0.83532 0.96537 0.0
C1192 C 0.71168 0.83871 0.98801 0.0
H1193 H 0.74398 0.84008 0.91374 0.0
H1194 H 0.73947 0.82497 0.974 0.0
C1195 C 0.69833 0.85233 0.97558 0.0
C1196 C 0.21833 0.95718 0.01126 0.0
C1197 C 0.2064 0.93038 0.99877 0.0
H1198 H 0.24492 0.98627 0.04876 0.0
C1199 C 0.21239 0.91198 0.01602 0.0
H1200 H 0.21444 0.97196 0.99849 0.0
C1201 C 0.23003 0.92022 0.04472 0.0
C1202 C 0.24213 0.94706 0.05696 0.0
H1203 H 0.20329 0.89108 1.00754 0.0
H1204 H 0.23413 0.90551 0.05734 0.0
C1205 C 0.236 0.96542 0.03996 0.0
C1206 C 0.67939 0.93482 0.443 0.0
C1207 C 0.69991 0.95336 0.42119 0.0
H1208 H 0.65904 0.92862 0.49169 0.0
C1209 C 0.71599 0.98031 0.43313 0.0
H1210 H 0.66663 0.91393 0.43485 0.0
C1211 C 0.7118 0.98862 0.46533 0.0
C1212 C 0.69128 0.9704 0.48713 0.0
H1213 H 0.73212 0.9954 0.41753 0.0
H1214 H 0.72472 0.0096 0.47301 0.0
C1215 C 0.67509 0.94327 0.47561 0.0
C1216 C 0.14401 0.85507 0.52049 0.0
C1217 C 0.14752 0.85304 0.48483 0.0
H1218 H 0.12046 0.83596 0.56552 0.0
C1219 C 0.13014 0.82851 0.46763 0.0
H1220 H 0.15698 0.87375 0.53443 0.0
C1221 C 0.10871 0.8072 0.48516 0.0
C1222 C 0.10462 0.80963 0.52053 0.0
H1223 H 0.1321 0.82631 0.44014 0.0
H1224 H 0.09502 0.78899 0.47083 0.0
C1225 C 0.12303 0.83347 0.53826 0.0
C1226 C 0.24018 0.39383 0.46458 0.0
C1227 C 0.2354 0.4151 0.47318 0.0
H1228 H 0.25853 0.3703 0.47918 0.0
C1229 C 0.24519 0.42851 0.50507 0.0
H1230 H 0.23333 0.38341 0.43992 0.0
C1231 C 0.25955 0.42079 0.52788 0.0
C1232 C 0.26476 0.39984 0.51885 0.0
H1233 H 0.2417 0.4449 0.51227 0.0
H1234 H 0.26726 0.43177 0.55207 0.0
C1235 C 0.25475 0.38637 0.48704 0.0
C1236 C 0.24275 0.37225 0.76407 0.0
C1237 C 0.21998 0.34607 0.76189 0.0
H1238 H 0.27818 0.40299 0.73946 0.0
C1239 C 0.21606 0.33047 0.73199 0.0
H1240 H 0.24673 0.38463 0.78701 0.0
C1241 C 0.23423 0.34105 0.70462 0.0
C1242 C 0.25679 0.36739 0.70671 0.0
H1243 H 0.19868 0.31033 0.72947 0.0
H1244 H 0.23054 0.3286 0.68177 0.0
C1245 C 0.26091 0.38276 0.73685 0.0
C1246 C 0.68649 0.91565 0.70387 0.0
C1247 C 0.6917 0.92187 0.73949 0.0
H1248 H 0.67966 0.92794 0.65355 0.0
C1249 C 0.696 0.94713 0.75107 0.0
H1250 H 0.68284 0.89619 0.69425 0.0
C1251 C 0.69337 0.96497 0.7279 0.0
C1252 C 0.68704 0.95825 0.69248 0.0
H1253 H 0.69957 0.95231 0.77839 0.0
H1254 H 0.69549 0.98372 0.73796 0.0
C1255 C 0.68461 0.9338 0.68053 0.0
C1256 C 0.09758 0.84977 0.73735 0.0
C1257 C 0.102 0.83962 0.76871 0.0
H1258 H 0.08478 0.84174 0.68407 0.0
C1259 C 0.09585 0.81227 0.76978 0.0
H1260 H 0.10223 0.87067 0.73526 0.0
C1261 C 0.08629 0.7958 0.7402 0.0
C1262 C 0.08225 0.8061 0.70884 0.0
H1263 H 0.09837 0.80341 0.7935 0.0
H1264 H 0.0819 0.77493 0.74199 0.0
C1265 C 0.08775 0.83319 0.70784 0.0
C1266 C 0.40239 0.22293 0.59524 0.0
C1267 C 0.38025 0.21433 0.61731 0.0
H1268 H 0.41794 0.2167 0.54848 0.0
C1269 C 0.35535 0.19223 0.60667 0.0
H1270 H 0.42189 0.24003 0.60209 0.0
C1271 C 0.35309 0.17865 0.57513 0.0
C1272 C 0.37569 0.18695 0.55382 0.0
H1273 H 0.33792 0.18506 0.62299 0.0
H1274 H 0.33386 0.16135 0.56782 0.0
C1275 C 0.40017 0.20949 0.5642 0.0
C1276 C 0.89854 0.26019 0.59047 0.0
C1277 C 0.91358 0.24962 0.60688 0.0
H1278 H 0.89624 0.28462 0.54934 0.0
C1279 C 0.93863 0.2561 0.59318 0.0
H1280 H 0.87946 0.25627 0.60064 0.0
C1281 C 0.94837 0.27267 0.56382 0.0
C1282 C 0.9333 0.28321 0.54753 0.0
H1283 H 0.95065 0.24825 0.60508 0.0
H1284 H 0.96778 0.27726 0.55394 0.0
C1285 C 0.90826 0.27673 0.56115 0.0
C1286 C 0.79969 0.7315 0.57191 0.0
C1287 C 0.7858 0.70356 0.57905 0.0
H1288 H 0.80089 0.76367 0.54096 0.0
C1289 C 0.76065 0.68693 0.56305 0.0
H1290 H 0.81915 0.74462 0.58395 0.0
C1291 C 0.75029 0.69759 0.53863 0.0
C1292 C 0.76489 0.72517 0.52966 0.0
H1293 H 0.74935 0.6654 0.56869 0.0
H1294 H 0.73123 0.68398 0.52595 0.0
C1295 C 0.78931 0.74227 0.54724 0.0
C1296 C 0.79814 0.71498 0.32029 0.0
C1297 C 0.77859 0.69393 0.29943 0.0
H1298 H 0.80624 0.74252 0.36231 0.0
C1299 C 0.75123 0.68364 0.30679 0.0
H1300 H 0.81938 0.72308 0.31569 0.0
C1301 C 0.74366 0.69477 0.33371 0.0
C1302 C 0.76329 0.71641 0.35379 0.0
H1303 H 0.73566 0.66764 0.29106 0.0
H1304 H 0.72243 0.68674 0.33839 0.0
C1305 C 0.79061 0.72612 0.34706 0.0
C1306 C 0.40763 0.19254 0.30128 0.0
C1307 C 0.39428 0.20644 0.29007 0.0
H1308 H 0.41538 0.17202 0.34296 0.0
C1309 C 0.37895 0.21126 0.31427 0.0
H1310 H 0.41948 0.18837 0.28335 0.0
C1311 C 0.37607 0.20131 0.34834 0.0
C1312 C 0.38887 0.18678 0.35922 0.0
H1313 H 0.36815 0.22166 0.3065 0.0
H1314 H 0.36348 0.20463 0.36601 0.0
C1315 C 0.40519 0.18309 0.33548 0.0
C1316 C 0.89236 0.30968 0.31202 0.0
C1317 C 0.88302 0.28287 0.30072 0.0
H1318 H 0.91468 0.34005 0.35072 0.0
C1319 C 0.88882 0.26582 0.32161 0.0
H1320 H 0.88847 0.32349 0.29681 0.0
C1321 C 0.90422 0.27547 0.35204 0.0
C1322 C 0.91384 0.30227 0.36295 0.0
H1323 H 0.88152 0.24485 0.31478 0.0
H1324 H 0.90848 0.26182 0.36712 0.0
C1325 C 0.90747 0.31922 0.34292 0.0
C1326 C 0.34852 0.26729 0.82356 0.0
C1327 C 0.36968 0.28294 0.80089 0.0
H1328 H 0.32877 0.26667 0.87094 0.0
C1329 C 0.38597 0.3109 0.80766 0.0
H1330 H 0.33586 0.24565 0.81929 0.0
C1331 C 0.38209 0.32285 0.83691 0.0
C1332 C 0.36187 0.3072 0.86067 0.0
H1333 H 0.40245 0.32358 0.79069 0.0
H1334 H 0.39553 0.34434 0.84133 0.0
C1335 C 0.3447 0.27931 0.85331 0.0
C1336 C 0.79451 0.13712 0.84626 0.0
C1337 C 0.7916 0.14499 0.81247 0.0
H1338 H 0.77495 0.11582 0.89258 0.0
C1339 C 0.76541 0.13649 0.79958 0.0
H1340 H 0.8143 0.14343 0.85719 0.0
C1341 C 0.74283 0.12077 0.81991 0.0
C1342 C 0.74574 0.11301 0.85374 0.0
H1343 H 0.76221 0.14164 0.77352 0.0
H1344 H 0.72306 0.11462 0.80898 0.0
C1345 C 0.77189 0.12136 0.86663 0.0
C1346 C 0.92466 0.72051 0.77226 0.0
C1347 C 0.90296 0.72399 0.78188 0.0
H1348 H 0.9541 0.7097 0.78814 0.0
C1349 C 0.89641 0.72191 0.81718 0.0
H1350 H 0.93049 0.72239 0.74536 0.0
C1351 C 0.91014 0.7148 0.84185 0.0
C1352 C 0.93054 0.70943 0.83169 0.0
H1353 H 0.87972 0.72423 0.8255 0.0
H1354 H 0.90395 0.71237 0.86864 0.0
C1355 C 0.93812 0.71311 0.79676 0.0
C1356 C 0.88741 0.7021 0.06966 0.0
C1357 C 0.86063 0.68041 0.06866 0.0
H1358 H 0.92614 0.72151 0.04621 0.0
C1359 C 0.85242 0.66188 0.04095 0.0
H1360 H 0.89443 0.71729 0.08992 0.0
C1361 C 0.87071 0.66462 0.0154 0.0
C1362 C 0.89761 0.68593 0.01707 0.0
H1363 H 0.83204 0.64495 0.03939 0.0
H1364 H 0.86389 0.64973 0.99471 0.0
C1365 C 0.90566 0.70474 0.04431 0.0
C1366 C 0.36432 0.2636 0.07663 0.0
C1367 C 0.37054 0.27094 0.1118 0.0
H1368 H 0.35683 0.27474 0.02598 0.0
C1369 C 0.37652 0.29703 0.12214 0.0
H1370 H 0.35931 0.24344 0.0681 0.0
C1371 C 0.37427 0.31462 0.09825 0.0
C1372 C 0.36663 0.30671 0.0634 0.0
H1373 H 0.38086 0.30303 0.14916 0.0
H1374 H 0.37747 0.33403 0.10738 0.0
C1375 C 0.36281 0.28146 0.05253 0.0
C1376 C 0.76884 0.17394 0.05336 0.0
C1377 C 0.78222 0.16919 0.08109 0.0
H1378 H 0.74298 0.15782 1.00882 0.0
C1379 C 0.77947 0.14311 0.08426 0.0
H1380 H 0.77014 0.19352 0.05017 0.0
C1381 C 0.76361 0.12238 0.06051 0.0
C1382 C 0.75018 0.12724 0.03296 0.0
H1383 H 0.78975 0.13867 0.10488 0.0
H1384 H 0.76187 0.10259 0.06374 0.0
C1385 C 0.75309 0.15331 0.02967 0.0
loop_
_geom_bond_atom_site_label_1
_geom_bond_atom_site_label_2
_geom_bond_distance
_geom_bond_site_symmetry_2
_ccdc_geom_bond_type
Cu0 N1 1.999 . S
Cu0 O6 1.974 1_554 S
Cu0 N11 1.985 1_554 S
Cu0 O20 1.959 . S
N1 Cu0 1.999 . S
N1 C3 1.263 . S
N1 C5 1.389 . S
N2 C3 1.358 . S
N2 C4 1.400 . S
C3 N1 1.263 . S
C3 N2 1.358 . S
C3 H9 0.930 . S
C4 N2 1.400 . S
C4 C5 1.351 . S
C4 H21 0.930 . S
C5 N1 1.389 . S
C5 C4 1.351 . S
C5 H10 0.930 . S
O6 Cu0 1.974 1_556 S
O6 C16 1.282 . S
C7 O8 1.261 . S
C7 O20 1.251 . S
O8 C7 1.261 . S
H9 C3 0.930 . S
H10 C5 0.930 . S
N11 Cu0 1.985 1_556 S
N11 C13 1.335 . S
N11 C14 1.390 . S
N12 C13 1.345 . S
N12 C15 1.336 . S
C13 N11 1.335 . S
C13 N12 1.345 . S
C13 H18 0.930 . S
C14 N11 1.390 . S
C14 C15 1.346 . S
C14 H19 0.930 . S
C15 N12 1.336 . S
C15 C14 1.346 . S
C15 H22 0.929 . S
C16 O6 1.282 . S
C16 O17 1.222 . S
O17 C16 1.222 . S
H18 C13 0.930 . S
H19 C14 0.930 . S
O20 Cu0 1.959 . S
O20 C7 1.251 . S
H21 C4 0.930 . S
H22 C15 0.929 . S
Cu23 N24 1.999 1_554 S
Cu23 O29 1.974 . S
Cu23 N34 1.985 . S
Cu23 O43 1.959 1_554 S
N24 Cu23 1.999 1_556 S
N24 C26 1.263 . S
N24 C28 1.389 . S
N25 C26 1.358 . S
N25 C27 1.400 . S
C26 N24 1.263 . S
C26 N25 1.358 . S
C26 H32 0.930 . S
C27 N25 1.400 . S
C27 C28 1.351 . S
C27 H44 0.930 . S
C28 N24 1.389 . S
C28 C27 1.351 . S
C28 H33 0.930 . S
O29 Cu23 1.974 . S
O29 C39 1.282 . S
C30 O31 1.259 1_556 S
C30 O43 1.251 . S
O31 C30 1.259 1_554 S
H32 C26 0.930 . S
H33 C28 0.930 . S
N34 Cu23 1.985 . S
N34 C36 1.335 . S
N34 C37 1.390 . S
N35 C36 1.345 . S
N35 C38 1.336 . S
C36 N34 1.335 . S
C36 N35 1.345 . S
C36 H41 0.930 . S
C37 N34 1.390 . S
C37 C38 1.346 . S
C37 H42 0.930 . S
C38 N35 1.336 . S
C38 C37 1.346 . S
C38 H45 0.929 . S
C39 O29 1.282 . S
C39 O40 1.216 . S
O40 C39 1.216 . S
H41 C36 0.930 . S
H42 C37 0.930 . S
O43 Cu23 1.959 1_556 S
O43 C30 1.251 . S
H44 C27 0.930 . S
H45 C38 0.929 . S
Cu46 N47 1.999 1_544 S
Cu46 O52 1.974 1_545 S
Cu46 N57 1.985 . S
Cu46 O66 1.959 . S
N47 Cu46 1.999 1_566 S
N47 C49 1.263 1_565 S
N47 C51 1.389 . S
N48 C49 1.358 1_565 S
N48 C50 1.400 . S
C49 N47 1.263 1_545 S
C49 N48 1.358 1_545 S
C49 H55 0.930 . S
C50 N48 1.400 . S
C50 C51 1.351 . S
C50 H67 0.930 . S
C51 N47 1.389 . S
C51 C50 1.351 . S
C51 H56 0.930 . S
O52 Cu46 1.974 1_565 S
O52 C62 1.282 1_565 S
C53 O54 1.257 1_556 S
C53 O66 1.246 1_556 S
O54 C53 1.257 1_554 S
H55 C49 0.930 . S
H56 C51 0.930 . S
N57 Cu46 1.985 . S
N57 C59 1.335 . S
N57 C60 1.390 . S
N58 C59 1.345 . S
N58 C61 1.336 . S
C59 N57 1.335 . S
C59 N58 1.345 . S
C59 H64 0.930 . S
C60 N57 1.390 . S
C60 C61 1.346 . S
C60 H65 0.930 . S
C61 N58 1.336 . S
C61 C60 1.346 . S
C61 H68 0.929 . S
C62 O52 1.282 1_545 S
C62 O63 1.216 . S
O63 C62 1.216 . S
H64 C59 0.930 . S
H65 C60 0.930 . S
O66 Cu46 1.959 . S
O66 C53 1.246 1_554 S
H67 C50 0.930 . S
H68 C61 0.929 . S
Cu69 N70 1.999 . S
Cu69 O75 1.974 . S
Cu69 N80 1.985 . S
Cu69 O89 1.959 . S
N70 Cu69 1.999 . S
N70 C72 1.263 . S
N70 C74 1.389 . S
N71 C72 1.358 . S
N71 C73 1.400 . S
C72 N70 1.263 . S
C72 N71 1.358 . S
C72 H78 0.930 . S
C73 N71 1.400 . S
C73 C74 1.351 . S
C73 H90 0.930 . S
C74 N70 1.389 . S
C74 C73 1.351 . S
C74 H79 0.930 . S
O75 Cu69 1.974 . S
O75 C85 1.282 1_545 S
C76 O77 1.261 . S
C76 O89 1.251 . S
O77 C76 1.261 . S
H78 C72 0.930 . S
H79 C74 0.930 . S
N80 Cu69 1.985 . S
N80 C82 1.335 . S
N80 C83 1.390 . S
N81 C82 1.345 . S
N81 C84 1.336 . S
C82 N80 1.335 . S
C82 N81 1.345 . S
C82 H87 0.930 . S
C83 N80 1.390 . S
C83 C84 1.346 . S
C83 H88 0.930 1_545 S
C84 N81 1.336 . S
C84 C83 1.346 . S
C84 H91 0.929 1_545 S
C85 O75 1.282 1_565 S
C85 O86 1.216 . S
O86 C85 1.216 . S
H87 C82 0.930 . S
H88 C83 0.930 1_565 S
O89 Cu69 1.959 . S
O89 C76 1.251 . S
H90 C73 0.930 . S
H91 C84 0.929 1_565 S
Cu92 N93 1.999 . S
Cu92 O98 1.974 . S
Cu92 N103 1.985 . S
Cu92 O112 1.959 . S
N93 Cu92 1.999 . S
N93 C95 1.263 . S
N93 C97 1.389 . S
N94 C95 1.358 . S
N94 C96 1.400 . S
C95 N93 1.263 . S
C95 N94 1.358 . S
C95 H101 0.930 . S
C96 N94 1.400 . S
C96 C97 1.351 . S
C96 H113 0.930 . S
C97 N93 1.389 . S
C97 C96 1.351 . S
C97 H102 0.930 . S
O98 Cu92 1.974 . S
O98 C108 1.282 . S
C99 O100 1.261 . S
C99 O112 1.251 . S
O100 C99 1.261 . S
H101 C95 0.930 . S
H102 C97 0.930 . S
N103 Cu92 1.985 . S
N103 C105 1.335 . S
N103 C106 1.390 . S
N104 C105 1.345 . S
N104 C107 1.336 . S
C105 N103 1.335 . S
C105 N104 1.345 . S
C105 H110 0.930 . S
C106 N103 1.390 . S
C106 C107 1.346 . S
C106 H111 0.930 . S
C107 N104 1.336 . S
C107 C106 1.346 . S
C107 H114 0.929 . S
C108 O98 1.282 . S
C108 O109 1.216 . S
O109 C108 1.216 . S
H110 C105 0.930 . S
H111 C106 0.930 . S
O112 Cu92 1.959 . S
O112 C99 1.251 . S
H113 C96 0.930 . S
H114 C107 0.929 . S
Cu115 N116 1.999 . S
Cu115 O121 1.974 . S
Cu115 N126 1.985 . S
Cu115 O135 1.959 . S
N116 Cu115 1.999 . S
N116 C118 1.263 . S
N116 C120 1.389 . S
N117 C118 1.358 . S
N117 C119 1.400 . S
C118 N116 1.263 . S
C118 N117 1.358 . S
C118 H124 0.930 . S
C119 N117 1.400 . S
C119 C120 1.351 . S
C119 H136 0.930 . S
C120 N116 1.389 . S
C120 C119 1.351 . S
C120 H125 0.930 . S
O121 Cu115 1.974 . S
O121 C131 1.282 . S
C122 O123 1.261 . S
C122 O135 1.251 . S
O123 C122 1.261 . S
H124 C118 0.930 . S
H125 C120 0.930 . S
N126 Cu115 1.985 . S
N126 C128 1.335 . S
N126 C129 1.390 . S
N127 C128 1.345 . S
N127 C130 1.336 . S
C128 N126 1.335 . S
C128 N127 1.345 . S
C128 H133 0.930 . S
C129 N126 1.390 . S
C129 C130 1.346 . S
C129 H134 0.930 . S
C130 N127 1.336 . S
C130 C129 1.346 . S
C130 H137 0.929 . S
C131 O121 1.282 . S
C131 O132 1.216 . S
O132 C131 1.216 . S
H133 C128 0.930 . S
H134 C129 0.930 . S
O135 Cu115 1.959 . S
O135 C122 1.251 . S
H136 C119 0.930 . S
H137 C130 0.929 . S
Cu138 N139 1.999 . S
Cu138 O144 1.974 . S
Cu138 N149 1.985 . S
Cu138 O158 1.959 . S
N139 Cu138 1.999 . S
N139 C141 1.263 . S
N139 C143 1.389 . S
N140 C141 1.358 . S
N140 C142 1.400 . S
C141 N139 1.263 . S
C141 N140 1.358 . S
C141 H147 0.930 . S
C142 N140 1.400 . S
C142 C143 1.351 . S
C142 H159 0.930 . S
C143 N139 1.389 . S
C143 C142 1.351 . S
C143 H148 0.930 . S
O144 Cu138 1.974 . S
O144 C154 1.282 . S
C145 O146 1.261 . S
C145 O158 1.251 . S
O146 C145 1.261 . S
H147 C141 0.930 . S
H148 C143 0.930 . S
N149 Cu138 1.985 . S
N149 C151 1.335 . S
N149 C152 1.390 . S
N150 C151 1.345 . S
N150 C153 1.336 . S
C151 N149 1.335 . S
C151 N150 1.345 . S
C151 H156 0.930 . S
C152 N149 1.390 . S
C152 C153 1.346 . S
C152 H157 0.930 . S
C153 N150 1.336 . S
C153 C152 1.346 . S
C153 H160 0.929 . S
C154 O144 1.282 . S
C154 O155 1.216 . S
O155 C154 1.216 . S
H156 C151 0.930 . S
H157 C152 0.930 . S
O158 Cu138 1.959 . S
O158 C145 1.251 . S
H159 C142 0.930 . S
H160 C153 0.929 . S
Cu161 N162 1.999 . S
Cu161 O167 1.974 . S
Cu161 N172 1.985 . S
Cu161 O181 1.959 . S
N162 Cu161 1.999 . S
N162 C164 1.263 . S
N162 C166 1.389 . S
N163 C164 1.358 . S
N163 C165 1.400 . S
C164 N162 1.263 . S
C164 N163 1.358 . S
C164 H170 0.930 . S
C165 N163 1.400 . S
C165 C166 1.351 . S
C165 H182 0.930 . S
C166 N162 1.389 . S
C166 C165 1.351 . S
C166 H171 0.930 . S
O167 Cu161 1.974 . S
O167 C177 1.282 . S
C168 O169 1.261 . S
C168 O181 1.251 . S
O169 C168 1.261 . S
H170 C164 0.930 . S
H171 C166 0.930 . S
N172 Cu161 1.985 . S
N172 C174 1.335 . S
N172 C175 1.390 . S
N173 C174 1.345 . S
N173 C176 1.336 . S
C174 N172 1.335 . S
C174 N173 1.345 . S
C174 H179 0.930 . S
C175 N172 1.390 . S
C175 C176 1.346 . S
C175 H180 0.930 . S
C176 N173 1.336 . S
C176 C175 1.346 . S
C176 H183 0.929 . S
C177 O167 1.282 . S
C177 O178 1.216 . S
O178 C177 1.216 . S
H179 C174 0.930 . S
H180 C175 0.930 . S
O181 Cu161 1.959 . S
O181 C168 1.251 . S
H182 C165 0.930 . S
H183 C176 0.929 . S
Cu184 N185 1.999 . S
Cu184 O190 1.974 . S
Cu184 N195 1.985 . S
Cu184 O204 1.959 . S
N185 Cu184 1.999 . S
N185 C187 1.263 . S
N185 C189 1.389 . S
N186 C187 1.358 . S
N186 C188 1.400 . S
C187 N185 1.263 . S
C187 N186 1.358 . S
C187 H193 0.930 . S
C188 N186 1.400 . S
C188 C189 1.351 . S
C188 H205 0.930 . S
C189 N185 1.389 . S
C189 C188 1.351 . S
C189 H194 0.930 . S
O190 Cu184 1.974 . S
O190 C200 1.282 . S
C191 O192 1.261 . S
C191 O204 1.251 . S
O192 C191 1.261 . S
H193 C187 0.930 . S
H194 C189 0.930 . S
N195 Cu184 1.985 . S
N195 C197 1.335 . S
N195 C198 1.390 . S
N196 C197 1.345 . S
N196 C199 1.336 . S
C197 N195 1.335 . S
C197 N196 1.345 . S
C197 H202 0.930 . S
C198 N195 1.390 . S
C198 C199 1.346 . S
C198 H203 0.930 . S
C199 N196 1.336 . S
C199 C198 1.346 . S
C199 H206 0.929 . S
C200 O190 1.282 . S
C200 O201 1.216 . S
O201 C200 1.216 . S
H202 C197 0.930 . S
H203 C198 0.930 . S
O204 Cu184 1.959 . S
O204 C191 1.251 . S
H205 C188 0.930 . S
H206 C199 0.929 . S
Cu207 N208 1.999 . S
Cu207 O213 1.974 . S
Cu207 N218 1.985 . S
Cu207 O227 1.959 . S
N208 Cu207 1.999 . S
N208 C210 1.263 . S
N208 C212 1.389 . S
N209 C210 1.358 . S
N209 C211 1.400 . S
C210 N208 1.263 . S
C210 N209 1.358 . S
C210 H216 0.930 . S
C211 N209 1.400 . S
C211 C212 1.351 . S
C211 H228 0.930 . S
C212 N208 1.389 . S
C212 C211 1.351 . S
C212 H217 0.930 . S
O213 Cu207 1.974 . S
O213 C223 1.282 . S
C214 O215 1.261 . S
C214 O227 1.251 . S
O215 C214 1.261 . S
H216 C210 0.930 . S
H217 C212 0.930 . S
N218 Cu207 1.985 . S
N218 C220 1.335 . S
N218 C221 1.390 . S
N219 C220 1.345 . S
N219 C222 1.336 . S
C220 N218 1.335 . S
C220 N219 1.345 . S
C220 H225 0.930 . S
C221 N218 1.390 . S
C221 C222 1.346 . S
C221 H226 0.930 . S
C222 N219 1.336 . S
C222 C221 1.346 . S
C222 H229 0.929 . S
C223 O213 1.282 . S
C223 O224 1.216 . S
O224 C223 1.216 . S
H225 C220 0.930 . S
H226 C221 0.930 . S
O227 Cu207 1.959 . S
O227 C214 1.251 . S
H228 C211 0.930 . S
H229 C222 0.929 . S
Cu230 N231 1.999 . S
Cu230 O236 1.974 . S
Cu230 N241 1.985 . S
Cu230 O250 1.959 . S
N231 Cu230 1.999 . S
N231 C233 1.263 . S
N231 C235 1.389 . S
N232 C233 1.358 . S
N232 C234 1.400 . S
C233 N231 1.263 . S
C233 N232 1.358 . S
C233 H239 0.930 . S
C234 N232 1.400 . S
C234 C235 1.351 . S
C234 H251 0.930 . S
C235 N231 1.389 . S
C235 C234 1.351 . S
C235 H240 0.930 . S
O236 Cu230 1.974 . S
O236 C246 1.282 . S
C237 O238 1.261 . S
C237 O250 1.251 . S
O238 C237 1.261 . S
H239 C233 0.930 . S
H240 C235 0.930 . S
N241 Cu230 1.985 . S
N241 C243 1.335 . S
N241 C244 1.390 . S
N242 C243 1.345 . S
N242 C245 1.336 . S
C243 N241 1.335 . S
C243 N242 1.345 . S
C243 H248 0.930 . S
C244 N241 1.390 . S
C244 C245 1.346 . S
C244 H249 0.930 . S
C245 N242 1.336 . S
C245 C244 1.346 . S
C245 H252 0.929 . S
C246 O236 1.282 . S
C246 O247 1.216 . S
O247 C246 1.216 . S
H248 C243 0.930 . S
H249 C244 0.930 . S
O250 Cu230 1.959 . S
O250 C237 1.251 . S
H251 C234 0.930 . S
H252 C245 0.929 . S
Cu253 N254 1.999 . S
Cu253 O259 1.974 . S
Cu253 N264 1.985 . S
Cu253 O273 1.959 . S
N254 Cu253 1.999 . S
N254 C256 1.263 . S
N254 C258 1.389 . S
N255 C256 1.358 . S
N255 C257 1.400 . S
C256 N254 1.263 . S
C256 N255 1.358 . S
C256 H262 0.930 . S
C257 N255 1.400 . S
C257 C258 1.351 . S
C257 H274 0.930 . S
C258 N254 1.389 . S
C258 C257 1.351 . S
C258 H263 0.930 . S
O259 Cu253 1.974 . S
O259 C269 1.282 . S
C260 O261 1.261 . S
C260 O273 1.251 . S
O261 C260 1.261 . S
H262 C256 0.930 . S
H263 C258 0.930 . S
N264 Cu253 1.985 . S
N264 C266 1.335 . S
N264 C267 1.390 . S
N265 C266 1.345 . S
N265 C268 1.336 . S
C266 N264 1.335 . S
C266 N265 1.345 . S
C266 H271 0.930 . S
C267 N264 1.390 . S
C267 C268 1.346 . S
C267 H272 0.930 . S
C268 N265 1.336 . S
C268 C267 1.346 . S
C268 H275 0.929 . S
C269 O259 1.282 . S
C269 O270 1.216 . S
O270 C269 1.216 . S
H271 C266 0.930 . S
H272 C267 0.930 . S
O273 Cu253 1.959 . S
O273 C260 1.251 . S
H274 C257 0.930 . S
H275 C268 0.929 . S
Cu276 N277 1.999 . S
Cu276 O282 1.974 . S
Cu276 N287 1.985 . S
Cu276 O296 1.959 . S
N277 Cu276 1.999 . S
N277 C279 1.263 . S
N277 C281 1.389 . S
N278 C279 1.358 . S
N278 C280 1.400 . S
C279 N277 1.263 . S
C279 N278 1.358 . S
C279 H285 0.930 . S
C280 N278 1.400 . S
C280 C281 1.351 . S
C280 H297 0.930 . S
C281 N277 1.389 . S
C281 C280 1.351 . S
C281 H286 0.930 . S
O282 Cu276 1.974 . S
O282 C292 1.282 . S
C283 O284 1.261 . S
C283 O296 1.251 . S
O284 C283 1.261 . S
H285 C279 0.930 . S
H286 C281 0.930 . S
N287 Cu276 1.985 . S
N287 C289 1.335 . S
N287 C290 1.390 . S
N288 C289 1.345 . S
N288 C291 1.336 . S
C289 N287 1.335 . S
C289 N288 1.345 . S
C289 H294 0.930 . S
C290 N287 1.390 . S
C290 C291 1.346 . S
C290 H295 0.930 . S
C291 N288 1.336 . S
C291 C290 1.346 . S
C291 H298 0.929 . S
C292 O282 1.282 . S
C292 O293 1.216 . S
O293 C292 1.216 . S
H294 C289 0.930 . S
H295 C290 0.930 . S
O296 Cu276 1.959 . S
O296 C283 1.251 . S
H297 C280 0.930 . S
H298 C291 0.929 . S
Cu299 N300 1.999 . S
Cu299 O305 1.974 . S
Cu299 N310 1.985 . S
Cu299 O319 1.959 . S
N300 Cu299 1.999 . S
N300 C302 1.263 . S
N300 C304 1.389 . S
N301 C302 1.358 . S
N301 C303 1.400 . S
C302 N300 1.263 . S
C302 N301 1.358 . S
C302 H308 0.930 . S
C303 N301 1.400 . S
C303 C304 1.351 . S
C303 H320 0.930 . S
C304 N300 1.389 . S
C304 C303 1.351 . S
C304 H309 0.930 . S
O305 Cu299 1.974 . S
O305 C315 1.282 . S
C306 O307 1.261 . S
C306 O319 1.251 . S
O307 C306 1.261 . S
H308 C302 0.930 . S
H309 C304 0.930 . S
N310 Cu299 1.985 . S
N310 C312 1.335 . S
N310 C313 1.390 . S
N311 C312 1.345 . S
N311 C314 1.336 . S
C312 N310 1.335 . S
C312 N311 1.345 . S
C312 H317 0.930 . S
C313 N310 1.390 . S
C313 C314 1.346 . S
C313 H318 0.930 . S
C314 N311 1.336 . S
C314 C313 1.346 . S
C314 H321 0.929 . S
C315 O305 1.282 . S
C315 O316 1.216 . S
O316 C315 1.216 . S
H317 C312 0.930 . S
H318 C313 0.930 . S
O319 Cu299 1.959 . S
O319 C306 1.251 . S
H320 C303 0.930 . S
H321 C314 0.929 . S
Cu322 N323 1.999 . S
Cu322 O328 1.974 . S
Cu322 N333 1.985 . S
Cu322 O342 1.959 . S
N323 Cu322 1.999 . S
N323 C325 1.263 . S
N323 C327 1.389 . S
N324 C325 1.358 . S
N324 C326 1.400 . S
C325 N323 1.263 . S
C325 N324 1.358 . S
C325 H331 0.930 . S
C326 N324 1.400 . S
C326 C327 1.351 . S
C326 H343 0.930 . S
C327 N323 1.389 . S
C327 C326 1.351 . S
C327 H332 0.930 . S
O328 Cu322 1.974 . S
O328 C338 1.282 . S
C329 O330 1.261 . S
C329 O342 1.251 . S
O330 C329 1.261 . S
H331 C325 0.930 . S
H332 C327 0.930 . S
N333 Cu322 1.985 . S
N333 C335 1.335 . S
N333 C336 1.390 . S
N334 C335 1.345 . S
N334 C337 1.336 . S
C335 N333 1.335 . S
C335 N334 1.345 . S
C335 H340 0.930 . S
C336 N333 1.390 . S
C336 C337 1.346 . S
C336 H341 0.930 . S
C337 N334 1.336 . S
C337 C336 1.346 . S
C337 H344 0.929 . S
C338 O328 1.282 . S
C338 O339 1.216 . S
O339 C338 1.216 . S
H340 C335 0.930 . S
H341 C336 0.930 . S
O342 Cu322 1.959 . S
O342 C329 1.251 . S
H343 C326 0.930 . S
H344 C337 0.929 . S
Cu345 N346 1.999 . S
Cu345 O351 1.974 . S
Cu345 N356 1.985 . S
Cu345 O365 1.959 . S
N346 Cu345 1.999 . S
N346 C348 1.263 . S
N346 C350 1.389 . S
N347 C348 1.358 . S
N347 C349 1.400 . S
C348 N346 1.263 . S
C348 N347 1.358 . S
C348 H354 0.930 . S
C349 N347 1.400 . S
C349 C350 1.351 . S
C349 H366 0.930 . S
C350 N346 1.389 . S
C350 C349 1.351 . S
C350 H355 0.930 . S
O351 Cu345 1.974 . S
O351 C361 1.282 . S
C352 O353 1.261 . S
C352 O365 1.251 . S
O353 C352 1.261 . S
H354 C348 0.930 . S
H355 C350 0.930 . S
N356 Cu345 1.985 . S
N356 C358 1.335 . S
N356 C359 1.390 . S
N357 C358 1.345 . S
N357 C360 1.336 . S
C358 N356 1.335 . S
C358 N357 1.345 . S
C358 H363 0.930 . S
C359 N356 1.390 . S
C359 C360 1.346 . S
C359 H364 0.930 . S
C360 N357 1.336 . S
C360 C359 1.346 . S
C360 H367 0.929 . S
C361 O351 1.282 . S
C361 O362 1.216 . S
O362 C361 1.216 . S
H363 C358 0.930 . S
H364 C359 0.930 . S
O365 Cu345 1.959 . S
O365 C352 1.251 . S
H366 C349 0.930 . S
H367 C360 0.929 . S
Cu368 N369 1.999 . S
Cu368 O374 1.974 . S
Cu368 N379 1.985 . S
Cu368 O388 1.959 . S
N369 Cu368 1.999 . S
N369 C371 1.263 . S
N369 C373 1.389 . S
N370 C371 1.358 . S
N370 C372 1.400 . S
C371 N369 1.263 . S
C371 N370 1.358 . S
C371 H377 0.930 . S
C372 N370 1.400 . S
C372 C373 1.351 . S
C372 H389 0.930 . S
C373 N369 1.389 . S
C373 C372 1.351 . S
C373 H378 0.930 . S
O374 Cu368 1.974 . S
O374 C384 1.282 . S
C375 O376 1.261 . S
C375 O388 1.251 . S
O376 C375 1.261 . S
H377 C371 0.930 . S
H378 C373 0.930 . S
N379 Cu368 1.985 . S
N379 C381 1.335 . S
N379 C382 1.390 . S
N380 C381 1.345 . S
N380 C383 1.336 . S
C381 N379 1.335 . S
C381 N380 1.345 . S
C381 H386 0.930 . S
C382 N379 1.390 . S
C382 C383 1.346 . S
C382 H387 0.930 . S
C383 N380 1.336 . S
C383 C382 1.346 . S
C383 H390 0.929 . S
C384 O374 1.282 . S
C384 O385 1.216 . S
O385 C384 1.216 . S
H386 C381 0.930 . S
H387 C382 0.930 . S
O388 Cu368 1.959 . S
O388 C375 1.251 . S
H389 C372 0.930 . S
H390 C383 0.929 . S
Cu391 N392 1.999 . S
Cu391 O397 1.974 . S
Cu391 N402 1.985 . S
Cu391 O411 1.959 . S
N392 Cu391 1.999 . S
N392 C394 1.263 . S
N392 C396 1.389 . S
N393 C394 1.358 . S
N393 C395 1.400 . S
C394 N392 1.263 . S
C394 N393 1.358 . S
C394 H400 0.930 . S
C395 N393 1.400 . S
C395 C396 1.351 . S
C395 H412 0.930 . S
C396 N392 1.389 . S
C396 C395 1.351 . S
C396 H401 0.930 . S
O397 Cu391 1.974 . S
O397 C407 1.282 . S
C398 O399 1.261 . S
C398 O411 1.251 . S
O399 C398 1.261 . S
H400 C394 0.930 . S
H401 C396 0.930 . S
N402 Cu391 1.985 . S
N402 C404 1.335 . S
N402 C405 1.390 . S
N403 C404 1.345 . S
N403 C406 1.336 . S
C404 N402 1.335 . S
C404 N403 1.345 . S
C404 H409 0.930 . S
C405 N402 1.390 . S
C405 C406 1.346 . S
C405 H410 0.930 . S
C406 N403 1.336 . S
C406 C405 1.346 . S
C406 H413 0.929 . S
C407 O397 1.282 . S
C407 O408 1.216 . S
O408 C407 1.216 . S
H409 C404 0.930 . S
H410 C405 0.930 . S
O411 Cu391 1.959 . S
O411 C398 1.251 . S
H412 C395 0.930 . S
H413 C406 0.929 . S
C414 O415 1.306 1_455 S
C414 O417 1.160 . S
O415 C414 1.306 1_655 S
O415 Cd416 2.228 . S
Cd416 O415 2.228 . S
Cd416 O420 2.273 . S
Cd416 O424 2.277 1_655 S
O417 C414 1.160 . S
O417 Cd418 2.203 . S
Cd418 O417 2.203 . S
Cd418 O420 2.411 1_455 S
Cd418 O421 2.333 1_455 S
Cd418 O422 2.352 1_455 S
Cd418 O426 2.277 . S
Cd418 O427 2.356 . S
C419 O424 1.209 . S
C419 O426 1.226 . S
O420 Cd416 2.273 . S
O420 Cd418 2.411 1_655 S
O420 C423 1.320 . S
O421 Cd418 2.333 1_655 S
O421 C423 1.214 . S
O422 Cd418 2.352 1_655 S
O422 C425 1.258 1_655 S
C423 O420 1.320 . S
C423 O421 1.214 . S
O424 Cd416 2.277 1_455 S
O424 C419 1.209 . S
C425 O422 1.258 1_455 S
C425 O427 1.282 . S
O426 Cd418 2.277 . S
O426 C419 1.226 . S
O427 Cd418 2.356 . S
O427 C425 1.282 . S
C428 O429 1.306 . S
C428 O431 1.160 . S
O429 C428 1.306 . S
O429 Cd430 2.228 . S
Cd430 O429 2.228 . S
Cd430 O434 2.273 . S
Cd430 O438 2.277 . S
O431 C428 1.160 . S
O431 Cd432 2.203 . S
Cd432 O431 2.203 . S
Cd432 O434 2.411 . S
Cd432 O435 2.333 . S
Cd432 O436 2.352 . S
Cd432 O440 2.277 . S
Cd432 O441 2.356 . S
C433 O438 1.209 . S
C433 O440 1.226 . S
O434 Cd430 2.273 . S
O434 Cd432 2.411 . S
O434 C437 1.320 . S
O435 Cd432 2.333 . S
O435 C437 1.214 . S
O436 Cd432 2.352 . S
O436 C439 1.258 . S
C437 O434 1.320 . S
C437 O435 1.214 . S
O438 Cd430 2.277 . S
O438 C433 1.209 . S
C439 O436 1.258 . S
C439 O441 1.282 . S
O440 Cd432 2.277 . S
O440 C433 1.226 . S
O441 Cd432 2.356 . S
O441 C439 1.282 . S
C442 O443 1.306 . S
C442 O445 1.160 . S
O443 C442 1.306 . S
O443 Cd444 2.228 . S
Cd444 O443 2.228 . S
Cd444 O448 2.273 . S
Cd444 O452 2.277 . S
O445 C442 1.160 . S
O445 Cd446 2.203 . S
Cd446 O445 2.203 . S
Cd446 O448 2.411 . S
Cd446 O449 2.333 . S
Cd446 O450 2.352 . S
Cd446 O454 2.277 . S
Cd446 O455 2.356 . S
C447 O452 1.209 . S
C447 O454 1.226 . S
O448 Cd444 2.273 . S
O448 Cd446 2.411 . S
O448 C451 1.320 . S
O449 Cd446 2.333 . S
O449 C451 1.214 . S
O450 Cd446 2.352 . S
O450 C453 1.258 . S
C451 O448 1.320 . S
C451 O449 1.214 . S
O452 Cd444 2.277 . S
O452 C447 1.209 . S
C453 O450 1.258 . S
C453 O455 1.282 . S
O454 Cd446 2.277 . S
O454 C447 1.226 . S
O455 Cd446 2.356 . S
O455 C453 1.282 . S
C456 O457 1.306 . S
C456 O459 1.160 . S
O457 C456 1.306 . S
O457 Cd458 2.228 . S
Cd458 O457 2.228 . S
Cd458 O462 2.273 . S
Cd458 O466 2.277 1_455 S
O459 C456 1.160 . S
O459 Cd460 2.203 . S
Cd460 O459 2.203 . S
Cd460 O462 2.411 . S
Cd460 O463 2.333 . S
Cd460 O464 2.352 . S
Cd460 O468 2.277 1_455 S
Cd460 O469 2.356 1_455 S
C461 O466 1.209 . S
C461 O468 1.226 . S
O462 Cd458 2.273 . S
O462 Cd460 2.411 . S
O462 C465 1.320 . S
O463 Cd460 2.333 . S
O463 C465 1.214 . S
O464 Cd460 2.352 . S
O464 C467 1.258 . S
C465 O462 1.320 . S
C465 O463 1.214 . S
O466 Cd458 2.277 1_655 S
O466 C461 1.209 . S
C467 O464 1.258 . S
C467 O469 1.282 1_455 S
O468 Cd460 2.277 1_655 S
O468 C461 1.226 . S
O469 Cd460 2.356 1_655 S
O469 C467 1.282 1_655 S
C470 O471 1.306 . S
C470 O473 1.160 . S
O471 C470 1.306 . S
O471 Cd472 2.228 . S
Cd472 O471 2.228 . S
Cd472 O476 2.273 . S
Cd472 O480 2.277 . S
O473 C470 1.160 . S
O473 Cd474 2.203 . S
Cd474 O473 2.203 . S
Cd474 O476 2.411 . S
Cd474 O477 2.333 . S
Cd474 O478 2.352 . S
Cd474 O482 2.277 . S
Cd474 O483 2.356 . S
C475 O480 1.209 . S
C475 O482 1.226 . S
O476 Cd472 2.273 . S
O476 Cd474 2.411 . S
O476 C479 1.320 . S
O477 Cd474 2.333 . S
O477 C479 1.214 . S
O478 Cd474 2.352 . S
O478 C481 1.258 . S
C479 O476 1.320 . S
C479 O477 1.214 . S
O480 Cd472 2.277 . S
O480 C475 1.209 . S
C481 O478 1.258 . S
C481 O483 1.282 . S
O482 Cd474 2.277 . S
O482 C475 1.226 . S
O483 Cd474 2.356 . S
O483 C481 1.282 . S
C484 O485 1.306 . S
C484 O487 1.160 . S
O485 C484 1.306 . S
O485 Cd486 2.228 . S
Cd486 O485 2.228 . S
Cd486 O490 2.273 . S
Cd486 O494 2.277 . S
O487 C484 1.160 . S
O487 Cd488 2.203 . S
Cd488 O487 2.203 . S
Cd488 O490 2.411 . S
Cd488 O491 2.333 1_545 S
Cd488 O492 2.352 . S
Cd488 O496 2.277 1_545 S
Cd488 O497 2.356 1_545 S
C489 O494 1.209 1_565 S
C489 O496 1.226 . S
O490 Cd486 2.273 . S
O490 Cd488 2.411 . S
O490 C493 1.320 . S
O491 Cd488 2.333 1_565 S
O491 C493 1.214 1_565 S
O492 Cd488 2.352 . S
O492 C495 1.258 . S
C493 O490 1.320 . S
C493 O491 1.214 1_545 S
O494 Cd486 2.277 . S
O494 C489 1.209 1_545 S
C495 O492 1.258 . S
C495 O497 1.282 1_545 S
O496 Cd488 2.277 1_565 S
O496 C489 1.226 . S
O497 Cd488 2.356 1_565 S
O497 C495 1.282 1_565 S
C498 O499 1.306 . S
C498 O501 1.160 . S
O499 C498 1.306 . S
O499 Cd500 2.228 1_565 S
Cd500 O499 2.228 1_545 S
Cd500 O504 2.273 1_545 S
Cd500 O508 2.277 . S
O501 C498 1.160 . S
O501 Cd502 2.203 1_565 S
Cd502 O501 2.203 1_545 S
Cd502 O504 2.411 1_545 S
Cd502 O505 2.333 . S
Cd502 O506 2.352 1_545 S
Cd502 O510 2.277 . S
Cd502 O511 2.356 1_545 S
C503 O508 1.209 . S
C503 O510 1.226 . S
O504 Cd500 2.273 1_565 S
O504 Cd502 2.411 1_565 S
O504 C507 1.320 1_565 S
O505 Cd502 2.333 . S
O505 C507 1.214 . S
O506 Cd502 2.352 1_565 S
O506 C509 1.258 . S
C507 O504 1.320 1_545 S
C507 O505 1.214 . S
O508 Cd500 2.277 . S
O508 C503 1.209 . S
C509 O506 1.258 . S
C509 O511 1.282 . S
O510 Cd502 2.277 . S
O510 C503 1.226 . S
O511 Cd502 2.356 1_565 S
O511 C509 1.282 . S
C512 O513 1.306 . S
C512 O515 1.160 . S
O513 C512 1.306 . S
O513 Cd514 2.228 . S
Cd514 O513 2.228 . S
Cd514 O518 2.273 . S
Cd514 O522 2.277 . S
O515 C512 1.160 . S
O515 Cd516 2.203 . S
Cd516 O515 2.203 . S
Cd516 O518 2.411 . S
Cd516 O519 2.333 . S
Cd516 O520 2.352 . S
Cd516 O524 2.277 . S
Cd516 O525 2.356 . S
C517 O522 1.209 . S
C517 O524 1.226 . S
O518 Cd514 2.273 . S
O518 Cd516 2.411 . S
O518 C521 1.320 . S
O519 Cd516 2.333 . S
O519 C521 1.214 . S
O520 Cd516 2.352 . S
O520 C523 1.258 . S
C521 O518 1.320 . S
C521 O519 1.214 . S
O522 Cd514 2.277 . S
O522 C517 1.209 . S
C523 O520 1.258 . S
C523 O525 1.282 . S
O524 Cd516 2.277 . S
O524 C517 1.226 . S
O525 Cd516 2.356 . S
O525 C523 1.282 . S
C526 O527 1.306 . S
C526 O529 1.160 . S
O527 C526 1.306 . S
O527 Cd528 2.228 . S
Cd528 O527 2.228 . S
Cd528 O532 2.273 . S
Cd528 O536 2.277 . S
O529 C526 1.160 . S
O529 Cd530 2.203 . S
Cd530 O529 2.203 . S
Cd530 O532 2.411 . S
Cd530 O533 2.333 . S
Cd530 O534 2.352 . S
Cd530 O538 2.277 . S
Cd530 O539 2.356 . S
C531 O536 1.209 . S
C531 O538 1.226 . S
O532 Cd528 2.273 . S
O532 Cd530 2.411 . S
O532 C535 1.320 . S
O533 Cd530 2.333 . S
O533 C535 1.214 . S
O534 Cd530 2.352 . S
O534 C537 1.258 . S
C535 O532 1.320 . S
C535 O533 1.214 . S
O536 Cd528 2.277 . S
O536 C531 1.209 . S
C537 O534 1.258 . S
C537 O539 1.282 . S
O538 Cd530 2.277 . S
O538 C531 1.226 . S
O539 Cd530 2.356 . S
O539 C537 1.282 . S
C540 O541 1.306 . S
C540 O543 1.160 . S
O541 C540 1.306 . S
O541 Cd542 2.228 . S
Cd542 O541 2.228 . S
Cd542 O546 2.273 . S
Cd542 O550 2.277 . S
O543 C540 1.160 . S
O543 Cd544 2.203 . S
Cd544 O543 2.203 . S
Cd544 O546 2.411 . S
Cd544 O547 2.333 . S
Cd544 O548 2.352 . S
Cd544 O552 2.277 . S
Cd544 O553 2.356 . S
C545 O550 1.209 . S
C545 O552 1.226 . S
O546 Cd542 2.273 . S
O546 Cd544 2.411 . S
O546 C549 1.320 . S
O547 Cd544 2.333 . S
O547 C549 1.214 . S
O548 Cd544 2.352 . S
O548 C551 1.258 . S
C549 O546 1.320 . S
C549 O547 1.214 . S
O550 Cd542 2.277 . S
O550 C545 1.209 . S
C551 O548 1.258 . S
C551 O553 1.282 . S
O552 Cd544 2.277 . S
O552 C545 1.226 . S
O553 Cd544 2.356 . S
O553 C551 1.282 . S
C554 O555 1.313 . S
C554 O557 1.141 1_565 S
O555 C554 1.313 . S
O555 Cd556 2.239 . S
Cd556 O555 2.239 . S
Cd556 O560 2.281 . S
Cd556 O564 2.251 1_565 S
O557 C554 1.141 1_545 S
O557 Cd558 2.203 1_545 S
Cd558 O557 2.203 1_565 S
Cd558 O560 2.411 . S
Cd558 O561 2.333 . S
Cd558 O562 2.352 . S
Cd558 O566 2.277 1_565 S
Cd558 O567 2.356 . S
C559 O564 1.209 . S
C559 O566 1.226 . S
O560 Cd556 2.281 . S
O560 Cd558 2.411 . S
O560 C563 1.320 . S
O561 Cd558 2.333 . S
O561 C563 1.214 . S
O562 Cd558 2.352 . S
O562 C565 1.258 . S
C563 O560 1.320 . S
C563 O561 1.214 . S
O564 Cd556 2.251 1_545 S
O564 C559 1.209 . S
C565 O562 1.258 . S
C565 O567 1.282 . S
O566 Cd558 2.277 1_545 S
O566 C559 1.226 . S
O567 Cd558 2.356 . S
O567 C565 1.282 . S
C568 O569 1.306 . S
C568 O571 1.160 . S
O569 C568 1.306 . S
O569 Cd570 2.228 . S
Cd570 O569 2.228 . S
Cd570 O574 2.273 . S
Cd570 O578 2.277 . S
O571 C568 1.160 . S
O571 Cd572 2.203 . S
Cd572 O571 2.203 . S
Cd572 O574 2.411 . S
Cd572 O575 2.333 . S
Cd572 O576 2.352 . S
Cd572 O580 2.277 1_455 S
Cd572 O581 2.356 . S
C573 O578 1.209 1_655 S
C573 O580 1.226 . S
O574 Cd570 2.273 . S
O574 Cd572 2.411 . S
O574 C577 1.320 . S
O575 Cd572 2.333 . S
O575 C577 1.214 . S
O576 Cd572 2.352 . S
O576 C579 1.258 . S
C577 O574 1.320 . S
C577 O575 1.214 . S
O578 Cd570 2.277 . S
O578 C573 1.209 1_455 S
C579 O576 1.258 . S
C579 O581 1.282 . S
O580 Cd572 2.277 1_655 S
O580 C573 1.226 . S
O581 Cd572 2.356 . S
O581 C579 1.282 . S
C582 O583 1.306 . S
C582 O585 1.160 1_554 S
O583 C582 1.306 . S
O583 Cd584 2.228 . S
Cd584 O583 2.228 . S
Cd584 O588 2.273 1_554 S
Cd584 O592 2.277 1_554 S
O585 C582 1.160 1_556 S
O585 Cd586 2.203 . S
Cd586 O585 2.203 . S
Cd586 O588 2.411 . S
Cd586 O589 2.333 . S
Cd586 O590 2.352 . S
Cd586 O594 2.277 . S
Cd586 O595 2.356 . S
C587 O592 1.209 . S
C587 O594 1.226 . S
O588 Cd584 2.273 1_556 S
O588 Cd586 2.411 . S
O588 C591 1.320 . S
O589 Cd586 2.333 . S
O589 C591 1.214 . S
O590 Cd586 2.352 . S
O590 C593 1.258 . S
C591 O588 1.320 . S
C591 O589 1.214 . S
O592 Cd584 2.277 1_556 S
O592 C587 1.209 . S
C593 O590 1.258 . S
C593 O595 1.282 . S
O594 Cd586 2.277 . S
O594 C587 1.226 . S
O595 Cd586 2.356 . S
O595 C593 1.282 . S
C596 O597 1.306 . S
C596 O599 1.160 . S
O597 C596 1.306 . S
O597 Cd598 2.228 . S
Cd598 O597 2.228 . S
Cd598 O602 2.273 . S
Cd598 O606 2.277 . S
O599 C596 1.160 . S
O599 Cd600 2.203 . S
Cd600 O599 2.203 . S
Cd600 O602 2.411 . S
Cd600 O603 2.333 . S
Cd600 O604 2.352 . S
Cd600 O608 2.277 . S
Cd600 O609 2.356 . S
C601 O606 1.209 . S
C601 O608 1.226 . S
O602 Cd598 2.273 . S
O602 Cd600 2.411 . S
O602 C605 1.320 . S
O603 Cd600 2.333 . S
O603 C605 1.214 . S
O604 Cd600 2.352 . S
O604 C607 1.258 . S
C605 O602 1.320 . S
C605 O603 1.214 . S
O606 Cd598 2.277 . S
O606 C601 1.209 . S
C607 O604 1.258 . S
C607 O609 1.282 . S
O608 Cd600 2.277 . S
O608 C601 1.226 . S
O609 Cd600 2.356 . S
O609 C607 1.282 . S
C610 O611 1.306 . S
C610 O613 1.160 . S
O611 C610 1.306 . S
O611 Cd612 2.228 . S
Cd612 O611 2.228 . S
Cd612 O616 2.273 . S
Cd612 O620 2.277 1_655 S
O613 C610 1.160 . S
O613 Cd614 2.203 . S
Cd614 O613 2.203 . S
Cd614 O616 2.411 . S
Cd614 O617 2.333 . S
Cd614 O618 2.352 . S
Cd614 O622 2.277 1_655 S
Cd614 O623 2.356 . S
C615 O620 1.209 . S
C615 O622 1.226 . S
O616 Cd612 2.273 . S
O616 Cd614 2.411 . S
O616 C619 1.320 . S
O617 Cd614 2.333 . S
O617 C619 1.214 . S
O618 Cd614 2.352 . S
O618 C621 1.258 . S
C619 O616 1.320 . S
C619 O617 1.214 . S
O620 Cd612 2.277 1_455 S
O620 C615 1.209 . S
C621 O618 1.258 . S
C621 O623 1.282 . S
O622 Cd614 2.277 1_455 S
O622 C615 1.226 . S
O623 Cd614 2.356 . S
O623 C621 1.282 . S
C624 O625 1.306 . S
C624 O627 1.160 . S
O625 C624 1.306 . S
O625 Cd626 2.228 . S
Cd626 O625 2.228 . S
Cd626 O630 2.273 . S
Cd626 O634 2.277 . S
O627 C624 1.160 . S
O627 Cd628 2.203 . S
Cd628 O627 2.203 . S
Cd628 O630 2.411 . S
Cd628 O631 2.333 . S
Cd628 O632 2.352 . S
Cd628 O636 2.277 . S
Cd628 O637 2.356 . S
C629 O634 1.209 . S
C629 O636 1.226 . S
O630 Cd626 2.273 . S
O630 Cd628 2.411 . S
O630 C633 1.320 . S
O631 Cd628 2.333 . S
O631 C633 1.214 . S
O632 Cd628 2.352 . S
O632 C635 1.258 . S
C633 O630 1.320 . S
C633 O631 1.214 . S
O634 Cd626 2.277 . S
O634 C629 1.209 . S
C635 O632 1.258 . S
C635 O637 1.282 . S
O636 Cd628 2.277 . S
O636 C629 1.226 . S
O637 Cd628 2.356 . S
O637 C635 1.282 . S
C638 O639 1.306 . S
C638 O641 1.160 . S
O639 C638 1.306 . S
O639 Cd640 2.228 . S
Cd640 O639 2.228 . S
Cd640 O644 2.273 1_455 S
Cd640 O648 2.278 . S
O641 C638 1.160 . S
O641 Cd642 2.203 1_455 S
Cd642 O641 2.203 1_655 S
Cd642 O644 2.411 . S
Cd642 O645 2.333 . S
Cd642 O646 2.352 . S
Cd642 O650 2.277 . S
Cd642 O651 2.356 . S
C643 O648 1.207 1_655 S
C643 O650 1.226 . S
O644 Cd640 2.273 1_655 S
O644 Cd642 2.411 . S
O644 C647 1.320 . S
O645 Cd642 2.333 . S
O645 C647 1.214 . S
O646 Cd642 2.352 . S
O646 C649 1.258 . S
C647 O644 1.320 . S
C647 O645 1.214 . S
O648 Cd640 2.278 . S
O648 C643 1.207 1_455 S
C649 O646 1.258 . S
C649 O651 1.282 . S
O650 Cd642 2.277 . S
O650 C643 1.226 . S
O651 Cd642 2.356 . S
O651 C649 1.282 . S
C652 O653 1.306 . S
C652 O655 1.160 . S
O653 C652 1.306 . S
O653 Cd654 2.228 . S
Cd654 O653 2.228 . S
Cd654 O658 2.273 . S
Cd654 O662 2.277 . S
O655 C652 1.160 . S
O655 Cd656 2.203 . S
Cd656 O655 2.203 . S
Cd656 O658 2.411 . S
Cd656 O659 2.333 . S
Cd656 O660 2.352 . S
Cd656 O664 2.277 . S
Cd656 O665 2.356 . S
C657 O662 1.209 . S
C657 O664 1.226 . S
O658 Cd654 2.273 . S
O658 Cd656 2.411 . S
O658 C661 1.320 . S
O659 Cd656 2.333 . S
O659 C661 1.214 . S
O660 Cd656 2.352 . S
O660 C663 1.258 . S
C661 O658 1.320 . S
C661 O659 1.214 . S
O662 Cd654 2.277 . S
O662 C657 1.209 . S
C663 O660 1.258 . S
C663 O665 1.282 . S
O664 Cd656 2.277 . S
O664 C657 1.226 . S
O665 Cd656 2.356 . S
O665 C663 1.282 . S
C666 C667 1.387 . S
C666 H670 0.950 . S
C666 C675 1.390 . S
C667 C666 1.387 . S
C667 C669 1.387 . S
H668 C675 0.950 . S
C669 C667 1.387 . S
C669 C671 1.390 . S
C669 H673 0.948 1_554 S
H670 C666 0.950 . S
C671 C669 1.390 . S
C671 C672 1.387 . S
C671 H674 0.950 . S
C672 C671 1.387 . S
C672 C675 1.387 . S
H673 C669 0.948 1_556 S
H674 C671 0.950 . S
C675 C666 1.390 . S
C675 H668 0.950 . S
C675 C672 1.387 . S
C676 C677 1.387 . S
C676 H680 0.950 . S
C676 C685 1.390 . S
C677 C676 1.387 . S
C677 C679 1.387 . S
H678 C685 0.950 . S
C679 C677 1.387 . S
C679 C681 1.390 . S
C679 H683 0.950 . S
H680 C676 0.950 . S
C681 C679 1.390 . S
C681 C682 1.387 . S
C681 H684 0.950 . S
C682 C681 1.387 . S
C682 C685 1.387 . S
H683 C679 0.950 . S
H684 C681 0.950 . S
C685 C676 1.390 . S
C685 H678 0.950 . S
C685 C682 1.387 . S
C686 C687 1.387 1_565 S
C686 H690 0.950 . S
C686 C695 1.390 . S
C687 C686 1.387 1_545 S
C687 C689 1.387 . S
H688 C695 0.950 . S
C689 C687 1.387 . S
C689 C691 1.390 . S
C689 H693 0.950 . S
H690 C686 0.950 . S
C691 C689 1.390 . S
C691 C692 1.402 . S
C691 H694 0.950 . S
C692 C691 1.402 . S
C692 C695 1.362 1_545 S
H693 C689 0.950 . S
H694 C691 0.950 . S
C695 C686 1.390 . S
C695 H688 0.950 . S
C695 C692 1.362 1_565 S
C696 C697 1.387 . S
C696 H700 0.950 . S
C696 C705 1.390 . S
C697 C696 1.387 . S
C697 C699 1.387 . S
H698 C705 0.950 . S
C699 C697 1.387 . S
C699 C701 1.390 . S
C699 H703 0.950 . S
H700 C696 0.950 . S
C701 C699 1.390 . S
C701 C702 1.387 . S
C701 H704 0.950 . S
C702 C701 1.387 . S
C702 C705 1.387 . S
H703 C699 0.950 . S
H704 C701 0.950 . S
C705 C696 1.390 . S
C705 H698 0.950 . S
C705 C702 1.387 . S
C706 C707 1.387 . S
C706 H710 0.931 1_455 S
C706 C715 1.390 1_455 S
C707 C706 1.387 . S
C707 C709 1.387 . S
H708 C715 0.950 . S
C709 C707 1.387 . S
C709 C711 1.390 . S
C709 H713 0.950 . S
H710 C706 0.931 1_655 S
C711 C709 1.390 . S
C711 C712 1.387 . S
C711 H714 0.950 . S
C712 C711 1.387 . S
C712 C715 1.387 1_455 S
H713 C709 0.950 . S
H714 C711 0.950 . S
C715 C706 1.390 1_655 S
C715 H708 0.950 . S
C715 C712 1.387 1_655 S
C716 C717 1.387 . S
C716 H720 0.950 . S
C716 C725 1.390 . S
C717 C716 1.387 . S
C717 C719 1.387 . S
H718 C725 0.950 . S
C719 C717 1.387 . S
C719 C721 1.390 . S
C719 H723 0.950 . S
H720 C716 0.950 . S
C721 C719 1.390 . S
C721 C722 1.387 . S
C721 H724 0.950 . S
C722 C721 1.387 . S
C722 C725 1.387 . S
H723 C719 0.950 . S
H724 C721 0.950 . S
C725 C716 1.390 . S
C725 H718 0.950 . S
C725 C722 1.387 . S
C726 C727 1.387 . S
C726 H730 0.950 1_556 S
C726 C735 1.393 1_455 S
C727 C726 1.387 . S
C727 C729 1.387 . S
H728 C735 0.947 1_554 S
C729 C727 1.387 . S
C729 C731 1.390 . S
C729 H733 0.950 . S
H730 C726 0.950 1_554 S
C731 C729 1.390 . S
C731 C732 1.387 . S
C731 H734 0.950 . S
C732 C731 1.387 . S
C732 C735 1.387 1_455 S
H733 C729 0.950 . S
H734 C731 0.950 . S
C735 C726 1.393 1_655 S
C735 H728 0.947 1_556 S
C735 C732 1.387 1_655 S
C736 C737 1.387 . S
C736 H740 0.950 . S
C736 C745 1.390 . S
C737 C736 1.387 . S
C737 C739 1.387 1_556 S
H738 C745 0.950 . S
C739 C737 1.387 1_554 S
C739 C741 1.390 . S
C739 H743 0.950 . S
H740 C736 0.950 . S
C741 C739 1.390 . S
C741 C742 1.387 1_554 S
C741 H744 0.950 . S
C742 C741 1.387 1_556 S
C742 C745 1.387 . S
H743 C739 0.950 . S
H744 C741 0.950 . S
C745 C736 1.390 . S
C745 H738 0.950 . S
C745 C742 1.387 . S
C746 C747 1.387 1_554 S
C746 H750 0.950 . S
C746 C755 1.390 1_554 S
C747 C746 1.387 1_556 S
C747 C749 1.387 . S
H748 C755 0.950 1_554 S
C749 C747 1.387 . S
C749 C751 1.390 . S
C749 H753 0.950 . S
H750 C746 0.950 . S
C751 C749 1.390 . S
C751 C752 1.387 . S
C751 H754 0.950 . S
C752 C751 1.387 . S
C752 C755 1.387 . S
H753 C749 0.950 . S
H754 C751 0.950 . S
C755 C746 1.390 1_556 S
C755 H748 0.950 1_556 S
C755 C752 1.387 . S
C756 C757 1.387 1_545 S
C756 H760 0.950 . S
C756 C765 1.390 . S
C757 C756 1.387 1_565 S
C757 C759 1.387 . S
H758 C765 0.950 . S
C759 C757 1.387 . S
C759 C761 1.390 . S
C759 H763 0.950 . S
H760 C756 0.950 . S
C761 C759 1.390 . S
C761 C762 1.387 1_565 S
C761 H764 0.950 . S
C762 C761 1.387 1_545 S
C762 C765 1.387 . S
H763 C759 0.950 . S
H764 C761 0.950 . S
C765 C756 1.390 . S
C765 H758 0.950 . S
C765 C762 1.387 . S
C766 C767 1.387 . S
C766 H770 0.950 . S
C766 C775 1.390 . S
C767 C766 1.387 . S
C767 C769 1.387 . S
H768 C775 0.950 . S
C769 C767 1.387 . S
C769 C771 1.390 . S
C769 H773 0.950 . S
H770 C766 0.950 . S
C771 C769 1.390 . S
C771 C772 1.387 . S
C771 H774 0.950 . S
C772 C771 1.387 . S
C772 C775 1.387 . S
H773 C769 0.950 . S
H774 C771 0.950 . S
C775 C766 1.390 . S
C775 H768 0.950 . S
C775 C772 1.387 . S
C776 C777 1.387 . S
C776 H780 0.950 . S
C776 C785 1.390 . S
C777 C776 1.387 . S
C777 C779 1.387 . S
H778 C785 0.950 . S
C779 C777 1.387 . S
C779 C781 1.390 . S
C779 H783 0.950 . S
H780 C776 0.950 . S
C781 C779 1.390 . S
C781 C782 1.387 . S
C781 H784 0.950 . S
C782 C781 1.387 . S
C782 C785 1.387 . S
H783 C779 0.950 . S
H784 C781 0.950 . S
C785 C776 1.390 . S
C785 H778 0.950 . S
C785 C782 1.387 . S
C786 C787 1.387 . S
C786 H790 0.950 . S
C786 C795 1.390 . S
C787 C786 1.387 . S
C787 C789 1.387 . S
H788 C795 0.950 . S
C789 C787 1.387 . S
C789 C791 1.390 . S
C789 H793 0.950 . S
H790 C786 0.950 . S
C791 C789 1.390 . S
C791 C792 1.387 . S
C791 H794 0.950 . S
C792 C791 1.387 . S
C792 C795 1.387 . S
H793 C789 0.950 . S
H794 C791 0.950 . S
C795 C786 1.390 . S
C795 H788 0.950 . S
C795 C792 1.387 . S
C796 C797 1.387 1_545 S
C796 H800 0.950 . S
C796 C805 1.390 . S
C797 C796 1.387 1_565 S
C797 C799 1.387 1_565 S
H798 C805 0.950 . S
C799 C797 1.387 1_545 S
C799 C801 1.390 . S
C799 H803 0.950 1_545 S
H800 C796 0.950 . S
C801 C799 1.390 . S
C801 C802 1.387 . S
C801 H804 0.950 . S
C802 C801 1.387 . S
C802 C805 1.387 . S
H803 C799 0.950 1_565 S
H804 C801 0.950 . S
C805 C796 1.390 . S
C805 H798 0.950 . S
C805 C802 1.387 . S
C806 C807 1.387 . S
C806 H810 0.950 . S
C806 C815 1.390 . S
C807 C806 1.387 . S
C807 C809 1.387 . S
H808 C815 0.950 . S
C809 C807 1.387 . S
C809 C811 1.390 . S
C809 H813 0.950 . S
H810 C806 0.950 . S
C811 C809 1.390 . S
C811 C812 1.387 . S
C811 H814 0.950 . S
C812 C811 1.387 . S
C812 C815 1.387 . S
H813 C809 0.950 . S
H814 C811 0.950 . S
C815 C806 1.390 . S
C815 H808 0.950 . S
C815 C812 1.387 . S
C816 C817 1.387 . S
C816 H820 0.950 . S
C816 C825 1.390 . S
C817 C816 1.387 . S
C817 C819 1.387 . S
H818 C825 0.950 . S
C819 C817 1.387 . S
C819 C821 1.390 . S
C819 H823 0.950 . S
H820 C816 0.950 . S
C821 C819 1.390 . S
C821 C822 1.387 . S
C821 H824 0.950 . S
C822 C821 1.387 . S
C822 C825 1.387 . S
H823 C819 0.950 . S
H824 C821 0.950 . S
C825 C816 1.390 . S
C825 H818 0.950 . S
C825 C822 1.387 . S
C826 C827 1.387 . S
C826 H830 0.950 . S
C826 C835 1.390 . S
C827 C826 1.387 . S
C827 C829 1.387 . S
H828 C835 0.950 . S
C829 C827 1.387 . S
C829 C831 1.390 . S
C829 H833 0.950 . S
H830 C826 0.950 . S
C831 C829 1.390 . S
C831 C832 1.387 . S
C831 H834 0.950 . S
C832 C831 1.387 . S
C832 C835 1.387 . S
H833 C829 0.950 . S
H834 C831 0.950 . S
C835 C826 1.390 . S
C835 H828 0.950 . S
C835 C832 1.387 . S
C836 C837 1.387 . S
C836 H840 0.950 . S
C836 C845 1.390 . S
C837 C836 1.387 . S
C837 C839 1.387 . S
H838 C845 0.950 1_545 S
C839 C837 1.387 . S
C839 C841 1.390 . S
C839 H843 0.950 . S
H840 C836 0.950 . S
C841 C839 1.390 . S
C841 C842 1.387 . S
C841 H844 0.950 . S
C842 C841 1.387 . S
C842 C845 1.387 . S
H843 C839 0.950 . S
H844 C841 0.950 . S
C845 C836 1.390 . S
C845 H838 0.950 1_565 S
C845 C842 1.387 . S
C846 C847 1.387 . S
C846 H850 0.950 . S
C846 C855 1.390 1_565 S
C847 C846 1.387 . S
C847 C849 1.387 . S
H848 C855 0.950 . S
C849 C847 1.387 . S
C849 C851 1.390 1_565 S
C849 H853 0.950 . S
H850 C846 0.950 . S
C851 C849 1.390 1_545 S
C851 C852 1.387 . S
C851 H854 0.950 . S
C852 C851 1.387 . S
C852 C855 1.387 . S
H853 C849 0.950 . S
H854 C851 0.950 . S
C855 C846 1.390 1_545 S
C855 H848 0.950 . S
C855 C852 1.387 . S
C856 C857 1.387 . S
C856 H860 0.950 . S
C856 C865 1.390 . S
C857 C856 1.387 . S
C857 C859 1.387 . S
H858 C865 0.950 . S
C859 C857 1.387 . S
C859 C861 1.390 . S
C859 H863 0.950 . S
H860 C856 0.950 . S
C861 C859 1.390 . S
C861 C862 1.387 . S
C861 H864 0.950 . S
C862 C861 1.387 . S
C862 C865 1.387 . S
H863 C859 0.950 . S
H864 C861 0.950 . S
C865 C856 1.390 . S
C865 H858 0.950 . S
C865 C862 1.387 . S
C866 C867 1.387 . S
C866 H870 0.950 . S
C866 C875 1.390 . S
C867 C866 1.387 . S
C867 C869 1.387 . S
H868 C875 0.950 . S
C869 C867 1.387 . S
C869 C871 1.390 . S
C869 H873 0.950 . S
H870 C866 0.950 . S
C871 C869 1.390 . S
C871 C872 1.387 . S
C871 H874 0.950 . S
C872 C871 1.387 . S
C872 C875 1.387 . S
H873 C869 0.950 . S
H874 C871 0.950 . S
C875 C866 1.390 . S
C875 H868 0.950 . S
C875 C872 1.387 . S
C876 C877 1.387 . S
C876 H880 0.950 . S
C876 C885 1.390 . S
C877 C876 1.387 . S
C877 C879 1.387 . S
H878 C885 0.950 . S
C879 C877 1.387 . S
C879 C881 1.390 . S
C879 H883 0.950 . S
H880 C876 0.950 . S
C881 C879 1.390 . S
C881 C882 1.387 . S
C881 H884 0.950 . S
C882 C881 1.387 . S
C882 C885 1.387 . S
H883 C879 0.950 . S
H884 C881 0.950 . S
C885 C876 1.390 . S
C885 H878 0.950 . S
C885 C882 1.387 . S
C886 C887 1.387 1_545 S
C886 H890 0.950 . S
C886 C895 1.390 . S
C887 C886 1.387 1_565 S
C887 C889 1.387 . S
H888 C895 0.950 . S
C889 C887 1.387 . S
C889 C891 1.390 1_565 S
C889 H893 0.950 . S
H890 C886 0.950 . S
C891 C889 1.390 1_545 S
C891 C892 1.387 . S
C891 H894 0.950 . S
C892 C891 1.387 . S
C892 C895 1.387 . S
H893 C889 0.950 . S
H894 C891 0.950 . S
C895 C886 1.390 . S
C895 H888 0.950 . S
C895 C892 1.387 . S
C896 C897 1.387 . S
C896 H900 0.950 . S
C896 C905 1.390 . S
C897 C896 1.387 . S
C897 C899 1.387 . S
H898 C905 0.950 . S
C899 C897 1.387 . S
C899 C901 1.390 . S
C899 H903 0.950 . S
H900 C896 0.950 . S
C901 C899 1.390 . S
C901 C902 1.387 . S
C901 H904 0.950 . S
C902 C901 1.387 . S
C902 C905 1.387 . S
H903 C899 0.950 . S
H904 C901 0.950 . S
C905 C896 1.390 . S
C905 H898 0.950 . S
C905 C902 1.387 . S
C906 C907 1.387 . S
C906 H910 0.950 . S
C906 C915 1.390 . S
C907 C906 1.387 . S
C907 C909 1.387 . S
H908 C915 0.950 . S
C909 C907 1.387 . S
C909 C911 1.390 . S
C909 H913 0.950 . S
H910 C906 0.950 . S
C911 C909 1.390 . S
C911 C912 1.387 . S
C911 H914 0.950 . S
C912 C911 1.387 . S
C912 C915 1.387 . S
H913 C909 0.950 . S
H914 C911 0.950 . S
C915 C906 1.390 . S
C915 H908 0.950 . S
C915 C912 1.387 . S
C916 C917 1.387 . S
C916 H920 0.950 . S
C916 C925 1.390 . S
C917 C916 1.387 . S
C917 C919 1.387 . S
H918 C925 0.950 . S
C919 C917 1.387 . S
C919 C921 1.390 . S
C919 H923 0.950 . S
H920 C916 0.950 . S
C921 C919 1.390 . S
C921 C922 1.387 . S
C921 H924 0.950 . S
C922 C921 1.387 . S
C922 C925 1.387 . S
H923 C919 0.950 . S
H924 C921 0.950 . S
C925 C916 1.390 . S
C925 H918 0.950 . S
C925 C922 1.387 . S
C926 C927 1.387 . S
C926 H930 0.950 . S
C926 C935 1.390 . S
C927 C926 1.387 . S
C927 C929 1.387 . S
H928 C935 0.950 . S
C929 C927 1.387 . S
C929 C931 1.390 . S
C929 H933 0.950 . S
H930 C926 0.950 . S
C931 C929 1.390 . S
C931 C932 1.387 . S
C931 H934 0.950 . S
C932 C931 1.387 . S
C932 C935 1.387 . S
H933 C929 0.950 . S
H934 C931 0.950 . S
C935 C926 1.390 . S
C935 H928 0.950 . S
C935 C932 1.387 . S
C936 C937 1.387 . S
C936 H940 0.950 . S
C936 C945 1.390 . S
C937 C936 1.387 . S
C937 C939 1.387 . S
H938 C945 0.950 . S
C939 C937 1.387 . S
C939 C941 1.390 . S
C939 H943 0.950 . S
H940 C936 0.950 . S
C941 C939 1.390 . S
C941 C942 1.387 . S
C941 H944 0.950 . S
C942 C941 1.387 . S
C942 C945 1.387 . S
H943 C939 0.950 . S
H944 C941 0.950 . S
C945 C936 1.390 . S
C945 H938 0.950 . S
C945 C942 1.387 . S
C946 C947 1.387 . S
C946 H950 0.950 . S
C946 C955 1.390 . S
C947 C946 1.387 . S
C947 C949 1.387 . S
H948 C955 0.950 . S
C949 C947 1.387 . S
C949 C951 1.390 . S
C949 H953 0.950 . S
H950 C946 0.950 . S
C951 C949 1.390 . S
C951 C952 1.387 . S
C951 H954 0.950 . S
C952 C951 1.387 . S
C952 C955 1.387 . S
H953 C949 0.950 . S
H954 C951 0.950 . S
C955 C946 1.390 . S
C955 H948 0.950 . S
C955 C952 1.387 . S
C956 C957 1.387 . S
C956 H960 0.950 . S
C956 C965 1.390 . S
C957 C956 1.387 . S
C957 C959 1.387 . S
H958 C965 0.950 . S
C959 C957 1.387 . S
C959 C961 1.390 . S
C959 H963 0.950 . S
H960 C956 0.950 . S
C961 C959 1.390 . S
C961 C962 1.387 . S
C961 H964 0.950 . S
C962 C961 1.387 . S
C962 C965 1.387 . S
H963 C959 0.950 . S
H964 C961 0.950 . S
C965 C956 1.390 . S
C965 H958 0.950 . S
C965 C962 1.387 . S
C966 C967 1.387 . S
C966 H970 0.950 . S
C966 C975 1.390 . S
C967 C966 1.387 . S
C967 C969 1.387 . S
H968 C975 0.950 . S
C969 C967 1.387 . S
C969 C971 1.390 . S
C969 H973 0.950 . S
H970 C966 0.950 . S
C971 C969 1.390 . S
C971 C972 1.387 . S
C971 H974 0.950 . S
C972 C971 1.387 . S
C972 C975 1.387 . S
H973 C969 0.950 . S
H974 C971 0.950 . S
C975 C966 1.390 . S
C975 H968 0.950 . S
C975 C972 1.387 . S
C976 C977 1.387 . S
C976 H980 0.950 . S
C976 C985 1.390 . S
C977 C976 1.387 . S
C977 C979 1.387 . S
H978 C985 0.950 . S
C979 C977 1.387 . S
C979 C981 1.390 . S
C979 H983 0.950 . S
H980 C976 0.950 . S
C981 C979 1.390 . S
C981 C982 1.387 . S
C981 H984 0.950 . S
C982 C981 1.387 . S
C982 C985 1.387 . S
H983 C979 0.950 . S
H984 C981 0.950 . S
C985 C976 1.390 . S
C985 H978 0.950 . S
C985 C982 1.387 . S
C986 C987 1.387 . S
C986 H990 0.950 . S
C986 C995 1.390 . S
C987 C986 1.387 . S
C987 C989 1.387 . S
H988 C995 0.950 . S
C989 C987 1.387 . S
C989 C991 1.390 . S
C989 H993 0.950 . S
H990 C986 0.950 . S
C991 C989 1.390 . S
C991 C992 1.387 . S
C991 H994 0.950 . S
C992 C991 1.387 . S
C992 C995 1.387 . S
H993 C989 0.950 . S
H994 C991 0.950 . S
C995 C986 1.390 . S
C995 H988 0.950 . S
C995 C992 1.387 . S
C996 C997 1.387 . S
C996 H1000 0.950 . S
C996 C1005 1.390 . S
C997 C996 1.387 . S
C997 C999 1.387 . S
H998 C1005 0.950 . S
C999 C997 1.387 . S
C999 C1001 1.390 . S
C999 H1003 0.950 . S
H1000 C996 0.950 . S
C1001 C999 1.390 . S
C1001 C1002 1.387 . S
C1001 H1004 0.950 . S
C1002 C1001 1.387 . S
C1002 C1005 1.387 . S
H1003 C999 0.950 . S
H1004 C1001 0.950 . S
C1005 C996 1.390 . S
C1005 H998 0.950 . S
C1005 C1002 1.387 . S
C1006 C1007 1.387 . S
C1006 H1010 0.950 . S
C1006 C1015 1.390 . S
C1007 C1006 1.387 . S
C1007 C1009 1.387 . S
H1008 C1015 0.950 . S
C1009 C1007 1.387 . S
C1009 C1011 1.390 . S
C1009 H1013 0.950 . S
H1010 C1006 0.950 . S
C1011 C1009 1.390 . S
C1011 C1012 1.387 . S
C1011 H1014 0.950 . S
C1012 C1011 1.387 . S
C1012 C1015 1.387 . S
H1013 C1009 0.950 . S
H1014 C1011 0.950 . S
C1015 C1006 1.390 . S
C1015 H1008 0.950 . S
C1015 C1012 1.387 . S
C1016 C1017 1.387 . S
C1016 H1020 0.950 . S
C1016 C1025 1.390 . S
C1017 C1016 1.387 . S
C1017 C1019 1.387 . S
H1018 C1025 0.950 . S
C1019 C1017 1.387 . S
C1019 C1021 1.390 . S
C1019 H1023 0.950 . S
H1020 C1016 0.950 . S
C1021 C1019 1.390 . S
C1021 C1022 1.387 . S
C1021 H1024 0.950 . S
C1022 C1021 1.387 . S
C1022 C1025 1.387 . S
H1023 C1019 0.950 . S
H1024 C1021 0.950 . S
C1025 C1016 1.390 . S
C1025 H1018 0.950 . S
C1025 C1022 1.387 . S
C1026 C1027 1.387 . S
C1026 H1030 0.950 . S
C1026 C1035 1.390 . S
C1027 C1026 1.387 . S
C1027 C1029 1.387 . S
H1028 C1035 0.916 1_655 S
C1029 C1027 1.387 . S
C1029 C1031 1.390 . S
C1029 H1033 0.950 . S
H1030 C1026 0.950 . S
C1031 C1029 1.390 . S
C1031 C1032 1.387 . S
C1031 H1034 0.950 . S
C1032 C1031 1.387 . S
C1032 C1035 1.387 . S
H1033 C1029 0.950 . S
H1034 C1031 0.950 . S
C1035 C1026 1.390 . S
C1035 H1028 0.916 1_455 S
C1035 C1032 1.387 . S
C1036 C1037 1.387 . S
C1036 H1040 0.950 . S
C1036 C1045 1.390 . S
C1037 C1036 1.387 . S
C1037 C1039 1.387 . S
H1038 C1045 0.950 . S
C1039 C1037 1.387 . S
C1039 C1041 1.390 . S
C1039 H1043 0.950 . S
H1040 C1036 0.950 . S
C1041 C1039 1.390 . S
C1041 C1042 1.387 . S
C1041 H1044 0.950 . S
C1042 C1041 1.387 . S
C1042 C1045 1.387 . S
H1043 C1039 0.950 . S
H1044 C1041 0.950 . S
C1045 C1036 1.390 . S
C1045 H1038 0.950 . S
C1045 C1042 1.387 . S
C1046 C1047 1.387 1_565 S
C1046 H1050 0.950 . S
C1046 C1055 1.390 . S
C1047 C1046 1.387 1_545 S
C1047 C1049 1.387 . S
H1048 C1055 0.950 . S
C1049 C1047 1.387 . S
C1049 C1051 1.390 . S
C1049 H1053 0.950 . S
H1050 C1046 0.950 . S
C1051 C1049 1.390 . S
C1051 C1052 1.387 . S
C1051 H1054 0.950 . S
C1052 C1051 1.387 . S
C1052 C1055 1.387 1_545 S
H1053 C1049 0.950 . S
H1054 C1051 0.950 . S
C1055 C1046 1.390 . S
C1055 H1048 0.950 . S
C1055 C1052 1.387 1_565 S
C1056 C1057 1.387 . S
C1056 H1060 0.950 . S
C1056 C1065 1.390 . S
C1057 C1056 1.387 . S
C1057 C1059 1.387 1_545 S
H1058 C1065 0.950 . S
C1059 C1057 1.387 1_565 S
C1059 C1061 1.390 . S
C1059 H1063 0.950 . S
H1060 C1056 0.950 . S
C1061 C1059 1.390 . S
C1061 C1062 1.387 1_565 S
C1061 H1064 0.950 . S
C1062 C1061 1.387 1_545 S
C1062 C1065 1.387 . S
H1063 C1059 0.950 . S
H1064 C1061 0.950 . S
C1065 C1056 1.390 . S
C1065 H1058 0.950 . S
C1065 C1062 1.387 . S
C1066 C1067 1.387 . S
C1066 H1070 0.950 . S
C1066 C1075 1.390 . S
C1067 C1066 1.387 . S
C1067 C1069 1.387 . S
H1068 C1075 0.950 . S
C1069 C1067 1.387 . S
C1069 C1071 1.390 . S
C1069 H1073 0.950 1_455 S
H1070 C1066 0.950 . S
C1071 C1069 1.390 . S
C1071 C1072 1.387 . S
C1071 H1074 0.950 1_455 S
C1072 C1071 1.387 . S
C1072 C1075 1.387 . S
H1073 C1069 0.950 1_655 S
H1074 C1071 0.950 1_655 S
C1075 C1066 1.390 . S
C1075 H1068 0.950 . S
C1075 C1072 1.387 . S
C1076 C1077 1.387 . S
C1076 H1080 0.950 . S
C1076 C1085 1.390 . S
C1077 C1076 1.387 . S
C1077 C1079 1.387 . S
H1078 C1085 0.950 . S
C1079 C1077 1.387 . S
C1079 C1081 1.390 . S
C1079 H1083 0.950 . S
H1080 C1076 0.950 . S
C1081 C1079 1.390 . S
C1081 C1082 1.387 . S
C1081 H1084 0.950 . S
C1082 C1081 1.387 . S
C1082 C1085 1.387 . S
H1083 C1079 0.950 . S
H1084 C1081 0.950 . S
C1085 C1076 1.390 . S
C1085 H1078 0.950 . S
C1085 C1082 1.387 . S
C1086 C1087 1.387 . S
C1086 H1090 0.950 . S
C1086 C1095 1.390 . S
C1087 C1086 1.387 . S
C1087 C1089 1.387 . S
H1088 C1095 0.950 . S
C1089 C1087 1.387 . S
C1089 C1091 1.390 . S
C1089 H1093 0.950 . S
H1090 C1086 0.950 . S
C1091 C1089 1.390 . S
C1091 C1092 1.387 . S
C1091 H1094 0.950 . S
C1092 C1091 1.387 . S
C1092 C1095 1.387 . S
H1093 C1089 0.950 . S
H1094 C1091 0.950 . S
C1095 C1086 1.390 . S
C1095 H1088 0.950 . S
C1095 C1092 1.387 . S
C1096 C1097 1.387 . S
C1096 H1100 0.950 . S
C1096 C1105 1.390 . S
C1097 C1096 1.387 . S
C1097 C1099 1.387 . S
H1098 C1105 0.950 . S
C1099 C1097 1.387 . S
C1099 C1101 1.390 . S
C1099 H1103 0.950 . S
H1100 C1096 0.950 . S
C1101 C1099 1.390 . S
C1101 C1102 1.387 . S
C1101 H1104 0.950 . S
C1102 C1101 1.387 . S
C1102 C1105 1.387 . S
H1103 C1099 0.950 . S
H1104 C1101 0.950 . S
C1105 C1096 1.390 . S
C1105 H1098 0.950 . S
C1105 C1102 1.387 . S
C1106 C1107 1.387 . S
C1106 H1110 0.950 . S
C1106 C1115 1.390 . S
C1107 C1106 1.387 . S
C1107 C1109 1.387 . S
H1108 C1115 0.950 . S
C1109 C1107 1.387 . S
C1109 C1111 1.390 . S
C1109 H1113 0.950 1_545 S
H1110 C1106 0.950 . S
C1111 C1109 1.390 . S
C1111 C1112 1.387 . S
C1111 H1114 0.950 . S
C1112 C1111 1.387 . S
C1112 C1115 1.387 . S
H1113 C1109 0.950 1_565 S
H1114 C1111 0.950 . S
C1115 C1106 1.390 . S
C1115 H1108 0.950 . S
C1115 C1112 1.387 . S
C1116 C1117 1.387 . S
C1116 H1120 0.950 . S
C1116 C1125 1.390 . S
C1117 C1116 1.387 . S
C1117 C1119 1.387 . S
H1118 C1125 0.950 . S
C1119 C1117 1.387 . S
C1119 C1121 1.390 . S
C1119 H1123 0.950 . S
H1120 C1116 0.950 . S
C1121 C1119 1.390 . S
C1121 C1122 1.387 . S
C1121 H1124 0.950 . S
C1122 C1121 1.387 . S
C1122 C1125 1.387 . S
H1123 C1119 0.950 . S
H1124 C1121 0.950 . S
C1125 C1116 1.390 . S
C1125 H1118 0.950 . S
C1125 C1122 1.387 . S
C1126 C1127 1.387 . S
C1126 H1130 0.950 . S
C1126 C1135 1.390 . S
C1127 C1126 1.387 . S
C1127 C1129 1.387 . S
H1128 C1135 0.950 . S
C1129 C1127 1.387 . S
C1129 C1131 1.390 . S
C1129 H1133 0.954 . S
H1130 C1126 0.950 . S
C1131 C1129 1.390 . S
C1131 C1132 1.387 . S
C1131 H1134 0.950 1_455 S
C1132 C1131 1.387 . S
C1132 C1135 1.387 . S
H1133 C1129 0.954 . S
H1134 C1131 0.950 1_655 S
C1135 C1126 1.390 . S
C1135 H1128 0.950 . S
C1135 C1132 1.387 . S
C1136 C1137 1.387 . S
C1136 H1140 0.950 . S
C1136 C1145 1.390 . S
C1137 C1136 1.387 . S
C1137 C1139 1.387 . S
H1138 C1145 0.950 . S
C1139 C1137 1.387 . S
C1139 C1141 1.390 . S
C1139 H1143 0.950 . S
H1140 C1136 0.950 . S
C1141 C1139 1.390 . S
C1141 C1142 1.387 . S
C1141 H1144 0.950 . S
C1142 C1141 1.387 . S
C1142 C1145 1.387 . S
H1143 C1139 0.950 . S
H1144 C1141 0.950 . S
C1145 C1136 1.390 . S
C1145 H1138 0.950 . S
C1145 C1142 1.387 . S
C1146 C1147 1.387 . S
C1146 H1150 0.950 . S
C1146 C1155 1.390 . S
C1147 C1146 1.387 . S
C1147 C1149 1.387 . S
H1148 C1155 0.950 . S
C1149 C1147 1.387 . S
C1149 C1151 1.390 . S
C1149 H1153 0.950 . S
H1150 C1146 0.950 . S
C1151 C1149 1.390 . S
C1151 C1152 1.387 . S
C1151 H1154 0.950 . S
C1152 C1151 1.387 . S
C1152 C1155 1.387 . S
H1153 C1149 0.950 . S
H1154 C1151 0.950 . S
C1155 C1146 1.390 . S
C1155 H1148 0.950 . S
C1155 C1152 1.387 . S
C1156 C1157 1.387 . S
C1156 H1160 0.950 . S
C1156 C1165 1.390 . S
C1157 C1156 1.387 . S
C1157 C1159 1.387 . S
H1158 C1165 0.950 . S
C1159 C1157 1.387 . S
C1159 C1161 1.390 . S
C1159 H1163 0.950 . S
H1160 C1156 0.950 . S
C1161 C1159 1.390 . S
C1161 C1162 1.387 . S
C1161 H1164 0.950 . S
C1162 C1161 1.387 . S
C1162 C1165 1.387 . S
H1163 C1159 0.950 . S
H1164 C1161 0.950 . S
C1165 C1156 1.390 . S
C1165 H1158 0.950 . S
C1165 C1162 1.387 . S
C1166 C1167 1.387 . S
C1166 H1170 0.950 . S
C1166 C1175 1.390 . S
C1167 C1166 1.387 . S
C1167 C1169 1.387 . S
H1168 C1175 0.950 . S
C1169 C1167 1.387 . S
C1169 C1171 1.390 . S
C1169 H1173 0.950 . S
H1170 C1166 0.950 . S
C1171 C1169 1.390 . S
C1171 C1172 1.387 . S
C1171 H1174 0.950 . S
C1172 C1171 1.387 . S
C1172 C1175 1.387 . S
H1173 C1169 0.950 . S
H1174 C1171 0.950 . S
C1175 C1166 1.390 . S
C1175 H1168 0.950 . S
C1175 C1172 1.387 . S
C1176 C1177 1.387 1_554 S
C1176 H1180 0.950 . S
C1176 C1185 1.390 . S
C1177 C1176 1.387 1_556 S
C1177 C1179 1.387 . S
H1178 C1185 0.950 . S
C1179 C1177 1.387 . S
C1179 C1181 1.390 . S
C1179 H1183 0.950 . S
H1180 C1176 0.950 . S
C1181 C1179 1.390 . S
C1181 C1182 1.387 1_556 S
C1181 H1184 0.950 . S
C1182 C1181 1.387 1_554 S
C1182 C1185 1.387 . S
H1183 C1179 0.950 . S
H1184 C1181 0.950 . S
C1185 C1176 1.390 . S
C1185 H1178 0.950 . S
C1185 C1182 1.387 . S
C1186 C1187 1.387 . S
C1186 H1190 0.950 . S
C1186 C1195 1.390 . S
C1187 C1186 1.387 . S
C1187 C1189 1.387 . S
H1188 C1195 0.950 1_554 S
C1189 C1187 1.387 . S
C1189 C1191 1.390 . S
C1189 H1193 0.950 . S
H1190 C1186 0.950 . S
C1191 C1189 1.390 . S
C1191 C1192 1.391 . S
C1191 H1194 0.950 . S
C1192 C1191 1.391 . S
C1192 C1195 1.389 . S
H1193 C1189 0.950 . S
H1194 C1191 0.950 . S
C1195 C1186 1.390 . S
C1195 H1188 0.950 1_556 S
C1195 C1192 1.389 . S
C1196 C1197 1.387 . S
C1196 H1200 0.950 . S
C1196 C1205 1.390 1_556 S
C1197 C1196 1.387 . S
C1197 C1199 1.387 . S
H1198 C1205 0.950 . S
C1199 C1197 1.387 . S
C1199 C1201 1.390 1_556 S
C1199 H1203 0.950 . S
H1200 C1196 0.950 . S
C1201 C1199 1.390 1_554 S
C1201 C1202 1.387 . S
C1201 H1204 0.950 . S
C1202 C1201 1.387 . S
C1202 C1205 1.387 . S
H1203 C1199 0.950 . S
H1204 C1201 0.950 . S
C1205 C1196 1.390 1_554 S
C1205 H1198 0.950 . S
C1205 C1202 1.387 . S
C1206 C1207 1.387 . S
C1206 H1210 0.950 . S
C1206 C1215 1.390 . S
C1207 C1206 1.387 . S
C1207 C1209 1.387 . S
H1208 C1215 0.950 . S
C1209 C1207 1.387 . S
C1209 C1211 1.390 . S
C1209 H1213 0.950 . S
H1210 C1206 0.950 . S
C1211 C1209 1.390 . S
C1211 C1212 1.387 . S
C1211 H1214 0.950 . S
C1212 C1211 1.387 . S
C1212 C1215 1.387 . S
H1213 C1209 0.950 . S
H1214 C1211 0.950 . S
C1215 C1206 1.390 . S
C1215 H1208 0.950 . S
C1215 C1212 1.387 . S
C1216 C1217 1.387 . S
C1216 H1220 0.950 . S
C1216 C1225 1.390 . S
C1217 C1216 1.387 . S
C1217 C1219 1.387 . S
H1218 C1225 0.950 . S
C1219 C1217 1.387 . S
C1219 C1221 1.390 . S
C1219 H1223 0.950 . S
H1220 C1216 0.950 . S
C1221 C1219 1.390 . S
C1221 C1222 1.387 . S
C1221 H1224 0.950 . S
C1222 C1221 1.387 . S
C1222 C1225 1.387 . S
H1223 C1219 0.950 . S
H1224 C1221 0.950 . S
C1225 C1216 1.390 . S
C1225 H1218 0.950 . S
C1225 C1222 1.387 . S
C1226 C1227 1.387 . S
C1226 H1230 0.950 . S
C1226 C1235 1.390 . S
C1227 C1226 1.387 . S
C1227 C1229 1.387 . S
H1228 C1235 0.950 . S
C1229 C1227 1.387 . S
C1229 C1231 1.390 . S
C1229 H1233 0.950 . S
H1230 C1226 0.950 . S
C1231 C1229 1.390 . S
C1231 C1232 1.387 . S
C1231 H1234 0.950 . S
C1232 C1231 1.387 . S
C1232 C1235 1.387 . S
H1233 C1229 0.950 . S
H1234 C1231 0.950 . S
C1235 C1226 1.390 . S
C1235 H1228 0.950 . S
C1235 C1232 1.387 . S
C1236 C1237 1.387 . S
C1236 H1240 0.950 . S
C1236 C1245 1.390 . S
C1237 C1236 1.387 . S
C1237 C1239 1.387 . S
H1238 C1245 0.950 . S
C1239 C1237 1.387 . S
C1239 C1241 1.390 . S
C1239 H1243 0.950 . S
H1240 C1236 0.950 . S
C1241 C1239 1.390 . S
C1241 C1242 1.387 . S
C1241 H1244 0.950 . S
C1242 C1241 1.387 . S
C1242 C1245 1.387 . S
H1243 C1239 0.950 . S
H1244 C1241 0.950 . S
C1245 C1236 1.390 . S
C1245 H1238 0.950 . S
C1245 C1242 1.387 . S
C1246 C1247 1.387 . S
C1246 H1250 0.950 . S
C1246 C1255 1.390 . S
C1247 C1246 1.387 . S
C1247 C1249 1.387 . S
H1248 C1255 0.950 . S
C1249 C1247 1.387 . S
C1249 C1251 1.390 . S
C1249 H1253 0.950 . S
H1250 C1246 0.950 . S
C1251 C1249 1.390 . S
C1251 C1252 1.387 . S
C1251 H1254 0.950 . S
C1252 C1251 1.387 . S
C1252 C1255 1.387 . S
H1253 C1249 0.950 . S
H1254 C1251 0.950 . S
C1255 C1246 1.390 . S
C1255 H1248 0.950 . S
C1255 C1252 1.387 . S
C1256 C1257 1.387 . S
C1256 H1260 0.950 . S
C1256 C1265 1.390 . S
C1257 C1256 1.387 . S
C1257 C1259 1.387 . S
H1258 C1265 0.950 . S
C1259 C1257 1.387 . S
C1259 C1261 1.390 . S
C1259 H1263 0.950 . S
H1260 C1256 0.950 . S
C1261 C1259 1.390 . S
C1261 C1262 1.387 . S
C1261 H1264 0.950 . S
C1262 C1261 1.387 . S
C1262 C1265 1.387 . S
H1263 C1259 0.950 . S
H1264 C1261 0.950 . S
C1265 C1256 1.390 . S
C1265 H1258 0.950 . S
C1265 C1262 1.387 . S
C1266 C1267 1.387 . S
C1266 H1270 0.950 . S
C1266 C1275 1.390 . S
C1267 C1266 1.387 . S
C1267 C1269 1.387 . S
H1268 C1275 0.950 . S
C1269 C1267 1.387 . S
C1269 C1271 1.390 . S
C1269 H1273 0.950 . S
H1270 C1266 0.950 . S
C1271 C1269 1.390 . S
C1271 C1272 1.387 . S
C1271 H1274 0.950 . S
C1272 C1271 1.387 . S
C1272 C1275 1.387 . S
H1273 C1269 0.950 . S
H1274 C1271 0.950 . S
C1275 C1266 1.390 . S
C1275 H1268 0.950 . S
C1275 C1272 1.387 . S
C1276 C1277 1.387 . S
C1276 H1280 0.950 . S
C1276 C1285 1.390 . S
C1277 C1276 1.387 . S
C1277 C1279 1.387 . S
H1278 C1285 0.950 . S
C1279 C1277 1.387 . S
C1279 C1281 1.390 . S
C1279 H1283 0.950 . S
H1280 C1276 0.950 . S
C1281 C1279 1.390 . S
C1281 C1282 1.387 . S
C1281 H1284 0.950 . S
C1282 C1281 1.387 . S
C1282 C1285 1.387 . S
H1283 C1279 0.950 . S
H1284 C1281 0.950 . S
C1285 C1276 1.390 . S
C1285 H1278 0.950 . S
C1285 C1282 1.387 . S
C1286 C1287 1.387 . S
C1286 H1290 0.950 . S
C1286 C1295 1.390 . S
C1287 C1286 1.387 . S
C1287 C1289 1.387 . S
H1288 C1295 0.950 . S
C1289 C1287 1.387 . S
C1289 C1291 1.390 . S
C1289 H1293 0.950 . S
H1290 C1286 0.950 . S
C1291 C1289 1.390 . S
C1291 C1292 1.387 . S
C1291 H1294 0.950 . S
C1292 C1291 1.387 . S
C1292 C1295 1.387 . S
H1293 C1289 0.950 . S
H1294 C1291 0.950 . S
C1295 C1286 1.390 . S
C1295 H1288 0.950 . S
C1295 C1292 1.387 . S
C1296 C1297 1.387 . S
C1296 H1300 0.950 . S
C1296 C1305 1.390 . S
C1297 C1296 1.387 . S
C1297 C1299 1.387 . S
H1298 C1305 0.950 . S
C1299 C1297 1.387 . S
C1299 C1301 1.390 . S
C1299 H1303 0.950 . S
H1300 C1296 0.950 . S
C1301 C1299 1.390 . S
C1301 C1302 1.387 . S
C1301 H1304 0.950 . S
C1302 C1301 1.387 . S
C1302 C1305 1.387 . S
H1303 C1299 0.950 . S
H1304 C1301 0.950 . S
C1305 C1296 1.390 . S
C1305 H1298 0.950 . S
C1305 C1302 1.387 . S
C1306 C1307 1.387 . S
C1306 H1310 0.950 . S
C1306 C1315 1.390 . S
C1307 C1306 1.387 . S
C1307 C1309 1.387 . S
H1308 C1315 0.950 . S
C1309 C1307 1.387 . S
C1309 C1311 1.390 . S
C1309 H1313 0.950 . S
H1310 C1306 0.950 . S
C1311 C1309 1.390 . S
C1311 C1312 1.387 . S
C1311 H1314 0.950 . S
C1312 C1311 1.387 . S
C1312 C1315 1.387 . S
H1313 C1309 0.950 . S
H1314 C1311 0.950 . S
C1315 C1306 1.390 . S
C1315 H1308 0.950 . S
C1315 C1312 1.387 . S
C1316 C1317 1.387 . S
C1316 H1320 0.950 . S
C1316 C1325 1.390 . S
C1317 C1316 1.387 . S
C1317 C1319 1.387 . S
H1318 C1325 0.950 . S
C1319 C1317 1.387 . S
C1319 C1321 1.390 . S
C1319 H1323 0.950 . S
H1320 C1316 0.950 . S
C1321 C1319 1.390 . S
C1321 C1322 1.387 . S
C1321 H1324 0.950 . S
C1322 C1321 1.387 . S
C1322 C1325 1.387 . S
H1323 C1319 0.950 . S
H1324 C1321 0.950 . S
C1325 C1316 1.390 . S
C1325 H1318 0.950 . S
C1325 C1322 1.387 . S
C1326 C1327 1.387 . S
C1326 H1330 0.950 . S
C1326 C1335 1.390 . S
C1327 C1326 1.387 . S
C1327 C1329 1.387 . S
H1328 C1335 0.950 . S
C1329 C1327 1.387 . S
C1329 C1331 1.390 . S
C1329 H1333 0.950 . S
H1330 C1326 0.950 . S
C1331 C1329 1.390 . S
C1331 C1332 1.387 . S
C1331 H1334 0.950 . S
C1332 C1331 1.387 . S
C1332 C1335 1.387 . S
H1333 C1329 0.950 . S
H1334 C1331 0.950 . S
C1335 C1326 1.390 . S
C1335 H1328 0.950 . S
C1335 C1332 1.387 . S
C1336 C1337 1.387 . S
C1336 H1340 0.950 . S
C1336 C1345 1.390 . S
C1337 C1336 1.387 . S
C1337 C1339 1.387 . S
H1338 C1345 0.950 . S
C1339 C1337 1.387 . S
C1339 C1341 1.390 . S
C1339 H1343 0.950 . S
H1340 C1336 0.950 . S
C1341 C1339 1.390 . S
C1341 C1342 1.387 . S
C1341 H1344 0.950 . S
C1342 C1341 1.387 . S
C1342 C1345 1.387 . S
H1343 C1339 0.950 . S
H1344 C1341 0.950 . S
C1345 C1336 1.390 . S
C1345 H1338 0.950 . S
C1345 C1342 1.387 . S
C1346 C1347 1.387 . S
C1346 H1350 0.950 . S
C1346 C1355 1.390 . S
C1347 C1346 1.387 . S
C1347 C1349 1.387 . S
H1348 C1355 0.950 . S
C1349 C1347 1.387 . S
C1349 C1351 1.390 . S
C1349 H1353 0.950 . S
H1350 C1346 0.950 . S
C1351 C1349 1.390 . S
C1351 C1352 1.387 . S
C1351 H1354 0.950 . S
C1352 C1351 1.387 . S
C1352 C1355 1.387 . S
H1353 C1349 0.950 . S
H1354 C1351 0.950 . S
C1355 C1346 1.390 . S
C1355 H1348 0.950 . S
C1355 C1352 1.387 . S
C1356 C1357 1.387 . S
C1356 H1360 0.950 . S
C1356 C1365 1.390 . S
C1357 C1356 1.387 . S
C1357 C1359 1.387 . S
H1358 C1365 0.950 . S
C1359 C1357 1.387 . S
C1359 C1361 1.390 . S
C1359 H1363 0.950 . S
H1360 C1356 0.950 . S
C1361 C1359 1.390 . S
C1361 C1362 1.387 . S
C1361 H1364 0.950 . S
C1362 C1361 1.387 . S
C1362 C1365 1.387 . S
H1363 C1359 0.950 . S
H1364 C1361 0.950 . S
C1365 C1356 1.390 . S
C1365 H1358 0.950 . S
C1365 C1362 1.387 . S
C1366 C1367 1.387 . S
C1366 H1370 0.950 . S
C1366 C1375 1.390 . S
C1367 C1366 1.387 . S
C1367 C1369 1.387 . S
H1368 C1375 0.950 . S
C1369 C1367 1.387 . S
C1369 C1371 1.390 . S
C1369 H1373 0.950 . S
H1370 C1366 0.950 . S
C1371 C1369 1.390 . S
C1371 C1372 1.387 . S
C1371 H1374 0.950 . S
C1372 C1371 1.387 . S
C1372 C1375 1.387 . S
H1373 C1369 0.950 . S
H1374 C1371 0.950 . S
C1375 C1366 1.390 . S
C1375 H1368 0.950 . S
C1375 C1372 1.387 . S
C1376 C1377 1.387 . S
C1376 H1380 0.950 . S
C1376 C1385 1.390 . S
C1377 C1376 1.387 . S
C1377 C1379 1.387 . S
H1378 C1385 0.950 . S
C1379 C1377 1.387 . S
C1379 C1381 1.390 . S
C1379 H1383 0.950 . S
H1380 C1376 0.950 . S
C1381 C1379 1.390 . S
C1381 C1382 1.387 . S
C1381 H1384 0.950 . S
C1382 C1381 1.387 . S
C1382 C1385 1.387 . S
H1383 C1379 0.950 . S
H1384 C1381 0.950 . S
C1385 C1376 1.390 . S
C1385 H1378 0.950 . S
C1385 C1382 1.387 . S
C667 C7 1.442 . S
C672 C568 1.442 . S
C682 C545 1.816 . S
C677 C39 1.794 . S
C692 C554 1.641 1_545 S
C687 C62 1.586 . S
C697 C76 1.846 . S
C702 C624 1.843 . S
C707 C108 1.519 . S
C712 C643 1.516 1_455 S
C717 N117 1.424 . S
C722 C657 1.421 . S
C732 C619 1.438 1_455 S
C727 C16 1.424 . S
C737 C30 1.847 . S
C742 C587 1.849 . S
C752 C605 1.544 . S
C747 C53 1.559 . S
C757 C85 1.831 . S
C762 C507 1.829 . S
C772 C517 1.728 . S
C767 C99 1.713 . S
C777 N127 1.323 . S
C782 C531 1.393 . S
C787 N150 1.175 . S
C792 C652 1.192 . S
C802 C629 1.575 . S
C797 N173 1.556 . S
C812 C638 1.440 . S
C807 C200 1.415 . S
C817 C214 1.668 . S
C822 C456 1.683 . S
C827 N232 1.569 . S
C832 C475 1.583 . S
C837 C260 1.520 . S
C842 C489 1.538 . S
C852 C451 1.303 . S
C847 N140 1.265 . S
C857 N163 1.312 . S
C862 C419 1.345 . S
C872 C437 1.639 . S
C867 C191 1.634 . S
C882 C591 1.937 . S
C877 C223 1.946 . S
C892 C601 1.578 . S
C887 N242 1.501 . S
C902 C615 1.543 . S
C897 C269 1.550 . S
C907 N288 1.354 . S
C912 C484 1.361 . S
C917 C315 1.541 . S
C922 C461 1.574 . S
C927 C338 1.658 . S
C932 C470 1.673 . S
C937 C352 1.852 . S
C942 C540 1.850 . S
C952 C559 1.628 . S
C947 N370 1.624 . S
C962 C573 1.616 . S
C957 C398 1.595 . S
C972 C535 1.246 . S
C967 N278 1.181 . S
C977 C306 1.741 . S
C982 C503 1.748 . S
C987 C329 1.649 . S
C992 C521 1.646 1_655 S
C1002 C423 1.578 . S
C997 C361 1.586 . S
C1007 N380 1.527 . S
C1012 C433 1.595 . S
C1022 C447 1.509 . S
C1017 C407 1.507 . S
C1032 C467 1.429 . S
C1027 N12 1.376 . S
C1037 N25 1.597 . S
C1042 C479 1.599 . S
C1052 C493 1.349 . S
C1047 N48 1.333 1_545 S
C1062 C495 1.346 . S
C1057 N81 1.328 . S
C1072 C465 1.547 . S
C1067 N94 1.508 . S
C1082 C481 1.573 . S
C1077 C131 1.556 . S
C1092 C425 1.420 . S
C1087 N2 1.435 . S
C1097 N35 1.484 . S
C1102 C428 1.522 . S
C1107 N58 1.330 . S
C1112 C442 1.365 . S
C1122 C453 1.298 . S
C1117 N71 1.259 . S
C1132 C414 1.409 . S
C1127 N104 1.384 . S
C1142 C439 1.589 . S
C1137 C122 1.598 . S
C1147 C145 2.004 . S
C1152 C551 2.022 . S
C1157 C168 1.759 . S
C1162 C563 1.761 . S
C1167 N186 1.442 . S
C1172 C577 1.440 . S
C1182 C579 1.369 . S
C1177 N219 1.366 . S
C1192 C549 1.800 1_556 S
C1187 C246 1.780 . S
C1202 C565 1.472 . S
C1197 N265 1.450 . S
C1212 C509 1.907 . S
C1207 C154 1.934 . S
C1217 C177 1.855 . S
C1222 C512 1.841 . S
C1227 N196 1.268 . S
C1232 C526 1.298 . S
C1237 N209 1.152 . S
C1242 C537 1.219 . S
C1247 C237 1.832 . S
C1252 C498 1.816 . S
C1262 C523 1.428 . S
C1257 N255 1.387 . S
C1267 C283 1.772 . S
C1272 C635 1.772 . S
C1277 N301 1.474 . S
C1282 C647 1.471 . S
C1287 N324 1.345 . S
C1292 C661 1.338 . S
C1302 C663 1.187 . S
C1297 N357 1.160 . S
C1312 C633 1.784 . S
C1307 C384 1.775 . S
C1317 N403 1.328 . S
C1322 C649 1.341 . S
C1327 C292 1.873 . S
C1332 C593 1.849 . S
C1342 C596 1.391 . S
C1337 N311 1.357 . S
C1347 N334 1.400 . S
C1352 C610 1.446 . S
C1357 N347 1.316 . S
C1362 C621 1.342 1_554 S
C1372 C582 1.866 . S
C1367 C375 1.883 . S
C1377 N393 1.347 . S
C1382 C607 1.399 1_554 S
