# Generated by pormake.
# Topology pts, (4,4)-cn, num edge types: 1
# Building blocks:
#     Node 0, Type 0, BuildingBlock: KOZSID_clean_sbu_0, # of connection points: 4
#     Node 1, Type 0, BuildingBlock: KOZSID_clean_sbu_0, # of connection points: 4
#     Node 2, Type 1, BuildingBlock: UXUYUI_clean_sbu_0, # of connection points: 4
#     Node 3, Type 1, BuildingBlock: UXUYUI_clean_sbu_0, # of connection points: 4
#     Edge 4, Type (0, 1), BuildingBlock: UVAHIK_clean_linker_0, # of connection points: 2
#     Edge 5, Type (0, 1), BuildingBlock: UVAHIK_clean_linker_0, # of connection points: 2
#     Edge 6, Type (0, 1), BuildingBlock: UVAHIK_clean_linker_0, # of connection points: 2
#     Edge 7, Type (0, 1), BuildingBlock: UVAHIK_clean_linker_0, # of connection points: 2
#     Edge 8, Type (0, 1), BuildingBlock: UVAHIK_clean_linker_0, # of connection points: 2
#     Edge 9, Type (0, 1), BuildingBlock: UVAHIK_clean_linker_0, # of connection points: 2
#     Edge 10, Type (0, 1), BuildingBlock: UVAHIK_clean_linker_0, # of connection points: 2
#     Edge 11, Type (0, 1), BuildingBlock: UVAHIK_clean_linker_0, # of connection points: 2
# Relax obj value: 0.000
# Max RMSD: 0.019
# Mean RMSD: 0.014
data_MOF--net-pts--node1-KOZSID_clean_sbu_0--node2-UXUYUI_clean_sbu_0--edge1-UVAHIK_clean_linker_0
_symmetry_space_group_name_H-M    P1
_symmetry_Int_Tables_number       1
_symmetry_cell_setting            triclinic
loop_
_symmetry_equiv_pos_as_xyz
'x, y, z'
_cell_length_a     40.163274
_cell_length_b     40.148792
_cell_length_c     58.241213
_cell_angle_alpha  87.346283
_cell_angle_beta   92.655911
_cell_angle_gamma 89.995079
loop_
_atom_site_label
_atom_site_type_symbol
_atom_site_fract_x
_atom_site_fract_y
_atom_site_fract_z
_atom_type_partial_charge
C0 C 0.58573 0.07129 0.04104 0.0
C1 C 0.59481 0.10241 0.04865 0.0
C2 C 0.57599 0.12528 0.03576 0.0
C3 C 0.55642 0.10691 0.0212 0.0
N4 N 0.56137 0.07363 0.02412 0.0
Co5 Co 0.53784 0.03784 0.0068 0.0
N6 N 0.51293 0.07168 0.98612 0.0
C7 C 0.5162 0.10522 0.98608 0.0
C8 C 0.4958 0.12197 0.96992 0.0
C9 C 0.47821 0.0977 0.95911 0.0
C10 C 0.48882 0.06746 0.96945 0.0
N11 N 0.51343 0.00205 0.98995 0.0
C12 C 0.48854 0.00449 0.97339 0.0
C13 C 0.47701 0.97334 0.96737 0.0
C14 C 0.49504 0.95039 0.98072 0.0
C15 C 0.51635 0.96874 0.99413 0.0
N16 N 0.56371 0.00401 0.02693 0.0
C17 C 0.56195 0.97043 0.02599 0.0
C18 C 0.58415 0.95365 0.04087 0.0
C19 C 0.60154 0.97792 0.0518 0.0
C20 C 0.58867 0.00827 0.04303 0.0
N21 N 0.50152 0.0379 0.02896 0.0
C22 C 0.44775 0.03735 0.05843 0.0
C23 C 0.46637 0.00855 0.05586 0.0
C24 C 0.49274 0.00928 0.04098 0.0
C25 C 0.45679 0.06656 0.04643 0.0
C26 C 0.48381 0.06641 0.03217 0.0
N27 N 0.57412 0.03777 0.98469 0.0
C28 C 0.61303 0.00783 0.96267 0.0
C29 C 0.62847 0.03753 0.95556 0.0
C30 C 0.61559 0.0674 0.96289 0.0
C31 C 0.58872 0.06695 0.97731 0.0
C32 C 0.58607 0.00852 0.977 0.0
H33 H 0.58041 0.09055 0.98243 0.0
H34 H 0.57562 0.98502 0.98189 0.0
H35 H 0.50532 0.98625 0.03931 0.0
H36 H 0.48967 0.08965 0.02381 0.0
C37 C 0.53588 0.12026 0.00306 0.0
C38 C 0.6018 0.04041 0.04989 0.0
C39 C 0.47411 0.03561 0.96358 0.0
C40 C 0.5393 0.95544 0.0108 0.0
H41 H 0.61362 0.10803 0.06181 0.0
H42 H 0.57725 0.15216 0.0364 0.0
H43 H 0.49316 0.14867 0.96694 0.0
H44 H 0.45908 0.1018 0.94556 0.0
H45 H 0.45724 0.96778 0.95488 0.0
H46 H 0.49259 0.92353 0.98086 0.0
H47 H 0.58766 0.92696 0.04322 0.0
H48 H 0.62178 0.97366 0.0645 0.0
H49 H 0.46007 0.98533 0.06484 0.0
H50 H 0.44318 0.08954 0.04818 0.0
H51 H 0.62212 0.98395 0.95768 0.0
H52 H 0.6261 0.09118 0.95751 0.0
C53 C 0.07122 0.49118 0.54422 0.0
C54 C 0.10239 0.48231 0.55391 0.0
C55 C 0.12518 0.50075 0.54223 0.0
C56 C 0.10673 0.51998 0.52629 0.0
N57 N 0.07347 0.51518 0.52719 0.0
Co58 Co 0.03762 0.53874 0.50755 0.0
N59 N 0.07135 0.56353 0.48897 0.0
C60 C 0.10489 0.5601 0.49101 0.0
C61 C 0.12156 0.58028 0.47581 0.0
C62 C 0.09727 0.59794 0.46345 0.0
C63 C 0.06707 0.58763 0.472 0.0
N64 N 0.00177 0.56316 0.48835 0.0
C65 C 0.00411 0.58816 0.47199 0.0
C66 C 0.9729 0.59984 0.46411 0.0
C67 C 0.95004 0.58172 0.47593 0.0
C68 C 0.96848 0.56025 0.4904 0.0
N69 N 0.00389 0.51305 0.52563 0.0
C70 C 0.97033 0.51481 0.52248 0.0
C71 C 0.95359 0.49257 0.53622 0.0
C72 C 0.97787 0.47518 0.54875 0.0
C73 C 0.0082 0.48814 0.54207 0.0
N74 N 0.03762 0.57517 0.52959 0.0
C75 C 0.03697 0.62948 0.5586 0.0
C76 C 0.00804 0.61129 0.55393 0.0
C77 C 0.00885 0.5846 0.53936 0.0
C78 C 0.06637 0.61961 0.549 0.0
C79 C 0.06623 0.5924 0.53489 0.0
N80 N 0.0376 0.50233 0.48552 0.0
C81 C 0.00764 0.46325 0.46183 0.0
C82 C 0.03737 0.44798 0.45646 0.0
C83 C 0.06725 0.46086 0.46548 0.0
C84 C 0.0668 0.48773 0.47989 0.0
C85 C 0.00834 0.49029 0.47612 0.0
H86 H 0.09039 0.49592 0.48651 0.0
H87 H 0.98484 0.50084 0.47947 0.0
H88 H 0.98577 0.57229 0.53604 0.0
H89 H 0.08956 0.58601 0.52833 0.0
C90 C 0.12 0.54037 0.50893 0.0
C91 C 0.0404 0.47524 0.55126 0.0
C92 C 0.03521 0.60256 0.46415 0.0
C93 C 0.95528 0.53738 0.50626 0.0
H94 H 0.10811 0.4639 0.56769 0.0
H95 H 0.15205 0.49957 0.54463 0.0
H96 H 0.14825 0.58271 0.47442 0.0
H97 H 0.10135 0.6169 0.45005 0.0
H98 H 0.96717 0.61981 0.45144 0.0
H99 H 0.92319 0.58429 0.47445 0.0
H100 H 0.92692 0.48898 0.53675 0.0
H101 H 0.97356 0.45487 0.56109 0.0
H102 H 0.98465 0.61817 0.56098 0.0
H103 H 0.0895 0.63274 0.55246 0.0
H104 H 0.98387 0.45448 0.45494 0.0
H105 H 0.09093 0.44973 0.46192 0.0
Li106 Li 0.03571 0.06496 0.27234 0.0
Li107 Li 0.0332 0.00381 0.27301 0.0
Li108 Li 0.06416 0.03647 0.24218 0.0
Li109 Li 0.00241 0.03524 0.24148 0.0
C110 C 0.09572 0.04568 0.29168 0.0
N111 N 0.14018 0.07293 0.32317 0.0
C112 C 0.09574 0.03517 0.31488 0.0
C113 C 0.11868 0.06961 0.28441 0.0
C114 C 0.1183 0.04937 0.33056 0.0
C115 C 0.14086 0.08321 0.30061 0.0
C116 C 0.97245 0.02095 0.28858 0.0
C117 C 0.93023 0.97907 0.29432 0.0
N118 N 0.92585 0.99004 0.31572 0.0
C119 C 0.9673 0.03205 0.31053 0.0
C120 C 0.95357 0.99446 0.28031 0.0
C121 C 0.94371 0.016 0.32403 0.0
C122 C 0.03534 0.13403 0.2811 0.0
N123 N 0.03683 0.10285 0.29125 0.0
C124 C 0.03911 0.12545 0.32862 0.0
C125 C 0.03844 0.09813 0.31456 0.0
C126 C 0.03816 0.15796 0.31858 0.0
C127 C 0.03626 0.16204 0.29448 0.0
H128 H 0.03306 0.13726 0.2626 0.0
H129 H 0.03903 0.07312 0.32226 0.0
C130 C 0.04102 0.93455 0.28321 0.0
N131 N 0.03355 0.96398 0.29242 0.0
C132 C 0.04123 0.90489 0.29676 0.0
C133 C 0.02654 0.93639 0.32918 0.0
C134 C 0.02671 0.96543 0.315 0.0
C135 C 0.03381 0.90549 0.3201 0.0
H136 H 0.04702 0.93412 0.26532 0.0
H137 H 0.02143 0.98918 0.32206 0.0
C138 C 0.04275 0.09805 0.22261 0.0
N139 N 0.06448 0.1448 0.19036 0.0
C140 C 0.02506 0.10325 0.20151 0.0
C141 C 0.0713 0.11689 0.2274 0.0
C142 C 0.03649 0.12694 0.18541 0.0
C143 C 0.08194 0.14032 0.21085 0.0
C144 C 0.02321 0.9766 0.22256 0.0
C145 C 0.03688 0.97893 0.20091 0.0
C146 C 0.9988 0.95266 0.22705 0.0
C147 C 0.02535 0.95773 0.18393 0.0
C148 C 0.98793 0.93193 0.20962 0.0
N149 N 1.00129 0.9349 0.18859 0.0
C150 C 0.13094 0.02157 0.23343 0.0
C151 C 0.10191 0.05016 0.2021 0.0
C152 C 0.15992 0.02076 0.22103 0.0
N153 N 0.10277 0.03636 0.22391 0.0
C154 C 0.13048 0.05058 0.18931 0.0
C155 C 0.15991 0.03574 0.19878 0.0
H156 H 0.13089 0.01039 0.25068 0.0
H157 H 0.07902 0.0606 0.19447 0.0
C158 C 0.93334 0.04496 0.23126 0.0
N159 N 0.96252 0.03666 0.22201 0.0
C160 C 0.90365 0.04603 0.21775 0.0
C161 C 0.93458 0.03068 0.18524 0.0
C162 C 0.96367 0.03006 0.19936 0.0
C163 C 0.90398 0.03863 0.19441 0.0
H164 H 0.93309 0.05081 0.24918 0.0
H165 H 0.98725 0.02481 0.19212 0.0
O166 O 0.07355 0.03234 0.27612 0.0
O167 O 0.99574 0.03607 0.27522 0.0
O168 O 0.03205 0.07472 0.23848 0.0
O169 O 0.03422 0.99718 0.23939 0.0
H170 H 0.07831 0.01648 0.32077 0.0
H171 H 0.1195 0.07749 0.26645 0.0
H172 H 0.11841 0.04167 0.34861 0.0
H173 H 0.15867 0.10188 0.29524 0.0
H174 H 0.91554 0.95845 0.28815 0.0
H175 H 0.98143 0.05273 0.31713 0.0
H176 H 0.95679 0.98602 0.26322 0.0
H177 H 0.9396 0.0242 0.3411 0.0
H178 H 0.04068 0.12117 0.34713 0.0
H179 H 0.03482 0.18665 0.28603 0.0
H180 H 0.04762 0.88182 0.28909 0.0
H181 H 0.02042 0.93812 0.34699 0.0
H182 H 0.00278 0.08912 0.19758 0.0
H183 H 0.08506 0.11348 0.24371 0.0
H184 H 0.02311 0.13112 0.16898 0.0
H185 H 0.10406 0.15497 0.21429 0.0
H186 H 0.05595 0.99709 0.19717 0.0
H187 H 0.98853 0.9499 0.24385 0.0
H188 H 0.03554 0.95944 0.16704 0.0
H189 H 0.96896 0.91339 0.21284 0.0
H190 H 0.18222 0.00903 0.22884 0.0
H191 H 0.12944 0.06187 0.17203 0.0
H192 H 0.88063 0.05218 0.22557 0.0
H193 H 0.93613 0.02555 0.16723 0.0
Li194 Li 0.01155 0.04207 0.77129 0.0
Li195 Li 0.07325 0.04128 0.77243 0.0
Li196 Li 0.04133 0.07511 0.74258 0.0
Li197 Li 0.04198 0.01462 0.74097 0.0
C198 C 0.0273 0.1083 0.78189 0.0
N199 N 0.99561 0.16641 0.7923 0.0
C200 C 0.04384 0.13138 0.79555 0.0
C201 C 0.99464 0.11476 0.77352 0.0
C202 C 0.02739 0.16062 0.80062 0.0
C203 C 0.97905 0.14428 0.77897 0.0
C204 C 0.0493 0.97573 0.78806 0.0
C205 C 0.07527 0.9217 0.79438 0.0
N206 N 0.06408 0.91976 0.81609 0.0
C207 C 0.03767 0.97298 0.81031 0.0
C208 C 0.06792 0.94971 0.77991 0.0
C209 C 0.04558 0.94458 0.82427 0.0
C210 C 0.94385 0.03015 0.78049 0.0
N211 N 0.97373 0.03967 0.78991 0.0
C212 C 0.94952 0.04745 0.82602 0.0
C213 C 0.97707 0.04824 0.8122 0.0
C214 C 0.91814 0.03794 0.81678 0.0
C215 C 0.91559 0.02917 0.79365 0.0
H216 H 0.94194 0.02358 0.76269 0.0
H217 H 1.00118 0.05574 0.81923 0.0
C218 C 0.14056 0.05534 0.78442 0.0
N219 N 0.11273 0.04021 0.79228 0.0
C220 C 0.17013 0.055 0.79804 0.0
C221 C 0.14167 0.02452 0.82798 0.0
C222 C 0.11266 0.02538 0.81374 0.0
C223 C 0.17104 0.03932 0.82015 0.0
H224 H 0.13985 0.0676 0.76748 0.0
H225 H 0.09003 0.0145 0.81995 0.0
C226 C 0.99186 0.04742 0.71443 0.0
N227 N 0.97082 0.0521 0.66855 0.0
C228 C 0.01517 0.05015 0.69735 0.0
C229 C 0.95786 0.04719 0.70818 0.0
C230 C 0.00403 0.05244 0.67425 0.0
C231 C 0.94771 0.04956 0.68489 0.0
C232 C 0.10823 0.03252 0.7304 0.0
C233 C 0.12124 0.04615 0.7102 0.0
C234 C 0.1238 0.00494 0.74181 0.0
C235 C 0.14954 0.03176 0.70166 0.0
C236 C 0.15207 0.99129 0.73274 0.0
N237 N 0.16424 0.00485 0.71301 0.0
C238 C 0.07113 0.1291 0.71859 0.0
C239 C 0.01212 0.13153 0.71781 0.0
C240 C 0.07233 0.15863 0.70498 0.0
N241 N 0.04134 0.11613 0.7246 0.0
C242 C 0.01217 0.16137 0.70447 0.0
C243 C 0.04256 0.17518 0.69779 0.0
H244 H 0.09399 0.11643 0.72435 0.0
H245 H 0.98873 0.12056 0.72263 0.0
C246 C 0.01841 0.95226 0.72731 0.0
N247 N 0.04024 0.97695 0.72182 0.0
C248 C 0.01641 0.92358 0.71457 0.0
C249 C 0.05927 0.9463 0.69068 0.0
C250 C 0.06003 0.97474 0.70361 0.0
C251 C 0.03738 0.92022 0.69618 0.0
H252 H 0.00276 0.95475 0.74177 0.0
H253 H 0.07643 0.99495 0.699 0.0
O254 O 0.04315 0.07961 0.77677 0.0
O255 O 0.04144 0.00322 0.77408 0.0
O256 O 0.00208 0.04531 0.7372 0.0
O257 O 0.08038 0.04622 0.73884 0.0
H258 H 0.06914 0.12672 0.80214 0.0
H259 H 0.98148 0.09723 0.76287 0.0
H260 H 0.03989 0.17872 0.81117 0.0
H261 H 0.9538 0.1496 0.77259 0.0
H262 H 0.08976 0.90144 0.78832 0.0
H263 H 0.02295 0.99271 0.81682 0.0
H264 H 0.07639 0.95091 0.76254 0.0
H265 H 0.03696 0.94227 0.8416 0.0
H266 H 0.9529 0.05393 0.84382 0.0
H267 H 0.89192 0.02217 0.78563 0.0
H268 H 0.19214 0.06656 0.79117 0.0
H269 H 0.14093 0.01281 0.84508 0.0
H270 H 0.04156 0.05063 0.7018 0.0
H271 H 0.93948 0.04528 0.72119 0.0
H272 H 0.0218 0.05455 0.66086 0.0
H273 H 0.92146 0.04941 0.6798 0.0
H274 H 0.1094 0.06741 0.70109 0.0
H275 H 0.11437 0.99442 0.75761 0.0
H276 H 0.15979 0.04196 0.68599 0.0
H277 H 0.16438 0.96996 0.74142 0.0
H278 H 0.09627 0.16865 0.70035 0.0
H279 H 0.98868 0.1732 0.69909 0.0
H280 H 0.99922 0.90394 0.71934 0.0
H281 H 0.07541 0.94485 0.67636 0.0
C282 C 0.38741 0.04783 0.06416 0.0
C283 C 0.4187 0.03686 0.0732 0.0
C284 C 0.35983 0.04723 0.07796 0.0
C285 C 0.33031 0.01214 0.13421 0.0
H286 H 0.26128 0.07884 0.12199 0.0
C287 C 0.20666 0.00591 0.18139 0.0
C288 C 0.19036 0.03585 0.18538 0.0
C289 C 0.23471 0.00597 0.16799 0.0
C290 C 0.28048 0.06028 0.12599 0.0
H291 H 0.44601 0.01712 0.1037 0.0
H292 H 0.39841 0.0176 0.12824 0.0
H293 H 0.30995 0.08004 0.09905 0.0
H294 H 0.19097 0.08938 0.17925 0.0
H295 H 0.24083 0.08993 0.15696 0.0
H296 H 0.30177 0.99364 0.16208 0.0
C297 C 0.39459 0.02555 0.1103 0.0
C298 C 0.30829 0.06055 0.11242 0.0
C299 C 0.42202 0.02547 0.09632 0.0
C300 C 0.20296 0.06593 0.17618 0.0
C301 C 0.23142 0.06611 0.16323 0.0
C302 C 0.30281 0.01228 0.14811 0.0
C303 C 0.363 0.03634 0.10132 0.0
C304 C 0.33356 0.03635 0.11617 0.0
C305 C 0.24756 0.0361 0.15869 0.0
C306 C 0.27733 0.03624 0.14414 0.0
H307 H 0.38418 0.05637 0.04627 0.0
H308 H 0.33594 0.05496 0.07013 0.0
H309 H 0.34883 0.99272 0.13755 0.0
H310 H 0.19718 0.98235 0.18816 0.0
H311 H 0.24583 0.98225 0.1646 0.0
C312 C 0.05602 0.41541 0.56001 0.0
C313 C 0.04195 0.44502 0.56708 0.0
C314 C 0.05713 0.38679 0.57467 0.0
C315 C 0.01504 0.34626 0.62271 0.0
H316 H 0.0962 0.29422 0.63242 0.0
C317 C 0.02405 0.23418 0.6886 0.0
C318 C 0.04318 0.20654 0.68327 0.0
C319 C 0.02458 0.2637 0.67489 0.0
C320 C 0.07314 0.3081 0.62967 0.0
H321 H 0.01871 0.46847 0.59498 0.0
H322 H 0.01988 0.4181 0.62054 0.0
H323 H 0.09588 0.34468 0.60744 0.0
H324 H 0.07744 0.1879 0.65924 0.0
H325 H 0.07764 0.2389 0.63487 0.0
H326 H 0.99187 0.30941 0.64426 0.0
C327 C 0.02997 0.41699 0.60367 0.0
C328 C 0.07306 0.33713 0.61542 0.0
C329 C 0.02933 0.44573 0.58913 0.0
C330 C 0.06276 0.20897 0.66391 0.0
C331 C 0.06295 0.23832 0.65001 0.0
C332 C 0.01496 0.317 0.63671 0.0
C333 C 0.04383 0.38721 0.59657 0.0
C334 C 0.04403 0.35653 0.61183 0.0
C335 C 0.04391 0.26617 0.65531 0.0
C336 C 0.04403 0.29749 0.64043 0.0
H337 H 0.06591 0.4144 0.54307 0.0
H338 H 0.06777 0.36414 0.56871 0.0
H339 H 0.99218 0.36052 0.62001 0.0
H340 H 0.00902 0.23313 0.70359 0.0
H341 H 0.01009 0.28472 0.67985 0.0
C342 C 0.66238 0.05336 0.05614 0.0
C343 C 0.63248 0.0418 0.06508 0.0
C344 C 0.69153 0.054 0.07021 0.0
C345 C 0.72218 0.05168 0.13142 0.0
H346 H 0.80549 0.02593 0.10612 0.0
C347 C 0.84905 0.06489 0.18136 0.0
C348 C 0.87268 0.03939 0.17969 0.0
C349 C 0.81971 0.06566 0.16742 0.0
C350 C 0.78242 0.03293 0.11354 0.0
H351 H 0.609 0.02244 0.09556 0.0
H352 H 0.66005 0.02285 0.12021 0.0
H353 H 0.75433 0.02606 0.08201 0.0
H354 H 0.88368 0.99433 0.16233 0.0
H355 H 0.83244 0.99546 0.13818 0.0
H356 H 0.75014 0.05764 0.16314 0.0
C357 C 0.66109 0.03184 0.10245 0.0
C358 C 0.75311 0.03344 0.0996 0.0
C359 C 0.63193 0.03135 0.08837 0.0
C360 C 0.86623 0.01461 0.1638 0.0
C361 C 0.83685 0.01529 0.14993 0.0
C362 C 0.75149 0.05109 0.14538 0.0
C363 C 0.69133 0.04301 0.09352 0.0
C364 C 0.72259 0.0428 0.10835 0.0
C365 C 0.81322 0.04087 0.15152 0.0
C366 C 0.782 0.04167 0.13663 0.0
H367 H 0.66318 0.06171 0.03821 0.0
H368 H 0.71418 0.06328 0.06283 0.0
H369 H 0.69922 0.05937 0.13868 0.0
H370 H 0.85347 0.08463 0.19318 0.0
H371 H 0.80236 0.08602 0.16886 0.0
C372 C 0.02182 0.65713 0.59448 0.0
C373 C 0.03644 0.65895 0.57303 0.0
C374 C 0.02174 0.68491 0.60814 0.0
C375 C 0.06253 0.76782 0.61478 0.0
H376 H 0.98875 0.78242 0.65372 0.0
C377 C 0.06657 0.87305 0.67887 0.0
C378 C 0.03676 0.88959 0.68288 0.0
C379 C 0.06624 0.84441 0.66611 0.0
C380 C 0.00941 0.77905 0.64275 0.0
H381 H 0.06157 0.6914 0.5487 0.0
H382 H 0.06036 0.74021 0.57195 0.0
H383 H 0.98798 0.73464 0.62962 0.0
H384 H 0.98323 0.88939 0.6766 0.0
H385 H 0.98258 0.84017 0.65351 0.0
H386 H 0.08314 0.81309 0.62693 0.0
C387 C 0.04999 0.71712 0.57877 0.0
C388 C 0.00924 0.75119 0.62916 0.0
C389 C 0.05055 0.68919 0.56533 0.0
C390 C 0.00655 0.87691 0.67391 0.0
C391 C 0.00623 0.84857 0.66078 0.0
C392 C 0.06246 0.79591 0.62808 0.0
C393 C 0.0358 0.71537 0.60047 0.0
C394 C 0.03584 0.74511 0.615 0.0
C395 C 0.03611 0.8319 0.65665 0.0
C396 C 0.03597 0.80191 0.64236 0.0
H397 H 0.011 0.63399 0.60089 0.0
H398 H 0.01112 0.68227 0.62487 0.0
H399 H 0.08378 0.76386 0.60446 0.0
H400 H 0.09018 0.88208 0.68587 0.0
H401 H 0.0897 0.83196 0.66386 0.0
C402 C 0.44416 0.02716 0.92559 0.0
C403 C 0.44309 0.03509 0.94873 0.0
C404 C 0.41488 0.02717 0.9116 0.0
C405 C 0.32322 0.02176 0.91408 0.0
H406 H 0.32359 0.06035 0.85181 0.0
C407 C 0.21124 0.00999 0.84878 0.0
C408 C 0.20235 0.03855 0.83495 0.0
C409 C 0.24069 0.00924 0.86261 0.0
C410 C 0.32302 0.04964 0.8692 0.0
H411 H 0.41133 0.0494 0.97558 0.0
H412 H 0.35995 0.04956 0.95117 0.0
H413 H 0.37475 0.05994 0.87614 0.0
H414 H 0.21737 0.08897 0.82521 0.0
H415 H 0.26877 0.08754 0.84919 0.0
H416 H 0.27139 0.0119 0.90727 0.0
C417 C 0.38319 0.04295 0.94382 0.0
C418 C 0.35243 0.04908 0.88306 0.0
C419 C 0.41249 0.04305 0.95775 0.0
C420 C 0.22368 0.06634 0.83532 0.0
C421 C 0.25316 0.06555 0.84909 0.0
C422 C 0.29385 0.02218 0.90019 0.0
C423 C 0.38403 0.03506 0.92056 0.0
C424 C 0.35286 0.03523 0.9057 0.0
C425 C 0.26203 0.037 0.86291 0.0
C426 C 0.29337 0.03622 0.87761 0.0
H427 H 0.46765 0.02101 0.91839 0.0
H428 H 0.41635 0.02066 0.89384 0.0
H429 H 0.32277 0.01062 0.93136 0.0
H430 H 0.19572 0.98794 0.84867 0.0
H431 H 0.24701 0.98668 0.8728 0.0
C432 C 0.01431 0.39248 0.44553 0.0
C433 C 0.03718 0.41848 0.44193 0.0
C434 C 0.01455 0.36436 0.43224 0.0
C435 C 0.06807 0.31827 0.39396 0.0
H436 H 0.9847 0.27598 0.37592 0.0
C437 C 0.0587 0.21519 0.32763 0.0
C438 C 0.03869 0.18747 0.33309 0.0
C439 C 0.05885 0.24318 0.34107 0.0
C440 C 0.00821 0.28734 0.381 0.0
H441 H 0.0778 0.43565 0.42124 0.0
H442 H 0.07782 0.38696 0.3977 0.0
H443 H 0.98406 0.32552 0.39857 0.0
H444 H 0.00297 0.1675 0.35686 0.0
H445 H 0.0032 0.21643 0.38034 0.0
H446 H 0.09209 0.28028 0.376 0.0
C447 C 0.06019 0.38784 0.41118 0.0
C448 C 0.00788 0.31572 0.39404 0.0
C449 C 0.06013 0.41584 0.42461 0.0
C450 C 0.01886 0.18835 0.35232 0.0
C451 C 0.01875 0.21648 0.36563 0.0
C452 C 0.06836 0.29005 0.38075 0.0
C453 C 0.03749 0.36163 0.41487 0.0
C454 C 0.03781 0.33155 0.40076 0.0
C455 C 0.03874 0.24422 0.36014 0.0
C456 C 0.03844 0.27422 0.37417 0.0
H457 H 0.99665 0.39355 0.45898 0.0
H458 H 0.99709 0.34448 0.4359 0.0
H459 H 0.09166 0.32935 0.39913 0.0
H460 H 0.07445 0.21515 0.31302 0.0
H461 H 0.07433 0.26424 0.33631 0.0
C462 C 0.68438 0.05994 0.94458 0.0
C463 C 0.65806 0.03738 0.94099 0.0
C464 C 0.71229 0.0597 0.9311 0.0
C465 C 0.7416 0.03048 0.87586 0.0
H466 H 0.82904 0.04636 0.90428 0.0
C467 C 0.86379 0.01256 0.82871 0.0
C468 C 0.88826 0.03743 0.8311 0.0
C469 C 0.83568 0.01226 0.84204 0.0
C470 C 0.80476 0.04217 0.89604 0.0
H471 H 0.64055 0.99702 0.92007 0.0
H472 H 0.68962 0.99589 0.89707 0.0
H473 H 0.78023 0.04607 0.92763 0.0
H474 H 0.90181 0.0818 0.84928 0.0
H475 H 0.85309 0.08089 0.87273 0.0
H476 H 0.76637 0.0262 0.84431 0.0
C477 C 0.68846 0.01418 0.91011 0.0
C478 C 0.77672 0.04208 0.90942 0.0
C479 C 0.66045 0.01453 0.92353 0.0
C480 C 0.88387 0.0619 0.84724 0.0
C481 C 0.85588 0.06145 0.86067 0.0
C482 C 0.7697 0.03035 0.86252 0.0
C483 C 0.71478 0.03675 0.91372 0.0
C484 C 0.74472 0.03638 0.89949 0.0
C485 C 0.83143 0.03666 0.85821 0.0
C486 C 0.80159 0.03633 0.87244 0.0
H487 H 0.6837 0.07761 0.95805 0.0
H488 H 0.73181 0.07776 0.93422 0.0
H489 H 0.71736 0.02653 0.86752 0.0
H490 H 0.86655 0.99298 0.81676 0.0
H491 H 0.81751 0.99257 0.83995 0.0
C492 C 0.046 0.66363 0.45807 0.0
C493 C 0.03469 0.63358 0.44918 0.0
C494 C 0.04596 0.69285 0.44404 0.0
C495 C 0.00739 0.7315 0.39044 0.0
H496 H 0.08283 0.79157 0.39425 0.0
C497 C 0.02133 0.84432 0.32617 0.0
C498 C 0.03384 0.87417 0.33489 0.0
C499 C 0.02145 0.8149 0.34002 0.0
C500 C 0.06137 0.7753 0.39316 0.0
H501 H 0.01492 0.60998 0.41885 0.0
H502 H 0.01474 0.66113 0.39414 0.0
H503 H 0.08297 0.74047 0.41855 0.0
H504 H 0.05661 0.8962 0.36509 0.0
H505 H 0.05604 0.84518 0.38937 0.0
H506 H 0.98566 0.76639 0.36516 0.0
C507 C 0.02327 0.66231 0.412 0.0
C508 C 0.06148 0.74596 0.40709 0.0
C509 C 0.02345 0.63306 0.42604 0.0
C510 C 0.04643 0.87381 0.35785 0.0
C511 C 0.0465 0.8444 0.3717 0.0
C512 C 0.00723 0.76089 0.37655 0.0
C513 C 0.03456 0.69257 0.42083 0.0
C514 C 0.03448 0.72371 0.40591 0.0
C515 C 0.03404 0.81455 0.36297 0.0
C516 C 0.03421 0.78319 0.37773 0.0
H517 H 0.05479 0.66445 0.47591 0.0
H518 H 0.05446 0.71577 0.45145 0.0
H519 H 0.98598 0.71515 0.38934 0.0
H520 H 0.01109 0.84371 0.30866 0.0
H521 H 0.01198 0.79232 0.33262 0.0
loop_
_geom_bond_atom_site_label_1
_geom_bond_atom_site_label_2
_geom_bond_distance
_geom_bond_site_symmetry_2
_ccdc_geom_bond_type
C0 C1 1.443 . S
C0 N4 1.376 . S
C0 C38 1.389 . S
C1 C0 1.443 . S
C1 C2 1.340 . S
C1 H41 0.951 . S
C2 C1 1.340 . S
C2 C3 1.439 . S
C2 H42 0.950 . S
C3 C2 1.439 . S
C3 N4 1.374 . S
C3 C37 1.392 1_554 S
N4 C0 1.376 . S
N4 C3 1.374 . S
N4 Co5 2.008 . S
Co5 N4 2.008 . S
Co5 N6 1.995 1_554 S
Co5 N11 2.008 1_554 S
Co5 N16 1.995 . S
Co5 N21 2.282 . S
Co5 N27 2.282 1_554 S
N6 Co5 1.995 1_556 S
N6 C7 1.376 . S
N6 C10 1.383 . S
C7 N6 1.376 . S
C7 C8 1.446 . S
C7 C37 1.394 . S
C8 C7 1.446 . S
C8 C9 1.339 . S
C8 H43 0.949 . S
C9 C8 1.339 . S
C9 C10 1.439 . S
C9 H44 0.950 . S
C10 N6 1.383 . S
C10 C9 1.439 . S
C10 C39 1.392 . S
N11 Co5 2.008 1_556 S
N11 C12 1.376 . S
N11 C15 1.374 1_545 S
C12 N11 1.376 . S
C12 C13 1.443 1_545 S
C12 C39 1.389 . S
C13 C12 1.443 1_565 S
C13 C14 1.340 . S
C13 H45 0.951 . S
C14 C13 1.340 . S
C14 C15 1.439 . S
C14 H46 0.950 . S
C15 N11 1.374 1_565 S
C15 C14 1.439 . S
C15 C40 1.395 1_556 S
N16 Co5 1.995 . S
N16 C17 1.376 1_545 S
N16 C20 1.383 . S
C17 N16 1.376 1_565 S
C17 C18 1.446 . S
C17 C40 1.391 . S
C18 C17 1.446 . S
C18 C19 1.339 . S
C18 H47 0.949 . S
C19 C18 1.339 . S
C19 C20 1.439 1_565 S
C19 H48 0.950 . S
C20 N16 1.383 . S
C20 C19 1.439 1_545 S
C20 C38 1.392 . S
N21 Co5 2.282 . S
N21 C24 1.332 . S
N21 C26 1.332 . S
C22 C23 1.386 . S
C22 C25 1.388 . S
C23 C22 1.386 . S
C23 C24 1.382 . S
C23 H49 0.950 1_545 S
C24 N21 1.332 . S
C24 C23 1.382 . S
C24 H35 0.952 1_545 S
C25 C22 1.388 . S
C25 C26 1.382 . S
C25 H50 0.950 . S
C26 N21 1.332 . S
C26 C25 1.382 . S
C26 H36 0.948 . S
N27 Co5 2.282 1_556 S
N27 C31 1.332 . S
N27 C32 1.332 . S
C28 C29 1.388 . S
C28 C32 1.382 . S
C28 H51 0.950 1_545 S
C29 C28 1.388 . S
C29 C30 1.386 . S
C30 C29 1.386 . S
C30 C31 1.382 . S
C30 H52 0.950 . S
C31 N27 1.332 . S
C31 C30 1.382 . S
C31 H33 0.952 . S
C32 N27 1.332 . S
C32 C28 1.382 . S
C32 H34 0.948 1_545 S
H33 C31 0.952 . S
H34 C32 0.948 1_565 S
H35 C24 0.952 1_565 S
H36 C26 0.948 . S
C37 C3 1.392 1_556 S
C37 C7 1.394 . S
C38 C0 1.389 . S
C38 C20 1.392 . S
C39 C10 1.392 . S
C39 C12 1.389 . S
C40 C15 1.395 1_554 S
C40 C17 1.391 . S
H41 C1 0.951 . S
H42 C2 0.950 . S
H43 C8 0.949 . S
H44 C9 0.950 . S
H45 C13 0.951 . S
H46 C14 0.950 . S
H47 C18 0.949 . S
H48 C19 0.950 . S
H49 C23 0.950 1_565 S
H50 C25 0.950 . S
H51 C28 0.950 1_565 S
H52 C30 0.950 . S
C53 C54 1.443 . S
C53 N57 1.376 . S
C53 C91 1.389 . S
C54 C53 1.443 . S
C54 C55 1.340 . S
C54 H94 0.951 . S
C55 C54 1.340 . S
C55 C56 1.439 . S
C55 H95 0.950 . S
C56 C55 1.439 . S
C56 N57 1.374 . S
C56 C90 1.395 . S
N57 C53 1.376 . S
N57 C56 1.374 . S
N57 Co58 2.008 . S
Co58 N57 2.008 . S
Co58 N59 1.995 . S
Co58 N64 2.014 . S
Co58 N69 1.995 . S
Co58 N74 2.282 . S
Co58 N80 2.282 . S
N59 Co58 1.995 . S
N59 C60 1.376 . S
N59 C63 1.383 . S
C60 N59 1.376 . S
C60 C61 1.446 . S
C60 C90 1.391 . S
C61 C60 1.446 . S
C61 C62 1.339 . S
C61 H96 0.949 . S
C62 C61 1.339 . S
C62 C63 1.439 . S
C62 H97 0.950 . S
C63 N59 1.383 . S
C63 C62 1.439 . S
C63 C92 1.392 . S
N64 Co58 2.014 . S
N64 C65 1.378 . S
N64 C68 1.366 1_455 S
C65 N64 1.378 . S
C65 C66 1.443 1_455 S
C65 C92 1.389 . S
C66 C65 1.443 1_655 S
C66 C67 1.340 . S
C66 H98 0.951 . S
C67 C66 1.340 . S
C67 C68 1.439 . S
C67 H99 0.950 . S
C68 N64 1.366 1_655 S
C68 C67 1.439 . S
C68 C93 1.395 . S
N69 Co58 1.995 . S
N69 C70 1.376 1_455 S
N69 C73 1.383 . S
C70 N69 1.376 1_655 S
C70 C71 1.446 . S
C70 C93 1.391 . S
C71 C70 1.446 . S
C71 C72 1.339 . S
C71 H100 0.949 . S
C72 C71 1.339 . S
C72 C73 1.439 1_655 S
C72 H101 0.950 . S
C73 N69 1.383 . S
C73 C72 1.439 1_455 S
C73 C91 1.392 . S
N74 Co58 2.282 . S
N74 C77 1.332 . S
N74 C79 1.332 . S
C75 C76 1.386 . S
C75 C78 1.388 . S
C76 C75 1.386 . S
C76 C77 1.382 . S
C76 H102 0.950 1_455 S
C77 N74 1.332 . S
C77 C76 1.382 . S
C77 H88 0.952 1_455 S
C78 C75 1.388 . S
C78 C79 1.382 . S
C78 H103 0.950 . S
C79 N74 1.332 . S
C79 C78 1.382 . S
C79 H89 0.948 . S
N80 Co58 2.282 . S
N80 C84 1.332 . S
N80 C85 1.332 . S
C81 C82 1.388 . S
C81 C85 1.382 . S
C81 H104 0.950 1_455 S
C82 C81 1.388 . S
C82 C83 1.386 . S
C83 C82 1.386 . S
C83 C84 1.382 . S
C83 H105 0.950 . S
C84 N80 1.332 . S
C84 C83 1.382 . S
C84 H86 0.952 . S
C85 N80 1.332 . S
C85 C81 1.382 . S
C85 H87 0.948 1_455 S
H86 C84 0.952 . S
H87 C85 0.948 1_655 S
H88 C77 0.952 1_655 S
H89 C79 0.948 . S
C90 C56 1.395 . S
C90 C60 1.391 . S
C91 C53 1.389 . S
C91 C73 1.392 . S
C92 C63 1.392 . S
C92 C65 1.389 . S
C93 C68 1.395 . S
C93 C70 1.391 . S
H94 C54 0.951 . S
H95 C55 0.950 . S
H96 C61 0.949 . S
H97 C62 0.950 . S
H98 C66 0.951 . S
H99 C67 0.950 . S
H100 C71 0.949 . S
H101 C72 0.950 . S
H102 C76 0.950 1_655 S
H103 C78 0.950 . S
H104 C81 0.950 1_655 S
H105 C83 0.950 . S
Li106 N123 1.990 . S
Li106 O166 1.956 . S
Li106 O167 1.970 1_455 S
Li106 O168 1.961 . S
Li107 N131 1.990 . S
Li107 O166 1.970 1_565 S
Li107 O167 1.956 1_465 S
Li107 O169 1.961 . S
Li108 N153 1.990 . S
Li108 O166 1.961 . S
Li108 O168 1.956 . S
Li108 O169 1.970 1_545 S
Li109 N159 1.990 . S
Li109 O167 1.961 . S
Li109 O168 1.970 1_655 S
Li109 O169 1.956 1_645 S
C110 C112 1.348 . S
C110 C113 1.356 . S
C110 O166 1.325 . S
N111 C114 1.314 . S
N111 C115 1.279 . S
C112 C110 1.348 . S
C112 C114 1.353 . S
C112 H170 0.929 1_545 S
C113 C110 1.356 . S
C113 C115 1.358 . S
C113 H171 0.930 . S
C114 N111 1.314 . S
C114 C112 1.353 . S
C114 H172 0.930 1_545 S
C115 N111 1.279 . S
C115 C113 1.358 . S
C115 H173 0.930 . S
C116 C119 1.348 . S
C116 C120 1.356 . S
C116 O167 1.325 . S
C117 N118 1.279 . S
C117 C120 1.358 . S
C117 H174 0.930 1_545 S
N118 C117 1.279 . S
N118 C121 1.314 . S
C119 C116 1.348 . S
C119 C121 1.353 . S
C119 H175 0.929 . S
C120 C116 1.356 . S
C120 C117 1.358 . S
C120 H176 0.930 1_545 S
C121 N118 1.314 . S
C121 C119 1.353 . S
C121 H177 0.930 . S
C122 N123 1.314 . S
C122 C127 1.353 . S
C122 H128 0.926 1_455 S
N123 Li106 1.990 . S
N123 C122 1.314 . S
N123 C125 1.279 . S
C124 C125 1.358 . S
C124 C126 1.356 . S
C124 H178 0.930 . S
C125 N123 1.279 . S
C125 C124 1.358 . S
C125 H129 0.930 . S
C126 C124 1.356 . S
C126 C127 1.348 . S
C127 C122 1.353 . S
C127 C126 1.348 . S
C127 H179 0.929 1_455 S
H128 C122 0.926 1_655 S
H129 C125 0.930 . S
C130 N131 1.314 . S
C130 C132 1.353 . S
C130 H136 0.930 . S
N131 Li107 1.990 . S
N131 C130 1.314 . S
N131 C134 1.279 . S
C132 C130 1.353 . S
C132 C135 1.348 . S
C132 H180 0.929 . S
C133 C134 1.358 . S
C133 C135 1.356 . S
C133 H181 0.930 1_455 S
C134 N131 1.279 . S
C134 C133 1.358 . S
C134 H137 0.930 1_455 S
C135 C132 1.348 . S
C135 C133 1.356 . S
H136 C130 0.930 . S
H137 C134 0.930 1_655 S
C138 C140 1.348 . S
C138 C141 1.356 . S
C138 O168 1.325 . S
N139 C142 1.314 . S
N139 C143 1.279 . S
C140 C138 1.348 . S
C140 C142 1.353 . S
C140 H182 0.929 1_455 S
C141 C138 1.356 . S
C141 C143 1.358 . S
C141 H183 0.930 . S
C142 N139 1.314 . S
C142 C140 1.353 . S
C142 H184 0.930 1_455 S
C143 N139 1.279 . S
C143 C141 1.358 . S
C143 H185 0.930 . S
C144 C145 1.348 . S
C144 C146 1.356 . S
C144 O169 1.325 . S
C145 C144 1.348 . S
C145 C147 1.353 . S
C145 H186 0.929 . S
C146 C144 1.356 . S
C146 C148 1.358 . S
C146 H187 0.930 1_455 S
C147 C145 1.353 . S
C147 N149 1.314 . S
C147 H188 0.930 . S
C148 C146 1.358 . S
C148 N149 1.279 . S
C148 H189 0.930 1_455 S
N149 C147 1.314 . S
N149 C148 1.279 . S
C150 C152 1.353 . S
C150 N153 1.314 . S
C150 H156 0.926 1_545 S
C151 N153 1.279 . S
C151 C154 1.358 . S
C151 H157 0.930 . S
C152 C150 1.353 . S
C152 C155 1.348 . S
C152 H190 0.929 1_545 S
N153 Li108 1.990 . S
N153 C150 1.314 . S
N153 C151 1.279 . S
C154 C151 1.358 . S
C154 C155 1.356 . S
C154 H191 0.930 . S
C155 C152 1.348 . S
C155 C154 1.356 . S
H156 C150 0.926 1_565 S
H157 C151 0.930 . S
C158 N159 1.314 . S
C158 C160 1.353 . S
C158 H164 0.930 . S
N159 Li109 1.990 . S
N159 C158 1.314 . S
N159 C162 1.279 . S
C160 C158 1.353 . S
C160 C163 1.348 . S
C160 H192 0.929 . S
C161 C162 1.358 . S
C161 C163 1.356 . S
C161 H193 0.930 1_545 S
C162 N159 1.279 . S
C162 C161 1.358 . S
C162 H165 0.930 1_545 S
C163 C160 1.348 . S
C163 C161 1.356 . S
H164 C158 0.930 . S
H165 C162 0.930 1_565 S
O166 Li106 1.956 . S
O166 Li107 1.970 1_545 S
O166 Li108 1.961 . S
O166 C110 1.325 . S
O167 Li106 1.970 1_655 S
O167 Li107 1.956 1_645 S
O167 Li109 1.961 . S
O167 C116 1.325 . S
O168 Li106 1.961 . S
O168 Li108 1.956 . S
O168 Li109 1.970 1_455 S
O168 C138 1.325 . S
O169 Li107 1.961 . S
O169 Li108 1.970 1_565 S
O169 Li109 1.956 1_465 S
O169 C144 1.325 . S
H170 C112 0.929 1_565 S
H171 C113 0.930 . S
H172 C114 0.930 1_565 S
H173 C115 0.930 . S
H174 C117 0.930 1_565 S
H175 C119 0.929 . S
H176 C120 0.930 1_565 S
H177 C121 0.930 . S
H178 C124 0.930 . S
H179 C127 0.929 1_655 S
H180 C132 0.929 . S
H181 C133 0.930 1_655 S
H182 C140 0.929 1_655 S
H183 C141 0.930 . S
H184 C142 0.930 1_655 S
H185 C143 0.930 . S
H186 C145 0.929 . S
H187 C146 0.930 1_655 S
H188 C147 0.930 . S
H189 C148 0.930 1_655 S
H190 C152 0.929 1_565 S
H191 C154 0.930 . S
H192 C160 0.929 . S
H193 C161 0.930 1_565 S
Li194 N211 1.990 1_455 S
Li194 O254 1.956 . S
Li194 O255 1.970 . S
Li194 O256 1.961 . S
Li195 N219 1.990 . S
Li195 O254 1.970 . S
Li195 O255 1.956 . S
Li195 O257 1.961 . S
Li196 N241 1.990 . S
Li196 O254 1.961 . S
Li196 O256 1.956 . S
Li196 O257 1.970 . S
Li197 N247 1.990 1_545 S
Li197 O255 1.961 . S
Li197 O256 1.970 . S
Li197 O257 1.956 . S
C198 C200 1.348 . S
C198 C201 1.356 . S
C198 O254 1.325 . S
N199 C202 1.314 . S
N199 C203 1.279 . S
C200 C198 1.348 . S
C200 C202 1.353 . S
C200 H258 0.929 . S
C201 C198 1.356 . S
C201 C203 1.358 . S
C201 H259 0.930 . S
C202 N199 1.314 . S
C202 C200 1.353 . S
C202 H260 0.930 . S
C203 N199 1.279 . S
C203 C201 1.358 . S
C203 H261 0.930 . S
C204 C207 1.348 . S
C204 C208 1.356 . S
C204 O255 1.325 1_565 S
C205 N206 1.279 . S
C205 C208 1.358 . S
C205 H262 0.930 . S
N206 C205 1.279 . S
N206 C209 1.314 . S
C207 C204 1.348 . S
C207 C209 1.353 . S
C207 H263 0.929 . S
C208 C204 1.356 . S
C208 C205 1.358 . S
C208 H264 0.930 . S
C209 N206 1.314 . S
C209 C207 1.353 . S
C209 H265 0.930 . S
C210 N211 1.314 . S
C210 C215 1.353 . S
C210 H216 0.930 . S
N211 Li194 1.990 1_655 S
N211 C210 1.314 . S
N211 C213 1.279 . S
C212 C213 1.358 . S
C212 C214 1.356 . S
C212 H266 0.930 . S
C213 N211 1.279 . S
C213 C212 1.358 . S
C213 H217 0.930 . S
C214 C212 1.356 . S
C214 C215 1.348 . S
C215 C210 1.353 . S
C215 C214 1.348 . S
C215 H267 0.929 . S
H216 C210 0.930 . S
H217 C213 0.930 . S
C218 N219 1.314 . S
C218 C220 1.353 . S
C218 H224 0.930 . S
N219 Li195 1.990 . S
N219 C218 1.314 . S
N219 C222 1.279 . S
C220 C218 1.353 . S
C220 C223 1.348 . S
C220 H268 0.929 . S
C221 C222 1.358 . S
C221 C223 1.356 . S
C221 H269 0.930 . S
C222 N219 1.279 . S
C222 C221 1.358 . S
C222 H225 0.930 . S
C223 C220 1.348 . S
C223 C221 1.356 . S
H224 C218 0.930 . S
H225 C222 0.930 . S
C226 C228 1.348 . S
C226 C229 1.356 . S
C226 O256 1.325 1_655 S
N227 C230 1.314 . S
N227 C231 1.279 . S
C228 C226 1.348 . S
C228 C230 1.353 . S
C228 H270 0.929 . S
C229 C226 1.356 . S
C229 C231 1.358 . S
C229 H271 0.930 . S
C230 N227 1.314 . S
C230 C228 1.353 . S
C230 H272 0.930 . S
C231 N227 1.279 . S
C231 C229 1.358 . S
C231 H273 0.930 . S
C232 C233 1.348 . S
C232 C234 1.356 . S
C232 O257 1.325 . S
C233 C232 1.348 . S
C233 C235 1.353 . S
C233 H274 0.929 . S
C234 C232 1.356 . S
C234 C236 1.358 . S
C234 H275 0.930 . S
C235 C233 1.353 . S
C235 N237 1.314 . S
C235 H276 0.930 . S
C236 C234 1.358 . S
C236 N237 1.279 . S
C236 H277 0.930 . S
N237 C235 1.314 . S
N237 C236 1.279 . S
C238 C240 1.353 . S
C238 N241 1.314 . S
C238 H244 0.930 . S
C239 N241 1.279 . S
C239 C242 1.358 . S
C239 H245 0.930 . S
C240 C238 1.353 . S
C240 C243 1.348 . S
C240 H278 0.929 . S
N241 Li196 1.990 . S
N241 C238 1.314 . S
N241 C239 1.279 . S
C242 C239 1.358 . S
C242 C243 1.356 . S
C242 H279 0.930 . S
C243 C240 1.348 . S
C243 C242 1.356 . S
H244 C238 0.930 . S
H245 C239 0.930 . S
C246 N247 1.314 . S
C246 C248 1.353 . S
C246 H252 0.930 . S
N247 Li197 1.990 1_565 S
N247 C246 1.314 . S
N247 C250 1.279 . S
C248 C246 1.353 . S
C248 C251 1.348 . S
C248 H280 0.929 . S
C249 C250 1.358 . S
C249 C251 1.356 . S
C249 H281 0.930 . S
C250 N247 1.279 . S
C250 C249 1.358 . S
C250 H253 0.930 . S
C251 C248 1.348 . S
C251 C249 1.356 . S
H252 C246 0.930 . S
H253 C250 0.930 . S
O254 Li194 1.956 . S
O254 Li195 1.970 . S
O254 Li196 1.961 . S
O254 C198 1.325 . S
O255 Li194 1.970 . S
O255 Li195 1.956 . S
O255 Li197 1.961 . S
O255 C204 1.325 1_545 S
O256 Li194 1.961 . S
O256 Li196 1.956 . S
O256 Li197 1.970 . S
O256 C226 1.325 1_455 S
O257 Li195 1.961 . S
O257 Li196 1.970 . S
O257 Li197 1.956 . S
O257 C232 1.325 . S
H258 C200 0.929 . S
H259 C201 0.930 . S
H260 C202 0.930 . S
H261 C203 0.930 . S
H262 C205 0.930 . S
H263 C207 0.929 . S
H264 C208 0.930 . S
H265 C209 0.930 . S
H266 C212 0.930 . S
H267 C215 0.929 . S
H268 C220 0.929 . S
H269 C221 0.930 . S
H270 C228 0.929 . S
H271 C229 0.930 . S
H272 C230 0.930 . S
H273 C231 0.930 . S
H274 C233 0.929 . S
H275 C234 0.930 . S
H276 C235 0.930 . S
H277 C236 0.930 . S
H278 C240 0.929 . S
H279 C242 0.930 . S
H280 C248 0.929 . S
H281 C249 0.930 . S
C282 C283 1.349 . S
C282 C284 1.327 . S
C282 H307 0.950 . S
C283 C282 1.349 . S
C283 C299 1.349 . S
C284 C282 1.327 . S
C284 C303 1.429 . S
C284 H308 0.950 . S
C285 C302 1.574 . S
C285 C304 1.368 . S
C285 H309 0.949 1_545 S
H286 C290 0.949 . S
C287 C288 1.349 . S
C287 C289 1.327 . S
C287 H310 0.950 1_545 S
C288 C287 1.349 . S
C288 C300 1.349 . S
C289 C287 1.327 . S
C289 C305 1.429 . S
C289 H311 0.950 1_545 S
C290 H286 0.949 . S
C290 C298 1.574 . S
C290 C306 1.368 . S
H291 C299 0.950 1_565 S
H292 C297 0.950 1_565 S
H293 C298 0.949 . S
H294 C300 0.950 . S
H295 C301 0.950 . S
H296 C302 0.949 1_565 S
C297 H292 0.950 1_545 S
C297 C299 1.327 . S
C297 C303 1.429 . S
C298 C290 1.574 . S
C298 H293 0.949 . S
C298 C304 1.368 . S
C299 C283 1.349 . S
C299 H291 0.950 1_545 S
C299 C297 1.327 . S
C300 C288 1.349 . S
C300 H294 0.950 . S
C300 C301 1.327 . S
C301 H295 0.950 . S
C301 C300 1.327 . S
C301 C305 1.429 . S
C302 C285 1.574 . S
C302 H296 0.949 1_545 S
C302 C306 1.368 . S
C303 C284 1.429 . S
C303 C297 1.429 . S
C303 C304 1.523 . S
C304 C285 1.368 . S
C304 C298 1.368 . S
C304 C303 1.523 . S
C305 C289 1.429 . S
C305 C301 1.429 . S
C305 C306 1.523 . S
C306 C290 1.368 . S
C306 C302 1.368 . S
C306 C305 1.523 . S
H307 C282 0.950 . S
H308 C284 0.950 . S
H309 C285 0.949 1_565 S
H310 C287 0.950 1_565 S
H311 C289 0.950 1_565 S
C312 C313 1.349 . S
C312 C314 1.327 . S
C312 H337 0.950 . S
C313 C312 1.349 . S
C313 C329 1.349 . S
C314 C312 1.327 . S
C314 C333 1.429 . S
C314 H338 0.950 . S
C315 C332 1.574 . S
C315 C334 1.368 . S
C315 H339 0.949 1_455 S
H316 C320 0.949 . S
C317 C318 1.349 . S
C317 C319 1.327 . S
C317 H340 0.950 1_455 S
C318 C317 1.349 . S
C318 C330 1.349 . S
C319 C317 1.327 . S
C319 C335 1.429 . S
C319 H341 0.950 1_455 S
C320 H316 0.949 . S
C320 C328 1.574 . S
C320 C336 1.368 . S
H321 C329 0.950 1_655 S
H322 C327 0.950 1_655 S
H323 C328 0.949 . S
H324 C330 0.950 . S
H325 C331 0.950 . S
H326 C332 0.949 1_655 S
C327 H322 0.950 1_455 S
C327 C329 1.327 . S
C327 C333 1.429 . S
C328 C320 1.574 . S
C328 H323 0.949 . S
C328 C334 1.368 . S
C329 C313 1.349 . S
C329 H321 0.950 1_455 S
C329 C327 1.327 . S
C330 C318 1.349 . S
C330 H324 0.950 . S
C330 C331 1.327 . S
C331 H325 0.950 . S
C331 C330 1.327 . S
C331 C335 1.429 . S
C332 C315 1.574 . S
C332 H326 0.949 1_455 S
C332 C336 1.368 . S
C333 C314 1.429 . S
C333 C327 1.429 . S
C333 C334 1.523 . S
C334 C315 1.368 . S
C334 C328 1.368 . S
C334 C333 1.523 . S
C335 C319 1.429 . S
C335 C331 1.429 . S
C335 C336 1.523 . S
C336 C320 1.368 . S
C336 C332 1.368 . S
C336 C335 1.523 . S
H337 C312 0.950 . S
H338 C314 0.950 . S
H339 C315 0.949 1_655 S
H340 C317 0.950 1_655 S
H341 C319 0.950 1_655 S
C342 C343 1.349 . S
C342 C344 1.327 . S
C342 H367 0.950 1_545 S
C343 C342 1.349 . S
C343 C359 1.349 . S
C344 C342 1.327 . S
C344 C363 1.429 . S
C344 H368 0.950 1_545 S
C345 C362 1.574 . S
C345 C364 1.368 . S
C345 H369 0.949 . S
H346 C350 0.949 1_565 S
C347 C348 1.349 . S
C347 C349 1.327 . S
C347 H370 0.950 . S
C348 C347 1.349 . S
C348 C360 1.349 . S
C349 C347 1.327 . S
C349 C365 1.429 . S
C349 H371 0.950 . S
C350 H346 0.949 1_545 S
C350 C358 1.574 . S
C350 C366 1.368 . S
H351 C359 0.950 . S
H352 C357 0.950 . S
H353 C358 0.949 1_565 S
H354 C360 0.950 1_565 S
H355 C361 0.950 1_565 S
H356 C362 0.949 . S
C357 H352 0.950 . S
C357 C359 1.327 . S
C357 C363 1.429 . S
C358 C350 1.574 . S
C358 H353 0.949 1_545 S
C358 C364 1.368 . S
C359 C343 1.349 . S
C359 H351 0.950 . S
C359 C357 1.327 . S
C360 C348 1.349 . S
C360 H354 0.950 1_545 S
C360 C361 1.327 . S
C361 H355 0.950 1_545 S
C361 C360 1.327 . S
C361 C365 1.429 . S
C362 C345 1.574 . S
C362 H356 0.949 . S
C362 C366 1.368 . S
C363 C344 1.429 . S
C363 C357 1.429 . S
C363 C364 1.523 . S
C364 C345 1.368 . S
C364 C358 1.368 . S
C364 C363 1.523 . S
C365 C349 1.429 . S
C365 C361 1.429 . S
C365 C366 1.523 . S
C366 C350 1.368 . S
C366 C362 1.368 . S
C366 C365 1.523 . S
H367 C342 0.950 1_565 S
H368 C344 0.950 1_565 S
H369 C345 0.949 . S
H370 C347 0.950 . S
H371 C349 0.950 . S
C372 C373 1.349 . S
C372 C374 1.327 . S
C372 H397 0.950 1_455 S
C373 C372 1.349 . S
C373 C389 1.349 . S
C374 C372 1.327 . S
C374 C393 1.429 . S
C374 H398 0.950 1_455 S
C375 C392 1.574 . S
C375 C394 1.368 . S
C375 H399 0.949 . S
H376 C380 0.949 1_655 S
C377 C378 1.349 . S
C377 C379 1.327 . S
C377 H400 0.950 . S
C378 C377 1.349 . S
C378 C390 1.349 . S
C379 C377 1.327 . S
C379 C395 1.429 . S
C379 H401 0.950 . S
C380 H376 0.949 1_455 S
C380 C388 1.574 . S
C380 C396 1.368 . S
H381 C389 0.950 . S
H382 C387 0.950 . S
H383 C388 0.949 1_655 S
H384 C390 0.936 1_655 S
H385 C391 0.950 1_655 S
H386 C392 0.949 . S
C387 H382 0.950 . S
C387 C389 1.327 . S
C387 C393 1.429 . S
C388 C380 1.574 . S
C388 H383 0.949 1_455 S
C388 C394 1.368 . S
C389 C373 1.349 . S
C389 H381 0.950 . S
C389 C387 1.327 . S
C390 C378 1.349 . S
C390 H384 0.936 1_455 S
C390 C391 1.327 . S
C391 H385 0.950 1_455 S
C391 C390 1.327 . S
C391 C395 1.429 . S
C392 C375 1.574 . S
C392 H386 0.949 . S
C392 C396 1.368 . S
C393 C374 1.429 . S
C393 C387 1.429 . S
C393 C394 1.523 . S
C394 C375 1.368 . S
C394 C388 1.368 . S
C394 C393 1.523 . S
C395 C379 1.429 . S
C395 C391 1.429 . S
C395 C396 1.523 . S
C396 C380 1.368 . S
C396 C392 1.368 . S
C396 C395 1.523 . S
H397 C372 0.950 1_655 S
H398 C374 0.950 1_655 S
H399 C375 0.949 . S
H400 C377 0.950 . S
H401 C379 0.950 . S
C402 C403 1.349 . S
C402 C404 1.327 . S
C402 H427 0.950 . S
C403 C402 1.349 . S
C403 C419 1.349 . S
C404 C402 1.327 . S
C404 C423 1.429 . S
C404 H428 0.950 . S
C405 C422 1.574 . S
C405 C424 1.368 . S
C405 H429 0.949 1_545 S
H406 C410 0.949 . S
C407 C408 1.349 . S
C407 C409 1.327 . S
C407 H430 0.950 . S
C408 C407 1.349 . S
C408 C420 1.349 . S
C409 C407 1.327 . S
C409 C425 1.429 . S
C409 H431 0.966 . S
C410 H406 0.949 . S
C410 C418 1.574 . S
C410 C426 1.368 . S
H411 C419 0.950 1_565 S
H412 C417 0.950 1_565 S
H413 C418 0.949 . S
H414 C420 0.950 . S
H415 C421 0.950 . S
H416 C422 0.940 1_565 S
C417 H412 0.950 1_545 S
C417 C419 1.327 . S
C417 C423 1.429 . S
C418 C410 1.574 . S
C418 H413 0.949 . S
C418 C424 1.368 . S
C419 C403 1.349 . S
C419 H411 0.950 1_545 S
C419 C417 1.327 . S
C420 C408 1.349 . S
C420 H414 0.950 . S
C420 C421 1.327 . S
C421 H415 0.950 . S
C421 C420 1.327 . S
C421 C425 1.429 . S
C422 C405 1.574 . S
C422 H416 0.940 1_545 S
C422 C426 1.368 . S
C423 C404 1.429 . S
C423 C417 1.429 . S
C423 C424 1.523 . S
C424 C405 1.368 . S
C424 C418 1.368 . S
C424 C423 1.523 . S
C425 C409 1.429 . S
C425 C421 1.429 . S
C425 C426 1.523 . S
C426 C410 1.368 . S
C426 C422 1.368 . S
C426 C425 1.523 . S
H427 C402 0.950 . S
H428 C404 0.950 . S
H429 C405 0.949 1_565 S
H430 C407 0.950 . S
H431 C409 0.966 . S
C432 C433 1.349 . S
C432 C434 1.327 . S
C432 H457 0.950 . S
C433 C432 1.349 . S
C433 C449 1.349 . S
C434 C432 1.327 . S
C434 C453 1.429 . S
C434 H458 0.940 1_455 S
C435 C452 1.574 . S
C435 C454 1.368 . S
C435 H459 0.949 . S
H436 C440 0.949 1_655 S
C437 C438 1.349 . S
C437 C439 1.327 . S
C437 H460 0.950 . S
C438 C437 1.349 . S
C438 C450 1.349 . S
C439 C437 1.327 . S
C439 C455 1.429 . S
C439 H461 0.950 . S
C440 H436 0.949 1_455 S
C440 C448 1.574 . S
C440 C456 1.368 . S
H441 C449 0.950 . S
H442 C447 0.950 . S
H443 C448 0.949 1_655 S
H444 C450 0.950 1_655 S
H445 C451 0.950 1_655 S
H446 C452 0.949 . S
C447 H442 0.950 . S
C447 C449 1.327 . S
C447 C453 1.429 . S
C448 C440 1.574 . S
C448 H443 0.949 1_455 S
C448 C454 1.368 . S
C449 C433 1.349 . S
C449 H441 0.950 . S
C449 C447 1.327 . S
C450 C438 1.349 . S
C450 H444 0.950 1_455 S
C450 C451 1.327 . S
C451 H445 0.950 1_455 S
C451 C450 1.327 . S
C451 C455 1.429 . S
C452 C435 1.574 . S
C452 H446 0.949 . S
C452 C456 1.368 . S
C453 C434 1.429 . S
C453 C447 1.429 . S
C453 C454 1.523 . S
C454 C435 1.368 . S
C454 C448 1.368 . S
C454 C453 1.523 . S
C455 C439 1.429 . S
C455 C451 1.429 . S
C455 C456 1.523 . S
C456 C440 1.368 . S
C456 C452 1.368 . S
C456 C455 1.523 . S
H457 C432 0.950 . S
H458 C434 0.940 1_655 S
H459 C435 0.949 . S
H460 C437 0.950 . S
H461 C439 0.950 . S
C462 C463 1.349 . S
C462 C464 1.327 . S
C462 H487 0.950 . S
C463 C462 1.349 . S
C463 C479 1.349 . S
C464 C462 1.327 . S
C464 C483 1.429 . S
C464 H488 0.950 . S
C465 C482 1.574 . S
C465 C484 1.368 . S
C465 H489 0.949 1_545 S
H466 C470 0.949 . S
C467 C468 1.349 . S
C467 C469 1.327 . S
C467 H490 0.950 . S
C468 C467 1.349 . S
C468 C480 1.349 . S
C469 C467 1.327 . S
C469 C485 1.429 . S
C469 H491 0.961 . S
C470 H466 0.949 . S
C470 C478 1.574 . S
C470 C486 1.368 . S
H471 C479 0.950 1_565 S
H472 C477 0.950 1_565 S
H473 C478 0.949 . S
H474 C480 0.950 . S
H475 C481 0.950 . S
H476 C482 0.942 1_565 S
C477 H472 0.950 1_545 S
C477 C479 1.327 . S
C477 C483 1.429 . S
C478 C470 1.574 . S
C478 H473 0.949 . S
C478 C484 1.368 . S
C479 C463 1.349 . S
C479 H471 0.950 1_545 S
C479 C477 1.327 . S
C480 C468 1.349 . S
C480 H474 0.950 . S
C480 C481 1.327 . S
C481 H475 0.950 . S
C481 C480 1.327 . S
C481 C485 1.429 . S
C482 C465 1.574 . S
C482 H476 0.942 1_545 S
C482 C486 1.368 . S
C483 C464 1.429 . S
C483 C477 1.429 . S
C483 C484 1.523 . S
C484 C465 1.368 . S
C484 C478 1.368 . S
C484 C483 1.523 . S
C485 C469 1.429 . S
C485 C481 1.429 . S
C485 C486 1.523 . S
C486 C470 1.368 . S
C486 C482 1.368 . S
C486 C485 1.523 . S
H487 C462 0.950 . S
H488 C464 0.950 . S
H489 C465 0.949 1_565 S
H490 C467 0.950 . S
H491 C469 0.961 . S
C492 C493 1.349 . S
C492 C494 1.327 . S
C492 H517 0.950 . S
C493 C492 1.349 . S
C493 C509 1.349 . S
C494 C492 1.327 . S
C494 C513 1.429 . S
C494 H518 0.950 . S
C495 C512 1.574 . S
C495 C514 1.368 . S
C495 H519 0.949 . S
H496 C500 0.949 . S
C497 C498 1.349 . S
C497 C499 1.327 . S
C497 H520 0.950 . S
C498 C497 1.349 . S
C498 C510 1.349 . S
C499 C497 1.327 . S
C499 C515 1.429 . S
C499 H521 0.950 . S
C500 H496 0.949 . S
C500 C508 1.574 . S
C500 C516 1.368 . S
H501 C509 0.950 . S
H502 C507 0.950 . S
H503 C508 0.949 . S
H504 C510 0.950 . S
H505 C511 0.950 . S
H506 C512 0.949 . S
C507 H502 0.950 . S
C507 C509 1.327 . S
C507 C513 1.429 . S
C508 C500 1.574 . S
C508 H503 0.949 . S
C508 C514 1.368 . S
C509 C493 1.349 . S
C509 H501 0.950 . S
C509 C507 1.327 . S
C510 C498 1.349 . S
C510 H504 0.950 . S
C510 C511 1.327 . S
C511 H505 0.950 . S
C511 C510 1.327 . S
C511 C515 1.429 . S
C512 C495 1.574 . S
C512 H506 0.949 . S
C512 C516 1.368 . S
C513 C494 1.429 . S
C513 C507 1.429 . S
C513 C514 1.523 . S
C514 C495 1.368 . S
C514 C508 1.368 . S
C514 C513 1.523 . S
C515 C499 1.429 . S
C515 C511 1.429 . S
C515 C516 1.523 . S
C516 C500 1.368 . S
C516 C512 1.368 . S
C516 C515 1.523 . S
H517 C492 0.950 . S
H518 C494 0.950 . S
H519 C495 0.949 . S
H520 C497 0.950 . S
H521 C499 0.950 . S
C288 C155 1.490 . S
C283 C22 1.490 . S
C318 C243 1.487 . S
C313 C91 1.487 . S
C348 C163 1.487 . S
C343 C38 1.487 . S
C378 C251 1.490 . S
C373 C75 1.490 . S
C408 C223 1.487 . S
C403 C39 1.487 . S
C438 C126 1.490 . S
C433 C82 1.490 . S
C468 C214 1.490 . S
C463 C29 1.490 . S
C493 C92 1.487 . S
C498 C135 1.487 . S
