# Generated by pormake.
# Topology gar, (4,6)-cn, num edge types: 1
# Building blocks:
#     Node 0, Type 0, BuildingBlock: CEKHIL_clean_sbu_0, # of connection points: 4
#     Node 1, Type 0, BuildingBlock: CEKHIL_clean_sbu_0, # of connection points: 4
#     Node 2, Type 0, BuildingBlock: CEKHIL_clean_sbu_0, # of connection points: 4
#     Node 3, Type 0, BuildingBlock: CEKHIL_clean_sbu_0, # of connection points: 4
#     Node 4, Type 0, BuildingBlock: CEKHIL_clean_sbu_0, # of connection points: 4
#     Node 5, Type 0, BuildingBlock: CEKHIL_clean_sbu_0, # of connection points: 4
#     Node 6, Type 0, BuildingBlock: CEKHIL_clean_sbu_0, # of connection points: 4
#     Node 7, Type 0, BuildingBlock: CEKHIL_clean_sbu_0, # of connection points: 4
#     Node 8, Type 0, BuildingBlock: CEKHIL_clean_sbu_0, # of connection points: 4
#     Node 9, Type 0, BuildingBlock: CEKHIL_clean_sbu_0, # of connection points: 4
#     Node 10, Type 0, BuildingBlock: CEKHIL_clean_sbu_0, # of connection points: 4
#     Node 11, Type 0, BuildingBlock: CEKHIL_clean_sbu_0, # of connection points: 4
#     Node 12, Type 0, BuildingBlock: CEKHIL_clean_sbu_0, # of connection points: 4
#     Node 13, Type 0, BuildingBlock: CEKHIL_clean_sbu_0, # of connection points: 4
#     Node 14, Type 0, BuildingBlock: CEKHIL_clean_sbu_0, # of connection points: 4
#     Node 15, Type 0, BuildingBlock: CEKHIL_clean_sbu_0, # of connection points: 4
#     Node 16, Type 0, BuildingBlock: CEKHIL_clean_sbu_0, # of connection points: 4
#     Node 17, Type 0, BuildingBlock: CEKHIL_clean_sbu_0, # of connection points: 4
#     Node 18, Type 0, BuildingBlock: CEKHIL_clean_sbu_0, # of connection points: 4
#     Node 19, Type 0, BuildingBlock: CEKHIL_clean_sbu_0, # of connection points: 4
#     Node 20, Type 0, BuildingBlock: CEKHIL_clean_sbu_0, # of connection points: 4
#     Node 21, Type 0, BuildingBlock: CEKHIL_clean_sbu_0, # of connection points: 4
#     Node 22, Type 0, BuildingBlock: CEKHIL_clean_sbu_0, # of connection points: 4
#     Node 23, Type 0, BuildingBlock: CEKHIL_clean_sbu_0, # of connection points: 4
#     Node 24, Type 1, BuildingBlock: KUMBUR_clean_sbu_1, # of connection points: 6
#     Node 25, Type 1, BuildingBlock: KUMBUR_clean_sbu_1, # of connection points: 6
#     Node 26, Type 1, BuildingBlock: KUMBUR_clean_sbu_1, # of connection points: 6
#     Node 27, Type 1, BuildingBlock: KUMBUR_clean_sbu_1, # of connection points: 6
#     Node 28, Type 1, BuildingBlock: KUMBUR_clean_sbu_1, # of connection points: 6
#     Node 29, Type 1, BuildingBlock: KUMBUR_clean_sbu_1, # of connection points: 6
#     Node 30, Type 1, BuildingBlock: KUMBUR_clean_sbu_1, # of connection points: 6
#     Node 31, Type 1, BuildingBlock: KUMBUR_clean_sbu_1, # of connection points: 6
#     Node 32, Type 1, BuildingBlock: KUMBUR_clean_sbu_1, # of connection points: 6
#     Node 33, Type 1, BuildingBlock: KUMBUR_clean_sbu_1, # of connection points: 6
#     Node 34, Type 1, BuildingBlock: KUMBUR_clean_sbu_1, # of connection points: 6
#     Node 35, Type 1, BuildingBlock: KUMBUR_clean_sbu_1, # of connection points: 6
#     Node 36, Type 1, BuildingBlock: KUMBUR_clean_sbu_1, # of connection points: 6
#     Node 37, Type 1, BuildingBlock: KUMBUR_clean_sbu_1, # of connection points: 6
#     Node 38, Type 1, BuildingBlock: KUMBUR_clean_sbu_1, # of connection points: 6
#     Node 39, Type 1, BuildingBlock: KUMBUR_clean_sbu_1, # of connection points: 6
#     Edge 40, Type (0, 1), BuildingBlock: UVAHIK_clean_linker_0, # of connection points: 2
#     Edge 41, Type (0, 1), BuildingBlock: UVAHIK_clean_linker_0, # of connection points: 2
#     Edge 42, Type (0, 1), BuildingBlock: UVAHIK_clean_linker_0, # of connection points: 2
#     Edge 43, Type (0, 1), BuildingBlock: UVAHIK_clean_linker_0, # of connection points: 2
#     Edge 44, Type (0, 1), BuildingBlock: UVAHIK_clean_linker_0, # of connection points: 2
#     Edge 45, Type (0, 1), BuildingBlock: UVAHIK_clean_linker_0, # of connection points: 2
#     Edge 46, Type (0, 1), BuildingBlock: UVAHIK_clean_linker_0, # of connection points: 2
#     Edge 47, Type (0, 1), BuildingBlock: UVAHIK_clean_linker_0, # of connection points: 2
#     Edge 48, Type (0, 1), BuildingBlock: UVAHIK_clean_linker_0, # of connection points: 2
#     Edge 49, Type (0, 1), BuildingBlock: UVAHIK_clean_linker_0, # of connection points: 2
#     Edge 50, Type (0, 1), BuildingBlock: UVAHIK_clean_linker_0, # of connection points: 2
#     Edge 51, Type (0, 1), BuildingBlock: UVAHIK_clean_linker_0, # of connection points: 2
#     Edge 52, Type (0, 1), BuildingBlock: UVAHIK_clean_linker_0, # of connection points: 2
#     Edge 53, Type (0, 1), BuildingBlock: UVAHIK_clean_linker_0, # of connection points: 2
#     Edge 54, Type (0, 1), BuildingBlock: UVAHIK_clean_linker_0, # of connection points: 2
#     Edge 55, Type (0, 1), BuildingBlock: UVAHIK_clean_linker_0, # of connection points: 2
#     Edge 56, Type (0, 1), BuildingBlock: UVAHIK_clean_linker_0, # of connection points: 2
#     Edge 57, Type (0, 1), BuildingBlock: UVAHIK_clean_linker_0, # of connection points: 2
#     Edge 58, Type (0, 1), BuildingBlock: UVAHIK_clean_linker_0, # of connection points: 2
#     Edge 59, Type (0, 1), BuildingBlock: UVAHIK_clean_linker_0, # of connection points: 2
#     Edge 60, Type (0, 1), BuildingBlock: UVAHIK_clean_linker_0, # of connection points: 2
#     Edge 61, Type (0, 1), BuildingBlock: UVAHIK_clean_linker_0, # of connection points: 2
#     Edge 62, Type (0, 1), BuildingBlock: UVAHIK_clean_linker_0, # of connection points: 2
#     Edge 63, Type (0, 1), BuildingBlock: UVAHIK_clean_linker_0, # of connection points: 2
#     Edge 64, Type (0, 1), BuildingBlock: UVAHIK_clean_linker_0, # of connection points: 2
#     Edge 65, Type (0, 1), BuildingBlock: UVAHIK_clean_linker_0, # of connection points: 2
#     Edge 66, Type (0, 1), BuildingBlock: UVAHIK_clean_linker_0, # of connection points: 2
#     Edge 67, Type (0, 1), BuildingBlock: UVAHIK_clean_linker_0, # of connection points: 2
#     Edge 68, Type (0, 1), BuildingBlock: UVAHIK_clean_linker_0, # of connection points: 2
#     Edge 69, Type (0, 1), BuildingBlock: UVAHIK_clean_linker_0, # of connection points: 2
#     Edge 70, Type (0, 1), BuildingBlock: UVAHIK_clean_linker_0, # of connection points: 2
#     Edge 71, Type (0, 1), BuildingBlock: UVAHIK_clean_linker_0, # of connection points: 2
#     Edge 72, Type (0, 1), BuildingBlock: UVAHIK_clean_linker_0, # of connection points: 2
#     Edge 73, Type (0, 1), BuildingBlock: UVAHIK_clean_linker_0, # of connection points: 2
#     Edge 74, Type (0, 1), BuildingBlock: UVAHIK_clean_linker_0, # of connection points: 2
#     Edge 75, Type (0, 1), BuildingBlock: UVAHIK_clean_linker_0, # of connection points: 2
#     Edge 76, Type (0, 1), BuildingBlock: UVAHIK_clean_linker_0, # of connection points: 2
#     Edge 77, Type (0, 1), BuildingBlock: UVAHIK_clean_linker_0, # of connection points: 2
#     Edge 78, Type (0, 1), BuildingBlock: UVAHIK_clean_linker_0, # of connection points: 2
#     Edge 79, Type (0, 1), BuildingBlock: UVAHIK_clean_linker_0, # of connection points: 2
#     Edge 80, Type (0, 1), BuildingBlock: UVAHIK_clean_linker_0, # of connection points: 2
#     Edge 81, Type (0, 1), BuildingBlock: UVAHIK_clean_linker_0, # of connection points: 2
#     Edge 82, Type (0, 1), BuildingBlock: UVAHIK_clean_linker_0, # of connection points: 2
#     Edge 83, Type (0, 1), BuildingBlock: UVAHIK_clean_linker_0, # of connection points: 2
#     Edge 84, Type (0, 1), BuildingBlock: UVAHIK_clean_linker_0, # of connection points: 2
#     Edge 85, Type (0, 1), BuildingBlock: UVAHIK_clean_linker_0, # of connection points: 2
#     Edge 86, Type (0, 1), BuildingBlock: UVAHIK_clean_linker_0, # of connection points: 2
#     Edge 87, Type (0, 1), BuildingBlock: UVAHIK_clean_linker_0, # of connection points: 2
#     Edge 88, Type (0, 1), BuildingBlock: UVAHIK_clean_linker_0, # of connection points: 2
#     Edge 89, Type (0, 1), BuildingBlock: UVAHIK_clean_linker_0, # of connection points: 2
#     Edge 90, Type (0, 1), BuildingBlock: UVAHIK_clean_linker_0, # of connection points: 2
#     Edge 91, Type (0, 1), BuildingBlock: UVAHIK_clean_linker_0, # of connection points: 2
#     Edge 92, Type (0, 1), BuildingBlock: UVAHIK_clean_linker_0, # of connection points: 2
#     Edge 93, Type (0, 1), BuildingBlock: UVAHIK_clean_linker_0, # of connection points: 2
#     Edge 94, Type (0, 1), BuildingBlock: UVAHIK_clean_linker_0, # of connection points: 2
#     Edge 95, Type (0, 1), BuildingBlock: UVAHIK_clean_linker_0, # of connection points: 2
#     Edge 96, Type (0, 1), BuildingBlock: UVAHIK_clean_linker_0, # of connection points: 2
#     Edge 97, Type (0, 1), BuildingBlock: UVAHIK_clean_linker_0, # of connection points: 2
#     Edge 98, Type (0, 1), BuildingBlock: UVAHIK_clean_linker_0, # of connection points: 2
#     Edge 99, Type (0, 1), BuildingBlock: UVAHIK_clean_linker_0, # of connection points: 2
#     Edge 100, Type (0, 1), BuildingBlock: UVAHIK_clean_linker_0, # of connection points: 2
#     Edge 101, Type (0, 1), BuildingBlock: UVAHIK_clean_linker_0, # of connection points: 2
#     Edge 102, Type (0, 1), BuildingBlock: UVAHIK_clean_linker_0, # of connection points: 2
#     Edge 103, Type (0, 1), BuildingBlock: UVAHIK_clean_linker_0, # of connection points: 2
#     Edge 104, Type (0, 1), BuildingBlock: UVAHIK_clean_linker_0, # of connection points: 2
#     Edge 105, Type (0, 1), BuildingBlock: UVAHIK_clean_linker_0, # of connection points: 2
#     Edge 106, Type (0, 1), BuildingBlock: UVAHIK_clean_linker_0, # of connection points: 2
#     Edge 107, Type (0, 1), BuildingBlock: UVAHIK_clean_linker_0, # of connection points: 2
#     Edge 108, Type (0, 1), BuildingBlock: UVAHIK_clean_linker_0, # of connection points: 2
#     Edge 109, Type (0, 1), BuildingBlock: UVAHIK_clean_linker_0, # of connection points: 2
#     Edge 110, Type (0, 1), BuildingBlock: UVAHIK_clean_linker_0, # of connection points: 2
#     Edge 111, Type (0, 1), BuildingBlock: UVAHIK_clean_linker_0, # of connection points: 2
#     Edge 112, Type (0, 1), BuildingBlock: UVAHIK_clean_linker_0, # of connection points: 2
#     Edge 113, Type (0, 1), BuildingBlock: UVAHIK_clean_linker_0, # of connection points: 2
#     Edge 114, Type (0, 1), BuildingBlock: UVAHIK_clean_linker_0, # of connection points: 2
#     Edge 115, Type (0, 1), BuildingBlock: UVAHIK_clean_linker_0, # of connection points: 2
#     Edge 116, Type (0, 1), BuildingBlock: UVAHIK_clean_linker_0, # of connection points: 2
#     Edge 117, Type (0, 1), BuildingBlock: UVAHIK_clean_linker_0, # of connection points: 2
#     Edge 118, Type (0, 1), BuildingBlock: UVAHIK_clean_linker_0, # of connection points: 2
#     Edge 119, Type (0, 1), BuildingBlock: UVAHIK_clean_linker_0, # of connection points: 2
#     Edge 120, Type (0, 1), BuildingBlock: UVAHIK_clean_linker_0, # of connection points: 2
#     Edge 121, Type (0, 1), BuildingBlock: UVAHIK_clean_linker_0, # of connection points: 2
#     Edge 122, Type (0, 1), BuildingBlock: UVAHIK_clean_linker_0, # of connection points: 2
#     Edge 123, Type (0, 1), BuildingBlock: UVAHIK_clean_linker_0, # of connection points: 2
#     Edge 124, Type (0, 1), BuildingBlock: UVAHIK_clean_linker_0, # of connection points: 2
#     Edge 125, Type (0, 1), BuildingBlock: UVAHIK_clean_linker_0, # of connection points: 2
#     Edge 126, Type (0, 1), BuildingBlock: UVAHIK_clean_linker_0, # of connection points: 2
#     Edge 127, Type (0, 1), BuildingBlock: UVAHIK_clean_linker_0, # of connection points: 2
#     Edge 128, Type (0, 1), BuildingBlock: UVAHIK_clean_linker_0, # of connection points: 2
#     Edge 129, Type (0, 1), BuildingBlock: UVAHIK_clean_linker_0, # of connection points: 2
#     Edge 130, Type (0, 1), BuildingBlock: UVAHIK_clean_linker_0, # of connection points: 2
#     Edge 131, Type (0, 1), BuildingBlock: UVAHIK_clean_linker_0, # of connection points: 2
#     Edge 132, Type (0, 1), BuildingBlock: UVAHIK_clean_linker_0, # of connection points: 2
#     Edge 133, Type (0, 1), BuildingBlock: UVAHIK_clean_linker_0, # of connection points: 2
#     Edge 134, Type (0, 1), BuildingBlock: UVAHIK_clean_linker_0, # of connection points: 2
#     Edge 135, Type (0, 1), BuildingBlock: UVAHIK_clean_linker_0, # of connection points: 2
# Relax obj value: 0.055
# Max RMSD: 0.173
# Mean RMSD: 0.105
data_MOF--net-gar--node1-CEKHIL_clean_sbu_0--node2-KUMBUR_clean_sbu_1--edge1-UVAHIK_clean_linker_0
_symmetry_space_group_name_H-M    P1
_symmetry_Int_Tables_number       1
_symmetry_cell_setting            triclinic
loop_
_symmetry_equiv_pos_as_xyz
'x, y, z'
_cell_length_a     76.209906
_cell_length_b     75.659522
_cell_length_c     70.797773
_cell_angle_alpha  95.532497
_cell_angle_beta   95.616042
_cell_angle_gamma 100.32658
loop_
_atom_site_label
_atom_site_type_symbol
_atom_site_fract_x
_atom_site_fract_y
_atom_site_fract_z
_atom_type_partial_charge
Co0 Co 0.04995 0.3076 0.36026 0.0
O1 O 0.07629 0.31026 0.36442 0.0
O2 O 0.06051 0.29939 0.33708 0.0
C3 C 0.04894 0.33574 0.37582 0.0
O4 O 0.02229 0.3035 0.35007 0.0
Co5 Co 0.02752 0.30889 0.39485 0.0
O6 O 1.00681 0.30759 0.37524 0.0
C7 C 0.04475 0.27764 0.38614 0.0
C8 C 0.07638 0.30362 0.34687 0.0
C9 C 1.00727 0.30438 0.35729 0.0
O10 O 0.04728 0.28235 0.36933 0.0
O11 O 0.03907 0.28761 0.39892 0.0
O12 O 0.05231 0.33409 0.35811 0.0
O13 O 0.04759 0.32092 0.38346 0.0
Co14 Co 0.01611 0.75683 0.68251 0.0
O15 O 0.99004 0.75514 0.67664 0.0
O16 O 1.00235 0.7504 0.70428 0.0
C17 C 0.02232 0.78415 0.67032 0.0
O18 O 0.04294 0.75836 0.69447 0.0
Co19 Co 0.0424 0.76075 0.65162 0.0
O20 O 0.06168 0.76792 0.67323 0.0
C21 C 0.02208 0.72405 0.6563 0.0
C22 C 0.98774 0.75215 0.694 0.0
C23 C 0.05905 0.76383 0.68987 0.0
O24 O 0.01482 0.73026 0.67088 0.0
O25 O 0.03212 0.7343 0.64669 0.0
O26 O 0.01864 0.78346 0.68778 0.0
O27 O 0.02191 0.76865 0.6609 0.0
Co28 Co 0.55009 0.80767 0.86134 0.0
O29 O 0.57632 0.80994 0.86623 0.0
O30 O 0.56093 0.79935 0.83855 0.0
C31 C 0.54925 0.83591 0.87669 0.0
O32 O 0.52285 0.80381 0.85004 0.0
Co33 Co 0.5256 0.80976 0.89396 0.0
O34 O 0.50574 0.80893 0.87351 0.0
C35 C 0.54297 0.77802 0.88714 0.0
C36 C 0.57662 0.80335 0.84868 0.0
C37 C 0.50744 0.80534 0.85593 0.0
O38 O 0.54678 0.78248 0.87057 0.0
O39 O 0.53634 0.78816 0.89893 0.0
O40 O 0.55297 0.83415 0.85911 0.0
O41 O 0.54712 0.82106 0.88431 0.0
Co42 Co 0.51688 0.25653 0.18425 0.0
O43 O 0.49062 0.2549 0.17891 0.0
O44 O 0.50353 0.2506 0.20643 0.0
C45 C 0.52328 0.2837 0.17177 0.0
O46 O 0.54395 0.25789 0.19576 0.0
Co47 Co 0.54215 0.25899 0.15245 0.0
O48 O 0.56241 0.26341 0.17308 0.0
C49 C 0.51918 0.22367 0.15612 0.0
C50 C 0.48869 0.25203 0.19637 0.0
C51 C 0.56002 0.26116 0.19028 0.0
O52 O 0.51478 0.22987 0.1725 0.0
O53 O 0.52828 0.23374 0.14559 0.0
O54 O 0.51981 0.28319 0.18932 0.0
O55 O 0.52243 0.26807 0.16239 0.0
Co56 Co 0.05472 0.79419 0.11532 0.0
O57 O 0.02856 0.79176 0.11199 0.0
O58 O 0.0443 0.78695 0.13804 0.0
C59 C 0.05938 0.82246 0.10327 0.0
O60 O 0.08125 0.79584 0.12682 0.0
Co61 Co 0.07867 0.79575 0.08545 0.0
O62 O 0.10004 0.79846 0.10469 0.0
C63 C 0.05886 0.75955 0.08994 0.0
C64 C 0.02869 0.78776 0.12944 0.0
C65 C 0.09731 0.79726 0.12198 0.0
O66 O 0.0527 0.76719 0.10446 0.0
O67 O 0.06879 0.76902 0.07962 0.0
O68 O 0.05716 0.82069 0.12097 0.0
O69 O 0.05876 0.80715 0.09287 0.0
Co70 Co 0.51339 0.77088 0.43099 0.0
O71 O 0.53954 0.77483 0.43505 0.0
O72 O 0.52317 0.76236 0.40816 0.0
C73 C 0.51158 0.79992 0.44384 0.0
O74 O 0.4866 0.76579 0.4194 0.0
Co75 Co 0.48951 0.7712 0.46169 0.0
O76 O 0.47084 0.77547 0.44185 0.0
C77 C 0.5056 0.73872 0.45547 0.0
C78 C 0.53907 0.76804 0.4174 0.0
C79 C 0.47211 0.77053 0.42443 0.0
O80 O 0.51186 0.7456 0.4408 0.0
O81 O 0.49678 0.7474 0.46638 0.0
O82 O 0.51464 0.79623 0.42634 0.0
O83 O 0.51061 0.7862 0.45373 0.0
Co84 Co 0.55459 0.29339 0.61557 0.0
O85 O 0.52844 0.29101 0.61221 0.0
O86 O 0.54414 0.28621 0.6383 0.0
C87 C 0.55933 0.32169 0.60351 0.0
O88 O 0.58111 0.29507 0.62709 0.0
Co89 Co 0.5784 0.29468 0.5857 0.0
O90 O 0.59981 0.29746 0.60488 0.0
C91 C 0.55873 0.25853 0.59048 0.0
C92 C 0.52855 0.28701 0.62965 0.0
C93 C 0.59714 0.29641 0.6222 0.0
O94 O 0.55251 0.26633 0.60485 0.0
O95 O 0.56872 0.26788 0.58011 0.0
O96 O 0.55707 0.31991 0.62119 0.0
O97 O 0.55864 0.30636 0.59309 0.0
Co98 Co 0.01358 0.27121 0.93188 0.0
O99 O 0.03976 0.27504 0.93591 0.0
O100 O 0.02333 0.26262 0.90904 0.0
C101 C 0.01177 0.30036 0.94463 0.0
O102 O 0.9868 0.2663 0.92021 0.0
Co103 Co 0.98977 0.27149 0.96258 0.0
O104 O 0.97089 0.27536 0.94281 0.0
C105 C 1.00537 0.23878 0.95611 0.0
C106 C 0.03925 0.26824 0.91825 0.0
C107 C 0.97218 0.27069 0.92534 0.0
O108 O 0.01193 0.24585 0.94168 0.0
O109 O 0.99647 0.2474 0.96698 0.0
O110 O 0.01497 0.29657 0.92719 0.0
O111 O 0.01078 0.28668 0.9546 0.0
Co112 Co 0.38927 0.0245 0.30019 0.0
O113 O 0.39259 0.05026 0.30246 0.0
O114 O 0.3677 0.03103 0.28953 0.0
C115 C 0.40033 0.02216 0.32971 0.0
O116 O 0.38063 0.99756 0.29621 0.0
Co117 Co 0.42168 1.00459 0.30471 0.0
O118 O 0.40288 0.98278 0.30427 0.0
C119 C 0.41268 0.01934 0.26872 0.0
C120 C 0.37604 0.04761 0.29463 0.0
C121 C 0.38645 0.98308 0.2992 0.0
O122 O 0.39871 0.0241 0.27477 0.0
O123 O 0.42393 0.01234 0.27874 0.0
O124 O 0.38396 0.02467 0.32641 0.0
O125 O 0.40999 0.02318 0.3157 0.0
Co126 Co 0.27264 0.16769 0.50575 0.0
O127 O 0.29869 0.17227 0.50873 0.0
O128 O 0.2813 0.14737 0.51503 0.0
C129 C 0.27008 0.17724 0.47617 0.0
O130 O 0.24594 0.15652 0.50398 0.0
Co131 Co 0.24893 0.1959 0.50055 0.0
O132 O 0.22795 0.1757 0.49608 0.0
C133 C 0.26671 0.19358 0.53928 0.0
C134 C 0.29737 0.15609 0.51391 0.0
C135 C 0.23028 0.16011 0.49969 0.0
O136 O 0.27244 0.17935 0.53288 0.0
O137 O 0.25823 0.20259 0.52835 0.0
O138 O 0.2727 0.16103 0.47834 0.0
O139 O 0.2697 0.18748 0.49178 0.0
Co140 Co 0.14191 0.03791 0.79052 0.0
O141 O 0.13793 0.0117 0.78849 0.0
O142 O 0.16291 0.02946 0.78322 0.0
C143 C 0.13069 0.04127 0.8191 0.0
O144 O 0.15245 0.06489 0.79191 0.0
Co145 Co 0.11236 0.06026 0.79126 0.0
O146 O 0.13158 0.08216 0.79432 0.0
C147 C 0.11762 0.04126 0.75456 0.0
C148 C 0.15432 0.01321 0.78427 0.0
C149 C 0.14778 0.08041 0.7935 0.0
O150 O 0.13196 0.03698 0.7626 0.0
O151 O 0.1072 0.04939 0.76378 0.0
O152 O 0.14711 0.03904 0.81821 0.0
O153 O 0.1212 0.04065 0.80275 0.0
Co154 Co 0.28933 0.92468 0.99334 0.0
O155 O 0.26404 0.91957 0.99305 0.0
O156 O 0.28209 0.9457 0.00488 0.0
C157 C 0.28979 0.91379 0.96335 0.0
O158 O 0.31584 0.93452 0.99539 0.0
Co159 Co 0.30989 0.89274 0.98657 0.0
O160 O 0.33073 0.91244 0.98665 0.0
C161 C 0.29814 0.90173 0.02426 0.0
C162 C 0.26594 0.93607 0.00105 0.0
C163 C 0.33021 0.9289 0.99183 0.0
O164 O 0.29225 0.91541 0.0187 0.0
O165 O 0.30462 0.89061 0.01345 0.0
O166 O 0.28672 0.93001 0.96708 0.0
O167 O 0.2905 0.90415 0.97738 0.0
Co168 Co 0.29129 0.38948 0.03068 0.0
O169 O 0.26538 0.38431 0.02884 0.0
O170 O 0.28251 0.41074 0.04004 0.0
C171 C 0.29299 0.37647 0.0008 0.0
O172 O 0.31808 0.4009 0.03376 0.0
Co173 Co 0.31424 0.35985 0.0281 0.0
O174 O 0.33482 0.37983 0.02781 0.0
C175 C 0.29862 0.36768 0.06383 0.0
C176 C 0.26646 0.4011 0.03562 0.0
C177 C 0.33327 0.39623 0.03153 0.0
O178 O 0.29286 0.38116 0.05721 0.0
O179 O 0.3066 0.35709 0.0541 0.0
O180 O 0.28996 0.39283 0.00359 0.0
O181 O 0.29373 0.36807 0.01584 0.0
Co182 Co 0.77777 0.12924 0.04103 0.0
O183 O 0.80314 0.13418 0.04651 0.0
O184 O 0.78551 0.10755 0.04766 0.0
C185 C 0.77748 0.14271 0.01432 0.0
O186 O 0.75109 0.11948 0.03566 0.0
Co187 Co 0.75734 0.16158 0.03948 0.0
O188 O 0.73654 0.14227 0.02994 0.0
C189 C 0.76836 0.14903 0.07648 0.0
C190 C 0.80162 0.11731 0.04923 0.0
C191 C 0.73685 0.12562 0.0309 0.0
O192 O 0.77527 0.1365 0.06837 0.0
O193 O 0.76143 0.16057 0.06765 0.0
O194 O 0.77984 0.12611 0.01381 0.0
O195 O 0.77676 0.15093 0.03097 0.0
Co196 Co 0.17988 0.53392 0.25686 0.0
O197 O 0.17506 0.50822 0.25279 0.0
O198 O 0.20098 0.52598 0.24949 0.0
C199 C 0.16785 0.53622 0.28419 0.0
O200 O 0.18954 0.5608 0.26028 0.0
Co201 Co 0.14776 0.55456 0.25795 0.0
O202 O 0.16708 0.57594 0.26485 0.0
C203 C 0.1579 0.54025 0.22119 0.0
C204 C 0.19143 0.50977 0.24861 0.0
C205 C 0.18355 0.57545 0.26363 0.0
O206 O 0.17132 0.53483 0.22949 0.0
O207 O 0.14654 0.54741 0.22994 0.0
O208 O 0.18418 0.53336 0.2844 0.0
O209 O 0.15904 0.53584 0.26762 0.0
Co210 Co 0.79073 0.88847 0.53072 0.0
O211 O 0.76478 0.88363 0.5293 0.0
O212 O 0.78235 0.90989 0.54022 0.0
C213 C 0.79185 0.87531 0.50068 0.0
O214 O 0.81749 0.89981 0.53332 0.0
Co215 Co 0.81374 0.85902 0.5273 0.0
O216 O 0.83414 0.87902 0.52608 0.0
C217 C 0.79793 0.86599 0.56326 0.0
C218 C 0.76617 0.90051 0.53598 0.0
C219 C 0.8326 0.89538 0.53023 0.0
O220 O 0.79266 0.88001 0.55728 0.0
O221 O 0.80537 0.85539 0.55284 0.0
O222 O 0.78906 0.89175 0.50352 0.0
O223 O 0.79282 0.86701 0.51576 0.0
Co224 Co 0.92509 0.01987 0.26635 0.0
O225 O 0.93018 0.04601 0.2686 0.0
O226 O 0.90403 0.02872 0.25704 0.0
C227 C 0.9379 0.01761 0.29618 0.0
O228 O 0.91354 0.99297 0.26284 0.0
Co229 Co 0.95397 0.99642 0.26799 0.0
O230 O 0.93411 0.97553 0.2676 0.0
C231 C 0.94701 0.01364 0.23317 0.0
C232 C 0.91354 0.04488 0.2616 0.0
C233 C 0.91789 0.97745 0.26438 0.0
O234 O 0.93342 0.0189 0.23987 0.0
O235 O 0.95747 1.00529 0.24257 0.0
O236 O 0.92169 0.02076 0.29336 0.0
O237 O 0.94633 0.01706 0.28118 0.0
Co238 Co 0.27724 0.62677 0.53903 0.0
O239 O 0.30259 0.63041 0.54402 0.0
O240 O 0.28374 0.6051 0.54749 0.0
C241 C 0.27692 0.63852 0.51123 0.0
O242 O 0.25037 0.61861 0.53497 0.0
Co243 Co 0.25956 0.66087 0.53645 0.0
O244 O 0.23698 0.64268 0.53217 0.0
C245 C 0.27798 0.65345 0.57234 0.0
C246 C 0.30013 0.61417 0.54897 0.0
C247 C 0.23641 0.62578 0.53263 0.0
O248 O 0.27627 0.63676 0.56593 0.0
O249 O 0.27434 0.66562 0.56206 0.0
O250 O 0.27827 0.62165 0.51155 0.0
O251 O 0.27716 0.64766 0.52756 0.0
Co252 Co 0.42503 0.51983 0.76553 0.0
O253 O 0.43004 0.54596 0.7678 0.0
O254 O 0.40388 0.52865 0.75632 0.0
C255 C 0.43801 0.51772 0.79532 0.0
O256 O 0.41367 0.49285 0.76202 0.0
Co257 Co 0.45424 0.49661 0.76746 0.0
O258 O 0.43444 0.47588 0.76796 0.0
C259 C 0.44668 0.51322 0.73224 0.0
C260 C 0.41337 0.54483 0.76093 0.0
C261 C 0.41817 0.47749 0.76419 0.0
O262 O 0.43326 0.51877 0.73902 0.0
O263 O 0.45718 0.50494 0.74171 0.0
O264 O 0.42175 0.52076 0.79262 0.0
O265 O 0.44633 0.51718 0.78026 0.0
Co266 Co 0.67923 0.0332 0.75544 0.0
O267 O 0.6742 0.00749 0.75063 0.0
O268 O 0.70026 0.02527 0.74793 0.0
C269 C 0.66705 0.03501 0.78275 0.0
O270 O 0.68915 0.06005 0.75956 0.0
Co271 Co 0.64737 0.05416 0.75705 0.0
O272 O 0.66685 0.07534 0.76436 0.0
C273 C 0.65786 0.04094 0.72004 0.0
C274 C 0.69059 0.00906 0.74653 0.0
C275 C 0.6833 0.07475 0.76315 0.0
O276 O 0.67095 0.03488 0.72817 0.0
O277 O 0.64657 0.04806 0.72893 0.0
O278 O 0.6833 0.03196 0.7829 0.0
O279 O 0.65835 0.03505 0.76621 0.0
Co280 Co 0.77398 0.66771 0.00572 0.0
O281 O 0.80004 0.67219 0.00829 0.0
O282 O 0.78274 0.64738 0.0149 0.0
C283 C 0.77105 0.67717 0.97611 0.0
O284 O 0.74722 0.65668 0.00414 0.0
Co285 Co 0.75092 0.6966 0.00129 0.0
O286 O 0.72958 0.6769 0.99897 0.0
C287 C 0.76997 0.69461 0.03929 0.0
C288 C 0.79879 0.65604 0.01351 0.0
C289 C 0.73165 0.66093 0.00138 0.0
O290 O 0.77419 0.67952 0.03296 0.0
O291 O 0.76215 0.70413 0.02839 0.0
O292 O 0.7736 0.66093 0.97825 0.0
O293 O 0.77105 0.68747 0.99179 0.0
Co294 Co 0.88993 0.52259 0.80041 0.0
O295 O 0.89328 0.54838 0.80439 0.0
O296 O 0.86924 0.52967 0.78862 0.0
C297 C 0.89879 0.51872 0.83016 0.0
O298 O 0.88127 0.49584 0.79401 0.0
Co299 Co 0.92135 0.50171 0.80641 0.0
O300 O 0.90174 0.48048 0.80569 0.0
C301 C 0.91527 0.51835 0.77077 0.0
C302 C 0.87724 0.54604 0.79524 0.0
C303 C 0.8861 0.48119 0.79811 0.0
O304 O 0.90136 0.52371 0.77625 0.0
O305 O 0.92532 0.51011 0.7809 0.0
O306 O 0.88255 0.5212 0.82578 0.0
O307 O 0.90953 0.52032 0.81712 0.0
Co308 Co 0.78849 0.42554 0.49338 0.0
O309 O 0.76317 0.42304 0.49177 0.0
O310 O 0.78318 0.44701 0.506 0.0
C311 C 0.78866 0.41581 0.46306 0.0
O312 O 0.81526 0.43303 0.49691 0.0
Co313 Co 0.80636 0.39234 0.48526 0.0
O314 O 0.82894 0.41043 0.48704 0.0
C315 C 0.78964 0.39785 0.52067 0.0
C316 C 0.76651 0.43928 0.50075 0.0
C317 C 0.82929 0.42687 0.49324 0.0
O318 O 0.78879 0.41414 0.5177 0.0
O319 O 0.79449 0.38653 0.50856 0.0
O320 O 0.78807 0.43267 0.46776 0.0
O321 O 0.788 0.4053 0.47638 0.0
Co322 Co 0.64278 0.5363 0.29035 0.0
O323 O 0.63781 0.51009 0.28808 0.0
O324 O 0.66342 0.52704 0.28302 0.0
C325 C 0.6319 0.53974 0.31911 0.0
O326 O 0.65404 0.56314 0.2915 0.0
Co327 Co 0.61472 0.5604 0.29266 0.0
O328 O 0.63498 0.58122 0.29941 0.0
C329 C 0.61915 0.5419 0.255 0.0
C330 C 0.65418 0.51106 0.28398 0.0
C331 C 0.65052 0.57891 0.29597 0.0
O332 O 0.63253 0.53572 0.26264 0.0
O333 O 0.60993 0.55129 0.26461 0.0
O334 O 0.64817 0.53716 0.31801 0.0
O335 O 0.62241 0.53972 0.30289 0.0
Tb336 Tb 0.05506 0.03954 0.03713 0.0
C337 C 0.99978 0.97588 0.99009 0.0
N338 N 1.00846 0.99226 0.98625 0.0
C339 C 0.01419 0.97868 0.95591 0.0
C340 C 0.99864 0.96014 0.97725 0.0
C341 C 0.01493 0.99391 0.96902 0.0
C342 C 1.00623 0.96168 0.96015 0.0
C343 C 0.98201 0.95824 0.01086 0.0
C344 C 0.99154 0.97495 0.00674 0.0
C345 C 0.98136 0.94249 0.9984 0.0
C346 C 0.98963 0.94344 0.98162 0.0
Tb347 Tb 1.00834 0.01605 0.00886 0.0
N348 N 0.99226 0.99046 0.01846 0.0
C349 C 0.97295 0.9579 0.02711 0.0
C350 C 0.98219 0.99029 0.0335 0.0
C351 C 0.97283 0.97405 0.0383 0.0
H352 H 0.01996 0.00695 0.96479 0.0
H353 H 0.96523 0.97405 0.05045 0.0
H354 H 0.04922 0.04968 0.08307 0.0
H355 H 0.09616 0.07695 0.99095 0.0
H356 H 0.98093 1.00268 0.04174 0.0
H357 H 0.9655 0.94534 0.03074 0.0
H358 H 0.07835 0.04986 0.00127 0.0
H359 H 0.01945 0.98013 0.94237 0.0
H360 H 0.97417 0.92955 0.00139 0.0
H361 H 0.98869 0.93121 0.97195 0.0
H362 H 0.05569 0.07669 0.10684 0.0
H363 H 1.00554 0.94993 0.94987 0.0
H364 H 0.10153 0.10613 0.01164 0.0
N365 N 0.05988 0.06363 0.06068 0.0
C366 C 0.06931 0.07934 0.05613 0.0
C367 C 0.05939 0.0777 0.09256 0.0
C368 C 0.07366 0.09504 0.06946 0.0
C369 C 0.05554 0.06247 0.07894 0.0
C370 C 0.0683 0.09412 0.08773 0.0
N371 N 0.07216 0.06373 0.0265 0.0
C372 C 0.07995 0.06259 0.00996 0.0
C373 C 0.08629 0.09515 0.03351 0.0
C374 C 0.07567 0.07939 0.03847 0.0
C375 C 0.09332 0.09433 0.01598 0.0
C376 C 0.09031 0.0779 0.00425 0.0
H377 H 0.07145 0.10585 0.09839 0.0
H378 H 0.08714 0.12313 0.07439 0.0
H379 H 0.0981 0.12325 0.04285 0.0
O380 O 0.08017 0.03274 0.03368 0.0
O381 O 0.04416 0.05717 0.01782 0.0
O382 O 0.01344 0.04654 0.01515 0.0
O383 O 0.0709 0.0357 0.06193 0.0
O384 O 0.0537 0.02338 0.00911 0.0
O385 O 0.02853 0.02889 0.99228 0.0
O386 O 0.98226 0.02012 0.01144 0.0
O387 O 0.02703 0.99748 0.01622 0.0
O388 O 0.04295 0.0123 0.04424 0.0
O389 O 0.99113 0.0159 0.98371 0.0
O390 O 0.01 0.01884 0.03997 0.0
O391 O 0.03127 0.04417 0.05067 0.0
C392 C 0.02751 0.0596 0.01405 0.0
C393 C 0.1005 0.02871 0.06071 0.0
C394 C 0.12774 0.01746 0.05684 0.0
C395 C 0.13344 0.022 0.07642 0.0
C396 C 0.106 0.03306 0.08039 0.0
C397 C 0.12248 0.0297 0.0882 0.0
C398 C 0.11135 0.02079 0.04905 0.0
C399 C 0.04518 0.0265 0.99303 0.0
C400 C 0.08374 0.03271 0.05205 0.0
C401 C 0.08375 0.11093 0.06437 0.0
C402 C 0.09001 0.111 0.04642 0.0
C403 C 0.03655 0.99713 0.03282 0.0
C404 C 0.96915 0.03418 0.9868 0.0
C405 C 0.9483 0.05434 0.99318 0.0
C406 C 0.94737 0.0578 0.97397 0.0
C407 C 0.968 0.03766 0.96764 0.0
C408 C 0.95973 0.04301 -0.00045 0.0
C409 C 0.95736 0.04965 0.96137 0.0
C410 C 0.01724 0.0322 0.05311 0.0
C411 C 0.97826 0.01983 0.99311 0.0
H412 H 0.14617 0.01934 0.08255 0.0
H413 H 0.0977 0.03922 0.08965 0.0
H414 H 0.12677 0.0331 0.10334 0.0
H415 H 0.10715 0.01726 0.03385 0.0
H416 H 0.93842 0.06619 0.96846 0.0
H417 H 0.97495 0.03082 0.95743 0.0
H418 H 0.96068 0.04046 0.01438 0.0
H419 H 0.95633 0.05212 0.94653 0.0
Tb420 Tb 0.26718 0.77925 0.29861 0.0
C421 C 0.31028 0.74846 0.22654 0.0
N422 N 0.31612 0.76037 0.2425 0.0
C423 C 0.34253 0.74743 0.24757 0.0
C424 C 0.3201 0.73515 0.22082 0.0
C425 C 0.33234 0.76039 0.25267 0.0
C426 C 0.3363 0.73463 0.2317 0.0
C427 C 0.28791 0.73762 0.19915 0.0
C428 C 0.29437 0.74965 0.21587 0.0
C429 C 0.29747 0.72412 0.1936 0.0
C430 C 0.31352 0.72289 0.20442 0.0
Tb431 Tb 0.29767 0.78017 0.25001 0.0
N432 N 0.28522 0.76259 0.22197 0.0
C433 C 0.27214 0.73962 0.18841 0.0
C434 C 0.27047 0.76531 0.21079 0.0
C435 C 0.26355 0.7537 0.19411 0.0
H436 H 0.33778 0.77057 0.26453 0.0
H437 H 0.25168 0.75576 0.18554 0.0
H438 H 0.22953 0.79126 0.28237 0.0
H439 H 0.31039 0.80093 0.36557 0.0
H440 H 0.26406 0.77658 0.21422 0.0
H441 H 0.26674 0.73066 0.17547 0.0
H442 H 0.29681 0.77956 0.33752 0.0
H443 H 0.35526 0.74742 0.25581 0.0
H444 H 0.29265 0.71468 0.18088 0.0
H445 H 0.32082 0.7125 0.19988 0.0
H446 H 0.21333 0.81609 0.28946 0.0
H447 H 0.34424 0.72461 0.22779 0.0
H448 H 0.29905 0.82921 0.37268 0.0
N449 N 0.25051 0.80082 0.3051 0.0
C450 C 0.25683 0.81326 0.32044 0.0
C451 C 0.22563 0.81553 0.29822 0.0
C452 C 0.24811 0.82775 0.325 0.0
C453 C 0.2349 0.8015 0.29419 0.0
C454 C 0.23236 0.82883 0.31358 0.0
N455 N 0.27935 0.79653 0.327 0.0
C456 C 0.29225 0.79223 0.33966 0.0
C457 C 0.27884 0.82348 0.34806 0.0
C458 C 0.27198 0.81119 0.33164 0.0
C459 C 0.29331 0.82007 0.35997 0.0
C460 C 0.29977 0.80416 0.35597 0.0
H461 H 0.22518 0.83971 0.31664 0.0
H462 H 0.24888 0.85183 0.34455 0.0
H463 H 0.27585 0.84809 0.36481 0.0
O464 O 0.26594 0.75713 0.31441 0.0
O465 O 0.27374 0.80563 0.2887 0.0
O466 O 0.29755 0.79779 0.27624 0.0
O467 O 0.2418 0.76397 0.30128 0.0
O468 O 0.29555 0.7751 0.30435 0.0
O469 O 0.3131 0.77882 0.27838 0.0
O470 O 0.29724 0.8019 0.23389 0.0
O471 O 0.28525 0.75229 0.25234 0.0
O472 O 0.27803 0.7684 0.2754 0.0
O473 O 0.3221 0.79355 0.24235 0.0
O474 O 0.26975 0.7864 0.24672 0.0
O475 O 0.25149 0.77451 0.26967 0.0
C476 C 0.28689 0.80936 0.27834 0.0
C477 C 0.24164 0.75462 0.33217 0.0
C478 C 0.24283 0.744 0.36351 0.0
C479 C 0.23233 0.75649 0.36955 0.0
C480 C 0.23115 0.76708 0.33833 0.0
C481 C 0.22645 0.76789 0.35694 0.0
C482 C 0.24729 0.74308 0.34477 0.0
C483 C 0.31086 0.77565 0.29639 0.0
C484 C 0.24855 0.7546 0.31355 0.0
C485 C 0.25528 0.84049 0.34087 0.0
C486 C 0.27066 0.83838 0.35237 0.0
C487 C 0.27718 0.7523 0.26733 0.0
C488 C 0.318 0.80285 0.21162 0.0
C489 C 0.31091 0.81122 0.18 0.0
C490 C 0.32237 0.80033 0.17272 0.0
C491 C 0.32956 0.79203 0.2043 0.0
C492 C 0.30899 0.81263 0.19944 0.0
C493 C 0.33178 0.79091 0.18491 0.0
C494 C 0.25388 0.78137 0.25319 0.0
C495 C 0.31413 0.80333 0.23151 0.0
H496 H 0.2286 0.75733 0.38393 0.0
H497 H 0.22687 0.7764 0.32897 0.0
H498 H 0.21841 0.77752 0.36166 0.0
H499 H 0.2558 0.73384 0.34014 0.0
H500 H 0.32419 0.79933 0.15769 0.0
H501 H 0.33668 0.7843 0.21343 0.0
H502 H 0.30002 0.82097 0.20499 0.0
H503 H 0.34069 0.7826 0.17928 0.0
Tb504 Tb 0.5063 0.02369 0.53356 0.0
C505 C 0.57505 0.0644 0.50351 0.0
N506 N 0.56245 0.04966 0.49588 0.0
C507 C 0.56192 0.06073 0.46521 0.0
C508 C 0.58102 0.07824 0.49235 0.0
C509 C 0.55635 0.04736 0.47681 0.0
C510 C 0.57417 0.07631 0.47303 0.0
C511 C 0.59454 0.08102 0.53119 0.0
C512 C 0.58189 0.06571 0.52271 0.0
C513 C 0.60038 0.0949 0.52012 0.0
C514 C 0.59368 0.09349 0.50076 0.0
Tb515 Tb 0.55592 0.02858 0.51638 0.0
N516 N 0.5757 0.0522 0.53317 0.0
C517 C 0.60088 0.08194 0.55057 0.0
C518 C 0.58229 0.05271 0.55185 0.0
C519 C 0.5948 0.06768 0.5609 0.0
H520 H 0.5476 0.03507 0.47019 0.0
H521 H 0.59991 0.0681 0.57579 0.0
H522 H 0.51317 0.02216 0.58122 0.0
H523 H 0.45842 0.9803 0.48028 0.0
H524 H 0.57833 0.04141 0.55962 0.0
H525 H 0.6106 0.0935 0.55762 0.0
H526 H 0.47972 0.00845 0.49371 0.0
H527 H 0.55693 0.05888 0.45016 0.0
H528 H 0.6101 0.10678 0.52639 0.0
H529 H 0.5984 0.10427 0.49241 0.0
H530 H 0.50862 0.99889 0.60307 0.0
H531 H 0.57848 0.08662 0.46396 0.0
H532 H 0.45369 0.95438 0.49928 0.0
N533 N 0.50214 1.004 0.55613 0.0
C534 C 0.49199 0.98746 0.54947 0.0
C535 C 0.50417 0.99538 0.58796 0.0
C536 C 0.48826 0.97396 0.5617 0.0
C537 C 0.50711 0.00847 0.57536 0.0
C538 C 0.49502 0.97794 0.58104 0.0
N539 N 0.48746 0.99806 0.51942 0.0
C540 C 0.47782 0.99708 0.5019 0.0
C541 C 0.47206 0.96828 0.52366 0.0
C542 C 0.484 0.98456 0.53067 0.0
C543 C 0.46305 0.96665 0.50516 0.0
C544 C 0.4657 0.98125 0.49437 0.0
H545 H 0.49249 0.96793 0.5909 0.0
H546 H 0.47437 0.94668 0.56362 0.0
H547 H 0.46012 0.94174 0.53033 0.0
O548 O 0.48723 0.03802 0.52197 0.0
O549 O 0.51287 1.00047 0.51513 0.0
O550 O 0.54299 1.00176 0.52325 0.0
O551 O 0.48495 0.02784 0.54898 0.0
O552 O 0.51487 0.03713 0.50946 0.0
O553 O 0.5331 0.02115 0.49449 0.0
O554 O 0.58195 0.0223 0.52159 0.0
O555 O 0.54634 0.05448 0.5249 0.0
O556 O 0.52442 0.04952 0.5457 0.0
O557 O 0.5659 0.01515 0.49365 0.0
O558 O 0.55133 0.01724 0.54292 0.0
O559 O 0.52927 0.03055 0.55559 0.0
C560 C 0.52693 0.99244 0.51651 0.0
C561 C 0.47337 0.05413 0.54457 0.0
C562 C 0.45277 0.07538 0.54441 0.0
C563 C 0.46382 0.08615 0.55988 0.0
C564 C 0.484 0.06488 0.56028 0.0
C565 C 0.47928 0.08086 0.56781 0.0
C566 C 0.45761 0.0593 0.53678 0.0
C567 C 0.51905 0.02885 0.49405 0.0
C568 C 0.47829 0.03723 0.53667 0.0
C569 C 0.47723 0.95726 0.55447 0.0
C570 C 0.46908 0.95446 0.53551 0.0
C571 C 0.53659 0.06053 0.53788 0.0
C572 C 0.59532 0.00694 0.49613 0.0
C573 C 0.62053 0.99113 0.49937 0.0
C574 C 0.62182 0.9913 0.47976 0.0
C575 C 0.59685 0.00688 0.47652 0.0
C576 C 0.60732 0.9991 0.50765 0.0
C577 C 0.61007 0.99918 0.46844 0.0
C578 C 0.54321 0.02265 0.55729 0.0
C579 C 0.58088 0.01483 0.50407 0.0
H580 H 0.46027 0.0985 0.56609 0.0
H581 H 0.49579 0.06074 0.56685 0.0
H582 H 0.48755 0.08909 0.57992 0.0
H583 H 0.4492 0.0509 0.52482 0.0
H584 H 0.63189 0.9852 0.47318 0.0
H585 H 0.58782 0.01285 0.46742 0.0
H586 H 0.60618 0.99887 0.52277 0.0
H587 H 0.61115 0.99921 0.45331 0.0
Tb588 Tb 0.30899 0.26934 0.77824 0.0
C589 C 0.24285 0.29167 0.73166 0.0
N590 N 0.25401 0.30089 0.74697 0.0
C591 C 0.25535 0.32839 0.73239 0.0
C592 C 0.23774 0.30044 0.71589 0.0
C593 C 0.26001 0.31911 0.7477 0.0
C594 C 0.24425 0.31901 0.71636 0.0
C595 C 0.22499 0.26324 0.71623 0.0
C596 C 0.23662 0.27331 0.73179 0.0
C597 C 0.21995 0.27187 0.70041 0.0
C598 C 0.22632 0.29042 0.70024 0.0
Tb599 Tb 0.26048 0.28418 0.77107 0.0
N600 N 0.24215 0.26533 0.74714 0.0
C601 C 0.21866 0.24484 0.71713 0.0
C602 C 0.23507 0.24772 0.74862 0.0
C603 C 0.22354 0.23711 0.73352 0.0
H604 H 0.26792 0.32668 0.76029 0.0
H605 H 0.21816 0.22306 0.73468 0.0
H606 H 0.30196 0.22568 0.78512 0.0
H607 H 0.34504 0.32977 0.82212 0.0
H608 H 0.2377 0.24195 0.7616 0.0
H609 H 0.20966 0.23661 0.70549 0.0
H610 H 0.32765 0.31236 0.79302 0.0
H611 H 0.26017 0.34282 0.73306 0.0
H612 H 0.21105 0.26435 0.68829 0.0
H613 H 0.22226 0.29691 0.68798 0.0
H614 H 0.30888 0.20778 0.81119 0.0
H615 H 0.24062 0.32625 0.70455 0.0
H616 H 0.3533 0.31401 0.84975 0.0
N617 N 0.3147 0.25093 0.80083 0.0
C618 C 0.32469 0.25945 0.81724 0.0
C619 C 0.3133 0.22231 0.81311 0.0
C620 C 0.32918 0.24969 0.83239 0.0
C621 C 0.30919 0.23256 0.79845 0.0
C622 C 0.32328 0.2309 0.83017 0.0
N623 N 0.3249 0.28719 0.80435 0.0
C624 C 0.33063 0.30541 0.80508 0.0
C625 C 0.34034 0.28749 0.83584 0.0
C626 C 0.33019 0.27814 0.81897 0.0
C627 C 0.3455 0.30631 0.83702 0.0
C628 C 0.34076 0.31527 0.8215 0.0
H629 H 0.32645 0.22291 0.84149 0.0
H630 H 0.34287 0.25167 0.86105 0.0
H631 H 0.35263 0.28474 0.86406 0.0
O632 O 0.33101 0.27996 0.76391 0.0
O633 O 0.29619 0.27697 0.80398 0.0
O634 O 0.27927 0.29781 0.7954 0.0
O635 O 0.32881 0.25383 0.77363 0.0
O636 O 0.30633 0.29311 0.76329 0.0
O637 O 0.28412 0.30614 0.7758 0.0
O638 O 0.23864 0.27599 0.78759 0.0
O639 O 0.27227 0.27587 0.74483 0.0
O640 O 0.29139 0.25623 0.75252 0.0
O641 O 0.24363 0.30223 0.7771 0.0
O642 O 0.26362 0.26013 0.78552 0.0
O643 O 0.28556 0.24727 0.77197 0.0
C644 C 0.28764 0.29017 0.80846 0.0
C645 C 0.34457 0.25834 0.74664 0.0
C646 C 0.36743 0.25912 0.72432 0.0
C647 C 0.35693 0.2436 0.71356 0.0
C648 C 0.33466 0.2426 0.73575 0.0
C649 C 0.34074 0.23539 0.7193 0.0
C650 C 0.36119 0.26651 0.74097 0.0
C651 C 0.29908 0.30728 0.76767 0.0
C652 C 0.3381 0.26555 0.76443 0.0
C653 C 0.3393 0.25895 0.84924 0.0
C654 C 0.34487 0.27779 0.85095 0.0
C655 C 0.28158 0.26331 0.73996 0.0
C656 C 0.21799 0.2974 0.79488 0.0
C657 C 0.19251 0.2939 0.81401 0.0
C658 C 0.18948 0.31095 0.80993 0.0
C659 C 0.21435 0.31443 0.79117 0.0
C660 C 0.20685 0.28699 0.80641 0.0
C661 C 0.20028 0.32108 0.79861 0.0
C662 C 0.27062 0.24598 0.78014 0.0
C663 C 0.23357 0.29148 0.78655 0.0
H664 H 0.36145 0.23762 0.70083 0.0
H665 H 0.32234 0.23568 0.74019 0.0
H666 H 0.33295 0.22324 0.71104 0.0
H667 H 0.3692 0.27845 0.74944 0.0
H668 H 0.17862 0.31647 0.81557 0.0
H669 H 0.22245 0.3228 0.78244 0.0
H670 H 0.20935 0.27386 0.80952 0.0
H671 H 0.19776 0.33421 0.79559 0.0
Tb672 Tb 0.03977 1.00372 0.52321 0.0
C673 C 0.01942 0.06963 0.56582 0.0
N674 N 0.01059 0.05994 0.54936 0.0
C675 C 0.98254 0.05897 0.56246 0.0
C676 C 0.01024 0.07354 0.5816 0.0
C677 C 0.99221 0.05579 0.54709 0.0
C678 C 0.99163 0.06753 0.57994 0.0
C679 C 0.04691 0.08829 0.58238 0.0
C680 C 0.03749 0.07695 0.56629 0.0
C681 C 0.03806 0.09141 0.59853 0.0
C682 C 0.01976 0.084 0.59815 0.0
Tb683 Tb 0.02845 0.05464 0.52591 0.0
N684 N 0.04573 0.07328 0.55059 0.0
C685 C 0.06477 0.09651 0.58152 0.0
C686 C 0.06269 0.08224 0.54909 0.0
C687 C 0.07259 0.09372 0.56467 0.0
H688 H 0.98481 0.05035 0.53337 0.0
H689 H 0.08621 0.10041 0.56368 0.0
H690 H 0.08369 0.00842 0.51883 0.0
H691 H 0.98106 0.9638 0.4798 0.0
H692 H 0.06861 0.08016 0.53598 0.0
H693 H 0.07247 0.10537 0.59358 0.0
H694 H 0.99742 0.98284 0.50842 0.0
H695 H 0.96804 0.05517 0.56068 0.0
H696 H 0.0451 0.09991 0.61117 0.0
H697 H 0.01297 0.08698 0.61049 0.0
H698 H 0.10225 0.99991 0.49424 0.0
H699 H 0.98407 0.07023 0.59173 0.0
H700 H 0.99757 0.95433 0.45338 0.0
N701 N 0.05884 0.99601 0.50228 0.0
C702 C 0.05085 0.98509 0.48622 0.0
C703 C 0.08779 0.99583 0.49171 0.0
C704 C 0.06103 0.9797 0.47187 0.0
C705 C 0.07713 1.00087 0.50552 0.0
C706 C 0.0797 0.98538 0.47471 0.0
N707 N 0.02295 0.98493 0.49821 0.0
C708 C 1.0048 0.97918 0.49697 0.0
C709 C 0.02352 0.96824 0.46754 0.0
C710 C 0.03234 0.97929 0.48415 0.0
C711 C 1.00485 0.96279 0.46593 0.0
C712 C 0.99548 0.96817 0.48078 0.0
H713 H 0.088 0.98152 0.46403 0.0
H714 H 0.05987 0.96462 0.444 0.0
H715 H 0.02704 0.95469 0.44015 0.0
O716 O 0.03223 0.97774 0.53173 0.0
O717 O 0.03381 0.01535 0.49602 0.0
O718 O 0.01429 0.0348 0.5025 0.0
O719 O 0.05819 0.99408 0.54195 0.0
O720 O 0.01407 0.00667 0.53326 0.0
O721 O 1.00452 0.0321 0.52258 0.0
O722 O 0.03729 0.07174 0.50532 0.0
O723 O 0.04655 0.04746 0.54905 0.0
O724 O 0.03303 0.01847 0.54863 0.0
O725 O 0.01681 0.07742 0.52216 0.0
O726 O 0.05129 0.04812 0.51171 0.0
O727 O 0.06262 0.02665 0.52788 0.0
C728 C 0.02116 0.02433 0.49045 0.0
C729 C 0.05453 0.96226 0.54417 0.0
C730 C 0.05505 0.93413 0.55872 0.0
C731 C 0.06841 0.93057 0.54735 0.0
C732 C 0.06789 0.95837 0.53305 0.0
C733 C 0.07482 0.94264 0.53474 0.0
C734 C 0.04823 0.95016 0.55717 0.0
C735 C 1.00143 0.01601 0.52907 0.0
C736 C 0.04715 0.97893 0.54281 0.0
C737 C 0.05229 0.96879 0.45524 0.0
C738 C 0.03358 0.9631 0.45306 0.0
C739 C 0.04357 0.03285 0.55765 0.0
C740 C 0.01645 0.0885 0.49206 0.0
C741 C 0.01438 0.11063 0.46899 0.0
C742 C 0.99668 0.10148 0.46265 0.0
C743 C 0.99892 0.07958 0.48512 0.0
C744 C 0.02418 0.10402 0.48394 0.0
C745 C 0.98912 0.0861 0.47056 0.0
C746 C 0.0648 0.04113 0.51871 0.0
C747 C 0.02621 0.08253 0.50866 0.0
H748 H 0.07399 0.91844 0.54834 0.0
H749 H 0.07297 0.96748 0.52312 0.0
H750 H 0.08521 0.93976 0.52617 0.0
H751 H 0.0379 0.95308 0.56582 0.0
H752 H 0.98846 0.10637 0.45171 0.0
H753 H 0.99267 0.06779 0.49125 0.0
H754 H 0.03774 0.11089 0.48927 0.0
H755 H 0.97549 0.07931 0.46552 0.0
Tb756 Tb 0.28532 0.80323 0.7595 0.0
C757 C 0.24501 0.73777 0.79933 0.0
N758 N 0.26041 0.75025 0.80492 0.0
C759 C 0.25136 0.75482 0.83637 0.0
C760 C 0.23194 0.73393 0.81193 0.0
C761 C 0.2641 0.75796 0.82357 0.0
C762 C 0.23511 0.74297 0.83047 0.0
C763 C 0.22717 0.71462 0.77526 0.0
C764 C 0.24259 0.72811 0.78115 0.0
C765 C 0.214 0.71118 0.78765 0.0
C766 C 0.21636 0.72082 0.8059 0.0
Tb767 Tb 0.27981 0.75293 0.78204 0.0
N768 N 0.25529 0.73208 0.76915 0.0
C769 C 0.22546 0.70496 0.75706 0.0
C770 C 0.25406 0.72222 0.75173 0.0
C771 C 0.23903 0.7087 0.7453 0.0
H772 H 0.277 0.7661 0.82912 0.0
H773 H 0.23801 0.70106 0.73138 0.0
H774 H 0.29168 0.78984 0.71361 0.0
H775 H 0.32361 0.85451 0.81339 0.0
H776 H 0.26478 0.72451 0.74297 0.0
H777 H 0.21382 0.69449 0.75203 0.0
H778 H 0.29779 0.83065 0.79987 0.0
H779 H 0.25429 0.76122 0.85096 0.0
H780 H 0.20201 0.70095 0.78332 0.0
H781 H 0.20617 0.7178 0.81539 0.0
H782 H 0.31505 0.79723 0.69295 0.0
H783 H 0.2254 0.74038 0.84055 0.0
H784 H 0.34827 0.86347 0.79392 0.0
N785 N 0.30588 0.80737 0.73806 0.0
C786 C 0.32028 0.8209 0.74435 0.0
C787 C 0.31682 0.80377 0.70747 0.0
C788 C 0.33378 0.8259 0.73252 0.0
C789 C 0.30369 0.79931 0.71958 0.0
C790 C 0.33199 0.81698 0.71401 0.0
N791 N 0.30851 0.82482 0.77402 0.0
C792 C 0.30888 0.83373 0.79176 0.0
C793 C 0.33625 0.84405 0.76956 0.0
C794 C 0.32149 0.83005 0.76269 0.0
C795 C 0.33712 0.8527 0.78812 0.0
C796 C 0.3233 0.84758 0.79922 0.0
H797 H 0.34205 0.82048 0.70449 0.0
H798 H 0.35898 0.84376 0.73048 0.0
H799 H 0.3612 0.85952 0.76288 0.0
O800 O 0.27472 0.82683 0.76748 0.0
O801 O 0.31096 0.79648 0.77313 0.0
O802 O 0.30743 0.76908 0.78697 0.0
O803 O 0.27589 0.81688 0.73766 0.0
O804 O 0.2737 0.79456 0.78463 0.0
O805 O 0.28769 0.77678 0.80236 0.0
O806 O 0.29112 0.73015 0.77224 0.0
O807 O 0.25454 0.75885 0.76664 0.0
O808 O 0.25754 0.78842 0.75802 0.0
O809 O 0.28811 0.73719 0.80228 0.0
O810 O 0.29161 0.76273 0.75768 0.0
O811 O 0.27771 0.77937 0.73883 0.0
C812 C 0.31741 0.78414 0.78263 0.0
C813 C 0.26325 0.84387 0.74243 0.0
C814 C 0.24851 0.86984 0.74705 0.0
C815 C 0.24782 0.87128 0.72739 0.0
C816 C 0.26234 0.84567 0.72278 0.0
C817 C 0.25464 0.85925 0.71536 0.0
C818 C 0.25617 0.85601 0.75464 0.0
C819 C 0.28302 0.79228 0.80029 0.0
C820 C 0.27132 0.82903 0.74953 0.0
C821 C 0.3485 0.83981 0.73939 0.0
C822 C 0.34974 0.84883 0.75783 0.0
C823 C 0.24782 0.77246 0.75996 0.0
C824 C 0.30029 0.71035 0.79587 0.0
C825 C 0.31807 0.68677 0.79179 0.0
C826 C 0.31435 0.68162 0.80971 0.0
C827 C 0.29666 0.70482 0.81374 0.0
C828 C 0.31094 0.70112 0.78473 0.0
C829 C 0.30365 0.69056 0.82056 0.0
C830 C 0.28225 0.76396 0.74174 0.0
C831 C 0.29326 0.72611 0.78972 0.0
H832 H 0.2419 0.88178 0.72131 0.0
H833 H 0.26758 0.83655 0.71303 0.0
H834 H 0.25399 0.86047 0.70021 0.0
H835 H 0.2567 0.85482 0.76981 0.0
H836 H 0.31977 0.67063 0.81531 0.0
H837 H 0.28845 0.71159 0.82256 0.0
H838 H 0.31395 0.70525 0.77098 0.0
H839 H 0.30083 0.6865 0.83437 0.0
Tb840 Tb 0.53367 0.04342 0.99775 0.0
C841 C 0.56323 0.9975 0.06814 0.0
N842 N 0.55129 0.99237 0.05211 0.0
C843 C 0.56286 0.96504 0.04641 0.0
C844 C 0.57583 0.98682 0.07358 0.0
C845 C 0.55058 0.97604 0.04161 0.0
C846 C 0.57565 0.97053 0.06234 0.0
C847 C 0.57477 0.01922 0.09604 0.0
C848 C 0.56268 0.01345 0.07929 0.0
C849 C 0.58754 0.00879 0.10132 0.0
C850 C 0.58806 0.99262 0.09012 0.0
Tb851 Tb 0.5322 0.01184 0.04571 0.0
N852 N 0.55042 0.02346 0.07347 0.0
C853 C 0.57361 0.03526 0.10704 0.0
C854 C 0.54866 0.03861 0.08475 0.0
C855 C 0.56036 0.04487 0.10147 0.0
H856 H 0.54031 0.97105 0.02976 0.0
H857 H 0.55902 0.05703 0.11016 0.0
H858 H 0.52216 0.08141 0.01427 0.0
H859 H 0.51195 1.00065 0.93031 0.0
H860 H 0.53812 0.04587 0.08129 0.0
H861 H 0.58265 0.04015 0.12001 0.0
H862 H 0.53305 0.01366 0.95863 0.0
H863 H 0.5623 0.95223 0.03792 0.0
H864 H 0.59699 0.01304 0.1141 0.0
H865 H 0.59789 0.98463 0.09446 0.0
H866 H 0.49792 0.09824 0.00722 0.0
H867 H 0.5851 0.96194 0.06605 0.0
H868 H 0.48432 0.01279 0.923 0.0
N869 N 0.51254 0.06057 0.99132 0.0
C870 C 0.50027 0.05455 0.97583 0.0
C871 C 0.49833 0.08588 0.99834 0.0
C872 C 0.48613 0.06366 0.97124 0.0
C873 C 0.51202 0.07625 0.00236 0.0
C874 C 0.4852 0.07947 0.98282 0.0
N875 N 0.51656 0.03162 0.96915 0.0
C876 C 0.52064 0.01855 0.95645 0.0
C877 C 0.4901 0.03283 0.94787 0.0
C878 C 0.50221 0.03936 0.96447 0.0
C879 C 0.49332 0.01827 0.93586 0.0
C880 C 0.50887 0.01136 0.93997 0.0
H881 H 0.47458 0.08693 0.97975 0.0
H882 H 0.46251 0.06354 0.95146 0.0
H883 H 0.46599 0.03648 0.93093 0.0
O884 O 0.55532 0.04509 0.98178 0.0
O885 O 0.50746 0.03677 0.00735 0.0
O886 O 0.5147 0.01231 0.01949 0.0
O887 O 0.54932 0.06912 0.99632 0.0
O888 O 0.53792 0.01502 0.99166 0.0
O889 O 0.53334 0.9967 0.017 0.0
O890 O 0.51097 0.01278 0.06224 0.0
O891 O 0.55963 0.026 0.04501 0.0
O892 O 0.54437 0.03154 0.02038 0.0
O893 O 0.51878 0.98748 0.0538 0.0
O894 O 0.52572 0.03978 0.04923 0.0
O895 O 0.53802 0.05859 0.02692 0.0
C896 C 0.50348 0.02335 0.01743 0.0
C897 C 0.55899 0.07083 0.96566 0.0
C898 C 0.56534 0.06864 0.93259 0.0
C899 C 0.56036 0.08549 0.93085 0.0
C900 C 0.55413 0.08769 0.9638 0.0
C901 C 0.55471 0.09489 0.94638 0.0
C902 C 0.56436 0.06138 0.94995 0.0
C903 C 0.53684 0.99934 0.99916 0.0
C904 C 0.55842 0.06266 0.98364 0.0
C905 C 0.47358 0.05683 0.95517 0.0
C906 C 0.47554 0.04141 0.94352 0.0
C907 C 0.56008 0.03364 0.0297 0.0
C908 C 0.50998 0.992 0.08468 0.0
C909 C 0.49911 0.997 0.1155 0.0
C910 C 0.51117 0.98688 0.12341 0.0
C911 C 0.52202 0.98191 0.09268 0.0
C912 C 0.49867 0.99947 0.09614 0.0
C913 C 0.52255 0.97938 0.112 0.0
C914 C 0.53083 0.05594 0.04315 0.0
C915 C 0.5094 0.99578 0.06475 0.0
H916 H 0.56132 0.09166 0.91772 0.0
H917 H 0.54988 0.09527 0.97572 0.0
H918 H 0.55104 0.10791 0.945 0.0
H919 H 0.56789 0.04825 0.95127 0.0
H920 H 0.51163 0.98458 0.13829 0.0
H921 H 0.53106 0.97611 0.08413 0.0
H922 H 0.48972 0.0076 0.08998 0.0
H923 H 0.5318 0.97159 0.11814 0.0
Tb924 Tb 0.27019 0.25105 0.25583 0.0
C925 C 0.33018 0.30951 0.30461 0.0
N926 N 0.31441 0.29945 0.30813 0.0
C927 C 0.32825 0.29515 0.33893 0.0
C928 C 0.34575 0.31231 0.31789 0.0
C929 C 0.31311 0.29299 0.32545 0.0
C930 C 0.34469 0.30466 0.33505 0.0
C931 C 0.34635 0.32892 0.28408 0.0
C932 C 0.3305 0.31783 0.28801 0.0
C933 C 0.36198 0.33136 0.29703 0.0
C934 C 0.36168 0.32308 0.3139 0.0
Tb935 Tb 0.2906 0.29809 0.28519 0.0
N936 N 0.31524 0.31496 0.27566 0.0
C937 C 0.34596 0.33724 0.26725 0.0
C938 C 0.31452 0.32378 0.25976 0.0
C939 C 0.32991 0.33476 0.25511 0.0
H940 H 0.30036 0.28684 0.32947 0.0
H941 H 0.32932 0.34151 0.24233 0.0
H942 H 0.25537 0.26374 0.21467 0.0
H943 H 0.23644 0.21108 0.3061 0.0
H944 H 0.30206 0.32264 0.25084 0.0
H945 H 0.35786 0.34583 0.26368 0.0
H946 H 0.26262 0.22599 0.29236 0.0
H947 H 0.32712 0.28986 0.35251 0.0
H948 H 0.37432 0.33978 0.29424 0.0
H949 H 0.37377 0.32533 0.32392 0.0
H950 H 0.22644 0.26065 0.19476 0.0
H951 H 0.35633 0.30655 0.34565 0.0
H952 H 0.20594 0.20921 0.2896 0.0
N953 N 0.24407 0.25075 0.2372 0.0
C954 C 0.22911 0.24108 0.24293 0.0
C955 C 0.22695 0.25533 0.20841 0.0
C956 C 0.21226 0.23881 0.23189 0.0
C957 C 0.24333 0.25737 0.21993 0.0
C958 C 0.21132 0.24613 0.21448 0.0
N959 N 0.24733 0.23565 0.2701 0.0
C960 C 0.24951 0.22685 0.28589 0.0
C961 C 0.21534 0.22421 0.26684 0.0
C962 C 0.23071 0.23377 0.26017 0.0
C963 C 0.21742 0.21657 0.28393 0.0
C964 C 0.23461 0.2177 0.29336 0.0
H965 H 0.19864 0.24458 0.20552 0.0
H966 H 0.18387 0.2276 0.23036 0.0
H967 H 0.18652 0.21495 0.26101 0.0
O968 O 0.26634 0.2229 0.24936 0.0
O969 O 0.25161 0.27015 0.26295 0.0
O970 O 0.26442 0.28426 0.29215 0.0
O971 O 0.27539 0.24056 0.22883 0.0
O972 O 0.28482 0.24939 0.28393 0.0
O973 O 0.28104 0.27557 0.30107 0.0
O974 O 0.27794 0.32015 0.28088 0.0
O975 O 0.30966 0.28627 0.26791 0.0
O976 O 0.29972 0.25528 0.26419 0.0
O977 O 0.29304 0.31833 0.30833 0.0
O978 O 0.2766 0.29802 0.25646 0.0
O979 O 0.28201 0.27241 0.23983 0.0
C980 C 0.24996 0.27833 0.27988 0.0
C981 C 0.2873 0.21408 0.2297 0.0
C982 C 0.30679 0.19381 0.24 0.0
C983 C 0.31595 0.19633 0.2239 0.0
C984 C 0.29633 0.2162 0.21344 0.0
C985 C 0.31067 0.20744 0.21066 0.0
C986 C 0.29256 0.20277 0.24286 0.0
C987 C 0.28454 0.25917 0.30029 0.0
C988 C 0.2728 0.22404 0.23309 0.0
C989 C 0.19695 0.22941 0.23859 0.0
C990 C 0.19846 0.22224 0.25608 0.0
C991 C 0.31249 0.26962 0.26376 0.0
C992 C 0.2792 0.34455 0.30628 0.0
C993 C 0.26567 0.37069 0.30165 0.0
C994 C 0.27021 0.37693 0.32117 0.0
C995 C 0.28384 0.35092 0.32575 0.0
C996 C 0.2701 0.35444 0.29434 0.0
C997 C 0.27928 0.36705 0.33314 0.0
C998 C 0.27919 0.28903 0.24045 0.0
C999 C 0.28337 0.32741 0.29841 0.0
H1000 H 0.32687 0.18935 0.22131 0.0
H1001 H 0.29244 0.2248 0.20303 0.0
H1002 H 0.31765 0.2092 0.19818 0.0
H1003 H 0.28572 0.20096 0.25546 0.0
H1004 H 0.26706 0.38958 0.32707 0.0
H1005 H 0.29085 0.34342 0.33525 0.0
H1006 H 0.26636 0.34948 0.27933 0.0
H1007 H 0.28286 0.37195 0.34815 0.0
Tb1008 Tb 0.54233 0.50261 0.02001 0.0
C1009 C 0.51755 0.57112 0.06162 0.0
N1010 N 0.50913 0.55868 0.04691 0.0
C1011 C 0.48137 0.557 0.06061 0.0
C1012 C 0.50823 0.57679 0.07663 0.0
C1013 C 0.49116 0.55192 0.04597 0.0
C1014 C 0.48996 0.56939 0.07608 0.0
C1015 C 0.54475 0.59156 0.07621 0.0
C1016 C 0.5356 0.57828 0.0615 0.0
C1017 C 0.53559 0.59715 0.09131 0.0
C1018 C 0.51739 0.58973 0.09155 0.0
Tb1019 Tb 0.52666 0.55143 0.02405 0.0
N1020 N 0.54418 0.5721 0.04698 0.0
C1021 C 0.56283 0.59883 0.07525 0.0
C1022 C 0.56149 0.57983 0.04544 0.0
C1023 C 0.57117 0.59307 0.05968 0.0
H1024 H 0.48416 0.54305 0.0337 0.0
H1025 H 0.58498 0.59899 0.05849 0.0
H1026 H 0.58463 0.51153 0.00985 0.0
H1027 H 0.48165 0.46188 0.98103 0.0
H1028 H 0.56773 0.57632 0.03302 0.0
H1029 H 0.57036 0.60909 0.08624 0.0
H1030 H 0.49972 0.4813 0.00847 0.0
H1031 H 0.46715 0.55152 0.05982 0.0
H1032 H 0.54243 0.60724 0.10283 0.0
H1033 H 0.51047 0.59423 0.10324 0.0
H1034 H 0.60128 0.50358 0.98318 0.0
H1035 H 0.48232 0.57338 0.08734 0.0
H1036 H 0.49611 0.45265 0.95285 0.0
N1037 N 0.55944 0.49646 0.9964 0.0
C1038 C 0.55062 0.48501 0.98106 0.0
C1039 C 0.58701 0.49836 0.98236 0.0
C1040 C 0.55967 0.47998 0.96557 0.0
C1041 C 0.57745 0.50303 0.99736 0.0
C1042 C 0.57809 0.48681 0.96638 0.0
N1043 N 0.52386 0.48462 0.99553 0.0
C1044 C 0.50605 0.47818 0.99605 0.0
C1045 C 0.52254 0.46737 0.96472 0.0
C1046 C 0.53225 0.47883 0.98062 0.0
C1047 C 0.50406 0.46148 0.96479 0.0
C1048 C 0.49583 0.46678 0.98061 0.0
H1049 H 0.58554 0.48326 0.95477 0.0
H1050 H 0.55677 0.46448 0.93768 0.0
H1051 H 0.52428 0.45342 0.93695 0.0
O1052 O 0.53382 0.47911 0.03413 0.0
O1053 O 0.53616 0.51478 0.9933 0.0
O1054 O 0.51436 0.53024 0.00124 0.0
O1055 O 0.56117 0.48686 0.02745 0.0
O1056 O 0.51827 0.50503 0.03433 0.0
O1057 O 0.50572 0.5269 0.0202 0.0
O1058 O 0.53441 0.57121 0.00487 0.0
O1059 O 0.53562 0.54221 0.05161 0.0
O1060 O 0.55351 0.52076 0.04583 0.0
O1061 O 0.50857 0.5676 0.016 0.0
O1062 O 0.5514 0.54848 0.01136 0.0
O1063 O 0.56369 0.52675 0.02623 0.0
C1064 C 0.52298 0.52314 0.98831 0.0
C1065 C 0.55566 0.45949 0.04286 0.0
C1066 C 0.55187 0.43358 0.0616 0.0
C1067 C 0.56844 0.43 0.05686 0.0
C1068 C 0.5722 0.45536 0.0385 0.0
C1069 C 0.57849 0.4408 0.04545 0.0
C1070 C 0.5454 0.44847 0.05459 0.0
C1071 C 0.50447 0.51275 0.02989 0.0
C1072 C 0.54989 0.47536 0.03489 0.0
C1073 C 0.55004 0.4685 0.94973 0.0
C1074 C 0.53153 0.46221 0.9493 0.0
C1075 C 0.54635 0.53137 0.0574 0.0
C1076 C 0.51221 0.58975 0.99372 0.0
C1077 C 0.51623 0.6154 0.97472 0.0
C1078 C 0.49754 0.61408 0.97213 0.0
C1079 C 0.49353 0.58888 0.99072 0.0
C1080 C 0.52367 0.60319 0.98564 0.0
C1081 C 0.48631 0.60095 0.98008 0.0
C1082 C 0.56524 0.54158 0.01769 0.0
C1083 C 0.519 0.57637 0.00522 0.0
H1084 H 0.57364 0.41871 0.06206 0.0
H1085 H 0.58037 0.4634 0.02956 0.0
H1086 H 0.59125 0.43785 0.04193 0.0
H1087 H 0.53263 0.45137 0.05815 0.0
H1088 H 0.4916 0.62337 0.96396 0.0
H1089 H 0.48435 0.57876 0.99659 0.0
H1090 H 0.53809 0.60415 0.98779 0.0
H1091 H 0.47192 0.60013 0.97799 0.0
Tb1092 Tb 0.78379 0.30317 0.26234 0.0
C1093 C 0.74478 0.2383 0.29429 0.0
N1094 N 0.76013 0.25026 0.30137 0.0
C1095 C 0.74903 0.25354 0.33192 0.0
C1096 C 0.73061 0.23423 0.30553 0.0
C1097 C 0.76281 0.25691 0.32034 0.0
C1098 C 0.73274 0.24241 0.3244 0.0
C1099 C 0.72826 0.21635 0.2684 0.0
C1100 C 0.7436 0.22929 0.27601 0.0
C1101 C 0.71389 0.21275 0.27933 0.0
C1102 C 0.71506 0.22167 0.29784 0.0
Tb1103 Tb 0.78146 0.25394 0.28056 0.0
N1104 N 0.75754 0.23342 0.26559 0.0
C1105 C 0.7279 0.20735 0.25007 0.0
C1106 C 0.75769 0.22415 0.2481 0.0
C1107 C 0.74275 0.21116 0.23995 0.0
H1108 H 0.7757 0.26426 0.32702 0.0
H1109 H 0.74271 0.20405 0.22593 0.0
H1110 H 0.78453 0.29536 0.21492 0.0
H1111 H 0.82757 0.34922 0.31735 0.0
H1112 H 0.76929 0.22692 0.24047 0.0
H1113 H 0.71634 0.19729 0.24371 0.0
H1114 H 0.79994 0.32758 0.30402 0.0
H1115 H 0.75117 0.25915 0.3468 0.0
H1116 H 0.70191 0.20292 0.2737 0.0
H1117 H 0.70401 0.21847 0.30624 0.0
H1118 H 0.80578 0.30403 0.19195 0.0
H1119 H 0.72219 0.2396 0.33351 0.0
H1120 H 0.85077 0.35895 0.29637 0.0
N1121 N 0.80157 0.31038 0.23904 0.0
C1122 C 0.81683 0.32281 0.24509 0.0
C1123 C 0.80916 0.30923 0.2069 0.0
C1124 C 0.82927 0.32831 0.23233 0.0
C1125 C 0.79725 0.30411 0.22009 0.0
C1126 C 0.82534 0.3212 0.21307 0.0
N1127 N 0.8079 0.32417 0.27624 0.0
C1128 C 0.81019 0.33125 0.29495 0.0
C1129 C 0.83593 0.34255 0.27112 0.0
C1130 C 0.82006 0.33001 0.26424 0.0
C1131 C 0.83873 0.34931 0.29051 0.0
C1132 C 0.82571 0.34377 0.30243 0.0
H1133 H 0.83454 0.3251 0.20281 0.0
H1134 H 0.85494 0.34502 0.22959 0.0
H1135 H 0.86082 0.35736 0.26353 0.0
O1136 O 0.77659 0.32861 0.26805 0.0
O1137 O 0.81048 0.2949 0.26921 0.0
O1138 O 0.80706 0.27294 0.29018 0.0
O1139 O 0.76604 0.31128 0.24176 0.0
O1140 O 0.77538 0.29911 0.29031 0.0
O1141 O 0.78944 0.27717 0.30218 0.0
O1142 O 0.79594 0.23318 0.27214 0.0
O1143 O 0.75776 0.25956 0.26232 0.0
O1144 O 0.75908 0.28917 0.27236 0.0
O1145 O 0.78672 0.23634 0.3002 0.0
O1146 O 0.79419 0.26036 0.25531 0.0
O1147 O 0.77739 0.27919 0.24155 0.0
C1148 C 0.81726 0.2853 0.28189 0.0
C1149 C 0.7644 0.34254 0.24244 0.0
C1150 C 0.75006 0.36874 0.23987 0.0
C1151 C 0.75687 0.37096 0.22233 0.0
C1152 C 0.77128 0.34508 0.22504 0.0
C1153 C 0.76755 0.35931 0.21509 0.0
C1154 C 0.75407 0.3546 0.24998 0.0
C1155 C 0.78309 0.2921 0.30434 0.0
C1156 C 0.76597 0.32649 0.25213 0.0
C1157 C 0.84516 0.34074 0.23916 0.0
C1158 C 0.8485 0.34781 0.2585 0.0
C1159 C 0.74965 0.27351 0.26453 0.0
C1160 C 0.80276 0.21197 0.29519 0.0
C1161 C 0.82051 0.18841 0.29087 0.0
C1162 C 0.81806 0.1841 0.30938 0.0
C1163 C 0.80043 0.2073 0.31369 0.0
C1164 C 0.81281 0.20235 0.28367 0.0
C1165 C 0.80802 0.19347 0.32068 0.0
C1166 C 0.78689 0.26637 0.24031 0.0
C1167 C 0.79518 0.22736 0.28882 0.0
H1168 H 0.75392 0.38174 0.21425 0.0
H1169 H 0.77916 0.33589 0.21896 0.0
H1170 H 0.77271 0.36114 0.20156 0.0
H1171 H 0.74849 0.35249 0.26329 0.0
H1172 H 0.82396 0.17343 0.31509 0.0
H1173 H 0.79283 0.21444 0.32293 0.0
H1174 H 0.81485 0.2058 0.26944 0.0
H1175 H 0.80621 0.19008 0.33496 0.0
Tb1176 Tb 0.03262 0.54346 0.4972 0.0
C1177 C 0.06243 0.49785 0.56795 0.0
N1178 N 0.0504 0.49241 0.55204 0.0
C1179 C 0.0619 0.465 0.54691 0.0
C1180 C 0.07504 0.48727 0.57362 0.0
C1181 C 0.04965 0.47593 0.54184 0.0
C1182 C 0.07476 0.47075 0.56276 0.0
C1183 C 0.07432 0.52024 0.5952 0.0
C1184 C 0.06205 0.51411 0.57864 0.0
C1185 C 0.08708 0.50988 0.60073 0.0
C1186 C 0.08743 0.49343 0.58997 0.0
Tb1187 Tb 0.03142 0.51176 0.545 0.0
N1188 N 0.04982 0.52404 0.57254 0.0
C1189 C 0.07336 0.53657 0.60575 0.0
C1190 C 0.04823 0.53949 0.58345 0.0
C1191 C 0.06011 0.54611 0.59996 0.0
H1192 H 0.03937 0.47087 0.53001 0.0
H1193 H 0.05892 0.55849 0.60834 0.0
H1194 H 0.01972 0.58042 0.51479 0.0
H1195 H 0.01436 0.50375 0.42773 0.0
H1196 H 0.03769 0.54673 0.57993 0.0
H1197 H 0.08255 0.54176 0.61855 0.0
H1198 H 0.03426 0.51597 0.45727 0.0
H1199 H 0.06131 0.45204 0.53867 0.0
H1200 H 0.09666 0.51442 0.61335 0.0
H1201 H 0.09727 0.48552 0.59449 0.0
H1202 H 0.99502 0.5967 0.5078 0.0
H1203 H 0.08422 0.46222 0.56665 0.0
H1204 H 0.98626 0.51506 0.42025 0.0
N1205 N 0.01111 0.56023 0.49101 0.0
C1206 C 0.99932 0.55448 0.47509 0.0
C1207 C 0.99598 0.58474 0.49855 0.0
C1208 C 0.98496 0.5633 0.47051 0.0
C1209 C 0.00993 0.57542 0.50252 0.0
C1210 C 0.9833 0.57854 0.48258 0.0
N1211 N 0.01663 0.53257 0.46788 0.0
C1212 C 0.02166 0.52048 0.4548 0.0
C1213 C 0.99059 0.53387 0.44607 0.0
C1214 C 1.00205 0.53995 0.4632 0.0
C1215 C 0.99474 0.52018 0.43353 0.0
C1216 C 0.01057 0.51374 0.43774 0.0
H1217 H 0.9725 0.58578 0.47953 0.0
H1218 H 0.96174 0.56329 0.4502 0.0
H1219 H 0.96668 0.53747 0.42873 0.0
O1220 O 0.05545 0.54554 0.48287 0.0
O1221 O 1.00634 0.53646 0.50671 0.0
O1222 O 0.0138 0.51204 0.51881 0.0
O1223 O 0.04756 0.5694 0.49557 0.0
O1224 O 0.03591 0.51477 0.49047 0.0
O1225 O 0.03313 0.49676 0.51633 0.0
O1226 O 0.01037 0.51263 0.56176 0.0
O1227 O 0.05899 0.52508 0.54355 0.0
O1228 O 0.04324 0.53169 0.51988 0.0
O1229 O 0.01794 0.48732 0.55291 0.0
O1230 O 0.02445 0.53949 0.54843 0.0
O1231 O 0.03716 0.55836 0.52646 0.0
C1232 C 1.00243 0.52293 0.51671 0.0
C1233 C 0.05873 0.57073 0.4657 0.0
C1234 C 0.0649 0.56753 0.4326 0.0
C1235 C 0.06066 0.58464 0.43052 0.0
C1236 C 0.05467 0.58786 0.46349 0.0
C1237 C 0.05552 0.59469 0.44591 0.0
C1238 C 0.06366 0.56063 0.45014 0.0
C1239 C 0.03571 0.49926 0.49819 0.0
C1240 C 0.05771 0.56307 0.48395 0.0
C1241 C 0.97298 0.55681 0.45391 0.0
C1242 C 0.97577 0.54208 0.44172 0.0
C1243 C 0.05916 0.53305 0.52847 0.0
C1244 C 0.00946 0.49169 0.58398 0.0
C1245 C 0.99911 0.49685 0.61505 0.0
C1246 C 0.01122 0.4867 0.62276 0.0
C1247 C 0.02155 0.48155 0.59178 0.0
C1248 C 0.99834 0.49923 0.59566 0.0
C1249 C 0.02236 0.47908 0.61112 0.0
C1250 C 0.02963 0.55567 0.54246 0.0
C1251 C 1.00872 0.49559 0.56409 0.0
H1252 H 0.06187 0.59051 0.41725 0.0
H1253 H 0.05083 0.59595 0.4753 0.0
H1254 H 0.05245 0.60792 0.44427 0.0
H1255 H 0.06667 0.54734 0.45168 0.0
H1256 H 0.01193 0.48447 0.63768 0.0
H1257 H 0.03043 0.4757 0.58306 0.0
H1258 H 0.98935 0.50739 0.58965 0.0
H1259 H 0.03167 0.47127 0.61711 0.0
Tb1260 Tb 0.80879 0.76906 0.27771 0.0
C1261 C 0.74398 0.79297 0.23166 0.0
N1262 N 0.75487 0.80182 0.24734 0.0
C1263 C 0.75682 0.82974 0.23348 0.0
C1264 C 0.73933 0.80215 0.21607 0.0
C1265 C 0.76106 0.82006 0.24859 0.0
C1266 C 0.74598 0.82074 0.2171 0.0
C1267 C 0.72629 0.76485 0.21525 0.0
C1268 C 0.73759 0.77456 0.23124 0.0
C1269 C 0.72169 0.7739 0.1996 0.0
C1270 C 0.7282 0.7925 0.20001 0.0
Tb1271 Tb 0.76067 0.78445 0.27104 0.0
N1272 N 0.7427 0.76617 0.24645 0.0
C1273 C 0.71986 0.74637 0.21555 0.0
C1274 C 0.73559 0.74844 0.24729 0.0
C1275 C 0.72436 0.73819 0.23175 0.0
H1276 H 0.76885 0.82734 0.26144 0.0
H1277 H 0.71895 0.72405 0.23241 0.0
H1278 H 0.8014 0.72559 0.28518 0.0
H1279 H 0.84649 0.82951 0.32028 0.0
H1280 H 0.73803 0.74228 0.26006 0.0
H1281 H 0.71112 0.73841 0.20357 0.0
H1282 H 0.82874 0.81191 0.29152 0.0
H1283 H 0.76178 0.84417 0.23455 0.0
H1284 H 0.71305 0.76666 0.18716 0.0
H1285 H 0.72448 0.79931 0.18787 0.0
H1286 H 0.80834 0.7079 0.31145 0.0
H1287 H 0.74269 0.8283 0.20543 0.0
H1288 H 0.85444 0.81407 0.34827 0.0
N1289 N 0.81452 0.75088 0.30053 0.0
C1290 C 0.82468 0.75949 0.3168 0.0
C1291 C 0.81292 0.72242 0.31317 0.0
C1292 C 0.82919 0.74985 0.33205 0.0
C1293 C 0.8088 0.73254 0.2984 0.0
C1294 C 0.82311 0.7311 0.33009 0.0
N1295 N 0.82518 0.78705 0.30348 0.0
C1296 C 0.8314 0.80514 0.30379 0.0
C1297 C 0.84082 0.78757 0.33491 0.0
C1298 C 0.83038 0.77814 0.31825 0.0
C1299 C 0.84638 0.80632 0.33573 0.0
C1300 C 0.84181 0.8151 0.32001 0.0
H1301 H 0.82629 0.7232 0.34149 0.0
H1302 H 0.84316 0.75203 0.3606 0.0
H1303 H 0.85337 0.78502 0.36309 0.0
O1304 O 0.83059 0.7792 0.26282 0.0
O1305 O 0.79607 0.77631 0.3036 0.0
O1306 O 0.7793 0.7976 0.29583 0.0
O1307 O 0.82835 0.75326 0.27304 0.0
O1308 O 0.80637 0.7932 0.26322 0.0
O1309 O 0.78445 0.80609 0.27646 0.0
O1310 O 0.73837 0.77605 0.28687 0.0
O1311 O 0.77274 0.77648 0.24484 0.0
O1312 O 0.79091 0.75598 0.25224 0.0
O1313 O 0.74399 0.80262 0.27723 0.0
O1314 O 0.76331 0.76015 0.28521 0.0
O1315 O 0.78516 0.74714 0.27161 0.0
C1316 C 0.78811 0.78986 0.30848 0.0
C1317 C 0.84441 0.75736 0.24616 0.0
C1318 C 0.86799 0.75779 0.2247 0.0
C1319 C 0.85815 0.74163 0.21454 0.0
C1320 C 0.83489 0.74127 0.23555 0.0
C1321 C 0.84179 0.73345 0.21995 0.0
C1322 C 0.86111 0.7656 0.2407 0.0
C1323 C 0.79913 0.80732 0.2679 0.0
C1324 C 0.83765 0.7648 0.26365 0.0
C1325 C 0.83955 0.75921 0.34872 0.0
C1326 C 0.84536 0.77801 0.35014 0.0
C1327 C 0.78134 0.76339 0.2398 0.0
C1328 C 0.71785 0.79758 0.29425 0.0
C1329 C 0.69235 0.79418 0.31334 0.0
C1330 C 0.68921 0.81112 0.30899 0.0
C1331 C 0.71409 0.81448 0.29024 0.0
C1332 C 0.70677 0.78728 0.3059 0.0
C1333 C 0.69995 0.82113 0.29752 0.0
C1334 C 0.77025 0.74595 0.27987 0.0
C1335 C 0.73357 0.7917 0.28618 0.0
H1336 H 0.86324 0.73525 0.2024 0.0
H1337 H 0.82221 0.73456 0.2395 0.0
H1338 H 0.83445 0.72092 0.21204 0.0
H1339 H 0.86867 0.77795 0.24883 0.0
H1340 H 0.67829 0.81663 0.31451 0.0
H1341 H 0.72214 0.82276 0.28139 0.0
H1342 H 0.70937 0.77425 0.30925 0.0
H1343 H 0.69732 0.83417 0.29428 0.0
Tb1344 Tb 0.7666 0.27891 0.7987 0.0
C1345 C 0.81023 0.24815 0.72662 0.0
N1346 N 0.81618 0.26019 0.74245 0.0
C1347 C 0.84291 0.2477 0.74708 0.0
C1348 C 0.82014 0.23498 0.72076 0.0
C1349 C 0.83259 0.2605 0.75234 0.0
C1350 C 0.83657 0.23474 0.73135 0.0
C1351 C 0.78756 0.23701 0.69959 0.0
C1352 C 0.79414 0.24913 0.71622 0.0
C1353 C 0.79718 0.22361 0.69392 0.0
C1354 C 0.81343 0.22259 0.70448 0.0
Tb1355 Tb 0.79756 0.27959 0.75049 0.0
N1356 N 0.78498 0.26202 0.72244 0.0
C1357 C 0.77163 0.23885 0.68905 0.0
C1358 C 0.77007 0.26459 0.71142 0.0
C1359 C 0.76301 0.25289 0.69484 0.0
H1360 H 0.838 0.2708 0.76411 0.0
H1361 H 0.75103 0.25485 0.6864 0.0
H1362 H 0.73038 0.29287 0.78104 0.0
H1363 H 0.80597 0.29654 0.8682 0.0
H1364 H 0.76361 0.27582 0.71487 0.0
H1365 H 0.76613 0.22983 0.67619 0.0
H1366 H 0.79336 0.2766 0.83866 0.0
H1367 H 0.8558 0.24791 0.7551 0.0
H1368 H 0.79226 0.21408 0.68127 0.0
H1369 H 0.82079 0.21228 0.69984 0.0
H1370 H 0.71526 0.31861 0.78765 0.0
H1371 H 0.84459 0.22484 0.72732 0.0
H1372 H 0.7959 0.32554 0.87535 0.0
N1373 N 0.75061 0.30119 0.80473 0.0
C1374 C 0.75669 0.31314 0.82052 0.0
C1375 C 0.72699 0.31731 0.79695 0.0
C1376 C 0.74851 0.32807 0.8249 0.0
C1377 C 0.73565 0.30276 0.7932 0.0
C1378 C 0.73357 0.33015 0.81276 0.0
N1379 N 0.77776 0.29501 0.82789 0.0
C1380 C 0.78936 0.28954 0.84109 0.0
C1381 C 0.77732 0.32162 0.84948 0.0
C1382 C 0.77094 0.31004 0.83244 0.0
C1383 C 0.79059 0.31701 0.86212 0.0
C1384 C 0.79632 0.30067 0.85811 0.0
H1385 H 0.72685 0.34142 0.81563 0.0
H1386 H 0.7494 0.35188 0.8449 0.0
H1387 H 0.77462 0.34618 0.86652 0.0
O1388 O 0.76456 0.25594 0.81321 0.0
O1389 O 0.77373 0.30536 0.78897 0.0
O1390 O 0.79735 0.29689 0.77682 0.0
O1391 O 0.74085 0.26451 0.80138 0.0
O1392 O 0.7952 0.27548 0.80529 0.0
O1393 O 0.81255 0.27724 0.77893 0.0
O1394 O 0.79714 0.30127 0.73428 0.0
O1395 O 0.78522 0.25169 0.75285 0.0
O1396 O 0.77753 0.26781 0.77563 0.0
O1397 O 0.82211 0.29362 0.74377 0.0
O1398 O 0.76982 0.28627 0.74712 0.0
O1399 O 0.75128 0.27405 0.76961 0.0
C1400 C 0.78706 0.30879 0.7788 0.0
C1401 C 0.74048 0.25349 0.83153 0.0
C1402 C 0.74324 0.24384 0.86331 0.0
C1403 C 0.72987 0.25342 0.86834 0.0
C1404 C 0.72711 0.26302 0.83672 0.0
C1405 C 0.72185 0.26292 0.85506 0.0
C1406 C 0.74838 0.24392 0.84487 0.0
C1407 C 0.81039 0.27503 0.79723 0.0
C1408 C 0.74724 0.25416 0.81281 0.0
C1409 C 0.75536 0.3402 0.84135 0.0
C1410 C 0.76976 0.33699 0.85362 0.0
C1411 C 0.77689 0.25169 0.76768 0.0
C1412 C 0.81894 0.30338 0.71318 0.0
C1413 C 0.81373 0.31333 0.68196 0.0
C1414 C 0.82491 0.30206 0.67476 0.0
C1415 C 0.83014 0.29213 0.7059 0.0
C1416 C 0.81106 0.31417 0.70121 0.0
C1417 C 0.83318 0.29162 0.68676 0.0
C1418 C 0.75384 0.2811 0.75329 0.0
C1419 C 0.81423 0.30329 0.73272 0.0
H1420 H 0.72545 0.25337 0.88241 0.0
H1421 H 0.72087 0.27068 0.82674 0.0
H1422 H 0.71155 0.27026 0.85901 0.0
H1423 H 0.75893 0.23686 0.84098 0.0
H1424 H 0.82728 0.3014 0.65989 0.0
H1425 H 0.83634 0.28359 0.71486 0.0
H1426 H 0.80226 0.32272 0.70672 0.0
H1427 H 0.84178 0.28295 0.68116 0.0
Tb1428 Tb 0.76876 0.75194 0.7558 0.0
C1429 C 0.83051 0.81042 0.80435 0.0
N1430 N 0.81476 0.80084 0.80853 0.0
C1431 C 0.82896 0.79723 0.83935 0.0
C1432 C 0.84622 0.81346 0.81742 0.0
C1433 C 0.8137 0.79461 0.82596 0.0
C1434 C 0.84532 0.80659 0.83502 0.0
C1435 C 0.84681 0.82746 0.78206 0.0
C1436 C 0.83081 0.81737 0.78692 0.0
C1437 C 0.86255 0.83033 0.79494 0.0
C1438 C 0.86225 0.82337 0.81258 0.0
Tb1439 Tb 0.79078 0.79843 0.7857 0.0
N1440 N 0.8154 0.81405 0.77464 0.0
C1441 C 0.84645 0.8345 0.7645 0.0
C1442 C 0.81471 0.82195 0.75813 0.0
C1443 C 0.83026 0.83191 0.75258 0.0
H1444 H 0.80104 0.7882 0.82998 0.0
H1445 H 0.82966 0.83791 0.73931 0.0
H1446 H 0.75804 0.76381 0.71237 0.0
H1447 H 0.72855 0.71969 0.80632 0.0
H1448 H 0.80218 0.82125 0.74951 0.0
H1449 H 0.85845 0.84234 0.76023 0.0
H1450 H 0.75658 0.73263 0.79441 0.0
H1451 H 0.82803 0.79226 0.85312 0.0
H1452 H 0.87498 0.83804 0.79147 0.0
H1453 H 0.87447 0.82582 0.82243 0.0
H1454 H 0.73056 0.76155 0.69034 0.0
H1455 H 0.85709 0.80869 0.84549 0.0
H1456 H 0.69957 0.71717 0.78627 0.0
N1457 N 0.74441 0.75227 0.73447 0.0
C1458 C 0.72843 0.74404 0.7395 0.0
C1459 C 0.72975 0.75678 0.70422 0.0
C1460 C 0.71239 0.74219 0.72713 0.0
C1461 C 0.74531 0.75839 0.71697 0.0
C1462 C 0.71321 0.7487 0.70933 0.0
N1463 N 0.74384 0.73997 0.76909 0.0
C1464 C 0.74414 0.73296 0.78614 0.0
C1465 C 0.71172 0.72964 0.76323 0.0
C1466 C 0.72811 0.7378 0.75738 0.0
C1467 C 0.71189 0.72349 0.78124 0.0
C1468 C 0.7282 0.72502 0.79267 0.0
H1469 H 0.70119 0.74743 0.69938 0.0
H1470 H 0.68361 0.73239 0.72356 0.0
H1471 H 0.68302 0.72148 0.75515 0.0
O1472 O 0.76945 0.72459 0.75769 0.0
O1473 O 0.7509 0.77138 0.76372 0.0
O1474 O 0.76426 0.78558 0.7928 0.0
O1475 O 0.76661 0.73455 0.73038 0.0
O1476 O 0.78395 0.75056 0.78384 0.0
O1477 O 0.78051 0.77644 0.80161 0.0
O1478 O 0.78045 0.82183 0.78108 0.0
O1479 O 0.81129 0.78367 0.77475 0.0
O1480 O 0.79766 0.75937 0.75228 0.0
O1481 O 0.79251 0.81793 0.80938 0.0
O1482 O 0.77687 0.79796 0.75673 0.0
O1483 O 0.78158 0.77238 0.73941 0.0
C1484 C 0.74966 0.77967 0.7807 0.0
C1485 C 0.78453 0.71252 0.73373 0.0
C1486 C 0.8049 0.69225 0.74088 0.0
C1487 C 0.81483 0.69802 0.7262 0.0
C1488 C 0.79425 0.71793 0.71868 0.0
C1489 C 0.80937 0.7107 0.71501 0.0
C1490 C 0.78975 0.69942 0.74448 0.0
C1491 C 0.78387 0.76002 0.80045 0.0
C1492 C 0.76971 0.72109 0.73936 0.0
C1493 C 0.69607 0.73397 0.7329 0.0
C1494 C 0.69573 0.72777 0.75091 0.0
C1495 C 0.81215 0.77038 0.76145 0.0
C1496 C 0.78116 0.84559 0.80701 0.0
C1497 C 0.76765 0.87181 0.80279 0.0
C1498 C 0.77263 0.87806 0.82226 0.0
C1499 C 0.78619 0.85196 0.82643 0.0
C1500 C 0.77196 0.85558 0.79528 0.0
C1501 C 0.78191 0.86816 0.83399 0.0
C1502 C 0.77978 0.78932 0.74065 0.0
C1503 C 0.78468 0.82819 0.79907 0.0
H1504 H 0.82655 0.69248 0.72319 0.0
H1505 H 0.79049 0.72804 0.71007 0.0
H1506 H 0.81697 0.71508 0.7036 0.0
H1507 H 0.78227 0.69512 0.75605 0.0
H1508 H 0.76956 0.8907 0.82833 0.0
H1509 H 0.79327 0.84437 0.83578 0.0
H1510 H 0.76781 0.85057 0.78034 0.0
H1511 H 0.78576 0.87303 0.84897 0.0
Tb1512 Tb 0.55588 0.54085 0.53792 0.0
C1513 C 0.49997 0.47716 0.49077 0.0
N1514 N 0.50774 0.49358 0.48619 0.0
C1515 C 0.50991 0.48024 0.45453 0.0
C1516 C 0.49709 0.46155 0.47742 0.0
C1517 C 0.51237 0.49537 0.46819 0.0
C1518 C 0.50232 0.46325 0.45918 0.0
C1519 C 0.4864 0.45932 0.51415 0.0
C1520 C 0.49471 0.47603 0.50893 0.0
C1521 C 0.4836 0.44373 0.50093 0.0
C1522 C 0.48894 0.44484 0.48262 0.0
Tb1523 Tb 0.50984 0.5172 0.50953 0.0
N1524 N 0.49794 0.49135 0.52151 0.0
C1525 C 0.48098 0.45883 0.53245 0.0
C1526 C 0.49163 0.49111 0.53887 0.0
C1527 C 0.48343 0.47485 0.54478 0.0
H1528 H 0.51727 0.50849 0.46399 0.0
H1529 H 0.47865 0.47475 0.55868 0.0
H1530 H 0.54615 0.55092 0.58245 0.0
H1531 H 0.58608 0.58234 0.48723 0.0
H1532 H 0.49214 0.50342 0.54792 0.0
H1533 H 0.4745 0.44627 0.537 0.0
H1534 H 0.57358 0.55389 0.49897 0.0
H1535 H 0.5136 0.48176 0.44031 0.0
H1536 H 0.47721 0.43076 0.50468 0.0
H1537 H 0.48658 0.43271 0.47254 0.0
H1538 H 0.54887 0.57828 0.60501 0.0
H1539 H 0.50029 0.45158 0.4485 0.0
H1540 H 0.58915 0.61127 0.50787 0.0
N1541 N 0.55633 0.5651 0.56 0.0
C1542 C 0.56404 0.58137 0.55496 0.0
C1543 C 0.55298 0.57936 0.59089 0.0
C1544 C 0.56627 0.59734 0.56768 0.0
C1545 C 0.55107 0.56386 0.57783 0.0
C1546 C 0.56056 0.59617 0.58579 0.0
N1547 N 0.56703 0.56635 0.52482 0.0
C1548 C 0.57349 0.56631 0.50753 0.0
C1549 C 0.57747 0.59865 0.53108 0.0
C1550 C 0.56957 0.58201 0.53684 0.0
C1551 C 0.58302 0.59877 0.51283 0.0
C1552 C 0.58118 0.58249 0.50108 0.0
H1553 H 0.56212 0.60813 0.596 0.0
H1554 H 0.57602 0.62632 0.57159 0.0
H1555 H 0.58578 0.62747 0.53956 0.0
O1556 O 0.58199 0.53766 0.53355 0.0
O1557 O 0.53659 0.55874 0.52989 0.0
O1558 O 0.51996 0.5447 0.50193 0.0
O1559 O 0.57533 0.54496 0.56176 0.0
O1560 O 0.55622 0.52571 0.50958 0.0
O1561 O 0.53008 0.52876 0.49232 0.0
O1562 O 0.4852 0.52345 0.51593 0.0
O1563 O 0.52743 0.49798 0.51873 0.0
O1564 O 0.54767 0.51257 0.54443 0.0
O1565 O 0.48891 0.51398 0.48718 0.0
O1566 O 0.51041 0.53213 0.53809 0.0
O1567 O 0.53627 0.52814 0.55507 0.0
C1568 C 0.5272 0.55961 0.5134 0.0
C1569 C 0.59612 0.52577 0.55888 0.0
C1570 C 0.61858 0.50739 0.55522 0.0
C1571 C 0.61286 0.49781 0.57018 0.0
C1572 C 0.59035 0.51629 0.57402 0.0
C1573 C 0.59876 0.50235 0.57962 0.0
C1574 C 0.61034 0.52135 0.5497 0.0
C1575 C 0.54673 0.52639 0.49316 0.0
C1576 C 0.58732 0.53987 0.55182 0.0
C1577 C 0.57414 0.61392 0.56198 0.0
C1578 C 0.5797 0.61458 0.54373 0.0
C1579 C 0.53892 0.49754 0.53393 0.0
C1580 C 0.47049 0.5356 0.49114 0.0
C1581 C 0.44941 0.55574 0.49536 0.0
C1582 C 0.45568 0.56493 0.4803 0.0
C1583 C 0.47669 0.54479 0.47602 0.0
C1584 C 0.4568 0.54105 0.5006 0.0
C1585 C 0.46922 0.55937 0.47061 0.0
C1586 C 0.51962 0.53035 0.55425 0.0
C1587 C 0.47848 0.52085 0.49803 0.0
H1588 H 0.61942 0.48708 0.57463 0.0
H1589 H 0.57931 0.5195 0.58138 0.0
H1590 H 0.59433 0.49505 0.59124 0.0
H1591 H 0.61495 0.52867 0.5381 0.0
H1592 H 0.45005 0.57629 0.476 0.0
H1593 H 0.48738 0.54087 0.46853 0.0
H1594 H 0.45224 0.53414 0.51248 0.0
H1595 H 0.47403 0.56646 0.459 0.0
Tb1596 Tb 0.0095 0.52583 0.03663 0.0
C1597 C 0.07484 0.5652 0.99891 0.0
N1598 N 0.06235 0.55019 0.99204 0.0
C1599 C 0.0606 0.56015 0.96088 0.0
C1600 C 0.08054 0.57846 0.987 0.0
C1601 C 0.05535 0.54737 0.97324 0.0
C1602 C 0.07321 0.57579 0.96779 0.0
C1603 C 0.09434 0.58298 0.02588 0.0
C1604 C 0.08166 0.56744 0.01812 0.0
C1605 C 0.10014 0.5962 0.01403 0.0
C1606 C 0.09326 0.59394 0.99466 0.0
Tb1607 Tb 0.05581 0.53017 0.01355 0.0
N1608 N 0.07525 0.55468 0.02934 0.0
C1609 C 0.1007 0.58481 0.04534 0.0
C1610 C 0.08193 0.55602 0.04809 0.0
C1611 C 0.09455 0.5712 0.05645 0.0
H1612 H 0.04618 0.53501 0.96758 0.0
H1613 H 0.09969 0.5723 0.07141 0.0
H1614 H 0.01939 0.5211 0.08256 0.0
H1615 H 0.96558 0.48326 0.97898 0.0
H1616 H 0.07789 0.5453 0.05655 0.0
H1617 H 0.11046 0.59656 0.05186 0.0
H1618 H 0.98683 0.51061 0.99382 0.0
H1619 H 0.05505 0.55784 0.94599 0.0
H1620 H 0.10989 0.60825 0.01973 0.0
H1621 H 0.09782 0.60429 0.98573 0.0
H1622 H 0.01095 0.49814 0.10418 0.0
H1623 H 0.07727 0.58566 0.95816 0.0
H1624 H 0.95553 0.45873 0.99848 0.0
N1625 N 1.00315 0.50578 0.05818 0.0
C1626 C 0.99085 0.49061 0.05136 0.0
C1627 C 1.00531 0.49579 0.08932 0.0
C1628 C 0.9855 0.47723 0.06326 0.0
C1629 C 0.01027 0.50866 0.07695 0.0
C1630 C 0.99292 0.47998 0.08244 0.0
N1631 N 0.98994 0.50124 0.021 0.0
C1632 C 0.98311 0.49983 0.00228 0.0
C1633 C 0.97151 0.47255 0.02444 0.0
C1634 C 0.9839 0.48831 0.03219 0.0
C1635 C 0.96506 0.47066 0.00501 0.0
C1636 C 0.97078 0.48442 0.99392 0.0
H1637 H 0.98912 0.47004 0.09207 0.0
H1638 H 0.96876 0.4511 0.06454 0.0
H1639 H 0.95657 0.44698 0.03057 0.0
O1640 O 0.98732 0.53855 0.02867 0.0
O1641 O 0.01867 0.49982 0.02811 0.0
O1642 O 0.03622 0.50492 0.00358 0.0
O1643 O 0.99498 0.53418 0.05809 0.0
O1644 O 0.01185 0.53801 0.01007 0.0
O1645 O 0.03109 0.52318 0.99462 0.0
O1646 O 0.07805 0.51771 0.0217 0.0
O1647 O 0.04652 0.55618 0.0218 0.0
O1648 O 0.02917 0.551 0.04639 0.0
O1649 O 0.07063 0.52201 0.9922 0.0
O1650 O 0.05333 0.51767 0.03985 0.0
O1651 O 0.03441 0.53279 0.05538 0.0
C1652 C 0.02657 0.49375 0.01357 0.0
C1653 C 0.96974 0.54918 0.05369 0.0
C1654 C 0.9436 0.5636 0.04926 0.0
C1655 C 0.94315 0.56544 0.06912 0.0
C1656 C 0.9689 0.55127 0.07354 0.0
C1657 C 0.95574 0.55937 0.08114 0.0
C1658 C 0.95705 0.55556 0.04147 0.0
C1659 C 0.01831 0.53261 0.9945 0.0
C1660 C 0.98415 0.54058 0.04645 0.0
C1661 C 0.97304 0.46154 0.05562 0.0
C1662 C 0.96609 0.4592 0.03627 0.0
C1663 C 0.03829 0.56223 0.03608 0.0
C1664 C 0.09654 0.50802 0.99723 0.0
C1665 C 0.12063 0.49085 0.00152 0.0
C1666 C 0.12386 0.49239 0.98252 0.0
C1667 C 0.10017 0.50941 0.97826 0.0
C1668 C 0.10698 0.49877 0.00898 0.0
C1669 C 0.11373 0.50166 0.97101 0.0
C1670 C 0.04663 0.52272 0.05538 0.0
C1671 C 0.08159 0.51597 0.00403 0.0
H1672 H 0.93298 0.57167 0.07535 0.0
H1673 H 0.97849 0.54667 0.08332 0.0
H1674 H 0.95528 0.56091 0.09643 0.0
H1675 H 0.95747 0.5541 0.02615 0.0
H1676 H 0.1343 0.48637 0.97659 0.0
H1677 H 0.09246 0.51647 0.9689 0.0
H1678 H 0.10437 0.49749 0.02361 0.0
H1679 H 0.11634 0.50279 0.95638 0.0
C1680 C 0.02069 0.21085 0.95325 0.0
C1681 C 1.00781 0.21997 0.96075 0.0
C1682 C 0.02307 0.19371 0.95868 0.0
C1683 C 1.00883 0.16019 0.9949 0.0
H1684 H 0.03153 0.12823 0.96359 0.0
C1685 C 1.00868 0.08418 0.00876 0.0
C1686 C 0.02484 0.07768 0.00756 0.0
C1687 C 1.00675 0.10132 0.0031 0.0
C1688 C 0.02519 0.13695 0.97263 0.0
H1689 H 0.98704 0.21724 0.97969 0.0
H1690 H 0.99044 0.18782 0.98824 0.0
H1691 H 0.02799 0.15747 0.9536 0.0
H1692 H 0.05144 0.08457 0.99876 0.0
H1693 H 0.04792 0.1138 0.98858 0.0
H1694 H 1.00559 0.13926 0.01358 0.0
C1695 C 0.99941 0.19389 0.97874 0.0
C1696 C 0.02321 0.15404 0.96691 0.0
C1697 C 0.99726 0.21102 0.97358 0.0
C1698 C 0.0388 0.08891 0.00013 0.0
C1699 C 0.03674 0.1058 0.99411 0.0
C1700 C 0.01049 0.14299 0.00039 0.0
C1701 C 0.01251 0.18474 0.97168 0.0
C1702 C 0.01493 0.16619 0.97787 0.0
C1703 C 0.02072 0.11249 0.99556 0.0
C1704 C 0.01872 0.13096 0.98942 0.0
H1705 H 0.02922 0.21711 0.94343 0.0
H1706 H 0.03351 0.18772 0.95281 0.0
H1707 H 1.00289 0.16883 0.00442 0.0
H1708 H 0.99755 0.07613 0.01433 0.0
H1709 H 0.99412 0.10573 0.00442 0.0
C1710 C 0.12969 0.79417 0.13041 0.0
C1711 C 0.11302 0.79633 0.13647 0.0
C1712 C 0.14427 0.7924 0.14346 0.0
C1713 C 0.16282 0.80078 0.19533 0.0
H1714 H 0.19375 0.76793 0.17978 0.0
C1715 C 0.23197 0.79958 0.23947 0.0
C1716 C 0.23738 0.78285 0.24051 0.0
C1717 C 0.21646 0.80101 0.2275 0.0
C1718 C 0.18526 0.77711 0.18454 0.0
H1719 H 0.09906 0.79841 0.16159 0.0
H1720 H 0.12455 0.79558 0.1844 0.0
H1721 H 0.1676 0.77059 0.15827 0.0
H1722 H 0.23074 0.75448 0.22965 0.0
H1723 H 0.20388 0.75686 0.20869 0.0
H1724 H 0.18049 0.80721 0.22168 0.0
C1725 C 0.12632 0.79528 0.16939 0.0
C1726 C 0.17024 0.7788 0.172 0.0
C1727 C 0.1116 0.79685 0.15624 0.0
C1728 C 0.22691 0.76757 0.22923 0.0
C1729 C 0.21153 0.76901 0.21707 0.0
C1730 C 0.17795 0.79919 0.20784 0.0
C1731 C 0.14292 0.79285 0.16322 0.0
C1732 C 0.15875 0.79073 0.17707 0.0
C1733 C 0.20596 0.78576 0.21595 0.0
C1734 C 0.18952 0.78735 0.20268 0.0
H1735 H 0.13149 0.7936 0.11539 0.0
H1736 H 0.15674 0.79084 0.13799 0.0
H1737 H 0.15449 0.81019 0.19988 0.0
H1738 H 0.23975 0.81161 0.248 0.0
H1739 H 0.21291 0.8142 0.22704 0.0
C1740 C 0.51273 0.82435 0.47202 0.0
C1741 C 0.51183 0.81921 0.4522 0.0
C1742 C 0.51398 0.84269 0.47947 0.0
C1743 C 0.50737 0.88831 0.46479 0.0
H1744 H 0.53524 0.9073 0.5135 0.0
C1745 C 0.50935 0.96277 0.49822 0.0
C1746 C 0.52486 0.97244 0.50976 0.0
C1747 C 0.50744 0.94417 0.49188 0.0
C1748 C 0.52749 0.90242 0.49977 0.0
H1749 H 0.5114 0.82981 0.42485 0.0
H1750 H 0.51356 0.86126 0.43758 0.0
H1751 H 0.53265 0.87552 0.50142 0.0
H1752 H 0.55084 0.96957 0.52316 0.0
H1753 H 0.54784 0.93753 0.5118 0.0
H1754 H 0.50259 0.91518 0.4628 0.0
C1755 C 0.51314 0.85126 0.44755 0.0
C1756 C 0.52578 0.8839 0.49289 0.0
C1757 C 0.512 0.83304 0.44016 0.0
C1758 C 0.53857 0.96275 0.51446 0.0
C1759 C 0.53675 0.94414 0.50801 0.0
C1760 C 0.50907 0.90677 0.47164 0.0
C1761 C 0.51424 0.85658 0.46738 0.0
C1762 C 0.51574 0.87642 0.47518 0.0
C1763 C 0.52112 0.93437 0.49655 0.0
C1764 C 0.5192 0.91432 0.48929 0.0
H1765 H 0.51271 0.81423 0.48184 0.0
H1766 H 0.51459 0.84591 0.49478 0.0
H1767 H 0.49928 0.88334 0.45125 0.0
H1768 H 0.49872 0.96966 0.49373 0.0
H1769 H 0.49505 0.93747 0.48335 0.0
C1770 C 0.49577 0.28825 0.63133 0.0
C1771 C 0.51203 0.28449 0.63966 0.0
C1772 C 0.48057 0.28676 0.64128 0.0
C1773 C 0.46102 0.26588 0.68223 0.0
H1774 H 0.42967 0.30076 0.67825 0.0
C1775 C 0.40124 0.26471 0.72748 0.0
C1776 C 0.38491 0.26687 0.71778 0.0
C1777 C 0.41731 0.26843 0.71911 0.0
C1778 C 0.43819 0.2908 0.67945 0.0
H1779 H 0.5249 0.27611 0.66506 0.0
H1780 H 0.49858 0.2735 0.68232 0.0
H1781 H 0.45602 0.30345 0.66095 0.0
H1782 H 0.37268 0.27509 0.69204 0.0
H1783 H 0.40057 0.28192 0.67759 0.0
H1784 H 0.44314 0.25316 0.70061 0.0
C1785 C 0.49743 0.27745 0.66802 0.0
C1786 C 0.45333 0.29232 0.66944 0.0
C1787 C 0.51261 0.27903 0.65812 0.0
C1788 C 0.38512 0.27356 0.69995 0.0
C1789 C 0.40115 0.27745 0.69167 0.0
C1790 C 0.44589 0.26437 0.69224 0.0
C1791 C 0.48116 0.28137 0.65983 0.0
C1792 C 0.46497 0.27984 0.6706 0.0
C1793 C 0.41745 0.2745 0.70087 0.0
C1794 C 0.43417 0.27676 0.69096 0.0
H1795 H 0.49482 0.29256 0.61718 0.0
H1796 H 0.46829 0.2897 0.63434 0.0
H1797 H 0.46941 0.25581 0.68331 0.0
H1798 H 0.40143 0.25928 0.74109 0.0
H1799 H 0.42957 0.26619 0.72677 0.0
C1800 C 0.0235 0.79987 0.6408 0.0
C1801 C 0.02513 0.80108 0.66087 0.0
C1802 C 0.02523 0.81542 0.63139 0.0
C1803 C 0.04476 0.86418 0.63689 0.0
H1804 H 0.01176 0.86406 0.59155 0.0
C1805 C 0.05027 0.92527 0.59168 0.0
C1806 C 0.04828 0.92072 0.57175 0.0
C1807 C 0.04596 0.91188 0.60387 0.0
C1808 C 0.02122 0.86433 0.60408 0.0
H1809 H 0.03015 0.8198 0.6868 0.0
H1810 H 0.03367 0.84718 0.67028 0.0
H1811 H 1.00757 0.83862 0.61035 0.0
H1812 H 0.03962 0.89877 0.54899 0.0
H1813 H 0.0319 0.87557 0.56998 0.0
H1814 H 0.05869 0.88971 0.63031 0.0
C1815 C 0.03087 0.83405 0.66186 0.0
C1816 C 0.01878 0.84969 0.61491 0.0
C1817 C 0.02882 0.81838 0.67133 0.0
C1818 C 0.04128 0.90268 0.56428 0.0
C1819 C 0.03677 0.88938 0.57638 0.0
C1820 C 0.04727 0.87882 0.62596 0.0
C1821 C 0.0289 0.83276 0.64172 0.0
C1822 C 0.0307 0.84922 0.63128 0.0
C1823 C 0.03932 0.89367 0.5964 0.0
C1824 C 0.03572 0.87897 0.60917 0.0
H1825 H 0.02058 0.7868 0.63223 0.0
H1826 H 0.02385 0.81384 0.61591 0.0
H1827 H 0.05427 0.86425 0.64932 0.0
H1828 H 0.05576 0.93906 0.59785 0.0
H1829 H 0.04795 0.91578 0.61916 0.0
C1830 C 0.47729 0.78598 0.84441 0.0
C1831 C 0.49018 0.8014 0.84268 0.0
C1832 C 0.45932 0.784 0.83627 0.0
C1833 C 0.42752 0.80262 0.80244 0.0
H1834 H 0.39226 0.78091 0.83342 0.0
C1835 C 0.35 0.80112 0.78369 0.0
C1836 C 0.33747 0.78683 0.78887 0.0
C1837 C 0.36863 0.80317 0.78947 0.0
C1838 C 0.40174 0.78674 0.82426 0.0
H1839 H 0.49397 0.82692 0.83086 0.0
H1840 H 0.46267 0.82347 0.81641 0.0
H1841 H 0.42394 0.78344 0.84373 0.0
H1842 H 0.33557 0.76307 0.80404 0.0
H1843 H 0.36749 0.76621 0.81343 0.0
H1844 H 0.40518 0.80586 0.78291 0.0
C1845 C 0.46652 0.81264 0.82381 0.0
C1846 C 0.42017 0.78823 0.83028 0.0
C1847 C 0.4846 0.81459 0.83199 0.0
C1848 C 0.34446 0.77447 0.79982 0.0
C1849 C 0.36303 0.77639 0.80543 0.0
C1850 C 0.40899 0.80102 0.79632 0.0
C1851 C 0.45338 0.79751 0.82628 0.0
C1852 C 0.43351 0.7961 0.81949 0.0
C1853 C 0.37559 0.79086 0.80054 0.0
C1854 C 0.39564 0.79295 0.80706 0.0
H1855 H 0.48095 0.77572 0.85287 0.0
H1856 H 0.44996 0.77195 0.83827 0.0
H1857 H 0.43717 0.80868 0.79355 0.0
H1858 H 0.34552 0.8107 0.77497 0.0
H1859 H 0.37754 0.81461 0.78535 0.0
C1860 C 0.5212 0.19061 0.15727 0.0
C1861 C 0.5144 0.20411 0.14813 0.0
C1862 C 0.52169 0.17372 0.14698 0.0
C1863 C 0.52189 0.15345 0.09627 0.0
H1864 H 0.51753 0.10786 0.11762 0.0
C1865 C 0.5387 0.08972 0.05399 0.0
C1866 C 0.52881 0.07249 0.05585 0.0
C1867 C 0.53677 0.10522 0.06574 0.0
C1868 C 0.51866 0.1204 0.11127 0.0
H1869 H 0.50217 0.20998 0.12114 0.0
H1870 H 0.50232 0.18076 0.10362 0.0
H1871 H 0.51342 0.13495 0.13713 0.0
H1872 H 0.50892 0.05839 0.07179 0.0
H1873 H 0.50538 0.08525 0.09201 0.0
H1874 H 0.52673 0.13903 0.07035 0.0
C1875 C 0.50768 0.18311 0.11857 0.0
C1876 C 0.51649 0.1361 0.12264 0.0
C1877 C 0.50724 0.19985 0.12877 0.0
C1878 C 0.51693 0.07133 0.06994 0.0
C1879 C 0.51495 0.08684 0.08168 0.0
C1880 C 0.52404 0.13782 0.08495 0.0
C1881 C 0.51551 0.16993 0.12722 0.0
C1882 C 0.51796 0.15293 0.11532 0.0
C1883 C 0.52479 0.10414 0.0798 0.0
C1884 C 0.52248 0.12094 0.09217 0.0
H1885 H 0.52732 0.19355 0.17197 0.0
H1886 H 0.52788 0.16407 0.15427 0.0
H1887 H 0.52351 0.16606 0.09003 0.0
H1888 H 0.54813 0.09128 0.04349 0.0
H1889 H 0.54492 0.11806 0.06389 0.0
C1890 C 0.11056 0.30751 0.34993 0.0
C1891 C 0.09376 0.301 0.33891 0.0
C1892 C 0.12688 0.3051 0.34301 0.0
C1893 C 0.14648 0.27824 0.3046 0.0
H1894 H 0.18959 0.31402 0.32179 0.0
C1895 C 0.21552 0.27524 0.27344 0.0
C1896 C 0.23172 0.28086 0.28577 0.0
C1897 C 0.19869 0.2774 0.27939 0.0
C1898 C 0.17783 0.30367 0.31692 0.0
H1899 H 0.08153 0.28661 0.31155 0.0
H1900 H 0.10978 0.28244 0.29944 0.0
H1901 H 0.16115 0.31826 0.3326 0.0
H1902 H 0.24226 0.29386 0.31427 0.0
H1903 H 0.21345 0.29791 0.32439 0.0
H1904 H 0.16329 0.26375 0.28877 0.0
C1905 C 0.11042 0.28939 0.31366 0.0
C1906 C 0.16126 0.30612 0.32323 0.0
C1907 C 0.09403 0.2919 0.32059 0.0
C1908 C 0.23032 0.28917 0.30418 0.0
C1909 C 0.21358 0.29161 0.31003 0.0
C1910 C 0.16309 0.27582 0.29822 0.0
C1911 C 0.1273 0.29597 0.32469 0.0
C1912 C 0.14514 0.29342 0.31737 0.0
C1913 C 0.19731 0.28573 0.29784 0.0
C1914 C 0.17922 0.28842 0.30433 0.0
H1915 H 0.11117 0.31455 0.36411 0.0
H1916 H 0.13924 0.31021 0.35234 0.0
H1917 H 0.13472 0.26789 0.29976 0.0
H1918 H 0.21579 0.26936 0.259 0.0
H1919 H 0.18676 0.27286 0.26927 0.0
C1920 C 0.95288 1.00284 0.20045 0.0
C1921 C 0.95105 0.01722 0.21372 0.0
C1922 C 0.95886 0.00611 0.18283 0.0
C1923 C 0.98658 0.04024 0.15928 0.0
H1924 H 0.96438 0.00957 0.11299 0.0
C1925 C 0.01065 0.04844 0.08379 0.0
C1926 C 0.01041 0.03228 0.07207 0.0
C1927 C 1.00334 0.04807 0.10128 0.0
C1928 C 0.97089 0.01816 0.1258 0.0
H1929 H 0.9541 0.04631 0.21912 0.0
H1930 H 0.96502 0.05215 0.18829 0.0
H1931 H 0.95103 0.00633 0.14263 0.0
H1932 H 1.0035 1.00305 0.07017 0.0
H1933 H 0.99071 1.00237 0.10023 0.0
H1934 H 1.00671 0.05178 0.14243 0.0
C1935 C 0.96156 0.03831 0.19144 0.0
C1936 C 0.96316 0.01633 0.14279 0.0
C1937 C 0.95515 0.03498 0.20897 0.0
C1938 C 1.00331 0.01578 0.0785 0.0
C1939 C 0.996 0.0154 0.09582 0.0
C1940 C 0.9944 0.04201 0.14221 0.0
C1941 C 0.96358 0.02389 0.1782 0.0
C1942 C 0.97103 0.02713 0.15983 0.0
C1943 C 0.9956 0.03151 0.10733 0.0
C1944 C 0.98681 0.03076 0.12531 0.0
H1945 H 0.94994 0.98904 0.20387 0.0
H1946 H 0.96039 0.9947 0.17307 0.0
H1947 H 0.99307 0.04866 0.17219 0.0
H1948 H 0.01609 0.06136 0.07925 0.0
H1949 H 1.00331 0.06075 0.10978 0.0
C1950 C 0.27257 0.6373 0.47561 0.0
C1951 C 0.27615 0.64734 0.49373 0.0
C1952 C 0.27187 0.64621 0.45923 0.0
C1953 C 0.28558 0.69075 0.44242 0.0
H1954 H 0.24264 0.67625 0.40616 0.0
C1955 C 0.25688 0.73886 0.39542 0.0
C1956 C 0.24945 0.73204 0.37665 0.0
C1957 C 0.2631 0.72745 0.40775 0.0
C1958 C 0.25489 0.68025 0.41593 0.0
H1959 H 0.28209 0.6744 0.50909 0.0
H1960 H 0.28084 0.68979 0.48069 0.0
H1961 H 0.24831 0.65744 0.43127 0.0
H1962 H 0.24303 0.70811 0.35586 0.0
H1963 H 0.25399 0.6882 0.3774 0.0
H1964 H 0.29175 0.71399 0.42753 0.0
C1965 C 0.27874 0.67515 0.47901 0.0
C1966 C 0.25814 0.66947 0.43026 0.0
C1967 C 0.27925 0.66631 0.49527 0.0
C1968 C 0.24871 0.71372 0.37027 0.0
C1969 C 0.2549 0.70232 0.38258 0.0
C1970 C 0.28232 0.70156 0.42811 0.0
C1971 C 0.27501 0.66521 0.46086 0.0
C1972 C 0.27324 0.6749 0.44391 0.0
C1973 C 0.26193 0.70903 0.40148 0.0
C1974 C 0.26671 0.69661 0.41505 0.0
H1975 H 0.27011 0.62266 0.47412 0.0
H1976 H 0.2689 0.63829 0.44532 0.0
H1977 H 0.29746 0.69508 0.45269 0.0
H1978 H 0.25789 0.75301 0.40056 0.0
H1979 H 0.26832 0.73291 0.42233 0.0
C1980 C 0.64983 0.0531 0.69016 0.0
C1981 C 0.65498 0.03894 0.69931 0.0
C1982 C 0.64222 0.04989 0.67126 0.0
C1983 C 0.61117 0.01326 0.64543 0.0
H1984 H 0.60821 0.04733 0.60822 0.0
C1985 C 0.55884 0.00586 0.57921 0.0
C1986 C 0.55185 0.02139 0.57616 0.0
C1987 C 0.57163 0.00626 0.59466 0.0
C1988 C 0.60892 0.03782 0.61865 0.0
H1989 H 0.65846 0.01107 0.69585 0.0
H1990 H 0.64462 1.00524 0.66259 0.0
H1991 H 0.63551 0.05077 0.63055 0.0
H1992 H 0.55138 0.04901 0.58707 0.0
H1993 H 0.57448 0.04997 0.614 0.0
H1994 H 0.58441 1.00056 0.63373 0.0
C1995 C 0.64656 0.01879 0.66999 0.0
C1996 C 0.62455 0.0396 0.63113 0.0
C1997 C 0.65444 0.0221 0.6889 0.0
C1998 C 0.55654 0.03687 0.58947 0.0
C1999 C 0.56979 0.03746 0.60463 0.0
C2000 C 0.5956 0.01141 0.63285 0.0
C2001 C 0.63942 0.03239 0.66149 0.0
C2002 C 0.62554 0.02769 0.64502 0.0
C2003 C 0.57786 0.02237 0.60676 0.0
C2004 C 0.59424 0.02403 0.61985 0.0
H2005 H 0.65042 0.06624 0.69804 0.0
H2006 H 0.63676 0.0606 0.66509 0.0
H2007 H 0.61145 1.0041 0.65627 0.0
H2008 H 0.55536 0.99387 0.56889 0.0
H2009 H 0.57774 0.99452 0.59617 0.0
C2010 C 0.29119 0.37634 0.9652 0.0
C2011 C 0.29426 0.36757 0.98148 0.0
C2012 C 0.29149 0.36763 0.9469 0.0
C2013 C 0.28802 0.32195 0.92022 0.0
H2014 H 0.30651 0.3498 0.88087 0.0
C2015 C 0.29522 0.28937 0.84388 0.0
C2016 C 0.28938 0.29838 0.82867 0.0
C2017 C 0.2967 0.29736 0.86285 0.0
C2018 C 0.3012 0.34183 0.89166 0.0
H2019 H 0.3003 0.34283 0.9913 0.0
H2020 H 0.30122 0.32776 0.95942 0.0
H2021 H 0.30764 0.3646 0.91317 0.0
H2022 H 0.2805 0.32291 0.82159 0.0
H2023 H 0.283 0.33666 0.85443 0.0
H2024 H 0.28168 0.29915 0.89855 0.0
C2025 C 0.29824 0.34126 0.96073 0.0
C2026 C 0.30178 0.35034 0.91022 0.0
C2027 C 0.29785 0.34996 0.97904 0.0
C2028 C 0.28506 0.31553 0.83289 0.0
C2029 C 0.28662 0.32352 0.85176 0.0
C2030 C 0.28755 0.3134 0.90164 0.0
C2031 C 0.29497 0.34994 0.94436 0.0
C2032 C 0.29502 0.34059 0.92474 0.0
C2033 C 0.29246 0.31458 0.867 0.0
C2034 C 0.29394 0.32329 0.88707 0.0
H2035 H 0.28825 0.38986 0.96656 0.0
H2036 H 0.28861 0.37468 0.9347 0.0
H2037 H 0.28246 0.314 0.9309 0.0
H2038 H 0.2985 0.27608 0.84116 0.0
H2039 H 0.30133 0.29014 0.87425 0.0
C2040 C 0.96337 0.0111 0.31827 0.0
C2041 C 0.94671 0.01659 0.31563 0.0
C2042 C 0.97189 0.01082 0.33672 0.0
C2043 C 0.96286 0.01199 0.38791 0.0
H2044 H 0.01473 0.02477 0.39861 0.0
C2045 C 0.99804 0.02926 0.4648 0.0
C2046 C 0.01353 0.02226 0.46994 0.0
C2047 C 0.9906 0.02773 0.44575 0.0
C2048 C 1.00024 0.02097 0.39581 0.0
H2049 H 0.92608 0.02635 0.33037 0.0
H2050 H 0.94103 0.02641 0.36232 0.0
H2051 H 1.00038 0.0239 0.366 0.0
H2052 H 0.0335 0.00841 0.45866 0.0
H2053 H 0.02026 1.00548 0.4252 0.0
H2054 H 0.96269 0.00951 0.41776 0.0
C2055 C 0.94739 0.02175 0.35026 0.0
C2056 C 0.99197 0.02044 0.37707 0.0
C2057 C 0.9388 0.02183 0.33186 0.0
C2058 C 0.02146 0.01376 0.45532 0.0
C2059 C 0.01397 0.01225 0.43611 0.0
C2060 C 0.97109 0.01269 0.4066 0.0
C2061 C 0.96406 0.0162 0.35304 0.0
C2062 C 0.97311 0.01611 0.37285 0.0
C2063 C 0.99835 0.01912 0.43112 0.0
C2064 C 0.98988 0.01736 0.41088 0.0
H2065 H 0.96982 0.00696 0.30605 0.0
H2066 H 0.98455 0.0062 0.33815 0.0
H2067 H 0.94837 0.00813 0.38532 0.0
H2068 H 0.99149 0.03594 0.47553 0.0
H2069 H 0.97878 0.03348 0.44247 0.0
C2070 C 0.27393 0.65073 0.60625 0.0
C2071 C 0.28353 0.65905 0.59255 0.0
C2072 C 0.27584 0.65935 0.62485 0.0
C2073 C 0.28312 0.70565 0.64456 0.0
H2074 H 0.28323 0.68835 0.69435 0.0
C2075 C 0.26867 0.74875 0.70975 0.0
C2076 C 0.28167 0.7504 0.72555 0.0
C2077 C 0.26808 0.73551 0.69451 0.0
C2078 C 0.28316 0.69324 0.68046 0.0
H2079 H 0.30422 0.68111 0.58749 0.0
H2080 H 0.30801 0.6959 0.62015 0.0
H2081 H 0.28691 0.66799 0.66646 0.0
H2082 H 0.30432 0.73986 0.73801 0.0
H2083 H 0.30334 0.71687 0.71132 0.0
H2084 H 0.27959 0.73087 0.65834 0.0
C2085 C 0.29869 0.68313 0.61652 0.0
C2086 C 0.28526 0.68167 0.66465 0.0
C2087 C 0.29656 0.67472 0.59795 0.0
C2088 C 0.29404 0.73871 0.72601 0.0
C2089 C 0.2934 0.72548 0.71087 0.0
C2090 C 0.28094 0.71712 0.66026 0.0
C2091 C 0.28748 0.67614 0.62968 0.0
C2092 C 0.28555 0.68795 0.64668 0.0
C2093 C 0.2805 0.72386 0.69499 0.0
C2094 C 0.28111 0.71106 0.67832 0.0
H2095 H 0.26381 0.63858 0.60217 0.0
H2096 H 0.26708 0.65377 0.63485 0.0
H2097 H 0.28283 0.71062 0.63071 0.0
H2098 H 0.25895 0.75759 0.70925 0.0
H2099 H 0.258 0.73441 0.68233 0.0
C2100 C 0.64413 0.04755 0.79906 0.0
C2101 C 0.65892 0.03889 0.80015 0.0
C2102 C 0.6349 0.04971 0.81473 0.0
C2103 C 0.62344 0.02903 0.85681 0.0
H2104 H 0.60513 0.07309 0.86791 0.0
C2105 C 0.58773 0.05088 0.92125 0.0
C2106 C 0.57297 0.05926 0.91699 0.0
C2107 C 0.59676 0.04447 0.90671 0.0
C2108 C 0.60999 0.06064 0.86474 0.0
H2109 H 0.67625 0.02634 0.81856 0.0
H2110 H 0.65979 0.03009 0.84641 0.0
H2111 H 0.62703 0.07225 0.84525 0.0
H2112 H 0.55492 0.06564 0.89408 0.0
H2113 H 0.57139 0.05517 0.86862 0.0
H2114 H 0.60651 0.01768 0.87686 0.0
C2115 C 0.65541 0.03507 0.83325 0.0
C2116 C 0.6226 0.06022 0.85197 0.0
C2117 C 0.66484 0.03305 0.81746 0.0
C2118 C 0.56655 0.05975 0.89781 0.0
C2119 C 0.57577 0.05356 0.88328 0.0
C2120 C 0.61092 0.02955 0.86988 0.0
C2121 C 0.64023 0.04323 0.83184 0.0
C2122 C 0.62914 0.04431 0.84758 0.0
C2123 C 0.59136 0.04664 0.88777 0.0
C2124 C 0.60388 0.04527 0.87355 0.0
H2125 H 0.63933 0.05231 0.78596 0.0
H2126 H 0.62312 0.05587 0.8132 0.0
H2127 H 0.6282 0.01656 0.85346 0.0
H2128 H 0.59316 0.05038 0.93586 0.0
H2129 H 0.60887 0.0393 0.91041 0.0
C2130 C 0.31077 0.36012 0.09529 0.0
C2131 C 0.29624 0.36386 0.08363 0.0
C2132 C 0.30836 0.35376 0.11292 0.0
C2133 C 0.27524 0.3449 0.14861 0.0
H2134 H 0.30589 0.31145 0.16268 0.0
C2135 C 0.2749 0.31497 0.22151 0.0
C2136 C 0.2794 0.29781 0.22247 0.0
C2137 C 0.2761 0.3234 0.20473 0.0
C2138 C 0.29695 0.32051 0.15895 0.0
H2139 H 0.26783 0.36433 0.08139 0.0
H2140 H 0.2633 0.35237 0.11186 0.0
H2141 H 0.30914 0.32525 0.13365 0.0
H2142 H 0.28782 0.27573 0.20602 0.0
H2143 H 0.28887 0.28977 0.17679 0.0
H2144 H 0.26231 0.33916 0.17347 0.0
C2145 C 0.27675 0.35485 0.10775 0.0
C2146 C 0.29911 0.32884 0.14234 0.0
C2147 C 0.27929 0.36171 0.09024 0.0
C2148 C 0.28442 0.28903 0.20598 0.0
C2149 C 0.28524 0.29725 0.18916 0.0
C2150 C 0.27283 0.33626 0.16512 0.0
C2151 C 0.2912 0.35034 0.11916 0.0
C2152 C 0.28846 0.34135 0.13694 0.0
C2153 C 0.28148 0.31474 0.18832 0.0
C2154 C 0.28371 0.32395 0.1706 0.0
H2155 H 0.32401 0.3618 0.09058 0.0
H2156 H 0.32002 0.35119 0.12145 0.0
H2157 H 0.26681 0.3545 0.14513 0.0
H2158 H 0.27082 0.32208 0.23386 0.0
H2159 H 0.27321 0.3369 0.20485 0.0
C2160 C 0.25125 0.96249 0.00675 0.0
C2161 C 0.25014 0.9437 0.00432 0.0
C2162 C 0.23571 0.96956 0.00796 0.0
C2163 C 0.19075 0.95806 0.02121 0.0
H2164 H 0.18273 0.99955 0.99566 0.0
C2165 C 0.13218 0.99102 0.03587 0.0
C2166 C 0.13858 0.00881 0.04436 0.0
C2167 C 0.14301 0.98226 0.02505 0.0
C2168 C 0.18475 0.98781 0.0026 0.0
H2169 H 0.23235 0.91752 0.00165 0.0
H2170 H 0.20525 0.92989 0.00386 0.0
H2171 H 0.20839 0.98537 0.98933 0.0
H2172 H 0.16006 0.03217 0.04705 0.0
H2173 H 0.17927 0.01676 0.02816 0.0
H2174 H 0.16763 0.9608 0.03502 0.0
C2175 C 0.21801 0.93912 0.00475 0.0
C2176 C 0.19941 0.97985 0.99915 0.0
C2177 C 0.23348 0.93208 0.00349 0.0
C2178 C 0.15523 0.01828 0.04086 0.0
C2179 C 0.16598 0.0096 0.02984 0.0
C2180 C 0.1761 0.96591 0.02455 0.0
C2181 C 0.21901 0.95788 0.00686 0.0
C2182 C 0.2027 0.96522 0.00883 0.0
C2183 C 0.16019 0.99134 0.02251 0.0
C2184 C 0.17328 0.98109 0.01565 0.0
H2185 H 0.264 0.97167 0.00727 0.0
H2186 H 0.23676 0.98411 0.00992 0.0
H2187 H 0.19319 0.94695 0.02904 0.0
H2188 H 0.11917 0.98371 0.03831 0.0
H2189 H 0.13837 0.96816 0.01948 0.0
C2190 C 0.70612 0.64914 0.01889 0.0
C2191 C 0.71556 0.64728 0.00302 0.0
C2192 C 0.69066 0.63657 0.02063 0.0
C2193 C 0.66365 0.59096 -0.00056 0.0
H2194 H 0.62696 0.60788 0.0267 0.0
C2195 C 0.58693 0.55801 0.99806 0.0
C2196 C 0.5834 0.55128 0.01539 0.0
C2197 C 0.60373 0.56843 0.99632 0.0
C2198 C 0.63716 0.603 0.01912 0.0
H2199 H 0.71648 0.6309 0.97654 0.0
H2200 H 0.68885 0.60945 0.97881 0.0
H2201 H 0.65449 0.62885 0.02367 0.0
H2202 H 0.59444 0.55023 0.04453 0.0
H2203 H 0.62367 0.56918 0.0417 0.0
H2204 H 0.64546 0.56527 0.99413 0.0
C2205 C 0.69359 0.62019 0.99038 0.0
C2206 C 0.65309 0.61495 0.01749 0.0
C2207 C 0.70937 0.63256 0.98892 0.0
C2208 C 0.59697 0.55504 0.03094 0.0
C2209 C 0.61359 0.5659 0.02936 0.0
C2210 C 0.6475 0.57912 0.00074 0.0
C2211 C 0.68389 0.62203 0.00625 0.0
C2212 C 0.66672 0.60914 0.00775 0.0
C2213 C 0.61707 0.57269 0.01205 0.0
C2214 C 0.63421 0.58504 0.01069 0.0
H2215 H 0.71082 0.66029 0.03007 0.0
H2216 H 0.68411 0.63831 0.03338 0.0
H2217 H 0.67377 0.58572 0.9921 0.0
H2218 H 0.57665 0.55529 0.98589 0.0
H2219 H 0.60613 0.5736 0.98288 0.0
C2220 C 0.65485 0.48062 0.26736 0.0
C2221 C 0.66234 0.4949 0.28157 0.0
C2222 C 0.6633 0.46578 0.26445 0.0
C2223 C 0.69497 0.44021 0.28658 0.0
H2224 H 0.70418 0.42817 0.23448 0.0
C2225 C 0.74225 0.39074 0.26523 0.0
C2226 C 0.73818 0.38076 0.24704 0.0
C2227 C 0.73197 0.4035 0.27095 0.0
C2228 C 0.70144 0.43102 0.24906 0.0
H2229 H 0.68387 0.50474 0.30447 0.0
H2230 H 0.69838 0.47843 0.29982 0.0
H2231 H 0.68789 0.45228 0.24171 0.0
H2232 H 0.71938 0.37508 0.22129 0.0
H2233 H 0.70105 0.39667 0.23143 0.0
H2234 H 0.70841 0.41876 0.2939 0.0
C2235 C 0.68619 0.47881 0.29074 0.0
C2236 C 0.69215 0.44495 0.2532 0.0
C2237 C 0.67799 0.49388 0.29331 0.0
C2238 C 0.72304 0.38292 0.2352 0.0
C2239 C 0.71261 0.39538 0.24101 0.0
C2240 C 0.70412 0.42604 0.2824 0.0
C2241 C 0.67912 0.46478 0.27603 0.0
C2242 C 0.68877 0.44969 0.27195 0.0
C2243 C 0.71727 0.40632 0.25867 0.0
C2244 C 0.70741 0.42122 0.26352 0.0
H2245 H 0.6428 0.4812 0.25816 0.0
H2246 H 0.65754 0.45511 0.25306 0.0
H2247 H 0.69252 0.44359 0.30118 0.0
H2248 H 0.75384 0.38923 0.27465 0.0
H2249 H 0.736 0.41166 0.28464 0.0
C2250 C 0.86214 0.43356 0.5035 0.0
C2251 C 0.84643 0.43954 0.49728 0.0
C2252 C 0.87793 0.44608 0.50941 0.0
C2253 C 0.9012 0.49058 0.50321 0.0
H2254 H 0.92997 0.48594 0.55019 0.0
C2255 C 0.97238 0.53024 0.52031 0.0
C2256 C 0.98432 0.5182 0.52209 0.0
C2257 C 0.95436 0.52461 0.52251 0.0
C2258 C 0.92192 0.48753 0.5372 0.0
H2259 H 0.83483 0.46296 0.49153 0.0
H2260 H 0.86263 0.4848 0.50149 0.0
H2261 H 0.90007 0.4671 0.54205 0.0
H2262 H 0.98719 0.49131 0.52843 0.0
H2263 H 0.95593 0.48162 0.53257 0.0
H2264 H 0.9234 0.51014 0.49769 0.0
C2265 C 0.86264 0.47054 0.50206 0.0
C2266 C 0.90498 0.47673 0.5325 0.0
C2267 C 0.84682 0.45808 0.49639 0.0
C2268 C 0.97833 0.50096 0.52733 0.0
C2269 C 0.96042 0.49543 0.52975 0.0
C2270 C 0.91818 0.50132 0.50785 0.0
C2271 C 0.87819 0.46464 0.50892 0.0
C2272 C 0.89482 0.47776 0.51516 0.0
C2273 C 0.94819 0.50697 0.52666 0.0
C2274 C 0.92891 0.49937 0.52452 0.0
H2275 H 0.86207 0.41934 0.50439 0.0
H2276 H 0.88995 0.44129 0.51437 0.0
H2277 H 0.89355 0.49151 0.48973 0.0
H2278 H 0.97676 0.54367 0.51636 0.0
H2279 H 0.9451 0.53371 0.52007 0.0
C2280 C 0.37645 0.08053 0.29572 0.0
C2281 C 0.36672 0.06274 0.29286 0.0
C2282 C 0.36751 0.09497 0.29488 0.0
C2283 C 0.32517 0.10568 0.27474 0.0
H2284 H 0.34406 0.15183 0.30524 0.0
C2285 C 0.29775 0.16801 0.25854 0.0
C2286 C 0.31138 0.18109 0.25329 0.0
C2287 C 0.30213 0.15448 0.26907 0.0
C2288 C 0.33853 0.13893 0.29686 0.0
H2289 H 0.34012 0.04591 0.28727 0.0
H2290 H 0.32443 0.07117 0.2862 0.0
H2291 H 0.3562 0.12513 0.31251 0.0
H2292 H 0.34004 0.19138 0.25623 0.0
H2293 H 0.34778 0.1675 0.27451 0.0
H2294 H 0.30785 0.11952 0.25881 0.0
C2295 C 0.33896 0.07399 0.28872 0.0
C2296 C 0.34553 0.12374 0.30087 0.0
C2297 C 0.34793 0.05954 0.2893 0.0
C2298 C 0.32936 0.18123 0.25988 0.0
C2299 C 0.33374 0.16777 0.27054 0.0
C2300 C 0.31803 0.12078 0.27092 0.0
C2301 C 0.34867 0.09184 0.29143 0.0
C2302 C 0.33936 0.10714 0.28938 0.0
C2303 C 0.32018 0.15395 0.27458 0.0
C2304 C 0.32508 0.13762 0.28152 0.0
H2305 H 0.39097 0.08331 0.29848 0.0
H2306 H 0.3754 0.10855 0.29656 0.0
H2307 H 0.32029 0.09316 0.26546 0.0
H2308 H 0.28376 0.16764 0.25361 0.0
H2309 H 0.2915 0.14393 0.27209 0.0
C2310 C 0.31095 0.12957 0.52187 0.0
C2311 C 0.31315 0.14728 0.51681 0.0
C2312 C 0.32546 0.1206 0.52322 0.0
C2313 C 0.37083 0.12153 0.5079 0.0
H2314 H 0.37628 0.09136 0.54856 0.0
C2315 C 0.43698 0.09848 0.53121 0.0
C2316 C 0.43614 0.08105 0.53671 0.0
C2317 C 0.42128 0.10493 0.52636 0.0
C2318 C 0.3748 0.09949 0.53693 0.0
H2319 H 0.33237 0.16952 0.50933 0.0
H2320 H 0.35783 0.15402 0.51211 0.0
H2321 H 0.35061 0.10642 0.54577 0.0
H2322 H 0.41831 0.05639 0.54084 0.0
H2323 H 0.39066 0.06774 0.5325 0.0
H2324 H 0.39533 0.11492 0.49943 0.0
C2325 C 0.3448 0.14694 0.51474 0.0
C2326 C 0.36008 0.10816 0.53533 0.0
C2327 C 0.33025 0.15592 0.51336 0.0
C2328 C 0.41928 0.06987 0.53656 0.0
C2329 C 0.40351 0.07641 0.53194 0.0
C2330 C 0.3856 0.11292 0.50957 0.0
C2331 C 0.34256 0.12911 0.51959 0.0
C2332 C 0.35798 0.11945 0.52092 0.0
C2333 C 0.40436 0.09415 0.52713 0.0
C2334 C 0.38785 0.10195 0.52422 0.0
H2335 H 0.29792 0.12246 0.52448 0.0
H2336 H 0.32314 0.10682 0.52674 0.0
H2337 H 0.36946 0.12979 0.49638 0.0
H2338 H 0.44985 0.10732 0.53118 0.0
H2339 H 0.42242 0.11868 0.52285 0.0
C2340 C 0.6707 0.60776 0.31089 0.0
C2341 C 0.66437 0.59503 0.29484 0.0
C2342 C 0.68316 0.62348 0.3094 0.0
C2343 C 0.70033 0.65327 0.27371 0.0
H2344 H 0.73852 0.67295 0.31463 0.0
C2345 C 0.75863 0.71324 0.26806 0.0
C2346 C 0.76024 0.72783 0.2824 0.0
C2347 C 0.74752 0.69663 0.26949 0.0
C2348 C 0.72788 0.66762 0.30313 0.0
H2349 H 0.66576 0.58871 0.26464 0.0
H2350 H 0.68734 0.61621 0.26187 0.0
H2351 H 0.71814 0.64458 0.31716 0.0
H2352 H 0.75198 0.7364 0.30967 0.0
H2353 H 0.73327 0.70707 0.31263 0.0
H2354 H 0.71037 0.67626 0.2596 0.0
C2355 C 0.68286 0.61411 0.27568 0.0
C2356 C 0.71613 0.65142 0.30459 0.0
C2357 C 0.67065 0.59826 0.27727 0.0
C2358 C 0.75101 0.72534 0.29846 0.0
C2359 C 0.74033 0.70859 0.30015 0.0
C2360 C 0.71223 0.66936 0.27215 0.0
C2361 C 0.68929 0.62698 0.29172 0.0
C2362 C 0.70211 0.64406 0.28996 0.0
C2363 C 0.73825 0.69415 0.28555 0.0
C2364 C 0.72605 0.67674 0.2869 0.0
H2365 H 0.66598 0.60554 0.32457 0.0
H2366 H 0.68765 0.63311 0.32202 0.0
H2367 H 0.68953 0.64826 0.26231 0.0
H2368 H 0.76539 0.71489 0.2554 0.0
H2369 H 0.74614 0.68572 0.25804 0.0
C2370 C 0.86997 0.45189 0.80586 0.0
C2371 C 0.87304 0.46454 0.79281 0.0
C2372 C 0.85677 0.43642 0.80088 0.0
C2373 C 0.83527 0.40552 0.76043 0.0
H2374 H 0.80102 0.38906 0.79506 0.0
C2375 C 0.81018 0.3325 0.7694 0.0
C2376 C 0.79251 0.32686 0.7733 0.0
C2377 C 0.81622 0.35031 0.76653 0.0
C2378 C 0.81017 0.3937 0.785 0.0
H2379 H 0.86528 0.47134 0.76453 0.0
H2380 H 0.84257 0.44379 0.75551 0.0
H2381 H 0.81952 0.41932 0.80181 0.0
H2382 H 0.76696 0.33496 0.77653 0.0
H2383 H 0.7778 0.36657 0.772 0.0
H2384 H 0.82666 0.37954 0.7442 0.0
C2385 C 0.85009 0.446 0.76961 0.0
C2386 C 0.82085 0.41084 0.789 0.0
C2387 C 0.86299 0.46162 0.77474 0.0
C2388 C 0.78068 0.33909 0.77355 0.0
C2389 C 0.78681 0.35705 0.77089 0.0
C2390 C 0.82467 0.38834 0.75649 0.0
C2391 C 0.84685 0.43339 0.78268 0.0
C2392 C 0.83382 0.41658 0.77705 0.0
C2393 C 0.80474 0.36282 0.76783 0.0
C2394 C 0.81249 0.38212 0.7691 0.0
H2395 H 0.87754 0.45415 0.81994 0.0
H2396 H 0.85453 0.42667 0.81106 0.0
H2397 H 0.8453 0.40976 0.75111 0.0
H2398 H 0.81968 0.32344 0.76962 0.0
H2399 H 0.83024 0.35456 0.76465 0.0
C2400 C 0.06246 0.85693 0.10691 0.0
C2401 C 0.05836 0.84026 0.09505 0.0
C2402 C 0.0606 0.87347 0.09978 0.0
C2403 C 0.03719 0.89322 0.05939 0.0
H2404 H 0.07148 0.93707 0.07831 0.0
C2405 C 0.03242 0.96233 0.02811 0.0
C2406 C 0.03922 0.97902 0.03948 0.0
C2407 C 0.03477 0.94557 0.03446 0.0
C2408 C 0.06146 0.92516 0.07295 0.0
H2409 H 0.04873 0.8285 0.06597 0.0
H2410 H 0.04514 0.85709 0.05365 0.0
H2411 H 0.07534 0.90854 0.08978 0.0
H2412 H 0.05419 0.99044 0.06684 0.0
H2413 H 0.05811 0.96174 0.07791 0.0
H2414 H 0.02306 0.9098 0.04285 0.0
C2415 C 0.05001 0.85744 0.06859 0.0
C2416 C 0.06378 0.90853 0.07959 0.0
C2417 C 0.05224 0.8409 0.07566 0.0
C2418 C 0.04863 0.97811 0.05748 0.0
C2419 C 0.05103 0.96138 0.06383 0.0
C2420 C 0.03475 0.90991 0.05288 0.0
C2421 C 0.05415 0.87416 0.08048 0.0
C2422 C 0.05171 0.89211 0.07301 0.0
C2423 C 0.04416 0.94459 0.05253 0.0
C2424 C 0.04681 0.9264 0.05948 0.0
H2425 H 0.06712 0.85721 0.12191 0.0
H2426 H 0.06384 0.88575 0.10965 0.0
H2427 H 0.02735 0.88116 0.05398 0.0
H2428 H 0.02533 0.96213 0.01408 0.0
H2429 H 0.0294 0.93337 0.02489 0.0
C2430 C 0.95417 0.26117 0.89229 0.0
C2431 C 0.9562 0.27045 0.91087 0.0
C2432 C 0.93887 0.26111 0.87921 0.0
C2433 C 0.90216 0.28708 0.86931 0.0
H2434 H 0.87667 0.24317 0.83862 0.0
C2435 C 0.832 0.28474 0.82744 0.0
C2436 C 0.82687 0.27359 0.81 0.0
C2437 C 0.84786 0.28397 0.83907 0.0
C2438 C 0.88368 0.25569 0.84682 0.0
H2439 H 0.94353 0.2872 0.92984 0.0
H2440 H 0.9174 0.28729 0.90728 0.0
H2441 H 0.90421 0.24269 0.85925 0.0
H2442 H 0.8345 0.25265 0.79132 0.0
H2443 H 0.86239 0.25165 0.81108 0.0
H2444 H 0.88202 0.30024 0.85682 0.0
C2445 C 0.92752 0.27997 0.90271 0.0
C2446 C 0.89957 0.25537 0.85875 0.0
C2447 C 0.94256 0.2798 0.91579 0.0
C2448 C 0.8381 0.2616 0.80454 0.0
C2449 C 0.85405 0.26087 0.81611 0.0
C2450 C 0.88642 0.28745 0.85729 0.0
C2451 C 0.92532 0.27064 0.88419 0.0
C2452 C 0.90896 0.27102 0.87041 0.0
C2453 C 0.85934 0.27212 0.8336 0.0
C2454 C 0.87667 0.27172 0.84598 0.0
H2455 H 0.96432 0.25381 0.88789 0.0
H2456 H 0.93778 0.25383 0.86508 0.0
H2457 H 0.9091 0.29953 0.87771 0.0
H2458 H 0.82401 0.29449 0.83189 0.0
H2459 H 0.85105 0.29272 0.85245 0.0
C2460 C 0.56325 0.23015 0.57064 0.0
C2461 C 0.55509 0.238 0.58559 0.0
C2462 C 0.5607 0.21126 0.56586 0.0
C2463 C 0.54455 0.16616 0.58385 0.0
H2464 H 0.54686 0.14752 0.53143 0.0
C2465 C 0.53102 0.08773 0.55933 0.0
C2466 C 0.53905 0.08083 0.54378 0.0
C2467 C 0.5325 0.10653 0.56441 0.0
C2468 C 0.54642 0.15229 0.54625 0.0
H2469 H 0.53753 0.23118 0.60715 0.0
H2470 H 0.53279 0.19825 0.59865 0.0
H2471 H 0.54963 0.1798 0.54005 0.0
H2472 H 0.55537 0.08921 0.52168 0.0
H2473 H 0.55882 0.12161 0.53098 0.0
H2474 H 0.54137 0.1386 0.59004 0.0
C2475 C 0.5415 0.20687 0.5907 0.0
C2476 C 0.54802 0.17111 0.55128 0.0
C2477 C 0.54412 0.22593 0.59556 0.0
C2478 C 0.54901 0.09367 0.53379 0.0
C2479 C 0.55075 0.11251 0.53903 0.0
C2480 C 0.54298 0.1473 0.57882 0.0
C2481 C 0.54975 0.19908 0.57568 0.0
C2482 C 0.54726 0.17858 0.57024 0.0
C2483 C 0.54241 0.11946 0.5544 0.0
C2484 C 0.54397 0.13986 0.55989 0.0
H2485 H 0.57194 0.23864 0.56255 0.0
H2486 H 0.56773 0.20627 0.55454 0.0
H2487 H 0.54407 0.17101 0.59865 0.0
H2488 H 0.52356 0.07857 0.56776 0.0
H2489 H 0.52558 0.11085 0.57614 0.0
C2490 C 0.5727 0.77608 0.41757 0.0
C2491 C 0.55575 0.76782 0.40795 0.0
C2492 C 0.58827 0.77685 0.40831 0.0
C2493 C 0.60647 0.75658 0.36574 0.0
H2494 H 0.64219 0.80082 0.375 0.0
C2495 C 0.66373 0.77362 0.31754 0.0
C2496 C 0.68007 0.7846 0.32577 0.0
C2497 C 0.64944 0.76944 0.32851 0.0
C2498 C 0.63257 0.7882 0.37243 0.0
H2499 H 0.54203 0.75369 0.38099 0.0
H2500 H 0.56905 0.75504 0.36486 0.0
H2501 H 0.6158 0.79798 0.392 0.0
H2502 H 0.69439 0.7994 0.35206 0.0
H2503 H 0.66988 0.79158 0.37141 0.0
H2504 H 0.6232 0.74688 0.346 0.0
C2505 C 0.57041 0.7608 0.37965 0.0
C2506 C 0.61731 0.78659 0.38223 0.0
C2507 C 0.55484 0.7601 0.3889 0.0
C2508 C 0.68212 0.79052 0.34543 0.0
C2509 C 0.66788 0.78633 0.35642 0.0
C2510 C 0.62177 0.75818 0.35595 0.0
C2511 C 0.58738 0.76934 0.38915 0.0
C2512 C 0.60395 0.77079 0.379 0.0
C2513 C 0.65107 0.77627 0.348 0.0
C2514 C 0.63507 0.77405 0.35908 0.0
H2515 H 0.57396 0.7822 0.43223 0.0
H2516 H 0.60104 0.78333 0.41625 0.0
H2517 H 0.59666 0.74409 0.36301 0.0
H2518 H 0.66156 0.76936 0.30231 0.0
H2519 H 0.63675 0.76182 0.32137 0.0
C2520 C 0.05592 0.25924 0.41029 0.0
C2521 C 0.04786 0.25989 0.39169 0.0
C2522 C 0.05547 0.24279 0.41786 0.0
C2523 C 0.04464 0.19244 0.40623 0.0
H2524 H 0.03453 0.19415 0.45894 0.0
C2525 C 0.01777 0.12781 0.4403 0.0
C2526 C 0.02206 0.12707 0.45999 0.0
C2527 C 0.02321 0.14363 0.43195 0.0
C2528 C 0.03766 0.19337 0.44433 0.0
H2529 H 0.03357 0.2436 0.36616 0.0
H2530 H 0.03257 0.21465 0.37943 0.0
H2531 H 0.03979 0.2219 0.44402 0.0
H2532 H 0.03632 0.14254 0.4861 0.0
H2533 H 0.04631 0.17001 0.47142 0.0
H2534 H 0.04227 0.16382 0.40653 0.0
C2535 C 0.03952 0.22693 0.38811 0.0
C2536 C 0.04068 0.20939 0.43568 0.0
C2537 C 0.04015 0.24352 0.38042 0.0
C2538 C 0.03274 0.1425 0.47091 0.0
C2539 C 0.03828 0.15838 0.4625 0.0
C2540 C 0.04164 0.17639 0.41489 0.0
C2541 C 0.04668 0.22641 0.4072 0.0
C2542 C 0.04411 0.2092 0.41645 0.0
C2543 C 0.03333 0.15928 0.44292 0.0
C2544 C 0.03791 0.17656 0.43404 0.0
H2545 H 0.06199 0.27164 0.41933 0.0
H2546 H 0.0616 0.24301 0.43236 0.0
H2547 H 0.04748 0.1917 0.39151 0.0
H2548 H 0.00989 0.11617 0.43127 0.0
H2549 H 0.01892 0.14368 0.41692 0.0
C2550 C 0.58619 0.24638 0.19944 0.0
C2551 C 0.5769 0.26062 0.20318 0.0
C2552 C 0.60414 0.24739 0.20735 0.0
C2553 C 0.64189 0.27453 0.24376 0.0
H2554 H 0.67168 0.25072 0.2124 0.0
C2555 C 0.72052 0.28587 0.26297 0.0
C2556 C 0.72971 0.27173 0.25816 0.0
C2557 C 0.70199 0.28441 0.25701 0.0
C2558 C 0.66367 0.2573 0.22163 0.0
H2559 H 0.57985 0.28741 0.21825 0.0
H2560 H 0.61101 0.28922 0.23227 0.0
H2561 H 0.64005 0.24842 0.20151 0.0
H2562 H 0.72599 0.245 0.24269 0.0
H2563 H 0.69392 0.24218 0.23281 0.0
H2564 H 0.66568 0.28355 0.26379 0.0
C2565 C 0.60429 0.27692 0.22348 0.0
C2566 C 0.64523 0.25595 0.2153 0.0
C2567 C 0.58621 0.27586 0.21553 0.0
C2568 C 0.71956 0.2561 0.24705 0.0
C2569 C 0.70101 0.25461 0.2411 0.0
C2570 C 0.66038 0.2759 0.25008 0.0
C2571 C 0.61384 0.26287 0.21917 0.0
C2572 C 0.63382 0.26446 0.22622 0.0
C2573 C 0.69175 0.26875 0.2459 0.0
C2574 C 0.67173 0.26728 0.23918 0.0
H2575 H 0.57974 0.23461 0.18961 0.0
H2576 H 0.61049 0.236 0.20381 0.0
H2577 H 0.63387 0.28119 0.25289 0.0
H2578 H 0.72769 0.29823 0.27138 0.0
H2579 H 0.69579 0.29583 0.26091 0.0
C2580 C 0.54862 0.86976 0.8799 0.0
C2581 C 0.54788 0.85338 0.88798 0.0
C2582 C 0.54764 0.88593 0.89123 0.0
C2583 C 0.5533 0.90651 0.94269 0.0
H2584 H 0.52827 0.94221 0.92275 0.0
C2585 C 0.5534 0.97479 0.98872 0.0
C2586 C 0.53843 0.98312 0.98615 0.0
C2587 C 0.55497 0.95957 0.97634 0.0
C2588 C 0.53519 0.93237 0.92874 0.0
H2589 H 0.54541 0.84142 0.91447 0.0
H2590 H 0.54362 0.8691 0.93385 0.0
H2591 H 0.52989 0.91493 0.90219 0.0
H2592 H 0.51312 0.98174 0.96887 0.0
H2593 H 0.51542 0.95497 0.94768 0.0
H2594 H 0.55808 0.92345 0.96938 0.0
C2595 C 0.54519 0.86974 0.91889 0.0
C2596 C 0.53635 0.91673 0.91674 0.0
C2597 C 0.54606 0.85369 0.90762 0.0
C2598 C 0.52495 0.97576 0.97103 0.0
C2599 C 0.52637 0.9604 0.95879 0.0
C2600 C 0.55207 0.92207 0.95469 0.0
C2601 C 0.54606 0.88622 0.91101 0.0
C2602 C 0.54534 0.90342 0.92352 0.0
C2603 C 0.54145 0.95198 0.96113 0.0
C2604 C 0.54295 0.93534 0.94803 0.0
H2605 H 0.55001 0.87009 0.86486 0.0
H2606 H 0.54846 0.89828 0.88454 0.0
H2607 H 0.56061 0.89688 0.94854 0.0
H2608 H 0.56404 0.98021 0.0002 0.0
H2609 H 0.56698 0.95394 0.97862 0.0
C2610 C 0.96697 0.75065 0.72082 0.0
C2611 C 0.96976 0.7527 0.70165 0.0
C2612 C 0.95034 0.75232 0.72772 0.0
C2613 C 0.90148 0.75482 0.71046 0.0
H2614 H 0.8993 0.76953 0.76392 0.0
C2615 C 0.83183 0.75664 0.73901 0.0
C2616 C 0.83046 0.76828 0.75539 0.0
C2617 C 0.84863 0.75459 0.73306 0.0
C2618 C 0.89946 0.76558 0.74885 0.0
H2619 H 0.95668 0.75848 0.67501 0.0
H2620 H 0.92848 0.76174 0.68678 0.0
H2621 H 0.92801 0.76665 0.75281 0.0
H2622 H 0.84668 0.7869 0.7783 0.0
H2623 H 0.87565 0.7841 0.76769 0.0
H2624 H 0.87318 0.75445 0.70626 0.0
C2625 C 0.93876 0.7583 0.69664 0.0
C2626 C 0.91618 0.76363 0.74242 0.0
C2627 C 0.95524 0.75651 0.68977 0.0
C2628 C 0.84682 0.7779 0.76554 0.0
C2629 C 0.86369 0.77605 0.75947 0.0
C2630 C 0.88485 0.75691 0.71684 0.0
C2631 C 0.93575 0.75623 0.71579 0.0
C2632 C 0.91767 0.75819 0.72301 0.0
C2633 C 0.86508 0.76432 0.74303 0.0
C2634 C 0.8833 0.76229 0.73622 0.0
H2635 H 0.9777 0.74786 0.7306 0.0
H2636 H 0.94895 0.75037 0.74247 0.0
H2637 H 0.90144 0.75031 0.69549 0.0
H2638 H 0.81979 0.7491 0.73053 0.0
H2639 H 0.84855 0.7451 0.7206 0.0
C2640 C 0.1315 0.03603 0.8537 0.0
C2641 C 0.12253 0.04119 0.83739 0.0
C2642 C 0.12332 0.03451 0.87052 0.0
C2643 C 0.08807 0.04971 0.89672 0.0
H2644 H 0.09009 0.00749 0.92325 0.0
C2645 C 0.04707 0.03591 0.9601 0.0
C2646 C 0.05429 0.02774 0.97532 0.0
C2647 C 0.05541 0.03736 0.94341 0.0
C2648 C 0.0896 0.01953 0.91626 0.0
H2649 H 0.09801 0.04915 0.82619 0.0
H2650 H 0.08386 0.04691 0.85571 0.0
H2651 H 0.10465 0.01077 0.89425 0.0
H2652 H 0.07609 0.01467 0.98479 0.0
H2653 H 0.09103 0.01766 0.9559 0.0
H2654 H 0.07341 0.05876 0.91882 0.0
C2655 C 0.09722 0.04394 0.85543 0.0
C2656 C 0.09792 0.02137 0.89953 0.0
C2657 C 0.10531 0.04519 0.83849 0.0
C2658 C 0.07015 0.02103 0.97336 0.0
C2659 C 0.07864 0.02264 0.95668 0.0
C2660 C 0.07992 0.048 0.91355 0.0
C2661 C 0.10603 0.03837 0.87161 0.0
C2662 C 0.09722 0.03646 0.8895 0.0
C2663 C 0.07142 0.03088 0.94143 0.0
C2664 C 0.08046 0.03283 0.92358 0.0
H2665 H 0.14474 0.03275 0.85336 0.0
H2666 H 0.13058 0.03038 0.88274 0.0
H2667 H 0.08746 0.06163 0.88953 0.0
H2668 H 0.03488 0.04127 0.96105 0.0
H2669 H 0.04913 0.04345 0.93198 0.0
C2670 C 0.78854 0.40443 0.55581 0.0
C2671 C 0.78569 0.39198 0.5392 0.0
C2672 C 0.78749 0.39824 0.57372 0.0
C2673 C 0.79802 0.36007 0.59468 0.0
H2674 H 0.77212 0.37147 0.63742 0.0
C2675 C 0.79496 0.3154 0.65196 0.0
C2676 C 0.80457 0.32394 0.66928 0.0
C2677 C 0.78845 0.32566 0.63864 0.0
C2678 C 0.77944 0.36835 0.62555 0.0
H2679 H 0.77774 0.36365 0.52798 0.0
H2680 H 0.7758 0.35294 0.55912 0.0
H2681 H 0.7687 0.38672 0.60827 0.0
H2682 H 0.81337 0.34946 0.68733 0.0
H2683 H 0.8024 0.36764 0.66344 0.0
H2684 H 0.80865 0.3417 0.61144 0.0
C2685 C 0.77914 0.36738 0.55834 0.0
C2686 C 0.77754 0.37703 0.60905 0.0
C2687 C 0.78034 0.37349 0.54059 0.0
C2688 C 0.80616 0.3427 0.67388 0.0
C2689 C 0.79976 0.35303 0.66039 0.0
C2690 C 0.79986 0.35149 0.61093 0.0
C2691 C 0.78347 0.37962 0.57504 0.0
C2692 C 0.78645 0.37245 0.59336 0.0
C2693 C 0.79166 0.34458 0.64238 0.0
C2694 C 0.79022 0.35515 0.62622 0.0
H2695 H 0.79262 0.41879 0.55506 0.0
H2696 H 0.79095 0.40784 0.5865 0.0
H2697 H 0.80538 0.35673 0.5829 0.0
H2698 H 0.79319 0.30089 0.6484 0.0
H2699 H 0.78207 0.31894 0.62481 0.0
C2700 C 0.42041 0.00668 0.34878 0.0
C2701 C 0.40734 0.01755 0.34805 0.0
C2702 C 0.4293 1.00461 0.36623 0.0
C2703 C 0.44761 0.03361 0.40694 0.0
H2704 H 0.46147 0.99195 0.42793 0.0
C2705 C 0.49543 0.04 0.47507 0.0
C2706 C 0.50746 0.02805 0.47628 0.0
C2707 C 0.48261 0.03795 0.45939 0.0
C2708 C 0.45785 1.00365 0.422 0.0
H2709 H 0.39208 0.03358 0.3646 0.0
H2710 H 0.40845 0.03066 0.39538 0.0
H2711 H 0.43678 0.98749 0.40201 0.0
H2712 H 0.51648 1.00531 0.46179 0.0
H2713 H 0.49416 1.00204 0.43376 0.0
H2714 H 0.46916 0.04979 0.42595 0.0
C2715 C 0.41145 0.02349 0.38245 0.0
C2716 C 0.44362 1.0011 0.40751 0.0
C2717 C 0.40222 0.02521 0.36497 0.0
C2718 C 0.50724 0.01464 0.4611 0.0
C2719 C 0.49441 0.01265 0.44525 0.0
C2720 C 0.46197 0.03615 0.42115 0.0
C2721 C 0.42546 0.01373 0.38301 0.0
C2722 C 0.43845 0.01609 0.4 0.0
C2723 C 0.48177 0.02407 0.44454 0.0
C2724 C 0.46718 0.0212 0.42881 0.0
H2725 H 0.42437 1.00045 0.33588 0.0
H2726 H 0.44021 0.99716 0.36644 0.0
H2727 H 0.44412 0.04529 0.40082 0.0
H2728 H 0.49551 0.05061 0.48653 0.0
H2729 H 0.47294 0.04684 0.45927 0.0
C2730 C 0.77736 0.69017 0.07414 0.0
C2731 C 0.77337 0.70134 0.06014 0.0
C2732 C 0.77877 0.69647 0.09373 0.0
C2733 C 0.76385 0.73093 0.12634 0.0
H2734 H 0.80045 0.72142 0.16386 0.0
C2735 C 0.77387 0.76552 0.2046 0.0
C2736 C 0.77964 0.75589 0.21929 0.0
C2737 C 0.77307 0.75859 0.18533 0.0
C2738 C 0.78993 0.72401 0.15368 0.0
H2739 H 0.76869 0.72828 0.05603 0.0
H2740 H 0.77126 0.73909 0.08972 0.0
H2741 H 0.79948 0.70952 0.13042 0.0
H2742 H 0.78853 0.73106 0.22508 0.0
H2743 H 0.78675 0.71887 0.1918 0.0
H2744 H 0.75407 0.74515 0.14945 0.0
C2745 C 0.77288 0.72535 0.0857 0.0
C2746 C 0.78943 0.71718 0.13442 0.0
C2747 C 0.7715 0.71912 0.06628 0.0
C2748 C 0.78425 0.73901 0.21419 0.0
C2749 C 0.78333 0.73203 0.19499 0.0
C2750 C 0.76424 0.73762 0.14557 0.0
C2751 C 0.77618 0.71406 0.09974 0.0
C2752 C 0.77647 0.72067 0.12045 0.0
C2753 C 0.77789 0.74175 0.18019 0.0
C2754 C 0.77735 0.73438 0.15959 0.0
H2755 H 0.77887 0.67642 0.07 0.0
H2756 H 0.78131 0.68738 0.10415 0.0
H2757 H 0.75346 0.73364 0.11606 0.0
H2758 H 0.77036 0.77862 0.20794 0.0
H2759 H 0.76904 0.76668 0.17447 0.0
C2760 C 0.10086 0.02228 0.72521 0.0
C2761 C 0.11323 0.03772 0.73358 0.0
C2762 C 0.09458 0.02031 0.70566 0.0
C2763 C 0.10311 0.03926 0.6596 0.0
H2764 H 0.0525 0.0194 0.64529 0.0
C2765 C 0.06586 0.04687 0.58614 0.0
C2766 C 0.05252 0.03238 0.57722 0.0
C2767 C 0.07391 0.04661 0.60476 0.0
C2768 C 0.06671 0.02477 0.64893 0.0
H2769 H 0.12879 0.0632 0.72829 0.0
H2770 H 0.11782 0.05998 0.69428 0.0
H2771 H 0.06558 0.02024 0.6782 0.0
H2772 H 0.03763 0.0059 0.58079 0.0
H2773 H 0.05182 1.0053 0.61308 0.0
H2774 H 0.10412 0.04403 0.63033 0.0
C2775 C 0.11319 0.04911 0.70253 0.0
C2776 C 0.07427 0.02522 0.66789 0.0
C2777 C 0.1195 0.051 0.72205 0.0
C2778 C 0.04773 0.01741 0.58725 0.0
C2779 C 0.05581 0.01711 0.60586 0.0
C2780 C 0.09553 0.03885 0.64065 0.0
C2781 C 0.10039 0.03387 0.69408 0.0
C2782 C 0.09257 0.03258 0.67357 0.0
C2783 C 0.06893 0.03177 0.61496 0.0
C2784 C 0.07719 0.0317 0.63505 0.0
H2785 H 0.09568 0.01196 0.7339 0.0
H2786 H 0.08498 0.00825 0.6997 0.0
H2787 H 0.11729 0.04475 0.66326 0.0
H2788 H 0.07014 0.05845 0.57875 0.0
H2789 H 0.08384 0.05822 0.61127 0.0
C2790 C 0.80315 0.41113 0.43389 0.0
C2791 C 0.78789 0.40814 0.4435 0.0
C2792 C 0.80431 0.39931 0.41789 0.0
C2793 C 0.7889 0.35197 0.40295 0.0
H2794 H 0.80172 0.36101 0.35263 0.0
C2795 C 0.77085 0.3104 0.32842 0.0
C2796 C 0.78465 0.30161 0.32335 0.0
C2797 C 0.77362 0.32251 0.34486 0.0
C2798 C 0.79855 0.35849 0.36684 0.0
H2799 H 0.76136 0.39218 0.44368 0.0
H2800 H 0.76314 0.37179 0.41541 0.0
H2801 H 0.80119 0.38667 0.37648 0.0
H2802 H 0.81167 0.29744 0.33146 0.0
H2803 H 0.8166 0.31914 0.36053 0.0
H2804 H 0.78539 0.3238 0.39296 0.0
C2805 C 0.77427 0.3829 0.42027 0.0
C2806 C 0.79816 0.37302 0.38031 0.0
C2807 C 0.77317 0.39457 0.43621 0.0
C2808 C 0.80085 0.30406 0.33541 0.0
C2809 C 0.80371 0.31642 0.3518 0.0
C2810 C 0.78933 0.3375 0.38953 0.0
C2811 C 0.79022 0.3846 0.41174 0.0
C2812 C 0.79275 0.36975 0.39817 0.0
C2813 C 0.79025 0.32596 0.35614 0.0
C2814 C 0.79372 0.34077 0.37136 0.0
H2815 H 0.81467 0.42149 0.43969 0.0
H2816 H 0.81668 0.40078 0.41134 0.0
H2817 H 0.785 0.34928 0.41687 0.0
H2818 H 0.75825 0.30849 0.31924 0.0
H2819 H 0.76315 0.32985 0.34829 0.0
C2820 C 0.41319 0.03668 0.2405 0.0
C2821 C 0.41551 0.02103 0.24884 0.0
C2822 C 0.41723 0.03847 0.22187 0.0
C2823 C 0.42383 0.01281 0.17761 0.0
H2824 H 0.4669 0.04868 0.17648 0.0
C2825 C 0.46903 1.00459 0.11953 0.0
C2826 C 0.48687 1.00501 0.12716 0.0
C2827 C 0.45731 0.01181 0.13055 0.0
C2828 C 0.4547 0.03881 0.17644 0.0
H2829 H 0.42268 0.99463 0.24434 0.0
H2830 H 0.42932 0.99755 0.21173 0.0
H2831 H 0.4492 0.05086 0.20331 0.0
H2832 H 0.50664 0.01402 0.15196 0.0
H2833 H 0.48589 0.02584 0.17159 0.0
H2834 H 0.43009 0.99975 0.1518 0.0
C2835 C 0.42457 0.00846 0.21951 0.0
C2836 C 0.44449 0.04018 0.19163 0.0
C2837 C 0.421 0.00688 0.23817 0.0
C2838 C 0.49289 0.01324 0.14584 0.0
C2839 C 0.48111 0.02035 0.15692 0.0
C2840 C 0.43397 0.01146 0.16244 0.0
C2841 C 0.42301 0.02437 0.21135 0.0
C2842 C 0.42961 0.02659 0.19279 0.0
C2843 C 0.46313 0.01941 0.14947 0.0
C2844 C 0.45004 0.02387 0.1623 0.0
H2845 H 0.40894 0.04772 0.24862 0.0
H2846 H 0.41617 0.0509 0.2158 0.0
H2847 H 0.41237 1.00221 0.17833 0.0
H2848 H 0.46396 0.99822 0.10521 0.0
H2849 H 0.44352 0.01094 0.12448 0.0
C2850 C 0.78141 0.67783 0.94355 0.0
C2851 C 0.77144 0.68449 0.95738 0.0
C2852 C 0.78309 0.68572 0.92651 0.0
C2853 C 0.76123 0.71288 0.8941 0.0
H2854 H 0.80778 0.7236 0.87554 0.0
C2855 C 0.77319 0.7565 0.83242 0.0
C2856 C 0.78341 0.75094 0.81823 0.0
C2857 C 0.77204 0.74806 0.84908 0.0
C2858 C 0.79464 0.72047 0.88038 0.0
H2859 H 0.75517 0.70442 0.96406 0.0
H2860 H 0.75753 0.7178 0.934 0.0
H2861 H 0.80496 0.70961 0.90516 0.0
H2862 H 0.8006 0.7322 0.81058 0.0
H2863 H 0.79889 0.71751 0.84007 0.0
H2864 H 0.75088 0.7237 0.8694 0.0
C2865 C 0.76423 0.7066 0.9364 0.0
C2866 C 0.79302 0.71247 0.89739 0.0
C2867 C 0.76289 0.69897 0.95364 0.0
C2868 C 0.79262 0.73676 0.82123 0.0
C2869 C 0.79169 0.72844 0.83816 0.0
C2870 C 0.76284 0.72082 0.87711 0.0
C2871 C 0.77452 0.70021 0.92269 0.0
C2872 C 0.77629 0.70862 0.9045 0.0
C2873 C 0.78122 0.73388 0.85222 0.0
C2874 C 0.77957 0.72481 0.87003 0.0
H2875 H 0.78835 0.66684 0.94612 0.0
H2876 H 0.79102 0.68039 0.91625 0.0
H2877 H 0.74811 0.70987 0.89897 0.0
H2878 H 0.76576 0.76727 0.83055 0.0
H2879 H 0.76403 0.75278 0.85962 0.0
C2880 C 0.83378 0.11881 0.04636 0.0
C2881 C 0.81774 0.10943 0.05169 0.0
C2882 C 0.84877 0.11083 0.04626 0.0
C2883 C 0.87949 0.0901 0.0593 0.0
H2884 H 0.87583 0.05999 0.01095 0.0
C2885 C 0.92815 0.0494 0.01881 0.0
C2886 C 0.93604 0.06081 0.00608 0.0
C2887 C 0.91509 0.05445 0.02946 0.0
C2888 C 0.87686 0.06808 0.02465 0.0
H2889 H 0.80486 0.08478 0.06186 0.0
H2890 H 0.83152 0.07058 0.06147 0.0
H2891 H 0.84885 0.069 0.02185 0.0
H2892 H 0.9371 0.08692 0.99548 0.0
H2893 H 0.91357 0.09538 0.01371 0.0
H2894 H 0.90778 0.08998 0.06146 0.0
C2895 C 0.83224 0.08415 0.05753 0.0
C2896 C 0.86153 0.07303 0.03093 0.0
C2897 C 0.81711 0.09219 0.05766 0.0
C2898 C 0.93112 0.07774 0.00492 0.0
C2899 C 0.9179 0.08269 0.01548 0.0
C2900 C 0.89486 0.08504 0.05305 0.0
C2901 C 0.84798 0.09342 0.05156 0.0
C2902 C 0.86288 0.0844 0.04803 0.0
C2903 C 0.90965 0.07088 0.02745 0.0
C2904 C 0.89358 0.07444 0.03547 0.0
H2905 H 0.83455 0.13199 0.04136 0.0
H2906 H 0.86072 0.11789 0.04112 0.0
H2907 H 0.88068 0.0992 0.07234 0.0
H2908 H 0.93129 0.03611 0.01986 0.0
H2909 H 0.90859 0.04515 0.03851 0.0
C2910 C 0.34983 0.4268 0.02599 0.0
C2911 C 0.34979 0.41029 0.03353 0.0
C2912 C 0.36594 0.43929 0.02654 0.0
C2913 C 0.41162 0.45325 0.05182 0.0
H2914 H 0.42469 0.47039 0.00432 0.0
C2915 C 0.48391 0.48921 0.04432 0.0
C2916 C 0.48622 0.50288 0.03218 0.0
C2917 C 0.46684 0.47897 0.04524 0.0
C2918 C 0.42118 0.46605 0.01782 0.0
H2919 H 0.36632 0.39417 0.0482 0.0
H2920 H 0.39427 0.41618 0.04974 0.0
H2921 H 0.39538 0.45135 0.00495 0.0
H2922 H 0.47228 0.5163 0.0113 0.0
H2923 H 0.4426 0.49911 0.01353 0.0
H2924 H 0.43723 0.46805 0.06483 0.0
C2925 C 0.38196 0.41939 0.04317 0.0
C2926 C 0.40436 0.45508 0.01813 0.0
C2927 C 0.36599 0.40677 0.04221 0.0
C2928 C 0.47101 0.50616 0.02113 0.0
C2929 C 0.45395 0.49604 0.02216 0.0
C2930 C 0.42834 0.46441 0.05159 0.0
C2931 C 0.38218 0.43566 0.03509 0.0
C2932 C 0.39948 0.4484 0.03508 0.0
C2933 C 0.45161 0.48216 0.03409 0.0
C2934 C 0.43346 0.47083 0.03453 0.0
H2935 H 0.33753 0.42979 0.01912 0.0
H2936 H 0.36572 0.45176 0.02025 0.0
H2937 H 0.40814 0.44842 0.06514 0.0
H2938 H 0.49535 0.4862 0.05288 0.0
H2939 H 0.46568 0.46822 0.05435 0.0
C2940 C 0.38745 0.55965 0.75136 0.0
C2941 C 0.40526 0.56113 0.75969 0.0
C2942 C 0.37931 0.57484 0.75166 0.0
C2943 C 0.38223 0.61899 0.77963 0.0
H2944 H 0.35003 0.62814 0.73733 0.0
C2945 C 0.34822 0.68032 0.78713 0.0
C2946 C 0.32972 0.67689 0.78117 0.0
C2947 C 0.35876 0.66791 0.78139 0.0
C2948 C 0.35893 0.62573 0.7493 0.0
H2949 H 0.42862 0.57979 0.77441 0.0
H2950 H 0.41443 0.60626 0.77492 0.0
H2951 H 0.36578 0.60279 0.7335 0.0
H2952 H 0.30774 0.65842 0.76403 0.0
H2953 H 0.32607 0.63659 0.75395 0.0
H2954 H 0.37508 0.64145 0.79566 0.0
C2955 C 0.40672 0.59334 0.76827 0.0
C2956 C 0.36794 0.6112 0.7471 0.0
C2957 C 0.41488 0.57819 0.76787 0.0
C2958 C 0.32208 0.66146 0.76845 0.0
C2959 C 0.3326 0.64896 0.76276 0.0
C2960 C 0.3732 0.63342 0.78184 0.0
C2961 C 0.38875 0.59181 0.76042 0.0
C2962 C 0.37965 0.60763 0.76228 0.0
C2963 C 0.35094 0.65169 0.7698 0.0
C2964 C 0.36138 0.63698 0.76675 0.0
H2965 H 0.37967 0.54669 0.74495 0.0
H2966 H 0.36541 0.57316 0.74563 0.0
H2967 H 0.39085 0.61641 0.79174 0.0
H2968 H 0.3543 0.69204 0.79719 0.0
H2969 H 0.3729 0.67064 0.78677 0.0
C2970 C 0.20506 0.62056 0.54008 0.0
C2971 C 0.21881 0.61405 0.53149 0.0
C2972 C 0.18827 0.60959 0.5392 0.0
C2973 C 0.15764 0.57509 0.5091 0.0
H2974 H 0.13265 0.57077 0.55409 0.0
C2975 C 0.08535 0.5355 0.51078 0.0
C2976 C 0.07524 0.54367 0.52326 0.0
C2977 C 0.10303 0.54366 0.50963 0.0
C2978 C 0.13944 0.57203 0.5414 0.0
H2979 H 0.22623 0.59105 0.51568 0.0
H2980 H 0.19627 0.5719 0.5135 0.0
H2981 H 0.16454 0.58407 0.55774 0.0
H2982 H 0.07453 0.56678 0.54347 0.0
H2983 H 0.10541 0.58144 0.54113 0.0
H2984 H 0.13234 0.56356 0.49272 0.0
C2985 C 0.1987 0.58542 0.52103 0.0
C2986 C 0.15764 0.57942 0.54352 0.0
C2987 C 0.21569 0.59631 0.52227 0.0
C2988 C 0.08227 0.56052 0.53362 0.0
C2989 C 0.09988 0.56872 0.53242 0.0
C2990 C 0.13934 0.56775 0.50695 0.0
C2991 C 0.18494 0.59208 0.52947 0.0
C2992 C 0.16672 0.5814 0.52737 0.0
C2993 C 0.11062 0.55991 0.52113 0.0
C2994 C 0.13006 0.56667 0.52308 0.0
H2995 H 0.20732 0.6341 0.54757 0.0
H2996 H 0.17774 0.61496 0.5457 0.0
H2997 H 0.16448 0.57668 0.49648 0.0
H2998 H 0.07998 0.5223 0.50294 0.0
H2999 H 0.1111 0.53664 0.50086 0.0
C3000 C 0.71602 0.99471 0.7378 0.0
C3001 C 0.69813 0.99298 0.74167 0.0
C3002 C 0.72404 0.97957 0.73655 0.0
C3003 C 0.73601 0.95144 0.76027 0.0
H3004 H 0.72071 0.90271 0.7342 0.0
C3005 C 0.74388 0.8898 0.79627 0.0
C3006 C 0.75817 0.88227 0.79017 0.0
C3007 C 0.73604 0.90109 0.78512 0.0
C3008 C 0.72515 0.91633 0.74136 0.0
H3009 H 0.67405 0.97404 0.74548 0.0
H3010 H 0.68822 0.94765 0.74349 0.0
H3011 H 0.70859 0.9279 0.72154 0.0
H3012 H 0.7748 0.8796 0.7672 0.0
H3013 H 0.76093 0.89955 0.74766 0.0
H3014 H 0.75149 0.93985 0.78083 0.0
C3015 C 0.69591 0.96062 0.7412 0.0
C3016 C 0.71836 0.9306 0.73415 0.0
C3017 C 0.6879 0.97574 0.74256 0.0
C3018 C 0.76376 0.88526 0.77219 0.0
C3019 C 0.75585 0.89652 0.76099 0.0
C3020 C 0.7425 0.93722 0.7676 0.0
C3021 C 0.71419 0.9626 0.73898 0.0
C3022 C 0.72359 0.94814 0.74379 0.0
C3023 C 0.74234 0.90484 0.76772 0.0
C3024 C 0.73682 0.91962 0.75841 0.0
H3025 H 0.7241 0.00784 0.73684 0.0
H3026 H 0.73823 0.98126 0.73497 0.0
H3027 H 0.73984 0.96483 0.76813 0.0
H3028 H 0.7391 0.88733 0.80987 0.0
H3029 H 0.72559 0.90752 0.79042 0.0
C3030 C 0.75216 0.9278 0.54208 0.0
C3031 C 0.75017 0.90904 0.53712 0.0
C3032 C 0.73717 0.93616 0.54127 0.0
C3033 C 0.69041 0.92896 0.51779 0.0
H3034 H 0.68742 0.97072 0.55281 0.0
C3035 C 0.62907 0.96307 0.50984 0.0
C3036 C 0.63287 0.98197 0.51052 0.0
C3037 C 0.64236 0.95376 0.51627 0.0
C3038 C 0.68808 0.95911 0.54287 0.0
H3039 H 0.73078 0.88426 0.52808 0.0
H3040 H 0.70463 0.89872 0.52708 0.0
H3041 H 0.71259 0.95508 0.55793 0.0
H3042 H 0.65314 0.00608 0.51893 0.0
H3043 H 0.67647 0.98988 0.53028 0.0
H3044 H 0.66611 0.93307 0.50258 0.0
C3045 C 0.7178 0.90708 0.53122 0.0
C3046 C 0.70254 0.95015 0.54577 0.0
C3047 C 0.7328 0.89875 0.53195 0.0
C3048 C 0.64986 0.99151 0.51862 0.0
C3049 C 0.66319 0.9822 0.52506 0.0
C3050 C 0.67596 0.93785 0.51494 0.0
C3051 C 0.7198 0.92595 0.53554 0.0
C3052 C 0.70397 0.93502 0.53318 0.0
C3053 C 0.65978 0.96316 0.52337 0.0
C3054 C 0.67464 0.95311 0.52735 0.0
H3055 H 0.76536 0.93615 0.54604 0.0
H3056 H 0.7393 0.95072 0.54448 0.0
H3057 H 0.69119 0.91763 0.50753 0.0
H3058 H 0.6161 0.95546 0.5034 0.0
H3059 H 0.63916 0.93913 0.51505 0.0
C3060 C 0.40817 0.44398 0.75641 0.0
C3061 C 0.40404 0.46092 0.76224 0.0
C3062 C 0.39527 0.42815 0.75536 0.0
C3063 C 0.35577 0.40838 0.77642 0.0
H3064 H 0.34816 0.37185 0.73258 0.0
C3065 C 0.30479 0.34128 0.77391 0.0
C3066 C 0.3092 0.32545 0.76508 0.0
C3067 C 0.31499 0.3583 0.77238 0.0
C3068 C 0.35026 0.38176 0.74508 0.0
H3069 H 0.38306 0.47449 0.7714 0.0
H3070 H 0.36056 0.44661 0.77006 0.0
H3071 H 0.36846 0.40057 0.73204 0.0
H3072 H 0.32803 0.31524 0.74784 0.0
H3073 H 0.34616 0.34469 0.74577 0.0
H3074 H 0.33829 0.38942 0.78989 0.0
C3075 C 0.37379 0.44572 0.76614 0.0
C3076 C 0.36182 0.39829 0.74468 0.0
C3077 C 0.38662 0.46166 0.7668 0.0
C3078 C 0.32411 0.32712 0.7547 0.0
C3079 C 0.33446 0.34411 0.75338 0.0
C3080 C 0.34441 0.39174 0.77696 0.0
C3081 C 0.37802 0.42879 0.76045 0.0
C3082 C 0.3648 0.41173 0.76039 0.0
C3083 C 0.3301 0.35999 0.76224 0.0
C3084 C 0.34158 0.37809 0.76135 0.0
H3085 H 0.42143 0.44296 0.75269 0.0
H3086 H 0.39895 0.4153 0.75105 0.0
H3087 H 0.35798 0.41842 0.78884 0.0
H3088 H 0.29364 0.34055 0.78236 0.0
H3089 H 0.31101 0.37014 0.77921 0.0
C3090 C 0.18964 0.60721 0.25705 0.0
C3091 C 0.19594 0.59267 0.26442 0.0
C3092 C 0.20109 0.62372 0.25762 0.0
C3093 C 0.23804 0.65234 0.28609 0.0
H3094 H 0.23828 0.67987 0.2426 0.0
C3095 C 0.27712 0.72523 0.2836 0.0
C3096 C 0.26753 0.73606 0.27338 0.0
C3097 C 0.26924 0.7074 0.28495 0.0
C3098 C 0.23821 0.67233 0.25486 0.0
H3099 H 0.21911 0.58355 0.27758 0.0
H3100 H 0.23927 0.61308 0.27922 0.0
H3101 H 0.22488 0.64778 0.23805 0.0
H3102 H 0.24229 0.73793 0.25762 0.0
H3103 H 0.22827 0.70671 0.26017 0.0
H3104 H 0.25094 0.67714 0.30298 0.0
C3105 C 0.22546 0.61145 0.2729 0.0
C3106 C 0.23077 0.65403 0.25222 0.0
C3107 C 0.21401 0.59471 0.27199 0.0
C3108 C 0.24968 0.72965 0.26573 0.0
C3109 C 0.24181 0.71186 0.26705 0.0
C3110 C 0.24552 0.67073 0.28875 0.0
C3111 C 0.21897 0.62601 0.26577 0.0
C3112 C 0.23016 0.64407 0.2679 0.0
C3113 C 0.25187 0.70042 0.27583 0.0
C3114 C 0.24509 0.68089 0.27323 0.0
H3115 H 0.17583 0.6058 0.25078 0.0
H3116 H 0.19582 0.63487 0.25219 0.0
H3117 H 0.2375 0.64483 0.29837 0.0
H3118 H 0.29104 0.73016 0.28936 0.0
H3119 H 0.27718 0.69874 0.29177 0.0
C3120 C 0.50019 0.71237 0.47544 0.0
C3121 C 0.50843 0.72011 0.46036 0.0
C3122 C 0.50271 0.69537 0.48068 0.0
C3123 C 0.5197 0.65268 0.46426 0.0
H3124 H 0.51615 0.64379 0.51683 0.0
C3125 C 0.51865 0.57986 0.4883 0.0
C3126 C 0.52528 0.578 0.5072 0.0
C3127 C 0.51712 0.59698 0.48246 0.0
C3128 C 0.51741 0.64586 0.50208 0.0
H3129 H 0.52605 0.7152 0.43902 0.0
H3130 H 0.53069 0.68576 0.44825 0.0
H3131 H 0.51344 0.67318 0.50726 0.0
H3132 H 0.53516 0.59343 0.53473 0.0
H3133 H 0.53336 0.62293 0.52459 0.0
H3134 H 0.52422 0.62545 0.45928 0.0
C3135 C 0.52194 0.69281 0.45597 0.0
C3136 C 0.51553 0.66293 0.49642 0.0
C3137 C 0.51934 0.70991 0.45065 0.0
C3138 C 0.53026 0.59404 0.52 0.0
C3139 C 0.52893 0.61116 0.51414 0.0
C3140 C 0.52163 0.63558 0.46995 0.0
C3141 C 0.51373 0.68515 0.47121 0.0
C3142 C 0.51646 0.66678 0.47732 0.0
C3143 C 0.52225 0.61311 0.49522 0.0
C3144 C 0.52045 0.63168 0.48901 0.0
H3145 H 0.49157 0.71945 0.48336 0.0
H3146 H 0.49568 0.69019 0.49213 0.0
H3147 H 0.52045 0.65467 0.44941 0.0
H3148 H 0.51465 0.56802 0.47786 0.0
H3149 H 0.51162 0.59744 0.46788 0.0
C3150 C 0.62939 0.29291 0.63054 0.0
C3151 C 0.61288 0.29557 0.63667 0.0
C3152 C 0.64399 0.29123 0.6436 0.0
C3153 C 0.66327 0.30101 0.6951 0.0
H3154 H 0.69288 0.26645 0.68064 0.0
C3155 C 0.73286 0.29956 0.73824 0.0
C3156 C 0.73744 0.28263 0.74049 0.0
C3157 C 0.71731 0.30099 0.72633 0.0
C3158 C 0.68477 0.27613 0.68506 0.0
H3159 H 0.59924 0.29865 0.6619 0.0
H3160 H 0.62482 0.29602 0.68472 0.0
H3161 H 0.66666 0.26904 0.65914 0.0
H3162 H 0.72933 0.25391 0.73176 0.0
H3163 H 0.7025 0.2563 0.71074 0.0
H3164 H 0.68145 0.30808 0.72107 0.0
C3165 C 0.62642 0.29523 0.66965 0.0
C3166 C 0.66972 0.27776 0.67255 0.0
C3167 C 0.61165 0.29669 0.6565 0.0
C3168 C 0.72615 0.26715 0.7304 0.0
C3169 C 0.71079 0.26858 0.71823 0.0
C3170 C 0.67847 0.29952 0.70755 0.0
C3171 C 0.64284 0.2923 0.66341 0.0
C3172 C 0.65869 0.29028 0.67726 0.0
C3173 C 0.70601 0.28553 0.71598 0.0
C3174 C 0.68955 0.28706 0.70276 0.0
H3175 H 0.63103 0.29187 0.61548 0.0
H3176 H 0.65634 0.28925 0.63808 0.0
H3177 H 0.6553 0.31089 0.69934 0.0
H3178 H 0.74125 0.31174 0.74586 0.0
H3179 H 0.71434 0.31431 0.72497 0.0
C3180 C 0.01468 0.3338 0.94108 0.0
C3181 C 0.01191 0.31972 0.95279 0.0
C3182 C 0.01552 0.35202 0.94826 0.0
C3183 C 0.0204 0.38406 0.99433 0.0
H3184 H 1.00709 0.41695 0.95922 0.0
C3185 C 0.01726 0.4605 0.01917 0.0
C3186 C 0.02371 0.47357 0.00728 0.0
C3187 C 0.01529 0.44172 0.01327 0.0
C3188 C 0.01105 0.40809 0.9693 0.0
H3189 H 1.00776 0.31437 0.98166 0.0
H3190 H 1.00877 0.346 0.99414 0.0
H3191 H 1.00433 0.38511 0.948 0.0
H3192 H 0.03289 0.47652 0.97952 0.0
H3193 H 0.02926 0.44425 0.96928 0.0
H3194 H 0.02672 0.40728 0.01572 0.0
C3195 C 0.01064 0.34301 0.9793 0.0
C3196 C 0.00954 0.38958 0.96279 0.0
C3197 C 0.00989 0.32467 0.97208 0.0
C3198 C 0.02789 0.46709 0.98921 0.0
C3199 C 0.02569 0.44839 0.98324 0.0
C3200 C 0.02173 0.40262 0.00091 0.0
C3201 C 0.01348 0.35717 0.96753 0.0
C3202 C 0.0144 0.37708 0.97503 0.0
C3203 C 0.01942 0.43526 0.99512 0.0
C3204 C 0.01728 0.41509 0.98847 0.0
H3205 H 0.01645 0.33078 0.9262 0.0
H3206 H 0.01816 0.36212 0.93855 0.0
H3207 H 0.02453 0.37529 0.0044 0.0
H3208 H 0.01394 0.46476 0.03321 0.0
H3209 H 0.0103 0.43224 0.02291 0.0
C3210 C 0.01304 0.7805 0.15827 0.0
C3211 C 0.01221 0.78526 0.13952 0.0
C3212 C 0.99789 0.77891 0.16823 0.0
C3213 C 0.95292 0.79219 0.16879 0.0
H3214 H 0.94457 0.75443 0.20199 0.0
C3215 C 0.88519 0.77209 0.19993 0.0
C3216 C 0.88529 0.76595 0.21804 0.0
C3217 C 0.90116 0.77637 0.19161 0.0
C3218 C 0.94679 0.76527 0.19305 0.0
H3219 H 0.99457 0.79211 0.1166 0.0
H3220 H 0.96809 0.78915 0.13384 0.0
H3221 H 0.97076 0.75737 0.1846 0.0
H3222 H 0.90232 0.75984 0.24185 0.0
H3223 H 0.93035 0.76748 0.22747 0.0
H3224 H 0.92878 0.79993 0.17712 0.0
C3225 C 0.98054 0.7868 0.14098 0.0
C3226 C 0.96188 0.76694 0.18298 0.0
C3227 C 0.99573 0.78834 0.13098 0.0
C3228 C 0.90186 0.7648 0.22799 0.0
C3229 C 0.91788 0.76894 0.21959 0.0
C3230 C 0.9378 0.7905 0.17886 0.0
C3231 C 0.98138 0.78207 0.1598 0.0
C3232 C 0.9652 0.78039 0.17062 0.0
C3233 C 0.91772 0.7744 0.20106 0.0
C3234 C 0.93443 0.77695 0.19111 0.0
H3235 H 0.0255 0.77813 0.1654 0.0
H3236 H 0.99927 0.77552 0.18275 0.0
H3237 H 0.95508 0.80292 0.15972 0.0
H3238 H 0.87258 0.77286 0.19184 0.0
H3239 H 0.90034 0.78035 0.17731 0.0
C3240 C 0.52479 0.29925 0.14206 0.0
C3241 C 0.52564 0.30054 0.16211 0.0
C3242 C 0.52564 0.31469 0.13247 0.0
C3243 C 0.54092 0.36427 0.13806 0.0
H3244 H 0.50808 0.36161 0.09201 0.0
C3245 C 0.54386 0.42527 0.0936 0.0
C3246 C 0.54199 0.42107 0.07365 0.0
C3247 C 0.53943 0.41165 0.10549 0.0
C3248 C 0.51751 0.36262 0.10471 0.0
H3249 H 0.52843 0.31932 0.18779 0.0
H3250 H 0.53036 0.34647 0.17103 0.0
H3251 H 0.50611 0.33594 0.11049 0.0
H3252 H 0.53369 0.39944 0.05052 0.0
H3253 H 0.52591 0.37582 0.07093 0.0
H3254 H 0.55277 0.39069 0.13198 0.0
C3255 C 0.5289 0.33338 0.16274 0.0
C3256 C 0.51634 0.34784 0.11537 0.0
C3257 C 0.52777 0.31782 0.17236 0.0
C3258 C 0.5348 0.40316 0.06582 0.0
C3259 C 0.53041 0.38957 0.07763 0.0
C3260 C 0.54224 0.37903 0.12727 0.0
C3261 C 0.52759 0.33198 0.14262 0.0
C3262 C 0.52818 0.34832 0.13206 0.0
C3263 C 0.53317 0.39345 0.09771 0.0
C3264 C 0.53071 0.37837 0.11024 0.0
H3265 H 0.52311 0.2862 0.13363 0.0
H3266 H 0.52485 0.31306 0.11703 0.0
H3267 H 0.55035 0.36511 0.15074 0.0
H3268 H 0.54979 0.43887 0.10004 0.0
H3269 H 0.54149 0.41534 0.12081 0.0
C3270 C 0.97409 0.29199 0.35354 0.0
C3271 C 0.98903 0.30066 0.3454 0.0
C3272 C 0.9564 0.29063 0.345 0.0
C3273 C 0.92702 0.29578 0.30036 0.0
H3274 H 0.89246 0.29919 0.33658 0.0
C3275 C 0.85014 0.29789 0.27741 0.0
C3276 C 0.83737 0.28852 0.2879 0.0
C3277 C 0.86886 0.30001 0.28313 0.0
C3278 C 0.90174 0.29797 0.32611 0.0
H3279 H 0.99652 0.31413 0.32097 0.0
H3280 H 0.9654 0.31183 0.30589 0.0
H3281 H 0.92385 0.30136 0.34806 0.0
H3282 H 0.83491 0.27416 0.31288 0.0
H3283 H 0.86687 0.2778 0.32264 0.0
H3284 H 0.90457 0.29258 0.27838 0.0
C3285 C 0.96754 0.30596 0.31908 0.0
C3286 C 0.92 0.29919 0.33277 0.0
C3287 C 0.98551 0.30725 0.3277 0.0
C3288 C 0.84407 0.2815 0.3043 0.0
C3289 C 0.86263 0.28373 0.31005 0.0
C3290 C 0.9086 0.29461 0.29364 0.0
C3291 C 0.95257 0.29805 0.3279 0.0
C3292 C 0.93307 0.2978 0.32012 0.0
C3293 C 0.8755 0.29303 0.29967 0.0
C3294 C 0.89552 0.29538 0.30642 0.0
H3295 H 0.97604 0.2865 0.36699 0.0
H3296 H 0.94563 0.28383 0.35211 0.0
H3297 H 0.93641 0.2946 0.29 0.0
H3298 H 0.8457 0.30338 0.26461 0.0
H3299 H 0.87814 0.30735 0.27468 0.0
C3300 C 0.03641 0.69854 0.64498 0.0
C3301 C 0.02072 0.70424 0.65016 0.0
C3302 C 0.03573 0.68172 0.63453 0.0
C3303 C 0.01187 0.63546 0.62044 0.0
H3304 H 0.03386 0.64002 0.57363 0.0
C3305 C 0.01398 0.57143 0.56731 0.0
C3306 C 0.02755 0.57215 0.5551 0.0
C3307 C 0.01191 0.58699 0.5789 0.0
C3308 C 0.02797 0.6382 0.58676 0.0
H3309 H 0.99192 0.69585 0.64907 0.0
H3310 H 0.99078 0.66573 0.63126 0.0
H3311 H 0.03242 0.66693 0.59456 0.0
H3312 H 0.04986 0.58998 0.54602 0.0
H3313 H 0.04702 0.61658 0.56667 0.0
H3314 H 1.00824 0.60676 0.61335 0.0
C3315 C 1.00365 0.67469 0.63527 0.0
C3316 C 0.02694 0.65384 0.59872 0.0
C3317 C 1.0043 0.69187 0.64564 0.0
C3318 C 0.03912 0.58887 0.55505 0.0
C3319 C 0.03731 0.60431 0.56691 0.0
C3320 C 0.01326 0.61971 0.60866 0.0
C3321 C 0.01934 0.6697 0.629 0.0
C3322 C 0.01898 0.65276 0.6158 0.0
C3323 C 0.02355 0.60383 0.57902 0.0
C3324 C 0.02149 0.62071 0.59159 0.0
H3325 H 0.04932 0.70761 0.64819 0.0
H3326 H 0.04809 0.6783 0.63025 0.0
H3327 H 1.00579 0.63409 0.63356 0.0
H3328 H 1.00471 0.55885 0.56767 0.0
H3329 H 1.00091 0.58573 0.58755 0.0
C3330 C 0.59454 0.79419 0.82163 0.0
C3331 C 0.59398 0.80052 0.84094 0.0
C3332 C 0.61086 0.79161 0.81469 0.0
C3333 C 0.6588 0.78723 0.83152 0.0
H3334 H 0.66719 0.79484 0.77959 0.0
C3335 C 0.72989 0.78755 0.80611 0.0
C3336 C 0.73149 0.78164 0.78694 0.0
C3337 C 0.71313 0.78942 0.81221 0.0
C3338 C 0.66515 0.79239 0.7941 0.0
H3339 H 0.61074 0.80909 0.86793 0.0
H3340 H 0.63881 0.80483 0.85606 0.0
H3341 H 0.63871 0.79881 0.79076 0.0
H3342 H 0.71604 0.77343 0.75917 0.0
H3343 H 0.68694 0.77611 0.76974 0.0
H3344 H 0.68514 0.78076 0.83489 0.0
C3345 C 0.62666 0.80154 0.84612 0.0
C3346 C 0.64859 0.79471 0.80059 0.0
C3347 C 0.6104 0.80416 0.853 0.0
C3348 C 0.71556 0.77776 0.77408 0.0
C3349 C 0.69873 0.77956 0.78019 0.0
C3350 C 0.67531 0.78491 0.82503 0.0
C3351 C 0.62734 0.79517 0.8268 0.0
C3352 C 0.64504 0.7923 0.81952 0.0
C3353 C 0.69709 0.78544 0.79944 0.0
C3354 C 0.67898 0.78754 0.8062 0.0
H3355 H 0.58231 0.79118 0.81178 0.0
H3356 H 0.61044 0.78651 0.79981 0.0
H3357 H 0.65679 0.78475 0.84602 0.0
H3358 H 0.74168 0.7908 0.81658 0.0
H3359 H 0.71288 0.79432 0.82704 0.0
C3360 C 0.4521 0.5334 0.7063 0.0
C3361 C 0.45043 0.51616 0.71254 0.0
C3362 C 0.45814 0.53636 0.68851 0.0
C3363 C 0.46417 0.51198 0.64192 0.0
H3364 H 0.50103 0.55386 0.63877 0.0
C3365 C 0.51398 0.51785 0.58489 0.0
C3366 C 0.51108 0.53045 0.57215 0.0
C3367 C 0.50566 0.51739 0.60164 0.0
C3368 C 0.4906 0.54223 0.63945 0.0
H3369 H 0.45312 0.48847 0.70497 0.0
H3370 H 0.46313 0.49342 0.67395 0.0
H3371 H 0.48739 0.55053 0.66857 0.0
H3372 H 0.49787 0.55291 0.5672 0.0
H3373 H 0.48386 0.55261 0.59716 0.0
H3374 H 0.468 0.50336 0.61308 0.0
C3375 C 0.45993 0.50472 0.68264 0.0
C3376 C 0.48272 0.54034 0.65644 0.0
C3377 C 0.45424 0.50187 0.70046 0.0
C3378 C 0.50013 0.54295 0.57673 0.0
C3379 C 0.49223 0.54285 0.59383 0.0
C3380 C 0.47217 0.5138 0.62507 0.0
C3381 C 0.46225 0.52205 0.67651 0.0
C3382 C 0.46955 0.52505 0.65797 0.0
C3383 C 0.49475 0.52989 0.60627 0.0
C3384 C 0.48555 0.52882 0.62375 0.0
H3385 H 0.44947 0.5447 0.71548 0.0
H3386 H 0.4597 0.54986 0.68422 0.0
H3387 H 0.45387 0.5002 0.64243 0.0
H3388 H 0.52232 0.50803 0.58164 0.0
H3389 H 0.50775 0.50726 0.61101 0.0
C3390 C 0.77512 0.1703 0.99882 0.0
C3391 C 0.77626 0.15193 0.99713 0.0
C3392 C 0.775 0.17949 0.98277 0.0
C3393 C 0.76363 0.17294 0.93148 0.0
H3394 H 0.79123 0.22176 0.93481 0.0
C3395 C 0.75511 0.21634 0.871 0.0
C3396 C 0.75173 0.23353 0.87707 0.0
C3397 C 0.76229 0.20618 0.88407 0.0
C3398 C 0.78351 0.20812 0.93367 0.0
H3399 H 0.77773 0.12857 0.97745 0.0
H3400 H 0.77737 0.14475 0.94916 0.0
H3401 H 0.79527 0.20361 0.96105 0.0
H3402 H 0.75421 0.25401 0.90131 0.0
H3403 H 0.76604 0.23593 0.92436 0.0
H3404 H 0.75127 0.17765 0.90456 0.0
C3405 C 0.7767 0.15198 0.96296 0.0
C3406 C 0.78581 0.19778 0.94863 0.0
C3407 C 0.7769 0.14276 0.97909 0.0
C3408 C 0.75632 0.24065 0.89632 0.0
C3409 C 0.7634 0.23043 0.90943 0.0
C3410 C 0.7613 0.18329 0.91654 0.0
C3411 C 0.77596 0.17046 0.96475 0.0
C3412 C 0.77549 0.18032 0.94787 0.0
C3413 C 0.76607 0.21295 0.90347 0.0
C3414 C 0.77084 0.20115 0.91777 0.0
H3415 H 0.77451 0.17766 0.01257 0.0
H3416 H 0.77398 0.19365 0.98443 0.0
H3417 H 0.75543 0.15956 0.93065 0.0
H3418 H 0.75167 0.21045 0.85625 0.0
H3419 H 0.76441 0.19282 0.87909 0.0
C3420 C 0.14942 0.55124 0.19072 0.0
C3421 C 0.1548 0.53753 0.20046 0.0
C3422 C 0.14223 0.54748 0.1717 0.0
C3423 C 0.11298 0.5101 0.14439 0.0
H3424 H 0.11234 0.54392 0.10662 0.0
C3425 C 0.06374 0.50478 0.07474 0.0
C3426 C 0.05615 0.52024 0.07344 0.0
C3427 C 0.07644 0.50421 0.09003 0.0
C3428 C 0.1125 0.53437 0.11708 0.0
H3429 H 0.15883 0.50982 0.19805 0.0
H3430 H 0.1457 0.503 0.16454 0.0
H3431 H 0.13825 0.54783 0.13092 0.0
H3432 H 0.0544 0.54654 0.08744 0.0
H3433 H 0.0771 0.54573 0.1141 0.0
H3434 H 0.08693 0.49699 0.13074 0.0
C3435 C 0.14716 0.51664 0.17159 0.0
C3436 C 0.12729 0.53648 0.13077 0.0
C3437 C 0.15464 0.52051 0.19062 0.0
C3438 C 0.06013 0.53448 0.0883 0.0
C3439 C 0.07312 0.53409 0.10336 0.0
C3440 C 0.09826 0.50788 0.13055 0.0
C3441 C 0.1401 0.52987 0.16235 0.0
C3442 C 0.12734 0.52477 0.14496 0.0
C3443 C 0.08178 0.51925 0.10382 0.0
C3444 C 0.09774 0.52041 0.11733 0.0
H3445 H 0.14969 0.56451 0.19817 0.0
H3446 H 0.13679 0.55791 0.16495 0.0
H3447 H 0.11254 0.5011 0.15542 0.0
H3448 H 0.0606 0.49361 0.0634 0.0
H3449 H 0.083 0.49265 0.09036 0.0
C3450 C 0.79359 0.84776 0.47865 0.0
C3451 C 0.79321 0.86634 0.48139 0.0
C3452 C 0.79419 0.83907 0.46039 0.0
C3453 C 0.80532 0.84809 0.41177 0.0
H3454 H 0.77649 0.80027 0.39617 0.0
C3455 C 0.78992 0.81644 0.33299 0.0
C3456 C 0.79069 0.79808 0.3287 0.0
C3457 C 0.79167 0.82429 0.35194 0.0
C3458 C 0.78481 0.81351 0.4004 0.0
H3459 H 0.79328 0.89039 0.46706 0.0
H3460 H 0.79432 0.87529 0.43522 0.0
H3461 H 0.77643 0.81498 0.42845 0.0
H3462 H 0.79418 0.77362 0.34097 0.0
H3463 H 0.79685 0.78731 0.37427 0.0
H3464 H 0.81338 0.84676 0.38358 0.0
C3465 C 0.7943 0.86741 0.4472 0.0
C3466 C 0.78479 0.82197 0.41892 0.0
C3467 C 0.79361 0.87607 0.46546 0.0
C3468 C 0.7935 0.78779 0.34384 0.0
C3469 C 0.79493 0.7956 0.36288 0.0
C3470 C 0.80526 0.83968 0.39325 0.0
C3471 C 0.79452 0.84875 0.44438 0.0
C3472 C 0.79494 0.83946 0.42483 0.0
C3473 C 0.79397 0.81395 0.36714 0.0
C3474 C 0.7949 0.82235 0.38727 0.0
H3475 H 0.79326 0.83985 0.49062 0.0
H3476 H 0.79454 0.82476 0.45886 0.0
H3477 H 0.81358 0.86138 0.41588 0.0
H3478 H 0.78797 0.8248 0.32167 0.0
H3479 H 0.79076 0.83842 0.35469 0.0
C3480 C 0.46367 0.51117 0.81699 0.0
C3481 C 0.44706 0.5168 0.81467 0.0
C3482 C 0.47269 0.51136 0.83529 0.0
C3483 C 0.4766 0.53403 0.88435 0.0
H3484 H 0.49752 0.49372 0.89951 0.0
C3485 C 0.50058 0.52996 0.96308 0.0
C3486 C 0.51581 0.52244 0.96783 0.0
C3487 C 0.49331 0.52928 0.94408 0.0
C3488 C 0.49203 0.50523 0.89545 0.0
H3489 H 0.4268 0.52688 0.82979 0.0
H3490 H 0.44259 0.52744 0.86163 0.0
H3491 H 0.48258 0.49222 0.86703 0.0
H3492 H 0.53557 0.50868 0.95597 0.0
H3493 H 0.52284 0.50748 0.92266 0.0
H3494 H 0.48615 0.54722 0.91249 0.0
C3495 C 0.44867 0.52287 0.84931 0.0
C3496 C 0.48339 0.50433 0.87683 0.0
C3497 C 0.43956 0.52242 0.83106 0.0
C3498 C 0.5237 0.51438 0.95292 0.0
C3499 C 0.51636 0.51367 0.93378 0.0
C3500 C 0.48535 0.53501 0.90285 0.0
C3501 C 0.46542 0.51747 0.85167 0.0
C3502 C 0.47533 0.51861 0.87115 0.0
C3503 C 0.50105 0.52116 0.9291 0.0
C3504 C 0.49294 0.52051 0.90882 0.0
H3505 H 0.4698 0.50675 0.80465 0.0
H3506 H 0.48558 0.50719 0.8366 0.0
H3507 H 0.47088 0.54543 0.88033 0.0
H3508 H 0.49408 0.53634 0.97408 0.0
H3509 H 0.48135 0.53491 0.94121 0.0
C3510 C 0.78566 0.15406 0.10854 0.0
C3511 C 0.76905 0.15109 0.09718 0.0
C3512 C 0.78729 0.16254 0.12718 0.0
C3513 C 0.7688 0.1988 0.14516 0.0
H3514 H 0.79494 0.19726 0.19453 0.0
C3515 C 0.77137 0.25206 0.20883 0.0
C3516 C 0.78689 0.25596 0.22195 0.0
C3517 C 0.7699 0.23873 0.19349 0.0
C3518 C 0.78785 0.19794 0.18067 0.0
H3519 H 0.74068 0.15148 0.09672 0.0
H3520 H 0.74346 0.16597 0.12944 0.0
H3521 H 0.78969 0.17074 0.1705 0.0
H3522 H 0.8137 0.25072 0.22871 0.0
H3523 H 0.81147 0.22794 0.20132 0.0
H3524 H 0.7675 0.22606 0.15472 0.0
C3525 C 0.75521 0.16216 0.12396 0.0
C3526 C 0.78468 0.18273 0.16713 0.0
C3527 C 0.75364 0.15398 0.10532 0.0
C3528 C 0.80152 0.24765 0.21875 0.0
C3529 C 0.80018 0.23454 0.20327 0.0
C3530 C 0.77217 0.21402 0.1585 0.0
C3531 C 0.77226 0.16784 0.13435 0.0
C3532 C 0.77492 0.18305 0.14942 0.0
C3533 C 0.78409 0.22945 0.19098 0.0
C3534 C 0.78158 0.21369 0.17643 0.0
H3535 H 0.79765 0.15181 0.10237 0.0
H3536 H 0.80055 0.16683 0.13505 0.0
H3537 H 0.76173 0.19949 0.13128 0.0
H3538 H 0.75989 0.25826 0.21121 0.0
H3539 H 0.75728 0.235 0.1843 0.0
C3540 C 0.16547 0.53398 0.31879 0.0
C3541 C 0.1596 0.53993 0.30152 0.0
C3542 C 0.15578 0.53557 0.33443 0.0
C3543 C 0.12208 0.55957 0.35292 0.0
H3544 H 0.10653 0.51641 0.37706 0.0
C3545 C 0.0657 0.55784 0.39796 0.0
C3546 C 0.07217 0.55757 0.41716 0.0
C3547 C 0.07493 0.55155 0.38349 0.0
C3548 C 0.11078 0.52845 0.37029 0.0
H3549 H 0.13988 0.55313 0.28725 0.0
H3550 H 0.12319 0.55591 0.31423 0.0
H3551 H 0.12859 0.51616 0.35397 0.0
H3552 H 0.09226 0.54874 0.43619 0.0
H3553 H 0.1081 0.5376 0.41084 0.0
H3554 H 0.1041 0.57176 0.36876 0.0
C3555 C 0.13512 0.55001 0.31586 0.0
C3556 C 0.12351 0.52842 0.35739 0.0
C3557 C 0.14463 0.5483 0.30034 0.0
C3558 C 0.08686 0.54912 0.42154 0.0
C3559 C 0.09595 0.54267 0.40706 0.0
C3560 C 0.10926 0.55951 0.3655 0.0
C3561 C 0.14038 0.54338 0.3329 0.0
C3562 C 0.12902 0.54394 0.34844 0.0
C3563 C 0.09061 0.54481 0.38809 0.0
C3564 C 0.10335 0.54391 0.37404 0.0
H3565 H 0.17702 0.52747 0.31994 0.0
H3566 H 0.16011 0.53049 0.34754 0.0
H3567 H 0.12635 0.57178 0.34642 0.0
H3568 H 0.05412 0.56378 0.39417 0.0
H3569 H 0.07059 0.55312 0.36881 0.0
C3570 C 0.8068 0.85058 0.59134 0.0
C3571 C 0.79576 0.8615 0.58307 0.0
C3572 C 0.80444 0.84487 0.60923 0.0
C3573 C 0.77118 0.83701 0.64382 0.0
H3574 H 0.81321 0.83146 0.67664 0.0
C3575 C 0.77049 0.81239 0.72021 0.0
C3576 C 0.78018 0.79849 0.723 0.0
C3577 C 0.77134 0.82115 0.70361 0.0
C3578 C 0.80133 0.83288 0.66762 0.0
H3579 H 0.77359 0.87518 0.5875 0.0
H3580 H 0.76944 0.86521 0.61913 0.0
H3581 H 0.81694 0.846 0.6477 0.0
H3582 H 0.79829 0.78288 0.71059 0.0
H3583 H 0.80016 0.79847 0.68198 0.0
H3584 H 0.75566 0.82393 0.66414 0.0
C3585 C 0.77993 0.861 0.61152 0.0
C3586 C 0.80344 0.84118 0.65096 0.0
C3587 C 0.7824 0.86687 0.59348 0.0
C3588 C 0.79064 0.7935 0.70884 0.0
C3589 C 0.79178 0.80249 0.6925 0.0
C3590 C 0.76908 0.82886 0.66071 0.0
C3591 C 0.79094 0.84987 0.61961 0.0
C3592 C 0.78842 0.84298 0.63853 0.0
C3593 C 0.78222 0.81647 0.68971 0.0
C3594 C 0.78416 0.82636 0.67256 0.0
H3595 H 0.8173 0.8462 0.58387 0.0
H3596 H 0.813 0.83609 0.61469 0.0
H3597 H 0.75929 0.83801 0.63458 0.0
H3598 H 0.76225 0.81646 0.73084 0.0
H3599 H 0.76385 0.8319 0.70186 0.0
C3600 C 0.73455 0.44149 0.49473 0.0
C3601 C 0.75191 0.44883 0.50376 0.0
C3602 C 0.7206 0.45067 0.49724 0.0
C3603 C 0.70738 0.48138 0.53244 0.0
H3604 H 0.67034 0.48586 0.49239 0.0
C3605 C 0.65039 0.51517 0.55051 0.0
C3606 C 0.63373 0.50359 0.54572 0.0
C3607 C 0.66511 0.51147 0.54191 0.0
C3608 C 0.6807 0.48473 0.50359 0.0
H3609 H 0.76858 0.47151 0.52207 0.0
H3610 H 0.74402 0.48757 0.52662 0.0
H3611 H 0.69656 0.47341 0.484 0.0
H3612 H 0.61845 0.48028 0.52736 0.0
H3613 H 0.64458 0.47342 0.51239 0.0
H3614 H 0.69149 0.49211 0.55208 0.0
C3615 C 0.74128 0.47473 0.51763 0.0
C3616 C 0.69555 0.47764 0.49885 0.0
C3617 C 0.75525 0.46557 0.51508 0.0
C3618 C 0.63148 0.48898 0.53144 0.0
C3619 C 0.64623 0.48529 0.52273 0.0
C3620 C 0.69267 0.48849 0.53713 0.0
C3621 C 0.72387 0.46723 0.50888 0.0
C3622 C 0.70888 0.47586 0.51332 0.0
C3623 C 0.6632 0.4962 0.52844 0.0
C3624 C 0.67924 0.49013 0.52278 0.0
H3625 H 0.73171 0.42864 0.48575 0.0
H3626 H 0.70719 0.44457 0.49059 0.0
H3627 H 0.71727 0.47964 0.54384 0.0
H3628 H 0.65207 0.52674 0.56125 0.0
H3629 H 0.67813 0.52007 0.54633 0.0
C3630 C 0.20798 0.1454 0.51942 0.0
C3631 C 0.21438 0.14638 0.50158 0.0
C3632 C 0.19259 0.13287 0.52148 0.0
C3633 C 0.16159 0.09107 0.49684 0.0
H3634 H 0.12987 0.105 0.53283 0.0
C3635 C 0.08727 0.05576 0.4989 0.0
C3636 C 0.0831 0.05049 0.51666 0.0
C3637 C 0.1041 0.06606 0.49717 0.0
C3638 C 0.1387 0.10089 0.52285 0.0
H3639 H 0.21009 0.13507 0.47193 0.0
H3640 H 0.18289 0.11335 0.47525 0.0
H3641 H 0.15724 0.12601 0.52921 0.0
H3642 H 0.09301 0.05188 0.54658 0.0
H3643 H 0.12232 0.07064 0.54373 0.0
H3644 H 0.14231 0.06623 0.48993 0.0
C3645 C 0.18982 0.12199 0.48782 0.0
C3646 C 0.15448 0.11288 0.52081 0.0
C3647 C 0.20532 0.13451 0.48582 0.0
C3648 C 0.09606 0.05558 0.53268 0.0
C3649 C 0.11271 0.06637 0.53108 0.0
C3650 C 0.14559 0.07923 0.49864 0.0
C3651 C 0.18313 0.12107 0.50568 0.0
C3652 C 0.16624 0.10815 0.50782 0.0
C3653 C 0.11685 0.07175 0.51331 0.0
C3654 C 0.13405 0.08401 0.51171 0.0
H3655 H 0.21486 0.15443 0.53179 0.0
H3656 H 0.18821 0.13241 0.53554 0.0
H3657 H 0.17035 0.08672 0.48694 0.0
H3658 H 0.07742 0.05202 0.48638 0.0
H3659 H 0.10693 0.07012 0.48335 0.0
C3660 C 0.18077 0.99984 0.77653 0.0
C3661 C 0.16327 0.99744 0.78176 0.0
C3662 C 0.18975 0.98533 0.77492 0.0
C3663 C 0.19049 0.93968 0.78939 0.0
H3664 H 0.21972 0.93677 0.74777 0.0
C3665 C 0.22433 0.87863 0.76538 0.0
C3666 C 0.24125 0.88327 0.759 0.0
C3667 C 0.21501 0.8922 0.77131 0.0
C3668 C 0.21181 0.9375 0.75963 0.0
H3669 H 0.14147 0.9779 0.7895 0.0
H3670 H 0.15714 0.95236 0.7864 0.0
H3671 H 0.20231 0.96057 0.75066 0.0
H3672 H 0.26233 0.90543 0.75516 0.0
H3673 H 0.24637 0.92906 0.76586 0.0
H3674 H 0.19994 0.91621 0.79804 0.0
C3675 C 0.16395 0.96556 0.78373 0.0
C3676 C 0.2018 0.95116 0.76128 0.0
C3677 C 0.15491 0.98015 0.78532 0.0
C3678 C 0.24934 0.90157 0.76014 0.0
C3679 C 0.2401 0.91506 0.76604 0.0
C3680 C 0.2005 0.92584 0.78765 0.0
C3681 C 0.18148 0.96799 0.77844 0.0
C3682 C 0.19122 0.95264 0.77632 0.0
C3683 C 0.2225 0.91053 0.7708 0.0
C3684 C 0.21149 0.92481 0.7729 0.0
H3685 H 0.18765 0.013 0.77381 0.0
H3686 H 0.20334 0.98781 0.77115 0.0
H3687 H 0.18255 0.94048 0.8012 0.0
H3688 H 0.21775 0.86458 0.76436 0.0
H3689 H 0.20147 0.88831 0.77491 0.0
C3690 C 0.36277 0.936 0.00249 0.0
C3691 C 0.34711 0.94185 0.9958 0.0
C3692 C 0.37844 0.94853 0.0085 0.0
C3693 C 0.4023 0.99228 0.00192 0.0
H3694 H 0.4298 0.98789 0.04983 0.0
C3695 C 0.4736 0.03104 0.02065 0.0
C3696 C 0.48531 0.01881 0.02264 0.0
C3697 C 0.45548 0.02562 0.02241 0.0
C3698 C 0.4221 0.98943 0.03659 0.0
H3699 H 0.33545 0.96503 0.98935 0.0
H3700 H 0.36329 0.98706 -0.00058 0.0
H3701 H 0.39957 0.96982 0.04144 0.0
H3702 H 0.48769 0.99181 0.02902 0.0
H3703 H 0.45615 0.98246 0.03244 0.0
H3704 H 0.4252 0.01097 0.99644 0.0
C3705 C 0.36323 0.97283 0.0003 0.0
C3706 C 0.40496 0.9791 0.03177 0.0
C3707 C 0.34744 0.9603 0.99455 0.0
C3708 C 0.47899 1.00158 0.02775 0.0
C3709 C 0.46095 0.99625 0.02973 0.0
C3710 C 0.41946 1.00258 0.00671 0.0
C3711 C 0.37868 0.96701 0.00766 0.0
C3712 C 0.39528 0.98003 0.01412 0.0
C3713 C 0.44898 0.00801 0.02636 0.0
C3714 C 0.42967 1.00073 0.02377 0.0
H3715 H 0.36275 0.92183 0.00374 0.0
H3716 H 0.39038 0.94379 0.01383 0.0
H3717 H 0.39503 0.99302 0.98816 0.0
H3718 H 0.47823 0.04447 0.0168 0.0
H3719 H 0.4464 0.03485 0.01976 0.0
C3720 C 0.87692 0.57895 0.79951 0.0
C3721 C 0.86797 0.56117 0.79339 0.0
C3722 C 0.86784 0.59323 0.79792 0.0
C3723 C 0.82959 0.60408 0.76948 0.0
H3724 H 0.83878 0.64761 0.80557 0.0
C3725 C 0.7969 0.6632 0.75426 0.0
C3726 C 0.80988 0.67839 0.75229 0.0
C3727 C 0.80174 0.64937 0.76392 0.0
C3728 C 0.83602 0.63541 0.79555 0.0
H3729 H 0.84248 0.54412 0.78151 0.0
H3730 H 0.82657 0.56898 0.77907 0.0
H3731 H 0.85163 0.62141 0.81356 0.0
H3732 H 0.83758 0.69192 0.75993 0.0
H3733 H 0.84618 0.6674 0.7768 0.0
H3734 H 0.81427 0.61806 0.75138 0.0
C3735 C 0.84065 0.57198 0.78471 0.0
C3736 C 0.84341 0.62055 0.80001 0.0
C3737 C 0.84976 0.55776 0.78609 0.0
C3738 C 0.8275 0.68011 0.76106 0.0
C3739 C 0.83231 0.66631 0.7709 0.0
C3740 C 0.82205 0.61876 0.76519 0.0
C3741 C 0.84968 0.58984 0.79033 0.0
C3742 C 0.84052 0.60491 0.78681 0.0
C3743 C 0.81956 0.65065 0.77183 0.0
C3744 C 0.82548 0.6346 0.77802 0.0
H3745 H 0.89096 0.58186 0.80531 0.0
H3746 H 0.87518 0.60692 0.8021 0.0
H3747 H 0.82748 0.59238 0.75885 0.0
H3748 H 0.7832 0.6617 0.74763 0.0
H3749 H 0.79177 0.63731 0.76449 0.0
C3750 C 0.81256 0.63001 0.02257 0.0
C3751 C 0.81458 0.64722 0.01626 0.0
C3752 C 0.82699 0.62096 0.024 0.0
C3753 C 0.87132 0.61915 0.00719 0.0
H3754 H 0.87655 0.59172 0.05022 0.0
C3755 C 0.9334 0.58663 0.02985 0.0
C3756 C 0.92952 0.57006 0.03741 0.0
C3757 C 0.91947 0.59556 0.02413 0.0
C3758 C 0.87516 0.59911 0.03796 0.0
H3759 H 0.8334 0.66842 0.00642 0.0
H3760 H 0.85879 0.65268 0.00922 0.0
H3761 H 0.85269 0.60902 0.04764 0.0
H3762 H 0.90825 0.54916 0.04359 0.0
H3763 H 0.88399 0.56442 0.03325 0.0
H3764 H 0.89419 0.60932 0.9978 0.0
C3765 C 0.84595 0.64613 0.0129 0.0
C3766 C 0.86146 0.60906 0.03648 0.0
C3767 C 0.83145 0.65523 0.01149 0.0
C3768 C 0.91153 0.56187 0.03767 0.0
C3769 C 0.89769 0.57072 0.03199 0.0
C3770 C 0.88519 0.60921 0.00874 0.0
C3771 C 0.84389 0.62887 0.01919 0.0
C3772 C 0.85918 0.61904 0.02098 0.0
C3773 C 0.90153 0.58805 0.02603 0.0
C3774 C 0.88708 0.59887 0.02402 0.0
H3775 H 0.79973 0.62337 0.0262 0.0
H3776 H 0.82478 0.60757 0.02859 0.0
H3777 H 0.86989 0.62659 0.99498 0.0
H3778 H 0.94721 0.59332 0.0298 0.0
H3779 H 0.92286 0.6089 0.01959 0.0
C3780 C 0.17478 0.10361 0.8077 0.0
C3781 C 0.16142 0.09669 0.79244 0.0
C3782 C 0.18747 0.11927 0.80652 0.0
C3783 C 0.19612 0.15837 0.77734 0.0
H3784 H 0.2437 0.16625 0.80543 0.0
C3785 C 0.2593 0.21322 0.76835 0.0
C3786 C 0.2607 0.22781 0.78265 0.0
C3787 C 0.24808 0.19663 0.7696 0.0
C3788 C 0.23046 0.16413 0.79749 0.0
H3789 H 0.1511 0.10004 0.76374 0.0
H3790 H 0.17365 0.12663 0.7611 0.0
H3791 H 0.22246 0.13823 0.80701 0.0
H3792 H 0.25205 0.23636 0.80974 0.0
H3793 H 0.23301 0.20704 0.81228 0.0
H3794 H 0.2046 0.18415 0.76743 0.0
C3795 C 0.17406 0.12071 0.77442 0.0
C3796 C 0.21815 0.14816 0.79851 0.0
C3797 C 0.16117 0.10534 0.77581 0.0
C3798 C 0.25122 0.22531 0.79855 0.0
C3799 C 0.24036 0.20861 0.80001 0.0
C3800 C 0.20854 0.17414 0.77608 0.0
C3801 C 0.18732 0.12812 0.78984 0.0
C3802 C 0.20071 0.14504 0.78854 0.0
C3803 C 0.23848 0.19425 0.78541 0.0
C3804 C 0.22574 0.17718 0.78622 0.0
H3805 H 0.17521 0.09709 0.82067 0.0
H3806 H 0.19717 0.12456 0.81887 0.0
H3807 H 0.18281 0.15687 0.76977 0.0
H3808 H 0.26622 0.21489 0.75579 0.0
H3809 H 0.24667 0.18574 0.75811 0.0
C3810 C 0.37893 0.94999 0.28933 0.0
C3811 C 0.37349 0.96605 0.29569 0.0
C3812 C 0.36622 0.93416 0.2843 0.0
C3813 C 0.3226 0.91137 0.29303 0.0
H3814 H 0.32464 0.88195 0.24553 0.0
C3815 C 0.28079 0.84028 0.27598 0.0
C3816 C 0.29219 0.82778 0.27362 0.0
C3817 C 0.28699 0.85846 0.27429 0.0
C3818 C 0.32378 0.89018 0.25868 0.0
H3819 H 0.35086 0.97824 0.30263 0.0
H3820 H 0.32865 0.95031 0.29419 0.0
H3821 H 0.3439 0.91185 0.25277 0.0
H3822 H 0.31866 0.8242 0.2671 0.0
H3823 H 0.32923 0.85567 0.2636 0.0
H3824 H 0.30329 0.88932 0.29949 0.0
C3825 C 0.34265 0.9501 0.29282 0.0
C3826 C 0.33482 0.90713 0.26286 0.0
C3827 C 0.35531 0.96598 0.2976 0.0
C3828 C 0.30943 0.83345 0.26849 0.0
C3829 C 0.31549 0.85149 0.26651 0.0
C3830 C 0.3116 0.89439 0.28888 0.0
C3831 C 0.34801 0.9342 0.28583 0.0
C3832 C 0.3347 0.91753 0.28033 0.0
C3833 C 0.30453 0.86419 0.26998 0.0
C3834 C 0.31259 0.88346 0.27198 0.0
H3835 H 0.39288 0.94978 0.28769 0.0
H3836 H 0.37062 0.92189 0.27922 0.0
H3837 H 0.32242 0.91921 0.30662 0.0
H3838 H 0.26741 0.83618 0.27995 0.0
H3839 H 0.27838 0.86812 0.27708 0.0
C3840 C 0.55283 0.34038 0.57586 0.0
C3841 C 0.55844 0.33957 0.59534 0.0
C3842 C 0.55078 0.357 0.56883 0.0
C3843 C 0.56436 0.40806 0.5805 0.0
H3844 H 0.52464 0.40974 0.54265 0.0
C3845 C 0.55057 0.47808 0.55836 0.0
C3846 C 0.54134 0.47925 0.54035 0.0
C3847 C 0.55268 0.46123 0.56461 0.0
C3848 C 0.53606 0.40975 0.553 0.0
H3849 H 0.56642 0.35631 0.62244 0.0
H3850 H 0.56342 0.38495 0.6103 0.0
H3851 H 0.52851 0.38095 0.55366 0.0
H3852 H 0.52739 0.46266 0.5148 0.0
H3853 H 0.53093 0.43367 0.52542 0.0
H3854 H 0.57228 0.43663 0.57964 0.0
C3855 C 0.56048 0.37276 0.6003 0.0
C3856 C 0.53826 0.39296 0.55944 0.0
C3857 C 0.56218 0.35615 0.60737 0.0
C3858 C 0.53435 0.46267 0.52886 0.0
C3859 C 0.53641 0.44577 0.5351 0.0
C3860 C 0.56232 0.42479 0.5739 0.0
C3861 C 0.55458 0.37363 0.58089 0.0
C3862 C 0.5524 0.39169 0.57346 0.0
C3863 C 0.54568 0.44454 0.55318 0.0
C3864 C 0.54803 0.4262 0.56005 0.0
H3865 H 0.54962 0.32807 0.56602 0.0
H3866 H 0.54633 0.35679 0.5538 0.0
H3867 H 0.57565 0.40796 0.59101 0.0
H3868 H 0.55604 0.49028 0.56792 0.0
H3869 H 0.55962 0.46146 0.57872 0.0
C3870 C 0.44445 0.7824 0.41333 0.0
C3871 C 0.45627 0.77041 0.40989 0.0
C3872 C 0.42942 0.78256 0.4002 0.0
C3873 C 0.39751 0.7547 0.36088 0.0
H3874 H 0.38587 0.80084 0.35029 0.0
C3875 C 0.33685 0.76026 0.30518 0.0
C3876 C 0.32733 0.77423 0.30906 0.0
C3877 C 0.35269 0.75929 0.31682 0.0
C3878 C 0.38865 0.78777 0.35323 0.0
H3879 H 0.4612 0.74903 0.38964 0.0
H3880 H 0.43458 0.74895 0.36687 0.0
H3881 H 0.41294 0.8 0.37126 0.0
H3882 H 0.32732 0.79843 0.32794 0.0
H3883 H 0.3545 0.79666 0.34844 0.0
H3884 H 0.37301 0.74246 0.34313 0.0
C3885 C 0.43713 0.75838 0.37978 0.0
C3886 C 0.40434 0.7873 0.36527 0.0
C3887 C 0.45248 0.75849 0.3928 0.0
C3888 C 0.3341 0.78727 0.3248 0.0
C3889 C 0.34994 0.78638 0.33639 0.0
C3890 C 0.38168 0.75516 0.34891 0.0
C3891 C 0.42539 0.77051 0.38324 0.0
C3892 C 0.409 0.77078 0.36947 0.0
C3893 C 0.35963 0.77241 0.33261 0.0
C3894 C 0.37685 0.77173 0.34499 0.0
H3895 H 0.4469 0.79186 0.42621 0.0
H3896 H 0.42073 0.792 0.40356 0.0
H3897 H 0.40047 0.7417 0.36385 0.0
H3898 H 0.332 0.75001 0.29313 0.0
H3899 H 0.35968 0.74841 0.31316 0.0
C3900 C 0.04486 0.72683 0.09514 0.0
C3901 C 0.0552 0.73907 0.0848 0.0
C3902 C 0.04232 0.70781 0.09009 0.0
C3903 C 0.04761 0.67248 0.04971 0.0
H3904 H 0.04352 0.63976 0.0885 0.0
C3905 C 0.04976 0.59541 0.03152 0.0
C3906 C 0.04019 0.58246 0.04168 0.0
C3907 C 0.05129 0.6142 0.03684 0.0
C3908 C 0.04442 0.64854 0.0773 0.0
H3909 H 0.07096 0.74008 0.06084 0.0
H3910 H 0.06689 0.70776 0.05249 0.0
H3911 H 0.04607 0.67211 0.09747 0.0
H3912 H 0.02435 0.57984 0.06545 0.0
H3913 H 0.02661 0.61213 0.07434 0.0
H3914 H 0.04596 0.64899 0.02953 0.0
C3915 C 0.0603 0.7126 0.06427 0.0
C3916 C 0.04589 0.66735 0.08253 0.0
C3917 C 0.06278 0.73144 0.06925 0.0
C3918 C 0.03204 0.58915 0.05726 0.0
C3919 C 0.03346 0.6079 0.0625 0.0
C3920 C 0.04615 0.65371 0.04448 0.0
C3921 C 0.05002 0.70025 0.0745 0.0
C3922 C 0.04766 0.67982 0.06888 0.0
C3923 C 0.04315 0.62093 0.05246 0.0
C3924 C 0.04461 0.64125 0.05815 0.0
H3925 H 0.03874 0.73192 0.10719 0.0
H3926 H 0.03414 0.69904 0.09837 0.0
H3927 H 0.04849 0.68123 0.03848 0.0
H3928 H 0.05606 0.59108 0.0193 0.0
H3929 H 0.05909 0.62345 0.02869 0.0
C3930 C 0.0729 0.27612 0.91829 0.0
C3931 C 0.0559 0.26793 0.90874 0.0
C3932 C 0.08842 0.27682 0.90895 0.0
C3933 C 0.10639 0.25647 0.8662 0.0
H3934 H 0.14238 0.3005 0.87558 0.0
C3935 C 0.16379 0.27338 0.81804 0.0
C3936 C 0.18018 0.28423 0.82634 0.0
C3937 C 0.14946 0.26921 0.82897 0.0
C3938 C 0.13268 0.28793 0.87297 0.0
H3939 H 0.04206 0.25383 0.8818 0.0
H3940 H 0.069 0.25505 0.86555 0.0
H3941 H 0.11602 0.29779 0.89262 0.0
H3942 H 0.19454 0.29878 0.85272 0.0
H3943 H 0.16997 0.29098 0.87199 0.0
H3944 H 0.12302 0.24671 0.84636 0.0
C3945 C 0.07043 0.26082 0.88035 0.0
C3946 C 0.11744 0.28639 0.88279 0.0
C3947 C 0.05491 0.26019 0.88967 0.0
C3948 C 0.18223 0.29001 0.84604 0.0
C3949 C 0.16796 0.28583 0.85698 0.0
C3950 C 0.12167 0.258 0.85637 0.0
C3951 C 0.08745 0.26929 0.88977 0.0
C3952 C 0.10398 0.27067 0.87954 0.0
C3953 C 0.15111 0.27592 0.84849 0.0
C3954 C 0.13508 0.27379 0.85955 0.0
H3955 H 0.07422 0.28226 0.93295 0.0
H3956 H 0.10123 0.28324 0.91684 0.0
H3957 H 0.09651 0.24403 0.86344 0.0
H3958 H 0.16162 0.26923 0.80278 0.0
H3959 H 0.13674 0.26169 0.82178 0.0
C3960 C 0.54304 0.7442 0.88166 0.0
C3961 C 0.54602 0.76058 0.89381 0.0
C3962 C 0.54277 0.72762 0.88939 0.0
C3963 C 0.53406 0.70855 0.93473 0.0
H3964 H 0.55383 0.66782 0.91473 0.0
C3965 C 0.53311 0.64712 0.97657 0.0
C3966 C 0.52716 0.63007 0.966 0.0
C3967 C 0.53813 0.66252 0.9673 0.0
C3968 C 0.54815 0.67905 0.92045 0.0
H3969 H 0.5525 0.7724 0.92339 0.0
H3970 H 0.55231 0.74404 0.93655 0.0
H3971 H 0.55691 0.69533 0.89856 0.0
H3972 H 0.52239 0.61561 0.93755 0.0
H3973 H 0.53143 0.64236 0.92133 0.0
H3974 H 0.5251 0.69249 0.9564 0.0
C3975 C 0.54963 0.74372 0.9212 0.0
C3976 C 0.54988 0.6948 0.91112 0.0
C3977 C 0.54986 0.76006 0.91358 0.0
C3978 C 0.52736 0.62855 0.94607 0.0
C3979 C 0.53244 0.64393 0.93678 0.0
C3980 C 0.53236 0.69292 0.94399 0.0
C3981 C 0.54547 0.72719 0.90936 0.0
C3982 C 0.54304 0.70986 0.9183 0.0
C3983 C 0.5372 0.66125 0.94719 0.0
C3984 C 0.53952 0.67798 0.93717 0.0
H3985 H 0.53998 0.74411 0.86639 0.0
H3986 H 0.53959 0.71513 0.87982 0.0
H3987 H 0.52817 0.71964 0.94043 0.0
H3988 H 0.53269 0.64875 0.99188 0.0
H3989 H 0.542 0.67555 0.97586 0.0
C3990 C 0.08128 0.74833 0.70792 0.0
C3991 C 0.07585 0.76437 0.70321 0.0
C3992 C 0.09914 0.74842 0.71576 0.0
C3993 C 0.14219 0.77938 0.73878 0.0
H3994 H 0.16514 0.74043 0.72031 0.0
C3995 C 0.21999 0.78579 0.75233 0.0
C3996 C 0.22774 0.77036 0.75441 0.0
C3997 C 0.20142 0.78438 0.74713 0.0
C3998 C 0.15902 0.75136 0.72593 0.0
H3999 H 0.08525 0.79307 0.7032 0.0
H4000 H 0.11586 0.79344 0.71736 0.0
H4001 H 0.13329 0.7392 0.71043 0.0
H4002 H 0.22131 0.7412 0.75187 0.0
H4003 H 0.18898 0.73861 0.74345 0.0
H4004 H 0.16775 0.79154 0.75434 0.0
C4005 C 0.10642 0.78069 0.71523 0.0
C4006 C 0.14056 0.75064 0.72019 0.0
C4007 C 0.08871 0.78054 0.70716 0.0
C4008 C 0.21603 0.75341 0.75092 0.0
C4009 C 0.19735 0.75196 0.74574 0.0
C4010 C 0.16058 0.78005 0.74459 0.0
C4011 C 0.11219 0.76459 0.71928 0.0
C4012 C 0.13178 0.76474 0.72633 0.0
C4013 C 0.1896 0.76745 0.74377 0.0
C4014 C 0.16951 0.76618 0.73813 0.0
H4015 H 0.072 0.73552 0.7045 0.0
H4016 H 0.1028 0.7357 0.71873 0.0
H4017 H 0.1361 0.7904 0.74423 0.0
H4018 H 0.2283 0.79918 0.75476 0.0
H4019 H 0.19644 0.79672 0.74547 0.0
C4020 C 0.04948 0.36979 0.37962 0.0
C4021 C 0.0471 0.35306 0.38712 0.0
C4022 C 0.04842 0.38588 0.39104 0.0
C4023 C 0.04983 0.40486 0.44275 0.0
H4024 H 0.03135 0.44382 0.421 0.0
C4025 C 0.05077 0.47299 0.48948 0.0
C4026 C 0.03735 0.48299 0.48517 0.0
C4027 C 0.05236 0.45769 0.47724 0.0
C4028 C 0.03639 0.43306 0.4275 0.0
H4029 H 0.0414 0.34036 0.4126 0.0
H4030 H 0.03919 0.36785 0.43204 0.0
H4031 H 0.03281 0.41651 0.40049 0.0
H4032 H 0.01467 0.48434 0.46487 0.0
H4033 H 0.01699 0.45756 0.4438 0.0
H4034 H 0.05275 0.42095 0.46983 0.0
C4035 C 0.0423 0.36887 0.41755 0.0
C4036 C 0.03749 0.41736 0.41555 0.0
C4037 C 0.0434 0.35291 0.40622 0.0
C4038 C 0.02542 0.47718 0.46839 0.0
C4039 C 0.02683 0.46174 0.45625 0.0
C4040 C 0.0486 0.42046 0.4547 0.0
C4041 C 0.04496 0.38574 0.41031 0.0
C4042 C 0.04417 0.40289 0.42294 0.0
C4043 C 0.04036 0.45165 0.46037 0.0
C4044 C 0.04183 0.43492 0.44737 0.0
H4045 H 0.0524 0.37049 0.36502 0.0
H4046 H 0.0507 0.39849 0.38482 0.0
H4047 H 0.05538 0.39434 0.44917 0.0
H4048 H 0.06029 0.47721 0.50221 0.0
H4049 H 0.06323 0.45076 0.48097 0.0
C4050 C 0.46986 0.26052 0.22287 0.0
C4051 C 0.47081 0.25208 0.20439 0.0
C4052 C 0.45312 0.26221 0.22945 0.0
C4053 C 0.40361 0.24243 0.2223 0.0
H4054 H 0.39789 0.28849 0.24702 0.0
C4055 C 0.33299 0.25089 0.24714 0.0
C4056 C 0.33071 0.26699 0.25763 0.0
C4057 C 0.34974 0.24887 0.24077 0.0
C4058 C 0.39882 0.27527 0.24048 0.0
H4059 H 0.45428 0.23864 0.17864 0.0
H4060 H 0.42534 0.2406 0.19041 0.0
H4061 H 0.4265 0.28504 0.23668 0.0
H4062 H 0.34537 0.29331 0.26987 0.0
H4063 H 0.37392 0.28997 0.26 0.0
H4064 H 0.37641 0.23225 0.22637 0.0
C4065 C 0.43757 0.24623 0.19978 0.0
C4066 C 0.41567 0.27337 0.23439 0.0
C4067 C 0.45429 0.24508 0.19298 0.0
C4068 C 0.34612 0.28079 0.26174 0.0
C4069 C 0.36292 0.27872 0.25576 0.0
C4070 C 0.38685 0.24418 0.22874 0.0
C4071 C 0.43656 0.25505 0.21808 0.0
C4072 C 0.41846 0.25694 0.22506 0.0
C4073 C 0.36536 0.26275 0.24487 0.0
C4074 C 0.38379 0.26071 0.238 0.0
H4075 H 0.48213 0.2664 0.23206 0.0
H4076 H 0.45317 0.26909 0.2436 0.0
H4077 H 0.40501 0.22945 0.21536 0.0
H4078 H 0.32166 0.23983 0.24349 0.0
H4079 H 0.35008 0.23624 0.23245 0.0
C4080 C 0.60702 0.54461 0.33884 0.0
C4081 C 0.62383 0.5397 0.33744 0.0
C4082 C 0.5989 0.54334 0.35575 0.0
C4083 C 0.59857 0.51958 0.39918 0.0
H4084 H 0.5752 0.55763 0.41921 0.0
C4085 C 0.5716 0.5205 0.47355 0.0
C4086 C 0.55546 0.52677 0.47518 0.0
C4087 C 0.57997 0.52175 0.45676 0.0
C4088 C 0.58145 0.54673 0.41373 0.0
H4089 H 0.6453 0.52965 0.35283 0.0
H4090 H 0.63111 0.5273 0.3822 0.0
H4091 H 0.58948 0.5606 0.39004 0.0
H4092 H 0.53561 0.53945 0.46035 0.0
H4093 H 0.54987 0.54126 0.43123 0.0
H4094 H 0.59037 0.5056 0.42275 0.0
C4095 C 0.62417 0.53213 0.37023 0.0
C4096 C 0.58968 0.54847 0.39696 0.0
C4097 C 0.63239 0.53364 0.35343 0.0
C4098 C 0.54792 0.53426 0.45959 0.0
C4099 C 0.55625 0.53553 0.4429 0.0
C4100 C 0.59024 0.51778 0.41591 0.0
C4101 C 0.60727 0.53687 0.37161 0.0
C4102 C 0.59839 0.53495 0.38946 0.0
C4103 C 0.57247 0.52943 0.44123 0.0
C4104 C 0.58154 0.53133 0.42345 0.0
H4105 H 0.60004 0.54928 0.32678 0.0
H4106 H 0.58584 0.54701 0.35624 0.0
H4107 H 0.60492 0.50876 0.39368 0.0
H4108 H 0.57782 0.51475 0.4853 0.0
H4109 H 0.59253 0.51705 0.45612 0.0
C4110 C 0.28195 0.9 0.05308 0.0
C4111 C 0.29732 0.89839 0.04413 0.0
C4112 C 0.2799 0.89331 0.0706 0.0
C4113 C 0.29308 0.85621 0.09222 0.0
H4114 H 0.27671 0.87441 0.13914 0.0
C4115 C 0.29058 0.81246 0.15076 0.0
C4116 C 0.30113 0.82137 0.16741 0.0
C4117 C 0.2834 0.82241 0.1375 0.0
C4118 C 0.2811 0.86916 0.126 0.0
H4119 H 0.32355 0.89103 0.04713 0.0
H4120 H 0.32022 0.87981 0.07793 0.0
H4121 H 0.28013 0.8936 0.11307 0.0
H4122 H 0.31099 0.84723 0.18449 0.0
H4123 H 0.29939 0.86481 0.16075 0.0
H4124 H 0.29508 0.83233 0.10494 0.0
C4125 C 0.30952 0.88561 0.07122 0.0
C4126 C 0.28305 0.88009 0.1112 0.0
C4127 C 0.31141 0.89193 0.05366 0.0
C4128 C 0.30308 0.84018 0.17152 0.0
C4129 C 0.29622 0.85019 0.15805 0.0
C4130 C 0.29115 0.84539 0.10683 0.0
C4131 C 0.29334 0.88525 0.07922 0.0
C4132 C 0.28963 0.87381 0.0945 0.0
C4133 C 0.28719 0.84143 0.14047 0.0
C4134 C 0.28555 0.85185 0.12405 0.0
H4135 H 0.27102 0.90514 0.04591 0.0
H4136 H 0.26736 0.89319 0.07663 0.0
H4137 H 0.29779 0.85094 0.07926 0.0
H4138 H 0.28853 0.79787 0.14768 0.0
H4139 H 0.27607 0.81531 0.12424 0.0
C4140 C 0.91669 0.50241 0.85053 0.0
C4141 C 0.90508 0.51471 0.84898 0.0
C4142 C 0.92665 0.50196 0.86785 0.0
C4143 C 0.93665 0.52135 0.91829 0.0
H4144 H 0.98578 0.52593 0.90612 0.0
C4145 C 0.99642 0.54608 0.97522 0.0
C4146 C 1.00818 0.53383 0.97628 0.0
C4147 C 0.98404 0.54472 0.95916 0.0
C4148 C 0.97212 0.52464 0.90967 0.0
H4149 H 0.89314 0.53485 0.8642 0.0
H4150 H 0.91143 0.53485 0.89456 0.0
H4151 H 0.96109 0.51816 0.88054 0.0
H4152 H 0.01726 0.51143 0.96108 0.0
H4153 H 0.99569 0.50918 0.93296 0.0
H4154 H 0.9479 0.52806 0.94752 0.0
C4155 C 0.91248 0.52521 0.88257 0.0
C4156 C 0.958 0.51999 0.89513 0.0
C4157 C 0.9021 0.52528 0.86526 0.0
C4158 C 1.0084 0.52114 0.96054 0.0
C4159 C 0.99606 0.51981 0.94449 0.0
C4160 C 0.95083 0.52606 0.93288 0.0
C4161 C 0.92558 0.51431 0.88357 0.0
C4162 C 0.94016 0.51816 0.89934 0.0
C4163 C 0.98341 0.53116 0.94403 0.0
C4164 C 0.96861 0.52765 0.9286 0.0
H4165 H 0.91901 0.49401 0.83813 0.0
H4166 H 0.93634 0.49309 0.8685 0.0
H4167 H 0.92299 0.52007 0.92181 0.0
H4168 H 0.99619 0.55611 0.98716 0.0
H4169 H 0.97452 0.55378 0.95884 0.0
C4170 C 0.28094 0.19315 0.57325 0.0
C4171 C 0.26944 0.19997 0.5602 0.0
C4172 C 0.28331 0.19972 0.59283 0.0
C4173 C 0.27753 0.23918 0.6259 0.0
H4174 H 0.27766 0.20656 0.66481 0.0
C4175 C 0.27169 0.26371 0.70479 0.0
C4176 C 0.2803 0.25589 0.71941 0.0
C4177 C 0.27087 0.25671 0.68555 0.0
C4178 C 0.27794 0.216 0.65423 0.0
H4179 H 0.25107 0.21877 0.55788 0.0
H4180 H 0.25504 0.22986 0.59152 0.0
H4181 H 0.27625 0.19475 0.63133 0.0
H4182 H 0.29442 0.23415 0.72494 0.0
H4183 H 0.29441 0.22299 0.69173 0.0
H4184 H 0.27946 0.26046 0.6486 0.0
C4185 C 0.2626 0.21979 0.58671 0.0
C4186 C 0.2771 0.20914 0.63494 0.0
C4187 C 0.26026 0.21331 0.56731 0.0
C4188 C 0.28806 0.24087 0.71418 0.0
C4189 C 0.2877 0.23417 0.69498 0.0
C4190 C 0.27854 0.24605 0.64516 0.0
C4191 C 0.27424 0.21325 0.59977 0.0
C4192 C 0.2766 0.2206 0.62047 0.0
C4193 C 0.27904 0.24191 0.68028 0.0
C4194 C 0.27852 0.23456 0.65967 0.0
H4195 H 0.28825 0.1829 0.56834 0.0
H4196 H 0.29246 0.19441 0.60246 0.0
H4197 H 0.27753 0.2485 0.61521 0.0
H4198 H 0.26565 0.27535 0.70812 0.0
H4199 H 0.26372 0.2629 0.67483 0.0
C4200 C 0.61706 0.554 0.2236 0.0
C4201 C 0.61446 0.53909 0.23403 0.0
C4202 C 0.61047 0.55227 0.20422 0.0
C4203 C 0.57561 0.52341 0.16817 0.0
H4204 H 0.60029 0.55213 0.13279 0.0
C4205 C 0.5529 0.51614 0.08629 0.0
C4206 C 0.55257 0.53227 0.07803 0.0
C4207 C 0.56008 0.51654 0.10535 0.0
C4208 C 0.59316 0.54415 0.14255 0.0
H4209 H 0.60308 0.51061 0.23249 0.0
H4210 H 0.59156 0.50741 0.19846 0.0
H4211 H 0.61458 0.5527 0.16528 0.0
H4212 H 0.55997 0.56136 0.08312 0.0
H4213 H 0.57267 0.56221 0.11642 0.0
H4214 H 0.55434 0.51463 0.14515 0.0
C4215 C 0.59868 0.52052 0.20522 0.0
C4216 C 0.60134 0.54447 0.16122 0.0
C4217 C 0.60546 0.52225 0.22464 0.0
C4218 C 0.55958 0.54881 0.08923 0.0
C4219 C 0.56709 0.54924 0.10822 0.0
C4220 C 0.56752 0.52293 0.1494 0.0
C4221 C 0.60087 0.53559 0.19477 0.0
C4222 C 0.59262 0.53427 0.17442 0.0
C4223 C 0.56751 0.53309 0.11648 0.0
C4224 C 0.57613 0.53344 0.13642 0.0
H4225 H 0.62383 0.56716 0.23061 0.0
H4226 H 0.61229 0.56425 0.19687 0.0
H4227 H 0.56829 0.5156 0.17791 0.0
H4228 H 0.54772 0.50317 0.0779 0.0
H4229 H 0.56032 0.50387 0.11121 0.0
C4230 C 0.28112 0.90919 0.92852 0.0
C4231 C 0.29256 0.90674 0.94436 0.0
C4232 C 0.28152 0.89945 0.91092 0.0
C4233 C 0.30631 0.87164 0.88307 0.0
H4234 H 0.26024 0.83913 0.86968 0.0
C4235 C 0.29755 0.80659 0.83208 0.0
C4236 C 0.28333 0.80451 0.81744 0.0
C4237 C 0.29889 0.81972 0.84754 0.0
C4238 C 0.27309 0.84826 0.87315 0.0
H4239 H 0.31441 0.89393 0.95436 0.0
H4240 H 0.31547 0.8773 0.92347 0.0
H4241 H 0.26339 0.86424 0.89484 0.0
H4242 H 0.25884 0.81341 0.8076 0.0
H4243 H 0.2612 0.83644 0.83464 0.0
H4244 H 0.31607 0.85552 0.86147 0.0
C4245 C 0.30613 0.88649 0.92462 0.0
C4246 C 0.27484 0.86264 0.88733 0.0
C4247 C 0.30542 0.89584 0.94225 0.0
C4248 C 0.26999 0.81497 0.81875 0.0
C4249 C 0.27129 0.82801 0.83421 0.0
C4250 C 0.30453 0.85732 0.86875 0.0
C4251 C 0.29366 0.88765 0.90912 0.0
C4252 C 0.29146 0.87431 0.8924 0.0
C4253 C 0.28592 0.8307 0.84847 0.0
C4254 C 0.28794 0.8455 0.86383 0.0
H4255 H 0.27108 0.91755 0.93005 0.0
H4256 H 0.27177 0.90036 0.89901 0.0
H4257 H 0.31926 0.88049 0.88704 0.0
H4258 H 0.30795 0.79856 0.83118 0.0
H4259 H 0.31015 0.8215 0.85859 0.0
C4260 C 0.91629 0.53613 0.74286 0.0
C4261 C 0.91914 0.52064 0.75124 0.0
C4262 C 0.92016 0.53806 0.7242 0.0
C4263 C 0.92603 0.51254 0.67977 0.0
H4264 H 0.96809 0.5491 0.6767 0.0
C4265 C 0.96921 0.50461 0.61978 0.0
C4266 C 0.98717 0.50504 0.62698 0.0
C4267 C 0.95775 0.51189 0.63113 0.0
C4268 C 0.95613 0.53905 0.6772 0.0
H4269 H 0.92731 0.4947 0.74675 0.0
H4270 H 0.93372 0.4979 0.71411 0.0
H4271 H 0.95147 0.55107 0.70444 0.0
H4272 H 1.00747 0.51423 0.65128 0.0
H4273 H 0.98723 0.52623 0.67148 0.0
H4274 H 0.93149 0.49955 0.65352 0.0
C4275 C 0.92869 0.50859 0.72194 0.0
C4276 C 0.94656 0.54028 0.69292 0.0
C4277 C 0.92528 0.50687 0.74063 0.0
C4278 C 0.99361 0.51343 0.64551 0.0
C4279 C 0.98212 0.52064 0.6569 0.0
C4280 C 0.93552 0.51134 0.66404 0.0
C4281 C 0.92632 0.52424 0.71367 0.0
C4282 C 0.93212 0.52644 0.69477 0.0
C4283 C 0.964 0.51961 0.64993 0.0
C4284 C 0.95126 0.524 0.66321 0.0
H4285 H 0.91148 0.54687 0.75087 0.0
H4286 H 0.91846 0.5503 0.71804 0.0
H4287 H 0.91488 0.50176 0.68101 0.0
H4288 H 0.96383 0.49814 0.60557 0.0
H4289 H 0.94385 0.51094 0.62544 0.0
C4290 C 0.28554 0.18287 0.44712 0.0
C4291 C 0.27113 0.18471 0.45762 0.0
C4292 C 0.28737 0.19096 0.43023 0.0
C4293 C 0.26137 0.2085 0.39158 0.0
H4294 H 0.30812 0.23281 0.38112 0.0
C4295 C 0.27071 0.25338 0.3302 0.0
C4296 C 0.2837 0.25029 0.3181 0.0
C4297 C 0.26947 0.24516 0.34702 0.0
C4298 C 0.29502 0.2259 0.38374 0.0
H4299 H 0.24725 0.19631 0.45868 0.0
H4300 H 0.24997 0.20989 0.42874 0.0
H4301 H 0.30519 0.21918 0.41095 0.0
H4302 H 0.30584 0.2365 0.31434 0.0
H4303 H 0.30411 0.22249 0.3443 0.0
H4304 H 0.25117 0.21545 0.3645 0.0
C4305 C 0.26 0.20235 0.43362 0.0
C4306 C 0.29332 0.21807 0.40084 0.0
C4307 C 0.25844 0.19462 0.45079 0.0
C4308 C 0.29564 0.23899 0.32335 0.0
C4309 C 0.2947 0.23109 0.34051 0.0
C4310 C 0.26306 0.2164 0.37456 0.0
C4311 C 0.27459 0.20077 0.42317 0.0
C4312 C 0.27646 0.20924 0.405 0.0
C4313 C 0.28146 0.23395 0.35245 0.0
C4314 C 0.27989 0.2252 0.37042 0.0
H4315 H 0.29567 0.17553 0.45226 0.0
H4316 H 0.29872 0.18937 0.42258 0.0
H4317 H 0.24824 0.20159 0.3941 0.0
H4318 H 0.26125 0.26196 0.32648 0.0
H4319 H 0.25922 0.24775 0.35591 0.0
C4320 C 0.31559 0.58799 0.55092 0.0
C4321 C 0.31573 0.6065 0.55505 0.0
C4322 C 0.33182 0.5818 0.55179 0.0
C4323 C 0.37467 0.60007 0.53956 0.0
H4324 H 0.38926 0.55598 0.55309 0.0
C4325 C 0.43727 0.57984 0.51329 0.0
C4326 C 0.43555 0.56162 0.50614 0.0
C4327 C 0.42439 0.58531 0.52397 0.0
C4328 C 0.38529 0.56831 0.5492 0.0
H4329 H 0.33214 0.63267 0.56594 0.0
H4330 H 0.36035 0.62183 0.56755 0.0
H4331 H 0.36284 0.56499 0.56551 0.0
H4332 H 0.41939 0.53473 0.50463 0.0
H4333 H 0.39644 0.54439 0.52265 0.0
H4334 H 0.39607 0.60298 0.52228 0.0
C4335 C 0.34791 0.61218 0.56335 0.0
C4336 C 0.37031 0.57347 0.55639 0.0
C4337 C 0.33182 0.61835 0.56234 0.0
C4338 C 0.42093 0.54889 0.51002 0.0
C4339 C 0.40793 0.55439 0.5205 0.0
C4340 C 0.3894 0.59484 0.53221 0.0
C4341 C 0.3481 0.59413 0.55691 0.0
C4342 C 0.3649 0.58934 0.5515 0.0
C4343 C 0.40945 0.57269 0.52742 0.0
C4344 C 0.39478 0.57883 0.53678 0.0
H4345 H 0.30326 0.57865 0.54536 0.0
H4346 H 0.33172 0.5678 0.54672 0.0
H4347 H 0.37042 0.61212 0.53515 0.0
H4348 H 0.44867 0.58979 0.51081 0.0
H4349 H 0.42608 0.59947 0.52942 0.0
C4350 C 0.84769 0.92735 0.52747 0.0
C4351 C 0.84891 0.90974 0.53155 0.0
C4352 C 0.86326 0.94054 0.52784 0.0
C4353 C 0.90991 0.9536 0.54929 0.0
H4354 H 0.91905 0.97831 0.50473 0.0
C4355 C 0.98036 0.9921 0.54185 0.0
C4356 C 0.98281 0.00698 0.53125 0.0
C4357 C 0.96333 0.98192 0.54253 0.0
C4358 C 0.91662 0.97188 0.51748 0.0
H4359 H 0.86739 0.89235 0.53972 0.0
H4360 H 0.89444 0.91551 0.54098 0.0
H4361 H 0.89053 0.95753 0.50487 0.0
H4362 H 0.96894 0.02292 0.51323 0.0
H4363 H 0.93886 1.00573 0.51529 0.0
H4364 H 0.93554 0.96808 0.56226 0.0
C4365 C 0.88148 0.91902 0.53722 0.0
C4366 C 0.90028 0.95987 0.51748 0.0
C4367 C 0.86599 0.90575 0.53642 0.0
C4368 C 0.96756 0.01175 0.52178 0.0
C4369 C 0.95032 1.00165 0.52272 0.0
C4370 C 0.92603 0.96584 0.54947 0.0
C4371 C 0.88031 0.93651 0.53277 0.0
C4372 C 0.89693 0.95036 0.53325 0.0
C4373 C 0.94798 0.98645 0.53298 0.0
C4374 C 0.92988 0.97487 0.5334 0.0
H4375 H 0.83473 0.93081 0.52359 0.0
H4376 H 0.86199 0.95394 0.52444 0.0
H4377 H 0.90758 0.94664 0.56175 0.0
H4378 H 0.99173 0.98788 0.54932 0.0
H4379 H 0.96237 0.97012 0.55016 0.0
C4380 C 0.88748 0.05955 0.25224 0.0
C4381 C 0.90548 0.06117 0.26002 0.0
C4382 C 0.87942 0.07477 0.25218 0.0
C4383 C 0.88363 0.1201 0.27821 0.0
H4384 H 0.8494 0.12718 0.23668 0.0
C4385 C 0.85014 0.18176 0.28428 0.0
C4386 C 0.83144 0.17807 0.27975 0.0
C4387 C 0.86034 0.16907 0.27842 0.0
C4388 C 0.85889 0.12536 0.24841 0.0
H4389 H 0.92927 0.08011 0.27329 0.0
H4390 H 0.91526 0.10666 0.27308 0.0
H4391 H 0.86495 0.10164 0.23333 0.0
H4392 H 0.80868 0.15884 0.26494 0.0
H4393 H 0.82642 0.13653 0.25463 0.0
H4394 H 0.87732 0.1434 0.29353 0.0
C4395 C 0.90731 0.0936 0.26722 0.0
C4396 C 0.86778 0.11072 0.24651 0.0
C4397 C 0.91538 0.0784 0.26723 0.0
C4398 C 0.82316 0.16206 0.26823 0.0
C4399 C 0.83334 0.1493 0.26241 0.0
C4400 C 0.87476 0.13467 0.28012 0.0
C4401 C 0.88916 0.09194 0.25996 0.0
C4402 C 0.8802 0.10788 0.26144 0.0
C4403 C 0.85196 0.15234 0.26814 0.0
C4404 C 0.86222 0.13748 0.26529 0.0
H4405 H 0.87948 0.04646 0.24657 0.0
H4406 H 0.86538 0.07298 0.24665 0.0
H4407 H 0.8928 0.11811 0.29016 0.0
H4408 H 0.85672 0.19394 0.29341 0.0
H4409 H 0.87468 0.172 0.28276 0.0
C4410 C 0.70756 0.1174 0.04227 0.0
C4411 C 0.71963 0.11347 0.02953 0.0
C4412 C 0.69064 0.10666 0.04086 0.0
C4413 C 0.65623 0.07994 0.00677 0.0
H4414 H 0.63565 0.06524 0.05212 0.0
C4415 C 0.58471 0.03888 0.00984 0.0
C4416 C 0.57607 0.04493 0.02507 0.0
C4417 C 0.60208 0.04743 0.00791 0.0
C4418 C 0.64123 0.06941 0.03938 0.0
H4419 H 0.7242 0.09536 0.00572 0.0
H4420 H 0.69388 0.07653 0.00279 0.0
H4421 H 0.66768 0.07744 0.05418 0.0
H4422 H 0.57775 0.06462 0.04974 0.0
H4423 H 0.60826 0.0798 0.04636 0.0
H4424 H 0.62955 0.07217 0.99209 0.0
C4425 C 0.6977 0.08784 0.01391 0.0
C4426 C 0.6595 0.07618 0.04053 0.0
C4427 C 0.71488 0.09847 0.01559 0.0
C4428 C 0.58435 0.06003 0.03781 0.0
C4429 C 0.60168 0.06856 0.03592 0.0
C4430 C 0.63787 0.0731 0.0056 0.0
C4431 C 0.6855 0.09199 0.02652 0.0
C4432 C 0.66702 0.0819 0.02436 0.0
C4433 C 0.6109 0.06181 0.02144 0.0
C4434 C 0.63025 0.06827 0.02205 0.0
H4435 H 0.71121 0.12888 0.05323 0.0
H4436 H 0.68135 0.11018 0.0506 0.0
H4437 H 0.66183 0.08449 0.99419 0.0
H4438 H 0.57848 0.0269 0.00022 0.0
H4439 H 0.60904 0.04199 0.99674 0.0
C4440 C 0.21627 0.49514 0.23841 0.0
C4441 C 0.19894 0.49364 0.24396 0.0
C4442 C 0.22412 0.4799 0.23644 0.0
C4443 C 0.23952 0.45115 0.25594 0.0
H4444 H 0.21589 0.40206 0.23633 0.0
C4445 C 0.24252 0.38918 0.29406 0.0
C4446 C 0.25689 0.38136 0.28866 0.0
C4447 C 0.23533 0.40059 0.2825 0.0
C4448 C 0.22271 0.41575 0.24154 0.0
H4449 H 0.17573 0.47507 0.25059 0.0
H4450 H 0.18957 0.44862 0.24746 0.0
H4451 H 0.20404 0.42775 0.22481 0.0
H4452 H 0.27449 0.37852 0.26664 0.0
H4453 H 0.26187 0.3988 0.2465 0.0
H4454 H 0.25736 0.43917 0.27365 0.0
C4455 C 0.19695 0.46141 0.24428 0.0
C4456 C 0.21603 0.43032 0.235 0.0
C4457 C 0.18913 0.47659 0.24628 0.0
C4458 C 0.26335 0.38436 0.27107 0.0
C4459 C 0.25618 0.39583 0.25954 0.0
C4460 C 0.24611 0.43663 0.26248 0.0
C4461 C 0.21467 0.46307 0.23993 0.0
C4462 C 0.22407 0.44807 0.24266 0.0
C4463 C 0.24244 0.40423 0.26547 0.0
C4464 C 0.23741 0.41895 0.25572 0.0
H4465 H 0.224 0.50814 0.23635 0.0
H4466 H 0.23785 0.48138 0.23312 0.0
H4467 H 0.24566 0.46471 0.26237 0.0
H4468 H 0.23715 0.3868 0.3074 0.0
H4469 H 0.22478 0.40721 0.28723 0.0
C4470 C 0.23313 0.39887 0.02995 0.0
C4471 C 0.25019 0.40916 0.03686 0.0
C4472 C 0.21792 0.40683 0.0294 0.0
C4473 C 0.20042 0.44717 0.04788 0.0
H4474 H 0.16772 0.43497 0.00106 0.0
C4475 C 0.1476 0.4897 0.02398 0.0
C4476 C 0.13174 0.48062 0.01283 0.0
C4477 C 0.1608 0.48011 0.03012 0.0
C4478 C 0.17646 0.43831 0.01441 0.0
H4479 H 0.26456 0.43578 0.04919 0.0
H4480 H 0.238 0.44972 0.04816 0.0
H4481 H 0.19319 0.42001 0.00546 0.0
H4482 H 0.11667 0.45451 0.00014 0.0
H4483 H 0.13932 0.43761 0.01139 0.0
H4484 H 0.18375 0.46575 0.05663 0.0
C4485 C 0.23636 0.43544 0.04329 0.0
C4486 C 0.19115 0.42972 0.01692 0.0
C4487 C 0.2516 0.42747 0.0438 0.0
C4488 C 0.12872 0.46173 0.00896 0.0
C4489 C 0.14183 0.45213 0.01516 0.0
C4490 C 0.18566 0.45577 0.04538 0.0
C4491 C 0.21936 0.42529 0.03577 0.0
C4492 C 0.20337 0.43407 0.03363 0.0
C4493 C 0.15836 0.46127 0.02513 0.0
C4494 C 0.17351 0.45149 0.02857 0.0
H4495 H 0.23155 0.38472 0.02453 0.0
H4496 H 0.20501 0.39854 0.0238 0.0
H4497 H 0.20948 0.45072 0.06101 0.0
H4498 H 0.15032 0.50432 0.02678 0.0
H4499 H 0.17338 0.48763 0.03765 0.0
C4500 C 0.88825 0.96115 0.27208 0.0
C4501 C 0.90359 0.96112 0.26257 0.0
C4502 C 0.87557 0.94518 0.27173 0.0
C4503 C 0.85842 0.90017 0.24478 0.0
H4504 H 0.84446 0.886 0.29317 0.0
C4505 C 0.82226 0.82763 0.25288 0.0
C4506 C 0.8091 0.82556 0.2655 0.0
C4507 C 0.83257 0.84468 0.25167 0.0
C4508 C 0.84795 0.88986 0.27948 0.0
H4509 H 0.91737 0.94469 0.24464 0.0
H4510 H 0.89492 0.91695 0.24343 0.0
H4511 H 0.86423 0.91504 0.29236 0.0
H4512 H 0.79646 0.83985 0.28676 0.0
H4513 H 0.81423 0.86957 0.28447 0.0
H4514 H 0.84215 0.87504 0.23184 0.0
C4515 C 0.8928 0.9292 0.2514 0.0
C4516 C 0.85931 0.90651 0.27904 0.0
C4517 C 0.90569 0.94503 0.25215 0.0
C4518 C 0.80634 0.84098 0.27671 0.0
C4519 C 0.81669 0.85801 0.27557 0.0
C4520 C 0.84694 0.88357 0.24518 0.0
C4521 C 0.87775 0.929 0.26144 0.0
C4522 C 0.86481 0.91179 0.26171 0.0
C4523 C 0.83006 0.86008 0.26315 0.0
C4524 C 0.84167 0.87811 0.26256 0.0
H4525 H 0.8864 0.97337 0.28033 0.0
H4526 H 0.86407 0.94545 0.27954 0.0
H4527 H 0.86227 0.90395 0.23118 0.0
H4528 H 0.82476 0.81602 0.24409 0.0
H4529 H 0.84286 0.84569 0.24211 0.0
C4530 C 0.68957 0.10651 0.75664 0.0
C4531 C 0.69578 0.09194 0.76405 0.0
C4532 C 0.70108 0.123 0.75728 0.0
C4533 C 0.73801 0.15149 0.78602 0.0
H4534 H 0.73812 0.17938 0.74282 0.0
C4535 C 0.77705 0.22447 0.78369 0.0
C4536 C 0.76734 0.2354 0.77375 0.0
C4537 C 0.7692 0.20664 0.78503 0.0
C4538 C 0.73809 0.17173 0.755 0.0
H4539 H 0.71885 0.08272 0.7773 0.0
H4540 H 0.7391 0.11223 0.77908 0.0
H4541 H 0.72482 0.14726 0.73801 0.0
H4542 H 0.7419 0.23739 0.75849 0.0
H4543 H 0.72796 0.20611 0.76095 0.0
H4544 H 0.75089 0.17621 0.80308 0.0
C4545 C 0.72532 0.11065 0.77268 0.0
C4546 C 0.73071 0.15342 0.75221 0.0
C4547 C 0.71381 0.09392 0.7717 0.0
C4548 C 0.7494 0.22904 0.76638 0.0
C4549 C 0.74156 0.21122 0.76765 0.0
C4550 C 0.74545 0.16989 0.78882 0.0
C4551 C 0.71892 0.12525 0.76554 0.0
C4552 C 0.73013 0.14333 0.76779 0.0
C4553 C 0.75173 0.19971 0.77615 0.0
C4554 C 0.74497 0.18018 0.77341 0.0
H4555 H 0.6758 0.10515 0.75029 0.0
H4556 H 0.69586 0.13417 0.75184 0.0
H4557 H 0.73749 0.14389 0.79823 0.0
H4558 H 0.79103 0.22936 0.78925 0.0
H4559 H 0.77721 0.19792 0.79163 0.0
loop_
_geom_bond_atom_site_label_1
_geom_bond_atom_site_label_2
_geom_bond_distance
_geom_bond_site_symmetry_2
_ccdc_geom_bond_type
Co0 O1 2.216 . S
Co0 O2 2.091 . S
Co0 O4 2.004 . S
Co0 O10 2.021 . S
Co0 O12 2.137 . S
Co0 O13 2.244 . S
O1 Co0 2.216 . S
O1 C8 1.247 . S
O2 Co0 2.091 . S
O2 C8 1.261 . S
C3 O12 1.247 . S
C3 O13 1.272 . S
O4 Co0 2.004 . S
O4 C9 1.259 1_455 S
Co5 O6 2.061 1_455 S
Co5 O11 2.052 . S
Co5 O13 2.135 . S
O6 Co5 2.061 1_655 S
O6 C9 1.235 . S
C7 O10 1.238 . S
C7 O11 1.241 . S
C8 O1 1.247 . S
C8 O2 1.261 . S
C9 O4 1.259 1_655 S
C9 O6 1.235 . S
O10 Co0 2.021 . S
O10 C7 1.238 . S
O11 Co5 2.052 . S
O11 C7 1.241 . S
O12 Co0 2.137 . S
O12 C3 1.247 . S
O13 Co0 2.244 . S
O13 C3 1.272 . S
O13 Co5 2.135 . S
Co14 O15 2.216 1_455 S
Co14 O16 2.091 1_455 S
Co14 O18 2.004 . S
Co14 O24 2.021 . S
Co14 O26 2.137 . S
Co14 O27 2.244 . S
O15 Co14 2.216 1_655 S
O15 C22 1.247 . S
O16 Co14 2.091 1_655 S
O16 C22 1.261 . S
C17 O26 1.247 . S
C17 O27 1.272 . S
O18 Co14 2.004 . S
O18 C23 1.259 . S
Co19 O20 2.061 . S
Co19 O25 2.052 . S
Co19 O27 2.135 . S
O20 Co19 2.061 . S
O20 C23 1.235 . S
C21 O24 1.238 . S
C21 O25 1.241 . S
C22 O15 1.247 . S
C22 O16 1.261 . S
C23 O18 1.259 . S
C23 O20 1.235 . S
O24 Co14 2.021 . S
O24 C21 1.238 . S
O25 Co19 2.052 . S
O25 C21 1.241 . S
O26 Co14 2.137 . S
O26 C17 1.247 . S
O27 Co14 2.244 . S
O27 C17 1.272 . S
O27 Co19 2.135 . S
Co28 O29 2.216 . S
Co28 O30 2.091 . S
Co28 O32 2.004 . S
Co28 O38 2.021 . S
Co28 O40 2.137 . S
Co28 O41 2.244 . S
O29 Co28 2.216 . S
O29 C36 1.247 . S
O30 Co28 2.091 . S
O30 C36 1.261 . S
C31 O40 1.247 . S
C31 O41 1.272 . S
O32 Co28 2.004 . S
O32 C37 1.259 . S
Co33 O34 2.061 . S
Co33 O39 2.052 . S
Co33 O41 2.135 . S
O34 Co33 2.061 . S
O34 C37 1.235 . S
C35 O38 1.238 . S
C35 O39 1.241 . S
C36 O29 1.247 . S
C36 O30 1.261 . S
C37 O32 1.259 . S
C37 O34 1.235 . S
O38 Co28 2.021 . S
O38 C35 1.238 . S
O39 Co33 2.052 . S
O39 C35 1.241 . S
O40 Co28 2.137 . S
O40 C31 1.247 . S
O41 Co28 2.244 . S
O41 C31 1.272 . S
O41 Co33 2.135 . S
Co42 O43 2.216 . S
Co42 O44 2.091 . S
Co42 O46 2.004 . S
Co42 O52 2.021 . S
Co42 O54 2.137 . S
Co42 O55 2.244 . S
O43 Co42 2.216 . S
O43 C50 1.247 . S
O44 Co42 2.091 . S
O44 C50 1.261 . S
C45 O54 1.247 . S
C45 O55 1.272 . S
O46 Co42 2.004 . S
O46 C51 1.259 . S
Co47 O48 2.061 . S
Co47 O53 2.052 . S
Co47 O55 2.135 . S
O48 Co47 2.061 . S
O48 C51 1.235 . S
C49 O52 1.238 . S
C49 O53 1.241 . S
C50 O43 1.247 . S
C50 O44 1.261 . S
C51 O46 1.259 . S
C51 O48 1.235 . S
O52 Co42 2.021 . S
O52 C49 1.238 . S
O53 Co47 2.052 . S
O53 C49 1.241 . S
O54 Co42 2.137 . S
O54 C45 1.247 . S
O55 Co42 2.244 . S
O55 C45 1.272 . S
O55 Co47 2.135 . S
Co56 O57 2.216 . S
Co56 O58 2.091 . S
Co56 O60 2.004 . S
Co56 O66 2.021 . S
Co56 O68 2.137 . S
Co56 O69 2.244 . S
O57 Co56 2.216 . S
O57 C64 1.247 . S
O58 Co56 2.091 . S
O58 C64 1.261 . S
C59 O68 1.247 . S
C59 O69 1.272 . S
O60 Co56 2.004 . S
O60 C65 1.259 . S
Co61 O62 2.061 . S
Co61 O67 2.052 . S
Co61 O69 2.135 . S
O62 Co61 2.061 . S
O62 C65 1.235 . S
C63 O66 1.238 . S
C63 O67 1.241 . S
C64 O57 1.247 . S
C64 O58 1.261 . S
C65 O60 1.259 . S
C65 O62 1.235 . S
O66 Co56 2.021 . S
O66 C63 1.238 . S
O67 Co61 2.052 . S
O67 C63 1.241 . S
O68 Co56 2.137 . S
O68 C59 1.247 . S
O69 Co56 2.244 . S
O69 C59 1.272 . S
O69 Co61 2.135 . S
Co70 O71 2.216 . S
Co70 O72 2.091 . S
Co70 O74 2.004 . S
Co70 O80 2.021 . S
Co70 O82 2.137 . S
Co70 O83 2.244 . S
O71 Co70 2.216 . S
O71 C78 1.247 . S
O72 Co70 2.091 . S
O72 C78 1.261 . S
C73 O82 1.247 . S
C73 O83 1.272 . S
O74 Co70 2.004 . S
O74 C79 1.259 . S
Co75 O76 2.061 . S
Co75 O81 2.052 . S
Co75 O83 2.135 . S
O76 Co75 2.061 . S
O76 C79 1.235 . S
C77 O80 1.238 . S
C77 O81 1.241 . S
C78 O71 1.247 . S
C78 O72 1.261 . S
C79 O74 1.259 . S
C79 O76 1.235 . S
O80 Co70 2.021 . S
O80 C77 1.238 . S
O81 Co75 2.052 . S
O81 C77 1.241 . S
O82 Co70 2.137 . S
O82 C73 1.247 . S
O83 Co70 2.244 . S
O83 C73 1.272 . S
O83 Co75 2.135 . S
Co84 O85 2.216 . S
Co84 O86 2.091 . S
Co84 O88 2.004 . S
Co84 O94 2.021 . S
Co84 O96 2.137 . S
Co84 O97 2.244 . S
O85 Co84 2.216 . S
O85 C92 1.247 . S
O86 Co84 2.091 . S
O86 C92 1.261 . S
C87 O96 1.247 . S
C87 O97 1.272 . S
O88 Co84 2.004 . S
O88 C93 1.259 . S
Co89 O90 2.061 . S
Co89 O95 2.052 . S
Co89 O97 2.135 . S
O90 Co89 2.061 . S
O90 C93 1.235 . S
C91 O94 1.238 . S
C91 O95 1.241 . S
C92 O85 1.247 . S
C92 O86 1.261 . S
C93 O88 1.259 . S
C93 O90 1.235 . S
O94 Co84 2.021 . S
O94 C91 1.238 . S
O95 Co89 2.052 . S
O95 C91 1.241 . S
O96 Co84 2.137 . S
O96 C87 1.247 . S
O97 Co84 2.244 . S
O97 C87 1.272 . S
O97 Co89 2.135 . S
Co98 O99 2.216 . S
Co98 O100 2.091 . S
Co98 O102 2.004 1_455 S
Co98 O108 2.021 1_455 S
Co98 O110 2.137 . S
Co98 O111 2.244 1_455 S
O99 Co98 2.216 . S
O99 C106 1.247 . S
O100 Co98 2.091 . S
O100 C106 1.261 . S
C101 O110 1.247 . S
C101 O111 1.272 1_455 S
O102 Co98 2.004 1_655 S
O102 C107 1.259 . S
Co103 O104 2.061 . S
Co103 O109 2.052 . S
Co103 O111 2.135 . S
O104 Co103 2.061 . S
O104 C107 1.235 . S
C105 O108 1.239 . S
C105 O109 1.241 . S
C106 O99 1.247 . S
C106 O100 1.261 . S
C107 O102 1.259 . S
C107 O104 1.235 . S
O108 Co98 2.021 1_655 S
O108 C105 1.239 . S
O109 Co103 2.052 . S
O109 C105 1.241 . S
O110 Co98 2.137 . S
O110 C101 1.247 . S
O111 Co98 2.244 1_655 S
O111 C101 1.272 1_655 S
O111 Co103 2.135 . S
Co112 O113 2.216 . S
Co112 O114 2.091 . S
Co112 O116 2.004 1_545 S
Co112 O122 2.021 . S
Co112 O124 2.137 . S
Co112 O125 2.244 . S
O113 Co112 2.216 . S
O113 C120 1.247 . S
O114 Co112 2.091 . S
O114 C120 1.261 . S
C115 O124 1.247 . S
C115 O125 1.272 . S
O116 Co112 2.004 1_565 S
O116 C121 1.259 . S
Co117 O118 2.061 . S
Co117 O123 2.052 . S
Co117 O125 2.135 1_565 S
O118 Co117 2.061 . S
O118 C121 1.235 . S
C119 O122 1.238 . S
C119 O123 1.241 1_545 S
C120 O113 1.247 . S
C120 O114 1.261 . S
C121 O116 1.259 . S
C121 O118 1.235 . S
O122 Co112 2.021 . S
O122 C119 1.238 . S
O123 Co117 2.052 . S
O123 C119 1.241 1_565 S
O124 Co112 2.137 . S
O124 C115 1.247 . S
O125 Co112 2.244 . S
O125 C115 1.272 . S
O125 Co117 2.135 1_545 S
Co126 O127 2.216 . S
Co126 O128 2.091 . S
Co126 O130 2.004 . S
Co126 O136 2.021 . S
Co126 O138 2.137 . S
Co126 O139 2.244 . S
O127 Co126 2.216 . S
O127 C134 1.247 . S
O128 Co126 2.091 . S
O128 C134 1.261 . S
C129 O138 1.247 . S
C129 O139 1.272 . S
O130 Co126 2.004 . S
O130 C135 1.259 . S
Co131 O132 2.061 . S
Co131 O137 2.052 . S
Co131 O139 2.135 . S
O132 Co131 2.061 . S
O132 C135 1.235 . S
C133 O136 1.238 . S
C133 O137 1.241 . S
C134 O127 1.247 . S
C134 O128 1.261 . S
C135 O130 1.259 . S
C135 O132 1.235 . S
O136 Co126 2.021 . S
O136 C133 1.238 . S
O137 Co131 2.052 . S
O137 C133 1.241 . S
O138 Co126 2.137 . S
O138 C129 1.247 . S
O139 Co126 2.244 . S
O139 C129 1.272 . S
O139 Co131 2.135 . S
Co140 O141 2.221 . S
Co140 O142 2.091 . S
Co140 O144 2.004 . S
Co140 O150 2.021 . S
Co140 O152 2.137 . S
Co140 O153 2.244 . S
O141 Co140 2.221 . S
O141 C148 1.248 . S
O142 Co140 2.091 . S
O142 C148 1.272 . S
C143 O152 1.247 . S
C143 O153 1.272 . S
O144 Co140 2.004 . S
O144 C149 1.259 . S
Co145 O146 2.061 . S
Co145 O151 2.052 . S
Co145 O153 2.135 . S
O146 Co145 2.061 . S
O146 C149 1.235 . S
C147 O150 1.238 . S
C147 O151 1.241 . S
C148 O141 1.248 . S
C148 O142 1.272 . S
C149 O144 1.259 . S
C149 O146 1.235 . S
O150 Co140 2.021 . S
O150 C147 1.238 . S
O151 Co145 2.052 . S
O151 C147 1.241 . S
O152 Co140 2.137 . S
O152 C143 1.247 . S
O153 Co140 2.244 . S
O153 C143 1.272 . S
O153 Co145 2.135 . S
Co154 O155 2.216 . S
Co154 O156 2.091 1_556 S
Co154 O158 2.000 . S
Co154 O164 2.021 1_556 S
Co154 O166 2.137 . S
Co154 O167 2.244 . S
O155 Co154 2.216 . S
O155 C162 1.250 . S
O156 Co154 2.091 1_554 S
O156 C162 1.264 1_554 S
C157 O166 1.247 . S
C157 O167 1.272 . S
O158 Co154 2.000 . S
O158 C163 1.254 1_556 S
Co159 O160 2.061 1_556 S
Co159 O165 2.052 1_556 S
Co159 O167 2.135 . S
O160 Co159 2.061 1_554 S
O160 C163 1.235 . S
C161 O164 1.238 . S
C161 O165 1.241 . S
C162 O155 1.250 . S
C162 O156 1.264 1_556 S
C163 O158 1.254 1_554 S
C163 O160 1.235 . S
O164 Co154 2.021 1_554 S
O164 C161 1.238 . S
O165 Co159 2.052 1_554 S
O165 C161 1.241 . S
O166 Co154 2.137 . S
O166 C157 1.247 . S
O167 Co154 2.244 . S
O167 C157 1.272 . S
O167 Co159 2.135 . S
Co168 O169 2.216 . S
Co168 O170 2.091 . S
Co168 O172 2.004 . S
Co168 O178 2.021 . S
Co168 O180 2.137 . S
Co168 O181 2.244 . S
O169 Co168 2.216 . S
O169 C176 1.247 . S
O170 Co168 2.091 . S
O170 C176 1.261 . S
C171 O180 1.247 . S
C171 O181 1.272 . S
O172 Co168 2.004 . S
O172 C177 1.259 . S
Co173 O174 2.061 . S
Co173 O179 2.052 . S
Co173 O181 2.135 . S
O174 Co173 2.061 . S
O174 C177 1.235 . S
C175 O178 1.238 . S
C175 O179 1.241 . S
C176 O169 1.247 . S
C176 O170 1.261 . S
C177 O172 1.259 . S
C177 O174 1.235 . S
O178 Co168 2.021 . S
O178 C175 1.238 . S
O179 Co173 2.052 . S
O179 C175 1.241 . S
O180 Co168 2.137 . S
O180 C171 1.247 . S
O181 Co168 2.244 . S
O181 C171 1.272 . S
O181 Co173 2.135 . S
Co182 O183 2.216 . S
Co182 O184 2.091 . S
Co182 O186 2.004 . S
Co182 O192 2.021 . S
Co182 O194 2.137 . S
Co182 O195 2.244 . S
O183 Co182 2.216 . S
O183 C190 1.247 . S
O184 Co182 2.091 . S
O184 C190 1.261 . S
C185 O194 1.247 . S
C185 O195 1.272 . S
O186 Co182 2.004 . S
O186 C191 1.259 . S
Co187 O188 2.061 . S
Co187 O193 2.052 . S
Co187 O195 2.135 . S
O188 Co187 2.061 . S
O188 C191 1.235 . S
C189 O192 1.238 . S
C189 O193 1.241 . S
C190 O183 1.247 . S
C190 O184 1.261 . S
C191 O186 1.259 . S
C191 O188 1.235 . S
O192 Co182 2.021 . S
O192 C189 1.238 . S
O193 Co187 2.052 . S
O193 C189 1.241 . S
O194 Co182 2.137 . S
O194 C185 1.247 . S
O195 Co182 2.244 . S
O195 C185 1.272 . S
O195 Co187 2.135 . S
Co196 O197 2.216 . S
Co196 O198 2.091 . S
Co196 O200 2.004 . S
Co196 O206 2.021 . S
Co196 O208 2.137 . S
Co196 O209 2.244 . S
O197 Co196 2.216 . S
O197 C204 1.247 . S
O198 Co196 2.091 . S
O198 C204 1.261 . S
C199 O208 1.247 . S
C199 O209 1.272 . S
O200 Co196 2.004 . S
O200 C205 1.259 . S
Co201 O202 2.061 . S
Co201 O207 2.052 . S
Co201 O209 2.135 . S
O202 Co201 2.061 . S
O202 C205 1.235 . S
C203 O206 1.238 . S
C203 O207 1.241 . S
C204 O197 1.247 . S
C204 O198 1.261 . S
C205 O200 1.259 . S
C205 O202 1.235 . S
O206 Co196 2.021 . S
O206 C203 1.238 . S
O207 Co201 2.052 . S
O207 C203 1.241 . S
O208 Co196 2.137 . S
O208 C199 1.247 . S
O209 Co196 2.244 . S
O209 C199 1.272 . S
O209 Co201 2.135 . S
Co210 O211 2.216 . S
Co210 O212 2.091 . S
Co210 O214 2.004 . S
Co210 O220 2.021 . S
Co210 O222 2.137 . S
Co210 O223 2.244 . S
O211 Co210 2.216 . S
O211 C218 1.247 . S
O212 Co210 2.091 . S
O212 C218 1.261 . S
C213 O222 1.247 . S
C213 O223 1.272 . S
O214 Co210 2.004 . S
O214 C219 1.259 . S
Co215 O216 2.061 . S
Co215 O221 2.052 . S
Co215 O223 2.135 . S
O216 Co215 2.061 . S
O216 C219 1.235 . S
C217 O220 1.238 . S
C217 O221 1.241 . S
C218 O211 1.247 . S
C218 O212 1.261 . S
C219 O214 1.259 . S
C219 O216 1.235 . S
O220 Co210 2.021 . S
O220 C217 1.238 . S
O221 Co215 2.052 . S
O221 C217 1.241 . S
O222 Co210 2.137 . S
O222 C213 1.247 . S
O223 Co210 2.244 . S
O223 C213 1.272 . S
O223 Co215 2.135 . S
Co224 O225 2.216 . S
Co224 O226 2.091 . S
Co224 O228 2.004 1_545 S
Co224 O234 2.021 . S
Co224 O236 2.137 . S
Co224 O237 2.244 . S
O225 Co224 2.216 . S
O225 C232 1.247 . S
O226 Co224 2.091 . S
O226 C232 1.261 . S
C227 O236 1.247 . S
C227 O237 1.272 . S
O228 Co224 2.004 1_565 S
O228 C233 1.259 . S
Co229 O230 2.061 . S
Co229 O235 2.052 1_565 S
Co229 O237 2.135 1_565 S
O230 Co229 2.061 . S
O230 C233 1.235 . S
C231 O234 1.238 . S
C231 O235 1.241 . S
C232 O225 1.247 . S
C232 O226 1.261 . S
C233 O228 1.259 . S
C233 O230 1.235 . S
O234 Co224 2.021 . S
O234 C231 1.238 . S
O235 Co229 2.052 1_545 S
O235 C231 1.241 . S
O236 Co224 2.137 . S
O236 C227 1.247 . S
O237 Co224 2.244 . S
O237 C227 1.272 . S
O237 Co229 2.135 1_545 S
Co238 O239 2.216 . S
Co238 O240 2.091 . S
Co238 O242 2.004 . S
Co238 O248 2.021 . S
Co238 O250 2.137 . S
Co238 O251 2.244 . S
O239 Co238 2.216 . S
O239 C246 1.247 . S
O240 Co238 2.091 . S
O240 C246 1.261 . S
C241 O250 1.247 . S
C241 O251 1.272 . S
O242 Co238 2.004 . S
O242 C247 1.259 . S
Co243 O244 2.061 . S
Co243 O249 2.052 . S
Co243 O251 2.135 . S
O244 Co243 2.061 . S
O244 C247 1.235 . S
C245 O248 1.238 . S
C245 O249 1.241 . S
C246 O239 1.247 . S
C246 O240 1.261 . S
C247 O242 1.259 . S
C247 O244 1.235 . S
O248 Co238 2.021 . S
O248 C245 1.238 . S
O249 Co243 2.052 . S
O249 C245 1.241 . S
O250 Co238 2.137 . S
O250 C241 1.247 . S
O251 Co238 2.244 . S
O251 C241 1.272 . S
O251 Co243 2.135 . S
Co252 O253 2.216 . S
Co252 O254 2.091 . S
Co252 O256 2.004 . S
Co252 O262 2.021 . S
Co252 O264 2.137 . S
Co252 O265 2.244 . S
O253 Co252 2.216 . S
O253 C260 1.247 . S
O254 Co252 2.091 . S
O254 C260 1.261 . S
C255 O264 1.247 . S
C255 O265 1.272 . S
O256 Co252 2.004 . S
O256 C261 1.259 . S
Co257 O258 2.061 . S
Co257 O263 2.052 . S
Co257 O265 2.135 . S
O258 Co257 2.061 . S
O258 C261 1.235 . S
C259 O262 1.238 . S
C259 O263 1.241 . S
C260 O253 1.247 . S
C260 O254 1.261 . S
C261 O256 1.259 . S
C261 O258 1.235 . S
O262 Co252 2.021 . S
O262 C259 1.238 . S
O263 Co257 2.052 . S
O263 C259 1.241 . S
O264 Co252 2.137 . S
O264 C255 1.247 . S
O265 Co252 2.244 . S
O265 C255 1.272 . S
O265 Co257 2.135 . S
Co266 O267 2.216 . S
Co266 O268 2.091 . S
Co266 O270 2.004 . S
Co266 O276 2.021 . S
Co266 O278 2.137 . S
Co266 O279 2.244 . S
O267 Co266 2.216 . S
O267 C274 1.247 . S
O268 Co266 2.091 . S
O268 C274 1.261 . S
C269 O278 1.247 . S
C269 O279 1.272 . S
O270 Co266 2.004 . S
O270 C275 1.259 . S
Co271 O272 2.061 . S
Co271 O277 2.052 . S
Co271 O279 2.135 . S
O272 Co271 2.061 . S
O272 C275 1.235 . S
C273 O276 1.238 . S
C273 O277 1.241 . S
C274 O267 1.247 . S
C274 O268 1.261 . S
C275 O270 1.259 . S
C275 O272 1.235 . S
O276 Co266 2.021 . S
O276 C273 1.238 . S
O277 Co271 2.052 . S
O277 C273 1.241 . S
O278 Co266 2.137 . S
O278 C269 1.247 . S
O279 Co266 2.244 . S
O279 C269 1.272 . S
O279 Co271 2.135 . S
Co280 O281 2.216 . S
Co280 O282 2.091 . S
Co280 O284 2.004 . S
Co280 O290 2.021 . S
Co280 O292 2.137 1_554 S
Co280 O293 2.244 1_554 S
O281 Co280 2.216 . S
O281 C288 1.247 . S
O282 Co280 2.091 . S
O282 C288 1.261 . S
C283 O292 1.247 . S
C283 O293 1.272 . S
O284 Co280 2.004 . S
O284 C289 1.259 . S
Co285 O286 2.061 . S
Co285 O291 2.052 . S
Co285 O293 2.135 1_554 S
O286 Co285 2.061 . S
O286 C289 1.235 . S
C287 O290 1.238 . S
C287 O291 1.241 . S
C288 O281 1.247 . S
C288 O282 1.261 . S
C289 O284 1.259 . S
C289 O286 1.235 . S
O290 Co280 2.021 . S
O290 C287 1.238 . S
O291 Co285 2.052 . S
O291 C287 1.241 . S
O292 Co280 2.137 1_556 S
O292 C283 1.247 . S
O293 Co280 2.244 1_556 S
O293 C283 1.272 . S
O293 Co285 2.135 1_556 S
Co294 O295 2.216 . S
Co294 O296 2.091 . S
Co294 O298 2.004 . S
Co294 O304 2.021 . S
Co294 O306 2.137 . S
Co294 O307 2.244 . S
O295 Co294 2.216 . S
O295 C302 1.247 . S
O296 Co294 2.091 . S
O296 C302 1.261 . S
C297 O306 1.247 . S
C297 O307 1.272 . S
O298 Co294 2.004 . S
O298 C303 1.259 . S
Co299 O300 2.061 . S
Co299 O305 2.052 . S
Co299 O307 2.135 . S
O300 Co299 2.061 . S
O300 C303 1.235 . S
C301 O304 1.238 . S
C301 O305 1.241 . S
C302 O295 1.247 . S
C302 O296 1.261 . S
C303 O298 1.259 . S
C303 O300 1.235 . S
O304 Co294 2.021 . S
O304 C301 1.238 . S
O305 Co299 2.052 . S
O305 C301 1.241 . S
O306 Co294 2.137 . S
O306 C297 1.247 . S
O307 Co294 2.244 . S
O307 C297 1.272 . S
O307 Co299 2.135 . S
Co308 O309 2.216 . S
Co308 O310 2.091 . S
Co308 O312 2.004 . S
Co308 O318 2.021 . S
Co308 O320 2.137 . S
Co308 O321 2.244 . S
O309 Co308 2.216 . S
O309 C316 1.247 . S
O310 Co308 2.091 . S
O310 C316 1.261 . S
C311 O320 1.247 . S
C311 O321 1.272 . S
O312 Co308 2.004 . S
O312 C317 1.259 . S
Co313 O314 2.061 . S
Co313 O319 2.052 . S
Co313 O321 2.135 . S
O314 Co313 2.061 . S
O314 C317 1.235 . S
C315 O318 1.238 . S
C315 O319 1.241 . S
C316 O309 1.247 . S
C316 O310 1.261 . S
C317 O312 1.259 . S
C317 O314 1.235 . S
O318 Co308 2.021 . S
O318 C315 1.238 . S
O319 Co313 2.052 . S
O319 C315 1.241 . S
O320 Co308 2.137 . S
O320 C311 1.247 . S
O321 Co308 2.244 . S
O321 C311 1.272 . S
O321 Co313 2.135 . S
Co322 O323 2.216 . S
Co322 O324 2.091 . S
Co322 O326 2.004 . S
Co322 O332 2.021 . S
Co322 O334 2.137 . S
Co322 O335 2.244 . S
O323 Co322 2.216 . S
O323 C330 1.247 . S
O324 Co322 2.091 . S
O324 C330 1.261 . S
C325 O334 1.247 . S
C325 O335 1.272 . S
O326 Co322 2.004 . S
O326 C331 1.259 . S
Co327 O328 2.061 . S
Co327 O333 2.052 . S
Co327 O335 2.135 . S
O328 Co327 2.061 . S
O328 C331 1.235 . S
C329 O332 1.238 . S
C329 O333 1.241 . S
C330 O323 1.247 . S
C330 O324 1.261 . S
C331 O326 1.259 . S
C331 O328 1.235 . S
O332 Co322 2.021 . S
O332 C329 1.238 . S
O333 Co327 2.052 . S
O333 C329 1.241 . S
O334 Co322 2.137 . S
O334 C325 1.247 . S
O335 Co322 2.244 . S
O335 C325 1.272 . S
O335 Co327 2.135 . S
Tb336 N365 2.617 . S
Tb336 N371 2.572 . S
Tb336 O380 2.465 . S
Tb336 O381 2.387 . S
Tb336 O383 2.428 . S
Tb336 O384 2.308 . S
Tb336 O388 2.349 . S
Tb336 O391 2.393 . S
Tb336 C400 2.802 . S
C337 N338 1.379 . S
C337 C340 1.416 . S
C337 C344 1.424 1_556 S
N338 C337 1.379 . S
N338 C341 1.334 . S
N338 Tb347 2.617 1_566 S
C339 C341 1.390 . S
C339 C342 1.339 . S
C339 H359 0.930 . S
C340 C337 1.416 . S
C340 C342 1.416 . S
C340 C346 1.448 . S
C341 N338 1.334 . S
C341 C339 1.390 . S
C341 H352 0.942 . S
C342 C339 1.339 . S
C342 C340 1.416 . S
C342 H363 0.930 . S
C343 C344 1.413 . S
C343 C345 1.393 1_554 S
C343 C349 1.416 . S
C344 C337 1.424 1_554 S
C344 C343 1.413 . S
C344 N348 1.361 . S
C345 C343 1.393 1_556 S
C345 C346 1.386 . S
C345 H360 0.907 1_556 S
C346 C340 1.448 . S
C346 C345 1.386 . S
C346 H361 0.930 . S
Tb347 N338 2.617 1_544 S
Tb347 N348 2.572 1_545 S
Tb347 O382 2.349 1_655 S
Tb347 O385 2.393 1_654 S
Tb347 O386 2.465 . S
Tb347 O387 2.387 1_645 S
Tb347 O389 2.428 1_554 S
Tb347 O390 2.308 1_655 S
Tb347 C411 2.802 . S
N348 C344 1.361 . S
N348 Tb347 2.572 1_565 S
N348 C350 1.340 . S
C349 C343 1.416 . S
C349 C351 1.332 . S
C349 H357 0.931 . S
C350 N348 1.340 . S
C350 C351 1.407 . S
C350 H356 0.930 . S
C351 C349 1.332 . S
C351 C350 1.407 . S
C351 H353 0.929 . S
H352 C341 0.942 . S
H353 C351 0.929 . S
H354 C369 0.930 . S
H355 C376 0.929 1_556 S
H356 C350 0.930 . S
H357 C349 0.931 . S
H358 C372 0.930 . S
H359 C339 0.930 . S
H360 C345 0.907 1_554 S
H361 C346 0.930 . S
H362 C367 0.930 . S
H363 C342 0.930 . S
H364 C375 0.931 . S
N365 Tb336 2.617 . S
N365 C366 1.379 . S
N365 C369 1.334 . S
C366 N365 1.379 . S
C366 C368 1.416 . S
C366 C374 1.424 . S
C367 H362 0.930 . S
C367 C369 1.390 . S
C367 C370 1.339 . S
C368 C366 1.416 . S
C368 C370 1.416 . S
C368 C401 1.448 . S
C369 H354 0.930 . S
C369 N365 1.334 . S
C369 C367 1.390 . S
C370 C367 1.339 . S
C370 C368 1.416 . S
C370 H377 0.930 . S
N371 Tb336 2.572 . S
N371 C372 1.340 . S
N371 C374 1.361 . S
C372 H358 0.930 . S
C372 N371 1.340 . S
C372 C376 1.407 . S
C373 C374 1.413 . S
C373 C375 1.416 . S
C373 C402 1.427 . S
C374 C366 1.424 . S
C374 N371 1.361 . S
C374 C373 1.413 . S
C375 H364 0.931 . S
C375 C373 1.416 . S
C375 C376 1.332 . S
C376 H355 0.929 1_554 S
C376 C372 1.407 . S
C376 C375 1.332 . S
H377 C370 0.930 . S
H378 C401 0.930 . S
H379 C402 0.929 . S
O380 Tb336 2.465 . S
O380 C400 1.264 . S
O381 Tb336 2.387 . S
O381 C392 1.264 . S
O382 Tb347 2.349 1_455 S
O382 C392 1.243 . S
O383 Tb336 2.428 . S
O383 C400 1.256 . S
O384 Tb336 2.308 . S
O384 C399 1.266 1_554 S
O385 Tb347 2.393 1_456 S
O385 C399 1.248 . S
O386 Tb347 2.465 . S
O386 C411 1.264 . S
O387 Tb347 2.387 1_465 S
O387 C403 1.264 . S
O388 Tb336 2.349 . S
O388 C403 1.243 1_545 S
O389 Tb347 2.428 1_556 S
O389 C411 1.256 1_556 S
O390 Tb347 2.308 1_455 S
O390 C410 1.266 . S
O391 Tb336 2.393 . S
O391 C410 1.248 . S
C392 O381 1.264 . S
C392 O382 1.243 . S
C393 C396 1.399 . S
C393 C398 1.383 . S
C393 C400 1.496 . S
C394 C395 1.399 . S
C394 C398 1.389 . S
C395 C394 1.399 . S
C395 C397 1.380 . S
C395 H412 0.929 1_545 S
C396 C393 1.399 . S
C396 C397 1.392 . S
C396 H413 0.929 . S
C397 C395 1.380 . S
C397 C396 1.392 . S
C397 H414 0.929 . S
C398 C393 1.383 . S
C398 C394 1.389 . S
C398 H415 0.931 . S
C399 O384 1.266 1_556 S
C399 O385 1.248 . S
C400 Tb336 2.802 . S
C400 O380 1.264 . S
C400 O383 1.256 . S
C400 C393 1.496 . S
C401 C368 1.448 . S
C401 H378 0.930 . S
C401 C402 1.328 . S
C402 C373 1.427 . S
C402 H379 0.929 . S
C402 C401 1.328 . S
C403 O387 1.264 . S
C403 O388 1.243 1_565 S
C404 C407 1.399 1_554 S
C404 C408 1.383 . S
C404 C411 1.496 . S
C405 C406 1.399 1_554 S
C405 C408 1.389 . S
C406 C405 1.399 1_556 S
C406 C409 1.380 . S
C406 H416 0.929 . S
C407 C404 1.399 1_556 S
C407 C409 1.392 . S
C407 H417 0.929 . S
C408 C404 1.383 . S
C408 C405 1.389 . S
C408 H418 0.931 . S
C409 C406 1.380 . S
C409 C407 1.392 . S
C409 H419 0.929 . S
C410 O390 1.266 . S
C410 O391 1.248 . S
C411 Tb347 2.802 . S
C411 O386 1.264 . S
C411 O389 1.256 1_554 S
C411 C404 1.496 . S
H412 C395 0.929 1_565 S
H413 C396 0.929 . S
H414 C397 0.929 . S
H415 C398 0.931 . S
H416 C406 0.929 . S
H417 C407 0.929 . S
H418 C408 0.931 . S
H419 C409 0.929 . S
Tb420 N449 2.617 . S
Tb420 N455 2.572 . S
Tb420 O464 2.465 . S
Tb420 O465 2.387 . S
Tb420 O467 2.428 . S
Tb420 O468 2.308 . S
Tb420 O472 2.349 . S
Tb420 O475 2.393 . S
Tb420 C484 2.802 . S
C421 N422 1.379 . S
C421 C424 1.416 . S
C421 C428 1.424 . S
N422 C421 1.379 . S
N422 C425 1.334 . S
N422 Tb431 2.617 . S
C423 C425 1.390 . S
C423 C426 1.339 . S
C423 H443 0.930 . S
C424 C421 1.416 . S
C424 C426 1.416 . S
C424 C430 1.448 . S
C425 N422 1.334 . S
C425 C423 1.390 . S
C425 H436 0.930 . S
C426 C423 1.339 . S
C426 C424 1.416 . S
C426 H447 0.930 . S
C427 C428 1.413 . S
C427 C429 1.427 . S
C427 C433 1.416 . S
C428 C421 1.424 . S
C428 C427 1.413 . S
C428 N432 1.361 . S
C429 C427 1.427 . S
C429 C430 1.328 . S
C429 H444 0.929 . S
C430 C424 1.448 . S
C430 C429 1.328 . S
C430 H445 0.930 . S
Tb431 N422 2.617 . S
Tb431 N432 2.572 . S
Tb431 O466 2.349 . S
Tb431 O469 2.393 . S
Tb431 O470 2.465 . S
Tb431 O471 2.387 . S
Tb431 O473 2.428 . S
Tb431 O474 2.308 . S
Tb431 C495 2.802 . S
N432 C428 1.361 . S
N432 Tb431 2.572 . S
N432 C434 1.340 . S
C433 C427 1.416 . S
C433 C435 1.332 . S
C433 H441 0.931 . S
C434 N432 1.340 . S
C434 C435 1.407 . S
C434 H440 0.930 . S
C435 C433 1.332 . S
C435 C434 1.407 . S
C435 H437 0.929 . S
H436 C425 0.930 . S
H437 C435 0.929 . S
H438 C453 0.930 . S
H439 C460 0.929 . S
H440 C434 0.930 . S
H441 C433 0.931 . S
H442 C456 0.930 . S
H443 C423 0.930 . S
H444 C429 0.929 . S
H445 C430 0.930 . S
H446 C451 0.930 . S
H447 C426 0.930 . S
H448 C459 0.931 . S
N449 Tb420 2.617 . S
N449 C450 1.379 . S
N449 C453 1.334 . S
C450 N449 1.379 . S
C450 C452 1.416 . S
C450 C458 1.424 . S
C451 H446 0.930 . S
C451 C453 1.390 . S
C451 C454 1.339 . S
C452 C450 1.416 . S
C452 C454 1.416 . S
C452 C485 1.448 . S
C453 H438 0.930 . S
C453 N449 1.334 . S
C453 C451 1.390 . S
C454 C451 1.339 . S
C454 C452 1.416 . S
C454 H461 0.930 . S
N455 Tb420 2.572 . S
N455 C456 1.340 . S
N455 C458 1.361 . S
C456 H442 0.930 . S
C456 N455 1.340 . S
C456 C460 1.407 . S
C457 C458 1.413 . S
C457 C459 1.416 . S
C457 C486 1.427 . S
C458 C450 1.424 . S
C458 N455 1.361 . S
C458 C457 1.413 . S
C459 H448 0.931 . S
C459 C457 1.416 . S
C459 C460 1.332 . S
C460 H439 0.929 . S
C460 C456 1.407 . S
C460 C459 1.332 . S
H461 C454 0.930 . S
H462 C485 0.930 . S
H463 C486 0.929 . S
O464 Tb420 2.465 . S
O464 C484 1.264 . S
O465 Tb420 2.387 . S
O465 C476 1.264 . S
O466 Tb431 2.349 . S
O466 C476 1.243 . S
O467 Tb420 2.428 . S
O467 C484 1.256 . S
O468 Tb420 2.308 . S
O468 C483 1.266 . S
O469 Tb431 2.393 . S
O469 C483 1.248 . S
O470 Tb431 2.465 . S
O470 C495 1.264 . S
O471 Tb431 2.387 . S
O471 C487 1.264 . S
O472 Tb420 2.349 . S
O472 C487 1.243 . S
O473 Tb431 2.428 . S
O473 C495 1.256 . S
O474 Tb431 2.308 . S
O474 C494 1.266 . S
O475 Tb420 2.393 . S
O475 C494 1.248 . S
C476 O465 1.264 . S
C476 O466 1.243 . S
C477 C480 1.399 . S
C477 C482 1.383 . S
C477 C484 1.496 . S
C478 C479 1.399 . S
C478 C482 1.389 . S
C479 C478 1.399 . S
C479 C481 1.380 . S
C479 H496 0.929 . S
C480 C477 1.399 . S
C480 C481 1.392 . S
C480 H497 0.929 . S
C481 C479 1.380 . S
C481 C480 1.392 . S
C481 H498 0.929 . S
C482 C477 1.383 . S
C482 C478 1.389 . S
C482 H499 0.931 . S
C483 O468 1.266 . S
C483 O469 1.248 . S
C484 Tb420 2.802 . S
C484 O464 1.264 . S
C484 O467 1.256 . S
C484 C477 1.496 . S
C485 C452 1.448 . S
C485 H462 0.930 . S
C485 C486 1.328 . S
C486 C457 1.427 . S
C486 H463 0.929 . S
C486 C485 1.328 . S
C487 O471 1.264 . S
C487 O472 1.243 . S
C488 C491 1.399 . S
C488 C492 1.383 . S
C488 C495 1.496 . S
C489 C490 1.399 . S
C489 C492 1.389 . S
C490 C489 1.399 . S
C490 C493 1.380 . S
C490 H500 0.929 . S
C491 C488 1.399 . S
C491 C493 1.392 . S
C491 H501 0.929 . S
C492 C488 1.383 . S
C492 C489 1.389 . S
C492 H502 0.931 . S
C493 C490 1.380 . S
C493 C491 1.392 . S
C493 H503 0.929 . S
C494 O474 1.266 . S
C494 O475 1.248 . S
C495 Tb431 2.802 . S
C495 O470 1.264 . S
C495 O473 1.256 . S
C495 C488 1.496 . S
H496 C479 0.929 . S
H497 C480 0.929 . S
H498 C481 0.929 . S
H499 C482 0.931 . S
H500 C490 0.929 . S
H501 C491 0.929 . S
H502 C492 0.931 . S
H503 C493 0.929 . S
Tb504 N533 2.617 1_545 S
Tb504 N539 2.572 1_545 S
Tb504 O548 2.465 . S
Tb504 O549 2.387 1_545 S
Tb504 O551 2.428 . S
Tb504 O552 2.308 . S
Tb504 O556 2.349 . S
Tb504 O559 2.393 . S
Tb504 C568 2.802 . S
C505 N506 1.379 . S
C505 C508 1.416 . S
C505 C512 1.424 . S
N506 C505 1.379 . S
N506 C509 1.334 . S
N506 Tb515 2.617 . S
C507 C509 1.390 . S
C507 C510 1.339 . S
C507 H527 0.930 . S
C508 C505 1.416 . S
C508 C510 1.416 . S
C508 C514 1.448 . S
C509 N506 1.334 . S
C509 C507 1.390 . S
C509 H520 0.930 . S
C510 C507 1.339 . S
C510 C508 1.416 . S
C510 H531 0.930 . S
C511 C512 1.413 . S
C511 C513 1.427 . S
C511 C517 1.416 . S
C512 C505 1.424 . S
C512 C511 1.413 . S
C512 N516 1.361 . S
C513 C511 1.427 . S
C513 C514 1.328 . S
C513 H528 0.929 . S
C514 C508 1.448 . S
C514 C513 1.328 . S
C514 H529 0.930 . S
Tb515 N506 2.617 . S
Tb515 N516 2.572 . S
Tb515 O550 2.349 1_545 S
Tb515 O553 2.393 . S
Tb515 O554 2.465 . S
Tb515 O555 2.387 . S
Tb515 O557 2.428 . S
Tb515 O558 2.308 . S
Tb515 C579 2.802 . S
N516 C512 1.361 . S
N516 Tb515 2.572 . S
N516 C518 1.340 . S
C517 C511 1.416 . S
C517 C519 1.332 . S
C517 H525 0.931 . S
C518 N516 1.340 . S
C518 C519 1.407 . S
C518 H524 0.930 . S
C519 C517 1.332 . S
C519 C518 1.407 . S
C519 H521 0.929 . S
H520 C509 0.930 . S
H521 C519 0.929 . S
H522 C537 0.908 1_545 S
H523 C544 0.929 . S
H524 C518 0.930 . S
H525 C517 0.931 . S
H526 C540 0.930 . S
H527 C507 0.930 . S
H528 C513 0.929 . S
H529 C514 0.930 . S
H530 C535 0.930 . S
H531 C510 0.930 . S
H532 C543 0.931 . S
N533 Tb504 2.617 1_565 S
N533 C534 1.379 . S
N533 C537 1.334 . S
C534 N533 1.379 . S
C534 C536 1.416 . S
C534 C542 1.424 . S
C535 H530 0.930 . S
C535 C537 1.413 . S
C535 C538 1.339 . S
C536 C534 1.416 . S
C536 C538 1.416 . S
C536 C569 1.448 . S
C537 H522 0.908 1_565 S
C537 N533 1.334 . S
C537 C535 1.413 . S
C538 C535 1.339 . S
C538 C536 1.416 . S
C538 H545 0.930 . S
N539 Tb504 2.572 1_565 S
N539 C540 1.340 . S
N539 C542 1.361 . S
C540 H526 0.930 . S
C540 N539 1.340 . S
C540 C544 1.407 . S
C541 C542 1.413 . S
C541 C543 1.416 . S
C541 C570 1.427 . S
C542 C534 1.424 . S
C542 N539 1.361 . S
C542 C541 1.413 . S
C543 H532 0.931 . S
C543 C541 1.416 . S
C543 C544 1.332 . S
C544 H523 0.929 . S
C544 C540 1.407 . S
C544 C543 1.332 . S
H545 C538 0.930 . S
H546 C569 0.930 . S
H547 C570 0.929 . S
O548 Tb504 2.465 . S
O548 C568 1.264 . S
O549 Tb504 2.387 1_565 S
O549 C560 1.264 . S
O550 Tb515 2.349 1_565 S
O550 C560 1.243 . S
O551 Tb504 2.428 . S
O551 C568 1.256 . S
O552 Tb504 2.308 . S
O552 C567 1.266 . S
O553 Tb515 2.393 . S
O553 C567 1.248 . S
O554 Tb515 2.465 . S
O554 C579 1.264 . S
O555 Tb515 2.387 . S
O555 C571 1.264 . S
O556 Tb504 2.349 . S
O556 C571 1.243 . S
O557 Tb515 2.428 . S
O557 C579 1.256 . S
O558 Tb515 2.308 . S
O558 C578 1.266 . S
O559 Tb504 2.393 . S
O559 C578 1.248 . S
C560 O549 1.264 . S
C560 O550 1.243 . S
C561 C564 1.399 . S
C561 C566 1.383 . S
C561 C568 1.496 . S
C562 C563 1.399 . S
C562 C566 1.389 . S
C563 C562 1.399 . S
C563 C565 1.380 . S
C563 H580 0.929 . S
C564 C561 1.399 . S
C564 C565 1.392 . S
C564 H581 0.929 . S
C565 C563 1.380 . S
C565 C564 1.392 . S
C565 H582 0.929 . S
C566 C561 1.383 . S
C566 C562 1.389 . S
C566 H583 0.931 . S
C567 O552 1.266 . S
C567 O553 1.248 . S
C568 Tb504 2.802 . S
C568 O548 1.264 . S
C568 O551 1.256 . S
C568 C561 1.496 . S
C569 C536 1.448 . S
C569 H546 0.930 . S
C569 C570 1.328 . S
C570 C541 1.427 . S
C570 H547 0.929 . S
C570 C569 1.328 . S
C571 O555 1.264 . S
C571 O556 1.243 . S
C572 C575 1.399 . S
C572 C576 1.383 . S
C572 C579 1.496 1_565 S
C573 C574 1.399 . S
C573 C576 1.389 . S
C574 C573 1.399 . S
C574 C577 1.380 . S
C574 H584 0.929 . S
C575 C572 1.399 . S
C575 C577 1.392 . S
C575 H585 0.929 . S
C576 C572 1.383 . S
C576 C573 1.389 . S
C576 H586 0.931 . S
C577 C574 1.380 . S
C577 C575 1.392 . S
C577 H587 0.929 . S
C578 O558 1.266 . S
C578 O559 1.248 . S
C579 Tb515 2.802 . S
C579 O554 1.264 . S
C579 O557 1.256 . S
C579 C572 1.496 1_545 S
H580 C563 0.929 . S
H581 C564 0.929 . S
H582 C565 0.929 . S
H583 C566 0.931 . S
H584 C574 0.929 . S
H585 C575 0.929 . S
H586 C576 0.931 . S
H587 C577 0.929 . S
Tb588 N617 2.617 . S
Tb588 N623 2.572 . S
Tb588 O632 2.465 . S
Tb588 O633 2.387 . S
Tb588 O635 2.428 . S
Tb588 O636 2.308 . S
Tb588 O640 2.349 . S
Tb588 O643 2.393 . S
Tb588 C652 2.802 . S
C589 N590 1.379 . S
C589 C592 1.416 . S
C589 C596 1.424 . S
N590 C589 1.379 . S
N590 C593 1.334 . S
N590 Tb599 2.617 . S
C591 C593 1.390 . S
C591 C594 1.339 . S
C591 H611 0.930 . S
C592 C589 1.416 . S
C592 C594 1.416 . S
C592 C598 1.448 . S
C593 N590 1.334 . S
C593 C591 1.390 . S
C593 H604 0.930 . S
C594 C591 1.339 . S
C594 C592 1.416 . S
C594 H615 0.930 . S
C595 C596 1.413 . S
C595 C597 1.427 . S
C595 C601 1.416 . S
C596 C589 1.424 . S
C596 C595 1.413 . S
C596 N600 1.361 . S
C597 C595 1.427 . S
C597 C598 1.328 . S
C597 H612 0.929 . S
C598 C592 1.448 . S
C598 C597 1.328 . S
C598 H613 0.930 . S
Tb599 N590 2.617 . S
Tb599 N600 2.572 . S
Tb599 O634 2.349 . S
Tb599 O637 2.393 . S
Tb599 O638 2.465 . S
Tb599 O639 2.387 . S
Tb599 O641 2.428 . S
Tb599 O642 2.308 . S
Tb599 C663 2.802 . S
N600 C596 1.361 . S
N600 Tb599 2.572 . S
N600 C602 1.340 . S
C601 C595 1.416 . S
C601 C603 1.332 . S
C601 H609 0.931 . S
C602 N600 1.340 . S
C602 C603 1.407 . S
C602 H608 0.930 . S
C603 C601 1.332 . S
C603 C602 1.407 . S
C603 H605 0.929 . S
H604 C593 0.930 . S
H605 C603 0.929 . S
H606 C621 0.930 . S
H607 C628 0.929 . S
H608 C602 0.930 . S
H609 C601 0.931 . S
H610 C624 0.930 . S
H611 C591 0.930 . S
H612 C597 0.929 . S
H613 C598 0.930 . S
H614 C619 0.930 . S
H615 C594 0.930 . S
H616 C627 0.931 . S
N617 Tb588 2.617 . S
N617 C618 1.379 . S
N617 C621 1.334 . S
C618 N617 1.379 . S
C618 C620 1.416 . S
C618 C626 1.424 . S
C619 H614 0.930 . S
C619 C621 1.390 . S
C619 C622 1.339 . S
C620 C618 1.416 . S
C620 C622 1.416 . S
C620 C653 1.448 . S
C621 H606 0.930 . S
C621 N617 1.334 . S
C621 C619 1.390 . S
C622 C619 1.339 . S
C622 C620 1.416 . S
C622 H629 0.930 . S
N623 Tb588 2.572 . S
N623 C624 1.340 . S
N623 C626 1.361 . S
C624 H610 0.930 . S
C624 N623 1.340 . S
C624 C628 1.407 . S
C625 C626 1.413 . S
C625 C627 1.416 . S
C625 C654 1.427 . S
C626 C618 1.424 . S
C626 N623 1.361 . S
C626 C625 1.413 . S
C627 H616 0.931 . S
C627 C625 1.416 . S
C627 C628 1.332 . S
C628 H607 0.929 . S
C628 C624 1.407 . S
C628 C627 1.332 . S
H629 C622 0.930 . S
H630 C653 0.930 . S
H631 C654 0.929 . S
O632 Tb588 2.465 . S
O632 C652 1.264 . S
O633 Tb588 2.387 . S
O633 C644 1.264 . S
O634 Tb599 2.349 . S
O634 C644 1.243 . S
O635 Tb588 2.428 . S
O635 C652 1.256 . S
O636 Tb588 2.308 . S
O636 C651 1.266 . S
O637 Tb599 2.393 . S
O637 C651 1.248 . S
O638 Tb599 2.465 . S
O638 C663 1.264 . S
O639 Tb599 2.387 . S
O639 C655 1.264 . S
O640 Tb588 2.349 . S
O640 C655 1.243 . S
O641 Tb599 2.428 . S
O641 C663 1.256 . S
O642 Tb599 2.308 . S
O642 C662 1.266 . S
O643 Tb588 2.393 . S
O643 C662 1.248 . S
C644 O633 1.264 . S
C644 O634 1.243 . S
C645 C648 1.399 . S
C645 C650 1.383 . S
C645 C652 1.496 . S
C646 C647 1.399 . S
C646 C650 1.389 . S
C647 C646 1.399 . S
C647 C649 1.380 . S
C647 H664 0.929 . S
C648 C645 1.399 . S
C648 C649 1.392 . S
C648 H665 0.929 . S
C649 C647 1.380 . S
C649 C648 1.392 . S
C649 H666 0.929 . S
C650 C645 1.383 . S
C650 C646 1.389 . S
C650 H667 0.931 . S
C651 O636 1.266 . S
C651 O637 1.248 . S
C652 Tb588 2.802 . S
C652 O632 1.264 . S
C652 O635 1.256 . S
C652 C645 1.496 . S
C653 C620 1.448 . S
C653 H630 0.930 . S
C653 C654 1.328 . S
C654 C625 1.427 . S
C654 H631 0.929 . S
C654 C653 1.328 . S
C655 O639 1.264 . S
C655 O640 1.243 . S
C656 C659 1.399 . S
C656 C660 1.383 . S
C656 C663 1.496 . S
C657 C658 1.399 . S
C657 C660 1.389 . S
C658 C657 1.399 . S
C658 C661 1.380 . S
C658 H668 0.929 . S
C659 C656 1.399 . S
C659 C661 1.392 . S
C659 H669 0.929 . S
C660 C656 1.383 . S
C660 C657 1.389 . S
C660 H670 0.931 . S
C661 C658 1.380 . S
C661 C659 1.392 . S
C661 H671 0.929 . S
C662 O642 1.266 . S
C662 O643 1.248 . S
C663 Tb599 2.802 . S
C663 O638 1.264 . S
C663 O641 1.256 . S
C663 C656 1.496 . S
H664 C647 0.929 . S
H665 C648 0.929 . S
H666 C649 0.929 . S
H667 C650 0.931 . S
H668 C658 0.929 . S
H669 C659 0.929 . S
H670 C660 0.931 . S
H671 C661 0.929 . S
Tb672 N701 2.617 . S
Tb672 N707 2.572 . S
Tb672 O716 2.465 . S
Tb672 O717 2.387 1_565 S
Tb672 O719 2.428 . S
Tb672 O720 2.289 1_565 S
Tb672 O724 2.349 1_565 S
Tb672 O727 2.393 1_565 S
Tb672 C736 2.802 . S
C673 N674 1.379 1_455 S
C673 C676 1.416 1_455 S
C673 C680 1.424 . S
N674 C673 1.379 1_655 S
N674 C677 1.334 . S
N674 Tb683 2.617 1_655 S
C675 C677 1.390 . S
C675 C678 1.339 . S
C675 H695 0.930 . S
C676 C673 1.416 1_655 S
C676 C678 1.416 . S
C676 C682 1.448 1_655 S
C677 N674 1.334 . S
C677 C675 1.390 . S
C677 H688 0.930 . S
C678 C675 1.339 . S
C678 C676 1.416 . S
C678 H699 0.930 . S
C679 C680 1.413 . S
C679 C681 1.427 . S
C679 C685 1.416 . S
C680 C673 1.424 . S
C680 C679 1.413 . S
C680 N684 1.361 . S
C681 C679 1.427 . S
C681 C682 1.328 . S
C681 H696 0.929 . S
C682 C676 1.448 1_455 S
C682 C681 1.328 . S
C682 H697 0.919 1_455 S
Tb683 N674 2.617 1_455 S
Tb683 N684 2.572 . S
Tb683 O718 2.349 . S
Tb683 O721 2.393 1_455 S
Tb683 O722 2.465 . S
Tb683 O723 2.387 . S
Tb683 O725 2.428 1_455 S
Tb683 O726 2.308 . S
Tb683 C747 2.802 . S
N684 C680 1.361 . S
N684 Tb683 2.572 . S
N684 C686 1.340 . S
C685 C679 1.416 . S
C685 C687 1.332 . S
C685 H693 0.931 . S
C686 N684 1.340 . S
C686 C687 1.407 . S
C686 H692 0.930 . S
C687 C685 1.332 . S
C687 C686 1.407 . S
C687 H689 0.929 . S
H688 C677 0.930 . S
H689 C687 0.929 . S
H690 C705 0.930 1_545 S
H691 C712 0.929 . S
H692 C686 0.930 . S
H693 C685 0.931 . S
H694 C708 0.894 1_655 S
H695 C675 0.930 . S
H696 C681 0.929 . S
H697 C682 0.919 1_655 S
H698 C703 0.930 . S
H699 C678 0.930 . S
H700 C711 0.952 . S
N701 Tb672 2.617 . S
N701 C702 1.379 . S
N701 C705 1.334 . S
C702 N701 1.379 . S
C702 C704 1.416 . S
C702 C710 1.424 . S
C703 H698 0.930 . S
C703 C705 1.390 . S
C703 C706 1.339 . S
C704 C702 1.416 . S
C704 C706 1.416 . S
C704 C737 1.448 . S
C705 H690 0.930 1_565 S
C705 N701 1.334 . S
C705 C703 1.390 . S
C706 C703 1.339 . S
C706 C704 1.416 . S
C706 H713 0.930 . S
N707 Tb672 2.572 . S
N707 C708 1.395 . S
N707 C710 1.361 . S
C708 H694 0.894 1_455 S
C708 N707 1.395 . S
C708 C712 1.388 1_455 S
C709 C710 1.413 . S
C709 C711 1.362 1_455 S
C709 C738 1.427 . S
C710 C702 1.424 . S
C710 N707 1.361 . S
C710 C709 1.413 . S
C711 H700 0.952 . S
C711 C709 1.362 1_655 S
C711 C712 1.368 . S
C712 H691 0.929 . S
C712 C708 1.388 1_655 S
C712 C711 1.368 . S
H713 C706 0.930 . S
H714 C737 0.930 . S
H715 C738 0.929 . S
O716 Tb672 2.465 . S
O716 C736 1.264 . S
O717 Tb672 2.387 1_545 S
O717 C728 1.264 . S
O718 Tb683 2.349 . S
O718 C728 1.243 . S
O719 Tb672 2.428 . S
O719 C736 1.256 . S
O720 Tb672 2.289 1_545 S
O720 C735 1.299 1_455 S
O721 Tb683 2.393 1_655 S
O721 C735 1.248 . S
O722 Tb683 2.465 . S
O722 C747 1.264 . S
O723 Tb683 2.387 . S
O723 C739 1.264 . S
O724 Tb672 2.349 1_545 S
O724 C739 1.243 . S
O725 Tb683 2.428 1_655 S
O725 C747 1.256 1_655 S
O726 Tb683 2.308 . S
O726 C746 1.266 . S
O727 Tb672 2.393 1_545 S
O727 C746 1.248 . S
C728 O717 1.264 . S
C728 O718 1.243 . S
C729 C732 1.399 . S
C729 C734 1.383 . S
C729 C736 1.496 . S
C730 C731 1.399 . S
C730 C734 1.389 . S
C731 C730 1.399 . S
C731 C733 1.380 . S
C731 H748 0.929 . S
C732 C729 1.399 . S
C732 C733 1.392 . S
C732 H749 0.929 . S
C733 C731 1.380 . S
C733 C732 1.392 . S
C733 H750 0.929 . S
C734 C729 1.383 . S
C734 C730 1.389 . S
C734 H751 0.931 . S
C735 O720 1.299 1_655 S
C735 O721 1.248 . S
C736 Tb672 2.802 . S
C736 O716 1.264 . S
C736 O719 1.256 . S
C736 C729 1.496 . S
C737 C704 1.448 . S
C737 H714 0.930 . S
C737 C738 1.328 . S
C738 C709 1.427 . S
C738 H715 0.929 . S
C738 C737 1.328 . S
C739 O723 1.264 . S
C739 O724 1.243 . S
C740 C743 1.399 1_455 S
C740 C744 1.383 . S
C740 C747 1.496 . S
C741 C742 1.430 . S
C741 C744 1.389 . S
C742 C741 1.430 . S
C742 C745 1.357 1_455 S
C742 H752 0.921 1_455 S
C743 C740 1.399 1_655 S
C743 C745 1.392 . S
C743 H753 0.929 . S
C744 C740 1.383 . S
C744 C741 1.389 . S
C744 H754 0.931 . S
C745 C742 1.357 1_655 S
C745 C743 1.392 . S
C745 H755 0.929 . S
C746 O726 1.266 . S
C746 O727 1.248 . S
C747 Tb683 2.802 . S
C747 O722 1.264 . S
C747 O725 1.256 1_455 S
C747 C740 1.496 . S
H748 C731 0.929 . S
H749 C732 0.929 . S
H750 C733 0.929 . S
H751 C734 0.931 . S
H752 C742 0.921 1_655 S
H753 C743 0.929 . S
H754 C744 0.931 . S
H755 C745 0.929 . S
Tb756 N785 2.617 . S
Tb756 N791 2.572 . S
Tb756 O800 2.465 . S
Tb756 O801 2.387 . S
Tb756 O803 2.428 . S
Tb756 O804 2.308 . S
Tb756 O808 2.349 . S
Tb756 O811 2.393 . S
Tb756 C820 2.802 . S
C757 N758 1.379 . S
C757 C760 1.416 . S
C757 C764 1.424 . S
N758 C757 1.379 . S
N758 C761 1.334 . S
N758 Tb767 2.617 . S
C759 C761 1.390 . S
C759 C762 1.339 . S
C759 H779 0.930 . S
C760 C757 1.416 . S
C760 C762 1.416 . S
C760 C766 1.448 . S
C761 N758 1.334 . S
C761 C759 1.390 . S
C761 H772 0.930 . S
C762 C759 1.339 . S
C762 C760 1.416 . S
C762 H783 0.930 . S
C763 C764 1.413 . S
C763 C765 1.427 . S
C763 C769 1.416 . S
C764 C757 1.424 . S
C764 C763 1.413 . S
C764 N768 1.361 . S
C765 C763 1.427 . S
C765 C766 1.328 . S
C765 H780 0.929 . S
C766 C760 1.448 . S
C766 C765 1.328 . S
C766 H781 0.930 . S
Tb767 N758 2.617 . S
Tb767 N768 2.572 . S
Tb767 O802 2.349 . S
Tb767 O805 2.393 . S
Tb767 O806 2.465 . S
Tb767 O807 2.387 . S
Tb767 O809 2.428 . S
Tb767 O810 2.308 . S
Tb767 C831 2.802 . S
N768 C764 1.361 . S
N768 Tb767 2.572 . S
N768 C770 1.340 . S
C769 C763 1.416 . S
C769 C771 1.332 . S
C769 H777 0.931 . S
C770 N768 1.340 . S
C770 C771 1.407 . S
C770 H776 0.930 . S
C771 C769 1.332 . S
C771 C770 1.407 . S
C771 H773 0.929 . S
H772 C761 0.930 . S
H773 C771 0.929 . S
H774 C789 0.930 . S
H775 C796 0.929 . S
H776 C770 0.930 . S
H777 C769 0.931 . S
H778 C792 0.930 . S
H779 C759 0.930 . S
H780 C765 0.929 . S
H781 C766 0.930 . S
H782 C787 0.930 . S
H783 C762 0.930 . S
H784 C795 0.931 . S
N785 Tb756 2.617 . S
N785 C786 1.379 . S
N785 C789 1.334 . S
C786 N785 1.379 . S
C786 C788 1.416 . S
C786 C794 1.424 . S
C787 H782 0.930 . S
C787 C789 1.390 . S
C787 C790 1.339 . S
C788 C786 1.416 . S
C788 C790 1.416 . S
C788 C821 1.448 . S
C789 H774 0.930 . S
C789 N785 1.334 . S
C789 C787 1.390 . S
C790 C787 1.339 . S
C790 C788 1.416 . S
C790 H797 0.930 . S
N791 Tb756 2.572 . S
N791 C792 1.340 . S
N791 C794 1.361 . S
C792 H778 0.930 . S
C792 N791 1.340 . S
C792 C796 1.407 . S
C793 C794 1.413 . S
C793 C795 1.416 . S
C793 C822 1.427 . S
C794 C786 1.424 . S
C794 N791 1.361 . S
C794 C793 1.413 . S
C795 H784 0.931 . S
C795 C793 1.416 . S
C795 C796 1.332 . S
C796 H775 0.929 . S
C796 C792 1.407 . S
C796 C795 1.332 . S
H797 C790 0.930 . S
H798 C821 0.930 . S
H799 C822 0.929 . S
O800 Tb756 2.465 . S
O800 C820 1.264 . S
O801 Tb756 2.387 . S
O801 C812 1.264 . S
O802 Tb767 2.349 . S
O802 C812 1.243 . S
O803 Tb756 2.428 . S
O803 C820 1.256 . S
O804 Tb756 2.308 . S
O804 C819 1.266 . S
O805 Tb767 2.393 . S
O805 C819 1.248 . S
O806 Tb767 2.465 . S
O806 C831 1.264 . S
O807 Tb767 2.387 . S
O807 C823 1.264 . S
O808 Tb756 2.349 . S
O808 C823 1.243 . S
O809 Tb767 2.428 . S
O809 C831 1.256 . S
O810 Tb767 2.308 . S
O810 C830 1.266 . S
O811 Tb756 2.393 . S
O811 C830 1.248 . S
C812 O801 1.264 . S
C812 O802 1.243 . S
C813 C816 1.399 . S
C813 C818 1.383 . S
C813 C820 1.496 . S
C814 C815 1.399 . S
C814 C818 1.389 . S
C815 C814 1.399 . S
C815 C817 1.380 . S
C815 H832 0.929 . S
C816 C813 1.399 . S
C816 C817 1.392 . S
C816 H833 0.929 . S
C817 C815 1.380 . S
C817 C816 1.392 . S
C817 H834 0.929 . S
C818 C813 1.383 . S
C818 C814 1.389 . S
C818 H835 0.931 . S
C819 O804 1.266 . S
C819 O805 1.248 . S
C820 Tb756 2.802 . S
C820 O800 1.264 . S
C820 O803 1.256 . S
C820 C813 1.496 . S
C821 C788 1.448 . S
C821 H798 0.930 . S
C821 C822 1.328 . S
C822 C793 1.427 . S
C822 H799 0.929 . S
C822 C821 1.328 . S
C823 O807 1.264 . S
C823 O808 1.243 . S
C824 C827 1.399 . S
C824 C828 1.383 . S
C824 C831 1.496 . S
C825 C826 1.399 . S
C825 C828 1.389 . S
C826 C825 1.399 . S
C826 C829 1.380 . S
C826 H836 0.929 . S
C827 C824 1.399 . S
C827 C829 1.392 . S
C827 H837 0.929 . S
C828 C824 1.383 . S
C828 C825 1.389 . S
C828 H838 0.931 . S
C829 C826 1.380 . S
C829 C827 1.392 . S
C829 H839 0.929 . S
C830 O810 1.266 . S
C830 O811 1.248 . S
C831 Tb767 2.802 . S
C831 O806 1.264 . S
C831 O809 1.256 . S
C831 C824 1.496 . S
H832 C815 0.929 . S
H833 C816 0.929 . S
H834 C817 0.929 . S
H835 C818 0.931 . S
H836 C826 0.929 . S
H837 C827 0.929 . S
H838 C828 0.931 . S
H839 C829 0.929 . S
Tb840 N869 2.617 . S
Tb840 N875 2.572 . S
Tb840 O884 2.465 . S
Tb840 O885 2.387 1_556 S
Tb840 O887 2.428 . S
Tb840 O888 2.314 . S
Tb840 O892 2.349 1_556 S
Tb840 O895 2.393 1_556 S
Tb840 C904 2.802 . S
C841 N842 1.394 . S
C841 C844 1.461 . S
C841 C848 1.366 1_565 S
N842 C841 1.394 . S
N842 C845 1.334 . S
N842 Tb851 2.617 1_565 S
C843 C845 1.390 . S
C843 C846 1.339 . S
C843 H863 0.930 . S
C844 C841 1.461 . S
C844 C846 1.416 . S
C844 C850 1.448 . S
C845 N842 1.334 . S
C845 C843 1.390 . S
C845 H856 0.930 . S
C846 C843 1.339 . S
C846 C844 1.416 . S
C846 H867 0.930 . S
C847 C848 1.413 . S
C847 C849 1.427 . S
C847 C853 1.416 . S
C848 C841 1.366 1_545 S
C848 C847 1.413 . S
C848 N852 1.361 . S
C849 C847 1.427 . S
C849 C850 1.328 1_545 S
C849 H864 0.929 . S
C850 C844 1.448 . S
C850 C849 1.328 1_565 S
C850 H865 0.930 . S
Tb851 N842 2.617 1_545 S
Tb851 N852 2.572 . S
Tb851 O886 2.349 . S
Tb851 O889 2.393 1_545 S
Tb851 O890 2.465 . S
Tb851 O891 2.387 . S
Tb851 O893 2.428 1_545 S
Tb851 O894 2.308 . S
Tb851 C915 2.802 . S
N852 C848 1.361 . S
N852 Tb851 2.572 . S
N852 C854 1.340 . S
C853 C847 1.416 . S
C853 C855 1.332 . S
C853 H861 0.931 . S
C854 N852 1.340 . S
C854 C855 1.407 . S
C854 H860 0.930 . S
C855 C853 1.332 . S
C855 C854 1.407 . S
C855 H857 0.929 . S
H856 C845 0.930 . S
H857 C855 0.929 . S
H858 C873 0.930 1_554 S
H859 C880 0.929 . S
H860 C854 0.930 . S
H861 C853 0.931 . S
H862 C876 0.911 1_565 S
H863 C843 0.930 . S
H864 C849 0.929 . S
H865 C850 0.930 . S
H866 C871 0.930 . S
H867 C846 0.930 . S
H868 C879 0.917 1_565 S
N869 Tb840 2.617 . S
N869 C870 1.379 . S
N869 C873 1.334 . S
C870 N869 1.379 . S
C870 C872 1.416 . S
C870 C878 1.424 . S
C871 H866 0.930 . S
C871 C873 1.390 . S
C871 C874 1.339 . S
C872 C870 1.416 . S
C872 C874 1.416 . S
C872 C905 1.448 . S
C873 H858 0.930 1_556 S
C873 N869 1.334 . S
C873 C871 1.390 . S
C874 C871 1.339 . S
C874 C872 1.416 . S
C874 H881 0.930 . S
N875 Tb840 2.572 . S
N875 C876 1.340 . S
N875 C878 1.361 . S
C876 H862 0.911 1_545 S
C876 N875 1.340 . S
C876 C880 1.407 1_545 S
C877 C878 1.413 . S
C877 C879 1.416 . S
C877 C906 1.427 . S
C878 C870 1.424 . S
C878 N875 1.361 . S
C878 C877 1.413 . S
C879 H868 0.917 1_545 S
C879 C877 1.416 . S
C879 C880 1.332 1_545 S
C880 H859 0.929 . S
C880 C876 1.407 1_565 S
C880 C879 1.332 1_565 S
H881 C874 0.930 . S
H882 C905 0.930 . S
H883 C906 0.929 . S
O884 Tb840 2.465 . S
O884 C904 1.264 . S
O885 Tb840 2.387 1_554 S
O885 C896 1.264 . S
O886 Tb851 2.349 . S
O886 C896 1.243 . S
O887 Tb840 2.428 . S
O887 C904 1.256 . S
O888 Tb840 2.314 . S
O888 C903 1.254 1_546 S
O889 Tb851 2.393 1_565 S
O889 C903 1.248 . S
O890 Tb851 2.465 . S
O890 C915 1.264 . S
O891 Tb851 2.387 . S
O891 C907 1.264 . S
O892 Tb840 2.349 1_554 S
O892 C907 1.243 . S
O893 Tb851 2.428 1_565 S
O893 C915 1.256 1_565 S
O894 Tb851 2.308 . S
O894 C914 1.266 . S
O895 Tb840 2.393 1_554 S
O895 C914 1.248 . S
C896 O885 1.264 . S
C896 O886 1.243 . S
C897 C900 1.399 . S
C897 C902 1.383 . S
C897 C904 1.496 . S
C898 C899 1.399 . S
C898 C902 1.389 . S
C899 C898 1.399 . S
C899 C901 1.380 . S
C899 H916 0.929 . S
C900 C897 1.399 . S
C900 C901 1.392 . S
C900 H917 0.929 . S
C901 C899 1.380 . S
C901 C900 1.392 . S
C901 H918 0.929 . S
C902 C897 1.383 . S
C902 C898 1.389 . S
C902 H919 0.931 . S
C903 O888 1.254 1_564 S
C903 O889 1.248 . S
C904 Tb840 2.802 . S
C904 O884 1.264 . S
C904 O887 1.256 . S
C904 C897 1.496 . S
C905 C872 1.448 . S
C905 H882 0.930 . S
C905 C906 1.328 . S
C906 C877 1.427 . S
C906 H883 0.929 . S
C906 C905 1.328 . S
C907 O891 1.264 . S
C907 O892 1.243 . S
C908 C911 1.399 . S
C908 C912 1.383 1_565 S
C908 C915 1.496 1_565 S
C909 C910 1.399 1_545 S
C909 C912 1.389 . S
C910 C909 1.399 1_565 S
C910 C913 1.380 . S
C910 H920 0.929 . S
C911 C908 1.399 . S
C911 C913 1.392 . S
C911 H921 0.929 . S
C912 C908 1.383 1_545 S
C912 C909 1.389 . S
C912 H922 0.931 . S
C913 C910 1.380 . S
C913 C911 1.392 . S
C913 H923 0.929 . S
C914 O894 1.266 . S
C914 O895 1.248 . S
C915 Tb851 2.802 . S
C915 O890 1.264 . S
C915 O893 1.256 1_545 S
C915 C908 1.496 1_545 S
H916 C899 0.929 . S
H917 C900 0.929 . S
H918 C901 0.929 . S
H919 C902 0.931 . S
H920 C910 0.929 . S
H921 C911 0.929 . S
H922 C912 0.931 . S
H923 C913 0.929 . S
Tb924 N953 2.617 . S
Tb924 N959 2.572 . S
Tb924 O968 2.465 . S
Tb924 O969 2.387 . S
Tb924 O971 2.428 . S
Tb924 O972 2.308 . S
Tb924 O976 2.349 . S
Tb924 O979 2.393 . S
Tb924 C988 2.802 . S
C925 N926 1.379 . S
C925 C928 1.416 . S
C925 C932 1.424 . S
N926 C925 1.379 . S
N926 C929 1.334 . S
N926 Tb935 2.617 . S
C927 C929 1.390 . S
C927 C930 1.339 . S
C927 H947 0.930 . S
C928 C925 1.416 . S
C928 C930 1.416 . S
C928 C934 1.448 . S
C929 N926 1.334 . S
C929 C927 1.390 . S
C929 H940 0.930 . S
C930 C927 1.339 . S
C930 C928 1.416 . S
C930 H951 0.930 . S
C931 C932 1.413 . S
C931 C933 1.427 . S
C931 C937 1.416 . S
C932 C925 1.424 . S
C932 C931 1.413 . S
C932 N936 1.361 . S
C933 C931 1.427 . S
C933 C934 1.328 . S
C933 H948 0.929 . S
C934 C928 1.448 . S
C934 C933 1.328 . S
C934 H949 0.930 . S
Tb935 N926 2.617 . S
Tb935 N936 2.572 . S
Tb935 O970 2.349 . S
Tb935 O973 2.393 . S
Tb935 O974 2.465 . S
Tb935 O975 2.387 . S
Tb935 O977 2.428 . S
Tb935 O978 2.308 . S
Tb935 C999 2.802 . S
N936 C932 1.361 . S
N936 Tb935 2.572 . S
N936 C938 1.340 . S
C937 C931 1.416 . S
C937 C939 1.332 . S
C937 H945 0.931 . S
C938 N936 1.340 . S
C938 C939 1.407 . S
C938 H944 0.930 . S
C939 C937 1.332 . S
C939 C938 1.407 . S
C939 H941 0.929 . S
H940 C929 0.930 . S
H941 C939 0.929 . S
H942 C957 0.930 . S
H943 C964 0.929 . S
H944 C938 0.930 . S
H945 C937 0.931 . S
H946 C960 0.930 . S
H947 C927 0.930 . S
H948 C933 0.929 . S
H949 C934 0.930 . S
H950 C955 0.930 . S
H951 C930 0.930 . S
H952 C963 0.931 . S
N953 Tb924 2.617 . S
N953 C954 1.379 . S
N953 C957 1.334 . S
C954 N953 1.379 . S
C954 C956 1.416 . S
C954 C962 1.424 . S
C955 H950 0.930 . S
C955 C957 1.390 . S
C955 C958 1.339 . S
C956 C954 1.416 . S
C956 C958 1.416 . S
C956 C989 1.448 . S
C957 H942 0.930 . S
C957 N953 1.334 . S
C957 C955 1.390 . S
C958 C955 1.339 . S
C958 C956 1.416 . S
C958 H965 0.930 . S
N959 Tb924 2.572 . S
N959 C960 1.340 . S
N959 C962 1.361 . S
C960 H946 0.930 . S
C960 N959 1.340 . S
C960 C964 1.407 . S
C961 C962 1.413 . S
C961 C963 1.416 . S
C961 C990 1.427 . S
C962 C954 1.424 . S
C962 N959 1.361 . S
C962 C961 1.413 . S
C963 H952 0.931 . S
C963 C961 1.416 . S
C963 C964 1.332 . S
C964 H943 0.929 . S
C964 C960 1.407 . S
C964 C963 1.332 . S
H965 C958 0.930 . S
H966 C989 0.930 . S
H967 C990 0.929 . S
O968 Tb924 2.465 . S
O968 C988 1.264 . S
O969 Tb924 2.387 . S
O969 C980 1.264 . S
O970 Tb935 2.349 . S
O970 C980 1.243 . S
O971 Tb924 2.428 . S
O971 C988 1.256 . S
O972 Tb924 2.308 . S
O972 C987 1.266 . S
O973 Tb935 2.393 . S
O973 C987 1.248 . S
O974 Tb935 2.465 . S
O974 C999 1.264 . S
O975 Tb935 2.387 . S
O975 C991 1.264 . S
O976 Tb924 2.349 . S
O976 C991 1.243 . S
O977 Tb935 2.428 . S
O977 C999 1.256 . S
O978 Tb935 2.308 . S
O978 C998 1.266 . S
O979 Tb924 2.393 . S
O979 C998 1.248 . S
C980 O969 1.264 . S
C980 O970 1.243 . S
C981 C984 1.399 . S
C981 C986 1.383 . S
C981 C988 1.496 . S
C982 C983 1.399 . S
C982 C986 1.389 . S
C983 C982 1.399 . S
C983 C985 1.380 . S
C983 H1000 0.929 . S
C984 C981 1.399 . S
C984 C985 1.392 . S
C984 H1001 0.929 . S
C985 C983 1.380 . S
C985 C984 1.392 . S
C985 H1002 0.929 . S
C986 C981 1.383 . S
C986 C982 1.389 . S
C986 H1003 0.931 . S
C987 O972 1.266 . S
C987 O973 1.248 . S
C988 Tb924 2.802 . S
C988 O968 1.264 . S
C988 O971 1.256 . S
C988 C981 1.496 . S
C989 C956 1.448 . S
C989 H966 0.930 . S
C989 C990 1.328 . S
C990 C961 1.427 . S
C990 H967 0.929 . S
C990 C989 1.328 . S
C991 O975 1.264 . S
C991 O976 1.243 . S
C992 C995 1.399 . S
C992 C996 1.383 . S
C992 C999 1.496 . S
C993 C994 1.399 . S
C993 C996 1.389 . S
C994 C993 1.399 . S
C994 C997 1.380 . S
C994 H1004 0.929 . S
C995 C992 1.399 . S
C995 C997 1.392 . S
C995 H1005 0.929 . S
C996 C992 1.383 . S
C996 C993 1.389 . S
C996 H1006 0.931 . S
C997 C994 1.380 . S
C997 C995 1.392 . S
C997 H1007 0.929 . S
C998 O978 1.266 . S
C998 O979 1.248 . S
C999 Tb935 2.802 . S
C999 O974 1.264 . S
C999 O977 1.256 . S
C999 C992 1.496 . S
H1000 C983 0.929 . S
H1001 C984 0.929 . S
H1002 C985 0.929 . S
H1003 C986 0.931 . S
H1004 C994 0.929 . S
H1005 C995 0.929 . S
H1006 C996 0.931 . S
H1007 C997 0.929 . S
Tb1008 N1037 2.617 1_554 S
Tb1008 N1043 2.572 1_554 S
Tb1008 O1052 2.465 . S
Tb1008 O1053 2.387 1_554 S
Tb1008 O1055 2.428 . S
Tb1008 O1056 2.308 . S
Tb1008 O1060 2.349 . S
Tb1008 O1063 2.393 . S
Tb1008 C1072 2.802 . S
C1009 N1010 1.379 . S
C1009 C1012 1.416 . S
C1009 C1016 1.424 . S
N1010 C1009 1.379 . S
N1010 C1013 1.334 . S
N1010 Tb1019 2.617 . S
C1011 C1013 1.390 . S
C1011 C1014 1.339 . S
C1011 H1031 0.930 . S
C1012 C1009 1.416 . S
C1012 C1014 1.416 . S
C1012 C1018 1.448 . S
C1013 N1010 1.334 . S
C1013 C1011 1.390 . S
C1013 H1024 0.930 . S
C1014 C1011 1.339 . S
C1014 C1012 1.416 . S
C1014 H1035 0.930 . S
C1015 C1016 1.413 . S
C1015 C1017 1.427 . S
C1015 C1021 1.416 . S
C1016 C1009 1.424 . S
C1016 C1015 1.413 . S
C1016 N1020 1.361 . S
C1017 C1015 1.427 . S
C1017 C1018 1.328 . S
C1017 H1032 0.929 . S
C1018 C1012 1.448 . S
C1018 C1017 1.328 . S
C1018 H1033 0.930 . S
Tb1019 N1010 2.617 . S
Tb1019 N1020 2.572 . S
Tb1019 O1054 2.349 1_554 S
Tb1019 O1057 2.393 . S
Tb1019 O1058 2.465 . S
Tb1019 O1059 2.387 . S
Tb1019 O1061 2.428 . S
Tb1019 O1062 2.308 . S
Tb1019 C1083 2.802 . S
N1020 C1016 1.361 . S
N1020 Tb1019 2.572 . S
N1020 C1022 1.340 . S
C1021 C1015 1.416 . S
C1021 C1023 1.332 . S
C1021 H1029 0.931 . S
C1022 N1020 1.340 . S
C1022 C1023 1.407 . S
C1022 H1028 0.930 . S
C1023 C1021 1.332 . S
C1023 C1022 1.407 . S
C1023 H1025 0.929 . S
H1024 C1013 0.930 . S
H1025 C1023 0.929 . S
H1026 C1041 0.930 1_554 S
H1027 C1048 0.929 . S
H1028 C1022 0.930 . S
H1029 C1021 0.931 . S
H1030 C1044 0.930 1_554 S
H1031 C1011 0.930 . S
H1032 C1017 0.929 . S
H1033 C1018 0.930 . S
H1034 C1039 0.930 . S
H1035 C1014 0.930 . S
H1036 C1047 0.931 . S
N1037 Tb1008 2.617 1_556 S
N1037 C1038 1.379 . S
N1037 C1041 1.334 . S
C1038 N1037 1.379 . S
C1038 C1040 1.416 . S
C1038 C1046 1.424 . S
C1039 H1034 0.930 . S
C1039 C1041 1.390 . S
C1039 C1042 1.339 . S
C1040 C1038 1.416 . S
C1040 C1042 1.416 . S
C1040 C1073 1.448 . S
C1041 H1026 0.930 1_556 S
C1041 N1037 1.334 . S
C1041 C1039 1.390 . S
C1042 C1039 1.339 . S
C1042 C1040 1.416 . S
C1042 H1049 0.930 . S
N1043 Tb1008 2.572 1_556 S
N1043 C1044 1.340 . S
N1043 C1046 1.361 . S
C1044 H1030 0.930 1_556 S
C1044 N1043 1.340 . S
C1044 C1048 1.407 . S
C1045 C1046 1.413 . S
C1045 C1047 1.416 . S
C1045 C1074 1.427 . S
C1046 C1038 1.424 . S
C1046 N1043 1.361 . S
C1046 C1045 1.413 . S
C1047 H1036 0.931 . S
C1047 C1045 1.416 . S
C1047 C1048 1.332 . S
C1048 H1027 0.929 . S
C1048 C1044 1.407 . S
C1048 C1047 1.332 . S
H1049 C1042 0.930 . S
H1050 C1073 0.930 . S
H1051 C1074 0.929 . S
O1052 Tb1008 2.465 . S
O1052 C1072 1.264 . S
O1053 Tb1008 2.387 1_556 S
O1053 C1064 1.264 . S
O1054 Tb1019 2.349 1_556 S
O1054 C1064 1.243 . S
O1055 Tb1008 2.428 . S
O1055 C1072 1.256 . S
O1056 Tb1008 2.308 . S
O1056 C1071 1.266 . S
O1057 Tb1019 2.393 . S
O1057 C1071 1.248 . S
O1058 Tb1019 2.465 . S
O1058 C1083 1.264 . S
O1059 Tb1019 2.387 . S
O1059 C1075 1.264 . S
O1060 Tb1008 2.349 . S
O1060 C1075 1.243 . S
O1061 Tb1019 2.428 . S
O1061 C1083 1.256 . S
O1062 Tb1019 2.308 . S
O1062 C1082 1.266 . S
O1063 Tb1008 2.393 . S
O1063 C1082 1.248 . S
C1064 O1053 1.264 . S
C1064 O1054 1.243 . S
C1065 C1068 1.399 . S
C1065 C1070 1.383 . S
C1065 C1072 1.496 . S
C1066 C1067 1.399 . S
C1066 C1070 1.389 . S
C1067 C1066 1.399 . S
C1067 C1069 1.380 . S
C1067 H1084 0.929 . S
C1068 C1065 1.399 . S
C1068 C1069 1.392 . S
C1068 H1085 0.929 . S
C1069 C1067 1.380 . S
C1069 C1068 1.392 . S
C1069 H1086 0.929 . S
C1070 C1065 1.383 . S
C1070 C1066 1.389 . S
C1070 H1087 0.931 . S
C1071 O1056 1.266 . S
C1071 O1057 1.248 . S
C1072 Tb1008 2.802 . S
C1072 O1052 1.264 . S
C1072 O1055 1.256 . S
C1072 C1065 1.496 . S
C1073 C1040 1.448 . S
C1073 H1050 0.930 . S
C1073 C1074 1.328 . S
C1074 C1045 1.427 . S
C1074 H1051 0.929 . S
C1074 C1073 1.328 . S
C1075 O1059 1.264 . S
C1075 O1060 1.243 . S
C1076 C1079 1.399 . S
C1076 C1080 1.383 . S
C1076 C1083 1.496 1_556 S
C1077 C1078 1.399 . S
C1077 C1080 1.389 . S
C1078 C1077 1.399 . S
C1078 C1081 1.380 . S
C1078 H1088 0.929 . S
C1079 C1076 1.399 . S
C1079 C1081 1.392 . S
C1079 H1089 0.945 . S
C1080 C1076 1.383 . S
C1080 C1077 1.389 . S
C1080 H1090 0.931 . S
C1081 C1078 1.380 . S
C1081 C1079 1.392 . S
C1081 H1091 0.929 . S
C1082 O1062 1.266 . S
C1082 O1063 1.248 . S
C1083 Tb1019 2.802 . S
C1083 O1058 1.264 . S
C1083 O1061 1.256 . S
C1083 C1076 1.496 1_554 S
H1084 C1067 0.929 . S
H1085 C1068 0.929 . S
H1086 C1069 0.929 . S
H1087 C1070 0.931 . S
H1088 C1078 0.929 . S
H1089 C1079 0.945 . S
H1090 C1080 0.931 . S
H1091 C1081 0.929 . S
Tb1092 N1121 2.617 . S
Tb1092 N1127 2.572 . S
Tb1092 O1136 2.465 . S
Tb1092 O1137 2.387 . S
Tb1092 O1139 2.428 . S
Tb1092 O1140 2.308 . S
Tb1092 O1144 2.349 . S
Tb1092 O1147 2.393 . S
Tb1092 C1156 2.802 . S
C1093 N1094 1.379 . S
C1093 C1096 1.416 . S
C1093 C1100 1.424 . S
N1094 C1093 1.379 . S
N1094 C1097 1.334 . S
N1094 Tb1103 2.617 . S
C1095 C1097 1.390 . S
C1095 C1098 1.339 . S
C1095 H1115 0.930 . S
C1096 C1093 1.416 . S
C1096 C1098 1.416 . S
C1096 C1102 1.448 . S
C1097 N1094 1.334 . S
C1097 C1095 1.390 . S
C1097 H1108 0.930 . S
C1098 C1095 1.339 . S
C1098 C1096 1.416 . S
C1098 H1119 0.930 . S
C1099 C1100 1.413 . S
C1099 C1101 1.427 . S
C1099 C1105 1.416 . S
C1100 C1093 1.424 . S
C1100 C1099 1.413 . S
C1100 N1104 1.361 . S
C1101 C1099 1.427 . S
C1101 C1102 1.328 . S
C1101 H1116 0.929 . S
C1102 C1096 1.448 . S
C1102 C1101 1.328 . S
C1102 H1117 0.930 . S
Tb1103 N1094 2.617 . S
Tb1103 N1104 2.572 . S
Tb1103 O1138 2.349 . S
Tb1103 O1141 2.393 . S
Tb1103 O1142 2.465 . S
Tb1103 O1143 2.387 . S
Tb1103 O1145 2.428 . S
Tb1103 O1146 2.308 . S
Tb1103 C1167 2.802 . S
N1104 C1100 1.361 . S
N1104 Tb1103 2.572 . S
N1104 C1106 1.340 . S
C1105 C1099 1.416 . S
C1105 C1107 1.332 . S
C1105 H1113 0.931 . S
C1106 N1104 1.340 . S
C1106 C1107 1.407 . S
C1106 H1112 0.930 . S
C1107 C1105 1.332 . S
C1107 C1106 1.407 . S
C1107 H1109 0.929 . S
H1108 C1097 0.930 . S
H1109 C1107 0.929 . S
H1110 C1125 0.930 . S
H1111 C1132 0.929 . S
H1112 C1106 0.930 . S
H1113 C1105 0.931 . S
H1114 C1128 0.930 . S
H1115 C1095 0.930 . S
H1116 C1101 0.929 . S
H1117 C1102 0.930 . S
H1118 C1123 0.930 . S
H1119 C1098 0.930 . S
H1120 C1131 0.931 . S
N1121 Tb1092 2.617 . S
N1121 C1122 1.379 . S
N1121 C1125 1.334 . S
C1122 N1121 1.379 . S
C1122 C1124 1.416 . S
C1122 C1130 1.424 . S
C1123 H1118 0.930 . S
C1123 C1125 1.390 . S
C1123 C1126 1.339 . S
C1124 C1122 1.416 . S
C1124 C1126 1.416 . S
C1124 C1157 1.448 . S
C1125 H1110 0.930 . S
C1125 N1121 1.334 . S
C1125 C1123 1.390 . S
C1126 C1123 1.339 . S
C1126 C1124 1.416 . S
C1126 H1133 0.930 . S
N1127 Tb1092 2.572 . S
N1127 C1128 1.340 . S
N1127 C1130 1.361 . S
C1128 H1114 0.930 . S
C1128 N1127 1.340 . S
C1128 C1132 1.407 . S
C1129 C1130 1.413 . S
C1129 C1131 1.416 . S
C1129 C1158 1.427 . S
C1130 C1122 1.424 . S
C1130 N1127 1.361 . S
C1130 C1129 1.413 . S
C1131 H1120 0.931 . S
C1131 C1129 1.416 . S
C1131 C1132 1.332 . S
C1132 H1111 0.929 . S
C1132 C1128 1.407 . S
C1132 C1131 1.332 . S
H1133 C1126 0.930 . S
H1134 C1157 0.930 . S
H1135 C1158 0.929 . S
O1136 Tb1092 2.465 . S
O1136 C1156 1.264 . S
O1137 Tb1092 2.387 . S
O1137 C1148 1.264 . S
O1138 Tb1103 2.349 . S
O1138 C1148 1.243 . S
O1139 Tb1092 2.428 . S
O1139 C1156 1.256 . S
O1140 Tb1092 2.308 . S
O1140 C1155 1.266 . S
O1141 Tb1103 2.393 . S
O1141 C1155 1.248 . S
O1142 Tb1103 2.465 . S
O1142 C1167 1.264 . S
O1143 Tb1103 2.387 . S
O1143 C1159 1.264 . S
O1144 Tb1092 2.349 . S
O1144 C1159 1.243 . S
O1145 Tb1103 2.428 . S
O1145 C1167 1.256 . S
O1146 Tb1103 2.308 . S
O1146 C1166 1.266 . S
O1147 Tb1092 2.393 . S
O1147 C1166 1.248 . S
C1148 O1137 1.264 . S
C1148 O1138 1.243 . S
C1149 C1152 1.399 . S
C1149 C1154 1.383 . S
C1149 C1156 1.496 . S
C1150 C1151 1.399 . S
C1150 C1154 1.389 . S
C1151 C1150 1.399 . S
C1151 C1153 1.380 . S
C1151 H1168 0.929 . S
C1152 C1149 1.399 . S
C1152 C1153 1.392 . S
C1152 H1169 0.929 . S
C1153 C1151 1.380 . S
C1153 C1152 1.392 . S
C1153 H1170 0.929 . S
C1154 C1149 1.383 . S
C1154 C1150 1.389 . S
C1154 H1171 0.931 . S
C1155 O1140 1.266 . S
C1155 O1141 1.248 . S
C1156 Tb1092 2.802 . S
C1156 O1136 1.264 . S
C1156 O1139 1.256 . S
C1156 C1149 1.496 . S
C1157 C1124 1.448 . S
C1157 H1134 0.930 . S
C1157 C1158 1.328 . S
C1158 C1129 1.427 . S
C1158 H1135 0.929 . S
C1158 C1157 1.328 . S
C1159 O1143 1.264 . S
C1159 O1144 1.243 . S
C1160 C1163 1.399 . S
C1160 C1164 1.383 . S
C1160 C1167 1.496 . S
C1161 C1162 1.399 . S
C1161 C1164 1.389 . S
C1162 C1161 1.399 . S
C1162 C1165 1.380 . S
C1162 H1172 0.929 . S
C1163 C1160 1.399 . S
C1163 C1165 1.392 . S
C1163 H1173 0.929 . S
C1164 C1160 1.383 . S
C1164 C1161 1.389 . S
C1164 H1174 0.931 . S
C1165 C1162 1.380 . S
C1165 C1163 1.392 . S
C1165 H1175 0.929 . S
C1166 O1146 1.266 . S
C1166 O1147 1.248 . S
C1167 Tb1103 2.802 . S
C1167 O1142 1.264 . S
C1167 O1145 1.256 . S
C1167 C1160 1.496 . S
H1168 C1151 0.929 . S
H1169 C1152 0.929 . S
H1170 C1153 0.929 . S
H1171 C1154 0.931 . S
H1172 C1162 0.929 . S
H1173 C1163 0.929 . S
H1174 C1164 0.931 . S
H1175 C1165 0.929 . S
Tb1176 N1205 2.617 1_455 S
Tb1176 N1211 2.572 1_455 S
Tb1176 O1220 2.465 . S
Tb1176 O1221 2.387 1_455 S
Tb1176 O1223 2.428 . S
Tb1176 O1224 2.308 . S
Tb1176 O1228 2.349 . S
Tb1176 O1231 2.393 . S
Tb1176 C1240 2.802 . S
C1177 N1178 1.379 . S
C1177 C1180 1.416 . S
C1177 C1184 1.424 . S
N1178 C1177 1.379 . S
N1178 C1181 1.334 . S
N1178 Tb1187 2.617 . S
C1179 C1181 1.390 . S
C1179 C1182 1.339 . S
C1179 H1199 0.930 . S
C1180 C1177 1.416 . S
C1180 C1182 1.416 . S
C1180 C1186 1.448 . S
C1181 N1178 1.334 . S
C1181 C1179 1.390 . S
C1181 H1192 0.930 . S
C1182 C1179 1.339 . S
C1182 C1180 1.416 . S
C1182 H1203 0.930 . S
C1183 C1184 1.413 . S
C1183 C1185 1.427 . S
C1183 C1189 1.416 . S
C1184 C1177 1.424 . S
C1184 C1183 1.413 . S
C1184 N1188 1.361 . S
C1185 C1183 1.427 . S
C1185 C1186 1.328 . S
C1185 H1200 0.929 . S
C1186 C1180 1.448 . S
C1186 C1185 1.328 . S
C1186 H1201 0.930 . S
Tb1187 N1178 2.617 . S
Tb1187 N1188 2.572 . S
Tb1187 O1222 2.349 1_455 S
Tb1187 O1225 2.393 . S
Tb1187 O1226 2.465 . S
Tb1187 O1227 2.387 . S
Tb1187 O1229 2.428 . S
Tb1187 O1230 2.308 . S
Tb1187 C1251 2.802 . S
N1188 C1184 1.361 . S
N1188 Tb1187 2.572 . S
N1188 C1190 1.340 . S
C1189 C1183 1.416 . S
C1189 C1191 1.332 . S
C1189 H1197 0.931 . S
C1190 N1188 1.340 . S
C1190 C1191 1.407 . S
C1190 H1196 0.930 . S
C1191 C1189 1.332 . S
C1191 C1190 1.407 . S
C1191 H1193 0.929 . S
H1192 C1181 0.930 . S
H1193 C1191 0.929 . S
H1194 C1209 0.930 1_455 S
H1195 C1216 0.929 . S
H1196 C1190 0.930 . S
H1197 C1189 0.931 . S
H1198 C1212 0.930 1_455 S
H1199 C1179 0.930 . S
H1200 C1185 0.929 . S
H1201 C1186 0.930 . S
H1202 C1207 0.930 . S
H1203 C1182 0.930 . S
H1204 C1215 0.931 . S
N1205 Tb1176 2.617 1_655 S
N1205 C1206 1.379 . S
N1205 C1209 1.334 . S
C1206 N1205 1.379 . S
C1206 C1208 1.416 . S
C1206 C1214 1.424 . S
C1207 H1202 0.930 . S
C1207 C1209 1.390 . S
C1207 C1210 1.339 . S
C1208 C1206 1.416 . S
C1208 C1210 1.416 . S
C1208 C1241 1.448 . S
C1209 H1194 0.930 1_655 S
C1209 N1205 1.334 . S
C1209 C1207 1.390 . S
C1210 C1207 1.339 . S
C1210 C1208 1.416 . S
C1210 H1217 0.930 . S
N1211 Tb1176 2.572 1_655 S
N1211 C1212 1.340 . S
N1211 C1214 1.361 . S
C1212 H1198 0.930 1_655 S
C1212 N1211 1.340 . S
C1212 C1216 1.407 . S
C1213 C1214 1.413 . S
C1213 C1215 1.416 . S
C1213 C1242 1.427 . S
C1214 C1206 1.424 . S
C1214 N1211 1.361 . S
C1214 C1213 1.413 . S
C1215 H1204 0.931 . S
C1215 C1213 1.416 . S
C1215 C1216 1.332 . S
C1216 H1195 0.929 . S
C1216 C1212 1.407 . S
C1216 C1215 1.332 . S
H1217 C1210 0.930 . S
H1218 C1241 0.930 . S
H1219 C1242 0.929 . S
O1220 Tb1176 2.465 . S
O1220 C1240 1.264 . S
O1221 Tb1176 2.387 1_655 S
O1221 C1232 1.264 . S
O1222 Tb1187 2.349 1_655 S
O1222 C1232 1.243 . S
O1223 Tb1176 2.428 . S
O1223 C1240 1.256 . S
O1224 Tb1176 2.308 . S
O1224 C1239 1.266 . S
O1225 Tb1187 2.393 . S
O1225 C1239 1.248 . S
O1226 Tb1187 2.465 . S
O1226 C1251 1.264 . S
O1227 Tb1187 2.387 . S
O1227 C1243 1.264 . S
O1228 Tb1176 2.349 . S
O1228 C1243 1.243 . S
O1229 Tb1187 2.428 . S
O1229 C1251 1.256 . S
O1230 Tb1187 2.308 . S
O1230 C1250 1.266 . S
O1231 Tb1176 2.393 . S
O1231 C1250 1.248 . S
C1232 O1221 1.264 . S
C1232 O1222 1.243 . S
C1233 C1236 1.399 . S
C1233 C1238 1.383 . S
C1233 C1240 1.496 . S
C1234 C1235 1.399 . S
C1234 C1238 1.389 . S
C1235 C1234 1.399 . S
C1235 C1237 1.380 . S
C1235 H1252 0.929 . S
C1236 C1233 1.399 . S
C1236 C1237 1.392 . S
C1236 H1253 0.929 . S
C1237 C1235 1.380 . S
C1237 C1236 1.392 . S
C1237 H1254 0.929 . S
C1238 C1233 1.383 . S
C1238 C1234 1.389 . S
C1238 H1255 0.931 . S
C1239 O1224 1.266 . S
C1239 O1225 1.248 . S
C1240 Tb1176 2.802 . S
C1240 O1220 1.264 . S
C1240 O1223 1.256 . S
C1240 C1233 1.496 . S
C1241 C1208 1.448 . S
C1241 H1218 0.930 . S
C1241 C1242 1.328 . S
C1242 C1213 1.427 . S
C1242 H1219 0.929 . S
C1242 C1241 1.328 . S
C1243 O1227 1.264 . S
C1243 O1228 1.243 . S
C1244 C1247 1.399 . S
C1244 C1248 1.383 . S
C1244 C1251 1.496 1_655 S
C1245 C1246 1.399 . S
C1245 C1248 1.389 . S
C1246 C1245 1.399 . S
C1246 C1249 1.380 . S
C1246 H1256 0.929 . S
C1247 C1244 1.399 . S
C1247 C1249 1.392 . S
C1247 H1257 0.929 . S
C1248 C1244 1.383 . S
C1248 C1245 1.389 . S
C1248 H1258 0.931 . S
C1249 C1246 1.380 . S
C1249 C1247 1.392 . S
C1249 H1259 0.929 . S
C1250 O1230 1.266 . S
C1250 O1231 1.248 . S
C1251 Tb1187 2.802 . S
C1251 O1226 1.264 . S
C1251 O1229 1.256 . S
C1251 C1244 1.496 1_455 S
H1252 C1235 0.929 . S
H1253 C1236 0.929 . S
H1254 C1237 0.929 . S
H1255 C1238 0.931 . S
H1256 C1246 0.929 . S
H1257 C1247 0.929 . S
H1258 C1248 0.931 . S
H1259 C1249 0.929 . S
Tb1260 N1289 2.617 . S
Tb1260 N1295 2.572 . S
Tb1260 O1304 2.465 . S
Tb1260 O1305 2.387 . S
Tb1260 O1307 2.428 . S
Tb1260 O1308 2.308 . S
Tb1260 O1312 2.349 . S
Tb1260 O1315 2.393 . S
Tb1260 C1324 2.802 . S
C1261 N1262 1.379 . S
C1261 C1264 1.416 . S
C1261 C1268 1.424 . S
N1262 C1261 1.379 . S
N1262 C1265 1.334 . S
N1262 Tb1271 2.617 . S
C1263 C1265 1.390 . S
C1263 C1266 1.339 . S
C1263 H1283 0.930 . S
C1264 C1261 1.416 . S
C1264 C1266 1.416 . S
C1264 C1270 1.448 . S
C1265 N1262 1.334 . S
C1265 C1263 1.390 . S
C1265 H1276 0.930 . S
C1266 C1263 1.339 . S
C1266 C1264 1.416 . S
C1266 H1287 0.930 . S
C1267 C1268 1.413 . S
C1267 C1269 1.427 . S
C1267 C1273 1.416 . S
C1268 C1261 1.424 . S
C1268 C1267 1.413 . S
C1268 N1272 1.361 . S
C1269 C1267 1.427 . S
C1269 C1270 1.328 . S
C1269 H1284 0.929 . S
C1270 C1264 1.448 . S
C1270 C1269 1.328 . S
C1270 H1285 0.930 . S
Tb1271 N1262 2.617 . S
Tb1271 N1272 2.572 . S
Tb1271 O1306 2.349 . S
Tb1271 O1309 2.393 . S
Tb1271 O1310 2.465 . S
Tb1271 O1311 2.387 . S
Tb1271 O1313 2.428 . S
Tb1271 O1314 2.308 . S
Tb1271 C1335 2.802 . S
N1272 C1268 1.361 . S
N1272 Tb1271 2.572 . S
N1272 C1274 1.340 . S
C1273 C1267 1.416 . S
C1273 C1275 1.332 . S
C1273 H1281 0.931 . S
C1274 N1272 1.340 . S
C1274 C1275 1.407 . S
C1274 H1280 0.930 . S
C1275 C1273 1.332 . S
C1275 C1274 1.407 . S
C1275 H1277 0.929 . S
H1276 C1265 0.930 . S
H1277 C1275 0.929 . S
H1278 C1293 0.930 . S
H1279 C1300 0.929 . S
H1280 C1274 0.930 . S
H1281 C1273 0.931 . S
H1282 C1296 0.930 . S
H1283 C1263 0.930 . S
H1284 C1269 0.929 . S
H1285 C1270 0.930 . S
H1286 C1291 0.930 . S
H1287 C1266 0.930 . S
H1288 C1299 0.931 . S
N1289 Tb1260 2.617 . S
N1289 C1290 1.379 . S
N1289 C1293 1.334 . S
C1290 N1289 1.379 . S
C1290 C1292 1.416 . S
C1290 C1298 1.424 . S
C1291 H1286 0.930 . S
C1291 C1293 1.390 . S
C1291 C1294 1.339 . S
C1292 C1290 1.416 . S
C1292 C1294 1.416 . S
C1292 C1325 1.448 . S
C1293 H1278 0.930 . S
C1293 N1289 1.334 . S
C1293 C1291 1.390 . S
C1294 C1291 1.339 . S
C1294 C1292 1.416 . S
C1294 H1301 0.930 . S
N1295 Tb1260 2.572 . S
N1295 C1296 1.340 . S
N1295 C1298 1.361 . S
C1296 H1282 0.930 . S
C1296 N1295 1.340 . S
C1296 C1300 1.407 . S
C1297 C1298 1.413 . S
C1297 C1299 1.416 . S
C1297 C1326 1.427 . S
C1298 C1290 1.424 . S
C1298 N1295 1.361 . S
C1298 C1297 1.413 . S
C1299 H1288 0.931 . S
C1299 C1297 1.416 . S
C1299 C1300 1.332 . S
C1300 H1279 0.929 . S
C1300 C1296 1.407 . S
C1300 C1299 1.332 . S
H1301 C1294 0.930 . S
H1302 C1325 0.930 . S
H1303 C1326 0.929 . S
O1304 Tb1260 2.465 . S
O1304 C1324 1.264 . S
O1305 Tb1260 2.387 . S
O1305 C1316 1.264 . S
O1306 Tb1271 2.349 . S
O1306 C1316 1.243 . S
O1307 Tb1260 2.428 . S
O1307 C1324 1.256 . S
O1308 Tb1260 2.308 . S
O1308 C1323 1.266 . S
O1309 Tb1271 2.393 . S
O1309 C1323 1.248 . S
O1310 Tb1271 2.465 . S
O1310 C1335 1.264 . S
O1311 Tb1271 2.387 . S
O1311 C1327 1.264 . S
O1312 Tb1260 2.349 . S
O1312 C1327 1.243 . S
O1313 Tb1271 2.428 . S
O1313 C1335 1.256 . S
O1314 Tb1271 2.308 . S
O1314 C1334 1.266 . S
O1315 Tb1260 2.393 . S
O1315 C1334 1.248 . S
C1316 O1305 1.264 . S
C1316 O1306 1.243 . S
C1317 C1320 1.399 . S
C1317 C1322 1.383 . S
C1317 C1324 1.496 . S
C1318 C1319 1.399 . S
C1318 C1322 1.389 . S
C1319 C1318 1.399 . S
C1319 C1321 1.380 . S
C1319 H1336 0.929 . S
C1320 C1317 1.399 . S
C1320 C1321 1.392 . S
C1320 H1337 0.929 . S
C1321 C1319 1.380 . S
C1321 C1320 1.392 . S
C1321 H1338 0.929 . S
C1322 C1317 1.383 . S
C1322 C1318 1.389 . S
C1322 H1339 0.931 . S
C1323 O1308 1.266 . S
C1323 O1309 1.248 . S
C1324 Tb1260 2.802 . S
C1324 O1304 1.264 . S
C1324 O1307 1.256 . S
C1324 C1317 1.496 . S
C1325 C1292 1.448 . S
C1325 H1302 0.930 . S
C1325 C1326 1.328 . S
C1326 C1297 1.427 . S
C1326 H1303 0.929 . S
C1326 C1325 1.328 . S
C1327 O1311 1.264 . S
C1327 O1312 1.243 . S
C1328 C1331 1.399 . S
C1328 C1332 1.383 . S
C1328 C1335 1.496 . S
C1329 C1330 1.399 . S
C1329 C1332 1.389 . S
C1330 C1329 1.399 . S
C1330 C1333 1.380 . S
C1330 H1340 0.929 . S
C1331 C1328 1.399 . S
C1331 C1333 1.392 . S
C1331 H1341 0.929 . S
C1332 C1328 1.383 . S
C1332 C1329 1.389 . S
C1332 H1342 0.931 . S
C1333 C1330 1.380 . S
C1333 C1331 1.392 . S
C1333 H1343 0.929 . S
C1334 O1314 1.266 . S
C1334 O1315 1.248 . S
C1335 Tb1271 2.802 . S
C1335 O1310 1.264 . S
C1335 O1313 1.256 . S
C1335 C1328 1.496 . S
H1336 C1319 0.929 . S
H1337 C1320 0.929 . S
H1338 C1321 0.929 . S
H1339 C1322 0.931 . S
H1340 C1330 0.929 . S
H1341 C1331 0.929 . S
H1342 C1332 0.931 . S
H1343 C1333 0.929 . S
Tb1344 N1373 2.617 . S
Tb1344 N1379 2.572 . S
Tb1344 O1388 2.465 . S
Tb1344 O1389 2.387 . S
Tb1344 O1391 2.428 . S
Tb1344 O1392 2.308 . S
Tb1344 O1396 2.349 . S
Tb1344 O1399 2.393 . S
Tb1344 C1408 2.802 . S
C1345 N1346 1.379 . S
C1345 C1348 1.416 . S
C1345 C1352 1.424 . S
N1346 C1345 1.379 . S
N1346 C1349 1.334 . S
N1346 Tb1355 2.617 . S
C1347 C1349 1.390 . S
C1347 C1350 1.339 . S
C1347 H1367 0.930 . S
C1348 C1345 1.416 . S
C1348 C1350 1.416 . S
C1348 C1354 1.448 . S
C1349 N1346 1.334 . S
C1349 C1347 1.390 . S
C1349 H1360 0.930 . S
C1350 C1347 1.339 . S
C1350 C1348 1.416 . S
C1350 H1371 0.930 . S
C1351 C1352 1.413 . S
C1351 C1353 1.427 . S
C1351 C1357 1.416 . S
C1352 C1345 1.424 . S
C1352 C1351 1.413 . S
C1352 N1356 1.361 . S
C1353 C1351 1.427 . S
C1353 C1354 1.328 . S
C1353 H1368 0.929 . S
C1354 C1348 1.448 . S
C1354 C1353 1.328 . S
C1354 H1369 0.930 . S
Tb1355 N1346 2.617 . S
Tb1355 N1356 2.572 . S
Tb1355 O1390 2.349 . S
Tb1355 O1393 2.393 . S
Tb1355 O1394 2.465 . S
Tb1355 O1395 2.387 . S
Tb1355 O1397 2.428 . S
Tb1355 O1398 2.308 . S
Tb1355 C1419 2.802 . S
N1356 C1352 1.361 . S
N1356 Tb1355 2.572 . S
N1356 C1358 1.340 . S
C1357 C1351 1.416 . S
C1357 C1359 1.332 . S
C1357 H1365 0.931 . S
C1358 N1356 1.340 . S
C1358 C1359 1.407 . S
C1358 H1364 0.930 . S
C1359 C1357 1.332 . S
C1359 C1358 1.407 . S
C1359 H1361 0.929 . S
H1360 C1349 0.930 . S
H1361 C1359 0.929 . S
H1362 C1377 0.930 . S
H1363 C1384 0.929 . S
H1364 C1358 0.930 . S
H1365 C1357 0.931 . S
H1366 C1380 0.930 . S
H1367 C1347 0.930 . S
H1368 C1353 0.929 . S
H1369 C1354 0.930 . S
H1370 C1375 0.930 . S
H1371 C1350 0.930 . S
H1372 C1383 0.931 . S
N1373 Tb1344 2.617 . S
N1373 C1374 1.379 . S
N1373 C1377 1.334 . S
C1374 N1373 1.379 . S
C1374 C1376 1.416 . S
C1374 C1382 1.424 . S
C1375 H1370 0.930 . S
C1375 C1377 1.390 . S
C1375 C1378 1.339 . S
C1376 C1374 1.416 . S
C1376 C1378 1.416 . S
C1376 C1409 1.448 . S
C1377 H1362 0.930 . S
C1377 N1373 1.334 . S
C1377 C1375 1.390 . S
C1378 C1375 1.339 . S
C1378 C1376 1.416 . S
C1378 H1385 0.930 . S
N1379 Tb1344 2.572 . S
N1379 C1380 1.340 . S
N1379 C1382 1.361 . S
C1380 H1366 0.930 . S
C1380 N1379 1.340 . S
C1380 C1384 1.407 . S
C1381 C1382 1.413 . S
C1381 C1383 1.416 . S
C1381 C1410 1.427 . S
C1382 C1374 1.424 . S
C1382 N1379 1.361 . S
C1382 C1381 1.413 . S
C1383 H1372 0.931 . S
C1383 C1381 1.416 . S
C1383 C1384 1.332 . S
C1384 H1363 0.929 . S
C1384 C1380 1.407 . S
C1384 C1383 1.332 . S
H1385 C1378 0.930 . S
H1386 C1409 0.930 . S
H1387 C1410 0.929 . S
O1388 Tb1344 2.465 . S
O1388 C1408 1.264 . S
O1389 Tb1344 2.387 . S
O1389 C1400 1.264 . S
O1390 Tb1355 2.349 . S
O1390 C1400 1.243 . S
O1391 Tb1344 2.428 . S
O1391 C1408 1.256 . S
O1392 Tb1344 2.308 . S
O1392 C1407 1.266 . S
O1393 Tb1355 2.393 . S
O1393 C1407 1.248 . S
O1394 Tb1355 2.465 . S
O1394 C1419 1.264 . S
O1395 Tb1355 2.387 . S
O1395 C1411 1.264 . S
O1396 Tb1344 2.349 . S
O1396 C1411 1.243 . S
O1397 Tb1355 2.428 . S
O1397 C1419 1.256 . S
O1398 Tb1355 2.308 . S
O1398 C1418 1.266 . S
O1399 Tb1344 2.393 . S
O1399 C1418 1.248 . S
C1400 O1389 1.264 . S
C1400 O1390 1.243 . S
C1401 C1404 1.399 . S
C1401 C1406 1.383 . S
C1401 C1408 1.496 . S
C1402 C1403 1.399 . S
C1402 C1406 1.389 . S
C1403 C1402 1.399 . S
C1403 C1405 1.380 . S
C1403 H1420 0.929 . S
C1404 C1401 1.399 . S
C1404 C1405 1.392 . S
C1404 H1421 0.929 . S
C1405 C1403 1.380 . S
C1405 C1404 1.392 . S
C1405 H1422 0.929 . S
C1406 C1401 1.383 . S
C1406 C1402 1.389 . S
C1406 H1423 0.931 . S
C1407 O1392 1.266 . S
C1407 O1393 1.248 . S
C1408 Tb1344 2.802 . S
C1408 O1388 1.264 . S
C1408 O1391 1.256 . S
C1408 C1401 1.496 . S
C1409 C1376 1.448 . S
C1409 H1386 0.930 . S
C1409 C1410 1.328 . S
C1410 C1381 1.427 . S
C1410 H1387 0.929 . S
C1410 C1409 1.328 . S
C1411 O1395 1.264 . S
C1411 O1396 1.243 . S
C1412 C1415 1.399 . S
C1412 C1416 1.383 . S
C1412 C1419 1.496 . S
C1413 C1414 1.399 . S
C1413 C1416 1.389 . S
C1414 C1413 1.399 . S
C1414 C1417 1.380 . S
C1414 H1424 0.929 . S
C1415 C1412 1.399 . S
C1415 C1417 1.392 . S
C1415 H1425 0.929 . S
C1416 C1412 1.383 . S
C1416 C1413 1.389 . S
C1416 H1426 0.931 . S
C1417 C1414 1.380 . S
C1417 C1415 1.392 . S
C1417 H1427 0.929 . S
C1418 O1398 1.266 . S
C1418 O1399 1.248 . S
C1419 Tb1355 2.802 . S
C1419 O1394 1.264 . S
C1419 O1397 1.256 . S
C1419 C1412 1.496 . S
H1420 C1403 0.929 . S
H1421 C1404 0.929 . S
H1422 C1405 0.929 . S
H1423 C1406 0.931 . S
H1424 C1414 0.929 . S
H1425 C1415 0.929 . S
H1426 C1416 0.931 . S
H1427 C1417 0.929 . S
Tb1428 N1457 2.617 . S
Tb1428 N1463 2.572 . S
Tb1428 O1472 2.465 . S
Tb1428 O1473 2.387 . S
Tb1428 O1475 2.428 . S
Tb1428 O1476 2.308 . S
Tb1428 O1480 2.349 . S
Tb1428 O1483 2.393 . S
Tb1428 C1492 2.802 . S
C1429 N1430 1.379 . S
C1429 C1432 1.416 . S
C1429 C1436 1.424 . S
N1430 C1429 1.379 . S
N1430 C1433 1.334 . S
N1430 Tb1439 2.617 . S
C1431 C1433 1.390 . S
C1431 C1434 1.339 . S
C1431 H1451 0.930 . S
C1432 C1429 1.416 . S
C1432 C1434 1.416 . S
C1432 C1438 1.448 . S
C1433 N1430 1.334 . S
C1433 C1431 1.390 . S
C1433 H1444 0.930 . S
C1434 C1431 1.339 . S
C1434 C1432 1.416 . S
C1434 H1455 0.930 . S
C1435 C1436 1.413 . S
C1435 C1437 1.427 . S
C1435 C1441 1.416 . S
C1436 C1429 1.424 . S
C1436 C1435 1.413 . S
C1436 N1440 1.361 . S
C1437 C1435 1.427 . S
C1437 C1438 1.328 . S
C1437 H1452 0.929 . S
C1438 C1432 1.448 . S
C1438 C1437 1.328 . S
C1438 H1453 0.930 . S
Tb1439 N1430 2.617 . S
Tb1439 N1440 2.572 . S
Tb1439 O1474 2.349 . S
Tb1439 O1477 2.393 . S
Tb1439 O1478 2.465 . S
Tb1439 O1479 2.387 . S
Tb1439 O1481 2.428 . S
Tb1439 O1482 2.308 . S
Tb1439 C1503 2.802 . S
N1440 C1436 1.361 . S
N1440 Tb1439 2.572 . S
N1440 C1442 1.340 . S
C1441 C1435 1.416 . S
C1441 C1443 1.332 . S
C1441 H1449 0.931 . S
C1442 N1440 1.340 . S
C1442 C1443 1.407 . S
C1442 H1448 0.930 . S
C1443 C1441 1.332 . S
C1443 C1442 1.407 . S
C1443 H1445 0.929 . S
H1444 C1433 0.930 . S
H1445 C1443 0.929 . S
H1446 C1461 0.930 . S
H1447 C1468 0.929 . S
H1448 C1442 0.930 . S
H1449 C1441 0.931 . S
H1450 C1464 0.930 . S
H1451 C1431 0.930 . S
H1452 C1437 0.929 . S
H1453 C1438 0.930 . S
H1454 C1459 0.930 . S
H1455 C1434 0.930 . S
H1456 C1467 0.931 . S
N1457 Tb1428 2.617 . S
N1457 C1458 1.379 . S
N1457 C1461 1.334 . S
C1458 N1457 1.379 . S
C1458 C1460 1.416 . S
C1458 C1466 1.424 . S
C1459 H1454 0.930 . S
C1459 C1461 1.390 . S
C1459 C1462 1.339 . S
C1460 C1458 1.416 . S
C1460 C1462 1.416 . S
C1460 C1493 1.448 . S
C1461 H1446 0.930 . S
C1461 N1457 1.334 . S
C1461 C1459 1.390 . S
C1462 C1459 1.339 . S
C1462 C1460 1.416 . S
C1462 H1469 0.930 . S
N1463 Tb1428 2.572 . S
N1463 C1464 1.340 . S
N1463 C1466 1.361 . S
C1464 H1450 0.930 . S
C1464 N1463 1.340 . S
C1464 C1468 1.407 . S
C1465 C1466 1.413 . S
C1465 C1467 1.416 . S
C1465 C1494 1.427 . S
C1466 C1458 1.424 . S
C1466 N1463 1.361 . S
C1466 C1465 1.413 . S
C1467 H1456 0.931 . S
C1467 C1465 1.416 . S
C1467 C1468 1.332 . S
C1468 H1447 0.929 . S
C1468 C1464 1.407 . S
C1468 C1467 1.332 . S
H1469 C1462 0.930 . S
H1470 C1493 0.930 . S
H1471 C1494 0.929 . S
O1472 Tb1428 2.465 . S
O1472 C1492 1.264 . S
O1473 Tb1428 2.387 . S
O1473 C1484 1.264 . S
O1474 Tb1439 2.349 . S
O1474 C1484 1.243 . S
O1475 Tb1428 2.428 . S
O1475 C1492 1.256 . S
O1476 Tb1428 2.308 . S
O1476 C1491 1.266 . S
O1477 Tb1439 2.393 . S
O1477 C1491 1.248 . S
O1478 Tb1439 2.465 . S
O1478 C1503 1.264 . S
O1479 Tb1439 2.387 . S
O1479 C1495 1.264 . S
O1480 Tb1428 2.349 . S
O1480 C1495 1.243 . S
O1481 Tb1439 2.428 . S
O1481 C1503 1.256 . S
O1482 Tb1439 2.308 . S
O1482 C1502 1.266 . S
O1483 Tb1428 2.393 . S
O1483 C1502 1.248 . S
C1484 O1473 1.264 . S
C1484 O1474 1.243 . S
C1485 C1488 1.399 . S
C1485 C1490 1.383 . S
C1485 C1492 1.496 . S
C1486 C1487 1.399 . S
C1486 C1490 1.389 . S
C1487 C1486 1.399 . S
C1487 C1489 1.380 . S
C1487 H1504 0.929 . S
C1488 C1485 1.399 . S
C1488 C1489 1.392 . S
C1488 H1505 0.929 . S
C1489 C1487 1.380 . S
C1489 C1488 1.392 . S
C1489 H1506 0.929 . S
C1490 C1485 1.383 . S
C1490 C1486 1.389 . S
C1490 H1507 0.931 . S
C1491 O1476 1.266 . S
C1491 O1477 1.248 . S
C1492 Tb1428 2.802 . S
C1492 O1472 1.264 . S
C1492 O1475 1.256 . S
C1492 C1485 1.496 . S
C1493 C1460 1.448 . S
C1493 H1470 0.930 . S
C1493 C1494 1.328 . S
C1494 C1465 1.427 . S
C1494 H1471 0.929 . S
C1494 C1493 1.328 . S
C1495 O1479 1.264 . S
C1495 O1480 1.243 . S
C1496 C1499 1.399 . S
C1496 C1500 1.383 . S
C1496 C1503 1.496 . S
C1497 C1498 1.399 . S
C1497 C1500 1.389 . S
C1498 C1497 1.399 . S
C1498 C1501 1.380 . S
C1498 H1508 0.929 . S
C1499 C1496 1.399 . S
C1499 C1501 1.392 . S
C1499 H1509 0.929 . S
C1500 C1496 1.383 . S
C1500 C1497 1.389 . S
C1500 H1510 0.931 . S
C1501 C1498 1.380 . S
C1501 C1499 1.392 . S
C1501 H1511 0.929 . S
C1502 O1482 1.266 . S
C1502 O1483 1.248 . S
C1503 Tb1439 2.802 . S
C1503 O1478 1.264 . S
C1503 O1481 1.256 . S
C1503 C1496 1.496 . S
H1504 C1487 0.929 . S
H1505 C1488 0.929 . S
H1506 C1489 0.929 . S
H1507 C1490 0.931 . S
H1508 C1498 0.929 . S
H1509 C1499 0.929 . S
H1510 C1500 0.931 . S
H1511 C1501 0.929 . S
Tb1512 N1541 2.617 . S
Tb1512 N1547 2.572 . S
Tb1512 O1556 2.465 . S
Tb1512 O1557 2.387 . S
Tb1512 O1559 2.428 . S
Tb1512 O1560 2.308 . S
Tb1512 O1564 2.349 . S
Tb1512 O1567 2.393 . S
Tb1512 C1576 2.802 . S
C1513 N1514 1.379 . S
C1513 C1516 1.416 . S
C1513 C1520 1.424 . S
N1514 C1513 1.379 . S
N1514 C1517 1.334 . S
N1514 Tb1523 2.617 . S
C1515 C1517 1.390 . S
C1515 C1518 1.339 . S
C1515 H1535 0.930 . S
C1516 C1513 1.416 . S
C1516 C1518 1.416 . S
C1516 C1522 1.448 . S
C1517 N1514 1.334 . S
C1517 C1515 1.390 . S
C1517 H1528 0.930 . S
C1518 C1515 1.339 . S
C1518 C1516 1.416 . S
C1518 H1539 0.930 . S
C1519 C1520 1.413 . S
C1519 C1521 1.427 . S
C1519 C1525 1.416 . S
C1520 C1513 1.424 . S
C1520 C1519 1.413 . S
C1520 N1524 1.361 . S
C1521 C1519 1.427 . S
C1521 C1522 1.328 . S
C1521 H1536 0.929 . S
C1522 C1516 1.448 . S
C1522 C1521 1.328 . S
C1522 H1537 0.930 . S
Tb1523 N1514 2.617 . S
Tb1523 N1524 2.572 . S
Tb1523 O1558 2.349 . S
Tb1523 O1561 2.393 . S
Tb1523 O1562 2.465 . S
Tb1523 O1563 2.387 . S
Tb1523 O1565 2.428 . S
Tb1523 O1566 2.308 . S
Tb1523 C1587 2.802 . S
N1524 C1520 1.361 . S
N1524 Tb1523 2.572 . S
N1524 C1526 1.340 . S
C1525 C1519 1.416 . S
C1525 C1527 1.332 . S
C1525 H1533 0.931 . S
C1526 N1524 1.340 . S
C1526 C1527 1.407 . S
C1526 H1532 0.930 . S
C1527 C1525 1.332 . S
C1527 C1526 1.407 . S
C1527 H1529 0.929 . S
H1528 C1517 0.930 . S
H1529 C1527 0.929 . S
H1530 C1545 0.930 . S
H1531 C1552 0.929 . S
H1532 C1526 0.930 . S
H1533 C1525 0.931 . S
H1534 C1548 0.930 . S
H1535 C1515 0.930 . S
H1536 C1521 0.929 . S
H1537 C1522 0.930 . S
H1538 C1543 0.930 . S
H1539 C1518 0.930 . S
H1540 C1551 0.931 . S
N1541 Tb1512 2.617 . S
N1541 C1542 1.379 . S
N1541 C1545 1.334 . S
C1542 N1541 1.379 . S
C1542 C1544 1.416 . S
C1542 C1550 1.424 . S
C1543 H1538 0.930 . S
C1543 C1545 1.390 . S
C1543 C1546 1.339 . S
C1544 C1542 1.416 . S
C1544 C1546 1.416 . S
C1544 C1577 1.448 . S
C1545 H1530 0.930 . S
C1545 N1541 1.334 . S
C1545 C1543 1.390 . S
C1546 C1543 1.339 . S
C1546 C1544 1.416 . S
C1546 H1553 0.930 . S
N1547 Tb1512 2.572 . S
N1547 C1548 1.340 . S
N1547 C1550 1.361 . S
C1548 H1534 0.930 . S
C1548 N1547 1.340 . S
C1548 C1552 1.407 . S
C1549 C1550 1.413 . S
C1549 C1551 1.416 . S
C1549 C1578 1.427 . S
C1550 C1542 1.424 . S
C1550 N1547 1.361 . S
C1550 C1549 1.413 . S
C1551 H1540 0.931 . S
C1551 C1549 1.416 . S
C1551 C1552 1.332 . S
C1552 H1531 0.929 . S
C1552 C1548 1.407 . S
C1552 C1551 1.332 . S
H1553 C1546 0.930 . S
H1554 C1577 0.930 . S
H1555 C1578 0.929 . S
O1556 Tb1512 2.465 . S
O1556 C1576 1.264 . S
O1557 Tb1512 2.387 . S
O1557 C1568 1.264 . S
O1558 Tb1523 2.349 . S
O1558 C1568 1.243 . S
O1559 Tb1512 2.428 . S
O1559 C1576 1.256 . S
O1560 Tb1512 2.308 . S
O1560 C1575 1.266 . S
O1561 Tb1523 2.393 . S
O1561 C1575 1.248 . S
O1562 Tb1523 2.465 . S
O1562 C1587 1.264 . S
O1563 Tb1523 2.387 . S
O1563 C1579 1.264 . S
O1564 Tb1512 2.349 . S
O1564 C1579 1.243 . S
O1565 Tb1523 2.428 . S
O1565 C1587 1.256 . S
O1566 Tb1523 2.308 . S
O1566 C1586 1.266 . S
O1567 Tb1512 2.393 . S
O1567 C1586 1.248 . S
C1568 O1557 1.264 . S
C1568 O1558 1.243 . S
C1569 C1572 1.399 . S
C1569 C1574 1.383 . S
C1569 C1576 1.496 . S
C1570 C1571 1.399 . S
C1570 C1574 1.389 . S
C1571 C1570 1.399 . S
C1571 C1573 1.380 . S
C1571 H1588 0.929 . S
C1572 C1569 1.399 . S
C1572 C1573 1.392 . S
C1572 H1589 0.929 . S
C1573 C1571 1.380 . S
C1573 C1572 1.392 . S
C1573 H1590 0.929 . S
C1574 C1569 1.383 . S
C1574 C1570 1.389 . S
C1574 H1591 0.931 . S
C1575 O1560 1.266 . S
C1575 O1561 1.248 . S
C1576 Tb1512 2.802 . S
C1576 O1556 1.264 . S
C1576 O1559 1.256 . S
C1576 C1569 1.496 . S
C1577 C1544 1.448 . S
C1577 H1554 0.930 . S
C1577 C1578 1.328 . S
C1578 C1549 1.427 . S
C1578 H1555 0.929 . S
C1578 C1577 1.328 . S
C1579 O1563 1.264 . S
C1579 O1564 1.243 . S
C1580 C1583 1.399 . S
C1580 C1584 1.383 . S
C1580 C1587 1.496 . S
C1581 C1582 1.399 . S
C1581 C1584 1.389 . S
C1582 C1581 1.399 . S
C1582 C1585 1.380 . S
C1582 H1592 0.929 . S
C1583 C1580 1.399 . S
C1583 C1585 1.392 . S
C1583 H1593 0.929 . S
C1584 C1580 1.383 . S
C1584 C1581 1.389 . S
C1584 H1594 0.931 . S
C1585 C1582 1.380 . S
C1585 C1583 1.392 . S
C1585 H1595 0.929 . S
C1586 O1566 1.266 . S
C1586 O1567 1.248 . S
C1587 Tb1523 2.802 . S
C1587 O1562 1.264 . S
C1587 O1565 1.256 . S
C1587 C1580 1.496 . S
H1588 C1571 0.929 . S
H1589 C1572 0.929 . S
H1590 C1573 0.929 . S
H1591 C1574 0.931 . S
H1592 C1582 0.929 . S
H1593 C1583 0.929 . S
H1594 C1584 0.931 . S
H1595 C1585 0.929 . S
Tb1596 N1625 2.617 . S
Tb1596 N1631 2.572 . S
Tb1596 O1640 2.465 . S
Tb1596 O1641 2.387 1_655 S
Tb1596 O1643 2.428 . S
Tb1596 O1644 2.308 1_655 S
Tb1596 O1648 2.349 1_655 S
Tb1596 O1651 2.393 1_655 S
Tb1596 C1660 2.802 . S
C1597 N1598 1.379 . S
C1597 C1600 1.416 . S
C1597 C1604 1.424 1_556 S
N1598 C1597 1.379 . S
N1598 C1601 1.334 . S
N1598 Tb1607 2.617 1_556 S
C1599 C1601 1.390 . S
C1599 C1602 1.339 . S
C1599 H1619 0.930 . S
C1600 C1597 1.416 . S
C1600 C1602 1.416 . S
C1600 C1606 1.448 . S
C1601 N1598 1.334 . S
C1601 C1599 1.390 . S
C1601 H1612 0.930 . S
C1602 C1599 1.339 . S
C1602 C1600 1.416 . S
C1602 H1623 0.930 . S
C1603 C1604 1.413 . S
C1603 C1605 1.427 . S
C1603 C1609 1.416 . S
C1604 C1597 1.424 1_554 S
C1604 C1603 1.413 . S
C1604 N1608 1.361 . S
C1605 C1603 1.427 . S
C1605 C1606 1.328 1_554 S
C1605 H1620 0.929 . S
C1606 C1600 1.448 . S
C1606 C1605 1.328 1_556 S
C1606 H1621 0.930 . S
Tb1607 N1598 2.617 1_554 S
Tb1607 N1608 2.572 . S
Tb1607 O1642 2.349 . S
Tb1607 O1645 2.393 1_554 S
Tb1607 O1646 2.465 . S
Tb1607 O1647 2.387 . S
Tb1607 O1649 2.428 1_554 S
Tb1607 O1650 2.308 . S
Tb1607 C1671 2.802 . S
N1608 C1604 1.361 . S
N1608 Tb1607 2.572 . S
N1608 C1610 1.340 . S
C1609 C1603 1.416 . S
C1609 C1611 1.332 . S
C1609 H1617 0.931 . S
C1610 N1608 1.340 . S
C1610 C1611 1.407 . S
C1610 H1616 0.930 . S
C1611 C1609 1.332 . S
C1611 C1610 1.407 . S
C1611 H1613 0.929 . S
H1612 C1601 0.930 . S
H1613 C1611 0.929 . S
H1614 C1629 0.930 1_455 S
H1615 C1636 0.929 1_556 S
H1616 C1610 0.930 . S
H1617 C1609 0.931 . S
H1618 C1632 0.930 . S
H1619 C1599 0.930 . S
H1620 C1605 0.929 . S
H1621 C1606 0.930 . S
H1622 C1627 0.930 . S
H1623 C1602 0.930 . S
H1624 C1635 0.931 . S
N1625 Tb1596 2.617 . S
N1625 C1626 1.379 . S
N1625 C1629 1.334 . S
C1626 N1625 1.379 . S
C1626 C1628 1.416 . S
C1626 C1634 1.424 . S
C1627 H1622 0.930 . S
C1627 C1629 1.390 . S
C1627 C1630 1.339 . S
C1628 C1626 1.416 . S
C1628 C1630 1.416 . S
C1628 C1661 1.448 . S
C1629 H1614 0.930 1_655 S
C1629 N1625 1.334 . S
C1629 C1627 1.390 . S
C1630 C1627 1.339 . S
C1630 C1628 1.416 . S
C1630 H1637 0.930 . S
N1631 Tb1596 2.572 . S
N1631 C1632 1.340 . S
N1631 C1634 1.361 . S
C1632 H1618 0.930 . S
C1632 N1631 1.340 . S
C1632 C1636 1.407 . S
C1633 C1634 1.413 . S
C1633 C1635 1.416 . S
C1633 C1662 1.427 . S
C1634 C1626 1.424 . S
C1634 N1631 1.361 . S
C1634 C1633 1.413 . S
C1635 H1624 0.931 . S
C1635 C1633 1.416 . S
C1635 C1636 1.332 . S
C1636 H1615 0.929 1_554 S
C1636 C1632 1.407 . S
C1636 C1635 1.332 . S
H1637 C1630 0.930 . S
H1638 C1661 0.930 . S
H1639 C1662 0.929 . S
O1640 Tb1596 2.465 . S
O1640 C1660 1.264 . S
O1641 Tb1596 2.387 1_455 S
O1641 C1652 1.264 . S
O1642 Tb1607 2.349 . S
O1642 C1652 1.243 . S
O1643 Tb1596 2.428 . S
O1643 C1660 1.256 . S
O1644 Tb1596 2.308 1_455 S
O1644 C1659 1.266 1_554 S
O1645 Tb1607 2.393 1_556 S
O1645 C1659 1.248 . S
O1646 Tb1607 2.465 . S
O1646 C1671 1.264 . S
O1647 Tb1607 2.387 . S
O1647 C1663 1.264 . S
O1648 Tb1596 2.349 1_455 S
O1648 C1663 1.243 . S
O1649 Tb1607 2.428 1_556 S
O1649 C1671 1.256 1_556 S
O1650 Tb1607 2.308 . S
O1650 C1670 1.266 . S
O1651 Tb1596 2.393 1_455 S
O1651 C1670 1.248 . S
C1652 O1641 1.264 . S
C1652 O1642 1.243 . S
C1653 C1656 1.399 . S
C1653 C1658 1.383 . S
C1653 C1660 1.496 . S
C1654 C1655 1.399 . S
C1654 C1658 1.389 . S
C1655 C1654 1.399 . S
C1655 C1657 1.380 . S
C1655 H1672 0.929 . S
C1656 C1653 1.399 . S
C1656 C1657 1.392 . S
C1656 H1673 0.929 . S
C1657 C1655 1.380 . S
C1657 C1656 1.392 . S
C1657 H1674 0.929 . S
C1658 C1653 1.383 . S
C1658 C1654 1.389 . S
C1658 H1675 0.931 . S
C1659 O1644 1.266 1_556 S
C1659 O1645 1.248 . S
C1660 Tb1596 2.802 . S
C1660 O1640 1.264 . S
C1660 O1643 1.256 . S
C1660 C1653 1.496 . S
C1661 C1628 1.448 . S
C1661 H1638 0.930 . S
C1661 C1662 1.328 . S
C1662 C1633 1.427 . S
C1662 H1639 0.929 . S
C1662 C1661 1.328 . S
C1663 O1647 1.264 . S
C1663 O1648 1.243 . S
C1664 C1667 1.353 1_554 S
C1664 C1668 1.418 . S
C1664 C1671 1.507 . S
C1665 C1666 1.399 1_554 S
C1665 C1668 1.389 . S
C1666 C1665 1.399 1_556 S
C1666 C1669 1.380 . S
C1666 H1676 0.929 . S
C1667 C1664 1.353 1_556 S
C1667 C1669 1.392 . S
C1667 H1677 0.929 . S
C1668 C1664 1.418 . S
C1668 C1665 1.389 . S
C1668 H1678 0.931 . S
C1669 C1666 1.380 . S
C1669 C1667 1.392 . S
C1669 H1679 0.929 . S
C1670 O1650 1.266 . S
C1670 O1651 1.248 . S
C1671 Tb1607 2.802 . S
C1671 O1646 1.264 . S
C1671 O1649 1.256 1_554 S
C1671 C1664 1.507 . S
H1672 C1655 0.929 . S
H1673 C1656 0.929 . S
H1674 C1657 0.929 . S
H1675 C1658 0.931 . S
H1676 C1666 0.929 . S
H1677 C1667 0.929 . S
H1678 C1668 0.931 . S
H1679 C1669 0.929 . S
C1680 C1681 1.357 . S
C1680 C1682 1.327 . S
C1680 H1705 0.950 . S
C1681 C1680 1.357 . S
C1681 C1697 1.344 1_455 S
C1682 C1680 1.327 . S
C1682 C1701 1.429 . S
C1682 H1706 0.950 . S
C1683 C1700 1.573 1_556 S
C1683 C1702 1.367 . S
C1683 H1707 0.950 1_456 S
H1684 C1688 0.949 . S
C1685 C1686 1.349 . S
C1685 C1687 1.327 . S
C1685 H1708 0.950 . S
C1686 C1685 1.349 . S
C1686 C1698 1.349 1_554 S
C1687 C1685 1.327 . S
C1687 C1703 1.427 1_554 S
C1687 H1709 0.950 . S
C1688 H1684 0.949 . S
C1688 C1696 1.574 . S
C1688 C1704 1.368 . S
H1689 C1697 0.950 . S
H1690 C1695 0.950 . S
H1691 C1696 0.949 . S
H1692 C1698 0.950 . S
H1693 C1699 0.950 . S
H1694 C1700 0.949 1_655 S
C1695 H1690 0.950 . S
C1695 C1697 1.327 . S
C1695 C1701 1.429 1_655 S
C1696 C1688 1.574 . S
C1696 H1691 0.949 . S
C1696 C1702 1.368 . S
C1697 C1681 1.344 1_655 S
C1697 H1689 0.950 . S
C1697 C1695 1.327 . S
C1698 C1686 1.349 1_556 S
C1698 H1692 0.950 . S
C1698 C1699 1.327 . S
C1699 H1693 0.950 . S
C1699 C1698 1.327 . S
C1699 C1703 1.429 . S
C1700 C1683 1.573 1_554 S
C1700 H1694 0.949 1_455 S
C1700 C1704 1.368 1_554 S
C1701 C1682 1.429 . S
C1701 C1695 1.429 1_455 S
C1701 C1702 1.523 . S
C1702 C1683 1.367 . S
C1702 C1696 1.368 . S
C1702 C1701 1.523 . S
C1703 C1687 1.427 1_556 S
C1703 C1699 1.429 . S
C1703 C1704 1.524 . S
C1704 C1688 1.368 . S
C1704 C1700 1.368 1_556 S
C1704 C1703 1.524 . S
H1705 C1680 0.950 . S
H1706 C1682 0.950 . S
H1707 C1683 0.950 1_654 S
H1708 C1685 0.950 . S
H1709 C1687 0.950 . S
C1710 C1711 1.349 . S
C1710 C1712 1.327 . S
C1710 H1735 0.950 . S
C1711 C1710 1.349 . S
C1711 C1727 1.349 . S
C1712 C1710 1.327 . S
C1712 C1731 1.429 . S
C1712 H1736 0.950 . S
C1713 C1730 1.574 . S
C1713 C1732 1.368 . S
C1713 H1737 0.949 . S
H1714 C1718 0.949 . S
C1715 C1716 1.349 . S
C1715 C1717 1.327 . S
C1715 H1738 0.950 . S
C1716 C1715 1.349 . S
C1716 C1728 1.349 . S
C1717 C1715 1.327 . S
C1717 C1733 1.429 . S
C1717 H1739 0.950 . S
C1718 H1714 0.949 . S
C1718 C1726 1.574 . S
C1718 C1734 1.368 . S
H1719 C1727 0.950 . S
H1720 C1725 0.950 . S
H1721 C1726 0.949 . S
H1722 C1728 0.950 . S
H1723 C1729 0.950 . S
H1724 C1730 0.949 . S
C1725 H1720 0.950 . S
C1725 C1727 1.327 . S
C1725 C1731 1.429 . S
C1726 C1718 1.574 . S
C1726 H1721 0.949 . S
C1726 C1732 1.368 . S
C1727 C1711 1.349 . S
C1727 H1719 0.950 . S
C1727 C1725 1.327 . S
C1728 C1716 1.349 . S
C1728 H1722 0.950 . S
C1728 C1729 1.327 . S
C1729 H1723 0.950 . S
C1729 C1728 1.327 . S
C1729 C1733 1.429 . S
C1730 C1713 1.574 . S
C1730 H1724 0.949 . S
C1730 C1734 1.368 . S
C1731 C1712 1.429 . S
C1731 C1725 1.429 . S
C1731 C1732 1.523 . S
C1732 C1713 1.368 . S
C1732 C1726 1.368 . S
C1732 C1731 1.523 . S
C1733 C1717 1.429 . S
C1733 C1729 1.429 . S
C1733 C1734 1.523 . S
C1734 C1718 1.368 . S
C1734 C1730 1.368 . S
C1734 C1733 1.523 . S
H1735 C1710 0.950 . S
H1736 C1712 0.950 . S
H1737 C1713 0.949 . S
H1738 C1715 0.950 . S
H1739 C1717 0.950 . S
C1740 C1741 1.349 . S
C1740 C1742 1.327 . S
C1740 H1765 0.950 . S
C1741 C1740 1.349 . S
C1741 C1757 1.349 . S
C1742 C1740 1.327 . S
C1742 C1761 1.429 . S
C1742 H1766 0.950 . S
C1743 C1760 1.574 . S
C1743 C1762 1.368 . S
C1743 H1767 0.949 . S
H1744 C1748 0.949 . S
C1745 C1746 1.349 . S
C1745 C1747 1.327 . S
C1745 H1768 0.950 . S
C1746 C1745 1.349 . S
C1746 C1758 1.349 . S
C1747 C1745 1.327 . S
C1747 C1763 1.429 . S
C1747 H1769 0.950 . S
C1748 H1744 0.949 . S
C1748 C1756 1.574 . S
C1748 C1764 1.368 . S
H1749 C1757 0.950 . S
H1750 C1755 0.950 . S
H1751 C1756 0.949 . S
H1752 C1758 0.950 . S
H1753 C1759 0.950 . S
H1754 C1760 0.949 . S
C1755 H1750 0.950 . S
C1755 C1757 1.327 . S
C1755 C1761 1.429 . S
C1756 C1748 1.574 . S
C1756 H1751 0.949 . S
C1756 C1762 1.368 . S
C1757 C1741 1.349 . S
C1757 H1749 0.950 . S
C1757 C1755 1.327 . S
C1758 C1746 1.349 . S
C1758 H1752 0.950 . S
C1758 C1759 1.327 . S
C1759 H1753 0.950 . S
C1759 C1758 1.327 . S
C1759 C1763 1.429 . S
C1760 C1743 1.574 . S
C1760 H1754 0.949 . S
C1760 C1764 1.368 . S
C1761 C1742 1.429 . S
C1761 C1755 1.429 . S
C1761 C1762 1.523 . S
C1762 C1743 1.368 . S
C1762 C1756 1.368 . S
C1762 C1761 1.523 . S
C1763 C1747 1.429 . S
C1763 C1759 1.429 . S
C1763 C1764 1.523 . S
C1764 C1748 1.368 . S
C1764 C1760 1.368 . S
C1764 C1763 1.523 . S
H1765 C1740 0.950 . S
H1766 C1742 0.950 . S
H1767 C1743 0.949 . S
H1768 C1745 0.950 . S
H1769 C1747 0.950 . S
C1770 C1771 1.349 . S
C1770 C1772 1.327 . S
C1770 H1795 0.950 . S
C1771 C1770 1.349 . S
C1771 C1787 1.349 . S
C1772 C1770 1.327 . S
C1772 C1791 1.429 . S
C1772 H1796 0.950 . S
C1773 C1790 1.574 . S
C1773 C1792 1.368 . S
C1773 H1797 0.949 . S
H1774 C1778 0.949 . S
C1775 C1776 1.349 . S
C1775 C1777 1.327 . S
C1775 H1798 0.950 . S
C1776 C1775 1.349 . S
C1776 C1788 1.349 . S
C1777 C1775 1.327 . S
C1777 C1793 1.429 . S
C1777 H1799 0.950 . S
C1778 H1774 0.949 . S
C1778 C1786 1.574 . S
C1778 C1794 1.368 . S
H1779 C1787 0.950 . S
H1780 C1785 0.950 . S
H1781 C1786 0.949 . S
H1782 C1788 0.950 . S
H1783 C1789 0.950 . S
H1784 C1790 0.949 . S
C1785 H1780 0.950 . S
C1785 C1787 1.327 . S
C1785 C1791 1.429 . S
C1786 C1778 1.574 . S
C1786 H1781 0.949 . S
C1786 C1792 1.368 . S
C1787 C1771 1.349 . S
C1787 H1779 0.950 . S
C1787 C1785 1.327 . S
C1788 C1776 1.349 . S
C1788 H1782 0.950 . S
C1788 C1789 1.327 . S
C1789 H1783 0.950 . S
C1789 C1788 1.327 . S
C1789 C1793 1.429 . S
C1790 C1773 1.574 . S
C1790 H1784 0.949 . S
C1790 C1794 1.368 . S
C1791 C1772 1.429 . S
C1791 C1785 1.429 . S
C1791 C1792 1.523 . S
C1792 C1773 1.368 . S
C1792 C1786 1.368 . S
C1792 C1791 1.523 . S
C1793 C1777 1.429 . S
C1793 C1789 1.429 . S
C1793 C1794 1.523 . S
C1794 C1778 1.368 . S
C1794 C1790 1.368 . S
C1794 C1793 1.523 . S
H1795 C1770 0.950 . S
H1796 C1772 0.950 . S
H1797 C1773 0.949 . S
H1798 C1775 0.950 . S
H1799 C1777 0.950 . S
C1800 C1801 1.349 . S
C1800 C1802 1.327 . S
C1800 H1825 0.950 1_455 S
C1801 C1800 1.349 . S
C1801 C1817 1.349 . S
C1802 C1800 1.327 . S
C1802 C1821 1.429 . S
C1802 H1826 0.950 1_455 S
C1803 C1820 1.574 . S
C1803 C1822 1.368 . S
C1803 H1827 0.949 . S
H1804 C1808 0.925 1_655 S
C1805 C1806 1.349 . S
C1805 C1807 1.327 . S
C1805 H1828 0.950 . S
C1806 C1805 1.349 . S
C1806 C1818 1.349 . S
C1807 C1805 1.327 . S
C1807 C1823 1.429 . S
C1807 H1829 0.950 . S
C1808 H1804 0.925 1_455 S
C1808 C1816 1.574 . S
C1808 C1824 1.368 . S
H1809 C1817 0.950 . S
H1810 C1815 0.950 . S
H1811 C1816 0.949 1_655 S
H1812 C1818 0.950 . S
H1813 C1819 0.973 . S
H1814 C1820 0.949 . S
C1815 H1810 0.950 . S
C1815 C1817 1.327 . S
C1815 C1821 1.429 . S
C1816 C1808 1.574 . S
C1816 H1811 0.949 1_455 S
C1816 C1822 1.368 . S
C1817 C1801 1.349 . S
C1817 H1809 0.950 . S
C1817 C1815 1.327 . S
C1818 C1806 1.349 . S
C1818 H1812 0.950 . S
C1818 C1819 1.327 . S
C1819 H1813 0.973 . S
C1819 C1818 1.327 . S
C1819 C1823 1.429 . S
C1820 C1803 1.574 . S
C1820 H1814 0.949 . S
C1820 C1824 1.368 . S
C1821 C1802 1.429 . S
C1821 C1815 1.429 . S
C1821 C1822 1.523 . S
C1822 C1803 1.368 . S
C1822 C1816 1.368 . S
C1822 C1821 1.523 . S
C1823 C1807 1.429 . S
C1823 C1819 1.429 . S
C1823 C1824 1.523 . S
C1824 C1808 1.368 . S
C1824 C1820 1.368 . S
C1824 C1823 1.523 . S
H1825 C1800 0.950 1_655 S
H1826 C1802 0.950 1_655 S
H1827 C1803 0.949 . S
H1828 C1805 0.950 . S
H1829 C1807 0.950 . S
C1830 C1831 1.349 . S
C1830 C1832 1.327 . S
C1830 H1855 0.950 . S
C1831 C1830 1.349 . S
C1831 C1847 1.349 . S
C1832 C1830 1.327 . S
C1832 C1851 1.429 . S
C1832 H1856 0.950 . S
C1833 C1850 1.574 . S
C1833 C1852 1.368 . S
C1833 H1857 0.949 . S
H1834 C1838 0.949 . S
C1835 C1836 1.349 . S
C1835 C1837 1.327 . S
C1835 H1858 0.950 . S
C1836 C1835 1.349 . S
C1836 C1848 1.349 . S
C1837 C1835 1.327 . S
C1837 C1853 1.429 . S
C1837 H1859 0.950 . S
C1838 H1834 0.949 . S
C1838 C1846 1.574 . S
C1838 C1854 1.368 . S
H1839 C1847 0.950 . S
H1840 C1845 0.950 . S
H1841 C1846 0.949 . S
H1842 C1848 0.950 . S
H1843 C1849 0.950 . S
H1844 C1850 0.949 . S
C1845 H1840 0.950 . S
C1845 C1847 1.327 . S
C1845 C1851 1.429 . S
C1846 C1838 1.574 . S
C1846 H1841 0.949 . S
C1846 C1852 1.368 . S
C1847 C1831 1.349 . S
C1847 H1839 0.950 . S
C1847 C1845 1.327 . S
C1848 C1836 1.349 . S
C1848 H1842 0.950 . S
C1848 C1849 1.327 . S
C1849 H1843 0.950 . S
C1849 C1848 1.327 . S
C1849 C1853 1.429 . S
C1850 C1833 1.574 . S
C1850 H1844 0.949 . S
C1850 C1854 1.368 . S
C1851 C1832 1.429 . S
C1851 C1845 1.429 . S
C1851 C1852 1.523 . S
C1852 C1833 1.368 . S
C1852 C1846 1.368 . S
C1852 C1851 1.523 . S
C1853 C1837 1.429 . S
C1853 C1849 1.429 . S
C1853 C1854 1.523 . S
C1854 C1838 1.368 . S
C1854 C1850 1.368 . S
C1854 C1853 1.523 . S
H1855 C1830 0.950 . S
H1856 C1832 0.950 . S
H1857 C1833 0.949 . S
H1858 C1835 0.950 . S
H1859 C1837 0.950 . S
C1860 C1861 1.349 . S
C1860 C1862 1.327 . S
C1860 H1885 0.950 . S
C1861 C1860 1.349 . S
C1861 C1877 1.349 . S
C1862 C1860 1.327 . S
C1862 C1881 1.429 . S
C1862 H1886 0.950 . S
C1863 C1880 1.574 . S
C1863 C1882 1.368 . S
C1863 H1887 0.949 . S
H1864 C1868 0.949 . S
C1865 C1866 1.349 . S
C1865 C1867 1.327 . S
C1865 H1888 0.950 . S
C1866 C1865 1.349 . S
C1866 C1878 1.349 . S
C1867 C1865 1.327 . S
C1867 C1883 1.429 . S
C1867 H1889 0.950 . S
C1868 H1864 0.949 . S
C1868 C1876 1.574 . S
C1868 C1884 1.368 . S
H1869 C1877 0.950 . S
H1870 C1875 0.950 . S
H1871 C1876 0.949 . S
H1872 C1878 0.950 . S
H1873 C1879 0.950 . S
H1874 C1880 0.949 . S
C1875 H1870 0.950 . S
C1875 C1877 1.327 . S
C1875 C1881 1.429 . S
C1876 C1868 1.574 . S
C1876 H1871 0.949 . S
C1876 C1882 1.368 . S
C1877 C1861 1.349 . S
C1877 H1869 0.950 . S
C1877 C1875 1.327 . S
C1878 C1866 1.349 . S
C1878 H1872 0.950 . S
C1878 C1879 1.327 . S
C1879 H1873 0.950 . S
C1879 C1878 1.327 . S
C1879 C1883 1.429 . S
C1880 C1863 1.574 . S
C1880 H1874 0.949 . S
C1880 C1884 1.368 . S
C1881 C1862 1.429 . S
C1881 C1875 1.429 . S
C1881 C1882 1.523 . S
C1882 C1863 1.368 . S
C1882 C1876 1.368 . S
C1882 C1881 1.523 . S
C1883 C1867 1.429 . S
C1883 C1879 1.429 . S
C1883 C1884 1.523 . S
C1884 C1868 1.368 . S
C1884 C1880 1.368 . S
C1884 C1883 1.523 . S
H1885 C1860 0.950 . S
H1886 C1862 0.950 . S
H1887 C1863 0.949 . S
H1888 C1865 0.950 . S
H1889 C1867 0.950 . S
C1890 C1891 1.349 . S
C1890 C1892 1.327 . S
C1890 H1915 0.950 . S
C1891 C1890 1.349 . S
C1891 C1907 1.349 . S
C1892 C1890 1.327 . S
C1892 C1911 1.429 . S
C1892 H1916 0.950 . S
C1893 C1910 1.574 . S
C1893 C1912 1.368 . S
C1893 H1917 0.949 . S
H1894 C1898 0.949 . S
C1895 C1896 1.349 . S
C1895 C1897 1.327 . S
C1895 H1918 0.950 . S
C1896 C1895 1.349 . S
C1896 C1908 1.349 . S
C1897 C1895 1.327 . S
C1897 C1913 1.429 . S
C1897 H1919 0.950 . S
C1898 H1894 0.949 . S
C1898 C1906 1.574 . S
C1898 C1914 1.368 . S
H1899 C1907 0.950 . S
H1900 C1905 0.950 . S
H1901 C1906 0.949 . S
H1902 C1908 0.950 . S
H1903 C1909 0.950 . S
H1904 C1910 0.949 . S
C1905 H1900 0.950 . S
C1905 C1907 1.327 . S
C1905 C1911 1.429 . S
C1906 C1898 1.574 . S
C1906 H1901 0.949 . S
C1906 C1912 1.368 . S
C1907 C1891 1.349 . S
C1907 H1899 0.950 . S
C1907 C1905 1.327 . S
C1908 C1896 1.349 . S
C1908 H1902 0.950 . S
C1908 C1909 1.327 . S
C1909 H1903 0.950 . S
C1909 C1908 1.327 . S
C1909 C1913 1.429 . S
C1910 C1893 1.574 . S
C1910 H1904 0.949 . S
C1910 C1914 1.368 . S
C1911 C1892 1.429 . S
C1911 C1905 1.429 . S
C1911 C1912 1.523 . S
C1912 C1893 1.368 . S
C1912 C1906 1.368 . S
C1912 C1911 1.523 . S
C1913 C1897 1.429 . S
C1913 C1909 1.429 . S
C1913 C1914 1.523 . S
C1914 C1898 1.368 . S
C1914 C1910 1.368 . S
C1914 C1913 1.523 . S
H1915 C1890 0.950 . S
H1916 C1892 0.950 . S
H1917 C1893 0.949 . S
H1918 C1895 0.950 . S
H1919 C1897 0.950 . S
C1920 C1921 1.349 . S
C1920 C1922 1.327 . S
C1920 H1945 0.950 1_545 S
C1921 C1920 1.349 . S
C1921 C1937 1.349 . S
C1922 C1920 1.327 . S
C1922 C1941 1.429 . S
C1922 H1946 0.950 1_545 S
C1923 C1940 1.574 . S
C1923 C1942 1.368 . S
C1923 H1947 0.949 . S
H1924 C1928 0.967 . S
C1925 C1926 1.349 . S
C1925 C1927 1.327 . S
C1925 H1948 0.950 . S
C1926 C1925 1.349 . S
C1926 C1938 1.349 1_455 S
C1927 C1925 1.327 . S
C1927 C1943 1.429 1_455 S
C1927 H1949 0.950 . S
C1928 H1924 0.967 . S
C1928 C1936 1.574 . S
C1928 C1944 1.368 . S
H1929 C1937 0.950 . S
H1930 C1935 0.950 . S
H1931 C1936 0.949 1_565 S
H1932 C1938 0.950 . S
H1933 C1939 0.950 . S
H1934 C1940 0.949 . S
C1935 H1930 0.950 . S
C1935 C1937 1.327 . S
C1935 C1941 1.429 . S
C1936 C1928 1.574 . S
C1936 H1931 0.949 1_545 S
C1936 C1942 1.368 . S
C1937 C1921 1.349 . S
C1937 H1929 0.950 . S
C1937 C1935 1.327 . S
C1938 C1926 1.349 1_655 S
C1938 H1932 0.950 . S
C1938 C1939 1.327 . S
C1939 H1933 0.950 . S
C1939 C1938 1.327 . S
C1939 C1943 1.429 . S
C1940 C1923 1.574 . S
C1940 H1934 0.949 . S
C1940 C1944 1.368 . S
C1941 C1922 1.429 . S
C1941 C1935 1.429 . S
C1941 C1942 1.523 . S
C1942 C1923 1.368 . S
C1942 C1936 1.368 . S
C1942 C1941 1.523 . S
C1943 C1927 1.429 1_655 S
C1943 C1939 1.429 . S
C1943 C1944 1.523 . S
C1944 C1928 1.368 . S
C1944 C1940 1.368 . S
C1944 C1943 1.523 . S
H1945 C1920 0.950 1_565 S
H1946 C1922 0.950 1_565 S
H1947 C1923 0.949 . S
H1948 C1925 0.950 . S
H1949 C1927 0.950 . S
C1950 C1951 1.349 . S
C1950 C1952 1.327 . S
C1950 H1975 0.950 . S
C1951 C1950 1.349 . S
C1951 C1967 1.349 . S
C1952 C1950 1.327 . S
C1952 C1971 1.429 . S
C1952 H1976 0.950 . S
C1953 C1970 1.574 . S
C1953 C1972 1.368 . S
C1953 H1977 0.949 . S
H1954 C1958 0.949 . S
C1955 C1956 1.349 . S
C1955 C1957 1.327 . S
C1955 H1978 0.950 . S
C1956 C1955 1.349 . S
C1956 C1968 1.349 . S
C1957 C1955 1.327 . S
C1957 C1973 1.429 . S
C1957 H1979 0.950 . S
C1958 H1954 0.949 . S
C1958 C1966 1.574 . S
C1958 C1974 1.368 . S
H1959 C1967 0.950 . S
H1960 C1965 0.950 . S
H1961 C1966 0.949 . S
H1962 C1968 0.950 . S
H1963 C1969 0.950 . S
H1964 C1970 0.949 . S
C1965 H1960 0.950 . S
C1965 C1967 1.327 . S
C1965 C1971 1.429 . S
C1966 C1958 1.574 . S
C1966 H1961 0.949 . S
C1966 C1972 1.368 . S
C1967 C1951 1.349 . S
C1967 H1959 0.950 . S
C1967 C1965 1.327 . S
C1968 C1956 1.349 . S
C1968 H1962 0.950 . S
C1968 C1969 1.327 . S
C1969 H1963 0.950 . S
C1969 C1968 1.327 . S
C1969 C1973 1.429 . S
C1970 C1953 1.574 . S
C1970 H1964 0.949 . S
C1970 C1974 1.368 . S
C1971 C1952 1.429 . S
C1971 C1965 1.429 . S
C1971 C1972 1.523 . S
C1972 C1953 1.368 . S
C1972 C1966 1.368 . S
C1972 C1971 1.523 . S
C1973 C1957 1.429 . S
C1973 C1969 1.429 . S
C1973 C1974 1.523 . S
C1974 C1958 1.368 . S
C1974 C1970 1.368 . S
C1974 C1973 1.523 . S
H1975 C1950 0.950 . S
H1976 C1952 0.950 . S
H1977 C1953 0.949 . S
H1978 C1955 0.950 . S
H1979 C1957 0.950 . S
C1980 C1981 1.349 . S
C1980 C1982 1.327 . S
C1980 H2005 0.950 . S
C1981 C1980 1.349 . S
C1981 C1997 1.349 . S
C1982 C1980 1.327 . S
C1982 C2001 1.429 . S
C1982 H2006 0.950 . S
C1983 C2000 1.574 . S
C1983 C2002 1.368 . S
C1983 H2007 0.949 . S
H1984 C1988 0.949 . S
C1985 C1986 1.349 . S
C1985 C1987 1.327 . S
C1985 H2008 0.950 1_545 S
C1986 C1985 1.349 . S
C1986 C1998 1.349 . S
C1987 C1985 1.327 . S
C1987 C2003 1.429 . S
C1987 H2009 0.950 1_545 S
C1988 H1984 0.949 . S
C1988 C1996 1.574 . S
C1988 C2004 1.368 . S
H1989 C1997 0.950 . S
H1990 C1995 0.950 . S
H1991 C1996 0.949 . S
H1992 C1998 0.950 . S
H1993 C1999 0.950 . S
H1994 C2000 0.949 . S
C1995 H1990 0.950 . S
C1995 C1997 1.327 . S
C1995 C2001 1.429 . S
C1996 C1988 1.574 . S
C1996 H1991 0.949 . S
C1996 C2002 1.368 . S
C1997 C1981 1.349 . S
C1997 H1989 0.950 . S
C1997 C1995 1.327 . S
C1998 C1986 1.349 . S
C1998 H1992 0.950 . S
C1998 C1999 1.327 . S
C1999 H1993 0.950 . S
C1999 C1998 1.327 . S
C1999 C2003 1.429 . S
C2000 C1983 1.574 . S
C2000 H1994 0.949 . S
C2000 C2004 1.368 . S
C2001 C1982 1.429 . S
C2001 C1995 1.429 . S
C2001 C2002 1.523 . S
C2002 C1983 1.368 . S
C2002 C1996 1.368 . S
C2002 C2001 1.523 . S
C2003 C1987 1.429 . S
C2003 C1999 1.429 . S
C2003 C2004 1.523 . S
C2004 C1988 1.368 . S
C2004 C2000 1.368 . S
C2004 C2003 1.523 . S
H2005 C1980 0.950 . S
H2006 C1982 0.950 . S
H2007 C1983 0.949 . S
H2008 C1985 0.950 1_565 S
H2009 C1987 0.950 1_565 S
C2010 C2011 1.349 . S
C2010 C2012 1.327 . S
C2010 H2035 0.950 . S
C2011 C2010 1.349 . S
C2011 C2027 1.349 . S
C2012 C2010 1.327 . S
C2012 C2031 1.429 . S
C2012 H2036 0.950 . S
C2013 C2030 1.574 . S
C2013 C2032 1.368 . S
C2013 H2037 0.949 . S
H2014 C2018 0.949 . S
C2015 C2016 1.349 . S
C2015 C2017 1.327 . S
C2015 H2038 0.950 . S
C2016 C2015 1.349 . S
C2016 C2028 1.349 . S
C2017 C2015 1.327 . S
C2017 C2033 1.429 . S
C2017 H2039 0.950 . S
C2018 H2014 0.949 . S
C2018 C2026 1.574 . S
C2018 C2034 1.368 . S
H2019 C2027 0.950 . S
H2020 C2025 0.950 . S
H2021 C2026 0.949 . S
H2022 C2028 0.950 . S
H2023 C2029 0.950 . S
H2024 C2030 0.949 . S
C2025 H2020 0.950 . S
C2025 C2027 1.327 . S
C2025 C2031 1.429 . S
C2026 C2018 1.574 . S
C2026 H2021 0.949 . S
C2026 C2032 1.368 . S
C2027 C2011 1.349 . S
C2027 H2019 0.950 . S
C2027 C2025 1.327 . S
C2028 C2016 1.349 . S
C2028 H2022 0.950 . S
C2028 C2029 1.327 . S
C2029 H2023 0.950 . S
C2029 C2028 1.327 . S
C2029 C2033 1.429 . S
C2030 C2013 1.574 . S
C2030 H2024 0.949 . S
C2030 C2034 1.368 . S
C2031 C2012 1.429 . S
C2031 C2025 1.429 . S
C2031 C2032 1.523 . S
C2032 C2013 1.368 . S
C2032 C2026 1.368 . S
C2032 C2031 1.523 . S
C2033 C2017 1.429 . S
C2033 C2029 1.429 . S
C2033 C2034 1.523 . S
C2034 C2018 1.368 . S
C2034 C2030 1.368 . S
C2034 C2033 1.523 . S
H2035 C2010 0.950 . S
H2036 C2012 0.950 . S
H2037 C2013 0.949 . S
H2038 C2015 0.950 . S
H2039 C2017 0.950 . S
C2040 C2041 1.349 . S
C2040 C2042 1.327 . S
C2040 H2065 0.950 . S
C2041 C2040 1.349 . S
C2041 C2057 1.349 . S
C2042 C2040 1.327 . S
C2042 C2061 1.429 . S
C2042 H2066 0.950 . S
C2043 C2060 1.574 . S
C2043 C2062 1.368 . S
C2043 H2067 0.949 . S
H2044 C2048 0.949 1_455 S
C2045 C2046 1.349 1_655 S
C2045 C2047 1.327 . S
C2045 H2068 0.950 . S
C2046 C2045 1.349 1_455 S
C2046 C2058 1.349 . S
C2047 C2045 1.327 . S
C2047 C2063 1.429 . S
C2047 H2069 0.950 . S
C2048 H2044 0.949 1_655 S
C2048 C2056 1.574 . S
C2048 C2064 1.368 . S
H2049 C2057 0.950 . S
H2050 C2055 0.950 . S
H2051 C2056 0.949 . S
H2052 C2058 0.950 . S
H2053 C2059 0.950 . S
H2054 C2060 0.949 . S
C2055 H2050 0.950 . S
C2055 C2057 1.327 . S
C2055 C2061 1.429 . S
C2056 C2048 1.574 . S
C2056 H2051 0.949 . S
C2056 C2062 1.368 . S
C2057 C2041 1.349 . S
C2057 H2049 0.950 . S
C2057 C2055 1.327 . S
C2058 C2046 1.349 . S
C2058 H2052 0.950 . S
C2058 C2059 1.327 . S
C2059 H2053 0.950 . S
C2059 C2058 1.327 . S
C2059 C2063 1.429 1_455 S
C2060 C2043 1.574 . S
C2060 H2054 0.949 . S
C2060 C2064 1.368 . S
C2061 C2042 1.429 . S
C2061 C2055 1.429 . S
C2061 C2062 1.523 . S
C2062 C2043 1.368 . S
C2062 C2056 1.368 . S
C2062 C2061 1.523 . S
C2063 C2047 1.429 . S
C2063 C2059 1.429 1_655 S
C2063 C2064 1.523 . S
C2064 C2048 1.368 . S
C2064 C2060 1.368 . S
C2064 C2063 1.523 . S
H2065 C2040 0.950 . S
H2066 C2042 0.950 . S
H2067 C2043 0.949 . S
H2068 C2045 0.950 . S
H2069 C2047 0.950 . S
C2070 C2071 1.349 . S
C2070 C2072 1.327 . S
C2070 H2095 0.950 . S
C2071 C2070 1.349 . S
C2071 C2087 1.349 . S
C2072 C2070 1.327 . S
C2072 C2091 1.429 . S
C2072 H2096 0.950 . S
C2073 C2090 1.574 . S
C2073 C2092 1.368 . S
C2073 H2097 0.949 . S
H2074 C2078 0.949 . S
C2075 C2076 1.349 . S
C2075 C2077 1.327 . S
C2075 H2098 0.950 . S
C2076 C2075 1.349 . S
C2076 C2088 1.349 . S
C2077 C2075 1.327 . S
C2077 C2093 1.429 . S
C2077 H2099 0.950 . S
C2078 H2074 0.949 . S
C2078 C2086 1.574 . S
C2078 C2094 1.368 . S
H2079 C2087 0.950 . S
H2080 C2085 0.950 . S
H2081 C2086 0.949 . S
H2082 C2088 0.950 . S
H2083 C2089 0.950 . S
H2084 C2090 0.949 . S
C2085 H2080 0.950 . S
C2085 C2087 1.327 . S
C2085 C2091 1.429 . S
C2086 C2078 1.574 . S
C2086 H2081 0.949 . S
C2086 C2092 1.368 . S
C2087 C2071 1.349 . S
C2087 H2079 0.950 . S
C2087 C2085 1.327 . S
C2088 C2076 1.349 . S
C2088 H2082 0.950 . S
C2088 C2089 1.327 . S
C2089 H2083 0.950 . S
C2089 C2088 1.327 . S
C2089 C2093 1.429 . S
C2090 C2073 1.574 . S
C2090 H2084 0.949 . S
C2090 C2094 1.368 . S
C2091 C2072 1.429 . S
C2091 C2085 1.429 . S
C2091 C2092 1.523 . S
C2092 C2073 1.368 . S
C2092 C2086 1.368 . S
C2092 C2091 1.523 . S
C2093 C2077 1.429 . S
C2093 C2089 1.429 . S
C2093 C2094 1.523 . S
C2094 C2078 1.368 . S
C2094 C2090 1.368 . S
C2094 C2093 1.523 . S
H2095 C2070 0.950 . S
H2096 C2072 0.950 . S
H2097 C2073 0.949 . S
H2098 C2075 0.950 . S
H2099 C2077 0.950 . S
C2100 C2101 1.349 . S
C2100 C2102 1.327 . S
C2100 H2125 0.950 . S
C2101 C2100 1.349 . S
C2101 C2117 1.349 . S
C2102 C2100 1.327 . S
C2102 C2121 1.429 . S
C2102 H2126 0.950 . S
C2103 C2120 1.574 . S
C2103 C2122 1.368 . S
C2103 H2127 0.949 . S
H2104 C2108 0.949 . S
C2105 C2106 1.349 . S
C2105 C2107 1.327 . S
C2105 H2128 0.950 . S
C2106 C2105 1.349 . S
C2106 C2118 1.349 . S
C2107 C2105 1.327 . S
C2107 C2123 1.429 . S
C2107 H2129 0.950 . S
C2108 H2104 0.949 . S
C2108 C2116 1.574 . S
C2108 C2124 1.368 . S
H2109 C2117 0.950 . S
H2110 C2115 0.950 . S
H2111 C2116 0.949 . S
H2112 C2118 0.950 . S
H2113 C2119 0.950 . S
H2114 C2120 0.949 . S
C2115 H2110 0.950 . S
C2115 C2117 1.327 . S
C2115 C2121 1.429 . S
C2116 C2108 1.574 . S
C2116 H2111 0.949 . S
C2116 C2122 1.368 . S
C2117 C2101 1.349 . S
C2117 H2109 0.950 . S
C2117 C2115 1.327 . S
C2118 C2106 1.349 . S
C2118 H2112 0.950 . S
C2118 C2119 1.327 . S
C2119 H2113 0.950 . S
C2119 C2118 1.327 . S
C2119 C2123 1.429 . S
C2120 C2103 1.574 . S
C2120 H2114 0.949 . S
C2120 C2124 1.368 . S
C2121 C2102 1.429 . S
C2121 C2115 1.429 . S
C2121 C2122 1.523 . S
C2122 C2103 1.368 . S
C2122 C2116 1.368 . S
C2122 C2121 1.523 . S
C2123 C2107 1.429 . S
C2123 C2119 1.429 . S
C2123 C2124 1.523 . S
C2124 C2108 1.368 . S
C2124 C2120 1.368 . S
C2124 C2123 1.523 . S
H2125 C2100 0.950 . S
H2126 C2102 0.950 . S
H2127 C2103 0.949 . S
H2128 C2105 0.950 . S
H2129 C2107 0.950 . S
C2130 C2131 1.349 . S
C2130 C2132 1.327 . S
C2130 H2155 0.950 . S
C2131 C2130 1.349 . S
C2131 C2147 1.349 . S
C2132 C2130 1.327 . S
C2132 C2151 1.429 . S
C2132 H2156 0.950 . S
C2133 C2150 1.574 . S
C2133 C2152 1.368 . S
C2133 H2157 0.949 . S
H2134 C2138 0.949 . S
C2135 C2136 1.349 . S
C2135 C2137 1.327 . S
C2135 H2158 0.950 . S
C2136 C2135 1.349 . S
C2136 C2148 1.349 . S
C2137 C2135 1.327 . S
C2137 C2153 1.429 . S
C2137 H2159 0.950 . S
C2138 H2134 0.949 . S
C2138 C2146 1.574 . S
C2138 C2154 1.368 . S
H2139 C2147 0.950 . S
H2140 C2145 0.950 . S
H2141 C2146 0.949 . S
H2142 C2148 0.950 . S
H2143 C2149 0.950 . S
H2144 C2150 0.949 . S
C2145 H2140 0.950 . S
C2145 C2147 1.327 . S
C2145 C2151 1.429 . S
C2146 C2138 1.574 . S
C2146 H2141 0.949 . S
C2146 C2152 1.368 . S
C2147 C2131 1.349 . S
C2147 H2139 0.950 . S
C2147 C2145 1.327 . S
C2148 C2136 1.349 . S
C2148 H2142 0.950 . S
C2148 C2149 1.327 . S
C2149 H2143 0.950 . S
C2149 C2148 1.327 . S
C2149 C2153 1.429 . S
C2150 C2133 1.574 . S
C2150 H2144 0.949 . S
C2150 C2154 1.368 . S
C2151 C2132 1.429 . S
C2151 C2145 1.429 . S
C2151 C2152 1.523 . S
C2152 C2133 1.368 . S
C2152 C2146 1.368 . S
C2152 C2151 1.523 . S
C2153 C2137 1.429 . S
C2153 C2149 1.429 . S
C2153 C2154 1.523 . S
C2154 C2138 1.368 . S
C2154 C2150 1.368 . S
C2154 C2153 1.523 . S
H2155 C2130 0.950 . S
H2156 C2132 0.950 . S
H2157 C2133 0.949 . S
H2158 C2135 0.950 . S
H2159 C2137 0.950 . S
C2160 C2161 1.346 1_556 S
C2160 C2162 1.327 . S
C2160 H2185 0.950 . S
C2161 C2160 1.346 1_554 S
C2161 C2177 1.353 . S
C2162 C2160 1.327 . S
C2162 C2181 1.429 1_556 S
C2162 H2186 0.950 . S
C2163 C2180 1.574 . S
C2163 C2182 1.368 . S
C2163 H2187 0.949 . S
H2164 C2168 0.949 . S
C2165 C2166 1.349 . S
C2165 C2167 1.327 . S
C2165 H2188 0.950 . S
C2166 C2165 1.349 . S
C2166 C2178 1.349 1_565 S
C2167 C2165 1.327 . S
C2167 C2183 1.429 . S
C2167 H2189 0.950 . S
C2168 H2164 0.949 . S
C2168 C2176 1.574 . S
C2168 C2184 1.368 . S
H2169 C2177 0.950 . S
H2170 C2175 0.950 . S
H2171 C2176 0.949 1_556 S
H2172 C2178 0.950 . S
H2173 C2179 0.950 1_545 S
H2174 C2180 0.949 . S
C2175 H2170 0.950 . S
C2175 C2177 1.327 . S
C2175 C2181 1.429 . S
C2176 C2168 1.574 . S
C2176 H2171 0.949 1_554 S
C2176 C2182 1.368 . S
C2177 C2161 1.353 . S
C2177 H2169 0.950 . S
C2177 C2175 1.327 . S
C2178 C2166 1.349 1_545 S
C2178 H2172 0.950 . S
C2178 C2179 1.327 1_545 S
C2179 H2173 0.950 1_565 S
C2179 C2178 1.327 1_565 S
C2179 C2183 1.429 . S
C2180 C2163 1.574 . S
C2180 H2174 0.949 . S
C2180 C2184 1.368 . S
C2181 C2162 1.429 1_554 S
C2181 C2175 1.429 . S
C2181 C2182 1.523 . S
C2182 C2163 1.368 . S
C2182 C2176 1.368 . S
C2182 C2181 1.523 . S
C2183 C2167 1.429 . S
C2183 C2179 1.429 . S
C2183 C2184 1.523 . S
C2184 C2168 1.368 . S
C2184 C2180 1.368 . S
C2184 C2183 1.523 . S
H2185 C2160 0.950 . S
H2186 C2162 0.950 . S
H2187 C2163 0.949 . S
H2188 C2165 0.950 . S
H2189 C2167 0.950 . S
C2190 C2191 1.349 . S
C2190 C2192 1.327 . S
C2190 H2215 0.950 . S
C2191 C2190 1.349 . S
C2191 C2207 1.349 1_554 S
C2192 C2190 1.327 . S
C2192 C2211 1.429 . S
C2192 H2216 0.950 . S
C2193 C2210 1.574 . S
C2193 C2212 1.368 1_556 S
C2193 H2217 0.949 . S
H2194 C2198 0.949 . S
C2195 C2196 1.323 1_556 S
C2195 C2197 1.335 . S
C2195 H2218 0.969 . S
C2196 C2195 1.323 1_554 S
C2196 C2208 1.349 . S
C2197 C2195 1.335 . S
C2197 C2213 1.429 1_556 S
C2197 H2219 0.950 . S
C2198 H2194 0.949 . S
C2198 C2206 1.574 . S
C2198 C2214 1.368 . S
H2199 C2207 0.950 . S
H2200 C2205 0.950 . S
H2201 C2206 0.949 . S
H2202 C2208 0.950 . S
H2203 C2209 0.950 . S
H2204 C2210 0.949 . S
C2205 H2200 0.950 . S
C2205 C2207 1.327 . S
C2205 C2211 1.429 1_556 S
C2206 C2198 1.574 . S
C2206 H2201 0.949 . S
C2206 C2212 1.368 . S
C2207 C2191 1.349 1_556 S
C2207 H2199 0.950 . S
C2207 C2205 1.327 . S
C2208 C2196 1.349 . S
C2208 H2202 0.950 . S
C2208 C2209 1.327 . S
C2209 H2203 0.950 . S
C2209 C2208 1.327 . S
C2209 C2213 1.429 . S
C2210 C2193 1.574 . S
C2210 H2204 0.949 . S
C2210 C2214 1.368 1_556 S
C2211 C2192 1.429 . S
C2211 C2205 1.429 1_554 S
C2211 C2212 1.523 . S
C2212 C2193 1.368 1_554 S
C2212 C2206 1.368 . S
C2212 C2211 1.523 . S
C2213 C2197 1.429 1_554 S
C2213 C2209 1.429 . S
C2213 C2214 1.523 . S
C2214 C2198 1.368 . S
C2214 C2210 1.368 1_554 S
C2214 C2213 1.523 . S
H2215 C2190 0.950 . S
H2216 C2192 0.950 . S
H2217 C2193 0.949 . S
H2218 C2195 0.969 . S
H2219 C2197 0.950 . S
C2220 C2221 1.349 . S
C2220 C2222 1.327 . S
C2220 H2245 0.950 . S
C2221 C2220 1.349 . S
C2221 C2237 1.349 . S
C2222 C2220 1.327 . S
C2222 C2241 1.429 . S
C2222 H2246 0.950 . S
C2223 C2240 1.574 . S
C2223 C2242 1.368 . S
C2223 H2247 0.949 . S
H2224 C2228 0.949 . S
C2225 C2226 1.349 . S
C2225 C2227 1.327 . S
C2225 H2248 0.950 . S
C2226 C2225 1.349 . S
C2226 C2238 1.349 . S
C2227 C2225 1.327 . S
C2227 C2243 1.429 . S
C2227 H2249 0.950 . S
C2228 H2224 0.949 . S
C2228 C2236 1.574 . S
C2228 C2244 1.368 . S
H2229 C2237 0.950 . S
H2230 C2235 0.950 . S
H2231 C2236 0.949 . S
H2232 C2238 0.950 . S
H2233 C2239 0.950 . S
H2234 C2240 0.949 . S
C2235 H2230 0.950 . S
C2235 C2237 1.327 . S
C2235 C2241 1.429 . S
C2236 C2228 1.574 . S
C2236 H2231 0.949 . S
C2236 C2242 1.368 . S
C2237 C2221 1.349 . S
C2237 H2229 0.950 . S
C2237 C2235 1.327 . S
C2238 C2226 1.349 . S
C2238 H2232 0.950 . S
C2238 C2239 1.327 . S
C2239 H2233 0.950 . S
C2239 C2238 1.327 . S
C2239 C2243 1.429 . S
C2240 C2223 1.574 . S
C2240 H2234 0.949 . S
C2240 C2244 1.368 . S
C2241 C2222 1.429 . S
C2241 C2235 1.429 . S
C2241 C2242 1.523 . S
C2242 C2223 1.368 . S
C2242 C2236 1.368 . S
C2242 C2241 1.523 . S
C2243 C2227 1.429 . S
C2243 C2239 1.429 . S
C2243 C2244 1.523 . S
C2244 C2228 1.368 . S
C2244 C2240 1.368 . S
C2244 C2243 1.523 . S
H2245 C2220 0.950 . S
H2246 C2222 0.950 . S
H2247 C2223 0.949 . S
H2248 C2225 0.950 . S
H2249 C2227 0.950 . S
C2250 C2251 1.349 . S
C2250 C2252 1.327 . S
C2250 H2275 0.950 . S
C2251 C2250 1.349 . S
C2251 C2267 1.349 . S
C2252 C2250 1.327 . S
C2252 C2271 1.429 . S
C2252 H2276 0.950 . S
C2253 C2270 1.574 . S
C2253 C2272 1.368 . S
C2253 H2277 0.949 . S
H2254 C2258 0.949 . S
C2255 C2256 1.349 . S
C2255 C2257 1.327 . S
C2255 H2278 0.950 . S
C2256 C2255 1.349 . S
C2256 C2268 1.349 . S
C2257 C2255 1.327 . S
C2257 C2273 1.429 . S
C2257 H2279 0.950 . S
C2258 H2254 0.949 . S
C2258 C2266 1.574 . S
C2258 C2274 1.368 . S
H2259 C2267 0.950 . S
H2260 C2265 0.950 . S
H2261 C2266 0.949 . S
H2262 C2268 0.950 . S
H2263 C2269 0.950 . S
H2264 C2270 0.949 . S
C2265 H2260 0.950 . S
C2265 C2267 1.327 . S
C2265 C2271 1.429 . S
C2266 C2258 1.574 . S
C2266 H2261 0.949 . S
C2266 C2272 1.368 . S
C2267 C2251 1.349 . S
C2267 H2259 0.950 . S
C2267 C2265 1.327 . S
C2268 C2256 1.349 . S
C2268 H2262 0.950 . S
C2268 C2269 1.327 . S
C2269 H2263 0.950 . S
C2269 C2268 1.327 . S
C2269 C2273 1.429 . S
C2270 C2253 1.574 . S
C2270 H2264 0.949 . S
C2270 C2274 1.368 . S
C2271 C2252 1.429 . S
C2271 C2265 1.429 . S
C2271 C2272 1.523 . S
C2272 C2253 1.368 . S
C2272 C2266 1.368 . S
C2272 C2271 1.523 . S
C2273 C2257 1.429 . S
C2273 C2269 1.429 . S
C2273 C2274 1.523 . S
C2274 C2258 1.368 . S
C2274 C2270 1.368 . S
C2274 C2273 1.523 . S
H2275 C2250 0.950 . S
H2276 C2252 0.950 . S
H2277 C2253 0.949 . S
H2278 C2255 0.950 . S
H2279 C2257 0.950 . S
C2280 C2281 1.349 . S
C2280 C2282 1.327 . S
C2280 H2305 0.950 . S
C2281 C2280 1.349 . S
C2281 C2297 1.349 . S
C2282 C2280 1.327 . S
C2282 C2301 1.429 . S
C2282 H2306 0.950 . S
C2283 C2300 1.574 . S
C2283 C2302 1.368 . S
C2283 H2307 0.949 . S
H2284 C2288 0.949 . S
C2285 C2286 1.349 . S
C2285 C2287 1.327 . S
C2285 H2308 0.950 . S
C2286 C2285 1.349 . S
C2286 C2298 1.349 . S
C2287 C2285 1.327 . S
C2287 C2303 1.429 . S
C2287 H2309 0.950 . S
C2288 H2284 0.949 . S
C2288 C2296 1.574 . S
C2288 C2304 1.368 . S
H2289 C2297 0.950 . S
H2290 C2295 0.950 . S
H2291 C2296 0.949 . S
H2292 C2298 0.950 . S
H2293 C2299 0.950 . S
H2294 C2300 0.949 . S
C2295 H2290 0.950 . S
C2295 C2297 1.327 . S
C2295 C2301 1.429 . S
C2296 C2288 1.574 . S
C2296 H2291 0.949 . S
C2296 C2302 1.368 . S
C2297 C2281 1.349 . S
C2297 H2289 0.950 . S
C2297 C2295 1.327 . S
C2298 C2286 1.349 . S
C2298 H2292 0.950 . S
C2298 C2299 1.327 . S
C2299 H2293 0.950 . S
C2299 C2298 1.327 . S
C2299 C2303 1.429 . S
C2300 C2283 1.574 . S
C2300 H2294 0.949 . S
C2300 C2304 1.368 . S
C2301 C2282 1.429 . S
C2301 C2295 1.429 . S
C2301 C2302 1.523 . S
C2302 C2283 1.368 . S
C2302 C2296 1.368 . S
C2302 C2301 1.523 . S
C2303 C2287 1.429 . S
C2303 C2299 1.429 . S
C2303 C2304 1.523 . S
C2304 C2288 1.368 . S
C2304 C2300 1.368 . S
C2304 C2303 1.523 . S
H2305 C2280 0.950 . S
H2306 C2282 0.950 . S
H2307 C2283 0.949 . S
H2308 C2285 0.950 . S
H2309 C2287 0.950 . S
C2310 C2311 1.349 . S
C2310 C2312 1.327 . S
C2310 H2335 0.950 . S
C2311 C2310 1.349 . S
C2311 C2327 1.349 . S
C2312 C2310 1.327 . S
C2312 C2331 1.429 . S
C2312 H2336 0.950 . S
C2313 C2330 1.574 . S
C2313 C2332 1.368 . S
C2313 H2337 0.949 . S
H2314 C2318 0.949 . S
C2315 C2316 1.349 . S
C2315 C2317 1.327 . S
C2315 H2338 0.950 . S
C2316 C2315 1.349 . S
C2316 C2328 1.349 . S
C2317 C2315 1.327 . S
C2317 C2333 1.429 . S
C2317 H2339 0.950 . S
C2318 H2314 0.949 . S
C2318 C2326 1.574 . S
C2318 C2334 1.368 . S
H2319 C2327 0.950 . S
H2320 C2325 0.950 . S
H2321 C2326 0.949 . S
H2322 C2328 0.950 . S
H2323 C2329 0.950 . S
H2324 C2330 0.949 . S
C2325 H2320 0.950 . S
C2325 C2327 1.327 . S
C2325 C2331 1.429 . S
C2326 C2318 1.574 . S
C2326 H2321 0.949 . S
C2326 C2332 1.368 . S
C2327 C2311 1.349 . S
C2327 H2319 0.950 . S
C2327 C2325 1.327 . S
C2328 C2316 1.349 . S
C2328 H2322 0.950 . S
C2328 C2329 1.327 . S
C2329 H2323 0.950 . S
C2329 C2328 1.327 . S
C2329 C2333 1.429 . S
C2330 C2313 1.574 . S
C2330 H2324 0.949 . S
C2330 C2334 1.368 . S
C2331 C2312 1.429 . S
C2331 C2325 1.429 . S
C2331 C2332 1.523 . S
C2332 C2313 1.368 . S
C2332 C2326 1.368 . S
C2332 C2331 1.523 . S
C2333 C2317 1.429 . S
C2333 C2329 1.429 . S
C2333 C2334 1.523 . S
C2334 C2318 1.368 . S
C2334 C2330 1.368 . S
C2334 C2333 1.523 . S
H2335 C2310 0.950 . S
H2336 C2312 0.950 . S
H2337 C2313 0.949 . S
H2338 C2315 0.950 . S
H2339 C2317 0.950 . S
C2340 C2341 1.349 . S
C2340 C2342 1.327 . S
C2340 H2365 0.950 . S
C2341 C2340 1.349 . S
C2341 C2357 1.349 . S
C2342 C2340 1.327 . S
C2342 C2361 1.429 . S
C2342 H2366 0.950 . S
C2343 C2360 1.574 . S
C2343 C2362 1.368 . S
C2343 H2367 0.949 . S
H2344 C2348 0.949 . S
C2345 C2346 1.349 . S
C2345 C2347 1.327 . S
C2345 H2368 0.950 . S
C2346 C2345 1.349 . S
C2346 C2358 1.349 . S
C2347 C2345 1.327 . S
C2347 C2363 1.429 . S
C2347 H2369 0.950 . S
C2348 H2344 0.949 . S
C2348 C2356 1.574 . S
C2348 C2364 1.368 . S
H2349 C2357 0.950 . S
H2350 C2355 0.950 . S
H2351 C2356 0.949 . S
H2352 C2358 0.950 . S
H2353 C2359 0.950 . S
H2354 C2360 0.949 . S
C2355 H2350 0.950 . S
C2355 C2357 1.327 . S
C2355 C2361 1.429 . S
C2356 C2348 1.574 . S
C2356 H2351 0.949 . S
C2356 C2362 1.368 . S
C2357 C2341 1.349 . S
C2357 H2349 0.950 . S
C2357 C2355 1.327 . S
C2358 C2346 1.349 . S
C2358 H2352 0.950 . S
C2358 C2359 1.327 . S
C2359 H2353 0.950 . S
C2359 C2358 1.327 . S
C2359 C2363 1.429 . S
C2360 C2343 1.574 . S
C2360 H2354 0.949 . S
C2360 C2364 1.368 . S
C2361 C2342 1.429 . S
C2361 C2355 1.429 . S
C2361 C2362 1.523 . S
C2362 C2343 1.368 . S
C2362 C2356 1.368 . S
C2362 C2361 1.523 . S
C2363 C2347 1.429 . S
C2363 C2359 1.429 . S
C2363 C2364 1.523 . S
C2364 C2348 1.368 . S
C2364 C2360 1.368 . S
C2364 C2363 1.523 . S
H2365 C2340 0.950 . S
H2366 C2342 0.950 . S
H2367 C2343 0.949 . S
H2368 C2345 0.950 . S
H2369 C2347 0.950 . S
C2370 C2371 1.349 . S
C2370 C2372 1.327 . S
C2370 H2395 0.950 . S
C2371 C2370 1.349 . S
C2371 C2387 1.349 . S
C2372 C2370 1.327 . S
C2372 C2391 1.429 . S
C2372 H2396 0.950 . S
C2373 C2390 1.574 . S
C2373 C2392 1.368 . S
C2373 H2397 0.949 . S
H2374 C2378 0.949 . S
C2375 C2376 1.349 . S
C2375 C2377 1.327 . S
C2375 H2398 0.950 . S
C2376 C2375 1.349 . S
C2376 C2388 1.349 . S
C2377 C2375 1.327 . S
C2377 C2393 1.429 . S
C2377 H2399 0.950 . S
C2378 H2374 0.949 . S
C2378 C2386 1.574 . S
C2378 C2394 1.368 . S
H2379 C2387 0.950 . S
H2380 C2385 0.950 . S
H2381 C2386 0.949 . S
H2382 C2388 0.950 . S
H2383 C2389 0.950 . S
H2384 C2390 0.949 . S
C2385 H2380 0.950 . S
C2385 C2387 1.327 . S
C2385 C2391 1.429 . S
C2386 C2378 1.574 . S
C2386 H2381 0.949 . S
C2386 C2392 1.368 . S
C2387 C2371 1.349 . S
C2387 H2379 0.950 . S
C2387 C2385 1.327 . S
C2388 C2376 1.349 . S
C2388 H2382 0.950 . S
C2388 C2389 1.327 . S
C2389 H2383 0.950 . S
C2389 C2388 1.327 . S
C2389 C2393 1.429 . S
C2390 C2373 1.574 . S
C2390 H2384 0.949 . S
C2390 C2394 1.368 . S
C2391 C2372 1.429 . S
C2391 C2385 1.429 . S
C2391 C2392 1.523 . S
C2392 C2373 1.368 . S
C2392 C2386 1.368 . S
C2392 C2391 1.523 . S
C2393 C2377 1.429 . S
C2393 C2389 1.429 . S
C2393 C2394 1.523 . S
C2394 C2378 1.368 . S
C2394 C2390 1.368 . S
C2394 C2393 1.523 . S
H2395 C2370 0.950 . S
H2396 C2372 0.950 . S
H2397 C2373 0.949 . S
H2398 C2375 0.950 . S
H2399 C2377 0.950 . S
C2400 C2401 1.349 . S
C2400 C2402 1.327 . S
C2400 H2425 0.950 . S
C2401 C2400 1.349 . S
C2401 C2417 1.349 . S
C2402 C2400 1.327 . S
C2402 C2421 1.429 . S
C2402 H2426 0.950 . S
C2403 C2420 1.574 . S
C2403 C2422 1.368 . S
C2403 H2427 0.949 . S
H2404 C2408 0.949 . S
C2405 C2406 1.349 . S
C2405 C2407 1.327 . S
C2405 H2428 0.950 . S
C2406 C2405 1.349 . S
C2406 C2418 1.349 . S
C2407 C2405 1.327 . S
C2407 C2423 1.429 . S
C2407 H2429 0.950 . S
C2408 H2404 0.949 . S
C2408 C2416 1.574 . S
C2408 C2424 1.368 . S
H2409 C2417 0.950 . S
H2410 C2415 0.950 . S
H2411 C2416 0.949 . S
H2412 C2418 0.950 . S
H2413 C2419 0.950 . S
H2414 C2420 0.949 . S
C2415 H2410 0.950 . S
C2415 C2417 1.327 . S
C2415 C2421 1.429 . S
C2416 C2408 1.574 . S
C2416 H2411 0.949 . S
C2416 C2422 1.368 . S
C2417 C2401 1.349 . S
C2417 H2409 0.950 . S
C2417 C2415 1.327 . S
C2418 C2406 1.349 . S
C2418 H2412 0.950 . S
C2418 C2419 1.327 . S
C2419 H2413 0.950 . S
C2419 C2418 1.327 . S
C2419 C2423 1.429 . S
C2420 C2403 1.574 . S
C2420 H2414 0.949 . S
C2420 C2424 1.368 . S
C2421 C2402 1.429 . S
C2421 C2415 1.429 . S
C2421 C2422 1.523 . S
C2422 C2403 1.368 . S
C2422 C2416 1.368 . S
C2422 C2421 1.523 . S
C2423 C2407 1.429 . S
C2423 C2419 1.429 . S
C2423 C2424 1.523 . S
C2424 C2408 1.368 . S
C2424 C2420 1.368 . S
C2424 C2423 1.523 . S
H2425 C2400 0.950 . S
H2426 C2402 0.950 . S
H2427 C2403 0.949 . S
H2428 C2405 0.950 . S
H2429 C2407 0.950 . S
C2430 C2431 1.349 . S
C2430 C2432 1.327 . S
C2430 H2455 0.950 . S
C2431 C2430 1.349 . S
C2431 C2447 1.349 . S
C2432 C2430 1.327 . S
C2432 C2451 1.429 . S
C2432 H2456 0.950 . S
C2433 C2450 1.574 . S
C2433 C2452 1.368 . S
C2433 H2457 0.949 . S
H2434 C2438 0.949 . S
C2435 C2436 1.349 . S
C2435 C2437 1.327 . S
C2435 H2458 0.950 . S
C2436 C2435 1.349 . S
C2436 C2448 1.349 . S
C2437 C2435 1.327 . S
C2437 C2453 1.429 . S
C2437 H2459 0.950 . S
C2438 H2434 0.949 . S
C2438 C2446 1.574 . S
C2438 C2454 1.368 . S
H2439 C2447 0.950 . S
H2440 C2445 0.950 . S
H2441 C2446 0.949 . S
H2442 C2448 0.950 . S
H2443 C2449 0.950 . S
H2444 C2450 0.949 . S
C2445 H2440 0.950 . S
C2445 C2447 1.327 . S
C2445 C2451 1.429 . S
C2446 C2438 1.574 . S
C2446 H2441 0.949 . S
C2446 C2452 1.368 . S
C2447 C2431 1.349 . S
C2447 H2439 0.950 . S
C2447 C2445 1.327 . S
C2448 C2436 1.349 . S
C2448 H2442 0.950 . S
C2448 C2449 1.327 . S
C2449 H2443 0.950 . S
C2449 C2448 1.327 . S
C2449 C2453 1.429 . S
C2450 C2433 1.574 . S
C2450 H2444 0.949 . S
C2450 C2454 1.368 . S
C2451 C2432 1.429 . S
C2451 C2445 1.429 . S
C2451 C2452 1.523 . S
C2452 C2433 1.368 . S
C2452 C2446 1.368 . S
C2452 C2451 1.523 . S
C2453 C2437 1.429 . S
C2453 C2449 1.429 . S
C2453 C2454 1.523 . S
C2454 C2438 1.368 . S
C2454 C2450 1.368 . S
C2454 C2453 1.523 . S
H2455 C2430 0.950 . S
H2456 C2432 0.950 . S
H2457 C2433 0.949 . S
H2458 C2435 0.950 . S
H2459 C2437 0.950 . S
C2460 C2461 1.349 . S
C2460 C2462 1.327 . S
C2460 H2485 0.950 . S
C2461 C2460 1.349 . S
C2461 C2477 1.349 . S
C2462 C2460 1.327 . S
C2462 C2481 1.429 . S
C2462 H2486 0.950 . S
C2463 C2480 1.574 . S
C2463 C2482 1.368 . S
C2463 H2487 0.949 . S
H2464 C2468 0.949 . S
C2465 C2466 1.349 . S
C2465 C2467 1.327 . S
C2465 H2488 0.950 . S
C2466 C2465 1.349 . S
C2466 C2478 1.349 . S
C2467 C2465 1.327 . S
C2467 C2483 1.429 . S
C2467 H2489 0.950 . S
C2468 H2464 0.949 . S
C2468 C2476 1.574 . S
C2468 C2484 1.368 . S
H2469 C2477 0.950 . S
H2470 C2475 0.950 . S
H2471 C2476 0.949 . S
H2472 C2478 0.950 . S
H2473 C2479 0.950 . S
H2474 C2480 0.949 . S
C2475 H2470 0.950 . S
C2475 C2477 1.327 . S
C2475 C2481 1.429 . S
C2476 C2468 1.574 . S
C2476 H2471 0.949 . S
C2476 C2482 1.368 . S
C2477 C2461 1.349 . S
C2477 H2469 0.950 . S
C2477 C2475 1.327 . S
C2478 C2466 1.349 . S
C2478 H2472 0.950 . S
C2478 C2479 1.327 . S
C2479 H2473 0.950 . S
C2479 C2478 1.327 . S
C2479 C2483 1.429 . S
C2480 C2463 1.574 . S
C2480 H2474 0.949 . S
C2480 C2484 1.368 . S
C2481 C2462 1.429 . S
C2481 C2475 1.429 . S
C2481 C2482 1.523 . S
C2482 C2463 1.368 . S
C2482 C2476 1.368 . S
C2482 C2481 1.523 . S
C2483 C2467 1.429 . S
C2483 C2479 1.429 . S
C2483 C2484 1.523 . S
C2484 C2468 1.368 . S
C2484 C2480 1.368 . S
C2484 C2483 1.523 . S
H2485 C2460 0.950 . S
H2486 C2462 0.950 . S
H2487 C2463 0.949 . S
H2488 C2465 0.950 . S
H2489 C2467 0.950 . S
C2490 C2491 1.349 . S
C2490 C2492 1.327 . S
C2490 H2515 0.950 . S
C2491 C2490 1.349 . S
C2491 C2507 1.349 . S
C2492 C2490 1.327 . S
C2492 C2511 1.429 . S
C2492 H2516 0.950 . S
C2493 C2510 1.574 . S
C2493 C2512 1.368 . S
C2493 H2517 0.949 . S
H2494 C2498 0.949 . S
C2495 C2496 1.349 . S
C2495 C2497 1.327 . S
C2495 H2518 0.950 . S
C2496 C2495 1.349 . S
C2496 C2508 1.349 . S
C2497 C2495 1.327 . S
C2497 C2513 1.429 . S
C2497 H2519 0.950 . S
C2498 H2494 0.949 . S
C2498 C2506 1.574 . S
C2498 C2514 1.368 . S
H2499 C2507 0.950 . S
H2500 C2505 0.950 . S
H2501 C2506 0.949 . S
H2502 C2508 0.950 . S
H2503 C2509 0.950 . S
H2504 C2510 0.949 . S
C2505 H2500 0.950 . S
C2505 C2507 1.327 . S
C2505 C2511 1.429 . S
C2506 C2498 1.574 . S
C2506 H2501 0.949 . S
C2506 C2512 1.368 . S
C2507 C2491 1.349 . S
C2507 H2499 0.950 . S
C2507 C2505 1.327 . S
C2508 C2496 1.349 . S
C2508 H2502 0.950 . S
C2508 C2509 1.327 . S
C2509 H2503 0.950 . S
C2509 C2508 1.327 . S
C2509 C2513 1.429 . S
C2510 C2493 1.574 . S
C2510 H2504 0.949 . S
C2510 C2514 1.368 . S
C2511 C2492 1.429 . S
C2511 C2505 1.429 . S
C2511 C2512 1.523 . S
C2512 C2493 1.368 . S
C2512 C2506 1.368 . S
C2512 C2511 1.523 . S
C2513 C2497 1.429 . S
C2513 C2509 1.429 . S
C2513 C2514 1.523 . S
C2514 C2498 1.368 . S
C2514 C2510 1.368 . S
C2514 C2513 1.523 . S
H2515 C2490 0.950 . S
H2516 C2492 0.950 . S
H2517 C2493 0.949 . S
H2518 C2495 0.950 . S
H2519 C2497 0.950 . S
C2520 C2521 1.349 . S
C2520 C2522 1.327 . S
C2520 H2545 0.950 . S
C2521 C2520 1.349 . S
C2521 C2537 1.349 . S
C2522 C2520 1.327 . S
C2522 C2541 1.429 . S
C2522 H2546 0.950 . S
C2523 C2540 1.574 . S
C2523 C2542 1.368 . S
C2523 H2547 0.949 . S
H2524 C2528 0.949 . S
C2525 C2526 1.349 . S
C2525 C2527 1.327 . S
C2525 H2548 0.950 . S
C2526 C2525 1.349 . S
C2526 C2538 1.349 . S
C2527 C2525 1.327 . S
C2527 C2543 1.429 . S
C2527 H2549 0.950 . S
C2528 H2524 0.949 . S
C2528 C2536 1.574 . S
C2528 C2544 1.368 . S
H2529 C2537 0.950 . S
H2530 C2535 0.950 . S
H2531 C2536 0.949 . S
H2532 C2538 0.950 . S
H2533 C2539 0.950 . S
H2534 C2540 0.949 . S
C2535 H2530 0.950 . S
C2535 C2537 1.327 . S
C2535 C2541 1.429 . S
C2536 C2528 1.574 . S
C2536 H2531 0.949 . S
C2536 C2542 1.368 . S
C2537 C2521 1.349 . S
C2537 H2529 0.950 . S
C2537 C2535 1.327 . S
C2538 C2526 1.349 . S
C2538 H2532 0.950 . S
C2538 C2539 1.327 . S
C2539 H2533 0.950 . S
C2539 C2538 1.327 . S
C2539 C2543 1.429 . S
C2540 C2523 1.574 . S
C2540 H2534 0.949 . S
C2540 C2544 1.368 . S
C2541 C2522 1.429 . S
C2541 C2535 1.429 . S
C2541 C2542 1.523 . S
C2542 C2523 1.368 . S
C2542 C2536 1.368 . S
C2542 C2541 1.523 . S
C2543 C2527 1.429 . S
C2543 C2539 1.429 . S
C2543 C2544 1.523 . S
C2544 C2528 1.368 . S
C2544 C2540 1.368 . S
C2544 C2543 1.523 . S
H2545 C2520 0.950 . S
H2546 C2522 0.950 . S
H2547 C2523 0.949 . S
H2548 C2525 0.950 . S
H2549 C2527 0.950 . S
C2550 C2551 1.349 . S
C2550 C2552 1.327 . S
C2550 H2575 0.950 . S
C2551 C2550 1.349 . S
C2551 C2567 1.349 . S
C2552 C2550 1.327 . S
C2552 C2571 1.429 . S
C2552 H2576 0.950 . S
C2553 C2570 1.574 . S
C2553 C2572 1.368 . S
C2553 H2577 0.949 . S
H2554 C2558 0.949 . S
C2555 C2556 1.349 . S
C2555 C2557 1.327 . S
C2555 H2578 0.950 . S
C2556 C2555 1.349 . S
C2556 C2568 1.349 . S
C2557 C2555 1.327 . S
C2557 C2573 1.429 . S
C2557 H2579 0.950 . S
C2558 H2554 0.949 . S
C2558 C2566 1.574 . S
C2558 C2574 1.368 . S
H2559 C2567 0.950 . S
H2560 C2565 0.950 . S
H2561 C2566 0.949 . S
H2562 C2568 0.950 . S
H2563 C2569 0.950 . S
H2564 C2570 0.949 . S
C2565 H2560 0.950 . S
C2565 C2567 1.327 . S
C2565 C2571 1.429 . S
C2566 C2558 1.574 . S
C2566 H2561 0.949 . S
C2566 C2572 1.368 . S
C2567 C2551 1.349 . S
C2567 H2559 0.950 . S
C2567 C2565 1.327 . S
C2568 C2556 1.349 . S
C2568 H2562 0.950 . S
C2568 C2569 1.327 . S
C2569 H2563 0.950 . S
C2569 C2568 1.327 . S
C2569 C2573 1.429 . S
C2570 C2553 1.574 . S
C2570 H2564 0.949 . S
C2570 C2574 1.368 . S
C2571 C2552 1.429 . S
C2571 C2565 1.429 . S
C2571 C2572 1.523 . S
C2572 C2553 1.368 . S
C2572 C2566 1.368 . S
C2572 C2571 1.523 . S
C2573 C2557 1.429 . S
C2573 C2569 1.429 . S
C2573 C2574 1.523 . S
C2574 C2558 1.368 . S
C2574 C2570 1.368 . S
C2574 C2573 1.523 . S
H2575 C2550 0.950 . S
H2576 C2552 0.950 . S
H2577 C2553 0.949 . S
H2578 C2555 0.950 . S
H2579 C2557 0.950 . S
C2580 C2581 1.349 . S
C2580 C2582 1.327 . S
C2580 H2605 0.950 . S
C2581 C2580 1.349 . S
C2581 C2597 1.349 . S
C2582 C2580 1.327 . S
C2582 C2601 1.429 . S
C2582 H2606 0.950 . S
C2583 C2600 1.574 . S
C2583 C2602 1.368 . S
C2583 H2607 0.949 . S
H2584 C2588 0.949 . S
C2585 C2586 1.349 . S
C2585 C2587 1.327 . S
C2585 H2608 0.950 1_556 S
C2586 C2585 1.349 . S
C2586 C2598 1.349 . S
C2587 C2585 1.327 . S
C2587 C2603 1.429 . S
C2587 H2609 0.950 . S
C2588 H2584 0.949 . S
C2588 C2596 1.574 . S
C2588 C2604 1.368 . S
H2589 C2597 0.950 . S
H2590 C2595 0.950 . S
H2591 C2596 0.949 . S
H2592 C2598 0.950 . S
H2593 C2599 0.950 . S
H2594 C2600 0.949 . S
C2595 H2590 0.950 . S
C2595 C2597 1.327 . S
C2595 C2601 1.429 . S
C2596 C2588 1.574 . S
C2596 H2591 0.949 . S
C2596 C2602 1.368 . S
C2597 C2581 1.349 . S
C2597 H2589 0.950 . S
C2597 C2595 1.327 . S
C2598 C2586 1.349 . S
C2598 H2592 0.950 . S
C2598 C2599 1.327 . S
C2599 H2593 0.950 . S
C2599 C2598 1.327 . S
C2599 C2603 1.429 . S
C2600 C2583 1.574 . S
C2600 H2594 0.949 . S
C2600 C2604 1.368 . S
C2601 C2582 1.429 . S
C2601 C2595 1.429 . S
C2601 C2602 1.523 . S
C2602 C2583 1.368 . S
C2602 C2596 1.368 . S
C2602 C2601 1.523 . S
C2603 C2587 1.429 . S
C2603 C2599 1.429 . S
C2603 C2604 1.523 . S
C2604 C2588 1.368 . S
C2604 C2600 1.368 . S
C2604 C2603 1.523 . S
H2605 C2580 0.950 . S
H2606 C2582 0.950 . S
H2607 C2583 0.949 . S
H2608 C2585 0.950 1_554 S
H2609 C2587 0.950 . S
C2610 C2611 1.349 . S
C2610 C2612 1.327 . S
C2610 H2635 0.950 . S
C2611 C2610 1.349 . S
C2611 C2627 1.349 . S
C2612 C2610 1.327 . S
C2612 C2631 1.429 . S
C2612 H2636 0.950 . S
C2613 C2630 1.574 . S
C2613 C2632 1.368 . S
C2613 H2637 0.949 . S
H2614 C2618 0.949 . S
C2615 C2616 1.349 . S
C2615 C2617 1.327 . S
C2615 H2638 0.950 . S
C2616 C2615 1.349 . S
C2616 C2628 1.349 . S
C2617 C2615 1.327 . S
C2617 C2633 1.429 . S
C2617 H2639 0.950 . S
C2618 H2614 0.949 . S
C2618 C2626 1.574 . S
C2618 C2634 1.368 . S
H2619 C2627 0.950 . S
H2620 C2625 0.950 . S
H2621 C2626 0.949 . S
H2622 C2628 0.950 . S
H2623 C2629 0.950 . S
H2624 C2630 0.949 . S
C2625 H2620 0.950 . S
C2625 C2627 1.327 . S
C2625 C2631 1.429 . S
C2626 C2618 1.574 . S
C2626 H2621 0.949 . S
C2626 C2632 1.368 . S
C2627 C2611 1.349 . S
C2627 H2619 0.950 . S
C2627 C2625 1.327 . S
C2628 C2616 1.349 . S
C2628 H2622 0.950 . S
C2628 C2629 1.327 . S
C2629 H2623 0.950 . S
C2629 C2628 1.327 . S
C2629 C2633 1.429 . S
C2630 C2613 1.574 . S
C2630 H2624 0.949 . S
C2630 C2634 1.368 . S
C2631 C2612 1.429 . S
C2631 C2625 1.429 . S
C2631 C2632 1.523 . S
C2632 C2613 1.368 . S
C2632 C2626 1.368 . S
C2632 C2631 1.523 . S
C2633 C2617 1.429 . S
C2633 C2629 1.429 . S
C2633 C2634 1.523 . S
C2634 C2618 1.368 . S
C2634 C2630 1.368 . S
C2634 C2633 1.523 . S
H2635 C2610 0.950 . S
H2636 C2612 0.950 . S
H2637 C2613 0.949 . S
H2638 C2615 0.950 . S
H2639 C2617 0.950 . S
C2640 C2641 1.349 . S
C2640 C2642 1.327 . S
C2640 H2665 0.950 . S
C2641 C2640 1.349 . S
C2641 C2657 1.349 . S
C2642 C2640 1.327 . S
C2642 C2661 1.429 . S
C2642 H2666 0.950 . S
C2643 C2660 1.574 . S
C2643 C2662 1.368 . S
C2643 H2667 0.949 . S
H2644 C2648 0.949 . S
C2645 C2646 1.349 . S
C2645 C2647 1.327 . S
C2645 H2668 0.950 . S
C2646 C2645 1.349 . S
C2646 C2658 1.349 . S
C2647 C2645 1.327 . S
C2647 C2663 1.429 . S
C2647 H2669 0.950 . S
C2648 H2644 0.949 . S
C2648 C2656 1.574 . S
C2648 C2664 1.368 . S
H2649 C2657 0.950 . S
H2650 C2655 0.950 . S
H2651 C2656 0.949 . S
H2652 C2658 0.939 1_565 S
H2653 C2659 0.950 . S
H2654 C2660 0.949 . S
C2655 H2650 0.950 . S
C2655 C2657 1.327 . S
C2655 C2661 1.429 . S
C2656 C2648 1.574 . S
C2656 H2651 0.949 . S
C2656 C2662 1.368 . S
C2657 C2641 1.349 . S
C2657 H2649 0.950 . S
C2657 C2655 1.327 . S
C2658 C2646 1.349 . S
C2658 H2652 0.939 1_545 S
C2658 C2659 1.327 . S
C2659 H2653 0.950 . S
C2659 C2658 1.327 . S
C2659 C2663 1.429 . S
C2660 C2643 1.574 . S
C2660 H2654 0.949 . S
C2660 C2664 1.368 . S
C2661 C2642 1.429 . S
C2661 C2655 1.429 . S
C2661 C2662 1.523 . S
C2662 C2643 1.368 . S
C2662 C2656 1.368 . S
C2662 C2661 1.523 . S
C2663 C2647 1.429 . S
C2663 C2659 1.429 . S
C2663 C2664 1.523 . S
C2664 C2648 1.368 . S
C2664 C2660 1.368 . S
C2664 C2663 1.523 . S
H2665 C2640 0.950 . S
H2666 C2642 0.950 . S
H2667 C2643 0.949 . S
H2668 C2645 0.950 . S
H2669 C2647 0.950 . S
C2670 C2671 1.349 . S
C2670 C2672 1.327 . S
C2670 H2695 0.950 . S
C2671 C2670 1.349 . S
C2671 C2687 1.349 . S
C2672 C2670 1.327 . S
C2672 C2691 1.429 . S
C2672 H2696 0.950 . S
C2673 C2690 1.574 . S
C2673 C2692 1.368 . S
C2673 H2697 0.949 . S
H2674 C2678 0.949 . S
C2675 C2676 1.349 . S
C2675 C2677 1.327 . S
C2675 H2698 0.950 . S
C2676 C2675 1.349 . S
C2676 C2688 1.349 . S
C2677 C2675 1.327 . S
C2677 C2693 1.429 . S
C2677 H2699 0.950 . S
C2678 H2674 0.949 . S
C2678 C2686 1.574 . S
C2678 C2694 1.368 . S
H2679 C2687 0.950 . S
H2680 C2685 0.950 . S
H2681 C2686 0.949 . S
H2682 C2688 0.950 . S
H2683 C2689 0.950 . S
H2684 C2690 0.949 . S
C2685 H2680 0.950 . S
C2685 C2687 1.327 . S
C2685 C2691 1.429 . S
C2686 C2678 1.574 . S
C2686 H2681 0.949 . S
C2686 C2692 1.368 . S
C2687 C2671 1.349 . S
C2687 H2679 0.950 . S
C2687 C2685 1.327 . S
C2688 C2676 1.349 . S
C2688 H2682 0.950 . S
C2688 C2689 1.327 . S
C2689 H2683 0.950 . S
C2689 C2688 1.327 . S
C2689 C2693 1.429 . S
C2690 C2673 1.574 . S
C2690 H2684 0.949 . S
C2690 C2694 1.368 . S
C2691 C2672 1.429 . S
C2691 C2685 1.429 . S
C2691 C2692 1.523 . S
C2692 C2673 1.368 . S
C2692 C2686 1.368 . S
C2692 C2691 1.523 . S
C2693 C2677 1.429 . S
C2693 C2689 1.429 . S
C2693 C2694 1.523 . S
C2694 C2678 1.368 . S
C2694 C2690 1.368 . S
C2694 C2693 1.523 . S
H2695 C2670 0.950 . S
H2696 C2672 0.950 . S
H2697 C2673 0.949 . S
H2698 C2675 0.950 . S
H2699 C2677 0.950 . S
C2700 C2701 1.349 1_565 S
C2700 C2702 1.323 . S
C2700 H2725 0.950 . S
C2701 C2700 1.349 1_545 S
C2701 C2717 1.349 . S
C2702 C2700 1.323 . S
C2702 C2721 1.408 1_565 S
C2702 H2726 0.975 . S
C2703 C2720 1.574 . S
C2703 C2722 1.368 . S
C2703 H2727 0.949 . S
H2704 C2708 0.949 1_565 S
C2705 C2706 1.349 . S
C2705 C2707 1.327 . S
C2705 H2728 0.950 . S
C2706 C2705 1.349 . S
C2706 C2718 1.349 . S
C2707 C2705 1.327 . S
C2707 C2723 1.429 . S
C2707 H2729 0.950 . S
C2708 H2704 0.949 1_545 S
C2708 C2716 1.574 . S
C2708 C2724 1.368 . S
H2709 C2717 0.950 . S
H2710 C2715 0.950 . S
H2711 C2716 0.949 1_565 S
H2712 C2718 0.950 . S
H2713 C2719 0.950 1_565 S
H2714 C2720 0.949 . S
C2715 H2710 0.950 . S
C2715 C2717 1.327 . S
C2715 C2721 1.429 . S
C2716 C2708 1.574 . S
C2716 H2711 0.949 1_545 S
C2716 C2722 1.368 . S
C2717 C2701 1.349 . S
C2717 H2709 0.950 . S
C2717 C2715 1.327 . S
C2718 C2706 1.349 . S
C2718 H2712 0.950 . S
C2718 C2719 1.327 . S
C2719 H2713 0.950 1_545 S
C2719 C2718 1.327 . S
C2719 C2723 1.429 . S
C2720 C2703 1.574 . S
C2720 H2714 0.949 . S
C2720 C2724 1.368 . S
C2721 C2702 1.408 1_545 S
C2721 C2715 1.429 . S
C2721 C2722 1.523 . S
C2722 C2703 1.368 . S
C2722 C2716 1.368 . S
C2722 C2721 1.523 . S
C2723 C2707 1.429 . S
C2723 C2719 1.429 . S
C2723 C2724 1.523 . S
C2724 C2708 1.368 . S
C2724 C2720 1.368 . S
C2724 C2723 1.523 . S
H2725 C2700 0.950 . S
H2726 C2702 0.975 . S
H2727 C2703 0.949 . S
H2728 C2705 0.950 . S
H2729 C2707 0.950 . S
C2730 C2731 1.349 . S
C2730 C2732 1.327 . S
C2730 H2755 0.950 . S
C2731 C2730 1.349 . S
C2731 C2747 1.349 . S
C2732 C2730 1.327 . S
C2732 C2751 1.429 . S
C2732 H2756 0.950 . S
C2733 C2750 1.574 . S
C2733 C2752 1.368 . S
C2733 H2757 0.949 . S
H2734 C2738 0.949 . S
C2735 C2736 1.349 . S
C2735 C2737 1.327 . S
C2735 H2758 0.950 . S
C2736 C2735 1.349 . S
C2736 C2748 1.349 . S
C2737 C2735 1.327 . S
C2737 C2753 1.429 . S
C2737 H2759 0.950 . S
C2738 H2734 0.949 . S
C2738 C2746 1.574 . S
C2738 C2754 1.368 . S
H2739 C2747 0.950 . S
H2740 C2745 0.950 . S
H2741 C2746 0.949 . S
H2742 C2748 0.950 . S
H2743 C2749 0.950 . S
H2744 C2750 0.949 . S
C2745 H2740 0.950 . S
C2745 C2747 1.327 . S
C2745 C2751 1.429 . S
C2746 C2738 1.574 . S
C2746 H2741 0.949 . S
C2746 C2752 1.368 . S
C2747 C2731 1.349 . S
C2747 H2739 0.950 . S
C2747 C2745 1.327 . S
C2748 C2736 1.349 . S
C2748 H2742 0.950 . S
C2748 C2749 1.327 . S
C2749 H2743 0.950 . S
C2749 C2748 1.327 . S
C2749 C2753 1.429 . S
C2750 C2733 1.574 . S
C2750 H2744 0.949 . S
C2750 C2754 1.368 . S
C2751 C2732 1.429 . S
C2751 C2745 1.429 . S
C2751 C2752 1.523 . S
C2752 C2733 1.368 . S
C2752 C2746 1.368 . S
C2752 C2751 1.523 . S
C2753 C2737 1.429 . S
C2753 C2749 1.429 . S
C2753 C2754 1.523 . S
C2754 C2738 1.368 . S
C2754 C2750 1.368 . S
C2754 C2753 1.523 . S
H2755 C2730 0.950 . S
H2756 C2732 0.950 . S
H2757 C2733 0.949 . S
H2758 C2735 0.950 . S
H2759 C2737 0.950 . S
C2760 C2761 1.349 . S
C2760 C2762 1.327 . S
C2760 H2785 0.950 . S
C2761 C2760 1.349 . S
C2761 C2777 1.349 . S
C2762 C2760 1.327 . S
C2762 C2781 1.429 . S
C2762 H2786 0.950 . S
C2763 C2780 1.574 . S
C2763 C2782 1.368 . S
C2763 H2787 0.949 . S
H2764 C2768 0.949 . S
C2765 C2766 1.349 . S
C2765 C2767 1.327 . S
C2765 H2788 0.950 . S
C2766 C2765 1.349 . S
C2766 C2778 1.349 . S
C2767 C2765 1.327 . S
C2767 C2783 1.429 . S
C2767 H2789 0.950 . S
C2768 H2764 0.949 . S
C2768 C2776 1.574 . S
C2768 C2784 1.368 . S
H2769 C2777 0.950 . S
H2770 C2775 0.950 . S
H2771 C2776 0.949 . S
H2772 C2778 0.950 . S
H2773 C2779 0.950 . S
H2774 C2780 0.949 . S
C2775 H2770 0.950 . S
C2775 C2777 1.327 . S
C2775 C2781 1.429 . S
C2776 C2768 1.574 . S
C2776 H2771 0.949 . S
C2776 C2782 1.368 . S
C2777 C2761 1.349 . S
C2777 H2769 0.950 . S
C2777 C2775 1.327 . S
C2778 C2766 1.349 . S
C2778 H2772 0.950 . S
C2778 C2779 1.327 . S
C2779 H2773 0.950 . S
C2779 C2778 1.327 . S
C2779 C2783 1.429 . S
C2780 C2763 1.574 . S
C2780 H2774 0.949 . S
C2780 C2784 1.368 . S
C2781 C2762 1.429 . S
C2781 C2775 1.429 . S
C2781 C2782 1.523 . S
C2782 C2763 1.368 . S
C2782 C2776 1.368 . S
C2782 C2781 1.523 . S
C2783 C2767 1.429 . S
C2783 C2779 1.429 . S
C2783 C2784 1.523 . S
C2784 C2768 1.368 . S
C2784 C2780 1.368 . S
C2784 C2783 1.523 . S
H2785 C2760 0.950 . S
H2786 C2762 0.950 . S
H2787 C2763 0.949 . S
H2788 C2765 0.950 . S
H2789 C2767 0.950 . S
C2790 C2791 1.349 . S
C2790 C2792 1.327 . S
C2790 H2815 0.950 . S
C2791 C2790 1.349 . S
C2791 C2807 1.349 . S
C2792 C2790 1.327 . S
C2792 C2811 1.429 . S
C2792 H2816 0.950 . S
C2793 C2810 1.574 . S
C2793 C2812 1.368 . S
C2793 H2817 0.949 . S
H2794 C2798 0.949 . S
C2795 C2796 1.349 . S
C2795 C2797 1.327 . S
C2795 H2818 0.950 . S
C2796 C2795 1.349 . S
C2796 C2808 1.349 . S
C2797 C2795 1.327 . S
C2797 C2813 1.429 . S
C2797 H2819 0.950 . S
C2798 H2794 0.949 . S
C2798 C2806 1.574 . S
C2798 C2814 1.368 . S
H2799 C2807 0.950 . S
H2800 C2805 0.950 . S
H2801 C2806 0.949 . S
H2802 C2808 0.950 . S
H2803 C2809 0.950 . S
H2804 C2810 0.949 . S
C2805 H2800 0.950 . S
C2805 C2807 1.327 . S
C2805 C2811 1.429 . S
C2806 C2798 1.574 . S
C2806 H2801 0.949 . S
C2806 C2812 1.368 . S
C2807 C2791 1.349 . S
C2807 H2799 0.950 . S
C2807 C2805 1.327 . S
C2808 C2796 1.349 . S
C2808 H2802 0.950 . S
C2808 C2809 1.327 . S
C2809 H2803 0.950 . S
C2809 C2808 1.327 . S
C2809 C2813 1.429 . S
C2810 C2793 1.574 . S
C2810 H2804 0.949 . S
C2810 C2814 1.368 . S
C2811 C2792 1.429 . S
C2811 C2805 1.429 . S
C2811 C2812 1.523 . S
C2812 C2793 1.368 . S
C2812 C2806 1.368 . S
C2812 C2811 1.523 . S
C2813 C2797 1.429 . S
C2813 C2809 1.429 . S
C2813 C2814 1.523 . S
C2814 C2798 1.368 . S
C2814 C2810 1.368 . S
C2814 C2813 1.523 . S
H2815 C2790 0.950 . S
H2816 C2792 0.950 . S
H2817 C2793 0.949 . S
H2818 C2795 0.950 . S
H2819 C2797 0.950 . S
C2820 C2821 1.349 . S
C2820 C2822 1.327 . S
C2820 H2845 0.950 . S
C2821 C2820 1.349 . S
C2821 C2837 1.349 1_545 S
C2822 C2820 1.327 . S
C2822 C2841 1.429 . S
C2822 H2846 0.950 . S
C2823 C2840 1.574 . S
C2823 C2842 1.368 1_565 S
C2823 H2847 0.949 . S
H2824 C2828 0.949 . S
C2825 C2826 1.349 1_565 S
C2825 C2827 1.327 . S
C2825 H2848 0.950 . S
C2826 C2825 1.349 1_545 S
C2826 C2838 1.349 . S
C2827 C2825 1.327 . S
C2827 C2843 1.429 1_565 S
C2827 H2849 0.950 . S
C2828 H2824 0.949 . S
C2828 C2836 1.574 . S
C2828 C2844 1.368 . S
H2829 C2837 0.950 . S
H2830 C2835 0.950 . S
H2831 C2836 0.949 . S
H2832 C2838 0.950 . S
H2833 C2839 0.950 . S
H2834 C2840 0.949 . S
C2835 H2830 0.950 . S
C2835 C2837 1.327 . S
C2835 C2841 1.429 1_565 S
C2836 C2828 1.574 . S
C2836 H2831 0.949 . S
C2836 C2842 1.368 . S
C2837 C2821 1.349 1_565 S
C2837 H2829 0.950 . S
C2837 C2835 1.327 . S
C2838 C2826 1.349 . S
C2838 H2832 0.950 . S
C2838 C2839 1.327 . S
C2839 H2833 0.950 . S
C2839 C2838 1.327 . S
C2839 C2843 1.429 . S
C2840 C2823 1.574 . S
C2840 H2834 0.949 . S
C2840 C2844 1.368 1_565 S
C2841 C2822 1.429 . S
C2841 C2835 1.429 1_545 S
C2841 C2842 1.523 . S
C2842 C2823 1.368 1_545 S
C2842 C2836 1.368 . S
C2842 C2841 1.523 . S
C2843 C2827 1.429 1_545 S
C2843 C2839 1.429 . S
C2843 C2844 1.523 . S
C2844 C2828 1.368 . S
C2844 C2840 1.368 1_545 S
C2844 C2843 1.523 . S
H2845 C2820 0.950 . S
H2846 C2822 0.950 . S
H2847 C2823 0.949 . S
H2848 C2825 0.950 . S
H2849 C2827 0.950 . S
C2850 C2851 1.349 . S
C2850 C2852 1.327 . S
C2850 H2875 0.950 . S
C2851 C2850 1.349 . S
C2851 C2867 1.349 . S
C2852 C2850 1.327 . S
C2852 C2871 1.429 . S
C2852 H2876 0.950 . S
C2853 C2870 1.574 . S
C2853 C2872 1.368 . S
C2853 H2877 0.949 . S
H2854 C2858 0.949 . S
C2855 C2856 1.349 . S
C2855 C2857 1.327 . S
C2855 H2878 0.950 . S
C2856 C2855 1.349 . S
C2856 C2868 1.349 . S
C2857 C2855 1.327 . S
C2857 C2873 1.429 . S
C2857 H2879 0.950 . S
C2858 H2854 0.949 . S
C2858 C2866 1.574 . S
C2858 C2874 1.368 . S
H2859 C2867 0.950 . S
H2860 C2865 0.950 . S
H2861 C2866 0.949 . S
H2862 C2868 0.950 . S
H2863 C2869 0.950 . S
H2864 C2870 0.949 . S
C2865 H2860 0.950 . S
C2865 C2867 1.327 . S
C2865 C2871 1.429 . S
C2866 C2858 1.574 . S
C2866 H2861 0.949 . S
C2866 C2872 1.368 . S
C2867 C2851 1.349 . S
C2867 H2859 0.950 . S
C2867 C2865 1.327 . S
C2868 C2856 1.349 . S
C2868 H2862 0.950 . S
C2868 C2869 1.327 . S
C2869 H2863 0.950 . S
C2869 C2868 1.327 . S
C2869 C2873 1.429 . S
C2870 C2853 1.574 . S
C2870 H2864 0.949 . S
C2870 C2874 1.368 . S
C2871 C2852 1.429 . S
C2871 C2865 1.429 . S
C2871 C2872 1.523 . S
C2872 C2853 1.368 . S
C2872 C2866 1.368 . S
C2872 C2871 1.523 . S
C2873 C2857 1.429 . S
C2873 C2869 1.429 . S
C2873 C2874 1.523 . S
C2874 C2858 1.368 . S
C2874 C2870 1.368 . S
C2874 C2873 1.523 . S
H2875 C2850 0.950 . S
H2876 C2852 0.950 . S
H2877 C2853 0.949 . S
H2878 C2855 0.950 . S
H2879 C2857 0.950 . S
C2880 C2881 1.349 . S
C2880 C2882 1.327 . S
C2880 H2905 0.950 . S
C2881 C2880 1.349 . S
C2881 C2897 1.349 . S
C2882 C2880 1.327 . S
C2882 C2901 1.429 . S
C2882 H2906 0.950 . S
C2883 C2900 1.574 . S
C2883 C2902 1.368 . S
C2883 H2907 0.949 . S
H2884 C2888 0.949 . S
C2885 C2886 1.349 . S
C2885 C2887 1.327 . S
C2885 H2908 0.950 . S
C2886 C2885 1.349 . S
C2886 C2898 1.349 . S
C2887 C2885 1.327 . S
C2887 C2903 1.429 . S
C2887 H2909 0.950 . S
C2888 H2884 0.949 . S
C2888 C2896 1.574 . S
C2888 C2904 1.368 . S
H2889 C2897 0.950 . S
H2890 C2895 0.950 . S
H2891 C2896 0.949 . S
H2892 C2898 0.950 1_556 S
H2893 C2899 0.950 1_556 S
H2894 C2900 0.949 . S
C2895 H2890 0.950 . S
C2895 C2897 1.327 . S
C2895 C2901 1.429 . S
C2896 C2888 1.574 . S
C2896 H2891 0.949 . S
C2896 C2902 1.368 . S
C2897 C2881 1.349 . S
C2897 H2889 0.950 . S
C2897 C2895 1.327 . S
C2898 C2886 1.349 . S
C2898 H2892 0.950 1_554 S
C2898 C2899 1.327 . S
C2899 H2893 0.950 1_554 S
C2899 C2898 1.327 . S
C2899 C2903 1.429 . S
C2900 C2883 1.574 . S
C2900 H2894 0.949 . S
C2900 C2904 1.368 . S
C2901 C2882 1.429 . S
C2901 C2895 1.429 . S
C2901 C2902 1.523 . S
C2902 C2883 1.368 . S
C2902 C2896 1.368 . S
C2902 C2901 1.523 . S
C2903 C2887 1.429 . S
C2903 C2899 1.429 . S
C2903 C2904 1.523 . S
C2904 C2888 1.368 . S
C2904 C2900 1.368 . S
C2904 C2903 1.523 . S
H2905 C2880 0.950 . S
H2906 C2882 0.950 . S
H2907 C2883 0.949 . S
H2908 C2885 0.950 . S
H2909 C2887 0.950 . S
C2910 C2911 1.349 . S
C2910 C2912 1.327 . S
C2910 H2935 0.950 . S
C2911 C2910 1.349 . S
C2911 C2927 1.349 . S
C2912 C2910 1.327 . S
C2912 C2931 1.429 . S
C2912 H2936 0.950 . S
C2913 C2930 1.574 . S
C2913 C2932 1.368 . S
C2913 H2937 0.949 . S
H2914 C2918 0.949 . S
C2915 C2916 1.349 . S
C2915 C2917 1.327 . S
C2915 H2938 0.950 . S
C2916 C2915 1.349 . S
C2916 C2928 1.349 . S
C2917 C2915 1.327 . S
C2917 C2933 1.429 . S
C2917 H2939 0.950 . S
C2918 H2914 0.949 . S
C2918 C2926 1.574 . S
C2918 C2934 1.368 . S
H2919 C2927 0.950 . S
H2920 C2925 0.950 . S
H2921 C2926 0.949 . S
H2922 C2928 0.950 . S
H2923 C2929 0.950 . S
H2924 C2930 0.949 . S
C2925 H2920 0.950 . S
C2925 C2927 1.327 . S
C2925 C2931 1.429 . S
C2926 C2918 1.574 . S
C2926 H2921 0.949 . S
C2926 C2932 1.368 . S
C2927 C2911 1.349 . S
C2927 H2919 0.950 . S
C2927 C2925 1.327 . S
C2928 C2916 1.349 . S
C2928 H2922 0.950 . S
C2928 C2929 1.327 . S
C2929 H2923 0.950 . S
C2929 C2928 1.327 . S
C2929 C2933 1.429 . S
C2930 C2913 1.574 . S
C2930 H2924 0.949 . S
C2930 C2934 1.368 . S
C2931 C2912 1.429 . S
C2931 C2925 1.429 . S
C2931 C2932 1.523 . S
C2932 C2913 1.368 . S
C2932 C2926 1.368 . S
C2932 C2931 1.523 . S
C2933 C2917 1.429 . S
C2933 C2929 1.429 . S
C2933 C2934 1.523 . S
C2934 C2918 1.368 . S
C2934 C2930 1.368 . S
C2934 C2933 1.523 . S
H2935 C2910 0.950 . S
H2936 C2912 0.950 . S
H2937 C2913 0.949 . S
H2938 C2915 0.950 . S
H2939 C2917 0.950 . S
C2940 C2941 1.349 . S
C2940 C2942 1.327 . S
C2940 H2965 0.950 . S
C2941 C2940 1.349 . S
C2941 C2957 1.349 . S
C2942 C2940 1.327 . S
C2942 C2961 1.429 . S
C2942 H2966 0.950 . S
C2943 C2960 1.574 . S
C2943 C2962 1.368 . S
C2943 H2967 0.949 . S
H2944 C2948 0.949 . S
C2945 C2946 1.349 . S
C2945 C2947 1.327 . S
C2945 H2968 0.950 . S
C2946 C2945 1.349 . S
C2946 C2958 1.349 . S
C2947 C2945 1.327 . S
C2947 C2963 1.429 . S
C2947 H2969 0.950 . S
C2948 H2944 0.949 . S
C2948 C2956 1.574 . S
C2948 C2964 1.368 . S
H2949 C2957 0.950 . S
H2950 C2955 0.950 . S
H2951 C2956 0.949 . S
H2952 C2958 0.950 . S
H2953 C2959 0.950 . S
H2954 C2960 0.949 . S
C2955 H2950 0.950 . S
C2955 C2957 1.327 . S
C2955 C2961 1.429 . S
C2956 C2948 1.574 . S
C2956 H2951 0.949 . S
C2956 C2962 1.368 . S
C2957 C2941 1.349 . S
C2957 H2949 0.950 . S
C2957 C2955 1.327 . S
C2958 C2946 1.349 . S
C2958 H2952 0.950 . S
C2958 C2959 1.327 . S
C2959 H2953 0.950 . S
C2959 C2958 1.327 . S
C2959 C2963 1.429 . S
C2960 C2943 1.574 . S
C2960 H2954 0.949 . S
C2960 C2964 1.368 . S
C2961 C2942 1.429 . S
C2961 C2955 1.429 . S
C2961 C2962 1.523 . S
C2962 C2943 1.368 . S
C2962 C2956 1.368 . S
C2962 C2961 1.523 . S
C2963 C2947 1.429 . S
C2963 C2959 1.429 . S
C2963 C2964 1.523 . S
C2964 C2948 1.368 . S
C2964 C2960 1.368 . S
C2964 C2963 1.523 . S
H2965 C2940 0.950 . S
H2966 C2942 0.950 . S
H2967 C2943 0.949 . S
H2968 C2945 0.950 . S
H2969 C2947 0.950 . S
C2970 C2971 1.349 . S
C2970 C2972 1.327 . S
C2970 H2995 0.950 . S
C2971 C2970 1.349 . S
C2971 C2987 1.349 . S
C2972 C2970 1.327 . S
C2972 C2991 1.429 . S
C2972 H2996 0.950 . S
C2973 C2990 1.574 . S
C2973 C2992 1.368 . S
C2973 H2997 0.949 . S
H2974 C2978 0.949 . S
C2975 C2976 1.349 . S
C2975 C2977 1.327 . S
C2975 H2998 0.950 . S
C2976 C2975 1.349 . S
C2976 C2988 1.349 . S
C2977 C2975 1.327 . S
C2977 C2993 1.429 . S
C2977 H2999 0.950 . S
C2978 H2974 0.949 . S
C2978 C2986 1.574 . S
C2978 C2994 1.368 . S
H2979 C2987 0.950 . S
H2980 C2985 0.950 . S
H2981 C2986 0.949 . S
H2982 C2988 0.950 . S
H2983 C2989 0.950 . S
H2984 C2990 0.949 . S
C2985 H2980 0.950 . S
C2985 C2987 1.327 . S
C2985 C2991 1.429 . S
C2986 C2978 1.574 . S
C2986 H2981 0.949 . S
C2986 C2992 1.368 . S
C2987 C2971 1.349 . S
C2987 H2979 0.950 . S
C2987 C2985 1.327 . S
C2988 C2976 1.349 . S
C2988 H2982 0.950 . S
C2988 C2989 1.327 . S
C2989 H2983 0.950 . S
C2989 C2988 1.327 . S
C2989 C2993 1.429 . S
C2990 C2973 1.574 . S
C2990 H2984 0.949 . S
C2990 C2994 1.368 . S
C2991 C2972 1.429 . S
C2991 C2985 1.429 . S
C2991 C2992 1.523 . S
C2992 C2973 1.368 . S
C2992 C2986 1.368 . S
C2992 C2991 1.523 . S
C2993 C2977 1.429 . S
C2993 C2989 1.429 . S
C2993 C2994 1.523 . S
C2994 C2978 1.368 . S
C2994 C2990 1.368 . S
C2994 C2993 1.523 . S
H2995 C2970 0.950 . S
H2996 C2972 0.950 . S
H2997 C2973 0.949 . S
H2998 C2975 0.950 . S
H2999 C2977 0.950 . S
C3000 C3001 1.349 . S
C3000 C3002 1.327 . S
C3000 H3025 0.950 . S
C3001 C3000 1.349 . S
C3001 C3017 1.349 . S
C3002 C3000 1.327 . S
C3002 C3021 1.429 . S
C3002 H3026 0.950 . S
C3003 C3020 1.574 . S
C3003 C3022 1.368 . S
C3003 H3027 0.949 . S
H3004 C3008 0.949 . S
C3005 C3006 1.349 . S
C3005 C3007 1.327 . S
C3005 H3028 0.950 . S
C3006 C3005 1.349 . S
C3006 C3018 1.349 . S
C3007 C3005 1.327 . S
C3007 C3023 1.429 . S
C3007 H3029 0.950 . S
C3008 H3004 0.949 . S
C3008 C3016 1.574 . S
C3008 C3024 1.368 . S
H3009 C3017 0.950 . S
H3010 C3015 0.950 . S
H3011 C3016 0.949 . S
H3012 C3018 0.950 . S
H3013 C3019 0.950 . S
H3014 C3020 0.949 . S
C3015 H3010 0.950 . S
C3015 C3017 1.327 . S
C3015 C3021 1.429 . S
C3016 C3008 1.574 . S
C3016 H3011 0.949 . S
C3016 C3022 1.368 . S
C3017 C3001 1.349 . S
C3017 H3009 0.950 . S
C3017 C3015 1.327 . S
C3018 C3006 1.349 . S
C3018 H3012 0.950 . S
C3018 C3019 1.327 . S
C3019 H3013 0.950 . S
C3019 C3018 1.327 . S
C3019 C3023 1.429 . S
C3020 C3003 1.574 . S
C3020 H3014 0.949 . S
C3020 C3024 1.368 . S
C3021 C3002 1.429 . S
C3021 C3015 1.429 . S
C3021 C3022 1.523 . S
C3022 C3003 1.368 . S
C3022 C3016 1.368 . S
C3022 C3021 1.523 . S
C3023 C3007 1.429 . S
C3023 C3019 1.429 . S
C3023 C3024 1.523 . S
C3024 C3008 1.368 . S
C3024 C3020 1.368 . S
C3024 C3023 1.523 . S
H3025 C3000 0.950 . S
H3026 C3002 0.950 . S
H3027 C3003 0.949 . S
H3028 C3005 0.950 . S
H3029 C3007 0.950 . S
C3030 C3031 1.349 . S
C3030 C3032 1.327 . S
C3030 H3055 0.950 . S
C3031 C3030 1.349 . S
C3031 C3047 1.349 . S
C3032 C3030 1.327 . S
C3032 C3051 1.429 . S
C3032 H3056 0.950 . S
C3033 C3050 1.574 . S
C3033 C3052 1.368 . S
C3033 H3057 0.949 . S
H3034 C3038 0.949 . S
C3035 C3036 1.349 . S
C3035 C3037 1.327 . S
C3035 H3058 0.950 . S
C3036 C3035 1.349 . S
C3036 C3048 1.349 . S
C3037 C3035 1.327 . S
C3037 C3053 1.429 . S
C3037 H3059 0.950 . S
C3038 H3034 0.949 . S
C3038 C3046 1.574 . S
C3038 C3054 1.368 . S
H3039 C3047 0.950 . S
H3040 C3045 0.950 . S
H3041 C3046 0.949 . S
H3042 C3048 0.950 . S
H3043 C3049 0.950 . S
H3044 C3050 0.949 . S
C3045 H3040 0.950 . S
C3045 C3047 1.327 . S
C3045 C3051 1.429 . S
C3046 C3038 1.574 . S
C3046 H3041 0.949 . S
C3046 C3052 1.368 . S
C3047 C3031 1.349 . S
C3047 H3039 0.950 . S
C3047 C3045 1.327 . S
C3048 C3036 1.349 . S
C3048 H3042 0.950 . S
C3048 C3049 1.327 . S
C3049 H3043 0.950 . S
C3049 C3048 1.327 . S
C3049 C3053 1.429 . S
C3050 C3033 1.574 . S
C3050 H3044 0.949 . S
C3050 C3054 1.368 . S
C3051 C3032 1.429 . S
C3051 C3045 1.429 . S
C3051 C3052 1.523 . S
C3052 C3033 1.368 . S
C3052 C3046 1.368 . S
C3052 C3051 1.523 . S
C3053 C3037 1.429 . S
C3053 C3049 1.429 . S
C3053 C3054 1.523 . S
C3054 C3038 1.368 . S
C3054 C3050 1.368 . S
C3054 C3053 1.523 . S
H3055 C3030 0.950 . S
H3056 C3032 0.950 . S
H3057 C3033 0.949 . S
H3058 C3035 0.950 . S
H3059 C3037 0.950 . S
C3060 C3061 1.349 . S
C3060 C3062 1.327 . S
C3060 H3085 0.950 . S
C3061 C3060 1.349 . S
C3061 C3077 1.349 . S
C3062 C3060 1.327 . S
C3062 C3081 1.429 . S
C3062 H3086 0.950 . S
C3063 C3080 1.574 . S
C3063 C3082 1.368 . S
C3063 H3087 0.949 . S
H3064 C3068 0.949 . S
C3065 C3066 1.349 . S
C3065 C3067 1.327 . S
C3065 H3088 0.950 . S
C3066 C3065 1.349 . S
C3066 C3078 1.349 . S
C3067 C3065 1.327 . S
C3067 C3083 1.429 . S
C3067 H3089 0.950 . S
C3068 H3064 0.949 . S
C3068 C3076 1.574 . S
C3068 C3084 1.368 . S
H3069 C3077 0.950 . S
H3070 C3075 0.950 . S
H3071 C3076 0.949 . S
H3072 C3078 0.950 . S
H3073 C3079 0.950 . S
H3074 C3080 0.949 . S
C3075 H3070 0.950 . S
C3075 C3077 1.327 . S
C3075 C3081 1.429 . S
C3076 C3068 1.574 . S
C3076 H3071 0.949 . S
C3076 C3082 1.368 . S
C3077 C3061 1.349 . S
C3077 H3069 0.950 . S
C3077 C3075 1.327 . S
C3078 C3066 1.349 . S
C3078 H3072 0.950 . S
C3078 C3079 1.327 . S
C3079 H3073 0.950 . S
C3079 C3078 1.327 . S
C3079 C3083 1.429 . S
C3080 C3063 1.574 . S
C3080 H3074 0.949 . S
C3080 C3084 1.368 . S
C3081 C3062 1.429 . S
C3081 C3075 1.429 . S
C3081 C3082 1.523 . S
C3082 C3063 1.368 . S
C3082 C3076 1.368 . S
C3082 C3081 1.523 . S
C3083 C3067 1.429 . S
C3083 C3079 1.429 . S
C3083 C3084 1.523 . S
C3084 C3068 1.368 . S
C3084 C3080 1.368 . S
C3084 C3083 1.523 . S
H3085 C3060 0.950 . S
H3086 C3062 0.950 . S
H3087 C3063 0.949 . S
H3088 C3065 0.950 . S
H3089 C3067 0.950 . S
C3090 C3091 1.349 . S
C3090 C3092 1.327 . S
C3090 H3115 0.950 . S
C3091 C3090 1.349 . S
C3091 C3107 1.349 . S
C3092 C3090 1.327 . S
C3092 C3111 1.429 . S
C3092 H3116 0.950 . S
C3093 C3110 1.574 . S
C3093 C3112 1.368 . S
C3093 H3117 0.949 . S
H3094 C3098 0.949 . S
C3095 C3096 1.349 . S
C3095 C3097 1.327 . S
C3095 H3118 0.950 . S
C3096 C3095 1.349 . S
C3096 C3108 1.349 . S
C3097 C3095 1.327 . S
C3097 C3113 1.429 . S
C3097 H3119 0.950 . S
C3098 H3094 0.949 . S
C3098 C3106 1.574 . S
C3098 C3114 1.368 . S
H3099 C3107 0.950 . S
H3100 C3105 0.950 . S
H3101 C3106 0.949 . S
H3102 C3108 0.950 . S
H3103 C3109 0.950 . S
H3104 C3110 0.949 . S
C3105 H3100 0.950 . S
C3105 C3107 1.327 . S
C3105 C3111 1.429 . S
C3106 C3098 1.574 . S
C3106 H3101 0.949 . S
C3106 C3112 1.368 . S
C3107 C3091 1.349 . S
C3107 H3099 0.950 . S
C3107 C3105 1.327 . S
C3108 C3096 1.349 . S
C3108 H3102 0.950 . S
C3108 C3109 1.327 . S
C3109 H3103 0.950 . S
C3109 C3108 1.327 . S
C3109 C3113 1.429 . S
C3110 C3093 1.574 . S
C3110 H3104 0.949 . S
C3110 C3114 1.368 . S
C3111 C3092 1.429 . S
C3111 C3105 1.429 . S
C3111 C3112 1.523 . S
C3112 C3093 1.368 . S
C3112 C3106 1.368 . S
C3112 C3111 1.523 . S
C3113 C3097 1.429 . S
C3113 C3109 1.429 . S
C3113 C3114 1.523 . S
C3114 C3098 1.368 . S
C3114 C3110 1.368 . S
C3114 C3113 1.523 . S
H3115 C3090 0.950 . S
H3116 C3092 0.950 . S
H3117 C3093 0.949 . S
H3118 C3095 0.950 . S
H3119 C3097 0.950 . S
C3120 C3121 1.349 . S
C3120 C3122 1.327 . S
C3120 H3145 0.950 . S
C3121 C3120 1.349 . S
C3121 C3137 1.349 . S
C3122 C3120 1.327 . S
C3122 C3141 1.429 . S
C3122 H3146 0.950 . S
C3123 C3140 1.574 . S
C3123 C3142 1.368 . S
C3123 H3147 0.949 . S
H3124 C3128 0.949 . S
C3125 C3126 1.349 . S
C3125 C3127 1.327 . S
C3125 H3148 0.950 . S
C3126 C3125 1.349 . S
C3126 C3138 1.349 . S
C3127 C3125 1.327 . S
C3127 C3143 1.429 . S
C3127 H3149 0.950 . S
C3128 H3124 0.949 . S
C3128 C3136 1.574 . S
C3128 C3144 1.368 . S
H3129 C3137 0.950 . S
H3130 C3135 0.950 . S
H3131 C3136 0.949 . S
H3132 C3138 0.950 . S
H3133 C3139 0.950 . S
H3134 C3140 0.949 . S
C3135 H3130 0.950 . S
C3135 C3137 1.327 . S
C3135 C3141 1.429 . S
C3136 C3128 1.574 . S
C3136 H3131 0.949 . S
C3136 C3142 1.368 . S
C3137 C3121 1.349 . S
C3137 H3129 0.950 . S
C3137 C3135 1.327 . S
C3138 C3126 1.349 . S
C3138 H3132 0.950 . S
C3138 C3139 1.327 . S
C3139 H3133 0.950 . S
C3139 C3138 1.327 . S
C3139 C3143 1.429 . S
C3140 C3123 1.574 . S
C3140 H3134 0.949 . S
C3140 C3144 1.368 . S
C3141 C3122 1.429 . S
C3141 C3135 1.429 . S
C3141 C3142 1.523 . S
C3142 C3123 1.368 . S
C3142 C3136 1.368 . S
C3142 C3141 1.523 . S
C3143 C3127 1.429 . S
C3143 C3139 1.429 . S
C3143 C3144 1.523 . S
C3144 C3128 1.368 . S
C3144 C3140 1.368 . S
C3144 C3143 1.523 . S
H3145 C3120 0.950 . S
H3146 C3122 0.950 . S
H3147 C3123 0.949 . S
H3148 C3125 0.950 . S
H3149 C3127 0.950 . S
C3150 C3151 1.349 . S
C3150 C3152 1.327 . S
C3150 H3175 0.950 . S
C3151 C3150 1.349 . S
C3151 C3167 1.349 . S
C3152 C3150 1.327 . S
C3152 C3171 1.429 . S
C3152 H3176 0.950 . S
C3153 C3170 1.574 . S
C3153 C3172 1.368 . S
C3153 H3177 0.949 . S
H3154 C3158 0.949 . S
C3155 C3156 1.349 . S
C3155 C3157 1.327 . S
C3155 H3178 0.950 . S
C3156 C3155 1.349 . S
C3156 C3168 1.349 . S
C3157 C3155 1.327 . S
C3157 C3173 1.429 . S
C3157 H3179 0.950 . S
C3158 H3154 0.949 . S
C3158 C3166 1.574 . S
C3158 C3174 1.368 . S
H3159 C3167 0.950 . S
H3160 C3165 0.950 . S
H3161 C3166 0.949 . S
H3162 C3168 0.950 . S
H3163 C3169 0.950 . S
H3164 C3170 0.949 . S
C3165 H3160 0.950 . S
C3165 C3167 1.327 . S
C3165 C3171 1.429 . S
C3166 C3158 1.574 . S
C3166 H3161 0.949 . S
C3166 C3172 1.368 . S
C3167 C3151 1.349 . S
C3167 H3159 0.950 . S
C3167 C3165 1.327 . S
C3168 C3156 1.349 . S
C3168 H3162 0.950 . S
C3168 C3169 1.327 . S
C3169 H3163 0.950 . S
C3169 C3168 1.327 . S
C3169 C3173 1.429 . S
C3170 C3153 1.574 . S
C3170 H3164 0.949 . S
C3170 C3174 1.368 . S
C3171 C3152 1.429 . S
C3171 C3165 1.429 . S
C3171 C3172 1.523 . S
C3172 C3153 1.368 . S
C3172 C3166 1.368 . S
C3172 C3171 1.523 . S
C3173 C3157 1.429 . S
C3173 C3169 1.429 . S
C3173 C3174 1.523 . S
C3174 C3158 1.368 . S
C3174 C3170 1.368 . S
C3174 C3173 1.523 . S
H3175 C3150 0.950 . S
H3176 C3152 0.950 . S
H3177 C3153 0.949 . S
H3178 C3155 0.950 . S
H3179 C3157 0.950 . S
C3180 C3181 1.349 . S
C3180 C3182 1.327 . S
C3180 H3205 0.950 1_455 S
C3181 C3180 1.349 . S
C3181 C3197 1.349 . S
C3182 C3180 1.327 . S
C3182 C3201 1.429 . S
C3182 H3206 0.960 . S
C3183 C3200 1.571 1_556 S
C3183 C3202 1.379 . S
C3183 H3207 0.941 1_556 S
H3184 C3188 0.949 . S
C3185 C3186 1.349 . S
C3185 C3187 1.327 . S
C3185 H3208 0.950 . S
C3186 C3185 1.349 . S
C3186 C3198 1.349 1_554 S
C3187 C3185 1.327 . S
C3187 C3203 1.373 1_554 S
C3187 H3209 0.950 . S
C3188 H3184 0.949 . S
C3188 C3196 1.574 . S
C3188 C3204 1.368 . S
H3189 C3197 0.950 . S
H3190 C3195 0.976 . S
H3191 C3196 0.949 . S
H3192 C3198 0.950 . S
H3193 C3199 0.950 . S
H3194 C3200 0.949 . S
C3195 H3190 0.976 . S
C3195 C3197 1.327 . S
C3195 C3201 1.429 . S
C3196 C3188 1.574 . S
C3196 H3191 0.949 . S
C3196 C3202 1.368 . S
C3197 C3181 1.349 . S
C3197 H3189 0.950 . S
C3197 C3195 1.327 . S
C3198 C3186 1.349 1_556 S
C3198 H3192 0.950 . S
C3198 C3199 1.327 . S
C3199 H3193 0.950 . S
C3199 C3198 1.327 . S
C3199 C3203 1.471 . S
C3200 C3183 1.571 1_554 S
C3200 H3194 0.949 . S
C3200 C3204 1.368 1_554 S
C3201 C3182 1.429 . S
C3201 C3195 1.429 . S
C3201 C3202 1.523 . S
C3202 C3183 1.379 . S
C3202 C3196 1.368 . S
C3202 C3201 1.523 . S
C3203 C3187 1.373 1_556 S
C3203 C3199 1.471 . S
C3203 C3204 1.537 . S
C3204 C3188 1.368 . S
C3204 C3200 1.368 1_556 S
C3204 C3203 1.537 . S
H3205 C3180 0.950 1_655 S
H3206 C3182 0.960 . S
H3207 C3183 0.941 1_554 S
H3208 C3185 0.950 . S
H3209 C3187 0.950 . S
C3210 C3211 1.349 . S
C3210 C3212 1.327 . S
C3210 H3235 0.950 1_655 S
C3211 C3210 1.349 . S
C3211 C3227 1.349 . S
C3212 C3210 1.327 . S
C3212 C3231 1.429 . S
C3212 H3236 0.950 . S
C3213 C3230 1.574 . S
C3213 C3232 1.368 . S
C3213 H3237 0.949 . S
H3214 C3218 0.949 . S
C3215 C3216 1.349 . S
C3215 C3217 1.327 . S
C3215 H3238 0.950 . S
C3216 C3215 1.349 . S
C3216 C3228 1.349 . S
C3217 C3215 1.327 . S
C3217 C3233 1.429 . S
C3217 H3239 0.950 . S
C3218 H3214 0.949 . S
C3218 C3226 1.574 . S
C3218 C3234 1.368 . S
H3219 C3227 0.950 . S
H3220 C3225 0.950 . S
H3221 C3226 0.949 . S
H3222 C3228 0.950 . S
H3223 C3229 0.950 . S
H3224 C3230 0.949 . S
C3225 H3220 0.950 . S
C3225 C3227 1.327 . S
C3225 C3231 1.429 . S
C3226 C3218 1.574 . S
C3226 H3221 0.949 . S
C3226 C3232 1.368 . S
C3227 C3211 1.349 . S
C3227 H3219 0.950 . S
C3227 C3225 1.327 . S
C3228 C3216 1.349 . S
C3228 H3222 0.950 . S
C3228 C3229 1.327 . S
C3229 H3223 0.950 . S
C3229 C3228 1.327 . S
C3229 C3233 1.429 . S
C3230 C3213 1.574 . S
C3230 H3224 0.949 . S
C3230 C3234 1.368 . S
C3231 C3212 1.429 . S
C3231 C3225 1.429 . S
C3231 C3232 1.523 . S
C3232 C3213 1.368 . S
C3232 C3226 1.368 . S
C3232 C3231 1.523 . S
C3233 C3217 1.429 . S
C3233 C3229 1.429 . S
C3233 C3234 1.523 . S
C3234 C3218 1.368 . S
C3234 C3230 1.368 . S
C3234 C3233 1.523 . S
H3235 C3210 0.950 1_455 S
H3236 C3212 0.950 . S
H3237 C3213 0.949 . S
H3238 C3215 0.950 . S
H3239 C3217 0.950 . S
C3240 C3241 1.349 . S
C3240 C3242 1.327 . S
C3240 H3265 0.950 . S
C3241 C3240 1.349 . S
C3241 C3257 1.349 . S
C3242 C3240 1.327 . S
C3242 C3261 1.429 . S
C3242 H3266 0.950 . S
C3243 C3260 1.574 . S
C3243 C3262 1.368 . S
C3243 H3267 0.949 . S
H3244 C3248 0.949 . S
C3245 C3246 1.349 . S
C3245 C3247 1.327 . S
C3245 H3268 0.950 . S
C3246 C3245 1.349 . S
C3246 C3258 1.349 . S
C3247 C3245 1.327 . S
C3247 C3263 1.429 . S
C3247 H3269 0.950 . S
C3248 H3244 0.949 . S
C3248 C3256 1.574 . S
C3248 C3264 1.368 . S
H3249 C3257 0.950 . S
H3250 C3255 0.950 . S
H3251 C3256 0.949 . S
H3252 C3258 0.950 . S
H3253 C3259 0.950 . S
H3254 C3260 0.949 . S
C3255 H3250 0.950 . S
C3255 C3257 1.327 . S
C3255 C3261 1.429 . S
C3256 C3248 1.574 . S
C3256 H3251 0.949 . S
C3256 C3262 1.368 . S
C3257 C3241 1.349 . S
C3257 H3249 0.950 . S
C3257 C3255 1.327 . S
C3258 C3246 1.349 . S
C3258 H3252 0.950 . S
C3258 C3259 1.327 . S
C3259 H3253 0.950 . S
C3259 C3258 1.327 . S
C3259 C3263 1.429 . S
C3260 C3243 1.574 . S
C3260 H3254 0.949 . S
C3260 C3264 1.368 . S
C3261 C3242 1.429 . S
C3261 C3255 1.429 . S
C3261 C3262 1.523 . S
C3262 C3243 1.368 . S
C3262 C3256 1.368 . S
C3262 C3261 1.523 . S
C3263 C3247 1.429 . S
C3263 C3259 1.429 . S
C3263 C3264 1.523 . S
C3264 C3248 1.368 . S
C3264 C3260 1.368 . S
C3264 C3263 1.523 . S
H3265 C3240 0.950 . S
H3266 C3242 0.950 . S
H3267 C3243 0.949 . S
H3268 C3245 0.950 . S
H3269 C3247 0.950 . S
C3270 C3271 1.349 . S
C3270 C3272 1.327 . S
C3270 H3295 0.950 . S
C3271 C3270 1.349 . S
C3271 C3287 1.349 . S
C3272 C3270 1.327 . S
C3272 C3291 1.429 . S
C3272 H3296 0.950 . S
C3273 C3290 1.574 . S
C3273 C3292 1.368 . S
C3273 H3297 0.949 . S
H3274 C3278 0.949 . S
C3275 C3276 1.349 . S
C3275 C3277 1.327 . S
C3275 H3298 0.950 . S
C3276 C3275 1.349 . S
C3276 C3288 1.349 . S
C3277 C3275 1.327 . S
C3277 C3293 1.429 . S
C3277 H3299 0.950 . S
C3278 H3274 0.949 . S
C3278 C3286 1.574 . S
C3278 C3294 1.368 . S
H3279 C3287 0.950 . S
H3280 C3285 0.950 . S
H3281 C3286 0.949 . S
H3282 C3288 0.950 . S
H3283 C3289 0.950 . S
H3284 C3290 0.949 . S
C3285 H3280 0.950 . S
C3285 C3287 1.327 . S
C3285 C3291 1.429 . S
C3286 C3278 1.574 . S
C3286 H3281 0.949 . S
C3286 C3292 1.368 . S
C3287 C3271 1.349 . S
C3287 H3279 0.950 . S
C3287 C3285 1.327 . S
C3288 C3276 1.349 . S
C3288 H3282 0.950 . S
C3288 C3289 1.327 . S
C3289 H3283 0.950 . S
C3289 C3288 1.327 . S
C3289 C3293 1.429 . S
C3290 C3273 1.574 . S
C3290 H3284 0.949 . S
C3290 C3294 1.368 . S
C3291 C3272 1.429 . S
C3291 C3285 1.429 . S
C3291 C3292 1.523 . S
C3292 C3273 1.368 . S
C3292 C3286 1.368 . S
C3292 C3291 1.523 . S
C3293 C3277 1.429 . S
C3293 C3289 1.429 . S
C3293 C3294 1.523 . S
C3294 C3278 1.368 . S
C3294 C3290 1.368 . S
C3294 C3293 1.523 . S
H3295 C3270 0.950 . S
H3296 C3272 0.950 . S
H3297 C3273 0.949 . S
H3298 C3275 0.950 . S
H3299 C3277 0.950 . S
C3300 C3301 1.349 . S
C3300 C3302 1.327 . S
C3300 H3325 0.950 . S
C3301 C3300 1.349 . S
C3301 C3317 1.349 1_455 S
C3302 C3300 1.327 . S
C3302 C3321 1.429 . S
C3302 H3326 0.950 . S
C3303 C3320 1.582 . S
C3303 C3322 1.384 . S
C3303 H3327 0.927 1_455 S
H3304 C3308 0.949 . S
C3305 C3306 1.349 . S
C3305 C3307 1.327 . S
C3305 H3328 0.950 1_455 S
C3306 C3305 1.349 . S
C3306 C3318 1.349 . S
C3307 C3305 1.327 . S
C3307 C3323 1.429 . S
C3307 H3329 0.950 1_455 S
C3308 H3304 0.949 . S
C3308 C3316 1.574 . S
C3308 C3324 1.368 . S
H3309 C3317 0.950 . S
H3310 C3315 0.971 . S
H3311 C3316 0.949 . S
H3312 C3318 0.950 . S
H3313 C3319 0.950 . S
H3314 C3320 0.949 1_655 S
C3315 H3310 0.971 . S
C3315 C3317 1.339 . S
C3315 C3321 1.398 1_655 S
C3316 C3308 1.574 . S
C3316 H3311 0.949 . S
C3316 C3322 1.368 . S
C3317 C3301 1.349 1_655 S
C3317 H3309 0.950 . S
C3317 C3315 1.339 . S
C3318 C3306 1.349 . S
C3318 H3312 0.950 . S
C3318 C3319 1.327 . S
C3319 H3313 0.950 . S
C3319 C3318 1.327 . S
C3319 C3323 1.429 . S
C3320 C3303 1.582 . S
C3320 H3314 0.949 1_455 S
C3320 C3324 1.368 . S
C3321 C3302 1.429 . S
C3321 C3315 1.398 1_455 S
C3321 C3322 1.523 . S
C3322 C3303 1.384 . S
C3322 C3316 1.368 . S
C3322 C3321 1.523 . S
C3323 C3307 1.429 . S
C3323 C3319 1.429 . S
C3323 C3324 1.523 . S
C3324 C3308 1.368 . S
C3324 C3320 1.368 . S
C3324 C3323 1.523 . S
H3325 C3300 0.950 . S
H3326 C3302 0.950 . S
H3327 C3303 0.927 1_655 S
H3328 C3305 0.950 1_655 S
H3329 C3307 0.950 1_655 S
C3330 C3331 1.349 . S
C3330 C3332 1.327 . S
C3330 H3355 0.950 . S
C3331 C3330 1.349 . S
C3331 C3347 1.349 . S
C3332 C3330 1.327 . S
C3332 C3351 1.429 . S
C3332 H3356 0.950 . S
C3333 C3350 1.574 . S
C3333 C3352 1.368 . S
C3333 H3357 0.949 . S
H3334 C3338 0.949 . S
C3335 C3336 1.349 . S
C3335 C3337 1.327 . S
C3335 H3358 0.950 . S
C3336 C3335 1.349 . S
C3336 C3348 1.349 . S
C3337 C3335 1.327 . S
C3337 C3353 1.429 . S
C3337 H3359 0.950 . S
C3338 H3334 0.949 . S
C3338 C3346 1.574 . S
C3338 C3354 1.368 . S
H3339 C3347 0.950 . S
H3340 C3345 0.950 . S
H3341 C3346 0.949 . S
H3342 C3348 0.950 . S
H3343 C3349 0.950 . S
H3344 C3350 0.949 . S
C3345 H3340 0.950 . S
C3345 C3347 1.327 . S
C3345 C3351 1.429 . S
C3346 C3338 1.574 . S
C3346 H3341 0.949 . S
C3346 C3352 1.368 . S
C3347 C3331 1.349 . S
C3347 H3339 0.950 . S
C3347 C3345 1.327 . S
C3348 C3336 1.349 . S
C3348 H3342 0.950 . S
C3348 C3349 1.327 . S
C3349 H3343 0.950 . S
C3349 C3348 1.327 . S
C3349 C3353 1.429 . S
C3350 C3333 1.574 . S
C3350 H3344 0.949 . S
C3350 C3354 1.368 . S
C3351 C3332 1.429 . S
C3351 C3345 1.429 . S
C3351 C3352 1.523 . S
C3352 C3333 1.368 . S
C3352 C3346 1.368 . S
C3352 C3351 1.523 . S
C3353 C3337 1.429 . S
C3353 C3349 1.429 . S
C3353 C3354 1.523 . S
C3354 C3338 1.368 . S
C3354 C3350 1.368 . S
C3354 C3353 1.523 . S
H3355 C3330 0.950 . S
H3356 C3332 0.950 . S
H3357 C3333 0.949 . S
H3358 C3335 0.950 . S
H3359 C3337 0.950 . S
C3360 C3361 1.349 . S
C3360 C3362 1.327 . S
C3360 H3385 0.950 . S
C3361 C3360 1.349 . S
C3361 C3377 1.349 . S
C3362 C3360 1.327 . S
C3362 C3381 1.429 . S
C3362 H3386 0.950 . S
C3363 C3380 1.574 . S
C3363 C3382 1.368 . S
C3363 H3387 0.949 . S
H3364 C3368 0.949 . S
C3365 C3366 1.349 . S
C3365 C3367 1.327 . S
C3365 H3388 0.950 . S
C3366 C3365 1.349 . S
C3366 C3378 1.349 . S
C3367 C3365 1.327 . S
C3367 C3383 1.429 . S
C3367 H3389 0.950 . S
C3368 H3364 0.949 . S
C3368 C3376 1.574 . S
C3368 C3384 1.368 . S
H3369 C3377 0.950 . S
H3370 C3375 0.950 . S
H3371 C3376 0.949 . S
H3372 C3378 0.950 . S
H3373 C3379 0.950 . S
H3374 C3380 0.949 . S
C3375 H3370 0.950 . S
C3375 C3377 1.327 . S
C3375 C3381 1.429 . S
C3376 C3368 1.574 . S
C3376 H3371 0.949 . S
C3376 C3382 1.368 . S
C3377 C3361 1.349 . S
C3377 H3369 0.950 . S
C3377 C3375 1.327 . S
C3378 C3366 1.349 . S
C3378 H3372 0.950 . S
C3378 C3379 1.327 . S
C3379 H3373 0.950 . S
C3379 C3378 1.327 . S
C3379 C3383 1.429 . S
C3380 C3363 1.574 . S
C3380 H3374 0.949 . S
C3380 C3384 1.368 . S
C3381 C3362 1.429 . S
C3381 C3375 1.429 . S
C3381 C3382 1.523 . S
C3382 C3363 1.368 . S
C3382 C3376 1.368 . S
C3382 C3381 1.523 . S
C3383 C3367 1.429 . S
C3383 C3379 1.429 . S
C3383 C3384 1.523 . S
C3384 C3368 1.368 . S
C3384 C3380 1.368 . S
C3384 C3383 1.523 . S
H3385 C3360 0.950 . S
H3386 C3362 0.950 . S
H3387 C3363 0.949 . S
H3388 C3365 0.950 . S
H3389 C3367 0.950 . S
C3390 C3391 1.349 . S
C3390 C3392 1.327 1_554 S
C3390 H3415 0.950 . S
C3391 C3390 1.349 . S
C3391 C3407 1.349 1_554 S
C3392 C3390 1.327 1_556 S
C3392 C3411 1.429 . S
C3392 H3416 0.950 . S
C3393 C3410 1.574 . S
C3393 C3412 1.368 . S
C3393 H3417 0.949 . S
H3394 C3398 0.949 . S
C3395 C3396 1.349 . S
C3395 C3397 1.327 . S
C3395 H3418 0.950 . S
C3396 C3395 1.349 . S
C3396 C3408 1.349 . S
C3397 C3395 1.327 . S
C3397 C3413 1.429 . S
C3397 H3419 0.950 . S
C3398 H3394 0.949 . S
C3398 C3406 1.574 . S
C3398 C3414 1.368 . S
H3399 C3407 0.950 . S
H3400 C3405 0.950 . S
H3401 C3406 0.949 . S
H3402 C3408 0.950 . S
H3403 C3409 0.950 . S
H3404 C3410 0.949 . S
C3405 H3400 0.950 . S
C3405 C3407 1.327 . S
C3405 C3411 1.429 . S
C3406 C3398 1.574 . S
C3406 H3401 0.949 . S
C3406 C3412 1.368 . S
C3407 C3391 1.349 1_556 S
C3407 H3399 0.950 . S
C3407 C3405 1.327 . S
C3408 C3396 1.349 . S
C3408 H3402 0.950 . S
C3408 C3409 1.327 . S
C3409 H3403 0.950 . S
C3409 C3408 1.327 . S
C3409 C3413 1.429 . S
C3410 C3393 1.574 . S
C3410 H3404 0.949 . S
C3410 C3414 1.368 . S
C3411 C3392 1.429 . S
C3411 C3405 1.429 . S
C3411 C3412 1.523 . S
C3412 C3393 1.368 . S
C3412 C3406 1.368 . S
C3412 C3411 1.523 . S
C3413 C3397 1.429 . S
C3413 C3409 1.429 . S
C3413 C3414 1.523 . S
C3414 C3398 1.368 . S
C3414 C3410 1.368 . S
C3414 C3413 1.523 . S
H3415 C3390 0.950 . S
H3416 C3392 0.950 . S
H3417 C3393 0.949 . S
H3418 C3395 0.950 . S
H3419 C3397 0.950 . S
C3420 C3421 1.349 . S
C3420 C3422 1.327 . S
C3420 H3445 0.950 . S
C3421 C3420 1.349 . S
C3421 C3437 1.349 . S
C3422 C3420 1.327 . S
C3422 C3441 1.429 . S
C3422 H3446 0.950 . S
C3423 C3440 1.574 . S
C3423 C3442 1.368 . S
C3423 H3447 0.949 . S
H3424 C3428 0.949 . S
C3425 C3426 1.349 . S
C3425 C3427 1.327 . S
C3425 H3448 0.950 . S
C3426 C3425 1.349 . S
C3426 C3438 1.349 . S
C3427 C3425 1.327 . S
C3427 C3443 1.429 . S
C3427 H3449 0.950 . S
C3428 H3424 0.949 . S
C3428 C3436 1.574 . S
C3428 C3444 1.368 . S
H3429 C3437 0.950 . S
H3430 C3435 0.950 . S
H3431 C3436 0.949 . S
H3432 C3438 0.950 . S
H3433 C3439 0.950 . S
H3434 C3440 0.949 . S
C3435 H3430 0.950 . S
C3435 C3437 1.327 . S
C3435 C3441 1.429 . S
C3436 C3428 1.574 . S
C3436 H3431 0.949 . S
C3436 C3442 1.368 . S
C3437 C3421 1.349 . S
C3437 H3429 0.950 . S
C3437 C3435 1.327 . S
C3438 C3426 1.349 . S
C3438 H3432 0.950 . S
C3438 C3439 1.327 . S
C3439 H3433 0.950 . S
C3439 C3438 1.327 . S
C3439 C3443 1.429 . S
C3440 C3423 1.574 . S
C3440 H3434 0.949 . S
C3440 C3444 1.368 . S
C3441 C3422 1.429 . S
C3441 C3435 1.429 . S
C3441 C3442 1.523 . S
C3442 C3423 1.368 . S
C3442 C3436 1.368 . S
C3442 C3441 1.523 . S
C3443 C3427 1.429 . S
C3443 C3439 1.429 . S
C3443 C3444 1.523 . S
C3444 C3428 1.368 . S
C3444 C3440 1.368 . S
C3444 C3443 1.523 . S
H3445 C3420 0.950 . S
H3446 C3422 0.950 . S
H3447 C3423 0.949 . S
H3448 C3425 0.950 . S
H3449 C3427 0.950 . S
C3450 C3451 1.349 . S
C3450 C3452 1.327 . S
C3450 H3475 0.950 . S
C3451 C3450 1.349 . S
C3451 C3467 1.349 . S
C3452 C3450 1.327 . S
C3452 C3471 1.429 . S
C3452 H3476 0.950 . S
C3453 C3470 1.574 . S
C3453 C3472 1.368 . S
C3453 H3477 0.949 . S
H3454 C3458 0.949 . S
C3455 C3456 1.349 . S
C3455 C3457 1.327 . S
C3455 H3478 0.950 . S
C3456 C3455 1.349 . S
C3456 C3468 1.349 . S
C3457 C3455 1.327 . S
C3457 C3473 1.429 . S
C3457 H3479 0.950 . S
C3458 H3454 0.949 . S
C3458 C3466 1.574 . S
C3458 C3474 1.368 . S
H3459 C3467 0.950 . S
H3460 C3465 0.950 . S
H3461 C3466 0.949 . S
H3462 C3468 0.950 . S
H3463 C3469 0.950 . S
H3464 C3470 0.949 . S
C3465 H3460 0.950 . S
C3465 C3467 1.327 . S
C3465 C3471 1.429 . S
C3466 C3458 1.574 . S
C3466 H3461 0.949 . S
C3466 C3472 1.368 . S
C3467 C3451 1.349 . S
C3467 H3459 0.950 . S
C3467 C3465 1.327 . S
C3468 C3456 1.349 . S
C3468 H3462 0.950 . S
C3468 C3469 1.327 . S
C3469 H3463 0.950 . S
C3469 C3468 1.327 . S
C3469 C3473 1.429 . S
C3470 C3453 1.574 . S
C3470 H3464 0.949 . S
C3470 C3474 1.368 . S
C3471 C3452 1.429 . S
C3471 C3465 1.429 . S
C3471 C3472 1.523 . S
C3472 C3453 1.368 . S
C3472 C3466 1.368 . S
C3472 C3471 1.523 . S
C3473 C3457 1.429 . S
C3473 C3469 1.429 . S
C3473 C3474 1.523 . S
C3474 C3458 1.368 . S
C3474 C3470 1.368 . S
C3474 C3473 1.523 . S
H3475 C3450 0.950 . S
H3476 C3452 0.950 . S
H3477 C3453 0.949 . S
H3478 C3455 0.950 . S
H3479 C3457 0.950 . S
C3480 C3481 1.349 . S
C3480 C3482 1.327 . S
C3480 H3505 0.950 . S
C3481 C3480 1.349 . S
C3481 C3497 1.349 . S
C3482 C3480 1.327 . S
C3482 C3501 1.429 . S
C3482 H3506 0.950 . S
C3483 C3500 1.574 . S
C3483 C3502 1.368 . S
C3483 H3507 0.949 . S
H3484 C3488 0.949 . S
C3485 C3486 1.349 . S
C3485 C3487 1.327 . S
C3485 H3508 0.950 . S
C3486 C3485 1.349 . S
C3486 C3498 1.349 . S
C3487 C3485 1.327 . S
C3487 C3503 1.429 . S
C3487 H3509 0.950 . S
C3488 H3484 0.949 . S
C3488 C3496 1.574 . S
C3488 C3504 1.368 . S
H3489 C3497 0.950 . S
H3490 C3495 0.950 . S
H3491 C3496 0.949 . S
H3492 C3498 0.950 . S
H3493 C3499 0.950 . S
H3494 C3500 0.949 . S
C3495 H3490 0.950 . S
C3495 C3497 1.327 . S
C3495 C3501 1.429 . S
C3496 C3488 1.574 . S
C3496 H3491 0.949 . S
C3496 C3502 1.368 . S
C3497 C3481 1.349 . S
C3497 H3489 0.950 . S
C3497 C3495 1.327 . S
C3498 C3486 1.349 . S
C3498 H3492 0.950 . S
C3498 C3499 1.327 . S
C3499 H3493 0.950 . S
C3499 C3498 1.327 . S
C3499 C3503 1.429 . S
C3500 C3483 1.574 . S
C3500 H3494 0.949 . S
C3500 C3504 1.368 . S
C3501 C3482 1.429 . S
C3501 C3495 1.429 . S
C3501 C3502 1.523 . S
C3502 C3483 1.368 . S
C3502 C3496 1.368 . S
C3502 C3501 1.523 . S
C3503 C3487 1.429 . S
C3503 C3499 1.429 . S
C3503 C3504 1.523 . S
C3504 C3488 1.368 . S
C3504 C3500 1.368 . S
C3504 C3503 1.523 . S
H3505 C3480 0.950 . S
H3506 C3482 0.950 . S
H3507 C3483 0.949 . S
H3508 C3485 0.950 . S
H3509 C3487 0.950 . S
C3510 C3511 1.349 . S
C3510 C3512 1.327 . S
C3510 H3535 0.950 . S
C3511 C3510 1.349 . S
C3511 C3527 1.349 . S
C3512 C3510 1.327 . S
C3512 C3531 1.429 . S
C3512 H3536 0.950 . S
C3513 C3530 1.574 . S
C3513 C3532 1.368 . S
C3513 H3537 0.949 . S
H3514 C3518 0.949 . S
C3515 C3516 1.349 . S
C3515 C3517 1.327 . S
C3515 H3538 0.950 . S
C3516 C3515 1.349 . S
C3516 C3528 1.349 . S
C3517 C3515 1.327 . S
C3517 C3533 1.429 . S
C3517 H3539 0.950 . S
C3518 H3514 0.949 . S
C3518 C3526 1.574 . S
C3518 C3534 1.368 . S
H3519 C3527 0.950 . S
H3520 C3525 0.950 . S
H3521 C3526 0.949 . S
H3522 C3528 0.950 . S
H3523 C3529 0.950 . S
H3524 C3530 0.949 . S
C3525 H3520 0.950 . S
C3525 C3527 1.327 . S
C3525 C3531 1.429 . S
C3526 C3518 1.574 . S
C3526 H3521 0.949 . S
C3526 C3532 1.368 . S
C3527 C3511 1.349 . S
C3527 H3519 0.950 . S
C3527 C3525 1.327 . S
C3528 C3516 1.349 . S
C3528 H3522 0.950 . S
C3528 C3529 1.327 . S
C3529 H3523 0.950 . S
C3529 C3528 1.327 . S
C3529 C3533 1.429 . S
C3530 C3513 1.574 . S
C3530 H3524 0.949 . S
C3530 C3534 1.368 . S
C3531 C3512 1.429 . S
C3531 C3525 1.429 . S
C3531 C3532 1.523 . S
C3532 C3513 1.368 . S
C3532 C3526 1.368 . S
C3532 C3531 1.523 . S
C3533 C3517 1.429 . S
C3533 C3529 1.429 . S
C3533 C3534 1.523 . S
C3534 C3518 1.368 . S
C3534 C3530 1.368 . S
C3534 C3533 1.523 . S
H3535 C3510 0.950 . S
H3536 C3512 0.950 . S
H3537 C3513 0.949 . S
H3538 C3515 0.950 . S
H3539 C3517 0.950 . S
C3540 C3541 1.349 . S
C3540 C3542 1.327 . S
C3540 H3565 0.950 . S
C3541 C3540 1.349 . S
C3541 C3557 1.349 . S
C3542 C3540 1.327 . S
C3542 C3561 1.429 . S
C3542 H3566 0.950 . S
C3543 C3560 1.574 . S
C3543 C3562 1.368 . S
C3543 H3567 0.949 . S
H3544 C3548 0.949 . S
C3545 C3546 1.349 . S
C3545 C3547 1.327 . S
C3545 H3568 0.950 . S
C3546 C3545 1.349 . S
C3546 C3558 1.349 . S
C3547 C3545 1.327 . S
C3547 C3563 1.429 . S
C3547 H3569 0.950 . S
C3548 H3544 0.949 . S
C3548 C3556 1.574 . S
C3548 C3564 1.368 . S
H3549 C3557 0.950 . S
H3550 C3555 0.950 . S
H3551 C3556 0.949 . S
H3552 C3558 0.950 . S
H3553 C3559 0.950 . S
H3554 C3560 0.949 . S
C3555 H3550 0.950 . S
C3555 C3557 1.327 . S
C3555 C3561 1.429 . S
C3556 C3548 1.574 . S
C3556 H3551 0.949 . S
C3556 C3562 1.368 . S
C3557 C3541 1.349 . S
C3557 H3549 0.950 . S
C3557 C3555 1.327 . S
C3558 C3546 1.349 . S
C3558 H3552 0.950 . S
C3558 C3559 1.327 . S
C3559 H3553 0.950 . S
C3559 C3558 1.327 . S
C3559 C3563 1.429 . S
C3560 C3543 1.574 . S
C3560 H3554 0.949 . S
C3560 C3564 1.368 . S
C3561 C3542 1.429 . S
C3561 C3555 1.429 . S
C3561 C3562 1.523 . S
C3562 C3543 1.368 . S
C3562 C3556 1.368 . S
C3562 C3561 1.523 . S
C3563 C3547 1.429 . S
C3563 C3559 1.429 . S
C3563 C3564 1.523 . S
C3564 C3548 1.368 . S
C3564 C3560 1.368 . S
C3564 C3563 1.523 . S
H3565 C3540 0.950 . S
H3566 C3542 0.950 . S
H3567 C3543 0.949 . S
H3568 C3545 0.950 . S
H3569 C3547 0.950 . S
C3570 C3571 1.349 . S
C3570 C3572 1.327 . S
C3570 H3595 0.950 . S
C3571 C3570 1.349 . S
C3571 C3587 1.349 . S
C3572 C3570 1.327 . S
C3572 C3591 1.429 . S
C3572 H3596 0.950 . S
C3573 C3590 1.574 . S
C3573 C3592 1.368 . S
C3573 H3597 0.949 . S
H3574 C3578 0.949 . S
C3575 C3576 1.349 . S
C3575 C3577 1.327 . S
C3575 H3598 0.950 . S
C3576 C3575 1.349 . S
C3576 C3588 1.349 . S
C3577 C3575 1.327 . S
C3577 C3593 1.429 . S
C3577 H3599 0.950 . S
C3578 H3574 0.949 . S
C3578 C3586 1.574 . S
C3578 C3594 1.368 . S
H3579 C3587 0.950 . S
H3580 C3585 0.950 . S
H3581 C3586 0.949 . S
H3582 C3588 0.950 . S
H3583 C3589 0.950 . S
H3584 C3590 0.949 . S
C3585 H3580 0.950 . S
C3585 C3587 1.327 . S
C3585 C3591 1.429 . S
C3586 C3578 1.574 . S
C3586 H3581 0.949 . S
C3586 C3592 1.368 . S
C3587 C3571 1.349 . S
C3587 H3579 0.950 . S
C3587 C3585 1.327 . S
C3588 C3576 1.349 . S
C3588 H3582 0.950 . S
C3588 C3589 1.327 . S
C3589 H3583 0.950 . S
C3589 C3588 1.327 . S
C3589 C3593 1.429 . S
C3590 C3573 1.574 . S
C3590 H3584 0.949 . S
C3590 C3594 1.368 . S
C3591 C3572 1.429 . S
C3591 C3585 1.429 . S
C3591 C3592 1.523 . S
C3592 C3573 1.368 . S
C3592 C3586 1.368 . S
C3592 C3591 1.523 . S
C3593 C3577 1.429 . S
C3593 C3589 1.429 . S
C3593 C3594 1.523 . S
C3594 C3578 1.368 . S
C3594 C3590 1.368 . S
C3594 C3593 1.523 . S
H3595 C3570 0.950 . S
H3596 C3572 0.950 . S
H3597 C3573 0.949 . S
H3598 C3575 0.950 . S
H3599 C3577 0.950 . S
C3600 C3601 1.349 . S
C3600 C3602 1.327 . S
C3600 H3625 0.950 . S
C3601 C3600 1.349 . S
C3601 C3617 1.349 . S
C3602 C3600 1.327 . S
C3602 C3621 1.429 . S
C3602 H3626 0.950 . S
C3603 C3620 1.574 . S
C3603 C3622 1.368 . S
C3603 H3627 0.949 . S
H3604 C3608 0.949 . S
C3605 C3606 1.349 . S
C3605 C3607 1.327 . S
C3605 H3628 0.950 . S
C3606 C3605 1.349 . S
C3606 C3618 1.349 . S
C3607 C3605 1.327 . S
C3607 C3623 1.429 . S
C3607 H3629 0.950 . S
C3608 H3604 0.949 . S
C3608 C3616 1.574 . S
C3608 C3624 1.368 . S
H3609 C3617 0.950 . S
H3610 C3615 0.950 . S
H3611 C3616 0.949 . S
H3612 C3618 0.950 . S
H3613 C3619 0.950 . S
H3614 C3620 0.949 . S
C3615 H3610 0.950 . S
C3615 C3617 1.327 . S
C3615 C3621 1.429 . S
C3616 C3608 1.574 . S
C3616 H3611 0.949 . S
C3616 C3622 1.368 . S
C3617 C3601 1.349 . S
C3617 H3609 0.950 . S
C3617 C3615 1.327 . S
C3618 C3606 1.349 . S
C3618 H3612 0.950 . S
C3618 C3619 1.327 . S
C3619 H3613 0.950 . S
C3619 C3618 1.327 . S
C3619 C3623 1.429 . S
C3620 C3603 1.574 . S
C3620 H3614 0.949 . S
C3620 C3624 1.368 . S
C3621 C3602 1.429 . S
C3621 C3615 1.429 . S
C3621 C3622 1.523 . S
C3622 C3603 1.368 . S
C3622 C3616 1.368 . S
C3622 C3621 1.523 . S
C3623 C3607 1.429 . S
C3623 C3619 1.429 . S
C3623 C3624 1.523 . S
C3624 C3608 1.368 . S
C3624 C3620 1.368 . S
C3624 C3623 1.523 . S
H3625 C3600 0.950 . S
H3626 C3602 0.950 . S
H3627 C3603 0.949 . S
H3628 C3605 0.950 . S
H3629 C3607 0.950 . S
C3630 C3631 1.349 . S
C3630 C3632 1.327 . S
C3630 H3655 0.950 . S
C3631 C3630 1.349 . S
C3631 C3647 1.349 . S
C3632 C3630 1.327 . S
C3632 C3651 1.429 . S
C3632 H3656 0.950 . S
C3633 C3650 1.574 . S
C3633 C3652 1.368 . S
C3633 H3657 0.949 . S
H3634 C3638 0.949 . S
C3635 C3636 1.349 . S
C3635 C3637 1.327 . S
C3635 H3658 0.950 . S
C3636 C3635 1.349 . S
C3636 C3648 1.349 . S
C3637 C3635 1.327 . S
C3637 C3653 1.429 . S
C3637 H3659 0.950 . S
C3638 H3634 0.949 . S
C3638 C3646 1.574 . S
C3638 C3654 1.368 . S
H3639 C3647 0.950 . S
H3640 C3645 0.950 . S
H3641 C3646 0.949 . S
H3642 C3648 0.950 . S
H3643 C3649 0.950 . S
H3644 C3650 0.949 . S
C3645 H3640 0.950 . S
C3645 C3647 1.327 . S
C3645 C3651 1.429 . S
C3646 C3638 1.574 . S
C3646 H3641 0.949 . S
C3646 C3652 1.368 . S
C3647 C3631 1.349 . S
C3647 H3639 0.950 . S
C3647 C3645 1.327 . S
C3648 C3636 1.349 . S
C3648 H3642 0.950 . S
C3648 C3649 1.327 . S
C3649 H3643 0.950 . S
C3649 C3648 1.327 . S
C3649 C3653 1.429 . S
C3650 C3633 1.574 . S
C3650 H3644 0.949 . S
C3650 C3654 1.368 . S
C3651 C3632 1.429 . S
C3651 C3645 1.429 . S
C3651 C3652 1.523 . S
C3652 C3633 1.368 . S
C3652 C3646 1.368 . S
C3652 C3651 1.523 . S
C3653 C3637 1.429 . S
C3653 C3649 1.429 . S
C3653 C3654 1.523 . S
C3654 C3638 1.368 . S
C3654 C3650 1.368 . S
C3654 C3653 1.523 . S
H3655 C3630 0.950 . S
H3656 C3632 0.950 . S
H3657 C3633 0.949 . S
H3658 C3635 0.950 . S
H3659 C3637 0.950 . S
C3660 C3661 1.349 . S
C3660 C3662 1.327 . S
C3660 H3685 0.950 . S
C3661 C3660 1.349 . S
C3661 C3677 1.349 . S
C3662 C3660 1.327 . S
C3662 C3681 1.429 . S
C3662 H3686 0.950 . S
C3663 C3680 1.574 . S
C3663 C3682 1.368 . S
C3663 H3687 0.949 . S
H3664 C3668 0.949 . S
C3665 C3666 1.349 . S
C3665 C3667 1.327 . S
C3665 H3688 0.950 . S
C3666 C3665 1.349 . S
C3666 C3678 1.349 . S
C3667 C3665 1.327 . S
C3667 C3683 1.429 . S
C3667 H3689 0.950 . S
C3668 H3664 0.949 . S
C3668 C3676 1.574 . S
C3668 C3684 1.368 . S
H3669 C3677 0.950 . S
H3670 C3675 0.950 . S
H3671 C3676 0.949 . S
H3672 C3678 0.950 . S
H3673 C3679 0.950 . S
H3674 C3680 0.949 . S
C3675 H3670 0.950 . S
C3675 C3677 1.327 . S
C3675 C3681 1.429 . S
C3676 C3668 1.574 . S
C3676 H3671 0.949 . S
C3676 C3682 1.368 . S
C3677 C3661 1.349 . S
C3677 H3669 0.950 . S
C3677 C3675 1.327 . S
C3678 C3666 1.349 . S
C3678 H3672 0.950 . S
C3678 C3679 1.327 . S
C3679 H3673 0.950 . S
C3679 C3678 1.327 . S
C3679 C3683 1.429 . S
C3680 C3663 1.574 . S
C3680 H3674 0.949 . S
C3680 C3684 1.368 . S
C3681 C3662 1.429 . S
C3681 C3675 1.429 . S
C3681 C3682 1.523 . S
C3682 C3663 1.368 . S
C3682 C3676 1.368 . S
C3682 C3681 1.523 . S
C3683 C3667 1.429 . S
C3683 C3679 1.429 . S
C3683 C3684 1.523 . S
C3684 C3668 1.368 . S
C3684 C3680 1.368 . S
C3684 C3683 1.523 . S
H3685 C3660 0.950 . S
H3686 C3662 0.950 . S
H3687 C3663 0.949 . S
H3688 C3665 0.950 . S
H3689 C3667 0.950 . S
C3690 C3691 1.349 . S
C3690 C3692 1.327 . S
C3690 H3715 0.950 . S
C3691 C3690 1.349 . S
C3691 C3707 1.349 1_554 S
C3692 C3690 1.327 . S
C3692 C3711 1.429 . S
C3692 H3716 0.950 . S
C3693 C3710 1.574 . S
C3693 C3712 1.368 1_556 S
C3693 H3717 0.949 . S
H3694 C3698 0.949 . S
C3695 C3696 1.349 . S
C3695 C3697 1.326 . S
C3695 H3718 0.950 1_554 S
C3696 C3695 1.349 . S
C3696 C3708 1.349 1_545 S
C3697 C3695 1.326 . S
C3697 C3713 1.460 1_545 S
C3697 H3719 0.920 1_554 S
C3698 H3694 0.949 . S
C3698 C3706 1.574 . S
C3698 C3714 1.368 . S
H3699 C3707 0.950 . S
H3700 C3705 0.950 . S
H3701 C3706 0.949 . S
H3702 C3708 0.950 . S
H3703 C3709 0.950 . S
H3704 C3710 0.949 . S
C3705 H3700 0.950 . S
C3705 C3707 1.327 . S
C3705 C3711 1.429 1_556 S
C3706 C3698 1.574 . S
C3706 H3701 0.949 . S
C3706 C3712 1.368 . S
C3707 C3691 1.349 1_556 S
C3707 H3699 0.950 . S
C3707 C3705 1.327 . S
C3708 C3696 1.349 1_565 S
C3708 H3702 0.950 . S
C3708 C3709 1.327 . S
C3709 H3703 0.950 . S
C3709 C3708 1.327 . S
C3709 C3713 1.429 . S
C3710 C3693 1.574 . S
C3710 H3704 0.949 . S
C3710 C3714 1.368 1_556 S
C3711 C3692 1.429 . S
C3711 C3705 1.429 1_554 S
C3711 C3712 1.523 . S
C3712 C3693 1.368 1_554 S
C3712 C3706 1.368 . S
C3712 C3711 1.523 . S
C3713 C3697 1.460 1_565 S
C3713 C3709 1.429 . S
C3713 C3714 1.523 . S
C3714 C3698 1.368 . S
C3714 C3710 1.368 1_554 S
C3714 C3713 1.523 . S
H3715 C3690 0.950 . S
H3716 C3692 0.950 . S
H3717 C3693 0.949 . S
H3718 C3695 0.950 1_556 S
H3719 C3697 0.920 1_556 S
C3720 C3721 1.349 . S
C3720 C3722 1.327 . S
C3720 H3745 0.950 . S
C3721 C3720 1.349 . S
C3721 C3737 1.349 . S
C3722 C3720 1.327 . S
C3722 C3741 1.429 . S
C3722 H3746 0.950 . S
C3723 C3740 1.574 . S
C3723 C3742 1.368 . S
C3723 H3747 0.949 . S
H3724 C3728 0.949 . S
C3725 C3726 1.349 . S
C3725 C3727 1.327 . S
C3725 H3748 0.950 . S
C3726 C3725 1.349 . S
C3726 C3738 1.349 . S
C3727 C3725 1.327 . S
C3727 C3743 1.429 . S
C3727 H3749 0.950 . S
C3728 H3724 0.949 . S
C3728 C3736 1.574 . S
C3728 C3744 1.368 . S
H3729 C3737 0.950 . S
H3730 C3735 0.950 . S
H3731 C3736 0.949 . S
H3732 C3738 0.950 . S
H3733 C3739 0.950 . S
H3734 C3740 0.949 . S
C3735 H3730 0.950 . S
C3735 C3737 1.327 . S
C3735 C3741 1.429 . S
C3736 C3728 1.574 . S
C3736 H3731 0.949 . S
C3736 C3742 1.368 . S
C3737 C3721 1.349 . S
C3737 H3729 0.950 . S
C3737 C3735 1.327 . S
C3738 C3726 1.349 . S
C3738 H3732 0.950 . S
C3738 C3739 1.327 . S
C3739 H3733 0.950 . S
C3739 C3738 1.327 . S
C3739 C3743 1.429 . S
C3740 C3723 1.574 . S
C3740 H3734 0.949 . S
C3740 C3744 1.368 . S
C3741 C3722 1.429 . S
C3741 C3735 1.429 . S
C3741 C3742 1.523 . S
C3742 C3723 1.368 . S
C3742 C3736 1.368 . S
C3742 C3741 1.523 . S
C3743 C3727 1.429 . S
C3743 C3739 1.429 . S
C3743 C3744 1.523 . S
C3744 C3728 1.368 . S
C3744 C3740 1.368 . S
C3744 C3743 1.523 . S
H3745 C3720 0.950 . S
H3746 C3722 0.950 . S
H3747 C3723 0.949 . S
H3748 C3725 0.950 . S
H3749 C3727 0.950 . S
C3750 C3751 1.349 . S
C3750 C3752 1.327 . S
C3750 H3775 0.950 . S
C3751 C3750 1.349 . S
C3751 C3767 1.351 1_554 S
C3752 C3750 1.327 . S
C3752 C3771 1.429 . S
C3752 H3776 0.950 . S
C3753 C3770 1.574 . S
C3753 C3772 1.368 . S
C3753 H3777 0.949 1_554 S
H3754 C3758 0.949 . S
C3755 C3756 1.349 . S
C3755 C3757 1.327 . S
C3755 H3778 0.950 . S
C3756 C3755 1.349 . S
C3756 C3768 1.349 . S
C3757 C3755 1.327 . S
C3757 C3773 1.429 . S
C3757 H3779 0.950 . S
C3758 H3754 0.949 . S
C3758 C3766 1.574 . S
C3758 C3774 1.368 . S
H3759 C3767 0.947 . S
H3760 C3765 0.950 1_556 S
H3761 C3766 0.949 . S
H3762 C3768 0.950 . S
H3763 C3769 0.950 . S
H3764 C3770 0.967 . S
C3765 H3760 0.950 1_554 S
C3765 C3767 1.327 1_554 S
C3765 C3771 1.429 . S
C3766 C3758 1.574 . S
C3766 H3761 0.949 . S
C3766 C3772 1.368 . S
C3767 C3751 1.351 1_556 S
C3767 H3759 0.947 . S
C3767 C3765 1.327 1_556 S
C3768 C3756 1.349 . S
C3768 H3762 0.950 . S
C3768 C3769 1.327 . S
C3769 H3763 0.950 . S
C3769 C3768 1.327 . S
C3769 C3773 1.429 . S
C3770 C3753 1.574 . S
C3770 H3764 0.967 . S
C3770 C3774 1.368 . S
C3771 C3752 1.429 . S
C3771 C3765 1.429 . S
C3771 C3772 1.523 . S
C3772 C3753 1.368 . S
C3772 C3766 1.368 . S
C3772 C3771 1.523 . S
C3773 C3757 1.429 . S
C3773 C3769 1.429 . S
C3773 C3774 1.523 . S
C3774 C3758 1.368 . S
C3774 C3770 1.368 . S
C3774 C3773 1.523 . S
H3775 C3750 0.950 . S
H3776 C3752 0.950 . S
H3777 C3753 0.949 1_556 S
H3778 C3755 0.950 . S
H3779 C3757 0.950 . S
C3780 C3781 1.349 . S
C3780 C3782 1.327 . S
C3780 H3805 0.950 . S
C3781 C3780 1.349 . S
C3781 C3797 1.349 . S
C3782 C3780 1.327 . S
C3782 C3801 1.429 . S
C3782 H3806 0.950 . S
C3783 C3800 1.574 . S
C3783 C3802 1.368 . S
C3783 H3807 0.949 . S
H3784 C3788 0.949 . S
C3785 C3786 1.349 . S
C3785 C3787 1.327 . S
C3785 H3808 0.950 . S
C3786 C3785 1.349 . S
C3786 C3798 1.349 . S
C3787 C3785 1.327 . S
C3787 C3803 1.429 . S
C3787 H3809 0.950 . S
C3788 H3784 0.949 . S
C3788 C3796 1.574 . S
C3788 C3804 1.368 . S
H3789 C3797 0.950 . S
H3790 C3795 0.950 . S
H3791 C3796 0.949 . S
H3792 C3798 0.950 . S
H3793 C3799 0.950 . S
H3794 C3800 0.949 . S
C3795 H3790 0.950 . S
C3795 C3797 1.327 . S
C3795 C3801 1.429 . S
C3796 C3788 1.574 . S
C3796 H3791 0.949 . S
C3796 C3802 1.368 . S
C3797 C3781 1.349 . S
C3797 H3789 0.950 . S
C3797 C3795 1.327 . S
C3798 C3786 1.349 . S
C3798 H3792 0.950 . S
C3798 C3799 1.327 . S
C3799 H3793 0.950 . S
C3799 C3798 1.327 . S
C3799 C3803 1.429 . S
C3800 C3783 1.574 . S
C3800 H3794 0.949 . S
C3800 C3804 1.368 . S
C3801 C3782 1.429 . S
C3801 C3795 1.429 . S
C3801 C3802 1.523 . S
C3802 C3783 1.368 . S
C3802 C3796 1.368 . S
C3802 C3801 1.523 . S
C3803 C3787 1.429 . S
C3803 C3799 1.429 . S
C3803 C3804 1.523 . S
C3804 C3788 1.368 . S
C3804 C3800 1.368 . S
C3804 C3803 1.523 . S
H3805 C3780 0.950 . S
H3806 C3782 0.950 . S
H3807 C3783 0.949 . S
H3808 C3785 0.950 . S
H3809 C3787 0.950 . S
C3810 C3811 1.349 . S
C3810 C3812 1.327 . S
C3810 H3835 0.950 . S
C3811 C3810 1.349 . S
C3811 C3827 1.349 . S
C3812 C3810 1.327 . S
C3812 C3831 1.429 . S
C3812 H3836 0.950 . S
C3813 C3830 1.574 . S
C3813 C3832 1.368 . S
C3813 H3837 0.949 . S
H3814 C3818 0.949 . S
C3815 C3816 1.349 . S
C3815 C3817 1.327 . S
C3815 H3838 0.950 . S
C3816 C3815 1.349 . S
C3816 C3828 1.349 . S
C3817 C3815 1.327 . S
C3817 C3833 1.429 . S
C3817 H3839 0.950 . S
C3818 H3814 0.949 . S
C3818 C3826 1.574 . S
C3818 C3834 1.368 . S
H3819 C3827 0.950 . S
H3820 C3825 0.950 . S
H3821 C3826 0.949 . S
H3822 C3828 0.950 . S
H3823 C3829 0.950 . S
H3824 C3830 0.949 . S
C3825 H3820 0.950 . S
C3825 C3827 1.327 . S
C3825 C3831 1.429 . S
C3826 C3818 1.574 . S
C3826 H3821 0.949 . S
C3826 C3832 1.368 . S
C3827 C3811 1.349 . S
C3827 H3819 0.950 . S
C3827 C3825 1.327 . S
C3828 C3816 1.349 . S
C3828 H3822 0.950 . S
C3828 C3829 1.327 . S
C3829 H3823 0.950 . S
C3829 C3828 1.327 . S
C3829 C3833 1.429 . S
C3830 C3813 1.574 . S
C3830 H3824 0.949 . S
C3830 C3834 1.368 . S
C3831 C3812 1.429 . S
C3831 C3825 1.429 . S
C3831 C3832 1.523 . S
C3832 C3813 1.368 . S
C3832 C3826 1.368 . S
C3832 C3831 1.523 . S
C3833 C3817 1.429 . S
C3833 C3829 1.429 . S
C3833 C3834 1.523 . S
C3834 C3818 1.368 . S
C3834 C3830 1.368 . S
C3834 C3833 1.523 . S
H3835 C3810 0.950 . S
H3836 C3812 0.950 . S
H3837 C3813 0.949 . S
H3838 C3815 0.950 . S
H3839 C3817 0.950 . S
C3840 C3841 1.349 . S
C3840 C3842 1.327 . S
C3840 H3865 0.950 . S
C3841 C3840 1.349 . S
C3841 C3857 1.349 . S
C3842 C3840 1.327 . S
C3842 C3861 1.429 . S
C3842 H3866 0.950 . S
C3843 C3860 1.574 . S
C3843 C3862 1.368 . S
C3843 H3867 0.949 . S
H3844 C3848 0.949 . S
C3845 C3846 1.349 . S
C3845 C3847 1.327 . S
C3845 H3868 0.950 . S
C3846 C3845 1.349 . S
C3846 C3858 1.349 . S
C3847 C3845 1.327 . S
C3847 C3863 1.429 . S
C3847 H3869 0.950 . S
C3848 H3844 0.949 . S
C3848 C3856 1.574 . S
C3848 C3864 1.368 . S
H3849 C3857 0.950 . S
H3850 C3855 0.950 . S
H3851 C3856 0.949 . S
H3852 C3858 0.950 . S
H3853 C3859 0.950 . S
H3854 C3860 0.949 . S
C3855 H3850 0.950 . S
C3855 C3857 1.327 . S
C3855 C3861 1.429 . S
C3856 C3848 1.574 . S
C3856 H3851 0.949 . S
C3856 C3862 1.368 . S
C3857 C3841 1.349 . S
C3857 H3849 0.950 . S
C3857 C3855 1.327 . S
C3858 C3846 1.349 . S
C3858 H3852 0.950 . S
C3858 C3859 1.327 . S
C3859 H3853 0.950 . S
C3859 C3858 1.327 . S
C3859 C3863 1.429 . S
C3860 C3843 1.574 . S
C3860 H3854 0.949 . S
C3860 C3864 1.368 . S
C3861 C3842 1.429 . S
C3861 C3855 1.429 . S
C3861 C3862 1.523 . S
C3862 C3843 1.368 . S
C3862 C3856 1.368 . S
C3862 C3861 1.523 . S
C3863 C3847 1.429 . S
C3863 C3859 1.429 . S
C3863 C3864 1.523 . S
C3864 C3848 1.368 . S
C3864 C3860 1.368 . S
C3864 C3863 1.523 . S
H3865 C3840 0.950 . S
H3866 C3842 0.950 . S
H3867 C3843 0.949 . S
H3868 C3845 0.950 . S
H3869 C3847 0.950 . S
C3870 C3871 1.349 . S
C3870 C3872 1.327 . S
C3870 H3895 0.950 . S
C3871 C3870 1.349 . S
C3871 C3887 1.349 . S
C3872 C3870 1.327 . S
C3872 C3891 1.429 . S
C3872 H3896 0.950 . S
C3873 C3890 1.574 . S
C3873 C3892 1.368 . S
C3873 H3897 0.949 . S
H3874 C3878 0.949 . S
C3875 C3876 1.349 . S
C3875 C3877 1.327 . S
C3875 H3898 0.950 . S
C3876 C3875 1.349 . S
C3876 C3888 1.349 . S
C3877 C3875 1.327 . S
C3877 C3893 1.429 . S
C3877 H3899 0.950 . S
C3878 H3874 0.949 . S
C3878 C3886 1.574 . S
C3878 C3894 1.368 . S
H3879 C3887 0.950 . S
H3880 C3885 0.950 . S
H3881 C3886 0.949 . S
H3882 C3888 0.950 . S
H3883 C3889 0.950 . S
H3884 C3890 0.949 . S
C3885 H3880 0.950 . S
C3885 C3887 1.327 . S
C3885 C3891 1.429 . S
C3886 C3878 1.574 . S
C3886 H3881 0.949 . S
C3886 C3892 1.368 . S
C3887 C3871 1.349 . S
C3887 H3879 0.950 . S
C3887 C3885 1.327 . S
C3888 C3876 1.349 . S
C3888 H3882 0.950 . S
C3888 C3889 1.327 . S
C3889 H3883 0.950 . S
C3889 C3888 1.327 . S
C3889 C3893 1.429 . S
C3890 C3873 1.574 . S
C3890 H3884 0.949 . S
C3890 C3894 1.368 . S
C3891 C3872 1.429 . S
C3891 C3885 1.429 . S
C3891 C3892 1.523 . S
C3892 C3873 1.368 . S
C3892 C3886 1.368 . S
C3892 C3891 1.523 . S
C3893 C3877 1.429 . S
C3893 C3889 1.429 . S
C3893 C3894 1.523 . S
C3894 C3878 1.368 . S
C3894 C3890 1.368 . S
C3894 C3893 1.523 . S
H3895 C3870 0.950 . S
H3896 C3872 0.950 . S
H3897 C3873 0.949 . S
H3898 C3875 0.950 . S
H3899 C3877 0.950 . S
C3900 C3901 1.349 . S
C3900 C3902 1.327 . S
C3900 H3925 0.950 . S
C3901 C3900 1.349 . S
C3901 C3917 1.349 . S
C3902 C3900 1.327 . S
C3902 C3921 1.429 . S
C3902 H3926 0.950 . S
C3903 C3920 1.574 . S
C3903 C3922 1.368 . S
C3903 H3927 0.949 . S
H3904 C3908 0.949 . S
C3905 C3906 1.349 . S
C3905 C3907 1.327 . S
C3905 H3928 0.950 . S
C3906 C3905 1.349 . S
C3906 C3918 1.349 . S
C3907 C3905 1.327 . S
C3907 C3923 1.429 . S
C3907 H3929 0.950 . S
C3908 H3904 0.949 . S
C3908 C3916 1.574 . S
C3908 C3924 1.368 . S
H3909 C3917 0.950 . S
H3910 C3915 0.950 . S
H3911 C3916 0.949 . S
H3912 C3918 0.950 . S
H3913 C3919 0.950 . S
H3914 C3920 0.949 . S
C3915 H3910 0.950 . S
C3915 C3917 1.327 . S
C3915 C3921 1.429 . S
C3916 C3908 1.574 . S
C3916 H3911 0.949 . S
C3916 C3922 1.368 . S
C3917 C3901 1.349 . S
C3917 H3909 0.950 . S
C3917 C3915 1.327 . S
C3918 C3906 1.349 . S
C3918 H3912 0.950 . S
C3918 C3919 1.327 . S
C3919 H3913 0.950 . S
C3919 C3918 1.327 . S
C3919 C3923 1.429 . S
C3920 C3903 1.574 . S
C3920 H3914 0.949 . S
C3920 C3924 1.368 . S
C3921 C3902 1.429 . S
C3921 C3915 1.429 . S
C3921 C3922 1.523 . S
C3922 C3903 1.368 . S
C3922 C3916 1.368 . S
C3922 C3921 1.523 . S
C3923 C3907 1.429 . S
C3923 C3919 1.429 . S
C3923 C3924 1.523 . S
C3924 C3908 1.368 . S
C3924 C3920 1.368 . S
C3924 C3923 1.523 . S
H3925 C3900 0.950 . S
H3926 C3902 0.950 . S
H3927 C3903 0.949 . S
H3928 C3905 0.950 . S
H3929 C3907 0.950 . S
C3930 C3931 1.349 . S
C3930 C3932 1.327 . S
C3930 H3955 0.950 . S
C3931 C3930 1.349 . S
C3931 C3947 1.349 . S
C3932 C3930 1.327 . S
C3932 C3951 1.429 . S
C3932 H3956 0.950 . S
C3933 C3950 1.574 . S
C3933 C3952 1.368 . S
C3933 H3957 0.949 . S
H3934 C3938 0.949 . S
C3935 C3936 1.349 . S
C3935 C3937 1.327 . S
C3935 H3958 0.950 . S
C3936 C3935 1.349 . S
C3936 C3948 1.349 . S
C3937 C3935 1.327 . S
C3937 C3953 1.429 . S
C3937 H3959 0.950 . S
C3938 H3934 0.949 . S
C3938 C3946 1.574 . S
C3938 C3954 1.368 . S
H3939 C3947 0.950 . S
H3940 C3945 0.950 . S
H3941 C3946 0.949 . S
H3942 C3948 0.950 . S
H3943 C3949 0.950 . S
H3944 C3950 0.949 . S
C3945 H3940 0.950 . S
C3945 C3947 1.327 . S
C3945 C3951 1.429 . S
C3946 C3938 1.574 . S
C3946 H3941 0.949 . S
C3946 C3952 1.368 . S
C3947 C3931 1.349 . S
C3947 H3939 0.950 . S
C3947 C3945 1.327 . S
C3948 C3936 1.349 . S
C3948 H3942 0.950 . S
C3948 C3949 1.327 . S
C3949 H3943 0.950 . S
C3949 C3948 1.327 . S
C3949 C3953 1.429 . S
C3950 C3933 1.574 . S
C3950 H3944 0.949 . S
C3950 C3954 1.368 . S
C3951 C3932 1.429 . S
C3951 C3945 1.429 . S
C3951 C3952 1.523 . S
C3952 C3933 1.368 . S
C3952 C3946 1.368 . S
C3952 C3951 1.523 . S
C3953 C3937 1.429 . S
C3953 C3949 1.429 . S
C3953 C3954 1.523 . S
C3954 C3938 1.368 . S
C3954 C3950 1.368 . S
C3954 C3953 1.523 . S
H3955 C3930 0.950 . S
H3956 C3932 0.950 . S
H3957 C3933 0.949 . S
H3958 C3935 0.950 . S
H3959 C3937 0.950 . S
C3960 C3961 1.349 . S
C3960 C3962 1.327 . S
C3960 H3985 0.950 . S
C3961 C3960 1.349 . S
C3961 C3977 1.349 . S
C3962 C3960 1.327 . S
C3962 C3981 1.429 . S
C3962 H3986 0.950 . S
C3963 C3980 1.574 . S
C3963 C3982 1.368 . S
C3963 H3987 0.949 . S
H3964 C3968 0.949 . S
C3965 C3966 1.349 . S
C3965 C3967 1.327 . S
C3965 H3988 0.950 . S
C3966 C3965 1.349 . S
C3966 C3978 1.349 . S
C3967 C3965 1.327 . S
C3967 C3983 1.429 . S
C3967 H3989 0.950 . S
C3968 H3964 0.949 . S
C3968 C3976 1.574 . S
C3968 C3984 1.368 . S
H3969 C3977 0.950 . S
H3970 C3975 0.950 . S
H3971 C3976 0.949 . S
H3972 C3978 0.950 . S
H3973 C3979 0.950 . S
H3974 C3980 0.949 . S
C3975 H3970 0.950 . S
C3975 C3977 1.327 . S
C3975 C3981 1.429 . S
C3976 C3968 1.574 . S
C3976 H3971 0.949 . S
C3976 C3982 1.368 . S
C3977 C3961 1.349 . S
C3977 H3969 0.950 . S
C3977 C3975 1.327 . S
C3978 C3966 1.349 . S
C3978 H3972 0.950 . S
C3978 C3979 1.327 . S
C3979 H3973 0.950 . S
C3979 C3978 1.327 . S
C3979 C3983 1.429 . S
C3980 C3963 1.574 . S
C3980 H3974 0.949 . S
C3980 C3984 1.368 . S
C3981 C3962 1.429 . S
C3981 C3975 1.429 . S
C3981 C3982 1.523 . S
C3982 C3963 1.368 . S
C3982 C3976 1.368 . S
C3982 C3981 1.523 . S
C3983 C3967 1.429 . S
C3983 C3979 1.429 . S
C3983 C3984 1.523 . S
C3984 C3968 1.368 . S
C3984 C3980 1.368 . S
C3984 C3983 1.523 . S
H3985 C3960 0.950 . S
H3986 C3962 0.950 . S
H3987 C3963 0.949 . S
H3988 C3965 0.950 . S
H3989 C3967 0.950 . S
C3990 C3991 1.349 . S
C3990 C3992 1.327 . S
C3990 H4015 0.950 . S
C3991 C3990 1.349 . S
C3991 C4007 1.349 . S
C3992 C3990 1.327 . S
C3992 C4011 1.429 . S
C3992 H4016 0.950 . S
C3993 C4010 1.574 . S
C3993 C4012 1.368 . S
C3993 H4017 0.949 . S
H3994 C3998 0.949 . S
C3995 C3996 1.349 . S
C3995 C3997 1.327 . S
C3995 H4018 0.950 . S
C3996 C3995 1.349 . S
C3996 C4008 1.349 . S
C3997 C3995 1.327 . S
C3997 C4013 1.429 . S
C3997 H4019 0.950 . S
C3998 H3994 0.949 . S
C3998 C4006 1.574 . S
C3998 C4014 1.368 . S
H3999 C4007 0.950 . S
H4000 C4005 0.950 . S
H4001 C4006 0.949 . S
H4002 C4008 0.950 . S
H4003 C4009 0.950 . S
H4004 C4010 0.949 . S
C4005 H4000 0.950 . S
C4005 C4007 1.327 . S
C4005 C4011 1.429 . S
C4006 C3998 1.574 . S
C4006 H4001 0.949 . S
C4006 C4012 1.368 . S
C4007 C3991 1.349 . S
C4007 H3999 0.950 . S
C4007 C4005 1.327 . S
C4008 C3996 1.349 . S
C4008 H4002 0.950 . S
C4008 C4009 1.327 . S
C4009 H4003 0.950 . S
C4009 C4008 1.327 . S
C4009 C4013 1.429 . S
C4010 C3993 1.574 . S
C4010 H4004 0.949 . S
C4010 C4014 1.368 . S
C4011 C3992 1.429 . S
C4011 C4005 1.429 . S
C4011 C4012 1.523 . S
C4012 C3993 1.368 . S
C4012 C4006 1.368 . S
C4012 C4011 1.523 . S
C4013 C3997 1.429 . S
C4013 C4009 1.429 . S
C4013 C4014 1.523 . S
C4014 C3998 1.368 . S
C4014 C4010 1.368 . S
C4014 C4013 1.523 . S
H4015 C3990 0.950 . S
H4016 C3992 0.950 . S
H4017 C3993 0.949 . S
H4018 C3995 0.950 . S
H4019 C3997 0.950 . S
C4020 C4021 1.349 . S
C4020 C4022 1.327 . S
C4020 H4045 0.950 . S
C4021 C4020 1.349 . S
C4021 C4037 1.349 . S
C4022 C4020 1.327 . S
C4022 C4041 1.429 . S
C4022 H4046 0.950 . S
C4023 C4040 1.574 . S
C4023 C4042 1.368 . S
C4023 H4047 0.949 . S
H4024 C4028 0.949 . S
C4025 C4026 1.349 . S
C4025 C4027 1.327 . S
C4025 H4048 0.950 . S
C4026 C4025 1.349 . S
C4026 C4038 1.349 . S
C4027 C4025 1.327 . S
C4027 C4043 1.429 . S
C4027 H4049 0.950 . S
C4028 H4024 0.949 . S
C4028 C4036 1.574 . S
C4028 C4044 1.368 . S
H4029 C4037 0.950 . S
H4030 C4035 0.950 . S
H4031 C4036 0.949 . S
H4032 C4038 0.950 . S
H4033 C4039 0.950 . S
H4034 C4040 0.949 . S
C4035 H4030 0.950 . S
C4035 C4037 1.327 . S
C4035 C4041 1.429 . S
C4036 C4028 1.574 . S
C4036 H4031 0.949 . S
C4036 C4042 1.368 . S
C4037 C4021 1.349 . S
C4037 H4029 0.950 . S
C4037 C4035 1.327 . S
C4038 C4026 1.349 . S
C4038 H4032 0.950 . S
C4038 C4039 1.327 . S
C4039 H4033 0.950 . S
C4039 C4038 1.327 . S
C4039 C4043 1.429 . S
C4040 C4023 1.574 . S
C4040 H4034 0.949 . S
C4040 C4044 1.368 . S
C4041 C4022 1.429 . S
C4041 C4035 1.429 . S
C4041 C4042 1.523 . S
C4042 C4023 1.368 . S
C4042 C4036 1.368 . S
C4042 C4041 1.523 . S
C4043 C4027 1.429 . S
C4043 C4039 1.429 . S
C4043 C4044 1.523 . S
C4044 C4028 1.368 . S
C4044 C4040 1.368 . S
C4044 C4043 1.523 . S
H4045 C4020 0.950 . S
H4046 C4022 0.950 . S
H4047 C4023 0.949 . S
H4048 C4025 0.950 . S
H4049 C4027 0.950 . S
C4050 C4051 1.349 . S
C4050 C4052 1.327 . S
C4050 H4075 0.950 . S
C4051 C4050 1.349 . S
C4051 C4067 1.349 . S
C4052 C4050 1.327 . S
C4052 C4071 1.429 . S
C4052 H4076 0.950 . S
C4053 C4070 1.574 . S
C4053 C4072 1.368 . S
C4053 H4077 0.949 . S
H4054 C4058 0.949 . S
C4055 C4056 1.349 . S
C4055 C4057 1.327 . S
C4055 H4078 0.950 . S
C4056 C4055 1.349 . S
C4056 C4068 1.349 . S
C4057 C4055 1.327 . S
C4057 C4073 1.429 . S
C4057 H4079 0.950 . S
C4058 H4054 0.949 . S
C4058 C4066 1.574 . S
C4058 C4074 1.368 . S
H4059 C4067 0.950 . S
H4060 C4065 0.950 . S
H4061 C4066 0.949 . S
H4062 C4068 0.950 . S
H4063 C4069 0.950 . S
H4064 C4070 0.949 . S
C4065 H4060 0.950 . S
C4065 C4067 1.327 . S
C4065 C4071 1.429 . S
C4066 C4058 1.574 . S
C4066 H4061 0.949 . S
C4066 C4072 1.368 . S
C4067 C4051 1.349 . S
C4067 H4059 0.950 . S
C4067 C4065 1.327 . S
C4068 C4056 1.349 . S
C4068 H4062 0.950 . S
C4068 C4069 1.327 . S
C4069 H4063 0.950 . S
C4069 C4068 1.327 . S
C4069 C4073 1.429 . S
C4070 C4053 1.574 . S
C4070 H4064 0.949 . S
C4070 C4074 1.368 . S
C4071 C4052 1.429 . S
C4071 C4065 1.429 . S
C4071 C4072 1.523 . S
C4072 C4053 1.368 . S
C4072 C4066 1.368 . S
C4072 C4071 1.523 . S
C4073 C4057 1.429 . S
C4073 C4069 1.429 . S
C4073 C4074 1.523 . S
C4074 C4058 1.368 . S
C4074 C4070 1.368 . S
C4074 C4073 1.523 . S
H4075 C4050 0.950 . S
H4076 C4052 0.950 . S
H4077 C4053 0.949 . S
H4078 C4055 0.950 . S
H4079 C4057 0.950 . S
C4080 C4081 1.349 . S
C4080 C4082 1.327 . S
C4080 H4105 0.950 . S
C4081 C4080 1.349 . S
C4081 C4097 1.349 . S
C4082 C4080 1.327 . S
C4082 C4101 1.429 . S
C4082 H4106 0.950 . S
C4083 C4100 1.574 . S
C4083 C4102 1.368 . S
C4083 H4107 0.949 . S
H4084 C4088 0.949 . S
C4085 C4086 1.349 . S
C4085 C4087 1.327 . S
C4085 H4108 0.950 . S
C4086 C4085 1.349 . S
C4086 C4098 1.349 . S
C4087 C4085 1.327 . S
C4087 C4103 1.429 . S
C4087 H4109 0.950 . S
C4088 H4084 0.949 . S
C4088 C4096 1.574 . S
C4088 C4104 1.368 . S
H4089 C4097 0.950 . S
H4090 C4095 0.950 . S
H4091 C4096 0.949 . S
H4092 C4098 0.950 . S
H4093 C4099 0.950 . S
H4094 C4100 0.949 . S
C4095 H4090 0.950 . S
C4095 C4097 1.327 . S
C4095 C4101 1.429 . S
C4096 C4088 1.574 . S
C4096 H4091 0.949 . S
C4096 C4102 1.368 . S
C4097 C4081 1.349 . S
C4097 H4089 0.950 . S
C4097 C4095 1.327 . S
C4098 C4086 1.349 . S
C4098 H4092 0.950 . S
C4098 C4099 1.327 . S
C4099 H4093 0.950 . S
C4099 C4098 1.327 . S
C4099 C4103 1.429 . S
C4100 C4083 1.574 . S
C4100 H4094 0.949 . S
C4100 C4104 1.368 . S
C4101 C4082 1.429 . S
C4101 C4095 1.429 . S
C4101 C4102 1.523 . S
C4102 C4083 1.368 . S
C4102 C4096 1.368 . S
C4102 C4101 1.523 . S
C4103 C4087 1.429 . S
C4103 C4099 1.429 . S
C4103 C4104 1.523 . S
C4104 C4088 1.368 . S
C4104 C4100 1.368 . S
C4104 C4103 1.523 . S
H4105 C4080 0.950 . S
H4106 C4082 0.950 . S
H4107 C4083 0.949 . S
H4108 C4085 0.950 . S
H4109 C4087 0.950 . S
C4110 C4111 1.349 . S
C4110 C4112 1.327 . S
C4110 H4135 0.950 . S
C4111 C4110 1.349 . S
C4111 C4127 1.349 . S
C4112 C4110 1.327 . S
C4112 C4131 1.429 . S
C4112 H4136 0.950 . S
C4113 C4130 1.574 . S
C4113 C4132 1.368 . S
C4113 H4137 0.949 . S
H4114 C4118 0.949 . S
C4115 C4116 1.349 . S
C4115 C4117 1.327 . S
C4115 H4138 0.950 . S
C4116 C4115 1.349 . S
C4116 C4128 1.349 . S
C4117 C4115 1.327 . S
C4117 C4133 1.429 . S
C4117 H4139 0.950 . S
C4118 H4114 0.949 . S
C4118 C4126 1.574 . S
C4118 C4134 1.368 . S
H4119 C4127 0.950 . S
H4120 C4125 0.950 . S
H4121 C4126 0.949 . S
H4122 C4128 0.950 . S
H4123 C4129 0.950 . S
H4124 C4130 0.949 . S
C4125 H4120 0.950 . S
C4125 C4127 1.327 . S
C4125 C4131 1.429 . S
C4126 C4118 1.574 . S
C4126 H4121 0.949 . S
C4126 C4132 1.368 . S
C4127 C4111 1.349 . S
C4127 H4119 0.950 . S
C4127 C4125 1.327 . S
C4128 C4116 1.349 . S
C4128 H4122 0.950 . S
C4128 C4129 1.327 . S
C4129 H4123 0.950 . S
C4129 C4128 1.327 . S
C4129 C4133 1.429 . S
C4130 C4113 1.574 . S
C4130 H4124 0.949 . S
C4130 C4134 1.368 . S
C4131 C4112 1.429 . S
C4131 C4125 1.429 . S
C4131 C4132 1.523 . S
C4132 C4113 1.368 . S
C4132 C4126 1.368 . S
C4132 C4131 1.523 . S
C4133 C4117 1.429 . S
C4133 C4129 1.429 . S
C4133 C4134 1.523 . S
C4134 C4118 1.368 . S
C4134 C4130 1.368 . S
C4134 C4133 1.523 . S
H4135 C4110 0.950 . S
H4136 C4112 0.950 . S
H4137 C4113 0.949 . S
H4138 C4115 0.950 . S
H4139 C4117 0.950 . S
C4140 C4141 1.349 . S
C4140 C4142 1.327 . S
C4140 H4165 0.950 . S
C4141 C4140 1.349 . S
C4141 C4157 1.349 . S
C4142 C4140 1.327 . S
C4142 C4161 1.429 . S
C4142 H4166 0.950 . S
C4143 C4160 1.574 . S
C4143 C4162 1.368 . S
C4143 H4167 0.949 . S
H4144 C4148 0.949 . S
C4145 C4146 1.349 . S
C4145 C4147 1.327 . S
C4145 H4168 0.950 . S
C4146 C4145 1.349 . S
C4146 C4158 1.370 . S
C4147 C4145 1.327 . S
C4147 C4163 1.429 . S
C4147 H4169 0.950 . S
C4148 H4144 0.949 . S
C4148 C4156 1.574 . S
C4148 C4164 1.368 . S
H4149 C4157 0.950 . S
H4150 C4155 0.950 . S
H4151 C4156 0.949 . S
H4152 C4158 0.897 1_455 S
H4153 C4159 0.950 . S
H4154 C4160 0.949 . S
C4155 H4150 0.950 . S
C4155 C4157 1.327 . S
C4155 C4161 1.429 . S
C4156 C4148 1.574 . S
C4156 H4151 0.949 . S
C4156 C4162 1.368 . S
C4157 C4141 1.349 . S
C4157 H4149 0.950 . S
C4157 C4155 1.327 . S
C4158 C4146 1.370 . S
C4158 H4152 0.897 1_655 S
C4158 C4159 1.360 . S
C4159 H4153 0.950 . S
C4159 C4158 1.360 . S
C4159 C4163 1.429 . S
C4160 C4143 1.574 . S
C4160 H4154 0.949 . S
C4160 C4164 1.368 . S
C4161 C4142 1.429 . S
C4161 C4155 1.429 . S
C4161 C4162 1.523 . S
C4162 C4143 1.368 . S
C4162 C4156 1.368 . S
C4162 C4161 1.523 . S
C4163 C4147 1.429 . S
C4163 C4159 1.429 . S
C4163 C4164 1.523 . S
C4164 C4148 1.368 . S
C4164 C4160 1.368 . S
C4164 C4163 1.523 . S
H4165 C4140 0.950 . S
H4166 C4142 0.950 . S
H4167 C4143 0.949 . S
H4168 C4145 0.950 . S
H4169 C4147 0.950 . S
C4170 C4171 1.349 . S
C4170 C4172 1.327 . S
C4170 H4195 0.950 . S
C4171 C4170 1.349 . S
C4171 C4187 1.349 . S
C4172 C4170 1.327 . S
C4172 C4191 1.429 . S
C4172 H4196 0.950 . S
C4173 C4190 1.574 . S
C4173 C4192 1.368 . S
C4173 H4197 0.949 . S
H4174 C4178 0.949 . S
C4175 C4176 1.349 . S
C4175 C4177 1.327 . S
C4175 H4198 0.950 . S
C4176 C4175 1.349 . S
C4176 C4188 1.349 . S
C4177 C4175 1.327 . S
C4177 C4193 1.429 . S
C4177 H4199 0.950 . S
C4178 H4174 0.949 . S
C4178 C4186 1.574 . S
C4178 C4194 1.368 . S
H4179 C4187 0.950 . S
H4180 C4185 0.950 . S
H4181 C4186 0.949 . S
H4182 C4188 0.950 . S
H4183 C4189 0.950 . S
H4184 C4190 0.949 . S
C4185 H4180 0.950 . S
C4185 C4187 1.327 . S
C4185 C4191 1.429 . S
C4186 C4178 1.574 . S
C4186 H4181 0.949 . S
C4186 C4192 1.368 . S
C4187 C4171 1.349 . S
C4187 H4179 0.950 . S
C4187 C4185 1.327 . S
C4188 C4176 1.349 . S
C4188 H4182 0.950 . S
C4188 C4189 1.327 . S
C4189 H4183 0.950 . S
C4189 C4188 1.327 . S
C4189 C4193 1.429 . S
C4190 C4173 1.574 . S
C4190 H4184 0.949 . S
C4190 C4194 1.368 . S
C4191 C4172 1.429 . S
C4191 C4185 1.429 . S
C4191 C4192 1.523 . S
C4192 C4173 1.368 . S
C4192 C4186 1.368 . S
C4192 C4191 1.523 . S
C4193 C4177 1.429 . S
C4193 C4189 1.429 . S
C4193 C4194 1.523 . S
C4194 C4178 1.368 . S
C4194 C4190 1.368 . S
C4194 C4193 1.523 . S
H4195 C4170 0.950 . S
H4196 C4172 0.950 . S
H4197 C4173 0.949 . S
H4198 C4175 0.950 . S
H4199 C4177 0.950 . S
C4200 C4201 1.349 . S
C4200 C4202 1.327 . S
C4200 H4225 0.950 . S
C4201 C4200 1.349 . S
C4201 C4217 1.349 . S
C4202 C4200 1.327 . S
C4202 C4221 1.429 . S
C4202 H4226 0.950 . S
C4203 C4220 1.574 . S
C4203 C4222 1.368 . S
C4203 H4227 0.949 . S
H4204 C4208 0.949 . S
C4205 C4206 1.349 . S
C4205 C4207 1.327 . S
C4205 H4228 0.950 . S
C4206 C4205 1.349 . S
C4206 C4218 1.349 . S
C4207 C4205 1.327 . S
C4207 C4223 1.429 . S
C4207 H4229 0.950 . S
C4208 H4204 0.949 . S
C4208 C4216 1.574 . S
C4208 C4224 1.368 . S
H4209 C4217 0.950 . S
H4210 C4215 0.950 . S
H4211 C4216 0.949 . S
H4212 C4218 0.950 . S
H4213 C4219 0.950 . S
H4214 C4220 0.949 . S
C4215 H4210 0.950 . S
C4215 C4217 1.327 . S
C4215 C4221 1.429 . S
C4216 C4208 1.574 . S
C4216 H4211 0.949 . S
C4216 C4222 1.368 . S
C4217 C4201 1.349 . S
C4217 H4209 0.950 . S
C4217 C4215 1.327 . S
C4218 C4206 1.349 . S
C4218 H4212 0.950 . S
C4218 C4219 1.327 . S
C4219 H4213 0.950 . S
C4219 C4218 1.327 . S
C4219 C4223 1.429 . S
C4220 C4203 1.574 . S
C4220 H4214 0.949 . S
C4220 C4224 1.368 . S
C4221 C4202 1.429 . S
C4221 C4215 1.429 . S
C4221 C4222 1.523 . S
C4222 C4203 1.368 . S
C4222 C4216 1.368 . S
C4222 C4221 1.523 . S
C4223 C4207 1.429 . S
C4223 C4219 1.429 . S
C4223 C4224 1.523 . S
C4224 C4208 1.368 . S
C4224 C4220 1.368 . S
C4224 C4223 1.523 . S
H4225 C4200 0.950 . S
H4226 C4202 0.950 . S
H4227 C4203 0.949 . S
H4228 C4205 0.950 . S
H4229 C4207 0.950 . S
C4230 C4231 1.349 . S
C4230 C4232 1.327 . S
C4230 H4255 0.950 . S
C4231 C4230 1.349 . S
C4231 C4247 1.349 . S
C4232 C4230 1.327 . S
C4232 C4251 1.429 . S
C4232 H4256 0.950 . S
C4233 C4250 1.574 . S
C4233 C4252 1.368 . S
C4233 H4257 0.949 . S
H4234 C4238 0.949 . S
C4235 C4236 1.349 . S
C4235 C4237 1.327 . S
C4235 H4258 0.950 . S
C4236 C4235 1.349 . S
C4236 C4248 1.349 . S
C4237 C4235 1.327 . S
C4237 C4253 1.429 . S
C4237 H4259 0.950 . S
C4238 H4234 0.949 . S
C4238 C4246 1.574 . S
C4238 C4254 1.368 . S
H4239 C4247 0.950 . S
H4240 C4245 0.950 . S
H4241 C4246 0.949 . S
H4242 C4248 0.950 . S
H4243 C4249 0.950 . S
H4244 C4250 0.949 . S
C4245 H4240 0.950 . S
C4245 C4247 1.327 . S
C4245 C4251 1.429 . S
C4246 C4238 1.574 . S
C4246 H4241 0.949 . S
C4246 C4252 1.368 . S
C4247 C4231 1.349 . S
C4247 H4239 0.950 . S
C4247 C4245 1.327 . S
C4248 C4236 1.349 . S
C4248 H4242 0.950 . S
C4248 C4249 1.327 . S
C4249 H4243 0.950 . S
C4249 C4248 1.327 . S
C4249 C4253 1.429 . S
C4250 C4233 1.574 . S
C4250 H4244 0.949 . S
C4250 C4254 1.368 . S
C4251 C4232 1.429 . S
C4251 C4245 1.429 . S
C4251 C4252 1.523 . S
C4252 C4233 1.368 . S
C4252 C4246 1.368 . S
C4252 C4251 1.523 . S
C4253 C4237 1.429 . S
C4253 C4249 1.429 . S
C4253 C4254 1.523 . S
C4254 C4238 1.368 . S
C4254 C4250 1.368 . S
C4254 C4253 1.523 . S
H4255 C4230 0.950 . S
H4256 C4232 0.950 . S
H4257 C4233 0.949 . S
H4258 C4235 0.950 . S
H4259 C4237 0.950 . S
C4260 C4261 1.349 . S
C4260 C4262 1.327 . S
C4260 H4285 0.950 . S
C4261 C4260 1.349 . S
C4261 C4277 1.349 . S
C4262 C4260 1.327 . S
C4262 C4281 1.429 . S
C4262 H4286 0.950 . S
C4263 C4280 1.574 . S
C4263 C4282 1.368 . S
C4263 H4287 0.949 . S
H4264 C4268 0.949 . S
C4265 C4266 1.349 . S
C4265 C4267 1.327 . S
C4265 H4288 0.950 . S
C4266 C4265 1.349 . S
C4266 C4278 1.349 . S
C4267 C4265 1.327 . S
C4267 C4283 1.429 . S
C4267 H4289 0.950 . S
C4268 H4264 0.949 . S
C4268 C4276 1.574 . S
C4268 C4284 1.368 . S
H4269 C4277 0.950 . S
H4270 C4275 0.950 . S
H4271 C4276 0.949 . S
H4272 C4278 0.950 . S
H4273 C4279 0.950 . S
H4274 C4280 0.949 . S
C4275 H4270 0.950 . S
C4275 C4277 1.327 . S
C4275 C4281 1.429 . S
C4276 C4268 1.574 . S
C4276 H4271 0.949 . S
C4276 C4282 1.368 . S
C4277 C4261 1.349 . S
C4277 H4269 0.950 . S
C4277 C4275 1.327 . S
C4278 C4266 1.349 . S
C4278 H4272 0.950 . S
C4278 C4279 1.327 . S
C4279 H4273 0.950 . S
C4279 C4278 1.327 . S
C4279 C4283 1.429 . S
C4280 C4263 1.574 . S
C4280 H4274 0.949 . S
C4280 C4284 1.368 . S
C4281 C4262 1.429 . S
C4281 C4275 1.429 . S
C4281 C4282 1.523 . S
C4282 C4263 1.368 . S
C4282 C4276 1.368 . S
C4282 C4281 1.523 . S
C4283 C4267 1.429 . S
C4283 C4279 1.429 . S
C4283 C4284 1.523 . S
C4284 C4268 1.368 . S
C4284 C4280 1.368 . S
C4284 C4283 1.523 . S
H4285 C4260 0.950 . S
H4286 C4262 0.950 . S
H4287 C4263 0.949 . S
H4288 C4265 0.950 . S
H4289 C4267 0.950 . S
C4290 C4291 1.349 . S
C4290 C4292 1.327 . S
C4290 H4315 0.950 . S
C4291 C4290 1.349 . S
C4291 C4307 1.349 . S
C4292 C4290 1.327 . S
C4292 C4311 1.429 . S
C4292 H4316 0.950 . S
C4293 C4310 1.574 . S
C4293 C4312 1.368 . S
C4293 H4317 0.949 . S
H4294 C4298 0.949 . S
C4295 C4296 1.349 . S
C4295 C4297 1.327 . S
C4295 H4318 0.950 . S
C4296 C4295 1.349 . S
C4296 C4308 1.349 . S
C4297 C4295 1.327 . S
C4297 C4313 1.429 . S
C4297 H4319 0.950 . S
C4298 H4294 0.949 . S
C4298 C4306 1.574 . S
C4298 C4314 1.368 . S
H4299 C4307 0.950 . S
H4300 C4305 0.950 . S
H4301 C4306 0.949 . S
H4302 C4308 0.950 . S
H4303 C4309 0.950 . S
H4304 C4310 0.949 . S
C4305 H4300 0.950 . S
C4305 C4307 1.327 . S
C4305 C4311 1.429 . S
C4306 C4298 1.574 . S
C4306 H4301 0.949 . S
C4306 C4312 1.368 . S
C4307 C4291 1.349 . S
C4307 H4299 0.950 . S
C4307 C4305 1.327 . S
C4308 C4296 1.349 . S
C4308 H4302 0.950 . S
C4308 C4309 1.327 . S
C4309 H4303 0.950 . S
C4309 C4308 1.327 . S
C4309 C4313 1.429 . S
C4310 C4293 1.574 . S
C4310 H4304 0.949 . S
C4310 C4314 1.368 . S
C4311 C4292 1.429 . S
C4311 C4305 1.429 . S
C4311 C4312 1.523 . S
C4312 C4293 1.368 . S
C4312 C4306 1.368 . S
C4312 C4311 1.523 . S
C4313 C4297 1.429 . S
C4313 C4309 1.429 . S
C4313 C4314 1.523 . S
C4314 C4298 1.368 . S
C4314 C4310 1.368 . S
C4314 C4313 1.523 . S
H4315 C4290 0.950 . S
H4316 C4292 0.950 . S
H4317 C4293 0.949 . S
H4318 C4295 0.950 . S
H4319 C4297 0.950 . S
C4320 C4321 1.349 . S
C4320 C4322 1.327 . S
C4320 H4345 0.950 . S
C4321 C4320 1.349 . S
C4321 C4337 1.349 . S
C4322 C4320 1.327 . S
C4322 C4341 1.429 . S
C4322 H4346 0.950 . S
C4323 C4340 1.574 . S
C4323 C4342 1.368 . S
C4323 H4347 0.949 . S
H4324 C4328 0.949 . S
C4325 C4326 1.349 . S
C4325 C4327 1.327 . S
C4325 H4348 0.950 . S
C4326 C4325 1.349 . S
C4326 C4338 1.349 . S
C4327 C4325 1.327 . S
C4327 C4343 1.429 . S
C4327 H4349 0.950 . S
C4328 H4324 0.949 . S
C4328 C4336 1.574 . S
C4328 C4344 1.368 . S
H4329 C4337 0.950 . S
H4330 C4335 0.950 . S
H4331 C4336 0.949 . S
H4332 C4338 0.950 . S
H4333 C4339 0.950 . S
H4334 C4340 0.949 . S
C4335 H4330 0.950 . S
C4335 C4337 1.327 . S
C4335 C4341 1.429 . S
C4336 C4328 1.574 . S
C4336 H4331 0.949 . S
C4336 C4342 1.368 . S
C4337 C4321 1.349 . S
C4337 H4329 0.950 . S
C4337 C4335 1.327 . S
C4338 C4326 1.349 . S
C4338 H4332 0.950 . S
C4338 C4339 1.327 . S
C4339 H4333 0.950 . S
C4339 C4338 1.327 . S
C4339 C4343 1.429 . S
C4340 C4323 1.574 . S
C4340 H4334 0.949 . S
C4340 C4344 1.368 . S
C4341 C4322 1.429 . S
C4341 C4335 1.429 . S
C4341 C4342 1.523 . S
C4342 C4323 1.368 . S
C4342 C4336 1.368 . S
C4342 C4341 1.523 . S
C4343 C4327 1.429 . S
C4343 C4339 1.429 . S
C4343 C4344 1.523 . S
C4344 C4328 1.368 . S
C4344 C4340 1.368 . S
C4344 C4343 1.523 . S
H4345 C4320 0.950 . S
H4346 C4322 0.950 . S
H4347 C4323 0.949 . S
H4348 C4325 0.950 . S
H4349 C4327 0.950 . S
C4350 C4351 1.349 . S
C4350 C4352 1.327 . S
C4350 H4375 0.950 . S
C4351 C4350 1.349 . S
C4351 C4367 1.349 . S
C4352 C4350 1.327 . S
C4352 C4371 1.429 . S
C4352 H4376 0.950 . S
C4353 C4370 1.574 . S
C4353 C4372 1.368 . S
C4353 H4377 0.949 . S
H4354 C4358 0.949 . S
C4355 C4356 1.349 . S
C4355 C4357 1.327 . S
C4355 H4378 0.950 . S
C4356 C4355 1.349 . S
C4356 C4368 1.349 . S
C4357 C4355 1.327 . S
C4357 C4373 1.429 . S
C4357 H4379 0.950 . S
C4358 H4354 0.949 . S
C4358 C4366 1.574 . S
C4358 C4374 1.368 . S
H4359 C4367 0.950 . S
H4360 C4365 0.950 . S
H4361 C4366 0.949 . S
H4362 C4368 0.950 1_545 S
H4363 C4369 0.950 . S
H4364 C4370 0.949 . S
C4365 H4360 0.950 . S
C4365 C4367 1.327 . S
C4365 C4371 1.429 . S
C4366 C4358 1.574 . S
C4366 H4361 0.949 . S
C4366 C4372 1.368 . S
C4367 C4351 1.349 . S
C4367 H4359 0.950 . S
C4367 C4365 1.327 . S
C4368 C4356 1.349 . S
C4368 H4362 0.950 1_565 S
C4368 C4369 1.327 . S
C4369 H4363 0.950 . S
C4369 C4368 1.327 . S
C4369 C4373 1.429 . S
C4370 C4353 1.574 . S
C4370 H4364 0.949 . S
C4370 C4374 1.368 . S
C4371 C4352 1.429 . S
C4371 C4365 1.429 . S
C4371 C4372 1.523 . S
C4372 C4353 1.368 . S
C4372 C4366 1.368 . S
C4372 C4371 1.523 . S
C4373 C4357 1.429 . S
C4373 C4369 1.429 . S
C4373 C4374 1.523 . S
C4374 C4358 1.368 . S
C4374 C4370 1.368 . S
C4374 C4373 1.523 . S
H4375 C4350 0.950 . S
H4376 C4352 0.950 . S
H4377 C4353 0.949 . S
H4378 C4355 0.950 . S
H4379 C4357 0.950 . S
C4380 C4381 1.349 . S
C4380 C4382 1.327 . S
C4380 H4405 0.950 . S
C4381 C4380 1.349 . S
C4381 C4397 1.349 . S
C4382 C4380 1.327 . S
C4382 C4401 1.429 . S
C4382 H4406 0.950 . S
C4383 C4400 1.574 . S
C4383 C4402 1.368 . S
C4383 H4407 0.949 . S
H4384 C4388 0.949 . S
C4385 C4386 1.349 . S
C4385 C4387 1.327 . S
C4385 H4408 0.950 . S
C4386 C4385 1.349 . S
C4386 C4398 1.349 . S
C4387 C4385 1.327 . S
C4387 C4403 1.429 . S
C4387 H4409 0.950 . S
C4388 H4384 0.949 . S
C4388 C4396 1.574 . S
C4388 C4404 1.368 . S
H4389 C4397 0.950 . S
H4390 C4395 0.950 . S
H4391 C4396 0.949 . S
H4392 C4398 0.950 . S
H4393 C4399 0.950 . S
H4394 C4400 0.949 . S
C4395 H4390 0.950 . S
C4395 C4397 1.327 . S
C4395 C4401 1.429 . S
C4396 C4388 1.574 . S
C4396 H4391 0.949 . S
C4396 C4402 1.368 . S
C4397 C4381 1.349 . S
C4397 H4389 0.950 . S
C4397 C4395 1.327 . S
C4398 C4386 1.349 . S
C4398 H4392 0.950 . S
C4398 C4399 1.327 . S
C4399 H4393 0.950 . S
C4399 C4398 1.327 . S
C4399 C4403 1.429 . S
C4400 C4383 1.574 . S
C4400 H4394 0.949 . S
C4400 C4404 1.368 . S
C4401 C4382 1.429 . S
C4401 C4395 1.429 . S
C4401 C4402 1.523 . S
C4402 C4383 1.368 . S
C4402 C4396 1.368 . S
C4402 C4401 1.523 . S
C4403 C4387 1.429 . S
C4403 C4399 1.429 . S
C4403 C4404 1.523 . S
C4404 C4388 1.368 . S
C4404 C4400 1.368 . S
C4404 C4403 1.523 . S
H4405 C4380 0.950 . S
H4406 C4382 0.950 . S
H4407 C4383 0.949 . S
H4408 C4385 0.950 . S
H4409 C4387 0.950 . S
C4410 C4411 1.349 . S
C4410 C4412 1.327 . S
C4410 H4435 0.950 . S
C4411 C4410 1.349 . S
C4411 C4427 1.349 . S
C4412 C4410 1.327 . S
C4412 C4431 1.429 . S
C4412 H4436 0.950 . S
C4413 C4430 1.574 . S
C4413 C4432 1.368 . S
C4413 H4437 0.949 . S
H4414 C4418 0.949 . S
C4415 C4416 1.349 . S
C4415 C4417 1.327 . S
C4415 H4438 0.950 1_554 S
C4416 C4415 1.349 . S
C4416 C4428 1.349 . S
C4417 C4415 1.327 . S
C4417 C4433 1.429 . S
C4417 H4439 1.006 . S
C4418 H4414 0.949 . S
C4418 C4426 1.574 . S
C4418 C4434 1.368 . S
H4419 C4427 0.950 . S
H4420 C4425 0.950 . S
H4421 C4426 0.949 . S
H4422 C4428 0.950 . S
H4423 C4429 0.950 . S
H4424 C4430 0.949 . S
C4425 H4420 0.950 . S
C4425 C4427 1.327 . S
C4425 C4431 1.429 . S
C4426 C4418 1.574 . S
C4426 H4421 0.949 . S
C4426 C4432 1.368 . S
C4427 C4411 1.349 . S
C4427 H4419 0.950 . S
C4427 C4425 1.327 . S
C4428 C4416 1.349 . S
C4428 H4422 0.950 . S
C4428 C4429 1.327 . S
C4429 H4423 0.950 . S
C4429 C4428 1.327 . S
C4429 C4433 1.429 . S
C4430 C4413 1.574 . S
C4430 H4424 0.949 . S
C4430 C4434 1.368 . S
C4431 C4412 1.429 . S
C4431 C4425 1.429 . S
C4431 C4432 1.523 . S
C4432 C4413 1.368 . S
C4432 C4426 1.368 . S
C4432 C4431 1.523 . S
C4433 C4417 1.429 . S
C4433 C4429 1.429 . S
C4433 C4434 1.523 . S
C4434 C4418 1.368 . S
C4434 C4430 1.368 . S
C4434 C4433 1.523 . S
H4435 C4410 0.950 . S
H4436 C4412 0.950 . S
H4437 C4413 0.949 . S
H4438 C4415 0.950 1_556 S
H4439 C4417 1.006 . S
C4440 C4441 1.349 . S
C4440 C4442 1.327 . S
C4440 H4465 0.950 . S
C4441 C4440 1.349 . S
C4441 C4457 1.349 . S
C4442 C4440 1.327 . S
C4442 C4461 1.429 . S
C4442 H4466 0.950 . S
C4443 C4460 1.574 . S
C4443 C4462 1.368 . S
C4443 H4467 0.949 . S
H4444 C4448 0.949 . S
C4445 C4446 1.349 . S
C4445 C4447 1.327 . S
C4445 H4468 0.950 . S
C4446 C4445 1.349 . S
C4446 C4458 1.349 . S
C4447 C4445 1.327 . S
C4447 C4463 1.429 . S
C4447 H4469 0.950 . S
C4448 H4444 0.949 . S
C4448 C4456 1.574 . S
C4448 C4464 1.368 . S
H4449 C4457 0.950 . S
H4450 C4455 0.950 . S
H4451 C4456 0.949 . S
H4452 C4458 0.950 . S
H4453 C4459 0.950 . S
H4454 C4460 0.949 . S
C4455 H4450 0.950 . S
C4455 C4457 1.327 . S
C4455 C4461 1.429 . S
C4456 C4448 1.574 . S
C4456 H4451 0.949 . S
C4456 C4462 1.368 . S
C4457 C4441 1.349 . S
C4457 H4449 0.950 . S
C4457 C4455 1.327 . S
C4458 C4446 1.349 . S
C4458 H4452 0.950 . S
C4458 C4459 1.327 . S
C4459 H4453 0.950 . S
C4459 C4458 1.327 . S
C4459 C4463 1.429 . S
C4460 C4443 1.574 . S
C4460 H4454 0.949 . S
C4460 C4464 1.368 . S
C4461 C4442 1.429 . S
C4461 C4455 1.429 . S
C4461 C4462 1.523 . S
C4462 C4443 1.368 . S
C4462 C4456 1.368 . S
C4462 C4461 1.523 . S
C4463 C4447 1.429 . S
C4463 C4459 1.429 . S
C4463 C4464 1.523 . S
C4464 C4448 1.368 . S
C4464 C4460 1.368 . S
C4464 C4463 1.523 . S
H4465 C4440 0.950 . S
H4466 C4442 0.950 . S
H4467 C4443 0.949 . S
H4468 C4445 0.950 . S
H4469 C4447 0.950 . S
C4470 C4471 1.349 . S
C4470 C4472 1.327 . S
C4470 H4495 0.950 . S
C4471 C4470 1.349 . S
C4471 C4487 1.349 . S
C4472 C4470 1.327 . S
C4472 C4491 1.429 . S
C4472 H4496 0.950 . S
C4473 C4490 1.574 . S
C4473 C4492 1.368 . S
C4473 H4497 0.949 . S
H4474 C4478 0.949 . S
C4475 C4476 1.349 . S
C4475 C4477 1.327 . S
C4475 H4498 0.950 . S
C4476 C4475 1.349 . S
C4476 C4488 1.349 . S
C4477 C4475 1.327 . S
C4477 C4493 1.429 . S
C4477 H4499 0.950 . S
C4478 H4474 0.949 . S
C4478 C4486 1.574 . S
C4478 C4494 1.368 . S
H4479 C4487 0.950 . S
H4480 C4485 0.950 . S
H4481 C4486 0.949 . S
H4482 C4488 0.950 1_556 S
H4483 C4489 0.944 1_556 S
H4484 C4490 0.949 . S
C4485 H4480 0.950 . S
C4485 C4487 1.327 . S
C4485 C4491 1.429 . S
C4486 C4478 1.574 . S
C4486 H4481 0.949 . S
C4486 C4492 1.368 . S
C4487 C4471 1.349 . S
C4487 H4479 0.950 . S
C4487 C4485 1.327 . S
C4488 C4476 1.349 . S
C4488 H4482 0.950 1_554 S
C4488 C4489 1.327 . S
C4489 H4483 0.944 1_554 S
C4489 C4488 1.327 . S
C4489 C4493 1.429 . S
C4490 C4473 1.574 . S
C4490 H4484 0.949 . S
C4490 C4494 1.368 . S
C4491 C4472 1.429 . S
C4491 C4485 1.429 . S
C4491 C4492 1.523 . S
C4492 C4473 1.368 . S
C4492 C4486 1.368 . S
C4492 C4491 1.523 . S
C4493 C4477 1.429 . S
C4493 C4489 1.429 . S
C4493 C4494 1.523 . S
C4494 C4478 1.368 . S
C4494 C4490 1.368 . S
C4494 C4493 1.523 . S
H4495 C4470 0.950 . S
H4496 C4472 0.950 . S
H4497 C4473 0.949 . S
H4498 C4475 0.950 . S
H4499 C4477 0.950 . S
C4500 C4501 1.349 . S
C4500 C4502 1.327 . S
C4500 H4525 0.950 . S
C4501 C4500 1.349 . S
C4501 C4517 1.349 . S
C4502 C4500 1.327 . S
C4502 C4521 1.429 . S
C4502 H4526 0.950 . S
C4503 C4520 1.574 . S
C4503 C4522 1.368 . S
C4503 H4527 0.949 . S
H4504 C4508 0.949 . S
C4505 C4506 1.349 . S
C4505 C4507 1.327 . S
C4505 H4528 0.950 . S
C4506 C4505 1.349 . S
C4506 C4518 1.349 . S
C4507 C4505 1.327 . S
C4507 C4523 1.429 . S
C4507 H4529 0.950 . S
C4508 H4504 0.949 . S
C4508 C4516 1.574 . S
C4508 C4524 1.368 . S
H4509 C4517 0.950 . S
H4510 C4515 0.950 . S
H4511 C4516 0.949 . S
H4512 C4518 0.950 . S
H4513 C4519 0.950 . S
H4514 C4520 0.949 . S
C4515 H4510 0.950 . S
C4515 C4517 1.327 . S
C4515 C4521 1.429 . S
C4516 C4508 1.574 . S
C4516 H4511 0.949 . S
C4516 C4522 1.368 . S
C4517 C4501 1.349 . S
C4517 H4509 0.950 . S
C4517 C4515 1.327 . S
C4518 C4506 1.349 . S
C4518 H4512 0.950 . S
C4518 C4519 1.327 . S
C4519 H4513 0.950 . S
C4519 C4518 1.327 . S
C4519 C4523 1.429 . S
C4520 C4503 1.574 . S
C4520 H4514 0.949 . S
C4520 C4524 1.368 . S
C4521 C4502 1.429 . S
C4521 C4515 1.429 . S
C4521 C4522 1.523 . S
C4522 C4503 1.368 . S
C4522 C4516 1.368 . S
C4522 C4521 1.523 . S
C4523 C4507 1.429 . S
C4523 C4519 1.429 . S
C4523 C4524 1.523 . S
C4524 C4508 1.368 . S
C4524 C4520 1.368 . S
C4524 C4523 1.523 . S
H4525 C4500 0.950 . S
H4526 C4502 0.950 . S
H4527 C4503 0.949 . S
H4528 C4505 0.950 . S
H4529 C4507 0.950 . S
C4530 C4531 1.349 . S
C4530 C4532 1.327 . S
C4530 H4555 0.950 . S
C4531 C4530 1.349 . S
C4531 C4547 1.349 . S
C4532 C4530 1.327 . S
C4532 C4551 1.429 . S
C4532 H4556 0.950 . S
C4533 C4550 1.574 . S
C4533 C4552 1.368 . S
C4533 H4557 0.949 . S
H4534 C4538 0.949 . S
C4535 C4536 1.349 . S
C4535 C4537 1.327 . S
C4535 H4558 0.950 . S
C4536 C4535 1.349 . S
C4536 C4548 1.349 . S
C4537 C4535 1.327 . S
C4537 C4553 1.429 . S
C4537 H4559 0.950 . S
C4538 H4534 0.949 . S
C4538 C4546 1.574 . S
C4538 C4554 1.368 . S
H4539 C4547 0.950 . S
H4540 C4545 0.950 . S
H4541 C4546 0.949 . S
H4542 C4548 0.950 . S
H4543 C4549 0.950 . S
H4544 C4550 0.949 . S
C4545 H4540 0.950 . S
C4545 C4547 1.327 . S
C4545 C4551 1.429 . S
C4546 C4538 1.574 . S
C4546 H4541 0.949 . S
C4546 C4552 1.368 . S
C4547 C4531 1.349 . S
C4547 H4539 0.950 . S
C4547 C4545 1.327 . S
C4548 C4536 1.349 . S
C4548 H4542 0.950 . S
C4548 C4549 1.327 . S
C4549 H4543 0.950 . S
C4549 C4548 1.327 . S
C4549 C4553 1.429 . S
C4550 C4533 1.574 . S
C4550 H4544 0.949 . S
C4550 C4554 1.368 . S
C4551 C4532 1.429 . S
C4551 C4545 1.429 . S
C4551 C4552 1.523 . S
C4552 C4533 1.368 . S
C4552 C4546 1.368 . S
C4552 C4551 1.523 . S
C4553 C4537 1.429 . S
C4553 C4549 1.429 . S
C4553 C4554 1.523 . S
C4554 C4538 1.368 . S
C4554 C4550 1.368 . S
C4554 C4553 1.523 . S
H4555 C4530 0.950 . S
H4556 C4532 0.950 . S
H4557 C4533 0.949 . S
H4558 C4535 0.950 . S
H4559 C4537 0.950 . S
C1681 C105 2.020 1_455 S
C1686 C392 2.027 . S
C1711 C65 1.855 . S
C1716 C494 1.837 . S
C1741 C73 1.799 . S
C1746 C560 1.813 . S
C1776 C646 1.466 . S
C1771 C92 1.573 . S
C1801 C17 1.640 . S
C1806 C730 1.514 . S
C1836 C812 1.786 . S
C1831 C37 1.754 . S
C1866 C914 1.853 . S
C1861 C49 1.785 . S
C1891 C8 1.963 . S
C1896 C980 1.960 . S
C1926 C410 1.549 . S
C1921 C231 1.560 . S
C1951 C241 0.901 . S
C1956 C478 0.866 . S
C1986 C578 1.099 . S
C1981 C273 1.073 . S
C2016 C644 1.602 . S
C2011 C171 1.601 1_556 S
C2041 C227 1.586 . S
C2046 C728 1.587 . S
C2076 C830 1.103 . S
C2071 C245 1.077 . S
C2106 C898 0.866 . S
C2101 C269 0.901 . S
C2136 C998 1.540 . S
C2131 C175 1.552 . S
C2166 C394 0.895 1_565 S
C2161 C162 0.917 1_554 S
C2191 C289 1.700 . S
C2196 C1082 1.679 . S
C2226 C1150 1.296 . S
C2221 C330 1.369 . S
C2256 C1232 0.799 . S
C2251 C317 0.797 . S
C2281 C120 0.879 . S
C2286 C982 0.857 . S
C2311 C134 1.387 . S
C2316 C562 1.312 . S
C2341 C331 1.656 . S
C2346 C1334 1.636 . S
C2376 C1400 0.732 . S
C2371 C303 0.733 . S
C2406 C403 2.061 . S
C2401 C59 2.041 . S
C2436 C1407 1.891 . S
C2431 C107 1.902 . S
C2461 C91 1.850 . S
C2466 C571 1.873 . S
C2491 C78 1.611 . S
C2496 C1329 1.499 . S
C2526 C741 1.553 . S
C2521 C7 1.639 . S
C2551 C51 1.804 . S
C2556 C1159 1.839 . S
C2586 C903 1.905 1_556 S
C2581 C31 1.923 . S
C2616 C1495 2.000 . S
C2611 C22 1.989 . S
C2646 C399 1.596 . S
C2641 C143 1.630 . S
C2676 C1413 0.903 . S
C2671 C315 0.931 . S
C2701 C115 1.155 . S
C2706 C567 1.140 . S
C2731 C287 1.621 . S
C2736 C1327 1.656 . S
C2761 C147 1.611 . S
C2766 C739 1.645 . S
C2796 C1155 1.146 . S
C2791 C311 1.160 . S
C2821 C119 0.928 . S
C2826 C909 0.901 . S
C2851 C283 1.620 . S
C2856 C1491 1.587 . S
C2881 C190 0.938 . S
C2886 C405 0.909 . S
C2911 C177 1.739 . S
C2916 C1071 1.723 . S
C2941 C260 1.385 . S
C2946 C825 1.312 . S
C2971 C247 0.849 . S
C2976 C1243 0.853 . S
C3006 C1497 0.873 . S
C3001 C274 0.896 1_565 S
C3031 C218 1.407 . S
C3036 C573 1.330 . S
C3066 C651 1.681 . S
C3061 C261 1.697 . S
C3096 C487 0.786 . S
C3091 C205 0.784 . S
C3121 C77 2.024 . S
C3126 C1568 2.027 . S
C3156 C1418 1.837 . S
C3151 C93 1.855 . S
C3181 C101 1.799 . S
C3186 C1652 1.813 . S
C3211 C64 1.573 1_655 S
C3216 C1318 1.466 . S
C3241 C45 1.640 . S
C3246 C1066 1.514 . S
C3276 C1148 1.786 . S
C3271 C9 1.754 . S
C3306 C1250 1.853 . S
C3301 C21 1.785 . S
C3336 C1484 1.960 . S
C3331 C36 1.963 . S
C3366 C1586 1.549 . S
C3361 C259 1.560 . S
C3391 C185 0.901 . S
C3396 C1402 0.866 . S
C3426 C1670 1.098 . S
C3421 C203 1.073 . S
C3456 C1316 1.602 . S
C3451 C213 1.601 . S
C3486 C1064 1.587 . S
C3481 C255 1.586 . S
C3511 C189 1.077 . S
C3516 C1166 1.103 . S
C3546 C1234 0.866 . S
C3541 C199 0.901 . S
C3571 C217 1.552 . S
C3576 C1502 1.540 . S
C3606 C1570 0.895 . S
C3601 C316 0.923 . S
C3631 C135 1.700 . S
C3636 C746 1.679 . S
C3666 C814 1.296 . S
C3661 C148 1.355 1_565 S
C3696 C896 0.799 . S
C3691 C163 0.797 . S
C3726 C1486 0.858 . S
C3721 C302 0.879 . S
C3751 C288 1.387 . S
C3756 C1654 1.312 . S
C3786 C662 1.636 . S
C3781 C149 1.656 . S
C3816 C476 0.732 . S
C3811 C121 0.733 . S
C3841 C87 2.041 . S
C3846 C1579 2.061 . S
C3876 C483 1.892 . S
C3871 C79 1.902 . S
C3901 C63 1.851 . S
C3906 C1663 1.873 . S
C3931 C106 1.611 . S
C3936 C657 1.499 . S
C3961 C35 1.639 . S
C3966 C1077 1.553 . S
C3996 C823 1.839 . S
C3991 C23 1.804 . S
C4021 C3 1.923 . S
C4026 C1239 1.904 . S
C4051 C50 1.989 . S
C4056 C991 2.000 . S
C4086 C1575 1.596 . S
C4081 C325 1.630 . S
C4111 C161 0.931 . S
C4116 C489 0.898 . S
C4146 C1659 1.140 1_655 S
C4141 C297 1.155 . S
C4171 C133 1.621 . S
C4176 C655 1.656 . S
C4201 C329 1.611 . S
C4206 C1075 1.645 . S
C4236 C819 1.146 . S
C4231 C157 1.166 . S
C4261 C301 0.928 . S
C4266 C1245 0.901 . S
C4296 C987 1.586 . S
C4291 C129 1.620 . S
C4326 C1581 0.909 . S
C4321 C246 0.938 . S
C4356 C735 1.723 1_565 S
C4351 C219 1.739 . S
C4381 C232 1.385 . S
C4386 C1161 1.312 . S
C4416 C907 0.853 . S
C4411 C191 0.849 . S
C4441 C204 0.896 . S
C4446 C993 0.873 . S
C4471 C176 1.407 . S
C4476 C1665 1.330 . S
C4506 C1323 1.681 . S
C4501 C233 1.697 . S
C4536 C1411 0.785 . S
C4531 C275 0.784 . S
