# Generated by pormake.
# Topology pyr, (3,6)-cn, num edge types: 1
# Building blocks:
#     Node 0, Type 0, BuildingBlock: OLANEW_clean_sbu_2, # of connection points: 3
#     Node 1, Type 0, BuildingBlock: OLANEW_clean_sbu_2, # of connection points: 3
#     Node 2, Type 0, BuildingBlock: OLANEW_clean_sbu_2, # of connection points: 3
#     Node 3, Type 0, BuildingBlock: OLANEW_clean_sbu_2, # of connection points: 3
#     Node 4, Type 0, BuildingBlock: OLANEW_clean_sbu_2, # of connection points: 3
#     Node 5, Type 0, BuildingBlock: OLANEW_clean_sbu_2, # of connection points: 3
#     Node 6, Type 0, BuildingBlock: OLANEW_clean_sbu_2, # of connection points: 3
#     Node 7, Type 0, BuildingBlock: OLANEW_clean_sbu_2, # of connection points: 3
#     Node 8, Type 1, BuildingBlock: PAMTUU_clean_sbu_0, # of connection points: 6
#     Node 9, Type 1, BuildingBlock: PAMTUU_clean_sbu_0, # of connection points: 6
#     Node 10, Type 1, BuildingBlock: PAMTUU_clean_sbu_0, # of connection points: 6
#     Node 11, Type 1, BuildingBlock: PAMTUU_clean_sbu_0, # of connection points: 6
#     Edge 12, Type (0, 1), BuildingBlock: XUDNAN_clean_linker_2, # of connection points: 2
#     Edge 13, Type (0, 1), BuildingBlock: XUDNAN_clean_linker_2, # of connection points: 2
#     Edge 14, Type (0, 1), BuildingBlock: XUDNAN_clean_linker_2, # of connection points: 2
#     Edge 15, Type (0, 1), BuildingBlock: XUDNAN_clean_linker_2, # of connection points: 2
#     Edge 16, Type (0, 1), BuildingBlock: XUDNAN_clean_linker_2, # of connection points: 2
#     Edge 17, Type (0, 1), BuildingBlock: XUDNAN_clean_linker_2, # of connection points: 2
#     Edge 18, Type (0, 1), BuildingBlock: XUDNAN_clean_linker_2, # of connection points: 2
#     Edge 19, Type (0, 1), BuildingBlock: XUDNAN_clean_linker_2, # of connection points: 2
#     Edge 20, Type (0, 1), BuildingBlock: XUDNAN_clean_linker_2, # of connection points: 2
#     Edge 21, Type (0, 1), BuildingBlock: XUDNAN_clean_linker_2, # of connection points: 2
#     Edge 22, Type (0, 1), BuildingBlock: XUDNAN_clean_linker_2, # of connection points: 2
#     Edge 23, Type (0, 1), BuildingBlock: XUDNAN_clean_linker_2, # of connection points: 2
#     Edge 24, Type (0, 1), BuildingBlock: XUDNAN_clean_linker_2, # of connection points: 2
#     Edge 25, Type (0, 1), BuildingBlock: XUDNAN_clean_linker_2, # of connection points: 2
#     Edge 26, Type (0, 1), BuildingBlock: XUDNAN_clean_linker_2, # of connection points: 2
#     Edge 27, Type (0, 1), BuildingBlock: XUDNAN_clean_linker_2, # of connection points: 2
#     Edge 28, Type (0, 1), BuildingBlock: XUDNAN_clean_linker_2, # of connection points: 2
#     Edge 29, Type (0, 1), BuildingBlock: XUDNAN_clean_linker_2, # of connection points: 2
#     Edge 30, Type (0, 1), BuildingBlock: XUDNAN_clean_linker_2, # of connection points: 2
#     Edge 31, Type (0, 1), BuildingBlock: XUDNAN_clean_linker_2, # of connection points: 2
#     Edge 32, Type (0, 1), BuildingBlock: XUDNAN_clean_linker_2, # of connection points: 2
#     Edge 33, Type (0, 1), BuildingBlock: XUDNAN_clean_linker_2, # of connection points: 2
#     Edge 34, Type (0, 1), BuildingBlock: XUDNAN_clean_linker_2, # of connection points: 2
#     Edge 35, Type (0, 1), BuildingBlock: XUDNAN_clean_linker_2, # of connection points: 2
# Relax obj value: 0.125
# Max RMSD: 0.185
# Mean RMSD: 0.122
data_MOF--net-pyr--node1-OLANEW_clean_sbu_2--node2-PAMTUU_clean_sbu_0--edge1-XUDNAN_clean_linker_2
_symmetry_space_group_name_H-M    P1
_symmetry_Int_Tables_number       1
_symmetry_cell_setting            triclinic
loop_
_symmetry_equiv_pos_as_xyz
'x, y, z'
_cell_length_a     40.902078
_cell_length_b     42.812221
_cell_length_c     40.866184
_cell_angle_alpha  93.926902
_cell_angle_beta   88.655942
_cell_angle_gamma 104.03715
loop_
_atom_site_label
_atom_site_type_symbol
_atom_site_fract_x
_atom_site_fract_y
_atom_site_fract_z
_atom_type_partial_charge
O0 O 0.37771 0.27116 0.16601 0.0
Cd1 Cd 0.36357 0.32194 0.18577 0.0
O2 O 0.32459 0.25104 0.17652 0.0
Cd3 Cd 0.28076 0.21275 0.18557 0.0
O4 O 0.24747 0.20009 0.227 0.0
C5 C 0.26007 0.19128 0.25185 0.0
O6 O 0.29113 0.1878 0.25021 0.0
C7 C 0.35303 0.24673 0.16725 0.0
C8 C 0.30052 0.32942 0.16683 0.0
O9 O 0.30306 0.31194 0.19042 0.0
O10 O 0.32754 0.34288 0.15172 0.0
O11 O 0.19251 0.78891 0.78999 0.0
Cd12 Cd 0.16817 0.75327 0.74313 0.0
O13 O 0.14628 0.78594 0.81944 0.0
Cd14 Cd 0.11703 0.77179 0.77492 0.0
O15 O 0.10286 0.79673 0.73492 0.0
C16 C 0.0904 0.8207 0.74276 0.0
O17 O 0.08473 0.82761 0.77388 0.0
C18 C 0.17813 0.79485 0.81682 0.0
C19 C 0.21572 0.71857 0.72335 0.0
O20 O 0.21437 0.74419 0.70948 0.0
O21 O 0.19388 0.70878 0.74571 0.0
O22 O 0.72546 0.43512 0.87079 0.0
Cd23 Cd 0.67333 0.41952 0.83486 0.0
O24 O 0.70643 0.39246 0.8993 0.0
Cd25 Cd 0.66613 0.34797 0.90805 0.0
O26 O 0.63451 0.30231 0.92674 0.0
C27 C 0.64617 0.29577 0.95331 0.0
O28 O 0.6734 0.31602 0.9652 0.0
C29 C 0.7294 0.41791 0.8942 0.0
C30 C 0.65197 0.45539 0.78634 0.0
O31 O 0.64721 0.46098 0.81713 0.0
O32 O 0.66866 0.43424 0.77815 0.0
O33 O 0.9351 0.74561 0.36919 0.0
Cd34 Cd 0.90715 0.69366 0.33872 0.0
O35 O 0.90528 0.73396 0.41442 0.0
Cd36 Cd 0.87426 0.68667 0.39921 0.0
O37 O 0.82222 0.66157 0.40858 0.0
C38 C 0.81263 0.65643 0.43799 0.0
O39 O 0.83504 0.66372 0.46155 0.0
C40 C 0.92734 0.75352 0.39858 0.0
C41 C 0.9372 0.66254 0.28687 0.0
O42 O 0.92251 0.68488 0.28117 0.0
O43 O 0.93943 0.65638 0.31691 0.0
O44 O 0.7018 0.78661 0.85521 0.0
Cd45 Cd 0.67445 0.75754 0.90116 0.0
O46 O 0.72243 0.82855 0.88841 0.0
Cd47 Cd 0.74039 0.88015 0.89977 0.0
O48 O 0.70345 0.90543 0.91898 0.0
C49 C 0.67623 0.88591 0.92703 0.0
O50 O 0.67401 0.85476 0.9231 0.0
C51 C 0.72013 0.81502 0.85967 0.0
C52 C 0.71989 0.72181 0.91283 0.0
O53 O 0.69638 0.7116 0.89176 0.0
O54 O 0.72024 0.74783 0.93047 0.0
O55 O 0.85692 0.23407 0.32963 0.0
Cd56 Cd 0.89077 0.26047 0.3766 0.0
O57 O 0.84439 0.27694 0.31097 0.0
Cd58 Cd 0.86861 0.31392 0.34761 0.0
O59 O 0.84528 0.3529 0.36422 0.0
C60 C 0.82351 0.34754 0.38712 0.0
O61 O 0.819 0.32056 0.40202 0.0
C62 C 0.84222 0.24677 0.30894 0.0
C63 C 0.91916 0.21674 0.40694 0.0
O64 O 0.88907 0.21892 0.41393 0.0
O65 O 0.93577 0.23516 0.3857 0.0
O66 O 0.43175 0.76118 0.22501 0.0
Cd67 Cd 0.42492 0.70473 0.24608 0.0
O68 O 0.39256 0.74493 0.18651 0.0
Cd69 Cd 0.35887 0.69685 0.19122 0.0
O70 O 0.30905 0.67601 0.16857 0.0
C71 C 0.29653 0.64743 0.15662 0.0
O72 O 0.31356 0.62524 0.15835 0.0
C73 C 0.41653 0.76664 0.19965 0.0
C74 C 0.43533 0.6739 0.30406 0.0
O75 O 0.4604 0.69171 0.28934 0.0
O76 O 0.40582 0.67275 0.29328 0.0
O77 O 0.16561 0.43565 0.75294 0.0
Cd78 Cd 0.18285 0.40621 0.70405 0.0
O79 O 0.13426 0.39275 0.77537 0.0
Cd80 Cd 0.14018 0.35374 0.73976 0.0
O81 O 0.12598 0.30213 0.72407 0.0
C82 C 0.11713 0.29118 0.69506 0.0
O83 O 0.11767 0.3115 0.67227 0.0
C84 C 0.14619 0.42315 0.77592 0.0
C85 C 0.24928 0.4271 0.68024 0.0
O86 O 0.22616 0.44056 0.67204 0.0
O87 O 0.24131 0.40478 0.70043 0.0
Tb88 Tb 0.04265 0.02193 0.54698 0.0
Tb89 Tb 0.97176 1.0077 0.58866 0.0
C90 C 0.98752 0.95942 0.53208 0.0
C91 C 0.11051 0.05842 0.49001 0.0
C92 C 0.13945 0.10316 0.44422 0.0
C93 C 0.13829 0.07024 0.43793 0.0
C94 C 0.12405 0.04811 0.46068 0.0
C95 C 0.1104 0.09114 0.496 0.0
C96 C 0.12486 0.11345 0.47316 0.0
C97 C 0.09566 0.03422 0.51314 0.0
O98 O 0.00552 0.03461 0.51708 0.0
O99 O 0.96906 0.04604 0.55699 0.0
O100 O 0.01015 0.04387 0.6159 0.0
O101 O 0.03925 0.06712 0.57224 0.0
O102 O 0.92062 0.98477 0.59455 0.0
O103 O 0.94658 0.01996 0.63126 0.0
O104 O 0.99919 0.97489 0.60658 0.0
O105 O 0.0531 1.00055 0.59086 0.0
O106 O 0.01956 0.97138 0.53777 0.0
O107 O 0.96441 0.97317 0.5454 0.0
C108 C 0.98277 0.04984 0.52768 0.0
O109 O 0.09416 0.04422 0.54393 0.0
O110 O 0.06793 1.01396 0.5033 0.0
C111 C 0.02973 0.06898 0.6029 0.0
C112 C 0.90473 0.97699 0.65008 0.0
C113 C 0.8709 0.93596 0.69735 0.0
C114 C 0.8727 0.96917 0.70092 0.0
C115 C 0.88939 0.98952 0.67731 0.0
C116 C 0.90509 0.94421 0.64781 0.0
C117 C 0.88809 0.9238 0.6712 0.0
C118 C 0.91912 0.99826 0.62393 0.0
C119 C 0.03209 0.9791 0.60757 0.0
H120 H 0.14849 0.06156 0.41534 0.0
H121 H 0.12362 0.02286 0.45539 0.0
H122 H 0.09937 0.09945 0.51829 0.0
H123 H 0.12528 0.13869 0.4784 0.0
H124 H 0.85945 0.97902 0.72079 0.0
H125 H 0.88926 0.01486 0.67967 0.0
H126 H 0.9174 0.93412 0.62738 0.0
H127 H 0.88718 0.89826 0.66816 0.0
Tb128 Tb 0.5151 0.04538 0.10951 0.0
Tb129 Tb 0.47042 0.02818 0.04264 0.0
C130 C 0.5364 1.00881 0.0477 0.0
C131 C 0.58377 0.08813 0.16586 0.0
C132 C 0.64552 0.12992 0.18467 0.0
C133 C 0.64106 0.11627 0.15244 0.0
C134 C 0.61026 0.09577 0.14294 0.0
C135 C 0.58753 0.10361 0.19739 0.0
C136 C 0.61823 0.12454 0.20673 0.0
C137 C 0.55358 0.06205 0.15825 0.0
O138 O 0.5404 0.07947 0.07451 0.0
O139 O 0.49723 0.07898 0.03929 0.0
O140 O 0.43727 0.03971 0.08117 0.0
O141 O 0.47785 0.07411 0.11223 0.0
O142 O 0.46179 1.00037 0.99818 0.0
O143 O 0.43194 0.03442 0.0123 0.0
O144 O 0.46264 0.98341 0.06841 0.0
O145 O 0.47652 1.0027 0.12152 0.0
O146 O 0.53124 1.00796 0.07937 0.0
O147 O 0.52141 0.02561 0.03039 0.0
C148 C 0.52709 0.09281 0.05175 0.0
O149 O 0.52515 0.07029 0.15596 0.0
O150 O 0.55706 0.04062 0.13513 0.0
C151 C 0.44647 0.06425 0.10263 0.0
C152 C 0.40512 0.98613 0.98118 0.0
C153 C 0.34783 0.93962 0.95768 0.0
C154 C 0.34418 0.96697 0.97712 0.0
C155 C 0.37258 0.99007 0.98874 0.0
C156 C 0.40865 0.95852 0.96221 0.0
C157 C 0.38037 0.93545 0.95077 0.0
C158 C 0.43559 1.01098 0.99146 0.0
C159 C 0.46362 0.97877 0.10004 0.0
H160 H 0.66196 0.12012 0.13518 0.0
H161 H 0.60784 0.08456 0.11825 0.0
H162 H 0.56733 0.09821 0.2153 0.0
H163 H 0.6214 0.13467 0.23181 0.0
H164 H 0.31944 0.97105 0.98252 0.0
H165 H 0.36901 1.01121 1.00312 0.0
H166 H 0.43339 0.95489 0.95583 0.0
H167 H 0.38403 0.91442 0.93624 0.0
Tb168 Tb 0.52991 0.51205 0.52318 0.0
Tb169 Tb 0.51683 0.57776 0.56115 0.0
C170 C 0.50019 0.56101 0.48775 0.0
C171 C 0.57367 0.45491 0.47855 0.0
C172 C 0.63291 0.43977 0.45236 0.0
C173 C 0.60466 0.4369 0.43243 0.0
C174 C 0.57532 0.44428 0.44544 0.0
C175 C 0.6019 0.45783 0.49858 0.0
C176 C 0.63117 0.45012 0.48562 0.0
C177 C 0.54271 0.46366 0.4912 0.0
O178 O 0.57111 0.55089 0.50901 0.0
O179 O 0.57067 0.59064 0.55003 0.0
O180 O 0.52903 0.54875 0.59871 0.0
O181 O 0.56041 0.51979 0.56794 0.0
O182 O 0.4971 0.61812 0.55772 0.0
O183 O 0.51852 0.60987 0.60301 0.0
O184 O 0.46825 0.54241 0.56095 0.0
O185 O 0.48623 0.49556 0.55407 0.0
O186 O 0.49452 0.53042 0.4943 0.0
O187 O 0.51718 0.58321 0.5086 0.0
C188 C 0.58524 0.57822 0.52506 0.0
O189 O 0.53835 0.4655 0.5229 0.0
O190 O 0.5349 0.48751 0.47768 0.0
C191 C 0.55132 0.5311 0.59665 0.0
C192 C 0.47021 0.63181 0.60662 0.0
C193 C 0.41273 0.64341 0.6403 0.0
C194 C 0.44214 0.6436 0.65754 0.0
C195 C 0.47066 0.63803 0.64082 0.0
C196 C 0.44063 0.63138 0.58946 0.0
C197 C 0.41227 0.63714 0.60612 0.0
C198 C 0.50061 0.62645 0.5889 0.0
C199 C 0.46344 0.5112 0.56374 0.0
H200 H 0.60513 0.42864 0.40681 0.0
H201 H 0.55389 0.44187 0.42955 0.0
H202 H 0.6015 0.46629 0.52415 0.0
H203 H 0.65267 0.45279 0.50148 0.0
H204 H 0.4433 0.64868 0.68387 0.0
H205 H 0.49315 0.63875 0.65464 0.0
H206 H 0.43928 0.62671 0.56309 0.0
H207 H 0.38984 0.63647 0.59223 0.0
Tb208 Tb 0.01184 0.56448 1.00897 0.0
Tb209 Tb 0.02017 0.49701 0.03694 0.0
C210 C 0.04485 0.51707 0.96773 0.0
C211 C 0.97797 0.62802 0.97479 0.0
C212 C 0.92328 0.64931 0.95281 0.0
C213 C 0.95451 0.65731 0.93655 0.0
C214 C 0.98175 0.64681 0.9476 0.0
C215 C 0.94682 0.62005 0.99117 0.0
C216 C 0.91968 0.63087 0.98036 0.0
C217 C 0.00608 0.61524 0.98437 0.0
O218 O 0.96744 0.52838 0.99089 0.0
O219 O 0.96638 0.48776 0.02537 0.0
O220 O 0.01292 0.52845 0.07937 0.0
O221 O 0.98429 0.56077 0.05547 0.0
O222 O 0.03725 0.45503 0.02727 0.0
O223 O 0.01362 0.46343 0.07363 0.0
O224 O 0.07039 0.52963 0.04232 0.0
O225 O 0.05675 0.57839 0.0387 0.0
O226 O 0.04909 0.54711 0.97895 0.0
O227 O 0.02582 0.49394 0.98385 0.0
C228 C 0.95187 0.50114 1.00338 0.0
O229 O 0.00951 0.61289 0.01568 0.0
O230 O 0.0095 0.5895 0.96712 0.0
C231 C 0.99397 0.54936 0.08171 0.0
C232 C 0.05711 0.43499 0.07356 0.0
C233 C 0.1057 0.4077 0.10141 0.0
C234 C 0.07283 0.40277 0.11455 0.0
C235 C 0.0488 0.41614 0.10066 0.0
C236 C 0.09035 0.44126 0.06132 0.0
C237 C 0.11431 0.42768 0.07501 0.0
C238 C 0.03026 0.44538 0.05669 0.0
C239 C 0.07795 0.56138 0.04615 0.0
H240 H 0.95776 0.67158 0.91528 0.0
H241 H 0.00562 0.65287 0.93459 0.0
H242 H 0.94333 0.60508 0.01191 0.0
H243 H 0.89563 0.62408 0.99294 0.0
H244 H 0.06542 0.38815 0.13531 0.0
H245 H 0.0234 0.41103 0.11059 0.0
H246 H 0.09765 0.4558 0.04046 0.0
H247 H 0.13919 0.43186 0.06397 0.0
H248 H 0.26974 0.15525 0.30155 0.0
H249 H 0.20617 0.21551 0.27103 0.0
H250 H 0.1725 0.20566 0.32196 0.0
H251 H 0.20434 0.09598 0.33101 0.0
H252 H 0.22758 0.08716 0.36469 0.0
H253 H 0.24957 0.10288 0.32849 0.0
H254 H 0.28676 0.15021 0.36399 0.0
H255 H 0.26477 0.13465 0.4004 0.0
H256 H 0.26698 0.17557 0.39076 0.0
H257 H 0.14258 0.185 0.37352 0.0
H258 H 0.11688 0.15205 0.4193 0.0
H259 H 0.20015 0.10556 0.41524 0.0
C260 C 0.24914 0.16687 0.30589 0.0
C261 C 0.24054 0.18619 0.28254 0.0
C262 C 0.21301 0.20047 0.28868 0.0
C263 C 0.19397 0.19528 0.31762 0.0
C264 C 0.2028 0.1757 0.34002 0.0
C265 C 0.22967 0.16162 0.33439 0.0
C266 C 0.23176 0.1388 0.36039 0.0
C267 C 0.22808 0.10417 0.34524 0.0
C268 C 0.26452 0.15053 0.38005 0.0
C269 C 0.20143 0.14165 0.38105 0.0
C270 C 0.18529 0.16341 0.36934 0.0
C271 C 0.15525 0.16821 0.38322 0.0
C272 C 0.14089 0.14954 0.4092 0.0
C273 C 0.15655 0.12628 0.42051 0.0
C274 C 0.18763 0.12311 0.40687 0.0
H275 H 0.24437 0.82648 0.81454 0.0
H276 H 0.15801 0.80616 0.88035 0.0
H277 H 0.19247 0.83982 0.92475 0.0
H278 H 0.30839 0.82656 0.87358 0.0
H279 H 0.33836 0.85943 0.85616 0.0
H280 H 0.3072 0.83252 0.83042 0.0
H281 H 0.2868 0.88122 0.81168 0.0
H282 H 0.31788 0.90828 0.83733 0.0
H283 H 0.27402 0.90855 0.84206 0.0
H284 H 0.2366 0.8773 0.96135 0.0
H285 H 0.28631 0.9154 0.98679 0.0
H286 H 0.34194 0.91153 0.89544 0.0
C287 C 0.23269 0.82871 0.83837 0.0
C288 C 0.19857 0.81353 0.84408 0.0
C289 C 0.18418 0.81753 0.8755 0.0
C290 C 0.20354 0.83655 0.90084 0.0
C291 C 0.23708 0.85142 0.8942 0.0
C292 C 0.25145 0.8477 0.86368 0.0
C293 C 0.2875 0.86715 0.86221 0.0
C294 C 0.31179 0.84509 0.85519 0.0
C295 C 0.29178 0.89282 0.83682 0.0
C296 C 0.29133 0.88239 0.89674 0.0
C297 C 0.26209 0.87307 0.91492 0.0
C298 C 0.25965 0.88471 0.94736 0.0
C299 C 0.2879 0.90645 0.96151 0.0
C300 C 0.31805 0.91627 0.94316 0.0
C301 C 0.31954 0.904 0.91037 0.0
H302 H 0.64713 0.44177 0.71872 0.0
H303 H 0.62232 0.50597 0.79713 0.0
H304 H 0.5952 0.53201 0.75718 0.0
H305 H 0.66487 0.49978 0.65577 0.0
H306 H 0.64569 0.47111 0.62322 0.0
H307 H 0.66393 0.45763 0.65772 0.0
H308 H 0.60726 0.41697 0.66861 0.0
H309 H 0.58884 0.43034 0.63416 0.0
H310 H 0.56942 0.43132 0.67414 0.0
H311 H 0.56958 0.55056 0.70953 0.0
H312 H 0.54747 0.5611 0.65711 0.0
H313 H 0.58817 0.48555 0.60768 0.0
C314 C 0.63632 0.46155 0.72743 0.0
C315 C 0.63724 0.47193 0.76128 0.0
C316 C 0.62223 0.49758 0.77152 0.0
C317 C 0.60667 0.51256 0.74894 0.0
C318 C 0.60604 0.50168 0.71595 0.0
C319 C 0.62043 0.47678 0.7051 0.0
C320 C 0.61543 0.46946 0.66824 0.0
C321 C 0.64952 0.47482 0.65017 0.0
C322 C 0.59396 0.43497 0.66086 0.0
C323 C 0.59638 0.49441 0.66008 0.0
C324 C 0.59115 0.51253 0.68815 0.0
C325 C 0.57364 0.53658 0.68739 0.0
C326 C 0.56108 0.54234 0.65731 0.0
C327 C 0.56602 0.52432 0.62792 0.0
C328 C 0.58413 0.50002 0.62948 0.0
H329 H 0.9415 0.67205 0.22019 0.0
H330 H 0.95899 0.60759 0.2918 0.0
H331 H 0.97429 0.5719 0.24725 0.0
H332 H 0.90529 0.61202 0.15805 0.0
H333 H 0.9257 0.63413 0.12418 0.0
H334 H 0.91701 0.65551 0.16161 0.0
H335 H 0.9801 0.68523 0.16637 0.0
H336 H 0.98894 0.66413 0.12878 0.0
H337 H 0.01152 0.66205 0.1656 0.0
H338 H 0.98617 0.54215 0.1953 0.0
H339 H 0.99671 0.52155 0.13931 0.0
H340 H 0.97223 0.60478 0.10008 0.0
C341 C 0.94883 0.65057 0.22652 0.0
C342 C 0.94902 0.64275 0.25969 0.0
C343 C 0.95877 0.61434 0.26676 0.0
C344 C 0.96741 0.59377 0.24155 0.0
C345 C 0.96654 0.60193 0.20922 0.0
C346 C 0.95789 0.6298 0.20156 0.0
C347 C 0.95939 0.63291 0.16465 0.0
C348 C 0.92478 0.63368 0.15134 0.0
C349 C 0.9866 0.66286 0.15583 0.0
C350 C 0.96938 0.60203 0.15277 0.0
C351 C 0.97354 0.58469 0.17901 0.0
C352 C 0.98307 0.55558 0.17457 0.0
C353 C 0.98898 0.54404 0.14256 0.0
C354 C 0.98521 0.56137 0.11511 0.0
C355 C 0.97498 0.59071 0.12042 0.0
H356 H 0.39465 0.21438 0.19452 0.0
H357 H 0.32095 0.20638 0.11808 0.0
H358 H 0.33173 0.15409 0.0973 0.0
H359 H 0.4543 0.18534 0.15318 0.0
H360 H 0.46393 0.16083 0.18405 0.0
H361 H 0.44691 0.19486 0.196 0.0
H362 H 0.39781 0.15787 0.22657 0.0
H363 H 0.41486 0.12359 0.21479 0.0
H364 H 0.37197 0.12281 0.20491 0.0
H365 H 0.35578 0.10722 0.08056 0.0
H366 H 0.39103 0.06845 0.06911 0.0
H367 H 0.44834 0.10554 0.15736 0.0
C368 C 0.38042 0.20115 0.17381 0.0
C369 C 0.35714 0.21417 0.15761 0.0
C370 C 0.33875 0.19649 0.13073 0.0
C371 C 0.34462 0.16681 0.11891 0.0
C372 C 0.36815 0.15472 0.13499 0.0
C373 C 0.38524 0.17095 0.16232 0.0
C374 C 0.41002 0.15305 0.17425 0.0
C375 C 0.44591 0.17483 0.17698 0.0
C376 C 0.39796 0.13848 0.20708 0.0
C377 C 0.40717 0.12665 0.14704 0.0
C378 C 0.38182 0.12722 0.12547 0.0
C379 C 0.37523 0.10609 0.09763 0.0
C380 C 0.39539 0.08412 0.09135 0.0
C381 C 0.42232 0.08393 0.11243 0.0
C382 C 0.42782 0.1051 0.14093 0.0
H383 H 0.05579 0.8682 0.74971 0.0
H384 H 0.11286 0.82169 0.6792 0.0
H385 H 0.1061 0.85916 0.63802 0.0
H386 H 0.9953 0.88025 0.69346 0.0
H387 H 0.99304 0.91908 0.7121 0.0
H388 H 1.00365 0.88963 0.73661 0.0
H389 H 0.05871 0.93095 0.75488 0.0
H390 H 0.0483 0.96047 0.73024 0.0
H391 H 0.08803 0.94965 0.72423 0.0
H392 H 0.09501 0.9024 0.60531 0.0
H393 H 0.07426 0.94496 0.58052 0.0
H394 H 0.02069 0.96073 0.67056 0.0
C395 C 0.06685 0.86587 0.7256 0.0
C396 C 0.08491 0.84207 0.71765 0.0
C397 C 0.09884 0.83969 0.68579 0.0
C398 C 0.09533 0.86096 0.66231 0.0
C399 C 0.07762 0.88428 0.67104 0.0
C400 C 0.06325 0.88667 0.70175 0.0
C401 C 0.04444 0.91321 0.70437 0.0
C402 C 0.00688 0.89972 0.71207 0.0
C403 C 0.06085 0.94016 0.72995 0.0
C404 C 0.0497 0.92471 0.67002 0.0
C405 C 0.06971 0.90827 0.65153 0.0
C406 C 0.07916 0.91531 0.61942 0.0
C407 C 0.06742 0.93952 0.60565 0.0
C408 C 0.04592 0.95574 0.62376 0.0
C409 C 0.03695 0.94835 0.65631 0.0
H410 H 0.78616 0.46932 0.88983 0.0
H411 H 0.74353 0.38685 0.94667 0.0
H412 H 0.79444 0.39974 0.98091 0.0
H413 H 0.87163 0.46142 0.88994 0.0
H414 H 0.89031 0.50419 0.89398 0.0
H415 H 0.85006 0.48929 0.87432 0.0
H416 H 0.82374 0.52552 0.91516 0.0
H417 H 0.86399 0.54053 0.93485 0.0
H418 H 0.82748 0.52244 0.95863 0.0
H419 H 0.85119 0.42039 1.00837 0.0
H420 H 0.90855 0.44773 0.02718 0.0
H421 H 0.9152 0.51747 0.95351 0.0
C422 C 0.78742 0.45403 0.90956 0.0
C423 C 0.76046 0.42689 0.91526 0.0
C424 C 0.76353 0.40767 0.94147 0.0
C425 C 0.79248 0.41483 0.96121 0.0
C426 C 0.81857 0.44146 0.95477 0.0
C427 C 0.81631 0.46088 0.92966 0.0
C428 C 0.84828 0.48785 0.92783 0.0
C429 C 0.86612 0.48554 0.89453 0.0
C430 C 0.84039 0.52105 0.93451 0.0
C431 C 0.8689 0.48034 0.95552 0.0
C432 C 0.85122 0.45349 0.97077 0.0
C433 C 0.86517 0.44152 0.99663 0.0
C434 C 0.89794 0.45725 1.00716 0.0
C435 C 0.91678 0.4849 0.99203 0.0
C436 C 0.9017 0.49652 0.96585 0.0
H437 H 0.78331 0.63629 0.49667 0.0
H438 H 0.75981 0.6537 0.39743 0.0
H439 H 0.69933 0.64041 0.41138 0.0
H440 H 0.71303 0.56794 0.50508 0.0
H441 H 0.70605 0.57778 0.54786 0.0
H442 H 0.74769 0.58981 0.53042 0.0
H443 H 0.7505 0.64918 0.55051 0.0
H444 H 0.70861 0.63737 0.56757 0.0
H445 H 0.71817 0.66804 0.53833 0.0
H446 H 0.642 0.62479 0.43506 0.0
H447 H 0.59 0.60224 0.46595 0.0
H448 H 0.64939 0.59424 0.55002 0.0
C449 C 0.76543 0.63731 0.47789 0.0
C450 C 0.77632 0.64618 0.44597 0.0
C451 C 0.75211 0.64692 0.422 0.0
C452 C 0.7177 0.63964 0.42975 0.0
C453 C 0.70785 0.6315 0.46151 0.0
C454 C 0.73086 0.62983 0.48512 0.0
C455 C 0.71324 0.61876 0.51688 0.0
C456 C 0.72042 0.58667 0.52556 0.0
C457 C 0.72324 0.64491 0.54498 0.0
C458 C 0.67674 0.6144 0.50734 0.0
C459 C 0.67437 0.62223 0.47533 0.0
C460 C 0.64348 0.61887 0.46022 0.0
C461 C 0.61416 0.60624 0.47794 0.0
C462 C 0.61598 0.59731 0.51038 0.0
C463 C 0.64754 0.60189 0.52555 0.0
H464 H 0.28809 0.38325 0.14242 0.0
H465 H 0.23853 0.28797 0.17238 0.0
H466 H 0.18313 0.29752 0.15905 0.0
H467 H 0.22472 0.42173 0.17758 0.0
H468 H 0.22866 0.44949 0.14568 0.0
H469 H 0.26432 0.43455 0.1563 0.0
H470 H 0.26996 0.41378 0.09584 0.0
H471 H 0.23443 0.42878 0.08499 0.0
H472 H 0.23415 0.38692 0.07577 0.0
H473 H 0.13334 0.31738 0.1414 0.0
H474 H 0.09275 0.34624 0.12247 0.0
H475 H 0.1747 0.43033 0.10818 0.0
C476 C 0.26557 0.3643 0.14586 0.0
C477 C 0.26751 0.33473 0.15807 0.0
C478 C 0.23751 0.31076 0.16296 0.0
C479 C 0.20599 0.31597 0.15545 0.0
C480 C 0.20492 0.34552 0.14368 0.0
C481 C 0.2339 0.36939 0.13923 0.0
C482 C 0.22576 0.39951 0.12769 0.0
C483 C 0.2365 0.428 0.15334 0.0
C484 C 0.24204 0.40772 0.09407 0.0
C485 C 0.18774 0.38857 0.12539 0.0
C486 C 0.17621 0.35739 0.13481 0.0
C487 C 0.14207 0.34193 0.1343 0.0
C488 C 0.11914 0.35869 0.12374 0.0
C489 C 0.1303 0.39077 0.11399 0.0
C490 C 0.16518 0.4058 0.11512 0.0
H491 H 0.58764 0.24638 0.93893 0.0
H492 H 0.67011 0.27791 1.00818 0.0
H493 H 0.64788 0.23046 0.03905 0.0
H494 H 0.52355 0.21368 0.99977 0.0
H495 H 0.50262 0.17919 0.97386 0.0
H496 H 0.52432 0.21589 0.95585 0.0
H497 H 0.56004 0.18422 0.92016 0.0
H498 H 0.53847 0.14743 0.93807 0.0
H499 H 0.58378 0.16034 0.93962 0.0
H500 H 0.61922 0.18109 0.06286 0.0
H501 H 0.58376 0.13026 0.07989 0.0
H502 H 0.51707 0.12674 0.9976 0.0
C503 C 0.60091 0.24321 0.9606 0.0
C504 C 0.63085 0.26622 0.97097 0.0
C505 C 0.6473 0.26102 0.9995 0.0
C506 C 0.63486 0.23398 0.01737 0.0
C507 C 0.60566 0.21194 1.00672 0.0
C508 C 0.58863 0.21595 0.97915 0.0
C509 C 0.55761 0.18785 0.97384 0.0
C510 C 0.52509 0.19988 0.97596 0.0
C511 C 0.56013 0.16884 0.94096 0.0
C512 C 0.56026 0.16779 1.00278 0.0
C513 C 0.58837 0.18248 0.02111 0.0
C514 C 0.59706 0.16926 0.04878 0.0
C515 C 0.57661 0.14015 0.05822 0.0
C516 C 0.54743 0.12411 0.04022 0.0
C517 C 0.53908 0.13832 0.01203 0.0
H518 H 0.90992 0.77912 0.45815 0.0
H519 H 0.97633 0.80265 0.3742 0.0
H520 H 0.99674 0.85821 0.39878 0.0
H521 H 0.88641 0.85445 0.46857 0.0
H522 H 0.88585 0.85571 0.51276 0.0
H523 H 0.877 0.81744 0.48933 0.0
H524 H 0.92465 0.80088 0.5193 0.0
H525 H 0.93335 0.83893 0.5431 0.0
H526 H 0.96657 0.82685 0.51958 0.0
H527 H 0.01004 0.91069 0.43215 0.0
H528 H 0.01703 0.95688 0.47297 0.0
H529 H 0.94059 0.90062 0.53494 0.0
C530 C 0.92897 0.79581 0.44494 0.0
C531 C 0.94161 0.78635 0.41412 0.0
C532 C 0.96633 0.80917 0.39776 0.0
C533 C 0.97798 0.84082 0.41151 0.0
C534 C 0.96456 0.84937 0.44158 0.0
C535 C 0.9407 0.82754 0.45821 0.0
C536 C 0.93035 0.84301 0.49017 0.0
C537 C 0.89267 0.84262 0.49018 0.0
C538 C 0.93927 0.82643 0.51978 0.0
C539 C 0.95213 0.87709 0.4889 0.0
C540 C 0.97168 0.88006 0.46063 0.0
C541 C 0.99474 0.90869 0.45423 0.0
C542 C 0.99847 0.9348 0.47753 0.0
C543 C 0.97906 0.93239 0.50682 0.0
C544 C 0.95518 0.90328 0.5124 0.0
H545 H 0.25886 0.72663 0.67044 0.0
H546 H 0.23396 0.67284 0.7576 0.0
H547 H 0.28145 0.64741 0.74581 0.0
H548 H 0.2827 0.66206 0.61996 0.0
H549 H 0.31616 0.6893 0.59935 0.0
H550 H 0.27973 0.70268 0.61434 0.0
H551 H 0.31858 0.75045 0.6479 0.0
H552 H 0.35506 0.73711 0.63313 0.0
H553 H 0.34784 0.74238 0.67661 0.0
H554 H 0.33348 0.62983 0.72588 0.0
H555 H 0.38393 0.61889 0.69726 0.0
H556 H 0.37382 0.68324 0.62266 0.0
C557 C 0.26324 0.70933 0.68693 0.0
C558 C 0.24271 0.70173 0.71496 0.0
C559 C 0.24924 0.67891 0.73589 0.0
C560 C 0.27623 0.66442 0.72946 0.0
C561 C 0.29621 0.67272 0.70182 0.0
C562 C 0.28982 0.69437 0.6807 0.0
C563 C 0.31499 0.69904 0.65262 0.0
C564 C 0.29733 0.68758 0.61961 0.0
C565 C 0.33532 0.73434 0.65259 0.0
C566 C 0.33686 0.67704 0.66153 0.0
C567 C 0.32568 0.66211 0.69002 0.0
C568 C 0.34234 0.64124 0.70344 0.0
C569 C 0.37106 0.63533 0.68716 0.0
C570 C 0.38268 0.65011 0.65772 0.0
C571 C 0.36525 0.67124 0.64488 0.0
H572 H 0.77705 0.86533 0.85999 0.0
H573 H 0.70413 0.80082 0.79539 0.0
H574 H 0.73623 0.82401 0.74748 0.0
H575 H 0.7894 0.93523 0.80958 0.0
H576 H 0.83363 0.94865 0.81902 0.0
H577 H 0.80466 0.92714 0.84837 0.0
H578 H 0.84097 0.88544 0.84996 0.0
H579 H 0.86967 0.90641 0.82011 0.0
H580 H 0.84968 0.86422 0.81239 0.0
H581 H 0.777 0.85101 0.7071 0.0
H582 H 0.82127 0.88583 0.67502 0.0
H583 H 0.86598 0.93642 0.76491 0.0
C584 C 0.76704 0.85693 0.83587 0.0
C585 C 0.73758 0.83171 0.83147 0.0
C586 C 0.72648 0.82024 0.79934 0.0
C587 C 0.74456 0.83319 0.77198 0.0
C588 C 0.77355 0.85777 0.77717 0.0
C589 C 0.78451 0.86999 0.8082 0.0
C590 C 0.81647 0.89672 0.80665 0.0
C591 C 0.81068 0.92884 0.82179 0.0
C592 C 0.84593 0.88764 0.82326 0.0
C593 C 0.82167 0.89744 0.76982 0.0
C594 C 0.79682 0.87435 0.75347 0.0
C595 C 0.79649 0.86938 0.7195 0.0
C596 C 0.82185 0.88904 0.70154 0.0
C597 C 0.84694 0.91359 0.71756 0.0
C598 C 0.84697 0.91779 0.75217 0.0
H599 H 0.79104 0.26181 0.27644 0.0
H600 H 0.841 0.18453 0.28746 0.0
H601 H 0.79868 0.14811 0.25137 0.0
H602 H 0.70983 0.21549 0.28287 0.0
H603 H 0.69156 0.23539 0.25317 0.0
H604 H 0.72865 0.257 0.27516 0.0
H605 H 0.76028 0.27039 0.22031 0.0
H606 H 0.72313 0.249 0.19804 0.0
H607 H 0.76265 0.23817 0.19024 0.0
H608 H 0.74938 0.11922 0.21812 0.0
H609 H 0.69372 0.09825 0.19221 0.0
H610 H 0.67334 0.19304 0.20582 0.0
C611 C 0.79365 0.23748 0.27051 0.0
C612 C 0.81956 0.22606 0.28437 0.0
C613 C 0.82153 0.19381 0.27685 0.0
C614 C 0.7977 0.17302 0.25631 0.0
C615 C 0.77207 0.18485 0.24366 0.0
C616 C 0.7698 0.2163 0.25048 0.0
C617 C 0.73793 0.22204 0.23643 0.0
C618 C 0.71569 0.23311 0.26353 0.0
C619 C 0.74651 0.24634 0.20966 0.0
C620 C 0.7219 0.18847 0.22187 0.0
C621 C 0.74256 0.1677 0.22554 0.0
C622 C 0.73314 0.13527 0.21477 0.0
C623 C 0.70162 0.12361 0.20011 0.0
C624 C 0.67974 0.14419 0.19697 0.0
C625 C 0.68996 0.17705 0.2078 0.0
H626 H 0.4867 0.68378 0.35021 0.0
H627 H 0.39476 0.61564 0.31769 0.0
H628 H 0.40269 0.57836 0.35866 0.0
H629 H 0.53412 0.62605 0.36884 0.0
H630 H 0.55286 0.64845 0.40547 0.0
H631 H 0.54107 0.66936 0.37256 0.0
H632 H 0.50401 0.69563 0.41274 0.0
H633 H 0.51592 0.67499 0.44579 0.0
H634 H 0.47201 0.67025 0.43673 0.0
H635 H 0.42182 0.54704 0.40243 0.0
H636 H 0.44656 0.52786 0.44972 0.0
H637 H 0.52327 0.61787 0.4574 0.0
C638 C 0.46825 0.66103 0.35175 0.0
C639 C 0.44006 0.65274 0.3305 0.0
C640 C 0.41641 0.62277 0.33368 0.0
C641 C 0.42082 0.60125 0.35681 0.0
C642 C 0.44879 0.61006 0.37731 0.0
C643 C 0.4718 0.6395 0.37543 0.0
C644 C 0.49855 0.64382 0.40174 0.0
C645 C 0.53374 0.64711 0.38622 0.0
C646 C 0.49756 0.6729 0.42567 0.0
C647 C 0.48712 0.61224 0.41847 0.0
C648 C 0.45866 0.59285 0.40366 0.0
C649 C 0.44395 0.56222 0.41436 0.0
C650 C 0.45826 0.5514 0.4412 0.0
C651 C 0.4867 0.57132 0.45758 0.0
C652 C 0.50133 0.60208 0.4457 0.0
H653 H 0.11715 0.40467 0.83496 0.0
H654 H 0.15081 0.48837 0.77759 0.0
H655 H 0.12908 0.52171 0.82065 0.0
H656 H 0.04109 0.42105 0.86473 0.0
H657 H 0.04427 0.4076 0.90512 0.0
H658 H 0.06385 0.39071 0.87063 0.0
H659 H 0.12146 0.40707 0.90018 0.0
H660 H 0.10199 0.4238 0.93493 0.0
H661 H 0.13784 0.44848 0.91488 0.0
H662 H 0.10169 0.54546 0.86939 0.0
H663 H 0.07243 0.55803 0.9204 0.0
H664 H 0.05658 0.45861 0.94563 0.0
C665 C 0.1202 0.43007 0.8315 0.0
C666 C 0.13571 0.44389 0.80282 0.0
C667 C 0.13926 0.47726 0.7994 0.0
C668 C 0.12688 0.49637 0.82369 0.0
C669 C 0.11133 0.48185 0.85143 0.0
C670 C 0.10828 0.44951 0.85558 0.0
C671 C 0.09055 0.43972 0.88762 0.0
C672 C 0.05801 0.4132 0.88164 0.0
C673 C 0.11438 0.42914 0.91077 0.0
C674 C 0.08305 0.47133 0.90038 0.0
C675 C 0.09557 0.49544 0.87934 0.0
C676 C 0.09192 0.52678 0.88608 0.0
C677 C 0.07526 0.53369 0.91513 0.0
C678 C 0.06211 0.50931 0.93699 0.0
C679 C 0.06607 0.47772 0.92933 0.0
H680 H 0.66463 0.94632 0.92653 0.0
H681 H 0.6253 0.85175 0.96366 0.0
H682 H 0.58208 0.87228 0.99534 0.0
H683 H 0.65706 0.99212 0.9971 0.0
H684 H 0.64314 0.02351 0.97835 0.0
H685 H 0.66844 1.00073 0.95519 0.0
H686 H 0.62277 0.98452 0.91018 0.0
H687 H 0.59742 1.00767 0.93295 0.0
H688 H 0.58001 0.96562 0.92136 0.0
H689 H 0.55017 0.90463 0.02973 0.0
H690 H 0.5257 0.94583 0.0596 0.0
H691 H 0.58181 0.01852 0.9972 0.0
C692 C 0.64654 0.92986 0.94092 0.0
C693 C 0.64845 0.8976 0.94298 0.0
C694 C 0.62429 0.87661 0.96182 0.0
C695 C 0.59963 0.88801 0.97986 0.0
C696 C 0.59905 0.9202 0.97813 0.0
C697 C 0.62128 0.94067 0.95855 0.0
C698 C 0.61585 0.97448 0.96204 0.0
C699 C 0.64804 0.99915 0.97389 0.0
C700 C 0.60325 0.9836 0.92971 0.0
C701 C 0.58852 0.9702 0.98811 0.0
C702 C 0.57913 0.93863 0.99692 0.0
C703 C 0.55669 0.92927 0.0226 0.0
C704 C 0.54329 0.95282 0.03963 0.0
C705 C 0.55211 0.98507 0.03054 0.0
C706 C 0.57462 0.99383 1.00426 0.0
H707 H 0.88715 0.16471 0.44131 0.0
H708 H 0.9859 0.21736 0.4092 0.0
H709 H 0.01211 0.18028 0.43692 0.0
H710 H 0.91017 0.14728 0.52038 0.0
H711 H 0.88355 0.10691 0.51908 0.0
H712 H 0.87219 0.13724 0.49634 0.0
H713 H 0.86959 0.10058 0.44285 0.0
H714 H 0.88078 0.07006 0.46548 0.0
H715 H 0.90567 0.08532 0.43046 0.0
H716 H 0.02775 0.13815 0.46731 0.0
H717 H 0.03235 0.09275 0.4993 0.0
H718 H 0.92386 0.06706 0.51337 0.0
C719 C 0.91429 0.16845 0.4402 0.0
C720 C 0.93453 0.19401 0.4232 0.0
C721 C 0.96991 0.19791 0.42198 0.0
C722 C 0.98503 0.17702 0.43769 0.0
C723 C 0.96441 0.15215 0.45424 0.0
C724 C 0.92982 0.14757 0.4555 0.0
C725 C 0.91357 0.11846 0.47453 0.0
C726 C 0.89371 0.12807 0.50436 0.0
C727 C 0.89107 0.09205 0.45199 0.0
C728 C 0.94459 0.10815 0.48478 0.0
C729 C 0.97354 0.12772 0.47226 0.0
C730 C 0.0053 0.12264 0.47722 0.0
C731 C 0.00762 0.09674 0.49529 0.0
C732 C 0.97845 0.07646 0.50858 0.0
C733 C 0.94651 0.08238 0.50356 0.0
H734 H 0.25739 0.58779 0.13435 0.0
H735 H 0.26127 0.69033 0.13947 0.0
H736 H 0.20748 0.67906 0.11001 0.0
H737 H 0.22018 0.56882 0.05324 0.0
H738 H 0.1936 0.53054 0.06343 0.0
H739 H 0.23317 0.54633 0.08415 0.0
H740 H 0.20217 0.54189 0.1403 0.0
H741 H 0.16258 0.526 0.11971 0.0
H742 H 0.16792 0.56126 0.14769 0.0
H743 H 0.15373 0.65749 0.08064 0.0
H744 H 0.10109 0.62668 0.05506 0.0
H745 H 0.12976 0.53717 0.06922 0.0
C746 C 0.24695 0.60786 0.12921 0.0
C747 C 0.2637 0.64 0.1393 0.0
C748 C 0.24902 0.66552 0.13219 0.0
C749 C 0.21847 0.65939 0.11531 0.0
C750 C 0.20269 0.62757 0.10575 0.0
C751 C 0.21619 0.60215 0.11252 0.0
C752 C 0.19328 0.57016 0.10017 0.0
C753 C 0.21113 0.55295 0.07367 0.0
C754 C 0.18074 0.54856 0.12867 0.0
C755 C 0.16472 0.58166 0.0857 0.0
C756 C 0.17099 0.61491 0.08901 0.0
C757 C 0.1485 0.63143 0.07791 0.0
C758 C 0.11855 0.61356 0.06338 0.0
C759 C 0.111 0.57933 0.0601 0.0
C760 C 0.13469 0.56325 0.07124 0.0
H761 H 0.27823 0.47977 0.6448 0.0
H762 H 0.29804 0.39366 0.68216 0.0
H763 H 0.35385 0.40537 0.65524 0.0
H764 H 0.31928 0.47454 0.56668 0.0
H765 H 0.3368 0.51736 0.56557 0.0
H766 H 0.29814 0.50254 0.58771 0.0
H767 H 0.32436 0.53505 0.64053 0.0
H768 H 0.363 0.55017 0.61849 0.0
H769 H 0.36361 0.52952 0.65536 0.0
H770 H 0.40612 0.42457 0.62242 0.0
H771 H 0.45454 0.45314 0.59046 0.0
H772 H 0.40324 0.52888 0.57624 0.0
C773 C 0.29439 0.46348 0.64744 0.0
C774 C 0.28364 0.4357 0.66557 0.0
C775 C 0.30565 0.4151 0.66852 0.0
C776 C 0.33739 0.42147 0.65318 0.0
C777 C 0.34704 0.44876 0.63523 0.0
C778 C 0.32649 0.46974 0.63264 0.0
C779 C 0.34349 0.49774 0.61237 0.0
C780 C 0.32321 0.49805 0.58124 0.0
C781 C 0.34894 0.53003 0.63292 0.0
C782 C 0.37674 0.48914 0.60401 0.0
C783 C 0.37796 0.46055 0.61714 0.0
C784 C 0.40556 0.44708 0.61219 0.0
C785 C 0.43291 0.46347 0.59378 0.0
C786 C 0.4328 0.49331 0.58076 0.0
C787 C 0.40417 0.50619 0.58591 0.0
H788 H 0.76091 0.72131 0.96475 0.0
H789 H 0.74308 0.68854 0.86239 0.0
H790 H 0.7945 0.66804 0.86108 0.0
H791 H 0.85029 0.74645 0.9608 0.0
H792 H 0.85713 0.73162 0.99966 0.0
H793 H 0.81886 0.7439 0.99283 0.0
H794 H 0.78338 0.68777 1.00775 0.0
H795 H 0.82151 0.67538 0.01496 0.0
H796 H 0.7909 0.65195 0.98625 0.0
H797 H 0.84906 0.65403 0.86976 0.0
H798 H 0.90017 0.64072 0.89016 0.0
H799 H 0.88077 0.67951 0.98758 0.0
C800 C 0.76771 0.70948 0.94222 0.0
C801 C 0.74812 0.70631 0.91372 0.0
C802 C 0.75761 0.69076 0.88462 0.0
C803 C 0.78688 0.67932 0.88353 0.0
C804 C 0.80593 0.68317 0.9119 0.0
C805 C 0.79646 0.69727 0.94089 0.0
C806 C 0.82082 0.69728 0.96816 0.0
C807 C 0.83778 0.73188 0.98111 0.0
C808 C 0.80309 0.67687 0.99592 0.0
C809 C 0.84564 0.68139 0.9498 0.0
C810 C 0.83678 0.6738 0.91728 0.0
C811 C 0.85618 0.65958 0.89522 0.0
C812 C 0.88516 0.65231 0.90692 0.0
C813 C 0.89406 0.65903 0.94035 0.0
C814 C 0.87419 0.67392 0.96196 0.0
H815 H 0.4321 0.83236 0.22297 0.0
H816 H 0.42525 0.76885 0.13463 0.0
H817 H 0.43563 0.81557 0.10085 0.0
H818 H 0.38996 0.88777 0.18986 0.0
H819 H 0.41605 0.9238 0.20973 0.0
H820 H 0.40997 0.88577 0.22825 0.0
H821 H 0.47456 0.89228 0.22954 0.0
H822 H 0.48078 0.9305 0.21137 0.0
H823 H 0.49875 0.89928 0.19214 0.0
H824 H 0.44271 0.86752 0.0757 0.0
H825 H 0.45185 0.92342 0.06036 0.0
H826 H 0.45615 0.95659 0.16344 0.0
C827 C 0.43362 0.82848 0.19659 0.0
C828 C 0.42805 0.79669 0.18153 0.0
C829 C 0.42944 0.79276 0.14682 0.0
C830 C 0.43525 0.81921 0.12731 0.0
C831 C 0.43967 0.84996 0.14258 0.0
C832 C 0.43934 0.85501 0.17637 0.0
C833 C 0.4442 0.891 0.18584 0.0
C834 C 0.4132 0.89746 0.20454 0.0
C835 C 0.4765 0.90403 0.20592 0.0
C836 C 0.44744 0.90503 0.15218 0.0
C837 C 0.44434 0.88065 0.12772 0.0
C838 C 0.44542 0.88689 0.09465 0.0
C839 C 0.45042 0.91891 0.08617 0.0
C840 C 0.45469 0.9448 0.11052 0.0
C841 C 0.45297 0.93753 0.14411 0.0
H842 H 0.10246 0.25892 0.63466 0.0
H843 H 0.1033 0.24363 0.73856 0.0
H844 H 0.08052 0.1852 0.72645 0.0
H845 H 0.02558 0.19968 0.61556 0.0
H846 H 0.04032 0.18693 0.57615 0.0
H847 H 0.05654 0.22764 0.59297 0.0
H848 H 0.11752 0.22009 0.5874 0.0
H849 H 0.10146 0.1794 0.57051 0.0
H850 H 0.12811 0.18693 0.60612 0.0
H851 H 0.05557 0.12849 0.70313 0.0
H852 H 0.03419 0.07737 0.66983 0.0
H853 H 0.0521 0.12954 0.5812 0.0
C854 C 0.09795 0.24331 0.65489 0.0
C855 C 0.10464 0.25594 0.68758 0.0
C856 C 0.09845 0.23458 0.7133 0.0
C857 C 0.08541 0.20134 0.70669 0.0
C858 C 0.0789 0.18974 0.67422 0.0
C859 C 0.08522 0.21004 0.64872 0.0
C860 C 0.07643 0.19138 0.61597 0.0
C861 C 0.04803 0.20205 0.59918 0.0
C862 C 0.10775 0.19465 0.59369 0.0
C863 C 0.06437 0.15744 0.62703 0.0
C864 C 0.06559 0.15702 0.66075 0.0
C865 C 0.05473 0.1285 0.67669 0.0
C866 C 0.04254 0.09962 0.65761 0.0
C867 C 0.04178 0.09949 0.62298 0.0
C868 C 0.05281 0.12884 0.60762 0.0
H869 H 0.78223 0.34948 0.4404 0.0
H870 H 0.81097 0.39249 0.34766 0.0
H871 H 0.76668 0.42271 0.35523 0.0
H872 H 0.69511 0.3382 0.43301 0.0
H873 H 0.68761 0.34833 0.47561 0.0
H874 H 0.72311 0.33197 0.46403 0.0
H875 H 0.76352 0.38154 0.49352 0.0
H876 H 0.72809 0.398 0.50541 0.0
H877 H 0.76281 0.42156 0.48293 0.0
H878 H 0.71571 0.44417 0.37064 0.0
H879 H 0.66482 0.45853 0.39474 0.0
H880 H 0.6708 0.40279 0.47816 0.0
C881 C 0.77958 0.36566 0.42194 0.0
C882 C 0.80007 0.3687 0.3935 0.0
C883 C 0.79576 0.39003 0.36982 0.0
C884 C 0.77058 0.40719 0.37383 0.0
C885 C 0.75033 0.40312 0.40188 0.0
C886 C 0.75491 0.38326 0.42575 0.0
C887 C 0.72942 0.38259 0.4533 0.0
C888 C 0.70752 0.34823 0.45666 0.0
C889 C 0.74701 0.39677 0.48571 0.0
C890 C 0.70915 0.40449 0.44083 0.0
C891 C 0.7216 0.41611 0.41113 0.0
C892 C 0.70601 0.43555 0.39409 0.0
C893 C 0.67704 0.4434 0.40785 0.0
C894 C 0.66402 0.43193 0.43839 0.0
C895 C 0.68051 0.41237 0.45507 0.0
loop_
_geom_bond_atom_site_label_1
_geom_bond_atom_site_label_2
_geom_bond_distance
_geom_bond_site_symmetry_2
_ccdc_geom_bond_type
O0 Cd1 2.300 . S
O0 C7 1.275 . S
Cd1 O0 2.300 . S
Cd1 O9 2.381 . S
Cd1 O10 2.378 . S
O2 Cd3 2.385 . S
O2 C7 1.255 . S
Cd3 O2 2.385 . S
Cd3 O4 2.317 . S
O4 Cd3 2.317 . S
O4 C5 1.232 . S
C5 O4 1.232 . S
C5 O6 1.218 . S
O6 C5 1.218 . S
C7 O0 1.275 . S
C7 O2 1.255 . S
C8 O9 1.258 . S
C8 O10 1.256 . S
O9 Cd1 2.381 . S
O9 C8 1.258 . S
O10 Cd1 2.378 . S
O10 C8 1.256 . S
O11 Cd12 2.300 . S
O11 C18 1.275 . S
Cd12 O11 2.300 . S
Cd12 O20 2.381 . S
Cd12 O21 2.378 . S
O13 Cd14 2.385 . S
O13 C18 1.255 . S
Cd14 O13 2.385 . S
Cd14 O15 2.317 . S
O15 Cd14 2.317 . S
O15 C16 1.232 . S
C16 O15 1.232 . S
C16 O17 1.218 . S
O17 C16 1.218 . S
C18 O11 1.275 . S
C18 O13 1.255 . S
C19 O20 1.258 . S
C19 O21 1.256 . S
O20 Cd12 2.381 . S
O20 C19 1.258 . S
O21 Cd12 2.378 . S
O21 C19 1.256 . S
O22 Cd23 2.300 . S
O22 C29 1.275 . S
Cd23 O22 2.300 . S
Cd23 O31 2.381 . S
Cd23 O32 2.378 . S
O24 Cd25 2.385 . S
O24 C29 1.255 . S
Cd25 O24 2.385 . S
Cd25 O26 2.317 . S
O26 Cd25 2.317 . S
O26 C27 1.232 . S
C27 O26 1.232 . S
C27 O28 1.218 . S
O28 C27 1.218 . S
C29 O22 1.275 . S
C29 O24 1.255 . S
C30 O31 1.258 . S
C30 O32 1.256 . S
O31 Cd23 2.381 . S
O31 C30 1.258 . S
O32 Cd23 2.378 . S
O32 C30 1.256 . S
O33 Cd34 2.300 . S
O33 C40 1.275 . S
Cd34 O33 2.300 . S
Cd34 O42 2.381 . S
Cd34 O43 2.378 . S
O35 Cd36 2.385 . S
O35 C40 1.255 . S
Cd36 O35 2.385 . S
Cd36 O37 2.317 . S
O37 Cd36 2.317 . S
O37 C38 1.232 . S
C38 O37 1.232 . S
C38 O39 1.218 . S
O39 C38 1.218 . S
C40 O33 1.275 . S
C40 O35 1.255 . S
C41 O42 1.258 . S
C41 O43 1.256 . S
O42 Cd34 2.381 . S
O42 C41 1.258 . S
O43 Cd34 2.378 . S
O43 C41 1.256 . S
O44 Cd45 2.300 . S
O44 C51 1.275 . S
Cd45 O44 2.300 . S
Cd45 O53 2.381 . S
Cd45 O54 2.378 . S
O46 Cd47 2.385 . S
O46 C51 1.255 . S
Cd47 O46 2.385 . S
Cd47 O48 2.317 . S
O48 Cd47 2.317 . S
O48 C49 1.232 . S
C49 O48 1.232 . S
C49 O50 1.218 . S
O50 C49 1.218 . S
C51 O44 1.275 . S
C51 O46 1.255 . S
C52 O53 1.258 . S
C52 O54 1.256 . S
O53 Cd45 2.381 . S
O53 C52 1.258 . S
O54 Cd45 2.378 . S
O54 C52 1.256 . S
O55 Cd56 2.300 . S
O55 C62 1.275 . S
Cd56 O55 2.300 . S
Cd56 O64 2.381 . S
Cd56 O65 2.378 . S
O57 Cd58 2.385 . S
O57 C62 1.255 . S
Cd58 O57 2.385 . S
Cd58 O59 2.317 . S
O59 Cd58 2.317 . S
O59 C60 1.232 . S
C60 O59 1.232 . S
C60 O61 1.218 . S
O61 C60 1.218 . S
C62 O55 1.275 . S
C62 O57 1.255 . S
C63 O64 1.258 . S
C63 O65 1.256 . S
O64 Cd56 2.381 . S
O64 C63 1.258 . S
O65 Cd56 2.378 . S
O65 C63 1.256 . S
O66 Cd67 2.300 . S
O66 C73 1.275 . S
Cd67 O66 2.300 . S
Cd67 O75 2.381 . S
Cd67 O76 2.378 . S
O68 Cd69 2.385 . S
O68 C73 1.255 . S
Cd69 O68 2.385 . S
Cd69 O70 2.317 . S
O70 Cd69 2.317 . S
O70 C71 1.232 . S
C71 O70 1.232 . S
C71 O72 1.218 . S
O72 C71 1.218 . S
C73 O66 1.275 . S
C73 O68 1.255 . S
C74 O75 1.258 . S
C74 O76 1.256 . S
O75 Cd67 2.381 . S
O75 C74 1.258 . S
O76 Cd67 2.378 . S
O76 C74 1.256 . S
O77 Cd78 2.300 . S
O77 C84 1.275 . S
Cd78 O77 2.300 . S
Cd78 O86 2.381 . S
Cd78 O87 2.378 . S
O79 Cd80 2.385 . S
O79 C84 1.255 . S
Cd80 O79 2.385 . S
Cd80 O81 2.317 . S
O81 Cd80 2.317 . S
O81 C82 1.232 . S
C82 O81 1.232 . S
C82 O83 1.218 . S
O83 C82 1.218 . S
C84 O77 1.275 . S
C84 O79 1.255 . S
C85 O86 1.258 . S
C85 O87 1.256 . S
O86 Cd78 2.381 . S
O86 C85 1.258 . S
O87 Cd78 2.378 . S
O87 C85 1.256 . S
Tb88 C97 2.764 . S
Tb88 O98 2.325 1_455 S
Tb88 O101 2.303 . S
Tb88 O105 2.322 1_545 S
Tb88 O106 2.349 1_545 S
Tb88 O109 2.415 . S
Tb88 O110 2.399 . S
Tb89 O99 2.322 . S
Tb89 O100 2.349 . S
Tb89 O102 2.415 1_545 S
Tb89 O103 2.399 1_545 S
Tb89 O104 2.325 1_645 S
Tb89 O107 2.303 1_545 S
Tb89 C118 2.764 1_545 S
C90 O106 1.261 1_655 S
C90 O107 1.257 . S
C91 C94 1.358 . S
C91 C95 1.332 . S
C91 C97 1.504 . S
C92 C93 1.373 . S
C92 C96 1.308 . S
C93 C92 1.373 . S
C93 C94 1.429 . S
C93 H120 0.932 . S
C94 C91 1.358 . S
C94 C93 1.429 . S
C94 H121 0.930 . S
C95 C91 1.332 . S
C95 C96 1.394 . S
C95 H122 0.932 . S
C96 C92 1.308 . S
C96 C95 1.394 . S
C96 H123 0.929 . S
C97 Tb88 2.764 . S
C97 C91 1.504 . S
C97 O109 1.239 . S
C97 O110 1.263 . S
O98 Tb88 2.325 1_655 S
O98 C108 1.236 . S
O99 Tb89 2.322 . S
O99 C108 1.257 . S
O100 Tb89 2.349 . S
O100 C111 1.261 1_655 S
O101 Tb88 2.303 . S
O101 C111 1.257 . S
O102 Tb89 2.415 1_565 S
O102 C118 1.239 . S
O103 Tb89 2.399 1_565 S
O103 C118 1.263 . S
O104 Tb89 2.325 1_465 S
O104 C119 1.236 . S
O105 Tb88 2.322 1_565 S
O105 C119 1.257 . S
O106 Tb88 2.349 1_565 S
O106 C90 1.261 1_455 S
O107 Tb89 2.303 1_565 S
O107 C90 1.257 . S
C108 O98 1.236 . S
C108 O99 1.257 . S
O109 Tb88 2.415 . S
O109 C97 1.239 . S
O110 Tb88 2.399 . S
O110 C97 1.263 . S
C111 O100 1.261 1_455 S
C111 O101 1.257 . S
C112 C115 1.358 . S
C112 C116 1.332 . S
C112 C118 1.504 . S
C113 C114 1.373 . S
C113 C117 1.308 . S
C114 C113 1.373 . S
C114 C115 1.429 . S
C114 H124 0.932 . S
C115 C112 1.358 . S
C115 C114 1.429 . S
C115 H125 0.930 . S
C116 C112 1.332 . S
C116 C117 1.394 . S
C116 H126 0.932 . S
C117 C113 1.308 . S
C117 C116 1.394 . S
C117 H127 0.929 . S
C118 Tb89 2.764 1_565 S
C118 O102 1.239 . S
C118 O103 1.263 . S
C118 C112 1.504 . S
C119 O104 1.236 . S
C119 O105 1.257 . S
H120 C93 0.932 . S
H121 C94 0.930 . S
H122 C95 0.932 . S
H123 C96 0.929 . S
H124 C114 0.932 . S
H125 C115 0.930 . S
H126 C116 0.932 . S
H127 C117 0.929 . S
Tb128 C137 2.764 . S
Tb128 O138 2.325 . S
Tb128 O141 2.303 . S
Tb128 O145 2.322 1_545 S
Tb128 O146 2.349 . S
Tb128 O149 2.415 . S
Tb128 O150 2.399 . S
Tb129 O139 2.322 . S
Tb129 O140 2.349 . S
Tb129 O142 2.415 1_544 S
Tb129 O143 2.399 1_545 S
Tb129 O144 2.325 1_545 S
Tb129 O147 2.303 . S
Tb129 C158 2.764 1_544 S
C130 O146 1.261 1_565 S
C130 O147 1.257 1_565 S
C131 C134 1.358 . S
C131 C135 1.332 . S
C131 C137 1.504 . S
C132 C133 1.373 . S
C132 C136 1.308 . S
C133 C132 1.373 . S
C133 C134 1.429 . S
C133 H160 0.932 . S
C134 C131 1.358 . S
C134 C133 1.429 . S
C134 H161 0.930 . S
C135 C131 1.332 . S
C135 C136 1.394 . S
C135 H162 0.932 . S
C136 C132 1.308 . S
C136 C135 1.394 . S
C136 H163 0.929 . S
C137 Tb128 2.764 . S
C137 C131 1.504 . S
C137 O149 1.239 . S
C137 O150 1.263 . S
O138 Tb128 2.325 . S
O138 C148 1.236 . S
O139 Tb129 2.322 . S
O139 C148 1.257 . S
O140 Tb129 2.349 . S
O140 C151 1.261 . S
O141 Tb128 2.303 . S
O141 C151 1.257 . S
O142 Tb129 2.415 1_566 S
O142 C158 1.239 . S
O143 Tb129 2.399 1_565 S
O143 C158 1.263 1_554 S
O144 Tb129 2.325 1_565 S
O144 C159 1.236 . S
O145 Tb128 2.322 1_565 S
O145 C159 1.257 . S
O146 Tb128 2.349 . S
O146 C130 1.261 1_545 S
O147 Tb129 2.303 . S
O147 C130 1.257 1_545 S
C148 O138 1.236 . S
C148 O139 1.257 . S
O149 Tb128 2.415 . S
O149 C137 1.239 . S
O150 Tb128 2.399 . S
O150 C137 1.263 . S
C151 O140 1.261 . S
C151 O141 1.257 . S
C152 C155 1.358 . S
C152 C156 1.332 . S
C152 C158 1.504 . S
C153 C154 1.373 . S
C153 C157 1.308 . S
C154 C153 1.373 . S
C154 C155 1.429 . S
C154 H164 0.932 . S
C155 C152 1.358 . S
C155 C154 1.429 . S
C155 H165 0.930 . S
C156 C152 1.332 . S
C156 C157 1.394 . S
C156 H166 0.932 . S
C157 C153 1.308 . S
C157 C156 1.394 . S
C157 H167 0.929 . S
C158 Tb129 2.764 1_566 S
C158 O142 1.239 . S
C158 O143 1.263 1_556 S
C158 C152 1.504 . S
C159 O144 1.236 . S
C159 O145 1.257 . S
H160 C133 0.932 . S
H161 C134 0.930 . S
H162 C135 0.932 . S
H163 C136 0.929 . S
H164 C154 0.932 . S
H165 C155 0.930 . S
H166 C156 0.932 . S
H167 C157 0.929 . S
Tb168 C177 2.764 . S
Tb168 O178 2.325 . S
Tb168 O181 2.303 . S
Tb168 O185 2.322 . S
Tb168 O186 2.349 . S
Tb168 O189 2.415 . S
Tb168 O190 2.399 . S
Tb169 O179 2.322 . S
Tb169 O180 2.349 . S
Tb169 O182 2.415 . S
Tb169 O183 2.399 . S
Tb169 O184 2.325 . S
Tb169 O187 2.303 . S
Tb169 C198 2.764 . S
C170 O186 1.261 . S
C170 O187 1.257 . S
C171 C174 1.358 . S
C171 C175 1.332 . S
C171 C177 1.504 . S
C172 C173 1.373 . S
C172 C176 1.308 . S
C173 C172 1.373 . S
C173 C174 1.429 . S
C173 H200 0.932 . S
C174 C171 1.358 . S
C174 C173 1.429 . S
C174 H201 0.930 . S
C175 C171 1.332 . S
C175 C176 1.394 . S
C175 H202 0.932 . S
C176 C172 1.308 . S
C176 C175 1.394 . S
C176 H203 0.929 . S
C177 Tb168 2.764 . S
C177 C171 1.504 . S
C177 O189 1.239 . S
C177 O190 1.263 . S
O178 Tb168 2.325 . S
O178 C188 1.236 . S
O179 Tb169 2.322 . S
O179 C188 1.257 . S
O180 Tb169 2.349 . S
O180 C191 1.261 . S
O181 Tb168 2.303 . S
O181 C191 1.257 . S
O182 Tb169 2.415 . S
O182 C198 1.239 . S
O183 Tb169 2.399 . S
O183 C198 1.263 . S
O184 Tb169 2.325 . S
O184 C199 1.236 . S
O185 Tb168 2.322 . S
O185 C199 1.257 . S
O186 Tb168 2.349 . S
O186 C170 1.261 . S
O187 Tb169 2.303 . S
O187 C170 1.257 . S
C188 O178 1.236 . S
C188 O179 1.257 . S
O189 Tb168 2.415 . S
O189 C177 1.239 . S
O190 Tb168 2.399 . S
O190 C177 1.263 . S
C191 O180 1.261 . S
C191 O181 1.257 . S
C192 C195 1.358 . S
C192 C196 1.332 . S
C192 C198 1.504 . S
C193 C194 1.373 . S
C193 C197 1.308 . S
C194 C193 1.373 . S
C194 C195 1.429 . S
C194 H204 0.932 . S
C195 C192 1.358 . S
C195 C194 1.429 . S
C195 H205 0.930 . S
C196 C192 1.332 . S
C196 C197 1.394 . S
C196 H206 0.932 . S
C197 C193 1.308 . S
C197 C196 1.394 . S
C197 H207 0.929 . S
C198 Tb169 2.764 . S
C198 O182 1.239 . S
C198 O183 1.263 . S
C198 C192 1.504 . S
C199 O184 1.236 . S
C199 O185 1.257 . S
H200 C173 0.932 . S
H201 C174 0.930 . S
H202 C175 0.932 . S
H203 C176 0.929 . S
H204 C194 0.932 . S
H205 C195 0.930 . S
H206 C196 0.932 . S
H207 C197 0.929 . S
Tb208 C217 2.764 1_455 S
Tb208 O218 2.325 1_455 S
Tb208 O221 2.303 1_556 S
Tb208 O225 2.322 1_556 S
Tb208 O226 2.349 . S
Tb208 O229 2.415 1_455 S
Tb208 O230 2.399 1_455 S
Tb209 O219 2.322 1_455 S
Tb209 O220 2.349 1_455 S
Tb209 O222 2.415 . S
Tb209 O223 2.399 . S
Tb209 O224 2.325 . S
Tb209 O227 2.303 1_554 S
Tb209 C238 2.764 . S
C210 O226 1.261 . S
C210 O227 1.257 . S
C211 C214 1.358 . S
C211 C215 1.332 . S
C211 C217 1.504 . S
C212 C213 1.373 . S
C212 C216 1.308 . S
C213 C212 1.373 . S
C213 C214 1.429 . S
C213 H240 0.932 . S
C214 C211 1.358 . S
C214 C213 1.429 . S
C214 H241 0.930 . S
C215 C211 1.332 . S
C215 C216 1.394 . S
C215 H242 0.932 . S
C216 C212 1.308 . S
C216 C215 1.394 . S
C216 H243 0.929 . S
C217 Tb208 2.764 1_655 S
C217 C211 1.504 . S
C217 O229 1.239 . S
C217 O230 1.263 . S
O218 Tb208 2.325 1_655 S
O218 C228 1.236 . S
O219 Tb209 2.322 1_655 S
O219 C228 1.257 1_554 S
O220 Tb209 2.349 1_655 S
O220 C231 1.261 . S
O221 Tb208 2.303 1_554 S
O221 C231 1.257 1_455 S
O222 Tb209 2.415 . S
O222 C238 1.239 . S
O223 Tb209 2.399 . S
O223 C238 1.263 . S
O224 Tb209 2.325 . S
O224 C239 1.236 . S
O225 Tb208 2.322 1_554 S
O225 C239 1.257 . S
O226 Tb208 2.349 . S
O226 C210 1.261 . S
O227 Tb209 2.303 1_556 S
O227 C210 1.257 . S
C228 O218 1.236 . S
C228 O219 1.257 1_556 S
O229 Tb208 2.415 1_655 S
O229 C217 1.239 . S
O230 Tb208 2.399 1_655 S
O230 C217 1.263 . S
C231 O220 1.261 . S
C231 O221 1.257 1_655 S
C232 C235 1.358 . S
C232 C236 1.332 . S
C232 C238 1.504 . S
C233 C234 1.373 . S
C233 C237 1.308 . S
C234 C233 1.373 . S
C234 C235 1.429 . S
C234 H244 0.932 . S
C235 C232 1.358 . S
C235 C234 1.429 . S
C235 H245 0.930 . S
C236 C232 1.332 . S
C236 C237 1.394 . S
C236 H246 0.932 . S
C237 C233 1.308 . S
C237 C236 1.394 . S
C237 H247 0.929 . S
C238 Tb209 2.764 . S
C238 O222 1.239 . S
C238 O223 1.263 . S
C238 C232 1.504 . S
C239 O224 1.236 . S
C239 O225 1.257 . S
H240 C213 0.932 . S
H241 C214 0.930 . S
H242 C215 0.932 . S
H243 C216 0.929 . S
H244 C234 0.932 . S
H245 C235 0.930 . S
H246 C236 0.932 . S
H247 C237 0.929 . S
H248 C260 0.930 . S
H249 C262 0.930 . S
H250 C263 0.930 . S
H251 C267 0.959 . S
H252 C267 0.959 . S
H253 C267 0.961 . S
H254 C268 0.960 . S
H255 C268 0.961 . S
H256 C268 0.959 . S
H257 C271 0.929 . S
H258 C272 0.931 . S
H259 C274 0.930 . S
C260 H248 0.930 . S
C260 C261 1.399 . S
C260 C265 1.399 . S
C261 C260 1.399 . S
C261 C262 1.376 . S
C262 H249 0.930 . S
C262 C261 1.376 . S
C262 C263 1.388 . S
C263 H250 0.930 . S
C263 C262 1.388 . S
C263 C264 1.390 . S
C264 C263 1.390 . S
C264 C265 1.394 . S
C264 C270 1.465 . S
C265 C260 1.399 . S
C265 C264 1.394 . S
C265 C266 1.516 . S
C266 C265 1.516 . S
C266 C267 1.502 . S
C266 C268 1.561 . S
C266 C269 1.526 . S
C267 H251 0.959 . S
C267 H252 0.959 . S
C267 H253 0.961 . S
C267 C266 1.502 . S
C268 H254 0.960 . S
C268 H255 0.961 . S
C268 H256 0.959 . S
C268 C266 1.561 . S
C269 C266 1.526 . S
C269 C270 1.396 . S
C269 C274 1.390 . S
C270 C264 1.465 . S
C270 C269 1.396 . S
C270 C271 1.399 . S
C271 H257 0.929 . S
C271 C270 1.399 . S
C271 C272 1.385 . S
C272 H258 0.931 . S
C272 C271 1.385 . S
C272 C273 1.389 . S
C273 C272 1.389 . S
C273 C274 1.387 . S
C274 H259 0.930 . S
C274 C269 1.390 . S
C274 C273 1.387 . S
H275 C287 0.930 . S
H276 C289 0.930 . S
H277 C290 0.930 . S
H278 C294 0.959 . S
H279 C294 0.959 . S
H280 C294 0.961 . S
H281 C295 0.960 . S
H282 C295 0.961 . S
H283 C295 0.959 . S
H284 C298 0.929 . S
H285 C299 0.931 . S
H286 C301 0.930 . S
C287 H275 0.930 . S
C287 C288 1.399 . S
C287 C292 1.399 . S
C288 C287 1.399 . S
C288 C289 1.376 . S
C289 H276 0.930 . S
C289 C288 1.376 . S
C289 C290 1.388 . S
C290 H277 0.930 . S
C290 C289 1.388 . S
C290 C291 1.390 . S
C291 C290 1.390 . S
C291 C292 1.394 . S
C291 C297 1.465 . S
C292 C287 1.399 . S
C292 C291 1.394 . S
C292 C293 1.516 . S
C293 C292 1.516 . S
C293 C294 1.502 . S
C293 C295 1.561 . S
C293 C296 1.526 . S
C294 H278 0.959 . S
C294 H279 0.959 . S
C294 H280 0.961 . S
C294 C293 1.502 . S
C295 H281 0.960 . S
C295 H282 0.961 . S
C295 H283 0.959 . S
C295 C293 1.561 . S
C296 C293 1.526 . S
C296 C297 1.396 . S
C296 C301 1.390 . S
C297 C291 1.465 . S
C297 C296 1.396 . S
C297 C298 1.399 . S
C298 H284 0.929 . S
C298 C297 1.399 . S
C298 C299 1.385 . S
C299 H285 0.931 . S
C299 C298 1.385 . S
C299 C300 1.389 . S
C300 C299 1.389 . S
C300 C301 1.387 . S
C301 H286 0.930 . S
C301 C296 1.390 . S
C301 C300 1.387 . S
H302 C314 0.930 . S
H303 C316 0.930 . S
H304 C317 0.930 . S
H305 C321 0.959 . S
H306 C321 0.959 . S
H307 C321 0.961 . S
H308 C322 0.960 . S
H309 C322 0.961 . S
H310 C322 0.959 . S
H311 C325 0.929 . S
H312 C326 0.931 . S
H313 C328 0.930 . S
C314 H302 0.930 . S
C314 C315 1.399 . S
C314 C319 1.399 . S
C315 C314 1.399 . S
C315 C316 1.376 . S
C316 H303 0.930 . S
C316 C315 1.376 . S
C316 C317 1.388 . S
C317 H304 0.930 . S
C317 C316 1.388 . S
C317 C318 1.390 . S
C318 C317 1.390 . S
C318 C319 1.394 . S
C318 C324 1.465 . S
C319 C314 1.399 . S
C319 C318 1.394 . S
C319 C320 1.516 . S
C320 C319 1.516 . S
C320 C321 1.502 . S
C320 C322 1.561 . S
C320 C323 1.526 . S
C321 H305 0.959 . S
C321 H306 0.959 . S
C321 H307 0.961 . S
C321 C320 1.502 . S
C322 H308 0.960 . S
C322 H309 0.961 . S
C322 H310 0.959 . S
C322 C320 1.561 . S
C323 C320 1.526 . S
C323 C324 1.396 . S
C323 C328 1.390 . S
C324 C318 1.465 . S
C324 C323 1.396 . S
C324 C325 1.399 . S
C325 H311 0.929 . S
C325 C324 1.399 . S
C325 C326 1.385 . S
C326 H312 0.931 . S
C326 C325 1.385 . S
C326 C327 1.389 . S
C327 C326 1.389 . S
C327 C328 1.387 . S
C328 H313 0.930 . S
C328 C323 1.390 . S
C328 C327 1.387 . S
H329 C341 0.930 . S
H330 C343 0.930 . S
H331 C344 0.930 . S
H332 C348 0.959 . S
H333 C348 0.959 . S
H334 C348 0.961 . S
H335 C349 0.960 . S
H336 C349 0.961 . S
H337 C349 0.959 1_455 S
H338 C352 0.929 . S
H339 C353 0.931 . S
H340 C355 0.930 . S
C341 H329 0.930 . S
C341 C342 1.399 . S
C341 C346 1.399 . S
C342 C341 1.399 . S
C342 C343 1.376 . S
C343 H330 0.930 . S
C343 C342 1.376 . S
C343 C344 1.388 . S
C344 H331 0.930 . S
C344 C343 1.388 . S
C344 C345 1.390 . S
C345 C344 1.390 . S
C345 C346 1.394 . S
C345 C351 1.465 . S
C346 C341 1.399 . S
C346 C345 1.394 . S
C346 C347 1.516 . S
C347 C346 1.516 . S
C347 C348 1.502 . S
C347 C349 1.561 . S
C347 C350 1.526 . S
C348 H332 0.959 . S
C348 H333 0.959 . S
C348 H334 0.961 . S
C348 C347 1.502 . S
C349 H335 0.960 . S
C349 H336 0.961 . S
C349 H337 0.959 1_655 S
C349 C347 1.561 . S
C350 C347 1.526 . S
C350 C351 1.396 . S
C350 C355 1.390 . S
C351 C345 1.465 . S
C351 C350 1.396 . S
C351 C352 1.399 . S
C352 H338 0.929 . S
C352 C351 1.399 . S
C352 C353 1.385 . S
C353 H339 0.931 . S
C353 C352 1.385 . S
C353 C354 1.389 . S
C354 C353 1.389 . S
C354 C355 1.387 . S
C355 H340 0.930 . S
C355 C350 1.390 . S
C355 C354 1.387 . S
H356 C368 0.930 . S
H357 C370 0.930 . S
H358 C371 0.930 . S
H359 C375 0.959 . S
H360 C375 0.959 . S
H361 C375 0.961 . S
H362 C376 0.960 . S
H363 C376 0.961 . S
H364 C376 0.959 . S
H365 C379 0.929 . S
H366 C380 0.931 . S
H367 C382 0.930 . S
C368 H356 0.930 . S
C368 C369 1.399 . S
C368 C373 1.399 . S
C369 C368 1.399 . S
C369 C370 1.376 . S
C370 H357 0.930 . S
C370 C369 1.376 . S
C370 C371 1.388 . S
C371 H358 0.930 . S
C371 C370 1.388 . S
C371 C372 1.390 . S
C372 C371 1.390 . S
C372 C373 1.394 . S
C372 C378 1.465 . S
C373 C368 1.399 . S
C373 C372 1.394 . S
C373 C374 1.516 . S
C374 C373 1.516 . S
C374 C375 1.502 . S
C374 C376 1.561 . S
C374 C377 1.526 . S
C375 H359 0.959 . S
C375 H360 0.959 . S
C375 H361 0.961 . S
C375 C374 1.502 . S
C376 H362 0.960 . S
C376 H363 0.961 . S
C376 H364 0.959 . S
C376 C374 1.561 . S
C377 C374 1.526 . S
C377 C378 1.396 . S
C377 C382 1.390 . S
C378 C372 1.465 . S
C378 C377 1.396 . S
C378 C379 1.399 . S
C379 H365 0.929 . S
C379 C378 1.399 . S
C379 C380 1.385 . S
C380 H366 0.931 . S
C380 C379 1.385 . S
C380 C381 1.389 . S
C381 C380 1.389 . S
C381 C382 1.387 . S
C382 H367 0.930 . S
C382 C377 1.390 . S
C382 C381 1.387 . S
H383 C395 0.930 . S
H384 C397 0.930 . S
H385 C398 0.930 . S
H386 C402 0.959 . S
H387 C402 0.959 . S
H388 C402 0.961 . S
H389 C403 0.960 . S
H390 C403 0.961 . S
H391 C403 0.959 . S
H392 C406 0.929 . S
H393 C407 0.931 . S
H394 C409 0.930 . S
C395 H383 0.930 . S
C395 C396 1.399 . S
C395 C400 1.399 . S
C396 C395 1.399 . S
C396 C397 1.376 . S
C397 H384 0.930 . S
C397 C396 1.376 . S
C397 C398 1.388 . S
C398 H385 0.930 . S
C398 C397 1.388 . S
C398 C399 1.390 . S
C399 C398 1.390 . S
C399 C400 1.394 . S
C399 C405 1.465 . S
C400 C395 1.399 . S
C400 C399 1.394 . S
C400 C401 1.516 . S
C401 C400 1.516 . S
C401 C402 1.502 . S
C401 C403 1.561 . S
C401 C404 1.526 . S
C402 H386 0.959 . S
C402 H387 0.959 . S
C402 H388 0.961 . S
C402 C401 1.502 . S
C403 H389 0.960 . S
C403 H390 0.961 . S
C403 H391 0.959 . S
C403 C401 1.561 . S
C404 C401 1.526 . S
C404 C405 1.396 . S
C404 C409 1.390 . S
C405 C399 1.465 . S
C405 C404 1.396 . S
C405 C406 1.399 . S
C406 H392 0.929 . S
C406 C405 1.399 . S
C406 C407 1.385 . S
C407 H393 0.931 . S
C407 C406 1.385 . S
C407 C408 1.389 . S
C408 C407 1.389 . S
C408 C409 1.387 . S
C409 H394 0.930 . S
C409 C404 1.390 . S
C409 C408 1.387 . S
H410 C422 0.930 . S
H411 C424 0.930 . S
H412 C425 0.930 . S
H413 C429 0.959 . S
H414 C429 0.959 . S
H415 C429 0.961 . S
H416 C430 0.960 . S
H417 C430 0.961 . S
H418 C430 0.959 . S
H419 C433 0.929 1_554 S
H420 C434 0.919 1_554 S
H421 C436 0.930 . S
C422 H410 0.930 . S
C422 C423 1.399 . S
C422 C427 1.399 . S
C423 C422 1.399 . S
C423 C424 1.376 . S
C424 H411 0.930 . S
C424 C423 1.376 . S
C424 C425 1.388 . S
C425 H412 0.930 . S
C425 C424 1.388 . S
C425 C426 1.390 . S
C426 C425 1.390 . S
C426 C427 1.394 . S
C426 C432 1.465 . S
C427 C422 1.399 . S
C427 C426 1.394 . S
C427 C428 1.516 . S
C428 C427 1.516 . S
C428 C429 1.502 . S
C428 C430 1.561 . S
C428 C431 1.526 . S
C429 H413 0.959 . S
C429 H414 0.959 . S
C429 H415 0.961 . S
C429 C428 1.502 . S
C430 H416 0.960 . S
C430 H417 0.961 . S
C430 H418 0.959 . S
C430 C428 1.561 . S
C431 C428 1.526 . S
C431 C432 1.396 . S
C431 C436 1.390 . S
C432 C426 1.465 . S
C432 C431 1.396 . S
C432 C433 1.399 . S
C433 H419 0.929 1_556 S
C433 C432 1.399 . S
C433 C434 1.388 . S
C434 H420 0.919 1_556 S
C434 C433 1.388 . S
C434 C435 1.398 . S
C435 C434 1.398 . S
C435 C436 1.387 . S
C436 H421 0.930 . S
C436 C431 1.390 . S
C436 C435 1.387 . S
H437 C449 0.930 . S
H438 C451 0.930 . S
H439 C452 0.930 . S
H440 C456 0.959 . S
H441 C456 0.959 . S
H442 C456 0.961 . S
H443 C457 0.960 . S
H444 C457 0.961 . S
H445 C457 0.959 . S
H446 C460 0.929 . S
H447 C461 0.931 . S
H448 C463 0.930 . S
C449 H437 0.930 . S
C449 C450 1.399 . S
C449 C454 1.399 . S
C450 C449 1.399 . S
C450 C451 1.376 . S
C451 H438 0.930 . S
C451 C450 1.376 . S
C451 C452 1.388 . S
C452 H439 0.930 . S
C452 C451 1.388 . S
C452 C453 1.390 . S
C453 C452 1.390 . S
C453 C454 1.394 . S
C453 C459 1.465 . S
C454 C449 1.399 . S
C454 C453 1.394 . S
C454 C455 1.516 . S
C455 C454 1.516 . S
C455 C456 1.502 . S
C455 C457 1.561 . S
C455 C458 1.526 . S
C456 H440 0.959 . S
C456 H441 0.959 . S
C456 H442 0.961 . S
C456 C455 1.502 . S
C457 H443 0.960 . S
C457 H444 0.961 . S
C457 H445 0.959 . S
C457 C455 1.561 . S
C458 C455 1.526 . S
C458 C459 1.396 . S
C458 C463 1.390 . S
C459 C453 1.465 . S
C459 C458 1.396 . S
C459 C460 1.399 . S
C460 H446 0.929 . S
C460 C459 1.399 . S
C460 C461 1.385 . S
C461 H447 0.931 . S
C461 C460 1.385 . S
C461 C462 1.389 . S
C462 C461 1.389 . S
C462 C463 1.387 . S
C463 H448 0.930 . S
C463 C458 1.390 . S
C463 C462 1.387 . S
H464 C476 0.930 . S
H465 C478 0.930 . S
H466 C479 0.930 . S
H467 C483 0.959 . S
H468 C483 0.959 . S
H469 C483 0.961 . S
H470 C484 0.960 . S
H471 C484 0.961 . S
H472 C484 0.959 . S
H473 C487 0.929 . S
H474 C488 0.931 . S
H475 C490 0.930 . S
C476 H464 0.930 . S
C476 C477 1.399 . S
C476 C481 1.399 . S
C477 C476 1.399 . S
C477 C478 1.376 . S
C478 H465 0.930 . S
C478 C477 1.376 . S
C478 C479 1.388 . S
C479 H466 0.930 . S
C479 C478 1.388 . S
C479 C480 1.390 . S
C480 C479 1.390 . S
C480 C481 1.394 . S
C480 C486 1.465 . S
C481 C476 1.399 . S
C481 C480 1.394 . S
C481 C482 1.516 . S
C482 C481 1.516 . S
C482 C483 1.502 . S
C482 C484 1.561 . S
C482 C485 1.526 . S
C483 H467 0.959 . S
C483 H468 0.959 . S
C483 H469 0.961 . S
C483 C482 1.502 . S
C484 H470 0.960 . S
C484 H471 0.961 . S
C484 H472 0.959 . S
C484 C482 1.561 . S
C485 C482 1.526 . S
C485 C486 1.396 . S
C485 C490 1.390 . S
C486 C480 1.465 . S
C486 C485 1.396 . S
C486 C487 1.399 . S
C487 H473 0.929 . S
C487 C486 1.399 . S
C487 C488 1.385 . S
C488 H474 0.931 . S
C488 C487 1.385 . S
C488 C489 1.389 . S
C489 C488 1.389 . S
C489 C490 1.387 . S
C490 H475 0.930 . S
C490 C485 1.390 . S
C490 C489 1.387 . S
H491 C503 0.930 . S
H492 C505 0.930 . S
H493 C506 0.930 1_554 S
H494 C510 0.959 . S
H495 C510 0.959 . S
H496 C510 0.961 . S
H497 C511 0.960 . S
H498 C511 0.961 . S
H499 C511 0.959 . S
H500 C514 0.929 . S
H501 C515 0.931 . S
H502 C517 0.930 . S
C503 H491 0.930 . S
C503 C504 1.399 . S
C503 C508 1.399 . S
C504 C503 1.399 . S
C504 C505 1.376 . S
C505 H492 0.930 . S
C505 C504 1.376 . S
C505 C506 1.388 . S
C506 H493 0.930 1_556 S
C506 C505 1.388 . S
C506 C507 1.390 . S
C507 C506 1.390 . S
C507 C508 1.394 . S
C507 C513 1.465 . S
C508 C503 1.399 . S
C508 C507 1.394 . S
C508 C509 1.516 . S
C509 C508 1.516 . S
C509 C510 1.502 . S
C509 C511 1.561 . S
C509 C512 1.526 . S
C510 H494 0.959 . S
C510 H495 0.959 . S
C510 H496 0.961 . S
C510 C509 1.502 . S
C511 H497 0.960 . S
C511 H498 0.961 . S
C511 H499 0.959 . S
C511 C509 1.561 . S
C512 C509 1.526 . S
C512 C513 1.396 . S
C512 C517 1.390 . S
C513 C507 1.465 . S
C513 C512 1.396 . S
C513 C514 1.399 1_556 S
C514 H500 0.929 . S
C514 C513 1.399 1_554 S
C514 C515 1.385 . S
C515 H501 0.931 . S
C515 C514 1.385 . S
C515 C516 1.389 . S
C516 C515 1.389 . S
C516 C517 1.387 1_554 S
C517 H502 0.930 . S
C517 C512 1.390 . S
C517 C516 1.387 1_556 S
H518 C530 0.930 . S
H519 C532 0.930 . S
H520 C533 0.930 . S
H521 C537 0.959 . S
H522 C537 0.959 . S
H523 C537 0.961 . S
H524 C538 0.960 . S
H525 C538 0.961 . S
H526 C538 0.959 . S
H527 C541 0.929 . S
H528 C542 0.931 . S
H529 C544 0.930 . S
C530 H518 0.930 . S
C530 C531 1.399 . S
C530 C535 1.399 . S
C531 C530 1.399 . S
C531 C532 1.376 . S
C532 H519 0.930 . S
C532 C531 1.376 . S
C532 C533 1.388 . S
C533 H520 0.930 . S
C533 C532 1.388 . S
C533 C534 1.390 . S
C534 C533 1.390 . S
C534 C535 1.394 . S
C534 C540 1.465 . S
C535 C530 1.399 . S
C535 C534 1.394 . S
C535 C536 1.516 . S
C536 C535 1.516 . S
C536 C537 1.502 . S
C536 C538 1.561 . S
C536 C539 1.526 . S
C537 H521 0.959 . S
C537 H522 0.959 . S
C537 H523 0.961 . S
C537 C536 1.502 . S
C538 H524 0.960 . S
C538 H525 0.961 . S
C538 H526 0.959 . S
C538 C536 1.561 . S
C539 C536 1.526 . S
C539 C540 1.396 . S
C539 C544 1.390 . S
C540 C534 1.465 . S
C540 C539 1.396 . S
C540 C541 1.399 . S
C541 H527 0.929 . S
C541 C540 1.399 . S
C541 C542 1.385 . S
C542 H528 0.931 . S
C542 C541 1.385 . S
C542 C543 1.389 . S
C543 C542 1.389 . S
C543 C544 1.387 . S
C544 H529 0.930 . S
C544 C539 1.390 . S
C544 C543 1.387 . S
H545 C557 0.930 . S
H546 C559 0.930 . S
H547 C560 0.930 . S
H548 C564 0.959 . S
H549 C564 0.959 . S
H550 C564 0.961 . S
H551 C565 0.960 . S
H552 C565 0.961 . S
H553 C565 0.959 . S
H554 C568 0.929 . S
H555 C569 0.931 . S
H556 C571 0.930 . S
C557 H545 0.930 . S
C557 C558 1.399 . S
C557 C562 1.399 . S
C558 C557 1.399 . S
C558 C559 1.376 . S
C559 H546 0.930 . S
C559 C558 1.376 . S
C559 C560 1.388 . S
C560 H547 0.930 . S
C560 C559 1.388 . S
C560 C561 1.390 . S
C561 C560 1.390 . S
C561 C562 1.394 . S
C561 C567 1.465 . S
C562 C557 1.399 . S
C562 C561 1.394 . S
C562 C563 1.516 . S
C563 C562 1.516 . S
C563 C564 1.502 . S
C563 C565 1.561 . S
C563 C566 1.526 . S
C564 H548 0.959 . S
C564 H549 0.959 . S
C564 H550 0.961 . S
C564 C563 1.502 . S
C565 H551 0.960 . S
C565 H552 0.961 . S
C565 H553 0.959 . S
C565 C563 1.561 . S
C566 C563 1.526 . S
C566 C567 1.396 . S
C566 C571 1.390 . S
C567 C561 1.465 . S
C567 C566 1.396 . S
C567 C568 1.399 . S
C568 H554 0.929 . S
C568 C567 1.399 . S
C568 C569 1.385 . S
C569 H555 0.931 . S
C569 C568 1.385 . S
C569 C570 1.389 . S
C570 C569 1.389 . S
C570 C571 1.387 . S
C571 H556 0.930 . S
C571 C566 1.390 . S
C571 C570 1.387 . S
H572 C584 0.930 . S
H573 C586 0.930 . S
H574 C587 0.930 . S
H575 C591 0.959 . S
H576 C591 0.959 . S
H577 C591 0.961 . S
H578 C592 0.960 . S
H579 C592 0.961 . S
H580 C592 0.959 . S
H581 C595 0.929 . S
H582 C596 0.931 . S
H583 C598 0.930 . S
C584 H572 0.930 . S
C584 C585 1.399 . S
C584 C589 1.399 . S
C585 C584 1.399 . S
C585 C586 1.376 . S
C586 H573 0.930 . S
C586 C585 1.376 . S
C586 C587 1.388 . S
C587 H574 0.930 . S
C587 C586 1.388 . S
C587 C588 1.390 . S
C588 C587 1.390 . S
C588 C589 1.394 . S
C588 C594 1.465 . S
C589 C584 1.399 . S
C589 C588 1.394 . S
C589 C590 1.516 . S
C590 C589 1.516 . S
C590 C591 1.502 . S
C590 C592 1.561 . S
C590 C593 1.526 . S
C591 H575 0.959 . S
C591 H576 0.959 . S
C591 H577 0.961 . S
C591 C590 1.502 . S
C592 H578 0.960 . S
C592 H579 0.961 . S
C592 H580 0.959 . S
C592 C590 1.561 . S
C593 C590 1.526 . S
C593 C594 1.396 . S
C593 C598 1.390 . S
C594 C588 1.465 . S
C594 C593 1.396 . S
C594 C595 1.399 . S
C595 H581 0.929 . S
C595 C594 1.399 . S
C595 C596 1.385 . S
C596 H582 0.931 . S
C596 C595 1.385 . S
C596 C597 1.389 . S
C597 C596 1.389 . S
C597 C598 1.387 . S
C598 H583 0.930 . S
C598 C593 1.390 . S
C598 C597 1.387 . S
H599 C611 0.930 . S
H600 C613 0.930 . S
H601 C614 0.930 . S
H602 C618 0.959 . S
H603 C618 0.959 . S
H604 C618 0.961 . S
H605 C619 0.960 . S
H606 C619 0.961 . S
H607 C619 0.959 . S
H608 C622 0.929 . S
H609 C623 0.931 . S
H610 C625 0.930 . S
C611 H599 0.930 . S
C611 C612 1.399 . S
C611 C616 1.399 . S
C612 C611 1.399 . S
C612 C613 1.376 . S
C613 H600 0.930 . S
C613 C612 1.376 . S
C613 C614 1.388 . S
C614 H601 0.930 . S
C614 C613 1.388 . S
C614 C615 1.390 . S
C615 C614 1.390 . S
C615 C616 1.394 . S
C615 C621 1.465 . S
C616 C611 1.399 . S
C616 C615 1.394 . S
C616 C617 1.516 . S
C617 C616 1.516 . S
C617 C618 1.502 . S
C617 C619 1.561 . S
C617 C620 1.526 . S
C618 H602 0.959 . S
C618 H603 0.959 . S
C618 H604 0.961 . S
C618 C617 1.502 . S
C619 H605 0.960 . S
C619 H606 0.961 . S
C619 H607 0.959 . S
C619 C617 1.561 . S
C620 C617 1.526 . S
C620 C621 1.396 . S
C620 C625 1.390 . S
C621 C615 1.465 . S
C621 C620 1.396 . S
C621 C622 1.399 . S
C622 H608 0.929 . S
C622 C621 1.399 . S
C622 C623 1.385 . S
C623 H609 0.931 . S
C623 C622 1.385 . S
C623 C624 1.389 . S
C624 C623 1.389 . S
C624 C625 1.387 . S
C625 H610 0.930 . S
C625 C620 1.390 . S
C625 C624 1.387 . S
H626 C638 0.930 . S
H627 C640 0.930 . S
H628 C641 0.930 . S
H629 C645 0.959 . S
H630 C645 0.959 . S
H631 C645 0.961 . S
H632 C646 0.960 . S
H633 C646 0.961 . S
H634 C646 0.959 . S
H635 C649 0.929 . S
H636 C650 0.931 . S
H637 C652 0.930 . S
C638 H626 0.930 . S
C638 C639 1.399 . S
C638 C643 1.399 . S
C639 C638 1.399 . S
C639 C640 1.376 . S
C640 H627 0.930 . S
C640 C639 1.376 . S
C640 C641 1.388 . S
C641 H628 0.930 . S
C641 C640 1.388 . S
C641 C642 1.390 . S
C642 C641 1.390 . S
C642 C643 1.394 . S
C642 C648 1.465 . S
C643 C638 1.399 . S
C643 C642 1.394 . S
C643 C644 1.516 . S
C644 C643 1.516 . S
C644 C645 1.502 . S
C644 C646 1.561 . S
C644 C647 1.526 . S
C645 H629 0.959 . S
C645 H630 0.959 . S
C645 H631 0.961 . S
C645 C644 1.502 . S
C646 H632 0.960 . S
C646 H633 0.961 . S
C646 H634 0.959 . S
C646 C644 1.561 . S
C647 C644 1.526 . S
C647 C648 1.396 . S
C647 C652 1.390 . S
C648 C642 1.465 . S
C648 C647 1.396 . S
C648 C649 1.399 . S
C649 H635 0.929 . S
C649 C648 1.399 . S
C649 C650 1.385 . S
C650 H636 0.931 . S
C650 C649 1.385 . S
C650 C651 1.389 . S
C651 C650 1.389 . S
C651 C652 1.387 . S
C652 H637 0.930 . S
C652 C647 1.390 . S
C652 C651 1.387 . S
H653 C665 0.930 . S
H654 C667 0.930 . S
H655 C668 0.930 . S
H656 C672 0.959 . S
H657 C672 0.959 . S
H658 C672 0.961 . S
H659 C673 0.960 . S
H660 C673 0.961 . S
H661 C673 0.959 . S
H662 C676 0.929 . S
H663 C677 0.931 . S
H664 C679 0.930 . S
C665 H653 0.930 . S
C665 C666 1.399 . S
C665 C670 1.399 . S
C666 C665 1.399 . S
C666 C667 1.376 . S
C667 H654 0.930 . S
C667 C666 1.376 . S
C667 C668 1.388 . S
C668 H655 0.930 . S
C668 C667 1.388 . S
C668 C669 1.390 . S
C669 C668 1.390 . S
C669 C670 1.394 . S
C669 C675 1.465 . S
C670 C665 1.399 . S
C670 C669 1.394 . S
C670 C671 1.516 . S
C671 C670 1.516 . S
C671 C672 1.502 . S
C671 C673 1.561 . S
C671 C674 1.526 . S
C672 H656 0.959 . S
C672 H657 0.959 . S
C672 H658 0.961 . S
C672 C671 1.502 . S
C673 H659 0.960 . S
C673 H660 0.961 . S
C673 H661 0.959 . S
C673 C671 1.561 . S
C674 C671 1.526 . S
C674 C675 1.396 . S
C674 C679 1.390 . S
C675 C669 1.465 . S
C675 C674 1.396 . S
C675 C676 1.399 . S
C676 H662 0.929 . S
C676 C675 1.399 . S
C676 C677 1.385 . S
C677 H663 0.931 . S
C677 C676 1.385 . S
C677 C678 1.389 . S
C678 C677 1.389 . S
C678 C679 1.387 . S
C679 H664 0.930 . S
C679 C674 1.390 . S
C679 C678 1.387 . S
H680 C692 0.930 . S
H681 C694 0.930 . S
H682 C695 0.930 . S
H683 C699 0.959 . S
H684 C699 0.959 . S
H685 C699 0.961 . S
H686 C700 0.960 . S
H687 C700 0.961 . S
H688 C700 0.959 . S
H689 C703 0.929 . S
H690 C704 0.931 . S
H691 C706 0.930 . S
C692 H680 0.930 . S
C692 C693 1.399 . S
C692 C697 1.399 . S
C693 C692 1.399 . S
C693 C694 1.376 . S
C694 H681 0.930 . S
C694 C693 1.376 . S
C694 C695 1.388 . S
C695 H682 0.930 . S
C695 C694 1.388 . S
C695 C696 1.390 . S
C696 C695 1.390 . S
C696 C697 1.394 . S
C696 C702 1.465 . S
C697 C692 1.399 . S
C697 C696 1.394 . S
C697 C698 1.516 . S
C698 C697 1.516 . S
C698 C699 1.502 . S
C698 C700 1.561 . S
C698 C701 1.526 . S
C699 H683 0.959 . S
C699 H684 0.959 . S
C699 H685 0.961 . S
C699 C698 1.502 . S
C700 H686 0.960 . S
C700 H687 0.961 . S
C700 H688 0.959 . S
C700 C698 1.561 . S
C701 C698 1.526 . S
C701 C702 1.396 . S
C701 C706 1.390 . S
C702 C696 1.465 . S
C702 C701 1.396 . S
C702 C703 1.399 . S
C703 H689 0.929 . S
C703 C702 1.399 . S
C703 C704 1.385 1_556 S
C704 H690 0.931 . S
C704 C703 1.385 1_554 S
C704 C705 1.389 . S
C705 C704 1.389 . S
C705 C706 1.387 1_554 S
C706 H691 0.930 . S
C706 C701 1.390 . S
C706 C705 1.387 1_556 S
H707 C719 0.930 . S
H708 C721 0.930 . S
H709 C722 0.930 1_455 S
H710 C726 0.959 . S
H711 C726 0.959 . S
H712 C726 0.961 . S
H713 C727 0.960 . S
H714 C727 0.961 . S
H715 C727 0.959 . S
H716 C730 0.929 . S
H717 C731 0.923 1_455 S
H718 C733 0.930 . S
C719 H707 0.930 . S
C719 C720 1.399 . S
C719 C724 1.399 . S
C720 C719 1.399 . S
C720 C721 1.376 . S
C721 H708 0.930 . S
C721 C720 1.376 . S
C721 C722 1.388 . S
C722 H709 0.930 1_655 S
C722 C721 1.388 . S
C722 C723 1.390 . S
C723 C722 1.390 . S
C723 C724 1.394 . S
C723 C729 1.465 . S
C724 C719 1.399 . S
C724 C723 1.394 . S
C724 C725 1.516 . S
C725 C724 1.516 . S
C725 C726 1.502 . S
C725 C727 1.561 . S
C725 C728 1.526 . S
C726 H710 0.959 . S
C726 H711 0.959 . S
C726 H712 0.961 . S
C726 C725 1.502 . S
C727 H713 0.960 . S
C727 H714 0.961 . S
C727 H715 0.959 . S
C727 C725 1.561 . S
C728 C725 1.526 . S
C728 C729 1.396 . S
C728 C733 1.390 . S
C729 C723 1.465 . S
C729 C728 1.396 . S
C729 C730 1.399 1_655 S
C730 H716 0.929 . S
C730 C729 1.399 1_455 S
C730 C731 1.386 1_455 S
C731 H717 0.923 1_655 S
C731 C730 1.386 1_655 S
C731 C732 1.396 . S
C732 C731 1.396 . S
C732 C733 1.387 . S
C733 H718 0.930 . S
C733 C728 1.390 . S
C733 C732 1.387 . S
H734 C746 0.930 . S
H735 C748 0.930 . S
H736 C749 0.930 . S
H737 C753 0.959 . S
H738 C753 0.959 . S
H739 C753 0.961 . S
H740 C754 0.960 . S
H741 C754 0.961 . S
H742 C754 0.959 . S
H743 C757 0.929 . S
H744 C758 0.931 . S
H745 C760 0.930 . S
C746 H734 0.930 . S
C746 C747 1.399 . S
C746 C751 1.399 . S
C747 C746 1.399 . S
C747 C748 1.376 . S
C748 H735 0.930 . S
C748 C747 1.376 . S
C748 C749 1.388 . S
C749 H736 0.930 . S
C749 C748 1.388 . S
C749 C750 1.390 . S
C750 C749 1.390 . S
C750 C751 1.394 . S
C750 C756 1.465 . S
C751 C746 1.399 . S
C751 C750 1.394 . S
C751 C752 1.516 . S
C752 C751 1.516 . S
C752 C753 1.502 . S
C752 C754 1.561 . S
C752 C755 1.526 . S
C753 H737 0.959 . S
C753 H738 0.959 . S
C753 H739 0.961 . S
C753 C752 1.502 . S
C754 H740 0.960 . S
C754 H741 0.961 . S
C754 H742 0.959 . S
C754 C752 1.561 . S
C755 C752 1.526 . S
C755 C756 1.396 . S
C755 C760 1.390 . S
C756 C750 1.465 . S
C756 C755 1.396 . S
C756 C757 1.399 . S
C757 H743 0.929 . S
C757 C756 1.399 . S
C757 C758 1.385 . S
C758 H744 0.931 . S
C758 C757 1.385 . S
C758 C759 1.389 . S
C759 C758 1.389 . S
C759 C760 1.387 . S
C760 H745 0.930 . S
C760 C755 1.390 . S
C760 C759 1.387 . S
H761 C773 0.930 . S
H762 C775 0.930 . S
H763 C776 0.930 . S
H764 C780 0.959 . S
H765 C780 0.959 . S
H766 C780 0.961 . S
H767 C781 0.960 . S
H768 C781 0.961 . S
H769 C781 0.959 . S
H770 C784 0.929 . S
H771 C785 0.931 . S
H772 C787 0.930 . S
C773 H761 0.930 . S
C773 C774 1.399 . S
C773 C778 1.399 . S
C774 C773 1.399 . S
C774 C775 1.376 . S
C775 H762 0.930 . S
C775 C774 1.376 . S
C775 C776 1.388 . S
C776 H763 0.930 . S
C776 C775 1.388 . S
C776 C777 1.390 . S
C777 C776 1.390 . S
C777 C778 1.394 . S
C777 C783 1.465 . S
C778 C773 1.399 . S
C778 C777 1.394 . S
C778 C779 1.516 . S
C779 C778 1.516 . S
C779 C780 1.502 . S
C779 C781 1.561 . S
C779 C782 1.526 . S
C780 H764 0.959 . S
C780 H765 0.959 . S
C780 H766 0.961 . S
C780 C779 1.502 . S
C781 H767 0.960 . S
C781 H768 0.961 . S
C781 H769 0.959 . S
C781 C779 1.561 . S
C782 C779 1.526 . S
C782 C783 1.396 . S
C782 C787 1.390 . S
C783 C777 1.465 . S
C783 C782 1.396 . S
C783 C784 1.399 . S
C784 H770 0.929 . S
C784 C783 1.399 . S
C784 C785 1.385 . S
C785 H771 0.931 . S
C785 C784 1.385 . S
C785 C786 1.389 . S
C786 C785 1.389 . S
C786 C787 1.387 . S
C787 H772 0.930 . S
C787 C782 1.390 . S
C787 C786 1.387 . S
H788 C800 0.930 . S
H789 C802 0.930 . S
H790 C803 0.930 . S
H791 C807 0.959 . S
H792 C807 0.959 . S
H793 C807 0.961 . S
H794 C808 0.960 . S
H795 C808 0.961 . S
H796 C808 0.959 . S
H797 C811 0.929 . S
H798 C812 0.931 . S
H799 C814 0.930 . S
C800 H788 0.930 . S
C800 C801 1.399 . S
C800 C805 1.399 . S
C801 C800 1.399 . S
C801 C802 1.376 . S
C802 H789 0.930 . S
C802 C801 1.376 . S
C802 C803 1.388 . S
C803 H790 0.930 . S
C803 C802 1.388 . S
C803 C804 1.390 . S
C804 C803 1.390 . S
C804 C805 1.394 . S
C804 C810 1.465 . S
C805 C800 1.399 . S
C805 C804 1.394 . S
C805 C806 1.516 . S
C806 C805 1.516 . S
C806 C807 1.502 . S
C806 C808 1.561 . S
C806 C809 1.526 . S
C807 H791 0.959 . S
C807 H792 0.959 . S
C807 H793 0.961 . S
C807 C806 1.502 . S
C808 H794 0.960 . S
C808 H795 0.961 . S
C808 H796 0.959 . S
C808 C806 1.561 . S
C809 C806 1.526 . S
C809 C810 1.396 . S
C809 C814 1.390 . S
C810 C804 1.465 . S
C810 C809 1.396 . S
C810 C811 1.399 . S
C811 H797 0.929 . S
C811 C810 1.399 . S
C811 C812 1.385 . S
C812 H798 0.931 . S
C812 C811 1.385 . S
C812 C813 1.389 . S
C813 C812 1.389 . S
C813 C814 1.387 . S
C814 H799 0.930 . S
C814 C809 1.390 . S
C814 C813 1.387 . S
H815 C827 0.930 . S
H816 C829 0.930 . S
H817 C830 0.930 . S
H818 C834 0.959 . S
H819 C834 0.959 . S
H820 C834 0.961 . S
H821 C835 0.960 . S
H822 C835 0.961 . S
H823 C835 0.959 . S
H824 C838 0.929 . S
H825 C839 0.931 . S
H826 C841 0.930 . S
C827 H815 0.930 . S
C827 C828 1.399 . S
C827 C832 1.399 . S
C828 C827 1.399 . S
C828 C829 1.376 . S
C829 H816 0.930 . S
C829 C828 1.376 . S
C829 C830 1.388 . S
C830 H817 0.930 . S
C830 C829 1.388 . S
C830 C831 1.390 . S
C831 C830 1.390 . S
C831 C832 1.394 . S
C831 C837 1.465 . S
C832 C827 1.399 . S
C832 C831 1.394 . S
C832 C833 1.516 . S
C833 C832 1.516 . S
C833 C834 1.502 . S
C833 C835 1.561 . S
C833 C836 1.526 . S
C834 H818 0.959 . S
C834 H819 0.959 . S
C834 H820 0.961 . S
C834 C833 1.502 . S
C835 H821 0.960 . S
C835 H822 0.961 . S
C835 H823 0.959 . S
C835 C833 1.561 . S
C836 C833 1.526 . S
C836 C837 1.396 . S
C836 C841 1.390 . S
C837 C831 1.465 . S
C837 C836 1.396 . S
C837 C838 1.399 . S
C838 H824 0.929 . S
C838 C837 1.399 . S
C838 C839 1.385 . S
C839 H825 0.931 . S
C839 C838 1.385 . S
C839 C840 1.389 . S
C840 C839 1.389 . S
C840 C841 1.387 . S
C841 H826 0.930 . S
C841 C836 1.390 . S
C841 C840 1.387 . S
H842 C854 0.930 . S
H843 C856 0.930 . S
H844 C857 0.930 . S
H845 C861 0.959 . S
H846 C861 0.959 . S
H847 C861 0.961 . S
H848 C862 0.960 . S
H849 C862 0.961 . S
H850 C862 0.959 . S
H851 C865 0.929 . S
H852 C866 0.931 . S
H853 C868 0.930 . S
C854 H842 0.930 . S
C854 C855 1.399 . S
C854 C859 1.399 . S
C855 C854 1.399 . S
C855 C856 1.376 . S
C856 H843 0.930 . S
C856 C855 1.376 . S
C856 C857 1.388 . S
C857 H844 0.930 . S
C857 C856 1.388 . S
C857 C858 1.390 . S
C858 C857 1.390 . S
C858 C859 1.394 . S
C858 C864 1.465 . S
C859 C854 1.399 . S
C859 C858 1.394 . S
C859 C860 1.516 . S
C860 C859 1.516 . S
C860 C861 1.502 . S
C860 C862 1.561 . S
C860 C863 1.526 . S
C861 H845 0.959 . S
C861 H846 0.959 . S
C861 H847 0.961 . S
C861 C860 1.502 . S
C862 H848 0.960 . S
C862 H849 0.961 . S
C862 H850 0.959 . S
C862 C860 1.561 . S
C863 C860 1.526 . S
C863 C864 1.396 . S
C863 C868 1.390 . S
C864 C858 1.465 . S
C864 C863 1.396 . S
C864 C865 1.399 . S
C865 H851 0.929 . S
C865 C864 1.399 . S
C865 C866 1.385 . S
C866 H852 0.931 . S
C866 C865 1.385 . S
C866 C867 1.389 . S
C867 C866 1.389 . S
C867 C868 1.387 . S
C868 H853 0.930 . S
C868 C863 1.390 . S
C868 C867 1.387 . S
H869 C881 0.930 . S
H870 C883 0.930 . S
H871 C884 0.930 . S
H872 C888 0.959 . S
H873 C888 0.959 . S
H874 C888 0.961 . S
H875 C889 0.960 . S
H876 C889 0.961 . S
H877 C889 0.959 . S
H878 C892 0.929 . S
H879 C893 0.931 . S
H880 C895 0.930 . S
C881 H869 0.930 . S
C881 C882 1.399 . S
C881 C886 1.399 . S
C882 C881 1.399 . S
C882 C883 1.376 . S
C883 H870 0.930 . S
C883 C882 1.376 . S
C883 C884 1.388 . S
C884 H871 0.930 . S
C884 C883 1.388 . S
C884 C885 1.390 . S
C885 C884 1.390 . S
C885 C886 1.394 . S
C885 C891 1.465 . S
C886 C881 1.399 . S
C886 C885 1.394 . S
C886 C887 1.516 . S
C887 C886 1.516 . S
C887 C888 1.502 . S
C887 C889 1.561 . S
C887 C890 1.526 . S
C888 H872 0.959 . S
C888 H873 0.959 . S
C888 H874 0.961 . S
C888 C887 1.502 . S
C889 H875 0.960 . S
C889 H876 0.961 . S
C889 H877 0.959 . S
C889 C887 1.561 . S
C890 C887 1.526 . S
C890 C891 1.396 . S
C890 C895 1.390 . S
C891 C885 1.465 . S
C891 C890 1.396 . S
C891 C892 1.399 . S
C892 H878 0.929 . S
C892 C891 1.399 . S
C892 C893 1.385 . S
C893 H879 0.931 . S
C893 C892 1.385 . S
C893 C894 1.389 . S
C894 C893 1.389 . S
C894 C895 1.387 . S
C895 H880 0.930 . S
C895 C890 1.390 . S
C895 C894 1.387 . S
C261 C5 0.932 . S
C273 C92 0.995 . S
C288 C18 1.153 . S
C300 C153 1.169 . S
C327 C191 2.331 . S
C315 C30 2.391 . S
C342 C41 2.078 . S
C354 C231 2.018 . S
C381 C151 1.337 . S
C369 C7 1.241 . S
C408 C119 2.083 . S
C396 C16 2.051 . S
C435 C228 1.807 . S
C423 C29 1.771 . S
C462 C188 1.463 . S
C450 C38 1.394 . S
C477 C8 1.007 . S
C489 C233 1.118 . S
C516 C148 2.565 . S
C504 C27 2.243 . S
C531 C40 2.235 . S
C543 C90 2.203 . S
C558 C19 1.286 . S
C570 C193 1.305 . S
C597 C113 0.958 . S
C585 C51 0.927 . S
C612 C62 1.405 . S
C624 C132 1.372 . S
C639 C74 2.452 . S
C651 C170 2.448 . S
C666 C84 2.024 . S
C678 C210 2.107 . S
C693 C49 1.375 . S
C705 C130 1.661 . S
C732 C108 2.061 . S
C720 C63 2.059 . S
C759 C239 1.613 . S
C747 C71 1.347 . S
C786 C199 1.586 . S
C774 C85 1.588 . S
C801 C52 1.154 . S
C813 C212 1.205 . S
C840 C159 2.702 . S
C828 C73 2.646 . S
C867 C111 1.830 . S
C855 C82 1.553 . S
C882 C60 1.273 . S
C894 C172 1.404 . S
