# Generated by pormake.
# Topology pth, (4,4)-cn, num edge types: 1
# Building blocks:
#     Node 0, Type 0, BuildingBlock: CEKHIL_clean_sbu_0, # of connection points: 4
#     Node 1, Type 0, BuildingBlock: CEKHIL_clean_sbu_0, # of connection points: 4
#     Node 2, Type 0, BuildingBlock: CEKHIL_clean_sbu_0, # of connection points: 4
#     Node 3, Type 1, BuildingBlock: KOZSID_clean_sbu_0, # of connection points: 4
#     Node 4, Type 1, BuildingBlock: KOZSID_clean_sbu_0, # of connection points: 4
#     Node 5, Type 1, BuildingBlock: KOZSID_clean_sbu_0, # of connection points: 4
#     Edge 6, Type (0, 1), BuildingBlock: CIFDUS_clean_linker_0, # of connection points: 2
#     Edge 7, Type (0, 1), BuildingBlock: CIFDUS_clean_linker_0, # of connection points: 2
#     Edge 8, Type (0, 1), BuildingBlock: CIFDUS_clean_linker_0, # of connection points: 2
#     Edge 9, Type (0, 1), BuildingBlock: CIFDUS_clean_linker_0, # of connection points: 2
#     Edge 10, Type (0, 1), BuildingBlock: CIFDUS_clean_linker_0, # of connection points: 2
#     Edge 11, Type (0, 1), BuildingBlock: CIFDUS_clean_linker_0, # of connection points: 2
#     Edge 12, Type (0, 1), BuildingBlock: CIFDUS_clean_linker_0, # of connection points: 2
#     Edge 13, Type (0, 1), BuildingBlock: CIFDUS_clean_linker_0, # of connection points: 2
#     Edge 14, Type (0, 1), BuildingBlock: CIFDUS_clean_linker_0, # of connection points: 2
#     Edge 15, Type (0, 1), BuildingBlock: CIFDUS_clean_linker_0, # of connection points: 2
#     Edge 16, Type (0, 1), BuildingBlock: CIFDUS_clean_linker_0, # of connection points: 2
#     Edge 17, Type (0, 1), BuildingBlock: CIFDUS_clean_linker_0, # of connection points: 2
# Relax obj value: 0.006
# Max RMSD: 0.059
# Mean RMSD: 0.040
data_MOF--net-pth--node1-CEKHIL_clean_sbu_0--node2-KOZSID_clean_sbu_0--edge1-CIFDUS_clean_linker_0
_symmetry_space_group_name_H-M    P1
_symmetry_Int_Tables_number       1
_symmetry_cell_setting            triclinic
loop_
_symmetry_equiv_pos_as_xyz
'x, y, z'
_cell_length_a     23.226621
_cell_length_b     23.333307
_cell_length_c     53.821415
_cell_angle_alpha  88.076228
_cell_angle_beta   86.937197
_cell_angle_gamma 120.38765
loop_
_atom_site_label
_atom_site_type_symbol
_atom_site_fract_x
_atom_site_fract_y
_atom_site_fract_z
_atom_type_partial_charge
Co0 Co 0.08227 0.06201 0.05648 0.0
O1 O 0.03771 0.99211 0.08303 0.0
O2 O 0.12191 0.00619 0.0573 0.0
C3 C 0.09196 0.14544 0.07972 0.0
O4 O 0.1442 0.12936 0.02791 0.0
Co5 Co 0.02182 0.14317 0.03606 0.0
O6 O 0.11526 0.20703 0.02255 0.0
C7 C 0.971 0.00615 0.02069 0.0
C8 C 0.07919 0.9726 0.07625 0.0
C9 C 0.15609 0.18643 0.01872 0.0
O10 O 0.01637 0.00297 0.03244 0.0
O11 O 0.96281 0.05649 0.02092 0.0
O12 O 0.13473 0.12521 0.0806 0.0
O13 O 0.04249 0.11192 0.06628 0.0
Co14 Co 0.05349 0.09176 0.37073 0.0
O15 O 0.01082 0.12061 0.34759 0.0
O16 O 0.09475 0.1881 0.36911 0.0
C17 C 0.0632 0.02098 0.34526 0.0
O18 O 0.11396 0.08146 0.39495 0.0
Co19 Co 0.98769 0.94527 0.3916 0.0
O20 O 0.08088 0.97268 0.39832 0.0
C21 C 0.9416 0.03132 0.41326 0.0
C22 C 0.05321 0.18115 0.35257 0.0
C23 C 0.12372 0.03329 0.4012 0.0
O24 O 0.98665 0.08158 0.39909 0.0
O25 O 0.93256 0.97256 0.41249 0.0
O26 O 0.10653 0.08444 0.34288 0.0
O27 O 0.01289 0.00318 0.36144 0.0
Co28 Co 0.07332 0.06724 0.70333 0.0
O29 O 0.1416 0.10401 0.67569 0.0
O30 O 0.12043 0.01838 0.70128 0.0
C31 C 0.99105 0.06687 0.68207 0.0
O32 O 1.00512 0.01221 0.73285 0.0
Co33 Co 0.01063 0.14701 0.72479 0.0
O34 O 0.95177 0.06474 0.74641 0.0
C35 C 0.15006 0.18797 0.73303 0.0
C36 C 0.15565 0.05854 0.68201 0.0
C37 C 0.96052 0.01503 0.74726 0.0
O38 O 0.14029 0.13144 0.72621 0.0
O39 O 0.10706 0.20642 0.73104 0.0
O40 O 1.00397 0.01896 0.68025 0.0
O41 O 0.0312 0.11497 0.69483 0.0
C42 C 0.11571 0.68848 0.176 0.0
C43 C 0.17826 0.74141 0.16727 0.0
C44 C 0.22445 0.73321 0.17901 0.0
C45 C 0.1878 0.67641 0.19437 0.0
N46 N 0.12091 0.64703 0.19292 0.0
Co47 Co 0.0495 0.5674 0.21412 0.0
N48 N 0.11752 0.55866 0.23291 0.0
C49 C 0.18487 0.59725 0.229 0.0
C50 C 0.21906 0.57672 0.24326 0.0
C51 C 0.17078 0.52106 0.25691 0.0
C52 C 0.10948 0.51105 0.25035 0.0
N53 N 0.97795 0.48908 0.23572 0.0
C54 C 0.98294 0.45015 0.25379 0.0
C55 C 0.92039 0.40221 0.26472 0.0
C56 C 0.87423 0.40975 0.25265 0.0
C57 C 0.91097 0.46208 0.23529 0.0
N58 N 0.98144 0.57485 0.19498 0.0
C59 C 0.91426 0.53342 0.19761 0.0
C60 C 0.88037 0.55048 0.1817 0.0
C61 C 0.92865 0.60672 0.1683 0.0
C62 C 0.98944 0.62118 0.17703 0.0
N63 N 0.05205 0.50611 0.18966 0.0
C64 C 0.05505 0.41596 0.15633 0.0
C65 C 0.99463 0.40549 0.16771 0.0
C66 C 0.99427 0.45063 0.18407 0.0
C67 C 0.11405 0.4728 0.16189 0.0
C68 C 0.11143 0.51684 0.1784 0.0
N69 N 0.04685 0.62862 0.23854 0.0
C70 C 0.98434 0.66831 0.26249 0.0
C71 C 0.04274 0.71891 0.27145 0.0
C72 C 0.10332 0.72305 0.26376 0.0
C73 C 0.10421 0.67769 0.24753 0.0
C74 C 0.98748 0.62424 0.24628 0.0
H75 H 0.15194 0.68354 0.2424 0.0
H76 H 0.94112 0.5875 0.24004 0.0
H77 H 0.94648 0.43905 0.19213 0.0
H78 H 0.15815 0.55908 0.18181 0.0
C79 C 0.21452 0.65109 0.21117 0.0
C80 C 0.05278 0.68134 0.16858 0.0
C81 C 0.04513 0.45414 0.26034 0.0
C82 C 0.88414 0.4832 0.21691 0.0
H83 H 0.18969 0.78275 0.15424 0.0
H84 H 0.27828 0.7659 0.17713 0.0
H85 H 0.27276 0.59864 0.24326 0.0
H86 H 0.18009 0.49066 0.26979 0.0
H87 H 0.90925 0.36453 0.27947 0.0
H88 H 0.82026 0.37937 0.25566 0.0
H89 H 0.82676 0.5263 0.1806 0.0
H90 H 0.91995 0.635 0.15418 0.0
H91 H 0.94747 0.36183 0.16441 0.0
H92 H 0.16218 0.4838 0.15338 0.0
H93 H 0.93616 0.66332 0.26754 0.0
H94 H 0.14995 0.76077 0.2704 0.0
C95 C 0.43686 0.00759 0.58107 0.0
C96 C 0.38207 0.94547 0.58874 0.0
C97 C 0.38941 0.89998 0.57582 0.0
C98 C 0.44767 0.9366 0.56089 0.0
N99 N 0.4788 0.00282 0.56373 0.0
Co100 Co 0.5615 0.07457 0.54378 0.0
N101 N 0.56794 0.00815 0.52278 0.0
C102 C 0.52629 0.9413 0.52479 0.0
C103 C 0.5432 0.90836 0.50801 0.0
C104 C 0.59967 0.95686 0.49468 0.0
C105 C 0.6144 0.01692 0.50427 0.0
N106 N 0.64339 0.14649 0.52357 0.0
C107 C 0.68312 0.1424 0.50508 0.0
C108 C 0.73683 0.20488 0.49699 0.0
C109 C 0.73069 0.24989 0.51067 0.0
C110 C 0.67416 0.2127 0.52641 0.0
N111 N 0.55559 0.14079 0.56499 0.0
C112 C 0.59916 0.20715 0.56395 0.0
C113 C 0.58214 0.23995 0.58078 0.0
C114 C 0.52348 0.19185 0.59307 0.0
C115 C 0.50778 0.13232 0.5828 0.0
N116 N 0.61969 0.06475 0.56757 0.0
C117 C 0.7083 0.04987 0.5978 0.0
C118 C 0.72038 0.11295 0.58976 0.0
C119 C 0.67581 0.11917 0.57491 0.0
C120 C 0.64979 0.99452 0.59105 0.0
C121 C 0.60667 0.00299 0.57617 0.0
N122 N 0.50347 0.08416 0.51998 0.0
C123 C 0.46894 0.15196 0.4973 0.0
C124 C 0.41633 0.09561 0.48794 0.0
C125 C 0.40873 0.03369 0.49485 0.0
C126 C 0.45237 0.0292 0.5106 0.0
C127 C 0.51169 0.14519 0.5131 0.0
H128 H 0.4431 0.98041 0.51515 0.0
H129 H 0.55079 0.18994 0.51965 0.0
H130 H 0.68859 0.16861 0.56926 0.0
H131 H 0.56352 0.9586 0.57164 0.0
C132 C 0.47171 0.91089 0.54268 0.0
C133 C 0.44514 0.06995 0.58972 0.0
C134 C 0.67387 0.08056 0.49547 0.0
C135 C 0.65223 0.23788 0.5455 0.0
H136 H 0.33996 0.93401 0.60175 0.0
H137 H 0.35499 0.84676 0.57652 0.0
H138 H 0.51774 0.85532 0.50583 0.0
H139 H 0.62719 0.94875 0.47971 0.0
H140 H 0.77747 0.21691 0.48313 0.0
H141 H 0.76475 0.30319 0.50985 0.0
H142 H 0.60807 0.29287 0.58324 0.0
H143 H 0.49452 0.19992 0.60747 0.0
H144 H 0.76506 0.15762 0.59429 0.0
H145 H 0.63705 0.94451 0.59721 0.0
H146 H 0.47755 0.20121 0.49237 0.0
H147 H 0.36822 0.98821 0.48859 0.0
C148 C 0.69996 0.63005 0.84098 0.0
C149 C 0.7532 0.62085 0.83438 0.0
C150 C 0.74388 0.56727 0.84886 0.0
C151 C 0.68596 0.54695 0.86355 0.0
N152 N 0.65741 0.58411 0.8593 0.0
Co153 Co 0.57381 0.57263 0.87739 0.0
N154 N 0.56448 0.49858 0.90059 0.0
C155 C 0.6073 0.47543 0.90121 0.0
C156 C 0.59007 0.4266 0.91977 0.0
C157 C 0.53261 0.41774 0.93175 0.0
C158 C 0.5175 0.46133 0.91956 0.0
N159 N 0.48896 0.55974 0.89485 0.0
C160 C 0.44657 0.51391 0.91319 0.0
C161 C 0.38973 0.51862 0.91798 0.0
C162 C 0.39711 0.56994 0.90265 0.0
C163 C 0.45717 0.59302 0.88911 0.0
N164 N 0.58432 0.64826 0.85482 0.0
C165 C 0.54329 0.67365 0.85491 0.0
C166 C 0.56331 0.72586 0.83758 0.0
C167 C 0.62135 0.73536 0.82596 0.0
C168 C 0.63377 0.68846 0.83705 0.0
N169 N 0.51899 0.50678 0.85333 0.0
C170 C 0.43581 0.4105 0.82098 0.0
C171 C 0.43096 0.46684 0.82504 0.0
C172 C 0.47266 0.51382 0.84094 0.0
C173 C 0.48392 0.40375 0.83325 0.0
C174 C 0.52473 0.4521 0.84913 0.0
N175 N 0.62857 0.63846 0.90138 0.0
C176 C 0.65179 0.73305 0.9252 0.0
C177 C 0.71178 0.7393 0.93226 0.0
C178 C 0.72783 0.69222 0.92425 0.0
C179 C 0.6857 0.64244 0.90915 0.0
C180 C 0.61161 0.68312 0.90986 0.0
H181 H 0.70107 0.60841 0.90366 0.0
H182 H 0.56739 0.6822 0.90486 0.0
H183 H 0.46567 0.55502 0.84308 0.0
H184 H 0.56027 0.44393 0.85792 0.0
C185 C 0.66157 0.4985 0.8834 0.0
C186 C 0.69371 0.68495 0.83021 0.0
C187 C 0.45773 0.46506 0.92659 0.0
C188 C 0.48507 0.64594 0.87092 0.0
H189 H 0.79558 0.65078 0.82101 0.0
H190 H 0.77692 0.54725 0.84935 0.0
H191 H 0.61593 0.40016 0.92396 0.0
H192 H 0.50492 0.38282 0.9476 0.0
H193 H 0.34683 0.48791 0.93103 0.0
H194 H 0.36246 0.58786 0.90134 0.0
H195 H 0.53854 0.75361 0.83381 0.0
H196 H 0.6512 0.77281 0.81102 0.0
H197 H 0.39395 0.4743 0.81643 0.0
H198 H 0.49046 0.36153 0.83056 0.0
H199 H 0.63562 0.76675 0.93137 0.0
H200 H 0.77365 0.69454 0.92899 0.0
H201 H 0.00938 0.19668 0.08078 0.0
H202 H 0.18714 0.21902 0.11124 0.0
H203 H 0.19293 0.30597 0.13692 0.0
H204 H 0.14453 0.37225 0.15222 0.0
H205 H 0.9674 0.35044 0.12126 0.0
H206 H 0.96414 0.26659 0.09458 0.0
C207 C 0.04962 0.22081 0.09293 0.0
C208 C 0.09758 0.20105 0.09412 0.0
C209 C 0.0525 0.27065 0.10777 0.0
C210 C 0.14947 0.23308 0.10995 0.0
C211 C 0.15276 0.2828 0.1247 0.0
C212 C 0.10572 0.34989 0.1394 0.0
C213 C 0.05596 0.36755 0.13901 0.0
C214 C 0.10418 0.30159 0.12396 0.0
C215 C 0.00566 0.33717 0.1224 0.0
C216 C 1.00393 0.28936 0.10698 0.0
H217 H 0.87863 0.10261 0.40715 0.0
H218 H 0.90607 0.97929 0.46102 0.0
H219 H 0.8288 0.98661 0.49157 0.0
H220 H 0.74975 0.02433 0.50262 0.0
H221 H 0.71307 0.13832 0.44782 0.0
H222 H 0.79729 0.13888 0.4181 0.0
C223 C 0.86811 0.07808 0.42568 0.0
C224 C 0.8983 0.04081 0.43189 0.0
C225 C 0.8216 0.08057 0.44295 0.0
C226 C 0.88341 0.00823 0.45582 0.0
C227 C 0.83918 0.01233 0.47329 0.0
C228 C 0.76044 0.04931 0.48416 0.0
C229 C 0.72589 0.08175 0.47744 0.0
C230 C 0.80735 0.04764 0.46699 0.0
C231 C 0.73967 0.11362 0.45344 0.0
C232 C 0.78764 0.11377 0.43646 0.0
H233 H 0.90185 0.88085 0.74232 0.0
H234 H 0.92229 0.02499 0.79452 0.0
H235 H 0.84609 0.93565 0.8254 0.0
H236 H 0.76889 0.81665 0.83701 0.0
H237 H 0.73868 0.67223 0.78378 0.0
H238 H 0.82343 0.76067 0.75405 0.0
C239 C 0.8901 0.89242 0.76057 0.0
C240 C 0.91788 0.95944 0.76616 0.0
C241 C 0.84424 0.84059 0.77805 0.0
C242 C 0.90142 0.97383 0.78974 0.0
C243 C 0.85784 0.92277 0.80743 0.0
C244 C 0.78136 0.80473 0.81894 0.0
C245 C 0.74825 0.73813 0.81264 0.0
C246 C 0.82823 0.85604 0.80169 0.0
C247 C 0.76423 0.72313 0.78911 0.0
C248 C 0.81238 0.77373 0.7721 0.0
H249 H 0.02212 0.91734 0.12283 0.0
H250 H 0.13616 0.90109 0.0604 0.0
H251 H 0.13686 0.8087 0.08303 0.0
H252 H 0.10527 0.73234 0.12087 0.0
H253 H 0.99758 0.75374 0.18408 0.0
H254 H 0.9935 0.84361 0.16089 0.0
C255 C 0.0469 0.89341 0.11413 0.0
C256 C 0.07877 0.91594 0.08989 0.0
C257 C 0.04824 0.84116 0.12746 0.0
C258 C 0.11129 0.88481 0.07902 0.0
C259 C 0.11167 0.8319 0.09196 0.0
C260 C 0.08146 0.75722 0.12954 0.0
C261 C 0.05212 0.73692 0.15417 0.0
C262 C 0.08052 0.80977 0.11623 0.0
C263 C 0.0206 0.76878 0.16516 0.0
C264 C 0.01832 0.82011 0.15192 0.0
H265 H 0.1947 0.1263 0.43445 0.0
H266 H 0.19109 0.96844 0.39379 0.0
H267 H 0.28457 0.97771 0.41544 0.0
H268 H 0.36212 0.02452 0.4478 0.0
H269 H 0.3628 0.17725 0.49099 0.0
H270 H 0.27732 0.17718 0.46626 0.0
C271 C 0.21521 0.09479 0.43012 0.0
C272 C 0.18573 0.04653 0.4126 0.0
C273 C 0.26835 0.09916 0.44321 0.0
C274 C 0.21246 0.00559 0.40733 0.0
C275 C 0.26595 0.0108 0.41972 0.0
C276 C 0.34351 0.0577 0.45195 0.0
C277 C 0.36861 0.10023 0.4715 0.0
C278 C 0.29326 0.05625 0.43808 0.0
C279 C 0.3449 0.14413 0.47601 0.0
C280 C 0.29553 0.14379 0.46196 0.0
H281 H 0.21423 0.16165 0.76911 0.0
H282 H 0.2251 0.32031 0.72188 0.0
H283 H 0.31888 0.40267 0.74331 0.0
H284 H 0.39138 0.43061 0.7775 0.0
H285 H 0.3758 0.274 0.82747 0.0
H286 H 0.29192 0.19026 0.80276 0.0
C287 C 0.23818 0.21417 0.76327 0.0
C288 C 0.21292 0.23496 0.74393 0.0
C289 C 0.29098 0.26178 0.77632 0.0
C290 C 0.24363 0.30321 0.73675 0.0
C291 C 0.29713 0.35035 0.74904 0.0
C292 C 0.36959 0.3782 0.78312 0.0
C293 C 0.3896 0.35904 0.80458 0.0
C294 C 0.32004 0.33038 0.76926 0.0
C295 C 0.3619 0.29058 0.81101 0.0
C296 C 0.31341 0.2425 0.79696 0.0
H297 H 0.91127 0.98366 0.64811 0.0
H298 H 0.94838 0.15512 0.6879 0.0
H299 H 0.86363 0.16399 0.66604 0.0
H300 H 0.78075 0.1252 0.63486 0.0
H301 H 0.74588 0.95618 0.59385 0.0
H302 H 0.8268 0.94386 0.61709 0.0
C303 C 0.90042 0.02263 0.65212 0.0
C304 C 0.93632 0.06866 0.66963 0.0
C305 C 0.85186 0.02802 0.63922 0.0
C306 C 0.92174 0.11904 0.6745 0.0
C307 C 0.87323 0.12426 0.66197 0.0
C308 C 0.79107 0.0859 0.63085 0.0
C309 C 0.7569 0.04177 0.61254 0.0
C310 C 0.83844 0.07949 0.6441 0.0
C311 C 0.77045 0.99044 0.60802 0.0
C312 C 0.8172 0.98356 0.62122 0.0
H313 H 0.89017 0.00458 0.98548 0.0
H314 H 0.95083 0.87941 0.02285 0.0
H315 H 0.87596 0.78599 0.99921 0.0
H316 H 0.79187 0.73927 0.96826 0.0
H317 H 0.73679 0.86751 0.92953 0.0
H318 H 0.80976 0.95937 0.95372 0.0
C319 C 0.88706 0.95688 0.98856 0.0
C320 C 0.92613 0.94929 1.00607 0.0
C321 C 0.84436 0.90348 0.97474 0.0
C322 C 0.92162 0.88702 0.0095 0.0
C323 C 0.87862 0.83341 0.996 0.0
C324 C 0.7962 0.7874 0.96486 0.0
C325 C 0.75775 0.79557 0.94713 0.0
C326 C 0.83966 0.84101 0.97856 0.0
C327 C 0.76402 0.8586 0.94339 0.0
C328 C 0.8064 0.91167 0.95709 0.0
H329 H 0.98192 0.88603 0.34795 0.0
H330 H 0.16231 0.04688 0.30926 0.0
H331 H 0.17334 0.96788 0.28365 0.0
H332 H 0.12939 0.8534 0.27109 0.0
H333 H 0.94953 0.69258 0.31017 0.0
H334 H 0.94054 0.77117 0.33654 0.0
C335 C 0.02379 0.9038 0.33397 0.0
C336 C 0.07104 0.97238 0.33048 0.0
C337 C 0.02976 0.85805 0.31923 0.0
C338 C 0.1251 0.99443 0.31234 0.0
C339 C 0.13144 0.94924 0.29765 0.0
C340 C 0.0887 0.83536 0.28558 0.0
C341 C 0.03998 0.76699 0.28843 0.0
C342 C 0.0838 0.88095 0.30079 0.0
C343 C 0.98717 0.74491 0.30719 0.0
C344 C 0.98212 0.78984 0.3224 0.0
H345 H 0.21435 0.1135 0.63556 0.0
H346 H 0.21725 0.99095 0.69671 0.0
H347 H 0.30707 0.98371 0.67383 0.0
H348 H 0.38658 0.01393 0.63646 0.0
H349 H 0.3788 0.13111 0.57459 0.0
H350 H 0.28977 0.13932 0.59768 0.0
C351 C 0.23464 0.08521 0.6439 0.0
C352 C 0.20929 0.05311 0.6679 0.0
C353 C 0.28558 0.08041 0.63046 0.0
C354 C 0.23576 0.01612 0.67829 0.0
C355 C 0.28724 0.01204 0.66521 0.0
C356 C 0.36467 0.04052 0.62802 0.0
C357 C 0.38875 0.07155 0.60382 0.0
C358 C 0.31266 0.04406 0.64129 0.0
C359 C 0.36079 0.10672 0.59316 0.0
C360 C 0.30997 0.1114 0.60636 0.0
H361 H 0.23959 0.31996 0.01771 0.0
H362 H 0.20742 0.14603 0.981 0.0
H363 H 0.29903 0.21646 0.94934 0.0
H364 H 0.38337 0.32887 0.93051 0.0
H365 H 0.42233 0.50136 0.96973 0.0
H366 H 0.33319 0.43055 1.00198 0.0
C367 C 0.25325 0.29757 1.0029 0.0
C368 C 0.21657 0.22806 1.00151 0.0
C369 C 0.30684 0.33825 0.98514 0.0
C370 C 0.23512 0.19943 0.98246 0.0
C371 C 0.28723 0.23972 0.9643 0.0
C372 C 0.37292 0.35064 0.94636 0.0
C373 C 0.40853 0.42032 0.94756 0.0
C374 C 0.32277 0.30933 0.96522 0.0
C375 C 0.39487 0.44795 0.96826 0.0
C376 C 0.34399 0.4075 0.98668 0.0
H377 H 1.00398 0.18308 0.30819 0.0
H378 H 0.10961 0.30955 0.36621 0.0
H379 H 0.11532 0.40505 0.34323 0.0
H380 H 0.09024 0.45275 0.30629 0.0
H381 H 0.99202 0.32705 0.24718 0.0
H382 H 0.98284 0.23105 0.27092 0.0
C383 C 0.02796 0.23147 0.31589 0.0
C384 C 0.05586 0.23905 0.339 0.0
C385 C 0.03243 0.28634 0.3023 0.0
C386 C 0.08764 0.30233 0.3485 0.0
C387 C 0.09091 0.35695 0.33535 0.0
C388 C 0.06743 0.40437 0.2986 0.0
C389 C 0.04205 0.39687 0.27499 0.0
C390 C 0.06367 0.34964 0.31217 0.0
C391 C 0.0119 0.33387 0.2653 0.0
C392 C 0.00669 0.27908 0.27886 0.0
loop_
_geom_bond_atom_site_label_1
_geom_bond_atom_site_label_2
_geom_bond_distance
_geom_bond_site_symmetry_2
_ccdc_geom_bond_type
Co0 O1 2.216 1_545 S
Co0 O2 2.091 . S
Co0 O4 2.004 . S
Co0 O10 2.025 . S
Co0 O12 2.137 . S
Co0 O13 2.244 . S
O1 Co0 2.216 1_565 S
O1 C8 1.247 . S
O2 Co0 2.091 . S
O2 C8 1.261 1_545 S
C3 O12 1.247 . S
C3 O13 1.272 . S
O4 Co0 2.004 . S
O4 C9 1.259 . S
Co5 O6 2.061 1_554 S
Co5 O11 2.052 1_455 S
Co5 O13 2.135 . S
O6 Co5 2.061 1_556 S
O6 C9 1.235 1_556 S
C7 O10 1.242 1_665 S
C7 O11 1.241 1_565 S
C8 O1 1.247 . S
C8 O2 1.261 1_565 S
C9 O4 1.259 . S
C9 O6 1.235 1_554 S
O10 Co0 2.025 . S
O10 C7 1.242 1_445 S
O11 Co5 2.052 1_655 S
O11 C7 1.241 1_545 S
O12 Co0 2.137 . S
O12 C3 1.247 . S
O13 Co0 2.244 . S
O13 C3 1.272 . S
O13 Co5 2.135 . S
Co14 O15 2.216 . S
Co14 O16 2.091 . S
Co14 O18 2.004 . S
Co14 O24 2.021 . S
Co14 O26 2.137 . S
Co14 O27 2.244 . S
O15 Co14 2.216 . S
O15 C22 1.247 . S
O16 Co14 2.091 . S
O16 C22 1.261 . S
C17 O26 1.247 . S
C17 O27 1.272 . S
O18 Co14 2.004 . S
O18 C23 1.259 . S
Co19 O20 2.061 1_665 S
Co19 O25 2.052 1_565 S
Co19 O27 2.135 1_665 S
O20 Co19 2.061 1_445 S
O20 C23 1.235 . S
C21 O24 1.238 1_655 S
C21 O25 1.241 . S
C22 O15 1.247 . S
C22 O16 1.261 . S
C23 O18 1.259 . S
C23 O20 1.235 . S
O24 Co14 2.021 . S
O24 C21 1.238 1_455 S
O25 Co19 2.052 1_545 S
O25 C21 1.241 . S
O26 Co14 2.137 . S
O26 C17 1.247 . S
O27 Co14 2.244 . S
O27 C17 1.272 . S
O27 Co19 2.135 1_445 S
Co28 O29 2.216 . S
Co28 O30 2.091 1_545 S
Co28 O32 2.004 1_545 S
Co28 O38 2.021 . S
Co28 O40 2.137 . S
Co28 O41 2.244 . S
O29 Co28 2.216 . S
O29 C36 1.247 . S
O30 Co28 2.091 1_565 S
O30 C36 1.261 1_565 S
C31 O40 1.247 1_655 S
C31 O41 1.272 1_655 S
O32 Co28 2.004 1_565 S
O32 C37 1.259 1_455 S
Co33 O34 2.061 . S
Co33 O39 2.052 1_655 S
Co33 O41 2.135 1_655 S
O34 Co33 2.061 . S
O34 C37 1.235 1_545 S
C35 O38 1.238 . S
C35 O39 1.241 . S
C36 O29 1.247 . S
C36 O30 1.261 1_545 S
C37 O32 1.259 1_655 S
C37 O34 1.235 1_565 S
O38 Co28 2.021 . S
O38 C35 1.238 . S
O39 Co33 2.052 1_455 S
O39 C35 1.241 . S
O40 Co28 2.137 . S
O40 C31 1.247 1_455 S
O41 Co28 2.244 . S
O41 C31 1.272 1_455 S
O41 Co33 2.135 1_455 S
C42 C43 1.443 . S
C42 N46 1.376 . S
C42 C80 1.389 . S
C43 C42 1.443 . S
C43 C44 1.340 . S
C43 H83 0.951 . S
C44 C43 1.340 . S
C44 C45 1.439 . S
C44 H84 0.950 . S
C45 C44 1.439 . S
C45 N46 1.374 . S
C45 C79 1.395 . S
N46 C42 1.376 . S
N46 C45 1.374 . S
N46 Co47 2.008 . S
Co47 N46 2.008 . S
Co47 N48 1.995 . S
Co47 N53 2.008 1_455 S
Co47 N58 1.995 1_455 S
Co47 N63 2.282 . S
Co47 N69 2.282 . S
N48 Co47 1.995 . S
N48 C49 1.376 . S
N48 C52 1.383 . S
C49 N48 1.376 . S
C49 C50 1.446 . S
C49 C79 1.391 . S
C50 C49 1.446 . S
C50 C51 1.339 . S
C50 H85 0.949 . S
C51 C50 1.339 . S
C51 C52 1.439 . S
C51 H86 0.950 . S
C52 N48 1.383 . S
C52 C51 1.439 . S
C52 C81 1.392 . S
N53 Co47 2.008 1_655 S
N53 C54 1.376 . S
N53 C57 1.374 . S
C54 N53 1.376 . S
C54 C55 1.443 . S
C54 C81 1.389 1_655 S
C55 C54 1.443 . S
C55 C56 1.340 . S
C55 H87 0.951 . S
C56 C55 1.340 . S
C56 C57 1.439 . S
C56 H88 0.950 . S
C57 N53 1.374 . S
C57 C56 1.439 . S
C57 C82 1.395 . S
N58 Co47 1.995 1_655 S
N58 C59 1.376 . S
N58 C62 1.383 . S
C59 N58 1.376 . S
C59 C60 1.446 . S
C59 C82 1.391 . S
C60 C59 1.446 . S
C60 C61 1.339 . S
C60 H89 0.949 . S
C61 C60 1.339 . S
C61 C62 1.439 . S
C61 H90 0.950 . S
C62 N58 1.383 . S
C62 C61 1.439 . S
C62 C80 1.392 1_655 S
N63 Co47 2.282 . S
N63 C66 1.332 1_455 S
N63 C68 1.332 . S
C64 C65 1.386 1_455 S
C64 C67 1.388 . S
C65 C64 1.386 1_655 S
C65 C66 1.382 . S
C65 H91 0.950 . S
C66 N63 1.332 1_655 S
C66 C65 1.382 . S
C66 H77 0.952 . S
C67 C64 1.388 . S
C67 C68 1.382 . S
C67 H92 0.950 . S
C68 N63 1.332 . S
C68 C67 1.382 . S
C68 H78 0.948 . S
N69 Co47 2.282 . S
N69 C73 1.332 . S
N69 C74 1.332 1_455 S
C70 C71 1.388 1_655 S
C70 C74 1.382 . S
C70 H93 0.950 . S
C71 C70 1.388 1_455 S
C71 C72 1.386 . S
C72 C71 1.386 . S
C72 C73 1.382 . S
C72 H94 0.950 . S
C73 N69 1.332 . S
C73 C72 1.382 . S
C73 H75 0.952 . S
C74 N69 1.332 1_655 S
C74 C70 1.382 . S
C74 H76 0.948 . S
H75 C73 0.952 . S
H76 C74 0.948 . S
H77 C66 0.952 . S
H78 C68 0.948 . S
C79 C45 1.395 . S
C79 C49 1.391 . S
C80 C42 1.389 . S
C80 C62 1.392 1_455 S
C81 C52 1.392 . S
C81 C54 1.389 1_455 S
C82 C57 1.395 . S
C82 C59 1.391 . S
H83 C43 0.951 . S
H84 C44 0.950 . S
H85 C50 0.949 . S
H86 C51 0.950 . S
H87 C55 0.951 . S
H88 C56 0.950 . S
H89 C60 0.949 . S
H90 C61 0.950 . S
H91 C65 0.950 . S
H92 C67 0.950 . S
H93 C70 0.950 . S
H94 C72 0.950 . S
C95 C96 1.443 1_545 S
C95 N99 1.376 . S
C95 C133 1.389 . S
C96 C95 1.443 1_565 S
C96 C97 1.340 . S
C96 H136 0.951 . S
C97 C96 1.340 . S
C97 C98 1.439 . S
C97 H137 0.950 . S
C98 C97 1.439 . S
C98 N99 1.374 1_565 S
C98 C132 1.395 . S
N99 C95 1.376 . S
N99 C98 1.374 1_545 S
N99 Co100 2.008 . S
Co100 N99 2.008 . S
Co100 N101 1.995 . S
Co100 N106 2.008 . S
Co100 N111 1.995 . S
Co100 N116 2.282 . S
Co100 N122 2.282 . S
N101 Co100 1.995 . S
N101 C102 1.376 1_545 S
N101 C105 1.383 . S
C102 N101 1.376 1_565 S
C102 C103 1.446 . S
C102 C132 1.391 . S
C103 C102 1.446 . S
C103 C104 1.339 . S
C103 H138 0.949 . S
C104 C103 1.339 . S
C104 C105 1.439 1_565 S
C104 H139 0.950 . S
C105 N101 1.383 . S
C105 C104 1.439 1_545 S
C105 C134 1.392 . S
N106 Co100 2.008 . S
N106 C107 1.376 . S
N106 C110 1.374 . S
C107 N106 1.376 . S
C107 C108 1.443 . S
C107 C134 1.389 . S
C108 C107 1.443 . S
C108 C109 1.340 . S
C108 H140 0.951 . S
C109 C108 1.340 . S
C109 C110 1.439 . S
C109 H141 0.950 . S
C110 N106 1.374 . S
C110 C109 1.439 . S
C110 C135 1.395 . S
N111 Co100 1.995 . S
N111 C112 1.376 . S
N111 C115 1.383 . S
C112 N111 1.376 . S
C112 C113 1.446 . S
C112 C135 1.391 . S
C113 C112 1.446 . S
C113 C114 1.339 . S
C113 H142 0.949 . S
C114 C113 1.339 . S
C114 C115 1.439 . S
C114 H143 0.950 . S
C115 N111 1.383 . S
C115 C114 1.439 . S
C115 C133 1.392 . S
N116 Co100 2.282 . S
N116 C119 1.332 . S
N116 C121 1.332 . S
C117 C118 1.386 . S
C117 C120 1.388 . S
C118 C117 1.386 . S
C118 C119 1.382 . S
C118 H144 0.950 . S
C119 N116 1.332 . S
C119 C118 1.382 . S
C119 H130 0.952 . S
C120 C117 1.388 . S
C120 C121 1.382 . S
C120 H145 0.950 1_545 S
C121 N116 1.332 . S
C121 C120 1.382 . S
C121 H131 0.948 1_545 S
N122 Co100 2.282 . S
N122 C126 1.332 . S
N122 C127 1.332 . S
C123 C124 1.388 . S
C123 C127 1.382 . S
C123 H146 0.950 . S
C124 C123 1.388 . S
C124 C125 1.386 . S
C125 C124 1.386 . S
C125 C126 1.382 . S
C125 H147 0.950 1_545 S
C126 N122 1.332 . S
C126 C125 1.382 . S
C126 H128 0.952 1_545 S
C127 N122 1.332 . S
C127 C123 1.382 . S
C127 H129 0.948 . S
H128 C126 0.952 1_565 S
H129 C127 0.948 . S
H130 C119 0.952 . S
H131 C121 0.948 1_565 S
C132 C98 1.395 . S
C132 C102 1.391 . S
C133 C95 1.389 . S
C133 C115 1.392 . S
C134 C105 1.392 . S
C134 C107 1.389 . S
C135 C110 1.395 . S
C135 C112 1.391 . S
H136 C96 0.951 . S
H137 C97 0.950 . S
H138 C103 0.949 . S
H139 C104 0.950 . S
H140 C108 0.951 . S
H141 C109 0.950 . S
H142 C113 0.949 . S
H143 C114 0.950 . S
H144 C118 0.950 . S
H145 C120 0.950 1_565 S
H146 C123 0.950 . S
H147 C125 0.950 1_565 S
C148 C149 1.443 . S
C148 N152 1.376 . S
C148 C186 1.389 . S
C149 C148 1.443 . S
C149 C150 1.340 . S
C149 H189 0.951 . S
C150 C149 1.340 . S
C150 C151 1.439 . S
C150 H190 0.950 . S
C151 C150 1.439 . S
C151 N152 1.374 . S
C151 C185 1.395 . S
N152 C148 1.376 . S
N152 C151 1.374 . S
N152 Co153 2.008 . S
Co153 N152 2.008 . S
Co153 N154 1.995 . S
Co153 N159 2.008 . S
Co153 N164 1.995 . S
Co153 N169 2.282 . S
Co153 N175 2.282 . S
N154 Co153 1.995 . S
N154 C155 1.376 . S
N154 C158 1.383 . S
C155 N154 1.376 . S
C155 C156 1.446 . S
C155 C185 1.391 . S
C156 C155 1.446 . S
C156 C157 1.339 . S
C156 H191 0.949 . S
C157 C156 1.339 . S
C157 C158 1.439 . S
C157 H192 0.950 . S
C158 N154 1.383 . S
C158 C157 1.439 . S
C158 C187 1.392 . S
N159 Co153 2.008 . S
N159 C160 1.376 . S
N159 C163 1.374 . S
C160 N159 1.376 . S
C160 C161 1.443 . S
C160 C187 1.389 . S
C161 C160 1.443 . S
C161 C162 1.340 . S
C161 H193 0.951 . S
C162 C161 1.340 . S
C162 C163 1.439 . S
C162 H194 0.950 . S
C163 N159 1.374 . S
C163 C162 1.439 . S
C163 C188 1.395 . S
N164 Co153 1.995 . S
N164 C165 1.376 . S
N164 C168 1.383 . S
C165 N164 1.376 . S
C165 C166 1.446 . S
C165 C188 1.391 . S
C166 C165 1.446 . S
C166 C167 1.339 . S
C166 H195 0.949 . S
C167 C166 1.339 . S
C167 C168 1.439 . S
C167 H196 0.950 . S
C168 N164 1.383 . S
C168 C167 1.439 . S
C168 C186 1.392 . S
N169 Co153 2.282 . S
N169 C172 1.332 . S
N169 C174 1.332 . S
C170 C171 1.386 . S
C170 C173 1.388 . S
C171 C170 1.386 . S
C171 C172 1.382 . S
C171 H197 0.950 . S
C172 N169 1.332 . S
C172 C171 1.382 . S
C172 H183 0.952 . S
C173 C170 1.388 . S
C173 C174 1.382 . S
C173 H198 0.950 . S
C174 N169 1.332 . S
C174 C173 1.382 . S
C174 H184 0.948 . S
N175 Co153 2.282 . S
N175 C179 1.332 . S
N175 C180 1.332 . S
C176 C177 1.388 . S
C176 C180 1.382 . S
C176 H199 0.950 . S
C177 C176 1.388 . S
C177 C178 1.386 . S
C178 C177 1.386 . S
C178 C179 1.382 . S
C178 H200 0.950 . S
C179 N175 1.332 . S
C179 C178 1.382 . S
C179 H181 0.952 . S
C180 N175 1.332 . S
C180 C176 1.382 . S
C180 H182 0.948 . S
H181 C179 0.952 . S
H182 C180 0.948 . S
H183 C172 0.952 . S
H184 C174 0.948 . S
C185 C151 1.395 . S
C185 C155 1.391 . S
C186 C148 1.389 . S
C186 C168 1.392 . S
C187 C158 1.392 . S
C187 C160 1.389 . S
C188 C163 1.395 . S
C188 C165 1.391 . S
H189 C149 0.951 . S
H190 C150 0.950 . S
H191 C156 0.949 . S
H192 C157 0.950 . S
H193 C161 0.951 . S
H194 C162 0.950 . S
H195 C166 0.949 . S
H196 C167 0.950 . S
H197 C171 0.950 . S
H198 C173 0.950 . S
H199 C176 0.950 . S
H200 C178 0.950 . S
H201 C207 0.930 . S
H202 C210 0.930 . S
H203 C211 0.930 . S
H204 C212 0.930 . S
H205 C215 0.930 . S
H206 C216 0.930 . S
C207 H201 0.930 . S
C207 C208 1.355 . S
C207 C209 1.415 . S
C208 C207 1.355 . S
C208 C210 1.419 . S
C209 C207 1.415 . S
C209 C214 1.425 . S
C209 C216 1.409 . S
C210 H202 0.930 . S
C210 C208 1.419 . S
C210 C211 1.362 . S
C211 H203 0.930 . S
C211 C210 1.362 . S
C211 C214 1.409 . S
C212 H204 0.930 . S
C212 C213 1.355 . S
C212 C214 1.415 . S
C213 C212 1.355 . S
C213 C215 1.419 . S
C214 C209 1.425 . S
C214 C211 1.409 . S
C214 C212 1.415 . S
C215 H205 0.930 . S
C215 C213 1.419 . S
C215 C216 1.362 . S
C216 H206 0.930 . S
C216 C209 1.409 . S
C216 C215 1.362 . S
H217 C223 0.930 . S
H218 C226 0.930 . S
H219 C227 0.930 . S
H220 C228 0.930 . S
H221 C231 0.930 . S
H222 C232 0.930 . S
C223 H217 0.930 . S
C223 C224 1.355 . S
C223 C225 1.415 . S
C224 C223 1.355 . S
C224 C226 1.419 . S
C225 C223 1.415 . S
C225 C230 1.425 . S
C225 C232 1.409 . S
C226 H218 0.930 . S
C226 C224 1.419 . S
C226 C227 1.362 . S
C227 H219 0.930 . S
C227 C226 1.362 . S
C227 C230 1.409 . S
C228 H220 0.930 . S
C228 C229 1.355 . S
C228 C230 1.415 . S
C229 C228 1.355 . S
C229 C231 1.419 . S
C230 C225 1.425 . S
C230 C227 1.409 . S
C230 C228 1.415 . S
C231 H221 0.930 . S
C231 C229 1.419 . S
C231 C232 1.362 . S
C232 H222 0.930 . S
C232 C225 1.409 . S
C232 C231 1.362 . S
H233 C239 0.930 . S
H234 C242 0.930 . S
H235 C243 0.930 . S
H236 C244 0.930 . S
H237 C247 0.930 . S
H238 C248 0.930 . S
C239 H233 0.930 . S
C239 C240 1.355 . S
C239 C241 1.415 . S
C240 C239 1.355 . S
C240 C242 1.419 . S
C241 C239 1.415 . S
C241 C246 1.425 . S
C241 C248 1.409 . S
C242 H234 0.930 . S
C242 C240 1.419 . S
C242 C243 1.362 . S
C243 H235 0.930 . S
C243 C242 1.362 . S
C243 C246 1.409 . S
C244 H236 0.930 . S
C244 C245 1.355 . S
C244 C246 1.415 . S
C245 C244 1.355 . S
C245 C247 1.419 . S
C246 C241 1.425 . S
C246 C243 1.409 . S
C246 C244 1.415 . S
C247 H237 0.930 . S
C247 C245 1.419 . S
C247 C248 1.362 . S
C248 H238 0.930 . S
C248 C241 1.409 . S
C248 C247 1.362 . S
H249 C255 0.930 . S
H250 C258 0.930 . S
H251 C259 0.930 . S
H252 C260 0.930 . S
H253 C263 0.930 . S
H254 C264 0.930 . S
C255 H249 0.930 . S
C255 C256 1.355 . S
C255 C257 1.415 . S
C256 C255 1.355 . S
C256 C258 1.419 . S
C257 C255 1.415 . S
C257 C262 1.425 . S
C257 C264 1.409 1_455 S
C258 H250 0.930 . S
C258 C256 1.419 . S
C258 C259 1.362 . S
C259 H251 0.930 . S
C259 C258 1.362 . S
C259 C262 1.409 . S
C260 H252 0.930 . S
C260 C261 1.355 . S
C260 C262 1.415 . S
C261 C260 1.355 . S
C261 C263 1.419 1_455 S
C262 C257 1.425 . S
C262 C259 1.409 . S
C262 C260 1.415 . S
C263 H253 0.930 . S
C263 C261 1.419 1_655 S
C263 C264 1.362 . S
C264 H254 0.930 . S
C264 C257 1.409 1_655 S
C264 C263 1.362 . S
H265 C271 0.930 . S
H266 C274 0.930 . S
H267 C275 0.930 . S
H268 C276 0.930 . S
H269 C279 0.930 . S
H270 C280 0.930 . S
C271 H265 0.930 . S
C271 C272 1.355 . S
C271 C273 1.415 . S
C272 C271 1.355 . S
C272 C274 1.419 . S
C273 C271 1.415 . S
C273 C278 1.425 . S
C273 C280 1.409 . S
C274 H266 0.930 . S
C274 C272 1.419 . S
C274 C275 1.362 . S
C275 H267 0.930 . S
C275 C274 1.362 . S
C275 C278 1.409 . S
C276 H268 0.930 . S
C276 C277 1.355 . S
C276 C278 1.415 . S
C277 C276 1.355 . S
C277 C279 1.419 . S
C278 C273 1.425 . S
C278 C275 1.409 . S
C278 C276 1.415 . S
C279 H269 0.930 . S
C279 C277 1.419 . S
C279 C280 1.362 . S
C280 H270 0.930 . S
C280 C273 1.409 . S
C280 C279 1.362 . S
H281 C287 0.930 . S
H282 C290 0.930 . S
H283 C291 0.930 . S
H284 C292 0.930 . S
H285 C295 0.930 . S
H286 C296 0.930 . S
C287 H281 0.930 . S
C287 C288 1.355 . S
C287 C289 1.415 . S
C288 C287 1.355 . S
C288 C290 1.419 . S
C289 C287 1.415 . S
C289 C294 1.425 . S
C289 C296 1.409 . S
C290 H282 0.930 . S
C290 C288 1.419 . S
C290 C291 1.362 . S
C291 H283 0.930 . S
C291 C290 1.362 . S
C291 C294 1.409 . S
C292 H284 0.930 . S
C292 C293 1.355 . S
C292 C294 1.415 . S
C293 C292 1.355 . S
C293 C295 1.419 . S
C294 C289 1.425 . S
C294 C291 1.409 . S
C294 C292 1.415 . S
C295 H285 0.930 . S
C295 C293 1.419 . S
C295 C296 1.362 . S
C296 H286 0.930 . S
C296 C289 1.409 . S
C296 C295 1.362 . S
H297 C303 0.930 . S
H298 C306 0.930 . S
H299 C307 0.930 . S
H300 C308 0.930 . S
H301 C311 0.930 . S
H302 C312 0.930 . S
C303 H297 0.930 . S
C303 C304 1.355 . S
C303 C305 1.415 . S
C304 C303 1.355 . S
C304 C306 1.419 . S
C305 C303 1.415 . S
C305 C310 1.425 . S
C305 C312 1.409 . S
C306 H298 0.930 . S
C306 C304 1.419 . S
C306 C307 1.362 . S
C307 H299 0.930 . S
C307 C306 1.362 . S
C307 C310 1.409 . S
C308 H300 0.930 . S
C308 C309 1.355 . S
C308 C310 1.415 . S
C309 C308 1.355 . S
C309 C311 1.419 . S
C310 C305 1.425 . S
C310 C307 1.409 . S
C310 C308 1.415 . S
C311 H301 0.930 . S
C311 C309 1.419 . S
C311 C312 1.362 . S
C312 H302 0.930 . S
C312 C305 1.409 . S
C312 C311 1.362 . S
H313 C319 0.930 . S
H314 C322 0.930 . S
H315 C323 0.930 1_554 S
H316 C324 0.930 . S
H317 C327 0.930 . S
H318 C328 0.930 . S
C319 H313 0.930 . S
C319 C320 1.355 . S
C319 C321 1.415 . S
C320 C319 1.355 . S
C320 C322 1.419 1_556 S
C321 C319 1.415 . S
C321 C326 1.425 . S
C321 C328 1.409 . S
C322 H314 0.930 . S
C322 C320 1.419 1_554 S
C322 C323 1.362 1_554 S
C323 H315 0.930 1_556 S
C323 C322 1.362 1_556 S
C323 C326 1.409 . S
C324 H316 0.930 . S
C324 C325 1.355 . S
C324 C326 1.415 . S
C325 C324 1.355 . S
C325 C327 1.419 . S
C326 C321 1.425 . S
C326 C323 1.409 . S
C326 C324 1.415 . S
C327 H317 0.930 . S
C327 C325 1.419 . S
C327 C328 1.362 . S
C328 H318 0.930 . S
C328 C321 1.409 . S
C328 C327 1.362 . S
H329 C335 0.930 1_655 S
H330 C338 0.930 1_545 S
H331 C339 0.930 . S
H332 C340 0.930 . S
H333 C343 0.930 . S
H334 C344 0.930 . S
C335 H329 0.930 1_455 S
C335 C336 1.355 . S
C335 C337 1.415 . S
C336 C335 1.355 . S
C336 C338 1.419 . S
C337 C335 1.415 . S
C337 C342 1.425 . S
C337 C344 1.409 1_455 S
C338 H330 0.930 1_565 S
C338 C336 1.419 . S
C338 C339 1.362 . S
C339 H331 0.930 . S
C339 C338 1.362 . S
C339 C342 1.409 . S
C340 H332 0.930 . S
C340 C341 1.355 . S
C340 C342 1.415 . S
C341 C340 1.355 . S
C341 C343 1.419 1_455 S
C342 C337 1.425 . S
C342 C339 1.409 . S
C342 C340 1.415 . S
C343 H333 0.930 . S
C343 C341 1.419 1_655 S
C343 C344 1.362 . S
C344 H334 0.930 . S
C344 C337 1.409 1_655 S
C344 C343 1.362 . S
H345 C351 0.930 . S
H346 C354 0.930 . S
H347 C355 0.930 . S
H348 C356 0.930 . S
H349 C359 0.930 . S
H350 C360 0.930 . S
C351 H345 0.930 . S
C351 C352 1.355 . S
C351 C353 1.415 . S
C352 C351 1.355 . S
C352 C354 1.419 . S
C353 C351 1.415 . S
C353 C358 1.425 . S
C353 C360 1.409 . S
C354 H346 0.930 . S
C354 C352 1.419 . S
C354 C355 1.362 . S
C355 H347 0.930 . S
C355 C354 1.362 . S
C355 C358 1.409 . S
C356 H348 0.930 . S
C356 C357 1.355 . S
C356 C358 1.415 . S
C357 C356 1.355 . S
C357 C359 1.419 . S
C358 C353 1.425 . S
C358 C355 1.409 . S
C358 C356 1.415 . S
C359 H349 0.930 . S
C359 C357 1.419 . S
C359 C360 1.362 . S
C360 H350 0.930 . S
C360 C353 1.409 . S
C360 C359 1.362 . S
H361 C367 0.930 1_554 S
H362 C370 0.930 . S
H363 C371 0.930 . S
H364 C372 0.930 . S
H365 C375 0.930 . S
H366 C376 0.930 . S
C367 H361 0.930 1_556 S
C367 C368 1.355 . S
C367 C369 1.415 . S
C368 C367 1.355 . S
C368 C370 1.419 . S
C369 C367 1.415 . S
C369 C374 1.425 . S
C369 C376 1.409 . S
C370 H362 0.930 . S
C370 C368 1.419 . S
C370 C371 1.362 . S
C371 H363 0.930 . S
C371 C370 1.362 . S
C371 C374 1.409 . S
C372 H364 0.930 . S
C372 C373 1.355 . S
C372 C374 1.415 . S
C373 C372 1.355 . S
C373 C375 1.419 . S
C374 C369 1.425 . S
C374 C371 1.409 . S
C374 C372 1.415 . S
C375 H365 0.930 . S
C375 C373 1.419 . S
C375 C376 1.362 . S
C376 H366 0.930 . S
C376 C369 1.409 . S
C376 C375 1.362 . S
H377 C383 0.930 . S
H378 C386 0.930 . S
H379 C387 0.930 . S
H380 C388 0.930 . S
H381 C391 0.930 . S
H382 C392 0.930 . S
C383 H377 0.930 . S
C383 C384 1.355 . S
C383 C385 1.415 . S
C384 C383 1.355 . S
C384 C386 1.419 . S
C385 C383 1.415 . S
C385 C390 1.425 . S
C385 C392 1.409 . S
C386 H378 0.930 . S
C386 C384 1.419 . S
C386 C387 1.362 . S
C387 H379 0.930 . S
C387 C386 1.362 . S
C387 C390 1.409 . S
C388 H380 0.930 . S
C388 C389 1.355 . S
C388 C390 1.415 . S
C389 C388 1.355 . S
C389 C391 1.419 . S
C390 C385 1.425 . S
C390 C387 1.409 . S
C390 C388 1.415 . S
C391 H381 0.930 . S
C391 C389 1.419 . S
C391 C392 1.362 . S
C392 H382 0.930 . S
C392 C385 1.409 . S
C392 C391 1.362 . S
C213 C64 1.488 . S
C208 C3 1.482 . S
C224 C21 1.497 . S
C229 C134 1.513 . S
C240 C37 1.458 . S
C245 C186 1.496 . S
C256 C8 1.499 . S
C261 C80 1.504 . S
C277 C124 1.503 . S
C272 C23 1.483 . S
C288 C35 1.458 . S
C293 C170 1.493 . S
C309 C117 1.489 . S
C304 C31 1.489 . S
C320 C7 1.485 1_556 S
C325 C177 1.500 . S
C341 C71 1.489 . S
C336 C17 1.480 1_565 S
C357 C133 1.477 . S
C352 C36 1.472 . S
C373 C187 1.494 . S
C368 C9 1.480 1_556 S
C384 C22 1.500 . S
C389 C81 1.504 . S
