# Generated by pormake.
# Topology apo, (3,6)-cn, num edge types: 1
# Building blocks:
#     Node 0, Type 0, BuildingBlock: WUSLED_clean_sbu_0, # of connection points: 3
#     Node 1, Type 0, BuildingBlock: WUSLED_clean_sbu_0, # of connection points: 3
#     Node 2, Type 0, BuildingBlock: WUSLED_clean_sbu_0, # of connection points: 3
#     Node 3, Type 0, BuildingBlock: WUSLED_clean_sbu_0, # of connection points: 3
#     Node 4, Type 0, BuildingBlock: WUSLED_clean_sbu_0, # of connection points: 3
#     Node 5, Type 0, BuildingBlock: WUSLED_clean_sbu_0, # of connection points: 3
#     Node 6, Type 0, BuildingBlock: WUSLED_clean_sbu_0, # of connection points: 3
#     Node 7, Type 0, BuildingBlock: WUSLED_clean_sbu_0, # of connection points: 3
#     Node 8, Type 1, BuildingBlock: MIDCAF_clean_sbu_0, # of connection points: 6
#     Node 9, Type 1, BuildingBlock: MIDCAF_clean_sbu_0, # of connection points: 6
#     Node 10, Type 1, BuildingBlock: MIDCAF_clean_sbu_0, # of connection points: 6
#     Node 11, Type 1, BuildingBlock: MIDCAF_clean_sbu_0, # of connection points: 6
#     Edge 12, Type (0, 1), BuildingBlock: ZUJKAS_clean_linker_0, # of connection points: 2
#     Edge 13, Type (0, 1), BuildingBlock: ZUJKAS_clean_linker_0, # of connection points: 2
#     Edge 14, Type (0, 1), BuildingBlock: ZUJKAS_clean_linker_0, # of connection points: 2
#     Edge 15, Type (0, 1), BuildingBlock: ZUJKAS_clean_linker_0, # of connection points: 2
#     Edge 16, Type (0, 1), BuildingBlock: ZUJKAS_clean_linker_0, # of connection points: 2
#     Edge 17, Type (0, 1), BuildingBlock: ZUJKAS_clean_linker_0, # of connection points: 2
#     Edge 18, Type (0, 1), BuildingBlock: ZUJKAS_clean_linker_0, # of connection points: 2
#     Edge 19, Type (0, 1), BuildingBlock: ZUJKAS_clean_linker_0, # of connection points: 2
#     Edge 20, Type (0, 1), BuildingBlock: ZUJKAS_clean_linker_0, # of connection points: 2
#     Edge 21, Type (0, 1), BuildingBlock: ZUJKAS_clean_linker_0, # of connection points: 2
#     Edge 22, Type (0, 1), BuildingBlock: ZUJKAS_clean_linker_0, # of connection points: 2
#     Edge 23, Type (0, 1), BuildingBlock: ZUJKAS_clean_linker_0, # of connection points: 2
#     Edge 24, Type (0, 1), BuildingBlock: ZUJKAS_clean_linker_0, # of connection points: 2
#     Edge 25, Type (0, 1), BuildingBlock: ZUJKAS_clean_linker_0, # of connection points: 2
#     Edge 26, Type (0, 1), BuildingBlock: ZUJKAS_clean_linker_0, # of connection points: 2
#     Edge 27, Type (0, 1), BuildingBlock: ZUJKAS_clean_linker_0, # of connection points: 2
#     Edge 28, Type (0, 1), BuildingBlock: ZUJKAS_clean_linker_0, # of connection points: 2
#     Edge 29, Type (0, 1), BuildingBlock: ZUJKAS_clean_linker_0, # of connection points: 2
#     Edge 30, Type (0, 1), BuildingBlock: ZUJKAS_clean_linker_0, # of connection points: 2
#     Edge 31, Type (0, 1), BuildingBlock: ZUJKAS_clean_linker_0, # of connection points: 2
#     Edge 32, Type (0, 1), BuildingBlock: ZUJKAS_clean_linker_0, # of connection points: 2
#     Edge 33, Type (0, 1), BuildingBlock: ZUJKAS_clean_linker_0, # of connection points: 2
#     Edge 34, Type (0, 1), BuildingBlock: ZUJKAS_clean_linker_0, # of connection points: 2
#     Edge 35, Type (0, 1), BuildingBlock: ZUJKAS_clean_linker_0, # of connection points: 2
# Relax obj value: 0.082
# Max RMSD: 0.098
# Mean RMSD: 0.087
data_MOF--net-apo--node1-WUSLED_clean_sbu_0--node2-MIDCAF_clean_sbu_0--edge1-ZUJKAS_clean_linker_0
_symmetry_space_group_name_H-M    P1
_symmetry_Int_Tables_number       1
_symmetry_cell_setting            triclinic
loop_
_symmetry_equiv_pos_as_xyz
'x, y, z'
_cell_length_a     55.238687
_cell_length_b     65.919493
_cell_length_c     58.569832
_cell_angle_alpha  90.30929
_cell_angle_beta   89.976908
_cell_angle_gamma 90.180167
loop_
_atom_site_label
_atom_site_type_symbol
_atom_site_fract_x
_atom_site_fract_y
_atom_site_fract_z
_atom_type_partial_charge
C0 C 0.3557 0.38176 0.35544 0.0
C1 C 0.37271 0.39112 0.36987 0.0
C2 C 0.38431 0.41432 0.33939 0.0
C3 C 0.38693 0.40723 0.3619 0.0
C4 C 0.36738 0.40469 0.32498 0.0
C5 C 0.35322 0.38857 0.33295 0.0
U6 U 0.33231 0.34754 0.40319 0.0
O7 O 0.29508 0.33756 0.41073 0.0
O8 O 0.32299 0.31506 0.40259 0.0
C9 C 0.29988 0.31842 0.40635 0.0
C10 C 0.34005 0.36524 0.36372 0.0
C11 C 0.28276 0.30801 0.39087 0.0
C12 C 0.26853 0.29914 0.35274 0.0
C13 C 0.28518 0.30911 0.36704 0.0
C14 C 0.24685 0.28704 0.38596 0.0
C15 C 0.24908 0.28805 0.36204 0.0
C16 C 0.26351 0.29692 0.40019 0.0
C17 C 0.35976 0.35598 0.46366 0.0
C18 C 0.35426 0.335 0.49737 0.0
C19 C 0.37605 0.36684 0.50028 0.0
C20 C 0.37239 0.37017 0.47701 0.0
C21 C 0.36709 0.3492 0.51083 0.0
C22 C 0.35058 0.33838 0.47397 0.0
C23 C 0.35706 0.35993 0.43904 0.0
O24 O 0.35124 0.34865 0.37013 0.0
O25 O 0.32285 0.37079 0.37792 0.0
O26 O 0.33657 0.3682 0.43262 0.0
O27 O 0.36461 0.34563 0.42504 0.0
H28 H 0.37478 0.38611 0.38735 0.0
H29 H 0.39954 0.41446 0.37355 0.0
H30 H 0.36508 0.40959 0.30749 0.0
H31 H 0.3402 0.3815 0.32157 0.0
H32 H 0.27066 0.30039 0.33442 0.0
H33 H 0.29986 0.31771 0.35951 0.0
H34 H 0.23234 0.27842 0.39373 0.0
H35 H 0.26136 0.29587 0.41853 0.0
H36 H 0.34695 0.32134 0.50494 0.0
H37 H 0.3864 0.37794 0.5099 0.0
H38 H 0.37971 0.3838 0.46934 0.0
H39 H 0.34073 0.32725 0.46392 0.0
C40 C 0.19119 0.18815 0.97404 0.0
C41 C 0.17462 0.17322 0.98097 0.0
C42 C 0.17366 0.18769 0.01945 0.0
C43 C 0.16597 0.17297 1.00346 0.0
C44 C 0.19024 0.20264 1.01231 0.0
C45 C 0.19891 0.20284 0.98984 0.0
U46 U 0.19122 0.16891 0.91227 0.0
O47 O 0.19461 0.18558 0.87997 0.0
O48 O 0.22167 0.1627 0.88896 0.0
C49 C 0.21545 0.17715 0.87472 0.0
C50 C 0.20058 0.18859 0.95047 0.0
C51 C 0.23514 0.19076 0.86657 0.0
C52 C 0.24884 0.22329 0.85149 0.0
C53 C 0.23065 0.21119 0.86115 0.0
C54 C 0.27648 0.19494 0.85265 0.0
C55 C 0.27195 0.21529 0.84697 0.0
C56 C 0.25829 0.18282 0.86221 0.0
C57 C 0.14558 0.12633 0.8963 0.0
C58 C 0.14733 0.10102 0.86589 0.0
C59 C 0.10959 0.10713 0.88576 0.0
C60 C 0.12091 0.12198 0.89916 0.0
C61 C 0.12272 0.09618 0.86921 0.0
C62 C 0.15867 0.11596 0.87931 0.0
C63 C 0.15723 0.1409 0.91211 0.0
O64 O 0.21248 0.17235 0.94384 0.0
O65 O 0.18545 0.19525 0.93492 0.0
O66 O 0.15284 0.1602 0.90848 0.0
O67 O 0.17988 0.1373 0.91764 0.0
H68 H 0.16837 0.16179 0.96897 0.0
H69 H 0.15298 0.16141 1.00824 0.0
H70 H 0.19679 0.21405 0.02418 0.0
H71 H 0.21174 0.21446 0.98481 0.0
H72 H 0.24478 0.23895 0.84757 0.0
H73 H 0.21299 0.2178 0.86402 0.0
H74 H 0.29393 0.18817 0.84911 0.0
H75 H 0.26223 0.16707 0.86577 0.0
H76 H 0.15804 0.09282 0.85342 0.0
H77 H 0.09053 0.10411 0.88852 0.0
H78 H 0.11045 0.12985 0.9121 0.0
H79 H 0.17774 0.11909 0.87675 0.0
C80 C 0.85174 0.12611 0.66737 0.0
C81 C 0.87282 0.12082 0.65538 0.0
C82 C 0.88157 0.09431 0.68316 0.0
C83 C 0.88763 0.1051 0.66323 0.0
C84 C 0.86026 0.09963 0.69493 0.0
C85 C 0.84556 0.11538 0.68712 0.0
U86 U 0.82692 0.16177 0.62133 0.0
O87 O 0.78972 0.17241 0.6157 0.0
O88 O 0.81841 0.19439 0.62379 0.0
C89 C 0.79504 0.19128 0.62118 0.0
C90 C 0.83604 0.14281 0.65974 0.0
C91 C 0.77896 0.20143 0.63802 0.0
C92 C 0.74527 0.20079 0.66494 0.0
C93 C 0.76113 0.19064 0.65014 0.0
C94 C 0.76508 0.23262 0.65629 0.0
C95 C 0.74693 0.22193 0.66808 0.0
C96 C 0.78082 0.22249 0.64136 0.0
C97 C 0.85165 0.15503 0.55943 0.0
C98 C 0.84956 0.17821 0.52726 0.0
C99 C 0.8636 0.14381 0.52147 0.0
C100 C 0.86018 0.13987 0.54467 0.0
C101 C 0.85854 0.16308 0.51242 0.0
C102 C 0.84612 0.17422 0.55057 0.0
C103 C 0.8498 0.15042 0.58401 0.0
O104 O 0.84714 0.15957 0.65355 0.0
O105 O 0.81828 0.13763 0.64596 0.0
O106 O 0.82945 0.14208 0.59088 0.0
O107 O 0.85827 0.16417 0.5983 0.0
H108 H 0.8779 0.1289 0.64004 0.0
H109 H 0.90399 0.10159 0.65383 0.0
H110 H 0.85472 0.09146 0.71006 0.0
H111 H 0.82928 0.11917 0.69654 0.0
H112 H 0.73167 0.19207 0.67395 0.0
H113 H 0.75922 0.17438 0.64806 0.0
H114 H 0.7667 0.24893 0.65809 0.0
H115 H 0.79427 0.2312 0.63214 0.0
H116 H 0.84525 0.19316 0.52087 0.0
H117 H 0.87095 0.13188 0.51078 0.0
H118 H 0.86467 0.12499 0.55119 0.0
H119 H 0.83944 0.18614 0.56169 0.0
C120 C 0.68782 0.32242 0.05805 0.0
C121 C 0.66833 0.33508 0.05255 0.0
C122 C 0.67093 0.32474 1.01251 0.0
C123 C 0.65995 0.33622 0.03003 0.0
C124 C 0.69048 0.31207 0.0182 0.0
C125 C 0.69883 0.31094 0.04074 0.0
U126 U 0.68677 0.34049 0.11993 0.0
O127 O 0.68859 0.3234 0.15212 0.0
O128 O 0.71642 0.34612 0.14424 0.0
C129 C 0.70914 0.33189 0.15833 0.0
C130 C 0.69682 0.32117 0.08171 0.0
C131 C 0.728 0.31806 0.16682 0.0
C132 C 0.76119 0.29449 0.16059 0.0
C133 C 0.74295 0.30704 0.15191 0.0
C134 C 0.74949 0.30367 0.19912 0.0
C135 C 0.76476 0.2927 0.18434 0.0
C136 C 0.73133 0.3162 0.19044 0.0
C137 C 0.64205 0.38366 0.1347 0.0
C138 C 0.63856 0.40053 0.17161 0.0
C139 C 0.61251 0.41043 0.14036 0.0
C140 C 0.62344 0.39591 0.12632 0.0
C141 C 0.61994 0.41301 0.16318 0.0
C142 C 0.64952 0.38595 0.15748 0.0
C143 C 0.65361 0.36902 0.1191 0.0
O144 O 0.70907 0.33706 0.08897 0.0
O145 O 0.68115 0.31446 0.0968 0.0
O146 O 0.6486 0.34979 0.12262 0.0
O147 O 0.67656 0.37233 0.1145 0.0
H148 H 0.65957 0.34406 0.06571 0.0
H149 H 0.64465 0.34592 0.02641 0.0
H150 H 0.6996 0.30323 1.00517 0.0
H151 H 0.71396 0.30114 0.04465 0.0
H152 H 0.77241 0.28609 0.14871 0.0
H153 H 0.74059 0.30823 0.1336 0.0
H154 H 0.75187 0.30293 0.21745 0.0
H155 H 0.72002 0.32465 0.20222 0.0
H156 H 0.64461 0.40199 0.18912 0.0
H157 H 0.59861 0.41998 0.1331 0.0
H158 H 0.61753 0.39442 0.10875 0.0
H159 H 0.66388 0.37658 0.16424 0.0
C160 C 0.6749 0.62669 0.66282 0.0
C161 C 0.66068 0.61603 0.64692 0.0
C162 C 0.64475 0.59446 0.67723 0.0
C163 C 0.64575 0.60004 0.65405 0.0
C164 C 0.65901 0.60532 0.69305 0.0
C165 C 0.67392 0.62126 0.6859 0.0
U166 U 0.70055 0.6627 0.61758 0.0
O167 O 0.70931 0.69525 0.62031 0.0
O168 O 0.73797 0.67332 0.61252 0.0
C169 C 0.73263 0.69227 0.61742 0.0
C170 C 0.69093 0.64339 0.65571 0.0
C171 C 0.74872 0.7025 0.63399 0.0
C172 C 0.7667 0.70554 0.67183 0.0
C173 C 0.75112 0.69555 0.6565 0.0
C174 C 0.7775 0.7295 0.6423 0.0
C175 C 0.78006 0.72271 0.66493 0.0
C176 C 0.76201 0.71951 0.62705 0.0
C177 C 0.67633 0.65759 0.55532 0.0
C178 C 0.66618 0.68126 0.52496 0.0
C179 C 0.67481 0.6462 0.51569 0.0
C180 C 0.67885 0.64221 0.53882 0.0
C181 C 0.668 0.66569 0.50848 0.0
C182 C 0.67032 0.67727 0.54812 0.0
C183 C 0.67787 0.65218 0.57982 0.0
O184 O 0.70871 0.63833 0.64191 0.0
O185 O 0.68003 0.66022 0.64968 0.0
O186 O 0.66919 0.6653 0.59468 0.0
O187 O 0.69802 0.64355 0.58664 0.0
H188 H 0.66115 0.62007 0.62901 0.0
H189 H 0.63484 0.59216 0.64144 0.0
H190 H 0.65901 0.60128 0.71095 0.0
H191 H 0.68483 0.62929 0.69841 0.0
H192 H 0.76805 0.69999 0.68914 0.0
H193 H 0.74096 0.68243 0.66219 0.0
H194 H 0.78777 0.74241 0.63623 0.0
H195 H 0.76047 0.72504 0.60972 0.0
H196 H 0.66125 0.69649 0.51998 0.0
H197 H 0.67609 0.63378 0.50358 0.0
H198 H 0.68323 0.62688 0.54392 0.0
H199 H 0.66826 0.68948 0.5604 0.0
C200 C 0.83053 0.82672 0.05396 0.0
C201 C 0.83389 0.84519 0.04247 0.0
C202 C 0.84864 0.82725 1.00868 0.0
C203 C 0.84272 0.84544 0.02004 0.0
C204 C 0.84543 0.8088 0.0203 0.0
C205 C 0.83639 0.80855 0.04266 0.0
U206 U 0.8284 0.84691 0.11534 0.0
O207 O 0.7976 0.8521 0.1385 0.0
O208 O 0.82627 0.83086 0.14817 0.0
C209 C 0.80528 0.83892 0.15358 0.0
C210 C 0.82102 0.82604 0.07761 0.0
C211 C 0.78689 0.82507 0.16308 0.0
C212 C 0.75919 0.79641 0.15994 0.0
C213 C 0.77672 0.80919 0.1502 0.0
C214 C 0.76192 0.8153 0.19543 0.0
C215 C 0.75151 0.79935 0.1827 0.0
C216 C 0.77938 0.82799 0.1857 0.0
C217 C 0.86959 0.89238 0.1305 0.0
C218 C 0.88029 0.90414 0.16868 0.0
C219 C 0.88859 0.92534 0.13593 0.0
C220 C 0.87875 0.9105 0.12153 0.0
C221 C 0.88953 0.92236 0.15969 0.0
C222 C 0.8703 0.8893 0.15421 0.0
C223 C 0.85982 0.87694 0.11467 0.0
O224 O 0.83652 0.82048 0.09339 0.0
O225 O 0.80735 0.84135 0.08404 0.0
O226 O 0.83698 0.87905 0.10892 0.0
O227 O 0.86581 0.85802 0.11879 0.0
H228 H 0.82975 0.85947 0.05082 0.0
H229 H 0.84529 0.85992 1.01171 0.0
H230 H 0.84962 0.79452 1.01201 0.0
H231 H 0.83395 0.79413 0.05115 0.0
H232 H 0.75141 0.78441 0.14956 0.0
H233 H 0.78226 0.80673 0.13266 0.0
H234 H 0.75681 0.81785 0.21306 0.0
H235 H 0.7871 0.84013 0.19594 0.0
H236 H 0.88054 0.90146 0.1869 0.0
H237 H 0.89586 0.93903 0.12839 0.0
H238 H 0.87845 0.91313 0.10328 0.0
H239 H 0.86321 0.87542 0.1615 0.0
C240 C 0.17647 0.88507 0.35736 0.0
C241 C 0.15851 0.89304 0.37174 0.0
C242 C 0.14741 0.91774 0.34267 0.0
C243 C 0.1441 0.90921 0.36447 0.0
C244 C 0.16542 0.90957 0.32832 0.0
C245 C 0.17978 0.89339 0.33561 0.0
U246 U 0.1981 0.84833 0.40319 0.0
O247 O 0.20645 0.81575 0.40067 0.0
O248 O 0.23481 0.83734 0.41081 0.0
C249 C 0.22955 0.81852 0.4051 0.0
C250 C 0.19192 0.86819 0.36484 0.0
C251 C 0.24657 0.80859 0.38918 0.0
C252 C 0.26618 0.80597 0.35202 0.0
C253 C 0.24997 0.81575 0.36687 0.0
C254 C 0.2757 0.78181 0.38166 0.0
C255 C 0.2792 0.7888 0.35921 0.0
C256 C 0.25956 0.7916 0.39644 0.0
C257 C 0.16698 0.85428 0.46296 0.0
C258 C 0.17854 0.8412 0.50024 0.0
C259 C 0.13987 0.85782 0.49541 0.0
C260 C 0.145 0.8608 0.47232 0.0
C261 C 0.15665 0.84822 0.50978 0.0
C262 C 0.18372 0.84428 0.477 0.0
C263 C 0.17194 0.85902 0.4388 0.0
O264 O 0.20864 0.87295 0.37991 0.0
O265 O 0.1805 0.85123 0.36968 0.0
O266 O 0.16467 0.84564 0.42355 0.0
O267 O 0.19313 0.86709 0.43403 0.0
H268 H 0.15567 0.88677 0.3886 0.0
H269 H 0.13025 0.91493 0.37587 0.0
H270 H 0.16875 0.91591 0.31159 0.0
H271 H 0.19362 0.88746 0.32431 0.0
H272 H 0.26823 0.81167 0.33483 0.0
H273 H 0.24003 0.82885 0.36093 0.0
H274 H 0.28567 0.76887 0.38795 0.0
H275 H 0.25726 0.78589 0.41363 0.0
H276 H 0.19187 0.83378 0.51084 0.0
H277 H 0.12264 0.86303 0.502 0.0
H278 H 0.1318 0.86848 0.46178 0.0
H279 H 0.20083 0.83912 0.47008 0.0
C280 C 0.33015 0.68721 0.97277 0.0
C281 C 0.35362 0.68014 0.97723 0.0
C282 C 0.34831 0.68681 0.01796 0.0
C283 C 0.36265 0.68002 0.99957 0.0
C284 C 0.32465 0.69357 1.01343 0.0
C285 C 0.31571 0.69381 0.99105 0.0
U286 U 0.33025 0.66822 0.91113 0.0
O287 O 0.3003 0.6622 0.88724 0.0
O288 O 0.328 0.68486 0.87865 0.0
C289 C 0.30742 0.67624 0.87281 0.0
C290 C 0.32059 0.68784 0.94923 0.0
C291 C 0.28857 0.68987 0.86379 0.0
C292 C 0.25165 0.70961 0.86805 0.0
C293 C 0.26964 0.69724 0.87749 0.0
C294 C 0.27148 0.70761 0.83124 0.0
C295 C 0.25232 0.71493 0.84477 0.0
C296 C 0.28936 0.69522 0.84066 0.0
C297 C 0.37551 0.62564 0.89586 0.0
C298 C 0.3742 0.60289 0.86302 0.0
C299 C 0.41012 0.60442 0.88667 0.0
C300 C 0.3991 0.61907 0.90049 0.0
C301 C 0.39774 0.59596 0.86789 0.0
C302 C 0.3632 0.61764 0.87685 0.0
C303 C 0.36396 0.64015 0.91167 0.0
O304 O 0.33564 0.69466 0.93363 0.0
O305 O 0.30853 0.67166 0.94252 0.0
O306 O 0.34116 0.63661 0.91677 0.0
O307 O 0.36862 0.65944 0.90812 0.0
H308 H 0.36502 0.67477 0.96341 0.0
H309 H 0.3808 0.67444 1.00248 0.0
H310 H 0.3132 0.69903 0.02715 0.0
H311 H 0.29753 0.69928 0.98798 0.0
H312 H 0.23734 0.71519 0.87904 0.0
H313 H 0.26872 0.69338 0.89543 0.0
H314 H 0.27245 0.71115 0.81323 0.0
H315 H 0.30376 0.68963 0.82976 0.0
H316 H 0.36426 0.59686 0.84855 0.0
H317 H 0.4281 0.59928 0.89113 0.0
H318 H 0.40887 0.62502 0.91512 0.0
H319 H 0.345 0.62259 0.87289 0.0
Zn320 Zn 0.02388 0.14468 0.30531 0.0
Zn321 Zn 0.99871 0.14089 0.22203 0.0
Zn322 Zn 0.01081 0.1437 0.26352 0.0
C323 C 0.04486 0.15619 0.22082 0.0
C324 C 0.99474 0.10201 0.23744 0.0
O325 O 0.98061 0.15803 0.28371 0.0
O326 O 0.99305 0.15281 0.31913 0.0
C327 C 0.0556 0.17045 0.28267 0.0
O328 O 0.04024 0.15803 0.24235 0.0
O329 O 0.02998 0.14738 0.2078 0.0
O330 O 0.9884 0.11229 0.22037 0.0
O331 O 1.00484 0.11089 0.2547 0.0
O332 O 0.04881 0.16607 0.30261 0.0
O333 O 0.04484 0.16238 0.26527 0.0
O334 O 0.01848 0.11186 0.27461 0.0
O335 O 0.03415 0.11616 0.309 0.0
C336 C 0.02868 0.10453 0.2926 0.0
O337 O 0.976 0.16085 0.26033 0.0
O338 O 0.97374 0.16239 0.22273 0.0
C339 C 0.97708 0.15897 0.3055 0.0
C340 C 0.96586 0.16772 0.24209 0.0
Zn341 Zn 0.52827 0.36744 0.72668 0.0
Zn342 Zn 0.49517 0.37086 0.80234 0.0
Zn343 Zn 0.51192 0.36874 0.76495 0.0
C344 C 0.48806 0.40851 0.78638 0.0
C345 C 0.46898 0.34067 0.78252 0.0
O346 O 0.54571 0.35004 0.76636 0.0
O347 O 0.54711 0.34203 0.72978 0.0
C348 C 0.53625 0.40647 0.73983 0.0
O349 O 0.50476 0.40143 0.77316 0.0
O350 O 0.477 0.39668 0.79967 0.0
O351 O 0.4765 0.34513 0.80226 0.0
O352 O 0.47787 0.35004 0.76511 0.0
O353 O 0.54621 0.39365 0.72684 0.0
O354 O 0.52004 0.40056 0.75423 0.0
O355 O 0.48343 0.35476 0.74265 0.0
O356 O 0.49727 0.36608 0.70971 0.0
C357 C 0.48061 0.35777 0.72107 0.0
O358 O 0.53963 0.35586 0.78866 0.0
O359 O 0.52617 0.37148 0.81947 0.0
C360 C 0.55462 0.33936 0.74988 0.0
C361 C 0.54252 0.36135 0.80966 0.0
Zn362 Zn 0.03114 0.86974 0.80544 0.0
Zn363 Zn 0.99442 0.86895 0.72359 0.0
Zn364 Zn 0.01294 0.86832 0.76448 0.0
C365 C 0.99824 0.90917 0.73587 0.0
C366 C 0.96125 0.84794 0.75047 0.0
O367 O 0.04842 0.85181 0.76335 0.0
O368 O 0.06229 0.85655 0.79841 0.0
C369 C 0.02636 0.90971 0.79324 0.0
O370 O 1.00594 0.90049 0.7542 0.0
O371 O 0.9929 0.89858 0.71857 0.0
O372 O 0.96369 0.85499 0.73062 0.0
O373 O 0.97787 0.85102 0.76562 0.0
O374 O 0.03173 0.89941 0.81059 0.0
O375 O 0.01912 0.90072 0.7748 0.0
O376 O 0.98679 0.85294 0.78811 0.0
O377 O 1.00609 0.85353 0.82118 0.0
C378 C 0.98775 0.84858 0.80956 0.0
O379 O 0.03947 0.85334 0.74084 0.0
O380 O 0.01994 0.85327 0.70785 0.0
C381 C 0.06503 0.84933 0.77859 0.0
C382 C 0.03843 0.8488 0.71939 0.0
Zn383 Zn 0.53167 0.64185 0.22039 0.0
Zn384 Zn 0.49468 0.64409 0.30149 0.0
Zn385 Zn 0.51316 0.64395 0.2608 0.0
C386 C 0.53905 0.66369 0.30569 0.0
C387 C 0.49794 0.60367 0.29018 0.0
O388 O 0.4873 0.65931 0.2369 0.0
O389 O 0.50684 0.65747 0.20402 0.0
C390 C 0.56545 0.66297 0.24647 0.0
O391 O 0.53996 0.6589 0.28429 0.0
O392 O 0.52034 0.65968 0.3172 0.0
O393 O 0.4927 0.61462 0.30719 0.0
O394 O 0.50575 0.61194 0.27162 0.0
O395 O 0.56276 0.65545 0.22677 0.0
O396 O 0.54881 0.6605 0.26172 0.0
O397 O 0.51885 0.61128 0.25104 0.0
O398 O 0.53243 0.61224 0.21557 0.0
C399 C 0.52642 0.60209 0.23286 0.0
O400 O 0.47831 0.66147 0.25935 0.0
O401 O 0.46417 0.65811 0.29447 0.0
C402 C 0.48853 0.66302 0.2153 0.0
C403 C 0.46179 0.66488 0.2745 0.0
H404 H 0.1332 0.95068 0.36803 0.0
H405 H 0.10987 0.97999 0.35552 0.0
H406 H 0.10561 0.95478 0.28757 0.0
H407 H 0.12826 0.92499 0.30013 0.0
H408 H 0.12311 0.00718 0.3219 0.0
H409 H 0.0352 0.97052 0.30027 0.0
H410 H 0.05802 0.95805 0.31718 0.0
H411 H 0.06139 0.95969 0.28674 0.0
C412 C 0.12693 0.95113 0.35052 0.0
C413 C 0.13258 0.93537 0.33513 0.0
C414 C 0.11371 0.96799 0.34336 0.0
C415 C 0.10572 0.9695 0.32067 0.0
C416 C 0.1112 0.9538 0.30525 0.0
H417 H 0.03893 0.07742 0.25791 0.0
H418 H 0.05606 0.04321 0.26204 0.0
C419 C 0.12443 0.93689 0.31241 0.0
C420 C 0.09281 0.98806 0.31311 0.0
H421 H 0.0387 1.00569 0.29292 0.0
C422 C 0.10471 0.0068 0.31546 0.0
C423 C 0.06883 0.98757 0.30454 0.0
C424 C 0.05496 0.96792 0.30215 0.0
C425 C 0.09316 0.02505 0.30993 0.0
C426 C 0.06899 0.02462 0.30202 0.0
C427 C 0.05726 1.0059 0.29895 0.0
C428 C 0.05527 0.04369 0.29897 0.0
C429 C 0.10673 0.04478 0.31299 0.0
C430 C 0.04841 0.05488 0.3183 0.0
C431 C 0.03857 0.07421 0.316 0.0
C432 C 0.03528 0.0828 0.29429 0.0
C433 C 0.04094 0.07113 0.27483 0.0
C434 C 0.05084 0.05165 0.27717 0.0
H435 H 0.12655 0.04236 0.31471 0.0
H436 H 0.10341 0.05502 0.29833 0.0
H437 H 0.10019 0.05253 0.32868 0.0
H438 H 0.05157 0.04894 0.33525 0.0
H439 H 0.03427 0.08274 0.33133 0.0
H440 H 0.37628 0.56128 0.85153 0.0
H441 H 0.39556 0.53281 0.83179 0.0
H442 H 0.46401 0.56437 0.83358 0.0
H443 H 0.44485 0.59297 0.85329 0.0
H444 H 0.4219 0.53006 0.7905 0.0
H445 H 0.47903 0.51067 0.86546 0.0
H446 H 0.4538 0.52791 0.8675 0.0
H447 H 0.48193 0.53621 0.85524 0.0
C448 C 0.39536 0.56233 0.84743 0.0
C449 C 0.40904 0.57937 0.85418 0.0
C450 C 0.40638 0.54599 0.83622 0.0
C451 C 0.43131 0.5463 0.83155 0.0
C452 C 0.44486 0.5636 0.83745 0.0
H453 H 0.51851 0.44142 0.78709 0.0
H454 H 0.50711 0.47704 0.79385 0.0
C455 C 0.43387 0.57993 0.84873 0.0
C456 C 0.44311 0.52819 0.82125 0.0
H457 H 0.48288 0.49002 0.83289 0.0
C458 C 0.43539 0.5214 0.79968 0.0
C459 C 0.46084 0.51696 0.83317 0.0
C460 C 0.46932 0.52315 0.8567 0.0
C461 C 0.44451 0.50344 0.78994 0.0
C462 C 0.46149 0.49179 0.80227 0.0
C463 C 0.46994 0.49901 0.82341 0.0
C464 C 0.46856 0.47101 0.79493 0.0
C465 C 0.43568 0.497 0.76663 0.0
C466 C 0.45074 0.45587 0.7931 0.0
C467 C 0.45722 0.43571 0.78918 0.0
C468 C 0.48164 0.43022 0.78691 0.0
C469 C 0.49953 0.44538 0.78815 0.0
C470 C 0.49303 0.46565 0.79219 0.0
H471 H 0.42959 0.51024 0.75651 0.0
H472 H 0.45002 0.48889 0.75695 0.0
H473 H 0.41998 0.48661 0.76862 0.0
H474 H 0.43183 0.4595 0.79573 0.0
H475 H 0.44311 0.42426 0.78861 0.0
H476 H 0.63779 0.55773 0.65597 0.0
H477 H 0.61405 0.52883 0.66941 0.0
H478 H 0.59337 0.56275 0.72943 0.0
H479 H 0.61701 0.59182 0.71604 0.0
H480 H 0.60956 0.52488 0.73987 0.0
H481 H 0.54128 0.51958 0.67099 0.0
H482 H 0.57166 0.51982 0.66016 0.0
H483 H 0.56018 0.54171 0.67508 0.0
C484 C 0.62784 0.55921 0.67182 0.0
C485 C 0.62932 0.57715 0.68488 0.0
C486 C 0.61422 0.54266 0.67948 0.0
C487 C 0.60158 0.5437 0.70027 0.0
C488 C 0.60287 0.56161 0.71329 0.0
H489 H 0.50792 0.44062 0.74003 0.0
H490 H 0.52139 0.47583 0.7337 0.0
C491 C 0.61652 0.57818 0.70565 0.0
C492 C 0.58833 0.52565 0.70903 0.0
H493 H 0.54604 0.48995 0.69434 0.0
C494 C 0.59543 0.51742 0.73006 0.0
C495 C 0.56957 0.51607 0.69648 0.0
C496 C 0.56003 0.52486 0.67454 0.0
C497 C 0.58522 0.4993 0.73821 0.0
C498 C 0.5677 0.48898 0.72487 0.0
C499 C 0.55963 0.49777 0.70448 0.0
C500 C 0.55935 0.46818 0.73064 0.0
C501 C 0.59359 0.49118 0.7609 0.0
C502 C 0.57615 0.45227 0.73101 0.0
C503 C 0.56852 0.43237 0.73471 0.0
C504 C 0.54393 0.4279 0.73822 0.0
C505 C 0.52705 0.44378 0.73804 0.0
C506 C 0.5347 0.46381 0.73421 0.0
H507 H 0.60089 0.50347 0.772 0.0
H508 H 0.5786 0.48342 0.77004 0.0
H509 H 0.60829 0.48002 0.75798 0.0
H510 H 0.59516 0.45518 0.72779 0.0
H511 H 0.58187 0.42036 0.73448 0.0
H512 H 0.9204 0.91731 0.19601 0.0
H513 H 0.94004 0.94382 0.21911 0.0
H514 H 0.90341 0.9897 0.18005 0.0
H515 H 0.88336 0.96344 0.15739 0.0
H516 H 0.97106 0.97351 0.20379 0.0
H517 H 0.89187 0.00913 0.24508 0.0
H518 H 0.89038 0.98437 0.23178 0.0
H519 H 0.88773 0.00696 0.2148 0.0
C520 C 0.91617 0.93304 0.19266 0.0
C521 C 0.90033 0.93825 0.17481 0.0
C522 C 0.9275 0.94817 0.20581 0.0
C523 C 0.92294 0.96876 0.20156 0.0
C524 C 0.90684 0.97394 0.184 0.0
H525 H 0.99656 0.07734 0.20057 0.0
H526 H 0.98258 0.04237 0.19747 0.0
C527 C 0.89562 0.95888 0.17084 0.0
C528 C 0.93622 0.985 0.21411 0.0
H529 H 0.92754 0.03043 0.24116 0.0
C530 C 0.96158 0.98573 0.21243 0.0
C531 C 0.924 1.00077 0.22584 0.0
C532 C 0.89701 1.00017 0.22971 0.0
C533 C 0.97476 1.0026 0.22044 0.0
C534 C 0.96223 0.01924 0.23011 0.0
C535 C 0.93714 0.01776 0.23354 0.0
C536 C 0.97405 0.03932 0.23335 0.0
C537 C 1.0019 1.00281 0.2177 0.0
C538 C 0.97411 0.04928 0.25465 0.0
C539 C 0.9823 0.06942 0.2565 0.0
C540 C 0.99003 0.07991 0.23697 0.0
C541 C 0.9907 0.06963 0.21591 0.0
C542 C 0.98287 0.04957 0.21414 0.0
H543 H 0.00932 0.98717 0.21748 0.0
H544 H 1.00661 0.01003 0.2012 0.0
H545 H 0.01075 0.01158 0.23165 0.0
H546 H 0.96716 0.04169 0.26965 0.0
H547 H 0.98141 0.07708 0.27289 0.0
H548 H 0.90576 0.06554 0.65789 0.0
H549 H 0.93019 0.03732 0.67184 0.0
H550 H 0.91691 0.05622 0.74125 0.0
H551 H 0.89289 0.0848 0.72753 0.0
H552 H 0.97273 0.03806 0.703 0.0
H553 H 0.89323 0.99574 0.73711 0.0
H554 H 0.89011 0.01576 0.71641 0.0
H555 H 0.89653 0.02186 0.74568 0.0
C556 C 0.90828 0.06393 0.67612 0.0
C557 C 0.89717 0.07746 0.69156 0.0
C558 C 0.92219 0.04772 0.68406 0.0
C559 C 0.92516 0.04458 0.70757 0.0
C560 C 0.91456 0.05822 0.72304 0.0
H561 H 0.98346 0.93436 0.77058 0.0
H562 H 0.96958 0.96956 0.76708 0.0
C563 C 0.90073 0.0745 0.71513 0.0
C564 C 0.9388 0.02668 0.71578 0.0
H565 H 0.93127 0.98034 0.74063 0.0
C566 C 0.96374 0.0255 0.7114 0.0
C567 C 0.92707 0.01042 0.72696 0.0
C568 C 0.90023 0.0108 0.73176 0.0
C569 C 0.97718 0.00827 0.71749 0.0
C570 C 0.96523 0.99159 0.72769 0.0
C571 C 0.94046 0.99312 0.73285 0.0
C572 C 0.97729 0.97166 0.73092 0.0
C573 C 1.00404 0.00807 0.71284 0.0
C574 C 0.98665 0.96127 0.71192 0.0
C575 C 0.99479 0.94133 0.71395 0.0
C576 C 0.99368 0.93127 0.73502 0.0
C577 C 0.9851 0.94188 0.75426 0.0
C578 C 0.97695 0.96191 0.75222 0.0
H579 H 0.01163 0.0237 0.71279 0.0
H580 H 0.01389 0.99898 0.72575 0.0
H581 H 1.00734 1.0013 0.69574 0.0
H582 H 0.98655 0.96821 0.6952 0.0
H583 H 1.00109 0.93349 0.69878 0.0
H584 H 0.64244 0.43861 0.19372 0.0
H585 H 0.62486 0.46746 0.21416 0.0
H586 H 0.55508 0.4538 0.18477 0.0
H587 H 0.57225 0.42447 0.16512 0.0
H588 H 0.60628 0.49972 0.19392 0.0
H589 H 0.53548 0.46689 0.24934 0.0
H590 H 0.55877 0.45159 0.2362 0.0
H591 H 0.53216 0.45855 0.22032 0.0
C592 C 0.62321 0.44136 0.19212 0.0
C593 C 0.60882 0.42923 0.17763 0.0
C594 C 0.61319 0.45796 0.20375 0.0
C595 C 0.58855 0.46273 0.20127 0.0
C596 C 0.57399 0.45024 0.18743 0.0
H597 H 0.5211 0.57744 0.1961 0.0
H598 H 0.53503 0.54248 0.19196 0.0
C599 C 0.58396 0.43362 0.17587 0.0
C600 C 0.57875 0.48204 0.21076 0.0
H601 H 0.53116 0.50252 0.24029 0.0
C602 C 0.59012 0.50025 0.20442 0.0
C603 C 0.5577 0.48285 0.2246 0.0
C604 C 0.54548 0.46389 0.23321 0.0
C605 C 0.58042 0.51914 0.21055 0.0
C606 C 0.55858 0.51994 0.22311 0.0
C607 C 0.54776 0.50184 0.23045 0.0
C608 C 0.54619 0.53954 0.22715 0.0
C609 C 0.59326 0.53821 0.203 0.0
C610 C 0.54689 0.54914 0.24861 0.0
C611 C 0.5389 0.56924 0.25104 0.0
C612 C 0.53 0.57985 0.23206 0.0
C613 C 0.52791 0.56965 0.21102 0.0
C614 C 0.53584 0.54969 0.20861 0.0
H615 H 0.6123 0.53519 0.19794 0.0
H616 H 0.58366 0.54462 0.18805 0.0
H617 H 0.59316 0.54981 0.21682 0.0
H618 H 0.55486 0.54152 0.26311 0.0
H619 H 0.54105 0.57682 0.26736 0.0
H620 H 0.43233 0.423 0.34707 0.0
H621 H 0.4549 0.45334 0.33544 0.0
H622 H 0.39145 0.47596 0.30131 0.0
H623 H 0.36862 0.44598 0.31321 0.0
H624 H 0.46287 0.47141 0.28948 0.0
H625 H 0.41076 0.52025 0.34951 0.0
H626 H 0.41134 0.49296 0.35184 0.0
H627 H 0.39295 0.5048 0.33046 0.0
C628 C 0.42316 0.43445 0.33711 0.0
C629 C 0.3986 0.4321 0.33121 0.0
C630 C 0.43615 0.45167 0.3303 0.0
C631 C 0.4248 0.46693 0.31763 0.0
C632 C 0.40051 0.4644 0.31118 0.0
H633 H 0.48222 0.57771 0.25648 0.0
H634 H 0.46727 0.54289 0.26155 0.0
C635 C 0.38754 0.44718 0.3179 0.0
C636 C 0.43782 0.48607 0.31236 0.0
H637 H 0.43822 0.53668 0.3249 0.0
C638 C 0.45754 0.48571 0.29719 0.0
C639 C 0.43094 0.50463 0.32262 0.0
C640 C 0.41047 0.50579 0.33966 0.0
C641 C 0.4704 0.50356 0.29184 0.0
C642 C 0.46325 0.52215 0.3019 0.0
C643 C 0.44363 0.52241 0.31715 0.0
C644 C 0.47603 0.54161 0.29754 0.0
C645 C 0.49174 0.5024 0.27583 0.0
C646 C 0.48633 0.55228 0.31592 0.0
C647 C 0.49483 0.57205 0.31305 0.0
C648 C 0.49328 0.58161 0.29172 0.0
C649 C 0.48409 0.57059 0.273 0.0
C650 C 0.47552 0.55071 0.27589 0.0
H651 H 0.49802 0.48654 0.27331 0.0
H652 H 0.48644 0.50853 0.25896 0.0
H653 H 0.50707 0.5117 0.28236 0.0
H654 H 0.48688 0.54557 0.33276 0.0
H655 H 0.50178 0.58018 0.32779 0.0
H656 H 0.09092 0.06781 0.88543 0.0
H657 H 0.07197 0.03975 0.86475 0.0
H658 H 0.10884 0.05767 0.80315 0.0
H659 H 0.12787 0.08603 0.82376 0.0
H660 H 0.04182 0.03982 0.82582 0.0
H661 H 0.12759 0.99777 0.81005 0.0
H662 H 0.12571 0.01842 0.83032 0.0
H663 H 0.12657 0.02355 0.80026 0.0
C664 C 0.09483 0.066 0.86741 0.0
C665 C 0.11094 0.07925 0.85628 0.0
C666 C 0.08402 0.04987 0.85563 0.0
C667 C 0.08911 0.04648 0.83246 0.0
C668 C 0.10493 0.05979 0.82113 0.0
H669 H 0.04367 0.93483 0.75978 0.0
H670 H 0.05636 0.97044 0.76445 0.0
C671 C 0.11582 0.07598 0.83294 0.0
C672 C 0.07806 0.02873 0.82058 0.0
H673 H 0.09148 0.98207 0.79832 0.0
C674 C 0.0527 0.0273 0.81953 0.0
C675 C 0.09224 0.01246 0.8122 0.0
C676 C 0.11953 0.01293 0.81333 0.0
C677 C 0.04116 0.00975 0.81114 0.0
C678 C 0.05533 0.99308 0.80395 0.0
C679 C 0.08066 0.99491 0.80381 0.0
C680 C 0.04449 0.97278 0.79959 0.0
C681 C 0.01388 0.00897 0.81054 0.0
C682 C 0.03332 0.96244 0.81763 0.0
C683 C 0.02624 0.94221 0.81504 0.0
C684 C 0.03002 0.93192 0.79429 0.0
C685 C 0.04023 0.94251 0.77585 0.0
C686 C 0.04758 0.96278 0.77853 0.0
H687 H 1.00598 0.02443 0.80973 0.0
H688 H 1.00733 0.99998 0.79567 0.0
H689 H 1.00715 1.00163 0.82634 0.0
H690 H 0.03115 0.9697 0.83414 0.0
H691 H 0.01856 0.93438 0.82957 0.0
H692 H 0.16611 0.1548 0.04713 0.0
H693 H 0.14982 0.15446 0.086 0.0
H694 H 0.14469 0.21968 0.08533 0.0
H695 H 0.16035 0.22016 0.04622 0.0
H696 H 0.16719 0.17393 0.12675 0.0
H697 H 0.07566 0.20106 0.10189 0.0
H698 H 0.09713 0.19154 0.08126 0.0
H699 H 0.10072 0.21658 0.09302 0.0
C700 C 0.16133 0.16908 0.05515 0.0
C701 C 0.16438 0.18749 0.04341 0.0
C702 C 0.15222 0.16887 0.07746 0.0
C703 C 0.14581 0.18702 0.08851 0.0
C704 C 0.14924 0.20546 0.07705 0.0
H705 H 0.05903 0.1954 0.21381 0.0
H706 H 0.08847 0.20639 0.1848 0.0
C707 C 0.15839 0.20571 0.05474 0.0
C708 C 0.13499 0.18648 0.11177 0.0
H709 H 0.08212 0.1944 0.14071 0.0
C710 C 0.14866 0.17858 0.12987 0.0
C711 C 0.11088 0.19272 0.1159 0.0
C712 C 0.09509 0.20082 0.09702 0.0
C713 C 0.13868 0.17629 0.15182 0.0
C714 C 0.11423 0.1817 0.1557 0.0
C715 C 0.10091 0.19038 0.13783 0.0
C716 C 0.10106 0.17606 0.17696 0.0
C717 C 0.15437 0.16792 0.17058 0.0
C718 C 0.09902 0.15551 0.18286 0.0
C719 C 0.08237 0.14932 0.19937 0.0
C720 C 0.06748 0.16353 0.21042 0.0
C721 C 0.07074 0.18424 0.2059 0.0
C722 C 0.08737 0.19047 0.18918 0.0
H723 H 0.17375 0.17161 0.16764 0.0
H724 H 0.14893 0.17393 0.18757 0.0
H725 H 0.15259 0.15115 0.1708 0.0
H726 H 0.10884 0.14402 0.17339 0.0
H727 H 0.07975 0.13323 0.20221 0.0
H728 H 0.36604 0.37694 0.54589 0.0
H729 H 0.37841 0.37208 0.58549 0.0
H730 H 0.39023 0.30851 0.57209 0.0
H731 H 0.37888 0.31341 0.53208 0.0
H732 H 0.36215 0.34805 0.62081 0.0
H733 H 0.45587 0.32666 0.59579 0.0
H734 H 0.43462 0.33716 0.57575 0.0
H735 H 0.43234 0.31099 0.58395 0.0
C736 C 0.37138 0.36191 0.55128 0.0
C737 C 0.37186 0.34564 0.53561 0.0
C738 C 0.37822 0.35912 0.57404 0.0
C739 C 0.38571 0.34002 0.58172 0.0
C740 C 0.38501 0.32349 0.56647 0.0
H741 H 0.46617 0.31971 0.70885 0.0
H742 H 0.43812 0.31155 0.67747 0.0
C743 C 0.37825 0.32628 0.54362 0.0
C744 C 0.39538 0.33787 0.60533 0.0
H745 H 0.4474 0.32842 0.63493 0.0
C746 C 0.38071 0.34353 0.62392 0.0
C747 C 0.41961 0.33194 0.60946 0.0
C748 C 0.43664 0.32649 0.59023 0.0
C749 C 0.38981 0.34396 0.64636 0.0
C750 C 0.41427 0.33878 0.65033 0.0
C751 C 0.42859 0.33224 0.63191 0.0
C752 C 0.42641 0.34255 0.67265 0.0
C753 C 0.37327 0.35028 0.66559 0.0
C754 C 0.42852 0.36251 0.6809 0.0
C755 C 0.4445 0.36712 0.69869 0.0
C756 C 0.45848 0.35184 0.70873 0.0
C757 C 0.4551 0.33164 0.70173 0.0
C758 C 0.43925 0.32703 0.6837 0.0
H759 H 0.354 0.34718 0.66133 0.0
H760 H 0.37787 0.34231 0.68166 0.0
H761 H 0.37524 0.36684 0.66857 0.0
H762 H 0.4193 0.37482 0.67239 0.0
H763 H 0.44729 0.38286 0.70345 0.0
H764 H 0.65576 0.35852 0.98943 0.0
H765 H 0.63995 0.3605 0.95056 0.0
H766 H 0.65109 0.29624 0.94166 0.0
H767 H 0.66611 0.29396 0.98088 0.0
H768 H 0.66156 0.35068 0.90882 0.0
H769 H 0.58005 0.30282 0.92415 0.0
H770 H 0.59821 0.3129 0.94719 0.0
H771 H 0.60861 0.2914 0.93101 0.0
C772 C 0.6546 0.34473 0.97935 0.0
C773 C 0.66202 0.32604 0.98847 0.0
C774 C 0.64576 0.34593 0.95701 0.0
C775 C 0.64403 0.32849 0.94324 0.0
C776 C 0.65187 0.30986 0.95206 0.0
H777 H 0.56678 0.32492 0.81079 0.0
H778 H 0.5963 0.31444 0.84003 0.0
C779 C 0.66071 0.30863 0.97444 0.0
C780 C 0.63372 0.32997 0.91982 0.0
H781 H 0.58478 0.31633 0.88741 0.0
C782 C 0.64491 0.34298 0.90406 0.0
C783 C 0.6121 0.31979 0.91348 0.0
C784 C 0.59887 0.30605 0.92984 0.0
C785 C 0.63465 0.34663 0.88251 0.0
C786 C 0.61243 0.33724 0.87663 0.0
C787 C 0.60188 0.32343 0.89188 0.0
C788 C 0.59801 0.34387 0.85657 0.0
C789 C 0.6474 0.36089 0.86641 0.0
C790 C 0.58958 0.36389 0.85591 0.0
C791 C 0.57277 0.36977 0.83949 0.0
C792 C 0.56406 0.35581 0.82323 0.0
C793 C 0.57348 0.33603 0.82294 0.0
C794 C 0.59018 0.33003 0.8397 0.0
H795 H 0.66721 0.36128 0.86972 0.0
H796 H 0.6443 0.35646 0.84832 0.0
H797 H 0.64032 0.37647 0.86902 0.0
H798 H 0.59493 0.37474 0.86893 0.0
H799 H 0.56572 0.38508 0.84017 0.0
H800 H 0.85119 0.13815 0.47528 0.0
H801 H 0.86478 0.14341 0.43603 0.0
H802 H 0.8904 0.20318 0.45417 0.0
H803 H 0.87781 0.19775 0.49372 0.0
H804 H 0.85546 0.17211 0.40203 0.0
H805 H 0.95136 0.17547 0.43056 0.0
H806 H 0.92718 0.16734 0.4491 0.0
H807 H 0.9319 0.19389 0.44373 0.0
C808 C 0.85975 0.15243 0.47098 0.0
C809 C 0.86377 0.16738 0.48786 0.0
C810 C 0.8673 0.15548 0.44844 0.0
C811 C 0.87903 0.17353 0.44221 0.0
C812 C 0.8818 0.18897 0.45866 0.0
H813 H 0.96929 0.19616 0.32358 0.0
H814 H 0.94051 0.20345 0.35435 0.0
C815 C 0.87434 0.1859 0.48126 0.0
C816 C 0.88983 0.17552 0.41901 0.0
H817 H 0.94408 0.17966 0.39145 0.0
C818 C 0.87482 0.17392 0.39969 0.0
C819 C 0.91511 0.17778 0.41592 0.0
C820 C 0.9324 0.17854 0.43588 0.0
C821 C 0.88444 0.17446 0.3774 0.0
C822 C 0.90976 0.17639 0.37437 0.0
C823 C 0.92464 0.17841 0.39371 0.0
C824 C 0.92179 0.17465 0.35166 0.0
C825 C 0.86744 0.17295 0.35734 0.0
C826 C 0.91998 0.15653 0.33898 0.0
C827 C 0.93622 0.15252 0.32114 0.0
C828 C 0.95451 0.16653 0.31575 0.0
C829 C 0.95492 0.18536 0.32702 0.0
C830 C 0.93865 0.18942 0.34478 0.0
H831 H 0.84897 0.17819 0.36195 0.0
H832 H 0.87412 0.18201 0.34269 0.0
H833 H 0.86606 0.15686 0.35181 0.0
H834 H 0.90757 0.14469 0.34419 0.0
H835 H 0.93605 0.13765 0.31317 0.0
H836 H 0.88657 0.80541 0.99122 0.0
H837 H 0.90351 0.80674 0.95264 0.0
H838 H 0.84952 0.85062 0.93359 0.0
H839 H 0.83278 0.84963 0.9723 0.0
H840 H 0.88513 0.79837 0.91071 0.0
H841 H 0.91049 0.87989 0.91561 0.0
H842 H 0.90079 0.86581 0.94029 0.0
H843 H 0.87889 0.87503 0.92016 0.0
C844 C 0.87821 0.81527 0.97879 0.0
C845 C 0.85844 0.82755 0.98493 0.0
C846 C 0.88794 0.81604 0.95672 0.0
C847 C 0.8781 0.82905 0.94024 0.0
C848 C 0.85788 0.84087 0.94612 0.0
H849 H 0.93968 0.858 0.80534 0.0
H850 H 0.90811 0.85112 0.83398 0.0
C851 C 0.84829 0.84026 0.96826 0.0
C852 C 0.88937 0.8304 0.91713 0.0
H853 H 0.91806 0.86307 0.88082 0.0
C854 C 0.89217 0.81256 0.90413 0.0
C855 C 0.89854 0.84892 0.90841 0.0
C856 C 0.89726 0.86847 0.92189 0.0
C857 C 0.90429 0.81267 0.88298 0.0
C858 C 0.91396 0.83106 0.87461 0.0
C859 C 0.91038 0.84901 0.88714 0.0
C860 C 0.93064 0.83171 0.85468 0.0
C861 C 0.90703 0.79304 0.86991 0.0
C862 C 0.95345 0.82256 0.8564 0.0
C863 C 0.97143 0.82661 0.84028 0.0
C864 C 0.96694 0.83975 0.82195 0.0
C865 C 0.94351 0.84759 0.81911 0.0
C866 C 0.92554 0.84379 0.83555 0.0
H867 H 0.89305 0.78177 0.87494 0.0
H868 H 0.9058 0.79563 0.85122 0.0
H869 H 0.92507 0.78648 0.87361 0.0
H870 H 0.95795 0.81344 0.87113 0.0
H871 H 0.98938 0.82049 0.84296 0.0
H872 H 0.63012 0.68794 0.49189 0.0
H873 H 0.61712 0.69139 0.45223 0.0
H874 H 0.67766 0.65516 0.43008 0.0
H875 H 0.6908 0.65158 0.4698 0.0
H876 H 0.63928 0.70648 0.41275 0.0
H877 H 0.61996 0.62387 0.40438 0.0
H878 H 0.62583 0.63581 0.4316 0.0
H879 H 0.65039 0.63038 0.41241 0.0
C880 C 0.64093 0.68096 0.47859 0.0
C881 C 0.66142 0.66934 0.48411 0.0
C882 C 0.63341 0.6829 0.45589 0.0
C883 C 0.64616 0.67326 0.43817 0.0
C884 C 0.66721 0.66236 0.44348 0.0
H885 H 0.58682 0.65336 0.30048 0.0
H886 H 0.61872 0.65845 0.32926 0.0
C887 C 0.6747 0.66034 0.46621 0.0
C888 C 0.63662 0.67392 0.41439 0.0
H889 H 0.61111 0.64422 0.37283 0.0
C890 C 0.63338 0.69284 0.4039 0.0
C891 C 0.62903 0.65612 0.40273 0.0
C892 C 0.63126 0.63539 0.41335 0.0
C893 C 0.62211 0.69448 0.38245 0.0
C894 C 0.61352 0.67677 0.3713 0.0
C895 C 0.61784 0.65779 0.38127 0.0
C896 C 0.59697 0.67759 0.35126 0.0
C897 C 0.61913 0.71522 0.3721 0.0
C898 C 0.57451 0.68726 0.35359 0.0
C899 C 0.55639 0.68433 0.33729 0.0
C900 C 0.56029 0.67168 0.31826 0.0
C901 C 0.58342 0.66339 0.31483 0.0
C902 C 0.60158 0.66616 0.33136 0.0
H903 H 0.63369 0.72571 0.37789 0.0
H904 H 0.61928 0.71448 0.35316 0.0
H905 H 0.60157 0.7217 0.37771 0.0
H906 H 0.57026 0.69581 0.36891 0.0
H907 H 0.53868 0.69082 0.34043 0.0
H908 H 0.32561 0.67512 0.05755 0.0
H909 H 0.34224 0.67511 0.09641 0.0
H910 H 0.40987 0.6986 0.07083 0.0
H911 H 0.39334 0.69892 0.03212 0.0
H912 H 0.38388 0.65389 0.11159 0.0
H913 H 0.39427 0.73665 0.125 0.0
H914 H 0.37502 0.72599 0.10305 0.0
H915 H 0.40717 0.72784 0.09862 0.0
C916 C 0.34392 0.68052 0.06026 0.0
C917 C 0.35814 0.68703 0.0417 0.0
C918 C 0.35342 0.68044 0.08246 0.0
C919 C 0.37717 0.68715 0.0866 0.0
C920 C 0.39135 0.69371 0.06813 0.0
H921 H 0.49213 0.68694 0.17817 0.0
H922 H 0.46046 0.69464 0.15072 0.0
C923 C 0.38196 0.69366 0.04595 0.0
C924 C 0.38779 0.68631 0.10992 0.0
H925 H 0.41727 0.71519 0.14983 0.0
C926 C 0.39076 0.66731 0.12023 0.0
C927 C 0.39664 0.70385 0.1212 0.0
C928 C 0.39293 0.72477 0.11153 0.0
C929 C 0.40386 0.66521 0.14069 0.0
C930 C 0.4138 0.68268 0.15141 0.0
C931 C 0.40963 0.7018 0.1417 0.0
C932 C 0.43157 0.68109 0.17045 0.0
C933 C 0.40833 0.64417 0.14978 0.0
C934 C 0.42574 0.67186 0.19139 0.0
C935 C 0.44401 0.66742 0.20729 0.0
C936 C 0.46829 0.6722 0.20241 0.0
C937 C 0.47361 0.68295 0.18235 0.0
C938 C 0.45549 0.68738 0.16661 0.0
H939 H 0.40279 0.63216 0.13744 0.0
H940 H 0.42779 0.6421 0.15389 0.0
H941 H 0.39778 0.64202 0.16571 0.0
H942 H 0.4073 0.66725 0.19496 0.0
H943 H 0.43939 0.65901 0.22252 0.0
H944 H 0.16395 0.81491 0.53719 0.0
H945 H 0.15039 0.8103 0.57684 0.0
H946 H 0.12309 0.87147 0.57789 0.0
H947 H 0.13666 0.87625 0.5386 0.0
H948 H 0.15853 0.83424 0.62016 0.0
H949 H 0.06342 0.83345 0.58963 0.0
H950 H 0.08884 0.82978 0.5707 0.0
H951 H 0.08088 0.85486 0.58019 0.0
C952 C 0.15544 0.82748 0.54602 0.0
C953 C 0.15102 0.84584 0.53457 0.0
C954 C 0.1477 0.82482 0.56866 0.0
C955 C 0.13545 0.84046 0.5802 0.0
C956 C 0.1322 0.8591 0.56921 0.0
H957 H 0.08367 0.86496 0.71586 0.0
H958 H 0.1112 0.85928 0.68364 0.0
C959 C 0.13986 0.86176 0.54668 0.0
C960 C 0.12427 0.83703 0.60297 0.0
H961 H 0.06935 0.83639 0.62955 0.0
C962 C 0.13902 0.83447 0.62227 0.0
C963 C 0.09884 0.83705 0.60565 0.0
C964 C 0.08201 0.83875 0.58545 0.0
C965 C 0.12894 0.83265 0.64432 0.0
C966 C 0.10349 0.83367 0.64709 0.0
C967 C 0.08885 0.83559 0.62759 0.0
C968 C 0.09122 0.83367 0.66982 0.0
C969 C 0.14563 0.82961 0.66436 0.0
C970 C 0.07132 0.82074 0.67347 0.0
C971 C 0.05542 0.82424 0.69162 0.0
C972 C 0.05931 0.84049 0.70677 0.0
C973 C 0.08057 0.85206 0.70468 0.0
C974 C 0.09631 0.84881 0.68619 0.0
H975 H 0.16293 0.82249 0.65896 0.0
H976 H 0.14999 0.84458 0.67209 0.0
H977 H 0.13706 0.81999 0.67763 0.0
H978 H 0.06699 0.80891 0.6612 0.0
H979 H 0.03899 0.81526 0.69272 0.0
H980 H 0.19989 0.28643 0.36728 0.0
H981 H 0.17046 0.26777 0.34412 0.0
H982 H 0.22757 0.24776 0.29925 0.0
H983 H 0.25735 0.26605 0.32273 0.0
H984 H 0.1593 0.27094 0.29666 0.0
H985 H 0.19435 0.19445 0.31923 0.0
H986 H 0.20256 0.21693 0.3352 0.0
H987 H 0.21563 0.21233 0.30761 0.0
C988 C 0.20627 0.27796 0.35258 0.0
C989 C 0.23106 0.27757 0.34704 0.0
C990 C 0.18937 0.26743 0.33924 0.0
C991 C 0.19682 0.25616 0.3201 0.0
C992 C 0.22144 0.25612 0.31412 0.0
H993 H 0.09534 0.16933 0.25406 0.0
H994 H 0.13142 0.19145 0.2566 0.0
C995 C 0.23841 0.26674 0.32745 0.0
C996 C 0.17861 0.24418 0.30697 0.0
H997 H 0.15871 0.1957 0.2976 0.0
C998 C 0.15938 0.25448 0.29654 0.0
C999 C 0.17882 0.2227 0.30659 0.0
C1000 C 0.19882 0.21084 0.31783 0.0
C1001 C 0.13983 0.2439 0.28672 0.0
C1002 C 0.13925 0.22246 0.28769 0.0
C1003 C 0.1592 0.21213 0.29679 0.0
C1004 C 0.11664 0.2108 0.28312 0.0
C1005 C 0.11955 0.25581 0.27604 0.0
C1006 C 0.09635 0.21449 0.29689 0.0
C1007 C 0.07607 0.20193 0.29555 0.0
C1008 C 0.07545 0.1854 0.28033 0.0
C1009 C 0.09523 0.18217 0.26566 0.0
C1010 C 0.11585 0.1947 0.26723 0.0
H1011 H 0.12618 0.27057 0.26939 0.0
H1012 H 0.11089 0.24719 0.26187 0.0
H1013 H 0.1056 0.25905 0.28919 0.0
H1014 H 0.09665 0.2265 0.30959 0.0
H1015 H 0.06111 0.20471 0.30712 0.0
H1016 H 0.32034 0.21693 0.85732 0.0
H1017 H 0.35182 0.23739 0.83911 0.0
H1018 H 0.29877 0.26257 0.79342 0.0
H1019 H 0.26712 0.24217 0.8116 0.0
H1020 H 0.36746 0.2379 0.79421 0.0
H1021 H 0.33088 0.31333 0.81923 0.0
H1022 H 0.32016 0.29004 0.83179 0.0
H1023 H 0.3103 0.29722 0.80374 0.0
C1024 C 0.31534 0.22676 0.84334 0.0
C1025 C 0.29113 0.22796 0.83603 0.0
C1026 C 0.33337 0.23849 0.83297 0.0
C1027 C 0.32766 0.25174 0.81507 0.0
C1028 C 0.30357 0.25283 0.80753 0.0
H1029 H 0.43025 0.33931 0.75277 0.0
H1030 H 0.39483 0.31651 0.7554 0.0
C1031 C 0.28548 0.24114 0.81796 0.0
C1032 C 0.34707 0.26425 0.80438 0.0
H1033 H 0.36659 0.31311 0.79733 0.0
C1034 C 0.36713 0.25435 0.79472 0.0
C1035 C 0.34662 0.28574 0.80483 0.0
C1036 C 0.32596 0.29728 0.8156 0.0
C1037 C 0.38701 0.2653 0.78617 0.0
C1038 C 0.38699 0.28673 0.7875 0.0
C1039 C 0.36649 0.29668 0.79616 0.0
C1040 C 0.40928 0.29886 0.7833 0.0
C1041 C 0.40816 0.25384 0.77624 0.0
C1042 C 0.42918 0.29631 0.79783 0.0
C1043 C 0.44909 0.30929 0.79649 0.0
C1044 C 0.4497 0.32511 0.78049 0.0
C1045 C 0.43036 0.3271 0.76508 0.0
C1046 C 0.41011 0.31419 0.76667 0.0
H1047 H 0.40258 0.2386 0.76993 0.0
H1048 H 0.41662 0.26235 0.76198 0.0
H1049 H 0.42203 0.25168 0.78971 0.0
H1050 H 0.42884 0.28484 0.81101 0.0
H1051 H 0.46372 0.3074 0.8086 0.0
H1052 H 0.69788 0.21631 0.6706 0.0
H1053 H 0.66858 0.23551 0.69325 0.0
H1054 H 0.72651 0.27142 0.72203 0.0
H1055 H 0.75595 0.25242 0.69912 0.0
H1056 H 0.66254 0.24144 0.73915 0.0
H1057 H 0.68285 0.31493 0.69695 0.0
H1058 H 0.69414 0.29111 0.68616 0.0
H1059 H 0.70831 0.30308 0.71038 0.0
C1060 C 0.70444 0.22817 0.6819 0.0
C1061 C 0.72927 0.23291 0.68291 0.0
C1062 C 0.68764 0.23918 0.69483 0.0
C1063 C 0.69524 0.25517 0.70909 0.0
C1064 C 0.7201 0.25951 0.71074 0.0
H1065 H 0.59704 0.34419 0.77375 0.0
H1066 H 0.63337 0.3228 0.76985 0.0
C1067 C 0.73692 0.2486 0.69765 0.0
C1068 C 0.67693 0.2675 0.72166 0.0
H1069 H 0.65278 0.31512 0.72528 0.0
C1070 C 0.66058 0.25759 0.73628 0.0
C1071 C 0.67438 0.28864 0.71807 0.0
C1072 C 0.69068 0.30009 0.70191 0.0
C1073 C 0.64139 0.26807 0.74677 0.0
C1074 C 0.6383 0.28899 0.74244 0.0
C1075 C 0.65529 0.29911 0.72874 0.0
C1076 C 0.6158 0.29994 0.74891 0.0
C1077 C 0.62421 0.25658 0.76202 0.0
C1078 C 0.59381 0.29396 0.73895 0.0
C1079 C 0.57332 0.30615 0.74099 0.0
C1080 C 0.57427 0.32453 0.75321 0.0
C1081 C 0.59577 0.32993 0.76455 0.0
C1082 C 0.61652 0.3178 0.76219 0.0
H1083 H 0.63301 0.24298 0.76942 0.0
H1084 H 0.61744 0.26635 0.77612 0.0
H1085 H 0.60845 0.25135 0.75179 0.0
H1086 H 0.59287 0.2805 0.72828 0.0
H1087 H 0.55702 0.30177 0.7319 0.0
H1088 H 0.76341 0.26784 0.22187 0.0
H1089 H 0.79649 0.2479 0.2381 0.0
H1090 H 0.84377 0.26789 0.18408 0.0
H1091 H 0.8111 0.28833 0.16816 0.0
H1092 H 0.82305 0.21651 0.21914 0.0
H1093 H 0.8834 0.28088 0.24101 0.0
H1094 H 0.85186 0.28426 0.23395 0.0
H1095 H 0.87403 0.28115 0.21168 0.0
C1096 C 0.78093 0.26818 0.21356 0.0
C1097 C 0.78458 0.27984 0.19375 0.0
C1098 C 0.79979 0.25667 0.22281 0.0
C1099 C 0.82277 0.25669 0.21259 0.0
C1100 C 0.82636 0.26798 0.19258 0.0
H1101 H 0.95626 0.19679 0.21119 0.0
H1102 H 0.92084 0.2185 0.20865 0.0
C1103 C 0.80753 0.27946 0.18331 0.0
C1104 C 0.84289 0.24453 0.22239 0.0
H1105 H 0.90178 0.24794 0.2399 0.0
C1106 C 0.84014 0.22339 0.22407 0.0
C1107 C 0.86511 0.25353 0.22906 0.0
C1108 C 0.86874 0.27622 0.22908 0.0
C1109 C 0.85949 0.21093 0.23084 0.0
C1110 C 0.88208 0.21988 0.23634 0.0
C1111 C 0.88446 0.24109 0.23569 0.0
C1112 C 0.90424 0.20748 0.23964 0.0
C1113 C 0.85606 0.18822 0.23082 0.0
C1114 C 0.90704 0.1943 0.2583 0.0
C1115 C 0.92756 0.18178 0.25987 0.0
C1116 C 0.9454 0.18224 0.24275 0.0
C1117 C 0.94277 0.19595 0.2246 0.0
C1118 C 0.92254 0.20845 0.22313 0.0
H1119 H 0.83836 0.18359 0.22343 0.0
H1120 H 0.87075 0.18077 0.22095 0.0
H1121 H 0.85697 0.18257 0.24861 0.0
H1122 H 0.89322 0.19345 0.27137 0.0
H1123 H 0.92893 0.17121 0.27386 0.0
H1124 H 0.78689 0.7637 0.66973 0.0
H1125 H 0.81615 0.78142 0.69395 0.0
H1126 H 0.83968 0.72431 0.72159 0.0
H1127 H 0.81093 0.70633 0.69678 0.0
H1128 H 0.82241 0.78255 0.74146 0.0
H1129 H 0.90278 0.7492 0.69802 0.0
H1130 H 0.87272 0.74734 0.68615 0.0
H1131 H 0.88131 0.7315 0.70963 0.0
C1132 C 0.79838 0.75484 0.68083 0.0
C1133 C 0.79672 0.73353 0.68103 0.0
C1134 C 0.81497 0.76503 0.69484 0.0
C1135 C 0.83039 0.75421 0.70938 0.0
C1136 C 0.82827 0.73298 0.71025 0.0
H1137 H 0.95862 0.81149 0.77289 0.0
H1138 H 0.92533 0.78666 0.76957 0.0
C1139 C 0.81163 0.72273 0.6962 0.0
C1140 C 0.84909 0.76533 0.72289 0.0
H1141 H 0.91009 0.77364 0.72637 0.0
C1142 C 0.8416 0.7804 0.73839 0.0
C1143 C 0.87417 0.76245 0.71907 0.0
C1144 C 0.88336 0.74687 0.70222 0.0
C1145 C 0.85841 0.79317 0.74943 0.0
C1146 C 0.88338 0.79104 0.74461 0.0
C1147 C 0.89097 0.77522 0.73015 0.0
C1148 C 0.90143 0.80683 0.75125 0.0
C1149 C 0.84924 0.80917 0.76573 0.0
C1150 C 0.89879 0.82654 0.74272 0.0
C1151 C 0.9177 0.84054 0.74447 0.0
C1152 C 0.93967 0.83523 0.75488 0.0
C1153 C 0.94175 0.81605 0.76504 0.0
C1154 C 0.92282 0.80184 0.763 0.0
H1155 H 0.83192 0.80441 0.77377 0.0
H1156 H 0.86265 0.81251 0.77937 0.0
H1157 H 0.84578 0.82336 0.75616 0.0
H1158 H 0.88276 0.83069 0.73322 0.0
H1159 H 0.91568 0.85518 0.73636 0.0
H1160 H 0.71424 0.81018 0.21126 0.0
H1161 H 0.68445 0.78808 0.22957 0.0
H1162 H 0.71588 0.73614 0.19591 0.0
H1163 H 0.74625 0.75804 0.17811 0.0
H1164 H 0.65022 0.76361 0.2101 0.0
H1165 H 0.7127 0.71715 0.26177 0.0
H1166 H 0.72196 0.74058 0.24848 0.0
H1167 H 0.72065 0.71745 0.23206 0.0
C1168 C 0.71506 0.79401 0.20797 0.0
C1169 C 0.73284 0.78591 0.1933 0.0
C1170 C 0.69791 0.78141 0.21839 0.0
C1171 C 0.69818 0.76038 0.21453 0.0
C1172 C 0.71563 0.75225 0.19962 0.0
H1173 H 0.61003 0.6572 0.22866 0.0
H1174 H 0.64272 0.68199 0.2261 0.0
C1175 C 0.7328 0.76485 0.18917 0.0
C1176 C 0.67957 0.74705 0.22524 0.0
H1177 H 0.67243 0.70404 0.25695 0.0
C1178 C 0.65503 0.75078 0.22067 0.0
C1179 C 0.68583 0.73038 0.23917 0.0
C1180 C 0.71171 0.72625 0.24588 0.0
C1181 C 0.63673 0.73767 0.22853 0.0
C1182 C 0.64308 0.72052 0.24167 0.0
C1183 C 0.66754 0.71723 0.24698 0.0
C1184 C 0.62503 0.70448 0.24725 0.0
C1185 C 0.61086 0.74166 0.22162 0.0
C1186 C 0.60469 0.7084 0.26107 0.0
C1187 C 0.58588 0.69406 0.26273 0.0
C1188 C 0.5872 0.67571 0.25045 0.0
C1189 C 0.60845 0.67126 0.23821 0.0
C1190 C 0.62717 0.68544 0.23671 0.0
H1191 H 0.60949 0.75376 0.20855 0.0
H1192 H 0.60235 0.72763 0.21473 0.0
H1193 H 0.60035 0.74651 0.23684 0.0
H1194 H 0.60284 0.72289 0.26969 0.0
H1195 H 0.56968 0.69791 0.27221 0.0
H1196 H 0.28603 0.74785 0.35419 0.0
H1197 H 0.31581 0.73037 0.33043 0.0
H1198 H 0.34056 0.78777 0.30416 0.0
H1199 H 0.31127 0.8055 0.32851 0.0
H1200 H 0.32312 0.72991 0.28294 0.0
H1201 H 0.40285 0.76236 0.32858 0.0
H1202 H 0.37255 0.76409 0.3399 0.0
H1203 H 0.38184 0.7803 0.31694 0.0
C1204 C 0.29791 0.75682 0.34352 0.0
C1205 C 0.2964 0.77814 0.34354 0.0
C1206 C 0.3148 0.74677 0.32976 0.0
C1207 C 0.33068 0.75774 0.31572 0.0
C1208 C 0.32878 0.77898 0.31512 0.0
H1209 H 0.45979 0.70178 0.25307 0.0
H1210 H 0.42656 0.72647 0.25655 0.0
C1211 C 0.31184 0.78909 0.32891 0.0
C1212 C 0.34956 0.74676 0.30237 0.0
H1213 H 0.41056 0.73847 0.29975 0.0
C1214 C 0.34226 0.73198 0.2864 0.0
C1215 C 0.37458 0.74954 0.30669 0.0
C1216 C 0.38355 0.76481 0.32405 0.0
C1217 C 0.3592 0.71941 0.27534 0.0
C1218 C 0.38409 0.72144 0.28062 0.0
C1219 C 0.3915 0.73697 0.2956 0.0
C1220 C 0.40218 0.70582 0.2738 0.0
C1221 C 0.35022 0.70374 0.25848 0.0
C1222 C 0.39927 0.6859 0.28165 0.0
C1223 C 0.41813 0.67197 0.2798 0.0
C1224 C 0.44034 0.67758 0.26995 0.0
C1225 C 0.44273 0.697 0.26045 0.0
C1226 C 0.42383 0.71113 0.26259 0.0
H1227 H 0.33311 0.70868 0.25027 0.0
H1228 H 0.36388 0.70068 0.24498 0.0
H1229 H 0.34646 0.68937 0.26761 0.0
H1230 H 0.38302 0.68149 0.29075 0.0
H1231 H 0.41591 0.65714 0.28744 0.0
H1232 H 0.25791 0.74583 0.81395 0.0
H1233 H 0.22654 0.76747 0.79755 0.0
H1234 H 0.17202 0.73523 0.83569 0.0
H1235 H 0.20326 0.71351 0.85218 0.0
H1236 H 0.18478 0.75889 0.77161 0.0
H1237 H 0.16161 0.79412 0.85509 0.0
H1238 H 0.18842 0.77898 0.85101 0.0
H1239 H 0.15943 0.76694 0.85467 0.0
C1240 C 0.23922 0.74321 0.81873 0.0
C1241 C 0.23317 0.728 0.83456 0.0
C1242 C 0.2213 0.75562 0.80933 0.0
C1243 C 0.19694 0.75315 0.81556 0.0
C1244 C 0.19074 0.73768 0.83093 0.0
H1245 H 0.06823 0.81175 0.75847 0.0
H1246 H 0.10167 0.78769 0.7639 0.0
C1247 C 0.20865 0.72532 0.84041 0.0
C1248 C 0.1782 0.76725 0.80666 0.0
H1249 H 0.13694 0.80266 0.82373 0.0
C1250 C 0.17429 0.76848 0.78297 0.0
C1251 C 0.16471 0.77993 0.82147 0.0
C1252 C 0.16884 0.78013 0.84696 0.0
C1253 C 0.15716 0.78198 0.77375 0.0
C1254 C 0.14346 0.79441 0.78864 0.0
C1255 C 0.1474 0.79311 0.81229 0.0
C1256 C 0.12541 0.80947 0.78045 0.0
C1257 C 0.15424 0.78316 0.7482 0.0
C1258 C 0.12791 0.82984 0.78711 0.0
C1259 C 0.10884 0.84342 0.78423 0.0
C1260 C 0.0869 0.83701 0.77443 0.0
C1261 C 0.0851 0.81714 0.76577 0.0
C1262 C 0.10419 0.80338 0.76894 0.0
H1263 H 0.16981 0.77623 0.73906 0.0
H1264 H 0.13758 0.77485 0.7431 0.0
H1265 H 0.15233 0.79916 0.74265 0.0
H1266 H 0.14409 0.83495 0.7959 0.0
H1267 H 0.11067 0.85864 0.79112 0.0
loop_
_geom_bond_atom_site_label_1
_geom_bond_atom_site_label_2
_geom_bond_distance
_geom_bond_site_symmetry_2
_ccdc_geom_bond_type
C0 C1 1.264 . S
C0 C5 1.479 . S
C0 C10 1.465 . S
C1 C0 1.264 . S
C1 C3 1.339 . S
C1 H28 0.931 . S
C2 C3 1.395 . S
C2 C4 1.320 . S
C3 C1 1.339 . S
C3 C2 1.395 . S
C3 H29 0.929 . S
C4 C2 1.320 . S
C4 C5 1.405 . S
C4 H30 0.930 . S
C5 C0 1.479 . S
C5 C4 1.405 . S
C5 H31 0.931 . S
U6 O7 2.454 . S
U6 O8 2.458 . S
U6 C9 2.984 . S
U6 C10 2.847 . S
U6 C23 2.882 . S
U6 O24 2.441 . S
U6 O25 2.420 . S
U6 O26 2.455 . S
U6 O27 2.449 . S
O7 U6 2.454 . S
O7 C9 1.353 . S
O8 U6 2.458 . S
O8 C9 1.286 . S
C9 U6 2.984 . S
C9 O7 1.353 . S
C9 O8 1.286 . S
C9 C11 1.363 . S
C10 C0 1.465 . S
C10 U6 2.847 . S
C10 O24 1.249 . S
C10 O25 1.202 . S
C11 C9 1.363 . S
C11 C13 1.408 . S
C11 C16 1.342 . S
C12 C13 1.310 . S
C12 C15 1.461 . S
C12 H32 0.932 . S
C13 C11 1.408 . S
C13 C12 1.310 . S
C13 H33 0.930 . S
C14 C15 1.474 . S
C14 C16 1.285 . S
C14 H34 0.929 . S
C15 C12 1.461 . S
C15 C14 1.474 . S
C16 C11 1.342 . S
C16 C14 1.285 . S
C16 H35 0.930 . S
C17 C20 1.424 . S
C17 C22 1.245 . S
C17 C23 1.428 . S
C18 C21 1.260 . S
C18 C22 1.477 . S
C18 H36 0.932 . S
C19 C20 1.384 . S
C19 C21 1.479 . S
C19 H37 0.929 . S
C20 C17 1.424 . S
C20 C19 1.384 . S
C20 H38 0.928 . S
C21 C18 1.260 . S
C21 C19 1.479 . S
C22 C17 1.245 . S
C22 C18 1.477 . S
C22 H39 0.932 . S
C23 U6 2.882 . S
C23 C17 1.428 . S
C23 O26 1.301 . S
C23 O27 1.282 . S
O24 U6 2.441 . S
O24 C10 1.249 . S
O25 U6 2.420 . S
O25 C10 1.202 . S
O26 U6 2.455 . S
O26 C23 1.301 . S
O27 U6 2.449 . S
O27 C23 1.282 . S
H28 C1 0.931 . S
H29 C3 0.929 . S
H30 C4 0.930 . S
H31 C5 0.931 . S
H32 C12 0.932 . S
H33 C13 0.930 . S
H34 C14 0.929 . S
H35 C16 0.930 . S
H36 C18 0.932 . S
H37 C19 0.929 . S
H38 C20 0.928 . S
H39 C22 0.932 . S
C40 C41 1.264 . S
C40 C45 1.479 . S
C40 C50 1.465 . S
C41 C40 1.264 . S
C41 C43 1.339 . S
C41 H68 0.931 . S
C42 C43 1.395 . S
C42 C44 1.320 . S
C43 C41 1.339 . S
C43 C42 1.395 . S
C43 H69 0.929 . S
C44 C42 1.320 . S
C44 C45 1.405 . S
C44 H70 0.930 1_556 S
C45 C40 1.479 . S
C45 C44 1.405 . S
C45 H71 0.931 . S
U46 O47 2.454 . S
U46 O48 2.458 . S
U46 C49 2.984 . S
U46 C50 2.847 . S
U46 C63 2.882 . S
U46 O64 2.441 . S
U46 O65 2.420 . S
U46 O66 2.455 . S
U46 O67 2.449 . S
O47 U46 2.454 . S
O47 C49 1.353 . S
O48 U46 2.458 . S
O48 C49 1.286 . S
C49 U46 2.984 . S
C49 O47 1.353 . S
C49 O48 1.286 . S
C49 C51 1.363 . S
C50 C40 1.465 . S
C50 U46 2.847 . S
C50 O64 1.249 . S
C50 O65 1.202 . S
C51 C49 1.363 . S
C51 C53 1.408 . S
C51 C56 1.342 . S
C52 C53 1.310 . S
C52 C55 1.461 . S
C52 H72 0.932 . S
C53 C51 1.408 . S
C53 C52 1.310 . S
C53 H73 0.930 . S
C54 C55 1.474 . S
C54 C56 1.285 . S
C54 H74 0.929 . S
C55 C52 1.461 . S
C55 C54 1.474 . S
C56 C51 1.342 . S
C56 C54 1.285 . S
C56 H75 0.930 . S
C57 C60 1.424 . S
C57 C62 1.245 . S
C57 C63 1.428 . S
C58 C61 1.260 . S
C58 C62 1.477 . S
C58 H76 0.932 . S
C59 C60 1.384 . S
C59 C61 1.479 . S
C59 H77 0.929 . S
C60 C57 1.424 . S
C60 C59 1.384 . S
C60 H78 0.928 . S
C61 C58 1.260 . S
C61 C59 1.479 . S
C62 C57 1.245 . S
C62 C58 1.477 . S
C62 H79 0.932 . S
C63 U46 2.882 . S
C63 C57 1.428 . S
C63 O66 1.301 . S
C63 O67 1.282 . S
O64 U46 2.441 . S
O64 C50 1.249 . S
O65 U46 2.420 . S
O65 C50 1.202 . S
O66 U46 2.455 . S
O66 C63 1.301 . S
O67 U46 2.449 . S
O67 C63 1.282 . S
H68 C41 0.931 . S
H69 C43 0.929 . S
H70 C44 0.930 1_554 S
H71 C45 0.931 . S
H72 C52 0.932 . S
H73 C53 0.930 . S
H74 C54 0.929 . S
H75 C56 0.930 . S
H76 C58 0.932 . S
H77 C59 0.929 . S
H78 C60 0.928 . S
H79 C62 0.932 . S
C80 C81 1.264 . S
C80 C85 1.479 . S
C80 C90 1.465 . S
C81 C80 1.264 . S
C81 C83 1.339 . S
C81 H108 0.931 . S
C82 C83 1.395 . S
C82 C84 1.320 . S
C83 C81 1.339 . S
C83 C82 1.395 . S
C83 H109 0.929 . S
C84 C82 1.320 . S
C84 C85 1.405 . S
C84 H110 0.930 . S
C85 C80 1.479 . S
C85 C84 1.405 . S
C85 H111 0.931 . S
U86 O87 2.454 . S
U86 O88 2.458 . S
U86 C89 2.984 . S
U86 C90 2.847 . S
U86 C103 2.882 . S
U86 O104 2.441 . S
U86 O105 2.420 . S
U86 O106 2.455 . S
U86 O107 2.449 . S
O87 U86 2.454 . S
O87 C89 1.353 . S
O88 U86 2.458 . S
O88 C89 1.286 . S
C89 U86 2.984 . S
C89 O87 1.353 . S
C89 O88 1.286 . S
C89 C91 1.363 . S
C90 C80 1.465 . S
C90 U86 2.847 . S
C90 O104 1.249 . S
C90 O105 1.202 . S
C91 C89 1.363 . S
C91 C93 1.408 . S
C91 C96 1.342 . S
C92 C93 1.310 . S
C92 C95 1.461 . S
C92 H112 0.932 . S
C93 C91 1.408 . S
C93 C92 1.310 . S
C93 H113 0.930 . S
C94 C95 1.474 . S
C94 C96 1.285 . S
C94 H114 0.929 . S
C95 C92 1.461 . S
C95 C94 1.474 . S
C96 C91 1.342 . S
C96 C94 1.285 . S
C96 H115 0.930 . S
C97 C100 1.424 . S
C97 C102 1.245 . S
C97 C103 1.428 . S
C98 C101 1.260 . S
C98 C102 1.477 . S
C98 H116 0.932 . S
C99 C100 1.384 . S
C99 C101 1.479 . S
C99 H117 0.929 . S
C100 C97 1.424 . S
C100 C99 1.384 . S
C100 H118 0.928 . S
C101 C98 1.260 . S
C101 C99 1.479 . S
C102 C97 1.245 . S
C102 C98 1.477 . S
C102 H119 0.932 . S
C103 U86 2.882 . S
C103 C97 1.428 . S
C103 O106 1.301 . S
C103 O107 1.282 . S
O104 U86 2.441 . S
O104 C90 1.249 . S
O105 U86 2.420 . S
O105 C90 1.202 . S
O106 U86 2.455 . S
O106 C103 1.301 . S
O107 U86 2.449 . S
O107 C103 1.282 . S
H108 C81 0.931 . S
H109 C83 0.929 . S
H110 C84 0.930 . S
H111 C85 0.931 . S
H112 C92 0.932 . S
H113 C93 0.930 . S
H114 C94 0.929 . S
H115 C96 0.930 . S
H116 C98 0.932 . S
H117 C99 0.929 . S
H118 C100 0.928 . S
H119 C102 0.932 . S
C120 C121 1.264 . S
C120 C125 1.479 . S
C120 C130 1.465 . S
C121 C120 1.264 . S
C121 C123 1.339 . S
C121 H148 0.931 . S
C122 C123 1.395 . S
C122 C124 1.320 . S
C123 C121 1.339 . S
C123 C122 1.395 . S
C123 H149 0.929 . S
C124 C122 1.320 . S
C124 C125 1.405 . S
C124 H150 0.963 . S
C125 C120 1.479 . S
C125 C124 1.405 . S
C125 H151 0.931 . S
U126 O127 2.454 . S
U126 O128 2.458 . S
U126 C129 2.984 . S
U126 C130 2.847 . S
U126 C143 2.882 . S
U126 O144 2.441 . S
U126 O145 2.420 . S
U126 O146 2.455 . S
U126 O147 2.449 . S
O127 U126 2.454 . S
O127 C129 1.353 . S
O128 U126 2.458 . S
O128 C129 1.286 . S
C129 U126 2.984 . S
C129 O127 1.353 . S
C129 O128 1.286 . S
C129 C131 1.363 . S
C130 C120 1.465 . S
C130 U126 2.847 . S
C130 O144 1.249 . S
C130 O145 1.202 . S
C131 C129 1.363 . S
C131 C133 1.408 . S
C131 C136 1.342 . S
C132 C133 1.310 . S
C132 C135 1.461 . S
C132 H152 0.932 . S
C133 C131 1.408 . S
C133 C132 1.310 . S
C133 H153 0.930 . S
C134 C135 1.474 . S
C134 C136 1.285 . S
C134 H154 0.929 . S
C135 C132 1.461 . S
C135 C134 1.474 . S
C136 C131 1.342 . S
C136 C134 1.285 . S
C136 H155 0.930 . S
C137 C140 1.424 . S
C137 C142 1.245 . S
C137 C143 1.428 . S
C138 C141 1.260 . S
C138 C142 1.477 . S
C138 H156 0.932 . S
C139 C140 1.384 . S
C139 C141 1.479 . S
C139 H157 0.929 . S
C140 C137 1.424 . S
C140 C139 1.384 . S
C140 H158 0.928 . S
C141 C138 1.260 . S
C141 C139 1.479 . S
C142 C137 1.245 . S
C142 C138 1.477 . S
C142 H159 0.932 . S
C143 U126 2.882 . S
C143 C137 1.428 . S
C143 O146 1.301 . S
C143 O147 1.282 . S
O144 U126 2.441 . S
O144 C130 1.249 . S
O145 U126 2.420 . S
O145 C130 1.202 . S
O146 U126 2.455 . S
O146 C143 1.301 . S
O147 U126 2.449 . S
O147 C143 1.282 . S
H148 C121 0.931 . S
H149 C123 0.929 . S
H150 C124 0.963 . S
H151 C125 0.931 . S
H152 C132 0.932 . S
H153 C133 0.930 . S
H154 C134 0.929 . S
H155 C136 0.930 . S
H156 C138 0.932 . S
H157 C139 0.929 . S
H158 C140 0.928 . S
H159 C142 0.932 . S
C160 C161 1.264 . S
C160 C165 1.479 . S
C160 C170 1.465 . S
C161 C160 1.264 . S
C161 C163 1.339 . S
C161 H188 0.931 . S
C162 C163 1.395 . S
C162 C164 1.320 . S
C163 C161 1.339 . S
C163 C162 1.395 . S
C163 H189 0.929 . S
C164 C162 1.320 . S
C164 C165 1.405 . S
C164 H190 0.930 . S
C165 C160 1.479 . S
C165 C164 1.405 . S
C165 H191 0.931 . S
U166 O167 2.454 . S
U166 O168 2.458 . S
U166 C169 2.984 . S
U166 C170 2.847 . S
U166 C183 2.882 . S
U166 O184 2.441 . S
U166 O185 2.420 . S
U166 O186 2.455 . S
U166 O187 2.449 . S
O167 U166 2.454 . S
O167 C169 1.353 . S
O168 U166 2.458 . S
O168 C169 1.286 . S
C169 U166 2.984 . S
C169 O167 1.353 . S
C169 O168 1.286 . S
C169 C171 1.363 . S
C170 C160 1.465 . S
C170 U166 2.847 . S
C170 O184 1.249 . S
C170 O185 1.202 . S
C171 C169 1.363 . S
C171 C173 1.408 . S
C171 C176 1.342 . S
C172 C173 1.310 . S
C172 C175 1.461 . S
C172 H192 0.932 . S
C173 C171 1.408 . S
C173 C172 1.310 . S
C173 H193 0.930 . S
C174 C175 1.474 . S
C174 C176 1.285 . S
C174 H194 0.929 . S
C175 C172 1.461 . S
C175 C174 1.474 . S
C176 C171 1.342 . S
C176 C174 1.285 . S
C176 H195 0.930 . S
C177 C180 1.424 . S
C177 C182 1.245 . S
C177 C183 1.428 . S
C178 C181 1.260 . S
C178 C182 1.477 . S
C178 H196 0.932 . S
C179 C180 1.384 . S
C179 C181 1.479 . S
C179 H197 0.929 . S
C180 C177 1.424 . S
C180 C179 1.384 . S
C180 H198 0.928 . S
C181 C178 1.260 . S
C181 C179 1.479 . S
C182 C177 1.245 . S
C182 C178 1.477 . S
C182 H199 0.932 . S
C183 U166 2.882 . S
C183 C177 1.428 . S
C183 O186 1.301 . S
C183 O187 1.282 . S
O184 U166 2.441 . S
O184 C170 1.249 . S
O185 U166 2.420 . S
O185 C170 1.202 . S
O186 U166 2.455 . S
O186 C183 1.301 . S
O187 U166 2.449 . S
O187 C183 1.282 . S
H188 C161 0.931 . S
H189 C163 0.929 . S
H190 C164 0.930 . S
H191 C165 0.931 . S
H192 C172 0.932 . S
H193 C173 0.930 . S
H194 C174 0.929 . S
H195 C176 0.930 . S
H196 C178 0.932 . S
H197 C179 0.929 . S
H198 C180 0.928 . S
H199 C182 0.932 . S
C200 C201 1.264 . S
C200 C205 1.479 . S
C200 C210 1.465 . S
C201 C200 1.264 . S
C201 C203 1.339 . S
C201 H228 0.931 . S
C202 C203 1.394 . S
C202 C204 1.320 . S
C203 C201 1.339 . S
C203 C202 1.394 . S
C203 H229 0.929 . S
C204 C202 1.320 . S
C204 C205 1.405 . S
C204 H230 0.913 1_554 S
C205 C200 1.479 . S
C205 C204 1.405 . S
C205 H231 0.931 . S
U206 O207 2.454 . S
U206 O208 2.458 . S
U206 C209 2.984 . S
U206 C210 2.847 . S
U206 C223 2.882 . S
U206 O224 2.441 . S
U206 O225 2.420 . S
U206 O226 2.455 . S
U206 O227 2.449 . S
O207 U206 2.454 . S
O207 C209 1.353 . S
O208 U206 2.458 . S
O208 C209 1.286 . S
C209 U206 2.984 . S
C209 O207 1.353 . S
C209 O208 1.286 . S
C209 C211 1.363 . S
C210 C200 1.465 . S
C210 U206 2.847 . S
C210 O224 1.249 . S
C210 O225 1.202 . S
C211 C209 1.363 . S
C211 C213 1.408 . S
C211 C216 1.342 . S
C212 C213 1.310 . S
C212 C215 1.461 . S
C212 H232 0.932 . S
C213 C211 1.408 . S
C213 C212 1.310 . S
C213 H233 0.930 . S
C214 C215 1.474 . S
C214 C216 1.285 . S
C214 H234 0.929 . S
C215 C212 1.461 . S
C215 C214 1.474 . S
C216 C211 1.342 . S
C216 C214 1.285 . S
C216 H235 0.930 . S
C217 C220 1.424 . S
C217 C222 1.245 . S
C217 C223 1.428 . S
C218 C221 1.260 . S
C218 C222 1.477 . S
C218 H236 0.932 . S
C219 C220 1.384 . S
C219 C221 1.479 . S
C219 H237 0.929 . S
C220 C217 1.424 . S
C220 C219 1.384 . S
C220 H238 0.928 . S
C221 C218 1.260 . S
C221 C219 1.479 . S
C222 C217 1.245 . S
C222 C218 1.477 . S
C222 H239 0.932 . S
C223 U206 2.882 . S
C223 C217 1.428 . S
C223 O226 1.301 . S
C223 O227 1.282 . S
O224 U206 2.441 . S
O224 C210 1.249 . S
O225 U206 2.420 . S
O225 C210 1.202 . S
O226 U206 2.455 . S
O226 C223 1.301 . S
O227 U206 2.449 . S
O227 C223 1.282 . S
H228 C201 0.931 . S
H229 C203 0.929 . S
H230 C204 0.913 1_556 S
H231 C205 0.931 . S
H232 C212 0.932 . S
H233 C213 0.930 . S
H234 C214 0.929 . S
H235 C216 0.930 . S
H236 C218 0.932 . S
H237 C219 0.929 . S
H238 C220 0.928 . S
H239 C222 0.932 . S
C240 C241 1.264 . S
C240 C245 1.479 . S
C240 C250 1.465 . S
C241 C240 1.264 . S
C241 C243 1.339 . S
C241 H268 0.931 . S
C242 C243 1.395 . S
C242 C244 1.320 . S
C243 C241 1.339 . S
C243 C242 1.395 . S
C243 H269 0.929 . S
C244 C242 1.320 . S
C244 C245 1.405 . S
C244 H270 0.930 . S
C245 C240 1.479 . S
C245 C244 1.405 . S
C245 H271 0.931 . S
U246 O247 2.454 . S
U246 O248 2.458 . S
U246 C249 2.984 . S
U246 C250 2.847 . S
U246 C263 2.882 . S
U246 O264 2.441 . S
U246 O265 2.420 . S
U246 O266 2.455 . S
U246 O267 2.449 . S
O247 U246 2.454 . S
O247 C249 1.353 . S
O248 U246 2.458 . S
O248 C249 1.286 . S
C249 U246 2.984 . S
C249 O247 1.353 . S
C249 O248 1.286 . S
C249 C251 1.363 . S
C250 C240 1.465 . S
C250 U246 2.847 . S
C250 O264 1.249 . S
C250 O265 1.202 . S
C251 C249 1.363 . S
C251 C253 1.408 . S
C251 C256 1.342 . S
C252 C253 1.310 . S
C252 C255 1.461 . S
C252 H272 0.932 . S
C253 C251 1.408 . S
C253 C252 1.310 . S
C253 H273 0.930 . S
C254 C255 1.474 . S
C254 C256 1.285 . S
C254 H274 0.929 . S
C255 C252 1.461 . S
C255 C254 1.474 . S
C256 C251 1.342 . S
C256 C254 1.285 . S
C256 H275 0.930 . S
C257 C260 1.424 . S
C257 C262 1.245 . S
C257 C263 1.428 . S
C258 C261 1.260 . S
C258 C262 1.477 . S
C258 H276 0.932 . S
C259 C260 1.384 . S
C259 C261 1.479 . S
C259 H277 0.929 . S
C260 C257 1.424 . S
C260 C259 1.384 . S
C260 H278 0.928 . S
C261 C258 1.260 . S
C261 C259 1.479 . S
C262 C257 1.245 . S
C262 C258 1.477 . S
C262 H279 0.932 . S
C263 U246 2.882 . S
C263 C257 1.428 . S
C263 O266 1.301 . S
C263 O267 1.282 . S
O264 U246 2.441 . S
O264 C250 1.249 . S
O265 U246 2.420 . S
O265 C250 1.202 . S
O266 U246 2.455 . S
O266 C263 1.301 . S
O267 U246 2.449 . S
O267 C263 1.282 . S
H268 C241 0.931 . S
H269 C243 0.929 . S
H270 C244 0.930 . S
H271 C245 0.931 . S
H272 C252 0.932 . S
H273 C253 0.930 . S
H274 C254 0.929 . S
H275 C256 0.930 . S
H276 C258 0.932 . S
H277 C259 0.929 . S
H278 C260 0.928 . S
H279 C262 0.932 . S
C280 C281 1.264 . S
C280 C285 1.479 . S
C280 C290 1.465 . S
C281 C280 1.264 . S
C281 C283 1.339 . S
C281 H308 0.931 . S
C282 C283 1.395 . S
C282 C284 1.320 . S
C283 C281 1.339 . S
C283 C282 1.395 . S
C283 H309 0.929 . S
C284 C282 1.320 . S
C284 C285 1.405 . S
C284 H310 0.930 . S
C285 C280 1.479 . S
C285 C284 1.405 . S
C285 H311 0.931 . S
U286 O287 2.454 . S
U286 O288 2.458 . S
U286 C289 2.984 . S
U286 C290 2.847 . S
U286 C303 2.882 . S
U286 O304 2.441 . S
U286 O305 2.420 . S
U286 O306 2.455 . S
U286 O307 2.449 . S
O287 U286 2.454 . S
O287 C289 1.353 . S
O288 U286 2.458 . S
O288 C289 1.286 . S
C289 U286 2.984 . S
C289 O287 1.353 . S
C289 O288 1.286 . S
C289 C291 1.363 . S
C290 C280 1.465 . S
C290 U286 2.847 . S
C290 O304 1.249 . S
C290 O305 1.202 . S
C291 C289 1.363 . S
C291 C293 1.408 . S
C291 C296 1.342 . S
C292 C293 1.310 . S
C292 C295 1.461 . S
C292 H312 0.932 . S
C293 C291 1.408 . S
C293 C292 1.310 . S
C293 H313 0.930 . S
C294 C295 1.474 . S
C294 C296 1.285 . S
C294 H314 0.929 . S
C295 C292 1.461 . S
C295 C294 1.474 . S
C296 C291 1.342 . S
C296 C294 1.285 . S
C296 H315 0.930 . S
C297 C300 1.424 . S
C297 C302 1.245 . S
C297 C303 1.428 . S
C298 C301 1.260 . S
C298 C302 1.477 . S
C298 H316 0.932 . S
C299 C300 1.384 . S
C299 C301 1.479 . S
C299 H317 0.929 . S
C300 C297 1.424 . S
C300 C299 1.384 . S
C300 H318 0.928 . S
C301 C298 1.260 . S
C301 C299 1.479 . S
C302 C297 1.245 . S
C302 C298 1.477 . S
C302 H319 0.932 . S
C303 U286 2.882 . S
C303 C297 1.428 . S
C303 O306 1.301 . S
C303 O307 1.282 . S
O304 U286 2.441 . S
O304 C290 1.249 . S
O305 U286 2.420 . S
O305 C290 1.202 . S
O306 U286 2.455 . S
O306 C303 1.301 . S
O307 U286 2.449 . S
O307 C303 1.282 . S
H308 C281 0.931 . S
H309 C283 0.929 . S
H310 C284 0.930 . S
H311 C285 0.931 . S
H312 C292 0.932 . S
H313 C293 0.930 . S
H314 C294 0.929 . S
H315 C296 0.930 . S
H316 C298 0.932 . S
H317 C299 0.929 . S
H318 C300 0.928 . S
H319 C302 0.932 . S
Zn320 O326 1.920 1_455 S
Zn320 O332 1.898 . S
Zn320 O335 1.905 . S
Zn321 O329 1.905 1_655 S
Zn321 O330 1.898 . S
Zn321 O338 1.920 . S
Zn322 O325 2.057 1_455 S
Zn322 O328 2.139 . S
Zn322 O331 2.087 1_455 S
Zn322 O333 2.148 . S
Zn322 O334 2.147 . S
Zn322 O337 2.051 1_455 S
C323 O328 1.166 . S
C323 O329 1.182 . S
C324 O330 1.167 . S
C324 O331 1.299 . S
O325 Zn322 2.057 1_655 S
O325 C339 1.305 . S
O326 Zn320 1.920 1_655 S
O326 C339 1.234 . S
C327 O332 1.167 . S
C327 O333 1.299 . S
O328 Zn322 2.139 . S
O328 C323 1.166 . S
O329 Zn321 1.905 1_455 S
O329 C323 1.182 . S
O330 Zn321 1.898 . S
O330 C324 1.167 . S
O331 Zn322 2.087 1_655 S
O331 C324 1.299 . S
O332 Zn320 1.898 . S
O332 C327 1.167 . S
O333 Zn322 2.148 . S
O333 C327 1.299 . S
O334 Zn322 2.147 . S
O334 C336 1.166 . S
O335 Zn320 1.905 . S
O335 C336 1.182 . S
C336 O334 1.166 . S
C336 O335 1.182 . S
O337 Zn322 2.051 1_655 S
O337 C340 1.305 . S
O338 Zn321 1.920 . S
O338 C340 1.234 . S
C339 O325 1.305 . S
C339 O326 1.234 . S
C340 O337 1.305 . S
C340 O338 1.234 . S
Zn341 O347 1.920 . S
Zn341 O353 1.898 . S
Zn341 O356 1.905 . S
Zn342 O350 1.905 . S
Zn342 O351 1.898 . S
Zn342 O359 1.920 . S
Zn343 O346 2.080 . S
Zn343 O349 2.114 . S
Zn343 O352 2.120 . S
Zn343 O354 2.120 . S
Zn343 O355 2.114 . S
Zn343 O358 2.080 . S
C344 O349 1.166 . S
C344 O350 1.182 . S
C345 O351 1.167 . S
C345 O352 1.299 . S
O346 Zn343 2.080 . S
O346 C360 1.305 . S
O347 Zn341 1.920 . S
O347 C360 1.234 . S
C348 O353 1.167 . S
C348 O354 1.299 . S
O349 Zn343 2.114 . S
O349 C344 1.166 . S
O350 Zn342 1.905 . S
O350 C344 1.182 . S
O351 Zn342 1.898 . S
O351 C345 1.167 . S
O352 Zn343 2.120 . S
O352 C345 1.299 . S
O353 Zn341 1.898 . S
O353 C348 1.167 . S
O354 Zn343 2.120 . S
O354 C348 1.299 . S
O355 Zn343 2.114 . S
O355 C357 1.166 . S
O356 Zn341 1.905 . S
O356 C357 1.182 . S
C357 O355 1.166 . S
C357 O356 1.182 . S
O358 Zn343 2.080 . S
O358 C361 1.305 . S
O359 Zn342 1.920 . S
O359 C361 1.234 . S
C360 O346 1.305 . S
C360 O347 1.234 . S
C361 O358 1.305 . S
C361 O359 1.234 . S
Zn362 O368 1.920 . S
Zn362 O374 1.898 . S
Zn362 O377 1.905 . S
Zn363 O371 1.905 . S
Zn363 O372 1.898 . S
Zn363 O380 1.920 1_655 S
Zn364 O367 2.080 . S
Zn364 O370 2.114 1_455 S
Zn364 O373 2.120 1_455 S
Zn364 O375 2.120 . S
Zn364 O376 2.114 1_455 S
Zn364 O379 2.080 . S
C365 O370 1.166 . S
C365 O371 1.182 . S
C366 O372 1.167 . S
C366 O373 1.299 . S
O367 Zn364 2.080 . S
O367 C381 1.305 . S
O368 Zn362 1.920 . S
O368 C381 1.234 . S
C369 O374 1.167 . S
C369 O375 1.299 . S
O370 Zn364 2.114 1_655 S
O370 C365 1.166 . S
O371 Zn363 1.905 . S
O371 C365 1.182 . S
O372 Zn363 1.898 . S
O372 C366 1.167 . S
O373 Zn364 2.120 1_655 S
O373 C366 1.299 . S
O374 Zn362 1.898 . S
O374 C369 1.167 . S
O375 Zn364 2.120 . S
O375 C369 1.299 . S
O376 Zn364 2.114 1_655 S
O376 C378 1.166 . S
O377 Zn362 1.905 . S
O377 C378 1.182 1_455 S
C378 O376 1.166 . S
C378 O377 1.182 1_655 S
O379 Zn364 2.080 . S
O379 C382 1.305 . S
O380 Zn363 1.920 1_455 S
O380 C382 1.234 . S
C381 O367 1.305 . S
C381 O368 1.234 . S
C382 O379 1.305 . S
C382 O380 1.234 . S
Zn383 O389 1.920 . S
Zn383 O395 1.898 . S
Zn383 O398 1.905 . S
Zn384 O392 1.905 . S
Zn384 O393 1.898 . S
Zn384 O401 1.920 . S
Zn385 O388 2.080 . S
Zn385 O391 2.114 . S
Zn385 O394 2.120 . S
Zn385 O396 2.120 . S
Zn385 O397 2.114 . S
Zn385 O400 2.080 . S
C386 O391 1.166 . S
C386 O392 1.182 . S
C387 O393 1.167 . S
C387 O394 1.299 . S
O388 Zn385 2.080 . S
O388 C402 1.305 . S
O389 Zn383 1.920 . S
O389 C402 1.234 . S
C390 O395 1.167 . S
C390 O396 1.299 . S
O391 Zn385 2.114 . S
O391 C386 1.166 . S
O392 Zn384 1.905 . S
O392 C386 1.182 . S
O393 Zn384 1.898 . S
O393 C387 1.167 . S
O394 Zn385 2.120 . S
O394 C387 1.299 . S
O395 Zn383 1.898 . S
O395 C390 1.167 . S
O396 Zn385 2.120 . S
O396 C390 1.299 . S
O397 Zn385 2.114 . S
O397 C399 1.166 . S
O398 Zn383 1.905 . S
O398 C399 1.182 . S
C399 O397 1.166 . S
C399 O398 1.182 . S
O400 Zn385 2.080 . S
O400 C403 1.305 . S
O401 Zn384 1.920 . S
O401 C403 1.234 . S
C402 O388 1.305 . S
C402 O389 1.234 . S
C403 O400 1.305 . S
C403 O401 1.234 . S
H404 C412 0.929 . S
H405 C414 0.930 . S
H406 C416 0.930 . S
H407 C419 0.929 . S
H408 C422 0.930 . S
H409 C424 0.960 . S
H410 C424 0.960 . S
H411 C424 0.960 . S
C412 H404 0.929 . S
C412 C413 1.377 . S
C412 C414 1.384 . S
C413 C412 1.377 . S
C413 C419 1.390 . S
C414 H405 0.930 . S
C414 C412 1.384 . S
C414 C415 1.372 . S
C415 C414 1.372 . S
C415 C416 1.400 . S
C415 C420 1.490 1_565 S
C416 H406 0.930 . S
C416 C415 1.400 . S
C416 C419 1.386 . S
H417 C433 0.930 . S
H418 C434 0.931 . S
C419 H407 0.929 . S
C419 C413 1.390 . S
C419 C416 1.386 . S
C420 C415 1.490 1_545 S
C420 C422 1.395 . S
C420 C423 1.403 . S
H421 C427 0.930 . S
C422 H408 0.930 . S
C422 C420 1.395 . S
C422 C425 1.403 . S
C423 C420 1.403 . S
C423 C424 1.524 1_545 S
C423 C427 1.400 . S
C424 H409 0.960 . S
C424 H410 0.960 . S
C424 H411 0.960 . S
C424 C423 1.524 1_565 S
C425 C422 1.403 . S
C425 C426 1.392 . S
C425 C429 1.495 . S
C426 C425 1.392 . S
C426 C427 1.385 . S
C426 C428 1.478 . S
C427 H421 0.930 . S
C427 C423 1.400 . S
C427 C426 1.385 . S
C428 C426 1.478 . S
C428 C430 1.381 . S
C428 C434 1.383 . S
C429 C425 1.495 . S
C429 H435 0.959 . S
C429 H436 0.961 . S
C429 H437 0.960 . S
C430 C428 1.381 . S
C430 C431 1.394 . S
C430 H438 0.930 . S
C431 C430 1.394 . S
C431 C432 1.383 . S
C431 H439 0.929 . S
C432 C431 1.383 . S
C432 C433 1.377 . S
C433 H417 0.930 . S
C433 C432 1.377 . S
C433 C434 1.379 . S
C434 H418 0.931 . S
C434 C428 1.383 . S
C434 C433 1.379 . S
H435 C429 0.959 . S
H436 C429 0.961 . S
H437 C429 0.960 . S
H438 C430 0.930 . S
H439 C431 0.929 . S
H440 C448 0.929 . S
H441 C450 0.930 . S
H442 C452 0.930 . S
H443 C455 0.929 . S
H444 C458 0.930 . S
H445 C460 0.960 . S
H446 C460 0.960 . S
H447 C460 0.960 . S
C448 H440 0.929 . S
C448 C449 1.377 . S
C448 C450 1.384 . S
C449 C448 1.377 . S
C449 C455 1.390 . S
C450 H441 0.930 . S
C450 C448 1.384 . S
C450 C451 1.372 . S
C451 C450 1.372 . S
C451 C452 1.400 . S
C451 C456 1.490 . S
C452 H442 0.930 . S
C452 C451 1.400 . S
C452 C455 1.386 . S
H453 C469 0.930 . S
H454 C470 0.931 . S
C455 H443 0.929 . S
C455 C449 1.390 . S
C455 C452 1.386 . S
C456 C451 1.490 . S
C456 C458 1.395 . S
C456 C459 1.403 . S
H457 C463 0.930 . S
C458 H444 0.930 . S
C458 C456 1.395 . S
C458 C461 1.403 . S
C459 C456 1.403 . S
C459 C460 1.524 . S
C459 C463 1.400 . S
C460 H445 0.960 . S
C460 H446 0.960 . S
C460 H447 0.960 . S
C460 C459 1.524 . S
C461 C458 1.403 . S
C461 C462 1.392 . S
C461 C465 1.495 . S
C462 C461 1.392 . S
C462 C463 1.385 . S
C462 C464 1.478 . S
C463 H457 0.930 . S
C463 C459 1.400 . S
C463 C462 1.385 . S
C464 C462 1.478 . S
C464 C466 1.381 . S
C464 C470 1.383 . S
C465 C461 1.495 . S
C465 H471 0.959 . S
C465 H472 0.961 . S
C465 H473 0.960 . S
C466 C464 1.381 . S
C466 C467 1.394 . S
C466 H474 0.930 . S
C467 C466 1.394 . S
C467 C468 1.383 . S
C467 H475 0.929 . S
C468 C467 1.383 . S
C468 C469 1.377 . S
C469 H453 0.930 . S
C469 C468 1.377 . S
C469 C470 1.379 . S
C470 H454 0.931 . S
C470 C464 1.383 . S
C470 C469 1.379 . S
H471 C465 0.959 . S
H472 C465 0.961 . S
H473 C465 0.960 . S
H474 C466 0.930 . S
H475 C467 0.929 . S
H476 C484 0.929 . S
H477 C486 0.930 . S
H478 C488 0.930 . S
H479 C491 0.929 . S
H480 C494 0.930 . S
H481 C496 0.960 . S
H482 C496 0.960 . S
H483 C496 0.960 . S
C484 H476 0.929 . S
C484 C485 1.377 . S
C484 C486 1.384 . S
C485 C484 1.377 . S
C485 C491 1.390 . S
C486 H477 0.930 . S
C486 C484 1.384 . S
C486 C487 1.372 . S
C487 C486 1.372 . S
C487 C488 1.400 . S
C487 C492 1.490 . S
C488 H478 0.930 . S
C488 C487 1.400 . S
C488 C491 1.386 . S
H489 C505 0.930 . S
H490 C506 0.931 . S
C491 H479 0.929 . S
C491 C485 1.390 . S
C491 C488 1.386 . S
C492 C487 1.490 . S
C492 C494 1.395 . S
C492 C495 1.403 . S
H493 C499 0.930 . S
C494 H480 0.930 . S
C494 C492 1.395 . S
C494 C497 1.403 . S
C495 C492 1.403 . S
C495 C496 1.524 . S
C495 C499 1.400 . S
C496 H481 0.960 . S
C496 H482 0.960 . S
C496 H483 0.960 . S
C496 C495 1.524 . S
C497 C494 1.403 . S
C497 C498 1.392 . S
C497 C501 1.495 . S
C498 C497 1.392 . S
C498 C499 1.385 . S
C498 C500 1.478 . S
C499 H493 0.930 . S
C499 C495 1.400 . S
C499 C498 1.385 . S
C500 C498 1.478 . S
C500 C502 1.381 . S
C500 C506 1.383 . S
C501 C497 1.495 . S
C501 H507 0.959 . S
C501 H508 0.961 . S
C501 H509 0.960 . S
C502 C500 1.381 . S
C502 C503 1.394 . S
C502 H510 0.930 . S
C503 C502 1.394 . S
C503 C504 1.383 . S
C503 H511 0.929 . S
C504 C503 1.383 . S
C504 C505 1.377 . S
C505 H489 0.930 . S
C505 C504 1.377 . S
C505 C506 1.379 . S
C506 H490 0.931 . S
C506 C500 1.383 . S
C506 C505 1.379 . S
H507 C501 0.959 . S
H508 C501 0.961 . S
H509 C501 0.960 . S
H510 C502 0.930 . S
H511 C503 0.929 . S
H512 C520 0.929 . S
H513 C522 0.930 . S
H514 C524 0.930 . S
H515 C527 0.929 . S
H516 C530 0.930 . S
H517 C532 0.960 . S
H518 C532 0.960 . S
H519 C532 0.960 . S
C520 H512 0.929 . S
C520 C521 1.377 . S
C520 C522 1.384 . S
C521 C520 1.377 . S
C521 C527 1.390 . S
C522 H513 0.930 . S
C522 C520 1.384 . S
C522 C523 1.372 . S
C523 C522 1.372 . S
C523 C524 1.400 . S
C523 C528 1.490 . S
C524 H514 0.930 . S
C524 C523 1.400 . S
C524 C527 1.386 . S
H525 C541 0.930 . S
H526 C542 0.931 . S
C527 H515 0.929 . S
C527 C521 1.390 . S
C527 C524 1.386 . S
C528 C523 1.490 . S
C528 C530 1.395 . S
C528 C531 1.403 1_565 S
H529 C535 0.930 . S
C530 H516 0.930 . S
C530 C528 1.395 . S
C530 C533 1.403 1_565 S
C531 C528 1.403 1_545 S
C531 C532 1.524 . S
C531 C535 1.400 . S
C532 H517 0.960 . S
C532 H518 0.960 . S
C532 H519 0.960 . S
C532 C531 1.524 . S
C533 C530 1.403 1_545 S
C533 C534 1.392 . S
C533 C537 1.495 . S
C534 C533 1.392 . S
C534 C535 1.385 . S
C534 C536 1.478 . S
C535 H529 0.930 . S
C535 C531 1.400 . S
C535 C534 1.385 . S
C536 C534 1.478 . S
C536 C538 1.381 . S
C536 C542 1.383 . S
C537 C533 1.495 . S
C537 H543 0.943 1_545 S
C537 H544 0.961 . S
C537 H545 0.960 . S
C538 C536 1.381 . S
C538 C539 1.394 . S
C538 H546 0.930 . S
C539 C538 1.394 . S
C539 C540 1.383 . S
C539 H547 0.929 . S
C540 C539 1.383 . S
C540 C541 1.377 . S
C541 H525 0.930 . S
C541 C540 1.377 . S
C541 C542 1.379 . S
C542 H526 0.931 . S
C542 C536 1.383 . S
C542 C541 1.379 . S
H543 C537 0.943 1_565 S
H544 C537 0.961 . S
H545 C537 0.960 . S
H546 C538 0.930 . S
H547 C539 0.929 . S
H548 C556 0.929 . S
H549 C558 0.930 . S
H550 C560 0.930 . S
H551 C563 0.929 . S
H552 C566 0.930 . S
H553 C568 0.960 . S
H554 C568 0.960 . S
H555 C568 0.960 1_545 S
C556 H548 0.929 . S
C556 C557 1.377 . S
C556 C558 1.384 . S
C557 C556 1.377 . S
C557 C563 1.390 . S
C558 H549 0.930 . S
C558 C556 1.384 . S
C558 C559 1.372 . S
C559 C558 1.372 . S
C559 C560 1.400 . S
C559 C564 1.490 1_545 S
C560 H550 0.930 . S
C560 C559 1.400 . S
C560 C563 1.386 . S
H561 C577 0.930 . S
H562 C578 0.931 . S
C563 H551 0.929 . S
C563 C557 1.390 . S
C563 C560 1.386 . S
C564 C559 1.490 1_565 S
C564 C566 1.395 . S
C564 C567 1.403 . S
H565 C571 0.930 . S
C566 H552 0.930 . S
C566 C564 1.395 . S
C566 C569 1.403 . S
C567 C564 1.403 . S
C567 C568 1.524 . S
C567 C571 1.400 . S
C568 H553 0.960 . S
C568 H554 0.960 . S
C568 H555 0.960 1_565 S
C568 C567 1.524 . S
C569 C566 1.403 . S
C569 C570 1.392 . S
C569 C573 1.495 . S
C570 C569 1.392 . S
C570 C571 1.385 . S
C570 C572 1.478 . S
C571 H565 0.930 . S
C571 C567 1.400 . S
C571 C570 1.385 . S
C572 C570 1.478 . S
C572 C574 1.381 . S
C572 C578 1.383 . S
C573 C569 1.495 . S
C573 H579 0.959 . S
C573 H580 0.961 . S
C573 H581 0.960 . S
C574 C572 1.381 . S
C574 C575 1.394 . S
C574 H582 0.930 . S
C575 C574 1.394 . S
C575 C576 1.383 . S
C575 H583 0.929 . S
C576 C575 1.383 . S
C576 C577 1.377 . S
C577 H561 0.930 . S
C577 C576 1.377 . S
C577 C578 1.379 . S
C578 H562 0.931 . S
C578 C572 1.383 . S
C578 C577 1.379 . S
H579 C573 0.959 . S
H580 C573 0.961 . S
H581 C573 0.960 . S
H582 C574 0.930 . S
H583 C575 0.929 . S
H584 C592 0.929 . S
H585 C594 0.930 . S
H586 C596 0.930 . S
H587 C599 0.929 . S
H588 C602 0.930 . S
H589 C604 0.960 . S
H590 C604 0.960 . S
H591 C604 0.960 . S
C592 H584 0.929 . S
C592 C593 1.377 . S
C592 C594 1.384 . S
C593 C592 1.377 . S
C593 C599 1.390 . S
C594 H585 0.930 . S
C594 C592 1.384 . S
C594 C595 1.372 . S
C595 C594 1.372 . S
C595 C596 1.400 . S
C595 C600 1.490 . S
C596 H586 0.930 . S
C596 C595 1.400 . S
C596 C599 1.386 . S
H597 C613 0.930 . S
H598 C614 0.931 . S
C599 H587 0.929 . S
C599 C593 1.390 . S
C599 C596 1.386 . S
C600 C595 1.490 . S
C600 C602 1.395 . S
C600 C603 1.403 . S
H601 C607 0.930 . S
C602 H588 0.930 . S
C602 C600 1.395 . S
C602 C605 1.403 . S
C603 C600 1.403 . S
C603 C604 1.524 . S
C603 C607 1.400 . S
C604 H589 0.960 . S
C604 H590 0.960 . S
C604 H591 0.960 . S
C604 C603 1.524 . S
C605 C602 1.403 . S
C605 C606 1.392 . S
C605 C609 1.495 . S
C606 C605 1.392 . S
C606 C607 1.385 . S
C606 C608 1.478 . S
C607 H601 0.930 . S
C607 C603 1.400 . S
C607 C606 1.385 . S
C608 C606 1.478 . S
C608 C610 1.381 . S
C608 C614 1.383 . S
C609 C605 1.495 . S
C609 H615 0.959 . S
C609 H616 0.961 . S
C609 H617 0.960 . S
C610 C608 1.381 . S
C610 C611 1.394 . S
C610 H618 0.930 . S
C611 C610 1.394 . S
C611 C612 1.383 . S
C611 H619 0.929 . S
C612 C611 1.383 . S
C612 C613 1.377 . S
C613 H597 0.930 . S
C613 C612 1.377 . S
C613 C614 1.379 . S
C614 H598 0.931 . S
C614 C608 1.383 . S
C614 C613 1.379 . S
H615 C609 0.959 . S
H616 C609 0.961 . S
H617 C609 0.960 . S
H618 C610 0.930 . S
H619 C611 0.929 . S
H620 C628 0.929 . S
H621 C630 0.930 . S
H622 C632 0.930 . S
H623 C635 0.929 . S
H624 C638 0.930 . S
H625 C640 0.960 . S
H626 C640 0.960 . S
H627 C640 0.960 . S
C628 H620 0.929 . S
C628 C629 1.377 . S
C628 C630 1.384 . S
C629 C628 1.377 . S
C629 C635 1.390 . S
C630 H621 0.930 . S
C630 C628 1.384 . S
C630 C631 1.372 . S
C631 C630 1.372 . S
C631 C632 1.400 . S
C631 C636 1.490 . S
C632 H622 0.930 . S
C632 C631 1.400 . S
C632 C635 1.386 . S
H633 C649 0.930 . S
H634 C650 0.931 . S
C635 H623 0.929 . S
C635 C629 1.390 . S
C635 C632 1.386 . S
C636 C631 1.490 . S
C636 C638 1.395 . S
C636 C639 1.403 . S
H637 C643 0.930 . S
C638 H624 0.930 . S
C638 C636 1.395 . S
C638 C641 1.403 . S
C639 C636 1.403 . S
C639 C640 1.524 . S
C639 C643 1.400 . S
C640 H625 0.960 . S
C640 H626 0.960 . S
C640 H627 0.960 . S
C640 C639 1.524 . S
C641 C638 1.403 . S
C641 C642 1.392 . S
C641 C645 1.495 . S
C642 C641 1.392 . S
C642 C643 1.385 . S
C642 C644 1.478 . S
C643 H637 0.930 . S
C643 C639 1.400 . S
C643 C642 1.385 . S
C644 C642 1.478 . S
C644 C646 1.381 . S
C644 C650 1.383 . S
C645 C641 1.495 . S
C645 H651 0.959 . S
C645 H652 0.961 . S
C645 H653 0.960 . S
C646 C644 1.381 . S
C646 C647 1.394 . S
C646 H654 0.930 . S
C647 C646 1.394 . S
C647 C648 1.383 . S
C647 H655 0.929 . S
C648 C647 1.383 . S
C648 C649 1.377 . S
C649 H633 0.930 . S
C649 C648 1.377 . S
C649 C650 1.379 . S
C650 H634 0.931 . S
C650 C644 1.383 . S
C650 C649 1.379 . S
H651 C645 0.959 . S
H652 C645 0.961 . S
H653 C645 0.960 . S
H654 C646 0.930 . S
H655 C647 0.929 . S
H656 C664 0.929 . S
H657 C666 0.930 . S
H658 C668 0.930 . S
H659 C671 0.929 . S
H660 C674 0.930 . S
H661 C676 0.960 . S
H662 C676 0.960 . S
H663 C676 0.960 . S
C664 H656 0.929 . S
C664 C665 1.377 . S
C664 C666 1.384 . S
C665 C664 1.377 . S
C665 C671 1.390 . S
C666 H657 0.930 . S
C666 C664 1.384 . S
C666 C667 1.372 . S
C667 C666 1.372 . S
C667 C668 1.400 . S
C667 C672 1.490 . S
C668 H658 0.930 . S
C668 C667 1.400 . S
C668 C671 1.386 . S
H669 C685 0.930 . S
H670 C686 0.931 . S
C671 H659 0.929 . S
C671 C665 1.390 . S
C671 C668 1.386 . S
C672 C667 1.490 . S
C672 C674 1.395 . S
C672 C675 1.403 1_545 S
H673 C679 0.930 . S
C674 H660 0.930 . S
C674 C672 1.395 . S
C674 C677 1.403 1_545 S
C675 C672 1.403 1_565 S
C675 C676 1.524 . S
C675 C679 1.400 . S
C676 H661 0.960 . S
C676 H662 0.960 . S
C676 H663 0.960 . S
C676 C675 1.524 . S
C677 C674 1.403 1_565 S
C677 C678 1.392 . S
C677 C681 1.495 . S
C678 C677 1.392 . S
C678 C679 1.385 . S
C678 C680 1.478 . S
C679 H673 0.930 . S
C679 C675 1.400 . S
C679 C678 1.385 . S
C680 C678 1.478 . S
C680 C682 1.381 . S
C680 C686 1.383 . S
C681 C677 1.495 . S
C681 H687 0.959 . S
C681 H688 0.961 . S
C681 H689 0.960 . S
C682 C680 1.381 . S
C682 C683 1.394 . S
C682 H690 0.930 . S
C683 C682 1.394 . S
C683 C684 1.383 . S
C683 H691 0.929 . S
C684 C683 1.383 . S
C684 C685 1.377 . S
C685 H669 0.930 . S
C685 C684 1.377 . S
C685 C686 1.379 . S
C686 H670 0.931 . S
C686 C680 1.383 . S
C686 C685 1.379 . S
H687 C681 0.959 . S
H688 C681 0.961 . S
H689 C681 0.960 . S
H690 C682 0.930 . S
H691 C683 0.929 . S
H692 C700 0.929 . S
H693 C702 0.930 . S
H694 C704 0.930 . S
H695 C707 0.929 . S
H696 C710 0.930 . S
H697 C712 0.960 . S
H698 C712 0.960 . S
H699 C712 0.960 . S
C700 H692 0.929 . S
C700 C701 1.377 . S
C700 C702 1.384 . S
C701 C700 1.377 . S
C701 C707 1.390 . S
C702 H693 0.930 . S
C702 C700 1.384 . S
C702 C703 1.372 . S
C703 C702 1.372 . S
C703 C704 1.400 . S
C703 C708 1.490 . S
C704 H694 0.930 . S
C704 C703 1.400 . S
C704 C707 1.386 . S
H705 C721 0.930 . S
H706 C722 0.931 . S
C707 H695 0.929 . S
C707 C701 1.390 . S
C707 C704 1.386 . S
C708 C703 1.490 . S
C708 C710 1.395 . S
C708 C711 1.403 . S
H709 C715 0.930 . S
C710 H696 0.930 . S
C710 C708 1.395 . S
C710 C713 1.403 . S
C711 C708 1.403 . S
C711 C712 1.524 . S
C711 C715 1.400 . S
C712 H697 0.960 . S
C712 H698 0.960 . S
C712 H699 0.960 . S
C712 C711 1.524 . S
C713 C710 1.403 . S
C713 C714 1.392 . S
C713 C717 1.495 . S
C714 C713 1.392 . S
C714 C715 1.385 . S
C714 C716 1.478 . S
C715 H709 0.930 . S
C715 C711 1.400 . S
C715 C714 1.385 . S
C716 C714 1.478 . S
C716 C718 1.381 . S
C716 C722 1.383 . S
C717 C713 1.495 . S
C717 H723 0.959 . S
C717 H724 0.961 . S
C717 H725 0.960 . S
C718 C716 1.381 . S
C718 C719 1.394 . S
C718 H726 0.930 . S
C719 C718 1.394 . S
C719 C720 1.383 . S
C719 H727 0.929 . S
C720 C719 1.383 . S
C720 C721 1.377 . S
C721 H705 0.930 . S
C721 C720 1.377 . S
C721 C722 1.379 . S
C722 H706 0.931 . S
C722 C716 1.383 . S
C722 C721 1.379 . S
H723 C717 0.959 . S
H724 C717 0.961 . S
H725 C717 0.960 . S
H726 C718 0.930 . S
H727 C719 0.929 . S
H728 C736 0.929 . S
H729 C738 0.930 . S
H730 C740 0.930 . S
H731 C743 0.929 . S
H732 C746 0.930 . S
H733 C748 0.960 . S
H734 C748 0.960 . S
H735 C748 0.960 . S
C736 H728 0.929 . S
C736 C737 1.377 . S
C736 C738 1.384 . S
C737 C736 1.377 . S
C737 C743 1.390 . S
C738 H729 0.930 . S
C738 C736 1.384 . S
C738 C739 1.372 . S
C739 C738 1.372 . S
C739 C740 1.400 . S
C739 C744 1.490 . S
C740 H730 0.930 . S
C740 C739 1.400 . S
C740 C743 1.386 . S
H741 C757 0.930 . S
H742 C758 0.931 . S
C743 H731 0.929 . S
C743 C737 1.390 . S
C743 C740 1.386 . S
C744 C739 1.490 . S
C744 C746 1.395 . S
C744 C747 1.403 . S
H745 C751 0.930 . S
C746 H732 0.930 . S
C746 C744 1.395 . S
C746 C749 1.403 . S
C747 C744 1.403 . S
C747 C748 1.524 . S
C747 C751 1.400 . S
C748 H733 0.960 . S
C748 H734 0.960 . S
C748 H735 0.960 . S
C748 C747 1.524 . S
C749 C746 1.403 . S
C749 C750 1.392 . S
C749 C753 1.495 . S
C750 C749 1.392 . S
C750 C751 1.385 . S
C750 C752 1.478 . S
C751 H745 0.930 . S
C751 C747 1.400 . S
C751 C750 1.385 . S
C752 C750 1.478 . S
C752 C754 1.381 . S
C752 C758 1.383 . S
C753 C749 1.495 . S
C753 H759 0.959 . S
C753 H760 0.961 . S
C753 H761 0.960 . S
C754 C752 1.381 . S
C754 C755 1.394 . S
C754 H762 0.930 . S
C755 C754 1.394 . S
C755 C756 1.383 . S
C755 H763 0.929 . S
C756 C755 1.383 . S
C756 C757 1.377 . S
C757 H741 0.930 . S
C757 C756 1.377 . S
C757 C758 1.379 . S
C758 H742 0.931 . S
C758 C752 1.383 . S
C758 C757 1.379 . S
H759 C753 0.959 . S
H760 C753 0.961 . S
H761 C753 0.960 . S
H762 C754 0.930 . S
H763 C755 0.929 . S
H764 C772 0.929 . S
H765 C774 0.930 . S
H766 C776 0.930 . S
H767 C779 0.929 . S
H768 C782 0.930 . S
H769 C784 0.960 . S
H770 C784 0.960 . S
H771 C784 0.960 . S
C772 H764 0.929 . S
C772 C773 1.377 . S
C772 C774 1.384 . S
C773 C772 1.377 . S
C773 C779 1.390 . S
C774 H765 0.930 . S
C774 C772 1.384 . S
C774 C775 1.372 . S
C775 C774 1.372 . S
C775 C776 1.400 . S
C775 C780 1.490 . S
C776 H766 0.930 . S
C776 C775 1.400 . S
C776 C779 1.386 . S
H777 C793 0.930 . S
H778 C794 0.931 . S
C779 H767 0.929 . S
C779 C773 1.390 . S
C779 C776 1.386 . S
C780 C775 1.490 . S
C780 C782 1.395 . S
C780 C783 1.403 . S
H781 C787 0.930 . S
C782 H768 0.930 . S
C782 C780 1.395 . S
C782 C785 1.403 . S
C783 C780 1.403 . S
C783 C784 1.524 . S
C783 C787 1.400 . S
C784 H769 0.960 . S
C784 H770 0.960 . S
C784 H771 0.960 . S
C784 C783 1.524 . S
C785 C782 1.403 . S
C785 C786 1.392 . S
C785 C789 1.495 . S
C786 C785 1.392 . S
C786 C787 1.385 . S
C786 C788 1.478 . S
C787 H781 0.930 . S
C787 C783 1.400 . S
C787 C786 1.385 . S
C788 C786 1.478 . S
C788 C790 1.381 . S
C788 C794 1.383 . S
C789 C785 1.495 . S
C789 H795 0.959 . S
C789 H796 0.961 . S
C789 H797 0.960 . S
C790 C788 1.381 . S
C790 C791 1.394 . S
C790 H798 0.930 . S
C791 C790 1.394 . S
C791 C792 1.383 . S
C791 H799 0.929 . S
C792 C791 1.383 . S
C792 C793 1.377 . S
C793 H777 0.930 . S
C793 C792 1.377 . S
C793 C794 1.379 . S
C794 H778 0.931 . S
C794 C788 1.383 . S
C794 C793 1.379 . S
H795 C789 0.959 . S
H796 C789 0.961 . S
H797 C789 0.960 . S
H798 C790 0.930 . S
H799 C791 0.929 . S
H800 C808 0.929 . S
H801 C810 0.930 . S
H802 C812 0.930 . S
H803 C815 0.929 . S
H804 C818 0.930 . S
H805 C820 0.960 . S
H806 C820 0.960 . S
H807 C820 0.960 . S
C808 H800 0.929 . S
C808 C809 1.377 . S
C808 C810 1.384 . S
C809 C808 1.377 . S
C809 C815 1.390 . S
C810 H801 0.930 . S
C810 C808 1.384 . S
C810 C811 1.372 . S
C811 C810 1.372 . S
C811 C812 1.400 . S
C811 C816 1.490 . S
C812 H802 0.930 . S
C812 C811 1.400 . S
C812 C815 1.386 . S
H813 C829 0.930 . S
H814 C830 0.931 . S
C815 H803 0.929 . S
C815 C809 1.390 . S
C815 C812 1.386 . S
C816 C811 1.490 . S
C816 C818 1.395 . S
C816 C819 1.403 . S
H817 C823 0.930 . S
C818 H804 0.930 . S
C818 C816 1.395 . S
C818 C821 1.403 . S
C819 C816 1.403 . S
C819 C820 1.524 . S
C819 C823 1.400 . S
C820 H805 0.960 . S
C820 H806 0.960 . S
C820 H807 0.960 . S
C820 C819 1.524 . S
C821 C818 1.403 . S
C821 C822 1.392 . S
C821 C825 1.495 . S
C822 C821 1.392 . S
C822 C823 1.385 . S
C822 C824 1.478 . S
C823 H817 0.930 . S
C823 C819 1.400 . S
C823 C822 1.385 . S
C824 C822 1.478 . S
C824 C826 1.381 . S
C824 C830 1.383 . S
C825 C821 1.495 . S
C825 H831 0.959 . S
C825 H832 0.961 . S
C825 H833 0.960 . S
C826 C824 1.381 . S
C826 C827 1.394 . S
C826 H834 0.930 . S
C827 C826 1.394 . S
C827 C828 1.383 . S
C827 H835 0.929 . S
C828 C827 1.383 . S
C828 C829 1.377 . S
C829 H813 0.930 . S
C829 C828 1.377 . S
C829 C830 1.379 . S
C830 H814 0.931 . S
C830 C824 1.383 . S
C830 C829 1.379 . S
H831 C825 0.959 . S
H832 C825 0.961 . S
H833 C825 0.960 . S
H834 C826 0.930 . S
H835 C827 0.929 . S
H836 C844 0.929 . S
H837 C846 0.930 . S
H838 C848 0.930 . S
H839 C851 0.929 . S
H840 C854 0.930 . S
H841 C856 0.960 . S
H842 C856 0.960 . S
H843 C856 0.960 . S
C844 H836 0.929 . S
C844 C845 1.377 . S
C844 C846 1.384 . S
C845 C844 1.377 . S
C845 C851 1.390 . S
C846 H837 0.930 . S
C846 C844 1.384 . S
C846 C847 1.372 . S
C847 C846 1.372 . S
C847 C848 1.400 . S
C847 C852 1.490 . S
C848 H838 0.930 . S
C848 C847 1.400 . S
C848 C851 1.386 . S
H849 C865 0.930 . S
H850 C866 0.931 . S
C851 H839 0.929 . S
C851 C845 1.390 . S
C851 C848 1.386 . S
C852 C847 1.490 . S
C852 C854 1.395 . S
C852 C855 1.403 . S
H853 C859 0.930 . S
C854 H840 0.930 . S
C854 C852 1.395 . S
C854 C857 1.403 . S
C855 C852 1.403 . S
C855 C856 1.524 . S
C855 C859 1.400 . S
C856 H841 0.960 . S
C856 H842 0.960 . S
C856 H843 0.960 . S
C856 C855 1.524 . S
C857 C854 1.403 . S
C857 C858 1.392 . S
C857 C861 1.495 . S
C858 C857 1.392 . S
C858 C859 1.385 . S
C858 C860 1.478 . S
C859 H853 0.930 . S
C859 C855 1.400 . S
C859 C858 1.385 . S
C860 C858 1.478 . S
C860 C862 1.381 . S
C860 C866 1.383 . S
C861 C857 1.495 . S
C861 H867 0.959 . S
C861 H868 0.961 . S
C861 H869 0.960 . S
C862 C860 1.381 . S
C862 C863 1.394 . S
C862 H870 0.930 . S
C863 C862 1.394 . S
C863 C864 1.383 . S
C863 H871 0.929 . S
C864 C863 1.383 . S
C864 C865 1.377 . S
C865 H849 0.930 . S
C865 C864 1.377 . S
C865 C866 1.379 . S
C866 H850 0.931 . S
C866 C860 1.383 . S
C866 C865 1.379 . S
H867 C861 0.959 . S
H868 C861 0.961 . S
H869 C861 0.960 . S
H870 C862 0.930 . S
H871 C863 0.929 . S
H872 C880 0.929 . S
H873 C882 0.930 . S
H874 C884 0.930 . S
H875 C887 0.929 . S
H876 C890 0.930 . S
H877 C892 0.960 . S
H878 C892 0.960 . S
H879 C892 0.960 . S
C880 H872 0.929 . S
C880 C881 1.377 . S
C880 C882 1.384 . S
C881 C880 1.377 . S
C881 C887 1.390 . S
C882 H873 0.930 . S
C882 C880 1.384 . S
C882 C883 1.372 . S
C883 C882 1.372 . S
C883 C884 1.400 . S
C883 C888 1.490 . S
C884 H874 0.930 . S
C884 C883 1.400 . S
C884 C887 1.386 . S
H885 C901 0.930 . S
H886 C902 0.931 . S
C887 H875 0.929 . S
C887 C881 1.390 . S
C887 C884 1.386 . S
C888 C883 1.490 . S
C888 C890 1.395 . S
C888 C891 1.403 . S
H889 C895 0.930 . S
C890 H876 0.930 . S
C890 C888 1.395 . S
C890 C893 1.403 . S
C891 C888 1.403 . S
C891 C892 1.524 . S
C891 C895 1.400 . S
C892 H877 0.960 . S
C892 H878 0.960 . S
C892 H879 0.960 . S
C892 C891 1.524 . S
C893 C890 1.403 . S
C893 C894 1.392 . S
C893 C897 1.495 . S
C894 C893 1.392 . S
C894 C895 1.385 . S
C894 C896 1.478 . S
C895 H889 0.930 . S
C895 C891 1.400 . S
C895 C894 1.385 . S
C896 C894 1.478 . S
C896 C898 1.381 . S
C896 C902 1.383 . S
C897 C893 1.495 . S
C897 H903 0.959 . S
C897 H904 0.961 . S
C897 H905 0.960 . S
C898 C896 1.381 . S
C898 C899 1.394 . S
C898 H906 0.930 . S
C899 C898 1.394 . S
C899 C900 1.383 . S
C899 H907 0.929 . S
C900 C899 1.383 . S
C900 C901 1.377 . S
C901 H885 0.930 . S
C901 C900 1.377 . S
C901 C902 1.379 . S
C902 H886 0.931 . S
C902 C896 1.383 . S
C902 C901 1.379 . S
H903 C897 0.959 . S
H904 C897 0.961 . S
H905 C897 0.960 . S
H906 C898 0.930 . S
H907 C899 0.929 . S
H908 C916 0.929 . S
H909 C918 0.930 . S
H910 C920 0.930 . S
H911 C923 0.929 . S
H912 C926 0.930 . S
H913 C928 0.960 . S
H914 C928 0.960 . S
H915 C928 0.960 . S
C916 H908 0.929 . S
C916 C917 1.377 . S
C916 C918 1.384 . S
C917 C916 1.377 . S
C917 C923 1.390 . S
C918 H909 0.930 . S
C918 C916 1.384 . S
C918 C919 1.372 . S
C919 C918 1.372 . S
C919 C920 1.400 . S
C919 C924 1.490 . S
C920 H910 0.930 . S
C920 C919 1.400 . S
C920 C923 1.386 . S
H921 C937 0.930 . S
H922 C938 0.931 . S
C923 H911 0.929 . S
C923 C917 1.390 . S
C923 C920 1.386 . S
C924 C919 1.490 . S
C924 C926 1.395 . S
C924 C927 1.403 . S
H925 C931 0.930 . S
C926 H912 0.930 . S
C926 C924 1.395 . S
C926 C929 1.403 . S
C927 C924 1.403 . S
C927 C928 1.524 . S
C927 C931 1.400 . S
C928 H913 0.960 . S
C928 H914 0.960 . S
C928 H915 0.960 . S
C928 C927 1.524 . S
C929 C926 1.403 . S
C929 C930 1.392 . S
C929 C933 1.495 . S
C930 C929 1.392 . S
C930 C931 1.385 . S
C930 C932 1.478 . S
C931 H925 0.930 . S
C931 C927 1.400 . S
C931 C930 1.385 . S
C932 C930 1.478 . S
C932 C934 1.381 . S
C932 C938 1.383 . S
C933 C929 1.495 . S
C933 H939 0.959 . S
C933 H940 0.961 . S
C933 H941 0.960 . S
C934 C932 1.381 . S
C934 C935 1.394 . S
C934 H942 0.930 . S
C935 C934 1.394 . S
C935 C936 1.383 . S
C935 H943 0.929 . S
C936 C935 1.383 . S
C936 C937 1.377 . S
C937 H921 0.930 . S
C937 C936 1.377 . S
C937 C938 1.379 . S
C938 H922 0.931 . S
C938 C932 1.383 . S
C938 C937 1.379 . S
H939 C933 0.959 . S
H940 C933 0.961 . S
H941 C933 0.960 . S
H942 C934 0.930 . S
H943 C935 0.929 . S
H944 C952 0.929 . S
H945 C954 0.930 . S
H946 C956 0.930 . S
H947 C959 0.929 . S
H948 C962 0.930 . S
H949 C964 0.960 . S
H950 C964 0.960 . S
H951 C964 0.960 . S
C952 H944 0.929 . S
C952 C953 1.377 . S
C952 C954 1.384 . S
C953 C952 1.377 . S
C953 C959 1.390 . S
C954 H945 0.930 . S
C954 C952 1.384 . S
C954 C955 1.372 . S
C955 C954 1.372 . S
C955 C956 1.400 . S
C955 C960 1.490 . S
C956 H946 0.930 . S
C956 C955 1.400 . S
C956 C959 1.386 . S
H957 C973 0.930 . S
H958 C974 0.931 . S
C959 H947 0.929 . S
C959 C953 1.390 . S
C959 C956 1.386 . S
C960 C955 1.490 . S
C960 C962 1.395 . S
C960 C963 1.403 . S
H961 C967 0.930 . S
C962 H948 0.930 . S
C962 C960 1.395 . S
C962 C965 1.403 . S
C963 C960 1.403 . S
C963 C964 1.524 . S
C963 C967 1.400 . S
C964 H949 0.960 . S
C964 H950 0.960 . S
C964 H951 0.960 . S
C964 C963 1.524 . S
C965 C962 1.403 . S
C965 C966 1.392 . S
C965 C969 1.495 . S
C966 C965 1.392 . S
C966 C967 1.385 . S
C966 C968 1.478 . S
C967 H961 0.930 . S
C967 C963 1.400 . S
C967 C966 1.385 . S
C968 C966 1.478 . S
C968 C970 1.381 . S
C968 C974 1.383 . S
C969 C965 1.495 . S
C969 H975 0.959 . S
C969 H976 0.961 . S
C969 H977 0.960 . S
C970 C968 1.381 . S
C970 C971 1.394 . S
C970 H978 0.930 . S
C971 C970 1.394 . S
C971 C972 1.383 . S
C971 H979 0.929 . S
C972 C971 1.383 . S
C972 C973 1.377 . S
C973 H957 0.930 . S
C973 C972 1.377 . S
C973 C974 1.379 . S
C974 H958 0.931 . S
C974 C968 1.383 . S
C974 C973 1.379 . S
H975 C969 0.959 . S
H976 C969 0.961 . S
H977 C969 0.960 . S
H978 C970 0.930 . S
H979 C971 0.929 . S
H980 C988 0.929 . S
H981 C990 0.930 . S
H982 C992 0.930 . S
H983 C995 0.929 . S
H984 C998 0.930 . S
H985 C1000 0.960 . S
H986 C1000 0.960 . S
H987 C1000 0.960 . S
C988 H980 0.929 . S
C988 C989 1.377 . S
C988 C990 1.384 . S
C989 C988 1.377 . S
C989 C995 1.390 . S
C990 H981 0.930 . S
C990 C988 1.384 . S
C990 C991 1.372 . S
C991 C990 1.372 . S
C991 C992 1.400 . S
C991 C996 1.490 . S
C992 H982 0.930 . S
C992 C991 1.400 . S
C992 C995 1.386 . S
H993 C1009 0.930 . S
H994 C1010 0.931 . S
C995 H983 0.929 . S
C995 C989 1.390 . S
C995 C992 1.386 . S
C996 C991 1.490 . S
C996 C998 1.395 . S
C996 C999 1.403 . S
H997 C1003 0.930 . S
C998 H984 0.930 . S
C998 C996 1.395 . S
C998 C1001 1.403 . S
C999 C996 1.403 . S
C999 C1000 1.524 . S
C999 C1003 1.400 . S
C1000 H985 0.960 . S
C1000 H986 0.960 . S
C1000 H987 0.960 . S
C1000 C999 1.524 . S
C1001 C998 1.403 . S
C1001 C1002 1.392 . S
C1001 C1005 1.495 . S
C1002 C1001 1.392 . S
C1002 C1003 1.385 . S
C1002 C1004 1.478 . S
C1003 H997 0.930 . S
C1003 C999 1.400 . S
C1003 C1002 1.385 . S
C1004 C1002 1.478 . S
C1004 C1006 1.381 . S
C1004 C1010 1.383 . S
C1005 C1001 1.495 . S
C1005 H1011 0.959 . S
C1005 H1012 0.961 . S
C1005 H1013 0.960 . S
C1006 C1004 1.381 . S
C1006 C1007 1.394 . S
C1006 H1014 0.930 . S
C1007 C1006 1.394 . S
C1007 C1008 1.383 . S
C1007 H1015 0.929 . S
C1008 C1007 1.383 . S
C1008 C1009 1.377 . S
C1009 H993 0.930 . S
C1009 C1008 1.377 . S
C1009 C1010 1.379 . S
C1010 H994 0.931 . S
C1010 C1004 1.383 . S
C1010 C1009 1.379 . S
H1011 C1005 0.959 . S
H1012 C1005 0.961 . S
H1013 C1005 0.960 . S
H1014 C1006 0.930 . S
H1015 C1007 0.929 . S
H1016 C1024 0.929 . S
H1017 C1026 0.930 . S
H1018 C1028 0.930 . S
H1019 C1031 0.929 . S
H1020 C1034 0.930 . S
H1021 C1036 0.960 . S
H1022 C1036 0.960 . S
H1023 C1036 0.960 . S
C1024 H1016 0.929 . S
C1024 C1025 1.377 . S
C1024 C1026 1.384 . S
C1025 C1024 1.377 . S
C1025 C1031 1.390 . S
C1026 H1017 0.930 . S
C1026 C1024 1.384 . S
C1026 C1027 1.372 . S
C1027 C1026 1.372 . S
C1027 C1028 1.400 . S
C1027 C1032 1.490 . S
C1028 H1018 0.930 . S
C1028 C1027 1.400 . S
C1028 C1031 1.386 . S
H1029 C1045 0.930 . S
H1030 C1046 0.931 . S
C1031 H1019 0.929 . S
C1031 C1025 1.390 . S
C1031 C1028 1.386 . S
C1032 C1027 1.490 . S
C1032 C1034 1.395 . S
C1032 C1035 1.403 . S
H1033 C1039 0.930 . S
C1034 H1020 0.930 . S
C1034 C1032 1.395 . S
C1034 C1037 1.403 . S
C1035 C1032 1.403 . S
C1035 C1036 1.524 . S
C1035 C1039 1.400 . S
C1036 H1021 0.960 . S
C1036 H1022 0.960 . S
C1036 H1023 0.960 . S
C1036 C1035 1.524 . S
C1037 C1034 1.403 . S
C1037 C1038 1.392 . S
C1037 C1041 1.495 . S
C1038 C1037 1.392 . S
C1038 C1039 1.385 . S
C1038 C1040 1.478 . S
C1039 H1033 0.930 . S
C1039 C1035 1.400 . S
C1039 C1038 1.385 . S
C1040 C1038 1.478 . S
C1040 C1042 1.381 . S
C1040 C1046 1.383 . S
C1041 C1037 1.495 . S
C1041 H1047 0.959 . S
C1041 H1048 0.961 . S
C1041 H1049 0.960 . S
C1042 C1040 1.381 . S
C1042 C1043 1.394 . S
C1042 H1050 0.930 . S
C1043 C1042 1.394 . S
C1043 C1044 1.383 . S
C1043 H1051 0.929 . S
C1044 C1043 1.383 . S
C1044 C1045 1.377 . S
C1045 H1029 0.930 . S
C1045 C1044 1.377 . S
C1045 C1046 1.379 . S
C1046 H1030 0.931 . S
C1046 C1040 1.383 . S
C1046 C1045 1.379 . S
H1047 C1041 0.959 . S
H1048 C1041 0.961 . S
H1049 C1041 0.960 . S
H1050 C1042 0.930 . S
H1051 C1043 0.929 . S
H1052 C1060 0.929 . S
H1053 C1062 0.930 . S
H1054 C1064 0.930 . S
H1055 C1067 0.929 . S
H1056 C1070 0.930 . S
H1057 C1072 0.960 . S
H1058 C1072 0.960 . S
H1059 C1072 0.960 . S
C1060 H1052 0.929 . S
C1060 C1061 1.377 . S
C1060 C1062 1.384 . S
C1061 C1060 1.377 . S
C1061 C1067 1.390 . S
C1062 H1053 0.930 . S
C1062 C1060 1.384 . S
C1062 C1063 1.372 . S
C1063 C1062 1.372 . S
C1063 C1064 1.400 . S
C1063 C1068 1.490 . S
C1064 H1054 0.930 . S
C1064 C1063 1.400 . S
C1064 C1067 1.386 . S
H1065 C1081 0.930 . S
H1066 C1082 0.931 . S
C1067 H1055 0.929 . S
C1067 C1061 1.390 . S
C1067 C1064 1.386 . S
C1068 C1063 1.490 . S
C1068 C1070 1.395 . S
C1068 C1071 1.403 . S
H1069 C1075 0.930 . S
C1070 H1056 0.930 . S
C1070 C1068 1.395 . S
C1070 C1073 1.403 . S
C1071 C1068 1.403 . S
C1071 C1072 1.524 . S
C1071 C1075 1.400 . S
C1072 H1057 0.960 . S
C1072 H1058 0.960 . S
C1072 H1059 0.960 . S
C1072 C1071 1.524 . S
C1073 C1070 1.403 . S
C1073 C1074 1.392 . S
C1073 C1077 1.495 . S
C1074 C1073 1.392 . S
C1074 C1075 1.385 . S
C1074 C1076 1.478 . S
C1075 H1069 0.930 . S
C1075 C1071 1.400 . S
C1075 C1074 1.385 . S
C1076 C1074 1.478 . S
C1076 C1078 1.381 . S
C1076 C1082 1.383 . S
C1077 C1073 1.495 . S
C1077 H1083 0.959 . S
C1077 H1084 0.961 . S
C1077 H1085 0.960 . S
C1078 C1076 1.381 . S
C1078 C1079 1.394 . S
C1078 H1086 0.930 . S
C1079 C1078 1.394 . S
C1079 C1080 1.383 . S
C1079 H1087 0.929 . S
C1080 C1079 1.383 . S
C1080 C1081 1.377 . S
C1081 H1065 0.930 . S
C1081 C1080 1.377 . S
C1081 C1082 1.379 . S
C1082 H1066 0.931 . S
C1082 C1076 1.383 . S
C1082 C1081 1.379 . S
H1083 C1077 0.959 . S
H1084 C1077 0.961 . S
H1085 C1077 0.960 . S
H1086 C1078 0.930 . S
H1087 C1079 0.929 . S
H1088 C1096 0.929 . S
H1089 C1098 0.930 . S
H1090 C1100 0.930 . S
H1091 C1103 0.929 . S
H1092 C1106 0.930 . S
H1093 C1108 0.960 . S
H1094 C1108 0.960 . S
H1095 C1108 0.960 . S
C1096 H1088 0.929 . S
C1096 C1097 1.377 . S
C1096 C1098 1.384 . S
C1097 C1096 1.377 . S
C1097 C1103 1.390 . S
C1098 H1089 0.930 . S
C1098 C1096 1.384 . S
C1098 C1099 1.372 . S
C1099 C1098 1.372 . S
C1099 C1100 1.400 . S
C1099 C1104 1.490 . S
C1100 H1090 0.930 . S
C1100 C1099 1.400 . S
C1100 C1103 1.386 . S
H1101 C1117 0.930 . S
H1102 C1118 0.931 . S
C1103 H1091 0.929 . S
C1103 C1097 1.390 . S
C1103 C1100 1.386 . S
C1104 C1099 1.490 . S
C1104 C1106 1.395 . S
C1104 C1107 1.403 . S
H1105 C1111 0.930 . S
C1106 H1092 0.930 . S
C1106 C1104 1.395 . S
C1106 C1109 1.403 . S
C1107 C1104 1.403 . S
C1107 C1108 1.524 . S
C1107 C1111 1.400 . S
C1108 H1093 0.960 . S
C1108 H1094 0.960 . S
C1108 H1095 0.960 . S
C1108 C1107 1.524 . S
C1109 C1106 1.403 . S
C1109 C1110 1.392 . S
C1109 C1113 1.495 . S
C1110 C1109 1.392 . S
C1110 C1111 1.385 . S
C1110 C1112 1.478 . S
C1111 H1105 0.930 . S
C1111 C1107 1.400 . S
C1111 C1110 1.385 . S
C1112 C1110 1.478 . S
C1112 C1114 1.381 . S
C1112 C1118 1.383 . S
C1113 C1109 1.495 . S
C1113 H1119 0.959 . S
C1113 H1120 0.961 . S
C1113 H1121 0.960 . S
C1114 C1112 1.381 . S
C1114 C1115 1.394 . S
C1114 H1122 0.930 . S
C1115 C1114 1.394 . S
C1115 C1116 1.383 . S
C1115 H1123 0.929 . S
C1116 C1115 1.383 . S
C1116 C1117 1.377 . S
C1117 H1101 0.930 . S
C1117 C1116 1.377 . S
C1117 C1118 1.379 . S
C1118 H1102 0.931 . S
C1118 C1112 1.383 . S
C1118 C1117 1.379 . S
H1119 C1113 0.959 . S
H1120 C1113 0.961 . S
H1121 C1113 0.960 . S
H1122 C1114 0.930 . S
H1123 C1115 0.929 . S
H1124 C1132 0.929 . S
H1125 C1134 0.930 . S
H1126 C1136 0.930 . S
H1127 C1139 0.929 . S
H1128 C1142 0.930 . S
H1129 C1144 0.960 . S
H1130 C1144 0.960 . S
H1131 C1144 0.960 . S
C1132 H1124 0.929 . S
C1132 C1133 1.377 . S
C1132 C1134 1.384 . S
C1133 C1132 1.377 . S
C1133 C1139 1.390 . S
C1134 H1125 0.930 . S
C1134 C1132 1.384 . S
C1134 C1135 1.372 . S
C1135 C1134 1.372 . S
C1135 C1136 1.400 . S
C1135 C1140 1.490 . S
C1136 H1126 0.930 . S
C1136 C1135 1.400 . S
C1136 C1139 1.386 . S
H1137 C1153 0.930 . S
H1138 C1154 0.931 . S
C1139 H1127 0.929 . S
C1139 C1133 1.390 . S
C1139 C1136 1.386 . S
C1140 C1135 1.490 . S
C1140 C1142 1.395 . S
C1140 C1143 1.403 . S
H1141 C1147 0.930 . S
C1142 H1128 0.930 . S
C1142 C1140 1.395 . S
C1142 C1145 1.403 . S
C1143 C1140 1.403 . S
C1143 C1144 1.524 . S
C1143 C1147 1.400 . S
C1144 H1129 0.960 . S
C1144 H1130 0.960 . S
C1144 H1131 0.960 . S
C1144 C1143 1.524 . S
C1145 C1142 1.403 . S
C1145 C1146 1.392 . S
C1145 C1149 1.495 . S
C1146 C1145 1.392 . S
C1146 C1147 1.385 . S
C1146 C1148 1.478 . S
C1147 H1141 0.930 . S
C1147 C1143 1.400 . S
C1147 C1146 1.385 . S
C1148 C1146 1.478 . S
C1148 C1150 1.381 . S
C1148 C1154 1.383 . S
C1149 C1145 1.495 . S
C1149 H1155 0.959 . S
C1149 H1156 0.961 . S
C1149 H1157 0.960 . S
C1150 C1148 1.381 . S
C1150 C1151 1.394 . S
C1150 H1158 0.930 . S
C1151 C1150 1.394 . S
C1151 C1152 1.383 . S
C1151 H1159 0.929 . S
C1152 C1151 1.383 . S
C1152 C1153 1.377 . S
C1153 H1137 0.930 . S
C1153 C1152 1.377 . S
C1153 C1154 1.379 . S
C1154 H1138 0.931 . S
C1154 C1148 1.383 . S
C1154 C1153 1.379 . S
H1155 C1149 0.959 . S
H1156 C1149 0.961 . S
H1157 C1149 0.960 . S
H1158 C1150 0.930 . S
H1159 C1151 0.929 . S
H1160 C1168 0.929 . S
H1161 C1170 0.930 . S
H1162 C1172 0.930 . S
H1163 C1175 0.929 . S
H1164 C1178 0.930 . S
H1165 C1180 0.960 . S
H1166 C1180 0.960 . S
H1167 C1180 0.960 . S
C1168 H1160 0.929 . S
C1168 C1169 1.377 . S
C1168 C1170 1.384 . S
C1169 C1168 1.377 . S
C1169 C1175 1.390 . S
C1170 H1161 0.930 . S
C1170 C1168 1.384 . S
C1170 C1171 1.372 . S
C1171 C1170 1.372 . S
C1171 C1172 1.400 . S
C1171 C1176 1.490 . S
C1172 H1162 0.930 . S
C1172 C1171 1.400 . S
C1172 C1175 1.386 . S
H1173 C1189 0.930 . S
H1174 C1190 0.931 . S
C1175 H1163 0.929 . S
C1175 C1169 1.390 . S
C1175 C1172 1.386 . S
C1176 C1171 1.490 . S
C1176 C1178 1.395 . S
C1176 C1179 1.403 . S
H1177 C1183 0.930 . S
C1178 H1164 0.930 . S
C1178 C1176 1.395 . S
C1178 C1181 1.403 . S
C1179 C1176 1.403 . S
C1179 C1180 1.524 . S
C1179 C1183 1.400 . S
C1180 H1165 0.960 . S
C1180 H1166 0.960 . S
C1180 H1167 0.960 . S
C1180 C1179 1.524 . S
C1181 C1178 1.403 . S
C1181 C1182 1.392 . S
C1181 C1185 1.495 . S
C1182 C1181 1.392 . S
C1182 C1183 1.385 . S
C1182 C1184 1.478 . S
C1183 H1177 0.930 . S
C1183 C1179 1.400 . S
C1183 C1182 1.385 . S
C1184 C1182 1.478 . S
C1184 C1186 1.381 . S
C1184 C1190 1.383 . S
C1185 C1181 1.495 . S
C1185 H1191 0.959 . S
C1185 H1192 0.961 . S
C1185 H1193 0.960 . S
C1186 C1184 1.381 . S
C1186 C1187 1.394 . S
C1186 H1194 0.930 . S
C1187 C1186 1.394 . S
C1187 C1188 1.383 . S
C1187 H1195 0.929 . S
C1188 C1187 1.383 . S
C1188 C1189 1.377 . S
C1189 H1173 0.930 . S
C1189 C1188 1.377 . S
C1189 C1190 1.379 . S
C1190 H1174 0.931 . S
C1190 C1184 1.383 . S
C1190 C1189 1.379 . S
H1191 C1185 0.959 . S
H1192 C1185 0.961 . S
H1193 C1185 0.960 . S
H1194 C1186 0.930 . S
H1195 C1187 0.929 . S
H1196 C1204 0.929 . S
H1197 C1206 0.930 . S
H1198 C1208 0.930 . S
H1199 C1211 0.929 . S
H1200 C1214 0.930 . S
H1201 C1216 0.960 . S
H1202 C1216 0.960 . S
H1203 C1216 0.960 . S
C1204 H1196 0.929 . S
C1204 C1205 1.377 . S
C1204 C1206 1.384 . S
C1205 C1204 1.377 . S
C1205 C1211 1.390 . S
C1206 H1197 0.930 . S
C1206 C1204 1.384 . S
C1206 C1207 1.372 . S
C1207 C1206 1.372 . S
C1207 C1208 1.400 . S
C1207 C1212 1.490 . S
C1208 H1198 0.930 . S
C1208 C1207 1.400 . S
C1208 C1211 1.386 . S
H1209 C1225 0.930 . S
H1210 C1226 0.931 . S
C1211 H1199 0.929 . S
C1211 C1205 1.390 . S
C1211 C1208 1.386 . S
C1212 C1207 1.490 . S
C1212 C1214 1.395 . S
C1212 C1215 1.403 . S
H1213 C1219 0.930 . S
C1214 H1200 0.930 . S
C1214 C1212 1.395 . S
C1214 C1217 1.403 . S
C1215 C1212 1.403 . S
C1215 C1216 1.524 . S
C1215 C1219 1.400 . S
C1216 H1201 0.960 . S
C1216 H1202 0.960 . S
C1216 H1203 0.960 . S
C1216 C1215 1.524 . S
C1217 C1214 1.403 . S
C1217 C1218 1.392 . S
C1217 C1221 1.495 . S
C1218 C1217 1.392 . S
C1218 C1219 1.385 . S
C1218 C1220 1.478 . S
C1219 H1213 0.930 . S
C1219 C1215 1.400 . S
C1219 C1218 1.385 . S
C1220 C1218 1.478 . S
C1220 C1222 1.381 . S
C1220 C1226 1.383 . S
C1221 C1217 1.495 . S
C1221 H1227 0.959 . S
C1221 H1228 0.961 . S
C1221 H1229 0.960 . S
C1222 C1220 1.381 . S
C1222 C1223 1.394 . S
C1222 H1230 0.930 . S
C1223 C1222 1.394 . S
C1223 C1224 1.383 . S
C1223 H1231 0.929 . S
C1224 C1223 1.383 . S
C1224 C1225 1.377 . S
C1225 H1209 0.930 . S
C1225 C1224 1.377 . S
C1225 C1226 1.379 . S
C1226 H1210 0.931 . S
C1226 C1220 1.383 . S
C1226 C1225 1.379 . S
H1227 C1221 0.959 . S
H1228 C1221 0.961 . S
H1229 C1221 0.960 . S
H1230 C1222 0.930 . S
H1231 C1223 0.929 . S
H1232 C1240 0.929 . S
H1233 C1242 0.930 . S
H1234 C1244 0.930 . S
H1235 C1247 0.929 . S
H1236 C1250 0.930 . S
H1237 C1252 0.960 . S
H1238 C1252 0.960 . S
H1239 C1252 0.960 . S
C1240 H1232 0.929 . S
C1240 C1241 1.377 . S
C1240 C1242 1.384 . S
C1241 C1240 1.377 . S
C1241 C1247 1.390 . S
C1242 H1233 0.930 . S
C1242 C1240 1.384 . S
C1242 C1243 1.372 . S
C1243 C1242 1.372 . S
C1243 C1244 1.400 . S
C1243 C1248 1.490 . S
C1244 H1234 0.930 . S
C1244 C1243 1.400 . S
C1244 C1247 1.386 . S
H1245 C1261 0.930 . S
H1246 C1262 0.931 . S
C1247 H1235 0.929 . S
C1247 C1241 1.390 . S
C1247 C1244 1.386 . S
C1248 C1243 1.490 . S
C1248 C1250 1.395 . S
C1248 C1251 1.403 . S
H1249 C1255 0.930 . S
C1250 H1236 0.930 . S
C1250 C1248 1.395 . S
C1250 C1253 1.403 . S
C1251 C1248 1.403 . S
C1251 C1252 1.524 . S
C1251 C1255 1.400 . S
C1252 H1237 0.960 . S
C1252 H1238 0.960 . S
C1252 H1239 0.960 . S
C1252 C1251 1.524 . S
C1253 C1250 1.403 . S
C1253 C1254 1.392 . S
C1253 C1257 1.495 . S
C1254 C1253 1.392 . S
C1254 C1255 1.385 . S
C1254 C1256 1.478 . S
C1255 H1249 0.930 . S
C1255 C1251 1.400 . S
C1255 C1254 1.385 . S
C1256 C1254 1.478 . S
C1256 C1258 1.381 . S
C1256 C1262 1.383 . S
C1257 C1253 1.495 . S
C1257 H1263 0.959 . S
C1257 H1264 0.961 . S
C1257 H1265 0.960 . S
C1258 C1256 1.381 . S
C1258 C1259 1.394 . S
C1258 H1266 0.930 . S
C1259 C1258 1.394 . S
C1259 C1260 1.383 . S
C1259 H1267 0.929 . S
C1260 C1259 1.383 . S
C1260 C1261 1.377 . S
C1261 H1245 0.930 . S
C1261 C1260 1.377 . S
C1261 C1262 1.379 . S
C1262 H1246 0.931 . S
C1262 C1256 1.383 . S
C1262 C1261 1.379 . S
H1263 C1257 0.959 . S
H1264 C1257 0.961 . S
H1265 C1257 0.960 . S
H1266 C1258 0.930 . S
H1267 C1259 0.929 . S
C413 C242 1.361 . S
C432 C336 1.258 . S
C468 C344 1.353 . S
C449 C301 1.368 . S
C504 C348 1.273 . S
C485 C162 1.348 . S
C521 C221 1.363 . S
C540 C324 1.352 . S
C576 C365 1.275 . S
C557 C82 1.345 . S
C612 C399 1.311 . S
C593 C141 1.400 . S
C629 C2 1.331 . S
C648 C387 1.311 . S
C665 C61 1.386 . S
C684 C369 1.341 . S
C720 C323 1.288 . S
C701 C42 1.426 1_554 S
C756 C357 1.316 . S
C737 C21 1.393 . S
C792 C361 1.308 . S
C773 C122 1.427 1_556 S
C828 C339 1.322 . S
C809 C101 1.399 . S
C864 C378 1.320 . S
C845 C202 1.412 1_556 S
C881 C181 1.409 . S
C900 C386 1.322 . S
C936 C402 1.288 . S
C917 C282 1.413 1_554 S
C953 C261 1.415 . S
C972 C382 1.323 . S
C1008 C327 1.345 . S
C989 C15 1.496 . S
C1044 C345 1.365 . S
C1025 C55 1.500 . S
C1061 C95 1.480 . S
C1080 C360 1.353 . S
C1116 C340 1.284 . S
C1097 C135 1.484 . S
C1152 C366 1.339 . S
C1133 C175 1.498 . S
C1169 C215 1.498 . S
C1188 C390 1.285 . S
C1205 C255 1.482 . S
C1224 C403 1.328 . S
C1241 C295 1.483 . S
C1260 C381 1.356 . S
