# Generated by pormake.
# Topology ctn, (3,4)-cn, num edge types: 1
# Building blocks:
#     Node 0, Type 0, BuildingBlock: WUSLED_clean_sbu_0, # of connection points: 3
#     Node 1, Type 0, BuildingBlock: WUSLED_clean_sbu_0, # of connection points: 3
#     Node 2, Type 0, BuildingBlock: WUSLED_clean_sbu_0, # of connection points: 3
#     Node 3, Type 0, BuildingBlock: WUSLED_clean_sbu_0, # of connection points: 3
#     Node 4, Type 0, BuildingBlock: WUSLED_clean_sbu_0, # of connection points: 3
#     Node 5, Type 0, BuildingBlock: WUSLED_clean_sbu_0, # of connection points: 3
#     Node 6, Type 0, BuildingBlock: WUSLED_clean_sbu_0, # of connection points: 3
#     Node 7, Type 0, BuildingBlock: WUSLED_clean_sbu_0, # of connection points: 3
#     Node 8, Type 0, BuildingBlock: WUSLED_clean_sbu_0, # of connection points: 3
#     Node 9, Type 0, BuildingBlock: WUSLED_clean_sbu_0, # of connection points: 3
#     Node 10, Type 0, BuildingBlock: WUSLED_clean_sbu_0, # of connection points: 3
#     Node 11, Type 0, BuildingBlock: WUSLED_clean_sbu_0, # of connection points: 3
#     Node 12, Type 0, BuildingBlock: WUSLED_clean_sbu_0, # of connection points: 3
#     Node 13, Type 0, BuildingBlock: WUSLED_clean_sbu_0, # of connection points: 3
#     Node 14, Type 0, BuildingBlock: WUSLED_clean_sbu_0, # of connection points: 3
#     Node 15, Type 0, BuildingBlock: WUSLED_clean_sbu_0, # of connection points: 3
#     Node 16, Type 1, BuildingBlock: NAHDIM_clean_sbu_0, # of connection points: 4
#     Node 17, Type 1, BuildingBlock: NAHDIM_clean_sbu_0, # of connection points: 4
#     Node 18, Type 1, BuildingBlock: NAHDIM_clean_sbu_0, # of connection points: 4
#     Node 19, Type 1, BuildingBlock: NAHDIM_clean_sbu_0, # of connection points: 4
#     Node 20, Type 1, BuildingBlock: NAHDIM_clean_sbu_0, # of connection points: 4
#     Node 21, Type 1, BuildingBlock: NAHDIM_clean_sbu_0, # of connection points: 4
#     Node 22, Type 1, BuildingBlock: NAHDIM_clean_sbu_0, # of connection points: 4
#     Node 23, Type 1, BuildingBlock: NAHDIM_clean_sbu_0, # of connection points: 4
#     Node 24, Type 1, BuildingBlock: NAHDIM_clean_sbu_0, # of connection points: 4
#     Node 25, Type 1, BuildingBlock: NAHDIM_clean_sbu_0, # of connection points: 4
#     Node 26, Type 1, BuildingBlock: NAHDIM_clean_sbu_0, # of connection points: 4
#     Node 27, Type 1, BuildingBlock: NAHDIM_clean_sbu_0, # of connection points: 4
#     Edge 28, Type (0, 1), BuildingBlock: TEMPAE_clean_linker_10, # of connection points: 2
#     Edge 29, Type (0, 1), BuildingBlock: TEMPAE_clean_linker_10, # of connection points: 2
#     Edge 30, Type (0, 1), BuildingBlock: TEMPAE_clean_linker_10, # of connection points: 2
#     Edge 31, Type (0, 1), BuildingBlock: TEMPAE_clean_linker_10, # of connection points: 2
#     Edge 32, Type (0, 1), BuildingBlock: TEMPAE_clean_linker_10, # of connection points: 2
#     Edge 33, Type (0, 1), BuildingBlock: TEMPAE_clean_linker_10, # of connection points: 2
#     Edge 34, Type (0, 1), BuildingBlock: TEMPAE_clean_linker_10, # of connection points: 2
#     Edge 35, Type (0, 1), BuildingBlock: TEMPAE_clean_linker_10, # of connection points: 2
#     Edge 36, Type (0, 1), BuildingBlock: TEMPAE_clean_linker_10, # of connection points: 2
#     Edge 37, Type (0, 1), BuildingBlock: TEMPAE_clean_linker_10, # of connection points: 2
#     Edge 38, Type (0, 1), BuildingBlock: TEMPAE_clean_linker_10, # of connection points: 2
#     Edge 39, Type (0, 1), BuildingBlock: TEMPAE_clean_linker_10, # of connection points: 2
#     Edge 40, Type (0, 1), BuildingBlock: TEMPAE_clean_linker_10, # of connection points: 2
#     Edge 41, Type (0, 1), BuildingBlock: TEMPAE_clean_linker_10, # of connection points: 2
#     Edge 42, Type (0, 1), BuildingBlock: TEMPAE_clean_linker_10, # of connection points: 2
#     Edge 43, Type (0, 1), BuildingBlock: TEMPAE_clean_linker_10, # of connection points: 2
#     Edge 44, Type (0, 1), BuildingBlock: TEMPAE_clean_linker_10, # of connection points: 2
#     Edge 45, Type (0, 1), BuildingBlock: TEMPAE_clean_linker_10, # of connection points: 2
#     Edge 46, Type (0, 1), BuildingBlock: TEMPAE_clean_linker_10, # of connection points: 2
#     Edge 47, Type (0, 1), BuildingBlock: TEMPAE_clean_linker_10, # of connection points: 2
#     Edge 48, Type (0, 1), BuildingBlock: TEMPAE_clean_linker_10, # of connection points: 2
#     Edge 49, Type (0, 1), BuildingBlock: TEMPAE_clean_linker_10, # of connection points: 2
#     Edge 50, Type (0, 1), BuildingBlock: TEMPAE_clean_linker_10, # of connection points: 2
#     Edge 51, Type (0, 1), BuildingBlock: TEMPAE_clean_linker_10, # of connection points: 2
#     Edge 52, Type (0, 1), BuildingBlock: TEMPAE_clean_linker_10, # of connection points: 2
#     Edge 53, Type (0, 1), BuildingBlock: TEMPAE_clean_linker_10, # of connection points: 2
#     Edge 54, Type (0, 1), BuildingBlock: TEMPAE_clean_linker_10, # of connection points: 2
#     Edge 55, Type (0, 1), BuildingBlock: TEMPAE_clean_linker_10, # of connection points: 2
#     Edge 56, Type (0, 1), BuildingBlock: TEMPAE_clean_linker_10, # of connection points: 2
#     Edge 57, Type (0, 1), BuildingBlock: TEMPAE_clean_linker_10, # of connection points: 2
#     Edge 58, Type (0, 1), BuildingBlock: TEMPAE_clean_linker_10, # of connection points: 2
#     Edge 59, Type (0, 1), BuildingBlock: TEMPAE_clean_linker_10, # of connection points: 2
#     Edge 60, Type (0, 1), BuildingBlock: TEMPAE_clean_linker_10, # of connection points: 2
#     Edge 61, Type (0, 1), BuildingBlock: TEMPAE_clean_linker_10, # of connection points: 2
#     Edge 62, Type (0, 1), BuildingBlock: TEMPAE_clean_linker_10, # of connection points: 2
#     Edge 63, Type (0, 1), BuildingBlock: TEMPAE_clean_linker_10, # of connection points: 2
#     Edge 64, Type (0, 1), BuildingBlock: TEMPAE_clean_linker_10, # of connection points: 2
#     Edge 65, Type (0, 1), BuildingBlock: TEMPAE_clean_linker_10, # of connection points: 2
#     Edge 66, Type (0, 1), BuildingBlock: TEMPAE_clean_linker_10, # of connection points: 2
#     Edge 67, Type (0, 1), BuildingBlock: TEMPAE_clean_linker_10, # of connection points: 2
#     Edge 68, Type (0, 1), BuildingBlock: TEMPAE_clean_linker_10, # of connection points: 2
#     Edge 69, Type (0, 1), BuildingBlock: TEMPAE_clean_linker_10, # of connection points: 2
#     Edge 70, Type (0, 1), BuildingBlock: TEMPAE_clean_linker_10, # of connection points: 2
#     Edge 71, Type (0, 1), BuildingBlock: TEMPAE_clean_linker_10, # of connection points: 2
#     Edge 72, Type (0, 1), BuildingBlock: TEMPAE_clean_linker_10, # of connection points: 2
#     Edge 73, Type (0, 1), BuildingBlock: TEMPAE_clean_linker_10, # of connection points: 2
#     Edge 74, Type (0, 1), BuildingBlock: TEMPAE_clean_linker_10, # of connection points: 2
#     Edge 75, Type (0, 1), BuildingBlock: TEMPAE_clean_linker_10, # of connection points: 2
# Relax obj value: 0.002
# Max RMSD: 0.034
# Mean RMSD: 0.019
data_MOF--net-ctn--node1-WUSLED_clean_sbu_0--node2-NAHDIM_clean_sbu_0--edge1-TEMPAE_clean_linker_10
_symmetry_space_group_name_H-M    P1
_symmetry_Int_Tables_number       1
_symmetry_cell_setting            triclinic
loop_
_symmetry_equiv_pos_as_xyz
'x, y, z'
_cell_length_a     71.241148
_cell_length_b     72.034853
_cell_length_c     71.196012
_cell_angle_alpha  91.6686
_cell_angle_beta   89.988511
_cell_angle_gamma 91.860917
loop_
_atom_site_label
_atom_site_type_symbol
_atom_site_fract_x
_atom_site_fract_y
_atom_site_fract_z
_atom_type_partial_charge
C0 C 1.01124 0.06197 0.09097 0.0
C1 C 0.01968 0.05196 0.10515 0.0
C2 C 0.99022 0.05091 0.12267 0.0
C3 C 1.00928 0.04654 0.1209 0.0
C4 C 0.98184 0.06079 0.1083 0.0
C5 C 0.99226 0.06627 0.09264 0.0
U6 U 0.05201 0.05795 0.05597 0.0
O7 O 0.05215 0.06114 0.02533 0.0
O8 O 0.0696 0.07996 0.04329 0.0
C9 C 0.0633 0.07604 0.02624 0.0
C10 C 0.02192 0.06816 0.07442 0.0
C11 C 0.05716 0.09195 0.01553 0.0
C12 C 0.03478 0.11584 1.00935 0.0
C13 C 0.04047 0.10093 0.01997 0.0
C14 C 0.06246 0.11298 0.98985 0.0
C15 C 0.04568 0.12201 0.99408 0.0
C16 C 0.06812 0.09812 1.00047 0.0
C17 C 0.08722 0.01891 0.06136 0.0
C18 C 0.11807 0.01716 0.04683 0.0
C19 C 0.10373 0.98988 0.06072 0.0
C20 C 0.08805 1.00011 0.06573 0.0
C21 C 0.11897 0.99828 0.05126 0.0
C22 C 0.10229 0.02738 0.05177 0.0
C23 C 0.07058 0.02932 0.06715 0.0
O24 O 0.03881 0.07541 0.07775 0.0
O25 O 0.02129 0.05673 0.05969 0.0
O26 O 0.05609 0.02775 0.05574 0.0
O27 O 0.07375 0.04638 0.07373 0.0
H28 H 0.0343 0.04837 0.10407 0.0
H29 H 0.0161 0.03877 0.13161 0.0
H30 H 0.96727 0.06457 0.10931 0.0
H31 H 0.9855 0.074 0.08184 0.0
H32 H 0.0217 0.12234 0.01289 0.0
H33 H 0.0318 0.09632 0.03156 0.0
H34 H 0.07135 0.11753 0.97841 0.0
H35 H 0.08108 0.0914 0.99689 0.0
H36 H 0.12947 0.02398 0.03937 0.0
H37 H 0.10404 0.97545 0.06455 0.0
H38 H 0.07657 0.99334 0.07315 0.0
H39 H 0.10189 0.04186 0.04815 0.0
C40 C 0.27959 0.7496 0.18401 0.0
C41 C 0.29609 0.75752 0.17639 0.0
C42 C 0.27754 0.77669 0.15617 0.0
C43 C 0.29507 0.7709 0.16254 0.0
C44 C 0.2611 0.76888 0.16407 0.0
C45 C 0.26214 0.75547 0.17781 0.0
U46 U 0.30188 0.72536 0.22571 0.0
O47 O 0.28802 0.71326 0.25042 0.0
O48 O 0.30388 0.69555 0.23094 0.0
C49 C 0.29246 0.69623 0.24546 0.0
C50 C 0.28009 0.73499 0.19809 0.0
C51 C 0.27707 0.68187 0.24604 0.0
C52 C 0.2601 0.65468 0.23263 0.0
C53 C 0.27394 0.66883 0.23118 0.0
C54 C 0.252 0.66651 0.26364 0.0
C55 C 0.24903 0.65324 0.24894 0.0
C56 C 0.26589 0.68058 0.26222 0.0
C57 C 0.34828 0.74476 0.24727 0.0
C58 C 0.36126 0.73588 0.2772 0.0
C59 C 0.37987 0.75509 0.25639 0.0
C60 C 0.36509 0.75455 0.24345 0.0
C61 C 0.37813 0.74586 0.27349 0.0
C62 C 0.34648 0.73529 0.26417 0.0
C63 C 0.33277 0.74499 0.2336 0.0
O64 O 0.29334 0.7228 0.19604 0.0
O65 O 0.27763 0.74051 0.21564 0.0
O66 O 0.31621 0.749 0.24049 0.0
O67 O 0.33204 0.73124 0.22105 0.0
H68 H 0.30974 0.75329 0.18106 0.0
H69 H 0.30798 0.77678 0.15687 0.0
H70 H 0.24739 0.77282 0.15933 0.0
H71 H 0.24925 0.74951 0.18348 0.0
H72 H 0.2584 0.6446 0.22113 0.0
H73 H 0.28237 0.66933 0.21853 0.0
H74 H 0.24357 0.66605 0.27628 0.0
H75 H 0.26803 0.69038 0.27392 0.0
H76 H 0.35953 0.72847 0.29014 0.0
H77 H 0.39253 0.76312 0.25318 0.0
H78 H 0.36673 0.76198 0.2305 0.0
H79 H 0.33362 0.72757 0.26734 0.0
C80 C 0.9658 0.44354 0.01099 0.0
C81 C 0.97695 0.43025 0.01918 0.0
C82 C 0.97594 0.41142 0.99008 0.0
C83 C 0.98195 0.41431 1.00883 0.0
C84 C 0.96488 0.42492 0.98197 0.0
C85 C 0.95986 0.44078 0.99234 0.0
U86 U 0.97118 0.47858 0.0524 0.0
O87 O 0.9696 0.50911 0.05276 0.0
O88 O 0.9496 0.49247 0.06926 0.0
C89 C 0.95447 0.50906 0.06333 0.0
C90 C 0.96028 0.46038 0.02156 0.0
C91 C 0.93905 0.52055 0.05698 0.0
C92 C 0.90916 0.52413 0.04113 0.0
C93 C 0.92397 0.51296 0.04627 0.0
C94 C 0.92455 0.55064 0.057 0.0
C95 C 0.90919 0.5431 0.04657 0.0
C96 C 0.93928 0.53947 0.06217 0.0
C97 C 1.00928 0.47188 0.08965 0.0
C98 C 0.02097 0.49544 0.1123 0.0
C99 C 0.02835 0.46318 0.1161 0.0
C100 C 0.01813 0.45829 0.09983 0.0
C101 C 0.02997 0.48183 0.1225 0.0
C102 C 1.01065 0.4905 0.09605 0.0
C103 C 0.999 0.46631 0.07231 0.0
O104 O 0.95257 0.4577 0.03809 0.0
O105 O 0.97261 0.47435 0.02167 0.0
O106 O 1.00144 0.47723 0.05797 0.0
O107 O 0.98143 0.46069 0.07453 0.0
H108 H 0.98172 0.43216 0.03357 0.0
H109 H 0.99033 0.40415 0.01559 0.0
H110 H 0.96028 0.42336 0.9675 0.0
H111 H 0.95134 0.45096 0.98574 0.0
H112 H 0.89752 0.51781 0.03323 0.0
H113 H 0.92354 0.49837 0.04208 0.0
H114 H 0.92526 0.56523 0.06113 0.0
H115 H 0.95083 0.54561 0.07035 0.0
H116 H 0.02177 0.50989 0.11697 0.0
H117 H 0.03527 0.45239 0.12348 0.0
H118 H 0.01726 0.44385 0.0951 0.0
H119 H 1.00381 0.50122 0.08845 0.0
C120 C 0.71751 0.76991 0.18489 0.0
C121 C 0.73663 0.76966 0.18007 0.0
C122 C 0.72933 0.74967 0.15261 0.0
C123 C 0.74249 0.75956 0.16413 0.0
C124 C 0.71018 0.75022 0.15736 0.0
C125 C 0.70435 0.76019 0.17336 0.0
U126 U 0.72092 0.81034 0.22118 0.0
O127 O 0.6986 0.82624 0.23479 0.0
O128 O 0.71744 0.81017 0.25195 0.0
C129 C 0.70226 0.82005 0.25155 0.0
C130 C 0.71099 0.77992 0.20194 0.0
C131 C 0.68604 0.81283 0.2624 0.0
C132 C 0.65468 0.79849 0.26415 0.0
C133 C 0.67012 0.80457 0.25351 0.0
C134 C 0.67102 0.80843 0.29271 0.0
C135 C 0.65493 0.8004 0.28389 0.0
C136 C 0.68637 0.81462 0.28206 0.0
C137 C 0.75992 0.84821 0.21508 0.0
C138 C 0.76978 0.87199 0.23832 0.0
C139 C 0.78108 0.87363 0.20631 0.0
C140 C 0.77074 0.85736 0.20154 0.0
C141 C 0.78087 0.88111 0.22479 0.0
C142 C 0.75938 0.85567 0.2335 0.0
C143 C 0.74959 0.83085 0.20956 0.0
O144 O 0.72229 0.78011 0.21655 0.0
O145 O 0.70348 0.79605 0.19925 0.0
O146 O 0.73232 0.83268 0.20358 0.0
O147 O 0.75131 0.8168 0.22076 0.0
H148 H 0.74704 0.77718 0.18867 0.0
H149 H 0.75731 0.7596 0.16073 0.0
H150 H 0.69971 0.74262 0.14889 0.0
H151 H 0.68954 0.7602 0.17682 0.0
H152 H 0.6426 0.79216 0.25695 0.0
H153 H 0.66956 0.8029 0.23834 0.0
H154 H 0.6716 0.81028 0.30785 0.0
H155 H 0.69849 0.82097 0.2892 0.0
H156 H 0.76938 0.87727 0.25271 0.0
H157 H 0.78914 0.88045 0.19544 0.0
H158 H 0.77125 0.85187 0.18722 0.0
H159 H 0.75105 0.84881 0.24416 0.0
C160 C 1.00967 0.97397 0.4401 0.0
C161 C 0.01646 0.98776 0.42808 0.0
C162 C 0.98787 0.98443 0.40921 0.0
C163 C 1.00566 0.99293 0.41275 0.0
C164 C 0.98116 0.9707 0.42142 0.0
C165 C 0.99196 0.96554 0.4367 0.0
U166 U 0.05245 0.97916 0.47265 0.0
O167 O 0.05448 0.97608 0.50322 0.0
O168 O 0.07006 0.95764 0.48422 0.0
C169 C 0.06501 0.96146 0.50163 0.0
C170 C 0.0209 0.96807 0.4561 0.0
C171 C 0.0592 0.94538 0.51285 0.0
C172 C 0.03528 0.9238 0.52458 0.0
C173 C 0.04045 0.93879 0.51334 0.0
C174 C 0.06758 0.92167 0.53468 0.0
C175 C 0.04877 0.91512 0.5355 0.0
C176 C 0.07271 0.93664 0.52349 0.0
C177 C 0.08891 0.01872 0.46469 0.0
C178 C 0.11428 0.02764 0.48632 0.0
C179 C 0.11265 0.04186 0.45597 0.0
C180 C 0.09639 0.03118 0.45171 0.0
C181 C 0.12177 0.0403 0.47336 0.0
C182 C 0.098 0.0169 0.482 0.0
C183 C 0.07147 1.00807 0.45998 0.0
O184 O 0.03727 0.9612 0.45183 0.0
O185 O 0.02161 0.97962 0.47074 0.0
O186 O 0.05779 1.00939 0.47229 0.0
O187 O 0.07356 0.99103 0.4534 0.0
H188 H 0.0301 0.99447 0.43055 0.0
H189 H 1.01117 1.00367 0.40375 0.0
H190 H 0.96767 0.96368 0.41898 0.0
H191 H 0.98653 0.95483 0.4458 0.0
H192 H 0.02065 0.91925 0.52499 0.0
H193 H 0.02981 0.94533 0.50518 0.0
H194 H 0.0784 0.91514 0.5426 0.0
H195 H 0.08727 0.94147 0.52321 0.0
H196 H 0.12106 0.02596 0.49975 0.0
H197 H 0.11786 0.05164 0.44578 0.0
H198 H 0.08953 0.0328 0.4383 0.0
H199 H 0.09246 1.00727 0.49218 0.0
C200 C 0.21387 0.76924 0.84377 0.0
C201 C 0.22495 0.76116 0.85744 0.0
C202 C 0.2251 0.78992 0.87642 0.0
C203 C 0.23046 0.77139 0.87366 0.0
C204 C 0.21412 0.79794 0.86257 0.0
C205 C 0.20855 0.78768 0.84643 0.0
U206 U 0.21867 0.7291 0.80781 0.0
O207 O 0.19674 0.7111 0.7942 0.0
O208 O 0.21531 0.72866 0.77709 0.0
C209 C 0.20034 0.7175 0.77743 0.0
C210 C 0.20769 0.75868 0.82672 0.0
C211 C 0.18393 0.72353 0.76687 0.0
C212 C 0.16235 0.74734 0.75815 0.0
C213 C 0.17785 0.74186 0.76849 0.0
C214 C 0.15865 0.71617 0.74467 0.0
C215 C 0.15256 0.73455 0.7461 0.0
C216 C 0.17419 0.71074 0.75494 0.0
C217 C 0.25916 0.69544 0.81437 0.0
C218 C 0.26479 0.66797 0.79474 0.0
C219 C 0.28635 0.67688 0.81997 0.0
C220 C 0.27544 0.69212 0.82459 0.0
C221 C 0.28121 0.6646 0.80498 0.0
C222 C 0.25386 0.68329 0.79938 0.0
C223 C 0.24803 0.71162 0.81972 0.0
O224 O 0.21921 0.75951 0.81233 0.0
O225 O 0.20068 0.74185 0.82937 0.0
O226 O 0.23081 0.708 0.8255 0.0
O227 O 0.24926 0.72571 0.80842 0.0
H228 H 0.22932 0.74696 0.85557 0.0
H229 H 0.23909 0.76488 0.88394 0.0
H230 H 0.20959 0.8121 0.86435 0.0
H231 H 0.19999 0.79414 0.83604 0.0
H232 H 0.1579 0.76153 0.75974 0.0
H233 H 0.1851 0.75192 0.77775 0.0
H234 H 0.15156 0.70604 0.73539 0.0
H235 H 0.17866 0.69654 0.7535 0.0
H236 H 0.26051 0.65888 0.78303 0.0
H237 H 0.2987 0.67457 0.82836 0.0
H238 H 0.2797 0.70132 0.83624 0.0
H239 H 0.24133 0.68568 0.7913 0.0
C240 C 0.96967 0.59022 0.51672 0.0
C241 C 0.97877 0.60544 0.50831 0.0
C242 C 0.9796 0.62256 0.53844 0.0
C243 C 0.98366 0.62148 0.51908 0.0
C244 C 0.97075 0.6071 0.54678 0.0
C245 C 0.96582 0.59114 0.53601 0.0
U246 U 0.97449 0.55467 0.47558 0.0
O247 O 0.97043 0.52422 0.47573 0.0
O248 O 0.95242 0.54076 0.4582 0.0
C249 C 0.95553 0.5243 0.46485 0.0
C250 C 0.96375 0.57336 0.50574 0.0
C251 C 0.93886 0.5139 0.47169 0.0
C252 C 0.91027 0.51217 0.49034 0.0
C253 C 0.92615 0.52222 0.48416 0.0
C254 C 0.91979 0.48531 0.47187 0.0
C255 C 0.90689 0.49358 0.48426 0.0
C256 C 0.9356 0.4954 0.46564 0.0
C257 C 0.01473 0.56061 0.43979 0.0
C258 C 0.02474 0.53712 0.41699 0.0
C259 C 0.03714 0.56874 0.41539 0.0
C260 C 0.02635 0.57381 0.43101 0.0
C261 C 0.03655 0.55032 0.40821 0.0
C262 C 0.01387 0.54224 0.43262 0.0
C263 C 1.00403 0.56633 0.45659 0.0
O264 O 0.95698 0.57593 0.48886 0.0
O265 O 0.97511 0.55938 0.5063 0.0
O266 O 1.00504 0.55552 0.4711 0.0
O267 O 0.98699 0.57204 0.45356 0.0
H268 H 0.98193 0.60499 0.49343 0.0
H269 H 0.99032 0.63315 0.51215 0.0
H270 H 0.96774 0.60725 0.56169 0.0
H271 H 0.95891 0.5795 0.54278 0.0
H272 H 0.90074 0.51887 0.50004 0.0
H273 H 0.9285 0.53648 0.48909 0.0
H274 H 0.91751 0.47111 0.46676 0.0
H275 H 0.94525 0.48875 0.45602 0.0
H276 H 0.02381 0.52287 0.41171 0.0
H277 H 0.04626 0.5792 0.40918 0.0
H278 H 0.02724 0.58804 0.43637 0.0
H279 H 1.00491 0.53185 0.43916 0.0
C280 C 0.78486 0.78398 0.84886 0.0
C281 C 0.80123 0.77853 0.85793 0.0
C282 C 0.78274 0.75728 0.87722 0.0
C283 C 0.80016 0.76536 0.87203 0.0
C284 C 0.76645 0.76255 0.86785 0.0
C285 C 0.76751 0.77579 0.85387 0.0
U286 U 0.8064 0.80793 0.80587 0.0
O287 O 0.79228 0.8198 0.7817 0.0
O288 O 0.81002 0.83772 0.80029 0.0
C289 C 0.79819 0.83685 0.7861 0.0
C290 C 0.78534 0.79849 0.83458 0.0
C291 C 0.78376 0.85104 0.7864 0.0
C292 C 0.75568 0.86456 0.7997 0.0
C293 C 0.76911 0.85075 0.79957 0.0
C294 C 0.77144 0.87902 0.77347 0.0
C295 C 0.75674 0.87893 0.78669 0.0
C296 C 0.7848 0.86521 0.77335 0.0
C297 C 0.85082 0.78815 0.78296 0.0
C298 C 0.86486 0.79884 0.75387 0.0
C299 C 0.88019 0.77562 0.77183 0.0
C300 C 0.86579 0.77627 0.78515 0.0
C301 C 0.87992 0.78686 0.756 0.0
C302 C 0.85044 0.7995 0.76728 0.0
C303 C 0.83573 0.78821 0.7971 0.0
O304 O 0.79924 0.81094 0.83582 0.0
O305 O 0.78171 0.79277 0.81722 0.0
O306 O 0.8187 0.78419 0.79077 0.0
O307 O 0.83634 0.80214 0.80944 0.0
H308 H 0.81482 0.78453 0.85424 0.0
H309 H 0.81298 0.76146 0.87885 0.0
H310 H 0.7528 0.75677 0.87164 0.0
H311 H 0.75471 0.77982 0.8471 0.0
H312 H 0.74467 0.86417 0.81018 0.0
H313 H 0.76812 0.83991 0.8098 0.0
H314 H 0.77253 0.88968 0.76307 0.0
H315 H 0.79599 0.86563 0.76304 0.0
H316 H 0.8643 0.80779 0.74194 0.0
H317 H 0.89138 0.76603 0.77378 0.0
H318 H 0.86628 0.76736 0.79713 0.0
H319 H 0.83898 0.80881 0.76539 0.0
C320 C 0.28296 0.28183 0.34891 0.0
C321 C 0.2954 0.26713 0.34771 0.0
C322 C 0.28181 0.25395 0.37607 0.0
C323 C 0.29484 0.2533 0.36118 0.0
C324 C 0.26951 0.26885 0.37721 0.0
C325 C 0.27009 0.28262 0.36376 0.0
U326 U 0.30404 0.30558 0.3059 0.0
O327 O 0.28977 0.31716 0.2816 0.0
O328 O 0.30751 0.33529 0.30002 0.0
C329 C 0.29561 0.33425 0.28588 0.0
C330 C 0.28308 0.29635 0.33476 0.0
C331 C 0.28116 0.34847 0.28583 0.0
C332 C 0.25908 0.36845 0.30204 0.0
C333 C 0.27214 0.35432 0.30242 0.0
C334 C 0.26356 0.37069 0.26846 0.0
C335 C 0.25474 0.37695 0.28506 0.0
C336 C 0.27664 0.35664 0.26887 0.0
C337 C 0.34857 0.28598 0.28309 0.0
C338 C 0.3618 0.29541 0.25319 0.0
C339 C 0.37892 0.27498 0.27294 0.0
C340 C 0.36447 0.27554 0.2862 0.0
C341 C 0.37778 0.28487 0.25624 0.0
C342 C 0.34734 0.29601 0.26654 0.0
C343 C 0.33348 0.28599 0.29724 0.0
O344 O 0.29707 0.30867 0.33594 0.0
O345 O 0.27947 0.29055 0.31743 0.0
O346 O 0.31646 0.2818 0.29098 0.0
O347 O 0.33402 0.29998 0.3095 0.0
H348 H 0.30545 0.26629 0.33631 0.0
H349 H 0.30439 0.24195 0.35975 0.0
H350 H 0.25952 0.26997 0.38862 0.0
H351 H 0.26044 0.29392 0.36494 0.0
H352 H 0.25271 0.37301 0.31512 0.0
H353 H 0.27538 0.34815 0.31568 0.0
H354 H 0.26033 0.37663 0.25508 0.0
H355 H 0.28336 0.35224 0.2559 0.0
H356 H 0.36056 0.30331 0.24057 0.0
H357 H 0.39086 0.2665 0.27563 0.0
H358 H 0.36564 0.26768 0.29887 0.0
H359 H 0.33518 0.30423 0.26394 0.0
C360 C 0.46893 0.94339 0.51249 0.0
C361 C 0.48213 0.93171 0.52017 0.0
C362 C 0.48057 0.91163 0.49196 0.0
C363 C 0.48787 0.91593 0.51001 0.0
C364 C 0.46741 0.92348 0.48435 0.0
C365 C 0.46165 0.93919 0.49453 0.0
U366 U 0.47244 0.97824 0.55408 0.0
O367 O 0.46919 1.00851 0.55499 0.0
O368 O 0.44996 0.99064 0.57107 0.0
C369 C 0.45393 1.0075 0.56535 0.0
C370 C 0.46251 0.9599 0.52301 0.0
C371 C 0.4378 0.01795 0.55886 0.0
C372 C 0.41789 0.02891 0.53399 0.0
C373 C 0.43313 0.01862 0.53973 0.0
C374 C 0.41166 0.03772 0.56643 0.0
C375 C 0.40697 0.03858 0.54729 0.0
C376 C 0.42694 0.02753 0.57213 0.0
C377 C 0.51078 0.9725 0.59143 0.0
C378 C 0.52094 0.9958 0.61503 0.0
C379 C 0.5306 0.96402 0.61739 0.0
C380 C 0.52064 0.95914 0.60097 0.0
C381 C 0.53095 0.98242 0.62461 0.0
C382 C 0.51088 0.99087 0.59862 0.0
C383 C 0.50078 0.96695 0.57394 0.0
O384 O 0.45485 0.95673 0.53945 0.0
O385 O 0.47421 0.9744 0.52333 0.0
O386 O 0.50276 0.97831 0.55989 0.0
O387 O 0.48345 0.96048 0.57595 0.0
H388 H 0.48796 0.93478 0.53401 0.0
H389 H 0.49818 0.90723 0.51619 0.0
H390 H 0.46132 0.92046 0.47061 0.0
H391 H 0.45141 0.94804 0.48841 0.0
H392 H 0.41451 0.02912 0.51917 0.0
H393 H 0.44125 1.01121 0.52925 0.0
H394 H 0.40369 0.04516 0.57701 0.0
H395 H 0.43033 0.0272 0.58696 0.0
H396 H 0.52076 1.01004 0.62033 0.0
H397 H 0.53833 0.95343 0.62426 0.0
H398 H 0.52075 0.9449 0.59562 0.0
H399 H 0.50326 1.00138 0.59151 0.0
C400 C 0.21583 0.26962 0.68758 0.0
C401 C 0.23463 0.27083 0.68169 0.0
C402 C 0.22767 0.24893 0.65564 0.0
C403 C 0.24052 0.26051 0.6659 0.0
C404 C 0.20883 0.2479 0.66156 0.0
C405 C 0.20299 0.25812 0.67739 0.0
U406 U 0.22004 0.3109 0.72263 0.0
O407 O 0.19791 0.32819 0.73485 0.0
O408 O 0.21568 0.31221 0.75321 0.0
C409 C 0.20091 0.32259 0.75197 0.0
C410 C 0.20929 0.28026 0.70419 0.0
C411 C 0.18403 0.31668 0.76261 0.0
C412 C 0.16494 0.29313 0.7783 0.0
C413 C 0.18072 0.29811 0.76758 0.0
C414 C 0.15535 0.32507 0.77886 0.0
C415 C 0.1521 0.30658 0.78419 0.0
C416 C 0.17116 0.33005 0.76826 0.0
C417 C 0.26042 0.34719 0.71653 0.0
C418 C 0.27249 0.36978 0.73998 0.0
C419 C 0.28065 0.37313 0.7072 0.0
C420 C 0.26991 0.35707 0.70256 0.0
C421 C 0.28217 0.37964 0.72598 0.0
C422 C 0.26164 0.35373 0.73529 0.0
C423 C 0.24973 0.32998 0.71115 0.0
O424 O 0.22031 0.28049 0.71902 0.0
O425 O 0.20255 0.2966 0.7008 0.0
O426 O 0.23276 0.33217 0.70451 0.0
O427 O 0.25062 0.31618 0.72278 0.0
H428 H 0.24474 0.27976 0.68927 0.0
H429 H 0.25507 0.26178 0.66158 0.0
H430 H 0.19863 0.23898 0.6541 0.0
H431 H 0.18842 0.25702 0.68172 0.0
H432 H 0.16301 0.2788 0.78226 0.0
H433 H 0.1904 0.28749 0.76335 0.0
H434 H 0.14561 0.33575 0.7828 0.0
H435 H 0.17338 0.34443 0.76452 0.0
H436 H 0.27322 0.37454 0.75454 0.0
H437 H 0.2881 0.38023 0.69611 0.0
H438 H 0.26918 0.35223 0.68801 0.0
H439 H 0.25432 0.34637 0.74631 0.0
C440 C 0.78008 0.25151 0.68336 0.0
C441 C 0.7965 0.25999 0.67618 0.0
C442 C 0.77779 0.27871 0.65565 0.0
C443 C 0.79536 0.27343 0.66239 0.0
C444 C 0.76142 0.27038 0.66317 0.0
C445 C 0.76257 0.25692 0.67685 0.0
U446 U 0.80231 0.22686 0.72489 0.0
O447 O 0.78859 0.21366 0.74898 0.0
O448 O 0.80496 0.19686 0.72911 0.0
C449 C 0.79342 0.19687 0.74352 0.0
C450 C 0.78074 0.23663 0.69714 0.0
C451 C 0.77847 0.18206 0.74326 0.0
C452 C 0.76973 0.14908 0.7412 0.0
C453 C 0.7834 0.16345 0.74061 0.0
C454 C 0.74583 0.17164 0.74716 0.0
C455 C 0.7508 0.15298 0.74462 0.0
C456 C 0.7595 0.18603 0.74645 0.0
C457 C 0.84772 0.2468 0.74788 0.0
C458 C 0.86239 0.23358 0.77508 0.0
C459 C 0.87653 0.26081 0.7609 0.0
C460 C 0.86211 0.2605 0.74756 0.0
C461 C 0.87687 0.24738 0.77486 0.0
C462 C 0.84794 0.23329 0.76168 0.0
C463 C 0.83254 0.24709 0.73387 0.0
O464 O 0.79436 0.22486 0.69504 0.0
O465 O 0.77783 0.24167 0.71477 0.0
O466 O 0.81576 0.25046 0.74057 0.0
O467 O 0.83239 0.23366 0.72096 0.0
H468 H 0.81018 0.25611 0.68108 0.0
H469 H 0.80822 0.27971 0.65703 0.0
H470 H 0.74768 0.27392 0.65814 0.0
H471 H 0.74974 0.25051 0.68217 0.0
H472 H 0.77407 0.13487 0.7394 0.0
H473 H 0.79792 0.15999 0.7383 0.0
H474 H 0.73135 0.17512 0.74963 0.0
H475 H 0.75519 0.20022 0.74855 0.0
H476 H 0.86229 0.22294 0.78552 0.0
H477 H 0.88723 0.27181 0.76047 0.0
H478 H 0.86212 0.27109 0.73706 0.0
H479 H 0.83693 0.22258 0.76211 0.0
C480 C 0.51493 0.56693 0.59218 0.0
C481 C 0.51672 0.54928 0.59972 0.0
C482 C 0.49472 0.5571 0.62479 0.0
C483 C 0.50666 0.54438 0.61585 0.0
C484 C 0.49313 0.57481 0.61722 0.0
C485 C 0.50312 0.57965 0.60107 0.0
U486 U 0.55402 0.56037 0.5558 0.0
O487 O 0.55309 0.56249 0.52499 0.0
O488 O 0.57188 0.5812 0.54172 0.0
C489 C 0.56478 0.57698 0.52503 0.0
C490 C 0.52507 0.57229 0.57503 0.0
C491 C 0.55902 0.59272 0.51377 0.0
C492 C 0.54499 0.62288 0.51086 0.0
C493 C 0.54978 0.6079 0.52187 0.0
C494 C 0.55832 0.60748 0.48351 0.0
C495 C 0.54931 0.62291 0.49154 0.0
C496 C 0.56314 0.59259 0.49452 0.0
C497 C 0.58817 0.52056 0.5615 0.0
C498 C 0.61598 0.51595 0.5423 0.0
C499 C 0.60645 0.49294 0.56485 0.0
C500 C 0.59118 0.50365 0.57009 0.0
C501 C 0.61906 0.49894 0.5509 0.0
C502 C 0.60063 0.52665 0.54752 0.0
C503 C 0.57205 0.53158 0.56747 0.0
O504 O 0.54228 0.57903 0.57756 0.0
O505 O 0.52355 0.56045 0.56066 0.0
O506 O 0.55718 0.53009 0.55654 0.0
O507 O 0.57599 0.54876 0.57325 0.0
H508 H 0.52587 0.53929 0.5931 0.0
H509 H 0.50837 0.53072 0.62144 0.0
H510 H 0.48391 0.58485 0.6236 0.0
H511 H 0.50154 0.59333 0.59544 0.0
H512 H 0.53821 0.63456 0.51756 0.0
H513 H 0.54642 0.60826 0.53672 0.0
H514 H 0.56154 0.60682 0.46865 0.0
H515 H 0.57016 0.58096 0.48798 0.0
H516 H 0.6253 0.52087 0.53137 0.0
H517 H 0.60852 0.48007 0.57194 0.0
H518 H 0.58173 0.49876 0.58094 0.0
H519 H 0.59848 0.53965 0.54069 0.0
C520 C 0.5065 0.47406 0.93985 0.0
C521 C 0.51371 0.48754 0.9277 0.0
C522 C 0.48513 0.48482 0.90876 0.0
C523 C 0.50313 0.49285 0.91226 0.0
C524 C 0.47797 0.47144 0.92113 0.0
C525 C 0.48856 0.46612 0.93649 0.0
U526 U 0.5484 0.47909 0.97361 0.0
O527 O 0.54972 0.4751 1.00407 0.0
O528 O 0.56615 0.45754 0.98495 0.0
C529 C 0.56065 0.46079 1.00233 0.0
C530 C 0.5175 0.46792 0.95592 0.0
C531 C 0.55512 0.44432 0.01312 0.0
C532 C 0.53147 0.42269 0.02527 0.0
C533 C 0.53636 0.43785 0.01415 0.0
C534 C 0.56408 0.42008 0.03409 0.0
C535 C 0.54526 0.41372 0.03553 0.0
C536 C 0.56893 0.43523 0.02303 0.0
C537 C 0.58441 0.51932 0.96852 0.0
C538 C 0.61361 0.5221 0.98623 0.0
C539 C 0.60402 0.54748 0.96721 0.0
C540 C 0.58785 0.53719 0.96178 0.0
C541 C 0.61712 0.54007 0.9795 0.0
C542 C 0.59735 0.51183 0.98083 0.0
C543 C 0.56724 0.50881 0.96262 0.0
O544 O 0.53413 0.46153 0.95184 0.0
O545 O 0.5176 0.479 0.97091 0.0
O546 O 0.55314 0.50946 0.9745 0.0
O547 O 0.56971 0.49207 0.95538 0.0
H548 H 0.52753 0.49388 0.93013 0.0
H549 H 0.50899 0.50332 0.90314 0.0
H550 H 0.4643 0.46478 0.91873 0.0
H551 H 0.48278 0.45567 0.94569 0.0
H552 H 0.51683 0.41828 0.02616 0.0
H553 H 0.52547 0.44467 1.00657 0.0
H554 H 0.57512 0.41333 0.04149 0.0
H555 H 0.5835 0.43996 0.02234 0.0
H556 H 0.6233 0.51607 0.99587 0.0
H557 H 0.6064 0.56117 0.96159 0.0
H558 H 0.57801 0.54319 0.95226 0.0
H559 H 0.59487 0.49807 0.98627 0.0
C560 C 0.71273 0.26762 0.34394 0.0
C561 C 0.7237 0.25964 0.35776 0.0
C562 C 0.72422 0.28872 0.37624 0.0
C563 C 0.72934 0.27009 0.37381 0.0
C564 C 0.71334 0.29664 0.36225 0.0
C565 C 0.70764 0.28617 0.34628 0.0
U566 U 0.71624 0.22639 0.30898 0.0
O567 O 0.69373 0.20894 0.29565 0.0
O568 O 0.71301 0.22541 0.27823 0.0
C569 C 0.69769 0.21476 0.27874 0.0
C570 C 0.70637 0.25685 0.32709 0.0
C571 C 0.6816 0.22105 0.26789 0.0
C572 C 0.65931 0.2446 0.26033 0.0
C573 C 0.67466 0.23892 0.27078 0.0
C574 C 0.65761 0.21455 0.24412 0.0
C575 C 0.65057 0.23246 0.24689 0.0
C576 C 0.67298 0.20893 0.25452 0.0
C577 C 0.75478 0.19082 0.31645 0.0
C578 C 0.76641 0.1683 0.29348 0.0
C579 C 0.77459 0.16605 0.32633 0.0
C580 C 0.7641 0.18168 0.33064 0.0
C581 C 0.77606 0.15925 0.30767 0.0
C582 C 0.75584 0.18394 0.29783 0.0
C583 C 0.74455 0.20773 0.32146 0.0
O584 O 0.71807 0.25686 0.31282 0.0
O585 O 0.69866 0.24038 0.33009 0.0
O586 O 0.72721 0.20513 0.32734 0.0
O587 O 0.74654 0.22162 0.30996 0.0
H588 H 0.72786 0.24535 0.35615 0.0
H589 H 0.73788 0.26364 0.38421 0.0
H590 H 0.70898 0.31087 0.36377 0.0
H591 H 0.69917 0.29255 0.33577 0.0
H592 H 0.65411 0.2584 0.26295 0.0
H593 H 0.68108 0.24845 0.28114 0.0
H594 H 0.65138 0.20494 0.23375 0.0
H595 H 0.67816 0.19509 0.25209 0.0
H596 H 0.76733 0.16354 0.27895 0.0
H597 H 0.7815 0.15926 0.33767 0.0
H598 H 0.76337 0.18672 0.3451 0.0
H599 H 0.74871 0.19079 0.28665 0.0
C600 C 0.46944 0.08824 0.01837 0.0
C601 C 0.47869 0.10341 1.01002 0.0
C602 C 0.47917 0.12063 0.04009 0.0
C603 C 0.48348 0.11947 0.02078 0.0
C604 C 0.47017 0.10522 0.04837 0.0
C605 C 0.46533 0.08924 0.03761 0.0
U606 U 0.47504 0.05259 0.97752 0.0
O607 O 0.47096 0.02217 0.97756 0.0
O608 O 0.45331 0.03869 0.95966 0.0
C609 C 0.45631 0.02223 0.96636 0.0
C610 C 0.46364 0.07136 1.00736 0.0
C611 C 0.43951 0.01188 0.97291 0.0
C612 C 0.41271 1.00879 0.99389 0.0
C613 C 0.42861 0.01886 0.98777 0.0
C614 C 0.41853 0.98465 0.9704 0.0
C615 C 0.4075 0.99153 0.9853 0.0
C616 C 0.43437 0.99475 0.96428 0.0
C617 C 0.51625 0.05834 0.94289 0.0
C618 C 0.52076 0.03889 0.91483 0.0
C619 C 0.54436 0.06241 0.92392 0.0
C620 C 0.53352 0.06747 0.9395 0.0
C621 C 0.53813 0.04806 0.91136 0.0
C622 C 0.50992 0.04396 0.9305 0.0
C623 C 0.50515 0.06415 0.95936 0.0
O624 O 0.45727 0.0739 0.99032 0.0
O625 O 0.4749 0.05732 1.00824 0.0
O626 O 0.50574 0.05331 0.97386 0.0
O627 O 0.4882 0.06986 0.95585 0.0
H628 H 0.48206 0.1029 0.99518 0.0
H629 H 0.49026 0.1311 0.01389 0.0
H630 H 0.46697 0.10544 0.06324 0.0
H631 H 0.4583 0.07764 0.04433 0.0
H632 H 0.40467 0.01439 1.00552 0.0
H633 H 0.43243 0.03205 0.99466 0.0
H634 H 0.41479 0.97154 0.96331 0.0
H635 H 0.44261 0.98917 0.95276 0.0
H636 H 0.51563 0.02768 0.90554 0.0
H637 H 0.55749 0.06998 0.92154 0.0
H638 H 0.53861 0.07864 0.94889 0.0
H639 H 0.49663 0.0367 0.93294 0.0
C640 C 0.23128 0.92064 0.01897 0.0
O641 O 0.23866 0.92098 1.00206 0.0
O642 O 0.25133 0.87677 1.00105 0.0
Zn643 Zn 0.25933 0.89306 0.02354 0.0
O644 O 0.28207 0.90888 0.01611 0.0
C645 C 0.25652 0.86167 0.04796 0.0
O646 O 0.24294 0.85675 0.03617 0.0
O647 O 0.23792 0.90974 0.03086 0.0
C648 C 0.29339 0.91643 0.0281 0.0
O649 O 0.29028 0.91397 0.04606 0.0
C650 C 0.26304 0.86643 0.99269 0.0
O651 O 0.28039 0.8664 0.99897 0.0
O652 O 0.26571 0.87685 0.04546 0.0
C653 C 0.16824 0.48568 0.28012 0.0
O654 O 0.17234 0.50081 0.29024 0.0
O655 O 0.12189 0.51309 0.28706 0.0
Zn656 Zn 0.13947 0.50887 0.26487 0.0
O657 O 0.15764 0.53093 0.26177 0.0
C658 C 0.10831 0.51251 0.23875 0.0
O659 O 0.10203 0.5236 0.25215 0.0
O660 O 0.15462 0.48578 0.26856 0.0
C661 C 0.1527 0.54775 0.26288 0.0
O662 O 0.13502 0.55126 0.26625 0.0
C663 C 0.12686 0.52188 0.30211 0.0
O664 O 0.14422 0.52846 0.30368 0.0
O665 O 0.12396 0.50485 0.24104 0.0
C666 C 0.8046 0.62875 0.01388 0.0
O667 O 0.80888 0.64497 1.00677 0.0
O668 O 0.77282 0.6583 0.98972 0.0
Zn669 Zn 0.76612 0.64156 0.01142 0.0
O670 O 0.74305 0.62575 1.0041 0.0
C671 C 0.76861 0.67258 0.03882 0.0
O672 O 0.78205 0.67859 0.02768 0.0
O673 O 0.78744 0.62445 0.01701 0.0
C674 C 0.73379 0.61676 0.01634 0.0
O675 O 0.73941 0.61785 0.03393 0.0
C676 C 0.76203 0.67139 0.98582 0.0
O677 O 0.74691 0.67375 0.99607 0.0
O678 O 0.76008 0.65718 0.03476 0.0
C679 C 0.85559 0.04689 0.28346 0.0
O680 O 0.85254 0.03193 0.29328 0.0
O681 O 0.90255 0.02235 0.2903 0.0
Zn682 Zn 0.8858 0.02517 0.26745 0.0
O683 O 0.86966 1.00167 0.26318 0.0
C684 C 0.91211 0.01795 0.23667 0.0
O685 O 0.91215 1.00122 0.24354 0.0
O686 O 0.86902 0.04716 0.27168 0.0
C687 C 0.85756 1.00013 0.25005 0.0
O688 O 0.85552 0.01415 0.23891 0.0
C689 C 0.90757 1.00638 0.29515 0.0
O690 O 0.90179 0.99169 0.28512 0.0
O691 O 0.90198 0.03016 0.24453 0.0
C692 C 0.29542 0.11348 0.51063 0.0
O693 O 0.28292 0.10639 0.49865 0.0
O694 O 0.27227 0.16098 0.49271 0.0
Zn695 Zn 0.26851 0.14295 0.51392 0.0
O696 O 0.24722 0.12438 0.50764 0.0
C697 C 0.26791 0.1741 0.54072 0.0
O698 O 0.2793 0.18167 0.52838 0.0
O699 O 0.29243 0.12912 0.51867 0.0
C700 C 0.23158 0.1296 0.50138 0.0
O701 O 0.22936 0.14738 0.49878 0.0
C702 C 0.27283 0.15606 0.47541 0.0
O703 O 0.27111 0.13831 0.47071 0.0
O704 O 0.26159 0.15757 0.53762 0.0
C705 C 0.36203 0.55264 0.78476 0.0
O706 O 0.36493 0.54198 0.79908 0.0
O707 O 0.40192 0.52272 0.78829 0.0
Zn708 Zn 0.38551 0.52593 0.76516 0.0
O709 O 0.3678 0.50342 0.76103 0.0
C710 C 0.41877 0.52546 0.74062 0.0
O711 O 0.42663 0.51748 0.75484 0.0
O712 O 0.36953 0.54857 0.76902 0.0
C713 C 0.37161 0.48981 0.75005 0.0
O714 O 0.3877 0.4901 0.74103 0.0
C715 C 0.406 0.50671 0.79388 0.0
O716 O 0.39953 0.49194 0.78442 0.0
O717 O 0.40168 0.52998 0.74192 0.0
C718 C 0.72889 0.41869 0.51638 0.0
O719 O 0.73323 0.41556 0.49866 0.0
O720 O 0.75127 0.37725 0.49959 0.0
Zn721 Zn 0.75941 0.39382 0.52186 0.0
O722 O 0.78238 0.40925 0.5143 0.0
C723 C 0.75667 0.36259 0.54655 0.0
O724 O 0.74338 0.35731 0.53457 0.0
O725 O 0.73825 0.41091 0.52901 0.0
C726 C 0.79189 0.41924 0.52611 0.0
O727 O 0.78669 0.41959 0.54382 0.0
C728 C 0.76291 0.36678 0.4913 0.0
O729 O 0.78028 0.36677 0.4975 0.0
O730 O 0.76563 0.3779 0.54406 0.0
C731 C 0.66441 0.98297 0.78424 0.0
O732 O 0.66137 0.9932 0.79945 0.0
O733 O 0.62425 0.01269 0.78996 0.0
Zn734 Zn 0.64081 1.01002 0.76671 0.0
O735 O 0.65852 0.03263 0.76443 0.0
C736 C 0.6082 0.01251 0.74168 0.0
O737 O 0.60109 0.022 0.75587 0.0
O738 O 0.6569 0.98738 0.76884 0.0
C739 C 0.65519 0.04641 0.75429 0.0
O740 O 0.63937 0.04644 0.74481 0.0
C741 C 0.61944 0.02853 0.79633 0.0
O742 O 0.62535 0.04348 0.78767 0.0
O743 O 0.62467 1.00635 0.74317 0.0
C744 C 1.00763 0.2289 0.91422 0.0
O745 O 0.99019 0.23022 0.90855 0.0
O746 O 0.99151 0.25655 0.87607 0.0
Zn747 Zn 0.01388 0.26311 0.89326 0.0
O748 O 1.00811 0.28517 0.91075 0.0
C749 C 0.03601 0.27592 0.86112 0.0
O750 O 0.01946 0.27966 0.85434 0.0
O751 O 0.01982 0.24115 0.90936 0.0
C752 C 0.01234 0.30192 0.90681 0.0
O753 O 0.02081 0.3053 0.89083 0.0
C754 C 0.97969 0.26864 0.87181 0.0
O755 O 0.98183 0.28559 0.87894 0.0
O756 O 0.03701 0.26901 0.87734 0.0
C757 C 0.51631 0.72683 0.40555 0.0
O758 O 0.50758 0.72257 0.38967 0.0
O759 O 0.49275 0.75728 0.37477 0.0
Zn760 Zn 0.51449 0.7648 0.39216 0.0
O761 O 0.50705 0.78722 0.40809 0.0
C762 C 0.54279 0.76148 0.36292 0.0
O763 O 0.53352 0.74574 0.35918 0.0
O764 O 0.52066 0.74379 0.40944 0.0
C765 C 0.51928 0.79766 0.41655 0.0
O766 O 0.5371 0.79369 0.41496 0.0
C767 C 0.48543 0.76969 0.36503 0.0
O768 O 0.49225 0.78684 0.3666 0.0
O769 O 0.53731 0.77186 0.37647 0.0
C770 C 0.01265 0.80924 0.62057 0.0
O771 O 0.99785 0.81045 0.63149 0.0
O772 O 0.99361 0.77817 0.6543 0.0
Zn773 Zn 0.0157 0.77251 0.63709 0.0
O774 O 1.0089 0.75031 0.61975 0.0
C775 C 0.04054 0.77211 0.66984 0.0
O776 O 0.02752 0.78227 0.67766 0.0
O777 O 0.02223 0.79462 0.62082 0.0
C778 C 0.01405 0.73397 0.62311 0.0
O779 O 0.02388 0.7313 0.63834 0.0
C780 C 0.98417 0.7652 0.66207 0.0
O781 O 0.98878 0.74791 0.65872 0.0
O782 O 0.03853 0.7666 0.65278 0.0
C783 C 0.51093 0.30811 0.12154 0.0
O784 O 0.49661 0.30958 0.13306 0.0
O785 O 0.49178 0.27675 0.15489 0.0
Zn786 Zn 0.51405 0.2713 0.13786 0.0
O787 O 0.50754 0.24892 0.1207 0.0
C788 C 0.53844 0.27033 0.17099 0.0
O789 O 0.52476 0.27928 0.17921 0.0
O790 O 0.52026 0.29333 0.12138 0.0
C791 C 0.51278 0.23265 0.12422 0.0
O792 O 0.52258 0.23017 0.13952 0.0
C793 C 0.4832 0.2638 0.16353 0.0
O794 O 0.48887 0.24671 0.16124 0.0
O795 O 0.53698 0.2658 0.15362 0.0
C796 C 0.2297 0.79287 0.91139 0.0
C797 C 0.23086 0.80085 0.89366 0.0
C798 C 0.23478 0.80316 0.92779 0.0
C799 C 0.24127 0.82187 0.92645 0.0
C800 C 0.24259 0.82996 0.90859 0.0
C801 C 0.23734 0.81938 0.89244 0.0
C802 C 0.23306 0.79406 0.94658 0.0
C803 C 0.2496 0.84981 0.90652 0.0
C804 C 0.23876 0.85451 0.96937 0.0
C805 C 0.25734 0.85478 0.97596 0.0
C806 C 0.2333 0.84374 0.95339 0.0
C807 C 0.24674 0.833 0.94371 0.0
C808 C 0.26547 0.83312 0.95036 0.0
C809 C 0.27053 0.84397 0.96639 0.0
C810 C 0.21317 0.84395 0.94679 0.0
C811 C 0.28023 0.82189 0.94043 0.0
H812 H 0.2245 0.77863 0.91247 0.0
H813 H 0.23851 0.82557 0.87877 0.0
H814 H 0.24692 0.7944 0.95371 0.0
H815 H 0.22333 0.80187 0.95578 0.0
H816 H 0.22782 0.77939 0.94523 0.0
H817 H 0.24984 0.85403 0.89164 0.0
H818 H 0.24051 0.85934 0.91465 0.0
H819 H 0.264 0.85162 0.91236 0.0
H820 H 0.22844 0.86277 0.97667 0.0
H821 H 0.28492 0.84406 0.97135 0.0
H822 H 0.20699 0.82961 0.94623 0.0
H823 H 0.21263 0.84927 0.93234 0.0
H824 H 0.20435 0.85273 0.95608 0.0
H825 H 0.27579 0.80698 0.9398 0.0
H826 H 0.29412 0.8233 0.9475 0.0
H827 H 0.28183 0.82642 0.92574 0.0
C828 C 0.05849 0.52844 0.39187 0.0
C829 C 0.04857 0.54496 0.3919 0.0
C830 C 0.07075 0.52381 0.37709 0.0
C831 C 0.07314 0.53597 0.36192 0.0
C832 C 0.06283 0.55244 0.36165 0.0
C833 C 0.0507 0.55672 0.37661 0.0
C834 C 0.08149 0.50613 0.37793 0.0
C835 C 0.06487 0.56573 0.34571 0.0
C836 C 0.11864 0.53517 0.33389 0.0
C837 C 0.11315 0.52508 0.31753 0.0
C838 C 0.10581 0.53865 0.34847 0.0
C839 C 0.08698 0.53188 0.34672 0.0
C840 C 0.08137 0.52155 0.33032 0.0
C841 C 0.0945 0.51828 0.31593 0.0
C842 C 0.11238 0.54975 0.3657 0.0
C843 C 0.06145 0.51407 0.32792 0.0
H844 H 0.05711 0.51936 0.4037 0.0
H845 H 0.04287 0.56937 0.37636 0.0
H846 H 0.07914 0.49756 0.3649 0.0
H847 H 0.09677 0.50955 0.37887 0.0
H848 H 0.07736 0.49771 0.39018 0.0
H849 H 0.05534 0.57758 0.34723 0.0
H850 H 0.07955 0.57131 0.3451 0.0
H851 H 0.06186 0.55833 0.33211 0.0
H852 H 0.13299 0.54049 0.3353 0.0
H853 H 0.0901 0.51046 0.30337 0.0
H854 H 0.10983 0.54157 0.37847 0.0
H855 H 0.10423 0.56257 0.36726 0.0
H856 H 0.12755 0.55375 0.36505 0.0
H857 H 0.05759 0.50499 0.33973 0.0
H858 H 0.05939 0.506 0.3145 0.0
H859 H 0.05162 0.52572 0.32825 0.0
C860 C 0.79114 0.74728 0.9096 0.0
C861 C 0.78138 0.74378 0.89267 0.0
C862 C 0.78905 0.73526 0.92472 0.0
C863 C 0.777 0.71928 0.92286 0.0
C864 C 0.76752 0.7154 0.90563 0.0
C865 C 0.76978 0.72772 0.89079 0.0
C866 C 0.7993 0.73997 0.94288 0.0
C867 C 0.75469 0.69843 0.903 0.0
C868 C 0.78122 0.68031 0.95761 0.0
C869 C 0.76623 0.68376 0.96989 0.0
C870 C 0.78497 0.69177 0.94229 0.0
C871 C 0.77353 0.70712 0.93923 0.0
C872 C 0.75852 0.71078 0.9517 0.0
C873 C 0.75503 0.69906 0.96681 0.0
C874 C 0.80104 0.68735 0.92926 0.0
C875 C 0.74605 0.72707 0.94902 0.0
H876 H 0.79998 0.75976 0.91123 0.0
H877 H 0.7624 0.72479 0.87767 0.0
H878 H 0.78899 0.74272 0.95423 0.0
H879 H 0.80762 0.72804 0.94716 0.0
H880 H 0.80888 0.75237 0.94176 0.0
H881 H 0.74915 0.69686 0.88843 0.0
H882 H 0.76228 0.68574 0.90636 0.0
H883 H 0.74264 0.69935 0.91282 0.0
H884 H 0.78995 0.66852 0.95986 0.0
H885 H 0.74346 0.70191 0.97623 0.0
H886 H 0.81107 0.69943 0.92875 0.0
H887 H 0.79567 0.68465 0.91478 0.0
H888 H 0.80875 0.67504 0.93368 0.0
H889 H 0.75466 0.74018 0.949 0.0
H890 H 0.73523 0.72825 0.96019 0.0
H891 H 0.73887 0.72562 0.93521 0.0
C892 C 0.95693 0.99129 0.39435 0.0
C893 C 0.97644 0.98954 0.39269 0.0
C894 C 0.94581 0.99505 0.3787 0.0
C895 C 0.95436 0.99712 0.36089 0.0
C896 C 0.97409 0.99584 0.35919 0.0
C897 C 0.98488 0.99206 0.37509 0.0
C898 C 0.92484 0.9964 0.38115 0.0
C899 C 0.98376 0.99794 0.34047 0.0
C900 C 0.92419 0.98639 0.3176 0.0
C901 C 0.91967 1.0042 0.3119 0.0
C902 C 0.93549 0.98394 0.33344 0.0
C903 C 0.94254 0.99967 0.3439 0.0
C904 C 0.93813 0.0177 0.3382 0.0
C905 C 0.92673 0.01976 0.3223 0.0
C906 C 0.93979 0.96447 0.33905 0.0
C907 C 0.94543 0.03482 0.34894 0.0
H908 H 0.95032 0.98968 0.40794 0.0
H909 H 0.9999 0.99055 0.37361 0.0
H910 H 0.92009 1.00979 0.37585 0.0
H911 H 0.91751 0.98514 0.37276 0.0
H912 H 0.92046 0.99528 0.39606 0.0
H913 H 0.99929 0.99766 0.34169 0.0
H914 H 0.97895 0.98653 0.33064 0.0
H915 H 0.97996 1.01121 0.33414 0.0
H916 H 0.91882 0.97427 0.30971 0.0
H917 H 0.92336 0.03357 0.31801 0.0
H918 H 0.93454 0.96204 0.35348 0.0
H919 H 0.9552 0.96272 0.33925 0.0
H920 H 0.93333 0.9537 0.32937 0.0
H921 H 0.94039 0.03457 0.36367 0.0
H922 H 0.94091 0.04786 0.34259 0.0
H923 H 0.961 0.035 0.34939 0.0
C924 C 0.2506 0.22826 0.63917 0.0
C925 C 0.23384 0.23795 0.63883 0.0
C926 C 0.25642 0.21763 0.62348 0.0
C927 C 0.24529 0.21676 0.60698 0.0
C928 C 0.22841 0.2266 0.60651 0.0
C929 C 0.22287 0.23702 0.62243 0.0
C930 C 0.27444 0.20725 0.6246 0.0
C931 C 0.21623 0.22619 0.58913 0.0
C932 C 0.2683 0.20352 0.56044 0.0
C933 C 0.26232 0.18487 0.55784 0.0
C934 C 0.26293 0.21402 0.57638 0.0
C935 C 0.25134 0.20568 0.59014 0.0
C936 C 0.24536 0.18681 0.58768 0.0
C937 C 0.25088 0.17665 0.57156 0.0
C938 C 0.26955 0.23411 0.57842 0.0
C939 C 0.23306 0.17738 0.60206 0.0
H940 H 0.25903 0.22874 0.65186 0.0
H941 H 0.21003 0.24466 0.62197 0.0
H942 H 0.27153 0.19217 0.62202 0.0
H943 H 0.28431 0.21195 0.61351 0.0
H944 H 0.28146 0.2093 0.63847 0.0
H945 H 0.20353 0.23459 0.59104 0.0
H946 H 0.2244 0.23159 0.57708 0.0
H947 H 0.21171 0.21167 0.5854 0.0
H948 H 0.27712 0.21003 0.54994 0.0
H949 H 0.2462 0.16225 0.5697 0.0
H950 H 0.27757 0.23637 0.59169 0.0
H951 H 0.25728 0.2432 0.57922 0.0
H952 H 0.2786 0.23851 0.56653 0.0
H953 H 0.24003 0.1782 0.61601 0.0
H954 H 0.22989 0.16254 0.59826 0.0
H955 H 0.21962 0.18464 0.60351 0.0
C956 C 0.47469 0.53446 0.6429 0.0
C957 C 0.48386 0.55194 0.64188 0.0
C958 C 0.46403 0.52962 0.65875 0.0
C959 C 0.46254 0.54254 0.67403 0.0
C960 C 0.4719 0.56014 0.67315 0.0
C961 C 0.4824 0.56463 0.65711 0.0
C962 C 0.4542 0.51074 0.65909 0.0
C963 C 0.4708 0.57427 0.68918 0.0
C964 C 0.42148 0.53782 0.70805 0.0
C965 C 0.42982 0.52944 0.72338 0.0
C966 C 0.43191 0.54198 0.69184 0.0
C967 C 0.45116 0.5377 0.69091 0.0
C968 C 0.45961 0.5291 0.70627 0.0
C969 C 0.44886 0.52506 0.72228 0.0
C970 C 0.42235 0.55111 0.67576 0.0
C971 C 0.4801 0.52432 0.70586 0.0
H972 H 0.47555 0.52465 0.63111 0.0
H973 H 0.48964 0.57807 0.65655 0.0
H974 H 0.45892 0.50309 0.67144 0.0
H975 H 0.43883 0.51236 0.66053 0.0
H976 H 0.4569 0.50222 0.64618 0.0
H977 H 0.47898 0.58728 0.68637 0.0
H978 H 0.45595 0.57776 0.69176 0.0
H979 H 0.47619 0.56834 0.70226 0.0
H980 H 0.40679 0.54123 0.70871 0.0
H981 H 0.45545 0.51858 0.73402 0.0
H982 H 0.42375 0.54252 0.66268 0.0
H983 H 0.42926 0.56484 0.67324 0.0
H984 H 0.40719 0.55316 0.67849 0.0
H985 H 0.48291 0.515 0.69356 0.0
H986 H 0.48449 0.51739 0.7188 0.0
H987 H 0.48895 0.53713 0.70426 0.0
C988 C 0.78814 0.29139 0.62464 0.0
C989 C 0.7764 0.29242 0.64045 0.0
C990 C 0.78604 0.30336 0.60957 0.0
C991 C 0.7719 0.31675 0.61033 0.0
C992 C 0.7604 0.31823 0.6265 0.0
C993 C 0.76276 0.30605 0.64132 0.0
C994 C 0.79855 0.30127 0.59257 0.0
C995 C 0.74526 0.3324 0.62796 0.0
C996 C 0.77394 0.35697 0.5766 0.0
C997 C 0.76093 0.35086 0.56276 0.0
C998 C 0.77775 0.34601 0.59211 0.0
C999 C 0.7684 0.32848 0.59381 0.0
C1000 C 0.7554 0.32218 0.5798 0.0
C1001 C 0.7518 0.33343 0.56451 0.0
C1002 C 0.79166 0.35325 0.60678 0.0
C1003 C 0.74517 0.30355 0.581 0.0
H1004 H 0.79858 0.28079 0.62375 0.0
H1005 H 0.75383 0.30713 0.6536 0.0
H1006 H 0.78995 0.2967 0.58019 0.0
H1007 H 0.8054 0.31483 0.58927 0.0
H1008 H 0.80961 0.291 0.59464 0.0
H1009 H 0.73823 0.33249 0.64189 0.0
H1010 H 0.75131 0.3465 0.6255 0.0
H1011 H 0.73449 0.32935 0.61695 0.0
H1012 H 0.78107 0.37041 0.5754 0.0
H1013 H 0.74178 0.32852 0.5539 0.0
H1014 H 0.80312 0.34332 0.60822 0.0
H1015 H 0.78462 0.35447 0.62065 0.0
H1016 H 0.79793 0.36704 0.6033 0.0
H1017 H 0.75544 0.29233 0.58177 0.0
H1018 H 0.73577 0.30051 0.56878 0.0
H1019 H 0.73662 0.30316 0.59402 0.0
C1020 C 0.5414 0.97589 0.65739 0.0
C1021 C 0.54188 0.98757 0.64194 0.0
C1022 C 0.55208 0.98022 0.67361 0.0
C1023 C 0.5636 0.99662 0.67444 0.0
C1024 C 0.56404 1.00856 0.65897 0.0
C1025 C 0.55316 1.00391 0.64293 0.0
C1026 C 0.55109 0.96719 0.68984 0.0
C1027 C 0.57619 0.02613 0.65927 0.0
C1028 C 0.57881 0.01555 0.72276 0.0
C1029 C 0.59701 1.00883 0.72426 0.0
C1030 C 0.56787 0.01185 0.70657 0.0
C1031 C 0.57528 1.00117 0.69147 0.0
C1032 C 0.59371 0.9945 0.6928 0.0
C1033 C 0.60434 0.9984 0.70916 0.0
C1034 C 0.5483 0.01923 0.70571 0.0
C1035 C 0.60213 0.98307 0.67701 0.0
H1036 H 0.53253 0.96337 0.65684 0.0
H1037 H 0.55379 0.0129 0.63099 0.0
H1038 H 0.56524 0.96195 0.69273 0.0
H1039 H 0.54643 0.97473 0.70273 0.0
H1040 H 0.5413 0.9551 0.68705 0.0
H1041 H 0.57474 0.03408 0.64624 0.0
H1042 H 0.57244 0.03519 0.67148 0.0
H1043 H 0.59115 0.02267 0.66095 0.0
H1044 H 0.573 0.02364 0.73431 0.0
H1045 H 0.61838 0.99316 0.71015 0.0
H1046 H 0.53788 1.00751 0.70412 0.0
H1047 H 0.5469 0.02797 0.69324 0.0
H1048 H 0.54473 0.02763 0.71847 0.0
H1049 H 0.59353 0.97011 0.67451 0.0
H1050 H 0.61679 0.97928 0.68004 0.0
H1051 H 0.60202 0.99088 0.66381 0.0
C1052 C 0.888 0.24513 0.80826 0.0
C1053 C 0.8921 0.24812 0.78928 0.0
C1054 C 0.90205 0.24706 0.82213 0.0
C1055 C 0.92066 0.25215 0.81692 0.0
C1056 C 0.92501 0.25464 0.79773 0.0
C1057 C 0.91071 0.25257 0.78417 0.0
C1058 C 0.89684 0.24424 0.84242 0.0
C1059 C 0.94467 0.26002 0.79155 0.0
C1060 C 0.95226 0.27799 0.85266 0.0
C1061 C 0.96419 0.26405 0.8583 0.0
C1062 C 0.93795 0.27422 0.83941 0.0
C1063 C 0.93537 0.25602 0.83159 0.0
C1064 C 0.94714 0.24178 0.83742 0.0
C1065 C 0.96144 0.24597 0.85067 0.0
C1066 C 0.92576 0.28982 0.83356 0.0
C1067 C 0.94477 0.22219 0.82949 0.0
H1068 H 0.87365 0.24185 0.81239 0.0
H1069 H 0.9141 0.25457 0.76951 0.0
H1070 H 0.90635 0.2343 0.84881 0.0
H1071 H 0.89855 0.25761 0.85047 0.0
H1072 H 0.88211 0.23896 0.84401 0.0
H1073 H 0.94595 0.26051 0.77602 0.0
H1074 H 0.94878 0.2739 0.79768 0.0
H1075 H 0.9548 0.25 0.79679 0.0
H1076 H 0.95423 0.292 0.85845 0.0
H1077 H 0.97054 0.23509 0.85495 0.0
H1078 H 0.91075 0.2861 0.83607 0.0
H1079 H 0.92741 0.29204 0.81829 0.0
H1080 H 0.92929 0.3031 0.84128 0.0
H1081 H 0.93018 0.21689 0.83175 0.0
H1082 H 0.95461 0.21256 0.83596 0.0
H1083 H 0.94722 0.22204 0.81409 0.0
C1084 C 0.49027 0.89571 0.46178 0.0
C1085 C 0.48655 0.89482 0.4811 0.0
C1086 C 0.49563 0.87993 0.45128 0.0
C1087 C 0.49731 0.86279 0.46029 0.0
C1088 C 0.49365 0.8618 0.4798 0.0
C1089 C 0.48835 0.87781 0.48996 0.0
C1090 C 0.49952 0.88162 0.43054 0.0
C1091 C 0.4952 0.84378 0.48991 0.0
C1092 C 0.49458 0.81838 0.42988 0.0
C1093 C 0.5136 0.81419 0.4279 0.0
C1094 C 0.48907 0.83407 0.44046 0.0
C1095 C 0.50291 0.84591 0.44927 0.0
C1096 C 0.52211 0.84173 0.44739 0.0
C1097 C 0.52722 0.82594 0.43676 0.0
C1098 C 0.46845 0.83802 0.44215 0.0
C1099 C 0.5373 0.85401 0.45653 0.0
H1100 H 0.48918 0.90884 0.45487 0.0
H1101 H 0.48528 0.87694 0.50483 0.0
H1102 H 0.51413 0.87762 0.4274 0.0
H1103 H 0.49002 0.87194 0.42234 0.0
H1104 H 0.4976 0.89594 0.42565 0.0
H1105 H 0.492 0.84534 0.50513 0.0
H1106 H 0.48539 0.83309 0.48357 0.0
H1107 H 0.5096 0.83852 0.48831 0.0
H1108 H 0.48393 0.8094 0.42312 0.0
H1109 H 0.54195 0.82286 0.43534 0.0
H1110 H 0.46569 0.85177 0.43629 0.0
H1111 H 0.46429 0.83862 0.45717 0.0
H1112 H 0.45942 0.82732 0.43467 0.0
H1113 H 0.53667 0.86829 0.45119 0.0
H1114 H 0.55157 0.84878 0.45383 0.0
H1115 H 0.53501 0.85498 0.47193 0.0
C1116 C 0.12524 0.28467 0.79248 0.0
C1117 C 0.13543 0.30145 0.79592 0.0
C1118 C 0.10934 0.2799 0.80324 0.0
C1119 C 0.10336 0.29222 0.81774 0.0
C1120 C 0.11365 0.30909 0.8214 0.0
C1121 C 0.12957 0.31344 0.81053 0.0
C1122 C 0.0988 0.26175 0.79894 0.0
C1123 C 0.10774 0.32264 0.83669 0.0
C1124 C 0.05221 0.28941 0.83315 0.0
C1125 C 0.05328 0.27992 0.85003 0.0
C1126 C 0.06837 0.29344 0.8225 0.0
C1127 C 0.08607 0.28774 0.82879 0.0
C1128 C 0.08726 0.27803 0.84575 0.0
C1129 C 0.07088 0.2743 0.8562 0.0
C1130 C 0.0665 0.30394 0.80458 0.0
C1131 C 0.10585 0.27161 0.85287 0.0
H1132 H 0.12947 0.2754 0.78111 0.0
H1133 H 0.13752 0.32626 0.81358 0.0
H1134 H 0.09771 0.25342 0.81178 0.0
H1135 H 0.08428 0.2645 0.79441 0.0
H1136 H 0.10567 0.25336 0.78773 0.0
H1137 H 0.11734 0.33508 0.83787 0.0
H1138 H 0.09334 0.32726 0.83384 0.0
H1139 H 0.10736 0.31575 0.85042 0.0
H1140 H 0.03871 0.29385 0.82826 0.0
H1141 H 0.07186 0.26691 0.86919 0.0
H1142 H 0.07198 0.29563 0.79254 0.0
H1143 H 0.07503 0.31709 0.80556 0.0
H1144 H 0.05171 0.3073 0.80156 0.0
H1145 H 0.11242 0.26245 0.84211 0.0
H1146 H 0.10437 0.26392 0.86612 0.0
H1147 H 0.11561 0.28374 0.85539 0.0
C1148 C 0.52741 0.64779 0.48202 0.0
C1149 C 0.54456 0.63892 0.47973 0.0
C1150 C 0.52261 0.66252 0.47059 0.0
C1151 C 0.53521 0.66853 0.45645 0.0
C1152 C 0.55263 0.65981 0.45422 0.0
C1153 C 0.5571 0.64519 0.46589 0.0
C1154 C 0.50391 0.67146 0.47344 0.0
C1155 C 0.5665 0.6658 0.43935 0.0
C1156 C 0.51611 0.69334 0.41434 0.0
C1157 C 0.52098 0.712 0.41874 0.0
C1158 C 0.52051 0.67912 0.42655 0.0
C1159 C 0.53002 0.6836 0.44363 0.0
C1160 C 0.53488 0.70242 0.44823 0.0
C1161 C 0.53032 0.71637 0.43575 0.0
C1162 C 0.51509 0.65925 0.42108 0.0
C1163 C 0.545 0.70778 0.46631 0.0
H1164 H 0.51752 0.64295 0.49251 0.0
H1165 H 0.57054 0.6387 0.46422 0.0
H1166 H 0.50602 0.68667 0.47589 0.0
H1167 H 0.49522 0.66938 0.46058 0.0
H1168 H 0.496 0.66568 0.48551 0.0
H1169 H 0.57957 0.65782 0.43963 0.0
H1170 H 0.56002 0.66389 0.42523 0.0
H1171 H 0.57026 0.68079 0.44134 0.0
H1172 H 0.50889 0.68978 0.40127 0.0
H1173 H 0.53412 0.73073 0.43932 0.0
H1174 H 0.50604 0.65307 0.4321 0.0
H1175 H 0.52786 0.65086 0.41998 0.0
H1176 H 0.50747 0.65809 0.40746 0.0
H1177 H 0.53673 0.70283 0.47849 0.0
H1178 H 0.54748 0.72305 0.46801 0.0
H1179 H 0.55875 0.70099 0.46669 0.0
C1180 C 0.891 0.78533 0.72242 0.0
C1181 C 0.89519 0.78575 0.7417 0.0
C1182 C 0.90518 0.78304 0.70886 0.0
C1183 C 0.92401 0.78113 0.7147 0.0
C1184 C 0.9284 0.78207 0.73411 0.0
C1185 C 0.91397 0.78437 0.74734 0.0
C1186 C 0.89991 0.7821 0.68831 0.0
C1187 C 0.9483 0.7802 0.74094 0.0
C1188 C 0.95768 0.75495 0.68291 0.0
C1189 C 0.96843 0.76944 0.67506 0.0
C1190 C 0.94304 0.75859 0.69557 0.0
C1191 C 0.93902 0.7772 0.70062 0.0
C1192 C 0.94966 0.79192 0.69261 0.0
C1193 C 0.96422 0.78788 0.67992 0.0
C1194 C 0.93202 0.74248 0.70373 0.0
C1195 C 0.94583 0.81195 0.69764 0.0
H1196 H 0.87654 0.78621 0.71792 0.0
H1197 H 0.91739 0.785 0.76218 0.0
H1198 H 0.90864 0.79225 0.68043 0.0
H1199 H 0.90273 0.76808 0.6823 0.0
H1200 H 0.88487 0.78497 0.68603 0.0
H1201 H 0.94951 0.7821 0.75644 0.0
H1202 H 0.95335 0.76625 0.73686 0.0
H1203 H 0.95775 0.79059 0.73422 0.0
H1204 H 0.96075 0.74066 0.67923 0.0
H1205 H 0.97242 0.79918 0.67394 0.0
H1206 H 0.91683 0.74376 0.70079 0.0
H1207 H 0.93375 0.7427 0.71922 0.0
H1208 H 0.93654 0.72884 0.69797 0.0
H1209 H 0.93095 0.81486 0.69464 0.0
H1210 H 0.95498 0.8218 0.68979 0.0
H1211 H 0.9481 0.8146 0.71291 0.0
C1212 C 0.05122 0.89836 0.56586 0.0
C1213 C 0.0433 0.89946 0.54788 0.0
C1214 C 0.04638 0.88365 0.57766 0.0
C1215 C 0.03322 0.86966 0.57141 0.0
C1216 C 0.02512 0.87069 0.55331 0.0
C1217 C 0.03025 0.88554 0.54177 0.0
C1218 C 0.0553 0.88313 0.59686 0.0
C1219 C 1.01105 0.85605 0.54611 0.0
C1220 C 0.03309 0.82306 0.59544 0.0
C1221 C 0.01796 0.82466 0.60796 0.0
C1222 C 0.03813 0.83753 0.58339 0.0
C1223 C 0.02785 0.85405 0.58388 0.0
C1224 C 0.01258 0.85575 0.59649 0.0
C1225 C 1.00782 0.84105 0.60833 0.0
C1226 C 0.05449 0.83516 0.57015 0.0
C1227 C 1.0013 0.87314 0.5975 0.0
H1228 H 0.06107 0.90917 0.57086 0.0
H1229 H 0.02423 0.88612 0.52783 0.0
H1230 H 0.04429 0.88348 0.60787 0.0
H1231 H 0.06278 0.86997 0.59829 0.0
H1232 H 0.06544 0.89496 0.59955 0.0
H1233 H 1.00599 0.85887 0.53174 0.0
H1234 H 0.01745 0.84221 0.54588 0.0
H1235 H 0.99877 0.85532 0.55569 0.0
H1236 H 0.041 0.81046 0.59499 0.0
H1237 H 0.99612 0.84246 0.61795 0.0
H1238 H 0.06544 0.84615 0.57314 0.0
H1239 H 0.04981 0.83672 0.55543 0.0
H1240 H 0.06091 0.82139 0.57131 0.0
H1241 H 1.0106 0.88532 0.6013 0.0
H1242 H 0.98976 0.87224 0.60797 0.0
H1243 H 0.99514 0.87571 0.58354 0.0
C1244 C 0.11986 0.72883 0.73352 0.0
C1245 C 0.13611 0.74033 0.735 0.0
C1246 C 0.10431 0.73398 0.72294 0.0
C1247 C 0.10501 0.75103 0.7135 0.0
C1248 C 0.12136 0.76272 0.71494 0.0
C1249 C 0.13667 0.75726 0.7257 0.0
C1250 C 0.0871 0.7212 0.72191 0.0
C1251 C 0.12272 0.78095 0.70501 0.0
C1252 C 0.0714 0.75645 0.67253 0.0
C1253 C 0.05718 0.76691 0.68089 0.0
C1254 C 0.08709 0.7513 0.68293 0.0
C1255 C 0.0886 0.75666 0.70219 0.0
C1256 C 0.07432 0.76724 0.7107 0.0
C1257 C 0.05883 0.77226 0.69996 0.0
C1258 C 0.10203 0.74006 0.67332 0.0
C1259 C 0.07536 0.77318 0.7312 0.0
H1260 H 0.11921 0.71584 0.74085 0.0
H1261 H 0.14925 0.76612 0.72658 0.0
H1262 H 0.07471 0.72858 0.72739 0.0
H1263 H 0.08406 0.71704 0.70707 0.0
H1264 H 0.08877 0.70844 0.73007 0.0
H1265 H 0.1364 0.78845 0.70753 0.0
H1266 H 0.12089 0.77847 0.68966 0.0
H1267 H 0.11129 0.79004 0.70982 0.0
H1268 H 0.07028 0.75225 0.65782 0.0
H1269 H 0.04794 0.78031 0.70658 0.0
H1270 H 0.1033 0.7266 0.68032 0.0
H1271 H 0.11585 0.74754 0.67456 0.0
H1272 H 0.09892 0.73724 0.6582 0.0
H1273 H 0.0759 0.76077 0.74003 0.0
H1274 H 0.06316 0.78145 0.73569 0.0
H1275 H 0.08842 0.78163 0.73395 0.0
C1276 C 0.97207 0.64606 0.56392 0.0
C1277 C 0.98445 0.63968 0.54998 0.0
C1278 C 0.97667 0.66174 0.57539 0.0
C1279 C 0.99405 0.67143 0.57284 0.0
C1280 C 1.00647 0.66532 0.55857 0.0
C1281 C 1.00155 0.64951 0.54736 0.0
C1282 C 0.96303 0.66778 0.59043 0.0
C1283 C 0.02511 0.6753 0.55537 0.0
C1284 C 0.99931 0.72082 0.59329 0.0
C1285 C 1.00902 0.71807 0.61009 0.0
C1286 C 0.9945 0.70582 0.58094 0.0
C1287 C 0.99945 0.6876 0.58551 0.0
C1288 C 1.00928 0.68475 0.60241 0.0
C1289 C 0.01397 0.69999 0.61445 0.0
C1290 C 0.98407 0.70945 0.56303 0.0
C1291 C 0.01475 0.66555 0.60785 0.0
H1292 H 0.95868 0.6388 0.56584 0.0
H1293 H 0.01131 0.64461 0.53679 0.0
H1294 H 0.96971 0.66716 0.60446 0.0
H1295 H 0.95925 0.68242 0.58843 0.0
H1296 H 0.94994 0.65897 0.59037 0.0
H1297 H 0.03281 0.6693 0.54318 0.0
H1298 H 0.02295 0.69022 0.55295 0.0
H1299 H 0.03403 0.67452 0.56808 0.0
H1300 H 0.99545 0.73473 0.58976 0.0
H1301 H 0.02146 0.69768 0.62738 0.0
H1302 H 0.97033 0.70174 0.56289 0.0
H1303 H 0.99215 0.7043 0.55072 0.0
H1304 H 0.98155 0.72445 0.56134 0.0
H1305 H 1.00199 0.65643 0.60915 0.0
H1306 H 0.02255 0.66569 0.62137 0.0
H1307 H 0.02364 0.65927 0.59673 0.0
C1308 C 0.78493 0.91227 0.24158 0.0
C1309 C 0.79224 0.89832 0.22979 0.0
C1310 C 0.79532 0.92883 0.24575 0.0
C1311 C 0.81345 0.93154 0.23792 0.0
C1312 C 0.82103 0.9174 0.22626 0.0
C1313 C 0.81038 0.90098 0.2224 0.0
C1314 C 0.78676 0.94355 0.25827 0.0
C1315 C 0.84031 0.91969 0.21767 0.0
C1316 C 0.83328 0.98076 0.23221 0.0
C1317 C 0.84601 0.98271 0.24724 0.0
C1318 C 0.82247 0.96429 0.22916 0.0
C1319 C 0.82435 0.94935 0.24146 0.0
C1320 C 0.83701 0.95128 0.25678 0.0
C1321 C 0.8477 0.96791 0.25947 0.0
C1322 C 0.80918 0.96278 0.21262 0.0
C1323 C 0.83938 0.93572 0.27025 0.0
H1324 H 0.77088 0.91045 0.24722 0.0
H1325 H 0.81631 0.89016 0.21357 0.0
H1326 H 0.79626 0.9472 0.27026 0.0
H1327 H 0.785 0.95638 0.25029 0.0
H1328 H 0.77285 0.939 0.26389 0.0
H1329 H 0.84432 0.90725 0.20919 0.0
H1330 H 0.84075 0.93188 0.20848 0.0
H1331 H 0.85097 0.9224 0.22886 0.0
H1332 H 0.83184 0.9921 0.22268 0.0
H1333 H 0.85745 0.96927 0.27115 0.0
H1334 H 0.7947 0.95947 0.21751 0.0
H1335 H 0.81329 0.95125 0.20296 0.0
H1336 H 0.80904 0.97578 0.20461 0.0
H1337 H 0.82563 0.93172 0.27652 0.0
H1338 H 0.8494 0.9396 0.28177 0.0
H1339 H 0.84454 0.92328 0.26256 0.0
C1340 C 0.78166 0.12907 0.29005 0.0
C1341 C 0.7878 0.14291 0.30314 0.0
C1342 C 0.79245 0.11342 0.28608 0.0
C1343 C 0.8098 0.11151 0.29544 0.0
C1344 C 0.81617 0.12552 0.30849 0.0
C1345 C 0.80515 0.14104 0.31213 0.0
C1346 C 0.78518 0.09881 0.27203 0.0
C1347 C 0.83459 0.12406 0.31876 0.0
C1348 C 0.82958 0.06338 0.30003 0.0
C1349 C 0.84363 0.06329 0.2862 0.0
C1350 C 0.81836 0.07888 0.30303 0.0
C1351 C 0.82116 0.09471 0.2919 0.0
C1352 C 0.83516 0.09464 0.27777 0.0
C1353 C 0.84623 0.07897 0.27511 0.0
C1354 C 0.80365 0.0784 0.3183 0.0
C1355 C 0.83854 0.11121 0.26555 0.0
H1356 H 0.76821 0.13028 0.28316 0.0
H1357 H 0.81021 0.1518 0.322 0.0
H1358 H 0.7957 0.09662 0.26076 0.0
H1359 H 0.78295 0.08537 0.27905 0.0
H1360 H 0.77174 0.10265 0.2655 0.0
H1361 H 0.83765 0.13623 0.32834 0.0
H1362 H 0.83434 0.1113 0.32713 0.0
H1363 H 0.84626 0.12289 0.30852 0.0
H1364 H 0.82743 0.05135 0.30867 0.0
H1365 H 0.85699 0.07905 0.26434 0.0
H1366 H 0.78963 0.08097 0.31229 0.0
H1367 H 0.80675 0.08963 0.32896 0.0
H1368 H 0.80294 0.0649 0.32546 0.0
H1369 H 0.82537 0.11459 0.25828 0.0
H1370 H 0.84959 0.10877 0.25482 0.0
H1371 H 0.84286 0.12354 0.2744 0.0
C1372 C 0.3739 0.9896 0.99615 0.0
C1373 C 0.39066 0.98069 0.99183 0.0
C1374 C 0.35788 0.97949 1.00211 0.0
C1375 C 0.35861 0.95999 1.00385 0.0
C1376 C 0.3755 0.95093 0.99959 0.0
C1377 C 0.39129 0.96137 0.99363 0.0
C1378 C 0.34012 0.98967 1.00643 0.0
C1379 C 0.37691 0.93018 1.00136 0.0
C1380 C 0.32283 0.93545 0.03509 0.0
C1381 C 0.30995 0.92775 0.02189 0.0
C1382 C 0.33866 0.94602 0.02943 0.0
C1383 C 0.34171 0.94904 1.01009 0.0
C1384 C 0.32871 0.9414 0.99669 0.0
C1385 C 0.31302 0.93084 1.00274 0.0
C1386 C 0.35219 0.95389 0.04416 0.0
C1387 C 0.33143 0.94432 0.97593 0.0
H1388 H 0.37321 1.00448 0.99458 0.0
H1389 H 0.40425 0.9544 0.99059 0.0
H1390 H 0.32858 0.9842 0.99717 0.0
H1391 H 0.33572 0.98728 0.02114 0.0
H1392 H 0.34188 1.00488 1.00451 0.0
H1393 H 0.39106 0.92524 0.99754 0.0
H1394 H 0.37375 0.92623 0.016 0.0
H1395 H 0.36636 0.92283 0.99214 0.0
H1396 H 0.32061 0.93315 0.04992 0.0
H1397 H 0.30316 0.92499 0.99241 0.0
H1398 H 0.35342 0.96923 0.04323 0.0
H1399 H 0.36638 0.94843 0.04161 0.0
H1400 H 0.34775 0.95041 0.05863 0.0
H1401 H 0.33216 0.9594 0.97315 0.0
H1402 H 0.31991 0.93769 0.96733 0.0
H1403 H 0.34493 0.93849 0.97126 0.0
C1404 C 0.24516 0.40784 0.27334 0.0
C1405 C 0.24141 0.39251 0.28465 0.0
C1406 C 0.23282 0.42263 0.27274 0.0
C1407 C 0.2163 0.42222 0.28381 0.0
C1408 C 0.21241 0.40684 0.2953 0.0
C1409 C 0.22498 0.39217 0.29556 0.0
C1410 C 0.23753 0.43877 0.26031 0.0
C1411 C 0.19498 0.40588 0.30733 0.0
C1412 C 0.19443 0.4688 0.29492 0.0
C1413 C 0.1799 0.46903 0.28161 0.0
C1414 C 0.20611 0.45352 0.29604 0.0
C1415 C 0.20329 0.43806 0.2835 0.0
C1416 C 0.18847 0.43805 0.27023 0.0
C1417 C 0.17694 0.4535 0.26947 0.0
C1418 C 0.22168 0.45405 0.31046 0.0
C1419 C 0.18502 0.42187 0.25658 0.0
H1420 H 0.25795 0.40844 0.26511 0.0
H1421 H 0.22181 0.38031 0.30417 0.0
H1422 H 0.22592 0.44065 0.25022 0.0
H1423 H 0.23906 0.45178 0.26898 0.0
H1424 H 0.25072 0.43681 0.25228 0.0
H1425 H 0.19397 0.39297 0.31549 0.0
H1426 H 0.19488 0.41802 0.31729 0.0
H1427 H 0.18229 0.40653 0.29837 0.0
H1428 H 0.19682 0.48068 0.30442 0.0
H1429 H 0.16577 0.45352 0.25914 0.0
H1430 H 0.23548 0.45356 0.30328 0.0
H1431 H 0.22042 0.44169 0.31937 0.0
H1432 H 0.22154 0.46675 0.31968 0.0
H1433 H 0.19746 0.42022 0.24737 0.0
H1434 H 0.17251 0.42369 0.24759 0.0
H1435 H 0.18302 0.4088 0.26431 0.0
C1436 C 0.14081 0.06087 0.49583 0.0
C1437 C 0.13877 0.05218 0.47801 0.0
C1438 C 0.15626 0.07291 0.50004 0.0
C1439 C 0.17003 0.07638 0.48611 0.0
C1440 C 0.16827 0.06735 0.46824 0.0
C1441 C 0.15268 0.05538 0.46441 0.0
C1442 C 0.1576 0.08228 0.51927 0.0
C1443 C 0.18269 0.07057 0.45303 0.0
C1444 C 0.19897 0.12169 0.48985 0.0
C1445 C 0.21596 0.11589 0.49734 0.0
C1446 C 0.18396 0.10898 0.48612 0.0
C1447 C 0.18592 0.08996 0.49 0.0
C1448 C 0.20304 0.08399 0.49753 0.0
C1449 C 0.21785 0.09701 0.50108 0.0
C1450 C 0.16598 0.11591 0.47803 0.0
C1451 C 0.20567 0.06385 0.50189 0.0
H1452 H 0.13004 0.05865 0.50636 0.0
H1453 H 0.15138 0.04851 0.4507 0.0
H1454 H 0.17133 0.07954 0.52581 0.0
H1455 H 0.15683 0.09755 0.51796 0.0
H1456 H 0.14621 0.07748 0.5288 0.0
H1457 H 0.17963 0.062 0.44011 0.0
H1458 H 0.18313 0.08543 0.44932 0.0
H1459 H 0.19687 0.06731 0.45819 0.0
H1460 H 0.19735 0.13622 0.48688 0.0
H1461 H 0.2309 0.09237 0.50688 0.0
H1462 H 0.15408 0.11276 0.4876 0.0
H1463 H 0.16285 0.10863 0.46439 0.0
H1464 H 0.16671 0.13111 0.47578 0.0
H1465 H 0.19497 0.05921 0.51221 0.0
H1466 H 0.21984 0.06144 0.50767 0.0
H1467 H 0.20361 0.05504 0.48896 0.0
C1468 C 0.73626 0.12257 0.73288 0.0
C1469 C 0.73638 0.13761 0.74587 0.0
C1470 C 0.72298 0.1078 0.73412 0.0
C1471 C 0.70952 0.10798 0.74876 0.0
C1472 C 0.70953 0.12314 0.76189 0.0
C1473 C 0.72292 0.13777 0.76026 0.0
C1474 C 0.72336 0.09198 0.71975 0.0
C1475 C 0.6955 0.12381 0.77777 0.0
C1476 C 0.66494 0.07779 0.74256 0.0
C1477 C 0.66901 0.06225 0.7531 0.0
C1478 C 0.67793 0.09279 0.74111 0.0
C1479 C 0.69548 0.09226 0.75038 0.0
C1480 C 0.69967 0.07665 0.7611 0.0
C1481 C 0.68639 0.06186 0.76234 0.0
C1482 C 0.6729 0.10919 0.7296 0.0
C1483 C 0.71823 0.07553 0.77117 0.0
H1484 H 0.74648 0.12245 0.7216 0.0
H1485 H 0.72307 0.14921 0.7705 0.0
H1486 H 0.72554 0.07871 0.72686 0.0
H1487 H 0.70967 0.09058 0.71234 0.0
H1488 H 0.73465 0.09398 0.70916 0.0
H1489 H 0.69725 0.13665 0.78671 0.0
H1490 H 0.68099 0.12307 0.77206 0.0
H1491 H 0.69703 0.11161 0.78674 0.0
H1492 H 0.65155 0.07827 0.73539 0.0
H1493 H 0.6897 0.04993 0.77051 0.0
H1494 H 0.68322 0.11103 0.71808 0.0
H1495 H 0.67355 0.1221 0.73849 0.0
H1496 H 0.65862 0.10754 0.72336 0.0
H1497 H 0.72992 0.07626 0.7609 0.0
H1498 H 0.71927 0.06252 0.77906 0.0
H1499 H 0.72018 0.08755 0.78116 0.0
C1500 C 0.39229 0.06116 0.52584 0.0
C1501 C 0.39075 0.04958 0.54131 0.0
C1502 C 0.37721 0.07191 0.52035 0.0
C1503 C 0.36011 0.07099 0.5305 0.0
C1504 C 0.35843 0.05921 0.54604 0.0
C1505 C 0.37376 0.0487 0.55127 0.0
C1506 C 0.37961 0.08437 0.50377 0.0
C1507 C 0.34041 0.05767 0.55713 0.0
C1508 C 0.32584 0.11037 0.52799 0.0
C1509 C 0.31238 0.10297 0.51521 0.0
C1510 C 0.34158 0.10024 0.53288 0.0
C1511 C 0.34392 0.08224 0.52485 0.0
C1512 C 0.33051 0.07479 0.51177 0.0
C1513 C 0.31495 0.08523 0.5071 0.0
C1514 C 0.35558 0.10872 0.54682 0.0
C1515 C 0.33246 0.05564 0.50292 0.0
H1516 H 0.40544 0.06208 0.51821 0.0
H1517 H 0.37237 0.0396 0.56309 0.0
H1518 H 0.36893 0.08054 0.49288 0.0
H1519 H 0.37736 0.09901 0.50825 0.0
H1520 H 0.39378 0.0835 0.49735 0.0
H1521 H 0.34135 0.04785 0.56882 0.0
H1522 H 0.33682 0.07151 0.56309 0.0
H1523 H 0.32869 0.0529 0.54774 0.0
H1524 H 0.32402 0.12407 0.53432 0.0
H1525 H 0.30467 0.07936 0.49721 0.0
H1526 H 0.36986 0.10901 0.54059 0.0
H1527 H 0.35606 0.10007 0.55944 0.0
H1528 H 0.35209 0.12309 0.55133 0.0
H1529 H 0.34616 0.05475 0.49559 0.0
H1530 H 0.32107 0.05202 0.49267 0.0
H1531 H 0.33222 0.04511 0.51398 0.0
C1532 C 0.63313 0.46807 0.54332 0.0
C1533 C 0.63535 0.48745 0.54545 0.0
C1534 C 0.6484 0.45698 0.53861 0.0
C1535 C 0.6664 0.46544 0.53597 0.0
C1536 C 0.66874 0.485 0.538 0.0
C1537 C 0.65319 0.49576 0.54269 0.0
C1538 C 0.64526 0.4362 0.53643 0.0
C1539 C 0.68769 0.49455 0.53537 0.0
C1540 C 0.70888 0.43501 0.54037 0.0
C1541 C 0.71313 0.43091 0.52148 0.0
C1542 C 0.69385 0.44638 0.54528 0.0
C1543 C 0.68273 0.45378 0.53098 0.0
C1544 C 0.68701 0.44977 0.5119 0.0
C1545 C 0.70215 0.43843 0.50738 0.0
C1546 C 0.68978 0.45037 0.56579 0.0
C1547 C 0.67548 0.45733 0.49623 0.0
H1548 H 0.61936 0.46154 0.54516 0.0
H1549 H 0.65509 0.51069 0.54453 0.0
H1550 H 0.64927 0.43146 0.52206 0.0
H1551 H 0.65433 0.42906 0.54643 0.0
H1552 H 0.63041 0.43177 0.53896 0.0
H1553 H 0.68716 0.50987 0.53738 0.0
H1554 H 0.69791 0.48924 0.54551 0.0
H1555 H 0.69308 0.49136 0.52106 0.0
H1556 H 0.71728 0.42932 0.55136 0.0
H1557 H 0.70528 0.43536 0.49275 0.0
H1558 H 0.67545 0.44506 0.56928 0.0
H1559 H 0.69018 0.46559 0.56871 0.0
H1560 H 0.69998 0.44391 0.5752 0.0
H1561 H 0.66065 0.45232 0.49747 0.0
H1562 H 0.68077 0.45312 0.48211 0.0
H1563 H 0.67558 0.47272 0.49734 0.0
C1564 C 0.7367 0.31835 0.39177 0.0
C1565 C 0.7301 0.29989 0.39331 0.0
C1566 C 0.74204 0.32916 0.40775 0.0
C1567 C 0.74069 0.32137 0.42576 0.0
C1568 C 0.73408 0.30273 0.42741 0.0
C1569 C 0.72891 0.29221 0.41118 0.0
C1570 C 0.74915 0.34893 0.40535 0.0
C1571 C 0.73235 0.29394 0.44636 0.0
C1572 C 0.77019 0.3439 0.4653 0.0
C1573 C 0.75709 0.35493 0.47475 0.0
C1574 C 0.76502 0.33284 0.44944 0.0
C1575 C 0.74627 0.33274 0.44283 0.0
C1576 C 0.73293 0.34371 0.45238 0.0
C1577 C 0.73849 0.35468 0.46819 0.0
C1578 C 0.77967 0.32137 0.43965 0.0
C1579 C 0.71279 0.34395 0.44581 0.0
H1580 H 0.73789 0.32431 0.378 0.0
H1581 H 0.72361 0.27803 0.41251 0.0
H1582 H 0.74015 0.35864 0.41335 0.0
H1583 H 0.76358 0.35074 0.41113 0.0
H1584 H 0.74937 0.35291 0.39039 0.0
H1585 H 0.72701 0.27929 0.44525 0.0
H1586 H 0.74622 0.29432 0.45346 0.0
H1587 H 0.72268 0.30196 0.45545 0.0
H1588 H 0.78458 0.34398 0.47023 0.0
H1589 H 0.72825 0.36311 0.47539 0.0
H1590 H 0.78126 0.32566 0.42488 0.0
H1591 H 0.77514 0.30649 0.43927 0.0
H1592 H 0.79359 0.32281 0.44667 0.0
H1593 H 0.71225 0.34904 0.43127 0.0
H1594 H 0.70405 0.35294 0.45498 0.0
H1595 H 0.70651 0.32965 0.44551 0.0
C1596 C 0.56928 0.04222 0.8961 0.0
C1597 C 0.54968 0.04303 0.8946 0.0
C1598 C 0.58051 0.03875 0.88024 0.0
C1599 C 0.57197 0.03599 0.86237 0.0
C1600 C 0.55215 0.03624 0.86082 0.0
C1601 C 0.54125 0.03975 0.87694 0.0
C1602 C 0.60157 0.0385 0.88254 0.0
C1603 C 0.54249 0.03337 0.84204 0.0
C1604 C 0.60167 0.04782 0.81968 0.0
C1605 C 0.60714 0.03024 0.81313 0.0
C1606 C 0.59013 0.04983 0.83556 0.0
C1607 C 0.58386 0.03388 0.84521 0.0
C1608 C 0.58923 0.01607 0.83865 0.0
C1609 C 0.6008 0.01446 0.82269 0.0
C1610 C 0.58474 0.06907 0.84207 0.0
C1611 C 0.58285 0.99873 0.84855 0.0
H1612 H 0.5759 0.04442 0.90972 0.0
H1613 H 0.52614 0.04051 0.8756 0.0
H1614 H 0.607 0.02535 0.87653 0.0
H1615 H 0.60827 0.05004 0.87471 0.0
H1616 H 0.60596 0.03995 0.8975 0.0
H1617 H 0.52695 0.03278 0.84337 0.0
H1618 H 0.54658 0.04491 0.83273 0.0
H1619 H 0.54702 0.02029 0.83506 0.0
H1620 H 0.60644 0.06012 0.81241 0.0
H1621 H 0.60493 1.00082 0.81775 0.0
H1622 H 0.58992 0.07198 0.85659 0.0
H1623 H 0.56922 0.06996 0.84241 0.0
H1624 H 0.59053 0.08004 0.83285 0.0
H1625 H 0.58796 0.99937 0.86328 0.0
H1626 H 0.588 0.9859 0.84153 0.0
H1627 H 0.56728 0.99778 0.84907 0.0
C1628 C 0.29744 0.23197 0.39757 0.0
C1629 C 0.28094 0.23916 0.39032 0.0
C1630 C 0.29675 0.21828 0.41126 0.0
C1631 C 0.27912 0.21158 0.41791 0.0
C1632 C 0.26242 0.21866 0.41056 0.0
C1633 C 0.26353 0.23231 0.39687 0.0
C1634 C 0.31488 0.2111 0.41874 0.0
C1635 C 0.24335 0.21186 0.41722 0.0
C1636 C 0.2755 0.16486 0.44162 0.0
C1637 C 0.27494 0.17024 0.46072 0.0
C1638 C 0.27708 0.17813 0.42757 0.0
C1639 C 0.2781 0.19729 0.43269 0.0
C1640 C 0.27772 0.20281 0.45194 0.0
C1641 C 0.27615 0.18924 0.46571 0.0
C1642 C 0.27748 0.17167 0.40721 0.0
C1643 C 0.27874 0.22308 0.45801 0.0
H1644 H 0.31096 0.23731 0.39278 0.0
H1645 H 0.25069 0.23753 0.39116 0.0
H1646 H 0.31586 0.21406 0.4341 0.0
H1647 H 0.31514 0.19579 0.41658 0.0
H1648 H 0.32742 0.21745 0.41186 0.0
H1649 H 0.2317 0.21872 0.41004 0.0
H1650 H 0.24171 0.19663 0.41466 0.0
H1651 H 0.24204 0.21452 0.43258 0.0
H1652 H 0.27461 0.15023 0.4376 0.0
H1653 H 0.27574 0.19357 0.4804 0.0
H1654 H 0.2904 0.17717 0.40034 0.0
H1655 H 0.26534 0.17717 0.39964 0.0
H1656 H 0.277 0.15628 0.40556 0.0
H1657 H 0.29168 0.22986 0.45238 0.0
H1658 H 0.27869 0.22508 0.47354 0.0
H1659 H 0.26663 0.2303 0.45216 0.0
C1660 C 0.48251 0.49197 0.87449 0.0
C1661 C 0.47394 0.49003 0.89212 0.0
C1662 C 0.4719 0.49576 0.85847 0.0
C1663 C 0.45223 0.49767 0.86007 0.0
C1664 C 0.44358 0.49622 0.8779 0.0
C1665 C 0.45451 0.49242 0.89367 0.0
C1666 C 0.48168 0.49717 0.83973 0.0
C1667 C 0.42267 0.49825 0.88025 0.0
C1668 C 0.42546 0.52018 0.82079 0.0
C1669 C 0.41795 0.50459 0.81076 0.0
C1670 C 0.43672 0.51818 0.8368 0.0
C1671 C 0.44056 0.50016 0.84297 0.0
C1672 C 0.43305 0.4844 0.83288 0.0
C1673 C 0.42188 0.4868 0.81693 0.0
C1674 C 0.44449 0.53533 0.84715 0.0
C1675 C 0.43675 0.46494 0.83898 0.0
H1676 H 0.49746 0.48997 0.8731 0.0
H1677 H 0.44781 0.49124 0.90728 0.0
H1678 H 0.47658 0.48568 0.83014 0.0
H1679 H 0.47829 0.51039 0.83308 0.0
H1680 H 0.49718 0.49649 0.84102 0.0
H1681 H 0.41823 0.49765 0.89519 0.0
H1682 H 0.41835 0.51164 0.87458 0.0
H1683 H 0.41503 0.487 0.87214 0.0
H1684 H 0.42253 0.53399 0.81614 0.0
H1685 H 0.41617 0.47464 0.80932 0.0
H1686 H 0.46004 0.53507 0.84765 0.0
H1687 H 0.43941 0.53556 0.86188 0.0
H1688 H 0.44037 0.54834 0.84047 0.0
H1689 H 0.45209 0.46275 0.83927 0.0
H1690 H 0.43002 0.45414 0.82952 0.0
H1691 H 0.43139 0.463 0.85344 0.0
C1692 C 0.751 0.72717 0.13694 0.0
C1693 C 0.73552 0.73864 0.13583 0.0
C1694 C 0.75669 0.71632 0.12136 0.0
C1695 C 0.74676 0.71705 0.10417 0.0
C1696 C 0.73124 0.72875 0.10291 0.0
C1697 C 0.72577 0.73934 0.11876 0.0
C1698 C 0.77322 0.70392 0.12333 0.0
C1699 C 0.72039 0.73009 0.0848 0.0
C1700 C 0.77118 0.70169 0.059 0.0
C1701 C 0.7632 0.68382 0.05569 0.0
C1702 C 0.76598 0.71263 0.07471 0.0
C1703 C 0.75255 0.70552 0.08752 0.0
C1704 C 0.74454 0.68744 0.08435 0.0
C1705 C 0.7499 0.67685 0.06846 0.0
C1706 C 0.77477 0.73187 0.07751 0.0
C1707 C 0.73026 0.67931 0.09773 0.0
H1708 H 0.75846 0.72639 0.15015 0.0
H1709 H 0.71393 0.74834 0.11773 0.0
H1710 H 0.76874 0.68924 0.12034 0.0
H1711 H 0.78422 0.70761 0.11293 0.0
H1712 H 0.7795 0.705 0.13762 0.0
H1713 H 0.70881 0.74001 0.08607 0.0
H1714 H 0.72997 0.73461 0.0734 0.0
H1715 H 0.71434 0.71623 0.08051 0.0
H1716 H 0.78142 0.70724 0.04922 0.0
H1717 H 0.74368 0.66305 0.06606 0.0
H1718 H 0.78208 0.73303 0.09127 0.0
H1719 H 0.76368 0.74235 0.07774 0.0
H1720 H 0.78501 0.73536 0.06629 0.0
H1721 H 0.73628 0.6791 0.11209 0.0
H1722 H 0.72559 0.66494 0.09345 0.0
H1723 H 0.71778 0.68812 0.09848 0.0
C1724 C 0.96067 0.03815 0.13745 0.0
C1725 C 0.97912 0.04538 0.13947 0.0
C1726 C 0.94983 0.03336 0.15318 0.0
C1727 C 0.95756 0.03591 0.17143 0.0
C1728 C 0.97622 0.04305 0.17357 0.0
C1729 C 0.98678 0.04766 0.15758 0.0
C1730 C 0.93005 0.02565 0.15027 0.0
C1731 C 0.98496 0.04607 0.19278 0.0
C1732 C 0.92373 0.04042 0.21263 0.0
C1733 C 0.92378 0.02257 0.22002 0.0
C1734 C 0.9347 0.04496 0.1969 0.0
C1735 C 0.94602 0.03133 0.18829 0.0
C1736 C 0.94617 0.01329 0.19568 0.0
C1737 C 0.93506 1.00913 0.21144 0.0
C1738 C 0.93414 0.06435 0.18946 0.0
C1739 C 0.95803 0.99836 0.18692 0.0
H1740 H 0.95473 0.03611 0.1235 0.0
H1741 H 1.00094 0.05343 0.15928 0.0
H1742 H 0.92846 0.01181 0.15663 0.0
H1743 H 0.91994 0.03487 0.15743 0.0
H1744 H 0.92621 0.02424 0.13516 0.0
H1745 H 0.99974 0.05141 0.19205 0.0
H1746 H 0.97672 0.05613 0.20119 0.0
H1747 H 0.98463 0.03284 0.2004 0.0
H1748 H 0.91509 0.05091 0.21914 0.0
H1749 H 0.93524 0.9953 0.21702 0.0
H1750 H 0.92918 0.06375 0.17467 0.0
H1751 H 0.94848 0.07085 0.18953 0.0
H1752 H 0.92476 0.07341 0.19784 0.0
H1753 H 0.95388 0.99578 0.17202 0.0
H1754 H 0.95666 0.98506 0.19439 0.0
H1755 H 0.97302 1.00303 0.187 0.0
C1756 C 0.28755 0.78908 0.12492 0.0
C1757 C 0.27624 0.79046 0.14102 0.0
C1758 C 0.2855 0.80117 0.10995 0.0
C1759 C 0.27185 0.81503 0.11109 0.0
C1760 C 0.2608 0.81685 0.12754 0.0
C1761 C 0.2631 0.80455 0.14226 0.0
C1762 C 0.29752 0.7987 0.09264 0.0
C1763 C 0.24619 0.83152 0.1294 0.0
C1764 C 0.27436 0.85535 0.07749 0.0
C1765 C 0.26083 0.84971 0.06397 0.0
C1766 C 0.2782 0.84418 0.09284 0.0
C1767 C 0.26835 0.82693 0.09469 0.0
C1768 C 0.25483 0.82109 0.081 0.0
C1769 C 0.25122 0.83254 0.06586 0.0
C1770 C 0.29268 0.85091 0.10716 0.0
C1771 C 0.24406 0.80278 0.08239 0.0
H1772 H 0.29761 0.77814 0.12376 0.0
H1773 H 0.25451 0.80589 0.15476 0.0
H1774 H 0.2885 0.79445 0.08045 0.0
H1775 H 0.30473 0.81206 0.08921 0.0
H1776 H 0.30826 0.78806 0.0944 0.0
H1777 H 0.2395 0.8318 0.1435 0.0
H1778 H 0.25264 0.84545 0.12685 0.0
H1779 H 0.23509 0.82887 0.11865 0.0
H1780 H 0.28186 0.86858 0.07617 0.0
H1781 H 0.24079 0.828 0.05549 0.0
H1782 H 0.30381 0.84059 0.1083 0.0
H1783 H 0.28603 0.85234 0.12121 0.0
H1784 H 0.29933 0.86451 0.10356 0.0
H1785 H 0.25396 0.79122 0.08287 0.0
H1786 H 0.23429 0.80008 0.07038 0.0
H1787 H 0.23581 0.80263 0.09561 0.0
C1788 C 0.03979 0.47613 0.15567 0.0
C1789 C 0.04119 0.48699 0.13965 0.0
C1790 C 0.05063 0.48051 0.17178 0.0
C1791 C 0.06327 0.4961 0.17189 0.0
C1792 C 0.06467 0.5072 0.15581 0.0
C1793 C 0.05359 0.50254 0.13991 0.0
C1794 C 0.04859 0.46841 0.18867 0.0
C1795 C 0.07804 0.52388 0.15532 0.0
C1796 C 0.07942 0.51655 0.21933 0.0
C1797 C 0.09703 0.50866 0.22141 0.0
C1798 C 0.06837 0.51272 0.20324 0.0
C1799 C 0.07508 0.50072 0.18881 0.0
C1800 C 0.09292 0.49285 0.19073 0.0
C1801 C 0.10367 0.4969 0.20699 0.0
C1802 C 0.04942 0.52137 0.20176 0.0
C1803 C 0.1006 0.48003 0.17565 0.0
H1804 H 0.03006 0.46425 0.15567 0.0
H1805 H 0.05492 0.51087 0.12752 0.0
H1806 H 0.06228 0.46237 0.192 0.0
H1807 H 0.04438 0.47691 0.20112 0.0
H1808 H 0.03801 0.4569 0.1864 0.0
H1809 H 0.07731 0.5312 0.14184 0.0
H1810 H 0.07483 0.53383 0.16698 0.0
H1811 H 0.09265 0.51947 0.15741 0.0
H1812 H 0.07414 0.52566 0.23036 0.0
H1813 H 0.11725 0.49074 0.20843 0.0
H1814 H 0.03823 0.51031 0.20065 0.0
H1815 H 0.04875 0.52955 0.18883 0.0
H1816 H 0.04635 0.53063 0.21405 0.0
H1817 H 0.09113 0.46758 0.17375 0.0
H1818 H 0.1149 0.47539 0.17906 0.0
H1819 H 0.10117 0.48712 0.16203 0.0
C1820 C 0.38996 0.75037 0.30665 0.0
C1821 C 0.39371 0.74713 0.2875 0.0
C1822 C 0.40461 0.75293 0.31979 0.0
C1823 C 0.42351 0.75221 0.31368 0.0
C1824 C 0.42737 0.74838 0.29447 0.0
C1825 C 0.41246 0.7459 0.28163 0.0
C1826 C 0.39988 0.75703 0.34013 0.0
C1827 C 0.4473 0.74737 0.28737 0.0
C1828 C 0.46115 0.77913 0.34205 0.0
C1829 C 0.46948 0.76506 0.35208 0.0
C1830 C 0.44614 0.77513 0.32966 0.0
C1831 C 0.43923 0.75657 0.32712 0.0
C1832 C 0.44751 0.74228 0.33723 0.0
C1833 C 0.46252 0.74669 0.3496 0.0
C1834 C 0.43771 0.79079 0.31919 0.0
C1835 C 0.44058 0.72232 0.33489 0.0
H1836 H 0.37554 0.75152 0.31129 0.0
H1837 H 0.41549 0.74311 0.26692 0.0
H1838 H 0.40706 0.74731 0.34932 0.0
H1839 H 0.40499 0.77129 0.34421 0.0
H1840 H 0.38453 0.75592 0.34285 0.0
H1841 H 0.44793 0.74322 0.27224 0.0
H1842 H 0.4546 0.76113 0.28939 0.0
H1843 H 0.45515 0.73727 0.29553 0.0
H1844 H 0.46637 0.79337 0.34387 0.0
H1845 H 0.46885 0.73572 0.35726 0.0
H1846 H 0.42248 0.79144 0.32232 0.0
H1847 H 0.43912 0.78821 0.30383 0.0
H1848 H 0.44451 0.8045 0.32292 0.0
H1849 H 0.42543 0.72114 0.33844 0.0
H1850 H 0.44837 0.71286 0.3439 0.0
H1851 H 0.44206 0.71758 0.32001 0.0
C1852 C 0.96822 0.38548 0.96665 0.0
C1853 C 0.98122 0.3945 0.97892 0.0
C1854 C 0.97317 0.37002 0.95545 0.0
C1855 C 0.99158 0.36327 0.95658 0.0
C1856 C 1.00467 0.37205 0.9692 0.0
C1857 C 0.99936 0.38756 0.98017 0.0
C1858 C 0.95878 0.36108 0.94218 0.0
C1859 C 0.02441 0.36526 0.97087 0.0
C1860 C 0.9997 0.31415 0.93759 0.0
C1861 C 1.00731 0.31753 0.91977 0.0
C1862 C 0.99472 0.32888 0.94981 0.0
C1863 C 0.99728 0.34745 0.94405 0.0
C1864 C 1.00501 0.35095 0.92612 0.0
C1865 C 1.00998 0.33598 0.91425 0.0
C1866 C 0.98665 0.32457 0.96886 0.0
C1867 C 1.00785 0.37053 0.91938 0.0
H1868 H 0.95407 0.39049 0.9658 0.0
H1869 H 1.00959 0.39453 0.98943 0.0
H1870 H 0.96385 0.36201 0.92748 0.0
H1871 H 0.9568 0.34611 0.94515 0.0
H1872 H 0.94496 0.36773 0.94326 0.0
H1873 H 0.03262 0.373 0.982 0.0
H1874 H 0.02406 0.35026 0.97406 0.0
H1875 H 0.03186 0.3668 0.95729 0.0
H1876 H 0.99763 0.29996 0.94201 0.0
H1877 H 0.01581 0.33878 0.90052 0.0
H1878 H 0.97229 0.32999 0.9701 0.0
H1879 H 0.99532 0.33162 0.98006 0.0
H1880 H 0.98595 0.30943 0.97141 0.0
H1881 H 0.99418 0.37746 0.91903 0.0
H1882 H 0.0142 0.37091 0.90514 0.0
H1883 H 0.0171 0.37873 0.92928 0.0
C1884 C 0.64089 0.7845 0.3118 0.0
C1885 C 0.6384 0.79429 0.29527 0.0
C1886 C 0.62547 0.77897 0.32287 0.0
C1887 C 0.60708 0.78342 0.31737 0.0
C1888 C 0.60447 0.79325 0.30067 0.0
C1889 C 0.62014 0.7985 0.2898 0.0
C1890 C 0.62885 0.76836 0.34047 0.0
C1891 C 0.58513 0.79837 0.29437 0.0
C1892 C 0.56558 0.75534 0.33676 0.0
C1893 C 0.5593 0.7671 0.35135 0.0
C1894 C 0.58109 0.76046 0.32562 0.0
C1895 C 0.59058 0.7778 0.32909 0.0
C1896 C 0.58432 0.78975 0.34379 0.0
C1897 C 0.56879 0.78426 0.35475 0.0
C1898 C 0.58735 0.74729 0.31014 0.0
C1899 C 0.59401 0.80837 0.34792 0.0
H1900 H 0.65493 0.781 0.316 0.0
H1901 H 0.61812 0.80625 0.27717 0.0
H1902 H 0.62344 0.77616 0.35289 0.0
H1903 H 0.62109 0.75476 0.33965 0.0
H1904 H 0.64398 0.76587 0.34273 0.0
H1905 H 0.58546 0.80597 0.28101 0.0
H1906 H 0.57605 0.78566 0.29239 0.0
H1907 H 0.57849 0.80721 0.30536 0.0
H1908 H 0.55837 0.74206 0.334 0.0
H1909 H 0.56406 0.79346 0.36596 0.0
H1910 H 0.60216 0.74362 0.31245 0.0
H1911 H 0.58673 0.75414 0.2964 0.0
H1912 H 0.57854 0.73428 0.30929 0.0
H1913 H 0.60898 0.80643 0.35143 0.0
H1914 H 0.58737 0.81609 0.35977 0.0
H1915 H 0.5937 0.817 0.33527 0.0
C1916 C 0.04156 0.13685 0.96288 0.0
C1917 C 0.03961 0.13769 0.98251 0.0
C1918 C 0.03625 0.15162 0.95178 0.0
C1919 C 0.02876 0.16769 0.96047 0.0
C1920 C 0.02662 0.1686 0.98026 0.0
C1921 C 0.03205 0.15361 0.99103 0.0
C1922 C 0.03868 0.15003 0.93073 0.0
C1923 C 0.01875 0.1855 0.99007 0.0
C1924 C 0.03131 0.21256 0.93338 0.0
C1925 C 0.01302 0.21332 0.92617 0.0
C1926 C 0.03657 0.1979 0.94468 0.0
C1927 C 0.02326 0.18356 0.94882 0.0
C1928 C 1.00478 0.18425 0.94161 0.0
C1929 C 0.99988 0.19912 0.93042 0.0
C1930 C 0.0564 0.19772 0.95213 0.0
C1931 C 0.99019 0.16921 0.94563 0.0
H1932 H 0.0471 0.12451 0.95613 0.0
H1933 H 0.03068 0.1545 1.00618 0.0
H1934 H 0.02494 0.15142 0.92367 0.0
H1935 H 0.04811 0.16147 0.92589 0.0
H1936 H 0.04464 0.13658 0.92614 0.0
H1937 H 0.01777 0.18397 1.00553 0.0
H1938 H 0.02775 0.19795 0.98719 0.0
H1939 H 1.00454 0.18808 0.98454 0.0
H1940 H 0.04157 0.22347 0.93024 0.0
H1941 H 0.98572 0.19953 0.92492 0.0
H1942 H 0.06334 0.18501 0.94691 0.0
H1943 H 0.05621 0.19734 0.9677 0.0
H1944 H 0.06498 0.21005 0.9479 0.0
H1945 H 0.99506 0.15558 0.94025 0.0
H1946 H 0.9764 0.17184 0.9391 0.0
H1947 H 0.98821 0.16812 0.96102 0.0
C1948 C 0.41199 0.28438 0.24769 0.0
C1949 C 0.3931 0.2838 0.24201 0.0
C1950 C 0.42657 0.28216 0.23461 0.0
C1951 C 0.42222 0.27928 0.21532 0.0
C1952 C 0.40323 0.27918 0.2094 0.0
C1953 C 0.38891 0.28146 0.2228 0.0
C1954 C 0.44662 0.28248 0.24152 0.0
C1955 C 0.39799 0.27612 0.18898 0.0
C1956 C 0.46167 0.28617 0.17973 0.0
C1957 C 0.46729 0.26787 0.17637 0.0
C1958 C 0.4469 0.2901 0.1922 0.0
C1959 C 0.43749 0.27539 0.20153 0.0
C1960 C 0.44297 0.25689 0.19803 0.0
C1961 C 0.45778 0.25336 0.18553 0.0
C1962 C 0.44149 0.31001 0.19556 0.0
C1963 C 0.4333 0.2408 0.20765 0.0
H1964 H 0.41538 0.2865 0.26246 0.0
H1965 H 0.37437 0.28082 0.21829 0.0
H1966 H 0.4528 0.26874 0.23863 0.0
H1967 H 0.45521 0.29292 0.23386 0.0
H1968 H 0.44771 0.28577 0.25683 0.0
H1969 H 0.38272 0.27756 0.1865 0.0
H1970 H 0.40586 0.28619 0.1802 0.0
H1971 H 0.40195 0.26199 0.18415 0.0
H1972 H 0.46891 0.29748 0.17272 0.0
H1973 H 0.46195 0.23917 0.18303 0.0
H1974 H 0.44356 0.31407 0.21059 0.0
H1975 H 0.42638 0.3115 0.19235 0.0
H1976 H 0.44985 0.31981 0.18687 0.0
H1977 H 0.43506 0.24248 0.22309 0.0
H1978 H 0.43893 0.22719 0.20307 0.0
H1979 H 0.41801 0.24059 0.20467 0.0
C1980 C 0.54862 0.39675 0.06565 0.0
C1981 C 0.5401 0.39802 0.04796 0.0
C1982 C 0.54402 0.38205 0.07753 0.0
C1983 C 0.53049 0.36825 0.07169 0.0
C1984 C 0.52179 0.36944 0.05389 0.0
C1985 C 0.52669 0.38428 0.04225 0.0
C1986 C 0.55359 0.38136 0.09642 0.0
C1987 C 0.50731 0.355 0.04712 0.0
C1988 C 0.5306 0.32163 0.09566 0.0
C1989 C 0.51596 0.32344 0.10873 0.0
C1990 C 0.53538 0.33603 0.08344 0.0
C1991 C 0.52534 0.35269 0.0843 0.0
C1992 C 0.51055 0.3546 0.09744 0.0
C1993 C 0.50603 0.33997 0.10946 0.0
C1994 C 0.55123 0.33343 0.06963 0.0
C1995 C 0.49953 0.37214 0.09886 0.0
H1996 H 0.55875 0.40743 0.07035 0.0
H1997 H 0.52019 0.385 0.02854 0.0
H1998 H 0.54296 0.38186 0.1078 0.0
H1999 H 0.56091 0.36808 0.09756 0.0
H2000 H 0.56397 0.39303 0.09878 0.0
H2001 H 0.50185 0.3579 0.03293 0.0
H2002 H 0.51351 0.34106 0.04667 0.0
H2003 H 0.49535 0.35443 0.05709 0.0
H2004 H 0.53834 0.30892 0.09494 0.0
H2005 H 0.49471 0.34155 0.11948 0.0
H2006 H 0.56243 0.34426 0.07227 0.0
H2007 H 0.54609 0.33511 0.05509 0.0
H2008 H 0.55749 0.31956 0.07052 0.0
H2009 H 0.5091 0.3842 0.10238 0.0
H2010 H 0.48834 0.37139 0.1097 0.0
H2011 H 0.49296 0.37482 0.08511 0.0
C2012 C 0.61862 0.22616 0.23269 0.0
C2013 C 0.63415 0.23836 0.2358 0.0
C2014 C 0.60311 0.23142 0.22212 0.0
C2015 C 0.6031 0.24931 0.21438 0.0
C2016 C 0.61872 0.26171 0.21748 0.0
C2017 C 0.63402 0.25611 0.22818 0.0
C2018 C 0.58669 0.21784 0.21929 0.0
C2019 C 0.6193 0.28086 0.2094 0.0
C2020 C 0.57029 0.25651 0.17315 0.0
C2021 C 0.55517 0.26526 0.18197 0.0
C2022 C 0.58604 0.25142 0.18348 0.0
C2023 C 0.5867 0.25506 0.20314 0.0
C2024 C 0.57153 0.26395 0.21211 0.0
C2025 C 0.556 0.26897 0.20143 0.0
C2026 C 0.60195 0.24205 0.17338 0.0
C2027 C 0.57163 0.268 0.23304 0.0
H2028 H 0.61848 0.21253 0.23875 0.0
H2029 H 0.64604 0.26553 0.23032 0.0
H2030 H 0.57371 0.22396 0.22501 0.0
H2031 H 0.58434 0.21497 0.20406 0.0
H2032 H 0.58888 0.20446 0.22622 0.0
H2033 H 0.63247 0.28884 0.21307 0.0
H2034 H 0.61807 0.27976 0.19387 0.0
H2035 H 0.6072 0.28881 0.21465 0.0
H2036 H 0.56981 0.2536 0.15813 0.0
H2037 H 0.54441 0.27569 0.2084 0.0
H2038 H 0.60382 0.22804 0.17905 0.0
H2039 H 0.61528 0.25015 0.17582 0.0
H2040 H 0.59948 0.24056 0.15799 0.0
H2041 H 0.57261 0.25486 0.24067 0.0
H2042 H 0.55883 0.27515 0.23786 0.0
H2043 H 0.58413 0.27685 0.23699 0.0
C2044 C 0.47142 0.14424 0.06538 0.0
C2045 C 0.48394 0.13778 0.05161 0.0
C2046 C 0.47592 0.15998 0.0768 0.0
C2047 C 0.49332 0.16966 0.07436 0.0
C2048 C 0.50589 0.16345 0.06028 0.0
C2049 C 0.50108 0.14758 0.04911 0.0
C2050 C 0.46212 0.16613 0.09165 0.0
C2051 C 0.52456 0.17341 0.0572 0.0
C2052 C 0.49834 0.21921 0.0944 0.0
C2053 C 0.5079 0.21663 0.11132 0.0
C2054 C 0.49366 0.2041 0.08214 0.0
C2055 C 0.49857 0.18594 0.08694 0.0
C2056 C 0.50825 0.18325 0.10397 0.0
C2057 C 0.51282 0.1986 0.11591 0.0
C2058 C 0.4834 0.20755 0.06409 0.0
C2059 C 0.51367 0.16411 0.10965 0.0
H2060 H 0.458 0.137 0.0672 0.0
H2061 H 0.51094 0.14262 0.03868 0.0
H2062 H 0.46867 0.16565 0.10576 0.0
H2063 H 0.45833 0.18072 0.08948 0.0
H2064 H 0.44905 0.15728 0.09155 0.0
H2065 H 0.5324 0.16732 0.04515 0.0
H2066 H 0.52242 0.18831 0.0546 0.0
H2067 H 0.53334 0.17277 0.07002 0.0
H2068 H 0.4945 0.23308 0.09069 0.0
H2069 H 0.52019 0.19642 0.12893 0.0
H2070 H 0.46967 0.19983 0.06388 0.0
H2071 H 0.4916 0.20231 0.05191 0.0
H2072 H 0.48088 0.22253 0.06223 0.0
H2073 H 0.50091 0.15499 0.1109 0.0
H2074 H 0.52133 0.16438 0.12326 0.0
H2075 H 0.52269 0.15774 0.09869 0.0
C2076 C 0.30642 0.39655 0.74627 0.0
C2077 C 0.29417 0.39643 0.73084 0.0
C2078 C 0.31866 0.41186 0.75029 0.0
C2079 C 0.31861 0.42747 0.73864 0.0
C2080 C 0.30593 0.42762 0.72333 0.0
C2081 C 0.2939 0.41211 0.7196 0.0
C2082 C 0.332 0.41113 0.76671 0.0
C2083 C 0.30531 0.44403 0.71065 0.0
C2084 C 0.34056 0.47364 0.75643 0.0
C2085 C 0.3581 0.47377 0.74744 0.0
C2086 C 0.32761 0.45862 0.75382 0.0
C2087 C 0.33231 0.44334 0.74197 0.0
C2088 C 0.35005 0.44333 0.73298 0.0
C2089 C 0.3627 0.45852 0.7358 0.0
C2090 C 0.30883 0.45918 0.76362 0.0
C2091 C 0.35564 0.42729 0.72027 0.0
H2092 H 0.30685 0.38443 0.75491 0.0
H2093 H 0.28428 0.41223 0.70782 0.0
H2094 H 0.3467 0.41153 0.76155 0.0
H2095 H 0.33038 0.42345 0.77621 0.0
H2096 H 0.32968 0.39839 0.77493 0.0
H2097 H 0.29411 0.44231 0.69983 0.0
H2098 H 0.30289 0.45693 0.71909 0.0
H2099 H 0.31901 0.44594 0.70344 0.0
H2100 H 0.33686 0.48533 0.76546 0.0
H2101 H 0.37621 0.45844 0.72882 0.0
H2102 H 0.30686 0.44688 0.77252 0.0
H2103 H 0.29735 0.45856 0.75307 0.0
H2104 H 0.30742 0.47194 0.77259 0.0
H2105 H 0.35486 0.41416 0.72805 0.0
H2106 H 0.37008 0.42923 0.71462 0.0
H2107 H 0.3457 0.42566 0.70829 0.0
C2108 C 0.31259 0.65007 0.80077 0.0
C2109 C 0.29291 0.64828 0.80032 0.0
C2110 C 0.32385 0.63465 0.79752 0.0
C2111 C 0.31527 0.61695 0.79364 0.0
C2112 C 0.29542 0.61511 0.79271 0.0
C2113 C 0.28449 0.63077 0.79607 0.0
C2114 C 0.34495 0.63726 0.79857 0.0
C2115 C 0.28573 0.59649 0.78859 0.0
C2116 C 0.34527 0.57941 0.77132 0.0
C2117 C 0.35002 0.56907 0.78694 0.0
C2118 C 0.33383 0.59491 0.77324 0.0
C2119 C 0.32706 0.60029 0.79123 0.0
C2120 C 0.33181 0.58991 0.80704 0.0
C2121 C 0.34317 0.57443 0.8047 0.0
C2122 C 0.32902 0.60555 0.75603 0.0
C2123 C 0.32499 0.59525 0.82649 0.0
H2124 H 0.31924 0.66359 0.80372 0.0
H2125 H 0.26931 0.6292 0.79587 0.0
H2126 H 0.3505 0.62889 0.81004 0.0
H2127 H 0.35143 0.63222 0.78528 0.0
H2128 H 0.34945 0.65202 0.80116 0.0
H2129 H 0.27025 0.59753 0.78744 0.0
H2130 H 0.29112 0.59029 0.77529 0.0
H2131 H 0.28884 0.5868 0.79994 0.0
H2132 H 0.35043 0.57537 0.75753 0.0
H2133 H 0.34676 0.56657 0.81687 0.0
H2134 H 0.33425 0.62018 0.75771 0.0
H2135 H 0.31355 0.60581 0.75433 0.0
H2136 H 0.33514 0.59942 0.743 0.0
H2137 H 0.33012 0.60955 0.83038 0.0
H2138 H 0.32981 0.58566 0.83731 0.0
H2139 H 0.30942 0.59524 0.82669 0.0
C2140 C 0.89136 0.46434 0.49606 0.0
C2141 C 0.88997 0.48285 0.49071 0.0
C2142 C 0.87549 0.45397 0.50194 0.0
C2143 C 0.85773 0.46225 0.50243 0.0
C2144 C 0.85622 0.48094 0.4971 0.0
C2145 C 0.87235 0.49102 0.49136 0.0
C2146 C 0.87774 0.43414 0.50765 0.0
C2147 C 0.83753 0.49025 0.49733 0.0
C2148 C 0.81403 0.43032 0.50103 0.0
C2149 C 0.80867 0.43032 0.52001 0.0
C2150 C 0.82989 0.4407 0.49512 0.0
C2151 C 0.84072 0.45133 0.50848 0.0
C2152 C 0.83538 0.45142 0.52764 0.0
C2153 C 0.81943 0.44094 0.53317 0.0
C2154 C 0.83509 0.44027 0.47455 0.0
C2155 C 0.84656 0.46253 0.54234 0.0
H2156 H 0.90496 0.45801 0.49584 0.0
H2157 H 0.8711 0.50523 0.48704 0.0
H2158 H 0.87292 0.43248 0.52234 0.0
H2159 H 0.86884 0.42464 0.49861 0.0
H2160 H 0.89252 0.42977 0.50657 0.0
H2161 H 0.83874 0.5049 0.49288 0.0
H2162 H 0.82753 0.4825 0.48781 0.0
H2163 H 0.83143 0.49003 0.51166 0.0
H2164 H 0.80582 0.42219 0.49075 0.0
H2165 H 0.81544 0.44105 0.54786 0.0
H2166 H 0.84939 0.43484 0.47271 0.0
H2167 H 0.83538 0.45456 0.46913 0.0
H2168 H 0.82511 0.43147 0.4659 0.0
H2169 H 0.86125 0.45786 0.54253 0.0
H2170 H 0.84053 0.46118 0.55664 0.0
H2171 H 0.84709 0.47744 0.53882 0.0
C2172 C 0.7235 0.88962 0.78944 0.0
C2173 C 0.74269 0.89386 0.78689 0.0
C2174 C 0.71014 0.90358 0.78926 0.0
C2175 C 0.71608 0.92226 0.78648 0.0
C2176 C 0.73544 0.92664 0.78404 0.0
C2177 C 0.74847 0.91243 0.78429 0.0
C2178 C 0.68965 0.89832 0.79189 0.0
C2179 C 0.74239 0.94638 0.78112 0.0
C2180 C 0.68148 0.95683 0.76843 0.0
C2181 C 0.677 0.96692 0.7849 0.0
C2182 C 0.69394 0.94209 0.76878 0.0
C2183 C 0.70211 0.93726 0.78603 0.0
C2184 C 0.6974 0.94717 0.80276 0.0
C2185 C 0.68494 0.96187 0.80199 0.0
C2186 C 0.69861 0.9319 0.75063 0.0
C2187 C 0.70574 0.94242 0.82144 0.0
H2188 H 0.71887 0.87531 0.79125 0.0
H2189 H 0.76328 0.91591 0.7826 0.0
H2190 H 0.6839 0.9062 0.80409 0.0
H2191 H 0.68153 0.90208 0.77934 0.0
H2192 H 0.68733 0.88323 0.79419 0.0
H2193 H 0.75789 0.94749 0.77947 0.0
H2194 H 0.73575 0.95187 0.76842 0.0
H2195 H 0.7383 0.9554 0.79324 0.0
H2196 H 0.67543 0.96059 0.75515 0.0
H2197 H 0.68155 0.96952 0.81481 0.0
H2198 H 0.69553 0.9168 0.75192 0.0
H2199 H 0.71384 0.93369 0.74764 0.0
H2200 H 0.69061 0.93694 0.73851 0.0
H2201 H 0.70279 0.92755 0.82431 0.0
H2202 H 0.70015 0.95101 0.83325 0.0
H2203 H 0.72123 0.94455 0.82102 0.0
C2204 C 0.63334 0.5701 0.98994 0.0
C2205 C 0.63435 0.5511 0.98522 0.0
C2206 C 0.64949 0.58077 0.99507 0.0
C2207 C 0.66713 0.57228 0.99545 0.0
C2208 C 0.66825 0.5531 0.99077 0.0
C2209 C 0.65186 0.54274 0.98575 0.0
C2210 C 0.64766 0.60114 1.00009 0.0
C2211 C 0.6868 0.54355 0.99092 0.0
C2212 C 0.71109 0.60354 0.99207 0.0
C2213 C 0.71684 0.60525 0.01092 0.0
C2214 C 0.69503 0.59277 0.98683 0.0
C2215 C 0.6844 0.5835 1.00075 0.0
C2216 C 0.69016 0.58513 0.01978 0.0
C2217 C 0.70629 0.59595 0.02462 0.0
C2218 C 0.68939 0.59135 0.96638 0.0
C2219 C 0.67919 0.57551 0.03506 0.0
H2220 H 0.61984 0.57661 0.98982 0.0
H2221 H 0.65279 0.52813 0.98191 0.0
H2222 H 0.65284 0.60409 0.0146 0.0
H2223 H 0.65647 0.60966 0.99055 0.0
H2224 H 0.63292 0.60563 0.99916 0.0
H2225 H 0.68529 0.52853 0.98703 0.0
H2226 H 0.69667 0.55026 0.98094 0.0
H2227 H 0.69325 0.54501 1.00509 0.0
H2228 H 0.71914 0.61064 0.98137 0.0
H2229 H 0.71059 0.59717 0.03922 0.0
H2230 H 0.67513 0.59682 0.96462 0.0
H2231 H 0.68876 0.57657 0.96151 0.0
H2232 H 0.69929 0.59917 0.95724 0.0
H2233 H 0.66459 0.58041 0.03541 0.0
H2234 H 0.68559 0.57807 0.04916 0.0
H2235 H 0.67838 0.56031 0.03205 0.0
C2236 C 0.22358 0.6317 0.2354 0.0
C2237 C 0.23471 0.63778 0.2508 0.0
C2238 C 0.2102 0.61704 0.23697 0.0
C2239 C 0.20776 0.60826 0.25438 0.0
C2240 C 0.21889 0.61434 0.26999 0.0
C2241 C 0.23225 0.62894 0.268 0.0
C2242 C 0.19864 0.61095 0.21997 0.0
C2243 C 0.21673 0.60538 0.28882 0.0
C2244 C 0.16173 0.58173 0.26367 0.0
C2245 C 0.16677 0.56322 0.26055 0.0
C2246 C 0.1749 0.5965 0.26168 0.0
C2247 C 0.19357 0.59272 0.25632 0.0
C2248 C 0.19872 0.57408 0.25303 0.0
C2249 C 0.18529 0.55957 0.25524 0.0
C2250 C 0.16886 0.61617 0.26545 0.0
C2251 C 0.21844 0.56946 0.24718 0.0
H2252 H 0.22516 0.63856 0.22212 0.0
H2253 H 0.24098 0.63326 0.2799 0.0
H2254 H 0.20066 0.596 0.21667 0.0
H2255 H 0.1835 0.6126 0.223 0.0
H2256 H 0.20241 0.61902 0.20738 0.0
H2257 H 0.22627 0.6119 0.29964 0.0
H2258 H 0.20204 0.60644 0.29382 0.0
H2259 H 0.2197 0.59039 0.28742 0.0
H2260 H 0.14747 0.58472 0.26781 0.0
H2261 H 0.18933 0.54533 0.25275 0.0
H2262 H 0.17127 0.62455 0.2528 0.0
H2263 H 0.17746 0.62274 0.27697 0.0
H2264 H 0.15381 0.61679 0.26941 0.0
H2265 H 0.22219 0.57658 0.23402 0.0
H2266 H 0.22013 0.55429 0.24487 0.0
H2267 H 0.22858 0.57458 0.25812 0.0
C2268 C 0.88477 0.55337 0.0238 0.0
C2269 C 0.89326 0.55501 0.0416 0.0
C2270 C 0.87002 0.56483 0.0189 0.0
C2271 C 0.8636 0.57831 0.03208 0.0
C2272 C 0.87197 0.57991 0.05012 0.0
C2273 C 0.88662 0.56824 0.05466 0.0
C2274 C 0.86146 0.56267 0.99954 0.0
C2275 C 0.86553 0.59405 0.0646 0.0
C2276 C 0.83852 0.62041 0.01463 0.0
C2277 C 0.81963 0.61566 0.01825 0.0
C2278 C 0.85292 0.60831 0.01886 0.0
C2279 C 0.84837 0.591 0.02694 0.0
C2280 C 0.82932 0.58604 0.0305 0.0
C2281 C 0.81519 0.59842 0.02612 0.0
C2282 C 0.87304 0.61413 0.01485 0.0
C2283 C 0.82387 0.56772 0.03909 0.0
H2284 H 0.8899 0.54336 0.01354 0.0
H2285 H 0.89282 0.5694 0.06856 0.0
H2286 H 0.84609 0.55995 1.00063 0.0
H2287 H 0.86359 0.57577 0.99188 0.0
H2288 H 0.86764 0.55117 0.99112 0.0
H2289 H 0.87335 0.59341 0.07805 0.0
H2290 H 0.86743 0.60825 0.05912 0.0
H2291 H 0.85033 0.59178 0.06747 0.0
H2292 H 0.84213 0.63366 1.00852 0.0
H2293 H 0.80065 0.59458 0.02896 0.0
H2294 H 0.87959 0.60364 1.00543 0.0
H2295 H 0.88124 0.61487 0.02811 0.0
H2296 H 0.87422 0.62787 1.00817 0.0
H2297 H 0.8292 0.55608 0.03029 0.0
H2298 H 0.80842 0.56576 0.04061 0.0
H2299 H 0.83042 0.5669 0.05317 0.0
C2300 C 0.13352 0.96912 0.03875 0.0
C2301 C 0.13573 0.98733 0.04617 0.0
C2302 C 0.14915 0.95843 0.03432 0.0
C2303 C 0.1675 0.96606 0.03743 0.0
C2304 C 0.16984 0.98447 0.04483 0.0
C2305 C 0.15394 0.99488 0.04907 0.0
C2306 C 0.14603 0.93893 0.02631 0.0
C2307 C 0.18915 0.99309 0.04843 0.0
C2308 C 0.20721 0.93226 0.04191 0.0
C2309 C 0.21524 0.93256 0.02391 0.0
C2310 C 0.19181 0.94323 0.04656 0.0
C2311 C 0.1842 0.95477 0.0329 0.0
C2312 C 0.19234 0.95525 0.01476 0.0
C2313 C 0.20774 0.94416 1.0105 0.0
C2314 C 0.18356 0.94236 0.06607 0.0
C2315 C 0.18466 0.96733 0.99978 0.0
H2316 H 0.11951 0.96326 0.03624 0.0
H2317 H 0.15577 1.00885 0.055 0.0
H2318 H 0.15292 0.93759 0.01238 0.0
H2319 H 0.15253 0.92884 0.03561 0.0
H2320 H 0.13088 0.93506 0.02466 0.0
H2321 H 0.18859 1.00759 0.05412 0.0
H2322 H 0.19681 0.98471 0.05857 0.0
H2323 H 0.19739 0.99312 0.03521 0.0
H2324 H 0.21289 0.92338 0.05238 0.0
H2325 H 0.21383 0.94453 0.99656 0.0
H2326 H 0.1687 0.93731 0.06523 0.0
H2327 H 0.18369 0.95645 0.07278 0.0
H2328 H 0.19136 0.93302 0.07521 0.0
H2329 H 0.1698 0.96319 0.99678 0.0
H2330 H 0.19276 0.96637 0.98647 0.0
H2331 H 0.1849 0.98206 1.00482 0.0
loop_
_geom_bond_atom_site_label_1
_geom_bond_atom_site_label_2
_geom_bond_distance
_geom_bond_site_symmetry_2
_ccdc_geom_bond_type
C0 C1 1.264 . S
C0 C5 1.479 . S
C0 C10 1.465 1_655 S
C1 C0 1.264 . S
C1 C3 1.339 . S
C1 H28 0.931 1_655 S
C2 C3 1.395 . S
C2 C4 1.320 . S
C3 C1 1.339 . S
C3 C2 1.395 . S
C3 H29 0.929 . S
C4 C2 1.320 . S
C4 C5 1.405 . S
C4 H30 0.930 . S
C5 C0 1.479 . S
C5 C4 1.405 . S
C5 H31 0.931 . S
U6 O7 2.454 . S
U6 O8 2.458 . S
U6 C9 2.984 . S
U6 C10 2.847 . S
U6 C23 2.882 . S
U6 O24 2.441 . S
U6 O25 2.420 . S
U6 O26 2.455 . S
U6 O27 2.449 . S
O7 U6 2.454 . S
O7 C9 1.353 . S
O8 U6 2.458 . S
O8 C9 1.286 . S
C9 U6 2.984 . S
C9 O7 1.353 . S
C9 O8 1.286 . S
C9 C11 1.363 . S
C10 C0 1.465 1_455 S
C10 U6 2.847 . S
C10 O24 1.249 . S
C10 O25 1.202 . S
C11 C9 1.363 . S
C11 C13 1.408 . S
C11 C16 1.342 1_554 S
C12 C13 1.310 1_556 S
C12 C15 1.461 . S
C12 H32 0.939 . S
C13 C11 1.408 . S
C13 C12 1.310 1_554 S
C13 H33 0.930 . S
C14 C15 1.474 . S
C14 C16 1.285 . S
C14 H34 0.929 . S
C15 C12 1.461 . S
C15 C14 1.474 . S
C16 C11 1.342 1_556 S
C16 C14 1.285 . S
C16 H35 0.930 . S
C17 C20 1.424 1_545 S
C17 C22 1.245 . S
C17 C23 1.428 . S
C18 C21 1.260 . S
C18 C22 1.477 1_565 S
C18 H36 0.932 . S
C19 C20 1.384 . S
C19 C21 1.479 . S
C19 H37 0.929 . S
C20 C17 1.424 1_565 S
C20 C19 1.384 . S
C20 H38 0.928 . S
C21 C18 1.260 . S
C21 C19 1.479 . S
C22 C17 1.245 . S
C22 C18 1.477 1_545 S
C22 H39 0.932 . S
C23 U6 2.882 . S
C23 C17 1.428 . S
C23 O26 1.301 . S
C23 O27 1.282 . S
O24 U6 2.441 . S
O24 C10 1.249 . S
O25 U6 2.420 . S
O25 C10 1.202 . S
O26 U6 2.455 . S
O26 C23 1.301 . S
O27 U6 2.449 . S
O27 C23 1.282 . S
H28 C1 0.931 1_455 S
H29 C3 0.929 . S
H30 C4 0.930 . S
H31 C5 0.931 . S
H32 C12 0.939 . S
H33 C13 0.930 . S
H34 C14 0.929 . S
H35 C16 0.930 . S
H36 C18 0.932 . S
H37 C19 0.929 . S
H38 C20 0.928 . S
H39 C22 0.932 . S
C40 C41 1.264 . S
C40 C45 1.479 . S
C40 C50 1.465 . S
C41 C40 1.264 . S
C41 C43 1.339 . S
C41 H68 0.931 . S
C42 C43 1.395 . S
C42 C44 1.320 . S
C43 C41 1.339 . S
C43 C42 1.395 . S
C43 H69 0.929 . S
C44 C42 1.320 . S
C44 C45 1.405 . S
C44 H70 0.930 . S
C45 C40 1.479 . S
C45 C44 1.405 . S
C45 H71 0.931 . S
U46 O47 2.454 . S
U46 O48 2.458 . S
U46 C49 2.984 . S
U46 C50 2.847 . S
U46 C63 2.882 . S
U46 O64 2.441 . S
U46 O65 2.420 . S
U46 O66 2.455 . S
U46 O67 2.449 . S
O47 U46 2.454 . S
O47 C49 1.353 . S
O48 U46 2.458 . S
O48 C49 1.286 . S
C49 U46 2.984 . S
C49 O47 1.353 . S
C49 O48 1.286 . S
C49 C51 1.363 . S
C50 C40 1.465 . S
C50 U46 2.847 . S
C50 O64 1.249 . S
C50 O65 1.202 . S
C51 C49 1.363 . S
C51 C53 1.408 . S
C51 C56 1.342 . S
C52 C53 1.310 . S
C52 C55 1.461 . S
C52 H72 0.932 . S
C53 C51 1.408 . S
C53 C52 1.310 . S
C53 H73 0.930 . S
C54 C55 1.474 . S
C54 C56 1.285 . S
C54 H74 0.929 . S
C55 C52 1.461 . S
C55 C54 1.474 . S
C56 C51 1.342 . S
C56 C54 1.285 . S
C56 H75 0.930 . S
C57 C60 1.424 . S
C57 C62 1.245 . S
C57 C63 1.428 . S
C58 C61 1.260 . S
C58 C62 1.477 . S
C58 H76 0.932 . S
C59 C60 1.384 . S
C59 C61 1.479 . S
C59 H77 0.929 . S
C60 C57 1.424 . S
C60 C59 1.384 . S
C60 H78 0.928 . S
C61 C58 1.260 . S
C61 C59 1.479 . S
C62 C57 1.245 . S
C62 C58 1.477 . S
C62 H79 0.932 . S
C63 U46 2.882 . S
C63 C57 1.428 . S
C63 O66 1.301 . S
C63 O67 1.282 . S
O64 U46 2.441 . S
O64 C50 1.249 . S
O65 U46 2.420 . S
O65 C50 1.202 . S
O66 U46 2.455 . S
O66 C63 1.301 . S
O67 U46 2.449 . S
O67 C63 1.282 . S
H68 C41 0.931 . S
H69 C43 0.929 . S
H70 C44 0.930 . S
H71 C45 0.931 . S
H72 C52 0.932 . S
H73 C53 0.930 . S
H74 C54 0.929 . S
H75 C56 0.930 . S
H76 C58 0.932 . S
H77 C59 0.929 . S
H78 C60 0.928 . S
H79 C62 0.932 . S
C80 C81 1.264 . S
C80 C85 1.479 . S
C80 C90 1.465 1_556 S
C81 C80 1.264 . S
C81 C83 1.339 . S
C81 H108 0.931 1_656 S
C82 C83 1.395 . S
C82 C84 1.320 . S
C83 C81 1.339 . S
C83 C82 1.395 . S
C83 H109 0.929 1_655 S
C84 C82 1.320 . S
C84 C85 1.405 . S
C84 H110 0.930 . S
C85 C80 1.479 . S
C85 C84 1.405 . S
C85 H111 0.931 . S
U86 O87 2.454 . S
U86 O88 2.458 . S
U86 C89 2.984 . S
U86 C90 2.847 . S
U86 C103 2.882 . S
U86 O104 2.441 . S
U86 O105 2.420 . S
U86 O106 2.455 . S
U86 O107 2.448 . S
O87 U86 2.454 . S
O87 C89 1.353 . S
O88 U86 2.458 . S
O88 C89 1.286 . S
C89 U86 2.984 . S
C89 O87 1.353 . S
C89 O88 1.286 . S
C89 C91 1.363 . S
C90 C80 1.465 1_554 S
C90 U86 2.847 . S
C90 O104 1.249 . S
C90 O105 1.202 . S
C91 C89 1.363 . S
C91 C93 1.408 . S
C91 C96 1.342 . S
C92 C93 1.310 . S
C92 C95 1.461 . S
C92 H112 0.922 1_554 S
C93 C91 1.408 . S
C93 C92 1.310 . S
C93 H113 0.930 . S
C94 C95 1.474 . S
C94 C96 1.285 . S
C94 H114 0.929 . S
C95 C92 1.461 . S
C95 C94 1.474 . S
C96 C91 1.342 . S
C96 C94 1.285 . S
C96 H115 0.930 . S
C97 C100 1.424 . S
C97 C102 1.245 . S
C97 C103 1.428 1_455 S
C98 C101 1.260 . S
C98 C102 1.477 . S
C98 H116 0.932 . S
C99 C100 1.384 . S
C99 C101 1.479 . S
C99 H117 0.929 . S
C100 C97 1.424 . S
C100 C99 1.384 . S
C100 H118 0.928 . S
C101 C98 1.260 . S
C101 C99 1.479 . S
C102 C97 1.245 . S
C102 C98 1.477 . S
C102 H119 0.932 1_455 S
C103 U86 2.882 . S
C103 C97 1.428 1_655 S
C103 O106 1.301 . S
C103 O107 1.282 . S
O104 U86 2.441 . S
O104 C90 1.249 . S
O105 U86 2.420 . S
O105 C90 1.202 . S
O106 U86 2.455 . S
O106 C103 1.301 . S
O107 U86 2.448 . S
O107 C103 1.282 . S
H108 C81 0.931 1_454 S
H109 C83 0.929 1_455 S
H110 C84 0.930 . S
H111 C85 0.931 . S
H112 C92 0.922 1_556 S
H113 C93 0.930 . S
H114 C94 0.929 . S
H115 C96 0.930 . S
H116 C98 0.932 . S
H117 C99 0.929 . S
H118 C100 0.928 . S
H119 C102 0.932 1_655 S
C120 C121 1.264 . S
C120 C125 1.479 . S
C120 C130 1.465 . S
C121 C120 1.264 . S
C121 C123 1.339 . S
C121 H148 0.931 . S
C122 C123 1.395 . S
C122 C124 1.320 . S
C123 C121 1.339 . S
C123 C122 1.395 . S
C123 H149 0.929 . S
C124 C122 1.320 . S
C124 C125 1.405 . S
C124 H150 0.930 . S
C125 C120 1.479 . S
C125 C124 1.405 . S
C125 H151 0.931 . S
U126 O127 2.454 . S
U126 O128 2.458 . S
U126 C129 2.984 . S
U126 C130 2.847 . S
U126 C143 2.882 . S
U126 O144 2.441 . S
U126 O145 2.420 . S
U126 O146 2.455 . S
U126 O147 2.449 . S
O127 U126 2.454 . S
O127 C129 1.353 . S
O128 U126 2.458 . S
O128 C129 1.286 . S
C129 U126 2.984 . S
C129 O127 1.353 . S
C129 O128 1.286 . S
C129 C131 1.363 . S
C130 C120 1.465 . S
C130 U126 2.847 . S
C130 O144 1.249 . S
C130 O145 1.202 . S
C131 C129 1.363 . S
C131 C133 1.408 . S
C131 C136 1.342 . S
C132 C133 1.310 . S
C132 C135 1.461 . S
C132 H152 0.932 . S
C133 C131 1.408 . S
C133 C132 1.310 . S
C133 H153 0.930 . S
C134 C135 1.474 . S
C134 C136 1.285 . S
C134 H154 0.929 . S
C135 C132 1.461 . S
C135 C134 1.474 . S
C136 C131 1.342 . S
C136 C134 1.285 . S
C136 H155 0.930 . S
C137 C140 1.424 . S
C137 C142 1.245 . S
C137 C143 1.428 . S
C138 C141 1.260 . S
C138 C142 1.477 . S
C138 H156 0.932 . S
C139 C140 1.384 . S
C139 C141 1.479 . S
C139 H157 0.929 . S
C140 C137 1.424 . S
C140 C139 1.384 . S
C140 H158 0.928 . S
C141 C138 1.260 . S
C141 C139 1.479 . S
C142 C137 1.245 . S
C142 C138 1.477 . S
C142 H159 0.932 . S
C143 U126 2.882 . S
C143 C137 1.428 . S
C143 O146 1.301 . S
C143 O147 1.282 . S
O144 U126 2.441 . S
O144 C130 1.249 . S
O145 U126 2.420 . S
O145 C130 1.202 . S
O146 U126 2.455 . S
O146 C143 1.301 . S
O147 U126 2.449 . S
O147 C143 1.282 . S
H148 C121 0.931 . S
H149 C123 0.929 . S
H150 C124 0.930 . S
H151 C125 0.931 . S
H152 C132 0.932 . S
H153 C133 0.930 . S
H154 C134 0.929 . S
H155 C136 0.930 . S
H156 C138 0.932 . S
H157 C139 0.929 . S
H158 C140 0.928 . S
H159 C142 0.932 . S
C160 C161 1.254 1_665 S
C160 C165 1.479 . S
C160 C170 1.465 1_655 S
C161 C160 1.254 1_445 S
C161 C163 1.316 1_455 S
C161 H188 0.967 . S
C162 C163 1.395 1_565 S
C162 C164 1.320 . S
C163 C161 1.316 1_655 S
C163 C162 1.395 1_545 S
C163 H189 0.929 . S
C164 C162 1.320 . S
C164 C165 1.405 . S
C164 H190 0.930 . S
C165 C160 1.479 . S
C165 C164 1.405 . S
C165 H191 0.931 . S
U166 O167 2.454 . S
U166 O168 2.458 . S
U166 C169 2.984 . S
U166 C170 2.847 . S
U166 C183 2.882 1_565 S
U166 O184 2.441 . S
U166 O185 2.420 . S
U166 O186 2.455 . S
U166 O187 2.449 1_565 S
O167 U166 2.454 . S
O167 C169 1.353 . S
O168 U166 2.458 . S
O168 C169 1.286 . S
C169 U166 2.984 . S
C169 O167 1.353 . S
C169 O168 1.286 . S
C169 C171 1.363 . S
C170 C160 1.465 1_455 S
C170 U166 2.847 . S
C170 O184 1.249 . S
C170 O185 1.202 . S
C171 C169 1.363 . S
C171 C173 1.408 . S
C171 C176 1.342 . S
C172 C173 1.310 . S
C172 C175 1.461 . S
C172 H192 0.932 . S
C173 C171 1.408 . S
C173 C172 1.310 . S
C173 H193 0.930 . S
C174 C175 1.474 . S
C174 C176 1.285 . S
C174 H194 0.929 . S
C175 C172 1.461 . S
C175 C174 1.474 . S
C176 C171 1.342 . S
C176 C174 1.285 . S
C176 H195 0.930 . S
C177 C180 1.424 . S
C177 C182 1.245 . S
C177 C183 1.428 . S
C178 C181 1.260 . S
C178 C182 1.477 . S
C178 H196 0.932 . S
C179 C180 1.384 . S
C179 C181 1.479 . S
C179 H197 0.929 . S
C180 C177 1.424 . S
C180 C179 1.384 . S
C180 H198 0.928 . S
C181 C178 1.260 . S
C181 C179 1.479 . S
C182 C177 1.245 . S
C182 C178 1.477 . S
C182 H199 0.912 1_545 S
C183 U166 2.882 1_545 S
C183 C177 1.428 . S
C183 O186 1.301 1_545 S
C183 O187 1.282 . S
O184 U166 2.441 . S
O184 C170 1.249 . S
O185 U166 2.420 . S
O185 C170 1.202 . S
O186 U166 2.455 . S
O186 C183 1.301 1_565 S
O187 U166 2.449 1_545 S
O187 C183 1.282 . S
H188 C161 0.967 . S
H189 C163 0.929 . S
H190 C164 0.930 . S
H191 C165 0.931 . S
H192 C172 0.932 . S
H193 C173 0.930 . S
H194 C174 0.929 . S
H195 C176 0.930 . S
H196 C178 0.932 . S
H197 C179 0.929 . S
H198 C180 0.928 . S
H199 C182 0.912 1_565 S
C200 C201 1.264 . S
C200 C205 1.479 . S
C200 C210 1.465 . S
C201 C200 1.264 . S
C201 C203 1.339 . S
C201 H228 0.931 . S
C202 C203 1.395 . S
C202 C204 1.320 . S
C203 C201 1.339 . S
C203 C202 1.395 . S
C203 H229 0.929 . S
C204 C202 1.320 . S
C204 C205 1.405 . S
C204 H230 0.930 . S
C205 C200 1.479 . S
C205 C204 1.405 . S
C205 H231 0.931 . S
U206 O207 2.454 . S
U206 O208 2.458 . S
U206 C209 2.984 . S
U206 C210 2.847 . S
U206 C223 2.882 . S
U206 O224 2.441 . S
U206 O225 2.420 . S
U206 O226 2.455 . S
U206 O227 2.449 . S
O207 U206 2.454 . S
O207 C209 1.353 . S
O208 U206 2.458 . S
O208 C209 1.286 . S
C209 U206 2.984 . S
C209 O207 1.353 . S
C209 O208 1.286 . S
C209 C211 1.363 . S
C210 C200 1.465 . S
C210 U206 2.847 . S
C210 O224 1.249 . S
C210 O225 1.202 . S
C211 C209 1.363 . S
C211 C213 1.408 . S
C211 C216 1.342 . S
C212 C213 1.310 . S
C212 C215 1.461 . S
C212 H232 0.932 . S
C213 C211 1.408 . S
C213 C212 1.310 . S
C213 H233 0.930 . S
C214 C215 1.474 . S
C214 C216 1.285 . S
C214 H234 0.929 . S
C215 C212 1.461 . S
C215 C214 1.474 . S
C216 C211 1.342 . S
C216 C214 1.285 . S
C216 H235 0.930 . S
C217 C220 1.424 . S
C217 C222 1.245 . S
C217 C223 1.428 . S
C218 C221 1.260 . S
C218 C222 1.477 . S
C218 H236 0.932 . S
C219 C220 1.384 . S
C219 C221 1.479 . S
C219 H237 0.929 . S
C220 C217 1.424 . S
C220 C219 1.384 . S
C220 H238 0.928 . S
C221 C218 1.260 . S
C221 C219 1.479 . S
C222 C217 1.245 . S
C222 C218 1.477 . S
C222 H239 0.932 . S
C223 U206 2.882 . S
C223 C217 1.428 . S
C223 O226 1.301 . S
C223 O227 1.282 . S
O224 U206 2.441 . S
O224 C210 1.249 . S
O225 U206 2.420 . S
O225 C210 1.202 . S
O226 U206 2.455 . S
O226 C223 1.301 . S
O227 U206 2.449 . S
O227 C223 1.282 . S
H228 C201 0.931 . S
H229 C203 0.929 . S
H230 C204 0.930 . S
H231 C205 0.931 . S
H232 C212 0.932 . S
H233 C213 0.930 . S
H234 C214 0.929 . S
H235 C216 0.930 . S
H236 C218 0.932 . S
H237 C219 0.929 . S
H238 C220 0.928 . S
H239 C222 0.932 . S
C240 C241 1.264 . S
C240 C245 1.479 . S
C240 C250 1.465 . S
C241 C240 1.264 . S
C241 C243 1.339 . S
C241 H268 0.931 1_655 S
C242 C243 1.395 . S
C242 C244 1.320 . S
C243 C241 1.339 . S
C243 C242 1.395 . S
C243 H269 0.929 1_655 S
C244 C242 1.320 . S
C244 C245 1.405 . S
C244 H270 0.930 . S
C245 C240 1.479 . S
C245 C244 1.405 . S
C245 H271 0.931 . S
U246 O247 2.454 . S
U246 O248 2.458 . S
U246 C249 2.984 . S
U246 C250 2.847 . S
U246 C263 2.882 . S
U246 O264 2.441 . S
U246 O265 2.420 . S
U246 O266 2.455 . S
U246 O267 2.449 . S
O247 U246 2.454 . S
O247 C249 1.353 . S
O248 U246 2.458 . S
O248 C249 1.286 . S
C249 U246 2.984 . S
C249 O247 1.353 . S
C249 O248 1.286 . S
C249 C251 1.363 . S
C250 C240 1.465 . S
C250 U246 2.847 . S
C250 O264 1.249 . S
C250 O265 1.202 . S
C251 C249 1.363 . S
C251 C253 1.408 . S
C251 C256 1.342 . S
C252 C253 1.310 . S
C252 C255 1.461 . S
C252 H272 0.932 . S
C253 C251 1.408 . S
C253 C252 1.310 . S
C253 H273 0.930 . S
C254 C255 1.474 . S
C254 C256 1.285 . S
C254 H274 0.929 . S
C255 C252 1.461 . S
C255 C254 1.474 . S
C256 C251 1.342 . S
C256 C254 1.285 . S
C256 H275 0.930 . S
C257 C260 1.424 . S
C257 C262 1.259 . S
C257 C263 1.428 1_455 S
C258 C261 1.260 . S
C258 C262 1.517 . S
C258 H276 0.932 . S
C259 C260 1.384 . S
C259 C261 1.479 . S
C259 H277 0.929 . S
C260 C257 1.424 . S
C260 C259 1.384 . S
C260 H278 0.928 . S
C261 C258 1.260 . S
C261 C259 1.479 . S
C262 C257 1.259 . S
C262 C258 1.517 . S
C262 H279 0.885 1_455 S
C263 U246 2.882 . S
C263 C257 1.428 1_655 S
C263 O266 1.301 . S
C263 O267 1.282 . S
O264 U246 2.441 . S
O264 C250 1.249 . S
O265 U246 2.420 . S
O265 C250 1.202 . S
O266 U246 2.455 . S
O266 C263 1.301 . S
O267 U246 2.449 . S
O267 C263 1.282 . S
H268 C241 0.931 1_455 S
H269 C243 0.929 1_455 S
H270 C244 0.930 . S
H271 C245 0.931 . S
H272 C252 0.932 . S
H273 C253 0.930 . S
H274 C254 0.929 . S
H275 C256 0.930 . S
H276 C258 0.932 . S
H277 C259 0.929 . S
H278 C260 0.928 . S
H279 C262 0.885 1_655 S
C280 C281 1.264 . S
C280 C285 1.479 . S
C280 C290 1.465 . S
C281 C280 1.264 . S
C281 C283 1.339 . S
C281 H308 0.931 . S
C282 C283 1.395 . S
C282 C284 1.320 . S
C283 C281 1.339 . S
C283 C282 1.395 . S
C283 H309 0.929 . S
C284 C282 1.320 . S
C284 C285 1.405 . S
C284 H310 0.930 . S
C285 C280 1.479 . S
C285 C284 1.405 . S
C285 H311 0.931 . S
U286 O287 2.454 . S
U286 O288 2.458 . S
U286 C289 2.984 . S
U286 C290 2.847 . S
U286 C303 2.882 . S
U286 O304 2.441 . S
U286 O305 2.420 . S
U286 O306 2.455 . S
U286 O307 2.449 . S
O287 U286 2.454 . S
O287 C289 1.353 . S
O288 U286 2.458 . S
O288 C289 1.286 . S
C289 U286 2.984 . S
C289 O287 1.353 . S
C289 O288 1.286 . S
C289 C291 1.363 . S
C290 C280 1.465 . S
C290 U286 2.847 . S
C290 O304 1.249 . S
C290 O305 1.202 . S
C291 C289 1.363 . S
C291 C293 1.408 . S
C291 C296 1.342 . S
C292 C293 1.310 . S
C292 C295 1.461 . S
C292 H312 0.932 . S
C293 C291 1.408 . S
C293 C292 1.310 . S
C293 H313 0.930 . S
C294 C295 1.474 . S
C294 C296 1.285 . S
C294 H314 0.929 . S
C295 C292 1.461 . S
C295 C294 1.474 . S
C296 C291 1.342 . S
C296 C294 1.285 . S
C296 H315 0.930 . S
C297 C300 1.424 . S
C297 C302 1.245 . S
C297 C303 1.428 . S
C298 C301 1.260 . S
C298 C302 1.477 . S
C298 H316 0.932 . S
C299 C300 1.384 . S
C299 C301 1.479 . S
C299 H317 0.929 . S
C300 C297 1.424 . S
C300 C299 1.384 . S
C300 H318 0.928 . S
C301 C298 1.260 . S
C301 C299 1.479 . S
C302 C297 1.245 . S
C302 C298 1.477 . S
C302 H319 0.932 . S
C303 U286 2.882 . S
C303 C297 1.428 . S
C303 O306 1.301 . S
C303 O307 1.282 . S
O304 U286 2.441 . S
O304 C290 1.249 . S
O305 U286 2.420 . S
O305 C290 1.202 . S
O306 U286 2.455 . S
O306 C303 1.301 . S
O307 U286 2.449 . S
O307 C303 1.282 . S
H308 C281 0.931 . S
H309 C283 0.929 . S
H310 C284 0.930 . S
H311 C285 0.931 . S
H312 C292 0.932 . S
H313 C293 0.930 . S
H314 C294 0.929 . S
H315 C296 0.930 . S
H316 C298 0.932 . S
H317 C299 0.929 . S
H318 C300 0.928 . S
H319 C302 0.932 . S
C320 C321 1.264 . S
C320 C325 1.479 . S
C320 C330 1.465 . S
C321 C320 1.264 . S
C321 C323 1.339 . S
C321 H348 0.931 . S
C322 C323 1.395 . S
C322 C324 1.320 . S
C323 C321 1.339 . S
C323 C322 1.395 . S
C323 H349 0.929 . S
C324 C322 1.320 . S
C324 C325 1.405 . S
C324 H350 0.930 . S
C325 C320 1.479 . S
C325 C324 1.405 . S
C325 H351 0.931 . S
U326 O327 2.454 . S
U326 O328 2.458 . S
U326 C329 2.984 . S
U326 C330 2.847 . S
U326 C343 2.882 . S
U326 O344 2.441 . S
U326 O345 2.420 . S
U326 O346 2.455 . S
U326 O347 2.449 . S
O327 U326 2.454 . S
O327 C329 1.353 . S
O328 U326 2.458 . S
O328 C329 1.286 . S
C329 U326 2.984 . S
C329 O327 1.353 . S
C329 O328 1.286 . S
C329 C331 1.363 . S
C330 C320 1.465 . S
C330 U326 2.847 . S
C330 O344 1.249 . S
C330 O345 1.202 . S
C331 C329 1.363 . S
C331 C333 1.408 . S
C331 C336 1.342 . S
C332 C333 1.310 . S
C332 C335 1.461 . S
C332 H352 0.932 . S
C333 C331 1.408 . S
C333 C332 1.310 . S
C333 H353 0.930 . S
C334 C335 1.474 . S
C334 C336 1.285 . S
C334 H354 0.929 . S
C335 C332 1.461 . S
C335 C334 1.474 . S
C336 C331 1.342 . S
C336 C334 1.285 . S
C336 H355 0.930 . S
C337 C340 1.424 . S
C337 C342 1.245 . S
C337 C343 1.428 . S
C338 C341 1.260 . S
C338 C342 1.477 . S
C338 H356 0.932 . S
C339 C340 1.384 . S
C339 C341 1.479 . S
C339 H357 0.929 . S
C340 C337 1.424 . S
C340 C339 1.384 . S
C340 H358 0.928 . S
C341 C338 1.260 . S
C341 C339 1.479 . S
C342 C337 1.245 . S
C342 C338 1.477 . S
C342 H359 0.932 . S
C343 U326 2.882 . S
C343 C337 1.428 . S
C343 O346 1.301 . S
C343 O347 1.282 . S
O344 U326 2.441 . S
O344 C330 1.249 . S
O345 U326 2.420 . S
O345 C330 1.202 . S
O346 U326 2.455 . S
O346 C343 1.301 . S
O347 U326 2.449 . S
O347 C343 1.282 . S
H348 C321 0.931 . S
H349 C323 0.929 . S
H350 C324 0.930 . S
H351 C325 0.931 . S
H352 C332 0.932 . S
H353 C333 0.930 . S
H354 C334 0.929 . S
H355 C336 0.930 . S
H356 C338 0.932 . S
H357 C339 0.929 . S
H358 C340 0.928 . S
H359 C342 0.932 . S
C360 C361 1.264 . S
C360 C365 1.479 . S
C360 C370 1.465 . S
C361 C360 1.264 . S
C361 C363 1.339 . S
C361 H388 0.931 . S
C362 C363 1.395 . S
C362 C364 1.320 . S
C363 C361 1.339 . S
C363 C362 1.395 . S
C363 H389 0.929 . S
C364 C362 1.320 . S
C364 C365 1.405 . S
C364 H390 0.930 . S
C365 C360 1.479 . S
C365 C364 1.405 . S
C365 H391 0.931 . S
U366 O367 2.454 . S
U366 O368 2.458 . S
U366 C369 2.984 . S
U366 C370 2.847 . S
U366 C383 2.882 . S
U366 O384 2.441 . S
U366 O385 2.420 . S
U366 O386 2.455 . S
U366 O387 2.449 . S
O367 U366 2.454 . S
O367 C369 1.353 . S
O368 U366 2.458 . S
O368 C369 1.286 . S
C369 U366 2.984 . S
C369 O367 1.353 . S
C369 O368 1.286 . S
C369 C371 1.363 1_565 S
C370 C360 1.465 . S
C370 U366 2.847 . S
C370 O384 1.249 . S
C370 O385 1.202 . S
C371 C369 1.363 1_545 S
C371 C373 1.408 . S
C371 C376 1.342 . S
C372 C373 1.310 . S
C372 C375 1.461 . S
C372 H392 0.932 . S
C373 C371 1.408 . S
C373 C372 1.310 . S
C373 H393 0.930 1_545 S
C374 C375 1.474 . S
C374 C376 1.285 . S
C374 H394 0.929 . S
C375 C372 1.461 . S
C375 C374 1.474 . S
C376 C371 1.342 . S
C376 C374 1.285 . S
C376 H395 0.930 . S
C377 C380 1.424 . S
C377 C382 1.245 . S
C377 C383 1.428 . S
C378 C381 1.260 . S
C378 C382 1.477 . S
C378 H396 0.932 1_565 S
C379 C380 1.384 . S
C379 C381 1.479 . S
C379 H397 0.929 . S
C380 C377 1.424 . S
C380 C379 1.384 . S
C380 H398 0.928 . S
C381 C378 1.260 . S
C381 C379 1.479 . S
C382 C377 1.245 . S
C382 C378 1.477 . S
C382 H399 0.932 1_565 S
C383 U366 2.882 . S
C383 C377 1.428 . S
C383 O386 1.301 . S
C383 O387 1.282 . S
O384 U366 2.441 . S
O384 C370 1.249 . S
O385 U366 2.420 . S
O385 C370 1.202 . S
O386 U366 2.455 . S
O386 C383 1.301 . S
O387 U366 2.449 . S
O387 C383 1.282 . S
H388 C361 0.931 . S
H389 C363 0.929 . S
H390 C364 0.930 . S
H391 C365 0.931 . S
H392 C372 0.932 . S
H393 C373 0.930 1_565 S
H394 C374 0.929 . S
H395 C376 0.930 . S
H396 C378 0.932 1_545 S
H397 C379 0.929 . S
H398 C380 0.928 . S
H399 C382 0.932 1_545 S
C400 C401 1.264 . S
C400 C405 1.479 . S
C400 C410 1.465 . S
C401 C400 1.264 . S
C401 C403 1.339 . S
C401 H428 0.931 . S
C402 C403 1.395 . S
C402 C404 1.320 . S
C403 C401 1.339 . S
C403 C402 1.395 . S
C403 H429 0.929 . S
C404 C402 1.320 . S
C404 C405 1.405 . S
C404 H430 0.930 . S
C405 C400 1.479 . S
C405 C404 1.405 . S
C405 H431 0.931 . S
U406 O407 2.454 . S
U406 O408 2.458 . S
U406 C409 2.984 . S
U406 C410 2.847 . S
U406 C423 2.882 . S
U406 O424 2.441 . S
U406 O425 2.420 . S
U406 O426 2.455 . S
U406 O427 2.449 . S
O407 U406 2.454 . S
O407 C409 1.353 . S
O408 U406 2.458 . S
O408 C409 1.286 . S
C409 U406 2.984 . S
C409 O407 1.353 . S
C409 O408 1.286 . S
C409 C411 1.363 . S
C410 C400 1.465 . S
C410 U406 2.847 . S
C410 O424 1.249 . S
C410 O425 1.202 . S
C411 C409 1.363 . S
C411 C413 1.408 . S
C411 C416 1.342 . S
C412 C413 1.310 . S
C412 C415 1.461 . S
C412 H432 0.932 . S
C413 C411 1.408 . S
C413 C412 1.310 . S
C413 H433 0.930 . S
C414 C415 1.474 . S
C414 C416 1.285 . S
C414 H434 0.929 . S
C415 C412 1.461 . S
C415 C414 1.474 . S
C416 C411 1.342 . S
C416 C414 1.285 . S
C416 H435 0.930 . S
C417 C420 1.424 . S
C417 C422 1.245 . S
C417 C423 1.428 . S
C418 C421 1.260 . S
C418 C422 1.477 . S
C418 H436 0.932 . S
C419 C420 1.384 . S
C419 C421 1.479 . S
C419 H437 0.929 . S
C420 C417 1.424 . S
C420 C419 1.384 . S
C420 H438 0.928 . S
C421 C418 1.260 . S
C421 C419 1.479 . S
C422 C417 1.245 . S
C422 C418 1.477 . S
C422 H439 0.932 . S
C423 U406 2.882 . S
C423 C417 1.428 . S
C423 O426 1.301 . S
C423 O427 1.282 . S
O424 U406 2.441 . S
O424 C410 1.249 . S
O425 U406 2.420 . S
O425 C410 1.202 . S
O426 U406 2.455 . S
O426 C423 1.301 . S
O427 U406 2.449 . S
O427 C423 1.282 . S
H428 C401 0.931 . S
H429 C403 0.929 . S
H430 C404 0.930 . S
H431 C405 0.931 . S
H432 C412 0.932 . S
H433 C413 0.930 . S
H434 C414 0.929 . S
H435 C416 0.930 . S
H436 C418 0.932 . S
H437 C419 0.929 . S
H438 C420 0.928 . S
H439 C422 0.932 . S
C440 C441 1.264 . S
C440 C445 1.479 . S
C440 C450 1.465 . S
C441 C440 1.264 . S
C441 C443 1.339 . S
C441 H468 0.931 . S
C442 C443 1.395 . S
C442 C444 1.320 . S
C443 C441 1.339 . S
C443 C442 1.395 . S
C443 H469 0.929 . S
C444 C442 1.320 . S
C444 C445 1.405 . S
C444 H470 0.930 . S
C445 C440 1.479 . S
C445 C444 1.405 . S
C445 H471 0.931 . S
U446 O447 2.454 . S
U446 O448 2.458 . S
U446 C449 2.984 . S
U446 C450 2.847 . S
U446 C463 2.882 . S
U446 O464 2.441 . S
U446 O465 2.420 . S
U446 O466 2.455 . S
U446 O467 2.449 . S
O447 U446 2.454 . S
O447 C449 1.353 . S
O448 U446 2.458 . S
O448 C449 1.286 . S
C449 U446 2.984 . S
C449 O447 1.353 . S
C449 O448 1.286 . S
C449 C451 1.363 . S
C450 C440 1.465 . S
C450 U446 2.847 . S
C450 O464 1.249 . S
C450 O465 1.202 . S
C451 C449 1.363 . S
C451 C453 1.408 . S
C451 C456 1.342 . S
C452 C453 1.310 . S
C452 C455 1.461 . S
C452 H472 0.932 . S
C453 C451 1.408 . S
C453 C452 1.310 . S
C453 H473 0.930 . S
C454 C455 1.474 . S
C454 C456 1.285 . S
C454 H474 0.929 . S
C455 C452 1.461 . S
C455 C454 1.474 . S
C456 C451 1.342 . S
C456 C454 1.285 . S
C456 H475 0.930 . S
C457 C460 1.424 . S
C457 C462 1.245 . S
C457 C463 1.428 . S
C458 C461 1.260 . S
C458 C462 1.477 . S
C458 H476 0.932 . S
C459 C460 1.384 . S
C459 C461 1.479 . S
C459 H477 0.929 . S
C460 C457 1.424 . S
C460 C459 1.384 . S
C460 H478 0.928 . S
C461 C458 1.260 . S
C461 C459 1.479 . S
C462 C457 1.245 . S
C462 C458 1.477 . S
C462 H479 0.932 . S
C463 U446 2.882 . S
C463 C457 1.428 . S
C463 O466 1.301 . S
C463 O467 1.282 . S
O464 U446 2.441 . S
O464 C450 1.249 . S
O465 U446 2.420 . S
O465 C450 1.202 . S
O466 U446 2.455 . S
O466 C463 1.301 . S
O467 U446 2.449 . S
O467 C463 1.282 . S
H468 C441 0.931 . S
H469 C443 0.929 . S
H470 C444 0.930 . S
H471 C445 0.931 . S
H472 C452 0.932 . S
H473 C453 0.930 . S
H474 C454 0.929 . S
H475 C456 0.930 . S
H476 C458 0.932 . S
H477 C459 0.929 . S
H478 C460 0.928 . S
H479 C462 0.932 . S
C480 C481 1.264 . S
C480 C485 1.479 . S
C480 C490 1.465 . S
C481 C480 1.264 . S
C481 C483 1.339 . S
C481 H508 0.931 . S
C482 C483 1.395 . S
C482 C484 1.320 . S
C483 C481 1.339 . S
C483 C482 1.395 . S
C483 H509 0.929 . S
C484 C482 1.320 . S
C484 C485 1.405 . S
C484 H510 0.930 . S
C485 C480 1.479 . S
C485 C484 1.405 . S
C485 H511 0.931 . S
U486 O487 2.454 . S
U486 O488 2.458 . S
U486 C489 2.984 . S
U486 C490 2.847 . S
U486 C503 2.882 . S
U486 O504 2.441 . S
U486 O505 2.420 . S
U486 O506 2.455 . S
U486 O507 2.449 . S
O487 U486 2.454 . S
O487 C489 1.353 . S
O488 U486 2.458 . S
O488 C489 1.286 . S
C489 U486 2.984 . S
C489 O487 1.353 . S
C489 O488 1.286 . S
C489 C491 1.363 . S
C490 C480 1.465 . S
C490 U486 2.847 . S
C490 O504 1.249 . S
C490 O505 1.202 . S
C491 C489 1.363 . S
C491 C493 1.408 . S
C491 C496 1.342 . S
C492 C493 1.310 . S
C492 C495 1.461 . S
C492 H512 0.932 . S
C493 C491 1.408 . S
C493 C492 1.310 . S
C493 H513 0.930 . S
C494 C495 1.474 . S
C494 C496 1.285 . S
C494 H514 0.929 . S
C495 C492 1.461 . S
C495 C494 1.474 . S
C496 C491 1.342 . S
C496 C494 1.285 . S
C496 H515 0.930 . S
C497 C500 1.424 . S
C497 C502 1.245 . S
C497 C503 1.428 . S
C498 C501 1.260 . S
C498 C502 1.477 . S
C498 H516 0.932 . S
C499 C500 1.384 . S
C499 C501 1.479 . S
C499 H517 0.929 . S
C500 C497 1.424 . S
C500 C499 1.384 . S
C500 H518 0.928 . S
C501 C498 1.260 . S
C501 C499 1.479 . S
C502 C497 1.245 . S
C502 C498 1.477 . S
C502 H519 0.932 . S
C503 U486 2.882 . S
C503 C497 1.428 . S
C503 O506 1.301 . S
C503 O507 1.282 . S
O504 U486 2.441 . S
O504 C490 1.249 . S
O505 U486 2.420 . S
O505 C490 1.202 . S
O506 U486 2.455 . S
O506 C503 1.301 . S
O507 U486 2.449 . S
O507 C503 1.282 . S
H508 C481 0.931 . S
H509 C483 0.929 . S
H510 C484 0.930 . S
H511 C485 0.931 . S
H512 C492 0.932 . S
H513 C493 0.930 . S
H514 C494 0.929 . S
H515 C496 0.930 . S
H516 C498 0.932 . S
H517 C499 0.929 . S
H518 C500 0.928 . S
H519 C502 0.932 . S
C520 C521 1.264 . S
C520 C525 1.479 . S
C520 C530 1.465 . S
C521 C520 1.264 . S
C521 C523 1.339 . S
C521 H548 0.931 . S
C522 C523 1.395 . S
C522 C524 1.320 . S
C523 C521 1.339 . S
C523 C522 1.395 . S
C523 H549 0.929 . S
C524 C522 1.320 . S
C524 C525 1.405 . S
C524 H550 0.930 . S
C525 C520 1.479 . S
C525 C524 1.405 . S
C525 H551 0.931 . S
U526 O527 2.454 . S
U526 O528 2.458 . S
U526 C529 2.984 . S
U526 C530 2.847 . S
U526 C543 2.882 . S
U526 O544 2.441 . S
U526 O545 2.420 . S
U526 O546 2.455 . S
U526 O547 2.449 . S
O527 U526 2.454 . S
O527 C529 1.353 . S
O528 U526 2.458 . S
O528 C529 1.286 . S
C529 U526 2.984 . S
C529 O527 1.353 . S
C529 O528 1.286 . S
C529 C531 1.345 1_556 S
C530 C520 1.465 . S
C530 U526 2.847 . S
C530 O544 1.249 . S
C530 O545 1.202 . S
C531 C529 1.345 1_554 S
C531 C533 1.404 1_554 S
C531 C536 1.364 . S
C532 C533 1.310 1_554 S
C532 C535 1.461 . S
C532 H552 0.932 . S
C533 C531 1.404 1_556 S
C533 C532 1.310 1_556 S
C533 H553 0.930 . S
C534 C535 1.474 . S
C534 C536 1.285 . S
C534 H554 0.929 . S
C535 C532 1.461 . S
C535 C534 1.474 . S
C536 C531 1.364 . S
C536 C534 1.285 . S
C536 H555 0.930 . S
C537 C540 1.424 . S
C537 C542 1.245 . S
C537 C543 1.428 . S
C538 C541 1.260 . S
C538 C542 1.477 . S
C538 H556 0.932 . S
C539 C540 1.384 . S
C539 C541 1.479 . S
C539 H557 0.929 . S
C540 C537 1.424 . S
C540 C539 1.384 . S
C540 H558 0.928 . S
C541 C538 1.260 . S
C541 C539 1.479 . S
C542 C537 1.245 . S
C542 C538 1.477 . S
C542 H559 0.932 . S
C543 U526 2.882 . S
C543 C537 1.428 . S
C543 O546 1.301 . S
C543 O547 1.282 . S
O544 U526 2.441 . S
O544 C530 1.249 . S
O545 U526 2.420 . S
O545 C530 1.202 . S
O546 U526 2.455 . S
O546 C543 1.301 . S
O547 U526 2.449 . S
O547 C543 1.282 . S
H548 C521 0.931 . S
H549 C523 0.929 . S
H550 C524 0.930 . S
H551 C525 0.931 . S
H552 C532 0.932 . S
H553 C533 0.930 . S
H554 C534 0.929 . S
H555 C536 0.930 . S
H556 C538 0.932 . S
H557 C539 0.929 . S
H558 C540 0.928 . S
H559 C542 0.932 . S
C560 C561 1.264 . S
C560 C565 1.479 . S
C560 C570 1.465 . S
C561 C560 1.264 . S
C561 C563 1.339 . S
C561 H588 0.931 . S
C562 C563 1.395 . S
C562 C564 1.320 . S
C563 C561 1.339 . S
C563 C562 1.395 . S
C563 H589 0.929 . S
C564 C562 1.320 . S
C564 C565 1.405 . S
C564 H590 0.930 . S
C565 C560 1.479 . S
C565 C564 1.405 . S
C565 H591 0.931 . S
U566 O567 2.454 . S
U566 O568 2.458 . S
U566 C569 2.984 . S
U566 C570 2.847 . S
U566 C583 2.882 . S
U566 O584 2.441 . S
U566 O585 2.420 . S
U566 O586 2.455 . S
U566 O587 2.449 . S
O567 U566 2.454 . S
O567 C569 1.353 . S
O568 U566 2.458 . S
O568 C569 1.286 . S
C569 U566 2.984 . S
C569 O567 1.353 . S
C569 O568 1.286 . S
C569 C571 1.363 . S
C570 C560 1.465 . S
C570 U566 2.847 . S
C570 O584 1.249 . S
C570 O585 1.202 . S
C571 C569 1.363 . S
C571 C573 1.408 . S
C571 C576 1.342 . S
C572 C573 1.310 . S
C572 C575 1.461 . S
C572 H592 0.932 . S
C573 C571 1.408 . S
C573 C572 1.310 . S
C573 H593 0.930 . S
C574 C575 1.474 . S
C574 C576 1.285 . S
C574 H594 0.929 . S
C575 C572 1.461 . S
C575 C574 1.474 . S
C576 C571 1.342 . S
C576 C574 1.285 . S
C576 H595 0.930 . S
C577 C580 1.424 . S
C577 C582 1.245 . S
C577 C583 1.428 . S
C578 C581 1.260 . S
C578 C582 1.477 . S
C578 H596 0.932 . S
C579 C580 1.384 . S
C579 C581 1.479 . S
C579 H597 0.929 . S
C580 C577 1.424 . S
C580 C579 1.384 . S
C580 H598 0.928 . S
C581 C578 1.260 . S
C581 C579 1.479 . S
C582 C577 1.245 . S
C582 C578 1.477 . S
C582 H599 0.932 . S
C583 U566 2.882 . S
C583 C577 1.428 . S
C583 O586 1.301 . S
C583 O587 1.282 . S
O584 U566 2.441 . S
O584 C570 1.249 . S
O585 U566 2.420 . S
O585 C570 1.202 . S
O586 U566 2.455 . S
O586 C583 1.301 . S
O587 U566 2.449 . S
O587 C583 1.282 . S
H588 C561 0.931 . S
H589 C563 0.929 . S
H590 C564 0.930 . S
H591 C565 0.931 . S
H592 C572 0.932 . S
H593 C573 0.930 . S
H594 C574 0.929 . S
H595 C576 0.930 . S
H596 C578 0.932 . S
H597 C579 0.929 . S
H598 C580 0.928 . S
H599 C582 0.932 . S
C600 C601 1.264 . S
C600 C605 1.479 . S
C600 C610 1.465 . S
C601 C600 1.264 . S
C601 C603 1.339 . S
C601 H628 0.931 1_554 S
C602 C603 1.395 . S
C602 C604 1.320 . S
C603 C601 1.339 . S
C603 C602 1.395 . S
C603 H629 0.929 . S
C604 C602 1.320 . S
C604 C605 1.405 . S
C604 H630 0.930 . S
C605 C600 1.479 . S
C605 C604 1.405 . S
C605 H631 0.931 . S
U606 O607 2.454 . S
U606 O608 2.458 . S
U606 C609 2.984 . S
U606 C610 2.847 1_556 S
U606 C623 2.882 . S
U606 O624 2.441 1_556 S
U606 O625 2.420 . S
U606 O626 2.455 . S
U606 O627 2.449 . S
O607 U606 2.454 . S
O607 C609 1.353 . S
O608 U606 2.458 . S
O608 C609 1.286 . S
C609 U606 2.984 . S
C609 O607 1.353 . S
C609 O608 1.286 . S
C609 C611 1.363 . S
C610 C600 1.465 . S
C610 U606 2.847 1_554 S
C610 O624 1.249 . S
C610 O625 1.202 1_554 S
C611 C609 1.363 . S
C611 C613 1.408 . S
C611 C616 1.342 1_545 S
C612 C613 1.310 1_565 S
C612 C615 1.461 . S
C612 H632 0.932 1_556 S
C613 C611 1.408 . S
C613 C612 1.310 1_545 S
C613 H633 0.930 1_556 S
C614 C615 1.474 . S
C614 C616 1.285 . S
C614 H634 0.929 . S
C615 C612 1.461 . S
C615 C614 1.474 . S
C616 C611 1.342 1_565 S
C616 C614 1.285 . S
C616 H635 0.930 . S
C617 C620 1.424 . S
C617 C622 1.245 . S
C617 C623 1.428 . S
C618 C621 1.260 . S
C618 C622 1.477 . S
C618 H636 0.932 . S
C619 C620 1.384 . S
C619 C621 1.479 . S
C619 H637 0.929 . S
C620 C617 1.424 . S
C620 C619 1.384 . S
C620 H638 0.928 . S
C621 C618 1.260 . S
C621 C619 1.479 . S
C622 C617 1.245 . S
C622 C618 1.477 . S
C622 H639 0.932 . S
C623 U606 2.882 . S
C623 C617 1.428 . S
C623 O626 1.301 . S
C623 O627 1.282 . S
O624 U606 2.441 1_554 S
O624 C610 1.249 . S
O625 U606 2.420 . S
O625 C610 1.202 1_556 S
O626 U606 2.455 . S
O626 C623 1.301 . S
O627 U606 2.449 . S
O627 C623 1.282 . S
H628 C601 0.931 1_556 S
H629 C603 0.929 . S
H630 C604 0.930 . S
H631 C605 0.931 . S
H632 C612 0.932 1_554 S
H633 C613 0.930 1_554 S
H634 C614 0.929 . S
H635 C616 0.930 . S
H636 C618 0.932 . S
H637 C619 0.929 . S
H638 C620 0.928 . S
H639 C622 0.932 . S
C640 O641 1.187 . S
C640 O647 1.185 . S
O641 C640 1.187 . S
O642 Zn643 1.899 1_556 S
O642 C650 1.284 . S
Zn643 O642 1.899 1_554 S
Zn643 O644 2.032 . S
Zn643 O647 2.086 . S
Zn643 O652 1.977 . S
O644 Zn643 2.032 . S
O644 C648 1.278 . S
C645 O646 1.203 . S
C645 O652 1.267 . S
O646 C645 1.203 . S
O647 C640 1.185 . S
O647 Zn643 2.086 . S
C648 O644 1.278 . S
C648 O649 1.211 . S
O649 C648 1.211 . S
C650 O642 1.284 . S
C650 O651 1.273 . S
O651 C650 1.273 . S
O652 Zn643 1.977 . S
O652 C645 1.267 . S
C653 O654 1.160 . S
C653 O660 1.185 . S
O654 C653 1.160 . S
O655 Zn656 1.899 . S
O655 C663 1.284 . S
Zn656 O655 1.899 . S
Zn656 O657 2.032 . S
Zn656 O660 2.086 . S
Zn656 O665 1.977 . S
O657 Zn656 2.032 . S
O657 C661 1.278 . S
C658 O659 1.203 . S
C658 O665 1.267 . S
O659 C658 1.203 . S
O660 C653 1.185 . S
O660 Zn656 2.086 . S
C661 O657 1.278 . S
C661 O662 1.211 . S
O662 C661 1.211 . S
C663 O655 1.284 . S
C663 O664 1.273 . S
O664 C663 1.273 . S
O665 Zn656 1.977 . S
O665 C658 1.267 . S
C666 O667 1.160 1_554 S
C666 O673 1.185 . S
O667 C666 1.160 1_556 S
O668 Zn669 1.899 1_556 S
O668 C676 1.284 . S
Zn669 O668 1.899 1_554 S
Zn669 O670 2.032 1_554 S
Zn669 O673 2.086 . S
Zn669 O678 1.977 . S
O670 Zn669 2.032 1_556 S
O670 C674 1.278 . S
C671 O672 1.203 . S
C671 O678 1.267 . S
O672 C671 1.203 . S
O673 C666 1.185 . S
O673 Zn669 2.086 . S
C674 O670 1.278 . S
C674 O675 1.211 1_556 S
O675 C674 1.211 1_554 S
C676 O668 1.284 . S
C676 O677 1.273 . S
O677 C676 1.273 . S
O678 Zn669 1.977 . S
O678 C671 1.267 . S
C679 O680 1.160 . S
C679 O686 1.185 . S
O680 C679 1.160 . S
O681 Zn682 1.899 . S
O681 C689 1.284 . S
Zn682 O681 1.899 . S
Zn682 O683 2.050 . S
Zn682 O686 2.086 . S
Zn682 O691 1.977 . S
O683 Zn682 2.050 . S
O683 C687 1.254 1_545 S
C684 O685 1.203 . S
C684 O691 1.267 . S
O685 C684 1.203 . S
O686 C679 1.185 . S
O686 Zn682 2.086 . S
C687 O683 1.254 1_565 S
C687 O688 1.211 . S
O688 C687 1.211 . S
C689 O681 1.284 . S
C689 O690 1.273 1_545 S
O690 C689 1.273 1_565 S
O691 Zn682 1.977 . S
O691 C684 1.267 . S
C692 O693 1.160 . S
C692 O699 1.185 . S
O693 C692 1.160 . S
O694 Zn695 1.899 . S
O694 C702 1.284 . S
Zn695 O694 1.899 . S
Zn695 O696 2.032 . S
Zn695 O699 2.086 . S
Zn695 O704 1.977 . S
O696 Zn695 2.032 . S
O696 C700 1.278 . S
C697 O698 1.203 . S
C697 O704 1.267 . S
O698 C697 1.203 . S
O699 C692 1.185 . S
O699 Zn695 2.086 . S
C700 O696 1.278 . S
C700 O701 1.211 . S
O701 C700 1.211 . S
C702 O694 1.284 . S
C702 O703 1.273 . S
O703 C702 1.273 . S
O704 Zn695 1.977 . S
O704 C697 1.267 . S
C705 O706 1.160 . S
C705 O712 1.185 . S
O706 C705 1.160 . S
O707 Zn708 1.899 . S
O707 C715 1.284 . S
Zn708 O707 1.899 . S
Zn708 O709 2.032 . S
Zn708 O712 2.086 . S
Zn708 O717 1.977 . S
O709 Zn708 2.032 . S
O709 C713 1.278 . S
C710 O711 1.203 . S
C710 O717 1.267 . S
O711 C710 1.203 . S
O712 C705 1.185 . S
O712 Zn708 2.086 . S
C713 O709 1.278 . S
C713 O714 1.211 . S
O714 C713 1.211 . S
C715 O707 1.284 . S
C715 O716 1.273 . S
O716 C715 1.273 . S
O717 Zn708 1.977 . S
O717 C710 1.267 . S
C718 O719 1.160 . S
C718 O725 1.185 . S
O719 C718 1.160 . S
O720 Zn721 1.899 . S
O720 C728 1.284 . S
Zn721 O720 1.899 . S
Zn721 O722 2.032 . S
Zn721 O725 2.086 . S
Zn721 O730 1.977 . S
O722 Zn721 2.032 . S
O722 C726 1.278 . S
C723 O724 1.203 . S
C723 O730 1.267 . S
O724 C723 1.203 . S
O725 C718 1.185 . S
O725 Zn721 2.086 . S
C726 O722 1.278 . S
C726 O727 1.211 . S
O727 C726 1.211 . S
C728 O720 1.284 . S
C728 O729 1.273 . S
O729 C728 1.273 . S
O730 Zn721 1.977 . S
O730 C723 1.267 . S
C731 O732 1.160 . S
C731 O738 1.185 . S
O732 C731 1.160 . S
O733 Zn734 1.899 . S
O733 C741 1.284 1_565 S
Zn734 O733 1.899 . S
Zn734 O735 2.032 1_565 S
Zn734 O738 2.086 . S
Zn734 O743 1.977 . S
O735 Zn734 2.032 1_545 S
O735 C739 1.278 . S
C736 O737 1.203 1_565 S
C736 O743 1.267 . S
O737 C736 1.203 1_545 S
O738 C731 1.185 . S
O738 Zn734 2.086 . S
C739 O735 1.278 . S
C739 O740 1.211 . S
O740 C739 1.211 . S
C741 O733 1.284 1_545 S
C741 O742 1.273 . S
O742 C741 1.273 . S
O743 Zn734 1.977 . S
O743 C736 1.267 . S
C744 O745 1.160 1_455 S
C744 O751 1.185 . S
O745 C744 1.160 1_655 S
O746 Zn747 1.899 1_655 S
O746 C754 1.284 . S
Zn747 O746 1.899 1_455 S
Zn747 O748 2.034 . S
Zn747 O751 2.086 . S
Zn747 O756 1.977 . S
O748 Zn747 2.034 . S
O748 C752 1.278 . S
C749 O750 1.203 . S
C749 O756 1.267 . S
O750 C749 1.203 . S
O751 C744 1.185 . S
O751 Zn747 2.086 . S
C752 O748 1.278 . S
C752 O753 1.211 . S
O753 C752 1.211 . S
C754 O746 1.284 . S
C754 O755 1.273 . S
O755 C754 1.273 . S
O756 Zn747 1.977 . S
O756 C749 1.267 . S
C757 O758 1.160 . S
C757 O764 1.185 . S
O758 C757 1.160 . S
O759 Zn760 1.899 . S
O759 C767 1.284 . S
Zn760 O759 1.899 . S
Zn760 O761 2.032 . S
Zn760 O764 2.086 . S
Zn760 O769 1.977 . S
O761 Zn760 2.032 . S
O761 C765 1.278 . S
C762 O763 1.203 . S
C762 O769 1.267 . S
O763 C762 1.203 . S
O764 C757 1.185 . S
O764 Zn760 2.086 . S
C765 O761 1.278 . S
C765 O766 1.211 . S
O766 C765 1.211 . S
C767 O759 1.284 . S
C767 O768 1.273 . S
O768 C767 1.273 . S
O769 Zn760 1.977 . S
O769 C762 1.267 . S
C770 O771 1.160 1_455 S
C770 O777 1.185 . S
O771 C770 1.160 1_655 S
O772 Zn773 1.899 1_655 S
O772 C780 1.284 . S
Zn773 O772 1.899 1_455 S
Zn773 O774 2.033 . S
Zn773 O777 2.086 . S
Zn773 O782 1.977 . S
O774 Zn773 2.033 . S
O774 C778 1.278 . S
C775 O776 1.203 . S
C775 O782 1.267 . S
O776 C775 1.203 . S
O777 C770 1.185 . S
O777 Zn773 2.086 . S
C778 O774 1.278 . S
C778 O779 1.211 . S
O779 C778 1.211 . S
C780 O772 1.284 . S
C780 O781 1.273 . S
O781 C780 1.273 . S
O782 Zn773 1.977 . S
O782 C775 1.267 . S
C783 O784 1.160 . S
C783 O790 1.185 . S
O784 C783 1.160 . S
O785 Zn786 1.899 . S
O785 C793 1.284 . S
Zn786 O785 1.899 . S
Zn786 O787 2.032 . S
Zn786 O790 2.086 . S
Zn786 O795 1.977 . S
O787 Zn786 2.032 . S
O787 C791 1.278 . S
C788 O789 1.203 . S
C788 O795 1.267 . S
O789 C788 1.203 . S
O790 C783 1.185 . S
O790 Zn786 2.086 . S
C791 O787 1.278 . S
C791 O792 1.211 . S
O792 C791 1.211 . S
C793 O785 1.284 . S
C793 O794 1.273 . S
O794 C793 1.273 . S
O795 Zn786 1.977 . S
O795 C788 1.267 . S
C796 C797 1.391 . S
C796 C798 1.394 . S
C796 H812 0.931 . S
C797 C796 1.391 . S
C797 C801 1.376 . S
C798 C796 1.394 . S
C798 C799 1.369 . S
C798 C802 1.531 . S
C799 C798 1.369 . S
C799 C800 1.410 . S
C799 C807 1.503 . S
C800 C799 1.410 . S
C800 C801 1.392 . S
C800 C803 1.511 . S
C801 C797 1.376 . S
C801 C800 1.392 . S
C801 H813 0.929 . S
C802 C798 1.531 . S
C802 H814 0.960 . S
C802 H815 0.962 . S
C802 H816 0.960 . S
C803 C800 1.511 . S
C803 H817 0.961 . S
C803 H818 0.961 . S
C803 H819 0.961 . S
C804 C805 1.370 . S
C804 C806 1.363 . S
C804 H820 0.931 . S
C805 C804 1.370 . S
C805 C809 1.408 . S
C806 C804 1.363 . S
C806 C807 1.370 . S
C806 C810 1.524 . S
C807 C799 1.503 . S
C807 C806 1.370 . S
C807 C808 1.403 . S
C808 C807 1.403 . S
C808 C809 1.404 . S
C808 C811 1.539 . S
C809 C805 1.408 . S
C809 C808 1.404 . S
C809 H821 0.930 . S
C810 C806 1.524 . S
C810 H822 0.956 . S
C810 H823 0.961 . S
C810 H824 0.961 . S
C811 C808 1.539 . S
C811 H825 0.958 . S
C811 H826 0.961 . S
C811 H827 0.960 . S
H812 C796 0.931 . S
H813 C801 0.929 . S
H814 C802 0.960 . S
H815 C802 0.962 . S
H816 C802 0.960 . S
H817 C803 0.961 . S
H818 C803 0.961 . S
H819 C803 0.961 . S
H820 C804 0.931 . S
H821 C809 0.930 . S
H822 C810 0.956 . S
H823 C810 0.961 . S
H824 C810 0.961 . S
H825 C811 0.958 . S
H826 C811 0.961 . S
H827 C811 0.960 . S
C828 C829 1.391 . S
C828 C830 1.394 . S
C828 H844 0.931 . S
C829 C828 1.391 . S
C829 C833 1.376 . S
C830 C828 1.394 . S
C830 C831 1.369 . S
C830 C834 1.531 . S
C831 C830 1.369 . S
C831 C832 1.410 . S
C831 C839 1.503 . S
C832 C831 1.410 . S
C832 C833 1.392 . S
C832 C835 1.511 . S
C833 C829 1.376 . S
C833 C832 1.392 . S
C833 H845 0.929 . S
C834 C830 1.531 . S
C834 H846 0.960 . S
C834 H847 0.962 . S
C834 H848 0.960 . S
C835 C832 1.511 . S
C835 H849 0.961 . S
C835 H850 0.961 . S
C835 H851 0.961 . S
C836 C837 1.370 . S
C836 C838 1.363 . S
C836 H852 0.931 . S
C837 C836 1.370 . S
C837 C841 1.408 . S
C838 C836 1.363 . S
C838 C839 1.370 . S
C838 C842 1.524 . S
C839 C831 1.503 . S
C839 C838 1.370 . S
C839 C840 1.403 . S
C840 C839 1.403 . S
C840 C841 1.404 . S
C840 C843 1.539 . S
C841 C837 1.408 . S
C841 C840 1.404 . S
C841 H853 0.930 . S
C842 C838 1.524 . S
C842 H854 0.956 . S
C842 H855 0.961 . S
C842 H856 0.961 . S
C843 C840 1.539 . S
C843 H857 0.958 . S
C843 H858 0.961 . S
C843 H859 0.960 . S
H844 C828 0.931 . S
H845 C833 0.929 . S
H846 C834 0.960 . S
H847 C834 0.962 . S
H848 C834 0.960 . S
H849 C835 0.961 . S
H850 C835 0.961 . S
H851 C835 0.961 . S
H852 C836 0.931 . S
H853 C841 0.930 . S
H854 C842 0.956 . S
H855 C842 0.961 . S
H856 C842 0.961 . S
H857 C843 0.958 . S
H858 C843 0.961 . S
H859 C843 0.960 . S
C860 C861 1.391 . S
C860 C862 1.394 . S
C860 H876 0.931 . S
C861 C860 1.391 . S
C861 C865 1.376 . S
C862 C860 1.394 . S
C862 C863 1.369 . S
C862 C866 1.531 . S
C863 C862 1.369 . S
C863 C864 1.410 . S
C863 C871 1.503 . S
C864 C863 1.410 . S
C864 C865 1.392 . S
C864 C867 1.511 . S
C865 C861 1.376 . S
C865 C864 1.392 . S
C865 H877 0.929 . S
C866 C862 1.531 . S
C866 H878 0.960 . S
C866 H879 0.962 . S
C866 H880 0.960 . S
C867 C864 1.511 . S
C867 H881 0.961 . S
C867 H882 0.961 . S
C867 H883 0.961 . S
C868 C869 1.370 . S
C868 C870 1.363 . S
C868 H884 0.931 . S
C869 C868 1.370 . S
C869 C873 1.408 . S
C870 C868 1.363 . S
C870 C871 1.370 . S
C870 C874 1.524 . S
C871 C863 1.503 . S
C871 C870 1.370 . S
C871 C872 1.403 . S
C872 C871 1.403 . S
C872 C873 1.404 . S
C872 C875 1.539 . S
C873 C869 1.408 . S
C873 C872 1.404 . S
C873 H885 0.930 . S
C874 C870 1.524 . S
C874 H886 0.956 . S
C874 H887 0.961 . S
C874 H888 0.961 . S
C875 C872 1.539 . S
C875 H889 0.958 . S
C875 H890 0.961 . S
C875 H891 0.960 . S
H876 C860 0.931 . S
H877 C865 0.929 . S
H878 C866 0.960 . S
H879 C866 0.962 . S
H880 C866 0.960 . S
H881 C867 0.961 . S
H882 C867 0.961 . S
H883 C867 0.961 . S
H884 C868 0.931 . S
H885 C873 0.930 . S
H886 C874 0.956 . S
H887 C874 0.961 . S
H888 C874 0.961 . S
H889 C875 0.958 . S
H890 C875 0.961 . S
H891 C875 0.960 . S
C892 C893 1.392 . S
C892 C894 1.393 1_565 S
C892 H908 0.930 1_565 S
C893 C892 1.392 . S
C893 C897 1.376 . S
C894 C892 1.393 1_545 S
C894 C895 1.369 . S
C894 C898 1.531 . S
C895 C894 1.369 . S
C895 C896 1.410 1_545 S
C895 C903 1.503 . S
C896 C895 1.410 1_565 S
C896 C897 1.392 . S
C896 C899 1.511 . S
C897 C893 1.376 . S
C897 C896 1.392 . S
C897 H909 0.929 . S
C898 C894 1.531 . S
C898 H910 0.960 . S
C898 H911 0.946 1_545 S
C898 H912 0.960 . S
C899 C896 1.511 . S
C899 H913 0.961 . S
C899 H914 0.961 . S
C899 H915 0.961 1_565 S
C900 C901 1.370 1_565 S
C900 C902 1.363 . S
C900 H916 0.931 . S
C901 C900 1.370 1_545 S
C901 C905 1.408 . S
C902 C900 1.363 . S
C902 C903 1.370 1_565 S
C902 C906 1.524 . S
C903 C895 1.503 . S
C903 C902 1.370 1_545 S
C903 C904 1.403 . S
C904 C903 1.403 . S
C904 C905 1.404 . S
C904 C907 1.539 . S
C905 C901 1.408 . S
C905 C904 1.404 . S
C905 H917 0.930 . S
C906 C902 1.524 . S
C906 H918 0.956 . S
C906 H919 0.961 . S
C906 H920 0.961 . S
C907 C904 1.539 . S
C907 H921 0.958 . S
C907 H922 0.961 . S
C907 H923 0.960 . S
H908 C892 0.930 1_545 S
H909 C897 0.929 . S
H910 C898 0.960 . S
H911 C898 0.946 1_565 S
H912 C898 0.960 . S
H913 C899 0.961 . S
H914 C899 0.961 . S
H915 C899 0.961 1_545 S
H916 C900 0.931 . S
H917 C905 0.930 . S
H918 C906 0.956 . S
H919 C906 0.961 . S
H920 C906 0.961 . S
H921 C907 0.958 . S
H922 C907 0.961 . S
H923 C907 0.960 . S
C924 C925 1.391 . S
C924 C926 1.394 . S
C924 H940 0.931 . S
C925 C924 1.391 . S
C925 C929 1.376 . S
C926 C924 1.394 . S
C926 C927 1.369 . S
C926 C930 1.531 . S
C927 C926 1.369 . S
C927 C928 1.410 . S
C927 C935 1.503 . S
C928 C927 1.410 . S
C928 C929 1.392 . S
C928 C931 1.511 . S
C929 C925 1.376 . S
C929 C928 1.392 . S
C929 H941 0.929 . S
C930 C926 1.531 . S
C930 H942 0.960 . S
C930 H943 0.962 . S
C930 H944 0.960 . S
C931 C928 1.511 . S
C931 H945 0.961 . S
C931 H946 0.961 . S
C931 H947 0.961 . S
C932 C933 1.370 . S
C932 C934 1.363 . S
C932 H948 0.931 . S
C933 C932 1.370 . S
C933 C937 1.408 . S
C934 C932 1.363 . S
C934 C935 1.370 . S
C934 C938 1.524 . S
C935 C927 1.503 . S
C935 C934 1.370 . S
C935 C936 1.403 . S
C936 C935 1.403 . S
C936 C937 1.404 . S
C936 C939 1.539 . S
C937 C933 1.408 . S
C937 C936 1.404 . S
C937 H949 0.930 . S
C938 C934 1.524 . S
C938 H950 0.956 . S
C938 H951 0.961 . S
C938 H952 0.961 . S
C939 C936 1.539 . S
C939 H953 0.958 . S
C939 H954 0.961 . S
C939 H955 0.960 . S
H940 C924 0.931 . S
H941 C929 0.929 . S
H942 C930 0.960 . S
H943 C930 0.962 . S
H944 C930 0.960 . S
H945 C931 0.961 . S
H946 C931 0.961 . S
H947 C931 0.961 . S
H948 C932 0.931 . S
H949 C937 0.930 . S
H950 C938 0.956 . S
H951 C938 0.961 . S
H952 C938 0.961 . S
H953 C939 0.958 . S
H954 C939 0.961 . S
H955 C939 0.960 . S
C956 C957 1.391 . S
C956 C958 1.394 . S
C956 H972 0.931 . S
C957 C956 1.391 . S
C957 C961 1.376 . S
C958 C956 1.394 . S
C958 C959 1.369 . S
C958 C962 1.531 . S
C959 C958 1.369 . S
C959 C960 1.410 . S
C959 C967 1.503 . S
C960 C959 1.410 . S
C960 C961 1.392 . S
C960 C963 1.511 . S
C961 C957 1.376 . S
C961 C960 1.392 . S
C961 H973 0.929 . S
C962 C958 1.531 . S
C962 H974 0.960 . S
C962 H975 0.962 . S
C962 H976 0.960 . S
C963 C960 1.511 . S
C963 H977 0.961 . S
C963 H978 0.961 . S
C963 H979 0.961 . S
C964 C965 1.370 . S
C964 C966 1.363 . S
C964 H980 0.931 . S
C965 C964 1.370 . S
C965 C969 1.408 . S
C966 C964 1.363 . S
C966 C967 1.370 . S
C966 C970 1.524 . S
C967 C959 1.503 . S
C967 C966 1.370 . S
C967 C968 1.403 . S
C968 C967 1.403 . S
C968 C969 1.404 . S
C968 C971 1.539 . S
C969 C965 1.408 . S
C969 C968 1.404 . S
C969 H981 0.930 . S
C970 C966 1.524 . S
C970 H982 0.956 . S
C970 H983 0.961 . S
C970 H984 0.961 . S
C971 C968 1.539 . S
C971 H985 0.958 . S
C971 H986 0.961 . S
C971 H987 0.960 . S
H972 C956 0.931 . S
H973 C961 0.929 . S
H974 C962 0.960 . S
H975 C962 0.962 . S
H976 C962 0.960 . S
H977 C963 0.961 . S
H978 C963 0.961 . S
H979 C963 0.961 . S
H980 C964 0.931 . S
H981 C969 0.930 . S
H982 C970 0.956 . S
H983 C970 0.961 . S
H984 C970 0.961 . S
H985 C971 0.958 . S
H986 C971 0.961 . S
H987 C971 0.960 . S
C988 C989 1.391 . S
C988 C990 1.394 . S
C988 H1004 0.931 . S
C989 C988 1.391 . S
C989 C993 1.376 . S
C990 C988 1.394 . S
C990 C991 1.369 . S
C990 C994 1.531 . S
C991 C990 1.369 . S
C991 C992 1.410 . S
C991 C999 1.503 . S
C992 C991 1.410 . S
C992 C993 1.392 . S
C992 C995 1.511 . S
C993 C989 1.376 . S
C993 C992 1.392 . S
C993 H1005 0.929 . S
C994 C990 1.531 . S
C994 H1006 0.960 . S
C994 H1007 0.962 . S
C994 H1008 0.960 . S
C995 C992 1.511 . S
C995 H1009 0.961 . S
C995 H1010 0.961 . S
C995 H1011 0.961 . S
C996 C997 1.370 . S
C996 C998 1.363 . S
C996 H1012 0.931 . S
C997 C996 1.370 . S
C997 C1001 1.408 . S
C998 C996 1.363 . S
C998 C999 1.370 . S
C998 C1002 1.524 . S
C999 C991 1.503 . S
C999 C998 1.370 . S
C999 C1000 1.403 . S
C1000 C999 1.403 . S
C1000 C1001 1.404 . S
C1000 C1003 1.539 . S
C1001 C997 1.408 . S
C1001 C1000 1.404 . S
C1001 H1013 0.930 . S
C1002 C998 1.524 . S
C1002 H1014 0.956 . S
C1002 H1015 0.961 . S
C1002 H1016 0.961 . S
C1003 C1000 1.539 . S
C1003 H1017 0.958 . S
C1003 H1018 0.961 . S
C1003 H1019 0.960 . S
H1004 C988 0.931 . S
H1005 C993 0.929 . S
H1006 C994 0.960 . S
H1007 C994 0.962 . S
H1008 C994 0.960 . S
H1009 C995 0.961 . S
H1010 C995 0.961 . S
H1011 C995 0.961 . S
H1012 C996 0.931 . S
H1013 C1001 0.930 . S
H1014 C1002 0.956 . S
H1015 C1002 0.961 . S
H1016 C1002 0.961 . S
H1017 C1003 0.958 . S
H1018 C1003 0.961 . S
H1019 C1003 0.960 . S
C1020 C1021 1.391 . S
C1020 C1022 1.394 . S
C1020 H1036 0.931 . S
C1021 C1020 1.391 . S
C1021 C1025 1.376 . S
C1022 C1020 1.394 . S
C1022 C1023 1.369 . S
C1022 C1026 1.531 . S
C1023 C1022 1.369 . S
C1023 C1024 1.410 . S
C1023 C1031 1.503 . S
C1024 C1023 1.410 . S
C1024 C1025 1.392 . S
C1024 C1027 1.511 1_565 S
C1025 C1021 1.376 . S
C1025 C1024 1.392 . S
C1025 H1037 0.948 . S
C1026 C1022 1.531 . S
C1026 H1038 0.960 . S
C1026 H1039 0.962 . S
C1026 H1040 0.960 . S
C1027 C1024 1.511 1_545 S
C1027 H1041 0.961 . S
C1027 H1042 0.961 . S
C1027 H1043 0.961 1_545 S
C1028 C1029 1.370 1_545 S
C1028 C1030 1.363 . S
C1028 H1044 0.931 . S
C1029 C1028 1.370 1_565 S
C1029 C1033 1.408 . S
C1030 C1028 1.363 . S
C1030 C1031 1.370 1_545 S
C1030 C1034 1.524 . S
C1031 C1023 1.503 . S
C1031 C1030 1.370 1_565 S
C1031 C1032 1.403 . S
C1032 C1031 1.403 . S
C1032 C1033 1.404 . S
C1032 C1035 1.539 . S
C1033 C1029 1.408 . S
C1033 C1032 1.404 . S
C1033 H1045 0.930 . S
C1034 C1030 1.524 . S
C1034 H1046 0.956 . S
C1034 H1047 0.961 . S
C1034 H1048 0.961 . S
C1035 C1032 1.539 . S
C1035 H1049 0.958 . S
C1035 H1050 0.961 . S
C1035 H1051 0.960 . S
H1036 C1020 0.931 . S
H1037 C1025 0.948 . S
H1038 C1026 0.960 . S
H1039 C1026 0.962 . S
H1040 C1026 0.960 . S
H1041 C1027 0.961 . S
H1042 C1027 0.961 . S
H1043 C1027 0.961 1_565 S
H1044 C1028 0.931 . S
H1045 C1033 0.930 . S
H1046 C1034 0.956 . S
H1047 C1034 0.961 . S
H1048 C1034 0.961 . S
H1049 C1035 0.958 . S
H1050 C1035 0.961 . S
H1051 C1035 0.960 . S
C1052 C1053 1.391 . S
C1052 C1054 1.394 . S
C1052 H1068 0.931 . S
C1053 C1052 1.391 . S
C1053 C1057 1.376 . S
C1054 C1052 1.394 . S
C1054 C1055 1.369 . S
C1054 C1058 1.531 . S
C1055 C1054 1.369 . S
C1055 C1056 1.410 . S
C1055 C1063 1.503 . S
C1056 C1055 1.410 . S
C1056 C1057 1.392 . S
C1056 C1059 1.511 . S
C1057 C1053 1.376 . S
C1057 C1056 1.392 . S
C1057 H1069 0.929 . S
C1058 C1054 1.531 . S
C1058 H1070 0.960 . S
C1058 H1071 0.962 . S
C1058 H1072 0.960 . S
C1059 C1056 1.511 . S
C1059 H1073 0.961 . S
C1059 H1074 0.961 . S
C1059 H1075 0.961 . S
C1060 C1061 1.370 . S
C1060 C1062 1.363 . S
C1060 H1076 0.931 . S
C1061 C1060 1.370 . S
C1061 C1065 1.408 . S
C1062 C1060 1.363 . S
C1062 C1063 1.370 . S
C1062 C1066 1.524 . S
C1063 C1055 1.503 . S
C1063 C1062 1.370 . S
C1063 C1064 1.403 . S
C1064 C1063 1.403 . S
C1064 C1065 1.404 . S
C1064 C1067 1.539 . S
C1065 C1061 1.408 . S
C1065 C1064 1.404 . S
C1065 H1077 0.930 . S
C1066 C1062 1.524 . S
C1066 H1078 0.956 . S
C1066 H1079 0.961 . S
C1066 H1080 0.961 . S
C1067 C1064 1.539 . S
C1067 H1081 0.958 . S
C1067 H1082 0.961 . S
C1067 H1083 0.960 . S
H1068 C1052 0.931 . S
H1069 C1057 0.929 . S
H1070 C1058 0.960 . S
H1071 C1058 0.962 . S
H1072 C1058 0.960 . S
H1073 C1059 0.961 . S
H1074 C1059 0.961 . S
H1075 C1059 0.961 . S
H1076 C1060 0.931 . S
H1077 C1065 0.930 . S
H1078 C1066 0.956 . S
H1079 C1066 0.961 . S
H1080 C1066 0.961 . S
H1081 C1067 0.958 . S
H1082 C1067 0.961 . S
H1083 C1067 0.960 . S
C1084 C1085 1.391 . S
C1084 C1086 1.394 . S
C1084 H1100 0.931 . S
C1085 C1084 1.391 . S
C1085 C1089 1.376 . S
C1086 C1084 1.394 . S
C1086 C1087 1.369 . S
C1086 C1090 1.531 . S
C1087 C1086 1.369 . S
C1087 C1088 1.410 . S
C1087 C1095 1.503 . S
C1088 C1087 1.410 . S
C1088 C1089 1.392 . S
C1088 C1091 1.511 . S
C1089 C1085 1.376 . S
C1089 C1088 1.392 . S
C1089 H1101 0.929 . S
C1090 C1086 1.531 . S
C1090 H1102 0.960 . S
C1090 H1103 0.962 . S
C1090 H1104 0.960 . S
C1091 C1088 1.511 . S
C1091 H1105 0.961 . S
C1091 H1106 0.961 . S
C1091 H1107 0.961 . S
C1092 C1093 1.370 . S
C1092 C1094 1.363 . S
C1092 H1108 0.931 . S
C1093 C1092 1.370 . S
C1093 C1097 1.408 . S
C1094 C1092 1.363 . S
C1094 C1095 1.370 . S
C1094 C1098 1.524 . S
C1095 C1087 1.503 . S
C1095 C1094 1.370 . S
C1095 C1096 1.403 . S
C1096 C1095 1.403 . S
C1096 C1097 1.404 . S
C1096 C1099 1.539 . S
C1097 C1093 1.408 . S
C1097 C1096 1.404 . S
C1097 H1109 0.930 . S
C1098 C1094 1.524 . S
C1098 H1110 0.956 . S
C1098 H1111 0.961 . S
C1098 H1112 0.961 . S
C1099 C1096 1.539 . S
C1099 H1113 0.958 . S
C1099 H1114 0.961 . S
C1099 H1115 0.960 . S
H1100 C1084 0.931 . S
H1101 C1089 0.929 . S
H1102 C1090 0.960 . S
H1103 C1090 0.962 . S
H1104 C1090 0.960 . S
H1105 C1091 0.961 . S
H1106 C1091 0.961 . S
H1107 C1091 0.961 . S
H1108 C1092 0.931 . S
H1109 C1097 0.930 . S
H1110 C1098 0.956 . S
H1111 C1098 0.961 . S
H1112 C1098 0.961 . S
H1113 C1099 0.958 . S
H1114 C1099 0.961 . S
H1115 C1099 0.960 . S
C1116 C1117 1.391 . S
C1116 C1118 1.394 . S
C1116 H1132 0.931 . S
C1117 C1116 1.391 . S
C1117 C1121 1.376 . S
C1118 C1116 1.394 . S
C1118 C1119 1.369 . S
C1118 C1122 1.531 . S
C1119 C1118 1.369 . S
C1119 C1120 1.410 . S
C1119 C1127 1.503 . S
C1120 C1119 1.410 . S
C1120 C1121 1.392 . S
C1120 C1123 1.511 . S
C1121 C1117 1.376 . S
C1121 C1120 1.392 . S
C1121 H1133 0.929 . S
C1122 C1118 1.531 . S
C1122 H1134 0.960 . S
C1122 H1135 0.962 . S
C1122 H1136 0.960 . S
C1123 C1120 1.511 . S
C1123 H1137 0.961 . S
C1123 H1138 0.961 . S
C1123 H1139 0.961 . S
C1124 C1125 1.370 . S
C1124 C1126 1.363 . S
C1124 H1140 0.931 . S
C1125 C1124 1.370 . S
C1125 C1129 1.408 . S
C1126 C1124 1.363 . S
C1126 C1127 1.370 . S
C1126 C1130 1.524 . S
C1127 C1119 1.503 . S
C1127 C1126 1.370 . S
C1127 C1128 1.403 . S
C1128 C1127 1.403 . S
C1128 C1129 1.404 . S
C1128 C1131 1.539 . S
C1129 C1125 1.408 . S
C1129 C1128 1.404 . S
C1129 H1141 0.930 . S
C1130 C1126 1.524 . S
C1130 H1142 0.956 . S
C1130 H1143 0.961 . S
C1130 H1144 0.961 . S
C1131 C1128 1.539 . S
C1131 H1145 0.958 . S
C1131 H1146 0.961 . S
C1131 H1147 0.960 . S
H1132 C1116 0.931 . S
H1133 C1121 0.929 . S
H1134 C1122 0.960 . S
H1135 C1122 0.962 . S
H1136 C1122 0.960 . S
H1137 C1123 0.961 . S
H1138 C1123 0.961 . S
H1139 C1123 0.961 . S
H1140 C1124 0.931 . S
H1141 C1129 0.930 . S
H1142 C1130 0.956 . S
H1143 C1130 0.961 . S
H1144 C1130 0.961 . S
H1145 C1131 0.958 . S
H1146 C1131 0.961 . S
H1147 C1131 0.960 . S
C1148 C1149 1.391 . S
C1148 C1150 1.394 . S
C1148 H1164 0.931 . S
C1149 C1148 1.391 . S
C1149 C1153 1.376 . S
C1150 C1148 1.394 . S
C1150 C1151 1.369 . S
C1150 C1154 1.531 . S
C1151 C1150 1.369 . S
C1151 C1152 1.410 . S
C1151 C1159 1.503 . S
C1152 C1151 1.410 . S
C1152 C1153 1.392 . S
C1152 C1155 1.511 . S
C1153 C1149 1.376 . S
C1153 C1152 1.392 . S
C1153 H1165 0.929 . S
C1154 C1150 1.531 . S
C1154 H1166 0.960 . S
C1154 H1167 0.962 . S
C1154 H1168 0.960 . S
C1155 C1152 1.511 . S
C1155 H1169 0.961 . S
C1155 H1170 0.961 . S
C1155 H1171 0.961 . S
C1156 C1157 1.370 . S
C1156 C1158 1.363 . S
C1156 H1172 0.931 . S
C1157 C1156 1.370 . S
C1157 C1161 1.408 . S
C1158 C1156 1.363 . S
C1158 C1159 1.370 . S
C1158 C1162 1.524 . S
C1159 C1151 1.503 . S
C1159 C1158 1.370 . S
C1159 C1160 1.403 . S
C1160 C1159 1.403 . S
C1160 C1161 1.404 . S
C1160 C1163 1.539 . S
C1161 C1157 1.408 . S
C1161 C1160 1.404 . S
C1161 H1173 0.930 . S
C1162 C1158 1.524 . S
C1162 H1174 0.956 . S
C1162 H1175 0.961 . S
C1162 H1176 0.961 . S
C1163 C1160 1.539 . S
C1163 H1177 0.958 . S
C1163 H1178 0.961 . S
C1163 H1179 0.960 . S
H1164 C1148 0.931 . S
H1165 C1153 0.929 . S
H1166 C1154 0.960 . S
H1167 C1154 0.962 . S
H1168 C1154 0.960 . S
H1169 C1155 0.961 . S
H1170 C1155 0.961 . S
H1171 C1155 0.961 . S
H1172 C1156 0.931 . S
H1173 C1161 0.930 . S
H1174 C1162 0.956 . S
H1175 C1162 0.961 . S
H1176 C1162 0.961 . S
H1177 C1163 0.958 . S
H1178 C1163 0.961 . S
H1179 C1163 0.960 . S
C1180 C1181 1.391 . S
C1180 C1182 1.394 . S
C1180 H1196 0.931 . S
C1181 C1180 1.391 . S
C1181 C1185 1.376 . S
C1182 C1180 1.394 . S
C1182 C1183 1.369 . S
C1182 C1186 1.531 . S
C1183 C1182 1.369 . S
C1183 C1184 1.410 . S
C1183 C1191 1.503 . S
C1184 C1183 1.410 . S
C1184 C1185 1.392 . S
C1184 C1187 1.511 . S
C1185 C1181 1.376 . S
C1185 C1184 1.392 . S
C1185 H1197 0.929 . S
C1186 C1182 1.531 . S
C1186 H1198 0.960 . S
C1186 H1199 0.962 . S
C1186 H1200 0.960 . S
C1187 C1184 1.511 . S
C1187 H1201 0.961 . S
C1187 H1202 0.961 . S
C1187 H1203 0.961 . S
C1188 C1189 1.370 . S
C1188 C1190 1.363 . S
C1188 H1204 0.931 . S
C1189 C1188 1.370 . S
C1189 C1193 1.408 . S
C1190 C1188 1.363 . S
C1190 C1191 1.370 . S
C1190 C1194 1.524 . S
C1191 C1183 1.503 . S
C1191 C1190 1.370 . S
C1191 C1192 1.403 . S
C1192 C1191 1.403 . S
C1192 C1193 1.404 . S
C1192 C1195 1.539 . S
C1193 C1189 1.408 . S
C1193 C1192 1.404 . S
C1193 H1205 0.930 . S
C1194 C1190 1.524 . S
C1194 H1206 0.956 . S
C1194 H1207 0.961 . S
C1194 H1208 0.961 . S
C1195 C1192 1.539 . S
C1195 H1209 0.958 . S
C1195 H1210 0.961 . S
C1195 H1211 0.960 . S
H1196 C1180 0.931 . S
H1197 C1185 0.929 . S
H1198 C1186 0.960 . S
H1199 C1186 0.962 . S
H1200 C1186 0.960 . S
H1201 C1187 0.961 . S
H1202 C1187 0.961 . S
H1203 C1187 0.961 . S
H1204 C1188 0.931 . S
H1205 C1193 0.930 . S
H1206 C1194 0.956 . S
H1207 C1194 0.961 . S
H1208 C1194 0.961 . S
H1209 C1195 0.958 . S
H1210 C1195 0.961 . S
H1211 C1195 0.960 . S
C1212 C1213 1.391 . S
C1212 C1214 1.394 . S
C1212 H1228 0.931 . S
C1213 C1212 1.391 . S
C1213 C1217 1.376 . S
C1214 C1212 1.394 . S
C1214 C1215 1.369 . S
C1214 C1218 1.531 . S
C1215 C1214 1.369 . S
C1215 C1216 1.410 . S
C1215 C1223 1.503 . S
C1216 C1215 1.410 . S
C1216 C1217 1.392 . S
C1216 C1219 1.511 1_455 S
C1217 C1213 1.376 . S
C1217 C1216 1.392 . S
C1217 H1229 0.888 1_455 S
C1218 C1214 1.531 . S
C1218 H1230 0.960 . S
C1218 H1231 0.962 . S
C1218 H1232 0.960 . S
C1219 C1216 1.511 1_655 S
C1219 H1233 0.961 . S
C1219 H1234 0.961 . S
C1219 H1235 0.961 . S
C1220 C1221 1.370 . S
C1220 C1222 1.363 . S
C1220 H1236 0.931 . S
C1221 C1220 1.370 . S
C1221 C1225 1.408 . S
C1222 C1220 1.363 . S
C1222 C1223 1.370 . S
C1222 C1226 1.524 . S
C1223 C1215 1.503 . S
C1223 C1222 1.370 . S
C1223 C1224 1.403 . S
C1224 C1223 1.403 . S
C1224 C1225 1.404 . S
C1224 C1227 1.539 1_455 S
C1225 C1221 1.408 . S
C1225 C1224 1.404 . S
C1225 H1237 0.930 1_455 S
C1226 C1222 1.524 . S
C1226 H1238 0.956 . S
C1226 H1239 0.961 . S
C1226 H1240 0.961 . S
C1227 C1224 1.539 1_655 S
C1227 H1241 0.958 1_655 S
C1227 H1242 0.961 . S
C1227 H1243 0.960 . S
H1228 C1212 0.931 . S
H1229 C1217 0.888 1_655 S
H1230 C1218 0.960 . S
H1231 C1218 0.962 . S
H1232 C1218 0.960 . S
H1233 C1219 0.961 . S
H1234 C1219 0.961 . S
H1235 C1219 0.961 . S
H1236 C1220 0.931 . S
H1237 C1225 0.930 1_655 S
H1238 C1226 0.956 . S
H1239 C1226 0.961 . S
H1240 C1226 0.961 . S
H1241 C1227 0.958 1_455 S
H1242 C1227 0.961 . S
H1243 C1227 0.960 . S
C1244 C1245 1.391 . S
C1244 C1246 1.394 . S
C1244 H1260 0.931 . S
C1245 C1244 1.391 . S
C1245 C1249 1.376 . S
C1246 C1244 1.394 . S
C1246 C1247 1.369 . S
C1246 C1250 1.531 . S
C1247 C1246 1.369 . S
C1247 C1248 1.410 . S
C1247 C1255 1.503 . S
C1248 C1247 1.410 . S
C1248 C1249 1.392 . S
C1248 C1251 1.511 . S
C1249 C1245 1.376 . S
C1249 C1248 1.392 . S
C1249 H1261 0.929 . S
C1250 C1246 1.531 . S
C1250 H1262 0.960 . S
C1250 H1263 0.962 . S
C1250 H1264 0.960 . S
C1251 C1248 1.511 . S
C1251 H1265 0.961 . S
C1251 H1266 0.961 . S
C1251 H1267 0.961 . S
C1252 C1253 1.370 . S
C1252 C1254 1.363 . S
C1252 H1268 0.931 . S
C1253 C1252 1.370 . S
C1253 C1257 1.408 . S
C1254 C1252 1.363 . S
C1254 C1255 1.370 . S
C1254 C1258 1.524 . S
C1255 C1247 1.503 . S
C1255 C1254 1.370 . S
C1255 C1256 1.403 . S
C1256 C1255 1.403 . S
C1256 C1257 1.404 . S
C1256 C1259 1.539 . S
C1257 C1253 1.408 . S
C1257 C1256 1.404 . S
C1257 H1269 0.930 . S
C1258 C1254 1.524 . S
C1258 H1270 0.956 . S
C1258 H1271 0.961 . S
C1258 H1272 0.961 . S
C1259 C1256 1.539 . S
C1259 H1273 0.958 . S
C1259 H1274 0.961 . S
C1259 H1275 0.960 . S
H1260 C1244 0.931 . S
H1261 C1249 0.929 . S
H1262 C1250 0.960 . S
H1263 C1250 0.962 . S
H1264 C1250 0.960 . S
H1265 C1251 0.961 . S
H1266 C1251 0.961 . S
H1267 C1251 0.961 . S
H1268 C1252 0.931 . S
H1269 C1257 0.930 . S
H1270 C1258 0.956 . S
H1271 C1258 0.961 . S
H1272 C1258 0.961 . S
H1273 C1259 0.958 . S
H1274 C1259 0.961 . S
H1275 C1259 0.960 . S
C1276 C1277 1.391 . S
C1276 C1278 1.394 . S
C1276 H1292 0.931 . S
C1277 C1276 1.391 . S
C1277 C1281 1.376 1_655 S
C1278 C1276 1.394 . S
C1278 C1279 1.369 . S
C1278 C1282 1.531 . S
C1279 C1278 1.369 . S
C1279 C1280 1.410 1_655 S
C1279 C1287 1.503 . S
C1280 C1279 1.410 1_455 S
C1280 C1281 1.392 . S
C1280 C1283 1.511 . S
C1281 C1277 1.376 1_455 S
C1281 C1280 1.392 . S
C1281 H1293 0.929 . S
C1282 C1278 1.531 . S
C1282 H1294 0.960 . S
C1282 H1295 0.962 . S
C1282 H1296 0.960 . S
C1283 C1280 1.511 . S
C1283 H1297 0.961 . S
C1283 H1298 0.961 . S
C1283 H1299 0.961 . S
C1284 C1285 1.370 . S
C1284 C1286 1.363 . S
C1284 H1300 0.931 . S
C1285 C1284 1.370 . S
C1285 C1289 1.408 1_655 S
C1286 C1284 1.363 . S
C1286 C1287 1.370 . S
C1286 C1290 1.524 . S
C1287 C1279 1.503 . S
C1287 C1286 1.370 . S
C1287 C1288 1.386 1_655 S
C1288 C1287 1.386 1_455 S
C1288 C1289 1.408 . S
C1288 C1291 1.558 . S
C1289 C1285 1.408 1_455 S
C1289 C1288 1.408 . S
C1289 H1301 0.930 . S
C1290 C1286 1.524 . S
C1290 H1302 0.956 . S
C1290 H1303 0.961 . S
C1290 H1304 0.961 . S
C1291 C1288 1.558 . S
C1291 H1305 0.958 1_455 S
C1291 H1306 0.961 . S
C1291 H1307 0.960 . S
H1292 C1276 0.931 . S
H1293 C1281 0.929 . S
H1294 C1282 0.960 . S
H1295 C1282 0.962 . S
H1296 C1282 0.960 . S
H1297 C1283 0.961 . S
H1298 C1283 0.961 . S
H1299 C1283 0.961 . S
H1300 C1284 0.931 . S
H1301 C1289 0.930 . S
H1302 C1290 0.956 . S
H1303 C1290 0.961 . S
H1304 C1290 0.961 . S
H1305 C1291 0.958 1_655 S
H1306 C1291 0.961 . S
H1307 C1291 0.960 . S
C1308 C1309 1.391 . S
C1308 C1310 1.394 . S
C1308 H1324 0.931 . S
C1309 C1308 1.391 . S
C1309 C1313 1.376 . S
C1310 C1308 1.394 . S
C1310 C1311 1.369 . S
C1310 C1314 1.531 . S
C1311 C1310 1.369 . S
C1311 C1312 1.410 . S
C1311 C1319 1.503 . S
C1312 C1311 1.410 . S
C1312 C1313 1.392 . S
C1312 C1315 1.511 . S
C1313 C1309 1.376 . S
C1313 C1312 1.392 . S
C1313 H1325 0.929 . S
C1314 C1310 1.531 . S
C1314 H1326 0.960 . S
C1314 H1327 0.962 . S
C1314 H1328 0.960 . S
C1315 C1312 1.511 . S
C1315 H1329 0.961 . S
C1315 H1330 0.961 . S
C1315 H1331 0.961 . S
C1316 C1317 1.370 . S
C1316 C1318 1.363 . S
C1316 H1332 0.931 . S
C1317 C1316 1.370 . S
C1317 C1321 1.408 . S
C1318 C1316 1.363 . S
C1318 C1319 1.370 . S
C1318 C1322 1.524 . S
C1319 C1311 1.503 . S
C1319 C1318 1.370 . S
C1319 C1320 1.403 . S
C1320 C1319 1.403 . S
C1320 C1321 1.404 . S
C1320 C1323 1.539 . S
C1321 C1317 1.408 . S
C1321 C1320 1.404 . S
C1321 H1333 0.930 . S
C1322 C1318 1.524 . S
C1322 H1334 0.956 . S
C1322 H1335 0.961 . S
C1322 H1336 0.961 . S
C1323 C1320 1.539 . S
C1323 H1337 0.958 . S
C1323 H1338 0.961 . S
C1323 H1339 0.960 . S
H1324 C1308 0.931 . S
H1325 C1313 0.929 . S
H1326 C1314 0.960 . S
H1327 C1314 0.962 . S
H1328 C1314 0.960 . S
H1329 C1315 0.961 . S
H1330 C1315 0.961 . S
H1331 C1315 0.961 . S
H1332 C1316 0.931 . S
H1333 C1321 0.930 . S
H1334 C1322 0.956 . S
H1335 C1322 0.961 . S
H1336 C1322 0.961 . S
H1337 C1323 0.958 . S
H1338 C1323 0.961 . S
H1339 C1323 0.960 . S
C1340 C1341 1.391 . S
C1340 C1342 1.394 . S
C1340 H1356 0.931 . S
C1341 C1340 1.391 . S
C1341 C1345 1.376 . S
C1342 C1340 1.394 . S
C1342 C1343 1.369 . S
C1342 C1346 1.531 . S
C1343 C1342 1.369 . S
C1343 C1344 1.410 . S
C1343 C1351 1.503 . S
C1344 C1343 1.410 . S
C1344 C1345 1.392 . S
C1344 C1347 1.511 . S
C1345 C1341 1.376 . S
C1345 C1344 1.392 . S
C1345 H1357 0.929 . S
C1346 C1342 1.531 . S
C1346 H1358 0.960 . S
C1346 H1359 0.962 . S
C1346 H1360 0.960 . S
C1347 C1344 1.511 . S
C1347 H1361 0.961 . S
C1347 H1362 0.961 . S
C1347 H1363 0.961 . S
C1348 C1349 1.370 . S
C1348 C1350 1.363 . S
C1348 H1364 0.931 . S
C1349 C1348 1.370 . S
C1349 C1353 1.408 . S
C1350 C1348 1.363 . S
C1350 C1351 1.370 . S
C1350 C1354 1.524 . S
C1351 C1343 1.503 . S
C1351 C1350 1.370 . S
C1351 C1352 1.403 . S
C1352 C1351 1.403 . S
C1352 C1353 1.404 . S
C1352 C1355 1.539 . S
C1353 C1349 1.408 . S
C1353 C1352 1.404 . S
C1353 H1365 0.930 . S
C1354 C1350 1.524 . S
C1354 H1366 0.956 . S
C1354 H1367 0.961 . S
C1354 H1368 0.961 . S
C1355 C1352 1.539 . S
C1355 H1369 0.958 . S
C1355 H1370 0.961 . S
C1355 H1371 0.960 . S
H1356 C1340 0.931 . S
H1357 C1345 0.929 . S
H1358 C1346 0.960 . S
H1359 C1346 0.962 . S
H1360 C1346 0.960 . S
H1361 C1347 0.961 . S
H1362 C1347 0.961 . S
H1363 C1347 0.961 . S
H1364 C1348 0.931 . S
H1365 C1353 0.930 . S
H1366 C1354 0.956 . S
H1367 C1354 0.961 . S
H1368 C1354 0.961 . S
H1369 C1355 0.958 . S
H1370 C1355 0.961 . S
H1371 C1355 0.960 . S
C1372 C1373 1.391 . S
C1372 C1374 1.394 . S
C1372 H1388 0.931 . S
C1373 C1372 1.391 . S
C1373 C1377 1.376 . S
C1374 C1372 1.394 . S
C1374 C1375 1.369 . S
C1374 C1378 1.531 . S
C1375 C1374 1.369 . S
C1375 C1376 1.410 . S
C1375 C1383 1.503 . S
C1376 C1375 1.410 . S
C1376 C1377 1.392 . S
C1376 C1379 1.511 . S
C1377 C1373 1.376 . S
C1377 C1376 1.392 . S
C1377 H1389 0.929 . S
C1378 C1374 1.531 . S
C1378 H1390 0.960 . S
C1378 H1391 0.962 1_556 S
C1378 H1392 0.960 . S
C1379 C1376 1.511 . S
C1379 H1393 0.961 . S
C1379 H1394 0.961 . S
C1379 H1395 0.961 . S
C1380 C1381 1.370 . S
C1380 C1382 1.363 . S
C1380 H1396 0.931 . S
C1381 C1380 1.370 . S
C1381 C1385 1.408 1_554 S
C1382 C1380 1.363 . S
C1382 C1383 1.370 1_554 S
C1382 C1386 1.524 . S
C1383 C1375 1.503 . S
C1383 C1382 1.370 1_556 S
C1383 C1384 1.403 . S
C1384 C1383 1.403 . S
C1384 C1385 1.404 . S
C1384 C1387 1.539 . S
C1385 C1381 1.408 1_556 S
C1385 C1384 1.404 . S
C1385 H1397 0.930 . S
C1386 C1382 1.524 . S
C1386 H1398 0.956 . S
C1386 H1399 0.961 . S
C1386 H1400 0.961 . S
C1387 C1384 1.539 . S
C1387 H1401 0.958 . S
C1387 H1402 0.961 . S
C1387 H1403 0.960 . S
H1388 C1372 0.931 . S
H1389 C1377 0.929 . S
H1390 C1378 0.960 . S
H1391 C1378 0.962 1_554 S
H1392 C1378 0.960 . S
H1393 C1379 0.961 . S
H1394 C1379 0.961 . S
H1395 C1379 0.961 . S
H1396 C1380 0.931 . S
H1397 C1385 0.930 . S
H1398 C1386 0.956 . S
H1399 C1386 0.961 . S
H1400 C1386 0.961 . S
H1401 C1387 0.958 . S
H1402 C1387 0.961 . S
H1403 C1387 0.960 . S
C1404 C1405 1.391 . S
C1404 C1406 1.394 . S
C1404 H1420 0.931 . S
C1405 C1404 1.391 . S
C1405 C1409 1.376 . S
C1406 C1404 1.394 . S
C1406 C1407 1.369 . S
C1406 C1410 1.531 . S
C1407 C1406 1.369 . S
C1407 C1408 1.410 . S
C1407 C1415 1.503 . S
C1408 C1407 1.410 . S
C1408 C1409 1.392 . S
C1408 C1411 1.511 . S
C1409 C1405 1.376 . S
C1409 C1408 1.392 . S
C1409 H1421 0.929 . S
C1410 C1406 1.531 . S
C1410 H1422 0.960 . S
C1410 H1423 0.962 . S
C1410 H1424 0.960 . S
C1411 C1408 1.511 . S
C1411 H1425 0.961 . S
C1411 H1426 0.961 . S
C1411 H1427 0.961 . S
C1412 C1413 1.370 . S
C1412 C1414 1.363 . S
C1412 H1428 0.931 . S
C1413 C1412 1.370 . S
C1413 C1417 1.408 . S
C1414 C1412 1.363 . S
C1414 C1415 1.370 . S
C1414 C1418 1.524 . S
C1415 C1407 1.503 . S
C1415 C1414 1.370 . S
C1415 C1416 1.403 . S
C1416 C1415 1.403 . S
C1416 C1417 1.404 . S
C1416 C1419 1.539 . S
C1417 C1413 1.408 . S
C1417 C1416 1.404 . S
C1417 H1429 0.930 . S
C1418 C1414 1.524 . S
C1418 H1430 0.956 . S
C1418 H1431 0.961 . S
C1418 H1432 0.961 . S
C1419 C1416 1.539 . S
C1419 H1433 0.958 . S
C1419 H1434 0.961 . S
C1419 H1435 0.960 . S
H1420 C1404 0.931 . S
H1421 C1409 0.929 . S
H1422 C1410 0.960 . S
H1423 C1410 0.962 . S
H1424 C1410 0.960 . S
H1425 C1411 0.961 . S
H1426 C1411 0.961 . S
H1427 C1411 0.961 . S
H1428 C1412 0.931 . S
H1429 C1417 0.930 . S
H1430 C1418 0.956 . S
H1431 C1418 0.961 . S
H1432 C1418 0.961 . S
H1433 C1419 0.958 . S
H1434 C1419 0.961 . S
H1435 C1419 0.960 . S
C1436 C1437 1.391 . S
C1436 C1438 1.394 . S
C1436 H1452 0.931 . S
C1437 C1436 1.391 . S
C1437 C1441 1.376 . S
C1438 C1436 1.394 . S
C1438 C1439 1.369 . S
C1438 C1442 1.531 . S
C1439 C1438 1.369 . S
C1439 C1440 1.410 . S
C1439 C1447 1.503 . S
C1440 C1439 1.410 . S
C1440 C1441 1.392 . S
C1440 C1443 1.511 . S
C1441 C1437 1.376 . S
C1441 C1440 1.392 . S
C1441 H1453 0.929 . S
C1442 C1438 1.531 . S
C1442 H1454 0.960 . S
C1442 H1455 0.962 . S
C1442 H1456 0.960 . S
C1443 C1440 1.511 . S
C1443 H1457 0.961 . S
C1443 H1458 0.961 . S
C1443 H1459 0.961 . S
C1444 C1445 1.370 . S
C1444 C1446 1.363 . S
C1444 H1460 0.931 . S
C1445 C1444 1.370 . S
C1445 C1449 1.408 . S
C1446 C1444 1.363 . S
C1446 C1447 1.370 . S
C1446 C1450 1.524 . S
C1447 C1439 1.503 . S
C1447 C1446 1.370 . S
C1447 C1448 1.403 . S
C1448 C1447 1.403 . S
C1448 C1449 1.404 . S
C1448 C1451 1.539 . S
C1449 C1445 1.408 . S
C1449 C1448 1.404 . S
C1449 H1461 0.930 . S
C1450 C1446 1.524 . S
C1450 H1462 0.956 . S
C1450 H1463 0.961 . S
C1450 H1464 0.961 . S
C1451 C1448 1.539 . S
C1451 H1465 0.958 . S
C1451 H1466 0.961 . S
C1451 H1467 0.960 . S
H1452 C1436 0.931 . S
H1453 C1441 0.929 . S
H1454 C1442 0.960 . S
H1455 C1442 0.962 . S
H1456 C1442 0.960 . S
H1457 C1443 0.961 . S
H1458 C1443 0.961 . S
H1459 C1443 0.961 . S
H1460 C1444 0.931 . S
H1461 C1449 0.930 . S
H1462 C1450 0.956 . S
H1463 C1450 0.961 . S
H1464 C1450 0.961 . S
H1465 C1451 0.958 . S
H1466 C1451 0.961 . S
H1467 C1451 0.960 . S
C1468 C1469 1.391 . S
C1468 C1470 1.394 . S
C1468 H1484 0.931 . S
C1469 C1468 1.391 . S
C1469 C1473 1.376 . S
C1470 C1468 1.394 . S
C1470 C1471 1.369 . S
C1470 C1474 1.531 . S
C1471 C1470 1.369 . S
C1471 C1472 1.410 . S
C1471 C1479 1.503 . S
C1472 C1471 1.410 . S
C1472 C1473 1.392 . S
C1472 C1475 1.511 . S
C1473 C1469 1.376 . S
C1473 C1472 1.392 . S
C1473 H1485 0.929 . S
C1474 C1470 1.531 . S
C1474 H1486 0.960 . S
C1474 H1487 0.962 . S
C1474 H1488 0.960 . S
C1475 C1472 1.511 . S
C1475 H1489 0.961 . S
C1475 H1490 0.961 . S
C1475 H1491 0.961 . S
C1476 C1477 1.370 . S
C1476 C1478 1.363 . S
C1476 H1492 0.931 . S
C1477 C1476 1.370 . S
C1477 C1481 1.408 . S
C1478 C1476 1.363 . S
C1478 C1479 1.370 . S
C1478 C1482 1.524 . S
C1479 C1471 1.503 . S
C1479 C1478 1.370 . S
C1479 C1480 1.403 . S
C1480 C1479 1.403 . S
C1480 C1481 1.404 . S
C1480 C1483 1.539 . S
C1481 C1477 1.408 . S
C1481 C1480 1.404 . S
C1481 H1493 0.930 . S
C1482 C1478 1.524 . S
C1482 H1494 0.956 . S
C1482 H1495 0.961 . S
C1482 H1496 0.961 . S
C1483 C1480 1.539 . S
C1483 H1497 0.958 . S
C1483 H1498 0.961 . S
C1483 H1499 0.960 . S
H1484 C1468 0.931 . S
H1485 C1473 0.929 . S
H1486 C1474 0.960 . S
H1487 C1474 0.962 . S
H1488 C1474 0.960 . S
H1489 C1475 0.961 . S
H1490 C1475 0.961 . S
H1491 C1475 0.961 . S
H1492 C1476 0.931 . S
H1493 C1481 0.930 . S
H1494 C1482 0.956 . S
H1495 C1482 0.961 . S
H1496 C1482 0.961 . S
H1497 C1483 0.958 . S
H1498 C1483 0.961 . S
H1499 C1483 0.960 . S
C1500 C1501 1.391 . S
C1500 C1502 1.394 . S
C1500 H1516 0.931 . S
C1501 C1500 1.391 . S
C1501 C1505 1.376 . S
C1502 C1500 1.394 . S
C1502 C1503 1.369 . S
C1502 C1506 1.531 . S
C1503 C1502 1.369 . S
C1503 C1504 1.410 . S
C1503 C1511 1.503 . S
C1504 C1503 1.410 . S
C1504 C1505 1.392 . S
C1504 C1507 1.511 . S
C1505 C1501 1.376 . S
C1505 C1504 1.392 . S
C1505 H1517 0.929 . S
C1506 C1502 1.531 . S
C1506 H1518 0.960 . S
C1506 H1519 0.962 . S
C1506 H1520 0.960 . S
C1507 C1504 1.511 . S
C1507 H1521 0.961 . S
C1507 H1522 0.961 . S
C1507 H1523 0.961 . S
C1508 C1509 1.370 . S
C1508 C1510 1.363 . S
C1508 H1524 0.931 . S
C1509 C1508 1.370 . S
C1509 C1513 1.408 . S
C1510 C1508 1.363 . S
C1510 C1511 1.370 . S
C1510 C1514 1.524 . S
C1511 C1503 1.503 . S
C1511 C1510 1.370 . S
C1511 C1512 1.403 . S
C1512 C1511 1.403 . S
C1512 C1513 1.404 . S
C1512 C1515 1.539 . S
C1513 C1509 1.408 . S
C1513 C1512 1.404 . S
C1513 H1525 0.930 . S
C1514 C1510 1.524 . S
C1514 H1526 0.956 . S
C1514 H1527 0.961 . S
C1514 H1528 0.961 . S
C1515 C1512 1.539 . S
C1515 H1529 0.958 . S
C1515 H1530 0.961 . S
C1515 H1531 0.960 . S
H1516 C1500 0.931 . S
H1517 C1505 0.929 . S
H1518 C1506 0.960 . S
H1519 C1506 0.962 . S
H1520 C1506 0.960 . S
H1521 C1507 0.961 . S
H1522 C1507 0.961 . S
H1523 C1507 0.961 . S
H1524 C1508 0.931 . S
H1525 C1513 0.930 . S
H1526 C1514 0.956 . S
H1527 C1514 0.961 . S
H1528 C1514 0.961 . S
H1529 C1515 0.958 . S
H1530 C1515 0.961 . S
H1531 C1515 0.960 . S
C1532 C1533 1.391 . S
C1532 C1534 1.394 . S
C1532 H1548 0.931 . S
C1533 C1532 1.391 . S
C1533 C1537 1.376 . S
C1534 C1532 1.394 . S
C1534 C1535 1.369 . S
C1534 C1538 1.531 . S
C1535 C1534 1.369 . S
C1535 C1536 1.410 . S
C1535 C1543 1.503 . S
C1536 C1535 1.410 . S
C1536 C1537 1.392 . S
C1536 C1539 1.511 . S
C1537 C1533 1.376 . S
C1537 C1536 1.392 . S
C1537 H1549 0.929 . S
C1538 C1534 1.531 . S
C1538 H1550 0.960 . S
C1538 H1551 0.962 . S
C1538 H1552 0.960 . S
C1539 C1536 1.511 . S
C1539 H1553 0.961 . S
C1539 H1554 0.961 . S
C1539 H1555 0.961 . S
C1540 C1541 1.370 . S
C1540 C1542 1.363 . S
C1540 H1556 0.931 . S
C1541 C1540 1.370 . S
C1541 C1545 1.408 . S
C1542 C1540 1.363 . S
C1542 C1543 1.370 . S
C1542 C1546 1.524 . S
C1543 C1535 1.503 . S
C1543 C1542 1.370 . S
C1543 C1544 1.403 . S
C1544 C1543 1.403 . S
C1544 C1545 1.404 . S
C1544 C1547 1.539 . S
C1545 C1541 1.408 . S
C1545 C1544 1.404 . S
C1545 H1557 0.930 . S
C1546 C1542 1.524 . S
C1546 H1558 0.956 . S
C1546 H1559 0.961 . S
C1546 H1560 0.961 . S
C1547 C1544 1.539 . S
C1547 H1561 0.958 . S
C1547 H1562 0.961 . S
C1547 H1563 0.960 . S
H1548 C1532 0.931 . S
H1549 C1537 0.929 . S
H1550 C1538 0.960 . S
H1551 C1538 0.962 . S
H1552 C1538 0.960 . S
H1553 C1539 0.961 . S
H1554 C1539 0.961 . S
H1555 C1539 0.961 . S
H1556 C1540 0.931 . S
H1557 C1545 0.930 . S
H1558 C1546 0.956 . S
H1559 C1546 0.961 . S
H1560 C1546 0.961 . S
H1561 C1547 0.958 . S
H1562 C1547 0.961 . S
H1563 C1547 0.960 . S
C1564 C1565 1.391 . S
C1564 C1566 1.394 . S
C1564 H1580 0.931 . S
C1565 C1564 1.391 . S
C1565 C1569 1.376 . S
C1566 C1564 1.394 . S
C1566 C1567 1.369 . S
C1566 C1570 1.531 . S
C1567 C1566 1.369 . S
C1567 C1568 1.410 . S
C1567 C1575 1.503 . S
C1568 C1567 1.410 . S
C1568 C1569 1.392 . S
C1568 C1571 1.511 . S
C1569 C1565 1.376 . S
C1569 C1568 1.392 . S
C1569 H1581 0.929 . S
C1570 C1566 1.531 . S
C1570 H1582 0.960 . S
C1570 H1583 0.962 . S
C1570 H1584 0.960 . S
C1571 C1568 1.511 . S
C1571 H1585 0.961 . S
C1571 H1586 0.961 . S
C1571 H1587 0.961 . S
C1572 C1573 1.370 . S
C1572 C1574 1.363 . S
C1572 H1588 0.931 . S
C1573 C1572 1.370 . S
C1573 C1577 1.408 . S
C1574 C1572 1.363 . S
C1574 C1575 1.370 . S
C1574 C1578 1.524 . S
C1575 C1567 1.503 . S
C1575 C1574 1.370 . S
C1575 C1576 1.403 . S
C1576 C1575 1.403 . S
C1576 C1577 1.404 . S
C1576 C1579 1.539 . S
C1577 C1573 1.408 . S
C1577 C1576 1.404 . S
C1577 H1589 0.930 . S
C1578 C1574 1.524 . S
C1578 H1590 0.956 . S
C1578 H1591 0.961 . S
C1578 H1592 0.961 . S
C1579 C1576 1.539 . S
C1579 H1593 0.958 . S
C1579 H1594 0.961 . S
C1579 H1595 0.960 . S
H1580 C1564 0.931 . S
H1581 C1569 0.929 . S
H1582 C1570 0.960 . S
H1583 C1570 0.962 . S
H1584 C1570 0.960 . S
H1585 C1571 0.961 . S
H1586 C1571 0.961 . S
H1587 C1571 0.961 . S
H1588 C1572 0.931 . S
H1589 C1577 0.930 . S
H1590 C1578 0.956 . S
H1591 C1578 0.961 . S
H1592 C1578 0.961 . S
H1593 C1579 0.958 . S
H1594 C1579 0.961 . S
H1595 C1579 0.960 . S
C1596 C1597 1.391 . S
C1596 C1598 1.394 . S
C1596 H1612 0.931 . S
C1597 C1596 1.391 . S
C1597 C1601 1.376 . S
C1598 C1596 1.394 . S
C1598 C1599 1.369 . S
C1598 C1602 1.531 . S
C1599 C1598 1.369 . S
C1599 C1600 1.410 . S
C1599 C1607 1.503 . S
C1600 C1599 1.410 . S
C1600 C1601 1.392 . S
C1600 C1603 1.511 1_545 S
C1601 C1597 1.376 . S
C1601 C1600 1.392 . S
C1601 H1613 0.929 . S
C1602 C1598 1.531 . S
C1602 H1614 0.960 . S
C1602 H1615 0.962 . S
C1602 H1616 0.960 . S
C1603 C1600 1.511 1_565 S
C1603 H1617 0.961 . S
C1603 H1618 0.961 . S
C1603 H1619 0.961 . S
C1604 C1605 1.370 . S
C1604 C1606 1.363 . S
C1604 H1620 0.931 . S
C1605 C1604 1.370 . S
C1605 C1609 1.408 1_545 S
C1606 C1604 1.363 . S
C1606 C1607 1.370 . S
C1606 C1610 1.524 . S
C1607 C1599 1.503 . S
C1607 C1606 1.370 . S
C1607 C1608 1.403 1_545 S
C1608 C1607 1.403 1_565 S
C1608 C1609 1.404 . S
C1608 C1611 1.539 . S
C1609 C1605 1.408 1_565 S
C1609 C1608 1.404 . S
C1609 H1621 0.930 . S
C1610 C1606 1.524 . S
C1610 H1622 0.956 . S
C1610 H1623 0.961 . S
C1610 H1624 0.961 . S
C1611 C1608 1.539 . S
C1611 H1625 0.958 . S
C1611 H1626 0.961 . S
C1611 H1627 0.960 . S
H1612 C1596 0.931 . S
H1613 C1601 0.929 . S
H1614 C1602 0.960 . S
H1615 C1602 0.962 . S
H1616 C1602 0.960 . S
H1617 C1603 0.961 . S
H1618 C1603 0.961 . S
H1619 C1603 0.961 . S
H1620 C1604 0.931 . S
H1621 C1609 0.930 . S
H1622 C1610 0.956 . S
H1623 C1610 0.961 . S
H1624 C1610 0.961 . S
H1625 C1611 0.958 . S
H1626 C1611 0.961 . S
H1627 C1611 0.960 . S
C1628 C1629 1.391 . S
C1628 C1630 1.394 . S
C1628 H1644 0.931 . S
C1629 C1628 1.391 . S
C1629 C1633 1.376 . S
C1630 C1628 1.394 . S
C1630 C1631 1.369 . S
C1630 C1634 1.531 . S
C1631 C1630 1.369 . S
C1631 C1632 1.410 . S
C1631 C1639 1.503 . S
C1632 C1631 1.410 . S
C1632 C1633 1.392 . S
C1632 C1635 1.511 . S
C1633 C1629 1.376 . S
C1633 C1632 1.392 . S
C1633 H1645 0.929 . S
C1634 C1630 1.531 . S
C1634 H1646 0.960 . S
C1634 H1647 0.962 . S
C1634 H1648 0.960 . S
C1635 C1632 1.511 . S
C1635 H1649 0.961 . S
C1635 H1650 0.961 . S
C1635 H1651 0.961 . S
C1636 C1637 1.370 . S
C1636 C1638 1.363 . S
C1636 H1652 0.931 . S
C1637 C1636 1.370 . S
C1637 C1641 1.408 . S
C1638 C1636 1.363 . S
C1638 C1639 1.370 . S
C1638 C1642 1.524 . S
C1639 C1631 1.503 . S
C1639 C1638 1.370 . S
C1639 C1640 1.403 . S
C1640 C1639 1.403 . S
C1640 C1641 1.404 . S
C1640 C1643 1.539 . S
C1641 C1637 1.408 . S
C1641 C1640 1.404 . S
C1641 H1653 0.930 . S
C1642 C1638 1.524 . S
C1642 H1654 0.956 . S
C1642 H1655 0.961 . S
C1642 H1656 0.961 . S
C1643 C1640 1.539 . S
C1643 H1657 0.958 . S
C1643 H1658 0.961 . S
C1643 H1659 0.960 . S
H1644 C1628 0.931 . S
H1645 C1633 0.929 . S
H1646 C1634 0.960 . S
H1647 C1634 0.962 . S
H1648 C1634 0.960 . S
H1649 C1635 0.961 . S
H1650 C1635 0.961 . S
H1651 C1635 0.961 . S
H1652 C1636 0.931 . S
H1653 C1641 0.930 . S
H1654 C1642 0.956 . S
H1655 C1642 0.961 . S
H1656 C1642 0.961 . S
H1657 C1643 0.958 . S
H1658 C1643 0.961 . S
H1659 C1643 0.960 . S
C1660 C1661 1.391 . S
C1660 C1662 1.394 . S
C1660 H1676 0.931 . S
C1661 C1660 1.391 . S
C1661 C1665 1.376 . S
C1662 C1660 1.394 . S
C1662 C1663 1.369 . S
C1662 C1666 1.531 . S
C1663 C1662 1.369 . S
C1663 C1664 1.410 . S
C1663 C1671 1.503 . S
C1664 C1663 1.410 . S
C1664 C1665 1.392 . S
C1664 C1667 1.511 . S
C1665 C1661 1.376 . S
C1665 C1664 1.392 . S
C1665 H1677 0.929 . S
C1666 C1662 1.531 . S
C1666 H1678 0.960 . S
C1666 H1679 0.962 . S
C1666 H1680 0.960 . S
C1667 C1664 1.511 . S
C1667 H1681 0.961 . S
C1667 H1682 0.961 . S
C1667 H1683 0.961 . S
C1668 C1669 1.370 . S
C1668 C1670 1.363 . S
C1668 H1684 0.931 . S
C1669 C1668 1.370 . S
C1669 C1673 1.408 . S
C1670 C1668 1.363 . S
C1670 C1671 1.370 . S
C1670 C1674 1.524 . S
C1671 C1663 1.503 . S
C1671 C1670 1.370 . S
C1671 C1672 1.403 . S
C1672 C1671 1.403 . S
C1672 C1673 1.404 . S
C1672 C1675 1.539 . S
C1673 C1669 1.408 . S
C1673 C1672 1.404 . S
C1673 H1685 0.930 . S
C1674 C1670 1.524 . S
C1674 H1686 0.956 . S
C1674 H1687 0.961 . S
C1674 H1688 0.961 . S
C1675 C1672 1.539 . S
C1675 H1689 0.958 . S
C1675 H1690 0.961 . S
C1675 H1691 0.960 . S
H1676 C1660 0.931 . S
H1677 C1665 0.929 . S
H1678 C1666 0.960 . S
H1679 C1666 0.962 . S
H1680 C1666 0.960 . S
H1681 C1667 0.961 . S
H1682 C1667 0.961 . S
H1683 C1667 0.961 . S
H1684 C1668 0.931 . S
H1685 C1673 0.930 . S
H1686 C1674 0.956 . S
H1687 C1674 0.961 . S
H1688 C1674 0.961 . S
H1689 C1675 0.958 . S
H1690 C1675 0.961 . S
H1691 C1675 0.960 . S
C1692 C1693 1.391 . S
C1692 C1694 1.394 . S
C1692 H1708 0.931 . S
C1693 C1692 1.391 . S
C1693 C1697 1.376 . S
C1694 C1692 1.394 . S
C1694 C1695 1.369 . S
C1694 C1698 1.531 . S
C1695 C1694 1.369 . S
C1695 C1696 1.410 . S
C1695 C1703 1.503 . S
C1696 C1695 1.410 . S
C1696 C1697 1.392 . S
C1696 C1699 1.511 . S
C1697 C1693 1.376 . S
C1697 C1696 1.392 . S
C1697 H1709 0.929 . S
C1698 C1694 1.531 . S
C1698 H1710 0.960 . S
C1698 H1711 0.962 . S
C1698 H1712 0.960 . S
C1699 C1696 1.511 . S
C1699 H1713 0.961 . S
C1699 H1714 0.961 . S
C1699 H1715 0.961 . S
C1700 C1701 1.370 . S
C1700 C1702 1.363 . S
C1700 H1716 0.931 . S
C1701 C1700 1.370 . S
C1701 C1705 1.408 . S
C1702 C1700 1.363 . S
C1702 C1703 1.370 . S
C1702 C1706 1.524 . S
C1703 C1695 1.503 . S
C1703 C1702 1.370 . S
C1703 C1704 1.403 . S
C1704 C1703 1.403 . S
C1704 C1705 1.404 . S
C1704 C1707 1.539 . S
C1705 C1701 1.408 . S
C1705 C1704 1.404 . S
C1705 H1717 0.930 . S
C1706 C1702 1.524 . S
C1706 H1718 0.956 . S
C1706 H1719 0.961 . S
C1706 H1720 0.961 . S
C1707 C1704 1.539 . S
C1707 H1721 0.958 . S
C1707 H1722 0.961 . S
C1707 H1723 0.960 . S
H1708 C1692 0.931 . S
H1709 C1697 0.929 . S
H1710 C1698 0.960 . S
H1711 C1698 0.962 . S
H1712 C1698 0.960 . S
H1713 C1699 0.961 . S
H1714 C1699 0.961 . S
H1715 C1699 0.961 . S
H1716 C1700 0.931 . S
H1717 C1705 0.930 . S
H1718 C1706 0.956 . S
H1719 C1706 0.961 . S
H1720 C1706 0.961 . S
H1721 C1707 0.958 . S
H1722 C1707 0.961 . S
H1723 C1707 0.960 . S
C1724 C1725 1.391 . S
C1724 C1726 1.394 . S
C1724 H1740 0.931 . S
C1725 C1724 1.391 . S
C1725 C1729 1.376 . S
C1726 C1724 1.394 . S
C1726 C1727 1.369 . S
C1726 C1730 1.531 . S
C1727 C1726 1.369 . S
C1727 C1728 1.410 . S
C1727 C1735 1.503 . S
C1728 C1727 1.410 . S
C1728 C1729 1.392 . S
C1728 C1731 1.511 . S
C1729 C1725 1.376 . S
C1729 C1728 1.392 . S
C1729 H1741 0.929 . S
C1730 C1726 1.531 . S
C1730 H1742 0.990 . S
C1730 H1743 0.962 . S
C1730 H1744 0.942 1_545 S
C1731 C1728 1.511 . S
C1731 H1745 0.961 . S
C1731 H1746 0.961 . S
C1731 H1747 0.961 . S
C1732 C1733 1.370 . S
C1732 C1734 1.363 . S
C1732 H1748 0.931 . S
C1733 C1732 1.370 . S
C1733 C1737 1.408 . S
C1734 C1732 1.363 . S
C1734 C1735 1.370 . S
C1734 C1738 1.524 . S
C1735 C1727 1.503 . S
C1735 C1734 1.370 . S
C1735 C1736 1.403 . S
C1736 C1735 1.403 . S
C1736 C1737 1.404 . S
C1736 C1739 1.539 1_545 S
C1737 C1733 1.408 . S
C1737 C1736 1.404 . S
C1737 H1749 0.930 1_545 S
C1738 C1734 1.524 . S
C1738 H1750 0.956 . S
C1738 H1751 0.961 . S
C1738 H1752 0.961 . S
C1739 C1736 1.539 1_565 S
C1739 H1753 0.958 . S
C1739 H1754 0.961 . S
C1739 H1755 0.960 . S
H1740 C1724 0.931 . S
H1741 C1729 0.929 . S
H1742 C1730 0.990 . S
H1743 C1730 0.962 . S
H1744 C1730 0.942 1_565 S
H1745 C1731 0.961 . S
H1746 C1731 0.961 . S
H1747 C1731 0.961 . S
H1748 C1732 0.931 . S
H1749 C1737 0.930 1_565 S
H1750 C1738 0.956 . S
H1751 C1738 0.961 . S
H1752 C1738 0.961 . S
H1753 C1739 0.958 . S
H1754 C1739 0.961 . S
H1755 C1739 0.960 . S
C1756 C1757 1.391 . S
C1756 C1758 1.394 . S
C1756 H1772 0.931 . S
C1757 C1756 1.391 . S
C1757 C1761 1.376 . S
C1758 C1756 1.394 . S
C1758 C1759 1.369 . S
C1758 C1762 1.531 . S
C1759 C1758 1.369 . S
C1759 C1760 1.410 . S
C1759 C1767 1.503 . S
C1760 C1759 1.410 . S
C1760 C1761 1.392 . S
C1760 C1763 1.511 . S
C1761 C1757 1.376 . S
C1761 C1760 1.392 . S
C1761 H1773 0.929 . S
C1762 C1758 1.531 . S
C1762 H1774 0.960 . S
C1762 H1775 0.962 . S
C1762 H1776 0.960 . S
C1763 C1760 1.511 . S
C1763 H1777 0.961 . S
C1763 H1778 0.961 . S
C1763 H1779 0.961 . S
C1764 C1765 1.370 . S
C1764 C1766 1.363 . S
C1764 H1780 0.931 . S
C1765 C1764 1.370 . S
C1765 C1769 1.408 . S
C1766 C1764 1.363 . S
C1766 C1767 1.370 . S
C1766 C1770 1.524 . S
C1767 C1759 1.503 . S
C1767 C1766 1.370 . S
C1767 C1768 1.403 . S
C1768 C1767 1.403 . S
C1768 C1769 1.404 . S
C1768 C1771 1.539 . S
C1769 C1765 1.408 . S
C1769 C1768 1.404 . S
C1769 H1781 0.930 . S
C1770 C1766 1.524 . S
C1770 H1782 0.956 . S
C1770 H1783 0.961 . S
C1770 H1784 0.961 . S
C1771 C1768 1.539 . S
C1771 H1785 0.958 . S
C1771 H1786 0.961 . S
C1771 H1787 0.960 . S
H1772 C1756 0.931 . S
H1773 C1761 0.929 . S
H1774 C1762 0.960 . S
H1775 C1762 0.962 . S
H1776 C1762 0.960 . S
H1777 C1763 0.961 . S
H1778 C1763 0.961 . S
H1779 C1763 0.961 . S
H1780 C1764 0.931 . S
H1781 C1769 0.930 . S
H1782 C1770 0.956 . S
H1783 C1770 0.961 . S
H1784 C1770 0.961 . S
H1785 C1771 0.958 . S
H1786 C1771 0.961 . S
H1787 C1771 0.960 . S
C1788 C1789 1.391 . S
C1788 C1790 1.394 . S
C1788 H1804 0.931 . S
C1789 C1788 1.391 . S
C1789 C1793 1.376 . S
C1790 C1788 1.394 . S
C1790 C1791 1.369 . S
C1790 C1794 1.531 . S
C1791 C1790 1.369 . S
C1791 C1792 1.410 . S
C1791 C1799 1.503 . S
C1792 C1791 1.410 . S
C1792 C1793 1.392 . S
C1792 C1795 1.511 . S
C1793 C1789 1.376 . S
C1793 C1792 1.392 . S
C1793 H1805 0.929 . S
C1794 C1790 1.531 . S
C1794 H1806 0.960 . S
C1794 H1807 0.962 . S
C1794 H1808 0.960 . S
C1795 C1792 1.511 . S
C1795 H1809 0.961 . S
C1795 H1810 0.961 . S
C1795 H1811 0.961 . S
C1796 C1797 1.370 . S
C1796 C1798 1.363 . S
C1796 H1812 0.931 . S
C1797 C1796 1.370 . S
C1797 C1801 1.408 . S
C1798 C1796 1.363 . S
C1798 C1799 1.370 . S
C1798 C1802 1.524 . S
C1799 C1791 1.503 . S
C1799 C1798 1.370 . S
C1799 C1800 1.403 . S
C1800 C1799 1.403 . S
C1800 C1801 1.404 . S
C1800 C1803 1.539 . S
C1801 C1797 1.408 . S
C1801 C1800 1.404 . S
C1801 H1813 0.930 . S
C1802 C1798 1.524 . S
C1802 H1814 0.956 . S
C1802 H1815 0.961 . S
C1802 H1816 0.961 . S
C1803 C1800 1.539 . S
C1803 H1817 0.958 . S
C1803 H1818 0.961 . S
C1803 H1819 0.960 . S
H1804 C1788 0.931 . S
H1805 C1793 0.929 . S
H1806 C1794 0.960 . S
H1807 C1794 0.962 . S
H1808 C1794 0.960 . S
H1809 C1795 0.961 . S
H1810 C1795 0.961 . S
H1811 C1795 0.961 . S
H1812 C1796 0.931 . S
H1813 C1801 0.930 . S
H1814 C1802 0.956 . S
H1815 C1802 0.961 . S
H1816 C1802 0.961 . S
H1817 C1803 0.958 . S
H1818 C1803 0.961 . S
H1819 C1803 0.960 . S
C1820 C1821 1.391 . S
C1820 C1822 1.394 . S
C1820 H1836 0.931 . S
C1821 C1820 1.391 . S
C1821 C1825 1.376 . S
C1822 C1820 1.394 . S
C1822 C1823 1.369 . S
C1822 C1826 1.531 . S
C1823 C1822 1.369 . S
C1823 C1824 1.410 . S
C1823 C1831 1.503 . S
C1824 C1823 1.410 . S
C1824 C1825 1.392 . S
C1824 C1827 1.511 . S
C1825 C1821 1.376 . S
C1825 C1824 1.392 . S
C1825 H1837 0.929 . S
C1826 C1822 1.531 . S
C1826 H1838 0.960 . S
C1826 H1839 0.962 . S
C1826 H1840 0.960 . S
C1827 C1824 1.511 . S
C1827 H1841 0.961 . S
C1827 H1842 0.961 . S
C1827 H1843 0.961 . S
C1828 C1829 1.370 . S
C1828 C1830 1.363 . S
C1828 H1844 0.931 . S
C1829 C1828 1.370 . S
C1829 C1833 1.408 . S
C1830 C1828 1.363 . S
C1830 C1831 1.370 . S
C1830 C1834 1.524 . S
C1831 C1823 1.503 . S
C1831 C1830 1.370 . S
C1831 C1832 1.403 . S
C1832 C1831 1.403 . S
C1832 C1833 1.404 . S
C1832 C1835 1.539 . S
C1833 C1829 1.408 . S
C1833 C1832 1.404 . S
C1833 H1845 0.930 . S
C1834 C1830 1.524 . S
C1834 H1846 0.956 . S
C1834 H1847 0.961 . S
C1834 H1848 0.961 . S
C1835 C1832 1.539 . S
C1835 H1849 0.958 . S
C1835 H1850 0.961 . S
C1835 H1851 0.960 . S
H1836 C1820 0.931 . S
H1837 C1825 0.929 . S
H1838 C1826 0.960 . S
H1839 C1826 0.962 . S
H1840 C1826 0.960 . S
H1841 C1827 0.961 . S
H1842 C1827 0.961 . S
H1843 C1827 0.961 . S
H1844 C1828 0.931 . S
H1845 C1833 0.930 . S
H1846 C1834 0.956 . S
H1847 C1834 0.961 . S
H1848 C1834 0.961 . S
H1849 C1835 0.958 . S
H1850 C1835 0.961 . S
H1851 C1835 0.960 . S
C1852 C1853 1.391 . S
C1852 C1854 1.394 . S
C1852 H1868 0.931 . S
C1853 C1852 1.391 . S
C1853 C1857 1.376 . S
C1854 C1852 1.394 . S
C1854 C1855 1.369 . S
C1854 C1858 1.531 . S
C1855 C1854 1.369 . S
C1855 C1856 1.411 . S
C1855 C1863 1.503 . S
C1856 C1855 1.411 . S
C1856 C1857 1.393 . S
C1856 C1859 1.510 1_655 S
C1857 C1853 1.376 . S
C1857 C1856 1.393 . S
C1857 H1869 0.929 1_655 S
C1858 C1854 1.531 . S
C1858 H1870 0.960 . S
C1858 H1871 0.962 . S
C1858 H1872 0.960 . S
C1859 C1856 1.510 1_455 S
C1859 H1873 0.961 . S
C1859 H1874 0.961 . S
C1859 H1875 0.961 . S
C1860 C1861 1.370 1_455 S
C1860 C1862 1.376 . S
C1860 H1876 0.931 . S
C1861 C1860 1.370 1_655 S
C1861 C1865 1.408 . S
C1862 C1860 1.376 . S
C1862 C1863 1.334 1_455 S
C1862 C1866 1.551 . S
C1863 C1855 1.503 . S
C1863 C1862 1.334 1_655 S
C1863 C1864 1.403 . S
C1864 C1863 1.403 . S
C1864 C1865 1.404 . S
C1864 C1867 1.539 . S
C1865 C1861 1.408 . S
C1865 C1864 1.404 . S
C1865 H1877 0.930 . S
C1866 C1862 1.551 . S
C1866 H1878 0.952 . S
C1866 H1879 0.961 . S
C1866 H1880 0.961 . S
C1867 C1864 1.539 . S
C1867 H1881 0.958 . S
C1867 H1882 0.961 . S
C1867 H1883 0.960 . S
H1868 C1852 0.931 . S
H1869 C1857 0.929 1_455 S
H1870 C1858 0.960 . S
H1871 C1858 0.962 . S
H1872 C1858 0.960 . S
H1873 C1859 0.961 . S
H1874 C1859 0.961 . S
H1875 C1859 0.961 . S
H1876 C1860 0.931 . S
H1877 C1865 0.930 . S
H1878 C1866 0.952 . S
H1879 C1866 0.961 . S
H1880 C1866 0.961 . S
H1881 C1867 0.958 . S
H1882 C1867 0.961 . S
H1883 C1867 0.960 . S
C1884 C1885 1.391 . S
C1884 C1886 1.394 . S
C1884 H1900 0.931 . S
C1885 C1884 1.391 . S
C1885 C1889 1.376 . S
C1886 C1884 1.394 . S
C1886 C1887 1.369 . S
C1886 C1890 1.531 . S
C1887 C1886 1.369 . S
C1887 C1888 1.410 . S
C1887 C1895 1.503 . S
C1888 C1887 1.410 . S
C1888 C1889 1.392 . S
C1888 C1891 1.511 . S
C1889 C1885 1.376 . S
C1889 C1888 1.392 . S
C1889 H1901 0.929 . S
C1890 C1886 1.531 . S
C1890 H1902 0.960 . S
C1890 H1903 0.962 . S
C1890 H1904 0.960 . S
C1891 C1888 1.511 . S
C1891 H1905 0.961 . S
C1891 H1906 0.961 . S
C1891 H1907 0.961 . S
C1892 C1893 1.370 . S
C1892 C1894 1.363 . S
C1892 H1908 0.931 . S
C1893 C1892 1.370 . S
C1893 C1897 1.408 . S
C1894 C1892 1.363 . S
C1894 C1895 1.370 . S
C1894 C1898 1.524 . S
C1895 C1887 1.503 . S
C1895 C1894 1.370 . S
C1895 C1896 1.403 . S
C1896 C1895 1.403 . S
C1896 C1897 1.404 . S
C1896 C1899 1.539 . S
C1897 C1893 1.408 . S
C1897 C1896 1.404 . S
C1897 H1909 0.930 . S
C1898 C1894 1.524 . S
C1898 H1910 0.956 . S
C1898 H1911 0.961 . S
C1898 H1912 0.961 . S
C1899 C1896 1.539 . S
C1899 H1913 0.958 . S
C1899 H1914 0.961 . S
C1899 H1915 0.960 . S
H1900 C1884 0.931 . S
H1901 C1889 0.929 . S
H1902 C1890 0.960 . S
H1903 C1890 0.962 . S
H1904 C1890 0.960 . S
H1905 C1891 0.961 . S
H1906 C1891 0.961 . S
H1907 C1891 0.961 . S
H1908 C1892 0.931 . S
H1909 C1897 0.930 . S
H1910 C1898 0.956 . S
H1911 C1898 0.961 . S
H1912 C1898 0.961 . S
H1913 C1899 0.958 . S
H1914 C1899 0.961 . S
H1915 C1899 0.960 . S
C1916 C1917 1.391 . S
C1916 C1918 1.394 . S
C1916 H1932 0.931 . S
C1917 C1916 1.391 . S
C1917 C1921 1.376 . S
C1918 C1916 1.394 . S
C1918 C1919 1.369 . S
C1918 C1922 1.531 . S
C1919 C1918 1.369 . S
C1919 C1920 1.410 . S
C1919 C1927 1.503 . S
C1920 C1919 1.410 . S
C1920 C1921 1.392 . S
C1920 C1923 1.511 1_455 S
C1921 C1917 1.376 . S
C1921 C1920 1.392 . S
C1921 H1933 0.929 . S
C1922 C1918 1.531 . S
C1922 H1934 0.960 . S
C1922 H1935 0.962 . S
C1922 H1936 0.960 . S
C1923 C1920 1.511 1_655 S
C1923 H1937 0.961 . S
C1923 H1938 0.961 . S
C1923 H1939 0.961 . S
C1924 C1925 1.370 . S
C1924 C1926 1.363 . S
C1924 H1940 0.931 . S
C1925 C1924 1.370 . S
C1925 C1929 1.408 1_455 S
C1926 C1924 1.363 . S
C1926 C1927 1.370 . S
C1926 C1930 1.524 . S
C1927 C1919 1.503 . S
C1927 C1926 1.370 . S
C1927 C1928 1.403 1_455 S
C1928 C1927 1.403 1_655 S
C1928 C1929 1.404 . S
C1928 C1931 1.539 . S
C1929 C1925 1.408 1_655 S
C1929 C1928 1.404 . S
C1929 H1941 0.930 . S
C1930 C1926 1.524 . S
C1930 H1942 0.956 . S
C1930 H1943 0.961 . S
C1930 H1944 0.961 . S
C1931 C1928 1.539 . S
C1931 H1945 0.958 . S
C1931 H1946 0.961 . S
C1931 H1947 0.960 . S
H1932 C1916 0.931 . S
H1933 C1921 0.929 . S
H1934 C1922 0.960 . S
H1935 C1922 0.962 . S
H1936 C1922 0.960 . S
H1937 C1923 0.961 . S
H1938 C1923 0.961 . S
H1939 C1923 0.961 . S
H1940 C1924 0.931 . S
H1941 C1929 0.930 . S
H1942 C1930 0.956 . S
H1943 C1930 0.961 . S
H1944 C1930 0.961 . S
H1945 C1931 0.958 . S
H1946 C1931 0.961 . S
H1947 C1931 0.960 . S
C1948 C1949 1.391 . S
C1948 C1950 1.394 . S
C1948 H1964 0.931 . S
C1949 C1948 1.391 . S
C1949 C1953 1.376 . S
C1950 C1948 1.394 . S
C1950 C1951 1.369 . S
C1950 C1954 1.531 . S
C1951 C1950 1.369 . S
C1951 C1952 1.410 . S
C1951 C1959 1.503 . S
C1952 C1951 1.410 . S
C1952 C1953 1.392 . S
C1952 C1955 1.511 . S
C1953 C1949 1.376 . S
C1953 C1952 1.392 . S
C1953 H1965 0.929 . S
C1954 C1950 1.531 . S
C1954 H1966 0.960 . S
C1954 H1967 0.962 . S
C1954 H1968 0.960 . S
C1955 C1952 1.511 . S
C1955 H1969 0.961 . S
C1955 H1970 0.961 . S
C1955 H1971 0.961 . S
C1956 C1957 1.370 . S
C1956 C1958 1.363 . S
C1956 H1972 0.931 . S
C1957 C1956 1.370 . S
C1957 C1961 1.408 . S
C1958 C1956 1.363 . S
C1958 C1959 1.370 . S
C1958 C1962 1.524 . S
C1959 C1951 1.503 . S
C1959 C1958 1.370 . S
C1959 C1960 1.403 . S
C1960 C1959 1.403 . S
C1960 C1961 1.404 . S
C1960 C1963 1.539 . S
C1961 C1957 1.408 . S
C1961 C1960 1.404 . S
C1961 H1973 0.930 . S
C1962 C1958 1.524 . S
C1962 H1974 0.956 . S
C1962 H1975 0.961 . S
C1962 H1976 0.961 . S
C1963 C1960 1.539 . S
C1963 H1977 0.958 . S
C1963 H1978 0.961 . S
C1963 H1979 0.960 . S
H1964 C1948 0.931 . S
H1965 C1953 0.929 . S
H1966 C1954 0.960 . S
H1967 C1954 0.962 . S
H1968 C1954 0.960 . S
H1969 C1955 0.961 . S
H1970 C1955 0.961 . S
H1971 C1955 0.961 . S
H1972 C1956 0.931 . S
H1973 C1961 0.930 . S
H1974 C1962 0.956 . S
H1975 C1962 0.961 . S
H1976 C1962 0.961 . S
H1977 C1963 0.958 . S
H1978 C1963 0.961 . S
H1979 C1963 0.960 . S
C1980 C1981 1.391 . S
C1980 C1982 1.394 . S
C1980 H1996 0.931 . S
C1981 C1980 1.391 . S
C1981 C1985 1.376 . S
C1982 C1980 1.394 . S
C1982 C1983 1.369 . S
C1982 C1986 1.531 . S
C1983 C1982 1.369 . S
C1983 C1984 1.410 . S
C1983 C1991 1.503 . S
C1984 C1983 1.410 . S
C1984 C1985 1.392 . S
C1984 C1987 1.511 . S
C1985 C1981 1.376 . S
C1985 C1984 1.392 . S
C1985 H1997 0.929 . S
C1986 C1982 1.531 . S
C1986 H1998 0.960 . S
C1986 H1999 0.962 . S
C1986 H2000 0.960 . S
C1987 C1984 1.511 . S
C1987 H2001 0.961 . S
C1987 H2002 0.961 . S
C1987 H2003 0.961 . S
C1988 C1989 1.370 . S
C1988 C1990 1.363 . S
C1988 H2004 0.931 . S
C1989 C1988 1.370 . S
C1989 C1993 1.408 . S
C1990 C1988 1.363 . S
C1990 C1991 1.370 . S
C1990 C1994 1.524 . S
C1991 C1983 1.503 . S
C1991 C1990 1.370 . S
C1991 C1992 1.403 . S
C1992 C1991 1.403 . S
C1992 C1993 1.404 . S
C1992 C1995 1.539 . S
C1993 C1989 1.408 . S
C1993 C1992 1.404 . S
C1993 H2005 0.930 . S
C1994 C1990 1.524 . S
C1994 H2006 0.956 . S
C1994 H2007 0.961 . S
C1994 H2008 0.961 . S
C1995 C1992 1.539 . S
C1995 H2009 0.958 . S
C1995 H2010 0.961 . S
C1995 H2011 0.960 . S
H1996 C1980 0.931 . S
H1997 C1985 0.929 . S
H1998 C1986 0.960 . S
H1999 C1986 0.962 . S
H2000 C1986 0.960 . S
H2001 C1987 0.961 . S
H2002 C1987 0.961 . S
H2003 C1987 0.961 . S
H2004 C1988 0.931 . S
H2005 C1993 0.930 . S
H2006 C1994 0.956 . S
H2007 C1994 0.961 . S
H2008 C1994 0.961 . S
H2009 C1995 0.958 . S
H2010 C1995 0.961 . S
H2011 C1995 0.960 . S
C2012 C2013 1.391 . S
C2012 C2014 1.394 . S
C2012 H2028 0.931 . S
C2013 C2012 1.391 . S
C2013 C2017 1.376 . S
C2014 C2012 1.394 . S
C2014 C2015 1.369 . S
C2014 C2018 1.531 . S
C2015 C2014 1.369 . S
C2015 C2016 1.410 . S
C2015 C2023 1.503 . S
C2016 C2015 1.410 . S
C2016 C2017 1.392 . S
C2016 C2019 1.511 . S
C2017 C2013 1.376 . S
C2017 C2016 1.392 . S
C2017 H2029 0.929 . S
C2018 C2014 1.531 . S
C2018 H2030 0.960 . S
C2018 H2031 0.962 . S
C2018 H2032 0.960 . S
C2019 C2016 1.511 . S
C2019 H2033 0.961 . S
C2019 H2034 0.961 . S
C2019 H2035 0.961 . S
C2020 C2021 1.370 . S
C2020 C2022 1.363 . S
C2020 H2036 0.931 . S
C2021 C2020 1.370 . S
C2021 C2025 1.408 . S
C2022 C2020 1.363 . S
C2022 C2023 1.370 . S
C2022 C2026 1.524 . S
C2023 C2015 1.503 . S
C2023 C2022 1.370 . S
C2023 C2024 1.403 . S
C2024 C2023 1.403 . S
C2024 C2025 1.404 . S
C2024 C2027 1.539 . S
C2025 C2021 1.408 . S
C2025 C2024 1.404 . S
C2025 H2037 0.930 . S
C2026 C2022 1.524 . S
C2026 H2038 0.956 . S
C2026 H2039 0.961 . S
C2026 H2040 0.961 . S
C2027 C2024 1.539 . S
C2027 H2041 0.958 . S
C2027 H2042 0.961 . S
C2027 H2043 0.960 . S
H2028 C2012 0.931 . S
H2029 C2017 0.929 . S
H2030 C2018 0.960 . S
H2031 C2018 0.962 . S
H2032 C2018 0.960 . S
H2033 C2019 0.961 . S
H2034 C2019 0.961 . S
H2035 C2019 0.961 . S
H2036 C2020 0.931 . S
H2037 C2025 0.930 . S
H2038 C2026 0.956 . S
H2039 C2026 0.961 . S
H2040 C2026 0.961 . S
H2041 C2027 0.958 . S
H2042 C2027 0.961 . S
H2043 C2027 0.960 . S
C2044 C2045 1.391 . S
C2044 C2046 1.394 . S
C2044 H2060 0.931 . S
C2045 C2044 1.391 . S
C2045 C2049 1.376 . S
C2046 C2044 1.394 . S
C2046 C2047 1.369 . S
C2046 C2050 1.531 . S
C2047 C2046 1.369 . S
C2047 C2048 1.410 . S
C2047 C2055 1.503 . S
C2048 C2047 1.410 . S
C2048 C2049 1.392 . S
C2048 C2051 1.511 . S
C2049 C2045 1.376 . S
C2049 C2048 1.392 . S
C2049 H2061 0.929 . S
C2050 C2046 1.531 . S
C2050 H2062 0.960 . S
C2050 H2063 0.962 . S
C2050 H2064 0.960 . S
C2051 C2048 1.511 . S
C2051 H2065 0.961 . S
C2051 H2066 0.961 . S
C2051 H2067 0.961 . S
C2052 C2053 1.370 . S
C2052 C2054 1.363 . S
C2052 H2068 0.931 . S
C2053 C2052 1.370 . S
C2053 C2057 1.408 . S
C2054 C2052 1.363 . S
C2054 C2055 1.370 . S
C2054 C2058 1.524 . S
C2055 C2047 1.503 . S
C2055 C2054 1.370 . S
C2055 C2056 1.403 . S
C2056 C2055 1.403 . S
C2056 C2057 1.404 . S
C2056 C2059 1.539 . S
C2057 C2053 1.408 . S
C2057 C2056 1.404 . S
C2057 H2069 0.930 . S
C2058 C2054 1.524 . S
C2058 H2070 0.956 . S
C2058 H2071 0.961 . S
C2058 H2072 0.961 . S
C2059 C2056 1.539 . S
C2059 H2073 0.958 . S
C2059 H2074 0.961 . S
C2059 H2075 0.960 . S
H2060 C2044 0.931 . S
H2061 C2049 0.929 . S
H2062 C2050 0.960 . S
H2063 C2050 0.962 . S
H2064 C2050 0.960 . S
H2065 C2051 0.961 . S
H2066 C2051 0.961 . S
H2067 C2051 0.961 . S
H2068 C2052 0.931 . S
H2069 C2057 0.930 . S
H2070 C2058 0.956 . S
H2071 C2058 0.961 . S
H2072 C2058 0.961 . S
H2073 C2059 0.958 . S
H2074 C2059 0.961 . S
H2075 C2059 0.960 . S
C2076 C2077 1.391 . S
C2076 C2078 1.394 . S
C2076 H2092 0.931 . S
C2077 C2076 1.391 . S
C2077 C2081 1.376 . S
C2078 C2076 1.394 . S
C2078 C2079 1.369 . S
C2078 C2082 1.531 . S
C2079 C2078 1.369 . S
C2079 C2080 1.410 . S
C2079 C2087 1.503 . S
C2080 C2079 1.410 . S
C2080 C2081 1.392 . S
C2080 C2083 1.511 . S
C2081 C2077 1.376 . S
C2081 C2080 1.392 . S
C2081 H2093 0.929 . S
C2082 C2078 1.531 . S
C2082 H2094 0.960 . S
C2082 H2095 0.962 . S
C2082 H2096 0.960 . S
C2083 C2080 1.511 . S
C2083 H2097 0.961 . S
C2083 H2098 0.961 . S
C2083 H2099 0.961 . S
C2084 C2085 1.370 . S
C2084 C2086 1.363 . S
C2084 H2100 0.931 . S
C2085 C2084 1.370 . S
C2085 C2089 1.408 . S
C2086 C2084 1.363 . S
C2086 C2087 1.370 . S
C2086 C2090 1.524 . S
C2087 C2079 1.503 . S
C2087 C2086 1.370 . S
C2087 C2088 1.403 . S
C2088 C2087 1.403 . S
C2088 C2089 1.404 . S
C2088 C2091 1.539 . S
C2089 C2085 1.408 . S
C2089 C2088 1.404 . S
C2089 H2101 0.930 . S
C2090 C2086 1.524 . S
C2090 H2102 0.956 . S
C2090 H2103 0.961 . S
C2090 H2104 0.961 . S
C2091 C2088 1.539 . S
C2091 H2105 0.958 . S
C2091 H2106 0.961 . S
C2091 H2107 0.960 . S
H2092 C2076 0.931 . S
H2093 C2081 0.929 . S
H2094 C2082 0.960 . S
H2095 C2082 0.962 . S
H2096 C2082 0.960 . S
H2097 C2083 0.961 . S
H2098 C2083 0.961 . S
H2099 C2083 0.961 . S
H2100 C2084 0.931 . S
H2101 C2089 0.930 . S
H2102 C2090 0.956 . S
H2103 C2090 0.961 . S
H2104 C2090 0.961 . S
H2105 C2091 0.958 . S
H2106 C2091 0.961 . S
H2107 C2091 0.960 . S
C2108 C2109 1.391 . S
C2108 C2110 1.394 . S
C2108 H2124 0.931 . S
C2109 C2108 1.391 . S
C2109 C2113 1.376 . S
C2110 C2108 1.394 . S
C2110 C2111 1.369 . S
C2110 C2114 1.531 . S
C2111 C2110 1.369 . S
C2111 C2112 1.410 . S
C2111 C2119 1.503 . S
C2112 C2111 1.410 . S
C2112 C2113 1.392 . S
C2112 C2115 1.511 . S
C2113 C2109 1.376 . S
C2113 C2112 1.392 . S
C2113 H2125 0.929 . S
C2114 C2110 1.531 . S
C2114 H2126 0.960 . S
C2114 H2127 0.962 . S
C2114 H2128 0.960 . S
C2115 C2112 1.511 . S
C2115 H2129 0.961 . S
C2115 H2130 0.961 . S
C2115 H2131 0.961 . S
C2116 C2117 1.370 . S
C2116 C2118 1.363 . S
C2116 H2132 0.931 . S
C2117 C2116 1.370 . S
C2117 C2121 1.408 . S
C2118 C2116 1.363 . S
C2118 C2119 1.370 . S
C2118 C2122 1.524 . S
C2119 C2111 1.503 . S
C2119 C2118 1.370 . S
C2119 C2120 1.403 . S
C2120 C2119 1.403 . S
C2120 C2121 1.404 . S
C2120 C2123 1.539 . S
C2121 C2117 1.408 . S
C2121 C2120 1.404 . S
C2121 H2133 0.930 . S
C2122 C2118 1.524 . S
C2122 H2134 0.956 . S
C2122 H2135 0.961 . S
C2122 H2136 0.961 . S
C2123 C2120 1.539 . S
C2123 H2137 0.958 . S
C2123 H2138 0.961 . S
C2123 H2139 0.960 . S
H2124 C2108 0.931 . S
H2125 C2113 0.929 . S
H2126 C2114 0.960 . S
H2127 C2114 0.962 . S
H2128 C2114 0.960 . S
H2129 C2115 0.961 . S
H2130 C2115 0.961 . S
H2131 C2115 0.961 . S
H2132 C2116 0.931 . S
H2133 C2121 0.930 . S
H2134 C2122 0.956 . S
H2135 C2122 0.961 . S
H2136 C2122 0.961 . S
H2137 C2123 0.958 . S
H2138 C2123 0.961 . S
H2139 C2123 0.960 . S
C2140 C2141 1.391 . S
C2140 C2142 1.394 . S
C2140 H2156 0.931 . S
C2141 C2140 1.391 . S
C2141 C2145 1.376 . S
C2142 C2140 1.394 . S
C2142 C2143 1.369 . S
C2142 C2146 1.531 . S
C2143 C2142 1.369 . S
C2143 C2144 1.410 . S
C2143 C2151 1.503 . S
C2144 C2143 1.410 . S
C2144 C2145 1.392 . S
C2144 C2147 1.511 . S
C2145 C2141 1.376 . S
C2145 C2144 1.392 . S
C2145 H2157 0.929 . S
C2146 C2142 1.531 . S
C2146 H2158 0.960 . S
C2146 H2159 0.962 . S
C2146 H2160 0.960 . S
C2147 C2144 1.511 . S
C2147 H2161 0.961 . S
C2147 H2162 0.961 . S
C2147 H2163 0.961 . S
C2148 C2149 1.370 . S
C2148 C2150 1.363 . S
C2148 H2164 0.931 . S
C2149 C2148 1.370 . S
C2149 C2153 1.408 . S
C2150 C2148 1.363 . S
C2150 C2151 1.370 . S
C2150 C2154 1.524 . S
C2151 C2143 1.503 . S
C2151 C2150 1.370 . S
C2151 C2152 1.403 . S
C2152 C2151 1.403 . S
C2152 C2153 1.404 . S
C2152 C2155 1.539 . S
C2153 C2149 1.408 . S
C2153 C2152 1.404 . S
C2153 H2165 0.930 . S
C2154 C2150 1.524 . S
C2154 H2166 0.956 . S
C2154 H2167 0.961 . S
C2154 H2168 0.961 . S
C2155 C2152 1.539 . S
C2155 H2169 0.958 . S
C2155 H2170 0.961 . S
C2155 H2171 0.960 . S
H2156 C2140 0.931 . S
H2157 C2145 0.929 . S
H2158 C2146 0.960 . S
H2159 C2146 0.962 . S
H2160 C2146 0.960 . S
H2161 C2147 0.961 . S
H2162 C2147 0.961 . S
H2163 C2147 0.961 . S
H2164 C2148 0.931 . S
H2165 C2153 0.930 . S
H2166 C2154 0.956 . S
H2167 C2154 0.961 . S
H2168 C2154 0.961 . S
H2169 C2155 0.958 . S
H2170 C2155 0.961 . S
H2171 C2155 0.960 . S
C2172 C2173 1.391 . S
C2172 C2174 1.394 . S
C2172 H2188 0.931 . S
C2173 C2172 1.391 . S
C2173 C2177 1.376 . S
C2174 C2172 1.394 . S
C2174 C2175 1.369 . S
C2174 C2178 1.531 . S
C2175 C2174 1.369 . S
C2175 C2176 1.410 . S
C2175 C2183 1.503 . S
C2176 C2175 1.410 . S
C2176 C2177 1.392 . S
C2176 C2179 1.511 . S
C2177 C2173 1.376 . S
C2177 C2176 1.392 . S
C2177 H2189 0.929 . S
C2178 C2174 1.531 . S
C2178 H2190 0.960 . S
C2178 H2191 0.962 . S
C2178 H2192 0.960 . S
C2179 C2176 1.511 . S
C2179 H2193 0.961 . S
C2179 H2194 0.961 . S
C2179 H2195 0.961 . S
C2180 C2181 1.370 . S
C2180 C2182 1.363 . S
C2180 H2196 0.931 . S
C2181 C2180 1.370 . S
C2181 C2185 1.408 . S
C2182 C2180 1.363 . S
C2182 C2183 1.370 . S
C2182 C2186 1.524 . S
C2183 C2175 1.503 . S
C2183 C2182 1.370 . S
C2183 C2184 1.403 . S
C2184 C2183 1.403 . S
C2184 C2185 1.404 . S
C2184 C2187 1.539 . S
C2185 C2181 1.408 . S
C2185 C2184 1.404 . S
C2185 H2197 0.930 . S
C2186 C2182 1.524 . S
C2186 H2198 0.956 . S
C2186 H2199 0.961 . S
C2186 H2200 0.961 . S
C2187 C2184 1.539 . S
C2187 H2201 0.958 . S
C2187 H2202 0.961 . S
C2187 H2203 0.960 . S
H2188 C2172 0.931 . S
H2189 C2177 0.929 . S
H2190 C2178 0.960 . S
H2191 C2178 0.962 . S
H2192 C2178 0.960 . S
H2193 C2179 0.961 . S
H2194 C2179 0.961 . S
H2195 C2179 0.961 . S
H2196 C2180 0.931 . S
H2197 C2185 0.930 . S
H2198 C2186 0.956 . S
H2199 C2186 0.961 . S
H2200 C2186 0.961 . S
H2201 C2187 0.958 . S
H2202 C2187 0.961 . S
H2203 C2187 0.960 . S
C2204 C2205 1.391 . S
C2204 C2206 1.394 . S
C2204 H2220 0.931 . S
C2205 C2204 1.391 . S
C2205 C2209 1.376 . S
C2206 C2204 1.394 . S
C2206 C2207 1.369 . S
C2206 C2210 1.531 . S
C2207 C2206 1.369 . S
C2207 C2208 1.410 . S
C2207 C2215 1.503 . S
C2208 C2207 1.410 . S
C2208 C2209 1.392 . S
C2208 C2211 1.511 . S
C2209 C2205 1.376 . S
C2209 C2208 1.392 . S
C2209 H2221 0.929 . S
C2210 C2206 1.531 . S
C2210 H2222 0.960 . S
C2210 H2223 0.962 . S
C2210 H2224 0.960 . S
C2211 C2208 1.511 . S
C2211 H2225 0.961 . S
C2211 H2226 0.961 . S
C2211 H2227 0.961 1_556 S
C2212 C2213 1.370 . S
C2212 C2214 1.363 . S
C2212 H2228 0.931 . S
C2213 C2212 1.370 . S
C2213 C2217 1.408 1_556 S
C2214 C2212 1.363 . S
C2214 C2215 1.370 . S
C2214 C2218 1.524 . S
C2215 C2207 1.503 . S
C2215 C2214 1.370 . S
C2215 C2216 1.403 1_556 S
C2216 C2215 1.403 1_554 S
C2216 C2217 1.404 . S
C2216 C2219 1.539 . S
C2217 C2213 1.408 1_554 S
C2217 C2216 1.404 . S
C2217 H2229 0.930 . S
C2218 C2214 1.524 . S
C2218 H2230 0.956 . S
C2218 H2231 0.961 . S
C2218 H2232 0.961 . S
C2219 C2216 1.539 . S
C2219 H2233 0.958 . S
C2219 H2234 0.961 . S
C2219 H2235 0.960 . S
H2220 C2204 0.931 . S
H2221 C2209 0.929 . S
H2222 C2210 0.960 . S
H2223 C2210 0.962 . S
H2224 C2210 0.960 . S
H2225 C2211 0.961 . S
H2226 C2211 0.961 . S
H2227 C2211 0.961 1_554 S
H2228 C2212 0.931 . S
H2229 C2217 0.930 . S
H2230 C2218 0.956 . S
H2231 C2218 0.961 . S
H2232 C2218 0.961 . S
H2233 C2219 0.958 . S
H2234 C2219 0.961 . S
H2235 C2219 0.960 . S
C2236 C2237 1.391 . S
C2236 C2238 1.394 . S
C2236 H2252 0.931 . S
C2237 C2236 1.391 . S
C2237 C2241 1.376 . S
C2238 C2236 1.394 . S
C2238 C2239 1.369 . S
C2238 C2242 1.531 . S
C2239 C2238 1.369 . S
C2239 C2240 1.410 . S
C2239 C2247 1.503 . S
C2240 C2239 1.410 . S
C2240 C2241 1.392 . S
C2240 C2243 1.511 . S
C2241 C2237 1.376 . S
C2241 C2240 1.392 . S
C2241 H2253 0.929 . S
C2242 C2238 1.531 . S
C2242 H2254 0.960 . S
C2242 H2255 0.962 . S
C2242 H2256 0.960 . S
C2243 C2240 1.511 . S
C2243 H2257 0.961 . S
C2243 H2258 0.961 . S
C2243 H2259 0.961 . S
C2244 C2245 1.370 . S
C2244 C2246 1.363 . S
C2244 H2260 0.931 . S
C2245 C2244 1.370 . S
C2245 C2249 1.408 . S
C2246 C2244 1.363 . S
C2246 C2247 1.370 . S
C2246 C2250 1.524 . S
C2247 C2239 1.503 . S
C2247 C2246 1.370 . S
C2247 C2248 1.403 . S
C2248 C2247 1.403 . S
C2248 C2249 1.404 . S
C2248 C2251 1.539 . S
C2249 C2245 1.408 . S
C2249 C2248 1.404 . S
C2249 H2261 0.930 . S
C2250 C2246 1.524 . S
C2250 H2262 0.956 . S
C2250 H2263 0.961 . S
C2250 H2264 0.961 . S
C2251 C2248 1.539 . S
C2251 H2265 0.958 . S
C2251 H2266 0.961 . S
C2251 H2267 0.960 . S
H2252 C2236 0.931 . S
H2253 C2241 0.929 . S
H2254 C2242 0.960 . S
H2255 C2242 0.962 . S
H2256 C2242 0.960 . S
H2257 C2243 0.961 . S
H2258 C2243 0.961 . S
H2259 C2243 0.961 . S
H2260 C2244 0.931 . S
H2261 C2249 0.930 . S
H2262 C2250 0.956 . S
H2263 C2250 0.961 . S
H2264 C2250 0.961 . S
H2265 C2251 0.958 . S
H2266 C2251 0.961 . S
H2267 C2251 0.960 . S
C2268 C2269 1.391 . S
C2268 C2270 1.394 . S
C2268 H2284 0.931 1_554 S
C2269 C2268 1.391 . S
C2269 C2273 1.376 . S
C2270 C2268 1.394 . S
C2270 C2271 1.369 . S
C2270 C2274 1.531 1_554 S
C2271 C2270 1.369 . S
C2271 C2272 1.410 . S
C2271 C2279 1.503 . S
C2272 C2271 1.410 . S
C2272 C2273 1.392 . S
C2272 C2275 1.511 . S
C2273 C2269 1.376 . S
C2273 C2272 1.392 . S
C2273 H2285 0.929 . S
C2274 C2270 1.531 1_556 S
C2274 H2286 0.960 . S
C2274 H2287 0.962 . S
C2274 H2288 0.960 . S
C2275 C2272 1.511 . S
C2275 H2289 0.961 . S
C2275 H2290 0.961 . S
C2275 H2291 0.961 . S
C2276 C2277 1.370 . S
C2276 C2278 1.363 . S
C2276 H2292 0.931 1_554 S
C2277 C2276 1.370 . S
C2277 C2281 1.408 . S
C2278 C2276 1.363 . S
C2278 C2279 1.370 . S
C2278 C2282 1.524 . S
C2279 C2271 1.503 . S
C2279 C2278 1.370 . S
C2279 C2280 1.403 . S
C2280 C2279 1.403 . S
C2280 C2281 1.404 . S
C2280 C2283 1.539 . S
C2281 C2277 1.408 . S
C2281 C2280 1.404 . S
C2281 H2293 0.930 . S
C2282 C2278 1.524 . S
C2282 H2294 0.956 1_554 S
C2282 H2295 0.961 . S
C2282 H2296 0.961 1_554 S
C2283 C2280 1.539 . S
C2283 H2297 0.958 . S
C2283 H2298 0.961 . S
C2283 H2299 0.960 . S
H2284 C2268 0.931 1_556 S
H2285 C2273 0.929 . S
H2286 C2274 0.960 . S
H2287 C2274 0.962 . S
H2288 C2274 0.960 . S
H2289 C2275 0.961 . S
H2290 C2275 0.961 . S
H2291 C2275 0.961 . S
H2292 C2276 0.931 1_556 S
H2293 C2281 0.930 . S
H2294 C2282 0.956 1_556 S
H2295 C2282 0.961 . S
H2296 C2282 0.961 1_556 S
H2297 C2283 0.958 . S
H2298 C2283 0.961 . S
H2299 C2283 0.960 . S
C2300 C2301 1.391 . S
C2300 C2302 1.394 . S
C2300 H2316 0.931 . S
C2301 C2300 1.391 . S
C2301 C2305 1.376 . S
C2302 C2300 1.394 . S
C2302 C2303 1.369 . S
C2302 C2306 1.531 . S
C2303 C2302 1.369 . S
C2303 C2304 1.410 . S
C2303 C2311 1.503 . S
C2304 C2303 1.410 . S
C2304 C2305 1.392 . S
C2304 C2307 1.511 . S
C2305 C2301 1.376 . S
C2305 C2304 1.392 . S
C2305 H2317 0.929 . S
C2306 C2302 1.531 . S
C2306 H2318 0.960 . S
C2306 H2319 0.962 . S
C2306 H2320 0.960 . S
C2307 C2304 1.511 . S
C2307 H2321 0.961 . S
C2307 H2322 0.961 . S
C2307 H2323 0.961 . S
C2308 C2309 1.370 . S
C2308 C2310 1.363 . S
C2308 H2324 0.931 . S
C2309 C2308 1.370 . S
C2309 C2313 1.408 . S
C2310 C2308 1.363 . S
C2310 C2311 1.370 . S
C2310 C2314 1.524 . S
C2311 C2303 1.503 . S
C2311 C2310 1.370 . S
C2311 C2312 1.403 . S
C2312 C2311 1.403 . S
C2312 C2313 1.404 . S
C2312 C2315 1.539 1_554 S
C2313 C2309 1.408 . S
C2313 C2312 1.404 . S
C2313 H2325 0.930 1_554 S
C2314 C2310 1.524 . S
C2314 H2326 0.956 . S
C2314 H2327 0.961 . S
C2314 H2328 0.961 . S
C2315 C2312 1.539 1_556 S
C2315 H2329 0.958 . S
C2315 H2330 0.961 . S
C2315 H2331 0.960 . S
H2316 C2300 0.931 . S
H2317 C2305 0.929 . S
H2318 C2306 0.960 . S
H2319 C2306 0.962 . S
H2320 C2306 0.960 . S
H2321 C2307 0.961 . S
H2322 C2307 0.961 . S
H2323 C2307 0.961 . S
H2324 C2308 0.931 . S
H2325 C2313 0.930 1_556 S
H2326 C2314 0.956 . S
H2327 C2314 0.961 . S
H2328 C2314 0.961 . S
H2329 C2315 0.958 . S
H2330 C2315 0.961 . S
H2331 C2315 0.960 . S
C805 C650 1.395 . S
C797 C202 1.408 . S
C837 C663 1.626 . S
C829 C261 1.627 . S
C861 C282 1.434 . S
C869 C676 1.447 . S
C901 C689 1.533 . S
C893 C162 1.526 . S
C933 C697 1.452 . S
C925 C402 1.456 . S
C965 C710 1.406 . S
C957 C482 1.434 . S
C989 C442 1.512 . S
C997 C723 1.495 . S
C1029 C736 1.519 . S
C1021 C381 1.516 . S
C1053 C461 1.470 . S
C1061 C754 1.470 . S
C1093 C765 1.479 . S
C1085 C362 1.501 . S
C1117 C415 1.407 . S
C1125 C749 1.397 . S
C1157 C757 1.487 . S
C1149 C495 1.500 . S
C1181 C301 1.535 . S
C1189 C780 1.532 . S
C1213 C175 1.533 . S
C1221 C770 1.493 . S
C1245 C215 1.466 . S
C1253 C775 1.436 . S
C1277 C242 1.524 . S
C1285 C778 1.508 1_655 S
C1309 C141 1.489 . S
C1317 C687 1.465 . S
C1341 C581 1.460 . S
C1349 C679 1.442 . S
C1381 C648 1.510 . S
C1373 C615 1.529 . S
C1413 C653 1.481 . S
C1405 C335 1.496 . S
C1437 C181 1.592 . S
C1445 C700 1.573 . S
C1477 C739 1.491 . S
C1469 C455 1.512 . S
C1509 C692 1.438 . S
C1501 C375 1.458 . S
C1541 C718 1.490 . S
C1533 C501 1.513 . S
C1573 C728 1.404 . S
C1565 C562 1.384 . S
C1597 C621 1.614 . S
C1605 C741 1.624 . S
C1629 C322 1.445 . S
C1637 C702 1.447 . S
C1669 C715 1.521 . S
C1661 C522 1.520 . S
C1693 C122 1.459 . S
C1701 C671 1.449 . S
C1733 C684 1.405 . S
C1725 C2 1.427 . S
C1765 C645 1.496 . S
C1757 C42 1.509 . S
C1797 C658 1.519 . S
C1789 C101 1.514 . S
C1821 C61 1.472 . S
C1829 C767 1.470 . S
C1853 C82 1.493 . S
C1861 C752 1.479 1_655 S
C1885 C135 1.412 . S
C1893 C762 1.388 . S
C1917 C15 1.502 . S
C1925 C744 1.468 . S
C1957 C793 1.519 . S
C1949 C341 1.514 . S
C1989 C783 1.494 . S
C1981 C535 1.533 . S
C2021 C788 1.431 . S
C2013 C575 1.468 . S
C2045 C602 1.525 . S
C2053 C791 1.508 . S
C2077 C421 1.485 . S
C2085 C713 1.452 . S
C2117 C705 1.429 . S
C2109 C221 1.443 . S
C2149 C726 1.504 . S
C2141 C255 1.524 . S
C2181 C731 1.471 . S
C2173 C295 1.497 . S
C2205 C541 1.582 . S
C2213 C674 1.566 . S
C2245 C661 1.491 . S
C2237 C55 1.516 . S
C2269 C95 1.457 . S
C2277 C666 1.445 . S
C2309 C640 1.495 . S
C2301 C21 1.521 . S
