# Generated by pormake.
# Topology gar, (4,6)-cn, num edge types: 1
# Building blocks:
#     Node 0, Type 0, BuildingBlock: KUFVIS_clean_sbu_0, # of connection points: 4
#     Node 1, Type 0, BuildingBlock: KUFVIS_clean_sbu_0, # of connection points: 4
#     Node 2, Type 0, BuildingBlock: KUFVIS_clean_sbu_0, # of connection points: 4
#     Node 3, Type 0, BuildingBlock: KUFVIS_clean_sbu_0, # of connection points: 4
#     Node 4, Type 0, BuildingBlock: KUFVIS_clean_sbu_0, # of connection points: 4
#     Node 5, Type 0, BuildingBlock: KUFVIS_clean_sbu_0, # of connection points: 4
#     Node 6, Type 0, BuildingBlock: KUFVIS_clean_sbu_0, # of connection points: 4
#     Node 7, Type 0, BuildingBlock: KUFVIS_clean_sbu_0, # of connection points: 4
#     Node 8, Type 0, BuildingBlock: KUFVIS_clean_sbu_0, # of connection points: 4
#     Node 9, Type 0, BuildingBlock: KUFVIS_clean_sbu_0, # of connection points: 4
#     Node 10, Type 0, BuildingBlock: KUFVIS_clean_sbu_0, # of connection points: 4
#     Node 11, Type 0, BuildingBlock: KUFVIS_clean_sbu_0, # of connection points: 4
#     Node 12, Type 0, BuildingBlock: KUFVIS_clean_sbu_0, # of connection points: 4
#     Node 13, Type 0, BuildingBlock: KUFVIS_clean_sbu_0, # of connection points: 4
#     Node 14, Type 0, BuildingBlock: KUFVIS_clean_sbu_0, # of connection points: 4
#     Node 15, Type 0, BuildingBlock: KUFVIS_clean_sbu_0, # of connection points: 4
#     Node 16, Type 0, BuildingBlock: KUFVIS_clean_sbu_0, # of connection points: 4
#     Node 17, Type 0, BuildingBlock: KUFVIS_clean_sbu_0, # of connection points: 4
#     Node 18, Type 0, BuildingBlock: KUFVIS_clean_sbu_0, # of connection points: 4
#     Node 19, Type 0, BuildingBlock: KUFVIS_clean_sbu_0, # of connection points: 4
#     Node 20, Type 0, BuildingBlock: KUFVIS_clean_sbu_0, # of connection points: 4
#     Node 21, Type 0, BuildingBlock: KUFVIS_clean_sbu_0, # of connection points: 4
#     Node 22, Type 0, BuildingBlock: KUFVIS_clean_sbu_0, # of connection points: 4
#     Node 23, Type 0, BuildingBlock: KUFVIS_clean_sbu_0, # of connection points: 4
#     Node 24, Type 1, BuildingBlock: HISSIN_clean_sbu_0, # of connection points: 6
#     Node 25, Type 1, BuildingBlock: HISSIN_clean_sbu_0, # of connection points: 6
#     Node 26, Type 1, BuildingBlock: HISSIN_clean_sbu_0, # of connection points: 6
#     Node 27, Type 1, BuildingBlock: HISSIN_clean_sbu_0, # of connection points: 6
#     Node 28, Type 1, BuildingBlock: HISSIN_clean_sbu_0, # of connection points: 6
#     Node 29, Type 1, BuildingBlock: HISSIN_clean_sbu_0, # of connection points: 6
#     Node 30, Type 1, BuildingBlock: HISSIN_clean_sbu_0, # of connection points: 6
#     Node 31, Type 1, BuildingBlock: HISSIN_clean_sbu_0, # of connection points: 6
#     Node 32, Type 1, BuildingBlock: HISSIN_clean_sbu_0, # of connection points: 6
#     Node 33, Type 1, BuildingBlock: HISSIN_clean_sbu_0, # of connection points: 6
#     Node 34, Type 1, BuildingBlock: HISSIN_clean_sbu_0, # of connection points: 6
#     Node 35, Type 1, BuildingBlock: HISSIN_clean_sbu_0, # of connection points: 6
#     Node 36, Type 1, BuildingBlock: HISSIN_clean_sbu_0, # of connection points: 6
#     Node 37, Type 1, BuildingBlock: HISSIN_clean_sbu_0, # of connection points: 6
#     Node 38, Type 1, BuildingBlock: HISSIN_clean_sbu_0, # of connection points: 6
#     Node 39, Type 1, BuildingBlock: HISSIN_clean_sbu_0, # of connection points: 6
#     Edge 40, Type (0, 1), BuildingBlock: XUDNAN_clean_linker_2, # of connection points: 2
#     Edge 41, Type (0, 1), BuildingBlock: XUDNAN_clean_linker_2, # of connection points: 2
#     Edge 42, Type (0, 1), BuildingBlock: XUDNAN_clean_linker_2, # of connection points: 2
#     Edge 43, Type (0, 1), BuildingBlock: XUDNAN_clean_linker_2, # of connection points: 2
#     Edge 44, Type (0, 1), BuildingBlock: XUDNAN_clean_linker_2, # of connection points: 2
#     Edge 45, Type (0, 1), BuildingBlock: XUDNAN_clean_linker_2, # of connection points: 2
#     Edge 46, Type (0, 1), BuildingBlock: XUDNAN_clean_linker_2, # of connection points: 2
#     Edge 47, Type (0, 1), BuildingBlock: XUDNAN_clean_linker_2, # of connection points: 2
#     Edge 48, Type (0, 1), BuildingBlock: XUDNAN_clean_linker_2, # of connection points: 2
#     Edge 49, Type (0, 1), BuildingBlock: XUDNAN_clean_linker_2, # of connection points: 2
#     Edge 50, Type (0, 1), BuildingBlock: XUDNAN_clean_linker_2, # of connection points: 2
#     Edge 51, Type (0, 1), BuildingBlock: XUDNAN_clean_linker_2, # of connection points: 2
#     Edge 52, Type (0, 1), BuildingBlock: XUDNAN_clean_linker_2, # of connection points: 2
#     Edge 53, Type (0, 1), BuildingBlock: XUDNAN_clean_linker_2, # of connection points: 2
#     Edge 54, Type (0, 1), BuildingBlock: XUDNAN_clean_linker_2, # of connection points: 2
#     Edge 55, Type (0, 1), BuildingBlock: XUDNAN_clean_linker_2, # of connection points: 2
#     Edge 56, Type (0, 1), BuildingBlock: XUDNAN_clean_linker_2, # of connection points: 2
#     Edge 57, Type (0, 1), BuildingBlock: XUDNAN_clean_linker_2, # of connection points: 2
#     Edge 58, Type (0, 1), BuildingBlock: XUDNAN_clean_linker_2, # of connection points: 2
#     Edge 59, Type (0, 1), BuildingBlock: XUDNAN_clean_linker_2, # of connection points: 2
#     Edge 60, Type (0, 1), BuildingBlock: XUDNAN_clean_linker_2, # of connection points: 2
#     Edge 61, Type (0, 1), BuildingBlock: XUDNAN_clean_linker_2, # of connection points: 2
#     Edge 62, Type (0, 1), BuildingBlock: XUDNAN_clean_linker_2, # of connection points: 2
#     Edge 63, Type (0, 1), BuildingBlock: XUDNAN_clean_linker_2, # of connection points: 2
#     Edge 64, Type (0, 1), BuildingBlock: XUDNAN_clean_linker_2, # of connection points: 2
#     Edge 65, Type (0, 1), BuildingBlock: XUDNAN_clean_linker_2, # of connection points: 2
#     Edge 66, Type (0, 1), BuildingBlock: XUDNAN_clean_linker_2, # of connection points: 2
#     Edge 67, Type (0, 1), BuildingBlock: XUDNAN_clean_linker_2, # of connection points: 2
#     Edge 68, Type (0, 1), BuildingBlock: XUDNAN_clean_linker_2, # of connection points: 2
#     Edge 69, Type (0, 1), BuildingBlock: XUDNAN_clean_linker_2, # of connection points: 2
#     Edge 70, Type (0, 1), BuildingBlock: XUDNAN_clean_linker_2, # of connection points: 2
#     Edge 71, Type (0, 1), BuildingBlock: XUDNAN_clean_linker_2, # of connection points: 2
#     Edge 72, Type (0, 1), BuildingBlock: XUDNAN_clean_linker_2, # of connection points: 2
#     Edge 73, Type (0, 1), BuildingBlock: XUDNAN_clean_linker_2, # of connection points: 2
#     Edge 74, Type (0, 1), BuildingBlock: XUDNAN_clean_linker_2, # of connection points: 2
#     Edge 75, Type (0, 1), BuildingBlock: XUDNAN_clean_linker_2, # of connection points: 2
#     Edge 76, Type (0, 1), BuildingBlock: XUDNAN_clean_linker_2, # of connection points: 2
#     Edge 77, Type (0, 1), BuildingBlock: XUDNAN_clean_linker_2, # of connection points: 2
#     Edge 78, Type (0, 1), BuildingBlock: XUDNAN_clean_linker_2, # of connection points: 2
#     Edge 79, Type (0, 1), BuildingBlock: XUDNAN_clean_linker_2, # of connection points: 2
#     Edge 80, Type (0, 1), BuildingBlock: XUDNAN_clean_linker_2, # of connection points: 2
#     Edge 81, Type (0, 1), BuildingBlock: XUDNAN_clean_linker_2, # of connection points: 2
#     Edge 82, Type (0, 1), BuildingBlock: XUDNAN_clean_linker_2, # of connection points: 2
#     Edge 83, Type (0, 1), BuildingBlock: XUDNAN_clean_linker_2, # of connection points: 2
#     Edge 84, Type (0, 1), BuildingBlock: XUDNAN_clean_linker_2, # of connection points: 2
#     Edge 85, Type (0, 1), BuildingBlock: XUDNAN_clean_linker_2, # of connection points: 2
#     Edge 86, Type (0, 1), BuildingBlock: XUDNAN_clean_linker_2, # of connection points: 2
#     Edge 87, Type (0, 1), BuildingBlock: XUDNAN_clean_linker_2, # of connection points: 2
#     Edge 88, Type (0, 1), BuildingBlock: XUDNAN_clean_linker_2, # of connection points: 2
#     Edge 89, Type (0, 1), BuildingBlock: XUDNAN_clean_linker_2, # of connection points: 2
#     Edge 90, Type (0, 1), BuildingBlock: XUDNAN_clean_linker_2, # of connection points: 2
#     Edge 91, Type (0, 1), BuildingBlock: XUDNAN_clean_linker_2, # of connection points: 2
#     Edge 92, Type (0, 1), BuildingBlock: XUDNAN_clean_linker_2, # of connection points: 2
#     Edge 93, Type (0, 1), BuildingBlock: XUDNAN_clean_linker_2, # of connection points: 2
#     Edge 94, Type (0, 1), BuildingBlock: XUDNAN_clean_linker_2, # of connection points: 2
#     Edge 95, Type (0, 1), BuildingBlock: XUDNAN_clean_linker_2, # of connection points: 2
#     Edge 96, Type (0, 1), BuildingBlock: XUDNAN_clean_linker_2, # of connection points: 2
#     Edge 97, Type (0, 1), BuildingBlock: XUDNAN_clean_linker_2, # of connection points: 2
#     Edge 98, Type (0, 1), BuildingBlock: XUDNAN_clean_linker_2, # of connection points: 2
#     Edge 99, Type (0, 1), BuildingBlock: XUDNAN_clean_linker_2, # of connection points: 2
#     Edge 100, Type (0, 1), BuildingBlock: XUDNAN_clean_linker_2, # of connection points: 2
#     Edge 101, Type (0, 1), BuildingBlock: XUDNAN_clean_linker_2, # of connection points: 2
#     Edge 102, Type (0, 1), BuildingBlock: XUDNAN_clean_linker_2, # of connection points: 2
#     Edge 103, Type (0, 1), BuildingBlock: XUDNAN_clean_linker_2, # of connection points: 2
#     Edge 104, Type (0, 1), BuildingBlock: XUDNAN_clean_linker_2, # of connection points: 2
#     Edge 105, Type (0, 1), BuildingBlock: XUDNAN_clean_linker_2, # of connection points: 2
#     Edge 106, Type (0, 1), BuildingBlock: XUDNAN_clean_linker_2, # of connection points: 2
#     Edge 107, Type (0, 1), BuildingBlock: XUDNAN_clean_linker_2, # of connection points: 2
#     Edge 108, Type (0, 1), BuildingBlock: XUDNAN_clean_linker_2, # of connection points: 2
#     Edge 109, Type (0, 1), BuildingBlock: XUDNAN_clean_linker_2, # of connection points: 2
#     Edge 110, Type (0, 1), BuildingBlock: XUDNAN_clean_linker_2, # of connection points: 2
#     Edge 111, Type (0, 1), BuildingBlock: XUDNAN_clean_linker_2, # of connection points: 2
#     Edge 112, Type (0, 1), BuildingBlock: XUDNAN_clean_linker_2, # of connection points: 2
#     Edge 113, Type (0, 1), BuildingBlock: XUDNAN_clean_linker_2, # of connection points: 2
#     Edge 114, Type (0, 1), BuildingBlock: XUDNAN_clean_linker_2, # of connection points: 2
#     Edge 115, Type (0, 1), BuildingBlock: XUDNAN_clean_linker_2, # of connection points: 2
#     Edge 116, Type (0, 1), BuildingBlock: XUDNAN_clean_linker_2, # of connection points: 2
#     Edge 117, Type (0, 1), BuildingBlock: XUDNAN_clean_linker_2, # of connection points: 2
#     Edge 118, Type (0, 1), BuildingBlock: XUDNAN_clean_linker_2, # of connection points: 2
#     Edge 119, Type (0, 1), BuildingBlock: XUDNAN_clean_linker_2, # of connection points: 2
#     Edge 120, Type (0, 1), BuildingBlock: XUDNAN_clean_linker_2, # of connection points: 2
#     Edge 121, Type (0, 1), BuildingBlock: XUDNAN_clean_linker_2, # of connection points: 2
#     Edge 122, Type (0, 1), BuildingBlock: XUDNAN_clean_linker_2, # of connection points: 2
#     Edge 123, Type (0, 1), BuildingBlock: XUDNAN_clean_linker_2, # of connection points: 2
#     Edge 124, Type (0, 1), BuildingBlock: XUDNAN_clean_linker_2, # of connection points: 2
#     Edge 125, Type (0, 1), BuildingBlock: XUDNAN_clean_linker_2, # of connection points: 2
#     Edge 126, Type (0, 1), BuildingBlock: XUDNAN_clean_linker_2, # of connection points: 2
#     Edge 127, Type (0, 1), BuildingBlock: XUDNAN_clean_linker_2, # of connection points: 2
#     Edge 128, Type (0, 1), BuildingBlock: XUDNAN_clean_linker_2, # of connection points: 2
#     Edge 129, Type (0, 1), BuildingBlock: XUDNAN_clean_linker_2, # of connection points: 2
#     Edge 130, Type (0, 1), BuildingBlock: XUDNAN_clean_linker_2, # of connection points: 2
#     Edge 131, Type (0, 1), BuildingBlock: XUDNAN_clean_linker_2, # of connection points: 2
#     Edge 132, Type (0, 1), BuildingBlock: XUDNAN_clean_linker_2, # of connection points: 2
#     Edge 133, Type (0, 1), BuildingBlock: XUDNAN_clean_linker_2, # of connection points: 2
#     Edge 134, Type (0, 1), BuildingBlock: XUDNAN_clean_linker_2, # of connection points: 2
#     Edge 135, Type (0, 1), BuildingBlock: XUDNAN_clean_linker_2, # of connection points: 2
# Relax obj value: 0.176
# Max RMSD: 0.292
# Mean RMSD: 0.139
data_MOF--net-gar--node1-KUFVIS_clean_sbu_0--node2-HISSIN_clean_sbu_0--edge1-XUDNAN_clean_linker_2
_symmetry_space_group_name_H-M    P1
_symmetry_Int_Tables_number       1
_symmetry_cell_setting            triclinic
loop_
_symmetry_equiv_pos_as_xyz
'x, y, z'
_cell_length_a     58.97375
_cell_length_b     59.164097
_cell_length_c     58.515232
_cell_angle_alpha  100.05419
_cell_angle_beta   93.430919
_cell_angle_gamma 100.86054
loop_
_atom_site_label
_atom_site_type_symbol
_atom_site_fract_x
_atom_site_fract_y
_atom_site_fract_z
_atom_type_partial_charge
Mn0 Mn 0.10782 0.32582 0.41227 0.0
Mn1 Mn 0.12087 0.35534 0.36833 0.0
C2 C 0.07847 0.33283 0.3882 0.0
C3 C 0.10077 0.29092 0.42673 0.0
C4 C 0.12156 0.3795 0.41846 0.0
O5 O 0.14207 0.32464 0.40968 0.0
O6 O 0.14775 0.34402 0.38002 0.0
C7 C 0.1277 0.31463 0.33404 0.0
N8 N 0.11697 0.33303 0.33983 0.0
C9 C 0.09808 0.32655 0.30102 0.0
C10 C 0.10892 0.30753 0.29462 0.0
C11 C 0.12364 0.30143 0.31127 0.0
C12 C 0.10213 0.33853 0.32419 0.0
H13 H 0.13937 0.31016 0.34666 0.0
C14 C 0.15477 0.33315 0.39512 0.0
O15 O 0.10742 0.31112 0.44059 0.0
O16 O 0.09906 0.29101 0.40454 0.0
N17 N 0.09705 0.36793 0.3544 0.0
C18 C 0.09002 0.38827 0.36258 0.0
C19 C 0.07547 0.39706 0.34799 0.0
C20 C 0.06917 0.38549 0.32479 0.0
C21 C 0.07783 0.36547 0.31629 0.0
C22 C 0.09182 0.35719 0.3318 0.0
H23 H 0.09539 0.39771 0.38018 0.0
O24 O 0.07447 0.32758 0.40838 0.0
O25 O 0.0993 0.33296 0.38203 0.0
O26 O 0.11583 0.361 0.42705 0.0
O27 O 0.1245 0.37924 0.39697 0.0
C28 C 0.07396 0.35404 0.29277 0.0
C29 C 0.08389 0.33445 0.28518 0.0
H30 H 0.1062 0.29762 0.27693 0.0
H31 H 0.13212 0.28681 0.30647 0.0
H32 H 0.06936 0.41288 0.35454 0.0
H33 H 0.05819 0.39249 0.31349 0.0
H34 H 0.06331 0.36013 0.28036 0.0
H35 H 0.08063 0.32569 0.26708 0.0
Mn36 Mn 0.03372 0.78356 0.66092 0.0
Mn37 Mn 0.02941 0.82962 0.70235 0.0
C38 C 0.06413 0.80063 0.68938 0.0
C39 C 0.02973 0.74328 0.64755 0.0
C40 C 0.0346 0.83283 0.6516 0.0
O41 O 0.99859 0.78151 0.66081 0.0
O42 O 0.99806 0.81061 0.6916 0.0
C43 C 1.01183 0.80598 0.74028 0.0
N44 N 0.02854 0.82118 0.73242 0.0
C45 C 0.05119 0.83043 0.76967 0.0
C46 C 0.03423 0.81485 0.77813 0.0
C47 C 1.01446 0.80259 0.76337 0.0
C48 C 0.04752 0.83326 0.74656 0.0
H49 H 0.99664 0.79648 0.72901 0.0
C50 C 0.98805 0.79326 0.67567 0.0
O51 O 0.03024 0.7578 0.63324 0.0
O52 O 0.03058 0.75206 0.66959 0.0
N53 N 0.05928 0.84849 0.71411 0.0
C54 C 0.07477 0.86156 0.70278 0.0
C55 C 0.09583 0.87436 0.71489 0.0
C56 C 0.10076 0.87357 0.73848 0.0
C57 C 0.08465 0.85986 0.74973 0.0
C58 C 0.06384 0.84766 0.73684 0.0
H59 H 0.07113 0.86215 0.68462 0.0
O60 O 0.06818 0.78906 0.66957 0.0
O61 O 0.04281 0.80251 0.69123 0.0
O62 O 0.03753 0.81202 0.64484 0.0
O63 O 0.03048 0.84069 0.67234 0.0
C64 C 0.08861 0.85746 0.77309 0.0
C65 C 0.07188 0.84278 0.78306 0.0
H66 H 0.03631 0.81201 0.79587 0.0
H67 H 1.00131 0.7905 0.76975 0.0
H68 H 0.10827 0.88476 0.70605 0.0
H69 H 0.11707 0.88341 0.74772 0.0
H70 H 0.10459 0.86659 0.78345 0.0
H71 H 0.07526 0.84084 0.80094 0.0
Mn72 Mn 0.60912 0.82385 0.90997 0.0
Mn73 Mn 0.60848 0.85617 0.86752 0.0
C74 C 0.57463 0.83134 0.8957 0.0
C75 C 0.60917 0.78973 0.9245 0.0
C76 C 0.6226 0.87754 0.91829 0.0
O77 O 0.63969 0.82195 0.89646 0.0
O78 O 0.63766 0.84409 0.86905 0.0
C79 C 0.60732 0.81857 0.82649 0.0
N80 N 0.59786 0.83603 0.83808 0.0
C81 C 0.57089 0.83373 0.80484 0.0
C82 C 0.58034 0.81573 0.79255 0.0
C83 C 0.59846 0.80794 0.80352 0.0
C84 C 0.57981 0.84301 0.82799 0.0
H85 H 0.62168 0.81296 0.83459 0.0
C86 C 0.64777 0.83104 0.8797 0.0
O87 O 0.61865 0.81021 0.93646 0.0
O88 O 0.59958 0.78875 0.90363 0.0
N89 N 0.58142 0.86905 0.8631 0.0
C90 C 0.57517 0.88764 0.87669 0.0
C91 C 0.55695 0.89719 0.86841 0.0
C92 C 0.5458 0.88807 0.84592 0.0
C93 C 0.55315 0.86963 0.83185 0.0
C94 C 0.5711 0.86048 0.84123 0.0
H95 H 0.58378 0.89496 0.89387 0.0
O96 O 0.5768 0.82625 0.91633 0.0
O97 O 0.59255 0.83178 0.88373 0.0
O98 O 0.62051 0.85812 0.92518 0.0
O99 O 0.61894 0.87894 0.89694 0.0
C100 C 0.544 0.86064 0.80855 0.0
C101 C 0.5531 0.84296 0.79494 0.0
H102 H 0.57386 0.80781 0.77467 0.0
H103 H 0.60587 0.79407 0.79415 0.0
H104 H 0.55162 0.91166 0.87929 0.0
H105 H 0.53191 0.89564 0.83949 0.0
H106 H 0.53017 0.86742 0.80082 0.0
H107 H 0.54599 0.83625 0.77702 0.0
Mn108 Mn 0.52744 0.27655 0.1572 0.0
Mn109 Mn 0.48237 0.26154 0.11605 0.0
C110 C 0.51837 0.23884 0.13607 0.0
C111 C 0.56575 0.29257 0.16984 0.0
C112 C 0.47755 0.27073 0.16808 0.0
O113 O 0.52191 0.30755 0.15039 0.0
O114 O 0.49548 0.29577 0.11898 0.0
C115 C 0.50464 0.26949 0.07331 0.0
N116 N 0.49208 0.25467 0.08544 0.0
C117 C 0.48902 0.22204 0.05366 0.0
C118 C 0.50184 0.23698 0.04082 0.0
C119 C 0.50966 0.26081 0.05068 0.0
C120 C 0.48419 0.23177 0.07598 0.0
H121 H 0.51088 0.28779 0.08086 0.0
C122 C 0.51015 0.31167 0.13311 0.0
O123 O 0.54971 0.29275 0.18401 0.0
O124 O 0.55963 0.2832 0.14802 0.0
N125 N 0.46952 0.22865 0.11162 0.0
C126 C 0.45921 0.21619 0.12705 0.0
C127 C 0.45159 0.19182 0.12037 0.0
C128 C 0.45466 0.1805 0.09794 0.0
C129 C 0.46535 0.19366 0.08237 0.0
C130 C 0.47246 0.21793 0.08994 0.0
H131 H 0.45703 0.22472 0.14441 0.0
O132 O 0.5298 0.24319 0.15657 0.0
O133 O 0.5122 0.25669 0.12911 0.0
O134 O 0.49881 0.27247 0.17431 0.0
O135 O 0.46955 0.26775 0.14676 0.0
C136 C 0.46978 0.18355 0.05987 0.0
C137 C 0.48151 0.19774 0.04548 0.0
H138 H 0.50604 0.23028 0.02349 0.0
H139 H 0.51967 0.27243 0.04093 0.0
H140 H 0.44349 0.18176 0.13254 0.0
H141 H 0.44898 0.16166 0.09295 0.0
H142 H 0.46454 0.16483 0.05358 0.0
H143 H 0.48511 0.18971 0.02835 0.0
Mn144 Mn 0.10113 0.78196 0.12989 0.0
Mn145 Mn 0.06244 0.74922 0.08638 0.0
C146 C 0.08922 0.74226 0.1282 0.0
C147 C 0.13754 0.79883 0.14921 0.0
C148 C 0.04861 0.77938 0.12764 0.0
O149 O 0.10366 0.80283 0.10581 0.0
O150 O 0.07489 0.78092 0.07959 0.0
C151 C 0.0944 0.74435 0.04945 0.0
N152 N 0.07849 0.73435 0.06257 0.0
C153 C 0.07568 0.69623 0.03875 0.0
C154 C 0.09206 0.70611 0.02501 0.0
C155 C 0.10165 0.73024 0.03055 0.0
C156 C 0.06975 0.71103 0.05786 0.0
H157 H 0.10128 0.76299 0.05319 0.0
C158 C 0.09053 0.7995 0.08689 0.0
O159 O 0.11935 0.80726 0.15432 0.0
O160 O 0.13493 0.7815 0.13156 0.0
N161 N 0.04903 0.71812 0.09004 0.0
C162 C 0.03364 0.71126 0.10519 0.0
C163 C 0.02332 0.68744 0.10277 0.0
C164 C 0.02827 0.67105 0.08429 0.0
C165 C 0.04374 0.6786 0.0686 0.0
C166 C 0.05416 0.70243 0.07242 0.0
H167 H 0.0294 0.72385 0.11911 0.0
O168 O 0.09642 0.7563 0.14798 0.0
O169 O 0.08876 0.75173 0.10973 0.0
O170 O 0.06927 0.7887 0.136 0.0
O171 O 0.04359 0.76306 0.10973 0.0
C172 C 0.04882 0.66353 0.049 0.0
C173 C 0.06474 0.67235 0.03404 0.0
H174 H 0.09736 0.69536 1.01014 0.0
H175 H 0.11426 0.738 0.01999 0.0
H176 H 1.01128 0.6818 0.11487 0.0
H177 H 0.01992 0.65276 0.08219 0.0
H178 H 0.04079 0.64507 0.0454 0.0
H179 H 0.06873 0.66054 0.01919 0.0
Mn180 Mn 0.53738 0.81476 0.40345 0.0
Mn181 Mn 0.52711 0.84776 0.36355 0.0
C182 C 0.50235 0.80523 0.38084 0.0
C183 C 0.55435 0.78529 0.41464 0.0
C184 C 0.52 0.86118 0.41432 0.0
O185 O 0.56918 0.83398 0.40195 0.0
O186 O 0.56028 0.85536 0.37603 0.0
C187 C 0.55471 0.82587 0.32864 0.0
N188 N 0.5344 0.83219 0.3343 0.0
C189 C 0.51789 0.82039 0.29446 0.0
C190 C 0.53863 0.81381 0.28817 0.0
C191 C 0.55705 0.81638 0.30539 0.0
C192 C 0.51629 0.829 0.31805 0.0
H193 H 0.56907 0.82818 0.34173 0.0
C194 C 0.57482 0.8497 0.38994 0.0
O195 O 0.55016 0.80238 0.42989 0.0
O196 O 0.54847 0.78519 0.39287 0.0
N197 N 0.49639 0.84354 0.3487 0.0
C198 C 0.4782 0.85238 0.35725 0.0
C199 C 0.45846 0.8515 0.34223 0.0
C200 C 0.45807 0.84272 0.3183 0.0
C201 C 0.47744 0.83485 0.30964 0.0
C202 C 0.49631 0.83542 0.32558 0.0
H203 H 0.4787 0.85993 0.37546 0.0
O204 O 0.50501 0.79706 0.39978 0.0
O205 O 0.52087 0.81763 0.37449 0.0
O206 O 0.52733 0.84408 0.42092 0.0
O207 O 0.51881 0.86418 0.39319 0.0
C208 C 0.47895 0.82697 0.28571 0.0
C209 C 0.49896 0.81931 0.27818 0.0
H210 H 0.54065 0.80693 0.27017 0.0
H211 H 0.57314 0.81138 0.3007 0.0
H212 H 0.44374 0.85798 0.34901 0.0
H213 H 0.44296 0.84243 0.3067 0.0
H214 H 0.46468 0.82648 0.27296 0.0
H215 H 0.49977 0.813 0.25978 0.0
Mn216 Mn 0.60676 0.27384 0.63805 0.0
Mn217 Mn 0.58183 0.24029 0.58657 0.0
C218 C 0.6055 0.23387 0.63089 0.0
C219 C 0.6375 0.29717 0.66333 0.0
C220 C 0.55444 0.25925 0.62502 0.0
O221 O 0.60578 0.29799 0.61711 0.0
O222 O 0.59141 0.27332 0.58324 0.0
C223 C 0.62331 0.24453 0.56021 0.0
N224 N 0.60518 0.23092 0.5679 0.0
C225 C 0.61511 0.19565 0.54755 0.0
C226 C 0.63372 0.2093 0.53917 0.0
C227 C 0.63792 0.23385 0.54566 0.0
C228 C 0.60127 0.20728 0.56215 0.0
H229 H 0.62663 0.26338 0.56523 0.0
C230 C 0.59975 0.29381 0.59517 0.0
O231 O 0.61615 0.29841 0.66631 0.0
O232 O 0.64121 0.28335 0.64466 0.0
N233 N 0.57185 0.20768 0.58691 0.0
C234 C 0.55335 0.19706 0.59672 0.0
C235 C 0.54656 0.17256 0.59167 0.0
C236 C 0.559 0.15915 0.57685 0.0
C237 C 0.57785 0.17045 0.56683 0.0
C238 C 0.58344 0.19498 0.57201 0.0
H239 H 0.54357 0.20722 0.60796 0.0
O240 O 0.60764 0.24545 0.65214 0.0
O241 O 0.60399 0.24589 0.6145 0.0
O242 O 0.57206 0.26909 0.63923 0.0
O243 O 0.55591 0.24837 0.60448 0.0
C244 C 0.59117 0.15837 0.55171 0.0
C245 C 0.60992 0.17095 0.54224 0.0
H246 H 0.64501 0.20113 0.52792 0.0
H247 H 0.65237 0.2445 0.53943 0.0
H248 H 0.53172 0.164 0.59918 0.0
H249 H 0.55385 0.14021 0.57322 0.0
H250 H 0.58727 0.1394 0.54741 0.0
H251 H 0.62027 0.16145 0.53094 0.0
Mn252 Mn 0.02745 0.30896 0.91339 0.0
Mn253 Mn 0.02222 0.33787 0.86896 0.0
C254 C 0.99606 0.29542 0.88578 0.0
C255 C 0.04365 0.2827 0.93092 0.0
C256 C 1.01168 0.35531 0.91823 0.0
O257 O 0.05939 0.32974 0.91438 0.0
O258 O 0.05528 0.34313 0.88102 0.0
C259 C 0.04692 0.31175 0.83416 0.0
N260 N 0.02758 0.31998 0.84006 0.0
C261 C 1.00889 0.30584 0.80114 0.0
C262 C 0.02863 0.29726 0.79461 0.0
C263 C 0.04768 0.30015 0.81122 0.0
C264 C 1.00909 0.31714 0.82428 0.0
H265 H 0.06165 0.31411 0.84685 0.0
C266 C 0.06766 0.34061 0.89877 0.0
O267 O 0.03636 0.29993 0.9431 0.0
O268 O 0.04151 0.28056 0.90835 0.0
N269 N 0.99125 0.33459 0.85514 0.0
C270 C 0.97342 0.34357 0.86435 0.0
C271 C 0.95315 0.34239 0.84996 0.0
C272 C 0.95129 0.33184 0.82631 0.0
C273 C 0.96999 0.32307 0.81711 0.0
C274 C 0.98997 0.3252 0.83219 0.0
H275 H 0.97478 0.35196 0.88244 0.0
O276 O 0.99583 0.28917 0.90598 0.0
O277 O 1.01511 0.30882 0.88187 0.0
O278 O 1.01382 0.33711 0.92623 0.0
O279 O 0.01597 0.35799 0.89764 0.0
C280 C 0.96956 0.31218 0.79362 0.0
C281 C 0.98895 0.30344 0.78568 0.0
H282 H 0.0293 0.28833 0.77693 0.0
H283 H 0.06296 0.29354 0.80632 0.0
H284 H 0.9391 0.34989 0.85702 0.0
H285 H 0.93549 0.33071 0.81535 0.0
H286 H 0.95431 0.31017 0.7816 0.0
H287 H 0.9883 0.29483 0.76766 0.0
Mn288 Mn 0.42295 0.02878 0.33008 0.0
Mn289 Mn 0.38009 0.0296 0.36542 0.0
C290 C 0.40076 0.99392 0.33563 0.0
C291 C 0.43567 0.03056 0.29343 0.0
C292 C 0.43132 0.04217 0.38253 0.0
O293 O 0.41703 0.06203 0.3335 0.0
O294 O 0.38426 0.05834 0.35177 0.0
C295 C 0.33928 0.02655 0.33216 0.0
N296 N 0.35028 0.01749 0.34848 0.0
C297 C 0.31803 0.9851 0.34555 0.0
C298 C 0.30635 0.99411 0.32874 0.0
C299 C 0.31702 1.01493 0.32203 0.0
C300 C 0.34009 0.99758 0.35522 0.0
H301 H 0.34744 0.04249 0.32685 0.0
C302 C 0.39924 0.06956 0.34062 0.0
O303 O 0.45005 0.03654 0.31216 0.0
O304 O 0.41393 0.02349 0.29601 0.0
N305 N 0.37447 1.00194 0.37876 0.0
C306 C 0.38871 0.99469 0.39394 0.0
C307 C 0.38093 0.97372 0.40179 0.0
C308 C 0.35863 0.96042 0.39397 0.0
C309 C 0.34433 0.96813 0.37823 0.0
C310 C 0.35293 0.9893 0.3712 0.0
H311 H 0.4059 1.00478 0.39998 0.0
O312 O 0.42109 0.99427 0.32812 0.0
O313 O 0.39437 1.01392 0.33957 0.0
O314 O 0.43891 0.03567 0.36308 0.0
O315 O 0.40994 0.04215 0.38495 0.0
C316 C 0.32207 0.95542 0.36893 0.0
C317 C 0.30892 0.96391 0.35262 0.0
H318 H 0.28927 0.98507 0.32072 0.0
H319 H 0.30814 0.02195 0.30902 0.0
H320 H 0.39213 0.96779 0.4138 0.0
H321 H 0.35273 0.94422 0.40002 0.0
H322 H 0.31502 0.93894 0.37398 0.0
H323 H 0.29195 0.95382 0.34537 0.0
Mn324 Mn 0.28631 0.20922 0.51878 0.0
Mn325 Mn 0.27815 0.15743 0.48123 0.0
C326 C 0.24839 0.18762 0.50617 0.0
C327 C 0.2928 0.22946 0.55857 0.0
C328 C 0.29397 0.20481 0.46638 0.0
O329 O 0.31822 0.19979 0.52089 0.0
O330 O 0.30846 0.16296 0.50004 0.0
C331 C 0.2751 0.12456 0.51421 0.0
N332 N 0.26548 0.13209 0.49592 0.0
C333 C 0.23232 0.10039 0.49083 0.0
C334 C 0.24198 0.09214 0.50946 0.0
C335 C 0.26337 0.1044 0.52132 0.0
C336 C 0.2447 0.1207 0.48469 0.0
H337 H 0.29165 0.13379 0.52322 0.0
C338 C 0.32273 0.17948 0.51374 0.0
O339 O 0.29808 0.24003 0.54134 0.0
O340 O 0.28389 0.2073 0.55281 0.0
N341 N 0.24924 0.14969 0.46212 0.0
C342 C 0.24259 0.15954 0.44409 0.0
C343 C 0.22146 0.14948 0.43055 0.0
C344 C 0.20756 0.12919 0.43544 0.0
C345 C 0.21496 0.11909 0.45378 0.0
C346 C 0.23617 0.12991 0.46669 0.0
H347 H 0.25332 0.17493 0.43999 0.0
O348 O 0.25197 0.20985 0.51492 0.0
O349 O 0.26698 0.17897 0.50504 0.0
O350 O 0.2915 0.21806 0.48565 0.0
O351 O 0.29072 0.18248 0.46414 0.0
C352 C 0.20217 0.09865 0.45968 0.0
C353 C 0.21087 0.08927 0.47814 0.0
H354 H 0.23304 0.07652 0.51491 0.0
H355 H 0.27087 0.09821 0.5358 0.0
H356 H 0.21594 0.1573 0.41633 0.0
H357 H 0.19126 0.12149 0.42497 0.0
H358 H 0.18563 0.08998 0.45011 0.0
H359 H 0.20089 0.07353 0.4825 0.0
Mn360 Mn 0.18565 0.03347 0.7732 0.0
Mn361 Mn 0.2283 0.04425 0.81781 0.0
C362 C 0.20908 0.0745 0.7865 0.0
C363 C 0.1688 0.02852 0.73022 0.0
C364 C 0.17609 0.03517 0.82822 0.0
O365 O 0.19666 0.99871 0.77245 0.0
O366 O 0.22475 1.00908 0.80236 0.0
C367 C 0.26874 0.03712 0.7916 0.0
N368 N 0.25826 0.05118 0.80671 0.0
C369 C 0.29155 0.08281 0.81155 0.0
C370 C 0.30275 0.06855 0.79628 0.0
C371 C 0.29128 0.04563 0.78623 0.0
C372 C 0.26919 0.07327 0.81653 0.0
H373 H 0.26002 0.01957 0.78359 0.0
C374 C 0.2135 0.99315 0.78522 0.0
O375 O 0.15675 0.02341 0.74711 0.0
O376 O 0.19072 0.03409 0.73759 0.0
N377 N 0.2349 0.07641 0.83345 0.0
C378 C 0.22084 0.08879 0.84578 0.0
C379 C 0.22921 0.11251 0.85571 0.0
C380 C 0.2519 0.12332 0.85284 0.0
C381 C 0.26601 0.11032 0.83998 0.0
C382 C 0.25677 0.08668 0.83055 0.0
H383 H 0.20327 0.08076 0.84784 0.0
O384 O 0.18785 0.06981 0.7772 0.0
O385 O 0.21545 0.05481 0.78943 0.0
O386 O 0.16891 0.03237 0.8061 0.0
O387 O 0.19809 0.03854 0.83387 0.0
C388 C 0.28863 0.12011 0.83557 0.0
C389 C 0.30142 0.10634 0.82143 0.0
H390 H 0.32003 0.07513 0.79187 0.0
H391 H 0.29973 0.03458 0.77427 0.0
H392 H 0.21813 0.12249 0.86542 0.0
H393 H 0.2582 0.1417 0.86032 0.0
H394 H 0.2962 0.13833 0.84262 0.0
H395 H 0.31865 0.11418 0.81784 0.0
Mn396 Mn 0.29982 0.95597 1.01084 0.0
Mn397 Mn 0.30626 1.0031 0.98548 0.0
C398 C 0.33784 0.97694 1.00848 0.0
C399 C 0.29359 0.93667 0.04231 0.0
C400 C 0.29689 0.9528 0.95766 0.0
O401 O 0.26685 0.96417 1.01063 0.0
O402 O 0.27302 0.99627 0.99456 0.0
C403 C 0.30097 0.03855 0.0263 0.0
N404 N 0.31385 0.03083 1.00913 0.0
C405 C 0.34527 0.06385 0.02262 0.0
C406 C 0.33224 0.07224 0.04029 0.0
C407 C 0.31 0.05951 0.04214 0.0
C408 C 0.3353 0.04294 1.00722 0.0
H409 H 0.28396 0.02878 0.02801 0.0
C410 C 0.25966 0.98148 1.00413 0.0
O411 O 0.28786 0.92603 0.0209 0.0
O412 O 0.30248 0.95898 0.04577 0.0
N413 N 0.33683 1.01257 0.9765 0.0
C414 C 0.34764 1.00166 0.95913 0.0
C415 C 0.37021 1.01195 0.95528 0.0
C416 C 0.38145 0.03335 0.96929 0.0
C417 C 0.36999 0.04432 0.98697 0.0
C418 C 0.3474 0.03336 0.98985 0.0
H419 H 0.33927 0.98509 0.94844 0.0
O420 O 0.33399 0.95526 1.01105 0.0
O421 O 0.3191 0.98593 1.00775 0.0
O422 O 0.29579 0.94328 0.97555 0.0
O423 O 0.29966 0.97509 0.95926 0.0
C424 C 0.38026 0.0655 1.00211 0.0
C425 C 0.36792 0.07525 0.01994 0.0
H426 H 0.3392 0.08832 0.05263 0.0
H427 H 0.29989 0.0658 0.05582 0.0
H428 H 0.37898 1.00332 0.94165 0.0
H429 H 0.39894 0.04113 0.96641 0.0
H430 H 0.39773 0.07431 1.00036 0.0
H431 H 0.37608 0.09142 0.03161 0.0
Mn432 Mn 0.34015 0.3825 0.05456 0.0
Mn433 Mn 0.34286 0.428 0.02544 0.0
C434 C 0.37608 0.4081 0.05315 0.0
C435 C 0.33289 0.36516 0.08868 0.0
C436 C 0.33731 0.37743 1.00025 0.0
O437 O 0.30609 0.3867 0.05122 0.0
O438 O 0.31113 0.4182 0.0339 0.0
C439 C 0.33408 0.46384 0.06414 0.0
N440 N 0.34755 0.45694 0.04721 0.0
C441 C 0.37346 0.49462 0.0555 0.0
C442 C 0.35984 0.50217 0.073 0.0
C443 C 0.34013 0.48667 0.0774 0.0
C444 C 0.36667 0.47162 0.04299 0.0
H445 H 0.31883 0.45203 0.06746 0.0
C446 C 0.29839 0.40279 0.04293 0.0
O447 O 0.33042 0.35304 0.06765 0.0
O448 O 0.34007 0.38759 0.09022 0.0
N449 N 0.37256 0.43986 0.01602 0.0
C450 C 0.38407 0.42965 0.99889 0.0
C451 C 0.40402 0.44286 0.99213 0.0
C452 C 0.41195 0.46641 1.00305 0.0
C453 C 0.39979 0.47655 0.02057 0.0
C454 C 0.37977 0.46265 0.02627 0.0
H455 H 0.37789 0.41167 0.99021 0.0
O456 O 0.37545 0.38728 0.05776 0.0
O457 O 0.35588 0.41331 0.04969 0.0
O458 O 0.3385 0.36854 0.01874 0.0
O459 O 0.33821 0.39929 1.00108 0.0
C460 C 0.40673 0.49991 0.03261 0.0
C461 C 0.39366 0.5089 0.05017 0.0
H462 H 0.36443 0.51977 0.08324 0.0
H463 H 0.32956 0.49235 0.09092 0.0
H464 H 0.41322 0.43494 0.97846 0.0
H465 H 0.42741 0.47653 0.99786 0.0
H466 H 0.42224 0.51103 0.02868 0.0
H467 H 0.39935 0.52677 0.05953 0.0
Mn468 Mn 0.82252 0.13378 0.05977 0.0
Mn469 Mn 0.81143 0.08212 0.02162 0.0
C470 C 0.78323 0.11385 0.04914 0.0
C471 C 0.82855 0.15653 0.09848 0.0
C472 C 0.82024 0.12905 1.00607 0.0
O473 O 0.85564 0.12484 0.05833 0.0
O474 O 0.84584 0.09106 0.03236 0.0
C475 C 0.82162 0.05356 0.05628 0.0
N476 N 0.80655 0.05823 0.04002 0.0
C477 C 0.77646 0.02697 0.04637 0.0
C478 C 0.79169 0.02176 0.06311 0.0
C479 C 0.81436 0.03516 0.06812 0.0
C480 C 0.7846 0.04567 0.03531 0.0
H481 H 0.83904 0.06384 0.06025 0.0
C482 C 0.86131 0.10696 0.04557 0.0
O483 O 0.83476 0.16565 0.08064 0.0
O484 O 0.82153 0.13392 0.09415 0.0
N485 N 0.77984 0.07025 1.00916 0.0
C486 C 0.76803 0.07615 0.99108 0.0
C487 C 0.74517 0.06416 0.98359 0.0
C488 C 0.73496 0.04576 0.99425 0.0
C489 C 0.74789 0.03917 1.01196 0.0
C490 C 0.77053 0.05188 0.01881 0.0
H491 H 0.7759 0.09013 0.98266 0.0
O492 O 0.78879 0.13585 0.05837 0.0
O493 O 0.80117 0.10356 0.04696 0.0
O494 O 0.82414 0.14163 0.02666 0.0
O495 O 0.81545 0.10656 1.0021 0.0
C496 C 0.73937 0.0202 0.02277 0.0
C497 C 0.75357 1.01423 0.0401 0.0
H498 H 0.78619 1.0075 0.07218 0.0
H499 H 0.82621 0.03128 0.08105 0.0
H500 H 0.73546 0.06908 0.96962 0.0
H501 H 0.71733 0.03655 0.98843 0.0
H502 H 0.72196 1.01 0.01779 0.0
H503 H 0.7468 0.99964 0.0483 0.0
Mn504 Mn 0.19113 0.56028 0.2497 0.0
Mn505 Mn 0.24599 0.5846 0.27363 0.0
C506 C 0.21127 0.59274 0.23759 0.0
C507 C 0.16387 0.53447 0.22241 0.0
C508 C 0.20344 0.59103 0.29832 0.0
O509 O 0.20037 0.53431 0.2646 0.0
O510 O 0.23721 0.55179 0.27799 0.0
C511 C 0.27101 0.55541 0.24196 0.0
N512 N 0.2678 0.57692 0.25221 0.0
C513 C 0.30052 0.59625 0.23539 0.0
C514 C 0.30422 0.57429 0.22467 0.0
C515 C 0.28932 0.55379 0.22788 0.0
C516 C 0.28185 0.59675 0.24902 0.0
H517 H 0.25972 0.53963 0.24459 0.0
C518 C 0.22012 0.5343 0.27479 0.0
O519 O 0.15846 0.54332 0.24271 0.0
O520 O 0.18547 0.5396 0.21828 0.0
N521 N 0.25743 0.61644 0.27101 0.0
C522 C 0.25133 0.63622 0.28238 0.0
C523 C 0.26477 0.65824 0.28136 0.0
C524 C 0.2842 0.65975 0.26856 0.0
C525 C 0.29034 0.63916 0.25728 0.0
C526 C 0.27658 0.61769 0.25931 0.0
H527 H 0.23662 0.6352 0.29255 0.0
O528 O 0.18879 0.58764 0.23493 0.0
O529 O 0.2216 0.57875 0.24736 0.0
O530 O 0.18874 0.57921 0.28172 0.0
O531 O 0.2253 0.59398 0.29726 0.0
C532 C 0.30957 0.63908 0.2441 0.0
C533 C 0.31454 0.61764 0.233 0.0
H534 H 0.31839 0.57296 0.21388 0.0
H535 H 0.29205 0.53679 0.21964 0.0
H536 H 0.26038 0.67404 0.29073 0.0
H537 H 0.29438 0.67679 0.26767 0.0
H538 H 0.32051 0.65541 0.24221 0.0
H539 H 0.32917 0.61781 0.22266 0.0
Mn540 Mn 0.84056 0.8855 0.55495 0.0
Mn541 Mn 0.84288 0.92806 0.52236 0.0
C542 C 0.87684 0.90825 0.5499 0.0
C543 C 0.83525 0.87464 0.59249 0.0
C544 C 0.83369 0.87596 0.5008 0.0
O545 O 0.80683 0.89018 0.55176 0.0
O546 O 0.81251 0.92203 0.53505 0.0
C547 C 0.84035 0.96824 0.55942 0.0
N548 N 0.85138 0.95843 0.54165 0.0
C549 C 0.87708 0.99519 0.54189 0.0
C550 C 0.86599 1.00576 0.56018 0.0
C551 C 0.84773 0.99215 0.56918 0.0
C552 C 0.86958 0.97112 0.53353 0.0
H553 H 0.82588 0.95794 0.56591 0.0
C554 C 0.79974 0.90715 0.54467 0.0
O555 O 0.83139 0.85915 0.57326 0.0
O556 O 0.84231 0.89606 0.58988 0.0
N557 N 0.87114 0.93631 0.50858 0.0
C558 C 0.87943 0.92369 0.49032 0.0
C559 C 0.89829 0.93454 0.47987 0.0
C560 C 0.90775 0.95849 0.48756 0.0
C561 C 0.89825 0.97137 0.50564 0.0
C562 C 0.88 0.95943 0.51596 0.0
H563 H 0.87175 0.90548 0.48377 0.0
O564 O 0.8754 0.88841 0.55687 0.0
O565 O 0.85713 0.91446 0.54648 0.0
O566 O 0.83689 0.86824 0.5198 0.0
O567 O 0.83433 0.89763 0.50059 0.0
C568 C 0.9056 0.99575 0.51326 0.0
C569 C 0.89495 1.00767 0.53131 0.0
H570 H 0.8713 0.02431 0.56738 0.0
H571 H 0.83907 1.00017 0.58327 0.0
H572 H 0.90524 0.92456 0.46564 0.0
H573 H 0.92201 0.9669 0.47917 0.0
H574 H 0.91948 1.00551 0.50542 0.0
H575 H 0.90088 0.02639 0.53714 0.0
Mn576 Mn 0.94011 0.06034 0.26778 0.0
Mn577 Mn 0.89769 0.05833 0.30561 0.0
C578 C 0.91796 0.02081 0.27399 0.0
C579 C 0.95708 0.06077 0.22707 0.0
C580 C 0.94966 0.06673 0.32436 0.0
O581 O 0.92975 0.09575 0.27171 0.0
O582 O 0.90203 0.09098 0.29601 0.0
C583 C 0.85848 0.06013 0.27225 0.0
N584 N 0.86794 0.04931 0.28806 0.0
C585 C 0.83243 0.02092 0.28578 0.0
C586 C 0.82226 0.03189 0.26965 0.0
C587 C 0.83542 0.05146 0.26269 0.0
C588 C 0.85566 0.03002 0.2943 0.0
H589 H 0.86839 0.07532 0.26698 0.0
C590 C 0.91334 0.10403 0.28315 0.0
O591 O 0.96882 0.06858 0.24725 0.0
O592 O 0.93536 0.05401 0.23031 0.0
N593 N 0.88946 0.02955 0.31678 0.0
C594 C 0.90185 0.02063 0.33222 0.0
C595 C 0.89133 1.00058 0.34033 0.0
C596 C 0.86798 0.99032 0.33311 0.0
C597 C 0.85541 1.00009 0.31767 0.0
C598 C 0.86698 0.01969 0.30965 0.0
H599 H 0.91967 0.02863 0.33829 0.0
O600 O 0.93804 0.02421 0.26575 0.0
O601 O 0.91105 0.04108 0.27841 0.0
O602 O 0.95714 0.06584 0.30366 0.0
O603 O 0.92804 0.06666 0.32655 0.0
C604 C 0.83174 0.99132 0.31017 0.0
C605 C 0.82034 1.00152 0.29399 0.0
H606 H 0.80437 0.02544 0.26249 0.0
H607 H 0.82773 0.05998 0.25018 0.0
H608 H 0.90114 0.99322 0.35235 0.0
H609 H 0.85985 0.97501 0.33961 0.0
H610 H 0.82218 0.97658 0.31656 0.0
H611 H 0.80226 0.99432 0.28802 0.0
Mn612 Mn 0.32492 0.6339 0.55806 0.0
Mn613 Mn 0.30776 0.58798 0.51339 0.0
C614 C 0.28448 0.61715 0.54751 0.0
C615 C 0.33245 0.65335 0.59783 0.0
C616 C 0.32218 0.63773 0.50605 0.0
O617 O 0.35642 0.62122 0.55415 0.0
O618 O 0.34184 0.59271 0.52332 0.0
C619 C 0.3152 0.55091 0.53947 0.0
N620 N 0.30092 0.56002 0.52604 0.0
C621 C 0.26892 0.52827 0.52678 0.0
C622 C 0.28334 0.51847 0.54046 0.0
C623 C 0.30656 0.52987 0.54686 0.0
C624 C 0.27852 0.54921 0.51983 0.0
H625 H 0.33301 0.55966 0.54457 0.0
C626 C 0.35908 0.60422 0.53791 0.0
O627 O 0.33964 0.66354 0.58097 0.0
O628 O 0.3236 0.63106 0.59188 0.0
N629 N 0.27558 0.58095 0.50209 0.0
C630 C 0.26374 0.5931 0.48953 0.0
C631 C 0.24017 0.58422 0.48204 0.0
C632 C 0.22904 0.56293 0.48748 0.0
C633 C 0.24164 0.5506 0.50019 0.0
C634 C 0.26517 0.56018 0.50697 0.0
H635 H 0.27213 0.60956 0.48543 0.0
O636 O 0.29156 0.63869 0.55799 0.0
O637 O 0.30126 0.60589 0.54313 0.0
O638 O 0.32826 0.64629 0.52756 0.0
O639 O 0.31361 0.61601 0.49854 0.0
C640 C 0.2317 0.52938 0.50674 0.0
C641 C 0.24531 0.51824 0.52006 0.0
H642 H 0.27672 0.5023 0.5463 0.0
H643 H 0.31776 0.52248 0.55752 0.0
H644 H 0.23059 0.59384 0.4722 0.0
H645 H 0.21079 0.55627 0.4819 0.0
H646 H 0.21352 0.52161 0.50185 0.0
H647 H 0.23741 0.50206 0.5252 0.0
Mn648 Mn 0.43909 0.56096 0.76725 0.0
Mn649 Mn 0.39761 0.55592 0.80601 0.0
C650 C 0.41808 0.52054 0.77273 0.0
C651 C 0.45918 0.56365 0.72816 0.0
C652 C 0.44964 0.56521 0.82378 0.0
O653 O 0.42722 0.59595 0.77151 0.0
O654 O 0.4019 0.58871 0.79747 0.0
C655 C 0.3579 0.55902 0.77384 0.0
N656 N 0.36756 0.54764 0.78901 0.0
C657 C 0.33157 0.52023 0.78783 0.0
C658 C 0.32119 0.53179 0.7724 0.0
C659 C 0.33449 0.55111 0.76518 0.0
C660 C 0.35515 0.52849 0.79535 0.0
H661 H 0.36788 0.57407 0.76844 0.0
C662 C 0.41121 0.6029 0.78452 0.0
O663 O 0.46862 0.5715 0.74926 0.0
O664 O 0.43724 0.55533 0.72914 0.0
N665 N 0.38947 0.52655 0.81608 0.0
C666 C 0.40215 0.51685 0.83055 0.0
C667 C 0.39155 0.49681 0.83862 0.0
C668 C 0.36783 0.48744 0.83248 0.0
C669 C 0.35501 0.49801 0.81803 0.0
C670 C 0.36668 0.51746 0.80985 0.0
H671 H 0.42025 0.52424 0.83588 0.0
O672 O 0.43821 0.52486 0.76471 0.0
O673 O 0.41045 0.54029 0.77756 0.0
O674 O 0.4562 0.5661 0.80292 0.0
O675 O 0.42803 0.56343 0.82682 0.0
C676 C 0.33101 0.49022 0.81171 0.0
C677 C 0.31937 0.50107 0.79632 0.0
H678 H 0.30303 0.52599 0.766 0.0
H679 H 0.32664 0.56009 0.7532 0.0
H680 H 0.40156 0.48882 0.84986 0.0
H681 H 0.35963 0.47219 0.83903 0.0
H682 H 0.32138 0.47562 0.81827 0.0
H683 H 0.30102 0.49455 0.79116 0.0
Mn684 Mn 0.69727 0.06966 0.7518 0.0
Mn685 Mn 0.75311 0.09485 0.7717 0.0
C686 C 0.7134 0.10561 0.74352 0.0
C687 C 0.66917 0.04465 0.72497 0.0
C688 C 0.71354 0.09434 0.80204 0.0
O689 O 0.70997 0.04253 0.76077 0.0
O690 O 0.74705 0.06077 0.77185 0.0
C691 C 0.77494 0.0714 0.73249 0.0
N692 N 0.77202 0.09142 0.74643 0.0
C693 C 0.79983 0.11518 0.72749 0.0
C694 C 0.80321 0.09482 0.71296 0.0
C695 C 0.79063 0.07285 0.71541 0.0
C696 C 0.78376 0.11265 0.74399 0.0
H697 H 0.76539 0.05448 0.73441 0.0
C698 C 0.73075 0.04253 0.76815 0.0
O699 O 0.66529 0.05076 0.74651 0.0
O700 O 0.68956 0.05268 0.71895 0.0
N701 N 0.76226 0.12785 0.77283 0.0
C702 C 0.75766 0.14569 0.78882 0.0
C703 C 0.76972 0.1687 0.78958 0.0
C704 C 0.78603 0.17327 0.77361 0.0
C705 C 0.7909 0.15461 0.75768 0.0
C706 C 0.77893 0.13193 0.75829 0.0
H707 H 0.74535 0.14232 0.80134 0.0
O708 O 0.69107 0.0989 0.74259 0.0
O709 O 0.72585 0.09098 0.74897 0.0
O710 O 0.69774 0.08365 0.78601 0.0
O711 O 0.73499 0.09966 0.79898 0.0
C712 C 0.8074 0.15756 0.74144 0.0
C713 C 0.8117 0.13788 0.7262 0.0
H714 H 0.81538 0.09585 0.69985 0.0
H715 H 0.79311 0.05706 0.70423 0.0
H716 H 0.76672 0.18284 0.80272 0.0
H717 H 0.79503 0.19111 0.77405 0.0
H718 H 0.81682 0.1749 0.74047 0.0
H719 H 0.82428 0.14039 0.71365 0.0
Mn720 Mn 0.78444 0.71087 0.02022 0.0
Mn721 Mn 0.77853 0.66298 0.97738 0.0
C722 C 0.74756 0.68631 1.00799 0.0
C723 C 0.7916 0.72909 0.06061 0.0
C724 C 0.78992 0.71288 0.96784 0.0
O725 O 0.81714 0.70343 0.02028 0.0
O726 O 0.81034 0.66949 0.99391 0.0
C727 C 0.78212 0.62593 1.00477 0.0
N728 N 0.76975 0.63483 0.98934 0.0
C729 C 0.73805 0.60164 0.98482 0.0
C730 C 0.75045 0.59216 1.00067 0.0
C731 C 0.77258 0.60437 1.01069 0.0
C732 C 0.74851 0.62313 0.97946 0.0
H733 H 0.79912 0.63524 1.01257 0.0
C734 C 0.8235 0.68508 1.0097 0.0
O735 O 0.7958 0.74071 0.04395 0.0
O736 O 0.7831 0.70686 0.05397 0.0
N737 N 0.7481 0.65498 0.96116 0.0
C738 C 0.73777 0.66727 0.94744 0.0
C739 C 0.71527 0.65781 0.93663 0.0
C740 C 0.70361 0.63586 0.94007 0.0
C741 C 0.71447 0.62365 0.95449 0.0
C742 C 0.73699 0.63386 0.96464 0.0
H743 H 0.74661 0.68418 0.94476 0.0
O744 O 0.74926 0.70816 0.0177 0.0
O745 O 0.76734 0.68045 1.00461 0.0
O746 O 0.78831 0.72313 0.98877 0.0
O747 O 0.78722 0.69062 0.9622 0.0
C748 C 0.70369 0.60192 0.95945 0.0
C749 C 0.71547 0.59093 0.9746 0.0
H750 H 0.74307 0.57563 1.00544 0.0
H751 H 0.78224 0.59719 0.02299 0.0
H752 H 0.70692 0.66742 0.92568 0.0
H753 H 0.68626 0.62863 0.93167 0.0
H754 H 0.68624 0.59364 0.95193 0.0
H755 H 0.70688 0.57438 0.97854 0.0
Mn756 Mn 0.93773 0.53098 0.82914 0.0
Mn757 Mn 0.89948 0.54421 0.86721 0.0
C758 C 0.91427 0.5012 0.8425 0.0
C759 C 0.94723 0.52326 0.79104 0.0
C760 C 0.95161 0.55401 0.87958 0.0
O761 O 0.9347 0.56404 0.82614 0.0
O762 O 0.90488 0.56871 0.84776 0.0
C763 C 0.85665 0.54053 0.83655 0.0
N764 N 0.868 0.53348 0.85415 0.0
C765 C 0.83339 0.50706 0.85997 0.0
C766 C 0.82132 0.51409 0.84194 0.0
C767 C 0.83301 0.5309 0.83019 0.0
C768 C 0.85684 0.51758 0.86582 0.0
H769 H 0.86557 0.55335 0.82738 0.0
C770 C 0.91916 0.57523 0.83332 0.0
O771 O 0.96309 0.53178 0.80835 0.0
O772 O 0.92581 0.51928 0.79586 0.0
N773 N 0.89281 0.52097 0.88622 0.0
C774 C 0.90751 0.51435 0.90145 0.0
C775 C 0.89891 0.49653 0.91355 0.0
C776 C 0.87531 0.48572 0.90988 0.0
C777 C 0.86053 0.49279 0.89408 0.0
C778 C 0.87005 0.51072 0.88261 0.0
H779 H 0.9257 0.52244 0.9042 0.0
O780 O 0.93363 0.498 0.83423 0.0
O781 O 0.90954 0.52185 0.84295 0.0
O782 O 0.9568 0.54309 0.86057 0.0
O783 O 0.931 0.55632 0.88326 0.0
C784 C 0.83685 0.48228 0.88879 0.0
C785 C 0.82327 0.48948 0.87181 0.0
H786 H 0.80316 0.50647 0.83677 0.0
H787 H 0.82384 0.53633 0.8162 0.0
H788 H 0.91047 0.49106 0.92559 0.0
H789 H 0.8688 0.47183 0.91908 0.0
H790 H 0.82901 0.46837 0.89738 0.0
H791 H 0.80519 0.48099 0.86762 0.0
Mn792 Mn 0.80278 0.46409 0.51394 0.0
Mn793 Mn 0.80669 0.50673 0.48256 0.0
C794 C 0.84005 0.48505 0.50904 0.0
C795 C 0.79889 0.45058 0.54925 0.0
C796 C 0.79807 0.45441 0.46028 0.0
O797 O 0.76926 0.47122 0.51265 0.0
O798 O 0.77426 0.50138 0.49368 0.0
C799 C 0.80284 0.54654 0.51965 0.0
N800 N 0.81496 0.5367 0.50285 0.0
C801 C 0.84633 0.57038 0.51141 0.0
C802 C 0.83407 0.58093 0.52864 0.0
C803 C 0.81225 0.56894 0.53278 0.0
C804 C 0.83598 0.54811 0.49871 0.0
H805 H 0.78615 0.53736 0.5231 0.0
C806 C 0.76157 0.48775 0.50495 0.0
O807 O 0.79317 0.43657 0.52924 0.0
O808 O 0.80594 0.47265 0.54883 0.0
N809 N 0.83656 0.51454 0.47141 0.0
C810 C 0.84678 0.50147 0.45508 0.0
C811 C 0.869 0.51073 0.44942 0.0
C812 C 0.88048 0.53332 0.46054 0.0
C813 C 0.86962 0.54648 0.47719 0.0
C814 C 0.84736 0.53642 0.482 0.0
H815 H 0.8382 0.48402 0.44658 0.0
O816 O 0.83715 0.46448 0.51453 0.0
O817 O 0.82082 0.49302 0.50699 0.0
O818 O 0.79868 0.44701 0.47948 0.0
O819 O 0.79925 0.4762 0.45967 0.0
C820 C 0.88022 0.56899 0.48956 0.0
C821 C 0.86858 0.58093 0.50665 0.0
H822 H 0.84135 0.59813 0.53894 0.0
H823 H 0.80275 0.5769 0.54615 0.0
H824 H 0.87732 0.50041 0.43664 0.0
H825 H 0.89771 0.54031 0.45629 0.0
H826 H 0.89744 0.57716 0.48627 0.0
H827 H 0.87702 0.59813 0.51623 0.0
Mn828 Mn 0.68547 0.53339 0.27332 0.0
Mn829 Mn 0.72829 0.5456 0.31787 0.0
C830 C 0.70721 0.57502 0.28688 0.0
C831 C 0.66834 0.52866 0.23033 0.0
C832 C 0.67619 0.53531 0.32848 0.0
O833 O 0.69757 0.49918 0.2724 0.0
O834 O 0.72519 0.51027 0.30269 0.0
C835 C 0.76826 0.53898 0.2907 0.0
N836 N 0.75783 0.55291 0.306 0.0
C837 C 0.79079 0.58482 0.3104 0.0
C838 C 0.80194 0.57073 0.29489 0.0
C839 C 0.79057 0.54775 0.28492 0.0
C840 C 0.7685 0.57518 0.31543 0.0
H841 H 0.7597 0.52131 0.28291 0.0
C842 C 0.71437 0.49402 0.28554 0.0
O843 O 0.65669 0.52199 0.24692 0.0
O844 O 0.69014 0.53555 0.23795 0.0
N845 N 0.73472 0.57776 0.33349 0.0
C846 C 0.72112 0.58968 0.347 0.0
C847 C 0.72967 0.61321 0.35755 0.0
C848 C 0.75214 0.62425 0.3542 0.0
C849 C 0.7658 0.61168 0.34021 0.0
C850 C 0.75631 0.5883 0.33001 0.0
H851 H 0.70378 0.58146 0.34958 0.0
O852 O 0.68594 0.56923 0.2776 0.0
O853 O 0.71474 0.55592 0.28984 0.0
O854 O 0.66889 0.5314 0.30626 0.0
O855 O 0.69825 0.53972 0.33418 0.0
C856 C 0.78841 0.62151 0.33586 0.0
C857 C 0.80091 0.60809 0.32099 0.0
H858 H 0.81916 0.57741 0.29041 0.0
H859 H 0.799 0.53679 0.27283 0.0
H860 H 0.71895 0.62282 0.3682 0.0
H861 H 0.75866 0.64241 0.36233 0.0
H862 H 0.79627 0.63949 0.34367 0.0
H863 H 0.81819 0.61595 0.31756 0.0
Eu864 Eu 0.07722 0.0713 0.0337 0.0
Eu865 Eu 0.04717 0.02147 1.01569 0.0
C866 C 0.08212 0.04343 0.97782 0.0
C867 C 0.09718 0.13871 0.04553 0.0
C868 C 0.07503 0.14313 0.04048 0.0
C869 C 0.11452 0.17695 0.03819 0.0
C870 C 0.07275 0.16382 0.0329 0.0
C871 C 0.11677 0.15637 0.04587 0.0
C872 C 0.09261 0.18011 0.03018 0.0
C873 C 0.10058 0.11451 0.04253 0.0
O874 O 0.08407 1.01444 0.02227 0.0
O875 O 0.10574 0.05052 0.03824 0.0
C876 C 0.10448 0.02807 0.0301 0.0
O877 O 0.05987 0.06551 0.06886 0.0
O878 O 0.0279 0.99163 0.98976 0.0
O879 O 0.03354 0.9885 0.02594 0.0
O880 O 0.03458 0.03153 0.05312 0.0
C881 C 0.04168 0.04901 0.0714 0.0
O882 O 0.04014 0.07846 0.02761 0.0
O883 O 0.01786 0.04206 1.01379 0.0
O884 O 0.06299 0.02841 0.98069 0.0
O885 O 0.09593 0.1024 0.05894 0.0
O886 O 0.09325 0.10234 0.02178 0.0
O887 O 0.09069 0.06043 0.9962 0.0
C888 C 0.03544 0.95585 0.99861 0.0
C889 C 0.05849 0.957 0.99332 0.0
C890 C 0.03394 0.91658 1.00601 0.0
C891 C 0.06951 0.9384 0.99537 0.0
C892 C 0.02295 0.93515 1.0039 0.0
C893 C 0.05768 0.91846 1.0029 0.0
C894 C 0.02659 0.97746 1.00467 0.0
C895 C 0.01937 0.06471 0.02137 0.0
H896 H 0.05973 0.12955 0.03984 0.0
H897 H 0.13005 0.18941 0.03651 0.0
H898 H 0.05565 0.1658 0.0268 0.0
H899 H 0.134 0.15317 0.04951 0.0
H900 H 0.0685 0.97296 0.98941 0.0
H901 H 0.0243 0.90167 1.01208 0.0
H902 H 0.08769 0.94026 0.99249 0.0
H903 H 1.00527 0.93412 1.00841 0.0
Eu904 Eu 0.32659 0.79227 0.24654 0.0
Eu905 Eu 0.3004 0.78022 0.2935 0.0
C906 C 0.27273 0.79589 0.25194 0.0
C907 C 0.33812 0.81862 0.19265 0.0
C908 C 0.33777 0.84261 0.19934 0.0
C909 C 0.3231 0.82001 0.15335 0.0
C910 C 0.33001 0.8551 0.18319 0.0
C911 C 0.33104 0.80761 0.16939 0.0
C912 C 0.32221 0.84382 0.1601 0.0
C913 C 0.34468 0.80455 0.20975 0.0
O914 O 0.28543 0.75257 0.26227 0.0
O915 O 0.31754 0.75296 0.24218 0.0
C916 C 0.29694 0.74251 0.24633 0.0
O917 O 0.35448 0.79164 0.27436 0.0
O918 O 0.27792 0.75517 0.30976 0.0
O919 O 0.29516 0.78848 0.33062 0.0
O920 O 0.33276 0.76554 0.29298 0.0
C921 C 0.35286 0.77716 0.28908 0.0
O922 O 0.31835 0.8253 0.26629 0.0
O923 O 0.32222 0.81685 0.30277 0.0
O924 O 0.27523 0.797 0.27471 0.0
O925 O 0.35188 0.8156 0.23103 0.0
O926 O 0.3307 0.78452 0.2093 0.0
O927 O 0.28862 0.79064 0.23823 0.0
C928 C 0.28974 0.75553 0.34957 0.0
C929 C 0.29366 0.73247 0.34472 0.0
C930 C 0.2979 0.75601 0.391 0.0
C931 C 0.29964 0.72134 0.36285 0.0
C932 C 0.29181 0.76707 0.37291 0.0
C933 C 0.302 0.73303 0.38624 0.0
C934 C 0.28306 0.76764 0.33074 0.0
C935 C 0.32245 0.83207 0.28893 0.0
H936 H 0.34306 0.85167 0.21714 0.0
H937 H 0.31755 0.81089 0.1356 0.0
H938 H 0.32944 0.87338 0.18895 0.0
H939 H 0.33124 0.78921 0.16369 0.0
H940 H 0.29219 0.72301 0.32692 0.0
H941 H 0.29919 0.76544 0.40879 0.0
H942 H 0.30285 0.70373 0.35852 0.0
H943 H 0.28867 0.78471 0.3772 0.0
Eu944 Eu 0.56905 0.02144 0.544 0.0
Eu945 Eu 0.52544 0.04021 0.57048 0.0
C946 C 0.55886 1.01325 0.59633 0.0
C947 C 0.61984 0.99043 0.53033 0.0
C948 C 0.63924 0.99988 0.54669 0.0
C949 C 0.63382 0.95379 0.52245 0.0
C950 C 0.65582 0.9866 0.55066 0.0
C951 C 0.61721 0.96714 0.5184 0.0
C952 C 0.65354 0.96352 0.53835 0.0
C953 C 0.60313 1.00511 0.52483 0.0
O954 O 0.55891 0.0625 0.58866 0.0
O955 O 0.58041 0.06022 0.5574 0.0
C956 C 0.57675 0.07082 0.5781 0.0
O957 O 0.54567 0.03041 0.5164 0.0
O958 O 0.51241 0.0676 0.5926 0.0
O959 O 0.48813 0.03685 0.57422 0.0
O960 O 0.53322 0.05906 0.54085 0.0
C961 C 0.53542 0.04845 0.51973 0.0
O962 O 0.54205 0.99096 0.54846 0.0
O963 O 0.51153 1.00802 0.54259 0.0
O964 O 0.53791 0.0181 0.59462 0.0
O965 O 0.58135 0.99485 0.51959 0.0
O966 O 0.60553 0.02583 0.53791 0.0
O967 O 0.57392 0.01671 0.58094 0.0
C968 C 0.47573 0.07341 0.57844 0.0
C969 C 0.48536 0.09452 0.57153 0.0
C970 C 0.43727 0.082 0.57187 0.0
C971 C 0.47112 0.10936 0.56521 0.0
C972 C 0.45154 0.06726 0.5784 0.0
C973 C 0.44689 0.10336 0.56541 0.0
C974 C 0.49066 0.05806 0.5863 0.0
C975 C 0.52063 0.98924 0.54017 0.0
H976 H 0.6419 0.01773 0.55624 0.0
H977 H 0.63163 0.93614 0.51252 0.0
H978 H 0.67061 0.99453 0.56327 0.0
H979 H 0.60254 0.95939 0.50559 0.0
H980 H 0.50394 0.09972 0.57115 0.0
H981 H 0.41871 0.07691 0.5724 0.0
H982 H 0.4791 0.12549 0.56002 0.0
H983 H 0.44367 0.05114 0.58367 0.0
Eu984 Eu 0.2922 0.30447 0.78153 0.0
Eu985 Eu 0.34079 0.28906 0.78007 0.0
C986 C 0.29422 0.24682 0.78275 0.0
C987 C 0.23932 0.3286 0.80224 0.0
C988 C 0.24939 0.33743 0.82518 0.0
C989 C 0.20328 0.33933 0.81318 0.0
C990 C 0.23623 0.34675 0.84221 0.0
C991 C 0.21643 0.33011 0.79625 0.0
C992 C 0.21283 0.34729 0.8365 0.0
C993 C 0.25134 0.31539 0.78503 0.0
O994 O 0.32866 0.28316 0.74136 0.0
O995 O 0.29345 0.29413 0.7425 0.0
C996 C 0.30952 0.2862 0.73072 0.0
O997 O 0.31636 0.34079 0.77884 0.0
O998 O 0.3615 0.26227 0.77271 0.0
O999 O 0.37873 0.29817 0.78544 0.0
O1000 O 0.35136 0.32968 0.78042 0.0
C1001 C 0.33944 0.34662 0.7793 0.0
O1002 O 0.30793 0.31672 0.81914 0.0
O1003 O 0.33615 0.29503 0.81895 0.0
O1004 O 0.31703 0.25332 0.78244 0.0
O1005 O 0.26796 0.32723 0.77564 0.0
O1006 O 0.25676 0.29662 0.79063 0.0
O1007 O 0.28162 0.26339 0.78226 0.0
C1008 C 0.39645 0.27518 0.75767 0.0
C1009 C 0.41858 0.27061 0.76199 0.0
C1010 C 0.40287 0.27419 0.71689 0.0
C1011 C 0.43282 0.26787 0.74388 0.0
C1012 C 0.38869 0.27704 0.73504 0.0
C1013 C 0.4251 0.26959 0.72112 0.0
C1014 C 0.38121 0.27712 0.77653 0.0
C1015 C 0.32366 0.30866 0.8304 0.0
H1016 H 0.26709 0.33631 0.83009 0.0
H1017 H 0.18523 0.33897 0.80817 0.0
H1018 H 0.24416 0.3529 0.85994 0.0
H1019 H 0.20836 0.32315 0.77866 0.0
H1020 H 0.42475 0.26896 0.77932 0.0
H1021 H 0.39654 0.27585 0.69962 0.0
H1022 H 0.44976 0.26405 0.74763 0.0
H1023 H 0.37163 0.28058 0.73138 0.0
Eu1024 Eu 0.05505 0.06717 0.53876 0.0
Eu1025 Eu 0.07339 0.02528 0.51007 0.0
C1026 C 0.10284 0.07588 0.5136 0.0
C1027 C 0.04978 0.12721 0.54004 0.0
C1028 C 0.0619 0.12368 0.52023 0.0
C1029 C 0.04633 0.16556 0.53207 0.0
C1030 C 0.06597 0.14059 0.50636 0.0
C1031 C 0.04214 0.14837 0.54606 0.0
C1032 C 0.05795 0.16159 0.51183 0.0
C1033 C 0.04496 0.10798 0.55323 0.0
O1034 O 0.09152 0.03153 0.5488 0.0
O1035 O 0.07022 0.05383 0.57079 0.0
C1036 C 0.08661 0.0411 0.57 0.0
O1037 O 0.02653 0.0373 0.54456 0.0
O1038 O 0.10034 1.0042 0.50819 0.0
O1039 O 0.06903 0.99256 0.48482 0.0
O1040 O 0.03951 1.00838 0.52083 0.0
C1041 C 0.0241 1.01524 0.53416 0.0
O1042 O 0.04068 0.06543 0.49965 0.0
O1043 O 0.05274 0.03462 0.4783 0.0
O1044 O 0.09553 0.05607 0.49899 0.0
O1045 O 0.02953 0.08979 0.54267 0.0
O1046 O 0.06333 0.10173 0.56153 0.0
O1047 O 0.09275 0.08044 0.53275 0.0
C1048 C 0.08098 0.9646 0.50481 0.0
C1049 C 0.05805 0.95158 0.50202 0.0
C1050 C 0.09025 0.94263 0.53457 0.0
C1051 C 0.05106 0.93533 0.51617 0.0
C1052 C 0.09724 0.95919 0.52056 0.0
C1053 C 0.06686 0.93135 0.53319 0.0
C1054 C 0.08656 0.98627 0.49485 0.0
C1055 C 0.04096 0.05182 0.4789 0.0
H1056 H 0.06804 0.10758 0.51523 0.0
H1057 H 0.03993 0.18159 0.53668 0.0
H1058 H 0.07534 0.13713 0.49118 0.0
H1059 H 0.03274 0.15144 0.56127 0.0
H1060 H 0.04502 0.95499 0.48996 0.0
H1061 H 0.10279 0.93987 0.54757 0.0
H1062 H 0.03297 0.92665 0.51456 0.0
H1063 H 0.11501 0.96885 0.52313 0.0
Eu1064 Eu 0.33476 0.8118 0.77237 0.0
Eu1065 Eu 0.29033 0.78458 0.78836 0.0
C1066 C 0.31646 0.83058 0.82334 0.0
C1067 C 0.39904 0.82928 0.76519 0.0
C1068 C 0.40322 0.80851 0.77158 0.0
C1069 C 0.43898 0.84801 0.77792 0.0
C1070 C 0.4246 0.80825 0.78306 0.0
C1071 C 0.41753 0.84833 0.76669 0.0
C1072 C 0.44198 0.82872 0.78799 0.0
C1073 C 0.37563 0.83415 0.76561 0.0
O1074 O 0.27757 0.81893 0.78002 0.0
O1075 O 0.31032 0.83997 0.76945 0.0
C1076 C 0.28825 0.83924 0.77463 0.0
O1077 O 0.31918 0.78942 0.73745 0.0
O1078 O 0.26759 0.76965 0.81248 0.0
O1079 O 0.25549 0.76546 0.77587 0.0
O1080 O 0.29699 0.76254 0.75436 0.0
C1081 C 0.30747 0.76801 0.73628 0.0
O1082 O 0.34682 0.77595 0.77889 0.0
O1083 O 0.31496 0.75775 0.79341 0.0
O1084 O 0.30365 0.80975 0.82254 0.0
O1085 O 0.35991 0.82368 0.74843 0.0
O1086 O 0.36778 0.834 0.78593 0.0
O1087 O 0.32844 0.83471 0.80581 0.0
C1088 C 0.22874 0.77179 0.80239 0.0
C1089 C 0.20752 0.75587 0.79942 0.0
C1090 C 0.20837 0.80393 0.80379 0.0
C1091 C 0.18679 0.76386 0.7978 0.0
C1092 C 0.22907 0.79594 0.80576 0.0
C1093 C 0.18713 0.78786 0.79879 0.0
C1094 C 0.2498 0.76321 0.7967 0.0
C1095 C 0.33616 0.75679 0.78656 0.0
H1096 H 0.38914 0.79359 0.77048 0.0
H1097 H 0.45238 0.86377 0.78089 0.0
H1098 H 0.42647 0.79303 0.79039 0.0
H1099 H 0.41464 0.86449 0.76184 0.0
H1100 H 0.20701 0.73717 0.79654 0.0
H1101 H 0.20904 0.8225 0.80472 0.0
H1102 H 0.17065 0.75108 0.79372 0.0
H1103 H 0.24536 0.80847 0.80811 0.0
Eu1104 Eu 0.5628 0.04344 0.05629 0.0
Eu1105 Eu 0.55664 0.05634 1.0046 0.0
C1106 C 0.54959 0.09217 0.05014 0.0
C1107 C 0.54697 0.03256 0.11612 0.0
C1108 C 0.5541 0.04767 0.1377 0.0
C1109 C 0.50982 0.01906 0.13032 0.0
C1110 C 0.53915 0.0486 0.15539 0.0
C1111 C 0.52467 0.01822 0.11265 0.0
C1112 C 0.5168 0.03432 0.15188 0.0
C1113 C 0.56276 0.03193 0.09739 0.0
O1114 O 0.59482 0.07173 0.01801 0.0
O1115 O 0.60088 0.05333 0.04863 0.0
C1116 C 0.60914 0.06601 0.03335 0.0
O1117 O 0.56754 1.01129 0.03144 0.0
O1118 O 0.55855 0.08424 0.98457 0.0
O1119 O 0.54872 0.04793 0.96679 0.0
O1120 O 0.57521 0.0265 0.99863 0.0
C1121 C 0.5754 1.00999 1.01083 0.0
O1122 O 0.5236 0.04036 0.04733 0.0
O1123 O 0.52105 0.0339 1.00748 0.0
O1124 O 0.54217 0.08283 0.02843 0.0
O1125 O 0.55509 0.01716 0.07797 0.0
O1126 O 0.57383 0.05206 0.09373 0.0
O1127 O 0.56161 0.08185 0.06316 0.0
C1128 C 0.57398 0.07444 0.9494 0.0
C1129 C 0.59259 0.06274 0.94961 0.0
C1130 C 0.59369 0.09907 0.9246 0.0
C1131 C 0.61153 0.06905 0.93725 0.0
C1132 C 0.57462 0.09262 0.93683 0.0
C1133 C 0.61232 0.08736 0.92475 0.0
C1134 C 0.55547 0.06975 0.96461 0.0
C1135 C 0.51093 0.03372 0.02697 0.0
H1136 H 0.5712 0.05888 0.14085 0.0
H1137 H 0.49292 1.00748 0.12715 0.0
H1138 H 0.54501 0.06072 0.1717 0.0
H1139 H 0.5186 1.00628 0.09627 0.0
H1140 H 0.59271 0.04906 0.95971 0.0
H1141 H 0.5938 0.11308 0.91488 0.0
H1142 H 0.62576 0.05988 0.93781 0.0
H1143 H 0.56059 0.1021 0.93687 0.0
Eu1144 Eu 0.32185 0.31529 0.29386 0.0
Eu1145 Eu 0.29595 0.26345 0.26662 0.0
C1146 C 0.30547 0.30553 0.23762 0.0
C1147 C 0.32365 0.37765 0.31197 0.0
C1148 C 0.30893 0.37509 0.29152 0.0
C1149 C 0.30859 0.41166 0.32878 0.0
C1150 C 0.29392 0.39038 0.28983 0.0
C1151 C 0.32359 0.39615 0.33053 0.0
C1152 C 0.29327 0.40853 0.30858 0.0
C1153 C 0.33559 0.35861 0.31498 0.0
O1154 O 0.33238 0.26982 0.2565 0.0
O1155 O 0.35142 0.2966 0.28805 0.0
C1156 C 0.35164 0.2814 0.26887 0.0
O1157 O 0.3145 0.29338 0.32242 0.0
O1158 O 0.2947 0.23276 0.23942 0.0
O1159 O 0.26798 0.23256 0.26303 0.0
O1160 O 0.31409 0.25772 0.2999 0.0
C1161 C 0.31471 0.2709 0.32064 0.0
O1162 O 0.28416 0.31459 0.28591 0.0
O1163 O 0.27145 0.2777 0.29076 0.0
O1164 O 0.29033 0.28694 0.24063 0.0
O1165 O 0.32359 0.3426 0.32458 0.0
O1166 O 0.34482 0.34949 0.29674 0.0
O1167 O 0.32093 0.31737 0.25493 0.0
C1168 C 0.28549 0.19943 0.25586 0.0
C1169 C 0.28877 0.19896 0.27977 0.0
C1170 C 0.30712 0.16832 0.24753 0.0
C1171 C 0.3018 0.18391 0.28752 0.0
C1172 C 0.29398 0.18334 0.23976 0.0
C1173 C 0.31192 0.16914 0.27154 0.0
C1174 C 0.2785 0.21985 0.24836 0.0
C1175 C 0.2691 0.2995 0.29388 0.0
H1176 H 0.30836 0.36067 0.27712 0.0
H1177 H 0.30838 0.42555 0.34347 0.0
H1178 H 0.28261 0.38783 0.27391 0.0
H1179 H 0.33446 0.39806 0.34662 0.0
H1180 H 0.28275 0.21137 0.29269 0.0
H1181 H 0.3144 0.15682 0.23481 0.0
H1182 H 0.30528 0.18507 0.30612 0.0
H1183 H 0.29187 0.18355 0.22128 0.0
Eu1184 Eu 0.55301 0.56974 0.03628 0.0
Eu1185 Eu 0.56771 0.52275 1.01547 0.0
C1186 C 0.60224 0.57214 0.01662 0.0
C1187 C 0.54788 0.63126 0.03855 0.0
C1188 C 0.54414 0.62758 1.0141 0.0
C1189 C 0.56707 0.67143 0.03896 0.0
C1190 C 0.55221 0.64552 1.00217 0.0
C1191 C 0.55888 0.65348 0.05092 0.0
C1192 C 0.5644 0.6674 1.01443 0.0
C1193 C 0.54433 0.61115 0.05057 0.0
O1194 O 0.57741 0.52462 0.05559 0.0
O1195 O 0.57681 0.56318 0.06767 0.0
C1196 C 0.58257 0.54355 0.07246 0.0
O1197 O 0.52598 0.54316 0.04906 0.0
O1198 O 0.59445 0.50221 1.00764 0.0
O1199 O 0.55858 0.48643 0.99668 0.0
O1200 O 0.53238 0.50972 0.02659 0.0
C1201 C 0.52007 0.5204 0.04118 0.0
O1202 O 0.53389 0.56196 0.99831 0.0
O1203 O 0.55382 0.53499 0.98159 0.0
O1204 O 0.60062 0.5506 0.02 0.0
O1205 O 0.52828 0.59308 0.04086 0.0
O1206 O 0.5634 0.605 0.05715 0.0
O1207 O 0.58358 0.58106 0.01615 0.0
C1208 C 0.58014 0.46461 1.01558 0.0
C1209 C 0.56906 0.44124 1.00711 0.0
C1210 C 0.58324 0.45619 0.05469 0.0
C1211 C 0.56486 0.42548 0.02242 0.0
C1212 C 0.58801 0.4716 0.03935 0.0
C1213 C 0.57111 0.43299 0.04662 0.0
C1214 C 0.57927 0.48265 1.00122 0.0
C1215 C 0.53879 0.54899 0.97899 0.0
H1216 H 0.53607 0.61048 1.00407 0.0
H1217 H 0.57614 0.68824 0.04889 0.0
H1218 H 0.55007 0.64181 0.98329 0.0
H1219 H 0.5622 0.65661 0.06973 0.0
H1220 H 0.56271 0.43547 0.98886 0.0
H1221 H 0.5881 0.46309 0.07306 0.0
H1222 H 0.5561 0.40763 1.0153 0.0
H1223 H 0.5967 0.48946 0.04646 0.0
Eu1224 Eu 0.83842 0.31564 0.27527 0.0
Eu1225 Eu 0.79561 0.28679 0.2919 0.0
C1226 C 0.82124 0.3318 0.32696 0.0
C1227 C 0.90188 0.33606 0.26528 0.0
C1228 C 0.90874 0.31607 0.27087 0.0
C1229 C 0.94207 0.35591 0.26905 0.0
C1230 C 0.93202 0.31682 0.27758 0.0
C1231 C 0.91875 0.35526 0.26267 0.0
C1232 C 0.94857 0.33753 0.27854 0.0
C1233 C 0.8785 0.33982 0.26926 0.0
O1234 O 0.7808 0.32015 0.2827 0.0
O1235 O 0.81283 0.34251 0.27224 0.0
C1236 C 0.79068 0.34084 0.27725 0.0
O1237 O 0.82523 0.29218 0.24046 0.0
O1238 O 0.7656 0.28557 0.31218 0.0
O1239 O 0.77057 0.25407 0.29035 0.0
O1240 O 0.79415 0.27032 0.25334 0.0
C1241 C 0.80815 0.27387 0.237 0.0
O1242 O 0.85123 0.28 0.2804 0.0
O1243 O 0.82087 0.25977 0.29529 0.0
O1244 O 0.81224 0.30969 0.32657 0.0
O1245 O 0.86191 0.33191 0.25228 0.0
O1246 O 0.87209 0.33592 0.28945 0.0
O1247 O 0.83002 0.33751 0.30825 0.0
C1248 C 0.73343 0.26315 0.28813 0.0
C1249 C 0.7317 0.25825 0.26362 0.0
C1250 C 0.69757 0.27748 0.28655 0.0
C1251 C 0.71367 0.26387 0.25076 0.0
C1252 C 0.71573 0.2719 0.29948 0.0
C1253 C 0.69695 0.27443 0.26211 0.0
C1254 C 0.75581 0.2646 0.30132 0.0
C1255 C 0.84189 0.26008 0.28759 0.0
H1256 H 0.89588 0.30103 0.27287 0.0
H1257 H 0.95462 0.37182 0.26896 0.0
H1258 H 0.93644 0.30228 0.28462 0.0
H1259 H 0.91374 0.37078 0.25823 0.0
H1260 H 0.74519 0.25173 0.25431 0.0
H1261 H 0.68459 0.28511 0.29573 0.0
H1262 H 0.71378 0.2614 0.23199 0.0
H1263 H 0.71682 0.27597 0.31835 0.0
Eu1264 Eu 0.06087 0.53883 0.55233 0.0
Eu1265 Eu 0.06146 0.56953 0.51142 0.0
C1266 C 0.05351 0.59195 0.56389 0.0
C1267 C 0.04484 0.51238 0.60528 0.0
C1268 C 0.04355 0.53277 0.62114 0.0
C1269 C 0.01898 0.48923 0.62714 0.0
C1270 C 0.0302 0.53135 0.63994 0.0
C1271 C 0.03255 0.49062 0.60848 0.0
C1272 C 0.01769 0.50959 0.64302 0.0
C1273 C 0.05799 0.51356 0.58479 0.0
O1274 O 0.09948 0.57893 0.52756 0.0
O1275 O 0.09933 0.54841 0.547 0.0
C1276 C 0.11082 0.56617 0.5387 0.0
O1277 O 0.06184 0.51353 0.51889 0.0
O1278 O 0.06811 0.60329 0.50045 0.0
O1279 O 0.05403 0.57166 0.47497 0.0
O1280 O 0.07881 0.53992 0.49778 0.0
C1281 C 0.074 0.51851 0.50173 0.0
O1282 O 0.02332 0.54259 0.54558 0.0
O1283 O 0.02414 0.54771 0.50785 0.0
O1284 O 0.0483 0.59078 0.54156 0.0
O1285 O 0.04571 0.50707 0.56461 0.0
O1286 O 0.07401 0.5323 0.58565 0.0
O1287 O 0.06228 0.57562 0.57166 0.0
C1288 C 0.081 0.60084 0.46318 0.0
C1289 C 0.10336 0.59658 0.46724 0.0
C1290 C 0.09251 0.61655 0.42911 0.0
C1291 C 0.12018 0.6021 0.4522 0.0
C1292 C 0.07571 0.61107 0.44423 0.0
C1293 C 0.11484 0.61186 0.43279 0.0
C1294 C 0.06309 0.59403 0.47837 0.0
C1295 C 1.01227 0.54229 0.52527 0.0
H1296 H 0.05261 0.54983 0.61889 0.0
H1297 H 1.00962 0.47223 0.62926 0.0
H1298 H 0.02928 0.54733 0.6518 0.0
H1299 H 0.03325 0.47471 0.59637 0.0
H1300 H 0.10768 0.58857 0.48179 0.0
H1301 H 0.08797 0.62422 0.4144 0.0
H1302 H 0.13709 0.59796 0.45531 0.0
H1303 H 0.05852 0.61451 0.44094 0.0
Eu1304 Eu 0.79177 0.80499 0.28048 0.0
Eu1305 Eu 0.83887 0.78907 0.28327 0.0
C1306 C 0.79092 0.74792 0.28434 0.0
C1307 C 0.74112 0.83516 0.29368 0.0
C1308 C 0.75268 0.8485 0.31479 0.0
C1309 C 0.70592 0.84833 0.30355 0.0
C1310 C 0.74065 0.86115 0.33058 0.0
C1311 C 0.71796 0.83576 0.28782 0.0
C1312 C 0.71689 0.86052 0.32546 0.0
C1313 C 0.75181 0.81798 0.27935 0.0
O1314 O 0.83252 0.7928 0.24562 0.0
O1315 O 0.79335 0.78558 0.24339 0.0
C1316 C 0.81249 0.78641 0.23297 0.0
O1317 O 0.81682 0.84029 0.27664 0.0
O1318 O 0.86022 0.76434 0.27007 0.0
O1319 O 0.87479 0.79381 0.29781 0.0
O1320 O 0.85102 0.83023 0.2864 0.0
C1321 C 0.83978 0.84672 0.28141 0.0
O1322 O 0.80595 0.81824 0.31871 0.0
O1323 O 0.82949 0.79219 0.32054 0.0
O1324 O 0.81341 0.75236 0.28113 0.0
O1325 O 0.76869 0.82601 0.26771 0.0
O1326 O 0.75628 0.80123 0.28953 0.0
O1327 O 0.78021 0.76607 0.28636 0.0
C1328 C 0.89854 0.78264 0.26863 0.0
C1329 C 0.90102 0.80283 0.25873 0.0
C1330 C 0.92998 0.77092 0.24773 0.0
C1331 C 0.91785 0.80701 0.24336 0.0
C1332 C 0.91321 0.76682 0.26323 0.0
C1333 C 0.93226 0.79093 0.23745 0.0
C1334 C 0.87902 0.77674 0.28234 0.0
C1335 C 0.81851 0.80773 0.33113 0.0
H1336 H 0.77062 0.84811 0.31957 0.0
H1337 H 0.68757 0.84703 0.29912 0.0
H1338 H 0.74963 0.87052 0.3472 0.0
H1339 H 0.70878 0.82537 0.27167 0.0
H1340 H 0.88951 0.81502 0.26237 0.0
H1341 H 0.94105 0.75837 0.24366 0.0
H1342 H 0.91906 0.82243 0.23552 0.0
H1343 H 0.91131 0.75102 0.27052 0.0
Eu1344 Eu 0.82452 0.31134 0.76408 0.0
Eu1345 Eu 0.79907 0.29213 0.80931 0.0
C1346 C 0.77152 0.31505 0.77285 0.0
C1347 C 0.83336 0.34155 0.71165 0.0
C1348 C 0.81453 0.35285 0.71488 0.0
C1349 C 0.83791 0.35511 0.67487 0.0
C1350 C 0.80786 0.36567 0.69855 0.0
C1351 C 0.84472 0.34246 0.69134 0.0
C1352 C 0.81971 0.36729 0.67853 0.0
C1353 C 0.84207 0.33003 0.72992 0.0
O1354 O 0.7984 0.26101 0.78107 0.0
O1355 O 0.79799 0.2787 0.74909 0.0
C1356 C 0.79328 0.26021 0.75878 0.0
O1357 O 0.84767 0.28857 0.776 0.0
O1358 O 0.77395 0.26809 0.82435 0.0
O1359 O 0.79948 0.29495 0.8471 0.0
O1360 O 0.83678 0.29047 0.81335 0.0
C1361 C 0.85108 0.28566 0.79764 0.0
O1362 O 0.8397 0.33461 0.79842 0.0
O1363 O 0.80632 0.3315 0.81628 0.0
O1364 O 0.76993 0.30052 0.78764 0.0
O1365 O 0.84317 0.34133 0.75132 0.0
O1366 O 0.83411 0.3076 0.72812 0.0
O1367 O 0.79127 0.32444 0.76585 0.0
C1368 C 0.78857 0.25856 0.85989 0.0
C1369 C 0.77939 0.23445 0.85253 0.0
C1370 C 0.80673 0.24988 0.89516 0.0
C1371 C 0.7839 0.21828 0.86624 0.0
C1372 C 0.80217 0.26605 0.88146 0.0
C1373 C 0.79771 0.22573 0.88775 0.0
C1374 C 0.78358 0.27599 0.84566 0.0
C1375 C 0.82668 0.34348 0.81352 0.0
H1376 H 0.80534 0.35225 0.73031 0.0
H1377 H 0.84747 0.3561 0.65972 0.0
H1378 H 0.79356 0.37457 0.70172 0.0
H1379 H 0.85927 0.33388 0.68849 0.0
H1380 H 0.7686 0.22799 0.83619 0.0
H1381 H 0.81762 0.25632 0.91143 0.0
H1382 H 0.77627 0.19992 0.86007 0.0
H1383 H 0.80937 0.28449 0.88778 0.0
Eu1384 Eu 0.82915 0.82284 0.79728 0.0
Eu1385 Eu 0.8111 0.76965 0.76694 0.0
C1386 C 0.81342 0.81592 0.74213 0.0
C1387 C 0.83016 0.8857 0.8208 0.0
C1388 C 0.83655 0.901 0.80538 0.0
C1389 C 0.79772 0.90464 0.82992 0.0
C1390 C 0.82321 0.91737 0.80166 0.0
C1391 C 0.81105 0.88823 0.83363 0.0
C1392 C 0.8033 0.91893 0.81343 0.0
C1393 C 0.8414 0.86541 0.82118 0.0
O1394 O 0.84993 0.77626 0.77405 0.0
O1395 O 0.85662 0.81507 0.77406 0.0
C1396 C 0.86245 0.79476 0.76831 0.0
O1397 O 0.83685 0.79839 0.82145 0.0
O1398 O 0.81075 0.74476 0.73456 0.0
O1399 O 0.79531 0.73263 0.76387 0.0
O1400 O 0.80891 0.76643 0.80531 0.0
C1401 C 0.82258 0.779 0.82358 0.0
O1402 O 0.79091 0.81471 0.80007 0.0
O1403 O 0.77741 0.78151 0.77186 0.0
O1404 O 0.81459 0.79357 0.73981 0.0
O1405 O 0.82978 0.84808 0.82939 0.0
O1406 O 0.85064 0.85801 0.80232 0.0
O1407 O 0.81332 0.82877 0.76297 0.0
C1408 C 0.81793 0.70919 0.74331 0.0
C1409 C 0.80834 0.68641 0.74605 0.0
C1410 C 0.85659 0.70109 0.74871 0.0
C1411 C 0.8228 0.67131 0.75088 0.0
C1412 C 0.84215 0.71618 0.74396 0.0
C1413 C 0.84707 0.67883 0.75308 0.0
C1414 C 0.80312 0.72664 0.74383 0.0
C1415 C 0.77399 0.79875 0.78789 0.0
H1416 H 0.85123 0.89958 0.79533 0.0
H1417 H 0.78277 0.9058 0.83961 0.0
H1418 H 0.82791 0.92804 0.78874 0.0
H1419 H 0.80577 0.87689 0.84584 0.0
H1420 H 0.78973 0.68076 0.74576 0.0
H1421 H 0.87519 0.70744 0.75049 0.0
H1422 H 0.81501 0.6541 0.75385 0.0
H1423 H 0.85003 0.73377 0.74212 0.0
Eu1424 Eu 0.57484 0.57665 0.5316 0.0
Eu1425 Eu 0.55106 0.52445 0.51982 0.0
C1426 C 0.5827 0.54635 0.47836 0.0
C1427 C 0.60155 0.64067 0.52761 0.0
C1428 C 0.61153 0.63531 0.50668 0.0
C1429 C 0.60084 0.67953 0.52 0.0
C1430 C 0.61542 0.65182 0.49208 0.0
C1431 C 0.59746 0.66326 0.53471 0.0
C1432 C 0.60873 0.67366 0.49789 0.0
C1433 C 0.58909 0.62204 0.53844 0.0
O1434 O 0.58805 0.52331 0.53366 0.0
O1435 O 0.60709 0.55946 0.53016 0.0
C1436 C 0.60767 0.53762 0.53188 0.0
O1437 O 0.56361 0.57009 0.56878 0.0
O1438 O 0.54063 0.49011 0.49653 0.0
O1439 O 0.53371 0.49407 0.53264 0.0
O1440 O 0.53654 0.5368 0.55609 0.0
C1441 C 0.54528 0.55482 0.57337 0.0
O1442 O 0.53527 0.57652 0.52997 0.0
O1443 O 0.521 0.54048 0.50831 0.0
O1444 O 0.56922 0.52819 0.48499 0.0
O1445 O 0.56989 0.61051 0.52625 0.0
O1446 O 0.60043 0.60848 0.54798 0.0
O1447 O 0.58557 0.56707 0.49287 0.0
C1448 C 0.54632 0.46015 0.51685 0.0
C1449 C 0.56545 0.46436 0.53363 0.0
C1450 C 0.54831 0.41898 0.50863 0.0
C1451 C 0.57562 0.44603 0.53821 0.0
C1452 C 0.538 0.43742 0.50412 0.0
C1453 C 0.56694 0.42312 0.52603 0.0
C1454 C 0.53471 0.4794 0.51358 0.0
C1455 C 0.51738 0.56096 0.51863 0.0
H1456 H 0.61457 0.61783 0.50077 0.0
H1457 H 0.59518 0.69586 0.52528 0.0
H1458 H 0.62224 0.64683 0.4756 0.0
H1459 H 0.58939 0.66757 0.55062 0.0
H1460 H 0.57218 0.48177 0.54368 0.0
H1461 H 0.54124 0.4014 0.49909 0.0
H1462 H 0.59012 0.44972 0.5515 0.0
H1463 H 0.52328 0.43387 0.49111 0.0
Eu1464 Eu 0.07567 0.53238 0.04338 0.0
Eu1465 Eu 0.02606 0.54535 0.06301 0.0
C1466 C 0.05694 0.51662 0.08904 0.0
C1467 C 0.13057 0.50494 0.03722 0.0
C1468 C 0.15355 0.51121 0.03205 0.0
C1469 C 0.14048 0.47124 0.0514 0.0
C1470 C 0.16977 0.49751 0.03616 0.0
C1471 C 0.12425 0.48504 0.04733 0.0
C1472 C 0.16338 0.47703 0.04544 0.0
C1473 C 0.11319 0.51813 0.03002 0.0
O1474 O 0.05341 0.57795 0.06883 0.0
O1475 O 0.08498 0.56175 0.075 0.0
C1476 C 0.07422 0.57935 0.07876 0.0
O1477 O 0.06711 0.55746 0.02083 0.0
O1478 O 1.00767 0.56591 0.08774 0.0
O1479 O 0.98835 0.54023 0.05882 0.0
O1480 O 0.02888 0.55702 0.02862 0.0
C1481 C 0.04668 0.56269 0.01677 0.0
O1482 O 0.04503 0.51268 0.01841 0.0
O1483 O 0.01901 0.50745 0.04529 0.0
O1484 O 0.04476 0.53324 0.09215 0.0
O1485 O 0.09214 0.50624 0.02375 0.0
O1486 O 0.11352 0.53898 0.04209 0.0
O1487 O 0.06339 0.50918 0.0685 0.0
C1488 C 0.9741 0.57525 0.06986 0.0
C1489 C 0.96989 0.57827 0.04676 0.0
C1490 C 0.95167 0.60504 0.0826 0.0
C1491 C 0.95641 0.59424 0.04161 0.0
C1492 C 0.96498 0.58891 0.08771 0.0
C1493 C 0.94702 0.60778 0.05945 0.0
C1494 C 0.98761 0.55778 0.07554 0.0
C1495 C 0.02625 0.50076 0.02492 0.0
H1496 H 0.15886 0.52647 0.02427 0.0
H1497 H 0.13481 0.4556 0.05846 0.0
H1498 H 0.18732 0.5029 0.03184 0.0
H1499 H 0.10661 0.47976 0.05149 0.0
H1500 H 0.97691 0.56821 0.0326 0.0
H1501 H 0.94458 0.615 0.09676 0.0
H1502 H 0.95347 0.59611 0.02364 0.0
H1503 H 0.96797 0.58696 0.10564 0.0
H1504 H 0.03456 0.27087 0.97283 0.0
H1505 H 0.07654 0.25842 0.91533 0.0
H1506 H 0.09577 0.23309 0.93623 0.0
H1507 H 0.07735 0.27175 0.01975 0.0
H1508 H 0.05696 0.25619 0.03619 0.0
H1509 H 0.04733 0.27422 0.01731 0.0
H1510 H 0.01627 0.23879 0.99548 0.0
H1511 H 0.02564 0.22073 1.01444 0.0
H1512 H 0.02503 0.21198 0.98328 0.0
H1513 H 0.11075 0.20999 0.96366 0.0
H1514 H 0.11698 0.18607 0.99309 0.0
H1515 H 0.06341 0.21155 0.03172 0.0
C1516 C 0.04787 0.26286 0.9647 0.0
C1517 C 0.05429 0.26664 0.9426 0.0
C1518 C 0.07143 0.25562 0.93226 0.0
C1519 C 0.08252 0.2414 0.94406 0.0
C1520 C 0.07594 0.23819 0.96596 0.0
C1521 C 0.05873 0.24825 0.976 0.0
C1522 C 0.05385 0.2408 0.99901 0.0
C1523 C 0.0592 0.26201 0.01926 0.0
C1524 C 0.02871 0.22727 0.99798 0.0
C1525 C 0.07102 0.22493 1.00037 0.0
C1526 C 0.08386 0.22402 0.98133 0.0
C1527 C 0.10082 0.21057 0.97864 0.0
C1528 C 0.10437 0.19722 0.99556 0.0
C1529 C 0.09083 0.19719 1.01478 0.0
C1530 C 0.07409 0.2114 0.01728 0.0
H1531 H 0.17747 0.78158 0.146 0.0
H1532 H 0.14528 0.83128 0.18968 0.0
H1533 H 0.17704 0.83701 0.22078 0.0
H1534 H 0.19463 0.75387 0.18915 0.0
H1535 H 0.22205 0.75005 0.1787 0.0
H1536 H 0.19851 0.75194 0.15858 0.0
H1537 H 0.22423 0.78673 0.14484 0.0
H1538 H 0.24806 0.78461 0.16457 0.0
H1539 H 0.2386 0.81203 0.16609 0.0
H1540 H 0.20954 0.83313 0.24921 0.0
H1541 H 0.24341 0.82395 0.27039 0.0
H1542 H 0.2543 0.7778 0.20756 0.0
C1543 C 0.17747 0.79421 0.1618 0.0
C1544 C 0.15892 0.80597 0.16538 0.0
C1545 C 0.15938 0.82212 0.18648 0.0
C1546 C 0.1773 0.82544 0.20433 0.0
C1547 C 0.19479 0.81274 0.20068 0.0
C1548 C 0.1953 0.79786 0.17973 0.0
C1549 C 0.21551 0.78557 0.18055 0.0
C1550 C 0.20716 0.75878 0.17651 0.0
C1551 C 0.23261 0.79267 0.16297 0.0
C1552 C 0.22584 0.79535 0.20538 0.0
C1553 C 0.21369 0.81096 0.2168 0.0
C1554 C 0.21944 0.82123 0.24032 0.0
C1555 C 0.2385 0.81577 0.25227 0.0
C1556 C 0.2515 0.80036 0.24054 0.0
C1557 C 0.24488 0.78994 0.21689 0.0
H1558 H 0.53298 0.87174 0.46131 0.0
H1559 H 0.491 0.89093 0.40717 0.0
H1560 H 0.48031 0.92157 0.43618 0.0
H1561 H 0.49717 0.88539 0.51037 0.0
H1562 H 0.52249 0.89762 0.53071 0.0
H1563 H 0.52342 0.87428 0.50665 0.0
H1564 H 0.55901 0.89993 0.49323 0.0
H1565 H 0.55829 0.92314 0.51731 0.0
H1566 H 0.55704 0.92867 0.48799 0.0
H1567 H 0.47786 0.95308 0.46979 0.0
H1568 H 0.48728 0.98516 0.50419 0.0
H1569 H 0.53153 0.94623 0.53624 0.0
C1570 C 0.52102 0.88195 0.45568 0.0
C1571 C 0.51252 0.87863 0.43202 0.0
C1572 C 0.49754 0.89291 0.42522 0.0
C1573 C 0.49122 0.91031 0.44162 0.0
C1574 C 0.50013 0.91333 0.46477 0.0
C1575 C 0.51486 0.89967 0.47177 0.0
C1576 C 0.52461 0.90855 0.49692 0.0
C1577 C 0.51642 0.89037 0.51205 0.0
C1578 C 0.5513 0.91549 0.49896 0.0
C1579 C 0.51367 0.92976 0.5027 0.0
C1580 C 0.49916 0.93194 0.48412 0.0
C1581 C 0.48879 0.95134 0.48465 0.0
C1582 C 0.49413 0.96943 0.50431 0.0
C1583 C 0.50999 0.96806 0.52291 0.0
C1584 C 0.51909 0.94757 0.52239 0.0
H1585 H 0.54566 0.2826 0.6669 0.0
H1586 H 0.51104 0.237 0.60313 0.0
H1587 H 0.4733 0.23628 0.61983 0.0
H1588 H 0.51304 0.25427 0.70532 0.0
H1589 H 0.51283 0.28077 0.72581 0.0
H1590 H 0.53647 0.2793 0.70793 0.0
H1591 H 0.52921 0.31597 0.69228 0.0
H1592 H 0.5056 0.31767 0.71025 0.0
H1593 H 0.50076 0.31612 0.67926 0.0
H1594 H 0.43951 0.2391 0.64511 0.0
H1595 H 0.41336 0.24475 0.6763 0.0
H1596 H 0.47134 0.28807 0.72281 0.0
C1597 C 0.5302 0.27263 0.65618 0.0
C1598 C 0.53137 0.25989 0.63362 0.0
C1599 C 0.5106 0.24702 0.6204 0.0
C1600 C 0.4891 0.2465 0.62975 0.0
C1601 C 0.48874 0.25899 0.65226 0.0
C1602 C 0.50882 0.27185 0.6652 0.0
C1603 C 0.50427 0.28283 0.68935 0.0
C1604 C 0.51743 0.27374 0.7082 0.0
C1605 C 0.51031 0.30974 0.69298 0.0
C1606 C 0.47845 0.27391 0.68824 0.0
C1607 C 0.46967 0.26035 0.6667 0.0
C1608 C 0.44623 0.24983 0.66195 0.0
C1609 C 0.43151 0.25319 0.67973 0.0
C1610 C 0.44036 0.26678 0.702 0.0
C1611 C 0.4641 0.27738 0.70608 0.0
H1612 H 0.0629 0.83589 0.61598 0.0
H1613 H 1.00896 0.86618 0.64939 0.0
H1614 H 1.01059 0.8935 0.62182 0.0
H1615 H 0.0964 0.89072 0.60743 0.0
H1616 H 0.10533 0.8787 0.57974 0.0
H1617 H 0.09902 0.86044 0.6011 0.0
H1618 H 0.069 0.83073 0.57093 0.0
H1619 H 0.07522 0.84891 0.54947 0.0
H1620 H 0.04586 0.84069 0.55662 0.0
H1621 H 0.01748 0.91706 0.59059 0.0
H1622 H 0.03151 0.93789 0.55951 0.0
H1623 H 0.08305 0.89467 0.54763 0.0
C1624 C 0.0513 0.84814 0.61728 0.0
C1625 C 0.03563 0.8488 0.63466 0.0
C1626 C 0.02107 0.86539 0.63619 0.0
C1627 C 0.02181 0.88091 0.62057 0.0
C1628 C 0.03749 0.8799 0.60371 0.0
C1629 C 0.05219 0.86417 0.6021 0.0
C1630 C 0.06828 0.86774 0.58315 0.0
C1631 C 0.09377 0.87482 0.59348 0.0
C1632 C 0.06435 0.8457 0.5639 0.0
C1633 C 0.06025 0.88786 0.57434 0.0
C1634 C 0.04226 0.89435 0.58629 0.0
C1635 C 0.03159 0.91219 0.58114 0.0
C1636 C 0.0396 0.92383 0.5634 0.0
C1637 C 0.05829 0.91783 0.55115 0.0
C1638 C 0.06878 0.89963 0.55677 0.0
H1639 H 0.54879 0.80028 0.85961 0.0
H1640 H 0.54862 0.86346 0.90966 0.0
H1641 H 0.51271 0.86837 0.88854 0.0
H1642 H 0.52635 0.80863 0.80765 0.0
H1643 H 0.50635 0.78119 0.80014 0.0
H1644 H 0.5317 0.78409 0.81997 0.0
H1645 H 0.50277 0.76859 0.84884 0.0
H1646 H 0.47826 0.76833 0.82874 0.0
H1647 H 0.48087 0.7848 0.85805 0.0
H1648 H 0.48388 0.87121 0.85697 0.0
H1649 H 0.45525 0.8663 0.82329 0.0
H1650 H 0.46962 0.79767 0.79677 0.0
C1651 C 0.5409 0.81495 0.8661 0.0
C1652 C 0.55181 0.83235 0.88525 0.0
C1653 C 0.54068 0.85055 0.89444 0.0
C1654 C 0.52033 0.85336 0.88267 0.0
C1655 C 0.51071 0.83678 0.86286 0.0
C1656 C 0.51973 0.81712 0.85549 0.0
C1657 C 0.50445 0.80092 0.83505 0.0
C1658 C 0.5181 0.79327 0.81454 0.0
C1659 C 0.49077 0.77939 0.84316 0.0
C1660 C 0.48842 0.81681 0.82932 0.0
C1661 C 0.49189 0.83705 0.84611 0.0
C1662 C 0.48046 0.85519 0.84404 0.0
C1663 C 0.46461 0.85241 0.82457 0.0
C1664 C 0.46043 0.83171 0.80723 0.0
C1665 C 0.47244 0.81363 0.80977 0.0
H1666 H 0.51295 0.19307 0.14205 0.0
H1667 H 0.53292 0.23893 0.09335 0.0
H1668 H 0.5402 0.20563 0.06519 0.0
H1669 H 0.5579 0.16166 0.13169 0.0
H1670 H 0.54117 0.13361 0.13447 0.0
H1671 H 0.5341 0.16018 0.1497 0.0
H1672 H 0.4919 0.14731 0.13012 0.0
H1673 H 0.49879 0.12054 0.115 0.0
H1674 H 0.48692 0.13959 0.0988 0.0
H1675 H 0.54569 0.16813 0.04254 0.0
H1676 H 0.55345 0.12884 0.02801 0.0
H1677 H 0.53479 0.10749 0.09278 0.0
C1678 C 0.5183 0.19583 0.1252 0.0
C1679 C 0.52093 0.21819 0.11914 0.0
C1680 C 0.52932 0.22159 0.0976 0.0
C1681 C 0.53376 0.20285 0.08162 0.0
C1682 C 0.53051 0.18091 0.08779 0.0
C1683 C 0.52332 0.17728 0.10916 0.0
C1684 C 0.52349 0.15234 0.11216 0.0
C1685 C 0.54016 0.15194 0.13326 0.0
C1686 C 0.49881 0.13916 0.11414 0.0
C1687 C 0.53238 0.1428 0.08937 0.0
C1688 C 0.53572 0.1595 0.07541 0.0
C1689 C 0.54328 0.1549 0.05331 0.0
C1690 C 0.54764 0.13261 0.04523 0.0
C1691 C 0.54497 0.11542 0.05942 0.0
C1692 C 0.53729 0.12056 0.0818 0.0
H1693 H 0.16671 0.29248 0.37645 0.0
H1694 H 0.19434 0.3656 0.40547 0.0
H1695 H 0.22924 0.36377 0.38459 0.0
H1696 H 0.22608 0.27327 0.37237 0.0
H1697 H 0.21517 0.25358 0.3452 0.0
H1698 H 0.19596 0.2588 0.36752 0.0
H1699 H 0.16852 0.27063 0.33752 0.0
H1700 H 0.18792 0.26645 0.31533 0.0
H1701 H 0.17949 0.29434 0.32299 0.0
H1702 H 0.25471 0.35728 0.35301 0.0
H1703 H 0.27472 0.34399 0.31899 0.0
H1704 H 0.23168 0.27436 0.3105 0.0
C1705 C 0.18097 0.30751 0.37976 0.0
C1706 C 0.17832 0.32898 0.3931 0.0
C1707 C 0.19655 0.34883 0.39596 0.0
C1708 C 0.21626 0.34801 0.38389 0.0
C1709 C 0.21751 0.32711 0.36925 0.0
C1710 C 0.20077 0.30692 0.36773 0.0
C1711 C 0.20489 0.2876 0.34864 0.0
C1712 C 0.21089 0.2671 0.35905 0.0
C1713 C 0.18396 0.27929 0.33004 0.0
C1714 C 0.2257 0.30048 0.33889 0.0
C1715 C 0.23268 0.32323 0.35106 0.0
C1716 C 0.24993 0.33927 0.34385 0.0
C1717 C 0.26097 0.33163 0.32426 0.0
C1718 C 0.25487 0.30806 0.31217 0.0
C1719 C 0.23687 0.29239 0.31955 0.0
H1720 H 1.00322 0.07837 0.21107 0.0
H1721 H 0.93552 0.03647 0.18379 0.0
H1722 H 0.94922 0.02959 0.14461 0.0
H1723 H 1.01359 0.10539 0.15825 0.0
H1724 H 0.04419 0.10534 0.15952 0.0
H1725 H 0.02969 0.10701 0.18587 0.0
H1726 H 0.04409 0.07068 0.19462 0.0
H1727 H 0.0586 0.06888 0.16828 0.0
H1728 H 0.03787 0.04399 0.17306 0.0
H1729 H 0.97127 0.02542 0.10585 0.0
H1730 H 0.99665 0.02657 0.07405 0.0
H1731 H 0.05162 0.07297 0.12201 0.0
C1732 C 0.99105 0.06773 0.19696 0.0
C1733 C 0.96751 0.05804 0.202 0.0
C1734 C 0.95322 0.04441 0.18184 0.0
C1735 C 0.96109 0.04028 0.15895 0.0
C1736 C 0.98392 0.04987 0.15475 0.0
C1737 C 0.99873 0.06362 0.1733 0.0
C1738 C 0.02237 0.07223 0.16347 0.0
C1739 C 0.0278 0.0991 0.167 0.0
C1740 C 0.04191 0.06344 0.17559 0.0
C1741 C 0.01872 0.06118 0.13681 0.0
C1742 C 0.99626 0.04816 0.13244 0.0
C1743 C 0.98872 0.03579 0.10958 0.0
C1744 C 1.00371 0.03654 0.09114 0.0
C1745 C 0.02702 0.04979 0.09398 0.0
C1746 C 0.03424 0.0625 0.11794 0.0
H1747 H 0.30013 0.63114 0.46146 0.0
H1748 H 0.34835 0.68214 0.51305 0.0
H1749 H 0.34952 0.71106 0.48734 0.0
H1750 H 0.32481 0.64901 0.40964 0.0
H1751 H 0.29687 0.64469 0.39345 0.0
H1752 H 0.30099 0.62724 0.41512 0.0
H1753 H 0.26688 0.6405 0.43599 0.0
H1754 H 0.2627 0.658 0.41442 0.0
H1755 H 0.26743 0.67136 0.4449 0.0
H1756 H 0.3442 0.73525 0.45723 0.0
H1757 H 0.33293 0.75309 0.42437 0.0
H1758 H 0.28741 0.68719 0.39213 0.0
C1759 C 0.31121 0.64826 0.46721 0.0
C1760 C 0.32422 0.65425 0.48936 0.0
C1761 C 0.33822 0.67703 0.49625 0.0
C1762 C 0.33903 0.69362 0.48173 0.0
C1763 C 0.32571 0.68732 0.46028 0.0
C1764 C 0.31209 0.6652 0.45295 0.0
C1765 C 0.29868 0.6634 0.42946 0.0
C1766 C 0.30577 0.64499 0.41081 0.0
C1767 C 0.27237 0.658 0.43132 0.0
C1768 C 0.30678 0.68802 0.42489 0.0
C1769 C 0.32244 0.70146 0.44289 0.0
C1770 C 0.33199 0.72489 0.44301 0.0
C1771 C 0.32533 0.73493 0.42431 0.0
C1772 C 0.30919 0.72166 0.40564 0.0
C1773 C 0.29996 0.69778 0.40596 0.0
H1774 H 0.62577 0.05245 0.71864 0.0
H1775 H 0.67136 1.00687 0.69176 0.0
H1776 H 0.64079 0.98601 0.66034 0.0
H1777 H 0.568 1.01012 0.69962 0.0
H1778 H 0.55495 0.03303 0.69124 0.0
H1779 H 0.5773 0.03988 0.71525 0.0
H1780 H 0.60144 0.07095 0.69529 0.0
H1781 H 0.57909 0.0644 0.67156 0.0
H1782 H 0.60841 0.06237 0.66585 0.0
H1783 H 0.60905 0.97478 0.62902 0.0
H1784 H 0.58206 0.97824 0.59668 0.0
H1785 H 0.55744 0.03274 0.64182 0.0
C1786 C 0.62883 0.03745 0.70659 0.0
C1787 C 0.6505 0.03073 0.70771 0.0
C1788 C 0.65463 1.0119 0.6912 0.0
C1789 C 0.6373 0.99987 0.67351 0.0
C1790 C 0.61615 1.00719 0.67249 0.0
C1791 C 0.61197 0.02579 0.68843 0.0
C1792 C 0.58998 0.03335 0.6808 0.0
C1793 C 0.57146 0.02882 0.69774 0.0
C1794 C 0.59505 0.05928 0.6782 0.0
C1795 C 0.58313 0.01698 0.65743 0.0
C1796 C 0.59795 1.00139 0.65349 0.0
C1797 C 0.59701 0.98646 0.6321 0.0
C1798 C 0.58158 0.98849 0.61385 0.0
C1799 C 0.56752 1.00547 0.61704 0.0
C1800 C 0.56741 0.01904 0.63933 0.0
H1801 H 0.32022 0.38578 0.9581 0.0
H1802 H 0.35061 0.33484 0.98779 0.0
H1803 H 0.35042 0.3118 0.94804 0.0
H1804 H 0.28205 0.3432 0.91219 0.0
H1805 H 0.28536 0.36235 0.89129 0.0
H1806 H 0.28773 0.37453 0.92199 0.0
H1807 H 0.32831 0.39906 0.91889 0.0
H1808 H 0.32611 0.38688 0.88821 0.0
H1809 H 0.35047 0.3845 0.90712 0.0
H1810 H 0.34922 0.29556 0.9039 0.0
H1811 H 0.34377 0.28583 0.86079 0.0
H1812 H 0.31176 0.34596 0.85989 0.0
C1813 C 0.32672 0.36968 0.95634 0.0
C1814 C 0.33552 0.36226 0.97637 0.0
C1815 C 0.34368 0.34096 0.97298 0.0
C1816 C 0.34373 0.32778 0.95035 0.0
C1817 C 0.33521 0.33579 0.93105 0.0
C1818 C 0.32649 0.3561 0.9339 0.0
C1819 C 0.31795 0.36076 0.91038 0.0
C1820 C 0.29172 0.36017 0.90888 0.0
C1821 C 0.33152 0.38419 0.90589 0.0
C1822 C 0.32349 0.34012 0.89375 0.0
C1823 C 0.33362 0.32601 0.90599 0.0
C1824 C 0.34107 0.30642 0.89429 0.0
C1825 C 0.33796 0.30105 0.86967 0.0
C1826 C 0.32719 0.31493 0.85666 0.0
C1827 C 0.31984 0.33474 0.86912 0.0
H1828 H 0.98125 0.03773 0.33973 0.0
H1829 H 0.95348 0.09916 0.36507 0.0
H1830 H 0.97309 0.10185 0.4042 0.0
H1831 H 0.97522 1.01313 0.39311 0.0
H1832 H 1.00159 1.00191 0.39239 0.0
H1833 H 0.98672 1.00511 0.36566 0.0
H1834 H 0.024 0.03077 0.35611 0.0
H1835 H 0.039 0.02758 0.38278 0.0
H1836 H 0.03824 0.05639 0.37702 0.0
H1837 H 0.99591 0.09794 0.44315 0.0
H1838 H 0.01781 0.0879 0.47575 0.0
H1839 H 0.03217 0.0279 0.42909 0.0
C1840 C 0.97973 0.05221 0.35326 0.0
C1841 C 0.96576 0.06885 0.34788 0.0
C1842 C 0.96404 0.08646 0.3674 0.0
C1843 C 0.97525 0.08806 0.39021 0.0
C1844 C 0.98857 0.07167 0.39482 0.0
C1845 C 0.99087 0.05395 0.3768 0.0
C1846 C 1.00566 0.03814 0.38714 0.0
C1847 C 0.99146 1.01307 0.3844 0.0
C1848 C 0.02806 0.03821 0.37503 0.0
C1849 C 1.01136 0.04967 0.4135 0.0
C1850 C 1.0012 0.06909 0.41731 0.0
C1851 C 1.00375 0.08269 0.43993 0.0
C1852 C 0.01653 0.07668 0.4588 0.0
C1853 C 0.02746 0.05688 0.45634 0.0
C1854 C 0.02452 0.04324 0.43264 0.0
H1855 H 0.34488 0.70173 0.61445 0.0
H1856 H 0.31357 0.63659 0.63468 0.0
H1857 H 0.30377 0.65892 0.67111 0.0
H1858 H 0.36914 0.73273 0.67427 0.0
H1859 H 0.36363 0.76057 0.66949 0.0
H1860 H 0.36936 0.73955 0.64542 0.0
H1861 H 0.33075 0.7413 0.62301 0.0
H1862 H 0.32475 0.76207 0.64714 0.0
H1863 H 0.30403 0.73518 0.63631 0.0
H1864 H 0.2943 0.68801 0.70386 0.0
H1865 H 0.28976 0.72145 0.73321 0.0
H1866 H 0.32851 0.76925 0.69418 0.0
C1867 C 0.33641 0.69213 0.62677 0.0
C1868 C 0.33017 0.66716 0.62151 0.0
C1869 C 0.31877 0.65552 0.63813 0.0
C1870 C 0.31298 0.66813 0.65892 0.0
C1871 C 0.31878 0.69258 0.66325 0.0
C1872 C 0.33063 0.70454 0.6479 0.0
C1873 C 0.33467 0.73099 0.65699 0.0
C1874 C 0.36075 0.74159 0.66183 0.0
C1875 C 0.32285 0.7431 0.63984 0.0
C1876 C 0.32293 0.732 0.67964 0.0
C1877 C 0.3138 0.70954 0.68268 0.0
C1878 C 0.30159 0.70563 0.70173 0.0
C1879 C 0.29899 0.72497 0.71836 0.0
C1880 C 0.30867 0.74835 0.71633 0.0
C1881 C 0.32076 0.75178 0.69643 0.0
H1882 H 0.69211 0.06169 0.82409 0.0
H1883 H 0.7174 0.13647 0.83189 0.0
H1884 H 0.69741 0.14304 0.86794 0.0
H1885 H 0.63781 0.06352 0.8381 0.0
H1886 H 0.63439 0.03961 0.85377 0.0
H1887 H 0.6541 0.04065 0.83156 0.0
H1888 H 0.68785 0.03861 0.86112 0.0
H1889 H 0.66813 0.03718 0.88345 0.0
H1890 H 0.6942 0.05956 0.88816 0.0
H1891 H 0.6688 0.14125 0.89864 0.0
H1892 H 0.63704 0.13126 0.9233 0.0
H1893 H 0.63178 0.05745 0.89522 0.0
C1894 C 0.69407 0.07937 0.83392 0.0
C1895 C 0.70631 0.0986 0.82562 0.0
C1896 C 0.70833 0.12157 0.8384 0.0
C1897 C 0.69699 0.1254 0.85877 0.0
C1898 C 0.68421 0.10599 0.86609 0.0
C1899 C 0.68316 0.08337 0.85425 0.0
C1900 C 0.6668 0.06559 0.86426 0.0
C1901 C 0.64712 0.05154 0.84583 0.0
C1902 C 0.68004 0.04928 0.87488 0.0
C1903 C 0.65788 0.08174 0.8829 0.0
C1904 C 0.6682 0.10496 0.88391 0.0
C1905 C 0.66103 0.1231 0.89838 0.0
C1906 C 0.64288 0.1173 0.91213 0.0
C1907 C 0.6322 0.09359 0.91125 0.0
C1908 C 0.64004 0.07568 0.89664 0.0
H1909 H 0.34605 0.381 0.13709 0.0
H1910 H 0.30486 0.32265 0.08716 0.0
H1911 H 0.29293 0.3025 0.11923 0.0
H1912 H 0.36624 0.34456 0.17539 0.0
H1913 H 0.36549 0.36491 0.202 0.0
H1914 H 0.37041 0.37552 0.17529 0.0
H1915 H 0.3356 0.39622 0.18028 0.0
H1916 H 0.33053 0.38555 0.20694 0.0
H1917 H 0.30756 0.37939 0.18362 0.0
H1918 H 0.28436 0.2884 0.15672 0.0
H1919 H 0.28226 0.28007 0.19641 0.0
H1920 H 0.33046 0.34571 0.22375 0.0
C1921 C 0.33446 0.36402 0.13293 0.0
C1922 C 0.32637 0.35361 0.10924 0.0
C1923 C 0.31143 0.33118 0.10486 0.0
C1924 C 0.30444 0.31953 0.12309 0.0
C1925 C 0.31265 0.33014 0.14606 0.0
C1926 C 0.32756 0.35177 0.15112 0.0
C1927 C 0.33443 0.3586 0.17748 0.0
C1928 C 0.36071 0.36104 0.18285 0.0
C1929 C 0.32656 0.38129 0.18768 0.0
C1930 C 0.32091 0.33759 0.18633 0.0
C1931 C 0.30833 0.32152 0.1678 0.0
C1932 C 0.29424 0.30087 0.17131 0.0
C1933 C 0.29309 0.29631 0.19412 0.0
C1934 C 0.30608 0.31209 0.21364 0.0
C1935 C 0.3202 0.33314 0.20945 0.0
H1936 H 0.23958 0.02187 1.00659 0.0
H1937 H 0.22248 0.94843 1.01156 0.0
H1938 H 0.18249 0.95242 0.01891 0.0
H1939 H 0.2054 0.04217 0.0531 0.0
H1940 H 0.19619 0.06414 0.03903 0.0
H1941 H 0.22338 0.05559 0.03329 0.0
H1942 H 0.21032 0.04558 0.98914 0.0
H1943 H 0.18306 0.05403 0.99471 0.0
H1944 H 0.18343 0.0252 0.97866 0.0
H1945 H 0.14265 0.96402 0.02455 0.0
H1946 H 0.10856 0.98242 0.03005 0.0
H1947 H 0.15057 0.04941 0.02455 0.0
C1948 C 0.22743 1.00653 1.00907 0.0
C1949 C 0.23476 0.98462 1.00818 0.0
C1950 C 0.21789 0.96537 1.01197 0.0
C1951 C 0.19487 0.96749 0.01619 0.0
C1952 C 0.18832 0.98916 0.01704 0.0
C1953 C 0.20421 1.00845 1.01377 0.0
C1954 C 0.1927 0.02991 0.01623 0.0
C1955 C 0.20517 0.0491 0.03663 0.0
C1956 C 0.19237 0.03924 0.99333 0.0
C1957 C 0.16796 0.01974 0.02135 0.0
C1958 C 0.1658 0.99608 0.02146 0.0
C1959 C 0.14444 0.9826 0.02477 0.0
C1960 C 0.12497 0.99331 0.02796 0.0
C1961 C 0.12645 0.01765 0.02837 0.0
C1962 C 0.14859 0.03094 0.02503 0.0
H1963 H 0.69985 0.68128 0.99404 0.0
H1964 H 0.74906 0.65098 0.03075 0.0
H1965 H 0.71774 0.61885 0.03554 0.0
H1966 H 0.65359 0.6671 0.03192 0.0
H1967 H 0.63019 0.66059 1.00901 0.0
H1968 H 0.65625 0.68145 1.00714 0.0
H1969 H 0.66232 0.65742 0.96688 0.0
H1970 H 0.63531 0.63793 0.96873 0.0
H1971 H 0.66112 0.62636 0.96426 0.0
H1972 H 0.68264 0.58822 0.03378 0.0
H1973 H 0.64371 0.56384 0.032 0.0
H1974 H 0.61432 0.61427 1.00017 0.0
C1975 C 0.70391 0.6678 1.003 0.0
C1976 C 0.72722 0.66811 1.0111 0.0
C1977 C 0.73163 0.65063 0.02351 0.0
C1978 C 0.71388 0.63231 0.02646 0.0
C1979 C 0.6914 0.63179 0.01742 0.0
C1980 C 0.68607 0.64927 1.00645 0.0
C1981 C 0.65989 0.64477 0.99986 0.0
C1982 C 0.64937 0.66467 1.01276 0.0
C1983 C 0.65436 0.64145 0.97335 0.0
C1984 C 0.65168 0.6219 1.00844 0.0
C1985 C 0.67037 0.61472 0.01818 0.0
C1986 C 0.66779 0.59379 0.02648 0.0
C1987 C 0.64551 0.57993 0.02523 0.0
C1988 C 0.62574 0.58698 0.01602 0.0
C1989 C 0.62898 0.60837 1.00746 0.0
H1990 H 0.75889 0.47938 0.29652 0.0
H1991 H 0.68925 0.44758 0.2655 0.0
H1992 H 0.69989 0.40851 0.26095 0.0
H1993 H 0.78798 0.43883 0.25725 0.0
H1994 H 0.81034 0.43798 0.27929 0.0
H1995 H 0.79721 0.46335 0.28108 0.0
H1996 H 0.78625 0.45919 0.32235 0.0
H1997 H 0.79968 0.43405 0.32054 0.0
H1998 H 0.7699 0.43164 0.32694 0.0
H1999 H 0.7193 0.36842 0.26196 0.0
H2000 H 0.74323 0.33851 0.26385 0.0
H2001 H 0.80303 0.39381 0.28965 0.0
C2002 C 0.74557 0.46435 0.28866 0.0
C2003 C 0.72239 0.46841 0.28164 0.0
C2004 C 0.70681 0.44682 0.27132 0.0
C2005 C 0.71295 0.42382 0.26868 0.0
C2006 C 0.73552 0.42071 0.27578 0.0
C2007 C 0.75177 0.44082 0.28524 0.0
C2008 C 0.77526 0.43279 0.29045 0.0
C2009 C 0.79382 0.44392 0.27618 0.0
C2010 C 0.78325 0.43985 0.31663 0.0
C2011 C 0.77 0.40529 0.28281 0.0
C2012 C 0.74667 0.3987 0.27475 0.0
C2013 C 0.73753 0.37424 0.26797 0.0
C2014 C 0.7517 0.35675 0.26912 0.0
C2015 C 0.77614 0.36206 0.27641 0.0
C2016 C 0.78492 0.38761 0.28338 0.0
H2017 H 0.87849 0.47299 0.48841 0.0
H2018 H 0.85768 0.52866 0.53559 0.0
H2019 H 0.89864 0.54988 0.54331 0.0
H2020 H 0.93121 0.47289 0.52072 0.0
H2021 H 0.94754 0.46771 0.49592 0.0
H2022 H 0.91653 0.45766 0.49281 0.0
H2023 H 0.9125 0.48084 0.45957 0.0
H2024 H 0.9436 0.49044 0.46236 0.0
H2025 H 0.92522 0.51168 0.46454 0.0
H2026 H 0.94313 0.5632 0.54912 0.0
H2027 H 0.98589 0.56908 0.54985 0.0
H2028 H 0.97888 0.50636 0.49706 0.0
C2029 C 0.88251 0.48993 0.49995 0.0
C2030 C 0.86445 0.49945 0.51079 0.0
C2031 C 0.87079 0.52131 0.52638 0.0
C2032 C 0.89418 0.5334 0.53105 0.0
C2033 C 0.91149 0.52358 0.52007 0.0
C2034 C 0.90587 0.50246 0.50453 0.0
C2035 C 0.92787 0.49556 0.49533 0.0
C2036 C 0.93096 0.47206 0.50157 0.0
C2037 C 0.92725 0.49456 0.46888 0.0
C2038 C 0.94682 0.51576 0.50846 0.0
C2039 C 0.93693 0.53167 0.52275 0.0
C2040 C 0.95087 0.55101 0.53765 0.0
C2041 C 0.97528 0.55424 0.53798 0.0
C2042 C 0.98602 0.53856 0.52325 0.0
C2043 C 0.97138 0.51905 0.50818 0.0
H2044 H 0.36221 0.09014 0.35063 0.0
H2045 H 0.42232 0.09503 0.31092 0.0
H2046 H 0.4075 0.12318 0.29054 0.0
H2047 H 0.32232 0.08824 0.30544 0.0
H2048 H 0.30436 0.10544 0.32168 0.0
H2049 H 0.32143 0.0891 0.33632 0.0
H2050 H 0.34138 0.12692 0.36537 0.0
H2051 H 0.32398 0.14338 0.35115 0.0
H2052 H 0.35514 0.1522 0.35437 0.0
H2053 H 0.38348 0.14615 0.27059 0.0
H2054 H 0.35383 0.16546 0.25523 0.0
H2055 H 0.30911 0.14464 0.30738 0.0
C2056 C 0.37272 0.09766 0.33821 0.0
C2057 C 0.39349 0.09032 0.33245 0.0
C2058 C 0.40646 0.10045 0.31582 0.0
C2059 C 0.39813 0.11641 0.30406 0.0
C2060 C 0.37697 0.12223 0.3093 0.0
C2061 C 0.36465 0.11351 0.3263 0.0
C2062 C 0.34151 0.12103 0.32738 0.0
C2063 C 0.32122 0.09968 0.3224 0.0
C2064 C 0.34045 0.13682 0.35097 0.0
C2065 C 0.3424 0.13471 0.3078 0.0
C2066 C 0.36305 0.13535 0.2977 0.0
C2067 C 0.36738 0.14602 0.27855 0.0
C2068 C 0.3503 0.15666 0.26976 0.0
C2069 C 0.32912 0.15646 0.28005 0.0
C2070 C 0.32521 0.14528 0.2993 0.0
H2071 H 0.33442 0.13629 0.50751 0.0
H2072 H 0.36083 0.20893 0.54062 0.0
H2073 H 0.39616 0.19776 0.55658 0.0
H2074 H 0.35337 0.11127 0.554 0.0
H2075 H 0.3602 0.08635 0.53528 0.0
H2076 H 0.33794 0.10047 0.52547 0.0
H2077 H 0.35914 0.10673 0.48885 0.0
H2078 H 0.38145 0.09256 0.4985 0.0
H2079 H 0.3891 0.12169 0.49232 0.0
H2080 H 0.42863 0.17781 0.56945 0.0
H2081 H 0.45413 0.15128 0.57893 0.0
H2082 H 0.40526 0.09189 0.53798 0.0
C2083 C 0.34766 0.15005 0.51788 0.0
C2084 C 0.34479 0.17363 0.52259 0.0
C2085 C 0.36258 0.19081 0.53659 0.0
C2086 C 0.38273 0.1846 0.54575 0.0
C2087 C 0.3848 0.16112 0.54086 0.0
C2088 C 0.36765 0.14416 0.52726 0.0
C2089 C 0.3734 0.12001 0.5252 0.0
C2090 C 0.35514 0.10356 0.53561 0.0
C2091 C 0.37593 0.10965 0.4997 0.0
C2092 C 0.39651 0.12589 0.53986 0.0
C2093 C 0.40294 0.1497 0.54861 0.0
C2094 C 0.42371 0.15917 0.56261 0.0
C2095 C 0.43815 0.14396 0.56782 0.0
C2096 C 0.43174 0.11945 0.55925 0.0
C2097 C 0.4106 0.11046 0.54503 0.0
H2098 H 0.75141 0.59976 0.27254 0.0
H2099 H 0.69232 0.61351 0.30913 0.0
H2100 H 0.7068 0.65597 0.31251 0.0
H2101 H 0.79546 0.6532 0.30416 0.0
H2102 H 0.80878 0.65823 0.27817 0.0
H2103 H 0.7949 0.62894 0.28042 0.0
H2104 H 0.76985 0.62631 0.24195 0.0
H2105 H 0.78335 0.65596 0.24048 0.0
H2106 H 0.75227 0.64784 0.23986 0.0
H2107 H 0.72687 0.69941 0.3105 0.0
H2108 H 0.75017 0.73687 0.30484 0.0
H2109 H 0.79856 0.69936 0.26976 0.0
C2110 C 0.74173 0.61161 0.2819 0.0
C2111 C 0.72041 0.60187 0.29131 0.0
C2112 C 0.70859 0.61921 0.30219 0.0
C2113 C 0.71682 0.64391 0.30411 0.0
C2114 C 0.73736 0.65272 0.29473 0.0
C2115 C 0.74983 0.63703 0.28383 0.0
C2116 C 0.77086 0.65169 0.27427 0.0
C2117 C 0.79386 0.64773 0.2849 0.0
C2118 C 0.76898 0.64505 0.24755 0.0
C2119 C 0.76867 0.67779 0.28201 0.0
C2120 C 0.74887 0.6777 0.29354 0.0
C2121 C 0.74244 0.69924 0.30163 0.0
C2122 C 0.75609 0.72095 0.29823 0.0
C2123 C 0.77702 0.72258 0.28695 0.0
C2124 C 0.78312 0.69991 0.27876 0.0
H2125 H 0.91941 0.46077 0.85703 0.0
H2126 H 0.8695 0.49352 0.82505 0.0
H2127 H 0.83907 0.45849 0.82342 0.0
H2128 H 0.90234 0.40944 0.81705 0.0
H2129 H 0.90752 0.38995 0.8364 0.0
H2130 H 0.92358 0.41966 0.84199 0.0
H2131 H 0.90976 0.42608 0.88341 0.0
H2132 H 0.89348 0.39632 0.87787 0.0
H2133 H 0.87915 0.42032 0.88684 0.0
H2134 H 0.81484 0.41941 0.82217 0.0
H2135 H 0.80089 0.37646 0.81213 0.0
H2136 H 0.86815 0.36629 0.83727 0.0
C2137 C 0.90178 0.46078 0.85067 0.0
C2138 C 0.8961 0.48067 0.84334 0.0
C2139 C 0.87352 0.47938 0.83298 0.0
C2140 C 0.8562 0.4594 0.8317 0.0
C2141 C 0.86208 0.44027 0.83969 0.0
C2142 C 0.88452 0.44045 0.84825 0.0
C2143 C 0.88748 0.41601 0.8505 0.0
C2144 C 0.90633 0.40832 0.83559 0.0
C2145 C 0.89278 0.4146 0.87619 0.0
C2146 C 0.86351 0.40204 0.84094 0.0
C2147 C 0.84885 0.41657 0.83593 0.0
C2148 C 0.82606 0.40782 0.82618 0.0
C2149 C 0.81826 0.38348 0.8206 0.0
C2150 C 0.8335 0.36837 0.82408 0.0
C2151 C 0.85621 0.37769 0.83475 0.0
H2152 H 0.06165 0.80193 0.04936 0.0
H2153 H 0.12419 0.83973 0.09286 0.0
H2154 H 0.12597 0.87209 0.07107 0.0
H2155 H 0.07712 0.82239 0.99453 0.0
H2156 H 0.04764 0.82449 0.98679 0.0
H2157 H 0.05337 0.80277 1.00326 0.0
H2158 H 0.02901 0.81882 0.03543 0.0
H2159 H 0.0232 0.84048 0.01909 0.0
H2160 H 0.03621 0.84946 0.04876 0.0
H2161 H 0.11824 0.90216 0.048 0.0
H2162 H 0.10054 0.92834 0.0274 0.0
H2163 H 0.04332 0.87071 0.99837 0.0
C2164 C 0.07606 0.81674 0.05401 0.0
C2165 C 0.09284 0.8182 0.0728 0.0
C2166 C 0.11114 0.83815 0.07853 0.0
C2167 C 0.11238 0.85656 0.06614 0.0
C2168 C 0.0953 0.85471 0.04799 0.0
C2169 C 0.0775 0.83527 0.04193 0.0
C2170 C 0.05996 0.83857 0.02347 0.0
C2171 C 0.05951 0.82101 1.00066 0.0
C2172 C 0.03568 0.83673 0.03222 0.0
C2173 C 0.07014 0.86331 0.02078 0.0
C2174 C 0.09077 0.87214 0.0347 0.0
C2175 C 0.10236 0.89529 0.03665 0.0
C2176 C 0.0922 0.91001 0.0247 0.0
C2177 C 0.07055 0.90158 1.01108 0.0
C2178 C 0.05988 0.87768 1.00856 0.0
H2179 H 0.9513 0.29341 0.89406 0.0
H2180 H 0.99506 0.27521 0.8399 0.0
H2181 H 0.96077 0.26462 0.8105 0.0
H2182 H 0.9004 0.24357 0.86534 0.0
H2183 H 0.87965 0.26055 0.87627 0.0
H2184 H 0.90702 0.26337 0.8931 0.0
H2185 H 0.91625 0.30868 0.89423 0.0
H2186 H 0.88818 0.30501 0.87883 0.0
H2187 H 0.91341 0.31893 0.86714 0.0
H2188 H 0.92391 0.26692 0.78683 0.0
H2189 H 0.88593 0.27316 0.77163 0.0
H2190 H 0.86567 0.28425 0.8422 0.0
C2191 C 0.9535 0.28694 0.87601 0.0
C2192 C 0.97575 0.28662 0.86867 0.0
C2193 C 0.97814 0.27694 0.84533 0.0
C2194 C 0.95877 0.27052 0.8287 0.0
C2195 C 0.93717 0.27293 0.83612 0.0
C2196 C 0.93431 0.27987 0.85943 0.0
C2197 C 0.90931 0.28079 0.86299 0.0
C2198 C 0.89846 0.26088 0.87514 0.0
C2199 C 0.90671 0.30478 0.87659 0.0
C2200 C 0.89928 0.27649 0.83789 0.0
C2201 C 0.91539 0.27146 0.82256 0.0
C2202 C 0.91083 0.2699 0.79859 0.0
C2203 C 0.8893 0.27367 0.79013 0.0
C2204 C 0.87273 0.27903 0.80568 0.0
C2205 C 0.87773 0.27981 0.82974 0.0
H2206 H 0.58718 0.19599 0.64974 0.0
H2207 H 0.63621 0.21931 0.60238 0.0
H2208 H 0.64147 0.17879 0.58976 0.0
H2209 H 0.62123 0.14668 0.66117 0.0
H2210 H 0.59475 0.12768 0.66536 0.0
H2211 H 0.59859 0.15896 0.67495 0.0
H2212 H 0.56053 0.16026 0.64886 0.0
H2213 H 0.55698 0.12896 0.64376 0.0
H2214 H 0.55658 0.14348 0.6195 0.0
H2215 H 0.63272 0.13653 0.57448 0.0
H2216 H 0.61339 0.0954 0.56026 0.0
H2217 H 0.57272 0.09832 0.61974 0.0
C2218 C 0.59935 0.19241 0.63711 0.0
C2219 C 0.61047 0.21022 0.62607 0.0
C2220 C 0.62685 0.20549 0.6102 0.0
C2221 C 0.63024 0.18265 0.60325 0.0
C2222 C 0.61779 0.16499 0.61312 0.0
C2223 C 0.60324 0.16964 0.63031 0.0
C2224 C 0.59125 0.14713 0.63719 0.0
C2225 C 0.60211 0.14499 0.66108 0.0
C2226 C 0.56482 0.14497 0.63731 0.0
C2227 C 0.59765 0.12936 0.61799 0.0
C2228 C 0.61407 0.13995 0.6052 0.0
C2229 C 0.62048 0.12781 0.58479 0.0
C2230 C 0.60921 0.10449 0.57669 0.0
C2231 C 0.59149 0.0937 0.58884 0.0
C2232 C 0.58638 0.10604 0.61021 0.0
H2233 H 0.59483 0.87438 0.35861 0.0
H2234 H 0.6111 0.84699 0.42037 0.0
H2235 H 0.65274 0.85713 0.41528 0.0
H2236 H 0.62979 0.84903 0.32597 0.0
H2237 H 0.63889 0.87205 0.30997 0.0
H2238 H 0.61161 0.86969 0.32222 0.0
H2239 H 0.62389 0.9125 0.34491 0.0
H2240 H 0.65134 0.91508 0.33255 0.0
H2241 H 0.6506 0.92129 0.36374 0.0
H2242 H 0.69049 0.86108 0.39867 0.0
H2243 H 0.72025 0.85682 0.37147 0.0
H2244 H 0.68028 0.88233 0.32046 0.0
C2245 C 0.60718 0.87146 0.37168 0.0
C2246 C 0.5997 0.85999 0.38994 0.0
C2247 C 0.61642 0.85585 0.40627 0.0
C2248 C 0.64015 0.86172 0.40361 0.0
C2249 C 0.64689 0.8719 0.38467 0.0
C2250 C 0.63086 0.87695 0.36908 0.0
C2251 C 0.64191 0.88389 0.34798 0.0
C2252 C 0.62985 0.86769 0.32522 0.0
C2253 C 0.64194 0.90973 0.34727 0.0
C2254 C 0.66624 0.88022 0.35325 0.0
C2255 C 0.669 0.87406 0.37484 0.0
C2256 C 0.68883 0.86661 0.38208 0.0
C2257 C 0.70575 0.86434 0.36648 0.0
C2258 C 0.70262 0.86928 0.3438 0.0
C2259 C 0.68317 0.87849 0.3377 0.0
H2260 H 0.10074 0.285 0.47255 0.0
H2261 H 0.085 0.24698 0.40111 0.0
H2262 H 0.07122 0.21048 0.41537 0.0
H2263 H 0.1212 0.23867 0.49588 0.0
H2264 H 0.10881 0.2447 0.52316 0.0
H2265 H 0.11762 0.26796 0.5074 0.0
H2266 H 0.07631 0.27698 0.5075 0.0
H2267 H 0.06731 0.25359 0.52305 0.0
H2268 H 0.05167 0.25394 0.49573 0.0
H2269 H 0.05849 0.17834 0.43687 0.0
H2270 H 0.04972 0.15165 0.46454 0.0
H2271 H 0.0739 0.20969 0.52251 0.0
C2272 C 0.09453 0.26896 0.45992 0.0
C2273 C 0.09397 0.26888 0.43567 0.0
C2274 C 0.08566 0.24752 0.41974 0.0
C2275 C 0.07771 0.22668 0.42767 0.0
C2276 C 0.07819 0.2274 0.45161 0.0
C2277 C 0.08654 0.24789 0.46756 0.0
C2278 C 0.08532 0.24363 0.49237 0.0
C2279 C 0.10969 0.24906 0.50547 0.0
C2280 C 0.06919 0.25788 0.50542 0.0
C2281 C 0.07497 0.21755 0.48781 0.0
C2282 C 0.07094 0.20865 0.46414 0.0
C2283 C 0.06167 0.18507 0.45544 0.0
C2284 C 0.0568 0.17004 0.47131 0.0
C2285 C 0.06127 0.17854 0.49568 0.0
C2286 C 0.07013 0.20273 0.50401 0.0
H2287 H 0.59944 0.2681 0.16128 0.0
H2288 H 0.58509 0.3316 0.2015 0.0
H2289 H 0.62189 0.33731 0.22623 0.0
H2290 H 0.61455 0.24669 0.20678 0.0
H2291 H 0.63724 0.23281 0.19525 0.0
H2292 H 0.61463 0.23743 0.17574 0.0
H2293 H 0.64486 0.26068 0.15369 0.0
H2294 H 0.66778 0.25558 0.17274 0.0
H2295 H 0.66625 0.28506 0.1697 0.0
H2296 H 0.65486 0.3317 0.25119 0.0
H2297 H 0.68281 0.31609 0.27391 0.0
H2298 H 0.67341 0.25407 0.2195 0.0
C2299 C 0.60488 0.28391 0.17439 0.0
C2300 C 0.59002 0.29978 0.17928 0.0
C2301 C 0.59671 0.31962 0.19735 0.0
C2302 C 0.61753 0.32296 0.21143 0.0
C2303 C 0.63118 0.30612 0.20725 0.0
C2304 C 0.62529 0.28708 0.18899 0.0
C2305 C 0.64041 0.26933 0.19085 0.0
C2306 C 0.62583 0.24516 0.19225 0.0
C2307 C 0.65574 0.26757 0.17054 0.0
C2308 C 0.65471 0.28069 0.21365 0.0
C2309 C 0.64958 0.30217 0.22251 0.0
C2310 C 0.65932 0.31509 0.24424 0.0
C2311 C 0.67485 0.30589 0.2572 0.0
C2312 C 0.68014 0.28378 0.24853 0.0
C2313 C 0.66998 0.27117 0.22641 0.0
H2314 H 0.61832 0.92172 0.91225 0.0
H2315 H 0.63126 0.88177 0.96556 0.0
H2316 H 0.62393 0.91342 0.99568 0.0
H2317 H 0.64097 0.98198 0.9491 0.0
H2318 H 0.61832 0.99349 0.93588 0.0
H2319 H 0.62966 0.97022 0.9192 0.0
H2320 H 0.58801 0.94524 0.90999 0.0
H2321 H 0.57654 0.96802 0.92711 0.0
H2322 H 0.57116 0.93892 0.93365 0.0
H2323 H 0.60786 0.94526 0.01894 0.0
H2324 H 0.58893 0.97782 0.03438 0.0
H2325 H 0.58587 0.99687 0.96603 0.0
C2326 C 0.62041 0.91991 0.93031 0.0
C2327 C 0.62511 0.89904 0.93641 0.0
C2328 C 0.62761 0.89749 0.96032 0.0
C2329 C 0.62342 0.9154 0.97763 0.0
C2330 C 0.61704 0.93489 0.97081 0.0
C2331 C 0.61606 0.93754 0.94778 0.0
C2332 C 0.60653 0.95903 0.9448 0.0
C2333 C 0.62498 0.97726 0.93677 0.0
C2334 C 0.58424 0.95239 0.9279 0.0
C2335 C 0.60145 0.96745 0.96956 0.0
C2336 C 0.60781 0.95341 0.98433 0.0
C2337 C 0.60327 0.9567 1.00766 0.0
C2338 C 0.59228 0.97509 0.01621 0.0
C2339 C 0.58596 0.98994 1.00145 0.0
C2340 C 0.59069 0.98599 0.97784 0.0
H2341 H 0.96845 0.76298 0.70153 0.0
H2342 H 0.95315 0.8094 0.6559 0.0
H2343 H 0.91494 0.809 0.67111 0.0
H2344 H 0.90474 0.73071 0.70392 0.0
H2345 H 0.91109 0.73029 0.73434 0.0
H2346 H 0.93321 0.72792 0.71458 0.0
H2347 H 0.96021 0.76321 0.74169 0.0
H2348 H 0.93797 0.76642 0.76096 0.0
H2349 H 0.95093 0.79078 0.74819 0.0
H2350 H 0.88507 0.81275 0.69795 0.0
H2351 H 0.86204 0.81643 0.73143 0.0
H2352 H 0.89516 0.76692 0.76064 0.0
C2353 C 0.95628 0.77168 0.69369 0.0
C2354 C 0.96317 0.78553 0.67699 0.0
C2355 C 0.94766 0.798 0.66802 0.0
C2356 C 0.92605 0.798 0.67674 0.0
C2357 C 0.92034 0.78543 0.6944 0.0
C2358 C 0.93473 0.77199 0.70245 0.0
C2359 C 0.92628 0.76325 0.72401 0.0
C2360 C 0.91835 0.73645 0.7189 0.0
C2361 C 0.94496 0.77142 0.74493 0.0
C2362 C 0.90585 0.77517 0.72774 0.0
C2363 C 0.90262 0.78761 0.71024 0.0
C2364 C 0.88691 0.80248 0.71129 0.0
C2365 C 0.87408 0.80464 0.73057 0.0
C2366 C 0.87677 0.79186 0.74857 0.0
C2367 C 0.89257 0.7766 0.74694 0.0
H2368 H 0.18283 0.05318 0.87895 0.0
H2369 H 0.12799 0.01633 0.82554 0.0
H2370 H 0.10035 1.01438 0.85575 0.0
H2371 H 0.1629 0.02306 0.92687 0.0
H2372 H 0.17014 0.04905 0.94927 0.0
H2373 H 0.18589 0.04685 0.92378 0.0
H2374 H 0.17577 0.08552 0.916 0.0
H2375 H 0.15992 0.08755 0.94145 0.0
H2376 H 0.14582 0.08822 0.91346 0.0
H2377 H 0.07688 1.01497 0.89474 0.0
H2378 H 0.06182 0.0205 0.93339 0.0
H2379 H 0.12948 0.05988 0.964 0.0
C2380 C 0.16501 0.04456 0.87334 0.0
C2381 C 0.15857 0.03466 0.84851 0.0
C2382 C 0.13448 0.02409 0.84343 0.0
C2383 C 0.11828 0.02287 0.86097 0.0
C2384 C 0.12522 0.03261 0.88481 0.0
C2385 C 0.14818 0.0436 0.89094 0.0
C2386 C 0.15091 0.05348 0.91782 0.0
C2387 C 0.16853 0.04245 0.93016 0.0
C2388 C 0.15858 0.08029 0.92246 0.0
C2389 C 0.12625 0.04625 0.92604 0.0
C2390 C 0.11176 0.03397 0.90654 0.0
C2391 C 0.08846 0.02483 0.90967 0.0
C2392 C 0.07981 0.02813 0.93231 0.0
C2393 C 0.09352 0.04101 0.95319 0.0
C2394 C 0.11755 0.05018 0.94926 0.0
H2395 H 0.80084 0.40596 0.55513 0.0
H2396 H 0.79829 0.475 0.59345 0.0
H2397 H 0.8011 0.46054 0.63054 0.0
H2398 H 0.76865 0.37151 0.59332 0.0
H2399 H 0.78687 0.35009 0.59052 0.0
H2400 H 0.78257 0.36531 0.56699 0.0
H2401 H 0.82704 0.37908 0.5678 0.0
H2402 H 0.83148 0.36399 0.59136 0.0
H2403 H 0.84352 0.39486 0.59467 0.0
H2404 H 0.80519 0.4387 0.66356 0.0
H2405 H 0.81254 0.41205 0.69002 0.0
H2406 H 0.8145 0.35768 0.63035 0.0
C2407 C 0.80045 0.41793 0.57131 0.0
C2408 C 0.79903 0.44156 0.57139 0.0
C2409 C 0.7992 0.45681 0.59296 0.0
C2410 C 0.80076 0.44873 0.61411 0.0
C2411 C 0.80241 0.4254 0.61343 0.0
C2412 C 0.80242 0.41025 0.59259 0.0
C2413 C 0.80594 0.38647 0.59674 0.0
C2414 C 0.78474 0.36721 0.58627 0.0
C2415 C 0.82833 0.38078 0.58707 0.0
C2416 C 0.80806 0.39062 0.62317 0.0
C2417 C 0.80566 0.4131 0.63245 0.0
C2418 C 0.80702 0.42105 0.65646 0.0
C2419 C 0.81109 0.40573 0.67137 0.0
C2420 C 0.81405 0.38274 0.6623 0.0
C2421 C 0.81243 0.37517 0.63783 0.0
H2422 H 0.4679 0.02254 0.39336 0.0
H2423 H 0.43131 0.07736 0.41934 0.0
H2424 H 0.45789 0.08829 0.45561 0.0
H2425 H 0.47387 1.00393 0.44681 0.0
H2426 H 0.50196 0.99678 0.44303 0.0
H2427 H 0.48228 0.99549 0.41792 0.0
H2428 H 0.51366 0.02412 0.40206 0.0
H2429 H 0.53342 0.02557 0.42725 0.0
H2430 H 0.52661 0.0521 0.42005 0.0
H2431 H 0.48653 0.0916 0.48968 0.0
H2432 H 0.51262 0.08475 0.52102 0.0
H2433 H 0.52947 0.02628 0.47377 0.0
C2434 C 0.4659 0.03719 0.4065 0.0
C2435 C 0.44789 0.04942 0.40354 0.0
C2436 C 0.44516 0.06795 0.42133 0.0
C2437 C 0.46023 0.07434 0.44187 0.0
C2438 C 0.47773 0.06182 0.44438 0.0
C2439 C 0.48048 0.04345 0.42731 0.0
C2440 C 0.49894 0.03117 0.43543 0.0
C2441 C 0.48864 1.00532 0.43583 0.0
C2442 C 0.51937 0.03338 0.42029 0.0
C2443 C 0.50593 0.04531 0.45985 0.0
C2444 C 0.49376 0.06315 0.46448 0.0
C2445 C 0.49632 0.07783 0.48621 0.0
C2446 C 0.51122 0.07378 0.50391 0.0
C2447 C 0.52318 0.055 0.49986 0.0
C2448 C 0.52086 0.04097 0.47735 0.0
H2449 H 0.76861 0.72008 0.09951 0.0
H2450 H 0.82821 0.7643 0.0789 0.0
H2451 H 0.83966 0.78327 0.12011 0.0
H2452 H 0.75588 0.76647 0.14435 0.0
H2453 H 0.74632 0.74702 0.16392 0.0
H2454 H 0.74304 0.73614 0.1329 0.0
H2455 H 0.76595 0.70406 0.13888 0.0
H2456 H 0.76931 0.71484 0.1699 0.0
H2457 H 0.79451 0.71242 0.15439 0.0
H2458 H 0.8461 0.79608 0.16387 0.0
H2459 H 0.84507 0.8047 0.20654 0.0
H2460 H 0.77934 0.75553 0.19994 0.0
C2461 C 0.78409 0.73373 0.10373 0.0
C2462 C 0.79763 0.74054 0.08582 0.0
C2463 C 0.81754 0.75875 0.09214 0.0
C2464 C 0.82423 0.7696 0.11559 0.0
C2465 C 0.81059 0.76257 0.13279 0.0
C2466 C 0.79069 0.74534 0.12717 0.0
C2467 C 0.77864 0.74199 0.14911 0.0
C2468 C 0.75454 0.74828 0.14747 0.0
C2469 C 0.77701 0.71683 0.15331 0.0
C2470 C 0.79512 0.75963 0.16792 0.0
C2471 C 0.81354 0.77111 0.15802 0.0
C2472 C 0.83159 0.7874 0.17172 0.0
C2473 C 0.83086 0.79217 0.19606 0.0
C2474 C 0.81203 0.7811 0.20681 0.0
C2475 C 0.79382 0.76465 0.19236 0.0
H2476 H 0.12406 0.03584 0.71099 0.0
H2477 H 0.19007 0.02301 0.68907 0.0
H2478 H 0.17664 0.02408 0.64849 0.0
H2479 H 0.08716 1.00279 0.65754 0.0
H2480 H 0.06857 0.02367 0.65697 0.0
H2481 H 0.08258 0.02091 0.68432 0.0
H2482 H 0.10066 0.06505 0.69254 0.0
H2483 H 0.0867 0.06793 0.66522 0.0
H2484 H 0.11769 0.07733 0.67143 0.0
H2485 H 0.15487 0.0253 0.60753 0.0
H2486 H 0.12999 0.02972 0.57384 0.0
H2487 H 0.07773 0.04553 0.61969 0.0
C2488 C 0.13576 0.03301 0.69771 0.0
C2489 C 0.15861 0.02885 0.70441 0.0
C2490 C 0.17274 0.02596 0.68556 0.0
C2491 C 0.16507 0.02656 0.66197 0.0
C2492 C 0.14283 0.03064 0.65612 0.0
C2493 C 0.12841 0.03413 0.67364 0.0
C2494 C 0.10566 0.03927 0.66251 0.0
C2495 C 0.08474 0.02055 0.66553 0.0
C2496 C 0.10248 0.06386 0.6736 0.0
C2497 C 0.10935 0.03797 0.63618 0.0
C2498 C 0.13095 0.03264 0.633 0.0
C2499 C 0.13812 0.02969 0.61032 0.0
C2500 C 0.12352 0.03226 0.59084 0.0
C2501 C 0.10128 0.03829 0.59285 0.0
C2502 C 0.09442 0.04118 0.61654 0.0
H2503 H 0.79915 0.40624 0.45266 0.0
H2504 H 0.7987 0.46417 0.4162 0.0
H2505 H 0.80397 0.4389 0.37969 0.0
H2506 H 0.84235 0.38203 0.4219 0.0
H2507 H 0.82882 0.35172 0.42015 0.0
H2508 H 0.82391 0.37369 0.44378 0.0
H2509 H 0.77962 0.36079 0.43306 0.0
H2510 H 0.78438 0.33864 0.4095 0.0
H2511 H 0.76772 0.35999 0.40376 0.0
H2512 H 0.81264 0.40928 0.34785 0.0
H2513 H 0.82017 0.37579 0.32085 0.0
H2514 H 0.81297 0.33382 0.375 0.0
C2515 C 0.79977 0.41353 0.43693 0.0
C2516 C 0.79841 0.43753 0.43767 0.0
C2517 C 0.79956 0.4461 0.41649 0.0
C2518 C 0.80266 0.43181 0.39551 0.0
C2519 C 0.80441 0.40862 0.39553 0.0
C2520 C 0.80265 0.39928 0.41551 0.0
C2521 C 0.8052 0.37359 0.41026 0.0
C2522 C 0.82633 0.37005 0.4249 0.0
C2523 C 0.7829 0.35728 0.41439 0.0
C2524 C 0.809 0.37015 0.3843 0.0
C2525 C 0.8086 0.39083 0.37648 0.0
C2526 C 0.81269 0.39294 0.35373 0.0
C2527 C 0.81711 0.37358 0.33845 0.0
C2528 C 0.81721 0.35171 0.34539 0.0
C2529 C 0.81293 0.35004 0.36886 0.0
H2530 H 0.48037 0.03657 0.28153 0.0
H2531 H 0.4089 0.02706 0.25274 0.0
H2532 H 0.42205 0.02868 0.21366 0.0
H2533 H 0.50599 0.07642 0.24522 0.0
H2534 H 0.53143 0.06379 0.24206 0.0
H2535 H 0.51651 0.06295 0.26798 0.0
H2536 H 0.51199 0.01777 0.26105 0.0
H2537 H 0.52694 0.01849 0.23517 0.0
H2538 H 0.49844 1.00037 0.23351 0.0
H2539 H 0.44289 0.03096 0.17776 0.0
H2540 H 0.4698 0.03202 0.14711 0.0
H2541 H 0.52755 0.03827 0.19904 0.0
C2542 C 0.4675 0.03501 0.26703 0.0
C2543 C 0.44362 0.03179 0.27015 0.0
C2544 C 0.42729 0.02953 0.25072 0.0
C2545 C 0.43459 0.03051 0.22848 0.0
C2546 C 0.45826 0.03362 0.22598 0.0
C2547 C 0.47447 0.03572 0.24468 0.0
C2548 C 0.49878 0.03798 0.2371 0.0
C2549 C 0.51407 0.0617 0.24878 0.0
C2550 C 0.50967 0.01743 0.24199 0.0
C2551 C 0.49368 0.03672 0.21119 0.0
C2552 C 0.47023 0.03438 0.20517 0.0
C2553 C 0.46129 0.03269 0.18224 0.0
C2554 C 0.47671 0.03315 0.16493 0.0
C2555 C 0.50081 0.03508 0.17059 0.0
C2556 C 0.50931 0.03707 0.19412 0.0
H2557 H 0.78286 0.69852 0.91946 0.0
H2558 H 0.81073 0.75968 0.97307 0.0
H2559 H 0.82269 0.78237 0.94251 0.0
H2560 H 0.82621 0.70793 0.87942 0.0
H2561 H 0.80611 0.69844 0.85356 0.0
H2562 H 0.7998 0.68686 0.8795 0.0
H2563 H 0.76054 0.70033 0.87903 0.0
H2564 H 0.76665 0.71179 0.85298 0.0
H2565 H 0.76002 0.73058 0.87834 0.0
H2566 H 0.83355 0.79817 0.90556 0.0
H2567 H 0.83862 0.80684 0.86622 0.0
H2568 H 0.80161 0.73644 0.83565 0.0
C2569 C 0.79143 0.71673 0.92485 0.0
C2570 C 0.79585 0.72715 0.94903 0.0
C2571 C 0.80697 0.75113 0.95494 0.0
C2572 C 0.81396 0.76418 0.93758 0.0
C2573 C 0.80954 0.75332 0.91406 0.0
C2574 C 0.79819 0.73019 0.90766 0.0
C2575 C 0.79491 0.72289 0.88108 0.0
C2576 C 0.80751 0.70284 0.87291 0.0
C2577 C 0.76899 0.71599 0.87234 0.0
C2578 C 0.80637 0.74542 0.87347 0.0
C2579 C 0.81491 0.76267 0.89284 0.0
C2580 C 0.82674 0.78477 0.89037 0.0
C2581 C 0.82966 0.78951 0.86777 0.0
C2582 C 0.82062 0.77246 0.84745 0.0
C2583 C 0.80879 0.75001 0.85059 0.0
H2584 H 0.88032 0.06794 0.02669 0.0
H2585 H 0.9015 0.14034 0.06223 0.0
H2586 H 0.9426 0.13761 0.05894 0.0
H2587 H 0.9284 0.04711 0.05402 0.0
H2588 H 0.93124 0.02659 0.02822 0.0
H2589 H 0.90352 0.03418 0.03328 0.0
H2590 H 0.90136 0.04653 0.99311 0.0
H2591 H 0.92916 0.03915 0.98802 0.0
H2592 H 0.92463 0.06814 0.98639 0.0
H2593 H 0.98278 0.12726 0.05034 0.0
H2594 H 0.01674 0.11007 0.04057 0.0
H2595 H 0.97113 0.04329 1.01182 0.0
C2596 C 0.89354 0.08329 0.03393 0.0
C2597 C 0.88695 0.10454 0.04482 0.0
C2598 C 0.90539 0.12385 0.05394 0.0
C2599 C 0.92906 0.12245 0.05202 0.0
C2600 C 0.9348 0.10146 0.04108 0.0
C2601 C 0.91748 0.08208 0.03243 0.0
C2602 C 0.92845 0.06142 0.02192 0.0
C2603 C 0.92255 0.04112 0.03514 0.0
C2604 C 0.92041 0.05333 0.9958 0.0
C2605 C 0.95457 0.07215 0.02572 0.0
C2606 C 0.95776 0.09537 0.03671 0.0
C2607 C 0.98021 0.10907 0.04183 0.0
C2608 C 0.99966 0.09903 0.03602 0.0
C2609 C 0.99736 0.07511 0.02511 0.0
C2610 C 0.97408 0.06163 0.01992 0.0
H2611 H 0.41884 0.40619 0.03537 0.0
H2612 H 0.38338 0.45075 0.08108 0.0
H2613 H 0.41715 0.48343 0.08512 0.0
H2614 H 0.47703 0.43353 0.07061 0.0
H2615 H 0.49308 0.42972 0.04547 0.0
H2616 H 0.4667 0.4091 0.04694 0.0
H2617 H 0.4479 0.41704 1.00744 0.0
H2618 H 0.47626 0.43439 1.00648 0.0
H2619 H 0.45135 0.44724 1.00411 0.0
H2620 H 0.45174 0.51314 0.07902 0.0
H2621 H 0.48791 0.53611 0.06879 0.0
H2622 H 0.5034 0.47232 0.02963 0.0
C2623 C 0.41835 0.42283 0.04629 0.0
C2624 C 0.39799 0.42632 0.05704 0.0
C2625 C 0.39837 0.44799 0.07195 0.0
C2626 C 0.41755 0.46664 0.07447 0.0
C2627 C 0.43672 0.46327 0.06247 0.0
C2628 C 0.43768 0.44172 0.04924 0.0
C2629 C 0.46121 0.44273 0.03946 0.0
C2630 C 0.47535 0.4279 0.05133 0.0
C2631 C 0.45893 0.43485 1.01282 0.0
C2632 C 0.47191 0.46877 0.04684 0.0
C2633 C 0.45769 0.48014 0.06058 0.0
C2634 C 0.46325 0.50435 0.06867 0.0
C2635 C 0.48385 0.51731 0.06265 0.0
C2636 C 0.49874 0.50622 0.04842 0.0
C2637 C 0.4926 0.48149 0.04063 0.0
H2638 H 0.41973 0.64893 0.76357 0.0
H2639 H 0.37449 0.61394 0.80816 0.0
H2640 H 0.35359 0.64589 0.81265 0.0
H2641 H 0.42074 0.71036 0.79652 0.0
H2642 H 0.41985 0.72381 0.7712 0.0
H2643 H 0.43235 0.69812 0.77043 0.0
H2644 H 0.40452 0.67698 0.73433 0.0
H2645 H 0.39196 0.70263 0.73502 0.0
H2646 H 0.3737 0.67466 0.7355 0.0
H2647 H 0.33426 0.68339 0.81297 0.0
H2648 H 0.32137 0.71997 0.8096 0.0
H2649 H 0.37675 0.737 0.76622 0.0
C2650 C 0.40551 0.64768 0.77443 0.0
C2651 C 0.39997 0.62677 0.78546 0.0
C2652 C 0.38057 0.62809 0.79916 0.0
C2653 C 0.36796 0.64687 0.80196 0.0
C2654 C 0.37374 0.66647 0.79125 0.0
C2655 C 0.39227 0.6672 0.77771 0.0
C2656 C 0.39441 0.6911 0.76848 0.0
C2657 C 0.41827 0.70678 0.77715 0.0
C2658 C 0.39097 0.68605 0.74173 0.0
C2659 C 0.37453 0.70334 0.7788 0.0
C2660 C 0.36287 0.68833 0.79182 0.0
C2661 C 0.34373 0.69493 0.8028 0.0
C2662 C 0.33629 0.71648 0.80074 0.0
C2663 C 0.34727 0.73336 0.78789 0.0
C2664 C 0.36721 0.72583 0.77668 0.0
H2665 H 0.24491 0.63216 0.53193 0.0
H2666 H 0.26618 0.57671 0.56209 0.0
H2667 H 0.22502 0.55805 0.56251 0.0
H2668 H 0.19531 0.63629 0.5645 0.0
H2669 H 0.17705 0.64146 0.54093 0.0
H2670 H 0.20812 0.65025 0.542 0.0
H2671 H 0.20772 0.62539 0.50057 0.0
H2672 H 0.17656 0.61764 0.49954 0.0
H2673 H 0.19322 0.595 0.49476 0.0
H2674 H 0.18119 0.54553 0.56056 0.0
H2675 H 0.13866 0.53982 0.55631 0.0
H2676 H 0.14375 0.60285 0.52686 0.0
C2677 C 0.24086 0.61593 0.53836 0.0
C2678 C 0.2591 0.60551 0.54627 0.0
C2679 C 0.25282 0.58466 0.55519 0.0
C2680 C 0.22935 0.57399 0.55564 0.0
C2681 C 0.21187 0.58435 0.5473 0.0
C2682 C 0.21728 0.60485 0.53874 0.0
C2683 C 0.19494 0.61245 0.53125 0.0
C2684 C 0.1938 0.63655 0.54552 0.0
C2685 C 0.19302 0.61264 0.50497 0.0
C2686 C 0.17618 0.59316 0.53707 0.0
C2687 C 0.18648 0.57718 0.54631 0.0
C2688 C 0.17305 0.55797 0.55329 0.0
C2689 C 0.14866 0.5549 0.55081 0.0
C2690 C 0.13726 0.5708 0.54129 0.0
C2691 C 0.15153 0.59025 0.53426 0.0
H2692 H 0.77398 0.03407 0.77705 0.0
H2693 H 0.70087 1.00163 0.77144 0.0
H2694 H 0.71134 0.96626 0.78282 0.0
H2695 H 0.79448 0.98174 0.75441 0.0
H2696 H 0.82069 0.99009 0.77398 0.0
H2697 H 0.80719 1.0123 0.76474 0.0
H2698 H 0.80538 0.03091 0.80796 0.0
H2699 H 0.8187 1.00867 0.81735 0.0
H2700 H 0.79117 1.01314 0.82709 0.0
H2701 H 0.73017 0.9349 0.79597 0.0
H2702 H 0.75571 0.90947 0.80783 0.0
H2703 H 0.81603 0.96359 0.80546 0.0
C2704 C 0.76008 0.01956 0.77811 0.0
C2705 C 0.73658 0.02066 0.77343 0.0
C2706 C 0.719 1.00115 0.77488 0.0
C2707 C 0.72477 0.98104 0.78141 0.0
C2708 C 0.74815 0.98077 0.78628 0.0
C2709 C 0.76549 0.99948 0.78453 0.0
C2710 C 0.78927 0.99502 0.79074 0.0
C2711 C 0.80375 0.99477 0.76971 0.0
C2712 C 0.80186 1.013 0.81206 0.0
C2713 C 0.78266 0.97089 0.79648 0.0
C2714 C 0.75889 0.96291 0.79382 0.0
C2715 C 0.7488 0.94099 0.79813 0.0
C2716 C 0.76344 0.92678 0.80505 0.0
C2717 C 0.78787 0.93459 0.80761 0.0
C2718 C 0.79746 0.95703 0.80343 0.0
H2719 H 0.78431 0.9477 0.54554 0.0
H2720 H 0.76054 0.87457 0.54935 0.0
H2721 H 0.72002 0.88088 0.54954 0.0
H2722 H 0.74388 0.97121 0.58285 0.0
H2723 H 0.74089 0.99323 0.56576 0.0
H2724 H 0.76763 0.98281 0.56745 0.0
H2725 H 0.76454 0.9719 0.52234 0.0
H2726 H 0.73774 0.98211 0.52049 0.0
H2727 H 0.73878 0.95257 0.50692 0.0
H2728 H 0.68137 0.89548 0.54606 0.0
H2729 H 0.64953 0.91699 0.54191 0.0
H2730 H 0.70025 0.9801 0.54072 0.0
C2731 C 0.7707 0.93294 0.54665 0.0
C2732 C 0.77563 0.91057 0.54732 0.0
C2733 C 0.75721 0.89189 0.54892 0.0
C2734 C 0.73416 0.89532 0.54895 0.0
C2735 C 0.72995 0.91759 0.54767 0.0
C2736 C 0.74787 0.93609 0.54685 0.0
C2737 C 0.73917 0.95823 0.54504 0.0
C2738 C 0.74844 0.9775 0.56656 0.0
C2739 C 0.74543 0.96668 0.52235 0.0
C2740 C 0.71338 0.94936 0.54459 0.0
C2741 C 0.70824 0.9259 0.54611 0.0
C2742 C 0.68532 0.91389 0.5451 0.0
C2743 C 0.66734 0.9262 0.5426 0.0
C2744 C 0.67238 0.95031 0.54123 0.0
C2745 C 0.69577 0.96185 0.54224 0.0
H2746 H 0.37232 0.48778 0.75839 0.0
H2747 H 0.43929 0.49196 0.7953 0.0
H2748 H 0.42697 0.45119 0.80076 0.0
H2749 H 0.33527 0.44652 0.791 0.0
H2750 H 0.31786 0.43074 0.76483 0.0
H2751 H 0.33155 0.46098 0.76652 0.0
H2752 H 0.34995 0.44718 0.72856 0.0
H2753 H 0.33724 0.41701 0.72881 0.0
H2754 H 0.36816 0.42588 0.72856 0.0
H2755 H 0.40749 0.40718 0.80195 0.0
H2756 H 0.38395 0.36745 0.79892 0.0
H2757 H 0.32776 0.38748 0.76123 0.0
C2758 C 0.38436 0.48043 0.7681 0.0
C2759 C 0.4072 0.49481 0.77703 0.0
C2760 C 0.42188 0.48277 0.78853 0.0
C2761 C 0.41487 0.45907 0.79174 0.0
C2762 C 0.39271 0.44571 0.78297 0.0
C2763 C 0.37758 0.45597 0.7712 0.0
C2764 C 0.35526 0.43666 0.76223 0.0
C2765 C 0.33369 0.44427 0.77171 0.0
C2766 C 0.35247 0.43138 0.73545 0.0
C2767 C 0.35963 0.41464 0.77179 0.0
C2768 C 0.38169 0.42037 0.78336 0.0
C2769 C 0.3902 0.40304 0.79302 0.0
C2770 C 0.37637 0.37996 0.79117 0.0
C2771 C 0.35322 0.3729 0.78008 0.0
C2772 C 0.345 0.39128 0.77024 0.0
H2773 H 0.20046 0.63518 0.23853 0.0
H2774 H 0.24838 0.59239 0.21195 0.0
H2775 H 0.27294 0.62692 0.20099 0.0
H2776 H 0.21358 0.67593 0.19075 0.0
H2777 H 0.20802 0.70037 0.21115 0.0
H2778 H 0.19119 0.67131 0.21008 0.0
H2779 H 0.20231 0.67487 0.25423 0.0
H2780 H 0.21858 0.7038 0.25515 0.0
H2781 H 0.23247 0.68234 0.26521 0.0
H2782 H 0.29764 0.66717 0.20654 0.0
H2783 H 0.31713 0.70829 0.22237 0.0
H2784 H 0.25105 0.72449 0.24048 0.0
C2785 C 0.21581 0.63312 0.22978 0.0
C2786 C 0.22368 0.61191 0.22747 0.0
C2787 C 0.24312 0.60914 0.21514 0.0
C2788 C 0.25679 0.62847 0.20838 0.0
C2789 C 0.2499 0.64997 0.21303 0.0
C2790 C 0.22916 0.65209 0.22233 0.0
C2791 C 0.22645 0.67733 0.22711 0.0
C2792 C 0.20877 0.68147 0.20867 0.0
C2793 C 0.21961 0.68498 0.25189 0.0
C2794 C 0.25071 0.68923 0.22375 0.0
C2795 C 0.26365 0.67328 0.21436 0.0
C2796 C 0.28749 0.67995 0.21302 0.0
C2797 C 0.29848 0.70327 0.22217 0.0
C2798 C 0.28556 0.71937 0.23277 0.0
C2799 C 0.26132 0.71244 0.23251 0.0
H2800 H 0.57644 0.78567 0.4573 0.0
H2801 H 0.55691 0.74305 0.38818 0.0
H2802 H 0.57348 0.7113 0.40071 0.0
H2803 H 0.63149 0.76574 0.46786 0.0
H2804 H 0.6279 0.76642 0.49833 0.0
H2805 H 0.61636 0.78653 0.48332 0.0
H2806 H 0.57557 0.77189 0.49582 0.0
H2807 H 0.58698 0.75183 0.51088 0.0
H2808 H 0.56281 0.74103 0.48887 0.0
H2809 H 0.58769 0.68265 0.42212 0.0
H2810 H 0.59843 0.65941 0.45033 0.0
H2811 H 0.6125 0.72191 0.50475 0.0
C2812 C 0.5759 0.76976 0.44472 0.0
C2813 C 0.56533 0.76678 0.42178 0.0
C2814 C 0.56497 0.74572 0.40583 0.0
C2815 C 0.5744 0.72762 0.41276 0.0
C2816 C 0.58451 0.73103 0.43558 0.0
C2817 C 0.58554 0.75167 0.45125 0.0
C2818 C 0.59637 0.75049 0.47504 0.0
C2819 C 0.6194 0.76836 0.48151 0.0
C2820 C 0.57942 0.75401 0.49374 0.0
C2821 C 0.60038 0.72561 0.47057 0.0
C2822 C 0.5936 0.71475 0.44767 0.0
C2823 C 0.5936 0.69112 0.43997 0.0
C2824 C 0.60002 0.67807 0.45623 0.0
C2825 C 0.60654 0.68863 0.48003 0.0
C2826 C 0.60748 0.71301 0.48688 0.0
H2827 H 0.68468 0.30262 0.66156 0.0
H2828 H 0.63199 0.31505 0.70825 0.0
H2829 H 0.66167 0.32543 0.74178 0.0
H2830 H 0.71547 0.27568 0.69541 0.0
H2831 H 0.74402 0.28874 0.68917 0.0
H2832 H 0.7195 0.28585 0.66834 0.0
H2833 H 0.72925 0.33054 0.66874 0.0
H2834 H 0.75404 0.33351 0.68944 0.0
H2835 H 0.73241 0.35088 0.69609 0.0
H2836 H 0.69505 0.32591 0.77051 0.0
H2837 H 0.73158 0.32267 0.79193 0.0
H2838 H 0.76334 0.31419 0.7269 0.0
C2839 C 0.67956 0.3083 0.67876 0.0
C2840 C 0.65605 0.308 0.68229 0.0
C2841 C 0.64993 0.31528 0.70508 0.0
C2842 C 0.66666 0.32118 0.72429 0.0
C2843 C 0.68955 0.32036 0.72037 0.0
C2844 C 0.69617 0.31479 0.69811 0.0
C2845 C 0.7217 0.31395 0.69883 0.0
C2846 C 0.72536 0.28961 0.68726 0.0
C2847 C 0.73514 0.33338 0.68761 0.0
C2848 C 0.728 0.31867 0.72492 0.0
C2849 C 0.70924 0.32229 0.7371 0.0
C2850 C 0.71013 0.32395 0.76126 0.0
C2851 C 0.7308 0.32197 0.77327 0.0
C2852 C 0.75025 0.3188 0.76106 0.0
C2853 C 0.74887 0.31745 0.73669 0.0
H2854 H 0.02062 0.40165 0.91545 0.0
H2855 H 0.98864 0.35288 0.95723 0.0
H2856 H 0.98211 0.386 0.98635 0.0
H2857 H 0.05262 0.44045 0.96013 0.0
H2858 H 0.05012 0.46665 0.94924 0.0
H2859 H 0.04732 0.43936 0.92924 0.0
H2860 H 1.00698 0.44363 0.91241 0.0
H2861 H 1.00975 0.47108 0.93242 0.0
H2862 H 0.98485 0.44796 0.93175 0.0
H2863 H 0.98453 0.42399 1.01352 0.0
H2864 H 0.99787 0.46362 0.03746 0.0
H2865 H 0.02933 0.48747 0.97849 0.0
C2866 C 1.01151 0.39791 0.93032 0.0
C2867 C 1.00501 0.37475 0.93404 0.0
C2868 C 0.99375 0.37055 0.95405 0.0
C2869 C 0.98979 0.38922 0.97058 0.0
C2870 C 0.99713 0.41195 0.9668 0.0
C2871 C 1.00771 0.41636 0.94711 0.0
C2872 C 0.01697 0.44228 0.94871 0.0
C2873 C 0.04331 0.44747 0.94673 0.0
C2874 C 1.00384 0.45179 0.93023 0.0
C2875 C 1.01123 0.45159 0.97296 0.0
C2876 C 0.99912 0.43396 0.98283 0.0
C2877 C 0.99361 0.43804 1.00584 0.0
C2878 C 1.00126 0.46058 0.01931 0.0
C2879 C 1.01467 0.47849 1.0098 0.0
C2880 C 0.01905 0.47407 0.98616 0.0
H2881 H 1.00735 0.75254 0.13449 0.0
H2882 H 0.04852 0.82323 0.15112 0.0
H2883 H 0.02057 0.83495 0.17833 0.0
H2884 H 0.94904 0.76806 0.14116 0.0
H2885 H 0.93922 0.74321 0.15456 0.0
H2886 H 0.95993 0.74154 0.1332 0.0
H2887 H 0.98793 0.72989 0.16282 0.0
H2888 H 0.96753 0.73184 0.18437 0.0
H2889 H 0.9967 0.7488 0.19087 0.0
H2890 H 0.99116 0.83785 0.2069 0.0
H2891 H 0.96207 0.8317 0.23507 0.0
H2892 H 0.94087 0.75872 0.20106 0.0
C2893 C 1.01002 0.77065 0.14326 0.0
C2894 C 0.02991 0.78707 0.14059 0.0
C2895 C 0.03327 0.81046 0.15289 0.0
C2896 C 0.01748 0.81727 0.16832 0.0
C2897 C 0.99851 0.80045 0.1713 0.0
C2898 C 0.99463 0.77763 0.15906 0.0
C2899 C 0.97443 0.76236 0.16742 0.0
C2900 C 0.95447 0.75326 0.14792 0.0
C2901 C 0.98212 0.74203 0.17694 0.0
C2902 C 0.96806 0.77999 0.18671 0.0
C2903 C 0.9819 0.80194 0.18839 0.0
C2904 C 0.97997 0.82083 0.20556 0.0
C2905 C 0.96344 0.81719 0.22147 0.0
C2906 C 0.94928 0.79476 0.22022 0.0
C2907 C 0.95158 0.77602 0.2025 0.0
H2908 H 0.49527 0.32701 0.09397 0.0
H2909 H 0.54166 0.34922 0.15788 0.0
H2910 H 0.56081 0.38367 0.14327 0.0
H2911 H 0.53527 0.34052 0.05648 0.0
H2912 H 0.51734 0.35169 0.03691 0.0
H2913 H 0.5042 0.33063 0.05344 0.0
H2914 H 0.47841 0.35887 0.07139 0.0
H2915 H 0.49089 0.37945 0.054 0.0
H2916 H 0.49177 0.38849 0.08515 0.0
H2917 H 0.5801 0.4104 0.11895 0.0
H2918 H 0.59368 0.43308 0.08943 0.0
H2919 H 0.53252 0.3969 0.0426 0.0
C2920 C 0.50886 0.33955 0.10529 0.0
C2921 C 0.51701 0.33517 0.12702 0.0
C2922 C 0.53506 0.35199 0.14113 0.0
C2923 C 0.54615 0.37167 0.13297 0.0
C2924 C 0.53869 0.37463 0.1109 0.0
C2925 C 0.51999 0.35952 0.09752 0.0
C2926 C 0.51636 0.36617 0.07388 0.0
C2927 C 0.51842 0.34605 0.05402 0.0
C2928 C 0.49296 0.3737 0.07096 0.0
C2929 C 0.53649 0.38678 0.07582 0.0
C2930 C 0.54918 0.39122 0.09728 0.0
C2931 C 0.5698 0.40777 0.10241 0.0
C2932 C 0.57732 0.42069 0.08543 0.0
C2933 C 0.56399 0.41747 0.06364 0.0
C2934 C 0.54332 0.40003 0.05889 0.0
H2935 H 0.05601 0.30564 0.3478 0.0
H2936 H 0.05741 0.36957 0.3974 0.0
H2937 H 0.02629 0.37891 0.37257 0.0
H2938 H 0.03735 0.3199 0.29114 0.0
H2939 H 0.01854 0.29174 0.28422 0.0
H2940 H 0.04434 0.29608 0.30393 0.0
H2941 H 1.01374 0.27832 0.33151 0.0
H2942 H 0.98951 0.27921 0.31163 0.0
H2943 H 0.9922 0.29481 0.34131 0.0
H2944 H 0.99853 0.38314 0.34091 0.0
H2945 H 0.96665 0.37723 0.31019 0.0
H2946 H 0.97853 0.30753 0.28358 0.0
C2947 C 0.04996 0.3218 0.353 0.0
C2948 C 0.05981 0.33778 0.37355 0.0
C2949 C 0.05048 0.35776 0.38113 0.0
C2950 C 0.03296 0.36318 0.36717 0.0
C2951 C 0.02427 0.34771 0.34639 0.0
C2952 C 0.03163 0.32688 0.33981 0.0
C2953 C 0.01624 0.31144 0.31902 0.0
C2954 C 0.03003 0.30438 0.29844 0.0
C2955 C 1.00208 0.28966 0.32631 0.0
C2956 C 1.00079 0.32795 0.31357 0.0
C2957 C 1.00583 0.34874 0.32961 0.0
C2958 C 0.99424 0.3669 0.32829 0.0
C2959 C 0.9764 0.36348 0.31048 0.0
C2960 C 0.97025 0.34201 0.29422 0.0
C2961 C 0.98288 0.32414 0.29567 0.0
H2962 H 0.02813 0.72019 0.60239 0.0
H2963 H 0.03329 0.71001 0.67405 0.0
H2964 H 0.0385 0.66951 0.66047 0.0
H2965 H 0.99691 0.66041 0.57671 0.0
H2966 H 1.01216 0.65957 0.55087 0.0
H2967 H 1.00714 0.68708 0.56624 0.0
H2968 H 0.05127 0.70438 0.56996 0.0
H2969 H 0.05644 0.6769 0.5548 0.0
H2970 H 0.07118 0.68973 0.5833 0.0
H2971 H 0.04634 0.63108 0.63912 0.0
H2972 H 0.05391 0.59718 0.61155 0.0
H2973 H 0.04293 0.63257 0.554 0.0
C2974 C 0.02997 0.70934 0.61522 0.0
C2975 C 0.03025 0.71826 0.63929 0.0
C2976 C 0.0329 0.70352 0.65551 0.0
C2977 C 0.03591 0.6805 0.64797 0.0
C2978 C 0.03606 0.67241 0.62414 0.0
C2979 C 0.0329 0.68631 0.608 0.0
C2980 C 0.03447 0.67374 0.58346 0.0
C2981 C 1.01129 0.66997 0.56844 0.0
C2982 C 0.05453 0.68698 0.57223 0.0
C2983 C 0.03945 0.65076 0.58834 0.0
C2984 C 0.04028 0.65028 0.61189 0.0
C2985 C 0.04549 0.63118 0.62061 0.0
C2986 C 0.04988 0.61205 0.60483 0.0
C2987 C 0.04896 0.61214 0.58059 0.0
C2988 C 0.04359 0.6318 0.57238 0.0
H2989 H 0.68251 0.85598 0.85964 0.0
H2990 H 0.65597 0.7869 0.87406 0.0
H2991 H 0.68295 0.77044 0.84836 0.0
H2992 H 0.69112 0.83913 0.80042 0.0
H2993 H 0.71818 0.8596 0.80145 0.0
H2994 H 0.69709 0.86634 0.82124 0.0
H2995 H 0.72757 0.87196 0.85666 0.0
H2996 H 0.74886 0.86596 0.83688 0.0
H2997 H 0.74319 0.849 0.85943 0.0
H2998 H 0.71026 0.76098 0.81847 0.0
H2999 H 0.74315 0.76057 0.7942 0.0
H3000 H 0.75401 0.83615 0.80169 0.0
C3001 C 0.68279 0.8375 0.85775 0.0
C3002 C 0.6673 0.82269 0.86885 0.0
C3003 C 0.66799 0.79857 0.86596 0.0
C3004 C 0.68299 0.78902 0.85114 0.0
C3005 C 0.69743 0.80392 0.83973 0.0
C3006 C 0.69806 0.82778 0.84349 0.0
C3007 C 0.71613 0.8401 0.83005 0.0
C3008 C 0.70495 0.85198 0.81223 0.0
C3009 C 0.73506 0.85779 0.84675 0.0
C3010 C 0.7254 0.8194 0.81802 0.0
C3011 C 0.71399 0.79863 0.82339 0.0
C3012 C 0.71943 0.77713 0.81423 0.0
C3013 C 0.73788 0.77702 0.8002 0.0
C3014 C 0.75085 0.7983 0.79597 0.0
C3015 C 0.74412 0.81963 0.80447 0.0
H3016 H 0.4505 0.53949 0.67766 0.0
H3017 H 0.50277 0.58967 0.72548 0.0
H3018 H 0.5281 0.59272 0.69372 0.0
H3019 H 0.49213 0.5099 0.64455 0.0
H3020 H 0.47607 0.50533 0.61638 0.0
H3021 H 0.46108 0.50721 0.64241 0.0
H3022 H 0.44328 0.54061 0.63079 0.0
H3023 H 0.45822 0.53878 0.60471 0.0
H3024 H 0.46208 0.56627 0.62486 0.0
H3025 H 0.54981 0.59131 0.65448 0.0
H3026 H 0.56422 0.58436 0.6156 0.0
H3027 H 0.50089 0.53356 0.58999 0.0
C3028 C 0.46718 0.55135 0.68165 0.0
C3029 C 0.47366 0.56459 0.70553 0.0
C3030 C 0.4963 0.57926 0.70843 0.0
C3031 C 0.51123 0.58115 0.68999 0.0
C3032 C 0.50447 0.56812 0.66723 0.0
C3033 C 0.48286 0.5533 0.66297 0.0
C3034 C 0.48036 0.54087 0.63671 0.0
C3035 C 0.4772 0.51424 0.6349 0.0
C3036 C 0.45975 0.54698 0.62348 0.0
C3037 C 0.50363 0.55083 0.62698 0.0
C3038 C 0.51715 0.56675 0.64509 0.0
C3039 C 0.53905 0.57868 0.64056 0.0
C3040 C 0.54733 0.57453 0.61784 0.0
C3041 C 0.5346 0.55814 0.59831 0.0
C3042 C 0.51199 0.54614 0.60368 0.0
H3043 H 0.81557 0.17456 1.0049 0.0
H3044 H 0.82336 0.11009 0.96049 0.0
H3045 H 0.81971 0.12817 0.9259 0.0
H3046 H 0.77245 0.18734 0.96676 0.0
H3047 H 0.783 0.21863 0.97313 0.0
H3048 H 0.78784 0.20132 0.99471 0.0
H3049 H 0.83205 0.2177 0.99742 0.0
H3050 H 0.82734 0.23514 0.9759 0.0
H3051 H 0.84688 0.21508 0.97131 0.0
H3052 H 0.81387 0.15266 0.89581 0.0
H3053 H 0.80628 0.18176 0.87244 0.0
H3054 H 0.80086 0.23014 0.93591 0.0
C3055 C 0.81693 0.16437 0.98795 0.0
C3056 C 0.81997 0.14089 0.98555 0.0
C3057 C 0.82113 0.12809 0.96291 0.0
C3058 C 0.81908 0.13822 0.9431 0.0
C3059 C 0.81577 0.16122 0.94604 0.0
C3060 C 0.81471 0.17418 0.96788 0.0
C3061 C 0.81003 0.19823 0.96604 0.0
C3062 C 0.78696 0.20157 0.97573 0.0
C3063 C 0.83029 0.21769 0.9784 0.0
C3064 C 0.80853 0.19671 0.93978 0.0
C3065 C 0.81198 0.17523 0.92861 0.0
C3066 C 0.81112 0.16954 0.90439 0.0
C3067 C 0.80659 0.18618 0.89122 0.0
C3068 C 0.80281 0.20834 0.90217 0.0
C3069 C 0.80392 0.21356 0.92688 0.0
H3070 H 0.12187 0.54514 0.21476 0.0
H3071 H 0.16586 0.49809 0.18707 0.0
H3072 H 0.13709 0.482 0.15273 0.0
H3073 H 0.06364 0.50761 0.18955 0.0
H3074 H 0.05323 0.5327 0.18287 0.0
H3075 H 0.07385 0.53603 0.20786 0.0
H3076 H 0.10157 0.56815 0.1923 0.0
H3077 H 0.0811 0.56494 0.16741 0.0
H3078 H 0.11041 0.56156 0.16332 0.0
H3079 H 0.10677 0.47504 0.11953 0.0
H3080 H 0.08071 0.48111 0.08784 0.0
H3081 H 0.05807 0.53542 0.1356 0.0
C3082 C 0.12491 0.53073 0.20191 0.0
C3083 C 0.14566 0.52229 0.20372 0.0
C3084 C 0.14979 0.50437 0.18609 0.0
C3085 C 0.1335 0.49509 0.16665 0.0
C3086 C 0.1134 0.50423 0.16505 0.0
C3087 C 0.10918 0.52185 0.18212 0.0
C3088 C 0.08869 0.5317 0.17435 0.0
C3089 C 0.06866 0.5267 0.18957 0.0
C3090 C 0.09588 0.55813 0.17434 0.0
C3091 C 0.08261 0.51757 0.14985 0.0
C3092 C 0.09657 0.50128 0.14515 0.0
C3093 C 0.09555 0.48749 0.12312 0.0
C3094 C 0.08066 0.49114 0.10519 0.0
C3095 C 0.06735 0.50883 0.10921 0.0
C3096 C 0.06769 0.52152 0.13207 0.0
H3097 H 0.81698 0.88483 0.45893 0.0
H3098 H 0.84294 0.83123 0.48851 0.0
H3099 H 0.84082 0.80756 0.44869 0.0
H3100 H 0.77675 0.84508 0.41257 0.0
H3101 H 0.78228 0.86442 0.39201 0.0
H3102 H 0.78481 0.87633 0.42279 0.0
H3103 H 0.82686 0.89783 0.42042 0.0
H3104 H 0.82452 0.88591 0.38968 0.0
H3105 H 0.84766 0.88127 0.40876 0.0
H3106 H 0.83846 0.79106 0.40455 0.0
H3107 H 0.83392 0.78218 0.3615 0.0
H3108 H 0.80823 0.84611 0.36072 0.0
C3109 C 0.82201 0.86797 0.45721 0.0
C3110 C 0.83014 0.85999 0.4772 0.0
C3111 C 0.83649 0.83778 0.47377 0.0
C3112 C 0.83543 0.82425 0.4511 0.0
C3113 C 0.82774 0.83293 0.43186 0.0
C3114 C 0.82087 0.85421 0.43479 0.0
C3115 C 0.81356 0.85988 0.41135 0.0
C3116 C 0.78782 0.86152 0.40958 0.0
C3117 C 0.82907 0.88257 0.40732 0.0
C3118 C 0.81764 0.83862 0.39459 0.0
C3119 C 0.8259 0.82331 0.40676 0.0
C3120 C 0.83179 0.80289 0.395 0.0
C3121 C 0.82919 0.79802 0.3704 0.0
C3122 C 0.82057 0.81329 0.35742 0.0
C3123 C 0.81462 0.83385 0.36991 0.0
H3124 H 0.44522 0.57109 0.87376 0.0
H3125 H 0.49444 0.55519 0.82436 0.0
H3126 H 0.52062 0.54921 0.85651 0.0
H3127 H 0.48981 0.60345 0.92235 0.0
H3128 H 0.47365 0.59301 0.94492 0.0
H3129 H 0.45858 0.59587 0.91816 0.0
H3130 H 0.438 0.55247 0.9119 0.0
H3131 H 0.45308 0.54946 0.93858 0.0
H3132 H 0.45508 0.53017 0.91162 0.0
H3133 H 0.54201 0.54207 0.89617 0.0
H3134 H 0.55635 0.53916 0.93594 0.0
H3135 H 0.49625 0.5629 0.96263 0.0
C3136 C 0.46163 0.56663 0.8695 0.0
C3137 C 0.46709 0.56395 0.84532 0.0
C3138 C 0.4891 0.55782 0.84185 0.0
C3139 C 0.50432 0.55417 0.86042 0.0
C3140 C 0.49835 0.55683 0.88364 0.0
C3141 C 0.47752 0.56337 0.88826 0.0
C3142 C 0.47555 0.56572 0.91498 0.0
C3143 C 0.47431 0.59102 0.92575 0.0
C3144 C 0.45415 0.54844 0.91954 0.0
C3145 C 0.4982 0.55936 0.92474 0.0
C3146 C 0.51095 0.55397 0.90615 0.0
C3147 C 0.53195 0.54663 0.91052 0.0
C3148 C 0.54013 0.54492 0.93368 0.0
C3149 C 0.52819 0.55083 0.95372 0.0
C3150 C 0.50659 0.55831 0.94853 0.0
H3151 H 0.84532 0.20459 0.11651 0.0
H3152 H 0.80289 0.1419 0.13228 0.0
H3153 H 0.79186 0.1654 0.16726 0.0
H3154 H 0.86619 0.23072 0.17818 0.0
H3155 H 0.86636 0.26031 0.17431 0.0
H3156 H 0.87107 0.23869 0.15025 0.0
H3157 H 0.83712 0.24738 0.12538 0.0
H3158 H 0.8321 0.26878 0.14949 0.0
H3159 H 0.80887 0.24487 0.13605 0.0
H3160 H 0.78268 0.19581 0.19908 0.0
H3161 H 0.78133 0.22974 0.22951 0.0
H3162 H 0.83216 0.27354 0.19677 0.0
C3163 C 0.83397 0.19576 0.12751 0.0
C3164 C 0.82504 0.17114 0.12136 0.0
C3165 C 0.81019 0.16052 0.1364 0.0
C3166 C 0.80362 0.17382 0.15634 0.0
C3167 C 0.81227 0.19794 0.16163 0.0
C3168 C 0.8276 0.20882 0.14804 0.0
C3169 C 0.83497 0.23498 0.15849 0.0
C3170 C 0.86121 0.24156 0.16574 0.0
C3171 C 0.82784 0.24988 0.14132 0.0
C3172 C 0.82115 0.23706 0.17981 0.0
C3173 C 0.80792 0.21545 0.18094 0.0
C3174 C 0.79319 0.21276 0.19847 0.0
C3175 C 0.79241 0.23235 0.2157 0.0
C3176 C 0.80655 0.25466 0.21585 0.0
C3177 C 0.82097 0.25693 0.19731 0.0
H3178 H 0.15812 0.58855 0.3072 0.0
H3179 H 0.22862 0.61493 0.33944 0.0
H3180 H 0.21339 0.6271 0.37708 0.0
H3181 H 0.13149 0.63358 0.34144 0.0
H3182 H 0.10542 0.61255 0.34286 0.0
H3183 H 0.12188 0.60875 0.31799 0.0
H3184 H 0.12489 0.56717 0.32463 0.0
H3185 H 0.10855 0.57085 0.3495 0.0
H3186 H 0.13679 0.56363 0.35259 0.0
H3187 H 0.19042 0.63211 0.41209 0.0
H3188 H 0.16164 0.63026 0.44117 0.0
H3189 H 0.10668 0.60044 0.38545 0.0
C3190 C 0.17043 0.5973 0.32201 0.0
C3191 C 0.19459 0.60074 0.32031 0.0
C3192 C 0.21003 0.61212 0.34025 0.0
C3193 C 0.20154 0.61915 0.36171 0.0
C3194 C 0.17761 0.61489 0.36285 0.0
C3195 C 0.1623 0.60441 0.34345 0.0
C3196 C 0.13748 0.6002 0.34949 0.0
C3197 C 0.12323 0.61464 0.33722 0.0
C3198 C 0.12629 0.57391 0.34372 0.0
C3199 C 0.14122 0.60928 0.37548 0.0
C3200 C 0.16444 0.61791 0.38289 0.0
C3201 C 0.17217 0.62574 0.40644 0.0
C3202 C 0.15574 0.62449 0.42282 0.0
C3203 C 0.13192 0.61541 0.41552 0.0
C3204 C 0.12467 0.60804 0.39152 0.0
H3205 H 0.8315 0.83159 0.60807 0.0
H3206 H 0.8295 0.90488 0.63141 0.0
H3207 H 0.82244 0.89737 0.67072 0.0
H3208 H 0.78734 0.80714 0.6429 0.0
H3209 H 0.80221 0.78495 0.65005 0.0
H3210 H 0.80653 0.79552 0.62323 0.0
H3211 H 0.85081 0.80625 0.6347 0.0
H3212 H 0.84667 0.79576 0.66158 0.0
H3213 H 0.86198 0.82527 0.66218 0.0
H3214 H 0.81525 0.88237 0.70791 0.0
H3215 H 0.81081 0.86149 0.74077 0.0
H3216 H 0.81875 0.79757 0.69549 0.0
C3217 C 0.82947 0.84602 0.62143 0.0
C3218 C 0.83098 0.86893 0.61629 0.0
C3219 C 0.82848 0.88724 0.63459 0.0
C3220 C 0.82438 0.88312 0.65711 0.0
C3221 C 0.82301 0.86054 0.66162 0.0
C3222 C 0.82571 0.84227 0.64441 0.0
C3223 C 0.82429 0.81987 0.65447 0.0
C3224 C 0.80388 0.80073 0.64191 0.0
C3225 C 0.8473 0.81128 0.65315 0.0
C3226 C 0.82009 0.82839 0.67981 0.0
C3227 C 0.81936 0.85193 0.68341 0.0
C3228 C 0.81581 0.86393 0.70523 0.0
C3229 C 0.81322 0.85179 0.72391 0.0
C3230 C 0.8142 0.82767 0.72107 0.0
C3231 C 0.8176 0.81588 0.69846 0.0
H3232 H 0.73959 0.52557 0.49894 0.0
H3233 H 0.72728 0.45953 0.52328 0.0
H3234 H 0.6885 0.46562 0.53313 0.0
H3235 H 0.71015 0.55685 0.54365 0.0
H3236 H 0.69793 0.57318 0.52452 0.0
H3237 H 0.72471 0.56375 0.51875 0.0
H3238 H 0.70687 0.54277 0.47735 0.0
H3239 H 0.68004 0.55209 0.48316 0.0
H3240 H 0.68007 0.52142 0.47382 0.0
H3241 H 0.64982 0.47859 0.54041 0.0
H3242 H 0.6157 0.49691 0.54431 0.0
H3243 H 0.65135 0.55564 0.51637 0.0
C3244 C 0.72873 0.51224 0.50619 0.0
C3245 C 0.73711 0.49179 0.51005 0.0
C3246 C 0.72189 0.47525 0.5199 0.0
C3247 C 0.69957 0.4786 0.52564 0.0
C3248 C 0.69202 0.49881 0.52175 0.0
C3249 C 0.70617 0.51542 0.51224 0.0
C3250 C 0.69371 0.53573 0.51018 0.0
C3251 C 0.70745 0.55875 0.52516 0.0
C3252 C 0.68997 0.53813 0.48458 0.0
C3253 C 0.67039 0.52794 0.51982 0.0
C3254 C 0.6699 0.5065 0.52636 0.0
C3255 C 0.65025 0.49541 0.53537 0.0
C3256 C 0.63071 0.5061 0.53756 0.0
C3257 C 0.63027 0.52808 0.53099 0.0
C3258 C 0.6508 0.5391 0.52204 0.0
H3259 H 0.2297 0.15908 0.53522 0.0
H3260 H 0.21303 0.18444 0.47252 0.0
H3261 H 0.17427 0.15799 0.46702 0.0
H3262 H 0.19721 0.09869 0.52301 0.0
H3263 H 0.18824 0.10173 0.55188 0.0
H3264 H 0.21493 0.11963 0.5465 0.0
H3265 H 0.19715 0.15521 0.56634 0.0
H3266 H 0.17002 0.13592 0.56818 0.0
H3267 H 0.17053 0.15994 0.55295 0.0
H3268 H 0.13942 0.12439 0.46589 0.0
H3269 H 0.10719 0.09431 0.47422 0.0
H3270 H 0.1431 0.09677 0.54166 0.0
C3271 C 0.2179 0.15879 0.52021 0.0
C3272 C 0.22473 0.17275 0.50348 0.0
C3273 C 0.20843 0.17313 0.48492 0.0
C3274 C 0.18639 0.15821 0.48174 0.0
C3275 C 0.18047 0.14391 0.498 0.0
C3276 C 0.19539 0.14485 0.51743 0.0
C3277 C 0.18349 0.1303 0.534 0.0
C3278 C 0.19683 0.11153 0.53913 0.0
C3279 C 0.18009 0.1463 0.55671 0.0
C3280 C 0.16037 0.11934 0.51985 0.0
C3281 C 0.15904 0.12731 0.49905 0.0
C3282 C 0.14008 0.11844 0.48235 0.0
C3283 C 0.12194 0.10124 0.48712 0.0
C3284 C 0.12261 0.09338 0.5086 0.0
C3285 C 0.14203 0.10271 0.52521 0.0
H3286 H 0.25729 0.97795 0.79712 0.0
H3287 H 0.18849 0.94721 0.76315 0.0
H3288 H 0.199 0.90804 0.75768 0.0
H3289 H 0.28786 0.93891 0.75819 0.0
H3290 H 0.30919 0.93708 0.78082 0.0
H3291 H 0.29619 0.96255 0.78299 0.0
H3292 H 0.28338 0.95649 0.82316 0.0
H3293 H 0.29639 0.93104 0.82102 0.0
H3294 H 0.26626 0.92866 0.82604 0.0
H3295 H 0.21802 0.86782 0.75788 0.0
H3296 H 0.2416 0.83761 0.75955 0.0
H3297 H 0.30094 0.89209 0.78918 0.0
C3298 C 0.24413 0.96313 0.78842 0.0
C3299 C 0.22124 0.96747 0.78086 0.0
C3300 C 0.20583 0.94619 0.76945 0.0
C3301 C 0.21189 0.92316 0.76626 0.0
C3302 C 0.23419 0.91978 0.77389 0.0
C3303 C 0.25027 0.93961 0.78449 0.0
C3304 C 0.27348 0.93133 0.79026 0.0
C3305 C 0.29285 0.94319 0.77731 0.0
C3306 C 0.2803 0.93726 0.81669 0.0
C3307 C 0.26831 0.904 0.7815 0.0
C3308 C 0.24522 0.89771 0.77248 0.0
C3309 C 0.23609 0.87341 0.76461 0.0
C3310 C 0.25006 0.85577 0.76561 0.0
C3311 C 0.27426 0.86079 0.77382 0.0
C3312 C 0.28304 0.88617 0.78199 0.0
H3313 H 0.37633 0.96699 0.98617 0.0
H3314 H 0.35617 0.01724 0.04016 0.0
H3315 H 0.39738 0.03711 0.05009 0.0
H3316 H 0.42898 0.9619 0.01605 0.0
H3317 H 0.44533 0.96024 0.99096 0.0
H3318 H 0.41427 0.95049 0.98727 0.0
H3319 H 0.41059 0.97898 0.95884 0.0
H3320 H 0.44175 0.98807 0.96206 0.0
H3321 H 0.42387 1.00957 0.96787 0.0
H3322 H 0.44193 0.04926 0.0569 0.0
H3323 H 0.48457 0.0557 0.05684 0.0
H3324 H 0.47704 1.00012 0.99621 0.0
C3325 C 0.38056 0.98248 0.99978 0.0
C3326 C 0.36261 0.99084 1.01196 0.0
C3327 C 0.36922 1.01081 0.03006 0.0
C3328 C 0.39276 0.02212 0.03596 0.0
C3329 C 0.40995 1.01348 0.02364 0.0
C3330 C 0.4041 0.99435 1.00557 0.0
C3331 C 0.42602 0.98866 0.99506 0.0
C3332 C 0.42881 0.96385 0.99748 0.0
C3333 C 0.42551 0.99149 0.96943 0.0
C3334 C 0.44517 1.00728 1.01022 0.0
C3335 C 0.43545 0.0212 0.0268 0.0
C3336 C 0.44955 0.03864 0.0437 0.0
C3337 C 0.47393 0.04212 0.0436 0.0
C3338 C 0.48458 0.02869 0.02646 0.0
C3339 C 0.46972 1.01102 1.00943 0.0
H3340 H 0.8839 0.59922 0.83874 0.0
H3341 H 0.94501 0.59503 0.80152 0.0
H3342 H 0.93425 0.62278 0.77785 0.0
H3343 H 0.84669 0.59768 0.79061 0.0
H3344 H 0.83016 0.61765 0.80511 0.0
H3345 H 0.84436 0.60037 0.82151 0.0
H3346 H 0.86637 0.63801 0.84961 0.0
H3347 H 0.85187 0.65542 0.83358 0.0
H3348 H 0.88311 0.66135 0.83789 0.0
H3349 H 0.91459 0.64808 0.75568 0.0
H3350 H 0.88851 0.67009 0.7382 0.0
H3351 H 0.84027 0.65631 0.78965 0.0
C3352 C 0.89544 0.60455 0.82608 0.0
C3353 C 0.91536 0.59494 0.82209 0.0
C3354 C 0.92971 0.60222 0.80502 0.0
C3355 C 0.92372 0.61794 0.79144 0.0
C3356 C 0.9034 0.62625 0.7952 0.0
C3357 C 0.88964 0.61998 0.81229 0.0
C3358 C 0.86784 0.62989 0.81181 0.0
C3359 C 0.84599 0.61022 0.80697 0.0
C3360 C 0.86728 0.6472 0.83457 0.0
C3361 C 0.87123 0.64234 0.79147 0.0
C3362 C 0.89191 0.64026 0.7822 0.0
C3363 C 0.89845 0.64999 0.76294 0.0
C3364 C 0.88354 0.66239 0.7531 0.0
C3365 C 0.86229 0.66468 0.76244 0.0
C3366 C 0.85618 0.65448 0.78185 0.0
H3367 H 0.84167 0.64623 0.99394 0.0
H3368 H 0.85637 0.71145 0.04457 0.0
H3369 H 0.89092 0.69986 0.06138 0.0
H3370 H 0.8556 0.61062 0.0321 0.0
H3371 H 0.8683 0.59186 1.01111 0.0
H3372 H 0.84632 0.60638 1.00147 0.0
H3373 H 0.87401 0.62511 0.97408 0.0
H3374 H 0.89607 0.61051 0.98353 0.0
H3375 H 0.90232 0.64189 0.98591 0.0
H3376 H 0.9221 0.67932 0.07493 0.0
H3377 H 0.94777 0.65247 0.08297 0.0
H3378 H 0.9123 0.60064 0.02367 0.0
C3379 C 0.85238 0.65842 1.00822 0.0
C3380 C 0.8462 0.67992 0.01775 0.0
C3381 C 0.86069 0.69501 0.03674 0.0
C3382 C 0.88037 0.68853 0.04647 0.0
C3383 C 0.88551 0.66693 0.03702 0.0
C3384 C 0.87201 0.65221 0.01817 0.0
C3385 C 0.88045 0.6294 1.012 0.0
C3386 C 0.86154 0.60833 1.01432 0.0
C3387 C 0.8887 0.62657 0.98742 0.0
C3388 C 0.90062 0.63337 0.03056 0.0
C3389 C 0.90333 0.65515 0.04479 0.0
C3390 C 0.92022 0.66232 0.06375 0.0
C3391 C 0.93463 0.64686 0.06828 0.0
C3392 C 0.93216 0.62441 0.05396 0.0
C3393 C 0.91495 0.61779 0.03475 0.0
H3394 H 0.20063 0.12223 0.79553 0.0
H3395 H 0.25487 0.08502 0.77517 0.0
H3396 H 0.2808 0.12266 0.77352 0.0
H3397 H 0.21339 0.16523 0.75719 0.0
H3398 H 0.20714 0.18959 0.77723 0.0
H3399 H 0.1931 0.16004 0.77847 0.0
H3400 H 0.20813 0.16661 0.82184 0.0
H3401 H 0.22223 0.19619 0.82079 0.0
H3402 H 0.23876 0.17632 0.83046 0.0
H3403 H 0.30238 0.16674 0.77374 0.0
H3404 H 0.31558 0.20881 0.77415 0.0
H3405 H 0.24801 0.22097 0.7919 0.0
C3406 C 0.21812 0.12186 0.79108 0.0
C3407 C 0.2255 0.09942 0.78686 0.0
C3408 C 0.2485 0.101 0.7801 0.0
C3409 C 0.2635 0.12277 0.77869 0.0
C3410 C 0.2559 0.14422 0.78343 0.0
C3411 C 0.23352 0.1439 0.78936 0.0
C3412 C 0.22952 0.16958 0.79276 0.0
C3413 C 0.20959 0.17121 0.77539 0.0
C3414 C 0.22434 0.17766 0.81796 0.0
C3415 C 0.25287 0.18441 0.78772 0.0
C3416 C 0.26784 0.16918 0.78256 0.0
C3417 C 0.29044 0.17839 0.7777 0.0
C3418 C 0.29796 0.20295 0.77801 0.0
C3419 C 0.28351 0.21979 0.78291 0.0
C3420 C 0.26019 0.20962 0.78783 0.0
H3421 H 0.40358 0.95268 0.35016 0.0
H3422 H 0.36044 0.98529 0.30889 0.0
H3423 H 0.33226 0.94795 0.29758 0.0
H3424 H 0.39727 0.90092 0.31044 0.0
H3425 H 0.39634 0.88163 0.33119 0.0
H3426 H 0.41119 0.91171 0.33962 0.0
H3427 H 0.38558 0.91788 0.37411 0.0
H3428 H 0.37148 0.88743 0.36583 0.0
H3429 H 0.35444 0.90984 0.36828 0.0
H3430 H 0.31195 0.90717 0.28628 0.0
H3431 H 0.3007 0.86416 0.27478 0.0
H3432 H 0.35593 0.85656 0.32342 0.0
C3433 C 0.38783 0.95192 0.3393 0.0
C3434 C 0.38354 0.97191 0.33111 0.0
C3435 C 0.36342 0.97029 0.31606 0.0
C3436 C 0.34737 0.94918 0.30952 0.0
C3437 C 0.35183 0.92978 0.31804 0.0
C3438 C 0.37152 0.93084 0.33261 0.0
C3439 C 0.37324 0.90669 0.33708 0.0
C3440 C 0.39584 0.89984 0.32909 0.0
C3441 C 0.37107 0.9054 0.36287 0.0
C3442 C 0.35211 0.89187 0.32181 0.0
C3443 C 0.33984 0.9057 0.31135 0.0
C3444 C 0.32103 0.89614 0.29474 0.0
C3445 C 0.31483 0.87176 0.28826 0.0
C3446 C 0.32729 0.85728 0.2985 0.0
C3447 C 0.34579 0.86739 0.31588 0.0
H3448 H 0.596 0.3394 0.61122 0.0
H3449 H 0.60682 0.29159 0.54951 0.0
H3450 H 0.60392 0.32149 0.52577 0.0
H3451 H 0.55317 0.36073 0.58492 0.0
H3452 H 0.56164 0.39066 0.60026 0.0
H3453 H 0.56878 0.36737 0.61352 0.0
H3454 H 0.61229 0.38739 0.6186 0.0
H3455 H 0.60525 0.41095 0.60555 0.0
H3456 H 0.62631 0.3949 0.59362 0.0
H3457 H 0.59404 0.35357 0.50765 0.0
H3458 H 0.57972 0.38731 0.49676 0.0
H3459 H 0.57513 0.41454 0.56976 0.0
C3460 C 0.59857 0.3356 0.59289 0.0
C3461 C 0.60178 0.31326 0.58225 0.0
C3462 C 0.6044 0.30862 0.55805 0.0
C3463 C 0.60285 0.32551 0.54439 0.0
C3464 C 0.59876 0.34703 0.55516 0.0
C3465 C 0.59689 0.35228 0.57889 0.0
C3466 C 0.59022 0.37588 0.5856 0.0
C3467 C 0.56708 0.3735 0.59672 0.0
C3468 C 0.60968 0.39331 0.6018 0.0
C3469 C 0.58779 0.38254 0.56185 0.0
C3470 C 0.59305 0.36577 0.54457 0.0
C3471 C 0.59032 0.3671 0.52104 0.0
C3472 C 0.58202 0.38616 0.51499 0.0
C3473 C 0.57657 0.40353 0.53243 0.0
C3474 C 0.5797 0.40174 0.55613 0.0
H3475 H 0.48337 0.78129 0.33712 0.0
H3476 H 0.46795 0.82161 0.40148 0.0
H3477 H 0.42705 0.81579 0.38582 0.0
H3478 H 0.44249 0.79536 0.29318 0.0
H3479 H 0.43766 0.76539 0.27899 0.0
H3480 H 0.46475 0.77842 0.29628 0.0
H3481 H 0.45217 0.74076 0.31626 0.0
H3482 H 0.42356 0.73353 0.30086 0.0
H3483 H 0.4269 0.7393 0.33226 0.0
H3484 H 0.38929 0.80855 0.36282 0.0
H3485 H 0.3555 0.79919 0.33336 0.0
H3486 H 0.3938 0.76166 0.28407 0.0
C3487 C 0.47133 0.78915 0.34758 0.0
C3488 C 0.47872 0.8027 0.37007 0.0
C3489 C 0.4625 0.81169 0.38399 0.0
C3490 C 0.4393 0.80838 0.37531 0.0
C3491 C 0.43247 0.79522 0.35301 0.0
C3492 C 0.4478 0.78544 0.33935 0.0
C3493 C 0.43517 0.77067 0.31665 0.0
C3494 C 0.44579 0.77795 0.29507 0.0
C3495 C 0.43441 0.74452 0.31651 0.0
C3496 C 0.41123 0.7763 0.31856 0.0
C3497 C 0.40992 0.78974 0.34011 0.0
C3498 C 0.38997 0.79784 0.34598 0.0
C3499 C 0.37096 0.79252 0.32918 0.0
C3500 C 0.37229 0.77976 0.3067 0.0
C3501 C 0.3925 0.77131 0.3013 0.0
H3502 H 0.11119 0.71355 0.10001 0.0
H3503 H 0.06459 0.71489 0.15447 0.0
H3504 H 0.06298 0.67262 0.15362 0.0
H3505 H 0.09014 0.65742 0.06546 0.0
H3506 H 0.11892 0.65313 0.06122 0.0
H3507 H 0.11371 0.68242 0.06775 0.0
H3508 H 0.14698 0.68767 0.10224 0.0
H3509 H 0.14763 0.65685 0.09615 0.0
H3510 H 0.14186 0.67042 0.12465 0.0
H3511 H 0.06147 0.63019 0.14251 0.0
H3512 H 0.05809 0.59017 0.12018 0.0
H3513 H 0.10844 0.61611 0.07529 0.0
C3514 C 0.10064 0.70477 0.11165 0.0
C3515 C 0.08742 0.71699 0.12683 0.0
C3516 C 0.07446 0.7055 0.14249 0.0
C3517 C 0.0737 0.68166 0.1423 0.0
C3518 C 0.08696 0.67 0.12716 0.0
C3519 C 0.10043 0.68119 0.11231 0.0
C3520 C 0.11277 0.66444 0.09762 0.0
C3521 C 0.10864 0.66447 0.07146 0.0
C3522 C 0.13886 0.67019 0.10565 0.0
C3523 C 0.1012 0.64145 0.10383 0.0
C3524 C 0.08737 0.64528 0.12189 0.0
C3525 C 0.0727 0.62693 0.12887 0.0
C3526 C 0.07092 0.60426 0.11614 0.0
C3527 C 0.08347 0.60025 0.09652 0.0
C3528 C 0.09954 0.61879 0.0909 0.0
H3529 H 0.09134 0.36669 0.87038 0.0
H3530 H 0.10162 0.33113 0.92791 0.0
H3531 H 0.14348 0.33709 0.92316 0.0
H3532 H 0.12421 0.34012 0.83517 0.0
H3533 H 0.13625 0.36466 0.82219 0.0
H3534 H 0.10876 0.36351 0.83395 0.0
H3535 H 0.12412 0.40393 0.86086 0.0
H3536 H 0.15177 0.40537 0.84898 0.0
H3537 H 0.15033 0.40844 0.88002 0.0
H3538 H 0.18172 0.33877 0.90662 0.0
H3539 H 0.21237 0.33604 0.88006 0.0
H3540 H 0.17777 0.37157 0.8339 0.0
C3541 C 0.10248 0.36091 0.88259 0.0
C3542 C 0.09314 0.34846 0.89953 0.0
C3543 C 0.10833 0.34089 0.91491 0.0
C3544 C 0.13219 0.34425 0.91237 0.0
C3545 C 0.14063 0.35554 0.89465 0.0
C3546 C 0.12624 0.36408 0.88024 0.0
C3547 C 0.13868 0.37248 0.86047 0.0
C3548 C 0.12624 0.3594 0.83656 0.0
C3549 C 0.14139 0.39914 0.86273 0.0
C3550 C 0.16184 0.36585 0.86502 0.0
C3551 C 0.16289 0.35664 0.88513 0.0
C3552 C 0.1814 0.3466 0.89124 0.0
C3553 C 0.19883 0.3452 0.87605 0.0
C3554 C 0.19753 0.35363 0.85486 0.0
C3555 C 0.17927 0.36497 0.84994 0.0
H3556 H 0.57399 0.75109 0.92035 0.0
H3557 H 0.64284 0.78279 0.9542 0.0
H3558 H 0.63999 0.75254 0.97858 0.0
H3559 H 0.5495 0.74027 0.97022 0.0
H3560 H 0.53081 0.71253 0.95766 0.0
H3561 H 0.53951 0.73372 0.93961 0.0
H3562 H 0.55613 0.70323 0.91171 0.0
H3563 H 0.54713 0.68176 0.92949 0.0
H3564 H 0.57697 0.68843 0.9233 0.0
H3565 H 0.62806 0.72282 1.00272 0.0
H3566 H 0.60831 0.69366 0.02412 0.0
H3567 H 0.54658 0.68123 0.9757 0.0
C3568 C 0.58875 0.75101 0.93226 0.0
C3569 C 0.60877 0.76898 0.93525 0.0
C3570 C 0.62745 0.76898 0.95158 0.0
C3571 C 0.626 0.75189 0.96548 0.0
C3572 C 0.6057 0.73494 0.96288 0.0
C3573 C 0.58745 0.73415 0.94655 0.0
C3574 C 0.56676 0.71544 0.94901 0.0
C3575 C 0.5454 0.72614 0.95445 0.0
C3576 C 0.56144 0.69606 0.92707 0.0
C3577 C 0.57601 0.70648 0.96971 0.0
C3578 C 0.59859 0.71783 0.97724 0.0
C3579 C 0.61047 0.71359 0.99684 0.0
C3580 C 0.59902 0.69719 1.00903 0.0
C3581 C 0.5759 0.68523 1.00162 0.0
C3582 C 0.56434 0.68991 0.98161 0.0
H3583 H 0.11087 0.81994 0.69877 0.0
H3584 H 0.05188 0.782 0.72648 0.0
H3585 H 0.07639 0.7817 0.76187 0.0
H3586 H 0.14972 0.78772 0.71587 0.0
H3587 H 0.17448 0.81162 0.72321 0.0
H3588 H 0.1516 0.8129 0.70206 0.0
H3589 H 0.14176 0.85432 0.75683 0.0
H3590 H 0.14631 0.85258 0.72642 0.0
H3591 H 0.16962 0.85115 0.7472 0.0
H3592 H 0.10713 0.78104 0.79164 0.0
H3593 H 0.1434 0.7765 0.81208 0.0
H3594 H 0.18325 0.81416 0.76558 0.0
C3595 C 0.10317 0.81215 0.71263 0.0
C3596 C 0.07939 0.80188 0.7105 0.0
C3597 C 0.06993 0.7908 0.72834 0.0
C3598 C 0.08368 0.79057 0.74851 0.0
C3599 C 0.10698 0.80128 0.75048 0.0
C3600 C 0.11679 0.81172 0.73301 0.0
C3601 C 0.14288 0.81908 0.73825 0.0
C3602 C 0.15539 0.8071 0.7187 0.0
C3603 C 0.15058 0.84588 0.74241 0.0
C3604 C 0.14616 0.81001 0.76067 0.0
C3605 C 0.12515 0.80041 0.76773 0.0
C3606 C 0.12372 0.78891 0.78663 0.0
C3607 C 0.14434 0.78638 0.79811 0.0
C3608 C 0.16601 0.79524 0.79057 0.0
C3609 C 0.1669 0.80787 0.77213 0.0
H3610 H 0.09624 0.38973 0.45541 0.0
H3611 H 0.14639 0.42169 0.41317 0.0
H3612 H 0.14077 0.46082 0.43136 0.0
H3613 H 0.05726 0.4258 0.45028 0.0
H3614 H 0.04883 0.42805 0.47957 0.0
H3615 H 0.05912 0.4026 0.46616 0.0
H3616 H 0.09111 0.40939 0.50037 0.0
H3617 H 0.08062 0.43461 0.51418 0.0
H3618 H 0.11062 0.43749 0.50843 0.0
H3619 H 0.12638 0.49572 0.4501 0.0
H3620 H 0.10671 0.52503 0.47114 0.0
H3621 H 0.06561 0.47094 0.5016 0.0
C3622 C 0.1067 0.40502 0.45068 0.0
C3623 C 0.12198 0.40268 0.43307 0.0
C3624 C 0.13474 0.42308 0.42675 0.0
C3625 C 0.13163 0.44539 0.43694 0.0
C3626 C 0.1157 0.44704 0.45348 0.0
C3627 C 0.10368 0.42748 0.46061 0.0
C3628 C 0.08641 0.43409 0.4775 0.0
C3629 C 0.06143 0.42191 0.46779 0.0
C3630 C 0.09257 0.42857 0.50155 0.0
C3631 C 0.09027 0.46031 0.47831 0.0
C3632 C 0.10729 0.46736 0.46435 0.0
C3633 C 0.11325 0.49049 0.46135 0.0
C3634 C 0.1018 0.50699 0.47326 0.0
C3635 C 0.08457 0.50034 0.48806 0.0
C3636 C 0.07874 0.47662 0.49051 0.0
H3637 H 0.4297 0.25948 0.16419 0.0
H3638 H 0.49003 0.2869 0.21458 0.0
H3639 H 0.4646 0.29106 0.24617 0.0
H3640 H 0.39369 0.297 0.1905 0.0
H3641 H 0.3675 0.27477 0.18436 0.0
H3642 H 0.39052 0.2735 0.16562 0.0
H3643 H 0.39166 0.23144 0.1721 0.0
H3644 H 0.36869 0.23265 0.19095 0.0
H3645 H 0.39571 0.22625 0.20138 0.0
H3646 H 0.43264 0.29429 0.27227 0.0
H3647 H 0.396 0.29516 0.29077 0.0
H3648 H 0.35699 0.26416 0.22373 0.0
C3649 C 0.43755 0.26632 0.18186 0.0
C3650 C 0.46187 0.27283 0.18682 0.0
C3651 C 0.47144 0.28165 0.21026 0.0
C3652 C 0.45716 0.28412 0.2284 0.0
C3653 C 0.4333 0.27755 0.22293 0.0
C3654 C 0.42354 0.26873 0.20027 0.0
C3655 C 0.39736 0.26314 0.19916 0.0
C3656 C 0.38665 0.27799 0.18402 0.0
C3657 C 0.3878 0.2368 0.19038 0.0
C3658 C 0.39402 0.27041 0.22465 0.0
C3659 C 0.41492 0.27875 0.2381 0.0
C3660 C 0.41611 0.28755 0.26198 0.0
C3661 C 0.39528 0.28799 0.27234 0.0
C3662 C 0.37369 0.27947 0.2588 0.0
C3663 C 0.3732 0.27038 0.23471 0.0
H3664 H 0.68035 0.56059 0.37713 0.0
H3665 H 0.63087 0.5087 0.32805 0.0
H3666 H 0.60391 0.50583 0.35884 0.0
H3667 H 0.66783 0.53784 0.43108 0.0
H3668 H 0.67027 0.56652 0.44886 0.0
H3669 H 0.68584 0.56304 0.42334 0.0
H3670 H 0.66648 0.5943 0.40873 0.0
H3671 H 0.65048 0.59684 0.43407 0.0
H3672 H 0.63528 0.58982 0.40529 0.0
H3673 H 0.58125 0.50692 0.39855 0.0
H3674 H 0.5659 0.51458 0.43693 0.0
H3675 H 0.62656 0.56922 0.46172 0.0
C3676 C 0.66385 0.5485 0.37256 0.0
C3677 C 0.65876 0.53463 0.34884 0.0
C3678 C 0.63627 0.51964 0.34508 0.0
C3679 C 0.6205 0.51785 0.36297 0.0
C3680 C 0.62613 0.53153 0.38574 0.0
C3681 C 0.6473 0.54702 0.39039 0.0
C3682 C 0.64854 0.56075 0.41601 0.0
C3683 C 0.66938 0.55679 0.43069 0.0
C3684 C 0.65032 0.587 0.41603 0.0
C3685 C 0.62528 0.55038 0.4254 0.0
C3686 C 0.61273 0.53329 0.40751 0.0
C3687 C 0.59122 0.52058 0.41213 0.0
C3688 C 0.58238 0.52516 0.43458 0.0
C3689 C 0.59397 0.54293 0.4537 0.0
C3690 C 0.61619 0.5557 0.44828 0.0
H3691 H 0.32169 0.94374 0.08341 0.0
H3692 H 0.26089 0.8981 0.04322 0.0
H3693 H 0.25969 0.87137 0.07127 0.0
H3694 H 0.34874 0.89897 0.09497 0.0
H3695 H 0.3609 0.9128 0.12418 0.0
H3696 H 0.35511 0.93048 0.10327 0.0
H3697 H 0.32948 0.95083 0.13122 0.0
H3698 H 0.33535 0.93333 0.15235 0.0
H3699 H 0.30582 0.93326 0.14236 0.0
H3700 H 0.26719 0.84752 0.10075 0.0
H3701 H 0.28275 0.82805 0.13037 0.0
H3702 H 0.33954 0.88804 0.15151 0.0
C3703 C 0.3077 0.92852 0.08103 0.0
C3704 C 0.29115 0.92312 0.06134 0.0
C3705 C 0.2736 0.90263 0.05829 0.0
C3706 C 0.27276 0.88736 0.07415 0.0
C3707 C 0.28969 0.89271 0.09298 0.0
C3708 C 0.3068 0.91283 0.09663 0.0
C3709 C 0.32408 0.91322 0.11711 0.0
C3710 C 0.34866 0.9139 0.10941 0.0
C3711 C 0.32365 0.93389 0.13694 0.0
C3712 C 0.31431 0.88995 0.12395 0.0
C3713 C 0.29432 0.87858 0.10992 0.0
C3714 C 0.28271 0.85634 0.11199 0.0
C3715 C 0.2918 0.84533 0.12874 0.0
C3716 C 0.31241 0.85644 0.14321 0.0
C3717 C 0.32361 0.87922 0.14091 0.0
H3718 H 0.99003 0.53677 0.8901 0.0
H3719 H 0.95406 0.59301 0.91283 0.0
H3720 H 0.98247 0.60742 0.94739 0.0
H3721 H 0.9977 0.52272 0.94326 0.0
H3722 H 0.02585 0.51546 0.94031 0.0
H3723 H 1.00644 0.51303 0.91479 0.0
H3724 H 0.03803 0.54069 0.89812 0.0
H3725 H 0.05751 0.54329 0.92384 0.0
H3726 H 0.05082 0.56922 0.91508 0.0
H3727 H 1.00906 0.61116 0.9823 0.0
H3728 H 0.02989 0.60202 0.01626 0.0
H3729 H 0.04953 0.54378 0.97181 0.0
C3730 C 0.98872 0.55262 0.90195 0.0
C3731 C 0.97009 0.56399 0.89873 0.0
C3732 C 0.9683 0.58414 0.91498 0.0
C3733 C 0.9845 0.59258 0.93453 0.0
C3734 C 1.00237 0.58067 0.93758 0.0
C3735 C 1.00458 0.56106 0.92177 0.0
C3736 C 0.02291 0.54924 0.931 0.0
C3737 C 1.01259 0.52362 0.93243 0.0
C3738 C 0.04354 0.55071 0.91612 0.0
C3739 C 0.02968 0.56445 0.955 0.0
C3740 C 0.0181 0.58289 0.95816 0.0
C3741 C 0.01884 0.59732 0.97986 0.0
C3742 C 0.03077 0.5921 0.99903 0.0
C3743 C 0.04183 0.57273 0.9963 0.0
C3744 C 0.04213 0.55936 0.97395 0.0
H3745 H 0.30883 0.21567 0.59859 0.0
H3746 H 0.28254 0.27209 0.57492 0.0
H3747 H 0.28379 0.29236 0.6159 0.0
H3748 H 0.28046 0.21493 0.6508 0.0
H3749 H 0.30486 0.21047 0.66829 0.0
H3750 H 0.30165 0.20011 0.63721 0.0
H3751 H 0.34262 0.22382 0.63422 0.0
H3752 H 0.34601 0.23419 0.66532 0.0
H3753 H 0.34955 0.25485 0.6459 0.0
H3754 H 0.28464 0.30484 0.65994 0.0
H3755 H 0.2903 0.31156 0.70299 0.0
H3756 H 0.3208 0.24997 0.69894 0.0
C3757 C 0.30345 0.23236 0.60208 0.0
C3758 C 0.29538 0.24222 0.58343 0.0
C3759 C 0.2888 0.26421 0.58879 0.0
C3760 C 0.28937 0.27581 0.61208 0.0
C3761 C 0.29722 0.26561 0.63006 0.0
C3762 C 0.30471 0.24465 0.62533 0.0
C3763 C 0.31343 0.23812 0.64793 0.0
C3764 C 0.29925 0.2145 0.65125 0.0
C3765 C 0.33945 0.23772 0.64836 0.0
C3766 C 0.30905 0.25829 0.66611 0.0
C3767 C 0.29941 0.27378 0.65537 0.0
C3768 C 0.29255 0.29302 0.66844 0.0
C3769 C 0.29575 0.29666 0.69297 0.0
C3770 C 0.30622 0.28152 0.70451 0.0
C3771 C 0.31307 0.26211 0.69073 0.0
H3772 H 0.62894 0.502 0.19614 0.0
H3773 H 0.68234 0.56513 0.20747 0.0
H3774 H 0.66658 0.5753 0.17143 0.0
H3775 H 0.6309 0.48972 0.13112 0.0
H3776 H 0.60022 0.47814 0.12455 0.0
H3777 H 0.61471 0.47575 0.1518 0.0
H3778 H 0.58578 0.49652 0.17424 0.0
H3779 H 0.57127 0.499 0.14704 0.0
H3780 H 0.58211 0.52483 0.16906 0.0
H3781 H 0.64257 0.58092 0.13351 0.0
H3782 H 0.61781 0.5784 0.0972 0.0
H3783 H 0.58152 0.50949 0.10412 0.0
C3784 C 0.63749 0.518 0.19115 0.0
C3785 C 0.65748 0.53273 0.20601 0.0
C3786 C 0.66744 0.5532 0.19748 0.0
C3787 C 0.65834 0.55928 0.17662 0.0
C3788 C 0.63897 0.5447 0.16269 0.0
C3789 C 0.62893 0.52406 0.16937 0.0
C3790 C 0.60897 0.51097 0.15016 0.0
C3791 C 0.61399 0.48722 0.13874 0.0
C3792 C 0.58564 0.50762 0.16076 0.0
C3793 C 0.6091 0.52746 0.13202 0.0
C3794 C 0.62643 0.54705 0.14003 0.0
C3795 C 0.62931 0.56535 0.12726 0.0
C3796 C 0.61481 0.56378 0.10624 0.0
C3797 C 0.59716 0.5438 0.09645 0.0
C3798 C 0.59466 0.52521 0.1101 0.0
H3799 H 0.28964 0.90398 0.9463 0.0
H3800 H 0.30658 0.96632 0.91596 0.0
H3801 H 0.31319 0.9418 0.8793 0.0
H3802 H 0.33113 0.87385 0.92055 0.0
H3803 H 0.31267 0.84512 0.91495 0.0
H3804 H 0.30806 0.86714 0.93868 0.0
H3805 H 0.26547 0.86231 0.92189 0.0
H3806 H 0.26985 0.84006 0.89824 0.0
H3807 H 0.25933 0.86529 0.89212 0.0
H3808 H 0.32159 0.9112 0.8471 0.0
H3809 H 0.32648 0.87646 0.81968 0.0
H3810 H 0.30178 0.83226 0.86867 0.0
C3811 C 0.29438 0.91252 0.93185 0.0
C3812 C 0.29759 0.93738 0.93434 0.0
C3813 C 0.30391 0.94752 0.9148 0.0
C3814 C 0.30783 0.93367 0.89382 0.0
C3815 C 0.30511 0.90945 0.89224 0.0
C3816 C 0.29808 0.89884 0.91055 0.0
C3817 C 0.29637 0.87235 0.90407 0.0
C3818 C 0.31305 0.86414 0.92055 0.0
C3819 C 0.27126 0.85923 0.90408 0.0
C3820 C 0.30395 0.86977 0.87941 0.0
C3821 C 0.30907 0.89153 0.87315 0.0
C3822 C 0.31737 0.8941 0.85178 0.0
C3823 C 0.32027 0.87408 0.83631 0.0
C3824 C 0.31466 0.8513 0.84177 0.0
C3825 C 0.30627 0.84925 0.86378 0.0
H3826 H 0.989 0.5378 0.77496 0.0
H3827 H 0.91927 0.49777 0.75262 0.0
H3828 H 0.92983 0.48925 0.71219 0.0
H3829 H 0.99602 0.56397 0.72428 0.0
H3830 H 0.02633 0.56284 0.72392 0.0
H3831 H 1.01336 0.56525 0.7511 0.0
H3832 H 0.02709 0.52797 0.75903 0.0
H3833 H 0.0401 0.52543 0.73186 0.0
H3834 H 0.01913 0.50121 0.73764 0.0
H3835 H 0.94835 0.48462 0.67437 0.0
H3836 H 0.97286 0.48606 0.64154 0.0
H3837 H 0.02991 0.5301 0.68875 0.0
C3838 C 0.97597 0.52718 0.76159 0.0
C3839 C 0.95336 0.51833 0.76688 0.0
C3840 C 0.9367 0.50471 0.74888 0.0
C3841 C 0.94255 0.49974 0.72591 0.0
C3842 C 0.96504 0.5087 0.72129 0.0
C3843 C 0.98143 0.52227 0.73859 0.0
C3844 C 1.00419 0.53029 0.72898 0.0
C3845 C 1.01032 0.55718 0.73226 0.0
C3846 C 0.02378 0.52064 0.74004 0.0
C3847 C 0.99809 0.51905 0.70357 0.0
C3848 C 0.97549 0.50654 0.69948 0.0
C3849 C 0.96606 0.4944 0.67734 0.0
C3850 C 0.9801 0.49522 0.65886 0.0
C3851 C 1.00319 0.50824 0.66268 0.0
C3852 C 1.01223 0.52023 0.68534 0.0
H3853 H 0.28728 0.24647 0.45068 0.0
H3854 H 0.31699 0.18463 0.43243 0.0
H3855 H 0.32598 0.19552 0.39504 0.0
H3856 H 0.26121 0.24491 0.39273 0.0
H3857 H 0.26762 0.27617 0.3942 0.0
H3858 H 0.26399 0.2645 0.42051 0.0
H3859 H 0.30451 0.28843 0.43811 0.0
H3860 H 0.30816 0.30012 0.4118 0.0
H3861 H 0.32944 0.28523 0.42239 0.0
H3862 H 0.32966 0.21066 0.35812 0.0
H3863 H 0.33002 0.23099 0.32481 0.0
H3864 H 0.2998 0.2848 0.36486 0.0
C3865 C 0.29605 0.23548 0.439 0.0
C3866 C 0.30132 0.21449 0.44496 0.0
C3867 C 0.31252 0.20062 0.42868 0.0
C3868 C 0.31778 0.20668 0.40718 0.0
C3869 C 0.31199 0.22693 0.40163 0.0
C3870 C 0.30156 0.24135 0.41703 0.0
C3871 C 0.29702 0.26196 0.40598 0.0
C3872 C 0.27091 0.26187 0.4032 0.0
C3873 C 0.31059 0.28533 0.42043 0.0
C3874 C 0.30638 0.25665 0.38214 0.0
C3875 C 0.3148 0.23621 0.38014 0.0
C3876 C 0.3234 0.22687 0.35963 0.0
C3877 C 0.32351 0.23859 0.34067 0.0
C3878 C 0.3153 0.25978 0.34201 0.0
C3879 C 0.30669 0.26894 0.36326 0.0
H3880 H 0.4073 0.62441 0.55657 0.0
H3881 H 0.36422 0.56332 0.51132 0.0
H3882 H 0.39851 0.5477 0.50196 0.0
H3883 H 0.45614 0.62917 0.52062 0.0
H3884 H 0.47864 0.63659 0.54449 0.0
H3885 H 0.45072 0.64404 0.54876 0.0
H3886 H 0.44667 0.62156 0.58287 0.0
H3887 H 0.47463 0.61416 0.57875 0.0
H3888 H 0.4495 0.59132 0.57817 0.0
H3889 H 0.43713 0.53753 0.49562 0.0
H3890 H 0.4777 0.53312 0.49462 0.0
H3891 H 0.49957 0.59896 0.54372 0.0
C3892 C 0.40501 0.60769 0.54483 0.0
C3893 C 0.38214 0.59556 0.53472 0.0
C3894 C 0.3808 0.57363 0.51941 0.0
C3895 C 0.40049 0.56431 0.51383 0.0
C3896 C 0.42238 0.57663 0.52357 0.0
C3897 C 0.42499 0.59776 0.53893 0.0
C3898 C 0.4511 0.60682 0.54678 0.0
C3899 C 0.45966 0.63058 0.53975 0.0
C3900 C 0.45575 0.60858 0.57322 0.0
C3901 C 0.4624 0.58765 0.53325 0.0
C3902 C 0.44522 0.57047 0.52002 0.0
C3903 C 0.4507 0.55092 0.50598 0.0
C3904 C 0.47408 0.54857 0.50548 0.0
C3905 C 0.49252 0.56556 0.51886 0.0
C3906 C 0.48628 0.58555 0.53297 0.0
H3907 H 0.90153 0.95187 0.57331 0.0
H3908 H 0.90444 0.89373 0.51787 0.0
H3909 H 0.94223 0.91472 0.50908 0.0
H3910 H 0.93453 1.00413 0.5525 0.0
H3911 H 0.94763 1.0144 0.58158 0.0
H3912 H 0.91946 0.99523 0.57656 0.0
H3913 H 0.94244 0.97166 0.60272 0.0
H3914 H 0.97011 0.98997 0.60064 0.0
H3915 H 0.96534 0.95881 0.59018 0.0
H3916 H 0.97696 0.94253 0.50362 0.0
H3917 H 1.01051 0.97378 0.50431 0.0
H3918 H 0.9897 1.01422 0.56612 0.0
C3919 C 0.91011 0.94386 0.55914 0.0
C3920 C 0.89961 0.9216 0.54542 0.0
C3921 C 0.91188 0.91096 0.52803 0.0
C3922 C 0.93335 0.92276 0.52296 0.0
C3923 C 0.94297 0.94484 0.53621 0.0
C3924 C 0.93224 0.95514 0.55441 0.0
C3925 C 0.94827 0.97777 0.56749 0.0
C3926 C 0.93663 0.99905 0.56966 0.0
C3927 C 0.95706 0.97434 0.59169 0.0
C3928 C 0.96803 0.98001 0.55179 0.0
C3929 C 0.96468 0.96032 0.53433 0.0
C3930 C 0.97992 0.9579 0.51734 0.0
C3931 C 0.99906 0.976 0.51795 0.0
C3932 C 1.00312 0.99677 0.53532 0.0
C3933 C 0.98724 0.99872 0.55259 0.0
H3934 H 0.87389 0.12529 0.29968 0.0
H3935 H 0.93462 0.14327 0.26346 0.0
H3936 H 0.92415 0.18162 0.26138 0.0
H3937 H 0.83542 0.1543 0.26644 0.0
H3938 H 0.82043 0.16424 0.29101 0.0
H3939 H 0.83271 0.13842 0.2901 0.0
H3940 H 0.85599 0.15663 0.32973 0.0
H3941 H 0.8438 0.18251 0.33073 0.0
H3942 H 0.87483 0.18505 0.33341 0.0
H3943 H 0.90575 0.2225 0.26387 0.0
H3944 H 0.88381 0.2544 0.2687 0.0
H3945 H 0.83259 0.21246 0.30227 0.0
C3946 C 0.88531 0.13713 0.29125 0.0
C3947 C 0.90593 0.12943 0.28186 0.0
C3948 C 0.91911 0.14694 0.27106 0.0
C3949 C 0.91305 0.1695 0.2698 0.0
C3950 C 0.89301 0.17622 0.27916 0.0
C3951 C 0.8792 0.16013 0.28963 0.0
C3952 C 0.85824 0.17148 0.29798 0.0
C3953 C 0.83533 0.15619 0.28567 0.0
C3954 C 0.85819 0.17405 0.32454 0.0
C3955 C 0.86214 0.19634 0.29091 0.0
C3956 C 0.88254 0.19864 0.2801 0.0
C3957 C 0.88989 0.22005 0.27233 0.0
C3958 C 0.87689 0.23877 0.27529 0.0
C3959 C 0.85552 0.23786 0.28607 0.0
C3960 C 0.84848 0.21534 0.29392 0.0
H3961 H 0.74966 0.08221 0.06685 0.0
H3962 H 0.75853 0.12574 1.01447 0.0
H3963 H 0.71617 0.11721 1.00439 0.0
H3964 H 0.69742 0.03786 0.03572 0.0
H3965 H 0.68415 0.03584 0.0624 0.0
H3966 H 0.71532 0.04278 0.06297 0.0
H3967 H 0.71556 0.08021 0.09377 0.0
H3968 H 0.68435 0.07352 0.09224 0.0
H3969 H 0.69916 0.10134 0.08679 0.0
H3970 H 0.67244 0.10572 1.00078 0.0
H3971 H 0.63089 0.09276 1.00413 0.0
H3972 H 0.64756 0.05744 0.06016 0.0
C3973 C 0.7427 0.08916 0.05264 0.0
C3974 C 0.75793 0.10374 0.04055 0.0
C3975 C 0.74766 0.11377 0.02328 0.0
C3976 C 0.72344 0.10912 0.01753 0.0
C3977 C 0.70899 0.09481 0.02962 0.0
C3978 C 0.71816 0.08493 0.04686 0.0
C3979 C 0.69827 0.07169 0.05826 0.0
C3980 C 0.69885 0.04548 0.05463 0.0
C3981 C 0.69941 0.08233 0.08432 0.0
C3982 C 0.67667 0.07571 0.04479 0.0
C3983 C 0.68347 0.08902 0.02826 0.0
C3984 C 0.66703 0.09526 1.01367 0.0
C3985 C 0.64321 0.08776 1.0158 0.0
C3986 C 0.63528 0.07402 0.0325 0.0
C3987 C 0.6526 0.06797 0.04722 0.0
H3988 H 0.25889 0.52944 0.29969 0.0
H3989 H 0.19152 0.49048 0.2669 0.0
H3990 H 0.20133 0.45413 0.27648 0.0
H3991 H 0.29011 0.4886 0.27774 0.0
H3992 H 0.31031 0.49348 0.30332 0.0
H3993 H 0.2966 0.51671 0.29714 0.0
H3994 H 0.28101 0.52073 0.33785 0.0
H3995 H 0.29478 0.49752 0.34424 0.0
H3996 H 0.26411 0.49538 0.34639 0.0
H3997 H 0.22048 0.4216 0.28541 0.0
H3998 H 0.24721 0.3956 0.29293 0.0
H3999 H 0.30192 0.45634 0.31933 0.0
C4000 C 0.2459 0.51341 0.29488 0.0
C4001 C 0.22439 0.51284 0.28254 0.0
C4002 C 0.20806 0.49138 0.27647 0.0
C4003 C 0.21347 0.47067 0.28187 0.0
C4004 C 0.23514 0.47184 0.29352 0.0
C4005 C 0.251 0.49273 0.30008 0.0
C4006 C 0.27383 0.48917 0.31057 0.0
C4007 C 0.29388 0.49747 0.29634 0.0
C4008 C 0.27871 0.50143 0.33629 0.0
C4009 C 0.26867 0.46285 0.3082 0.0
C4010 C 0.24617 0.45317 0.29861 0.0
C4011 C 0.238 0.42902 0.29323 0.0
C4012 C 0.25333 0.41442 0.29741 0.0
C4013 C 0.27657 0.42405 0.30674 0.0
C4014 C 0.28412 0.44856 0.31262 0.0
H4015 H 0.27279 0.4211 1.01359 0.0
H4016 H 0.26948 0.39261 0.07699 0.0
H4017 H 0.23251 0.40607 0.08354 0.0
H4018 H 0.25546 0.47222 0.03504 0.0
H4019 H 0.23892 0.47372 1.00862 0.0
H4020 H 0.26276 0.45869 1.00713 0.0
H4021 H 0.23571 0.42082 0.98419 0.0
H4022 H 0.21179 0.43584 0.98518 0.0
H4023 H 0.20952 0.40887 0.996 0.0
H4024 H 0.19814 0.42766 0.08523 0.0
H4025 H 0.1694 0.45256 0.08086 0.0
H4026 H 0.1961 0.46622 0.01604 0.0
C4027 C 0.26401 0.41708 0.02857 0.0
C4028 C 0.27399 0.40566 0.04473 0.0
C4029 C 0.262 0.40097 0.06418 0.0
C4030 C 0.24108 0.40874 0.0681 0.0
C4031 C 0.2323 0.4209 0.05226 0.0
C4032 C 0.2433 0.42465 0.03267 0.0
C4033 C 0.2315 0.4394 0.01899 0.0
C4034 C 0.24815 0.46236 0.01736 0.0
C4035 C 0.22153 0.42539 0.99465 0.0
C4036 C 0.2124 0.44402 0.03419 0.0
C4037 C 0.21293 0.43313 0.05324 0.0
C4038 C 0.19744 0.43592 0.07016 0.0
C4039 C 0.1811 0.4501 0.0675 0.0
C4040 C 0.18038 0.46151 0.04811 0.0
C4041 C 0.19624 0.4581 0.03124 0.0
H4042 H 0.87291 0.98715 0.25812 0.0
H4043 H 0.93791 0.99369 0.29963 0.0
H4044 H 0.92564 0.95312 0.30571 0.0
H4045 H 0.83428 0.94619 0.29006 0.0
H4046 H 0.8183 0.92961 0.26342 0.0
H4047 H 0.8316 0.95995 0.26495 0.0
H4048 H 0.85229 0.94608 0.2286 0.0
H4049 H 0.83983 0.91586 0.22894 0.0
H4050 H 0.87085 0.92533 0.23029 0.0
H4051 H 0.90647 0.90876 0.3069 0.0
H4052 H 0.88342 0.86871 0.30347 0.0
H4053 H 0.82908 0.88672 0.26126 0.0
C4054 C 0.88447 0.9804 0.26902 0.0
C4055 C 0.90671 0.99543 0.27906 0.0
C4056 C 0.92088 0.98406 0.29204 0.0
C4057 C 0.91391 0.96044 0.29559 0.0
C4058 C 0.89233 0.94645 0.28572 0.0
C4059 C 0.87771 0.95606 0.27257 0.0
C4060 C 0.85598 0.93624 0.26281 0.0
C4061 C 0.83371 0.94351 0.27078 0.0
C4062 C 0.85464 0.93055 0.23607 0.0
C4063 C 0.86013 0.91461 0.27324 0.0
C4064 C 0.88153 0.92101 0.28614 0.0
C4065 C 0.88968 0.90411 0.2969 0.0
C4066 C 0.87614 0.88082 0.2948 0.0
C4067 C 0.85363 0.87307 0.28229 0.0
C4068 C 0.84582 0.89101 0.27132 0.0
H4069 H 0.70233 0.14815 0.75625 0.0
H4070 H 0.74496 0.11112 0.71199 0.0
H4071 H 0.76515 0.14859 0.70277 0.0
H4072 H 0.70353 0.19592 0.71569 0.0
H4073 H 0.70154 0.21786 0.74061 0.0
H4074 H 0.68636 0.188 0.73861 0.0
H4075 H 0.70697 0.18629 0.77885 0.0
H4076 H 0.72025 0.21645 0.78057 0.0
H4077 H 0.73804 0.19556 0.78359 0.0
H4078 H 0.78765 0.18934 0.70831 0.0
H4079 H 0.80793 0.23008 0.72491 0.0
H4080 H 0.74933 0.24089 0.76345 0.0
C4081 C 0.71558 0.14809 0.74421 0.0
C4082 C 0.72322 0.12731 0.73578 0.0
C4083 C 0.73986 0.12728 0.71944 0.0
C4084 C 0.75102 0.14836 0.71376 0.0
C4085 C 0.74451 0.16902 0.72387 0.0
C4086 C 0.7265 0.16896 0.73803 0.0
C4087 C 0.72382 0.19368 0.74768 0.0
C4088 C 0.70256 0.19918 0.73488 0.0
C4089 C 0.72221 0.19817 0.77422 0.0
C4090 C 0.74597 0.20727 0.74088 0.0
C4091 C 0.75687 0.19294 0.72583 0.0
C4092 C 0.77891 0.20096 0.71932 0.0
C4093 C 0.79037 0.22398 0.72888 0.0
C4094 C 0.77985 0.23828 0.74508 0.0
C4095 C 0.75727 0.23014 0.75064 0.0
loop_
_geom_bond_atom_site_label_1
_geom_bond_atom_site_label_2
_geom_bond_distance
_geom_bond_site_symmetry_2
_ccdc_geom_bond_type
Mn0 O5 2.095 . S
Mn0 O15 2.162 . S
Mn0 O16 2.297 . S
Mn0 O24 2.385 . S
Mn0 O25 2.209 . S
Mn0 O26 2.094 . S
Mn1 O6 2.121 . S
Mn1 N8 2.257 . S
Mn1 N17 2.282 . S
Mn1 O25 2.215 . S
Mn1 O27 2.117 . S
C2 O24 1.234 . S
C2 O25 1.283 . S
C3 O15 1.281 . S
C3 O16 1.236 . S
C4 O26 1.240 . S
C4 O27 1.264 . S
O5 Mn0 2.095 . S
O5 C14 1.250 . S
O6 Mn1 2.121 . S
O6 C14 1.258 . S
C7 N8 1.326 . S
C7 C11 1.460 . S
C7 H13 0.929 . S
N8 Mn1 2.257 . S
N8 C7 1.326 . S
N8 C12 1.362 . S
C9 C10 1.258 . S
C9 C12 1.431 . S
C9 C29 1.449 . S
C10 C9 1.258 . S
C10 C11 1.477 . S
C10 H30 0.931 . S
C11 C7 1.460 . S
C11 C10 1.477 . S
C11 H31 0.930 . S
C12 N8 1.362 . S
C12 C9 1.431 . S
C12 C22 1.476 . S
H13 C7 0.929 . S
C14 O5 1.250 . S
C14 O6 1.258 . S
O15 Mn0 2.162 . S
O15 C3 1.281 . S
O16 Mn0 2.297 . S
O16 C3 1.236 . S
N17 Mn1 2.282 . S
N17 C18 1.328 . S
N17 C22 1.318 . S
C18 N17 1.328 . S
C18 C19 1.457 . S
C18 H23 0.929 . S
C19 C18 1.457 . S
C19 C20 1.291 . S
C19 H32 0.931 . S
C20 C19 1.291 . S
C20 C21 1.373 . S
C20 H33 0.929 . S
C21 C20 1.373 . S
C21 C22 1.396 . S
C21 C28 1.403 . S
C22 C12 1.476 . S
C22 N17 1.318 . S
C22 C21 1.396 . S
H23 C18 0.929 . S
O24 Mn0 2.385 . S
O24 C2 1.234 . S
O25 Mn0 2.209 . S
O25 Mn1 2.215 . S
O25 C2 1.283 . S
O26 Mn0 2.094 . S
O26 C4 1.240 . S
O27 Mn1 2.117 . S
O27 C4 1.264 . S
C28 C21 1.403 . S
C28 C29 1.399 . S
C28 H34 0.929 . S
C29 C9 1.449 . S
C29 C28 1.399 . S
C29 H35 0.930 . S
H30 C10 0.931 . S
H31 C11 0.930 . S
H32 C19 0.931 . S
H33 C20 0.929 . S
H34 C28 0.929 . S
H35 C29 0.930 . S
Mn36 O41 2.074 1_455 S
Mn36 O51 2.163 1_455 S
Mn36 O52 2.299 1_455 S
Mn36 O60 2.407 . S
Mn36 O61 2.218 . S
Mn36 O62 2.092 . S
Mn37 O42 2.121 1_455 S
Mn37 N44 2.257 . S
Mn37 N53 2.282 . S
Mn37 O61 2.215 . S
Mn37 O63 2.117 . S
C38 O60 1.234 . S
C38 O61 1.283 . S
C39 O51 1.281 . S
C39 O52 1.236 . S
C40 O62 1.240 . S
C40 O63 1.264 . S
O41 Mn36 2.074 1_655 S
O41 C50 1.250 . S
O42 Mn37 2.121 1_655 S
O42 C50 1.258 . S
C43 N44 1.326 . S
C43 C47 1.460 . S
C43 H49 0.929 1_455 S
N44 Mn37 2.257 . S
N44 C43 1.326 . S
N44 C48 1.362 . S
C45 C46 1.258 . S
C45 C48 1.431 . S
C45 C65 1.449 . S
C46 C45 1.258 . S
C46 C47 1.477 . S
C46 H66 0.931 . S
C47 C43 1.460 . S
C47 C46 1.477 . S
C47 H67 0.930 . S
C48 N44 1.362 . S
C48 C45 1.431 . S
C48 C58 1.476 . S
H49 C43 0.929 1_655 S
C50 O41 1.250 . S
C50 O42 1.258 . S
O51 Mn36 2.163 1_655 S
O51 C39 1.281 . S
O52 Mn36 2.299 1_655 S
O52 C39 1.236 . S
N53 Mn37 2.282 . S
N53 C54 1.328 . S
N53 C58 1.318 . S
C54 N53 1.328 . S
C54 C55 1.457 . S
C54 H59 0.929 . S
C55 C54 1.457 . S
C55 C56 1.291 . S
C55 H68 0.931 . S
C56 C55 1.291 . S
C56 C57 1.373 . S
C56 H69 0.929 . S
C57 C56 1.373 . S
C57 C58 1.396 . S
C57 C64 1.403 . S
C58 C48 1.476 . S
C58 N53 1.318 . S
C58 C57 1.396 . S
H59 C54 0.929 . S
O60 Mn36 2.407 . S
O60 C38 1.234 . S
O61 Mn36 2.218 . S
O61 Mn37 2.215 . S
O61 C38 1.283 . S
O62 Mn36 2.092 . S
O62 C40 1.240 . S
O63 Mn37 2.117 . S
O63 C40 1.264 . S
C64 C57 1.403 . S
C64 C65 1.399 . S
C64 H70 0.929 . S
C65 C45 1.449 . S
C65 C64 1.399 . S
C65 H71 0.930 . S
H66 C46 0.931 . S
H67 C47 0.930 . S
H68 C55 0.931 . S
H69 C56 0.929 . S
H70 C64 0.929 . S
H71 C65 0.930 . S
Mn72 O77 2.095 . S
Mn72 O87 2.162 . S
Mn72 O88 2.297 . S
Mn72 O96 2.385 . S
Mn72 O97 2.209 . S
Mn72 O98 2.094 . S
Mn73 O78 2.121 . S
Mn73 N80 2.257 . S
Mn73 N89 2.282 . S
Mn73 O97 2.215 . S
Mn73 O99 2.117 . S
C74 O96 1.234 . S
C74 O97 1.283 . S
C75 O87 1.281 . S
C75 O88 1.236 . S
C76 O98 1.240 . S
C76 O99 1.264 . S
O77 Mn72 2.095 . S
O77 C86 1.250 . S
O78 Mn73 2.121 . S
O78 C86 1.258 . S
C79 N80 1.326 . S
C79 C83 1.460 . S
C79 H85 0.929 . S
N80 Mn73 2.257 . S
N80 C79 1.326 . S
N80 C84 1.362 . S
C81 C82 1.258 . S
C81 C84 1.431 . S
C81 C101 1.449 . S
C82 C81 1.258 . S
C82 C83 1.477 . S
C82 H102 0.931 . S
C83 C79 1.460 . S
C83 C82 1.477 . S
C83 H103 0.930 . S
C84 N80 1.362 . S
C84 C81 1.431 . S
C84 C94 1.476 . S
H85 C79 0.929 . S
C86 O77 1.250 . S
C86 O78 1.258 . S
O87 Mn72 2.162 . S
O87 C75 1.281 . S
O88 Mn72 2.297 . S
O88 C75 1.236 . S
N89 Mn73 2.282 . S
N89 C90 1.328 . S
N89 C94 1.318 . S
C90 N89 1.328 . S
C90 C91 1.457 . S
C90 H95 0.929 . S
C91 C90 1.457 . S
C91 C92 1.291 . S
C91 H104 0.931 . S
C92 C91 1.291 . S
C92 C93 1.373 . S
C92 H105 0.929 . S
C93 C92 1.373 . S
C93 C94 1.396 . S
C93 C100 1.403 . S
C94 C84 1.476 . S
C94 N89 1.318 . S
C94 C93 1.396 . S
H95 C90 0.929 . S
O96 Mn72 2.385 . S
O96 C74 1.234 . S
O97 Mn72 2.209 . S
O97 Mn73 2.215 . S
O97 C74 1.283 . S
O98 Mn72 2.094 . S
O98 C76 1.240 . S
O99 Mn73 2.117 . S
O99 C76 1.264 . S
C100 C93 1.403 . S
C100 C101 1.399 . S
C100 H106 0.929 . S
C101 C81 1.449 . S
C101 C100 1.399 . S
C101 H107 0.930 . S
H102 C82 0.931 . S
H103 C83 0.930 . S
H104 C91 0.931 . S
H105 C92 0.929 . S
H106 C100 0.929 . S
H107 C101 0.930 . S
Mn108 O113 2.095 . S
Mn108 O123 2.162 . S
Mn108 O124 2.297 . S
Mn108 O132 2.385 . S
Mn108 O133 2.209 . S
Mn108 O134 2.094 . S
Mn109 O114 2.121 . S
Mn109 N116 2.257 . S
Mn109 N125 2.282 . S
Mn109 O133 2.215 . S
Mn109 O135 2.117 . S
C110 O132 1.234 . S
C110 O133 1.283 . S
C111 O123 1.281 . S
C111 O124 1.236 . S
C112 O134 1.240 . S
C112 O135 1.264 . S
O113 Mn108 2.095 . S
O113 C122 1.250 . S
O114 Mn109 2.121 . S
O114 C122 1.258 . S
C115 N116 1.326 . S
C115 C119 1.460 . S
C115 H121 0.929 . S
N116 Mn109 2.257 . S
N116 C115 1.326 . S
N116 C120 1.362 . S
C117 C118 1.258 . S
C117 C120 1.431 . S
C117 C137 1.449 . S
C118 C117 1.258 . S
C118 C119 1.477 . S
C118 H138 0.931 . S
C119 C115 1.460 . S
C119 C118 1.477 . S
C119 H139 0.930 . S
C120 N116 1.362 . S
C120 C117 1.431 . S
C120 C130 1.476 . S
H121 C115 0.929 . S
C122 O113 1.250 . S
C122 O114 1.258 . S
O123 Mn108 2.162 . S
O123 C111 1.281 . S
O124 Mn108 2.297 . S
O124 C111 1.236 . S
N125 Mn109 2.282 . S
N125 C126 1.328 . S
N125 C130 1.318 . S
C126 N125 1.328 . S
C126 C127 1.457 . S
C126 H131 0.929 . S
C127 C126 1.457 . S
C127 C128 1.291 . S
C127 H140 0.931 . S
C128 C127 1.291 . S
C128 C129 1.373 . S
C128 H141 0.929 . S
C129 C128 1.373 . S
C129 C130 1.396 . S
C129 C136 1.403 . S
C130 C120 1.476 . S
C130 N125 1.318 . S
C130 C129 1.396 . S
H131 C126 0.929 . S
O132 Mn108 2.385 . S
O132 C110 1.234 . S
O133 Mn108 2.209 . S
O133 Mn109 2.215 . S
O133 C110 1.283 . S
O134 Mn108 2.094 . S
O134 C112 1.240 . S
O135 Mn109 2.117 . S
O135 C112 1.264 . S
C136 C129 1.403 . S
C136 C137 1.399 . S
C136 H142 0.929 . S
C137 C117 1.449 . S
C137 C136 1.399 . S
C137 H143 0.930 . S
H138 C118 0.931 . S
H139 C119 0.930 . S
H140 C127 0.931 . S
H141 C128 0.929 . S
H142 C136 0.929 . S
H143 C137 0.930 . S
Mn144 O149 2.095 . S
Mn144 O159 2.162 . S
Mn144 O160 2.297 . S
Mn144 O168 2.385 . S
Mn144 O169 2.209 . S
Mn144 O170 2.094 . S
Mn145 O150 2.121 . S
Mn145 N152 2.257 . S
Mn145 N161 2.282 . S
Mn145 O169 2.215 . S
Mn145 O171 2.117 . S
C146 O168 1.234 . S
C146 O169 1.283 . S
C147 O159 1.281 . S
C147 O160 1.236 . S
C148 O170 1.240 . S
C148 O171 1.264 . S
O149 Mn144 2.095 . S
O149 C158 1.250 . S
O150 Mn145 2.121 . S
O150 C158 1.258 . S
C151 N152 1.326 . S
C151 C155 1.460 . S
C151 H157 0.929 . S
N152 Mn145 2.257 . S
N152 C151 1.326 . S
N152 C156 1.362 . S
C153 C154 1.258 . S
C153 C156 1.431 . S
C153 C173 1.449 . S
C154 C153 1.258 . S
C154 C155 1.477 . S
C154 H174 0.931 1_554 S
C155 C151 1.460 . S
C155 C154 1.477 . S
C155 H175 0.930 . S
C156 N152 1.362 . S
C156 C153 1.431 . S
C156 C166 1.476 . S
H157 C151 0.929 . S
C158 O149 1.250 . S
C158 O150 1.258 . S
O159 Mn144 2.162 . S
O159 C147 1.281 . S
O160 Mn144 2.297 . S
O160 C147 1.236 . S
N161 Mn145 2.282 . S
N161 C162 1.328 . S
N161 C166 1.318 . S
C162 N161 1.328 . S
C162 C163 1.457 . S
C162 H167 0.929 . S
C163 C162 1.457 . S
C163 C164 1.291 . S
C163 H176 0.931 1_455 S
C164 C163 1.291 . S
C164 C165 1.373 . S
C164 H177 0.929 1_455 S
C165 C164 1.373 . S
C165 C166 1.396 . S
C165 C172 1.403 . S
C166 C156 1.476 . S
C166 N161 1.318 . S
C166 C165 1.396 . S
H167 C162 0.929 . S
O168 Mn144 2.385 . S
O168 C146 1.234 . S
O169 Mn144 2.209 . S
O169 Mn145 2.215 . S
O169 C146 1.283 . S
O170 Mn144 2.094 . S
O170 C148 1.240 . S
O171 Mn145 2.117 . S
O171 C148 1.264 . S
C172 C165 1.403 . S
C172 C173 1.399 . S
C172 H178 0.929 . S
C173 C153 1.449 . S
C173 C172 1.399 . S
C173 H179 0.893 1_554 S
H174 C154 0.931 1_556 S
H175 C155 0.930 . S
H176 C163 0.931 1_655 S
H177 C164 0.929 1_655 S
H178 C172 0.929 . S
H179 C173 0.893 1_556 S
Mn180 O185 2.095 . S
Mn180 O195 2.162 . S
Mn180 O196 2.297 . S
Mn180 O204 2.385 . S
Mn180 O205 2.209 . S
Mn180 O206 2.094 . S
Mn181 O186 2.121 . S
Mn181 N188 2.257 . S
Mn181 N197 2.282 . S
Mn181 O205 2.215 . S
Mn181 O207 2.117 . S
C182 O204 1.234 . S
C182 O205 1.283 . S
C183 O195 1.281 . S
C183 O196 1.236 . S
C184 O206 1.240 . S
C184 O207 1.264 . S
O185 Mn180 2.095 . S
O185 C194 1.250 . S
O186 Mn181 2.121 . S
O186 C194 1.258 . S
C187 N188 1.326 . S
C187 C191 1.460 . S
C187 H193 0.929 . S
N188 Mn181 2.257 . S
N188 C187 1.326 . S
N188 C192 1.362 . S
C189 C190 1.258 . S
C189 C192 1.431 . S
C189 C209 1.449 . S
C190 C189 1.258 . S
C190 C191 1.477 . S
C190 H210 0.931 . S
C191 C187 1.460 . S
C191 C190 1.477 . S
C191 H211 0.930 . S
C192 N188 1.362 . S
C192 C189 1.431 . S
C192 C202 1.476 . S
H193 C187 0.929 . S
C194 O185 1.250 . S
C194 O186 1.258 . S
O195 Mn180 2.162 . S
O195 C183 1.281 . S
O196 Mn180 2.297 . S
O196 C183 1.236 . S
N197 Mn181 2.282 . S
N197 C198 1.328 . S
N197 C202 1.318 . S
C198 N197 1.328 . S
C198 C199 1.457 . S
C198 H203 0.929 . S
C199 C198 1.457 . S
C199 C200 1.291 . S
C199 H212 0.931 . S
C200 C199 1.291 . S
C200 C201 1.373 . S
C200 H213 0.929 . S
C201 C200 1.373 . S
C201 C202 1.396 . S
C201 C208 1.403 . S
C202 C192 1.476 . S
C202 N197 1.318 . S
C202 C201 1.396 . S
H203 C198 0.929 . S
O204 Mn180 2.385 . S
O204 C182 1.234 . S
O205 Mn180 2.209 . S
O205 Mn181 2.215 . S
O205 C182 1.283 . S
O206 Mn180 2.094 . S
O206 C184 1.240 . S
O207 Mn181 2.117 . S
O207 C184 1.264 . S
C208 C201 1.403 . S
C208 C209 1.399 . S
C208 H214 0.929 . S
C209 C189 1.449 . S
C209 C208 1.399 . S
C209 H215 0.930 . S
H210 C190 0.931 . S
H211 C191 0.930 . S
H212 C199 0.931 . S
H213 C200 0.929 . S
H214 C208 0.929 . S
H215 C209 0.930 . S
Mn216 O221 2.095 . S
Mn216 O231 2.162 . S
Mn216 O232 2.297 . S
Mn216 O240 2.385 . S
Mn216 O241 2.209 . S
Mn216 O242 2.094 . S
Mn217 O222 2.121 . S
Mn217 N224 2.257 . S
Mn217 N233 2.282 . S
Mn217 O241 2.215 . S
Mn217 O243 2.117 . S
C218 O240 1.234 . S
C218 O241 1.283 . S
C219 O231 1.281 . S
C219 O232 1.236 . S
C220 O242 1.240 . S
C220 O243 1.264 . S
O221 Mn216 2.095 . S
O221 C230 1.250 . S
O222 Mn217 2.121 . S
O222 C230 1.258 . S
C223 N224 1.326 . S
C223 C227 1.460 . S
C223 H229 0.929 . S
N224 Mn217 2.257 . S
N224 C223 1.326 . S
N224 C228 1.362 . S
C225 C226 1.258 . S
C225 C228 1.431 . S
C225 C245 1.449 . S
C226 C225 1.258 . S
C226 C227 1.477 . S
C226 H246 0.931 . S
C227 C223 1.460 . S
C227 C226 1.477 . S
C227 H247 0.930 . S
C228 N224 1.362 . S
C228 C225 1.431 . S
C228 C238 1.476 . S
H229 C223 0.929 . S
C230 O221 1.250 . S
C230 O222 1.258 . S
O231 Mn216 2.162 . S
O231 C219 1.281 . S
O232 Mn216 2.297 . S
O232 C219 1.236 . S
N233 Mn217 2.282 . S
N233 C234 1.328 . S
N233 C238 1.318 . S
C234 N233 1.328 . S
C234 C235 1.457 . S
C234 H239 0.929 . S
C235 C234 1.457 . S
C235 C236 1.291 . S
C235 H248 0.931 . S
C236 C235 1.291 . S
C236 C237 1.373 . S
C236 H249 0.929 . S
C237 C236 1.373 . S
C237 C238 1.396 . S
C237 C244 1.403 . S
C238 C228 1.476 . S
C238 N233 1.318 . S
C238 C237 1.396 . S
H239 C234 0.929 . S
O240 Mn216 2.385 . S
O240 C218 1.234 . S
O241 Mn216 2.209 . S
O241 Mn217 2.215 . S
O241 C218 1.283 . S
O242 Mn216 2.094 . S
O242 C220 1.240 . S
O243 Mn217 2.117 . S
O243 C220 1.264 . S
C244 C237 1.403 . S
C244 C245 1.399 . S
C244 H250 0.929 . S
C245 C225 1.449 . S
C245 C244 1.399 . S
C245 H251 0.930 . S
H246 C226 0.931 . S
H247 C227 0.930 . S
H248 C235 0.931 . S
H249 C236 0.929 . S
H250 C244 0.929 . S
H251 C245 0.930 . S
Mn252 O257 2.095 . S
Mn252 O267 2.162 . S
Mn252 O268 2.297 . S
Mn252 O276 2.385 1_455 S
Mn252 O277 2.209 1_455 S
Mn252 O278 2.094 . S
Mn253 O258 2.121 . S
Mn253 N260 2.257 . S
Mn253 N269 2.282 1_455 S
Mn253 O277 2.215 1_455 S
Mn253 O279 2.117 . S
C254 O276 1.234 . S
C254 O277 1.283 . S
C255 O267 1.281 . S
C255 O268 1.236 . S
C256 O278 1.240 . S
C256 O279 1.264 . S
O257 Mn252 2.095 . S
O257 C266 1.250 . S
O258 Mn253 2.121 . S
O258 C266 1.258 . S
C259 N260 1.326 . S
C259 C263 1.460 . S
C259 H265 0.929 . S
N260 Mn253 2.257 . S
N260 C259 1.326 . S
N260 C264 1.362 1_455 S
C261 C262 1.258 . S
C261 C264 1.431 . S
C261 C281 1.449 . S
C262 C261 1.258 . S
C262 C263 1.477 1_655 S
C262 H282 0.931 . S
C263 C259 1.460 . S
C263 C262 1.477 1_455 S
C263 H283 0.930 . S
C264 N260 1.362 1_655 S
C264 C261 1.431 . S
C264 C274 1.476 . S
H265 C259 0.929 . S
C266 O257 1.250 . S
C266 O258 1.258 . S
O267 Mn252 2.162 . S
O267 C255 1.281 . S
O268 Mn252 2.297 . S
O268 C255 1.236 . S
N269 Mn253 2.282 1_655 S
N269 C270 1.328 . S
N269 C274 1.318 . S
C270 N269 1.328 . S
C270 C271 1.457 . S
C270 H275 0.929 . S
C271 C270 1.457 . S
C271 C272 1.291 . S
C271 H284 0.931 . S
C272 C271 1.291 . S
C272 C273 1.373 . S
C272 H285 0.929 . S
C273 C272 1.373 . S
C273 C274 1.396 . S
C273 C280 1.403 . S
C274 C264 1.476 . S
C274 N269 1.318 . S
C274 C273 1.396 . S
H275 C270 0.929 . S
O276 Mn252 2.385 1_655 S
O276 C254 1.234 . S
O277 Mn252 2.209 1_655 S
O277 Mn253 2.215 1_655 S
O277 C254 1.283 . S
O278 Mn252 2.094 . S
O278 C256 1.240 . S
O279 Mn253 2.117 . S
O279 C256 1.264 . S
C280 C273 1.403 . S
C280 C281 1.399 . S
C280 H286 0.929 . S
C281 C261 1.449 . S
C281 C280 1.399 . S
C281 H287 0.930 . S
H282 C262 0.931 . S
H283 C263 0.930 . S
H284 C271 0.931 . S
H285 C272 0.929 . S
H286 C280 0.929 . S
H287 C281 0.930 . S
Mn288 O293 2.095 . S
Mn288 O303 2.162 . S
Mn288 O304 2.298 1_545 S
Mn288 O312 2.385 1_545 S
Mn288 O313 2.209 1_545 S
Mn288 O314 2.094 . S
Mn289 O294 2.120 1_565 S
Mn289 N296 2.257 . S
Mn289 N305 2.283 . S
Mn289 O313 2.215 . S
Mn289 O315 2.117 1_565 S
C290 O312 1.234 . S
C290 O313 1.283 . S
C291 O303 1.281 . S
C291 O304 1.235 1_545 S
C292 O314 1.240 . S
C292 O315 1.264 . S
O293 Mn288 2.095 . S
O293 C302 1.250 . S
O294 Mn289 2.120 1_545 S
O294 C302 1.258 . S
C295 N296 1.326 . S
C295 C299 1.460 . S
C295 H301 0.929 1_565 S
N296 Mn289 2.257 . S
N296 C295 1.326 . S
N296 C300 1.362 . S
C297 C298 1.258 . S
C297 C300 1.431 . S
C297 C317 1.449 . S
C298 C297 1.258 . S
C298 C299 1.477 . S
C298 H318 0.931 . S
C299 C295 1.460 . S
C299 C298 1.477 . S
C299 H319 0.930 . S
C300 N296 1.362 . S
C300 C297 1.431 . S
C300 C310 1.476 . S
H301 C295 0.929 1_545 S
C302 O293 1.250 . S
C302 O294 1.258 . S
O303 Mn288 2.162 . S
O303 C291 1.281 . S
O304 Mn288 2.298 1_565 S
O304 C291 1.235 1_565 S
N305 Mn289 2.283 . S
N305 C306 1.328 . S
N305 C310 1.318 . S
C306 N305 1.328 . S
C306 C307 1.457 . S
C306 H311 0.929 . S
C307 C306 1.457 . S
C307 C308 1.291 . S
C307 H320 0.931 . S
C308 C307 1.291 . S
C308 C309 1.373 . S
C308 H321 0.929 . S
C309 C308 1.373 . S
C309 C310 1.396 . S
C309 C316 1.403 . S
C310 C300 1.476 . S
C310 N305 1.318 . S
C310 C309 1.396 . S
H311 C306 0.929 . S
O312 Mn288 2.385 1_565 S
O312 C290 1.234 . S
O313 Mn288 2.209 1_565 S
O313 Mn289 2.215 . S
O313 C290 1.283 . S
O314 Mn288 2.094 . S
O314 C292 1.240 . S
O315 Mn289 2.117 1_545 S
O315 C292 1.264 . S
C316 C309 1.403 . S
C316 C317 1.399 . S
C316 H322 0.929 . S
C317 C297 1.449 . S
C317 C316 1.399 . S
C317 H323 0.930 . S
H318 C298 0.931 . S
H319 C299 0.930 . S
H320 C307 0.931 . S
H321 C308 0.929 . S
H322 C316 0.929 . S
H323 C317 0.930 . S
Mn324 O329 2.095 . S
Mn324 O339 2.162 . S
Mn324 O340 2.297 . S
Mn324 O348 2.385 . S
Mn324 O349 2.209 . S
Mn324 O350 2.094 . S
Mn325 O330 2.121 . S
Mn325 N332 2.257 . S
Mn325 N341 2.282 . S
Mn325 O349 2.215 . S
Mn325 O351 2.117 . S
C326 O348 1.234 . S
C326 O349 1.283 . S
C327 O339 1.281 . S
C327 O340 1.236 . S
C328 O350 1.240 . S
C328 O351 1.264 . S
O329 Mn324 2.095 . S
O329 C338 1.250 . S
O330 Mn325 2.121 . S
O330 C338 1.258 . S
C331 N332 1.326 . S
C331 C335 1.460 . S
C331 H337 0.929 . S
N332 Mn325 2.257 . S
N332 C331 1.326 . S
N332 C336 1.362 . S
C333 C334 1.258 . S
C333 C336 1.431 . S
C333 C353 1.449 . S
C334 C333 1.258 . S
C334 C335 1.477 . S
C334 H354 0.931 . S
C335 C331 1.460 . S
C335 C334 1.477 . S
C335 H355 0.930 . S
C336 N332 1.362 . S
C336 C333 1.431 . S
C336 C346 1.476 . S
H337 C331 0.929 . S
C338 O329 1.250 . S
C338 O330 1.258 . S
O339 Mn324 2.162 . S
O339 C327 1.281 . S
O340 Mn324 2.297 . S
O340 C327 1.236 . S
N341 Mn325 2.282 . S
N341 C342 1.328 . S
N341 C346 1.318 . S
C342 N341 1.328 . S
C342 C343 1.457 . S
C342 H347 0.929 . S
C343 C342 1.457 . S
C343 C344 1.291 . S
C343 H356 0.931 . S
C344 C343 1.291 . S
C344 C345 1.373 . S
C344 H357 0.929 . S
C345 C344 1.373 . S
C345 C346 1.396 . S
C345 C352 1.403 . S
C346 C336 1.476 . S
C346 N341 1.318 . S
C346 C345 1.396 . S
H347 C342 0.929 . S
O348 Mn324 2.385 . S
O348 C326 1.234 . S
O349 Mn324 2.209 . S
O349 Mn325 2.215 . S
O349 C326 1.283 . S
O350 Mn324 2.094 . S
O350 C328 1.240 . S
O351 Mn325 2.117 . S
O351 C328 1.264 . S
C352 C345 1.403 . S
C352 C353 1.399 . S
C352 H358 0.929 . S
C353 C333 1.449 . S
C353 C352 1.399 . S
C353 H359 0.930 . S
H354 C334 0.931 . S
H355 C335 0.930 . S
H356 C343 0.931 . S
H357 C344 0.929 . S
H358 C352 0.929 . S
H359 C353 0.930 . S
Mn360 O365 2.095 1_545 S
Mn360 O375 2.162 . S
Mn360 O376 2.297 . S
Mn360 O384 2.385 . S
Mn360 O385 2.209 . S
Mn360 O386 2.094 . S
Mn361 O366 2.121 1_545 S
Mn361 N368 2.257 . S
Mn361 N377 2.282 . S
Mn361 O385 2.215 . S
Mn361 O387 2.117 . S
C362 O384 1.234 . S
C362 O385 1.283 . S
C363 O375 1.281 . S
C363 O376 1.236 . S
C364 O386 1.240 . S
C364 O387 1.264 . S
O365 Mn360 2.095 1_565 S
O365 C374 1.250 . S
O366 Mn361 2.121 1_565 S
O366 C374 1.258 . S
C367 N368 1.326 . S
C367 C371 1.460 . S
C367 H373 0.929 . S
N368 Mn361 2.257 . S
N368 C367 1.326 . S
N368 C372 1.362 . S
C369 C370 1.258 . S
C369 C372 1.431 . S
C369 C389 1.449 . S
C370 C369 1.258 . S
C370 C371 1.477 . S
C370 H390 0.931 . S
C371 C367 1.460 . S
C371 C370 1.477 . S
C371 H391 0.930 . S
C372 N368 1.362 . S
C372 C369 1.431 . S
C372 C382 1.476 . S
H373 C367 0.929 . S
C374 O365 1.250 . S
C374 O366 1.258 . S
O375 Mn360 2.162 . S
O375 C363 1.281 . S
O376 Mn360 2.297 . S
O376 C363 1.236 . S
N377 Mn361 2.282 . S
N377 C378 1.328 . S
N377 C382 1.318 . S
C378 N377 1.328 . S
C378 C379 1.457 . S
C378 H383 0.929 . S
C379 C378 1.457 . S
C379 C380 1.291 . S
C379 H392 0.931 . S
C380 C379 1.291 . S
C380 C381 1.373 . S
C380 H393 0.929 . S
C381 C380 1.373 . S
C381 C382 1.396 . S
C381 C388 1.403 . S
C382 C372 1.476 . S
C382 N377 1.318 . S
C382 C381 1.396 . S
H383 C378 0.929 . S
O384 Mn360 2.385 . S
O384 C362 1.234 . S
O385 Mn360 2.209 . S
O385 Mn361 2.215 . S
O385 C362 1.283 . S
O386 Mn360 2.094 . S
O386 C364 1.240 . S
O387 Mn361 2.117 . S
O387 C364 1.264 . S
C388 C381 1.403 . S
C388 C389 1.399 . S
C388 H394 0.929 . S
C389 C369 1.449 . S
C389 C388 1.399 . S
C389 H395 0.930 . S
H390 C370 0.931 . S
H391 C371 0.930 . S
H392 C379 0.931 . S
H393 C380 0.929 . S
H394 C388 0.929 . S
H395 C389 0.930 . S
Mn396 O401 2.095 . S
Mn396 O411 2.162 . S
Mn396 O412 2.297 . S
Mn396 O420 2.385 . S
Mn396 O421 2.209 . S
Mn396 O422 2.094 1_554 S
Mn397 O402 2.121 . S
Mn397 N404 2.257 1_565 S
Mn397 N413 2.282 . S
Mn397 O421 2.215 1_556 S
Mn397 O423 2.117 . S
C398 O420 1.234 . S
C398 O421 1.283 . S
C399 O411 1.281 . S
C399 O412 1.236 . S
C400 O422 1.240 . S
C400 O423 1.264 . S
O401 Mn396 2.095 . S
O401 C410 1.250 . S
O402 Mn397 2.121 . S
O402 C410 1.258 1_556 S
C403 N404 1.345 . S
C403 C407 1.462 1_556 S
C403 H409 0.910 1_556 S
N404 Mn397 2.257 1_545 S
N404 C403 1.345 . S
N404 C408 1.362 . S
C405 C406 1.258 . S
C405 C408 1.431 . S
C405 C425 1.449 . S
C406 C405 1.258 . S
C406 C407 1.477 1_556 S
C406 H426 0.931 . S
C407 C403 1.462 1_554 S
C407 C406 1.477 1_554 S
C407 H427 0.930 . S
C408 N404 1.362 . S
C408 C405 1.431 . S
C408 C418 1.476 1_545 S
H409 C403 0.910 1_554 S
C410 O401 1.250 . S
C410 O402 1.258 1_554 S
O411 Mn396 2.162 . S
O411 C399 1.281 . S
O412 Mn396 2.297 . S
O412 C399 1.236 . S
N413 Mn397 2.282 . S
N413 C414 1.328 . S
N413 C418 1.318 . S
C414 N413 1.328 . S
C414 C415 1.457 . S
C414 H419 0.929 . S
C415 C414 1.457 . S
C415 C416 1.291 . S
C415 H428 0.931 . S
C416 C415 1.291 . S
C416 C417 1.373 1_565 S
C416 H429 0.929 . S
C417 C416 1.373 1_545 S
C417 C418 1.396 1_545 S
C417 C424 1.403 . S
C418 C408 1.476 1_565 S
C418 N413 1.318 . S
C418 C417 1.396 1_565 S
H419 C414 0.929 . S
O420 Mn396 2.385 . S
O420 C398 1.234 . S
O421 Mn396 2.209 . S
O421 Mn397 2.215 1_554 S
O421 C398 1.283 . S
O422 Mn396 2.094 1_556 S
O422 C400 1.240 . S
O423 Mn397 2.117 . S
O423 C400 1.264 . S
C424 C417 1.403 . S
C424 C425 1.399 . S
C424 H430 0.929 . S
C425 C405 1.449 . S
C425 C424 1.399 . S
C425 H431 0.930 . S
H426 C406 0.931 . S
H427 C407 0.930 . S
H428 C415 0.931 . S
H429 C416 0.929 . S
H430 C424 0.929 . S
H431 C425 0.930 . S
Mn432 O437 2.095 . S
Mn432 O447 2.162 . S
Mn432 O448 2.297 . S
Mn432 O456 2.385 . S
Mn432 O457 2.209 . S
Mn432 O458 2.094 1_554 S
Mn433 O438 2.121 1_556 S
Mn433 N440 2.257 1_556 S
Mn433 N449 2.282 . S
Mn433 O457 2.215 1_556 S
Mn433 O459 2.117 . S
C434 O456 1.234 . S
C434 O457 1.283 . S
C435 O447 1.281 . S
C435 O448 1.236 . S
C436 O458 1.240 . S
C436 O459 1.264 . S
O437 Mn432 2.095 . S
O437 C446 1.250 . S
O438 Mn433 2.121 1_554 S
O438 C446 1.258 . S
C439 N440 1.326 . S
C439 C443 1.460 . S
C439 H445 0.929 . S
N440 Mn433 2.257 1_554 S
N440 C439 1.326 . S
N440 C444 1.362 1_554 S
C441 C442 1.258 1_556 S
C441 C444 1.431 . S
C441 C461 1.449 . S
C442 C441 1.258 1_554 S
C442 C443 1.477 . S
C442 H462 0.931 . S
C443 C439 1.460 . S
C443 C442 1.477 . S
C443 H463 0.930 . S
C444 N440 1.362 1_556 S
C444 C441 1.431 . S
C444 C454 1.476 . S
H445 C439 0.929 . S
C446 O437 1.250 . S
C446 O438 1.258 . S
O447 Mn432 2.162 . S
O447 C435 1.281 . S
O448 Mn432 2.297 . S
O448 C435 1.236 . S
N449 Mn433 2.282 . S
N449 C450 1.328 . S
N449 C454 1.318 . S
C450 N449 1.328 . S
C450 C451 1.457 . S
C450 H455 0.929 . S
C451 C450 1.457 . S
C451 C452 1.291 . S
C451 H464 0.931 . S
C452 C451 1.291 . S
C452 C453 1.373 . S
C452 H465 0.929 . S
C453 C452 1.373 . S
C453 C454 1.396 . S
C453 C460 1.403 . S
C454 C444 1.476 . S
C454 N449 1.318 . S
C454 C453 1.396 . S
H455 C450 0.929 . S
O456 Mn432 2.385 . S
O456 C434 1.234 . S
O457 Mn432 2.209 . S
O457 Mn433 2.215 1_554 S
O457 C434 1.283 . S
O458 Mn432 2.094 1_556 S
O458 C436 1.240 . S
O459 Mn433 2.117 . S
O459 C436 1.264 . S
C460 C453 1.403 . S
C460 C461 1.399 . S
C460 H466 0.929 . S
C461 C441 1.449 . S
C461 C460 1.399 . S
C461 H467 0.930 . S
H462 C442 0.931 . S
H463 C443 0.930 . S
H464 C451 0.931 . S
H465 C452 0.929 . S
H466 C460 0.929 . S
H467 C461 0.930 . S
Mn468 O473 2.095 . S
Mn468 O483 2.162 . S
Mn468 O484 2.297 . S
Mn468 O492 2.385 . S
Mn468 O493 2.209 . S
Mn468 O494 2.094 . S
Mn469 O474 2.121 1_556 S
Mn469 N476 2.257 . S
Mn469 N485 2.282 . S
Mn469 O493 2.215 1_556 S
Mn469 O495 2.117 . S
C470 O492 1.234 . S
C470 O493 1.283 . S
C471 O483 1.281 . S
C471 O484 1.236 . S
C472 O494 1.240 1_556 S
C472 O495 1.264 . S
O473 Mn468 2.095 . S
O473 C482 1.250 . S
O474 Mn469 2.121 1_554 S
O474 C482 1.258 . S
C475 N476 1.326 . S
C475 C479 1.460 . S
C475 H481 0.929 1_556 S
N476 Mn469 2.257 . S
N476 C475 1.326 . S
N476 C480 1.362 . S
C477 C478 1.258 . S
C477 C480 1.431 . S
C477 C497 1.449 . S
C478 C477 1.258 . S
C478 C479 1.477 . S
C478 H498 0.931 1_545 S
C479 C475 1.460 . S
C479 C478 1.477 . S
C479 H499 0.930 . S
C480 N476 1.362 . S
C480 C477 1.431 . S
C480 C490 1.476 . S
H481 C475 0.929 1_554 S
C482 O473 1.250 . S
C482 O474 1.258 . S
O483 Mn468 2.162 . S
O483 C471 1.281 . S
O484 Mn468 2.297 . S
O484 C471 1.236 . S
N485 Mn469 2.282 . S
N485 C486 1.328 . S
N485 C490 1.318 . S
C486 N485 1.328 . S
C486 C487 1.457 . S
C486 H491 0.929 . S
C487 C486 1.457 . S
C487 C488 1.291 . S
C487 H500 0.931 . S
C488 C487 1.291 . S
C488 C489 1.373 . S
C488 H501 0.929 . S
C489 C488 1.373 . S
C489 C490 1.396 . S
C489 C496 1.403 . S
C490 C480 1.476 . S
C490 N485 1.318 . S
C490 C489 1.396 . S
H491 C486 0.929 . S
O492 Mn468 2.385 . S
O492 C470 1.234 . S
O493 Mn468 2.209 . S
O493 Mn469 2.215 1_554 S
O493 C470 1.283 . S
O494 Mn468 2.094 . S
O494 C472 1.240 1_554 S
O495 Mn469 2.117 . S
O495 C472 1.264 . S
C496 C489 1.403 . S
C496 C497 1.399 . S
C496 H502 0.929 . S
C497 C477 1.449 . S
C497 C496 1.399 . S
C497 H503 0.930 1_545 S
H498 C478 0.931 1_565 S
H499 C479 0.930 . S
H500 C487 0.931 . S
H501 C488 0.929 . S
H502 C496 0.929 . S
H503 C497 0.930 1_565 S
Mn504 O509 2.095 . S
Mn504 O519 2.162 . S
Mn504 O520 2.297 . S
Mn504 O528 2.385 . S
Mn504 O529 2.209 . S
Mn504 O530 2.094 . S
Mn505 O510 2.121 . S
Mn505 N512 2.257 . S
Mn505 N521 2.282 . S
Mn505 O529 2.215 . S
Mn505 O531 2.117 . S
C506 O528 1.234 . S
C506 O529 1.283 . S
C507 O519 1.281 . S
C507 O520 1.236 . S
C508 O530 1.240 . S
C508 O531 1.264 . S
O509 Mn504 2.095 . S
O509 C518 1.250 . S
O510 Mn505 2.121 . S
O510 C518 1.258 . S
C511 N512 1.326 . S
C511 C515 1.460 . S
C511 H517 0.929 . S
N512 Mn505 2.257 . S
N512 C511 1.326 . S
N512 C516 1.362 . S
C513 C514 1.258 . S
C513 C516 1.431 . S
C513 C533 1.449 . S
C514 C513 1.258 . S
C514 C515 1.477 . S
C514 H534 0.931 . S
C515 C511 1.460 . S
C515 C514 1.477 . S
C515 H535 0.930 . S
C516 N512 1.362 . S
C516 C513 1.431 . S
C516 C526 1.476 . S
H517 C511 0.929 . S
C518 O509 1.250 . S
C518 O510 1.258 . S
O519 Mn504 2.162 . S
O519 C507 1.281 . S
O520 Mn504 2.297 . S
O520 C507 1.236 . S
N521 Mn505 2.282 . S
N521 C522 1.328 . S
N521 C526 1.318 . S
C522 N521 1.328 . S
C522 C523 1.457 . S
C522 H527 0.929 . S
C523 C522 1.457 . S
C523 C524 1.291 . S
C523 H536 0.931 . S
C524 C523 1.291 . S
C524 C525 1.373 . S
C524 H537 0.929 . S
C525 C524 1.373 . S
C525 C526 1.396 . S
C525 C532 1.403 . S
C526 C516 1.476 . S
C526 N521 1.318 . S
C526 C525 1.396 . S
H527 C522 0.929 . S
O528 Mn504 2.385 . S
O528 C506 1.234 . S
O529 Mn504 2.209 . S
O529 Mn505 2.215 . S
O529 C506 1.283 . S
O530 Mn504 2.094 . S
O530 C508 1.240 . S
O531 Mn505 2.117 . S
O531 C508 1.264 . S
C532 C525 1.403 . S
C532 C533 1.399 . S
C532 H538 0.929 . S
C533 C513 1.449 . S
C533 C532 1.399 . S
C533 H539 0.930 . S
H534 C514 0.931 . S
H535 C515 0.930 . S
H536 C523 0.931 . S
H537 C524 0.929 . S
H538 C532 0.929 . S
H539 C533 0.930 . S
Mn540 O545 2.095 . S
Mn540 O555 2.162 . S
Mn540 O556 2.297 . S
Mn540 O564 2.385 . S
Mn540 O565 2.209 . S
Mn540 O566 2.094 . S
Mn541 O546 2.121 . S
Mn541 N548 2.257 . S
Mn541 N557 2.282 . S
Mn541 O565 2.215 . S
Mn541 O567 2.117 . S
C542 O564 1.234 . S
C542 O565 1.283 . S
C543 O555 1.281 . S
C543 O556 1.236 . S
C544 O566 1.240 . S
C544 O567 1.264 . S
O545 Mn540 2.095 . S
O545 C554 1.250 . S
O546 Mn541 2.121 . S
O546 C554 1.258 . S
C547 N548 1.326 . S
C547 C551 1.460 . S
C547 H553 0.929 . S
N548 Mn541 2.257 . S
N548 C547 1.326 . S
N548 C552 1.362 . S
C549 C550 1.258 . S
C549 C552 1.431 . S
C549 C569 1.449 . S
C550 C549 1.258 . S
C550 C551 1.477 . S
C550 H570 0.931 1_565 S
C551 C547 1.460 . S
C551 C550 1.477 . S
C551 H571 0.930 . S
C552 N548 1.362 . S
C552 C549 1.431 . S
C552 C562 1.476 . S
H553 C547 0.929 . S
C554 O545 1.250 . S
C554 O546 1.258 . S
O555 Mn540 2.162 . S
O555 C543 1.281 . S
O556 Mn540 2.297 . S
O556 C543 1.236 . S
N557 Mn541 2.282 . S
N557 C558 1.328 . S
N557 C562 1.318 . S
C558 N557 1.328 . S
C558 C559 1.457 . S
C558 H563 0.929 . S
C559 C558 1.457 . S
C559 C560 1.291 . S
C559 H572 0.931 . S
C560 C559 1.291 . S
C560 C561 1.373 . S
C560 H573 0.929 . S
C561 C560 1.373 . S
C561 C562 1.396 . S
C561 C568 1.403 . S
C562 C552 1.476 . S
C562 N557 1.318 . S
C562 C561 1.396 . S
H563 C558 0.929 . S
O564 Mn540 2.385 . S
O564 C542 1.234 . S
O565 Mn540 2.209 . S
O565 Mn541 2.215 . S
O565 C542 1.283 . S
O566 Mn540 2.094 . S
O566 C544 1.240 . S
O567 Mn541 2.117 . S
O567 C544 1.264 . S
C568 C561 1.403 . S
C568 C569 1.399 . S
C568 H574 0.929 . S
C569 C549 1.449 . S
C569 C568 1.399 . S
C569 H575 0.930 . S
H570 C550 0.931 1_545 S
H571 C551 0.930 . S
H572 C559 0.931 . S
H573 C560 0.929 . S
H574 C568 0.929 . S
H575 C569 0.930 . S
Mn576 O581 2.095 . S
Mn576 O591 2.162 . S
Mn576 O592 2.297 . S
Mn576 O600 2.385 . S
Mn576 O601 2.209 . S
Mn576 O602 2.094 . S
Mn577 O582 2.121 . S
Mn577 N584 2.257 . S
Mn577 N593 2.282 . S
Mn577 O601 2.215 . S
Mn577 O603 2.117 . S
C578 O600 1.234 . S
C578 O601 1.283 . S
C579 O591 1.281 . S
C579 O592 1.236 . S
C580 O602 1.240 . S
C580 O603 1.264 . S
O581 Mn576 2.095 . S
O581 C590 1.250 . S
O582 Mn577 2.121 . S
O582 C590 1.258 . S
C583 N584 1.326 . S
C583 C587 1.460 . S
C583 H589 0.929 . S
N584 Mn577 2.257 . S
N584 C583 1.326 . S
N584 C588 1.362 . S
C585 C586 1.258 . S
C585 C588 1.431 . S
C585 C605 1.449 1_545 S
C586 C585 1.258 . S
C586 C587 1.477 . S
C586 H606 0.931 . S
C587 C583 1.460 . S
C587 C586 1.477 . S
C587 H607 0.930 . S
C588 N584 1.362 . S
C588 C585 1.431 . S
C588 C598 1.476 . S
H589 C583 0.929 . S
C590 O581 1.250 . S
C590 O582 1.258 . S
O591 Mn576 2.162 . S
O591 C579 1.281 . S
O592 Mn576 2.297 . S
O592 C579 1.236 . S
N593 Mn577 2.282 . S
N593 C594 1.328 . S
N593 C598 1.318 . S
C594 N593 1.328 . S
C594 C595 1.457 1_545 S
C594 H599 0.929 . S
C595 C594 1.457 1_565 S
C595 C596 1.291 . S
C595 H608 0.931 . S
C596 C595 1.291 . S
C596 C597 1.373 . S
C596 H609 0.929 . S
C597 C596 1.373 . S
C597 C598 1.396 1_565 S
C597 C604 1.403 . S
C598 C588 1.476 . S
C598 N593 1.318 . S
C598 C597 1.396 1_545 S
H599 C594 0.929 . S
O600 Mn576 2.385 . S
O600 C578 1.234 . S
O601 Mn576 2.209 . S
O601 Mn577 2.215 . S
O601 C578 1.283 . S
O602 Mn576 2.094 . S
O602 C580 1.240 . S
O603 Mn577 2.117 . S
O603 C580 1.264 . S
C604 C597 1.403 . S
C604 C605 1.399 . S
C604 H610 0.929 . S
C605 C585 1.449 1_565 S
C605 C604 1.399 . S
C605 H611 0.930 . S
H606 C586 0.931 . S
H607 C587 0.930 . S
H608 C595 0.931 . S
H609 C596 0.929 . S
H610 C604 0.929 . S
H611 C605 0.930 . S
Mn612 O617 2.095 . S
Mn612 O627 2.162 . S
Mn612 O628 2.297 . S
Mn612 O636 2.385 . S
Mn612 O637 2.209 . S
Mn612 O638 2.094 . S
Mn613 O618 2.121 . S
Mn613 N620 2.257 . S
Mn613 N629 2.282 . S
Mn613 O637 2.215 . S
Mn613 O639 2.117 . S
C614 O636 1.234 . S
C614 O637 1.283 . S
C615 O627 1.281 . S
C615 O628 1.236 . S
C616 O638 1.240 . S
C616 O639 1.264 . S
O617 Mn612 2.095 . S
O617 C626 1.250 . S
O618 Mn613 2.121 . S
O618 C626 1.258 . S
C619 N620 1.326 . S
C619 C623 1.460 . S
C619 H625 0.929 . S
N620 Mn613 2.257 . S
N620 C619 1.326 . S
N620 C624 1.362 . S
C621 C622 1.258 . S
C621 C624 1.431 . S
C621 C641 1.449 . S
C622 C621 1.258 . S
C622 C623 1.477 . S
C622 H642 0.931 . S
C623 C619 1.460 . S
C623 C622 1.477 . S
C623 H643 0.930 . S
C624 N620 1.362 . S
C624 C621 1.431 . S
C624 C634 1.476 . S
H625 C619 0.929 . S
C626 O617 1.250 . S
C626 O618 1.258 . S
O627 Mn612 2.162 . S
O627 C615 1.281 . S
O628 Mn612 2.297 . S
O628 C615 1.236 . S
N629 Mn613 2.282 . S
N629 C630 1.328 . S
N629 C634 1.318 . S
C630 N629 1.328 . S
C630 C631 1.457 . S
C630 H635 0.929 . S
C631 C630 1.457 . S
C631 C632 1.291 . S
C631 H644 0.931 . S
C632 C631 1.291 . S
C632 C633 1.373 . S
C632 H645 0.929 . S
C633 C632 1.373 . S
C633 C634 1.396 . S
C633 C640 1.403 . S
C634 C624 1.476 . S
C634 N629 1.318 . S
C634 C633 1.396 . S
H635 C630 0.929 . S
O636 Mn612 2.385 . S
O636 C614 1.234 . S
O637 Mn612 2.209 . S
O637 Mn613 2.215 . S
O637 C614 1.283 . S
O638 Mn612 2.094 . S
O638 C616 1.240 . S
O639 Mn613 2.117 . S
O639 C616 1.264 . S
C640 C633 1.403 . S
C640 C641 1.399 . S
C640 H646 0.929 . S
C641 C621 1.449 . S
C641 C640 1.399 . S
C641 H647 0.930 . S
H642 C622 0.931 . S
H643 C623 0.930 . S
H644 C631 0.931 . S
H645 C632 0.929 . S
H646 C640 0.929 . S
H647 C641 0.930 . S
Mn648 O653 2.095 . S
Mn648 O663 2.162 . S
Mn648 O664 2.297 . S
Mn648 O672 2.385 . S
Mn648 O673 2.209 . S
Mn648 O674 2.094 . S
Mn649 O654 2.121 . S
Mn649 N656 2.257 . S
Mn649 N665 2.282 . S
Mn649 O673 2.215 . S
Mn649 O675 2.117 . S
C650 O672 1.234 . S
C650 O673 1.283 . S
C651 O663 1.281 . S
C651 O664 1.236 . S
C652 O674 1.240 . S
C652 O675 1.264 . S
O653 Mn648 2.095 . S
O653 C662 1.250 . S
O654 Mn649 2.121 . S
O654 C662 1.258 . S
C655 N656 1.326 . S
C655 C659 1.460 . S
C655 H661 0.929 . S
N656 Mn649 2.257 . S
N656 C655 1.326 . S
N656 C660 1.362 . S
C657 C658 1.258 . S
C657 C660 1.431 . S
C657 C677 1.449 . S
C658 C657 1.258 . S
C658 C659 1.477 . S
C658 H678 0.931 . S
C659 C655 1.460 . S
C659 C658 1.477 . S
C659 H679 0.930 . S
C660 N656 1.362 . S
C660 C657 1.431 . S
C660 C670 1.476 . S
H661 C655 0.929 . S
C662 O653 1.250 . S
C662 O654 1.258 . S
O663 Mn648 2.162 . S
O663 C651 1.281 . S
O664 Mn648 2.297 . S
O664 C651 1.236 . S
N665 Mn649 2.282 . S
N665 C666 1.328 . S
N665 C670 1.318 . S
C666 N665 1.328 . S
C666 C667 1.457 . S
C666 H671 0.929 . S
C667 C666 1.457 . S
C667 C668 1.291 . S
C667 H680 0.931 . S
C668 C667 1.291 . S
C668 C669 1.373 . S
C668 H681 0.929 . S
C669 C668 1.373 . S
C669 C670 1.396 . S
C669 C676 1.403 . S
C670 C660 1.476 . S
C670 N665 1.318 . S
C670 C669 1.396 . S
H671 C666 0.929 . S
O672 Mn648 2.385 . S
O672 C650 1.234 . S
O673 Mn648 2.209 . S
O673 Mn649 2.215 . S
O673 C650 1.283 . S
O674 Mn648 2.094 . S
O674 C652 1.240 . S
O675 Mn649 2.117 . S
O675 C652 1.264 . S
C676 C669 1.403 . S
C676 C677 1.399 . S
C676 H682 0.929 . S
C677 C657 1.449 . S
C677 C676 1.399 . S
C677 H683 0.930 . S
H678 C658 0.931 . S
H679 C659 0.930 . S
H680 C667 0.931 . S
H681 C668 0.929 . S
H682 C676 0.929 . S
H683 C677 0.930 . S
Mn684 O689 2.095 . S
Mn684 O699 2.162 . S
Mn684 O700 2.297 . S
Mn684 O708 2.385 . S
Mn684 O709 2.209 . S
Mn684 O710 2.094 . S
Mn685 O690 2.121 . S
Mn685 N692 2.257 . S
Mn685 N701 2.282 . S
Mn685 O709 2.215 . S
Mn685 O711 2.117 . S
C686 O708 1.234 . S
C686 O709 1.283 . S
C687 O699 1.281 . S
C687 O700 1.236 . S
C688 O710 1.240 . S
C688 O711 1.264 . S
O689 Mn684 2.095 . S
O689 C698 1.250 . S
O690 Mn685 2.121 . S
O690 C698 1.258 . S
C691 N692 1.326 . S
C691 C695 1.460 . S
C691 H697 0.929 . S
N692 Mn685 2.257 . S
N692 C691 1.326 . S
N692 C696 1.362 . S
C693 C694 1.258 . S
C693 C696 1.431 . S
C693 C713 1.449 . S
C694 C693 1.258 . S
C694 C695 1.477 . S
C694 H714 0.931 . S
C695 C691 1.460 . S
C695 C694 1.477 . S
C695 H715 0.930 . S
C696 N692 1.362 . S
C696 C693 1.431 . S
C696 C706 1.476 . S
H697 C691 0.929 . S
C698 O689 1.250 . S
C698 O690 1.258 . S
O699 Mn684 2.162 . S
O699 C687 1.281 . S
O700 Mn684 2.297 . S
O700 C687 1.236 . S
N701 Mn685 2.282 . S
N701 C702 1.328 . S
N701 C706 1.318 . S
C702 N701 1.328 . S
C702 C703 1.457 . S
C702 H707 0.929 . S
C703 C702 1.457 . S
C703 C704 1.291 . S
C703 H716 0.931 . S
C704 C703 1.291 . S
C704 C705 1.373 . S
C704 H717 0.929 . S
C705 C704 1.373 . S
C705 C706 1.396 . S
C705 C712 1.403 . S
C706 C696 1.476 . S
C706 N701 1.318 . S
C706 C705 1.396 . S
H707 C702 0.929 . S
O708 Mn684 2.385 . S
O708 C686 1.234 . S
O709 Mn684 2.209 . S
O709 Mn685 2.215 . S
O709 C686 1.283 . S
O710 Mn684 2.094 . S
O710 C688 1.240 . S
O711 Mn685 2.117 . S
O711 C688 1.264 . S
C712 C705 1.403 . S
C712 C713 1.399 . S
C712 H718 0.929 . S
C713 C693 1.449 . S
C713 C712 1.399 . S
C713 H719 0.930 . S
H714 C694 0.931 . S
H715 C695 0.930 . S
H716 C703 0.931 . S
H717 C704 0.929 . S
H718 C712 0.929 . S
H719 C713 0.930 . S
Mn720 O725 2.095 . S
Mn720 O735 2.162 . S
Mn720 O736 2.297 . S
Mn720 O744 2.385 . S
Mn720 O745 2.209 . S
Mn720 O746 2.094 1_554 S
Mn721 O726 2.121 . S
Mn721 N728 2.257 . S
Mn721 N737 2.282 . S
Mn721 O745 2.215 1_556 S
Mn721 O747 2.117 . S
C722 O744 1.234 . S
C722 O745 1.283 . S
C723 O735 1.281 . S
C723 O736 1.236 . S
C724 O746 1.240 . S
C724 O747 1.264 . S
O725 Mn720 2.095 . S
O725 C734 1.250 . S
O726 Mn721 2.121 . S
O726 C734 1.258 1_556 S
C727 N728 1.326 . S
C727 C731 1.460 . S
C727 H733 0.929 . S
N728 Mn721 2.257 . S
N728 C727 1.326 . S
N728 C732 1.362 . S
C729 C730 1.258 . S
C729 C732 1.431 . S
C729 C749 1.449 . S
C730 C729 1.258 . S
C730 C731 1.477 . S
C730 H750 0.931 . S
C731 C727 1.460 . S
C731 C730 1.477 . S
C731 H751 0.930 . S
C732 N728 1.362 . S
C732 C729 1.431 . S
C732 C742 1.476 . S
H733 C727 0.929 . S
C734 O725 1.250 . S
C734 O726 1.258 1_554 S
O735 Mn720 2.162 . S
O735 C723 1.281 . S
O736 Mn720 2.297 . S
O736 C723 1.236 . S
N737 Mn721 2.282 . S
N737 C738 1.328 . S
N737 C742 1.318 . S
C738 N737 1.328 . S
C738 C739 1.457 . S
C738 H743 0.929 . S
C739 C738 1.457 . S
C739 C740 1.291 . S
C739 H752 0.931 . S
C740 C739 1.291 . S
C740 C741 1.373 . S
C740 H753 0.929 . S
C741 C740 1.373 . S
C741 C742 1.396 . S
C741 C748 1.403 . S
C742 C732 1.476 . S
C742 N737 1.318 . S
C742 C741 1.396 . S
H743 C738 0.929 . S
O744 Mn720 2.385 . S
O744 C722 1.234 . S
O745 Mn720 2.209 . S
O745 Mn721 2.215 1_554 S
O745 C722 1.283 . S
O746 Mn720 2.094 1_556 S
O746 C724 1.240 . S
O747 Mn721 2.117 . S
O747 C724 1.264 . S
C748 C741 1.403 . S
C748 C749 1.399 . S
C748 H754 0.929 . S
C749 C729 1.449 . S
C749 C748 1.399 . S
C749 H755 0.930 . S
H750 C730 0.931 . S
H751 C731 0.930 . S
H752 C739 0.931 . S
H753 C740 0.929 . S
H754 C748 0.929 . S
H755 C749 0.930 . S
Mn756 O761 2.095 . S
Mn756 O771 2.162 . S
Mn756 O772 2.297 . S
Mn756 O780 2.385 . S
Mn756 O781 2.209 . S
Mn756 O782 2.094 . S
Mn757 O762 2.121 . S
Mn757 N764 2.257 . S
Mn757 N773 2.282 . S
Mn757 O781 2.215 . S
Mn757 O783 2.117 . S
C758 O780 1.234 . S
C758 O781 1.283 . S
C759 O771 1.281 . S
C759 O772 1.236 . S
C760 O782 1.240 . S
C760 O783 1.264 . S
O761 Mn756 2.095 . S
O761 C770 1.250 . S
O762 Mn757 2.121 . S
O762 C770 1.258 . S
C763 N764 1.326 . S
C763 C767 1.460 . S
C763 H769 0.929 . S
N764 Mn757 2.257 . S
N764 C763 1.326 . S
N764 C768 1.362 . S
C765 C766 1.258 . S
C765 C768 1.431 . S
C765 C785 1.449 . S
C766 C765 1.258 . S
C766 C767 1.477 . S
C766 H786 0.931 . S
C767 C763 1.460 . S
C767 C766 1.477 . S
C767 H787 0.930 . S
C768 N764 1.362 . S
C768 C765 1.431 . S
C768 C778 1.476 . S
H769 C763 0.929 . S
C770 O761 1.250 . S
C770 O762 1.258 . S
O771 Mn756 2.162 . S
O771 C759 1.281 . S
O772 Mn756 2.297 . S
O772 C759 1.236 . S
N773 Mn757 2.282 . S
N773 C774 1.328 . S
N773 C778 1.318 . S
C774 N773 1.328 . S
C774 C775 1.457 . S
C774 H779 0.929 . S
C775 C774 1.457 . S
C775 C776 1.291 . S
C775 H788 0.931 . S
C776 C775 1.291 . S
C776 C777 1.373 . S
C776 H789 0.929 . S
C777 C776 1.373 . S
C777 C778 1.396 . S
C777 C784 1.403 . S
C778 C768 1.476 . S
C778 N773 1.318 . S
C778 C777 1.396 . S
H779 C774 0.929 . S
O780 Mn756 2.385 . S
O780 C758 1.234 . S
O781 Mn756 2.209 . S
O781 Mn757 2.215 . S
O781 C758 1.283 . S
O782 Mn756 2.094 . S
O782 C760 1.240 . S
O783 Mn757 2.117 . S
O783 C760 1.264 . S
C784 C777 1.403 . S
C784 C785 1.399 . S
C784 H790 0.929 . S
C785 C765 1.449 . S
C785 C784 1.399 . S
C785 H791 0.930 . S
H786 C766 0.931 . S
H787 C767 0.930 . S
H788 C775 0.931 . S
H789 C776 0.929 . S
H790 C784 0.929 . S
H791 C785 0.930 . S
Mn792 O797 2.095 . S
Mn792 O807 2.162 . S
Mn792 O808 2.297 . S
Mn792 O816 2.385 . S
Mn792 O817 2.209 . S
Mn792 O818 2.094 . S
Mn793 O798 2.121 . S
Mn793 N800 2.257 . S
Mn793 N809 2.282 . S
Mn793 O817 2.215 . S
Mn793 O819 2.117 . S
C794 O816 1.234 . S
C794 O817 1.283 . S
C795 O807 1.281 . S
C795 O808 1.236 . S
C796 O818 1.240 . S
C796 O819 1.264 . S
O797 Mn792 2.095 . S
O797 C806 1.250 . S
O798 Mn793 2.121 . S
O798 C806 1.258 . S
C799 N800 1.326 . S
C799 C803 1.460 . S
C799 H805 0.929 . S
N800 Mn793 2.257 . S
N800 C799 1.326 . S
N800 C804 1.362 . S
C801 C802 1.258 . S
C801 C804 1.431 . S
C801 C821 1.449 . S
C802 C801 1.258 . S
C802 C803 1.477 . S
C802 H822 0.931 . S
C803 C799 1.460 . S
C803 C802 1.477 . S
C803 H823 0.930 . S
C804 N800 1.362 . S
C804 C801 1.431 . S
C804 C814 1.476 . S
H805 C799 0.929 . S
C806 O797 1.250 . S
C806 O798 1.258 . S
O807 Mn792 2.162 . S
O807 C795 1.281 . S
O808 Mn792 2.297 . S
O808 C795 1.236 . S
N809 Mn793 2.282 . S
N809 C810 1.328 . S
N809 C814 1.318 . S
C810 N809 1.328 . S
C810 C811 1.457 . S
C810 H815 0.929 . S
C811 C810 1.457 . S
C811 C812 1.291 . S
C811 H824 0.931 . S
C812 C811 1.291 . S
C812 C813 1.373 . S
C812 H825 0.929 . S
C813 C812 1.373 . S
C813 C814 1.396 . S
C813 C820 1.403 . S
C814 C804 1.476 . S
C814 N809 1.318 . S
C814 C813 1.396 . S
H815 C810 0.929 . S
O816 Mn792 2.385 . S
O816 C794 1.234 . S
O817 Mn792 2.209 . S
O817 Mn793 2.215 . S
O817 C794 1.283 . S
O818 Mn792 2.094 . S
O818 C796 1.240 . S
O819 Mn793 2.117 . S
O819 C796 1.264 . S
C820 C813 1.403 . S
C820 C821 1.399 . S
C820 H826 0.929 . S
C821 C801 1.449 . S
C821 C820 1.399 . S
C821 H827 0.930 . S
H822 C802 0.931 . S
H823 C803 0.930 . S
H824 C811 0.931 . S
H825 C812 0.929 . S
H826 C820 0.929 . S
H827 C821 0.930 . S
Mn828 O833 2.095 . S
Mn828 O843 2.162 . S
Mn828 O844 2.297 . S
Mn828 O852 2.385 . S
Mn828 O853 2.209 . S
Mn828 O854 2.094 . S
Mn829 O834 2.121 . S
Mn829 N836 2.257 . S
Mn829 N845 2.282 . S
Mn829 O853 2.215 . S
Mn829 O855 2.117 . S
C830 O852 1.234 . S
C830 O853 1.283 . S
C831 O843 1.281 . S
C831 O844 1.236 . S
C832 O854 1.240 . S
C832 O855 1.264 . S
O833 Mn828 2.095 . S
O833 C842 1.250 . S
O834 Mn829 2.121 . S
O834 C842 1.258 . S
C835 N836 1.326 . S
C835 C839 1.460 . S
C835 H841 0.929 . S
N836 Mn829 2.257 . S
N836 C835 1.326 . S
N836 C840 1.362 . S
C837 C838 1.258 . S
C837 C840 1.431 . S
C837 C857 1.449 . S
C838 C837 1.258 . S
C838 C839 1.477 . S
C838 H858 0.931 . S
C839 C835 1.460 . S
C839 C838 1.477 . S
C839 H859 0.930 . S
C840 N836 1.362 . S
C840 C837 1.431 . S
C840 C850 1.476 . S
H841 C835 0.929 . S
C842 O833 1.250 . S
C842 O834 1.258 . S
O843 Mn828 2.162 . S
O843 C831 1.281 . S
O844 Mn828 2.297 . S
O844 C831 1.236 . S
N845 Mn829 2.282 . S
N845 C846 1.328 . S
N845 C850 1.318 . S
C846 N845 1.328 . S
C846 C847 1.457 . S
C846 H851 0.929 . S
C847 C846 1.457 . S
C847 C848 1.291 . S
C847 H860 0.931 . S
C848 C847 1.291 . S
C848 C849 1.373 . S
C848 H861 0.929 . S
C849 C848 1.373 . S
C849 C850 1.396 . S
C849 C856 1.403 . S
C850 C840 1.476 . S
C850 N845 1.318 . S
C850 C849 1.396 . S
H851 C846 0.929 . S
O852 Mn828 2.385 . S
O852 C830 1.234 . S
O853 Mn828 2.209 . S
O853 Mn829 2.215 . S
O853 C830 1.283 . S
O854 Mn828 2.094 . S
O854 C832 1.240 . S
O855 Mn829 2.117 . S
O855 C832 1.264 . S
C856 C849 1.403 . S
C856 C857 1.399 . S
C856 H862 0.929 . S
C857 C837 1.449 . S
C857 C856 1.399 . S
C857 H863 0.930 . S
H858 C838 0.931 . S
H859 C839 0.930 . S
H860 C847 0.931 . S
H861 C848 0.929 . S
H862 C856 0.929 . S
H863 C857 0.930 . S
Eu864 C873 2.828 . S
Eu864 O875 2.392 . S
Eu864 O877 2.418 . S
Eu864 O882 2.373 . S
Eu864 O885 2.488 . S
Eu864 O886 2.471 1_554 S
Eu864 O887 2.349 1_554 S
Eu865 O874 2.373 1_565 S
Eu865 O878 2.487 1_554 S
Eu865 O879 2.471 . S
Eu865 O880 2.349 1_565 S
Eu865 O883 2.378 1_564 S
Eu865 O884 2.418 1_554 S
Eu865 C894 2.828 . S
C866 O884 1.244 1_545 S
C866 O887 1.265 . S
C867 C868 1.379 1_554 S
C867 C871 1.373 . S
C867 C873 1.505 . S
C868 C867 1.379 1_556 S
C868 C870 1.369 . S
C868 H896 0.930 . S
C869 C871 1.383 . S
C869 C872 1.382 1_554 S
C869 H897 0.930 . S
C870 C868 1.369 . S
C870 C872 1.392 . S
C870 H898 0.930 . S
C871 C867 1.373 . S
C871 C869 1.383 . S
C871 H899 0.931 . S
C872 C869 1.382 1_556 S
C872 C870 1.392 . S
C873 Eu864 2.828 . S
C873 C867 1.505 . S
C873 O885 1.249 . S
C873 O886 1.244 1_554 S
O874 Eu865 2.373 1_545 S
O874 C876 1.258 . S
O875 Eu864 2.392 . S
O875 C876 1.242 . S
C876 O874 1.258 . S
C876 O875 1.242 . S
O877 Eu864 2.418 . S
O877 C881 1.244 . S
O878 Eu865 2.487 1_556 S
O878 C894 1.203 1_556 S
O879 Eu865 2.471 . S
O879 C894 1.244 . S
O880 Eu865 2.349 1_545 S
O880 C881 1.265 . S
C881 O877 1.244 . S
C881 O880 1.265 . S
O882 Eu864 2.373 . S
O882 C895 1.258 . S
O883 Eu865 2.378 1_546 S
O883 C895 1.241 1_556 S
O884 Eu865 2.418 1_556 S
O884 C866 1.244 1_565 S
O885 Eu864 2.488 . S
O885 C873 1.249 . S
O886 Eu864 2.471 1_556 S
O886 C873 1.244 1_556 S
O887 Eu864 2.349 1_556 S
O887 C866 1.265 . S
C888 C889 1.379 . S
C888 C892 1.373 . S
C888 C894 1.505 . S
C889 C888 1.379 . S
C889 C891 1.369 . S
C889 H900 0.930 . S
C890 C892 1.383 . S
C890 C893 1.382 . S
C890 H901 0.930 . S
C891 C889 1.369 . S
C891 C893 1.392 . S
C891 H902 0.930 . S
C892 C888 1.373 . S
C892 C890 1.383 . S
C892 H903 0.931 1_554 S
C893 C890 1.382 . S
C893 C891 1.392 . S
C894 Eu865 2.828 . S
C894 O878 1.203 1_554 S
C894 O879 1.244 . S
C894 C888 1.505 . S
C895 O882 1.258 . S
C895 O883 1.241 1_554 S
H896 C868 0.930 . S
H897 C869 0.930 . S
H898 C870 0.930 . S
H899 C871 0.931 . S
H900 C889 0.930 . S
H901 C890 0.930 . S
H902 C891 0.930 . S
H903 C892 0.931 1_556 S
Eu904 C913 2.828 . S
Eu904 O915 2.392 . S
Eu904 O917 2.418 . S
Eu904 O922 2.373 . S
Eu904 O925 2.488 . S
Eu904 O926 2.471 . S
Eu904 O927 2.349 . S
Eu905 O914 2.373 . S
Eu905 O918 2.488 . S
Eu905 O919 2.471 . S
Eu905 O920 2.349 . S
Eu905 O923 2.392 . S
Eu905 O924 2.418 . S
Eu905 C934 2.828 . S
C906 O924 1.244 . S
C906 O927 1.265 . S
C907 C908 1.379 . S
C907 C911 1.373 . S
C907 C913 1.505 . S
C908 C907 1.379 . S
C908 C910 1.369 . S
C908 H936 0.930 . S
C909 C911 1.383 . S
C909 C912 1.382 . S
C909 H937 0.930 . S
C910 C908 1.369 . S
C910 C912 1.392 . S
C910 H938 0.930 . S
C911 C907 1.373 . S
C911 C909 1.383 . S
C911 H939 0.931 . S
C912 C909 1.382 . S
C912 C910 1.392 . S
C913 Eu904 2.828 . S
C913 C907 1.505 . S
C913 O925 1.249 . S
C913 O926 1.244 . S
O914 Eu905 2.373 . S
O914 C916 1.258 . S
O915 Eu904 2.392 . S
O915 C916 1.242 . S
C916 O914 1.258 . S
C916 O915 1.242 . S
O917 Eu904 2.418 . S
O917 C921 1.244 . S
O918 Eu905 2.488 . S
O918 C934 1.249 . S
O919 Eu905 2.471 . S
O919 C934 1.244 . S
O920 Eu905 2.349 . S
O920 C921 1.265 . S
C921 O917 1.244 . S
C921 O920 1.265 . S
O922 Eu904 2.373 . S
O922 C935 1.258 . S
O923 Eu905 2.392 . S
O923 C935 1.242 . S
O924 Eu905 2.418 . S
O924 C906 1.244 . S
O925 Eu904 2.488 . S
O925 C913 1.249 . S
O926 Eu904 2.471 . S
O926 C913 1.244 . S
O927 Eu904 2.349 . S
O927 C906 1.265 . S
C928 C929 1.379 . S
C928 C932 1.373 . S
C928 C934 1.505 . S
C929 C928 1.379 . S
C929 C931 1.369 . S
C929 H940 0.930 . S
C930 C932 1.383 . S
C930 C933 1.382 . S
C930 H941 0.930 . S
C931 C929 1.369 . S
C931 C933 1.392 . S
C931 H942 0.930 . S
C932 C928 1.373 . S
C932 C930 1.383 . S
C932 H943 0.931 . S
C933 C930 1.382 . S
C933 C931 1.392 . S
C934 Eu905 2.828 . S
C934 O918 1.249 . S
C934 O919 1.244 . S
C934 C928 1.505 . S
C935 O922 1.258 . S
C935 O923 1.242 . S
H936 C908 0.930 . S
H937 C909 0.930 . S
H938 C910 0.930 . S
H939 C911 0.931 . S
H940 C929 0.930 . S
H941 C930 0.930 . S
H942 C931 0.930 . S
H943 C932 0.931 . S
Eu944 C953 2.828 . S
Eu944 O955 2.392 . S
Eu944 O957 2.418 . S
Eu944 O962 2.373 . S
Eu944 O965 2.488 . S
Eu944 O966 2.471 . S
Eu944 O967 2.349 . S
Eu945 O954 2.373 . S
Eu945 O958 2.488 . S
Eu945 O959 2.471 . S
Eu945 O960 2.349 . S
Eu945 O963 2.410 . S
Eu945 O964 2.418 . S
Eu945 C974 2.828 . S
C946 O964 1.244 . S
C946 O967 1.265 . S
C947 C948 1.379 1_545 S
C947 C951 1.373 . S
C947 C953 1.505 . S
C948 C947 1.379 1_565 S
C948 C950 1.369 . S
C948 H976 0.930 . S
C949 C951 1.383 1_565 S
C949 C952 1.382 . S
C949 H977 0.930 . S
C950 C948 1.369 . S
C950 C952 1.392 . S
C950 H978 0.930 . S
C951 C947 1.373 . S
C951 C949 1.383 1_545 S
C951 H979 0.931 . S
C952 C949 1.382 . S
C952 C950 1.392 . S
C953 Eu944 2.828 . S
C953 C947 1.505 . S
C953 O965 1.249 . S
C953 O966 1.244 . S
O954 Eu945 2.373 . S
O954 C956 1.258 . S
O955 Eu944 2.392 . S
O955 C956 1.242 . S
C956 O954 1.258 . S
C956 O955 1.242 . S
O957 Eu944 2.418 . S
O957 C961 1.244 . S
O958 Eu945 2.488 . S
O958 C974 1.249 . S
O959 Eu945 2.471 . S
O959 C974 1.244 . S
O960 Eu945 2.349 . S
O960 C961 1.265 . S
C961 O957 1.244 . S
C961 O960 1.265 . S
O962 Eu944 2.373 . S
O962 C975 1.258 1_545 S
O963 Eu945 2.410 . S
O963 C975 1.235 1_545 S
O964 Eu945 2.418 . S
O964 C946 1.244 . S
O965 Eu944 2.488 . S
O965 C953 1.249 . S
O966 Eu944 2.471 . S
O966 C953 1.244 . S
O967 Eu944 2.349 . S
O967 C946 1.265 . S
C968 C969 1.379 . S
C968 C972 1.373 . S
C968 C974 1.505 . S
C969 C968 1.379 . S
C969 C971 1.369 . S
C969 H980 0.930 . S
C970 C972 1.383 . S
C970 C973 1.382 . S
C970 H981 0.930 . S
C971 C969 1.369 . S
C971 C973 1.392 . S
C971 H982 0.930 . S
C972 C968 1.373 . S
C972 C970 1.383 . S
C972 H983 0.931 . S
C973 C970 1.382 . S
C973 C971 1.392 . S
C974 Eu945 2.828 . S
C974 O958 1.249 . S
C974 O959 1.244 . S
C974 C968 1.505 . S
C975 O962 1.258 1_565 S
C975 O963 1.235 1_565 S
H976 C948 0.930 . S
H977 C949 0.930 . S
H978 C950 0.930 . S
H979 C951 0.931 . S
H980 C969 0.930 . S
H981 C970 0.930 . S
H982 C971 0.930 . S
H983 C972 0.931 . S
Eu984 C993 2.828 . S
Eu984 O995 2.392 . S
Eu984 O997 2.418 . S
Eu984 O1002 2.373 . S
Eu984 O1005 2.488 . S
Eu984 O1006 2.471 . S
Eu984 O1007 2.349 . S
Eu985 O994 2.373 . S
Eu985 O998 2.488 . S
Eu985 O999 2.471 . S
Eu985 O1000 2.349 . S
Eu985 O1003 2.392 . S
Eu985 O1004 2.418 . S
Eu985 C1014 2.828 . S
C986 O1004 1.244 . S
C986 O1007 1.265 . S
C987 C988 1.379 . S
C987 C991 1.373 . S
C987 C993 1.505 . S
C988 C987 1.379 . S
C988 C990 1.369 . S
C988 H1016 0.930 . S
C989 C991 1.383 . S
C989 C992 1.382 . S
C989 H1017 0.930 . S
C990 C988 1.369 . S
C990 C992 1.392 . S
C990 H1018 0.930 . S
C991 C987 1.373 . S
C991 C989 1.383 . S
C991 H1019 0.931 . S
C992 C989 1.382 . S
C992 C990 1.392 . S
C993 Eu984 2.828 . S
C993 C987 1.505 . S
C993 O1005 1.249 . S
C993 O1006 1.244 . S
O994 Eu985 2.373 . S
O994 C996 1.258 . S
O995 Eu984 2.392 . S
O995 C996 1.242 . S
C996 O994 1.258 . S
C996 O995 1.242 . S
O997 Eu984 2.418 . S
O997 C1001 1.244 . S
O998 Eu985 2.488 . S
O998 C1014 1.249 . S
O999 Eu985 2.471 . S
O999 C1014 1.244 . S
O1000 Eu985 2.349 . S
O1000 C1001 1.265 . S
C1001 O997 1.244 . S
C1001 O1000 1.265 . S
O1002 Eu984 2.373 . S
O1002 C1015 1.258 . S
O1003 Eu985 2.392 . S
O1003 C1015 1.242 . S
O1004 Eu985 2.418 . S
O1004 C986 1.244 . S
O1005 Eu984 2.488 . S
O1005 C993 1.249 . S
O1006 Eu984 2.471 . S
O1006 C993 1.244 . S
O1007 Eu984 2.349 . S
O1007 C986 1.265 . S
C1008 C1009 1.379 . S
C1008 C1012 1.373 . S
C1008 C1014 1.505 . S
C1009 C1008 1.379 . S
C1009 C1011 1.369 . S
C1009 H1020 0.930 . S
C1010 C1012 1.383 . S
C1010 C1013 1.382 . S
C1010 H1021 0.930 . S
C1011 C1009 1.369 . S
C1011 C1013 1.392 . S
C1011 H1022 0.930 . S
C1012 C1008 1.373 . S
C1012 C1010 1.383 . S
C1012 H1023 0.931 . S
C1013 C1010 1.382 . S
C1013 C1011 1.392 . S
C1014 Eu985 2.828 . S
C1014 O998 1.249 . S
C1014 O999 1.244 . S
C1014 C1008 1.505 . S
C1015 O1002 1.258 . S
C1015 O1003 1.242 . S
H1016 C988 0.930 . S
H1017 C989 0.930 . S
H1018 C990 0.930 . S
H1019 C991 0.931 . S
H1020 C1009 0.930 . S
H1021 C1010 0.930 . S
H1022 C1011 0.930 . S
H1023 C1012 0.931 . S
Eu1024 C1033 2.828 . S
Eu1024 O1035 2.392 . S
Eu1024 O1037 2.447 . S
Eu1024 O1042 2.373 . S
Eu1024 O1045 2.488 . S
Eu1024 O1046 2.471 . S
Eu1024 O1047 2.349 . S
Eu1025 O1034 2.373 . S
Eu1025 O1038 2.488 1_545 S
Eu1025 O1039 2.471 1_545 S
Eu1025 O1040 2.349 . S
Eu1025 O1043 2.392 . S
Eu1025 O1044 2.418 . S
Eu1025 C1054 2.828 1_545 S
C1026 O1044 1.244 . S
C1026 O1047 1.265 . S
C1027 C1028 1.379 . S
C1027 C1031 1.373 . S
C1027 C1033 1.505 . S
C1028 C1027 1.379 . S
C1028 C1030 1.369 . S
C1028 H1056 0.930 . S
C1029 C1031 1.383 . S
C1029 C1032 1.382 . S
C1029 H1057 0.930 1_455 S
C1030 C1028 1.369 . S
C1030 C1032 1.392 . S
C1030 H1058 0.930 . S
C1031 C1027 1.373 . S
C1031 C1029 1.383 . S
C1031 H1059 0.931 . S
C1032 C1029 1.382 . S
C1032 C1030 1.392 . S
C1033 Eu1024 2.828 . S
C1033 C1027 1.505 . S
C1033 O1045 1.249 . S
C1033 O1046 1.244 . S
O1034 Eu1025 2.373 . S
O1034 C1036 1.258 . S
O1035 Eu1024 2.392 . S
O1035 C1036 1.242 . S
C1036 O1034 1.258 . S
C1036 O1035 1.242 . S
O1037 Eu1024 2.447 . S
O1037 C1041 1.256 . S
O1038 Eu1025 2.488 1_565 S
O1038 C1054 1.249 . S
O1039 Eu1025 2.471 1_565 S
O1039 C1054 1.244 . S
O1040 Eu1025 2.349 . S
O1040 C1041 1.265 . S
C1041 O1037 1.256 . S
C1041 O1040 1.265 . S
O1042 Eu1024 2.373 . S
O1042 C1055 1.258 . S
O1043 Eu1025 2.392 . S
O1043 C1055 1.242 . S
O1044 Eu1025 2.418 . S
O1044 C1026 1.244 . S
O1045 Eu1024 2.488 . S
O1045 C1033 1.249 . S
O1046 Eu1024 2.471 . S
O1046 C1033 1.244 . S
O1047 Eu1024 2.349 . S
O1047 C1026 1.265 . S
C1048 C1049 1.379 . S
C1048 C1052 1.373 . S
C1048 C1054 1.505 . S
C1049 C1048 1.379 . S
C1049 C1051 1.369 . S
C1049 H1060 0.930 . S
C1050 C1052 1.383 . S
C1050 C1053 1.382 . S
C1050 H1061 0.930 . S
C1051 C1049 1.369 . S
C1051 C1053 1.392 . S
C1051 H1062 0.930 . S
C1052 C1048 1.373 . S
C1052 C1050 1.383 . S
C1052 H1063 0.931 . S
C1053 C1050 1.382 . S
C1053 C1051 1.392 . S
C1054 Eu1025 2.828 1_565 S
C1054 O1038 1.249 . S
C1054 O1039 1.244 . S
C1054 C1048 1.505 . S
C1055 O1042 1.258 . S
C1055 O1043 1.242 . S
H1056 C1028 0.930 . S
H1057 C1029 0.930 1_655 S
H1058 C1030 0.930 . S
H1059 C1031 0.931 . S
H1060 C1049 0.930 . S
H1061 C1050 0.930 . S
H1062 C1051 0.930 . S
H1063 C1052 0.931 . S
Eu1064 C1073 2.828 . S
Eu1064 O1075 2.392 . S
Eu1064 O1077 2.418 . S
Eu1064 O1082 2.373 . S
Eu1064 O1085 2.488 . S
Eu1064 O1086 2.471 . S
Eu1064 O1087 2.349 . S
Eu1065 O1074 2.373 . S
Eu1065 O1078 2.488 . S
Eu1065 O1079 2.471 . S
Eu1065 O1080 2.349 . S
Eu1065 O1083 2.392 . S
Eu1065 O1084 2.418 . S
Eu1065 C1094 2.828 . S
C1066 O1084 1.244 . S
C1066 O1087 1.265 . S
C1067 C1068 1.379 . S
C1067 C1071 1.373 . S
C1067 C1073 1.505 . S
C1068 C1067 1.379 . S
C1068 C1070 1.369 . S
C1068 H1096 0.930 . S
C1069 C1071 1.383 . S
C1069 C1072 1.382 . S
C1069 H1097 0.930 . S
C1070 C1068 1.369 . S
C1070 C1072 1.392 . S
C1070 H1098 0.930 . S
C1071 C1067 1.373 . S
C1071 C1069 1.383 . S
C1071 H1099 0.931 . S
C1072 C1069 1.382 . S
C1072 C1070 1.392 . S
C1073 Eu1064 2.828 . S
C1073 C1067 1.505 . S
C1073 O1085 1.249 . S
C1073 O1086 1.244 . S
O1074 Eu1065 2.373 . S
O1074 C1076 1.258 . S
O1075 Eu1064 2.392 . S
O1075 C1076 1.242 . S
C1076 O1074 1.258 . S
C1076 O1075 1.242 . S
O1077 Eu1064 2.418 . S
O1077 C1081 1.244 . S
O1078 Eu1065 2.488 . S
O1078 C1094 1.249 . S
O1079 Eu1065 2.471 . S
O1079 C1094 1.244 . S
O1080 Eu1065 2.349 . S
O1080 C1081 1.265 . S
C1081 O1077 1.244 . S
C1081 O1080 1.265 . S
O1082 Eu1064 2.373 . S
O1082 C1095 1.258 . S
O1083 Eu1065 2.392 . S
O1083 C1095 1.242 . S
O1084 Eu1065 2.418 . S
O1084 C1066 1.244 . S
O1085 Eu1064 2.488 . S
O1085 C1073 1.249 . S
O1086 Eu1064 2.471 . S
O1086 C1073 1.244 . S
O1087 Eu1064 2.349 . S
O1087 C1066 1.265 . S
C1088 C1089 1.379 . S
C1088 C1092 1.373 . S
C1088 C1094 1.505 . S
C1089 C1088 1.379 . S
C1089 C1091 1.369 . S
C1089 H1100 0.930 . S
C1090 C1092 1.383 . S
C1090 C1093 1.382 . S
C1090 H1101 0.930 . S
C1091 C1089 1.369 . S
C1091 C1093 1.392 . S
C1091 H1102 0.930 . S
C1092 C1088 1.373 . S
C1092 C1090 1.383 . S
C1092 H1103 0.931 . S
C1093 C1090 1.382 . S
C1093 C1091 1.392 . S
C1094 Eu1065 2.828 . S
C1094 O1078 1.249 . S
C1094 O1079 1.244 . S
C1094 C1088 1.505 . S
C1095 O1082 1.258 . S
C1095 O1083 1.242 . S
H1096 C1068 0.930 . S
H1097 C1069 0.930 . S
H1098 C1070 0.930 . S
H1099 C1071 0.931 . S
H1100 C1089 0.930 . S
H1101 C1090 0.930 . S
H1102 C1091 0.930 . S
H1103 C1092 0.931 . S
Eu1104 C1113 2.828 . S
Eu1104 O1115 2.392 . S
Eu1104 O1117 2.418 1_545 S
Eu1104 O1122 2.373 . S
Eu1104 O1125 2.488 . S
Eu1104 O1126 2.471 . S
Eu1104 O1127 2.349 . S
Eu1105 O1114 2.373 1_556 S
Eu1105 O1118 2.488 . S
Eu1105 O1119 2.471 . S
Eu1105 O1120 2.349 . S
Eu1105 O1123 2.368 1_556 S
Eu1105 O1124 2.418 1_556 S
Eu1105 C1134 2.828 . S
C1106 O1124 1.244 . S
C1106 O1127 1.265 . S
C1107 C1108 1.379 . S
C1107 C1111 1.373 1_545 S
C1107 C1113 1.505 . S
C1108 C1107 1.379 . S
C1108 C1110 1.369 . S
C1108 H1136 0.930 . S
C1109 C1111 1.383 . S
C1109 C1112 1.382 1_565 S
C1109 H1137 0.930 . S
C1110 C1108 1.369 . S
C1110 C1112 1.392 . S
C1110 H1138 0.930 . S
C1111 C1107 1.373 1_565 S
C1111 C1109 1.383 . S
C1111 H1139 0.931 . S
C1112 C1109 1.382 1_545 S
C1112 C1110 1.392 . S
C1113 Eu1104 2.828 . S
C1113 C1107 1.505 . S
C1113 O1125 1.249 . S
C1113 O1126 1.244 . S
O1114 Eu1105 2.373 1_554 S
O1114 C1116 1.258 . S
O1115 Eu1104 2.392 . S
O1115 C1116 1.242 . S
C1116 O1114 1.258 . S
C1116 O1115 1.242 . S
O1117 Eu1104 2.418 1_565 S
O1117 C1121 1.244 . S
O1118 Eu1105 2.488 . S
O1118 C1134 1.249 . S
O1119 Eu1105 2.471 . S
O1119 C1134 1.244 . S
O1120 Eu1105 2.349 . S
O1120 C1121 1.265 1_546 S
C1121 O1117 1.244 . S
C1121 O1120 1.265 1_564 S
O1122 Eu1104 2.373 . S
O1122 C1135 1.258 . S
O1123 Eu1105 2.368 1_554 S
O1123 C1135 1.284 . S
O1124 Eu1105 2.418 1_554 S
O1124 C1106 1.244 . S
O1125 Eu1104 2.488 . S
O1125 C1113 1.249 . S
O1126 Eu1104 2.471 . S
O1126 C1113 1.244 . S
O1127 Eu1104 2.349 . S
O1127 C1106 1.265 . S
C1128 C1129 1.379 . S
C1128 C1132 1.373 . S
C1128 C1134 1.505 . S
C1129 C1128 1.379 . S
C1129 C1131 1.369 . S
C1129 H1140 0.930 . S
C1130 C1132 1.383 . S
C1130 C1133 1.382 . S
C1130 H1141 0.930 . S
C1131 C1129 1.369 . S
C1131 C1133 1.392 . S
C1131 H1142 0.930 . S
C1132 C1128 1.373 . S
C1132 C1130 1.383 . S
C1132 H1143 0.931 . S
C1133 C1130 1.382 . S
C1133 C1131 1.392 . S
C1134 Eu1105 2.828 . S
C1134 O1118 1.249 . S
C1134 O1119 1.244 . S
C1134 C1128 1.505 . S
C1135 O1122 1.258 . S
C1135 O1123 1.284 . S
H1136 C1108 0.930 . S
H1137 C1109 0.930 . S
H1138 C1110 0.930 . S
H1139 C1111 0.931 . S
H1140 C1129 0.930 . S
H1141 C1130 0.930 . S
H1142 C1131 0.930 . S
H1143 C1132 0.931 . S
Eu1144 C1153 2.828 . S
Eu1144 O1155 2.392 . S
Eu1144 O1157 2.418 . S
Eu1144 O1162 2.373 . S
Eu1144 O1165 2.488 . S
Eu1144 O1166 2.471 . S
Eu1144 O1167 2.349 . S
Eu1145 O1154 2.373 . S
Eu1145 O1158 2.488 . S
Eu1145 O1159 2.471 . S
Eu1145 O1160 2.349 . S
Eu1145 O1163 2.392 . S
Eu1145 O1164 2.418 . S
Eu1145 C1174 2.828 . S
C1146 O1164 1.244 . S
C1146 O1167 1.265 . S
C1147 C1148 1.379 . S
C1147 C1151 1.373 . S
C1147 C1153 1.505 . S
C1148 C1147 1.379 . S
C1148 C1150 1.369 . S
C1148 H1176 0.930 . S
C1149 C1151 1.383 . S
C1149 C1152 1.382 . S
C1149 H1177 0.930 . S
C1150 C1148 1.369 . S
C1150 C1152 1.392 . S
C1150 H1178 0.930 . S
C1151 C1147 1.373 . S
C1151 C1149 1.383 . S
C1151 H1179 0.931 . S
C1152 C1149 1.382 . S
C1152 C1150 1.392 . S
C1153 Eu1144 2.828 . S
C1153 C1147 1.505 . S
C1153 O1165 1.249 . S
C1153 O1166 1.244 . S
O1154 Eu1145 2.373 . S
O1154 C1156 1.258 . S
O1155 Eu1144 2.392 . S
O1155 C1156 1.242 . S
C1156 O1154 1.258 . S
C1156 O1155 1.242 . S
O1157 Eu1144 2.418 . S
O1157 C1161 1.244 . S
O1158 Eu1145 2.488 . S
O1158 C1174 1.249 . S
O1159 Eu1145 2.471 . S
O1159 C1174 1.244 . S
O1160 Eu1145 2.349 . S
O1160 C1161 1.265 . S
C1161 O1157 1.244 . S
C1161 O1160 1.265 . S
O1162 Eu1144 2.373 . S
O1162 C1175 1.258 . S
O1163 Eu1145 2.392 . S
O1163 C1175 1.242 . S
O1164 Eu1145 2.418 . S
O1164 C1146 1.244 . S
O1165 Eu1144 2.488 . S
O1165 C1153 1.249 . S
O1166 Eu1144 2.471 . S
O1166 C1153 1.244 . S
O1167 Eu1144 2.349 . S
O1167 C1146 1.265 . S
C1168 C1169 1.379 . S
C1168 C1172 1.373 . S
C1168 C1174 1.505 . S
C1169 C1168 1.379 . S
C1169 C1171 1.369 . S
C1169 H1180 0.930 . S
C1170 C1172 1.383 . S
C1170 C1173 1.382 . S
C1170 H1181 0.930 . S
C1171 C1169 1.369 . S
C1171 C1173 1.392 . S
C1171 H1182 0.930 . S
C1172 C1168 1.373 . S
C1172 C1170 1.383 . S
C1172 H1183 0.931 . S
C1173 C1170 1.382 . S
C1173 C1171 1.392 . S
C1174 Eu1145 2.828 . S
C1174 O1158 1.249 . S
C1174 O1159 1.244 . S
C1174 C1168 1.505 . S
C1175 O1162 1.258 . S
C1175 O1163 1.242 . S
H1176 C1148 0.930 . S
H1177 C1149 0.930 . S
H1178 C1150 0.930 . S
H1179 C1151 0.931 . S
H1180 C1169 0.930 . S
H1181 C1170 0.930 . S
H1182 C1171 0.930 . S
H1183 C1172 0.931 . S
Eu1184 C1193 2.828 . S
Eu1184 O1195 2.392 . S
Eu1184 O1197 2.418 . S
Eu1184 O1202 2.373 1_554 S
Eu1184 O1205 2.488 . S
Eu1184 O1206 2.471 . S
Eu1184 O1207 2.349 . S
Eu1185 O1194 2.373 . S
Eu1185 O1198 2.488 . S
Eu1185 O1199 2.471 . S
Eu1185 O1200 2.349 . S
Eu1185 O1203 2.392 1_554 S
Eu1185 O1204 2.418 . S
Eu1185 C1214 2.828 . S
C1186 O1204 1.244 . S
C1186 O1207 1.265 . S
C1187 C1188 1.379 . S
C1187 C1191 1.373 . S
C1187 C1193 1.505 1_556 S
C1188 C1187 1.379 . S
C1188 C1190 1.369 . S
C1188 H1216 0.930 . S
C1189 C1191 1.382 . S
C1189 C1192 1.382 . S
C1189 H1217 0.930 . S
C1190 C1188 1.369 . S
C1190 C1192 1.392 . S
C1190 H1218 0.930 . S
C1191 C1187 1.373 . S
C1191 C1189 1.382 . S
C1191 H1219 0.931 1_556 S
C1192 C1189 1.382 . S
C1192 C1190 1.392 . S
C1193 Eu1184 2.828 . S
C1193 C1187 1.505 1_554 S
C1193 O1205 1.249 . S
C1193 O1206 1.244 . S
O1194 Eu1185 2.373 . S
O1194 C1196 1.258 . S
O1195 Eu1184 2.392 . S
O1195 C1196 1.242 . S
C1196 O1194 1.258 . S
C1196 O1195 1.242 . S
O1197 Eu1184 2.418 . S
O1197 C1201 1.244 . S
O1198 Eu1185 2.488 . S
O1198 C1214 1.249 . S
O1199 Eu1185 2.471 . S
O1199 C1214 1.244 . S
O1200 Eu1185 2.349 . S
O1200 C1201 1.265 . S
C1201 O1197 1.244 . S
C1201 O1200 1.265 . S
O1202 Eu1184 2.373 1_556 S
O1202 C1215 1.258 . S
O1203 Eu1185 2.392 1_556 S
O1203 C1215 1.242 . S
O1204 Eu1185 2.418 . S
O1204 C1186 1.244 . S
O1205 Eu1184 2.488 . S
O1205 C1193 1.249 . S
O1206 Eu1184 2.471 . S
O1206 C1193 1.244 . S
O1207 Eu1184 2.349 . S
O1207 C1186 1.265 . S
C1208 C1209 1.379 . S
C1208 C1212 1.373 . S
C1208 C1214 1.505 . S
C1209 C1208 1.379 . S
C1209 C1211 1.369 . S
C1209 H1220 0.930 . S
C1210 C1212 1.383 . S
C1210 C1213 1.382 . S
C1210 H1221 0.930 . S
C1211 C1209 1.369 . S
C1211 C1213 1.392 . S
C1211 H1222 0.930 . S
C1212 C1208 1.373 . S
C1212 C1210 1.383 . S
C1212 H1223 0.931 . S
C1213 C1210 1.382 . S
C1213 C1211 1.392 . S
C1214 Eu1185 2.828 . S
C1214 O1198 1.249 . S
C1214 O1199 1.244 . S
C1214 C1208 1.505 . S
C1215 O1202 1.258 . S
C1215 O1203 1.242 . S
H1216 C1188 0.930 . S
H1217 C1189 0.930 . S
H1218 C1190 0.930 . S
H1219 C1191 0.931 1_554 S
H1220 C1209 0.930 . S
H1221 C1210 0.930 . S
H1222 C1211 0.930 . S
H1223 C1212 0.931 . S
Eu1224 C1233 2.828 . S
Eu1224 O1235 2.392 . S
Eu1224 O1237 2.418 . S
Eu1224 O1242 2.373 . S
Eu1224 O1245 2.488 . S
Eu1224 O1246 2.471 . S
Eu1224 O1247 2.349 . S
Eu1225 O1234 2.373 . S
Eu1225 O1238 2.488 . S
Eu1225 O1239 2.471 . S
Eu1225 O1240 2.349 . S
Eu1225 O1243 2.392 . S
Eu1225 O1244 2.418 . S
Eu1225 C1254 2.828 . S
C1226 O1244 1.244 . S
C1226 O1247 1.265 . S
C1227 C1228 1.379 . S
C1227 C1231 1.373 . S
C1227 C1233 1.505 . S
C1228 C1227 1.379 . S
C1228 C1230 1.369 . S
C1228 H1256 0.930 . S
C1229 C1231 1.383 . S
C1229 C1232 1.382 . S
C1229 H1257 0.930 . S
C1230 C1228 1.369 . S
C1230 C1232 1.392 . S
C1230 H1258 0.930 . S
C1231 C1227 1.373 . S
C1231 C1229 1.383 . S
C1231 H1259 0.931 . S
C1232 C1229 1.382 . S
C1232 C1230 1.392 . S
C1233 Eu1224 2.828 . S
C1233 C1227 1.505 . S
C1233 O1245 1.249 . S
C1233 O1246 1.244 . S
O1234 Eu1225 2.373 . S
O1234 C1236 1.258 . S
O1235 Eu1224 2.392 . S
O1235 C1236 1.242 . S
C1236 O1234 1.258 . S
C1236 O1235 1.242 . S
O1237 Eu1224 2.418 . S
O1237 C1241 1.244 . S
O1238 Eu1225 2.488 . S
O1238 C1254 1.249 . S
O1239 Eu1225 2.471 . S
O1239 C1254 1.244 . S
O1240 Eu1225 2.349 . S
O1240 C1241 1.265 . S
C1241 O1237 1.244 . S
C1241 O1240 1.265 . S
O1242 Eu1224 2.373 . S
O1242 C1255 1.258 . S
O1243 Eu1225 2.392 . S
O1243 C1255 1.242 . S
O1244 Eu1225 2.418 . S
O1244 C1226 1.244 . S
O1245 Eu1224 2.488 . S
O1245 C1233 1.249 . S
O1246 Eu1224 2.471 . S
O1246 C1233 1.244 . S
O1247 Eu1224 2.349 . S
O1247 C1226 1.265 . S
C1248 C1249 1.379 . S
C1248 C1252 1.373 . S
C1248 C1254 1.505 . S
C1249 C1248 1.379 . S
C1249 C1251 1.369 . S
C1249 H1260 0.930 . S
C1250 C1252 1.383 . S
C1250 C1253 1.382 . S
C1250 H1261 0.930 . S
C1251 C1249 1.369 . S
C1251 C1253 1.392 . S
C1251 H1262 0.930 . S
C1252 C1248 1.373 . S
C1252 C1250 1.383 . S
C1252 H1263 0.931 . S
C1253 C1250 1.382 . S
C1253 C1251 1.392 . S
C1254 Eu1225 2.828 . S
C1254 O1238 1.249 . S
C1254 O1239 1.244 . S
C1254 C1248 1.505 . S
C1255 O1242 1.258 . S
C1255 O1243 1.242 . S
H1256 C1228 0.930 . S
H1257 C1229 0.930 . S
H1258 C1230 0.930 . S
H1259 C1231 0.931 . S
H1260 C1249 0.930 . S
H1261 C1250 0.930 . S
H1262 C1251 0.930 . S
H1263 C1252 0.931 . S
Eu1264 C1273 2.828 . S
Eu1264 O1275 2.392 . S
Eu1264 O1277 2.418 . S
Eu1264 O1282 2.373 . S
Eu1264 O1285 2.488 . S
Eu1264 O1286 2.471 . S
Eu1264 O1287 2.349 . S
Eu1265 O1274 2.373 . S
Eu1265 O1278 2.488 . S
Eu1265 O1279 2.471 . S
Eu1265 O1280 2.349 . S
Eu1265 O1283 2.392 . S
Eu1265 O1284 2.418 . S
Eu1265 C1294 2.828 . S
C1266 O1284 1.244 . S
C1266 O1287 1.265 . S
C1267 C1268 1.379 . S
C1267 C1271 1.373 . S
C1267 C1273 1.505 . S
C1268 C1267 1.379 . S
C1268 C1270 1.369 1_455 S
C1268 H1296 0.939 . S
C1269 C1271 1.383 . S
C1269 C1272 1.382 1_455 S
C1269 H1297 0.930 . S
C1270 C1268 1.369 1_655 S
C1270 C1272 1.392 . S
C1270 H1298 0.930 . S
C1271 C1267 1.373 . S
C1271 C1269 1.383 . S
C1271 H1299 0.931 . S
C1272 C1269 1.382 1_655 S
C1272 C1270 1.392 . S
C1273 Eu1264 2.828 . S
C1273 C1267 1.505 . S
C1273 O1285 1.249 . S
C1273 O1286 1.244 . S
O1274 Eu1265 2.373 . S
O1274 C1276 1.258 . S
O1275 Eu1264 2.392 . S
O1275 C1276 1.242 . S
C1276 O1274 1.258 . S
C1276 O1275 1.242 . S
O1277 Eu1264 2.418 . S
O1277 C1281 1.244 . S
O1278 Eu1265 2.488 . S
O1278 C1294 1.249 . S
O1279 Eu1265 2.471 . S
O1279 C1294 1.244 . S
O1280 Eu1265 2.349 . S
O1280 C1281 1.265 . S
C1281 O1277 1.244 . S
C1281 O1280 1.265 . S
O1282 Eu1264 2.373 . S
O1282 C1295 1.258 . S
O1283 Eu1265 2.392 . S
O1283 C1295 1.242 . S
O1284 Eu1265 2.418 . S
O1284 C1266 1.244 . S
O1285 Eu1264 2.488 . S
O1285 C1273 1.249 . S
O1286 Eu1264 2.471 . S
O1286 C1273 1.244 . S
O1287 Eu1264 2.349 . S
O1287 C1266 1.265 . S
C1288 C1289 1.379 . S
C1288 C1292 1.373 . S
C1288 C1294 1.505 . S
C1289 C1288 1.379 . S
C1289 C1291 1.369 . S
C1289 H1300 0.930 . S
C1290 C1292 1.383 . S
C1290 C1293 1.382 . S
C1290 H1301 0.930 . S
C1291 C1289 1.369 . S
C1291 C1293 1.392 . S
C1291 H1302 0.930 . S
C1292 C1288 1.373 . S
C1292 C1290 1.383 . S
C1292 H1303 0.931 . S
C1293 C1290 1.382 . S
C1293 C1291 1.392 . S
C1294 Eu1265 2.828 . S
C1294 O1278 1.249 . S
C1294 O1279 1.244 . S
C1294 C1288 1.505 . S
C1295 O1282 1.258 . S
C1295 O1283 1.242 . S
H1296 C1268 0.939 . S
H1297 C1269 0.930 . S
H1298 C1270 0.930 . S
H1299 C1271 0.931 . S
H1300 C1289 0.930 . S
H1301 C1290 0.930 . S
H1302 C1291 0.930 . S
H1303 C1292 0.931 . S
Eu1304 C1313 2.828 . S
Eu1304 O1315 2.392 . S
Eu1304 O1317 2.418 . S
Eu1304 O1322 2.373 . S
Eu1304 O1325 2.488 . S
Eu1304 O1326 2.471 . S
Eu1304 O1327 2.349 . S
Eu1305 O1314 2.373 . S
Eu1305 O1318 2.488 . S
Eu1305 O1319 2.471 . S
Eu1305 O1320 2.349 . S
Eu1305 O1323 2.392 . S
Eu1305 O1324 2.418 . S
Eu1305 C1334 2.828 . S
C1306 O1324 1.244 . S
C1306 O1327 1.265 . S
C1307 C1308 1.379 . S
C1307 C1311 1.373 . S
C1307 C1313 1.505 . S
C1308 C1307 1.379 . S
C1308 C1310 1.369 . S
C1308 H1336 0.930 . S
C1309 C1311 1.383 . S
C1309 C1312 1.382 . S
C1309 H1337 0.930 . S
C1310 C1308 1.369 . S
C1310 C1312 1.392 . S
C1310 H1338 0.930 . S
C1311 C1307 1.373 . S
C1311 C1309 1.383 . S
C1311 H1339 0.931 . S
C1312 C1309 1.382 . S
C1312 C1310 1.392 . S
C1313 Eu1304 2.828 . S
C1313 C1307 1.505 . S
C1313 O1325 1.249 . S
C1313 O1326 1.244 . S
O1314 Eu1305 2.373 . S
O1314 C1316 1.258 . S
O1315 Eu1304 2.392 . S
O1315 C1316 1.242 . S
C1316 O1314 1.258 . S
C1316 O1315 1.242 . S
O1317 Eu1304 2.418 . S
O1317 C1321 1.244 . S
O1318 Eu1305 2.488 . S
O1318 C1334 1.249 . S
O1319 Eu1305 2.471 . S
O1319 C1334 1.244 . S
O1320 Eu1305 2.349 . S
O1320 C1321 1.265 . S
C1321 O1317 1.244 . S
C1321 O1320 1.265 . S
O1322 Eu1304 2.373 . S
O1322 C1335 1.258 . S
O1323 Eu1305 2.392 . S
O1323 C1335 1.242 . S
O1324 Eu1305 2.418 . S
O1324 C1306 1.244 . S
O1325 Eu1304 2.488 . S
O1325 C1313 1.249 . S
O1326 Eu1304 2.471 . S
O1326 C1313 1.244 . S
O1327 Eu1304 2.349 . S
O1327 C1306 1.265 . S
C1328 C1329 1.379 . S
C1328 C1332 1.373 . S
C1328 C1334 1.505 . S
C1329 C1328 1.379 . S
C1329 C1331 1.369 . S
C1329 H1340 0.930 . S
C1330 C1332 1.383 . S
C1330 C1333 1.382 . S
C1330 H1341 0.930 . S
C1331 C1329 1.369 . S
C1331 C1333 1.392 . S
C1331 H1342 0.930 . S
C1332 C1328 1.373 . S
C1332 C1330 1.383 . S
C1332 H1343 0.931 . S
C1333 C1330 1.382 . S
C1333 C1331 1.392 . S
C1334 Eu1305 2.828 . S
C1334 O1318 1.249 . S
C1334 O1319 1.244 . S
C1334 C1328 1.505 . S
C1335 O1322 1.258 . S
C1335 O1323 1.242 . S
H1336 C1308 0.930 . S
H1337 C1309 0.930 . S
H1338 C1310 0.930 . S
H1339 C1311 0.931 . S
H1340 C1329 0.930 . S
H1341 C1330 0.930 . S
H1342 C1331 0.930 . S
H1343 C1332 0.931 . S
Eu1344 C1353 2.828 . S
Eu1344 O1355 2.392 . S
Eu1344 O1357 2.418 . S
Eu1344 O1362 2.373 . S
Eu1344 O1365 2.488 . S
Eu1344 O1366 2.471 . S
Eu1344 O1367 2.349 . S
Eu1345 O1354 2.373 . S
Eu1345 O1358 2.488 . S
Eu1345 O1359 2.471 . S
Eu1345 O1360 2.349 . S
Eu1345 O1363 2.392 . S
Eu1345 O1364 2.418 . S
Eu1345 C1374 2.828 . S
C1346 O1364 1.244 . S
C1346 O1367 1.265 . S
C1347 C1348 1.379 . S
C1347 C1351 1.373 . S
C1347 C1353 1.505 . S
C1348 C1347 1.379 . S
C1348 C1350 1.369 . S
C1348 H1376 0.930 . S
C1349 C1351 1.383 . S
C1349 C1352 1.382 . S
C1349 H1377 0.930 . S
C1350 C1348 1.369 . S
C1350 C1352 1.392 . S
C1350 H1378 0.930 . S
C1351 C1347 1.373 . S
C1351 C1349 1.383 . S
C1351 H1379 0.931 . S
C1352 C1349 1.382 . S
C1352 C1350 1.392 . S
C1353 Eu1344 2.828 . S
C1353 C1347 1.505 . S
C1353 O1365 1.249 . S
C1353 O1366 1.244 . S
O1354 Eu1345 2.373 . S
O1354 C1356 1.258 . S
O1355 Eu1344 2.392 . S
O1355 C1356 1.242 . S
C1356 O1354 1.258 . S
C1356 O1355 1.242 . S
O1357 Eu1344 2.418 . S
O1357 C1361 1.244 . S
O1358 Eu1345 2.488 . S
O1358 C1374 1.249 . S
O1359 Eu1345 2.471 . S
O1359 C1374 1.244 . S
O1360 Eu1345 2.349 . S
O1360 C1361 1.265 . S
C1361 O1357 1.244 . S
C1361 O1360 1.265 . S
O1362 Eu1344 2.373 . S
O1362 C1375 1.258 . S
O1363 Eu1345 2.392 . S
O1363 C1375 1.242 . S
O1364 Eu1345 2.418 . S
O1364 C1346 1.244 . S
O1365 Eu1344 2.488 . S
O1365 C1353 1.249 . S
O1366 Eu1344 2.471 . S
O1366 C1353 1.244 . S
O1367 Eu1344 2.349 . S
O1367 C1346 1.265 . S
C1368 C1369 1.379 . S
C1368 C1372 1.373 . S
C1368 C1374 1.505 . S
C1369 C1368 1.379 . S
C1369 C1371 1.369 . S
C1369 H1380 0.930 . S
C1370 C1372 1.383 . S
C1370 C1373 1.382 . S
C1370 H1381 0.930 . S
C1371 C1369 1.369 . S
C1371 C1373 1.392 . S
C1371 H1382 0.930 . S
C1372 C1368 1.373 . S
C1372 C1370 1.383 . S
C1372 H1383 0.931 . S
C1373 C1370 1.382 . S
C1373 C1371 1.392 . S
C1374 Eu1345 2.828 . S
C1374 O1358 1.249 . S
C1374 O1359 1.244 . S
C1374 C1368 1.505 . S
C1375 O1362 1.258 . S
C1375 O1363 1.242 . S
H1376 C1348 0.930 . S
H1377 C1349 0.930 . S
H1378 C1350 0.930 . S
H1379 C1351 0.931 . S
H1380 C1369 0.930 . S
H1381 C1370 0.930 . S
H1382 C1371 0.930 . S
H1383 C1372 0.931 . S
Eu1384 C1393 2.828 . S
Eu1384 O1395 2.392 . S
Eu1384 O1397 2.418 . S
Eu1384 O1402 2.373 . S
Eu1384 O1405 2.488 . S
Eu1384 O1406 2.471 . S
Eu1384 O1407 2.349 . S
Eu1385 O1394 2.373 . S
Eu1385 O1398 2.488 . S
Eu1385 O1399 2.471 . S
Eu1385 O1400 2.349 . S
Eu1385 O1403 2.392 . S
Eu1385 O1404 2.418 . S
Eu1385 C1414 2.828 . S
C1386 O1404 1.244 . S
C1386 O1407 1.265 . S
C1387 C1388 1.379 . S
C1387 C1391 1.373 . S
C1387 C1393 1.505 . S
C1388 C1387 1.379 . S
C1388 C1390 1.369 . S
C1388 H1416 0.930 . S
C1389 C1391 1.383 . S
C1389 C1392 1.382 . S
C1389 H1417 0.930 . S
C1390 C1388 1.369 . S
C1390 C1392 1.392 . S
C1390 H1418 0.930 . S
C1391 C1387 1.373 . S
C1391 C1389 1.383 . S
C1391 H1419 0.931 . S
C1392 C1389 1.382 . S
C1392 C1390 1.392 . S
C1393 Eu1384 2.828 . S
C1393 C1387 1.505 . S
C1393 O1405 1.249 . S
C1393 O1406 1.244 . S
O1394 Eu1385 2.373 . S
O1394 C1396 1.258 . S
O1395 Eu1384 2.392 . S
O1395 C1396 1.242 . S
C1396 O1394 1.258 . S
C1396 O1395 1.242 . S
O1397 Eu1384 2.418 . S
O1397 C1401 1.244 . S
O1398 Eu1385 2.488 . S
O1398 C1414 1.249 . S
O1399 Eu1385 2.471 . S
O1399 C1414 1.244 . S
O1400 Eu1385 2.349 . S
O1400 C1401 1.265 . S
C1401 O1397 1.244 . S
C1401 O1400 1.265 . S
O1402 Eu1384 2.373 . S
O1402 C1415 1.258 . S
O1403 Eu1385 2.392 . S
O1403 C1415 1.242 . S
O1404 Eu1385 2.418 . S
O1404 C1386 1.244 . S
O1405 Eu1384 2.488 . S
O1405 C1393 1.249 . S
O1406 Eu1384 2.471 . S
O1406 C1393 1.244 . S
O1407 Eu1384 2.349 . S
O1407 C1386 1.265 . S
C1408 C1409 1.379 . S
C1408 C1412 1.373 . S
C1408 C1414 1.505 . S
C1409 C1408 1.379 . S
C1409 C1411 1.369 . S
C1409 H1420 0.930 . S
C1410 C1412 1.383 . S
C1410 C1413 1.382 . S
C1410 H1421 0.930 . S
C1411 C1409 1.369 . S
C1411 C1413 1.392 . S
C1411 H1422 0.930 . S
C1412 C1408 1.373 . S
C1412 C1410 1.383 . S
C1412 H1423 0.931 . S
C1413 C1410 1.382 . S
C1413 C1411 1.392 . S
C1414 Eu1385 2.828 . S
C1414 O1398 1.249 . S
C1414 O1399 1.244 . S
C1414 C1408 1.505 . S
C1415 O1402 1.258 . S
C1415 O1403 1.242 . S
H1416 C1388 0.930 . S
H1417 C1389 0.930 . S
H1418 C1390 0.930 . S
H1419 C1391 0.931 . S
H1420 C1409 0.930 . S
H1421 C1410 0.930 . S
H1422 C1411 0.930 . S
H1423 C1412 0.931 . S
Eu1424 C1433 2.828 . S
Eu1424 O1435 2.392 . S
Eu1424 O1437 2.418 . S
Eu1424 O1442 2.373 . S
Eu1424 O1445 2.488 . S
Eu1424 O1446 2.471 . S
Eu1424 O1447 2.349 . S
Eu1425 O1434 2.373 . S
Eu1425 O1438 2.488 . S
Eu1425 O1439 2.471 . S
Eu1425 O1440 2.349 . S
Eu1425 O1443 2.392 . S
Eu1425 O1444 2.418 . S
Eu1425 C1454 2.828 . S
C1426 O1444 1.244 . S
C1426 O1447 1.265 . S
C1427 C1428 1.379 . S
C1427 C1431 1.373 . S
C1427 C1433 1.505 . S
C1428 C1427 1.379 . S
C1428 C1430 1.369 . S
C1428 H1456 0.930 . S
C1429 C1431 1.383 . S
C1429 C1432 1.382 . S
C1429 H1457 0.930 . S
C1430 C1428 1.369 . S
C1430 C1432 1.392 . S
C1430 H1458 0.930 . S
C1431 C1427 1.373 . S
C1431 C1429 1.383 . S
C1431 H1459 0.931 . S
C1432 C1429 1.382 . S
C1432 C1430 1.392 . S
C1433 Eu1424 2.828 . S
C1433 C1427 1.505 . S
C1433 O1445 1.249 . S
C1433 O1446 1.244 . S
O1434 Eu1425 2.373 . S
O1434 C1436 1.258 . S
O1435 Eu1424 2.392 . S
O1435 C1436 1.242 . S
C1436 O1434 1.258 . S
C1436 O1435 1.242 . S
O1437 Eu1424 2.418 . S
O1437 C1441 1.244 . S
O1438 Eu1425 2.488 . S
O1438 C1454 1.249 . S
O1439 Eu1425 2.471 . S
O1439 C1454 1.244 . S
O1440 Eu1425 2.349 . S
O1440 C1441 1.265 . S
C1441 O1437 1.244 . S
C1441 O1440 1.265 . S
O1442 Eu1424 2.373 . S
O1442 C1455 1.258 . S
O1443 Eu1425 2.392 . S
O1443 C1455 1.242 . S
O1444 Eu1425 2.418 . S
O1444 C1426 1.244 . S
O1445 Eu1424 2.488 . S
O1445 C1433 1.249 . S
O1446 Eu1424 2.471 . S
O1446 C1433 1.244 . S
O1447 Eu1424 2.349 . S
O1447 C1426 1.265 . S
C1448 C1449 1.379 . S
C1448 C1452 1.373 . S
C1448 C1454 1.505 . S
C1449 C1448 1.379 . S
C1449 C1451 1.369 . S
C1449 H1460 0.930 . S
C1450 C1452 1.383 . S
C1450 C1453 1.382 . S
C1450 H1461 0.930 . S
C1451 C1449 1.369 . S
C1451 C1453 1.392 . S
C1451 H1462 0.930 . S
C1452 C1448 1.373 . S
C1452 C1450 1.383 . S
C1452 H1463 0.931 . S
C1453 C1450 1.382 . S
C1453 C1451 1.392 . S
C1454 Eu1425 2.828 . S
C1454 O1438 1.249 . S
C1454 O1439 1.244 . S
C1454 C1448 1.505 . S
C1455 O1442 1.258 . S
C1455 O1443 1.242 . S
H1456 C1428 0.930 . S
H1457 C1429 0.930 . S
H1458 C1430 0.930 . S
H1459 C1431 0.931 . S
H1460 C1449 0.930 . S
H1461 C1450 0.930 . S
H1462 C1451 0.930 . S
H1463 C1452 0.931 . S
Eu1464 C1473 2.828 1_554 S
Eu1464 O1475 2.392 . S
Eu1464 O1477 2.418 1_554 S
Eu1464 O1482 2.373 1_554 S
Eu1464 O1485 2.488 1_554 S
Eu1464 O1486 2.471 . S
Eu1464 O1487 2.349 . S
Eu1465 O1474 2.373 . S
Eu1465 O1478 2.488 1_455 S
Eu1465 O1479 2.471 1_455 S
Eu1465 O1480 2.349 1_554 S
Eu1465 O1483 2.392 . S
Eu1465 O1484 2.418 . S
Eu1465 C1494 2.828 1_455 S
C1466 O1484 1.244 . S
C1466 O1487 1.265 . S
C1467 C1468 1.379 1_556 S
C1467 C1471 1.373 . S
C1467 C1473 1.505 . S
C1468 C1467 1.379 1_554 S
C1468 C1470 1.369 . S
C1468 H1496 0.930 . S
C1469 C1471 1.383 . S
C1469 C1472 1.382 . S
C1469 H1497 0.930 . S
C1470 C1468 1.369 . S
C1470 C1472 1.392 1_554 S
C1470 H1498 0.930 . S
C1471 C1467 1.373 . S
C1471 C1469 1.383 . S
C1471 H1499 0.931 . S
C1472 C1469 1.382 . S
C1472 C1470 1.392 1_556 S
C1473 Eu1464 2.828 1_556 S
C1473 C1467 1.505 . S
C1473 O1485 1.249 . S
C1473 O1486 1.244 1_556 S
O1474 Eu1465 2.373 . S
O1474 C1476 1.258 . S
O1475 Eu1464 2.392 . S
O1475 C1476 1.242 . S
C1476 O1474 1.258 . S
C1476 O1475 1.242 . S
O1477 Eu1464 2.418 1_556 S
O1477 C1481 1.244 . S
O1478 Eu1465 2.488 1_655 S
O1478 C1494 1.249 . S
O1479 Eu1465 2.471 1_655 S
O1479 C1494 1.244 . S
O1480 Eu1465 2.349 1_556 S
O1480 C1481 1.265 . S
C1481 O1477 1.244 . S
C1481 O1480 1.265 . S
O1482 Eu1464 2.373 1_556 S
O1482 C1495 1.258 1_556 S
O1483 Eu1465 2.392 . S
O1483 C1495 1.242 . S
O1484 Eu1465 2.418 . S
O1484 C1466 1.244 . S
O1485 Eu1464 2.488 1_556 S
O1485 C1473 1.249 . S
O1486 Eu1464 2.471 . S
O1486 C1473 1.244 1_554 S
O1487 Eu1464 2.349 . S
O1487 C1466 1.265 . S
C1488 C1489 1.379 . S
C1488 C1492 1.373 . S
C1488 C1494 1.505 . S
C1489 C1488 1.379 . S
C1489 C1491 1.369 . S
C1489 H1500 0.930 . S
C1490 C1492 1.383 . S
C1490 C1493 1.382 . S
C1490 H1501 0.930 . S
C1491 C1489 1.369 . S
C1491 C1493 1.392 . S
C1491 H1502 0.930 . S
C1492 C1488 1.373 . S
C1492 C1490 1.383 . S
C1492 H1503 0.931 . S
C1493 C1490 1.382 . S
C1493 C1491 1.392 . S
C1494 Eu1465 2.828 1_655 S
C1494 O1478 1.249 . S
C1494 O1479 1.244 . S
C1494 C1488 1.505 . S
C1495 O1482 1.258 1_554 S
C1495 O1483 1.242 . S
H1496 C1468 0.930 . S
H1497 C1469 0.930 . S
H1498 C1470 0.930 . S
H1499 C1471 0.931 . S
H1500 C1489 0.930 . S
H1501 C1490 0.930 . S
H1502 C1491 0.930 . S
H1503 C1492 0.931 . S
H1504 C1516 0.930 1_655 S
H1505 C1518 0.930 . S
H1506 C1519 0.930 . S
H1507 C1523 0.959 . S
H1508 C1523 0.959 . S
H1509 C1523 0.961 . S
H1510 C1524 0.960 . S
H1511 C1524 0.961 . S
H1512 C1524 0.959 . S
H1513 C1527 0.929 . S
H1514 C1528 0.931 1_554 S
H1515 C1530 0.930 . S
C1516 H1504 0.930 1_455 S
C1516 C1517 1.399 . S
C1516 C1521 1.399 . S
C1517 C1516 1.399 . S
C1517 C1518 1.376 . S
C1518 H1505 0.930 . S
C1518 C1517 1.376 . S
C1518 C1519 1.388 . S
C1519 H1506 0.930 . S
C1519 C1518 1.388 . S
C1519 C1520 1.390 . S
C1520 C1519 1.390 . S
C1520 C1521 1.394 . S
C1520 C1526 1.465 . S
C1521 C1516 1.399 . S
C1521 C1520 1.394 . S
C1521 C1522 1.516 . S
C1522 C1521 1.516 . S
C1522 C1523 1.502 1_455 S
C1522 C1524 1.561 . S
C1522 C1525 1.526 . S
C1523 H1507 0.959 . S
C1523 H1508 0.959 . S
C1523 H1509 0.961 . S
C1523 C1522 1.502 1_655 S
C1524 H1510 0.960 . S
C1524 H1511 0.961 . S
C1524 H1512 0.959 . S
C1524 C1522 1.561 . S
C1525 C1522 1.526 . S
C1525 C1526 1.396 . S
C1525 C1530 1.390 . S
C1526 C1520 1.465 . S
C1526 C1525 1.396 . S
C1526 C1527 1.399 . S
C1527 H1513 0.929 . S
C1527 C1526 1.399 . S
C1527 C1528 1.385 . S
C1528 H1514 0.931 1_556 S
C1528 C1527 1.385 . S
C1528 C1529 1.389 . S
C1529 C1528 1.389 . S
C1529 C1530 1.387 . S
C1530 H1515 0.930 . S
C1530 C1525 1.390 . S
C1530 C1529 1.387 . S
H1531 C1543 0.930 . S
H1532 C1545 0.930 . S
H1533 C1546 0.930 . S
H1534 C1550 0.959 . S
H1535 C1550 0.959 . S
H1536 C1550 0.961 . S
H1537 C1551 0.960 . S
H1538 C1551 0.961 . S
H1539 C1551 0.959 . S
H1540 C1554 0.929 . S
H1541 C1555 0.931 . S
H1542 C1557 0.930 . S
C1543 H1531 0.930 . S
C1543 C1544 1.399 . S
C1543 C1548 1.399 . S
C1544 C1543 1.399 . S
C1544 C1545 1.376 . S
C1545 H1532 0.930 . S
C1545 C1544 1.376 . S
C1545 C1546 1.388 . S
C1546 H1533 0.930 . S
C1546 C1545 1.388 . S
C1546 C1547 1.390 . S
C1547 C1546 1.390 . S
C1547 C1548 1.394 . S
C1547 C1553 1.465 . S
C1548 C1543 1.399 . S
C1548 C1547 1.394 . S
C1548 C1549 1.516 . S
C1549 C1548 1.516 . S
C1549 C1550 1.502 . S
C1549 C1551 1.561 . S
C1549 C1552 1.526 . S
C1550 H1534 0.959 . S
C1550 H1535 0.959 . S
C1550 H1536 0.961 . S
C1550 C1549 1.502 . S
C1551 H1537 0.960 . S
C1551 H1538 0.961 . S
C1551 H1539 0.959 . S
C1551 C1549 1.561 . S
C1552 C1549 1.526 . S
C1552 C1553 1.396 . S
C1552 C1557 1.390 . S
C1553 C1547 1.465 . S
C1553 C1552 1.396 . S
C1553 C1554 1.399 . S
C1554 H1540 0.929 . S
C1554 C1553 1.399 . S
C1554 C1555 1.385 . S
C1555 H1541 0.931 . S
C1555 C1554 1.385 . S
C1555 C1556 1.389 . S
C1556 C1555 1.389 . S
C1556 C1557 1.387 . S
C1557 H1542 0.930 . S
C1557 C1552 1.390 . S
C1557 C1556 1.387 . S
H1558 C1570 0.930 . S
H1559 C1572 0.930 . S
H1560 C1573 0.930 . S
H1561 C1577 0.959 . S
H1562 C1577 0.959 . S
H1563 C1577 0.961 . S
H1564 C1578 0.960 . S
H1565 C1578 0.961 . S
H1566 C1578 0.959 . S
H1567 C1581 0.929 . S
H1568 C1582 0.931 . S
H1569 C1584 0.930 . S
C1570 H1558 0.930 . S
C1570 C1571 1.399 . S
C1570 C1575 1.399 . S
C1571 C1570 1.399 . S
C1571 C1572 1.376 . S
C1572 H1559 0.930 . S
C1572 C1571 1.376 . S
C1572 C1573 1.388 . S
C1573 H1560 0.930 . S
C1573 C1572 1.388 . S
C1573 C1574 1.390 . S
C1574 C1573 1.390 . S
C1574 C1575 1.394 . S
C1574 C1580 1.465 . S
C1575 C1570 1.399 . S
C1575 C1574 1.394 . S
C1575 C1576 1.516 . S
C1576 C1575 1.516 . S
C1576 C1577 1.502 . S
C1576 C1578 1.561 . S
C1576 C1579 1.526 . S
C1577 H1561 0.959 . S
C1577 H1562 0.959 . S
C1577 H1563 0.961 . S
C1577 C1576 1.502 . S
C1578 H1564 0.960 . S
C1578 H1565 0.961 . S
C1578 H1566 0.959 . S
C1578 C1576 1.561 . S
C1579 C1576 1.526 . S
C1579 C1580 1.396 . S
C1579 C1584 1.390 . S
C1580 C1574 1.465 . S
C1580 C1579 1.396 . S
C1580 C1581 1.399 . S
C1581 H1567 0.929 . S
C1581 C1580 1.399 . S
C1581 C1582 1.385 . S
C1582 H1568 0.931 . S
C1582 C1581 1.385 . S
C1582 C1583 1.389 . S
C1583 C1582 1.389 . S
C1583 C1584 1.387 . S
C1584 H1569 0.930 . S
C1584 C1579 1.390 . S
C1584 C1583 1.387 . S
H1585 C1597 0.930 . S
H1586 C1599 0.930 . S
H1587 C1600 0.930 . S
H1588 C1604 0.959 . S
H1589 C1604 0.959 . S
H1590 C1604 0.961 . S
H1591 C1605 0.960 . S
H1592 C1605 0.961 . S
H1593 C1605 0.959 . S
H1594 C1608 0.929 . S
H1595 C1609 0.931 . S
H1596 C1611 0.930 . S
C1597 H1585 0.930 . S
C1597 C1598 1.399 . S
C1597 C1602 1.399 . S
C1598 C1597 1.399 . S
C1598 C1599 1.376 . S
C1599 H1586 0.930 . S
C1599 C1598 1.376 . S
C1599 C1600 1.388 . S
C1600 H1587 0.930 . S
C1600 C1599 1.388 . S
C1600 C1601 1.390 . S
C1601 C1600 1.390 . S
C1601 C1602 1.394 . S
C1601 C1607 1.465 . S
C1602 C1597 1.399 . S
C1602 C1601 1.394 . S
C1602 C1603 1.516 . S
C1603 C1602 1.516 . S
C1603 C1604 1.502 . S
C1603 C1605 1.561 . S
C1603 C1606 1.526 . S
C1604 H1588 0.959 . S
C1604 H1589 0.959 . S
C1604 H1590 0.961 . S
C1604 C1603 1.502 . S
C1605 H1591 0.960 . S
C1605 H1592 0.961 . S
C1605 H1593 0.959 . S
C1605 C1603 1.561 . S
C1606 C1603 1.526 . S
C1606 C1607 1.396 . S
C1606 C1611 1.390 . S
C1607 C1601 1.465 . S
C1607 C1606 1.396 . S
C1607 C1608 1.399 . S
C1608 H1594 0.929 . S
C1608 C1607 1.399 . S
C1608 C1609 1.385 . S
C1609 H1595 0.931 . S
C1609 C1608 1.385 . S
C1609 C1610 1.389 . S
C1610 C1609 1.389 . S
C1610 C1611 1.387 . S
C1611 H1596 0.930 . S
C1611 C1606 1.390 . S
C1611 C1610 1.387 . S
H1612 C1624 0.930 . S
H1613 C1626 0.946 . S
H1614 C1627 0.930 . S
H1615 C1631 0.959 . S
H1616 C1631 0.959 . S
H1617 C1631 0.961 . S
H1618 C1632 0.960 . S
H1619 C1632 0.961 . S
H1620 C1632 0.959 . S
H1621 C1635 0.929 . S
H1622 C1636 0.931 . S
H1623 C1638 0.930 . S
C1624 H1612 0.930 . S
C1624 C1625 1.399 . S
C1624 C1629 1.399 . S
C1625 C1624 1.399 . S
C1625 C1626 1.376 . S
C1626 H1613 0.946 . S
C1626 C1625 1.376 . S
C1626 C1627 1.388 . S
C1627 H1614 0.930 . S
C1627 C1626 1.388 . S
C1627 C1628 1.390 . S
C1628 C1627 1.390 . S
C1628 C1629 1.394 . S
C1628 C1634 1.465 . S
C1629 C1624 1.399 . S
C1629 C1628 1.394 . S
C1629 C1630 1.516 . S
C1630 C1629 1.516 . S
C1630 C1631 1.502 . S
C1630 C1632 1.561 . S
C1630 C1633 1.526 . S
C1631 H1615 0.959 . S
C1631 H1616 0.959 . S
C1631 H1617 0.961 . S
C1631 C1630 1.502 . S
C1632 H1618 0.960 . S
C1632 H1619 0.961 . S
C1632 H1620 0.959 . S
C1632 C1630 1.561 . S
C1633 C1630 1.526 . S
C1633 C1634 1.396 . S
C1633 C1638 1.390 . S
C1634 C1628 1.465 . S
C1634 C1633 1.396 . S
C1634 C1635 1.399 . S
C1635 H1621 0.929 . S
C1635 C1634 1.399 . S
C1635 C1636 1.385 . S
C1636 H1622 0.931 . S
C1636 C1635 1.385 . S
C1636 C1637 1.389 . S
C1637 C1636 1.389 . S
C1637 C1638 1.387 . S
C1638 H1623 0.930 . S
C1638 C1633 1.390 . S
C1638 C1637 1.387 . S
H1639 C1651 0.930 . S
H1640 C1653 0.930 . S
H1641 C1654 0.930 . S
H1642 C1658 0.959 . S
H1643 C1658 0.959 . S
H1644 C1658 0.961 . S
H1645 C1659 0.960 . S
H1646 C1659 0.961 . S
H1647 C1659 0.959 . S
H1648 C1662 0.929 . S
H1649 C1663 0.931 . S
H1650 C1665 0.930 . S
C1651 H1639 0.930 . S
C1651 C1652 1.399 . S
C1651 C1656 1.399 . S
C1652 C1651 1.399 . S
C1652 C1653 1.376 . S
C1653 H1640 0.930 . S
C1653 C1652 1.376 . S
C1653 C1654 1.388 . S
C1654 H1641 0.930 . S
C1654 C1653 1.388 . S
C1654 C1655 1.390 . S
C1655 C1654 1.390 . S
C1655 C1656 1.394 . S
C1655 C1661 1.465 . S
C1656 C1651 1.399 . S
C1656 C1655 1.394 . S
C1656 C1657 1.516 . S
C1657 C1656 1.516 . S
C1657 C1658 1.502 . S
C1657 C1659 1.561 . S
C1657 C1660 1.526 . S
C1658 H1642 0.959 . S
C1658 H1643 0.959 . S
C1658 H1644 0.961 . S
C1658 C1657 1.502 . S
C1659 H1645 0.960 . S
C1659 H1646 0.961 . S
C1659 H1647 0.959 . S
C1659 C1657 1.561 . S
C1660 C1657 1.526 . S
C1660 C1661 1.396 . S
C1660 C1665 1.390 . S
C1661 C1655 1.465 . S
C1661 C1660 1.396 . S
C1661 C1662 1.399 . S
C1662 H1648 0.929 . S
C1662 C1661 1.399 . S
C1662 C1663 1.385 . S
C1663 H1649 0.931 . S
C1663 C1662 1.385 . S
C1663 C1664 1.389 . S
C1664 C1663 1.389 . S
C1664 C1665 1.387 . S
C1665 H1650 0.930 . S
C1665 C1660 1.390 . S
C1665 C1664 1.387 . S
H1666 C1678 0.930 . S
H1667 C1680 0.930 . S
H1668 C1681 0.930 . S
H1669 C1685 0.959 . S
H1670 C1685 0.959 . S
H1671 C1685 0.961 . S
H1672 C1686 0.960 . S
H1673 C1686 0.961 . S
H1674 C1686 0.959 . S
H1675 C1689 0.929 . S
H1676 C1690 0.931 . S
H1677 C1692 0.930 . S
C1678 H1666 0.930 . S
C1678 C1679 1.399 . S
C1678 C1683 1.399 . S
C1679 C1678 1.399 . S
C1679 C1680 1.376 . S
C1680 H1667 0.930 . S
C1680 C1679 1.376 . S
C1680 C1681 1.388 . S
C1681 H1668 0.930 . S
C1681 C1680 1.388 . S
C1681 C1682 1.390 . S
C1682 C1681 1.390 . S
C1682 C1683 1.394 . S
C1682 C1688 1.465 . S
C1683 C1678 1.399 . S
C1683 C1682 1.394 . S
C1683 C1684 1.516 . S
C1684 C1683 1.516 . S
C1684 C1685 1.502 . S
C1684 C1686 1.561 . S
C1684 C1687 1.526 . S
C1685 H1669 0.959 . S
C1685 H1670 0.959 . S
C1685 H1671 0.961 . S
C1685 C1684 1.502 . S
C1686 H1672 0.960 . S
C1686 H1673 0.961 . S
C1686 H1674 0.959 . S
C1686 C1684 1.561 . S
C1687 C1684 1.526 . S
C1687 C1688 1.396 . S
C1687 C1692 1.390 . S
C1688 C1682 1.465 . S
C1688 C1687 1.396 . S
C1688 C1689 1.399 . S
C1689 H1675 0.929 . S
C1689 C1688 1.399 . S
C1689 C1690 1.385 . S
C1690 H1676 0.931 . S
C1690 C1689 1.385 . S
C1690 C1691 1.389 . S
C1691 C1690 1.389 . S
C1691 C1692 1.387 . S
C1692 H1677 0.930 . S
C1692 C1687 1.390 . S
C1692 C1691 1.387 . S
H1693 C1705 0.930 . S
H1694 C1707 0.930 . S
H1695 C1708 0.930 . S
H1696 C1712 0.959 . S
H1697 C1712 0.959 . S
H1698 C1712 0.961 . S
H1699 C1713 0.960 . S
H1700 C1713 0.961 . S
H1701 C1713 0.959 . S
H1702 C1716 0.929 . S
H1703 C1717 0.931 . S
H1704 C1719 0.930 . S
C1705 H1693 0.930 . S
C1705 C1706 1.399 . S
C1705 C1710 1.399 . S
C1706 C1705 1.399 . S
C1706 C1707 1.376 . S
C1707 H1694 0.930 . S
C1707 C1706 1.376 . S
C1707 C1708 1.388 . S
C1708 H1695 0.930 . S
C1708 C1707 1.388 . S
C1708 C1709 1.390 . S
C1709 C1708 1.390 . S
C1709 C1710 1.394 . S
C1709 C1715 1.465 . S
C1710 C1705 1.399 . S
C1710 C1709 1.394 . S
C1710 C1711 1.516 . S
C1711 C1710 1.516 . S
C1711 C1712 1.502 . S
C1711 C1713 1.561 . S
C1711 C1714 1.526 . S
C1712 H1696 0.959 . S
C1712 H1697 0.959 . S
C1712 H1698 0.961 . S
C1712 C1711 1.502 . S
C1713 H1699 0.960 . S
C1713 H1700 0.961 . S
C1713 H1701 0.959 . S
C1713 C1711 1.561 . S
C1714 C1711 1.526 . S
C1714 C1715 1.396 . S
C1714 C1719 1.390 . S
C1715 C1709 1.465 . S
C1715 C1714 1.396 . S
C1715 C1716 1.399 . S
C1716 H1702 0.929 . S
C1716 C1715 1.399 . S
C1716 C1717 1.385 . S
C1717 H1703 0.931 . S
C1717 C1716 1.385 . S
C1717 C1718 1.389 . S
C1718 C1717 1.389 . S
C1718 C1719 1.387 . S
C1719 H1704 0.930 . S
C1719 C1714 1.390 . S
C1719 C1718 1.387 . S
H1720 C1732 0.930 . S
H1721 C1734 0.930 . S
H1722 C1735 0.930 . S
H1723 C1739 0.959 . S
H1724 C1739 0.959 . S
H1725 C1739 0.961 . S
H1726 C1740 0.960 . S
H1727 C1740 0.961 . S
H1728 C1740 0.959 . S
H1729 C1743 0.885 1_565 S
H1730 C1744 0.931 . S
H1731 C1746 0.930 . S
C1732 H1720 0.930 . S
C1732 C1733 1.399 . S
C1732 C1737 1.399 . S
C1733 C1732 1.399 . S
C1733 C1734 1.376 . S
C1734 H1721 0.930 . S
C1734 C1733 1.376 . S
C1734 C1735 1.388 . S
C1735 H1722 0.930 . S
C1735 C1734 1.388 . S
C1735 C1736 1.390 . S
C1736 C1735 1.390 . S
C1736 C1737 1.394 . S
C1736 C1742 1.465 1_655 S
C1737 C1732 1.399 . S
C1737 C1736 1.394 . S
C1737 C1738 1.516 1_655 S
C1738 C1737 1.516 1_455 S
C1738 C1739 1.502 1_455 S
C1738 C1740 1.561 . S
C1738 C1741 1.526 . S
C1739 H1723 0.959 . S
C1739 H1724 0.959 . S
C1739 H1725 0.961 . S
C1739 C1738 1.502 1_655 S
C1740 H1726 0.960 . S
C1740 H1727 0.961 . S
C1740 H1728 0.959 . S
C1740 C1738 1.561 . S
C1741 C1738 1.526 . S
C1741 C1742 1.396 . S
C1741 C1746 1.390 . S
C1742 C1736 1.465 1_455 S
C1742 C1741 1.396 . S
C1742 C1743 1.399 . S
C1743 H1729 0.885 1_545 S
C1743 C1742 1.399 . S
C1743 C1744 1.385 . S
C1744 H1730 0.931 . S
C1744 C1743 1.385 . S
C1744 C1745 1.389 . S
C1745 C1744 1.389 . S
C1745 C1746 1.387 . S
C1746 H1731 0.930 . S
C1746 C1741 1.390 . S
C1746 C1745 1.387 . S
H1747 C1759 0.930 . S
H1748 C1761 0.930 . S
H1749 C1762 0.930 . S
H1750 C1766 0.959 . S
H1751 C1766 0.959 . S
H1752 C1766 0.961 . S
H1753 C1767 0.960 . S
H1754 C1767 0.961 . S
H1755 C1767 0.959 . S
H1756 C1770 0.929 . S
H1757 C1771 0.931 . S
H1758 C1773 0.930 . S
C1759 H1747 0.930 . S
C1759 C1760 1.399 . S
C1759 C1764 1.399 . S
C1760 C1759 1.399 . S
C1760 C1761 1.376 . S
C1761 H1748 0.930 . S
C1761 C1760 1.376 . S
C1761 C1762 1.388 . S
C1762 H1749 0.930 . S
C1762 C1761 1.388 . S
C1762 C1763 1.390 . S
C1763 C1762 1.390 . S
C1763 C1764 1.394 . S
C1763 C1769 1.465 . S
C1764 C1759 1.399 . S
C1764 C1763 1.394 . S
C1764 C1765 1.516 . S
C1765 C1764 1.516 . S
C1765 C1766 1.502 . S
C1765 C1767 1.561 . S
C1765 C1768 1.526 . S
C1766 H1750 0.959 . S
C1766 H1751 0.959 . S
C1766 H1752 0.961 . S
C1766 C1765 1.502 . S
C1767 H1753 0.960 . S
C1767 H1754 0.961 . S
C1767 H1755 0.959 . S
C1767 C1765 1.561 . S
C1768 C1765 1.526 . S
C1768 C1769 1.396 . S
C1768 C1773 1.390 . S
C1769 C1763 1.465 . S
C1769 C1768 1.396 . S
C1769 C1770 1.399 . S
C1770 H1756 0.929 . S
C1770 C1769 1.399 . S
C1770 C1771 1.385 . S
C1771 H1757 0.931 . S
C1771 C1770 1.385 . S
C1771 C1772 1.389 . S
C1772 C1771 1.389 . S
C1772 C1773 1.387 . S
C1773 H1758 0.930 . S
C1773 C1768 1.390 . S
C1773 C1772 1.387 . S
H1774 C1786 0.930 . S
H1775 C1788 0.930 . S
H1776 C1789 0.930 . S
H1777 C1793 0.959 . S
H1778 C1793 0.959 . S
H1779 C1793 0.961 . S
H1780 C1794 0.960 . S
H1781 C1794 0.961 . S
H1782 C1794 0.959 . S
H1783 C1797 0.929 . S
H1784 C1798 0.931 . S
H1785 C1800 0.930 . S
C1786 H1774 0.930 . S
C1786 C1787 1.399 . S
C1786 C1791 1.399 . S
C1787 C1786 1.399 . S
C1787 C1788 1.376 . S
C1788 H1775 0.930 . S
C1788 C1787 1.376 . S
C1788 C1789 1.388 . S
C1789 H1776 0.930 . S
C1789 C1788 1.388 . S
C1789 C1790 1.390 . S
C1790 C1789 1.390 . S
C1790 C1791 1.394 . S
C1790 C1796 1.465 . S
C1791 C1786 1.399 . S
C1791 C1790 1.394 . S
C1791 C1792 1.516 . S
C1792 C1791 1.516 . S
C1792 C1793 1.502 . S
C1792 C1794 1.561 . S
C1792 C1795 1.526 . S
C1793 H1777 0.959 . S
C1793 H1778 0.959 . S
C1793 H1779 0.961 . S
C1793 C1792 1.502 . S
C1794 H1780 0.960 . S
C1794 H1781 0.961 . S
C1794 H1782 0.959 . S
C1794 C1792 1.561 . S
C1795 C1792 1.526 . S
C1795 C1796 1.396 . S
C1795 C1800 1.390 . S
C1796 C1790 1.465 . S
C1796 C1795 1.396 . S
C1796 C1797 1.399 . S
C1797 H1783 0.929 . S
C1797 C1796 1.399 . S
C1797 C1798 1.385 . S
C1798 H1784 0.931 . S
C1798 C1797 1.385 . S
C1798 C1799 1.389 . S
C1799 C1798 1.389 . S
C1799 C1800 1.387 . S
C1800 H1785 0.930 . S
C1800 C1795 1.390 . S
C1800 C1799 1.387 . S
H1801 C1813 0.930 . S
H1802 C1815 0.930 . S
H1803 C1816 0.930 . S
H1804 C1820 0.959 . S
H1805 C1820 0.959 . S
H1806 C1820 0.961 . S
H1807 C1821 0.960 . S
H1808 C1821 0.961 . S
H1809 C1821 0.959 . S
H1810 C1824 0.929 . S
H1811 C1825 0.931 . S
H1812 C1827 0.930 . S
C1813 H1801 0.930 . S
C1813 C1814 1.399 . S
C1813 C1818 1.399 . S
C1814 C1813 1.399 . S
C1814 C1815 1.376 . S
C1815 H1802 0.930 . S
C1815 C1814 1.376 . S
C1815 C1816 1.388 . S
C1816 H1803 0.930 . S
C1816 C1815 1.388 . S
C1816 C1817 1.390 . S
C1817 C1816 1.390 . S
C1817 C1818 1.394 . S
C1817 C1823 1.465 . S
C1818 C1813 1.399 . S
C1818 C1817 1.394 . S
C1818 C1819 1.516 . S
C1819 C1818 1.516 . S
C1819 C1820 1.502 . S
C1819 C1821 1.561 . S
C1819 C1822 1.526 . S
C1820 H1804 0.959 . S
C1820 H1805 0.959 . S
C1820 H1806 0.961 . S
C1820 C1819 1.502 . S
C1821 H1807 0.960 . S
C1821 H1808 0.961 . S
C1821 H1809 0.959 . S
C1821 C1819 1.561 . S
C1822 C1819 1.526 . S
C1822 C1823 1.396 . S
C1822 C1827 1.390 . S
C1823 C1817 1.465 . S
C1823 C1822 1.396 . S
C1823 C1824 1.399 . S
C1824 H1810 0.929 . S
C1824 C1823 1.399 . S
C1824 C1825 1.385 . S
C1825 H1811 0.931 . S
C1825 C1824 1.385 . S
C1825 C1826 1.389 . S
C1826 C1825 1.389 . S
C1826 C1827 1.387 . S
C1827 H1812 0.930 . S
C1827 C1822 1.390 . S
C1827 C1826 1.387 . S
H1828 C1840 0.930 . S
H1829 C1842 0.930 . S
H1830 C1843 0.930 . S
H1831 C1847 0.959 . S
H1832 C1847 0.959 . S
H1833 C1847 0.961 . S
H1834 C1848 0.960 1_565 S
H1835 C1848 0.961 1_565 S
H1836 C1848 0.959 1_455 S
H1837 C1851 0.929 . S
H1838 C1852 0.931 . S
H1839 C1854 0.930 1_655 S
C1840 H1828 0.930 . S
C1840 C1841 1.399 . S
C1840 C1845 1.399 . S
C1841 C1840 1.399 . S
C1841 C1842 1.376 . S
C1842 H1829 0.930 . S
C1842 C1841 1.376 . S
C1842 C1843 1.388 1_655 S
C1843 H1830 0.930 . S
C1843 C1842 1.388 1_455 S
C1843 C1844 1.390 . S
C1844 C1843 1.390 . S
C1844 C1845 1.394 1_455 S
C1844 C1850 1.465 . S
C1845 C1840 1.399 . S
C1845 C1844 1.394 1_655 S
C1845 C1846 1.516 . S
C1846 C1845 1.516 . S
C1846 C1847 1.502 . S
C1846 C1848 1.561 . S
C1846 C1849 1.533 . S
C1847 H1831 0.959 . S
C1847 H1832 0.959 . S
C1847 H1833 0.961 . S
C1847 C1846 1.502 . S
C1848 H1834 0.960 1_545 S
C1848 H1835 0.961 1_545 S
C1848 H1836 0.959 1_655 S
C1848 C1846 1.561 . S
C1849 C1846 1.533 . S
C1849 C1850 1.392 1_655 S
C1849 C1854 1.386 1_655 S
C1850 C1844 1.465 . S
C1850 C1849 1.392 1_455 S
C1850 C1851 1.399 . S
C1851 H1837 0.929 . S
C1851 C1850 1.399 . S
C1851 C1852 1.385 . S
C1852 H1838 0.931 . S
C1852 C1851 1.385 . S
C1852 C1853 1.389 . S
C1853 C1852 1.389 . S
C1853 C1854 1.387 . S
C1854 H1839 0.930 1_455 S
C1854 C1849 1.386 1_455 S
C1854 C1853 1.387 . S
H1855 C1867 0.930 . S
H1856 C1869 0.930 . S
H1857 C1870 0.930 . S
H1858 C1874 0.959 . S
H1859 C1874 0.959 . S
H1860 C1874 0.961 . S
H1861 C1875 0.960 . S
H1862 C1875 0.961 . S
H1863 C1875 0.959 . S
H1864 C1878 0.929 . S
H1865 C1879 0.931 . S
H1866 C1881 0.930 . S
C1867 H1855 0.930 . S
C1867 C1868 1.399 . S
C1867 C1872 1.399 . S
C1868 C1867 1.399 . S
C1868 C1869 1.376 . S
C1869 H1856 0.930 . S
C1869 C1868 1.376 . S
C1869 C1870 1.388 . S
C1870 H1857 0.930 . S
C1870 C1869 1.388 . S
C1870 C1871 1.390 . S
C1871 C1870 1.390 . S
C1871 C1872 1.394 . S
C1871 C1877 1.465 . S
C1872 C1867 1.399 . S
C1872 C1871 1.394 . S
C1872 C1873 1.516 . S
C1873 C1872 1.516 . S
C1873 C1874 1.502 . S
C1873 C1875 1.561 . S
C1873 C1876 1.526 . S
C1874 H1858 0.959 . S
C1874 H1859 0.959 . S
C1874 H1860 0.961 . S
C1874 C1873 1.502 . S
C1875 H1861 0.960 . S
C1875 H1862 0.961 . S
C1875 H1863 0.959 . S
C1875 C1873 1.561 . S
C1876 C1873 1.526 . S
C1876 C1877 1.396 . S
C1876 C1881 1.390 . S
C1877 C1871 1.465 . S
C1877 C1876 1.396 . S
C1877 C1878 1.399 . S
C1878 H1864 0.929 . S
C1878 C1877 1.399 . S
C1878 C1879 1.385 . S
C1879 H1865 0.931 . S
C1879 C1878 1.385 . S
C1879 C1880 1.389 . S
C1880 C1879 1.389 . S
C1880 C1881 1.387 . S
C1881 H1866 0.930 . S
C1881 C1876 1.390 . S
C1881 C1880 1.387 . S
H1882 C1894 0.930 . S
H1883 C1896 0.930 . S
H1884 C1897 0.930 . S
H1885 C1901 0.959 . S
H1886 C1901 0.959 . S
H1887 C1901 0.961 . S
H1888 C1902 0.960 . S
H1889 C1902 0.961 . S
H1890 C1902 0.959 . S
H1891 C1905 0.929 . S
H1892 C1906 0.931 . S
H1893 C1908 0.930 . S
C1894 H1882 0.930 . S
C1894 C1895 1.399 . S
C1894 C1899 1.399 . S
C1895 C1894 1.399 . S
C1895 C1896 1.376 . S
C1896 H1883 0.930 . S
C1896 C1895 1.376 . S
C1896 C1897 1.388 . S
C1897 H1884 0.930 . S
C1897 C1896 1.388 . S
C1897 C1898 1.390 . S
C1898 C1897 1.390 . S
C1898 C1899 1.394 . S
C1898 C1904 1.465 . S
C1899 C1894 1.399 . S
C1899 C1898 1.394 . S
C1899 C1900 1.516 . S
C1900 C1899 1.516 . S
C1900 C1901 1.502 . S
C1900 C1902 1.561 . S
C1900 C1903 1.526 . S
C1901 H1885 0.959 . S
C1901 H1886 0.959 . S
C1901 H1887 0.961 . S
C1901 C1900 1.502 . S
C1902 H1888 0.960 . S
C1902 H1889 0.961 . S
C1902 H1890 0.959 . S
C1902 C1900 1.561 . S
C1903 C1900 1.526 . S
C1903 C1904 1.396 . S
C1903 C1908 1.390 . S
C1904 C1898 1.465 . S
C1904 C1903 1.396 . S
C1904 C1905 1.399 . S
C1905 H1891 0.929 . S
C1905 C1904 1.399 . S
C1905 C1906 1.385 . S
C1906 H1892 0.931 . S
C1906 C1905 1.385 . S
C1906 C1907 1.389 . S
C1907 C1906 1.389 . S
C1907 C1908 1.387 . S
C1908 H1893 0.930 . S
C1908 C1903 1.390 . S
C1908 C1907 1.387 . S
H1909 C1921 0.930 . S
H1910 C1923 0.930 . S
H1911 C1924 0.930 . S
H1912 C1928 0.959 . S
H1913 C1928 0.959 . S
H1914 C1928 0.961 . S
H1915 C1929 0.960 . S
H1916 C1929 0.961 . S
H1917 C1929 0.959 . S
H1918 C1932 0.929 . S
H1919 C1933 0.931 . S
H1920 C1935 0.930 . S
C1921 H1909 0.930 . S
C1921 C1922 1.399 . S
C1921 C1926 1.399 . S
C1922 C1921 1.399 . S
C1922 C1923 1.376 . S
C1923 H1910 0.930 . S
C1923 C1922 1.376 . S
C1923 C1924 1.388 . S
C1924 H1911 0.930 . S
C1924 C1923 1.388 . S
C1924 C1925 1.390 . S
C1925 C1924 1.390 . S
C1925 C1926 1.394 . S
C1925 C1931 1.465 . S
C1926 C1921 1.399 . S
C1926 C1925 1.394 . S
C1926 C1927 1.516 . S
C1927 C1926 1.516 . S
C1927 C1928 1.502 . S
C1927 C1929 1.561 . S
C1927 C1930 1.526 . S
C1928 H1912 0.959 . S
C1928 H1913 0.959 . S
C1928 H1914 0.961 . S
C1928 C1927 1.502 . S
C1929 H1915 0.960 . S
C1929 H1916 0.961 . S
C1929 H1917 0.959 . S
C1929 C1927 1.561 . S
C1930 C1927 1.526 . S
C1930 C1931 1.396 . S
C1930 C1935 1.390 . S
C1931 C1925 1.465 . S
C1931 C1930 1.396 . S
C1931 C1932 1.399 . S
C1932 H1918 0.929 . S
C1932 C1931 1.399 . S
C1932 C1933 1.385 . S
C1933 H1919 0.931 . S
C1933 C1932 1.385 . S
C1933 C1934 1.389 . S
C1934 C1933 1.389 . S
C1934 C1935 1.387 . S
C1935 H1920 0.930 . S
C1935 C1930 1.390 . S
C1935 C1934 1.387 . S
H1936 C1948 0.930 1_556 S
H1937 C1950 0.930 . S
H1938 C1951 0.930 . S
H1939 C1955 0.959 . S
H1940 C1955 0.959 1_556 S
H1941 C1955 0.961 1_556 S
H1942 C1956 0.960 . S
H1943 C1956 0.961 1_545 S
H1944 C1956 0.959 . S
H1945 C1959 0.929 . S
H1946 C1960 0.931 . S
H1947 C1962 0.930 . S
C1948 H1936 0.930 1_554 S
C1948 C1949 1.399 . S
C1948 C1953 1.399 . S
C1949 C1948 1.399 . S
C1949 C1950 1.376 . S
C1950 H1937 0.930 . S
C1950 C1949 1.376 . S
C1950 C1951 1.388 . S
C1951 H1938 0.930 . S
C1951 C1950 1.388 . S
C1951 C1952 1.390 . S
C1952 C1951 1.390 . S
C1952 C1953 1.394 . S
C1952 C1958 1.465 . S
C1953 C1948 1.399 . S
C1953 C1952 1.394 . S
C1953 C1954 1.518 1_564 S
C1954 C1953 1.518 1_546 S
C1954 C1955 1.502 1_556 S
C1954 C1956 1.558 1_545 S
C1954 C1957 1.528 1_546 S
C1955 H1939 0.959 . S
C1955 H1940 0.959 1_554 S
C1955 H1941 0.961 1_554 S
C1955 C1954 1.502 1_554 S
C1956 H1942 0.960 . S
C1956 H1943 0.961 1_565 S
C1956 H1944 0.959 . S
C1956 C1954 1.558 1_565 S
C1957 C1954 1.528 1_564 S
C1957 C1958 1.396 . S
C1957 C1962 1.390 1_565 S
C1958 C1952 1.465 . S
C1958 C1957 1.396 . S
C1958 C1959 1.399 . S
C1959 H1945 0.929 . S
C1959 C1958 1.399 . S
C1959 C1960 1.385 . S
C1960 H1946 0.931 . S
C1960 C1959 1.385 . S
C1960 C1961 1.389 1_565 S
C1961 C1960 1.389 1_545 S
C1961 C1962 1.387 . S
C1962 H1947 0.930 . S
C1962 C1957 1.390 1_545 S
C1962 C1961 1.387 . S
H1963 C1975 0.930 . S
H1964 C1977 0.930 . S
H1965 C1978 0.930 . S
H1966 C1982 0.959 . S
H1967 C1982 0.959 . S
H1968 C1982 0.961 . S
H1969 C1983 0.960 . S
H1970 C1983 0.961 . S
H1971 C1983 0.959 . S
H1972 C1986 0.929 . S
H1973 C1987 0.931 . S
H1974 C1989 0.930 . S
C1975 H1963 0.930 . S
C1975 C1976 1.399 1_556 S
C1975 C1980 1.399 . S
C1976 C1975 1.399 1_554 S
C1976 C1977 1.376 . S
C1977 H1964 0.930 . S
C1977 C1976 1.376 . S
C1977 C1978 1.388 . S
C1978 H1965 0.930 . S
C1978 C1977 1.388 . S
C1978 C1979 1.390 . S
C1979 C1978 1.390 . S
C1979 C1980 1.394 1_554 S
C1979 C1985 1.465 . S
C1980 C1975 1.399 . S
C1980 C1979 1.394 1_556 S
C1980 C1981 1.516 . S
C1981 C1980 1.516 . S
C1981 C1982 1.502 . S
C1981 C1983 1.561 . S
C1981 C1984 1.543 . S
C1982 H1966 0.959 . S
C1982 H1967 0.959 . S
C1982 H1968 0.961 . S
C1982 C1981 1.502 . S
C1983 H1969 0.960 . S
C1983 H1970 0.961 . S
C1983 H1971 0.959 . S
C1983 C1981 1.561 . S
C1984 C1981 1.543 . S
C1984 C1985 1.380 1_556 S
C1984 C1989 1.388 . S
C1985 C1979 1.465 . S
C1985 C1984 1.380 1_554 S
C1985 C1986 1.399 . S
C1986 H1972 0.929 . S
C1986 C1985 1.399 . S
C1986 C1987 1.385 . S
C1987 H1973 0.931 . S
C1987 C1986 1.385 . S
C1987 C1988 1.389 . S
C1988 C1987 1.389 . S
C1988 C1989 1.387 1_554 S
C1989 H1974 0.930 . S
C1989 C1984 1.388 . S
C1989 C1988 1.387 1_556 S
H1990 C2002 0.930 . S
H1991 C2004 0.930 . S
H1992 C2005 0.930 . S
H1993 C2009 0.959 . S
H1994 C2009 0.959 . S
H1995 C2009 0.961 . S
H1996 C2010 0.960 . S
H1997 C2010 0.961 . S
H1998 C2010 0.959 . S
H1999 C2013 0.929 . S
H2000 C2014 0.931 . S
H2001 C2016 0.930 . S
C2002 H1990 0.930 . S
C2002 C2003 1.399 . S
C2002 C2007 1.399 . S
C2003 C2002 1.399 . S
C2003 C2004 1.376 . S
C2004 H1991 0.930 . S
C2004 C2003 1.376 . S
C2004 C2005 1.388 . S
C2005 H1992 0.930 . S
C2005 C2004 1.388 . S
C2005 C2006 1.390 . S
C2006 C2005 1.390 . S
C2006 C2007 1.394 . S
C2006 C2012 1.465 . S
C2007 C2002 1.399 . S
C2007 C2006 1.394 . S
C2007 C2008 1.516 . S
C2008 C2007 1.516 . S
C2008 C2009 1.502 . S
C2008 C2010 1.561 . S
C2008 C2011 1.526 . S
C2009 H1993 0.959 . S
C2009 H1994 0.959 . S
C2009 H1995 0.961 . S
C2009 C2008 1.502 . S
C2010 H1996 0.960 . S
C2010 H1997 0.961 . S
C2010 H1998 0.959 . S
C2010 C2008 1.561 . S
C2011 C2008 1.526 . S
C2011 C2012 1.396 . S
C2011 C2016 1.390 . S
C2012 C2006 1.465 . S
C2012 C2011 1.396 . S
C2012 C2013 1.399 . S
C2013 H1999 0.929 . S
C2013 C2012 1.399 . S
C2013 C2014 1.385 . S
C2014 H2000 0.931 . S
C2014 C2013 1.385 . S
C2014 C2015 1.389 . S
C2015 C2014 1.389 . S
C2015 C2016 1.387 . S
C2016 H2001 0.930 . S
C2016 C2011 1.390 . S
C2016 C2015 1.387 . S
H2017 C2029 0.930 . S
H2018 C2031 0.930 . S
H2019 C2032 0.930 . S
H2020 C2036 0.959 . S
H2021 C2036 0.959 . S
H2022 C2036 0.961 . S
H2023 C2037 0.960 . S
H2024 C2037 0.961 . S
H2025 C2037 0.959 . S
H2026 C2040 0.929 . S
H2027 C2041 0.931 . S
H2028 C2043 0.930 . S
C2029 H2017 0.930 . S
C2029 C2030 1.399 . S
C2029 C2034 1.399 . S
C2030 C2029 1.399 . S
C2030 C2031 1.376 . S
C2031 H2018 0.930 . S
C2031 C2030 1.376 . S
C2031 C2032 1.388 . S
C2032 H2019 0.930 . S
C2032 C2031 1.388 . S
C2032 C2033 1.390 . S
C2033 C2032 1.390 . S
C2033 C2034 1.394 . S
C2033 C2039 1.465 . S
C2034 C2029 1.399 . S
C2034 C2033 1.394 . S
C2034 C2035 1.516 . S
C2035 C2034 1.516 . S
C2035 C2036 1.502 . S
C2035 C2037 1.561 . S
C2035 C2038 1.526 . S
C2036 H2020 0.959 . S
C2036 H2021 0.959 . S
C2036 H2022 0.961 . S
C2036 C2035 1.502 . S
C2037 H2023 0.960 . S
C2037 H2024 0.961 . S
C2037 H2025 0.959 . S
C2037 C2035 1.561 . S
C2038 C2035 1.526 . S
C2038 C2039 1.396 . S
C2038 C2043 1.390 . S
C2039 C2033 1.465 . S
C2039 C2038 1.396 . S
C2039 C2040 1.399 . S
C2040 H2026 0.929 . S
C2040 C2039 1.399 . S
C2040 C2041 1.385 . S
C2041 H2027 0.931 . S
C2041 C2040 1.385 . S
C2041 C2042 1.389 . S
C2042 C2041 1.389 . S
C2042 C2043 1.387 . S
C2043 H2028 0.930 . S
C2043 C2038 1.390 . S
C2043 C2042 1.387 . S
H2044 C2056 0.930 . S
H2045 C2058 0.930 . S
H2046 C2059 0.930 . S
H2047 C2063 0.959 . S
H2048 C2063 0.959 . S
H2049 C2063 0.961 . S
H2050 C2064 0.960 . S
H2051 C2064 0.961 . S
H2052 C2064 0.959 . S
H2053 C2067 0.929 . S
H2054 C2068 0.931 . S
H2055 C2070 0.930 . S
C2056 H2044 0.930 . S
C2056 C2057 1.399 . S
C2056 C2061 1.399 . S
C2057 C2056 1.399 . S
C2057 C2058 1.376 . S
C2058 H2045 0.930 . S
C2058 C2057 1.376 . S
C2058 C2059 1.388 . S
C2059 H2046 0.930 . S
C2059 C2058 1.388 . S
C2059 C2060 1.390 . S
C2060 C2059 1.390 . S
C2060 C2061 1.394 . S
C2060 C2066 1.465 . S
C2061 C2056 1.399 . S
C2061 C2060 1.394 . S
C2061 C2062 1.516 . S
C2062 C2061 1.516 . S
C2062 C2063 1.502 . S
C2062 C2064 1.561 . S
C2062 C2065 1.526 . S
C2063 H2047 0.959 . S
C2063 H2048 0.959 . S
C2063 H2049 0.961 . S
C2063 C2062 1.502 . S
C2064 H2050 0.960 . S
C2064 H2051 0.961 . S
C2064 H2052 0.959 . S
C2064 C2062 1.561 . S
C2065 C2062 1.526 . S
C2065 C2066 1.396 . S
C2065 C2070 1.390 . S
C2066 C2060 1.465 . S
C2066 C2065 1.396 . S
C2066 C2067 1.399 . S
C2067 H2053 0.929 . S
C2067 C2066 1.399 . S
C2067 C2068 1.385 . S
C2068 H2054 0.931 . S
C2068 C2067 1.385 . S
C2068 C2069 1.389 . S
C2069 C2068 1.389 . S
C2069 C2070 1.387 . S
C2070 H2055 0.930 . S
C2070 C2065 1.390 . S
C2070 C2069 1.387 . S
H2071 C2083 0.930 . S
H2072 C2085 0.930 . S
H2073 C2086 0.930 . S
H2074 C2090 0.959 . S
H2075 C2090 0.959 . S
H2076 C2090 0.961 . S
H2077 C2091 0.960 . S
H2078 C2091 0.961 . S
H2079 C2091 0.959 . S
H2080 C2094 0.929 . S
H2081 C2095 0.931 . S
H2082 C2097 0.930 . S
C2083 H2071 0.930 . S
C2083 C2084 1.399 . S
C2083 C2088 1.399 . S
C2084 C2083 1.399 . S
C2084 C2085 1.376 . S
C2085 H2072 0.930 . S
C2085 C2084 1.376 . S
C2085 C2086 1.388 . S
C2086 H2073 0.930 . S
C2086 C2085 1.388 . S
C2086 C2087 1.390 . S
C2087 C2086 1.390 . S
C2087 C2088 1.394 . S
C2087 C2093 1.465 . S
C2088 C2083 1.399 . S
C2088 C2087 1.394 . S
C2088 C2089 1.516 . S
C2089 C2088 1.516 . S
C2089 C2090 1.502 . S
C2089 C2091 1.561 . S
C2089 C2092 1.526 . S
C2090 H2074 0.959 . S
C2090 H2075 0.959 . S
C2090 H2076 0.961 . S
C2090 C2089 1.502 . S
C2091 H2077 0.960 . S
C2091 H2078 0.961 . S
C2091 H2079 0.959 . S
C2091 C2089 1.561 . S
C2092 C2089 1.526 . S
C2092 C2093 1.396 . S
C2092 C2097 1.390 . S
C2093 C2087 1.465 . S
C2093 C2092 1.396 . S
C2093 C2094 1.399 . S
C2094 H2080 0.929 . S
C2094 C2093 1.399 . S
C2094 C2095 1.385 . S
C2095 H2081 0.931 . S
C2095 C2094 1.385 . S
C2095 C2096 1.389 . S
C2096 C2095 1.389 . S
C2096 C2097 1.387 . S
C2097 H2082 0.930 . S
C2097 C2092 1.390 . S
C2097 C2096 1.387 . S
H2098 C2110 0.930 . S
H2099 C2112 0.930 . S
H2100 C2113 0.930 . S
H2101 C2117 0.959 . S
H2102 C2117 0.959 . S
H2103 C2117 0.961 . S
H2104 C2118 0.960 . S
H2105 C2118 0.961 . S
H2106 C2118 0.959 . S
H2107 C2121 0.929 . S
H2108 C2122 0.931 . S
H2109 C2124 0.930 . S
C2110 H2098 0.930 . S
C2110 C2111 1.399 . S
C2110 C2115 1.399 . S
C2111 C2110 1.399 . S
C2111 C2112 1.376 . S
C2112 H2099 0.930 . S
C2112 C2111 1.376 . S
C2112 C2113 1.388 . S
C2113 H2100 0.930 . S
C2113 C2112 1.388 . S
C2113 C2114 1.390 . S
C2114 C2113 1.390 . S
C2114 C2115 1.394 . S
C2114 C2120 1.465 . S
C2115 C2110 1.399 . S
C2115 C2114 1.394 . S
C2115 C2116 1.516 . S
C2116 C2115 1.516 . S
C2116 C2117 1.502 . S
C2116 C2118 1.561 . S
C2116 C2119 1.526 . S
C2117 H2101 0.959 . S
C2117 H2102 0.959 . S
C2117 H2103 0.961 . S
C2117 C2116 1.502 . S
C2118 H2104 0.960 . S
C2118 H2105 0.961 . S
C2118 H2106 0.959 . S
C2118 C2116 1.561 . S
C2119 C2116 1.526 . S
C2119 C2120 1.396 . S
C2119 C2124 1.390 . S
C2120 C2114 1.465 . S
C2120 C2119 1.396 . S
C2120 C2121 1.399 . S
C2121 H2107 0.929 . S
C2121 C2120 1.399 . S
C2121 C2122 1.385 . S
C2122 H2108 0.931 . S
C2122 C2121 1.385 . S
C2122 C2123 1.389 . S
C2123 C2122 1.389 . S
C2123 C2124 1.387 . S
C2124 H2109 0.930 . S
C2124 C2119 1.390 . S
C2124 C2123 1.387 . S
H2125 C2137 0.930 . S
H2126 C2139 0.930 . S
H2127 C2140 0.930 . S
H2128 C2144 0.959 . S
H2129 C2144 0.959 . S
H2130 C2144 0.961 . S
H2131 C2145 0.960 . S
H2132 C2145 0.961 . S
H2133 C2145 0.959 . S
H2134 C2148 0.929 . S
H2135 C2149 0.931 . S
H2136 C2151 0.930 . S
C2137 H2125 0.930 . S
C2137 C2138 1.399 . S
C2137 C2142 1.399 . S
C2138 C2137 1.399 . S
C2138 C2139 1.376 . S
C2139 H2126 0.930 . S
C2139 C2138 1.376 . S
C2139 C2140 1.388 . S
C2140 H2127 0.930 . S
C2140 C2139 1.388 . S
C2140 C2141 1.390 . S
C2141 C2140 1.390 . S
C2141 C2142 1.394 . S
C2141 C2147 1.465 . S
C2142 C2137 1.399 . S
C2142 C2141 1.394 . S
C2142 C2143 1.516 . S
C2143 C2142 1.516 . S
C2143 C2144 1.502 . S
C2143 C2145 1.561 . S
C2143 C2146 1.526 . S
C2144 H2128 0.959 . S
C2144 H2129 0.959 . S
C2144 H2130 0.961 . S
C2144 C2143 1.502 . S
C2145 H2131 0.960 . S
C2145 H2132 0.961 . S
C2145 H2133 0.959 . S
C2145 C2143 1.561 . S
C2146 C2143 1.526 . S
C2146 C2147 1.396 . S
C2146 C2151 1.390 . S
C2147 C2141 1.465 . S
C2147 C2146 1.396 . S
C2147 C2148 1.399 . S
C2148 H2134 0.929 . S
C2148 C2147 1.399 . S
C2148 C2149 1.385 . S
C2149 H2135 0.931 . S
C2149 C2148 1.385 . S
C2149 C2150 1.389 . S
C2150 C2149 1.389 . S
C2150 C2151 1.387 . S
C2151 H2136 0.930 . S
C2151 C2146 1.390 . S
C2151 C2150 1.387 . S
H2152 C2164 0.930 . S
H2153 C2166 0.930 . S
H2154 C2167 0.930 . S
H2155 C2171 0.959 . S
H2156 C2171 0.959 . S
H2157 C2171 0.961 . S
H2158 C2172 0.960 . S
H2159 C2172 0.961 . S
H2160 C2172 0.959 . S
H2161 C2175 0.929 . S
H2162 C2176 0.931 . S
H2163 C2178 0.930 . S
C2164 H2152 0.930 . S
C2164 C2165 1.399 . S
C2164 C2169 1.399 . S
C2165 C2164 1.399 . S
C2165 C2166 1.376 . S
C2166 H2153 0.930 . S
C2166 C2165 1.376 . S
C2166 C2167 1.388 . S
C2167 H2154 0.930 . S
C2167 C2166 1.388 . S
C2167 C2168 1.390 . S
C2168 C2167 1.390 . S
C2168 C2169 1.394 . S
C2168 C2174 1.465 . S
C2169 C2164 1.399 . S
C2169 C2168 1.394 . S
C2169 C2170 1.516 . S
C2170 C2169 1.516 . S
C2170 C2171 1.502 . S
C2170 C2172 1.561 . S
C2170 C2173 1.526 . S
C2171 H2155 0.959 . S
C2171 H2156 0.959 . S
C2171 H2157 0.961 . S
C2171 C2170 1.502 . S
C2172 H2158 0.960 . S
C2172 H2159 0.961 . S
C2172 H2160 0.959 . S
C2172 C2170 1.561 . S
C2173 C2170 1.526 . S
C2173 C2174 1.396 . S
C2173 C2178 1.390 . S
C2174 C2168 1.465 . S
C2174 C2173 1.396 . S
C2174 C2175 1.399 . S
C2175 H2161 0.929 . S
C2175 C2174 1.399 . S
C2175 C2176 1.385 . S
C2176 H2162 0.931 . S
C2176 C2175 1.385 . S
C2176 C2177 1.389 . S
C2177 C2176 1.389 . S
C2177 C2178 1.387 . S
C2178 H2163 0.930 . S
C2178 C2173 1.390 . S
C2178 C2177 1.387 . S
H2179 C2191 0.930 . S
H2180 C2193 0.930 . S
H2181 C2194 0.930 . S
H2182 C2198 0.959 . S
H2183 C2198 0.959 . S
H2184 C2198 0.961 . S
H2185 C2199 0.960 . S
H2186 C2199 0.961 . S
H2187 C2199 0.959 . S
H2188 C2202 0.929 . S
H2189 C2203 0.931 . S
H2190 C2205 0.930 . S
C2191 H2179 0.930 . S
C2191 C2192 1.399 . S
C2191 C2196 1.399 . S
C2192 C2191 1.399 . S
C2192 C2193 1.376 . S
C2193 H2180 0.930 . S
C2193 C2192 1.376 . S
C2193 C2194 1.388 . S
C2194 H2181 0.930 . S
C2194 C2193 1.388 . S
C2194 C2195 1.390 . S
C2195 C2194 1.390 . S
C2195 C2196 1.394 . S
C2195 C2201 1.465 . S
C2196 C2191 1.399 . S
C2196 C2195 1.394 . S
C2196 C2197 1.516 . S
C2197 C2196 1.516 . S
C2197 C2198 1.502 . S
C2197 C2199 1.561 . S
C2197 C2200 1.526 . S
C2198 H2182 0.959 . S
C2198 H2183 0.959 . S
C2198 H2184 0.961 . S
C2198 C2197 1.502 . S
C2199 H2185 0.960 . S
C2199 H2186 0.961 . S
C2199 H2187 0.959 . S
C2199 C2197 1.561 . S
C2200 C2197 1.526 . S
C2200 C2201 1.396 . S
C2200 C2205 1.390 . S
C2201 C2195 1.465 . S
C2201 C2200 1.396 . S
C2201 C2202 1.399 . S
C2202 H2188 0.929 . S
C2202 C2201 1.399 . S
C2202 C2203 1.385 . S
C2203 H2189 0.931 . S
C2203 C2202 1.385 . S
C2203 C2204 1.389 . S
C2204 C2203 1.389 . S
C2204 C2205 1.387 . S
C2205 H2190 0.930 . S
C2205 C2200 1.390 . S
C2205 C2204 1.387 . S
H2206 C2218 0.930 . S
H2207 C2220 0.930 . S
H2208 C2221 0.930 . S
H2209 C2225 0.959 . S
H2210 C2225 0.959 . S
H2211 C2225 0.961 . S
H2212 C2226 0.960 . S
H2213 C2226 0.961 . S
H2214 C2226 0.959 . S
H2215 C2229 0.929 . S
H2216 C2230 0.931 . S
H2217 C2232 0.930 . S
C2218 H2206 0.930 . S
C2218 C2219 1.399 . S
C2218 C2223 1.399 . S
C2219 C2218 1.399 . S
C2219 C2220 1.376 . S
C2220 H2207 0.930 . S
C2220 C2219 1.376 . S
C2220 C2221 1.388 . S
C2221 H2208 0.930 . S
C2221 C2220 1.388 . S
C2221 C2222 1.390 . S
C2222 C2221 1.390 . S
C2222 C2223 1.394 . S
C2222 C2228 1.465 . S
C2223 C2218 1.399 . S
C2223 C2222 1.394 . S
C2223 C2224 1.516 . S
C2224 C2223 1.516 . S
C2224 C2225 1.502 . S
C2224 C2226 1.561 . S
C2224 C2227 1.526 . S
C2225 H2209 0.959 . S
C2225 H2210 0.959 . S
C2225 H2211 0.961 . S
C2225 C2224 1.502 . S
C2226 H2212 0.960 . S
C2226 H2213 0.961 . S
C2226 H2214 0.959 . S
C2226 C2224 1.561 . S
C2227 C2224 1.526 . S
C2227 C2228 1.396 . S
C2227 C2232 1.390 . S
C2228 C2222 1.465 . S
C2228 C2227 1.396 . S
C2228 C2229 1.399 . S
C2229 H2215 0.929 . S
C2229 C2228 1.399 . S
C2229 C2230 1.385 . S
C2230 H2216 0.931 . S
C2230 C2229 1.385 . S
C2230 C2231 1.389 . S
C2231 C2230 1.389 . S
C2231 C2232 1.387 . S
C2232 H2217 0.930 . S
C2232 C2227 1.390 . S
C2232 C2231 1.387 . S
H2233 C2245 0.930 . S
H2234 C2247 0.930 . S
H2235 C2248 0.930 . S
H2236 C2252 0.959 . S
H2237 C2252 0.959 . S
H2238 C2252 0.961 . S
H2239 C2253 0.960 . S
H2240 C2253 0.961 . S
H2241 C2253 0.959 . S
H2242 C2256 0.929 . S
H2243 C2257 0.931 . S
H2244 C2259 0.930 . S
C2245 H2233 0.930 . S
C2245 C2246 1.399 . S
C2245 C2250 1.399 . S
C2246 C2245 1.399 . S
C2246 C2247 1.376 . S
C2247 H2234 0.930 . S
C2247 C2246 1.376 . S
C2247 C2248 1.388 . S
C2248 H2235 0.930 . S
C2248 C2247 1.388 . S
C2248 C2249 1.390 . S
C2249 C2248 1.390 . S
C2249 C2250 1.394 . S
C2249 C2255 1.465 . S
C2250 C2245 1.399 . S
C2250 C2249 1.394 . S
C2250 C2251 1.516 . S
C2251 C2250 1.516 . S
C2251 C2252 1.502 . S
C2251 C2253 1.561 . S
C2251 C2254 1.526 . S
C2252 H2236 0.959 . S
C2252 H2237 0.959 . S
C2252 H2238 0.961 . S
C2252 C2251 1.502 . S
C2253 H2239 0.960 . S
C2253 H2240 0.961 . S
C2253 H2241 0.959 . S
C2253 C2251 1.561 . S
C2254 C2251 1.526 . S
C2254 C2255 1.396 . S
C2254 C2259 1.390 . S
C2255 C2249 1.465 . S
C2255 C2254 1.396 . S
C2255 C2256 1.399 . S
C2256 H2242 0.929 . S
C2256 C2255 1.399 . S
C2256 C2257 1.385 . S
C2257 H2243 0.931 . S
C2257 C2256 1.385 . S
C2257 C2258 1.389 . S
C2258 C2257 1.389 . S
C2258 C2259 1.387 . S
C2259 H2244 0.930 . S
C2259 C2254 1.390 . S
C2259 C2258 1.387 . S
H2260 C2272 0.930 . S
H2261 C2274 0.930 . S
H2262 C2275 0.930 . S
H2263 C2279 0.959 . S
H2264 C2279 0.959 . S
H2265 C2279 0.961 . S
H2266 C2280 0.960 . S
H2267 C2280 0.961 . S
H2268 C2280 0.959 . S
H2269 C2283 0.929 . S
H2270 C2284 0.931 . S
H2271 C2286 0.930 . S
C2272 H2260 0.930 . S
C2272 C2273 1.399 . S
C2272 C2277 1.399 . S
C2273 C2272 1.399 . S
C2273 C2274 1.376 . S
C2274 H2261 0.930 . S
C2274 C2273 1.376 . S
C2274 C2275 1.388 . S
C2275 H2262 0.930 . S
C2275 C2274 1.388 . S
C2275 C2276 1.390 . S
C2276 C2275 1.390 . S
C2276 C2277 1.394 . S
C2276 C2282 1.465 . S
C2277 C2272 1.399 . S
C2277 C2276 1.394 . S
C2277 C2278 1.516 . S
C2278 C2277 1.516 . S
C2278 C2279 1.502 . S
C2278 C2280 1.561 . S
C2278 C2281 1.526 . S
C2279 H2263 0.959 . S
C2279 H2264 0.959 . S
C2279 H2265 0.961 . S
C2279 C2278 1.502 . S
C2280 H2266 0.960 . S
C2280 H2267 0.961 . S
C2280 H2268 0.959 . S
C2280 C2278 1.561 . S
C2281 C2278 1.526 . S
C2281 C2282 1.396 . S
C2281 C2286 1.390 . S
C2282 C2276 1.465 . S
C2282 C2281 1.396 . S
C2282 C2283 1.399 . S
C2283 H2269 0.929 . S
C2283 C2282 1.399 . S
C2283 C2284 1.385 . S
C2284 H2270 0.931 . S
C2284 C2283 1.385 . S
C2284 C2285 1.389 . S
C2285 C2284 1.389 . S
C2285 C2286 1.387 . S
C2286 H2271 0.930 . S
C2286 C2281 1.390 . S
C2286 C2285 1.387 . S
H2287 C2299 0.930 . S
H2288 C2301 0.930 . S
H2289 C2302 0.930 . S
H2290 C2306 0.959 . S
H2291 C2306 0.959 . S
H2292 C2306 0.961 . S
H2293 C2307 0.960 . S
H2294 C2307 0.961 . S
H2295 C2307 0.959 . S
H2296 C2310 0.929 . S
H2297 C2311 0.931 . S
H2298 C2313 0.930 . S
C2299 H2287 0.930 . S
C2299 C2300 1.399 . S
C2299 C2304 1.399 . S
C2300 C2299 1.399 . S
C2300 C2301 1.376 . S
C2301 H2288 0.930 . S
C2301 C2300 1.376 . S
C2301 C2302 1.388 . S
C2302 H2289 0.930 . S
C2302 C2301 1.388 . S
C2302 C2303 1.390 . S
C2303 C2302 1.390 . S
C2303 C2304 1.394 . S
C2303 C2309 1.465 . S
C2304 C2299 1.399 . S
C2304 C2303 1.394 . S
C2304 C2305 1.516 . S
C2305 C2304 1.516 . S
C2305 C2306 1.502 . S
C2305 C2307 1.561 . S
C2305 C2308 1.526 . S
C2306 H2290 0.959 . S
C2306 H2291 0.959 . S
C2306 H2292 0.961 . S
C2306 C2305 1.502 . S
C2307 H2293 0.960 . S
C2307 H2294 0.961 . S
C2307 H2295 0.959 . S
C2307 C2305 1.561 . S
C2308 C2305 1.526 . S
C2308 C2309 1.396 . S
C2308 C2313 1.390 . S
C2309 C2303 1.465 . S
C2309 C2308 1.396 . S
C2309 C2310 1.399 . S
C2310 H2296 0.929 . S
C2310 C2309 1.399 . S
C2310 C2311 1.385 . S
C2311 H2297 0.931 . S
C2311 C2310 1.385 . S
C2311 C2312 1.389 . S
C2312 C2311 1.389 . S
C2312 C2313 1.387 . S
C2313 H2298 0.930 . S
C2313 C2308 1.390 . S
C2313 C2312 1.387 . S
H2314 C2326 0.930 . S
H2315 C2328 0.930 . S
H2316 C2329 0.930 . S
H2317 C2333 0.959 . S
H2318 C2333 0.959 . S
H2319 C2333 0.961 . S
H2320 C2334 0.960 . S
H2321 C2334 0.961 . S
H2322 C2334 0.959 . S
H2323 C2337 0.929 . S
H2324 C2338 0.931 1_554 S
H2325 C2340 0.930 . S
C2326 H2314 0.930 . S
C2326 C2327 1.399 . S
C2326 C2331 1.399 . S
C2327 C2326 1.399 . S
C2327 C2328 1.376 . S
C2328 H2315 0.930 . S
C2328 C2327 1.376 . S
C2328 C2329 1.388 . S
C2329 H2316 0.930 . S
C2329 C2328 1.388 . S
C2329 C2330 1.390 . S
C2330 C2329 1.390 . S
C2330 C2331 1.394 . S
C2330 C2336 1.465 . S
C2331 C2326 1.399 . S
C2331 C2330 1.394 . S
C2331 C2332 1.516 . S
C2332 C2331 1.516 . S
C2332 C2333 1.502 . S
C2332 C2334 1.561 . S
C2332 C2335 1.526 . S
C2333 H2317 0.959 . S
C2333 H2318 0.959 . S
C2333 H2319 0.961 . S
C2333 C2332 1.502 . S
C2334 H2320 0.960 . S
C2334 H2321 0.961 . S
C2334 H2322 0.959 . S
C2334 C2332 1.561 . S
C2335 C2332 1.526 . S
C2335 C2336 1.396 . S
C2335 C2340 1.390 . S
C2336 C2330 1.465 . S
C2336 C2335 1.396 . S
C2336 C2337 1.399 . S
C2337 H2323 0.929 . S
C2337 C2336 1.399 . S
C2337 C2338 1.385 . S
C2338 H2324 0.931 1_556 S
C2338 C2337 1.385 . S
C2338 C2339 1.389 . S
C2339 C2338 1.389 . S
C2339 C2340 1.387 . S
C2340 H2325 0.930 . S
C2340 C2335 1.390 . S
C2340 C2339 1.387 . S
H2341 C2353 0.930 . S
H2342 C2355 0.930 . S
H2343 C2356 0.930 . S
H2344 C2360 0.959 . S
H2345 C2360 0.959 . S
H2346 C2360 0.961 . S
H2347 C2361 0.960 . S
H2348 C2361 0.961 . S
H2349 C2361 0.959 . S
H2350 C2364 0.929 . S
H2351 C2365 0.931 . S
H2352 C2367 0.930 . S
C2353 H2341 0.930 . S
C2353 C2354 1.399 . S
C2353 C2358 1.399 . S
C2354 C2353 1.399 . S
C2354 C2355 1.376 . S
C2355 H2342 0.930 . S
C2355 C2354 1.376 . S
C2355 C2356 1.388 . S
C2356 H2343 0.930 . S
C2356 C2355 1.388 . S
C2356 C2357 1.390 . S
C2357 C2356 1.390 . S
C2357 C2358 1.394 . S
C2357 C2363 1.465 . S
C2358 C2353 1.399 . S
C2358 C2357 1.394 . S
C2358 C2359 1.516 . S
C2359 C2358 1.516 . S
C2359 C2360 1.502 . S
C2359 C2361 1.561 . S
C2359 C2362 1.526 . S
C2360 H2344 0.959 . S
C2360 H2345 0.959 . S
C2360 H2346 0.961 . S
C2360 C2359 1.502 . S
C2361 H2347 0.960 . S
C2361 H2348 0.961 . S
C2361 H2349 0.959 . S
C2361 C2359 1.561 . S
C2362 C2359 1.526 . S
C2362 C2363 1.396 . S
C2362 C2367 1.390 . S
C2363 C2357 1.465 . S
C2363 C2362 1.396 . S
C2363 C2364 1.399 . S
C2364 H2350 0.929 . S
C2364 C2363 1.399 . S
C2364 C2365 1.385 . S
C2365 H2351 0.931 . S
C2365 C2364 1.385 . S
C2365 C2366 1.389 . S
C2366 C2365 1.389 . S
C2366 C2367 1.387 . S
C2367 H2352 0.930 . S
C2367 C2362 1.390 . S
C2367 C2366 1.387 . S
H2368 C2380 0.930 . S
H2369 C2382 0.930 . S
H2370 C2383 0.930 . S
H2371 C2387 0.959 . S
H2372 C2387 0.959 . S
H2373 C2387 0.961 . S
H2374 C2388 0.960 . S
H2375 C2388 0.961 . S
H2376 C2388 0.959 . S
H2377 C2391 0.929 . S
H2378 C2392 0.931 . S
H2379 C2394 0.930 . S
C2380 H2368 0.930 . S
C2380 C2381 1.399 . S
C2380 C2385 1.399 . S
C2381 C2380 1.399 . S
C2381 C2382 1.376 1_545 S
C2382 H2369 0.930 . S
C2382 C2381 1.376 1_565 S
C2382 C2383 1.388 . S
C2383 H2370 0.930 . S
C2383 C2382 1.388 . S
C2383 C2384 1.390 1_565 S
C2384 C2383 1.390 1_545 S
C2384 C2385 1.394 . S
C2384 C2390 1.465 . S
C2385 C2380 1.399 . S
C2385 C2384 1.394 . S
C2385 C2386 1.516 . S
C2386 C2385 1.516 . S
C2386 C2387 1.502 . S
C2386 C2388 1.561 . S
C2386 C2389 1.526 . S
C2387 H2371 0.959 . S
C2387 H2372 0.959 . S
C2387 H2373 0.961 . S
C2387 C2386 1.502 . S
C2388 H2374 0.960 . S
C2388 H2375 0.961 . S
C2388 H2376 0.959 . S
C2388 C2386 1.561 . S
C2389 C2386 1.526 . S
C2389 C2390 1.396 . S
C2389 C2394 1.390 . S
C2390 C2384 1.465 . S
C2390 C2389 1.396 . S
C2390 C2391 1.399 1_545 S
C2391 H2377 0.929 . S
C2391 C2390 1.399 1_565 S
C2391 C2392 1.385 . S
C2392 H2378 0.931 . S
C2392 C2391 1.385 . S
C2392 C2393 1.389 1_565 S
C2393 C2392 1.389 1_545 S
C2393 C2394 1.387 . S
C2394 H2379 0.930 . S
C2394 C2389 1.390 . S
C2394 C2393 1.387 . S
H2395 C2407 0.930 . S
H2396 C2409 0.930 . S
H2397 C2410 0.930 . S
H2398 C2414 0.959 . S
H2399 C2414 0.959 . S
H2400 C2414 0.961 . S
H2401 C2415 0.960 . S
H2402 C2415 0.961 . S
H2403 C2415 0.959 . S
H2404 C2418 0.929 . S
H2405 C2419 0.931 . S
H2406 C2421 0.930 . S
C2407 H2395 0.930 . S
C2407 C2408 1.399 . S
C2407 C2412 1.399 . S
C2408 C2407 1.399 . S
C2408 C2409 1.376 . S
C2409 H2396 0.930 . S
C2409 C2408 1.376 . S
C2409 C2410 1.388 . S
C2410 H2397 0.930 . S
C2410 C2409 1.388 . S
C2410 C2411 1.390 . S
C2411 C2410 1.390 . S
C2411 C2412 1.394 . S
C2411 C2417 1.465 . S
C2412 C2407 1.399 . S
C2412 C2411 1.394 . S
C2412 C2413 1.516 . S
C2413 C2412 1.516 . S
C2413 C2414 1.502 . S
C2413 C2415 1.561 . S
C2413 C2416 1.526 . S
C2414 H2398 0.959 . S
C2414 H2399 0.959 . S
C2414 H2400 0.961 . S
C2414 C2413 1.502 . S
C2415 H2401 0.960 . S
C2415 H2402 0.961 . S
C2415 H2403 0.959 . S
C2415 C2413 1.561 . S
C2416 C2413 1.526 . S
C2416 C2417 1.396 . S
C2416 C2421 1.390 . S
C2417 C2411 1.465 . S
C2417 C2416 1.396 . S
C2417 C2418 1.399 . S
C2418 H2404 0.929 . S
C2418 C2417 1.399 . S
C2418 C2419 1.385 . S
C2419 H2405 0.931 . S
C2419 C2418 1.385 . S
C2419 C2420 1.389 . S
C2420 C2419 1.389 . S
C2420 C2421 1.387 . S
C2421 H2406 0.930 . S
C2421 C2416 1.390 . S
C2421 C2420 1.387 . S
H2422 C2434 0.930 1_565 S
H2423 C2436 0.930 . S
H2424 C2437 0.930 . S
H2425 C2441 0.959 . S
H2426 C2441 0.959 . S
H2427 C2441 0.961 . S
H2428 C2442 0.960 . S
H2429 C2442 0.961 . S
H2430 C2442 0.959 . S
H2431 C2445 0.929 . S
H2432 C2446 0.931 . S
H2433 C2448 0.930 . S
C2434 H2422 0.930 1_545 S
C2434 C2435 1.399 . S
C2434 C2439 1.399 . S
C2435 C2434 1.399 . S
C2435 C2436 1.376 . S
C2436 H2423 0.930 . S
C2436 C2435 1.376 . S
C2436 C2437 1.388 . S
C2437 H2424 0.930 . S
C2437 C2436 1.388 . S
C2437 C2438 1.390 . S
C2438 C2437 1.390 . S
C2438 C2439 1.394 . S
C2438 C2444 1.465 . S
C2439 C2434 1.399 . S
C2439 C2438 1.394 . S
C2439 C2440 1.516 . S
C2440 C2439 1.516 . S
C2440 C2441 1.502 1_545 S
C2440 C2442 1.561 1_545 S
C2440 C2443 1.526 . S
C2441 H2425 0.959 . S
C2441 H2426 0.959 . S
C2441 H2427 0.961 . S
C2441 C2440 1.502 1_565 S
C2442 H2428 0.960 . S
C2442 H2429 0.961 . S
C2442 H2430 0.959 . S
C2442 C2440 1.561 1_565 S
C2443 C2440 1.526 . S
C2443 C2444 1.396 . S
C2443 C2448 1.390 . S
C2444 C2438 1.465 . S
C2444 C2443 1.396 . S
C2444 C2445 1.399 . S
C2445 H2431 0.929 . S
C2445 C2444 1.399 . S
C2445 C2446 1.385 . S
C2446 H2432 0.931 . S
C2446 C2445 1.385 . S
C2446 C2447 1.389 . S
C2447 C2446 1.389 . S
C2447 C2448 1.387 . S
C2448 H2433 0.930 . S
C2448 C2443 1.390 . S
C2448 C2447 1.387 . S
H2449 C2461 0.930 . S
H2450 C2463 0.930 . S
H2451 C2464 0.930 . S
H2452 C2468 0.959 . S
H2453 C2468 0.959 . S
H2454 C2468 0.961 . S
H2455 C2469 0.960 . S
H2456 C2469 0.961 . S
H2457 C2469 0.959 . S
H2458 C2472 0.929 . S
H2459 C2473 0.931 . S
H2460 C2475 0.930 . S
C2461 H2449 0.930 . S
C2461 C2462 1.399 . S
C2461 C2466 1.399 . S
C2462 C2461 1.399 . S
C2462 C2463 1.376 . S
C2463 H2450 0.930 . S
C2463 C2462 1.376 . S
C2463 C2464 1.388 . S
C2464 H2451 0.930 . S
C2464 C2463 1.388 . S
C2464 C2465 1.390 . S
C2465 C2464 1.390 . S
C2465 C2466 1.394 . S
C2465 C2471 1.465 . S
C2466 C2461 1.399 . S
C2466 C2465 1.394 . S
C2466 C2467 1.516 . S
C2467 C2466 1.516 . S
C2467 C2468 1.502 . S
C2467 C2469 1.561 . S
C2467 C2470 1.526 . S
C2468 H2452 0.959 . S
C2468 H2453 0.959 . S
C2468 H2454 0.961 . S
C2468 C2467 1.502 . S
C2469 H2455 0.960 . S
C2469 H2456 0.961 . S
C2469 H2457 0.959 . S
C2469 C2467 1.561 . S
C2470 C2467 1.526 . S
C2470 C2471 1.396 . S
C2470 C2475 1.390 . S
C2471 C2465 1.465 . S
C2471 C2470 1.396 . S
C2471 C2472 1.399 . S
C2472 H2458 0.929 . S
C2472 C2471 1.399 . S
C2472 C2473 1.385 . S
C2473 H2459 0.931 . S
C2473 C2472 1.385 . S
C2473 C2474 1.389 . S
C2474 C2473 1.389 . S
C2474 C2475 1.387 . S
C2475 H2460 0.930 . S
C2475 C2470 1.390 . S
C2475 C2474 1.387 . S
H2476 C2488 0.930 . S
H2477 C2490 0.930 . S
H2478 C2491 0.930 . S
H2479 C2495 0.959 . S
H2480 C2495 0.959 . S
H2481 C2495 0.961 . S
H2482 C2496 0.960 . S
H2483 C2496 0.961 . S
H2484 C2496 0.959 . S
H2485 C2499 0.929 . S
H2486 C2500 0.931 . S
H2487 C2502 0.930 1_565 S
C2488 H2476 0.930 . S
C2488 C2489 1.399 1_565 S
C2488 C2493 1.399 1_565 S
C2489 C2488 1.399 1_545 S
C2489 C2490 1.376 . S
C2490 H2477 0.930 . S
C2490 C2489 1.376 . S
C2490 C2491 1.388 . S
C2491 H2478 0.930 . S
C2491 C2490 1.388 . S
C2491 C2492 1.390 . S
C2492 C2491 1.390 . S
C2492 C2493 1.394 . S
C2492 C2498 1.465 . S
C2493 C2488 1.399 1_545 S
C2493 C2492 1.394 . S
C2493 C2494 1.516 1_545 S
C2494 C2493 1.516 1_565 S
C2494 C2495 1.502 . S
C2494 C2496 1.561 . S
C2494 C2497 1.526 1_565 S
C2495 H2479 0.959 . S
C2495 H2480 0.959 . S
C2495 H2481 0.961 . S
C2495 C2494 1.502 . S
C2496 H2482 0.960 . S
C2496 H2483 0.961 . S
C2496 H2484 0.959 . S
C2496 C2494 1.561 . S
C2497 C2494 1.526 1_545 S
C2497 C2498 1.396 . S
C2497 C2502 1.390 . S
C2498 C2492 1.465 . S
C2498 C2497 1.396 . S
C2498 C2499 1.399 . S
C2499 H2485 0.929 . S
C2499 C2498 1.399 . S
C2499 C2500 1.385 . S
C2500 H2486 0.931 . S
C2500 C2499 1.385 . S
C2500 C2501 1.389 . S
C2501 C2500 1.389 . S
C2501 C2502 1.387 . S
C2502 H2487 0.930 1_545 S
C2502 C2497 1.390 . S
C2502 C2501 1.387 . S
H2503 C2515 0.930 . S
H2504 C2517 0.930 . S
H2505 C2518 0.930 . S
H2506 C2522 0.959 . S
H2507 C2522 0.959 . S
H2508 C2522 0.961 . S
H2509 C2523 0.960 . S
H2510 C2523 0.961 . S
H2511 C2523 0.959 . S
H2512 C2526 0.929 . S
H2513 C2527 0.931 . S
H2514 C2529 0.930 . S
C2515 H2503 0.930 . S
C2515 C2516 1.399 . S
C2515 C2520 1.399 . S
C2516 C2515 1.399 . S
C2516 C2517 1.376 . S
C2517 H2504 0.930 . S
C2517 C2516 1.376 . S
C2517 C2518 1.388 . S
C2518 H2505 0.930 . S
C2518 C2517 1.388 . S
C2518 C2519 1.390 . S
C2519 C2518 1.390 . S
C2519 C2520 1.394 . S
C2519 C2525 1.465 . S
C2520 C2515 1.399 . S
C2520 C2519 1.394 . S
C2520 C2521 1.516 . S
C2521 C2520 1.516 . S
C2521 C2522 1.502 . S
C2521 C2523 1.561 . S
C2521 C2524 1.526 . S
C2522 H2506 0.959 . S
C2522 H2507 0.959 . S
C2522 H2508 0.961 . S
C2522 C2521 1.502 . S
C2523 H2509 0.960 . S
C2523 H2510 0.961 . S
C2523 H2511 0.959 . S
C2523 C2521 1.561 . S
C2524 C2521 1.526 . S
C2524 C2525 1.396 . S
C2524 C2529 1.390 . S
C2525 C2519 1.465 . S
C2525 C2524 1.396 . S
C2525 C2526 1.399 . S
C2526 H2512 0.929 . S
C2526 C2525 1.399 . S
C2526 C2527 1.385 . S
C2527 H2513 0.931 . S
C2527 C2526 1.385 . S
C2527 C2528 1.389 . S
C2528 C2527 1.389 . S
C2528 C2529 1.387 . S
C2529 H2514 0.930 . S
C2529 C2524 1.390 . S
C2529 C2528 1.387 . S
H2530 C2542 0.930 . S
H2531 C2544 0.930 . S
H2532 C2545 0.930 . S
H2533 C2549 0.959 . S
H2534 C2549 0.959 . S
H2535 C2549 0.961 . S
H2536 C2550 0.960 . S
H2537 C2550 0.961 . S
H2538 C2550 0.959 . S
H2539 C2553 0.929 . S
H2540 C2554 0.931 . S
H2541 C2556 0.930 . S
C2542 H2530 0.930 . S
C2542 C2543 1.407 . S
C2542 C2547 1.399 . S
C2543 C2542 1.407 . S
C2543 C2544 1.367 1_545 S
C2544 H2531 0.930 . S
C2544 C2543 1.367 1_565 S
C2544 C2545 1.388 . S
C2545 H2532 0.930 . S
C2545 C2544 1.388 . S
C2545 C2546 1.390 . S
C2546 C2545 1.390 . S
C2546 C2547 1.394 1_565 S
C2546 C2552 1.465 . S
C2547 C2542 1.399 . S
C2547 C2546 1.394 1_545 S
C2547 C2548 1.516 . S
C2548 C2547 1.516 . S
C2548 C2549 1.502 . S
C2548 C2550 1.561 . S
C2548 C2551 1.526 . S
C2549 H2533 0.959 . S
C2549 H2534 0.959 . S
C2549 H2535 0.961 . S
C2549 C2548 1.502 . S
C2550 H2536 0.960 . S
C2550 H2537 0.961 . S
C2550 H2538 0.959 . S
C2550 C2548 1.561 . S
C2551 C2548 1.526 . S
C2551 C2552 1.396 1_545 S
C2551 C2556 1.390 . S
C2552 C2546 1.465 . S
C2552 C2551 1.396 1_565 S
C2552 C2553 1.399 . S
C2553 H2539 0.929 . S
C2553 C2552 1.399 . S
C2553 C2554 1.385 . S
C2554 H2540 0.931 . S
C2554 C2553 1.385 . S
C2554 C2555 1.389 . S
C2555 C2554 1.389 . S
C2555 C2556 1.387 1_565 S
C2556 H2541 0.930 . S
C2556 C2551 1.390 . S
C2556 C2555 1.387 1_545 S
H2557 C2569 0.930 . S
H2558 C2571 0.930 . S
H2559 C2572 0.930 . S
H2560 C2576 0.959 . S
H2561 C2576 0.959 . S
H2562 C2576 0.961 . S
H2563 C2577 0.960 . S
H2564 C2577 0.961 . S
H2565 C2577 0.959 . S
H2566 C2580 0.929 . S
H2567 C2581 0.931 . S
H2568 C2583 0.930 . S
C2569 H2557 0.930 . S
C2569 C2570 1.399 . S
C2569 C2574 1.399 . S
C2570 C2569 1.399 . S
C2570 C2571 1.376 . S
C2571 H2558 0.930 . S
C2571 C2570 1.376 . S
C2571 C2572 1.388 . S
C2572 H2559 0.930 . S
C2572 C2571 1.388 . S
C2572 C2573 1.390 . S
C2573 C2572 1.390 . S
C2573 C2574 1.394 . S
C2573 C2579 1.465 . S
C2574 C2569 1.399 . S
C2574 C2573 1.394 . S
C2574 C2575 1.516 . S
C2575 C2574 1.516 . S
C2575 C2576 1.502 . S
C2575 C2577 1.561 . S
C2575 C2578 1.526 . S
C2576 H2560 0.959 . S
C2576 H2561 0.959 . S
C2576 H2562 0.961 . S
C2576 C2575 1.502 . S
C2577 H2563 0.960 . S
C2577 H2564 0.961 . S
C2577 H2565 0.959 . S
C2577 C2575 1.561 . S
C2578 C2575 1.526 . S
C2578 C2579 1.396 . S
C2578 C2583 1.390 . S
C2579 C2573 1.465 . S
C2579 C2578 1.396 . S
C2579 C2580 1.399 . S
C2580 H2566 0.929 . S
C2580 C2579 1.399 . S
C2580 C2581 1.385 . S
C2581 H2567 0.931 . S
C2581 C2580 1.385 . S
C2581 C2582 1.389 . S
C2582 C2581 1.389 . S
C2582 C2583 1.387 . S
C2583 H2568 0.930 . S
C2583 C2578 1.390 . S
C2583 C2582 1.387 . S
H2584 C2596 0.930 1_556 S
H2585 C2598 0.930 . S
H2586 C2599 0.930 . S
H2587 C2603 0.959 . S
H2588 C2603 0.959 . S
H2589 C2603 0.961 . S
H2590 C2604 0.960 . S
H2591 C2604 0.961 . S
H2592 C2604 0.959 . S
H2593 C2607 0.929 . S
H2594 C2608 0.931 . S
H2595 C2610 0.930 . S
C2596 H2584 0.930 1_554 S
C2596 C2597 1.399 . S
C2596 C2601 1.399 . S
C2597 C2596 1.399 . S
C2597 C2598 1.376 . S
C2598 H2585 0.930 . S
C2598 C2597 1.376 . S
C2598 C2599 1.388 . S
C2599 H2586 0.930 . S
C2599 C2598 1.388 . S
C2599 C2600 1.390 . S
C2600 C2599 1.390 . S
C2600 C2601 1.394 . S
C2600 C2606 1.465 . S
C2601 C2596 1.399 . S
C2601 C2600 1.394 . S
C2601 C2602 1.516 1_554 S
C2602 C2601 1.516 1_556 S
C2602 C2603 1.502 . S
C2602 C2604 1.561 . S
C2602 C2605 1.523 . S
C2603 H2587 0.959 . S
C2603 H2588 0.959 . S
C2603 H2589 0.961 . S
C2603 C2602 1.502 . S
C2604 H2590 0.960 . S
C2604 H2591 0.961 . S
C2604 H2592 0.959 . S
C2604 C2602 1.561 . S
C2605 C2602 1.523 . S
C2605 C2606 1.401 1_556 S
C2605 C2610 1.388 . S
C2606 C2600 1.465 . S
C2606 C2605 1.401 1_554 S
C2606 C2607 1.399 . S
C2607 H2593 0.929 . S
C2607 C2606 1.399 . S
C2607 C2608 1.385 . S
C2608 H2594 0.931 . S
C2608 C2607 1.385 . S
C2608 C2609 1.389 . S
C2609 C2608 1.389 . S
C2609 C2610 1.387 1_554 S
C2610 H2595 0.930 . S
C2610 C2605 1.388 . S
C2610 C2609 1.387 1_556 S
H2611 C2623 0.930 1_556 S
H2612 C2625 0.930 . S
H2613 C2626 0.930 . S
H2614 C2630 0.959 . S
H2615 C2630 0.959 . S
H2616 C2630 0.961 . S
H2617 C2631 0.960 . S
H2618 C2631 0.961 . S
H2619 C2631 0.959 . S
H2620 C2634 0.929 . S
H2621 C2635 0.931 . S
H2622 C2637 0.930 1_556 S
C2623 H2611 0.930 1_554 S
C2623 C2624 1.399 . S
C2623 C2628 1.399 . S
C2624 C2623 1.399 . S
C2624 C2625 1.376 . S
C2625 H2612 0.930 . S
C2625 C2624 1.376 . S
C2625 C2626 1.388 . S
C2626 H2613 0.930 . S
C2626 C2625 1.388 . S
C2626 C2627 1.390 . S
C2627 C2626 1.390 . S
C2627 C2628 1.394 . S
C2627 C2633 1.465 . S
C2628 C2623 1.399 . S
C2628 C2627 1.394 . S
C2628 C2629 1.516 1_554 S
C2629 C2628 1.516 1_556 S
C2629 C2630 1.502 . S
C2629 C2631 1.561 . S
C2629 C2632 1.526 1_556 S
C2630 H2614 0.959 . S
C2630 H2615 0.959 . S
C2630 H2616 0.961 . S
C2630 C2629 1.502 . S
C2631 H2617 0.960 . S
C2631 H2618 0.961 . S
C2631 H2619 0.959 . S
C2631 C2629 1.561 . S
C2632 C2629 1.526 1_554 S
C2632 C2633 1.396 . S
C2632 C2637 1.390 . S
C2633 C2627 1.465 . S
C2633 C2632 1.396 . S
C2633 C2634 1.399 . S
C2634 H2620 0.929 . S
C2634 C2633 1.399 . S
C2634 C2635 1.385 . S
C2635 H2621 0.931 . S
C2635 C2634 1.385 . S
C2635 C2636 1.389 . S
C2636 C2635 1.389 . S
C2636 C2637 1.387 . S
C2637 H2622 0.930 1_554 S
C2637 C2632 1.390 . S
C2637 C2636 1.387 . S
H2638 C2650 0.930 . S
H2639 C2652 0.930 . S
H2640 C2653 0.930 . S
H2641 C2657 0.959 . S
H2642 C2657 0.959 . S
H2643 C2657 0.961 . S
H2644 C2658 0.960 . S
H2645 C2658 0.961 . S
H2646 C2658 0.959 . S
H2647 C2661 0.929 . S
H2648 C2662 0.931 . S
H2649 C2664 0.930 . S
C2650 H2638 0.930 . S
C2650 C2651 1.399 . S
C2650 C2655 1.399 . S
C2651 C2650 1.399 . S
C2651 C2652 1.376 . S
C2652 H2639 0.930 . S
C2652 C2651 1.376 . S
C2652 C2653 1.388 . S
C2653 H2640 0.930 . S
C2653 C2652 1.388 . S
C2653 C2654 1.390 . S
C2654 C2653 1.390 . S
C2654 C2655 1.394 . S
C2654 C2660 1.465 . S
C2655 C2650 1.399 . S
C2655 C2654 1.394 . S
C2655 C2656 1.516 . S
C2656 C2655 1.516 . S
C2656 C2657 1.502 . S
C2656 C2658 1.561 . S
C2656 C2659 1.526 . S
C2657 H2641 0.959 . S
C2657 H2642 0.959 . S
C2657 H2643 0.961 . S
C2657 C2656 1.502 . S
C2658 H2644 0.960 . S
C2658 H2645 0.961 . S
C2658 H2646 0.959 . S
C2658 C2656 1.561 . S
C2659 C2656 1.526 . S
C2659 C2660 1.396 . S
C2659 C2664 1.390 . S
C2660 C2654 1.465 . S
C2660 C2659 1.396 . S
C2660 C2661 1.399 . S
C2661 H2647 0.929 . S
C2661 C2660 1.399 . S
C2661 C2662 1.385 . S
C2662 H2648 0.931 . S
C2662 C2661 1.385 . S
C2662 C2663 1.389 . S
C2663 C2662 1.389 . S
C2663 C2664 1.387 . S
C2664 H2649 0.930 . S
C2664 C2659 1.390 . S
C2664 C2663 1.387 . S
H2665 C2677 0.930 . S
H2666 C2679 0.930 . S
H2667 C2680 0.930 . S
H2668 C2684 0.959 . S
H2669 C2684 0.959 . S
H2670 C2684 0.961 . S
H2671 C2685 0.960 . S
H2672 C2685 0.961 . S
H2673 C2685 0.959 . S
H2674 C2688 0.929 . S
H2675 C2689 0.931 . S
H2676 C2691 0.930 . S
C2677 H2665 0.930 . S
C2677 C2678 1.399 . S
C2677 C2682 1.399 . S
C2678 C2677 1.399 . S
C2678 C2679 1.376 . S
C2679 H2666 0.930 . S
C2679 C2678 1.376 . S
C2679 C2680 1.388 . S
C2680 H2667 0.930 . S
C2680 C2679 1.388 . S
C2680 C2681 1.390 . S
C2681 C2680 1.390 . S
C2681 C2682 1.394 . S
C2681 C2687 1.465 . S
C2682 C2677 1.399 . S
C2682 C2681 1.394 . S
C2682 C2683 1.516 . S
C2683 C2682 1.516 . S
C2683 C2684 1.502 . S
C2683 C2685 1.561 . S
C2683 C2686 1.526 . S
C2684 H2668 0.959 . S
C2684 H2669 0.959 . S
C2684 H2670 0.961 . S
C2684 C2683 1.502 . S
C2685 H2671 0.960 . S
C2685 H2672 0.961 . S
C2685 H2673 0.959 . S
C2685 C2683 1.561 . S
C2686 C2683 1.526 . S
C2686 C2687 1.396 . S
C2686 C2691 1.390 . S
C2687 C2681 1.465 . S
C2687 C2686 1.396 . S
C2687 C2688 1.399 . S
C2688 H2674 0.929 . S
C2688 C2687 1.399 . S
C2688 C2689 1.385 . S
C2689 H2675 0.931 . S
C2689 C2688 1.385 . S
C2689 C2690 1.389 . S
C2690 C2689 1.389 . S
C2690 C2691 1.387 . S
C2691 H2676 0.930 . S
C2691 C2686 1.390 . S
C2691 C2690 1.387 . S
H2692 C2704 0.930 . S
H2693 C2706 0.930 . S
H2694 C2707 0.930 . S
H2695 C2711 0.959 . S
H2696 C2711 0.959 . S
H2697 C2711 0.961 . S
H2698 C2712 0.960 . S
H2699 C2712 0.961 . S
H2700 C2712 0.959 . S
H2701 C2715 0.929 . S
H2702 C2716 0.931 . S
H2703 C2718 0.930 . S
C2704 H2692 0.930 . S
C2704 C2705 1.399 1_565 S
C2704 C2709 1.399 . S
C2705 C2704 1.399 1_545 S
C2705 C2706 1.376 . S
C2706 H2693 0.930 . S
C2706 C2705 1.376 . S
C2706 C2707 1.388 . S
C2707 H2694 0.930 . S
C2707 C2706 1.388 . S
C2707 C2708 1.390 1_545 S
C2708 C2707 1.390 1_565 S
C2708 C2709 1.394 . S
C2708 C2714 1.465 . S
C2709 C2704 1.399 . S
C2709 C2708 1.394 . S
C2709 C2710 1.516 . S
C2710 C2709 1.516 . S
C2710 C2711 1.502 . S
C2710 C2712 1.561 . S
C2710 C2713 1.526 . S
C2711 H2695 0.959 . S
C2711 H2696 0.959 . S
C2711 H2697 0.961 . S
C2711 C2710 1.502 . S
C2712 H2698 0.960 . S
C2712 H2699 0.961 . S
C2712 H2700 0.959 . S
C2712 C2710 1.561 . S
C2713 C2710 1.526 . S
C2713 C2714 1.396 . S
C2713 C2718 1.390 . S
C2714 C2708 1.465 . S
C2714 C2713 1.396 . S
C2714 C2715 1.399 . S
C2715 H2701 0.929 . S
C2715 C2714 1.399 . S
C2715 C2716 1.385 . S
C2716 H2702 0.931 . S
C2716 C2715 1.385 . S
C2716 C2717 1.389 . S
C2717 C2716 1.389 . S
C2717 C2718 1.387 . S
C2718 H2703 0.930 . S
C2718 C2713 1.390 . S
C2718 C2717 1.387 . S
H2719 C2731 0.930 . S
H2720 C2733 0.930 . S
H2721 C2734 0.930 . S
H2722 C2738 0.959 . S
H2723 C2738 0.959 . S
H2724 C2738 0.961 . S
H2725 C2739 0.960 . S
H2726 C2739 0.961 . S
H2727 C2739 0.959 . S
H2728 C2742 0.929 . S
H2729 C2743 0.931 . S
H2730 C2745 0.930 . S
C2731 H2719 0.930 . S
C2731 C2732 1.399 . S
C2731 C2736 1.399 . S
C2732 C2731 1.399 . S
C2732 C2733 1.376 . S
C2733 H2720 0.930 . S
C2733 C2732 1.376 . S
C2733 C2734 1.388 . S
C2734 H2721 0.930 . S
C2734 C2733 1.388 . S
C2734 C2735 1.390 . S
C2735 C2734 1.390 . S
C2735 C2736 1.394 . S
C2735 C2741 1.465 . S
C2736 C2731 1.399 . S
C2736 C2735 1.394 . S
C2736 C2737 1.516 . S
C2737 C2736 1.516 . S
C2737 C2738 1.502 . S
C2737 C2739 1.561 . S
C2737 C2740 1.526 . S
C2738 H2722 0.959 . S
C2738 H2723 0.959 . S
C2738 H2724 0.961 . S
C2738 C2737 1.502 . S
C2739 H2725 0.960 . S
C2739 H2726 0.961 . S
C2739 H2727 0.959 . S
C2739 C2737 1.561 . S
C2740 C2737 1.526 . S
C2740 C2741 1.396 . S
C2740 C2745 1.390 . S
C2741 C2735 1.465 . S
C2741 C2740 1.396 . S
C2741 C2742 1.399 . S
C2742 H2728 0.929 . S
C2742 C2741 1.399 . S
C2742 C2743 1.385 . S
C2743 H2729 0.931 . S
C2743 C2742 1.385 . S
C2743 C2744 1.389 . S
C2744 C2743 1.389 . S
C2744 C2745 1.387 . S
C2745 H2730 0.930 . S
C2745 C2740 1.390 . S
C2745 C2744 1.387 . S
H2746 C2758 0.930 . S
H2747 C2760 0.930 . S
H2748 C2761 0.930 . S
H2749 C2765 0.959 . S
H2750 C2765 0.959 . S
H2751 C2765 0.961 . S
H2752 C2766 0.960 . S
H2753 C2766 0.961 . S
H2754 C2766 0.959 . S
H2755 C2769 0.929 . S
H2756 C2770 0.931 . S
H2757 C2772 0.930 . S
C2758 H2746 0.930 . S
C2758 C2759 1.399 . S
C2758 C2763 1.399 . S
C2759 C2758 1.399 . S
C2759 C2760 1.376 . S
C2760 H2747 0.930 . S
C2760 C2759 1.376 . S
C2760 C2761 1.388 . S
C2761 H2748 0.930 . S
C2761 C2760 1.388 . S
C2761 C2762 1.390 . S
C2762 C2761 1.390 . S
C2762 C2763 1.394 . S
C2762 C2768 1.465 . S
C2763 C2758 1.399 . S
C2763 C2762 1.394 . S
C2763 C2764 1.516 . S
C2764 C2763 1.516 . S
C2764 C2765 1.502 . S
C2764 C2766 1.561 . S
C2764 C2767 1.526 . S
C2765 H2749 0.959 . S
C2765 H2750 0.959 . S
C2765 H2751 0.961 . S
C2765 C2764 1.502 . S
C2766 H2752 0.960 . S
C2766 H2753 0.961 . S
C2766 H2754 0.959 . S
C2766 C2764 1.561 . S
C2767 C2764 1.526 . S
C2767 C2768 1.396 . S
C2767 C2772 1.390 . S
C2768 C2762 1.465 . S
C2768 C2767 1.396 . S
C2768 C2769 1.399 . S
C2769 H2755 0.929 . S
C2769 C2768 1.399 . S
C2769 C2770 1.385 . S
C2770 H2756 0.931 . S
C2770 C2769 1.385 . S
C2770 C2771 1.389 . S
C2771 C2770 1.389 . S
C2771 C2772 1.387 . S
C2772 H2757 0.930 . S
C2772 C2767 1.390 . S
C2772 C2771 1.387 . S
H2773 C2785 0.930 . S
H2774 C2787 0.930 . S
H2775 C2788 0.930 . S
H2776 C2792 0.959 . S
H2777 C2792 0.959 . S
H2778 C2792 0.961 . S
H2779 C2793 0.960 . S
H2780 C2793 0.961 . S
H2781 C2793 0.959 . S
H2782 C2796 0.929 . S
H2783 C2797 0.931 . S
H2784 C2799 0.930 . S
C2785 H2773 0.930 . S
C2785 C2786 1.399 . S
C2785 C2790 1.399 . S
C2786 C2785 1.399 . S
C2786 C2787 1.376 . S
C2787 H2774 0.930 . S
C2787 C2786 1.376 . S
C2787 C2788 1.388 . S
C2788 H2775 0.930 . S
C2788 C2787 1.388 . S
C2788 C2789 1.390 . S
C2789 C2788 1.390 . S
C2789 C2790 1.394 . S
C2789 C2795 1.465 . S
C2790 C2785 1.399 . S
C2790 C2789 1.394 . S
C2790 C2791 1.516 . S
C2791 C2790 1.516 . S
C2791 C2792 1.502 . S
C2791 C2793 1.561 . S
C2791 C2794 1.526 . S
C2792 H2776 0.959 . S
C2792 H2777 0.959 . S
C2792 H2778 0.961 . S
C2792 C2791 1.502 . S
C2793 H2779 0.960 . S
C2793 H2780 0.961 . S
C2793 H2781 0.959 . S
C2793 C2791 1.561 . S
C2794 C2791 1.526 . S
C2794 C2795 1.396 . S
C2794 C2799 1.390 . S
C2795 C2789 1.465 . S
C2795 C2794 1.396 . S
C2795 C2796 1.399 . S
C2796 H2782 0.929 . S
C2796 C2795 1.399 . S
C2796 C2797 1.385 . S
C2797 H2783 0.931 . S
C2797 C2796 1.385 . S
C2797 C2798 1.389 . S
C2798 C2797 1.389 . S
C2798 C2799 1.387 . S
C2799 H2784 0.930 . S
C2799 C2794 1.390 . S
C2799 C2798 1.387 . S
H2800 C2812 0.930 . S
H2801 C2814 0.930 . S
H2802 C2815 0.930 . S
H2803 C2819 0.959 . S
H2804 C2819 0.959 . S
H2805 C2819 0.961 . S
H2806 C2820 0.960 . S
H2807 C2820 0.961 . S
H2808 C2820 0.959 . S
H2809 C2823 0.929 . S
H2810 C2824 0.931 . S
H2811 C2826 0.930 . S
C2812 H2800 0.930 . S
C2812 C2813 1.399 . S
C2812 C2817 1.399 . S
C2813 C2812 1.399 . S
C2813 C2814 1.376 . S
C2814 H2801 0.930 . S
C2814 C2813 1.376 . S
C2814 C2815 1.388 . S
C2815 H2802 0.930 . S
C2815 C2814 1.388 . S
C2815 C2816 1.390 . S
C2816 C2815 1.390 . S
C2816 C2817 1.394 . S
C2816 C2822 1.465 . S
C2817 C2812 1.399 . S
C2817 C2816 1.394 . S
C2817 C2818 1.516 . S
C2818 C2817 1.516 . S
C2818 C2819 1.502 . S
C2818 C2820 1.561 . S
C2818 C2821 1.526 . S
C2819 H2803 0.959 . S
C2819 H2804 0.959 . S
C2819 H2805 0.961 . S
C2819 C2818 1.502 . S
C2820 H2806 0.960 . S
C2820 H2807 0.961 . S
C2820 H2808 0.959 . S
C2820 C2818 1.561 . S
C2821 C2818 1.526 . S
C2821 C2822 1.396 . S
C2821 C2826 1.390 . S
C2822 C2816 1.465 . S
C2822 C2821 1.396 . S
C2822 C2823 1.399 . S
C2823 H2809 0.929 . S
C2823 C2822 1.399 . S
C2823 C2824 1.385 . S
C2824 H2810 0.931 . S
C2824 C2823 1.385 . S
C2824 C2825 1.389 . S
C2825 C2824 1.389 . S
C2825 C2826 1.387 . S
C2826 H2811 0.930 . S
C2826 C2821 1.390 . S
C2826 C2825 1.387 . S
H2827 C2839 0.930 . S
H2828 C2841 0.930 . S
H2829 C2842 0.930 . S
H2830 C2846 0.959 . S
H2831 C2846 0.959 . S
H2832 C2846 0.961 . S
H2833 C2847 0.960 . S
H2834 C2847 0.961 . S
H2835 C2847 0.959 . S
H2836 C2850 0.929 . S
H2837 C2851 0.931 . S
H2838 C2853 0.930 . S
C2839 H2827 0.930 . S
C2839 C2840 1.399 . S
C2839 C2844 1.399 . S
C2840 C2839 1.399 . S
C2840 C2841 1.376 . S
C2841 H2828 0.930 . S
C2841 C2840 1.376 . S
C2841 C2842 1.388 . S
C2842 H2829 0.930 . S
C2842 C2841 1.388 . S
C2842 C2843 1.390 . S
C2843 C2842 1.390 . S
C2843 C2844 1.394 . S
C2843 C2849 1.465 . S
C2844 C2839 1.399 . S
C2844 C2843 1.394 . S
C2844 C2845 1.516 . S
C2845 C2844 1.516 . S
C2845 C2846 1.502 . S
C2845 C2847 1.561 . S
C2845 C2848 1.526 . S
C2846 H2830 0.959 . S
C2846 H2831 0.959 . S
C2846 H2832 0.961 . S
C2846 C2845 1.502 . S
C2847 H2833 0.960 . S
C2847 H2834 0.961 . S
C2847 H2835 0.959 . S
C2847 C2845 1.561 . S
C2848 C2845 1.526 . S
C2848 C2849 1.396 . S
C2848 C2853 1.390 . S
C2849 C2843 1.465 . S
C2849 C2848 1.396 . S
C2849 C2850 1.399 . S
C2850 H2836 0.929 . S
C2850 C2849 1.399 . S
C2850 C2851 1.385 . S
C2851 H2837 0.931 . S
C2851 C2850 1.385 . S
C2851 C2852 1.389 . S
C2852 C2851 1.389 . S
C2852 C2853 1.387 . S
C2853 H2838 0.930 . S
C2853 C2848 1.390 . S
C2853 C2852 1.387 . S
H2854 C2866 0.930 . S
H2855 C2868 0.930 . S
H2856 C2869 0.930 . S
H2857 C2873 0.959 . S
H2858 C2873 0.959 . S
H2859 C2873 0.961 . S
H2860 C2874 0.960 . S
H2861 C2874 0.961 . S
H2862 C2874 0.959 . S
H2863 C2877 0.929 . S
H2864 C2878 0.931 . S
H2865 C2880 0.930 . S
C2866 H2854 0.930 . S
C2866 C2867 1.399 . S
C2866 C2871 1.399 . S
C2867 C2866 1.399 . S
C2867 C2868 1.376 . S
C2868 H2855 0.930 . S
C2868 C2867 1.376 . S
C2868 C2869 1.388 . S
C2869 H2856 0.930 . S
C2869 C2868 1.388 . S
C2869 C2870 1.390 . S
C2870 C2869 1.390 . S
C2870 C2871 1.394 . S
C2870 C2876 1.465 . S
C2871 C2866 1.399 . S
C2871 C2870 1.394 . S
C2871 C2872 1.516 . S
C2872 C2871 1.516 . S
C2872 C2873 1.502 . S
C2872 C2874 1.561 1_455 S
C2872 C2875 1.526 . S
C2873 H2857 0.959 . S
C2873 H2858 0.959 . S
C2873 H2859 0.961 . S
C2873 C2872 1.502 . S
C2874 H2860 0.960 . S
C2874 H2861 0.961 . S
C2874 H2862 0.959 . S
C2874 C2872 1.561 1_655 S
C2875 C2872 1.526 . S
C2875 C2876 1.396 . S
C2875 C2880 1.390 . S
C2876 C2870 1.465 . S
C2876 C2875 1.396 . S
C2876 C2877 1.399 1_556 S
C2877 H2863 0.929 . S
C2877 C2876 1.399 1_554 S
C2877 C2878 1.385 . S
C2878 H2864 0.931 . S
C2878 C2877 1.385 . S
C2878 C2879 1.389 . S
C2879 C2878 1.389 . S
C2879 C2880 1.387 1_554 S
C2880 H2865 0.930 . S
C2880 C2875 1.390 . S
C2880 C2879 1.387 1_556 S
H2881 C2893 0.930 . S
H2882 C2895 0.930 . S
H2883 C2896 0.930 . S
H2884 C2900 0.959 . S
H2885 C2900 0.959 . S
H2886 C2900 0.961 . S
H2887 C2901 0.960 . S
H2888 C2901 0.961 . S
H2889 C2901 0.959 . S
H2890 C2904 0.929 . S
H2891 C2905 0.931 . S
H2892 C2907 0.930 . S
C2893 H2881 0.930 . S
C2893 C2894 1.399 . S
C2893 C2898 1.399 1_455 S
C2894 C2893 1.399 . S
C2894 C2895 1.376 . S
C2895 H2882 0.930 . S
C2895 C2894 1.376 . S
C2895 C2896 1.388 . S
C2896 H2883 0.930 . S
C2896 C2895 1.388 . S
C2896 C2897 1.390 1_455 S
C2897 C2896 1.390 1_655 S
C2897 C2898 1.394 . S
C2897 C2903 1.465 . S
C2898 C2893 1.399 1_655 S
C2898 C2897 1.394 . S
C2898 C2899 1.516 . S
C2899 C2898 1.516 . S
C2899 C2900 1.502 . S
C2899 C2901 1.561 . S
C2899 C2902 1.526 . S
C2900 H2884 0.959 . S
C2900 H2885 0.959 . S
C2900 H2886 0.961 . S
C2900 C2899 1.502 . S
C2901 H2887 0.960 . S
C2901 H2888 0.961 . S
C2901 H2889 0.959 . S
C2901 C2899 1.561 . S
C2902 C2899 1.526 . S
C2902 C2903 1.396 . S
C2902 C2907 1.390 . S
C2903 C2897 1.465 . S
C2903 C2902 1.396 . S
C2903 C2904 1.399 . S
C2904 H2890 0.929 . S
C2904 C2903 1.399 . S
C2904 C2905 1.385 . S
C2905 H2891 0.931 . S
C2905 C2904 1.385 . S
C2905 C2906 1.389 . S
C2906 C2905 1.389 . S
C2906 C2907 1.387 . S
C2907 H2892 0.930 . S
C2907 C2902 1.390 . S
C2907 C2906 1.387 . S
H2908 C2920 0.930 . S
H2909 C2922 0.930 . S
H2910 C2923 0.930 . S
H2911 C2927 0.959 . S
H2912 C2927 0.959 . S
H2913 C2927 0.961 . S
H2914 C2928 0.960 . S
H2915 C2928 0.961 . S
H2916 C2928 0.959 . S
H2917 C2931 0.929 . S
H2918 C2932 0.931 . S
H2919 C2934 0.930 . S
C2920 H2908 0.930 . S
C2920 C2921 1.399 . S
C2920 C2925 1.399 . S
C2921 C2920 1.399 . S
C2921 C2922 1.376 . S
C2922 H2909 0.930 . S
C2922 C2921 1.376 . S
C2922 C2923 1.388 . S
C2923 H2910 0.930 . S
C2923 C2922 1.388 . S
C2923 C2924 1.390 . S
C2924 C2923 1.390 . S
C2924 C2925 1.394 . S
C2924 C2930 1.465 . S
C2925 C2920 1.399 . S
C2925 C2924 1.394 . S
C2925 C2926 1.516 . S
C2926 C2925 1.516 . S
C2926 C2927 1.502 . S
C2926 C2928 1.561 . S
C2926 C2929 1.526 . S
C2927 H2911 0.959 . S
C2927 H2912 0.959 . S
C2927 H2913 0.961 . S
C2927 C2926 1.502 . S
C2928 H2914 0.960 . S
C2928 H2915 0.961 . S
C2928 H2916 0.959 . S
C2928 C2926 1.561 . S
C2929 C2926 1.526 . S
C2929 C2930 1.396 . S
C2929 C2934 1.390 . S
C2930 C2924 1.465 . S
C2930 C2929 1.396 . S
C2930 C2931 1.399 . S
C2931 H2917 0.929 . S
C2931 C2930 1.399 . S
C2931 C2932 1.385 . S
C2932 H2918 0.931 . S
C2932 C2931 1.385 . S
C2932 C2933 1.389 . S
C2933 C2932 1.389 . S
C2933 C2934 1.387 . S
C2934 H2919 0.930 . S
C2934 C2929 1.390 . S
C2934 C2933 1.387 . S
H2935 C2947 0.930 . S
H2936 C2949 0.930 . S
H2937 C2950 0.930 . S
H2938 C2954 0.959 . S
H2939 C2954 0.959 . S
H2940 C2954 0.961 . S
H2941 C2955 0.960 1_455 S
H2942 C2955 0.961 . S
H2943 C2955 0.959 . S
H2944 C2958 0.929 . S
H2945 C2959 0.931 . S
H2946 C2961 0.930 . S
C2947 H2935 0.930 . S
C2947 C2948 1.399 . S
C2947 C2952 1.399 . S
C2948 C2947 1.399 . S
C2948 C2949 1.376 . S
C2949 H2936 0.930 . S
C2949 C2948 1.376 . S
C2949 C2950 1.388 . S
C2950 H2937 0.930 . S
C2950 C2949 1.388 . S
C2950 C2951 1.390 . S
C2951 C2950 1.390 . S
C2951 C2952 1.394 . S
C2951 C2957 1.465 1_455 S
C2952 C2947 1.399 . S
C2952 C2951 1.394 . S
C2952 C2953 1.516 . S
C2953 C2952 1.516 . S
C2953 C2954 1.502 . S
C2953 C2955 1.561 1_455 S
C2953 C2956 1.526 1_455 S
C2954 H2938 0.959 . S
C2954 H2939 0.959 . S
C2954 H2940 0.961 . S
C2954 C2953 1.502 . S
C2955 H2941 0.960 1_655 S
C2955 H2942 0.961 . S
C2955 H2943 0.959 . S
C2955 C2953 1.561 1_655 S
C2956 C2953 1.526 1_655 S
C2956 C2957 1.396 . S
C2956 C2961 1.390 . S
C2957 C2951 1.465 1_655 S
C2957 C2956 1.396 . S
C2957 C2958 1.399 . S
C2958 H2944 0.929 . S
C2958 C2957 1.399 . S
C2958 C2959 1.385 . S
C2959 H2945 0.931 . S
C2959 C2958 1.385 . S
C2959 C2960 1.389 . S
C2960 C2959 1.389 . S
C2960 C2961 1.387 . S
C2961 H2946 0.930 . S
C2961 C2956 1.390 . S
C2961 C2960 1.387 . S
H2962 C2974 0.930 . S
H2963 C2976 0.930 . S
H2964 C2977 0.930 . S
H2965 C2981 0.959 . S
H2966 C2981 0.959 . S
H2967 C2981 0.961 . S
H2968 C2982 0.960 . S
H2969 C2982 0.961 . S
H2970 C2982 0.983 . S
H2971 C2985 0.929 . S
H2972 C2986 0.931 . S
H2973 C2988 0.930 . S
C2974 H2962 0.930 . S
C2974 C2975 1.412 . S
C2974 C2979 1.399 1_655 S
C2975 C2974 1.412 . S
C2975 C2976 1.329 1_655 S
C2976 H2963 0.930 . S
C2976 C2975 1.329 1_455 S
C2976 C2977 1.388 . S
C2977 H2964 0.930 . S
C2977 C2976 1.388 . S
C2977 C2978 1.390 . S
C2978 C2977 1.390 . S
C2978 C2979 1.394 . S
C2978 C2984 1.465 . S
C2979 C2974 1.399 1_455 S
C2979 C2978 1.394 . S
C2979 C2980 1.516 1_455 S
C2980 C2979 1.516 1_655 S
C2980 C2981 1.502 . S
C2980 C2982 1.561 . S
C2980 C2983 1.526 1_655 S
C2981 H2965 0.959 . S
C2981 H2966 0.959 . S
C2981 H2967 0.961 . S
C2981 C2980 1.502 . S
C2982 H2968 0.960 . S
C2982 H2969 0.961 . S
C2982 H2970 0.983 . S
C2982 C2980 1.561 . S
C2983 C2980 1.526 1_455 S
C2983 C2984 1.396 . S
C2983 C2988 1.390 . S
C2984 C2978 1.465 . S
C2984 C2983 1.396 . S
C2984 C2985 1.399 . S
C2985 H2971 0.929 . S
C2985 C2984 1.399 . S
C2985 C2986 1.385 . S
C2986 H2972 0.931 . S
C2986 C2985 1.385 . S
C2986 C2987 1.389 . S
C2987 C2986 1.389 . S
C2987 C2988 1.387 . S
C2988 H2973 0.930 . S
C2988 C2983 1.390 . S
C2988 C2987 1.387 . S
H2989 C3001 0.930 . S
H2990 C3003 0.930 . S
H2991 C3004 0.930 . S
H2992 C3008 0.959 . S
H2993 C3008 0.959 . S
H2994 C3008 0.961 . S
H2995 C3009 0.960 . S
H2996 C3009 0.961 . S
H2997 C3009 0.959 . S
H2998 C3012 0.929 . S
H2999 C3013 0.931 . S
H3000 C3015 0.930 . S
C3001 H2989 0.930 . S
C3001 C3002 1.399 . S
C3001 C3006 1.399 . S
C3002 C3001 1.399 . S
C3002 C3003 1.376 . S
C3003 H2990 0.930 . S
C3003 C3002 1.376 . S
C3003 C3004 1.388 . S
C3004 H2991 0.930 . S
C3004 C3003 1.388 . S
C3004 C3005 1.390 . S
C3005 C3004 1.390 . S
C3005 C3006 1.394 . S
C3005 C3011 1.465 . S
C3006 C3001 1.399 . S
C3006 C3005 1.394 . S
C3006 C3007 1.516 . S
C3007 C3006 1.516 . S
C3007 C3008 1.502 . S
C3007 C3009 1.561 . S
C3007 C3010 1.526 . S
C3008 H2992 0.959 . S
C3008 H2993 0.959 . S
C3008 H2994 0.961 . S
C3008 C3007 1.502 . S
C3009 H2995 0.960 . S
C3009 H2996 0.961 . S
C3009 H2997 0.959 . S
C3009 C3007 1.561 . S
C3010 C3007 1.526 . S
C3010 C3011 1.396 . S
C3010 C3015 1.390 . S
C3011 C3005 1.465 . S
C3011 C3010 1.396 . S
C3011 C3012 1.399 . S
C3012 H2998 0.929 . S
C3012 C3011 1.399 . S
C3012 C3013 1.385 . S
C3013 H2999 0.931 . S
C3013 C3012 1.385 . S
C3013 C3014 1.389 . S
C3014 C3013 1.389 . S
C3014 C3015 1.387 . S
C3015 H3000 0.930 . S
C3015 C3010 1.390 . S
C3015 C3014 1.387 . S
H3016 C3028 0.930 . S
H3017 C3030 0.930 . S
H3018 C3031 0.930 . S
H3019 C3035 0.959 . S
H3020 C3035 0.959 . S
H3021 C3035 0.961 . S
H3022 C3036 0.960 . S
H3023 C3036 0.961 . S
H3024 C3036 0.959 . S
H3025 C3039 0.929 . S
H3026 C3040 0.931 . S
H3027 C3042 0.930 . S
C3028 H3016 0.930 . S
C3028 C3029 1.399 . S
C3028 C3033 1.399 . S
C3029 C3028 1.399 . S
C3029 C3030 1.376 . S
C3030 H3017 0.930 . S
C3030 C3029 1.376 . S
C3030 C3031 1.388 . S
C3031 H3018 0.930 . S
C3031 C3030 1.388 . S
C3031 C3032 1.390 . S
C3032 C3031 1.390 . S
C3032 C3033 1.394 . S
C3032 C3038 1.465 . S
C3033 C3028 1.399 . S
C3033 C3032 1.394 . S
C3033 C3034 1.516 . S
C3034 C3033 1.516 . S
C3034 C3035 1.502 . S
C3034 C3036 1.561 . S
C3034 C3037 1.526 . S
C3035 H3019 0.959 . S
C3035 H3020 0.959 . S
C3035 H3021 0.961 . S
C3035 C3034 1.502 . S
C3036 H3022 0.960 . S
C3036 H3023 0.961 . S
C3036 H3024 0.959 . S
C3036 C3034 1.561 . S
C3037 C3034 1.526 . S
C3037 C3038 1.396 . S
C3037 C3042 1.390 . S
C3038 C3032 1.465 . S
C3038 C3037 1.396 . S
C3038 C3039 1.399 . S
C3039 H3025 0.929 . S
C3039 C3038 1.399 . S
C3039 C3040 1.385 . S
C3040 H3026 0.931 . S
C3040 C3039 1.385 . S
C3040 C3041 1.389 . S
C3041 C3040 1.389 . S
C3041 C3042 1.387 . S
C3042 H3027 0.930 . S
C3042 C3037 1.390 . S
C3042 C3041 1.387 . S
H3043 C3055 0.930 . S
H3044 C3057 0.930 . S
H3045 C3058 0.930 . S
H3046 C3062 0.959 . S
H3047 C3062 0.959 . S
H3048 C3062 0.961 . S
H3049 C3063 0.960 . S
H3050 C3063 0.961 . S
H3051 C3063 0.959 . S
H3052 C3066 0.929 . S
H3053 C3067 0.931 . S
H3054 C3069 0.930 . S
C3055 H3043 0.930 . S
C3055 C3056 1.399 . S
C3055 C3060 1.399 . S
C3056 C3055 1.399 . S
C3056 C3057 1.376 . S
C3057 H3044 0.930 . S
C3057 C3056 1.376 . S
C3057 C3058 1.388 . S
C3058 H3045 0.930 . S
C3058 C3057 1.388 . S
C3058 C3059 1.390 . S
C3059 C3058 1.390 . S
C3059 C3060 1.394 . S
C3059 C3065 1.465 . S
C3060 C3055 1.399 . S
C3060 C3059 1.394 . S
C3060 C3061 1.516 . S
C3061 C3060 1.516 . S
C3061 C3062 1.502 . S
C3061 C3063 1.561 . S
C3061 C3064 1.526 . S
C3062 H3046 0.959 . S
C3062 H3047 0.959 . S
C3062 H3048 0.961 . S
C3062 C3061 1.502 . S
C3063 H3049 0.960 . S
C3063 H3050 0.961 . S
C3063 H3051 0.959 . S
C3063 C3061 1.561 . S
C3064 C3061 1.526 . S
C3064 C3065 1.396 . S
C3064 C3069 1.390 . S
C3065 C3059 1.465 . S
C3065 C3064 1.396 . S
C3065 C3066 1.399 . S
C3066 H3052 0.929 . S
C3066 C3065 1.399 . S
C3066 C3067 1.385 . S
C3067 H3053 0.931 . S
C3067 C3066 1.385 . S
C3067 C3068 1.389 . S
C3068 C3067 1.389 . S
C3068 C3069 1.387 . S
C3069 H3054 0.930 . S
C3069 C3064 1.390 . S
C3069 C3068 1.387 . S
H3070 C3082 0.930 . S
H3071 C3084 0.930 . S
H3072 C3085 0.930 . S
H3073 C3089 0.959 . S
H3074 C3089 0.959 . S
H3075 C3089 0.961 . S
H3076 C3090 0.960 . S
H3077 C3090 0.961 . S
H3078 C3090 0.959 . S
H3079 C3093 0.929 . S
H3080 C3094 0.931 . S
H3081 C3096 0.930 . S
C3082 H3070 0.930 . S
C3082 C3083 1.399 . S
C3082 C3087 1.399 . S
C3083 C3082 1.399 . S
C3083 C3084 1.376 . S
C3084 H3071 0.930 . S
C3084 C3083 1.376 . S
C3084 C3085 1.388 . S
C3085 H3072 0.930 . S
C3085 C3084 1.388 . S
C3085 C3086 1.390 . S
C3086 C3085 1.390 . S
C3086 C3087 1.394 . S
C3086 C3092 1.465 . S
C3087 C3082 1.399 . S
C3087 C3086 1.394 . S
C3087 C3088 1.516 . S
C3088 C3087 1.516 . S
C3088 C3089 1.502 . S
C3088 C3090 1.561 . S
C3088 C3091 1.526 . S
C3089 H3073 0.959 . S
C3089 H3074 0.959 . S
C3089 H3075 0.961 . S
C3089 C3088 1.502 . S
C3090 H3076 0.960 . S
C3090 H3077 0.961 . S
C3090 H3078 0.959 . S
C3090 C3088 1.561 . S
C3091 C3088 1.526 . S
C3091 C3092 1.396 . S
C3091 C3096 1.390 . S
C3092 C3086 1.465 . S
C3092 C3091 1.396 . S
C3092 C3093 1.399 . S
C3093 H3079 0.929 . S
C3093 C3092 1.399 . S
C3093 C3094 1.385 . S
C3094 H3080 0.931 . S
C3094 C3093 1.385 . S
C3094 C3095 1.389 . S
C3095 C3094 1.389 . S
C3095 C3096 1.387 . S
C3096 H3081 0.930 . S
C3096 C3091 1.390 . S
C3096 C3095 1.387 . S
H3097 C3109 0.930 . S
H3098 C3111 0.930 . S
H3099 C3112 0.930 . S
H3100 C3116 0.959 . S
H3101 C3116 0.959 . S
H3102 C3116 0.961 . S
H3103 C3117 0.960 . S
H3104 C3117 0.961 . S
H3105 C3117 0.959 . S
H3106 C3120 0.929 . S
H3107 C3121 0.931 . S
H3108 C3123 0.930 . S
C3109 H3097 0.930 . S
C3109 C3110 1.399 . S
C3109 C3114 1.399 . S
C3110 C3109 1.399 . S
C3110 C3111 1.376 . S
C3111 H3098 0.930 . S
C3111 C3110 1.376 . S
C3111 C3112 1.388 . S
C3112 H3099 0.930 . S
C3112 C3111 1.388 . S
C3112 C3113 1.390 . S
C3113 C3112 1.390 . S
C3113 C3114 1.394 . S
C3113 C3119 1.465 . S
C3114 C3109 1.399 . S
C3114 C3113 1.394 . S
C3114 C3115 1.516 . S
C3115 C3114 1.516 . S
C3115 C3116 1.502 . S
C3115 C3117 1.561 . S
C3115 C3118 1.526 . S
C3116 H3100 0.959 . S
C3116 H3101 0.959 . S
C3116 H3102 0.961 . S
C3116 C3115 1.502 . S
C3117 H3103 0.960 . S
C3117 H3104 0.961 . S
C3117 H3105 0.959 . S
C3117 C3115 1.561 . S
C3118 C3115 1.526 . S
C3118 C3119 1.396 . S
C3118 C3123 1.390 . S
C3119 C3113 1.465 . S
C3119 C3118 1.396 . S
C3119 C3120 1.399 . S
C3120 H3106 0.929 . S
C3120 C3119 1.399 . S
C3120 C3121 1.385 . S
C3121 H3107 0.931 . S
C3121 C3120 1.385 . S
C3121 C3122 1.389 . S
C3122 C3121 1.389 . S
C3122 C3123 1.387 . S
C3123 H3108 0.930 . S
C3123 C3118 1.390 . S
C3123 C3122 1.387 . S
H3124 C3136 0.930 . S
H3125 C3138 0.930 . S
H3126 C3139 0.930 . S
H3127 C3143 0.959 . S
H3128 C3143 0.959 . S
H3129 C3143 0.961 . S
H3130 C3144 0.960 . S
H3131 C3144 0.961 . S
H3132 C3144 0.959 . S
H3133 C3147 0.929 . S
H3134 C3148 0.931 . S
H3135 C3150 0.930 . S
C3136 H3124 0.930 . S
C3136 C3137 1.399 . S
C3136 C3141 1.399 . S
C3137 C3136 1.399 . S
C3137 C3138 1.376 . S
C3138 H3125 0.930 . S
C3138 C3137 1.376 . S
C3138 C3139 1.388 . S
C3139 H3126 0.930 . S
C3139 C3138 1.388 . S
C3139 C3140 1.390 . S
C3140 C3139 1.390 . S
C3140 C3141 1.394 . S
C3140 C3146 1.465 . S
C3141 C3136 1.399 . S
C3141 C3140 1.394 . S
C3141 C3142 1.516 . S
C3142 C3141 1.516 . S
C3142 C3143 1.502 . S
C3142 C3144 1.561 . S
C3142 C3145 1.526 . S
C3143 H3127 0.959 . S
C3143 H3128 0.959 . S
C3143 H3129 0.961 . S
C3143 C3142 1.502 . S
C3144 H3130 0.960 . S
C3144 H3131 0.961 . S
C3144 H3132 0.959 . S
C3144 C3142 1.561 . S
C3145 C3142 1.526 . S
C3145 C3146 1.396 . S
C3145 C3150 1.390 . S
C3146 C3140 1.465 . S
C3146 C3145 1.396 . S
C3146 C3147 1.399 . S
C3147 H3133 0.929 . S
C3147 C3146 1.399 . S
C3147 C3148 1.385 . S
C3148 H3134 0.931 . S
C3148 C3147 1.385 . S
C3148 C3149 1.389 . S
C3149 C3148 1.389 . S
C3149 C3150 1.387 . S
C3150 H3135 0.930 . S
C3150 C3145 1.390 . S
C3150 C3149 1.387 . S
H3151 C3163 0.930 . S
H3152 C3165 0.930 . S
H3153 C3166 0.930 . S
H3154 C3170 0.959 . S
H3155 C3170 0.959 . S
H3156 C3170 0.961 . S
H3157 C3171 0.960 . S
H3158 C3171 0.961 . S
H3159 C3171 0.959 . S
H3160 C3174 0.929 . S
H3161 C3175 0.931 . S
H3162 C3177 0.930 . S
C3163 H3151 0.930 . S
C3163 C3164 1.399 . S
C3163 C3168 1.399 . S
C3164 C3163 1.399 . S
C3164 C3165 1.376 . S
C3165 H3152 0.930 . S
C3165 C3164 1.376 . S
C3165 C3166 1.388 . S
C3166 H3153 0.930 . S
C3166 C3165 1.388 . S
C3166 C3167 1.390 . S
C3167 C3166 1.390 . S
C3167 C3168 1.394 . S
C3167 C3173 1.465 . S
C3168 C3163 1.399 . S
C3168 C3167 1.394 . S
C3168 C3169 1.516 . S
C3169 C3168 1.516 . S
C3169 C3170 1.502 . S
C3169 C3171 1.561 . S
C3169 C3172 1.526 . S
C3170 H3154 0.959 . S
C3170 H3155 0.959 . S
C3170 H3156 0.961 . S
C3170 C3169 1.502 . S
C3171 H3157 0.960 . S
C3171 H3158 0.961 . S
C3171 H3159 0.959 . S
C3171 C3169 1.561 . S
C3172 C3169 1.526 . S
C3172 C3173 1.396 . S
C3172 C3177 1.390 . S
C3173 C3167 1.465 . S
C3173 C3172 1.396 . S
C3173 C3174 1.399 . S
C3174 H3160 0.929 . S
C3174 C3173 1.399 . S
C3174 C3175 1.385 . S
C3175 H3161 0.931 . S
C3175 C3174 1.385 . S
C3175 C3176 1.389 . S
C3176 C3175 1.389 . S
C3176 C3177 1.387 . S
C3177 H3162 0.930 . S
C3177 C3172 1.390 . S
C3177 C3176 1.387 . S
H3178 C3190 0.930 . S
H3179 C3192 0.930 . S
H3180 C3193 0.930 . S
H3181 C3197 0.959 . S
H3182 C3197 0.959 . S
H3183 C3197 0.961 . S
H3184 C3198 0.960 . S
H3185 C3198 0.961 . S
H3186 C3198 0.959 . S
H3187 C3201 0.929 . S
H3188 C3202 0.931 . S
H3189 C3204 0.930 . S
C3190 H3178 0.930 . S
C3190 C3191 1.399 . S
C3190 C3195 1.399 . S
C3191 C3190 1.399 . S
C3191 C3192 1.376 . S
C3192 H3179 0.930 . S
C3192 C3191 1.376 . S
C3192 C3193 1.388 . S
C3193 H3180 0.930 . S
C3193 C3192 1.388 . S
C3193 C3194 1.390 . S
C3194 C3193 1.390 . S
C3194 C3195 1.394 . S
C3194 C3200 1.465 . S
C3195 C3190 1.399 . S
C3195 C3194 1.394 . S
C3195 C3196 1.516 . S
C3196 C3195 1.516 . S
C3196 C3197 1.502 . S
C3196 C3198 1.561 . S
C3196 C3199 1.526 . S
C3197 H3181 0.959 . S
C3197 H3182 0.959 . S
C3197 H3183 0.961 . S
C3197 C3196 1.502 . S
C3198 H3184 0.960 . S
C3198 H3185 0.961 . S
C3198 H3186 0.959 . S
C3198 C3196 1.561 . S
C3199 C3196 1.526 . S
C3199 C3200 1.396 . S
C3199 C3204 1.390 . S
C3200 C3194 1.465 . S
C3200 C3199 1.396 . S
C3200 C3201 1.399 . S
C3201 H3187 0.929 . S
C3201 C3200 1.399 . S
C3201 C3202 1.385 . S
C3202 H3188 0.931 . S
C3202 C3201 1.385 . S
C3202 C3203 1.389 . S
C3203 C3202 1.389 . S
C3203 C3204 1.387 . S
C3204 H3189 0.930 . S
C3204 C3199 1.390 . S
C3204 C3203 1.387 . S
H3205 C3217 0.930 . S
H3206 C3219 0.930 . S
H3207 C3220 0.930 . S
H3208 C3224 0.959 . S
H3209 C3224 0.959 . S
H3210 C3224 0.961 . S
H3211 C3225 0.960 . S
H3212 C3225 0.961 . S
H3213 C3225 0.959 . S
H3214 C3228 0.929 . S
H3215 C3229 0.931 . S
H3216 C3231 0.930 . S
C3217 H3205 0.930 . S
C3217 C3218 1.399 . S
C3217 C3222 1.399 . S
C3218 C3217 1.399 . S
C3218 C3219 1.376 . S
C3219 H3206 0.930 . S
C3219 C3218 1.376 . S
C3219 C3220 1.388 . S
C3220 H3207 0.930 . S
C3220 C3219 1.388 . S
C3220 C3221 1.390 . S
C3221 C3220 1.390 . S
C3221 C3222 1.394 . S
C3221 C3227 1.465 . S
C3222 C3217 1.399 . S
C3222 C3221 1.394 . S
C3222 C3223 1.516 . S
C3223 C3222 1.516 . S
C3223 C3224 1.502 . S
C3223 C3225 1.561 . S
C3223 C3226 1.526 . S
C3224 H3208 0.959 . S
C3224 H3209 0.959 . S
C3224 H3210 0.961 . S
C3224 C3223 1.502 . S
C3225 H3211 0.960 . S
C3225 H3212 0.961 . S
C3225 H3213 0.959 . S
C3225 C3223 1.561 . S
C3226 C3223 1.526 . S
C3226 C3227 1.396 . S
C3226 C3231 1.390 . S
C3227 C3221 1.465 . S
C3227 C3226 1.396 . S
C3227 C3228 1.399 . S
C3228 H3214 0.929 . S
C3228 C3227 1.399 . S
C3228 C3229 1.385 . S
C3229 H3215 0.931 . S
C3229 C3228 1.385 . S
C3229 C3230 1.389 . S
C3230 C3229 1.389 . S
C3230 C3231 1.387 . S
C3231 H3216 0.930 . S
C3231 C3226 1.390 . S
C3231 C3230 1.387 . S
H3232 C3244 0.930 . S
H3233 C3246 0.930 . S
H3234 C3247 0.930 . S
H3235 C3251 0.959 . S
H3236 C3251 0.959 . S
H3237 C3251 0.961 . S
H3238 C3252 0.960 . S
H3239 C3252 0.961 . S
H3240 C3252 0.959 . S
H3241 C3255 0.929 . S
H3242 C3256 0.931 . S
H3243 C3258 0.930 . S
C3244 H3232 0.930 . S
C3244 C3245 1.399 . S
C3244 C3249 1.399 . S
C3245 C3244 1.399 . S
C3245 C3246 1.376 . S
C3246 H3233 0.930 . S
C3246 C3245 1.376 . S
C3246 C3247 1.388 . S
C3247 H3234 0.930 . S
C3247 C3246 1.388 . S
C3247 C3248 1.390 . S
C3248 C3247 1.390 . S
C3248 C3249 1.394 . S
C3248 C3254 1.465 . S
C3249 C3244 1.399 . S
C3249 C3248 1.394 . S
C3249 C3250 1.516 . S
C3250 C3249 1.516 . S
C3250 C3251 1.502 . S
C3250 C3252 1.561 . S
C3250 C3253 1.526 . S
C3251 H3235 0.959 . S
C3251 H3236 0.959 . S
C3251 H3237 0.961 . S
C3251 C3250 1.502 . S
C3252 H3238 0.960 . S
C3252 H3239 0.961 . S
C3252 H3240 0.959 . S
C3252 C3250 1.561 . S
C3253 C3250 1.526 . S
C3253 C3254 1.396 . S
C3253 C3258 1.390 . S
C3254 C3248 1.465 . S
C3254 C3253 1.396 . S
C3254 C3255 1.399 . S
C3255 H3241 0.929 . S
C3255 C3254 1.399 . S
C3255 C3256 1.385 . S
C3256 H3242 0.931 . S
C3256 C3255 1.385 . S
C3256 C3257 1.389 . S
C3257 C3256 1.389 . S
C3257 C3258 1.387 . S
C3258 H3243 0.930 . S
C3258 C3253 1.390 . S
C3258 C3257 1.387 . S
H3259 C3271 0.930 . S
H3260 C3273 0.930 . S
H3261 C3274 0.930 . S
H3262 C3278 0.959 . S
H3263 C3278 0.959 . S
H3264 C3278 0.961 . S
H3265 C3279 0.960 . S
H3266 C3279 0.961 . S
H3267 C3279 0.959 . S
H3268 C3282 0.929 . S
H3269 C3283 0.931 . S
H3270 C3285 0.930 . S
C3271 H3259 0.930 . S
C3271 C3272 1.399 . S
C3271 C3276 1.399 . S
C3272 C3271 1.399 . S
C3272 C3273 1.376 . S
C3273 H3260 0.930 . S
C3273 C3272 1.376 . S
C3273 C3274 1.388 . S
C3274 H3261 0.930 . S
C3274 C3273 1.388 . S
C3274 C3275 1.390 . S
C3275 C3274 1.390 . S
C3275 C3276 1.394 . S
C3275 C3281 1.465 . S
C3276 C3271 1.399 . S
C3276 C3275 1.394 . S
C3276 C3277 1.516 . S
C3277 C3276 1.516 . S
C3277 C3278 1.502 . S
C3277 C3279 1.561 . S
C3277 C3280 1.526 . S
C3278 H3262 0.959 . S
C3278 H3263 0.959 . S
C3278 H3264 0.961 . S
C3278 C3277 1.502 . S
C3279 H3265 0.960 . S
C3279 H3266 0.961 . S
C3279 H3267 0.959 . S
C3279 C3277 1.561 . S
C3280 C3277 1.526 . S
C3280 C3281 1.396 . S
C3280 C3285 1.390 . S
C3281 C3275 1.465 . S
C3281 C3280 1.396 . S
C3281 C3282 1.399 . S
C3282 H3268 0.929 . S
C3282 C3281 1.399 . S
C3282 C3283 1.385 . S
C3283 H3269 0.931 . S
C3283 C3282 1.385 . S
C3283 C3284 1.389 . S
C3284 C3283 1.389 . S
C3284 C3285 1.387 . S
C3285 H3270 0.930 . S
C3285 C3280 1.390 . S
C3285 C3284 1.387 . S
H3286 C3298 0.930 . S
H3287 C3300 0.930 . S
H3288 C3301 0.930 . S
H3289 C3305 0.959 . S
H3290 C3305 0.959 . S
H3291 C3305 0.961 . S
H3292 C3306 0.960 . S
H3293 C3306 0.961 . S
H3294 C3306 0.959 . S
H3295 C3309 0.929 . S
H3296 C3310 0.931 . S
H3297 C3312 0.930 . S
C3298 H3286 0.930 . S
C3298 C3299 1.399 . S
C3298 C3303 1.399 . S
C3299 C3298 1.399 . S
C3299 C3300 1.376 . S
C3300 H3287 0.930 . S
C3300 C3299 1.376 . S
C3300 C3301 1.388 . S
C3301 H3288 0.930 . S
C3301 C3300 1.388 . S
C3301 C3302 1.390 . S
C3302 C3301 1.390 . S
C3302 C3303 1.394 . S
C3302 C3308 1.465 . S
C3303 C3298 1.399 . S
C3303 C3302 1.394 . S
C3303 C3304 1.516 . S
C3304 C3303 1.516 . S
C3304 C3305 1.502 . S
C3304 C3306 1.561 . S
C3304 C3307 1.526 . S
C3305 H3289 0.959 . S
C3305 H3290 0.959 . S
C3305 H3291 0.961 . S
C3305 C3304 1.502 . S
C3306 H3292 0.960 . S
C3306 H3293 0.961 . S
C3306 H3294 0.959 . S
C3306 C3304 1.561 . S
C3307 C3304 1.526 . S
C3307 C3308 1.396 . S
C3307 C3312 1.390 . S
C3308 C3302 1.465 . S
C3308 C3307 1.396 . S
C3308 C3309 1.399 . S
C3309 H3295 0.929 . S
C3309 C3308 1.399 . S
C3309 C3310 1.385 . S
C3310 H3296 0.931 . S
C3310 C3309 1.385 . S
C3310 C3311 1.389 . S
C3311 C3310 1.389 . S
C3311 C3312 1.387 . S
C3312 H3297 0.930 . S
C3312 C3307 1.390 . S
C3312 C3311 1.387 . S
H3313 C3325 0.930 . S
H3314 C3327 0.930 . S
H3315 C3328 0.930 1_545 S
H3316 C3332 0.959 . S
H3317 C3332 0.959 . S
H3318 C3332 0.961 . S
H3319 C3333 0.960 . S
H3320 C3333 0.961 . S
H3321 C3333 0.959 . S
H3322 C3336 0.929 . S
H3323 C3337 0.931 . S
H3324 C3339 0.930 . S
C3325 H3313 0.930 . S
C3325 C3326 1.399 . S
C3325 C3330 1.399 . S
C3326 C3325 1.399 . S
C3326 C3327 1.376 1_554 S
C3327 H3314 0.930 . S
C3327 C3326 1.376 1_556 S
C3327 C3328 1.388 . S
C3328 H3315 0.930 1_565 S
C3328 C3327 1.388 . S
C3328 C3329 1.390 1_556 S
C3329 C3328 1.390 1_554 S
C3329 C3330 1.394 . S
C3329 C3335 1.465 . S
C3330 C3325 1.399 . S
C3330 C3329 1.394 . S
C3330 C3331 1.516 . S
C3331 C3330 1.516 . S
C3331 C3332 1.502 . S
C3331 C3333 1.561 . S
C3331 C3334 1.526 . S
C3332 H3316 0.959 . S
C3332 H3317 0.959 . S
C3332 H3318 0.961 . S
C3332 C3331 1.502 . S
C3333 H3319 0.960 . S
C3333 H3320 0.961 . S
C3333 H3321 0.959 . S
C3333 C3331 1.561 . S
C3334 C3331 1.526 . S
C3334 C3335 1.396 . S
C3334 C3339 1.390 . S
C3335 C3329 1.465 . S
C3335 C3334 1.396 . S
C3335 C3336 1.399 1_564 S
C3336 H3322 0.929 . S
C3336 C3335 1.399 1_546 S
C3336 C3337 1.385 . S
C3337 H3323 0.931 . S
C3337 C3336 1.385 . S
C3337 C3338 1.389 1_556 S
C3338 C3337 1.389 1_554 S
C3338 C3339 1.387 1_545 S
C3339 H3324 0.930 . S
C3339 C3334 1.390 . S
C3339 C3338 1.387 1_565 S
H3340 C3352 0.930 . S
H3341 C3354 0.930 . S
H3342 C3355 0.930 . S
H3343 C3359 0.959 . S
H3344 C3359 0.959 . S
H3345 C3359 0.961 . S
H3346 C3360 0.960 . S
H3347 C3360 0.961 . S
H3348 C3360 0.959 . S
H3349 C3363 0.929 . S
H3350 C3364 0.931 . S
H3351 C3366 0.930 . S
C3352 H3340 0.930 . S
C3352 C3353 1.399 . S
C3352 C3357 1.399 . S
C3353 C3352 1.399 . S
C3353 C3354 1.376 . S
C3354 H3341 0.930 . S
C3354 C3353 1.376 . S
C3354 C3355 1.388 . S
C3355 H3342 0.930 . S
C3355 C3354 1.388 . S
C3355 C3356 1.390 . S
C3356 C3355 1.390 . S
C3356 C3357 1.394 . S
C3356 C3362 1.465 . S
C3357 C3352 1.399 . S
C3357 C3356 1.394 . S
C3357 C3358 1.516 . S
C3358 C3357 1.516 . S
C3358 C3359 1.502 . S
C3358 C3360 1.561 . S
C3358 C3361 1.526 . S
C3359 H3343 0.959 . S
C3359 H3344 0.959 . S
C3359 H3345 0.961 . S
C3359 C3358 1.502 . S
C3360 H3346 0.960 . S
C3360 H3347 0.961 . S
C3360 H3348 0.959 . S
C3360 C3358 1.561 . S
C3361 C3358 1.526 . S
C3361 C3362 1.396 . S
C3361 C3366 1.390 . S
C3362 C3356 1.465 . S
C3362 C3361 1.396 . S
C3362 C3363 1.399 . S
C3363 H3349 0.929 . S
C3363 C3362 1.399 . S
C3363 C3364 1.385 . S
C3364 H3350 0.931 . S
C3364 C3363 1.385 . S
C3364 C3365 1.389 . S
C3365 C3364 1.389 . S
C3365 C3366 1.387 . S
C3366 H3351 0.930 . S
C3366 C3361 1.390 . S
C3366 C3365 1.387 . S
H3367 C3379 0.887 1_556 S
H3368 C3381 0.930 . S
H3369 C3382 0.930 . S
H3370 C3386 0.959 . S
H3371 C3386 0.959 . S
H3372 C3386 0.961 . S
H3373 C3387 0.960 . S
H3374 C3387 0.961 . S
H3375 C3387 0.959 1_554 S
H3376 C3390 0.929 . S
H3377 C3391 0.931 . S
H3378 C3393 0.930 . S
C3379 H3367 0.887 1_554 S
C3379 C3380 1.422 . S
C3379 C3384 1.420 . S
C3380 C3379 1.422 . S
C3380 C3381 1.376 . S
C3381 H3368 0.930 . S
C3381 C3380 1.376 . S
C3381 C3382 1.388 . S
C3382 H3369 0.930 . S
C3382 C3381 1.388 . S
C3382 C3383 1.390 . S
C3383 C3382 1.390 . S
C3383 C3384 1.394 . S
C3383 C3389 1.465 . S
C3384 C3379 1.420 . S
C3384 C3383 1.394 . S
C3384 C3385 1.516 . S
C3385 C3384 1.516 . S
C3385 C3386 1.502 1_554 S
C3385 C3387 1.561 1_554 S
C3385 C3388 1.526 . S
C3386 H3370 0.959 . S
C3386 H3371 0.959 . S
C3386 H3372 0.961 . S
C3386 C3385 1.502 1_556 S
C3387 H3373 0.960 . S
C3387 H3374 0.961 . S
C3387 H3375 0.959 1_556 S
C3387 C3385 1.561 1_556 S
C3388 C3385 1.526 . S
C3388 C3389 1.396 . S
C3388 C3393 1.390 . S
C3389 C3383 1.465 . S
C3389 C3388 1.396 . S
C3389 C3390 1.399 . S
C3390 H3376 0.929 . S
C3390 C3389 1.399 . S
C3390 C3391 1.385 . S
C3391 H3377 0.931 . S
C3391 C3390 1.385 . S
C3391 C3392 1.389 . S
C3392 C3391 1.389 . S
C3392 C3393 1.387 . S
C3393 H3378 0.930 . S
C3393 C3388 1.390 . S
C3393 C3392 1.387 . S
H3394 C3406 0.930 . S
H3395 C3408 0.930 . S
H3396 C3409 0.930 . S
H3397 C3413 0.959 . S
H3398 C3413 0.959 . S
H3399 C3413 0.961 . S
H3400 C3414 0.960 . S
H3401 C3414 0.961 . S
H3402 C3414 0.959 . S
H3403 C3417 0.929 . S
H3404 C3418 0.931 . S
H3405 C3420 0.930 . S
C3406 H3394 0.930 . S
C3406 C3407 1.399 . S
C3406 C3411 1.399 . S
C3407 C3406 1.399 . S
C3407 C3408 1.376 . S
C3408 H3395 0.930 . S
C3408 C3407 1.376 . S
C3408 C3409 1.388 . S
C3409 H3396 0.930 . S
C3409 C3408 1.388 . S
C3409 C3410 1.390 . S
C3410 C3409 1.390 . S
C3410 C3411 1.394 . S
C3410 C3416 1.465 . S
C3411 C3406 1.399 . S
C3411 C3410 1.394 . S
C3411 C3412 1.516 . S
C3412 C3411 1.516 . S
C3412 C3413 1.502 . S
C3412 C3414 1.561 . S
C3412 C3415 1.526 . S
C3413 H3397 0.959 . S
C3413 H3398 0.959 . S
C3413 H3399 0.961 . S
C3413 C3412 1.502 . S
C3414 H3400 0.960 . S
C3414 H3401 0.961 . S
C3414 H3402 0.959 . S
C3414 C3412 1.561 . S
C3415 C3412 1.526 . S
C3415 C3416 1.396 . S
C3415 C3420 1.390 . S
C3416 C3410 1.465 . S
C3416 C3415 1.396 . S
C3416 C3417 1.399 . S
C3417 H3403 0.929 . S
C3417 C3416 1.399 . S
C3417 C3418 1.385 . S
C3418 H3404 0.931 . S
C3418 C3417 1.385 . S
C3418 C3419 1.389 . S
C3419 C3418 1.389 . S
C3419 C3420 1.387 . S
C3420 H3405 0.930 . S
C3420 C3415 1.390 . S
C3420 C3419 1.387 . S
H3421 C3433 0.930 . S
H3422 C3435 0.930 . S
H3423 C3436 0.930 . S
H3424 C3440 0.959 . S
H3425 C3440 0.959 . S
H3426 C3440 0.961 . S
H3427 C3441 0.960 . S
H3428 C3441 0.961 . S
H3429 C3441 0.959 . S
H3430 C3444 0.929 . S
H3431 C3445 0.931 . S
H3432 C3447 0.930 . S
C3433 H3421 0.930 . S
C3433 C3434 1.399 . S
C3433 C3438 1.399 . S
C3434 C3433 1.399 . S
C3434 C3435 1.376 . S
C3435 H3422 0.930 . S
C3435 C3434 1.376 . S
C3435 C3436 1.388 . S
C3436 H3423 0.930 . S
C3436 C3435 1.388 . S
C3436 C3437 1.390 . S
C3437 C3436 1.390 . S
C3437 C3438 1.394 . S
C3437 C3443 1.465 . S
C3438 C3433 1.399 . S
C3438 C3437 1.394 . S
C3438 C3439 1.516 . S
C3439 C3438 1.516 . S
C3439 C3440 1.502 . S
C3439 C3441 1.561 . S
C3439 C3442 1.526 . S
C3440 H3424 0.959 . S
C3440 H3425 0.959 . S
C3440 H3426 0.961 . S
C3440 C3439 1.502 . S
C3441 H3427 0.960 . S
C3441 H3428 0.961 . S
C3441 H3429 0.959 . S
C3441 C3439 1.561 . S
C3442 C3439 1.526 . S
C3442 C3443 1.396 . S
C3442 C3447 1.390 . S
C3443 C3437 1.465 . S
C3443 C3442 1.396 . S
C3443 C3444 1.399 . S
C3444 H3430 0.929 . S
C3444 C3443 1.399 . S
C3444 C3445 1.385 . S
C3445 H3431 0.931 . S
C3445 C3444 1.385 . S
C3445 C3446 1.389 . S
C3446 C3445 1.389 . S
C3446 C3447 1.387 . S
C3447 H3432 0.930 . S
C3447 C3442 1.390 . S
C3447 C3446 1.387 . S
H3448 C3460 0.930 . S
H3449 C3462 0.930 . S
H3450 C3463 0.930 . S
H3451 C3467 0.959 . S
H3452 C3467 0.959 . S
H3453 C3467 0.961 . S
H3454 C3468 0.960 . S
H3455 C3468 0.961 . S
H3456 C3468 0.959 . S
H3457 C3471 0.929 . S
H3458 C3472 0.931 . S
H3459 C3474 0.930 . S
C3460 H3448 0.930 . S
C3460 C3461 1.399 . S
C3460 C3465 1.399 . S
C3461 C3460 1.399 . S
C3461 C3462 1.376 . S
C3462 H3449 0.930 . S
C3462 C3461 1.376 . S
C3462 C3463 1.388 . S
C3463 H3450 0.930 . S
C3463 C3462 1.388 . S
C3463 C3464 1.390 . S
C3464 C3463 1.390 . S
C3464 C3465 1.394 . S
C3464 C3470 1.465 . S
C3465 C3460 1.399 . S
C3465 C3464 1.394 . S
C3465 C3466 1.516 . S
C3466 C3465 1.516 . S
C3466 C3467 1.502 . S
C3466 C3468 1.561 . S
C3466 C3469 1.526 . S
C3467 H3451 0.959 . S
C3467 H3452 0.959 . S
C3467 H3453 0.961 . S
C3467 C3466 1.502 . S
C3468 H3454 0.960 . S
C3468 H3455 0.961 . S
C3468 H3456 0.959 . S
C3468 C3466 1.561 . S
C3469 C3466 1.526 . S
C3469 C3470 1.396 . S
C3469 C3474 1.390 . S
C3470 C3464 1.465 . S
C3470 C3469 1.396 . S
C3470 C3471 1.399 . S
C3471 H3457 0.929 . S
C3471 C3470 1.399 . S
C3471 C3472 1.385 . S
C3472 H3458 0.931 . S
C3472 C3471 1.385 . S
C3472 C3473 1.389 . S
C3473 C3472 1.389 . S
C3473 C3474 1.387 . S
C3474 H3459 0.930 . S
C3474 C3469 1.390 . S
C3474 C3473 1.387 . S
H3475 C3487 0.930 . S
H3476 C3489 0.930 . S
H3477 C3490 0.930 . S
H3478 C3494 0.959 . S
H3479 C3494 0.959 . S
H3480 C3494 0.961 . S
H3481 C3495 0.960 . S
H3482 C3495 0.961 . S
H3483 C3495 0.959 . S
H3484 C3498 0.929 . S
H3485 C3499 0.931 . S
H3486 C3501 0.930 . S
C3487 H3475 0.930 . S
C3487 C3488 1.399 . S
C3487 C3492 1.399 . S
C3488 C3487 1.399 . S
C3488 C3489 1.376 . S
C3489 H3476 0.930 . S
C3489 C3488 1.376 . S
C3489 C3490 1.388 . S
C3490 H3477 0.930 . S
C3490 C3489 1.388 . S
C3490 C3491 1.390 . S
C3491 C3490 1.390 . S
C3491 C3492 1.394 . S
C3491 C3497 1.465 . S
C3492 C3487 1.399 . S
C3492 C3491 1.394 . S
C3492 C3493 1.516 . S
C3493 C3492 1.516 . S
C3493 C3494 1.502 . S
C3493 C3495 1.561 . S
C3493 C3496 1.526 . S
C3494 H3478 0.959 . S
C3494 H3479 0.959 . S
C3494 H3480 0.961 . S
C3494 C3493 1.502 . S
C3495 H3481 0.960 . S
C3495 H3482 0.961 . S
C3495 H3483 0.959 . S
C3495 C3493 1.561 . S
C3496 C3493 1.526 . S
C3496 C3497 1.396 . S
C3496 C3501 1.390 . S
C3497 C3491 1.465 . S
C3497 C3496 1.396 . S
C3497 C3498 1.399 . S
C3498 H3484 0.929 . S
C3498 C3497 1.399 . S
C3498 C3499 1.385 . S
C3499 H3485 0.931 . S
C3499 C3498 1.385 . S
C3499 C3500 1.389 . S
C3500 C3499 1.389 . S
C3500 C3501 1.387 . S
C3501 H3486 0.930 . S
C3501 C3496 1.390 . S
C3501 C3500 1.387 . S
H3502 C3514 0.930 . S
H3503 C3516 0.930 . S
H3504 C3517 0.930 . S
H3505 C3521 0.959 . S
H3506 C3521 0.959 . S
H3507 C3521 0.961 . S
H3508 C3522 0.960 . S
H3509 C3522 0.961 . S
H3510 C3522 0.959 . S
H3511 C3525 0.929 . S
H3512 C3526 0.931 . S
H3513 C3528 0.930 . S
C3514 H3502 0.930 . S
C3514 C3515 1.399 . S
C3514 C3519 1.399 . S
C3515 C3514 1.399 . S
C3515 C3516 1.376 . S
C3516 H3503 0.930 . S
C3516 C3515 1.376 . S
C3516 C3517 1.388 . S
C3517 H3504 0.930 . S
C3517 C3516 1.388 . S
C3517 C3518 1.390 . S
C3518 C3517 1.390 . S
C3518 C3519 1.394 . S
C3518 C3524 1.465 . S
C3519 C3514 1.399 . S
C3519 C3518 1.394 . S
C3519 C3520 1.516 . S
C3520 C3519 1.516 . S
C3520 C3521 1.502 . S
C3520 C3522 1.561 . S
C3520 C3523 1.526 . S
C3521 H3505 0.959 . S
C3521 H3506 0.959 . S
C3521 H3507 0.961 . S
C3521 C3520 1.502 . S
C3522 H3508 0.960 . S
C3522 H3509 0.961 . S
C3522 H3510 0.959 . S
C3522 C3520 1.561 . S
C3523 C3520 1.526 . S
C3523 C3524 1.396 . S
C3523 C3528 1.390 . S
C3524 C3518 1.465 . S
C3524 C3523 1.396 . S
C3524 C3525 1.399 . S
C3525 H3511 0.929 . S
C3525 C3524 1.399 . S
C3525 C3526 1.385 . S
C3526 H3512 0.931 . S
C3526 C3525 1.385 . S
C3526 C3527 1.389 . S
C3527 C3526 1.389 . S
C3527 C3528 1.387 . S
C3528 H3513 0.930 . S
C3528 C3523 1.390 . S
C3528 C3527 1.387 . S
H3529 C3541 0.930 . S
H3530 C3543 0.930 . S
H3531 C3544 0.930 . S
H3532 C3548 0.959 . S
H3533 C3548 0.959 . S
H3534 C3548 0.961 . S
H3535 C3549 0.960 . S
H3536 C3549 0.961 . S
H3537 C3549 0.959 . S
H3538 C3552 0.929 . S
H3539 C3553 0.931 . S
H3540 C3555 0.930 . S
C3541 H3529 0.930 . S
C3541 C3542 1.399 . S
C3541 C3546 1.399 . S
C3542 C3541 1.399 . S
C3542 C3543 1.376 . S
C3543 H3530 0.930 . S
C3543 C3542 1.376 . S
C3543 C3544 1.388 . S
C3544 H3531 0.930 . S
C3544 C3543 1.388 . S
C3544 C3545 1.390 . S
C3545 C3544 1.390 . S
C3545 C3546 1.394 . S
C3545 C3551 1.465 . S
C3546 C3541 1.399 . S
C3546 C3545 1.394 . S
C3546 C3547 1.516 . S
C3547 C3546 1.516 . S
C3547 C3548 1.502 . S
C3547 C3549 1.561 . S
C3547 C3550 1.526 . S
C3548 H3532 0.959 . S
C3548 H3533 0.959 . S
C3548 H3534 0.961 . S
C3548 C3547 1.502 . S
C3549 H3535 0.960 . S
C3549 H3536 0.961 . S
C3549 H3537 0.959 . S
C3549 C3547 1.561 . S
C3550 C3547 1.526 . S
C3550 C3551 1.396 . S
C3550 C3555 1.390 . S
C3551 C3545 1.465 . S
C3551 C3550 1.396 . S
C3551 C3552 1.399 . S
C3552 H3538 0.929 . S
C3552 C3551 1.399 . S
C3552 C3553 1.385 . S
C3553 H3539 0.931 . S
C3553 C3552 1.385 . S
C3553 C3554 1.389 . S
C3554 C3553 1.389 . S
C3554 C3555 1.387 . S
C3555 H3540 0.930 . S
C3555 C3550 1.390 . S
C3555 C3554 1.387 . S
H3556 C3568 0.930 . S
H3557 C3570 0.930 . S
H3558 C3571 0.930 . S
H3559 C3575 0.959 . S
H3560 C3575 0.959 . S
H3561 C3575 0.961 . S
H3562 C3576 0.960 . S
H3563 C3576 0.961 . S
H3564 C3576 0.959 . S
H3565 C3579 0.929 . S
H3566 C3580 0.944 . S
H3567 C3582 0.930 . S
C3568 H3556 0.930 . S
C3568 C3569 1.399 . S
C3568 C3573 1.399 . S
C3569 C3568 1.399 . S
C3569 C3570 1.376 . S
C3570 H3557 0.930 . S
C3570 C3569 1.376 . S
C3570 C3571 1.388 . S
C3571 H3558 0.930 . S
C3571 C3570 1.388 . S
C3571 C3572 1.390 . S
C3572 C3571 1.390 . S
C3572 C3573 1.394 . S
C3572 C3578 1.465 . S
C3573 C3568 1.399 . S
C3573 C3572 1.394 . S
C3573 C3574 1.516 . S
C3574 C3573 1.516 . S
C3574 C3575 1.502 . S
C3574 C3576 1.561 . S
C3574 C3577 1.526 . S
C3575 H3559 0.959 . S
C3575 H3560 0.959 . S
C3575 H3561 0.961 . S
C3575 C3574 1.502 . S
C3576 H3562 0.960 . S
C3576 H3563 0.961 . S
C3576 H3564 0.959 . S
C3576 C3574 1.561 . S
C3577 C3574 1.526 . S
C3577 C3578 1.396 . S
C3577 C3582 1.390 . S
C3578 C3572 1.465 . S
C3578 C3577 1.396 . S
C3578 C3579 1.399 . S
C3579 H3565 0.929 . S
C3579 C3578 1.399 . S
C3579 C3580 1.385 . S
C3580 H3566 0.944 . S
C3580 C3579 1.385 . S
C3580 C3581 1.389 . S
C3581 C3580 1.389 . S
C3581 C3582 1.387 . S
C3582 H3567 0.930 . S
C3582 C3577 1.390 . S
C3582 C3581 1.387 . S
H3583 C3595 0.930 . S
H3584 C3597 0.930 . S
H3585 C3598 0.930 . S
H3586 C3602 0.959 . S
H3587 C3602 0.959 . S
H3588 C3602 0.961 . S
H3589 C3603 0.960 . S
H3590 C3603 0.961 . S
H3591 C3603 0.959 . S
H3592 C3606 0.929 . S
H3593 C3607 0.931 . S
H3594 C3609 0.930 . S
C3595 H3583 0.930 . S
C3595 C3596 1.399 . S
C3595 C3600 1.399 . S
C3596 C3595 1.399 . S
C3596 C3597 1.376 . S
C3597 H3584 0.930 . S
C3597 C3596 1.376 . S
C3597 C3598 1.388 . S
C3598 H3585 0.930 . S
C3598 C3597 1.388 . S
C3598 C3599 1.390 . S
C3599 C3598 1.390 . S
C3599 C3600 1.394 . S
C3599 C3605 1.465 . S
C3600 C3595 1.399 . S
C3600 C3599 1.394 . S
C3600 C3601 1.516 . S
C3601 C3600 1.516 . S
C3601 C3602 1.502 . S
C3601 C3603 1.561 . S
C3601 C3604 1.526 . S
C3602 H3586 0.959 . S
C3602 H3587 0.959 . S
C3602 H3588 0.961 . S
C3602 C3601 1.502 . S
C3603 H3589 0.960 . S
C3603 H3590 0.961 . S
C3603 H3591 0.959 . S
C3603 C3601 1.561 . S
C3604 C3601 1.526 . S
C3604 C3605 1.396 . S
C3604 C3609 1.390 . S
C3605 C3599 1.465 . S
C3605 C3604 1.396 . S
C3605 C3606 1.399 . S
C3606 H3592 0.929 . S
C3606 C3605 1.399 . S
C3606 C3607 1.385 . S
C3607 H3593 0.931 . S
C3607 C3606 1.385 . S
C3607 C3608 1.389 . S
C3608 C3607 1.389 . S
C3608 C3609 1.387 . S
C3609 H3594 0.930 . S
C3609 C3604 1.390 . S
C3609 C3608 1.387 . S
H3610 C3622 0.930 . S
H3611 C3624 0.930 . S
H3612 C3625 0.930 . S
H3613 C3629 0.959 . S
H3614 C3629 0.959 . S
H3615 C3629 0.961 . S
H3616 C3630 0.960 . S
H3617 C3630 0.961 . S
H3618 C3630 0.959 . S
H3619 C3633 0.929 . S
H3620 C3634 0.931 . S
H3621 C3636 0.930 . S
C3622 H3610 0.930 . S
C3622 C3623 1.399 . S
C3622 C3627 1.399 . S
C3623 C3622 1.399 . S
C3623 C3624 1.376 . S
C3624 H3611 0.930 . S
C3624 C3623 1.376 . S
C3624 C3625 1.388 . S
C3625 H3612 0.930 . S
C3625 C3624 1.388 . S
C3625 C3626 1.390 . S
C3626 C3625 1.390 . S
C3626 C3627 1.394 . S
C3626 C3632 1.465 . S
C3627 C3622 1.399 . S
C3627 C3626 1.394 . S
C3627 C3628 1.516 . S
C3628 C3627 1.516 . S
C3628 C3629 1.502 . S
C3628 C3630 1.561 . S
C3628 C3631 1.526 . S
C3629 H3613 0.959 . S
C3629 H3614 0.959 . S
C3629 H3615 0.961 . S
C3629 C3628 1.502 . S
C3630 H3616 0.960 . S
C3630 H3617 0.961 . S
C3630 H3618 0.959 . S
C3630 C3628 1.561 . S
C3631 C3628 1.526 . S
C3631 C3632 1.396 . S
C3631 C3636 1.390 . S
C3632 C3626 1.465 . S
C3632 C3631 1.396 . S
C3632 C3633 1.399 . S
C3633 H3619 0.929 . S
C3633 C3632 1.399 . S
C3633 C3634 1.385 . S
C3634 H3620 0.931 . S
C3634 C3633 1.385 . S
C3634 C3635 1.389 . S
C3635 C3634 1.389 . S
C3635 C3636 1.387 . S
C3636 H3621 0.930 . S
C3636 C3631 1.390 . S
C3636 C3635 1.387 . S
H3637 C3649 0.930 . S
H3638 C3651 0.930 . S
H3639 C3652 0.930 . S
H3640 C3656 0.959 . S
H3641 C3656 0.959 . S
H3642 C3656 0.961 . S
H3643 C3657 0.960 . S
H3644 C3657 0.961 . S
H3645 C3657 0.959 . S
H3646 C3660 0.929 . S
H3647 C3661 0.931 . S
H3648 C3663 0.930 . S
C3649 H3637 0.930 . S
C3649 C3650 1.399 . S
C3649 C3654 1.399 . S
C3650 C3649 1.399 . S
C3650 C3651 1.376 . S
C3651 H3638 0.930 . S
C3651 C3650 1.376 . S
C3651 C3652 1.388 . S
C3652 H3639 0.930 . S
C3652 C3651 1.388 . S
C3652 C3653 1.390 . S
C3653 C3652 1.390 . S
C3653 C3654 1.394 . S
C3653 C3659 1.465 . S
C3654 C3649 1.399 . S
C3654 C3653 1.394 . S
C3654 C3655 1.516 . S
C3655 C3654 1.516 . S
C3655 C3656 1.502 . S
C3655 C3657 1.561 . S
C3655 C3658 1.526 . S
C3656 H3640 0.959 . S
C3656 H3641 0.959 . S
C3656 H3642 0.961 . S
C3656 C3655 1.502 . S
C3657 H3643 0.960 . S
C3657 H3644 0.961 . S
C3657 H3645 0.959 . S
C3657 C3655 1.561 . S
C3658 C3655 1.526 . S
C3658 C3659 1.396 . S
C3658 C3663 1.390 . S
C3659 C3653 1.465 . S
C3659 C3658 1.396 . S
C3659 C3660 1.399 . S
C3660 H3646 0.929 . S
C3660 C3659 1.399 . S
C3660 C3661 1.385 . S
C3661 H3647 0.931 . S
C3661 C3660 1.385 . S
C3661 C3662 1.389 . S
C3662 C3661 1.389 . S
C3662 C3663 1.387 . S
C3663 H3648 0.930 . S
C3663 C3658 1.390 . S
C3663 C3662 1.387 . S
H3664 C3676 0.930 . S
H3665 C3678 0.930 . S
H3666 C3679 0.930 . S
H3667 C3683 0.959 . S
H3668 C3683 0.959 . S
H3669 C3683 0.961 . S
H3670 C3684 0.960 . S
H3671 C3684 0.961 . S
H3672 C3684 0.959 . S
H3673 C3687 0.929 . S
H3674 C3688 0.931 . S
H3675 C3690 0.930 . S
C3676 H3664 0.930 . S
C3676 C3677 1.399 . S
C3676 C3681 1.399 . S
C3677 C3676 1.399 . S
C3677 C3678 1.376 . S
C3678 H3665 0.930 . S
C3678 C3677 1.376 . S
C3678 C3679 1.388 . S
C3679 H3666 0.930 . S
C3679 C3678 1.388 . S
C3679 C3680 1.390 . S
C3680 C3679 1.390 . S
C3680 C3681 1.394 . S
C3680 C3686 1.465 . S
C3681 C3676 1.399 . S
C3681 C3680 1.394 . S
C3681 C3682 1.516 . S
C3682 C3681 1.516 . S
C3682 C3683 1.502 . S
C3682 C3684 1.561 . S
C3682 C3685 1.526 . S
C3683 H3667 0.959 . S
C3683 H3668 0.959 . S
C3683 H3669 0.961 . S
C3683 C3682 1.502 . S
C3684 H3670 0.960 . S
C3684 H3671 0.961 . S
C3684 H3672 0.959 . S
C3684 C3682 1.561 . S
C3685 C3682 1.526 . S
C3685 C3686 1.396 . S
C3685 C3690 1.390 . S
C3686 C3680 1.465 . S
C3686 C3685 1.396 . S
C3686 C3687 1.399 . S
C3687 H3673 0.929 . S
C3687 C3686 1.399 . S
C3687 C3688 1.385 . S
C3688 H3674 0.931 . S
C3688 C3687 1.385 . S
C3688 C3689 1.389 . S
C3689 C3688 1.389 . S
C3689 C3690 1.387 . S
C3690 H3675 0.930 . S
C3690 C3685 1.390 . S
C3690 C3689 1.387 . S
H3691 C3703 0.930 . S
H3692 C3705 0.930 . S
H3693 C3706 0.930 . S
H3694 C3710 0.959 . S
H3695 C3710 0.959 . S
H3696 C3710 0.961 . S
H3697 C3711 0.960 . S
H3698 C3711 0.961 . S
H3699 C3711 0.959 . S
H3700 C3714 0.929 . S
H3701 C3715 0.931 . S
H3702 C3717 0.930 . S
C3703 H3691 0.930 . S
C3703 C3704 1.399 . S
C3703 C3708 1.399 . S
C3704 C3703 1.399 . S
C3704 C3705 1.376 . S
C3705 H3692 0.930 . S
C3705 C3704 1.376 . S
C3705 C3706 1.388 . S
C3706 H3693 0.930 . S
C3706 C3705 1.388 . S
C3706 C3707 1.390 . S
C3707 C3706 1.390 . S
C3707 C3708 1.394 . S
C3707 C3713 1.465 . S
C3708 C3703 1.399 . S
C3708 C3707 1.394 . S
C3708 C3709 1.516 . S
C3709 C3708 1.516 . S
C3709 C3710 1.502 . S
C3709 C3711 1.561 . S
C3709 C3712 1.526 . S
C3710 H3694 0.959 . S
C3710 H3695 0.959 . S
C3710 H3696 0.961 . S
C3710 C3709 1.502 . S
C3711 H3697 0.960 . S
C3711 H3698 0.961 . S
C3711 H3699 0.959 . S
C3711 C3709 1.561 . S
C3712 C3709 1.526 . S
C3712 C3713 1.396 . S
C3712 C3717 1.390 . S
C3713 C3707 1.465 . S
C3713 C3712 1.396 . S
C3713 C3714 1.399 . S
C3714 H3700 0.929 . S
C3714 C3713 1.399 . S
C3714 C3715 1.385 . S
C3715 H3701 0.931 . S
C3715 C3714 1.385 . S
C3715 C3716 1.389 . S
C3716 C3715 1.389 . S
C3716 C3717 1.387 . S
C3717 H3702 0.930 . S
C3717 C3712 1.390 . S
C3717 C3716 1.387 . S
H3718 C3730 0.930 . S
H3719 C3732 0.930 . S
H3720 C3733 0.930 . S
H3721 C3737 0.959 . S
H3722 C3737 0.959 . S
H3723 C3737 0.961 . S
H3724 C3738 0.960 . S
H3725 C3738 0.961 1_455 S
H3726 C3738 0.959 . S
H3727 C3741 0.929 . S
H3728 C3742 0.931 . S
H3729 C3744 0.930 . S
C3730 H3718 0.930 . S
C3730 C3731 1.399 . S
C3730 C3735 1.399 . S
C3731 C3730 1.399 . S
C3731 C3732 1.376 . S
C3732 H3719 0.930 . S
C3732 C3731 1.376 . S
C3732 C3733 1.388 . S
C3733 H3720 0.930 . S
C3733 C3732 1.388 . S
C3733 C3734 1.390 . S
C3734 C3733 1.390 . S
C3734 C3735 1.394 . S
C3734 C3740 1.465 . S
C3735 C3730 1.399 . S
C3735 C3734 1.394 . S
C3735 C3736 1.516 1_655 S
C3736 C3735 1.516 1_455 S
C3736 C3737 1.502 . S
C3736 C3738 1.561 1_455 S
C3736 C3739 1.526 . S
C3737 H3721 0.959 . S
C3737 H3722 0.959 . S
C3737 H3723 0.961 . S
C3737 C3736 1.502 . S
C3738 H3724 0.960 . S
C3738 H3725 0.961 1_655 S
C3738 H3726 0.959 . S
C3738 C3736 1.561 1_655 S
C3739 C3736 1.526 . S
C3739 C3740 1.396 1_455 S
C3739 C3744 1.390 . S
C3740 C3734 1.465 . S
C3740 C3739 1.396 1_655 S
C3740 C3741 1.399 . S
C3741 H3727 0.929 . S
C3741 C3740 1.399 . S
C3741 C3742 1.385 1_655 S
C3742 H3728 0.931 . S
C3742 C3741 1.385 1_455 S
C3742 C3743 1.389 . S
C3743 C3742 1.389 . S
C3743 C3744 1.387 . S
C3744 H3729 0.930 . S
C3744 C3739 1.390 . S
C3744 C3743 1.387 . S
H3745 C3757 0.930 . S
H3746 C3759 0.930 . S
H3747 C3760 0.930 . S
H3748 C3764 0.959 . S
H3749 C3764 0.959 . S
H3750 C3764 0.961 . S
H3751 C3765 0.960 . S
H3752 C3765 0.961 . S
H3753 C3765 0.959 . S
H3754 C3768 0.929 . S
H3755 C3769 0.931 . S
H3756 C3771 0.930 . S
C3757 H3745 0.930 . S
C3757 C3758 1.399 . S
C3757 C3762 1.399 . S
C3758 C3757 1.399 . S
C3758 C3759 1.376 . S
C3759 H3746 0.930 . S
C3759 C3758 1.376 . S
C3759 C3760 1.388 . S
C3760 H3747 0.930 . S
C3760 C3759 1.388 . S
C3760 C3761 1.390 . S
C3761 C3760 1.390 . S
C3761 C3762 1.394 . S
C3761 C3767 1.465 . S
C3762 C3757 1.399 . S
C3762 C3761 1.394 . S
C3762 C3763 1.516 . S
C3763 C3762 1.516 . S
C3763 C3764 1.502 . S
C3763 C3765 1.561 . S
C3763 C3766 1.526 . S
C3764 H3748 0.959 . S
C3764 H3749 0.959 . S
C3764 H3750 0.961 . S
C3764 C3763 1.502 . S
C3765 H3751 0.960 . S
C3765 H3752 0.961 . S
C3765 H3753 0.959 . S
C3765 C3763 1.561 . S
C3766 C3763 1.526 . S
C3766 C3767 1.396 . S
C3766 C3771 1.390 . S
C3767 C3761 1.465 . S
C3767 C3766 1.396 . S
C3767 C3768 1.399 . S
C3768 H3754 0.929 . S
C3768 C3767 1.399 . S
C3768 C3769 1.385 . S
C3769 H3755 0.931 . S
C3769 C3768 1.385 . S
C3769 C3770 1.389 . S
C3770 C3769 1.389 . S
C3770 C3771 1.387 . S
C3771 H3756 0.930 . S
C3771 C3766 1.390 . S
C3771 C3770 1.387 . S
H3772 C3784 0.930 . S
H3773 C3786 0.930 . S
H3774 C3787 0.930 . S
H3775 C3791 0.959 . S
H3776 C3791 0.959 . S
H3777 C3791 0.961 . S
H3778 C3792 0.960 . S
H3779 C3792 0.961 . S
H3780 C3792 0.959 . S
H3781 C3795 0.929 . S
H3782 C3796 0.931 . S
H3783 C3798 0.930 . S
C3784 H3772 0.930 . S
C3784 C3785 1.399 . S
C3784 C3789 1.399 . S
C3785 C3784 1.399 . S
C3785 C3786 1.376 . S
C3786 H3773 0.930 . S
C3786 C3785 1.376 . S
C3786 C3787 1.388 . S
C3787 H3774 0.930 . S
C3787 C3786 1.388 . S
C3787 C3788 1.390 . S
C3788 C3787 1.390 . S
C3788 C3789 1.394 . S
C3788 C3794 1.465 . S
C3789 C3784 1.399 . S
C3789 C3788 1.394 . S
C3789 C3790 1.516 . S
C3790 C3789 1.516 . S
C3790 C3791 1.502 . S
C3790 C3792 1.561 . S
C3790 C3793 1.526 . S
C3791 H3775 0.959 . S
C3791 H3776 0.959 . S
C3791 H3777 0.961 . S
C3791 C3790 1.502 . S
C3792 H3778 0.960 . S
C3792 H3779 0.961 . S
C3792 H3780 0.959 . S
C3792 C3790 1.561 . S
C3793 C3790 1.526 . S
C3793 C3794 1.396 . S
C3793 C3798 1.390 . S
C3794 C3788 1.465 . S
C3794 C3793 1.396 . S
C3794 C3795 1.399 . S
C3795 H3781 0.929 . S
C3795 C3794 1.399 . S
C3795 C3796 1.385 . S
C3796 H3782 0.931 . S
C3796 C3795 1.385 . S
C3796 C3797 1.389 . S
C3797 C3796 1.389 . S
C3797 C3798 1.387 . S
C3798 H3783 0.930 . S
C3798 C3793 1.390 . S
C3798 C3797 1.387 . S
H3799 C3811 0.930 . S
H3800 C3813 0.930 . S
H3801 C3814 0.930 . S
H3802 C3818 0.959 . S
H3803 C3818 0.959 . S
H3804 C3818 0.961 . S
H3805 C3819 0.960 . S
H3806 C3819 0.961 . S
H3807 C3819 0.959 . S
H3808 C3822 0.929 . S
H3809 C3823 0.931 . S
H3810 C3825 0.930 . S
C3811 H3799 0.930 . S
C3811 C3812 1.399 . S
C3811 C3816 1.399 . S
C3812 C3811 1.399 . S
C3812 C3813 1.376 . S
C3813 H3800 0.930 . S
C3813 C3812 1.376 . S
C3813 C3814 1.388 . S
C3814 H3801 0.930 . S
C3814 C3813 1.388 . S
C3814 C3815 1.390 . S
C3815 C3814 1.390 . S
C3815 C3816 1.394 . S
C3815 C3821 1.465 . S
C3816 C3811 1.399 . S
C3816 C3815 1.394 . S
C3816 C3817 1.516 . S
C3817 C3816 1.516 . S
C3817 C3818 1.502 . S
C3817 C3819 1.561 . S
C3817 C3820 1.526 . S
C3818 H3802 0.959 . S
C3818 H3803 0.959 . S
C3818 H3804 0.961 . S
C3818 C3817 1.502 . S
C3819 H3805 0.960 . S
C3819 H3806 0.961 . S
C3819 H3807 0.959 . S
C3819 C3817 1.561 . S
C3820 C3817 1.526 . S
C3820 C3821 1.396 . S
C3820 C3825 1.390 . S
C3821 C3815 1.465 . S
C3821 C3820 1.396 . S
C3821 C3822 1.399 . S
C3822 H3808 0.929 . S
C3822 C3821 1.399 . S
C3822 C3823 1.385 . S
C3823 H3809 0.931 . S
C3823 C3822 1.385 . S
C3823 C3824 1.389 . S
C3824 C3823 1.389 . S
C3824 C3825 1.387 . S
C3825 H3810 0.930 . S
C3825 C3820 1.390 . S
C3825 C3824 1.387 . S
H3826 C3838 0.930 . S
H3827 C3840 0.930 . S
H3828 C3841 0.930 . S
H3829 C3845 0.959 . S
H3830 C3845 0.959 . S
H3831 C3845 0.961 . S
H3832 C3846 0.960 . S
H3833 C3846 0.961 . S
H3834 C3846 0.959 . S
H3835 C3849 0.929 . S
H3836 C3850 0.931 . S
H3837 C3852 0.930 . S
C3838 H3826 0.930 . S
C3838 C3839 1.399 . S
C3838 C3843 1.399 . S
C3839 C3838 1.399 . S
C3839 C3840 1.376 . S
C3840 H3827 0.930 . S
C3840 C3839 1.376 . S
C3840 C3841 1.388 . S
C3841 H3828 0.930 . S
C3841 C3840 1.388 . S
C3841 C3842 1.390 . S
C3842 C3841 1.390 . S
C3842 C3843 1.394 . S
C3842 C3848 1.465 . S
C3843 C3838 1.399 . S
C3843 C3842 1.394 . S
C3843 C3844 1.516 . S
C3844 C3843 1.516 . S
C3844 C3845 1.502 . S
C3844 C3846 1.561 . S
C3844 C3847 1.526 . S
C3845 H3829 0.959 . S
C3845 H3830 0.959 . S
C3845 H3831 0.961 . S
C3845 C3844 1.502 . S
C3846 H3832 0.960 . S
C3846 H3833 0.961 . S
C3846 H3834 0.959 . S
C3846 C3844 1.561 . S
C3847 C3844 1.526 . S
C3847 C3848 1.396 . S
C3847 C3852 1.390 . S
C3848 C3842 1.465 . S
C3848 C3847 1.396 . S
C3848 C3849 1.399 . S
C3849 H3835 0.929 . S
C3849 C3848 1.399 . S
C3849 C3850 1.385 . S
C3850 H3836 0.931 . S
C3850 C3849 1.385 . S
C3850 C3851 1.389 . S
C3851 C3850 1.389 . S
C3851 C3852 1.387 . S
C3852 H3837 0.930 . S
C3852 C3847 1.390 . S
C3852 C3851 1.387 . S
H3853 C3865 0.930 . S
H3854 C3867 0.930 . S
H3855 C3868 0.930 . S
H3856 C3872 0.959 . S
H3857 C3872 0.959 . S
H3858 C3872 0.961 . S
H3859 C3873 0.960 . S
H3860 C3873 0.961 . S
H3861 C3873 0.959 . S
H3862 C3876 0.929 . S
H3863 C3877 0.931 . S
H3864 C3879 0.930 . S
C3865 H3853 0.930 . S
C3865 C3866 1.399 . S
C3865 C3870 1.399 . S
C3866 C3865 1.399 . S
C3866 C3867 1.376 . S
C3867 H3854 0.930 . S
C3867 C3866 1.376 . S
C3867 C3868 1.388 . S
C3868 H3855 0.930 . S
C3868 C3867 1.388 . S
C3868 C3869 1.390 . S
C3869 C3868 1.390 . S
C3869 C3870 1.394 . S
C3869 C3875 1.465 . S
C3870 C3865 1.399 . S
C3870 C3869 1.394 . S
C3870 C3871 1.516 . S
C3871 C3870 1.516 . S
C3871 C3872 1.502 . S
C3871 C3873 1.561 . S
C3871 C3874 1.526 . S
C3872 H3856 0.959 . S
C3872 H3857 0.959 . S
C3872 H3858 0.961 . S
C3872 C3871 1.502 . S
C3873 H3859 0.960 . S
C3873 H3860 0.961 . S
C3873 H3861 0.959 . S
C3873 C3871 1.561 . S
C3874 C3871 1.526 . S
C3874 C3875 1.396 . S
C3874 C3879 1.390 . S
C3875 C3869 1.465 . S
C3875 C3874 1.396 . S
C3875 C3876 1.399 . S
C3876 H3862 0.929 . S
C3876 C3875 1.399 . S
C3876 C3877 1.385 . S
C3877 H3863 0.931 . S
C3877 C3876 1.385 . S
C3877 C3878 1.389 . S
C3878 C3877 1.389 . S
C3878 C3879 1.387 . S
C3879 H3864 0.930 . S
C3879 C3874 1.390 . S
C3879 C3878 1.387 . S
H3880 C3892 0.930 . S
H3881 C3894 0.930 . S
H3882 C3895 0.930 . S
H3883 C3899 0.959 . S
H3884 C3899 0.959 . S
H3885 C3899 0.961 . S
H3886 C3900 0.960 . S
H3887 C3900 0.961 . S
H3888 C3900 0.959 . S
H3889 C3903 0.929 . S
H3890 C3904 0.931 . S
H3891 C3906 0.930 . S
C3892 H3880 0.930 . S
C3892 C3893 1.399 . S
C3892 C3897 1.399 . S
C3893 C3892 1.399 . S
C3893 C3894 1.376 . S
C3894 H3881 0.930 . S
C3894 C3893 1.376 . S
C3894 C3895 1.388 . S
C3895 H3882 0.930 . S
C3895 C3894 1.388 . S
C3895 C3896 1.390 . S
C3896 C3895 1.390 . S
C3896 C3897 1.394 . S
C3896 C3902 1.465 . S
C3897 C3892 1.399 . S
C3897 C3896 1.394 . S
C3897 C3898 1.516 . S
C3898 C3897 1.516 . S
C3898 C3899 1.502 . S
C3898 C3900 1.561 . S
C3898 C3901 1.526 . S
C3899 H3883 0.959 . S
C3899 H3884 0.959 . S
C3899 H3885 0.961 . S
C3899 C3898 1.502 . S
C3900 H3886 0.960 . S
C3900 H3887 0.961 . S
C3900 H3888 0.959 . S
C3900 C3898 1.561 . S
C3901 C3898 1.526 . S
C3901 C3902 1.396 . S
C3901 C3906 1.390 . S
C3902 C3896 1.465 . S
C3902 C3901 1.396 . S
C3902 C3903 1.399 . S
C3903 H3889 0.929 . S
C3903 C3902 1.399 . S
C3903 C3904 1.385 . S
C3904 H3890 0.931 . S
C3904 C3903 1.385 . S
C3904 C3905 1.389 . S
C3905 C3904 1.389 . S
C3905 C3906 1.387 . S
C3906 H3891 0.930 . S
C3906 C3901 1.390 . S
C3906 C3905 1.387 . S
H3907 C3919 0.930 . S
H3908 C3921 0.930 . S
H3909 C3922 0.930 . S
H3910 C3926 0.959 . S
H3911 C3926 0.959 . S
H3912 C3926 0.961 . S
H3913 C3927 0.960 . S
H3914 C3927 0.961 . S
H3915 C3927 0.959 . S
H3916 C3930 0.929 . S
H3917 C3931 0.931 . S
H3918 C3933 0.930 . S
C3919 H3907 0.930 . S
C3919 C3920 1.399 . S
C3919 C3924 1.399 . S
C3920 C3919 1.399 . S
C3920 C3921 1.376 . S
C3921 H3908 0.930 . S
C3921 C3920 1.376 . S
C3921 C3922 1.388 . S
C3922 H3909 0.930 . S
C3922 C3921 1.388 . S
C3922 C3923 1.390 . S
C3923 C3922 1.390 . S
C3923 C3924 1.394 . S
C3923 C3929 1.465 . S
C3924 C3919 1.399 . S
C3924 C3923 1.394 . S
C3924 C3925 1.516 . S
C3925 C3924 1.516 . S
C3925 C3926 1.502 . S
C3925 C3927 1.561 . S
C3925 C3928 1.526 . S
C3926 H3910 0.959 . S
C3926 H3911 0.959 . S
C3926 H3912 0.961 . S
C3926 C3925 1.502 . S
C3927 H3913 0.960 . S
C3927 H3914 0.961 . S
C3927 H3915 0.959 . S
C3927 C3925 1.561 . S
C3928 C3925 1.526 . S
C3928 C3929 1.396 . S
C3928 C3933 1.390 . S
C3929 C3923 1.465 . S
C3929 C3928 1.396 . S
C3929 C3930 1.399 . S
C3930 H3916 0.929 . S
C3930 C3929 1.399 . S
C3930 C3931 1.385 . S
C3931 H3917 0.931 . S
C3931 C3930 1.385 . S
C3931 C3932 1.389 . S
C3932 C3931 1.389 . S
C3932 C3933 1.387 . S
C3933 H3918 0.930 . S
C3933 C3928 1.390 . S
C3933 C3932 1.387 . S
H3934 C3946 0.930 . S
H3935 C3948 0.930 . S
H3936 C3949 0.930 . S
H3937 C3953 0.959 . S
H3938 C3953 0.959 . S
H3939 C3953 0.961 . S
H3940 C3954 0.960 . S
H3941 C3954 0.961 . S
H3942 C3954 0.959 . S
H3943 C3957 0.929 . S
H3944 C3958 0.931 . S
H3945 C3960 0.930 . S
C3946 H3934 0.930 . S
C3946 C3947 1.399 . S
C3946 C3951 1.399 . S
C3947 C3946 1.399 . S
C3947 C3948 1.376 . S
C3948 H3935 0.930 . S
C3948 C3947 1.376 . S
C3948 C3949 1.388 . S
C3949 H3936 0.930 . S
C3949 C3948 1.388 . S
C3949 C3950 1.390 . S
C3950 C3949 1.390 . S
C3950 C3951 1.394 . S
C3950 C3956 1.465 . S
C3951 C3946 1.399 . S
C3951 C3950 1.394 . S
C3951 C3952 1.516 . S
C3952 C3951 1.516 . S
C3952 C3953 1.502 . S
C3952 C3954 1.561 . S
C3952 C3955 1.526 . S
C3953 H3937 0.959 . S
C3953 H3938 0.959 . S
C3953 H3939 0.961 . S
C3953 C3952 1.502 . S
C3954 H3940 0.960 . S
C3954 H3941 0.961 . S
C3954 H3942 0.959 . S
C3954 C3952 1.561 . S
C3955 C3952 1.526 . S
C3955 C3956 1.396 . S
C3955 C3960 1.390 . S
C3956 C3950 1.465 . S
C3956 C3955 1.396 . S
C3956 C3957 1.399 . S
C3957 H3943 0.929 . S
C3957 C3956 1.399 . S
C3957 C3958 1.385 . S
C3958 H3944 0.931 . S
C3958 C3957 1.385 . S
C3958 C3959 1.389 . S
C3959 C3958 1.389 . S
C3959 C3960 1.387 . S
C3960 H3945 0.930 . S
C3960 C3955 1.390 . S
C3960 C3959 1.387 . S
H3961 C3973 0.930 . S
H3962 C3975 0.930 . S
H3963 C3976 0.930 . S
H3964 C3980 0.959 . S
H3965 C3980 0.959 . S
H3966 C3980 0.961 . S
H3967 C3981 0.960 . S
H3968 C3981 0.961 . S
H3969 C3981 0.959 . S
H3970 C3984 0.929 . S
H3971 C3985 0.931 . S
H3972 C3987 0.930 . S
C3973 H3961 0.930 . S
C3973 C3974 1.399 . S
C3973 C3978 1.399 . S
C3974 C3973 1.399 . S
C3974 C3975 1.376 . S
C3975 H3962 0.930 . S
C3975 C3974 1.376 . S
C3975 C3976 1.388 . S
C3976 H3963 0.930 . S
C3976 C3975 1.388 . S
C3976 C3977 1.390 . S
C3977 C3976 1.390 . S
C3977 C3978 1.394 . S
C3977 C3983 1.465 . S
C3978 C3973 1.399 . S
C3978 C3977 1.394 . S
C3978 C3979 1.516 . S
C3979 C3978 1.516 . S
C3979 C3980 1.502 1_554 S
C3979 C3981 1.561 . S
C3979 C3982 1.526 . S
C3980 H3964 0.959 . S
C3980 H3965 0.959 . S
C3980 H3966 0.961 . S
C3980 C3979 1.502 1_556 S
C3981 H3967 0.960 . S
C3981 H3968 0.961 . S
C3981 H3969 0.959 . S
C3981 C3979 1.561 . S
C3982 C3979 1.526 . S
C3982 C3983 1.396 . S
C3982 C3987 1.390 . S
C3983 C3977 1.465 . S
C3983 C3982 1.396 . S
C3983 C3984 1.399 . S
C3984 H3970 0.929 . S
C3984 C3983 1.399 . S
C3984 C3985 1.385 . S
C3985 H3971 0.931 . S
C3985 C3984 1.385 . S
C3985 C3986 1.389 . S
C3986 C3985 1.389 . S
C3986 C3987 1.387 . S
C3987 H3972 0.930 . S
C3987 C3982 1.390 . S
C3987 C3986 1.387 . S
H3988 C4000 0.930 . S
H3989 C4002 0.930 . S
H3990 C4003 0.930 . S
H3991 C4007 0.959 . S
H3992 C4007 0.959 . S
H3993 C4007 0.961 . S
H3994 C4008 0.960 . S
H3995 C4008 0.961 . S
H3996 C4008 0.959 . S
H3997 C4011 0.929 . S
H3998 C4012 0.931 . S
H3999 C4014 0.930 . S
C4000 H3988 0.930 . S
C4000 C4001 1.399 . S
C4000 C4005 1.399 . S
C4001 C4000 1.399 . S
C4001 C4002 1.376 . S
C4002 H3989 0.930 . S
C4002 C4001 1.376 . S
C4002 C4003 1.388 . S
C4003 H3990 0.930 . S
C4003 C4002 1.388 . S
C4003 C4004 1.390 . S
C4004 C4003 1.390 . S
C4004 C4005 1.394 . S
C4004 C4010 1.465 . S
C4005 C4000 1.399 . S
C4005 C4004 1.394 . S
C4005 C4006 1.516 . S
C4006 C4005 1.516 . S
C4006 C4007 1.502 . S
C4006 C4008 1.561 . S
C4006 C4009 1.526 . S
C4007 H3991 0.959 . S
C4007 H3992 0.959 . S
C4007 H3993 0.961 . S
C4007 C4006 1.502 . S
C4008 H3994 0.960 . S
C4008 H3995 0.961 . S
C4008 H3996 0.959 . S
C4008 C4006 1.561 . S
C4009 C4006 1.526 . S
C4009 C4010 1.396 . S
C4009 C4014 1.390 . S
C4010 C4004 1.465 . S
C4010 C4009 1.396 . S
C4010 C4011 1.399 . S
C4011 H3997 0.929 . S
C4011 C4010 1.399 . S
C4011 C4012 1.385 . S
C4012 H3998 0.931 . S
C4012 C4011 1.385 . S
C4012 C4013 1.389 . S
C4013 C4012 1.389 . S
C4013 C4014 1.387 . S
C4014 H3999 0.930 . S
C4014 C4009 1.390 . S
C4014 C4013 1.387 . S
H4015 C4027 0.930 . S
H4016 C4029 0.930 . S
H4017 C4030 0.930 . S
H4018 C4034 0.959 . S
H4019 C4034 0.959 . S
H4020 C4034 0.961 . S
H4021 C4035 0.960 . S
H4022 C4035 0.961 . S
H4023 C4035 0.959 . S
H4024 C4038 0.929 . S
H4025 C4039 0.931 . S
H4026 C4041 0.930 . S
C4027 H4015 0.930 . S
C4027 C4028 1.399 . S
C4027 C4032 1.399 . S
C4028 C4027 1.399 . S
C4028 C4029 1.376 1_554 S
C4029 H4016 0.930 . S
C4029 C4028 1.376 1_556 S
C4029 C4030 1.388 . S
C4030 H4017 0.930 . S
C4030 C4029 1.388 . S
C4030 C4031 1.390 . S
C4031 C4030 1.390 . S
C4031 C4032 1.394 1_556 S
C4031 C4037 1.465 . S
C4032 C4027 1.399 . S
C4032 C4031 1.394 1_554 S
C4032 C4033 1.516 . S
C4033 C4032 1.516 . S
C4033 C4034 1.502 . S
C4033 C4035 1.561 . S
C4033 C4036 1.526 . S
C4034 H4018 0.959 . S
C4034 H4019 0.959 . S
C4034 H4020 0.961 . S
C4034 C4033 1.502 . S
C4035 H4021 0.960 . S
C4035 H4022 0.961 . S
C4035 H4023 0.959 . S
C4035 C4033 1.561 . S
C4036 C4033 1.526 . S
C4036 C4037 1.396 1_554 S
C4036 C4041 1.390 . S
C4037 C4031 1.465 . S
C4037 C4036 1.396 1_556 S
C4037 C4038 1.399 . S
C4038 H4024 0.929 . S
C4038 C4037 1.399 . S
C4038 C4039 1.385 . S
C4039 H4025 0.931 . S
C4039 C4038 1.385 . S
C4039 C4040 1.389 . S
C4040 C4039 1.389 . S
C4040 C4041 1.387 1_556 S
C4041 H4026 0.930 . S
C4041 C4036 1.390 . S
C4041 C4040 1.387 1_554 S
H4042 C4054 0.930 . S
H4043 C4056 0.930 . S
H4044 C4057 0.930 . S
H4045 C4061 0.959 . S
H4046 C4061 0.959 . S
H4047 C4061 0.961 . S
H4048 C4062 0.960 . S
H4049 C4062 0.961 . S
H4050 C4062 0.959 . S
H4051 C4065 0.929 . S
H4052 C4066 0.931 . S
H4053 C4068 0.930 . S
C4054 H4042 0.930 . S
C4054 C4055 1.399 . S
C4054 C4059 1.399 . S
C4055 C4054 1.399 . S
C4055 C4056 1.376 . S
C4056 H4043 0.930 . S
C4056 C4055 1.376 . S
C4056 C4057 1.388 . S
C4057 H4044 0.930 . S
C4057 C4056 1.388 . S
C4057 C4058 1.390 . S
C4058 C4057 1.390 . S
C4058 C4059 1.394 . S
C4058 C4064 1.465 . S
C4059 C4054 1.399 . S
C4059 C4058 1.394 . S
C4059 C4060 1.516 . S
C4060 C4059 1.516 . S
C4060 C4061 1.502 . S
C4060 C4062 1.561 . S
C4060 C4063 1.526 . S
C4061 H4045 0.959 . S
C4061 H4046 0.959 . S
C4061 H4047 0.961 . S
C4061 C4060 1.502 . S
C4062 H4048 0.960 . S
C4062 H4049 0.961 . S
C4062 H4050 0.959 . S
C4062 C4060 1.561 . S
C4063 C4060 1.526 . S
C4063 C4064 1.396 . S
C4063 C4068 1.390 . S
C4064 C4058 1.465 . S
C4064 C4063 1.396 . S
C4064 C4065 1.399 . S
C4065 H4051 0.929 . S
C4065 C4064 1.399 . S
C4065 C4066 1.385 . S
C4066 H4052 0.931 . S
C4066 C4065 1.385 . S
C4066 C4067 1.389 . S
C4067 C4066 1.389 . S
C4067 C4068 1.387 . S
C4068 H4053 0.930 . S
C4068 C4063 1.390 . S
C4068 C4067 1.387 . S
H4069 C4081 0.930 . S
H4070 C4083 0.930 . S
H4071 C4084 0.930 . S
H4072 C4088 0.959 . S
H4073 C4088 0.959 . S
H4074 C4088 0.961 . S
H4075 C4089 0.960 . S
H4076 C4089 0.961 . S
H4077 C4089 0.959 . S
H4078 C4092 0.929 . S
H4079 C4093 0.931 . S
H4080 C4095 0.930 . S
C4081 H4069 0.930 . S
C4081 C4082 1.399 . S
C4081 C4086 1.399 . S
C4082 C4081 1.399 . S
C4082 C4083 1.376 . S
C4083 H4070 0.930 . S
C4083 C4082 1.376 . S
C4083 C4084 1.388 . S
C4084 H4071 0.930 . S
C4084 C4083 1.388 . S
C4084 C4085 1.390 . S
C4085 C4084 1.390 . S
C4085 C4086 1.394 . S
C4085 C4091 1.465 . S
C4086 C4081 1.399 . S
C4086 C4085 1.394 . S
C4086 C4087 1.516 . S
C4087 C4086 1.516 . S
C4087 C4088 1.502 . S
C4087 C4089 1.561 . S
C4087 C4090 1.526 . S
C4088 H4072 0.959 . S
C4088 H4073 0.959 . S
C4088 H4074 0.961 . S
C4088 C4087 1.502 . S
C4089 H4075 0.960 . S
C4089 H4076 0.961 . S
C4089 H4077 0.959 . S
C4089 C4087 1.561 . S
C4090 C4087 1.526 . S
C4090 C4091 1.396 . S
C4090 C4095 1.390 . S
C4091 C4085 1.465 . S
C4091 C4090 1.396 . S
C4091 C4092 1.399 . S
C4092 H4078 0.929 . S
C4092 C4091 1.399 . S
C4092 C4093 1.385 . S
C4093 H4079 0.931 . S
C4093 C4092 1.385 . S
C4093 C4094 1.389 . S
C4094 C4093 1.389 . S
C4094 C4095 1.387 . S
C4095 H4080 0.930 . S
C4095 C4090 1.390 . S
C4095 C4094 1.387 . S
C1517 C255 1.002 . S
C1529 C872 1.056 . S
C1544 C147 1.372 . S
C1556 C906 1.390 . S
C1571 C184 0.587 . S
C1583 C975 0.559 . S
C1610 C1013 0.875 . S
C1598 C220 0.941 . S
C1625 C40 1.389 . S
C1637 C1053 1.337 . S
C1664 C1072 0.355 . S
C1652 C74 0.356 . S
C1691 C1106 1.250 . S
C1679 C110 1.306 . S
C1706 C14 1.577 . S
C1718 C1175 1.622 . S
C1745 C881 2.469 . S
C1733 C579 2.488 . S
C1760 C616 1.021 . S
C1772 C933 1.037 . S
C1799 C946 1.438 . S
C1787 C687 1.432 . S
C1826 C1015 1.452 . S
C1814 C436 1.430 . S
C1841 C580 1.952 . S
C1853 C1055 1.967 . S
C1880 C1081 1.835 . S
C1868 C615 1.879 . S
C1907 C1133 0.479 . S
C1895 C688 0.285 . S
C1934 C1146 2.237 . S
C1922 C435 2.248 . S
C1961 C876 2.483 . S
C1949 C410 2.481 . S
C1976 C722 2.039 . S
C1988 C1186 2.046 . S
C2015 C1236 2.789 . S
C2003 C842 2.742 . S
C2042 C1295 1.624 1_655 S
C2030 C794 1.607 . S
C2057 C302 1.564 . S
C2069 C1173 1.534 . S
C2084 C338 1.445 . S
C2096 C973 1.426 . S
C2111 C830 2.554 . S
C2123 C1306 2.552 . S
C2150 C1375 0.948 . S
C2138 C758 0.942 . S
C2177 C893 1.031 . S
C2165 C158 0.978 . S
C2204 C1361 1.401 . S
C2192 C254 1.394 . S
C2219 C218 0.585 . S
C2231 C956 0.594 . S
C2246 C194 0.905 . S
C2258 C1312 0.873 . S
C2285 C1032 1.373 . S
C2273 C3 1.415 . S
C2300 C111 0.288 . S
C2312 C1253 0.377 . S
C2339 C1121 1.237 1_556 S
C2327 C76 1.183 . S
C2366 C1396 1.693 . S
C2354 C50 1.551 . S
C2393 C866 2.424 . S
C2381 C364 2.469 . S
C2420 C1352 1.085 . S
C2408 C795 1.150 . S
C2435 C292 1.379 . S
C2447 C961 1.375 . S
C2462 C723 1.375 . S
C2474 C1316 1.386 . S
C2489 C363 1.932 . S
C2501 C1036 1.956 . S
C2528 C1226 1.816 . S
C2516 C796 1.873 . S
C2543 C291 0.347 . S
C2555 C1112 0.444 1_565 S
C2570 C724 2.262 . S
C2582 C1401 2.232 . S
C2597 C482 2.399 . S
C2609 C895 2.410 1_655 S
C2624 C434 1.996 . S
C2636 C1201 1.990 . S
C2651 C662 2.675 . S
C2663 C1095 2.736 . S
C2678 C614 1.572 . S
C2690 C1276 1.591 . S
C2717 C1392 1.512 . S
C2705 C698 1.298 . S
C2732 C554 1.279 . S
C2744 C952 1.467 . S
C2771 C1001 2.483 . S
C2759 C650 2.470 . S
C2798 C916 0.893 . S
C2786 C506 0.905 . S
C2813 C183 1.077 . S
C2825 C1432 1.041 . S
C2852 C1346 1.373 . S
C2840 C219 1.359 . S
C2867 C256 0.621 . S
C2879 C1495 0.665 . S
C2894 C148 0.922 . S
C2906 C1333 0.887 . S
C2921 C122 1.455 . S
C2933 C1213 1.425 . S
C2960 C1232 0.309 . S
C2948 C2 0.311 . S
C2987 C1266 1.224 . S
C2975 C39 1.164 . S
C3014 C1415 1.650 . S
C3002 C86 1.696 . S
C3041 C1441 2.449 . S
C3029 C651 2.505 . S
C3056 C472 1.089 . S
C3068 C1373 0.989 . S
C3095 C1466 1.404 . S
C3083 C507 1.419 . S
C3122 C1335 1.443 . S
C3110 C544 1.435 . S
C3149 C1215 1.982 . S
C3137 C652 1.925 . S
C3164 C471 1.861 . S
C3176 C1241 1.828 . S
C3203 C1293 0.467 . S
C3191 C508 0.276 . S
C3218 C543 2.280 . S
C3230 C1386 2.261 . S
C3257 C1436 2.482 . S
C3245 C806 2.481 . S
C3272 C326 2.011 . S
C3284 C1026 2.006 . S
C3311 C1076 2.763 . S
C3299 C374 2.717 . S
C3338 C1135 1.633 . S
C3326 C398 1.597 . S
C3365 C1413 1.497 . S
C3353 C770 1.512 . S
C3380 C734 1.436 . S
C3392 C1493 1.431 . S
C3419 C986 2.526 . S
C3407 C362 2.552 . S
C3446 C935 0.969 . S
C3434 C290 0.961 . S
C3461 C230 1.026 . S
C3473 C1453 1.073 . S
C3500 C921 1.392 . S
C3488 C182 1.408 . S
C3515 C146 0.544 . S
C3527 C1476 0.498 . S
C3542 C266 0.903 . S
C3554 C992 0.869 . S
C3569 C75 1.441 . S
C3581 C1192 1.400 . S
C3608 C1093 0.364 . S
C3596 C38 0.416 . S
C3623 C4 1.167 . S
C3635 C1281 1.162 . S
C3650 C112 1.665 . S
C3662 C1156 1.614 . S
C3689 C1426 2.448 . S
C3677 C832 2.460 . S
C3704 C399 1.115 . S
C3716 C912 1.149 . S
C3743 C1481 1.350 . S
C3731 C760 1.359 . S
C3758 C327 1.374 . S
C3770 C996 1.377 . S
C3785 C831 1.966 . S
C3797 C1196 1.990 . S
C3824 C1066 1.809 . S
C3812 C400 1.881 . S
C3839 C759 0.331 . S
C3851 C1272 0.406 . S
C3878 C1161 2.254 . S
C3866 C328 2.251 . S
C3905 C1455 2.451 . S
C3893 C626 2.366 . S
C3932 C1041 1.999 1_665 S
C3920 C542 2.005 . S
C3947 C590 2.643 . S
C3959 C1255 2.707 . S
C3986 C1116 1.618 . S
C3974 C470 1.541 . S
C4001 C518 1.380 . S
C4013 C1152 1.420 . S
C4028 C446 1.266 . S
C4040 C1472 1.453 . S
C4067 C1321 2.495 . S
C4055 C578 2.481 1_565 S
C4094 C1356 0.921 . S
C4082 C686 0.887 . S
