# Generated by pormake.
# Topology gar, (4,6)-cn, num edge types: 1
# Building blocks:
#     Node 0, Type 0, BuildingBlock: CEKHIL_clean_sbu_0, # of connection points: 4
#     Node 1, Type 0, BuildingBlock: CEKHIL_clean_sbu_0, # of connection points: 4
#     Node 2, Type 0, BuildingBlock: CEKHIL_clean_sbu_0, # of connection points: 4
#     Node 3, Type 0, BuildingBlock: CEKHIL_clean_sbu_0, # of connection points: 4
#     Node 4, Type 0, BuildingBlock: CEKHIL_clean_sbu_0, # of connection points: 4
#     Node 5, Type 0, BuildingBlock: CEKHIL_clean_sbu_0, # of connection points: 4
#     Node 6, Type 0, BuildingBlock: CEKHIL_clean_sbu_0, # of connection points: 4
#     Node 7, Type 0, BuildingBlock: CEKHIL_clean_sbu_0, # of connection points: 4
#     Node 8, Type 0, BuildingBlock: CEKHIL_clean_sbu_0, # of connection points: 4
#     Node 9, Type 0, BuildingBlock: CEKHIL_clean_sbu_0, # of connection points: 4
#     Node 10, Type 0, BuildingBlock: CEKHIL_clean_sbu_0, # of connection points: 4
#     Node 11, Type 0, BuildingBlock: CEKHIL_clean_sbu_0, # of connection points: 4
#     Node 12, Type 0, BuildingBlock: CEKHIL_clean_sbu_0, # of connection points: 4
#     Node 13, Type 0, BuildingBlock: CEKHIL_clean_sbu_0, # of connection points: 4
#     Node 14, Type 0, BuildingBlock: CEKHIL_clean_sbu_0, # of connection points: 4
#     Node 15, Type 0, BuildingBlock: CEKHIL_clean_sbu_0, # of connection points: 4
#     Node 16, Type 0, BuildingBlock: CEKHIL_clean_sbu_0, # of connection points: 4
#     Node 17, Type 0, BuildingBlock: CEKHIL_clean_sbu_0, # of connection points: 4
#     Node 18, Type 0, BuildingBlock: CEKHIL_clean_sbu_0, # of connection points: 4
#     Node 19, Type 0, BuildingBlock: CEKHIL_clean_sbu_0, # of connection points: 4
#     Node 20, Type 0, BuildingBlock: CEKHIL_clean_sbu_0, # of connection points: 4
#     Node 21, Type 0, BuildingBlock: CEKHIL_clean_sbu_0, # of connection points: 4
#     Node 22, Type 0, BuildingBlock: CEKHIL_clean_sbu_0, # of connection points: 4
#     Node 23, Type 0, BuildingBlock: CEKHIL_clean_sbu_0, # of connection points: 4
#     Node 24, Type 1, BuildingBlock: KUMBUR_clean_sbu_0, # of connection points: 6
#     Node 25, Type 1, BuildingBlock: KUMBUR_clean_sbu_0, # of connection points: 6
#     Node 26, Type 1, BuildingBlock: KUMBUR_clean_sbu_0, # of connection points: 6
#     Node 27, Type 1, BuildingBlock: KUMBUR_clean_sbu_0, # of connection points: 6
#     Node 28, Type 1, BuildingBlock: KUMBUR_clean_sbu_0, # of connection points: 6
#     Node 29, Type 1, BuildingBlock: KUMBUR_clean_sbu_0, # of connection points: 6
#     Node 30, Type 1, BuildingBlock: KUMBUR_clean_sbu_0, # of connection points: 6
#     Node 31, Type 1, BuildingBlock: KUMBUR_clean_sbu_0, # of connection points: 6
#     Node 32, Type 1, BuildingBlock: KUMBUR_clean_sbu_0, # of connection points: 6
#     Node 33, Type 1, BuildingBlock: KUMBUR_clean_sbu_0, # of connection points: 6
#     Node 34, Type 1, BuildingBlock: KUMBUR_clean_sbu_0, # of connection points: 6
#     Node 35, Type 1, BuildingBlock: KUMBUR_clean_sbu_0, # of connection points: 6
#     Node 36, Type 1, BuildingBlock: KUMBUR_clean_sbu_0, # of connection points: 6
#     Node 37, Type 1, BuildingBlock: KUMBUR_clean_sbu_0, # of connection points: 6
#     Node 38, Type 1, BuildingBlock: KUMBUR_clean_sbu_0, # of connection points: 6
#     Node 39, Type 1, BuildingBlock: KUMBUR_clean_sbu_0, # of connection points: 6
#     Edge 40, Type (0, 1), BuildingBlock: TEMPAE_clean_linker_10, # of connection points: 2
#     Edge 41, Type (0, 1), BuildingBlock: TEMPAE_clean_linker_10, # of connection points: 2
#     Edge 42, Type (0, 1), BuildingBlock: TEMPAE_clean_linker_10, # of connection points: 2
#     Edge 43, Type (0, 1), BuildingBlock: TEMPAE_clean_linker_10, # of connection points: 2
#     Edge 44, Type (0, 1), BuildingBlock: TEMPAE_clean_linker_10, # of connection points: 2
#     Edge 45, Type (0, 1), BuildingBlock: TEMPAE_clean_linker_10, # of connection points: 2
#     Edge 46, Type (0, 1), BuildingBlock: TEMPAE_clean_linker_10, # of connection points: 2
#     Edge 47, Type (0, 1), BuildingBlock: TEMPAE_clean_linker_10, # of connection points: 2
#     Edge 48, Type (0, 1), BuildingBlock: TEMPAE_clean_linker_10, # of connection points: 2
#     Edge 49, Type (0, 1), BuildingBlock: TEMPAE_clean_linker_10, # of connection points: 2
#     Edge 50, Type (0, 1), BuildingBlock: TEMPAE_clean_linker_10, # of connection points: 2
#     Edge 51, Type (0, 1), BuildingBlock: TEMPAE_clean_linker_10, # of connection points: 2
#     Edge 52, Type (0, 1), BuildingBlock: TEMPAE_clean_linker_10, # of connection points: 2
#     Edge 53, Type (0, 1), BuildingBlock: TEMPAE_clean_linker_10, # of connection points: 2
#     Edge 54, Type (0, 1), BuildingBlock: TEMPAE_clean_linker_10, # of connection points: 2
#     Edge 55, Type (0, 1), BuildingBlock: TEMPAE_clean_linker_10, # of connection points: 2
#     Edge 56, Type (0, 1), BuildingBlock: TEMPAE_clean_linker_10, # of connection points: 2
#     Edge 57, Type (0, 1), BuildingBlock: TEMPAE_clean_linker_10, # of connection points: 2
#     Edge 58, Type (0, 1), BuildingBlock: TEMPAE_clean_linker_10, # of connection points: 2
#     Edge 59, Type (0, 1), BuildingBlock: TEMPAE_clean_linker_10, # of connection points: 2
#     Edge 60, Type (0, 1), BuildingBlock: TEMPAE_clean_linker_10, # of connection points: 2
#     Edge 61, Type (0, 1), BuildingBlock: TEMPAE_clean_linker_10, # of connection points: 2
#     Edge 62, Type (0, 1), BuildingBlock: TEMPAE_clean_linker_10, # of connection points: 2
#     Edge 63, Type (0, 1), BuildingBlock: TEMPAE_clean_linker_10, # of connection points: 2
#     Edge 64, Type (0, 1), BuildingBlock: TEMPAE_clean_linker_10, # of connection points: 2
#     Edge 65, Type (0, 1), BuildingBlock: TEMPAE_clean_linker_10, # of connection points: 2
#     Edge 66, Type (0, 1), BuildingBlock: TEMPAE_clean_linker_10, # of connection points: 2
#     Edge 67, Type (0, 1), BuildingBlock: TEMPAE_clean_linker_10, # of connection points: 2
#     Edge 68, Type (0, 1), BuildingBlock: TEMPAE_clean_linker_10, # of connection points: 2
#     Edge 69, Type (0, 1), BuildingBlock: TEMPAE_clean_linker_10, # of connection points: 2
#     Edge 70, Type (0, 1), BuildingBlock: TEMPAE_clean_linker_10, # of connection points: 2
#     Edge 71, Type (0, 1), BuildingBlock: TEMPAE_clean_linker_10, # of connection points: 2
#     Edge 72, Type (0, 1), BuildingBlock: TEMPAE_clean_linker_10, # of connection points: 2
#     Edge 73, Type (0, 1), BuildingBlock: TEMPAE_clean_linker_10, # of connection points: 2
#     Edge 74, Type (0, 1), BuildingBlock: TEMPAE_clean_linker_10, # of connection points: 2
#     Edge 75, Type (0, 1), BuildingBlock: TEMPAE_clean_linker_10, # of connection points: 2
#     Edge 76, Type (0, 1), BuildingBlock: TEMPAE_clean_linker_10, # of connection points: 2
#     Edge 77, Type (0, 1), BuildingBlock: TEMPAE_clean_linker_10, # of connection points: 2
#     Edge 78, Type (0, 1), BuildingBlock: TEMPAE_clean_linker_10, # of connection points: 2
#     Edge 79, Type (0, 1), BuildingBlock: TEMPAE_clean_linker_10, # of connection points: 2
#     Edge 80, Type (0, 1), BuildingBlock: TEMPAE_clean_linker_10, # of connection points: 2
#     Edge 81, Type (0, 1), BuildingBlock: TEMPAE_clean_linker_10, # of connection points: 2
#     Edge 82, Type (0, 1), BuildingBlock: TEMPAE_clean_linker_10, # of connection points: 2
#     Edge 83, Type (0, 1), BuildingBlock: TEMPAE_clean_linker_10, # of connection points: 2
#     Edge 84, Type (0, 1), BuildingBlock: TEMPAE_clean_linker_10, # of connection points: 2
#     Edge 85, Type (0, 1), BuildingBlock: TEMPAE_clean_linker_10, # of connection points: 2
#     Edge 86, Type (0, 1), BuildingBlock: TEMPAE_clean_linker_10, # of connection points: 2
#     Edge 87, Type (0, 1), BuildingBlock: TEMPAE_clean_linker_10, # of connection points: 2
#     Edge 88, Type (0, 1), BuildingBlock: TEMPAE_clean_linker_10, # of connection points: 2
#     Edge 89, Type (0, 1), BuildingBlock: TEMPAE_clean_linker_10, # of connection points: 2
#     Edge 90, Type (0, 1), BuildingBlock: TEMPAE_clean_linker_10, # of connection points: 2
#     Edge 91, Type (0, 1), BuildingBlock: TEMPAE_clean_linker_10, # of connection points: 2
#     Edge 92, Type (0, 1), BuildingBlock: TEMPAE_clean_linker_10, # of connection points: 2
#     Edge 93, Type (0, 1), BuildingBlock: TEMPAE_clean_linker_10, # of connection points: 2
#     Edge 94, Type (0, 1), BuildingBlock: TEMPAE_clean_linker_10, # of connection points: 2
#     Edge 95, Type (0, 1), BuildingBlock: TEMPAE_clean_linker_10, # of connection points: 2
#     Edge 96, Type (0, 1), BuildingBlock: TEMPAE_clean_linker_10, # of connection points: 2
#     Edge 97, Type (0, 1), BuildingBlock: TEMPAE_clean_linker_10, # of connection points: 2
#     Edge 98, Type (0, 1), BuildingBlock: TEMPAE_clean_linker_10, # of connection points: 2
#     Edge 99, Type (0, 1), BuildingBlock: TEMPAE_clean_linker_10, # of connection points: 2
#     Edge 100, Type (0, 1), BuildingBlock: TEMPAE_clean_linker_10, # of connection points: 2
#     Edge 101, Type (0, 1), BuildingBlock: TEMPAE_clean_linker_10, # of connection points: 2
#     Edge 102, Type (0, 1), BuildingBlock: TEMPAE_clean_linker_10, # of connection points: 2
#     Edge 103, Type (0, 1), BuildingBlock: TEMPAE_clean_linker_10, # of connection points: 2
#     Edge 104, Type (0, 1), BuildingBlock: TEMPAE_clean_linker_10, # of connection points: 2
#     Edge 105, Type (0, 1), BuildingBlock: TEMPAE_clean_linker_10, # of connection points: 2
#     Edge 106, Type (0, 1), BuildingBlock: TEMPAE_clean_linker_10, # of connection points: 2
#     Edge 107, Type (0, 1), BuildingBlock: TEMPAE_clean_linker_10, # of connection points: 2
#     Edge 108, Type (0, 1), BuildingBlock: TEMPAE_clean_linker_10, # of connection points: 2
#     Edge 109, Type (0, 1), BuildingBlock: TEMPAE_clean_linker_10, # of connection points: 2
#     Edge 110, Type (0, 1), BuildingBlock: TEMPAE_clean_linker_10, # of connection points: 2
#     Edge 111, Type (0, 1), BuildingBlock: TEMPAE_clean_linker_10, # of connection points: 2
#     Edge 112, Type (0, 1), BuildingBlock: TEMPAE_clean_linker_10, # of connection points: 2
#     Edge 113, Type (0, 1), BuildingBlock: TEMPAE_clean_linker_10, # of connection points: 2
#     Edge 114, Type (0, 1), BuildingBlock: TEMPAE_clean_linker_10, # of connection points: 2
#     Edge 115, Type (0, 1), BuildingBlock: TEMPAE_clean_linker_10, # of connection points: 2
#     Edge 116, Type (0, 1), BuildingBlock: TEMPAE_clean_linker_10, # of connection points: 2
#     Edge 117, Type (0, 1), BuildingBlock: TEMPAE_clean_linker_10, # of connection points: 2
#     Edge 118, Type (0, 1), BuildingBlock: TEMPAE_clean_linker_10, # of connection points: 2
#     Edge 119, Type (0, 1), BuildingBlock: TEMPAE_clean_linker_10, # of connection points: 2
#     Edge 120, Type (0, 1), BuildingBlock: TEMPAE_clean_linker_10, # of connection points: 2
#     Edge 121, Type (0, 1), BuildingBlock: TEMPAE_clean_linker_10, # of connection points: 2
#     Edge 122, Type (0, 1), BuildingBlock: TEMPAE_clean_linker_10, # of connection points: 2
#     Edge 123, Type (0, 1), BuildingBlock: TEMPAE_clean_linker_10, # of connection points: 2
#     Edge 124, Type (0, 1), BuildingBlock: TEMPAE_clean_linker_10, # of connection points: 2
#     Edge 125, Type (0, 1), BuildingBlock: TEMPAE_clean_linker_10, # of connection points: 2
#     Edge 126, Type (0, 1), BuildingBlock: TEMPAE_clean_linker_10, # of connection points: 2
#     Edge 127, Type (0, 1), BuildingBlock: TEMPAE_clean_linker_10, # of connection points: 2
#     Edge 128, Type (0, 1), BuildingBlock: TEMPAE_clean_linker_10, # of connection points: 2
#     Edge 129, Type (0, 1), BuildingBlock: TEMPAE_clean_linker_10, # of connection points: 2
#     Edge 130, Type (0, 1), BuildingBlock: TEMPAE_clean_linker_10, # of connection points: 2
#     Edge 131, Type (0, 1), BuildingBlock: TEMPAE_clean_linker_10, # of connection points: 2
#     Edge 132, Type (0, 1), BuildingBlock: TEMPAE_clean_linker_10, # of connection points: 2
#     Edge 133, Type (0, 1), BuildingBlock: TEMPAE_clean_linker_10, # of connection points: 2
#     Edge 134, Type (0, 1), BuildingBlock: TEMPAE_clean_linker_10, # of connection points: 2
#     Edge 135, Type (0, 1), BuildingBlock: TEMPAE_clean_linker_10, # of connection points: 2
# Relax obj value: 0.121
# Max RMSD: 0.321
# Mean RMSD: 0.150
data_MOF--net-gar--node1-CEKHIL_clean_sbu_0--node2-KUMBUR_clean_sbu_0--edge1-TEMPAE_clean_linker_10
_symmetry_space_group_name_H-M    P1
_symmetry_Int_Tables_number       1
_symmetry_cell_setting            triclinic
loop_
_symmetry_equiv_pos_as_xyz
'x, y, z'
_cell_length_a     62.099357
_cell_length_b     56.449597
_cell_length_c     55.952028
_cell_angle_alpha  100.23458
_cell_angle_beta   93.694852
_cell_angle_gamma 101.90515
loop_
_atom_site_label
_atom_site_type_symbol
_atom_site_fract_x
_atom_site_fract_y
_atom_site_fract_z
_atom_type_partial_charge
Co0 Co 0.12821 0.33911 0.39074 0.0
O1 O 0.15902 0.34007 0.39103 0.0
O2 O 0.13389 0.32533 0.35865 0.0
C3 C 0.13263 0.37775 0.41063 0.0
O4 O 0.09539 0.3364 0.38338 0.0
Co5 Co 0.10576 0.34818 0.43883 0.0
O6 O 0.08004 0.34988 0.41703 0.0
C7 C 0.12167 0.30257 0.42302 0.0
C8 C 0.15452 0.33121 0.36778 0.0
C9 C 0.07904 0.3424 0.39404 0.0
O10 O 0.12298 0.30635 0.40113 0.0
O11 O 0.11771 0.31833 0.44068 0.0
O12 O 0.1338 0.37345 0.38722 0.0
O13 O 0.13038 0.35898 0.4211 0.0
Co14 Co 1.00725 0.77032 0.66502 0.0
O15 O 0.976 0.76731 0.66455 0.0
O16 O 0.99891 0.76635 0.69661 0.0
C17 C 0.01383 0.80224 0.64642 0.0
O18 O 0.04003 0.77283 0.67226 0.0
Co19 Co 0.02916 0.76295 0.61649 0.0
O20 O 0.05741 0.77083 0.63819 0.0
C21 C 1.00103 0.72125 0.63252 0.0
C22 C 0.97895 0.76528 0.68721 0.0
C23 C 0.05759 0.77307 0.66129 0.0
O24 O 1.00252 0.734 0.65411 0.0
O25 O 1.00787 0.73034 0.61426 0.0
O26 O 0.01228 0.80612 0.66976 0.0
O27 O 1.00959 0.77964 0.635 0.0
Co28 Co 0.62768 0.83533 0.88984 0.0
O29 O 0.65814 0.83424 0.89084 0.0
O30 O 0.63349 0.82227 0.85766 0.0
C31 C 0.63249 0.87334 0.91117 0.0
O32 O 0.59542 0.83474 0.88188 0.0
Co33 Co 0.60462 0.84097 0.93765 0.0
O34 O 0.5778 0.83968 0.91577 0.0
C35 C 0.6205 0.79669 0.91945 0.0
C36 C 0.65369 0.8258 0.86751 0.0
C37 C 0.57809 0.83668 0.89271 0.0
O38 O 0.62037 0.80172 0.89801 0.0
O39 O 0.61795 0.81178 0.93841 0.0
O40 O 0.63508 0.87002 0.88806 0.0
O41 O 0.6294 0.85401 0.9209 0.0
Co42 Co 0.50695 0.2704 0.16485 0.0
O43 O 0.4759 0.26879 0.16331 0.0
O44 O 0.49732 0.26669 0.19612 0.0
C45 C 0.5151 0.30226 0.1461 0.0
O46 O 0.53936 0.27203 0.17328 0.0
Co47 Co 0.53037 0.26241 0.11708 0.0
O48 O 0.55788 0.27042 0.13992 0.0
C49 C 0.50263 0.22053 0.13361 0.0
C50 C 0.47793 0.26694 0.18609 0.0
C51 C 0.55723 0.27243 0.16289 0.0
O52 O 0.50186 0.23389 0.15442 0.0
O53 O 0.51076 0.22901 0.11558 0.0
O54 O 0.51263 0.30631 0.16923 0.0
O55 O 0.51077 0.27958 0.1349 0.0
Co56 Co 0.1004 0.82639 0.12284 0.0
O57 O 0.06819 0.82162 0.11693 0.0
O58 O 0.08589 0.81919 0.15134 0.0
C59 C 0.10655 0.86292 0.10652 0.0
O60 O 0.13272 0.83036 0.1392 0.0
Co61 Co 0.13116 0.82468 0.08646 0.0
O62 O 0.15671 0.8294 0.1115 0.0
C63 C 0.10434 0.77708 0.09073 0.0
C64 C 0.06712 0.81828 0.13923 0.0
C65 C 0.15268 0.83047 0.13358 0.0
O66 O 0.09794 0.78906 0.10993 0.0
O67 O 0.11669 0.78836 0.07702 0.0
O68 O 0.10298 0.86251 0.12903 0.0
O69 O 0.10662 0.84119 0.09382 0.0
Co70 Co 0.53401 0.78007 0.43075 0.0
O71 O 0.56619 0.78778 0.43814 0.0
O72 O 0.54847 0.77071 0.40182 0.0
C73 C 0.52979 0.81856 0.44983 0.0
O74 O 0.50153 0.77147 0.41329 0.0
Co75 Co 0.50171 0.7756 0.46599 0.0
O76 O 0.4789 0.7799 0.44134 0.0
C77 C 0.5257 0.73584 0.45846 0.0
C78 C 0.56725 0.77944 0.41519 0.0
C79 C 0.48247 0.77539 0.41909 0.0
O80 O 0.53328 0.74583 0.44059 0.0
O81 O 0.51269 0.74547 0.47198 0.0
O82 O 0.53512 0.81421 0.42775 0.0
O83 O 0.5281 0.79986 0.46092 0.0
Co84 Co 0.59841 0.32375 0.62148 0.0
O85 O 0.56619 0.31932 0.61514 0.0
O86 O 0.58334 0.31543 0.64927 0.0
C87 C 0.60494 0.36083 0.60622 0.0
O88 O 0.63043 0.32714 0.63858 0.0
Co89 Co 0.63109 0.32408 0.58711 0.0
O90 O 0.65624 0.33157 0.61306 0.0
C91 C 0.60512 0.27524 0.59017 0.0
C92 C 0.56476 0.31506 0.63712 0.0
C93 C 0.65103 0.33005 0.63437 0.0
O94 O 0.59594 0.28669 0.60741 0.0
O95 O 0.61955 0.28703 0.57875 0.0
O96 O 0.60094 0.35986 0.62855 0.0
O97 O 0.60562 0.33944 0.5932 0.0
Co98 Co 0.03437 0.27998 0.92963 0.0
O99 O 0.06647 0.28696 0.93628 0.0
O100 O 0.04803 0.26775 0.90087 0.0
C101 C 0.03204 0.31976 0.94708 0.0
O102 O 1.00162 0.27193 0.91314 0.0
Co103 Co 1.00354 0.27957 0.96687 0.0
O104 O 0.98005 0.2816 0.94196 0.0
C105 C 0.02563 0.23814 0.96009 0.0
C106 C 0.06707 0.27684 0.9137 0.0
C107 C 0.98277 0.27609 0.91949 0.0
O108 O 0.03255 0.2464 0.94108 0.0
O109 O 0.01414 0.24975 0.97411 0.0
O110 O 0.03645 0.31372 0.92478 0.0
O111 O 0.02991 0.30183 0.9592 0.0
Co112 Co 0.42708 0.05363 0.32122 0.0
O113 O 0.43227 0.08786 0.3205 0.0
O114 O 0.40184 0.05879 0.30447 0.0
C115 C 0.439 0.05856 0.35953 0.0
O116 O 0.41557 0.01786 0.31881 0.0
Co117 Co 0.46409 0.02683 0.33384 0.0
O118 O 0.44004 0.99681 0.32991 0.0
C119 C 0.45752 0.03902 0.28488 0.0
C120 C 0.41254 0.08168 0.30879 0.0
C121 C 0.42065 0.99786 0.32198 0.0
O122 O 0.44008 0.04673 0.29 0.0
O123 O 0.47011 0.03258 0.30041 0.0
O124 O 0.41882 0.06028 0.35406 0.0
O125 O 0.45149 0.05553 0.34225 0.0
Co126 Co 0.30631 0.19107 0.50778 0.0
O127 O 0.33852 0.19831 0.51234 0.0
O128 O 0.31665 0.16364 0.51696 0.0
C129 C 0.30501 0.20457 0.47154 0.0
O130 O 0.273 0.17473 0.50404 0.0
Co131 Co 0.27809 0.22848 0.50529 0.0
O132 O 0.25207 0.20039 0.495 0.0
C133 C 0.29955 0.22638 0.55328 0.0
C134 C 0.33665 0.17622 0.51687 0.0
C135 C 0.25398 0.17913 0.49817 0.0
O136 O 0.30527 0.20646 0.5434 0.0
O137 O 0.29002 0.23905 0.54092 0.0
O138 O 0.30741 0.18244 0.47254 0.0
O139 O 0.3039 0.21831 0.49241 0.0
Co140 Co 0.18926 0.01308 0.78003 0.0
O141 O 0.18676 0.97529 0.77667 0.0
O142 O 0.21678 0.99915 0.77249 0.0
C143 C 0.1716 0.01848 0.81886 0.0
O144 O 0.20461 0.05166 0.78328 0.0
Co145 Co 0.15646 0.04537 0.78451 0.0
O146 O 0.1806 0.07567 0.79141 0.0
C147 C 0.15943 0.0209 0.73339 0.0
C148 C 0.20762 0.97661 0.77364 0.0
C149 C 0.20025 0.07371 0.78798 0.0
O150 O 0.17583 1.0115 0.74198 0.0
O151 O 0.14944 0.03356 0.74838 0.0
O152 O 0.19203 0.01647 0.81758 0.0
O153 O 0.16233 0.01704 0.79714 0.0
Co154 Co 0.33018 0.95022 0.00974 0.0
O155 O 0.29895 0.94443 0.00772 0.0
O156 O 0.32257 0.98123 0.01945 0.0
C157 C 0.33184 0.92656 0.97418 0.0
O158 O 0.36315 0.96227 0.01336 0.0
Co159 Co 0.35163 0.90433 0.0099 0.0
O160 O 0.37915 0.92958 0.01105 0.0
C161 C 0.33589 0.92851 0.05423 0.0
C162 C 0.30238 0.9681 0.01512 0.0
C163 C 0.38013 0.95271 0.0138 0.0
O164 O 0.33208 0.94624 0.04445 0.0
O165 O 0.34084 0.90902 0.04269 0.0
O166 O 0.32931 0.94891 0.97463 0.0
O167 O 0.33061 0.9188 0.99438 0.0
Co168 Co 0.32572 0.39801 0.03426 0.0
O169 O 0.29356 0.3904 0.03044 0.0
O170 O 0.31481 0.42718 0.04578 0.0
C171 C 0.32929 0.37845 0.99584 0.0
O172 O 0.35893 0.41481 0.03973 0.0
Co173 Co 0.35348 0.35961 0.03292 0.0
O174 O 0.38004 0.38688 0.03597 0.0
C175 C 0.32864 0.36901 0.07504 0.0
C176 C 0.29501 0.4137 0.03898 0.0
C177 C 0.37802 0.40916 0.03938 0.0
O178 O 0.32552 0.38875 0.06804 0.0
O179 O 0.33766 0.35342 0.06223 0.0
O180 O 0.32577 0.40061 1.00001 0.0
O181 O 0.32913 0.36785 0.01461 0.0
Co182 Co 0.80039 0.14232 0.02508 0.0
O183 O 0.83169 0.15076 0.03336 0.0
O184 O 0.80951 0.11503 0.0355 0.0
C185 C 0.80263 0.15726 0.99083 0.0
O186 O 0.76772 0.12709 0.01791 0.0
Co187 Co 0.77241 0.18043 0.01436 0.0
O188 O 0.75058 0.1504 0.99824 0.0
C189 C 0.7885 0.17716 0.06515 0.0
C190 C 0.82948 0.12859 0.03765 0.0
C191 C 0.75065 0.13059 1.00606 0.0
O192 O 0.7956 0.15736 0.05881 0.0
O193 O 0.78039 0.18865 0.05028 0.0
O194 O 0.80475 0.1347 0.99023 0.0
O195 O 0.7994 0.16925 0.01142 0.0
Co196 Co 0.20562 0.54414 0.25199 0.0
O197 O 0.20011 0.50896 0.24278 0.0
O198 O 0.22986 0.5358 0.23635 0.0
C199 C 0.19467 0.54442 0.28895 0.0
O200 O 0.21799 0.58037 0.25896 0.0
Co201 Co 0.17096 0.57484 0.26905 0.0
O202 O 0.19661 0.60309 0.27859 0.0
C203 C 0.17019 0.5486 0.2177 0.0
C204 C 0.21948 0.51303 0.23472 0.0
C205 C 0.21471 0.60089 0.26997 0.0
O206 O 0.19008 0.54592 0.22071 0.0
O207 O 0.15977 0.55746 0.23492 0.0
O208 O 0.21488 0.54247 0.28576 0.0
O209 O 0.18236 0.54563 0.27014 0.0
Co210 Co 0.82606 0.9011 0.53418 0.0
O211 O 0.79398 0.89411 0.53051 0.0
O212 O 0.81559 0.93036 0.54699 0.0
C213 C 0.82935 0.88268 0.4953 0.0
O214 O 0.85957 0.91658 0.5399 0.0
Co215 Co 0.85184 0.86025 0.53043 0.0
O216 O 0.87833 0.88688 0.53033 0.0
C217 C 0.8279 0.87015 0.57337 0.0
C218 C 0.79566 0.9172 0.54005 0.0
C219 C 0.87786 0.90961 0.53634 0.0
O220 O 0.82578 0.89062 0.56729 0.0
O221 O 0.8359 0.85411 0.55975 0.0
O222 O 0.82621 0.90498 0.50014 0.0
O223 O 0.82864 0.87138 0.51355 0.0
Co224 Co 0.94465 0.08142 0.28525 0.0
O225 O 0.94757 0.11927 0.29052 0.0
O226 O 0.91751 0.09418 0.27491 0.0
C227 C 0.96288 0.0787 0.32496 0.0
O228 O 0.92917 0.04269 0.27931 0.0
Co229 Co 0.97887 0.04944 0.28492 0.0
O230 O 0.95441 0.02157 0.28819 0.0
C231 C 0.97376 0.06997 0.23996 0.0
C232 C 0.92701 0.11731 0.28214 0.0
C233 C 0.93423 0.02211 0.2832 0.0
O234 O 0.95707 0.0789 0.24913 0.0
O235 O 0.98491 0.05905 0.25273 0.0
O236 O 0.94306 0.08295 0.32225 0.0
O237 O 0.97143 0.07811 0.3045 0.0
Co238 Co 0.3 0.64027 0.52787 0.0
O239 O 0.33076 0.64698 0.53887 0.0
O240 O 0.3063 0.61211 0.53912 0.0
C241 C 0.30667 0.65481 0.49414 0.0
O242 O 0.2673 0.6268 0.51799 0.0
Co243 Co 0.27556 0.67953 0.51263 0.0
O244 O 0.25218 0.65074 0.49712 0.0
C245 C 0.28654 0.67639 0.56517 0.0
C246 C 0.32676 0.62448 0.54244 0.0
C247 C 0.25094 0.63103 0.50548 0.0
O248 O 0.2934 0.65622 0.56043 0.0
O249 O 0.2806 0.68772 0.54886 0.0
O250 O 0.30686 0.6318 0.49401 0.0
O251 O 0.30209 0.66731 0.51379 0.0
Co252 Co 0.44472 0.58163 0.78458 0.0
O253 O 0.44725 0.61959 0.78961 0.0
O254 O 0.4173 0.59427 0.77461 0.0
C255 C 0.46334 0.57917 0.82439 0.0
O256 O 0.42933 0.54279 0.77848 0.0
Co257 Co 0.47873 0.54941 0.78441 0.0
O258 O 0.4543 0.52151 0.78784 0.0
C259 C 0.47371 0.56982 0.73926 0.0
C260 C 0.42656 0.6175 0.78159 0.0
C261 C 0.43422 0.52214 0.78245 0.0
O262 O 0.45712 0.57902 0.74839 0.0
O263 O 0.48471 0.5588 0.75208 0.0
O264 O 0.44344 0.58321 0.82171 0.0
O265 O 0.4717 0.57846 0.80381 0.0
Co266 Co 0.70883 0.03876 0.74814 0.0
O267 O 0.70608 1.00417 0.73629 0.0
O268 O 0.73437 0.03417 0.73244 0.0
C269 C 0.69756 0.03389 0.78436 0.0
O270 O 0.7185 0.07553 0.75789 0.0
Co271 Co 0.67209 0.06448 0.76918 0.0
O272 O 0.69557 0.09477 0.77911 0.0
C273 C 0.67252 0.04481 0.7158 0.0
C274 C 0.72577 1.01072 0.72957 0.0
C275 C 0.71373 0.09496 0.76978 0.0
O276 O 0.69248 0.04188 0.71769 0.0
O277 O 0.66208 0.05105 0.73404 0.0
O278 O 0.7183 0.0348 0.78121 0.0
O279 O 0.68514 0.03602 0.76609 0.0
Co280 Co 0.80697 0.69126 0.00731 0.0
O281 O 0.83907 0.69918 0.01136 0.0
O282 O 0.81794 0.66335 0.01445 0.0
C283 C 0.80506 0.70668 0.97219 0.0
O284 O 0.77367 0.67457 1.00367 0.0
Co285 Co 0.77847 0.72867 0.00775 0.0
O286 O 0.75263 0.70075 0.99646 0.0
C287 C 0.79909 0.72287 0.05486 0.0
C288 C 0.83765 0.67679 0.01474 0.0
C289 C 0.75458 0.6792 0.99851 0.0
O290 O 0.80645 0.70471 0.0435 0.0
O291 O 0.78839 0.73558 0.04384 0.0
O292 O 0.80746 0.68434 0.97194 0.0
O293 O 0.80416 0.71946 0.99366 0.0
Co294 Co 0.93058 0.55224 0.81017 0.0
O295 O 0.93127 0.5859 0.80984 0.0
O296 O 0.90115 0.55502 0.8034 0.0
C297 C 0.95298 0.55981 0.84387 0.0
O298 O 0.92341 0.516 0.80979 0.0
Co299 Co 0.97286 0.53038 0.80878 0.0
O300 O 0.95344 0.50053 0.81595 0.0
C301 C 0.95124 0.54099 0.76411 0.0
C302 C 0.90992 0.57837 0.80546 0.0
C303 C 0.93262 0.49855 0.81344 0.0
O304 O 0.93464 0.54606 0.77476 0.0
O305 O 0.9682 0.53609 0.77474 0.0
O306 O 0.93207 0.55915 0.84539 0.0
O307 O 0.95959 0.55719 0.82242 0.0
Co308 Co 0.82688 0.44283 0.50737 0.0
O309 O 0.79547 0.43796 0.50403 0.0
O310 O 0.81966 0.47388 0.51756 0.0
C311 C 0.83031 0.42082 0.47146 0.0
O312 O 0.85992 0.45472 0.51258 0.0
Co313 Co 0.84853 0.39764 0.50772 0.0
O314 O 0.87564 0.42199 0.50438 0.0
C315 C 0.82633 0.41642 0.54915 0.0
C316 C 0.79924 0.46161 0.51226 0.0
C317 C 0.87669 0.44515 0.50898 0.0
O318 O 0.82648 0.43648 0.54141 0.0
O319 O 0.83176 0.39759 0.5369 0.0
O320 O 0.82774 0.44326 0.47269 0.0
O321 O 0.82782 0.41179 0.49095 0.0
Co322 Co 0.68899 0.5114 0.27922 0.0
O323 O 0.68561 0.47375 0.27683 0.0
O324 O 0.71558 0.49629 0.27029 0.0
C325 C 0.67217 0.51773 0.3185 0.0
O326 O 0.70542 0.54939 0.28147 0.0
Co327 Co 0.65843 0.54596 0.28483 0.0
O328 O 0.68354 0.57539 0.29202 0.0
C329 C 0.65953 0.52064 0.23334 0.0
C330 C 0.70606 0.4742 0.27246 0.0
C331 C 0.70247 0.57197 0.28703 0.0
O332 O 0.67508 0.50987 0.24149 0.0
O333 O 0.65075 0.53443 0.24868 0.0
O334 O 0.69242 0.51513 0.31681 0.0
O335 O 0.66269 0.51675 0.297 0.0
Tb336 Tb 0.04227 0.03369 0.01339 0.0
C337 C 0.1104 0.1191 0.06571 0.0
C338 C 0.12091 0.14189 0.03384 0.0
C339 C 0.12801 0.16296 0.07619 0.0
C340 C 0.11183 0.11949 0.04119 0.0
C341 C 0.11887 0.14085 0.08348 0.0
C342 C 0.12902 0.16348 0.05144 0.0
C343 C 0.11105 0.11708 0.11479 0.0
N344 N 0.10167 0.09733 0.07227 0.0
C345 C 0.10326 0.09603 0.09667 0.0
C346 C 0.11867 0.13968 0.10818 0.0
Tb347 Tb 0.09365 0.06297 0.04087 0.0
N348 N 0.10395 0.09822 0.02453 0.0
C349 C 0.1038 0.09886 1.00008 0.0
C350 C 0.12128 0.14213 0.00898 0.0
C351 C 0.11242 0.12058 0.99205 0.0
H352 H 0.09861 0.07858 0.1025 0.0
H353 H 0.112 0.12069 0.9727 0.0
H354 H 0.13606 0.18072 0.04607 0.0
H355 H 0.11165 0.11571 0.13386 0.0
H356 H 0.09616 0.08323 0.98625 0.0
H357 H 0.02524 0.96713 0.07326 0.0
H358 H 0.12793 0.15897 1.00267 0.0
H359 H 0.03416 0.02556 0.95223 0.0
H360 H 0.03618 1.00797 0.06425 0.0
H361 H 0.02354 0.99086 0.91735 0.0
H362 H 0.13456 0.17974 0.08959 0.0
H363 H 0.01665 0.93042 0.04007 0.0
H364 H 0.01235 0.91274 0.99551 0.0
H365 H 0.12507 0.15593 0.12228 0.0
H366 H 0.01239 0.9191 0.95324 0.0
N367 N 0.0338 0.9959 0.0253 0.0
C368 C 0.03204 0.99278 0.04899 0.0
C369 C 0.02138 0.94862 0.03573 0.0
C370 C 0.02259 0.95168 0.01159 0.0
C371 C 0.02607 0.96927 0.05447 0.0
C372 C 0.02897 0.9758 0.00684 0.0
H373 H 0.0164 0.94799 0.92405 0.0
N374 N 0.03483 1.0028 0.97895 0.0
C375 C 0.02545 0.98732 0.93567 0.0
C376 C 0.02951 0.97936 0.98299 0.0
C377 C 0.03156 1.00694 0.95561 0.0
C378 C 0.02145 0.96318 0.93953 0.0
C379 C 0.02299 0.95893 0.96336 0.0
O380 O 0.02017 0.04478 0.98986 0.0
O381 O 0.06743 0.06787 0.01624 0.0
O382 O 0.06908 0.06698 0.06988 0.0
O383 O 0.03499 0.0441 0.05176 0.0
O384 O 0.03705 0.07129 0.0238 0.0
O385 O 1.00856 0.02462 0.01814 0.0
O386 O 0.11126 0.05242 0.06928 0.0
O387 O 0.06857 0.02906 0.03846 0.0
O388 O 0.06644 0.03185 0.9836 0.0
O389 O 0.10187 0.04908 1.00304 0.0
O390 O 0.09917 0.02558 0.02991 0.0
O391 O 0.12817 0.07213 0.04263 0.0
C392 C 0.05597 0.08414 0.0214 0.0
C393 C 0.98121 0.03008 0.9892 0.0
C394 C 0.94478 0.03928 0.98893 0.0
C395 C 0.96691 0.04456 0.99859 0.0
C396 C 0.9372 0.01948 0.96906 0.0
C397 C 0.97369 1.01021 0.96964 0.0
C398 C 0.95165 1.00507 0.95947 0.0
C399 C 0.04752 0.05787 0.07144 0.0
C400 C 1.00354 0.03642 1.00133 0.0
C401 C 0.01729 0.93495 0.96809 0.0
C402 C 0.01718 0.93133 0.99215 0.0
C403 C 0.08029 0.01297 0.03312 0.0
C404 C 0.15117 0.0623 0.07373 0.0
C405 C 0.165 0.0504 0.05985 0.0
C406 C 0.18574 0.04984 0.07036 0.0
C407 C 0.19284 0.06137 0.09473 0.0
C408 C 0.15789 0.07351 0.09824 0.0
C409 C 0.17882 0.07313 0.10869 0.0
C410 C 0.08858 0.03764 0.98271 0.0
C411 C 0.12985 0.06304 0.06236 0.0
H412 H 0.97313 0.06009 0.0136 0.0
H413 H 0.92009 0.0149 0.96126 0.0
H414 H 0.98466 0.99874 0.96243 0.0
H415 H 0.94569 0.98974 0.94433 0.0
H416 H 0.15962 0.04151 0.04094 0.0
H417 H 0.20899 0.06091 0.10296 0.0
H418 H 0.1471 0.08272 0.10911 0.0
H419 H 0.18416 0.08188 0.12756 0.0
Tb420 Tb 0.32972 0.79041 0.24904 0.0
C421 C 0.2893 0.8518 0.33576 0.0
C422 C 0.32156 0.87339 0.36351 0.0
C423 C 0.28648 0.88529 0.36856 0.0
C424 C 0.3112 0.85435 0.34371 0.0
C425 C 0.27663 0.86729 0.34797 0.0
C426 C 0.30896 0.8884 0.37627 0.0
C427 C 0.24548 0.84617 0.31854 0.0
N428 N 0.28056 0.83454 0.31556 0.0
C429 C 0.25871 0.83128 0.30709 0.0
C430 C 0.25446 0.86425 0.33912 0.0
Tb431 Tb 0.30142 0.80669 0.30185 0.0
N432 N 0.32279 0.83975 0.33044 0.0
C433 C 0.34547 0.84506 0.33515 0.0
C434 C 0.3444 0.87751 0.36921 0.0
C435 C 0.35645 0.86363 0.35462 0.0
H436 H 0.25119 0.81653 0.2919 0.0
H437 H 0.37429 0.86734 0.3582 0.0
H438 H 0.31656 0.90289 0.3917 0.0
H439 H 0.22825 0.84336 0.31174 0.0
H440 H 0.35571 0.83558 0.32395 0.0
H441 H 0.26656 0.72962 0.18023 0.0
H442 H 0.35298 0.89202 0.38417 0.0
H443 H 0.38244 0.78619 0.25299 0.0
H444 H 0.2872 0.76932 0.20321 0.0
H445 H 0.4035 0.75338 0.24896 0.0
H446 H 0.27699 0.89722 0.37833 0.0
H447 H 0.27982 0.69166 0.18279 0.0
H448 H 0.31045 0.67278 0.19701 0.0
H449 H 0.24415 0.87568 0.34807 0.0
H450 H 0.34862 0.67932 0.21608 0.0
N451 N 0.31097 0.75464 0.22218 0.0
C452 C 0.29284 0.75322 0.20613 0.0
C453 C 0.28874 0.70918 0.19371 0.0
C454 C 0.30863 0.71108 0.20782 0.0
C455 C 0.28121 0.73053 0.19225 0.0
C456 C 0.31954 0.73439 0.22168 0.0
H457 H 0.38397 0.7097 0.23472 0.0
N458 N 0.35104 0.76132 0.24269 0.0
C459 C 0.38572 0.74865 0.24458 0.0
C460 C 0.34059 0.73791 0.23251 0.0
C461 C 0.37369 0.7672 0.24676 0.0
C462 C 0.37464 0.72403 0.23669 0.0
C463 C 0.35187 0.71849 0.22962 0.0
O464 O 0.35731 0.80917 0.23532 0.0
O465 O 0.3208 0.81884 0.27457 0.0
O466 O 0.28613 0.82167 0.27243 0.0
O467 O 0.29648 0.79825 0.23812 0.0
O468 O 0.35317 0.82313 0.26872 0.0
O469 O 0.32442 0.80305 0.21658 0.0
O470 O 0.2719 0.78804 0.31249 0.0
O471 O 0.30917 0.77868 0.27499 0.0
O472 O 0.34878 0.78173 0.28031 0.0
O473 O 0.33258 0.79674 0.31492 0.0
O474 O 0.27639 0.7764 0.27977 0.0
O475 O 0.30383 0.78742 0.33025 0.0
C476 C 0.33885 0.83416 0.27861 0.0
C477 C 0.35461 0.80993 0.19364 0.0
C478 C 0.36423 0.83068 0.16059 0.0
C479 C 0.35372 0.82903 0.18155 0.0
C480 C 0.37491 0.81208 0.15081 0.0
C481 C 0.36556 0.7914 0.18453 0.0
C482 C 0.37556 0.79243 0.16287 0.0
C483 C 0.28314 0.81199 0.24858 0.0
C484 C 0.34541 0.81214 0.2167 0.0
C485 C 0.34042 0.69464 0.21804 0.0
C486 C 0.31871 0.69092 0.20716 0.0
C487 C 0.29022 0.76562 0.26861 0.0
C488 C 0.2733 0.78162 0.35279 0.0
C489 C 0.27516 0.76249 0.36454 0.0
C490 C 0.26852 0.76239 0.38779 0.0
C491 C 0.25837 0.78102 0.39877 0.0
C492 C 0.26322 0.80038 0.3635 0.0
C493 C 0.25559 0.79991 0.38645 0.0
C494 C 0.34857 0.78735 0.3045 0.0
C495 C 0.28237 0.78062 0.3295 0.0
H496 H 0.345 0.84312 0.18885 0.0
H497 H 0.3829 0.81297 0.13425 0.0
H498 H 0.36651 0.77654 0.19414 0.0
H499 H 0.38403 0.77822 0.15562 0.0
H500 H 0.28238 0.74771 0.35561 0.0
H501 H 0.2531 0.78127 0.41687 0.0
H502 H 0.26119 0.81514 0.35428 0.0
H503 H 0.24785 0.81435 0.39484 0.0
Tb504 Tb 0.59226 0.04882 0.51215 0.0
C505 C 0.516 1.00319 0.56487 0.0
C506 C 0.49655 0.96685 0.53584 0.0
C507 C 0.49596 0.96766 0.57936 0.0
C508 C 0.51002 0.99091 0.54106 0.0
C509 C 0.50857 0.99202 0.58434 0.0
C510 C 0.49002 0.95506 0.55512 0.0
C511 C 0.52498 0.03053 0.6119 0.0
N512 N 0.5281 0.0267 0.56886 0.0
C513 C 0.53195 0.04079 0.59197 0.0
C514 C 0.51349 1.00593 0.60812 0.0
Tb515 Tb 0.53899 0.04171 0.53503 0.0
N516 N 0.51636 1.00312 0.52302 0.0
C517 C 0.50838 0.99285 0.49923 0.0
C518 C 0.48947 0.95572 0.51144 0.0
C519 C 0.49518 0.96892 0.49308 0.0
H520 H 0.54078 0.05982 0.59521 0.0
H521 H 0.48943 0.96068 0.47417 0.0
H522 H 0.47985 0.93648 0.55149 0.0
H523 H 0.52844 0.04162 0.63017 0.0
H524 H 0.51253 1.00271 0.48473 0.0
H525 H 0.64291 0.13136 0.56973 0.0
H526 H 0.47908 0.93728 0.50665 0.0
H527 H 0.5879 0.02834 0.45192 0.0
H528 H 0.61738 0.09091 0.56107 0.0
H529 H 0.6022 0.04304 0.41613 0.0
H530 H 0.49027 0.95864 0.59407 0.0
H531 H 0.65717 0.15056 0.53581 0.0
H532 H 0.65898 0.14738 0.49065 0.0
H533 H 0.50801 0.99806 0.62359 0.0
H534 H 0.64799 0.12331 0.44885 0.0
N535 N 0.61606 0.0869 0.52234 0.0
C536 C 0.62314 0.0988 0.54593 0.0
C537 C 0.64576 0.1327 0.53183 0.0
C538 C 0.63919 0.12009 0.50777 0.0
C539 C 0.63779 0.12191 0.551 0.0
C540 C 0.62415 0.09697 0.50361 0.0
H541 H 0.62696 0.08433 0.42091 0.0
N542 N 0.60389 0.06119 0.4773 0.0
C543 C 0.60669 0.0547 0.43406 0.0
C544 C 0.61784 0.08364 0.48023 0.0
C545 C 0.59862 0.04642 0.45457 0.0
C546 C 0.62061 0.07803 0.43682 0.0
C547 C 0.62653 0.09275 0.46014 0.0
O548 O 0.60788 0.01996 0.49951 0.0
O549 O 0.56301 0.02281 0.51863 0.0
O550 O 0.5601 0.02785 0.55896 0.0
O551 O 0.59335 0.05143 0.55117 0.0
O552 O 0.57628 0.01402 0.48708 0.0
O553 O 0.6212 0.04617 0.53248 0.0
O554 O 0.52412 0.07091 0.5488 0.0
O555 O 0.56814 0.06834 0.52883 0.0
O556 O 0.57251 0.06496 0.48914 0.0
O557 O 0.53892 0.04128 0.49583 0.0
O558 O 0.55468 0.07584 0.56061 0.0
O559 O 0.50799 0.04317 0.51808 0.0
C560 C 0.56102 1.00583 0.49983 0.0
C561 C 0.64613 0.027 0.51015 0.0
C562 C 0.67853 1.00864 0.50869 0.0
C563 C 0.65761 1.00963 0.51671 0.0
C564 C 0.68781 0.02552 0.49441 0.0
C565 C 0.65573 0.04351 0.49586 0.0
C566 C 0.67648 0.04278 0.48808 0.0
C567 C 0.58128 0.03814 0.56458 0.0
C568 C 0.62376 0.0269 0.51726 0.0
C569 C 0.64118 0.11595 0.46405 0.0
C570 C 0.64746 0.12964 0.48784 0.0
C571 C 0.56973 0.08506 0.54802 0.0
C572 C 0.48545 0.06401 0.54308 0.0
C573 C 0.47415 0.08219 0.53833 0.0
C574 C 0.4543 0.08415 0.54853 0.0
C575 C 0.44613 0.06786 0.56384 0.0
C576 C 0.47694 0.04793 0.55829 0.0
C577 C 0.4574 0.04994 0.56867 0.0
C578 C 0.55103 0.0565 0.48395 0.0
C579 C 0.50668 0.06309 0.53316 0.0
H580 H 0.65007 0.99663 0.52752 0.0
H581 H 0.70401 0.02555 0.48829 0.0
H582 H 0.64717 0.05684 0.49057 0.0
H583 H 0.68379 0.05561 0.47705 0.0
H584 H 0.48101 0.09511 0.52712 0.0
H585 H 0.4308 0.06873 0.57181 0.0
H586 H 0.48544 0.034 0.56229 0.0
H587 H 0.45092 0.03752 0.58046 0.0
Tb588 Tb 0.29039 0.30404 0.77433 0.0
C589 C 0.36262 0.26601 0.82149 0.0
C590 C 0.37806 0.29946 0.8554 0.0
C591 C 0.3779 0.25723 0.8592 0.0
C592 C 0.36719 0.29074 0.83156 0.0
C593 C 0.36863 0.24897 0.8348 0.0
C594 C 0.38258 0.28249 0.86952 0.0
C595 C 0.35866 0.21775 0.79794 0.0
N596 N 0.35409 0.25896 0.79782 0.0
C597 C 0.35313 0.23544 0.78552 0.0
C598 C 0.36606 0.22443 0.82283 0.0
Tb599 Tb 0.34325 0.28844 0.7795 0.0
N600 N 0.36289 0.30641 0.81708 0.0
C601 C 0.37137 0.33129 0.82462 0.0
C602 C 0.38514 0.32492 0.8638 0.0
C603 C 0.38234 0.34086 0.84807 0.0
H604 H 0.3472 0.2301 0.76632 0.0
H605 H 0.38838 0.36058 0.85407 0.0
H606 H 0.39057 0.28879 0.88802 0.0
H607 H 0.3572 0.19899 0.78833 0.0
H608 H 0.36939 0.34429 0.81321 0.0
H609 H 0.24987 0.23638 0.69447 0.0
H610 H 0.39365 0.33238 0.88193 0.0
H611 H 0.28867 0.36307 0.79189 0.0
H612 H 0.27166 0.25063 0.73406 0.0
H613 H 0.27529 0.39512 0.77435 0.0
H614 H 0.38232 0.2444 0.8699 0.0
H615 H 0.23651 0.26615 0.67312 0.0
H616 H 0.23353 0.30977 0.67321 0.0
H617 H 0.37048 0.21075 0.83239 0.0
H618 H 0.24096 0.3531 0.69464 0.0
N619 N 0.27152 0.28874 0.73606 0.0
C620 C 0.26601 0.26412 0.72556 0.0
C621 C 0.24616 0.27265 0.69078 0.0
C622 C 0.25101 0.29763 0.70186 0.0
C623 C 0.25361 0.25581 0.70277 0.0
C624 C 0.26377 0.30515 0.72483 0.0
H625 H 0.25654 0.38508 0.73229 0.0
N626 N 0.27936 0.33552 0.75933 0.0
C627 C 0.27336 0.37679 0.76346 0.0
C628 C 0.2681 0.32945 0.73673 0.0
C629 C 0.28107 0.3586 0.77327 0.0
C630 C 0.2628 0.37106 0.73973 0.0
C631 C 0.25961 0.34702 0.72624 0.0
O632 O 0.27354 0.31341 0.80516 0.0
O633 O 0.31712 0.29976 0.79892 0.0
O634 O 0.31938 0.25721 0.79049 0.0
O635 O 0.28586 0.26353 0.77477 0.0
O636 O 0.30465 0.33083 0.80737 0.0
O637 O 0.25744 0.28473 0.77586 0.0
O638 O 0.36018 0.27304 0.75124 0.0
O639 O 0.3169 0.29302 0.75414 0.0
O640 O 0.3139 0.33698 0.7663 0.0
O641 O 0.34813 0.32838 0.77653 0.0
O642 O 0.32792 0.26087 0.74802 0.0
O643 O 0.37443 0.30849 0.77301 0.0
C644 C 0.31882 0.31934 0.81481 0.0
C645 C 0.23451 0.30655 0.79979 0.0
C646 C 0.19975 0.3079 0.81872 0.0
C647 C 0.21858 0.29742 0.81506 0.0
C648 C 0.19822 0.3284 0.80803 0.0
C649 C 0.23103 0.32554 0.78804 0.0
C650 C 0.21341 0.33673 0.79256 0.0
C651 C 0.29762 0.24915 0.78366 0.0
C652 C 0.25527 0.29741 0.79698 0.0
C653 C 0.24751 0.33985 0.70305 0.0
C654 C 0.24322 0.31518 0.69089 0.0
C655 C 0.31565 0.27322 0.73847 0.0
C656 C 0.39909 0.28576 0.75369 0.0
C657 C 0.4124 0.29229 0.73515 0.0
C658 C 0.43264 0.28471 0.73274 0.0
C659 C 0.43935 0.27083 0.74917 0.0
C660 C 0.4065 0.27228 0.77002 0.0
C661 C 0.42647 0.26486 0.76771 0.0
C662 C 0.33595 0.34386 0.77072 0.0
C663 C 0.37697 0.29168 0.75494 0.0
H664 H 0.22071 0.2822 0.82366 0.0
H665 H 0.18503 0.33807 0.8114 0.0
H666 H 0.24202 0.33203 0.7755 0.0
H667 H 0.2115 0.35201 0.78395 0.0
H668 H 0.40682 0.30269 0.72239 0.0
H669 H 0.45476 0.26477 0.74776 0.0
H670 H 0.39673 0.26724 0.7844 0.0
H671 H 0.43195 0.25427 0.7803 0.0
Tb672 Tb 0.05967 0.07229 0.53667 0.0
C673 C 0.09097 0.99744 0.46289 0.0
C674 C 0.06006 0.9817 0.43168 0.0
C675 C 0.0971 0.97925 0.42179 0.0
C676 C 0.06874 0.9936 0.4558 0.0
C677 C 0.1054 0.98979 0.44615 0.0
C678 C 0.07443 0.97519 0.41456 0.0
C679 C 0.13455 1.00067 0.4794 0.0
N680 N 0.09818 1.00695 0.48672 0.0
C681 C 0.11954 1.00774 0.49533 0.0
C682 C 0.12753 0.99198 0.45463 0.0
Tb683 Tb 0.07249 0.01783 0.51186 0.0
N684 N 0.0554 0.99954 0.47308 0.0
C685 C 0.03289 0.99208 0.46756 0.0
C686 C 0.03714 0.97551 0.42579 0.0
C687 C 0.02351 0.98024 0.44398 0.0
H688 H 0.12529 0.01434 0.51443 0.0
H689 H 1.0057 0.97473 0.43991 0.0
H690 H 0.06808 0.96622 0.39594 0.0
H691 H 0.15151 1.00189 0.48628 0.0
H692 H 0.02167 0.99503 0.48102 0.0
H693 H 0.13073 0.12136 0.60154 0.0
H694 H 0.02981 0.96623 0.40756 0.0
H695 H 1.00616 0.06976 0.53957 0.0
H696 H 0.11253 0.09573 0.56348 0.0
H697 H 0.98183 0.08358 0.56959 0.0
H698 H 0.10794 0.97341 0.40862 0.0
H699 H 0.10898 0.13414 0.63491 0.0
H700 H 0.07192 0.1348 0.64962 0.0
H701 H 0.13913 0.9863 0.44236 0.0
H702 H 0.03139 0.12458 0.641 0.0
N703 N 0.07942 0.09356 0.57346 0.0
C704 C 0.10207 0.10109 0.57702 0.0
C705 C 0.10055 0.12285 0.61784 0.0
C706 C 0.07751 0.11582 0.61414 0.0
C707 C 0.11284 0.11578 0.59903 0.0
C708 C 0.06733 0.10125 0.59144 0.0
H709 H 0.99773 0.10576 0.61117 0.0
N710 N 0.0357 0.0831 0.56407 0.0
C711 C 0.99947 0.08702 0.57468 0.0
C712 C 0.04466 0.09573 0.58659 0.0
C713 C 0.01336 0.07922 0.55771 0.0
C714 C 1.00849 0.09948 0.59812 0.0
C715 C 0.03136 0.10427 0.60426 0.0
O716 O 0.04242 0.09617 0.52311 0.0
O717 O 0.05907 0.04811 0.50099 0.0
O718 O 0.0971 0.04482 0.49834 0.0
O719 O 0.09386 0.07863 0.52663 0.0
O720 O 0.0312 0.05962 0.50809 0.0
O721 O 0.07826 0.105 0.52912 0.0
O722 O 0.08589 0.99389 0.52991 0.0
O723 O 0.07282 0.04201 0.54761 0.0
O724 O 0.0375 0.04437 0.5517 0.0
O725 O 0.03763 0.01275 0.51976 0.0
O726 O 0.10039 0.0302 0.54131 0.0
O727 O 0.05246 0.98298 0.51243 0.0
C728 C 0.03967 0.04794 0.49059 0.0
C729 C 0.06076 0.13763 0.52661 0.0
C730 C 0.06922 0.1762 0.51244 0.0
C731 C 0.06865 0.15102 0.5092 0.0
C732 C 0.0613 0.18788 0.53338 0.0
C733 C 0.05296 0.14912 0.54754 0.0
C734 C 0.05318 0.17431 0.55082 0.0
C735 C 0.10469 0.06792 0.50983 0.0
C736 C 0.06064 0.1116 0.52133 0.0
C737 C 0.04133 0.11792 0.62718 0.0
C738 C 0.06438 0.12372 0.6321 0.0
C739 C 0.09202 0.04236 0.55859 0.0
C740 C 0.07072 0.95161 0.51878 0.0
C741 C 0.06226 0.93578 0.53397 0.0
C742 C 0.06714 0.91246 0.53186 0.0
C743 C 0.07979 0.90464 0.51325 0.0
C744 C 0.08334 0.9439 0.50027 0.0
C745 C 0.08765 0.92027 0.4974 0.0
C746 C 0.02824 0.02251 0.5384 0.0
C747 C 0.06792 0.97676 0.52503 0.0
H748 H 0.07411 0.14159 0.49282 0.0
H749 H 0.06165 0.20744 0.53641 0.0
H750 H 0.04667 0.1387 0.56106 0.0
H751 H 0.04714 0.18335 0.5669 0.0
H752 H 0.05228 0.94203 0.54799 0.0
H753 H 0.08401 0.88676 0.51129 0.0
H754 H 0.09013 0.95616 0.48849 0.0
H755 H 0.09755 0.91428 0.48326 0.0
Tb756 Tb 0.34182 0.81581 0.77081 0.0
C757 C 0.2828 0.74062 0.8157 0.0
C758 C 0.29142 0.70253 0.7958 0.0
C759 C 0.27763 0.70523 0.83562 0.0
C760 C 0.29048 0.72738 0.79624 0.0
C761 C 0.2756 0.72949 0.83528 0.0
C762 C 0.28557 0.69178 0.81591 0.0
C763 C 0.26219 0.76585 0.85091 0.0
N764 N 0.28066 0.76378 0.81445 0.0
C765 C 0.26938 0.77592 0.83095 0.0
C766 C 0.26566 0.74268 0.85332 0.0
Tb767 Tb 0.29313 0.77913 0.78154 0.0
N768 N 0.2955 0.73831 0.77699 0.0
C769 C 0.30007 0.72452 0.7559 0.0
C770 C 0.29741 0.68897 0.77485 0.0
C771 C 0.30142 0.69993 0.75468 0.0
H772 H 0.26635 0.79369 0.82907 0.0
H773 H 0.3056 0.68948 0.73814 0.0
H774 H 0.28643 0.67282 0.81602 0.0
H775 H 0.25387 0.77589 0.86432 0.0
H776 H 0.3033 0.7322 0.73987 0.0
H777 H 0.32838 0.90566 0.81169 0.0
H778 H 0.2984 0.66989 0.77382 0.0
H779 H 0.36992 0.80159 0.72419 0.0
H780 H 0.33282 0.86366 0.8116 0.0
H781 H 0.3812 0.81828 0.68789 0.0
H782 H 0.27242 0.69643 0.85062 0.0
H783 H 0.33248 0.92319 0.77434 0.0
H784 H 0.34296 0.91881 0.73141 0.0
H785 H 0.25988 0.73479 0.86866 0.0
H786 H 0.35751 0.89491 0.69743 0.0
N787 N 0.33836 0.85611 0.77387 0.0
C788 C 0.33458 0.8706 0.79493 0.0
C789 C 0.3343 0.90447 0.77406 0.0
C790 C 0.33994 0.89038 0.75319 0.0
C791 C 0.33206 0.89469 0.79518 0.0
C792 C 0.34199 0.86605 0.75376 0.0
H793 H 0.37233 0.85755 0.68124 0.0
N794 N 0.3535 0.83023 0.73707 0.0
C795 C 0.37219 0.82801 0.70075 0.0
C796 C 0.34994 0.85262 0.73464 0.0
C797 C 0.36572 0.81858 0.72131 0.0
C798 C 0.36709 0.85013 0.69703 0.0
C799 C 0.35636 0.86309 0.71443 0.0
O800 O 0.37371 0.80873 0.77375 0.0
O801 O 0.32917 0.77961 0.78129 0.0
O802 O 0.31178 0.78886 0.81714 0.0
O803 O 0.33607 0.82261 0.80881 0.0
O804 O 0.35009 0.78033 0.75515 0.0
O805 O 0.36698 0.84139 0.79491 0.0
O806 O 0.26138 0.78677 0.78057 0.0
O807 O 0.30583 0.81522 0.77105 0.0
O808 O 0.32434 0.80403 0.7346 0.0
O809 O 0.29844 0.77204 0.74369 0.0
O810 O 0.28579 0.81494 0.79807 0.0
O811 O 0.26777 0.75579 0.75603 0.0
C812 C 0.34032 0.76562 0.76828 0.0
C813 C 0.40356 0.84252 0.78498 0.0
C814 C 0.44339 0.8501 0.79323 0.0
C815 C 0.42225 0.83894 0.79789 0.0
C816 C 0.44593 0.86484 0.77548 0.0
C817 C 0.40608 0.85765 0.76752 0.0
C818 C 0.42725 0.86864 0.7627 0.0
C819 C 0.32741 0.80901 0.82398 0.0
C820 C 0.38193 0.82895 0.78932 0.0
C821 C 0.35296 0.88666 0.71296 0.0
C822 C 0.34469 0.90027 0.73231 0.0
C823 C 0.29512 0.82937 0.78446 0.0
C824 C 0.23096 0.75426 0.76548 0.0
C825 C 0.21285 0.76 0.75337 0.0
C826 C 0.19128 0.74734 0.75505 0.0
C827 C 0.18789 0.729 0.76925 0.0
C828 C 0.22748 0.73605 0.77976 0.0
C829 C 0.20595 0.72354 0.7817 0.0
C830 C 0.30848 0.78409 0.72815 0.0
C831 C 0.25307 0.76815 0.76308 0.0
H832 H 0.42038 0.8273 0.81146 0.0
H833 H 0.46228 0.87352 0.77174 0.0
H834 H 0.39187 0.86093 0.75762 0.0
H835 H 0.42918 0.88013 0.74908 0.0
H836 H 0.21557 0.7741 0.74231 0.0
H837 H 0.17131 0.71908 0.77083 0.0
H838 H 0.24128 0.73146 0.78929 0.0
H839 H 0.20326 0.70952 0.79277 0.0
Tb840 Tb 0.5717 0.03717 0.05151 0.0
C841 C 0.5164 0.0733 0.97501 0.0
C842 C 0.49506 0.03569 0.94942 0.0
C843 C 0.48083 0.07301 0.95396 0.0
C844 C 0.5139 0.04861 0.96558 0.0
C845 C 0.50024 0.08604 0.96881 0.0
C846 C 0.47824 0.04783 0.94426 0.0
C847 C 0.52491 0.12395 0.98983 0.0
N848 N 0.53554 0.08525 0.98879 0.0
C849 C 0.54047 0.11044 0.99522 0.0
C850 C 0.50453 0.11164 0.97687 0.0
Tb851 Tb 0.56019 0.06225 0.9976 0.0
N852 N 0.53073 0.03779 0.97077 0.0
C853 C 0.53008 0.01414 0.95891 0.0
C854 C 0.49414 1.01134 0.93805 0.0
C855 C 0.51195 1.00071 0.94245 0.0
H856 H 0.55627 0.12004 1.00516 0.0
H857 H 0.51157 0.98194 0.93355 0.0
H858 H 0.46356 0.03814 0.93213 0.0
H859 H 0.52867 0.14382 0.99559 0.0
H860 H 0.54293 1.00472 0.96225 0.0
H861 H 0.62633 0.11748 0.10884 0.0
H862 H 0.48003 1.00082 0.92545 0.0
H863 H 0.57314 0.97832 0.04416 0.0
H864 H 0.59164 0.09423 0.08511 0.0
H865 H 0.60031 0.95334 0.05188 0.0
H866 H 0.4681 0.0824 0.94918 0.0
H867 H 0.65769 0.09735 0.11373 0.0
H868 H 0.67215 0.05845 0.10684 0.0
H869 H 0.49256 0.12214 0.9725 0.0
H870 H 0.66497 0.01351 0.09164 0.0
N871 N 0.6028 0.06065 0.07582 0.0
C872 C 0.60486 0.08479 0.087 0.0
C873 C 0.64235 0.08687 0.10324 0.0
C874 C 0.63972 0.06184 0.09305 0.0
C875 C 0.62467 0.09825 0.1006 0.0
C876 C 0.61944 0.04911 0.07949 0.0
H877 H 0.63799 0.97399 0.07156 0.0
N878 N 0.5954 0.01263 0.05898 0.0
C879 C 0.60485 0.97325 0.05722 0.0
C880 C 0.61553 0.02408 0.07088 0.0
C881 C 0.58949 0.98741 0.05297 0.0
C882 C 0.62612 0.98498 0.06827 0.0
C883 C 0.63159 1.01071 0.0756 0.0
O884 O 0.54984 1.01064 0.06494 0.0
O885 O 0.54906 0.03912 0.02221 0.0
O886 O 0.54108 0.07742 0.02524 0.0
O887 O 0.55964 0.07121 0.06075 0.0
O888 O 0.54631 1.00581 0.0309 0.0
O889 O 0.56146 0.04804 0.0859 0.0
O890 O 0.57993 0.09068 0.98421 0.0
O891 O 0.58276 0.06055 0.02705 0.0
O892 O 0.5897 0.02091 0.02409 0.0
O893 O 0.57202 0.02788 0.98853 0.0
O894 O 0.58554 0.09385 0.01833 0.0
O895 O 0.57483 0.0523 0.96584 0.0
C896 C 0.53706 0.01786 0.01731 0.0
C897 C 0.54854 0.01649 0.10694 0.0
C898 C 0.52809 1.01006 0.14092 0.0
C899 C 0.5315 0.02069 0.12066 0.0
C900 C 0.54197 0.9952 0.14786 0.0
C901 C 0.5628 1.00189 0.11356 0.0
C902 C 0.55947 0.99126 0.13418 0.0
C903 C 0.5458 0.08148 0.04924 0.0
C904 C 0.54913 0.02614 0.08485 0.0
C905 C 0.65227 0.02338 0.08806 0.0
C906 C 0.65636 0.04896 0.09671 0.0
C907 C 0.59486 0.08178 0.03179 0.0
C908 C 0.58477 0.08265 0.94266 0.0
C909 C 0.60295 0.07937 0.93051 0.0
C910 C 0.60476 0.08483 0.90738 0.0
C911 C 0.58854 0.09501 0.89681 0.0
C912 C 0.56827 0.09242 0.93229 0.0
C913 C 0.57034 0.09885 0.90937 0.0
C914 C 0.5848 0.01648 1.00019 0.0
C915 C 0.58424 0.07522 0.96601 0.0
H916 H 0.52053 0.03203 0.11535 0.0
H917 H 0.53949 0.9871 0.1639 0.0
H918 H 0.5761 0.99852 0.10277 0.0
H919 H 0.57033 0.97993 0.13947 0.0
H920 H 0.6157 0.07203 0.93902 0.0
H921 H 0.58965 0.09934 0.87878 0.0
H922 H 0.55402 0.09501 0.94179 0.0
H923 H 0.5577 0.10645 0.90119 0.0
Tb924 Tb 0.324 0.31667 0.28838 0.0
C925 C 0.24473 0.24033 0.24119 0.0
C926 C 0.22846 0.21952 0.27214 0.0
C927 C 0.20673 0.21612 0.23366 0.0
C928 C 0.24687 0.23367 0.2636 0.0
C929 C 0.22451 0.23168 0.22599 0.0
C930 C 0.20867 0.21013 0.25675 0.0
C931 C 0.24071 0.25403 0.19649 0.0
N932 N 0.26234 0.25554 0.2345 0.0
C933 C 0.26044 0.26194 0.21197 0.0
C934 C 0.22268 0.23875 0.20345 0.0
Tb935 Tb 0.29574 0.25768 0.25678 0.0
N936 N 0.2661 0.24377 0.27819 0.0
C937 C 0.26628 0.24345 0.30276 0.0
C938 C 0.22994 0.21665 0.29641 0.0
C939 C 0.24865 0.22944 0.312 0.0
H940 H 0.2741 0.2717 0.20433 0.0
H941 H 0.24926 0.22921 0.33134 0.0
H942 H 0.19452 0.19897 0.26288 0.0
H943 H 0.23971 0.25907 0.17872 0.0
H944 H 0.27885 0.25539 0.316 0.0
H945 H 0.38163 0.33831 0.22311 0.0
H946 H 0.21612 0.20619 0.30371 0.0
H947 H 0.33029 0.32864 0.34867 0.0
H948 H 0.34686 0.31893 0.23586 0.0
H949 H 0.36041 0.34645 0.38194 0.0
H950 H 0.19122 0.20912 0.22209 0.0
H951 H 0.41381 0.35739 0.25381 0.0
H952 H 0.4305 0.36523 0.29718 0.0
H953 H 0.20753 0.23232 0.1912 0.0
H954 H 0.42498 0.36629 0.34048 0.0
N955 N 0.35792 0.32669 0.27379 0.0
C956 C 0.36025 0.3269 0.24967 0.0
C957 C 0.39846 0.34819 0.25948 0.0
C958 C 0.39647 0.3471 0.28397 0.0
C959 C 0.38032 0.33774 0.24221 0.0
C960 C 0.37562 0.33655 0.29066 0.0
H961 H 0.39886 0.35952 0.37228 0.0
N962 N 0.35162 0.32943 0.32035 0.0
C963 C 0.36411 0.34382 0.36314 0.0
C964 C 0.37244 0.33754 0.31482 0.0
C965 C 0.34712 0.33357 0.34421 0.0
C966 C 0.38577 0.35112 0.35763 0.0
C967 C 0.39009 0.34857 0.33321 0.0
O968 O 0.3148 0.3453 0.31217 0.0
O969 O 0.29157 0.29338 0.27378 0.0
O970 O 0.30545 0.28132 0.23014 0.0
O971 O 0.31012 0.3209 0.25248 0.0
O972 O 0.29643 0.30903 0.30995 0.0
O973 O 0.32568 0.35022 0.27688 0.0
O974 O 0.29942 0.24054 0.22109 0.0
O975 O 0.32675 0.28438 0.26341 0.0
O976 O 0.32889 0.29124 0.31317 0.0
O977 O 0.30794 0.25229 0.29311 0.0
O978 O 0.32784 0.24879 0.26456 0.0
O979 O 0.28613 0.21928 0.24722 0.0
C980 C 0.28156 0.297 0.29251 0.0
C981 C 0.32533 0.38622 0.30533 0.0
C982 C 0.31908 0.42555 0.29913 0.0
C983 C 0.31403 0.39994 0.29314 0.0
C984 C 0.33515 0.43765 0.3187 0.0
C985 C 0.34171 0.39791 0.32461 0.0
C986 C 0.34647 0.42375 0.33138 0.0
C987 C 0.30631 0.30513 0.2314 0.0
C988 C 0.31836 0.35987 0.29669 0.0
C989 C 0.4112 0.35783 0.32664 0.0
C990 C 0.41434 0.35726 0.30203 0.0
C991 C 0.33996 0.27068 0.26645 0.0
C992 C 0.30381 0.19985 0.21655 0.0
C993 C 0.31806 0.19315 0.23306 0.0
C994 C 0.32849 0.17411 0.22536 0.0
C995 C 0.32496 0.16156 0.201 0.0
C996 C 0.30006 0.18738 0.19212 0.0
C997 C 0.31067 0.16823 0.18437 0.0
C998 C 0.32011 0.26751 0.3126 0.0
C999 C 0.29172 0.21858 0.22513 0.0
H1000 H 0.30088 0.3904 0.27877 0.0
H1001 H 0.33904 0.45759 0.32392 0.0
H1002 H 0.35054 0.38724 0.3343 0.0
H1003 H 0.35896 0.43302 0.34636 0.0
H1004 H 0.32068 0.20225 0.25212 0.0
H1005 H 0.33288 0.14644 0.19506 0.0
H1006 H 0.28872 0.19221 0.17923 0.0
H1007 H 0.30762 0.15839 0.1656 0.0
Tb1008 Tb 0.55989 0.57169 0.03688 0.0
C1009 C 0.59161 0.49672 0.9625 0.0
C1010 C 0.56009 0.47844 0.93251 0.0
C1011 C 0.597 0.47629 0.92192 0.0
C1012 C 0.56918 0.49183 0.95605 0.0
C1013 C 0.60581 0.48869 0.94566 0.0
C1014 C 0.57414 0.47114 0.91537 0.0
C1015 C 0.63606 0.50353 0.97763 0.0
N1016 N 0.59937 0.50799 0.9858 0.0
C1017 C 0.62127 0.5108 0.99373 0.0
C1018 C 0.62833 0.49259 0.95341 0.0
Tb1019 Tb 0.57389 0.51815 0.01156 0.0
N1020 N 0.55616 0.49873 0.97334 0.0
C1021 C 0.5336 0.49139 0.96829 0.0
C1022 C 0.53712 0.47187 0.9272 0.0
C1023 C 0.52384 0.47805 0.94532 0.0
H1024 H 0.62754 0.51912 0.01242 0.0
H1025 H 0.50599 0.47261 0.94164 0.0
H1026 H 0.56746 0.46094 0.89722 0.0
H1027 H 0.6534 0.50627 0.98395 0.0
H1028 H 0.52257 0.49581 0.98154 0.0
H1029 H 0.62703 0.61426 0.10849 0.0
H1030 H 0.52949 0.46148 0.90944 0.0
H1031 H 0.50651 0.57258 0.03489 0.0
H1032 H 0.61085 0.59293 0.06769 0.0
H1033 H 0.48043 0.58528 0.06312 0.0
H1034 H 0.60763 0.47003 0.90871 0.0
H1035 H 0.6031 0.62448 0.14054 0.0
H1036 H 0.56497 0.62539 0.15211 0.0
H1037 H 0.63977 0.48671 0.94103 0.0
H1038 H 0.52502 0.61766 0.13975 0.0
N1039 N 0.57717 0.58983 0.07555 0.0
C1040 C 0.59971 0.5968 0.08103 0.0
C1041 C 0.59568 0.61482 0.12246 0.0
C1042 C 0.57275 0.60885 0.11664 0.0
C1043 C 0.60921 0.60913 0.10443 0.0
C1044 C 0.56393 0.59639 0.09272 0.0
H1045 H 0.49341 0.60297 0.10658 0.0
N1046 N 0.53412 0.5818 0.06219 0.0
C1047 C 0.49758 0.58723 0.06979 0.0
C1048 C 0.5416 0.59224 0.08578 0.0
C1049 C 0.51249 0.58 0.05382 0.0
C1050 C 0.50494 0.59713 0.0943 0.0
C1051 C 0.52726 0.60014 0.10251 0.0
O1052 O 0.54576 0.59479 0.01862 0.0
O1053 O 0.56031 0.54835 1.00079 0.0
O1054 O 0.59719 0.54629 0.99799 0.0
O1055 O 0.59459 0.57861 0.0283 0.0
O1056 O 0.53213 0.5592 0.0074 0.0
O1057 O 0.57855 0.60777 0.03804 0.0
O1058 O 0.58951 0.494 0.02694 0.0
O1059 O 0.57347 0.54145 0.04742 0.0
O1060 O 0.53587 0.54387 0.04995 0.0
O1061 O 0.53923 0.51139 0.02013 0.0
O1062 O 0.60171 0.53072 0.04098 0.0
O1063 O 0.55444 0.48409 0.01506 0.0
C1064 C 0.54094 0.54783 0.98998 0.0
C1065 C 0.55894 0.63753 0.02889 0.0
C1066 C 0.56325 0.67456 0.01181 0.0
C1067 C 0.57081 0.65383 0.01605 0.0
C1068 C 0.54479 0.68014 0.02321 0.0
C1069 C 0.54079 0.64323 0.04044 0.0
C1070 C 0.53405 0.66486 0.03797 0.0
C1071 C 0.60513 0.56886 0.01064 0.0
C1072 C 0.56301 0.61282 0.02447 0.0
C1073 C 0.53577 0.61154 0.12662 0.0
C1074 C 0.5585 0.61591 0.13367 0.0
C1075 C 0.59271 0.54188 0.05831 0.0
C1076 C 0.57233 0.45193 0.01877 0.0
C1077 C 0.56462 0.43704 0.03507 0.0
C1078 C 0.56615 0.41239 0.03113 0.0
C1079 C 0.57515 0.40249 0.01022 0.0
C1080 C 0.58153 0.44229 0.998 0.0
C1081 C 0.58284 0.41747 0.99373 0.0
C1082 C 0.52827 0.52121 0.03736 0.0
C1083 C 0.57116 0.4776 0.02516 0.0
H1084 H 0.58519 0.64922 0.00797 0.0
H1085 H 0.53814 0.69576 0.0202 0.0
H1086 H 0.53135 0.63057 0.05033 0.0
H1087 H 0.51978 0.66914 0.04647 0.0
H1088 H 0.55743 0.44476 0.05104 0.0
H1089 H 0.57656 0.3834 0.00689 0.0
H1090 H 0.58775 0.45385 0.98536 0.0
H1091 H 0.58998 0.40991 0.97777 0.0
Tb1092 Tb 0.84175 0.31228 0.2681 0.0
C1093 C 0.77978 0.24116 0.3159 0.0
C1094 C 0.78086 0.20075 0.29329 0.0
C1095 C 0.769 0.2049 0.33402 0.0
C1096 C 0.78449 0.22662 0.29522 0.0
C1097 C 0.77137 0.23038 0.33526 0.0
C1098 C 0.77366 0.1901 0.31302 0.0
C1099 C 0.76455 0.2698 0.35364 0.0
N1100 N 0.78109 0.26543 0.31589 0.0
C1101 C 0.77249 0.27946 0.33375 0.0
C1102 C 0.76432 0.24523 0.3546 0.0
Tb1103 Tb 0.79287 0.2796 0.28208 0.0
N1104 N 0.79112 0.23755 0.27638 0.0
C1105 C 0.79398 0.2231 0.25477 0.0
C1106 C 0.78391 0.18621 0.27136 0.0
C1107 C 0.79041 0.19746 0.252 0.0
H1108 H 0.77237 0.29844 0.33306 0.0
H1109 H 0.79283 0.1864 0.2349 0.0
H1110 H 0.77102 0.17034 0.31193 0.0
H1111 H 0.75844 0.28126 0.36808 0.0
H1112 H 0.79931 0.23069 0.23929 0.0
H1113 H 0.84674 0.40338 0.32285 0.0
H1114 H 0.78117 0.16632 0.26913 0.0
H1115 H 0.85913 0.29676 0.21397 0.0
H1116 H 0.8383 0.35867 0.31493 0.0
H1117 H 0.86898 0.31593 0.17879 0.0
H1118 H 0.76272 0.19633 0.34877 0.0
H1119 H 0.85652 0.42592 0.28969 0.0
H1120 H 0.8624 0.42458 0.24575 0.0
H1121 H 0.75779 0.23765 0.3698 0.0
H1122 H 0.86671 0.40056 0.20589 0.0
N1123 N 0.84392 0.35431 0.27702 0.0
C1124 C 0.84285 0.36748 0.29992 0.0
C1125 C 0.85301 0.40592 0.28595 0.0
C1126 C 0.8537 0.39261 0.26253 0.0
C1127 C 0.84757 0.39328 0.30471 0.0
C1128 C 0.8493 0.36655 0.25864 0.0
H1129 H 0.8692 0.36006 0.18073 0.0
N1130 N 0.85058 0.3285 0.23427 0.0
C1131 C 0.86386 0.32652 0.19464 0.0
C1132 C 0.852 0.35309 0.2363 0.0
C1133 C 0.85784 0.31555 0.21443 0.0
C1134 C 0.86394 0.35141 0.19582 0.0
C1135 C 0.85877 0.36523 0.21713 0.0
O1136 O 0.87255 0.30462 0.26046 0.0
O1137 O 0.82836 0.2773 0.28033 0.0
O1138 O 0.81311 0.28814 0.31692 0.0
O1139 O 0.8403 0.31835 0.30706 0.0
O1140 O 0.84708 0.27533 0.25259 0.0
O1141 O 0.8698 0.33096 0.29244 0.0
O1142 O 0.76186 0.28839 0.28531 0.0
O1143 O 0.8064 0.31469 0.26997 0.0
O1144 O 0.82056 0.30286 0.23404 0.0
O1145 O 0.7963 0.27032 0.24384 0.0
O1146 O 0.78827 0.31696 0.29799 0.0
O1147 O 0.76604 0.2597 0.25635 0.0
C1148 C 0.8381 0.26186 0.26719 0.0
C1149 C 0.90439 0.33548 0.27653 0.0
C1150 C 0.9439 0.34799 0.28898 0.0
C1151 C 0.92282 0.33471 0.29178 0.0
C1152 C 0.94634 0.3625 0.27095 0.0
C1153 C 0.90701 0.34982 0.25843 0.0
C1154 C 0.92791 0.36338 0.25576 0.0
C1155 C 0.83057 0.30653 0.32299 0.0
C1156 C 0.88306 0.32021 0.2796 0.0
C1157 C 0.86165 0.39096 0.22044 0.0
C1158 C 0.85928 0.40464 0.24316 0.0
C1159 C 0.79716 0.33049 0.28337 0.0
C1160 C 0.73019 0.25787 0.26901 0.0
C1161 C 0.71213 0.26253 0.25587 0.0
C1162 C 0.69061 0.25071 0.25868 0.0
C1163 C 0.68705 0.2342 0.27473 0.0
C1164 C 0.7266 0.24122 0.28497 0.0
C1165 C 0.70508 0.22949 0.28785 0.0
C1166 C 0.80512 0.28258 0.22793 0.0
C1167 C 0.75226 0.27181 0.2665 0.0
H1168 H 0.92073 0.32365 0.30582 0.0
H1169 H 0.96249 0.37275 0.26831 0.0
H1170 H 0.89318 0.35041 0.24621 0.0
H1171 H 0.92986 0.37437 0.24171 0.0
H1172 H 0.71477 0.27549 0.24359 0.0
H1173 H 0.67041 0.22504 0.27706 0.0
H1174 H 0.74021 0.23735 0.29525 0.0
H1175 H 0.70237 0.21678 0.30031 0.0
Tb1176 Tb 0.07661 0.53864 0.56163 0.0
C1177 C 0.01855 0.57376 0.48209 0.0
C1178 C 0.99188 0.53807 0.4594 0.0
C1179 C 0.98729 0.5792 0.45667 0.0
C1180 C 1.01108 0.54851 0.47585 0.0
C1181 C 1.00672 0.58945 0.47257 0.0
C1182 C 0.97998 0.55354 0.44994 0.0
C1183 C 0.0353 0.62414 0.49312 0.0
N1184 N 0.03795 0.58289 0.49653 0.0
C1185 C 0.04677 0.60782 0.50147 0.0
C1186 C 0.01517 0.61493 0.47862 0.0
Tb1187 Tb 0.05723 0.5542 0.50516 0.0
N1188 N 0.023 0.53416 0.48538 0.0
C1189 C 0.01606 0.50894 0.47953 0.0
C1190 C 0.98543 0.51242 0.45261 0.0
C1191 C 0.99753 0.49781 0.46283 0.0
H1192 H 0.06258 0.6154 0.51207 0.0
H1193 H 0.99272 0.4779 0.45769 0.0
H1194 H 0.96518 0.54583 0.43733 0.0
H1195 H 0.04222 0.64382 0.49751 0.0
H1196 H 0.02478 0.49695 0.48714 0.0
H1197 H 0.11041 0.62426 0.62826 0.0
H1198 H 0.9711 0.50372 0.43958 0.0
H1199 H 0.09867 0.48888 0.55046 0.0
H1200 H 0.0807 0.59056 0.60709 0.0
H1201 H 0.1356 0.47978 0.55306 0.0
H1202 H 0.97804 0.59094 0.4491 0.0
H1203 H 0.14939 0.62185 0.62531 0.0
H1204 H 0.17643 0.59637 0.61194 0.0
H1205 H 1.00655 0.62759 0.47174 0.0
H1206 H 0.18325 0.5565 0.59232 0.0
N1207 N 0.10206 0.57015 0.58766 0.0
C1208 C 0.09738 0.58951 0.60358 0.0
C1209 C 0.13631 0.60721 0.61487 0.0
C1210 C 0.14106 0.58606 0.60122 0.0
C1211 C 0.11434 0.60865 0.61651 0.0
C1212 C 0.12344 0.56764 0.58763 0.0
H1213 H 0.1683 0.51312 0.57009 0.0
N1214 N 0.11019 0.52765 0.56432 0.0
C1215 C 0.13368 0.49844 0.5593 0.0
C1216 C 0.12758 0.54559 0.57575 0.0
C1217 C 0.11272 0.50376 0.55798 0.0
C1218 C 0.15205 0.51731 0.5688 0.0
C1219 C 0.14907 0.541 0.57795 0.0
O1220 O 0.06418 0.50112 0.56183 0.0
O1221 O 0.05015 0.53137 0.53213 0.0
O1222 O 0.04416 0.57685 0.53354 0.0
O1223 O 0.06296 0.57185 0.57006 0.0
O1224 O 0.04181 0.53422 0.56763 0.0
O1225 O 0.07746 0.52753 0.59531 0.0
O1226 O 0.08399 0.56608 0.48589 0.0
O1227 O 0.08398 0.55637 0.5323 0.0
O1228 O 0.09063 0.5231 0.52925 0.0
O1229 O 0.06045 0.51622 0.50199 0.0
O1230 O 0.08438 0.58691 0.51891 0.0
O1231 O 0.05606 0.53862 0.46777 0.0
C1232 C 0.03413 0.53023 0.54502 0.0
C1233 C 0.04778 0.49454 0.59737 0.0
C1234 C 0.01793 0.49971 0.62222 0.0
C1235 C 0.03664 0.50996 0.61191 0.0
C1236 C 1.01042 0.474 0.61834 0.0
C1237 C 0.04023 0.46884 0.59357 0.0
C1238 C 0.02161 0.45863 0.60409 0.0
C1239 C 0.05025 0.58268 0.55739 0.0
C1240 C 0.06697 0.50493 0.58563 0.0
C1241 C 0.16666 0.55969 0.59049 0.0
C1242 C 0.16273 0.58232 0.60179 0.0
C1243 C 0.09521 0.57779 0.53408 0.0
C1244 C 0.07621 0.56509 0.44476 0.0
C1245 C 0.09658 0.56923 0.43554 0.0
C1246 C 0.09926 0.57947 0.4147 0.0
C1247 C 0.08153 0.5875 0.40419 0.0
C1248 C 0.05845 0.57294 0.43429 0.0
C1249 C 0.06127 0.58447 0.4142 0.0
C1250 C 0.07923 0.51102 0.50859 0.0
C1251 C 0.07478 0.55257 0.46537 0.0
H1252 H 0.04238 0.52987 0.61525 0.0
H1253 H 0.99618 0.4659 0.62673 0.0
H1254 H 0.04871 0.45671 0.58244 0.0
H1255 H 0.0159 0.43879 0.60127 0.0
H1256 H 0.11032 0.56364 0.44429 0.0
H1257 H 0.08304 0.59525 0.38784 0.0
H1258 H 0.04255 0.57004 0.44142 0.0
H1259 H 0.04758 0.59045 0.40598 0.0
Tb1260 Tb 0.79066 0.80116 0.27814 0.0
C1261 C 0.86187 0.76835 0.31976 0.0
C1262 C 0.87679 0.80249 0.3534 0.0
C1263 C 0.87568 0.76055 0.35868 0.0
C1264 C 0.86676 0.7934 0.3292 0.0
C1265 C 0.86744 0.75179 0.33403 0.0
C1266 C 0.88028 0.78588 0.36839 0.0
C1267 C 0.86046 0.72017 0.29756 0.0
N1268 N 0.85408 0.76055 0.29582 0.0
C1269 C 0.85508 0.73723 0.28422 0.0
C1270 C 0.86594 0.72726 0.32274 0.0
Tb1271 Tb 0.84459 0.79023 0.27624 0.0
N1272 N 0.86332 0.80896 0.31412 0.0
C1273 C 0.8719 0.83385 0.32154 0.0
C1274 C 0.884 0.82797 0.36149 0.0
C1275 C 0.88207 0.84365 0.34527 0.0
H1276 H 0.8507 0.73139 0.26472 0.0
H1277 H 0.88828 0.86337 0.35107 0.0
H1278 H 0.88753 0.79253 0.38714 0.0
H1279 H 0.86023 0.70152 0.28842 0.0
H1280 H 0.87113 0.84672 0.3097 0.0
H1281 H 0.75371 0.7303 0.19824 0.0
H1282 H 0.8919 0.83563 0.37985 0.0
H1283 H 0.78624 0.8604 0.29215 0.0
H1284 H 0.77382 0.74576 0.23817 0.0
H1285 H 0.77482 0.891 0.27091 0.0
H1286 H 0.87958 0.74803 0.37006 0.0
H1287 H 0.74164 0.75892 0.17445 0.0
H1288 H 0.74029 0.80203 0.17123 0.0
H1289 H 0.87015 0.71402 0.33305 0.0
H1290 H 0.74728 0.84593 0.19037 0.0
N1291 N 0.77277 0.78371 0.2394 0.0
C1292 C 0.76809 0.75892 0.22934 0.0
C1293 C 0.75029 0.76603 0.19256 0.0
C1294 C 0.75497 0.79122 0.20262 0.0
C1295 C 0.7569 0.74983 0.206 0.0
C1296 C 0.76626 0.79963 0.22639 0.0
H1297 H 0.76012 0.87919 0.22736 0.0
N1298 N 0.78037 0.83166 0.26029 0.0
C1299 C 0.77383 0.87245 0.261 0.0
C1300 C 0.7705 0.82439 0.23701 0.0
C1301 C 0.78048 0.85498 0.27288 0.0
C1302 C 0.76554 0.86571 0.23647 0.0
C1303 C 0.76315 0.84129 0.22436 0.0
O1304 O 0.77541 0.81936 0.30651 0.0
O1305 O 0.82296 0.8073 0.29929 0.0
O1306 O 0.82024 0.75346 0.2767 0.0
O1307 O 0.78504 0.76154 0.27866 0.0
O1308 O 0.79561 0.79015 0.31293 0.0
O1309 O 0.7574 0.78631 0.28225 0.0
O1310 O 0.85985 0.7708 0.24865 0.0
O1311 O 0.81248 0.78428 0.25506 0.0
O1312 O 0.8149 0.83812 0.28043 0.0
O1313 O 0.84934 0.82958 0.27387 0.0
O1314 O 0.83979 0.80047 0.24104 0.0
O1315 O 0.87774 0.8047 0.2717 0.0
C1316 C 0.81632 0.79926 0.31795 0.0
C1317 C 0.7358 0.81112 0.30434 0.0
C1318 C 0.70168 0.81044 0.32446 0.0
C1319 C 0.72193 0.80301 0.32182 0.0
C1320 C 0.69569 0.82623 0.30976 0.0
C1321 C 0.72901 0.8263 0.28947 0.0
C1322 C 0.70923 0.83404 0.2924 0.0
C1323 C 0.79838 0.74599 0.27832 0.0
C1324 C 0.75681 0.80288 0.30147 0.0
C1325 C 0.75277 0.83315 0.20041 0.0
C1326 C 0.74867 0.80815 0.18958 0.0
C1327 C 0.81899 0.79206 0.23619 0.0
C1328 C 0.89957 0.7793 0.25134 0.0
C1329 C 0.91341 0.78598 0.23328 0.0
C1330 C 0.93384 0.77868 0.2316 0.0
C1331 C 0.9401 0.76481 0.24833 0.0
C1332 C 0.90666 0.76608 0.26807 0.0
C1333 C 0.92669 0.75871 0.26641 0.0
C1334 C 0.83619 0.84536 0.27668 0.0
C1335 C 0.87843 0.7874 0.25319 0.0
H1336 H 0.72674 0.7908 0.33308 0.0
H1337 H 0.68027 0.83223 0.31148 0.0
H1338 H 0.73878 0.83198 0.2754 0.0
H1339 H 0.70423 0.84593 0.28094 0.0
H1340 H 0.90827 0.79668 0.22059 0.0
H1341 H 0.95571 0.75911 0.24778 0.0
H1342 H 0.89694 0.76173 0.28266 0.0
H1343 H 0.93199 0.74841 0.27938 0.0
Tb1344 Tb 0.82854 0.28939 0.74946 0.0
C1345 C 0.78857 0.35782 0.82157 0.0
C1346 C 0.81962 0.38576 0.84742 0.0
C1347 C 0.78423 0.3973 0.84443 0.0
C1348 C 0.81058 0.36332 0.83086 0.0
C1349 C 0.77504 0.37461 0.82876 0.0
C1350 C 0.80645 0.4028 0.85383 0.0
C1351 C 0.74347 0.34392 0.80795 0.0
N1352 N 0.77998 0.33532 0.80718 0.0
C1353 C 0.75738 0.32776 0.80178 0.0
C1354 C 0.75239 0.36761 0.82117 0.0
Tb1355 Tb 0.80344 0.30829 0.80301 0.0
N1356 N 0.82292 0.34635 0.82452 0.0
C1357 C 0.84486 0.35183 0.83319 0.0
C1358 C 0.8415 0.39019 0.85763 0.0
C1359 C 0.85431 0.37335 0.85008 0.0
H1360 H 0.7499 0.30914 0.79232 0.0
H1361 H 0.87156 0.37693 0.85713 0.0
H1362 H 0.81321 0.42012 0.8664 0.0
H1363 H 0.72581 0.33788 0.80287 0.0
H1364 H 0.8557 0.34042 0.8266 0.0
H1365 H 0.75662 0.22623 0.69417 0.0
H1366 H 0.8487 0.40664 0.87118 0.0
H1367 H 0.88002 0.27976 0.76223 0.0
H1368 H 0.77566 0.26388 0.72079 0.0
H1369 H 0.89855 0.24562 0.75708 0.0
H1370 H 0.77409 0.41037 0.85004 0.0
H1371 H 0.77382 0.19034 0.68743 0.0
H1372 H 0.80578 0.1719 0.69583 0.0
H1373 H 0.7415 0.37995 0.82637 0.0
H1374 H 0.84368 0.17669 0.71428 0.0
N1375 N 0.80607 0.25269 0.72749 0.0
C1376 C 0.78492 0.25005 0.71688 0.0
C1377 C 0.78298 0.20761 0.69862 0.0
C1378 C 0.80415 0.20974 0.70988 0.0
C1379 C 0.77334 0.22786 0.70217 0.0
C1380 C 0.81549 0.23274 0.7243 0.0
H1381 H 0.87812 0.20381 0.73712 0.0
N1382 N 0.84755 0.25771 0.74813 0.0
C1383 C 0.88103 0.24223 0.75126 0.0
C1384 C 0.83669 0.23525 0.73518 0.0
C1385 C 0.87009 0.26159 0.75441 0.0
C1386 C 0.86948 0.21874 0.73998 0.0
C1387 C 0.84727 0.21511 0.73116 0.0
O1388 O 0.86055 0.30624 0.74381 0.0
O1389 O 0.8287 0.31833 0.78037 0.0
O1390 O 0.78303 0.31299 0.77001 0.0
O1391 O 0.7991 0.30063 0.73433 0.0
O1392 O 0.82976 0.32773 0.74675 0.0
O1393 O 0.83633 0.28659 0.71317 0.0
O1394 O 0.77416 0.28617 0.811 0.0
O1395 O 0.80327 0.27899 0.77202 0.0
O1396 O 0.84936 0.28714 0.78297 0.0
O1397 O 0.83478 0.30158 0.81864 0.0
O1398 O 0.80513 0.27108 0.80653 0.0
O1399 O 0.79886 0.31045 0.84015 0.0
C1400 C 0.82961 0.3362 0.76964 0.0
C1401 C 0.86888 0.31361 0.70511 0.0
C1402 C 0.87063 0.34076 0.6761 0.0
C1403 C 0.85855 0.32746 0.69161 0.0
C1404 C 0.89306 0.34044 0.6745 0.0
C1405 C 0.89133 0.31353 0.70359 0.0
C1406 C 0.90338 0.32696 0.68836 0.0
C1407 C 0.78309 0.3091 0.74569 0.0
C1408 C 0.85688 0.29818 0.72032 0.0
C1409 C 0.83581 0.19225 0.7174 0.0
C1410 C 0.8143 0.18957 0.70679 0.0
C1411 C 0.8042 0.26214 0.78372 0.0
C1412 C 0.76578 0.28727 0.85255 0.0
C1413 C 0.76721 0.26542 0.86007 0.0
C1414 C 0.75753 0.25959 0.8808 0.0
C1415 C 0.74473 0.27508 0.89268 0.0
C1416 C 0.75328 0.30279 0.86448 0.0
C1417 C 0.74239 0.29641 0.88426 0.0
C1418 C 0.85042 0.29276 0.8072 0.0
C1419 C 0.77967 0.29501 0.83429 0.0
H1420 H 0.84115 0.32739 0.69265 0.0
H1421 H 0.90256 0.35067 0.66258 0.0
H1422 H 0.89946 0.30282 0.71403 0.0
H1423 H 0.92066 0.32674 0.68714 0.0
H1424 H 0.77692 0.25362 0.85043 0.0
H1425 H 0.73727 0.27131 0.90896 0.0
H1426 H 0.75232 0.31996 0.85879 0.0
H1427 H 0.73281 0.30845 0.89363 0.0
Tb1428 Tb 0.83175 0.8257 0.79028 0.0
C1429 C 0.74991 0.75288 0.73754 0.0
C1430 C 0.72801 0.74139 0.7697 0.0
C1431 C 0.71103 0.73179 0.7279 0.0
C1432 C 0.74833 0.75195 0.76187 0.0
C1433 C 0.73117 0.74266 0.72025 0.0
C1434 C 0.70947 0.73109 0.75258 0.0
C1435 C 0.75392 0.75206 0.68856 0.0
N1436 N 0.76996 0.76273 0.73075 0.0
C1437 C 0.7721 0.76138 0.70616 0.0
C1438 C 0.73334 0.74271 0.69561 0.0
Tb1439 Tb 0.79947 0.76718 0.76022 0.0
N1440 N 0.76667 0.76181 0.77792 0.0
C1441 C 0.76477 0.76438 0.80244 0.0
C1442 C 0.7269 0.7415 0.79454 0.0
C1443 C 0.7453 0.75345 0.81102 0.0
H1444 H 0.78802 0.76573 0.69933 0.0
H1445 H 0.74461 0.7542 0.83038 0.0
H1446 H 0.6938 0.72273 0.75826 0.0
H1447 H 0.75606 0.75107 0.66938 0.0
H1448 H 0.778 0.77504 0.81573 0.0
H1449 H 0.88416 0.85828 0.72221 0.0
H1450 H 0.71176 0.73306 0.8012 0.0
H1451 H 0.84777 0.82914 0.84923 0.0
H1452 H 0.85033 0.8497 0.7402 0.0
H1453 H 0.88152 0.83158 0.87507 0.0
H1454 H 0.6966 0.72368 0.71484 0.0
H1455 H 0.91911 0.85545 0.7436 0.0
H1456 H 0.93904 0.85138 0.78192 0.0
H1457 H 0.71943 0.73481 0.68181 0.0
H1458 H 0.93833 0.8415 0.82261 0.0
N1459 N 0.86335 0.83573 0.77038 0.0
C1460 C 0.86423 0.84534 0.74936 0.0
C1461 C 0.90369 0.84989 0.75124 0.0
C1462 C 0.90339 0.84273 0.77381 0.0
C1463 C 0.88402 0.85145 0.73911 0.0
C1464 C 0.8828 0.83522 0.78289 0.0
H1465 H 0.91707 0.83393 0.85745 0.0
N1466 N 0.86271 0.82587 0.81558 0.0
C1467 C 0.88204 0.8305 0.85561 0.0
C1468 C 0.88243 0.83003 0.80615 0.0
C1469 C 0.86275 0.82864 0.84052 0.0
C1470 C 0.902 0.83176 0.8456 0.0
C1471 C 0.90257 0.83278 0.82091 0.0
O1472 O 0.82458 0.84596 0.82283 0.0
O1473 O 0.79921 0.80098 0.78488 0.0
O1474 O 0.80613 0.79188 0.73397 0.0
O1475 O 0.82006 0.83228 0.7548 0.0
O1476 O 0.80096 0.83665 0.78167 0.0
O1477 O 0.84502 0.86384 0.79851 0.0
O1478 O 0.80652 0.7442 0.72904 0.0
O1479 O 0.83175 0.79212 0.76537 0.0
O1480 O 0.82723 0.79897 0.81604 0.0
O1481 O 0.80751 0.75968 0.79617 0.0
O1482 O 0.83035 0.75636 0.76904 0.0
O1483 O 0.78603 0.72933 0.75543 0.0
C1484 C 0.78739 0.81592 0.78098 0.0
C1485 C 0.82532 0.88778 0.82372 0.0
C1486 C 0.80365 0.91502 0.8102 0.0
C1487 C 0.81316 0.89449 0.80508 0.0
C1488 C 0.80661 0.92889 0.8342 0.0
C1489 C 0.82799 0.90157 0.84755 0.0
C1490 C 0.81867 0.9221 0.85274 0.0
C1491 C 0.81188 0.81586 0.73466 0.0
C1492 C 0.83574 0.86676 0.81876 0.0
C1493 C 0.92282 0.83913 0.81146 0.0
C1494 C 0.92321 0.84459 0.78819 0.0
C1495 C 0.84351 0.77728 0.76933 0.0
C1496 C 0.79593 0.70056 0.72464 0.0
C1497 C 0.81131 0.69092 0.73669 0.0
C1498 C 0.8115 0.66588 0.72998 0.0
C1499 C 0.79663 0.65087 0.71045 0.0
C1500 C 0.78128 0.6857 0.70506 0.0
C1501 C 0.78176 0.6609 0.69787 0.0
C1502 C 0.81849 0.7752 0.8158 0.0
C1503 C 0.79298 0.72512 0.7339 0.0
H1504 H 0.8111 0.88377 0.78667 0.0
H1505 H 0.7999 0.9452 0.83858 0.0
H1506 H 0.83743 0.89655 0.86208 0.0
H1507 H 0.82091 0.93286 0.87112 0.0
H1508 H 0.82268 0.70286 0.7516 0.0
H1509 H 0.79615 0.63134 0.70522 0.0
H1510 H 0.7691 0.69314 0.6958 0.0
H1511 H 0.77025 0.64931 0.68297 0.0
Tb1512 Tb 0.54323 0.53145 0.51261 0.0
C1513 C 0.60676 0.61785 0.56862 0.0
C1514 C 0.61449 0.64374 0.53854 0.0
C1515 C 0.61784 0.66264 0.58141 0.0
C1516 C 0.60802 0.62005 0.54439 0.0
C1517 C 0.61252 0.63919 0.58738 0.0
C1518 C 0.61871 0.66491 0.55704 0.0
C1519 C 0.6108 0.61285 0.61696 0.0
N1520 N 0.602 0.59492 0.57401 0.0
C1521 C 0.60543 0.59233 0.59791 0.0
C1522 C 0.61396 0.63641 0.61171 0.0
Tb1523 Tb 0.59456 0.56247 0.54082 0.0
N1524 N 0.60465 0.59917 0.52686 0.0
C1525 C 0.60918 0.60121 0.50343 0.0
C1526 C 0.61755 0.64559 0.51441 0.0
C1527 C 0.61524 0.62423 0.4969 0.0
H1528 H 0.60332 0.57426 0.60257 0.0
H1529 H 0.61805 0.62543 0.47821 0.0
H1530 H 0.62356 0.68313 0.55277 0.0
H1531 H 0.6127 0.61045 0.63569 0.0
H1532 H 0.60745 0.58562 0.48885 0.0
H1533 H 0.52653 0.46283 0.56931 0.0
H1534 H 0.62242 0.6634 0.50926 0.0
H1535 H 0.5308 0.52687 0.45286 0.0
H1536 H 0.53746 0.50461 0.56136 0.0
H1537 H 0.51864 0.49375 0.41661 0.0
H1538 H 0.6221 0.67913 0.59558 0.0
H1539 H 0.51762 0.42696 0.53505 0.0
H1540 H 0.51199 0.41086 0.48988 0.0
H1541 H 0.61844 0.65232 0.62652 0.0
H1542 H 0.51015 0.41927 0.44825 0.0
N1543 N 0.53585 0.49309 0.52262 0.0
C1544 C 0.53374 0.48941 0.54601 0.0
C1545 C 0.52264 0.44539 0.53135 0.0
C1546 C 0.52354 0.44928 0.50739 0.0
C1547 C 0.52755 0.46558 0.55072 0.0
C1548 C 0.53025 0.47365 0.50353 0.0
H1549 H 0.51238 0.45007 0.42079 0.0
N1550 N 0.53361 0.50232 0.47728 0.0
C1551 C 0.52184 0.48918 0.43429 0.0
C1552 C 0.5292 0.47842 0.48007 0.0
C1553 C 0.52894 0.50792 0.4549 0.0
C1554 C 0.51835 0.46455 0.43673 0.0
C1555 C 0.52149 0.4589 0.45988 0.0
O1556 O 0.51955 0.55358 0.51258 0.0
O1557 O 0.56428 0.56849 0.52354 0.0
O1558 O 0.5713 0.56436 0.57105 0.0
O1559 O 0.53701 0.54359 0.55146 0.0
O1560 O 0.5491 0.55786 0.48833 0.0
O1561 O 0.50967 0.51492 0.51211 0.0
O1562 O 0.61482 0.55148 0.56651 0.0
O1563 O 0.56992 0.52796 0.53774 0.0
O1564 O 0.56661 0.52554 0.48296 0.0
O1565 O 0.60042 0.54985 0.50163 0.0
O1566 O 0.60056 0.52519 0.52987 0.0
O1567 O 0.62861 0.57168 0.53884 0.0
C1568 C 0.56125 0.57633 0.50361 0.0
C1569 C 0.48312 0.53364 0.49629 0.0
C1570 C 0.4482 0.54575 0.49251 0.0
C1571 C 0.46867 0.548 0.50543 0.0
C1572 C 0.44225 0.52947 0.46992 0.0
C1573 C 0.47703 0.51681 0.47398 0.0
C1574 C 0.45671 0.515 0.4607 0.0
C1575 C 0.54948 0.55625 0.57174 0.0
C1576 C 0.50315 0.53515 0.512 0.0
C1577 C 0.51601 0.43449 0.46356 0.0
C1578 C 0.51702 0.4297 0.48726 0.0
C1579 C 0.58185 0.5121 0.53265 0.0
C1580 C 0.65402 0.56715 0.57025 0.0
C1581 C 0.66815 0.55163 0.56339 0.0
C1582 C 0.69048 0.55837 0.57222 0.0
C1583 C 0.69831 0.58017 0.58976 0.0
C1584 C 0.66176 0.58922 0.58721 0.0
C1585 C 0.68387 0.59543 0.59735 0.0
C1586 C 0.58812 0.53548 0.48179 0.0
C1587 C 0.63236 0.56035 0.55655 0.0
H1588 H 0.47306 0.56046 0.52304 0.0
H1589 H 0.42626 0.52748 0.45988 0.0
H1590 H 0.48757 0.50472 0.46716 0.0
H1591 H 0.45196 0.50197 0.44355 0.0
H1592 H 0.66184 0.53458 0.55017 0.0
H1593 H 0.71559 0.58577 0.59693 0.0
H1594 H 0.65102 0.60173 0.59218 0.0
H1595 H 0.69 0.61244 0.61051 0.0
Tb1596 Tb 0.09277 0.54829 0.01437 0.0
C1597 C 0.01575 0.50669 0.06753 0.0
C1598 C 0.99313 0.47215 0.03865 0.0
C1599 C 0.99397 0.4722 0.08213 0.0
C1600 C 1.00837 0.49516 0.04376 0.0
C1601 C 1.00829 0.49566 0.08707 0.0
C1602 C 0.98642 0.46044 0.05793 0.0
C1603 C 0.02814 0.53267 0.1148 0.0
N1604 N 0.02938 0.52943 0.0715 0.0
C1605 C 0.03502 0.54288 0.09481 0.0
C1606 C 0.01492 0.50884 0.11094 0.0
Tb1607 Tb 0.04016 0.54434 0.03752 0.0
N1608 N 0.01498 0.50729 0.02575 0.0
C1609 C 1.00548 0.49819 1.00227 0.0
C1610 C 0.98441 0.46211 0.01445 0.0
C1611 C 0.99023 0.47548 0.99627 0.0
H1612 H 0.0452 0.56132 0.09815 0.0
H1613 H 0.9831 0.46826 0.97756 0.0
H1614 H 0.97489 0.44265 0.05436 0.0
H1615 H 0.03299 0.54323 0.13318 0.0
H1616 H 1.00962 0.50812 0.98785 0.0
H1617 H 0.14721 0.62719 0.0733 0.0
H1618 H 0.97265 0.4445 0.00974 0.0
H1619 H 0.08752 0.52892 0.95403 0.0
H1620 H 0.11855 0.58908 0.06402 0.0
H1621 H 0.10319 0.54313 0.91855 0.0
H1622 H 0.98818 0.46329 0.09688 0.0
H1623 H 0.16414 0.6451 0.03988 0.0
H1624 H 0.16627 0.64249 0.99485 0.0
H1625 H 1.00951 0.50103 0.12647 0.0
H1626 H 0.15396 0.61994 0.95272 0.0
N1627 N 0.11821 0.58513 0.02526 0.0
C1628 C 0.12536 0.5965 0.04901 0.0
C1629 C 0.15132 0.6283 0.03559 0.0
C1630 C 0.14418 0.61654 0.01137 0.0
C1631 C 0.14181 0.61825 0.05448 0.0
C1632 C 0.12741 0.59473 0.00677 0.0
H1633 H 0.13053 0.58283 0.92411 0.0
N1634 N 0.10509 0.56068 0.97982 0.0
C1635 C 0.10812 0.55438 0.93663 0.0
C1636 C 0.12041 0.58223 0.98319 0.0
C1637 C 0.09926 0.54638 0.95691 0.0
C1638 C 0.1235 0.57682 0.93983 0.0
C1639 C 0.13005 0.59091 0.96335 0.0
O1640 O 0.10657 0.51808 1.0012 0.0
O1641 O 0.06271 0.52365 0.0206 0.0
O1642 O 0.05993 0.52712 0.05952 0.0
O1643 O 0.09353 0.55062 0.0533 0.0
O1644 O 0.07553 0.51387 0.98926 0.0
O1645 O 0.12156 0.54389 0.03381 0.0
O1646 O 0.02643 0.57363 0.05343 0.0
O1647 O 0.06969 0.57007 0.03038 0.0
O1648 O 0.07369 0.56438 0.99093 0.0
O1649 O 0.03906 0.54349 0.99844 0.0
O1650 O 0.05833 0.57708 0.0633 0.0
O1651 O 1.01072 0.54963 0.0201 0.0
C1652 C 0.05966 0.5066 1.00171 0.0
C1653 C 0.14485 0.52311 0.01014 0.0
C1654 C 0.17638 0.50336 0.00761 0.0
C1655 C 0.15633 0.50593 0.01716 0.0
C1656 C 0.18491 0.51848 0.99144 0.0
C1657 C 0.15375 0.5379 0.99397 0.0
C1658 C 0.17368 0.53566 0.98476 0.0
C1659 C 0.08116 0.53648 0.06568 0.0
C1660 C 0.12297 0.52426 0.01834 0.0
C1661 C 0.14639 0.61292 0.96772 0.0
C1662 C 0.15344 0.62571 0.9917 0.0
C1663 C 0.07239 0.58665 0.04987 0.0
C1664 C 0.98795 0.56826 0.04653 0.0
C1665 C 0.97387 0.58215 0.03773 0.0
C1666 C 0.95409 0.58409 0.0483 0.0
C1667 C 0.949 0.57217 0.068 0.0
C1668 C 0.98205 0.55605 0.06566 0.0
C1669 C 0.96275 0.5581 0.07637 0.0
C1670 C 0.05242 0.55527 0.98487 0.0
C1671 C 1.0095 0.56819 0.03702 0.0
H1672 H 0.14941 0.49421 0.02943 0.0
H1673 H 0.20042 0.51715 0.98407 0.0
H1674 H 0.14522 0.55095 0.98817 0.0
H1675 H 0.18037 0.54715 0.97225 0.0
H1676 H 0.97835 0.59138 0.02277 0.0
H1677 H 0.93445 0.5739 0.07724 0.0
H1678 H 0.99258 0.54539 0.07276 0.0
H1679 H 0.95857 0.549 0.09146 0.0
C1680 C 0.02012 0.2036 0.98462 0.0
C1681 C 0.03115 0.2147 0.96674 0.0
C1682 C 0.02531 0.18254 0.99225 0.0
C1683 C 0.0425 0.17193 0.98241 0.0
C1684 C 0.05378 0.18297 0.96435 0.0
C1685 C 0.04789 0.20383 0.95662 0.0
C1686 C 0.01222 0.17162 0.01104 0.0
C1687 C 0.07247 0.17299 0.95346 0.0
C1688 C 0.06485 0.13085 0.02263 0.0
C1689 C 0.05602 0.10662 0.00971 0.0
C1690 C 0.06221 0.15198 0.01306 0.0
C1691 C 0.04833 0.14937 0.99102 0.0
C1692 C 0.03864 0.12491 0.97835 0.0
C1693 C 0.04309 0.10417 0.98736 0.0
C1694 C 0.07402 0.17723 0.02688 0.0
C1695 C 0.02234 0.12052 0.95598 0.0
H1696 H 1.00716 0.21141 0.9928 0.0
H1697 H 0.05681 0.21197 0.94298 0.0
H1698 H 1.00603 0.15143 1.00466 0.0
H1699 H 0.02304 0.17442 0.02831 0.0
H1700 H 0.99791 0.18013 0.01503 0.0
H1701 H 0.08056 0.18423 0.94077 0.0
H1702 H 0.08509 0.17245 0.96823 0.0
H1703 H 0.06617 0.15377 0.94333 0.0
H1704 H 0.07341 0.13346 0.04066 0.0
H1705 H 0.03536 0.08582 0.97739 0.0
H1706 H 0.06186 0.18764 0.03438 0.0
H1707 H 0.08316 0.18783 0.01433 0.0
H1708 H 0.08589 0.17627 0.0422 0.0
H1709 H 1.00777 0.12815 0.96098 0.0
H1710 H 0.0165 0.10059 0.94779 0.0
H1711 H 0.02986 0.13026 0.94199 0.0
C1712 C 0.1933 0.83235 0.14631 0.0
C1713 C 0.17139 0.83006 0.15255 0.0
C1714 C 0.21092 0.83012 0.16264 0.0
C1715 C 0.20705 0.82517 0.1862 0.0
C1716 C 0.18504 0.82304 0.19281 0.0
C1717 C 0.16766 0.82561 0.17614 0.0
C1718 C 0.23382 0.83274 0.1544 0.0
C1719 C 0.17972 0.81752 0.21744 0.0
C1720 C 0.25001 0.79549 0.21643 0.0
C1721 C 0.26345 0.81548 0.23317 0.0
C1722 C 0.23142 0.79819 0.20182 0.0
C1723 C 0.22593 0.82164 0.20336 0.0
C1724 C 0.2393 0.84183 0.22056 0.0
C1725 C 0.2575 0.83845 0.2354 0.0
C1726 C 0.21762 0.77577 0.18461 0.0
C1727 C 0.23473 0.86731 0.22288 0.0
H1728 H 0.19677 0.83568 0.12832 0.0
H1729 H 0.151 0.82352 0.18143 0.0
H1730 H 0.24585 0.84691 0.16786 0.0
H1731 H 0.23915 0.81503 0.1534 0.0
H1732 H 0.23458 0.838 0.13621 0.0
H1733 H 0.16188 0.81581 0.21984 0.0
H1734 H 0.18441 0.80008 0.2198 0.0
H1735 H 0.18953 0.83239 0.23213 0.0
H1736 H 0.25371 0.77741 0.21511 0.0
H1737 H 0.26749 0.85402 0.24837 0.0
H1738 H 0.21866 0.77828 0.16547 0.0
H1739 H 0.19997 0.77349 0.18803 0.0
H1740 H 0.22306 0.75858 0.18654 0.0
H1741 H 0.23686 0.87369 0.20536 0.0
H1742 H 0.24591 0.88092 0.23763 0.0
H1743 H 0.21736 0.86688 0.22666 0.0
C1744 C 0.55399 0.8607 0.46677 0.0
C1745 C 0.53286 0.84491 0.46306 0.0
C1746 C 0.55722 0.88639 0.47592 0.0
C1747 C 0.53884 0.89715 0.48108 0.0
C1748 C 0.51747 0.88112 0.47792 0.0
C1749 C 0.51476 0.85532 0.46913 0.0
C1750 C 0.58037 0.90223 0.47916 0.0
C1751 C 0.49729 0.8914 0.48291 0.0
C1752 C 0.55119 0.96539 0.5158 0.0
C1753 C 0.55198 0.97836 0.49649 0.0
C1754 C 0.54614 0.93908 0.5113 0.0
C1755 C 0.54185 0.92519 0.4869 0.0
C1756 C 0.54186 0.9384 0.46756 0.0
C1757 C 0.54706 0.96449 0.47255 0.0
C1758 C 0.54645 0.92623 0.53268 0.0
C1759 C 0.53712 0.92496 0.44128 0.0
H1760 H 0.56808 0.85296 0.46192 0.0
H1761 H 0.49833 0.84344 0.466 0.0
H1762 H 0.58189 0.91455 0.46566 0.0
H1763 H 0.58387 0.91416 0.49762 0.0
H1764 H 0.59311 0.89102 0.47669 0.0
H1765 H 0.4819 0.8767 0.48014 0.0
H1766 H 0.49929 0.90186 0.50197 0.0
H1767 H 0.49545 0.9045 0.4707 0.0
H1768 H 0.55536 0.97575 0.53436 0.0
H1769 H 0.54778 0.97421 0.45746 0.0
H1770 H 0.56144 0.91844 0.53337 0.0
H1771 H 0.53185 0.91065 0.53059 0.0
H1772 H 0.54666 0.93903 0.5503 0.0
H1773 H 0.55048 0.91519 0.43643 0.0
H1774 H 0.53596 0.93766 0.42843 0.0
H1775 H 0.52138 0.91084 0.43872 0.0
C1776 C 0.52359 0.31362 0.63664 0.0
C1777 C 0.54336 0.31076 0.64835 0.0
C1778 C 0.50364 0.31033 0.6478 0.0
C1779 C 0.50333 0.30395 0.67123 0.0
C1780 C 0.52323 0.30089 0.68296 0.0
C1781 C 0.54286 0.30438 0.67148 0.0
C1782 C 0.48294 0.31391 0.63461 0.0
C1783 C 0.52382 0.29388 0.70778 0.0
C1784 C 0.45976 0.31482 0.71502 0.0
C1785 C 0.44729 0.29077 0.71347 0.0
C1786 C 0.47727 0.31968 0.70038 0.0
C1787 C 0.48237 0.30006 0.68363 0.0
C1788 C 0.46875 0.27605 0.6809 0.0
C1789 C 0.45159 0.27168 0.69597 0.0
C1790 C 0.49124 0.34555 0.70401 0.0
C1791 C 0.47315 0.2546 0.66308 0.0
H1792 H 0.52374 0.31869 0.61885 0.0
H1793 H 0.55795 0.30209 0.68076 0.0
H1794 H 0.46935 0.29735 0.6331 0.0
H1795 H 0.47742 0.32972 0.64523 0.0
H1796 H 0.48553 0.3175 0.616 0.0
H1797 H 0.54058 0.2923 0.71454 0.0
H1798 H 0.51844 0.30787 0.72121 0.0
H1799 H 0.51212 0.27594 0.70695 0.0
H1800 H 0.4567 0.32959 0.72871 0.0
H1801 H 0.44205 0.25304 0.69478 0.0
H1802 H 0.49349 0.35117 0.68616 0.0
H1803 H 0.50791 0.34613 0.71285 0.0
H1804 H 0.48382 0.35919 0.71564 0.0
H1805 H 0.47485 0.2594 0.64481 0.0
H1806 H 0.45978 0.23773 0.66125 0.0
H1807 H 0.48899 0.25034 0.66934 0.0
C1808 C 0.04424 0.82774 0.63026 0.0
C1809 C 0.02184 0.82195 0.63365 0.0
C1810 C 0.05167 0.84325 0.61421 0.0
C1811 C 0.03618 0.85299 0.60151 0.0
C1812 C 0.01357 0.84769 0.60553 0.0
C1813 C 1.00662 0.83196 0.62156 0.0
C1814 C 0.07588 0.84847 0.61016 0.0
C1815 C 0.99668 0.85791 0.59232 0.0
C1816 C 0.05973 0.90799 0.57435 0.0
C1817 C 0.05947 0.89701 0.5497 0.0
C1818 C 0.05157 0.89395 0.59131 0.0
C1819 C 0.04364 0.86824 0.58355 0.0
C1820 C 0.04353 0.85694 0.55883 0.0
C1821 C 0.05131 0.87155 0.54211 0.0
C1822 C 0.05155 0.90656 0.61751 0.0
C1823 C 0.03543 0.82942 0.55011 0.0
H1824 H 0.05577 0.81946 0.6395 0.0
H1825 H 0.98921 0.82681 0.62405 0.0
H1826 H 0.07775 0.84176 0.59069 0.0
H1827 H 0.08289 0.86866 0.61435 0.0
H1828 H 0.08574 0.83951 0.62164 0.0
H1829 H 0.97997 0.85289 0.59845 0.0
H1830 H 1.00187 0.87832 0.5953 0.0
H1831 H 0.99557 0.85076 0.57238 0.0
H1832 H 0.06643 0.92761 0.58048 0.0
H1833 H 0.05079 0.86309 0.52305 0.0
H1834 H 0.06252 0.89958 0.62969 0.0
H1835 H 0.03465 0.90219 0.62329 0.0
H1836 H 0.05723 0.92694 0.62025 0.0
H1837 H 0.04592 0.81957 0.5597 0.0
H1838 H 0.03581 0.82371 0.53012 0.0
H1839 H 0.01825 0.82342 0.55457 0.0
C1840 C 0.53738 0.82355 0.88209 0.0
C1841 C 0.55796 0.83657 0.87761 0.0
C1842 C 0.51809 0.82367 0.86773 0.0
C1843 C 0.51958 0.83784 0.84917 0.0
C1844 C 0.5404 0.85098 0.84462 0.0
C1845 C 0.55944 0.84984 0.85869 0.0
C1846 C 0.49617 0.80887 0.8725 0.0
C1847 C 0.54251 0.86684 0.82542 0.0
C1848 C 0.47325 0.82779 0.79864 0.0
C1849 C 0.46271 0.84669 0.80746 0.0
C1850 C 0.49154 0.82418 0.81239 0.0
C1851 C 0.49931 0.84004 0.83524 0.0
C1852 C 0.48838 0.85891 0.84431 0.0
C1853 C 0.47003 0.86191 0.83028 0.0
C1854 C 0.50269 0.80369 0.80241 0.0
C1855 C 0.49636 0.87624 0.86854 0.0
H1856 H 0.53645 0.81307 0.89661 0.0
H1857 H 0.57546 0.86 0.85545 0.0
H1858 H 0.48507 0.82139 0.87835 0.0
H1859 H 0.48791 0.79613 0.85545 0.0
H1860 H 0.49806 0.79788 0.88681 0.0
H1861 H 0.56 0.87563 0.82403 0.0
H1862 H 0.53517 0.8556 0.80732 0.0
H1863 H 0.53321 0.88159 0.82985 0.0
H1864 H 0.46715 0.81591 0.78103 0.0
H1865 H 0.46147 0.87628 0.83698 0.0
H1866 H 0.50399 0.79184 0.81604 0.0
H1867 H 0.51977 0.81164 0.79882 0.0
H1868 H 0.49363 0.79195 0.78517 0.0
H1869 H 0.49672 0.86561 0.88337 0.0
H1870 H 0.48572 0.88965 0.8731 0.0
H1871 H 0.51353 0.88666 0.86812 0.0
C1872 C 0.51954 0.18711 0.14061 0.0
C1873 C 0.50064 0.19429 0.1323 0.0
C1874 C 0.52337 0.16413 0.13053 0.0
C1875 C 0.50727 0.14788 0.11274 0.0
C1876 C 0.4865 0.15353 0.10766 0.0
C1877 C 0.48364 0.17726 0.11697 0.0
C1878 C 0.54607 0.15924 0.13581 0.0
C1879 C 0.46857 0.13587 0.08982 0.0
C1880 C 0.53298 0.12014 0.05881 0.0
C1881 C 0.53428 0.0974 0.0644 0.0
C1882 C 0.52335 0.13639 0.07402 0.0
C1883 C 0.51449 0.12929 0.09508 0.0
C1884 C 0.51486 0.10576 0.10021 0.0
C1885 C 0.52525 0.0902 0.08497 0.0
C1886 C 0.52374 0.16161 0.06811 0.0
C1887 C 0.50506 0.09732 0.12208 0.0
H1888 H 0.53268 0.20069 0.15236 0.0
H1889 H 0.46906 0.18309 0.11067 0.0
H1890 H 0.54491 0.13996 0.13813 0.0
H1891 H 0.55576 0.162 0.12013 0.0
H1892 H 0.55536 0.1719 0.15246 0.0
H1893 H 0.45208 0.13997 0.09267 0.0
H1894 H 0.47198 0.13758 0.07091 0.0
H1895 H 0.46812 0.11649 0.09157 0.0
H1896 H 0.54056 0.12582 0.04332 0.0
H1897 H 0.52632 0.07243 0.08917 0.0
H1898 H 0.53311 0.17619 0.08334 0.0
H1899 H 0.50667 0.16451 0.06587 0.0
H1900 H 0.53148 0.16405 0.05109 0.0
H1901 H 0.51698 0.10513 0.13861 0.0
H1902 H 0.50144 0.07688 0.11981 0.0
H1903 H 0.4896 0.10379 0.12532 0.0
C1904 C 0.16888 0.33148 0.32749 0.0
C1905 C 0.17241 0.33048 0.35222 0.0
C1906 C 0.18618 0.33156 0.31267 0.0
C1907 C 0.20706 0.32982 0.32285 0.0
C1908 C 0.21093 0.33003 0.34814 0.0
C1909 C 0.19351 0.33055 0.36257 0.0
C1910 C 0.18169 0.33179 0.2859 0.0
C1911 C 0.23293 0.3277 0.35963 0.0
C1912 C 0.24065 0.28838 0.2935 0.0
C1913 C 0.26028 0.30483 0.29179 0.0
C1914 C 0.22181 0.29636 0.30012 0.0
C1915 C 0.2231 0.32191 0.30679 0.0
C1916 C 0.242 0.33895 0.30287 0.0
C1917 C 0.2603 0.33007 0.29483 0.0
C1918 C 0.20181 0.27731 0.30362 0.0
C1919 C 0.24375 0.36643 0.30955 0.0
H1920 H 0.15263 0.33217 0.3197 0.0
H1921 H 0.19623 0.33018 0.38183 0.0
H1922 H 0.19622 0.34263 0.27912 0.0
H1923 H 0.17838 0.31262 0.27527 0.0
H1924 H 0.16705 0.33958 0.28229 0.0
H1925 H 0.2338 0.33078 0.37988 0.0
H1926 H 0.23558 0.30892 0.35284 0.0
H1927 H 0.2467 0.34113 0.3545 0.0
H1928 H 0.24003 0.26943 0.29224 0.0
H1929 H 0.27514 0.34308 0.29292 0.0
H1930 H 0.18624 0.28201 0.29727 0.0
H1931 H 0.20159 0.27675 0.32334 0.0
H1932 H 0.20207 0.25853 0.29363 0.0
H1933 H 0.22823 0.37121 0.30303 0.0
H1934 H 0.25788 0.37699 0.30185 0.0
H1935 H 0.24619 0.37236 0.32972 0.0
C1936 C 0.98013 0.0875 0.19851 0.0
C1937 C 0.9817 0.07001 0.21359 0.0
C1938 C 0.99039 0.08735 0.17577 0.0
C1939 C 1.00289 0.06935 0.16683 0.0
C1940 C 1.00418 0.05168 0.18185 0.0
C1941 C 0.99391 0.05222 0.20416 0.0
C1942 C 0.98803 0.10689 0.16128 0.0
C1943 C 0.01683 0.03188 0.17445 0.0
C1944 C 0.01391 0.05081 0.09737 0.0
C1945 C 0.03638 0.06215 0.09604 0.0
C1946 C 1.00302 0.05354 0.11942 0.0
C1947 C 0.0142 0.0682 0.14206 0.0
C1948 C 0.03684 0.07995 0.14089 0.0
C1949 C 0.04736 0.07691 0.11849 0.0
C1950 C 0.97923 0.04018 0.11845 0.0
C1951 C 0.05024 0.0959 0.16362 0.0
H1952 H 0.97135 0.10178 0.20469 0.0
H1953 H 0.99576 0.0382 0.21459 0.0
H1954 H 1.00464 0.11719 0.15849 0.0
H1955 H 0.97927 0.09806 0.14295 0.0
H1956 H 0.97877 0.12017 0.17041 0.0
H1957 H 0.01647 0.01924 0.1876 0.0
H1958 H 1.0098 0.02081 0.15616 0.0
H1959 H 0.03434 0.04051 0.17306 0.0
H1960 H 1.00455 0.03928 0.08089 0.0
H1961 H 0.06443 0.08622 0.11876 0.0
H1962 H 0.96904 0.05346 0.12521 0.0
H1963 H 0.97795 0.02654 0.13063 0.0
H1964 H 0.97219 0.03034 0.0997 0.0
H1965 H 0.04215 0.11116 0.1706 0.0
H1966 H 0.06744 0.10391 0.16034 0.0
H1967 H 0.05087 0.08489 0.17813 0.0
C1968 C 0.31147 0.69189 0.47749 0.0
C1969 C 0.30629 0.66604 0.47274 0.0
C1970 C 0.30332 0.70478 0.46149 0.0
C1971 C 0.29177 0.6915 0.43899 0.0
C1972 C 0.28868 0.6655 0.43273 0.0
C1973 C 0.2956 0.6528 0.45014 0.0
C1974 C 0.30603 0.73245 0.46939 0.0
C1975 C 0.27757 0.65129 0.4081 0.0
C1976 C 0.25779 0.73007 0.41252 0.0
C1977 C 0.27364 0.74325 0.40035 0.0
C1978 C 0.26277 0.7113 0.42371 0.0
C1979 C 0.28388 0.70563 0.42212 0.0
C1980 C 0.29948 0.7181 0.40881 0.0
C1981 C 0.29439 0.73724 0.39867 0.0
C1982 C 0.24613 0.69893 0.43869 0.0
C1983 C 0.3222 0.71257 0.40691 0.0
H1984 H 0.31999 0.70204 0.49502 0.0
H1985 H 0.29155 0.63279 0.44668 0.0
H1986 H 0.31653 0.74227 0.45733 0.0
H1987 H 0.28969 0.73744 0.46791 0.0
H1988 H 0.31371 0.73938 0.48852 0.0
H1989 H 0.27558 0.63104 0.40653 0.0
H1990 H 0.26105 0.65536 0.40462 0.0
H1991 H 0.28758 0.65724 0.39361 0.0
H1992 H 0.2417 0.73461 0.41349 0.0
H1993 H 0.30685 0.74777 0.38961 0.0
H1994 H 0.25185 0.70584 0.45839 0.0
H1995 H 0.24467 0.67867 0.43495 0.0
H1996 H 0.2295 0.70274 0.43506 0.0
H1997 H 0.33281 0.72092 0.42432 0.0
H1998 H 0.33046 0.72021 0.39202 0.0
H1999 H 0.32115 0.69237 0.40364 0.0
C2000 C 0.63798 0.04243 0.69079 0.0
C2001 C 0.66018 0.04058 0.69182 0.0
C2002 C 0.62559 0.03961 0.6687 0.0
C2003 C 0.63565 0.0346 0.64709 0.0
C2004 C 0.65783 0.03206 0.64763 0.0
C2005 C 0.67002 0.03514 0.67028 0.0
C2006 C 0.60205 0.0432 0.66864 0.0
C2007 C 0.66881 0.02724 0.62448 0.0
C2008 C 0.59272 0.01424 0.59349 0.0
C2009 C 0.59244 0.03702 0.58739 0.0
C2010 C 0.60805 0.01279 0.61218 0.0
C2011 C 0.62311 0.03462 0.62434 0.0
C2012 C 0.6228 0.05763 0.61799 0.0
C2013 C 0.60687 0.05861 0.59999 0.0
C2014 C 0.60786 0.98821 0.61935 0.0
C2015 C 0.63856 0.08134 0.63078 0.0
H2016 H 0.63015 0.04657 0.70732 0.0
H2017 H 0.6872 0.03374 0.6711 0.0
H2018 H 0.60092 0.06018 0.66169 0.0
H2019 H 0.59052 0.02748 0.65637 0.0
H2020 H 0.59632 0.04502 0.68714 0.0
H2021 H 0.68508 0.0225 0.62792 0.0
H2022 H 0.65802 1.012 0.61089 0.0
H2023 H 0.67144 0.04395 0.61622 0.0
H2024 H 0.58162 0.99766 0.58313 0.0
H2025 H 0.60611 0.07621 0.59518 0.0
H2026 H 0.60245 0.9886 0.63791 0.0
H2027 H 0.62479 0.98467 0.62005 0.0
H2028 H 0.59654 0.97272 0.60649 0.0
H2029 H 0.6334 0.08741 0.64907 0.0
H2030 H 0.63881 0.09644 0.6204 0.0
H2031 H 0.65564 0.07854 0.63347 0.0
C2032 C 0.34518 0.35324 0.9625 0.0
C2033 C 0.32818 0.36463 0.97042 0.0
C2034 C 0.3451 0.34255 0.93762 0.0
C2035 C 0.32724 0.34257 0.92044 0.0
C2036 C 0.30936 0.35269 0.92885 0.0
C2037 C 0.31028 0.364 0.95354 0.0
C2038 C 0.36483 0.33278 0.92952 0.0
C2039 C 0.28953 0.35235 0.91158 0.0
C2040 C 0.33329 0.3476 0.85422 0.0
C2041 C 0.32507 0.3233 0.84154 0.0
C2042 C 0.3358 0.35354 0.87984 0.0
C2043 C 0.32829 0.33508 0.89341 0.0
C2044 C 0.31995 0.31034 0.88072 0.0
C2045 C 0.31889 0.30464 0.85492 0.0
C2046 C 0.34564 0.37993 0.89232 0.0
C2047 C 0.31108 0.29017 0.89425 0.0
H2048 H 0.35908 0.3538 0.97552 0.0
H2049 H 0.29698 0.37256 0.95968 0.0
H2050 H 0.35954 0.31469 0.91682 0.0
H2051 H 0.37464 0.34579 0.9195 0.0
H2052 H 0.37572 0.33072 0.94522 0.0
H2053 H 0.27578 0.35774 0.92144 0.0
H2054 H 0.29436 0.36539 0.89918 0.0
H2055 H 0.28341 0.33368 0.90008 0.0
H2056 H 0.33767 0.36216 0.84392 0.0
H2057 H 0.31186 0.28596 0.84517 0.0
H2058 H 0.35819 0.38058 0.90761 0.0
H2059 H 0.33248 0.38856 0.90011 0.0
H2060 H 0.35358 0.39114 0.87952 0.0
H2061 H 0.32479 0.28675 0.90591 0.0
H2062 H 0.303 0.27259 0.88164 0.0
H2063 H 0.2989 0.29591 0.90645 0.0
C2064 C 0.96796 0.08003 0.37263 0.0
C2065 C 0.97482 0.07401 0.34899 0.0
C2066 C 0.97939 0.07633 0.39464 0.0
C2067 C 0.99842 0.06552 0.39417 0.0
C2068 C 1.00521 0.05913 0.37029 0.0
C2069 C 0.99385 0.06365 0.34869 0.0
C2070 C 0.97105 0.08441 0.41877 0.0
C2071 C 0.02433 0.04657 0.36729 0.0
C2072 C 0.04055 0.07118 0.45354 0.0
C2073 C 0.032 0.05035 0.46386 0.0
C2074 C 0.03006 0.0764 0.43167 0.0
C2075 C 1.01046 0.06017 0.41808 0.0
C2076 C 1.00212 0.03894 0.42822 0.0
C2077 C 0.01198 0.03525 0.45096 0.0
C2078 C 0.03946 0.10028 0.42385 0.0
C2079 C 0.98219 0.0199 0.41529 0.0
H2080 H 0.95361 0.08812 0.3741 0.0
H2081 H 0.99984 0.05854 0.33117 0.0
H2082 H 0.96395 0.06799 0.42636 0.0
H2083 H 0.98495 0.09586 0.43208 0.0
H2084 H 0.95811 0.09514 0.41705 0.0
H2085 H 0.02861 0.04367 0.34818 0.0
H2086 H 0.03917 0.05759 0.3794 0.0
H2087 H 0.02001 0.02837 0.37282 0.0
H2088 H 0.05494 0.08438 0.4634 0.0
H2089 H 1.00338 0.02039 0.45897 0.0
H2090 H 0.02648 0.11111 0.42303 0.0
H2091 H 0.04471 0.09649 0.40525 0.0
H2092 H 0.05386 0.11171 0.43649 0.0
H2093 H 0.96694 0.02643 0.41945 0.0
H2094 H 0.98107 1.00197 0.42127 0.0
H2095 H 0.98269 0.01679 0.3952 0.0
C2096 C 0.29453 0.67982 0.61027 0.0
C2097 C 0.28706 0.68912 0.59045 0.0
C2098 C 0.29735 0.69408 0.63392 0.0
C2099 C 0.29307 0.71805 0.63718 0.0
C2100 C 0.28489 0.7271 0.6174 0.0
C2101 C 0.28152 0.7123 0.59441 0.0
C2102 C 0.3053 0.68389 0.65522 0.0
C2103 C 0.28057 0.75286 0.62027 0.0
C2104 C 0.28311 0.75517 0.69577 0.0
C2105 C 0.30398 0.77091 0.703 0.0
C2106 C 0.27977 0.73648 0.6752 0.0
C2107 C 0.29749 0.73446 0.66101 0.0
C2108 C 0.31834 0.75096 0.66755 0.0
C2109 C 0.32138 0.769 0.68874 0.0
C2110 C 0.25735 0.71901 0.66862 0.0
C2111 C 0.33734 0.7496 0.65217 0.0
H2112 H 0.29858 0.66181 0.60729 0.0
H2113 H 0.2754 0.71962 0.57934 0.0
H2114 H 0.3218 0.69509 0.66345 0.0
H2115 H 0.29387 0.68514 0.66962 0.0
H2116 H 0.30653 0.66435 0.64973 0.0
H2117 H 0.27451 0.75703 0.6027 0.0
H2118 H 0.26811 0.75519 0.6333 0.0
H2119 H 0.29602 0.76674 0.6278 0.0
H2120 H 0.26965 0.75667 0.70698 0.0
H2121 H 0.33758 0.78061 0.69467 0.0
H2122 H 0.2592 0.69959 0.66529 0.0
H2123 H 0.24932 0.72209 0.65149 0.0
H2124 H 0.24617 0.72148 0.68315 0.0
H2125 H 0.34114 0.73104 0.65017 0.0
H2126 H 0.35258 0.76367 0.66015 0.0
H2127 H 0.33264 0.7524 0.63357 0.0
C2128 C 0.66537 0.03259 0.80694 0.0
C2129 C 0.68849 0.03662 0.8079 0.0
C2130 C 0.65522 0.04209 0.8266 0.0
C2131 C 0.6684 0.05387 0.84867 0.0
C2132 C 0.69156 0.05562 0.85078 0.0
C2133 C 0.70157 0.04738 0.82997 0.0
C2134 C 0.63053 0.04067 0.82313 0.0
C2135 C 0.70563 0.0666 0.87473 0.0
C2136 C 0.63632 0.09514 0.88303 0.0
C2137 C 0.6231 0.07824 0.89438 0.0
C2138 C 0.65348 0.08844 0.87026 0.0
C2139 C 0.6572 0.06432 0.86897 0.0
C2140 C 0.64502 0.04795 0.88211 0.0
C2141 C 0.62783 0.05498 0.89434 0.0
C2142 C 0.66602 0.10626 0.85617 0.0
C2143 C 0.64852 0.0221 0.88115 0.0
H2144 H 0.65515 0.02372 0.78996 0.0
H2145 H 0.71942 0.05032 0.83067 0.0
H2146 H 0.62185 0.02939 0.83539 0.0
H2147 H 0.62714 0.05941 0.82781 0.0
H2148 H 0.62318 0.03243 0.80407 0.0
H2149 H 0.72355 0.06822 0.87289 0.0
H2150 H 0.70279 0.08512 0.88224 0.0
H2151 H 0.70078 0.05476 0.8882 0.0
H2152 H 0.63291 0.11331 0.88366 0.0
H2153 H 0.61754 0.04185 0.90317 0.0
H2154 H 0.65935 0.10074 0.83662 0.0
H2155 H 0.68383 0.10589 0.85732 0.0
H2156 H 0.66437 0.12548 0.86291 0.0
H2157 H 0.63996 1.01 0.86389 0.0
H2158 H 0.64171 0.01409 0.89658 0.0
H2159 H 0.66636 0.02188 0.8815 0.0
C2160 C 0.33518 0.3754 0.12069 0.0
C2161 C 0.32192 0.36363 0.09889 0.0
C2162 C 0.33143 0.36704 0.14273 0.0
C2163 C 0.3138 0.34663 0.14308 0.0
C2164 C 0.29967 0.33558 0.12128 0.0
C2165 C 0.3041 0.34397 0.09943 0.0
C2166 C 0.34715 0.37916 0.16533 0.0
C2167 C 0.28036 0.31423 0.12079 0.0
C2168 C 0.31885 0.30558 0.18977 0.0
C2169 C 0.30721 0.31514 0.20848 0.0
C2170 C 0.32138 0.3159 0.1687 0.0
C2171 C 0.3112 0.33563 0.16563 0.0
C2172 C 0.29876 0.34477 0.18415 0.0
C2173 C 0.29736 0.33482 0.20559 0.0
C2174 C 0.33538 0.30597 0.14995 0.0
C2175 C 0.28679 0.36493 0.18124 0.0
H2176 H 0.34918 0.39033 0.12023 0.0
H2177 H 0.29396 0.33468 0.08254 0.0
H2178 H 0.33784 0.38495 0.18078 0.0
H2179 H 0.35628 0.36567 0.17077 0.0
H2180 H 0.35933 0.39555 0.16246 0.0
H2181 H 0.26959 0.30945 0.10321 0.0
H2182 H 0.28654 0.29774 0.12358 0.0
H2183 H 0.27023 0.31869 0.13589 0.0
H2184 H 0.32673 0.29055 0.19204 0.0
H2185 H 0.28825 0.34218 0.21996 0.0
H2186 H 0.34881 0.32116 0.147 0.0
H2187 H 0.32516 0.29825 0.1322 0.0
H2188 H 0.34293 0.29132 0.15553 0.0
H2189 H 0.29881 0.38183 0.17939 0.0
H2190 H 0.27728 0.3695 0.19692 0.0
H2191 H 0.2752 0.35915 0.16427 0.0
C2192 C 0.26858 0.97882 0.99992 0.0
C2193 C 0.28383 0.97919 0.01948 0.0
C2194 C 0.25005 0.98871 1.00403 0.0
C2195 C 0.24679 0.99828 0.02829 0.0
C2196 C 0.26182 0.99756 0.04817 0.0
C2197 C 0.28052 0.9883 0.04341 0.0
C2198 C 0.23454 0.98974 0.98252 0.0
C2199 C 0.25835 1.00692 0.07436 0.0
C2200 C 0.21892 0.0496 0.04867 0.0
C2201 C 0.19966 0.03654 0.05591 0.0
C2202 C 0.23355 0.03697 0.03697 0.0
C2203 C 0.22879 1.01091 0.03327 0.0
C2204 C 0.20847 0.99762 0.03888 0.0
C2205 C 0.19391 1.01077 0.05008 0.0
C2206 C 0.25494 0.05153 0.03061 0.0
C2207 C 0.20309 0.96979 0.0353 0.0
H2208 H 0.27143 0.97123 0.98148 0.0
H2209 H 0.29235 0.98773 0.05833 0.0
H2210 H 0.21705 0.98326 0.98571 0.0
H2211 H 0.23666 1.00916 0.98014 0.0
H2212 H 0.23779 0.97845 0.9653 0.0
H2213 H 0.27063 1.00297 0.0876 0.0
H2214 H 0.25976 0.02717 0.07755 0.0
H2215 H 0.2415 0.99831 0.07815 0.0
H2216 H 0.22282 0.06962 0.05289 0.0
H2217 H 0.17866 1.00097 0.05553 0.0
H2218 H 0.25883 0.04308 0.01239 0.0
H2219 H 0.2687 0.05132 0.0442 0.0
H2220 H 0.25431 0.07105 0.03064 0.0
H2221 H 0.20742 0.96132 0.01732 0.0
H2222 H 0.1853 0.96228 0.03665 0.0
H2223 H 0.21306 0.96411 0.04956 0.0
C2224 C 0.73253 0.64147 0.0114 0.0
C2225 C 0.73387 0.65967 0.99703 0.0
C2226 C 0.71218 0.62519 0.01266 0.0
C2227 C 0.69268 0.62659 0.99874 0.0
C2228 C 0.69424 0.64415 0.98331 0.0
C2229 C 0.71463 0.66058 0.98289 0.0
C2230 C 0.71136 0.60719 0.02973 0.0
C2231 C 0.67415 0.64622 0.96782 0.0
C2232 C 0.64044 0.57409 0.98941 0.0
C2233 C 0.62743 0.58341 0.00686 0.0
C2234 C 0.66176 0.58762 0.98678 0.0
C2235 C 0.67037 0.61126 1.00174 0.0
C2236 C 0.65724 0.62079 0.01924 0.0
C2237 C 0.63612 0.60689 0.02153 0.0
C2238 C 0.67505 0.57667 0.96785 0.0
C2239 C 0.66551 0.64582 0.03564 0.0
H2240 H 0.74719 0.64073 0.02261 0.0
H2241 H 0.71545 0.67447 0.97165 0.0
H2242 H 0.70039 0.61143 0.04404 0.0
H2243 H 0.70424 0.58813 0.01959 0.0
H2244 H 0.72798 0.60781 0.03879 0.0
H2245 H 0.67846 0.65898 0.95499 0.0
H2246 H 0.66558 0.62781 0.95713 0.0
H2247 H 0.66228 0.65312 0.97977 0.0
H2248 H 0.63398 0.55623 0.97771 0.0
H2249 H 0.6264 0.61459 0.03502 0.0
H2250 H 0.69119 0.57541 0.97666 0.0
H2251 H 0.67863 0.58888 0.95442 0.0
H2252 H 0.6663 0.55796 0.95793 0.0
H2253 H 0.68149 0.64646 0.04608 0.0
H2254 H 0.6536 0.65038 0.04878 0.0
H2255 H 0.66853 0.66032 0.02446 0.0
C2256 C 0.72354 0.44279 0.29357 0.0
C2257 C 0.71853 0.452 0.27223 0.0
C2258 C 0.73608 0.4237 0.29415 0.0
C2259 C 0.74407 0.4116 0.27273 0.0
C2260 C 0.73858 0.42044 0.25098 0.0
C2261 C 0.72669 0.44021 0.25112 0.0
C2262 C 0.74095 0.41659 0.31829 0.0
C2263 C 0.74412 0.40802 0.22675 0.0
C2264 C 0.79344 0.37479 0.27373 0.0
C2265 C 0.78376 0.35025 0.27609 0.0
C2266 C 0.78132 0.39427 0.27307 0.0
C2267 C 0.75766 0.3901 0.27314 0.0
C2268 C 0.7475 0.36501 0.27411 0.0
C2269 C 0.76026 0.34641 0.27625 0.0
C2270 C 0.79432 0.42005 0.27352 0.0
C2271 C 0.72271 0.35721 0.27332 0.0
H2272 H 0.71799 0.45102 0.31039 0.0
H2273 H 0.72335 0.44614 0.23414 0.0
H2274 H 0.73043 0.39822 0.3185 0.0
H2275 H 0.7585 0.41522 0.32092 0.0
H2276 H 0.73758 0.43003 0.33388 0.0
H2277 H 0.74368 0.41961 0.2127 0.0
H2278 H 0.76059 0.40343 0.22825 0.0
H2279 H 0.73174 0.39039 0.22035 0.0
H2280 H 0.81089 0.37937 0.27308 0.0
H2281 H 0.75135 0.3284 0.27825 0.0
H2282 H 0.79048 0.43292 0.28929 0.0
H2283 H 0.78951 0.42643 0.25675 0.0
H2284 H 0.81244 0.42131 0.27495 0.0
H2285 H 0.71814 0.35795 0.29223 0.0
H2286 H 0.71672 0.33784 0.26333 0.0
H2287 H 0.71404 0.36923 0.26447 0.0
C2288 C 0.90479 0.48101 0.53155 0.0
C2289 C 0.89831 0.46167 0.51134 0.0
C2290 C 0.92661 0.49477 0.5358 0.0
C2291 C 0.94174 0.48943 0.51885 0.0
C2292 C 0.93465 0.47091 0.49755 0.0
C2293 C 0.91295 0.45709 0.49415 0.0
C2294 C 0.93387 0.51332 0.55945 0.0
C2295 C 0.94987 0.46523 0.47848 0.0
C2296 C 0.99735 0.53418 0.52778 0.0
C2297 C 1.01081 0.52013 0.53694 0.0
C2298 C 0.97481 0.52405 0.52065 0.0
C2299 C 0.9655 0.50044 0.52523 0.0
C2300 C 0.97885 0.48715 0.53646 0.0
C2301 C 1.00151 0.49697 0.54164 0.0
C2302 C 0.96113 0.53828 0.50793 0.0
C2303 C 0.96923 0.46259 0.54306 0.0
H2304 H 0.8932 0.48428 0.54479 0.0
H2305 H 0.90749 0.44237 0.47827 0.0
H2306 H 0.94576 0.50678 0.57096 0.0
H2307 H 0.94254 0.53139 0.55594 0.0
H2308 H 0.91973 0.51616 0.56997 0.0
H2309 H 0.94328 0.44707 0.46613 0.0
H2310 H 0.95144 0.47964 0.46724 0.0
H2311 H 0.96656 0.46531 0.48684 0.0
H2312 H 1.0044 0.55281 0.52579 0.0
H2313 H 0.01198 0.48675 0.54987 0.0
H2314 H 0.94728 0.54191 0.51849 0.0
H2315 H 0.95368 0.52707 0.48982 0.0
H2316 H 0.9711 0.55621 0.50532 0.0
H2317 H 0.95494 0.46405 0.55374 0.0
H2318 H 0.98157 0.45601 0.55396 0.0
H2319 H 0.96311 0.44852 0.52618 0.0
C2320 C 0.40416 0.12285 0.31492 0.0
C2321 C 0.40244 0.09969 0.3002 0.0
C2322 C 0.3926 0.13934 0.30728 0.0
C2323 C 0.37972 0.13222 0.28439 0.0
C2324 C 0.37844 0.1089 0.26934 0.0
C2325 C 0.38977 0.09276 0.27764 0.0
C2326 C 0.39369 0.16391 0.32378 0.0
C2327 C 0.36514 0.10091 0.24451 0.0
C2328 C 0.33234 0.15506 0.26117 0.0
C2329 C 0.34225 0.16683 0.24339 0.0
C2330 C 0.34508 0.14597 0.27724 0.0
C2331 C 0.36798 0.14907 0.27516 0.0
C2332 C 0.3783 0.16328 0.25898 0.0
C2333 C 0.36513 0.17193 0.24296 0.0
C2334 C 0.33375 0.13066 0.29432 0.0
C2335 C 0.40277 0.16668 0.2566 0.0
H2336 H 0.41387 0.12764 0.33261 0.0
H2337 H 0.38878 0.07468 0.26647 0.0
H2338 H 0.39739 0.17915 0.31356 0.0
H2339 H 0.37736 0.16411 0.33068 0.0
H2340 H 0.40639 0.16759 0.3397 0.0
H2341 H 0.36636 0.08221 0.23518 0.0
H2342 H 0.34745 0.10075 0.24639 0.0
H2343 H 0.37101 0.11415 0.2326 0.0
H2344 H 0.31453 0.15182 0.26156 0.0
H2345 H 0.37253 0.18178 0.22949 0.0
H2346 H 0.34383 0.13445 0.31223 0.0
H2347 H 0.33178 0.11077 0.28635 0.0
H2348 H 0.31707 0.13417 0.29728 0.0
H2349 H 0.41244 0.1714 0.27483 0.0
H2350 H 0.40868 0.18131 0.24626 0.0
H2351 H 0.40616 0.14916 0.24678 0.0
C2352 C 0.37784 0.17934 0.52249 0.0
C2353 C 0.35612 0.16521 0.52045 0.0
C2354 C 0.39619 0.16869 0.5258 0.0
C2355 C 0.39272 0.14329 0.52685 0.0
C2356 C 0.37082 0.12889 0.5242 0.0
C2357 C 0.35287 0.14002 0.52116 0.0
C2358 C 0.41927 0.18465 0.52855 0.0
C2359 C 0.3663 0.10172 0.52502 0.0
C2360 C 0.43653 0.10496 0.5189 0.0
C2361 C 0.44161 0.1026 0.54306 0.0
C2362 C 0.42159 0.11938 0.51334 0.0
C2363 C 0.41165 0.13184 0.53242 0.0
C2364 C 0.418 0.13089 0.55693 0.0
C2365 C 0.43285 0.11629 0.56193 0.0
C2366 C 0.4154 0.12 0.48696 0.0
C2367 C 0.40808 0.14411 0.57787 0.0
H2368 H 0.38052 0.19877 0.52175 0.0
H2369 H 0.33618 0.12886 0.51929 0.0
H2370 H 0.42785 0.18493 0.54665 0.0
H2371 H 0.42905 0.1768 0.51451 0.0
H2372 H 0.41923 0.20394 0.52681 0.0
H2373 H 0.34839 0.09285 0.52141 0.0
H2374 H 0.37526 0.09197 0.51132 0.0
H2375 H 0.37249 0.09921 0.54325 0.0
H2376 H 0.44328 0.09445 0.50422 0.0
H2377 H 0.43709 0.11494 0.58067 0.0
H2378 H 0.4159 0.13921 0.48464 0.0
H2379 H 0.3982 0.10926 0.48121 0.0
H2380 H 0.42655 0.11205 0.47464 0.0
H2381 H 0.40943 0.16372 0.57652 0.0
H2382 H 0.41622 0.1434 0.59592 0.0
H2383 H 0.39021 0.13548 0.57697 0.0
C2384 C 0.72219 0.61698 0.30471 0.0
C2385 C 0.7206 0.59532 0.2869 0.0
C2386 C 0.73645 0.64011 0.30376 0.0
C2387 C 0.74942 0.64291 0.2839 0.0
C2388 C 0.74805 0.62108 0.26585 0.0
C2389 C 0.73413 0.59782 0.26771 0.0
C2390 C 0.7371 0.66189 0.324 0.0
C2391 C 0.76062 0.62251 0.24381 0.0
C2392 C 0.76423 0.70975 0.2702 0.0
C2393 C 0.787 0.71883 0.27858 0.0
C2394 C 0.75246 0.68535 0.27089 0.0
C2395 C 0.76288 0.66879 0.28133 0.0
C2396 C 0.78579 0.67783 0.29023 0.0
C2397 C 0.79744 0.70221 0.28849 0.0
C2398 C 0.72848 0.6774 0.26051 0.0
C2399 C 0.79792 0.66202 0.30253 0.0
H2400 H 0.71192 0.61592 0.3196 0.0
H2401 H 0.73302 0.58184 0.25335 0.0
H2402 H 0.75441 0.67223 0.32992 0.0
H2403 H 0.72791 0.6747 0.31728 0.0
H2404 H 0.72949 0.65617 0.3401 0.0
H2405 H 0.75821 0.60429 0.23136 0.0
H2406 H 0.7551 0.63568 0.23353 0.0
H2407 H 0.77855 0.62967 0.24962 0.0
H2408 H 0.75524 0.72187 0.26298 0.0
H2409 H 0.81457 0.70859 0.29592 0.0
H2410 H 0.71782 0.6754 0.27551 0.0
H2411 H 0.72542 0.65914 0.24803 0.0
H2412 H 0.72335 0.69087 0.25033 0.0
H2413 H 0.79021 0.65846 0.31927 0.0
H2414 H 0.81573 0.67086 0.30767 0.0
H2415 H 0.79651 0.64387 0.29035 0.0
C2416 C 0.90996 0.46203 0.78657 0.0
C2417 C 0.91803 0.4745 0.81031 0.0
C2418 C 0.89332 0.44059 0.78253 0.0
C2419 C 0.88473 0.43166 0.80284 0.0
C2420 C 0.89254 0.44472 0.82689 0.0
C2421 C 0.90922 0.46621 0.83036 0.0
C2422 C 0.88523 0.42729 0.75658 0.0
C2423 C 0.88333 0.43612 0.84882 0.0
C2424 C 0.83329 0.3811 0.78376 0.0
C2425 C 0.84276 0.36057 0.78024 0.0
C2426 C 0.84654 0.4046 0.79324 0.0
C2427 C 0.86963 0.40719 0.79854 0.0
C2428 C 0.87896 0.38616 0.79569 0.0
C2429 C 0.86539 0.36307 0.78621 0.0
C2430 C 0.836 0.4266 0.79621 0.0
C2431 C 0.90346 0.38815 0.80135 0.0
H2432 H 0.91648 0.46935 0.77118 0.0
H2433 H 0.91508 0.47676 0.84861 0.0
H2434 H 0.88948 0.40891 0.75337 0.0
H2435 H 0.86696 0.42421 0.75346 0.0
H2436 H 0.89263 0.43771 0.74291 0.0
H2437 H 0.89066 0.44892 0.86622 0.0
H2438 H 0.86519 0.43451 0.84715 0.0
H2439 H 0.88661 0.4177 0.84956 0.0
H2440 H 0.81566 0.37877 0.77898 0.0
H2441 H 0.87245 0.34686 0.78334 0.0
H2442 H 0.83842 0.43549 0.78013 0.0
H2443 H 0.84371 0.44054 0.8127 0.0
H2444 H 0.81793 0.4211 0.7975 0.0
H2445 H 0.91262 0.3971 0.78775 0.0
H2446 H 0.90752 0.36982 0.8009 0.0
H2447 H 0.90947 0.39982 0.81964 0.0
C2448 C 0.08058 0.88945 0.09403 0.0
C2449 C 0.10178 0.88403 0.09468 0.0
C2450 C 0.07567 0.90941 0.08377 0.0
C2451 C 0.09241 0.92537 0.07426 0.0
C2452 C 0.11392 0.92003 0.075 0.0
C2453 C 0.11822 0.89951 0.0848 0.0
C2454 C 0.05234 0.91327 0.08292 0.0
C2455 C 0.13264 0.93638 0.06578 0.0
C2456 C 0.07863 0.96674 0.02886 0.0
C2457 C 0.08013 0.98994 0.04399 0.0
C2458 C 0.08161 0.94567 0.03839 0.0
C2459 C 0.08753 0.94758 0.06383 0.0
C2460 C 0.08913 0.97108 0.07918 0.0
C2461 C 0.08525 0.99162 0.06923 0.0
C2462 C 0.07871 0.9213 0.02101 0.0
C2463 C 0.0957 0.97481 0.10622 0.0
H2464 H 0.0676 0.87782 0.10144 0.0
H2465 H 0.13471 0.89591 0.08523 0.0
H2466 H 0.05213 0.93189 0.09327 0.0
H2467 H 0.04587 0.91238 0.06375 0.0
H2468 H 0.04101 0.89927 0.09059 0.0
H2469 H 0.14841 0.93016 0.0676 0.0
H2470 H 0.12841 0.9367 0.0463 0.0
H2471 H 0.1352 0.95561 0.07612 0.0
H2472 H 0.0752 0.96506 0.00931 0.0
H2473 H 0.08705 1.00939 0.08123 0.0
H2474 H 0.06731 0.90665 0.02776 0.0
H2475 H 0.09487 0.91591 0.01998 0.0
H2476 H 0.07202 0.92205 1.00232 0.0
H2477 H 0.08371 0.96202 0.11447 0.0
H2478 H 0.0965 0.99402 0.1158 0.0
H2479 H 0.11215 0.97042 0.10937 0.0
C2480 C 0.94234 0.27585 0.90847 0.0
C2481 C 0.96346 0.27511 0.9008 0.0
C2482 C 0.92427 0.27718 0.89234 0.0
C2483 C 0.92687 0.27797 0.86746 0.0
C2484 C 0.94796 0.27667 0.85933 0.0
C2485 C 0.96585 0.2752 0.87592 0.0
C2486 C 0.90238 0.27836 0.90221 0.0
C2487 C 0.95184 0.2776 0.83315 0.0
C2488 C 0.87346 0.26503 0.82261 0.0
C2489 C 0.87024 0.28888 0.82204 0.0
C2490 C 0.89183 0.26114 0.83677 0.0
C2491 C 0.90786 0.28155 0.85064 0.0
C2492 C 0.90498 0.30565 0.84941 0.0
C2493 C 0.88646 0.30896 0.83525 0.0
C2494 C 0.89385 0.23506 0.83725 0.0
C2495 C 0.92145 0.32816 0.86336 0.0
H2496 H 0.9399 0.27574 0.92745 0.0
H2497 H 0.98189 0.27482 0.86951 0.0
H2498 H 0.89819 0.29627 0.90075 0.0
H2499 H 0.88901 0.26356 0.89121 0.0
H2500 H 0.90256 0.27638 0.92162 0.0
H2501 H 0.96838 0.2744 0.82899 0.0
H2502 H 0.93895 0.26358 0.82057 0.0
H2503 H 0.95056 0.29594 0.8294 0.0
H2504 H 0.86136 0.24931 0.81222 0.0
H2505 H 0.88508 0.32751 0.83434 0.0
H2506 H 0.89258 0.23152 0.85604 0.0
H2507 H 0.9103 0.23249 0.83214 0.0
H2508 H 0.88082 0.22119 0.82464 0.0
H2509 H 0.92151 0.3285 0.88326 0.0
H2510 H 0.91764 0.34563 0.85963 0.0
H2511 H 0.93838 0.3274 0.85855 0.0
C2512 C 0.57988 0.23416 0.56955 0.0
C2513 C 0.59972 0.2474 0.58354 0.0
C2514 C 0.57562 0.20811 0.56152 0.0
C2515 C 0.59138 0.19455 0.56783 0.0
C2516 C 0.61143 0.20797 0.58202 0.0
C2517 C 0.6154 0.23402 0.5894 0.0
C2518 C 0.55398 0.19505 0.54659 0.0
C2519 C 0.62872 0.19474 0.58961 0.0
C2520 C 0.57275 0.1268 0.57411 0.0
C2521 C 0.57685 0.11302 0.55189 0.0
C2522 C 0.57653 0.1528 0.57886 0.0
C2523 C 0.58614 0.16635 0.56174 0.0
C2524 C 0.59078 0.15276 0.53934 0.0
C2525 C 0.58522 0.12639 0.53427 0.0
C2526 C 0.56983 0.16578 0.60229 0.0
C2527 C 0.60185 0.16609 0.52081 0.0
H2528 H 0.56778 0.24426 0.56453 0.0
H2529 H 0.63087 0.24401 0.59997 0.0
H2530 H 0.55681 0.18198 0.53041 0.0
H2531 H 0.54338 0.18411 0.55778 0.0
H2532 H 0.54488 0.20819 0.54027 0.0
H2533 H 0.64398 0.20773 0.59925 0.0
H2534 H 0.62197 0.18231 0.60192 0.0
H2535 H 0.63313 0.18304 0.57335 0.0
H2536 H 0.56584 0.11708 0.58789 0.0
H2537 H 0.58755 0.11638 0.51662 0.0
H2538 H 0.55862 0.17784 0.59815 0.0
H2539 H 0.58464 0.17778 0.61376 0.0
H2540 H 0.56125 0.15264 0.61305 0.0
H2541 H 0.59194 0.17886 0.51534 0.0
H2542 H 0.60418 0.15316 0.50423 0.0
H2543 H 0.61829 0.17744 0.52911 0.0
C2544 C 0.59198 0.79665 0.38611 0.0
C2545 C 0.58857 0.78238 0.40418 0.0
C2546 C 0.61204 0.80023 0.37545 0.0
C2547 C 0.62895 0.78848 0.38228 0.0
C2548 C 0.62547 0.77382 0.40045 0.0
C2549 C 0.6055 0.77136 0.41154 0.0
C2550 C 0.61514 0.81667 0.35682 0.0
C2551 C 0.64271 0.76047 0.40791 0.0
C2552 C 0.6684 0.78113 0.3332 0.0
C2553 C 0.68597 0.80155 0.34166 0.0
C2554 C 0.65043 0.77571 0.34699 0.0
C2555 C 0.64983 0.79122 0.36976 0.0
C2556 C 0.66825 0.81104 0.379 0.0
C2557 C 0.68602 0.81602 0.36479 0.0
C2558 C 0.6314 0.75425 0.33643 0.0
C2559 C 0.6685 0.82811 0.40309 0.0
H2560 H 0.57901 0.80543 0.38062 0.0
H2561 H 0.60288 0.76031 0.42552 0.0
H2562 H 0.63041 0.83138 0.36243 0.0
H2563 H 0.61717 0.80574 0.3389 0.0
H2564 H 0.60093 0.8255 0.35444 0.0
H2565 H 0.63714 0.7489 0.42143 0.0
H2566 H 0.64674 0.74847 0.39162 0.0
H2567 H 0.6582 0.774 0.41594 0.0
H2568 H 0.66818 0.77013 0.31516 0.0
H2569 H 0.69943 0.83204 0.37121 0.0
H2570 H 0.61681 0.76129 0.33091 0.0
H2571 H 0.62659 0.74294 0.35036 0.0
H2572 H 0.63551 0.74221 0.32019 0.0
H2573 H 0.65661 0.84002 0.40109 0.0
H2574 H 0.68516 0.84016 0.40941 0.0
H2575 H 0.66321 0.81747 0.41736 0.0
C2576 C 0.11016 0.25682 0.41322 0.0
C2577 C 0.12232 0.2784 0.42859 0.0
C2578 C 0.10351 0.23528 0.42255 0.0
C2579 C 0.10887 0.23599 0.44768 0.0
C2580 C 0.12343 0.25688 0.4623 0.0
C2581 C 0.13036 0.27771 0.45232 0.0
C2582 C 0.08886 0.21283 0.40622 0.0
C2583 C 0.12931 0.2586 0.48931 0.0
C2584 C 0.06767 0.20733 0.48631 0.0
C2585 C 0.07822 0.18989 0.49381 0.0
C2586 C 0.07666 0.22129 0.46962 0.0
C2587 C 0.09649 0.21735 0.46003 0.0
C2588 C 0.10632 0.19851 0.46612 0.0
C2589 C 0.09724 0.18519 0.48326 0.0
C2590 C 0.06572 0.24136 0.46358 0.0
C2591 C 0.1271 0.19343 0.45565 0.0
H2592 H 0.10406 0.2574 0.39478 0.0
H2593 H 0.14011 0.29444 0.46397 0.0
H2594 H 0.09189 0.19556 0.41125 0.0
H2595 H 0.07126 0.2132 0.40822 0.0
H2596 H 0.09151 0.21251 0.38673 0.0
H2597 H 0.14217 0.27542 0.4975 0.0
H2598 H 0.1143 0.25909 0.49899 0.0
H2599 H 0.13538 0.24222 0.49263 0.0
H2600 H 0.05261 0.21039 0.49387 0.0
H2601 H 0.10549 0.17166 0.48898 0.0
H2602 H 0.06284 0.23959 0.44352 0.0
H2603 H 0.07679 0.25969 0.47098 0.0
H2604 H 0.04964 0.24085 0.47132 0.0
H2605 H 0.12595 0.19341 0.43576 0.0
H2606 H 0.13031 0.17547 0.45865 0.0
H2607 H 0.14153 0.20823 0.46443 0.0
C2608 C 0.59817 0.28437 0.17306 0.0
C2609 C 0.57736 0.27236 0.17802 0.0
C2610 C 0.61744 0.28279 0.18659 0.0
C2611 C 0.61568 0.26821 0.20482 0.0
C2612 C 0.59466 0.25615 0.20991 0.0
C2613 C 0.5757 0.25869 0.19666 0.0
C2614 C 0.63964 0.29626 0.1811 0.0
C2615 C 0.59221 0.23991 0.22878 0.0
C2616 C 0.66353 0.24059 0.22204 0.0
C2617 C 0.67189 0.25565 0.24469 0.0
C2618 C 0.64547 0.24487 0.2085 0.0
C2619 C 0.63579 0.2647 0.21802 0.0
C2620 C 0.64459 0.28027 0.24075 0.0
C2621 C 0.66267 0.27554 0.25388 0.0
C2622 C 0.63642 0.22784 0.18436 0.0
C2623 C 0.63465 0.30159 0.25134 0.0
H2624 H 0.59932 0.29497 0.15863 0.0
H2625 H 0.55957 0.24909 0.20019 0.0
H2626 H 0.64926 0.30771 0.19814 0.0
H2627 H 0.64933 0.28272 0.17358 0.0
H2628 H 0.63803 0.30835 0.16775 0.0
H2629 H 0.5746 0.23198 0.23059 0.0
H2630 H 0.60065 0.22451 0.2237 0.0
H2631 H 0.60024 0.25063 0.24684 0.0
H2632 H 0.67104 0.22538 0.21507 0.0
H2633 H 0.66951 0.28718 0.27141 0.0
H2634 H 0.63594 0.23864 0.16968 0.0
H2635 H 0.61917 0.21804 0.1854 0.0
H2636 H 0.64643 0.2139 0.17917 0.0
H2637 H 0.63394 0.31386 0.23799 0.0
H2638 H 0.64419 0.31268 0.2686 0.0
H2639 H 0.61741 0.29453 0.25507 0.0
C2640 C 0.61288 0.89642 0.94042 0.0
C2641 C 0.62908 0.89666 0.92422 0.0
C2642 C 0.608 0.9183 0.95186 0.0
C2643 C 0.62035 0.94086 0.94764 0.0
C2644 C 0.63734 0.94135 0.93199 0.0
C2645 C 0.64123 0.91897 0.91994 0.0
C2646 C 0.58927 0.91717 0.96796 0.0
C2647 C 0.65124 0.96538 0.92809 0.0
C2648 C 0.58911 0.99072 0.96074 0.0
C2649 C 0.5959 0.99945 0.98564 0.0
C2650 C 0.59816 0.97258 0.94742 0.0
C2651 C 0.61475 0.96373 0.95932 0.0
C2652 C 0.62306 0.97403 0.98384 0.0
C2653 C 0.61333 0.99166 0.99683 0.0
C2654 C 0.58864 0.96145 0.92134 0.0
C2655 C 0.64104 0.96522 0.99692 0.0
H2656 H 0.60341 0.87916 0.94355 0.0
H2657 H 0.65387 0.91888 0.90744 0.0
H2658 H 0.59561 0.92695 0.98688 0.0
H2659 H 0.57675 0.92656 0.9612 0.0
H2660 H 0.58089 0.89791 0.96852 0.0
H2661 H 0.66427 0.96246 0.9159 0.0
H2662 H 0.6406 0.9761 0.92002 0.0
H2663 H 0.65925 0.97679 0.94591 0.0
H2664 H 0.57613 0.99721 0.95181 0.0
H2665 H 0.61931 0.99912 0.01585 0.0
H2666 H 0.579 0.94235 0.92039 0.0
H2667 H 0.60204 0.96029 0.90931 0.0
H2668 H 0.57753 0.97222 0.91409 0.0
H2669 H 0.63384 0.94737 1.00206 0.0
H2670 H 0.64874 0.97857 0.01387 0.0
H2671 H 0.65413 0.96214 0.9849 0.0
C2672 C 0.94049 0.74744 0.69399 0.0
C2673 C 0.96065 0.76416 0.70217 0.0
C2674 C 0.92217 0.74825 0.70721 0.0
C2675 C 0.92397 0.76718 0.72806 0.0
C2676 C 0.94461 0.7836 0.73654 0.0
C2677 C 0.96286 0.78156 0.72369 0.0
C2678 C 0.90082 0.72944 0.69828 0.0
C2679 C 0.94716 0.80492 0.75759 0.0
C2680 C 0.87034 0.78666 0.73969 0.0
C2681 C 0.8653 0.77758 0.76082 0.0
C2682 C 0.88985 0.78421 0.72935 0.0
C2683 C 0.90394 0.7711 0.73969 0.0
C2684 C 0.89864 0.76137 0.76074 0.0
C2685 C 0.8794 0.76498 0.77124 0.0
C2686 C 0.89518 0.79535 0.70721 0.0
C2687 C 0.91275 0.74627 0.77148 0.0
H2688 H 0.93905 0.73392 0.67724 0.0
H2689 H 0.97851 0.7947 0.72956 0.0
H2690 H 0.89199 0.72405 0.71378 0.0
H2691 H 0.8898 0.73743 0.68718 0.0
H2692 H 0.90382 0.71257 0.68662 0.0
H2693 H 0.96464 0.81168 0.76574 0.0
H2694 H 0.94193 0.82012 0.75036 0.0
H2695 H 0.93674 0.80011 0.77212 0.0
H2696 H 0.85874 0.79515 0.7309 0.0
H2697 H 0.87494 0.75721 0.7871 0.0
H2698 H 0.89516 0.7806 0.69122 0.0
H2699 H 0.912 0.80756 0.7106 0.0
H2700 H 0.88311 0.80623 0.70239 0.0
H2701 H 0.91266 0.72932 0.75788 0.0
H2702 H 0.90677 0.74079 0.78842 0.0
H2703 H 0.93017 0.7568 0.7757 0.0
C2704 C 0.16968 0.03447 0.86614 0.0
C2705 C 0.15925 0.02112 0.84288 0.0
C2706 C 0.15815 0.03748 0.8879 0.0
C2707 C 0.13524 0.02593 0.88803 0.0
C2708 C 0.12483 1.01185 0.86468 0.0
C2709 C 0.13644 1.01027 0.84296 0.0
C2710 C 0.17083 0.05353 0.91098 0.0
C2711 C 0.10111 0.99782 0.86246 0.0
C2712 C 0.11337 0.01674 0.95254 0.0
C2713 C 0.09922 0.03342 0.95771 0.0
C2714 C 0.12425 0.01366 0.93035 0.0
C2715 C 0.12249 0.02834 0.91209 0.0
C2716 C 0.10841 0.04547 0.91741 0.0
C2717 C 0.09699 0.04743 0.93929 0.0
C2718 C 0.13777 0.99428 0.92651 0.0
C2719 C 0.10608 0.06285 0.90035 0.0
H2720 H 0.18704 0.04333 0.86733 0.0
H2721 H 0.12753 0.99971 0.82581 0.0
H2722 H 0.16042 0.06494 0.92092 0.0
H2723 H 0.17584 0.04167 0.92315 0.0
H2724 H 0.18604 0.06594 0.90718 0.0
H2725 H 0.09671 0.98362 0.84539 0.0
H2726 H 0.09799 0.98864 0.87828 0.0
H2727 H 0.08995 1.0108 0.8623 0.0
H2728 H 0.11588 1.00563 0.96596 0.0
H2729 H 0.0867 0.0608 0.94234 0.0
H2730 H 0.15561 1.00332 0.92966 0.0
H2731 H 0.13436 0.98367 0.90744 0.0
H2732 H 0.13435 0.98121 0.93919 0.0
H2733 H 0.12244 0.07526 0.90015 0.0
H2734 H 0.09401 0.07431 0.90583 0.0
H2735 H 0.10078 0.05244 0.88145 0.0
C2736 C 0.80865 0.39804 0.58127 0.0
C2737 C 0.82482 0.41624 0.57483 0.0
C2738 C 0.81258 0.38878 0.60229 0.0
C2739 C 0.83336 0.39766 0.61638 0.0
C2740 C 0.8485 0.41826 0.61155 0.0
C2741 C 0.84381 0.42763 0.59081 0.0
C2742 C 0.79595 0.36707 0.60719 0.0
C2743 C 0.87107 0.42781 0.62581 0.0
C2744 C 0.84852 0.372 0.67145 0.0
C2745 C 0.85973 0.35433 0.66087 0.0
C2746 C 0.83931 0.38607 0.65709 0.0
C2747 C 0.84135 0.38203 0.63178 0.0
C2748 C 0.85202 0.36354 0.62094 0.0
C2749 C 0.86113 0.34991 0.63572 0.0
C2750 C 0.8281 0.40573 0.66902 0.0
C2751 C 0.85438 0.35857 0.59387 0.0
H2752 H 0.79411 0.38921 0.56854 0.0
H2753 H 0.85641 0.44146 0.58533 0.0
H2754 H 0.80116 0.34975 0.59993 0.0
H2755 H 0.79503 0.3682 0.62708 0.0
H2756 H 0.77919 0.36595 0.59819 0.0
H2757 H 0.87902 0.44642 0.62282 0.0
H2758 H 0.87003 0.42865 0.64563 0.0
H2759 H 0.88192 0.41501 0.61979 0.0
H2760 H 0.84756 0.37528 0.691 0.0
H2761 H 0.86955 0.33588 0.62769 0.0
H2762 H 0.81164 0.40389 0.65901 0.0
H2763 H 0.83812 0.42422 0.66824 0.0
H2764 H 0.82597 0.40487 0.68843 0.0
H2765 H 0.83788 0.35412 0.58321 0.0
H2766 H 0.86263 0.34303 0.58842 0.0
H2767 H 0.86424 0.3753 0.58872 0.0
C2768 C 0.46235 0.0846 0.3937 0.0
C2769 C 0.44868 0.06156 0.38396 0.0
C2770 C 0.481 0.08641 0.40959 0.0
C2771 C 0.48519 0.0647 0.41621 0.0
C2772 C 0.47023 0.04164 0.40811 0.0
C2773 C 0.45202 0.04033 0.39169 0.0
C2774 C 0.49694 0.11112 0.41797 0.0
C2775 C 0.47382 0.01844 0.41615 0.0
C2776 C 0.54124 0.06029 0.44181 0.0
C2777 C 0.53884 0.06596 0.4666 0.0
C2778 C 0.5242 0.06131 0.42474 0.0
C2779 C 0.50436 0.06655 0.43326 0.0
C2780 C 0.50254 0.07332 0.45836 0.0
C2781 C 0.52059 0.07459 0.47468 0.0
C2782 C 0.52684 0.05529 0.39786 0.0
C2783 C 0.48128 0.07777 0.46822 0.0
H2784 H 0.45984 0.1007 0.38674 0.0
H2785 H 0.44155 0.02251 0.38328 0.0
H2786 H 0.49804 0.1167 0.43811 0.0
H2787 H 0.51376 0.1097 0.41317 0.0
H2788 H 0.49189 0.12587 0.40968 0.0
H2789 H 0.46059 1.00202 0.40778 0.0
H2790 H 0.48997 0.01472 0.41119 0.0
H2791 H 0.47428 0.02095 0.43632 0.0
H2792 H 0.55555 0.0536 0.43585 0.0
H2793 H 0.51956 0.07994 0.49403 0.0
H2794 H 0.52085 0.06861 0.38817 0.0
H2795 H 0.51676 0.03661 0.38977 0.0
H2796 H 0.54435 0.05561 0.3946 0.0
H2797 H 0.48055 0.09735 0.46905 0.0
H2798 H 0.4804 0.07386 0.4869 0.0
H2799 H 0.46639 0.066 0.45669 0.0
C2800 C 0.78407 0.72333 0.0952 0.0
C2801 C 0.80218 0.72909 0.08194 0.0
C2802 C 0.78574 0.73157 0.12068 0.0
C2803 C 0.80591 0.74647 0.13326 0.0
C2804 C 0.82444 0.75184 0.11992 0.0
C2805 C 0.82237 0.743 0.09444 0.0
C2806 C 0.76555 0.7253 0.1339 0.0
C2807 C 0.84628 0.76755 0.13246 0.0
C2808 C 0.80639 0.79201 0.19288 0.0
C2809 C 0.81183 0.77893 0.21058 0.0
C2810 C 0.80326 0.78118 0.16783 0.0
C2811 C 0.80733 0.75731 0.16005 0.0
C2812 C 0.81328 0.74419 0.17793 0.0
C2813 C 0.8151 0.75499 0.20294 0.0
C2814 C 0.79604 0.79554 0.14967 0.0
C2815 C 0.81855 0.71915 0.17059 0.0
H2816 H 0.7684 0.71273 0.08548 0.0
H2817 H 0.83631 0.74769 0.08415 0.0
H2818 H 0.76983 0.71923 0.15106 0.0
H2819 H 0.75883 0.74204 0.13889 0.0
H2820 H 0.75237 0.71056 0.12245 0.0
H2821 H 0.85934 0.76916 0.1198 0.0
H2822 H 0.84422 0.78635 0.14021 0.0
H2823 H 0.85194 0.75962 0.14787 0.0
H2824 H 0.8047 0.81085 0.19865 0.0
H2825 H 0.8202 0.74519 0.21655 0.0
H2826 H 0.78122 0.7842 0.13768 0.0
H2827 H 0.80935 0.79998 0.13782 0.0
H2828 H 0.79201 0.81303 0.15874 0.0
H2829 H 0.80415 0.7061 0.15932 0.0
H2830 H 0.82299 0.71135 0.18663 0.0
H2831 H 0.83258 0.72056 0.15921 0.0
C2832 C 0.12846 0.0245 0.70159 0.0
C2833 C 0.14973 0.01905 0.70583 0.0
C2834 C 0.11894 0.02757 0.67851 0.0
C2835 C 0.1299 0.02442 0.65694 0.0
C2836 C 0.15103 0.01786 0.66044 0.0
C2837 C 0.16063 0.01562 0.68428 0.0
C2838 C 0.09702 0.03513 0.6776 0.0
C2839 C 0.1639 0.01338 0.63883 0.0
C2840 C 0.09212 0.01655 0.59363 0.0
C2841 C 0.09881 0.03916 0.58542 0.0
C2842 C 0.10228 1.0112 0.61563 0.0
C2843 C 0.1195 0.02902 0.6317 0.0
C2844 C 0.12598 0.05192 0.62367 0.0
C2845 C 0.11678 0.05589 0.60069 0.0
C2846 C 0.0949 0.98575 0.62108 0.0
C2847 C 0.14305 0.07267 0.63936 0.0
H2848 H 0.11892 0.02716 0.717 0.0
H2849 H 0.17696 1.01171 0.68596 0.0
H2850 H 0.09799 0.05118 0.66845 0.0
H2851 H 0.08408 0.01974 0.66681 0.0
H2852 H 0.0917 0.04008 0.69606 0.0
H2853 H 0.17655 1.00272 0.64229 0.0
H2854 H 0.15268 1.00329 0.62227 0.0
H2855 H 0.17253 0.03135 0.63501 0.0
H2856 H 0.07949 1.00223 0.58208 0.0
H2857 H 0.12455 0.07217 0.59435 0.0
H2858 H 0.08322 0.98625 0.63523 0.0
H2859 H 0.10922 0.97913 0.62819 0.0
H2860 H 0.08632 0.97223 0.60461 0.0
H2861 H 0.13944 0.07497 0.65872 0.0
H2862 H 0.14365 0.09048 0.63329 0.0
H2863 H 0.15961 0.06831 0.63854 0.0
C2864 C 0.83434 0.41208 0.42712 0.0
C2865 C 0.83847 0.40742 0.45048 0.0
C2866 C 0.83884 0.39626 0.40674 0.0
C2867 C 0.84792 0.37597 0.41034 0.0
C2868 C 0.85471 0.37324 0.43395 0.0
C2869 C 0.84942 0.3887 0.45379 0.0
C2870 C 0.83193 0.39982 0.38149 0.0
C2871 C 0.86536 0.35239 0.4383 0.0
C2872 C 0.82249 0.31767 0.36559 0.0
C2873 C 0.83785 0.31801 0.34853 0.0
C2874 C 0.82591 0.33628 0.38632 0.0
C2875 C 0.84567 0.35485 0.39028 0.0
C2876 C 0.86261 0.35329 0.37491 0.0
C2877 C 0.85852 0.33464 0.35413 0.0
C2878 C 0.80762 0.33716 0.40283 0.0
C2879 C 0.88416 0.37235 0.379 0.0
H2880 H 0.82623 0.42688 0.42467 0.0
H2881 H 0.85307 0.38519 0.47173 0.0
H2882 H 0.84505 0.39747 0.36932 0.0
H2883 H 0.81682 0.38559 0.37354 0.0
H2884 H 0.82831 0.41834 0.38178 0.0
H2885 H 0.87362 0.35586 0.4572 0.0
H2886 H 0.85249 0.335 0.43543 0.0
H2887 H 0.87774 0.34959 0.42524 0.0
H2888 H 0.807 0.30434 0.36181 0.0
H2889 H 0.87081 0.33444 0.34124 0.0
H2890 H 0.80138 0.35419 0.40255 0.0
H2891 H 0.81403 0.33775 0.42194 0.0
H2892 H 0.79347 0.32099 0.39724 0.0
H2893 H 0.88186 0.38829 0.3708 0.0
H2894 H 0.89748 0.36477 0.37016 0.0
H2895 H 0.88966 0.37931 0.39873 0.0
C2896 C 0.47979 0.0243 0.25287 0.0
C2897 C 0.46261 0.03585 0.25947 0.0
C2898 C 0.48476 0.02033 0.22888 0.0
C2899 C 0.47226 0.02829 0.21102 0.0
C2900 C 0.45446 0.03935 0.21724 0.0
C2901 C 0.44978 0.04303 0.24158 0.0
C2902 C 0.50387 1.00816 0.22293 0.0
C2903 C 0.44048 0.04723 0.1983 0.0
C2904 C 0.51314 0.04027 0.16807 0.0
C2905 C 0.51065 0.01612 0.15525 0.0
C2906 C 0.49786 0.04609 0.18398 0.0
C2907 C 0.47994 0.02709 0.18675 0.0
C2908 C 0.47545 1.00392 0.17064 0.0
C2909 C 0.4913 0.99844 0.15524 0.0
C2910 C 0.50304 0.07119 0.20061 0.0
C2911 C 0.4557 0.98381 0.17211 0.0
H2912 H 0.48947 0.01829 0.26649 0.0
H2913 H 0.43617 0.05157 0.24656 0.0
H2914 H 0.49803 0.9911 0.20884 0.0
H2915 H 0.51677 0.02075 0.21554 0.0
H2916 H 0.5117 1.0031 0.23915 0.0
H2917 H 0.42842 0.05743 0.20658 0.0
H2918 H 0.45104 0.05906 0.1878 0.0
H2919 H 0.43119 0.03068 0.18506 0.0
H2920 H 0.52785 0.0541 0.16694 0.0
H2921 H 0.48906 0.98015 0.14405 0.0
H2922 H 0.51157 0.06991 0.21825 0.0
H2923 H 0.48775 0.0777 0.20452 0.0
H2924 H 0.51411 0.08513 0.19259 0.0
H2925 H 0.46026 0.97265 0.18529 0.0
H2926 H 0.45039 0.97127 0.15408 0.0
H2927 H 0.44156 0.99155 0.17844 0.0
C2928 C 0.80275 0.74109 0.94937 0.0
C2929 C 0.80793 0.71815 0.95014 0.0
C2930 C 0.80564 0.75197 0.92857 0.0
C2931 C 0.81442 0.73994 0.90819 0.0
C2932 C 0.8205 0.71728 0.90933 0.0
C2933 C 0.81691 0.70654 0.93004 0.0
C2934 C 0.79887 0.77608 0.9282 0.0
C2935 C 0.83081 0.7043 0.88858 0.0
C2936 C 0.80015 0.74801 0.84319 0.0
C2937 C 0.81827 0.76598 0.83941 0.0
C2938 C 0.79826 0.74055 0.86579 0.0
C2939 C 0.81567 0.74979 0.88491 0.0
C2940 C 0.8346 0.767 0.88092 0.0
C2941 C 0.83549 0.77506 0.85841 0.0
C2942 C 0.77748 0.72266 0.86915 0.0
C2943 C 0.85403 0.77689 0.90027 0.0
H2944 H 0.79608 0.75038 0.96489 0.0
H2945 H 0.82145 0.6891 0.93057 0.0
H2946 H 0.81333 0.79031 0.92572 0.0
H2947 H 0.78625 0.77379 0.9125 0.0
H2948 H 0.79199 0.78294 0.94528 0.0
H2949 H 0.83635 0.68796 0.89305 0.0
H2950 H 0.8187 0.69812 0.87205 0.0
H2951 H 0.84525 0.71725 0.88394 0.0
H2952 H 0.78708 0.73987 0.82856 0.0
H2953 H 0.85011 0.7877 0.85545 0.0
H2954 H 0.77074 0.72973 0.88623 0.0
H2955 H 0.78138 0.70469 0.87085 0.0
H2956 H 0.76444 0.71946 0.85364 0.0
H2957 H 0.84977 0.79083 0.91472 0.0
H2958 H 0.86901 0.78588 0.8927 0.0
H2959 H 0.85806 0.76194 0.909 0.0
C2960 C 0.87012 0.13253 0.03976 0.0
C2961 C 0.84898 0.11801 0.04033 0.0
C2962 C 0.8881 0.12156 0.03544 0.0
C2963 C 0.88466 0.09557 0.03164 0.0
C2964 C 0.86389 0.08113 0.03472 0.0
C2965 C 0.84624 0.09259 0.03913 0.0
C2966 C 0.91014 0.1376 0.03271 0.0
C2967 C 0.85975 0.05334 0.03104 0.0
C2968 C 0.91499 0.06237 0.98502 0.0
C2969 C 0.92988 0.05448 0.99995 0.0
C2970 C 0.9007 0.07661 0.99522 0.0
C2971 C 0.90146 0.08311 0.02095 0.0
C2972 C 0.91702 0.07604 0.03616 0.0
C2973 C 0.93097 0.0616 0.02547 0.0
C2974 C 0.88441 0.08415 0.97844 0.0
C2975 C 0.91848 0.08316 0.06366 0.0
H2976 H 0.87235 0.15228 0.04097 0.0
H2977 H 0.82994 0.08135 0.03978 0.0
H2978 H 0.92403 0.1311 0.04093 0.0
H2979 H 0.9121 0.13663 0.01301 0.0
H2980 H 0.91139 0.15723 0.04129 0.0
H2981 H 0.84351 0.04514 0.03674 0.0
H2982 H 0.86003 0.04551 0.01143 0.0
H2983 H 0.87298 0.04771 0.04149 0.0
H2984 H 0.91454 0.05743 0.96534 0.0
H2985 H 0.94245 0.05548 0.03713 0.0
H2986 H 0.88624 0.10447 0.98265 0.0
H2987 H 0.86726 0.07564 0.98138 0.0
H2988 H 0.88665 0.07847 0.95887 0.0
H2989 H 0.91974 0.1033 0.06936 0.0
H2990 H 0.93291 0.07825 0.07279 0.0
H2991 H 0.90319 0.07363 0.07022 0.0
C2992 C 0.41677 0.42843 0.05846 0.0
C2993 C 0.39854 0.42904 0.0426 0.0
C2994 C 0.43714 0.4455 0.06003 0.0
C2995 C 0.43975 0.46317 0.0447 0.0
C2996 C 0.42117 0.46422 0.02903 0.0
C2997 C 0.40072 0.44743 0.02847 0.0
C2998 C 0.45614 0.44399 0.0775 0.0
C2999 C 0.4232 0.48215 0.01182 0.0
C3000 C 0.49181 0.51605 0.05647 0.0
C3001 C 0.50582 0.50655 0.04038 0.0
C3002 C 0.47023 0.50241 0.05797 0.0
C3003 C 0.4624 0.47853 0.04319 0.0
C3004 C 0.47657 0.4688 0.02716 0.0
C3005 C 0.49792 0.48274 0.02606 0.0
C3006 C 0.45583 0.51352 0.07544 0.0
C3007 C 0.46917 0.4435 0.01102 0.0
H3008 H 0.41515 0.41434 0.06953 0.0
H3009 H 0.38675 0.44785 0.01601 0.0
H3010 H 0.46904 0.43735 0.06707 0.0
H3011 H 0.46385 0.46255 0.08849 0.0
H3012 H 0.45081 0.43127 0.09011 0.0
H3013 H 0.40693 0.48219 1.00234 0.0
H3014 H 0.43085 0.50113 0.02183 0.0
H3015 H 0.43422 0.47709 0.99783 0.0
H3016 H 0.49765 0.53415 0.06792 0.0
H3017 H 0.50843 0.47481 0.01373 0.0
H3018 H 0.45158 0.50169 0.08906 0.0
H3019 H 0.44006 0.51427 0.06541 0.0
H3020 H 0.46404 0.53246 0.08525 0.0
H3021 H 0.46592 0.42925 0.02246 0.0
H3022 H 0.4817 0.43905 0.99867 0.0
H3023 H 0.45347 0.44228 0.99973 0.0
C3024 C 0.39234 0.63573 0.76796 0.0
C3025 C 0.41379 0.6395 0.7808 0.0
C3026 C 0.38014 0.65511 0.767 0.0
C3027 C 0.3885 0.68024 0.77954 0.0
C3028 C 0.41005 0.68418 0.79278 0.0
C3029 C 0.42207 0.6645 0.79313 0.0
C3030 C 0.35793 0.64849 0.75208 0.0
C3031 C 0.42061 0.70963 0.80701 0.0
C3032 C 0.36671 0.73559 0.75652 0.0
C3033 C 0.35141 0.74314 0.7727 0.0
C3034 C 0.37851 0.71629 0.75876 0.0
C3035 C 0.37555 0.70211 0.77762 0.0
C3036 C 0.35996 0.70931 0.79409 0.0
C3037 C 0.34873 0.7294 0.79181 0.0
C3038 C 0.39458 0.71113 0.74048 0.0
C3039 C 0.35484 0.69544 0.81438 0.0
H3040 H 0.38487 0.61721 0.75814 0.0
H3041 H 0.43819 0.66885 0.80351 0.0
H3042 H 0.3451 0.65345 0.76371 0.0
H3043 H 0.35838 0.65929 0.7373 0.0
H3044 H 0.35296 0.62853 0.74374 0.0
H3045 H 0.43725 0.71055 0.8162 0.0
H3046 H 0.42218 0.72314 0.79469 0.0
H3047 H 0.40987 0.71532 0.82106 0.0
H3048 H 0.36984 0.74522 0.74156 0.0
H3049 H 0.33772 0.73421 0.80518 0.0
H3050 H 0.38944 0.69172 0.73047 0.0
H3051 H 0.41129 0.71343 0.75012 0.0
H3052 H 0.39574 0.72353 0.72704 0.0
H3053 H 0.34706 0.67584 0.80647 0.0
H3054 H 0.34346 0.70324 0.82645 0.0
H3055 H 0.37038 0.69572 0.82551 0.0
C3056 C 0.22568 0.60025 0.52343 0.0
C3057 C 0.22874 0.61613 0.50665 0.0
C3058 C 0.20463 0.59155 0.53012 0.0
C3059 C 0.18638 0.59896 0.51976 0.0
C3060 C 0.1891 0.6133 0.50139 0.0
C3061 C 0.21027 0.62156 0.49491 0.0
C3062 C 0.20224 0.57585 0.54937 0.0
C3063 C 0.16974 0.62074 0.48926 0.0
C3064 C 0.12751 0.56538 0.51712 0.0
C3065 C 0.11916 0.58179 0.5339 0.0
C3066 C 0.14983 0.56986 0.5136 0.0
C3067 C 0.16413 0.59134 0.52729 0.0
C3068 C 0.15606 0.60741 0.54525 0.0
C3069 C 0.13336 0.60273 0.54794 0.0
C3070 C 0.15781 0.55253 0.49406 0.0
C3071 C 0.17119 0.63011 0.56064 0.0
H3072 H 0.23986 0.59586 0.53259 0.0
H3073 H 0.21249 0.63352 0.48167 0.0
H3074 H 0.20048 0.58754 0.56697 0.0
H3075 H 0.18728 0.56062 0.54463 0.0
H3076 H 0.21691 0.56781 0.55201 0.0
H3077 H 0.1747 0.63165 0.47504 0.0
H3078 H 0.1569 0.6041 0.48063 0.0
H3079 H 0.16205 0.63195 0.50317 0.0
H3080 H 0.11633 0.54979 0.50551 0.0
H3081 H 0.12669 0.61547 0.56069 0.0
H3082 H 0.17043 0.54434 0.50249 0.0
H3083 H 0.16579 0.56275 0.48059 0.0
H3084 H 0.14417 0.53744 0.48398 0.0
H3085 H 0.18598 0.6252 0.56893 0.0
H3086 H 0.1628 0.63916 0.57546 0.0
H3087 H 0.17705 0.64356 0.54892 0.0
C3088 C 0.73091 0.96784 0.71928 0.0
C3089 C 0.74008 0.99311 0.72673 0.0
C3090 C 0.74231 0.95054 0.72569 0.0
C3091 C 0.76252 0.95905 0.74092 0.0
C3092 C 0.77288 0.98446 0.74607 0.0
C3093 C 0.76175 1.00117 0.73814 0.0
C3094 C 0.7315 0.92344 0.71869 0.0
C3095 C 0.794 0.99448 0.76309 0.0
C3096 C 0.77184 0.9309 0.79549 0.0
C3097 C 0.79102 0.92239 0.79058 0.0
C3098 C 0.76148 0.94154 0.77866 0.0
C3099 C 0.77018 0.94291 0.75601 0.0
C3100 C 0.7882 0.93216 0.74992 0.0
C3101 C 0.79868 0.92227 0.76748 0.0
C3102 C 0.74237 0.95307 0.78601 0.0
C3103 C 0.79726 0.93252 0.72555 0.0
H3104 H 0.71419 0.96169 0.71022 0.0
H3105 H 0.76883 0.02077 0.74395 0.0
H3106 H 0.74406 0.91213 0.71544 0.0
H3107 H 0.72226 0.91763 0.73375 0.0
H3108 H 0.7196 0.91954 0.70203 0.0
H3109 H 0.80092 0.01431 0.76327 0.0
H3110 H 0.79058 0.99252 0.78197 0.0
H3111 H 0.80674 0.98395 0.75788 0.0
H3112 H 0.76546 0.93018 0.813 0.0
H3113 H 0.81346 0.91557 0.76351 0.0
H3114 H 0.72788 0.94582 0.77209 0.0
H3115 H 0.74717 0.97335 0.78725 0.0
H3116 H 0.7372 0.9495 0.80393 0.0
H3117 H 0.78361 0.9283 0.71057 0.0
H3118 H 0.80798 0.91907 0.7217 0.0
H3119 H 0.80728 0.9512 0.72548 0.0
C3120 C 0.75452 0.91375 0.53502 0.0
C3121 C 0.77606 0.92851 0.5405 0.0
C3122 C 0.73608 0.92435 0.53242 0.0
C3123 C 0.73931 0.95028 0.53474 0.0
C3124 C 0.76092 0.96528 0.54126 0.0
C3125 C 0.77896 0.95424 0.54428 0.0
C3126 C 0.71332 0.90768 0.52598 0.0
C3127 C 0.7652 0.99297 0.54361 0.0
C3128 C 0.70203 0.97829 0.49708 0.0
C3129 C 0.69106 0.99034 0.51497 0.0
C3130 C 0.71694 0.96419 0.50312 0.0
C3131 C 0.7208 0.96169 0.52768 0.0
C3132 C 0.70848 0.97221 0.54554 0.0
C3133 C 0.69375 0.98649 0.53898 0.0
C3134 C 0.72955 0.95321 0.48341 0.0
C3135 C 0.71157 0.96922 0.57172 0.0
H3136 H 0.7521 0.89383 0.53217 0.0
H3137 H 0.79552 0.96579 0.54846 0.0
H3138 H 0.70085 0.91582 0.53592 0.0
H3139 H 0.70838 0.90537 0.50616 0.0
H3140 H 0.71291 0.88911 0.53022 0.0
H3141 H 0.78274 1.00213 0.55007 0.0
H3142 H 0.76103 0.9975 0.5256 0.0
H3143 H 0.75448 1.0008 0.55651 0.0
H3144 H 0.69953 0.98063 0.47836 0.0
H3145 H 0.68519 0.99559 0.55288 0.0
H3146 H 0.72757 0.93313 0.48277 0.0
H3147 H 0.74747 0.96182 0.48761 0.0
H3148 H 0.72396 0.95601 0.46506 0.0
H3149 H 0.7091 0.94934 0.57251 0.0
H3150 H 0.69992 0.97738 0.58312 0.0
H3151 H 0.72874 0.97822 0.57975 0.0
C3152 C 0.42187 0.47992 0.79436 0.0
C3153 C 0.41697 0.49752 0.78088 0.0
C3154 C 0.40791 0.45601 0.79258 0.0
C3155 C 0.38808 0.44807 0.77633 0.0
C3156 C 0.38279 0.46572 0.76268 0.0
C3157 C 0.39692 0.48997 0.76528 0.0
C3158 C 0.4147 0.43905 0.80822 0.0
C3159 C 0.3623 0.45874 0.74475 0.0
C3160 C 0.36621 0.37604 0.75702 0.0
C3161 C 0.34802 0.37066 0.77059 0.0
C3162 C 0.37842 0.40074 0.75781 0.0
C3163 C 0.37348 0.42139 0.77352 0.0
C3164 C 0.3553 0.41595 0.78758 0.0
C3165 C 0.34276 0.39116 0.78563 0.0
C3166 C 0.3969 0.40467 0.74176 0.0
C3167 C 0.34955 0.43633 0.80559 0.0
H3168 H 0.43702 0.48487 0.80663 0.0
H3169 H 0.39257 0.5027 0.75441 0.0
H3170 H 0.40065 0.43138 0.81793 0.0
H3171 H 0.41935 0.42329 0.79649 0.0
H3172 H 0.42899 0.44859 0.82193 0.0
H3173 H 0.36105 0.47332 0.7341 0.0
H3174 H 0.36223 0.44129 0.73191 0.0
H3175 H 0.34739 0.45538 0.75464 0.0
H3176 H 0.37088 0.36078 0.74546 0.0
H3177 H 0.32928 0.3877 0.79681 0.0
H3178 H 0.41305 0.41055 0.75319 0.0
H3179 H 0.39532 0.4196 0.7317 0.0
H3180 H 0.39705 0.38765 0.72835 0.0
H3181 H 0.36393 0.44494 0.81945 0.0
H3182 H 0.33504 0.42956 0.81511 0.0
H3183 H 0.34594 0.45097 0.79614 0.0
C3184 C 0.24746 0.62165 0.25266 0.0
C3185 C 0.23188 0.62282 0.26976 0.0
C3186 C 0.26184 0.643 0.24936 0.0
C3187 C 0.26078 0.66566 0.26394 0.0
C3188 C 0.24637 0.66672 0.28257 0.0
C3189 C 0.23184 0.64517 0.28508 0.0
C3190 C 0.277 0.64155 0.2293 0.0
C3191 C 0.24518 0.69085 0.2987 0.0
C3192 C 0.29972 0.72647 0.27243 0.0
C3193 C 0.2859 0.73917 0.26165 0.0
C3194 C 0.29297 0.70115 0.271 0.0
C3195 C 0.27232 0.68878 0.25799 0.0
C3196 C 0.26 0.70111 0.24418 0.0
C3197 C 0.26653 0.72661 0.24705 0.0
C3198 C 0.30635 0.68864 0.28621 0.0
C3199 C 0.2386 0.68796 0.22879 0.0
H3200 H 0.24763 0.60427 0.24082 0.0
H3201 H 0.22002 0.64593 0.29849 0.0
H3202 H 0.27292 0.65262 0.21582 0.0
H3203 H 0.29443 0.64955 0.23697 0.0
H3204 H 0.27573 0.62229 0.21956 0.0
H3205 H 0.23526 0.68796 0.31419 0.0
H3206 H 0.262 0.70171 0.30617 0.0
H3207 H 0.2374 0.70204 0.28776 0.0
H3208 H 0.31477 0.73659 0.28377 0.0
H3209 H 0.25619 0.73681 0.23862 0.0
H3210 H 0.30545 0.66924 0.27731 0.0
H3211 H 0.29956 0.68846 0.30406 0.0
H3212 H 0.32399 0.69864 0.28975 0.0
H3213 H 0.23979 0.66947 0.21898 0.0
H3214 H 0.23406 0.69872 0.21518 0.0
H3215 H 0.22509 0.68538 0.24077 0.0
C3216 C 0.55474 0.71271 0.47128 0.0
C3217 C 0.53249 0.71282 0.46446 0.0
C3218 C 0.56094 0.69232 0.47969 0.0
C3219 C 0.54473 0.67069 0.48077 0.0
C3220 C 0.52228 0.67064 0.47352 0.0
C3221 C 0.51649 0.69161 0.46607 0.0
C3222 C 0.58495 0.69409 0.48781 0.0
C3223 C 0.50421 0.64824 0.47356 0.0
C3224 C 0.56047 0.60701 0.47595 0.0
C3225 C 0.56018 0.60227 0.49985 0.0
C3226 C 0.55635 0.62917 0.4699 0.0
C3227 C 0.55119 0.64768 0.48795 0.0
C3228 C 0.55137 0.64335 0.51239 0.0
C3229 C 0.5559 0.62095 0.51804 0.0
C3230 C 0.55682 0.63236 0.44372 0.0
C3231 C 0.54633 0.66226 0.53259 0.0
H3232 H 0.56735 0.72901 0.47082 0.0
H3233 H 0.49924 0.69132 0.46125 0.0
H3234 H 0.5867 0.69094 0.5068 0.0
H3235 H 0.59117 0.67948 0.4761 0.0
H3236 H 0.59552 0.71234 0.48706 0.0
H3237 H 0.48767 0.65062 0.46702 0.0
H3238 H 0.50777 0.63182 0.46171 0.0
H3239 H 0.50369 0.64436 0.4923 0.0
H3240 H 0.56365 0.59292 0.46159 0.0
H3241 H 0.55528 0.61771 0.53653 0.0
H3242 H 0.56833 0.64993 0.44272 0.0
H3243 H 0.54012 0.63339 0.43624 0.0
H3244 H 0.56205 0.61697 0.43196 0.0
H3245 H 0.55885 0.67982 0.53461 0.0
H3246 H 0.5463 0.6561 0.55038 0.0
H3247 H 0.52996 0.66619 0.52794 0.0
C3248 C 0.69115 0.34234 0.65323 0.0
C3249 C 0.66921 0.32958 0.65382 0.0
C3250 C 0.70899 0.34028 0.66938 0.0
C3251 C 0.70543 0.32417 0.68631 0.0
C3252 C 0.68325 0.31131 0.68717 0.0
C3253 C 0.66552 0.3145 0.67138 0.0
C3254 C 0.73186 0.35513 0.6679 0.0
C3255 C 0.67828 0.2934 0.70418 0.0
C3256 C 0.75727 0.30102 0.70592 0.0
C3257 C 0.76359 0.31363 0.7303 0.0
C3258 C 0.738 0.30329 0.69216 0.0
C3259 C 0.72504 0.32 0.70197 0.0
C3260 C 0.73184 0.33364 0.72618 0.0
C3261 C 0.75064 0.33011 0.73994 0.0
C3262 C 0.73148 0.28752 0.66696 0.0
C3263 C 0.71971 0.35271 0.73738 0.0
H3264 H 0.69449 0.35403 0.63987 0.0
H3265 H 0.64885 0.30419 0.67201 0.0
H3266 H 0.74025 0.36376 0.68645 0.0
H3267 H 0.74201 0.34279 0.65898 0.0
H3268 H 0.73146 0.36986 0.6572 0.0
H3269 H 0.6607 0.2832 0.70132 0.0
H3270 H 0.68901 0.27986 0.7015 0.0
H3271 H 0.68198 0.30345 0.7234 0.0
H3272 H 0.76722 0.28898 0.6974 0.0
H3273 H 0.75564 0.34104 0.75809 0.0
H3274 H 0.73523 0.29909 0.65304 0.0
H3275 H 0.71343 0.27932 0.66426 0.0
H3276 H 0.7405 0.27236 0.66368 0.0
H3277 H 0.72192 0.36802 0.72713 0.0
H3278 H 0.7258 0.36046 0.75689 0.0
H3279 H 0.70172 0.34466 0.736 0.0
C3280 C 0.02513 0.35486 0.97959 0.0
C3281 C 0.03546 0.3467 0.95898 0.0
C3282 C 0.02783 0.38047 0.98958 0.0
C3283 C 0.04182 0.39857 0.97938 0.0
C3284 C 0.05308 0.39021 0.95936 0.0
C3285 C 0.04944 0.36473 0.94923 0.0
C3286 C 0.01532 0.3882 0.01074 0.0
C3287 C 0.06919 0.40824 0.94853 0.0
C3288 C 0.03669 0.46538 0.98002 0.0
C3289 C 0.05149 0.47927 1.00004 0.0
C3290 C 0.03177 0.43927 0.97495 0.0
C3291 C 0.04387 0.4262 0.98828 0.0
C3292 C 0.05943 0.44018 0.00821 0.0
C3293 C 0.06248 0.46631 0.01428 0.0
C3294 C 0.01398 0.42567 0.95466 0.0
C3295 C 0.07371 0.42789 0.02261 0.0
H3296 H 0.0144 0.34126 0.98747 0.0
H3297 H 0.05791 0.35888 0.93364 0.0
H3298 H 0.02715 0.39789 0.02689 0.0
H3299 H 1.00541 0.40137 1.00616 0.0
H3300 H 1.0041 0.37221 0.01576 0.0
H3301 H 0.07871 0.3988 0.93521 0.0
H3302 H 0.06015 0.41948 0.93904 0.0
H3303 H 0.08103 0.4211 0.96323 0.0
H3304 H 0.02905 0.47501 0.96793 0.0
H3305 H 0.07478 0.47676 0.02907 0.0
H3306 H 1.00306 0.41009 0.96063 0.0
H3307 H 0.02162 0.41784 0.9386 0.0
H3308 H 1.00365 0.43796 0.94887 0.0
H3309 H 0.06439 0.42074 0.03704 0.0
H3310 H 0.08907 0.44113 0.03169 0.0
H3311 H 0.07839 0.41215 0.01084 0.0
C3312 C 0.0461 0.81395 0.17571 0.0
C3313 C 0.04584 0.81417 0.15064 0.0
C3314 C 0.02639 0.80983 0.18698 0.0
C3315 C 1.00563 0.80556 0.17292 0.0
C3316 C 1.00523 0.80622 0.14765 0.0
C3317 C 0.02529 0.81062 0.13686 0.0
C3318 C 0.02779 0.80953 0.21396 0.0
C3319 C 0.98358 0.80197 0.13196 0.0
C3320 C 0.95866 0.76733 0.19981 0.0
C3321 C 0.94924 0.78545 0.21308 0.0
C3322 C 0.9761 0.77354 0.1856 0.0
C3323 C 0.98459 0.7986 0.18453 0.0
C3324 C 0.97422 0.81687 0.19662 0.0
C3325 C 0.95665 0.81009 0.21071 0.0
C3326 C 0.98626 0.75331 0.17283 0.0
C3327 C 0.9825 0.84378 0.19588 0.0
H3328 H 0.06183 0.81693 0.18665 0.0
H3329 H 0.02485 0.81094 0.11752 0.0
H3330 H 0.01871 0.8228 0.22343 0.0
H3331 H 0.01982 0.79092 0.21685 0.0
H3332 H 0.04515 0.81433 0.22259 0.0
H3333 H 0.98598 0.80275 0.11258 0.0
H3334 H 0.97311 0.7837 0.13271 0.0
H3335 H 0.97435 0.81612 0.13908 0.0
H3336 H 0.95285 0.74822 0.20126 0.0
H3337 H 0.94956 0.82425 0.22093 0.0
H3338 H 1.00333 0.75549 0.18147 0.0
H3339 H 0.98743 0.75461 0.15339 0.0
H3340 H 0.97661 0.73462 0.17368 0.0
H3341 H 0.99852 0.85095 0.20746 0.0
H3342 H 0.97069 0.8551 0.20269 0.0
H3343 H 0.98547 0.84617 0.17703 0.0
C3344 C 0.54275 0.32126 0.1217 0.0
C3345 C 0.52358 0.32189 0.13329 0.0
C3346 C 0.54959 0.33763 0.10632 0.0
C3347 C 0.53644 0.3544 0.10198 0.0
C3348 C 0.5172 0.35541 0.11405 0.0
C3349 C 0.51111 0.3392 0.12995 0.0
C3350 C 0.57048 0.33644 0.09414 0.0
C3351 C 0.50255 0.37269 0.10926 0.0
C3352 C 0.56472 0.40702 0.07419 0.0
C3353 C 0.5584 0.39751 0.04923 0.0
C3354 C 0.55698 0.39354 0.09175 0.0
C3355 C 0.54258 0.37011 0.08403 0.0
C3356 C 0.5357 0.36068 0.0589 0.0
C3357 C 0.54385 0.37451 0.04172 0.0
C3358 C 0.5648 0.40394 0.11841 0.0
C3359 C 0.52019 0.33578 0.05013 0.0
H3360 H 0.55223 0.30772 0.12434 0.0
H3361 H 0.49604 0.33914 0.13874 0.0
H3362 H 0.56637 0.33062 0.07407 0.0
H3363 H 0.58176 0.35498 0.09766 0.0
H3364 H 0.57944 0.32329 0.10066 0.0
H3365 H 0.48863 0.37176 0.12082 0.0
H3366 H 0.51235 0.39198 0.11269 0.0
H3367 H 0.49563 0.36793 0.08979 0.0
H3368 H 0.57601 0.42489 0.07994 0.0
H3369 H 0.53868 0.36748 0.02243 0.0
H3370 H 0.5752 0.39235 0.12543 0.0
H3371 H 0.5505 0.4035 0.12934 0.0
H3372 H 0.57464 0.42323 0.12147 0.0
H3373 H 0.52877 0.32102 0.05325 0.0
H3374 H 0.51441 0.33254 0.03038 0.0
H3375 H 0.50555 0.33409 0.06061 0.0
C3376 C 0.03903 0.34348 0.38958 0.0
C3377 C 0.05843 0.34112 0.37879 0.0
C3378 C 0.01968 0.34353 0.37533 0.0
C3379 C 0.01989 0.34133 0.34978 0.0
C3380 C 0.03926 0.33846 0.3387 0.0
C3381 C 0.05831 0.3383 0.35336 0.0
C3382 C 0.99916 0.34638 0.38762 0.0
C3383 C 0.04002 0.33623 0.31147 0.0
C3384 C 0.96591 0.32327 0.309 0.0
C3385 C 0.96329 0.34629 0.30471 0.0
C3386 C 0.98417 0.32136 0.32394 0.0
C3387 C 1.00011 0.34301 0.33467 0.0
C3388 C 0.99749 0.36631 0.33054 0.0
C3389 C 0.97905 0.36767 0.31555 0.0
C3390 C 0.98656 0.29623 0.32798 0.0
C3391 C 0.01423 0.38976 0.34182 0.0
H3392 H 0.03897 0.34547 0.40921 0.0
H3393 H 0.07326 0.33654 0.34488 0.0
H3394 H 0.99417 0.36338 0.38428 0.0
H3395 H 0.98523 0.33058 0.37972 0.0
H3396 H 1.00166 0.34743 0.40765 0.0
H3397 H 0.05619 0.33325 0.30565 0.0
H3398 H 0.02675 0.32065 0.30151 0.0
H3399 H 0.03701 0.35327 0.3059 0.0
H3400 H 0.9538 0.30668 0.3004 0.0
H3401 H 0.97683 0.38549 0.31249 0.0
H3402 H 0.98831 0.2961 0.34782 0.0
H3403 H 1.00179 0.29197 0.32062 0.0
H3404 H 0.9722 0.28134 0.31908 0.0
H3405 H 0.01607 0.3919 0.362 0.0
H3406 H 1.00951 0.40643 0.33709 0.0
H3407 H 0.03066 0.38878 0.33552 0.0
C3408 C 0.01129 0.68496 0.64365 0.0
C3409 C 0.99702 0.69457 0.62962 0.0
C3410 C 0.01587 0.66205 0.6347 0.0
C3411 C 1.00506 0.64845 0.61189 0.0
C3412 C 0.98758 0.65613 0.60017 0.0
C3413 C 0.98412 0.67966 0.6089 0.0
C3414 C 0.03491 0.65466 0.64746 0.0
C3415 C 0.97493 0.64122 0.5765 0.0
C3416 C 0.04281 0.62386 0.5688 0.0
C3417 C 0.03899 0.59938 0.57145 0.0
C3418 C 0.03173 0.64005 0.582 0.0
C3419 C 0.016 0.63099 0.59741 0.0
C3420 C 0.01159 0.60589 0.59939 0.0
C3421 C 0.02355 0.59035 0.58659 0.0
C3422 C 0.0371 0.66686 0.5796 0.0
C3423 C 0.99452 0.59546 0.61503 0.0
H3424 H 0.02124 0.69675 0.65971 0.0
H3425 H 0.97292 0.68723 0.59832 0.0
H3426 H 0.03118 0.63456 0.64723 0.0
H3427 H 0.04981 0.65897 0.63769 0.0
H3428 H 0.03895 0.66475 0.6667 0.0
H3429 H 0.9588 0.6463 0.57317 0.0
H3430 H 0.98474 0.64482 0.56112 0.0
H3431 H 0.97196 0.62115 0.57655 0.0
H3432 H 0.05474 0.63036 0.55677 0.0
H3433 H 0.02054 0.57106 0.58803 0.0
H3434 H 0.04218 0.67896 0.59787 0.0
H3435 H 0.02222 0.6718 0.5716 0.0
H3436 H 0.0506 0.6709 0.56782 0.0
H3437 H 1.00178 0.59974 0.63435 0.0
H3438 H 0.98902 0.57507 0.60946 0.0
H3439 H 0.97983 0.60372 0.61409 0.0
C3440 C 0.67747 0.83818 0.83656 0.0
C3441 C 0.67137 0.82235 0.85267 0.0
C3442 C 0.69624 0.83714 0.82429 0.0
C3443 C 0.70832 0.81905 0.82759 0.0
C3444 C 0.70187 0.8029 0.84386 0.0
C3445 C 0.68348 0.80496 0.85643 0.0
C3446 C 0.70373 0.85614 0.80887 0.0
C3447 C 0.71398 0.78323 0.84804 0.0
C3448 C 0.74622 0.80711 0.77873 0.0
C3449 C 0.76687 0.81684 0.79211 0.0
C3450 C 0.72686 0.80643 0.79042 0.0
C3451 C 0.72844 0.81823 0.8152 0.0
C3452 C 0.74928 0.83021 0.82804 0.0
C3453 C 0.7683 0.82859 0.81654 0.0
C3454 C 0.70493 0.79247 0.7766 0.0
C3455 C 0.75154 0.84479 0.85384 0.0
H3456 H 0.66813 0.85208 0.83446 0.0
H3457 H 0.67855 0.79303 0.86927 0.0
H3458 H 0.72138 0.86537 0.81447 0.0
H3459 H 0.7024 0.84709 0.78941 0.0
H3460 H 0.69377 0.87048 0.81041 0.0
H3461 H 0.7109 0.77741 0.8657 0.0
H3462 H 0.70775 0.76688 0.83328 0.0
H3463 H 0.73206 0.78944 0.84782 0.0
H3464 H 0.74527 0.79937 0.75946 0.0
H3465 H 0.78431 0.83683 0.82664 0.0
H3466 H 0.69327 0.80485 0.77606 0.0
H3467 H 0.69733 0.77773 0.7862 0.0
H3468 H 0.70668 0.78395 0.75755 0.0
H3469 H 0.74072 0.85826 0.85501 0.0
H3470 H 0.76884 0.85501 0.86018 0.0
H3471 H 0.74616 0.83223 0.86652 0.0
C3472 C 0.48107 0.58743 0.69795 0.0
C3473 C 0.48172 0.56958 0.71285 0.0
C3474 C 0.49157 0.58701 0.67531 0.0
C3475 C 0.50342 0.56837 0.6663 0.0
C3476 C 0.50375 0.55033 0.68112 0.0
C3477 C 0.49327 0.55116 0.70332 0.0
C3478 C 0.49019 0.60697 0.66105 0.0
C3479 C 0.51563 0.52985 0.67364 0.0
C3480 C 0.51516 0.55007 0.59693 0.0
C3481 C 0.53797 0.56043 0.59614 0.0
C3482 C 0.50397 0.55302 0.61878 0.0
C3483 C 0.51513 0.567 0.64173 0.0
C3484 C 0.5381 0.57781 0.64106 0.0
C3485 C 0.54894 0.57446 0.6189 0.0
C3486 C 0.47985 0.54064 0.61726 0.0
C3487 C 0.5515 0.5931 0.66409 0.0
H3488 H 0.47285 0.6022 0.70419 0.0
H3489 H 0.49443 0.53686 0.71363 0.0
H3490 H 0.50707 0.61641 0.65812 0.0
H3491 H 0.48111 0.59861 0.64277 0.0
H3492 H 0.48167 0.6209 0.67041 0.0
H3493 H 0.51442 0.51686 0.68651 0.0
H3494 H 0.50866 0.51928 0.65514 0.0
H3495 H 0.53339 0.53779 0.6727 0.0
H3496 H 0.50578 0.53916 0.58019 0.0
H3497 H 0.56628 0.58297 0.61959 0.0
H3498 H 0.47015 0.55449 0.62386 0.0
H3499 H 0.47769 0.52688 0.62931 0.0
H3500 H 0.47294 0.53115 0.59837 0.0
H3501 H 0.54374 0.60858 0.67129 0.0
H3502 H 0.56886 0.60079 0.6611 0.0
H3503 H 0.55165 0.5817 0.67831 0.0
C3504 C 0.79053 0.15402 0.94655 0.0
C3505 C 0.79916 0.1682 0.96955 0.0
C3506 C 0.78288 0.16535 0.92828 0.0
C3507 C 0.78348 0.19098 0.93374 0.0
C3508 C 0.79268 0.20529 0.95683 0.0
C3509 C 0.80106 0.19382 0.97407 0.0
C3510 C 0.77389 0.15003 0.90337 0.0
C3511 C 0.79302 0.23257 0.96375 0.0
C3512 C 0.78448 0.23484 0.89109 0.0
C3513 C 0.76294 0.23899 0.89127 0.0
C3514 C 0.79068 0.217 0.90266 0.0
C3515 C 0.77522 0.20366 0.91551 0.0
C3516 C 0.75321 0.20692 0.91501 0.0
C3517 C 0.74724 0.22443 0.90258 0.0
C3518 C 0.81438 0.21414 0.90309 0.0
C3519 C 0.73657 0.19359 0.92937 0.0
H3520 H 0.78897 0.1342 0.94321 0.0
H3521 H 0.80802 0.20487 0.99185 0.0
H3522 H 0.75681 0.15193 0.89854 0.0
H3523 H 0.78417 0.15689 0.88947 0.0
H3524 H 0.77375 0.13016 0.90237 0.0
H3525 H 0.79949 0.24044 0.98314 0.0
H3526 H 0.80351 0.24297 0.95207 0.0
H3527 H 0.77607 0.23571 0.9608 0.0
H3528 H 0.79697 0.24639 0.88298 0.0
H3529 H 0.73052 0.22733 0.90249 0.0
H3530 H 0.81509 0.19439 0.90069 0.0
H3531 H 0.82356 0.2237 0.92105 0.0
H3532 H 0.82303 0.22221 0.88865 0.0
H3533 H 0.7364 0.1736 0.926 0.0
H3534 H 0.71957 0.19599 0.92479 0.0
H3535 H 0.74135 0.2009 0.94919 0.0
C3536 C 0.13491 0.53562 0.19196 0.0
C3537 C 0.15802 0.54037 0.19363 0.0
C3538 C 0.12257 0.53084 0.16951 0.0
C3539 C 0.13375 0.53035 0.14836 0.0
C3540 C 0.15694 0.53304 0.1496 0.0
C3541 C 0.169 0.53815 0.17254 0.0
C3542 C 0.09781 0.52878 0.16871 0.0
C3543 C 0.16907 0.53257 0.12703 0.0
C3544 C 0.09392 0.51114 0.09198 0.0
C3545 C 0.09152 0.53424 0.08838 0.0
C3546 C 0.10899 0.50948 0.11081 0.0
C3547 C 0.12129 0.53149 0.12595 0.0
C3548 C 0.11874 0.5549 0.1222 0.0
C3549 C 0.10355 0.55593 0.10345 0.0
C3550 C 0.11172 0.48444 0.11465 0.0
C3551 C 0.13157 0.57876 0.13824 0.0
H3552 H 0.12641 0.53667 0.20832 0.0
H3553 H 0.18691 0.54157 0.17397 0.0
H3554 H 0.09369 0.54547 0.16337 0.0
H3555 H 0.08882 0.51257 0.15489 0.0
H3556 H 0.0916 0.52712 0.18665 0.0
H3557 H 0.18595 0.52934 0.13049 0.0
H3558 H 0.15978 0.51807 0.11169 0.0
H3559 H 0.17071 0.55059 0.12118 0.0
H3560 H 0.08487 0.49462 0.07946 0.0
H3561 H 0.10155 0.57371 0.09995 0.0
H3562 H 0.10592 0.48118 0.13238 0.0
H3563 H 0.12947 0.48373 0.11547 0.0
H3564 H 0.10227 0.4693 0.09991 0.0
H3565 H 0.12627 0.58019 0.15691 0.0
H3566 H 0.12903 0.59526 0.13112 0.0
H3567 H 0.14953 0.57913 0.13979 0.0
C3568 C 0.84733 0.86034 0.46205 0.0
C3569 C 0.8292 0.86971 0.46978 0.0
C3570 C 0.84753 0.84908 0.43743 0.0
C3571 C 0.82886 0.84643 0.42032 0.0
C3572 C 0.81025 0.85529 0.4284 0.0
C3573 C 0.81085 0.86723 0.45286 0.0
C3574 C 0.86802 0.84083 0.42956 0.0
C3575 C 0.78956 0.8519 0.41128 0.0
C3576 C 0.83058 0.83696 0.35104 0.0
C3577 C 0.82371 0.81124 0.34389 0.0
C3578 C 0.83376 0.8485 0.37593 0.0
C3579 C 0.82849 0.83418 0.39408 0.0
C3580 C 0.82132 0.8082 0.38683 0.0
C3581 C 0.81932 0.79709 0.36195 0.0
C3582 C 0.84216 0.87612 0.38274 0.0
C3583 C 0.81471 0.79217 0.40524 0.0
H3584 H 0.8616 0.86246 0.47511 0.0
H3585 H 0.79675 0.87432 0.45891 0.0
H3586 H 0.86377 0.82161 0.419 0.0
H3587 H 0.87591 0.85279 0.41737 0.0
H3588 H 0.88026 0.84196 0.44534 0.0
H3589 H 0.77615 0.85871 0.42067 0.0
H3590 H 0.79332 0.86192 0.39617 0.0
H3591 H 0.78339 0.83206 0.40296 0.0
H3592 H 0.83299 0.84814 0.33714 0.0
H3593 H 0.81329 0.77728 0.35643 0.0
H3594 H 0.85591 0.88084 0.39765 0.0
H3595 H 0.82874 0.88488 0.38958 0.0
H3596 H 0.8481 0.88414 0.36697 0.0
H3597 H 0.82912 0.7936 0.41861 0.0
H3598 H 0.80838 0.77245 0.39651 0.0
H3599 H 0.80168 0.79866 0.41559 0.0
C3600 C 0.49561 0.56623 0.84845 0.0
C3601 C 0.47556 0.57474 0.84849 0.0
C3602 C 0.50722 0.56196 0.87006 0.0
C3603 C 0.49957 0.56655 0.89375 0.0
C3604 C 0.47956 0.57561 0.894 0.0
C3605 C 0.46798 0.5792 0.87197 0.0
C3606 C 0.52783 0.55202 0.86735 0.0
C3607 C 0.47041 0.58214 0.91798 0.0
C3608 C 0.51424 0.53501 0.94937 0.0
C3609 C 0.53354 0.55078 0.96324 0.0
C3610 C 0.50443 0.53901 0.9267 0.0
C3611 C 0.51179 0.56117 0.91763 0.0
C3612 C 0.53056 0.57806 0.93225 0.0
C3613 C 0.54118 0.57255 0.95393 0.0
C3614 C 0.48564 0.51915 0.91255 0.0
C3615 C 0.53927 0.60272 0.92558 0.0
H3616 H 0.50232 0.56253 0.83113 0.0
H3617 H 0.4529 0.58593 0.87333 0.0
H3618 H 0.54218 0.56547 0.87825 0.0
H3619 H 0.526 0.5347 0.87456 0.0
H3620 H 0.5315 0.54826 0.84804 0.0
H3621 H 0.4562 0.59107 0.91613 0.0
H3622 H 0.46483 0.56525 0.92547 0.0
H3623 H 0.48356 0.59478 0.93145 0.0
H3624 H 0.50602 0.51944 0.95659 0.0
H3625 H 0.55495 0.58622 0.96444 0.0
H3626 H 0.48749 0.51636 0.8927 0.0
H3627 H 0.46974 0.52474 0.91525 0.0
H3628 H 0.48476 0.50127 0.91854 0.0
H3629 H 0.55048 0.60045 0.91111 0.0
H3630 H 0.54881 0.61634 0.94149 0.0
H3631 H 0.5256 0.61033 0.91844 0.0
C3632 C 0.79778 0.21533 0.0952 0.0
C3633 C 0.79153 0.18957 0.09054 0.0
C3634 C 0.7981 0.22893 0.11838 0.0
C3635 C 0.79252 0.21631 0.13749 0.0
C3636 C 0.78678 0.19019 0.13323 0.0
C3637 C 0.78634 0.1769 0.10945 0.0
C3638 C 0.80453 0.25682 0.12236 0.0
C3639 C 0.78089 0.17651 0.15361 0.0
C3640 C 0.8193 0.25694 0.196 0.0
C3641 C 0.8023 0.26839 0.20342 0.0
C3642 C 0.81582 0.23842 0.1753 0.0
C3643 C 0.79466 0.23108 0.16206 0.0
C3644 C 0.77704 0.24174 0.17009 0.0
C3645 C 0.78111 0.26039 0.19095 0.0
C3646 C 0.83496 0.22731 0.16719 0.0
C3647 C 0.75424 0.23405 0.15625 0.0
H3648 H 0.80211 0.22496 0.08043 0.0
H3649 H 0.78135 0.15692 0.10553 0.0
H3650 H 0.79136 0.26497 0.13076 0.0
H3651 H 0.8199 0.26382 0.13508 0.0
H3652 H 0.8074 0.26355 0.10509 0.0
H3653 H 0.77745 0.15617 0.14731 0.0
H3654 H 0.79456 0.182 0.16865 0.0
H3655 H 0.76606 0.18152 0.16132 0.0
H3656 H 0.83502 0.26145 0.20702 0.0
H3657 H 0.76771 0.26837 0.19783 0.0
H3658 H 0.83978 0.23284 0.14988 0.0
H3659 H 0.83003 0.20687 0.16359 0.0
H3660 H 0.8497 0.2334 0.18096 0.0
H3661 H 0.75465 0.24086 0.13882 0.0
H3662 H 0.74175 0.24154 0.16681 0.0
H3663 H 0.74889 0.21364 0.1516 0.0
C3664 C 0.19938 0.56188 0.33385 0.0
C3665 C 0.186 0.54925 0.31247 0.0
C3666 C 0.18961 0.57041 0.35473 0.0
C3667 C 0.16624 0.56639 0.35357 0.0
C3668 C 0.15286 0.5534 0.33196 0.0
C3669 C 0.16293 0.54447 0.31199 0.0
C3670 C 0.20411 0.58366 0.37786 0.0
C3671 C 0.12783 0.54902 0.32968 0.0
C3672 C 0.12877 0.5579 0.40154 0.0
C3673 C 0.11971 0.57887 0.40279 0.0
C3674 C 0.14655 0.55528 0.38818 0.0
C3675 C 0.15497 0.57369 0.37506 0.0
C3676 C 0.14717 0.59579 0.37772 0.0
C3677 C 0.12952 0.59815 0.39168 0.0
C3678 C 0.1542 0.53127 0.38549 0.0
C3679 C 0.15571 0.61566 0.36368 0.0
H3680 H 0.21723 0.56577 0.33397 0.0
H3681 H 0.15258 0.5345 0.29542 0.0
H3682 H 0.19908 0.60098 0.38548 0.0
H3683 H 0.20207 0.57182 0.39177 0.0
H3684 H 0.22188 0.58813 0.37485 0.0
H3685 H 0.12017 0.54004 0.31089 0.0
H3686 H 0.12106 0.53704 0.34237 0.0
H3687 H 0.12263 0.56676 0.33464 0.0
H3688 H 0.12106 0.54264 0.40966 0.0
H3689 H 0.12281 0.61455 0.393 0.0
H3690 H 0.17238 0.53449 0.38498 0.0
H3691 H 0.14628 0.51898 0.36805 0.0
H3692 H 0.14962 0.52146 0.4006 0.0
H3693 H 0.17393 0.61868 0.36359 0.0
H3694 H 0.15141 0.63341 0.3714 0.0
H3695 H 0.14823 0.60974 0.34442 0.0
C3696 C 0.83205 0.88006 0.61922 0.0
C3697 C 0.82155 0.86473 0.59731 0.0
C3698 C 0.82885 0.87283 0.64186 0.0
C3699 C 0.81421 0.85014 0.64267 0.0
C3700 C 0.80247 0.83543 0.62065 0.0
C3701 C 0.80664 0.84264 0.59824 0.0
C3702 C 0.84207 0.88881 0.66476 0.0
C3703 C 0.78594 0.81172 0.62069 0.0
C3704 C 0.82521 0.81617 0.69378 0.0
C3705 C 0.81164 0.8242 0.71107 0.0
C3706 C 0.82634 0.82469 0.67167 0.0
C3707 C 0.81274 0.84076 0.66614 0.0
C3708 C 0.79823 0.84804 0.68323 0.0
C3709 C 0.79828 0.84016 0.70579 0.0
C3710 C 0.84257 0.81698 0.65454 0.0
C3711 C 0.78274 0.86425 0.67788 0.0
H3712 H 0.84373 0.89703 0.61853 0.0
H3713 H 0.79843 0.8308 0.58131 0.0
H3714 H 0.83082 0.89399 0.67839 0.0
H3715 H 0.85277 0.87827 0.67307 0.0
H3716 H 0.85268 0.90594 0.66116 0.0
H3717 H 0.77627 0.804 0.60257 0.0
H3718 H 0.79467 0.79775 0.62569 0.0
H3719 H 0.7743 0.81488 0.63455 0.0
H3720 H 0.83551 0.80378 0.69792 0.0
H3721 H 0.78763 0.84615 0.71914 0.0
H3722 H 0.85393 0.83358 0.65088 0.0
H3723 H 0.83362 0.8065 0.6368 0.0
H3724 H 0.85261 0.80529 0.66205 0.0
H3725 H 0.7921 0.88368 0.68083 0.0
H3726 H 0.76922 0.86337 0.68999 0.0
H3727 H 0.77529 0.85885 0.65859 0.0
C3728 C 0.78485 0.49946 0.51798 0.0
C3729 C 0.78113 0.47398 0.51663 0.0
C3730 C 0.76853 0.51215 0.52478 0.0
C3731 C 0.74834 0.49894 0.53077 0.0
C3732 C 0.74409 0.47299 0.52832 0.0
C3733 C 0.76062 0.46069 0.52102 0.0
C3734 C 0.7733 0.5398 0.52667 0.0
C3735 C 0.72257 0.45846 0.53444 0.0
C3736 C 0.72127 0.53687 0.57688 0.0
C3737 C 0.70536 0.54301 0.56176 0.0
C3738 C 0.735 0.52178 0.56699 0.0
C3739 C 0.73255 0.51271 0.54147 0.0
C3740 C 0.71625 0.51842 0.52613 0.0
C3741 C 0.70298 0.5338 0.53645 0.0
C3742 C 0.75238 0.51589 0.58374 0.0
C3743 C 0.7133 0.50894 0.49881 0.0
H3744 H 0.80069 0.50954 0.51418 0.0
H3745 H 0.75787 0.4409 0.51987 0.0
H3746 H 0.75972 0.54513 0.51648 0.0
H3747 H 0.77423 0.54903 0.54607 0.0
H3748 H 0.78911 0.54687 0.51945 0.0
H3749 H 0.72181 0.43829 0.53106 0.0
H3750 H 0.72048 0.46469 0.55393 0.0
H3751 H 0.70842 0.46184 0.52341 0.0
H3752 H 0.72284 0.5437 0.59642 0.0
H3753 H 0.69086 0.53883 0.52463 0.0
H3754 H 0.7691 0.52375 0.57903 0.0
H3755 H 0.75058 0.49561 0.58127 0.0
H3756 H 0.75135 0.52341 0.60327 0.0
H3757 H 0.72778 0.51803 0.49058 0.0
H3758 H 0.6981 0.51258 0.48995 0.0
H3759 H 0.71246 0.4888 0.49457 0.0
C3760 C 0.2309 0.1445 0.51458 0.0
C3761 C 0.23335 0.15961 0.49707 0.0
C3762 C 0.2105 0.12823 0.51566 0.0
C3763 C 0.19218 0.12628 0.49829 0.0
C3764 C 0.19498 0.14065 0.47984 0.0
C3765 C 0.2153 0.15738 0.47973 0.0
C3766 C 0.20828 0.11394 0.53608 0.0
C3767 C 0.17625 0.13898 0.46062 0.0
C3768 C 0.14158 0.07194 0.49146 0.0
C3769 C 0.1268 0.0826 0.50554 0.0
C3770 C 0.1629 0.08571 0.48907 0.0
C3771 C 0.16964 0.11098 0.50063 0.0
C3772 C 0.1546 0.12194 0.51437 0.0
C3773 C 0.13362 0.10774 0.51668 0.0
C3774 C 0.17827 0.07315 0.47424 0.0
C3775 C 0.16073 0.14878 0.5269 0.0
H3776 H 0.24464 0.14629 0.52824 0.0
H3777 H 0.21704 0.1689 0.4661 0.0
H3778 H 0.19575 0.11968 0.54776 0.0
H3779 H 0.20237 0.09392 0.5285 0.0
H3780 H 0.22414 0.11687 0.54772 0.0
H3781 H 0.18175 0.14903 0.44595 0.0
H3782 H 0.16886 0.11939 0.45225 0.0
H3783 H 0.16303 0.14693 0.46918 0.0
H3784 H 0.13661 0.05279 0.48243 0.0
H3785 H 0.12253 0.11655 0.52744 0.0
H3786 H 0.19367 0.07399 0.48589 0.0
H3787 H 0.18311 0.08297 0.45924 0.0
H3788 H 0.17064 0.0535 0.46626 0.0
H3789 H 0.17579 0.15219 0.53993 0.0
H3790 H 0.14726 0.15456 0.53701 0.0
H3791 H 0.16462 0.16064 0.51324 0.0
C3792 C 0.2105 0.92907 0.76826 0.0
C3793 C 0.22074 0.95476 0.77327 0.0
C3794 C 0.22258 0.9094 0.76812 0.0
C3795 C 0.24623 0.91415 0.77403 0.0
C3796 C 0.25657 0.94005 0.77941 0.0
C3797 C 0.24421 0.95929 0.77857 0.0
C3798 C 0.20963 0.88305 0.76156 0.0
C3799 C 0.28117 0.9477 0.78665 0.0
C3800 C 0.27331 0.86336 0.79947 0.0
C3801 C 0.28432 0.85209 0.78044 0.0
C3802 C 0.2616 0.88282 0.79766 0.0
C3803 C 0.25968 0.89271 0.77592 0.0
C3804 C 0.27098 0.88169 0.7565 0.0
C3805 C 0.28271 0.86203 0.75884 0.0
C3806 C 0.25104 0.89289 0.8196 0.0
C3807 C 0.27015 0.89016 0.7325 0.0
H3808 H 0.19268 0.92407 0.76406 0.0
H3809 H 0.25319 0.97838 0.78276 0.0
H3810 H 0.21844 0.87161 0.74915 0.0
H3811 H 0.20795 0.87525 0.77836 0.0
H3812 H 0.19279 0.8816 0.75262 0.0
H3813 H 0.28704 0.96805 0.79199 0.0
H3814 H 0.28565 0.93921 0.80216 0.0
H3815 H 0.29007 0.94088 0.77121 0.0
H3816 H 0.27373 0.8567 0.81647 0.0
H3817 H 0.29037 0.85423 0.74338 0.0
H3818 H 0.23279 0.88804 0.81542 0.0
H3819 H 0.25625 0.91333 0.82405 0.0
H3820 H 0.25539 0.88548 0.83594 0.0
H3821 H 0.2534 0.88252 0.72259 0.0
H3822 H 0.28253 0.88391 0.72086 0.0
H3823 H 0.27308 0.91057 0.7354 0.0
C3824 C 0.40601 0.99236 0.01231 0.0
C3825 C 0.40194 0.96928 0.01919 0.0
C3826 C 0.42759 1.00671 0.01507 0.0
C3827 C 0.44495 0.9975 0.02489 0.0
C3828 C 0.4404 0.97584 0.03474 0.0
C3829 C 0.41888 0.96177 0.03148 0.0
C3830 C 0.43209 0.03068 1.00597 0.0
C3831 C 0.45853 0.96643 0.04686 0.0
C3832 C 0.49882 0.99768 0.9993 0.0
C3833 C 0.51324 0.01509 0.01704 0.0
C3834 C 0.47602 0.99448 1.00002 0.0
C3835 C 0.46783 1.007 0.02053 0.0
C3836 C 0.48241 0.02432 0.03887 0.0
C3837 C 0.50501 0.02841 0.03661 0.0
C3838 C 0.46076 0.97629 0.97979 0.0
C3839 C 0.47457 0.03769 0.0614 0.0
H3840 H 0.39263 0.99852 1.00361 0.0
H3841 H 0.41544 0.94447 0.03791 0.0
H3842 H 0.44362 0.04525 0.01956 0.0
H3843 H 0.44016 0.02819 0.98885 0.0
H3844 H 0.41665 0.03706 1.00229 0.0
H3845 H 0.4518 0.9514 0.05654 0.0
H3846 H 0.46862 0.95916 0.03283 0.0
H3847 H 0.46968 0.98164 0.06015 0.0
H3848 H 0.50529 0.98605 0.98537 0.0
H3849 H 0.51636 0.04074 0.05113 0.0
H3850 H 0.44699 0.98438 0.97373 0.0
H3851 H 0.45342 0.95943 0.98659 0.0
H3852 H 0.46956 0.97082 0.96375 0.0
H3853 H 0.47047 0.05492 0.05747 0.0
H3854 H 0.48768 0.04292 0.07706 0.0
H3855 H 0.4596 0.02649 0.06705 0.0
C3856 C 0.9058 0.61791 0.79532 0.0
C3857 C 0.89619 0.59532 0.80123 0.0
C3858 C 0.89248 0.6322 0.78663 0.0
C3859 C 0.86929 0.62349 0.7842 0.0
C3860 C 0.85955 0.60175 0.79215 0.0
C3861 C 0.87326 0.5878 0.80065 0.0
C3862 C 0.90318 0.65543 0.77822 0.0
C3863 C 0.83477 0.59209 0.78971 0.0
C3864 C 0.83102 0.66327 0.76938 0.0
C3865 C 0.82675 0.65543 0.74392 0.0
C3866 C 0.84561 0.65363 0.78278 0.0
C3867 C 0.85532 0.63521 0.77041 0.0
C3868 C 0.85106 0.62706 0.74483 0.0
C3869 C 0.83702 0.63762 0.73179 0.0
C3870 C 0.85031 0.66273 0.8101 0.0
C3871 C 0.861 0.60692 0.73132 0.0
H3872 H 0.92364 0.62367 0.79598 0.0
H3873 H 0.86599 0.57043 0.80569 0.0
H3874 H 0.90071 0.65232 0.75799 0.0
H3875 H 0.89537 0.67085 0.78542 0.0
H3876 H 0.92125 0.66106 0.78405 0.0
H3877 H 0.82997 0.57659 0.79946 0.0
H3878 H 0.82636 0.60698 0.79692 0.0
H3879 H 0.82858 0.5854 0.7701 0.0
H3880 H 0.82277 0.6767 0.77892 0.0
H3881 H 0.83408 0.63191 0.7121 0.0
H3882 H 0.86842 0.66865 0.81539 0.0
H3883 H 0.84397 0.64752 0.81967 0.0
H3884 H 0.84257 0.67844 0.81663 0.0
H3885 H 0.87932 0.61231 0.73442 0.0
H3886 H 0.85596 0.60288 0.71134 0.0
H3887 H 0.85574 0.58969 0.73839 0.0
C3888 C 0.87045 0.67182 0.03977 0.0
C3889 C 0.8574 0.66652 0.01737 0.0
C3890 C 0.88807 0.66018 0.04306 0.0
C3891 C 0.8929 0.64323 0.02329 0.0
C3892 C 0.88046 0.63901 1.00021 0.0
C3893 C 0.86262 0.65047 0.99762 0.0
C3894 C 0.90067 0.66491 0.06805 0.0
C3895 C 0.88537 0.62157 0.97854 0.0
C3896 C 0.94646 0.62108 0.03215 0.0
C3897 C 0.93864 0.59852 0.03941 0.0
C3898 C 0.93175 0.63556 0.02598 0.0
C3899 C 0.9088 0.62754 0.02764 0.0
C3900 C 0.90083 0.60449 0.03422 0.0
C3901 C 0.91574 0.59014 0.03951 0.0
C3902 C 0.94078 0.65964 0.01822 0.0
C3903 C 0.87656 0.59525 0.03647 0.0
H3904 H 0.8663 0.68432 0.05495 0.0
H3905 H 0.85252 0.6466 0.98024 0.0
H3906 H 0.8975 0.64774 0.07556 0.0
H3907 H 0.91872 0.67019 0.06682 0.0
H3908 H 0.89582 0.67973 0.08104 0.0
H3909 H 0.87646 0.62309 0.96121 0.0
H3910 H 0.9034 0.62527 0.97678 0.0
H3911 H 0.8803 0.60228 0.98122 0.0
H3912 H 0.96408 0.62782 0.03197 0.0
H3913 H 0.90938 0.57238 0.04421 0.0
H3914 H 0.93875 0.67528 0.03233 0.0
H3915 H 0.93137 0.66063 1.001 0.0
H3916 H 0.95859 0.66207 0.01544 0.0
H3917 H 0.87079 0.60873 0.05012 0.0
H3918 H 0.87311 0.57706 0.04213 0.0
H3919 H 0.86665 0.59349 0.01878 0.0
C3920 C 0.23761 0.10008 0.77802 0.0
C3921 C 0.21747 0.09825 0.78879 0.0
C3922 C 0.25187 0.12354 0.7772 0.0
C3923 C 0.24653 0.14643 0.78767 0.0
C3924 C 0.22651 0.14452 0.79898 0.0
C3925 C 0.21254 0.12106 0.79923 0.0
C3926 C 0.27256 0.12383 0.7645 0.0
C3927 C 0.21949 0.16754 0.81069 0.0
C3928 C 0.29108 0.20959 0.80275 0.0
C3929 C 0.28558 0.22237 0.78449 0.0
C3930 C 0.27885 0.18532 0.80402 0.0
C3931 C 0.26093 0.17221 0.78603 0.0
C3932 C 0.25593 0.18475 0.76711 0.0
C3933 C 0.26773 0.20932 0.76691 0.0
C3934 C 0.28479 0.17392 0.82521 0.0
C3935 C 0.23788 0.17213 0.74678 0.0
H3936 H 0.24201 0.08318 0.76955 0.0
H3937 H 0.1973 0.12071 0.80771 0.0
H3938 H 0.27228 0.13443 0.74961 0.0
H3939 H 0.28729 0.13332 0.77756 0.0
H3940 H 0.27444 0.10495 0.75667 0.0
H3941 H 0.2047 0.16335 0.82066 0.0
H3942 H 0.23322 0.17987 0.82364 0.0
H3943 H 0.21556 0.17787 0.79648 0.0
H3944 H 0.30457 0.21894 0.81668 0.0
H3945 H 0.26296 0.21821 0.75249 0.0
H3946 H 0.2895 0.15621 0.81842 0.0
H3947 H 0.27017 0.16971 0.83541 0.0
H3948 H 0.29867 0.18622 0.83801 0.0
H3949 H 0.24092 0.154 0.73814 0.0
H3950 H 0.23678 0.18331 0.73248 0.0
H3951 H 0.22167 0.16851 0.75425 0.0
C3952 C 0.38386 0.97695 0.3001 0.0
C3953 C 0.40352 0.97537 0.31317 0.0
C3954 C 0.36797 0.95585 0.28948 0.0
C3955 C 0.37158 0.93283 0.29276 0.0
C3956 C 0.3913 0.93097 0.30593 0.0
C3957 C 0.40719 0.9524 0.31584 0.0
C3958 C 0.34756 0.95828 0.27466 0.0
C3959 C 0.39583 0.90636 0.30924 0.0
C3960 C 0.3305 0.87536 0.29257 0.0
C3961 C 0.34019 0.85988 0.27656 0.0
C3962 C 0.33909 0.90076 0.29718 0.0
C3963 C 0.35506 0.91028 0.28245 0.0
C3964 C 0.3595 0.89506 0.2614 0.0
C3965 C 0.35292 0.86966 0.25937 0.0
C3966 C 0.334 0.91627 0.3201 0.0
C3967 C 0.3742 0.90518 0.24346 0.0
H3968 H 0.38099 0.99469 0.29756 0.0
H3969 H 0.42249 0.95114 0.32551 0.0
H3970 H 0.34362 0.94407 0.2576 0.0
H3971 H 0.33314 0.95546 0.28534 0.0
H3972 H 0.34952 0.9768 0.2698 0.0
H3973 H 0.41106 0.90847 0.3217 0.0
H3974 H 0.38169 0.89556 0.31666 0.0
H3975 H 0.39793 0.89548 0.29131 0.0
H3976 H 0.31794 0.8678 0.30297 0.0
H3977 H 0.35902 0.85776 0.24533 0.0
H3978 H 0.33389 0.9353 0.31774 0.0
H3979 H 0.34709 0.9175 0.33505 0.0
H3980 H 0.31785 0.90792 0.32588 0.0
H3981 H 0.37101 0.92309 0.24042 0.0
H3982 H 0.37157 0.89205 0.22568 0.0
H3983 H 0.39179 0.90829 0.2508 0.0
C3984 C 0.58064 0.39029 0.59675 0.0
C3985 C 0.6007 0.38237 0.59471 0.0
C3986 C 0.57613 0.41032 0.58633 0.0
C3987 C 0.59232 0.42401 0.57412 0.0
C3988 C 0.6127 0.41619 0.57219 0.0
C3989 C 0.61643 0.39544 0.58197 0.0
C3990 C 0.55375 0.41659 0.5881 0.0
C3991 C 0.63092 0.43017 0.56017 0.0
C3992 C 0.57833 0.46551 0.52893 0.0
C3993 C 0.58189 0.48921 0.54374 0.0
C3994 C 0.58046 0.44426 0.53864 0.0
C3995 C 0.58811 0.44649 0.5637 0.0
C3996 C 0.5922 0.47057 0.57862 0.0
C3997 C 0.58872 0.49126 0.56868 0.0
C3998 C 0.57449 0.41931 0.52186 0.0
C3999 C 0.60107 0.47473 0.60511 0.0
H4000 H 0.56813 0.38042 0.60624 0.0
H4001 H 0.63201 0.38984 0.58018 0.0
H4002 H 0.55559 0.43559 0.59866 0.0
H4003 H 0.54591 0.41611 0.56957 0.0
H4004 H 0.54248 0.40364 0.59699 0.0
H4005 H 0.64598 0.42245 0.5605 0.0
H4006 H 0.6251 0.42977 0.54092 0.0
H4007 H 0.63541 0.44983 0.56961 0.0
H4008 H 0.57372 0.46349 0.50954 0.0
H4009 H 0.59216 0.50937 0.58038 0.0
H4010 H 0.56341 0.4059 0.53042 0.0
H4011 H 0.58966 0.41226 0.51866 0.0
H4012 H 0.5661 0.42003 0.50394 0.0
H4013 H 0.58919 0.46373 0.61509 0.0
H4014 H 0.60419 0.49446 0.61421 0.0
H4015 H 0.61677 0.46835 0.60659 0.0
C4016 C 0.4609 0.79866 0.39523 0.0
C4017 C 0.46425 0.77594 0.39993 0.0
C4018 C 0.44237 0.80031 0.37979 0.0
C4019 C 0.42617 0.77873 0.36869 0.0
C4020 C 0.42959 0.75565 0.37326 0.0
C4021 C 0.4484 0.75455 0.38871 0.0
C4022 C 0.43997 0.82538 0.3757 0.0
C4023 C 0.41312 0.73204 0.36205 0.0
C4024 C 0.36739 0.78567 0.3464 0.0
C4025 C 0.36802 0.78415 0.32101 0.0
C4026 C 0.38584 0.78373 0.36193 0.0
C4027 C 0.40591 0.78031 0.35226 0.0
C4028 C 0.40664 0.77884 0.32673 0.0
C4029 C 0.38801 0.78085 0.31173 0.0
C4030 C 0.38385 0.78547 0.38886 0.0
C4031 C 0.42737 0.7755 0.31514 0.0
H4032 H 0.47271 0.81539 0.40407 0.0
H4033 H 0.45042 0.73691 0.39248 0.0
H4034 H 0.43864 0.82556 0.35586 0.0
H4035 H 0.42452 0.82942 0.38264 0.0
H4036 H 0.45414 0.84033 0.38495 0.0
H4037 H 0.41775 0.71561 0.36748 0.0
H4038 H 0.39647 0.73312 0.36765 0.0
H4039 H 0.41186 0.7295 0.34185 0.0
H4040 H 0.3524 0.78847 0.35428 0.0
H4041 H 0.3895 0.78046 0.29267 0.0
H4042 H 0.39644 0.80142 0.39941 0.0
H4043 H 0.38719 0.76863 0.39461 0.0
H4044 H 0.36721 0.78766 0.39369 0.0
H4045 H 0.44121 0.79143 0.32294 0.0
H4046 H 0.42526 0.77388 0.295 0.0
H4047 H 0.43224 0.75869 0.31924 0.0
C4048 C 0.08438 0.73677 0.06317 0.0
C4049 C 0.09828 0.74924 0.08445 0.0
C4050 C 0.07992 0.71067 0.05587 0.0
C4051 C 0.0904 0.69634 0.06943 0.0
C4052 C 0.10495 0.70905 0.09064 0.0
C4053 C 0.10834 0.73506 0.09808 0.0
C4054 C 0.06394 0.6985 0.03352 0.0
C4055 C 0.11757 0.69522 0.10515 0.0
C4056 C 0.06729 0.62811 0.07122 0.0
C4057 C 0.07701 0.61474 0.05267 0.0
C4058 C 0.07034 0.65404 0.07548 0.0
C4059 C 0.08524 0.66815 0.06252 0.0
C4060 C 0.09489 0.65503 0.04335 0.0
C4061 C 0.08982 0.62865 0.03796 0.0
C4062 C 0.057 0.66625 0.09358 0.0
C4063 C 0.11043 0.66851 0.02809 0.0
H4064 H 0.07682 0.74751 0.05221 0.0
H4065 H 0.11955 0.74447 0.11418 0.0
H4066 H 0.07328 0.69226 0.01828 0.0
H4067 H 0.05228 0.68202 0.03701 0.0
H4068 H 0.05427 0.71132 0.02759 0.0
H4069 H 0.13039 0.70788 0.11901 0.0
H4070 H 0.10605 0.68336 0.11475 0.0
H4071 H 0.12567 0.68296 0.09273 0.0
H4072 H 0.05656 0.61822 0.08244 0.0
H4073 H 0.09616 0.61918 0.02243 0.0
H4074 H 0.04999 0.68025 0.08595 0.0
H4075 H 0.06774 0.67589 0.11054 0.0
H4076 H 0.04315 0.65269 0.09851 0.0
H4077 H 0.10116 0.66884 0.01059 0.0
H4078 H 0.12377 0.65868 0.02348 0.0
H4079 H 0.11814 0.68776 0.03732 0.0
C4080 C 0.09112 0.25843 0.88441 0.0
C4081 C 0.08834 0.27779 0.90261 0.0
C4082 C 0.11065 0.26012 0.87261 0.0
C4083 C 0.1274 0.28218 0.87822 0.0
C4084 C 0.12479 0.30158 0.89699 0.0
C4085 C 0.10555 0.29892 0.90927 0.0
C4086 C 0.11308 0.23851 0.85361 0.0
C4087 C 0.14159 0.32584 0.90303 0.0
C4088 C 0.18482 0.28908 0.85446 0.0
C4089 C 0.18121 0.29819 0.83305 0.0
C4090 C 0.16735 0.28275 0.8689 0.0
C4091 C 0.14592 0.28634 0.86228 0.0
C4092 C 0.14215 0.2948 0.84038 0.0
C4093 C 0.15947 0.29975 0.82582 0.0
C4094 C 0.17191 0.27268 0.89148 0.0
C4095 C 0.11991 0.2996 0.83265 0.0
H4096 H 0.07797 0.24196 0.87935 0.0
H4097 H 0.10342 0.31404 0.92319 0.0
H4098 H 0.11166 0.24306 0.83518 0.0
H4099 H 0.12968 0.23448 0.85672 0.0
H4100 H 0.10026 0.22162 0.85379 0.0
H4101 H 0.13787 0.33851 0.91904 0.0
H4102 H 0.15841 0.32274 0.90685 0.0
H4103 H 0.14183 0.33507 0.88707 0.0
H4104 H 0.20135 0.28751 0.86032 0.0
H4105 H 0.15597 0.30557 0.80883 0.0
H4106 H 0.15889 0.2561 0.89203 0.0
H4107 H 0.17154 0.28667 0.908 0.0
H4108 H 0.18831 0.26771 0.89233 0.0
H4109 H 0.10704 0.28223 0.82936 0.0
H4110 H 0.12 0.30741 0.81577 0.0
H4111 H 0.11503 0.31272 0.84744 0.0
C4112 C 0.59989 0.75389 0.91257 0.0
C4113 C 0.61914 0.77146 0.92249 0.0
C4114 C 0.59256 0.73388 0.92378 0.0
C4115 C 0.60526 0.7315 0.9448 0.0
C4116 C 0.62641 0.74711 0.95235 0.0
C4117 C 0.633 0.7673 0.94122 0.0
C4118 C 0.56979 0.71775 0.9154 0.0
C4119 C 0.64072 0.7445 0.97416 0.0
C4120 C 0.57447 0.71439 0.99735 0.0
C4121 C 0.57394 0.68913 0.9944 0.0
C4122 C 0.58409 0.72816 0.98083 0.0
C4123 C 0.59461 0.71669 0.96172 0.0
C4124 C 0.59481 0.69146 0.95893 0.0
C4125 C 0.58372 0.67775 0.97471 0.0
C4126 C 0.58298 0.75503 0.98391 0.0
C4127 C 0.6067 0.67898 0.93937 0.0
H4128 H 0.58915 0.75752 0.89822 0.0
H4129 H 0.64788 0.78115 0.94876 0.0
H4130 H 0.56948 0.69819 0.91607 0.0
H4131 H 0.5579 0.72386 0.92782 0.0
H4132 H 0.56401 0.71895 0.89653 0.0
H4133 H 0.65813 0.75462 0.97449 0.0
H4134 H 0.63424 0.75216 0.99118 0.0
H4135 H 0.64043 0.72478 0.97416 0.0
H4136 H 0.56743 0.72356 0.01261 0.0
H4137 H 0.58276 0.65806 0.97138 0.0
H4138 H 0.57603 0.75879 0.96655 0.0
H4139 H 0.59986 0.76691 0.98858 0.0
H4140 H 0.57263 0.76048 0.99851 0.0
H4141 H 0.59766 0.67714 0.92116 0.0
H4142 H 0.60812 0.66029 0.94202 0.0
H4143 H 0.62358 0.69027 0.93922 0.0
C4144 C 0.09875 0.77771 0.66626 0.0
C4145 C 0.07838 0.77352 0.67602 0.0
C4146 C 0.11809 0.77545 0.67923 0.0
C4147 C 0.11691 0.76858 0.70232 0.0
C4148 C 0.09655 0.76506 0.71258 0.0
C4149 C 0.07756 0.76773 0.69938 0.0
C4150 C 0.13961 0.77949 0.66785 0.0
C4151 C 0.09462 0.75751 0.73709 0.0
C4152 C 0.15808 0.73422 0.72454 0.0
C4153 C 0.17243 0.75296 0.74146 0.0
C4154 C 0.14029 0.73926 0.71114 0.0
C4155 C 0.13661 0.76353 0.71518 0.0
C4156 C 0.15115 0.78258 0.7322 0.0
C4157 C 0.16909 0.77709 0.745 0.0
C4158 C 0.1253 0.71855 0.69287 0.0
C4159 C 0.14751 0.80857 0.7372 0.0
H4160 H 0.09951 0.7823 0.64828 0.0
H4161 H 0.06188 0.76428 0.70704 0.0
H4162 H 0.15272 0.79283 0.68077 0.0
H4163 H 0.14513 0.76185 0.66383 0.0
H4164 H 0.13807 0.7865 0.65062 0.0
H4165 H 0.07779 0.75664 0.74301 0.0
H4166 H 0.09852 0.73907 0.73615 0.0
H4167 H 0.10677 0.7707 0.75122 0.0
H4168 H 0.16097 0.71567 0.72162 0.0
H4169 H 0.18031 0.79155 0.75811 0.0
H4170 H 0.12422 0.72375 0.67468 0.0
H4171 H 0.10832 0.71521 0.69856 0.0
H4172 H 0.13115 0.70106 0.69101 0.0
H4173 H 0.14673 0.81562 0.71995 0.0
H4174 H 0.16079 0.82143 0.75036 0.0
H4175 H 0.13141 0.80862 0.74471 0.0
C4176 C 0.13082 0.42165 0.4126 0.0
C4177 C 0.12918 0.40113 0.42376 0.0
C4178 C 0.12507 0.44304 0.42457 0.0
C4179 C 0.11683 0.44311 0.44753 0.0
C4180 C 0.11577 0.42268 0.4591 0.0
C4181 C 0.12259 0.40219 0.4473 0.0
C4182 C 0.12721 0.4652 0.41253 0.0
C4183 C 0.10659 0.42197 0.48347 0.0
C4184 C 0.11204 0.49672 0.49455 0.0
C4185 C 0.08929 0.49549 0.49115 0.0
C4186 C 0.12184 0.48128 0.47869 0.0
C4187 C 0.10832 0.46391 0.4595 0.0
C4188 C 0.08551 0.46336 0.45524 0.0
C4189 C 0.07625 0.47949 0.47109 0.0
C4190 C 0.1463 0.48233 0.48344 0.0
C4191 C 0.07054 0.44428 0.43541 0.0
H4192 H 0.13625 0.42085 0.39451 0.0
H4193 H 0.12186 0.3866 0.45627 0.0
H4194 H 0.11056 0.46828 0.40759 0.0
H4195 H 0.13646 0.48204 0.42543 0.0
H4196 H 0.13581 0.46291 0.39575 0.0
H4197 H 0.10647 0.40423 0.4895 0.0
H4198 H 0.11653 0.43715 0.49775 0.0
H4199 H 0.08938 0.42467 0.48225 0.0
H4200 H 0.12222 0.50949 0.50981 0.0
H4201 H 0.05865 0.47874 0.46846 0.0
H4202 H 0.15441 0.48398 0.46654 0.0
H4203 H 0.14881 0.46501 0.48879 0.0
H4204 H 0.15466 0.49802 0.49824 0.0
H4205 H 0.07775 0.44359 0.41775 0.0
H4206 H 0.05374 0.44803 0.43299 0.0
H4207 H 0.06888 0.42576 0.44015 0.0
C4208 C 0.44851 0.24833 0.20936 0.0
C4209 C 0.4596 0.26863 0.2006 0.0
C4210 C 0.42974 0.24984 0.22171 0.0
C4211 C 0.42255 0.27234 0.22574 0.0
C4212 C 0.43441 0.29301 0.21746 0.0
C4213 C 0.45269 0.29081 0.20474 0.0
C4214 C 0.41719 0.22719 0.2296 0.0
C4215 C 0.42792 0.31748 0.22205 0.0
C4216 C 0.36166 0.26791 0.23139 0.0
C4217 C 0.36136 0.27334 0.25669 0.0
C4218 C 0.38155 0.26788 0.22112 0.0
C4219 C 0.4016 0.27358 0.23663 0.0
C4220 C 0.4014 0.27977 0.26229 0.0
C4221 C 0.38109 0.27914 0.27211 0.0
C4222 C 0.38103 0.26123 0.19368 0.0
C4223 C 0.42252 0.28654 0.27932 0.0
H4224 H 0.45407 0.23116 0.20581 0.0
H4225 H 0.46164 0.30645 0.19793 0.0
H4226 H 0.41629 0.23108 0.24961 0.0
H4227 H 0.39996 0.22203 0.22063 0.0
H4228 H 0.42505 0.21124 0.22487 0.0
H4229 H 0.43798 0.33125 0.21296 0.0
H4230 H 0.41025 0.31511 0.21552 0.0
H4231 H 0.43036 0.32472 0.24198 0.0
H4232 H 0.34618 0.26319 0.21966 0.0
H4233 H 0.38059 0.28309 0.29173 0.0
H4234 H 0.38786 0.24456 0.18861 0.0
H4235 H 0.39157 0.27645 0.18683 0.0
H4236 H 0.36402 0.25755 0.18428 0.0
H4237 H 0.42954 0.26998 0.27917 0.0
H4238 H 0.41976 0.29388 0.29839 0.0
H4239 H 0.43502 0.30059 0.27312 0.0
C4240 C 0.63854 0.50553 0.34381 0.0
C4241 C 0.65999 0.51997 0.34266 0.0
C4242 C 0.62702 0.50694 0.3656 0.0
C4243 C 0.63588 0.52438 0.38779 0.0
C4244 C 0.65726 0.53964 0.38643 0.0
C4245 C 0.66898 0.53679 0.36479 0.0
C4246 C 0.60502 0.48926 0.36449 0.0
C4247 C 0.6679 0.55978 0.40784 0.0
C4248 C 0.59359 0.54096 0.43643 0.0
C4249 C 0.59931 0.53129 0.45716 0.0
C4250 C 0.60517 0.53929 0.41464 0.0
C4251 C 0.62306 0.52672 0.41183 0.0
C4252 C 0.62841 0.5163 0.4325 0.0
C4253 C 0.61721 0.5192 0.45448 0.0
C4254 C 0.59814 0.55152 0.39456 0.0
C4255 C 0.64579 0.50117 0.43123 0.0
H4256 H 0.63071 0.49235 0.32751 0.0
H4257 H 0.68517 0.54861 0.36504 0.0
H4258 H 0.60207 0.48416 0.38246 0.0
H4259 H 0.59162 0.49809 0.35895 0.0
H4260 H 0.60391 0.47212 0.35074 0.0
H4261 H 0.68053 0.57418 0.40223 0.0
H4262 H 0.65535 0.5687 0.41678 0.0
H4263 H 0.67626 0.55181 0.42154 0.0
H4264 H 0.58025 0.5507 0.43746 0.0
H4265 H 0.62239 0.51148 0.46971 0.0
H4266 H 0.58753 0.53734 0.37988 0.0
H4267 H 0.61272 0.56067 0.38649 0.0
H4268 H 0.58849 0.56545 0.40121 0.0
H4269 H 0.64158 0.48617 0.41478 0.0
H4270 H 0.6474 0.49286 0.44764 0.0
H4271 H 0.66207 0.51283 0.42943 0.0
C4272 C 0.36249 0.93441 0.08904 0.0
C4273 C 0.34047 0.93271 0.08045 0.0
C4274 C 0.36725 0.92359 0.10862 0.0
C4275 C 0.34947 0.91254 0.12037 0.0
C4276 C 0.32795 0.91633 0.11531 0.0
C4277 C 0.32345 0.92585 0.09457 0.0
C4278 C 0.3904 0.91962 0.11323 0.0
C4279 C 0.30911 0.90669 0.12916 0.0
C4280 C 0.35312 0.84802 0.12553 0.0
C4281 C 0.3629 0.85189 0.1494 0.0
C4282 C 0.34781 0.86764 0.11616 0.0
C4283 C 0.35216 0.89148 0.13136 0.0
C4284 C 0.36163 0.89534 0.15568 0.0
C4285 C 0.36745 0.87555 0.16422 0.0
C4286 C 0.3377 0.8628 0.08995 0.0
C4287 C 0.36574 0.92018 0.17268 0.0
H4288 H 0.37554 0.94012 0.07787 0.0
H4289 H 0.30647 0.92504 0.08789 0.0
H4290 H 0.3957 0.92318 0.13305 0.0
H4291 H 0.39061 0.90011 0.10565 0.0
H4292 H 0.40266 0.93168 0.10449 0.0
H4293 H 0.29595 0.91728 0.12831 0.0
H4294 H 0.30173 0.88708 0.12088 0.0
H4295 H 0.31498 0.90772 0.14857 0.0
H4296 H 0.34903 0.82952 0.1145 0.0
H4297 H 0.37485 0.87831 0.18286 0.0
H4298 H 0.34817 0.87478 0.07949 0.0
H4299 H 0.32112 0.86723 0.08924 0.0
H4300 H 0.33583 0.84326 0.08069 0.0
H4301 H 0.38265 0.93075 0.17144 0.0
H4302 H 0.3647 0.91803 0.19194 0.0
H4303 H 0.35376 0.9312 0.16802 0.0
C4304 C 0.99007 0.55941 0.86091 0.0
C4305 C 0.96815 0.56023 0.86471 0.0
C4306 C 1.005 0.55863 0.88001 0.0
C4307 C 0.99776 0.55914 0.90335 0.0
C4308 C 0.97575 0.5602 0.90756 0.0
C4309 C 0.96099 0.5607 0.88792 0.0
C4310 C 0.02839 0.55694 0.87516 0.0
C4311 C 0.9679 0.56067 0.93262 0.0
C4312 C 0.03028 0.53429 0.94721 0.0
C4313 C 0.04277 0.55626 0.96141 0.0
C4314 C 0.01537 0.53493 0.92798 0.0
C4315 C 0.01341 0.55816 0.92325 0.0
C4316 C 0.02695 0.58036 0.93679 0.0
C4317 C 0.04183 0.5791 0.95592 0.0
C4318 C 1.00118 0.51099 0.91349 0.0
C4319 C 0.02496 0.60529 0.93181 0.0
H4320 H 0.99561 0.55912 0.8429 0.0
H4321 H 0.94397 0.56128 0.89066 0.0
H4322 H 0.0404 0.5728 0.88668 0.0
H4323 H 0.03201 0.53988 0.88012 0.0
H4324 H 0.0312 0.55674 0.85572 0.0
H4325 H 0.95007 0.56104 0.93255 0.0
H4326 H 0.97059 0.54421 0.93964 0.0
H4327 H 0.97766 0.57717 0.94558 0.0
H4328 H 0.03137 0.51675 0.95203 0.0
H4329 H 0.05149 0.59587 0.96758 0.0
H4330 H 1.00326 0.50955 0.89378 0.0
H4331 H 0.98346 0.5106 0.91551 0.0
H4332 H 1.00529 0.49455 0.91948 0.0
H4333 H 0.02771 0.60627 0.91258 0.0
H4334 H 0.03699 0.62068 0.94401 0.0
H4335 H 1.00799 0.60796 0.93438 0.0
C4336 C 0.3202 0.25477 0.59116 0.0
C4337 C 0.30303 0.23469 0.58023 0.0
C4338 C 0.32284 0.26376 0.61663 0.0
C4339 C 0.30756 0.25283 0.63152 0.0
C4340 C 0.28993 0.2328 0.62033 0.0
C4341 C 0.28806 0.22381 0.59493 0.0
C4342 C 0.34255 0.28422 0.62763 0.0
C4343 C 0.273 0.22078 0.63523 0.0
C4344 C 0.32189 0.25037 0.69792 0.0
C4345 C 0.31413 0.27012 0.71105 0.0
C4346 C 0.32153 0.24609 0.67242 0.0
C4347 C 0.31118 0.26031 0.65893 0.0
C4348 C 0.30358 0.28058 0.67182 0.0
C4349 C 0.30642 0.28611 0.69773 0.0
C4350 C 0.33217 0.22608 0.65996 0.0
C4351 C 0.29159 0.29571 0.65832 0.0
H4352 H 0.33172 0.26327 0.57976 0.0
H4353 H 0.2746 0.2085 0.58644 0.0
H4354 H 0.33776 0.29834 0.64144 0.0
H4355 H 0.35485 0.27638 0.6371 0.0
H4356 H 0.35065 0.29345 0.61354 0.0
H4357 H 0.25893 0.2075 0.62357 0.0
H4358 H 0.28085 0.2107 0.64734 0.0
H4359 H 0.26649 0.23507 0.64709 0.0
H4360 H 0.32877 0.23818 0.70761 0.0
H4361 H 0.30206 0.30248 0.7074 0.0
H4362 H 0.34248 0.23283 0.64603 0.0
H4363 H 0.3192 0.20998 0.65044 0.0
H4364 H 0.34278 0.21973 0.67312 0.0
H4365 H 0.3009 0.30169 0.64339 0.0
H4366 H 0.28873 0.31227 0.67062 0.0
H4367 H 0.27532 0.28411 0.64976 0.0
C4368 C 0.63026 0.52865 0.20217 0.0
C4369 C 0.64971 0.51932 0.20595 0.0
C4370 C 0.62096 0.5316 0.17898 0.0
C4371 C 0.63013 0.5244 0.15686 0.0
C4372 C 0.64935 0.51405 0.15996 0.0
C4373 C 0.65888 0.51196 0.18389 0.0
C4374 C 0.60118 0.54327 0.17847 0.0
C4375 C 0.66026 0.50522 0.13787 0.0
C4376 C 0.59047 0.51849 0.0954 0.0
C4377 C 0.59986 0.53904 0.08508 0.0
C4378 C 0.60028 0.51299 0.1175 0.0
C4379 C 0.61999 0.52872 0.13143 0.0
C4380 C 0.62924 0.5496 0.12119 0.0
C4381 C 0.62003 0.5535 0.09822 0.0
C4382 C 0.5896 0.48953 0.12536 0.0
C4383 C 0.64925 0.56823 0.13453 0.0
H4384 H 0.62203 0.53444 0.21795 0.0
H4385 H 0.67375 0.50486 0.18515 0.0
H4386 H 0.60351 0.55767 0.16711 0.0
H4387 H 0.58622 0.529 0.17026 0.0
H4388 H 0.59809 0.55181 0.19703 0.0
H4389 H 0.66951 0.49103 0.1412 0.0
H4390 H 0.64794 0.4974 0.12165 0.0
H4391 H 0.67225 0.52102 0.13365 0.0
H4392 H 0.57584 0.50575 0.08547 0.0
H4393 H 0.62914 0.56817 0.09032 0.0
H4394 H 0.57783 0.49361 0.13877 0.0
H4395 H 0.6021 0.48138 0.13412 0.0
H4396 H 0.58014 0.47559 0.10963 0.0
H4397 H 0.64725 0.57298 0.15427 0.0
H4398 H 0.65222 0.58547 0.1271 0.0
H4399 H 0.66409 0.56025 0.13283 0.0
C4400 C 0.34381 0.88934 0.95546 0.0
C4401 C 0.33757 0.91127 0.95281 0.0
C4402 C 0.34672 0.87263 0.93525 0.0
C4403 C 0.34286 0.87792 0.91192 0.0
C4404 C 0.33824 0.90085 0.90907 0.0
C4405 C 0.3357 0.91751 0.92981 0.0
C4406 C 0.35176 0.8483 0.93878 0.0
C4407 C 0.33416 0.90688 0.88416 0.0
C4408 C 0.35386 0.83486 0.85727 0.0
C4409 C 0.33245 0.82067 0.84949 0.0
C4410 C 0.35772 0.8536 0.87794 0.0
C4411 C 0.33969 0.85775 0.89087 0.0
C4412 C 0.31837 0.84227 0.8841 0.0
C4413 C 0.31506 0.8237 0.8634 0.0
C4414 C 0.38064 0.86983 0.88499 0.0
C4415 C 0.29877 0.84629 0.89777 0.0
H4416 H 0.34543 0.88445 0.97319 0.0
H4417 H 0.33111 0.93464 0.9279 0.0
H4418 H 0.33651 0.83349 0.93354 0.0
H4419 H 0.36441 0.84326 0.92694 0.0
H4420 H 0.35772 0.84878 0.95805 0.0
H4421 H 0.33461 0.92683 0.88527 0.0
H4422 H 0.34659 0.90157 0.87213 0.0
H4423 H 0.31762 0.89618 0.87545 0.0
H4424 H 0.36722 0.83251 0.84612 0.0
H4425 H 0.29852 0.81326 0.85698 0.0
H4426 H 0.3858 0.87126 0.90464 0.0
H4427 H 0.38053 0.88877 0.88215 0.0
H4428 H 0.39314 0.86281 0.87407 0.0
H4429 H 0.30235 0.84587 0.91735 0.0
H4430 H 0.28346 0.83212 0.8903 0.0
H4431 H 0.2956 0.86474 0.89672 0.0
C4432 C 0.94945 0.51694 0.72314 0.0
C4433 C 0.95105 0.53991 0.73806 0.0
C4434 C 0.95736 0.51531 0.7003 0.0
C4435 C 0.96712 0.53732 0.6926 0.0
C4436 C 0.96614 0.56056 0.70642 0.0
C4437 C 0.95814 0.5616 0.72933 0.0
C4438 C 0.95795 0.49009 0.68605 0.0
C4439 C 0.97583 0.58431 0.69844 0.0
C4440 C 0.0166 0.5243 0.66282 0.0
C4441 C 1.00718 0.51559 0.63872 0.0
C4442 C 1.00434 0.53424 0.6805 0.0
C4443 C 0.98234 0.53562 0.67352 0.0
C4444 C 0.97391 0.52974 0.6486 0.0
C4445 C 0.9864 0.51932 0.63137 0.0
C4446 C 0.014 0.54035 0.70695 0.0
C4447 C 0.95093 0.53196 0.64042 0.0
H4448 H 0.94397 0.5003 0.73031 0.0
H4449 H 0.9594 0.57933 0.74126 0.0
H4450 H 0.95231 0.48835 0.66649 0.0
H4451 H 0.9752 0.48752 0.68728 0.0
H4452 H 0.9474 0.475 0.69313 0.0
H4453 H 0.96864 0.5997 0.70731 0.0
H4454 H 0.99395 0.58938 0.70374 0.0
H4455 H 0.97303 0.58227 0.67832 0.0
H4456 H 0.03285 0.52147 0.66817 0.0
H4457 H 0.97946 0.51283 0.61248 0.0
H4458 H 1.00582 0.52592 0.71658 0.0
H4459 H 1.01102 0.55825 0.71624 0.0
H4460 H 0.03209 0.54128 0.70886 0.0
H4461 H 0.93892 0.51475 0.6415 0.0
H4462 H 0.94966 0.53454 0.62119 0.0
H4463 H 0.94611 0.54759 0.65224 0.0
C4464 C 0.29792 0.23337 0.44366 0.0
C4465 C 0.30857 0.21501 0.44902 0.0
C4466 C 0.30108 0.24292 0.42212 0.0
C4467 C 0.31597 0.23469 0.406 0.0
C4468 C 0.32761 0.2171 0.4121 0.0
C4469 C 0.32341 0.20711 0.43314 0.0
C4470 C 0.2881 0.2614 0.41635 0.0
C4471 C 0.34464 0.20894 0.39639 0.0
C4472 C 0.30844 0.23506 0.33776 0.0
C4473 C 0.32183 0.25786 0.3359 0.0
C4474 C 0.3058 0.22795 0.36045 0.0
C4475 C 0.31826 0.24293 0.38194 0.0
C4476 C 0.33325 0.26503 0.38001 0.0
C4477 C 0.33456 0.27237 0.35718 0.0
C4478 C 0.28901 0.20472 0.36147 0.0
C4479 C 0.34761 0.28135 0.40203 0.0
H4480 H 0.28664 0.23976 0.45599 0.0
H4481 H 0.33217 0.19341 0.43745 0.0
H4482 H 0.29959 0.27913 0.41587 0.0
H4483 H 0.27867 0.25465 0.39801 0.0
H4484 H 0.27635 0.26495 0.43 0.0
H4485 H 0.35377 0.19695 0.40474 0.0
H4486 H 0.33651 0.19862 0.37823 0.0
H4487 H 0.35674 0.22532 0.39336 0.0
H4488 H 0.29898 0.22312 0.32156 0.0
H4489 H 0.34557 0.28956 0.35613 0.0
H4490 H 0.27755 0.20881 0.37528 0.0
H4491 H 0.29751 0.19084 0.3671 0.0
H4492 H 0.27909 0.19645 0.34358 0.0
H4493 H 0.33782 0.29328 0.41232 0.0
H4494 H 0.36215 0.29359 0.39665 0.0
H4495 H 0.35356 0.27027 0.4145 0.0
C4496 C 0.34266 0.58956 0.52623 0.0
C4497 C 0.34495 0.61186 0.54273 0.0
C4498 C 0.3612 0.58036 0.52021 0.0
C4499 C 0.3823 0.59332 0.53184 0.0
C4500 C 0.38454 0.61502 0.54974 0.0
C4501 C 0.36576 0.62441 0.5546 0.0
C4502 C 0.35835 0.55761 0.50037 0.0
C4503 C 0.4068 0.6289 0.5628 0.0
C4504 C 0.4235 0.55309 0.52451 0.0
C4505 C 0.43265 0.55935 0.50368 0.0
C4506 C 0.408 0.56529 0.53502 0.0
C4507 C 0.40187 0.58418 0.52442 0.0
C4508 C 0.41223 0.5916 0.5043 0.0
C4509 C 0.42747 0.57883 0.49396 0.0
C4510 C 0.39725 0.55707 0.55653 0.0
C4511 C 0.40628 0.61192 0.49274 0.0
H4512 H 0.32661 0.58038 0.51647 0.0
H4513 H 0.36741 0.64197 0.56695 0.0
H4514 H 0.3678 0.56221 0.485 0.0
H4515 H 0.36505 0.54316 0.50747 0.0
H4516 H 0.34075 0.54982 0.49312 0.0
H4517 H 0.40525 0.64347 0.57839 0.0
H4518 H 0.41585 0.61605 0.56969 0.0
H4519 H 0.41698 0.63777 0.54987 0.0
H4520 H 0.42799 0.53815 0.53207 0.0
H4521 H 0.43513 0.58381 0.47815 0.0
H4522 H 0.37976 0.54743 0.55062 0.0
H4523 H 0.39717 0.57327 0.571 0.0
H4524 H 0.40578 0.54432 0.56443 0.0
H4525 H 0.38968 0.60514 0.48228 0.0
H4526 H 0.41837 0.61807 0.48006 0.0
H4527 H 0.40547 0.62809 0.50688 0.0
C4528 C 0.90082 0.95371 0.54754 0.0
C4529 C 0.89936 0.92836 0.53909 0.0
C4530 C 0.92115 0.97116 0.54958 0.0
C4531 C 0.94058 0.96321 0.54289 0.0
C4532 C 0.9392 0.93766 0.53464 0.0
C4533 C 0.9188 0.92071 0.53289 0.0
C4534 C 0.92177 0.99816 0.55843 0.0
C4535 C 0.9593 0.92815 0.52723 0.0
C4536 C 0.98911 1.00433 0.52089 0.0
C4537 C 1.00514 1.0103 0.54113 0.0
C4538 C 0.96771 0.99027 0.52172 0.0
C4539 C 0.96217 0.98139 0.5432 0.0
C4540 C 0.97813 0.98809 0.56402 0.0
C4541 C 0.99934 1.00272 0.56283 0.0
C4542 C 0.95131 0.98412 0.49919 0.0
C4543 C 0.97314 0.97885 0.58719 0.0
H4544 H 0.88605 0.95998 0.55247 0.0
H4545 H 0.9181 0.90129 0.5263 0.0
H4546 H 0.93506 1.00617 0.57366 0.0
H4547 H 0.92564 1.00834 0.54345 0.0
H4548 H 0.90579 1.00126 0.56473 0.0
H4549 H 0.95572 0.90769 0.52207 0.0
H4550 H 0.96546 0.93592 0.51144 0.0
H4551 H 0.97281 0.93425 0.54243 0.0
H4552 H 0.99344 1.01045 0.50418 0.0
H4553 H 0.01171 1.00723 0.57848 0.0
H4554 H 0.93543 0.98887 0.5039 0.0
H4555 H 0.94778 0.96398 0.49174 0.0
H4556 H 0.95751 0.99404 0.48468 0.0
H4557 H 0.95792 0.98407 0.59362 0.0
H4558 H 0.98694 0.9863 0.60201 0.0
H4559 H 0.96999 0.95839 0.58356 0.0
C4560 C 0.90199 0.14163 0.25992 0.0
C4561 C 0.91469 0.13946 0.28125 0.0
C4562 C 0.89017 0.16124 0.25881 0.0
C4563 C 0.88945 0.17989 0.27972 0.0
C4564 C 0.90194 0.17757 0.30144 0.0
C4565 C 0.91428 0.15825 0.30185 0.0
C4566 C 0.87832 0.16199 0.23471 0.0
C4567 C 0.90211 0.19563 0.3248 0.0
C4568 C 0.8737 0.24324 0.26925 0.0
C4569 C 0.85125 0.24192 0.27436 0.0
C4570 C 0.88609 0.2245 0.27194 0.0
C4571 C 0.87631 0.20162 0.27868 0.0
C4572 C 0.85377 0.20009 0.28418 0.0
C4573 C 0.84221 0.21996 0.28284 0.0
C4574 C 0.91006 0.22937 0.26723 0.0
C4575 C 0.84125 0.17669 0.29069 0.0
H4576 H 0.90152 0.12794 0.24355 0.0
H4577 H 0.92328 0.15755 0.31885 0.0
H4578 H 0.86055 0.16136 0.23668 0.0
H4579 H 0.8853 0.17963 0.22905 0.0
H4580 H 0.87973 0.14647 0.22005 0.0
H4581 H 0.9131 0.19276 0.33998 0.0
H4582 H 0.90758 0.21482 0.32193 0.0
H4583 H 0.88507 0.19366 0.33029 0.0
H4584 H 0.88204 0.25943 0.26293 0.0
H4585 H 0.82574 0.21779 0.28812 0.0
H4586 H 0.91197 0.21725 0.24995 0.0
H4587 H 0.92034 0.22495 0.2821 0.0
H4588 H 0.91653 0.24888 0.2658 0.0
H4589 H 0.83807 0.16169 0.27426 0.0
H4590 H 0.82513 0.17869 0.29735 0.0
H4591 H 0.8512 0.1709 0.30486 0.0
C4592 C 0.71055 0.1169 0.99328 0.0
C4593 C 0.72905 0.11489 0.00774 0.0
C4594 C 0.6893 0.10918 0.99975 0.0
C4595 C 0.68668 0.09898 0.02102 0.0
C4596 C 0.70506 0.09454 0.03428 0.0
C4597 C 0.72619 0.10251 0.02739 0.0
C4598 C 0.66981 0.11331 0.98463 0.0
C4599 C 0.70247 0.0827 0.05643 0.0
C4600 C 0.63303 0.10724 0.04524 0.0
C4601 C 0.61903 0.08509 0.03327 0.0
C4602 C 0.65589 0.11123 0.04345 0.0
C4603 C 0.66446 0.09282 0.02887 0.0
C4604 C 0.65053 0.07008 0.0178 0.0
C4605 C 0.628 0.06687 0.01966 0.0
C4606 C 0.67059 0.13572 0.0556 0.0
C4607 C 0.65903 0.05016 1.00179 0.0
H4608 H 0.71277 0.12608 0.97786 0.0
H4609 H 0.74048 0.10077 0.03857 0.0
H4610 H 0.65742 0.09571 0.97828 0.0
H4611 H 0.66155 0.12625 0.99598 0.0
H4612 H 0.67479 0.12105 0.96838 0.0
H4613 H 0.71841 0.0798 0.06423 0.0
H4614 H 0.69569 0.0945 0.07074 0.0
H4615 H 0.69048 0.06462 0.05162 0.0
H4616 H 0.62606 0.12161 0.05526 0.0
H4617 H 0.61744 0.05093 0.0085 0.0
H4618 H 0.67562 0.14673 0.0415 0.0
H4619 H 0.68588 0.13296 0.06504 0.0
H4620 H 0.66209 0.14647 0.06905 0.0
H4621 H 0.66353 0.05615 0.98459 0.0
H4622 H 0.64652 0.0325 0.99695 0.0
H4623 H 0.67412 0.04678 0.01104 0.0
C4624 C 0.22286 0.47028 0.23511 0.0
C4625 C 0.23164 0.49346 0.22986 0.0
C4626 C 0.23701 0.45568 0.24164 0.0
C4627 C 0.26011 0.46496 0.24308 0.0
C4628 C 0.26871 0.48647 0.23414 0.0
C4629 C 0.25416 0.50021 0.22693 0.0
C4630 C 0.22733 0.43201 0.24982 0.0
C4631 C 0.29332 0.49686 0.23547 0.0
C4632 C 0.29522 0.45545 0.29648 0.0
C4633 C 0.30646 0.43847 0.28477 0.0
C4634 C 0.27971 0.46401 0.28303 0.0
C4635 C 0.2753 0.4549 0.25748 0.0
C4636 C 0.28672 0.43794 0.24557 0.0
C4637 C 0.30257 0.43032 0.25931 0.0
C4638 C 0.26797 0.48261 0.29614 0.0
C4639 C 0.28174 0.42728 0.21855 0.0
H4640 H 0.2053 0.46475 0.23671 0.0
H4641 H 0.26086 0.51785 0.22211 0.0
H4642 H 0.2372 0.41792 0.24479 0.0
H4643 H 0.22747 0.43573 0.26999 0.0
H4644 H 0.20993 0.42435 0.24173 0.0
H4645 H 0.29719 0.51222 0.22537 0.0
H4646 H 0.30009 0.50397 0.25487 0.0
H4647 H 0.30199 0.48231 0.22798 0.0
H4648 H 0.29793 0.46128 0.31618 0.0
H4649 H 0.31128 0.41705 0.25029 0.0
H4650 H 0.24985 0.47494 0.29373 0.0
H4651 H 0.27099 0.49951 0.28817 0.0
H4652 H 0.27352 0.48792 0.31601 0.0
H4653 H 0.26493 0.41506 0.21496 0.0
H4654 H 0.29384 0.4164 0.21173 0.0
H4655 H 0.2818 0.44207 0.20787 0.0
C4656 C 0.27845 0.45015 0.03766 0.0
C4657 C 0.27546 0.42498 0.03832 0.0
C4658 C 0.26032 0.46089 0.03417 0.0
C4659 C 0.23853 0.44628 0.03198 0.0
C4660 C 0.23535 0.42108 0.03373 0.0
C4661 C 0.25387 0.41061 0.03648 0.0
C4662 C 0.26453 0.48765 0.03173 0.0
C4663 C 0.21241 0.40502 0.03197 0.0
C4664 C 0.19473 0.48465 0.03862 0.0
C4665 C 0.18882 0.48518 0.01414 0.0
C4666 C 0.20994 0.47078 0.04478 0.0
C4667 C 0.21938 0.45719 0.02602 0.0
C4668 C 0.21218 0.45633 1.00128 0.0
C4669 C 0.19696 0.47025 0.99568 0.0
C4670 C 0.2169 0.47182 0.07136 0.0
C4671 C 0.22169 0.44211 0.98065 0.0
H4672 H 0.29507 0.46132 0.03879 0.0
H4673 H 0.25145 0.39114 0.03697 0.0
H4674 H 0.25774 0.489 0.0133 0.0
H4675 H 0.25593 0.49812 0.04524 0.0
H4676 H 0.28243 0.49661 0.03442 0.0
H4677 H 0.21269 0.38714 0.03753 0.0
H4678 H 0.2018 0.41466 0.04361 0.0
H4679 H 0.20462 0.40115 0.01288 0.0
H4680 H 0.18845 0.49614 0.05294 0.0
H4681 H 0.19208 0.4703 0.97673 0.0
H4682 H 0.23414 0.48273 0.07622 0.0
H4683 H 0.2166 0.45299 0.07477 0.0
H4684 H 0.20607 0.48047 0.08359 0.0
H4685 H 0.23946 0.45078 0.98075 0.0
H4686 H 0.21303 0.44167 0.96252 0.0
H4687 H 0.22067 0.42286 0.98308 0.0
C4688 C 0.89453 0.9926 0.27274 0.0
C4689 C 0.91711 0.99743 0.28192 0.0
C4690 C 0.87977 0.96891 0.27132 0.0
C4691 C 0.88721 0.94899 0.27948 0.0
C4692 C 0.90983 0.95399 0.28897 0.0
C4693 C 0.92412 0.97749 0.28993 0.0
C4694 C 0.85611 0.96505 0.26072 0.0
C4695 C 0.91921 0.93425 0.29816 0.0
C4696 C 0.84673 0.89204 0.29606 0.0
C4697 C 0.84679 0.87251 0.27644 0.0
C4698 C 0.85926 0.9167 0.29712 0.0
C4699 C 0.87196 0.92292 0.27778 0.0
C4700 C 0.87137 0.90332 0.25758 0.0
C4701 C 0.85939 0.87874 0.25741 0.0
C4702 C 0.85959 0.93599 0.3196 0.0
C4703 C 0.88376 0.90823 0.23603 0.0
H4704 H 0.88837 1.00721 0.26632 0.0
H4705 H 0.94123 0.98018 0.29722 0.0
H4706 H 0.85223 0.94924 0.24502 0.0
H4707 H 0.84481 0.96035 0.27458 0.0
H4708 H 0.85268 0.98166 0.2545 0.0
H4709 H 0.93666 0.94113 0.30637 0.0
H4710 H 0.90913 0.92705 0.31205 0.0
H4711 H 0.91854 0.91853 0.28289 0.0
H4712 H 0.83766 0.88782 0.31125 0.0
H4713 H 0.85994 0.86414 0.24214 0.0
H4714 H 0.85406 0.95203 0.31444 0.0
H4715 H 0.87678 0.94281 0.32858 0.0
H4716 H 0.84884 0.92876 0.33299 0.0
H4717 H 0.87854 0.9234 0.22864 0.0
H4718 H 0.88094 0.89166 0.22116 0.0
H4719 H 0.90177 0.91433 0.24187 0.0
C4720 C 0.74424 0.11999 0.75258 0.0
C4721 C 0.7293 0.11841 0.77037 0.0
C4722 C 0.75843 0.14236 0.75167 0.0
C4723 C 0.7579 0.16334 0.76933 0.0
C4724 C 0.74324 0.16183 0.78766 0.0
C4725 C 0.72885 0.13931 0.78778 0.0
C4726 C 0.77342 0.14375 0.73147 0.0
C4727 C 0.74247 0.18409 0.80687 0.0
C4728 C 0.80485 0.21906 0.78383 0.0
C4729 C 0.79489 0.23616 0.77487 0.0
C4730 C 0.79339 0.19457 0.78106 0.0
C4731 C 0.77197 0.18729 0.76824 0.0
C4732 C 0.76266 0.20417 0.75747 0.0
C4733 C 0.77379 0.22884 0.76215 0.0
C4734 C 0.80324 0.17731 0.79392 0.0
C4735 C 0.74036 0.19655 0.74248 0.0
H4736 H 0.74443 0.10388 0.73884 0.0
H4737 H 0.71731 0.13804 0.80148 0.0
H4738 H 0.76957 0.15721 0.72053 0.0
H4739 H 0.79095 0.15045 0.73929 0.0
H4740 H 0.77167 0.12561 0.71907 0.0
H4741 H 0.73171 0.17917 0.82116 0.0
H4742 H 0.75936 0.19319 0.81578 0.0
H4743 H 0.73602 0.19779 0.79818 0.0
H4744 H 0.8209 0.22528 0.7945 0.0
H4745 H 0.76557 0.24257 0.75686 0.0
H4746 H 0.80175 0.15922 0.78162 0.0
H4747 H 0.79394 0.1739 0.80972 0.0
H4748 H 0.82094 0.18506 0.80075 0.0
H4749 H 0.73979 0.17991 0.72828 0.0
H4750 H 0.73666 0.21143 0.73338 0.0
H4751 H 0.72713 0.1917 0.75431 0.0
loop_
_geom_bond_atom_site_label_1
_geom_bond_atom_site_label_2
_geom_bond_distance
_geom_bond_site_symmetry_2
_ccdc_geom_bond_type
Co0 O1 2.216 . S
Co0 O2 2.091 . S
Co0 O4 2.004 . S
Co0 O10 2.021 . S
Co0 O12 2.137 . S
Co0 O13 2.244 . S
O1 Co0 2.216 . S
O1 C8 1.247 . S
O2 Co0 2.091 . S
O2 C8 1.261 . S
C3 O12 1.247 . S
C3 O13 1.272 . S
O4 Co0 2.004 . S
O4 C9 1.259 . S
Co5 O6 2.061 . S
Co5 O11 2.052 . S
Co5 O13 2.135 . S
O6 Co5 2.061 . S
O6 C9 1.235 . S
C7 O10 1.238 . S
C7 O11 1.241 . S
C8 O1 1.247 . S
C8 O2 1.261 . S
C9 O4 1.259 . S
C9 O6 1.235 . S
O10 Co0 2.021 . S
O10 C7 1.238 . S
O11 Co5 2.052 . S
O11 C7 1.241 . S
O12 Co0 2.137 . S
O12 C3 1.247 . S
O13 Co0 2.244 . S
O13 C3 1.272 . S
O13 Co5 2.135 . S
Co14 O15 2.216 . S
Co14 O16 2.091 . S
Co14 O18 2.004 1_655 S
Co14 O24 2.021 . S
Co14 O26 2.137 . S
Co14 O27 2.244 1_655 S
O15 Co14 2.216 . S
O15 C22 1.247 . S
O16 Co14 2.091 . S
O16 C22 1.261 . S
C17 O26 1.247 1_455 S
C17 O27 1.272 . S
O18 Co14 2.004 1_455 S
O18 C23 1.259 . S
Co19 O20 2.061 . S
Co19 O25 2.052 . S
Co19 O27 2.135 . S
O20 Co19 2.061 . S
O20 C23 1.235 . S
C21 O24 1.238 . S
C21 O25 1.241 1_655 S
C22 O15 1.247 . S
C22 O16 1.261 . S
C23 O18 1.259 . S
C23 O20 1.235 . S
O24 Co14 2.021 . S
O24 C21 1.238 . S
O25 Co19 2.052 . S
O25 C21 1.241 1_455 S
O26 Co14 2.137 . S
O26 C17 1.247 1_655 S
O27 Co14 2.244 1_455 S
O27 C17 1.272 . S
O27 Co19 2.135 . S
Co28 O29 2.216 . S
Co28 O30 2.091 . S
Co28 O32 2.004 . S
Co28 O38 2.021 . S
Co28 O40 2.137 . S
Co28 O41 2.244 . S
O29 Co28 2.216 . S
O29 C36 1.247 . S
O30 Co28 2.091 . S
O30 C36 1.261 . S
C31 O40 1.247 . S
C31 O41 1.272 . S
O32 Co28 2.004 . S
O32 C37 1.259 . S
Co33 O34 2.061 . S
Co33 O39 2.052 . S
Co33 O41 2.135 . S
O34 Co33 2.061 . S
O34 C37 1.235 . S
C35 O38 1.238 . S
C35 O39 1.241 . S
C36 O29 1.247 . S
C36 O30 1.261 . S
C37 O32 1.259 . S
C37 O34 1.235 . S
O38 Co28 2.021 . S
O38 C35 1.238 . S
O39 Co33 2.052 . S
O39 C35 1.241 . S
O40 Co28 2.137 . S
O40 C31 1.247 . S
O41 Co28 2.244 . S
O41 C31 1.272 . S
O41 Co33 2.135 . S
Co42 O43 2.216 . S
Co42 O44 2.091 . S
Co42 O46 2.004 . S
Co42 O52 2.021 . S
Co42 O54 2.137 . S
Co42 O55 2.244 . S
O43 Co42 2.216 . S
O43 C50 1.247 . S
O44 Co42 2.091 . S
O44 C50 1.261 . S
C45 O54 1.247 . S
C45 O55 1.272 . S
O46 Co42 2.004 . S
O46 C51 1.259 . S
Co47 O48 2.061 . S
Co47 O53 2.052 . S
Co47 O55 2.135 . S
O48 Co47 2.061 . S
O48 C51 1.235 . S
C49 O52 1.238 . S
C49 O53 1.241 . S
C50 O43 1.247 . S
C50 O44 1.261 . S
C51 O46 1.259 . S
C51 O48 1.235 . S
O52 Co42 2.021 . S
O52 C49 1.238 . S
O53 Co47 2.052 . S
O53 C49 1.241 . S
O54 Co42 2.137 . S
O54 C45 1.247 . S
O55 Co42 2.244 . S
O55 C45 1.272 . S
O55 Co47 2.135 . S
Co56 O57 2.216 . S
Co56 O58 2.091 . S
Co56 O60 2.004 . S
Co56 O66 2.021 . S
Co56 O68 2.137 . S
Co56 O69 2.244 . S
O57 Co56 2.216 . S
O57 C64 1.247 . S
O58 Co56 2.091 . S
O58 C64 1.261 . S
C59 O68 1.247 . S
C59 O69 1.272 . S
O60 Co56 2.004 . S
O60 C65 1.259 . S
Co61 O62 2.061 . S
Co61 O67 2.052 . S
Co61 O69 2.135 . S
O62 Co61 2.061 . S
O62 C65 1.235 . S
C63 O66 1.238 . S
C63 O67 1.241 . S
C64 O57 1.247 . S
C64 O58 1.261 . S
C65 O60 1.259 . S
C65 O62 1.235 . S
O66 Co56 2.021 . S
O66 C63 1.238 . S
O67 Co61 2.052 . S
O67 C63 1.241 . S
O68 Co56 2.137 . S
O68 C59 1.247 . S
O69 Co56 2.244 . S
O69 C59 1.272 . S
O69 Co61 2.135 . S
Co70 O71 2.216 . S
Co70 O72 2.091 . S
Co70 O74 2.004 . S
Co70 O80 2.021 . S
Co70 O82 2.137 . S
Co70 O83 2.244 . S
O71 Co70 2.216 . S
O71 C78 1.247 . S
O72 Co70 2.091 . S
O72 C78 1.261 . S
C73 O82 1.247 . S
C73 O83 1.272 . S
O74 Co70 2.004 . S
O74 C79 1.259 . S
Co75 O76 2.061 . S
Co75 O81 2.052 . S
Co75 O83 2.135 . S
O76 Co75 2.061 . S
O76 C79 1.235 . S
C77 O80 1.238 . S
C77 O81 1.241 . S
C78 O71 1.247 . S
C78 O72 1.261 . S
C79 O74 1.259 . S
C79 O76 1.235 . S
O80 Co70 2.021 . S
O80 C77 1.238 . S
O81 Co75 2.052 . S
O81 C77 1.241 . S
O82 Co70 2.137 . S
O82 C73 1.247 . S
O83 Co70 2.244 . S
O83 C73 1.272 . S
O83 Co75 2.135 . S
Co84 O85 2.216 . S
Co84 O86 2.091 . S
Co84 O88 2.004 . S
Co84 O94 2.021 . S
Co84 O96 2.137 . S
Co84 O97 2.244 . S
O85 Co84 2.216 . S
O85 C92 1.247 . S
O86 Co84 2.091 . S
O86 C92 1.261 . S
C87 O96 1.247 . S
C87 O97 1.272 . S
O88 Co84 2.004 . S
O88 C93 1.259 . S
Co89 O90 2.061 . S
Co89 O95 2.052 . S
Co89 O97 2.135 . S
O90 Co89 2.061 . S
O90 C93 1.235 . S
C91 O94 1.238 . S
C91 O95 1.241 . S
C92 O85 1.247 . S
C92 O86 1.261 . S
C93 O88 1.259 . S
C93 O90 1.235 . S
O94 Co84 2.021 . S
O94 C91 1.238 . S
O95 Co89 2.052 . S
O95 C91 1.241 . S
O96 Co84 2.137 . S
O96 C87 1.247 . S
O97 Co84 2.244 . S
O97 C87 1.272 . S
O97 Co89 2.135 . S
Co98 O99 2.216 . S
Co98 O100 2.091 . S
Co98 O102 2.004 1_455 S
Co98 O108 2.021 . S
Co98 O110 2.137 . S
Co98 O111 2.244 . S
O99 Co98 2.216 . S
O99 C106 1.247 . S
O100 Co98 2.091 . S
O100 C106 1.261 . S
C101 O110 1.247 . S
C101 O111 1.272 . S
O102 Co98 2.004 1_655 S
O102 C107 1.259 . S
Co103 O104 2.061 . S
Co103 O109 2.052 1_655 S
Co103 O111 2.135 1_655 S
O104 Co103 2.061 . S
O104 C107 1.235 . S
C105 O108 1.238 . S
C105 O109 1.241 . S
C106 O99 1.247 . S
C106 O100 1.261 . S
C107 O102 1.259 . S
C107 O104 1.235 . S
O108 Co98 2.021 . S
O108 C105 1.238 . S
O109 Co103 2.052 1_455 S
O109 C105 1.241 . S
O110 Co98 2.137 . S
O110 C101 1.247 . S
O111 Co98 2.244 . S
O111 C101 1.272 . S
O111 Co103 2.135 1_455 S
Co112 O113 2.216 . S
Co112 O114 2.091 . S
Co112 O116 2.004 1_545 S
Co112 O122 2.021 . S
Co112 O124 2.137 . S
Co112 O125 2.244 . S
O113 Co112 2.216 . S
O113 C120 1.247 . S
O114 Co112 2.091 . S
O114 C120 1.261 . S
C115 O124 1.247 . S
C115 O125 1.272 . S
O116 Co112 2.004 1_565 S
O116 C121 1.259 . S
Co117 O118 2.061 . S
Co117 O123 2.052 1_565 S
Co117 O125 2.135 1_565 S
O118 Co117 2.061 . S
O118 C121 1.235 . S
C119 O122 1.238 . S
C119 O123 1.241 . S
C120 O113 1.247 . S
C120 O114 1.261 . S
C121 O116 1.259 . S
C121 O118 1.235 . S
O122 Co112 2.021 . S
O122 C119 1.238 . S
O123 Co117 2.052 1_545 S
O123 C119 1.241 . S
O124 Co112 2.137 . S
O124 C115 1.247 . S
O125 Co112 2.244 . S
O125 C115 1.272 . S
O125 Co117 2.135 1_545 S
Co126 O127 2.216 . S
Co126 O128 2.091 . S
Co126 O130 2.004 . S
Co126 O136 2.021 . S
Co126 O138 2.137 . S
Co126 O139 2.244 . S
O127 Co126 2.216 . S
O127 C134 1.247 . S
O128 Co126 2.091 . S
O128 C134 1.261 . S
C129 O138 1.247 . S
C129 O139 1.272 . S
O130 Co126 2.004 . S
O130 C135 1.259 . S
Co131 O132 2.061 . S
Co131 O137 2.052 . S
Co131 O139 2.135 . S
O132 Co131 2.061 . S
O132 C135 1.235 . S
C133 O136 1.238 . S
C133 O137 1.241 . S
C134 O127 1.247 . S
C134 O128 1.261 . S
C135 O130 1.259 . S
C135 O132 1.235 . S
O136 Co126 2.021 . S
O136 C133 1.238 . S
O137 Co131 2.052 . S
O137 C133 1.241 . S
O138 Co126 2.137 . S
O138 C129 1.247 . S
O139 Co126 2.244 . S
O139 C129 1.272 . S
O139 Co131 2.135 . S
Co140 O141 2.216 . S
Co140 O142 2.091 . S
Co140 O144 2.004 1_565 S
Co140 O150 2.021 . S
Co140 O152 2.137 . S
Co140 O153 2.244 1_565 S
O141 Co140 2.216 . S
O141 C148 1.247 . S
O142 Co140 2.091 . S
O142 C148 1.261 . S
C143 O152 1.247 1_545 S
C143 O153 1.272 . S
O144 Co140 2.004 1_545 S
O144 C149 1.259 . S
Co145 O146 2.061 . S
Co145 O151 2.052 . S
Co145 O153 2.135 . S
O146 Co145 2.061 . S
O146 C149 1.235 . S
C147 O150 1.238 . S
C147 O151 1.241 1_565 S
C148 O141 1.247 . S
C148 O142 1.261 . S
C149 O144 1.259 . S
C149 O146 1.235 . S
O150 Co140 2.021 . S
O150 C147 1.238 . S
O151 Co145 2.052 . S
O151 C147 1.241 1_545 S
O152 Co140 2.137 . S
O152 C143 1.247 1_565 S
O153 Co140 2.244 1_545 S
O153 C143 1.272 . S
O153 Co145 2.135 . S
Co154 O155 2.216 . S
Co154 O156 2.091 . S
Co154 O158 2.004 . S
Co154 O164 2.021 . S
Co154 O166 2.137 1_554 S
Co154 O167 2.244 1_554 S
O155 Co154 2.216 . S
O155 C162 1.247 . S
O156 Co154 2.091 . S
O156 C162 1.261 . S
C157 O166 1.247 . S
C157 O167 1.272 . S
O158 Co154 2.004 . S
O158 C163 1.259 . S
Co159 O160 2.061 . S
Co159 O165 2.052 . S
Co159 O167 2.135 1_554 S
O160 Co159 2.061 . S
O160 C163 1.235 . S
C161 O164 1.238 . S
C161 O165 1.241 . S
C162 O155 1.247 . S
C162 O156 1.261 . S
C163 O158 1.259 . S
C163 O160 1.235 . S
O164 Co154 2.021 . S
O164 C161 1.238 . S
O165 Co159 2.052 . S
O165 C161 1.241 . S
O166 Co154 2.137 1_556 S
O166 C157 1.247 . S
O167 Co154 2.244 1_556 S
O167 C157 1.272 . S
O167 Co159 2.135 1_556 S
Co168 O169 2.216 . S
Co168 O170 2.091 . S
Co168 O172 2.004 . S
Co168 O178 2.021 . S
Co168 O180 2.137 1_554 S
Co168 O181 2.244 . S
O169 Co168 2.216 . S
O169 C176 1.247 . S
O170 Co168 2.091 . S
O170 C176 1.261 . S
C171 O180 1.247 . S
C171 O181 1.272 1_556 S
O172 Co168 2.004 . S
O172 C177 1.259 . S
Co173 O174 2.061 . S
Co173 O179 2.052 . S
Co173 O181 2.135 . S
O174 Co173 2.061 . S
O174 C177 1.235 . S
C175 O178 1.238 . S
C175 O179 1.241 . S
C176 O169 1.247 . S
C176 O170 1.261 . S
C177 O172 1.259 . S
C177 O174 1.235 . S
O178 Co168 2.021 . S
O178 C175 1.238 . S
O179 Co173 2.052 . S
O179 C175 1.241 . S
O180 Co168 2.137 1_556 S
O180 C171 1.247 . S
O181 Co168 2.244 . S
O181 C171 1.272 1_554 S
O181 Co173 2.135 . S
Co182 O183 2.216 . S
Co182 O184 2.091 . S
Co182 O186 2.004 . S
Co182 O192 2.021 . S
Co182 O194 2.137 1_554 S
Co182 O195 2.244 . S
O183 Co182 2.216 . S
O183 C190 1.247 . S
O184 Co182 2.091 . S
O184 C190 1.261 . S
C185 O194 1.247 . S
C185 O195 1.272 1_556 S
O186 Co182 2.004 . S
O186 C191 1.259 . S
Co187 O188 2.061 . S
Co187 O193 2.052 . S
Co187 O195 2.135 . S
O188 Co187 2.061 . S
O188 C191 1.235 . S
C189 O192 1.238 . S
C189 O193 1.241 . S
C190 O183 1.247 . S
C190 O184 1.261 . S
C191 O186 1.259 . S
C191 O188 1.235 . S
O192 Co182 2.021 . S
O192 C189 1.238 . S
O193 Co187 2.052 . S
O193 C189 1.241 . S
O194 Co182 2.137 1_556 S
O194 C185 1.247 . S
O195 Co182 2.244 . S
O195 C185 1.272 1_554 S
O195 Co187 2.135 . S
Co196 O197 2.216 . S
Co196 O198 2.091 . S
Co196 O200 2.004 . S
Co196 O206 2.021 . S
Co196 O208 2.137 . S
Co196 O209 2.244 . S
O197 Co196 2.216 . S
O197 C204 1.247 . S
O198 Co196 2.091 . S
O198 C204 1.261 . S
C199 O208 1.247 . S
C199 O209 1.272 . S
O200 Co196 2.004 . S
O200 C205 1.259 . S
Co201 O202 2.061 . S
Co201 O207 2.052 . S
Co201 O209 2.135 . S
O202 Co201 2.061 . S
O202 C205 1.235 . S
C203 O206 1.238 . S
C203 O207 1.241 . S
C204 O197 1.247 . S
C204 O198 1.261 . S
C205 O200 1.259 . S
C205 O202 1.235 . S
O206 Co196 2.021 . S
O206 C203 1.238 . S
O207 Co201 2.052 . S
O207 C203 1.241 . S
O208 Co196 2.137 . S
O208 C199 1.247 . S
O209 Co196 2.244 . S
O209 C199 1.272 . S
O209 Co201 2.135 . S
Co210 O211 2.216 . S
Co210 O212 2.091 . S
Co210 O214 2.004 . S
Co210 O220 2.021 . S
Co210 O222 2.137 . S
Co210 O223 2.244 . S
O211 Co210 2.216 . S
O211 C218 1.247 . S
O212 Co210 2.091 . S
O212 C218 1.261 . S
C213 O222 1.247 . S
C213 O223 1.272 . S
O214 Co210 2.004 . S
O214 C219 1.259 . S
Co215 O216 2.061 . S
Co215 O221 2.052 . S
Co215 O223 2.135 . S
O216 Co215 2.061 . S
O216 C219 1.235 . S
C217 O220 1.238 . S
C217 O221 1.241 . S
C218 O211 1.247 . S
C218 O212 1.261 . S
C219 O214 1.259 . S
C219 O216 1.235 . S
O220 Co210 2.021 . S
O220 C217 1.238 . S
O221 Co215 2.052 . S
O221 C217 1.241 . S
O222 Co210 2.137 . S
O222 C213 1.247 . S
O223 Co210 2.244 . S
O223 C213 1.272 . S
O223 Co215 2.135 . S
Co224 O225 2.216 . S
Co224 O226 2.091 . S
Co224 O228 2.004 . S
Co224 O234 2.021 . S
Co224 O236 2.137 . S
Co224 O237 2.244 . S
O225 Co224 2.216 . S
O225 C232 1.247 . S
O226 Co224 2.091 . S
O226 C232 1.261 . S
C227 O236 1.247 . S
C227 O237 1.272 . S
O228 Co224 2.004 . S
O228 C233 1.259 . S
Co229 O230 2.061 . S
Co229 O235 2.052 . S
Co229 O237 2.135 . S
O230 Co229 2.061 . S
O230 C233 1.235 . S
C231 O234 1.238 . S
C231 O235 1.241 . S
C232 O225 1.247 . S
C232 O226 1.261 . S
C233 O228 1.259 . S
C233 O230 1.235 . S
O234 Co224 2.021 . S
O234 C231 1.238 . S
O235 Co229 2.052 . S
O235 C231 1.241 . S
O236 Co224 2.137 . S
O236 C227 1.247 . S
O237 Co224 2.244 . S
O237 C227 1.272 . S
O237 Co229 2.135 . S
Co238 O239 2.216 . S
Co238 O240 2.091 . S
Co238 O242 2.004 . S
Co238 O248 2.021 . S
Co238 O250 2.137 . S
Co238 O251 2.244 . S
O239 Co238 2.216 . S
O239 C246 1.247 . S
O240 Co238 2.091 . S
O240 C246 1.261 . S
C241 O250 1.247 . S
C241 O251 1.272 . S
O242 Co238 2.004 . S
O242 C247 1.259 . S
Co243 O244 2.061 . S
Co243 O249 2.052 . S
Co243 O251 2.135 . S
O244 Co243 2.061 . S
O244 C247 1.235 . S
C245 O248 1.238 . S
C245 O249 1.241 . S
C246 O239 1.247 . S
C246 O240 1.261 . S
C247 O242 1.259 . S
C247 O244 1.235 . S
O248 Co238 2.021 . S
O248 C245 1.238 . S
O249 Co243 2.052 . S
O249 C245 1.241 . S
O250 Co238 2.137 . S
O250 C241 1.247 . S
O251 Co238 2.244 . S
O251 C241 1.272 . S
O251 Co243 2.135 . S
Co252 O253 2.216 . S
Co252 O254 2.091 . S
Co252 O256 2.004 . S
Co252 O262 2.021 . S
Co252 O264 2.137 . S
Co252 O265 2.244 . S
O253 Co252 2.216 . S
O253 C260 1.247 . S
O254 Co252 2.091 . S
O254 C260 1.261 . S
C255 O264 1.247 . S
C255 O265 1.272 . S
O256 Co252 2.004 . S
O256 C261 1.259 . S
Co257 O258 2.061 . S
Co257 O263 2.052 . S
Co257 O265 2.135 . S
O258 Co257 2.061 . S
O258 C261 1.235 . S
C259 O262 1.238 . S
C259 O263 1.241 . S
C260 O253 1.247 . S
C260 O254 1.261 . S
C261 O256 1.259 . S
C261 O258 1.235 . S
O262 Co252 2.021 . S
O262 C259 1.238 . S
O263 Co257 2.052 . S
O263 C259 1.241 . S
O264 Co252 2.137 . S
O264 C255 1.247 . S
O265 Co252 2.244 . S
O265 C255 1.272 . S
O265 Co257 2.135 . S
Co266 O267 2.216 . S
Co266 O268 2.091 . S
Co266 O270 2.004 . S
Co266 O276 2.021 . S
Co266 O278 2.137 . S
Co266 O279 2.244 . S
O267 Co266 2.216 . S
O267 C274 1.247 . S
O268 Co266 2.091 . S
O268 C274 1.261 . S
C269 O278 1.247 . S
C269 O279 1.272 . S
O270 Co266 2.004 . S
O270 C275 1.259 . S
Co271 O272 2.061 . S
Co271 O277 2.052 . S
Co271 O279 2.135 . S
O272 Co271 2.061 . S
O272 C275 1.235 . S
C273 O276 1.238 . S
C273 O277 1.241 . S
C274 O267 1.247 . S
C274 O268 1.261 . S
C275 O270 1.259 . S
C275 O272 1.235 . S
O276 Co266 2.021 . S
O276 C273 1.238 . S
O277 Co271 2.052 . S
O277 C273 1.241 . S
O278 Co266 2.137 . S
O278 C269 1.247 . S
O279 Co266 2.244 . S
O279 C269 1.272 . S
O279 Co271 2.135 . S
Co280 O281 2.216 . S
Co280 O282 2.091 . S
Co280 O284 2.004 . S
Co280 O290 2.021 1_556 S
Co280 O292 2.137 . S
Co280 O293 2.244 . S
O281 Co280 2.216 . S
O281 C288 1.246 . S
O282 Co280 2.091 . S
O282 C288 1.261 . S
C283 O292 1.247 . S
C283 O293 1.272 . S
O284 Co280 2.004 . S
O284 C289 1.259 . S
Co285 O286 2.061 . S
Co285 O291 2.052 . S
Co285 O293 2.135 1_554 S
O286 Co285 2.061 . S
O286 C289 1.235 1_554 S
C287 O290 1.238 . S
C287 O291 1.241 . S
C288 O281 1.246 . S
C288 O282 1.261 . S
C289 O284 1.259 . S
C289 O286 1.235 1_556 S
O290 Co280 2.021 1_554 S
O290 C287 1.238 . S
O291 Co285 2.052 . S
O291 C287 1.241 . S
O292 Co280 2.137 . S
O292 C283 1.247 . S
O293 Co280 2.244 . S
O293 C283 1.272 . S
O293 Co285 2.135 1_556 S
Co294 O295 2.216 . S
Co294 O296 2.091 . S
Co294 O298 2.004 . S
Co294 O304 2.021 . S
Co294 O306 2.137 . S
Co294 O307 2.244 . S
O295 Co294 2.216 . S
O295 C302 1.247 . S
O296 Co294 2.091 . S
O296 C302 1.261 . S
C297 O306 1.247 . S
C297 O307 1.272 . S
O298 Co294 2.004 . S
O298 C303 1.259 . S
Co299 O300 2.061 . S
Co299 O305 2.052 . S
Co299 O307 2.135 . S
O300 Co299 2.061 . S
O300 C303 1.235 . S
C301 O304 1.238 . S
C301 O305 1.241 . S
C302 O295 1.247 . S
C302 O296 1.261 . S
C303 O298 1.259 . S
C303 O300 1.235 . S
O304 Co294 2.021 . S
O304 C301 1.238 . S
O305 Co299 2.052 . S
O305 C301 1.241 . S
O306 Co294 2.137 . S
O306 C297 1.247 . S
O307 Co294 2.244 . S
O307 C297 1.272 . S
O307 Co299 2.135 . S
Co308 O309 2.216 . S
Co308 O310 2.091 . S
Co308 O312 2.004 . S
Co308 O318 2.021 . S
Co308 O320 2.137 . S
Co308 O321 2.244 . S
O309 Co308 2.216 . S
O309 C316 1.247 . S
O310 Co308 2.091 . S
O310 C316 1.261 . S
C311 O320 1.247 . S
C311 O321 1.272 . S
O312 Co308 2.004 . S
O312 C317 1.259 . S
Co313 O314 2.061 . S
Co313 O319 2.052 . S
Co313 O321 2.135 . S
O314 Co313 2.061 . S
O314 C317 1.235 . S
C315 O318 1.238 . S
C315 O319 1.241 . S
C316 O309 1.247 . S
C316 O310 1.261 . S
C317 O312 1.259 . S
C317 O314 1.235 . S
O318 Co308 2.021 . S
O318 C315 1.238 . S
O319 Co313 2.052 . S
O319 C315 1.241 . S
O320 Co308 2.137 . S
O320 C311 1.247 . S
O321 Co308 2.244 . S
O321 C311 1.272 . S
O321 Co313 2.135 . S
Co322 O323 2.216 . S
Co322 O324 2.091 . S
Co322 O326 2.004 . S
Co322 O332 2.021 . S
Co322 O334 2.137 . S
Co322 O335 2.244 . S
O323 Co322 2.216 . S
O323 C330 1.247 . S
O324 Co322 2.091 . S
O324 C330 1.261 . S
C325 O334 1.247 . S
C325 O335 1.272 . S
O326 Co322 2.004 . S
O326 C331 1.259 . S
Co327 O328 2.061 . S
Co327 O333 2.052 . S
Co327 O335 2.135 . S
O328 Co327 2.061 . S
O328 C331 1.235 . S
C329 O332 1.238 . S
C329 O333 1.241 . S
C330 O323 1.247 . S
C330 O324 1.261 . S
C331 O326 1.259 . S
C331 O328 1.235 . S
O332 Co322 2.021 . S
O332 C329 1.238 . S
O333 Co327 2.052 . S
O333 C329 1.241 . S
O334 Co322 2.137 . S
O334 C325 1.247 . S
O335 Co322 2.244 . S
O335 C325 1.272 . S
O335 Co327 2.135 . S
Tb336 N367 2.660 1_545 S
Tb336 N374 2.600 1_544 S
Tb336 O380 2.546 1_454 S
Tb336 O381 2.610 . S
Tb336 O383 2.320 . S
Tb336 O384 2.552 . S
Tb336 O385 2.413 1_455 S
Tb336 O387 2.362 . S
Tb336 O388 2.421 1_554 S
Tb336 C400 2.833 1_454 S
C337 C340 1.432 . S
C337 C341 1.414 . S
C337 N344 1.359 . S
C338 C340 1.417 . S
C338 C342 1.432 . S
C338 C350 1.456 . S
C339 C341 1.444 . S
C339 C342 1.317 . S
C339 H362 0.929 . S
C340 C337 1.432 . S
C340 C338 1.417 . S
C340 N348 1.360 . S
C341 C337 1.414 . S
C341 C339 1.444 . S
C341 C346 1.385 . S
C342 C338 1.432 . S
C342 C339 1.317 . S
C342 H354 0.930 . S
C343 C345 1.392 . S
C343 C346 1.370 . S
C343 H355 0.931 . S
N344 C337 1.359 . S
N344 C345 1.327 . S
N344 Tb347 2.600 . S
C345 C343 1.392 . S
C345 N344 1.327 . S
C345 H352 0.930 . S
C346 C341 1.385 . S
C346 C343 1.370 . S
C346 H365 0.930 . S
Tb347 N344 2.600 . S
Tb347 N348 2.660 . S
Tb347 O381 2.362 . S
Tb347 O382 2.421 . S
Tb347 O386 2.546 . S
Tb347 O387 2.610 . S
Tb347 O389 2.320 1_554 S
Tb347 O390 2.552 . S
Tb347 O391 2.413 . S
Tb347 C411 2.833 . S
N348 C340 1.360 . S
N348 Tb347 2.660 . S
N348 C349 1.305 1_554 S
C349 N348 1.305 1_556 S
C349 C351 1.407 . S
C349 H356 0.930 . S
C350 C338 1.456 . S
C350 C351 1.326 1_554 S
C350 H358 0.905 1_554 S
C351 C349 1.407 . S
C351 C350 1.326 1_556 S
C351 H353 0.930 . S
H352 C345 0.930 . S
H353 C351 0.930 . S
H354 C342 0.930 . S
H355 C343 0.931 . S
H356 C349 0.930 . S
H357 C371 0.930 . S
H358 C350 0.905 1_556 S
H359 C377 0.930 . S
H360 C368 0.930 . S
H361 C375 0.931 . S
H362 C339 0.929 . S
H363 C369 0.930 . S
H364 C402 0.930 1_554 S
H365 C346 0.930 . S
H366 C401 0.929 . S
N367 Tb336 2.660 1_565 S
N367 C368 1.305 . S
N367 C372 1.366 . S
C368 H360 0.930 . S
C368 N367 1.305 . S
C368 C371 1.407 . S
C369 H363 0.930 . S
C369 C370 1.410 . S
C369 C371 1.345 1_655 S
C370 C369 1.410 . S
C370 C372 1.409 1_655 S
C370 C402 1.432 1_554 S
C371 H357 0.930 . S
C371 C368 1.407 . S
C371 C369 1.345 1_455 S
C372 N367 1.366 . S
C372 C370 1.409 1_455 S
C372 C376 1.433 1_554 S
H373 C378 0.930 . S
N374 Tb336 2.600 1_566 S
N374 C376 1.362 . S
N374 C377 1.327 . S
C375 H361 0.931 . S
C375 C377 1.383 1_655 S
C375 C378 1.381 . S
C376 C372 1.433 1_556 S
C376 N374 1.362 . S
C376 C379 1.411 1_455 S
C377 H359 0.930 . S
C377 N374 1.327 . S
C377 C375 1.383 1_455 S
C378 H373 0.930 . S
C378 C375 1.381 . S
C378 C379 1.385 . S
C379 C376 1.411 1_655 S
C379 C378 1.385 . S
C379 C401 1.444 . S
O380 Tb336 2.546 1_656 S
O380 C400 1.251 . S
O381 Tb336 2.610 . S
O381 Tb347 2.362 . S
O381 C392 1.283 . S
O382 Tb347 2.421 . S
O382 C399 1.262 . S
O383 Tb336 2.320 . S
O383 C399 1.260 . S
O384 Tb336 2.552 . S
O384 C392 1.243 . S
O385 Tb336 2.413 1_655 S
O385 C400 1.256 1_554 S
O386 Tb347 2.546 . S
O386 C411 1.251 . S
O387 Tb336 2.362 . S
O387 Tb347 2.610 . S
O387 C403 1.283 1_545 S
O388 Tb336 2.421 1_556 S
O388 C410 1.262 . S
O389 Tb347 2.320 1_556 S
O389 C410 1.260 . S
O390 Tb347 2.552 . S
O390 C403 1.243 1_545 S
O391 Tb347 2.413 . S
O391 C411 1.256 . S
C392 O381 1.283 . S
C392 O384 1.243 . S
C393 C395 1.382 1_556 S
C393 C397 1.393 . S
C393 C400 1.500 . S
C394 C395 1.396 1_556 S
C394 C396 1.403 . S
C395 C393 1.382 1_554 S
C395 C394 1.396 1_554 S
C395 H412 0.930 . S
C396 C394 1.403 . S
C396 C398 1.392 . S
C396 H413 0.931 . S
C397 C393 1.393 . S
C397 C398 1.401 . S
C397 H414 0.930 . S
C398 C396 1.392 . S
C398 C397 1.401 . S
C398 H415 0.930 . S
C399 O382 1.262 . S
C399 O383 1.260 . S
C400 Tb336 2.833 1_656 S
C400 O380 1.251 . S
C400 O385 1.256 1_556 S
C400 C393 1.500 . S
C401 H366 0.929 . S
C401 C379 1.444 . S
C401 C402 1.317 . S
C402 H364 0.930 1_556 S
C402 C370 1.432 1_556 S
C402 C401 1.317 . S
C403 O387 1.283 1_565 S
C403 O390 1.243 1_565 S
C404 C405 1.382 . S
C404 C408 1.393 . S
C404 C411 1.500 . S
C405 C404 1.382 . S
C405 C406 1.400 . S
C405 H416 0.930 . S
C406 C405 1.400 . S
C406 C407 1.384 . S
C407 C406 1.384 . S
C407 C409 1.392 . S
C407 H417 0.931 . S
C408 C404 1.393 . S
C408 C409 1.401 . S
C408 H418 0.930 . S
C409 C407 1.392 . S
C409 C408 1.401 . S
C409 H419 0.930 . S
C410 O388 1.262 . S
C410 O389 1.260 . S
C411 Tb347 2.833 . S
C411 O386 1.251 . S
C411 O391 1.256 . S
C411 C404 1.500 . S
H412 C395 0.930 . S
H413 C396 0.931 . S
H414 C397 0.930 . S
H415 C398 0.930 . S
H416 C405 0.930 . S
H417 C407 0.931 . S
H418 C408 0.930 . S
H419 C409 0.930 . S
Tb420 N451 2.660 . S
Tb420 N458 2.600 . S
Tb420 O464 2.546 . S
Tb420 O465 2.610 . S
Tb420 O467 2.320 . S
Tb420 O468 2.552 . S
Tb420 O469 2.413 . S
Tb420 O471 2.362 . S
Tb420 O472 2.421 . S
Tb420 C484 2.833 . S
C421 C424 1.432 . S
C421 C425 1.414 . S
C421 N428 1.359 . S
C422 C424 1.417 . S
C422 C426 1.432 . S
C422 C434 1.410 . S
C423 C425 1.444 . S
C423 C426 1.317 . S
C423 H446 0.929 . S
C424 C421 1.432 . S
C424 C422 1.417 . S
C424 N432 1.360 . S
C425 C421 1.414 . S
C425 C423 1.444 . S
C425 C430 1.385 . S
C426 C422 1.432 . S
C426 C423 1.317 . S
C426 H438 0.930 . S
C427 C429 1.392 . S
C427 C430 1.370 . S
C427 H439 0.931 . S
N428 C421 1.359 . S
N428 C429 1.327 . S
N428 Tb431 2.600 . S
C429 C427 1.392 . S
C429 N428 1.327 . S
C429 H436 0.930 . S
C430 C425 1.385 . S
C430 C427 1.370 . S
C430 H449 0.930 . S
Tb431 N428 2.600 . S
Tb431 N432 2.660 . S
Tb431 O465 2.362 . S
Tb431 O466 2.421 . S
Tb431 O470 2.546 . S
Tb431 O471 2.610 . S
Tb431 O473 2.320 . S
Tb431 O474 2.552 . S
Tb431 O475 2.413 . S
Tb431 C495 2.833 . S
N432 C424 1.360 . S
N432 Tb431 2.660 . S
N432 C433 1.305 . S
C433 N432 1.305 . S
C433 C435 1.407 . S
C433 H440 0.930 . S
C434 C422 1.410 . S
C434 C435 1.345 . S
C434 H442 0.930 . S
C435 C433 1.407 . S
C435 C434 1.345 . S
C435 H437 0.930 . S
H436 C429 0.930 . S
H437 C435 0.930 . S
H438 C426 0.930 . S
H439 C427 0.931 . S
H440 C433 0.930 . S
H441 C455 0.930 . S
H442 C434 0.930 . S
H443 C461 0.930 . S
H444 C452 0.930 . S
H445 C459 0.931 . S
H446 C423 0.929 . S
H447 C453 0.930 . S
H448 C486 0.930 . S
H449 C430 0.930 . S
H450 C485 0.929 . S
N451 Tb420 2.660 . S
N451 C452 1.305 . S
N451 C456 1.360 . S
C452 H444 0.930 . S
C452 N451 1.305 . S
C452 C455 1.407 . S
C453 H447 0.930 . S
C453 C454 1.410 . S
C453 C455 1.345 . S
C454 C453 1.410 . S
C454 C456 1.417 . S
C454 C486 1.432 . S
C455 H441 0.930 . S
C455 C452 1.407 . S
C455 C453 1.345 . S
C456 N451 1.360 . S
C456 C454 1.417 . S
C456 C460 1.432 . S
H457 C462 0.930 . S
N458 Tb420 2.600 . S
N458 C460 1.359 . S
N458 C461 1.327 . S
C459 H445 0.931 . S
C459 C461 1.392 . S
C459 C462 1.370 . S
C460 C456 1.432 . S
C460 N458 1.359 . S
C460 C463 1.414 . S
C461 H443 0.930 . S
C461 N458 1.327 . S
C461 C459 1.392 . S
C462 H457 0.930 . S
C462 C459 1.370 . S
C462 C463 1.385 . S
C463 C460 1.414 . S
C463 C462 1.385 . S
C463 C485 1.444 . S
O464 Tb420 2.546 . S
O464 C484 1.251 . S
O465 Tb420 2.610 . S
O465 Tb431 2.362 . S
O465 C476 1.283 . S
O466 Tb431 2.421 . S
O466 C483 1.262 . S
O467 Tb420 2.320 . S
O467 C483 1.260 . S
O468 Tb420 2.552 . S
O468 C476 1.243 . S
O469 Tb420 2.413 . S
O469 C484 1.256 . S
O470 Tb431 2.546 . S
O470 C495 1.251 . S
O471 Tb420 2.362 . S
O471 Tb431 2.610 . S
O471 C487 1.283 . S
O472 Tb420 2.421 . S
O472 C494 1.262 . S
O473 Tb431 2.320 . S
O473 C494 1.260 . S
O474 Tb431 2.552 . S
O474 C487 1.243 . S
O475 Tb431 2.413 . S
O475 C495 1.256 . S
C476 O465 1.283 . S
C476 O468 1.243 . S
C477 C479 1.382 . S
C477 C481 1.393 . S
C477 C484 1.500 . S
C478 C479 1.400 . S
C478 C480 1.384 . S
C479 C477 1.382 . S
C479 C478 1.400 . S
C479 H496 0.930 . S
C480 C478 1.384 . S
C480 C482 1.392 . S
C480 H497 0.931 . S
C481 C477 1.393 . S
C481 C482 1.401 . S
C481 H498 0.930 . S
C482 C480 1.392 . S
C482 C481 1.401 . S
C482 H499 0.930 . S
C483 O466 1.262 . S
C483 O467 1.260 . S
C484 Tb420 2.833 . S
C484 O464 1.251 . S
C484 O469 1.256 . S
C484 C477 1.500 . S
C485 H450 0.929 . S
C485 C463 1.444 . S
C485 C486 1.317 . S
C486 H448 0.930 . S
C486 C454 1.432 . S
C486 C485 1.317 . S
C487 O471 1.283 . S
C487 O474 1.243 . S
C488 C489 1.382 . S
C488 C492 1.393 . S
C488 C495 1.500 . S
C489 C488 1.382 . S
C489 C490 1.400 . S
C489 H500 0.930 . S
C490 C489 1.400 . S
C490 C491 1.384 . S
C491 C490 1.384 . S
C491 C493 1.392 . S
C491 H501 0.931 . S
C492 C488 1.393 . S
C492 C493 1.401 . S
C492 H502 0.930 . S
C493 C491 1.392 . S
C493 C492 1.401 . S
C493 H503 0.930 . S
C494 O472 1.262 . S
C494 O473 1.260 . S
C495 Tb431 2.833 . S
C495 O470 1.251 . S
C495 O475 1.256 . S
C495 C488 1.500 . S
H496 C479 0.930 . S
H497 C480 0.931 . S
H498 C481 0.930 . S
H499 C482 0.930 . S
H500 C489 0.930 . S
H501 C491 0.931 . S
H502 C492 0.930 . S
H503 C493 0.930 . S
Tb504 N535 2.660 . S
Tb504 N542 2.600 . S
Tb504 O548 2.546 . S
Tb504 O549 2.610 . S
Tb504 O551 2.320 . S
Tb504 O552 2.552 1_545 S
Tb504 O553 2.413 . S
Tb504 O555 2.362 . S
Tb504 O556 2.421 . S
Tb504 C568 2.833 . S
C505 C508 1.432 . S
C505 C509 1.414 . S
C505 N512 1.359 1_565 S
C506 C508 1.417 . S
C506 C510 1.432 . S
C506 C518 1.410 . S
C507 C509 1.444 . S
C507 C510 1.317 . S
C507 H530 0.929 . S
C508 C505 1.432 . S
C508 C506 1.417 . S
C508 N516 1.360 . S
C509 C505 1.414 . S
C509 C507 1.444 . S
C509 C514 1.385 . S
C510 C506 1.432 . S
C510 C507 1.317 . S
C510 H522 0.930 . S
C511 C513 1.390 1_565 S
C511 C514 1.372 . S
C511 H523 0.930 1_565 S
N512 C505 1.359 1_545 S
N512 C513 1.327 . S
N512 Tb515 2.600 . S
C513 C511 1.390 1_545 S
C513 N512 1.327 . S
C513 H520 0.930 . S
C514 C509 1.385 . S
C514 C511 1.372 . S
C514 H533 0.930 . S
Tb515 N512 2.600 . S
Tb515 N516 2.660 1_545 S
Tb515 O549 2.362 . S
Tb515 O550 2.421 . S
Tb515 O554 2.546 . S
Tb515 O555 2.610 . S
Tb515 O557 2.320 . S
Tb515 O558 2.552 . S
Tb515 O559 2.413 . S
Tb515 C579 2.833 . S
N516 C508 1.360 . S
N516 Tb515 2.660 1_565 S
N516 C517 1.305 . S
C517 N516 1.305 . S
C517 C519 1.407 . S
C517 H524 0.930 . S
C518 C506 1.410 . S
C518 C519 1.345 . S
C518 H526 0.930 . S
C519 C517 1.407 . S
C519 C518 1.345 . S
C519 H521 0.930 . S
H520 C513 0.930 . S
H521 C519 0.930 . S
H522 C510 0.930 . S
H523 C511 0.930 1_545 S
H524 C517 0.930 . S
H525 C539 0.930 . S
H526 C518 0.930 . S
H527 C545 0.930 . S
H528 C536 0.930 . S
H529 C543 0.931 . S
H530 C507 0.929 . S
H531 C537 0.930 . S
H532 C570 0.930 . S
H533 C514 0.930 . S
H534 C569 0.929 . S
N535 Tb504 2.660 . S
N535 C536 1.305 . S
N535 C540 1.360 . S
C536 H528 0.930 . S
C536 N535 1.305 . S
C536 C539 1.407 . S
C537 H531 0.930 . S
C537 C538 1.410 . S
C537 C539 1.345 . S
C538 C537 1.410 . S
C538 C540 1.417 . S
C538 C570 1.432 . S
C539 H525 0.930 . S
C539 C536 1.407 . S
C539 C537 1.345 . S
C540 N535 1.360 . S
C540 C538 1.417 . S
C540 C544 1.432 . S
H541 C546 0.930 . S
N542 Tb504 2.600 . S
N542 C544 1.359 . S
N542 C545 1.327 . S
C543 H529 0.931 . S
C543 C545 1.392 . S
C543 C546 1.370 . S
C544 C540 1.432 . S
C544 N542 1.359 . S
C544 C547 1.414 . S
C545 H527 0.930 . S
C545 N542 1.327 . S
C545 C543 1.392 . S
C546 H541 0.930 . S
C546 C543 1.370 . S
C546 C547 1.385 . S
C547 C544 1.414 . S
C547 C546 1.385 . S
C547 C569 1.444 . S
O548 Tb504 2.546 . S
O548 C568 1.251 . S
O549 Tb504 2.610 . S
O549 Tb515 2.362 . S
O549 C560 1.283 1_545 S
O550 Tb515 2.421 . S
O550 C567 1.262 . S
O551 Tb504 2.320 . S
O551 C567 1.260 . S
O552 Tb504 2.552 1_565 S
O552 C560 1.243 . S
O553 Tb504 2.413 . S
O553 C568 1.256 . S
O554 Tb515 2.546 . S
O554 C579 1.251 . S
O555 Tb504 2.362 . S
O555 Tb515 2.610 . S
O555 C571 1.283 . S
O556 Tb504 2.421 . S
O556 C578 1.262 . S
O557 Tb515 2.320 . S
O557 C578 1.260 . S
O558 Tb515 2.552 . S
O558 C571 1.243 . S
O559 Tb515 2.413 . S
O559 C579 1.256 . S
C560 O549 1.283 1_565 S
C560 O552 1.243 . S
C561 C563 1.382 1_545 S
C561 C565 1.393 . S
C561 C568 1.500 . S
C562 C563 1.400 . S
C562 C564 1.384 . S
C563 C561 1.382 1_565 S
C563 C562 1.400 . S
C563 H580 0.930 . S
C564 C562 1.384 . S
C564 C566 1.392 . S
C564 H581 0.931 . S
C565 C561 1.393 . S
C565 C566 1.401 1_545 S
C565 H582 0.930 . S
C566 C564 1.392 . S
C566 C565 1.401 1_565 S
C566 H583 0.930 . S
C567 O550 1.262 . S
C567 O551 1.260 . S
C568 Tb504 2.833 . S
C568 O548 1.251 . S
C568 O553 1.256 . S
C568 C561 1.500 . S
C569 H534 0.929 . S
C569 C547 1.444 . S
C569 C570 1.317 . S
C570 H532 0.930 . S
C570 C538 1.432 . S
C570 C569 1.317 . S
C571 O555 1.283 . S
C571 O558 1.243 . S
C572 C573 1.382 . S
C572 C576 1.393 . S
C572 C579 1.500 . S
C573 C572 1.382 . S
C573 C574 1.400 . S
C573 H584 0.930 . S
C574 C573 1.400 . S
C574 C575 1.384 . S
C575 C574 1.384 . S
C575 C577 1.392 . S
C575 H585 0.931 . S
C576 C572 1.393 . S
C576 C577 1.401 . S
C576 H586 0.930 . S
C577 C575 1.392 . S
C577 C576 1.401 . S
C577 H587 0.930 . S
C578 O556 1.262 . S
C578 O557 1.260 . S
C579 Tb515 2.833 . S
C579 O554 1.251 . S
C579 O559 1.256 . S
C579 C572 1.500 . S
H580 C563 0.930 . S
H581 C564 0.931 . S
H582 C565 0.930 . S
H583 C566 0.930 . S
H584 C573 0.930 . S
H585 C575 0.931 . S
H586 C576 0.930 . S
H587 C577 0.930 . S
Tb588 N619 2.660 . S
Tb588 N626 2.600 . S
Tb588 O632 2.546 . S
Tb588 O633 2.610 . S
Tb588 O635 2.320 . S
Tb588 O636 2.552 . S
Tb588 O637 2.413 . S
Tb588 O639 2.362 . S
Tb588 O640 2.421 . S
Tb588 C652 2.833 . S
C589 C592 1.432 . S
C589 C593 1.414 . S
C589 N596 1.359 . S
C590 C592 1.417 . S
C590 C594 1.432 . S
C590 C602 1.410 . S
C591 C593 1.444 . S
C591 C594 1.317 . S
C591 H614 0.929 . S
C592 C589 1.432 . S
C592 C590 1.417 . S
C592 N600 1.360 . S
C593 C589 1.414 . S
C593 C591 1.444 . S
C593 C598 1.385 . S
C594 C590 1.432 . S
C594 C591 1.317 . S
C594 H606 0.930 . S
C595 C597 1.392 . S
C595 C598 1.370 . S
C595 H607 0.931 . S
N596 C589 1.359 . S
N596 C597 1.327 . S
N596 Tb599 2.600 . S
C597 C595 1.392 . S
C597 N596 1.327 . S
C597 H604 0.930 . S
C598 C593 1.385 . S
C598 C595 1.370 . S
C598 H617 0.930 . S
Tb599 N596 2.600 . S
Tb599 N600 2.660 . S
Tb599 O633 2.362 . S
Tb599 O634 2.421 . S
Tb599 O638 2.546 . S
Tb599 O639 2.610 . S
Tb599 O641 2.320 . S
Tb599 O642 2.552 . S
Tb599 O643 2.413 . S
Tb599 C663 2.833 . S
N600 C592 1.360 . S
N600 Tb599 2.660 . S
N600 C601 1.305 . S
C601 N600 1.305 . S
C601 C603 1.407 . S
C601 H608 0.930 . S
C602 C590 1.410 . S
C602 C603 1.345 . S
C602 H610 0.930 . S
C603 C601 1.407 . S
C603 C602 1.345 . S
C603 H605 0.930 . S
H604 C597 0.930 . S
H605 C603 0.930 . S
H606 C594 0.930 . S
H607 C595 0.931 . S
H608 C601 0.930 . S
H609 C623 0.930 . S
H610 C602 0.930 . S
H611 C629 0.930 . S
H612 C620 0.930 . S
H613 C627 0.931 . S
H614 C591 0.929 . S
H615 C621 0.930 . S
H616 C654 0.930 . S
H617 C598 0.930 . S
H618 C653 0.929 . S
N619 Tb588 2.660 . S
N619 C620 1.305 . S
N619 C624 1.360 . S
C620 H612 0.930 . S
C620 N619 1.305 . S
C620 C623 1.407 . S
C621 H615 0.930 . S
C621 C622 1.410 . S
C621 C623 1.345 . S
C622 C621 1.410 . S
C622 C624 1.417 . S
C622 C654 1.432 . S
C623 H609 0.930 . S
C623 C620 1.407 . S
C623 C621 1.345 . S
C624 N619 1.360 . S
C624 C622 1.417 . S
C624 C628 1.432 . S
H625 C630 0.930 . S
N626 Tb588 2.600 . S
N626 C628 1.359 . S
N626 C629 1.327 . S
C627 H613 0.931 . S
C627 C629 1.392 . S
C627 C630 1.370 . S
C628 C624 1.432 . S
C628 N626 1.359 . S
C628 C631 1.414 . S
C629 H611 0.930 . S
C629 N626 1.327 . S
C629 C627 1.392 . S
C630 H625 0.930 . S
C630 C627 1.370 . S
C630 C631 1.385 . S
C631 C628 1.414 . S
C631 C630 1.385 . S
C631 C653 1.444 . S
O632 Tb588 2.546 . S
O632 C652 1.251 . S
O633 Tb588 2.610 . S
O633 Tb599 2.362 . S
O633 C644 1.283 . S
O634 Tb599 2.421 . S
O634 C651 1.262 . S
O635 Tb588 2.320 . S
O635 C651 1.260 . S
O636 Tb588 2.552 . S
O636 C644 1.243 . S
O637 Tb588 2.413 . S
O637 C652 1.256 . S
O638 Tb599 2.546 . S
O638 C663 1.251 . S
O639 Tb588 2.362 . S
O639 Tb599 2.610 . S
O639 C655 1.283 . S
O640 Tb588 2.421 . S
O640 C662 1.262 . S
O641 Tb599 2.320 . S
O641 C662 1.260 . S
O642 Tb599 2.552 . S
O642 C655 1.243 . S
O643 Tb599 2.413 . S
O643 C663 1.256 . S
C644 O633 1.283 . S
C644 O636 1.243 . S
C645 C647 1.382 . S
C645 C649 1.393 . S
C645 C652 1.500 . S
C646 C647 1.400 . S
C646 C648 1.384 . S
C647 C645 1.382 . S
C647 C646 1.400 . S
C647 H664 0.930 . S
C648 C646 1.384 . S
C648 C650 1.392 . S
C648 H665 0.931 . S
C649 C645 1.393 . S
C649 C650 1.401 . S
C649 H666 0.930 . S
C650 C648 1.392 . S
C650 C649 1.401 . S
C650 H667 0.930 . S
C651 O634 1.262 . S
C651 O635 1.260 . S
C652 Tb588 2.833 . S
C652 O632 1.251 . S
C652 O637 1.256 . S
C652 C645 1.500 . S
C653 H618 0.929 . S
C653 C631 1.444 . S
C653 C654 1.317 . S
C654 H616 0.930 . S
C654 C622 1.432 . S
C654 C653 1.317 . S
C655 O639 1.283 . S
C655 O642 1.243 . S
C656 C657 1.382 . S
C656 C660 1.393 . S
C656 C663 1.500 . S
C657 C656 1.382 . S
C657 C658 1.400 . S
C657 H668 0.930 . S
C658 C657 1.400 . S
C658 C659 1.384 . S
C659 C658 1.384 . S
C659 C661 1.392 . S
C659 H669 0.931 . S
C660 C656 1.393 . S
C660 C661 1.401 . S
C660 H670 0.930 . S
C661 C659 1.392 . S
C661 C660 1.401 . S
C661 H671 0.930 . S
C662 O640 1.262 . S
C662 O641 1.260 . S
C663 Tb599 2.833 . S
C663 O638 1.251 . S
C663 O643 1.256 . S
C663 C656 1.500 . S
H664 C647 0.930 . S
H665 C648 0.931 . S
H666 C649 0.930 . S
H667 C650 0.930 . S
H668 C657 0.930 . S
H669 C659 0.931 . S
H670 C660 0.930 . S
H671 C661 0.930 . S
Tb672 N703 2.660 . S
Tb672 N710 2.600 . S
Tb672 O716 2.546 . S
Tb672 O717 2.610 . S
Tb672 O719 2.320 . S
Tb672 O720 2.552 . S
Tb672 O721 2.413 . S
Tb672 O723 2.362 . S
Tb672 O724 2.421 . S
Tb672 C736 2.833 . S
C673 C676 1.432 . S
C673 C677 1.414 . S
C673 N680 1.359 . S
C674 C676 1.417 . S
C674 C678 1.432 . S
C674 C686 1.410 . S
C675 C677 1.444 . S
C675 C678 1.317 . S
C675 H698 0.929 . S
C676 C673 1.432 . S
C676 C674 1.417 . S
C676 N684 1.360 . S
C677 C673 1.414 . S
C677 C675 1.444 . S
C677 C682 1.385 . S
C678 C674 1.432 . S
C678 C675 1.317 . S
C678 H690 0.930 . S
C679 C681 1.392 . S
C679 C682 1.370 . S
C679 H691 0.931 . S
N680 C673 1.359 . S
N680 C681 1.327 . S
N680 Tb683 2.601 1_565 S
C681 C679 1.392 . S
C681 N680 1.327 . S
C681 H688 0.930 . S
C682 C677 1.385 . S
C682 C679 1.370 . S
C682 H701 0.930 . S
Tb683 N680 2.601 1_545 S
Tb683 N684 2.660 1_545 S
Tb683 O717 2.358 . S
Tb683 O718 2.418 . S
Tb683 O722 2.549 1_545 S
Tb683 O723 2.607 . S
Tb683 O725 2.319 1_545 S
Tb683 O726 2.553 . S
Tb683 O727 2.418 1_545 S
Tb683 C747 2.837 1_545 S
N684 C676 1.360 . S
N684 Tb683 2.660 1_565 S
N684 C685 1.305 . S
C685 N684 1.305 . S
C685 C687 1.409 . S
C685 H692 0.930 . S
C686 C674 1.410 . S
C686 C687 1.347 . S
C686 H694 0.905 1_455 S
C687 C685 1.409 . S
C687 C686 1.347 . S
C687 H689 0.927 1_455 S
H688 C681 0.930 . S
H689 C687 0.927 1_655 S
H690 C678 0.930 . S
H691 C679 0.931 . S
H692 C685 0.930 . S
H693 C707 0.930 . S
H694 C686 0.905 1_655 S
H695 C713 0.930 . S
H696 C704 0.930 . S
H697 C711 0.931 1_655 S
H698 C675 0.929 . S
H699 C705 0.930 . S
H700 C738 0.930 . S
H701 C682 0.930 . S
H702 C737 0.929 . S
N703 Tb672 2.660 . S
N703 C704 1.305 . S
N703 C708 1.360 . S
C704 H696 0.930 . S
C704 N703 1.305 . S
C704 C707 1.407 . S
C705 H699 0.930 . S
C705 C706 1.410 . S
C705 C707 1.345 . S
C706 C705 1.410 . S
C706 C708 1.417 . S
C706 C738 1.432 . S
C707 H693 0.930 . S
C707 C704 1.407 . S
C707 C705 1.345 . S
C708 N703 1.360 . S
C708 C706 1.417 . S
C708 C712 1.432 . S
H709 C714 0.930 . S
N710 Tb672 2.600 . S
N710 C712 1.359 . S
N710 C713 1.327 . S
C711 H697 0.931 1_455 S
C711 C713 1.392 . S
C711 C714 1.370 . S
C712 C708 1.432 . S
C712 N710 1.359 . S
C712 C715 1.414 . S
C713 H695 0.930 . S
C713 N710 1.327 . S
C713 C711 1.392 . S
C714 H709 0.930 . S
C714 C711 1.370 . S
C714 C715 1.385 . S
C715 C712 1.414 . S
C715 C714 1.385 . S
C715 C737 1.444 . S
O716 Tb672 2.546 . S
O716 C736 1.251 . S
O717 Tb672 2.610 . S
O717 Tb683 2.358 . S
O717 C728 1.283 . S
O718 Tb683 2.418 . S
O718 C735 1.262 . S
O719 Tb672 2.320 . S
O719 C735 1.260 . S
O720 Tb672 2.552 . S
O720 C728 1.243 . S
O721 Tb672 2.413 . S
O721 C736 1.256 . S
O722 Tb683 2.549 1_565 S
O722 C747 1.251 . S
O723 Tb672 2.362 . S
O723 Tb683 2.607 . S
O723 C739 1.283 . S
O724 Tb672 2.421 . S
O724 C746 1.262 . S
O725 Tb683 2.319 1_565 S
O725 C746 1.262 1_565 S
O726 Tb683 2.553 . S
O726 C739 1.243 . S
O727 Tb683 2.418 1_565 S
O727 C747 1.256 . S
C728 O717 1.283 . S
C728 O720 1.243 . S
C729 C731 1.382 . S
C729 C733 1.393 . S
C729 C736 1.500 . S
C730 C731 1.400 . S
C730 C732 1.384 . S
C731 C729 1.382 . S
C731 C730 1.400 . S
C731 H748 0.930 . S
C732 C730 1.384 . S
C732 C734 1.392 . S
C732 H749 0.931 . S
C733 C729 1.393 . S
C733 C734 1.401 . S
C733 H750 0.930 . S
C734 C732 1.392 . S
C734 C733 1.401 . S
C734 H751 0.930 . S
C735 O718 1.262 . S
C735 O719 1.260 . S
C736 Tb672 2.833 . S
C736 O716 1.251 . S
C736 O721 1.256 . S
C736 C729 1.500 . S
C737 H702 0.929 . S
C737 C715 1.444 . S
C737 C738 1.317 . S
C738 H700 0.930 . S
C738 C706 1.432 . S
C738 C737 1.317 . S
C739 O723 1.283 . S
C739 O726 1.243 . S
C740 C741 1.382 . S
C740 C744 1.393 . S
C740 C747 1.500 . S
C741 C740 1.382 . S
C741 C742 1.400 . S
C741 H752 0.930 . S
C742 C741 1.400 . S
C742 C743 1.384 . S
C743 C742 1.384 . S
C743 C745 1.392 . S
C743 H753 0.931 . S
C744 C740 1.393 . S
C744 C745 1.401 . S
C744 H754 0.930 . S
C745 C743 1.392 . S
C745 C744 1.401 . S
C745 H755 0.930 . S
C746 O724 1.262 . S
C746 O725 1.262 1_545 S
C747 Tb683 2.837 1_565 S
C747 O722 1.251 . S
C747 O727 1.256 . S
C747 C740 1.500 . S
H748 C731 0.930 . S
H749 C732 0.931 . S
H750 C733 0.930 . S
H751 C734 0.930 . S
H752 C741 0.930 . S
H753 C743 0.931 . S
H754 C744 0.930 . S
H755 C745 0.930 . S
Tb756 N787 2.660 . S
Tb756 N794 2.600 . S
Tb756 O800 2.546 . S
Tb756 O801 2.610 . S
Tb756 O803 2.320 . S
Tb756 O804 2.552 . S
Tb756 O805 2.413 . S
Tb756 O807 2.362 . S
Tb756 O808 2.421 . S
Tb756 C820 2.833 . S
C757 C760 1.432 . S
C757 C761 1.414 . S
C757 N764 1.359 . S
C758 C760 1.417 . S
C758 C762 1.432 . S
C758 C770 1.410 . S
C759 C761 1.444 . S
C759 C762 1.317 . S
C759 H782 0.929 . S
C760 C757 1.432 . S
C760 C758 1.417 . S
C760 N768 1.360 . S
C761 C757 1.414 . S
C761 C759 1.444 . S
C761 C766 1.385 . S
C762 C758 1.432 . S
C762 C759 1.317 . S
C762 H774 0.930 . S
C763 C765 1.392 . S
C763 C766 1.370 . S
C763 H775 0.931 . S
N764 C757 1.359 . S
N764 C765 1.327 . S
N764 Tb767 2.600 . S
C765 C763 1.392 . S
C765 N764 1.327 . S
C765 H772 0.930 . S
C766 C761 1.385 . S
C766 C763 1.370 . S
C766 H785 0.930 . S
Tb767 N764 2.600 . S
Tb767 N768 2.660 . S
Tb767 O801 2.362 . S
Tb767 O802 2.421 . S
Tb767 O806 2.546 . S
Tb767 O807 2.610 . S
Tb767 O809 2.320 . S
Tb767 O810 2.552 . S
Tb767 O811 2.413 . S
Tb767 C831 2.833 . S
N768 C760 1.360 . S
N768 Tb767 2.660 . S
N768 C769 1.305 . S
C769 N768 1.305 . S
C769 C771 1.407 . S
C769 H776 0.930 . S
C770 C758 1.410 . S
C770 C771 1.345 . S
C770 H778 0.930 . S
C771 C769 1.407 . S
C771 C770 1.345 . S
C771 H773 0.930 . S
H772 C765 0.930 . S
H773 C771 0.930 . S
H774 C762 0.930 . S
H775 C763 0.931 . S
H776 C769 0.930 . S
H777 C791 0.930 . S
H778 C770 0.930 . S
H779 C797 0.930 . S
H780 C788 0.930 . S
H781 C795 0.931 . S
H782 C759 0.929 . S
H783 C789 0.930 . S
H784 C822 0.930 . S
H785 C766 0.930 . S
H786 C821 0.929 . S
N787 Tb756 2.660 . S
N787 C788 1.305 . S
N787 C792 1.360 . S
C788 H780 0.930 . S
C788 N787 1.305 . S
C788 C791 1.407 . S
C789 H783 0.930 . S
C789 C790 1.410 . S
C789 C791 1.345 . S
C790 C789 1.410 . S
C790 C792 1.417 . S
C790 C822 1.432 . S
C791 H777 0.930 . S
C791 C788 1.407 . S
C791 C789 1.345 . S
C792 N787 1.360 . S
C792 C790 1.417 . S
C792 C796 1.432 . S
H793 C798 0.930 . S
N794 Tb756 2.600 . S
N794 C796 1.359 . S
N794 C797 1.327 . S
C795 H781 0.931 . S
C795 C797 1.392 . S
C795 C798 1.370 . S
C796 C792 1.432 . S
C796 N794 1.359 . S
C796 C799 1.414 . S
C797 H779 0.930 . S
C797 N794 1.327 . S
C797 C795 1.392 . S
C798 H793 0.930 . S
C798 C795 1.370 . S
C798 C799 1.385 . S
C799 C796 1.414 . S
C799 C798 1.385 . S
C799 C821 1.444 . S
O800 Tb756 2.546 . S
O800 C820 1.251 . S
O801 Tb756 2.610 . S
O801 Tb767 2.362 . S
O801 C812 1.283 . S
O802 Tb767 2.421 . S
O802 C819 1.262 . S
O803 Tb756 2.320 . S
O803 C819 1.260 . S
O804 Tb756 2.552 . S
O804 C812 1.243 . S
O805 Tb756 2.413 . S
O805 C820 1.256 . S
O806 Tb767 2.546 . S
O806 C831 1.251 . S
O807 Tb756 2.362 . S
O807 Tb767 2.610 . S
O807 C823 1.283 . S
O808 Tb756 2.421 . S
O808 C830 1.262 . S
O809 Tb767 2.320 . S
O809 C830 1.260 . S
O810 Tb767 2.552 . S
O810 C823 1.243 . S
O811 Tb767 2.413 . S
O811 C831 1.256 . S
C812 O801 1.283 . S
C812 O804 1.243 . S
C813 C815 1.382 . S
C813 C817 1.393 . S
C813 C820 1.500 . S
C814 C815 1.400 . S
C814 C816 1.384 . S
C815 C813 1.382 . S
C815 C814 1.400 . S
C815 H832 0.930 . S
C816 C814 1.384 . S
C816 C818 1.392 . S
C816 H833 0.931 . S
C817 C813 1.393 . S
C817 C818 1.401 . S
C817 H834 0.930 . S
C818 C816 1.392 . S
C818 C817 1.401 . S
C818 H835 0.930 . S
C819 O802 1.262 . S
C819 O803 1.260 . S
C820 Tb756 2.833 . S
C820 O800 1.251 . S
C820 O805 1.256 . S
C820 C813 1.500 . S
C821 H786 0.929 . S
C821 C799 1.444 . S
C821 C822 1.317 . S
C822 H784 0.930 . S
C822 C790 1.432 . S
C822 C821 1.317 . S
C823 O807 1.283 . S
C823 O810 1.243 . S
C824 C825 1.382 . S
C824 C828 1.393 . S
C824 C831 1.500 . S
C825 C824 1.382 . S
C825 C826 1.400 . S
C825 H836 0.930 . S
C826 C825 1.400 . S
C826 C827 1.384 . S
C827 C826 1.384 . S
C827 C829 1.392 . S
C827 H837 0.931 . S
C828 C824 1.393 . S
C828 C829 1.401 . S
C828 H838 0.930 . S
C829 C827 1.392 . S
C829 C828 1.401 . S
C829 H839 0.930 . S
C830 O808 1.262 . S
C830 O809 1.260 . S
C831 Tb767 2.833 . S
C831 O806 1.251 . S
C831 O811 1.256 . S
C831 C824 1.500 . S
H832 C815 0.930 . S
H833 C816 0.931 . S
H834 C817 0.930 . S
H835 C818 0.930 . S
H836 C825 0.930 . S
H837 C827 0.931 . S
H838 C828 0.930 . S
H839 C829 0.930 . S
Tb840 N871 2.660 . S
Tb840 N878 2.600 . S
Tb840 O884 2.546 1_545 S
Tb840 O885 2.610 . S
Tb840 O887 2.320 . S
Tb840 O888 2.552 . S
Tb840 O889 2.413 . S
Tb840 O891 2.362 . S
Tb840 O892 2.421 1_545 S
Tb840 C904 2.833 . S
C841 C844 1.432 . S
C841 C845 1.414 . S
C841 N848 1.359 . S
C842 C844 1.417 . S
C842 C846 1.432 . S
C842 C854 1.410 1_545 S
C843 C845 1.444 . S
C843 C846 1.317 . S
C843 H866 0.929 . S
C844 C841 1.432 . S
C844 C842 1.417 . S
C844 N852 1.360 . S
C845 C841 1.414 . S
C845 C843 1.444 . S
C845 C850 1.385 . S
C846 C842 1.432 . S
C846 C843 1.317 . S
C846 H858 0.930 . S
C847 C849 1.392 . S
C847 C850 1.370 . S
C847 H859 0.931 . S
N848 C841 1.359 . S
N848 C849 1.327 . S
N848 Tb851 2.600 . S
C849 C847 1.392 . S
C849 N848 1.327 . S
C849 H856 0.930 . S
C850 C845 1.385 . S
C850 C847 1.370 . S
C850 H869 0.930 . S
Tb851 N848 2.600 . S
Tb851 N852 2.660 . S
Tb851 O885 2.362 1_556 S
Tb851 O886 2.421 1_556 S
Tb851 O890 2.546 . S
Tb851 O891 2.610 1_556 S
Tb851 O893 2.320 . S
Tb851 O894 2.552 . S
Tb851 O895 2.413 . S
Tb851 C915 2.833 . S
N852 C844 1.360 . S
N852 Tb851 2.660 . S
N852 C853 1.305 1_545 S
C853 N852 1.305 1_565 S
C853 C855 1.407 . S
C853 H860 0.930 . S
C854 C842 1.410 1_565 S
C854 C855 1.345 . S
C854 H862 0.930 . S
C855 C853 1.407 . S
C855 C854 1.345 . S
C855 H857 0.930 . S
H856 C849 0.930 . S
H857 C855 0.930 . S
H858 C846 0.930 . S
H859 C847 0.931 . S
H860 C853 0.930 . S
H861 C875 0.930 . S
H862 C854 0.930 . S
H863 C881 0.930 . S
H864 C872 0.930 . S
H865 C879 0.931 . S
H866 C843 0.929 . S
H867 C873 0.930 . S
H868 C906 0.930 . S
H869 C850 0.930 . S
H870 C905 0.929 . S
N871 Tb840 2.660 . S
N871 C872 1.305 . S
N871 C876 1.360 . S
C872 H864 0.930 . S
C872 N871 1.305 . S
C872 C875 1.407 . S
C873 H867 0.930 . S
C873 C874 1.410 . S
C873 C875 1.345 . S
C874 C873 1.410 . S
C874 C876 1.417 . S
C874 C906 1.432 . S
C875 H861 0.930 . S
C875 C872 1.407 . S
C875 C873 1.345 . S
C876 N871 1.360 . S
C876 C874 1.417 . S
C876 C880 1.432 . S
H877 C882 0.930 . S
N878 Tb840 2.600 . S
N878 C880 1.359 . S
N878 C881 1.327 1_545 S
C879 H865 0.931 . S
C879 C881 1.392 . S
C879 C882 1.370 . S
C880 C876 1.432 . S
C880 N878 1.359 . S
C880 C883 1.414 . S
C881 H863 0.930 . S
C881 N878 1.327 1_565 S
C881 C879 1.392 . S
C882 H877 0.930 . S
C882 C879 1.370 . S
C882 C883 1.385 1_565 S
C883 C880 1.414 . S
C883 C882 1.385 1_545 S
C883 C905 1.444 . S
O884 Tb840 2.546 1_565 S
O884 C904 1.251 1_565 S
O885 Tb840 2.610 . S
O885 Tb851 2.362 1_554 S
O885 C896 1.283 . S
O886 Tb851 2.421 1_554 S
O886 C903 1.262 . S
O887 Tb840 2.320 . S
O887 C903 1.260 . S
O888 Tb840 2.552 . S
O888 C896 1.243 . S
O889 Tb840 2.413 . S
O889 C904 1.256 . S
O890 Tb851 2.546 . S
O890 C915 1.251 . S
O891 Tb840 2.362 . S
O891 Tb851 2.610 1_554 S
O891 C907 1.283 . S
O892 Tb840 2.421 1_565 S
O892 C914 1.262 1_554 S
O893 Tb851 2.320 . S
O893 C914 1.260 1_545 S
O894 Tb851 2.552 . S
O894 C907 1.243 1_556 S
O895 Tb851 2.413 . S
O895 C915 1.256 . S
C896 O885 1.283 . S
C896 O888 1.243 . S
C897 C899 1.382 . S
C897 C901 1.393 1_545 S
C897 C904 1.500 . S
C898 C899 1.400 . S
C898 C900 1.384 1_545 S
C899 C897 1.382 . S
C899 C898 1.400 . S
C899 H916 0.930 . S
C900 C898 1.384 1_565 S
C900 C902 1.392 . S
C900 H917 0.931 . S
C901 C897 1.393 1_565 S
C901 C902 1.401 . S
C901 H918 0.930 . S
C902 C900 1.392 . S
C902 C901 1.401 . S
C902 H919 0.930 . S
C903 O886 1.262 . S
C903 O887 1.260 . S
C904 Tb840 2.833 . S
C904 O884 1.251 1_545 S
C904 O889 1.256 . S
C904 C897 1.500 . S
C905 H870 0.929 . S
C905 C883 1.444 . S
C905 C906 1.317 . S
C906 H868 0.930 . S
C906 C874 1.432 . S
C906 C905 1.317 . S
C907 O891 1.283 . S
C907 O894 1.243 1_554 S
C908 C909 1.382 . S
C908 C912 1.393 . S
C908 C915 1.500 . S
C909 C908 1.382 . S
C909 C910 1.400 . S
C909 H920 0.930 . S
C910 C909 1.400 . S
C910 C911 1.384 . S
C911 C910 1.384 . S
C911 C913 1.392 . S
C911 H921 0.931 . S
C912 C908 1.393 . S
C912 C913 1.401 . S
C912 H922 0.930 . S
C913 C911 1.392 . S
C913 C912 1.401 . S
C913 H923 0.930 . S
C914 O892 1.262 1_556 S
C914 O893 1.260 1_565 S
C915 Tb851 2.833 . S
C915 O890 1.251 . S
C915 O895 1.256 . S
C915 C908 1.500 . S
H916 C899 0.930 . S
H917 C900 0.931 . S
H918 C901 0.930 . S
H919 C902 0.930 . S
H920 C909 0.930 . S
H921 C911 0.931 . S
H922 C912 0.930 . S
H923 C913 0.930 . S
Tb924 N955 2.660 . S
Tb924 N962 2.600 . S
Tb924 O968 2.546 . S
Tb924 O969 2.610 . S
Tb924 O971 2.320 . S
Tb924 O972 2.552 . S
Tb924 O973 2.413 . S
Tb924 O975 2.362 . S
Tb924 O976 2.421 . S
Tb924 C988 2.833 . S
C925 C928 1.432 . S
C925 C929 1.414 . S
C925 N932 1.359 . S
C926 C928 1.417 . S
C926 C930 1.432 . S
C926 C938 1.410 . S
C927 C929 1.444 . S
C927 C930 1.317 . S
C927 H950 0.929 . S
C928 C925 1.432 . S
C928 C926 1.417 . S
C928 N936 1.360 . S
C929 C925 1.414 . S
C929 C927 1.444 . S
C929 C934 1.385 . S
C930 C926 1.432 . S
C930 C927 1.317 . S
C930 H942 0.930 . S
C931 C933 1.392 . S
C931 C934 1.370 . S
C931 H943 0.931 . S
N932 C925 1.359 . S
N932 C933 1.327 . S
N932 Tb935 2.600 . S
C933 C931 1.392 . S
C933 N932 1.327 . S
C933 H940 0.930 . S
C934 C929 1.385 . S
C934 C931 1.370 . S
C934 H953 0.930 . S
Tb935 N932 2.600 . S
Tb935 N936 2.660 . S
Tb935 O969 2.362 . S
Tb935 O970 2.421 . S
Tb935 O974 2.546 . S
Tb935 O975 2.610 . S
Tb935 O977 2.320 . S
Tb935 O978 2.552 . S
Tb935 O979 2.413 . S
Tb935 C999 2.833 . S
N936 C928 1.360 . S
N936 Tb935 2.660 . S
N936 C937 1.305 . S
C937 N936 1.305 . S
C937 C939 1.407 . S
C937 H944 0.930 . S
C938 C926 1.410 . S
C938 C939 1.345 . S
C938 H946 0.930 . S
C939 C937 1.407 . S
C939 C938 1.345 . S
C939 H941 0.930 . S
H940 C933 0.930 . S
H941 C939 0.930 . S
H942 C930 0.930 . S
H943 C931 0.931 . S
H944 C937 0.930 . S
H945 C959 0.930 . S
H946 C938 0.930 . S
H947 C965 0.930 . S
H948 C956 0.930 . S
H949 C963 0.931 . S
H950 C927 0.929 . S
H951 C957 0.930 . S
H952 C990 0.930 . S
H953 C934 0.930 . S
H954 C989 0.929 . S
N955 Tb924 2.660 . S
N955 C956 1.305 . S
N955 C960 1.360 . S
C956 H948 0.930 . S
C956 N955 1.305 . S
C956 C959 1.407 . S
C957 H951 0.930 . S
C957 C958 1.410 . S
C957 C959 1.345 . S
C958 C957 1.410 . S
C958 C960 1.417 . S
C958 C990 1.432 . S
C959 H945 0.930 . S
C959 C956 1.407 . S
C959 C957 1.345 . S
C960 N955 1.360 . S
C960 C958 1.417 . S
C960 C964 1.432 . S
H961 C966 0.930 . S
N962 Tb924 2.600 . S
N962 C964 1.359 . S
N962 C965 1.327 . S
C963 H949 0.931 . S
C963 C965 1.392 . S
C963 C966 1.370 . S
C964 C960 1.432 . S
C964 N962 1.359 . S
C964 C967 1.414 . S
C965 H947 0.930 . S
C965 N962 1.327 . S
C965 C963 1.392 . S
C966 H961 0.930 . S
C966 C963 1.370 . S
C966 C967 1.385 . S
C967 C964 1.414 . S
C967 C966 1.385 . S
C967 C989 1.444 . S
O968 Tb924 2.546 . S
O968 C988 1.251 . S
O969 Tb924 2.610 . S
O969 Tb935 2.362 . S
O969 C980 1.283 . S
O970 Tb935 2.421 . S
O970 C987 1.262 . S
O971 Tb924 2.320 . S
O971 C987 1.260 . S
O972 Tb924 2.552 . S
O972 C980 1.243 . S
O973 Tb924 2.413 . S
O973 C988 1.256 . S
O974 Tb935 2.546 . S
O974 C999 1.251 . S
O975 Tb924 2.362 . S
O975 Tb935 2.610 . S
O975 C991 1.283 . S
O976 Tb924 2.421 . S
O976 C998 1.262 . S
O977 Tb935 2.320 . S
O977 C998 1.260 . S
O978 Tb935 2.552 . S
O978 C991 1.243 . S
O979 Tb935 2.413 . S
O979 C999 1.256 . S
C980 O969 1.283 . S
C980 O972 1.243 . S
C981 C983 1.382 . S
C981 C985 1.393 . S
C981 C988 1.500 . S
C982 C983 1.400 . S
C982 C984 1.384 . S
C983 C981 1.382 . S
C983 C982 1.400 . S
C983 H1000 0.930 . S
C984 C982 1.384 . S
C984 C986 1.392 . S
C984 H1001 0.931 . S
C985 C981 1.393 . S
C985 C986 1.401 . S
C985 H1002 0.930 . S
C986 C984 1.392 . S
C986 C985 1.401 . S
C986 H1003 0.930 . S
C987 O970 1.262 . S
C987 O971 1.260 . S
C988 Tb924 2.833 . S
C988 O968 1.251 . S
C988 O973 1.256 . S
C988 C981 1.500 . S
C989 H954 0.929 . S
C989 C967 1.444 . S
C989 C990 1.317 . S
C990 H952 0.930 . S
C990 C958 1.432 . S
C990 C989 1.317 . S
C991 O975 1.283 . S
C991 O978 1.243 . S
C992 C993 1.382 . S
C992 C996 1.393 . S
C992 C999 1.500 . S
C993 C992 1.382 . S
C993 C994 1.400 . S
C993 H1004 0.930 . S
C994 C993 1.400 . S
C994 C995 1.384 . S
C995 C994 1.384 . S
C995 C997 1.392 . S
C995 H1005 0.931 . S
C996 C992 1.393 . S
C996 C997 1.401 . S
C996 H1006 0.930 . S
C997 C995 1.392 . S
C997 C996 1.401 . S
C997 H1007 0.930 . S
C998 O976 1.262 . S
C998 O977 1.260 . S
C999 Tb935 2.833 . S
C999 O974 1.251 . S
C999 O979 1.256 . S
C999 C992 1.500 . S
H1000 C983 0.930 . S
H1001 C984 0.931 . S
H1002 C985 0.930 . S
H1003 C986 0.930 . S
H1004 C993 0.930 . S
H1005 C995 0.931 . S
H1006 C996 0.930 . S
H1007 C997 0.930 . S
Tb1008 N1039 2.660 . S
Tb1008 N1046 2.600 . S
Tb1008 O1052 2.546 . S
Tb1008 O1053 2.610 1_554 S
Tb1008 O1055 2.320 . S
Tb1008 O1056 2.552 1_554 S
Tb1008 O1057 2.413 . S
Tb1008 O1059 2.362 . S
Tb1008 O1060 2.421 . S
Tb1008 C1072 2.833 . S
C1009 C1012 1.432 . S
C1009 C1013 1.414 . S
C1009 N1016 1.359 . S
C1010 C1012 1.417 . S
C1010 C1014 1.432 . S
C1010 C1022 1.410 . S
C1011 C1013 1.444 . S
C1011 C1014 1.317 . S
C1011 H1034 0.929 . S
C1012 C1009 1.432 . S
C1012 C1010 1.417 . S
C1012 N1020 1.360 . S
C1013 C1009 1.414 . S
C1013 C1011 1.444 . S
C1013 C1018 1.385 . S
C1014 C1010 1.432 . S
C1014 C1011 1.317 . S
C1014 H1026 0.930 . S
C1015 C1017 1.392 . S
C1015 C1018 1.370 . S
C1015 H1027 0.931 . S
N1016 C1009 1.359 . S
N1016 C1017 1.327 . S
N1016 Tb1019 2.600 1_556 S
C1017 C1015 1.392 . S
C1017 N1016 1.327 . S
C1017 H1024 0.930 . S
C1018 C1013 1.385 . S
C1018 C1015 1.370 . S
C1018 H1037 0.930 . S
Tb1019 N1016 2.600 1_554 S
Tb1019 N1020 2.660 1_554 S
Tb1019 O1053 2.362 1_554 S
Tb1019 O1054 2.421 . S
Tb1019 O1058 2.546 . S
Tb1019 O1059 2.610 . S
Tb1019 O1061 2.320 . S
Tb1019 O1062 2.552 . S
Tb1019 O1063 2.413 . S
Tb1019 C1083 2.833 . S
N1020 C1012 1.360 . S
N1020 Tb1019 2.660 1_556 S
N1020 C1021 1.305 . S
C1021 N1020 1.305 . S
C1021 C1023 1.407 . S
C1021 H1028 0.930 . S
C1022 C1010 1.410 . S
C1022 C1023 1.345 . S
C1022 H1030 0.930 . S
C1023 C1021 1.407 . S
C1023 C1022 1.345 . S
C1023 H1025 0.930 . S
H1024 C1017 0.930 . S
H1025 C1023 0.930 . S
H1026 C1014 0.930 . S
H1027 C1015 0.931 . S
H1028 C1021 0.930 . S
H1029 C1043 0.930 . S
H1030 C1022 0.930 . S
H1031 C1049 0.930 . S
H1032 C1040 0.930 . S
H1033 C1047 0.931 . S
H1034 C1011 0.929 . S
H1035 C1041 0.930 . S
H1036 C1074 0.930 . S
H1037 C1018 0.930 . S
H1038 C1073 0.929 . S
N1039 Tb1008 2.660 . S
N1039 C1040 1.305 . S
N1039 C1044 1.360 . S
C1040 H1032 0.930 . S
C1040 N1039 1.305 . S
C1040 C1043 1.407 . S
C1041 H1035 0.930 . S
C1041 C1042 1.410 . S
C1041 C1043 1.345 . S
C1042 C1041 1.410 . S
C1042 C1044 1.417 . S
C1042 C1074 1.432 . S
C1043 H1029 0.930 . S
C1043 C1040 1.407 . S
C1043 C1041 1.345 . S
C1044 N1039 1.360 . S
C1044 C1042 1.417 . S
C1044 C1048 1.432 . S
H1045 C1050 0.930 . S
N1046 Tb1008 2.600 . S
N1046 C1048 1.359 . S
N1046 C1049 1.327 . S
C1047 H1033 0.931 . S
C1047 C1049 1.392 . S
C1047 C1050 1.370 . S
C1048 C1044 1.432 . S
C1048 N1046 1.359 . S
C1048 C1051 1.414 . S
C1049 H1031 0.930 . S
C1049 N1046 1.327 . S
C1049 C1047 1.392 . S
C1050 H1045 0.930 . S
C1050 C1047 1.370 . S
C1050 C1051 1.385 . S
C1051 C1048 1.414 . S
C1051 C1050 1.385 . S
C1051 C1073 1.444 . S
O1052 Tb1008 2.546 . S
O1052 C1072 1.251 . S
O1053 Tb1008 2.610 1_556 S
O1053 Tb1019 2.362 1_556 S
O1053 C1064 1.283 . S
O1054 Tb1019 2.421 . S
O1054 C1071 1.262 . S
O1055 Tb1008 2.320 . S
O1055 C1071 1.260 . S
O1056 Tb1008 2.552 1_556 S
O1056 C1064 1.243 . S
O1057 Tb1008 2.413 . S
O1057 C1072 1.256 . S
O1058 Tb1019 2.546 . S
O1058 C1083 1.251 . S
O1059 Tb1008 2.362 . S
O1059 Tb1019 2.610 . S
O1059 C1075 1.283 . S
O1060 Tb1008 2.421 . S
O1060 C1082 1.262 . S
O1061 Tb1019 2.320 . S
O1061 C1082 1.260 . S
O1062 Tb1019 2.552 . S
O1062 C1075 1.243 . S
O1063 Tb1019 2.413 . S
O1063 C1083 1.256 . S
C1064 O1053 1.283 . S
C1064 O1056 1.243 . S
C1065 C1067 1.382 . S
C1065 C1069 1.393 . S
C1065 C1072 1.500 . S
C1066 C1067 1.400 1_556 S
C1066 C1068 1.384 1_556 S
C1067 C1065 1.382 . S
C1067 C1066 1.400 1_554 S
C1067 H1084 0.930 1_554 S
C1068 C1066 1.384 1_554 S
C1068 C1070 1.392 . S
C1068 H1085 0.932 1_554 S
C1069 C1065 1.393 . S
C1069 C1070 1.401 . S
C1069 H1086 0.930 . S
C1070 C1068 1.392 . S
C1070 C1069 1.401 . S
C1070 H1087 0.930 . S
C1071 O1054 1.262 . S
C1071 O1055 1.260 . S
C1072 Tb1008 2.833 . S
C1072 O1052 1.251 . S
C1072 O1057 1.256 . S
C1072 C1065 1.500 . S
C1073 H1038 0.929 . S
C1073 C1051 1.444 . S
C1073 C1074 1.317 . S
C1074 H1036 0.930 . S
C1074 C1042 1.432 . S
C1074 C1073 1.317 . S
C1075 O1059 1.283 . S
C1075 O1062 1.243 . S
C1076 C1077 1.382 . S
C1076 C1080 1.393 . S
C1076 C1083 1.500 . S
C1077 C1076 1.382 . S
C1077 C1078 1.400 . S
C1077 H1088 0.930 . S
C1078 C1077 1.400 . S
C1078 C1079 1.384 . S
C1079 C1078 1.384 . S
C1079 C1081 1.392 . S
C1079 H1089 0.931 . S
C1080 C1076 1.393 . S
C1080 C1081 1.401 . S
C1080 H1090 0.930 . S
C1081 C1079 1.392 . S
C1081 C1080 1.401 . S
C1081 H1091 0.930 . S
C1082 O1060 1.262 . S
C1082 O1061 1.260 . S
C1083 Tb1019 2.833 . S
C1083 O1058 1.251 . S
C1083 O1063 1.256 . S
C1083 C1076 1.500 . S
H1084 C1067 0.930 1_556 S
H1085 C1068 0.932 1_556 S
H1086 C1069 0.930 . S
H1087 C1070 0.930 . S
H1088 C1077 0.930 . S
H1089 C1079 0.931 . S
H1090 C1080 0.930 . S
H1091 C1081 0.930 . S
Tb1092 N1123 2.660 . S
Tb1092 N1130 2.600 . S
Tb1092 O1136 2.546 . S
Tb1092 O1137 2.610 . S
Tb1092 O1139 2.320 . S
Tb1092 O1140 2.552 . S
Tb1092 O1141 2.413 . S
Tb1092 O1143 2.362 . S
Tb1092 O1144 2.421 . S
Tb1092 C1156 2.833 . S
C1093 C1096 1.432 . S
C1093 C1097 1.414 . S
C1093 N1100 1.359 . S
C1094 C1096 1.417 . S
C1094 C1098 1.432 . S
C1094 C1106 1.410 . S
C1095 C1097 1.444 . S
C1095 C1098 1.317 . S
C1095 H1118 0.929 . S
C1096 C1093 1.432 . S
C1096 C1094 1.417 . S
C1096 N1104 1.360 . S
C1097 C1093 1.414 . S
C1097 C1095 1.444 . S
C1097 C1102 1.385 . S
C1098 C1094 1.432 . S
C1098 C1095 1.317 . S
C1098 H1110 0.930 . S
C1099 C1101 1.392 . S
C1099 C1102 1.370 . S
C1099 H1111 0.931 . S
N1100 C1093 1.359 . S
N1100 C1101 1.327 . S
N1100 Tb1103 2.600 . S
C1101 C1099 1.392 . S
C1101 N1100 1.327 . S
C1101 H1108 0.930 . S
C1102 C1097 1.385 . S
C1102 C1099 1.370 . S
C1102 H1121 0.930 . S
Tb1103 N1100 2.600 . S
Tb1103 N1104 2.660 . S
Tb1103 O1137 2.362 . S
Tb1103 O1138 2.421 . S
Tb1103 O1142 2.546 . S
Tb1103 O1143 2.610 . S
Tb1103 O1145 2.320 . S
Tb1103 O1146 2.552 . S
Tb1103 O1147 2.413 . S
Tb1103 C1167 2.833 . S
N1104 C1096 1.360 . S
N1104 Tb1103 2.660 . S
N1104 C1105 1.305 . S
C1105 N1104 1.305 . S
C1105 C1107 1.407 . S
C1105 H1112 0.930 . S
C1106 C1094 1.410 . S
C1106 C1107 1.345 . S
C1106 H1114 0.930 . S
C1107 C1105 1.407 . S
C1107 C1106 1.345 . S
C1107 H1109 0.930 . S
H1108 C1101 0.930 . S
H1109 C1107 0.930 . S
H1110 C1098 0.930 . S
H1111 C1099 0.931 . S
H1112 C1105 0.930 . S
H1113 C1127 0.930 . S
H1114 C1106 0.930 . S
H1115 C1133 0.930 . S
H1116 C1124 0.930 . S
H1117 C1131 0.931 . S
H1118 C1095 0.929 . S
H1119 C1125 0.930 . S
H1120 C1158 0.930 . S
H1121 C1102 0.930 . S
H1122 C1157 0.929 . S
N1123 Tb1092 2.660 . S
N1123 C1124 1.305 . S
N1123 C1128 1.360 . S
C1124 H1116 0.930 . S
C1124 N1123 1.305 . S
C1124 C1127 1.407 . S
C1125 H1119 0.930 . S
C1125 C1126 1.410 . S
C1125 C1127 1.345 . S
C1126 C1125 1.410 . S
C1126 C1128 1.417 . S
C1126 C1158 1.432 . S
C1127 H1113 0.930 . S
C1127 C1124 1.407 . S
C1127 C1125 1.345 . S
C1128 N1123 1.360 . S
C1128 C1126 1.417 . S
C1128 C1132 1.432 . S
H1129 C1134 0.930 . S
N1130 Tb1092 2.600 . S
N1130 C1132 1.359 . S
N1130 C1133 1.327 . S
C1131 H1117 0.931 . S
C1131 C1133 1.392 . S
C1131 C1134 1.370 . S
C1132 C1128 1.432 . S
C1132 N1130 1.359 . S
C1132 C1135 1.414 . S
C1133 H1115 0.930 . S
C1133 N1130 1.327 . S
C1133 C1131 1.392 . S
C1134 H1129 0.930 . S
C1134 C1131 1.370 . S
C1134 C1135 1.385 . S
C1135 C1132 1.414 . S
C1135 C1134 1.385 . S
C1135 C1157 1.444 . S
O1136 Tb1092 2.546 . S
O1136 C1156 1.251 . S
O1137 Tb1092 2.610 . S
O1137 Tb1103 2.362 . S
O1137 C1148 1.283 . S
O1138 Tb1103 2.421 . S
O1138 C1155 1.262 . S
O1139 Tb1092 2.320 . S
O1139 C1155 1.260 . S
O1140 Tb1092 2.552 . S
O1140 C1148 1.243 . S
O1141 Tb1092 2.413 . S
O1141 C1156 1.256 . S
O1142 Tb1103 2.546 . S
O1142 C1167 1.251 . S
O1143 Tb1092 2.362 . S
O1143 Tb1103 2.610 . S
O1143 C1159 1.283 . S
O1144 Tb1092 2.421 . S
O1144 C1166 1.262 . S
O1145 Tb1103 2.320 . S
O1145 C1166 1.260 . S
O1146 Tb1103 2.552 . S
O1146 C1159 1.243 . S
O1147 Tb1103 2.413 . S
O1147 C1167 1.256 . S
C1148 O1137 1.283 . S
C1148 O1140 1.243 . S
C1149 C1151 1.382 . S
C1149 C1153 1.393 . S
C1149 C1156 1.500 . S
C1150 C1151 1.400 . S
C1150 C1152 1.384 . S
C1151 C1149 1.382 . S
C1151 C1150 1.400 . S
C1151 H1168 0.930 . S
C1152 C1150 1.384 . S
C1152 C1154 1.392 . S
C1152 H1169 0.931 . S
C1153 C1149 1.393 . S
C1153 C1154 1.401 . S
C1153 H1170 0.930 . S
C1154 C1152 1.392 . S
C1154 C1153 1.401 . S
C1154 H1171 0.930 . S
C1155 O1138 1.262 . S
C1155 O1139 1.260 . S
C1156 Tb1092 2.833 . S
C1156 O1136 1.251 . S
C1156 O1141 1.256 . S
C1156 C1149 1.500 . S
C1157 H1122 0.929 . S
C1157 C1135 1.444 . S
C1157 C1158 1.317 . S
C1158 H1120 0.930 . S
C1158 C1126 1.432 . S
C1158 C1157 1.317 . S
C1159 O1143 1.283 . S
C1159 O1146 1.243 . S
C1160 C1161 1.382 . S
C1160 C1164 1.393 . S
C1160 C1167 1.500 . S
C1161 C1160 1.382 . S
C1161 C1162 1.400 . S
C1161 H1172 0.930 . S
C1162 C1161 1.400 . S
C1162 C1163 1.384 . S
C1163 C1162 1.384 . S
C1163 C1165 1.392 . S
C1163 H1173 0.931 . S
C1164 C1160 1.393 . S
C1164 C1165 1.401 . S
C1164 H1174 0.930 . S
C1165 C1163 1.392 . S
C1165 C1164 1.401 . S
C1165 H1175 0.930 . S
C1166 O1144 1.262 . S
C1166 O1145 1.260 . S
C1167 Tb1103 2.833 . S
C1167 O1142 1.251 . S
C1167 O1147 1.256 . S
C1167 C1160 1.500 . S
H1168 C1151 0.930 . S
H1169 C1152 0.931 . S
H1170 C1153 0.930 . S
H1171 C1154 0.930 . S
H1172 C1161 0.930 . S
H1173 C1163 0.931 . S
H1174 C1164 0.930 . S
H1175 C1165 0.930 . S
Tb1176 N1207 2.660 . S
Tb1176 N1214 2.600 . S
Tb1176 O1220 2.546 . S
Tb1176 O1221 2.610 . S
Tb1176 O1223 2.320 . S
Tb1176 O1224 2.552 . S
Tb1176 O1225 2.413 . S
Tb1176 O1227 2.362 . S
Tb1176 O1228 2.421 . S
Tb1176 C1240 2.833 . S
C1177 C1180 1.429 . S
C1177 C1181 1.414 1_455 S
C1177 N1184 1.359 . S
C1178 C1180 1.403 1_655 S
C1178 C1182 1.432 . S
C1178 C1190 1.410 . S
C1179 C1181 1.444 . S
C1179 C1182 1.317 . S
C1179 H1202 0.929 . S
C1180 C1177 1.429 . S
C1180 C1178 1.403 1_455 S
C1180 N1188 1.377 . S
C1181 C1177 1.414 1_655 S
C1181 C1179 1.444 . S
C1181 C1186 1.385 . S
C1182 C1178 1.432 . S
C1182 C1179 1.317 . S
C1182 H1194 0.930 . S
C1183 C1185 1.392 . S
C1183 C1186 1.370 1_455 S
C1183 H1195 0.931 . S
N1184 C1177 1.359 . S
N1184 C1185 1.327 . S
N1184 Tb1187 2.600 . S
C1185 C1183 1.392 . S
C1185 N1184 1.327 . S
C1185 H1192 0.930 . S
C1186 C1181 1.385 . S
C1186 C1183 1.370 1_655 S
C1186 H1205 0.930 . S
Tb1187 N1184 2.600 . S
Tb1187 N1188 2.660 . S
Tb1187 O1221 2.362 . S
Tb1187 O1222 2.421 . S
Tb1187 O1226 2.546 . S
Tb1187 O1227 2.610 . S
Tb1187 O1229 2.320 . S
Tb1187 O1230 2.552 . S
Tb1187 O1231 2.413 . S
Tb1187 C1251 2.833 . S
N1188 C1180 1.377 . S
N1188 Tb1187 2.660 . S
N1188 C1189 1.305 . S
C1189 N1188 1.305 . S
C1189 C1191 1.407 1_455 S
C1189 H1196 0.930 . S
C1190 C1178 1.410 . S
C1190 C1191 1.345 . S
C1190 H1198 0.930 . S
C1191 C1189 1.407 1_655 S
C1191 C1190 1.345 . S
C1191 H1193 0.930 . S
H1192 C1185 0.930 . S
H1193 C1191 0.930 . S
H1194 C1182 0.930 . S
H1195 C1183 0.931 . S
H1196 C1189 0.930 . S
H1197 C1211 0.930 . S
H1198 C1190 0.930 . S
H1199 C1217 0.930 . S
H1200 C1208 0.930 . S
H1201 C1215 0.931 . S
H1202 C1179 0.929 . S
H1203 C1209 0.930 . S
H1204 C1242 0.930 . S
H1205 C1186 0.930 . S
H1206 C1241 0.929 . S
N1207 Tb1176 2.660 . S
N1207 C1208 1.305 . S
N1207 C1212 1.360 . S
C1208 H1200 0.930 . S
C1208 N1207 1.305 . S
C1208 C1211 1.407 . S
C1209 H1203 0.930 . S
C1209 C1210 1.410 . S
C1209 C1211 1.345 . S
C1210 C1209 1.410 . S
C1210 C1212 1.417 . S
C1210 C1242 1.432 . S
C1211 H1197 0.930 . S
C1211 C1208 1.407 . S
C1211 C1209 1.345 . S
C1212 N1207 1.360 . S
C1212 C1210 1.417 . S
C1212 C1216 1.432 . S
H1213 C1218 0.930 . S
N1214 Tb1176 2.600 . S
N1214 C1216 1.359 . S
N1214 C1217 1.327 . S
C1215 H1201 0.931 . S
C1215 C1217 1.392 . S
C1215 C1218 1.370 . S
C1216 C1212 1.432 . S
C1216 N1214 1.359 . S
C1216 C1219 1.414 . S
C1217 H1199 0.930 . S
C1217 N1214 1.327 . S
C1217 C1215 1.392 . S
C1218 H1213 0.930 . S
C1218 C1215 1.370 . S
C1218 C1219 1.385 . S
C1219 C1216 1.414 . S
C1219 C1218 1.385 . S
C1219 C1241 1.444 . S
O1220 Tb1176 2.546 . S
O1220 C1240 1.251 . S
O1221 Tb1176 2.610 . S
O1221 Tb1187 2.362 . S
O1221 C1232 1.283 . S
O1222 Tb1187 2.421 . S
O1222 C1239 1.262 . S
O1223 Tb1176 2.320 . S
O1223 C1239 1.260 . S
O1224 Tb1176 2.552 . S
O1224 C1232 1.243 . S
O1225 Tb1176 2.413 . S
O1225 C1240 1.256 . S
O1226 Tb1187 2.546 . S
O1226 C1251 1.251 . S
O1227 Tb1176 2.362 . S
O1227 Tb1187 2.610 . S
O1227 C1243 1.283 . S
O1228 Tb1176 2.421 . S
O1228 C1250 1.262 . S
O1229 Tb1187 2.320 . S
O1229 C1250 1.260 . S
O1230 Tb1187 2.552 . S
O1230 C1243 1.243 . S
O1231 Tb1187 2.413 . S
O1231 C1251 1.256 . S
C1232 O1221 1.283 . S
C1232 O1224 1.243 . S
C1233 C1235 1.382 . S
C1233 C1237 1.393 . S
C1233 C1240 1.500 . S
C1234 C1235 1.400 . S
C1234 C1236 1.384 . S
C1235 C1233 1.382 . S
C1235 C1234 1.400 . S
C1235 H1252 0.930 . S
C1236 C1234 1.384 . S
C1236 C1238 1.392 . S
C1236 H1253 0.931 . S
C1237 C1233 1.393 . S
C1237 C1238 1.401 . S
C1237 H1254 0.930 . S
C1238 C1236 1.392 . S
C1238 C1237 1.401 . S
C1238 H1255 0.930 . S
C1239 O1222 1.262 . S
C1239 O1223 1.260 . S
C1240 Tb1176 2.833 . S
C1240 O1220 1.251 . S
C1240 O1225 1.256 . S
C1240 C1233 1.500 . S
C1241 H1206 0.929 . S
C1241 C1219 1.444 . S
C1241 C1242 1.317 . S
C1242 H1204 0.930 . S
C1242 C1210 1.432 . S
C1242 C1241 1.317 . S
C1243 O1227 1.283 . S
C1243 O1230 1.243 . S
C1244 C1245 1.382 . S
C1244 C1248 1.393 . S
C1244 C1251 1.500 . S
C1245 C1244 1.382 . S
C1245 C1246 1.400 . S
C1245 H1256 0.930 . S
C1246 C1245 1.400 . S
C1246 C1247 1.384 . S
C1247 C1246 1.384 . S
C1247 C1249 1.392 . S
C1247 H1257 0.931 . S
C1248 C1244 1.393 . S
C1248 C1249 1.401 . S
C1248 H1258 0.930 . S
C1249 C1247 1.392 . S
C1249 C1248 1.401 . S
C1249 H1259 0.930 . S
C1250 O1228 1.262 . S
C1250 O1229 1.260 . S
C1251 Tb1187 2.833 . S
C1251 O1226 1.251 . S
C1251 O1231 1.256 . S
C1251 C1244 1.500 . S
H1252 C1235 0.930 . S
H1253 C1236 0.931 . S
H1254 C1237 0.930 . S
H1255 C1238 0.930 . S
H1256 C1245 0.930 . S
H1257 C1247 0.931 . S
H1258 C1248 0.930 . S
H1259 C1249 0.930 . S
Tb1260 N1291 2.660 . S
Tb1260 N1298 2.600 . S
Tb1260 O1304 2.546 . S
Tb1260 O1305 2.610 . S
Tb1260 O1307 2.320 . S
Tb1260 O1308 2.552 . S
Tb1260 O1309 2.413 . S
Tb1260 O1311 2.362 . S
Tb1260 O1312 2.421 . S
Tb1260 C1324 2.833 . S
C1261 C1264 1.432 . S
C1261 C1265 1.414 . S
C1261 N1268 1.359 . S
C1262 C1264 1.417 . S
C1262 C1266 1.432 . S
C1262 C1274 1.410 . S
C1263 C1265 1.444 . S
C1263 C1266 1.317 . S
C1263 H1286 0.929 . S
C1264 C1261 1.432 . S
C1264 C1262 1.417 . S
C1264 N1272 1.360 . S
C1265 C1261 1.414 . S
C1265 C1263 1.444 . S
C1265 C1270 1.385 . S
C1266 C1262 1.432 . S
C1266 C1263 1.317 . S
C1266 H1278 0.930 . S
C1267 C1269 1.392 . S
C1267 C1270 1.370 . S
C1267 H1279 0.931 . S
N1268 C1261 1.359 . S
N1268 C1269 1.327 . S
N1268 Tb1271 2.600 . S
C1269 C1267 1.392 . S
C1269 N1268 1.327 . S
C1269 H1276 0.930 . S
C1270 C1265 1.385 . S
C1270 C1267 1.370 . S
C1270 H1289 0.930 . S
Tb1271 N1268 2.600 . S
Tb1271 N1272 2.660 . S
Tb1271 O1305 2.362 . S
Tb1271 O1306 2.421 . S
Tb1271 O1310 2.546 . S
Tb1271 O1311 2.610 . S
Tb1271 O1313 2.320 . S
Tb1271 O1314 2.552 . S
Tb1271 O1315 2.413 . S
Tb1271 C1335 2.833 . S
N1272 C1264 1.360 . S
N1272 Tb1271 2.660 . S
N1272 C1273 1.305 . S
C1273 N1272 1.305 . S
C1273 C1275 1.407 . S
C1273 H1280 0.930 . S
C1274 C1262 1.410 . S
C1274 C1275 1.345 . S
C1274 H1282 0.930 . S
C1275 C1273 1.407 . S
C1275 C1274 1.345 . S
C1275 H1277 0.930 . S
H1276 C1269 0.930 . S
H1277 C1275 0.930 . S
H1278 C1266 0.930 . S
H1279 C1267 0.931 . S
H1280 C1273 0.930 . S
H1281 C1295 0.930 . S
H1282 C1274 0.930 . S
H1283 C1301 0.930 . S
H1284 C1292 0.930 . S
H1285 C1299 0.931 . S
H1286 C1263 0.929 . S
H1287 C1293 0.930 . S
H1288 C1326 0.930 . S
H1289 C1270 0.930 . S
H1290 C1325 0.929 . S
N1291 Tb1260 2.660 . S
N1291 C1292 1.305 . S
N1291 C1296 1.360 . S
C1292 H1284 0.930 . S
C1292 N1291 1.305 . S
C1292 C1295 1.407 . S
C1293 H1287 0.930 . S
C1293 C1294 1.410 . S
C1293 C1295 1.345 . S
C1294 C1293 1.410 . S
C1294 C1296 1.417 . S
C1294 C1326 1.432 . S
C1295 H1281 0.930 . S
C1295 C1292 1.407 . S
C1295 C1293 1.345 . S
C1296 N1291 1.360 . S
C1296 C1294 1.417 . S
C1296 C1300 1.432 . S
H1297 C1302 0.930 . S
N1298 Tb1260 2.600 . S
N1298 C1300 1.359 . S
N1298 C1301 1.327 . S
C1299 H1285 0.931 . S
C1299 C1301 1.392 . S
C1299 C1302 1.370 . S
C1300 C1296 1.432 . S
C1300 N1298 1.359 . S
C1300 C1303 1.414 . S
C1301 H1283 0.930 . S
C1301 N1298 1.327 . S
C1301 C1299 1.392 . S
C1302 H1297 0.930 . S
C1302 C1299 1.370 . S
C1302 C1303 1.385 . S
C1303 C1300 1.414 . S
C1303 C1302 1.385 . S
C1303 C1325 1.444 . S
O1304 Tb1260 2.546 . S
O1304 C1324 1.251 . S
O1305 Tb1260 2.610 . S
O1305 Tb1271 2.362 . S
O1305 C1316 1.283 . S
O1306 Tb1271 2.421 . S
O1306 C1323 1.262 . S
O1307 Tb1260 2.320 . S
O1307 C1323 1.260 . S
O1308 Tb1260 2.552 . S
O1308 C1316 1.243 . S
O1309 Tb1260 2.413 . S
O1309 C1324 1.256 . S
O1310 Tb1271 2.546 . S
O1310 C1335 1.251 . S
O1311 Tb1260 2.362 . S
O1311 Tb1271 2.610 . S
O1311 C1327 1.283 . S
O1312 Tb1260 2.421 . S
O1312 C1334 1.262 . S
O1313 Tb1271 2.320 . S
O1313 C1334 1.260 . S
O1314 Tb1271 2.552 . S
O1314 C1327 1.243 . S
O1315 Tb1271 2.413 . S
O1315 C1335 1.256 . S
C1316 O1305 1.283 . S
C1316 O1308 1.243 . S
C1317 C1319 1.382 . S
C1317 C1321 1.393 . S
C1317 C1324 1.500 . S
C1318 C1319 1.400 . S
C1318 C1320 1.384 . S
C1319 C1317 1.382 . S
C1319 C1318 1.400 . S
C1319 H1336 0.930 . S
C1320 C1318 1.384 . S
C1320 C1322 1.392 . S
C1320 H1337 0.931 . S
C1321 C1317 1.393 . S
C1321 C1322 1.401 . S
C1321 H1338 0.930 . S
C1322 C1320 1.392 . S
C1322 C1321 1.401 . S
C1322 H1339 0.930 . S
C1323 O1306 1.262 . S
C1323 O1307 1.260 . S
C1324 Tb1260 2.833 . S
C1324 O1304 1.251 . S
C1324 O1309 1.256 . S
C1324 C1317 1.500 . S
C1325 H1290 0.929 . S
C1325 C1303 1.444 . S
C1325 C1326 1.317 . S
C1326 H1288 0.930 . S
C1326 C1294 1.432 . S
C1326 C1325 1.317 . S
C1327 O1311 1.283 . S
C1327 O1314 1.243 . S
C1328 C1329 1.382 . S
C1328 C1332 1.393 . S
C1328 C1335 1.500 . S
C1329 C1328 1.382 . S
C1329 C1330 1.400 . S
C1329 H1340 0.930 . S
C1330 C1329 1.400 . S
C1330 C1331 1.384 . S
C1331 C1330 1.384 . S
C1331 C1333 1.392 . S
C1331 H1341 0.931 . S
C1332 C1328 1.393 . S
C1332 C1333 1.401 . S
C1332 H1342 0.930 . S
C1333 C1331 1.392 . S
C1333 C1332 1.401 . S
C1333 H1343 0.930 . S
C1334 O1312 1.262 . S
C1334 O1313 1.260 . S
C1335 Tb1271 2.833 . S
C1335 O1310 1.251 . S
C1335 O1315 1.256 . S
C1335 C1328 1.500 . S
H1336 C1319 0.930 . S
H1337 C1320 0.931 . S
H1338 C1321 0.930 . S
H1339 C1322 0.930 . S
H1340 C1329 0.930 . S
H1341 C1331 0.931 . S
H1342 C1332 0.930 . S
H1343 C1333 0.930 . S
Tb1344 N1375 2.660 . S
Tb1344 N1382 2.600 . S
Tb1344 O1388 2.546 . S
Tb1344 O1389 2.610 . S
Tb1344 O1391 2.320 . S
Tb1344 O1392 2.552 . S
Tb1344 O1393 2.413 . S
Tb1344 O1395 2.362 . S
Tb1344 O1396 2.421 . S
Tb1344 C1408 2.833 . S
C1345 C1348 1.432 . S
C1345 C1349 1.414 . S
C1345 N1352 1.359 . S
C1346 C1348 1.417 . S
C1346 C1350 1.432 . S
C1346 C1358 1.410 . S
C1347 C1349 1.444 . S
C1347 C1350 1.317 . S
C1347 H1370 0.929 . S
C1348 C1345 1.432 . S
C1348 C1346 1.417 . S
C1348 N1356 1.360 . S
C1349 C1345 1.414 . S
C1349 C1347 1.444 . S
C1349 C1354 1.385 . S
C1350 C1346 1.432 . S
C1350 C1347 1.317 . S
C1350 H1362 0.930 . S
C1351 C1353 1.392 . S
C1351 C1354 1.370 . S
C1351 H1363 0.931 . S
N1352 C1345 1.359 . S
N1352 C1353 1.327 . S
N1352 Tb1355 2.600 . S
C1353 C1351 1.392 . S
C1353 N1352 1.327 . S
C1353 H1360 0.930 . S
C1354 C1349 1.385 . S
C1354 C1351 1.370 . S
C1354 H1373 0.930 . S
Tb1355 N1352 2.600 . S
Tb1355 N1356 2.660 . S
Tb1355 O1389 2.362 . S
Tb1355 O1390 2.421 . S
Tb1355 O1394 2.546 . S
Tb1355 O1395 2.610 . S
Tb1355 O1397 2.320 . S
Tb1355 O1398 2.552 . S
Tb1355 O1399 2.413 . S
Tb1355 C1419 2.833 . S
N1356 C1348 1.360 . S
N1356 Tb1355 2.660 . S
N1356 C1357 1.305 . S
C1357 N1356 1.305 . S
C1357 C1359 1.407 . S
C1357 H1364 0.930 . S
C1358 C1346 1.410 . S
C1358 C1359 1.345 . S
C1358 H1366 0.930 . S
C1359 C1357 1.407 . S
C1359 C1358 1.345 . S
C1359 H1361 0.930 . S
H1360 C1353 0.930 . S
H1361 C1359 0.930 . S
H1362 C1350 0.930 . S
H1363 C1351 0.931 . S
H1364 C1357 0.930 . S
H1365 C1379 0.930 . S
H1366 C1358 0.930 . S
H1367 C1385 0.930 . S
H1368 C1376 0.930 . S
H1369 C1383 0.931 . S
H1370 C1347 0.929 . S
H1371 C1377 0.930 . S
H1372 C1410 0.930 . S
H1373 C1354 0.930 . S
H1374 C1409 0.929 . S
N1375 Tb1344 2.660 . S
N1375 C1376 1.305 . S
N1375 C1380 1.360 . S
C1376 H1368 0.930 . S
C1376 N1375 1.305 . S
C1376 C1379 1.407 . S
C1377 H1371 0.930 . S
C1377 C1378 1.410 . S
C1377 C1379 1.345 . S
C1378 C1377 1.410 . S
C1378 C1380 1.417 . S
C1378 C1410 1.432 . S
C1379 H1365 0.930 . S
C1379 C1376 1.407 . S
C1379 C1377 1.345 . S
C1380 N1375 1.360 . S
C1380 C1378 1.417 . S
C1380 C1384 1.432 . S
H1381 C1386 0.930 . S
N1382 Tb1344 2.600 . S
N1382 C1384 1.359 . S
N1382 C1385 1.327 . S
C1383 H1369 0.931 . S
C1383 C1385 1.392 . S
C1383 C1386 1.370 . S
C1384 C1380 1.432 . S
C1384 N1382 1.359 . S
C1384 C1387 1.414 . S
C1385 H1367 0.930 . S
C1385 N1382 1.327 . S
C1385 C1383 1.392 . S
C1386 H1381 0.930 . S
C1386 C1383 1.370 . S
C1386 C1387 1.385 . S
C1387 C1384 1.414 . S
C1387 C1386 1.385 . S
C1387 C1409 1.444 . S
O1388 Tb1344 2.546 . S
O1388 C1408 1.251 . S
O1389 Tb1344 2.610 . S
O1389 Tb1355 2.362 . S
O1389 C1400 1.283 . S
O1390 Tb1355 2.421 . S
O1390 C1407 1.262 . S
O1391 Tb1344 2.320 . S
O1391 C1407 1.260 . S
O1392 Tb1344 2.552 . S
O1392 C1400 1.243 . S
O1393 Tb1344 2.413 . S
O1393 C1408 1.256 . S
O1394 Tb1355 2.546 . S
O1394 C1419 1.251 . S
O1395 Tb1344 2.362 . S
O1395 Tb1355 2.610 . S
O1395 C1411 1.283 . S
O1396 Tb1344 2.421 . S
O1396 C1418 1.262 . S
O1397 Tb1355 2.320 . S
O1397 C1418 1.260 . S
O1398 Tb1355 2.552 . S
O1398 C1411 1.243 . S
O1399 Tb1355 2.413 . S
O1399 C1419 1.256 . S
C1400 O1389 1.283 . S
C1400 O1392 1.243 . S
C1401 C1403 1.382 . S
C1401 C1405 1.393 . S
C1401 C1408 1.500 . S
C1402 C1403 1.400 . S
C1402 C1404 1.384 . S
C1403 C1401 1.382 . S
C1403 C1402 1.400 . S
C1403 H1420 0.930 . S
C1404 C1402 1.384 . S
C1404 C1406 1.392 . S
C1404 H1421 0.931 . S
C1405 C1401 1.393 . S
C1405 C1406 1.401 . S
C1405 H1422 0.930 . S
C1406 C1404 1.392 . S
C1406 C1405 1.401 . S
C1406 H1423 0.930 . S
C1407 O1390 1.262 . S
C1407 O1391 1.260 . S
C1408 Tb1344 2.833 . S
C1408 O1388 1.251 . S
C1408 O1393 1.256 . S
C1408 C1401 1.500 . S
C1409 H1374 0.929 . S
C1409 C1387 1.444 . S
C1409 C1410 1.317 . S
C1410 H1372 0.930 . S
C1410 C1378 1.432 . S
C1410 C1409 1.317 . S
C1411 O1395 1.283 . S
C1411 O1398 1.243 . S
C1412 C1413 1.382 . S
C1412 C1416 1.393 . S
C1412 C1419 1.500 . S
C1413 C1412 1.382 . S
C1413 C1414 1.400 . S
C1413 H1424 0.930 . S
C1414 C1413 1.400 . S
C1414 C1415 1.384 . S
C1415 C1414 1.384 . S
C1415 C1417 1.392 . S
C1415 H1425 0.931 . S
C1416 C1412 1.393 . S
C1416 C1417 1.401 . S
C1416 H1426 0.930 . S
C1417 C1415 1.392 . S
C1417 C1416 1.401 . S
C1417 H1427 0.930 . S
C1418 O1396 1.262 . S
C1418 O1397 1.260 . S
C1419 Tb1355 2.833 . S
C1419 O1394 1.251 . S
C1419 O1399 1.256 . S
C1419 C1412 1.500 . S
H1420 C1403 0.930 . S
H1421 C1404 0.931 . S
H1422 C1405 0.930 . S
H1423 C1406 0.930 . S
H1424 C1413 0.930 . S
H1425 C1415 0.931 . S
H1426 C1416 0.930 . S
H1427 C1417 0.930 . S
Tb1428 N1459 2.660 . S
Tb1428 N1466 2.600 . S
Tb1428 O1472 2.546 . S
Tb1428 O1473 2.610 . S
Tb1428 O1475 2.320 . S
Tb1428 O1476 2.552 . S
Tb1428 O1477 2.413 . S
Tb1428 O1479 2.362 . S
Tb1428 O1480 2.421 . S
Tb1428 C1492 2.833 . S
C1429 C1432 1.432 . S
C1429 C1433 1.414 . S
C1429 N1436 1.359 . S
C1430 C1432 1.417 . S
C1430 C1434 1.432 . S
C1430 C1442 1.410 . S
C1431 C1433 1.444 . S
C1431 C1434 1.317 . S
C1431 H1454 0.929 . S
C1432 C1429 1.432 . S
C1432 C1430 1.417 . S
C1432 N1440 1.360 . S
C1433 C1429 1.414 . S
C1433 C1431 1.444 . S
C1433 C1438 1.385 . S
C1434 C1430 1.432 . S
C1434 C1431 1.317 . S
C1434 H1446 0.930 . S
C1435 C1437 1.392 . S
C1435 C1438 1.370 . S
C1435 H1447 0.931 . S
N1436 C1429 1.359 . S
N1436 C1437 1.327 . S
N1436 Tb1439 2.600 . S
C1437 C1435 1.392 . S
C1437 N1436 1.327 . S
C1437 H1444 0.930 . S
C1438 C1433 1.385 . S
C1438 C1435 1.370 . S
C1438 H1457 0.930 . S
Tb1439 N1436 2.600 . S
Tb1439 N1440 2.660 . S
Tb1439 O1473 2.362 . S
Tb1439 O1474 2.421 . S
Tb1439 O1478 2.546 . S
Tb1439 O1479 2.610 . S
Tb1439 O1481 2.320 . S
Tb1439 O1482 2.552 . S
Tb1439 O1483 2.413 . S
Tb1439 C1503 2.833 . S
N1440 C1432 1.360 . S
N1440 Tb1439 2.660 . S
N1440 C1441 1.305 . S
C1441 N1440 1.305 . S
C1441 C1443 1.407 . S
C1441 H1448 0.930 . S
C1442 C1430 1.410 . S
C1442 C1443 1.345 . S
C1442 H1450 0.930 . S
C1443 C1441 1.407 . S
C1443 C1442 1.345 . S
C1443 H1445 0.930 . S
H1444 C1437 0.930 . S
H1445 C1443 0.930 . S
H1446 C1434 0.930 . S
H1447 C1435 0.931 . S
H1448 C1441 0.930 . S
H1449 C1463 0.930 . S
H1450 C1442 0.930 . S
H1451 C1469 0.930 . S
H1452 C1460 0.930 . S
H1453 C1467 0.931 . S
H1454 C1431 0.929 . S
H1455 C1461 0.930 . S
H1456 C1494 0.930 . S
H1457 C1438 0.930 . S
H1458 C1493 0.929 . S
N1459 Tb1428 2.660 . S
N1459 C1460 1.305 . S
N1459 C1464 1.360 . S
C1460 H1452 0.930 . S
C1460 N1459 1.305 . S
C1460 C1463 1.407 . S
C1461 H1455 0.930 . S
C1461 C1462 1.410 . S
C1461 C1463 1.345 . S
C1462 C1461 1.410 . S
C1462 C1464 1.417 . S
C1462 C1494 1.432 . S
C1463 H1449 0.930 . S
C1463 C1460 1.407 . S
C1463 C1461 1.345 . S
C1464 N1459 1.360 . S
C1464 C1462 1.417 . S
C1464 C1468 1.432 . S
H1465 C1470 0.930 . S
N1466 Tb1428 2.600 . S
N1466 C1468 1.359 . S
N1466 C1469 1.327 . S
C1467 H1453 0.931 . S
C1467 C1469 1.392 . S
C1467 C1470 1.370 . S
C1468 C1464 1.432 . S
C1468 N1466 1.359 . S
C1468 C1471 1.414 . S
C1469 H1451 0.930 . S
C1469 N1466 1.327 . S
C1469 C1467 1.392 . S
C1470 H1465 0.930 . S
C1470 C1467 1.370 . S
C1470 C1471 1.385 . S
C1471 C1468 1.414 . S
C1471 C1470 1.385 . S
C1471 C1493 1.444 . S
O1472 Tb1428 2.546 . S
O1472 C1492 1.251 . S
O1473 Tb1428 2.610 . S
O1473 Tb1439 2.362 . S
O1473 C1484 1.283 . S
O1474 Tb1439 2.421 . S
O1474 C1491 1.262 . S
O1475 Tb1428 2.320 . S
O1475 C1491 1.260 . S
O1476 Tb1428 2.552 . S
O1476 C1484 1.243 . S
O1477 Tb1428 2.413 . S
O1477 C1492 1.256 . S
O1478 Tb1439 2.546 . S
O1478 C1503 1.251 . S
O1479 Tb1428 2.362 . S
O1479 Tb1439 2.610 . S
O1479 C1495 1.283 . S
O1480 Tb1428 2.421 . S
O1480 C1502 1.262 . S
O1481 Tb1439 2.320 . S
O1481 C1502 1.260 . S
O1482 Tb1439 2.552 . S
O1482 C1495 1.243 . S
O1483 Tb1439 2.413 . S
O1483 C1503 1.256 . S
C1484 O1473 1.283 . S
C1484 O1476 1.243 . S
C1485 C1487 1.382 . S
C1485 C1489 1.393 . S
C1485 C1492 1.500 . S
C1486 C1487 1.400 . S
C1486 C1488 1.384 . S
C1487 C1485 1.382 . S
C1487 C1486 1.400 . S
C1487 H1504 0.930 . S
C1488 C1486 1.384 . S
C1488 C1490 1.392 . S
C1488 H1505 0.931 . S
C1489 C1485 1.393 . S
C1489 C1490 1.401 . S
C1489 H1506 0.930 . S
C1490 C1488 1.392 . S
C1490 C1489 1.401 . S
C1490 H1507 0.930 . S
C1491 O1474 1.262 . S
C1491 O1475 1.260 . S
C1492 Tb1428 2.833 . S
C1492 O1472 1.251 . S
C1492 O1477 1.256 . S
C1492 C1485 1.500 . S
C1493 H1458 0.929 . S
C1493 C1471 1.444 . S
C1493 C1494 1.317 . S
C1494 H1456 0.930 . S
C1494 C1462 1.432 . S
C1494 C1493 1.317 . S
C1495 O1479 1.283 . S
C1495 O1482 1.243 . S
C1496 C1497 1.382 . S
C1496 C1500 1.393 . S
C1496 C1503 1.500 . S
C1497 C1496 1.382 . S
C1497 C1498 1.400 . S
C1497 H1508 0.930 . S
C1498 C1497 1.400 . S
C1498 C1499 1.384 . S
C1499 C1498 1.384 . S
C1499 C1501 1.392 . S
C1499 H1509 0.931 . S
C1500 C1496 1.393 . S
C1500 C1501 1.401 . S
C1500 H1510 0.930 . S
C1501 C1499 1.392 . S
C1501 C1500 1.401 . S
C1501 H1511 0.930 . S
C1502 O1480 1.262 . S
C1502 O1481 1.260 . S
C1503 Tb1439 2.833 . S
C1503 O1478 1.251 . S
C1503 O1483 1.256 . S
C1503 C1496 1.500 . S
H1504 C1487 0.930 . S
H1505 C1488 0.931 . S
H1506 C1489 0.930 . S
H1507 C1490 0.930 . S
H1508 C1497 0.930 . S
H1509 C1499 0.931 . S
H1510 C1500 0.930 . S
H1511 C1501 0.930 . S
Tb1512 N1543 2.660 . S
Tb1512 N1550 2.600 . S
Tb1512 O1556 2.546 . S
Tb1512 O1557 2.610 . S
Tb1512 O1559 2.320 . S
Tb1512 O1560 2.552 . S
Tb1512 O1561 2.413 . S
Tb1512 O1563 2.362 . S
Tb1512 O1564 2.421 . S
Tb1512 C1576 2.833 . S
C1513 C1516 1.432 . S
C1513 C1517 1.414 . S
C1513 N1520 1.359 . S
C1514 C1516 1.417 . S
C1514 C1518 1.432 . S
C1514 C1526 1.410 . S
C1515 C1517 1.444 . S
C1515 C1518 1.317 . S
C1515 H1538 0.929 . S
C1516 C1513 1.432 . S
C1516 C1514 1.417 . S
C1516 N1524 1.360 . S
C1517 C1513 1.414 . S
C1517 C1515 1.444 . S
C1517 C1522 1.385 . S
C1518 C1514 1.432 . S
C1518 C1515 1.317 . S
C1518 H1530 0.930 . S
C1519 C1521 1.392 . S
C1519 C1522 1.370 . S
C1519 H1531 0.931 . S
N1520 C1513 1.359 . S
N1520 C1521 1.327 . S
N1520 Tb1523 2.600 . S
C1521 C1519 1.392 . S
C1521 N1520 1.327 . S
C1521 H1528 0.930 . S
C1522 C1517 1.385 . S
C1522 C1519 1.370 . S
C1522 H1541 0.930 . S
Tb1523 N1520 2.600 . S
Tb1523 N1524 2.660 . S
Tb1523 O1557 2.362 . S
Tb1523 O1558 2.421 . S
Tb1523 O1562 2.546 . S
Tb1523 O1563 2.610 . S
Tb1523 O1565 2.320 . S
Tb1523 O1566 2.552 . S
Tb1523 O1567 2.413 . S
Tb1523 C1587 2.833 . S
N1524 C1516 1.360 . S
N1524 Tb1523 2.660 . S
N1524 C1525 1.305 . S
C1525 N1524 1.305 . S
C1525 C1527 1.407 . S
C1525 H1532 0.930 . S
C1526 C1514 1.410 . S
C1526 C1527 1.345 . S
C1526 H1534 0.930 . S
C1527 C1525 1.407 . S
C1527 C1526 1.345 . S
C1527 H1529 0.930 . S
H1528 C1521 0.930 . S
H1529 C1527 0.930 . S
H1530 C1518 0.930 . S
H1531 C1519 0.931 . S
H1532 C1525 0.930 . S
H1533 C1547 0.930 . S
H1534 C1526 0.930 . S
H1535 C1553 0.930 . S
H1536 C1544 0.930 . S
H1537 C1551 0.931 . S
H1538 C1515 0.929 . S
H1539 C1545 0.930 . S
H1540 C1578 0.930 . S
H1541 C1522 0.930 . S
H1542 C1577 0.929 . S
N1543 Tb1512 2.660 . S
N1543 C1544 1.305 . S
N1543 C1548 1.360 . S
C1544 H1536 0.930 . S
C1544 N1543 1.305 . S
C1544 C1547 1.407 . S
C1545 H1539 0.930 . S
C1545 C1546 1.410 . S
C1545 C1547 1.345 . S
C1546 C1545 1.410 . S
C1546 C1548 1.417 . S
C1546 C1578 1.432 . S
C1547 H1533 0.930 . S
C1547 C1544 1.407 . S
C1547 C1545 1.345 . S
C1548 N1543 1.360 . S
C1548 C1546 1.417 . S
C1548 C1552 1.432 . S
H1549 C1554 0.930 . S
N1550 Tb1512 2.600 . S
N1550 C1552 1.359 . S
N1550 C1553 1.327 . S
C1551 H1537 0.931 . S
C1551 C1553 1.392 . S
C1551 C1554 1.370 . S
C1552 C1548 1.432 . S
C1552 N1550 1.359 . S
C1552 C1555 1.414 . S
C1553 H1535 0.930 . S
C1553 N1550 1.327 . S
C1553 C1551 1.392 . S
C1554 H1549 0.930 . S
C1554 C1551 1.370 . S
C1554 C1555 1.385 . S
C1555 C1552 1.414 . S
C1555 C1554 1.385 . S
C1555 C1577 1.444 . S
O1556 Tb1512 2.546 . S
O1556 C1576 1.251 . S
O1557 Tb1512 2.610 . S
O1557 Tb1523 2.362 . S
O1557 C1568 1.283 . S
O1558 Tb1523 2.421 . S
O1558 C1575 1.262 . S
O1559 Tb1512 2.320 . S
O1559 C1575 1.260 . S
O1560 Tb1512 2.552 . S
O1560 C1568 1.243 . S
O1561 Tb1512 2.413 . S
O1561 C1576 1.256 . S
O1562 Tb1523 2.546 . S
O1562 C1587 1.251 . S
O1563 Tb1512 2.362 . S
O1563 Tb1523 2.610 . S
O1563 C1579 1.283 . S
O1564 Tb1512 2.421 . S
O1564 C1586 1.262 . S
O1565 Tb1523 2.320 . S
O1565 C1586 1.260 . S
O1566 Tb1523 2.552 . S
O1566 C1579 1.243 . S
O1567 Tb1523 2.413 . S
O1567 C1587 1.256 . S
C1568 O1557 1.283 . S
C1568 O1560 1.243 . S
C1569 C1571 1.382 . S
C1569 C1573 1.393 . S
C1569 C1576 1.500 . S
C1570 C1571 1.400 . S
C1570 C1572 1.384 . S
C1571 C1569 1.382 . S
C1571 C1570 1.400 . S
C1571 H1588 0.930 . S
C1572 C1570 1.384 . S
C1572 C1574 1.392 . S
C1572 H1589 0.931 . S
C1573 C1569 1.393 . S
C1573 C1574 1.401 . S
C1573 H1590 0.930 . S
C1574 C1572 1.392 . S
C1574 C1573 1.401 . S
C1574 H1591 0.930 . S
C1575 O1558 1.262 . S
C1575 O1559 1.260 . S
C1576 Tb1512 2.833 . S
C1576 O1556 1.251 . S
C1576 O1561 1.256 . S
C1576 C1569 1.500 . S
C1577 H1542 0.929 . S
C1577 C1555 1.444 . S
C1577 C1578 1.317 . S
C1578 H1540 0.930 . S
C1578 C1546 1.432 . S
C1578 C1577 1.317 . S
C1579 O1563 1.283 . S
C1579 O1566 1.243 . S
C1580 C1581 1.382 . S
C1580 C1584 1.393 . S
C1580 C1587 1.500 . S
C1581 C1580 1.382 . S
C1581 C1582 1.400 . S
C1581 H1592 0.930 . S
C1582 C1581 1.400 . S
C1582 C1583 1.384 . S
C1583 C1582 1.384 . S
C1583 C1585 1.392 . S
C1583 H1593 0.931 . S
C1584 C1580 1.393 . S
C1584 C1585 1.401 . S
C1584 H1594 0.930 . S
C1585 C1583 1.392 . S
C1585 C1584 1.401 . S
C1585 H1595 0.930 . S
C1586 O1564 1.262 . S
C1586 O1565 1.260 . S
C1587 Tb1523 2.833 . S
C1587 O1562 1.251 . S
C1587 O1567 1.256 . S
C1587 C1580 1.500 . S
H1588 C1571 0.930 . S
H1589 C1572 0.931 . S
H1590 C1573 0.930 . S
H1591 C1574 0.930 . S
H1592 C1581 0.930 . S
H1593 C1583 0.931 . S
H1594 C1584 0.930 . S
H1595 C1585 0.930 . S
Tb1596 N1627 2.660 . S
Tb1596 N1634 2.600 1_554 S
Tb1596 O1640 2.546 1_554 S
Tb1596 O1641 2.610 . S
Tb1596 O1643 2.320 . S
Tb1596 O1644 2.552 . S
Tb1596 O1645 2.413 . S
Tb1596 O1647 2.362 . S
Tb1596 O1648 2.421 1_554 S
Tb1596 C1660 2.833 1_554 S
C1597 C1600 1.432 . S
C1597 C1601 1.414 . S
C1597 N1604 1.359 1_655 S
C1598 C1600 1.417 . S
C1598 C1602 1.432 . S
C1598 C1610 1.410 1_554 S
C1599 C1601 1.444 . S
C1599 C1602 1.317 . S
C1599 H1622 0.929 . S
C1600 C1597 1.432 . S
C1600 C1598 1.417 . S
C1600 N1608 1.369 . S
C1601 C1597 1.414 . S
C1601 C1599 1.444 . S
C1601 C1606 1.385 . S
C1602 C1598 1.432 . S
C1602 C1599 1.317 . S
C1602 H1614 0.930 . S
C1603 C1605 1.392 . S
C1603 C1606 1.370 1_455 S
C1603 H1615 0.931 . S
N1604 C1597 1.359 1_455 S
N1604 C1605 1.327 . S
N1604 Tb1607 2.600 . S
C1605 C1603 1.392 . S
C1605 N1604 1.327 . S
C1605 H1612 0.930 . S
C1606 C1601 1.385 . S
C1606 C1603 1.370 1_655 S
C1606 H1625 0.930 . S
Tb1607 N1604 2.600 . S
Tb1607 N1608 2.649 1_455 S
Tb1607 O1641 2.362 . S
Tb1607 O1642 2.421 . S
Tb1607 O1646 2.546 . S
Tb1607 O1647 2.610 . S
Tb1607 O1649 2.320 1_554 S
Tb1607 O1650 2.552 . S
Tb1607 O1651 2.413 1_455 S
Tb1607 C1671 2.833 1_455 S
N1608 C1600 1.369 . S
N1608 Tb1607 2.649 1_655 S
N1608 C1609 1.307 1_554 S
C1609 N1608 1.307 1_556 S
C1609 C1611 1.407 . S
C1609 H1616 0.930 1_655 S
C1610 C1598 1.410 1_556 S
C1610 C1611 1.345 . S
C1610 H1618 0.930 . S
C1611 C1609 1.407 . S
C1611 C1610 1.345 . S
C1611 H1613 0.930 . S
H1612 C1605 0.930 . S
H1613 C1611 0.930 . S
H1614 C1602 0.930 . S
H1615 C1603 0.931 . S
H1616 C1609 0.930 1_455 S
H1617 C1631 0.930 . S
H1618 C1610 0.930 . S
H1619 C1637 0.930 . S
H1620 C1628 0.930 . S
H1621 C1635 0.931 . S
H1622 C1599 0.929 . S
H1623 C1629 0.930 . S
H1624 C1662 0.930 . S
H1625 C1606 0.930 . S
H1626 C1661 0.929 . S
N1627 Tb1596 2.660 . S
N1627 C1628 1.305 . S
N1627 C1632 1.360 . S
C1628 H1620 0.930 . S
C1628 N1627 1.305 . S
C1628 C1631 1.407 . S
C1629 H1623 0.930 . S
C1629 C1630 1.410 . S
C1629 C1631 1.345 . S
C1630 C1629 1.410 . S
C1630 C1632 1.417 . S
C1630 C1662 1.432 . S
C1631 H1617 0.930 . S
C1631 C1628 1.407 . S
C1631 C1629 1.345 . S
C1632 N1627 1.360 . S
C1632 C1630 1.417 . S
C1632 C1636 1.432 1_554 S
H1633 C1638 0.930 . S
N1634 Tb1596 2.600 1_556 S
N1634 C1636 1.359 . S
N1634 C1637 1.327 . S
C1635 H1621 0.931 . S
C1635 C1637 1.392 . S
C1635 C1638 1.370 . S
C1636 C1632 1.432 1_556 S
C1636 N1634 1.359 . S
C1636 C1639 1.414 . S
C1637 H1619 0.930 . S
C1637 N1634 1.327 . S
C1637 C1635 1.392 . S
C1638 H1633 0.930 . S
C1638 C1635 1.370 . S
C1638 C1639 1.385 . S
C1639 C1636 1.414 . S
C1639 C1638 1.385 . S
C1639 C1661 1.444 . S
O1640 Tb1596 2.546 1_556 S
O1640 C1660 1.251 . S
O1641 Tb1596 2.610 . S
O1641 Tb1607 2.362 . S
O1641 C1652 1.283 . S
O1642 Tb1607 2.421 . S
O1642 C1659 1.262 . S
O1643 Tb1596 2.320 . S
O1643 C1659 1.260 . S
O1644 Tb1596 2.552 . S
O1644 C1652 1.243 . S
O1645 Tb1596 2.413 . S
O1645 C1660 1.256 1_554 S
O1646 Tb1607 2.546 . S
O1646 C1671 1.251 1_455 S
O1647 Tb1596 2.362 . S
O1647 Tb1607 2.610 . S
O1647 C1663 1.283 . S
O1648 Tb1596 2.421 1_556 S
O1648 C1670 1.262 . S
O1649 Tb1607 2.320 1_556 S
O1649 C1670 1.260 . S
O1650 Tb1607 2.552 . S
O1650 C1663 1.243 . S
O1651 Tb1607 2.413 1_655 S
O1651 C1671 1.256 . S
C1652 O1641 1.283 . S
C1652 O1644 1.243 . S
C1653 C1655 1.382 1_556 S
C1653 C1657 1.393 . S
C1653 C1660 1.500 . S
C1654 C1655 1.400 1_556 S
C1654 C1656 1.384 . S
C1655 C1653 1.382 1_554 S
C1655 C1654 1.400 1_554 S
C1655 H1672 0.930 . S
C1656 C1654 1.384 . S
C1656 C1658 1.392 . S
C1656 H1673 0.931 . S
C1657 C1653 1.393 . S
C1657 C1658 1.401 . S
C1657 H1674 0.930 . S
C1658 C1656 1.392 . S
C1658 C1657 1.401 . S
C1658 H1675 0.930 . S
C1659 O1642 1.262 . S
C1659 O1643 1.260 . S
C1660 Tb1596 2.833 1_556 S
C1660 O1640 1.251 . S
C1660 O1645 1.256 1_556 S
C1660 C1653 1.500 . S
C1661 H1626 0.929 . S
C1661 C1639 1.444 . S
C1661 C1662 1.317 1_556 S
C1662 H1624 0.930 . S
C1662 C1630 1.432 . S
C1662 C1661 1.317 1_554 S
C1663 O1647 1.283 . S
C1663 O1650 1.243 . S
C1664 C1665 1.382 . S
C1664 C1668 1.393 . S
C1664 C1671 1.500 . S
C1665 C1664 1.382 . S
C1665 C1666 1.400 . S
C1665 H1676 0.930 . S
C1666 C1665 1.400 . S
C1666 C1667 1.384 . S
C1667 C1666 1.384 . S
C1667 C1669 1.392 . S
C1667 H1677 0.931 . S
C1668 C1664 1.393 . S
C1668 C1669 1.401 . S
C1668 H1678 0.930 . S
C1669 C1667 1.392 . S
C1669 C1668 1.401 . S
C1669 H1679 0.930 . S
C1670 O1648 1.262 . S
C1670 O1649 1.260 . S
C1671 Tb1607 2.833 1_655 S
C1671 O1646 1.251 1_655 S
C1671 O1651 1.256 . S
C1671 C1664 1.500 . S
H1672 C1655 0.930 . S
H1673 C1656 0.931 . S
H1674 C1657 0.930 . S
H1675 C1658 0.930 . S
H1676 C1665 0.930 . S
H1677 C1667 0.931 . S
H1678 C1668 0.930 . S
H1679 C1669 0.930 . S
C1680 C1681 1.391 . S
C1680 C1682 1.394 . S
C1680 H1696 0.946 . S
C1681 C1680 1.391 . S
C1681 C1685 1.376 . S
C1682 C1680 1.394 . S
C1682 C1683 1.369 . S
C1682 C1686 1.531 1_556 S
C1683 C1682 1.369 . S
C1683 C1684 1.410 . S
C1683 C1691 1.503 . S
C1684 C1683 1.410 . S
C1684 C1685 1.392 . S
C1684 C1687 1.511 . S
C1685 C1681 1.376 . S
C1685 C1684 1.392 . S
C1685 H1697 0.929 . S
C1686 C1682 1.531 1_554 S
C1686 H1698 0.959 . S
C1686 H1699 0.962 . S
C1686 H1700 0.960 1_455 S
C1687 C1684 1.511 . S
C1687 H1701 0.961 . S
C1687 H1702 0.961 . S
C1687 H1703 0.961 . S
C1688 C1689 1.370 . S
C1688 C1690 1.363 . S
C1688 H1704 0.931 . S
C1689 C1688 1.370 . S
C1689 C1693 1.408 1_554 S
C1690 C1688 1.363 . S
C1690 C1691 1.370 1_554 S
C1690 C1694 1.524 . S
C1691 C1683 1.503 . S
C1691 C1690 1.370 1_556 S
C1691 C1692 1.403 . S
C1692 C1691 1.403 . S
C1692 C1693 1.404 . S
C1692 C1695 1.539 . S
C1693 C1689 1.408 1_556 S
C1693 C1692 1.404 . S
C1693 H1705 0.930 . S
C1694 C1690 1.524 . S
C1694 H1706 0.956 . S
C1694 H1707 0.961 . S
C1694 H1708 0.961 . S
C1695 C1692 1.539 . S
C1695 H1709 0.958 1_455 S
C1695 H1710 0.959 . S
C1695 H1711 0.960 . S
H1696 C1680 0.946 . S
H1697 C1685 0.929 . S
H1698 C1686 0.959 . S
H1699 C1686 0.962 . S
H1700 C1686 0.960 1_655 S
H1701 C1687 0.961 . S
H1702 C1687 0.961 . S
H1703 C1687 0.961 . S
H1704 C1688 0.931 . S
H1705 C1693 0.930 . S
H1706 C1694 0.956 . S
H1707 C1694 0.961 . S
H1708 C1694 0.961 . S
H1709 C1695 0.958 1_655 S
H1710 C1695 0.959 . S
H1711 C1695 0.960 . S
C1712 C1713 1.391 . S
C1712 C1714 1.394 . S
C1712 H1728 0.931 . S
C1713 C1712 1.391 . S
C1713 C1717 1.376 . S
C1714 C1712 1.394 . S
C1714 C1715 1.369 . S
C1714 C1718 1.531 . S
C1715 C1714 1.369 . S
C1715 C1716 1.410 . S
C1715 C1723 1.503 . S
C1716 C1715 1.410 . S
C1716 C1717 1.392 . S
C1716 C1719 1.511 . S
C1717 C1713 1.376 . S
C1717 C1716 1.392 . S
C1717 H1729 0.929 . S
C1718 C1714 1.531 . S
C1718 H1730 0.960 . S
C1718 H1731 0.962 . S
C1718 H1732 0.960 . S
C1719 C1716 1.511 . S
C1719 H1733 0.961 . S
C1719 H1734 0.961 . S
C1719 H1735 0.961 . S
C1720 C1721 1.370 . S
C1720 C1722 1.363 . S
C1720 H1736 0.931 . S
C1721 C1720 1.370 . S
C1721 C1725 1.408 . S
C1722 C1720 1.363 . S
C1722 C1723 1.370 . S
C1722 C1726 1.524 . S
C1723 C1715 1.503 . S
C1723 C1722 1.370 . S
C1723 C1724 1.403 . S
C1724 C1723 1.403 . S
C1724 C1725 1.404 . S
C1724 C1727 1.539 . S
C1725 C1721 1.408 . S
C1725 C1724 1.404 . S
C1725 H1737 0.930 . S
C1726 C1722 1.524 . S
C1726 H1738 0.956 . S
C1726 H1739 0.961 . S
C1726 H1740 0.961 . S
C1727 C1724 1.539 . S
C1727 H1741 0.958 . S
C1727 H1742 0.961 . S
C1727 H1743 0.960 . S
H1728 C1712 0.931 . S
H1729 C1717 0.929 . S
H1730 C1718 0.960 . S
H1731 C1718 0.962 . S
H1732 C1718 0.960 . S
H1733 C1719 0.961 . S
H1734 C1719 0.961 . S
H1735 C1719 0.961 . S
H1736 C1720 0.931 . S
H1737 C1725 0.930 . S
H1738 C1726 0.956 . S
H1739 C1726 0.961 . S
H1740 C1726 0.961 . S
H1741 C1727 0.958 . S
H1742 C1727 0.961 . S
H1743 C1727 0.960 . S
C1744 C1745 1.391 . S
C1744 C1746 1.394 . S
C1744 H1760 0.931 . S
C1745 C1744 1.391 . S
C1745 C1749 1.376 . S
C1746 C1744 1.394 . S
C1746 C1747 1.369 . S
C1746 C1750 1.531 . S
C1747 C1746 1.369 . S
C1747 C1748 1.410 . S
C1747 C1755 1.503 . S
C1748 C1747 1.410 . S
C1748 C1749 1.392 . S
C1748 C1751 1.511 . S
C1749 C1745 1.376 . S
C1749 C1748 1.392 . S
C1749 H1761 0.929 . S
C1750 C1746 1.531 . S
C1750 H1762 0.960 . S
C1750 H1763 0.962 . S
C1750 H1764 0.960 . S
C1751 C1748 1.511 . S
C1751 H1765 0.961 . S
C1751 H1766 0.961 . S
C1751 H1767 0.961 . S
C1752 C1753 1.370 . S
C1752 C1754 1.363 . S
C1752 H1768 0.931 . S
C1753 C1752 1.370 . S
C1753 C1757 1.408 . S
C1754 C1752 1.363 . S
C1754 C1755 1.370 . S
C1754 C1758 1.524 . S
C1755 C1747 1.503 . S
C1755 C1754 1.370 . S
C1755 C1756 1.403 . S
C1756 C1755 1.403 . S
C1756 C1757 1.404 . S
C1756 C1759 1.539 . S
C1757 C1753 1.408 . S
C1757 C1756 1.404 . S
C1757 H1769 0.930 . S
C1758 C1754 1.524 . S
C1758 H1770 0.956 . S
C1758 H1771 0.961 . S
C1758 H1772 0.961 . S
C1759 C1756 1.539 . S
C1759 H1773 0.958 . S
C1759 H1774 0.961 . S
C1759 H1775 0.960 . S
H1760 C1744 0.931 . S
H1761 C1749 0.929 . S
H1762 C1750 0.960 . S
H1763 C1750 0.962 . S
H1764 C1750 0.960 . S
H1765 C1751 0.961 . S
H1766 C1751 0.961 . S
H1767 C1751 0.961 . S
H1768 C1752 0.931 . S
H1769 C1757 0.930 . S
H1770 C1758 0.956 . S
H1771 C1758 0.961 . S
H1772 C1758 0.961 . S
H1773 C1759 0.958 . S
H1774 C1759 0.961 . S
H1775 C1759 0.960 . S
C1776 C1777 1.391 . S
C1776 C1778 1.394 . S
C1776 H1792 0.931 . S
C1777 C1776 1.391 . S
C1777 C1781 1.376 . S
C1778 C1776 1.394 . S
C1778 C1779 1.369 . S
C1778 C1782 1.531 . S
C1779 C1778 1.369 . S
C1779 C1780 1.410 . S
C1779 C1787 1.503 . S
C1780 C1779 1.410 . S
C1780 C1781 1.392 . S
C1780 C1783 1.511 . S
C1781 C1777 1.376 . S
C1781 C1780 1.392 . S
C1781 H1793 0.929 . S
C1782 C1778 1.531 . S
C1782 H1794 0.960 . S
C1782 H1795 0.962 . S
C1782 H1796 0.960 . S
C1783 C1780 1.511 . S
C1783 H1797 0.961 . S
C1783 H1798 0.961 . S
C1783 H1799 0.961 . S
C1784 C1785 1.370 . S
C1784 C1786 1.363 . S
C1784 H1800 0.931 . S
C1785 C1784 1.370 . S
C1785 C1789 1.408 . S
C1786 C1784 1.363 . S
C1786 C1787 1.370 . S
C1786 C1790 1.524 . S
C1787 C1779 1.503 . S
C1787 C1786 1.370 . S
C1787 C1788 1.403 . S
C1788 C1787 1.403 . S
C1788 C1789 1.404 . S
C1788 C1791 1.539 . S
C1789 C1785 1.408 . S
C1789 C1788 1.404 . S
C1789 H1801 0.930 . S
C1790 C1786 1.524 . S
C1790 H1802 0.956 . S
C1790 H1803 0.961 . S
C1790 H1804 0.961 . S
C1791 C1788 1.539 . S
C1791 H1805 0.958 . S
C1791 H1806 0.961 . S
C1791 H1807 0.960 . S
H1792 C1776 0.931 . S
H1793 C1781 0.929 . S
H1794 C1782 0.960 . S
H1795 C1782 0.962 . S
H1796 C1782 0.960 . S
H1797 C1783 0.961 . S
H1798 C1783 0.961 . S
H1799 C1783 0.961 . S
H1800 C1784 0.931 . S
H1801 C1789 0.930 . S
H1802 C1790 0.956 . S
H1803 C1790 0.961 . S
H1804 C1790 0.961 . S
H1805 C1791 0.958 . S
H1806 C1791 0.961 . S
H1807 C1791 0.960 . S
C1808 C1809 1.391 . S
C1808 C1810 1.394 . S
C1808 H1824 0.931 . S
C1809 C1808 1.391 . S
C1809 C1813 1.376 1_455 S
C1810 C1808 1.394 . S
C1810 C1811 1.369 . S
C1810 C1814 1.531 . S
C1811 C1810 1.369 . S
C1811 C1812 1.411 . S
C1811 C1819 1.503 . S
C1812 C1811 1.411 . S
C1812 C1813 1.392 1_455 S
C1812 C1815 1.510 1_455 S
C1813 C1809 1.376 1_655 S
C1813 C1812 1.392 1_655 S
C1813 H1825 0.929 . S
C1814 C1810 1.531 . S
C1814 H1826 0.960 . S
C1814 H1827 0.962 . S
C1814 H1828 0.960 . S
C1815 C1812 1.510 1_655 S
C1815 H1829 0.961 . S
C1815 H1830 0.961 . S
C1815 H1831 0.961 . S
C1816 C1817 1.370 . S
C1816 C1818 1.363 . S
C1816 H1832 0.931 . S
C1817 C1816 1.370 . S
C1817 C1821 1.408 . S
C1818 C1816 1.363 . S
C1818 C1819 1.370 . S
C1818 C1822 1.524 . S
C1819 C1811 1.503 . S
C1819 C1818 1.370 . S
C1819 C1820 1.403 . S
C1820 C1819 1.403 . S
C1820 C1821 1.404 . S
C1820 C1823 1.539 . S
C1821 C1817 1.408 . S
C1821 C1820 1.404 . S
C1821 H1833 0.930 . S
C1822 C1818 1.524 . S
C1822 H1834 0.956 . S
C1822 H1835 0.961 . S
C1822 H1836 0.961 . S
C1823 C1820 1.539 . S
C1823 H1837 0.958 . S
C1823 H1838 0.961 . S
C1823 H1839 0.960 . S
H1824 C1808 0.931 . S
H1825 C1813 0.929 . S
H1826 C1814 0.960 . S
H1827 C1814 0.962 . S
H1828 C1814 0.960 . S
H1829 C1815 0.961 . S
H1830 C1815 0.961 . S
H1831 C1815 0.961 . S
H1832 C1816 0.931 . S
H1833 C1821 0.930 . S
H1834 C1822 0.956 . S
H1835 C1822 0.961 . S
H1836 C1822 0.961 . S
H1837 C1823 0.958 . S
H1838 C1823 0.961 . S
H1839 C1823 0.960 . S
C1840 C1841 1.391 . S
C1840 C1842 1.394 . S
C1840 H1856 0.931 . S
C1841 C1840 1.391 . S
C1841 C1845 1.376 . S
C1842 C1840 1.394 . S
C1842 C1843 1.369 . S
C1842 C1846 1.531 . S
C1843 C1842 1.369 . S
C1843 C1844 1.410 . S
C1843 C1851 1.503 . S
C1844 C1843 1.410 . S
C1844 C1845 1.392 . S
C1844 C1847 1.511 . S
C1845 C1841 1.376 . S
C1845 C1844 1.392 . S
C1845 H1857 0.929 . S
C1846 C1842 1.531 . S
C1846 H1858 0.960 . S
C1846 H1859 0.962 . S
C1846 H1860 0.960 . S
C1847 C1844 1.511 . S
C1847 H1861 0.961 . S
C1847 H1862 0.961 . S
C1847 H1863 0.961 . S
C1848 C1849 1.370 . S
C1848 C1850 1.363 . S
C1848 H1864 0.931 . S
C1849 C1848 1.370 . S
C1849 C1853 1.408 . S
C1850 C1848 1.363 . S
C1850 C1851 1.370 . S
C1850 C1854 1.524 . S
C1851 C1843 1.503 . S
C1851 C1850 1.370 . S
C1851 C1852 1.403 . S
C1852 C1851 1.403 . S
C1852 C1853 1.404 . S
C1852 C1855 1.539 . S
C1853 C1849 1.408 . S
C1853 C1852 1.404 . S
C1853 H1865 0.930 . S
C1854 C1850 1.524 . S
C1854 H1866 0.956 . S
C1854 H1867 0.961 . S
C1854 H1868 0.961 . S
C1855 C1852 1.539 . S
C1855 H1869 0.958 . S
C1855 H1870 0.961 . S
C1855 H1871 0.960 . S
H1856 C1840 0.931 . S
H1857 C1845 0.929 . S
H1858 C1846 0.960 . S
H1859 C1846 0.962 . S
H1860 C1846 0.960 . S
H1861 C1847 0.961 . S
H1862 C1847 0.961 . S
H1863 C1847 0.961 . S
H1864 C1848 0.931 . S
H1865 C1853 0.930 . S
H1866 C1854 0.956 . S
H1867 C1854 0.961 . S
H1868 C1854 0.961 . S
H1869 C1855 0.958 . S
H1870 C1855 0.961 . S
H1871 C1855 0.960 . S
C1872 C1873 1.391 . S
C1872 C1874 1.394 . S
C1872 H1888 0.931 . S
C1873 C1872 1.391 . S
C1873 C1877 1.376 . S
C1874 C1872 1.394 . S
C1874 C1875 1.369 . S
C1874 C1878 1.531 . S
C1875 C1874 1.369 . S
C1875 C1876 1.410 . S
C1875 C1883 1.503 . S
C1876 C1875 1.410 . S
C1876 C1877 1.392 . S
C1876 C1879 1.511 . S
C1877 C1873 1.376 . S
C1877 C1876 1.392 . S
C1877 H1889 0.929 . S
C1878 C1874 1.531 . S
C1878 H1890 0.960 . S
C1878 H1891 0.962 . S
C1878 H1892 0.960 . S
C1879 C1876 1.511 . S
C1879 H1893 0.961 . S
C1879 H1894 0.961 . S
C1879 H1895 0.961 . S
C1880 C1881 1.370 . S
C1880 C1882 1.363 . S
C1880 H1896 0.931 . S
C1881 C1880 1.370 . S
C1881 C1885 1.408 . S
C1882 C1880 1.363 . S
C1882 C1883 1.370 . S
C1882 C1886 1.524 . S
C1883 C1875 1.503 . S
C1883 C1882 1.370 . S
C1883 C1884 1.403 . S
C1884 C1883 1.403 . S
C1884 C1885 1.404 . S
C1884 C1887 1.539 . S
C1885 C1881 1.408 . S
C1885 C1884 1.404 . S
C1885 H1897 0.930 . S
C1886 C1882 1.524 . S
C1886 H1898 0.956 . S
C1886 H1899 0.961 . S
C1886 H1900 0.961 . S
C1887 C1884 1.539 . S
C1887 H1901 0.958 . S
C1887 H1902 0.961 . S
C1887 H1903 0.960 . S
H1888 C1872 0.931 . S
H1889 C1877 0.929 . S
H1890 C1878 0.960 . S
H1891 C1878 0.962 . S
H1892 C1878 0.960 . S
H1893 C1879 0.961 . S
H1894 C1879 0.961 . S
H1895 C1879 0.961 . S
H1896 C1880 0.931 . S
H1897 C1885 0.930 . S
H1898 C1886 0.956 . S
H1899 C1886 0.961 . S
H1900 C1886 0.961 . S
H1901 C1887 0.958 . S
H1902 C1887 0.961 . S
H1903 C1887 0.960 . S
C1904 C1905 1.391 . S
C1904 C1906 1.394 . S
C1904 H1920 0.931 . S
C1905 C1904 1.391 . S
C1905 C1909 1.376 . S
C1906 C1904 1.394 . S
C1906 C1907 1.369 . S
C1906 C1910 1.531 . S
C1907 C1906 1.369 . S
C1907 C1908 1.410 . S
C1907 C1915 1.503 . S
C1908 C1907 1.410 . S
C1908 C1909 1.392 . S
C1908 C1911 1.511 . S
C1909 C1905 1.376 . S
C1909 C1908 1.392 . S
C1909 H1921 0.929 . S
C1910 C1906 1.531 . S
C1910 H1922 0.960 . S
C1910 H1923 0.962 . S
C1910 H1924 0.960 . S
C1911 C1908 1.511 . S
C1911 H1925 0.961 . S
C1911 H1926 0.961 . S
C1911 H1927 0.961 . S
C1912 C1913 1.370 . S
C1912 C1914 1.363 . S
C1912 H1928 0.931 . S
C1913 C1912 1.370 . S
C1913 C1917 1.408 . S
C1914 C1912 1.363 . S
C1914 C1915 1.370 . S
C1914 C1918 1.524 . S
C1915 C1907 1.503 . S
C1915 C1914 1.370 . S
C1915 C1916 1.403 . S
C1916 C1915 1.403 . S
C1916 C1917 1.404 . S
C1916 C1919 1.539 . S
C1917 C1913 1.408 . S
C1917 C1916 1.404 . S
C1917 H1929 0.930 . S
C1918 C1914 1.524 . S
C1918 H1930 0.956 . S
C1918 H1931 0.961 . S
C1918 H1932 0.961 . S
C1919 C1916 1.539 . S
C1919 H1933 0.958 . S
C1919 H1934 0.961 . S
C1919 H1935 0.960 . S
H1920 C1904 0.931 . S
H1921 C1909 0.929 . S
H1922 C1910 0.960 . S
H1923 C1910 0.962 . S
H1924 C1910 0.960 . S
H1925 C1911 0.961 . S
H1926 C1911 0.961 . S
H1927 C1911 0.961 . S
H1928 C1912 0.931 . S
H1929 C1917 0.930 . S
H1930 C1918 0.956 . S
H1931 C1918 0.961 . S
H1932 C1918 0.961 . S
H1933 C1919 0.958 . S
H1934 C1919 0.961 . S
H1935 C1919 0.960 . S
C1936 C1937 1.391 . S
C1936 C1938 1.394 . S
C1936 H1952 0.931 . S
C1937 C1936 1.391 . S
C1937 C1941 1.376 . S
C1938 C1936 1.394 . S
C1938 C1939 1.347 1_655 S
C1938 C1942 1.531 . S
C1939 C1938 1.347 1_455 S
C1939 C1940 1.416 . S
C1939 C1947 1.518 . S
C1940 C1939 1.416 . S
C1940 C1941 1.392 1_455 S
C1940 C1943 1.511 . S
C1941 C1937 1.376 . S
C1941 C1940 1.392 1_655 S
C1941 H1953 0.929 . S
C1942 C1938 1.531 . S
C1942 H1954 0.960 1_655 S
C1942 H1955 0.962 . S
C1942 H1956 0.960 . S
C1943 C1940 1.511 . S
C1943 H1957 0.961 . S
C1943 H1958 0.961 . S
C1943 H1959 0.961 . S
C1944 C1945 1.370 . S
C1944 C1946 1.363 1_455 S
C1944 H1960 0.913 1_455 S
C1945 C1944 1.370 . S
C1945 C1949 1.408 . S
C1946 C1944 1.363 1_655 S
C1946 C1947 1.370 1_655 S
C1946 C1950 1.524 . S
C1947 C1939 1.518 . S
C1947 C1946 1.370 1_455 S
C1947 C1948 1.403 . S
C1948 C1947 1.403 . S
C1948 C1949 1.404 . S
C1948 C1951 1.539 . S
C1949 C1945 1.408 . S
C1949 C1948 1.404 . S
C1949 H1961 0.930 . S
C1950 C1946 1.524 . S
C1950 H1962 0.956 . S
C1950 H1963 0.961 . S
C1950 H1964 0.961 . S
C1951 C1948 1.539 . S
C1951 H1965 0.958 . S
C1951 H1966 0.961 . S
C1951 H1967 0.960 . S
H1952 C1936 0.931 . S
H1953 C1941 0.929 . S
H1954 C1942 0.960 1_455 S
H1955 C1942 0.962 . S
H1956 C1942 0.960 . S
H1957 C1943 0.961 . S
H1958 C1943 0.961 . S
H1959 C1943 0.961 . S
H1960 C1944 0.913 1_655 S
H1961 C1949 0.930 . S
H1962 C1950 0.956 . S
H1963 C1950 0.961 . S
H1964 C1950 0.961 . S
H1965 C1951 0.958 . S
H1966 C1951 0.961 . S
H1967 C1951 0.960 . S
C1968 C1969 1.391 . S
C1968 C1970 1.394 . S
C1968 H1984 0.931 . S
C1969 C1968 1.391 . S
C1969 C1973 1.376 . S
C1970 C1968 1.394 . S
C1970 C1971 1.369 . S
C1970 C1974 1.531 . S
C1971 C1970 1.369 . S
C1971 C1972 1.410 . S
C1971 C1979 1.503 . S
C1972 C1971 1.410 . S
C1972 C1973 1.392 . S
C1972 C1975 1.511 . S
C1973 C1969 1.376 . S
C1973 C1972 1.392 . S
C1973 H1985 0.929 . S
C1974 C1970 1.531 . S
C1974 H1986 0.960 . S
C1974 H1987 0.962 . S
C1974 H1988 0.960 . S
C1975 C1972 1.511 . S
C1975 H1989 0.961 . S
C1975 H1990 0.961 . S
C1975 H1991 0.961 . S
C1976 C1977 1.370 . S
C1976 C1978 1.363 . S
C1976 H1992 0.931 . S
C1977 C1976 1.370 . S
C1977 C1981 1.408 . S
C1978 C1976 1.363 . S
C1978 C1979 1.370 . S
C1978 C1982 1.524 . S
C1979 C1971 1.503 . S
C1979 C1978 1.370 . S
C1979 C1980 1.403 . S
C1980 C1979 1.403 . S
C1980 C1981 1.404 . S
C1980 C1983 1.539 . S
C1981 C1977 1.408 . S
C1981 C1980 1.404 . S
C1981 H1993 0.930 . S
C1982 C1978 1.524 . S
C1982 H1994 0.956 . S
C1982 H1995 0.961 . S
C1982 H1996 0.961 . S
C1983 C1980 1.539 . S
C1983 H1997 0.958 . S
C1983 H1998 0.961 . S
C1983 H1999 0.960 . S
H1984 C1968 0.931 . S
H1985 C1973 0.929 . S
H1986 C1974 0.960 . S
H1987 C1974 0.962 . S
H1988 C1974 0.960 . S
H1989 C1975 0.961 . S
H1990 C1975 0.961 . S
H1991 C1975 0.961 . S
H1992 C1976 0.931 . S
H1993 C1981 0.930 . S
H1994 C1982 0.956 . S
H1995 C1982 0.961 . S
H1996 C1982 0.961 . S
H1997 C1983 0.958 . S
H1998 C1983 0.961 . S
H1999 C1983 0.960 . S
C2000 C2001 1.391 . S
C2000 C2002 1.394 . S
C2000 H2016 0.931 . S
C2001 C2000 1.391 . S
C2001 C2005 1.376 . S
C2002 C2000 1.394 . S
C2002 C2003 1.369 . S
C2002 C2006 1.531 . S
C2003 C2002 1.369 . S
C2003 C2004 1.410 . S
C2003 C2011 1.503 . S
C2004 C2003 1.410 . S
C2004 C2005 1.392 . S
C2004 C2007 1.511 . S
C2005 C2001 1.376 . S
C2005 C2004 1.392 . S
C2005 H2017 0.929 . S
C2006 C2002 1.531 . S
C2006 H2018 0.960 . S
C2006 H2019 0.962 . S
C2006 H2020 0.960 . S
C2007 C2004 1.511 . S
C2007 H2021 0.961 . S
C2007 H2022 0.961 . S
C2007 H2023 0.961 . S
C2008 C2009 1.370 . S
C2008 C2010 1.363 . S
C2008 H2024 0.931 1_545 S
C2009 C2008 1.370 . S
C2009 C2013 1.408 . S
C2010 C2008 1.363 . S
C2010 C2011 1.370 . S
C2010 C2014 1.524 1_545 S
C2011 C2003 1.503 . S
C2011 C2010 1.370 . S
C2011 C2012 1.403 . S
C2012 C2011 1.403 . S
C2012 C2013 1.404 . S
C2012 C2015 1.539 . S
C2013 C2009 1.408 . S
C2013 C2012 1.404 . S
C2013 H2025 0.930 . S
C2014 C2010 1.524 1_565 S
C2014 H2026 0.957 . S
C2014 H2027 0.961 . S
C2014 H2028 0.961 . S
C2015 C2012 1.539 . S
C2015 H2029 0.958 . S
C2015 H2030 0.961 . S
C2015 H2031 0.960 . S
H2016 C2000 0.931 . S
H2017 C2005 0.929 . S
H2018 C2006 0.960 . S
H2019 C2006 0.962 . S
H2020 C2006 0.960 . S
H2021 C2007 0.961 . S
H2022 C2007 0.961 . S
H2023 C2007 0.961 . S
H2024 C2008 0.931 1_565 S
H2025 C2013 0.930 . S
H2026 C2014 0.957 . S
H2027 C2014 0.961 . S
H2028 C2014 0.961 . S
H2029 C2015 0.958 . S
H2030 C2015 0.961 . S
H2031 C2015 0.960 . S
C2032 C2033 1.391 . S
C2032 C2034 1.394 . S
C2032 H2048 0.931 . S
C2033 C2032 1.391 . S
C2033 C2037 1.376 . S
C2034 C2032 1.394 . S
C2034 C2035 1.369 . S
C2034 C2038 1.531 . S
C2035 C2034 1.369 . S
C2035 C2036 1.410 . S
C2035 C2043 1.503 . S
C2036 C2035 1.410 . S
C2036 C2037 1.392 . S
C2036 C2039 1.511 . S
C2037 C2033 1.376 . S
C2037 C2036 1.392 . S
C2037 H2049 0.929 . S
C2038 C2034 1.531 . S
C2038 H2050 0.960 . S
C2038 H2051 0.962 . S
C2038 H2052 0.960 . S
C2039 C2036 1.511 . S
C2039 H2053 0.961 . S
C2039 H2054 0.961 . S
C2039 H2055 0.961 . S
C2040 C2041 1.370 . S
C2040 C2042 1.363 . S
C2040 H2056 0.931 . S
C2041 C2040 1.370 . S
C2041 C2045 1.408 . S
C2042 C2040 1.363 . S
C2042 C2043 1.370 . S
C2042 C2046 1.524 . S
C2043 C2035 1.503 . S
C2043 C2042 1.370 . S
C2043 C2044 1.403 . S
C2044 C2043 1.403 . S
C2044 C2045 1.404 . S
C2044 C2047 1.539 . S
C2045 C2041 1.408 . S
C2045 C2044 1.404 . S
C2045 H2057 0.930 . S
C2046 C2042 1.524 . S
C2046 H2058 0.956 . S
C2046 H2059 0.961 . S
C2046 H2060 0.961 . S
C2047 C2044 1.539 . S
C2047 H2061 0.958 . S
C2047 H2062 0.961 . S
C2047 H2063 0.960 . S
H2048 C2032 0.931 . S
H2049 C2037 0.929 . S
H2050 C2038 0.960 . S
H2051 C2038 0.962 . S
H2052 C2038 0.960 . S
H2053 C2039 0.961 . S
H2054 C2039 0.961 . S
H2055 C2039 0.961 . S
H2056 C2040 0.931 . S
H2057 C2045 0.930 . S
H2058 C2046 0.956 . S
H2059 C2046 0.961 . S
H2060 C2046 0.961 . S
H2061 C2047 0.958 . S
H2062 C2047 0.961 . S
H2063 C2047 0.960 . S
C2064 C2065 1.391 . S
C2064 C2066 1.394 . S
C2064 H2080 0.931 . S
C2065 C2064 1.391 . S
C2065 C2069 1.376 . S
C2066 C2064 1.394 . S
C2066 C2067 1.369 . S
C2066 C2070 1.531 . S
C2067 C2066 1.369 . S
C2067 C2068 1.410 1_655 S
C2067 C2075 1.503 1_655 S
C2068 C2067 1.410 1_455 S
C2068 C2069 1.392 1_455 S
C2068 C2071 1.511 . S
C2069 C2065 1.376 . S
C2069 C2068 1.392 1_655 S
C2069 H2081 0.929 1_655 S
C2070 C2066 1.531 . S
C2070 H2082 0.960 . S
C2070 H2083 0.962 . S
C2070 H2084 0.960 . S
C2071 C2068 1.511 . S
C2071 H2085 0.961 . S
C2071 H2086 0.961 . S
C2071 H2087 0.961 . S
C2072 C2073 1.370 . S
C2072 C2074 1.363 . S
C2072 H2088 0.931 . S
C2073 C2072 1.370 . S
C2073 C2077 1.408 . S
C2074 C2072 1.363 . S
C2074 C2075 1.370 . S
C2074 C2078 1.524 . S
C2075 C2067 1.503 1_455 S
C2075 C2074 1.370 . S
C2075 C2076 1.403 . S
C2076 C2075 1.403 . S
C2076 C2077 1.404 . S
C2076 C2079 1.539 1_455 S
C2077 C2073 1.408 . S
C2077 C2076 1.404 . S
C2077 H2089 0.930 . S
C2078 C2074 1.524 . S
C2078 H2090 0.956 . S
C2078 H2091 0.961 . S
C2078 H2092 0.961 . S
C2079 C2076 1.539 1_655 S
C2079 H2093 0.958 . S
C2079 H2094 0.961 1_545 S
C2079 H2095 0.960 . S
H2080 C2064 0.931 . S
H2081 C2069 0.929 1_455 S
H2082 C2070 0.960 . S
H2083 C2070 0.962 . S
H2084 C2070 0.960 . S
H2085 C2071 0.961 . S
H2086 C2071 0.961 . S
H2087 C2071 0.961 . S
H2088 C2072 0.931 . S
H2089 C2077 0.930 . S
H2090 C2078 0.956 . S
H2091 C2078 0.961 . S
H2092 C2078 0.961 . S
H2093 C2079 0.958 . S
H2094 C2079 0.961 1_565 S
H2095 C2079 0.960 . S
C2096 C2097 1.391 . S
C2096 C2098 1.394 . S
C2096 H2112 0.931 . S
C2097 C2096 1.391 . S
C2097 C2101 1.376 . S
C2098 C2096 1.394 . S
C2098 C2099 1.369 . S
C2098 C2102 1.531 . S
C2099 C2098 1.369 . S
C2099 C2100 1.410 . S
C2099 C2107 1.503 . S
C2100 C2099 1.410 . S
C2100 C2101 1.392 . S
C2100 C2103 1.511 . S
C2101 C2097 1.376 . S
C2101 C2100 1.392 . S
C2101 H2113 0.929 . S
C2102 C2098 1.531 . S
C2102 H2114 0.960 . S
C2102 H2115 0.962 . S
C2102 H2116 0.960 . S
C2103 C2100 1.511 . S
C2103 H2117 0.961 . S
C2103 H2118 0.961 . S
C2103 H2119 0.961 . S
C2104 C2105 1.370 . S
C2104 C2106 1.363 . S
C2104 H2120 0.931 . S
C2105 C2104 1.370 . S
C2105 C2109 1.408 . S
C2106 C2104 1.363 . S
C2106 C2107 1.370 . S
C2106 C2110 1.524 . S
C2107 C2099 1.503 . S
C2107 C2106 1.370 . S
C2107 C2108 1.403 . S
C2108 C2107 1.403 . S
C2108 C2109 1.404 . S
C2108 C2111 1.539 . S
C2109 C2105 1.408 . S
C2109 C2108 1.404 . S
C2109 H2121 0.930 . S
C2110 C2106 1.524 . S
C2110 H2122 0.956 . S
C2110 H2123 0.961 . S
C2110 H2124 0.961 . S
C2111 C2108 1.539 . S
C2111 H2125 0.958 . S
C2111 H2126 0.961 . S
C2111 H2127 0.960 . S
H2112 C2096 0.931 . S
H2113 C2101 0.929 . S
H2114 C2102 0.960 . S
H2115 C2102 0.962 . S
H2116 C2102 0.960 . S
H2117 C2103 0.961 . S
H2118 C2103 0.961 . S
H2119 C2103 0.961 . S
H2120 C2104 0.931 . S
H2121 C2109 0.930 . S
H2122 C2110 0.956 . S
H2123 C2110 0.961 . S
H2124 C2110 0.961 . S
H2125 C2111 0.958 . S
H2126 C2111 0.961 . S
H2127 C2111 0.960 . S
C2128 C2129 1.391 . S
C2128 C2130 1.394 . S
C2128 H2144 0.931 . S
C2129 C2128 1.391 . S
C2129 C2133 1.376 . S
C2130 C2128 1.394 . S
C2130 C2131 1.369 . S
C2130 C2134 1.531 . S
C2131 C2130 1.369 . S
C2131 C2132 1.410 . S
C2131 C2139 1.503 . S
C2132 C2131 1.410 . S
C2132 C2133 1.392 . S
C2132 C2135 1.511 . S
C2133 C2129 1.376 . S
C2133 C2132 1.392 . S
C2133 H2145 0.929 . S
C2134 C2130 1.531 . S
C2134 H2146 0.960 . S
C2134 H2147 0.962 . S
C2134 H2148 0.960 . S
C2135 C2132 1.511 . S
C2135 H2149 0.961 . S
C2135 H2150 0.961 . S
C2135 H2151 0.961 . S
C2136 C2137 1.370 . S
C2136 C2138 1.363 . S
C2136 H2152 0.931 . S
C2137 C2136 1.370 . S
C2137 C2141 1.408 . S
C2138 C2136 1.363 . S
C2138 C2139 1.370 . S
C2138 C2142 1.524 . S
C2139 C2131 1.503 . S
C2139 C2138 1.370 . S
C2139 C2140 1.403 . S
C2140 C2139 1.403 . S
C2140 C2141 1.404 . S
C2140 C2143 1.539 . S
C2141 C2137 1.408 . S
C2141 C2140 1.404 . S
C2141 H2153 0.930 . S
C2142 C2138 1.524 . S
C2142 H2154 0.956 . S
C2142 H2155 0.961 . S
C2142 H2156 0.961 . S
C2143 C2140 1.539 . S
C2143 H2157 0.958 1_545 S
C2143 H2158 0.961 1_545 S
C2143 H2159 0.960 . S
H2144 C2128 0.931 . S
H2145 C2133 0.929 . S
H2146 C2134 0.960 . S
H2147 C2134 0.962 . S
H2148 C2134 0.960 . S
H2149 C2135 0.961 . S
H2150 C2135 0.961 . S
H2151 C2135 0.961 . S
H2152 C2136 0.931 . S
H2153 C2141 0.930 . S
H2154 C2142 0.956 . S
H2155 C2142 0.961 . S
H2156 C2142 0.961 . S
H2157 C2143 0.958 1_565 S
H2158 C2143 0.961 1_565 S
H2159 C2143 0.960 . S
C2160 C2161 1.391 . S
C2160 C2162 1.394 . S
C2160 H2176 0.931 . S
C2161 C2160 1.391 . S
C2161 C2165 1.376 . S
C2162 C2160 1.394 . S
C2162 C2163 1.369 . S
C2162 C2166 1.531 . S
C2163 C2162 1.369 . S
C2163 C2164 1.410 . S
C2163 C2171 1.503 . S
C2164 C2163 1.410 . S
C2164 C2165 1.392 . S
C2164 C2167 1.511 . S
C2165 C2161 1.376 . S
C2165 C2164 1.392 . S
C2165 H2177 0.929 . S
C2166 C2162 1.531 . S
C2166 H2178 0.960 . S
C2166 H2179 0.962 . S
C2166 H2180 0.960 . S
C2167 C2164 1.511 . S
C2167 H2181 0.961 . S
C2167 H2182 0.961 . S
C2167 H2183 0.961 . S
C2168 C2169 1.370 . S
C2168 C2170 1.363 . S
C2168 H2184 0.931 . S
C2169 C2168 1.370 . S
C2169 C2173 1.408 . S
C2170 C2168 1.363 . S
C2170 C2171 1.370 . S
C2170 C2174 1.524 . S
C2171 C2163 1.503 . S
C2171 C2170 1.370 . S
C2171 C2172 1.403 . S
C2172 C2171 1.403 . S
C2172 C2173 1.404 . S
C2172 C2175 1.539 . S
C2173 C2169 1.408 . S
C2173 C2172 1.404 . S
C2173 H2185 0.930 . S
C2174 C2170 1.524 . S
C2174 H2186 0.956 . S
C2174 H2187 0.961 . S
C2174 H2188 0.961 . S
C2175 C2172 1.539 . S
C2175 H2189 0.958 . S
C2175 H2190 0.961 . S
C2175 H2191 0.960 . S
H2176 C2160 0.931 . S
H2177 C2165 0.929 . S
H2178 C2166 0.960 . S
H2179 C2166 0.962 . S
H2180 C2166 0.960 . S
H2181 C2167 0.961 . S
H2182 C2167 0.961 . S
H2183 C2167 0.961 . S
H2184 C2168 0.931 . S
H2185 C2173 0.930 . S
H2186 C2174 0.956 . S
H2187 C2174 0.961 . S
H2188 C2174 0.961 . S
H2189 C2175 0.958 . S
H2190 C2175 0.961 . S
H2191 C2175 0.960 . S
C2192 C2193 1.391 1_556 S
C2192 C2194 1.394 . S
C2192 H2208 0.931 . S
C2193 C2192 1.391 1_554 S
C2193 C2197 1.376 . S
C2194 C2192 1.394 . S
C2194 C2195 1.369 1_556 S
C2194 C2198 1.531 . S
C2195 C2194 1.369 1_554 S
C2195 C2196 1.410 . S
C2195 C2203 1.503 . S
C2196 C2195 1.410 . S
C2196 C2197 1.392 . S
C2196 C2199 1.511 . S
C2197 C2193 1.376 . S
C2197 C2196 1.392 . S
C2197 H2209 0.929 . S
C2198 C2194 1.531 . S
C2198 H2210 0.960 . S
C2198 H2211 0.962 . S
C2198 H2212 0.960 . S
C2199 C2196 1.511 . S
C2199 H2213 0.961 . S
C2199 H2214 0.961 . S
C2199 H2215 0.961 . S
C2200 C2201 1.370 . S
C2200 C2202 1.363 . S
C2200 H2216 0.931 . S
C2201 C2200 1.370 . S
C2201 C2205 1.408 1_545 S
C2202 C2200 1.363 . S
C2202 C2203 1.370 1_545 S
C2202 C2206 1.524 . S
C2203 C2195 1.503 . S
C2203 C2202 1.370 1_565 S
C2203 C2204 1.403 . S
C2204 C2203 1.403 . S
C2204 C2205 1.404 . S
C2204 C2207 1.539 . S
C2205 C2201 1.408 1_565 S
C2205 C2204 1.404 . S
C2205 H2217 0.930 . S
C2206 C2202 1.524 . S
C2206 H2218 0.956 . S
C2206 H2219 0.961 . S
C2206 H2220 0.961 . S
C2207 C2204 1.539 . S
C2207 H2221 0.958 . S
C2207 H2222 0.961 . S
C2207 H2223 0.960 . S
H2208 C2192 0.931 . S
H2209 C2197 0.929 . S
H2210 C2198 0.960 . S
H2211 C2198 0.962 . S
H2212 C2198 0.960 . S
H2213 C2199 0.961 . S
H2214 C2199 0.961 . S
H2215 C2199 0.961 . S
H2216 C2200 0.931 . S
H2217 C2205 0.930 . S
H2218 C2206 0.956 . S
H2219 C2206 0.961 . S
H2220 C2206 0.961 . S
H2221 C2207 0.958 . S
H2222 C2207 0.961 . S
H2223 C2207 0.960 . S
C2224 C2225 1.391 1_554 S
C2224 C2226 1.394 . S
C2224 H2240 0.931 . S
C2225 C2224 1.391 1_556 S
C2225 C2229 1.376 . S
C2226 C2224 1.394 . S
C2226 C2227 1.390 . S
C2226 C2230 1.531 . S
C2227 C2226 1.390 . S
C2227 C2228 1.380 1_554 S
C2227 C2235 1.506 . S
C2228 C2227 1.380 1_556 S
C2228 C2229 1.392 . S
C2228 C2231 1.511 . S
C2229 C2225 1.376 . S
C2229 C2228 1.392 . S
C2229 H2241 0.929 . S
C2230 C2226 1.531 . S
C2230 H2242 0.960 . S
C2230 H2243 0.962 . S
C2230 H2244 0.960 . S
C2231 C2228 1.511 . S
C2231 H2245 0.961 . S
C2231 H2246 0.961 . S
C2231 H2247 0.961 . S
C2232 C2233 1.376 . S
C2232 C2234 1.363 . S
C2232 H2248 0.931 . S
C2233 C2232 1.376 . S
C2233 C2237 1.404 1_556 S
C2234 C2232 1.363 . S
C2234 C2235 1.360 1_556 S
C2234 C2238 1.524 . S
C2235 C2227 1.506 . S
C2235 C2234 1.360 1_554 S
C2235 C2236 1.417 . S
C2236 C2235 1.417 . S
C2236 C2237 1.404 . S
C2236 C2239 1.539 . S
C2237 C2233 1.404 1_554 S
C2237 C2236 1.404 . S
C2237 H2249 0.930 . S
C2238 C2234 1.524 . S
C2238 H2250 0.956 . S
C2238 H2251 0.961 . S
C2238 H2252 0.961 . S
C2239 C2236 1.539 . S
C2239 H2253 0.958 . S
C2239 H2254 0.961 . S
C2239 H2255 0.960 . S
H2240 C2224 0.931 . S
H2241 C2229 0.929 . S
H2242 C2230 0.960 . S
H2243 C2230 0.962 . S
H2244 C2230 0.960 . S
H2245 C2231 0.961 . S
H2246 C2231 0.961 . S
H2247 C2231 0.961 . S
H2248 C2232 0.931 . S
H2249 C2237 0.930 . S
H2250 C2238 0.956 . S
H2251 C2238 0.961 . S
H2252 C2238 0.961 . S
H2253 C2239 0.958 . S
H2254 C2239 0.961 . S
H2255 C2239 0.960 . S
C2256 C2257 1.391 . S
C2256 C2258 1.394 . S
C2256 H2272 0.931 . S
C2257 C2256 1.391 . S
C2257 C2261 1.376 . S
C2258 C2256 1.394 . S
C2258 C2259 1.369 . S
C2258 C2262 1.531 . S
C2259 C2258 1.369 . S
C2259 C2260 1.410 . S
C2259 C2267 1.503 . S
C2260 C2259 1.410 . S
C2260 C2261 1.392 . S
C2260 C2263 1.511 . S
C2261 C2257 1.376 . S
C2261 C2260 1.392 . S
C2261 H2273 0.929 . S
C2262 C2258 1.531 . S
C2262 H2274 0.960 . S
C2262 H2275 0.962 . S
C2262 H2276 0.960 . S
C2263 C2260 1.511 . S
C2263 H2277 0.961 . S
C2263 H2278 0.961 . S
C2263 H2279 0.961 . S
C2264 C2265 1.370 . S
C2264 C2266 1.363 . S
C2264 H2280 0.931 . S
C2265 C2264 1.370 . S
C2265 C2269 1.408 . S
C2266 C2264 1.363 . S
C2266 C2267 1.370 . S
C2266 C2270 1.524 . S
C2267 C2259 1.503 . S
C2267 C2266 1.370 . S
C2267 C2268 1.403 . S
C2268 C2267 1.403 . S
C2268 C2269 1.404 . S
C2268 C2271 1.539 . S
C2269 C2265 1.408 . S
C2269 C2268 1.404 . S
C2269 H2281 0.930 . S
C2270 C2266 1.524 . S
C2270 H2282 0.956 . S
C2270 H2283 0.961 . S
C2270 H2284 0.961 . S
C2271 C2268 1.539 . S
C2271 H2285 0.958 . S
C2271 H2286 0.961 . S
C2271 H2287 0.960 . S
H2272 C2256 0.931 . S
H2273 C2261 0.929 . S
H2274 C2262 0.960 . S
H2275 C2262 0.962 . S
H2276 C2262 0.960 . S
H2277 C2263 0.961 . S
H2278 C2263 0.961 . S
H2279 C2263 0.961 . S
H2280 C2264 0.931 . S
H2281 C2269 0.930 . S
H2282 C2270 0.956 . S
H2283 C2270 0.961 . S
H2284 C2270 0.961 . S
H2285 C2271 0.958 . S
H2286 C2271 0.961 . S
H2287 C2271 0.960 . S
C2288 C2289 1.391 . S
C2288 C2290 1.394 . S
C2288 H2304 0.931 . S
C2289 C2288 1.391 . S
C2289 C2293 1.376 . S
C2290 C2288 1.394 . S
C2290 C2291 1.369 . S
C2290 C2294 1.531 . S
C2291 C2290 1.369 . S
C2291 C2292 1.410 . S
C2291 C2299 1.503 . S
C2292 C2291 1.410 . S
C2292 C2293 1.392 . S
C2292 C2295 1.511 . S
C2293 C2289 1.376 . S
C2293 C2292 1.392 . S
C2293 H2305 0.929 . S
C2294 C2290 1.531 . S
C2294 H2306 0.960 . S
C2294 H2307 0.962 . S
C2294 H2308 0.960 . S
C2295 C2292 1.511 . S
C2295 H2309 0.961 . S
C2295 H2310 0.961 . S
C2295 H2311 0.961 . S
C2296 C2297 1.370 1_655 S
C2296 C2298 1.363 . S
C2296 H2312 0.931 . S
C2297 C2296 1.370 1_455 S
C2297 C2301 1.408 . S
C2298 C2296 1.363 . S
C2298 C2299 1.370 . S
C2298 C2302 1.524 . S
C2299 C2291 1.503 . S
C2299 C2298 1.370 . S
C2299 C2300 1.403 . S
C2300 C2299 1.403 . S
C2300 C2301 1.404 1_655 S
C2300 C2303 1.539 . S
C2301 C2297 1.408 . S
C2301 C2300 1.404 1_455 S
C2301 H2313 0.930 . S
C2302 C2298 1.524 . S
C2302 H2314 0.956 . S
C2302 H2315 0.961 . S
C2302 H2316 0.961 . S
C2303 C2300 1.539 . S
C2303 H2317 0.958 . S
C2303 H2318 0.961 . S
C2303 H2319 0.960 . S
H2304 C2288 0.931 . S
H2305 C2293 0.929 . S
H2306 C2294 0.960 . S
H2307 C2294 0.962 . S
H2308 C2294 0.960 . S
H2309 C2295 0.961 . S
H2310 C2295 0.961 . S
H2311 C2295 0.961 . S
H2312 C2296 0.931 . S
H2313 C2301 0.930 . S
H2314 C2302 0.956 . S
H2315 C2302 0.961 . S
H2316 C2302 0.961 . S
H2317 C2303 0.958 . S
H2318 C2303 0.961 . S
H2319 C2303 0.960 . S
C2320 C2321 1.391 . S
C2320 C2322 1.394 . S
C2320 H2336 0.931 . S
C2321 C2320 1.391 . S
C2321 C2325 1.376 . S
C2322 C2320 1.394 . S
C2322 C2323 1.369 . S
C2322 C2326 1.531 . S
C2323 C2322 1.369 . S
C2323 C2324 1.410 . S
C2323 C2331 1.503 . S
C2324 C2323 1.410 . S
C2324 C2325 1.392 . S
C2324 C2327 1.511 . S
C2325 C2321 1.376 . S
C2325 C2324 1.392 . S
C2325 H2337 0.929 . S
C2326 C2322 1.531 . S
C2326 H2338 0.960 . S
C2326 H2339 0.962 . S
C2326 H2340 0.960 . S
C2327 C2324 1.511 . S
C2327 H2341 0.961 . S
C2327 H2342 0.961 . S
C2327 H2343 0.961 . S
C2328 C2329 1.370 . S
C2328 C2330 1.363 . S
C2328 H2344 0.931 . S
C2329 C2328 1.370 . S
C2329 C2333 1.408 . S
C2330 C2328 1.363 . S
C2330 C2331 1.370 . S
C2330 C2334 1.524 . S
C2331 C2323 1.503 . S
C2331 C2330 1.370 . S
C2331 C2332 1.403 . S
C2332 C2331 1.403 . S
C2332 C2333 1.404 . S
C2332 C2335 1.539 . S
C2333 C2329 1.408 . S
C2333 C2332 1.404 . S
C2333 H2345 0.930 . S
C2334 C2330 1.524 . S
C2334 H2346 0.956 . S
C2334 H2347 0.961 . S
C2334 H2348 0.961 . S
C2335 C2332 1.539 . S
C2335 H2349 0.958 . S
C2335 H2350 0.961 . S
C2335 H2351 0.960 . S
H2336 C2320 0.931 . S
H2337 C2325 0.929 . S
H2338 C2326 0.960 . S
H2339 C2326 0.962 . S
H2340 C2326 0.960 . S
H2341 C2327 0.961 . S
H2342 C2327 0.961 . S
H2343 C2327 0.961 . S
H2344 C2328 0.931 . S
H2345 C2333 0.930 . S
H2346 C2334 0.956 . S
H2347 C2334 0.961 . S
H2348 C2334 0.961 . S
H2349 C2335 0.958 . S
H2350 C2335 0.961 . S
H2351 C2335 0.960 . S
C2352 C2353 1.391 . S
C2352 C2354 1.394 . S
C2352 H2368 0.931 . S
C2353 C2352 1.391 . S
C2353 C2357 1.376 . S
C2354 C2352 1.394 . S
C2354 C2355 1.369 . S
C2354 C2358 1.531 . S
C2355 C2354 1.369 . S
C2355 C2356 1.410 . S
C2355 C2363 1.503 . S
C2356 C2355 1.410 . S
C2356 C2357 1.392 . S
C2356 C2359 1.511 . S
C2357 C2353 1.376 . S
C2357 C2356 1.392 . S
C2357 H2369 0.929 . S
C2358 C2354 1.531 . S
C2358 H2370 0.960 . S
C2358 H2371 0.962 . S
C2358 H2372 0.960 . S
C2359 C2356 1.511 . S
C2359 H2373 0.961 . S
C2359 H2374 0.961 . S
C2359 H2375 0.961 . S
C2360 C2361 1.370 . S
C2360 C2362 1.363 . S
C2360 H2376 0.931 . S
C2361 C2360 1.370 . S
C2361 C2365 1.408 . S
C2362 C2360 1.363 . S
C2362 C2363 1.370 . S
C2362 C2366 1.524 . S
C2363 C2355 1.503 . S
C2363 C2362 1.370 . S
C2363 C2364 1.403 . S
C2364 C2363 1.403 . S
C2364 C2365 1.404 . S
C2364 C2367 1.539 . S
C2365 C2361 1.408 . S
C2365 C2364 1.404 . S
C2365 H2377 0.930 . S
C2366 C2362 1.524 . S
C2366 H2378 0.956 . S
C2366 H2379 0.961 . S
C2366 H2380 0.961 . S
C2367 C2364 1.539 . S
C2367 H2381 0.958 . S
C2367 H2382 0.961 . S
C2367 H2383 0.960 . S
H2368 C2352 0.931 . S
H2369 C2357 0.929 . S
H2370 C2358 0.960 . S
H2371 C2358 0.962 . S
H2372 C2358 0.960 . S
H2373 C2359 0.961 . S
H2374 C2359 0.961 . S
H2375 C2359 0.961 . S
H2376 C2360 0.931 . S
H2377 C2365 0.930 . S
H2378 C2366 0.956 . S
H2379 C2366 0.961 . S
H2380 C2366 0.961 . S
H2381 C2367 0.958 . S
H2382 C2367 0.961 . S
H2383 C2367 0.960 . S
C2384 C2385 1.391 . S
C2384 C2386 1.394 . S
C2384 H2400 0.931 . S
C2385 C2384 1.391 . S
C2385 C2389 1.376 . S
C2386 C2384 1.394 . S
C2386 C2387 1.369 . S
C2386 C2390 1.531 . S
C2387 C2386 1.369 . S
C2387 C2388 1.410 . S
C2387 C2395 1.503 . S
C2388 C2387 1.410 . S
C2388 C2389 1.392 . S
C2388 C2391 1.511 . S
C2389 C2385 1.376 . S
C2389 C2388 1.392 . S
C2389 H2401 0.929 . S
C2390 C2386 1.531 . S
C2390 H2402 0.960 . S
C2390 H2403 0.962 . S
C2390 H2404 0.960 . S
C2391 C2388 1.511 . S
C2391 H2405 0.961 . S
C2391 H2406 0.961 . S
C2391 H2407 0.961 . S
C2392 C2393 1.370 . S
C2392 C2394 1.363 . S
C2392 H2408 0.931 . S
C2393 C2392 1.370 . S
C2393 C2397 1.408 . S
C2394 C2392 1.363 . S
C2394 C2395 1.370 . S
C2394 C2398 1.524 . S
C2395 C2387 1.503 . S
C2395 C2394 1.370 . S
C2395 C2396 1.403 . S
C2396 C2395 1.403 . S
C2396 C2397 1.404 . S
C2396 C2399 1.539 . S
C2397 C2393 1.408 . S
C2397 C2396 1.404 . S
C2397 H2409 0.930 . S
C2398 C2394 1.524 . S
C2398 H2410 0.956 . S
C2398 H2411 0.961 . S
C2398 H2412 0.961 . S
C2399 C2396 1.539 . S
C2399 H2413 0.958 . S
C2399 H2414 0.961 . S
C2399 H2415 0.960 . S
H2400 C2384 0.931 . S
H2401 C2389 0.929 . S
H2402 C2390 0.960 . S
H2403 C2390 0.962 . S
H2404 C2390 0.960 . S
H2405 C2391 0.961 . S
H2406 C2391 0.961 . S
H2407 C2391 0.961 . S
H2408 C2392 0.931 . S
H2409 C2397 0.930 . S
H2410 C2398 0.956 . S
H2411 C2398 0.961 . S
H2412 C2398 0.961 . S
H2413 C2399 0.958 . S
H2414 C2399 0.961 . S
H2415 C2399 0.960 . S
C2416 C2417 1.391 . S
C2416 C2418 1.394 . S
C2416 H2432 0.931 . S
C2417 C2416 1.391 . S
C2417 C2421 1.376 . S
C2418 C2416 1.394 . S
C2418 C2419 1.369 . S
C2418 C2422 1.531 . S
C2419 C2418 1.369 . S
C2419 C2420 1.410 . S
C2419 C2427 1.503 . S
C2420 C2419 1.410 . S
C2420 C2421 1.392 . S
C2420 C2423 1.511 . S
C2421 C2417 1.376 . S
C2421 C2420 1.392 . S
C2421 H2433 0.929 . S
C2422 C2418 1.531 . S
C2422 H2434 0.960 . S
C2422 H2435 0.962 . S
C2422 H2436 0.960 . S
C2423 C2420 1.511 . S
C2423 H2437 0.961 . S
C2423 H2438 0.961 . S
C2423 H2439 0.961 . S
C2424 C2425 1.370 . S
C2424 C2426 1.363 . S
C2424 H2440 0.931 . S
C2425 C2424 1.370 . S
C2425 C2429 1.408 . S
C2426 C2424 1.363 . S
C2426 C2427 1.370 . S
C2426 C2430 1.524 . S
C2427 C2419 1.503 . S
C2427 C2426 1.370 . S
C2427 C2428 1.403 . S
C2428 C2427 1.403 . S
C2428 C2429 1.404 . S
C2428 C2431 1.539 . S
C2429 C2425 1.408 . S
C2429 C2428 1.404 . S
C2429 H2441 0.930 . S
C2430 C2426 1.524 . S
C2430 H2442 0.956 . S
C2430 H2443 0.961 . S
C2430 H2444 0.961 . S
C2431 C2428 1.539 . S
C2431 H2445 0.958 . S
C2431 H2446 0.961 . S
C2431 H2447 0.960 . S
H2432 C2416 0.931 . S
H2433 C2421 0.929 . S
H2434 C2422 0.960 . S
H2435 C2422 0.962 . S
H2436 C2422 0.960 . S
H2437 C2423 0.961 . S
H2438 C2423 0.961 . S
H2439 C2423 0.961 . S
H2440 C2424 0.931 . S
H2441 C2429 0.930 . S
H2442 C2430 0.956 . S
H2443 C2430 0.961 . S
H2444 C2430 0.961 . S
H2445 C2431 0.958 . S
H2446 C2431 0.961 . S
H2447 C2431 0.960 . S
C2448 C2449 1.391 . S
C2448 C2450 1.394 . S
C2448 H2464 0.931 . S
C2449 C2448 1.391 . S
C2449 C2453 1.376 . S
C2450 C2448 1.394 . S
C2450 C2451 1.369 . S
C2450 C2454 1.531 . S
C2451 C2450 1.369 . S
C2451 C2452 1.410 . S
C2451 C2459 1.503 . S
C2452 C2451 1.410 . S
C2452 C2453 1.392 . S
C2452 C2455 1.511 . S
C2453 C2449 1.376 . S
C2453 C2452 1.392 . S
C2453 H2465 0.929 . S
C2454 C2450 1.531 . S
C2454 H2466 0.960 . S
C2454 H2467 0.962 . S
C2454 H2468 0.960 . S
C2455 C2452 1.511 . S
C2455 H2469 0.961 . S
C2455 H2470 0.961 . S
C2455 H2471 0.961 . S
C2456 C2457 1.370 . S
C2456 C2458 1.363 . S
C2456 H2472 0.950 . S
C2457 C2456 1.370 . S
C2457 C2461 1.408 . S
C2458 C2456 1.363 . S
C2458 C2459 1.370 . S
C2458 C2462 1.524 . S
C2459 C2451 1.503 . S
C2459 C2458 1.370 . S
C2459 C2460 1.403 . S
C2460 C2459 1.403 . S
C2460 C2461 1.404 . S
C2460 C2463 1.539 . S
C2461 C2457 1.408 . S
C2461 C2460 1.404 . S
C2461 H2473 0.930 . S
C2462 C2458 1.524 . S
C2462 H2474 0.956 . S
C2462 H2475 0.961 . S
C2462 H2476 0.961 1_554 S
C2463 C2460 1.539 . S
C2463 H2477 0.958 . S
C2463 H2478 0.961 . S
C2463 H2479 0.960 . S
H2464 C2448 0.931 . S
H2465 C2453 0.929 . S
H2466 C2454 0.960 . S
H2467 C2454 0.962 . S
H2468 C2454 0.960 . S
H2469 C2455 0.961 . S
H2470 C2455 0.961 . S
H2471 C2455 0.961 . S
H2472 C2456 0.950 . S
H2473 C2461 0.930 . S
H2474 C2462 0.956 . S
H2475 C2462 0.961 . S
H2476 C2462 0.961 1_556 S
H2477 C2463 0.958 . S
H2478 C2463 0.961 . S
H2479 C2463 0.960 . S
C2480 C2481 1.391 . S
C2480 C2482 1.394 . S
C2480 H2496 0.931 . S
C2481 C2480 1.391 . S
C2481 C2485 1.376 . S
C2482 C2480 1.394 . S
C2482 C2483 1.369 . S
C2482 C2486 1.531 . S
C2483 C2482 1.369 . S
C2483 C2484 1.410 . S
C2483 C2491 1.503 . S
C2484 C2483 1.410 . S
C2484 C2485 1.392 . S
C2484 C2487 1.511 . S
C2485 C2481 1.376 . S
C2485 C2484 1.392 . S
C2485 H2497 0.929 . S
C2486 C2482 1.531 . S
C2486 H2498 0.960 . S
C2486 H2499 0.962 . S
C2486 H2500 0.960 . S
C2487 C2484 1.511 . S
C2487 H2501 0.961 . S
C2487 H2502 0.961 . S
C2487 H2503 0.961 . S
C2488 C2489 1.370 . S
C2488 C2490 1.363 . S
C2488 H2504 0.931 . S
C2489 C2488 1.370 . S
C2489 C2493 1.408 . S
C2490 C2488 1.363 . S
C2490 C2491 1.370 . S
C2490 C2494 1.524 . S
C2491 C2483 1.503 . S
C2491 C2490 1.370 . S
C2491 C2492 1.403 . S
C2492 C2491 1.403 . S
C2492 C2493 1.404 . S
C2492 C2495 1.539 . S
C2493 C2489 1.408 . S
C2493 C2492 1.404 . S
C2493 H2505 0.930 . S
C2494 C2490 1.524 . S
C2494 H2506 0.956 . S
C2494 H2507 0.961 . S
C2494 H2508 0.961 . S
C2495 C2492 1.539 . S
C2495 H2509 0.958 . S
C2495 H2510 0.961 . S
C2495 H2511 0.960 . S
H2496 C2480 0.931 . S
H2497 C2485 0.929 . S
H2498 C2486 0.960 . S
H2499 C2486 0.962 . S
H2500 C2486 0.960 . S
H2501 C2487 0.961 . S
H2502 C2487 0.961 . S
H2503 C2487 0.961 . S
H2504 C2488 0.931 . S
H2505 C2493 0.930 . S
H2506 C2494 0.956 . S
H2507 C2494 0.961 . S
H2508 C2494 0.961 . S
H2509 C2495 0.958 . S
H2510 C2495 0.961 . S
H2511 C2495 0.960 . S
C2512 C2513 1.391 . S
C2512 C2514 1.394 . S
C2512 H2528 0.931 . S
C2513 C2512 1.391 . S
C2513 C2517 1.376 . S
C2514 C2512 1.394 . S
C2514 C2515 1.369 . S
C2514 C2518 1.531 . S
C2515 C2514 1.369 . S
C2515 C2516 1.410 . S
C2515 C2523 1.503 . S
C2516 C2515 1.410 . S
C2516 C2517 1.392 . S
C2516 C2519 1.511 . S
C2517 C2513 1.376 . S
C2517 C2516 1.392 . S
C2517 H2529 0.929 . S
C2518 C2514 1.531 . S
C2518 H2530 0.960 . S
C2518 H2531 0.962 . S
C2518 H2532 0.960 . S
C2519 C2516 1.511 . S
C2519 H2533 0.961 . S
C2519 H2534 0.961 . S
C2519 H2535 0.961 . S
C2520 C2521 1.370 . S
C2520 C2522 1.363 . S
C2520 H2536 0.931 . S
C2521 C2520 1.370 . S
C2521 C2525 1.408 . S
C2522 C2520 1.363 . S
C2522 C2523 1.370 . S
C2522 C2526 1.524 . S
C2523 C2515 1.503 . S
C2523 C2522 1.370 . S
C2523 C2524 1.403 . S
C2524 C2523 1.403 . S
C2524 C2525 1.404 . S
C2524 C2527 1.539 . S
C2525 C2521 1.408 . S
C2525 C2524 1.404 . S
C2525 H2537 0.930 . S
C2526 C2522 1.524 . S
C2526 H2538 0.956 . S
C2526 H2539 0.961 . S
C2526 H2540 0.961 . S
C2527 C2524 1.539 . S
C2527 H2541 0.958 . S
C2527 H2542 0.961 . S
C2527 H2543 0.960 . S
H2528 C2512 0.931 . S
H2529 C2517 0.929 . S
H2530 C2518 0.960 . S
H2531 C2518 0.962 . S
H2532 C2518 0.960 . S
H2533 C2519 0.961 . S
H2534 C2519 0.961 . S
H2535 C2519 0.961 . S
H2536 C2520 0.931 . S
H2537 C2525 0.930 . S
H2538 C2526 0.956 . S
H2539 C2526 0.961 . S
H2540 C2526 0.961 . S
H2541 C2527 0.958 . S
H2542 C2527 0.961 . S
H2543 C2527 0.960 . S
C2544 C2545 1.391 . S
C2544 C2546 1.394 . S
C2544 H2560 0.931 . S
C2545 C2544 1.391 . S
C2545 C2549 1.376 . S
C2546 C2544 1.394 . S
C2546 C2547 1.369 . S
C2546 C2550 1.531 . S
C2547 C2546 1.369 . S
C2547 C2548 1.410 . S
C2547 C2555 1.503 . S
C2548 C2547 1.410 . S
C2548 C2549 1.392 . S
C2548 C2551 1.511 . S
C2549 C2545 1.376 . S
C2549 C2548 1.392 . S
C2549 H2561 0.929 . S
C2550 C2546 1.531 . S
C2550 H2562 0.960 . S
C2550 H2563 0.962 . S
C2550 H2564 0.960 . S
C2551 C2548 1.511 . S
C2551 H2565 0.961 . S
C2551 H2566 0.961 . S
C2551 H2567 0.961 . S
C2552 C2553 1.370 . S
C2552 C2554 1.363 . S
C2552 H2568 0.931 . S
C2553 C2552 1.370 . S
C2553 C2557 1.408 . S
C2554 C2552 1.363 . S
C2554 C2555 1.370 . S
C2554 C2558 1.524 . S
C2555 C2547 1.503 . S
C2555 C2554 1.370 . S
C2555 C2556 1.403 . S
C2556 C2555 1.403 . S
C2556 C2557 1.404 . S
C2556 C2559 1.539 . S
C2557 C2553 1.408 . S
C2557 C2556 1.404 . S
C2557 H2569 0.930 . S
C2558 C2554 1.524 . S
C2558 H2570 0.956 . S
C2558 H2571 0.961 . S
C2558 H2572 0.961 . S
C2559 C2556 1.539 . S
C2559 H2573 0.958 . S
C2559 H2574 0.961 . S
C2559 H2575 0.960 . S
H2560 C2544 0.931 . S
H2561 C2549 0.929 . S
H2562 C2550 0.960 . S
H2563 C2550 0.962 . S
H2564 C2550 0.960 . S
H2565 C2551 0.961 . S
H2566 C2551 0.961 . S
H2567 C2551 0.961 . S
H2568 C2552 0.931 . S
H2569 C2557 0.930 . S
H2570 C2558 0.956 . S
H2571 C2558 0.961 . S
H2572 C2558 0.961 . S
H2573 C2559 0.958 . S
H2574 C2559 0.961 . S
H2575 C2559 0.960 . S
C2576 C2577 1.391 . S
C2576 C2578 1.394 . S
C2576 H2592 0.931 . S
C2577 C2576 1.391 . S
C2577 C2581 1.376 . S
C2578 C2576 1.394 . S
C2578 C2579 1.369 . S
C2578 C2582 1.531 . S
C2579 C2578 1.369 . S
C2579 C2580 1.410 . S
C2579 C2587 1.503 . S
C2580 C2579 1.410 . S
C2580 C2581 1.392 . S
C2580 C2583 1.511 . S
C2581 C2577 1.376 . S
C2581 C2580 1.392 . S
C2581 H2593 0.929 . S
C2582 C2578 1.531 . S
C2582 H2594 0.960 . S
C2582 H2595 0.962 . S
C2582 H2596 0.960 . S
C2583 C2580 1.511 . S
C2583 H2597 0.961 . S
C2583 H2598 0.961 . S
C2583 H2599 0.961 . S
C2584 C2585 1.370 . S
C2584 C2586 1.363 . S
C2584 H2600 0.931 . S
C2585 C2584 1.370 . S
C2585 C2589 1.408 . S
C2586 C2584 1.363 . S
C2586 C2587 1.370 . S
C2586 C2590 1.524 . S
C2587 C2579 1.503 . S
C2587 C2586 1.370 . S
C2587 C2588 1.403 . S
C2588 C2587 1.403 . S
C2588 C2589 1.404 . S
C2588 C2591 1.539 . S
C2589 C2585 1.408 . S
C2589 C2588 1.404 . S
C2589 H2601 0.930 . S
C2590 C2586 1.524 . S
C2590 H2602 0.956 . S
C2590 H2603 0.961 . S
C2590 H2604 0.961 . S
C2591 C2588 1.539 . S
C2591 H2605 0.958 . S
C2591 H2606 0.961 . S
C2591 H2607 0.960 . S
H2592 C2576 0.931 . S
H2593 C2581 0.929 . S
H2594 C2582 0.960 . S
H2595 C2582 0.962 . S
H2596 C2582 0.960 . S
H2597 C2583 0.961 . S
H2598 C2583 0.961 . S
H2599 C2583 0.961 . S
H2600 C2584 0.931 . S
H2601 C2589 0.930 . S
H2602 C2590 0.956 . S
H2603 C2590 0.961 . S
H2604 C2590 0.961 . S
H2605 C2591 0.958 . S
H2606 C2591 0.961 . S
H2607 C2591 0.960 . S
C2608 C2609 1.391 . S
C2608 C2610 1.394 . S
C2608 H2624 0.931 . S
C2609 C2608 1.391 . S
C2609 C2613 1.376 . S
C2610 C2608 1.394 . S
C2610 C2611 1.369 . S
C2610 C2614 1.531 . S
C2611 C2610 1.369 . S
C2611 C2612 1.410 . S
C2611 C2619 1.503 . S
C2612 C2611 1.410 . S
C2612 C2613 1.392 . S
C2612 C2615 1.511 . S
C2613 C2609 1.376 . S
C2613 C2612 1.392 . S
C2613 H2625 0.929 . S
C2614 C2610 1.531 . S
C2614 H2626 0.960 . S
C2614 H2627 0.962 . S
C2614 H2628 0.960 . S
C2615 C2612 1.511 . S
C2615 H2629 0.961 . S
C2615 H2630 0.961 . S
C2615 H2631 0.961 . S
C2616 C2617 1.370 . S
C2616 C2618 1.363 . S
C2616 H2632 0.931 . S
C2617 C2616 1.370 . S
C2617 C2621 1.408 . S
C2618 C2616 1.363 . S
C2618 C2619 1.370 . S
C2618 C2622 1.524 . S
C2619 C2611 1.503 . S
C2619 C2618 1.370 . S
C2619 C2620 1.403 . S
C2620 C2619 1.403 . S
C2620 C2621 1.404 . S
C2620 C2623 1.539 . S
C2621 C2617 1.408 . S
C2621 C2620 1.404 . S
C2621 H2633 0.930 . S
C2622 C2618 1.524 . S
C2622 H2634 0.956 . S
C2622 H2635 0.961 . S
C2622 H2636 0.961 . S
C2623 C2620 1.539 . S
C2623 H2637 0.958 . S
C2623 H2638 0.961 . S
C2623 H2639 0.960 . S
H2624 C2608 0.931 . S
H2625 C2613 0.929 . S
H2626 C2614 0.960 . S
H2627 C2614 0.962 . S
H2628 C2614 0.960 . S
H2629 C2615 0.961 . S
H2630 C2615 0.961 . S
H2631 C2615 0.961 . S
H2632 C2616 0.931 . S
H2633 C2621 0.930 . S
H2634 C2622 0.956 . S
H2635 C2622 0.961 . S
H2636 C2622 0.961 . S
H2637 C2623 0.958 . S
H2638 C2623 0.961 . S
H2639 C2623 0.960 . S
C2640 C2641 1.391 . S
C2640 C2642 1.394 . S
C2640 H2656 0.931 . S
C2641 C2640 1.391 . S
C2641 C2645 1.376 . S
C2642 C2640 1.394 . S
C2642 C2643 1.369 . S
C2642 C2646 1.531 . S
C2643 C2642 1.369 . S
C2643 C2644 1.410 . S
C2643 C2651 1.503 . S
C2644 C2643 1.410 . S
C2644 C2645 1.392 . S
C2644 C2647 1.511 . S
C2645 C2641 1.376 . S
C2645 C2644 1.392 . S
C2645 H2657 0.929 . S
C2646 C2642 1.531 . S
C2646 H2658 0.960 . S
C2646 H2659 0.962 . S
C2646 H2660 0.960 . S
C2647 C2644 1.511 . S
C2647 H2661 0.961 . S
C2647 H2662 0.961 . S
C2647 H2663 0.961 . S
C2648 C2649 1.370 . S
C2648 C2650 1.363 . S
C2648 H2664 0.931 . S
C2649 C2648 1.370 . S
C2649 C2653 1.397 1_556 S
C2650 C2648 1.363 . S
C2650 C2651 1.370 . S
C2650 C2654 1.524 . S
C2651 C2643 1.503 . S
C2651 C2650 1.370 . S
C2651 C2652 1.403 . S
C2652 C2651 1.403 . S
C2652 C2653 1.396 1_556 S
C2652 C2655 1.539 1_556 S
C2653 C2649 1.397 1_554 S
C2653 C2652 1.396 1_554 S
C2653 H2665 0.948 . S
C2654 C2650 1.524 . S
C2654 H2666 0.956 . S
C2654 H2667 0.961 . S
C2654 H2668 0.961 . S
C2655 C2652 1.539 1_554 S
C2655 H2669 0.958 . S
C2655 H2670 0.961 . S
C2655 H2671 0.960 1_554 S
H2656 C2640 0.931 . S
H2657 C2645 0.929 . S
H2658 C2646 0.960 . S
H2659 C2646 0.962 . S
H2660 C2646 0.960 . S
H2661 C2647 0.961 . S
H2662 C2647 0.961 . S
H2663 C2647 0.961 . S
H2664 C2648 0.931 . S
H2665 C2653 0.948 . S
H2666 C2654 0.956 . S
H2667 C2654 0.961 . S
H2668 C2654 0.961 . S
H2669 C2655 0.958 . S
H2670 C2655 0.961 . S
H2671 C2655 0.960 1_556 S
C2672 C2673 1.391 . S
C2672 C2674 1.394 . S
C2672 H2688 0.931 . S
C2673 C2672 1.391 . S
C2673 C2677 1.376 . S
C2674 C2672 1.394 . S
C2674 C2675 1.369 . S
C2674 C2678 1.531 . S
C2675 C2674 1.369 . S
C2675 C2676 1.410 . S
C2675 C2683 1.503 . S
C2676 C2675 1.410 . S
C2676 C2677 1.392 . S
C2676 C2679 1.511 . S
C2677 C2673 1.376 . S
C2677 C2676 1.392 . S
C2677 H2689 0.929 . S
C2678 C2674 1.531 . S
C2678 H2690 0.960 . S
C2678 H2691 0.962 . S
C2678 H2692 0.960 . S
C2679 C2676 1.511 . S
C2679 H2693 0.961 . S
C2679 H2694 0.961 . S
C2679 H2695 0.961 . S
C2680 C2681 1.370 . S
C2680 C2682 1.363 . S
C2680 H2696 0.931 . S
C2681 C2680 1.370 . S
C2681 C2685 1.408 . S
C2682 C2680 1.363 . S
C2682 C2683 1.370 . S
C2682 C2686 1.524 . S
C2683 C2675 1.503 . S
C2683 C2682 1.370 . S
C2683 C2684 1.403 . S
C2684 C2683 1.403 . S
C2684 C2685 1.404 . S
C2684 C2687 1.539 . S
C2685 C2681 1.408 . S
C2685 C2684 1.404 . S
C2685 H2697 0.930 . S
C2686 C2682 1.524 . S
C2686 H2698 0.956 . S
C2686 H2699 0.961 . S
C2686 H2700 0.961 . S
C2687 C2684 1.539 . S
C2687 H2701 0.958 . S
C2687 H2702 0.961 . S
C2687 H2703 0.960 . S
H2688 C2672 0.931 . S
H2689 C2677 0.929 . S
H2690 C2678 0.960 . S
H2691 C2678 0.962 . S
H2692 C2678 0.960 . S
H2693 C2679 0.961 . S
H2694 C2679 0.961 . S
H2695 C2679 0.961 . S
H2696 C2680 0.931 . S
H2697 C2685 0.930 . S
H2698 C2686 0.956 . S
H2699 C2686 0.961 . S
H2700 C2686 0.961 . S
H2701 C2687 0.958 . S
H2702 C2687 0.961 . S
H2703 C2687 0.960 . S
C2704 C2705 1.391 . S
C2704 C2706 1.394 . S
C2704 H2720 0.931 . S
C2705 C2704 1.391 . S
C2705 C2709 1.376 1_545 S
C2706 C2704 1.394 . S
C2706 C2707 1.369 . S
C2706 C2710 1.531 . S
C2707 C2706 1.369 . S
C2707 C2708 1.410 1_545 S
C2707 C2715 1.503 . S
C2708 C2707 1.410 1_565 S
C2708 C2709 1.392 . S
C2708 C2711 1.511 . S
C2709 C2705 1.376 1_565 S
C2709 C2708 1.392 . S
C2709 H2721 0.929 . S
C2710 C2706 1.531 . S
C2710 H2722 0.960 . S
C2710 H2723 0.962 . S
C2710 H2724 0.960 . S
C2711 C2708 1.511 . S
C2711 H2725 0.961 . S
C2711 H2726 0.961 . S
C2711 H2727 0.961 . S
C2712 C2713 1.370 1_565 S
C2712 C2714 1.363 . S
C2712 H2728 0.931 . S
C2713 C2712 1.370 1_545 S
C2713 C2717 1.408 . S
C2714 C2712 1.363 . S
C2714 C2715 1.370 1_565 S
C2714 C2718 1.524 . S
C2715 C2707 1.503 . S
C2715 C2714 1.370 1_545 S
C2715 C2716 1.403 . S
C2716 C2715 1.403 . S
C2716 C2717 1.404 . S
C2716 C2719 1.539 . S
C2717 C2713 1.408 . S
C2717 C2716 1.404 . S
C2717 H2729 0.930 . S
C2718 C2714 1.524 . S
C2718 H2730 0.956 . S
C2718 H2731 0.961 . S
C2718 H2732 0.961 . S
C2719 C2716 1.539 . S
C2719 H2733 0.958 . S
C2719 H2734 0.961 . S
C2719 H2735 0.960 . S
H2720 C2704 0.931 . S
H2721 C2709 0.929 . S
H2722 C2710 0.960 . S
H2723 C2710 0.962 . S
H2724 C2710 0.960 . S
H2725 C2711 0.961 . S
H2726 C2711 0.961 . S
H2727 C2711 0.961 . S
H2728 C2712 0.931 . S
H2729 C2717 0.930 . S
H2730 C2718 0.956 . S
H2731 C2718 0.961 . S
H2732 C2718 0.961 . S
H2733 C2719 0.958 . S
H2734 C2719 0.961 . S
H2735 C2719 0.960 . S
C2736 C2737 1.391 . S
C2736 C2738 1.394 . S
C2736 H2752 0.931 . S
C2737 C2736 1.391 . S
C2737 C2741 1.376 . S
C2738 C2736 1.394 . S
C2738 C2739 1.369 . S
C2738 C2742 1.531 . S
C2739 C2738 1.369 . S
C2739 C2740 1.410 . S
C2739 C2747 1.503 . S
C2740 C2739 1.410 . S
C2740 C2741 1.392 . S
C2740 C2743 1.511 . S
C2741 C2737 1.376 . S
C2741 C2740 1.392 . S
C2741 H2753 0.929 . S
C2742 C2738 1.531 . S
C2742 H2754 0.960 . S
C2742 H2755 0.962 . S
C2742 H2756 0.960 . S
C2743 C2740 1.511 . S
C2743 H2757 0.961 . S
C2743 H2758 0.961 . S
C2743 H2759 0.961 . S
C2744 C2745 1.370 . S
C2744 C2746 1.363 . S
C2744 H2760 0.931 . S
C2745 C2744 1.370 . S
C2745 C2749 1.408 . S
C2746 C2744 1.363 . S
C2746 C2747 1.370 . S
C2746 C2750 1.524 . S
C2747 C2739 1.503 . S
C2747 C2746 1.370 . S
C2747 C2748 1.403 . S
C2748 C2747 1.403 . S
C2748 C2749 1.404 . S
C2748 C2751 1.539 . S
C2749 C2745 1.408 . S
C2749 C2748 1.404 . S
C2749 H2761 0.930 . S
C2750 C2746 1.524 . S
C2750 H2762 0.956 . S
C2750 H2763 0.961 . S
C2750 H2764 0.961 . S
C2751 C2748 1.539 . S
C2751 H2765 0.958 . S
C2751 H2766 0.961 . S
C2751 H2767 0.960 . S
H2752 C2736 0.931 . S
H2753 C2741 0.929 . S
H2754 C2742 0.960 . S
H2755 C2742 0.962 . S
H2756 C2742 0.960 . S
H2757 C2743 0.961 . S
H2758 C2743 0.961 . S
H2759 C2743 0.961 . S
H2760 C2744 0.931 . S
H2761 C2749 0.930 . S
H2762 C2750 0.956 . S
H2763 C2750 0.961 . S
H2764 C2750 0.961 . S
H2765 C2751 0.958 . S
H2766 C2751 0.961 . S
H2767 C2751 0.960 . S
C2768 C2769 1.391 . S
C2768 C2770 1.394 . S
C2768 H2784 0.931 . S
C2769 C2768 1.391 . S
C2769 C2773 1.376 . S
C2770 C2768 1.394 . S
C2770 C2771 1.369 . S
C2770 C2774 1.531 . S
C2771 C2770 1.369 . S
C2771 C2772 1.410 . S
C2771 C2779 1.503 . S
C2772 C2771 1.410 . S
C2772 C2773 1.392 . S
C2772 C2775 1.511 1_545 S
C2773 C2769 1.376 . S
C2773 C2772 1.392 . S
C2773 H2785 0.929 1_545 S
C2774 C2770 1.531 . S
C2774 H2786 0.960 . S
C2774 H2787 0.962 . S
C2774 H2788 0.960 . S
C2775 C2772 1.511 1_565 S
C2775 H2789 0.961 . S
C2775 H2790 0.961 . S
C2775 H2791 0.961 . S
C2776 C2777 1.370 . S
C2776 C2778 1.363 . S
C2776 H2792 0.931 . S
C2777 C2776 1.370 . S
C2777 C2781 1.408 . S
C2778 C2776 1.363 . S
C2778 C2779 1.370 . S
C2778 C2782 1.524 . S
C2779 C2771 1.503 . S
C2779 C2778 1.370 . S
C2779 C2780 1.403 . S
C2780 C2779 1.403 . S
C2780 C2781 1.404 . S
C2780 C2783 1.539 . S
C2781 C2777 1.408 . S
C2781 C2780 1.404 . S
C2781 H2793 0.930 . S
C2782 C2778 1.524 . S
C2782 H2794 0.956 . S
C2782 H2795 0.961 . S
C2782 H2796 0.961 . S
C2783 C2780 1.539 . S
C2783 H2797 0.958 . S
C2783 H2798 0.961 . S
C2783 H2799 0.960 . S
H2784 C2768 0.931 . S
H2785 C2773 0.929 1_565 S
H2786 C2774 0.960 . S
H2787 C2774 0.962 . S
H2788 C2774 0.960 . S
H2789 C2775 0.961 . S
H2790 C2775 0.961 . S
H2791 C2775 0.961 . S
H2792 C2776 0.931 . S
H2793 C2781 0.930 . S
H2794 C2782 0.956 . S
H2795 C2782 0.961 . S
H2796 C2782 0.961 . S
H2797 C2783 0.958 . S
H2798 C2783 0.961 . S
H2799 C2783 0.960 . S
C2800 C2801 1.391 . S
C2800 C2802 1.394 . S
C2800 H2816 0.931 . S
C2801 C2800 1.391 . S
C2801 C2805 1.376 . S
C2802 C2800 1.394 . S
C2802 C2803 1.369 . S
C2802 C2806 1.531 . S
C2803 C2802 1.369 . S
C2803 C2804 1.410 . S
C2803 C2811 1.503 . S
C2804 C2803 1.410 . S
C2804 C2805 1.392 . S
C2804 C2807 1.511 . S
C2805 C2801 1.376 . S
C2805 C2804 1.392 . S
C2805 H2817 0.929 . S
C2806 C2802 1.531 . S
C2806 H2818 0.960 . S
C2806 H2819 0.962 . S
C2806 H2820 0.960 . S
C2807 C2804 1.511 . S
C2807 H2821 0.961 . S
C2807 H2822 0.961 . S
C2807 H2823 0.961 . S
C2808 C2809 1.370 . S
C2808 C2810 1.363 . S
C2808 H2824 0.931 . S
C2809 C2808 1.370 . S
C2809 C2813 1.408 . S
C2810 C2808 1.363 . S
C2810 C2811 1.370 . S
C2810 C2814 1.524 . S
C2811 C2803 1.503 . S
C2811 C2810 1.370 . S
C2811 C2812 1.403 . S
C2812 C2811 1.403 . S
C2812 C2813 1.404 . S
C2812 C2815 1.539 . S
C2813 C2809 1.408 . S
C2813 C2812 1.404 . S
C2813 H2825 0.930 . S
C2814 C2810 1.524 . S
C2814 H2826 0.956 . S
C2814 H2827 0.961 . S
C2814 H2828 0.961 . S
C2815 C2812 1.539 . S
C2815 H2829 0.958 . S
C2815 H2830 0.961 . S
C2815 H2831 0.960 . S
H2816 C2800 0.931 . S
H2817 C2805 0.929 . S
H2818 C2806 0.960 . S
H2819 C2806 0.962 . S
H2820 C2806 0.960 . S
H2821 C2807 0.961 . S
H2822 C2807 0.961 . S
H2823 C2807 0.961 . S
H2824 C2808 0.931 . S
H2825 C2813 0.930 . S
H2826 C2814 0.956 . S
H2827 C2814 0.961 . S
H2828 C2814 0.961 . S
H2829 C2815 0.958 . S
H2830 C2815 0.961 . S
H2831 C2815 0.960 . S
C2832 C2833 1.391 1_545 S
C2832 C2834 1.394 . S
C2832 H2848 0.931 . S
C2833 C2832 1.391 1_565 S
C2833 C2837 1.376 . S
C2834 C2832 1.394 . S
C2834 C2835 1.369 . S
C2834 C2838 1.531 . S
C2835 C2834 1.369 . S
C2835 C2836 1.410 . S
C2835 C2843 1.503 . S
C2836 C2835 1.410 . S
C2836 C2837 1.392 1_545 S
C2836 C2839 1.511 . S
C2837 C2833 1.376 . S
C2837 C2836 1.392 1_565 S
C2837 H2849 0.929 . S
C2838 C2834 1.531 . S
C2838 H2850 0.960 . S
C2838 H2851 0.962 . S
C2838 H2852 0.960 . S
C2839 C2836 1.511 . S
C2839 H2853 0.961 1_545 S
C2839 H2854 0.960 . S
C2839 H2855 0.961 . S
C2840 C2841 1.370 . S
C2840 C2842 1.363 1_545 S
C2840 H2856 0.931 1_545 S
C2841 C2840 1.370 . S
C2841 C2845 1.408 . S
C2842 C2840 1.363 1_565 S
C2842 C2843 1.370 1_565 S
C2842 C2846 1.524 . S
C2843 C2835 1.503 . S
C2843 C2842 1.370 1_545 S
C2843 C2844 1.403 . S
C2844 C2843 1.403 . S
C2844 C2845 1.404 . S
C2844 C2847 1.539 . S
C2845 C2841 1.408 . S
C2845 C2844 1.404 . S
C2845 H2857 0.930 . S
C2846 C2842 1.524 . S
C2846 H2858 0.956 . S
C2846 H2859 0.961 . S
C2846 H2860 0.961 . S
C2847 C2844 1.539 . S
C2847 H2861 0.958 . S
C2847 H2862 0.961 . S
C2847 H2863 0.960 . S
H2848 C2832 0.931 . S
H2849 C2837 0.929 . S
H2850 C2838 0.960 . S
H2851 C2838 0.962 . S
H2852 C2838 0.960 . S
H2853 C2839 0.961 1_565 S
H2854 C2839 0.960 . S
H2855 C2839 0.961 . S
H2856 C2840 0.931 1_565 S
H2857 C2845 0.930 . S
H2858 C2846 0.956 . S
H2859 C2846 0.961 . S
H2860 C2846 0.961 . S
H2861 C2847 0.958 . S
H2862 C2847 0.961 . S
H2863 C2847 0.960 . S
C2864 C2865 1.391 . S
C2864 C2866 1.394 . S
C2864 H2880 0.931 . S
C2865 C2864 1.391 . S
C2865 C2869 1.376 . S
C2866 C2864 1.394 . S
C2866 C2867 1.369 . S
C2866 C2870 1.531 . S
C2867 C2866 1.369 . S
C2867 C2868 1.410 . S
C2867 C2875 1.503 . S
C2868 C2867 1.410 . S
C2868 C2869 1.392 . S
C2868 C2871 1.511 . S
C2869 C2865 1.376 . S
C2869 C2868 1.392 . S
C2869 H2881 0.929 . S
C2870 C2866 1.531 . S
C2870 H2882 0.960 . S
C2870 H2883 0.962 . S
C2870 H2884 0.960 . S
C2871 C2868 1.511 . S
C2871 H2885 0.961 . S
C2871 H2886 0.961 . S
C2871 H2887 0.961 . S
C2872 C2873 1.370 . S
C2872 C2874 1.363 . S
C2872 H2888 0.931 . S
C2873 C2872 1.370 . S
C2873 C2877 1.408 . S
C2874 C2872 1.363 . S
C2874 C2875 1.370 . S
C2874 C2878 1.524 . S
C2875 C2867 1.503 . S
C2875 C2874 1.370 . S
C2875 C2876 1.403 . S
C2876 C2875 1.403 . S
C2876 C2877 1.404 . S
C2876 C2879 1.539 . S
C2877 C2873 1.408 . S
C2877 C2876 1.404 . S
C2877 H2889 0.930 . S
C2878 C2874 1.524 . S
C2878 H2890 0.956 . S
C2878 H2891 0.961 . S
C2878 H2892 0.961 . S
C2879 C2876 1.539 . S
C2879 H2893 0.958 . S
C2879 H2894 0.961 . S
C2879 H2895 0.960 . S
H2880 C2864 0.931 . S
H2881 C2869 0.929 . S
H2882 C2870 0.960 . S
H2883 C2870 0.962 . S
H2884 C2870 0.960 . S
H2885 C2871 0.961 . S
H2886 C2871 0.961 . S
H2887 C2871 0.961 . S
H2888 C2872 0.931 . S
H2889 C2877 0.930 . S
H2890 C2878 0.956 . S
H2891 C2878 0.961 . S
H2892 C2878 0.961 . S
H2893 C2879 0.958 . S
H2894 C2879 0.961 . S
H2895 C2879 0.960 . S
C2896 C2897 1.391 . S
C2896 C2898 1.394 . S
C2896 H2912 0.931 1_545 S
C2897 C2896 1.391 . S
C2897 C2901 1.376 . S
C2898 C2896 1.394 . S
C2898 C2899 1.369 . S
C2898 C2902 1.531 1_545 S
C2899 C2898 1.369 . S
C2899 C2900 1.410 . S
C2899 C2907 1.503 . S
C2900 C2899 1.410 . S
C2900 C2901 1.392 . S
C2900 C2903 1.511 . S
C2901 C2897 1.376 . S
C2901 C2900 1.392 . S
C2901 H2913 0.929 . S
C2902 C2898 1.531 1_565 S
C2902 H2914 0.960 . S
C2902 H2915 0.962 1_565 S
C2902 H2916 0.960 . S
C2903 C2900 1.511 . S
C2903 H2917 0.961 . S
C2903 H2918 0.961 . S
C2903 H2919 0.961 . S
C2904 C2905 1.370 . S
C2904 C2906 1.363 . S
C2904 H2920 0.931 . S
C2905 C2904 1.370 . S
C2905 C2909 1.408 1_545 S
C2906 C2904 1.363 . S
C2906 C2907 1.370 . S
C2906 C2910 1.524 . S
C2907 C2899 1.503 . S
C2907 C2906 1.370 . S
C2907 C2908 1.403 1_545 S
C2908 C2907 1.403 1_565 S
C2908 C2909 1.404 . S
C2908 C2911 1.539 . S
C2909 C2905 1.408 1_565 S
C2909 C2908 1.404 . S
C2909 H2921 0.930 . S
C2910 C2906 1.524 . S
C2910 H2922 0.956 . S
C2910 H2923 0.961 . S
C2910 H2924 0.961 . S
C2911 C2908 1.539 . S
C2911 H2925 0.958 . S
C2911 H2926 0.961 . S
C2911 H2927 0.960 . S
H2912 C2896 0.931 1_565 S
H2913 C2901 0.929 . S
H2914 C2902 0.960 . S
H2915 C2902 0.962 1_545 S
H2916 C2902 0.960 . S
H2917 C2903 0.961 . S
H2918 C2903 0.961 . S
H2919 C2903 0.961 . S
H2920 C2904 0.931 . S
H2921 C2909 0.930 . S
H2922 C2910 0.956 . S
H2923 C2910 0.961 . S
H2924 C2910 0.961 . S
H2925 C2911 0.958 . S
H2926 C2911 0.961 . S
H2927 C2911 0.960 . S
C2928 C2929 1.391 . S
C2928 C2930 1.394 . S
C2928 H2944 0.931 . S
C2929 C2928 1.391 . S
C2929 C2933 1.376 . S
C2930 C2928 1.394 . S
C2930 C2931 1.369 . S
C2930 C2934 1.531 . S
C2931 C2930 1.369 . S
C2931 C2932 1.410 . S
C2931 C2939 1.503 . S
C2932 C2931 1.410 . S
C2932 C2933 1.392 . S
C2932 C2935 1.511 . S
C2933 C2929 1.376 . S
C2933 C2932 1.392 . S
C2933 H2945 0.929 . S
C2934 C2930 1.531 . S
C2934 H2946 0.960 . S
C2934 H2947 0.962 . S
C2934 H2948 0.960 . S
C2935 C2932 1.511 . S
C2935 H2949 0.961 . S
C2935 H2950 0.961 . S
C2935 H2951 0.961 . S
C2936 C2937 1.370 . S
C2936 C2938 1.363 . S
C2936 H2952 0.931 . S
C2937 C2936 1.370 . S
C2937 C2941 1.408 . S
C2938 C2936 1.363 . S
C2938 C2939 1.370 . S
C2938 C2942 1.524 . S
C2939 C2931 1.503 . S
C2939 C2938 1.370 . S
C2939 C2940 1.403 . S
C2940 C2939 1.403 . S
C2940 C2941 1.404 . S
C2940 C2943 1.539 . S
C2941 C2937 1.408 . S
C2941 C2940 1.404 . S
C2941 H2953 0.930 . S
C2942 C2938 1.524 . S
C2942 H2954 0.956 . S
C2942 H2955 0.961 . S
C2942 H2956 0.961 . S
C2943 C2940 1.539 . S
C2943 H2957 0.958 . S
C2943 H2958 0.961 . S
C2943 H2959 0.960 . S
H2944 C2928 0.931 . S
H2945 C2933 0.929 . S
H2946 C2934 0.960 . S
H2947 C2934 0.962 . S
H2948 C2934 0.960 . S
H2949 C2935 0.961 . S
H2950 C2935 0.961 . S
H2951 C2935 0.961 . S
H2952 C2936 0.931 . S
H2953 C2941 0.930 . S
H2954 C2942 0.956 . S
H2955 C2942 0.961 . S
H2956 C2942 0.961 . S
H2957 C2943 0.958 . S
H2958 C2943 0.961 . S
H2959 C2943 0.960 . S
C2960 C2961 1.391 . S
C2960 C2962 1.394 . S
C2960 H2976 0.931 . S
C2961 C2960 1.391 . S
C2961 C2965 1.376 . S
C2962 C2960 1.394 . S
C2962 C2963 1.369 . S
C2962 C2966 1.531 . S
C2963 C2962 1.369 . S
C2963 C2964 1.410 . S
C2963 C2971 1.503 . S
C2964 C2963 1.410 . S
C2964 C2965 1.392 . S
C2964 C2967 1.511 . S
C2965 C2961 1.376 . S
C2965 C2964 1.392 . S
C2965 H2977 0.929 . S
C2966 C2962 1.531 . S
C2966 H2978 0.960 . S
C2966 H2979 0.962 . S
C2966 H2980 0.960 . S
C2967 C2964 1.511 . S
C2967 H2981 0.961 . S
C2967 H2982 0.961 . S
C2967 H2983 0.961 . S
C2968 C2969 1.370 1_556 S
C2968 C2970 1.363 . S
C2968 H2984 0.931 . S
C2969 C2968 1.370 1_554 S
C2969 C2973 1.408 . S
C2970 C2968 1.363 . S
C2970 C2971 1.370 1_556 S
C2970 C2974 1.524 . S
C2971 C2963 1.503 . S
C2971 C2970 1.370 1_554 S
C2971 C2972 1.403 . S
C2972 C2971 1.403 . S
C2972 C2973 1.404 . S
C2972 C2975 1.539 . S
C2973 C2969 1.408 . S
C2973 C2972 1.404 . S
C2973 H2985 0.930 . S
C2974 C2970 1.524 . S
C2974 H2986 0.956 . S
C2974 H2987 0.961 . S
C2974 H2988 0.961 . S
C2975 C2972 1.539 . S
C2975 H2989 0.958 . S
C2975 H2990 0.961 . S
C2975 H2991 0.960 . S
H2976 C2960 0.931 . S
H2977 C2965 0.929 . S
H2978 C2966 0.960 . S
H2979 C2966 0.962 . S
H2980 C2966 0.960 . S
H2981 C2967 0.961 . S
H2982 C2967 0.961 . S
H2983 C2967 0.961 . S
H2984 C2968 0.931 . S
H2985 C2973 0.930 . S
H2986 C2974 0.956 . S
H2987 C2974 0.961 . S
H2988 C2974 0.961 . S
H2989 C2975 0.958 . S
H2990 C2975 0.961 . S
H2991 C2975 0.960 . S
C2992 C2993 1.391 . S
C2992 C2994 1.394 . S
C2992 H3008 0.931 . S
C2993 C2992 1.391 . S
C2993 C2997 1.376 . S
C2994 C2992 1.394 . S
C2994 C2995 1.369 . S
C2994 C2998 1.531 . S
C2995 C2994 1.369 . S
C2995 C2996 1.410 . S
C2995 C3003 1.503 . S
C2996 C2995 1.410 . S
C2996 C2997 1.392 . S
C2996 C2999 1.511 . S
C2997 C2993 1.376 . S
C2997 C2996 1.392 . S
C2997 H3009 0.929 . S
C2998 C2994 1.531 . S
C2998 H3010 0.960 . S
C2998 H3011 0.962 . S
C2998 H3012 0.960 . S
C2999 C2996 1.511 . S
C2999 H3013 0.961 1_554 S
C2999 H3014 0.961 . S
C2999 H3015 0.961 1_554 S
C3000 C3001 1.370 . S
C3000 C3002 1.363 . S
C3000 H3016 0.931 . S
C3001 C3000 1.370 . S
C3001 C3005 1.408 . S
C3002 C3000 1.363 . S
C3002 C3003 1.370 . S
C3002 C3006 1.524 . S
C3003 C2995 1.503 . S
C3003 C3002 1.370 . S
C3003 C3004 1.403 . S
C3004 C3003 1.403 . S
C3004 C3005 1.404 . S
C3004 C3007 1.539 . S
C3005 C3001 1.408 . S
C3005 C3004 1.404 . S
C3005 H3017 0.930 . S
C3006 C3002 1.524 . S
C3006 H3018 0.956 . S
C3006 H3019 0.961 . S
C3006 H3020 0.961 . S
C3007 C3004 1.539 . S
C3007 H3021 0.958 . S
C3007 H3022 0.961 1_554 S
C3007 H3023 0.960 . S
H3008 C2992 0.931 . S
H3009 C2997 0.929 . S
H3010 C2998 0.960 . S
H3011 C2998 0.962 . S
H3012 C2998 0.960 . S
H3013 C2999 0.961 1_556 S
H3014 C2999 0.961 . S
H3015 C2999 0.961 1_556 S
H3016 C3000 0.931 . S
H3017 C3005 0.930 . S
H3018 C3006 0.956 . S
H3019 C3006 0.961 . S
H3020 C3006 0.961 . S
H3021 C3007 0.958 . S
H3022 C3007 0.961 1_556 S
H3023 C3007 0.960 . S
C3024 C3025 1.391 . S
C3024 C3026 1.394 . S
C3024 H3040 0.931 . S
C3025 C3024 1.391 . S
C3025 C3029 1.376 . S
C3026 C3024 1.394 . S
C3026 C3027 1.369 . S
C3026 C3030 1.531 . S
C3027 C3026 1.369 . S
C3027 C3028 1.410 . S
C3027 C3035 1.503 . S
C3028 C3027 1.410 . S
C3028 C3029 1.392 . S
C3028 C3031 1.511 . S
C3029 C3025 1.376 . S
C3029 C3028 1.392 . S
C3029 H3041 0.929 . S
C3030 C3026 1.531 . S
C3030 H3042 0.960 . S
C3030 H3043 0.962 . S
C3030 H3044 0.960 . S
C3031 C3028 1.511 . S
C3031 H3045 0.961 . S
C3031 H3046 0.961 . S
C3031 H3047 0.961 . S
C3032 C3033 1.370 . S
C3032 C3034 1.363 . S
C3032 H3048 0.931 . S
C3033 C3032 1.370 . S
C3033 C3037 1.408 . S
C3034 C3032 1.363 . S
C3034 C3035 1.370 . S
C3034 C3038 1.524 . S
C3035 C3027 1.503 . S
C3035 C3034 1.370 . S
C3035 C3036 1.403 . S
C3036 C3035 1.403 . S
C3036 C3037 1.404 . S
C3036 C3039 1.539 . S
C3037 C3033 1.408 . S
C3037 C3036 1.404 . S
C3037 H3049 0.930 . S
C3038 C3034 1.524 . S
C3038 H3050 0.956 . S
C3038 H3051 0.961 . S
C3038 H3052 0.961 . S
C3039 C3036 1.539 . S
C3039 H3053 0.958 . S
C3039 H3054 0.961 . S
C3039 H3055 0.960 . S
H3040 C3024 0.931 . S
H3041 C3029 0.929 . S
H3042 C3030 0.960 . S
H3043 C3030 0.962 . S
H3044 C3030 0.960 . S
H3045 C3031 0.961 . S
H3046 C3031 0.961 . S
H3047 C3031 0.961 . S
H3048 C3032 0.931 . S
H3049 C3037 0.930 . S
H3050 C3038 0.956 . S
H3051 C3038 0.961 . S
H3052 C3038 0.961 . S
H3053 C3039 0.958 . S
H3054 C3039 0.961 . S
H3055 C3039 0.960 . S
C3056 C3057 1.391 . S
C3056 C3058 1.394 . S
C3056 H3072 0.931 . S
C3057 C3056 1.391 . S
C3057 C3061 1.376 . S
C3058 C3056 1.394 . S
C3058 C3059 1.369 . S
C3058 C3062 1.531 . S
C3059 C3058 1.369 . S
C3059 C3060 1.410 . S
C3059 C3067 1.503 . S
C3060 C3059 1.410 . S
C3060 C3061 1.392 . S
C3060 C3063 1.511 . S
C3061 C3057 1.376 . S
C3061 C3060 1.392 . S
C3061 H3073 0.929 . S
C3062 C3058 1.531 . S
C3062 H3074 0.960 . S
C3062 H3075 0.962 . S
C3062 H3076 0.960 . S
C3063 C3060 1.511 . S
C3063 H3077 0.961 . S
C3063 H3078 0.961 . S
C3063 H3079 0.961 . S
C3064 C3065 1.370 . S
C3064 C3066 1.363 . S
C3064 H3080 0.931 . S
C3065 C3064 1.370 . S
C3065 C3069 1.408 . S
C3066 C3064 1.363 . S
C3066 C3067 1.370 . S
C3066 C3070 1.524 . S
C3067 C3059 1.503 . S
C3067 C3066 1.370 . S
C3067 C3068 1.403 . S
C3068 C3067 1.403 . S
C3068 C3069 1.404 . S
C3068 C3071 1.539 . S
C3069 C3065 1.408 . S
C3069 C3068 1.404 . S
C3069 H3081 0.930 . S
C3070 C3066 1.524 . S
C3070 H3082 0.956 . S
C3070 H3083 0.961 . S
C3070 H3084 0.961 . S
C3071 C3068 1.539 . S
C3071 H3085 0.958 . S
C3071 H3086 0.961 . S
C3071 H3087 0.960 . S
H3072 C3056 0.931 . S
H3073 C3061 0.929 . S
H3074 C3062 0.960 . S
H3075 C3062 0.962 . S
H3076 C3062 0.960 . S
H3077 C3063 0.961 . S
H3078 C3063 0.961 . S
H3079 C3063 0.961 . S
H3080 C3064 0.931 . S
H3081 C3069 0.930 . S
H3082 C3070 0.956 . S
H3083 C3070 0.961 . S
H3084 C3070 0.961 . S
H3085 C3071 0.958 . S
H3086 C3071 0.961 . S
H3087 C3071 0.960 . S
C3088 C3089 1.391 . S
C3088 C3090 1.394 . S
C3088 H3104 0.931 . S
C3089 C3088 1.391 . S
C3089 C3093 1.376 1_565 S
C3090 C3088 1.394 . S
C3090 C3091 1.369 . S
C3090 C3094 1.531 . S
C3091 C3090 1.369 . S
C3091 C3092 1.410 . S
C3091 C3099 1.503 . S
C3092 C3091 1.410 . S
C3092 C3093 1.392 1_565 S
C3092 C3095 1.511 1_565 S
C3093 C3089 1.376 1_545 S
C3093 C3092 1.392 1_545 S
C3093 H3105 0.929 . S
C3094 C3090 1.531 . S
C3094 H3106 0.960 . S
C3094 H3107 0.962 . S
C3094 H3108 0.960 . S
C3095 C3092 1.511 1_545 S
C3095 H3109 0.961 . S
C3095 H3110 0.961 1_545 S
C3095 H3111 0.961 . S
C3096 C3097 1.370 . S
C3096 C3098 1.363 . S
C3096 H3112 0.931 . S
C3097 C3096 1.370 . S
C3097 C3101 1.408 . S
C3098 C3096 1.363 . S
C3098 C3099 1.370 . S
C3098 C3102 1.524 . S
C3099 C3091 1.503 . S
C3099 C3098 1.370 . S
C3099 C3100 1.403 . S
C3100 C3099 1.403 . S
C3100 C3101 1.404 . S
C3100 C3103 1.539 . S
C3101 C3097 1.408 . S
C3101 C3100 1.404 . S
C3101 H3113 0.930 . S
C3102 C3098 1.524 . S
C3102 H3114 0.956 . S
C3102 H3115 0.961 . S
C3102 H3116 0.961 . S
C3103 C3100 1.539 . S
C3103 H3117 0.958 . S
C3103 H3118 0.961 . S
C3103 H3119 0.960 . S
H3104 C3088 0.931 . S
H3105 C3093 0.929 . S
H3106 C3094 0.960 . S
H3107 C3094 0.962 . S
H3108 C3094 0.960 . S
H3109 C3095 0.961 . S
H3110 C3095 0.961 1_565 S
H3111 C3095 0.961 . S
H3112 C3096 0.931 . S
H3113 C3101 0.930 . S
H3114 C3102 0.956 . S
H3115 C3102 0.961 . S
H3116 C3102 0.961 . S
H3117 C3103 0.958 . S
H3118 C3103 0.961 . S
H3119 C3103 0.960 . S
C3120 C3121 1.391 . S
C3120 C3122 1.394 . S
C3120 H3136 0.931 . S
C3121 C3120 1.391 . S
C3121 C3125 1.376 . S
C3122 C3120 1.394 . S
C3122 C3123 1.369 . S
C3122 C3126 1.531 . S
C3123 C3122 1.369 . S
C3123 C3124 1.410 . S
C3123 C3131 1.503 . S
C3124 C3123 1.410 . S
C3124 C3125 1.392 . S
C3124 C3127 1.511 . S
C3125 C3121 1.376 . S
C3125 C3124 1.392 . S
C3125 H3137 0.929 . S
C3126 C3122 1.531 . S
C3126 H3138 0.960 . S
C3126 H3139 0.962 . S
C3126 H3140 0.960 . S
C3127 C3124 1.511 . S
C3127 H3141 0.961 . S
C3127 H3142 0.961 . S
C3127 H3143 0.961 . S
C3128 C3129 1.370 . S
C3128 C3130 1.363 . S
C3128 H3144 0.931 . S
C3129 C3128 1.370 . S
C3129 C3133 1.408 . S
C3130 C3128 1.363 . S
C3130 C3131 1.370 . S
C3130 C3134 1.524 . S
C3131 C3123 1.503 . S
C3131 C3130 1.370 . S
C3131 C3132 1.403 . S
C3132 C3131 1.403 . S
C3132 C3133 1.404 . S
C3132 C3135 1.539 . S
C3133 C3129 1.408 . S
C3133 C3132 1.404 . S
C3133 H3145 0.930 . S
C3134 C3130 1.524 . S
C3134 H3146 0.956 . S
C3134 H3147 0.961 . S
C3134 H3148 0.961 . S
C3135 C3132 1.539 . S
C3135 H3149 0.958 . S
C3135 H3150 0.961 . S
C3135 H3151 0.960 . S
H3136 C3120 0.931 . S
H3137 C3125 0.929 . S
H3138 C3126 0.960 . S
H3139 C3126 0.962 . S
H3140 C3126 0.960 . S
H3141 C3127 0.961 . S
H3142 C3127 0.961 . S
H3143 C3127 0.961 . S
H3144 C3128 0.931 . S
H3145 C3133 0.930 . S
H3146 C3134 0.956 . S
H3147 C3134 0.961 . S
H3148 C3134 0.961 . S
H3149 C3135 0.958 . S
H3150 C3135 0.961 . S
H3151 C3135 0.960 . S
C3152 C3153 1.391 . S
C3152 C3154 1.394 . S
C3152 H3168 0.931 . S
C3153 C3152 1.391 . S
C3153 C3157 1.376 . S
C3154 C3152 1.394 . S
C3154 C3155 1.369 . S
C3154 C3158 1.531 . S
C3155 C3154 1.369 . S
C3155 C3156 1.410 . S
C3155 C3163 1.503 . S
C3156 C3155 1.410 . S
C3156 C3157 1.392 . S
C3156 C3159 1.511 . S
C3157 C3153 1.376 . S
C3157 C3156 1.392 . S
C3157 H3169 0.929 . S
C3158 C3154 1.531 . S
C3158 H3170 0.960 . S
C3158 H3171 0.962 . S
C3158 H3172 0.960 . S
C3159 C3156 1.511 . S
C3159 H3173 0.961 . S
C3159 H3174 0.961 . S
C3159 H3175 0.961 . S
C3160 C3161 1.370 . S
C3160 C3162 1.363 . S
C3160 H3176 0.931 . S
C3161 C3160 1.370 . S
C3161 C3165 1.408 . S
C3162 C3160 1.363 . S
C3162 C3163 1.370 . S
C3162 C3166 1.524 . S
C3163 C3155 1.503 . S
C3163 C3162 1.370 . S
C3163 C3164 1.403 . S
C3164 C3163 1.403 . S
C3164 C3165 1.404 . S
C3164 C3167 1.539 . S
C3165 C3161 1.408 . S
C3165 C3164 1.404 . S
C3165 H3177 0.930 . S
C3166 C3162 1.524 . S
C3166 H3178 0.956 . S
C3166 H3179 0.961 . S
C3166 H3180 0.961 . S
C3167 C3164 1.539 . S
C3167 H3181 0.958 . S
C3167 H3182 0.961 . S
C3167 H3183 0.960 . S
H3168 C3152 0.931 . S
H3169 C3157 0.929 . S
H3170 C3158 0.960 . S
H3171 C3158 0.962 . S
H3172 C3158 0.960 . S
H3173 C3159 0.961 . S
H3174 C3159 0.961 . S
H3175 C3159 0.961 . S
H3176 C3160 0.931 . S
H3177 C3165 0.930 . S
H3178 C3166 0.956 . S
H3179 C3166 0.961 . S
H3180 C3166 0.961 . S
H3181 C3167 0.958 . S
H3182 C3167 0.961 . S
H3183 C3167 0.960 . S
C3184 C3185 1.391 . S
C3184 C3186 1.394 . S
C3184 H3200 0.931 . S
C3185 C3184 1.391 . S
C3185 C3189 1.376 . S
C3186 C3184 1.394 . S
C3186 C3187 1.369 . S
C3186 C3190 1.531 . S
C3187 C3186 1.369 . S
C3187 C3188 1.410 . S
C3187 C3195 1.503 . S
C3188 C3187 1.410 . S
C3188 C3189 1.392 . S
C3188 C3191 1.511 . S
C3189 C3185 1.376 . S
C3189 C3188 1.392 . S
C3189 H3201 0.929 . S
C3190 C3186 1.531 . S
C3190 H3202 0.960 . S
C3190 H3203 0.962 . S
C3190 H3204 0.960 . S
C3191 C3188 1.511 . S
C3191 H3205 0.961 . S
C3191 H3206 0.961 . S
C3191 H3207 0.961 . S
C3192 C3193 1.370 . S
C3192 C3194 1.363 . S
C3192 H3208 0.931 . S
C3193 C3192 1.370 . S
C3193 C3197 1.408 . S
C3194 C3192 1.363 . S
C3194 C3195 1.370 . S
C3194 C3198 1.524 . S
C3195 C3187 1.503 . S
C3195 C3194 1.370 . S
C3195 C3196 1.403 . S
C3196 C3195 1.403 . S
C3196 C3197 1.404 . S
C3196 C3199 1.539 . S
C3197 C3193 1.408 . S
C3197 C3196 1.404 . S
C3197 H3209 0.930 . S
C3198 C3194 1.524 . S
C3198 H3210 0.956 . S
C3198 H3211 0.961 . S
C3198 H3212 0.961 . S
C3199 C3196 1.539 . S
C3199 H3213 0.958 . S
C3199 H3214 0.961 . S
C3199 H3215 0.960 . S
H3200 C3184 0.931 . S
H3201 C3189 0.929 . S
H3202 C3190 0.960 . S
H3203 C3190 0.962 . S
H3204 C3190 0.960 . S
H3205 C3191 0.961 . S
H3206 C3191 0.961 . S
H3207 C3191 0.961 . S
H3208 C3192 0.931 . S
H3209 C3197 0.930 . S
H3210 C3198 0.956 . S
H3211 C3198 0.961 . S
H3212 C3198 0.961 . S
H3213 C3199 0.958 . S
H3214 C3199 0.961 . S
H3215 C3199 0.960 . S
C3216 C3217 1.391 . S
C3216 C3218 1.394 . S
C3216 H3232 0.931 . S
C3217 C3216 1.391 . S
C3217 C3221 1.376 . S
C3218 C3216 1.394 . S
C3218 C3219 1.369 . S
C3218 C3222 1.531 . S
C3219 C3218 1.369 . S
C3219 C3220 1.410 . S
C3219 C3227 1.503 . S
C3220 C3219 1.410 . S
C3220 C3221 1.392 . S
C3220 C3223 1.511 . S
C3221 C3217 1.376 . S
C3221 C3220 1.392 . S
C3221 H3233 0.929 . S
C3222 C3218 1.531 . S
C3222 H3234 0.960 . S
C3222 H3235 0.962 . S
C3222 H3236 0.960 . S
C3223 C3220 1.511 . S
C3223 H3237 0.961 . S
C3223 H3238 0.961 . S
C3223 H3239 0.961 . S
C3224 C3225 1.370 . S
C3224 C3226 1.363 . S
C3224 H3240 0.931 . S
C3225 C3224 1.370 . S
C3225 C3229 1.408 . S
C3226 C3224 1.363 . S
C3226 C3227 1.370 . S
C3226 C3230 1.524 . S
C3227 C3219 1.503 . S
C3227 C3226 1.370 . S
C3227 C3228 1.403 . S
C3228 C3227 1.403 . S
C3228 C3229 1.404 . S
C3228 C3231 1.539 . S
C3229 C3225 1.408 . S
C3229 C3228 1.404 . S
C3229 H3241 0.930 . S
C3230 C3226 1.524 . S
C3230 H3242 0.956 . S
C3230 H3243 0.961 . S
C3230 H3244 0.961 . S
C3231 C3228 1.539 . S
C3231 H3245 0.958 . S
C3231 H3246 0.961 . S
C3231 H3247 0.960 . S
H3232 C3216 0.931 . S
H3233 C3221 0.929 . S
H3234 C3222 0.960 . S
H3235 C3222 0.962 . S
H3236 C3222 0.960 . S
H3237 C3223 0.961 . S
H3238 C3223 0.961 . S
H3239 C3223 0.961 . S
H3240 C3224 0.931 . S
H3241 C3229 0.930 . S
H3242 C3230 0.956 . S
H3243 C3230 0.961 . S
H3244 C3230 0.961 . S
H3245 C3231 0.958 . S
H3246 C3231 0.961 . S
H3247 C3231 0.960 . S
C3248 C3249 1.391 . S
C3248 C3250 1.394 . S
C3248 H3264 0.931 . S
C3249 C3248 1.391 . S
C3249 C3253 1.376 . S
C3250 C3248 1.394 . S
C3250 C3251 1.369 . S
C3250 C3254 1.531 . S
C3251 C3250 1.369 . S
C3251 C3252 1.410 . S
C3251 C3259 1.503 . S
C3252 C3251 1.410 . S
C3252 C3253 1.392 . S
C3252 C3255 1.511 . S
C3253 C3249 1.376 . S
C3253 C3252 1.392 . S
C3253 H3265 0.929 . S
C3254 C3250 1.531 . S
C3254 H3266 0.960 . S
C3254 H3267 0.962 . S
C3254 H3268 0.960 . S
C3255 C3252 1.511 . S
C3255 H3269 0.961 . S
C3255 H3270 0.961 . S
C3255 H3271 0.961 . S
C3256 C3257 1.370 . S
C3256 C3258 1.363 . S
C3256 H3272 0.931 . S
C3257 C3256 1.370 . S
C3257 C3261 1.408 . S
C3258 C3256 1.363 . S
C3258 C3259 1.370 . S
C3258 C3262 1.524 . S
C3259 C3251 1.503 . S
C3259 C3258 1.370 . S
C3259 C3260 1.403 . S
C3260 C3259 1.403 . S
C3260 C3261 1.404 . S
C3260 C3263 1.539 . S
C3261 C3257 1.408 . S
C3261 C3260 1.404 . S
C3261 H3273 0.930 . S
C3262 C3258 1.524 . S
C3262 H3274 0.956 . S
C3262 H3275 0.961 . S
C3262 H3276 0.961 . S
C3263 C3260 1.539 . S
C3263 H3277 0.958 . S
C3263 H3278 0.961 . S
C3263 H3279 0.960 . S
H3264 C3248 0.931 . S
H3265 C3253 0.929 . S
H3266 C3254 0.960 . S
H3267 C3254 0.962 . S
H3268 C3254 0.960 . S
H3269 C3255 0.961 . S
H3270 C3255 0.961 . S
H3271 C3255 0.961 . S
H3272 C3256 0.931 . S
H3273 C3261 0.930 . S
H3274 C3262 0.956 . S
H3275 C3262 0.961 . S
H3276 C3262 0.961 . S
H3277 C3263 0.958 . S
H3278 C3263 0.961 . S
H3279 C3263 0.960 . S
C3280 C3281 1.391 . S
C3280 C3282 1.394 1_556 S
C3280 H3296 0.931 1_556 S
C3281 C3280 1.391 . S
C3281 C3285 1.376 . S
C3282 C3280 1.394 1_554 S
C3282 C3283 1.369 1_554 S
C3282 C3286 1.531 . S
C3283 C3282 1.369 1_556 S
C3283 C3284 1.410 . S
C3283 C3291 1.503 . S
C3284 C3283 1.410 . S
C3284 C3285 1.392 . S
C3284 C3287 1.511 . S
C3285 C3281 1.376 . S
C3285 C3284 1.392 . S
C3285 H3297 0.929 . S
C3286 C3282 1.531 . S
C3286 H3298 0.960 . S
C3286 H3299 0.962 . S
C3286 H3300 0.960 . S
C3287 C3284 1.511 . S
C3287 H3301 0.961 . S
C3287 H3302 0.961 . S
C3287 H3303 0.961 . S
C3288 C3289 1.370 1_556 S
C3288 C3290 1.363 . S
C3288 H3304 0.931 . S
C3289 C3288 1.370 1_554 S
C3289 C3293 1.408 . S
C3290 C3288 1.363 . S
C3290 C3291 1.370 . S
C3290 C3294 1.524 . S
C3291 C3283 1.503 . S
C3291 C3290 1.370 . S
C3291 C3292 1.403 1_556 S
C3292 C3291 1.403 1_554 S
C3292 C3293 1.404 . S
C3292 C3295 1.539 . S
C3293 C3289 1.408 . S
C3293 C3292 1.404 . S
C3293 H3305 0.930 . S
C3294 C3290 1.524 . S
C3294 H3306 0.956 1_455 S
C3294 H3307 0.961 . S
C3294 H3308 0.960 . S
C3295 C3292 1.539 . S
C3295 H3309 0.958 . S
C3295 H3310 0.961 . S
C3295 H3311 0.960 . S
H3296 C3280 0.931 1_554 S
H3297 C3285 0.929 . S
H3298 C3286 0.960 . S
H3299 C3286 0.962 . S
H3300 C3286 0.960 . S
H3301 C3287 0.961 . S
H3302 C3287 0.961 . S
H3303 C3287 0.961 . S
H3304 C3288 0.931 . S
H3305 C3293 0.930 . S
H3306 C3294 0.956 1_655 S
H3307 C3294 0.961 . S
H3308 C3294 0.960 . S
H3309 C3295 0.958 . S
H3310 C3295 0.961 . S
H3311 C3295 0.960 . S
C3312 C3313 1.391 . S
C3312 C3314 1.394 . S
C3312 H3328 0.931 . S
C3313 C3312 1.391 . S
C3313 C3317 1.376 . S
C3314 C3312 1.394 . S
C3314 C3315 1.369 1_455 S
C3314 C3318 1.531 . S
C3315 C3314 1.369 1_655 S
C3315 C3316 1.410 . S
C3315 C3323 1.503 . S
C3316 C3315 1.410 . S
C3316 C3317 1.392 1_655 S
C3316 C3319 1.511 . S
C3317 C3313 1.376 . S
C3317 C3316 1.392 1_455 S
C3317 H3329 0.929 . S
C3318 C3314 1.531 . S
C3318 H3330 0.960 . S
C3318 H3331 0.962 . S
C3318 H3332 0.960 . S
C3319 C3316 1.511 . S
C3319 H3333 0.961 . S
C3319 H3334 0.961 . S
C3319 H3335 0.961 . S
C3320 C3321 1.370 . S
C3320 C3322 1.363 . S
C3320 H3336 0.931 . S
C3321 C3320 1.370 . S
C3321 C3325 1.408 . S
C3322 C3320 1.363 . S
C3322 C3323 1.370 . S
C3322 C3326 1.524 . S
C3323 C3315 1.503 . S
C3323 C3322 1.370 . S
C3323 C3324 1.403 . S
C3324 C3323 1.403 . S
C3324 C3325 1.404 . S
C3324 C3327 1.539 . S
C3325 C3321 1.408 . S
C3325 C3324 1.404 . S
C3325 H3337 0.930 . S
C3326 C3322 1.524 . S
C3326 H3338 0.956 . S
C3326 H3339 0.961 . S
C3326 H3340 0.961 . S
C3327 C3324 1.539 . S
C3327 H3341 0.958 . S
C3327 H3342 0.961 . S
C3327 H3343 0.960 . S
H3328 C3312 0.931 . S
H3329 C3317 0.929 . S
H3330 C3318 0.960 . S
H3331 C3318 0.962 . S
H3332 C3318 0.960 . S
H3333 C3319 0.961 . S
H3334 C3319 0.961 . S
H3335 C3319 0.961 . S
H3336 C3320 0.931 . S
H3337 C3325 0.930 . S
H3338 C3326 0.956 . S
H3339 C3326 0.961 . S
H3340 C3326 0.961 . S
H3341 C3327 0.958 . S
H3342 C3327 0.961 . S
H3343 C3327 0.960 . S
C3344 C3345 1.391 . S
C3344 C3346 1.394 . S
C3344 H3360 0.931 . S
C3345 C3344 1.391 . S
C3345 C3349 1.376 . S
C3346 C3344 1.394 . S
C3346 C3347 1.369 . S
C3346 C3350 1.531 . S
C3347 C3346 1.369 . S
C3347 C3348 1.410 . S
C3347 C3355 1.503 . S
C3348 C3347 1.410 . S
C3348 C3349 1.392 . S
C3348 C3351 1.511 . S
C3349 C3345 1.376 . S
C3349 C3348 1.392 . S
C3349 H3361 0.929 . S
C3350 C3346 1.531 . S
C3350 H3362 0.960 . S
C3350 H3363 0.962 . S
C3350 H3364 0.960 . S
C3351 C3348 1.511 . S
C3351 H3365 0.961 . S
C3351 H3366 0.961 . S
C3351 H3367 0.961 . S
C3352 C3353 1.370 . S
C3352 C3354 1.363 . S
C3352 H3368 0.931 . S
C3353 C3352 1.370 . S
C3353 C3357 1.408 . S
C3354 C3352 1.363 . S
C3354 C3355 1.370 . S
C3354 C3358 1.524 . S
C3355 C3347 1.503 . S
C3355 C3354 1.370 . S
C3355 C3356 1.403 . S
C3356 C3355 1.403 . S
C3356 C3357 1.404 . S
C3356 C3359 1.539 . S
C3357 C3353 1.408 . S
C3357 C3356 1.404 . S
C3357 H3369 0.930 . S
C3358 C3354 1.524 . S
C3358 H3370 0.956 . S
C3358 H3371 0.961 . S
C3358 H3372 0.961 . S
C3359 C3356 1.539 . S
C3359 H3373 0.958 . S
C3359 H3374 0.961 . S
C3359 H3375 0.960 . S
H3360 C3344 0.931 . S
H3361 C3349 0.929 . S
H3362 C3350 0.960 . S
H3363 C3350 0.962 . S
H3364 C3350 0.960 . S
H3365 C3351 0.961 . S
H3366 C3351 0.961 . S
H3367 C3351 0.961 . S
H3368 C3352 0.931 . S
H3369 C3357 0.930 . S
H3370 C3358 0.956 . S
H3371 C3358 0.961 . S
H3372 C3358 0.961 . S
H3373 C3359 0.958 . S
H3374 C3359 0.961 . S
H3375 C3359 0.960 . S
C3376 C3377 1.391 . S
C3376 C3378 1.394 . S
C3376 H3392 0.931 . S
C3377 C3376 1.391 . S
C3377 C3381 1.376 . S
C3378 C3376 1.394 . S
C3378 C3379 1.369 . S
C3378 C3382 1.532 . S
C3379 C3378 1.369 . S
C3379 C3380 1.410 . S
C3379 C3387 1.503 1_455 S
C3380 C3379 1.410 . S
C3380 C3381 1.392 . S
C3380 C3383 1.511 . S
C3381 C3377 1.376 . S
C3381 C3380 1.392 . S
C3381 H3393 0.929 . S
C3382 C3378 1.532 . S
C3382 H3394 0.959 1_455 S
C3382 H3395 0.961 1_455 S
C3382 H3396 0.961 . S
C3383 C3380 1.511 . S
C3383 H3397 0.961 . S
C3383 H3398 0.961 . S
C3383 H3399 0.961 . S
C3384 C3385 1.370 . S
C3384 C3386 1.363 . S
C3384 H3400 0.931 . S
C3385 C3384 1.370 . S
C3385 C3389 1.408 . S
C3386 C3384 1.363 . S
C3386 C3387 1.370 . S
C3386 C3390 1.524 . S
C3387 C3379 1.503 1_655 S
C3387 C3386 1.370 . S
C3387 C3388 1.403 . S
C3388 C3387 1.403 . S
C3388 C3389 1.404 . S
C3388 C3391 1.561 . S
C3389 C3385 1.408 . S
C3389 C3388 1.404 . S
C3389 H3401 0.930 . S
C3390 C3386 1.524 . S
C3390 H3402 0.956 . S
C3390 H3403 0.961 . S
C3390 H3404 0.961 . S
C3391 C3388 1.561 . S
C3391 H3405 0.970 . S
C3391 H3406 0.980 . S
C3391 H3407 0.910 1_655 S
H3392 C3376 0.931 . S
H3393 C3381 0.929 . S
H3394 C3382 0.959 1_655 S
H3395 C3382 0.961 1_655 S
H3396 C3382 0.961 . S
H3397 C3383 0.961 . S
H3398 C3383 0.961 . S
H3399 C3383 0.961 . S
H3400 C3384 0.931 . S
H3401 C3389 0.930 . S
H3402 C3390 0.956 . S
H3403 C3390 0.961 . S
H3404 C3390 0.961 . S
H3405 C3391 0.970 . S
H3406 C3391 0.980 . S
H3407 C3391 0.910 1_455 S
C3408 C3409 1.391 1_455 S
C3408 C3410 1.394 . S
C3408 H3424 0.931 . S
C3409 C3408 1.391 1_655 S
C3409 C3413 1.376 . S
C3410 C3408 1.394 . S
C3410 C3411 1.369 . S
C3410 C3414 1.531 . S
C3411 C3410 1.369 . S
C3411 C3412 1.410 1_455 S
C3411 C3419 1.503 . S
C3412 C3411 1.410 1_655 S
C3412 C3413 1.392 . S
C3412 C3415 1.511 . S
C3413 C3409 1.376 . S
C3413 C3412 1.392 . S
C3413 H3425 0.929 . S
C3414 C3410 1.531 . S
C3414 H3426 0.960 . S
C3414 H3427 0.962 . S
C3414 H3428 0.960 . S
C3415 C3412 1.511 . S
C3415 H3429 0.961 . S
C3415 H3430 0.961 . S
C3415 H3431 0.961 . S
C3416 C3417 1.370 . S
C3416 C3418 1.363 . S
C3416 H3432 0.931 . S
C3417 C3416 1.370 . S
C3417 C3421 1.408 . S
C3418 C3416 1.363 . S
C3418 C3419 1.370 . S
C3418 C3422 1.524 . S
C3419 C3411 1.503 . S
C3419 C3418 1.370 . S
C3419 C3420 1.403 . S
C3420 C3419 1.403 . S
C3420 C3421 1.404 . S
C3420 C3423 1.539 1_455 S
C3421 C3417 1.408 . S
C3421 C3420 1.404 . S
C3421 H3433 0.930 . S
C3422 C3418 1.524 . S
C3422 H3434 0.956 . S
C3422 H3435 0.961 . S
C3422 H3436 0.961 . S
C3423 C3420 1.539 1_655 S
C3423 H3437 0.958 1_655 S
C3423 H3438 0.961 . S
C3423 H3439 0.960 . S
H3424 C3408 0.931 . S
H3425 C3413 0.929 . S
H3426 C3414 0.960 . S
H3427 C3414 0.962 . S
H3428 C3414 0.960 . S
H3429 C3415 0.961 . S
H3430 C3415 0.961 . S
H3431 C3415 0.961 . S
H3432 C3416 0.931 . S
H3433 C3421 0.930 . S
H3434 C3422 0.956 . S
H3435 C3422 0.961 . S
H3436 C3422 0.961 . S
H3437 C3423 0.958 1_455 S
H3438 C3423 0.961 . S
H3439 C3423 0.960 . S
C3440 C3441 1.391 . S
C3440 C3442 1.394 . S
C3440 H3456 0.931 . S
C3441 C3440 1.391 . S
C3441 C3445 1.376 . S
C3442 C3440 1.394 . S
C3442 C3443 1.369 . S
C3442 C3446 1.531 . S
C3443 C3442 1.369 . S
C3443 C3444 1.410 . S
C3443 C3451 1.503 . S
C3444 C3443 1.410 . S
C3444 C3445 1.392 . S
C3444 C3447 1.511 . S
C3445 C3441 1.376 . S
C3445 C3444 1.392 . S
C3445 H3457 0.929 . S
C3446 C3442 1.531 . S
C3446 H3458 0.960 . S
C3446 H3459 0.962 . S
C3446 H3460 0.960 . S
C3447 C3444 1.511 . S
C3447 H3461 0.961 . S
C3447 H3462 0.961 . S
C3447 H3463 0.961 . S
C3448 C3449 1.370 . S
C3448 C3450 1.363 . S
C3448 H3464 0.931 . S
C3449 C3448 1.370 . S
C3449 C3453 1.408 . S
C3450 C3448 1.363 . S
C3450 C3451 1.370 . S
C3450 C3454 1.524 . S
C3451 C3443 1.503 . S
C3451 C3450 1.370 . S
C3451 C3452 1.403 . S
C3452 C3451 1.403 . S
C3452 C3453 1.404 . S
C3452 C3455 1.539 . S
C3453 C3449 1.408 . S
C3453 C3452 1.404 . S
C3453 H3465 0.930 . S
C3454 C3450 1.524 . S
C3454 H3466 0.956 . S
C3454 H3467 0.961 . S
C3454 H3468 0.961 . S
C3455 C3452 1.539 . S
C3455 H3469 0.958 . S
C3455 H3470 0.961 . S
C3455 H3471 0.960 . S
H3456 C3440 0.931 . S
H3457 C3445 0.929 . S
H3458 C3446 0.960 . S
H3459 C3446 0.962 . S
H3460 C3446 0.960 . S
H3461 C3447 0.961 . S
H3462 C3447 0.961 . S
H3463 C3447 0.961 . S
H3464 C3448 0.931 . S
H3465 C3453 0.930 . S
H3466 C3454 0.956 . S
H3467 C3454 0.961 . S
H3468 C3454 0.961 . S
H3469 C3455 0.958 . S
H3470 C3455 0.961 . S
H3471 C3455 0.960 . S
C3472 C3473 1.391 . S
C3472 C3474 1.394 . S
C3472 H3488 0.931 . S
C3473 C3472 1.391 . S
C3473 C3477 1.376 . S
C3474 C3472 1.394 . S
C3474 C3475 1.369 . S
C3474 C3478 1.531 . S
C3475 C3474 1.369 . S
C3475 C3476 1.410 . S
C3475 C3483 1.503 . S
C3476 C3475 1.410 . S
C3476 C3477 1.392 . S
C3476 C3479 1.511 . S
C3477 C3473 1.376 . S
C3477 C3476 1.392 . S
C3477 H3489 0.929 . S
C3478 C3474 1.531 . S
C3478 H3490 0.960 . S
C3478 H3491 0.962 . S
C3478 H3492 0.960 . S
C3479 C3476 1.511 . S
C3479 H3493 0.961 . S
C3479 H3494 0.961 . S
C3479 H3495 0.961 . S
C3480 C3481 1.370 . S
C3480 C3482 1.363 . S
C3480 H3496 0.931 . S
C3481 C3480 1.370 . S
C3481 C3485 1.408 . S
C3482 C3480 1.363 . S
C3482 C3483 1.370 . S
C3482 C3486 1.524 . S
C3483 C3475 1.503 . S
C3483 C3482 1.370 . S
C3483 C3484 1.403 . S
C3484 C3483 1.403 . S
C3484 C3485 1.404 . S
C3484 C3487 1.539 . S
C3485 C3481 1.408 . S
C3485 C3484 1.404 . S
C3485 H3497 0.930 . S
C3486 C3482 1.524 . S
C3486 H3498 0.956 . S
C3486 H3499 0.961 . S
C3486 H3500 0.961 . S
C3487 C3484 1.539 . S
C3487 H3501 0.958 . S
C3487 H3502 0.961 . S
C3487 H3503 0.960 . S
H3488 C3472 0.931 . S
H3489 C3477 0.929 . S
H3490 C3478 0.960 . S
H3491 C3478 0.962 . S
H3492 C3478 0.960 . S
H3493 C3479 0.961 . S
H3494 C3479 0.961 . S
H3495 C3479 0.961 . S
H3496 C3480 0.931 . S
H3497 C3485 0.930 . S
H3498 C3486 0.956 . S
H3499 C3486 0.961 . S
H3500 C3486 0.961 . S
H3501 C3487 0.958 . S
H3502 C3487 0.961 . S
H3503 C3487 0.960 . S
C3504 C3505 1.391 . S
C3504 C3506 1.394 . S
C3504 H3520 0.931 . S
C3505 C3504 1.391 . S
C3505 C3509 1.376 . S
C3506 C3504 1.394 . S
C3506 C3507 1.369 . S
C3506 C3510 1.531 . S
C3507 C3506 1.369 . S
C3507 C3508 1.410 . S
C3507 C3515 1.503 . S
C3508 C3507 1.410 . S
C3508 C3509 1.392 . S
C3508 C3511 1.511 . S
C3509 C3505 1.376 . S
C3509 C3508 1.392 . S
C3509 H3521 0.929 1_556 S
C3510 C3506 1.531 . S
C3510 H3522 0.960 . S
C3510 H3523 0.962 . S
C3510 H3524 0.960 . S
C3511 C3508 1.511 . S
C3511 H3525 0.961 . S
C3511 H3526 0.961 . S
C3511 H3527 0.961 . S
C3512 C3513 1.370 . S
C3512 C3514 1.363 . S
C3512 H3528 0.931 . S
C3513 C3512 1.370 . S
C3513 C3517 1.408 . S
C3514 C3512 1.363 . S
C3514 C3515 1.370 . S
C3514 C3518 1.524 . S
C3515 C3507 1.503 . S
C3515 C3514 1.370 . S
C3515 C3516 1.403 . S
C3516 C3515 1.403 . S
C3516 C3517 1.404 . S
C3516 C3519 1.539 . S
C3517 C3513 1.408 . S
C3517 C3516 1.404 . S
C3517 H3529 0.930 . S
C3518 C3514 1.524 . S
C3518 H3530 0.956 . S
C3518 H3531 0.961 . S
C3518 H3532 0.961 . S
C3519 C3516 1.539 . S
C3519 H3533 0.958 . S
C3519 H3534 0.961 . S
C3519 H3535 0.960 . S
H3520 C3504 0.931 . S
H3521 C3509 0.929 1_554 S
H3522 C3510 0.960 . S
H3523 C3510 0.962 . S
H3524 C3510 0.960 . S
H3525 C3511 0.961 . S
H3526 C3511 0.961 . S
H3527 C3511 0.961 . S
H3528 C3512 0.931 . S
H3529 C3517 0.930 . S
H3530 C3518 0.956 . S
H3531 C3518 0.961 . S
H3532 C3518 0.961 . S
H3533 C3519 0.958 . S
H3534 C3519 0.961 . S
H3535 C3519 0.960 . S
C3536 C3537 1.391 . S
C3536 C3538 1.394 . S
C3536 H3552 0.931 . S
C3537 C3536 1.391 . S
C3537 C3541 1.376 . S
C3538 C3536 1.394 . S
C3538 C3539 1.369 . S
C3538 C3542 1.531 . S
C3539 C3538 1.369 . S
C3539 C3540 1.410 . S
C3539 C3547 1.503 . S
C3540 C3539 1.410 . S
C3540 C3541 1.392 . S
C3540 C3543 1.511 . S
C3541 C3537 1.376 . S
C3541 C3540 1.392 . S
C3541 H3553 0.929 . S
C3542 C3538 1.531 . S
C3542 H3554 0.960 . S
C3542 H3555 0.962 . S
C3542 H3556 0.960 . S
C3543 C3540 1.511 . S
C3543 H3557 0.961 . S
C3543 H3558 0.961 . S
C3543 H3559 0.961 . S
C3544 C3545 1.370 . S
C3544 C3546 1.363 . S
C3544 H3560 0.931 . S
C3545 C3544 1.370 . S
C3545 C3549 1.408 . S
C3546 C3544 1.363 . S
C3546 C3547 1.370 . S
C3546 C3550 1.524 . S
C3547 C3539 1.503 . S
C3547 C3546 1.370 . S
C3547 C3548 1.403 . S
C3548 C3547 1.403 . S
C3548 C3549 1.404 . S
C3548 C3551 1.539 . S
C3549 C3545 1.408 . S
C3549 C3548 1.404 . S
C3549 H3561 0.930 . S
C3550 C3546 1.524 . S
C3550 H3562 0.956 . S
C3550 H3563 0.961 . S
C3550 H3564 0.961 . S
C3551 C3548 1.539 . S
C3551 H3565 0.958 . S
C3551 H3566 0.961 . S
C3551 H3567 0.960 . S
H3552 C3536 0.931 . S
H3553 C3541 0.929 . S
H3554 C3542 0.960 . S
H3555 C3542 0.962 . S
H3556 C3542 0.960 . S
H3557 C3543 0.961 . S
H3558 C3543 0.961 . S
H3559 C3543 0.961 . S
H3560 C3544 0.931 . S
H3561 C3549 0.930 . S
H3562 C3550 0.956 . S
H3563 C3550 0.961 . S
H3564 C3550 0.961 . S
H3565 C3551 0.958 . S
H3566 C3551 0.961 . S
H3567 C3551 0.960 . S
C3568 C3569 1.391 . S
C3568 C3570 1.394 . S
C3568 H3584 0.931 . S
C3569 C3568 1.391 . S
C3569 C3573 1.376 . S
C3570 C3568 1.394 . S
C3570 C3571 1.369 . S
C3570 C3574 1.531 . S
C3571 C3570 1.369 . S
C3571 C3572 1.410 . S
C3571 C3579 1.503 . S
C3572 C3571 1.410 . S
C3572 C3573 1.392 . S
C3572 C3575 1.511 . S
C3573 C3569 1.376 . S
C3573 C3572 1.392 . S
C3573 H3585 0.929 . S
C3574 C3570 1.531 . S
C3574 H3586 0.960 . S
C3574 H3587 0.962 . S
C3574 H3588 0.960 . S
C3575 C3572 1.511 . S
C3575 H3589 0.961 . S
C3575 H3590 0.961 . S
C3575 H3591 0.961 . S
C3576 C3577 1.370 . S
C3576 C3578 1.363 . S
C3576 H3592 0.931 . S
C3577 C3576 1.370 . S
C3577 C3581 1.408 . S
C3578 C3576 1.363 . S
C3578 C3579 1.370 . S
C3578 C3582 1.524 . S
C3579 C3571 1.503 . S
C3579 C3578 1.370 . S
C3579 C3580 1.403 . S
C3580 C3579 1.403 . S
C3580 C3581 1.404 . S
C3580 C3583 1.539 . S
C3581 C3577 1.408 . S
C3581 C3580 1.404 . S
C3581 H3593 0.930 . S
C3582 C3578 1.524 . S
C3582 H3594 0.956 . S
C3582 H3595 0.961 . S
C3582 H3596 0.961 . S
C3583 C3580 1.539 . S
C3583 H3597 0.958 . S
C3583 H3598 0.961 . S
C3583 H3599 0.960 . S
H3584 C3568 0.931 . S
H3585 C3573 0.929 . S
H3586 C3574 0.960 . S
H3587 C3574 0.962 . S
H3588 C3574 0.960 . S
H3589 C3575 0.961 . S
H3590 C3575 0.961 . S
H3591 C3575 0.961 . S
H3592 C3576 0.931 . S
H3593 C3581 0.930 . S
H3594 C3582 0.956 . S
H3595 C3582 0.961 . S
H3596 C3582 0.961 . S
H3597 C3583 0.958 . S
H3598 C3583 0.961 . S
H3599 C3583 0.960 . S
C3600 C3601 1.391 . S
C3600 C3602 1.394 . S
C3600 H3616 0.931 . S
C3601 C3600 1.391 . S
C3601 C3605 1.376 . S
C3602 C3600 1.394 . S
C3602 C3603 1.369 . S
C3602 C3606 1.531 . S
C3603 C3602 1.369 . S
C3603 C3604 1.410 . S
C3603 C3611 1.503 . S
C3604 C3603 1.410 . S
C3604 C3605 1.392 . S
C3604 C3607 1.511 . S
C3605 C3601 1.376 . S
C3605 C3604 1.392 . S
C3605 H3617 0.929 . S
C3606 C3602 1.531 . S
C3606 H3618 0.960 . S
C3606 H3619 0.962 . S
C3606 H3620 0.960 . S
C3607 C3604 1.511 . S
C3607 H3621 0.961 . S
C3607 H3622 0.961 . S
C3607 H3623 0.961 . S
C3608 C3609 1.370 . S
C3608 C3610 1.363 . S
C3608 H3624 0.931 . S
C3609 C3608 1.370 . S
C3609 C3613 1.408 . S
C3610 C3608 1.363 . S
C3610 C3611 1.370 . S
C3610 C3614 1.524 . S
C3611 C3603 1.503 . S
C3611 C3610 1.370 . S
C3611 C3612 1.403 . S
C3612 C3611 1.403 . S
C3612 C3613 1.404 . S
C3612 C3615 1.539 . S
C3613 C3609 1.408 . S
C3613 C3612 1.404 . S
C3613 H3625 0.930 . S
C3614 C3610 1.524 . S
C3614 H3626 0.956 . S
C3614 H3627 0.961 . S
C3614 H3628 0.961 . S
C3615 C3612 1.539 . S
C3615 H3629 0.958 . S
C3615 H3630 0.961 . S
C3615 H3631 0.960 . S
H3616 C3600 0.931 . S
H3617 C3605 0.929 . S
H3618 C3606 0.960 . S
H3619 C3606 0.962 . S
H3620 C3606 0.960 . S
H3621 C3607 0.961 . S
H3622 C3607 0.961 . S
H3623 C3607 0.961 . S
H3624 C3608 0.931 . S
H3625 C3613 0.930 . S
H3626 C3614 0.956 . S
H3627 C3614 0.961 . S
H3628 C3614 0.961 . S
H3629 C3615 0.958 . S
H3630 C3615 0.961 . S
H3631 C3615 0.960 . S
C3632 C3633 1.391 . S
C3632 C3634 1.394 . S
C3632 H3648 0.931 . S
C3633 C3632 1.391 . S
C3633 C3637 1.376 . S
C3634 C3632 1.394 . S
C3634 C3635 1.369 . S
C3634 C3638 1.531 . S
C3635 C3634 1.369 . S
C3635 C3636 1.410 . S
C3635 C3643 1.503 . S
C3636 C3635 1.410 . S
C3636 C3637 1.392 . S
C3636 C3639 1.511 . S
C3637 C3633 1.376 . S
C3637 C3636 1.392 . S
C3637 H3649 0.929 . S
C3638 C3634 1.531 . S
C3638 H3650 0.960 . S
C3638 H3651 0.962 . S
C3638 H3652 0.960 . S
C3639 C3636 1.511 . S
C3639 H3653 0.961 . S
C3639 H3654 0.961 . S
C3639 H3655 0.961 . S
C3640 C3641 1.370 . S
C3640 C3642 1.363 . S
C3640 H3656 0.931 . S
C3641 C3640 1.370 . S
C3641 C3645 1.408 . S
C3642 C3640 1.363 . S
C3642 C3643 1.370 . S
C3642 C3646 1.524 . S
C3643 C3635 1.503 . S
C3643 C3642 1.370 . S
C3643 C3644 1.403 . S
C3644 C3643 1.403 . S
C3644 C3645 1.404 . S
C3644 C3647 1.539 . S
C3645 C3641 1.408 . S
C3645 C3644 1.404 . S
C3645 H3657 0.930 . S
C3646 C3642 1.524 . S
C3646 H3658 0.956 . S
C3646 H3659 0.961 . S
C3646 H3660 0.961 . S
C3647 C3644 1.539 . S
C3647 H3661 0.958 . S
C3647 H3662 0.961 . S
C3647 H3663 0.960 . S
H3648 C3632 0.931 . S
H3649 C3637 0.929 . S
H3650 C3638 0.960 . S
H3651 C3638 0.962 . S
H3652 C3638 0.960 . S
H3653 C3639 0.961 . S
H3654 C3639 0.961 . S
H3655 C3639 0.961 . S
H3656 C3640 0.931 . S
H3657 C3645 0.930 . S
H3658 C3646 0.956 . S
H3659 C3646 0.961 . S
H3660 C3646 0.961 . S
H3661 C3647 0.958 . S
H3662 C3647 0.961 . S
H3663 C3647 0.960 . S
C3664 C3665 1.391 . S
C3664 C3666 1.394 . S
C3664 H3680 0.931 . S
C3665 C3664 1.391 . S
C3665 C3669 1.376 . S
C3666 C3664 1.394 . S
C3666 C3667 1.369 . S
C3666 C3670 1.531 . S
C3667 C3666 1.369 . S
C3667 C3668 1.410 . S
C3667 C3675 1.503 . S
C3668 C3667 1.410 . S
C3668 C3669 1.392 . S
C3668 C3671 1.511 . S
C3669 C3665 1.376 . S
C3669 C3668 1.392 . S
C3669 H3681 0.929 . S
C3670 C3666 1.531 . S
C3670 H3682 0.960 . S
C3670 H3683 0.962 . S
C3670 H3684 0.960 . S
C3671 C3668 1.511 . S
C3671 H3685 0.961 . S
C3671 H3686 0.961 . S
C3671 H3687 0.961 . S
C3672 C3673 1.370 . S
C3672 C3674 1.363 . S
C3672 H3688 0.931 . S
C3673 C3672 1.370 . S
C3673 C3677 1.408 . S
C3674 C3672 1.363 . S
C3674 C3675 1.370 . S
C3674 C3678 1.524 . S
C3675 C3667 1.503 . S
C3675 C3674 1.370 . S
C3675 C3676 1.403 . S
C3676 C3675 1.403 . S
C3676 C3677 1.404 . S
C3676 C3679 1.539 . S
C3677 C3673 1.408 . S
C3677 C3676 1.404 . S
C3677 H3689 0.930 . S
C3678 C3674 1.524 . S
C3678 H3690 0.956 . S
C3678 H3691 0.961 . S
C3678 H3692 0.961 . S
C3679 C3676 1.539 . S
C3679 H3693 0.958 . S
C3679 H3694 0.961 . S
C3679 H3695 0.960 . S
H3680 C3664 0.931 . S
H3681 C3669 0.929 . S
H3682 C3670 0.960 . S
H3683 C3670 0.962 . S
H3684 C3670 0.960 . S
H3685 C3671 0.961 . S
H3686 C3671 0.961 . S
H3687 C3671 0.961 . S
H3688 C3672 0.931 . S
H3689 C3677 0.930 . S
H3690 C3678 0.956 . S
H3691 C3678 0.961 . S
H3692 C3678 0.961 . S
H3693 C3679 0.958 . S
H3694 C3679 0.961 . S
H3695 C3679 0.960 . S
C3696 C3697 1.391 . S
C3696 C3698 1.394 . S
C3696 H3712 0.931 . S
C3697 C3696 1.391 . S
C3697 C3701 1.376 . S
C3698 C3696 1.394 . S
C3698 C3699 1.369 . S
C3698 C3702 1.531 . S
C3699 C3698 1.369 . S
C3699 C3700 1.410 . S
C3699 C3707 1.503 . S
C3700 C3699 1.410 . S
C3700 C3701 1.392 . S
C3700 C3703 1.511 . S
C3701 C3697 1.376 . S
C3701 C3700 1.392 . S
C3701 H3713 0.929 . S
C3702 C3698 1.531 . S
C3702 H3714 0.960 . S
C3702 H3715 0.962 . S
C3702 H3716 0.960 . S
C3703 C3700 1.511 . S
C3703 H3717 0.961 . S
C3703 H3718 0.961 . S
C3703 H3719 0.961 . S
C3704 C3705 1.370 . S
C3704 C3706 1.363 . S
C3704 H3720 0.931 . S
C3705 C3704 1.370 . S
C3705 C3709 1.408 . S
C3706 C3704 1.363 . S
C3706 C3707 1.370 . S
C3706 C3710 1.524 . S
C3707 C3699 1.503 . S
C3707 C3706 1.370 . S
C3707 C3708 1.403 . S
C3708 C3707 1.403 . S
C3708 C3709 1.404 . S
C3708 C3711 1.539 . S
C3709 C3705 1.408 . S
C3709 C3708 1.404 . S
C3709 H3721 0.930 . S
C3710 C3706 1.524 . S
C3710 H3722 0.956 . S
C3710 H3723 0.961 . S
C3710 H3724 0.961 . S
C3711 C3708 1.539 . S
C3711 H3725 0.958 . S
C3711 H3726 0.961 . S
C3711 H3727 0.960 . S
H3712 C3696 0.931 . S
H3713 C3701 0.929 . S
H3714 C3702 0.960 . S
H3715 C3702 0.962 . S
H3716 C3702 0.960 . S
H3717 C3703 0.961 . S
H3718 C3703 0.961 . S
H3719 C3703 0.961 . S
H3720 C3704 0.931 . S
H3721 C3709 0.930 . S
H3722 C3710 0.956 . S
H3723 C3710 0.961 . S
H3724 C3710 0.961 . S
H3725 C3711 0.958 . S
H3726 C3711 0.961 . S
H3727 C3711 0.960 . S
C3728 C3729 1.391 . S
C3728 C3730 1.394 . S
C3728 H3744 0.931 . S
C3729 C3728 1.391 . S
C3729 C3733 1.376 . S
C3730 C3728 1.394 . S
C3730 C3731 1.369 . S
C3730 C3734 1.531 . S
C3731 C3730 1.369 . S
C3731 C3732 1.410 . S
C3731 C3739 1.503 . S
C3732 C3731 1.410 . S
C3732 C3733 1.392 . S
C3732 C3735 1.511 . S
C3733 C3729 1.376 . S
C3733 C3732 1.392 . S
C3733 H3745 0.929 . S
C3734 C3730 1.531 . S
C3734 H3746 0.960 . S
C3734 H3747 0.962 . S
C3734 H3748 0.960 . S
C3735 C3732 1.511 . S
C3735 H3749 0.961 . S
C3735 H3750 0.961 . S
C3735 H3751 0.961 . S
C3736 C3737 1.370 . S
C3736 C3738 1.363 . S
C3736 H3752 0.931 . S
C3737 C3736 1.370 . S
C3737 C3741 1.408 . S
C3738 C3736 1.363 . S
C3738 C3739 1.370 . S
C3738 C3742 1.524 . S
C3739 C3731 1.503 . S
C3739 C3738 1.370 . S
C3739 C3740 1.403 . S
C3740 C3739 1.403 . S
C3740 C3741 1.404 . S
C3740 C3743 1.539 . S
C3741 C3737 1.408 . S
C3741 C3740 1.404 . S
C3741 H3753 0.930 . S
C3742 C3738 1.524 . S
C3742 H3754 0.956 . S
C3742 H3755 0.961 . S
C3742 H3756 0.961 . S
C3743 C3740 1.539 . S
C3743 H3757 0.958 . S
C3743 H3758 0.961 . S
C3743 H3759 0.960 . S
H3744 C3728 0.931 . S
H3745 C3733 0.929 . S
H3746 C3734 0.960 . S
H3747 C3734 0.962 . S
H3748 C3734 0.960 . S
H3749 C3735 0.961 . S
H3750 C3735 0.961 . S
H3751 C3735 0.961 . S
H3752 C3736 0.931 . S
H3753 C3741 0.930 . S
H3754 C3742 0.956 . S
H3755 C3742 0.961 . S
H3756 C3742 0.961 . S
H3757 C3743 0.958 . S
H3758 C3743 0.961 . S
H3759 C3743 0.960 . S
C3760 C3761 1.391 . S
C3760 C3762 1.394 . S
C3760 H3776 0.931 . S
C3761 C3760 1.391 . S
C3761 C3765 1.376 . S
C3762 C3760 1.394 . S
C3762 C3763 1.369 . S
C3762 C3766 1.531 . S
C3763 C3762 1.369 . S
C3763 C3764 1.410 . S
C3763 C3771 1.503 . S
C3764 C3763 1.410 . S
C3764 C3765 1.392 . S
C3764 C3767 1.511 . S
C3765 C3761 1.376 . S
C3765 C3764 1.392 . S
C3765 H3777 0.929 . S
C3766 C3762 1.531 . S
C3766 H3778 0.960 . S
C3766 H3779 0.962 . S
C3766 H3780 0.960 . S
C3767 C3764 1.511 . S
C3767 H3781 0.961 . S
C3767 H3782 0.961 . S
C3767 H3783 0.961 . S
C3768 C3769 1.370 . S
C3768 C3770 1.363 . S
C3768 H3784 0.931 . S
C3769 C3768 1.370 . S
C3769 C3773 1.408 . S
C3770 C3768 1.363 . S
C3770 C3771 1.370 . S
C3770 C3774 1.524 . S
C3771 C3763 1.503 . S
C3771 C3770 1.370 . S
C3771 C3772 1.403 . S
C3772 C3771 1.403 . S
C3772 C3773 1.404 . S
C3772 C3775 1.539 . S
C3773 C3769 1.408 . S
C3773 C3772 1.404 . S
C3773 H3785 0.930 . S
C3774 C3770 1.524 . S
C3774 H3786 0.956 . S
C3774 H3787 0.961 . S
C3774 H3788 0.961 . S
C3775 C3772 1.539 . S
C3775 H3789 0.958 . S
C3775 H3790 0.961 . S
C3775 H3791 0.960 . S
H3776 C3760 0.931 . S
H3777 C3765 0.929 . S
H3778 C3766 0.960 . S
H3779 C3766 0.962 . S
H3780 C3766 0.960 . S
H3781 C3767 0.961 . S
H3782 C3767 0.961 . S
H3783 C3767 0.961 . S
H3784 C3768 0.931 . S
H3785 C3773 0.930 . S
H3786 C3774 0.956 . S
H3787 C3774 0.961 . S
H3788 C3774 0.961 . S
H3789 C3775 0.958 . S
H3790 C3775 0.961 . S
H3791 C3775 0.960 . S
C3792 C3793 1.391 . S
C3792 C3794 1.394 . S
C3792 H3808 0.931 . S
C3793 C3792 1.391 . S
C3793 C3797 1.376 . S
C3794 C3792 1.394 . S
C3794 C3795 1.369 . S
C3794 C3798 1.531 . S
C3795 C3794 1.369 . S
C3795 C3796 1.410 . S
C3795 C3803 1.503 . S
C3796 C3795 1.410 . S
C3796 C3797 1.392 . S
C3796 C3799 1.511 . S
C3797 C3793 1.376 . S
C3797 C3796 1.392 . S
C3797 H3809 0.929 . S
C3798 C3794 1.531 . S
C3798 H3810 0.960 . S
C3798 H3811 0.962 . S
C3798 H3812 0.960 . S
C3799 C3796 1.511 . S
C3799 H3813 0.961 . S
C3799 H3814 0.961 . S
C3799 H3815 0.961 . S
C3800 C3801 1.370 . S
C3800 C3802 1.363 . S
C3800 H3816 0.931 . S
C3801 C3800 1.370 . S
C3801 C3805 1.408 . S
C3802 C3800 1.363 . S
C3802 C3803 1.370 . S
C3802 C3806 1.524 . S
C3803 C3795 1.503 . S
C3803 C3802 1.370 . S
C3803 C3804 1.403 . S
C3804 C3803 1.403 . S
C3804 C3805 1.404 . S
C3804 C3807 1.539 . S
C3805 C3801 1.408 . S
C3805 C3804 1.404 . S
C3805 H3817 0.930 . S
C3806 C3802 1.524 . S
C3806 H3818 0.956 . S
C3806 H3819 0.961 . S
C3806 H3820 0.961 . S
C3807 C3804 1.539 . S
C3807 H3821 0.958 . S
C3807 H3822 0.961 . S
C3807 H3823 0.960 . S
H3808 C3792 0.931 . S
H3809 C3797 0.929 . S
H3810 C3798 0.960 . S
H3811 C3798 0.962 . S
H3812 C3798 0.960 . S
H3813 C3799 0.961 . S
H3814 C3799 0.961 . S
H3815 C3799 0.961 . S
H3816 C3800 0.931 . S
H3817 C3805 0.930 . S
H3818 C3806 0.956 . S
H3819 C3806 0.961 . S
H3820 C3806 0.961 . S
H3821 C3807 0.958 . S
H3822 C3807 0.961 . S
H3823 C3807 0.960 . S
C3824 C3825 1.391 . S
C3824 C3826 1.394 . S
C3824 H3840 0.931 . S
C3825 C3824 1.391 . S
C3825 C3829 1.376 . S
C3826 C3824 1.394 . S
C3826 C3827 1.369 . S
C3826 C3830 1.531 1_565 S
C3827 C3826 1.369 . S
C3827 C3828 1.410 . S
C3827 C3835 1.503 . S
C3828 C3827 1.410 . S
C3828 C3829 1.392 . S
C3828 C3831 1.511 . S
C3829 C3825 1.376 . S
C3829 C3828 1.392 . S
C3829 H3841 0.929 . S
C3830 C3826 1.531 1_545 S
C3830 H3842 0.960 . S
C3830 H3843 0.971 . S
C3830 H3844 0.960 . S
C3831 C3828 1.511 . S
C3831 H3845 0.961 . S
C3831 H3846 0.961 . S
C3831 H3847 0.961 . S
C3832 C3833 1.370 1_556 S
C3832 C3834 1.363 1_545 S
C3832 H3848 0.931 . S
C3833 C3832 1.370 1_554 S
C3833 C3837 1.408 . S
C3834 C3832 1.363 1_565 S
C3834 C3835 1.370 1_556 S
C3834 C3838 1.524 . S
C3835 C3827 1.503 . S
C3835 C3834 1.370 1_554 S
C3835 C3836 1.403 1_565 S
C3836 C3835 1.403 1_545 S
C3836 C3837 1.404 . S
C3836 C3839 1.539 . S
C3837 C3833 1.408 . S
C3837 C3836 1.404 . S
C3837 H3849 0.930 . S
C3838 C3834 1.524 . S
C3838 H3850 0.956 . S
C3838 H3851 0.961 . S
C3838 H3852 0.961 . S
C3839 C3836 1.539 . S
C3839 H3853 0.958 . S
C3839 H3854 0.961 . S
C3839 H3855 0.960 1_545 S
H3840 C3824 0.931 . S
H3841 C3829 0.929 . S
H3842 C3830 0.960 . S
H3843 C3830 0.971 . S
H3844 C3830 0.960 . S
H3845 C3831 0.961 . S
H3846 C3831 0.961 . S
H3847 C3831 0.961 . S
H3848 C3832 0.931 . S
H3849 C3837 0.930 . S
H3850 C3838 0.956 . S
H3851 C3838 0.961 . S
H3852 C3838 0.961 . S
H3853 C3839 0.958 . S
H3854 C3839 0.961 . S
H3855 C3839 0.960 1_565 S
C3856 C3857 1.391 . S
C3856 C3858 1.394 . S
C3856 H3872 0.931 . S
C3857 C3856 1.391 . S
C3857 C3861 1.376 . S
C3858 C3856 1.394 . S
C3858 C3859 1.369 . S
C3858 C3862 1.531 . S
C3859 C3858 1.369 . S
C3859 C3860 1.410 . S
C3859 C3867 1.503 . S
C3860 C3859 1.410 . S
C3860 C3861 1.392 . S
C3860 C3863 1.511 . S
C3861 C3857 1.376 . S
C3861 C3860 1.392 . S
C3861 H3873 0.929 . S
C3862 C3858 1.531 . S
C3862 H3874 0.960 . S
C3862 H3875 0.962 . S
C3862 H3876 0.960 . S
C3863 C3860 1.511 . S
C3863 H3877 0.961 . S
C3863 H3878 0.961 . S
C3863 H3879 0.961 . S
C3864 C3865 1.370 . S
C3864 C3866 1.363 . S
C3864 H3880 0.931 . S
C3865 C3864 1.370 . S
C3865 C3869 1.408 . S
C3866 C3864 1.363 . S
C3866 C3867 1.370 . S
C3866 C3870 1.524 . S
C3867 C3859 1.503 . S
C3867 C3866 1.370 . S
C3867 C3868 1.403 . S
C3868 C3867 1.403 . S
C3868 C3869 1.404 . S
C3868 C3871 1.539 . S
C3869 C3865 1.408 . S
C3869 C3868 1.404 . S
C3869 H3881 0.930 . S
C3870 C3866 1.524 . S
C3870 H3882 0.956 . S
C3870 H3883 0.961 . S
C3870 H3884 0.961 . S
C3871 C3868 1.539 . S
C3871 H3885 0.958 . S
C3871 H3886 0.961 . S
C3871 H3887 0.960 . S
H3872 C3856 0.931 . S
H3873 C3861 0.929 . S
H3874 C3862 0.960 . S
H3875 C3862 0.962 . S
H3876 C3862 0.960 . S
H3877 C3863 0.961 . S
H3878 C3863 0.961 . S
H3879 C3863 0.961 . S
H3880 C3864 0.931 . S
H3881 C3869 0.930 . S
H3882 C3870 0.956 . S
H3883 C3870 0.961 . S
H3884 C3870 0.961 . S
H3885 C3871 0.958 . S
H3886 C3871 0.961 . S
H3887 C3871 0.960 . S
C3888 C3889 1.391 . S
C3888 C3890 1.394 . S
C3888 H3904 0.931 . S
C3889 C3888 1.391 . S
C3889 C3893 1.376 1_554 S
C3890 C3888 1.394 . S
C3890 C3891 1.369 . S
C3890 C3894 1.531 . S
C3891 C3890 1.369 . S
C3891 C3892 1.410 1_554 S
C3891 C3899 1.503 . S
C3892 C3891 1.410 1_556 S
C3892 C3893 1.392 . S
C3892 C3895 1.511 . S
C3893 C3889 1.376 1_556 S
C3893 C3892 1.392 . S
C3893 H3905 0.929 . S
C3894 C3890 1.531 . S
C3894 H3906 0.960 . S
C3894 H3907 0.962 . S
C3894 H3908 0.960 . S
C3895 C3892 1.511 . S
C3895 H3909 0.961 . S
C3895 H3910 0.961 . S
C3895 H3911 0.961 . S
C3896 C3897 1.370 . S
C3896 C3898 1.363 . S
C3896 H3912 0.931 . S
C3897 C3896 1.370 . S
C3897 C3901 1.408 . S
C3898 C3896 1.363 . S
C3898 C3899 1.370 . S
C3898 C3902 1.524 . S
C3899 C3891 1.503 . S
C3899 C3898 1.370 . S
C3899 C3900 1.403 . S
C3900 C3899 1.403 . S
C3900 C3901 1.404 . S
C3900 C3903 1.539 . S
C3901 C3897 1.408 . S
C3901 C3900 1.404 . S
C3901 H3913 0.930 . S
C3902 C3898 1.524 . S
C3902 H3914 0.956 . S
C3902 H3915 0.961 1_554 S
C3902 H3916 0.961 . S
C3903 C3900 1.539 . S
C3903 H3917 0.958 . S
C3903 H3918 0.961 . S
C3903 H3919 0.960 . S
H3904 C3888 0.931 . S
H3905 C3893 0.929 . S
H3906 C3894 0.960 . S
H3907 C3894 0.962 . S
H3908 C3894 0.960 . S
H3909 C3895 0.961 . S
H3910 C3895 0.961 . S
H3911 C3895 0.961 . S
H3912 C3896 0.931 . S
H3913 C3901 0.930 . S
H3914 C3902 0.956 . S
H3915 C3902 0.961 1_556 S
H3916 C3902 0.961 . S
H3917 C3903 0.958 . S
H3918 C3903 0.961 . S
H3919 C3903 0.960 . S
C3920 C3921 1.391 . S
C3920 C3922 1.394 . S
C3920 H3936 0.931 . S
C3921 C3920 1.391 . S
C3921 C3925 1.376 . S
C3922 C3920 1.394 . S
C3922 C3923 1.369 . S
C3922 C3926 1.531 . S
C3923 C3922 1.369 . S
C3923 C3924 1.410 . S
C3923 C3931 1.503 . S
C3924 C3923 1.410 . S
C3924 C3925 1.392 . S
C3924 C3927 1.511 . S
C3925 C3921 1.376 . S
C3925 C3924 1.392 . S
C3925 H3937 0.929 . S
C3926 C3922 1.531 . S
C3926 H3938 0.960 . S
C3926 H3939 0.962 . S
C3926 H3940 0.960 . S
C3927 C3924 1.511 . S
C3927 H3941 0.961 . S
C3927 H3942 0.961 . S
C3927 H3943 0.961 . S
C3928 C3929 1.370 . S
C3928 C3930 1.363 . S
C3928 H3944 0.931 . S
C3929 C3928 1.370 . S
C3929 C3933 1.408 . S
C3930 C3928 1.363 . S
C3930 C3931 1.370 . S
C3930 C3934 1.524 . S
C3931 C3923 1.503 . S
C3931 C3930 1.370 . S
C3931 C3932 1.403 . S
C3932 C3931 1.403 . S
C3932 C3933 1.404 . S
C3932 C3935 1.539 . S
C3933 C3929 1.408 . S
C3933 C3932 1.404 . S
C3933 H3945 0.930 . S
C3934 C3930 1.524 . S
C3934 H3946 0.956 . S
C3934 H3947 0.961 . S
C3934 H3948 0.961 . S
C3935 C3932 1.539 . S
C3935 H3949 0.958 . S
C3935 H3950 0.961 . S
C3935 H3951 0.960 . S
H3936 C3920 0.931 . S
H3937 C3925 0.929 . S
H3938 C3926 0.960 . S
H3939 C3926 0.962 . S
H3940 C3926 0.960 . S
H3941 C3927 0.961 . S
H3942 C3927 0.961 . S
H3943 C3927 0.961 . S
H3944 C3928 0.931 . S
H3945 C3933 0.930 . S
H3946 C3934 0.956 . S
H3947 C3934 0.961 . S
H3948 C3934 0.961 . S
H3949 C3935 0.958 . S
H3950 C3935 0.961 . S
H3951 C3935 0.960 . S
C3952 C3953 1.391 . S
C3952 C3954 1.394 . S
C3952 H3968 0.931 . S
C3953 C3952 1.391 . S
C3953 C3957 1.376 . S
C3954 C3952 1.394 . S
C3954 C3955 1.369 . S
C3954 C3958 1.531 . S
C3955 C3954 1.369 . S
C3955 C3956 1.410 . S
C3955 C3963 1.503 . S
C3956 C3955 1.410 . S
C3956 C3957 1.392 . S
C3956 C3959 1.511 . S
C3957 C3953 1.376 . S
C3957 C3956 1.392 . S
C3957 H3969 0.929 . S
C3958 C3954 1.531 . S
C3958 H3970 0.960 . S
C3958 H3971 0.962 . S
C3958 H3972 0.960 . S
C3959 C3956 1.511 . S
C3959 H3973 0.961 . S
C3959 H3974 0.961 . S
C3959 H3975 0.961 . S
C3960 C3961 1.370 . S
C3960 C3962 1.363 . S
C3960 H3976 0.931 . S
C3961 C3960 1.370 . S
C3961 C3965 1.408 . S
C3962 C3960 1.363 . S
C3962 C3963 1.370 . S
C3962 C3966 1.524 . S
C3963 C3955 1.503 . S
C3963 C3962 1.370 . S
C3963 C3964 1.403 . S
C3964 C3963 1.403 . S
C3964 C3965 1.404 . S
C3964 C3967 1.539 . S
C3965 C3961 1.408 . S
C3965 C3964 1.404 . S
C3965 H3977 0.930 . S
C3966 C3962 1.524 . S
C3966 H3978 0.956 . S
C3966 H3979 0.961 . S
C3966 H3980 0.961 . S
C3967 C3964 1.539 . S
C3967 H3981 0.958 . S
C3967 H3982 0.961 . S
C3967 H3983 0.960 . S
H3968 C3952 0.931 . S
H3969 C3957 0.929 . S
H3970 C3958 0.960 . S
H3971 C3958 0.962 . S
H3972 C3958 0.960 . S
H3973 C3959 0.961 . S
H3974 C3959 0.961 . S
H3975 C3959 0.961 . S
H3976 C3960 0.931 . S
H3977 C3965 0.930 . S
H3978 C3966 0.956 . S
H3979 C3966 0.961 . S
H3980 C3966 0.961 . S
H3981 C3967 0.958 . S
H3982 C3967 0.961 . S
H3983 C3967 0.960 . S
C3984 C3985 1.391 . S
C3984 C3986 1.394 . S
C3984 H4000 0.931 . S
C3985 C3984 1.391 . S
C3985 C3989 1.376 . S
C3986 C3984 1.394 . S
C3986 C3987 1.369 . S
C3986 C3990 1.531 . S
C3987 C3986 1.369 . S
C3987 C3988 1.410 . S
C3987 C3995 1.503 . S
C3988 C3987 1.410 . S
C3988 C3989 1.392 . S
C3988 C3991 1.511 . S
C3989 C3985 1.376 . S
C3989 C3988 1.392 . S
C3989 H4001 0.929 . S
C3990 C3986 1.531 . S
C3990 H4002 0.960 . S
C3990 H4003 0.962 . S
C3990 H4004 0.960 . S
C3991 C3988 1.511 . S
C3991 H4005 0.961 . S
C3991 H4006 0.961 . S
C3991 H4007 0.961 . S
C3992 C3993 1.370 . S
C3992 C3994 1.363 . S
C3992 H4008 0.931 . S
C3993 C3992 1.370 . S
C3993 C3997 1.408 . S
C3994 C3992 1.363 . S
C3994 C3995 1.370 . S
C3994 C3998 1.524 . S
C3995 C3987 1.503 . S
C3995 C3994 1.370 . S
C3995 C3996 1.403 . S
C3996 C3995 1.403 . S
C3996 C3997 1.404 . S
C3996 C3999 1.539 . S
C3997 C3993 1.408 . S
C3997 C3996 1.404 . S
C3997 H4009 0.930 . S
C3998 C3994 1.524 . S
C3998 H4010 0.956 . S
C3998 H4011 0.961 . S
C3998 H4012 0.961 . S
C3999 C3996 1.539 . S
C3999 H4013 0.958 . S
C3999 H4014 0.961 . S
C3999 H4015 0.960 . S
H4000 C3984 0.931 . S
H4001 C3989 0.929 . S
H4002 C3990 0.960 . S
H4003 C3990 0.962 . S
H4004 C3990 0.960 . S
H4005 C3991 0.961 . S
H4006 C3991 0.961 . S
H4007 C3991 0.961 . S
H4008 C3992 0.931 . S
H4009 C3997 0.930 . S
H4010 C3998 0.956 . S
H4011 C3998 0.961 . S
H4012 C3998 0.961 . S
H4013 C3999 0.958 . S
H4014 C3999 0.961 . S
H4015 C3999 0.960 . S
C4016 C4017 1.391 . S
C4016 C4018 1.394 . S
C4016 H4032 0.931 . S
C4017 C4016 1.391 . S
C4017 C4021 1.376 . S
C4018 C4016 1.394 . S
C4018 C4019 1.369 . S
C4018 C4022 1.531 . S
C4019 C4018 1.369 . S
C4019 C4020 1.410 . S
C4019 C4027 1.503 . S
C4020 C4019 1.410 . S
C4020 C4021 1.392 . S
C4020 C4023 1.511 . S
C4021 C4017 1.376 . S
C4021 C4020 1.392 . S
C4021 H4033 0.929 . S
C4022 C4018 1.531 . S
C4022 H4034 0.960 . S
C4022 H4035 0.962 . S
C4022 H4036 0.960 . S
C4023 C4020 1.511 . S
C4023 H4037 0.961 . S
C4023 H4038 0.961 . S
C4023 H4039 0.961 . S
C4024 C4025 1.370 . S
C4024 C4026 1.363 . S
C4024 H4040 0.931 . S
C4025 C4024 1.370 . S
C4025 C4029 1.408 . S
C4026 C4024 1.363 . S
C4026 C4027 1.370 . S
C4026 C4030 1.524 . S
C4027 C4019 1.503 . S
C4027 C4026 1.370 . S
C4027 C4028 1.403 . S
C4028 C4027 1.403 . S
C4028 C4029 1.404 . S
C4028 C4031 1.539 . S
C4029 C4025 1.408 . S
C4029 C4028 1.404 . S
C4029 H4041 0.930 . S
C4030 C4026 1.524 . S
C4030 H4042 0.956 . S
C4030 H4043 0.961 . S
C4030 H4044 0.961 . S
C4031 C4028 1.539 . S
C4031 H4045 0.958 . S
C4031 H4046 0.961 . S
C4031 H4047 0.960 . S
H4032 C4016 0.931 . S
H4033 C4021 0.929 . S
H4034 C4022 0.960 . S
H4035 C4022 0.962 . S
H4036 C4022 0.960 . S
H4037 C4023 0.961 . S
H4038 C4023 0.961 . S
H4039 C4023 0.961 . S
H4040 C4024 0.931 . S
H4041 C4029 0.930 . S
H4042 C4030 0.956 . S
H4043 C4030 0.961 . S
H4044 C4030 0.961 . S
H4045 C4031 0.958 . S
H4046 C4031 0.961 . S
H4047 C4031 0.960 . S
C4048 C4049 1.391 . S
C4048 C4050 1.394 . S
C4048 H4064 0.931 . S
C4049 C4048 1.391 . S
C4049 C4053 1.376 . S
C4050 C4048 1.394 . S
C4050 C4051 1.369 . S
C4050 C4054 1.531 . S
C4051 C4050 1.369 . S
C4051 C4052 1.410 . S
C4051 C4059 1.503 . S
C4052 C4051 1.410 . S
C4052 C4053 1.392 . S
C4052 C4055 1.511 . S
C4053 C4049 1.376 . S
C4053 C4052 1.392 . S
C4053 H4065 0.929 . S
C4054 C4050 1.531 . S
C4054 H4066 0.960 . S
C4054 H4067 0.962 . S
C4054 H4068 0.997 . S
C4055 C4052 1.511 . S
C4055 H4069 0.961 . S
C4055 H4070 0.961 . S
C4055 H4071 0.961 . S
C4056 C4057 1.370 . S
C4056 C4058 1.363 . S
C4056 H4072 0.931 . S
C4057 C4056 1.370 . S
C4057 C4061 1.408 . S
C4058 C4056 1.363 . S
C4058 C4059 1.370 . S
C4058 C4062 1.524 . S
C4059 C4051 1.503 . S
C4059 C4058 1.370 . S
C4059 C4060 1.403 . S
C4060 C4059 1.403 . S
C4060 C4061 1.404 . S
C4060 C4063 1.539 . S
C4061 C4057 1.408 . S
C4061 C4060 1.404 . S
C4061 H4073 0.930 . S
C4062 C4058 1.524 . S
C4062 H4074 0.956 . S
C4062 H4075 0.961 . S
C4062 H4076 0.961 . S
C4063 C4060 1.539 . S
C4063 H4077 0.958 . S
C4063 H4078 0.961 . S
C4063 H4079 0.960 . S
H4064 C4048 0.931 . S
H4065 C4053 0.929 . S
H4066 C4054 0.960 . S
H4067 C4054 0.962 . S
H4068 C4054 0.997 . S
H4069 C4055 0.961 . S
H4070 C4055 0.961 . S
H4071 C4055 0.961 . S
H4072 C4056 0.931 . S
H4073 C4061 0.930 . S
H4074 C4062 0.956 . S
H4075 C4062 0.961 . S
H4076 C4062 0.961 . S
H4077 C4063 0.958 . S
H4078 C4063 0.961 . S
H4079 C4063 0.960 . S
C4080 C4081 1.391 . S
C4080 C4082 1.394 . S
C4080 H4096 0.931 . S
C4081 C4080 1.391 . S
C4081 C4085 1.376 . S
C4082 C4080 1.394 . S
C4082 C4083 1.369 . S
C4082 C4086 1.531 . S
C4083 C4082 1.369 . S
C4083 C4084 1.410 . S
C4083 C4091 1.503 . S
C4084 C4083 1.410 . S
C4084 C4085 1.392 . S
C4084 C4087 1.511 . S
C4085 C4081 1.376 . S
C4085 C4084 1.392 . S
C4085 H4097 0.929 . S
C4086 C4082 1.531 . S
C4086 H4098 0.960 . S
C4086 H4099 0.962 . S
C4086 H4100 0.960 . S
C4087 C4084 1.511 . S
C4087 H4101 0.961 . S
C4087 H4102 0.961 . S
C4087 H4103 0.961 . S
C4088 C4089 1.370 . S
C4088 C4090 1.363 . S
C4088 H4104 0.931 . S
C4089 C4088 1.370 . S
C4089 C4093 1.408 . S
C4090 C4088 1.363 . S
C4090 C4091 1.370 . S
C4090 C4094 1.524 . S
C4091 C4083 1.503 . S
C4091 C4090 1.370 . S
C4091 C4092 1.403 . S
C4092 C4091 1.403 . S
C4092 C4093 1.404 . S
C4092 C4095 1.539 . S
C4093 C4089 1.408 . S
C4093 C4092 1.404 . S
C4093 H4105 0.930 . S
C4094 C4090 1.524 . S
C4094 H4106 0.956 . S
C4094 H4107 0.961 . S
C4094 H4108 0.961 . S
C4095 C4092 1.539 . S
C4095 H4109 0.958 . S
C4095 H4110 0.961 . S
C4095 H4111 0.960 . S
H4096 C4080 0.931 . S
H4097 C4085 0.929 . S
H4098 C4086 0.960 . S
H4099 C4086 0.962 . S
H4100 C4086 0.960 . S
H4101 C4087 0.961 . S
H4102 C4087 0.961 . S
H4103 C4087 0.961 . S
H4104 C4088 0.931 . S
H4105 C4093 0.930 . S
H4106 C4094 0.956 . S
H4107 C4094 0.961 . S
H4108 C4094 0.961 . S
H4109 C4095 0.958 . S
H4110 C4095 0.961 . S
H4111 C4095 0.960 . S
C4112 C4113 1.391 . S
C4112 C4114 1.394 . S
C4112 H4128 0.931 . S
C4113 C4112 1.391 . S
C4113 C4117 1.376 . S
C4114 C4112 1.394 . S
C4114 C4115 1.369 . S
C4114 C4118 1.531 . S
C4115 C4114 1.369 . S
C4115 C4116 1.410 . S
C4115 C4123 1.503 . S
C4116 C4115 1.410 . S
C4116 C4117 1.392 . S
C4116 C4119 1.511 . S
C4117 C4113 1.376 . S
C4117 C4116 1.392 . S
C4117 H4129 0.929 . S
C4118 C4114 1.531 . S
C4118 H4130 0.960 . S
C4118 H4131 0.962 . S
C4118 H4132 0.960 . S
C4119 C4116 1.511 . S
C4119 H4133 0.961 . S
C4119 H4134 0.961 . S
C4119 H4135 0.961 . S
C4120 C4121 1.370 . S
C4120 C4122 1.363 . S
C4120 H4136 0.931 . S
C4121 C4120 1.370 . S
C4121 C4125 1.408 . S
C4122 C4120 1.363 . S
C4122 C4123 1.370 . S
C4122 C4126 1.524 . S
C4123 C4115 1.503 . S
C4123 C4122 1.370 . S
C4123 C4124 1.403 . S
C4124 C4123 1.403 . S
C4124 C4125 1.404 . S
C4124 C4127 1.539 . S
C4125 C4121 1.408 . S
C4125 C4124 1.404 . S
C4125 H4137 0.930 . S
C4126 C4122 1.524 . S
C4126 H4138 0.956 . S
C4126 H4139 0.961 . S
C4126 H4140 0.961 . S
C4127 C4124 1.539 . S
C4127 H4141 0.958 . S
C4127 H4142 0.961 . S
C4127 H4143 0.960 . S
H4128 C4112 0.931 . S
H4129 C4117 0.929 . S
H4130 C4118 0.960 . S
H4131 C4118 0.962 . S
H4132 C4118 0.960 . S
H4133 C4119 0.961 . S
H4134 C4119 0.961 . S
H4135 C4119 0.961 . S
H4136 C4120 0.931 . S
H4137 C4125 0.930 . S
H4138 C4126 0.956 . S
H4139 C4126 0.961 . S
H4140 C4126 0.961 . S
H4141 C4127 0.958 . S
H4142 C4127 0.961 . S
H4143 C4127 0.960 . S
C4144 C4145 1.391 . S
C4144 C4146 1.394 . S
C4144 H4160 0.931 . S
C4145 C4144 1.391 . S
C4145 C4149 1.376 . S
C4146 C4144 1.394 . S
C4146 C4147 1.369 . S
C4146 C4150 1.531 . S
C4147 C4146 1.369 . S
C4147 C4148 1.410 . S
C4147 C4155 1.503 . S
C4148 C4147 1.410 . S
C4148 C4149 1.392 . S
C4148 C4151 1.511 . S
C4149 C4145 1.376 . S
C4149 C4148 1.392 . S
C4149 H4161 0.929 . S
C4150 C4146 1.531 . S
C4150 H4162 0.960 . S
C4150 H4163 0.962 . S
C4150 H4164 0.960 . S
C4151 C4148 1.511 . S
C4151 H4165 0.961 . S
C4151 H4166 0.961 . S
C4151 H4167 0.961 . S
C4152 C4153 1.370 . S
C4152 C4154 1.363 . S
C4152 H4168 0.931 . S
C4153 C4152 1.370 . S
C4153 C4157 1.408 . S
C4154 C4152 1.363 . S
C4154 C4155 1.370 . S
C4154 C4158 1.524 . S
C4155 C4147 1.503 . S
C4155 C4154 1.370 . S
C4155 C4156 1.403 . S
C4156 C4155 1.403 . S
C4156 C4157 1.404 . S
C4156 C4159 1.539 . S
C4157 C4153 1.408 . S
C4157 C4156 1.404 . S
C4157 H4169 0.930 . S
C4158 C4154 1.524 . S
C4158 H4170 0.956 . S
C4158 H4171 0.961 . S
C4158 H4172 0.961 . S
C4159 C4156 1.539 . S
C4159 H4173 0.958 . S
C4159 H4174 0.961 . S
C4159 H4175 0.960 . S
H4160 C4144 0.931 . S
H4161 C4149 0.929 . S
H4162 C4150 0.960 . S
H4163 C4150 0.962 . S
H4164 C4150 0.960 . S
H4165 C4151 0.961 . S
H4166 C4151 0.961 . S
H4167 C4151 0.961 . S
H4168 C4152 0.931 . S
H4169 C4157 0.930 . S
H4170 C4158 0.956 . S
H4171 C4158 0.961 . S
H4172 C4158 0.961 . S
H4173 C4159 0.958 . S
H4174 C4159 0.961 . S
H4175 C4159 0.960 . S
C4176 C4177 1.391 . S
C4176 C4178 1.394 . S
C4176 H4192 0.931 . S
C4177 C4176 1.391 . S
C4177 C4181 1.376 . S
C4178 C4176 1.394 . S
C4178 C4179 1.369 . S
C4178 C4182 1.531 . S
C4179 C4178 1.369 . S
C4179 C4180 1.410 . S
C4179 C4187 1.503 . S
C4180 C4179 1.410 . S
C4180 C4181 1.392 . S
C4180 C4183 1.511 . S
C4181 C4177 1.376 . S
C4181 C4180 1.392 . S
C4181 H4193 0.929 . S
C4182 C4178 1.531 . S
C4182 H4194 0.960 . S
C4182 H4195 0.962 . S
C4182 H4196 0.960 . S
C4183 C4180 1.511 . S
C4183 H4197 0.961 . S
C4183 H4198 0.961 . S
C4183 H4199 0.961 . S
C4184 C4185 1.370 . S
C4184 C4186 1.363 . S
C4184 H4200 0.931 . S
C4185 C4184 1.370 . S
C4185 C4189 1.408 . S
C4186 C4184 1.363 . S
C4186 C4187 1.370 . S
C4186 C4190 1.524 . S
C4187 C4179 1.503 . S
C4187 C4186 1.370 . S
C4187 C4188 1.403 . S
C4188 C4187 1.403 . S
C4188 C4189 1.404 . S
C4188 C4191 1.539 . S
C4189 C4185 1.408 . S
C4189 C4188 1.404 . S
C4189 H4201 0.930 . S
C4190 C4186 1.524 . S
C4190 H4202 0.956 . S
C4190 H4203 0.961 . S
C4190 H4204 0.961 . S
C4191 C4188 1.539 . S
C4191 H4205 0.958 . S
C4191 H4206 0.961 . S
C4191 H4207 0.960 . S
H4192 C4176 0.931 . S
H4193 C4181 0.929 . S
H4194 C4182 0.960 . S
H4195 C4182 0.962 . S
H4196 C4182 0.960 . S
H4197 C4183 0.961 . S
H4198 C4183 0.961 . S
H4199 C4183 0.961 . S
H4200 C4184 0.931 . S
H4201 C4189 0.930 . S
H4202 C4190 0.956 . S
H4203 C4190 0.961 . S
H4204 C4190 0.961 . S
H4205 C4191 0.958 . S
H4206 C4191 0.961 . S
H4207 C4191 0.960 . S
C4208 C4209 1.391 . S
C4208 C4210 1.394 . S
C4208 H4224 0.931 . S
C4209 C4208 1.391 . S
C4209 C4213 1.376 . S
C4210 C4208 1.394 . S
C4210 C4211 1.369 . S
C4210 C4214 1.531 . S
C4211 C4210 1.369 . S
C4211 C4212 1.410 . S
C4211 C4219 1.503 . S
C4212 C4211 1.410 . S
C4212 C4213 1.392 . S
C4212 C4215 1.511 . S
C4213 C4209 1.376 . S
C4213 C4212 1.392 . S
C4213 H4225 0.929 . S
C4214 C4210 1.531 . S
C4214 H4226 0.960 . S
C4214 H4227 0.962 . S
C4214 H4228 0.960 . S
C4215 C4212 1.511 . S
C4215 H4229 0.961 . S
C4215 H4230 0.961 . S
C4215 H4231 0.961 . S
C4216 C4217 1.370 . S
C4216 C4218 1.363 . S
C4216 H4232 0.931 . S
C4217 C4216 1.370 . S
C4217 C4221 1.408 . S
C4218 C4216 1.363 . S
C4218 C4219 1.370 . S
C4218 C4222 1.524 . S
C4219 C4211 1.503 . S
C4219 C4218 1.370 . S
C4219 C4220 1.403 . S
C4220 C4219 1.403 . S
C4220 C4221 1.404 . S
C4220 C4223 1.539 . S
C4221 C4217 1.408 . S
C4221 C4220 1.404 . S
C4221 H4233 0.930 . S
C4222 C4218 1.524 . S
C4222 H4234 0.956 . S
C4222 H4235 0.961 . S
C4222 H4236 0.961 . S
C4223 C4220 1.539 . S
C4223 H4237 0.958 . S
C4223 H4238 0.961 . S
C4223 H4239 0.960 . S
H4224 C4208 0.931 . S
H4225 C4213 0.929 . S
H4226 C4214 0.960 . S
H4227 C4214 0.962 . S
H4228 C4214 0.960 . S
H4229 C4215 0.961 . S
H4230 C4215 0.961 . S
H4231 C4215 0.961 . S
H4232 C4216 0.931 . S
H4233 C4221 0.930 . S
H4234 C4222 0.956 . S
H4235 C4222 0.961 . S
H4236 C4222 0.961 . S
H4237 C4223 0.958 . S
H4238 C4223 0.961 . S
H4239 C4223 0.960 . S
C4240 C4241 1.391 . S
C4240 C4242 1.394 . S
C4240 H4256 0.931 . S
C4241 C4240 1.391 . S
C4241 C4245 1.376 . S
C4242 C4240 1.394 . S
C4242 C4243 1.369 . S
C4242 C4246 1.531 . S
C4243 C4242 1.369 . S
C4243 C4244 1.410 . S
C4243 C4251 1.503 . S
C4244 C4243 1.410 . S
C4244 C4245 1.392 . S
C4244 C4247 1.511 . S
C4245 C4241 1.376 . S
C4245 C4244 1.392 . S
C4245 H4257 0.929 . S
C4246 C4242 1.531 . S
C4246 H4258 0.960 . S
C4246 H4259 0.962 . S
C4246 H4260 0.960 . S
C4247 C4244 1.511 . S
C4247 H4261 0.961 . S
C4247 H4262 0.961 . S
C4247 H4263 0.961 . S
C4248 C4249 1.370 . S
C4248 C4250 1.363 . S
C4248 H4264 0.931 . S
C4249 C4248 1.370 . S
C4249 C4253 1.408 . S
C4250 C4248 1.363 . S
C4250 C4251 1.370 . S
C4250 C4254 1.524 . S
C4251 C4243 1.503 . S
C4251 C4250 1.370 . S
C4251 C4252 1.403 . S
C4252 C4251 1.403 . S
C4252 C4253 1.404 . S
C4252 C4255 1.539 . S
C4253 C4249 1.408 . S
C4253 C4252 1.404 . S
C4253 H4265 0.930 . S
C4254 C4250 1.524 . S
C4254 H4266 0.956 . S
C4254 H4267 0.961 . S
C4254 H4268 0.961 . S
C4255 C4252 1.539 . S
C4255 H4269 0.958 . S
C4255 H4270 0.961 . S
C4255 H4271 0.960 . S
H4256 C4240 0.931 . S
H4257 C4245 0.929 . S
H4258 C4246 0.960 . S
H4259 C4246 0.962 . S
H4260 C4246 0.960 . S
H4261 C4247 0.961 . S
H4262 C4247 0.961 . S
H4263 C4247 0.961 . S
H4264 C4248 0.931 . S
H4265 C4253 0.930 . S
H4266 C4254 0.956 . S
H4267 C4254 0.961 . S
H4268 C4254 0.961 . S
H4269 C4255 0.958 . S
H4270 C4255 0.961 . S
H4271 C4255 0.960 . S
C4272 C4273 1.391 . S
C4272 C4274 1.394 . S
C4272 H4288 0.931 . S
C4273 C4272 1.391 . S
C4273 C4277 1.376 . S
C4274 C4272 1.394 . S
C4274 C4275 1.369 . S
C4274 C4278 1.531 . S
C4275 C4274 1.369 . S
C4275 C4276 1.410 . S
C4275 C4283 1.503 . S
C4276 C4275 1.410 . S
C4276 C4277 1.392 . S
C4276 C4279 1.511 . S
C4277 C4273 1.376 . S
C4277 C4276 1.392 . S
C4277 H4289 0.929 . S
C4278 C4274 1.531 . S
C4278 H4290 0.960 . S
C4278 H4291 0.962 . S
C4278 H4292 0.960 . S
C4279 C4276 1.511 . S
C4279 H4293 0.961 . S
C4279 H4294 0.961 . S
C4279 H4295 0.961 . S
C4280 C4281 1.370 . S
C4280 C4282 1.363 . S
C4280 H4296 0.931 . S
C4281 C4280 1.370 . S
C4281 C4285 1.408 . S
C4282 C4280 1.363 . S
C4282 C4283 1.370 . S
C4282 C4286 1.524 . S
C4283 C4275 1.503 . S
C4283 C4282 1.370 . S
C4283 C4284 1.403 . S
C4284 C4283 1.403 . S
C4284 C4285 1.404 . S
C4284 C4287 1.539 . S
C4285 C4281 1.408 . S
C4285 C4284 1.404 . S
C4285 H4297 0.930 . S
C4286 C4282 1.524 . S
C4286 H4298 0.956 . S
C4286 H4299 0.961 . S
C4286 H4300 0.961 . S
C4287 C4284 1.539 . S
C4287 H4301 0.958 . S
C4287 H4302 0.961 . S
C4287 H4303 0.960 . S
H4288 C4272 0.931 . S
H4289 C4277 0.929 . S
H4290 C4278 0.960 . S
H4291 C4278 0.962 . S
H4292 C4278 0.960 . S
H4293 C4279 0.961 . S
H4294 C4279 0.961 . S
H4295 C4279 0.961 . S
H4296 C4280 0.931 . S
H4297 C4285 0.930 . S
H4298 C4286 0.956 . S
H4299 C4286 0.961 . S
H4300 C4286 0.961 . S
H4301 C4287 0.958 . S
H4302 C4287 0.961 . S
H4303 C4287 0.960 . S
C4304 C4305 1.391 . S
C4304 C4306 1.394 . S
C4304 H4320 0.931 . S
C4305 C4304 1.391 . S
C4305 C4309 1.376 . S
C4306 C4304 1.394 . S
C4306 C4307 1.369 . S
C4306 C4310 1.531 1_655 S
C4307 C4306 1.369 . S
C4307 C4308 1.410 . S
C4307 C4315 1.503 . S
C4308 C4307 1.410 . S
C4308 C4309 1.392 . S
C4308 C4311 1.511 . S
C4309 C4305 1.376 . S
C4309 C4308 1.392 . S
C4309 H4321 0.929 . S
C4310 C4306 1.531 1_455 S
C4310 H4322 0.960 . S
C4310 H4323 0.962 . S
C4310 H4324 0.960 . S
C4311 C4308 1.511 . S
C4311 H4325 0.961 . S
C4311 H4326 0.961 . S
C4311 H4327 0.961 . S
C4312 C4313 1.370 . S
C4312 C4314 1.363 1_455 S
C4312 H4328 0.931 . S
C4313 C4312 1.370 . S
C4313 C4317 1.408 . S
C4314 C4312 1.363 1_655 S
C4314 C4315 1.370 . S
C4314 C4318 1.524 . S
C4315 C4307 1.503 . S
C4315 C4314 1.370 . S
C4315 C4316 1.403 1_655 S
C4316 C4315 1.403 1_455 S
C4316 C4317 1.404 . S
C4316 C4319 1.539 . S
C4317 C4313 1.408 . S
C4317 C4316 1.404 . S
C4317 H4329 0.930 . S
C4318 C4314 1.524 . S
C4318 H4330 0.956 . S
C4318 H4331 0.961 . S
C4318 H4332 0.961 . S
C4319 C4316 1.539 . S
C4319 H4333 0.958 . S
C4319 H4334 0.961 . S
C4319 H4335 0.960 1_455 S
H4320 C4304 0.931 . S
H4321 C4309 0.929 . S
H4322 C4310 0.960 . S
H4323 C4310 0.962 . S
H4324 C4310 0.960 . S
H4325 C4311 0.961 . S
H4326 C4311 0.961 . S
H4327 C4311 0.961 . S
H4328 C4312 0.931 . S
H4329 C4317 0.930 . S
H4330 C4318 0.956 . S
H4331 C4318 0.961 . S
H4332 C4318 0.961 . S
H4333 C4319 0.958 . S
H4334 C4319 0.961 . S
H4335 C4319 0.960 1_655 S
C4336 C4337 1.391 . S
C4336 C4338 1.394 . S
C4336 H4352 0.931 . S
C4337 C4336 1.391 . S
C4337 C4341 1.376 . S
C4338 C4336 1.394 . S
C4338 C4339 1.369 . S
C4338 C4342 1.531 . S
C4339 C4338 1.369 . S
C4339 C4340 1.410 . S
C4339 C4347 1.503 . S
C4340 C4339 1.410 . S
C4340 C4341 1.392 . S
C4340 C4343 1.511 . S
C4341 C4337 1.376 . S
C4341 C4340 1.392 . S
C4341 H4353 0.929 . S
C4342 C4338 1.531 . S
C4342 H4354 0.960 . S
C4342 H4355 0.962 . S
C4342 H4356 0.960 . S
C4343 C4340 1.511 . S
C4343 H4357 0.961 . S
C4343 H4358 0.961 . S
C4343 H4359 0.961 . S
C4344 C4345 1.370 . S
C4344 C4346 1.363 . S
C4344 H4360 0.931 . S
C4345 C4344 1.370 . S
C4345 C4349 1.408 . S
C4346 C4344 1.363 . S
C4346 C4347 1.370 . S
C4346 C4350 1.524 . S
C4347 C4339 1.503 . S
C4347 C4346 1.370 . S
C4347 C4348 1.403 . S
C4348 C4347 1.403 . S
C4348 C4349 1.404 . S
C4348 C4351 1.539 . S
C4349 C4345 1.408 . S
C4349 C4348 1.404 . S
C4349 H4361 0.930 . S
C4350 C4346 1.524 . S
C4350 H4362 0.956 . S
C4350 H4363 0.961 . S
C4350 H4364 0.961 . S
C4351 C4348 1.539 . S
C4351 H4365 0.958 . S
C4351 H4366 0.961 . S
C4351 H4367 0.960 . S
H4352 C4336 0.931 . S
H4353 C4341 0.929 . S
H4354 C4342 0.960 . S
H4355 C4342 0.962 . S
H4356 C4342 0.960 . S
H4357 C4343 0.961 . S
H4358 C4343 0.961 . S
H4359 C4343 0.961 . S
H4360 C4344 0.931 . S
H4361 C4349 0.930 . S
H4362 C4350 0.956 . S
H4363 C4350 0.961 . S
H4364 C4350 0.961 . S
H4365 C4351 0.958 . S
H4366 C4351 0.961 . S
H4367 C4351 0.960 . S
C4368 C4369 1.391 . S
C4368 C4370 1.394 . S
C4368 H4384 0.931 . S
C4369 C4368 1.391 . S
C4369 C4373 1.376 . S
C4370 C4368 1.394 . S
C4370 C4371 1.369 . S
C4370 C4374 1.531 . S
C4371 C4370 1.369 . S
C4371 C4372 1.410 . S
C4371 C4379 1.503 . S
C4372 C4371 1.410 . S
C4372 C4373 1.392 . S
C4372 C4375 1.511 . S
C4373 C4369 1.376 . S
C4373 C4372 1.392 . S
C4373 H4385 0.929 . S
C4374 C4370 1.531 . S
C4374 H4386 0.960 . S
C4374 H4387 0.962 . S
C4374 H4388 0.960 . S
C4375 C4372 1.511 . S
C4375 H4389 0.961 . S
C4375 H4390 0.961 . S
C4375 H4391 0.961 . S
C4376 C4377 1.370 . S
C4376 C4378 1.363 . S
C4376 H4392 0.931 . S
C4377 C4376 1.370 . S
C4377 C4381 1.408 . S
C4378 C4376 1.363 . S
C4378 C4379 1.370 . S
C4378 C4382 1.524 . S
C4379 C4371 1.503 . S
C4379 C4378 1.370 . S
C4379 C4380 1.403 . S
C4380 C4379 1.403 . S
C4380 C4381 1.404 . S
C4380 C4383 1.539 . S
C4381 C4377 1.408 . S
C4381 C4380 1.404 . S
C4381 H4393 0.930 . S
C4382 C4378 1.524 . S
C4382 H4394 0.956 . S
C4382 H4395 0.961 . S
C4382 H4396 0.961 . S
C4383 C4380 1.539 . S
C4383 H4397 0.958 . S
C4383 H4398 0.961 . S
C4383 H4399 0.960 . S
H4384 C4368 0.931 . S
H4385 C4373 0.929 . S
H4386 C4374 0.960 . S
H4387 C4374 0.962 . S
H4388 C4374 0.960 . S
H4389 C4375 0.961 . S
H4390 C4375 0.961 . S
H4391 C4375 0.961 . S
H4392 C4376 0.931 . S
H4393 C4381 0.930 . S
H4394 C4382 0.956 . S
H4395 C4382 0.961 . S
H4396 C4382 0.961 . S
H4397 C4383 0.958 . S
H4398 C4383 0.961 . S
H4399 C4383 0.960 . S
C4400 C4401 1.391 . S
C4400 C4402 1.394 . S
C4400 H4416 0.931 . S
C4401 C4400 1.391 . S
C4401 C4405 1.376 . S
C4402 C4400 1.394 . S
C4402 C4403 1.369 . S
C4402 C4406 1.531 . S
C4403 C4402 1.369 . S
C4403 C4404 1.410 . S
C4403 C4411 1.503 . S
C4404 C4403 1.410 . S
C4404 C4405 1.392 . S
C4404 C4407 1.511 . S
C4405 C4401 1.376 . S
C4405 C4404 1.392 . S
C4405 H4417 0.929 . S
C4406 C4402 1.531 . S
C4406 H4418 0.960 . S
C4406 H4419 0.962 . S
C4406 H4420 0.960 . S
C4407 C4404 1.511 . S
C4407 H4421 0.961 . S
C4407 H4422 0.961 . S
C4407 H4423 0.961 . S
C4408 C4409 1.370 . S
C4408 C4410 1.363 . S
C4408 H4424 0.931 . S
C4409 C4408 1.370 . S
C4409 C4413 1.408 . S
C4410 C4408 1.363 . S
C4410 C4411 1.370 . S
C4410 C4414 1.524 . S
C4411 C4403 1.503 . S
C4411 C4410 1.370 . S
C4411 C4412 1.403 . S
C4412 C4411 1.403 . S
C4412 C4413 1.404 . S
C4412 C4415 1.539 . S
C4413 C4409 1.408 . S
C4413 C4412 1.404 . S
C4413 H4425 0.930 . S
C4414 C4410 1.524 . S
C4414 H4426 0.956 . S
C4414 H4427 0.961 . S
C4414 H4428 0.961 . S
C4415 C4412 1.539 . S
C4415 H4429 0.958 . S
C4415 H4430 0.961 . S
C4415 H4431 0.960 . S
H4416 C4400 0.931 . S
H4417 C4405 0.929 . S
H4418 C4406 0.960 . S
H4419 C4406 0.962 . S
H4420 C4406 0.960 . S
H4421 C4407 0.961 . S
H4422 C4407 0.961 . S
H4423 C4407 0.961 . S
H4424 C4408 0.931 . S
H4425 C4413 0.930 . S
H4426 C4414 0.956 . S
H4427 C4414 0.961 . S
H4428 C4414 0.961 . S
H4429 C4415 0.958 . S
H4430 C4415 0.961 . S
H4431 C4415 0.960 . S
C4432 C4433 1.391 . S
C4432 C4434 1.394 . S
C4432 H4448 0.931 . S
C4433 C4432 1.391 . S
C4433 C4437 1.376 . S
C4434 C4432 1.394 . S
C4434 C4435 1.369 . S
C4434 C4438 1.531 . S
C4435 C4434 1.369 . S
C4435 C4436 1.410 . S
C4435 C4443 1.503 . S
C4436 C4435 1.410 . S
C4436 C4437 1.392 . S
C4436 C4439 1.511 . S
C4437 C4433 1.376 . S
C4437 C4436 1.392 . S
C4437 H4449 0.929 . S
C4438 C4434 1.531 . S
C4438 H4450 0.960 . S
C4438 H4451 0.962 . S
C4438 H4452 0.960 . S
C4439 C4436 1.511 . S
C4439 H4453 0.961 . S
C4439 H4454 0.961 . S
C4439 H4455 0.961 . S
C4440 C4441 1.370 1_455 S
C4440 C4442 1.363 1_455 S
C4440 H4456 0.931 . S
C4441 C4440 1.370 1_655 S
C4441 C4445 1.408 . S
C4442 C4440 1.363 1_655 S
C4442 C4443 1.370 . S
C4442 C4446 1.524 1_655 S
C4443 C4435 1.503 . S
C4443 C4442 1.370 . S
C4443 C4444 1.403 . S
C4444 C4443 1.403 . S
C4444 C4445 1.404 . S
C4444 C4447 1.539 . S
C4445 C4441 1.408 . S
C4445 C4444 1.404 . S
C4445 H4457 0.930 . S
C4446 C4442 1.524 1_455 S
C4446 H4458 0.956 1_455 S
C4446 H4459 0.956 1_455 S
C4446 H4460 0.961 . S
C4447 C4444 1.539 . S
C4447 H4461 0.958 . S
C4447 H4462 0.961 . S
C4447 H4463 0.960 . S
H4448 C4432 0.931 . S
H4449 C4437 0.929 . S
H4450 C4438 0.960 . S
H4451 C4438 0.962 . S
H4452 C4438 0.960 . S
H4453 C4439 0.961 . S
H4454 C4439 0.961 . S
H4455 C4439 0.961 . S
H4456 C4440 0.931 . S
H4457 C4445 0.930 . S
H4458 C4446 0.956 1_655 S
H4459 C4446 0.956 1_655 S
H4460 C4446 0.961 . S
H4461 C4447 0.958 . S
H4462 C4447 0.961 . S
H4463 C4447 0.960 . S
C4464 C4465 1.391 . S
C4464 C4466 1.394 . S
C4464 H4480 0.931 . S
C4465 C4464 1.391 . S
C4465 C4469 1.376 . S
C4466 C4464 1.394 . S
C4466 C4467 1.369 . S
C4466 C4470 1.531 . S
C4467 C4466 1.369 . S
C4467 C4468 1.410 . S
C4467 C4475 1.503 . S
C4468 C4467 1.410 . S
C4468 C4469 1.392 . S
C4468 C4471 1.511 . S
C4469 C4465 1.376 . S
C4469 C4468 1.392 . S
C4469 H4481 0.929 . S
C4470 C4466 1.531 . S
C4470 H4482 0.960 . S
C4470 H4483 0.962 . S
C4470 H4484 0.960 . S
C4471 C4468 1.511 . S
C4471 H4485 0.961 . S
C4471 H4486 0.961 . S
C4471 H4487 0.961 . S
C4472 C4473 1.370 . S
C4472 C4474 1.363 . S
C4472 H4488 0.931 . S
C4473 C4472 1.370 . S
C4473 C4477 1.408 . S
C4474 C4472 1.363 . S
C4474 C4475 1.370 . S
C4474 C4478 1.524 . S
C4475 C4467 1.503 . S
C4475 C4474 1.370 . S
C4475 C4476 1.403 . S
C4476 C4475 1.403 . S
C4476 C4477 1.404 . S
C4476 C4479 1.539 . S
C4477 C4473 1.408 . S
C4477 C4476 1.404 . S
C4477 H4489 0.930 . S
C4478 C4474 1.524 . S
C4478 H4490 0.956 . S
C4478 H4491 0.961 . S
C4478 H4492 0.961 . S
C4479 C4476 1.539 . S
C4479 H4493 0.958 . S
C4479 H4494 0.961 . S
C4479 H4495 0.960 . S
H4480 C4464 0.931 . S
H4481 C4469 0.929 . S
H4482 C4470 0.960 . S
H4483 C4470 0.962 . S
H4484 C4470 0.960 . S
H4485 C4471 0.961 . S
H4486 C4471 0.961 . S
H4487 C4471 0.961 . S
H4488 C4472 0.931 . S
H4489 C4477 0.930 . S
H4490 C4478 0.956 . S
H4491 C4478 0.961 . S
H4492 C4478 0.961 . S
H4493 C4479 0.958 . S
H4494 C4479 0.961 . S
H4495 C4479 0.960 . S
C4496 C4497 1.391 . S
C4496 C4498 1.394 . S
C4496 H4512 0.931 . S
C4497 C4496 1.391 . S
C4497 C4501 1.376 . S
C4498 C4496 1.394 . S
C4498 C4499 1.369 . S
C4498 C4502 1.531 . S
C4499 C4498 1.369 . S
C4499 C4500 1.410 . S
C4499 C4507 1.503 . S
C4500 C4499 1.410 . S
C4500 C4501 1.392 . S
C4500 C4503 1.511 . S
C4501 C4497 1.376 . S
C4501 C4500 1.392 . S
C4501 H4513 0.929 . S
C4502 C4498 1.531 . S
C4502 H4514 0.960 . S
C4502 H4515 0.962 . S
C4502 H4516 0.960 . S
C4503 C4500 1.511 . S
C4503 H4517 0.961 . S
C4503 H4518 0.961 . S
C4503 H4519 0.961 . S
C4504 C4505 1.370 . S
C4504 C4506 1.363 . S
C4504 H4520 0.931 . S
C4505 C4504 1.370 . S
C4505 C4509 1.408 . S
C4506 C4504 1.363 . S
C4506 C4507 1.370 . S
C4506 C4510 1.524 . S
C4507 C4499 1.503 . S
C4507 C4506 1.370 . S
C4507 C4508 1.403 . S
C4508 C4507 1.403 . S
C4508 C4509 1.404 . S
C4508 C4511 1.539 . S
C4509 C4505 1.408 . S
C4509 C4508 1.404 . S
C4509 H4521 0.930 . S
C4510 C4506 1.524 . S
C4510 H4522 0.956 . S
C4510 H4523 0.961 . S
C4510 H4524 0.961 . S
C4511 C4508 1.539 . S
C4511 H4525 0.958 . S
C4511 H4526 0.961 . S
C4511 H4527 0.960 . S
H4512 C4496 0.931 . S
H4513 C4501 0.929 . S
H4514 C4502 0.960 . S
H4515 C4502 0.962 . S
H4516 C4502 0.960 . S
H4517 C4503 0.961 . S
H4518 C4503 0.961 . S
H4519 C4503 0.961 . S
H4520 C4504 0.931 . S
H4521 C4509 0.930 . S
H4522 C4510 0.956 . S
H4523 C4510 0.961 . S
H4524 C4510 0.961 . S
H4525 C4511 0.958 . S
H4526 C4511 0.961 . S
H4527 C4511 0.960 . S
C4528 C4529 1.391 . S
C4528 C4530 1.394 . S
C4528 H4544 0.931 . S
C4529 C4528 1.391 . S
C4529 C4533 1.376 . S
C4530 C4528 1.394 . S
C4530 C4531 1.369 . S
C4530 C4534 1.531 . S
C4531 C4530 1.369 . S
C4531 C4532 1.410 . S
C4531 C4539 1.503 . S
C4532 C4531 1.410 . S
C4532 C4533 1.392 . S
C4532 C4535 1.511 . S
C4533 C4529 1.376 . S
C4533 C4532 1.392 . S
C4533 H4545 0.929 . S
C4534 C4530 1.531 . S
C4534 H4546 0.960 . S
C4534 H4547 0.962 . S
C4534 H4548 0.960 . S
C4535 C4532 1.511 . S
C4535 H4549 0.961 . S
C4535 H4550 0.961 . S
C4535 H4551 0.961 . S
C4536 C4537 1.370 . S
C4536 C4538 1.363 . S
C4536 H4552 0.931 . S
C4537 C4536 1.370 . S
C4537 C4541 1.408 . S
C4538 C4536 1.363 . S
C4538 C4539 1.370 . S
C4538 C4542 1.524 . S
C4539 C4531 1.503 . S
C4539 C4538 1.370 . S
C4539 C4540 1.403 . S
C4540 C4539 1.403 . S
C4540 C4541 1.404 . S
C4540 C4543 1.539 . S
C4541 C4537 1.408 . S
C4541 C4540 1.404 . S
C4541 H4553 0.930 . S
C4542 C4538 1.524 . S
C4542 H4554 0.956 . S
C4542 H4555 0.961 . S
C4542 H4556 0.961 . S
C4543 C4540 1.539 . S
C4543 H4557 0.958 . S
C4543 H4558 0.961 . S
C4543 H4559 0.960 . S
H4544 C4528 0.931 . S
H4545 C4533 0.929 . S
H4546 C4534 0.960 . S
H4547 C4534 0.962 . S
H4548 C4534 0.960 . S
H4549 C4535 0.961 . S
H4550 C4535 0.961 . S
H4551 C4535 0.961 . S
H4552 C4536 0.931 . S
H4553 C4541 0.930 . S
H4554 C4542 0.956 . S
H4555 C4542 0.961 . S
H4556 C4542 0.961 . S
H4557 C4543 0.958 . S
H4558 C4543 0.961 . S
H4559 C4543 0.960 . S
C4560 C4561 1.391 . S
C4560 C4562 1.394 . S
C4560 H4576 0.931 . S
C4561 C4560 1.391 . S
C4561 C4565 1.376 . S
C4562 C4560 1.394 . S
C4562 C4563 1.369 . S
C4562 C4566 1.531 . S
C4563 C4562 1.369 . S
C4563 C4564 1.410 . S
C4563 C4571 1.503 . S
C4564 C4563 1.410 . S
C4564 C4565 1.392 . S
C4564 C4567 1.511 . S
C4565 C4561 1.376 . S
C4565 C4564 1.392 . S
C4565 H4577 0.929 . S
C4566 C4562 1.531 . S
C4566 H4578 0.960 . S
C4566 H4579 0.962 . S
C4566 H4580 0.960 . S
C4567 C4564 1.511 . S
C4567 H4581 0.961 . S
C4567 H4582 0.961 . S
C4567 H4583 0.961 . S
C4568 C4569 1.370 . S
C4568 C4570 1.363 . S
C4568 H4584 0.931 . S
C4569 C4568 1.370 . S
C4569 C4573 1.408 . S
C4570 C4568 1.363 . S
C4570 C4571 1.370 . S
C4570 C4574 1.524 . S
C4571 C4563 1.503 . S
C4571 C4570 1.370 . S
C4571 C4572 1.403 . S
C4572 C4571 1.403 . S
C4572 C4573 1.404 . S
C4572 C4575 1.539 . S
C4573 C4569 1.408 . S
C4573 C4572 1.404 . S
C4573 H4585 0.930 . S
C4574 C4570 1.524 . S
C4574 H4586 0.956 . S
C4574 H4587 0.961 . S
C4574 H4588 0.961 . S
C4575 C4572 1.539 . S
C4575 H4589 0.958 . S
C4575 H4590 0.961 . S
C4575 H4591 0.960 . S
H4576 C4560 0.931 . S
H4577 C4565 0.929 . S
H4578 C4566 0.960 . S
H4579 C4566 0.962 . S
H4580 C4566 0.960 . S
H4581 C4567 0.961 . S
H4582 C4567 0.961 . S
H4583 C4567 0.961 . S
H4584 C4568 0.931 . S
H4585 C4573 0.930 . S
H4586 C4574 0.956 . S
H4587 C4574 0.961 . S
H4588 C4574 0.961 . S
H4589 C4575 0.958 . S
H4590 C4575 0.961 . S
H4591 C4575 0.960 . S
C4592 C4593 1.391 . S
C4592 C4594 1.394 . S
C4592 H4608 0.931 1_554 S
C4593 C4592 1.391 . S
C4593 C4597 1.376 . S
C4594 C4592 1.394 . S
C4594 C4595 1.369 . S
C4594 C4598 1.531 1_554 S
C4595 C4594 1.369 . S
C4595 C4596 1.410 . S
C4595 C4603 1.503 . S
C4596 C4595 1.410 . S
C4596 C4597 1.392 . S
C4596 C4599 1.511 . S
C4597 C4593 1.376 . S
C4597 C4596 1.392 . S
C4597 H4609 0.929 . S
C4598 C4594 1.531 1_556 S
C4598 H4610 0.960 . S
C4598 H4611 0.962 . S
C4598 H4612 0.960 . S
C4599 C4596 1.511 . S
C4599 H4613 0.961 . S
C4599 H4614 0.961 . S
C4599 H4615 0.961 . S
C4600 C4601 1.370 . S
C4600 C4602 1.363 . S
C4600 H4616 0.931 . S
C4601 C4600 1.370 . S
C4601 C4605 1.408 . S
C4602 C4600 1.363 . S
C4602 C4603 1.370 . S
C4602 C4606 1.524 . S
C4603 C4595 1.503 . S
C4603 C4602 1.370 . S
C4603 C4604 1.403 . S
C4604 C4603 1.403 . S
C4604 C4605 1.404 . S
C4604 C4607 1.539 1_554 S
C4605 C4601 1.408 . S
C4605 C4604 1.404 . S
C4605 H4617 0.930 1_554 S
C4606 C4602 1.524 . S
C4606 H4618 0.956 . S
C4606 H4619 0.961 . S
C4606 H4620 0.961 . S
C4607 C4604 1.539 1_556 S
C4607 H4621 0.958 . S
C4607 H4622 0.961 . S
C4607 H4623 0.960 . S
H4608 C4592 0.931 1_556 S
H4609 C4597 0.929 . S
H4610 C4598 0.960 . S
H4611 C4598 0.962 . S
H4612 C4598 0.960 . S
H4613 C4599 0.961 . S
H4614 C4599 0.961 . S
H4615 C4599 0.961 . S
H4616 C4600 0.931 . S
H4617 C4605 0.930 1_556 S
H4618 C4606 0.956 . S
H4619 C4606 0.961 . S
H4620 C4606 0.961 . S
H4621 C4607 0.958 . S
H4622 C4607 0.961 . S
H4623 C4607 0.960 . S
C4624 C4625 1.391 . S
C4624 C4626 1.394 . S
C4624 H4640 0.931 . S
C4625 C4624 1.391 . S
C4625 C4629 1.376 . S
C4626 C4624 1.394 . S
C4626 C4627 1.369 . S
C4626 C4630 1.531 . S
C4627 C4626 1.369 . S
C4627 C4628 1.410 . S
C4627 C4635 1.503 . S
C4628 C4627 1.410 . S
C4628 C4629 1.392 . S
C4628 C4631 1.511 . S
C4629 C4625 1.376 . S
C4629 C4628 1.392 . S
C4629 H4641 0.929 . S
C4630 C4626 1.531 . S
C4630 H4642 0.960 . S
C4630 H4643 0.962 . S
C4630 H4644 0.960 . S
C4631 C4628 1.511 . S
C4631 H4645 0.961 . S
C4631 H4646 0.961 . S
C4631 H4647 0.961 . S
C4632 C4633 1.370 . S
C4632 C4634 1.363 . S
C4632 H4648 0.931 . S
C4633 C4632 1.370 . S
C4633 C4637 1.408 . S
C4634 C4632 1.363 . S
C4634 C4635 1.370 . S
C4634 C4638 1.524 . S
C4635 C4627 1.503 . S
C4635 C4634 1.370 . S
C4635 C4636 1.403 . S
C4636 C4635 1.403 . S
C4636 C4637 1.404 . S
C4636 C4639 1.539 . S
C4637 C4633 1.408 . S
C4637 C4636 1.404 . S
C4637 H4649 0.930 . S
C4638 C4634 1.524 . S
C4638 H4650 0.956 . S
C4638 H4651 0.961 . S
C4638 H4652 0.961 . S
C4639 C4636 1.539 . S
C4639 H4653 0.958 . S
C4639 H4654 0.961 . S
C4639 H4655 0.960 . S
H4640 C4624 0.931 . S
H4641 C4629 0.929 . S
H4642 C4630 0.960 . S
H4643 C4630 0.962 . S
H4644 C4630 0.960 . S
H4645 C4631 0.961 . S
H4646 C4631 0.961 . S
H4647 C4631 0.961 . S
H4648 C4632 0.931 . S
H4649 C4637 0.930 . S
H4650 C4638 0.956 . S
H4651 C4638 0.961 . S
H4652 C4638 0.961 . S
H4653 C4639 0.958 . S
H4654 C4639 0.961 . S
H4655 C4639 0.960 . S
C4656 C4657 1.391 . S
C4656 C4658 1.394 . S
C4656 H4672 0.931 . S
C4657 C4656 1.391 . S
C4657 C4661 1.376 . S
C4658 C4656 1.394 . S
C4658 C4659 1.369 . S
C4658 C4662 1.531 . S
C4659 C4658 1.369 . S
C4659 C4660 1.410 . S
C4659 C4667 1.503 . S
C4660 C4659 1.410 . S
C4660 C4661 1.392 . S
C4660 C4663 1.511 . S
C4661 C4657 1.376 . S
C4661 C4660 1.392 . S
C4661 H4673 0.929 . S
C4662 C4658 1.531 . S
C4662 H4674 0.960 . S
C4662 H4675 0.962 . S
C4662 H4676 0.960 . S
C4663 C4660 1.511 . S
C4663 H4677 0.961 . S
C4663 H4678 0.961 . S
C4663 H4679 0.961 . S
C4664 C4665 1.370 . S
C4664 C4666 1.363 . S
C4664 H4680 0.931 . S
C4665 C4664 1.370 . S
C4665 C4669 1.408 1_554 S
C4666 C4664 1.363 . S
C4666 C4667 1.370 . S
C4666 C4670 1.524 . S
C4667 C4659 1.503 . S
C4667 C4666 1.370 . S
C4667 C4668 1.403 1_554 S
C4668 C4667 1.403 1_556 S
C4668 C4669 1.404 . S
C4668 C4671 1.539 . S
C4669 C4665 1.408 1_556 S
C4669 C4668 1.404 . S
C4669 H4681 0.930 . S
C4670 C4666 1.524 . S
C4670 H4682 0.956 . S
C4670 H4683 0.961 . S
C4670 H4684 0.961 . S
C4671 C4668 1.539 . S
C4671 H4685 0.958 . S
C4671 H4686 0.961 . S
C4671 H4687 0.960 . S
H4672 C4656 0.931 . S
H4673 C4661 0.929 . S
H4674 C4662 0.960 . S
H4675 C4662 0.962 . S
H4676 C4662 0.960 . S
H4677 C4663 0.961 . S
H4678 C4663 0.961 . S
H4679 C4663 0.961 . S
H4680 C4664 0.931 . S
H4681 C4669 0.930 . S
H4682 C4670 0.956 . S
H4683 C4670 0.961 . S
H4684 C4670 0.961 . S
H4685 C4671 0.958 . S
H4686 C4671 0.961 . S
H4687 C4671 0.960 . S
C4688 C4689 1.391 . S
C4688 C4690 1.394 . S
C4688 H4704 0.931 . S
C4689 C4688 1.391 . S
C4689 C4693 1.376 . S
C4690 C4688 1.394 . S
C4690 C4691 1.369 . S
C4690 C4694 1.531 . S
C4691 C4690 1.369 . S
C4691 C4692 1.410 . S
C4691 C4699 1.503 . S
C4692 C4691 1.410 . S
C4692 C4693 1.392 . S
C4692 C4695 1.511 . S
C4693 C4689 1.376 . S
C4693 C4692 1.392 . S
C4693 H4705 0.929 . S
C4694 C4690 1.531 . S
C4694 H4706 0.960 . S
C4694 H4707 0.962 . S
C4694 H4708 0.960 . S
C4695 C4692 1.511 . S
C4695 H4709 0.961 . S
C4695 H4710 0.961 . S
C4695 H4711 0.961 . S
C4696 C4697 1.370 . S
C4696 C4698 1.363 . S
C4696 H4712 0.931 . S
C4697 C4696 1.370 . S
C4697 C4701 1.408 . S
C4698 C4696 1.363 . S
C4698 C4699 1.370 . S
C4698 C4702 1.524 . S
C4699 C4691 1.503 . S
C4699 C4698 1.370 . S
C4699 C4700 1.403 . S
C4700 C4699 1.403 . S
C4700 C4701 1.404 . S
C4700 C4703 1.539 . S
C4701 C4697 1.408 . S
C4701 C4700 1.404 . S
C4701 H4713 0.930 . S
C4702 C4698 1.524 . S
C4702 H4714 0.956 . S
C4702 H4715 0.961 . S
C4702 H4716 0.961 . S
C4703 C4700 1.539 . S
C4703 H4717 0.958 . S
C4703 H4718 0.961 . S
C4703 H4719 0.960 . S
H4704 C4688 0.931 . S
H4705 C4693 0.929 . S
H4706 C4694 0.960 . S
H4707 C4694 0.962 . S
H4708 C4694 0.960 . S
H4709 C4695 0.961 . S
H4710 C4695 0.961 . S
H4711 C4695 0.961 . S
H4712 C4696 0.931 . S
H4713 C4701 0.930 . S
H4714 C4702 0.956 . S
H4715 C4702 0.961 . S
H4716 C4702 0.961 . S
H4717 C4703 0.958 . S
H4718 C4703 0.961 . S
H4719 C4703 0.960 . S
C4720 C4721 1.391 . S
C4720 C4722 1.394 . S
C4720 H4736 0.931 . S
C4721 C4720 1.391 . S
C4721 C4725 1.376 . S
C4722 C4720 1.394 . S
C4722 C4723 1.369 . S
C4722 C4726 1.531 . S
C4723 C4722 1.369 . S
C4723 C4724 1.410 . S
C4723 C4731 1.503 . S
C4724 C4723 1.410 . S
C4724 C4725 1.392 . S
C4724 C4727 1.511 . S
C4725 C4721 1.376 . S
C4725 C4724 1.392 . S
C4725 H4737 0.929 . S
C4726 C4722 1.531 . S
C4726 H4738 0.960 . S
C4726 H4739 0.962 . S
C4726 H4740 0.960 . S
C4727 C4724 1.511 . S
C4727 H4741 0.961 . S
C4727 H4742 0.961 . S
C4727 H4743 0.961 . S
C4728 C4729 1.370 . S
C4728 C4730 1.363 . S
C4728 H4744 0.931 . S
C4729 C4728 1.370 . S
C4729 C4733 1.408 . S
C4730 C4728 1.363 . S
C4730 C4731 1.370 . S
C4730 C4734 1.524 . S
C4731 C4723 1.503 . S
C4731 C4730 1.370 . S
C4731 C4732 1.403 . S
C4732 C4731 1.403 . S
C4732 C4733 1.404 . S
C4732 C4735 1.539 . S
C4733 C4729 1.408 . S
C4733 C4732 1.404 . S
C4733 H4745 0.930 . S
C4734 C4730 1.524 . S
C4734 H4746 0.956 . S
C4734 H4747 0.961 . S
C4734 H4748 0.961 . S
C4735 C4732 1.539 . S
C4735 H4749 0.958 . S
C4735 H4750 0.961 . S
C4735 H4751 0.960 . S
H4736 C4720 0.931 . S
H4737 C4725 0.929 . S
H4738 C4726 0.960 . S
H4739 C4726 0.962 . S
H4740 C4726 0.960 . S
H4741 C4727 0.961 . S
H4742 C4727 0.961 . S
H4743 C4727 0.961 . S
H4744 C4728 0.931 . S
H4745 C4733 0.930 . S
H4746 C4734 0.956 . S
H4747 C4734 0.961 . S
H4748 C4734 0.961 . S
H4749 C4735 0.958 . S
H4750 C4735 0.961 . S
H4751 C4735 0.960 . S
C1681 C105 1.859 . S
C1689 C392 1.690 . S
C1713 C65 2.253 . S
C1721 C483 2.189 . S
C1745 C73 1.563 . S
C1753 C560 1.494 . S
C1785 C658 1.456 . S
C1777 C92 1.590 . S
C1809 C17 1.595 . S
C1817 C742 1.544 . S
C1849 C814 0.965 . S
C1841 C37 0.964 . S
C1881 C903 0.930 . S
C1873 C49 0.925 . S
C1905 C8 1.533 . S
C1913 C980 1.321 . S
C1945 C399 2.033 . S
C1937 C231 2.077 . S
C1969 C241 0.725 . S
C1977 C490 0.766 . S
C2009 C567 1.200 . S
C2001 C273 1.200 . S
C2041 C644 1.541 . S
C2033 C171 1.643 . S
C2065 C227 2.112 . S
C2073 C728 1.960 . S
C2105 C830 1.139 . S
C2097 C245 1.200 . S
C2137 C910 0.819 . S
C2129 C269 0.797 . S
C2169 C987 1.525 . S
C2161 C175 1.639 . S
C2201 C406 1.404 . S
C2193 C162 1.486 . S
C2225 C289 1.981 . S
C2233 C1071 1.902 1_556 S
C2265 C1159 2.211 . S
C2257 C330 2.407 . S
C2297 C1232 0.541 . S
C2289 C317 0.504 . S
C2321 C120 0.958 . S
C2329 C994 0.953 . S
C2353 C134 1.471 . S
C2361 C574 1.434 . S
C2385 C331 2.235 . S
C2393 C1323 2.153 . S
C2425 C1400 0.683 . S
C2417 C303 0.681 . S
C2457 C403 1.719 . S
C2449 C59 1.843 . S
C2489 C1418 2.206 . S
C2481 C107 2.254 . S
C2513 C91 1.626 . S
C2521 C571 1.574 . S
C2545 C78 1.620 . S
C2553 C1318 1.498 . S
C2585 C730 1.573 . S
C2577 C7 1.569 . S
C2609 C51 1.055 . S
C2617 C1162 0.945 . S
C2649 C914 0.999 . S
C2641 C31 0.999 . S
C2681 C1495 1.365 . S
C2673 C22 1.513 . S
C2713 C410 2.055 . S
C2705 C143 2.162 . S
C2745 C1402 0.723 . S
C2737 C315 0.696 . S
C2769 C115 1.295 . S
C2777 C578 1.229 . S
C2801 C287 1.671 . S
C2809 C1327 1.562 . S
C2833 C147 2.027 . S
C2841 C739 1.995 . S
C2873 C1155 1.166 . S
C2865 C311 1.263 . S
C2897 C119 0.825 . S
C2905 C898 0.805 . S
C2929 C283 1.657 . S
C2937 C1502 1.566 . S
C2961 C190 1.497 . S
C2969 C394 1.409 1_554 S
C2993 C177 2.005 . S
C3001 C1082 1.940 . S
C3025 C260 2.411 . S
C3033 C812 2.263 . S
C3057 C247 0.551 . S
C3065 C1243 0.620 . S
C3097 C1486 0.921 . S
C3089 C274 0.924 1_565 S
C3121 C218 1.502 . S
C3129 C562 1.463 . S
C3161 C662 2.180 . S
C3153 C261 2.262 . S
C3193 C487 0.731 . S
C3185 C205 0.731 . S
C3217 C77 1.843 . S
C3225 C1568 1.711 . S
C3257 C1407 2.187 . S
C3249 C93 2.251 . S
C3281 C101 1.586 . S
C3289 C1652 1.500 . S
C3313 C64 1.586 . S
C3321 C1330 1.488 . S
C3345 C45 1.599 . S
C3353 C1078 1.549 . S
C3385 C1150 0.943 . S
C3377 C9 0.978 . S
C3417 C1239 0.935 . S
C3409 C21 0.948 . S
C3449 C1484 1.317 . S
C3441 C36 1.537 . S
C3481 C1575 2.032 . S
C3473 C259 2.076 . S
C3505 C185 0.733 . S
C3513 C1414 0.701 . S
C3545 C1659 1.199 . S
C3537 C203 1.195 . S
C3577 C1316 1.542 . S
C3569 C213 1.643 . S
C3609 C1064 1.943 . S
C3601 C255 2.137 . S
C3633 C189 1.169 . S
C3641 C1166 1.152 . S
C3673 C1246 0.757 . S
C3665 C199 0.810 . S
C3697 C217 1.639 . S
C3705 C1491 1.526 . S
C3737 C1582 1.415 . S
C3729 C316 1.485 . S
C3761 C135 1.981 . S
C3769 C735 1.912 . S
C3801 C823 2.232 . S
C3793 C148 2.398 . S
C3833 C896 0.553 . S
C3825 C163 0.546 . S
C3865 C1498 0.942 . S
C3857 C302 0.902 . S
C3889 C288 1.464 1_554 S
C3897 C1666 1.437 . S
C3929 C651 2.143 . S
C3921 C149 2.218 . S
C3961 C476 0.681 . S
C3953 C121 0.691 . S
C3985 C87 1.845 . S
C3993 C1579 1.718 . S
C4025 C494 2.216 . S
C4017 C79 2.265 . S
C4049 C63 1.624 . S
C4057 C1663 1.572 . S
C4081 C106 1.599 . S
C4089 C646 1.482 . S
C4113 C35 1.571 . S
C4121 C1066 1.574 . S
C4153 C826 0.954 . S
C4145 C23 1.047 . S
C4177 C3 0.945 . S
C4185 C1250 0.978 . S
C4209 C50 1.487 . S
C4217 C991 1.383 . S
C4249 C1586 2.072 . S
C4241 C325 2.158 . S
C4273 C161 0.786 . S
C4281 C478 0.762 . S
C4313 C1670 1.252 . S
C4305 C297 1.284 . S
C4337 C133 1.638 . S
C4345 C655 1.599 . S
C4369 C329 2.029 . S
C4377 C1075 1.995 . S
C4409 C819 1.149 . S
C4401 C157 1.249 . S
C4433 C301 0.871 . S
C4441 C1234 0.840 1_655 S
C4473 C998 1.556 . S
C4465 C129 1.662 . S
C4505 C1570 1.404 . S
C4497 C246 1.481 . S
C4537 C746 1.957 1_665 S
C4529 C219 2.021 . S
C4561 C232 2.410 . S
C4569 C1148 2.261 . S
C4601 C907 0.626 . S
C4593 C191 0.617 . S
C4625 C204 0.954 . S
C4633 C982 0.931 . S
C4657 C176 1.463 . S
C4665 C1654 1.439 1_554 S
C4697 C1334 2.196 . S
C4689 C233 2.263 1_565 S
C4729 C1411 0.734 . S
C4721 C275 0.732 . S
