# Generated by pormake.
# Topology pth, (4,4)-cn, num edge types: 1
# Building blocks:
#     Node 0, Type 0, BuildingBlock: CEKHIL_clean_sbu_0, # of connection points: 4
#     Node 1, Type 0, BuildingBlock: CEKHIL_clean_sbu_0, # of connection points: 4
#     Node 2, Type 0, BuildingBlock: CEKHIL_clean_sbu_0, # of connection points: 4
#     Node 3, Type 1, BuildingBlock: NAWXER_clean_sbu_0, # of connection points: 4
#     Node 4, Type 1, BuildingBlock: NAWXER_clean_sbu_0, # of connection points: 4
#     Node 5, Type 1, BuildingBlock: NAWXER_clean_sbu_0, # of connection points: 4
#     Edge 6, Type (0, 1), BuildingBlock: TEMPAE_clean_linker_10, # of connection points: 2
#     Edge 7, Type (0, 1), BuildingBlock: TEMPAE_clean_linker_10, # of connection points: 2
#     Edge 8, Type (0, 1), BuildingBlock: TEMPAE_clean_linker_10, # of connection points: 2
#     Edge 9, Type (0, 1), BuildingBlock: TEMPAE_clean_linker_10, # of connection points: 2
#     Edge 10, Type (0, 1), BuildingBlock: TEMPAE_clean_linker_10, # of connection points: 2
#     Edge 11, Type (0, 1), BuildingBlock: TEMPAE_clean_linker_10, # of connection points: 2
#     Edge 12, Type (0, 1), BuildingBlock: TEMPAE_clean_linker_10, # of connection points: 2
#     Edge 13, Type (0, 1), BuildingBlock: TEMPAE_clean_linker_10, # of connection points: 2
#     Edge 14, Type (0, 1), BuildingBlock: TEMPAE_clean_linker_10, # of connection points: 2
#     Edge 15, Type (0, 1), BuildingBlock: TEMPAE_clean_linker_10, # of connection points: 2
#     Edge 16, Type (0, 1), BuildingBlock: TEMPAE_clean_linker_10, # of connection points: 2
#     Edge 17, Type (0, 1), BuildingBlock: TEMPAE_clean_linker_10, # of connection points: 2
# Relax obj value: 0.003
# Max RMSD: 0.042
# Mean RMSD: 0.026
data_MOF--net-pth--node1-CEKHIL_clean_sbu_0--node2-NAWXER_clean_sbu_0--edge1-TEMPAE_clean_linker_10
_symmetry_space_group_name_H-M    P1
_symmetry_Int_Tables_number       1
_symmetry_cell_setting            triclinic
loop_
_symmetry_equiv_pos_as_xyz
'x, y, z'
_cell_length_a     22.907709
_cell_length_b     22.949461
_cell_length_c     58.133884
_cell_angle_alpha  90.953118
_cell_angle_beta   89.98891
_cell_angle_gamma 120.38093
loop_
_atom_site_label
_atom_site_type_symbol
_atom_site_fract_x
_atom_site_fract_y
_atom_site_fract_z
_atom_type_partial_charge
Co0 Co 0.03758 0.051 0.08588 0.0
O1 O 0.98644 0.98155 0.10769 0.0
O2 O 0.07652 0.99328 0.08948 0.0
C3 C 0.04635 0.13771 0.1076 0.0
O4 O 0.10313 0.11911 0.06251 0.0
Co5 Co 0.97164 0.12573 0.06436 0.0
O6 O 0.06621 0.19171 0.0561 0.0
C7 C 0.93104 0.98892 0.04716 0.0
C8 C 0.02835 0.96025 0.10419 0.0
C9 C 0.1111 0.17479 0.05439 0.0
O10 O 0.97643 0.9898 0.06039 0.0
O11 O 0.91831 0.03723 0.04687 0.0
O12 O 0.08746 0.11515 0.11057 0.0
O13 O 0.9967 0.10274 0.09329 0.0
Co14 Co 0.03291 0.05899 0.40095 0.0
O15 O 0.98284 0.07143 0.37676 0.0
O16 O 0.05683 0.15314 0.39977 0.0
C17 C 0.06318 0.99564 0.37938 0.0
O18 O 0.09769 0.06704 0.42682 0.0
Co19 Co 0.98851 0.91764 0.41927 0.0
O20 O 0.07505 0.96334 0.43666 0.0
C21 C 0.91509 0.98579 0.43447 0.0
C22 C 0.01478 0.13507 0.38246 0.0
C23 C 0.11092 0.02745 0.43833 0.0
O24 O 0.95767 0.0391 0.42361 0.0
O25 O 0.91637 0.93069 0.43369 0.0
O26 O 0.09769 0.06109 0.37858 0.0
O27 O 0.00888 0.9703 0.39158 0.0
Co28 Co 0.02843 0.04855 0.73397 0.0
O29 O 0.09731 0.08531 0.71078 0.0
O30 O 0.06884 0.99221 0.72979 0.0
C31 C 0.95144 0.05959 0.71297 0.0
O32 O 0.95714 0.99275 0.75819 0.0
Co33 Co 0.97246 0.13194 0.75691 0.0
O34 O 0.8959 0.0425 0.76534 0.0
C35 C 0.10486 0.15245 0.77241 0.0
C36 C 0.10537 0.03398 0.71387 0.0
C37 C 0.90498 0.99239 0.76679 0.0
O38 O 0.09757 0.10455 0.75867 0.0
O39 O 0.06202 0.17267 0.77357 0.0
O40 O 0.95946 0.00792 0.70988 0.0
O41 O 0.99267 0.10503 0.72757 0.0
C42 C 0.11085 0.67633 0.27284 0.0
C43 C 0.08312 0.5077 0.21373 0.0
O44 O 0.15805 0.67735 0.26098 0.0
Zn45 Zn 0.10124 0.59489 0.24257 0.0
O46 O 0.04952 0.62973 0.2692 0.0
Zn47 Zn 0.99323 0.54428 0.24719 0.0
O48 O 0.95032 0.47274 0.26967 0.0
O49 O 0.06095 0.51625 0.26763 0.0
O50 O 0.02765 0.49803 0.22254 0.0
O51 O 0.13903 0.55897 0.22014 0.0
O52 O 0.05042 0.62713 0.22018 0.0
O53 O 0.94149 0.57282 0.22825 0.0
C54 C 1.00378 0.4737 0.27635 0.0
C55 C 0.99062 0.61584 0.21635 0.0
C56 C 0.62956 0.10143 0.6058 0.0
C57 C 0.4867 0.1144 0.54521 0.0
O58 O 0.58257 0.04375 0.59817 0.0
Zn59 Zn 0.50228 1.00332 0.57286 0.0
O60 O 0.63613 0.15532 0.59737 0.0
Zn61 Zn 0.5603 0.11158 0.57579 0.0
O62 O 0.47687 0.06391 0.59885 0.0
O63 O 0.42173 0.95397 0.59186 0.0
O64 O 0.534 0.16405 0.55634 0.0
O65 O 0.47183 0.05418 0.54988 0.0
O66 O 0.53071 0.95666 0.55124 0.0
O67 O 0.59913 0.06733 0.55198 0.0
C68 C 0.42807 0.00462 0.60333 0.0
C69 C 0.58378 0.00867 0.54416 0.0
C70 C 0.44337 0.49146 0.93915 0.0
C71 C 0.58567 0.6465 0.87861 0.0
O72 O 0.4347 0.53622 0.92967 0.0
Zn73 Zn 0.512 0.57107 0.90889 0.0
O74 O 0.49189 0.48286 0.93253 0.0
Zn75 Zn 0.57127 0.52194 0.90777 0.0
O76 O 0.65264 0.55875 0.92742 0.0
O77 O 0.5949 0.6112 0.93241 0.0
O78 O 0.60099 0.60187 0.8839 0.0
O79 O 0.53819 0.64879 0.88921 0.0
O80 O 0.47838 0.49024 0.88439 0.0
O81 O 0.54143 0.44293 0.88714 0.0
C82 C 0.64473 0.60356 0.9378 0.0
C83 C 0.49239 0.44526 0.87777 0.0
C84 C 0.02389 0.23323 0.1144 0.0
C85 C 0.05414 0.19631 0.12128 0.0
C86 C 0.03153 0.28851 0.12778 0.0
C87 C 0.0687 0.30588 0.14877 0.0
C88 C 0.09954 0.2688 0.15563 0.0
C89 C 0.09258 0.21517 0.14169 0.0
C90 C 0.99917 0.32778 0.11962 0.0
C91 C 0.13807 0.28424 0.17813 0.0
C92 C 0.1314 0.47459 0.18042 0.0
C93 C 0.08038 0.45743 0.19673 0.0
C94 C 0.12715 0.42649 0.16408 0.0
C95 C 0.07152 0.35938 0.16449 0.0
C96 C 0.02014 0.34197 0.181 0.0
C97 C 0.02485 0.39126 0.19669 0.0
C98 C 0.18227 0.4473 0.14646 0.0
C99 C 0.96089 0.27072 0.1825 0.0
H100 H 0.9947 0.21922 0.09853 0.0
H101 H 0.11591 0.18665 0.14716 0.0
H102 H 0.95836 0.32052 0.13157 0.0
H103 H 0.03705 0.3826 0.11966 0.0
H104 H 0.97718 0.31182 0.10204 0.0
H105 H 0.16034 0.2516 0.18071 0.0
H106 H 0.1794 0.33778 0.17883 0.0
H107 H 0.10371 0.27686 0.19266 0.0
H108 H 0.17408 0.52578 0.18023 0.0
H109 H 0.98539 0.37744 0.20934 0.0
H110 H 0.15983 0.43391 0.1289 0.0
H111 H 0.20956 0.41948 0.14917 0.0
H112 H 0.21948 0.50235 0.14737 0.0
H113 H 0.93321 0.25459 0.16583 0.0
H114 H 0.9248 0.26565 0.19617 0.0
H115 H 0.97944 0.23549 0.18612 0.0
C116 C 0.83735 0.9446 0.46815 0.0
C117 C 0.86367 0.9882 0.44945 0.0
C118 C 0.79018 0.94671 0.48305 0.0
C119 C 0.76722 0.99245 0.47892 0.0
C120 C 0.79243 0.03568 0.45977 0.0
C121 C 0.84106 0.03369 0.44544 0.0
C122 C 0.76623 0.90108 0.50358 0.0
C123 C 0.76819 0.08417 0.45449 0.0
C124 C 0.60443 0.95576 0.50925 0.0
C125 C 0.62967 1.00294 0.52751 0.0
C126 C 0.6484 0.95309 0.49286 0.0
C127 C 0.71931 0.99699 0.49531 0.0
C128 C 0.74485 0.04383 0.51401 0.0
C129 C 0.6997 0.04698 0.52962 0.0
C130 C 0.61904 0.90373 0.47283 0.0
C131 C 0.82 0.08997 0.51779 0.0
H132 H 0.85496 0.9097 0.47154 0.0
H133 H 0.8608 0.06722 0.43096 0.0
H134 H 0.77959 0.93201 0.51968 0.0
H135 H 0.71036 0.86846 0.50304 0.0
H136 H 0.78884 0.86824 0.50434 0.0
H137 H 0.78924 0.1111 0.43815 0.0
H138 H 0.71212 0.05656 0.45327 0.0
H139 H 0.78315 0.12218 0.46865 0.0
H140 H 0.55024 0.92221 0.50745 0.0
H141 H 0.71937 0.08326 0.54383 0.0
H142 H 0.63664 0.86679 0.47349 0.0
H143 H 0.63705 0.93096 0.4564 0.0
H144 H 0.56282 0.87562 0.47271 0.0
H145 H 0.84495 0.05952 0.51951 0.0
H146 H 0.83165 0.12263 0.53342 0.0
H147 H 0.84255 0.12278 0.50271 0.0
C148 C 0.87868 0.9092 0.79804 0.0
C149 C 0.85607 0.93486 0.78069 0.0
C150 C 0.83283 0.86158 0.81357 0.0
C151 C 0.76254 0.83741 0.81116 0.0
C152 C 0.73941 0.86107 0.79294 0.0
C153 C 0.78655 0.91046 0.77823 0.0
C154 C 0.85985 0.83906 0.83307 0.0
C155 C 0.66492 0.83488 0.78917 0.0
C156 C 0.64443 0.67245 0.84091 0.0
C157 C 0.625 0.69498 0.86044 0.0
C158 C 0.68723 0.71795 0.82437 0.0
C159 C 0.71337 0.7881 0.82784 0.0
C160 C 0.69338 0.81108 0.84748 0.0
C161 C 0.64846 0.76406 0.86337 0.0
C162 C 0.70513 0.69095 0.80333 0.0
C163 C 0.72138 0.88549 0.85215 0.0
H164 H 0.93253 0.92888 0.80018 0.0
H165 H 0.76907 0.93038 0.7648 0.0
H166 H 0.84547 0.85215 0.84978 0.0
H167 H 0.83709 0.78341 0.83236 0.0
H168 H 0.91581 0.86286 0.83265 0.0
H169 H 0.65493 0.85448 0.77321 0.0
H170 H 0.63676 0.77885 0.78812 0.0
H171 H 0.64446 0.84984 0.80396 0.0
H172 H 0.62613 0.61893 0.83861 0.0
H173 H 0.63421 0.78158 0.87862 0.0
H174 H 0.75998 0.70844 0.80356 0.0
H175 H 0.69463 0.71065 0.78752 0.0
H176 H 0.67647 0.63485 0.80232 0.0
H177 H 0.77736 0.91167 0.85363 0.0
H178 H 0.7011 0.89517 0.86821 0.0
H179 H 0.70911 0.90824 0.83761 0.0
C180 C 0.95668 0.84595 0.12032 0.0
C181 C 0.02122 0.90225 0.11716 0.0
C182 C 0.94682 0.79367 0.13494 0.0
C183 C 1.00246 0.79916 0.14746 0.0
C184 C 0.06806 0.85561 0.14401 0.0
C185 C 0.07682 0.90599 0.12856 0.0
C186 C 0.87659 0.73332 0.13739 0.0
C187 C 0.12849 0.86432 0.15742 0.0
C188 C 0.96889 0.70669 0.20418 0.0
C189 C 0.98142 0.65473 0.19825 0.0
C190 C 0.97456 0.75355 0.18772 0.0
C191 C 0.99178 0.7472 0.16473 0.0
C192 C 1.00115 0.69256 0.15851 0.0
C193 C 0.99713 0.64775 0.17546 0.0
C194 C 0.96556 0.8118 0.19522 0.0
C195 C 0.01754 0.68264 0.13412 0.0
H196 H 0.91366 0.84316 0.11145 0.0
H197 H 0.12653 0.95009 0.12637 0.0
H198 H 0.87769 0.68584 0.13486 0.0
H199 H 0.85783 0.73279 0.15502 0.0
H200 H 0.84015 0.73367 0.12487 0.0
H201 H 0.17607 0.91067 0.15263 0.0
H202 H 0.12009 0.86719 0.17611 0.0
H203 H 0.13491 0.82003 0.1545 0.0
H204 H 0.95844 0.71291 0.22197 0.0
H205 H 0.00785 0.60802 0.17104 0.0
H206 H 0.92621 0.81307 0.18449 0.0
H207 H 0.01351 0.86016 0.19271 0.0
H208 H 0.95093 0.80875 0.21357 0.0
H209 H 0.98099 0.68397 0.12192 0.0
H210 H 0.01649 0.63401 0.13163 0.0
H211 H 0.06863 0.72439 0.12963 0.0
C212 C 0.23047 0.1151 0.44938 0.0
C213 C 0.16953 0.05621 0.45447 0.0
C214 C 0.28835 0.13722 0.46345 0.0
C215 C 0.28455 0.10036 0.4833 0.0
C216 C 0.22189 0.04321 0.48915 0.0
C217 C 0.16559 0.02147 0.47456 0.0
C218 C 0.3543 0.19773 0.4564 0.0
C219 C 0.21486 1.00308 0.51037 0.0
C220 C 0.4292 0.08374 0.5071 0.0
C221 C 0.44637 0.12345 0.52727 0.0
C222 C 0.38061 0.0805 0.49163 0.0
C223 C 0.34664 0.11626 0.49678 0.0
C224 C 0.36654 0.15952 0.51652 0.0
C225 C 0.41685 0.16316 0.53146 0.0
C226 C 0.36238 0.03498 0.47057 0.0
C227 C 0.3311 0.19777 0.52285 0.0
H228 H 0.23382 0.14196 0.43381 0.0
H229 H 0.11836 0.9764 0.47874 0.0
H230 H 0.37883 0.23283 0.47127 0.0
H231 H 0.38945 0.18076 0.45048 0.0
H232 H 0.34726 0.22567 0.44227 0.0
H233 H 0.16133 0.96453 0.51379 0.0
H234 H 0.24415 0.97693 0.50819 0.0
H235 H 0.23582 0.0372 0.52566 0.0
H236 H 0.45221 0.05315 0.50383 0.0
H237 H 0.42956 0.19329 0.5472 0.0
H238 H 0.35932 0.06113 0.45513 0.0
H239 H 0.31189 0.9894 0.4729 0.0
H240 H 0.39964 0.01841 0.46733 0.0
H241 H 0.32483 0.22249 0.50758 0.0
H242 H 0.35897 0.23678 0.53647 0.0
H243 H 0.27976 0.16184 0.52927 0.0
C244 C 0.22707 0.19181 0.78112 0.0
C245 C 0.16555 0.18639 0.78767 0.0
C246 C 0.28592 0.22872 0.79477 0.0
C247 C 0.28276 0.25961 0.81568 0.0
C248 C 0.21994 0.25142 0.82285 0.0
C249 C 0.16248 0.2157 0.80867 0.0
C250 C 0.352 0.23721 0.78629 0.0
C251 C 0.21376 0.28225 0.84522 0.0
C252 C 0.4201 0.32696 0.86229 0.0
C253 C 0.44942 0.39675 0.85954 0.0
C254 C 0.36775 0.28099 0.84741 0.0
C255 C 0.34552 0.30568 0.82918 0.0
C256 C 0.37885 0.3761 0.82543 0.0
C257 C 0.42963 0.42067 0.84082 0.0
C258 C 0.33304 0.20648 0.85222 0.0
C259 C 0.35806 0.40481 0.80598 0.0
H260 H 0.22985 0.16942 0.76489 0.0
H261 H 0.11494 0.21096 0.81401 0.0
H262 H 0.38659 0.29081 0.78187 0.0
H263 H 0.37719 0.22455 0.8 0.0
H264 H 0.345 0.2051 0.77084 0.0
H265 H 0.16033 0.26579 0.84937 0.0
H266 H 0.23597 0.26837 0.85959 0.0
H267 H 0.24243 0.33814 0.84415 0.0
H268 H 0.43479 0.30848 0.87694 0.0
H269 H 0.45244 0.47473 0.83868 0.0
H270 H 0.32622 0.17691 0.83614 0.0
H271 H 0.28193 0.18957 0.85921 0.0
H272 H 0.36174 0.19467 0.86488 0.0
H273 H 0.35389 0.37739 0.7896 0.0
H274 H 0.39446 0.45946 0.80365 0.0
H275 H 0.30755 0.39829 0.80959 0.0
C276 C 0.88619 0.04004 0.67656 0.0
C277 C 0.90369 0.06929 0.69867 0.0
C278 C 0.84326 0.0506 0.6622 0.0
C279 C 0.81529 0.08964 0.67041 0.0
C280 C 0.83212 0.11863 0.69288 0.0
C281 C 0.87707 0.10901 0.70663 0.0
C282 C 0.82799 0.02003 0.63819 0.0
C283 C 0.80177 0.15877 0.70253 0.0
C284 C 0.74379 0.15551 0.62506 0.0
C285 C 0.67598 0.10349 0.62396 0.0
C286 C 0.78959 0.15278 0.64056 0.0
C287 C 0.76651 0.09758 0.65564 0.0
C288 C 0.69724 0.04688 0.65537 0.0
C289 C 0.65311 0.05001 0.63936 0.0
C290 C 0.86326 0.20715 0.63998 0.0
C291 C 0.67006 0.98798 0.67147 0.0
H292 H 0.90735 0.00997 0.67025 0.0
H293 H 0.89042 0.13151 0.72376 0.0
H294 H 0.77324 0.98249 0.6364 0.0
H295 H 0.84013 0.05982 0.62538 0.0
H296 H 0.85703 0.99454 0.63395 0.0
H297 H 0.82004 0.17805 0.72028 0.0
H298 H 0.81426 0.20225 0.69138 0.0
H299 H 0.7458 0.12669 0.70274 0.0
H300 H 0.76173 0.19669 0.61309 0.0
H301 H 0.60053 0.00997 0.63872 0.0
H302 H 0.89387 0.18488 0.63395 0.0
H303 H 0.88164 0.22849 0.6575 0.0
H304 H 0.87236 0.24887 0.62839 0.0
H305 H 0.69107 0.95517 0.66684 0.0
H306 H 0.61395 0.95685 0.67077 0.0
H307 H 0.68606 0.00626 0.68943 0.0
C308 C 0.85645 0.93268 0.01252 0.0
C309 C 0.8925 0.92934 0.03147 0.0
C310 C 0.82037 0.87684 0.99751 0.0
C311 C 0.81928 0.8156 1.00169 0.0
C312 C 0.85566 0.8119 0.02075 0.0
C313 C 0.89215 0.86883 0.03528 0.0
C314 C 0.78284 0.88322 0.97725 0.0
C315 C 0.85486 0.74734 0.02607 0.0
C316 C 0.66575 0.66076 0.97596 0.0
C317 C 0.69209 0.64883 0.95585 0.0
C318 C 0.70742 0.7124 0.99166 0.0
C319 C 0.77697 0.75466 0.98679 0.0
C320 C 0.8044 0.74116 0.96687 0.0
C321 C 0.76162 0.68775 0.95172 0.0
C322 C 0.67624 0.72366 0.01292 0.0
C323 C 0.87797 0.78562 0.96085 0.0
H324 H 0.85678 0.97922 0.00928 0.0
H325 H 0.91956 0.86548 0.04992 0.0
H326 H 0.79847 0.86875 0.96108 0.0
H327 H 0.72768 0.84815 0.97914 0.0
H328 H 0.79195 0.93532 0.97559 0.0
H329 H 0.88736 0.75323 0.04114 0.0
H330 H 0.80232 0.70679 0.02966 0.0
H331 H 0.8724 0.73034 0.01098 0.0
H332 H 0.61183 0.63068 0.97909 0.0
H333 H 0.78173 0.67924 0.93595 0.0
H334 H 0.67617 0.77177 0.01152 0.0
H335 H 0.70654 0.72801 0.02843 0.0
H336 H 0.62334 0.68215 0.01544 0.0
H337 H 0.88776 0.83676 0.95662 0.0
H338 H 0.89273 0.76522 0.94591 0.0
H339 H 0.91082 0.79145 0.97576 0.0
C340 C 0.03184 0.90977 0.34811 0.0
C341 C 0.07916 0.95288 0.36458 0.0
C342 C 0.04612 0.86965 0.33332 0.0
C343 C 0.10822 0.87062 0.33572 0.0
C344 C 0.15597 0.91378 0.3526 0.0
C345 C 0.14138 0.95554 0.36655 0.0
C346 C 0.99456 0.82608 0.31515 0.0
C347 C 0.22152 0.9145 0.3563 0.0
C348 C 0.09423 0.70892 0.31211 0.0
C349 C 0.1239 0.72874 0.29044 0.0
C350 C 0.09353 0.75585 0.32773 0.0
C351 C 0.12097 0.82391 0.32119 0.0
C352 C 0.15371 0.84478 0.29966 0.0
C353 C 0.15551 0.79694 0.28461 0.0
C354 C 0.05983 0.7316 0.35071 0.0
C355 C 0.18213 0.91635 0.29175 0.0
H356 H 0.98403 0.90848 0.34649 0.0
H357 H 0.17777 0.98894 0.3794 0.0
H358 H 0.01871 0.83586 0.298 0.0
H359 H 0.9744 0.77196 0.31882 0.0
H360 H 0.95144 0.8353 0.31432 0.0
H361 H 0.25367 0.95154 0.36989 0.0
H362 H 0.21058 0.8635 0.3613 0.0
H363 H 0.25056 0.92687 0.34008 0.0
H364 H 0.06946 0.65599 0.31653 0.0
H365 H 0.17734 0.81194 0.26767 0.0
H366 H 0.01077 0.73031 0.35077 0.0
H367 H 0.09166 0.76681 0.36473 0.0
H368 H 0.05008 0.68015 0.35452 0.0
H369 H 0.13988 0.92556 0.28822 0.0
H370 H 0.21246 0.92642 0.27585 0.0
H371 H 0.21434 0.95297 0.30537 0.0
C372 C 0.17339 0.97797 0.70494 0.0
C373 C 0.15108 0.02242 0.69883 0.0
C374 C 0.21714 0.96785 0.69052 0.0
C375 C 0.23777 1.00189 0.66932 0.0
C376 C 0.21394 0.04551 0.6629 0.0
C377 C 0.17161 0.05573 0.67779 0.0
C378 C 0.24247 0.922 0.69819 0.0
C379 C 0.23374 0.08213 0.64033 0.0
C380 C 0.40229 0.04478 0.6399 0.0
C381 C 0.38 0.99726 0.6217 0.0
C382 C 0.35705 0.04408 0.65633 0.0
C383 C 0.28729 0.99557 0.65427 0.0
C384 C 0.26475 0.94575 0.63642 0.0
C385 C 0.31159 0.94674 0.62046 0.0
C386 C 0.38366 0.09731 0.67529 0.0
C387 C 0.19072 0.89381 0.6334 0.0
H388 H 0.15767 0.95206 0.72116 0.0
H389 H 0.15396 0.08955 0.6728 0.0
H390 H 0.23072 0.88224 0.6849 0.0
H391 H 0.29833 0.95153 0.70028 0.0
H392 H 0.2199 0.89737 0.71474 0.0
H393 H 0.20738 0.11075 0.63722 0.0
H394 H 0.28909 0.11805 0.6402 0.0
H395 H 0.22186 0.04558 0.62586 0.0
H396 H 0.45531 0.08349 0.64111 0.0
H397 H 0.29412 0.91008 0.60638 0.0
H398 H 0.36424 0.07378 0.6922 0.0
H399 H 0.3656 0.13329 0.67242 0.0
H400 H 0.43985 0.12626 0.67608 0.0
H401 H 0.169 0.8686 0.6499 0.0
H402 H 0.18214 0.85472 0.62017 0.0
H403 H 0.1627 0.91925 0.62813 0.0
C404 C 0.20467 0.28951 0.0449 0.0
C405 C 0.17119 0.2196 0.04068 0.0
C406 C 0.25291 0.33492 0.02952 0.0
C407 C 0.26637 0.30995 0.00898 0.0
C408 C 0.23414 0.23911 1.00499 0.0
C409 C 0.18746 0.19467 0.02107 0.0
C410 C 0.28756 0.40976 0.03487 0.0
C411 C 0.24606 0.21039 0.98313 0.0
C412 C 0.32976 0.42904 0.95808 0.0
C413 C 0.39834 0.4483 0.95763 0.0
C414 C 0.28608 0.38343 0.97453 0.0
C415 C 0.31206 0.35804 0.99132 0.0
C416 C 0.38176 0.37908 0.99131 0.0
C417 C 0.42375 0.42312 0.9743 0.0
C418 C 0.21185 0.36135 0.97367 0.0
C419 C 0.41203 0.35509 0.00927 0.0
H420 H 0.1916 0.30876 0.06001 0.0
H421 H 0.16048 0.14068 0.01757 0.0
H422 H 0.34315 0.43328 0.03299 0.0
H423 H 0.27035 0.4343 0.02248 0.0
H424 H 0.2767 0.42053 0.05256 0.0
H425 H 0.21944 0.15431 0.98305 0.0
H426 H 0.22804 0.22653 0.96815 0.0
H427 H 0.30093 0.23017 0.98078 0.0
H428 H 0.30981 0.44787 0.94511 0.0
H429 H 0.47691 0.43826 0.97413 0.0
H430 H 0.19684 0.37557 0.99001 0.0
H431 H 0.18111 0.30553 0.97179 0.0
H432 H 0.19929 0.38427 0.95921 0.0
H433 H 0.40144 0.36753 0.02674 0.0
H434 H 0.46764 0.3782 1.00741 0.0
H435 H 0.3884 0.29938 1.00802 0.0
C436 C 0.9766 0.16601 0.34682 0.0
C437 C 0.00615 0.18444 0.36884 0.0
C438 C 0.97225 0.21289 0.33276 0.0
C439 C 0.9968 0.27973 0.34106 0.0
C440 C 0.02424 0.29796 0.36365 0.0
C441 C 0.02932 0.25031 0.37719 0.0
C442 C 0.94395 0.19154 0.30865 0.0
C443 C 0.04979 0.36829 0.37331 0.0
C444 C 0.05745 0.41649 0.29617 0.0
C445 C 1.00138 0.42515 0.29351 0.0
C446 C 0.05671 0.37004 0.31173 0.0
C447 C 0.99881 0.33162 0.32535 0.0
C448 C 0.94239 0.3409 0.32311 0.0
C449 C 0.94408 0.38713 0.30707 0.0
C450 C 0.11755 0.36106 0.3132 0.0
C451 C 0.88012 0.30163 0.33756 0.0
H452 H 0.9588 0.11529 0.34018 0.0
H453 H 0.05178 0.26477 0.39425 0.0
H454 H 0.90256 0.20239 0.30574 0.0
H455 H 0.9841 0.22103 0.29599 0.0
H456 H 0.92412 0.13693 0.30516 0.0
H457 H 0.06337 0.37257 0.39185 0.0
H458 H 0.09522 0.40497 0.36374 0.0
H459 H 0.01084 0.38297 0.37111 0.0
H460 H 0.1019 0.44526 0.28572 0.0
H461 H 0.90069 0.39371 0.30523 0.0
H462 H 0.1025 0.30812 0.30861 0.0
H463 H 0.13762 0.37088 0.33108 0.0
H464 H 0.15884 0.39528 0.30158 0.0
H465 H 0.85625 0.24689 0.33341 0.0
H466 H 0.84212 0.31735 0.33475 0.0
H467 H 0.89432 0.30859 0.35608 0.0
loop_
_geom_bond_atom_site_label_1
_geom_bond_atom_site_label_2
_geom_bond_distance
_geom_bond_site_symmetry_2
_ccdc_geom_bond_type
Co0 O1 2.216 1_445 S
Co0 O2 2.091 1_545 S
Co0 O4 2.004 . S
Co0 O10 2.021 1_445 S
Co0 O12 2.137 . S
Co0 O13 2.244 1_455 S
O1 Co0 2.216 1_665 S
O1 C8 1.247 1_655 S
O2 Co0 2.091 1_565 S
O2 C8 1.261 . S
C3 O12 1.247 . S
C3 O13 1.272 1_455 S
O4 Co0 2.004 . S
O4 C9 1.259 . S
Co5 O6 2.061 1_655 S
Co5 O11 2.052 . S
Co5 O13 2.135 . S
O6 Co5 2.061 1_455 S
O6 C9 1.235 . S
C7 O10 1.238 . S
C7 O11 1.241 1_565 S
C8 O1 1.247 1_455 S
C8 O2 1.261 . S
C9 O4 1.259 . S
C9 O6 1.235 . S
O10 Co0 2.021 1_665 S
O10 C7 1.238 . S
O11 Co5 2.052 . S
O11 C7 1.241 1_545 S
O12 Co0 2.137 . S
O12 C3 1.247 . S
O13 Co0 2.244 1_655 S
O13 C3 1.272 1_655 S
O13 Co5 2.135 . S
Co14 O15 2.216 1_455 S
Co14 O16 2.091 . S
Co14 O18 2.004 . S
Co14 O24 2.021 . S
Co14 O26 2.137 . S
Co14 O27 2.244 1_545 S
O15 Co14 2.216 1_655 S
O15 C22 1.247 1_655 S
O16 Co14 2.091 . S
O16 C22 1.261 . S
C17 O26 1.247 1_565 S
C17 O27 1.272 . S
O18 Co14 2.004 . S
O18 C23 1.259 . S
Co19 O20 2.061 1_655 S
Co19 O25 2.052 . S
Co19 O27 2.135 1_655 S
O20 Co19 2.061 1_455 S
O20 C23 1.235 1_565 S
C21 O24 1.238 1_655 S
C21 O25 1.241 1_545 S
C22 O15 1.247 1_455 S
C22 O16 1.261 . S
C23 O18 1.259 . S
C23 O20 1.235 1_545 S
O24 Co14 2.021 . S
O24 C21 1.238 1_455 S
O25 Co19 2.052 . S
O25 C21 1.241 1_565 S
O26 Co14 2.137 . S
O26 C17 1.247 1_545 S
O27 Co14 2.244 1_565 S
O27 C17 1.272 . S
O27 Co19 2.135 1_455 S
Co28 O29 2.216 . S
Co28 O30 2.091 1_545 S
Co28 O32 2.004 1_445 S
Co28 O38 2.021 . S
Co28 O40 2.137 1_445 S
Co28 O41 2.244 1_455 S
O29 Co28 2.216 . S
O29 C36 1.247 . S
O30 Co28 2.091 1_565 S
O30 C36 1.261 1_565 S
C31 O40 1.247 1_545 S
C31 O41 1.272 . S
O32 Co28 2.004 1_665 S
O32 C37 1.259 . S
Co33 O34 2.061 . S
Co33 O39 2.052 1_655 S
Co33 O41 2.135 . S
O34 Co33 2.061 . S
O34 C37 1.235 1_545 S
C35 O38 1.238 . S
C35 O39 1.241 . S
C36 O29 1.247 . S
C36 O30 1.261 1_545 S
C37 O32 1.259 . S
C37 O34 1.235 1_565 S
O38 Co28 2.021 . S
O38 C35 1.238 . S
O39 Co33 2.052 1_455 S
O39 C35 1.241 . S
O40 Co28 2.137 1_665 S
O40 C31 1.247 1_565 S
O41 Co28 2.244 1_655 S
O41 C31 1.272 . S
O41 Co33 2.135 . S
C42 O44 1.247 . S
C42 O46 1.258 1_455 S
C43 O50 1.247 1_455 S
C43 O51 1.258 . S
O44 C42 1.247 . S
O44 Zn45 2.028 . S
Zn45 O44 2.028 . S
Zn45 O49 2.035 . S
Zn45 O51 2.035 . S
Zn45 O52 2.028 . S
O46 C42 1.258 1_655 S
O46 Zn47 2.035 . S
Zn47 O46 2.035 . S
Zn47 O48 2.028 . S
Zn47 O50 2.028 . S
Zn47 O53 2.035 . S
O48 Zn47 2.028 . S
O48 C54 1.247 1_655 S
O49 Zn45 2.035 . S
O49 C54 1.258 . S
O50 C43 1.247 1_655 S
O50 Zn47 2.028 . S
O51 C43 1.258 . S
O51 Zn45 2.035 . S
O52 Zn45 2.028 . S
O52 C55 1.247 . S
O53 Zn47 2.035 . S
O53 C55 1.258 1_655 S
C54 O48 1.247 1_455 S
C54 O49 1.258 . S
C55 O52 1.247 . S
C55 O53 1.258 1_455 S
C56 O58 1.247 1_545 S
C56 O60 1.258 . S
C57 O64 1.247 . S
C57 O65 1.258 1_545 S
O58 C56 1.247 1_565 S
O58 Zn59 2.028 . S
Zn59 O58 2.028 . S
Zn59 O63 2.035 . S
Zn59 O65 2.035 . S
Zn59 O66 2.028 . S
O60 C56 1.258 . S
O60 Zn61 2.035 . S
Zn61 O60 2.035 . S
Zn61 O62 2.028 . S
Zn61 O64 2.028 . S
Zn61 O67 2.035 . S
O62 Zn61 2.028 . S
O62 C68 1.247 . S
O63 Zn59 2.035 . S
O63 C68 1.258 1_565 S
O64 C57 1.247 . S
O64 Zn61 2.028 . S
O65 C57 1.258 1_565 S
O65 Zn59 2.035 . S
O66 Zn59 2.028 . S
O66 C69 1.247 1_565 S
O67 Zn61 2.035 . S
O67 C69 1.258 . S
C68 O62 1.247 . S
C68 O63 1.258 1_545 S
C69 O66 1.247 1_545 S
C69 O67 1.258 . S
C70 O72 1.247 . S
C70 O74 1.258 . S
C71 O78 1.247 . S
C71 O79 1.258 . S
O72 C70 1.247 . S
O72 Zn73 2.028 . S
Zn73 O72 2.028 . S
Zn73 O77 2.035 . S
Zn73 O79 2.035 . S
Zn73 O80 2.028 . S
O74 C70 1.258 . S
O74 Zn75 2.035 . S
Zn75 O74 2.035 . S
Zn75 O76 2.028 . S
Zn75 O78 2.028 . S
Zn75 O81 2.035 . S
O76 Zn75 2.028 . S
O76 C82 1.247 . S
O77 Zn73 2.035 . S
O77 C82 1.258 . S
O78 C71 1.247 . S
O78 Zn75 2.028 . S
O79 C71 1.258 . S
O79 Zn73 2.035 . S
O80 Zn73 2.028 . S
O80 C83 1.247 . S
O81 Zn75 2.035 . S
O81 C83 1.258 . S
C82 O76 1.247 . S
C82 O77 1.258 . S
C83 O80 1.247 . S
C83 O81 1.258 . S
C84 C85 1.391 . S
C84 C86 1.394 . S
C84 H100 0.931 . S
C85 C84 1.391 . S
C85 C89 1.376 . S
C86 C84 1.394 . S
C86 C87 1.369 . S
C86 C90 1.531 . S
C87 C86 1.369 . S
C87 C88 1.410 . S
C87 C95 1.503 . S
C88 C87 1.410 . S
C88 C89 1.392 . S
C88 C91 1.511 . S
C89 C85 1.376 . S
C89 C88 1.392 . S
C89 H101 0.929 . S
C90 C86 1.531 . S
C90 H102 0.960 1_455 S
C90 H103 0.962 . S
C90 H104 0.960 1_455 S
C91 C88 1.511 . S
C91 H105 0.961 . S
C91 H106 0.961 . S
C91 H107 0.961 1_455 S
C92 C93 1.370 . S
C92 C94 1.363 . S
C92 H108 0.931 . S
C93 C92 1.370 . S
C93 C97 1.408 1_455 S
C94 C92 1.363 . S
C94 C95 1.370 . S
C94 C98 1.524 . S
C95 C87 1.503 . S
C95 C94 1.370 . S
C95 C96 1.403 1_455 S
C96 C95 1.403 1_655 S
C96 C97 1.404 . S
C96 C99 1.539 . S
C97 C93 1.408 1_655 S
C97 C96 1.404 . S
C97 H109 0.930 . S
C98 C94 1.524 . S
C98 H110 0.956 . S
C98 H111 0.961 . S
C98 H112 0.961 . S
C99 C96 1.539 . S
C99 H113 0.958 . S
C99 H114 0.961 . S
C99 H115 0.960 . S
H100 C84 0.931 . S
H101 C89 0.929 . S
H102 C90 0.960 1_655 S
H103 C90 0.962 . S
H104 C90 0.960 1_655 S
H105 C91 0.961 . S
H106 C91 0.961 . S
H107 C91 0.961 1_655 S
H108 C92 0.931 . S
H109 C97 0.930 . S
H110 C98 0.956 . S
H111 C98 0.961 . S
H112 C98 0.961 . S
H113 C99 0.958 . S
H114 C99 0.961 . S
H115 C99 0.960 . S
C116 C117 1.391 1_565 S
C116 C118 1.394 . S
C116 H132 0.931 . S
C117 C116 1.391 1_545 S
C117 C121 1.376 . S
C118 C116 1.394 . S
C118 C119 1.369 1_565 S
C118 C122 1.531 . S
C119 C118 1.369 1_545 S
C119 C120 1.410 . S
C119 C127 1.503 . S
C120 C119 1.410 . S
C120 C121 1.392 . S
C120 C123 1.511 . S
C121 C117 1.376 . S
C121 C120 1.392 . S
C121 H133 0.929 . S
C122 C118 1.531 . S
C122 H134 0.960 . S
C122 H135 0.962 . S
C122 H136 0.960 . S
C123 C120 1.511 . S
C123 H137 0.961 . S
C123 H138 0.961 . S
C123 H139 0.961 . S
C124 C125 1.370 . S
C124 C126 1.363 . S
C124 H140 0.931 . S
C125 C124 1.370 . S
C125 C129 1.408 . S
C126 C124 1.363 . S
C126 C127 1.370 . S
C126 C130 1.524 . S
C127 C119 1.503 . S
C127 C126 1.370 . S
C127 C128 1.403 . S
C128 C127 1.403 . S
C128 C129 1.404 . S
C128 C131 1.539 . S
C129 C125 1.408 . S
C129 C128 1.404 . S
C129 H141 0.930 . S
C130 C126 1.524 . S
C130 H142 0.956 1_545 S
C130 H143 0.961 . S
C130 H144 0.961 . S
C131 C128 1.539 . S
C131 H145 0.958 . S
C131 H146 0.961 . S
C131 H147 0.960 . S
H132 C116 0.931 . S
H133 C121 0.929 . S
H134 C122 0.960 . S
H135 C122 0.962 . S
H136 C122 0.960 . S
H137 C123 0.961 . S
H138 C123 0.961 . S
H139 C123 0.961 . S
H140 C124 0.931 . S
H141 C129 0.930 . S
H142 C130 0.956 1_565 S
H143 C130 0.961 . S
H144 C130 0.961 . S
H145 C131 0.958 . S
H146 C131 0.961 . S
H147 C131 0.960 . S
C148 C149 1.391 . S
C148 C150 1.394 . S
C148 H164 0.931 . S
C149 C148 1.391 . S
C149 C153 1.376 . S
C150 C148 1.394 . S
C150 C151 1.369 . S
C150 C154 1.531 . S
C151 C150 1.369 . S
C151 C152 1.410 . S
C151 C159 1.503 . S
C152 C151 1.410 . S
C152 C153 1.392 . S
C152 C155 1.511 . S
C153 C149 1.376 . S
C153 C152 1.392 . S
C153 H165 0.929 . S
C154 C150 1.531 . S
C154 H166 0.960 . S
C154 H167 0.962 . S
C154 H168 0.960 . S
C155 C152 1.511 . S
C155 H169 0.961 . S
C155 H170 0.961 . S
C155 H171 0.961 . S
C156 C157 1.370 . S
C156 C158 1.363 . S
C156 H172 0.931 . S
C157 C156 1.370 . S
C157 C161 1.408 . S
C158 C156 1.363 . S
C158 C159 1.370 . S
C158 C162 1.524 . S
C159 C151 1.503 . S
C159 C158 1.370 . S
C159 C160 1.403 . S
C160 C159 1.403 . S
C160 C161 1.404 . S
C160 C163 1.539 . S
C161 C157 1.408 . S
C161 C160 1.404 . S
C161 H173 0.930 . S
C162 C158 1.524 . S
C162 H174 0.956 . S
C162 H175 0.961 . S
C162 H176 0.961 . S
C163 C160 1.539 . S
C163 H177 0.958 . S
C163 H178 0.961 . S
C163 H179 0.960 . S
H164 C148 0.931 . S
H165 C153 0.929 . S
H166 C154 0.960 . S
H167 C154 0.962 . S
H168 C154 0.960 . S
H169 C155 0.961 . S
H170 C155 0.961 . S
H171 C155 0.961 . S
H172 C156 0.931 . S
H173 C161 0.930 . S
H174 C162 0.956 . S
H175 C162 0.961 . S
H176 C162 0.961 . S
H177 C163 0.958 . S
H178 C163 0.961 . S
H179 C163 0.960 . S
C180 C181 1.391 1_655 S
C180 C182 1.394 . S
C180 H196 0.931 . S
C181 C180 1.391 1_455 S
C181 C185 1.376 . S
C182 C180 1.394 . S
C182 C183 1.369 1_655 S
C182 C186 1.531 . S
C183 C182 1.369 1_455 S
C183 C184 1.410 . S
C183 C191 1.503 . S
C184 C183 1.410 . S
C184 C185 1.392 . S
C184 C187 1.511 . S
C185 C181 1.376 . S
C185 C184 1.392 . S
C185 H197 0.929 . S
C186 C182 1.531 . S
C186 H198 0.960 . S
C186 H199 0.962 . S
C186 H200 0.960 . S
C187 C184 1.511 . S
C187 H201 0.961 . S
C187 H202 0.961 . S
C187 H203 0.961 . S
C188 C189 1.380 . S
C188 C190 1.359 . S
C188 H204 0.925 1_455 S
C189 C188 1.380 . S
C189 C193 1.408 . S
C190 C188 1.359 . S
C190 C191 1.370 . S
C190 C194 1.524 1_455 S
C191 C183 1.503 . S
C191 C190 1.370 . S
C191 C192 1.403 . S
C192 C191 1.403 . S
C192 C193 1.404 . S
C192 C195 1.539 . S
C193 C189 1.408 . S
C193 C192 1.404 . S
C193 H205 0.930 . S
C194 C190 1.524 1_655 S
C194 H206 0.956 . S
C194 H207 0.961 1_655 S
C194 H208 0.961 . S
C195 C192 1.539 . S
C195 H209 0.958 . S
C195 H210 0.961 . S
C195 H211 0.960 . S
H196 C180 0.931 . S
H197 C185 0.929 . S
H198 C186 0.960 . S
H199 C186 0.962 . S
H200 C186 0.960 . S
H201 C187 0.961 . S
H202 C187 0.961 . S
H203 C187 0.961 . S
H204 C188 0.925 1_655 S
H205 C193 0.930 . S
H206 C194 0.956 . S
H207 C194 0.961 1_455 S
H208 C194 0.961 . S
H209 C195 0.958 . S
H210 C195 0.961 . S
H211 C195 0.960 . S
C212 C213 1.391 . S
C212 C214 1.394 . S
C212 H228 0.931 . S
C213 C212 1.391 . S
C213 C217 1.376 . S
C214 C212 1.394 . S
C214 C215 1.369 . S
C214 C218 1.531 . S
C215 C214 1.369 . S
C215 C216 1.410 . S
C215 C223 1.503 . S
C216 C215 1.410 . S
C216 C217 1.392 . S
C216 C219 1.511 1_545 S
C217 C213 1.376 . S
C217 C216 1.392 . S
C217 H229 0.929 1_545 S
C218 C214 1.531 . S
C218 H230 0.960 . S
C218 H231 0.962 . S
C218 H232 0.960 . S
C219 C216 1.511 1_565 S
C219 H233 0.961 . S
C219 H234 0.961 . S
C219 H235 0.961 . S
C220 C221 1.370 . S
C220 C222 1.363 . S
C220 H236 0.931 . S
C221 C220 1.370 . S
C221 C225 1.408 . S
C222 C220 1.363 . S
C222 C223 1.370 . S
C222 C226 1.519 1_545 S
C223 C215 1.503 . S
C223 C222 1.370 . S
C223 C224 1.403 . S
C224 C223 1.403 . S
C224 C225 1.404 . S
C224 C227 1.539 . S
C225 C221 1.408 . S
C225 C224 1.404 . S
C225 H237 0.930 . S
C226 C222 1.519 1_565 S
C226 H238 0.946 1_565 S
C226 H239 0.963 . S
C226 H240 0.973 . S
C227 C224 1.539 . S
C227 H241 0.958 . S
C227 H242 0.961 . S
C227 H243 0.960 . S
H228 C212 0.931 . S
H229 C217 0.929 1_565 S
H230 C218 0.960 . S
H231 C218 0.962 . S
H232 C218 0.960 . S
H233 C219 0.961 . S
H234 C219 0.961 . S
H235 C219 0.961 . S
H236 C220 0.931 . S
H237 C225 0.930 . S
H238 C226 0.946 1_545 S
H239 C226 0.963 . S
H240 C226 0.973 . S
H241 C227 0.958 . S
H242 C227 0.961 . S
H243 C227 0.960 . S
C244 C245 1.391 . S
C244 C246 1.394 . S
C244 H260 0.931 . S
C245 C244 1.391 . S
C245 C249 1.376 . S
C246 C244 1.394 . S
C246 C247 1.369 . S
C246 C250 1.531 . S
C247 C246 1.369 . S
C247 C248 1.410 . S
C247 C255 1.503 . S
C248 C247 1.410 . S
C248 C249 1.392 . S
C248 C251 1.511 . S
C249 C245 1.376 . S
C249 C248 1.392 . S
C249 H261 0.929 . S
C250 C246 1.531 . S
C250 H262 0.960 . S
C250 H263 0.962 . S
C250 H264 0.960 . S
C251 C248 1.511 . S
C251 H265 0.961 . S
C251 H266 0.961 . S
C251 H267 0.961 . S
C252 C253 1.370 . S
C252 C254 1.363 . S
C252 H268 0.931 . S
C253 C252 1.370 . S
C253 C257 1.408 . S
C254 C252 1.363 . S
C254 C255 1.370 . S
C254 C258 1.524 . S
C255 C247 1.503 . S
C255 C254 1.370 . S
C255 C256 1.403 . S
C256 C255 1.403 . S
C256 C257 1.404 . S
C256 C259 1.539 . S
C257 C253 1.408 . S
C257 C256 1.404 . S
C257 H269 0.930 . S
C258 C254 1.524 . S
C258 H270 0.956 . S
C258 H271 0.961 . S
C258 H272 0.961 . S
C259 C256 1.539 . S
C259 H273 0.958 . S
C259 H274 0.961 . S
C259 H275 0.960 . S
H260 C244 0.931 . S
H261 C249 0.929 . S
H262 C250 0.960 . S
H263 C250 0.962 . S
H264 C250 0.960 . S
H265 C251 0.961 . S
H266 C251 0.961 . S
H267 C251 0.961 . S
H268 C252 0.931 . S
H269 C257 0.930 . S
H270 C258 0.956 . S
H271 C258 0.961 . S
H272 C258 0.961 . S
H273 C259 0.958 . S
H274 C259 0.961 . S
H275 C259 0.960 . S
C276 C277 1.391 . S
C276 C278 1.394 . S
C276 H292 0.931 . S
C277 C276 1.391 . S
C277 C281 1.376 . S
C278 C276 1.394 . S
C278 C279 1.369 . S
C278 C282 1.531 . S
C279 C278 1.369 . S
C279 C280 1.410 . S
C279 C287 1.503 . S
C280 C279 1.410 . S
C280 C281 1.392 . S
C280 C283 1.511 1_545 S
C281 C277 1.376 . S
C281 C280 1.392 . S
C281 H293 0.926 1_545 S
C282 C278 1.531 . S
C282 H294 0.960 . S
C282 H295 0.962 . S
C282 H296 0.960 . S
C283 C280 1.511 1_565 S
C283 H297 0.961 . S
C283 H298 0.961 . S
C283 H299 0.961 . S
C284 C285 1.370 . S
C284 C286 1.363 . S
C284 H300 0.931 . S
C285 C284 1.370 . S
C285 C289 1.408 1_545 S
C286 C284 1.363 . S
C286 C287 1.370 . S
C286 C290 1.524 . S
C287 C279 1.503 . S
C287 C286 1.370 . S
C287 C288 1.403 1_545 S
C288 C287 1.403 1_565 S
C288 C289 1.404 . S
C288 C291 1.539 . S
C289 C285 1.408 1_565 S
C289 C288 1.404 . S
C289 H301 0.930 . S
C290 C286 1.524 . S
C290 H302 0.956 . S
C290 H303 0.961 . S
C290 H304 0.961 . S
C291 C288 1.539 . S
C291 H305 0.958 . S
C291 H306 0.961 . S
C291 H307 0.960 . S
H292 C276 0.931 . S
H293 C281 0.926 1_565 S
H294 C282 0.960 . S
H295 C282 0.962 . S
H296 C282 0.960 . S
H297 C283 0.961 . S
H298 C283 0.961 . S
H299 C283 0.961 . S
H300 C284 0.931 . S
H301 C289 0.930 . S
H302 C290 0.956 . S
H303 C290 0.961 . S
H304 C290 0.961 . S
H305 C291 0.958 . S
H306 C291 0.961 . S
H307 C291 0.960 . S
C308 C309 1.391 . S
C308 C310 1.385 1_554 S
C308 H324 0.931 . S
C309 C308 1.391 . S
C309 C313 1.376 . S
C310 C308 1.385 1_556 S
C310 C311 1.373 . S
C310 C314 1.534 . S
C311 C310 1.373 . S
C311 C312 1.410 . S
C311 C319 1.503 . S
C312 C311 1.410 . S
C312 C313 1.392 1_556 S
C312 C315 1.511 . S
C313 C309 1.376 . S
C313 C312 1.392 1_554 S
C313 H325 0.929 . S
C314 C310 1.534 . S
C314 H326 0.960 . S
C314 H327 0.932 1_556 S
C314 H328 0.960 . S
C315 C312 1.511 . S
C315 H329 0.961 . S
C315 H330 0.961 . S
C315 H331 0.961 . S
C316 C317 1.370 . S
C316 C318 1.363 . S
C316 H332 0.931 . S
C317 C316 1.370 . S
C317 C321 1.408 . S
C318 C316 1.363 . S
C318 C319 1.370 . S
C318 C322 1.524 1_556 S
C319 C311 1.503 . S
C319 C318 1.370 . S
C319 C320 1.403 . S
C320 C319 1.403 . S
C320 C321 1.404 . S
C320 C323 1.539 . S
C321 C317 1.408 . S
C321 C320 1.404 . S
C321 H333 0.930 . S
C322 C318 1.524 1_554 S
C322 H334 0.956 . S
C322 H335 0.961 . S
C322 H336 0.961 . S
C323 C320 1.539 . S
C323 H337 0.958 . S
C323 H338 0.961 . S
C323 H339 0.960 . S
H324 C308 0.931 . S
H325 C313 0.929 . S
H326 C314 0.960 . S
H327 C314 0.932 1_554 S
H328 C314 0.960 . S
H329 C315 0.961 . S
H330 C315 0.961 . S
H331 C315 0.961 . S
H332 C316 0.931 . S
H333 C321 0.930 . S
H334 C322 0.956 . S
H335 C322 0.961 . S
H336 C322 0.961 . S
H337 C323 0.958 . S
H338 C323 0.961 . S
H339 C323 0.960 . S
C340 C341 1.391 1_655 S
C340 C342 1.394 . S
C340 H356 0.931 . S
C341 C340 1.391 1_455 S
C341 C345 1.376 . S
C342 C340 1.394 . S
C342 C343 1.369 1_655 S
C342 C346 1.531 . S
C343 C342 1.369 1_455 S
C343 C344 1.410 . S
C343 C351 1.503 . S
C344 C343 1.410 . S
C344 C345 1.392 . S
C344 C347 1.511 . S
C345 C341 1.376 . S
C345 C344 1.392 . S
C345 H357 0.929 . S
C346 C342 1.531 . S
C346 H358 0.960 . S
C346 H359 0.962 . S
C346 H360 0.960 . S
C347 C344 1.511 . S
C347 H361 0.961 . S
C347 H362 0.961 . S
C347 H363 0.961 . S
C348 C349 1.370 1_655 S
C348 C350 1.363 . S
C348 H364 0.931 . S
C349 C348 1.370 1_455 S
C349 C353 1.408 . S
C350 C348 1.363 . S
C350 C351 1.370 1_655 S
C350 C354 1.524 . S
C351 C343 1.503 . S
C351 C350 1.370 1_455 S
C351 C352 1.403 . S
C352 C351 1.403 . S
C352 C353 1.404 . S
C352 C355 1.539 . S
C353 C349 1.408 . S
C353 C352 1.404 . S
C353 H365 0.930 . S
C354 C350 1.524 . S
C354 H366 0.956 . S
C354 H367 0.961 . S
C354 H368 0.961 . S
C355 C352 1.539 . S
C355 H369 0.958 . S
C355 H370 0.961 . S
C355 H371 0.960 . S
H356 C340 0.931 . S
H357 C345 0.929 . S
H358 C346 0.960 . S
H359 C346 0.962 . S
H360 C346 0.960 . S
H361 C347 0.961 . S
H362 C347 0.961 . S
H363 C347 0.961 . S
H364 C348 0.931 . S
H365 C353 0.930 . S
H366 C354 0.956 . S
H367 C354 0.961 . S
H368 C354 0.961 . S
H369 C355 0.958 . S
H370 C355 0.961 . S
H371 C355 0.960 . S
C372 C373 1.391 . S
C372 C374 1.394 . S
C372 H388 0.931 . S
C373 C372 1.391 . S
C373 C377 1.376 . S
C374 C372 1.394 . S
C374 C375 1.369 . S
C374 C378 1.531 . S
C375 C374 1.369 . S
C375 C376 1.410 . S
C375 C383 1.503 . S
C376 C375 1.410 . S
C376 C377 1.392 . S
C376 C379 1.511 . S
C377 C373 1.376 . S
C377 C376 1.392 . S
C377 H389 0.929 . S
C378 C374 1.531 . S
C378 H390 0.960 1_545 S
C378 H391 0.962 . S
C378 H392 0.960 1_545 S
C379 C376 1.511 . S
C379 H393 0.961 . S
C379 H394 0.961 . S
C379 H395 0.961 1_545 S
C380 C381 1.370 . S
C380 C382 1.363 . S
C380 H396 0.931 . S
C381 C380 1.370 . S
C381 C385 1.408 1_545 S
C382 C380 1.363 . S
C382 C383 1.370 . S
C382 C386 1.524 . S
C383 C375 1.503 . S
C383 C382 1.370 . S
C383 C384 1.403 1_545 S
C384 C383 1.403 1_565 S
C384 C385 1.404 . S
C384 C387 1.539 . S
C385 C381 1.408 1_565 S
C385 C384 1.404 . S
C385 H397 0.930 . S
C386 C382 1.524 . S
C386 H398 0.956 . S
C386 H399 0.961 . S
C386 H400 0.961 . S
C387 C384 1.539 . S
C387 H401 0.958 . S
C387 H402 0.961 . S
C387 H403 0.960 . S
H388 C372 0.931 . S
H389 C377 0.929 . S
H390 C378 0.960 1_565 S
H391 C378 0.962 . S
H392 C378 0.960 1_565 S
H393 C379 0.961 . S
H394 C379 0.961 . S
H395 C379 0.961 1_565 S
H396 C380 0.931 . S
H397 C385 0.930 . S
H398 C386 0.956 . S
H399 C386 0.961 . S
H400 C386 0.961 . S
H401 C387 0.958 . S
H402 C387 0.961 . S
H403 C387 0.960 . S
C404 C405 1.391 . S
C404 C406 1.394 . S
C404 H420 0.931 . S
C405 C404 1.391 . S
C405 C409 1.376 . S
C406 C404 1.394 . S
C406 C407 1.369 1_554 S
C406 C410 1.531 . S
C407 C406 1.369 1_556 S
C407 C408 1.410 . S
C407 C415 1.503 . S
C408 C407 1.410 . S
C408 C409 1.392 1_556 S
C408 C411 1.511 . S
C409 C405 1.376 . S
C409 C408 1.392 1_554 S
C409 H421 0.940 . S
C410 C406 1.531 . S
C410 H422 0.960 . S
C410 H423 0.962 . S
C410 H424 0.960 . S
C411 C408 1.511 . S
C411 H425 0.961 . S
C411 H426 0.961 . S
C411 H427 0.961 . S
C412 C413 1.370 . S
C412 C414 1.363 . S
C412 H428 0.931 . S
C413 C412 1.370 . S
C413 C417 1.408 . S
C414 C412 1.363 . S
C414 C415 1.370 . S
C414 C418 1.524 . S
C415 C407 1.503 . S
C415 C414 1.370 . S
C415 C416 1.403 . S
C416 C415 1.403 . S
C416 C417 1.404 . S
C416 C419 1.539 . S
C417 C413 1.408 . S
C417 C416 1.404 . S
C417 H429 0.930 . S
C418 C414 1.524 . S
C418 H430 0.956 . S
C418 H431 0.961 . S
C418 H432 0.961 . S
C419 C416 1.539 . S
C419 H433 0.958 1_556 S
C419 H434 0.961 . S
C419 H435 0.965 . S
H420 C404 0.931 . S
H421 C409 0.940 . S
H422 C410 0.960 . S
H423 C410 0.962 . S
H424 C410 0.960 . S
H425 C411 0.961 . S
H426 C411 0.961 . S
H427 C411 0.961 . S
H428 C412 0.931 . S
H429 C417 0.930 . S
H430 C418 0.956 . S
H431 C418 0.961 . S
H432 C418 0.961 . S
H433 C419 0.958 1_554 S
H434 C419 0.961 . S
H435 C419 0.965 . S
C436 C437 1.391 . S
C436 C438 1.394 . S
C436 H452 0.931 . S
C437 C436 1.391 . S
C437 C441 1.376 . S
C438 C436 1.394 . S
C438 C439 1.369 . S
C438 C442 1.531 . S
C439 C438 1.369 . S
C439 C440 1.410 1_455 S
C439 C447 1.503 . S
C440 C439 1.410 1_655 S
C440 C441 1.392 1_655 S
C440 C443 1.511 . S
C441 C437 1.376 . S
C441 C440 1.392 1_455 S
C441 H453 0.929 1_455 S
C442 C438 1.531 . S
C442 H454 0.960 . S
C442 H455 0.962 . S
C442 H456 0.960 . S
C443 C440 1.511 . S
C443 H457 0.961 . S
C443 H458 0.961 . S
C443 H459 0.961 . S
C444 C445 1.370 . S
C444 C446 1.363 . S
C444 H460 0.931 . S
C445 C444 1.370 . S
C445 C449 1.408 1_455 S
C446 C444 1.363 . S
C446 C447 1.370 . S
C446 C450 1.524 . S
C447 C439 1.503 . S
C447 C446 1.370 . S
C447 C448 1.403 1_455 S
C448 C447 1.403 1_655 S
C448 C449 1.404 . S
C448 C451 1.539 . S
C449 C445 1.408 1_655 S
C449 C448 1.404 . S
C449 H461 0.930 . S
C450 C446 1.524 . S
C450 H462 0.956 . S
C450 H463 0.961 . S
C450 H464 0.961 . S
C451 C448 1.539 . S
C451 H465 0.958 . S
C451 H466 0.961 . S
C451 H467 0.960 . S
H452 C436 0.931 . S
H453 C441 0.929 1_655 S
H454 C442 0.960 . S
H455 C442 0.962 . S
H456 C442 0.960 . S
H457 C443 0.961 . S
H458 C443 0.961 . S
H459 C443 0.961 . S
H460 C444 0.931 . S
H461 C449 0.930 . S
H462 C450 0.956 . S
H463 C450 0.961 . S
H464 C450 0.961 . S
H465 C451 0.958 . S
H466 C451 0.961 . S
H467 C451 0.960 . S
C93 C43 1.472 . S
C85 C3 1.472 . S
C117 C21 1.467 . S
C125 C69 1.507 . S
C149 C37 1.438 . S
C157 C71 1.483 . S
C181 C8 1.472 . S
C189 C55 1.470 . S
C221 C57 1.480 . S
C213 C23 1.460 . S
C245 C35 1.448 . S
C253 C83 1.478 . S
C285 C56 1.472 . S
C277 C31 1.454 . S
C309 C7 1.439 . S
C317 C82 1.481 . S
C349 C42 1.473 . S
C341 C17 1.455 . S
C381 C68 1.445 . S
C373 C36 1.438 . S
C413 C70 1.479 . S
C405 C9 1.475 . S
C437 C22 1.468 . S
C445 C54 1.474 . S
