# Generated by pormake.
# Topology ssa, (4,4)-cn, num edge types: 1
# Building blocks:
#     Node 0, Type 0, BuildingBlock: ESEHIV_clean_sbu_0, # of connection points: 4
#     Node 1, Type 0, BuildingBlock: ESEHIV_clean_sbu_0, # of connection points: 4
#     Node 2, Type 0, BuildingBlock: ESEHIV_clean_sbu_0, # of connection points: 4
#     Node 3, Type 0, BuildingBlock: ESEHIV_clean_sbu_0, # of connection points: 4
#     Node 4, Type 0, BuildingBlock: ESEHIV_clean_sbu_0, # of connection points: 4
#     Node 5, Type 0, BuildingBlock: ESEHIV_clean_sbu_0, # of connection points: 4
#     Node 6, Type 1, BuildingBlock: MUDLON_clean_sbu_0, # of connection points: 4
#     Node 7, Type 1, BuildingBlock: MUDLON_clean_sbu_0, # of connection points: 4
#     Node 8, Type 1, BuildingBlock: MUDLON_clean_sbu_0, # of connection points: 4
#     Node 9, Type 1, BuildingBlock: MUDLON_clean_sbu_0, # of connection points: 4
#     Node 10, Type 1, BuildingBlock: MUDLON_clean_sbu_0, # of connection points: 4
#     Node 11, Type 1, BuildingBlock: MUDLON_clean_sbu_0, # of connection points: 4
#     Edge 12, Type (0, 1), BuildingBlock: MIFKUJ_clean_linker_0, # of connection points: 2
#     Edge 13, Type (0, 1), BuildingBlock: MIFKUJ_clean_linker_0, # of connection points: 2
#     Edge 14, Type (0, 1), BuildingBlock: MIFKUJ_clean_linker_0, # of connection points: 2
#     Edge 15, Type (0, 1), BuildingBlock: MIFKUJ_clean_linker_0, # of connection points: 2
#     Edge 16, Type (0, 1), BuildingBlock: MIFKUJ_clean_linker_0, # of connection points: 2
#     Edge 17, Type (0, 1), BuildingBlock: MIFKUJ_clean_linker_0, # of connection points: 2
#     Edge 18, Type (0, 1), BuildingBlock: MIFKUJ_clean_linker_0, # of connection points: 2
#     Edge 19, Type (0, 1), BuildingBlock: MIFKUJ_clean_linker_0, # of connection points: 2
#     Edge 20, Type (0, 1), BuildingBlock: MIFKUJ_clean_linker_0, # of connection points: 2
#     Edge 21, Type (0, 1), BuildingBlock: MIFKUJ_clean_linker_0, # of connection points: 2
#     Edge 22, Type (0, 1), BuildingBlock: MIFKUJ_clean_linker_0, # of connection points: 2
#     Edge 23, Type (0, 1), BuildingBlock: MIFKUJ_clean_linker_0, # of connection points: 2
#     Edge 24, Type (0, 1), BuildingBlock: MIFKUJ_clean_linker_0, # of connection points: 2
#     Edge 25, Type (0, 1), BuildingBlock: MIFKUJ_clean_linker_0, # of connection points: 2
#     Edge 26, Type (0, 1), BuildingBlock: MIFKUJ_clean_linker_0, # of connection points: 2
#     Edge 27, Type (0, 1), BuildingBlock: MIFKUJ_clean_linker_0, # of connection points: 2
#     Edge 28, Type (0, 1), BuildingBlock: MIFKUJ_clean_linker_0, # of connection points: 2
#     Edge 29, Type (0, 1), BuildingBlock: MIFKUJ_clean_linker_0, # of connection points: 2
#     Edge 30, Type (0, 1), BuildingBlock: MIFKUJ_clean_linker_0, # of connection points: 2
#     Edge 31, Type (0, 1), BuildingBlock: MIFKUJ_clean_linker_0, # of connection points: 2
#     Edge 32, Type (0, 1), BuildingBlock: MIFKUJ_clean_linker_0, # of connection points: 2
#     Edge 33, Type (0, 1), BuildingBlock: MIFKUJ_clean_linker_0, # of connection points: 2
#     Edge 34, Type (0, 1), BuildingBlock: MIFKUJ_clean_linker_0, # of connection points: 2
#     Edge 35, Type (0, 1), BuildingBlock: MIFKUJ_clean_linker_0, # of connection points: 2
# Relax obj value: 0.020
# Max RMSD: 0.108
# Mean RMSD: 0.059
data_MOF--net-ssa--node1-ESEHIV_clean_sbu_0--node2-MUDLON_clean_sbu_0--edge1-MIFKUJ_clean_linker_0
_symmetry_space_group_name_H-M    P1
_symmetry_Int_Tables_number       1
_symmetry_cell_setting            triclinic
loop_
_symmetry_equiv_pos_as_xyz
'x, y, z'
_cell_length_a     56.183862
_cell_length_b     59.732548
_cell_length_c     53.800425
_cell_angle_alpha  88.554085
_cell_angle_beta   90.616962
_cell_angle_gamma 122.14402
loop_
_atom_site_label
_atom_site_type_symbol
_atom_site_fract_x
_atom_site_fract_y
_atom_site_fract_z
_atom_type_partial_charge
Cu0 Cu 0.01015 0.50348 0.02151 0.0
N1 N 0.9866 0.4668 0.01899 0.0
N2 N 0.95935 0.42769 1.00082 0.0
C3 C 0.97998 0.45341 0.99766 0.0
C4 C 0.95305 0.42483 0.02534 0.0
C5 C 0.96981 0.44896 0.03645 0.0
O6 O 1.0003 0.51843 0.99351 0.0
C7 C 0.0686 0.53677 0.0298 0.0
O8 O 0.06276 0.55536 0.02906 0.0
H9 H 0.98967 0.46266 0.98006 0.0
H10 H 0.96893 0.45346 0.05564 0.0
N11 N 1.0027 0.51491 0.05087 0.0
N12 N 0.01418 0.5371 0.08644 0.0
C13 C 0.01905 0.52225 0.07125 0.0
C14 C 0.98608 0.52458 0.05359 0.0
C15 C 0.99302 0.53818 0.07555 0.0
C16 C 0.00622 0.51797 0.97082 0.0
O17 O 0.0242 0.5111 0.96542 0.0
H18 H 0.03576 0.51851 0.07379 0.0
H19 H 0.97184 0.52395 0.03953 0.0
O20 O 0.0494 0.51341 0.02383 0.0
H21 H 0.9366 0.40695 0.03451 0.0
H22 H 0.98501 0.55008 0.08167 0.0
Cu23 Cu 0.50888 0.00839 0.51909 0.0
N24 N 0.52671 0.00803 0.48997 0.0
N25 N 0.53306 0.99083 0.45602 0.0
C26 C 0.51748 0.9861 0.47665 0.0
C27 C 0.55309 0.01688 0.45643 0.0
C28 C 0.54901 0.02749 0.47734 0.0
O29 O 0.46959 0.98104 0.51369 0.0
C30 C 0.55183 0.01017 0.54875 0.0
O31 O 0.56424 0.01324 0.5273 0.0
H32 H 0.49966 0.96693 0.48218 0.0
H33 H 0.56139 0.04788 0.48291 0.0
N34 N 0.51104 0.0403 0.52396 0.0
N35 N 0.50716 0.07018 0.54476 0.0
C36 C 0.50322 0.04583 0.54533 0.0
C37 C 0.5204 0.06192 0.50919 0.0
C38 C 0.51794 0.0804 0.52198 0.0
C39 C 0.45915 0.98649 0.49507 0.0
O40 O 0.47421 0.01008 0.48451 0.0
H41 H 0.49459 0.03201 0.56095 0.0
H42 H 0.52847 0.06414 0.49054 0.0
O43 O 0.52638 0.00415 0.54895 0.0
H44 H 0.56923 0.02761 0.44245 0.0
H45 H 0.52412 0.09997 0.51518 0.0
Cu46 Cu 0.51647 0.50693 0.02212 0.0
N47 N 0.50684 0.47182 0.02406 0.0
N48 N 0.4962 0.43254 0.01051 0.0
C49 C 0.50041 0.45636 1.00423 0.0
C50 C 0.50044 0.43307 0.03529 0.0
C51 C 0.5069 0.45739 0.04365 0.0
O52 O 0.5442 0.52364 0.99512 0.0
C53 C 0.45801 0.4875 0.02055 0.0
O54 O 0.45461 0.46418 0.01801 0.0
H55 H 0.49979 0.46287 0.9854 0.0
H56 H 0.51193 0.46428 0.06251 0.0
N57 N 0.53108 0.52379 0.05234 0.0
N58 N 0.53405 0.54572 0.08658 0.0
C59 C 0.52042 0.5357 0.065 0.0
C60 C 0.55228 0.52628 0.06641 0.0
C61 C 0.55425 0.53993 0.08751 0.0
C62 C 0.56393 0.51901 0.99578 0.0
O63 O 0.5653 0.50584 0.01508 0.0
H64 H 0.50307 0.53718 0.05835 0.0
H65 H 0.56515 0.51848 0.0619 0.0
O66 O 0.48255 0.50813 0.01806 0.0
H67 H 0.49924 0.41718 0.04647 0.0
H68 H 0.56905 0.54475 0.10255 0.0
Cu69 Cu 0.01269 0.50363 0.51027 0.0
N70 N 1.00564 0.48296 0.48218 0.0
N71 N 0.01611 0.46668 0.44988 0.0
C72 C 0.02564 0.48124 0.47054 0.0
C73 C 0.98875 0.45891 0.44834 0.0
C74 C 0.98232 0.46896 0.46836 0.0
O75 O 0.05051 0.53475 0.50477 0.0
C76 C 0.99277 0.45783 0.54174 0.0
O77 O 0.98901 0.44559 0.52077 0.0
H78 H 0.04718 0.49144 0.47658 0.0
H79 H 0.96229 0.46667 0.47226 0.0
N80 N 0.98813 0.5156 0.51208 0.0
N81 N 0.96248 0.52951 0.52977 0.0
C82 C 0.97942 0.52007 0.53355 0.0
C83 C 0.97635 0.52237 0.49392 0.0
C84 C 0.96042 0.5309 0.50479 0.0
C85 C 0.07332 0.53497 0.50532 0.0
O86 O 0.07328 0.51473 0.51556 0.0
H87 H 0.9854 0.51631 0.55161 0.0
H88 H 0.97938 0.52147 0.47424 0.0
O89 O 1.0057 0.48302 0.54136 0.0
H90 H 0.97447 0.44713 0.43373 0.0
H91 H 0.94876 0.53808 0.49499 0.0
Cu92 Cu 0.53394 0.0283 0.03466 0.0
N93 N 0.5389 0.06182 0.03388 0.0
N94 N 0.54748 0.09844 0.01318 0.0
C95 C 0.55435 0.08004 0.0161 0.0
C96 C 0.52767 0.09205 0.03077 0.0
C97 C 0.52232 0.06939 0.0434 0.0
O98 O 0.53648 0.02197 0.9997 0.0
C99 C 0.48819 0.97716 0.04974 0.0
O100 O 0.49746 0.96881 0.03216 0.0
H101 H 0.56775 0.07778 1.00349 0.0
H102 H 0.50561 0.05785 0.0567 0.0
N103 N 0.56341 0.0295 0.05201 0.0
N104 N 0.58559 0.01515 0.0759 0.0
C105 C 0.56315 0.00827 0.06129 0.0
C106 C 0.58691 0.05066 0.06091 0.0
C107 C 0.60065 0.04184 0.07576 0.0
C108 C 0.5238 0.02818 0.98381 0.0
O109 O 0.50254 0.02963 0.9915 0.0
H110 H 0.54598 0.98814 0.05856 0.0
H111 H 0.59299 0.07098 0.05768 0.0
O112 O 0.49948 1.00199 0.05226 0.0
H113 H 0.51619 0.10174 0.03316 0.0
H114 H 0.6198 0.05406 0.08609 0.0
Cu115 Cu 0.51889 0.51765 0.52656 0.0
N116 N 0.5327 0.55377 0.52834 0.0
N117 N 0.54816 0.59449 0.51348 0.0
C118 C 0.54268 0.57023 0.50839 0.0
C119 C 0.54151 0.59337 0.53769 0.0
C120 C 0.53209 0.5682 0.54689 0.0
O121 O 0.49657 0.5075 0.49579 0.0
C122 C 0.56691 0.52493 0.54735 0.0
O123 O 0.56024 0.53824 0.56172 0.0
H124 H 0.54424 0.56399 0.49008 0.0
H125 H 0.52465 0.56084 0.56555 0.0
N126 N 0.49647 0.4985 0.55417 0.0
N127 N 0.48285 0.47093 0.5872 0.0
C128 C 0.49637 0.47792 0.56514 0.0
C129 C 0.48215 0.50449 0.56977 0.0
C130 C 0.47395 0.48764 0.59031 0.0
C131 C 0.4773 0.51279 0.4957 0.0
O132 O 0.47256 0.52101 0.5164 0.0
H133 H 0.50795 0.46962 0.55804 0.0
H134 H 0.47918 0.52085 0.56714 0.0
O135 O 0.55133 0.51349 0.52857 0.0
H136 H 0.54274 0.60939 0.54782 0.0
H137 H 0.46339 0.48833 0.60671 0.0
Mg138 Mg 0.27769 0.52085 0.255 0.0
C139 C 0.24083 0.52528 0.22143 0.0
O140 O 0.23224 0.50026 0.22525 0.0
C141 C 0.32941 0.52997 0.28199 0.0
O142 O 0.32727 0.51481 0.26376 0.0
C143 C 0.23888 0.50105 0.29787 0.0
O144 O 0.26183 0.52177 0.30644 0.0
O145 O 0.23948 0.49335 0.27614 0.0
O146 O 0.26277 0.5426 0.23297 0.0
O147 O 0.29265 0.50815 0.22454 0.0
C148 C 0.28698 0.48616 0.21613 0.0
O149 O 0.26754 0.46393 0.22694 0.0
O150 O 0.31242 0.53804 0.28247 0.0
Mg151 Mg 0.76575 0.23345 0.7633 0.0
C152 C 0.74218 0.20055 0.71888 0.0
O153 O 0.74042 0.22125 0.71382 0.0
C154 C 0.79623 0.24084 0.81325 0.0
O155 O 0.7709 0.22304 0.82127 0.0
C156 C 0.71785 0.19442 0.79277 0.0
O157 O 0.73116 0.18325 0.78508 0.0
O158 O 0.72721 0.21829 0.78573 0.0
O159 O 0.75414 0.2001 0.73898 0.0
O160 O 0.78314 0.26839 0.73802 0.0
C161 C 0.8021 0.26964 0.7241 0.0
O162 O 0.80747 0.25079 0.72646 0.0
O163 O 0.8002 0.24642 0.79006 0.0
Mg164 Mg 0.54506 0.77414 0.27152 0.0
C165 C 0.57029 0.80841 0.22577 0.0
O166 O 0.55473 0.78515 0.21569 0.0
C167 C 0.56794 0.77137 0.3213 0.0
O168 O 0.55899 0.78708 0.32628 0.0
C169 C 0.51446 0.80174 0.28482 0.0
O170 O 0.52048 0.81019 0.26159 0.0
O171 O 0.51924 0.78423 0.29271 0.0
O172 O 0.57223 0.80966 0.24932 0.0
O173 O 0.52394 0.74028 0.24702 0.0
C174 C 0.5155 0.71693 0.2549 0.0
O175 O 0.51632 0.71263 0.27887 0.0
O176 O 0.56704 0.76446 0.29899 0.0
Mg177 Mg 0.77934 0.53104 0.76478 0.0
C178 C 0.72836 0.51232 0.73329 0.0
O179 O 0.72727 0.52876 0.74828 0.0
C180 C 0.81904 0.51342 0.78229 0.0
O181 O 0.82925 0.52185 0.75978 0.0
C182 C 0.7482 0.53112 0.80876 0.0
O183 O 0.74798 0.50908 0.81135 0.0
O184 O 0.76122 0.54639 0.7902 0.0
O185 O 0.74714 0.50681 0.73714 0.0
O186 O 0.81491 0.55947 0.74164 0.0
C187 C 0.81066 0.56435 0.71944 0.0
O188 O 0.78503 0.55722 0.71286 0.0
O189 O 0.79681 0.51272 0.7885 0.0
Mg190 Mg 0.27165 0.75623 0.28266 0.0
C191 C 0.23367 0.72626 0.24144 0.0
O192 O 0.25787 0.72964 0.23492 0.0
C193 C 0.29786 0.80723 0.31082 0.0
O194 O 0.31749 0.81416 0.294 0.0
C195 C 0.25024 0.70106 0.30574 0.0
O196 O 0.23625 0.69336 0.28477 0.0
O197 O 0.26891 0.72551 0.30822 0.0
O198 O 0.23251 0.73653 0.26149 0.0
O199 O 0.30595 0.77812 0.25499 0.0
C200 C 0.30225 0.7937 0.24115 0.0
O201 O 0.27955 0.79437 0.24485 0.0
O202 O 0.27517 0.78467 0.30955 0.0
Mg203 Mg 0.51737 0.25911 0.77452 0.0
C204 C 0.48863 0.2032 0.75326 0.0
O205 O 0.49576 0.1973 0.77463 0.0
C206 C 0.50978 0.2772 0.82226 0.0
O207 O 0.53539 0.28187 0.82292 0.0
C208 C 0.55736 0.23881 0.79236 0.0
O209 O 0.55742 0.23096 0.76978 0.0
O210 O 0.54519 0.25121 0.79652 0.0
O211 O 0.49265 0.22612 0.74986 0.0
O212 O 0.53504 0.29328 0.74902 0.0
C213 C 0.53777 0.31494 0.75524 0.0
O214 O 0.53495 0.31853 0.77874 0.0
O215 O 0.49484 0.26652 0.80303 0.0
H216 H 0.08888 0.50386 0.03478 0.0
H217 H 0.12307 0.50699 0.06553 0.0
H218 H 0.13678 0.58108 0.08993 0.0
H219 H 0.10434 0.57916 0.05817 0.0
H220 H 0.18557 0.55695 0.08017 0.0
H221 H 0.11576 0.55297 0.16105 0.0
H222 H 0.0661 0.53702 0.16998 0.0
H223 H 0.03969 0.48046 0.11212 0.0
H224 H 0.08889 0.49497 0.10392 0.0
H225 H 0.25801 0.5728 0.19632 0.0
H226 H 0.23246 0.58015 0.16275 0.0
H227 H 0.16323 0.49932 0.17159 0.0
H228 H 0.18802 0.49212 0.20487 0.0
H229 H 0.14335 0.52945 0.16448 0.0
H230 H 0.2136 0.51893 0.12561 0.0
H231 H 0.26187 0.53019 0.11716 0.0
H232 H 0.28448 0.60751 0.09065 0.0
H233 H 0.2364 0.5968 0.09927 0.0
C234 C 0.09983 0.52124 0.04612 0.0
C235 C 0.09343 0.54102 0.04424 0.0
C236 C 0.11933 0.52297 0.06373 0.0
C237 C 0.13193 0.54396 0.08038 0.0
C238 C 0.12705 0.56457 0.07746 0.0
C239 C 0.10847 0.5634 0.0592 0.0
C240 C 0.14826 0.5433 0.10204 0.0
C241 C 0.17642 0.55111 0.09864 0.0
C242 C 0.13617 0.53535 0.12611 0.0
C243 C 0.10625 0.52607 0.13102 0.0
C244 C 0.09935 0.53727 0.15013 0.0
C245 C 0.07125 0.52824 0.1553 0.0
C246 C 0.04978 0.50803 0.14137 0.0
C247 C 0.05635 0.49641 0.12264 0.0
C248 C 0.08439 0.50508 0.11771 0.0
C249 C 0.23717 0.5568 0.19129 0.0
C250 C 0.22519 0.53183 0.20318 0.0
C251 C 0.22267 0.56093 0.17198 0.0
C252 C 0.19598 0.54016 0.16433 0.0
C253 C 0.18371 0.51568 0.17699 0.0
C254 C 0.19808 0.51157 0.19605 0.0
C255 C 0.18075 0.54303 0.14274 0.0
C256 C 0.1527 0.5357 0.1461 0.0
C257 C 0.19269 0.55074 0.11859 0.0
C258 C 0.22153 0.55718 0.11335 0.0
C259 C 0.22894 0.5384 0.11816 0.0
C260 C 0.25624 0.54467 0.11331 0.0
C261 C 0.27626 0.56958 0.10345 0.0
C262 C 0.26897 0.58824 0.09834 0.0
C263 C 0.2417 0.58208 0.1032 0.0
H264 H 0.29739 0.57439 0.0997 0.0
H265 H 0.02806 0.50126 0.14522 0.0
H266 H 0.53714 0.01915 0.59437 0.0
H267 H 0.56916 0.04522 0.6278 0.0
H268 H 0.63865 0.0519 0.58744 0.0
H269 H 0.60679 0.02538 0.55432 0.0
H270 H 0.64728 0.05027 0.63603 0.0
H271 H 0.62292 0.10034 0.58096 0.0
H272 H 0.59153 0.1115 0.55917 0.0
H273 H 0.55754 0.11463 0.6292 0.0
H274 H 0.58875 0.1036 0.65132 0.0
H275 H 0.73196 0.2008 0.66964 0.0
H276 H 0.7007 0.16316 0.64405 0.0
H277 H 0.68514 0.11002 0.7063 0.0
H278 H 0.71743 0.1479 0.73185 0.0
H279 H 0.64768 0.13231 0.64944 0.0
H280 H 0.66082 0.04727 0.68425 0.0
H281 H 0.69752 0.0407 0.70172 0.0
H282 H 0.76138 0.11243 0.6653 0.0
H283 H 0.72505 0.11924 0.64738 0.0
C284 C 0.55909 0.02548 0.59292 0.0
C285 C 0.56942 0.02043 0.57145 0.0
C286 C 0.57743 0.04057 0.61201 0.0
C287 C 0.60647 0.05107 0.60991 0.0
C288 C 0.61641 0.04418 0.58949 0.0
C289 C 0.5981 0.02903 0.57047 0.0
C290 C 0.62685 0.07146 0.62734 0.0
C291 C 0.64724 0.06812 0.63916 0.0
C292 C 0.62729 0.09504 0.63108 0.0
C293 C 0.60801 0.10101 0.61776 0.0
C294 C 0.60862 0.10328 0.59166 0.0
C295 C 0.59095 0.10969 0.57926 0.0
C296 C 0.57273 0.11402 0.59278 0.0
C297 C 0.57185 0.11158 0.61871 0.0
C298 C 0.58953 0.10527 0.6312 0.0
C299 C 0.72236 0.18106 0.67775 0.0
C300 C 0.72714 0.1773 0.70274 0.0
C301 C 0.70433 0.15952 0.66312 0.0
C302 C 0.69028 0.13364 0.67318 0.0
C303 C 0.69589 0.1297 0.69794 0.0
C304 C 0.71439 0.15136 0.71254 0.0
C305 C 0.66845 0.1114 0.65806 0.0
C306 C 0.64762 0.11435 0.64668 0.0
C307 C 0.6682 0.08788 0.65425 0.0
C308 C 0.69022 0.0839 0.66474 0.0
C309 C 0.68269 0.06159 0.67994 0.0
C310 C 0.70343 0.05784 0.68992 0.0
C311 C 0.73177 0.07619 0.6847 0.0
C312 C 0.73943 0.09829 0.66941 0.0
C313 C 0.71877 0.10213 0.65937 0.0
H314 H 0.74779 0.07325 0.69245 0.0
H315 H 0.55936 0.11933 0.58315 0.0
H316 H 0.57079 0.58285 0.11842 0.0
H317 H 0.56113 0.60759 0.1478 0.0
H318 H 0.47422 0.56525 0.12513 0.0
H319 H 0.48382 0.54058 0.09558 0.0
H320 H 0.49199 0.61518 0.12843 0.0
H321 H 0.49323 0.55193 0.18219 0.0
H322 H 0.51103 0.5254 0.20066 0.0
H323 H 0.58489 0.59612 0.22602 0.0
H324 H 0.5677 0.6231 0.20741 0.0
H325 H 0.49097 0.66386 0.26464 0.0
H326 H 0.48617 0.63025 0.23641 0.0
H327 H 0.52327 0.68916 0.17723 0.0
H328 H 0.52694 0.72245 0.20502 0.0
H329 H 0.52273 0.6249 0.21637 0.0
H330 H 0.50617 0.66418 0.12105 0.0
H331 H 0.47998 0.68383 0.10457 0.0
H332 H 0.42222 0.64976 0.16593 0.0
H333 H 0.44783 0.62963 0.18261 0.0
C334 C 0.54957 0.57858 0.11987 0.0
C335 C 0.52814 0.55973 0.10458 0.0
C336 C 0.54403 0.59275 0.1367 0.0
C337 C 0.51686 0.58818 0.1389 0.0
C338 C 0.49538 0.56926 0.12375 0.0
C339 C 0.50093 0.55519 0.1068 0.0
C340 C 0.51116 0.60361 0.1566 0.0
C341 C 0.49872 0.61732 0.14766 0.0
C342 C 0.51883 0.60562 0.18197 0.0
C343 C 0.5293 0.58954 0.19322 0.0
C344 C 0.51338 0.56183 0.19154 0.0
C345 C 0.52333 0.54671 0.20207 0.0
C346 C 0.54911 0.55907 0.21445 0.0
C347 C 0.56495 0.58658 0.2164 0.0
C348 C 0.55509 0.60179 0.20589 0.0
C349 C 0.49756 0.66952 0.24546 0.0
C350 C 0.5093 0.69586 0.2371 0.0
C351 C 0.49494 0.65029 0.22933 0.0
C352 C 0.50421 0.65698 0.20453 0.0
C353 C 0.51533 0.68318 0.19604 0.0
C354 C 0.51755 0.70232 0.21204 0.0
C355 C 0.50429 0.63721 0.18808 0.0
C356 C 0.51582 0.62273 0.1972 0.0
C357 C 0.49464 0.63362 0.16318 0.0
C358 C 0.47912 0.64564 0.15321 0.0
C359 C 0.48783 0.66082 0.13098 0.0
C360 C 0.4731 0.67205 0.12161 0.0
C361 C 0.44951 0.66812 0.13424 0.0
C362 C 0.44056 0.65289 0.15623 0.0
C363 C 0.45521 0.64161 0.16567 0.0
H364 H 0.43813 0.67684 0.12695 0.0
H365 H 0.55679 0.54733 0.22259 0.0
H366 H 0.91581 0.53231 0.52527 0.0
H367 H 0.8941 0.54395 0.55745 0.0
H368 H 0.95826 0.55483 0.60933 0.0
H369 H 0.98021 0.54351 0.57732 0.0
H370 H 0.9072 0.52622 0.63027 0.0
H371 H 0.95854 0.60779 0.5834 0.0
H372 H 0.9733 0.63637 0.54566 0.0
H373 H 0.88827 0.61551 0.53359 0.0
H374 H 0.87292 0.5865 0.57109 0.0
H375 H 0.86463 0.57571 0.72535 0.0
H376 H 0.8953 0.57655 0.69292 0.0
H377 H 0.8351 0.56695 0.63706 0.0
H378 H 0.80483 0.56691 0.66926 0.0
H379 H 0.88678 0.59707 0.61888 0.0
H380 H 0.83483 0.51336 0.66348 0.0
H381 H 0.81939 0.48504 0.70142 0.0
H382 H 0.90483 0.50942 0.71736 0.0
H383 H 0.92084 0.53821 0.67967 0.0
C384 C 0.92553 0.53746 0.54341 0.0
C385 C 0.9498 0.53686 0.54859 0.0
C386 C 0.91305 0.54411 0.56184 0.0
C387 C 0.92465 0.55048 0.58581 0.0
C388 C 0.94885 0.54992 0.59102 0.0
C389 C 0.96133 0.5433 0.57265 0.0
C390 C 0.91121 0.55706 0.60565 0.0
C391 C 0.90316 0.542 0.6279 0.0
C392 C 0.90536 0.57729 0.60244 0.0
C393 C 0.91454 0.59478 0.57993 0.0
C394 C 0.94295 0.60913 0.57259 0.0
C395 C 0.95143 0.62544 0.55126 0.0
C396 C 0.93173 0.6277 0.5372 0.0
C397 C 0.90351 0.61371 0.54448 0.0
C398 C 0.89491 0.59735 0.56579 0.0
C399 C 0.85825 0.57447 0.70611 0.0
C400 C 0.83204 0.57085 0.69993 0.0
C401 C 0.87572 0.57477 0.68758 0.0
C402 C 0.86714 0.57103 0.66259 0.0
C403 C 0.8421 0.56962 0.6562 0.0
C404 C 0.82476 0.56958 0.67468 0.0
C405 C 0.88276 0.5662 0.64343 0.0
C406 C 0.89108 0.58146 0.62129 0.0
C407 C 0.88873 0.54604 0.64666 0.0
C408 C 0.87906 0.52813 0.66889 0.0
C409 C 0.85034 0.51275 0.67512 0.0
C410 C 0.84148 0.49663 0.69659 0.0
C411 C 0.86113 0.49549 0.71183 0.0
C412 C 0.88965 0.51036 0.70555 0.0
C413 C 0.89863 0.52657 0.68414 0.0
H414 H 0.85424 0.48306 0.72848 0.0
H415 H 0.93833 0.64034 0.5207 0.0
H416 H 0.45431 0.92332 0.04646 0.0
H417 H 0.42356 0.89142 0.07856 0.0
H418 H 0.4458 0.95524 0.12814 0.0
H419 H 0.4764 0.98731 0.09601 0.0
H420 H 0.44783 0.91476 0.15162 0.0
H421 H 0.38271 0.92422 0.10063 0.0
H422 H 0.35945 0.92411 0.06146 0.0
H423 H 0.33116 0.84251 0.05154 0.0
H424 H 0.35459 0.84224 0.09051 0.0
H425 H 0.29979 0.83053 0.21249 0.0
H426 H 0.33231 0.86019 0.18064 0.0
H427 H 0.38396 0.82745 0.19271 0.0
H428 H 0.35132 0.79765 0.22544 0.0
H429 H 0.3461 0.85144 0.13785 0.0
H430 H 0.45419 0.87782 0.17521 0.0
H431 H 0.47782 0.88033 0.2149 0.0
H432 H 0.41997 0.89341 0.25362 0.0
H433 H 0.39628 0.89139 0.21412 0.0
C434 C 0.45244 0.93063 0.06409 0.0
C435 C 0.4677 0.95795 0.06852 0.0
C436 C 0.43482 0.91233 0.08245 0.0
C437 C 0.43225 0.92086 0.10582 0.0
C438 C 0.44744 0.94812 0.11031 0.0
C439 C 0.46476 0.96647 0.09182 0.0
C440 C 0.4138 0.90137 0.12557 0.0
C441 C 0.42561 0.90081 0.14857 0.0
C442 C 0.38476 0.88318 0.12175 0.0
C443 C 0.37065 0.88329 0.09834 0.0
C444 C 0.37173 0.90632 0.08998 0.0
C445 C 0.35848 0.90631 0.06784 0.0
C446 C 0.34391 0.88334 0.05398 0.0
C447 C 0.3425 0.8603 0.06227 0.0
C448 C 0.35574 0.86021 0.08439 0.0
C449 C 0.31804 0.8295 0.20854 0.0
C450 C 0.32282 0.81156 0.22165 0.0
C451 C 0.33668 0.84655 0.19013 0.0
C452 C 0.36077 0.84628 0.18413 0.0
C453 C 0.36573 0.82834 0.19711 0.0
C454 C 0.34699 0.81121 0.21577 0.0
C455 C 0.38006 0.86473 0.16408 0.0
C456 C 0.36841 0.8651 0.14089 0.0
C457 C 0.40923 0.8828 0.16783 0.0
C458 C 0.42319 0.88402 0.19175 0.0
C459 C 0.44651 0.88123 0.1922 0.0
C460 C 0.45994 0.8826 0.21466 0.0
C461 C 0.45031 0.88689 0.23679 0.0
C462 C 0.42731 0.88994 0.23648 0.0
C463 C 0.41385 0.88865 0.21407 0.0
H464 H 0.46074 0.88795 0.25416 0.0
H465 H 0.33365 0.88337 0.03684 0.0
H466 H 0.46946 0.42111 0.57994 0.0
H467 H 0.47651 0.39302 0.60924 0.0
H468 H 0.50589 0.45332 0.66446 0.0
H469 H 0.49815 0.48104 0.63523 0.0
H470 H 0.54297 0.4393 0.65833 0.0
H471 H 0.44307 0.39228 0.67117 0.0
H472 H 0.39323 0.36824 0.65873 0.0
H473 H 0.40245 0.30905 0.62461 0.0
H474 H 0.45247 0.33292 0.63657 0.0
H475 H 0.54798 0.3646 0.76137 0.0
H476 H 0.53948 0.39103 0.73137 0.0
H477 H 0.51733 0.33233 0.67579 0.0
H478 H 0.52599 0.30584 0.70562 0.0
H479 H 0.47693 0.34489 0.6814 0.0
H480 H 0.57528 0.38996 0.66772 0.0
H481 H 0.62497 0.41218 0.68026 0.0
H482 H 0.61964 0.47408 0.71322 0.0
H483 H 0.56966 0.45192 0.70133 0.0
C484 C 0.47677 0.42796 0.59856 0.0
C485 C 0.48326 0.45311 0.60543 0.0
C486 C 0.48069 0.41192 0.61534 0.0
C487 C 0.49189 0.42108 0.63909 0.0
C488 C 0.49735 0.44585 0.64624 0.0
C489 C 0.4928 0.46161 0.62964 0.0
C490 C 0.50034 0.406 0.65547 0.0
C491 C 0.52839 0.41875 0.6636 0.0
C492 C 0.48167 0.37893 0.66174 0.0
C493 C 0.45158 0.36452 0.65457 0.0
C494 C 0.43453 0.37425 0.66084 0.0
C495 C 0.40624 0.36063 0.65391 0.0
C496 C 0.3947 0.33717 0.64083 0.0
C497 C 0.41142 0.32724 0.63472 0.0
C498 C 0.43973 0.34079 0.64159 0.0
C499 C 0.54187 0.35756 0.74262 0.0
C500 C 0.53761 0.33307 0.73594 0.0
C501 C 0.53701 0.37269 0.72548 0.0
C502 C 0.52765 0.36359 0.70137 0.0
C503 C 0.52444 0.33967 0.69433 0.0
C504 C 0.52962 0.32465 0.71137 0.0
C505 C 0.51944 0.37822 0.68417 0.0
C506 C 0.49149 0.3654 0.67594 0.0
C507 C 0.53829 0.40511 0.67748 0.0
C508 C 0.56856 0.41902 0.68401 0.0
C509 C 0.5846 0.40817 0.67786 0.0
C510 C 0.61281 0.42074 0.68487 0.0
C511 C 0.62535 0.44435 0.69778 0.0
C512 C 0.60981 0.45567 0.70339 0.0
C513 C 0.58153 0.44311 0.69651 0.0
H514 H 0.64714 0.45394 0.70331 0.0
H515 H 0.37279 0.32666 0.63548 0.0
H516 H 0.48386 0.94657 0.44335 0.0
H517 H 0.47713 0.9133 0.41378 0.0
H518 H 0.56592 0.95851 0.39718 0.0
H519 H 0.57273 0.99189 0.42676 0.0
H520 H 0.53819 0.94017 0.35593 0.0
H521 H 0.53595 0.90401 0.43584 0.0
H522 H 0.52153 0.88785 0.47898 0.0
H523 H 0.43883 0.82935 0.45398 0.0
H524 H 0.45243 0.84577 0.41076 0.0
H525 H 0.52296 0.80455 0.33501 0.0
H526 H 0.5228 0.83581 0.36303 0.0
H527 H 0.4919 0.86382 0.30388 0.0
H528 H 0.49395 0.83369 0.27523 0.0
H529 H 0.49 0.84583 0.38267 0.0
H530 H 0.51463 0.92763 0.30929 0.0
H531 H 0.53687 0.94278 0.2679 0.0
H532 H 0.58825 0.91079 0.28368 0.0
H533 H 0.56651 0.8957 0.32524 0.0
C534 C 0.502 0.94937 0.43354 0.0
C535 C 0.52892 0.9718 0.43766 0.0
C536 C 0.4981 0.93033 0.41656 0.0
C537 C 0.52106 0.93314 0.40343 0.0
C538 C 0.54784 0.95586 0.40703 0.0
C539 C 0.55173 0.97498 0.42395 0.0
C540 C 0.51728 0.91225 0.38625 0.0
C541 C 0.52755 0.91953 0.36179 0.0
C542 C 0.5039 0.88531 0.3939 0.0
C543 C 0.49513 0.87637 0.42005 0.0
C544 C 0.51453 0.88803 0.43957 0.0
C545 C 0.50652 0.87877 0.46404 0.0
C546 C 0.47929 0.8576 0.46922 0.0
C547 C 0.45993 0.84576 0.44994 0.0
C548 C 0.46773 0.85513 0.42547 0.0
C549 C 0.51583 0.81714 0.32798 0.0
C550 C 0.5088 0.81683 0.30277 0.0
C551 C 0.51571 0.83508 0.34409 0.0
C552 C 0.50804 0.85282 0.33555 0.0
C553 C 0.49886 0.85106 0.31082 0.0
C554 C 0.49971 0.83359 0.29449 0.0
C555 C 0.51087 0.87369 0.35233 0.0
C556 C 0.50036 0.86642 0.37672 0.0
C557 C 0.52505 0.90077 0.34494 0.0
C558 C 0.53875 0.91034 0.32025 0.0
C559 C 0.53077 0.92396 0.30396 0.0
C560 C 0.54327 0.9325 0.28047 0.0
C561 C 0.56391 0.92769 0.27315 0.0
C562 C 0.57221 0.91444 0.28935 0.0
C563 C 0.5598 0.90588 0.31286 0.0
H564 H 0.57351 0.93426 0.25493 0.0
H565 H 0.47319 0.85034 0.48816 0.0
H566 H 0.57252 0.55035 0.95375 0.0
H567 H 0.60596 0.56069 0.91961 0.0
H568 H 0.63264 0.51249 0.956 0.0
H569 H 0.60031 0.50278 0.98995 0.0
H570 H 0.67679 0.55653 0.94052 0.0
H571 H 0.58751 0.49116 0.90358 0.0
H572 H 0.53864 0.47392 0.89032 0.0
H573 H 0.5668 0.54282 0.84335 0.0
H574 H 0.61577 0.5605 0.85668 0.0
H575 H 0.72852 0.50777 0.85413 0.0
H576 H 0.70002 0.51443 0.88315 0.0
H577 H 0.70242 0.57341 0.83352 0.0
H578 H 0.73135 0.56685 0.80405 0.0
H579 H 0.64747 0.53534 0.85261 0.0
H580 H 0.73942 0.59466 0.8841 0.0
H581 H 0.78739 0.60852 0.89747 0.0
H582 H 0.75364 0.54836 0.9551 0.0
H583 H 0.70546 0.53387 0.94186 0.0
C584 C 0.58563 0.54209 0.95443 0.0
C585 C 0.58384 0.52592 0.97474 0.0
C586 C 0.60465 0.54789 0.93486 0.0
C587 C 0.62193 0.53737 0.93514 0.0
C588 C 0.61988 0.52113 0.95536 0.0
C589 C 0.60122 0.51555 0.97484 0.0
C590 C 0.64239 0.54296 0.91478 0.0
C591 C 0.67031 0.55187 0.92131 0.0
C592 C 0.6344 0.5378 0.88949 0.0
C593 C 0.60511 0.52727 0.88141 0.0
C594 C 0.58315 0.50268 0.89063 0.0
C595 C 0.55548 0.49283 0.88306 0.0
C596 C 0.54959 0.50733 0.86607 0.0
C597 C 0.57138 0.53165 0.85656 0.0
C598 C 0.59909 0.54158 0.86412 0.0
C599 C 0.72321 0.52232 0.84934 0.0
C600 C 0.73233 0.53684 0.82676 0.0
C601 C 0.70692 0.52614 0.86604 0.0
C602 C 0.69921 0.54455 0.86063 0.0
C603 C 0.70819 0.55915 0.83809 0.0
C604 C 0.72485 0.5555 0.82137 0.0
C605 C 0.68139 0.54779 0.87866 0.0
C606 C 0.65409 0.54063 0.87171 0.0
C607 C 0.68983 0.55429 0.90367 0.0
C608 C 0.7188 0.56312 0.9119 0.0
C609 C 0.74222 0.58429 0.89953 0.0
C610 C 0.76945 0.59226 0.9071 0.0
C611 C 0.77356 0.57931 0.9271 0.0
C612 C 0.75043 0.55839 0.93961 0.0
C613 C 0.72315 0.55031 0.93211 0.0
H614 H 0.79466 0.58551 0.93292 0.0
H615 H 0.52816 0.49968 0.86022 0.0
H616 H 0.07849 0.57676 0.47806 0.0
H617 H 0.11351 0.60355 0.44617 0.0
H618 H 0.15705 0.56349 0.46274 0.0
H619 H 0.12208 0.53659 0.4949 0.0
H620 H 0.19439 0.61605 0.4522 0.0
H621 H 0.11544 0.54425 0.41394 0.0
H622 H 0.06533 0.51346 0.40488 0.0
H623 H 0.05923 0.57756 0.37511 0.0
H624 H 0.10938 0.60894 0.38433 0.0
H625 H 0.21753 0.64707 0.30607 0.0
H626 H 0.19344 0.61733 0.34153 0.0
H627 H 0.23289 0.68374 0.39049 0.0
H628 H 0.25786 0.71334 0.35517 0.0
H629 H 0.15575 0.6125 0.36805 0.0
H630 H 0.23246 0.66627 0.45052 0.0
H631 H 0.28346 0.69159 0.45861 0.0
H632 H 0.29658 0.65467 0.39731 0.0
H633 H 0.24568 0.62891 0.38903 0.0
C634 C 0.09575 0.5739 0.47531 0.0
C635 C 0.09727 0.55433 0.48908 0.0
C636 C 0.11574 0.58918 0.45692 0.0
C637 C 0.13774 0.5853 0.45171 0.0
C638 C 0.14027 0.56685 0.46633 0.0
C639 C 0.12022 0.55148 0.48477 0.0
C640 C 0.15688 0.5994 0.43006 0.0
C641 C 0.18603 0.61535 0.43377 0.0
C642 C 0.14618 0.59767 0.40577 0.0
C643 C 0.11608 0.57896 0.40003 0.0
C644 C 0.10337 0.55182 0.40562 0.0
C645 C 0.07496 0.53425 0.40043 0.0
C646 C 0.05904 0.5435 0.38948 0.0
C647 C 0.07157 0.5704 0.38363 0.0
C648 C 0.10001 0.58811 0.38881 0.0
C649 C 0.22169 0.65525 0.32449 0.0
C650 C 0.23977 0.68262 0.32772 0.0
C651 C 0.20774 0.63819 0.34484 0.0
C652 C 0.21131 0.64801 0.36899 0.0
C653 C 0.23013 0.6753 0.37232 0.0
C654 C 0.24443 0.69234 0.352 0.0
C655 C 0.19354 0.6302 0.39012 0.0
C656 C 0.16444 0.61335 0.38634 0.0
C657 C 0.20454 0.63048 0.4141 0.0
C658 C 0.23522 0.64577 0.41905 0.0
C659 C 0.2462 0.66345 0.43883 0.0
C660 C 0.27511 0.67792 0.44344 0.0
C661 C 0.29326 0.67479 0.42845 0.0
C662 C 0.28252 0.65714 0.40886 0.0
C663 C 0.25363 0.64262 0.40419 0.0
H664 H 0.31563 0.68602 0.43203 0.0
H665 H 0.03703 0.52981 0.3855 0.0
H666 H 0.59261 0.11758 0.98216 0.0
H667 H 0.60022 0.14167 0.94283 0.0
H668 H 0.52591 0.14391 0.95587 0.0
H669 H 0.51732 0.11871 0.99446 0.0
H670 H 0.5248 0.13067 0.91078 0.0
H671 H 0.59663 0.199 0.96198 0.0
H672 H 0.63821 0.21917 0.98927 0.0
H673 H 0.68717 0.21387 0.93167 0.0
H674 H 0.64561 0.1933 0.90414 0.0
H675 H 0.54798 0.24197 0.84138 0.0
H676 H 0.55348 0.2187 0.87651 0.0
H677 H 0.59095 0.18896 0.82862 0.0
H678 H 0.58463 0.21163 0.79268 0.0
H679 H 0.61423 0.21289 0.88659 0.0
H680 H 0.53971 0.14727 0.83435 0.0
H681 H 0.49744 0.13065 0.80841 0.0
H682 H 0.45214 0.13403 0.87048 0.0
H683 H 0.49445 0.15138 0.89665 0.0
C684 C 0.57787 0.12321 0.97676 0.0
C685 C 0.55421 0.11594 0.99168 0.0
C686 C 0.58242 0.13724 0.95426 0.0
C687 C 0.56369 0.14473 0.94625 0.0
C688 C 0.54061 0.13824 0.96146 0.0
C689 C 0.53591 0.12405 0.98384 0.0
C690 C 0.56747 0.15869 0.92184 0.0
C691 C 0.54438 0.1487 0.90565 0.0
C692 C 0.59318 0.18188 0.91461 0.0
C693 C 0.61802 0.1943 0.93114 0.0
C694 C 0.6162 0.20193 0.95522 0.0
C695 C 0.63974 0.21345 0.97071 0.0
C696 C 0.66528 0.21766 0.96224 0.0
C697 C 0.66734 0.21046 0.93823 0.0
C698 C 0.64384 0.19889 0.92269 0.0
C699 C 0.55784 0.23089 0.83817 0.0
C700 C 0.5656 0.22849 0.81403 0.0
C701 C 0.56096 0.2176 0.85838 0.0
C702 C 0.57236 0.20198 0.85509 0.0
C703 C 0.58201 0.20091 0.83144 0.0
C704 C 0.57837 0.21385 0.81097 0.0
C705 C 0.57147 0.18509 0.87614 0.0
C706 C 0.59493 0.19457 0.89168 0.0
C707 C 0.54598 0.16169 0.88304 0.0
C708 C 0.52042 0.15102 0.86738 0.0
C709 C 0.52091 0.14493 0.84238 0.0
C710 C 0.49689 0.13527 0.82765 0.0
C711 C 0.47214 0.13138 0.83776 0.0
C712 C 0.47135 0.1371 0.86266 0.0
C713 C 0.49535 0.14684 0.87745 0.0
H714 H 0.45355 0.12386 0.82634 0.0
H715 H 0.68349 0.2266 0.97426 0.0
H716 H 0.43644 0.52401 0.49219 0.0
H717 H 0.41397 0.52838 0.45532 0.0
H718 H 0.46122 0.50716 0.40957 0.0
H719 H 0.48477 0.50339 0.44692 0.0
H720 H 0.46013 0.54782 0.38848 0.0
H721 H 0.3898 0.46322 0.42182 0.0
H722 H 0.35888 0.43091 0.45407 0.0
H723 H 0.31959 0.47501 0.46475 0.0
H724 H 0.35054 0.5078 0.4328 0.0
H725 H 0.37314 0.52245 0.28205 0.0
H726 H 0.4003 0.52197 0.31747 0.0
H727 H 0.35645 0.54523 0.36536 0.0
H728 H 0.32881 0.54549 0.32976 0.0
H729 H 0.35634 0.50313 0.38463 0.0
H730 H 0.42693 0.5879 0.35116 0.0
H731 H 0.45757 0.61978 0.31851 0.0
H732 H 0.496 0.57495 0.30761 0.0
H733 H 0.46535 0.54261 0.34 0.0
C734 C 0.44205 0.51999 0.47439 0.0
C735 C 0.46236 0.51308 0.47268 0.0
C736 C 0.42897 0.52243 0.4532 0.0
C737 C 0.43539 0.51767 0.42954 0.0
C738 C 0.45572 0.5108 0.4276 0.0
C739 C 0.46904 0.50845 0.44898 0.0
C740 C 0.42107 0.52047 0.4071 0.0
C741 C 0.43742 0.53773 0.3875 0.0
C742 C 0.39141 0.50784 0.40589 0.0
C743 C 0.37265 0.48808 0.42504 0.0
C744 C 0.3747 0.46613 0.43116 0.0
C745 C 0.35714 0.44771 0.44937 0.0
C746 C 0.33732 0.45094 0.46149 0.0
C747 C 0.33496 0.47255 0.45537 0.0
C748 C 0.35248 0.49104 0.43719 0.0
C749 C 0.36953 0.52792 0.30002 0.0
C750 C 0.34871 0.534 0.30301 0.0
C751 C 0.38524 0.52774 0.32031 0.0
C752 C 0.38063 0.53368 0.34419 0.0
C753 C 0.36047 0.54059 0.34714 0.0
C754 C 0.34479 0.54093 0.32674 0.0
C755 C 0.39538 0.53072 0.36617 0.0
C756 C 0.37907 0.51332 0.38566 0.0
C757 C 0.42503 0.54318 0.36721 0.0
C758 C 0.44364 0.56269 0.34785 0.0
C759 C 0.44177 0.58473 0.34168 0.0
C760 C 0.45917 0.60291 0.32325 0.0
C761 C 0.47866 0.59935 0.31094 0.0
C762 C 0.48087 0.57767 0.31713 0.0
C763 C 0.46351 0.55943 0.33555 0.0
H764 H 0.49209 0.61343 0.29665 0.0
H765 H 0.32375 0.43666 0.47558 0.0
H766 H 0.96042 0.43666 0.95067 0.0
H767 H 0.93618 0.40417 0.91873 0.0
H768 H 0.90054 0.34172 0.97466 0.0
H769 H 0.92603 0.37407 1.00687 0.0
H770 H 0.91508 0.32581 0.93605 0.0
H771 H 0.86182 0.36571 0.94715 0.0
H772 H 0.85331 0.40198 0.95047 0.0
H773 H 0.8823 0.42741 0.8755 0.0
H774 H 0.89129 0.3914 0.87179 0.0
H775 H 0.79758 0.23119 0.86303 0.0
H776 H 0.82919 0.26232 0.89412 0.0
H777 H 0.87512 0.32074 0.83621 0.0
H778 H 0.84384 0.28962 0.80492 0.0
H779 H 0.85605 0.33852 0.8752 0.0
H780 H 0.90643 0.29479 0.86498 0.0
H781 H 0.91154 0.25633 0.86339 0.0
H782 H 0.88337 0.23555 0.93911 0.0
H783 H 0.87772 0.27369 0.94106 0.0
C784 C 0.94786 0.41607 0.95639 0.0
C785 C 0.94531 0.40823 0.98165 0.0
C786 C 0.93364 0.39743 0.93796 0.0
C787 C 0.91605 0.37047 0.94423 0.0
C788 C 0.91385 0.36242 0.9693 0.0
C789 C 0.92829 0.38105 0.98779 0.0
C790 C 0.89981 0.3508 0.92464 0.0
C791 C 0.90192 0.32846 0.92295 0.0
C792 C 0.88288 0.35433 0.90723 0.0
C793 C 0.87751 0.37602 0.90929 0.0
C794 C 0.86659 0.37915 0.93143 0.0
C795 C 0.86163 0.39962 0.93336 0.0
C796 C 0.86733 0.417 0.91323 0.0
C797 C 0.87793 0.41391 0.89108 0.0
C798 C 0.88293 0.39346 0.88904 0.0
C799 C 0.81478 0.25046 0.85683 0.0
C800 C 0.81816 0.2579 0.83146 0.0
C801 C 0.83282 0.26823 0.87464 0.0
C802 C 0.85446 0.29387 0.86749 0.0
C803 C 0.85853 0.30105 0.84213 0.0
C804 C 0.84073 0.28316 0.82425 0.0
C805 C 0.87148 0.31372 0.8866 0.0
C806 C 0.86938 0.33602 0.88823 0.0
C807 C 0.88796 0.30988 0.90419 0.0
C808 C 0.8914 0.28697 0.90308 0.0
C809 C 0.90109 0.28189 0.88123 0.0
C810 C 0.90413 0.26017 0.88027 0.0
C811 C 0.89772 0.24347 0.90112 0.0
C812 C 0.88831 0.24849 0.92298 0.0
C813 C 0.88521 0.27017 0.92402 0.0
H814 H 0.90009 0.22667 0.90034 0.0
H815 H 0.86347 0.4328 0.91483 0.0
H816 H 0.01183 0.51697 0.92028 0.0
H817 H 0.9802 0.51564 0.88787 0.0
H818 H 0.92966 0.52212 0.94352 0.0
H819 H 0.96112 0.52348 0.97601 0.0
H820 H 0.89759 0.48208 0.91153 0.0
H821 H 0.9712 0.57392 0.90524 0.0
H822 H 0.02004 0.61158 0.90019 0.0
H823 H 0.02482 0.58374 0.82873 0.0
H824 H 0.9761 0.5457 0.83351 0.0
H825 H 0.81111 0.5071 0.83287 0.0
H826 H 0.84261 0.50647 0.86414 0.0
H827 H 0.8967 0.50954 0.80607 0.0
H828 H 0.86565 0.51088 0.77472 0.0
H829 H 0.92744 0.54406 0.83893 0.0
H830 H 0.85565 0.4521 0.84457 0.0
H831 H 0.8078 0.4127 0.84937 0.0
H832 H 0.80021 0.43888 0.92078 0.0
H833 H 0.84795 0.47856 0.91631 0.0
C834 C 0.99424 0.51852 0.92562 0.0
C835 C 0.98914 0.52041 0.95081 0.0
C836 C 0.97613 0.51774 0.90703 0.0
C837 C 0.95251 0.51881 0.91321 0.0
C838 C 0.94768 0.5212 0.93827 0.0
C839 C 0.96585 0.52216 0.95684 0.0
C840 C 0.9323 0.51653 0.8937 0.0
C841 C 0.90403 0.49581 0.8958 0.0
C842 C 0.94082 0.53395 0.87276 0.0
C843 C 0.9701 0.55681 0.86985 0.0
C844 C 0.98274 0.5757 0.88854 0.0
C845 C 0.01039 0.59714 0.88571 0.0
C846 C 0.02555 0.60001 0.86418 0.0
C847 C 0.01306 0.58147 0.84541 0.0
C848 C 0.98543 0.55998 0.84816 0.0
C849 C 0.82944 0.50718 0.82672 0.0
C850 C 0.83581 0.50908 0.80123 0.0
C851 C 0.84747 0.50674 0.84467 0.0
C852 C 0.8721 0.50781 0.83759 0.0
C853 C 0.87796 0.5088 0.81211 0.0
C854 C 0.86006 0.50944 0.79416 0.0
C855 C 0.89255 0.50952 0.85667 0.0
C856 C 0.92092 0.53018 0.85455 0.0
C857 C 0.88417 0.49188 0.87747 0.0
C858 C 0.85524 0.46841 0.87999 0.0
C859 C 0.84366 0.44958 0.86118 0.0
C860 C 0.8166 0.42716 0.86388 0.0
C861 C 0.80095 0.42333 0.88533 0.0
C862 C 0.81233 0.4419 0.90415 0.0
C863 C 0.83939 0.46435 0.90156 0.0
H864 H 0.78002 0.40594 0.8874 0.0
H865 H 0.04695 0.61662 0.86202 0.0
H866 H 0.41898 0.93581 0.51137 0.0
H867 H 0.37987 0.90136 0.48699 0.0
H868 H 0.40464 0.95614 0.4245 0.0
H869 H 0.44197 0.99051 0.44891 0.0
H870 H 0.35171 0.92796 0.42452 0.0
H871 H 0.42533 0.90706 0.43436 0.0
H872 H 0.45456 0.89724 0.4615 0.0
H873 H 0.38023 0.83002 0.49318 0.0
H874 H 0.35057 0.83957 0.4664 0.0
H875 H 0.33519 0.86016 0.31391 0.0
H876 H 0.3513 0.88645 0.35147 0.0
H877 H 0.29284 0.8178 0.39561 0.0
H878 H 0.27612 0.79136 0.35788 0.0
H879 H 0.35122 0.84571 0.41213 0.0
H880 H 0.27905 0.86258 0.39231 0.0
H881 H 0.25171 0.87447 0.36502 0.0
H882 H 0.3256 0.95098 0.35045 0.0
H883 H 0.35349 0.93942 0.37737 0.0
C884 C 0.41566 0.94051 0.49258 0.0
C885 C 0.4337 0.96587 0.48209 0.0
C886 C 0.39344 0.92077 0.47857 0.0
C887 C 0.38953 0.92589 0.45362 0.0
C888 C 0.40698 0.95152 0.44364 0.0
C889 C 0.42855 0.97125 0.4577 0.0
C890 C 0.36879 0.90473 0.43696 0.0
C891 C 0.35163 0.90998 0.42187 0.0
C892 C 0.3679 0.88081 0.43383 0.0
C893 C 0.38578 0.87418 0.44864 0.0
C894 C 0.41526 0.89016 0.4471 0.0
C895 C 0.43188 0.88471 0.46246 0.0
C896 C 0.41922 0.86319 0.47922 0.0
C897 C 0.38996 0.84677 0.48031 0.0
C898 C 0.37325 0.85216 0.46503 0.0
C899 C 0.32535 0.85076 0.33154 0.0
C900 C 0.30435 0.82373 0.33294 0.0
C901 C 0.33457 0.8658 0.35297 0.0
C902 C 0.32326 0.85405 0.3763 0.0
C903 C 0.30178 0.82721 0.37776 0.0
C904 C 0.29214 0.81222 0.35619 0.0
C905 C 0.33538 0.86973 0.39905 0.0
C906 C 0.35085 0.86341 0.4152 0.0
C907 C 0.33513 0.89292 0.40286 0.0
C908 C 0.31839 0.90006 0.38679 0.0
C909 C 0.28952 0.88187 0.38316 0.0
C910 C 0.27391 0.88857 0.36777 0.0
C911 C 0.28692 0.91346 0.35599 0.0
C912 C 0.31555 0.93172 0.3596 0.0
C913 C 0.33126 0.92512 0.37496 0.0
H914 H 0.2748 0.9186 0.34408 0.0
H915 H 0.43207 0.85917 0.49133 0.0
H916 H 0.51608 0.40009 0.01346 0.0
H917 H 0.51178 0.3694 0.98172 0.0
H918 H 0.46013 0.38831 0.93736 0.0
H919 H 0.46445 0.41906 0.96904 0.0
H920 H 0.44226 0.33305 0.93758 0.0
H921 H 0.52349 0.41955 0.92445 0.0
H922 H 0.56696 0.45991 0.93761 0.0
H923 H 0.60589 0.41543 0.95117 0.0
H924 H 0.56209 0.37445 0.93934 0.0
H925 H 0.46955 0.29036 0.82158 0.0
H926 H 0.46105 0.31345 0.85424 0.0
H927 H 0.52127 0.30936 0.90144 0.0
H928 H 0.52999 0.28682 0.86911 0.0
H929 H 0.53283 0.35872 0.89767 0.0
H930 H 0.45044 0.27184 0.9134 0.0
H931 H 0.40597 0.23116 0.90235 0.0
H932 H 0.36976 0.27689 0.88272 0.0
H933 H 0.41417 0.31791 0.89335 0.0
C934 C 0.50333 0.39725 0.99721 0.0
C935 C 0.49082 0.4121 0.99356 0.0
C936 C 0.50095 0.37981 0.97908 0.0
C937 C 0.4858 0.37678 0.95715 0.0
C938 C 0.47188 0.39038 0.95416 0.0
C939 C 0.47457 0.40807 0.97213 0.0
C940 C 0.48684 0.36149 0.9364 0.0
C941 C 0.46197 0.33875 0.92862 0.0
C942 C 0.51263 0.36903 0.92481 0.0
C943 C 0.53932 0.3938 0.93128 0.0
C944 C 0.54119 0.41827 0.9305 0.0
C945 C 0.56592 0.44129 0.93769 0.0
C946 C 0.58923 0.44028 0.94509 0.0
C947 C 0.58781 0.41619 0.94542 0.0
C948 C 0.56298 0.39302 0.93858 0.0
C949 C 0.48048 0.29393 0.83914 0.0
C950 C 0.50058 0.28697 0.84274 0.0
C951 C 0.47568 0.30716 0.85776 0.0
C952 C 0.4907 0.3133 0.88024 0.0
C953 C 0.50967 0.30511 0.88418 0.0
C954 C 0.51456 0.29214 0.86567 0.0
C955 C 0.48832 0.32966 0.89924 0.0
C956 C 0.51304 0.35291 0.90656 0.0
C957 C 0.4624 0.32259 0.91028 0.0
C958 C 0.43572 0.29796 0.90389 0.0
C959 C 0.43308 0.27324 0.90651 0.0
C960 C 0.40787 0.25012 0.90037 0.0
C961 C 0.38508 0.25144 0.89177 0.0
C962 C 0.38744 0.2759 0.88935 0.0
C963 C 0.41262 0.29909 0.89544 0.0
H964 H 0.36558 0.23352 0.88703 0.0
H965 H 0.60839 0.45815 0.95058 0.0
H966 H 1.00573 0.45466 0.40064 0.0
H967 H 0.03837 0.45476 0.37051 0.0
H968 H 0.09787 0.47115 0.42923 0.0
H969 H 0.06535 0.4699 0.45938 0.0
H970 H 0.11723 0.5088 0.38652 0.0
H971 H 0.06878 0.41475 0.40798 0.0
H972 H 0.02683 0.36958 0.41087 0.0
H973 H 0.01449 0.37084 0.33206 0.0
H974 H 0.05618 0.41622 0.32877 0.0
H975 H 0.23277 0.50637 0.34694 0.0
H976 H 0.19022 0.49627 0.36867 0.0
H977 H 0.14191 0.46309 0.30195 0.0
H978 H 0.18468 0.47279 0.28006 0.0
H979 H 0.11209 0.43473 0.34181 0.0
H980 H 0.16393 0.52568 0.31885 0.0
H981 H 0.20407 0.5717 0.31478 0.0
H982 H 0.2078 0.57864 0.39416 0.0
H983 H 0.16821 0.53247 0.3988 0.0
C984 C 0.02543 0.4576 0.40725 0.0
C985 C 0.03307 0.4629 0.43246 0.0
C986 C 0.0441 0.45777 0.38997 0.0
C987 C 0.07063 0.46328 0.39766 0.0
C988 C 0.07762 0.46717 0.4229 0.0
C989 C 0.05899 0.46666 0.44011 0.0
C990 C 0.09232 0.46718 0.37959 0.0
C991 C 0.11629 0.49264 0.37684 0.0
C992 C 0.09035 0.44623 0.36618 0.0
C993 C 0.06535 0.419 0.36819 0.0
C994 C 0.05694 0.40551 0.39131 0.0
C995 C 0.03326 0.37984 0.39301 0.0
C996 C 0.01794 0.36738 0.37167 0.0
C997 C 0.02633 0.38054 0.34858 0.0
C998 C 0.04999 0.40623 0.34679 0.0
C999 C 0.21305 0.49655 0.33694 0.0
C1000 C 0.21216 0.49054 0.31172 0.0
C1001 C 0.18873 0.49097 0.34935 0.0
C1002 C 0.16295 0.47959 0.33679 0.0
C1003 C 0.1616 0.47211 0.31198 0.0
C1004 C 0.18603 0.47754 0.29952 0.0
C1005 C 0.13785 0.47631 0.3496 0.0
C1006 C 0.11311 0.45106 0.35123 0.0
C1007 C 0.13898 0.49762 0.36186 0.0
C1008 C 0.16327 0.52536 0.35917 0.0
C1009 C 0.17354 0.53686 0.33547 0.0
C1010 C 0.1962 0.56301 0.33306 0.0
C1011 C 0.20863 0.578 0.3542 0.0
C1012 C 0.1983 0.56695 0.3778 0.0
C1013 C 0.17576 0.54076 0.38033 0.0
H1014 H 0.22618 0.59822 0.35226 0.0
H1015 H 0.99962 0.3475 0.37302 0.0
H1016 H 0.51266 0.05895 0.95334 0.0
H1017 H 0.54261 0.08998 0.92071 0.0
H1018 H 0.59973 0.06282 0.92935 0.0
H1019 H 0.5702 0.0322 0.96263 0.0
H1020 H 0.62868 0.11342 0.92823 0.0
H1021 H 0.5538 0.04884 0.87698 0.0
H1022 H 0.50448 0.02034 0.86373 0.0
H1023 H 0.49928 0.08876 0.85043 0.0
H1024 H 0.54871 0.11769 0.86365 0.0
H1025 H 0.70305 0.1483 0.8166 0.0
H1026 H 0.66745 0.1243 0.84837 0.0
H1027 H 0.64408 0.18229 0.84347 0.0
H1028 H 0.68064 0.20721 0.81136 0.0
H1029 H 0.59717 0.12363 0.84457 0.0
H1030 H 0.68005 0.18731 0.88715 0.0
H1031 H 0.72996 0.21183 0.89869 0.0
H1032 H 0.72192 0.14 0.9261 0.0
H1033 H 0.67193 0.11485 0.91437 0.0
C1034 C 0.53123 0.05904 0.94794 0.0
C1035 C 0.53889 0.04287 0.96063 0.0
C1036 C 0.54845 0.07694 0.92919 0.0
C1037 C 0.57359 0.07891 0.9224 0.0
C1038 C 0.58063 0.06196 0.93433 0.0
C1039 C 0.56354 0.0442 0.95322 0.0
C1040 C 0.59321 0.09923 0.90369 0.0
C1041 C 0.62179 0.1154 0.90985 0.0
C1042 C 0.58419 0.1027 0.87998 0.0
C1043 C 0.55475 0.0854 0.87161 0.0
C1044 C 0.54209 0.0578 0.87134 0.0
C1045 C 0.51416 0.04158 0.86379 0.0
C1046 C 0.49875 0.05276 0.85631 0.0
C1047 C 0.51128 0.08018 0.85624 0.0
C1048 C 0.53923 0.09649 0.86372 0.0
C1049 C 0.6904 0.15612 0.82204 0.0
C1050 C 0.69487 0.17985 0.81139 0.0
C1051 C 0.67 0.14227 0.84031 0.0
C1052 C 0.65326 0.15155 0.84841 0.0
C1053 C 0.65688 0.17482 0.83746 0.0
C1054 C 0.67779 0.18906 0.81922 0.0
C1055 C 0.63269 0.13678 0.86881 0.0
C1056 C 0.60395 0.12181 0.86307 0.0
C1057 C 0.64172 0.13386 0.89269 0.0
C1058 C 0.67197 0.14909 0.89985 0.0
C1059 C 0.68879 0.17662 0.89554 0.0
C1060 C 0.7172 0.19068 0.90212 0.0
C1061 C 0.72912 0.1775 0.91314 0.0
C1062 C 0.71265 0.15021 0.9176 0.0
C1063 C 0.68423 0.13604 0.91102 0.0
H1064 H 0.75111 0.18843 0.91821 0.0
H1065 H 0.47711 0.04017 0.8505 0.0
H1066 H 0.52992 0.62823 0.51227 0.0
H1067 H 0.53837 0.66055 0.47912 0.0
H1068 H 0.59125 0.64032 0.44086 0.0
H1069 H 0.58276 0.60788 0.47399 0.0
H1070 H 0.61304 0.69488 0.44007 0.0
H1071 H 0.52977 0.61472 0.4211 0.0
H1072 H 0.48295 0.57461 0.42746 0.0
H1073 H 0.44776 0.62222 0.43838 0.0
H1074 H 0.49469 0.66277 0.43292 0.0
H1075 H 0.59167 0.74148 0.31862 0.0
H1076 H 0.59412 0.71399 0.35203 0.0
H1077 H 0.55768 0.74195 0.40327 0.0
H1078 H 0.55579 0.7699 0.3704 0.0
H1079 H 0.52926 0.68205 0.39498 0.0
H1080 H 0.61769 0.76312 0.41485 0.0
H1081 H 0.66533 0.80067 0.4046 0.0
H1082 H 0.69066 0.74683 0.38596 0.0
H1083 H 0.64301 0.70893 0.39576 0.0
C1084 C 0.54376 0.63105 0.49704 0.0
C1085 C 0.55563 0.61553 0.49561 0.0
C1086 C 0.54841 0.64935 0.47805 0.0
C1087 C 0.56522 0.6526 0.45748 0.0
C1088 C 0.57818 0.63804 0.45658 0.0
C1089 C 0.57322 0.61948 0.4754 0.0
C1090 C 0.56802 0.67023 0.43638 0.0
C1091 C 0.59476 0.69195 0.43005 0.0
C1092 C 0.54417 0.66616 0.42315 0.0
C1093 C 0.51589 0.64185 0.42693 0.0
C1094 C 0.51216 0.6167 0.42523 0.0
C1095 C 0.48555 0.59385 0.42859 0.0
C1096 C 0.46235 0.59583 0.43328 0.0
C1097 C 0.46576 0.62071 0.43476 0.0
C1098 C 0.49239 0.64365 0.43159 0.0
C1099 C 0.58472 0.74218 0.33713 0.0
C1100 C 0.57346 0.75781 0.34185 0.0
C1101 C 0.58612 0.72647 0.35614 0.0
C1102 C 0.57595 0.72595 0.37997 0.0
C1103 C 0.5656 0.74215 0.38493 0.0
C1104 C 0.56466 0.75818 0.36613 0.0
C1105 C 0.57408 0.70711 0.39933 0.0
C1106 C 0.54747 0.68498 0.40512 0.0
C1107 C 0.59809 0.71044 0.41157 0.0
C1108 C 0.6267 0.73321 0.40573 0.0
C1109 C 0.63333 0.75929 0.4083 0.0
C1110 C 0.66035 0.78064 0.40264 0.0
C1111 C 0.68098 0.77615 0.39455 0.0
C1112 C 0.67465 0.75029 0.39218 0.0
C1113 C 0.64764 0.72887 0.3978 0.0
H1114 H 0.7019 0.7927 0.39018 0.0
H1115 H 0.44172 0.57811 0.43572 0.0
H1116 H 0.49574 0.10901 0.5406 0.0
H1117 H 0.48663 0.13009 0.57444 0.0
H1118 H 0.49711 0.08095 0.6279 0.0
H1119 H 0.50581 0.05965 0.59428 0.0
H1120 H 0.45413 0.08373 0.64089 0.0
H1121 H 0.54986 0.14844 0.61544 0.0
H1122 H 0.58688 0.17763 0.5852 0.0
H1123 H 0.5442 0.21832 0.56917 0.0
H1124 H 0.50673 0.18899 0.59907 0.0
H1125 H 0.48765 0.15694 0.75145 0.0
H1126 H 0.48433 0.13256 0.71449 0.0
H1127 H 0.47099 0.1855 0.66914 0.0
H1128 H 0.4748 0.21031 0.70598 0.0
H1129 H 0.51104 0.18109 0.64971 0.0
H1130 H 0.41817 0.11991 0.6791 0.0
H1131 H 0.38134 0.09075 0.70946 0.0
H1132 H 0.41809 0.04378 0.71834 0.0
H1133 H 0.45539 0.07288 0.68827 0.0
C1134 C 0.49623 0.10278 0.55956 0.0
C1135 C 0.50154 0.08261 0.56463 0.0
C1136 C 0.49102 0.11487 0.57893 0.0
C1137 C 0.49149 0.10737 0.60383 0.0
C1138 C 0.49645 0.08703 0.60889 0.0
C1139 C 0.50135 0.07476 0.58956 0.0
C1140 C 0.48705 0.12068 0.62474 0.0
C1141 C 0.46676 0.10501 0.64293 0.0
C1142 C 0.50281 0.14853 0.62707 0.0
C1143 C 0.52536 0.16629 0.60922 0.0
C1144 C 0.54829 0.16344 0.60528 0.0
C1145 C 0.56936 0.18004 0.58824 0.0
C1146 C 0.56785 0.19977 0.5752 0.0
C1147 C 0.54531 0.20298 0.57924 0.0
C1148 C 0.52416 0.18637 0.59624 0.0
C1149 C 0.48343 0.16311 0.73371 0.0
C1150 C 0.48163 0.18569 0.73171 0.0
C1151 C 0.48147 0.14908 0.71254 0.0
C1152 C 0.47734 0.15712 0.68896 0.0
C1153 C 0.47427 0.17895 0.68709 0.0
C1154 C 0.47633 0.19305 0.70822 0.0
C1155 C 0.4785 0.14409 0.66615 0.0
C1156 C 0.49817 0.15983 0.64758 0.0
C1157 C 0.46214 0.11632 0.66349 0.0
C1158 C 0.43972 0.09872 0.68156 0.0
C1159 C 0.41853 0.10349 0.68767 0.0
C1160 C 0.39754 0.08694 0.7048 0.0
C1161 C 0.39741 0.06546 0.71586 0.0
C1162 C 0.41823 0.06044 0.70976 0.0
C1163 C 0.43928 0.07694 0.69265 0.0
H1164 H 0.38114 0.05267 0.72912 0.0
H1165 H 0.58418 0.21263 0.56201 0.0
H1166 H 0.40667 0.44662 0.03615 0.0
H1167 H 0.37564 0.4482 0.06611 0.0
H1168 H 0.42777 0.53343 0.06533 0.0
H1169 H 0.45967 0.53195 0.03579 0.0
H1170 H 0.41905 0.51618 0.1108 0.0
H1171 H 0.358 0.49784 0.04167 0.0
H1172 H 0.33126 0.47478 1.00425 0.0
H1173 H 0.28331 0.40251 0.04699 0.0
H1174 H 0.31002 0.42504 0.08461 0.0
H1175 H 0.32753 0.52919 0.18996 0.0
H1176 H 0.35445 0.53032 0.15434 0.0
H1177 H 0.31047 0.44515 0.15687 0.0
H1178 H 0.2829 0.44377 0.19264 0.0
H1179 H 0.31478 0.46437 0.10964 0.0
H1180 H 0.37887 0.4828 0.17785 0.0
H1181 H 0.40617 0.50628 0.21495 0.0
H1182 H 0.44775 0.57959 0.17324 0.0
H1183 H 0.42094 0.55659 0.13579 0.0
C1184 C 0.41128 0.4658 0.04182 0.0
C1185 C 0.43589 0.48916 0.03366 0.0
C1186 C 0.39334 0.46667 0.05898 0.0
C1187 C 0.39919 0.49094 0.06802 0.0
C1188 C 0.42281 0.51443 0.05873 0.0
C1189 C 0.44096 0.51357 0.04168 0.0
C1190 C 0.38218 0.4915 0.08879 0.0
C1191 C 0.39626 0.50528 0.11027 0.0
C1192 C 0.35238 0.47672 0.08852 0.0
C1193 C 0.33618 0.46311 0.06594 0.0
C1194 C 0.34189 0.47699 0.04306 0.0
C1195 C 0.32671 0.46402 0.02182 0.0
C1196 C 0.30564 0.43719 0.02323 0.0
C1197 C 0.29965 0.42329 0.04592 0.0
C1198 C 0.31478 0.43616 0.06722 0.0
C1199 C 0.32349 0.51061 0.18306 0.0
C1200 C 0.30305 0.48634 0.1943 0.0
C1201 C 0.33908 0.51134 0.1627 0.0
C1202 C 0.33482 0.48787 0.15313 0.0
C1203 C 0.31419 0.46354 0.16403 0.0
C1204 C 0.29849 0.46277 0.18449 0.0
C1205 C 0.35168 0.48886 0.13153 0.0
C1206 C 0.33758 0.4754 0.10997 0.0
C1207 C 0.38145 0.50407 0.13164 0.0
C1208 C 0.39772 0.51799 0.15408 0.0
C1209 C 0.39378 0.50396 0.17661 0.0
C1210 C 0.40928 0.51717 0.19766 0.0
C1211 C 0.42879 0.54442 0.1964 0.0
C1212 C 0.43285 0.55849 0.17409 0.0
C1213 C 0.41755 0.54537 0.15294 0.0
H1214 H 0.44075 0.55464 0.21271 0.0
H1215 H 0.29392 0.42718 1.00676 0.0
H1216 H 0.97034 0.40519 0.55071 0.0
H1217 H 0.93768 0.37743 0.58369 0.0
H1218 H 0.94539 0.44619 0.61632 0.0
H1219 H 0.97871 0.47432 0.58343 0.0
H1220 H 0.9407 0.41141 0.65235 0.0
H1221 H 0.88944 0.40695 0.57992 0.0
H1222 H 0.87704 0.40152 0.53545 0.0
H1223 H 0.85826 0.32182 0.53961 0.0
H1224 H 0.87097 0.32689 0.58404 0.0
H1225 H 0.8144 0.32113 0.72384 0.0
H1226 H 0.84605 0.35741 0.69478 0.0
H1227 H 0.85847 0.30324 0.65389 0.0
H1228 H 0.82746 0.26743 0.68262 0.0
H1229 H 0.8498 0.33576 0.62299 0.0
H1230 H 0.90642 0.34343 0.69524 0.0
H1231 H 0.91823 0.34976 0.73983 0.0
H1232 H 0.92496 0.42482 0.73601 0.0
H1233 H 0.9128 0.41875 0.69143 0.0
C1234 C 0.96552 0.41454 0.56511 0.0
C1235 C 0.97707 0.442 0.56428 0.0
C1236 C 0.94664 0.39858 0.58392 0.0
C1237 C 0.93842 0.40956 0.60221 0.0
C1238 C 0.95119 0.43718 0.60235 0.0
C1239 C 0.97034 0.45327 0.58355 0.0
C1240 C 0.91554 0.39187 0.62022 0.0
C1241 C 0.92064 0.39516 0.64591 0.0
C1242 C 0.88922 0.37062 0.61199 0.0
C1243 C 0.88136 0.36738 0.58529 0.0
C1244 C 0.88285 0.38832 0.57132 0.0
C1245 C 0.87574 0.3853 0.54612 0.0
C1246 C 0.86692 0.36136 0.5347 0.0
C1247 C 0.86512 0.34036 0.54848 0.0
C1248 C 0.87224 0.34329 0.57368 0.0
C1249 C 0.82364 0.31699 0.70845 0.0
C1250 C 0.81848 0.29142 0.70559 0.0
C1251 C 0.84185 0.33774 0.69196 0.0
C1252 C 0.85485 0.33311 0.67221 0.0
C1253 C 0.84879 0.30737 0.66893 0.0
C1254 C 0.83105 0.28689 0.68547 0.0
C1255 C 0.87531 0.35477 0.65503 0.0
C1256 C 0.8697 0.35225 0.62942 0.0
C1257 C 0.90094 0.37681 0.66339 0.0
C1258 C 0.90836 0.38049 0.69011 0.0
C1259 C 0.91018 0.36118 0.70397 0.0
C1260 C 0.91699 0.36473 0.72922 0.0
C1261 C 0.92225 0.38763 0.74077 0.0
C1262 C 0.92081 0.40706 0.72706 0.0
C1263 C 0.91398 0.40358 0.7018 0.0
H1264 H 0.92752 0.39035 0.76032 0.0
H1265 H 0.86142 0.35906 0.51519 0.0
H1266 H 0.57108 0.96583 0.06403 0.0
H1267 H 0.57396 0.93368 0.0907 0.0
H1268 H 0.6129 0.99153 0.1481 0.0
H1269 H 0.61024 0.02393 0.12128 0.0
H1270 H 0.63665 0.96268 0.14572 0.0
H1271 H 0.54378 0.94494 0.15101 0.0
H1272 H 0.49783 0.9361 0.13657 0.0
H1273 H 0.48083 0.86476 0.10265 0.0
H1274 H 0.52701 0.87349 0.11632 0.0
H1275 H 0.59625 0.85974 0.24109 0.0
H1276 H 0.60523 0.89834 0.21606 0.0
H1277 H 0.57566 0.85057 0.15072 0.0
H1278 H 0.56671 0.81203 0.17543 0.0
H1279 H 0.54773 0.87648 0.16058 0.0
H1280 H 0.64328 0.89675 0.15559 0.0
H1281 H 0.68825 0.90589 0.17315 0.0
H1282 H 0.69835 0.97291 0.2109 0.0
H1283 H 0.65322 0.96394 0.19382 0.0
C1284 C 0.58035 0.97173 0.08229 0.0
C1285 C 0.59013 0.9973 0.09067 0.0
C1286 C 0.58198 0.95336 0.09752 0.0
C1287 C 0.5931 0.96003 0.1216 0.0
C1288 C 0.60413 0.98593 0.12963 0.0
C1289 C 0.60267 0.00444 0.11427 0.0
C1290 C 0.59211 0.93954 0.13855 0.0
C1291 C 0.61715 0.94395 0.14923 0.0
C1292 C 0.56665 0.9151 0.14317 0.0
C1293 C 0.53902 0.91002 0.13452 0.0
C1294 C 0.5304 0.92752 0.14023 0.0
C1295 C 0.50427 0.92249 0.13223 0.0
C1296 C 0.48642 0.89986 0.11874 0.0
C1297 C 0.4947 0.88228 0.11311 0.0
C1298 C 0.52086 0.88727 0.12095 0.0
C1299 C 0.59227 0.85759 0.22129 0.0
C1300 C 0.58053 0.83273 0.21029 0.0
C1301 C 0.59743 0.87968 0.20702 0.0
C1302 C 0.59098 0.87724 0.18158 0.0
C1303 C 0.58066 0.85281 0.17036 0.0
C1304 C 0.57562 0.83081 0.18453 0.0
C1305 C 0.59235 0.89927 0.167 0.0
C1306 C 0.56723 0.89521 0.15701 0.0
C1307 C 0.61759 0.92408 0.16343 0.0
C1308 C 0.64474 0.92951 0.17363 0.0
C1309 C 0.65496 0.91329 0.16781 0.0
C1310 C 0.68051 0.91848 0.17764 0.0
C1311 C 0.69611 0.93992 0.19319 0.0
C1312 C 0.68623 0.95628 0.19888 0.0
C1313 C 0.66068 0.95117 0.18911 0.0
H1314 H 0.71588 0.9439 0.20078 0.0
H1315 H 0.46613 0.89586 0.11271 0.0
H1316 H 0.57667 0.48521 0.53657 0.0
H1317 H 0.6103 0.4768 0.55799 0.0
H1318 H 0.64238 0.54868 0.59864 0.0
H1319 H 0.61011 0.55748 0.57697 0.0
H1320 H 0.68364 0.54165 0.59048 0.0
H1321 H 0.58454 0.48496 0.61402 0.0
H1322 H 0.53646 0.4503 0.60339 0.0
H1323 H 0.56172 0.3942 0.59781 0.0
H1324 H 0.61088 0.4295 0.60589 0.0
H1325 H 0.68744 0.52182 0.72076 0.0
H1326 H 0.66528 0.51679 0.68041 0.0
H1327 H 0.70914 0.48173 0.65186 0.0
H1328 H 0.73219 0.48721 0.69241 0.0
H1329 H 0.6354 0.46189 0.64569 0.0
H1330 H 0.73447 0.51858 0.6181 0.0
H1331 H 0.78369 0.5544 0.62506 0.0
H1332 H 0.75665 0.60731 0.64236 0.0
H1333 H 0.70723 0.57172 0.63533 0.0
C1334 C 0.59157 0.49957 0.54948 0.0
C1335 C 0.5904 0.52179 0.55536 0.0
C1336 C 0.61069 0.4947 0.56183 0.0
C1337 C 0.62855 0.5118 0.58043 0.0
C1338 C 0.62885 0.53504 0.58458 0.0
C1339 C 0.61011 0.53996 0.57223 0.0
C1340 C 0.64461 0.5048 0.59794 0.0
C1341 C 0.6731 0.5239 0.60217 0.0
C1342 C 0.63127 0.48148 0.61323 0.0
C1343 C 0.60153 0.46007 0.60983 0.0
C1344 C 0.57998 0.46535 0.61014 0.0
C1345 C 0.55249 0.44555 0.60443 0.0
C1346 C 0.54586 0.4199 0.6 0.0
C1347 C 0.56688 0.4141 0.60109 0.0
C1348 C 0.59466 0.43412 0.60583 0.0
C1349 C 0.69226 0.51275 0.70609 0.0
C1350 C 0.71178 0.50506 0.70988 0.0
C1351 C 0.67954 0.50992 0.68299 0.0
C1352 C 0.68576 0.49912 0.66313 0.0
C1353 C 0.70418 0.49022 0.66698 0.0
C1354 C 0.71718 0.49323 0.69019 0.0
C1355 C 0.67388 0.49894 0.63832 0.0
C1356 C 0.64614 0.47889 0.63315 0.0
C1357 C 0.68781 0.52116 0.62206 0.0
C1358 C 0.71729 0.54253 0.6264 0.0
C1359 C 0.73907 0.53783 0.62353 0.0
C1360 C 0.76697 0.55809 0.62741 0.0
C1361 C 0.7733 0.5831 0.63425 0.0
C1362 C 0.75172 0.58792 0.63709 0.0
C1363 C 0.72378 0.56775 0.63308 0.0
H1364 H 0.79492 0.59874 0.63731 0.0
H1365 H 0.52451 0.4045 0.59573 0.0
H1366 H 1.00091 0.55818 0.12425 0.0
H1367 H 0.03333 0.58957 0.15501 0.0
H1368 H 0.10134 0.58625 0.12278 0.0
H1369 H 0.06918 0.5545 0.09317 0.0
H1370 H 0.10477 0.5849 0.17051 0.0
H1371 H 0.08994 0.63832 0.11103 0.0
H1372 H 0.06161 0.65194 0.0875 0.0
H1373 H 0.0335 0.66623 0.1558 0.0
H1374 H 0.06143 0.65236 0.17975 0.0
H1375 H 0.23057 0.70113 0.19894 0.0
H1376 H 0.18864 0.66826 0.17707 0.0
H1377 H 0.13651 0.67705 0.22914 0.0
H1378 H 0.17872 0.71026 0.2514 0.0
H1379 H 0.11924 0.67375 0.1785 0.0
H1380 H 0.14322 0.6262 0.23643 0.0
H1381 H 0.17379 0.61337 0.25702 0.0
H1382 H 0.18753 0.5886 0.18722 0.0
H1383 H 0.15767 0.60192 0.1661 0.0
C1384 C 0.02275 0.56407 0.12385 0.0
C1385 C 0.03241 0.55386 0.10598 0.0
C1386 C 0.0413 0.58212 0.14138 0.0
C1387 C 0.06994 0.59062 0.14107 0.0
C1388 C 0.0794 0.5801 0.12351 0.0
C1389 C 0.06088 0.56183 0.10642 0.0
C1390 C 0.0905 0.61045 0.15876 0.0
C1391 C 0.10802 0.60434 0.17205 0.0
C1392 C 0.09423 0.63566 0.16153 0.0
C1393 C 0.07746 0.64398 0.14717 0.0
C1394 C 0.07753 0.64416 0.12103 0.0
C1395 C 0.06158 0.65196 0.10762 0.0
C1396 C 0.04568 0.65986 0.12015 0.0
C1397 C 0.04577 0.66005 0.14612 0.0
C1398 C 0.06166 0.65222 0.15962 0.0
C1399 C 0.21026 0.6963 0.20574 0.0
C1400 C 0.20803 0.70821 0.22708 0.0
C1401 C 0.18627 0.67741 0.19322 0.0
C1402 C 0.15945 0.6699 0.20171 0.0
C1403 C 0.15704 0.68248 0.22238 0.0
C1404 C 0.18116 0.70143 0.23506 0.0
C1405 C 0.13419 0.64837 0.18917 0.0
C1406 C 0.11573 0.65413 0.17708 0.0
C1407 C 0.12995 0.62293 0.18697 0.0
C1408 C 0.14831 0.61526 0.19965 0.0
C1409 C 0.153 0.6183 0.22542 0.0
C1410 C 0.1702 0.61091 0.23719 0.0
C1411 C 0.18264 0.60023 0.22343 0.0
C1412 C 0.17793 0.59693 0.19786 0.0
C1413 C 0.16088 0.60441 0.18598 0.0
H1414 H 0.19588 0.59445 0.23259 0.0
H1415 H 0.03336 0.66591 0.10974 0.0
loop_
_geom_bond_atom_site_label_1
_geom_bond_atom_site_label_2
_geom_bond_distance
_geom_bond_site_symmetry_2
_ccdc_geom_bond_type
Cu0 N1 2.001 1_454 S
Cu0 O6 1.973 1_454 S
Cu0 N11 1.985 . S
Cu0 O20 1.959 . S
N1 Cu0 2.001 1_656 S
N1 C3 1.266 . S
N1 C5 1.385 1_556 S
N2 C3 1.358 . S
N2 C4 1.400 . S
C3 N1 1.266 . S
C3 N2 1.358 . S
C3 H9 0.927 . S
C4 N2 1.400 . S
C4 C5 1.351 1_556 S
C4 H21 0.930 . S
C5 N1 1.385 1_554 S
C5 C4 1.351 1_554 S
C5 H10 0.930 . S
O6 Cu0 1.973 1_656 S
O6 C16 1.282 1_655 S
C7 O8 1.261 . S
C7 O20 1.251 . S
O8 C7 1.261 . S
H9 C3 0.927 . S
H10 C5 0.930 . S
N11 Cu0 1.985 . S
N11 C13 1.335 . S
N11 C14 1.390 . S
N12 C13 1.345 . S
N12 C15 1.336 . S
C13 N11 1.335 . S
C13 N12 1.345 . S
C13 H18 0.930 . S
C14 N11 1.390 . S
C14 C15 1.346 . S
C14 H19 0.961 . S
C15 N12 1.336 . S
C15 C14 1.346 . S
C15 H22 0.929 . S
C16 O6 1.282 1_455 S
C16 O17 1.216 . S
O17 C16 1.216 . S
H18 C13 0.930 . S
H19 C14 0.961 . S
O20 Cu0 1.959 . S
O20 C7 1.251 . S
H21 C4 0.930 . S
H22 C15 0.929 . S
Cu23 N24 1.999 1_545 S
Cu23 O29 1.974 1_545 S
Cu23 N34 1.985 . S
Cu23 O43 1.959 . S
N24 Cu23 1.999 1_565 S
N24 C26 1.263 . S
N24 C28 1.389 . S
N25 C26 1.358 . S
N25 C27 1.400 . S
C26 N24 1.263 . S
C26 N25 1.358 . S
C26 H32 0.930 . S
C27 N25 1.400 . S
C27 C28 1.351 . S
C27 H44 0.930 . S
C28 N24 1.389 . S
C28 C27 1.351 . S
C28 H33 0.930 . S
O29 Cu23 1.974 1_565 S
O29 C39 1.282 . S
C30 O31 1.261 . S
C30 O43 1.251 . S
O31 C30 1.261 . S
H32 C26 0.930 . S
H33 C28 0.930 . S
N34 Cu23 1.985 . S
N34 C36 1.335 . S
N34 C37 1.390 . S
N35 C36 1.345 . S
N35 C38 1.336 . S
C36 N34 1.335 . S
C36 N35 1.345 . S
C36 H41 0.930 . S
C37 N34 1.390 . S
C37 C38 1.346 . S
C37 H42 0.930 . S
C38 N35 1.336 . S
C38 C37 1.346 . S
C38 H45 0.929 . S
C39 O29 1.282 . S
C39 O40 1.216 1_565 S
O40 C39 1.216 1_545 S
H41 C36 0.930 . S
H42 C37 0.930 . S
O43 Cu23 1.959 . S
O43 C30 1.251 . S
H44 C27 0.930 . S
H45 C38 0.929 . S
Cu46 N47 1.999 1_554 S
Cu46 O52 1.974 1_554 S
Cu46 N57 1.985 . S
Cu46 O66 1.959 . S
N47 Cu46 1.999 1_556 S
N47 C49 1.263 . S
N47 C51 1.389 . S
N48 C49 1.358 . S
N48 C50 1.400 . S
C49 N47 1.263 . S
C49 N48 1.358 . S
C49 H55 0.930 . S
C50 N48 1.400 . S
C50 C51 1.351 . S
C50 H67 0.930 . S
C51 N47 1.389 . S
C51 C50 1.351 . S
C51 H56 0.930 . S
O52 Cu46 1.974 1_556 S
O52 C62 1.282 . S
C53 O54 1.261 . S
C53 O66 1.251 . S
O54 C53 1.261 . S
H55 C49 0.930 . S
H56 C51 0.930 . S
N57 Cu46 1.985 . S
N57 C59 1.335 . S
N57 C60 1.390 . S
N58 C59 1.345 . S
N58 C61 1.336 . S
C59 N57 1.335 . S
C59 N58 1.345 . S
C59 H64 0.930 . S
C60 N57 1.390 . S
C60 C61 1.346 . S
C60 H65 0.930 . S
C61 N58 1.336 . S
C61 C60 1.346 . S
C61 H68 0.929 . S
C62 O52 1.282 . S
C62 O63 1.216 1_556 S
O63 C62 1.216 1_554 S
H64 C59 0.930 . S
H65 C60 0.930 . S
O66 Cu46 1.959 . S
O66 C53 1.251 . S
H67 C50 0.930 . S
H68 C61 0.929 . S
Cu69 N70 1.999 1_655 S
Cu69 O75 1.974 1_655 S
Cu69 N80 1.985 . S
Cu69 O89 1.959 . S
N70 Cu69 1.999 1_455 S
N70 C72 1.263 . S
N70 C74 1.389 1_455 S
N71 C72 1.358 . S
N71 C73 1.400 . S
C72 N70 1.263 . S
C72 N71 1.358 . S
C72 H78 0.930 . S
C73 N71 1.400 . S
C73 C74 1.351 1_455 S
C73 H90 0.930 1_455 S
C74 N70 1.389 1_655 S
C74 C73 1.351 1_655 S
C74 H79 0.930 . S
O75 Cu69 1.974 1_455 S
O75 C85 1.282 . S
C76 O77 1.261 1_655 S
C76 O89 1.251 . S
O77 C76 1.261 1_455 S
H78 C72 0.930 . S
H79 C74 0.930 . S
N80 Cu69 1.985 . S
N80 C82 1.335 . S
N80 C83 1.390 . S
N81 C82 1.345 . S
N81 C84 1.336 . S
C82 N80 1.335 . S
C82 N81 1.345 . S
C82 H87 0.930 . S
C83 N80 1.390 . S
C83 C84 1.346 . S
C83 H88 0.930 1_655 S
C84 N81 1.336 . S
C84 C83 1.346 . S
C84 H91 0.929 . S
C85 O75 1.282 . S
C85 O86 1.216 . S
O86 C85 1.216 . S
H87 C82 0.930 . S
H88 C83 0.930 1_455 S
O89 Cu69 1.959 . S
O89 C76 1.251 . S
H90 C73 0.930 1_655 S
H91 C84 0.929 . S
Cu92 N93 1.999 . S
Cu92 O98 1.974 1_554 S
Cu92 N103 1.985 1_545 S
Cu92 O112 1.959 1_545 S
N93 Cu92 1.999 . S
N93 C95 1.263 1_554 S
N93 C97 1.389 . S
N94 C95 1.358 . S
N94 C96 1.400 . S
C95 N93 1.263 1_556 S
C95 N94 1.358 . S
C95 H101 0.930 . S
C96 N94 1.400 . S
C96 C97 1.351 1_556 S
C96 H113 0.930 . S
C97 N93 1.389 . S
C97 C96 1.351 1_554 S
C97 H102 0.930 . S
O98 Cu92 1.974 1_556 S
O98 C108 1.282 . S
C99 O100 1.261 . S
C99 O112 1.251 . S
O100 C99 1.261 . S
H101 C95 0.930 . S
H102 C97 0.930 . S
N103 Cu92 1.985 1_565 S
N103 C105 1.335 . S
N103 C106 1.390 . S
N104 C105 1.345 . S
N104 C107 1.336 . S
C105 N103 1.335 . S
C105 N104 1.345 . S
C105 H110 0.930 . S
C106 N103 1.390 . S
C106 C107 1.346 . S
C106 H111 0.930 . S
C107 N104 1.336 . S
C107 C106 1.346 . S
C107 H114 0.929 . S
C108 O98 1.282 . S
C108 O109 1.216 1_545 S
O109 C108 1.216 1_565 S
H110 C105 0.930 . S
H111 C106 0.930 . S
O112 Cu92 1.959 1_565 S
O112 C99 1.251 . S
H113 C96 0.930 . S
H114 C107 0.929 . S
Cu115 N116 1.999 . S
Cu115 O121 1.974 . S
Cu115 N126 1.985 . S
Cu115 O135 1.959 . S
N116 Cu115 1.999 . S
N116 C118 1.263 . S
N116 C120 1.389 . S
N117 C118 1.358 . S
N117 C119 1.400 . S
C118 N116 1.263 . S
C118 N117 1.358 . S
C118 H124 0.930 . S
C119 N117 1.400 . S
C119 C120 1.351 . S
C119 H136 0.930 . S
C120 N116 1.389 . S
C120 C119 1.351 . S
C120 H125 0.930 . S
O121 Cu115 1.974 . S
O121 C131 1.282 . S
C122 O123 1.261 . S
C122 O135 1.251 . S
O123 C122 1.261 . S
H124 C118 0.930 . S
H125 C120 0.930 . S
N126 Cu115 1.985 . S
N126 C128 1.335 . S
N126 C129 1.390 . S
N127 C128 1.345 . S
N127 C130 1.336 . S
C128 N126 1.335 . S
C128 N127 1.345 . S
C128 H133 0.930 . S
C129 N126 1.390 . S
C129 C130 1.346 . S
C129 H134 0.930 . S
C130 N127 1.336 . S
C130 C129 1.346 . S
C130 H137 0.929 . S
C131 O121 1.282 . S
C131 O132 1.216 . S
O132 C131 1.216 . S
H133 C128 0.930 . S
H134 C129 0.930 . S
O135 Cu115 1.959 . S
O135 C122 1.251 . S
H136 C119 0.930 . S
H137 C130 0.929 . S
Mg138 O145 2.141 . S
Mg138 O146 2.048 . S
Mg138 O147 2.048 . S
Mg138 O150 2.141 . S
C139 O140 1.313 . S
C139 O146 1.195 . S
O140 C139 1.313 . S
C141 O142 1.245 . S
C141 O150 1.289 . S
O142 C141 1.245 . S
C143 O144 1.245 . S
C143 O145 1.289 . S
O144 C143 1.245 . S
O145 Mg138 2.141 . S
O145 C143 1.289 . S
O146 Mg138 2.048 . S
O146 C139 1.195 . S
O147 Mg138 2.048 . S
O147 C148 1.195 . S
C148 O147 1.195 . S
C148 O149 1.313 . S
O149 C148 1.313 . S
O150 Mg138 2.141 . S
O150 C141 1.289 . S
Mg151 O158 2.141 . S
Mg151 O159 2.048 . S
Mg151 O160 2.048 . S
Mg151 O163 2.141 . S
C152 O153 1.313 . S
C152 O159 1.195 . S
O153 C152 1.313 . S
C154 O155 1.245 . S
C154 O163 1.289 . S
O155 C154 1.245 . S
C156 O157 1.245 . S
C156 O158 1.289 . S
O157 C156 1.245 . S
O158 Mg151 2.141 . S
O158 C156 1.289 . S
O159 Mg151 2.048 . S
O159 C152 1.195 . S
O160 Mg151 2.048 . S
O160 C161 1.195 . S
C161 O160 1.195 . S
C161 O162 1.313 . S
O162 C161 1.313 . S
O163 Mg151 2.141 . S
O163 C154 1.289 . S
Mg164 O171 2.141 . S
Mg164 O172 2.048 . S
Mg164 O173 2.048 . S
Mg164 O176 2.141 . S
C165 O166 1.313 . S
C165 O172 1.195 . S
O166 C165 1.313 . S
C167 O168 1.245 . S
C167 O176 1.289 . S
O168 C167 1.245 . S
C169 O170 1.245 . S
C169 O171 1.289 . S
O170 C169 1.245 . S
O171 Mg164 2.141 . S
O171 C169 1.289 . S
O172 Mg164 2.048 . S
O172 C165 1.195 . S
O173 Mg164 2.048 . S
O173 C174 1.195 . S
C174 O173 1.195 . S
C174 O175 1.313 . S
O175 C174 1.313 . S
O176 Mg164 2.141 . S
O176 C167 1.289 . S
Mg177 O184 2.141 . S
Mg177 O185 2.048 . S
Mg177 O186 2.048 . S
Mg177 O189 2.141 . S
C178 O179 1.313 . S
C178 O185 1.195 . S
O179 C178 1.313 . S
C180 O181 1.245 . S
C180 O189 1.289 . S
O181 C180 1.245 . S
C182 O183 1.245 . S
C182 O184 1.289 . S
O183 C182 1.245 . S
O184 Mg177 2.141 . S
O184 C182 1.289 . S
O185 Mg177 2.048 . S
O185 C178 1.195 . S
O186 Mg177 2.048 . S
O186 C187 1.195 . S
C187 O186 1.195 . S
C187 O188 1.313 . S
O188 C187 1.313 . S
O189 Mg177 2.141 . S
O189 C180 1.289 . S
Mg190 O197 2.141 . S
Mg190 O198 2.048 . S
Mg190 O199 2.048 . S
Mg190 O202 2.141 . S
C191 O192 1.313 . S
C191 O198 1.195 . S
O192 C191 1.313 . S
C193 O194 1.245 . S
C193 O202 1.289 . S
O194 C193 1.245 . S
C195 O196 1.245 . S
C195 O197 1.289 . S
O196 C195 1.245 . S
O197 Mg190 2.141 . S
O197 C195 1.289 . S
O198 Mg190 2.048 . S
O198 C191 1.195 . S
O199 Mg190 2.048 . S
O199 C200 1.195 . S
C200 O199 1.195 . S
C200 O201 1.313 . S
O201 C200 1.313 . S
O202 Mg190 2.141 . S
O202 C193 1.289 . S
Mg203 O210 2.141 . S
Mg203 O211 2.048 . S
Mg203 O212 2.048 . S
Mg203 O215 2.141 . S
C204 O205 1.313 . S
C204 O211 1.195 . S
O205 C204 1.313 . S
C206 O207 1.245 . S
C206 O215 1.289 . S
O207 C206 1.245 . S
C208 O209 1.245 . S
C208 O210 1.289 . S
O209 C208 1.245 . S
O210 Mg203 2.141 . S
O210 C208 1.289 . S
O211 Mg203 2.048 . S
O211 C204 1.195 . S
O212 Mg203 2.048 . S
O212 C213 1.195 . S
C213 O212 1.195 . S
C213 O214 1.313 . S
O214 C213 1.313 . S
O215 Mg203 2.141 . S
O215 C206 1.289 . S
H216 C234 0.951 . S
H217 C236 0.951 . S
H218 C238 0.950 . S
H219 C239 0.950 . S
H220 C241 0.950 . S
H221 C244 0.950 . S
H222 C245 0.950 . S
H223 C247 0.950 . S
H224 C248 0.950 . S
H225 C249 0.951 . S
H226 C251 0.951 . S
H227 C253 0.950 . S
H228 C254 0.950 . S
H229 C256 0.950 . S
H230 C259 0.950 . S
H231 C260 0.950 . S
H232 C262 0.950 . S
H233 C263 0.950 . S
C234 H216 0.951 . S
C234 C235 1.366 . S
C234 C236 1.388 . S
C235 C234 1.366 . S
C235 C239 1.385 . S
C236 H217 0.951 . S
C236 C234 1.388 . S
C236 C237 1.366 . S
C237 C236 1.366 . S
C237 C238 1.414 . S
C237 C240 1.499 . S
C238 H218 0.950 . S
C238 C237 1.414 . S
C238 C239 1.374 . S
C239 H219 0.950 . S
C239 C235 1.385 . S
C239 C238 1.374 . S
C240 C237 1.499 . S
C240 C241 1.373 . S
C240 C242 1.389 . S
C241 H220 0.950 . S
C241 C240 1.373 . S
C241 C257 1.377 . S
C242 C240 1.389 . S
C242 C243 1.524 . S
C242 C256 1.377 . S
C243 C242 1.524 . S
C243 C244 1.397 . S
C243 C248 1.363 . S
C244 H221 0.950 . S
C244 C243 1.397 . S
C244 C245 1.334 . S
C245 H222 0.950 . S
C245 C244 1.334 . S
C245 C246 1.287 . S
C246 C245 1.287 . S
C246 C247 1.524 . S
C246 H265 0.913 . S
C247 H223 0.950 . S
C247 C246 1.524 . S
C247 C248 1.415 . S
C248 H224 0.950 . S
C248 C243 1.363 . S
C248 C247 1.415 . S
C249 H225 0.951 . S
C249 C250 1.366 . S
C249 C251 1.388 . S
C250 C249 1.366 . S
C250 C254 1.385 . S
C251 H226 0.951 . S
C251 C249 1.388 . S
C251 C252 1.366 . S
C252 C251 1.366 . S
C252 C253 1.414 . S
C252 C255 1.499 . S
C253 H227 0.950 . S
C253 C252 1.414 . S
C253 C254 1.374 . S
C254 H228 0.950 . S
C254 C250 1.385 . S
C254 C253 1.374 . S
C255 C252 1.499 . S
C255 C256 1.373 . S
C255 C257 1.389 . S
C256 H229 0.950 . S
C256 C242 1.377 . S
C256 C255 1.373 . S
C257 C241 1.377 . S
C257 C255 1.389 . S
C257 C258 1.524 . S
C258 C257 1.524 . S
C258 C259 1.397 . S
C258 C263 1.363 . S
C259 H230 0.950 . S
C259 C258 1.397 . S
C259 C260 1.334 . S
C260 H231 0.950 . S
C260 C259 1.334 . S
C260 C261 1.287 . S
C261 C260 1.287 . S
C261 C262 1.524 . S
C261 H264 0.999 . S
C262 H232 0.950 . S
C262 C261 1.524 . S
C262 C263 1.415 . S
C263 H233 0.950 . S
C263 C258 1.363 . S
C263 C262 1.415 . S
H264 C261 0.999 . S
H265 C246 0.913 . S
H266 C284 0.951 . S
H267 C286 0.951 . S
H268 C288 0.950 . S
H269 C289 0.950 . S
H270 C291 0.950 . S
H271 C294 0.950 . S
H272 C295 0.950 . S
H273 C297 0.950 . S
H274 C298 0.950 . S
H275 C299 0.951 . S
H276 C301 0.951 . S
H277 C303 0.950 . S
H278 C304 0.950 . S
H279 C306 0.950 . S
H280 C309 0.950 . S
H281 C310 0.950 . S
H282 C312 0.950 . S
H283 C313 0.950 . S
C284 H266 0.951 . S
C284 C285 1.366 . S
C284 C286 1.388 . S
C285 C284 1.366 . S
C285 C289 1.385 . S
C286 H267 0.951 . S
C286 C284 1.388 . S
C286 C287 1.366 . S
C287 C286 1.366 . S
C287 C288 1.414 . S
C287 C290 1.499 . S
C288 H268 0.950 . S
C288 C287 1.414 . S
C288 C289 1.374 . S
C289 H269 0.950 . S
C289 C285 1.385 . S
C289 C288 1.374 . S
C290 C287 1.499 . S
C290 C291 1.373 . S
C290 C292 1.389 . S
C291 H270 0.950 . S
C291 C290 1.373 . S
C291 C307 1.377 . S
C292 C290 1.389 . S
C292 C293 1.524 . S
C292 C306 1.377 . S
C293 C292 1.524 . S
C293 C294 1.397 . S
C293 C298 1.363 . S
C294 H271 0.950 . S
C294 C293 1.397 . S
C294 C295 1.334 . S
C295 H272 0.950 . S
C295 C294 1.334 . S
C295 C296 1.287 . S
C296 C295 1.287 . S
C296 C297 1.524 . S
C296 H315 0.913 . S
C297 H273 0.950 . S
C297 C296 1.524 . S
C297 C298 1.415 . S
C298 H274 0.950 . S
C298 C293 1.363 . S
C298 C297 1.415 . S
C299 H275 0.951 . S
C299 C300 1.366 . S
C299 C301 1.388 . S
C300 C299 1.366 . S
C300 C304 1.385 . S
C301 H276 0.951 . S
C301 C299 1.388 . S
C301 C302 1.366 . S
C302 C301 1.366 . S
C302 C303 1.414 . S
C302 C305 1.499 . S
C303 H277 0.950 . S
C303 C302 1.414 . S
C303 C304 1.374 . S
C304 H278 0.950 . S
C304 C300 1.385 . S
C304 C303 1.374 . S
C305 C302 1.499 . S
C305 C306 1.373 . S
C305 C307 1.389 . S
C306 H279 0.950 . S
C306 C292 1.377 . S
C306 C305 1.373 . S
C307 C291 1.377 . S
C307 C305 1.389 . S
C307 C308 1.524 . S
C308 C307 1.524 . S
C308 C309 1.397 . S
C308 C313 1.363 . S
C309 H280 0.950 . S
C309 C308 1.397 . S
C309 C310 1.334 . S
C310 H281 0.950 . S
C310 C309 1.334 . S
C310 C311 1.287 . S
C311 C310 1.287 . S
C311 C312 1.524 . S
C311 H314 0.999 . S
C312 H282 0.950 . S
C312 C311 1.524 . S
C312 C313 1.415 . S
C313 H283 0.950 . S
C313 C308 1.363 . S
C313 C312 1.415 . S
H314 C311 0.999 . S
H315 C296 0.913 . S
H316 C334 0.951 . S
H317 C336 0.951 . S
H318 C338 0.950 . S
H319 C339 0.950 . S
H320 C341 0.950 . S
H321 C344 0.950 . S
H322 C345 0.950 . S
H323 C347 0.950 . S
H324 C348 0.950 . S
H325 C349 0.951 . S
H326 C351 0.951 . S
H327 C353 0.950 . S
H328 C354 0.950 . S
H329 C356 0.950 . S
H330 C359 0.950 . S
H331 C360 0.950 . S
H332 C362 0.950 . S
H333 C363 0.950 . S
C334 H316 0.951 . S
C334 C335 1.366 . S
C334 C336 1.388 . S
C335 C334 1.366 . S
C335 C339 1.385 . S
C336 H317 0.951 . S
C336 C334 1.388 . S
C336 C337 1.366 . S
C337 C336 1.366 . S
C337 C338 1.414 . S
C337 C340 1.499 . S
C338 H318 0.950 . S
C338 C337 1.414 . S
C338 C339 1.374 . S
C339 H319 0.950 . S
C339 C335 1.385 . S
C339 C338 1.374 . S
C340 C337 1.499 . S
C340 C341 1.373 . S
C340 C342 1.389 . S
C341 H320 0.950 . S
C341 C340 1.373 . S
C341 C357 1.377 . S
C342 C340 1.389 . S
C342 C343 1.524 . S
C342 C356 1.377 . S
C343 C342 1.524 . S
C343 C344 1.397 . S
C343 C348 1.363 . S
C344 H321 0.950 . S
C344 C343 1.397 . S
C344 C345 1.334 . S
C345 H322 0.950 . S
C345 C344 1.334 . S
C345 C346 1.287 . S
C346 C345 1.287 . S
C346 C347 1.524 . S
C346 H365 0.913 . S
C347 H323 0.950 . S
C347 C346 1.524 . S
C347 C348 1.415 . S
C348 H324 0.950 . S
C348 C343 1.363 . S
C348 C347 1.415 . S
C349 H325 0.951 . S
C349 C350 1.366 . S
C349 C351 1.388 . S
C350 C349 1.366 . S
C350 C354 1.385 . S
C351 H326 0.951 . S
C351 C349 1.388 . S
C351 C352 1.366 . S
C352 C351 1.366 . S
C352 C353 1.414 . S
C352 C355 1.499 . S
C353 H327 0.950 . S
C353 C352 1.414 . S
C353 C354 1.374 . S
C354 H328 0.950 . S
C354 C350 1.385 . S
C354 C353 1.374 . S
C355 C352 1.499 . S
C355 C356 1.373 . S
C355 C357 1.389 . S
C356 H329 0.950 . S
C356 C342 1.377 . S
C356 C355 1.373 . S
C357 C341 1.377 . S
C357 C355 1.389 . S
C357 C358 1.524 . S
C358 C357 1.524 . S
C358 C359 1.397 . S
C358 C363 1.363 . S
C359 H330 0.950 . S
C359 C358 1.397 . S
C359 C360 1.334 . S
C360 H331 0.950 . S
C360 C359 1.334 . S
C360 C361 1.287 . S
C361 C360 1.287 . S
C361 C362 1.524 . S
C361 H364 0.999 . S
C362 H332 0.950 . S
C362 C361 1.524 . S
C362 C363 1.415 . S
C363 H333 0.950 . S
C363 C358 1.363 . S
C363 C362 1.415 . S
H364 C361 0.999 . S
H365 C346 0.913 . S
H366 C384 0.951 . S
H367 C386 0.951 . S
H368 C388 0.950 . S
H369 C389 0.950 . S
H370 C391 0.950 . S
H371 C394 0.950 . S
H372 C395 0.950 . S
H373 C397 0.950 . S
H374 C398 0.950 . S
H375 C399 0.951 . S
H376 C401 0.951 . S
H377 C403 0.950 . S
H378 C404 0.950 . S
H379 C406 0.950 . S
H380 C409 0.950 . S
H381 C410 0.950 . S
H382 C412 0.950 . S
H383 C413 0.950 . S
C384 H366 0.951 . S
C384 C385 1.366 . S
C384 C386 1.388 . S
C385 C384 1.366 . S
C385 C389 1.385 . S
C386 H367 0.951 . S
C386 C384 1.388 . S
C386 C387 1.366 . S
C387 C386 1.366 . S
C387 C388 1.414 . S
C387 C390 1.499 . S
C388 H368 0.950 . S
C388 C387 1.414 . S
C388 C389 1.374 . S
C389 H369 0.950 . S
C389 C385 1.385 . S
C389 C388 1.374 . S
C390 C387 1.499 . S
C390 C391 1.373 . S
C390 C392 1.389 . S
C391 H370 0.950 . S
C391 C390 1.373 . S
C391 C407 1.377 . S
C392 C390 1.389 . S
C392 C393 1.524 . S
C392 C406 1.377 . S
C393 C392 1.524 . S
C393 C394 1.397 . S
C393 C398 1.363 . S
C394 H371 0.950 . S
C394 C393 1.397 . S
C394 C395 1.334 . S
C395 H372 0.950 . S
C395 C394 1.334 . S
C395 C396 1.287 . S
C396 C395 1.287 . S
C396 C397 1.524 . S
C396 H415 0.913 . S
C397 H373 0.950 . S
C397 C396 1.524 . S
C397 C398 1.415 . S
C398 H374 0.950 . S
C398 C393 1.363 . S
C398 C397 1.415 . S
C399 H375 0.951 . S
C399 C400 1.366 . S
C399 C401 1.388 . S
C400 C399 1.366 . S
C400 C404 1.385 . S
C401 H376 0.951 . S
C401 C399 1.388 . S
C401 C402 1.366 . S
C402 C401 1.366 . S
C402 C403 1.414 . S
C402 C405 1.499 . S
C403 H377 0.950 . S
C403 C402 1.414 . S
C403 C404 1.374 . S
C404 H378 0.950 . S
C404 C400 1.385 . S
C404 C403 1.374 . S
C405 C402 1.499 . S
C405 C406 1.373 . S
C405 C407 1.389 . S
C406 H379 0.950 . S
C406 C392 1.377 . S
C406 C405 1.373 . S
C407 C391 1.377 . S
C407 C405 1.389 . S
C407 C408 1.524 . S
C408 C407 1.524 . S
C408 C409 1.397 . S
C408 C413 1.363 . S
C409 H380 0.950 . S
C409 C408 1.397 . S
C409 C410 1.334 . S
C410 H381 0.950 . S
C410 C409 1.334 . S
C410 C411 1.287 . S
C411 C410 1.287 . S
C411 C412 1.524 . S
C411 H414 0.999 . S
C412 H382 0.950 . S
C412 C411 1.524 . S
C412 C413 1.415 . S
C413 H383 0.950 . S
C413 C408 1.363 . S
C413 C412 1.415 . S
H414 C411 0.999 . S
H415 C396 0.913 . S
H416 C434 0.951 . S
H417 C436 0.951 . S
H418 C438 0.950 . S
H419 C439 0.950 . S
H420 C441 0.950 . S
H421 C444 0.950 . S
H422 C445 0.950 1_545 S
H423 C447 0.950 . S
H424 C448 0.950 . S
H425 C449 0.951 . S
H426 C451 0.951 . S
H427 C453 0.950 . S
H428 C454 0.950 . S
H429 C456 0.950 . S
H430 C459 0.950 . S
H431 C460 0.950 . S
H432 C462 0.950 . S
H433 C463 0.950 . S
C434 H416 0.951 . S
C434 C435 1.366 . S
C434 C436 1.388 . S
C435 C434 1.366 . S
C435 C439 1.385 . S
C436 H417 0.951 . S
C436 C434 1.388 . S
C436 C437 1.366 . S
C437 C436 1.366 . S
C437 C438 1.414 . S
C437 C440 1.499 . S
C438 H418 0.950 . S
C438 C437 1.414 . S
C438 C439 1.374 . S
C439 H419 0.950 . S
C439 C435 1.385 . S
C439 C438 1.374 . S
C440 C437 1.499 . S
C440 C441 1.373 . S
C440 C442 1.389 . S
C441 H420 0.950 . S
C441 C440 1.373 . S
C441 C457 1.377 . S
C442 C440 1.389 . S
C442 C443 1.524 . S
C442 C456 1.377 . S
C443 C442 1.524 . S
C443 C444 1.397 . S
C443 C448 1.363 . S
C444 H421 0.950 . S
C444 C443 1.397 . S
C444 C445 1.334 . S
C445 H422 0.950 1_565 S
C445 C444 1.334 . S
C445 C446 1.287 . S
C446 C445 1.287 . S
C446 C447 1.524 . S
C446 H465 0.913 1_565 S
C447 H423 0.950 . S
C447 C446 1.524 . S
C447 C448 1.415 . S
C448 H424 0.950 . S
C448 C443 1.363 . S
C448 C447 1.415 . S
C449 H425 0.951 . S
C449 C450 1.366 . S
C449 C451 1.388 . S
C450 C449 1.366 . S
C450 C454 1.385 . S
C451 H426 0.951 . S
C451 C449 1.388 . S
C451 C452 1.366 . S
C452 C451 1.366 . S
C452 C453 1.414 . S
C452 C455 1.499 . S
C453 H427 0.950 . S
C453 C452 1.414 . S
C453 C454 1.374 . S
C454 H428 0.950 . S
C454 C450 1.385 . S
C454 C453 1.374 . S
C455 C452 1.499 . S
C455 C456 1.373 . S
C455 C457 1.389 . S
C456 H429 0.950 . S
C456 C442 1.377 . S
C456 C455 1.373 . S
C457 C441 1.377 . S
C457 C455 1.389 . S
C457 C458 1.524 . S
C458 C457 1.524 . S
C458 C459 1.397 . S
C458 C463 1.363 . S
C459 H430 0.950 . S
C459 C458 1.397 . S
C459 C460 1.334 . S
C460 H431 0.950 . S
C460 C459 1.334 . S
C460 C461 1.287 . S
C461 C460 1.287 . S
C461 C462 1.524 . S
C461 H464 0.999 . S
C462 H432 0.950 . S
C462 C461 1.524 . S
C462 C463 1.415 . S
C463 H433 0.950 . S
C463 C458 1.363 . S
C463 C462 1.415 . S
H464 C461 0.999 . S
H465 C446 0.913 1_545 S
H466 C484 0.951 . S
H467 C486 0.951 . S
H468 C488 0.950 . S
H469 C489 0.950 . S
H470 C491 0.950 . S
H471 C494 0.950 . S
H472 C495 0.950 . S
H473 C497 0.950 . S
H474 C498 0.950 . S
H475 C499 0.951 . S
H476 C501 0.951 . S
H477 C503 0.950 . S
H478 C504 0.950 . S
H479 C506 0.950 . S
H480 C509 0.950 . S
H481 C510 0.950 . S
H482 C512 0.950 . S
H483 C513 0.950 . S
C484 H466 0.951 . S
C484 C485 1.366 . S
C484 C486 1.388 . S
C485 C484 1.366 . S
C485 C489 1.385 . S
C486 H467 0.951 . S
C486 C484 1.388 . S
C486 C487 1.366 . S
C487 C486 1.366 . S
C487 C488 1.414 . S
C487 C490 1.499 . S
C488 H468 0.950 . S
C488 C487 1.414 . S
C488 C489 1.374 . S
C489 H469 0.950 . S
C489 C485 1.385 . S
C489 C488 1.374 . S
C490 C487 1.499 . S
C490 C491 1.373 . S
C490 C492 1.389 . S
C491 H470 0.950 . S
C491 C490 1.373 . S
C491 C507 1.377 . S
C492 C490 1.389 . S
C492 C493 1.524 . S
C492 C506 1.377 . S
C493 C492 1.524 . S
C493 C494 1.397 . S
C493 C498 1.363 . S
C494 H471 0.950 . S
C494 C493 1.397 . S
C494 C495 1.334 . S
C495 H472 0.950 . S
C495 C494 1.334 . S
C495 C496 1.287 . S
C496 C495 1.287 . S
C496 C497 1.524 . S
C496 H515 0.913 . S
C497 H473 0.950 . S
C497 C496 1.524 . S
C497 C498 1.415 . S
C498 H474 0.950 . S
C498 C493 1.363 . S
C498 C497 1.415 . S
C499 H475 0.951 . S
C499 C500 1.366 . S
C499 C501 1.388 . S
C500 C499 1.366 . S
C500 C504 1.385 . S
C501 H476 0.951 . S
C501 C499 1.388 . S
C501 C502 1.366 . S
C502 C501 1.366 . S
C502 C503 1.414 . S
C502 C505 1.499 . S
C503 H477 0.950 . S
C503 C502 1.414 . S
C503 C504 1.374 . S
C504 H478 0.950 . S
C504 C500 1.385 . S
C504 C503 1.374 . S
C505 C502 1.499 . S
C505 C506 1.373 . S
C505 C507 1.389 . S
C506 H479 0.950 . S
C506 C492 1.377 . S
C506 C505 1.373 . S
C507 C491 1.377 . S
C507 C505 1.389 . S
C507 C508 1.524 . S
C508 C507 1.524 . S
C508 C509 1.397 . S
C508 C513 1.363 . S
C509 H480 0.950 . S
C509 C508 1.397 . S
C509 C510 1.334 . S
C510 H481 0.950 . S
C510 C509 1.334 . S
C510 C511 1.287 . S
C511 C510 1.287 . S
C511 C512 1.524 . S
C511 H514 0.999 . S
C512 H482 0.950 . S
C512 C511 1.524 . S
C512 C513 1.415 . S
C513 H483 0.950 . S
C513 C508 1.363 . S
C513 C512 1.415 . S
H514 C511 0.999 . S
H515 C496 0.913 . S
H516 C534 0.951 . S
H517 C536 0.951 . S
H518 C538 0.950 . S
H519 C539 0.950 . S
H520 C541 0.950 . S
H521 C544 0.950 . S
H522 C545 0.950 . S
H523 C547 0.950 . S
H524 C548 0.950 . S
H525 C549 0.951 . S
H526 C551 0.951 . S
H527 C553 0.950 . S
H528 C554 0.950 . S
H529 C556 0.950 . S
H530 C559 0.950 . S
H531 C560 0.950 . S
H532 C562 0.950 1_545 S
H533 C563 0.950 . S
C534 H516 0.951 . S
C534 C535 1.366 . S
C534 C536 1.388 . S
C535 C534 1.366 . S
C535 C539 1.385 . S
C536 H517 0.951 . S
C536 C534 1.388 . S
C536 C537 1.366 . S
C537 C536 1.366 . S
C537 C538 1.414 . S
C537 C540 1.499 . S
C538 H518 0.950 . S
C538 C537 1.414 . S
C538 C539 1.374 . S
C539 H519 0.950 . S
C539 C535 1.385 . S
C539 C538 1.374 . S
C540 C537 1.499 . S
C540 C541 1.373 . S
C540 C542 1.389 . S
C541 H520 0.950 . S
C541 C540 1.373 . S
C541 C557 1.377 . S
C542 C540 1.389 . S
C542 C543 1.524 . S
C542 C556 1.377 . S
C543 C542 1.524 . S
C543 C544 1.397 . S
C543 C548 1.363 . S
C544 H521 0.950 . S
C544 C543 1.397 . S
C544 C545 1.334 . S
C545 H522 0.950 . S
C545 C544 1.334 . S
C545 C546 1.287 . S
C546 C545 1.287 . S
C546 C547 1.524 . S
C546 H565 0.913 . S
C547 H523 0.950 . S
C547 C546 1.524 . S
C547 C548 1.415 . S
C548 H524 0.950 . S
C548 C543 1.363 . S
C548 C547 1.415 . S
C549 H525 0.951 . S
C549 C550 1.366 . S
C549 C551 1.388 . S
C550 C549 1.366 . S
C550 C554 1.385 . S
C551 H526 0.951 . S
C551 C549 1.388 . S
C551 C552 1.366 . S
C552 C551 1.366 . S
C552 C553 1.414 . S
C552 C555 1.499 . S
C553 H527 0.950 . S
C553 C552 1.414 . S
C553 C554 1.374 . S
C554 H528 0.950 . S
C554 C550 1.385 . S
C554 C553 1.374 . S
C555 C552 1.499 . S
C555 C556 1.373 . S
C555 C557 1.389 . S
C556 H529 0.950 . S
C556 C542 1.377 . S
C556 C555 1.373 . S
C557 C541 1.377 . S
C557 C555 1.389 . S
C557 C558 1.524 . S
C558 C557 1.524 . S
C558 C559 1.397 . S
C558 C563 1.363 . S
C559 H530 0.950 . S
C559 C558 1.397 . S
C559 C560 1.334 . S
C560 H531 0.950 . S
C560 C559 1.334 . S
C560 C561 1.287 . S
C561 C560 1.287 . S
C561 C562 1.524 . S
C561 H564 0.999 1_565 S
C562 H532 0.950 1_565 S
C562 C561 1.524 . S
C562 C563 1.415 . S
C563 H533 0.950 . S
C563 C558 1.363 . S
C563 C562 1.415 . S
H564 C561 0.999 1_545 S
H565 C546 0.913 . S
H566 C584 0.951 . S
H567 C586 0.951 . S
H568 C588 0.950 . S
H569 C589 0.950 . S
H570 C591 0.950 . S
H571 C594 0.950 . S
H572 C595 0.950 . S
H573 C597 0.950 . S
H574 C598 0.950 . S
H575 C599 0.951 . S
H576 C601 0.951 . S
H577 C603 0.950 . S
H578 C604 0.950 . S
H579 C606 0.950 . S
H580 C609 0.950 . S
H581 C610 0.950 . S
H582 C612 0.950 . S
H583 C613 0.950 . S
C584 H566 0.951 . S
C584 C585 1.366 . S
C584 C586 1.388 . S
C585 C584 1.366 . S
C585 C589 1.385 . S
C586 H567 0.951 . S
C586 C584 1.388 . S
C586 C587 1.366 . S
C587 C586 1.366 . S
C587 C588 1.414 . S
C587 C590 1.499 . S
C588 H568 0.950 . S
C588 C587 1.414 . S
C588 C589 1.374 . S
C589 H569 0.950 . S
C589 C585 1.385 . S
C589 C588 1.374 . S
C590 C587 1.499 . S
C590 C591 1.373 . S
C590 C592 1.389 . S
C591 H570 0.950 . S
C591 C590 1.373 . S
C591 C607 1.377 . S
C592 C590 1.389 . S
C592 C593 1.524 . S
C592 C606 1.377 . S
C593 C592 1.524 . S
C593 C594 1.397 . S
C593 C598 1.363 . S
C594 H571 0.950 . S
C594 C593 1.397 . S
C594 C595 1.334 . S
C595 H572 0.950 . S
C595 C594 1.334 . S
C595 C596 1.287 . S
C596 C595 1.287 . S
C596 C597 1.524 . S
C596 H615 0.913 . S
C597 H573 0.950 . S
C597 C596 1.524 . S
C597 C598 1.415 . S
C598 H574 0.950 . S
C598 C593 1.363 . S
C598 C597 1.415 . S
C599 H575 0.951 . S
C599 C600 1.366 . S
C599 C601 1.388 . S
C600 C599 1.366 . S
C600 C604 1.385 . S
C601 H576 0.951 . S
C601 C599 1.388 . S
C601 C602 1.366 . S
C602 C601 1.366 . S
C602 C603 1.414 . S
C602 C605 1.499 . S
C603 H577 0.950 . S
C603 C602 1.414 . S
C603 C604 1.374 . S
C604 H578 0.950 . S
C604 C600 1.385 . S
C604 C603 1.374 . S
C605 C602 1.499 . S
C605 C606 1.373 . S
C605 C607 1.389 . S
C606 H579 0.950 . S
C606 C592 1.377 . S
C606 C605 1.373 . S
C607 C591 1.377 . S
C607 C605 1.389 . S
C607 C608 1.524 . S
C608 C607 1.524 . S
C608 C609 1.397 . S
C608 C613 1.363 . S
C609 H580 0.950 . S
C609 C608 1.397 . S
C609 C610 1.334 . S
C610 H581 0.950 . S
C610 C609 1.334 . S
C610 C611 1.287 . S
C611 C610 1.287 . S
C611 C612 1.524 . S
C611 H614 0.999 . S
C612 H582 0.950 . S
C612 C611 1.524 . S
C612 C613 1.415 . S
C613 H583 0.950 . S
C613 C608 1.363 . S
C613 C612 1.415 . S
H614 C611 0.999 . S
H615 C596 0.913 . S
H616 C634 0.951 . S
H617 C636 0.951 . S
H618 C638 0.950 . S
H619 C639 0.950 . S
H620 C641 0.950 . S
H621 C644 0.950 . S
H622 C645 0.951 . S
H623 C647 0.950 1_655 S
H624 C648 0.950 . S
H625 C649 0.951 . S
H626 C651 0.951 . S
H627 C653 0.950 . S
H628 C654 0.950 . S
H629 C656 0.950 . S
H630 C659 0.950 . S
H631 C660 0.950 . S
H632 C662 0.950 . S
H633 C663 0.950 . S
C634 H616 0.951 . S
C634 C635 1.366 . S
C634 C636 1.388 . S
C635 C634 1.366 . S
C635 C639 1.385 . S
C636 H617 0.951 . S
C636 C634 1.388 . S
C636 C637 1.366 . S
C637 C636 1.366 . S
C637 C638 1.414 . S
C637 C640 1.499 . S
C638 H618 0.950 . S
C638 C637 1.414 . S
C638 C639 1.374 . S
C639 H619 0.950 . S
C639 C635 1.385 . S
C639 C638 1.374 . S
C640 C637 1.499 . S
C640 C641 1.373 . S
C640 C642 1.389 . S
C641 H620 0.950 . S
C641 C640 1.373 . S
C641 C657 1.377 . S
C642 C640 1.389 . S
C642 C643 1.524 . S
C642 C656 1.377 . S
C643 C642 1.524 . S
C643 C644 1.397 . S
C643 C648 1.363 . S
C644 H621 0.950 . S
C644 C643 1.397 . S
C644 C645 1.326 1_455 S
C645 H622 0.951 . S
C645 C644 1.326 1_655 S
C645 C646 1.294 . S
C646 C645 1.294 . S
C646 C647 1.524 1_655 S
C646 H665 0.913 . S
C647 H623 0.950 1_455 S
C647 C646 1.524 1_455 S
C647 C648 1.415 . S
C648 H624 0.950 . S
C648 C643 1.363 . S
C648 C647 1.415 . S
C649 H625 0.951 . S
C649 C650 1.366 . S
C649 C651 1.388 . S
C650 C649 1.366 . S
C650 C654 1.385 . S
C651 H626 0.951 . S
C651 C649 1.388 . S
C651 C652 1.366 . S
C652 C651 1.366 . S
C652 C653 1.414 . S
C652 C655 1.499 . S
C653 H627 0.950 . S
C653 C652 1.414 . S
C653 C654 1.374 . S
C654 H628 0.950 . S
C654 C650 1.385 . S
C654 C653 1.374 . S
C655 C652 1.499 . S
C655 C656 1.373 . S
C655 C657 1.389 . S
C656 H629 0.950 . S
C656 C642 1.377 . S
C656 C655 1.373 . S
C657 C641 1.377 . S
C657 C655 1.389 . S
C657 C658 1.524 . S
C658 C657 1.524 . S
C658 C659 1.397 . S
C658 C663 1.363 . S
C659 H630 0.950 . S
C659 C658 1.397 . S
C659 C660 1.334 . S
C660 H631 0.950 . S
C660 C659 1.334 . S
C660 C661 1.287 . S
C661 C660 1.287 . S
C661 C662 1.524 . S
C661 H664 0.999 . S
C662 H632 0.950 . S
C662 C661 1.524 . S
C662 C663 1.415 . S
C663 H633 0.950 . S
C663 C658 1.363 . S
C663 C662 1.415 . S
H664 C661 0.999 . S
H665 C646 0.913 . S
H666 C684 0.951 . S
H667 C686 0.951 . S
H668 C688 0.950 . S
H669 C689 0.950 . S
H670 C691 0.950 . S
H671 C694 0.950 . S
H672 C695 0.950 . S
H673 C697 0.950 . S
H674 C698 0.950 . S
H675 C699 0.951 . S
H676 C701 0.951 . S
H677 C703 0.950 . S
H678 C704 0.950 . S
H679 C706 0.950 . S
H680 C709 0.950 . S
H681 C710 0.950 . S
H682 C712 0.950 . S
H683 C713 0.950 . S
C684 H666 0.951 . S
C684 C685 1.366 . S
C684 C686 1.388 . S
C685 C684 1.366 . S
C685 C689 1.385 . S
C686 H667 0.951 . S
C686 C684 1.388 . S
C686 C687 1.366 . S
C687 C686 1.366 . S
C687 C688 1.414 . S
C687 C690 1.499 . S
C688 H668 0.950 . S
C688 C687 1.414 . S
C688 C689 1.374 . S
C689 H669 0.950 . S
C689 C685 1.385 . S
C689 C688 1.374 . S
C690 C687 1.499 . S
C690 C691 1.373 . S
C690 C692 1.389 . S
C691 H670 0.950 . S
C691 C690 1.373 . S
C691 C707 1.377 . S
C692 C690 1.389 . S
C692 C693 1.524 . S
C692 C706 1.377 . S
C693 C692 1.524 . S
C693 C694 1.397 . S
C693 C698 1.363 . S
C694 H671 0.950 . S
C694 C693 1.397 . S
C694 C695 1.334 . S
C695 H672 0.950 . S
C695 C694 1.334 . S
C695 C696 1.287 . S
C696 C695 1.287 . S
C696 C697 1.524 . S
C696 H715 0.913 . S
C697 H673 0.950 . S
C697 C696 1.524 . S
C697 C698 1.415 . S
C698 H674 0.950 . S
C698 C693 1.363 . S
C698 C697 1.415 . S
C699 H675 0.951 . S
C699 C700 1.366 . S
C699 C701 1.388 . S
C700 C699 1.366 . S
C700 C704 1.385 . S
C701 H676 0.951 . S
C701 C699 1.388 . S
C701 C702 1.366 . S
C702 C701 1.366 . S
C702 C703 1.414 . S
C702 C705 1.499 . S
C703 H677 0.950 . S
C703 C702 1.414 . S
C703 C704 1.374 . S
C704 H678 0.950 . S
C704 C700 1.385 . S
C704 C703 1.374 . S
C705 C702 1.499 . S
C705 C706 1.373 . S
C705 C707 1.389 . S
C706 H679 0.950 . S
C706 C692 1.377 . S
C706 C705 1.373 . S
C707 C691 1.377 . S
C707 C705 1.389 . S
C707 C708 1.524 . S
C708 C707 1.524 . S
C708 C709 1.397 . S
C708 C713 1.363 . S
C709 H680 0.950 . S
C709 C708 1.397 . S
C709 C710 1.334 . S
C710 H681 0.950 . S
C710 C709 1.334 . S
C710 C711 1.287 . S
C711 C710 1.287 . S
C711 C712 1.524 . S
C711 H714 0.999 . S
C712 H682 0.950 . S
C712 C711 1.524 . S
C712 C713 1.415 . S
C713 H683 0.950 . S
C713 C708 1.363 . S
C713 C712 1.415 . S
H714 C711 0.999 . S
H715 C696 0.913 . S
H716 C734 0.951 . S
H717 C736 0.951 . S
H718 C738 0.950 . S
H719 C739 0.950 . S
H720 C741 0.950 . S
H721 C744 0.950 . S
H722 C745 0.950 . S
H723 C747 0.950 . S
H724 C748 0.950 . S
H725 C749 0.951 . S
H726 C751 0.951 . S
H727 C753 0.950 . S
H728 C754 0.950 . S
H729 C756 0.950 . S
H730 C759 0.950 . S
H731 C760 0.950 . S
H732 C762 0.950 . S
H733 C763 0.950 . S
C734 H716 0.951 . S
C734 C735 1.366 . S
C734 C736 1.388 . S
C735 C734 1.366 . S
C735 C739 1.385 . S
C736 H717 0.951 . S
C736 C734 1.388 . S
C736 C737 1.366 . S
C737 C736 1.366 . S
C737 C738 1.414 . S
C737 C740 1.499 . S
C738 H718 0.950 . S
C738 C737 1.414 . S
C738 C739 1.374 . S
C739 H719 0.950 . S
C739 C735 1.385 . S
C739 C738 1.374 . S
C740 C737 1.499 . S
C740 C741 1.373 . S
C740 C742 1.389 . S
C741 H720 0.950 . S
C741 C740 1.373 . S
C741 C757 1.377 . S
C742 C740 1.389 . S
C742 C743 1.524 . S
C742 C756 1.377 . S
C743 C742 1.524 . S
C743 C744 1.397 . S
C743 C748 1.363 . S
C744 H721 0.950 . S
C744 C743 1.397 . S
C744 C745 1.334 . S
C745 H722 0.950 . S
C745 C744 1.334 . S
C745 C746 1.287 . S
C746 C745 1.287 . S
C746 C747 1.524 . S
C746 H765 0.913 . S
C747 H723 0.950 . S
C747 C746 1.524 . S
C747 C748 1.415 . S
C748 H724 0.950 . S
C748 C743 1.363 . S
C748 C747 1.415 . S
C749 H725 0.951 . S
C749 C750 1.366 . S
C749 C751 1.388 . S
C750 C749 1.366 . S
C750 C754 1.385 . S
C751 H726 0.951 . S
C751 C749 1.388 . S
C751 C752 1.366 . S
C752 C751 1.366 . S
C752 C753 1.414 . S
C752 C755 1.499 . S
C753 H727 0.950 . S
C753 C752 1.414 . S
C753 C754 1.374 . S
C754 H728 0.950 . S
C754 C750 1.385 . S
C754 C753 1.374 . S
C755 C752 1.499 . S
C755 C756 1.373 . S
C755 C757 1.389 . S
C756 H729 0.950 . S
C756 C742 1.377 . S
C756 C755 1.373 . S
C757 C741 1.377 . S
C757 C755 1.389 . S
C757 C758 1.524 . S
C758 C757 1.524 . S
C758 C759 1.397 . S
C758 C763 1.363 . S
C759 H730 0.950 . S
C759 C758 1.397 . S
C759 C760 1.334 . S
C760 H731 0.950 . S
C760 C759 1.334 . S
C760 C761 1.287 . S
C761 C760 1.287 . S
C761 C762 1.524 . S
C761 H764 0.999 . S
C762 H732 0.950 . S
C762 C761 1.524 . S
C762 C763 1.415 . S
C763 H733 0.950 . S
C763 C758 1.363 . S
C763 C762 1.415 . S
H764 C761 0.999 . S
H765 C746 0.913 . S
H766 C784 0.951 . S
H767 C786 0.951 . S
H768 C788 0.950 . S
H769 C789 0.950 . S
H770 C791 0.950 . S
H771 C794 0.950 . S
H772 C795 0.950 . S
H773 C797 0.950 . S
H774 C798 0.950 . S
H775 C799 0.951 . S
H776 C801 0.951 . S
H777 C803 0.950 . S
H778 C804 0.950 . S
H779 C806 0.950 . S
H780 C809 0.950 . S
H781 C810 0.950 . S
H782 C812 0.950 . S
H783 C813 0.950 . S
C784 H766 0.951 . S
C784 C785 1.366 . S
C784 C786 1.388 . S
C785 C784 1.366 . S
C785 C789 1.385 . S
C786 H767 0.951 . S
C786 C784 1.388 . S
C786 C787 1.366 . S
C787 C786 1.366 . S
C787 C788 1.414 . S
C787 C790 1.499 . S
C788 H768 0.950 . S
C788 C787 1.414 . S
C788 C789 1.374 . S
C789 H769 0.950 . S
C789 C785 1.385 . S
C789 C788 1.374 . S
C790 C787 1.499 . S
C790 C791 1.373 . S
C790 C792 1.389 . S
C791 H770 0.950 . S
C791 C790 1.373 . S
C791 C807 1.377 . S
C792 C790 1.389 . S
C792 C793 1.524 . S
C792 C806 1.377 . S
C793 C792 1.524 . S
C793 C794 1.397 . S
C793 C798 1.363 . S
C794 H771 0.950 . S
C794 C793 1.397 . S
C794 C795 1.334 . S
C795 H772 0.950 . S
C795 C794 1.334 . S
C795 C796 1.287 . S
C796 C795 1.287 . S
C796 C797 1.524 . S
C796 H815 0.913 . S
C797 H773 0.950 . S
C797 C796 1.524 . S
C797 C798 1.415 . S
C798 H774 0.950 . S
C798 C793 1.363 . S
C798 C797 1.415 . S
C799 H775 0.951 . S
C799 C800 1.366 . S
C799 C801 1.388 . S
C800 C799 1.366 . S
C800 C804 1.385 . S
C801 H776 0.951 . S
C801 C799 1.388 . S
C801 C802 1.366 . S
C802 C801 1.366 . S
C802 C803 1.414 . S
C802 C805 1.499 . S
C803 H777 0.950 . S
C803 C802 1.414 . S
C803 C804 1.374 . S
C804 H778 0.950 . S
C804 C800 1.385 . S
C804 C803 1.374 . S
C805 C802 1.499 . S
C805 C806 1.373 . S
C805 C807 1.389 . S
C806 H779 0.950 . S
C806 C792 1.377 . S
C806 C805 1.373 . S
C807 C791 1.377 . S
C807 C805 1.389 . S
C807 C808 1.524 . S
C808 C807 1.524 . S
C808 C809 1.397 . S
C808 C813 1.363 . S
C809 H780 0.950 . S
C809 C808 1.397 . S
C809 C810 1.334 . S
C810 H781 0.950 . S
C810 C809 1.334 . S
C810 C811 1.287 . S
C811 C810 1.287 . S
C811 C812 1.524 . S
C811 H814 0.999 1_655 S
C812 H782 0.950 . S
C812 C811 1.524 . S
C812 C813 1.415 . S
C813 H783 0.950 . S
C813 C808 1.363 . S
C813 C812 1.415 . S
H814 C811 0.999 1_455 S
H815 C796 0.913 . S
H816 C834 0.951 . S
H817 C836 0.951 . S
H818 C838 0.950 . S
H819 C839 0.950 . S
H820 C841 0.950 . S
H821 C844 0.950 . S
H822 C845 0.950 . S
H823 C847 0.950 . S
H824 C848 0.950 . S
H825 C849 0.951 . S
H826 C851 0.951 . S
H827 C853 0.950 . S
H828 C854 0.950 . S
H829 C856 0.950 . S
H830 C859 0.950 . S
H831 C860 0.950 . S
H832 C862 0.950 . S
H833 C863 0.950 . S
C834 H816 0.951 . S
C834 C835 1.366 . S
C834 C836 1.388 . S
C835 C834 1.366 . S
C835 C839 1.385 . S
C836 H817 0.951 . S
C836 C834 1.388 . S
C836 C837 1.366 . S
C837 C836 1.366 . S
C837 C838 1.414 . S
C837 C840 1.499 . S
C838 H818 0.950 . S
C838 C837 1.414 . S
C838 C839 1.374 . S
C839 H819 0.950 . S
C839 C835 1.385 . S
C839 C838 1.374 . S
C840 C837 1.499 . S
C840 C841 1.373 . S
C840 C842 1.389 . S
C841 H820 0.950 . S
C841 C840 1.373 . S
C841 C857 1.377 . S
C842 C840 1.389 . S
C842 C843 1.524 . S
C842 C856 1.377 . S
C843 C842 1.524 . S
C843 C844 1.397 1_655 S
C843 C848 1.363 . S
C844 H821 0.950 . S
C844 C843 1.397 1_455 S
C844 C845 1.334 . S
C845 H822 0.950 . S
C845 C844 1.334 . S
C845 C846 1.287 . S
C846 C845 1.287 . S
C846 C847 1.524 . S
C846 H865 0.913 . S
C847 H823 0.950 . S
C847 C846 1.524 . S
C847 C848 1.415 1_455 S
C848 H824 0.950 . S
C848 C843 1.363 . S
C848 C847 1.415 1_655 S
C849 H825 0.951 . S
C849 C850 1.366 . S
C849 C851 1.388 . S
C850 C849 1.366 . S
C850 C854 1.385 . S
C851 H826 0.951 . S
C851 C849 1.388 . S
C851 C852 1.366 . S
C852 C851 1.366 . S
C852 C853 1.414 . S
C852 C855 1.499 . S
C853 H827 0.950 . S
C853 C852 1.414 . S
C853 C854 1.374 . S
C854 H828 0.950 . S
C854 C850 1.385 . S
C854 C853 1.374 . S
C855 C852 1.499 . S
C855 C856 1.373 . S
C855 C857 1.389 . S
C856 H829 0.950 . S
C856 C842 1.377 . S
C856 C855 1.373 . S
C857 C841 1.377 . S
C857 C855 1.389 . S
C857 C858 1.524 . S
C858 C857 1.524 . S
C858 C859 1.397 . S
C858 C863 1.363 . S
C859 H830 0.950 . S
C859 C858 1.397 . S
C859 C860 1.334 . S
C860 H831 0.950 . S
C860 C859 1.334 . S
C860 C861 1.287 . S
C861 C860 1.287 . S
C861 C862 1.524 . S
C861 H864 0.999 . S
C862 H832 0.950 . S
C862 C861 1.524 . S
C862 C863 1.415 . S
C863 H833 0.950 . S
C863 C858 1.363 . S
C863 C862 1.415 . S
H864 C861 0.999 . S
H865 C846 0.913 . S
H866 C884 0.951 . S
H867 C886 0.951 . S
H868 C888 0.950 . S
H869 C889 0.950 . S
H870 C891 0.950 . S
H871 C894 0.950 . S
H872 C895 0.950 . S
H873 C897 0.950 . S
H874 C898 0.950 . S
H875 C899 0.951 . S
H876 C901 0.951 . S
H877 C903 0.950 . S
H878 C904 0.950 . S
H879 C906 0.950 . S
H880 C909 0.950 . S
H881 C910 0.950 . S
H882 C912 0.950 . S
H883 C913 0.950 . S
C884 H866 0.951 . S
C884 C885 1.366 . S
C884 C886 1.388 . S
C885 C884 1.366 . S
C885 C889 1.385 . S
C886 H867 0.951 . S
C886 C884 1.388 . S
C886 C887 1.366 . S
C887 C886 1.366 . S
C887 C888 1.414 . S
C887 C890 1.499 . S
C888 H868 0.950 . S
C888 C887 1.414 . S
C888 C889 1.374 . S
C889 H869 0.950 . S
C889 C885 1.385 . S
C889 C888 1.374 . S
C890 C887 1.499 . S
C890 C891 1.373 . S
C890 C892 1.389 . S
C891 H870 0.950 . S
C891 C890 1.373 . S
C891 C907 1.377 . S
C892 C890 1.389 . S
C892 C893 1.524 . S
C892 C906 1.377 . S
C893 C892 1.524 . S
C893 C894 1.397 . S
C893 C898 1.363 . S
C894 H871 0.950 . S
C894 C893 1.397 . S
C894 C895 1.334 . S
C895 H872 0.950 . S
C895 C894 1.334 . S
C895 C896 1.287 . S
C896 C895 1.287 . S
C896 C897 1.524 . S
C896 H915 0.913 . S
C897 H873 0.950 . S
C897 C896 1.524 . S
C897 C898 1.415 . S
C898 H874 0.950 . S
C898 C893 1.363 . S
C898 C897 1.415 . S
C899 H875 0.951 . S
C899 C900 1.366 . S
C899 C901 1.388 . S
C900 C899 1.366 . S
C900 C904 1.385 . S
C901 H876 0.951 . S
C901 C899 1.388 . S
C901 C902 1.366 . S
C902 C901 1.366 . S
C902 C903 1.414 . S
C902 C905 1.499 . S
C903 H877 0.950 . S
C903 C902 1.414 . S
C903 C904 1.374 . S
C904 H878 0.950 . S
C904 C900 1.385 . S
C904 C903 1.374 . S
C905 C902 1.499 . S
C905 C906 1.373 . S
C905 C907 1.389 . S
C906 H879 0.950 . S
C906 C892 1.377 . S
C906 C905 1.373 . S
C907 C891 1.377 . S
C907 C905 1.389 . S
C907 C908 1.524 . S
C908 C907 1.524 . S
C908 C909 1.397 . S
C908 C913 1.363 . S
C909 H880 0.950 . S
C909 C908 1.397 . S
C909 C910 1.334 . S
C910 H881 0.950 . S
C910 C909 1.334 . S
C910 C911 1.287 . S
C911 C910 1.287 . S
C911 C912 1.524 . S
C911 H914 0.999 . S
C912 H882 0.950 . S
C912 C911 1.524 . S
C912 C913 1.415 . S
C913 H883 0.950 . S
C913 C908 1.363 . S
C913 C912 1.415 . S
H914 C911 0.999 . S
H915 C896 0.913 . S
H916 C934 0.951 . S
H917 C936 0.951 . S
H918 C938 0.950 . S
H919 C939 0.950 . S
H920 C941 0.950 . S
H921 C944 0.950 . S
H922 C945 0.950 . S
H923 C947 0.950 . S
H924 C948 0.950 . S
H925 C949 0.951 . S
H926 C951 0.951 . S
H927 C953 0.950 . S
H928 C954 0.950 . S
H929 C956 0.950 . S
H930 C959 0.950 . S
H931 C960 0.950 . S
H932 C962 0.950 . S
H933 C963 0.950 . S
C934 H916 0.951 . S
C934 C935 1.366 . S
C934 C936 1.388 . S
C935 C934 1.366 . S
C935 C939 1.385 . S
C936 H917 0.951 . S
C936 C934 1.388 . S
C936 C937 1.366 . S
C937 C936 1.366 . S
C937 C938 1.414 . S
C937 C940 1.499 . S
C938 H918 0.950 . S
C938 C937 1.414 . S
C938 C939 1.374 . S
C939 H919 0.950 . S
C939 C935 1.385 . S
C939 C938 1.374 . S
C940 C937 1.499 . S
C940 C941 1.373 . S
C940 C942 1.389 . S
C941 H920 0.950 . S
C941 C940 1.373 . S
C941 C957 1.377 . S
C942 C940 1.389 . S
C942 C943 1.524 . S
C942 C956 1.377 . S
C943 C942 1.524 . S
C943 C944 1.397 . S
C943 C948 1.363 . S
C944 H921 0.950 . S
C944 C943 1.397 . S
C944 C945 1.334 . S
C945 H922 0.950 . S
C945 C944 1.334 . S
C945 C946 1.287 . S
C946 C945 1.287 . S
C946 C947 1.524 . S
C946 H965 0.913 . S
C947 H923 0.950 . S
C947 C946 1.524 . S
C947 C948 1.415 . S
C948 H924 0.950 . S
C948 C943 1.363 . S
C948 C947 1.415 . S
C949 H925 0.951 . S
C949 C950 1.366 . S
C949 C951 1.388 . S
C950 C949 1.366 . S
C950 C954 1.385 . S
C951 H926 0.951 . S
C951 C949 1.388 . S
C951 C952 1.366 . S
C952 C951 1.366 . S
C952 C953 1.414 . S
C952 C955 1.499 . S
C953 H927 0.950 . S
C953 C952 1.414 . S
C953 C954 1.374 . S
C954 H928 0.950 . S
C954 C950 1.385 . S
C954 C953 1.374 . S
C955 C952 1.499 . S
C955 C956 1.373 . S
C955 C957 1.389 . S
C956 H929 0.950 . S
C956 C942 1.377 . S
C956 C955 1.373 . S
C957 C941 1.377 . S
C957 C955 1.389 . S
C957 C958 1.524 . S
C958 C957 1.524 . S
C958 C959 1.397 . S
C958 C963 1.363 . S
C959 H930 0.950 . S
C959 C958 1.397 . S
C959 C960 1.334 . S
C960 H931 0.950 . S
C960 C959 1.334 . S
C960 C961 1.287 . S
C961 C960 1.287 . S
C961 C962 1.524 . S
C961 H964 0.999 . S
C962 H932 0.950 . S
C962 C961 1.524 . S
C962 C963 1.415 . S
C963 H933 0.950 . S
C963 C958 1.363 . S
C963 C962 1.415 . S
H964 C961 0.999 . S
H965 C946 0.913 . S
H966 C984 0.951 . S
H967 C986 0.951 . S
H968 C988 0.950 . S
H969 C989 0.950 . S
H970 C991 0.950 . S
H971 C994 0.950 . S
H972 C995 0.950 . S
H973 C997 0.970 . S
H974 C998 0.950 . S
H975 C999 0.951 . S
H976 C1001 0.951 . S
H977 C1003 0.950 . S
H978 C1004 0.950 . S
H979 C1006 0.950 . S
H980 C1009 0.950 . S
H981 C1010 0.950 . S
H982 C1012 0.950 . S
H983 C1013 0.950 . S
C984 H966 0.951 . S
C984 C985 1.366 . S
C984 C986 1.388 . S
C985 C984 1.366 . S
C985 C989 1.385 . S
C986 H967 0.951 . S
C986 C984 1.388 . S
C986 C987 1.366 . S
C987 C986 1.366 . S
C987 C988 1.414 . S
C987 C990 1.499 . S
C988 H968 0.950 . S
C988 C987 1.414 . S
C988 C989 1.374 . S
C989 H969 0.950 . S
C989 C985 1.385 . S
C989 C988 1.374 . S
C990 C987 1.499 . S
C990 C991 1.373 . S
C990 C992 1.389 . S
C991 H970 0.950 . S
C991 C990 1.373 . S
C991 C1007 1.377 . S
C992 C990 1.389 . S
C992 C993 1.524 . S
C992 C1006 1.377 . S
C993 C992 1.524 . S
C993 C994 1.397 . S
C993 C998 1.363 . S
C994 H971 0.950 . S
C994 C993 1.397 . S
C994 C995 1.334 1_455 S
C995 H972 0.950 . S
C995 C994 1.334 1_655 S
C995 C996 1.287 . S
C996 C995 1.287 . S
C996 C997 1.533 . S
C996 H1015 0.913 . S
C997 H973 0.970 . S
C997 C996 1.533 . S
C997 C998 1.383 1_655 S
C998 H974 0.950 . S
C998 C993 1.363 . S
C998 C997 1.383 1_455 S
C999 H975 0.951 . S
C999 C1000 1.366 . S
C999 C1001 1.388 . S
C1000 C999 1.366 . S
C1000 C1004 1.385 . S
C1001 H976 0.951 . S
C1001 C999 1.388 . S
C1001 C1002 1.366 . S
C1002 C1001 1.366 . S
C1002 C1003 1.414 . S
C1002 C1005 1.499 . S
C1003 H977 0.950 . S
C1003 C1002 1.414 . S
C1003 C1004 1.374 . S
C1004 H978 0.950 . S
C1004 C1000 1.385 . S
C1004 C1003 1.374 . S
C1005 C1002 1.499 . S
C1005 C1006 1.373 . S
C1005 C1007 1.389 . S
C1006 H979 0.950 . S
C1006 C992 1.377 . S
C1006 C1005 1.373 . S
C1007 C991 1.377 . S
C1007 C1005 1.389 . S
C1007 C1008 1.524 . S
C1008 C1007 1.524 . S
C1008 C1009 1.397 . S
C1008 C1013 1.363 . S
C1009 H980 0.950 . S
C1009 C1008 1.397 . S
C1009 C1010 1.334 . S
C1010 H981 0.950 . S
C1010 C1009 1.334 . S
C1010 C1011 1.287 . S
C1011 C1010 1.287 . S
C1011 C1012 1.524 . S
C1011 H1014 0.999 . S
C1012 H982 0.950 . S
C1012 C1011 1.524 . S
C1012 C1013 1.415 . S
C1013 H983 0.950 . S
C1013 C1008 1.363 . S
C1013 C1012 1.415 . S
H1014 C1011 0.999 . S
H1015 C996 0.913 . S
H1016 C1034 0.951 . S
H1017 C1036 0.951 . S
H1018 C1038 0.950 . S
H1019 C1039 0.950 . S
H1020 C1041 0.950 . S
H1021 C1044 0.950 . S
H1022 C1045 0.950 1_565 S
H1023 C1047 0.950 . S
H1024 C1048 0.950 . S
H1025 C1049 0.951 . S
H1026 C1051 0.951 . S
H1027 C1053 0.950 . S
H1028 C1054 0.950 . S
H1029 C1056 0.950 . S
H1030 C1059 0.950 . S
H1031 C1060 0.950 . S
H1032 C1062 0.950 . S
H1033 C1063 0.950 . S
C1034 H1016 0.951 . S
C1034 C1035 1.366 . S
C1034 C1036 1.388 . S
C1035 C1034 1.366 . S
C1035 C1039 1.385 . S
C1036 H1017 0.951 . S
C1036 C1034 1.388 . S
C1036 C1037 1.366 . S
C1037 C1036 1.366 . S
C1037 C1038 1.414 . S
C1037 C1040 1.499 . S
C1038 H1018 0.950 . S
C1038 C1037 1.414 . S
C1038 C1039 1.374 . S
C1039 H1019 0.950 . S
C1039 C1035 1.385 . S
C1039 C1038 1.374 . S
C1040 C1037 1.499 . S
C1040 C1041 1.373 . S
C1040 C1042 1.389 . S
C1041 H1020 0.950 . S
C1041 C1040 1.373 . S
C1041 C1057 1.377 . S
C1042 C1040 1.389 . S
C1042 C1043 1.524 . S
C1042 C1056 1.377 . S
C1043 C1042 1.524 . S
C1043 C1044 1.397 . S
C1043 C1048 1.363 . S
C1044 H1021 0.950 . S
C1044 C1043 1.397 . S
C1044 C1045 1.334 . S
C1045 H1022 0.950 1_545 S
C1045 C1044 1.334 . S
C1045 C1046 1.287 . S
C1046 C1045 1.287 . S
C1046 C1047 1.524 . S
C1046 H1065 0.913 1_545 S
C1047 H1023 0.950 . S
C1047 C1046 1.524 . S
C1047 C1048 1.415 . S
C1048 H1024 0.950 . S
C1048 C1043 1.363 . S
C1048 C1047 1.415 . S
C1049 H1025 0.951 . S
C1049 C1050 1.366 . S
C1049 C1051 1.388 . S
C1050 C1049 1.366 . S
C1050 C1054 1.385 . S
C1051 H1026 0.951 . S
C1051 C1049 1.388 . S
C1051 C1052 1.366 . S
C1052 C1051 1.366 . S
C1052 C1053 1.414 . S
C1052 C1055 1.499 . S
C1053 H1027 0.950 . S
C1053 C1052 1.414 . S
C1053 C1054 1.374 . S
C1054 H1028 0.950 . S
C1054 C1050 1.385 . S
C1054 C1053 1.374 . S
C1055 C1052 1.499 . S
C1055 C1056 1.373 . S
C1055 C1057 1.389 . S
C1056 H1029 0.950 . S
C1056 C1042 1.377 . S
C1056 C1055 1.373 . S
C1057 C1041 1.377 . S
C1057 C1055 1.389 . S
C1057 C1058 1.524 . S
C1058 C1057 1.524 . S
C1058 C1059 1.397 . S
C1058 C1063 1.363 . S
C1059 H1030 0.950 . S
C1059 C1058 1.397 . S
C1059 C1060 1.334 . S
C1060 H1031 0.950 . S
C1060 C1059 1.334 . S
C1060 C1061 1.287 . S
C1061 C1060 1.287 . S
C1061 C1062 1.524 . S
C1061 H1064 0.999 . S
C1062 H1032 0.950 . S
C1062 C1061 1.524 . S
C1062 C1063 1.415 . S
C1063 H1033 0.950 . S
C1063 C1058 1.363 . S
C1063 C1062 1.415 . S
H1064 C1061 0.999 . S
H1065 C1046 0.913 1_565 S
H1066 C1084 0.951 . S
H1067 C1086 0.951 . S
H1068 C1088 0.950 . S
H1069 C1089 0.950 . S
H1070 C1091 0.950 . S
H1071 C1094 0.950 . S
H1072 C1095 0.950 . S
H1073 C1097 0.950 . S
H1074 C1098 0.950 . S
H1075 C1099 0.951 . S
H1076 C1101 0.951 . S
H1077 C1103 0.950 . S
H1078 C1104 0.950 . S
H1079 C1106 0.950 . S
H1080 C1109 0.950 . S
H1081 C1110 0.950 . S
H1082 C1112 0.950 . S
H1083 C1113 0.950 . S
C1084 H1066 0.951 . S
C1084 C1085 1.366 . S
C1084 C1086 1.388 . S
C1085 C1084 1.366 . S
C1085 C1089 1.385 . S
C1086 H1067 0.951 . S
C1086 C1084 1.388 . S
C1086 C1087 1.366 . S
C1087 C1086 1.366 . S
C1087 C1088 1.414 . S
C1087 C1090 1.499 . S
C1088 H1068 0.950 . S
C1088 C1087 1.414 . S
C1088 C1089 1.374 . S
C1089 H1069 0.950 . S
C1089 C1085 1.385 . S
C1089 C1088 1.374 . S
C1090 C1087 1.499 . S
C1090 C1091 1.373 . S
C1090 C1092 1.389 . S
C1091 H1070 0.950 . S
C1091 C1090 1.373 . S
C1091 C1107 1.377 . S
C1092 C1090 1.389 . S
C1092 C1093 1.524 . S
C1092 C1106 1.377 . S
C1093 C1092 1.524 . S
C1093 C1094 1.397 . S
C1093 C1098 1.363 . S
C1094 H1071 0.950 . S
C1094 C1093 1.397 . S
C1094 C1095 1.334 . S
C1095 H1072 0.950 . S
C1095 C1094 1.334 . S
C1095 C1096 1.287 . S
C1096 C1095 1.287 . S
C1096 C1097 1.524 . S
C1096 H1115 0.913 . S
C1097 H1073 0.950 . S
C1097 C1096 1.524 . S
C1097 C1098 1.415 . S
C1098 H1074 0.950 . S
C1098 C1093 1.363 . S
C1098 C1097 1.415 . S
C1099 H1075 0.951 . S
C1099 C1100 1.366 . S
C1099 C1101 1.388 . S
C1100 C1099 1.366 . S
C1100 C1104 1.385 . S
C1101 H1076 0.951 . S
C1101 C1099 1.388 . S
C1101 C1102 1.366 . S
C1102 C1101 1.366 . S
C1102 C1103 1.414 . S
C1102 C1105 1.499 . S
C1103 H1077 0.950 . S
C1103 C1102 1.414 . S
C1103 C1104 1.374 . S
C1104 H1078 0.950 . S
C1104 C1100 1.385 . S
C1104 C1103 1.374 . S
C1105 C1102 1.499 . S
C1105 C1106 1.373 . S
C1105 C1107 1.389 . S
C1106 H1079 0.950 . S
C1106 C1092 1.377 . S
C1106 C1105 1.373 . S
C1107 C1091 1.377 . S
C1107 C1105 1.389 . S
C1107 C1108 1.524 . S
C1108 C1107 1.524 . S
C1108 C1109 1.397 . S
C1108 C1113 1.363 . S
C1109 H1080 0.950 . S
C1109 C1108 1.397 . S
C1109 C1110 1.334 . S
C1110 H1081 0.950 . S
C1110 C1109 1.334 . S
C1110 C1111 1.287 . S
C1111 C1110 1.287 . S
C1111 C1112 1.524 . S
C1111 H1114 0.999 . S
C1112 H1082 0.950 . S
C1112 C1111 1.524 . S
C1112 C1113 1.415 . S
C1113 H1083 0.950 . S
C1113 C1108 1.363 . S
C1113 C1112 1.415 . S
H1114 C1111 0.999 . S
H1115 C1096 0.913 . S
H1116 C1134 0.951 . S
H1117 C1136 0.951 . S
H1118 C1138 0.950 . S
H1119 C1139 0.950 . S
H1120 C1141 0.950 . S
H1121 C1144 0.950 . S
H1122 C1145 0.950 . S
H1123 C1147 0.950 . S
H1124 C1148 0.950 . S
H1125 C1149 0.951 . S
H1126 C1151 0.951 . S
H1127 C1153 0.950 . S
H1128 C1154 0.950 . S
H1129 C1156 0.950 . S
H1130 C1159 0.950 . S
H1131 C1160 0.950 . S
H1132 C1162 0.950 . S
H1133 C1163 0.950 . S
C1134 H1116 0.951 . S
C1134 C1135 1.366 . S
C1134 C1136 1.388 . S
C1135 C1134 1.366 . S
C1135 C1139 1.385 . S
C1136 H1117 0.951 . S
C1136 C1134 1.388 . S
C1136 C1137 1.366 . S
C1137 C1136 1.366 . S
C1137 C1138 1.414 . S
C1137 C1140 1.499 . S
C1138 H1118 0.950 . S
C1138 C1137 1.414 . S
C1138 C1139 1.374 . S
C1139 H1119 0.950 . S
C1139 C1135 1.385 . S
C1139 C1138 1.374 . S
C1140 C1137 1.499 . S
C1140 C1141 1.373 . S
C1140 C1142 1.389 . S
C1141 H1120 0.950 . S
C1141 C1140 1.373 . S
C1141 C1157 1.377 . S
C1142 C1140 1.389 . S
C1142 C1143 1.524 . S
C1142 C1156 1.377 . S
C1143 C1142 1.524 . S
C1143 C1144 1.397 . S
C1143 C1148 1.363 . S
C1144 H1121 0.950 . S
C1144 C1143 1.397 . S
C1144 C1145 1.334 . S
C1145 H1122 0.950 . S
C1145 C1144 1.334 . S
C1145 C1146 1.287 . S
C1146 C1145 1.287 . S
C1146 C1147 1.524 . S
C1146 H1165 0.913 . S
C1147 H1123 0.950 . S
C1147 C1146 1.524 . S
C1147 C1148 1.415 . S
C1148 H1124 0.950 . S
C1148 C1143 1.363 . S
C1148 C1147 1.415 . S
C1149 H1125 0.951 . S
C1149 C1150 1.366 . S
C1149 C1151 1.388 . S
C1150 C1149 1.366 . S
C1150 C1154 1.385 . S
C1151 H1126 0.951 . S
C1151 C1149 1.388 . S
C1151 C1152 1.366 . S
C1152 C1151 1.366 . S
C1152 C1153 1.414 . S
C1152 C1155 1.499 . S
C1153 H1127 0.950 . S
C1153 C1152 1.414 . S
C1153 C1154 1.374 . S
C1154 H1128 0.950 . S
C1154 C1150 1.385 . S
C1154 C1153 1.374 . S
C1155 C1152 1.499 . S
C1155 C1156 1.373 . S
C1155 C1157 1.389 . S
C1156 H1129 0.950 . S
C1156 C1142 1.377 . S
C1156 C1155 1.373 . S
C1157 C1141 1.377 . S
C1157 C1155 1.389 . S
C1157 C1158 1.524 . S
C1158 C1157 1.524 . S
C1158 C1159 1.397 . S
C1158 C1163 1.363 . S
C1159 H1130 0.950 . S
C1159 C1158 1.397 . S
C1159 C1160 1.334 . S
C1160 H1131 0.950 . S
C1160 C1159 1.334 . S
C1160 C1161 1.287 . S
C1161 C1160 1.287 . S
C1161 C1162 1.524 . S
C1161 H1164 0.999 . S
C1162 H1132 0.950 . S
C1162 C1161 1.524 . S
C1162 C1163 1.415 . S
C1163 H1133 0.950 . S
C1163 C1158 1.363 . S
C1163 C1162 1.415 . S
H1164 C1161 0.999 . S
H1165 C1146 0.913 . S
H1166 C1184 0.951 . S
H1167 C1186 0.951 . S
H1168 C1188 0.950 . S
H1169 C1189 0.950 . S
H1170 C1191 0.950 . S
H1171 C1194 0.950 . S
H1172 C1195 0.950 . S
H1173 C1197 0.950 . S
H1174 C1198 0.950 . S
H1175 C1199 0.951 . S
H1176 C1201 0.951 . S
H1177 C1203 0.950 . S
H1178 C1204 0.950 . S
H1179 C1206 0.950 . S
H1180 C1209 0.950 . S
H1181 C1210 0.950 . S
H1182 C1212 0.950 . S
H1183 C1213 0.950 . S
C1184 H1166 0.951 . S
C1184 C1185 1.366 . S
C1184 C1186 1.388 . S
C1185 C1184 1.366 . S
C1185 C1189 1.385 . S
C1186 H1167 0.951 . S
C1186 C1184 1.388 . S
C1186 C1187 1.366 . S
C1187 C1186 1.366 . S
C1187 C1188 1.414 . S
C1187 C1190 1.499 . S
C1188 H1168 0.950 . S
C1188 C1187 1.414 . S
C1188 C1189 1.374 . S
C1189 H1169 0.950 . S
C1189 C1185 1.385 . S
C1189 C1188 1.374 . S
C1190 C1187 1.499 . S
C1190 C1191 1.373 . S
C1190 C1192 1.389 . S
C1191 H1170 0.950 . S
C1191 C1190 1.373 . S
C1191 C1207 1.377 . S
C1192 C1190 1.389 . S
C1192 C1193 1.524 . S
C1192 C1206 1.377 . S
C1193 C1192 1.524 . S
C1193 C1194 1.397 . S
C1193 C1198 1.363 . S
C1194 H1171 0.950 . S
C1194 C1193 1.397 . S
C1194 C1195 1.334 . S
C1195 H1172 0.950 . S
C1195 C1194 1.334 . S
C1195 C1196 1.287 . S
C1196 C1195 1.287 . S
C1196 C1197 1.524 . S
C1196 H1215 0.913 . S
C1197 H1173 0.950 . S
C1197 C1196 1.524 . S
C1197 C1198 1.415 . S
C1198 H1174 0.950 . S
C1198 C1193 1.363 . S
C1198 C1197 1.415 . S
C1199 H1175 0.951 . S
C1199 C1200 1.366 . S
C1199 C1201 1.388 . S
C1200 C1199 1.366 . S
C1200 C1204 1.385 . S
C1201 H1176 0.951 . S
C1201 C1199 1.388 . S
C1201 C1202 1.366 . S
C1202 C1201 1.366 . S
C1202 C1203 1.414 . S
C1202 C1205 1.499 . S
C1203 H1177 0.950 . S
C1203 C1202 1.414 . S
C1203 C1204 1.374 . S
C1204 H1178 0.950 . S
C1204 C1200 1.385 . S
C1204 C1203 1.374 . S
C1205 C1202 1.499 . S
C1205 C1206 1.373 . S
C1205 C1207 1.389 . S
C1206 H1179 0.950 . S
C1206 C1192 1.377 . S
C1206 C1205 1.373 . S
C1207 C1191 1.377 . S
C1207 C1205 1.389 . S
C1207 C1208 1.524 . S
C1208 C1207 1.524 . S
C1208 C1209 1.397 . S
C1208 C1213 1.363 . S
C1209 H1180 0.950 . S
C1209 C1208 1.397 . S
C1209 C1210 1.334 . S
C1210 H1181 0.950 . S
C1210 C1209 1.334 . S
C1210 C1211 1.287 . S
C1211 C1210 1.287 . S
C1211 C1212 1.524 . S
C1211 H1214 0.999 . S
C1212 H1182 0.950 . S
C1212 C1211 1.524 . S
C1212 C1213 1.415 . S
C1213 H1183 0.950 . S
C1213 C1208 1.363 . S
C1213 C1212 1.415 . S
H1214 C1211 0.999 . S
H1215 C1196 0.913 . S
H1216 C1234 0.908 1_455 S
H1217 C1236 0.951 . S
H1218 C1238 0.950 . S
H1219 C1239 0.950 . S
H1220 C1241 0.950 . S
H1221 C1244 0.950 . S
H1222 C1245 0.950 . S
H1223 C1247 0.950 . S
H1224 C1248 0.950 . S
H1225 C1249 0.951 . S
H1226 C1251 0.951 . S
H1227 C1253 0.950 . S
H1228 C1254 0.950 . S
H1229 C1256 0.950 . S
H1230 C1259 0.950 . S
H1231 C1260 0.950 . S
H1232 C1262 0.950 . S
H1233 C1263 0.950 . S
C1234 H1216 0.908 1_655 S
C1234 C1235 1.366 . S
C1234 C1236 1.388 . S
C1235 C1234 1.366 . S
C1235 C1239 1.385 . S
C1236 H1217 0.951 . S
C1236 C1234 1.388 . S
C1236 C1237 1.366 . S
C1237 C1236 1.366 . S
C1237 C1238 1.414 . S
C1237 C1240 1.499 . S
C1238 H1218 0.950 . S
C1238 C1237 1.414 . S
C1238 C1239 1.374 . S
C1239 H1219 0.950 . S
C1239 C1235 1.385 . S
C1239 C1238 1.374 . S
C1240 C1237 1.499 . S
C1240 C1241 1.373 . S
C1240 C1242 1.389 . S
C1241 H1220 0.950 . S
C1241 C1240 1.373 . S
C1241 C1257 1.377 . S
C1242 C1240 1.389 . S
C1242 C1243 1.524 . S
C1242 C1256 1.377 . S
C1243 C1242 1.524 . S
C1243 C1244 1.397 . S
C1243 C1248 1.363 . S
C1244 H1221 0.950 . S
C1244 C1243 1.397 . S
C1244 C1245 1.334 . S
C1245 H1222 0.950 . S
C1245 C1244 1.334 . S
C1245 C1246 1.287 . S
C1246 C1245 1.287 . S
C1246 C1247 1.524 . S
C1246 H1265 0.913 . S
C1247 H1223 0.950 . S
C1247 C1246 1.524 . S
C1247 C1248 1.415 . S
C1248 H1224 0.950 . S
C1248 C1243 1.363 . S
C1248 C1247 1.415 . S
C1249 H1225 0.951 . S
C1249 C1250 1.366 . S
C1249 C1251 1.388 . S
C1250 C1249 1.366 . S
C1250 C1254 1.385 . S
C1251 H1226 0.951 . S
C1251 C1249 1.388 . S
C1251 C1252 1.366 . S
C1252 C1251 1.366 . S
C1252 C1253 1.414 . S
C1252 C1255 1.499 . S
C1253 H1227 0.950 . S
C1253 C1252 1.414 . S
C1253 C1254 1.374 . S
C1254 H1228 0.950 . S
C1254 C1250 1.385 . S
C1254 C1253 1.374 . S
C1255 C1252 1.499 . S
C1255 C1256 1.373 . S
C1255 C1257 1.389 . S
C1256 H1229 0.950 . S
C1256 C1242 1.377 . S
C1256 C1255 1.373 . S
C1257 C1241 1.377 . S
C1257 C1255 1.389 . S
C1257 C1258 1.524 . S
C1258 C1257 1.524 . S
C1258 C1259 1.397 . S
C1258 C1263 1.363 . S
C1259 H1230 0.950 . S
C1259 C1258 1.397 . S
C1259 C1260 1.334 . S
C1260 H1231 0.950 . S
C1260 C1259 1.334 . S
C1260 C1261 1.287 . S
C1261 C1260 1.287 . S
C1261 C1262 1.524 . S
C1261 H1264 0.999 . S
C1262 H1232 0.950 . S
C1262 C1261 1.524 . S
C1262 C1263 1.415 . S
C1263 H1233 0.950 . S
C1263 C1258 1.363 . S
C1263 C1262 1.415 . S
H1264 C1261 0.999 . S
H1265 C1246 0.913 . S
H1266 C1284 0.951 . S
H1267 C1286 0.951 . S
H1268 C1288 0.950 . S
H1269 C1289 0.950 . S
H1270 C1291 0.950 . S
H1271 C1294 0.950 . S
H1272 C1295 0.950 . S
H1273 C1297 0.950 . S
H1274 C1298 0.950 . S
H1275 C1299 0.951 . S
H1276 C1301 0.951 . S
H1277 C1303 0.950 . S
H1278 C1304 0.950 . S
H1279 C1306 0.950 . S
H1280 C1309 0.950 . S
H1281 C1310 0.950 . S
H1282 C1312 0.950 . S
H1283 C1313 0.950 . S
C1284 H1266 0.951 . S
C1284 C1285 1.366 . S
C1284 C1286 1.388 . S
C1285 C1284 1.366 . S
C1285 C1289 1.385 . S
C1286 H1267 0.951 . S
C1286 C1284 1.388 . S
C1286 C1287 1.366 . S
C1287 C1286 1.366 . S
C1287 C1288 1.414 . S
C1287 C1290 1.499 . S
C1288 H1268 0.950 . S
C1288 C1287 1.414 . S
C1288 C1289 1.374 . S
C1289 H1269 0.950 . S
C1289 C1285 1.385 . S
C1289 C1288 1.374 . S
C1290 C1287 1.499 . S
C1290 C1291 1.373 . S
C1290 C1292 1.389 . S
C1291 H1270 0.950 . S
C1291 C1290 1.373 . S
C1291 C1307 1.377 . S
C1292 C1290 1.389 . S
C1292 C1293 1.524 . S
C1292 C1306 1.377 . S
C1293 C1292 1.524 . S
C1293 C1294 1.397 . S
C1293 C1298 1.363 . S
C1294 H1271 0.950 . S
C1294 C1293 1.397 . S
C1294 C1295 1.334 . S
C1295 H1272 0.950 . S
C1295 C1294 1.334 . S
C1295 C1296 1.287 . S
C1296 C1295 1.287 . S
C1296 C1297 1.524 . S
C1296 H1315 0.913 . S
C1297 H1273 0.950 . S
C1297 C1296 1.524 . S
C1297 C1298 1.415 . S
C1298 H1274 0.950 . S
C1298 C1293 1.363 . S
C1298 C1297 1.415 . S
C1299 H1275 0.951 . S
C1299 C1300 1.366 . S
C1299 C1301 1.388 . S
C1300 C1299 1.366 . S
C1300 C1304 1.385 . S
C1301 H1276 0.951 . S
C1301 C1299 1.388 . S
C1301 C1302 1.366 . S
C1302 C1301 1.366 . S
C1302 C1303 1.414 . S
C1302 C1305 1.499 . S
C1303 H1277 0.950 . S
C1303 C1302 1.414 . S
C1303 C1304 1.374 . S
C1304 H1278 0.950 . S
C1304 C1300 1.385 . S
C1304 C1303 1.374 . S
C1305 C1302 1.499 . S
C1305 C1306 1.373 . S
C1305 C1307 1.389 . S
C1306 H1279 0.950 . S
C1306 C1292 1.377 . S
C1306 C1305 1.373 . S
C1307 C1291 1.377 . S
C1307 C1305 1.389 . S
C1307 C1308 1.524 . S
C1308 C1307 1.524 . S
C1308 C1309 1.397 . S
C1308 C1313 1.363 . S
C1309 H1280 0.950 . S
C1309 C1308 1.397 . S
C1309 C1310 1.334 . S
C1310 H1281 0.950 . S
C1310 C1309 1.334 . S
C1310 C1311 1.287 . S
C1311 C1310 1.287 . S
C1311 C1312 1.524 . S
C1311 H1314 0.999 . S
C1312 H1282 0.950 . S
C1312 C1311 1.524 . S
C1312 C1313 1.415 . S
C1313 H1283 0.950 . S
C1313 C1308 1.363 . S
C1313 C1312 1.415 . S
H1314 C1311 0.999 . S
H1315 C1296 0.913 . S
H1316 C1334 0.951 . S
H1317 C1336 0.951 . S
H1318 C1338 0.950 . S
H1319 C1339 0.950 . S
H1320 C1341 0.950 . S
H1321 C1344 0.950 . S
H1322 C1345 0.950 . S
H1323 C1347 0.950 . S
H1324 C1348 0.950 . S
H1325 C1349 0.951 . S
H1326 C1351 0.951 . S
H1327 C1353 0.950 . S
H1328 C1354 0.950 . S
H1329 C1356 0.950 . S
H1330 C1359 0.950 . S
H1331 C1360 0.950 . S
H1332 C1362 0.950 . S
H1333 C1363 0.950 . S
C1334 H1316 0.951 . S
C1334 C1335 1.366 . S
C1334 C1336 1.388 . S
C1335 C1334 1.366 . S
C1335 C1339 1.385 . S
C1336 H1317 0.951 . S
C1336 C1334 1.388 . S
C1336 C1337 1.366 . S
C1337 C1336 1.366 . S
C1337 C1338 1.414 . S
C1337 C1340 1.499 . S
C1338 H1318 0.950 . S
C1338 C1337 1.414 . S
C1338 C1339 1.374 . S
C1339 H1319 0.950 . S
C1339 C1335 1.385 . S
C1339 C1338 1.374 . S
C1340 C1337 1.499 . S
C1340 C1341 1.373 . S
C1340 C1342 1.389 . S
C1341 H1320 0.950 . S
C1341 C1340 1.373 . S
C1341 C1357 1.377 . S
C1342 C1340 1.389 . S
C1342 C1343 1.524 . S
C1342 C1356 1.377 . S
C1343 C1342 1.524 . S
C1343 C1344 1.397 . S
C1343 C1348 1.363 . S
C1344 H1321 0.950 . S
C1344 C1343 1.397 . S
C1344 C1345 1.334 . S
C1345 H1322 0.950 . S
C1345 C1344 1.334 . S
C1345 C1346 1.287 . S
C1346 C1345 1.287 . S
C1346 C1347 1.524 . S
C1346 H1365 0.913 . S
C1347 H1323 0.950 . S
C1347 C1346 1.524 . S
C1347 C1348 1.415 . S
C1348 H1324 0.950 . S
C1348 C1343 1.363 . S
C1348 C1347 1.415 . S
C1349 H1325 0.951 . S
C1349 C1350 1.366 . S
C1349 C1351 1.388 . S
C1350 C1349 1.366 . S
C1350 C1354 1.385 . S
C1351 H1326 0.951 . S
C1351 C1349 1.388 . S
C1351 C1352 1.366 . S
C1352 C1351 1.366 . S
C1352 C1353 1.414 . S
C1352 C1355 1.499 . S
C1353 H1327 0.950 . S
C1353 C1352 1.414 . S
C1353 C1354 1.374 . S
C1354 H1328 0.950 . S
C1354 C1350 1.385 . S
C1354 C1353 1.374 . S
C1355 C1352 1.499 . S
C1355 C1356 1.373 . S
C1355 C1357 1.389 . S
C1356 H1329 0.950 . S
C1356 C1342 1.377 . S
C1356 C1355 1.373 . S
C1357 C1341 1.377 . S
C1357 C1355 1.389 . S
C1357 C1358 1.524 . S
C1358 C1357 1.524 . S
C1358 C1359 1.397 . S
C1358 C1363 1.363 . S
C1359 H1330 0.950 . S
C1359 C1358 1.397 . S
C1359 C1360 1.334 . S
C1360 H1331 0.950 . S
C1360 C1359 1.334 . S
C1360 C1361 1.287 . S
C1361 C1360 1.287 . S
C1361 C1362 1.524 . S
C1361 H1364 0.999 . S
C1362 H1332 0.950 . S
C1362 C1361 1.524 . S
C1362 C1363 1.415 . S
C1363 H1333 0.950 . S
C1363 C1358 1.363 . S
C1363 C1362 1.415 . S
H1364 C1361 0.999 . S
H1365 C1346 0.913 . S
H1366 C1384 0.951 . S
H1367 C1386 0.951 . S
H1368 C1388 0.950 . S
H1369 C1389 0.950 . S
H1370 C1391 0.950 . S
H1371 C1394 0.950 . S
H1372 C1395 0.950 . S
H1373 C1397 0.950 . S
H1374 C1398 0.950 . S
H1375 C1399 0.951 . S
H1376 C1401 0.951 . S
H1377 C1403 0.950 . S
H1378 C1404 0.950 . S
H1379 C1406 0.950 . S
H1380 C1409 0.950 . S
H1381 C1410 0.950 . S
H1382 C1412 0.950 . S
H1383 C1413 0.950 . S
C1384 H1366 0.951 . S
C1384 C1385 1.366 . S
C1384 C1386 1.388 . S
C1385 C1384 1.366 . S
C1385 C1389 1.385 . S
C1386 H1367 0.951 . S
C1386 C1384 1.388 . S
C1386 C1387 1.366 . S
C1387 C1386 1.366 . S
C1387 C1388 1.414 . S
C1387 C1390 1.499 . S
C1388 H1368 0.950 . S
C1388 C1387 1.414 . S
C1388 C1389 1.374 . S
C1389 H1369 0.950 . S
C1389 C1385 1.385 . S
C1389 C1388 1.374 . S
C1390 C1387 1.499 . S
C1390 C1391 1.373 . S
C1390 C1392 1.389 . S
C1391 H1370 0.950 . S
C1391 C1390 1.373 . S
C1391 C1407 1.377 . S
C1392 C1390 1.389 . S
C1392 C1393 1.524 . S
C1392 C1406 1.377 . S
C1393 C1392 1.524 . S
C1393 C1394 1.397 . S
C1393 C1398 1.363 . S
C1394 H1371 0.950 . S
C1394 C1393 1.397 . S
C1394 C1395 1.334 . S
C1395 H1372 0.950 . S
C1395 C1394 1.334 . S
C1395 C1396 1.287 . S
C1396 C1395 1.287 . S
C1396 C1397 1.524 . S
C1396 H1415 0.913 . S
C1397 H1373 0.950 . S
C1397 C1396 1.524 . S
C1397 C1398 1.415 . S
C1398 H1374 0.950 . S
C1398 C1393 1.363 . S
C1398 C1397 1.415 . S
C1399 H1375 0.951 . S
C1399 C1400 1.366 . S
C1399 C1401 1.388 . S
C1400 C1399 1.366 . S
C1400 C1404 1.385 . S
C1401 H1376 0.951 . S
C1401 C1399 1.388 . S
C1401 C1402 1.366 . S
C1402 C1401 1.366 . S
C1402 C1403 1.414 . S
C1402 C1405 1.499 . S
C1403 H1377 0.950 . S
C1403 C1402 1.414 . S
C1403 C1404 1.374 . S
C1404 H1378 0.950 . S
C1404 C1400 1.385 . S
C1404 C1403 1.374 . S
C1405 C1402 1.499 . S
C1405 C1406 1.373 . S
C1405 C1407 1.389 . S
C1406 H1379 0.950 . S
C1406 C1392 1.377 . S
C1406 C1405 1.373 . S
C1407 C1391 1.377 . S
C1407 C1405 1.389 . S
C1407 C1408 1.524 . S
C1408 C1407 1.524 . S
C1408 C1409 1.397 . S
C1408 C1413 1.363 . S
C1409 H1380 0.950 . S
C1409 C1408 1.397 . S
C1409 C1410 1.334 . S
C1410 H1381 0.950 . S
C1410 C1409 1.334 . S
C1410 C1411 1.287 . S
C1411 C1410 1.287 . S
C1411 C1412 1.524 . S
C1411 H1414 0.999 . S
C1412 H1382 0.950 . S
C1412 C1411 1.524 . S
C1412 C1413 1.415 . S
C1413 H1383 0.950 . S
C1413 C1408 1.363 . S
C1413 C1412 1.415 . S
H1414 C1411 0.999 . S
H1415 C1396 0.913 . S
C235 C7 1.847 . S
C250 C139 1.845 . S
C285 C30 1.637 . S
C300 C152 1.632 . S
C350 C174 1.641 . S
C335 N58 1.658 . S
C400 C187 1.451 . S
C385 N81 1.456 . S
C450 C200 1.738 . S
C435 C99 1.796 . S
C500 C213 1.423 . S
C485 N127 1.440 . S
C535 N25 1.650 . S
C550 C169 1.615 . S
C585 C62 1.613 . S
C600 C182 1.550 . S
C650 C195 1.714 . S
C635 C85 1.774 . S
C700 C208 1.404 . S
C685 N94 1.438 . S
C735 C131 1.807 . S
C750 C141 1.809 . S
C800 C154 1.503 . S
C785 N2 1.466 . S
C850 C180 1.728 . S
C835 C16 1.785 1_655 S
C885 C39 1.600 . S
C900 C193 1.546 . S
C950 C206 1.618 . S
C935 N48 1.647 . S
C985 N71 1.470 . S
C1000 C143 1.507 . S
C1035 C108 1.793 . S
C1050 C156 1.801 . S
C1085 N117 1.429 . S
C1100 C167 1.404 . S
C1135 N35 1.647 . S
C1150 C204 1.630 . S
C1200 C148 1.624 . S
C1185 C53 1.627 . S
C1235 C76 1.823 . S
C1250 C161 1.822 . S
C1285 N104 1.429 . S
C1300 C165 1.412 . S
C1335 C122 1.782 . S
C1350 C178 1.730 . S
C1385 N12 1.440 . S
C1400 C191 1.433 . S
