# Generated by pormake.
# Topology pts, (4,4)-cn, num edge types: 1
# Building blocks:
#     Node 0, Type 0, BuildingBlock: NAWXER_clean_sbu_0, # of connection points: 4
#     Node 1, Type 0, BuildingBlock: NAWXER_clean_sbu_0, # of connection points: 4
#     Node 2, Type 1, BuildingBlock: QUQFOY_clean_sbu_1, # of connection points: 4
#     Node 3, Type 1, BuildingBlock: QUQFOY_clean_sbu_1, # of connection points: 4
#     Edge 4, Type (0, 1), BuildingBlock: FUNLAD_clean_linker_1, # of connection points: 2
#     Edge 5, Type (0, 1), BuildingBlock: FUNLAD_clean_linker_1, # of connection points: 2
#     Edge 6, Type (0, 1), BuildingBlock: FUNLAD_clean_linker_1, # of connection points: 2
#     Edge 7, Type (0, 1), BuildingBlock: FUNLAD_clean_linker_1, # of connection points: 2
#     Edge 8, Type (0, 1), BuildingBlock: FUNLAD_clean_linker_1, # of connection points: 2
#     Edge 9, Type (0, 1), BuildingBlock: FUNLAD_clean_linker_1, # of connection points: 2
#     Edge 10, Type (0, 1), BuildingBlock: FUNLAD_clean_linker_1, # of connection points: 2
#     Edge 11, Type (0, 1), BuildingBlock: FUNLAD_clean_linker_1, # of connection points: 2
# Relax obj value: 0.106
# Max RMSD: 0.243
# Mean RMSD: 0.140
data_MOF--net-pts--node1-NAWXER_clean_sbu_0--node2-QUQFOY_clean_sbu_1--edge1-FUNLAD_clean_linker_1
_symmetry_space_group_name_H-M    P1
_symmetry_Int_Tables_number       1
_symmetry_cell_setting            triclinic
loop_
_symmetry_equiv_pos_as_xyz
'x, y, z'
_cell_length_a     22.798699
_cell_length_b     24.88171
_cell_length_c     40.777062
_cell_angle_alpha  89.919239
_cell_angle_beta   90.024905
_cell_angle_gamma 90.739596
loop_
_atom_site_label
_atom_site_type_symbol
_atom_site_fract_x
_atom_site_fract_y
_atom_site_fract_z
_atom_type_partial_charge
C0 C 0.43033 0.95354 0.96864 0.0
C1 C 0.58211 0.97457 0.05169 0.0
O2 O 0.45848 0.9168 0.98314 0.0
Zn3 Zn 0.507 0.96367 1.00991 0.0
O4 O 0.44122 1.00297 0.97545 0.0
Zn5 Zn 0.49892 0.04816 1.00681 0.0
O6 O 0.54392 0.08926 0.97541 0.0
O7 O 0.56344 1.0025 0.97449 0.0
O8 O 0.56305 0.02004 0.04162 0.0
O9 O 0.56182 0.93127 0.03948 0.0
O10 O 0.44474 0.99848 0.04324 0.0
O11 O 0.4452 0.08613 0.03448 0.0
C12 C 0.57256 0.05035 0.96371 0.0
C13 C 0.42569 0.04547 0.05005 0.0
C14 C 0.92748 0.59784 0.47515 0.0
C15 C 0.93508 0.45794 0.55933 0.0
O16 O 0.88425 0.57621 0.49004 0.0
Zn17 Zn 0.92952 0.52835 0.51751 0.0
O18 O 0.97972 0.58217 0.48129 0.0
Zn19 Zn 0.02265 0.52551 0.51263 0.0
O20 O 0.05779 0.47615 0.48164 0.0
O21 O 0.96099 0.47097 0.48287 0.0
O22 O 0.98581 0.47097 0.54804 0.0
O23 O 0.8899 0.48204 0.54895 0.0
O24 O 0.97766 0.5842 0.54759 0.0
O25 O 0.07222 0.57262 0.53875 0.0
C26 C 0.01009 0.45476 0.47162 0.0
C27 C 0.0313 0.59739 0.55322 0.0
O28 O 0.91997 0.99367 0.23863 0.0
Cd29 Cd 0.99375 0.97384 0.26506 0.0
Cd30 Cd 0.01302 0.08445 0.26047 0.0
O31 O 0.93388 0.08163 0.23581 0.0
O32 O 0.97697 0.89937 0.28091 0.0
O33 O 0.99359 0.96783 0.3144 0.0
C34 C 0.98163 0.91739 0.31043 0.0
C35 C 0.02882 0.15471 0.29755 0.0
C36 C 0.9038 0.03979 0.22901 0.0
C37 C 0.10119 1.01043 0.22886 0.0
O38 O 0.08539 0.05813 0.23511 0.0
O39 O 0.07141 0.97034 0.23914 0.0
O40 O 0.03116 0.16242 0.26638 0.0
O41 O 0.01708 0.10678 0.30809 0.0
O42 O 0.9598 0.07964 0.79728 0.0
Cd43 Cd 0.02572 0.08065 0.76261 0.0
Cd44 Cd 0.99696 0.97419 0.76114 0.0
O45 O 0.92082 1.00169 0.78263 0.0
O46 O 0.03949 0.1583 0.7528 0.0
O47 O 0.00561 0.10052 0.71592 0.0
C48 C 0.02035 0.14922 0.7236 0.0
C49 C 0.99175 0.9071 0.72119 0.0
C50 C 0.91862 0.04498 0.79907 0.0
C51 C 0.11211 1.00707 0.79148 0.0
O52 O 0.07137 0.97175 0.79021 0.0
O53 O 0.10583 0.0525 0.77782 0.0
O54 O 0.97949 0.89715 0.75141 0.0
O55 O 0.00531 0.95592 0.71309 0.0
H56 H 0.36673 0.09289 0.08144 0.0
C57 C 0.38165 0.05251 0.07608 0.0
H58 H 0.373 0.96982 0.08756 0.0
H59 H 0.26938 0.0752 0.22389 0.0
H60 H 0.37101 0.09884 0.23529 0.0
H61 H 0.44787 0.08485 0.19369 0.0
H62 H 0.42357 0.0475 0.14039 0.0
C63 C 0.35984 1.0106 0.09317 0.0
C64 C 0.31413 1.01802 0.11864 0.0
C65 C 0.32924 0.03956 0.14973 0.0
C66 C 0.28503 0.0471 0.17381 0.0
C67 C 0.30123 0.06876 0.20467 0.0
C68 C 0.35941 0.08237 0.21156 0.0
C69 C 0.40268 0.07454 0.18813 0.0
C70 C 0.38807 0.05327 0.15757 0.0
H71 H 0.16417 0.96008 0.20195 0.0
C72 C 0.15196 1.00126 0.20724 0.0
H73 H 0.16866 0.08346 0.19709 0.0
H74 H 0.27111 0.97478 0.0617 0.0
H75 H 0.16945 0.95217 0.04992 0.0
H76 H 0.09226 0.96715 0.09117 0.0
H77 H 0.11622 1.00446 0.14442 0.0
C78 C 0.17979 0.04202 0.19183 0.0
C79 C 0.22604 0.03245 0.1669 0.0
C80 C 0.21094 1.01095 0.13573 0.0
C81 C 0.25523 1.00317 0.11173 0.0
C82 C 0.23916 0.98157 0.08082 0.0
C83 C 0.18096 0.9685 0.0737 0.0
C84 C 0.13752 0.97688 0.09694 0.0
C85 C 0.15201 0.99804 0.12755 0.0
H86 H 0.88533 0.3988 0.58943 0.0
C87 C 0.92908 0.41252 0.58256 0.0
H88 H 0.02003 0.39902 0.58601 0.0
H89 H 0.91585 0.2509 0.70992 0.0
H90 H 0.87613 0.33308 0.7322 0.0
H91 H 0.88259 0.41806 0.70111 0.0
H92 H 0.92723 0.42104 0.64727 0.0
C93 C 0.97639 0.38631 0.59376 0.0
C94 C 0.97199 0.33565 0.61324 0.0
C95 C 0.94813 0.33537 0.64537 0.0
C96 C 0.94772 0.2871 0.66418 0.0
C97 C 0.92015 0.28704 0.69531 0.0
C98 C 0.89671 0.33384 0.70828 0.0
C99 C 0.9001 0.38161 0.69071 0.0
C100 C 0.92553 0.38265 0.65966 0.0
H101 H 0.03478 0.23264 0.70741 0.0
C102 C 0.01446 0.19451 0.70053 0.0
H103 H 0.96152 0.15402 0.66568 0.0
H104 H 0.01598 0.32074 0.5514 0.0
H105 H 0.05768 0.239 0.5298 0.0
H106 H 0.06246 0.15701 0.56373 0.0
H107 H 0.02503 0.15616 0.61939 0.0
C108 C 0.98196 0.1918 0.67306 0.0
C109 C 0.97464 0.24014 0.65174 0.0
C110 C 0.99689 0.24002 0.61929 0.0
C111 C 0.99521 0.28766 0.59997 0.0
C112 C 0.01719 0.28611 0.56746 0.0
C113 C 0.04106 0.23936 0.55467 0.0
C114 C 0.04367 0.19319 0.57376 0.0
C115 C 0.02197 0.19327 0.60569 0.0
H116 H 0.6419 0.93306 0.08571 0.0
C117 C 0.62647 0.97224 0.07794 0.0
H118 H 0.63344 0.05636 0.08481 0.0
H119 H 0.73568 0.97048 0.22695 0.0
H120 H 0.63417 0.94684 0.23868 0.0
H121 H 0.55805 0.95447 0.19595 0.0
H122 H 0.58298 0.98543 0.1412 0.0
C123 C 0.6473 1.01678 0.09272 0.0
C124 C 0.69244 1.0137 0.11891 0.0
C125 C 0.67697 0.99584 0.15082 0.0
C126 C 0.72074 0.992 0.17555 0.0
C127 C 0.70417 0.97403 0.20723 0.0
C128 C 0.64606 0.96046 0.21431 0.0
C129 C 0.60321 0.96471 0.19025 0.0
C130 C 0.61818 0.9823 0.15886 0.0
H131 H 0.8397 0.08471 0.1994 0.0
C132 C 0.85249 0.04473 0.20721 0.0
H133 H 0.83724 0.96115 0.20183 0.0
H134 H 0.73595 0.05103 0.06052 0.0
H135 H 0.83747 0.0738 0.04851 0.0
H136 H 0.91405 0.06452 0.09082 0.0
H137 H 0.88959 0.03303 0.14539 0.0
C138 C 0.82542 1.00144 0.19418 0.0
C139 C 0.77964 1.00667 0.16842 0.0
C140 C 0.7951 0.02446 0.13642 0.0
C141 C 0.75122 0.02868 0.11179 0.0
C142 C 0.7676 0.04691 0.08012 0.0
C143 C 0.82573 0.06002 0.07286 0.0
C144 C 0.86882 0.05488 0.0967 0.0
C145 C 0.85402 0.0371 0.12806 0.0
H146 H 0.09055 0.65586 0.57801 0.0
C147 C 0.04502 0.64341 0.57491 0.0
H148 H 0.95649 0.66026 0.58532 0.0
H149 H 0.09039 0.80424 0.70094 0.0
H150 H 0.13109 0.72068 0.72077 0.0
H151 H 0.11604 0.63621 0.69012 0.0
H152 H 0.06167 0.63508 0.63909 0.0
C153 C 0.00214 0.67147 0.58943 0.0
C154 C 0.01344 0.72203 0.60806 0.0
C155 C 0.04331 0.72132 0.63858 0.0
C156 C 0.04899 0.7694 0.65726 0.0
C157 C 0.08213 0.76835 0.68664 0.0
C158 C 0.10618 0.72075 0.69816 0.0
C159 C 0.09792 0.67325 0.68083 0.0
C160 C 0.06684 0.67326 0.65141 0.0
H161 H 0.97173 0.82466 0.70509 0.0
C162 C 0.99172 0.86255 0.69741 0.0
H163 H 0.03945 0.9028 0.66016 0.0
H164 H 0.95968 0.73884 0.5489 0.0
H165 H 0.91833 0.82233 0.52947 0.0
H166 H 0.92309 0.90428 0.5634 0.0
H167 H 0.96984 0.90337 0.61685 0.0
C168 C 0.01924 0.86531 0.66831 0.0
C169 C 0.02163 0.81727 0.64644 0.0
C170 C 0.99401 0.81849 0.61532 0.0
C171 C 0.99024 0.77094 0.59603 0.0
C172 C 0.96282 0.77346 0.56487 0.0
C173 C 0.93906 0.82119 0.55335 0.0
C174 C 0.94183 0.86734 0.57243 0.0
C175 C 0.96883 0.86625 0.60308 0.0
H176 H 0.37484 0.89755 0.93945 0.0
C177 C 0.38505 0.93964 0.9441 0.0
H178 H 0.36512 0.0203 0.93289 0.0
H179 H 0.25313 0.91743 0.79884 0.0
H180 H 0.35328 0.89549 0.78406 0.0
H181 H 0.43381 0.90631 0.82406 0.0
H182 H 0.41477 0.93862 0.8791 0.0
C183 C 0.35628 0.97813 0.92774 0.0
C184 C 0.30786 0.9658 0.90447 0.0
C185 C 0.32005 0.94715 0.87237 0.0
C186 C 0.27386 0.942 0.84907 0.0
C187 C 0.28688 0.92292 0.81725 0.0
C188 C 0.34407 0.91006 0.8085 0.0
C189 C 0.3894 0.91607 0.83105 0.0
C190 C 0.37784 0.93453 0.86261 0.0
H191 H 0.19961 0.02835 0.81091 0.0
C192 C 0.16501 0.99786 0.81141 0.0
H193 H 0.13295 0.92769 0.83502 0.0
H194 H 0.26922 0.9986 0.96467 0.0
H195 H 0.16911 0.02007 0.9794 0.0
H196 H 0.08927 1.01245 0.93873 0.0
H197 H 0.10899 0.98309 0.88315 0.0
C198 C 0.16861 0.95687 0.83278 0.0
C199 C 0.21598 0.95623 0.85782 0.0
C200 C 0.20345 0.97272 0.8903 0.0
C201 C 0.24949 0.97761 0.91363 0.0
C202 C 0.23594 0.99474 0.94585 0.0
C203 C 0.17865 1.00706 0.95467 0.0
C204 C 0.1337 1.0027 0.93178 0.0
C205 C 0.14566 0.98579 0.89995 0.0
H206 H 0.96626 0.39362 0.44133 0.0
C207 C 0.00906 0.4102 0.44788 0.0
H208 H 0.10061 0.40318 0.44165 0.0
H209 H 0.08525 0.15945 0.39701 0.0
H210 H 0.14042 0.15347 0.44767 0.0
H211 H 0.15471 0.23298 0.48297 0.0
H212 H 0.11489 0.31923 0.46752 0.0
C213 C 0.05725 0.38871 0.43459 0.0
C214 C 0.05175 0.34157 0.41211 0.0
C215 C 0.0749 0.29126 0.42163 0.0
C216 C 0.06532 0.24503 0.40165 0.0
C217 C 0.09015 0.19564 0.41147 0.0
C218 C 0.12205 0.19163 0.44049 0.0
C219 C 0.13018 0.23641 0.46034 0.0
C220 C 0.10706 0.28573 0.45115 0.0
H221 H 0.05913 0.23656 0.30938 0.0
C222 C 0.03948 0.20036 0.31983 0.0
H223 H 0.00323 0.16432 0.36217 0.0
H224 H 0.01051 0.43331 0.38339 0.0
H225 H 0.94813 0.43835 0.33533 0.0
H226 H 0.91889 0.3562 0.30537 0.0
H227 H 0.95368 0.26906 0.3225 0.0
C228 C 0.02261 0.20035 0.35139 0.0
C229 C 0.03142 0.24884 0.37255 0.0
C230 C 0.00681 0.299 0.36358 0.0
C231 C 0.0195 0.34576 0.38245 0.0
C232 C -0.00083 0.39607 0.37113 0.0
C233 C 0.96372 0.39961 0.34343 0.0
C234 C 0.94757 0.35343 0.32645 0.0
C235 C 0.96854 0.30364 0.33634 0.0
H236 H 0.60361 0.09052 0.9186 0.0
C237 C 0.61368 0.05947 0.93641 0.0
H238 H 0.67106 0.99878 0.95124 0.0
H239 H 0.79117 0.93078 0.82227 0.0
H240 H 0.74484 0.84846 0.84089 0.0
H241 H 0.67485 0.84874 0.88696 0.0
H242 H 0.65205 0.93122 0.91516 0.0
C243 C 0.66175 0.0293 0.93292 0.0
C244 C 0.69956 0.0314 0.90302 0.0
C245 C 0.71012 0.98305 0.8856 0.0
C246 C 0.74837 0.98328 0.85801 0.0
C247 C 0.76105 0.93368 0.84261 0.0
C248 C 0.73486 0.88584 0.85313 0.0
C249 C 0.69562 0.88596 0.87911 0.0
C250 C 0.68321 0.93376 0.89522 0.0
H251 H 0.88234 0.07558 0.84515 0.0
C252 C 0.87155 0.05279 0.82319 0.0
H253 H 0.80718 1.00912 0.79729 0.0
H254 H 0.699 0.13008 0.93354 0.0
H255 H 0.7348 0.21428 0.91085 0.0
H256 H 0.78328 0.21707 0.85676 0.0
H257 H 0.79892 0.13507 0.82602 0.0
C258 C 0.81754 0.03142 0.81948 0.0
C259 C 0.77349 0.03238 0.84665 0.0
C260 C 0.75899 0.0813 0.86247 0.0
C261 C 0.72539 0.0804 0.89188 0.0
C262 C 0.71943 0.12889 0.90967 0.0
C263 C 0.74052 0.17751 0.89711 0.0
C264 C 0.76818 0.17904 0.8668 0.0
C265 C 0.77746 0.13162 0.84958 0.0
H266 H 0.87383 0.64877 0.44236 0.0
C267 C 0.9181 0.64113 0.45092 0.0
H268 H 0.00774 0.66278 0.44778 0.0
H269 H 0.01502 0.76158 0.3078 0.0
H270 H 0.06549 0.6778 0.2993 0.0
H271 H 0.06603 0.60784 0.34219 0.0
H272 H 0.01655 0.62157 0.39399 0.0
C273 C 0.9634 0.67089 0.43948 0.0
C274 C 0.95701 0.71137 0.41281 0.0
C275 C 0.98497 0.70227 0.38231 0.0
C276 C 0.98334 0.74206 0.35727 0.0
C277 C 0.01347 0.7324 0.32747 0.0
C278 C 0.04292 0.68447 0.32226 0.0
C279 C 0.04334 0.64515 0.34642 0.0
C280 C 0.01487 0.6537 0.37612 0.0
H281 H 0.99214 0.89408 0.36249 0.0
C282 C 0.97544 0.88085 0.33883 0.0
H283 H 0.93501 0.81845 0.31186 0.0
H284 H 0.90326 0.74401 0.4694 0.0
H285 H 0.84791 0.82558 0.47696 0.0
H286 H 0.83706 0.89068 0.43176 0.0
H287 H 0.88271 0.87524 0.37898 0.0
C288 C 0.9513 0.83148 0.33565 0.0
C289 C 0.95268 0.79062 0.36246 0.0
C290 C 0.92305 0.799 0.39263 0.0
C291 C 0.92659 0.75998 0.41816 0.0
C292 C 0.89998 0.77108 0.44874 0.0
C293 C 0.86833 0.81794 0.45349 0.0
C294 C 0.86241 0.85469 0.42808 0.0
C295 C 0.88925 0.84552 0.39795 0.0
loop_
_geom_bond_atom_site_label_1
_geom_bond_atom_site_label_2
_geom_bond_distance
_geom_bond_site_symmetry_2
_ccdc_geom_bond_type
C0 O2 1.245 . S
C0 O4 1.259 1_565 S
C1 O8 1.252 . S
C1 O9 1.253 1_545 S
O2 C0 1.245 . S
O2 Zn3 2.028 1_556 S
Zn3 O2 2.028 1_554 S
Zn3 O7 2.035 1_554 S
Zn3 O9 2.035 . S
Zn3 O10 2.028 . S
O4 C0 1.259 1_545 S
O4 Zn5 2.035 1_556 S
Zn5 O4 2.035 1_554 S
Zn5 O6 2.028 1_554 S
Zn5 O8 2.028 . S
Zn5 O11 2.035 . S
O6 Zn5 2.028 1_556 S
O6 C12 1.252 . S
O7 Zn3 2.035 1_556 S
O7 C12 1.253 1_565 S
O8 C1 1.252 . S
O8 Zn5 2.028 . S
O9 C1 1.253 1_565 S
O9 Zn3 2.035 . S
O10 Zn3 2.028 . S
O10 C13 1.245 . S
O11 Zn5 2.035 . S
O11 C13 1.259 1_545 S
C12 O6 1.252 . S
C12 O7 1.253 1_545 S
C13 O10 1.245 . S
C13 O11 1.259 1_565 S
C14 O16 1.247 . S
C14 O18 1.258 1_655 S
C15 O22 1.251 . S
C15 O23 1.254 1_455 S
O16 C14 1.247 . S
O16 Zn17 2.028 . S
Zn17 O16 2.028 . S
Zn17 O21 2.035 . S
Zn17 O23 2.035 . S
Zn17 O24 2.028 . S
O18 C14 1.258 1_455 S
O18 Zn19 2.035 . S
Zn19 O18 2.035 . S
Zn19 O20 2.028 . S
Zn19 O22 2.028 . S
Zn19 O25 2.035 . S
O20 Zn19 2.028 . S
O20 C26 1.251 . S
O21 Zn17 2.035 . S
O21 C26 1.254 1_655 S
O22 C15 1.251 . S
O22 Zn19 2.028 . S
O23 C15 1.254 1_655 S
O23 Zn17 2.035 . S
O24 Zn17 2.028 . S
O24 C27 1.247 . S
O25 Zn19 2.035 . S
O25 C27 1.258 1_455 S
C26 O20 1.251 . S
C26 O21 1.254 1_455 S
C27 O24 1.247 . S
C27 O25 1.258 1_655 S
O28 Cd29 2.223 1_655 S
O28 C36 1.315 . S
Cd29 O28 2.223 1_455 S
Cd29 O32 2.297 1_455 S
Cd29 O33 2.439 1_455 S
Cd29 O39 2.240 1_565 S
Cd30 O31 2.240 1_545 S
Cd30 O38 2.223 1_655 S
Cd30 O40 2.297 1_655 S
Cd30 O41 2.439 1_655 S
O31 Cd30 2.240 1_565 S
O31 C36 1.279 . S
O32 Cd29 2.297 1_655 S
O32 C34 1.247 . S
O33 Cd29 2.439 1_655 S
O33 C34 1.208 . S
C34 O32 1.247 . S
C34 O33 1.208 . S
C35 O40 1.247 . S
C35 O41 1.208 . S
C36 O28 1.315 . S
C36 O31 1.279 . S
C37 O38 1.315 . S
C37 O39 1.279 . S
O38 Cd30 2.223 1_455 S
O38 C37 1.315 . S
O39 Cd29 2.240 1_545 S
O39 C37 1.279 . S
O40 Cd30 2.297 1_455 S
O40 C35 1.247 . S
O41 Cd30 2.439 1_455 S
O41 C35 1.208 . S
O42 Cd43 2.223 1_655 S
O42 C50 1.315 . S
Cd43 O42 2.223 1_455 S
Cd43 O46 2.297 1_455 S
Cd43 O47 2.439 1_455 S
Cd43 O53 2.240 1_545 S
Cd44 O45 2.240 1_565 S
Cd44 O52 2.223 1_655 S
Cd44 O54 2.297 1_655 S
Cd44 O55 2.439 1_655 S
O45 Cd44 2.240 1_545 S
O45 C50 1.279 . S
O46 Cd43 2.297 1_655 S
O46 C48 1.247 . S
O47 Cd43 2.439 1_655 S
O47 C48 1.208 . S
C48 O46 1.247 . S
C48 O47 1.208 . S
C49 O54 1.247 . S
C49 O55 1.208 . S
C50 O42 1.315 . S
C50 O45 1.279 . S
C51 O52 1.315 . S
C51 O53 1.279 . S
O52 Cd44 2.223 1_455 S
O52 C51 1.315 . S
O53 Cd43 2.240 1_565 S
O53 C51 1.279 . S
O54 Cd44 2.297 1_455 S
O54 C49 1.247 . S
O55 Cd44 2.439 1_455 S
O55 C49 1.208 . S
H56 C57 0.950 1_565 S
C57 H56 0.950 1_545 S
C57 C63 1.266 . S
H58 C63 0.950 . S
H59 C67 0.949 . S
H60 C68 0.950 . S
H61 C69 0.951 . S
H62 C70 0.951 . S
C63 C57 1.266 . S
C63 H58 0.950 . S
C63 C64 1.478 . S
C64 C63 1.478 . S
C64 C65 1.397 . S
C64 C81 1.394 1_545 S
C65 C64 1.397 . S
C65 C66 1.438 . S
C65 C70 1.429 . S
C66 C65 1.438 . S
C66 C67 1.428 . S
C66 C79 1.394 . S
C67 H59 0.949 . S
C67 C66 1.428 . S
C67 C68 1.345 . S
C68 H60 0.950 . S
C68 C67 1.345 . S
C68 C69 1.424 . S
C69 H61 0.951 . S
C69 C68 1.424 . S
C69 C70 1.347 . S
C70 H62 0.951 . S
C70 C65 1.429 . S
C70 C69 1.347 . S
H71 C72 0.951 . S
C72 H71 0.951 . S
C72 C78 1.265 . S
H73 C78 0.950 1_565 S
H74 C82 0.949 . S
H75 C83 0.950 . S
H76 C84 0.951 . S
H77 C85 0.951 . S
C78 C72 1.265 . S
C78 H73 0.950 1_545 S
C78 C79 1.478 . S
C79 C66 1.394 . S
C79 C78 1.478 . S
C79 C80 1.397 1_545 S
C80 C79 1.397 1_565 S
C80 C81 1.438 . S
C80 C85 1.429 . S
C81 C64 1.394 1_565 S
C81 C80 1.438 . S
C81 C82 1.428 . S
C82 H74 0.949 . S
C82 C81 1.428 . S
C82 C83 1.345 . S
C83 H75 0.950 . S
C83 C82 1.345 . S
C83 C84 1.424 . S
C84 H76 0.951 . S
C84 C83 1.424 . S
C84 C85 1.347 . S
C85 H77 0.951 . S
C85 C80 1.429 . S
C85 C84 1.347 . S
H86 C87 0.951 . S
C87 H86 0.951 . S
C87 C93 1.265 1_655 S
H88 C93 0.950 . S
H89 C97 0.949 . S
H90 C98 0.950 . S
H91 C99 0.951 . S
H92 C100 0.951 . S
C93 C87 1.265 1_455 S
C93 H88 0.950 . S
C93 C94 1.478 1_455 S
C94 C93 1.478 1_655 S
C94 C95 1.397 . S
C94 C111 1.394 . S
C95 C94 1.397 . S
C95 C96 1.438 . S
C95 C100 1.429 . S
C96 C95 1.438 . S
C96 C97 1.428 . S
C96 C109 1.394 . S
C97 H89 0.949 . S
C97 C96 1.428 . S
C97 C98 1.345 . S
C98 H90 0.950 . S
C98 C97 1.345 . S
C98 C99 1.424 . S
C99 H91 0.951 . S
C99 C98 1.424 . S
C99 C100 1.347 . S
C100 H92 0.951 . S
C100 C95 1.429 . S
C100 C99 1.347 . S
H101 C102 0.951 1_455 S
C102 H101 0.951 1_655 S
C102 C108 1.265 . S
H103 C108 0.950 . S
H104 C112 0.949 . S
H105 C113 0.948 1_455 S
H106 C114 0.951 . S
H107 C115 0.951 . S
C108 C102 1.265 . S
C108 H103 0.950 . S
C108 C109 1.478 . S
C109 C96 1.394 . S
C109 C108 1.478 . S
C109 C110 1.397 . S
C110 C109 1.397 . S
C110 C111 1.438 . S
C110 C115 1.429 . S
C111 C94 1.394 . S
C111 C110 1.438 . S
C111 C112 1.428 1_655 S
C112 H104 0.949 . S
C112 C111 1.428 1_455 S
C112 C113 1.344 1_455 S
C113 H105 0.948 1_655 S
C113 C112 1.344 1_655 S
C113 C114 1.427 . S
C114 H106 0.951 . S
C114 C113 1.427 . S
C114 C115 1.347 . S
C115 H107 0.951 . S
C115 C110 1.429 . S
C115 C114 1.347 . S
H116 C117 0.951 1_545 S
C117 H116 0.951 1_565 S
C117 C123 1.265 . S
H118 C123 0.950 . S
H119 C127 0.949 . S
H120 C128 0.950 . S
H121 C129 0.951 . S
H122 C130 0.951 . S
C123 C117 1.265 . S
C123 H118 0.950 . S
C123 C124 1.478 . S
C124 C123 1.478 . S
C124 C125 1.397 . S
C124 C141 1.394 1_565 S
C125 C124 1.397 . S
C125 C126 1.438 . S
C125 C130 1.429 . S
C126 C125 1.438 . S
C126 C127 1.428 . S
C126 C139 1.394 . S
C127 H119 0.949 . S
C127 C126 1.428 . S
C127 C128 1.345 . S
C128 H120 0.950 . S
C128 C127 1.345 . S
C128 C129 1.424 . S
C129 H121 0.951 . S
C129 C128 1.424 . S
C129 C130 1.347 . S
C130 H122 0.951 . S
C130 C125 1.429 . S
C130 C129 1.347 . S
H131 C132 0.951 . S
C132 H131 0.951 . S
C132 C138 1.265 . S
H133 C138 0.950 . S
H134 C142 0.949 . S
H135 C143 0.950 . S
H136 C144 0.951 . S
H137 C145 0.951 . S
C138 C132 1.265 . S
C138 H133 0.950 . S
C138 C139 1.478 . S
C139 C126 1.394 . S
C139 C138 1.478 . S
C139 C140 1.397 1_565 S
C140 C139 1.397 1_545 S
C140 C141 1.438 . S
C140 C145 1.429 . S
C141 C124 1.394 1_545 S
C141 C140 1.438 . S
C141 C142 1.428 . S
C142 H134 0.949 . S
C142 C141 1.428 . S
C142 C143 1.345 . S
C143 H135 0.950 . S
C143 C142 1.345 . S
C143 C144 1.424 . S
C144 H136 0.951 . S
C144 C143 1.424 . S
C144 C145 1.347 . S
C145 H137 0.951 . S
C145 C140 1.429 . S
C145 C144 1.347 . S
H146 C147 0.951 . S
C147 H146 0.951 . S
C147 C153 1.265 1_455 S
H148 C153 0.950 . S
H149 C157 0.949 . S
H150 C158 0.950 . S
H151 C159 0.951 . S
H152 C160 0.951 . S
C153 C147 1.265 1_655 S
C153 H148 0.950 . S
C153 C154 1.478 1_655 S
C154 C153 1.478 1_455 S
C154 C155 1.397 1_455 S
C154 C171 1.394 . S
C155 C154 1.397 1_655 S
C155 C156 1.438 1_655 S
C155 C160 1.429 . S
C156 C155 1.438 1_455 S
C156 C157 1.428 . S
C156 C169 1.394 . S
C157 H149 0.949 . S
C157 C156 1.428 . S
C157 C158 1.345 1_455 S
C158 H150 0.950 . S
C158 C157 1.345 1_655 S
C158 C159 1.424 . S
C159 H151 0.951 . S
C159 C158 1.424 . S
C159 C160 1.347 . S
C160 H152 0.951 . S
C160 C155 1.429 . S
C160 C159 1.347 . S
H161 C162 0.951 1_655 S
C162 H161 0.951 1_455 S
C162 C168 1.265 . S
H163 C168 0.950 . S
H164 C172 0.949 . S
H165 C173 0.950 . S
H166 C174 0.951 . S
H167 C175 0.951 . S
C168 C162 1.265 . S
C168 H163 0.950 . S
C168 C169 1.478 . S
C169 C156 1.394 . S
C169 C168 1.478 . S
C169 C170 1.397 . S
C170 C169 1.397 . S
C170 C171 1.438 . S
C170 C175 1.429 . S
C171 C154 1.394 . S
C171 C170 1.438 . S
C171 C172 1.428 . S
C172 H164 0.949 . S
C172 C171 1.428 . S
C172 C173 1.345 . S
C173 H165 0.950 . S
C173 C172 1.345 . S
C173 C174 1.424 . S
C174 H166 0.951 . S
C174 C173 1.424 . S
C174 C175 1.347 . S
C175 H167 0.951 . S
C175 C170 1.429 . S
C175 C174 1.347 . S
H176 C177 0.951 . S
C177 H176 0.951 . S
C177 C183 1.265 1_545 S
H178 C183 0.950 . S
H179 C187 0.949 . S
H180 C188 0.950 . S
H181 C189 0.951 . S
H182 C190 0.951 . S
C183 C177 1.265 1_565 S
C183 H178 0.950 . S
C183 C184 1.478 . S
C184 C183 1.478 . S
C184 C185 1.397 . S
C184 C201 1.394 1_565 S
C185 C184 1.397 . S
C185 C186 1.438 . S
C185 C190 1.429 . S
C186 C185 1.438 . S
C186 C187 1.428 . S
C186 C199 1.394 . S
C187 H179 0.949 . S
C187 C186 1.428 . S
C187 C188 1.345 . S
C188 H180 0.950 . S
C188 C187 1.345 . S
C188 C189 1.424 . S
C189 H181 0.951 . S
C189 C188 1.424 . S
C189 C190 1.347 . S
C190 H182 0.951 . S
C190 C185 1.429 . S
C190 C189 1.347 . S
H191 C192 0.951 . S
C192 H191 0.951 . S
C192 C198 1.265 . S
H193 C198 0.950 1_545 S
H194 C202 0.949 . S
H195 C203 0.950 . S
H196 C204 0.951 . S
H197 C205 0.951 . S
C198 C192 1.265 . S
C198 H193 0.950 1_565 S
C198 C199 1.478 . S
C199 C186 1.394 . S
C199 C198 1.478 . S
C199 C200 1.397 1_565 S
C200 C199 1.397 1_545 S
C200 C201 1.438 . S
C200 C205 1.429 . S
C201 C184 1.394 1_545 S
C201 C200 1.438 . S
C201 C202 1.428 . S
C202 H194 0.949 . S
C202 C201 1.428 . S
C202 C203 1.345 . S
C203 H195 0.950 . S
C203 C202 1.345 . S
C203 C204 1.424 . S
C204 H196 0.951 . S
C204 C203 1.424 . S
C204 C205 1.347 . S
C205 H197 0.951 . S
C205 C200 1.429 . S
C205 C204 1.347 . S
H206 C207 0.951 . S
C207 H206 0.951 . S
C207 C213 1.265 1_655 S
H208 C213 0.950 . S
H209 C217 0.949 . S
H210 C218 0.950 . S
H211 C219 0.951 . S
H212 C220 0.951 . S
C213 C207 1.265 1_455 S
C213 H208 0.950 . S
C213 C214 1.478 . S
C214 C213 1.478 . S
C214 C215 1.397 . S
C214 C231 1.394 1_455 S
C215 C214 1.397 . S
C215 C216 1.438 . S
C215 C220 1.429 . S
C216 C215 1.438 . S
C216 C217 1.428 . S
C216 C229 1.394 . S
C217 H209 0.949 . S
C217 C216 1.428 . S
C217 C218 1.345 . S
C218 H210 0.950 . S
C218 C217 1.345 . S
C218 C219 1.424 . S
C219 H211 0.951 . S
C219 C218 1.424 . S
C219 C220 1.347 . S
C220 H212 0.951 . S
C220 C215 1.429 . S
C220 C219 1.347 . S
H221 C222 0.951 . S
C222 H221 0.951 . S
C222 C228 1.265 . S
H223 C228 0.950 1_655 S
H224 C232 0.949 . S
H225 C233 0.950 . S
H226 C234 0.951 . S
H227 C235 0.951 . S
C228 C222 1.265 . S
C228 H223 0.950 1_455 S
C228 C229 1.478 . S
C229 C216 1.394 . S
C229 C228 1.478 . S
C229 C230 1.397 1_455 S
C230 C229 1.397 1_655 S
C230 C231 1.438 . S
C230 C235 1.429 . S
C231 C214 1.394 1_655 S
C231 C230 1.438 . S
C231 C232 1.428 . S
C232 H224 0.949 . S
C232 C231 1.428 . S
C232 C233 1.345 . S
C233 H225 0.950 . S
C233 C232 1.345 . S
C233 C234 1.424 . S
C234 H226 0.951 . S
C234 C233 1.424 . S
C234 C235 1.347 . S
C235 H227 0.951 . S
C235 C230 1.429 . S
C235 C234 1.347 . S
H236 C237 0.951 . S
C237 H236 0.951 . S
C237 C243 1.266 . S
H238 C243 0.947 1_565 S
H239 C247 0.949 . S
H240 C248 0.950 . S
H241 C249 0.951 . S
H242 C250 0.951 . S
C243 C237 1.266 . S
C243 H238 0.947 1_545 S
C243 C244 1.480 . S
C244 C243 1.480 . S
C244 C245 1.397 1_545 S
C244 C261 1.394 . S
C245 C244 1.397 1_565 S
C245 C246 1.438 . S
C245 C250 1.429 . S
C246 C245 1.438 . S
C246 C247 1.428 . S
C246 C259 1.394 1_565 S
C247 H239 0.949 . S
C247 C246 1.428 . S
C247 C248 1.345 . S
C248 H240 0.950 . S
C248 C247 1.345 . S
C248 C249 1.424 . S
C249 H241 0.951 . S
C249 C248 1.424 . S
C249 C250 1.347 . S
C250 H242 0.951 . S
C250 C245 1.429 . S
C250 C249 1.347 . S
H251 C252 0.951 . S
C252 H251 0.951 . S
C252 C258 1.265 . S
H253 C258 0.950 . S
H254 C262 0.949 . S
H255 C263 0.950 . S
H256 C264 0.951 . S
H257 C265 0.951 . S
C258 C252 1.265 . S
C258 H253 0.950 . S
C258 C259 1.478 . S
C259 C246 1.394 1_545 S
C259 C258 1.478 . S
C259 C260 1.397 . S
C260 C259 1.397 . S
C260 C261 1.438 . S
C260 C265 1.429 . S
C261 C244 1.394 . S
C261 C260 1.438 . S
C261 C262 1.428 . S
C262 H254 0.949 . S
C262 C261 1.428 . S
C262 C263 1.345 . S
C263 H255 0.950 . S
C263 C262 1.345 . S
C263 C264 1.424 . S
C264 H256 0.951 . S
C264 C263 1.424 . S
C264 C265 1.347 . S
C265 H257 0.951 . S
C265 C260 1.429 . S
C265 C264 1.347 . S
H266 C267 0.951 . S
C267 H266 0.951 . S
C267 C273 1.265 1_655 S
H268 C273 0.950 . S
H269 C277 0.949 1_655 S
H270 C278 0.950 . S
H271 C279 0.951 . S
H272 C280 0.951 . S
C273 C267 1.265 1_455 S
C273 H268 0.950 . S
C273 C274 1.472 1_455 S
C274 C273 1.472 1_655 S
C274 C275 1.392 1_655 S
C274 C291 1.404 . S
C275 C274 1.392 1_455 S
C275 C276 1.438 1_455 S
C275 C280 1.429 . S
C276 C275 1.438 1_655 S
C276 C277 1.428 1_655 S
C276 C289 1.394 . S
C277 H269 0.949 1_455 S
C277 C276 1.428 1_455 S
C277 C278 1.345 . S
C278 H270 0.950 . S
C278 C277 1.345 . S
C278 C279 1.424 . S
C279 H271 0.951 . S
C279 C278 1.424 . S
C279 C280 1.347 . S
C280 H272 0.951 . S
C280 C275 1.429 . S
C280 C279 1.347 . S
H281 C282 0.951 1_455 S
C282 H281 0.951 1_655 S
C282 C288 1.265 . S
H283 C288 0.950 . S
H284 C292 0.949 . S
H285 C293 0.950 . S
H286 C294 0.951 . S
H287 C295 0.951 . S
C288 C282 1.265 . S
C288 H283 0.950 . S
C288 C289 1.478 . S
C289 C276 1.394 . S
C289 C288 1.478 . S
C289 C290 1.397 . S
C290 C289 1.397 . S
C290 C291 1.438 . S
C290 C295 1.429 . S
C291 C274 1.404 . S
C291 C290 1.438 . S
C291 C292 1.428 . S
C292 H284 0.949 . S
C292 C291 1.428 . S
C292 C293 1.345 . S
C293 H285 0.950 . S
C293 C292 1.345 . S
C293 C294 1.424 . S
C294 H286 0.951 . S
C294 C293 1.424 . S
C294 C295 1.347 . S
C295 H287 0.951 . S
C295 C290 1.429 . S
C295 C294 1.347 . S
C72 C37 1.537 . S
C57 C13 1.546 1_545 S
C102 C48 1.448 . S
C87 C15 1.547 1_655 S
C132 C36 1.538 . S
C117 C1 1.548 1_565 S
C162 C49 1.452 . S
C147 C27 1.545 1_455 S
C192 C51 1.537 . S
C177 C0 1.550 1_545 S
C222 C35 1.519 . S
C207 C26 1.563 1_655 S
C252 C50 1.546 . S
C237 C12 1.535 . S
C267 C14 1.543 . S
C282 C34 1.456 . S
