# Generated by pormake.
# Topology iac, (4,6)-cn, num edge types: 1
# Building blocks:
#     Node 0, Type 0, BuildingBlock: QUQFOY_clean_sbu_3, # of connection points: 4
#     Node 1, Type 0, BuildingBlock: QUQFOY_clean_sbu_3, # of connection points: 4
#     Node 2, Type 0, BuildingBlock: QUQFOY_clean_sbu_3, # of connection points: 4
#     Node 3, Type 0, BuildingBlock: QUQFOY_clean_sbu_3, # of connection points: 4
#     Node 4, Type 0, BuildingBlock: QUQFOY_clean_sbu_3, # of connection points: 4
#     Node 5, Type 0, BuildingBlock: QUQFOY_clean_sbu_3, # of connection points: 4
#     Node 6, Type 0, BuildingBlock: QUQFOY_clean_sbu_3, # of connection points: 4
#     Node 7, Type 0, BuildingBlock: QUQFOY_clean_sbu_3, # of connection points: 4
#     Node 8, Type 0, BuildingBlock: QUQFOY_clean_sbu_3, # of connection points: 4
#     Node 9, Type 0, BuildingBlock: QUQFOY_clean_sbu_3, # of connection points: 4
#     Node 10, Type 0, BuildingBlock: QUQFOY_clean_sbu_3, # of connection points: 4
#     Node 11, Type 0, BuildingBlock: QUQFOY_clean_sbu_3, # of connection points: 4
#     Node 12, Type 0, BuildingBlock: QUQFOY_clean_sbu_3, # of connection points: 4
#     Node 13, Type 0, BuildingBlock: QUQFOY_clean_sbu_3, # of connection points: 4
#     Node 14, Type 0, BuildingBlock: QUQFOY_clean_sbu_3, # of connection points: 4
#     Node 15, Type 0, BuildingBlock: QUQFOY_clean_sbu_3, # of connection points: 4
#     Node 16, Type 0, BuildingBlock: QUQFOY_clean_sbu_3, # of connection points: 4
#     Node 17, Type 0, BuildingBlock: QUQFOY_clean_sbu_3, # of connection points: 4
#     Node 18, Type 0, BuildingBlock: QUQFOY_clean_sbu_3, # of connection points: 4
#     Node 19, Type 0, BuildingBlock: QUQFOY_clean_sbu_3, # of connection points: 4
#     Node 20, Type 0, BuildingBlock: QUQFOY_clean_sbu_3, # of connection points: 4
#     Node 21, Type 0, BuildingBlock: QUQFOY_clean_sbu_3, # of connection points: 4
#     Node 22, Type 0, BuildingBlock: QUQFOY_clean_sbu_3, # of connection points: 4
#     Node 23, Type 0, BuildingBlock: QUQFOY_clean_sbu_3, # of connection points: 4
#     Node 24, Type 1, BuildingBlock: VOLQOD_clean_sbu_1, # of connection points: 6
#     Node 25, Type 1, BuildingBlock: VOLQOD_clean_sbu_1, # of connection points: 6
#     Node 26, Type 1, BuildingBlock: VOLQOD_clean_sbu_1, # of connection points: 6
#     Node 27, Type 1, BuildingBlock: VOLQOD_clean_sbu_1, # of connection points: 6
#     Node 28, Type 1, BuildingBlock: VOLQOD_clean_sbu_1, # of connection points: 6
#     Node 29, Type 1, BuildingBlock: VOLQOD_clean_sbu_1, # of connection points: 6
#     Node 30, Type 1, BuildingBlock: VOLQOD_clean_sbu_1, # of connection points: 6
#     Node 31, Type 1, BuildingBlock: VOLQOD_clean_sbu_1, # of connection points: 6
#     Node 32, Type 1, BuildingBlock: VOLQOD_clean_sbu_1, # of connection points: 6
#     Node 33, Type 1, BuildingBlock: VOLQOD_clean_sbu_1, # of connection points: 6
#     Node 34, Type 1, BuildingBlock: VOLQOD_clean_sbu_1, # of connection points: 6
#     Node 35, Type 1, BuildingBlock: VOLQOD_clean_sbu_1, # of connection points: 6
#     Node 36, Type 1, BuildingBlock: VOLQOD_clean_sbu_1, # of connection points: 6
#     Node 37, Type 1, BuildingBlock: VOLQOD_clean_sbu_1, # of connection points: 6
#     Node 38, Type 1, BuildingBlock: VOLQOD_clean_sbu_1, # of connection points: 6
#     Node 39, Type 1, BuildingBlock: VOLQOD_clean_sbu_1, # of connection points: 6
#     Edge 40, Type (0, 1), BuildingBlock: KIFKEQ_clean_linker_1, # of connection points: 2
#     Edge 41, Type (0, 1), BuildingBlock: KIFKEQ_clean_linker_1, # of connection points: 2
#     Edge 42, Type (0, 1), BuildingBlock: KIFKEQ_clean_linker_1, # of connection points: 2
#     Edge 43, Type (0, 1), BuildingBlock: KIFKEQ_clean_linker_1, # of connection points: 2
#     Edge 44, Type (0, 1), BuildingBlock: KIFKEQ_clean_linker_1, # of connection points: 2
#     Edge 45, Type (0, 1), BuildingBlock: KIFKEQ_clean_linker_1, # of connection points: 2
#     Edge 46, Type (0, 1), BuildingBlock: KIFKEQ_clean_linker_1, # of connection points: 2
#     Edge 47, Type (0, 1), BuildingBlock: KIFKEQ_clean_linker_1, # of connection points: 2
#     Edge 48, Type (0, 1), BuildingBlock: KIFKEQ_clean_linker_1, # of connection points: 2
#     Edge 49, Type (0, 1), BuildingBlock: KIFKEQ_clean_linker_1, # of connection points: 2
#     Edge 50, Type (0, 1), BuildingBlock: KIFKEQ_clean_linker_1, # of connection points: 2
#     Edge 51, Type (0, 1), BuildingBlock: KIFKEQ_clean_linker_1, # of connection points: 2
#     Edge 52, Type (0, 1), BuildingBlock: KIFKEQ_clean_linker_1, # of connection points: 2
#     Edge 53, Type (0, 1), BuildingBlock: KIFKEQ_clean_linker_1, # of connection points: 2
#     Edge 54, Type (0, 1), BuildingBlock: KIFKEQ_clean_linker_1, # of connection points: 2
#     Edge 55, Type (0, 1), BuildingBlock: KIFKEQ_clean_linker_1, # of connection points: 2
#     Edge 56, Type (0, 1), BuildingBlock: KIFKEQ_clean_linker_1, # of connection points: 2
#     Edge 57, Type (0, 1), BuildingBlock: KIFKEQ_clean_linker_1, # of connection points: 2
#     Edge 58, Type (0, 1), BuildingBlock: KIFKEQ_clean_linker_1, # of connection points: 2
#     Edge 59, Type (0, 1), BuildingBlock: KIFKEQ_clean_linker_1, # of connection points: 2
#     Edge 60, Type (0, 1), BuildingBlock: KIFKEQ_clean_linker_1, # of connection points: 2
#     Edge 61, Type (0, 1), BuildingBlock: KIFKEQ_clean_linker_1, # of connection points: 2
#     Edge 62, Type (0, 1), BuildingBlock: KIFKEQ_clean_linker_1, # of connection points: 2
#     Edge 63, Type (0, 1), BuildingBlock: KIFKEQ_clean_linker_1, # of connection points: 2
#     Edge 64, Type (0, 1), BuildingBlock: KIFKEQ_clean_linker_1, # of connection points: 2
#     Edge 65, Type (0, 1), BuildingBlock: KIFKEQ_clean_linker_1, # of connection points: 2
#     Edge 66, Type (0, 1), BuildingBlock: KIFKEQ_clean_linker_1, # of connection points: 2
#     Edge 67, Type (0, 1), BuildingBlock: KIFKEQ_clean_linker_1, # of connection points: 2
#     Edge 68, Type (0, 1), BuildingBlock: KIFKEQ_clean_linker_1, # of connection points: 2
#     Edge 69, Type (0, 1), BuildingBlock: KIFKEQ_clean_linker_1, # of connection points: 2
#     Edge 70, Type (0, 1), BuildingBlock: KIFKEQ_clean_linker_1, # of connection points: 2
#     Edge 71, Type (0, 1), BuildingBlock: KIFKEQ_clean_linker_1, # of connection points: 2
#     Edge 72, Type (0, 1), BuildingBlock: KIFKEQ_clean_linker_1, # of connection points: 2
#     Edge 73, Type (0, 1), BuildingBlock: KIFKEQ_clean_linker_1, # of connection points: 2
#     Edge 74, Type (0, 1), BuildingBlock: KIFKEQ_clean_linker_1, # of connection points: 2
#     Edge 75, Type (0, 1), BuildingBlock: KIFKEQ_clean_linker_1, # of connection points: 2
#     Edge 76, Type (0, 1), BuildingBlock: KIFKEQ_clean_linker_1, # of connection points: 2
#     Edge 77, Type (0, 1), BuildingBlock: KIFKEQ_clean_linker_1, # of connection points: 2
#     Edge 78, Type (0, 1), BuildingBlock: KIFKEQ_clean_linker_1, # of connection points: 2
#     Edge 79, Type (0, 1), BuildingBlock: KIFKEQ_clean_linker_1, # of connection points: 2
#     Edge 80, Type (0, 1), BuildingBlock: KIFKEQ_clean_linker_1, # of connection points: 2
#     Edge 81, Type (0, 1), BuildingBlock: KIFKEQ_clean_linker_1, # of connection points: 2
#     Edge 82, Type (0, 1), BuildingBlock: KIFKEQ_clean_linker_1, # of connection points: 2
#     Edge 83, Type (0, 1), BuildingBlock: KIFKEQ_clean_linker_1, # of connection points: 2
#     Edge 84, Type (0, 1), BuildingBlock: KIFKEQ_clean_linker_1, # of connection points: 2
#     Edge 85, Type (0, 1), BuildingBlock: KIFKEQ_clean_linker_1, # of connection points: 2
#     Edge 86, Type (0, 1), BuildingBlock: KIFKEQ_clean_linker_1, # of connection points: 2
#     Edge 87, Type (0, 1), BuildingBlock: KIFKEQ_clean_linker_1, # of connection points: 2
#     Edge 88, Type (0, 1), BuildingBlock: KIFKEQ_clean_linker_1, # of connection points: 2
#     Edge 89, Type (0, 1), BuildingBlock: KIFKEQ_clean_linker_1, # of connection points: 2
#     Edge 90, Type (0, 1), BuildingBlock: KIFKEQ_clean_linker_1, # of connection points: 2
#     Edge 91, Type (0, 1), BuildingBlock: KIFKEQ_clean_linker_1, # of connection points: 2
#     Edge 92, Type (0, 1), BuildingBlock: KIFKEQ_clean_linker_1, # of connection points: 2
#     Edge 93, Type (0, 1), BuildingBlock: KIFKEQ_clean_linker_1, # of connection points: 2
#     Edge 94, Type (0, 1), BuildingBlock: KIFKEQ_clean_linker_1, # of connection points: 2
#     Edge 95, Type (0, 1), BuildingBlock: KIFKEQ_clean_linker_1, # of connection points: 2
#     Edge 96, Type (0, 1), BuildingBlock: KIFKEQ_clean_linker_1, # of connection points: 2
#     Edge 97, Type (0, 1), BuildingBlock: KIFKEQ_clean_linker_1, # of connection points: 2
#     Edge 98, Type (0, 1), BuildingBlock: KIFKEQ_clean_linker_1, # of connection points: 2
#     Edge 99, Type (0, 1), BuildingBlock: KIFKEQ_clean_linker_1, # of connection points: 2
#     Edge 100, Type (0, 1), BuildingBlock: KIFKEQ_clean_linker_1, # of connection points: 2
#     Edge 101, Type (0, 1), BuildingBlock: KIFKEQ_clean_linker_1, # of connection points: 2
#     Edge 102, Type (0, 1), BuildingBlock: KIFKEQ_clean_linker_1, # of connection points: 2
#     Edge 103, Type (0, 1), BuildingBlock: KIFKEQ_clean_linker_1, # of connection points: 2
#     Edge 104, Type (0, 1), BuildingBlock: KIFKEQ_clean_linker_1, # of connection points: 2
#     Edge 105, Type (0, 1), BuildingBlock: KIFKEQ_clean_linker_1, # of connection points: 2
#     Edge 106, Type (0, 1), BuildingBlock: KIFKEQ_clean_linker_1, # of connection points: 2
#     Edge 107, Type (0, 1), BuildingBlock: KIFKEQ_clean_linker_1, # of connection points: 2
#     Edge 108, Type (0, 1), BuildingBlock: KIFKEQ_clean_linker_1, # of connection points: 2
#     Edge 109, Type (0, 1), BuildingBlock: KIFKEQ_clean_linker_1, # of connection points: 2
#     Edge 110, Type (0, 1), BuildingBlock: KIFKEQ_clean_linker_1, # of connection points: 2
#     Edge 111, Type (0, 1), BuildingBlock: KIFKEQ_clean_linker_1, # of connection points: 2
#     Edge 112, Type (0, 1), BuildingBlock: KIFKEQ_clean_linker_1, # of connection points: 2
#     Edge 113, Type (0, 1), BuildingBlock: KIFKEQ_clean_linker_1, # of connection points: 2
#     Edge 114, Type (0, 1), BuildingBlock: KIFKEQ_clean_linker_1, # of connection points: 2
#     Edge 115, Type (0, 1), BuildingBlock: KIFKEQ_clean_linker_1, # of connection points: 2
#     Edge 116, Type (0, 1), BuildingBlock: KIFKEQ_clean_linker_1, # of connection points: 2
#     Edge 117, Type (0, 1), BuildingBlock: KIFKEQ_clean_linker_1, # of connection points: 2
#     Edge 118, Type (0, 1), BuildingBlock: KIFKEQ_clean_linker_1, # of connection points: 2
#     Edge 119, Type (0, 1), BuildingBlock: KIFKEQ_clean_linker_1, # of connection points: 2
#     Edge 120, Type (0, 1), BuildingBlock: KIFKEQ_clean_linker_1, # of connection points: 2
#     Edge 121, Type (0, 1), BuildingBlock: KIFKEQ_clean_linker_1, # of connection points: 2
#     Edge 122, Type (0, 1), BuildingBlock: KIFKEQ_clean_linker_1, # of connection points: 2
#     Edge 123, Type (0, 1), BuildingBlock: KIFKEQ_clean_linker_1, # of connection points: 2
#     Edge 124, Type (0, 1), BuildingBlock: KIFKEQ_clean_linker_1, # of connection points: 2
#     Edge 125, Type (0, 1), BuildingBlock: KIFKEQ_clean_linker_1, # of connection points: 2
#     Edge 126, Type (0, 1), BuildingBlock: KIFKEQ_clean_linker_1, # of connection points: 2
#     Edge 127, Type (0, 1), BuildingBlock: KIFKEQ_clean_linker_1, # of connection points: 2
#     Edge 128, Type (0, 1), BuildingBlock: KIFKEQ_clean_linker_1, # of connection points: 2
#     Edge 129, Type (0, 1), BuildingBlock: KIFKEQ_clean_linker_1, # of connection points: 2
#     Edge 130, Type (0, 1), BuildingBlock: KIFKEQ_clean_linker_1, # of connection points: 2
#     Edge 131, Type (0, 1), BuildingBlock: KIFKEQ_clean_linker_1, # of connection points: 2
#     Edge 132, Type (0, 1), BuildingBlock: KIFKEQ_clean_linker_1, # of connection points: 2
#     Edge 133, Type (0, 1), BuildingBlock: KIFKEQ_clean_linker_1, # of connection points: 2
#     Edge 134, Type (0, 1), BuildingBlock: KIFKEQ_clean_linker_1, # of connection points: 2
#     Edge 135, Type (0, 1), BuildingBlock: KIFKEQ_clean_linker_1, # of connection points: 2
# Relax obj value: 0.303
# Max RMSD: 0.292
# Mean RMSD: 0.139
data_MOF--net-iac--node1-QUQFOY_clean_sbu_3--node2-VOLQOD_clean_sbu_1--edge1-KIFKEQ_clean_linker_1
_symmetry_space_group_name_H-M    P1
_symmetry_Int_Tables_number       1
_symmetry_cell_setting            triclinic
loop_
_symmetry_equiv_pos_as_xyz
'x, y, z'
_cell_length_a     56.029218
_cell_length_b     57.095452
_cell_length_c     56.50013
_cell_angle_alpha  91.17093
_cell_angle_beta   90.130427
_cell_angle_gamma 90.733951
loop_
_atom_site_label
_atom_site_type_symbol
_atom_site_fract_x
_atom_site_fract_y
_atom_site_fract_z
_atom_type_partial_charge
C0 C 0.97104 0.22275 0.16698 0.0
O1 O 0.98533 0.20874 0.17666 0.0
Cd2 Cd 0.02525 0.20285 0.16428 0.0
O3 O 0.97769 0.23524 0.14966 0.0
Cd4 Cd 0.01459 0.24079 0.12602 0.0
C5 C 0.00991 0.18376 0.10854 0.0
O6 O 0.03976 0.24224 0.16072 0.0
O7 O 0.05867 0.24182 0.12754 0.0
O8 O 0.00302 0.28148 0.12213 0.0
C9 C 0.05927 0.24476 0.14984 0.0
O10 O 0.01836 0.17876 0.12872 0.0
C11 C 0.00843 0.28266 0.10036 0.0
O12 O 0.00636 0.20496 0.10322 0.0
O13 O 0.01583 0.26404 0.09033 0.0
C14 C 0.98857 0.74959 0.36497 0.0
O15 O 0.00486 0.75722 0.35146 0.0
Cd16 Cd 0.04568 0.75595 0.36051 0.0
O17 O -0.00654 0.73968 0.38447 0.0
Cd18 Cd 0.03003 0.7274 0.40659 0.0
C19 C 0.04255 0.78474 0.41505 0.0
O20 O 0.04573 0.71564 0.36967 0.0
O21 O 0.07218 0.71559 0.39696 0.0
O22 O 0.00486 0.69438 0.417 0.0
C23 C 0.06639 0.71001 0.37586 0.0
O24 O 0.04859 0.78444 0.39333 0.0
C25 C 0.01685 0.68889 0.43509 0.0
O26 O 0.03464 0.76627 0.42474 0.0
O27 O 0.03396 0.70253 0.44116 0.0
C28 C 0.44668 0.75552 0.65632 0.0
O29 O 0.46308 0.74827 0.66973 0.0
Cd30 Cd 0.50245 0.74393 0.65593 0.0
O31 O 0.45146 0.76422 0.6362 0.0
Cd32 Cd 0.48806 0.77556 0.61366 0.0
C33 C 0.48839 0.71836 0.60134 0.0
O34 O 0.51385 0.78292 0.64684 0.0
O35 O 0.53214 0.77536 0.61413 0.0
O36 O 0.47516 0.81556 0.60854 0.0
C37 C 0.53317 0.7829 0.63539 0.0
O38 O 0.4962 0.71632 0.6224 0.0
C39 C 0.48103 0.81643 0.58687 0.0
O40 O 0.48372 0.73839 0.59326 0.0
O41 O 0.48827 0.79757 0.57716 0.0
C42 C 0.48856 0.26795 0.86117 0.0
O43 O 0.5057 0.27553 0.84865 0.0
Cd44 Cd 0.54638 0.26877 0.85771 0.0
O45 O 0.49255 0.2565 0.87991 0.0
Cd46 Cd 0.52696 0.24211 0.90293 0.0
C47 C 0.54751 0.29768 0.91135 0.0
O48 O 0.54331 0.22805 0.86677 0.0
O49 O 0.56677 0.22374 0.89636 0.0
O50 O 0.49891 0.21166 0.91359 0.0
C51 C 0.56221 0.21942 0.8747 0.0
O52 O 0.55437 0.29698 0.88991 0.0
C53 C 0.50687 0.20933 0.93444 0.0
O54 O 0.53648 0.28032 0.92014 0.0
O55 O 0.52384 0.22293 0.94099 0.0
C56 C 0.11181 0.05846 0.27867 0.0
O57 O 0.10311 0.07431 0.26592 0.0
Cd58 Cd 0.1055 0.07377 0.22377 0.0
O59 O 0.12388 0.04194 0.26926 0.0
Cd60 Cd 0.13636 0.03221 0.22804 0.0
C61 C 0.16419 0.0829 0.21563 0.0
O62 O 0.09558 0.03392 0.21285 0.0
O63 O 0.12304 0.02926 0.18667 0.0
O64 O 0.13882 -0.00851 0.24044 0.0
C65 C 0.1011 0.02809 0.19191 0.0
O66 O 0.14351 0.09061 0.21123 0.0
C67 C 0.15692 0.98685 0.22778 0.0
O68 O 0.16661 0.06274 0.22433 0.0
O69 O 0.16621 0.00366 0.21658 0.0
C70 C 0.26972 0.92995 0.50361 0.0
O71 O 0.25219 0.94142 0.49582 0.0
Cd72 Cd 0.21102 0.93132 0.49877 0.0
O73 O 0.26664 0.91016 0.51334 0.0
Cd74 Cd 0.23141 0.88438 0.51989 0.0
C75 C 0.21391 0.88432 0.46193 0.0
O76 O 0.2088 0.91544 0.53769 0.0
O77 O 0.18908 0.88338 0.53158 0.0
O78 O 0.24896 0.86563 0.55399 0.0
C79 C 0.18991 0.9037 0.54099 0.0
O80 O 0.20468 0.90437 0.46518 0.0
C81 C 0.2437 0.84495 0.54678 0.0
O82 O 0.22535 0.87466 0.47846 0.0
O83 O 0.23452 0.84277 0.5263 0.0
C84 C 0.39371 0.94302 0.8006 0.0
O85 O 0.40591 0.92756 0.78986 0.0
Cd86 Cd 0.4009 0.92069 0.74832 0.0
O87 O 0.37836 0.95487 0.78952 0.0
Cd88 Cd 0.36237 0.95829 0.7492 0.0
C89 C 0.34257 0.90252 0.74787 0.0
O90 O 0.40186 0.95903 0.73129 0.0
O91 O 0.37194 0.95761 0.70712 0.0
O92 O 0.35984 -0.00097 0.76143 0.0
C93 C 0.39405 0.96148 0.71046 0.0
O94 O 0.36441 0.89742 0.74502 0.0
C95 C 0.34003 0.00285 0.75143 0.0
O96 O 0.33641 0.92372 0.75089 0.0
O97 O 0.3298 0.98548 0.74109 0.0
C98 C 0.24768 0.12184 0.06394 0.0
O99 O 0.23276 0.12214 0.08085 0.0
Cd100 Cd 0.19348 0.13841 0.07626 0.0
O101 O 0.24236 0.13044 0.044 0.0
Cd102 Cd 0.20897 0.15023 0.0251 0.0
C103 C 0.20604 0.1951 0.06512 0.0
O104 O 0.1798 0.12209 0.03883 0.0
O105 O 0.16591 0.15042 0.01826 0.0
O106 O 0.21815 0.13585 0.98477 0.0
C107 C 0.16244 0.13076 0.02778 0.0
O108 O 0.1968 0.18114 0.07988 0.0
C109 C 0.22221 0.15631 0.97717 0.0
O110 O 0.21272 0.18763 0.04498 0.0
O111 O 0.22055 0.17324 -0.0081 0.0
C112 C 0.76046 0.41023 0.01172 0.0
O113 O 0.74696 0.42605 0.00394 0.0
Cd114 Cd 0.70504 0.4297 0.00829 0.0
O115 O 0.75217 0.39308 0.02343 0.0
Cd116 Cd 0.71123 0.37951 0.03378 0.0
C117 C 0.69487 0.3805 0.97532 0.0
O118 O 0.69879 0.41727 0.04795 0.0
O119 O 0.67095 0.39113 0.04649 0.0
O120 O 0.72366 0.35942 0.0692 0.0
C121 C 0.67741 0.41178 0.05244 0.0
O122 O 0.6927 0.40264 0.97666 0.0
C123 C 0.71403 0.33995 0.06301 0.0
O124 O 0.70175 0.36901 -0.00694 0.0
O125 O 0.70415 0.33874 0.04279 0.0
C126 C 0.85778 0.43786 0.2726 0.0
O127 O 0.86329 0.42467 0.25514 0.0
Cd128 Cd 0.85183 0.4325 0.21555 0.0
O129 O 0.84444 0.45557 0.26974 0.0
Cd130 Cd 0.82308 0.47393 0.23641 0.0
C131 C 0.7923 0.42447 0.22185 0.0
O132 O 0.85972 0.47379 0.2148 0.0
O133 O 0.82954 0.48483 0.19443 0.0
O134 O 0.82619 0.51093 0.25883 0.0
C135 C 0.85202 0.48357 0.19656 0.0
O136 O 0.81104 0.41772 0.21122 0.0
C137 C 0.80603 0.51837 0.25221 0.0
O138 O 0.79236 0.44353 0.23384 0.0
O139 O 0.79333 0.50452 0.23948 0.0
C140 C 0.78069 0.58043 0.54696 0.0
O141 O 0.77038 0.57444 0.56593 0.0
Cd142 Cd 0.73674 0.59344 0.58255 0.0
O143 O 0.77332 0.59772 0.53516 0.0
Cd144 Cd 0.74068 0.62629 0.53803 0.0
C145 C 0.76028 0.6483 0.59083 0.0
O146 O 0.71201 0.59665 0.54829 0.0
O147 O 0.69827 0.63177 0.54816 0.0
O148 O 0.73603 0.62609 0.49503 0.0
C149 C 0.69414 0.60992 0.54913 0.0
O150 O 0.7525 0.62968 0.60028 0.0
C151 C 0.73906 0.64805 0.49321 0.0
O152 O 0.75866 0.65098 0.56864 0.0
O153 O 0.74348 0.6597 0.51211 0.0
C154 C 0.61088 0.54927 0.76662 0.0
O155 O 0.59919 0.56319 0.75388 0.0
Cd156 Cd 0.60109 0.56377 0.71187 0.0
O157 O 0.6253 0.53463 0.75732 0.0
Cd158 Cd 0.64028 0.52461 0.71712 0.0
C159 C 0.65948 0.58072 0.71052 0.0
O160 O 0.60029 0.52312 0.70165 0.0
O161 O 0.62775 0.51976 0.6752 0.0
O162 O 0.64214 0.48472 0.73021 0.0
C163 C 0.6058 0.51815 0.68051 0.0
O164 O 0.63791 0.58529 0.70552 0.0
C165 C 0.66267 0.4804 0.72191 0.0
O166 O 0.66532 0.56021 0.71658 0.0
O167 O 0.67377 0.49722 0.71225 0.0
C168 C 0.9572 0.78614 0.85997 0.0
O169 O 0.97336 0.79469 0.84681 0.0
Cd170 Cd 0.01311 0.77945 0.84438 0.0
O171 O 0.96141 0.76864 0.87287 0.0
Cd172 Cd -0.00682 0.74185 0.88332 0.0
C173 C 0.02901 0.78699 0.90262 0.0
O174 O 0.00564 0.73817 0.84309 0.0
O175 O 0.02707 0.71932 0.86779 0.0
O176 O 0.96301 0.7112 0.88696 0.0
C177 C 0.02291 0.72465 0.8465 0.0
O178 O 0.03205 0.79291 0.88122 0.0
C179 C 0.96891 0.70594 0.90789 0.0
O180 O 0.01527 0.76991 0.90768 0.0
O181 O 0.98595 0.71764 0.9174 0.0
C182 C 0.96704 0.24391 0.69765 0.0
O183 O 0.98114 0.22974 0.7075 0.0
Cd184 Cd 0.0191 0.21738 0.69089 0.0
O185 O 0.97184 0.25241 0.67754 0.0
Cd186 Cd 0.00234 0.25202 0.64685 0.0
C187 C 0.00527 0.19262 0.63704 0.0
O188 O 0.03354 0.25361 0.6755 0.0
O189 O 0.04567 0.25612 0.63957 0.0
O190 O -0.01072 0.29008 0.63319 0.0
C191 C 0.05091 0.2544 0.66131 0.0
O192 O 0.01413 0.18906 0.65744 0.0
C193 C 0.98434 0.28239 0.61241 0.0
O194 O -0.00117 0.21294 0.63125 0.0
O195 O -0.01136 0.26102 0.60781 0.0
C196 C 0.49077 0.25969 0.32772 0.0
O197 O 0.51176 0.26385 0.32032 0.0
Cd198 Cd 0.54601 0.2598 0.34433 0.0
O199 O 0.48696 0.25425 0.34923 0.0
Cd200 Cd 0.50943 0.24777 0.38662 0.0
C201 C 0.53553 0.30182 0.38664 0.0
O202 O 0.53434 0.22396 0.36331 0.0
O203 O 0.54659 0.22689 0.3992 0.0
O204 O 0.47407 0.2251 0.39744 0.0
C205 C 0.54871 0.21736 0.37888 0.0
O206 O 0.54762 0.29612 0.36843 0.0
C207 C 0.47576 0.22973 0.41946 0.0
O208 O 0.52062 0.28763 0.39555 0.0
O209 O 0.49294 0.243 0.42607 0.0
C210 C 0.46134 0.74634 0.18123 0.0
O211 O 0.47229 0.73082 0.19268 0.0
Cd212 Cd 0.51351 0.72387 0.18123 0.0
O213 O 0.47176 0.75692 0.16458 0.0
Cd214 Cd 0.50501 0.76553 0.13932 0.0
C215 C 0.51021 0.70862 0.12146 0.0
O216 O 0.52727 0.7632 0.17418 0.0
O217 O 0.54721 0.77694 0.14483 0.0
O218 O 0.48024 0.79929 0.14013 0.0
C219 C 0.54719 0.76973 0.16596 0.0
O220 O 0.51301 0.70243 0.14285 0.0
C221 C 0.48218 0.80345 0.11826 0.0
O222 O 0.50666 0.72985 0.11627 0.0
O223 O 0.49659 0.79093 0.10625 0.0
C224 C 0.9227 0.00743 0.76754 0.0
O225 O 0.9337 -0.00078 0.74962 0.0
Cd226 Cd 0.92062 0.00643 0.7096 0.0
O227 O 0.9057 0.02177 0.76522 0.0
Cd228 Cd 0.88265 0.04416 0.73703 0.0
C229 C 0.86071 -0.00812 0.71637 0.0
O230 O 0.91321 0.04725 0.70826 0.0
O231 O 0.87902 0.05958 0.69695 0.0
O232 O 0.88503 0.07806 0.76392 0.0
C233 C 0.9003 0.05444 0.69153 0.0
O234 O 0.88112 0.98719 0.70761 0.0
C235 C 0.8625 0.08009 0.76541 0.0
O236 O 0.85729 0.01067 0.72835 0.0
O237 O 0.84972 0.06576 0.75322 0.0
C238 C 0.7985 0.07931 0.50474 0.0
O239 O 0.78541 0.06814 0.51906 0.0
Cd240 Cd 0.75216 0.08748 0.53752 0.0
O241 O 0.79394 0.10041 0.49972 0.0
Cd242 Cd 0.766 0.13285 0.50516 0.0
C243 C 0.77564 0.13854 0.56375 0.0
O244 O 0.73308 0.10529 0.50463 0.0
O245 O 0.72318 0.1414 0.50908 0.0
O246 O 0.78165 0.13633 0.46586 0.0
C247 C 0.71672 0.12005 0.50792 0.0
O248 O 0.76631 0.11816 0.5656 0.0
C249 C 0.78031 0.15841 0.4648 0.0
O250 O 0.77887 0.14757 0.54359 0.0
O251 O 0.77155 0.16917 0.4826 0.0
C252 C 0.56945 0.00283 0.28929 0.0
O253 O 0.55872 0.00933 0.27075 0.0
Cd254 Cd 0.56779 -0.00277 0.23112 0.0
O255 O 0.58688 0.98871 0.2881 0.0
Cd256 Cd 0.60997 0.9665 0.25819 0.0
C257 C 0.62626 0.01503 0.22707 0.0
O258 O 0.57519 0.95658 0.23621 0.0
O259 O 0.60735 0.94681 0.21849 0.0
O260 O 0.61997 0.93342 0.28348 0.0
C261 C 0.58476 0.94803 0.21788 0.0
O262 O 0.60489 0.01792 0.22003 0.0
C263 C 0.6422 0.93828 0.28358 0.0
O264 O 0.63133 -0.00114 0.2413 0.0
O265 O 0.649 0.95566 0.27158 0.0
C266 C 0.74199 0.90906 0.02075 0.0
O267 O 0.72604 0.92343 0.01475 0.0
Cd268 Cd 0.68441 0.91385 0.01471 0.0
O269 O 0.73634 0.88883 0.02826 0.0
Cd270 Cd 0.70297 0.86221 0.03896 0.0
C271 C 0.68661 0.86158 0.98103 0.0
O272 O 0.68004 0.89477 0.05095 0.0
O273 O 0.66038 0.86243 0.0524 0.0
O274 O 0.73129 0.8563 0.07034 0.0
C275 C 0.6602 0.88462 0.05416 0.0
O276 O 0.68097 0.883 0.98422 0.0
C277 C 0.72828 0.83433 0.07186 0.0
O278 O 0.69613 0.84992 -0.00244 0.0
O279 O 0.71267 0.82478 0.05824 0.0
C280 C 0.29366 0.56115 -0.00085 0.0
O281 O 0.28758 0.55094 0.01799 0.0
Cd282 Cd 0.25453 0.56574 0.04104 0.0
O283 O 0.28299 0.5795 -0.00714 0.0
Cd284 Cd 0.25031 0.60545 0.00353 0.0
C285 C 0.26877 0.62261 0.05785 0.0
O286 O 0.22247 0.57427 0.01442 0.0
O287 O 0.21092 0.60997 0.02028 0.0
O288 O 0.24153 0.60408 0.96192 0.0
C289 C 0.20616 0.58821 0.02092 0.0
O290 O 0.26456 0.60144 0.06338 0.0
C291 C 0.2448 0.62568 0.95822 0.0
O292 O 0.26719 0.6289 0.0364 0.0
O293 O 0.25007 0.63865 0.97608 0.0
C294 C 0.06292 0.47257 0.77581 0.0
O295 O 0.05041 0.48142 0.75951 0.0
Cd296 Cd 0.05785 0.47745 0.71754 0.0
O297 O 0.08144 0.46069 0.77097 0.0
Cd298 Cd 0.10503 0.44623 0.73732 0.0
C299 C 0.11469 0.49997 0.71221 0.0
O300 O 0.07015 0.4378 0.7151 0.0
O301 O 0.10225 0.42756 0.69733 0.0
O302 O 0.11793 0.41224 0.75932 0.0
C303 C 0.07982 0.43014 0.69638 0.0
O304 O 0.09256 0.50214 0.70753 0.0
C305 C 0.13996 0.41781 0.75825 0.0
O306 O 0.12226 0.48242 0.7234 0.0
O307 O 0.1454 0.43621 0.74712 0.0
C308 C 0.26143 0.40195 0.50377 0.0
O309 O 0.24313 0.40952 0.4932 0.0
Cd310 Cd 0.20632 0.38826 0.48965 0.0
O311 O 0.26107 0.38198 0.51347 0.0
Cd312 Cd 0.23437 0.34792 0.52064 0.0
C313 C 0.22876 0.33878 0.46175 0.0
O314 O 0.20099 0.37228 0.52777 0.0
O315 O 0.19151 0.33595 0.52412 0.0
O316 O 0.25783 0.34497 0.55657 0.0
C317 C 0.18463 0.35689 0.52698 0.0
O318 O 0.2153 0.35661 0.46112 0.0
C319 C 0.25972 0.32284 0.5554 0.0
O320 O 0.2391 0.333 0.48079 0.0
O321 O 0.24883 0.31212 0.53858 0.0
C322 C 0.43733 0.54598 0.25916 0.0
O323 O 0.44835 0.53384 0.2437 0.0
Cd324 Cd 0.42833 0.52329 0.20704 0.0
O325 O 0.41651 0.55349 0.25494 0.0
Cd326 Cd 0.38319 0.55768 0.22775 0.0
C327 C 0.37601 0.49894 0.22976 0.0
O328 O 0.40911 0.55828 0.19507 0.0
O329 O 0.37196 0.56083 0.18575 0.0
O330 O 0.38233 0.59581 0.24687 0.0
C331 C 0.39336 0.55832 0.17896 0.0
O332 O 0.39655 0.49661 0.22038 0.0
C333 C 0.36007 0.59504 0.25104 0.0
O334 O 0.36721 0.51894 0.23433 0.0
O335 O 0.34835 0.57733 0.2431 0.0
O336 O 0.95979 0.03987 -0.00321 0.0
Zn337 Zn 0.97665 0.0121 0.98253 0.0
O338 O 0.97406 0.98438 0.0019 0.0
Zn339 Zn 0.00576 0.9747 0.0112 0.0
Zn340 Zn 0.95487 -0.00819 0.02966 0.0
Zn341 Zn 0.95924 0.95895 0.98394 0.0
O342 O 0.01434 0.94322 -0.00196 0.0
O343 O 0.97922 0.92997 0.98484 0.0
O344 O 0.01021 0.02384 0.9819 0.0
O345 O 0.03079 -0.00166 0.00247 0.0
O346 O 0.00729 0.97242 0.04617 0.0
O347 O 0.97189 0.98338 0.05975 0.0
O348 O 0.92266 0.97574 0.0277 0.0
O349 O 0.96686 0.00516 0.94907 0.0
O350 O 0.92665 0.95175 -0.00349 0.0
O351 O 0.95573 0.96764 0.94975 0.0
C352 C 0.95266 0.04337 0.01793 0.0
C353 C 0.00116 0.92679 0.9896 0.0
C354 C -0.00698 0.97622 0.06324 0.0
C355 C 0.0297 0.01714 -0.00914 0.0
C356 C 0.91432 0.95994 0.0136 0.0
C357 C 0.95939 0.98651 0.93859 0.0
O358 O 0.95064 0.02654 0.03226 0.0
O359 O 0.2461 0.72816 0.21234 0.0
Zn360 Zn 0.23732 0.73976 0.24466 0.0
O361 O 0.24052 0.77333 0.24689 0.0
Zn362 Zn 0.26539 0.78174 0.27 0.0
Zn363 Zn 0.24893 0.78511 0.21588 0.0
Zn364 Zn 0.21046 0.78646 0.25674 0.0
O365 O 0.25325 0.80371 0.29505 0.0
O366 O 0.21418 0.80318 0.2883 0.0
O367 O 0.25849 0.72459 0.26769 0.0
O368 O 0.27777 0.75353 0.28663 0.0
O369 O 0.2944 0.79438 0.25399 0.0
O370 O 0.28369 0.79356 0.21616 0.0
O371 O 0.22977 0.81392 0.20862 0.0
O372 O 0.2047 0.72867 0.25303 0.0
O373 O 0.2 0.81094 0.23441 0.0
O374 O 0.18522 0.7616 0.26053 0.0
C375 C 0.24798 0.7377 0.19225 0.0
C376 C 0.23216 0.80953 0.30081 0.0
C377 C 0.29944 0.79666 0.23222 0.0
C378 C 0.27312 0.73187 0.28346 0.0
C379 C 0.2101 0.82114 0.21721 0.0
C380 C 0.18585 0.73933 0.25907 0.0
O381 O 0.24633 0.75981 0.19004 0.0
O382 O 0.49152 0.98179 0.50494 0.0
Zn383 Zn 0.47926 0.01203 0.49302 0.0
O384 O 0.4881 0.03745 0.5149 0.0
Zn385 Zn 0.45963 0.04977 0.5303 0.0
Zn386 Zn 0.51091 0.0267 0.53832 0.0
Zn387 Zn 0.50266 0.0619 0.49699 0.0
O388 O 0.45169 0.08259 0.52029 0.0
O389 O 0.48037 0.08842 0.49382 0.0
O390 O 0.44391 0.00738 0.49138 0.0
O391 O 0.43136 0.02952 0.52153 0.0
O392 O 0.46246 0.04803 0.56542 0.0
O393 O 0.49724 0.03075 0.571 0.0
O394 O 0.5424 0.04453 0.53642 0.0
O395 O 0.49219 0.01663 0.46039 0.0
O396 O 0.53326 0.0728 0.51164 0.0
O397 O 0.51088 0.05096 0.46429 0.0
C398 C 0.50566 0.97621 0.52148 0.0
C399 C 0.46142 0.09482 0.50432 0.0
C400 C 0.47794 0.03929 0.57907 0.0
C401 C 0.42742 0.01432 0.50515 0.0
C402 C 0.54779 0.06339 0.52582 0.0
C403 C 0.50506 0.03293 0.45194 0.0
O404 O 0.51541 -0.00825 0.53498 0.0
O405 O 0.25939 0.22733 0.81175 0.0
Zn406 Zn 0.27489 0.24669 0.78727 0.0
O407 O 0.27195 0.23146 0.75623 0.0
Zn408 Zn 0.30287 0.22132 0.74384 0.0
Zn409 Zn 0.24976 0.20477 0.75801 0.0
Zn410 Zn 0.25988 0.25453 0.73534 0.0
O411 O 0.3102 0.23418 0.71111 0.0
O412 O 0.28195 0.26096 0.70926 0.0
O413 O 0.30932 0.25067 0.79562 0.0
O414 O 0.32878 0.2331 0.76605 0.0
O415 O 0.30372 0.18604 0.74178 0.0
O416 O 0.2659 0.17524 0.74727 0.0
O417 O 0.2201 0.20995 0.73824 0.0
O418 O 0.25963 0.27847 0.78942 0.0
O419 O 0.22919 0.24365 0.72125 0.0
O420 O 0.25335 0.28493 0.75144 0.0
C421 C 0.24613 0.2091 0.81127 0.0
C422 C 0.30048 0.25134 0.70095 0.0
C423 C 0.2875 0.1702 0.74269 0.0
C424 C 0.32869 0.24449 0.78571 0.0
C425 C 0.21511 0.22632 0.72408 0.0
C426 C 0.25305 0.29176 0.77294 0.0
O427 O 0.24043 0.19864 0.79192 0.0
O428 O 0.01602 0.01255 0.43086 0.0
Zn429 Zn -0.00606 -0.00351 0.45367 0.0
O430 O -0.0 0.00947 0.48463 0.0
Zn431 Zn -0.00274 0.98482 0.50738 0.0
Zn432 Zn 0.03068 0.02503 0.48702 0.0
Zn433 Zn 0.97595 0.03262 0.48894 0.0
O434 O 0.96965 0.99048 0.52937 0.0
O435 O 0.95447 0.02317 0.51532 0.0
O436 O 0.00066 0.96207 0.45338 0.0
O437 O -0.00368 0.95291 0.49117 0.0
O438 O 0.02706 0.98396 0.52682 0.0
O439 O 0.0526 0.0061 0.5068 0.0
O440 O 0.02787 0.05616 0.50452 0.0
O441 O 0.95907 0.00095 0.44522 0.0
O442 O -0.0107 0.06308 0.50043 0.0
O443 O 0.95619 0.03693 0.46004 0.0
C444 C 0.03541 0.02432 0.43361 0.0
C445 C 0.95432 0.00679 0.53026 0.0
C446 C 0.04808 -0.00819 0.5233 0.0
C447 C -0.0001 0.94692 0.46962 0.0
C448 C 0.00994 0.06933 0.50767 0.0
C449 C 0.94787 0.02014 0.44733 0.0
O450 O 0.04376 0.02962 0.45411 0.0
O451 O 0.28346 0.70227 0.73166 0.0
Zn452 Zn 0.25294 0.70852 0.74904 0.0
O453 O 0.22559 0.7007 0.7288 0.0
Zn454 Zn 0.20606 0.7284 0.7241 0.0
Zn455 Zn 0.23552 0.68766 0.69809 0.0
Zn456 Zn 0.20726 0.67723 0.74459 0.0
O457 O 0.17218 0.72315 0.73499 0.0
O458 O 0.17328 0.68622 0.74645 0.0
O459 O 0.2535 0.74293 0.75606 0.0
O460 O 0.22045 0.75705 0.74039 0.0
O461 O 0.20586 0.73661 0.68987 0.0
O462 O 0.22502 0.70782 0.67146 0.0
O463 O 0.22396 0.65413 0.6923 0.0
O464 O 0.2522 0.69265 0.78073 0.0
O465 O 0.20861 0.64666 0.72763 0.0
O466 O 0.21818 0.67267 0.77769 0.0
C467 C 0.28774 0.69572 0.71042 0.0
C468 C 0.16183 0.70487 0.74279 0.0
C469 C 0.21408 0.7272 0.67104 0.0
C470 C 0.23984 0.76 0.75192 0.0
C471 C 0.21458 0.64004 0.70691 0.0
C472 C 0.23631 0.67939 0.78966 0.0
O473 O 0.2711 0.68959 0.69613 0.0
O474 O 0.49066 0.01535 0.06986 0.0
Zn475 Zn 0.4822 0.01472 0.03571 0.0
O476 O 0.45141 -0.00061 0.0313 0.0
Zn477 Zn 0.45665 0.96966 0.0156 0.0
Zn478 Zn 0.43562 -0.00473 0.06172 0.0
Zn479 Zn 0.43142 0.01771 0.0116 0.0
O480 O 0.44689 0.96998 0.98164 0.0
O481 O 0.42486 0.00198 0.98006 0.0
O482 O 0.50912 -0.00477 0.02302 0.0
O483 O 0.49104 0.96069 0.0179 0.0
O484 O 0.43767 0.94484 0.03131 0.0
O485 O 0.42333 0.96216 0.06373 0.0
O486 O 0.40731 0.01693 0.06578 0.0
O487 O 0.48286 0.04728 0.02276 0.0
O488 O 0.40092 0.0247 0.02791 0.0
O489 O 0.44697 0.04877 0.00606 0.0
C490 C 0.48123 0.00685 0.08829 0.0
C491 C 0.43324 0.9835 0.9704 0.0
C492 C 0.4256 0.94413 0.05032 0.0
C493 C 0.50999 0.97311 0.01977 0.0
C494 C 0.39442 0.02541 0.04948 0.0
C495 C 0.46698 0.05828 0.01144 0.0
O496 O 0.45996 -0.00134 0.08807 0.0
O497 O 0.22225 0.26958 0.24097 0.0
Zn498 Zn 0.25486 0.26242 0.25269 0.0
O499 O 0.27789 0.28189 0.23682 0.0
Zn500 Zn 0.29506 0.2629 0.21337 0.0
Zn501 Zn 0.26153 0.30803 0.22227 0.0
Zn502 Zn 0.29965 0.29417 0.26027 0.0
O503 O 0.33037 0.26174 0.22083 0.0
O504 O 0.33175 0.28111 0.25546 0.0
O505 O 0.26002 0.22856 0.24522 0.0
O506 O 0.28269 0.22946 0.21301 0.0
O507 O 0.28948 0.27542 0.18083 0.0
O508 O 0.26642 0.30622 0.18734 0.0
O509 O 0.27416 0.33974 0.23353 0.0
O510 O 0.25516 0.26774 0.28773 0.0
O511 O 0.30381 0.32833 0.25656 0.0
O512 O 0.28833 0.28872 0.29336 0.0
C513 C 0.21307 0.28716 0.23109 0.0
C514 C 0.34177 0.26953 0.23891 0.0
C515 C 0.27742 0.29251 0.17323 0.0
C516 C 0.27011 0.21824 0.22784 0.0
C517 C 0.29245 0.34435 0.24631 0.0
C518 C 0.26995 0.27831 0.30143 0.0
O519 O 0.2258 0.30465 0.22496 0.0
O520 O 0.51752 0.51942 0.92305 0.0
Zn521 Zn 0.49499 0.50608 0.9468 0.0
O522 O 0.50071 0.5216 0.97676 0.0
Zn523 Zn 0.50107 0.49848 0.00118 0.0
Zn524 Zn 0.53009 0.53989 0.97723 0.0
Zn525 Zn 0.47446 0.54231 0.98096 0.0
O526 O 0.47172 0.5003 0.02131 0.0
O527 O 0.45283 0.53058 0.00635 0.0
O528 O 0.50277 0.47219 0.94882 0.0
O529 O 0.50537 0.46593 0.98734 0.0
O530 O 0.52955 0.50392 0.02188 0.0
O531 O 0.55355 0.52545 -0.00048 0.0
O532 O 0.52473 0.57249 -0.00941 0.0
O533 O 0.46031 0.50937 0.93708 0.0
O534 O 0.48528 0.57361 -0.00741 0.0
O535 O 0.45525 0.54524 0.95156 0.0
C536 C 0.5362 0.53238 0.92451 0.0
C537 C 0.4541 0.51419 0.02121 0.0
C538 C 0.54986 0.51323 0.01783 0.0
C539 C 0.50638 0.45855 0.96595 0.0
C540 C 0.50562 0.58315 -0.00398 0.0
C541 C 0.44803 0.52795 0.93883 0.0
O542 O 0.54345 0.5413 0.94417 0.0
O543 O 0.79401 0.22955 0.23705 0.0
Zn544 Zn 0.76462 0.23087 0.25728 0.0
O545 O 0.741 0.20921 0.24424 0.0
Zn546 Zn 0.71065 0.22456 0.23997 0.0
Zn547 Zn 0.75082 0.19623 0.21411 0.0
Zn548 Zn 0.73809 0.18389 0.26578 0.0
O549 O 0.68606 0.2117 0.26241 0.0
O550 O 0.70734 0.18667 0.28322 0.0
O551 O 0.75224 0.26365 0.25766 0.0
O552 O 0.71441 0.2592 0.24633 0.0
O553 O 0.70004 0.22348 0.20588 0.0
O554 O 0.73362 0.21242 0.18835 0.0
O555 O 0.74221 0.16193 0.21108 0.0
O556 O 0.7744 0.22231 0.29044 0.0
O557 O 0.73678 0.15296 0.24873 0.0
O558 O 0.76362 0.18477 0.29037 0.0
C559 C 0.80025 0.21667 0.2195 0.0
C560 C 0.68807 0.19752 0.27945 0.0
C561 C 0.71282 0.22104 0.18737 0.0
C562 C 0.73193 0.27216 0.2529 0.0
C563 C 0.7376 0.14701 0.22693 0.0
C564 C 0.77454 0.20224 0.29988 0.0
O565 O 0.78591 0.2019 0.20969 0.0
O566 O 0.01564 0.46975 0.52368 0.0
Zn567 Zn 0.01079 0.47161 0.48851 0.0
O568 O 0.97971 0.45844 0.4794 0.0
Zn569 Zn 0.98301 0.42858 0.46217 0.0
Zn570 Zn 0.96068 0.45361 0.50753 0.0
Zn571 Zn 0.96367 0.48063 0.45992 0.0
O572 O 0.96797 0.4296 0.42944 0.0
O573 O 0.95535 0.46634 0.42879 0.0
O574 O 0.03685 0.45142 0.47536 0.0
O575 O 0.01775 0.41978 0.46103 0.0
O576 O 0.96685 0.40257 0.47981 0.0
O577 O 0.94764 0.42111 0.50869 0.0
O578 O 0.93369 0.47571 0.51014 0.0
O579 O 0.01481 0.5055 0.47898 0.0
O580 O 0.93341 0.49202 0.47488 0.0
O581 O 0.98345 0.50937 0.45535 0.0
C582 C 0.00222 0.463 0.54041 0.0
C583 C 0.95762 0.44626 0.41896 0.0
C584 C 0.95284 0.40234 0.49751 0.0
C585 C 0.03702 0.43067 0.46662 0.0
C586 C 0.92441 0.48933 0.4953 0.0
C587 C 0.00246 0.51757 0.46484 0.0
O588 O 0.98071 0.45669 0.53659 0.0
O589 O 0.75319 0.74528 0.33783 0.0
Zn590 Zn 0.76813 0.76468 0.31281 0.0
O591 O 0.76024 0.75223 0.28137 0.0
Zn592 Zn 0.78786 0.74026 0.26414 0.0
Zn593 Zn 0.73605 0.72745 0.284 0.0
Zn594 Zn 0.74864 0.77805 0.26375 0.0
O595 O 0.78972 0.75223 0.23021 0.0
O596 O 0.7659 0.78279 0.23375 0.0
O597 O 0.80347 0.76343 0.31702 0.0
O598 O 0.81749 0.74957 0.28256 0.0
O599 O 0.78624 0.70493 0.26227 0.0
O600 O 0.74845 0.69695 0.2712 0.0
O601 O 0.70572 0.73598 0.26699 0.0
O602 O 0.75694 0.79796 0.31861 0.0
O603 O 0.71515 0.77155 0.25451 0.0
O604 O 0.74882 0.80805 0.28184 0.0
C605 C 0.73781 0.72872 0.33751 0.0
C606 C 0.78049 0.77058 0.2218 0.0
C607 C 0.76907 0.69031 0.2647 0.0
C608 C 0.82073 0.75768 0.30356 0.0
C609 C 0.70034 0.75466 0.25633 0.0
C610 C 0.75105 0.81323 0.30368 0.0
O611 O 0.72905 0.72054 0.31819 0.0
O612 O 0.7541 0.22407 0.73061 0.0
Zn613 Zn 0.74669 0.23231 0.76418 0.0
O614 O 0.75111 0.26554 0.76978 0.0
Zn615 Zn 0.77287 0.27098 0.79664 0.0
Zn616 Zn 0.76338 0.28077 0.74149 0.0
Zn617 Zn 0.72023 0.27795 0.77695 0.0
O618 O 0.75736 0.29066 0.82242 0.0
O619 O 0.71952 0.28956 0.81038 0.0
O620 O 0.76754 0.21431 0.78534 0.0
O621 O 0.78344 0.2405 0.81061 0.0
O622 O 0.80384 0.28482 0.78548 0.0
O623 O 0.79784 0.28919 0.74692 0.0
O624 O 0.74496 0.31039 0.73417 0.0
O625 O 0.71357 0.22114 0.77094 0.0
O626 O 0.71371 0.30584 0.75776 0.0
O627 O 0.69369 0.25436 0.77363 0.0
C628 C 0.75991 0.23564 0.71244 0.0
C629 C 0.73533 0.29495 0.82579 0.0
C630 C 0.81144 0.29003 0.76501 0.0
C631 C 0.78024 0.21945 0.8034 0.0
C632 C 0.72501 0.31743 0.74231 0.0
C633 C 0.6941 0.23209 0.7731 0.0
O634 O 0.7632 0.2578 0.71352 0.0
O635 O 0.68598 0.79085 0.74726 0.0
Zn636 Zn 0.71201 0.78206 0.76967 0.0
O637 O 0.74217 0.79497 0.759 0.0
Zn638 Zn 0.7662 0.7707 0.7598 0.0
Zn639 Zn 0.73946 0.80622 0.72699 0.0
Zn640 Zn 0.75077 0.82096 0.77974 0.0
O641 O 0.79065 0.77805 0.78491 0.0
O642 O 0.78177 0.81458 0.79576 0.0
O643 O 0.71293 0.74702 0.7684 0.0
O644 O 0.75124 0.73875 0.76398 0.0
O645 O 0.78256 0.7671 0.72837 0.0
O646 O 0.75865 0.78656 0.70463 0.0
O647 O 0.75111 0.83938 0.72453 0.0
O648 O 0.70369 0.7935 0.8027 0.0
O649 O 0.75519 0.85074 0.76212 0.0
O650 O 0.72698 0.82521 0.80574 0.0
C651 C 0.68611 0.79903 0.72645 0.0
C652 C 0.79503 0.79672 0.79697 0.0
C653 C 0.77603 0.7728 0.7077 0.0
C654 C 0.72957 0.73217 0.76611 0.0
C655 C 0.7558 0.85515 0.74014 0.0
C656 C 0.71045 0.81211 0.81374 0.0
O657 O 0.70545 0.80502 0.71635 0.0
O658 O 0.47445 0.56652 0.49372 0.0
Zn659 Zn 0.4913 0.53991 0.47789 0.0
O660 O 0.47987 0.51038 0.49033 0.0
Zn661 Zn 0.50673 0.49222 0.50039 0.0
Zn662 Zn 0.45946 0.51569 0.51764 0.0
Zn663 Zn 0.46321 0.4933 0.46547 0.0
O664 O 0.51363 0.46567 0.47817 0.0
O665 O 0.48172 0.46487 0.45481 0.0
O666 O 0.52563 0.54573 0.48616 0.0
O667 O 0.53554 0.51285 0.50373 0.0
O668 O 0.50237 0.47979 0.53273 0.0
O669 O 0.47558 0.50439 0.5472 0.0
O670 O 0.42801 0.49856 0.51313 0.0
O671 O 0.4864 0.54182 0.4428 0.0
O672 O 0.43071 0.48354 0.47657 0.0
O673 O 0.46005 0.51286 0.43672 0.0
C674 C 0.46105 0.5683 0.51181 0.0
C675 C 0.50171 0.45657 0.46108 0.0
C676 C 0.49148 0.48898 0.55023 0.0
C677 C 0.54057 0.53356 0.49738 0.0
C678 C 0.41918 0.48673 0.49576 0.0
C679 C 0.47177 0.53054 0.42946 0.0
O680 O 0.45402 0.55026 0.52288 0.0
O681 O -0.00734 0.4413 0.00323 0.0
Zn682 Zn 0.97821 0.46826 0.9861 0.0
O683 O 0.98395 0.49752 0.00404 0.0
Zn684 Zn 0.95395 0.51274 0.01114 0.0
Zn685 Zn 0.00079 0.49166 0.03357 0.0
Zn686 Zn 0.00259 0.51835 0.98501 0.0
O687 O 0.94881 0.54217 -0.00693 0.0
O688 O 0.98344 0.54542 0.97438 0.0
O689 O 0.9431 0.46036 0.98455 0.0
O690 O 0.92727 0.49029 0.00449 0.0
O691 O 0.95092 0.52039 0.04538 0.0
O692 O 0.9807 0.50113 0.06165 0.0
O693 O 0.03194 0.50973 0.03558 0.0
O694 O -0.00779 0.46946 0.95314 0.0
O695 O 0.03103 0.53047 0.00274 0.0
O696 O 0.01374 0.50236 0.95557 0.0
C697 C 0.00302 0.43946 0.02319 0.0
C698 C 0.96257 0.55274 0.97886 0.0
C699 C 0.96189 0.51332 0.06353 0.0
C700 C 0.92523 0.47052 -0.00614 0.0
C701 C 0.04094 0.52515 0.02214 0.0
C702 C 0.00719 0.48384 0.94438 0.0
O703 O 0.00719 0.45733 0.03649 0.0
H704 H -0.01095 0.18738 0.06474 0.0
H705 H 0.01036 0.1368 0.11641 0.0
H706 H 0.96997 0.15598 0.04109 0.0
H707 H -0.00854 0.10571 0.09281 0.0
H708 H 0.93744 0.05803 0.06161 0.0
H709 H 0.94952 0.09418 0.0821 0.0
H710 H 0.98104 0.11952 0.01769 0.0
H711 H 0.9688 0.08345 -0.003 0.0
C712 C -0.01008 0.16959 0.07093 0.0
C713 C 0.00117 0.16463 0.09254 0.0
C714 C 0.97891 0.15166 0.05742 0.0
C715 C 0.97878 0.12852 0.06538 0.0
C716 C -0.00928 0.12349 0.08654 0.0
C717 C 0.00182 0.1413 0.09992 0.0
C718 C 0.94628 0.07157 0.05158 0.0
C719 C 0.95258 0.06761 0.02778 0.0
C720 C 0.9534 0.09219 0.0634 0.0
C721 C 0.96685 0.1093 0.05165 0.0
C722 C 0.97083 0.10654 0.02723 0.0
C723 C 0.96372 0.08586 0.01536 0.0
H724 H 0.11523 0.70862 0.37961 0.0
H725 H 0.05676 0.69681 0.33054 0.0
H726 H 0.14334 0.70681 0.34651 0.0
H727 H 0.08478 0.69543 0.29771 0.0
H728 H 0.13895 0.75104 0.26083 0.0
H729 H 0.10903 0.73444 0.28717 0.0
H730 H 0.15879 0.68165 0.30832 0.0
H731 H 0.18859 0.69778 0.28143 0.0
C732 C 0.10847 0.70495 0.36192 0.0
C733 C 0.08385 0.70347 0.35754 0.0
C734 C 0.12451 0.70378 0.34304 0.0
C735 C 0.11603 0.70122 0.31967 0.0
C736 C 0.09162 0.69754 0.31559 0.0
C737 C 0.07567 0.69847 0.33439 0.0
C738 C 0.14316 0.73535 0.27039 0.0
C739 C 0.16605 0.7258 0.26926 0.0
C740 C 0.12608 0.72583 0.28541 0.0
C741 C 0.13184 0.70693 0.29981 0.0
C742 C 0.15407 0.69624 0.29735 0.0
C743 C 0.17099 0.70542 0.28188 0.0
H744 H 0.47197 0.85988 0.6052 0.0
H745 H 0.49462 0.82404 0.54113 0.0
H746 H 0.48094 0.89742 0.58736 0.0
H747 H 0.50367 0.86179 0.5233 0.0
H748 H 0.48934 0.93812 0.49578 0.0
H749 H 0.48334 0.89847 0.51005 0.0
H750 H 0.51884 0.91804 0.57555 0.0
H751 H 0.52473 0.95773 0.56148 0.0
C752 C 0.47854 0.86001 0.58719 0.0
C753 C 0.48265 0.83899 0.5746 0.0
C754 C 0.48396 0.8815 0.57709 0.0
C755 C 0.49347 0.88246 0.55414 0.0
C756 C 0.49647 0.86153 0.54106 0.0
C757 C 0.4912 0.83995 0.55125 0.0
C758 C 0.49635 0.93386 0.51302 0.0
C759 C 0.50723 0.95121 0.52762 0.0
C760 C 0.49289 0.91113 0.52117 0.0
C761 C 0.50015 0.90538 0.54409 0.0
C762 C 0.51259 0.9222 0.55799 0.0
C763 C 0.5162 0.94487 0.54981 0.0
H764 H 0.44742 0.25274 0.88219 0.0
H765 H 0.47387 0.28769 0.82009 0.0
H766 H 0.4078 0.25015 0.86436 0.0
H767 H 0.4342 0.28517 0.80247 0.0
H768 H 0.37361 0.24011 0.76763 0.0
H769 H 0.4113 0.24997 0.78717 0.0
H770 H 0.37323 0.27335 0.84952 0.0
H771 H 0.33543 0.26337 0.83011 0.0
C772 C 0.4447 0.26028 0.86496 0.0
C773 C 0.46387 0.27009 0.8524 0.0
C774 C 0.42199 0.25886 0.85481 0.0
C775 C 0.4181 0.26716 0.83192 0.0
C776 C 0.43688 0.27828 0.81998 0.0
C777 C 0.45955 0.27981 0.83016 0.0
C778 C 0.37324 0.2474 0.78547 0.0
C779 C 0.35154 0.25085 0.79734 0.0
C780 C 0.39481 0.25325 0.79657 0.0
C781 C 0.39511 0.26252 0.81979 0.0
C782 C 0.37345 0.26614 0.83163 0.0
C783 C 0.35185 0.26045 0.82048 0.0
H784 H 0.06351 0.82611 0.40282 0.0
H785 H 0.01748 0.79536 0.45536 0.0
H786 H 0.0541 0.86502 0.41815 0.0
H787 H 0.00761 0.83442 0.47035 0.0
H788 H 0.00529 0.92731 0.42555 0.0
H789 H 0.01812 0.88794 0.41535 0.0
H790 H 0.02098 0.87123 0.48953 0.0
H791 H 0.00763 0.9107 0.49984 0.0
C792 C 0.05167 0.82763 0.41789 0.0
C793 C 0.04101 0.80764 0.42766 0.0
C794 C 0.0461 0.84995 0.42654 0.0
C795 C 0.02962 0.85283 0.44506 0.0
C796 C 0.02034 0.8328 0.45603 0.0
C797 C 0.02603 0.8104 0.44744 0.0
C798 C 0.00847 0.91525 0.43973 0.0
C799 C 0.00547 0.92223 0.46352 0.0
C800 C 0.01609 0.89272 0.43389 0.0
C801 C 0.02101 0.87657 0.45165 0.0
C802 C 0.01734 0.88326 0.47544 0.0
C803 C 0.00965 0.90587 0.48132 0.0
H804 H 0.41206 0.73757 0.62763 0.0
H805 H 0.42642 0.75987 0.6997 0.0
H806 H 0.37435 0.72014 0.63979 0.0
H807 H 0.38782 0.74424 0.71184 0.0
H808 H 0.33049 0.69463 0.73369 0.0
H809 H 0.36876 0.70934 0.71946 0.0
H810 H 0.33602 0.72481 0.65215 0.0
H811 H 0.29863 0.70842 0.66582 0.0
C812 C 0.40662 0.73948 0.64595 0.0
C813 C 0.42193 0.75009 0.66275 0.0
C814 C 0.38502 0.72945 0.65301 0.0
C815 C 0.37802 0.73039 0.67695 0.0
C816 C 0.39287 0.74238 0.69343 0.0
C817 C 0.41478 0.75177 0.68646 0.0
C818 C 0.3318 0.7006 0.71565 0.0
C819 C 0.3117 0.70026 0.70083 0.0
C820 C 0.35358 0.70945 0.70757 0.0
C821 C 0.35551 0.71882 0.68475 0.0
C822 C 0.3355 0.71755 0.66968 0.0
C823 C 0.31395 0.70809 0.67753 0.0
H824 H 0.523 0.19752 0.97828 0.0
H825 H 0.47129 0.17789 0.92432 0.0
H826 H 0.51181 0.16288 0.00061 0.0
H827 H 0.46058 0.14319 0.9462 0.0
H828 H 0.43454 0.08972 -0.00381 0.0
H829 H 0.44219 0.12883 0.98157 0.0
H830 H 0.51758 0.1208 -0.00497 0.0
H831 H 0.50985 0.08181 0.01036 0.0
C832 C 0.50906 0.18598 0.97135 0.0
C833 C 0.49812 0.1903 0.94949 0.0
C834 C 0.50278 0.16609 0.98404 0.0
C835 C 0.48544 0.15024 0.97509 0.0
C836 C 0.47381 0.15519 0.95374 0.0
C837 C 0.48005 0.17503 0.94111 0.0
C838 C 0.45275 0.09634 -0.00381 0.0
C839 C 0.47166 0.08256 0.00411 0.0
C840 C 0.45711 0.11875 0.98779 0.0
C841 C 0.4805 0.1278 0.98692 0.0
C842 C 0.49932 0.1144 -0.0043 0.0
C843 C 0.49493 0.092 0.00431 0.0
H844 H 0.10291 0.25616 0.13134 0.0
H845 H 0.06503 0.24959 0.19749 0.0
H846 H 0.13859 0.2693 0.15306 0.0
H847 H 0.10051 0.26294 0.21905 0.0
H848 H 0.191 0.31264 0.19714 0.0
H849 H 0.1527 0.30362 0.17818 0.0
H850 H 0.14079 0.24748 0.22702 0.0
H851 H 0.17887 0.25654 0.24613 0.0
C852 C 0.10222 0.25749 0.15047 0.0
C853 C 0.08123 0.25177 0.16271 0.0
C854 C 0.12253 0.26524 0.16288 0.0
C855 C 0.12222 0.26729 0.18773 0.0
C856 C 0.10128 0.26142 0.19993 0.0
C857 C 0.08098 0.25379 0.18755 0.0
C858 C 0.17993 0.29878 0.20424 0.0
C859 C 0.18801 0.28522 0.22307 0.0
C860 C 0.15816 0.29344 0.19318 0.0
C861 C 0.14398 0.27465 0.20092 0.0
C862 C 0.15133 0.2621 0.22071 0.0
C863 C 0.17316 0.26729 0.23164 0.0
H864 H 0.10823 0.01311 0.14646 0.0
H865 H 0.05347 0.02123 0.19966 0.0
H866 H 0.07896 -0.00426 0.11931 0.0
H867 H 0.02417 0.00336 0.17254 0.0
H868 H 0.03011 0.95074 0.07924 0.0
H869 H 0.05459 0.96032 0.11385 0.0
H870 H 0.00411 0.01317 0.13542 0.0
H871 H 0.97929 0.00312 0.10112 0.0
C872 C 0.08994 0.01114 0.15236 0.0
C873 C 0.08312 0.0186 0.17512 0.0
C874 C 0.07322 0.0009 0.13693 0.0
C875 C 0.04933 -0.00216 0.14395 0.0
C876 C 0.04244 0.00549 0.16667 0.0
C877 C 0.05921 0.01575 0.18214 0.0
C878 C 0.02385 0.96383 0.09183 0.0
C879 C 0.00306 0.97649 0.08732 0.0
C880 C 0.03796 0.96947 0.1115 0.0
C881 C 0.03163 0.988 0.12687 0.0
C882 C 0.00949 -0.00113 0.12381 0.0
C883 C -0.00478 -0.00694 0.1042 0.0
H884 H 0.19289 0.90001 0.42133 0.0
H885 H 0.23352 0.84264 0.44889 0.0
H886 H 0.19608 0.8828 0.38144 0.0
H887 H 0.23657 0.82568 0.40926 0.0
H888 H 0.19035 0.82745 0.31819 0.0
H889 H 0.18388 0.8458 0.35711 0.0
H890 H 0.25886 0.83932 0.37311 0.0
H891 H 0.26544 0.82102 0.3345 0.0
C892 C 0.20222 0.88364 0.41896 0.0
C893 C 0.21317 0.87283 0.43825 0.0
C894 C 0.204 0.87381 0.39616 0.0
C895 C 0.21689 0.85315 0.39231 0.0
C896 C 0.22693 0.84187 0.41172 0.0
C897 C 0.22504 0.85155 0.43443 0.0
C898 C 0.20549 0.83012 0.32994 0.0
C899 C 0.22838 0.82259 0.32331 0.0
C900 C 0.20175 0.84067 0.35215 0.0
C901 C 0.22081 0.84365 0.36814 0.0
C902 C 0.24378 0.83684 0.36122 0.0
C903 C 0.24756 0.82649 0.33904 0.0
H904 H 0.44133 0.97344 0.71338 0.0
H905 H 0.38012 0.97541 0.66677 0.0
H906 H 0.4645 -0.00361 0.68528 0.0
H907 H 0.4033 -0.00191 0.63873 0.0
H908 H 0.43944 0.05615 0.6032 0.0
H909 H 0.42091 0.0384 0.63749 0.0
H910 H 0.48097 -0.00766 0.64428 0.0
H911 H 0.49975 0.01023 0.61016 0.0
C912 C 0.43291 0.97855 0.69704 0.0
C913 C 0.40889 0.9727 0.69229 0.0
C914 C 0.44616 -0.00826 0.68103 0.0
C915 C 0.43554 -0.00059 0.6601 0.0
C916 C 0.41175 -0.00708 0.65505 0.0
C917 C 0.39857 0.97967 0.67095 0.0
C918 C 0.44906 0.04273 0.61241 0.0
C919 C 0.47081 0.03424 0.60361 0.0
C920 C 0.43833 0.03243 0.63191 0.0
C921 C 0.44918 0.01352 0.64301 0.0
C922 C 0.47213 0.00679 0.63592 0.0
C923 C 0.48291 0.01711 0.61639 0.0
H924 H 0.24761 0.19258 0.95995 0.0
H925 H 0.20787 0.1305 0.93824 0.0
H926 H 0.25201 0.20347 0.9189 0.0
H927 H 0.21119 0.14199 0.89682 0.0
H928 H 0.24219 0.16312 0.82331 0.0
H929 H 0.23681 0.14808 0.86328 0.0
H930 H 0.22684 0.21886 0.88988 0.0
H931 H 0.23347 0.2337 0.85043 0.0
C932 C 0.23985 0.18125 0.94629 0.0
C933 C 0.22727 0.16083 0.95217 0.0
C934 C 0.24212 0.18759 0.92277 0.0
C935 C 0.23136 0.17396 0.90458 0.0
C936 C 0.21966 0.15289 0.91039 0.0
C937 C 0.21777 0.14629 0.93405 0.0
C938 C 0.23846 0.1753 0.83775 0.0
C939 C 0.23851 0.19953 0.834 0.0
C940 C 0.23541 0.16674 0.8606 0.0
C941 C 0.23202 0.18232 0.87989 0.0
C942 C 0.23031 0.20642 0.87561 0.0
C943 C 0.23383 0.21494 0.85299 0.0
H944 H 0.12828 0.0287 0.3124 0.0
H945 H 0.0799 0.08607 0.30212 0.0
H946 H 0.11177 0.02309 0.352 0.0
H947 H 0.06339 0.08012 0.3414 0.0
H948 H 0.01729 0.03107 0.38964 0.0
H949 H 0.03884 0.04258 0.35419 0.0
H950 H 0.10476 0.04567 0.39385 0.0
H951 H 0.0831 0.03452 0.4297 0.0
C952 C 0.1145 0.04038 0.31872 0.0
C953 C 0.1052 0.05763 0.30398 0.0
C954 C 0.10513 0.0372 0.34138 0.0
C955 C 0.08617 0.05102 0.34949 0.0
C956 C 0.07787 0.06912 0.33537 0.0
C957 C 0.08741 0.07252 0.31292 0.0
C958 C 0.03635 0.03431 0.39087 0.0
C959 C 0.04852 0.03189 0.41241 0.0
C960 C 0.04863 0.04103 0.37063 0.0
C961 C 0.07338 0.04509 0.37143 0.0
C962 C 0.08565 0.04265 0.39289 0.0
C963 C 0.07326 0.03636 0.41333 0.0
H964 H 0.25448 0.84587 0.59381 0.0
H965 H 0.23327 0.79902 0.53623 0.0
H966 H 0.2462 0.81503 0.62193 0.0
H967 H 0.22501 0.76814 0.56455 0.0
H968 H 0.23508 0.71585 0.62855 0.0
H969 H 0.24462 0.74278 0.59673 0.0
H970 H 0.20545 0.79731 0.63293 0.0
H971 H 0.1958 0.77066 0.66462 0.0
C972 C 0.24859 0.82884 0.5871 0.0
C973 C 0.24426 0.82494 0.56285 0.0
C974 C 0.24362 0.81129 0.60321 0.0
C975 C 0.23444 0.78947 0.59537 0.0
C976 C 0.23192 0.78489 0.571 0.0
C977 C 0.23671 0.80255 0.55485 0.0
C978 C 0.22802 0.73341 0.62946 0.0
C979 C 0.21496 0.7412 0.64932 0.0
C980 C 0.23358 0.74881 0.61129 0.0
C981 C 0.2263 0.77221 0.6128 0.0
C982 C 0.2118 0.77947 0.63172 0.0
C983 C 0.20608 0.76411 0.64974 0.0
H984 H 0.38379 0.98325 0.82495 0.0
H985 H 0.41354 0.91445 0.83317 0.0
H986 H 0.39312 -0.0071 0.86603 0.0
H987 H 0.42173 0.92355 0.87473 0.0
H988 H 0.45804 0.95609 0.93944 0.0
H989 H 0.44778 0.94608 0.89863 0.0
H990 H 0.38297 0.98606 0.9054 0.0
H991 H 0.39402 -0.00293 0.94585 0.0
C992 C 0.39198 0.97005 0.8357 0.0
C993 C 0.39805 0.94814 0.82589 0.0
C994 C 0.39721 0.97552 0.85931 0.0
C995 C 0.40823 0.95903 0.87375 0.0
C996 C 0.41372 0.93687 0.86402 0.0
C997 C 0.40888 0.93156 0.84026 0.0
C998 C 0.44162 0.96274 0.93215 0.0
C999 C 0.42686 0.97741 0.94574 0.0
C1000 C 0.43561 0.95686 0.90881 0.0
C1001 C 0.41447 0.96516 0.89868 0.0
C1002 C 0.3996 0.97968 0.91244 0.0
C1003 C 0.40585 0.98592 0.93566 0.0
H1004 H 0.18901 0.22003 0.1031 0.0
H1005 H 0.23739 0.2249 0.04385 0.0
H1006 H 0.20658 0.25567 0.12035 0.0
H1007 H 0.25524 0.26035 0.06145 0.0
H1008 H 0.29985 0.27027 0.13638 0.0
H1009 H 0.27968 0.25632 0.10058 0.0
H1010 H 0.21935 0.29984 0.11731 0.0
H1011 H 0.23964 0.31425 0.15292 0.0
C1012 C 0.20287 0.22909 0.09342 0.0
C1013 C 0.2122 0.21937 0.07247 0.0
C1014 C 0.21278 0.24966 0.10314 0.0
C1015 C 0.23238 0.26061 0.09224 0.0
C1016 C 0.24015 0.25219 0.07013 0.0
C1017 C 0.22996 0.23184 0.06018 0.0
C1018 C 0.28285 0.27781 0.13182 0.0
C1019 C 0.27096 0.29262 0.1479 0.0
C1020 C 0.2713 0.26991 0.11121 0.0
C1021 C 0.2477 0.27657 0.10665 0.0
C1022 C 0.23744 0.29426 0.12069 0.0
C1023 C 0.24914 0.30248 0.14109 0.0
H1024 H 0.14641 0.09321 0.05187 0.0
H1025 H 0.1311 0.13525 -0.00889 0.0
H1026 H 0.11482 0.06576 0.04015 0.0
H1027 H 0.1 0.10726 0.97875 0.0
H1028 H 0.02999 0.06346 0.98013 0.0
H1029 H 0.06154 0.09196 0.98851 0.0
H1030 H 0.10784 0.0363 0.01028 0.0
H1031 H 0.07585 0.00781 0.00282 0.0
C1032 C 0.13616 0.09661 0.03605 0.0
C1033 C 0.14118 0.11628 0.02237 0.0
C1034 C 0.11829 0.08074 0.02914 0.0
C1035 C 0.10526 0.08404 0.00822 0.0
C1036 C 0.10969 0.10423 -0.00501 0.0
C1037 C 0.12743 0.1203 0.00209 0.0
C1038 C 0.04705 0.05721 0.98627 0.0
C1039 C 0.05036 0.03339 -0.00891 0.0
C1040 C 0.06516 0.0736 -0.00893 0.0
C1041 C 0.08703 0.06646 0.00051 0.0
C1042 C 0.09091 0.04243 0.00368 0.0
C1043 C 0.0727 0.02607 -0.00084 0.0
H1044 H 0.68579 0.45855 0.05958 0.0
H1045 H 0.62956 0.406 0.05896 0.0
H1046 H 0.65601 0.48933 0.06118 0.0
H1047 H 0.59992 0.43664 0.06021 0.0
H1048 H 0.54813 0.49099 0.06015 0.0
H1049 H 0.58089 0.47071 0.07891 0.0
H1050 H 0.62996 0.49989 0.02815 0.0
H1051 H 0.59741 0.52044 0.00966 0.0
C1052 C 0.66709 0.45357 0.06034 0.0
C1053 C 0.6599 0.42992 0.05852 0.0
C1054 C 0.65009 0.4712 0.06127 0.0
C1055 C 0.62567 0.46542 0.0605 0.0
C1056 C 0.6186 0.4417 0.06101 0.0
C1057 C 0.63558 0.4241 0.06004 0.0
C1058 C 0.56604 0.49363 0.05342 0.0
C1059 C 0.57011 0.50667 0.03293 0.0
C1060 C 0.58476 0.48203 0.0642 0.0
C1061 C 0.60783 0.48326 0.05464 0.0
C1062 C 0.61237 0.49859 0.03596 0.0
C1063 C 0.59365 0.51026 0.02522 0.0
H1064 H 0.76036 0.42155 0.25798 0.0
H1065 H 0.77931 0.38935 0.19087 0.0
H1066 H 0.73568 0.38734 0.26714 0.0
H1067 H 0.75417 0.35549 0.19984 0.0
H1068 H 0.75377 0.30499 0.2812 0.0
H1069 H 0.75808 0.34669 0.27331 0.0
H1070 H 0.71126 0.33854 0.21284 0.0
H1071 H 0.70633 0.29682 0.22117 0.0
C1072 C 0.75844 0.40766 0.24474 0.0
C1073 C 0.77207 0.40786 0.22388 0.0
C1074 C 0.74434 0.38811 0.25004 0.0
C1075 C 0.74324 0.36882 0.23427 0.0
C1076 C 0.75463 0.37024 0.21222 0.0
C1077 C 0.76912 0.38954 0.20715 0.0
C1078 C 0.74372 0.3123 0.26677 0.0
C1079 C 0.72987 0.29777 0.25171 0.0
C1080 C 0.74603 0.33615 0.26233 0.0
C1081 C 0.73499 0.34571 0.24245 0.0
C1082 C 0.71981 0.33153 0.22833 0.0
C1083 C 0.71699 0.30773 0.23314 0.0
H1084 H 0.79474 0.53763 0.56151 0.0
H1085 H 0.81301 0.59265 0.51304 0.0
H1086 H 0.82881 0.5153 0.5479 0.0
H1087 H 0.84773 0.57058 0.49997 0.0
H1088 H 0.89474 0.51385 0.46666 0.0
H1089 H 0.85934 0.53561 0.47835 0.0
H1090 H 0.87124 0.51723 0.55126 0.0
H1091 H 0.90598 0.49492 0.53953 0.0
C1092 C 0.80615 0.54504 0.54806 0.0
C1093 C 0.8013 0.56695 0.53844 0.0
C1094 C 0.82574 0.53228 0.54033 0.0
C1095 C 0.84108 0.54126 0.52301 0.0
C1096 C 0.83609 0.56308 0.51317 0.0
C1097 C 0.8163 0.57577 0.52074 0.0
C1098 C 0.88972 0.51444 0.48517 0.0
C1099 C 0.90305 0.50258 0.50216 0.0
C1100 C 0.86954 0.527 0.49187 0.0
C1101 C 0.86246 0.52806 0.51571 0.0
C1102 C 0.87595 0.51636 0.53268 0.0
C1103 C 0.89594 0.50366 0.52597 0.0
H1104 H 0.20882 0.07784 0.23431 0.0
H1105 H 0.16736 0.12245 0.18947 0.0
H1106 H 0.24178 0.10628 0.23372 0.0
H1107 H 0.20037 0.15064 0.18877 0.0
H1108 H 0.26059 0.18513 0.26041 0.0
H1109 H 0.24067 0.14748 0.25317 0.0
H1110 H 0.24467 0.15804 0.17781 0.0
H1111 H 0.26503 0.19572 0.18507 0.0
C1112 C 0.20694 0.09343 0.22389 0.0
C1113 C 0.18536 0.09813 0.21225 0.0
C1114 C 0.22581 0.10965 0.22356 0.0
C1115 C 0.22356 0.13061 0.21124 0.0
C1116 C 0.20266 0.13449 0.1982 0.0
C1117 C 0.18368 0.11847 0.19881 0.0
C1118 C 0.25794 0.17904 0.24229 0.0
C1119 C 0.26407 0.19338 0.22331 0.0
C1120 C 0.24666 0.15744 0.23813 0.0
C1121 C 0.24096 0.15002 0.21493 0.0
C1122 C 0.24881 0.16348 0.19586 0.0
C1123 C 0.26054 0.18494 0.20001 0.0
H1124 H 0.28544 0.96129 0.47147 0.0
H1125 H 0.30803 0.92236 0.53222 0.0
H1126 H 0.32414 0.98146 0.47076 0.0
H1127 H 0.34666 0.94295 0.53167 0.0
H1128 H 0.39401 0.01108 0.53982 0.0
H1129 H 0.35648 0.98888 0.53834 0.0
H1130 H 0.36998 0.96926 0.46547 0.0
H1131 H 0.40785 -0.00886 0.46694 0.0
C1132 C 0.29875 0.95696 0.48456 0.0
C1133 C 0.29378 0.94037 0.50198 0.0
C1134 C 0.32084 0.96841 0.48407 0.0
C1135 C 0.33812 0.96377 0.50125 0.0
C1136 C 0.33342 0.94684 0.51836 0.0
C1137 C 0.31147 0.93502 0.51858 0.0
C1138 C 0.38889 0.00222 0.52341 0.0
C1139 C 0.40379 0.00284 0.50347 0.0
C1140 C 0.36758 0.98936 0.52268 0.0
C1141 C 0.36064 0.97729 0.50188 0.0
C1142 C 0.37511 0.97844 0.4817 0.0
C1143 C 0.39667 0.99094 0.48256 0.0
H1144 H 0.83101 0.55283 0.27611 0.0
H1145 H 0.76499 0.53935 0.23825 0.0
H1146 H 0.82136 0.59431 0.27925 0.0
H1147 H 0.75558 0.58085 0.24101 0.0
H1148 H 0.7372 0.6541 0.26989 0.0
H1149 H 0.74527 0.61231 0.26873 0.0
H1150 H 0.81907 0.62702 0.25197 0.0
H1151 H 0.81118 0.66889 0.25355 0.0
C1152 C 0.81432 0.55867 0.26869 0.0
C1153 C 0.79879 0.54283 0.25688 0.0
C1154 C 0.80892 0.58247 0.27027 0.0
C1155 C 0.78785 0.5909 0.26011 0.0
C1156 C 0.77188 0.57489 0.24913 0.0
C1157 C 0.77729 0.5511 0.24752 0.0
C1158 C 0.75513 0.64846 0.26579 0.0
C1159 C 0.77356 0.6649 0.26185 0.0
C1160 C 0.75973 0.62448 0.2651 0.0
C1161 C 0.78284 0.61637 0.26046 0.0
C1162 C 0.80116 0.63275 0.25603 0.0
C1163 C 0.79657 0.65675 0.2567 0.0
H1164 H 0.70936 0.46668 0.71809 0.0
H1165 H 0.63741 0.44007 0.72605 0.0
H1166 H 0.72453 0.42671 0.72033 0.0
H1167 H 0.65217 0.4004 0.7269 0.0
H1168 H 0.68598 0.33868 0.76072 0.0
H1169 H 0.67201 0.37765 0.75408 0.0
H1170 H 0.72763 0.38821 0.70231 0.0
H1171 H 0.74258 0.34889 0.7099 0.0
C1172 C 0.69682 0.45227 0.7201 0.0
C1173 C 0.67228 0.45648 0.7224 0.0
C1174 C 0.70545 0.42937 0.72114 0.0
C1175 C 0.68962 0.4103 0.72412 0.0
C1176 C 0.66499 0.41464 0.72533 0.0
C1177 C 0.65648 0.43742 0.72478 0.0
C1178 C 0.69524 0.34908 0.74771 0.0
C1179 C 0.71544 0.34053 0.73581 0.0
C1180 C 0.68705 0.37154 0.74377 0.0
C1181 C 0.69851 0.38613 0.72748 0.0
C1182 C 0.7185 0.37752 0.71515 0.0
C1183 C 0.72694 0.35492 0.71932 0.0
H1184 H 0.02196 0.78258 0.95021 0.0
H1185 H 0.055 0.82763 0.89874 0.0
H1186 H 0.02271 0.81475 0.97915 0.0
H1187 H 0.05555 0.85969 0.92767 0.0
H1188 H 0.9779 0.88489 0.98562 0.0
H1189 H -0.00593 0.8478 0.97187 0.0
H1190 H 0.06437 0.8794 0.96765 0.0
H1191 H 0.04812 0.91678 0.98172 0.0
C1192 C 0.03019 0.79904 0.9453 0.0
C1193 C 0.03752 0.80287 0.92189 0.0
C1194 C 0.03062 0.81744 0.96192 0.0
C1195 C 0.03852 0.83981 0.95538 0.0
C1196 C 0.04922 0.84264 0.93315 0.0
C1197 C 0.04874 0.82426 0.91649 0.0
C1198 C -0.00312 0.88384 0.9822 0.0
C1199 C 0.01167 0.90376 0.98435 0.0
C1200 C 0.00623 0.86251 0.97464 0.0
C1201 C 0.03052 0.86074 0.96878 0.0
C1202 C 0.04561 0.88034 0.97213 0.0
C1203 C 0.03629 0.90168 0.9801 0.0
H1204 H 0.95962 0.24848 0.74537 0.0
H1205 H 0.92603 0.25828 0.67752 0.0
H1206 H 0.92509 0.26572 0.76513 0.0
H1207 H 0.89113 0.27412 0.69699 0.0
H1208 H 0.83525 0.31393 0.73083 0.0
H1209 H 0.87564 0.30618 0.71713 0.0
H1210 H 0.88542 0.25862 0.77491 0.0
H1211 H 0.84586 0.26772 0.78936 0.0
C1212 C 0.94466 0.25396 0.73474 0.0
C1213 C 0.94542 0.25203 0.70995 0.0
C1214 C 0.92489 0.26391 0.74602 0.0
C1215 C 0.90534 0.2717 0.73271 0.0
C1216 C 0.90608 0.26915 0.70789 0.0
C1217 C 0.92595 0.25969 0.69667 0.0
C1218 C 0.84645 0.30255 0.74105 0.0
C1219 C 0.83739 0.29129 0.761 0.0
C1220 C 0.86946 0.29777 0.73303 0.0
C1221 C 0.88355 0.28107 0.74438 0.0
C1222 C 0.87522 0.27155 0.76564 0.0
C1223 C 0.85245 0.27682 0.774 0.0
H1224 H 0.43445 0.20498 0.41113 0.0
H1225 H 0.48324 0.22662 0.46693 0.0
H1226 H 0.41732 0.1754 0.43681 0.0
H1227 H 0.46698 0.19652 0.49212 0.0
H1228 H 0.44835 0.13373 0.53011 0.0
H1229 H 0.43894 0.17207 0.5136 0.0
H1230 H 0.44018 0.14095 0.44313 0.0
H1231 H 0.4494 0.1034 0.45961 0.0
C1232 C 0.44104 0.20386 0.4291 0.0
C1233 C 0.46075 0.21744 0.43677 0.0
C1234 C 0.43122 0.18696 0.44383 0.0
C1235 C 0.44138 0.18303 0.46618 0.0
C1236 C 0.45877 0.19893 0.47499 0.0
C1237 C 0.46831 0.21608 0.4604 0.0
C1238 C 0.44569 0.13517 0.5112 0.0
C1239 C 0.44991 0.11598 0.49597 0.0
C1240 C 0.44037 0.15701 0.50174 0.0
C1241 C 0.43903 0.15967 0.47703 0.0
C1242 C 0.44077 0.13967 0.46222 0.0
C1243 C 0.44635 0.11813 0.4716 0.0
H1244 H 0.55195 0.75166 0.20989 0.0
H1245 H 0.59218 0.78288 0.15315 0.0
H1246 H 0.5886 0.74771 0.23275 0.0
H1247 H 0.62883 0.77864 0.17592 0.0
H1248 H 0.68326 0.79274 0.23403 0.0
H1249 H 0.64587 0.79614 0.21283 0.0
H1250 H 0.62675 0.72518 0.2308 0.0
H1251 H 0.66436 0.72168 0.25245 0.0
C1252 C 0.56862 0.75767 0.20232 0.0
C1253 C 0.56926 0.76768 0.17981 0.0
C1254 C 0.58957 0.75524 0.21533 0.0
C1255 C 0.61146 0.76289 0.20609 0.0
C1256 C 0.6121 0.77286 0.18356 0.0
C1257 C 0.59117 0.77522 0.17051 0.0
C1258 C 0.67112 0.77781 0.23361 0.0
C1259 C 0.67686 0.75684 0.24482 0.0
C1260 C 0.64976 0.77978 0.22132 0.0
C1261 C 0.63361 0.76086 0.21999 0.0
C1262 C 0.63893 0.74006 0.23168 0.0
C1263 C 0.66043 0.73804 0.244 0.0
H1264 H 0.02284 0.14781 0.63899 0.0
H1265 H 0.98775 0.19578 0.59238 0.0
H1266 H 0.02564 0.11926 0.6062 0.0
H1267 H -0.00857 0.16799 0.55986 0.0
H1268 H 0.04709 0.08273 0.53694 0.0
H1269 H 0.04621 0.11274 0.56842 0.0
H1270 H 0.97513 0.13169 0.54666 0.0
H1271 H 0.97633 0.10261 0.51497 0.0
C1272 C 0.0156 0.1522 0.62188 0.0
C1273 C 0.00498 0.17403 0.61839 0.0
C1274 C 0.01751 0.13601 0.60302 0.0
C1275 C 0.00887 0.14141 0.58037 0.0
C1276 C -0.002 0.16311 0.5771 0.0
C1277 C -0.00405 0.1791 0.59584 0.0
C1278 C 0.03156 0.09375 0.53853 0.0
C1279 C 0.01177 0.09024 0.52347 0.0
C1280 C 0.0309 0.11067 0.5568 0.0
C1281 C 0.01048 0.12439 0.56025 0.0
C1282 C -0.00877 0.12158 0.54444 0.0
C1283 C -0.00809 0.10483 0.52622 0.0
H1284 H 0.55039 0.18365 0.34508 0.0
H1285 H 0.59467 0.22295 0.39476 0.0
H1286 H 0.58569 0.17222 0.3228 0.0
H1287 H 0.63018 0.21162 0.37223 0.0
H1288 H 0.68975 0.18138 0.32458 0.0
H1289 H 0.65679 0.17876 0.35282 0.0
H1290 H 0.60842 0.20375 0.29963 0.0
H1291 H 0.64118 0.20662 0.27156 0.0
C1292 C 0.56781 0.18909 0.3517 0.0
C1293 C 0.56993 0.20446 0.37132 0.0
C1294 C 0.58794 0.18264 0.33892 0.0
C1295 C 0.61046 0.19153 0.34554 0.0
C1296 C 0.61293 0.20458 0.36681 0.0
C1297 C 0.59267 0.21102 0.37971 0.0
C1298 C 0.672 0.18602 0.31886 0.0
C1299 C 0.66799 0.19429 0.29589 0.0
C1300 C 0.65324 0.18455 0.33503 0.0
C1301 C 0.63015 0.19084 0.32828 0.0
C1302 C 0.62604 0.19842 0.30513 0.0
C1303 C 0.6448 0.20027 0.28913 0.0
H1304 H 0.44281 0.82398 0.13696 0.0
H1305 H 0.48719 0.82215 0.07452 0.0
H1306 H 0.418 0.85362 0.11919 0.0
H1307 H 0.46304 0.85242 0.05709 0.0
H1308 H 0.41987 0.90319 0.02503 0.0
H1309 H 0.42563 0.86435 0.04096 0.0
H1310 H 0.42417 0.89405 0.11196 0.0
H1311 H 0.41751 0.93246 0.09612 0.0
C1312 C 0.4473 0.83 0.11945 0.0
C1313 C 0.46719 0.82115 0.10725 0.0
C1314 C 0.433 0.84687 0.10924 0.0
C1315 C 0.43848 0.8554 0.08674 0.0
C1316 C 0.45796 0.84591 0.07426 0.0
C1317 C 0.47208 0.82884 0.08436 0.0
C1318 C 0.41975 0.9012 0.04406 0.0
C1319 C 0.41911 0.92091 0.05934 0.0
C1320 C 0.42326 0.87901 0.05318 0.0
C1321 C 0.42639 0.87631 0.07764 0.0
C1322 C 0.42206 0.89549 0.09299 0.0
C1323 C 0.41825 0.91763 0.08388 0.0
H1324 H 0.93978 0.81971 0.83086 0.0
H1325 H 0.91842 0.77073 0.88452 0.0
H1326 H 0.89794 0.82581 0.82107 0.0
H1327 H 0.87672 0.7769 0.87461 0.0
H1328 H 0.82068 0.76043 0.81371 0.0
H1329 H 0.85837 0.76263 0.83521 0.0
H1330 H 0.85598 0.83821 0.83528 0.0
H1331 H 0.81803 0.83609 0.81382 0.0
C1332 C 0.9262 0.81076 0.84101 0.0
C1333 C 0.93241 0.79428 0.85802 0.0
C1334 C 0.90225 0.81436 0.83548 0.0
C1335 C 0.88427 0.80149 0.84685 0.0
C1336 C 0.89037 0.78675 0.86539 0.0
C1337 C 0.91425 0.78325 0.87102 0.0
C1338 C 0.82801 0.77751 0.81858 0.0
C1339 C 0.81656 0.79807 0.81193 0.0
C1340 C 0.84944 0.77878 0.83108 0.0
C1341 C 0.85993 0.80061 0.83692 0.0
C1342 C 0.84816 0.8212 0.83095 0.0
C1343 C 0.82649 0.81994 0.81873 0.0
H1344 H 0.89294 0.00308 0.8048 0.0
H1345 H 0.96681 -0.004 0.7844 0.0
H1346 H 0.90335 -0.00554 0.84561 0.0
H1347 H 0.97733 0.9879 0.82568 0.0
H1348 H 0.9799 0.01578 0.90688 0.0
H1349 H 0.9727 0.01689 0.86426 0.0
H1350 H 0.92278 0.95905 0.86946 0.0
H1351 H 0.93026 0.95753 0.91213 0.0
C1352 C 0.91139 -0.00048 0.80906 0.0
C1353 C 0.92914 0.00033 0.79157 0.0
C1354 C 0.91728 -0.00556 0.83233 0.0
C1355 C 0.94108 0.99054 0.83861 0.0
C1356 C 0.95884 0.99086 0.8211 0.0
C1357 C 0.95285 -0.00458 0.7976 0.0
C1358 C 0.9675 0.0032 0.89892 0.0
C1359 C 0.95546 0.9867 0.91281 0.0
C1360 C 0.96361 0.0037 0.87455 0.0
C1361 C 0.94731 0.98798 0.86375 0.0
C1362 C 0.93549 0.97127 0.87751 0.0
C1363 C 0.93974 0.97045 0.90184 0.0
H1364 H 0.78043 0.12386 0.60919 0.0
H1365 H 0.77914 0.18619 0.56715 0.0
H1366 H 0.77982 0.14803 0.64518 0.0
H1367 H 0.77735 0.21033 0.60303 0.0
H1368 H 0.78641 0.24894 0.67409 0.0
H1369 H 0.79495 0.22549 0.63848 0.0
H1370 H 0.74993 0.16966 0.66459 0.0
H1371 H 0.74229 0.19256 0.70027 0.0
C1372 C 0.78026 0.14274 0.60765 0.0
C1373 C 0.77957 0.15309 0.58536 0.0
C1374 C 0.77967 0.15661 0.62826 0.0
C1375 C 0.77794 0.18114 0.62703 0.0
C1376 C 0.77877 0.19154 0.6047 0.0
C1377 C 0.77974 0.17767 0.58409 0.0
C1378 C 0.7783 0.23168 0.67208 0.0
C1379 C 0.76374 0.22256 0.68998 0.0
C1380 C 0.7832 0.21823 0.65171 0.0
C1381 C 0.77341 0.19552 0.64876 0.0
C1382 C 0.7584 0.18675 0.6665 0.0
C1383 C 0.75378 0.20001 0.68689 0.0
H1384 H 0.52535 0.01955 0.29993 0.0
H1385 H 0.59339 0.00312 0.33139 0.0
H1386 H 0.5094 0.02879 0.33918 0.0
H1387 H 0.5774 0.01274 0.37058 0.0
H1388 H 0.54355 0.05517 0.43288 0.0
H1389 H 0.5594 0.05017 0.39284 0.0
H1390 H 0.50252 0.00091 0.37588 0.0
H1391 H 0.48678 0.00554 0.41601 0.0
C1392 C 0.53699 0.01825 0.31517 0.0
C1393 C 0.56058 0.01052 0.31266 0.0
C1394 C 0.52781 0.02342 0.33756 0.0
C1395 C 0.54221 0.02137 0.35772 0.0
C1396 C 0.56605 0.01453 0.35519 0.0
C1397 C 0.57512 0.00894 0.33284 0.0
C1398 C 0.53435 0.04338 0.42056 0.0
C1399 C 0.51397 0.03067 0.42753 0.0
C1400 C 0.54347 0.04049 0.39776 0.0
C1401 C 0.5321 0.02522 0.38146 0.0
C1402 C 0.51144 0.01292 0.38819 0.0
C1403 C 0.50256 0.01547 0.41113 0.0
H1404 H 0.71753 0.79155 0.09078 0.0
H1405 H 0.77049 0.84716 0.09212 0.0
H1406 H 0.73768 0.77319 0.12396 0.0
H1407 H 0.79107 0.82849 0.12451 0.0
H1408 H 0.78696 0.81403 0.20518 0.0
H1409 H 0.77967 0.8265 0.1651 0.0
H1410 H 0.77236 0.75417 0.14179 0.0
H1411 H 0.77956 0.74172 0.18252 0.0
C1412 C 0.73378 0.79952 0.09779 0.0
C1413 C 0.74213 0.82104 0.08926 0.0
C1414 C 0.74547 0.78891 0.11667 0.0
C1415 C 0.76584 0.79955 0.12714 0.0
C1416 C 0.77515 0.8201 0.11723 0.0
C1417 C 0.76334 0.8308 0.09866 0.0
C1418 C 0.7847 0.80077 0.19133 0.0
C1419 C 0.78384 0.77696 0.19688 0.0
C1420 C 0.78052 0.80789 0.16827 0.0
C1421 C 0.77516 0.79134 0.15019 0.0
C1422 C 0.77615 0.76734 0.15539 0.0
C1423 C 0.78062 0.76019 0.17858 0.0
H1424 H 0.94257 0.03804 0.67486 0.0
H1425 H 0.87228 0.05857 0.65215 0.0
H1426 H 0.95128 0.02403 0.63489 0.0
H1427 H 0.88089 0.0441 0.61216 0.0
H1428 H 0.92141 0.04071 0.53943 0.0
H1429 H 0.90641 0.05237 0.57817 0.0
H1430 H 0.93848 -0.00853 0.60857 0.0
H1431 H 0.95406 0.98002 0.56991 0.0
C1432 C 0.92905 0.03974 0.66129 0.0
C1433 C 0.90672 0.04933 0.66667 0.0
C1434 C 0.93391 0.03141 0.63847 0.0
C1435 C 0.91655 0.03248 0.62054 0.0
C1436 C 0.89457 0.04296 0.62565 0.0
C1437 C 0.88969 0.05132 0.64852 0.0
C1438 C 0.9248 0.02945 0.55424 0.0
C1439 C 0.93942 0.0097 0.55166 0.0
C1440 C 0.91616 0.03617 0.57647 0.0
C1441 C 0.92187 0.02319 0.59649 0.0
C1442 C 0.93442 0.00218 0.59351 0.0
C1443 C 0.9431 -0.00453 0.5713 0.0
H1444 H 0.81454 0.14481 0.43399 0.0
H1445 H 0.76273 0.19886 0.44693 0.0
H1446 H 0.82188 0.15986 0.39464 0.0
H1447 H 0.76919 0.21337 0.40702 0.0
H1448 H 0.78432 0.23626 0.33363 0.0
H1449 H 0.79336 0.22999 0.37543 0.0
H1450 H 0.79603 0.15535 0.36131 0.0
H1451 H 0.78761 0.16164 0.31997 0.0
C1452 C 0.80496 0.16014 0.42847 0.0
C1453 C 0.78771 0.17042 0.44319 0.0
C1454 C 0.80914 0.16874 0.40595 0.0
C1455 C 0.79572 0.18745 0.39748 0.0
C1456 C 0.77991 0.19899 0.41301 0.0
C1457 C 0.77606 0.19061 0.43581 0.0
C1458 C 0.78757 0.21861 0.33942 0.0
C1459 C 0.78494 0.19939 0.32364 0.0
C1460 C 0.79255 0.21502 0.36336 0.0
C1461 C 0.79521 0.19218 0.37176 0.0
C1462 C 0.79438 0.17322 0.3555 0.0
C1463 C 0.78932 0.17679 0.33174 0.0
H1464 H 0.54011 0.933 0.20648 0.0
H1465 H 0.60044 0.97205 0.18009 0.0
H1466 H 0.51536 0.94746 0.1745 0.0
H1467 H 0.57563 0.98804 0.14932 0.0
H1468 H 0.46955 -0.00274 0.13432 0.0
H1469 H 0.49579 0.98113 0.16426 0.0
H1470 H 0.55474 0.98411 0.11496 0.0
H1471 H 0.52917 0.00175 0.08618 0.0
C1472 C 0.54815 0.94424 0.1934 0.0
C1473 C 0.57219 0.95107 0.19538 0.0
C1474 C 0.53389 0.95301 0.17541 0.0
C1475 C 0.54323 0.96941 0.1595 0.0
C1476 C 0.56772 0.97526 0.16091 0.0
C1477 C 0.58209 0.96596 0.1785 0.0
C1478 C 0.48828 -0.00498 0.13025 0.0
C1479 C 0.49729 0.00106 0.10803 0.0
C1480 C 0.50328 0.98535 0.14721 0.0
C1481 C 0.52745 0.9809 0.14203 0.0
C1482 C 0.53645 0.98755 0.11993 0.0
C1483 C 0.52168 -0.00222 0.10332 0.0
H1484 H 0.70351 0.81954 0.96398 0.0
H1485 H 0.66273 0.87976 0.94372 0.0
H1486 H 0.70363 0.80569 0.92274 0.0
H1487 H 0.66278 0.8658 0.90279 0.0
H1488 H 0.70889 0.8551 0.83492 0.0
H1489 H 0.69777 0.86459 0.87549 0.0
H1490 H 0.67882 0.7921 0.88669 0.0
H1491 H 0.68997 0.7825 0.84568 0.0
C1492 C 0.69416 0.82955 0.95087 0.0
C1493 C 0.68354 0.85099 0.95707 0.0
C1494 C 0.69412 0.82155 0.92729 0.0
C1495 C 0.68347 0.83486 0.90957 0.0
C1496 C 0.67144 0.8554 0.91605 0.0
C1497 C 0.67145 0.86337 0.93953 0.0
C1498 C 0.70199 0.84123 0.84588 0.0
C1499 C 0.7004 0.81806 0.83719 0.0
C1500 C 0.69547 0.84668 0.86909 0.0
C1501 C 0.68744 0.82906 0.88423 0.0
C1502 C 0.68505 0.80597 0.87537 0.0
C1503 C 0.69127 0.80054 0.85192 0.0
H1504 H 0.7606 0.95289 0.01389 0.0
H1505 H 0.78089 0.88127 0.026 0.0
H1506 H 0.80263 0.96464 0.01353 0.0
H1507 H 0.82287 0.89314 0.02563 0.0
H1508 H 0.87896 0.97964 0.04042 0.0
H1509 H 0.83725 0.96693 0.04277 0.0
H1510 H 0.8518 0.90871 -0.00477 0.0
H1511 H 0.89344 0.92127 -0.00717 0.0
C1512 C 0.774 0.93965 0.01642 0.0
C1513 C 0.76742 0.91614 0.01993 0.0
C1514 C 0.79802 0.94643 0.0164 0.0
C1515 C 0.81592 0.9298 0.01964 0.0
C1516 C 0.80939 0.90628 0.02296 0.0
C1517 C 0.78537 0.89953 0.02323 0.0
C1518 C 0.87331 0.96402 0.03063 0.0
C1519 C 0.88947 0.95151 0.01637 0.0
C1520 C 0.84943 0.95686 0.03186 0.0
C1521 C 0.84136 0.93692 0.0191 0.0
C1522 C 0.85762 0.92406 0.00536 0.0
C1523 C 0.88142 0.93135 0.00391 0.0
H1524 H 0.32603 0.52719 0.0094 0.0
H1525 H 0.30404 0.57335 0.95394 0.0
H1526 H 0.35946 0.51435 0.98506 0.0
H1527 H 0.33703 0.56006 0.92941 0.0
H1528 H 0.42134 0.56446 0.92501 0.0
H1529 H 0.37916 0.56836 0.93348 0.0
H1530 H 0.37456 0.49465 0.94912 0.0
H1531 H 0.4171 0.49089 0.94082 0.0
C1532 C 0.32809 0.53427 -0.00813 0.0
C1533 C 0.31273 0.55165 0.98383 0.0
C1534 C 0.34705 0.5267 0.97776 0.0
C1535 C 0.35091 0.53623 0.95527 0.0
C1536 C 0.33468 0.55259 0.94673 0.0
C1537 C 0.31586 0.56027 0.96088 0.0
C1538 C 0.41105 0.54885 0.92907 0.0
C1539 C 0.42251 0.52751 0.93271 0.0
C1540 C 0.38682 0.55106 0.93401 0.0
C1541 C 0.3737 0.53193 0.94269 0.0
C1542 C 0.38442 0.5098 0.943 0.0
C1543 C 0.40869 0.50757 0.93789 0.0
H1544 H 0.10586 0.54308 0.6937 0.0
H1545 H 0.16321 0.49725 0.71315 0.0
H1546 H 0.13501 0.5739 0.68525 0.0
H1547 H 0.19221 0.52785 0.70428 0.0
H1548 H 0.22132 0.60117 0.73202 0.0
H1549 H 0.19993 0.56416 0.72695 0.0
H1550 H 0.16982 0.58804 0.66134 0.0
H1551 H 0.19158 0.6254 0.66656 0.0
C1552 C 0.12466 0.53944 0.69577 0.0
C1553 C 0.13217 0.51792 0.70462 0.0
C1554 C 0.14139 0.557 0.69066 0.0
C1555 C 0.16589 0.5533 0.69424 0.0
C1556 C 0.17343 0.53127 0.70163 0.0
C1557 C 0.15677 0.5138 0.70682 0.0
C1558 C 0.21088 0.59812 0.71605 0.0
C1559 C 0.20798 0.616 0.6997 0.0
C1560 C 0.19863 0.57692 0.7131 0.0
C1561 C 0.18297 0.57331 0.69387 0.0
C1562 C 0.18162 0.59049 0.67643 0.0
C1563 C 0.19424 0.6117 0.67925 0.0
H1564 H 0.16275 0.39726 0.53905 0.0
H1565 H 0.15264 0.33312 0.49828 0.0
H1566 H 0.12725 0.41336 0.52102 0.0
H1567 H 0.11738 0.34953 0.4795 0.0
H1568 H 0.04206 0.38329 0.46975 0.0
H1569 H 0.07694 0.36317 0.48465 0.0
H1570 H 0.11758 0.42794 0.48274 0.0
H1571 H 0.0825 0.4482 0.46867 0.0
C1572 C 0.15266 0.38648 0.52648 0.0
C1573 C 0.16043 0.36399 0.52006 0.0
C1574 C 0.13255 0.39582 0.51583 0.0
C1575 C 0.11989 0.38301 0.49826 0.0
C1576 C 0.12679 0.3599 0.49289 0.0
C1577 C 0.14688 0.35043 0.50376 0.0
C1578 C 0.05864 0.3931 0.47184 0.0
C1579 C 0.05945 0.41743 0.46834 0.0
C1580 C 0.07862 0.38156 0.48052 0.0
C1581 C 0.09982 0.3941 0.4856 0.0
C1582 C 0.10124 0.41794 0.47983 0.0
C1583 C 0.08125 0.42951 0.47143 0.0
H1584 H 0.86179 0.94834 0.69528 0.0
H1585 H 0.81492 -0.00372 0.7322 0.0
H1586 H 0.83111 0.91787 0.6969 0.0
H1587 H 0.78417 0.96582 0.73347 0.0
H1588 H 0.76244 0.8944 0.76774 0.0
H1589 H 0.7836 0.93006 0.75723 0.0
H1590 H 0.79037 0.90418 0.6852 0.0
H1591 H 0.76933 0.8682 0.69575 0.0
C1592 C 0.8448 0.95253 0.70331 0.0
C1593 C 0.84099 0.97458 0.71404 0.0
C1594 C 0.82713 0.93512 0.70405 0.0
C1595 C 0.80535 0.93945 0.71551 0.0
C1596 C 0.80094 0.96195 0.72482 0.0
C1597 C 0.81858 0.97936 0.72407 0.0
C1598 C 0.76801 0.89646 0.74955 0.0
C1599 C 0.76456 0.87832 0.73268 0.0
C1600 C 0.77998 0.917 0.74347 0.0
C1601 C 0.7888 0.91978 0.72043 0.0
C1602 C 0.78398 0.90233 0.70316 0.0
C1603 C 0.77185 0.8818 0.7092 0.0
H1604 H 0.69855 0.07554 0.50699 0.0
H1605 H 0.67899 0.14764 0.51994 0.0
H1606 H 0.6577 0.06305 0.515 0.0
H1607 H 0.6382 0.13508 0.52854 0.0
H1608 H 0.56378 0.10486 0.50839 0.0
H1609 H 0.60464 0.11912 0.50644 0.0
H1610 H 0.62801 0.05979 0.5463 0.0
H1611 H 0.58692 0.04505 0.54777 0.0
C1612 C 0.68554 0.08871 0.51166 0.0
C1613 C 0.69191 0.11259 0.51265 0.0
C1614 C 0.66219 0.08153 0.51651 0.0
C1615 C 0.64473 0.09806 0.52251 0.0
C1616 C 0.6512 0.12194 0.52374 0.0
C1617 C 0.67455 0.12913 0.51883 0.0
C1618 C 0.57754 0.09493 0.51701 0.0
C1619 C 0.5721 0.07364 0.52801 0.0
C1620 C 0.60099 0.10323 0.51602 0.0
C1621 C 0.6196 0.09049 0.52604 0.0
C1622 C 0.61407 0.06979 0.53807 0.0
C1623 C 0.59052 0.06145 0.53908 0.0
H1624 H 0.13449 0.37521 0.77893 0.0
H1625 H 0.18768 0.42721 0.76054 0.0
H1626 H 0.16607 0.34848 0.78991 0.0
H1627 H 0.21918 0.40061 0.77188 0.0
H1628 H 0.25515 0.33031 0.74608 0.0
H1629 H 0.23026 0.36467 0.74968 0.0
H1630 H 0.20151 0.33913 0.81536 0.0
H1631 H 0.22672 0.30445 0.81168 0.0
C1632 C 0.15289 0.38112 0.77775 0.0
C1633 C 0.15865 0.40305 0.76837 0.0
C1634 C 0.17098 0.36591 0.78428 0.0
C1635 C 0.19508 0.37243 0.78154 0.0
C1636 C 0.20075 0.39506 0.77389 0.0
C1637 C 0.1827 0.41023 0.76734 0.0
C1638 C 0.24403 0.33237 0.76164 0.0
C1639 C 0.24258 0.31468 0.77845 0.0
C1640 C 0.22988 0.35213 0.76381 0.0
C1641 C 0.2138 0.35447 0.78271 0.0
C1642 C 0.21366 0.33763 0.80053 0.0
C1643 C 0.22815 0.31792 0.79851 0.0
H1644 H 0.38127 0.62889 0.27894 0.0
H1645 H 0.31255 0.60316 0.25436 0.0
H1646 H 0.36192 0.66128 0.29983 0.0
H1647 H 0.29334 0.63583 0.27406 0.0
H1648 H 0.32118 0.73145 0.28599 0.0
H1649 H 0.34446 0.69598 0.28725 0.0
H1650 H 0.28142 0.65688 0.30781 0.0
H1651 H 0.25791 0.69233 0.30476 0.0
C1652 C 0.36201 0.63018 0.27805 0.0
C1653 C 0.34839 0.61383 0.2647 0.0
C1654 C 0.35093 0.64866 0.29007 0.0
C1655 C 0.32606 0.6513 0.28864 0.0
C1656 C 0.31246 0.63422 0.27609 0.0
C1657 C 0.32349 0.61561 0.26441 0.0
C1658 C 0.3126 0.71547 0.29185 0.0
C1659 C 0.2878 0.71431 0.29477 0.0
C1660 C 0.32593 0.69503 0.29258 0.0
C1661 C 0.31457 0.67334 0.29668 0.0
C1662 C 0.29048 0.67314 0.30364 0.0
C1663 C 0.27706 0.69344 0.30222 0.0
H1664 H 0.46945 0.71596 0.55665 0.0
H1665 H 0.49367 0.67267 0.61363 0.0
H1666 H 0.45725 0.68093 0.53413 0.0
H1667 H 0.48184 0.63775 0.59092 0.0
H1668 H 0.44224 0.57937 0.55525 0.0
H1669 H 0.44585 0.61695 0.57627 0.0
H1670 H 0.47638 0.64789 0.51393 0.0
H1671 H 0.47237 0.61058 0.49274 0.0
C1672 C 0.47235 0.69899 0.56431 0.0
C1673 C 0.48262 0.69712 0.58693 0.0
C1674 C 0.4653 0.67894 0.55141 0.0
C1675 C 0.46833 0.65662 0.56086 0.0
C1676 C 0.47878 0.65474 0.58338 0.0
C1677 C 0.48585 0.67476 0.59626 0.0
C1678 C 0.44909 0.59433 0.5458 0.0
C1679 C 0.45741 0.59186 0.52244 0.0
C1680 C 0.45139 0.61579 0.55793 0.0
C1681 C 0.46192 0.63519 0.54691 0.0
C1682 C 0.46824 0.63326 0.52292 0.0
C1683 C 0.46598 0.61181 0.5108 0.0
H1684 H 0.60928 0.20996 0.88296 0.0
H1685 H 0.5545 0.20603 0.82899 0.0
H1686 H 0.63951 0.20224 0.85284 0.0
H1687 H 0.58469 0.19832 0.79899 0.0
H1688 H 0.64816 0.24491 0.76599 0.0
H1689 H 0.61375 0.23087 0.78792 0.0
H1690 H 0.65669 0.17698 0.81863 0.0
H1691 H 0.6912 0.19084 0.79629 0.0
C1692 C 0.60364 0.20671 0.86483 0.0
C1693 C 0.57971 0.20929 0.85817 0.0
C1694 C 0.62089 0.20208 0.8476 0.0
C1695 C 0.61436 0.2 0.82358 0.0
C1696 C 0.59014 0.20009 0.81736 0.0
C1697 C 0.57295 0.20465 0.83453 0.0
C1698 C 0.65 0.22948 0.77665 0.0
C1699 C 0.67235 0.21922 0.7798 0.0
C1700 C 0.63028 0.22133 0.78914 0.0
C1701 C 0.63274 0.20304 0.80521 0.0
C1702 C 0.65447 0.1912 0.80645 0.0
C1703 C 0.67413 0.19909 0.79359 0.0
H1704 H -0.00496 0.32527 0.11802 0.0
H1705 H 0.02028 0.29064 0.05428 0.0
H1706 H -0.00392 0.36266 0.09805 0.0
H1707 H 0.02165 0.32822 0.03439 0.0
H1708 H 0.02386 0.4285 0.06527 0.0
H1709 H 0.02622 0.39005 0.08285 0.0
H1710 H -0.0054 0.35852 0.01991 0.0
H1711 H -0.00745 0.39693 0.00206 0.0
C1712 C 0.00075 0.32563 0.09972 0.0
C1713 C 0.00758 0.30502 0.08772 0.0
C1714 C 0.00157 0.34709 0.08835 0.0
C1715 C 0.00922 0.3484 0.06474 0.0
C1716 C 0.0156 0.32772 0.05257 0.0
C1717 C 0.01483 0.30623 0.06397 0.0
C1718 C 0.01772 0.41336 0.055 0.0
C1719 C 0.00779 0.41586 0.03233 0.0
C1720 C 0.0189 0.39135 0.06517 0.0
C1721 C 0.01021 0.37134 0.05292 0.0
C1722 C 0.00148 0.37362 0.02977 0.0
C1723 C 0.00027 0.39566 0.01957 0.0
H1724 H 0.97222 0.74212 0.32061 0.0
H1725 H 0.94942 0.76073 0.39133 0.0
H1726 H 0.93155 0.74493 0.30639 0.0
H1727 H 0.90867 0.76553 0.37691 0.0
H1728 H 0.83436 0.74804 0.34824 0.0
H1729 H 0.87478 0.74635 0.36371 0.0
H1730 H 0.90201 0.77007 0.29649 0.0
H1731 H 0.86155 0.76977 0.28064 0.0
C1732 C 0.95839 0.74715 0.33303 0.0
C1733 C 0.96376 0.75122 0.357 0.0
C1734 C 0.93508 0.74905 0.32486 0.0
C1735 C 0.91668 0.75579 0.34037 0.0
C1736 C 0.92221 0.75995 0.36447 0.0
C1737 C 0.94553 0.75734 0.37277 0.0
C1738 C 0.84908 0.75297 0.33688 0.0
C1739 C 0.84502 0.75888 0.31325 0.0
C1740 C 0.87227 0.75218 0.34577 0.0
C1741 C 0.89185 0.75791 0.33137 0.0
C1742 C 0.88752 0.76483 0.30795 0.0
C1743 C 0.86436 0.7649 0.29887 0.0
H1744 H 0.52623 0.30857 0.95367 0.0
H1745 H 0.57049 0.33807 0.89891 0.0
H1746 H 0.51892 0.34778 0.96961 0.0
H1747 H 0.5635 0.37718 0.91518 0.0
H1748 H 0.51115 0.43771 0.92249 0.0
H1749 H 0.52592 0.39895 0.91305 0.0
H1750 H 0.53407 0.3854 0.98755 0.0
H1751 H 0.51896 0.42448 -0.0028 0.0
C1752 C 0.53501 0.32333 0.94545 0.0
C1753 C 0.54849 0.32024 0.92466 0.0
C1754 C 0.53083 0.34581 0.95465 0.0
C1755 C 0.54014 0.36554 0.94326 0.0
C1756 C 0.55558 0.36227 0.92394 0.0
C1757 C 0.55971 0.33985 0.9147 0.0
C1758 C 0.51599 0.42654 0.93694 0.0
C1759 C 0.51383 0.43424 0.96061 0.0
C1760 C 0.52476 0.40438 0.93151 0.0
C1761 C 0.53158 0.38929 0.94957 0.0
C1762 C 0.52902 0.39671 0.97329 0.0
C1763 C 0.5203 0.41904 0.97877 0.0
H1764 H 0.94789 0.19036 0.19338 0.0
H1765 H 0.93768 0.25626 0.15853 0.0
H1766 H 0.90607 0.18987 0.20499 0.0
H1767 H 0.89566 0.25578 0.17058 0.0
H1768 H 0.83132 0.25349 0.22572 0.0
H1769 H 0.8727 0.25615 0.21223 0.0
H1770 H 0.86612 0.18717 0.18001 0.0
H1771 H 0.82469 0.18451 0.19315 0.0
C1772 C 0.93678 0.20485 0.18837 0.0
C1773 C 0.94604 0.22336 0.17502 0.0
C1774 C 0.91284 0.20445 0.19488 0.0
C1775 C 0.89779 0.2227 0.1885 0.0
C1776 C 0.90705 0.24153 0.17567 0.0
C1777 C 0.93099 0.24176 0.16877 0.0
C1778 C 0.83868 0.23895 0.21567 0.0
C1779 C 0.82486 0.21872 0.21059 0.0
C1780 C 0.86224 0.24056 0.20786 0.0
C1781 C 0.87243 0.22183 0.19523 0.0
C1782 C 0.85858 0.20176 0.18988 0.0
C1783 C 0.83491 0.20029 0.19732 0.0
H1784 H 0.04897 0.66473 0.46122 0.0
H1785 H 0.97763 0.66045 0.43221 0.0
H1786 H 0.0472 0.623 0.46975 0.0
H1787 H 0.97545 0.61906 0.44154 0.0
H1788 H -0.0095 0.54352 0.42709 0.0
H1789 H -0.0061 0.58571 0.42345 0.0
H1790 H 0.02974 0.59063 0.49123 0.0
H1791 H 0.02697 0.54798 0.4945 0.0
C1792 C 0.03261 0.65504 0.45739 0.0
C1793 C 0.01353 0.66573 0.44578 0.0
C1794 C 0.03163 0.63111 0.46223 0.0
C1795 C 0.01144 0.61757 0.45571 0.0
C1796 C -0.00841 0.62883 0.44604 0.0
C1797 C -0.00731 0.65261 0.44095 0.0
C1798 C -0.00059 0.55356 0.44108 0.0
C1799 C 0.00834 0.54249 0.46113 0.0
C1800 C 0.00109 0.57779 0.43915 0.0
C1801 C 0.01147 0.59163 0.45738 0.0
C1802 C 0.02156 0.58048 0.47693 0.0
C1803 C 0.02007 0.55606 0.47875 0.0
H1804 H 0.57854 0.77563 0.61911 0.0
H1805 H 0.53892 0.80307 0.67886 0.0
H1806 H 0.61579 0.78231 0.641 0.0
H1807 H 0.57598 0.81022 0.70039 0.0
H1808 H 0.67942 0.81393 0.68121 0.0
H1809 H 0.64245 0.81283 0.65834 0.0
H1810 H 0.60498 0.78484 0.71848 0.0
H1811 H 0.64164 0.78634 0.74147 0.0
C1812 C 0.57784 0.78334 0.63677 0.0
C1813 C 0.55588 0.78852 0.64744 0.0
C1814 C 0.59912 0.78729 0.64924 0.0
C1815 C 0.59872 0.79658 0.67248 0.0
C1816 C 0.57678 0.80263 0.68269 0.0
C1817 C 0.55559 0.79858 0.67032 0.0
C1818 C 0.66324 0.80778 0.68964 0.0
C1819 C 0.66348 0.80017 0.71316 0.0
C1820 C 0.64213 0.80702 0.67647 0.0
C1821 C 0.62089 0.7987 0.68661 0.0
C1822 C 0.62103 0.79163 0.71028 0.0
C1823 C 0.64208 0.79239 0.72343 0.0
H1824 H 0.61161 0.50477 0.63412 0.0
H1825 H 0.55801 0.51454 0.68821 0.0
H1826 H 0.5805 0.49254 0.606 0.0
H1827 H 0.52704 0.50199 0.66025 0.0
H1828 H 0.4826 0.51466 0.59059 0.0
H1829 H 0.50909 0.51847 0.62463 0.0
H1830 H 0.55088 0.46076 0.59775 0.0
H1831 H 0.52456 0.45703 0.56351 0.0
C1832 C 0.59323 0.5042 0.64001 0.0
C1833 C 0.58724 0.51078 0.66327 0.0
C1834 C 0.57544 0.49694 0.62403 0.0
C1835 C 0.55135 0.49614 0.63102 0.0
C1836 C 0.54542 0.50252 0.65435 0.0
C1837 C 0.56319 0.50973 0.67032 0.0
C1838 C 0.49692 0.50223 0.59231 0.0
C1839 C 0.50182 0.48593 0.57404 0.0
C1840 C 0.51216 0.50446 0.61183 0.0
C1841 C 0.53244 0.49034 0.61344 0.0
C1842 C 0.53575 0.4723 0.59657 0.0
C1843 C 0.52052 0.47005 0.57709 0.0
H1844 H 0.7021 0.39974 0.93223 0.0
H1845 H 0.68659 0.33403 0.966 0.0
H1846 H 0.71029 0.37863 0.89515 0.0
H1847 H 0.69426 0.31305 0.92861 0.0
H1848 H 0.69199 0.2914 0.84699 0.0
H1849 H 0.67817 0.31253 0.88239 0.0
H1850 H 0.74687 0.34712 0.88896 0.0
H1851 H 0.761 0.32559 0.85383 0.0
C1852 C 0.69968 0.38088 0.93154 0.0
C1853 C 0.69383 0.36848 0.95201 0.0
C1854 C 0.70459 0.36885 0.91041 0.0
C1855 C 0.70318 0.34432 0.90931 0.0
C1856 C 0.6955 0.33201 0.92918 0.0
C1857 C 0.69107 0.34399 0.95048 0.0
C1858 C 0.70417 0.30346 0.85605 0.0
C1859 C 0.72758 0.3069 0.84774 0.0
C1860 C 0.69624 0.31548 0.87623 0.0
C1861 C 0.71142 0.33151 0.88806 0.0
C1862 C 0.73482 0.33496 0.87985 0.0
C1863 C 0.74294 0.32255 0.85996 0.0
H1864 H 0.84245 0.49706 0.15129 0.0
H1865 H 0.89959 0.49054 0.20213 0.0
H1866 H 0.87139 0.50942 0.12161 0.0
H1867 H 0.92829 0.50361 0.17292 0.0
H1868 H 0.97124 0.48969 0.10394 0.0
H1869 H 0.94522 0.48645 0.13803 0.0
H1870 H 0.89946 0.53952 0.10974 0.0
H1871 H 0.92521 0.54233 0.07521 0.0
C1872 C 0.86112 0.49857 0.15617 0.0
C1873 C 0.86884 0.49249 0.17882 0.0
C1874 C 0.87769 0.50586 0.1393 0.0
C1875 C 0.90218 0.5074 0.14492 0.0
C1876 C 0.90964 0.50222 0.16792 0.0
C1877 C 0.89317 0.49474 0.18464 0.0
C1878 C 0.95601 0.50114 0.10527 0.0
C1879 C 0.95005 0.51595 0.0867 0.0
C1880 C 0.94106 0.4993 0.12485 0.0
C1881 C 0.92001 0.51242 0.12634 0.0
C1882 C 0.91522 0.52876 0.10877 0.0
C1883 C 0.93009 0.53049 0.08911 0.0
H1884 H 0.75886 0.68964 0.48073 0.0
H1885 H 0.71417 0.63276 0.45427 0.0
H1886 H 0.75538 0.70909 0.44309 0.0
H1887 H 0.70921 0.65288 0.41698 0.0
H1888 H 0.72976 0.68235 0.34449 0.0
H1889 H 0.72836 0.66268 0.38227 0.0
H1890 H 0.73079 0.73003 0.41886 0.0
H1891 H 0.73391 0.74939 0.38099 0.0
C1892 C 0.74805 0.68146 0.46687 0.0
C1893 C 0.73691 0.65968 0.4703 0.0
C1894 C 0.74577 0.69272 0.44533 0.0
C1895 C 0.73179 0.68274 0.42689 0.0
C1896 C 0.72043 0.66098 0.43054 0.0
C1897 C 0.72318 0.64945 0.45193 0.0
C1898 C 0.72957 0.69288 0.36066 0.0
C1899 C 0.73213 0.71732 0.35994 0.0
C1900 C 0.72872 0.68163 0.38238 0.0
C1901 C 0.72988 0.69469 0.40379 0.0
C1902 C 0.73068 0.71931 0.40284 0.0
C1903 C 0.73217 0.73047 0.38116 0.0
H1904 H 0.61991 0.51397 0.79707 0.0
H1905 H 0.59081 0.58361 0.79392 0.0
H1906 H 0.60568 0.5108 0.83775 0.0
H1907 H 0.57684 0.5804 0.83464 0.0
H1908 H 0.56772 0.56812 0.91524 0.0
H1909 H 0.59095 0.57345 0.8789 0.0
H1910 H 0.5604 0.5094 0.84953 0.0
H1911 H 0.53705 0.50422 0.88532 0.0
C1912 C 0.611 0.52878 0.80523 0.0
C1913 C 0.60612 0.54889 0.79224 0.0
C1914 C 0.60285 0.52693 0.82844 0.0
C1915 C 0.59007 0.5453 0.8391 0.0
C1916 C 0.58676 0.56607 0.82677 0.0
C1917 C 0.59459 0.5678 0.80345 0.0
C1918 C 0.56607 0.55519 0.90101 0.0
C1919 C 0.55045 0.53587 0.90297 0.0
C1920 C 0.57935 0.55823 0.88034 0.0
C1921 C 0.57756 0.54169 0.86167 0.0
C1922 C 0.56232 0.5222 0.86386 0.0
C1923 C 0.54876 0.5194 0.88423 0.0
H1924 H 0.72117 0.34127 0.1106 0.0
H1925 H 0.70308 0.29419 0.05222 0.0
H1926 H 0.71551 0.30935 0.13817 0.0
H1927 H 0.69783 0.26207 0.07998 0.0
H1928 H 0.73009 0.21378 0.14269 0.0
H1929 H 0.72748 0.24108 0.11005 0.0
H1930 H 0.67819 0.28323 0.15051 0.0
H1931 H 0.68047 0.25596 0.18304 0.0
C1932 C 0.7162 0.32406 0.10365 0.0
C1933 C 0.7126 0.32017 0.0793 0.0
C1934 C 0.7127 0.3059 0.11943 0.0
C1935 C 0.70589 0.28345 0.11112 0.0
C1936 C 0.7029 0.27932 0.08673 0.0
C1937 C 0.70599 0.29764 0.07094 0.0
C1938 C 0.71806 0.22843 0.14429 0.0
C1939 C 0.70576 0.23292 0.16554 0.0
C1940 C 0.71658 0.24401 0.12562 0.0
C1941 C 0.70301 0.26437 0.1281 0.0
C1942 C 0.68901 0.26773 0.14841 0.0
C1943 C 0.69019 0.252 0.16692 0.0
H1944 H 0.89098 0.40506 0.28383 0.0
H1945 H 0.85134 0.46308 0.31361 0.0
H1946 H 0.91585 0.40463 0.31931 0.0
H1947 H 0.87597 0.4623 0.34909 0.0
H1948 H 0.94447 0.47912 0.38777 0.0
H1949 H 0.91874 0.47386 0.35347 0.0
H1950 H 0.91712 0.3991 0.36376 0.0
H1951 H 0.94329 0.40433 0.3984 0.0
C1952 C 0.88721 0.41738 0.29812 0.0
C1953 C 0.86947 0.43443 0.29571 0.0
C1954 C 0.90144 0.41706 0.31844 0.0
C1955 C 0.89815 0.43376 0.33664 0.0
C1956 C 0.87924 0.44959 0.33501 0.0
C1957 C 0.86504 0.44993 0.31475 0.0
C1958 C 0.93887 0.46149 0.38264 0.0
C1959 C 0.94567 0.44215 0.39594 0.0
C1960 C 0.92395 0.45852 0.36311 0.0
C1961 C 0.91542 0.43615 0.35639 0.0
C1962 C 0.92333 0.41656 0.36873 0.0
C1963 C 0.93837 0.41955 0.38843 0.0
H1964 H 0.77718 0.69109 0.57698 0.0
H1965 H 0.76745 0.64832 0.63861 0.0
H1966 H 0.79105 0.72359 0.60236 0.0
H1967 H 0.78086 0.68079 0.66383 0.0
H1968 H 0.80832 0.73718 0.70756 0.0
H1969 H 0.81304 0.70777 0.67617 0.0
H1970 H 0.7689 0.74844 0.63005 0.0
H1971 H 0.76458 0.77802 0.66109 0.0
C1972 C 0.77824 0.68852 0.59589 0.0
C1973 C 0.77082 0.66725 0.60584 0.0
C1974 C 0.78624 0.70712 0.61039 0.0
C1975 C 0.78704 0.70477 0.63507 0.0
C1976 C 0.78084 0.68308 0.64484 0.0
C1977 C 0.77283 0.66453 0.63039 0.0
C1978 C 0.80033 0.74028 0.69046 0.0
C1979 C 0.78541 0.75956 0.68706 0.0
C1980 C 0.80294 0.72335 0.67252 0.0
C1981 C 0.79075 0.72546 0.65094 0.0
C1982 C 0.77845 0.74622 0.64652 0.0
C1983 C 0.77586 0.76316 0.66442 0.0
H1984 H 0.68167 0.56406 0.55103 0.0
H1985 H 0.65216 0.63279 0.54129 0.0
H1986 H 0.64394 0.54613 0.53966 0.0
H1987 H 0.61367 0.6147 0.53076 0.0
H1988 H 0.56221 0.57332 0.48123 0.0
H1989 H 0.59792 0.59284 0.49719 0.0
H1990 H 0.6038 0.53928 0.54985 0.0
H1991 H 0.56891 0.51934 0.53329 0.0
C1992 C 0.6669 0.57538 0.54698 0.0
C1993 C 0.66993 0.59982 0.54676 0.0
C1994 C 0.64517 0.56507 0.54057 0.0
C1995 C 0.62583 0.57897 0.53406 0.0
C1996 C 0.62841 0.60352 0.53522 0.0
C1997 C 0.65032 0.61388 0.54151 0.0
C1998 C 0.57132 0.56565 0.49606 0.0
C1999 C 0.563 0.54464 0.50577 0.0
C2000 C 0.59156 0.57698 0.50542 0.0
C2001 C 0.60366 0.56766 0.52485 0.0
C2002 C 0.59515 0.54674 0.53464 0.0
C2003 C 0.57517 0.53526 0.52509 0.0
H2004 H 0.18766 0.94589 0.56394 0.0
H2005 H 0.14385 0.88764 0.53888 0.0
H2006 H 0.15198 0.96902 0.57073 0.0
H2007 H 0.10827 0.91088 0.54518 0.0
H2008 H 0.04652 0.95546 0.55409 0.0
H2009 H 0.08052 0.93431 0.5695 0.0
H2010 H 0.12845 0.98488 0.53833 0.0
H2011 H 0.09467 0.00613 0.52325 0.0
C2012 C 0.17036 0.93787 0.56039 0.0
C2013 C 0.16847 0.91526 0.55022 0.0
C2014 C 0.14998 0.95109 0.56433 0.0
C2015 C 0.12744 0.94193 0.55804 0.0
C2016 C 0.12541 0.91841 0.55029 0.0
C2017 C 0.1458 0.90514 0.54646 0.0
C2018 C 0.0643 0.96242 0.55108 0.0
C2019 C 0.06798 0.98211 0.53691 0.0
C2020 C 0.08373 0.95028 0.55992 0.0
C2021 C 0.10709 0.95775 0.55484 0.0
C2022 C 0.11065 0.97874 0.54269 0.0
C2023 C 0.09127 0.99081 0.53379 0.0
H2024 H 0.2938 0.90583 0.75246 0.0
H2025 H 0.35087 0.85571 0.74705 0.0
H2026 H 0.26504 0.87357 0.75758 0.0
H2027 H 0.32237 0.82395 0.75212 0.0
H2028 H 0.27427 0.77284 0.78379 0.0
H2029 H 0.29648 0.80974 0.78521 0.0
H2030 H 0.24885 0.83809 0.73323 0.0
H2031 H 0.22629 0.80113 0.73195 0.0
C2032 C 0.3002 0.88801 0.75227 0.0
C2033 C 0.32465 0.88335 0.74942 0.0
C2034 C 0.28375 0.86961 0.75523 0.0
C2035 C 0.29157 0.84635 0.7557 0.0
C2036 C 0.3159 0.84176 0.75241 0.0
C2037 C 0.33222 0.85999 0.74926 0.0
C2038 C 0.26812 0.78712 0.77311 0.0
C2039 C 0.24883 0.78393 0.75741 0.0
C2040 C 0.28091 0.8082 0.77386 0.0
C2041 C 0.27472 0.82649 0.75887 0.0
C2042 C 0.25402 0.82421 0.7449 0.0
C2043 C 0.24111 0.80305 0.7442 0.0
H2044 H 0.28647 0.12633 0.0357 0.0
H2045 H 0.26122 0.09075 0.09783 0.0
H2046 H 0.32225 0.10281 0.03565 0.0
H2047 H 0.29729 0.0668 0.09751 0.0
H2048 H 0.3792 0.04303 0.09264 0.0
H2049 H 0.34419 0.06777 0.09971 0.0
H2050 H 0.32442 0.05962 0.02607 0.0
H2051 H 0.35887 0.03536 0.01897 0.0
C2052 C 0.28866 0.11364 0.0495 0.0
C2053 C 0.27082 0.11007 0.0665 0.0
C2054 C 0.30915 0.10014 0.04944 0.0
C2055 C 0.31222 0.08267 0.06626 0.0
C2056 C 0.29525 0.08014 0.08431 0.0
C2057 C 0.27464 0.09379 0.08444 0.0
C2058 C 0.36714 0.04632 0.0781 0.0
C2059 C 0.372 0.03759 0.05517 0.0
C2060 C 0.3472 0.06046 0.08215 0.0
C2061 C 0.33202 0.06601 0.06329 0.0
C2062 C 0.33621 0.05614 0.04078 0.0
C2063 C 0.35593 0.04215 0.03676 0.0
H2064 H 0.70137 0.58222 0.73594 0.0
H2065 H 0.65523 0.62462 0.69339 0.0
H2066 H 0.72196 0.6178 0.75066 0.0
H2067 H 0.67565 0.65982 0.7082 0.0
H2068 H 0.6853 0.71213 0.76877 0.0
H2069 H 0.67283 0.674 0.753 0.0
H2070 H 0.74599 0.65732 0.737 0.0
H2071 H 0.75877 0.69586 0.75265 0.0
C2072 C 0.69614 0.59899 0.72912 0.0
C2073 C 0.67637 0.60066 0.71384 0.0
C2074 C 0.70785 0.61931 0.73765 0.0
C2075 C 0.69988 0.64144 0.73101 0.0
C2076 C 0.68173 0.64292 0.71397 0.0
C2077 C 0.67015 0.62275 0.7054 0.0
C2078 C 0.69887 0.70029 0.76231 0.0
C2079 C 0.72301 0.70724 0.76169 0.0
C2080 C 0.69168 0.67851 0.75312 0.0
C2081 C 0.70843 0.66306 0.7433 0.0
C2082 C 0.73276 0.66908 0.74432 0.0
C2083 C 0.74002 0.69108 0.75337 0.0
H2084 H 0.78121 0.427 0.97227 0.0
H2085 H 0.79733 0.39832 0.04055 0.0
H2086 H 0.82341 0.43644 0.96653 0.0
H2087 H 0.83966 0.40839 0.03498 0.0
H2088 H 0.89192 0.47516 0.02805 0.0
H2089 H 0.85406 0.45417 0.03135 0.0
H2090 H 0.86825 0.41667 0.9659 0.0
H2091 H 0.90689 0.43736 0.96279 0.0
C2092 C 0.7939 0.42236 0.98584 0.0
C2093 C 0.78614 0.41225 0.00699 0.0
C2094 C 0.81798 0.42755 0.98245 0.0
C2095 C 0.83455 0.42313 0.00035 0.0
C2096 C 0.82705 0.41184 0.02095 0.0
C2097 C 0.80296 0.40613 0.02413 0.0
C2098 C 0.88704 0.46244 0.01433 0.0
C2099 C 0.90216 0.45805 -0.00501 0.0
C2100 C 0.86556 0.45022 0.01644 0.0
C2101 C 0.85856 0.4337 -0.00096 0.0
C2102 C 0.87354 0.42924 0.97961 0.0
C2103 C 0.89544 0.44111 0.97778 0.0
H2104 H 0.3001 0.01748 0.72817 0.0
H2105 H 0.35864 0.04239 0.77225 0.0
H2106 H 0.28679 0.0578 0.72378 0.0
H2107 H 0.3452 0.08242 0.76813 0.0
H2108 H 0.25821 0.13161 0.74553 0.0
H2109 H 0.26995 0.09073 0.74712 0.0
H2110 H 0.34356 0.11131 0.73662 0.0
H2111 H 0.33198 0.15223 0.73541 0.0
C2112 C 0.30994 0.03151 0.73713 0.0
C2113 C 0.33045 0.02678 0.75049 0.0
C2114 C 0.30234 0.05457 0.73461 0.0
C2115 C 0.31515 0.07328 0.74535 0.0
C2116 C 0.33526 0.06843 0.75921 0.0
C2117 C 0.34282 0.04545 0.76175 0.0
C2118 C 0.27688 0.12743 0.74328 0.0
C2119 C 0.29419 0.14525 0.74057 0.0
C2120 C 0.28357 0.10398 0.74413 0.0
C2121 C 0.3077 0.09786 0.74231 0.0
C2122 C 0.32487 0.11556 0.73855 0.0
C2123 C 0.3182 0.13899 0.73768 0.0
H2124 H 0.18811 0.97055 0.19454 0.0
H2125 H 0.14462 0.94851 0.25327 0.0
H2126 H 0.19935 0.93005 0.18669 0.0
H2127 H 0.15659 0.90818 0.24611 0.0
H2128 H 0.16418 0.83584 0.21951 0.0
H2129 H 0.15083 0.87624 0.21914 0.0
H2130 H 0.22244 0.89919 0.2019 0.0
H2131 H 0.23544 0.85866 0.20125 0.0
C2132 C 0.18124 0.95707 0.20599 0.0
C2133 C 0.1655 0.96267 0.22455 0.0
C2134 C 0.18767 0.93385 0.20147 0.0
C2135 C 0.17867 0.91577 0.21556 0.0
C2136 C 0.16336 0.92154 0.23447 0.0
C2137 C 0.15672 0.9447 0.23881 0.0
C2138 C 0.17686 0.84949 0.21494 0.0
C2139 C 0.20087 0.84416 0.2106 0.0
C2140 C 0.16932 0.87267 0.21504 0.0
C2141 C 0.18571 0.89104 0.2112 0.0
C2142 C 0.20931 0.88551 0.20493 0.0
C2143 C 0.21677 0.86224 0.20447 0.0
H2144 H 0.54406 0.34292 0.364 0.0
H2145 H 0.53065 0.31404 0.43284 0.0
H2146 H 0.54007 0.38262 0.38096 0.0
H2147 H 0.52711 0.35345 0.44974 0.0
H2148 H 0.53741 0.42817 0.47567 0.0
H2149 H 0.55116 0.39212 0.45652 0.0
H2150 H 0.50144 0.4018 0.39919 0.0
H2151 H 0.48745 0.43783 0.41834 0.0
C2152 C 0.54091 0.34511 0.38282 0.0
C2153 C 0.53751 0.32554 0.39713 0.0
C2154 C 0.53849 0.36772 0.39245 0.0
C2155 C 0.53322 0.37096 0.41659 0.0
C2156 C 0.53135 0.3514 0.43111 0.0
C2157 C 0.53326 0.32889 0.42143 0.0
C2158 C 0.52958 0.42278 0.45885 0.0
C2159 C 0.51114 0.43569 0.44863 0.0
C2160 C 0.53749 0.40219 0.44792 0.0
C2161 C 0.52737 0.39432 0.42642 0.0
C2162 C 0.50969 0.4077 0.41565 0.0
C2163 C 0.50153 0.42815 0.42674 0.0
H2164 H 0.43555 0.78028 0.16052 0.0
H2165 H 0.43367 0.73211 0.21863 0.0
H2166 H 0.39862 0.79737 0.17392 0.0
H2167 H 0.39576 0.74883 0.23159 0.0
H2168 H 0.33879 0.79529 0.26098 0.0
H2169 H 0.37899 0.78471 0.24885 0.0
H2170 H 0.35735 0.78712 0.17548 0.0
H2171 H 0.31751 0.79827 0.18746 0.0
C2172 C 0.42712 0.77309 0.17605 0.0
C2173 C 0.43758 0.75472 0.18851 0.0
C2174 C 0.40586 0.78295 0.1837 0.0
C2175 C 0.39431 0.77456 0.20386 0.0
C2176 C 0.40452 0.75597 0.21621 0.0
C2177 C 0.42602 0.74615 0.20863 0.0
C2178 C 0.34279 0.79427 0.24224 0.0
C2179 C 0.32481 0.79728 0.22518 0.0
C2180 C 0.36574 0.78786 0.23533 0.0
C2181 C 0.37115 0.78449 0.21126 0.0
C2182 C 0.35376 0.78954 0.19419 0.0
C2183 C 0.33087 0.79598 0.20108 0.0
H2184 H 0.94142 0.6711 0.88791 0.0
H2185 H 0.97258 0.69474 0.95439 0.0
H2186 H 0.93131 0.63347 0.90538 0.0
H2187 H 0.96217 0.65723 0.97184 0.0
H2188 H 0.93502 0.5873 -0.00192 0.0
H2189 H 0.9279 0.626 0.98136 0.0
H2190 H 0.96546 0.60499 0.91789 0.0
H2191 H 0.97304 0.56684 0.93471 0.0
C2192 C 0.94545 0.66853 0.90643 0.0
C2193 C 0.95821 0.68561 0.9197 0.0
C2194 C 0.93963 0.64705 0.91639 0.0
C2195 C 0.94612 0.64252 0.93984 0.0
C2196 C 0.95683 0.6604 0.95375 0.0
C2197 C 0.96297 0.68176 0.94371 0.0
C2198 C 0.94123 0.59088 0.98036 0.0
C2199 C 0.95477 0.57434 0.9677 0.0
C2200 C 0.93718 0.61292 0.97086 0.0
C2201 C 0.94606 0.61831 0.94836 0.0
C2202 C 0.95816 0.60113 0.93515 0.0
C2203 C 0.96269 0.57942 0.94483 0.0
H2204 H 0.0658 0.24616 0.70621 0.0
H2205 H 0.09108 0.25086 0.63422 0.0
H2206 H 0.10577 0.2362 0.71927 0.0
H2207 H 0.13107 0.24047 0.64727 0.0
H2208 H 0.2024 0.25378 0.68752 0.0
H2209 H 0.16281 0.25885 0.67111 0.0
H2210 H 0.1353 0.20459 0.71615 0.0
H2211 H 0.17511 0.19976 0.73308 0.0
C2212 C 0.07991 0.24506 0.69317 0.0
C2213 C 0.07537 0.24942 0.66921 0.0
C2214 C 0.10273 0.23907 0.70062 0.0
C2215 C 0.12149 0.23736 0.68426 0.0
C2216 C 0.11697 0.24178 0.66029 0.0
C2217 C 0.0941 0.24775 0.65283 0.0
C2218 C 0.188 0.2427 0.69378 0.0
C2219 C 0.19182 0.22655 0.71182 0.0
C2220 C 0.16532 0.24552 0.68422 0.0
C2221 C 0.14593 0.23227 0.69249 0.0
C2222 C 0.14991 0.21528 0.70971 0.0
C2223 C 0.1727 0.21239 0.71925 0.0
H2224 H 0.5002 0.66182 0.12348 0.0
H2225 H 0.52276 0.71595 0.0757 0.0
H2226 H 0.49993 0.63331 0.09045 0.0
H2227 H 0.52301 0.68722 0.04293 0.0
H2228 H 0.54508 0.6106 0.00649 0.0
H2229 H 0.54747 0.64254 0.03618 0.0
H2230 H 0.4717 0.63633 0.04812 0.0
H2231 H 0.46891 0.60509 0.01833 0.0
C2232 C 0.50535 0.66753 0.10603 0.0
C2233 C 0.51132 0.69106 0.10207 0.0
C2234 C 0.50514 0.65131 0.08722 0.0
C2235 C 0.51143 0.6583 0.06436 0.0
C2236 C 0.51817 0.68158 0.06049 0.0
C2237 C 0.51788 0.69793 0.07918 0.0
C2238 C 0.52886 0.61643 0.01504 0.0
C2239 C 0.50686 0.60517 0.01017 0.0
C2240 C 0.53028 0.63459 0.032 0.0
C2241 C 0.50981 0.64139 0.04449 0.0
C2242 C 0.4877 0.63106 0.0388 0.0
C2243 C 0.48618 0.61329 0.02163 0.0
H2244 H 0.06017 0.69455 0.84796 0.0
H2245 H 0.02259 0.74073 0.80144 0.0
H2246 H 0.08976 0.68749 0.8172 0.0
H2247 H 0.05223 0.73355 0.77061 0.0
H2248 H 0.13338 0.66824 0.75555 0.0
H2249 H 0.09552 0.67041 0.77641 0.0
H2250 H 0.09568 0.74551 0.76864 0.0
H2251 H 0.13357 0.74344 0.7476 0.0
C2252 C 0.05806 0.7029 0.83105 0.0
C2253 C 0.03928 0.71836 0.82716 0.0
C2254 C 0.07485 0.69871 0.81337 0.0
C2255 C 0.07322 0.71001 0.79156 0.0
C2256 C 0.05391 0.72475 0.78733 0.0
C2257 C 0.03699 0.7288 0.80495 0.0
C2258 C 0.12513 0.68519 0.75783 0.0
C2259 C 0.13672 0.70577 0.75044 0.0
C2260 C 0.10348 0.68638 0.76979 0.0
C2261 C 0.09299 0.70814 0.77447 0.0
C2262 C 0.10342 0.72849 0.7652 0.0
C2263 C 0.12515 0.72732 0.75324 0.0
H2264 H 0.97319 0.32866 0.6167 0.0
H2265 H 0.97141 0.26982 0.56732 0.0
H2266 H 0.95756 0.35373 0.58613 0.0
H2267 H 0.95536 0.29486 0.53683 0.0
H2268 H 0.97118 0.35922 0.48711 0.0
H2269 H 0.97284 0.32683 0.51419 0.0
H2270 H 0.92315 0.362 0.56073 0.0
H2271 H 0.92175 0.39471 0.53382 0.0
C2272 C 0.9692 0.32104 0.5994 0.0
C2273 C 0.97381 0.29739 0.59431 0.0
C2274 C 0.95995 0.33531 0.58196 0.0
C2275 C 0.9551 0.3262 0.55909 0.0
C2276 C 0.95903 0.30236 0.55424 0.0
C2277 C 0.96827 0.28808 0.57169 0.0
C2278 C 0.95989 0.35971 0.50265 0.0
C2279 C 0.94693 0.37986 0.5087 0.0
C2280 C 0.96084 0.34108 0.51821 0.0
C2281 C 0.94869 0.34226 0.53992 0.0
C2282 C 0.93323 0.36098 0.54441 0.0
C2283 C 0.93232 0.37963 0.5289 0.0
H2284 H 0.49023 0.27826 0.28356 0.0
H2285 H 0.44642 0.24044 0.33323 0.0
H2286 H 0.45729 0.27736 0.25511 0.0
H2287 H 0.41369 0.23951 0.30473 0.0
H2288 H 0.36306 0.22783 0.24544 0.0
H2289 H 0.40272 0.22287 0.26306 0.0
H2290 H 0.41635 0.2972 0.25752 0.0
H2291 H 0.37677 0.30205 0.24035 0.0
C2292 C 0.47363 0.26968 0.28836 0.0
C2293 C 0.4708 0.25962 0.31071 0.0
C2294 C 0.4549 0.26908 0.27204 0.0
C2295 C 0.43317 0.25809 0.27766 0.0
C2296 C 0.43047 0.24768 0.29981 0.0
C2297 C 0.44906 0.24854 0.31624 0.0
C2298 C 0.37505 0.24282 0.24708 0.0
C2299 C 0.36722 0.26526 0.24156 0.0
C2300 C 0.39753 0.24006 0.25731 0.0
C2301 C 0.41236 0.25971 0.26181 0.0
C2302 C 0.40532 0.28178 0.25408 0.0
C2303 C 0.38276 0.28456 0.24425 0.0
H2304 H 0.41929 0.57376 0.29422 0.0
H2305 H 0.47772 0.52715 0.27844 0.0
H2306 H 0.4304 0.57429 0.33583 0.0
H2307 H 0.48894 0.52812 0.32043 0.0
H2308 H 0.50476 0.55103 0.40066 0.0
H2309 H 0.5001 0.55936 0.35838 0.0
H2310 H 0.42725 0.53402 0.36083 0.0
H2311 H 0.43196 0.52521 0.4026 0.0
C2312 C 0.43483 0.56402 0.2995 0.0
C2313 C 0.44733 0.54996 0.28311 0.0
C2314 C 0.44118 0.56445 0.32331 0.0
C2315 C 0.4603 0.55109 0.33114 0.0
C2316 C 0.47415 0.53863 0.31462 0.0
C2317 C 0.46767 0.53801 0.29068 0.0
C2318 C 0.48772 0.54751 0.39214 0.0
C2319 C 0.4687 0.53747 0.40476 0.0
C2320 C 0.48514 0.55216 0.36806 0.0
C2321 C 0.46333 0.54739 0.35663 0.0
C2322 C 0.44417 0.538 0.36944 0.0
C2323 C 0.4469 0.53289 0.39324 0.0
H2324 H 0.26827 0.61548 0.10531 0.0
H2325 H 0.27544 0.67025 0.054 0.0
H2326 H 0.26552 0.64454 0.13672 0.0
H2327 H 0.27385 0.6997 0.08594 0.0
H2328 H 0.23643 0.74331 0.1454 0.0
H2329 H 0.24548 0.71655 0.11228 0.0
H2330 H 0.28473 0.67274 0.15989 0.0
H2331 H 0.27443 0.69853 0.19279 0.0
C2332 C 0.2699 0.63376 0.10075 0.0
C2333 C 0.2719 0.64047 0.07705 0.0
C2334 C 0.26845 0.65056 0.1189 0.0
C2335 C 0.26934 0.6746 0.11397 0.0
C2336 C 0.27264 0.68136 0.09037 0.0
C2337 C 0.27384 0.66447 0.07208 0.0
C2338 C 0.24695 0.72791 0.14863 0.0
C2339 C 0.25424 0.72267 0.17168 0.0
C2340 C 0.25237 0.71268 0.12967 0.0
C2341 C 0.2656 0.69222 0.1334 0.0
C2342 C 0.27389 0.68785 0.15637 0.0
C2343 C 0.26802 0.70269 0.17527 0.0
H2344 H 0.01879 0.4842 0.79254 0.0
H2345 H 0.08961 0.46537 0.8153 0.0
H2346 H 0.00563 0.48521 0.83379 0.0
H2347 H 0.07641 0.46655 0.85641 0.0
H2348 H 0.04798 0.50185 0.92581 0.0
H2349 H 0.06163 0.49878 0.88497 0.0
H2350 H 0.00077 0.45464 0.86727 0.0
H2351 H 0.98705 0.45754 0.90837 0.0
C2352 C 0.03157 0.48047 0.80633 0.0
C2353 C 0.05524 0.47475 0.80071 0.0
C2354 C 0.02397 0.48081 0.82986 0.0
C2355 C 0.04 0.4758 0.84814 0.0
C2356 C 0.06375 0.47051 0.84258 0.0
C2357 C 0.07126 0.46984 0.81907 0.0
C2358 C 0.0376 0.49131 0.91328 0.0
C2359 C 0.01642 0.47996 0.92023 0.0
C2360 C 0.04547 0.48952 0.88995 0.0
C2361 C 0.03215 0.4766 0.87305 0.0
C2362 C 0.0112 0.46487 0.88001 0.0
C2363 C 0.00349 0.46637 0.9035 0.0
H2364 H 0.25478 0.2773 0.56844 0.0
H2365 H 0.29717 0.33993 0.5813 0.0
H2366 H 0.27512 0.2582 0.60077 0.0
H2367 H 0.31865 0.32048 0.61269 0.0
H2368 H 0.3087 0.29617 0.69015 0.0
H2369 H 0.30672 0.31209 0.65096 0.0
H2370 H 0.30834 0.24195 0.62051 0.0
H2371 H 0.3096 0.22603 0.66046 0.0
C2372 C 0.26887 0.28676 0.57786 0.0
C2373 C 0.27398 0.31026 0.57288 0.0
C2374 C 0.28081 0.27572 0.59621 0.0
C2375 C 0.2984 0.28787 0.60963 0.0
C2376 C 0.30481 0.31078 0.60317 0.0
C2377 C 0.29249 0.32196 0.58522 0.0
C2378 C 0.30968 0.28423 0.67503 0.0
C2379 C 0.30907 0.25995 0.67819 0.0
C2380 C 0.30859 0.29333 0.65243 0.0
C2381 C 0.30681 0.2783 0.63245 0.0
C2382 C 0.30913 0.25399 0.63556 0.0
C2383 C 0.31024 0.24485 0.65837 0.0
H2384 H 0.4363 0.54425 0.16208 0.0
H2385 H 0.363 0.55448 0.14097 0.0
H2386 H 0.44531 0.52879 0.12281 0.0
H2387 H 0.37216 0.53881 0.10138 0.0
H2388 H 0.41638 0.54332 0.02898 0.0
H2389 H 0.39767 0.55146 0.06704 0.0
H2390 H 0.43517 0.49362 0.09735 0.0
H2391 H 0.45423 0.48558 0.05943 0.0
C2392 C 0.42211 0.54324 0.14903 0.0
C2393 C 0.39896 0.5506 0.15458 0.0
C2394 C 0.4272 0.53408 0.12662 0.0
C2395 C 0.4093 0.53219 0.10922 0.0
C2396 C 0.38621 0.53995 0.11456 0.0
C2397 C 0.38104 0.54898 0.13713 0.0
C2398 C 0.42013 0.53188 0.04355 0.0
C2399 C 0.43737 0.51425 0.04138 0.0
C2400 C 0.40933 0.53653 0.06535 0.0
C2401 C 0.41554 0.52357 0.08522 0.0
C2402 C 0.43057 0.50422 0.08236 0.0
C2403 C 0.44136 0.49955 0.0606 0.0
H2404 H 0.25358 0.6705 0.94327 0.0
H2405 H 0.23314 0.60104 0.91824 0.0
H2406 H 0.25206 0.68439 0.90251 0.0
H2407 H 0.23206 0.61471 0.87792 0.0
H2408 H 0.20528 0.65159 0.81364 0.0
H2409 H 0.20721 0.64023 0.85467 0.0
H2410 H 0.27329 0.67923 0.86366 0.0
H2411 H 0.2712 0.69115 0.82232 0.0
C2412 C 0.24873 0.65825 0.92912 0.0
C2413 C 0.24332 0.63473 0.93397 0.0
C2414 C 0.24805 0.66614 0.90582 0.0
C2415 C 0.24184 0.65065 0.88706 0.0
C2416 C 0.23653 0.62717 0.89202 0.0
C2417 C 0.23724 0.61931 0.91516 0.0
C2418 C 0.2203 0.65778 0.82424 0.0
C2419 C 0.23819 0.67217 0.8146 0.0
C2420 C 0.22142 0.65118 0.84779 0.0
C2421 C 0.24047 0.65872 0.86234 0.0
C2422 C 0.25829 0.67331 0.85288 0.0
C2423 C 0.25719 0.67995 0.82918 0.0
H2424 H 0.09769 0.42184 0.652 0.0
H2425 H 0.03351 0.44178 0.68921 0.0
H2426 H 0.0782 0.42974 0.61436 0.0
H2427 H 0.01439 0.45033 0.65182 0.0
H2428 H 0.98052 0.44353 0.5786 0.0
H2429 H -0.0012 0.43316 0.61588 0.0
H2430 H 0.06553 0.4643 0.59351 0.0
H2431 H 0.04743 0.4741 0.55578 0.0
C2432 C 0.07936 0.42765 0.65212 0.0
C2433 C 0.06718 0.43131 0.67354 0.0
C2434 C 0.0683 0.43244 0.63061 0.0
C2435 C 0.04488 0.441 0.63015 0.0
C2436 C 0.03238 0.44364 0.65154 0.0
C2437 C 0.04338 0.43876 0.67299 0.0
C2438 C -0.00097 0.44841 0.58168 0.0
C2439 C 0.01253 0.45963 0.56417 0.0
C2440 C 0.0095 0.44245 0.60308 0.0
C2441 C 0.03367 0.4477 0.60755 0.0
C2442 C 0.04699 0.45957 0.59037 0.0
C2443 C 0.03654 0.46544 0.56887 0.0
H2444 H 0.20413 0.34007 0.42007 0.0
H2445 H 0.26372 0.30669 0.45386 0.0
H2446 H 0.2138 0.31999 0.38288 0.0
H2447 H 0.27335 0.2867 0.41655 0.0
H2448 H 0.29971 0.29341 0.33706 0.0
H2449 H 0.28865 0.30345 0.37768 0.0
H2450 H 0.21661 0.27902 0.36389 0.0
H2451 H 0.22756 0.26888 0.32322 0.0
C2452 C 0.21912 0.32828 0.41962 0.0
C2453 C 0.2333 0.32514 0.43981 0.0
C2454 C 0.22452 0.31664 0.39841 0.0
C2455 C 0.24432 0.30185 0.39695 0.0
C2456 C 0.25806 0.29811 0.41727 0.0
C2457 C 0.2525 0.30953 0.43858 0.0
C2458 C 0.28163 0.28976 0.3428 0.0
C2459 C 0.26443 0.28064 0.32687 0.0
C2460 C 0.27535 0.29538 0.36608 0.0
C2461 C 0.25174 0.29217 0.37375 0.0
C2462 C 0.23487 0.28184 0.35826 0.0
C2463 C 0.2412 0.27596 0.33505 0.0
H2464 H 0.27192 0.44033 0.47751 0.0
H2465 H 0.30108 0.39577 0.5311 0.0
H2466 H 0.30937 0.46255 0.47673 0.0
H2467 H 0.3385 0.41815 0.53028 0.0
H2468 H 0.39367 0.47905 0.53619 0.0
H2469 H 0.35447 0.45998 0.53939 0.0
H2470 H 0.35135 0.45151 0.46333 0.0
H2471 H 0.3904 0.47038 0.46003 0.0
C2472 C 0.28623 0.43539 0.48926 0.0
C2473 C 0.2836 0.4162 0.50426 0.0
C2474 C 0.30766 0.44807 0.48873 0.0
C2475 C 0.32676 0.44198 0.50339 0.0
C2476 C 0.32394 0.42327 0.51892 0.0
C2477 C 0.3026 0.4104 0.51926 0.0
C2478 C 0.38453 0.47324 0.52016 0.0
C2479 C 0.39513 0.47614 0.49786 0.0
C2480 C 0.3622 0.46226 0.52202 0.0
C2481 C 0.34997 0.45435 0.5016 0.0
C2482 C 0.36034 0.45766 0.47932 0.0
C2483 C 0.38275 0.46833 0.47747 0.0
H2484 H 0.80311 0.03256 0.49418 0.0
H2485 H 0.83794 0.09982 0.48633 0.0
H2486 H 0.83464 0.01399 0.47095 0.0
H2487 H 0.86996 0.08144 0.46454 0.0
H2488 H 0.92412 0.05238 0.42201 0.0
H2489 H 0.88311 0.06376 0.43004 0.0
H2490 H 0.87417 0.00305 0.47395 0.0
H2491 H 0.91429 0.99091 0.46408 0.0
C2492 C 0.81769 0.04329 0.48774 0.0
C2493 C 0.81821 0.06759 0.49219 0.0
C2494 C 0.83572 0.0327 0.47434 0.0
C2495 C 0.85485 0.04615 0.46551 0.0
C2496 C 0.85525 0.07047 0.47022 0.0
C2497 C 0.83705 0.08105 0.48314 0.0
C2498 C 0.91277 0.04081 0.43214 0.0
C2499 C 0.92222 0.02087 0.44251 0.0
C2500 C 0.88946 0.04755 0.43725 0.0
C2501 C 0.87565 0.03497 0.45362 0.0
C2502 C 0.88416 0.01334 0.4614 0.0
C2503 C 0.90721 0.00622 0.45562 0.0
H2504 H 0.62246 0.05757 0.20574 0.0
H2505 H 0.67408 0.00836 0.23125 0.0
H2506 H 0.65455 0.08604 0.19928 0.0
H2507 H 0.70604 0.0366 0.22439 0.0
H2508 H 0.73838 0.10796 0.25351 0.0
H2509 H 0.71444 0.07266 0.24717 0.0
H2510 H 0.69231 0.09739 0.17886 0.0
H2511 H 0.71634 0.13303 0.18532 0.0
C2512 C 0.64067 0.05264 0.20945 0.0
C2513 C 0.64566 0.03096 0.21953 0.0
C2514 C 0.65909 0.06886 0.20556 0.0
C2515 C 0.68278 0.06361 0.21159 0.0
C2516 C 0.68792 0.04125 0.21994 0.0
C2517 C 0.66956 0.02513 0.22392 0.0
C2518 C 0.72901 0.10555 0.23682 0.0
C2519 C 0.72897 0.12335 0.22006 0.0
C2520 C 0.71535 0.08526 0.23311 0.0
C2521 C 0.70124 0.08241 0.21263 0.0
C2522 C 0.70279 0.0993 0.19493 0.0
C2523 C 0.71672 0.11957 0.19854 0.0
H2524 H 0.614 0.86789 0.05441 0.0
H2525 H 0.65595 0.93153 0.04858 0.0
H2526 H 0.57788 0.88972 0.04584 0.0
H2527 H 0.62045 0.95291 0.03868 0.0
H2528 H 0.54983 0.99008 0.04209 0.0
H2529 H 0.58523 0.96865 0.05265 0.0
H2530 H 0.55801 0.90765 0.0142 0.0
H2531 H 0.52183 0.9289 0.00474 0.0
C2532 C 0.61549 0.88653 0.05143 0.0
C2533 C 0.63784 0.89793 0.05208 0.0
C2534 C 0.59484 0.89901 0.04618 0.0
C2535 C 0.59619 0.92309 0.04124 0.0
C2536 C 0.61854 0.93451 0.04264 0.0
C2537 C 0.63901 0.92216 0.04822 0.0
C2538 C 0.55156 0.97222 0.03552 0.0
C2539 C 0.53309 0.96123 0.02243 0.0
C2540 C 0.57191 0.95986 0.04163 0.0
C2541 C 0.57455 0.9363 0.03441 0.0
C2542 C 0.55641 0.92557 0.02055 0.0
C2543 C 0.53581 0.93785 0.0148 0.0
H2544 H 0.38923 0.46369 0.25783 0.0
H2545 H 0.3315 0.48755 0.21432 0.0
H2546 H 0.3668 0.42803 0.26615 0.0
H2547 H 0.3097 0.45094 0.22058 0.0
H2548 H 0.26949 0.38651 0.244 0.0
H2549 H 0.28815 0.42552 0.24379 0.0
H2550 H 0.35777 0.39362 0.24746 0.0
H2551 H 0.33911 0.35551 0.24952 0.0
C2552 C 0.37175 0.46105 0.2499 0.0
C2553 C 0.36205 0.47798 0.23531 0.0
C2554 C 0.35891 0.44057 0.25444 0.0
C2555 C 0.33654 0.4362 0.24364 0.0
C2556 C 0.32667 0.45366 0.22948 0.0
C2557 C 0.33921 0.47453 0.22564 0.0
C2558 C 0.28875 0.3881 0.24512 0.0
C2559 C 0.30286 0.36812 0.24701 0.0
C2560 C 0.2995 0.41037 0.24483 0.0
C2561 C 0.32457 0.41291 0.24574 0.0
C2562 C 0.33846 0.39269 0.24753 0.0
C2563 C 0.32774 0.37068 0.24851 0.0
H2564 H 0.19074 0.5428 0.02339 0.0
H2565 H 0.16759 0.61425 0.03348 0.0
H2566 H 0.14998 0.52887 0.02975 0.0
H2567 H 0.12691 0.60024 0.04009 0.0
H2568 H 0.05874 0.56597 0.00535 0.0
H2569 H 0.09868 0.58213 0.0109 0.0
H2570 H 0.1155 0.52613 0.05819 0.0
H2571 H 0.07524 0.50972 0.05254 0.0
C2572 C 0.17703 0.55549 0.02734 0.0
C2573 C 0.18223 0.57962 0.02752 0.0
C2574 C 0.15375 0.5475 0.03121 0.0
C2575 C 0.1353 0.56351 0.03526 0.0
C2576 C 0.14078 0.58756 0.03674 0.0
C2577 C 0.16405 0.59555 0.03294 0.0
C2578 C 0.07081 0.55725 0.01721 0.0
C2579 C 0.06399 0.53643 0.02829 0.0
C2580 C 0.09363 0.56665 0.02056 0.0
C2581 C 0.11018 0.55534 0.03493 0.0
C2582 C 0.10307 0.53508 0.0469 0.0
C2583 C 0.08005 0.52578 0.04374 0.0
H2584 H 0.63527 0.89526 0.30311 0.0
H2585 H 0.6889 0.94899 0.29221 0.0
H2586 H 0.66602 0.86912 0.31733 0.0
H2587 H 0.71951 0.92309 0.30695 0.0
H2588 H 0.75927 0.85429 0.28219 0.0
H2589 H 0.73478 0.88889 0.28584 0.0
H2590 H 0.69816 0.85875 0.34543 0.0
H2591 H 0.72297 0.82385 0.34163 0.0
C2592 C 0.65352 0.90168 0.30434 0.0
C2593 C 0.65979 0.92391 0.296 0.0
C2594 C 0.67112 0.88681 0.31273 0.0
C2595 C 0.69525 0.89399 0.31303 0.0
C2596 C 0.70113 0.91697 0.3066 0.0
C2597 C 0.6836 0.93175 0.29808 0.0
C2598 C 0.74671 0.85552 0.29671 0.0
C2599 C 0.74281 0.83643 0.31149 0.0
C2600 C 0.73266 0.87538 0.29887 0.0
C2601 C 0.71424 0.87638 0.3157 0.0
C2602 C 0.71204 0.85829 0.33212 0.0
C2603 C 0.72639 0.83846 0.33013 0.0
H2604 H 0.88457 0.11168 0.79573 0.0
H2605 H 0.81543 0.09012 0.76846 0.0
H2606 H 0.86611 0.1443 0.81724 0.0
H2607 H 0.79725 0.12279 0.7889 0.0
H2608 H 0.76331 0.17921 0.82185 0.0
H2609 H 0.7854 0.14274 0.82336 0.0
H2610 H 0.85014 0.18041 0.80537 0.0
H2611 H 0.8282 0.21688 0.80566 0.0
C2612 C 0.86543 0.11381 0.79449 0.0
C2613 C 0.85147 0.0986 0.78013 0.0
C2614 C 0.85486 0.13246 0.80682 0.0
C2615 C 0.83018 0.13629 0.80485 0.0
C2616 C 0.81621 0.12026 0.79136 0.0
C2617 C 0.8267 0.10162 0.77927 0.0
C2618 C 0.78251 0.17972 0.81955 0.0
C2619 C 0.79415 0.20058 0.81346 0.0
C2620 C 0.79513 0.15885 0.82007 0.0
C2621 C 0.81934 0.15848 0.81349 0.0
C2622 C 0.83152 0.17993 0.81045 0.0
C2623 C 0.81898 0.20091 0.81061 0.0
loop_
_geom_bond_atom_site_label_1
_geom_bond_atom_site_label_2
_geom_bond_distance
_geom_bond_site_symmetry_2
_ccdc_geom_bond_type
C0 O1 1.306 . S
C0 O3 1.160 . S
O1 C0 1.306 . S
O1 Cd2 2.228 1_655 S
Cd2 O1 2.228 1_455 S
Cd2 O6 2.273 . S
Cd2 O10 2.277 . S
O3 C0 1.160 . S
O3 Cd4 2.203 1_655 S
Cd4 O3 2.203 1_455 S
Cd4 O6 2.411 . S
Cd4 O7 2.333 . S
Cd4 O8 2.352 . S
Cd4 O12 2.277 . S
Cd4 O13 2.356 . S
C5 O10 1.209 . S
C5 O12 1.226 . S
O6 Cd2 2.273 . S
O6 Cd4 2.411 . S
O6 C9 1.320 . S
O7 Cd4 2.333 . S
O7 C9 1.214 . S
O8 Cd4 2.352 . S
O8 C11 1.258 . S
C9 O6 1.320 . S
C9 O7 1.214 . S
O10 Cd2 2.277 . S
O10 C5 1.209 . S
C11 O8 1.258 . S
C11 O13 1.282 . S
O12 Cd4 2.277 . S
O12 C5 1.226 . S
O13 Cd4 2.356 . S
O13 C11 1.282 . S
C14 O15 1.306 . S
C14 O17 1.160 . S
O15 C14 1.306 . S
O15 Cd16 2.228 1_655 S
Cd16 O15 2.228 1_455 S
Cd16 O20 2.273 . S
Cd16 O24 2.277 . S
O17 C14 1.160 . S
O17 Cd18 2.203 1_655 S
Cd18 O17 2.203 1_455 S
Cd18 O20 2.411 . S
Cd18 O21 2.333 . S
Cd18 O22 2.352 . S
Cd18 O26 2.277 . S
Cd18 O27 2.356 . S
C19 O24 1.209 . S
C19 O26 1.226 . S
O20 Cd16 2.273 . S
O20 Cd18 2.411 . S
O20 C23 1.320 . S
O21 Cd18 2.333 . S
O21 C23 1.214 . S
O22 Cd18 2.352 . S
O22 C25 1.258 . S
C23 O20 1.320 . S
C23 O21 1.214 . S
O24 Cd16 2.277 . S
O24 C19 1.209 . S
C25 O22 1.258 . S
C25 O27 1.282 . S
O26 Cd18 2.277 . S
O26 C19 1.226 . S
O27 Cd18 2.356 . S
O27 C25 1.282 . S
C28 O29 1.306 . S
C28 O31 1.160 . S
O29 C28 1.306 . S
O29 Cd30 2.228 . S
Cd30 O29 2.228 . S
Cd30 O34 2.273 . S
Cd30 O38 2.277 . S
O31 C28 1.160 . S
O31 Cd32 2.203 . S
Cd32 O31 2.203 . S
Cd32 O34 2.411 . S
Cd32 O35 2.333 . S
Cd32 O36 2.352 . S
Cd32 O40 2.277 . S
Cd32 O41 2.356 . S
C33 O38 1.209 . S
C33 O40 1.226 . S
O34 Cd30 2.273 . S
O34 Cd32 2.411 . S
O34 C37 1.320 . S
O35 Cd32 2.333 . S
O35 C37 1.214 . S
O36 Cd32 2.352 . S
O36 C39 1.258 . S
C37 O34 1.320 . S
C37 O35 1.214 . S
O38 Cd30 2.277 . S
O38 C33 1.209 . S
C39 O36 1.258 . S
C39 O41 1.282 . S
O40 Cd32 2.277 . S
O40 C33 1.226 . S
O41 Cd32 2.356 . S
O41 C39 1.282 . S
C42 O43 1.306 . S
C42 O45 1.160 . S
O43 C42 1.306 . S
O43 Cd44 2.228 . S
Cd44 O43 2.228 . S
Cd44 O48 2.273 . S
Cd44 O52 2.277 . S
O45 C42 1.160 . S
O45 Cd46 2.203 . S
Cd46 O45 2.203 . S
Cd46 O48 2.411 . S
Cd46 O49 2.333 . S
Cd46 O50 2.352 . S
Cd46 O54 2.277 . S
Cd46 O55 2.356 . S
C47 O52 1.209 . S
C47 O54 1.226 . S
O48 Cd44 2.273 . S
O48 Cd46 2.411 . S
O48 C51 1.320 . S
O49 Cd46 2.333 . S
O49 C51 1.214 . S
O50 Cd46 2.352 . S
O50 C53 1.258 . S
C51 O48 1.320 . S
C51 O49 1.214 . S
O52 Cd44 2.277 . S
O52 C47 1.209 . S
C53 O50 1.258 . S
C53 O55 1.282 . S
O54 Cd46 2.277 . S
O54 C47 1.226 . S
O55 Cd46 2.356 . S
O55 C53 1.282 . S
C56 O57 1.306 . S
C56 O59 1.160 . S
O57 C56 1.306 . S
O57 Cd58 2.228 . S
Cd58 O57 2.228 . S
Cd58 O62 2.273 . S
Cd58 O66 2.277 . S
O59 C56 1.160 . S
O59 Cd60 2.203 . S
Cd60 O59 2.203 . S
Cd60 O62 2.411 . S
Cd60 O63 2.333 . S
Cd60 O64 2.352 1_545 S
Cd60 O68 2.277 . S
Cd60 O69 2.356 1_545 S
C61 O66 1.209 . S
C61 O68 1.226 . S
O62 Cd58 2.273 . S
O62 Cd60 2.411 . S
O62 C65 1.320 . S
O63 Cd60 2.333 . S
O63 C65 1.214 . S
O64 Cd60 2.352 1_565 S
O64 C67 1.258 . S
C65 O62 1.320 . S
C65 O63 1.214 . S
O66 Cd58 2.277 . S
O66 C61 1.209 . S
C67 O64 1.258 . S
C67 O69 1.282 . S
O68 Cd60 2.277 . S
O68 C61 1.226 . S
O69 Cd60 2.356 1_565 S
O69 C67 1.282 . S
C70 O71 1.306 . S
C70 O73 1.160 . S
O71 C70 1.306 . S
O71 Cd72 2.228 . S
Cd72 O71 2.228 . S
Cd72 O76 2.273 . S
Cd72 O80 2.277 . S
O73 C70 1.160 . S
O73 Cd74 2.203 . S
Cd74 O73 2.203 . S
Cd74 O76 2.411 . S
Cd74 O77 2.333 . S
Cd74 O78 2.352 . S
Cd74 O82 2.277 . S
Cd74 O83 2.356 . S
C75 O80 1.209 . S
C75 O82 1.226 . S
O76 Cd72 2.273 . S
O76 Cd74 2.411 . S
O76 C79 1.320 . S
O77 Cd74 2.333 . S
O77 C79 1.214 . S
O78 Cd74 2.352 . S
O78 C81 1.258 . S
C79 O76 1.320 . S
C79 O77 1.214 . S
O80 Cd72 2.277 . S
O80 C75 1.209 . S
C81 O78 1.258 . S
C81 O83 1.282 . S
O82 Cd74 2.277 . S
O82 C75 1.226 . S
O83 Cd74 2.356 . S
O83 C81 1.282 . S
C84 O85 1.306 . S
C84 O87 1.160 1_565 S
O85 C84 1.306 . S
O85 Cd86 2.228 . S
Cd86 O85 2.228 . S
Cd86 O90 2.304 . S
Cd86 O94 2.277 . S
O87 C84 1.160 1_545 S
O87 Cd88 2.203 . S
Cd88 O87 2.203 . S
Cd88 O90 2.407 1_545 S
Cd88 O91 2.333 . S
Cd88 O92 2.352 . S
Cd88 O96 2.277 1_545 S
Cd88 O97 2.356 . S
C89 O94 1.209 . S
C89 O96 1.226 . S
O90 Cd86 2.304 . S
O90 Cd88 2.407 1_565 S
O90 C93 1.317 1_565 S
O91 Cd88 2.333 . S
O91 C93 1.214 . S
O92 Cd88 2.352 . S
O92 C95 1.258 . S
C93 O90 1.317 1_545 S
C93 O91 1.214 . S
O94 Cd86 2.277 . S
O94 C89 1.209 . S
C95 O92 1.258 . S
C95 O97 1.282 . S
O96 Cd88 2.277 1_565 S
O96 C89 1.226 . S
O97 Cd88 2.356 . S
O97 C95 1.282 . S
C98 O99 1.306 . S
C98 O101 1.160 . S
O99 C98 1.306 . S
O99 Cd100 2.228 . S
Cd100 O99 2.228 . S
Cd100 O104 2.273 . S
Cd100 O108 2.277 . S
O101 C98 1.160 . S
O101 Cd102 2.203 . S
Cd102 O101 2.203 . S
Cd102 O104 2.411 . S
Cd102 O105 2.333 . S
Cd102 O106 2.352 1_554 S
Cd102 O110 2.277 . S
Cd102 O111 2.356 1_554 S
C103 O108 1.209 . S
C103 O110 1.226 . S
O104 Cd100 2.273 . S
O104 Cd102 2.411 . S
O104 C107 1.320 . S
O105 Cd102 2.333 . S
O105 C107 1.214 . S
O106 Cd102 2.352 1_556 S
O106 C109 1.258 . S
C107 O104 1.320 . S
C107 O105 1.214 . S
O108 Cd100 2.277 . S
O108 C103 1.209 . S
C109 O106 1.258 . S
C109 O111 1.282 . S
O110 Cd102 2.277 . S
O110 C103 1.226 . S
O111 Cd102 2.356 1_556 S
O111 C109 1.282 . S
C112 O113 1.306 1_554 S
C112 O115 1.160 . S
O113 C112 1.306 1_556 S
O113 Cd114 2.228 . S
Cd114 O113 2.228 . S
Cd114 O118 2.273 1_556 S
Cd114 O122 2.277 . S
O115 C112 1.160 . S
O115 Cd116 2.203 . S
Cd116 O115 2.203 . S
Cd116 O118 2.411 . S
Cd116 O119 2.333 . S
Cd116 O120 2.352 . S
Cd116 O124 2.277 1_554 S
Cd116 O125 2.356 . S
C117 O122 1.209 . S
C117 O124 1.226 . S
O118 Cd114 2.273 1_554 S
O118 Cd116 2.411 . S
O118 C121 1.320 . S
O119 Cd116 2.333 . S
O119 C121 1.214 . S
O120 Cd116 2.352 . S
O120 C123 1.258 . S
C121 O118 1.320 . S
C121 O119 1.214 . S
O122 Cd114 2.277 . S
O122 C117 1.209 . S
C123 O120 1.258 . S
C123 O125 1.282 . S
O124 Cd116 2.277 1_556 S
O124 C117 1.226 . S
O125 Cd116 2.356 . S
O125 C123 1.282 . S
C126 O127 1.306 . S
C126 O129 1.160 . S
O127 C126 1.306 . S
O127 Cd128 2.228 . S
Cd128 O127 2.228 . S
Cd128 O132 2.273 . S
Cd128 O136 2.277 . S
O129 C126 1.160 . S
O129 Cd130 2.203 . S
Cd130 O129 2.203 . S
Cd130 O132 2.411 . S
Cd130 O133 2.333 . S
Cd130 O134 2.352 . S
Cd130 O138 2.277 . S
Cd130 O139 2.356 . S
C131 O136 1.209 . S
C131 O138 1.226 . S
O132 Cd128 2.273 . S
O132 Cd130 2.411 . S
O132 C135 1.320 . S
O133 Cd130 2.333 . S
O133 C135 1.214 . S
O134 Cd130 2.352 . S
O134 C137 1.258 . S
C135 O132 1.320 . S
C135 O133 1.214 . S
O136 Cd128 2.277 . S
O136 C131 1.209 . S
C137 O134 1.258 . S
C137 O139 1.282 . S
O138 Cd130 2.277 . S
O138 C131 1.226 . S
O139 Cd130 2.356 . S
O139 C137 1.282 . S
C140 O141 1.306 . S
C140 O143 1.160 . S
O141 C140 1.306 . S
O141 Cd142 2.228 . S
Cd142 O141 2.228 . S
Cd142 O146 2.273 . S
Cd142 O150 2.277 . S
O143 C140 1.160 . S
O143 Cd144 2.203 . S
Cd144 O143 2.203 . S
Cd144 O146 2.411 . S
Cd144 O147 2.333 . S
Cd144 O148 2.352 . S
Cd144 O152 2.277 . S
Cd144 O153 2.356 . S
C145 O150 1.209 . S
C145 O152 1.226 . S
O146 Cd142 2.273 . S
O146 Cd144 2.411 . S
O146 C149 1.320 . S
O147 Cd144 2.333 . S
O147 C149 1.214 . S
O148 Cd144 2.352 . S
O148 C151 1.258 . S
C149 O146 1.320 . S
C149 O147 1.214 . S
O150 Cd142 2.277 . S
O150 C145 1.209 . S
C151 O148 1.258 . S
C151 O153 1.282 . S
O152 Cd144 2.277 . S
O152 C145 1.226 . S
O153 Cd144 2.356 . S
O153 C151 1.282 . S
C154 O155 1.306 . S
C154 O157 1.160 . S
O155 C154 1.306 . S
O155 Cd156 2.228 . S
Cd156 O155 2.228 . S
Cd156 O160 2.273 . S
Cd156 O164 2.277 . S
O157 C154 1.160 . S
O157 Cd158 2.203 . S
Cd158 O157 2.203 . S
Cd158 O160 2.411 . S
Cd158 O161 2.333 . S
Cd158 O162 2.352 . S
Cd158 O166 2.277 . S
Cd158 O167 2.356 . S
C159 O164 1.209 . S
C159 O166 1.226 . S
O160 Cd156 2.273 . S
O160 Cd158 2.411 . S
O160 C163 1.320 . S
O161 Cd158 2.333 . S
O161 C163 1.214 . S
O162 Cd158 2.352 . S
O162 C165 1.258 . S
C163 O160 1.320 . S
C163 O161 1.214 . S
O164 Cd156 2.277 . S
O164 C159 1.209 . S
C165 O162 1.258 . S
C165 O167 1.282 . S
O166 Cd158 2.277 . S
O166 C159 1.226 . S
O167 Cd158 2.356 . S
O167 C165 1.282 . S
C168 O169 1.306 . S
C168 O171 1.160 . S
O169 C168 1.306 . S
O169 Cd170 2.228 1_655 S
Cd170 O169 2.228 1_455 S
Cd170 O174 2.273 . S
Cd170 O178 2.277 . S
O171 C168 1.160 . S
O171 Cd172 2.203 1_655 S
Cd172 O171 2.203 1_455 S
Cd172 O174 2.411 . S
Cd172 O175 2.333 . S
Cd172 O176 2.352 . S
Cd172 O180 2.277 . S
Cd172 O181 2.356 . S
C173 O178 1.209 . S
C173 O180 1.226 . S
O174 Cd170 2.273 . S
O174 Cd172 2.411 . S
O174 C177 1.320 . S
O175 Cd172 2.333 . S
O175 C177 1.214 . S
O176 Cd172 2.352 . S
O176 C179 1.258 . S
C177 O174 1.320 . S
C177 O175 1.214 . S
O178 Cd170 2.277 . S
O178 C173 1.209 . S
C179 O176 1.258 . S
C179 O181 1.282 . S
O180 Cd172 2.277 . S
O180 C173 1.226 . S
O181 Cd172 2.356 . S
O181 C179 1.282 . S
C182 O183 1.306 . S
C182 O185 1.160 . S
O183 C182 1.306 . S
O183 Cd184 2.228 1_655 S
Cd184 O183 2.228 1_455 S
Cd184 O188 2.273 . S
Cd184 O192 2.277 . S
O185 C182 1.160 . S
O185 Cd186 2.203 1_655 S
Cd186 O185 2.203 1_455 S
Cd186 O188 2.411 . S
Cd186 O189 2.333 . S
Cd186 O190 2.352 . S
Cd186 O194 2.277 . S
Cd186 O195 2.356 . S
C187 O192 1.209 . S
C187 O194 1.226 . S
O188 Cd184 2.273 . S
O188 Cd186 2.411 . S
O188 C191 1.320 . S
O189 Cd186 2.333 . S
O189 C191 1.214 . S
O190 Cd186 2.352 . S
O190 C193 1.258 . S
C191 O188 1.320 . S
C191 O189 1.214 . S
O192 Cd184 2.277 . S
O192 C187 1.209 . S
C193 O190 1.258 . S
C193 O195 1.282 . S
O194 Cd186 2.277 . S
O194 C187 1.226 . S
O195 Cd186 2.356 . S
O195 C193 1.282 . S
C196 O197 1.306 . S
C196 O199 1.160 . S
O197 C196 1.306 . S
O197 Cd198 2.228 . S
Cd198 O197 2.228 . S
Cd198 O202 2.273 . S
Cd198 O206 2.277 . S
O199 C196 1.160 . S
O199 Cd200 2.203 . S
Cd200 O199 2.203 . S
Cd200 O202 2.411 . S
Cd200 O203 2.333 . S
Cd200 O204 2.352 . S
Cd200 O208 2.277 . S
Cd200 O209 2.356 . S
C201 O206 1.209 . S
C201 O208 1.226 . S
O202 Cd198 2.273 . S
O202 Cd200 2.411 . S
O202 C205 1.320 . S
O203 Cd200 2.333 . S
O203 C205 1.214 . S
O204 Cd200 2.352 . S
O204 C207 1.258 . S
C205 O202 1.320 . S
C205 O203 1.214 . S
O206 Cd198 2.277 . S
O206 C201 1.209 . S
C207 O204 1.258 . S
C207 O209 1.282 . S
O208 Cd200 2.277 . S
O208 C201 1.226 . S
O209 Cd200 2.356 . S
O209 C207 1.282 . S
C210 O211 1.306 . S
C210 O213 1.160 . S
O211 C210 1.306 . S
O211 Cd212 2.228 . S
Cd212 O211 2.228 . S
Cd212 O216 2.273 . S
Cd212 O220 2.277 . S
O213 C210 1.160 . S
O213 Cd214 2.203 . S
Cd214 O213 2.203 . S
Cd214 O216 2.411 . S
Cd214 O217 2.333 . S
Cd214 O218 2.352 . S
Cd214 O222 2.277 . S
Cd214 O223 2.356 . S
C215 O220 1.209 . S
C215 O222 1.226 . S
O216 Cd212 2.273 . S
O216 Cd214 2.411 . S
O216 C219 1.320 . S
O217 Cd214 2.333 . S
O217 C219 1.214 . S
O218 Cd214 2.352 . S
O218 C221 1.258 . S
C219 O216 1.320 . S
C219 O217 1.214 . S
O220 Cd212 2.277 . S
O220 C215 1.209 . S
C221 O218 1.258 . S
C221 O223 1.282 . S
O222 Cd214 2.277 . S
O222 C215 1.226 . S
O223 Cd214 2.356 . S
O223 C221 1.282 . S
C224 O225 1.306 . S
C224 O227 1.160 . S
O225 C224 1.306 . S
O225 Cd226 2.228 1_545 S
Cd226 O225 2.228 1_565 S
Cd226 O230 2.273 1_565 S
Cd226 O234 2.277 . S
O227 C224 1.160 . S
O227 Cd228 2.203 . S
Cd228 O227 2.203 . S
Cd228 O230 2.411 . S
Cd228 O231 2.333 . S
Cd228 O232 2.352 . S
Cd228 O236 2.277 1_545 S
Cd228 O237 2.356 . S
C229 O234 1.209 . S
C229 O236 1.226 . S
O230 Cd226 2.273 1_545 S
O230 Cd228 2.411 . S
O230 C233 1.320 . S
O231 Cd228 2.333 . S
O231 C233 1.214 . S
O232 Cd228 2.352 . S
O232 C235 1.258 . S
C233 O230 1.320 . S
C233 O231 1.214 . S
O234 Cd226 2.277 . S
O234 C229 1.209 . S
C235 O232 1.258 . S
C235 O237 1.282 . S
O236 Cd228 2.277 1_565 S
O236 C229 1.226 . S
O237 Cd228 2.356 . S
O237 C235 1.282 . S
C238 O239 1.306 . S
C238 O241 1.160 . S
O239 C238 1.306 . S
O239 Cd240 2.228 . S
Cd240 O239 2.228 . S
Cd240 O244 2.273 . S
Cd240 O248 2.277 . S
O241 C238 1.160 . S
O241 Cd242 2.203 . S
Cd242 O241 2.203 . S
Cd242 O244 2.411 . S
Cd242 O245 2.333 . S
Cd242 O246 2.352 . S
Cd242 O250 2.277 . S
Cd242 O251 2.356 . S
C243 O248 1.209 . S
C243 O250 1.226 . S
O244 Cd240 2.273 . S
O244 Cd242 2.411 . S
O244 C247 1.320 . S
O245 Cd242 2.333 . S
O245 C247 1.214 . S
O246 Cd242 2.352 . S
O246 C249 1.258 . S
C247 O244 1.320 . S
C247 O245 1.214 . S
O248 Cd240 2.277 . S
O248 C243 1.209 . S
C249 O246 1.258 . S
C249 O251 1.282 . S
O250 Cd242 2.277 . S
O250 C243 1.226 . S
O251 Cd242 2.356 . S
O251 C249 1.282 . S
C252 O253 1.306 . S
C252 O255 1.160 1_545 S
O253 C252 1.306 . S
O253 Cd254 2.228 . S
Cd254 O253 2.228 . S
Cd254 O258 2.273 . S
Cd254 O262 2.277 . S
O255 C252 1.160 1_565 S
O255 Cd256 2.203 . S
Cd256 O255 2.203 . S
Cd256 O258 2.411 1_565 S
Cd256 O259 2.333 . S
Cd256 O260 2.352 . S
Cd256 O264 2.277 1_565 S
Cd256 O265 2.356 . S
C257 O262 1.209 . S
C257 O264 1.226 . S
O258 Cd254 2.273 . S
O258 Cd256 2.411 1_545 S
O258 C261 1.317 1_545 S
O259 Cd256 2.333 . S
O259 C261 1.222 . S
O260 Cd256 2.352 . S
O260 C263 1.258 . S
C261 O258 1.317 1_565 S
C261 O259 1.222 . S
O262 Cd254 2.277 . S
O262 C257 1.209 . S
C263 O260 1.258 . S
C263 O265 1.282 . S
O264 Cd256 2.277 1_545 S
O264 C257 1.226 . S
O265 Cd256 2.356 . S
O265 C263 1.282 . S
C266 O267 1.306 1_554 S
C266 O269 1.160 . S
O267 C266 1.306 1_556 S
O267 Cd268 2.228 . S
Cd268 O267 2.228 . S
Cd268 O272 2.273 1_556 S
Cd268 O276 2.277 . S
O269 C266 1.160 . S
O269 Cd270 2.203 . S
Cd270 O269 2.203 . S
Cd270 O272 2.411 . S
Cd270 O273 2.333 . S
Cd270 O274 2.352 . S
Cd270 O278 2.277 1_554 S
Cd270 O279 2.356 . S
C271 O276 1.209 . S
C271 O278 1.226 . S
O272 Cd268 2.273 1_554 S
O272 Cd270 2.411 . S
O272 C275 1.320 . S
O273 Cd270 2.333 . S
O273 C275 1.214 . S
O274 Cd270 2.352 . S
O274 C277 1.258 . S
C275 O272 1.320 . S
C275 O273 1.214 . S
O276 Cd268 2.277 . S
O276 C271 1.209 . S
C277 O274 1.258 . S
C277 O279 1.282 . S
O278 Cd270 2.277 1_556 S
O278 C271 1.226 . S
O279 Cd270 2.356 . S
O279 C277 1.282 . S
C280 O281 1.306 . S
C280 O283 1.159 . S
O281 C280 1.306 . S
O281 Cd282 2.228 . S
Cd282 O281 2.228 . S
Cd282 O286 2.273 . S
Cd282 O290 2.277 . S
O283 C280 1.159 . S
O283 Cd284 2.203 1_554 S
Cd284 O283 2.203 1_556 S
Cd284 O286 2.411 1_556 S
Cd284 O287 2.333 . S
Cd284 O288 2.352 . S
Cd284 O292 2.277 1_556 S
Cd284 O293 2.356 . S
C285 O290 1.209 . S
C285 O292 1.226 . S
O286 Cd282 2.273 . S
O286 Cd284 2.411 1_554 S
O286 C289 1.320 . S
O287 Cd284 2.333 . S
O287 C289 1.210 1_556 S
O288 Cd284 2.352 . S
O288 C291 1.258 . S
C289 O286 1.320 . S
C289 O287 1.210 1_554 S
O290 Cd282 2.277 . S
O290 C285 1.209 . S
C291 O288 1.258 . S
C291 O293 1.282 . S
O292 Cd284 2.277 1_554 S
O292 C285 1.226 . S
O293 Cd284 2.356 . S
O293 C291 1.282 . S
C294 O295 1.306 . S
C294 O297 1.160 . S
O295 C294 1.306 . S
O295 Cd296 2.228 . S
Cd296 O295 2.228 . S
Cd296 O300 2.273 . S
Cd296 O304 2.277 . S
O297 C294 1.160 . S
O297 Cd298 2.203 . S
Cd298 O297 2.203 . S
Cd298 O300 2.411 . S
Cd298 O301 2.333 . S
Cd298 O302 2.352 . S
Cd298 O306 2.277 . S
Cd298 O307 2.356 . S
C299 O304 1.209 . S
C299 O306 1.226 . S
O300 Cd296 2.273 . S
O300 Cd298 2.411 . S
O300 C303 1.320 . S
O301 Cd298 2.333 . S
O301 C303 1.214 . S
O302 Cd298 2.352 . S
O302 C305 1.258 . S
C303 O300 1.320 . S
C303 O301 1.214 . S
O304 Cd296 2.277 . S
O304 C299 1.209 . S
C305 O302 1.258 . S
C305 O307 1.282 . S
O306 Cd298 2.277 . S
O306 C299 1.226 . S
O307 Cd298 2.356 . S
O307 C305 1.282 . S
C308 O309 1.306 . S
C308 O311 1.160 . S
O309 C308 1.306 . S
O309 Cd310 2.228 . S
Cd310 O309 2.228 . S
Cd310 O314 2.273 . S
Cd310 O318 2.277 . S
O311 C308 1.160 . S
O311 Cd312 2.203 . S
Cd312 O311 2.203 . S
Cd312 O314 2.411 . S
Cd312 O315 2.333 . S
Cd312 O316 2.352 . S
Cd312 O320 2.277 . S
Cd312 O321 2.356 . S
C313 O318 1.209 . S
C313 O320 1.226 . S
O314 Cd310 2.273 . S
O314 Cd312 2.411 . S
O314 C317 1.320 . S
O315 Cd312 2.333 . S
O315 C317 1.214 . S
O316 Cd312 2.352 . S
O316 C319 1.258 . S
C317 O314 1.320 . S
C317 O315 1.214 . S
O318 Cd310 2.277 . S
O318 C313 1.209 . S
C319 O316 1.258 . S
C319 O321 1.282 . S
O320 Cd312 2.277 . S
O320 C313 1.226 . S
O321 Cd312 2.356 . S
O321 C319 1.282 . S
C322 O323 1.306 . S
C322 O325 1.160 . S
O323 C322 1.306 . S
O323 Cd324 2.228 . S
Cd324 O323 2.228 . S
Cd324 O328 2.273 . S
Cd324 O332 2.277 . S
O325 C322 1.160 . S
O325 Cd326 2.203 . S
Cd326 O325 2.203 . S
Cd326 O328 2.411 . S
Cd326 O329 2.333 . S
Cd326 O330 2.352 . S
Cd326 O334 2.277 . S
Cd326 O335 2.356 . S
C327 O332 1.209 . S
C327 O334 1.226 . S
O328 Cd324 2.273 . S
O328 Cd326 2.411 . S
O328 C331 1.320 . S
O329 Cd326 2.333 . S
O329 C331 1.214 . S
O330 Cd326 2.352 . S
O330 C333 1.258 . S
C331 O328 1.320 . S
C331 O329 1.214 . S
O332 Cd324 2.277 . S
O332 C327 1.209 . S
C333 O330 1.258 . S
C333 O335 1.282 . S
O334 Cd326 2.277 . S
O334 C327 1.226 . S
O335 Cd326 2.356 . S
O335 C333 1.282 . S
O336 Zn337 1.953 . S
O336 C352 1.225 1_455 S
Zn337 O336 1.953 . S
Zn337 O338 1.964 . S
Zn337 O344 1.919 1_554 S
Zn337 O349 1.924 1_454 S
O338 Zn337 1.964 . S
O338 Zn339 1.957 1_545 S
O338 Zn340 1.923 1_455 S
O338 Zn341 1.923 1_444 S
Zn339 O338 1.957 1_565 S
Zn339 O342 1.933 . S
Zn339 O345 1.941 1_565 S
Zn339 O346 1.965 . S
Zn340 O338 1.923 1_655 S
Zn340 O347 1.938 . S
Zn340 O348 1.906 1_545 S
Zn340 O358 1.953 . S
Zn341 O338 1.923 1_666 S
Zn341 O343 1.932 . S
Zn341 O350 1.977 1_556 S
Zn341 O351 1.910 1_565 S
O342 Zn339 1.933 . S
O342 C353 1.226 1_554 S
O343 Zn341 1.932 . S
O343 C353 1.307 1_655 S
O344 Zn337 1.919 1_556 S
O344 C355 1.253 1_556 S
O345 Zn339 1.941 1_545 S
O345 C355 1.283 . S
O346 Zn339 1.965 . S
O346 C354 1.303 1_565 S
O347 Zn340 1.938 . S
O347 C354 1.247 1_655 S
O348 Zn340 1.906 1_565 S
O348 C356 1.304 . S
O349 Zn337 1.924 1_656 S
O349 C357 1.311 . S
O350 Zn341 1.977 1_554 S
O350 C356 1.272 . S
O351 Zn341 1.910 1_545 S
O351 C357 1.231 . S
C352 O336 1.225 1_655 S
C352 O358 1.298 . S
C353 O342 1.226 1_556 S
C353 O343 1.307 1_455 S
C354 O346 1.303 1_545 S
C354 O347 1.247 1_455 S
C355 O344 1.253 1_554 S
C355 O345 1.283 . S
C356 O348 1.304 . S
C356 O350 1.272 . S
C357 O349 1.311 . S
C357 O351 1.231 . S
O358 Zn340 1.953 . S
O358 C352 1.298 . S
O359 Zn360 1.953 . S
O359 C375 1.225 . S
Zn360 O359 1.953 . S
Zn360 O361 1.949 . S
Zn360 O367 1.919 . S
Zn360 O372 1.924 . S
O361 Zn360 1.949 . S
O361 Zn362 1.923 . S
O361 Zn363 1.950 . S
O361 Zn364 1.945 . S
Zn362 O361 1.923 . S
Zn362 O365 1.933 . S
Zn362 O368 1.941 . S
Zn362 O369 1.965 . S
Zn363 O361 1.950 . S
Zn363 O370 1.938 . S
Zn363 O371 1.906 . S
Zn363 O381 1.953 . S
Zn364 O361 1.945 . S
Zn364 O366 1.932 . S
Zn364 O373 1.977 . S
Zn364 O374 1.910 . S
O365 Zn362 1.933 . S
O365 C376 1.226 . S
O366 Zn364 1.932 . S
O366 C376 1.307 . S
O367 Zn360 1.919 . S
O367 C378 1.253 . S
O368 Zn362 1.941 . S
O368 C378 1.283 . S
O369 Zn362 1.965 . S
O369 C377 1.303 . S
O370 Zn363 1.938 . S
O370 C377 1.247 . S
O371 Zn363 1.906 . S
O371 C379 1.304 . S
O372 Zn360 1.924 . S
O372 C380 1.311 . S
O373 Zn364 1.977 . S
O373 C379 1.272 . S
O374 Zn364 1.910 . S
O374 C380 1.231 . S
C375 O359 1.225 . S
C375 O381 1.298 . S
C376 O365 1.226 . S
C376 O366 1.307 . S
C377 O369 1.303 . S
C377 O370 1.247 . S
C378 O367 1.253 . S
C378 O368 1.283 . S
C379 O371 1.304 . S
C379 O373 1.272 . S
C380 O372 1.311 . S
C380 O374 1.231 . S
O381 Zn363 1.953 . S
O381 C375 1.298 . S
O382 Zn383 1.953 . S
O382 C398 1.225 . S
Zn383 O382 1.953 . S
Zn383 O384 1.949 1_565 S
Zn383 O390 1.919 . S
Zn383 O395 1.924 . S
O384 Zn383 1.949 1_545 S
O384 Zn385 1.923 . S
O384 Zn386 1.950 . S
O384 Zn387 1.945 . S
Zn385 O384 1.923 . S
Zn385 O388 1.933 . S
Zn385 O391 1.941 . S
Zn385 O392 1.965 . S
Zn386 O384 1.950 . S
Zn386 O393 1.938 . S
Zn386 O394 1.906 . S
Zn386 O404 1.953 1_545 S
Zn387 O384 1.945 . S
Zn387 O389 1.932 . S
Zn387 O396 1.977 . S
Zn387 O397 1.910 . S
O388 Zn385 1.933 . S
O388 C399 1.226 . S
O389 Zn387 1.932 . S
O389 C399 1.307 . S
O390 Zn383 1.919 . S
O390 C401 1.253 . S
O391 Zn385 1.941 . S
O391 C401 1.283 1_545 S
O392 Zn385 1.965 . S
O392 C400 1.303 . S
O393 Zn386 1.938 . S
O393 C400 1.247 . S
O394 Zn386 1.906 . S
O394 C402 1.304 . S
O395 Zn383 1.924 . S
O395 C403 1.311 . S
O396 Zn387 1.977 . S
O396 C402 1.272 . S
O397 Zn387 1.910 . S
O397 C403 1.231 1_545 S
C398 O382 1.225 . S
C398 O404 1.298 . S
C399 O388 1.226 . S
C399 O389 1.307 . S
C400 O392 1.303 . S
C400 O393 1.247 . S
C401 O390 1.253 . S
C401 O391 1.283 1_565 S
C402 O394 1.304 . S
C402 O396 1.272 . S
C403 O395 1.311 . S
C403 O397 1.231 1_565 S
O404 Zn386 1.953 1_565 S
O404 C398 1.298 . S
O405 Zn406 1.953 . S
O405 C421 1.225 . S
Zn406 O405 1.953 . S
Zn406 O407 1.949 . S
Zn406 O413 1.919 . S
Zn406 O418 1.924 . S
O407 Zn406 1.949 . S
O407 Zn408 1.923 . S
O407 Zn409 1.950 . S
O407 Zn410 1.945 . S
Zn408 O407 1.923 . S
Zn408 O411 1.933 . S
Zn408 O414 1.941 . S
Zn408 O415 1.965 . S
Zn409 O407 1.950 . S
Zn409 O416 1.938 . S
Zn409 O417 1.906 . S
Zn409 O427 1.953 . S
Zn410 O407 1.945 . S
Zn410 O412 1.932 . S
Zn410 O419 1.977 . S
Zn410 O420 1.910 . S
O411 Zn408 1.933 . S
O411 C422 1.226 . S
O412 Zn410 1.932 . S
O412 C422 1.307 . S
O413 Zn406 1.919 . S
O413 C424 1.253 . S
O414 Zn408 1.941 . S
O414 C424 1.283 . S
O415 Zn408 1.965 . S
O415 C423 1.303 . S
O416 Zn409 1.938 . S
O416 C423 1.247 . S
O417 Zn409 1.906 . S
O417 C425 1.304 . S
O418 Zn406 1.924 . S
O418 C426 1.311 . S
O419 Zn410 1.977 . S
O419 C425 1.272 . S
O420 Zn410 1.910 . S
O420 C426 1.231 . S
C421 O405 1.225 . S
C421 O427 1.298 . S
C422 O411 1.226 . S
C422 O412 1.307 . S
C423 O415 1.303 . S
C423 O416 1.247 . S
C424 O413 1.253 . S
C424 O414 1.283 . S
C425 O417 1.304 . S
C425 O419 1.272 . S
C426 O418 1.311 . S
C426 O420 1.231 . S
O427 Zn409 1.953 . S
O427 C421 1.298 . S
O428 Zn429 1.967 1_455 S
O428 C444 1.225 . S
Zn429 O428 1.967 1_655 S
Zn429 O430 1.965 1_655 S
Zn429 O436 1.872 1_545 S
Zn429 O441 1.947 . S
O430 Zn429 1.965 1_455 S
O430 Zn431 1.923 1_545 S
O430 Zn432 1.950 . S
O430 Zn433 1.945 1_455 S
Zn431 O430 1.923 1_565 S
Zn431 O434 1.933 . S
Zn431 O437 1.941 . S
Zn431 O438 1.965 . S
Zn432 O430 1.950 . S
Zn432 O439 1.938 . S
Zn432 O440 1.906 . S
Zn432 O450 1.953 . S
Zn433 O430 1.945 1_655 S
Zn433 O435 1.932 . S
Zn433 O442 1.977 . S
Zn433 O443 1.910 . S
O434 Zn431 1.933 . S
O434 C445 1.226 1_455 S
O435 Zn433 1.932 . S
O435 C445 1.307 1_545 S
O436 Zn429 1.872 1_565 S
O436 C447 1.253 . S
O437 Zn431 1.941 . S
O437 C447 1.283 1_455 S
O438 Zn431 1.965 . S
O438 C446 1.303 . S
O439 Zn432 1.938 . S
O439 C446 1.247 1_545 S
O440 Zn432 1.906 . S
O440 C448 1.304 . S
O441 Zn429 1.947 . S
O441 C449 1.311 . S
O442 Zn433 1.977 . S
O442 C448 1.272 1_655 S
O443 Zn433 1.910 . S
O443 C449 1.231 . S
C444 O428 1.225 . S
C444 O450 1.298 . S
C445 O434 1.226 1_655 S
C445 O435 1.307 1_565 S
C446 O438 1.303 . S
C446 O439 1.247 1_565 S
C447 O436 1.253 . S
C447 O437 1.283 1_655 S
C448 O440 1.304 . S
C448 O442 1.272 1_455 S
C449 O441 1.311 . S
C449 O443 1.231 . S
O450 Zn432 1.953 . S
O450 C444 1.298 . S
O451 Zn452 1.953 . S
O451 C467 1.225 . S
Zn452 O451 1.953 . S
Zn452 O453 1.949 . S
Zn452 O459 1.919 . S
Zn452 O464 1.924 . S
O453 Zn452 1.949 . S
O453 Zn454 1.923 . S
O453 Zn455 1.950 . S
O453 Zn456 1.945 . S
Zn454 O453 1.923 . S
Zn454 O457 1.933 . S
Zn454 O460 1.941 . S
Zn454 O461 1.965 . S
Zn455 O453 1.950 . S
Zn455 O462 1.938 . S
Zn455 O463 1.906 . S
Zn455 O473 1.953 . S
Zn456 O453 1.945 . S
Zn456 O458 1.932 . S
Zn456 O465 1.977 . S
Zn456 O466 1.910 . S
O457 Zn454 1.933 . S
O457 C468 1.226 . S
O458 Zn456 1.932 . S
O458 C468 1.307 . S
O459 Zn452 1.919 . S
O459 C470 1.253 . S
O460 Zn454 1.941 . S
O460 C470 1.283 . S
O461 Zn454 1.965 . S
O461 C469 1.303 . S
O462 Zn455 1.938 . S
O462 C469 1.247 . S
O463 Zn455 1.906 . S
O463 C471 1.304 . S
O464 Zn452 1.924 . S
O464 C472 1.311 . S
O465 Zn456 1.977 . S
O465 C471 1.272 . S
O466 Zn456 1.910 . S
O466 C472 1.231 . S
C467 O451 1.225 . S
C467 O473 1.298 . S
C468 O457 1.226 . S
C468 O458 1.307 . S
C469 O461 1.303 . S
C469 O462 1.247 . S
C470 O459 1.253 . S
C470 O460 1.283 . S
C471 O463 1.304 . S
C471 O465 1.272 . S
C472 O464 1.311 . S
C472 O466 1.231 . S
O473 Zn455 1.953 . S
O473 C467 1.298 . S
O474 Zn475 1.953 . S
O474 C490 1.225 . S
Zn475 O474 1.953 . S
Zn475 O476 1.949 . S
Zn475 O482 1.919 1_545 S
Zn475 O487 1.924 . S
O476 Zn475 1.949 . S
O476 Zn477 1.939 1_545 S
O476 Zn478 1.950 . S
O476 Zn479 1.945 1_554 S
Zn477 O476 1.939 1_565 S
Zn477 O480 1.899 1_554 S
Zn477 O483 1.938 1_554 S
Zn477 O484 1.988 . S
Zn478 O476 1.950 . S
Zn478 O485 1.938 1_545 S
Zn478 O486 1.906 . S
Zn478 O496 1.953 . S
Zn479 O476 1.945 1_556 S
Zn479 O481 1.932 . S
Zn479 O488 1.977 1_556 S
Zn479 O489 1.910 . S
O480 Zn477 1.899 1_556 S
O480 C491 1.226 . S
O481 Zn479 1.932 . S
O481 C491 1.307 1_545 S
O482 Zn475 1.919 1_565 S
O482 C493 1.253 1_554 S
O483 Zn477 1.938 1_556 S
O483 C493 1.283 . S
O484 Zn477 1.988 . S
O484 C492 1.303 . S
O485 Zn478 1.938 1_565 S
O485 C492 1.247 . S
O486 Zn478 1.906 . S
O486 C494 1.304 . S
O487 Zn475 1.924 . S
O487 C495 1.311 . S
O488 Zn479 1.977 1_554 S
O488 C494 1.272 . S
O489 Zn479 1.910 . S
O489 C495 1.231 1_556 S
C490 O474 1.225 . S
C490 O496 1.298 . S
C491 O480 1.226 . S
C491 O481 1.307 1_565 S
C492 O484 1.303 . S
C492 O485 1.247 . S
C493 O482 1.253 1_556 S
C493 O483 1.283 . S
C494 O486 1.304 . S
C494 O488 1.272 . S
C495 O487 1.311 . S
C495 O489 1.231 1_554 S
O496 Zn478 1.953 . S
O496 C490 1.298 . S
O497 Zn498 1.953 . S
O497 C513 1.225 . S
Zn498 O497 1.953 . S
Zn498 O499 1.949 . S
Zn498 O505 1.919 . S
Zn498 O510 1.924 . S
O499 Zn498 1.949 . S
O499 Zn500 1.923 . S
O499 Zn501 1.950 . S
O499 Zn502 1.945 . S
Zn500 O499 1.923 . S
Zn500 O503 1.933 . S
Zn500 O506 1.941 . S
Zn500 O507 1.965 . S
Zn501 O499 1.950 . S
Zn501 O508 1.938 . S
Zn501 O509 1.906 . S
Zn501 O519 1.953 . S
Zn502 O499 1.945 . S
Zn502 O504 1.932 . S
Zn502 O511 1.977 . S
Zn502 O512 1.910 . S
O503 Zn500 1.933 . S
O503 C514 1.226 . S
O504 Zn502 1.932 . S
O504 C514 1.307 . S
O505 Zn498 1.919 . S
O505 C516 1.253 . S
O506 Zn500 1.941 . S
O506 C516 1.283 . S
O507 Zn500 1.965 . S
O507 C515 1.303 . S
O508 Zn501 1.938 . S
O508 C515 1.247 . S
O509 Zn501 1.906 . S
O509 C517 1.304 . S
O510 Zn498 1.924 . S
O510 C518 1.311 . S
O511 Zn502 1.977 . S
O511 C517 1.272 . S
O512 Zn502 1.910 . S
O512 C518 1.231 . S
C513 O497 1.225 . S
C513 O519 1.298 . S
C514 O503 1.226 . S
C514 O504 1.307 . S
C515 O507 1.303 . S
C515 O508 1.247 . S
C516 O505 1.253 . S
C516 O506 1.283 . S
C517 O509 1.304 . S
C517 O511 1.272 . S
C518 O510 1.311 . S
C518 O512 1.231 . S
O519 Zn501 1.953 . S
O519 C513 1.298 . S
O520 Zn521 1.953 . S
O520 C536 1.225 . S
Zn521 O520 1.953 . S
Zn521 O522 1.949 1_556 S
Zn521 O528 1.919 . S
Zn521 O533 1.924 . S
O522 Zn521 1.949 1_554 S
O522 Zn523 1.923 . S
O522 Zn524 1.950 . S
O522 Zn525 1.945 . S
Zn523 O522 1.923 . S
Zn523 O526 1.933 . S
Zn523 O529 1.941 . S
Zn523 O530 1.965 . S
Zn524 O522 1.950 . S
Zn524 O531 1.938 . S
Zn524 O532 1.906 . S
Zn524 O542 1.953 1_554 S
Zn525 O522 1.945 . S
Zn525 O527 1.932 . S
Zn525 O534 1.977 . S
Zn525 O535 1.910 . S
O526 Zn523 1.933 . S
O526 C537 1.226 . S
O527 Zn525 1.932 . S
O527 C537 1.307 . S
O528 Zn521 1.919 . S
O528 C539 1.253 1_556 S
O529 Zn523 1.941 . S
O529 C539 1.283 . S
O530 Zn523 1.965 . S
O530 C538 1.303 . S
O531 Zn524 1.938 . S
O531 C538 1.247 . S
O532 Zn524 1.906 . S
O532 C540 1.304 . S
O533 Zn521 1.924 . S
O533 C541 1.311 . S
O534 Zn525 1.977 . S
O534 C540 1.272 . S
O535 Zn525 1.910 . S
O535 C541 1.231 1_554 S
C536 O520 1.225 . S
C536 O542 1.298 . S
C537 O526 1.226 . S
C537 O527 1.307 . S
C538 O530 1.303 . S
C538 O531 1.247 . S
C539 O528 1.253 1_554 S
C539 O529 1.283 . S
C540 O532 1.304 . S
C540 O534 1.272 . S
C541 O533 1.311 . S
C541 O535 1.231 1_556 S
O542 Zn524 1.953 1_556 S
O542 C536 1.298 . S
O543 Zn544 1.953 . S
O543 C559 1.225 . S
Zn544 O543 1.953 . S
Zn544 O545 1.949 . S
Zn544 O551 1.919 . S
Zn544 O556 1.924 . S
O545 Zn544 1.949 . S
O545 Zn546 1.923 . S
O545 Zn547 1.950 . S
O545 Zn548 1.945 . S
Zn546 O545 1.923 . S
Zn546 O549 1.933 . S
Zn546 O552 1.941 . S
Zn546 O553 1.965 . S
Zn547 O545 1.950 . S
Zn547 O554 1.938 . S
Zn547 O555 1.906 . S
Zn547 O565 1.953 . S
Zn548 O545 1.945 . S
Zn548 O550 1.932 . S
Zn548 O557 1.977 . S
Zn548 O558 1.910 . S
O549 Zn546 1.933 . S
O549 C560 1.226 . S
O550 Zn548 1.932 . S
O550 C560 1.307 . S
O551 Zn544 1.919 . S
O551 C562 1.253 . S
O552 Zn546 1.941 . S
O552 C562 1.283 . S
O553 Zn546 1.965 . S
O553 C561 1.303 . S
O554 Zn547 1.938 . S
O554 C561 1.247 . S
O555 Zn547 1.906 . S
O555 C563 1.304 . S
O556 Zn544 1.924 . S
O556 C564 1.311 . S
O557 Zn548 1.977 . S
O557 C563 1.272 . S
O558 Zn548 1.910 . S
O558 C564 1.231 . S
C559 O543 1.225 . S
C559 O565 1.298 . S
C560 O549 1.226 . S
C560 O550 1.307 . S
C561 O553 1.303 . S
C561 O554 1.247 . S
C562 O551 1.253 . S
C562 O552 1.283 . S
C563 O555 1.304 . S
C563 O557 1.272 . S
C564 O556 1.311 . S
C564 O558 1.231 . S
O565 Zn547 1.953 . S
O565 C559 1.298 . S
O566 Zn567 1.953 . S
O566 C582 1.225 . S
Zn567 O566 1.953 . S
Zn567 O568 1.965 . S
Zn567 O574 1.919 . S
Zn567 O579 1.924 . S
O568 Zn567 1.965 . S
O568 Zn569 1.924 . S
O568 Zn570 1.941 1_455 S
O568 Zn571 1.937 1_455 S
Zn569 O568 1.924 . S
Zn569 O572 1.933 1_455 S
Zn569 O575 1.941 . S
Zn569 O576 1.965 1_455 S
Zn570 O568 1.941 1_655 S
Zn570 O577 1.938 . S
Zn570 O578 1.906 . S
Zn570 O588 1.941 1_655 S
Zn571 O568 1.937 1_655 S
Zn571 O573 1.932 . S
Zn571 O580 1.977 . S
Zn571 O581 1.910 1_655 S
O572 Zn569 1.933 1_655 S
O572 C583 1.226 . S
O573 Zn571 1.932 . S
O573 C583 1.307 . S
O574 Zn567 1.919 . S
O574 C585 1.253 . S
O575 Zn569 1.941 . S
O575 C585 1.283 . S
O576 Zn569 1.965 1_655 S
O576 C584 1.303 . S
O577 Zn570 1.938 . S
O577 C584 1.247 . S
O578 Zn570 1.906 . S
O578 C586 1.304 . S
O579 Zn567 1.924 . S
O579 C587 1.311 . S
O580 Zn571 1.977 . S
O580 C586 1.272 . S
O581 Zn571 1.910 1_455 S
O581 C587 1.231 . S
C582 O566 1.225 . S
C582 O588 1.322 . S
C583 O572 1.226 . S
C583 O573 1.307 . S
C584 O576 1.303 . S
C584 O577 1.247 . S
C585 O574 1.253 . S
C585 O575 1.283 . S
C586 O578 1.304 . S
C586 O580 1.272 . S
C587 O579 1.311 . S
C587 O581 1.231 . S
O588 Zn570 1.941 1_455 S
O588 C582 1.322 . S
O589 Zn590 1.953 . S
O589 C605 1.225 . S
Zn590 O589 1.953 . S
Zn590 O591 1.949 . S
Zn590 O597 1.919 . S
Zn590 O602 1.924 . S
O591 Zn590 1.949 . S
O591 Zn592 1.923 . S
O591 Zn593 1.950 . S
O591 Zn594 1.945 . S
Zn592 O591 1.923 . S
Zn592 O595 1.933 . S
Zn592 O598 1.941 . S
Zn592 O599 1.965 . S
Zn593 O591 1.950 . S
Zn593 O600 1.938 . S
Zn593 O601 1.906 . S
Zn593 O611 1.953 . S
Zn594 O591 1.945 . S
Zn594 O596 1.932 . S
Zn594 O603 1.977 . S
Zn594 O604 1.910 . S
O595 Zn592 1.933 . S
O595 C606 1.226 . S
O596 Zn594 1.932 . S
O596 C606 1.307 . S
O597 Zn590 1.919 . S
O597 C608 1.253 . S
O598 Zn592 1.941 . S
O598 C608 1.283 . S
O599 Zn592 1.965 . S
O599 C607 1.303 . S
O600 Zn593 1.938 . S
O600 C607 1.247 . S
O601 Zn593 1.906 . S
O601 C609 1.304 . S
O602 Zn590 1.924 . S
O602 C610 1.311 . S
O603 Zn594 1.977 . S
O603 C609 1.272 . S
O604 Zn594 1.910 . S
O604 C610 1.231 . S
C605 O589 1.225 . S
C605 O611 1.298 . S
C606 O595 1.226 . S
C606 O596 1.307 . S
C607 O599 1.303 . S
C607 O600 1.247 . S
C608 O597 1.253 . S
C608 O598 1.283 . S
C609 O601 1.304 . S
C609 O603 1.272 . S
C610 O602 1.311 . S
C610 O604 1.231 . S
O611 Zn593 1.953 . S
O611 C605 1.298 . S
O612 Zn613 1.953 . S
O612 C628 1.225 . S
Zn613 O612 1.953 . S
Zn613 O614 1.949 . S
Zn613 O620 1.919 . S
Zn613 O625 1.924 . S
O614 Zn613 1.949 . S
O614 Zn615 1.923 . S
O614 Zn616 1.950 . S
O614 Zn617 1.945 . S
Zn615 O614 1.923 . S
Zn615 O618 1.933 . S
Zn615 O621 1.941 . S
Zn615 O622 1.965 . S
Zn616 O614 1.950 . S
Zn616 O623 1.938 . S
Zn616 O624 1.906 . S
Zn616 O634 1.953 . S
Zn617 O614 1.945 . S
Zn617 O619 1.932 . S
Zn617 O626 1.977 . S
Zn617 O627 1.910 . S
O618 Zn615 1.933 . S
O618 C629 1.226 . S
O619 Zn617 1.932 . S
O619 C629 1.307 . S
O620 Zn613 1.919 . S
O620 C631 1.253 . S
O621 Zn615 1.941 . S
O621 C631 1.283 . S
O622 Zn615 1.965 . S
O622 C630 1.303 . S
O623 Zn616 1.938 . S
O623 C630 1.247 . S
O624 Zn616 1.906 . S
O624 C632 1.304 . S
O625 Zn613 1.924 . S
O625 C633 1.311 . S
O626 Zn617 1.977 . S
O626 C632 1.272 . S
O627 Zn617 1.910 . S
O627 C633 1.231 . S
C628 O612 1.225 . S
C628 O634 1.298 . S
C629 O618 1.226 . S
C629 O619 1.307 . S
C630 O622 1.303 . S
C630 O623 1.247 . S
C631 O620 1.253 . S
C631 O621 1.283 . S
C632 O624 1.304 . S
C632 O626 1.272 . S
C633 O625 1.311 . S
C633 O627 1.231 . S
O634 Zn616 1.953 . S
O634 C628 1.298 . S
O635 Zn636 1.953 . S
O635 C651 1.225 . S
Zn636 O635 1.953 . S
Zn636 O637 1.949 . S
Zn636 O643 1.919 . S
Zn636 O648 1.924 . S
O637 Zn636 1.949 . S
O637 Zn638 1.923 . S
O637 Zn639 1.950 . S
O637 Zn640 1.945 . S
Zn638 O637 1.923 . S
Zn638 O641 1.933 . S
Zn638 O644 1.941 . S
Zn638 O645 1.965 . S
Zn639 O637 1.950 . S
Zn639 O646 1.938 . S
Zn639 O647 1.906 . S
Zn639 O657 1.953 . S
Zn640 O637 1.945 . S
Zn640 O642 1.932 . S
Zn640 O649 1.977 . S
Zn640 O650 1.910 . S
O641 Zn638 1.933 . S
O641 C652 1.226 . S
O642 Zn640 1.932 . S
O642 C652 1.307 . S
O643 Zn636 1.919 . S
O643 C654 1.253 . S
O644 Zn638 1.941 . S
O644 C654 1.283 . S
O645 Zn638 1.965 . S
O645 C653 1.303 . S
O646 Zn639 1.938 . S
O646 C653 1.247 . S
O647 Zn639 1.906 . S
O647 C655 1.304 . S
O648 Zn636 1.924 . S
O648 C656 1.311 . S
O649 Zn640 1.977 . S
O649 C655 1.272 . S
O650 Zn640 1.910 . S
O650 C656 1.231 . S
C651 O635 1.225 . S
C651 O657 1.298 . S
C652 O641 1.226 . S
C652 O642 1.307 . S
C653 O645 1.303 . S
C653 O646 1.247 . S
C654 O643 1.253 . S
C654 O644 1.283 . S
C655 O647 1.304 . S
C655 O649 1.272 . S
C656 O648 1.311 . S
C656 O650 1.231 . S
O657 Zn639 1.953 . S
O657 C651 1.298 . S
O658 Zn659 1.953 . S
O658 C674 1.225 . S
Zn659 O658 1.953 . S
Zn659 O660 1.949 . S
Zn659 O666 1.919 . S
Zn659 O671 1.924 . S
O660 Zn659 1.949 . S
O660 Zn661 1.923 . S
O660 Zn662 1.950 . S
O660 Zn663 1.945 . S
Zn661 O660 1.923 . S
Zn661 O664 1.933 . S
Zn661 O667 1.941 . S
Zn661 O668 1.965 . S
Zn662 O660 1.950 . S
Zn662 O669 1.938 . S
Zn662 O670 1.906 . S
Zn662 O680 1.953 . S
Zn663 O660 1.945 . S
Zn663 O665 1.932 . S
Zn663 O672 1.977 . S
Zn663 O673 1.910 . S
O664 Zn661 1.933 . S
O664 C675 1.226 . S
O665 Zn663 1.932 . S
O665 C675 1.307 . S
O666 Zn659 1.919 . S
O666 C677 1.253 . S
O667 Zn661 1.941 . S
O667 C677 1.283 . S
O668 Zn661 1.965 . S
O668 C676 1.303 . S
O669 Zn662 1.938 . S
O669 C676 1.247 . S
O670 Zn662 1.906 . S
O670 C678 1.304 . S
O671 Zn659 1.924 . S
O671 C679 1.311 . S
O672 Zn663 1.977 . S
O672 C678 1.272 . S
O673 Zn663 1.910 . S
O673 C679 1.231 . S
C674 O658 1.225 . S
C674 O680 1.298 . S
C675 O664 1.226 . S
C675 O665 1.307 . S
C676 O668 1.303 . S
C676 O669 1.247 . S
C677 O666 1.253 . S
C677 O667 1.283 . S
C678 O670 1.304 . S
C678 O672 1.272 . S
C679 O671 1.311 . S
C679 O673 1.231 . S
O680 Zn662 1.953 . S
O680 C674 1.298 . S
O681 Zn682 1.953 1_455 S
O681 C697 1.225 . S
Zn682 O681 1.953 1_655 S
Zn682 O683 1.949 1_655 S
Zn682 O689 1.916 1_554 S
Zn682 O694 1.924 1_654 S
O683 Zn682 1.949 1_455 S
O683 Zn684 1.923 1_455 S
O683 Zn685 1.950 . S
O683 Zn686 1.945 1_554 S
Zn684 O683 1.923 1_655 S
Zn684 O687 1.933 . S
Zn684 O690 1.941 . S
Zn684 O691 1.965 . S
Zn685 O683 1.950 . S
Zn685 O692 1.938 . S
Zn685 O693 1.906 . S
Zn685 O703 1.953 . S
Zn686 O683 1.945 1_556 S
Zn686 O688 1.932 . S
Zn686 O695 1.977 1_556 S
Zn686 O696 1.910 . S
O687 Zn684 1.933 . S
O687 C698 1.226 1_554 S
O688 Zn686 1.932 . S
O688 C698 1.307 1_455 S
O689 Zn682 1.916 1_556 S
O689 C700 1.249 1_556 S
O690 Zn684 1.941 . S
O690 C700 1.283 . S
O691 Zn684 1.965 . S
O691 C699 1.303 . S
O692 Zn685 1.938 . S
O692 C699 1.247 1_455 S
O693 Zn685 1.906 . S
O693 C701 1.304 . S
O694 Zn682 1.924 1_456 S
O694 C702 1.311 . S
O695 Zn686 1.977 1_554 S
O695 C701 1.272 . S
O696 Zn686 1.910 . S
O696 C702 1.231 . S
C697 O681 1.225 . S
C697 O703 1.298 . S
C698 O687 1.226 1_556 S
C698 O688 1.307 1_655 S
C699 O691 1.303 . S
C699 O692 1.247 1_655 S
C700 O689 1.249 1_554 S
C700 O690 1.283 . S
C701 O693 1.304 . S
C701 O695 1.272 . S
C702 O694 1.311 . S
C702 O696 1.231 . S
O703 Zn685 1.953 . S
O703 C697 1.298 . S
H704 C712 0.950 . S
H705 C717 0.950 . S
H706 C714 0.950 . S
H707 C716 0.950 . S
H708 C718 0.950 . S
H709 C720 0.950 . S
H710 C722 0.950 . S
H711 C723 0.950 . S
C712 H704 0.950 . S
C712 C713 1.386 . S
C712 C714 1.391 1_455 S
C713 C712 1.386 . S
C713 C717 1.393 . S
C714 H706 0.950 . S
C714 C712 1.391 1_655 S
C714 C715 1.400 . S
C715 C714 1.400 . S
C715 C716 1.403 . S
C715 C721 1.491 . S
C716 H707 0.950 . S
C716 C715 1.403 . S
C716 C717 1.387 1_655 S
C717 H705 0.950 . S
C717 C713 1.393 . S
C717 C716 1.387 1_455 S
C718 H708 0.950 . S
C718 C719 1.386 . S
C718 C720 1.391 . S
C719 C718 1.386 . S
C719 C723 1.393 . S
C720 H709 0.950 . S
C720 C718 1.391 . S
C720 C721 1.400 . S
C721 C715 1.491 . S
C721 C720 1.400 . S
C721 C722 1.398 . S
C722 H710 0.950 . S
C722 C721 1.398 . S
C722 C723 1.391 . S
C723 H711 0.950 . S
C723 C719 1.393 . S
C723 C722 1.391 . S
H724 C732 0.950 . S
H725 C737 0.950 . S
H726 C734 0.950 . S
H727 C736 0.950 . S
H728 C738 0.950 . S
H729 C740 0.950 . S
H730 C742 0.950 . S
H731 C743 0.950 . S
C732 H724 0.950 . S
C732 C733 1.386 . S
C732 C734 1.391 . S
C733 C732 1.386 . S
C733 C737 1.393 . S
C734 H726 0.950 . S
C734 C732 1.391 . S
C734 C735 1.400 . S
C735 C734 1.400 . S
C735 C736 1.398 . S
C735 C741 1.491 . S
C736 H727 0.950 . S
C736 C735 1.398 . S
C736 C737 1.391 . S
C737 H725 0.950 . S
C737 C733 1.393 . S
C737 C736 1.391 . S
C738 H728 0.950 . S
C738 C739 1.386 . S
C738 C740 1.391 . S
C739 C738 1.386 . S
C739 C743 1.393 . S
C740 H729 0.950 . S
C740 C738 1.391 . S
C740 C741 1.400 . S
C741 C735 1.491 . S
C741 C740 1.400 . S
C741 C742 1.398 . S
C742 H730 0.950 . S
C742 C741 1.398 . S
C742 C743 1.391 . S
C743 H731 0.950 . S
C743 C739 1.393 . S
C743 C742 1.391 . S
H744 C752 0.950 . S
H745 C757 0.950 . S
H746 C754 0.950 . S
H747 C756 0.950 . S
H748 C758 0.950 . S
H749 C760 0.950 . S
H750 C762 0.950 . S
H751 C763 0.950 . S
C752 H744 0.950 . S
C752 C753 1.386 . S
C752 C754 1.391 . S
C753 C752 1.386 . S
C753 C757 1.393 . S
C754 H746 0.950 . S
C754 C752 1.391 . S
C754 C755 1.400 . S
C755 C754 1.400 . S
C755 C756 1.398 . S
C755 C761 1.491 . S
C756 H747 0.950 . S
C756 C755 1.398 . S
C756 C757 1.391 . S
C757 H745 0.950 . S
C757 C753 1.393 . S
C757 C756 1.391 . S
C758 H748 0.950 . S
C758 C759 1.386 . S
C758 C760 1.391 . S
C759 C758 1.386 . S
C759 C763 1.393 . S
C760 H749 0.950 . S
C760 C758 1.391 . S
C760 C761 1.400 . S
C761 C755 1.491 . S
C761 C760 1.400 . S
C761 C762 1.398 . S
C762 H750 0.950 . S
C762 C761 1.398 . S
C762 C763 1.391 . S
C763 H751 0.950 . S
C763 C759 1.393 . S
C763 C762 1.391 . S
H764 C772 0.950 . S
H765 C777 0.950 . S
H766 C774 0.950 . S
H767 C776 0.950 . S
H768 C778 0.950 . S
H769 C780 0.950 . S
H770 C782 0.950 . S
H771 C783 0.950 . S
C772 H764 0.950 . S
C772 C773 1.386 . S
C772 C774 1.391 . S
C773 C772 1.386 . S
C773 C777 1.393 . S
C774 H766 0.950 . S
C774 C772 1.391 . S
C774 C775 1.400 . S
C775 C774 1.400 . S
C775 C776 1.398 . S
C775 C781 1.491 . S
C776 H767 0.950 . S
C776 C775 1.398 . S
C776 C777 1.391 . S
C777 H765 0.950 . S
C777 C773 1.393 . S
C777 C776 1.391 . S
C778 H768 0.950 . S
C778 C779 1.386 . S
C778 C780 1.391 . S
C779 C778 1.386 . S
C779 C783 1.393 . S
C780 H769 0.950 . S
C780 C778 1.391 . S
C780 C781 1.400 . S
C781 C775 1.491 . S
C781 C780 1.400 . S
C781 C782 1.398 . S
C782 H770 0.950 . S
C782 C781 1.398 . S
C782 C783 1.391 . S
C783 H771 0.950 . S
C783 C779 1.393 . S
C783 C782 1.391 . S
H784 C792 0.950 . S
H785 C797 0.950 . S
H786 C794 0.950 . S
H787 C796 0.950 . S
H788 C798 0.950 . S
H789 C800 0.950 . S
H790 C802 0.950 . S
H791 C803 0.950 . S
C792 H784 0.950 . S
C792 C793 1.386 . S
C792 C794 1.391 . S
C793 C792 1.386 . S
C793 C797 1.393 1_455 S
C794 H786 0.950 . S
C794 C792 1.391 . S
C794 C795 1.400 1_455 S
C795 C794 1.400 1_655 S
C795 C796 1.398 . S
C795 C801 1.491 . S
C796 H787 0.950 . S
C796 C795 1.398 . S
C796 C797 1.391 . S
C797 H785 0.950 . S
C797 C793 1.393 1_655 S
C797 C796 1.391 . S
C798 H788 0.950 . S
C798 C799 1.386 . S
C798 C800 1.391 . S
C799 C798 1.386 . S
C799 C803 1.393 1_655 S
C800 H789 0.950 . S
C800 C798 1.391 . S
C800 C801 1.400 . S
C801 C795 1.491 . S
C801 C800 1.400 . S
C801 C802 1.398 1_655 S
C802 H790 0.950 . S
C802 C801 1.398 1_455 S
C802 C803 1.391 . S
C803 H791 0.950 . S
C803 C799 1.393 1_455 S
C803 C802 1.391 . S
H804 C812 0.950 . S
H805 C817 0.950 . S
H806 C814 0.950 . S
H807 C816 0.950 . S
H808 C818 0.950 . S
H809 C820 0.950 . S
H810 C822 0.950 . S
H811 C823 0.950 . S
C812 H804 0.950 . S
C812 C813 1.386 . S
C812 C814 1.391 . S
C813 C812 1.386 . S
C813 C817 1.393 . S
C814 H806 0.950 . S
C814 C812 1.391 . S
C814 C815 1.400 . S
C815 C814 1.400 . S
C815 C816 1.398 . S
C815 C821 1.491 . S
C816 H807 0.950 . S
C816 C815 1.398 . S
C816 C817 1.391 . S
C817 H805 0.950 . S
C817 C813 1.393 . S
C817 C816 1.391 . S
C818 H808 0.950 . S
C818 C819 1.386 . S
C818 C820 1.391 . S
C819 C818 1.386 . S
C819 C823 1.393 . S
C820 H809 0.950 . S
C820 C818 1.391 . S
C820 C821 1.400 . S
C821 C815 1.491 . S
C821 C820 1.400 . S
C821 C822 1.398 . S
C822 H810 0.950 . S
C822 C821 1.398 . S
C822 C823 1.391 . S
C823 H811 0.950 . S
C823 C819 1.393 . S
C823 C822 1.391 . S
H824 C832 0.950 . S
H825 C837 0.950 . S
H826 C834 0.950 . S
H827 C836 0.950 . S
H828 C838 0.950 . S
H829 C840 0.950 . S
H830 C842 0.950 . S
H831 C843 0.950 . S
C832 H824 0.950 . S
C832 C833 1.386 . S
C832 C834 1.391 . S
C833 C832 1.386 . S
C833 C837 1.393 . S
C834 H826 0.950 . S
C834 C832 1.391 . S
C834 C835 1.400 . S
C835 C834 1.400 . S
C835 C836 1.398 . S
C835 C841 1.491 . S
C836 H827 0.950 . S
C836 C835 1.398 . S
C836 C837 1.391 . S
C837 H825 0.950 . S
C837 C833 1.393 . S
C837 C836 1.391 . S
C838 H828 0.950 . S
C838 C839 1.386 . S
C838 C840 1.391 . S
C839 C838 1.386 . S
C839 C843 1.393 . S
C840 H829 0.950 . S
C840 C838 1.391 . S
C840 C841 1.400 . S
C841 C835 1.491 . S
C841 C840 1.400 . S
C841 C842 1.398 . S
C842 H830 0.950 . S
C842 C841 1.398 . S
C842 C843 1.391 . S
C843 H831 0.950 . S
C843 C839 1.393 . S
C843 C842 1.391 . S
H844 C852 0.950 . S
H845 C857 0.950 . S
H846 C854 0.950 . S
H847 C856 0.950 . S
H848 C858 0.950 . S
H849 C860 0.950 . S
H850 C862 0.950 . S
H851 C863 0.950 . S
C852 H844 0.950 . S
C852 C853 1.386 . S
C852 C854 1.391 . S
C853 C852 1.386 . S
C853 C857 1.393 . S
C854 H846 0.950 . S
C854 C852 1.391 . S
C854 C855 1.400 . S
C855 C854 1.400 . S
C855 C856 1.398 . S
C855 C861 1.491 . S
C856 H847 0.950 . S
C856 C855 1.398 . S
C856 C857 1.391 . S
C857 H845 0.950 . S
C857 C853 1.393 . S
C857 C856 1.391 . S
C858 H848 0.950 . S
C858 C859 1.386 . S
C858 C860 1.391 . S
C859 C858 1.386 . S
C859 C863 1.393 . S
C860 H849 0.950 . S
C860 C858 1.391 . S
C860 C861 1.400 . S
C861 C855 1.491 . S
C861 C860 1.400 . S
C861 C862 1.398 . S
C862 H850 0.950 . S
C862 C861 1.398 . S
C862 C863 1.391 . S
C863 H851 0.950 . S
C863 C859 1.393 . S
C863 C862 1.391 . S
H864 C872 0.950 . S
H865 C877 0.950 . S
H866 C874 0.950 . S
H867 C876 0.950 . S
H868 C878 0.950 . S
H869 C880 0.950 . S
H870 C882 0.950 . S
H871 C883 0.950 . S
C872 H864 0.950 . S
C872 C873 1.386 . S
C872 C874 1.391 . S
C873 C872 1.386 . S
C873 C877 1.393 1_545 S
C874 H866 0.950 . S
C874 C872 1.391 . S
C874 C875 1.400 . S
C875 C874 1.400 . S
C875 C876 1.398 1_545 S
C875 C881 1.491 . S
C876 H867 0.950 . S
C876 C875 1.398 1_565 S
C876 C877 1.391 . S
C877 H865 0.950 . S
C877 C873 1.393 1_565 S
C877 C876 1.391 . S
C878 H868 0.950 . S
C878 C879 1.386 1_565 S
C878 C880 1.391 . S
C879 C878 1.386 1_545 S
C879 C883 1.393 . S
C880 H869 0.950 . S
C880 C878 1.391 . S
C880 C881 1.400 1_565 S
C881 C875 1.491 . S
C881 C880 1.400 1_545 S
C881 C882 1.398 . S
C882 H870 0.950 . S
C882 C881 1.398 . S
C882 C883 1.391 . S
C883 H871 0.950 . S
C883 C879 1.393 . S
C883 C882 1.391 . S
H884 C892 0.950 . S
H885 C897 0.950 . S
H886 C894 0.950 . S
H887 C896 0.950 . S
H888 C898 0.950 . S
H889 C900 0.950 . S
H890 C902 0.950 . S
H891 C903 0.950 . S
C892 H884 0.950 . S
C892 C893 1.386 . S
C892 C894 1.391 . S
C893 C892 1.386 . S
C893 C897 1.393 . S
C894 H886 0.950 . S
C894 C892 1.391 . S
C894 C895 1.400 . S
C895 C894 1.400 . S
C895 C896 1.398 . S
C895 C901 1.491 . S
C896 H887 0.950 . S
C896 C895 1.398 . S
C896 C897 1.391 . S
C897 H885 0.950 . S
C897 C893 1.393 . S
C897 C896 1.391 . S
C898 H888 0.950 . S
C898 C899 1.386 . S
C898 C900 1.391 . S
C899 C898 1.386 . S
C899 C903 1.393 . S
C900 H889 0.950 . S
C900 C898 1.391 . S
C900 C901 1.400 . S
C901 C895 1.491 . S
C901 C900 1.400 . S
C901 C902 1.398 . S
C902 H890 0.950 . S
C902 C901 1.398 . S
C902 C903 1.391 . S
C903 H891 0.950 . S
C903 C899 1.393 . S
C903 C902 1.391 . S
H904 C912 0.950 . S
H905 C917 0.950 . S
H906 C914 0.950 . S
H907 C916 0.950 . S
H908 C918 0.950 . S
H909 C920 0.950 . S
H910 C922 0.950 . S
H911 C923 0.950 . S
C912 H904 0.950 . S
C912 C913 1.386 1_565 S
C912 C914 1.391 . S
C913 C912 1.386 1_545 S
C913 C917 1.393 . S
C914 H906 0.950 . S
C914 C912 1.391 . S
C914 C915 1.400 1_565 S
C915 C914 1.400 1_545 S
C915 C916 1.398 . S
C915 C921 1.491 . S
C916 H907 0.950 . S
C916 C915 1.398 . S
C916 C917 1.391 . S
C917 H905 0.950 . S
C917 C913 1.393 . S
C917 C916 1.391 . S
C918 H908 0.950 . S
C918 C919 1.386 . S
C918 C920 1.391 . S
C919 C918 1.386 . S
C919 C923 1.393 1_545 S
C920 H909 0.950 . S
C920 C918 1.391 . S
C920 C921 1.400 . S
C921 C915 1.491 . S
C921 C920 1.400 . S
C921 C922 1.398 1_545 S
C922 H910 0.950 . S
C922 C921 1.398 1_565 S
C922 C923 1.391 . S
C923 H911 0.950 . S
C923 C919 1.393 1_565 S
C923 C922 1.391 . S
H924 C932 0.950 . S
H925 C937 0.950 . S
H926 C934 0.950 . S
H927 C936 0.950 . S
H928 C938 0.950 . S
H929 C940 0.950 . S
H930 C942 0.950 . S
H931 C943 0.950 . S
C932 H924 0.950 . S
C932 C933 1.386 . S
C932 C934 1.391 . S
C933 C932 1.386 . S
C933 C937 1.393 . S
C934 H926 0.950 . S
C934 C932 1.391 . S
C934 C935 1.400 . S
C935 C934 1.400 . S
C935 C936 1.398 . S
C935 C941 1.491 . S
C936 H927 0.950 . S
C936 C935 1.398 . S
C936 C937 1.391 . S
C937 H925 0.950 . S
C937 C933 1.393 . S
C937 C936 1.391 . S
C938 H928 0.950 . S
C938 C939 1.386 . S
C938 C940 1.391 . S
C939 C938 1.386 . S
C939 C943 1.393 . S
C940 H929 0.950 . S
C940 C938 1.391 . S
C940 C941 1.400 . S
C941 C935 1.491 . S
C941 C940 1.400 . S
C941 C942 1.398 . S
C942 H930 0.950 . S
C942 C941 1.398 . S
C942 C943 1.391 . S
C943 H931 0.950 . S
C943 C939 1.393 . S
C943 C942 1.391 . S
H944 C952 0.951 1_565 S
H945 C957 0.950 . S
H946 C954 0.950 . S
H947 C956 0.950 . S
H948 C958 0.950 . S
H949 C960 0.950 . S
H950 C962 0.950 . S
H951 C963 0.950 . S
C952 H944 0.951 1_545 S
C952 C953 1.386 . S
C952 C954 1.391 . S
C953 C952 1.386 . S
C953 C957 1.393 . S
C954 H946 0.950 . S
C954 C952 1.391 . S
C954 C955 1.400 . S
C955 C954 1.400 . S
C955 C956 1.398 . S
C955 C961 1.491 . S
C956 H947 0.950 . S
C956 C955 1.398 . S
C956 C957 1.391 . S
C957 H945 0.950 . S
C957 C953 1.393 . S
C957 C956 1.391 . S
C958 H948 0.950 . S
C958 C959 1.386 . S
C958 C960 1.391 . S
C959 C958 1.386 . S
C959 C963 1.393 . S
C960 H949 0.950 . S
C960 C958 1.391 . S
C960 C961 1.400 . S
C961 C955 1.491 . S
C961 C960 1.400 . S
C961 C962 1.398 . S
C962 H950 0.950 . S
C962 C961 1.398 . S
C962 C963 1.391 . S
C963 H951 0.950 . S
C963 C959 1.393 . S
C963 C962 1.391 . S
H964 C972 0.950 . S
H965 C977 0.950 . S
H966 C974 0.950 . S
H967 C976 0.950 . S
H968 C978 0.950 . S
H969 C980 0.950 . S
H970 C982 0.950 . S
H971 C983 0.950 . S
C972 H964 0.950 . S
C972 C973 1.386 . S
C972 C974 1.391 . S
C973 C972 1.386 . S
C973 C977 1.393 . S
C974 H966 0.950 . S
C974 C972 1.391 . S
C974 C975 1.400 . S
C975 C974 1.400 . S
C975 C976 1.398 . S
C975 C981 1.491 . S
C976 H967 0.950 . S
C976 C975 1.398 . S
C976 C977 1.391 . S
C977 H965 0.950 . S
C977 C973 1.393 . S
C977 C976 1.391 . S
C978 H968 0.950 . S
C978 C979 1.386 . S
C978 C980 1.391 . S
C979 C978 1.386 . S
C979 C983 1.393 . S
C980 H969 0.950 . S
C980 C978 1.391 . S
C980 C981 1.400 . S
C981 C975 1.491 . S
C981 C980 1.400 . S
C981 C982 1.398 . S
C982 H970 0.950 . S
C982 C981 1.398 . S
C982 C983 1.391 . S
C983 H971 0.950 . S
C983 C979 1.393 . S
C983 C982 1.391 . S
H984 C992 0.950 . S
H985 C997 0.950 . S
H986 C994 0.950 . S
H987 C996 0.950 . S
H988 C998 0.950 . S
H989 C1000 0.950 . S
H990 C1002 0.950 . S
H991 C1003 0.950 . S
C992 H984 0.950 . S
C992 C993 1.386 1_545 S
C992 C994 1.391 . S
C993 C992 1.386 1_565 S
C993 C997 1.393 . S
C994 H986 0.950 . S
C994 C992 1.391 . S
C994 C995 1.400 1_545 S
C995 C994 1.400 1_565 S
C995 C996 1.398 . S
C995 C1001 1.491 . S
C996 H987 0.950 . S
C996 C995 1.398 . S
C996 C997 1.391 . S
C997 H985 0.950 . S
C997 C993 1.393 . S
C997 C996 1.391 . S
C998 H988 0.950 . S
C998 C999 1.386 . S
C998 C1000 1.391 . S
C999 C998 1.386 . S
C999 C1003 1.393 1_565 S
C1000 H989 0.950 . S
C1000 C998 1.391 . S
C1000 C1001 1.400 . S
C1001 C995 1.491 . S
C1001 C1000 1.400 . S
C1001 C1002 1.398 1_565 S
C1002 H990 0.950 . S
C1002 C1001 1.398 1_545 S
C1002 C1003 1.391 . S
C1003 H991 0.950 . S
C1003 C999 1.393 1_545 S
C1003 C1002 1.391 . S
H1004 C1012 0.950 . S
H1005 C1017 0.950 . S
H1006 C1014 0.950 . S
H1007 C1016 0.950 . S
H1008 C1018 0.950 . S
H1009 C1020 0.950 . S
H1010 C1022 0.950 . S
H1011 C1023 0.950 . S
C1012 H1004 0.950 . S
C1012 C1013 1.386 . S
C1012 C1014 1.391 . S
C1013 C1012 1.386 . S
C1013 C1017 1.393 . S
C1014 H1006 0.950 . S
C1014 C1012 1.391 . S
C1014 C1015 1.400 . S
C1015 C1014 1.400 . S
C1015 C1016 1.398 . S
C1015 C1021 1.491 . S
C1016 H1007 0.950 . S
C1016 C1015 1.398 . S
C1016 C1017 1.391 . S
C1017 H1005 0.950 . S
C1017 C1013 1.393 . S
C1017 C1016 1.391 . S
C1018 H1008 0.950 . S
C1018 C1019 1.386 . S
C1018 C1020 1.391 . S
C1019 C1018 1.386 . S
C1019 C1023 1.393 . S
C1020 H1009 0.950 . S
C1020 C1018 1.391 . S
C1020 C1021 1.400 . S
C1021 C1015 1.491 . S
C1021 C1020 1.400 . S
C1021 C1022 1.398 . S
C1022 H1010 0.950 . S
C1022 C1021 1.398 . S
C1022 C1023 1.391 . S
C1023 H1011 0.950 . S
C1023 C1019 1.393 . S
C1023 C1022 1.391 . S
H1024 C1032 0.950 . S
H1025 C1037 0.950 . S
H1026 C1034 0.950 . S
H1027 C1036 0.950 . S
H1028 C1038 0.950 . S
H1029 C1040 0.950 . S
H1030 C1042 0.950 . S
H1031 C1043 0.959 . S
C1032 H1024 0.950 . S
C1032 C1033 1.386 . S
C1032 C1034 1.391 . S
C1033 C1032 1.386 . S
C1033 C1037 1.393 1_554 S
C1034 H1026 0.950 . S
C1034 C1032 1.391 . S
C1034 C1035 1.400 . S
C1035 C1034 1.400 . S
C1035 C1036 1.398 1_554 S
C1035 C1041 1.491 . S
C1036 H1027 0.950 . S
C1036 C1035 1.398 1_556 S
C1036 C1037 1.391 . S
C1037 H1025 0.950 . S
C1037 C1033 1.393 1_556 S
C1037 C1036 1.391 . S
C1038 H1028 0.950 . S
C1038 C1039 1.386 . S
C1038 C1040 1.391 . S
C1039 C1038 1.386 . S
C1039 C1043 1.393 1_556 S
C1040 H1029 0.950 . S
C1040 C1038 1.391 . S
C1040 C1041 1.400 1_556 S
C1041 C1035 1.491 . S
C1041 C1040 1.400 1_554 S
C1041 C1042 1.398 . S
C1042 H1030 0.950 . S
C1042 C1041 1.398 . S
C1042 C1043 1.391 . S
C1043 H1031 0.959 . S
C1043 C1039 1.393 1_554 S
C1043 C1042 1.391 . S
H1044 C1052 0.950 1_556 S
H1045 C1057 0.950 . S
H1046 C1054 0.950 . S
H1047 C1056 0.950 . S
H1048 C1058 0.950 . S
H1049 C1060 0.950 . S
H1050 C1062 0.950 . S
H1051 C1063 0.950 . S
C1052 H1044 0.950 1_554 S
C1052 C1053 1.386 . S
C1052 C1054 1.391 . S
C1053 C1052 1.386 . S
C1053 C1057 1.393 . S
C1054 H1046 0.950 . S
C1054 C1052 1.391 . S
C1054 C1055 1.400 . S
C1055 C1054 1.400 . S
C1055 C1056 1.398 . S
C1055 C1061 1.491 . S
C1056 H1047 0.950 . S
C1056 C1055 1.398 . S
C1056 C1057 1.391 . S
C1057 H1045 0.950 . S
C1057 C1053 1.393 . S
C1057 C1056 1.391 . S
C1058 H1048 0.950 . S
C1058 C1059 1.386 . S
C1058 C1060 1.391 . S
C1059 C1058 1.386 . S
C1059 C1063 1.393 . S
C1060 H1049 0.950 . S
C1060 C1058 1.391 . S
C1060 C1061 1.400 . S
C1061 C1055 1.491 . S
C1061 C1060 1.400 . S
C1061 C1062 1.398 . S
C1062 H1050 0.950 . S
C1062 C1061 1.398 . S
C1062 C1063 1.391 . S
C1063 H1051 0.950 . S
C1063 C1059 1.393 . S
C1063 C1062 1.391 . S
H1064 C1072 0.950 . S
H1065 C1077 0.950 . S
H1066 C1074 0.950 . S
H1067 C1076 0.950 . S
H1068 C1078 0.950 . S
H1069 C1080 0.950 . S
H1070 C1082 0.950 . S
H1071 C1083 0.950 . S
C1072 H1064 0.950 . S
C1072 C1073 1.386 . S
C1072 C1074 1.391 . S
C1073 C1072 1.386 . S
C1073 C1077 1.393 . S
C1074 H1066 0.950 . S
C1074 C1072 1.391 . S
C1074 C1075 1.400 . S
C1075 C1074 1.400 . S
C1075 C1076 1.398 . S
C1075 C1081 1.491 . S
C1076 H1067 0.950 . S
C1076 C1075 1.398 . S
C1076 C1077 1.391 . S
C1077 H1065 0.950 . S
C1077 C1073 1.393 . S
C1077 C1076 1.391 . S
C1078 H1068 0.950 . S
C1078 C1079 1.386 . S
C1078 C1080 1.391 . S
C1079 C1078 1.386 . S
C1079 C1083 1.393 . S
C1080 H1069 0.950 . S
C1080 C1078 1.391 . S
C1080 C1081 1.400 . S
C1081 C1075 1.491 . S
C1081 C1080 1.400 . S
C1081 C1082 1.398 . S
C1082 H1070 0.950 . S
C1082 C1081 1.398 . S
C1082 C1083 1.391 . S
C1083 H1071 0.950 . S
C1083 C1079 1.393 . S
C1083 C1082 1.391 . S
H1084 C1092 0.950 . S
H1085 C1097 0.950 . S
H1086 C1094 0.950 . S
H1087 C1096 0.950 . S
H1088 C1098 0.950 . S
H1089 C1100 0.950 . S
H1090 C1102 0.950 . S
H1091 C1103 0.950 . S
C1092 H1084 0.950 . S
C1092 C1093 1.386 . S
C1092 C1094 1.391 . S
C1093 C1092 1.386 . S
C1093 C1097 1.393 . S
C1094 H1086 0.950 . S
C1094 C1092 1.391 . S
C1094 C1095 1.400 . S
C1095 C1094 1.400 . S
C1095 C1096 1.398 . S
C1095 C1101 1.491 . S
C1096 H1087 0.950 . S
C1096 C1095 1.398 . S
C1096 C1097 1.391 . S
C1097 H1085 0.950 . S
C1097 C1093 1.393 . S
C1097 C1096 1.391 . S
C1098 H1088 0.950 . S
C1098 C1099 1.386 . S
C1098 C1100 1.391 . S
C1099 C1098 1.386 . S
C1099 C1103 1.393 . S
C1100 H1089 0.950 . S
C1100 C1098 1.391 . S
C1100 C1101 1.400 . S
C1101 C1095 1.491 . S
C1101 C1100 1.400 . S
C1101 C1102 1.398 . S
C1102 H1090 0.950 . S
C1102 C1101 1.398 . S
C1102 C1103 1.391 . S
C1103 H1091 0.950 . S
C1103 C1099 1.393 . S
C1103 C1102 1.391 . S
H1104 C1112 0.950 . S
H1105 C1117 0.950 . S
H1106 C1114 0.950 . S
H1107 C1116 0.950 . S
H1108 C1118 0.950 . S
H1109 C1120 0.950 . S
H1110 C1122 0.950 . S
H1111 C1123 0.950 . S
C1112 H1104 0.950 . S
C1112 C1113 1.386 . S
C1112 C1114 1.391 . S
C1113 C1112 1.386 . S
C1113 C1117 1.393 . S
C1114 H1106 0.950 . S
C1114 C1112 1.391 . S
C1114 C1115 1.400 . S
C1115 C1114 1.400 . S
C1115 C1116 1.398 . S
C1115 C1121 1.491 . S
C1116 H1107 0.950 . S
C1116 C1115 1.398 . S
C1116 C1117 1.391 . S
C1117 H1105 0.950 . S
C1117 C1113 1.393 . S
C1117 C1116 1.391 . S
C1118 H1108 0.950 . S
C1118 C1119 1.386 . S
C1118 C1120 1.391 . S
C1119 C1118 1.386 . S
C1119 C1123 1.393 . S
C1120 H1109 0.950 . S
C1120 C1118 1.391 . S
C1120 C1121 1.400 . S
C1121 C1115 1.491 . S
C1121 C1120 1.400 . S
C1121 C1122 1.398 . S
C1122 H1110 0.950 . S
C1122 C1121 1.398 . S
C1122 C1123 1.391 . S
C1123 H1111 0.950 . S
C1123 C1119 1.393 . S
C1123 C1122 1.391 . S
H1124 C1132 0.950 . S
H1125 C1137 0.950 . S
H1126 C1134 0.950 . S
H1127 C1136 0.950 . S
H1128 C1138 0.950 . S
H1129 C1140 0.950 . S
H1130 C1142 0.950 . S
H1131 C1143 0.950 . S
C1132 H1124 0.950 . S
C1132 C1133 1.386 . S
C1132 C1134 1.391 . S
C1133 C1132 1.386 . S
C1133 C1137 1.393 . S
C1134 H1126 0.950 . S
C1134 C1132 1.391 . S
C1134 C1135 1.400 . S
C1135 C1134 1.400 . S
C1135 C1136 1.398 . S
C1135 C1141 1.491 . S
C1136 H1127 0.950 . S
C1136 C1135 1.398 . S
C1136 C1137 1.391 . S
C1137 H1125 0.950 . S
C1137 C1133 1.393 . S
C1137 C1136 1.391 . S
C1138 H1128 0.950 . S
C1138 C1139 1.386 1_545 S
C1138 C1140 1.391 1_545 S
C1139 C1138 1.386 1_565 S
C1139 C1143 1.393 . S
C1140 H1129 0.950 . S
C1140 C1138 1.391 1_565 S
C1140 C1141 1.400 . S
C1141 C1135 1.491 . S
C1141 C1140 1.400 . S
C1141 C1142 1.398 . S
C1142 H1130 0.950 . S
C1142 C1141 1.398 . S
C1142 C1143 1.391 . S
C1143 H1131 0.950 . S
C1143 C1139 1.393 . S
C1143 C1142 1.391 . S
H1144 C1152 0.950 . S
H1145 C1157 0.950 . S
H1146 C1154 0.950 . S
H1147 C1156 0.950 . S
H1148 C1158 0.950 . S
H1149 C1160 0.950 . S
H1150 C1162 0.950 . S
H1151 C1163 0.950 . S
C1152 H1144 0.950 . S
C1152 C1153 1.386 . S
C1152 C1154 1.391 . S
C1153 C1152 1.386 . S
C1153 C1157 1.393 . S
C1154 H1146 0.950 . S
C1154 C1152 1.391 . S
C1154 C1155 1.400 . S
C1155 C1154 1.400 . S
C1155 C1156 1.398 . S
C1155 C1161 1.491 . S
C1156 H1147 0.950 . S
C1156 C1155 1.398 . S
C1156 C1157 1.391 . S
C1157 H1145 0.950 . S
C1157 C1153 1.393 . S
C1157 C1156 1.391 . S
C1158 H1148 0.950 . S
C1158 C1159 1.386 . S
C1158 C1160 1.391 . S
C1159 C1158 1.386 . S
C1159 C1163 1.393 . S
C1160 H1149 0.950 . S
C1160 C1158 1.391 . S
C1160 C1161 1.400 . S
C1161 C1155 1.491 . S
C1161 C1160 1.400 . S
C1161 C1162 1.398 . S
C1162 H1150 0.950 . S
C1162 C1161 1.398 . S
C1162 C1163 1.391 . S
C1163 H1151 0.950 . S
C1163 C1159 1.393 . S
C1163 C1162 1.391 . S
H1164 C1172 0.950 . S
H1165 C1177 0.950 . S
H1166 C1174 0.950 . S
H1167 C1176 0.950 . S
H1168 C1178 0.950 . S
H1169 C1180 0.950 . S
H1170 C1182 0.950 . S
H1171 C1183 0.950 . S
C1172 H1164 0.950 . S
C1172 C1173 1.386 . S
C1172 C1174 1.391 . S
C1173 C1172 1.386 . S
C1173 C1177 1.393 . S
C1174 H1166 0.950 . S
C1174 C1172 1.391 . S
C1174 C1175 1.400 . S
C1175 C1174 1.400 . S
C1175 C1176 1.398 . S
C1175 C1181 1.491 . S
C1176 H1167 0.950 . S
C1176 C1175 1.398 . S
C1176 C1177 1.391 . S
C1177 H1165 0.950 . S
C1177 C1173 1.393 . S
C1177 C1176 1.391 . S
C1178 H1168 0.950 . S
C1178 C1179 1.386 . S
C1178 C1180 1.391 . S
C1179 C1178 1.386 . S
C1179 C1183 1.393 . S
C1180 H1169 0.950 . S
C1180 C1178 1.391 . S
C1180 C1181 1.400 . S
C1181 C1175 1.491 . S
C1181 C1180 1.400 . S
C1181 C1182 1.398 . S
C1182 H1170 0.950 . S
C1182 C1181 1.398 . S
C1182 C1183 1.391 . S
C1183 H1171 0.950 . S
C1183 C1179 1.393 . S
C1183 C1182 1.391 . S
H1184 C1192 0.950 . S
H1185 C1197 0.950 . S
H1186 C1194 0.950 . S
H1187 C1196 0.950 . S
H1188 C1198 0.950 . S
H1189 C1200 0.950 . S
H1190 C1202 0.950 . S
H1191 C1203 0.950 . S
C1192 H1184 0.950 . S
C1192 C1193 1.386 1_655 S
C1192 C1194 1.391 . S
C1193 C1192 1.386 1_455 S
C1193 C1197 1.393 . S
C1194 H1186 0.950 . S
C1194 C1192 1.391 . S
C1194 C1195 1.400 1_655 S
C1195 C1194 1.400 1_455 S
C1195 C1196 1.398 . S
C1195 C1201 1.491 . S
C1196 H1187 0.950 . S
C1196 C1195 1.398 . S
C1196 C1197 1.391 . S
C1197 H1185 0.950 . S
C1197 C1193 1.393 . S
C1197 C1196 1.391 . S
C1198 H1188 0.950 . S
C1198 C1199 1.386 . S
C1198 C1200 1.391 . S
C1199 C1198 1.386 . S
C1199 C1203 1.393 1_455 S
C1200 H1189 0.950 . S
C1200 C1198 1.391 . S
C1200 C1201 1.400 . S
C1201 C1195 1.491 . S
C1201 C1200 1.400 . S
C1201 C1202 1.398 1_455 S
C1202 H1190 0.950 . S
C1202 C1201 1.398 1_655 S
C1202 C1203 1.391 . S
C1203 H1191 0.950 . S
C1203 C1199 1.393 1_655 S
C1203 C1202 1.391 . S
H1204 C1212 0.950 . S
H1205 C1217 0.950 . S
H1206 C1214 0.950 . S
H1207 C1216 0.950 . S
H1208 C1218 0.950 . S
H1209 C1220 0.950 . S
H1210 C1222 0.950 . S
H1211 C1223 0.950 . S
C1212 H1204 0.950 . S
C1212 C1213 1.386 . S
C1212 C1214 1.391 . S
C1213 C1212 1.386 . S
C1213 C1217 1.393 . S
C1214 H1206 0.950 . S
C1214 C1212 1.391 . S
C1214 C1215 1.400 . S
C1215 C1214 1.400 . S
C1215 C1216 1.398 . S
C1215 C1221 1.491 . S
C1216 H1207 0.950 . S
C1216 C1215 1.398 . S
C1216 C1217 1.391 . S
C1217 H1205 0.950 . S
C1217 C1213 1.393 . S
C1217 C1216 1.391 . S
C1218 H1208 0.950 . S
C1218 C1219 1.386 . S
C1218 C1220 1.391 . S
C1219 C1218 1.386 . S
C1219 C1223 1.393 . S
C1220 H1209 0.950 . S
C1220 C1218 1.391 . S
C1220 C1221 1.400 . S
C1221 C1215 1.491 . S
C1221 C1220 1.400 . S
C1221 C1222 1.398 . S
C1222 H1210 0.950 . S
C1222 C1221 1.398 . S
C1222 C1223 1.391 . S
C1223 H1211 0.950 . S
C1223 C1219 1.393 . S
C1223 C1222 1.391 . S
H1224 C1232 0.950 . S
H1225 C1237 0.950 . S
H1226 C1234 0.950 . S
H1227 C1236 0.950 . S
H1228 C1238 0.950 . S
H1229 C1240 0.950 . S
H1230 C1242 0.950 . S
H1231 C1243 0.950 . S
C1232 H1224 0.950 . S
C1232 C1233 1.386 . S
C1232 C1234 1.391 . S
C1233 C1232 1.386 . S
C1233 C1237 1.393 . S
C1234 H1226 0.950 . S
C1234 C1232 1.391 . S
C1234 C1235 1.400 . S
C1235 C1234 1.400 . S
C1235 C1236 1.398 . S
C1235 C1241 1.491 . S
C1236 H1227 0.950 . S
C1236 C1235 1.398 . S
C1236 C1237 1.391 . S
C1237 H1225 0.950 . S
C1237 C1233 1.393 . S
C1237 C1236 1.391 . S
C1238 H1228 0.950 . S
C1238 C1239 1.386 . S
C1238 C1240 1.391 . S
C1239 C1238 1.386 . S
C1239 C1243 1.393 . S
C1240 H1229 0.950 . S
C1240 C1238 1.391 . S
C1240 C1241 1.400 . S
C1241 C1235 1.491 . S
C1241 C1240 1.400 . S
C1241 C1242 1.398 . S
C1242 H1230 0.950 . S
C1242 C1241 1.398 . S
C1242 C1243 1.391 . S
C1243 H1231 0.950 . S
C1243 C1239 1.393 . S
C1243 C1242 1.391 . S
H1244 C1252 0.950 . S
H1245 C1257 0.950 . S
H1246 C1254 0.950 . S
H1247 C1256 0.950 . S
H1248 C1258 0.950 . S
H1249 C1260 0.950 . S
H1250 C1262 0.950 . S
H1251 C1263 0.950 . S
C1252 H1244 0.950 . S
C1252 C1253 1.386 . S
C1252 C1254 1.391 . S
C1253 C1252 1.386 . S
C1253 C1257 1.393 . S
C1254 H1246 0.950 . S
C1254 C1252 1.391 . S
C1254 C1255 1.400 . S
C1255 C1254 1.400 . S
C1255 C1256 1.398 . S
C1255 C1261 1.491 . S
C1256 H1247 0.950 . S
C1256 C1255 1.398 . S
C1256 C1257 1.391 . S
C1257 H1245 0.950 . S
C1257 C1253 1.393 . S
C1257 C1256 1.391 . S
C1258 H1248 0.950 . S
C1258 C1259 1.386 . S
C1258 C1260 1.391 . S
C1259 C1258 1.386 . S
C1259 C1263 1.393 . S
C1260 H1249 0.950 . S
C1260 C1258 1.391 . S
C1260 C1261 1.400 . S
C1261 C1255 1.491 . S
C1261 C1260 1.400 . S
C1261 C1262 1.398 . S
C1262 H1250 0.950 . S
C1262 C1261 1.398 . S
C1262 C1263 1.391 . S
C1263 H1251 0.950 . S
C1263 C1259 1.393 . S
C1263 C1262 1.391 . S
H1264 C1272 0.950 . S
H1265 C1277 0.950 . S
H1266 C1274 0.950 . S
H1267 C1276 0.950 . S
H1268 C1278 0.950 1_655 S
H1269 C1280 0.950 1_655 S
H1270 C1282 0.950 . S
H1271 C1283 0.950 . S
C1272 H1264 0.950 . S
C1272 C1273 1.386 . S
C1272 C1274 1.391 . S
C1273 C1272 1.386 . S
C1273 C1277 1.393 1_455 S
C1274 H1266 0.950 . S
C1274 C1272 1.391 . S
C1274 C1275 1.400 . S
C1275 C1274 1.400 . S
C1275 C1276 1.398 1_455 S
C1275 C1281 1.491 . S
C1276 H1267 0.950 . S
C1276 C1275 1.398 1_655 S
C1276 C1277 1.391 . S
C1277 H1265 0.950 . S
C1277 C1273 1.393 1_655 S
C1277 C1276 1.391 . S
C1278 H1268 0.950 1_455 S
C1278 C1279 1.386 . S
C1278 C1280 1.391 . S
C1279 C1278 1.386 . S
C1279 C1283 1.393 . S
C1280 H1269 0.950 1_455 S
C1280 C1278 1.391 . S
C1280 C1281 1.400 . S
C1281 C1275 1.491 . S
C1281 C1280 1.400 . S
C1281 C1282 1.398 . S
C1282 H1270 0.950 . S
C1282 C1281 1.398 . S
C1282 C1283 1.391 . S
C1283 H1271 0.950 . S
C1283 C1279 1.393 . S
C1283 C1282 1.391 . S
H1284 C1292 0.950 . S
H1285 C1297 0.950 . S
H1286 C1294 0.950 . S
H1287 C1296 0.950 . S
H1288 C1298 0.950 . S
H1289 C1300 0.950 . S
H1290 C1302 0.950 . S
H1291 C1303 0.950 . S
C1292 H1284 0.950 . S
C1292 C1293 1.386 . S
C1292 C1294 1.391 . S
C1293 C1292 1.386 . S
C1293 C1297 1.393 . S
C1294 H1286 0.950 . S
C1294 C1292 1.391 . S
C1294 C1295 1.400 . S
C1295 C1294 1.400 . S
C1295 C1296 1.398 . S
C1295 C1301 1.491 . S
C1296 H1287 0.950 . S
C1296 C1295 1.398 . S
C1296 C1297 1.391 . S
C1297 H1285 0.950 . S
C1297 C1293 1.393 . S
C1297 C1296 1.391 . S
C1298 H1288 0.950 . S
C1298 C1299 1.386 . S
C1298 C1300 1.391 . S
C1299 C1298 1.386 . S
C1299 C1303 1.393 . S
C1300 H1289 0.950 . S
C1300 C1298 1.391 . S
C1300 C1301 1.400 . S
C1301 C1295 1.491 . S
C1301 C1300 1.400 . S
C1301 C1302 1.398 . S
C1302 H1290 0.950 . S
C1302 C1301 1.398 . S
C1302 C1303 1.391 . S
C1303 H1291 0.950 . S
C1303 C1299 1.393 . S
C1303 C1302 1.391 . S
H1304 C1312 0.950 . S
H1305 C1317 0.950 . S
H1306 C1314 0.950 . S
H1307 C1316 0.950 . S
H1308 C1318 0.950 . S
H1309 C1320 0.950 . S
H1310 C1322 0.950 . S
H1311 C1323 0.950 . S
C1312 H1304 0.950 . S
C1312 C1313 1.386 . S
C1312 C1314 1.391 . S
C1313 C1312 1.386 . S
C1313 C1317 1.393 . S
C1314 H1306 0.950 . S
C1314 C1312 1.391 . S
C1314 C1315 1.400 . S
C1315 C1314 1.400 . S
C1315 C1316 1.398 . S
C1315 C1321 1.491 . S
C1316 H1307 0.950 . S
C1316 C1315 1.398 . S
C1316 C1317 1.391 . S
C1317 H1305 0.950 . S
C1317 C1313 1.393 . S
C1317 C1316 1.391 . S
C1318 H1308 0.950 . S
C1318 C1319 1.386 . S
C1318 C1320 1.391 . S
C1319 C1318 1.386 . S
C1319 C1323 1.393 . S
C1320 H1309 0.950 . S
C1320 C1318 1.391 . S
C1320 C1321 1.400 . S
C1321 C1315 1.491 . S
C1321 C1320 1.400 . S
C1321 C1322 1.398 . S
C1322 H1310 0.950 . S
C1322 C1321 1.398 . S
C1322 C1323 1.391 . S
C1323 H1311 0.950 . S
C1323 C1319 1.393 . S
C1323 C1322 1.391 . S
H1324 C1332 0.950 . S
H1325 C1337 0.950 . S
H1326 C1334 0.950 . S
H1327 C1336 0.950 . S
H1328 C1338 0.950 . S
H1329 C1340 0.950 . S
H1330 C1342 0.950 . S
H1331 C1343 0.950 . S
C1332 H1324 0.950 . S
C1332 C1333 1.386 . S
C1332 C1334 1.391 . S
C1333 C1332 1.386 . S
C1333 C1337 1.393 . S
C1334 H1326 0.950 . S
C1334 C1332 1.391 . S
C1334 C1335 1.400 . S
C1335 C1334 1.400 . S
C1335 C1336 1.398 . S
C1335 C1341 1.491 . S
C1336 H1327 0.950 . S
C1336 C1335 1.398 . S
C1336 C1337 1.391 . S
C1337 H1325 0.950 . S
C1337 C1333 1.393 . S
C1337 C1336 1.391 . S
C1338 H1328 0.950 . S
C1338 C1339 1.386 . S
C1338 C1340 1.391 . S
C1339 C1338 1.386 . S
C1339 C1343 1.393 . S
C1340 H1329 0.950 . S
C1340 C1338 1.391 . S
C1340 C1341 1.400 . S
C1341 C1335 1.491 . S
C1341 C1340 1.400 . S
C1341 C1342 1.398 . S
C1342 H1330 0.950 . S
C1342 C1341 1.398 . S
C1342 C1343 1.391 . S
C1343 H1331 0.950 . S
C1343 C1339 1.393 . S
C1343 C1342 1.391 . S
H1344 C1352 0.950 . S
H1345 C1357 0.950 . S
H1346 C1354 0.950 1_565 S
H1347 C1356 0.950 . S
H1348 C1358 0.950 . S
H1349 C1360 0.950 . S
H1350 C1362 0.950 1_565 S
H1351 C1363 0.950 . S
C1352 H1344 0.950 . S
C1352 C1353 1.386 1_565 S
C1352 C1354 1.391 1_565 S
C1353 C1352 1.386 1_545 S
C1353 C1357 1.393 . S
C1354 H1346 0.950 1_545 S
C1354 C1352 1.391 1_545 S
C1354 C1355 1.400 . S
C1355 C1354 1.400 . S
C1355 C1356 1.398 . S
C1355 C1361 1.491 . S
C1356 H1347 0.950 . S
C1356 C1355 1.398 . S
C1356 C1357 1.391 . S
C1357 H1345 0.950 . S
C1357 C1353 1.393 . S
C1357 C1356 1.391 . S
C1358 H1348 0.950 . S
C1358 C1359 1.386 . S
C1358 C1360 1.391 . S
C1359 C1358 1.386 . S
C1359 C1363 1.393 . S
C1360 H1349 0.950 . S
C1360 C1358 1.391 . S
C1360 C1361 1.400 . S
C1361 C1355 1.491 . S
C1361 C1360 1.400 . S
C1361 C1362 1.398 . S
C1362 H1350 0.950 1_545 S
C1362 C1361 1.398 . S
C1362 C1363 1.391 . S
C1363 H1351 0.950 . S
C1363 C1359 1.393 . S
C1363 C1362 1.391 . S
H1364 C1372 0.950 . S
H1365 C1377 0.950 . S
H1366 C1374 0.950 . S
H1367 C1376 0.950 . S
H1368 C1378 0.950 . S
H1369 C1380 0.950 . S
H1370 C1382 0.950 . S
H1371 C1383 0.950 . S
C1372 H1364 0.950 . S
C1372 C1373 1.386 . S
C1372 C1374 1.391 . S
C1373 C1372 1.386 . S
C1373 C1377 1.393 . S
C1374 H1366 0.950 . S
C1374 C1372 1.391 . S
C1374 C1375 1.400 . S
C1375 C1374 1.400 . S
C1375 C1376 1.398 . S
C1375 C1381 1.491 . S
C1376 H1367 0.950 . S
C1376 C1375 1.398 . S
C1376 C1377 1.391 . S
C1377 H1365 0.950 . S
C1377 C1373 1.393 . S
C1377 C1376 1.391 . S
C1378 H1368 0.950 . S
C1378 C1379 1.386 . S
C1378 C1380 1.391 . S
C1379 C1378 1.386 . S
C1379 C1383 1.393 . S
C1380 H1369 0.950 . S
C1380 C1378 1.391 . S
C1380 C1381 1.400 . S
C1381 C1375 1.491 . S
C1381 C1380 1.400 . S
C1381 C1382 1.398 . S
C1382 H1370 0.950 . S
C1382 C1381 1.398 . S
C1382 C1383 1.391 . S
C1383 H1371 0.950 . S
C1383 C1379 1.393 . S
C1383 C1382 1.391 . S
H1384 C1392 0.950 . S
H1385 C1397 0.950 . S
H1386 C1394 0.950 . S
H1387 C1396 0.950 . S
H1388 C1398 0.950 . S
H1389 C1400 0.950 . S
H1390 C1402 0.950 . S
H1391 C1403 0.950 . S
C1392 H1384 0.950 . S
C1392 C1393 1.386 . S
C1392 C1394 1.391 . S
C1393 C1392 1.386 . S
C1393 C1397 1.393 1_545 S
C1394 H1386 0.950 . S
C1394 C1392 1.391 . S
C1394 C1395 1.400 1_545 S
C1395 C1394 1.400 1_565 S
C1395 C1396 1.398 . S
C1395 C1401 1.491 . S
C1396 H1387 0.950 . S
C1396 C1395 1.398 . S
C1396 C1397 1.391 . S
C1397 H1385 0.950 . S
C1397 C1393 1.393 1_565 S
C1397 C1396 1.391 . S
C1398 H1388 0.950 . S
C1398 C1399 1.386 . S
C1398 C1400 1.391 . S
C1399 C1398 1.386 . S
C1399 C1403 1.393 1_565 S
C1400 H1389 0.950 . S
C1400 C1398 1.391 . S
C1400 C1401 1.400 . S
C1401 C1395 1.491 . S
C1401 C1400 1.400 . S
C1401 C1402 1.398 1_565 S
C1402 H1390 0.950 . S
C1402 C1401 1.398 1_545 S
C1402 C1403 1.391 . S
C1403 H1391 0.950 . S
C1403 C1399 1.393 1_545 S
C1403 C1402 1.391 . S
H1404 C1412 0.950 . S
H1405 C1417 0.950 . S
H1406 C1414 0.950 . S
H1407 C1416 0.950 . S
H1408 C1418 0.950 . S
H1409 C1420 0.950 . S
H1410 C1422 0.950 . S
H1411 C1423 0.950 . S
C1412 H1404 0.950 . S
C1412 C1413 1.386 . S
C1412 C1414 1.391 . S
C1413 C1412 1.386 . S
C1413 C1417 1.393 . S
C1414 H1406 0.950 . S
C1414 C1412 1.391 . S
C1414 C1415 1.400 . S
C1415 C1414 1.400 . S
C1415 C1416 1.398 . S
C1415 C1421 1.491 . S
C1416 H1407 0.950 . S
C1416 C1415 1.398 . S
C1416 C1417 1.391 . S
C1417 H1405 0.950 . S
C1417 C1413 1.393 . S
C1417 C1416 1.391 . S
C1418 H1408 0.950 . S
C1418 C1419 1.386 . S
C1418 C1420 1.391 . S
C1419 C1418 1.386 . S
C1419 C1423 1.393 . S
C1420 H1409 0.950 . S
C1420 C1418 1.391 . S
C1420 C1421 1.400 . S
C1421 C1415 1.491 . S
C1421 C1420 1.400 . S
C1421 C1422 1.398 . S
C1422 H1410 0.950 . S
C1422 C1421 1.398 . S
C1422 C1423 1.391 . S
C1423 H1411 0.950 . S
C1423 C1419 1.393 . S
C1423 C1422 1.391 . S
H1424 C1432 0.950 . S
H1425 C1437 0.950 . S
H1426 C1434 0.950 . S
H1427 C1436 0.950 . S
H1428 C1438 0.950 . S
H1429 C1440 0.950 . S
H1430 C1442 0.950 . S
H1431 C1443 0.950 . S
C1432 H1424 0.950 . S
C1432 C1433 1.386 1_565 S
C1432 C1434 1.391 . S
C1433 C1432 1.386 1_545 S
C1433 C1437 1.393 . S
C1434 H1426 0.950 . S
C1434 C1432 1.391 . S
C1434 C1435 1.400 1_565 S
C1435 C1434 1.400 1_545 S
C1435 C1436 1.398 . S
C1435 C1441 1.491 . S
C1436 H1427 0.950 . S
C1436 C1435 1.398 . S
C1436 C1437 1.391 . S
C1437 H1425 0.950 . S
C1437 C1433 1.393 . S
C1437 C1436 1.391 . S
C1438 H1428 0.950 . S
C1438 C1439 1.386 1_545 S
C1438 C1440 1.391 . S
C1439 C1438 1.386 1_565 S
C1439 C1443 1.393 . S
C1440 H1429 0.950 . S
C1440 C1438 1.391 . S
C1440 C1441 1.400 . S
C1441 C1435 1.491 . S
C1441 C1440 1.400 . S
C1441 C1442 1.398 1_545 S
C1442 H1430 0.950 . S
C1442 C1441 1.398 1_565 S
C1442 C1443 1.391 . S
C1443 H1431 0.950 . S
C1443 C1439 1.393 . S
C1443 C1442 1.391 . S
H1444 C1452 0.950 . S
H1445 C1457 0.950 . S
H1446 C1454 0.950 . S
H1447 C1456 0.950 . S
H1448 C1458 0.950 . S
H1449 C1460 0.950 . S
H1450 C1462 0.950 . S
H1451 C1463 0.950 . S
C1452 H1444 0.950 . S
C1452 C1453 1.386 . S
C1452 C1454 1.391 . S
C1453 C1452 1.386 . S
C1453 C1457 1.393 . S
C1454 H1446 0.950 . S
C1454 C1452 1.391 . S
C1454 C1455 1.400 . S
C1455 C1454 1.400 . S
C1455 C1456 1.398 . S
C1455 C1461 1.491 . S
C1456 H1447 0.950 . S
C1456 C1455 1.398 . S
C1456 C1457 1.391 . S
C1457 H1445 0.950 . S
C1457 C1453 1.393 . S
C1457 C1456 1.391 . S
C1458 H1448 0.950 . S
C1458 C1459 1.386 . S
C1458 C1460 1.391 . S
C1459 C1458 1.386 . S
C1459 C1463 1.393 . S
C1460 H1449 0.950 . S
C1460 C1458 1.391 . S
C1460 C1461 1.400 . S
C1461 C1455 1.491 . S
C1461 C1460 1.400 . S
C1461 C1462 1.398 . S
C1462 H1450 0.950 . S
C1462 C1461 1.398 . S
C1462 C1463 1.391 . S
C1463 H1451 0.950 . S
C1463 C1459 1.393 . S
C1463 C1462 1.391 . S
H1464 C1472 0.950 . S
H1465 C1477 0.950 . S
H1466 C1474 0.950 . S
H1467 C1476 0.950 . S
H1468 C1478 0.950 . S
H1469 C1480 0.950 . S
H1470 C1482 0.950 . S
H1471 C1483 0.978 . S
C1472 H1464 0.950 . S
C1472 C1473 1.386 1_565 S
C1472 C1474 1.391 . S
C1473 C1472 1.386 1_545 S
C1473 C1477 1.393 . S
C1474 H1466 0.950 . S
C1474 C1472 1.391 . S
C1474 C1475 1.400 1_565 S
C1475 C1474 1.400 1_545 S
C1475 C1476 1.398 . S
C1475 C1481 1.491 . S
C1476 H1467 0.950 . S
C1476 C1475 1.398 . S
C1476 C1477 1.391 . S
C1477 H1465 0.950 . S
C1477 C1473 1.393 . S
C1477 C1476 1.391 . S
C1478 H1468 0.950 . S
C1478 C1479 1.386 . S
C1478 C1480 1.391 . S
C1479 C1478 1.386 . S
C1479 C1483 1.359 1_545 S
C1480 H1469 0.950 . S
C1480 C1478 1.391 . S
C1480 C1481 1.400 . S
C1481 C1475 1.491 . S
C1481 C1480 1.400 . S
C1481 C1482 1.398 1_545 S
C1482 H1470 0.950 . S
C1482 C1481 1.398 1_565 S
C1482 C1483 1.398 . S
C1483 H1471 0.978 . S
C1483 C1479 1.359 1_565 S
C1483 C1482 1.398 . S
H1484 C1492 0.950 . S
H1485 C1497 0.950 . S
H1486 C1494 0.950 . S
H1487 C1496 0.950 . S
H1488 C1498 0.950 . S
H1489 C1500 0.950 . S
H1490 C1502 0.950 . S
H1491 C1503 0.950 . S
C1492 H1484 0.950 . S
C1492 C1493 1.386 . S
C1492 C1494 1.391 . S
C1493 C1492 1.386 . S
C1493 C1497 1.393 . S
C1494 H1486 0.950 . S
C1494 C1492 1.391 . S
C1494 C1495 1.400 . S
C1495 C1494 1.400 . S
C1495 C1496 1.398 . S
C1495 C1501 1.491 . S
C1496 H1487 0.950 . S
C1496 C1495 1.398 . S
C1496 C1497 1.391 . S
C1497 H1485 0.950 . S
C1497 C1493 1.393 . S
C1497 C1496 1.391 . S
C1498 H1488 0.950 . S
C1498 C1499 1.386 . S
C1498 C1500 1.391 . S
C1499 C1498 1.386 . S
C1499 C1503 1.393 . S
C1500 H1489 0.950 . S
C1500 C1498 1.391 . S
C1500 C1501 1.400 . S
C1501 C1495 1.491 . S
C1501 C1500 1.400 . S
C1501 C1502 1.398 . S
C1502 H1490 0.950 . S
C1502 C1501 1.398 . S
C1502 C1503 1.391 . S
C1503 H1491 0.950 . S
C1503 C1499 1.393 . S
C1503 C1502 1.391 . S
H1504 C1512 0.950 . S
H1505 C1517 0.950 . S
H1506 C1514 0.950 . S
H1507 C1516 0.950 . S
H1508 C1518 0.950 . S
H1509 C1520 0.950 . S
H1510 C1522 0.950 1_556 S
H1511 C1523 0.950 1_556 S
C1512 H1504 0.950 . S
C1512 C1513 1.386 1_556 S
C1512 C1514 1.391 . S
C1513 C1512 1.386 1_554 S
C1513 C1517 1.393 . S
C1514 H1506 0.950 . S
C1514 C1512 1.391 . S
C1514 C1515 1.400 1_556 S
C1515 C1514 1.400 1_554 S
C1515 C1516 1.398 . S
C1515 C1521 1.491 . S
C1516 H1507 0.950 . S
C1516 C1515 1.398 . S
C1516 C1517 1.391 . S
C1517 H1505 0.950 . S
C1517 C1513 1.393 . S
C1517 C1516 1.391 . S
C1518 H1508 0.950 . S
C1518 C1519 1.386 . S
C1518 C1520 1.391 . S
C1519 C1518 1.386 . S
C1519 C1523 1.393 . S
C1520 H1509 0.950 . S
C1520 C1518 1.391 . S
C1520 C1521 1.400 . S
C1521 C1515 1.491 . S
C1521 C1520 1.400 . S
C1521 C1522 1.398 . S
C1522 H1510 0.950 1_554 S
C1522 C1521 1.398 . S
C1522 C1523 1.391 . S
C1523 H1511 0.950 1_554 S
C1523 C1519 1.393 . S
C1523 C1522 1.391 . S
H1524 C1532 0.950 . S
H1525 C1537 0.950 . S
H1526 C1534 0.950 . S
H1527 C1536 0.950 . S
H1528 C1538 0.950 . S
H1529 C1540 0.950 . S
H1530 C1542 0.950 . S
H1531 C1543 0.950 1_554 S
C1532 H1524 0.950 . S
C1532 C1533 1.386 . S
C1532 C1534 1.391 . S
C1533 C1532 1.386 . S
C1533 C1537 1.393 1_554 S
C1534 H1526 0.950 . S
C1534 C1532 1.391 . S
C1534 C1535 1.400 1_554 S
C1535 C1534 1.400 1_556 S
C1535 C1536 1.398 . S
C1535 C1541 1.491 . S
C1536 H1527 0.950 . S
C1536 C1535 1.398 . S
C1536 C1537 1.391 . S
C1537 H1525 0.950 . S
C1537 C1533 1.393 1_556 S
C1537 C1536 1.391 . S
C1538 H1528 0.950 . S
C1538 C1539 1.386 . S
C1538 C1540 1.391 . S
C1539 C1538 1.386 . S
C1539 C1543 1.393 . S
C1540 H1529 0.950 . S
C1540 C1538 1.391 . S
C1540 C1541 1.400 . S
C1541 C1535 1.491 . S
C1541 C1540 1.400 . S
C1541 C1542 1.398 1_556 S
C1542 H1530 0.950 . S
C1542 C1541 1.398 1_554 S
C1542 C1543 1.391 1_554 S
C1543 H1531 0.950 1_556 S
C1543 C1539 1.393 . S
C1543 C1542 1.391 1_556 S
H1544 C1552 0.950 . S
H1545 C1557 0.950 . S
H1546 C1554 0.950 . S
H1547 C1556 0.950 . S
H1548 C1558 0.950 . S
H1549 C1560 0.950 . S
H1550 C1562 0.950 . S
H1551 C1563 0.950 . S
C1552 H1544 0.950 . S
C1552 C1553 1.386 . S
C1552 C1554 1.391 . S
C1553 C1552 1.386 . S
C1553 C1557 1.393 . S
C1554 H1546 0.950 . S
C1554 C1552 1.391 . S
C1554 C1555 1.400 . S
C1555 C1554 1.400 . S
C1555 C1556 1.398 . S
C1555 C1561 1.491 . S
C1556 H1547 0.950 . S
C1556 C1555 1.398 . S
C1556 C1557 1.391 . S
C1557 H1545 0.950 . S
C1557 C1553 1.393 . S
C1557 C1556 1.391 . S
C1558 H1548 0.950 . S
C1558 C1559 1.386 . S
C1558 C1560 1.391 . S
C1559 C1558 1.386 . S
C1559 C1563 1.393 . S
C1560 H1549 0.950 . S
C1560 C1558 1.391 . S
C1560 C1561 1.400 . S
C1561 C1555 1.491 . S
C1561 C1560 1.400 . S
C1561 C1562 1.398 . S
C1562 H1550 0.950 . S
C1562 C1561 1.398 . S
C1562 C1563 1.391 . S
C1563 H1551 0.950 . S
C1563 C1559 1.393 . S
C1563 C1562 1.391 . S
H1564 C1572 0.950 . S
H1565 C1577 0.950 . S
H1566 C1574 0.950 . S
H1567 C1576 0.950 . S
H1568 C1578 0.950 . S
H1569 C1580 0.950 . S
H1570 C1582 0.950 . S
H1571 C1583 0.950 . S
C1572 H1564 0.950 . S
C1572 C1573 1.386 . S
C1572 C1574 1.391 . S
C1573 C1572 1.386 . S
C1573 C1577 1.393 . S
C1574 H1566 0.950 . S
C1574 C1572 1.391 . S
C1574 C1575 1.400 . S
C1575 C1574 1.400 . S
C1575 C1576 1.398 . S
C1575 C1581 1.491 . S
C1576 H1567 0.950 . S
C1576 C1575 1.398 . S
C1576 C1577 1.391 . S
C1577 H1565 0.950 . S
C1577 C1573 1.393 . S
C1577 C1576 1.391 . S
C1578 H1568 0.950 . S
C1578 C1579 1.386 . S
C1578 C1580 1.391 . S
C1579 C1578 1.386 . S
C1579 C1583 1.393 . S
C1580 H1569 0.950 . S
C1580 C1578 1.391 . S
C1580 C1581 1.400 . S
C1581 C1575 1.491 . S
C1581 C1580 1.400 . S
C1581 C1582 1.398 . S
C1582 H1570 0.950 . S
C1582 C1581 1.398 . S
C1582 C1583 1.391 . S
C1583 H1571 0.950 . S
C1583 C1579 1.393 . S
C1583 C1582 1.391 . S
H1584 C1592 0.950 . S
H1585 C1597 0.950 . S
H1586 C1594 0.950 . S
H1587 C1596 0.950 . S
H1588 C1598 0.950 . S
H1589 C1600 0.950 . S
H1590 C1602 0.950 . S
H1591 C1603 0.950 . S
C1592 H1584 0.950 . S
C1592 C1593 1.386 . S
C1592 C1594 1.391 . S
C1593 C1592 1.386 . S
C1593 C1597 1.393 . S
C1594 H1586 0.950 . S
C1594 C1592 1.391 . S
C1594 C1595 1.400 . S
C1595 C1594 1.400 . S
C1595 C1596 1.398 . S
C1595 C1601 1.491 . S
C1596 H1587 0.950 . S
C1596 C1595 1.398 . S
C1596 C1597 1.391 . S
C1597 H1585 0.950 . S
C1597 C1593 1.393 . S
C1597 C1596 1.391 . S
C1598 H1588 0.950 . S
C1598 C1599 1.386 . S
C1598 C1600 1.391 . S
C1599 C1598 1.386 . S
C1599 C1603 1.393 . S
C1600 H1589 0.950 . S
C1600 C1598 1.391 . S
C1600 C1601 1.400 . S
C1601 C1595 1.491 . S
C1601 C1600 1.400 . S
C1601 C1602 1.398 . S
C1602 H1590 0.950 . S
C1602 C1601 1.398 . S
C1602 C1603 1.391 . S
C1603 H1591 0.950 . S
C1603 C1599 1.393 . S
C1603 C1602 1.391 . S
H1604 C1612 0.950 . S
H1605 C1617 0.950 . S
H1606 C1614 0.950 . S
H1607 C1616 0.950 . S
H1608 C1618 0.950 . S
H1609 C1620 0.950 . S
H1610 C1622 0.950 . S
H1611 C1623 0.950 . S
C1612 H1604 0.950 . S
C1612 C1613 1.386 . S
C1612 C1614 1.391 . S
C1613 C1612 1.386 . S
C1613 C1617 1.393 . S
C1614 H1606 0.950 . S
C1614 C1612 1.391 . S
C1614 C1615 1.400 . S
C1615 C1614 1.400 . S
C1615 C1616 1.398 . S
C1615 C1621 1.491 . S
C1616 H1607 0.950 . S
C1616 C1615 1.398 . S
C1616 C1617 1.391 . S
C1617 H1605 0.950 . S
C1617 C1613 1.393 . S
C1617 C1616 1.391 . S
C1618 H1608 0.950 . S
C1618 C1619 1.386 . S
C1618 C1620 1.391 . S
C1619 C1618 1.386 . S
C1619 C1623 1.393 . S
C1620 H1609 0.950 . S
C1620 C1618 1.391 . S
C1620 C1621 1.400 . S
C1621 C1615 1.491 . S
C1621 C1620 1.400 . S
C1621 C1622 1.398 . S
C1622 H1610 0.950 . S
C1622 C1621 1.398 . S
C1622 C1623 1.391 . S
C1623 H1611 0.950 . S
C1623 C1619 1.393 . S
C1623 C1622 1.391 . S
H1624 C1632 0.950 . S
H1625 C1637 0.950 . S
H1626 C1634 0.950 . S
H1627 C1636 0.950 . S
H1628 C1638 0.950 . S
H1629 C1640 0.950 . S
H1630 C1642 0.950 . S
H1631 C1643 0.950 . S
C1632 H1624 0.950 . S
C1632 C1633 1.386 . S
C1632 C1634 1.391 . S
C1633 C1632 1.386 . S
C1633 C1637 1.393 . S
C1634 H1626 0.950 . S
C1634 C1632 1.391 . S
C1634 C1635 1.400 . S
C1635 C1634 1.400 . S
C1635 C1636 1.398 . S
C1635 C1641 1.491 . S
C1636 H1627 0.950 . S
C1636 C1635 1.398 . S
C1636 C1637 1.391 . S
C1637 H1625 0.950 . S
C1637 C1633 1.393 . S
C1637 C1636 1.391 . S
C1638 H1628 0.950 . S
C1638 C1639 1.386 . S
C1638 C1640 1.391 . S
C1639 C1638 1.386 . S
C1639 C1643 1.393 . S
C1640 H1629 0.950 . S
C1640 C1638 1.391 . S
C1640 C1641 1.400 . S
C1641 C1635 1.491 . S
C1641 C1640 1.400 . S
C1641 C1642 1.398 . S
C1642 H1630 0.950 . S
C1642 C1641 1.398 . S
C1642 C1643 1.391 . S
C1643 H1631 0.950 . S
C1643 C1639 1.393 . S
C1643 C1642 1.391 . S
H1644 C1652 0.950 . S
H1645 C1657 0.950 . S
H1646 C1654 0.950 . S
H1647 C1656 0.950 . S
H1648 C1658 0.950 . S
H1649 C1660 0.950 . S
H1650 C1662 0.950 . S
H1651 C1663 0.950 . S
C1652 H1644 0.950 . S
C1652 C1653 1.386 . S
C1652 C1654 1.391 . S
C1653 C1652 1.386 . S
C1653 C1657 1.393 . S
C1654 H1646 0.950 . S
C1654 C1652 1.391 . S
C1654 C1655 1.400 . S
C1655 C1654 1.400 . S
C1655 C1656 1.398 . S
C1655 C1661 1.491 . S
C1656 H1647 0.950 . S
C1656 C1655 1.398 . S
C1656 C1657 1.391 . S
C1657 H1645 0.950 . S
C1657 C1653 1.393 . S
C1657 C1656 1.391 . S
C1658 H1648 0.950 . S
C1658 C1659 1.386 . S
C1658 C1660 1.391 . S
C1659 C1658 1.386 . S
C1659 C1663 1.393 . S
C1660 H1649 0.950 . S
C1660 C1658 1.391 . S
C1660 C1661 1.400 . S
C1661 C1655 1.491 . S
C1661 C1660 1.400 . S
C1661 C1662 1.398 . S
C1662 H1650 0.950 . S
C1662 C1661 1.398 . S
C1662 C1663 1.391 . S
C1663 H1651 0.950 . S
C1663 C1659 1.393 . S
C1663 C1662 1.391 . S
H1664 C1672 0.950 . S
H1665 C1677 0.950 . S
H1666 C1674 0.950 . S
H1667 C1676 0.950 . S
H1668 C1678 0.950 . S
H1669 C1680 0.950 . S
H1670 C1682 0.950 . S
H1671 C1683 0.950 . S
C1672 H1664 0.950 . S
C1672 C1673 1.386 . S
C1672 C1674 1.391 . S
C1673 C1672 1.386 . S
C1673 C1677 1.393 . S
C1674 H1666 0.950 . S
C1674 C1672 1.391 . S
C1674 C1675 1.400 . S
C1675 C1674 1.400 . S
C1675 C1676 1.398 . S
C1675 C1681 1.491 . S
C1676 H1667 0.950 . S
C1676 C1675 1.398 . S
C1676 C1677 1.391 . S
C1677 H1665 0.950 . S
C1677 C1673 1.393 . S
C1677 C1676 1.391 . S
C1678 H1668 0.950 . S
C1678 C1679 1.386 . S
C1678 C1680 1.391 . S
C1679 C1678 1.386 . S
C1679 C1683 1.393 . S
C1680 H1669 0.950 . S
C1680 C1678 1.391 . S
C1680 C1681 1.400 . S
C1681 C1675 1.491 . S
C1681 C1680 1.400 . S
C1681 C1682 1.398 . S
C1682 H1670 0.950 . S
C1682 C1681 1.398 . S
C1682 C1683 1.391 . S
C1683 H1671 0.950 . S
C1683 C1679 1.393 . S
C1683 C1682 1.391 . S
H1684 C1692 0.950 . S
H1685 C1697 0.950 . S
H1686 C1694 0.950 . S
H1687 C1696 0.950 . S
H1688 C1698 0.950 . S
H1689 C1700 0.950 . S
H1690 C1702 0.950 . S
H1691 C1703 0.950 . S
C1692 H1684 0.950 . S
C1692 C1693 1.386 . S
C1692 C1694 1.391 . S
C1693 C1692 1.386 . S
C1693 C1697 1.393 . S
C1694 H1686 0.950 . S
C1694 C1692 1.391 . S
C1694 C1695 1.400 . S
C1695 C1694 1.400 . S
C1695 C1696 1.398 . S
C1695 C1701 1.491 . S
C1696 H1687 0.950 . S
C1696 C1695 1.398 . S
C1696 C1697 1.391 . S
C1697 H1685 0.950 . S
C1697 C1693 1.393 . S
C1697 C1696 1.391 . S
C1698 H1688 0.950 . S
C1698 C1699 1.386 . S
C1698 C1700 1.391 . S
C1699 C1698 1.386 . S
C1699 C1703 1.393 . S
C1700 H1689 0.950 . S
C1700 C1698 1.391 . S
C1700 C1701 1.400 . S
C1701 C1695 1.491 . S
C1701 C1700 1.400 . S
C1701 C1702 1.398 . S
C1702 H1690 0.950 . S
C1702 C1701 1.398 . S
C1702 C1703 1.391 . S
C1703 H1691 0.950 . S
C1703 C1699 1.393 . S
C1703 C1702 1.391 . S
H1704 C1712 0.950 . S
H1705 C1717 0.950 . S
H1706 C1714 0.950 . S
H1707 C1716 0.950 . S
H1708 C1718 0.950 . S
H1709 C1720 0.950 . S
H1710 C1722 0.950 . S
H1711 C1723 0.950 1_655 S
C1712 H1704 0.950 . S
C1712 C1713 1.386 1_655 S
C1712 C1714 1.391 . S
C1713 C1712 1.386 1_455 S
C1713 C1717 1.393 . S
C1714 H1706 0.950 . S
C1714 C1712 1.391 . S
C1714 C1715 1.400 1_655 S
C1715 C1714 1.400 1_455 S
C1715 C1716 1.398 . S
C1715 C1721 1.491 . S
C1716 H1707 0.950 . S
C1716 C1715 1.398 . S
C1716 C1717 1.391 . S
C1717 H1705 0.950 . S
C1717 C1713 1.393 . S
C1717 C1716 1.391 . S
C1718 H1708 0.950 . S
C1718 C1719 1.386 . S
C1718 C1720 1.391 . S
C1719 C1718 1.386 . S
C1719 C1723 1.393 . S
C1720 H1709 0.950 . S
C1720 C1718 1.391 . S
C1720 C1721 1.400 . S
C1721 C1715 1.491 . S
C1721 C1720 1.400 . S
C1721 C1722 1.398 1_455 S
C1722 H1710 0.950 . S
C1722 C1721 1.398 1_655 S
C1722 C1723 1.391 1_655 S
C1723 H1711 0.950 1_455 S
C1723 C1719 1.393 . S
C1723 C1722 1.391 1_455 S
H1724 C1732 0.950 . S
H1725 C1737 0.950 . S
H1726 C1734 0.950 . S
H1727 C1736 0.950 . S
H1728 C1738 0.950 . S
H1729 C1740 0.950 . S
H1730 C1742 0.950 . S
H1731 C1743 0.950 . S
C1732 H1724 0.950 . S
C1732 C1733 1.386 . S
C1732 C1734 1.391 . S
C1733 C1732 1.386 . S
C1733 C1737 1.393 . S
C1734 H1726 0.950 . S
C1734 C1732 1.391 . S
C1734 C1735 1.400 . S
C1735 C1734 1.400 . S
C1735 C1736 1.398 . S
C1735 C1741 1.491 . S
C1736 H1727 0.950 . S
C1736 C1735 1.398 . S
C1736 C1737 1.391 . S
C1737 H1725 0.950 . S
C1737 C1733 1.393 . S
C1737 C1736 1.391 . S
C1738 H1728 0.950 . S
C1738 C1739 1.386 . S
C1738 C1740 1.391 . S
C1739 C1738 1.386 . S
C1739 C1743 1.393 . S
C1740 H1729 0.950 . S
C1740 C1738 1.391 . S
C1740 C1741 1.400 . S
C1741 C1735 1.491 . S
C1741 C1740 1.400 . S
C1741 C1742 1.398 . S
C1742 H1730 0.950 . S
C1742 C1741 1.398 . S
C1742 C1743 1.391 . S
C1743 H1731 0.950 . S
C1743 C1739 1.393 . S
C1743 C1742 1.391 . S
H1744 C1752 0.950 . S
H1745 C1757 0.950 . S
H1746 C1754 0.950 . S
H1747 C1756 0.950 . S
H1748 C1758 0.950 . S
H1749 C1760 0.950 . S
H1750 C1762 0.950 . S
H1751 C1763 0.950 . S
C1752 H1744 0.950 . S
C1752 C1753 1.386 . S
C1752 C1754 1.391 . S
C1753 C1752 1.386 . S
C1753 C1757 1.393 . S
C1754 H1746 0.950 . S
C1754 C1752 1.391 . S
C1754 C1755 1.400 . S
C1755 C1754 1.400 . S
C1755 C1756 1.398 . S
C1755 C1761 1.491 . S
C1756 H1747 0.950 . S
C1756 C1755 1.398 . S
C1756 C1757 1.391 . S
C1757 H1745 0.950 . S
C1757 C1753 1.393 . S
C1757 C1756 1.391 . S
C1758 H1748 0.950 . S
C1758 C1759 1.386 . S
C1758 C1760 1.391 . S
C1759 C1758 1.386 . S
C1759 C1763 1.393 1_556 S
C1760 H1749 0.950 . S
C1760 C1758 1.391 . S
C1760 C1761 1.400 . S
C1761 C1755 1.491 . S
C1761 C1760 1.400 . S
C1761 C1762 1.398 . S
C1762 H1750 0.950 . S
C1762 C1761 1.398 . S
C1762 C1763 1.391 1_556 S
C1763 H1751 0.950 . S
C1763 C1759 1.393 1_554 S
C1763 C1762 1.391 1_554 S
H1764 C1772 0.950 . S
H1765 C1777 0.950 . S
H1766 C1774 0.950 . S
H1767 C1776 0.950 . S
H1768 C1778 0.950 . S
H1769 C1780 0.950 . S
H1770 C1782 0.950 . S
H1771 C1783 0.950 . S
C1772 H1764 0.950 . S
C1772 C1773 1.386 . S
C1772 C1774 1.391 . S
C1773 C1772 1.386 . S
C1773 C1777 1.393 . S
C1774 H1766 0.950 . S
C1774 C1772 1.391 . S
C1774 C1775 1.400 . S
C1775 C1774 1.400 . S
C1775 C1776 1.398 . S
C1775 C1781 1.491 . S
C1776 H1767 0.950 . S
C1776 C1775 1.398 . S
C1776 C1777 1.391 . S
C1777 H1765 0.950 . S
C1777 C1773 1.393 . S
C1777 C1776 1.391 . S
C1778 H1768 0.950 . S
C1778 C1779 1.386 . S
C1778 C1780 1.391 . S
C1779 C1778 1.386 . S
C1779 C1783 1.393 . S
C1780 H1769 0.950 . S
C1780 C1778 1.391 . S
C1780 C1781 1.400 . S
C1781 C1775 1.491 . S
C1781 C1780 1.400 . S
C1781 C1782 1.398 . S
C1782 H1770 0.950 . S
C1782 C1781 1.398 . S
C1782 C1783 1.391 . S
C1783 H1771 0.950 . S
C1783 C1779 1.393 . S
C1783 C1782 1.391 . S
H1784 C1792 0.950 . S
H1785 C1797 0.950 1_655 S
H1786 C1794 0.950 . S
H1787 C1796 0.950 . S
H1788 C1798 0.950 . S
H1789 C1800 0.950 . S
H1790 C1802 0.950 . S
H1791 C1803 0.950 . S
C1792 H1784 0.950 . S
C1792 C1793 1.386 . S
C1792 C1794 1.391 . S
C1793 C1792 1.386 . S
C1793 C1797 1.393 . S
C1794 H1786 0.950 . S
C1794 C1792 1.391 . S
C1794 C1795 1.400 . S
C1795 C1794 1.400 . S
C1795 C1796 1.398 . S
C1795 C1801 1.491 . S
C1796 H1787 0.950 . S
C1796 C1795 1.398 . S
C1796 C1797 1.391 . S
C1797 H1785 0.950 1_455 S
C1797 C1793 1.393 . S
C1797 C1796 1.391 . S
C1798 H1788 0.950 . S
C1798 C1799 1.386 . S
C1798 C1800 1.391 . S
C1799 C1798 1.386 . S
C1799 C1803 1.393 . S
C1800 H1789 0.950 . S
C1800 C1798 1.391 . S
C1800 C1801 1.400 . S
C1801 C1795 1.491 . S
C1801 C1800 1.400 . S
C1801 C1802 1.398 . S
C1802 H1790 0.950 . S
C1802 C1801 1.398 . S
C1802 C1803 1.391 . S
C1803 H1791 0.950 . S
C1803 C1799 1.393 . S
C1803 C1802 1.391 . S
H1804 C1812 0.950 . S
H1805 C1817 0.950 . S
H1806 C1814 0.950 . S
H1807 C1816 0.950 . S
H1808 C1818 0.950 . S
H1809 C1820 0.950 . S
H1810 C1822 0.950 . S
H1811 C1823 0.950 . S
C1812 H1804 0.950 . S
C1812 C1813 1.386 . S
C1812 C1814 1.391 . S
C1813 C1812 1.386 . S
C1813 C1817 1.393 . S
C1814 H1806 0.950 . S
C1814 C1812 1.391 . S
C1814 C1815 1.400 . S
C1815 C1814 1.400 . S
C1815 C1816 1.398 . S
C1815 C1821 1.491 . S
C1816 H1807 0.950 . S
C1816 C1815 1.398 . S
C1816 C1817 1.391 . S
C1817 H1805 0.950 . S
C1817 C1813 1.393 . S
C1817 C1816 1.391 . S
C1818 H1808 0.950 . S
C1818 C1819 1.386 . S
C1818 C1820 1.391 . S
C1819 C1818 1.386 . S
C1819 C1823 1.393 . S
C1820 H1809 0.950 . S
C1820 C1818 1.391 . S
C1820 C1821 1.400 . S
C1821 C1815 1.491 . S
C1821 C1820 1.400 . S
C1821 C1822 1.398 . S
C1822 H1810 0.950 . S
C1822 C1821 1.398 . S
C1822 C1823 1.391 . S
C1823 H1811 0.950 . S
C1823 C1819 1.393 . S
C1823 C1822 1.391 . S
H1824 C1832 0.950 . S
H1825 C1837 0.950 . S
H1826 C1834 0.950 . S
H1827 C1836 0.950 . S
H1828 C1838 0.950 . S
H1829 C1840 0.950 . S
H1830 C1842 0.950 . S
H1831 C1843 0.950 . S
C1832 H1824 0.950 . S
C1832 C1833 1.386 . S
C1832 C1834 1.391 . S
C1833 C1832 1.386 . S
C1833 C1837 1.393 . S
C1834 H1826 0.950 . S
C1834 C1832 1.391 . S
C1834 C1835 1.400 . S
C1835 C1834 1.400 . S
C1835 C1836 1.398 . S
C1835 C1841 1.491 . S
C1836 H1827 0.950 . S
C1836 C1835 1.398 . S
C1836 C1837 1.391 . S
C1837 H1825 0.950 . S
C1837 C1833 1.393 . S
C1837 C1836 1.391 . S
C1838 H1828 0.950 . S
C1838 C1839 1.386 . S
C1838 C1840 1.391 . S
C1839 C1838 1.386 . S
C1839 C1843 1.393 . S
C1840 H1829 0.950 . S
C1840 C1838 1.391 . S
C1840 C1841 1.400 . S
C1841 C1835 1.491 . S
C1841 C1840 1.400 . S
C1841 C1842 1.398 . S
C1842 H1830 0.950 . S
C1842 C1841 1.398 . S
C1842 C1843 1.391 . S
C1843 H1831 0.950 . S
C1843 C1839 1.393 . S
C1843 C1842 1.391 . S
H1844 C1852 0.950 . S
H1845 C1857 0.950 . S
H1846 C1854 0.950 . S
H1847 C1856 0.950 . S
H1848 C1858 0.950 . S
H1849 C1860 0.950 . S
H1850 C1862 0.950 . S
H1851 C1863 0.950 . S
C1852 H1844 0.950 . S
C1852 C1853 1.386 . S
C1852 C1854 1.391 . S
C1853 C1852 1.386 . S
C1853 C1857 1.393 . S
C1854 H1846 0.950 . S
C1854 C1852 1.391 . S
C1854 C1855 1.400 . S
C1855 C1854 1.400 . S
C1855 C1856 1.398 . S
C1855 C1861 1.491 . S
C1856 H1847 0.950 . S
C1856 C1855 1.398 . S
C1856 C1857 1.391 . S
C1857 H1845 0.950 . S
C1857 C1853 1.393 . S
C1857 C1856 1.391 . S
C1858 H1848 0.950 . S
C1858 C1859 1.386 . S
C1858 C1860 1.391 . S
C1859 C1858 1.386 . S
C1859 C1863 1.393 . S
C1860 H1849 0.950 . S
C1860 C1858 1.391 . S
C1860 C1861 1.400 . S
C1861 C1855 1.491 . S
C1861 C1860 1.400 . S
C1861 C1862 1.398 . S
C1862 H1850 0.950 . S
C1862 C1861 1.398 . S
C1862 C1863 1.391 . S
C1863 H1851 0.950 . S
C1863 C1859 1.393 . S
C1863 C1862 1.391 . S
H1864 C1872 0.950 . S
H1865 C1877 0.950 . S
H1866 C1874 0.950 . S
H1867 C1876 0.950 . S
H1868 C1878 0.950 1_455 S
H1869 C1880 0.950 . S
H1870 C1882 0.950 . S
H1871 C1883 0.950 . S
C1872 H1864 0.950 . S
C1872 C1873 1.386 . S
C1872 C1874 1.391 . S
C1873 C1872 1.386 . S
C1873 C1877 1.393 . S
C1874 H1866 0.950 . S
C1874 C1872 1.391 . S
C1874 C1875 1.400 . S
C1875 C1874 1.400 . S
C1875 C1876 1.398 . S
C1875 C1881 1.491 . S
C1876 H1867 0.950 . S
C1876 C1875 1.398 . S
C1876 C1877 1.391 . S
C1877 H1865 0.950 . S
C1877 C1873 1.393 . S
C1877 C1876 1.391 . S
C1878 H1868 0.950 1_655 S
C1878 C1879 1.386 . S
C1878 C1880 1.391 . S
C1879 C1878 1.386 . S
C1879 C1883 1.393 . S
C1880 H1869 0.950 . S
C1880 C1878 1.391 . S
C1880 C1881 1.400 . S
C1881 C1875 1.491 . S
C1881 C1880 1.400 . S
C1881 C1882 1.398 . S
C1882 H1870 0.950 . S
C1882 C1881 1.398 . S
C1882 C1883 1.391 . S
C1883 H1871 0.950 . S
C1883 C1879 1.393 . S
C1883 C1882 1.391 . S
H1884 C1892 0.950 . S
H1885 C1897 0.950 . S
H1886 C1894 0.950 . S
H1887 C1896 0.950 . S
H1888 C1898 0.950 . S
H1889 C1900 0.950 . S
H1890 C1902 0.950 . S
H1891 C1903 0.950 . S
C1892 H1884 0.950 . S
C1892 C1893 1.386 . S
C1892 C1894 1.391 . S
C1893 C1892 1.386 . S
C1893 C1897 1.393 . S
C1894 H1886 0.950 . S
C1894 C1892 1.391 . S
C1894 C1895 1.400 . S
C1895 C1894 1.400 . S
C1895 C1896 1.398 . S
C1895 C1901 1.491 . S
C1896 H1887 0.950 . S
C1896 C1895 1.398 . S
C1896 C1897 1.391 . S
C1897 H1885 0.950 . S
C1897 C1893 1.393 . S
C1897 C1896 1.391 . S
C1898 H1888 0.950 . S
C1898 C1899 1.386 . S
C1898 C1900 1.391 . S
C1899 C1898 1.386 . S
C1899 C1903 1.393 . S
C1900 H1889 0.950 . S
C1900 C1898 1.391 . S
C1900 C1901 1.400 . S
C1901 C1895 1.491 . S
C1901 C1900 1.400 . S
C1901 C1902 1.398 . S
C1902 H1890 0.950 . S
C1902 C1901 1.398 . S
C1902 C1903 1.391 . S
C1903 H1891 0.950 . S
C1903 C1899 1.393 . S
C1903 C1902 1.391 . S
H1904 C1912 0.950 . S
H1905 C1917 0.950 . S
H1906 C1914 0.950 . S
H1907 C1916 0.950 . S
H1908 C1918 0.950 . S
H1909 C1920 0.950 . S
H1910 C1922 0.950 . S
H1911 C1923 0.950 . S
C1912 H1904 0.950 . S
C1912 C1913 1.386 . S
C1912 C1914 1.391 . S
C1913 C1912 1.386 . S
C1913 C1917 1.393 . S
C1914 H1906 0.950 . S
C1914 C1912 1.391 . S
C1914 C1915 1.400 . S
C1915 C1914 1.400 . S
C1915 C1916 1.398 . S
C1915 C1921 1.491 . S
C1916 H1907 0.950 . S
C1916 C1915 1.398 . S
C1916 C1917 1.391 . S
C1917 H1905 0.950 . S
C1917 C1913 1.393 . S
C1917 C1916 1.391 . S
C1918 H1908 0.950 . S
C1918 C1919 1.386 . S
C1918 C1920 1.391 . S
C1919 C1918 1.386 . S
C1919 C1923 1.393 . S
C1920 H1909 0.950 . S
C1920 C1918 1.391 . S
C1920 C1921 1.400 . S
C1921 C1915 1.491 . S
C1921 C1920 1.400 . S
C1921 C1922 1.398 . S
C1922 H1910 0.950 . S
C1922 C1921 1.398 . S
C1922 C1923 1.391 . S
C1923 H1911 0.950 . S
C1923 C1919 1.393 . S
C1923 C1922 1.391 . S
H1924 C1932 0.950 . S
H1925 C1937 0.950 . S
H1926 C1934 0.950 . S
H1927 C1936 0.950 . S
H1928 C1938 0.950 . S
H1929 C1940 0.950 . S
H1930 C1942 0.950 . S
H1931 C1943 0.950 . S
C1932 H1924 0.950 . S
C1932 C1933 1.386 . S
C1932 C1934 1.391 . S
C1933 C1932 1.386 . S
C1933 C1937 1.393 . S
C1934 H1926 0.950 . S
C1934 C1932 1.391 . S
C1934 C1935 1.400 . S
C1935 C1934 1.400 . S
C1935 C1936 1.398 . S
C1935 C1941 1.491 . S
C1936 H1927 0.950 . S
C1936 C1935 1.398 . S
C1936 C1937 1.391 . S
C1937 H1925 0.950 . S
C1937 C1933 1.393 . S
C1937 C1936 1.391 . S
C1938 H1928 0.950 . S
C1938 C1939 1.386 . S
C1938 C1940 1.391 . S
C1939 C1938 1.386 . S
C1939 C1943 1.393 . S
C1940 H1929 0.950 . S
C1940 C1938 1.391 . S
C1940 C1941 1.400 . S
C1941 C1935 1.491 . S
C1941 C1940 1.400 . S
C1941 C1942 1.398 . S
C1942 H1930 0.950 . S
C1942 C1941 1.398 . S
C1942 C1943 1.391 . S
C1943 H1931 0.950 . S
C1943 C1939 1.393 . S
C1943 C1942 1.391 . S
H1944 C1952 0.950 . S
H1945 C1957 0.950 . S
H1946 C1954 0.950 . S
H1947 C1956 0.950 . S
H1948 C1958 0.950 . S
H1949 C1960 0.950 . S
H1950 C1962 0.950 . S
H1951 C1963 0.950 . S
C1952 H1944 0.950 . S
C1952 C1953 1.386 . S
C1952 C1954 1.391 . S
C1953 C1952 1.386 . S
C1953 C1957 1.393 . S
C1954 H1946 0.950 . S
C1954 C1952 1.391 . S
C1954 C1955 1.400 . S
C1955 C1954 1.400 . S
C1955 C1956 1.398 . S
C1955 C1961 1.491 . S
C1956 H1947 0.950 . S
C1956 C1955 1.398 . S
C1956 C1957 1.391 . S
C1957 H1945 0.950 . S
C1957 C1953 1.393 . S
C1957 C1956 1.391 . S
C1958 H1948 0.950 . S
C1958 C1959 1.386 . S
C1958 C1960 1.391 . S
C1959 C1958 1.386 . S
C1959 C1963 1.393 . S
C1960 H1949 0.950 . S
C1960 C1958 1.391 . S
C1960 C1961 1.400 . S
C1961 C1955 1.491 . S
C1961 C1960 1.400 . S
C1961 C1962 1.398 . S
C1962 H1950 0.950 . S
C1962 C1961 1.398 . S
C1962 C1963 1.391 . S
C1963 H1951 0.950 . S
C1963 C1959 1.393 . S
C1963 C1962 1.391 . S
H1964 C1972 0.950 . S
H1965 C1977 0.950 . S
H1966 C1974 0.950 . S
H1967 C1976 0.950 . S
H1968 C1978 0.950 . S
H1969 C1980 0.950 . S
H1970 C1982 0.950 . S
H1971 C1983 0.950 . S
C1972 H1964 0.950 . S
C1972 C1973 1.386 . S
C1972 C1974 1.391 . S
C1973 C1972 1.386 . S
C1973 C1977 1.393 . S
C1974 H1966 0.950 . S
C1974 C1972 1.391 . S
C1974 C1975 1.400 . S
C1975 C1974 1.400 . S
C1975 C1976 1.398 . S
C1975 C1981 1.491 . S
C1976 H1967 0.950 . S
C1976 C1975 1.398 . S
C1976 C1977 1.391 . S
C1977 H1965 0.950 . S
C1977 C1973 1.393 . S
C1977 C1976 1.391 . S
C1978 H1968 0.950 . S
C1978 C1979 1.386 . S
C1978 C1980 1.391 . S
C1979 C1978 1.386 . S
C1979 C1983 1.393 . S
C1980 H1969 0.950 . S
C1980 C1978 1.391 . S
C1980 C1981 1.400 . S
C1981 C1975 1.491 . S
C1981 C1980 1.400 . S
C1981 C1982 1.398 . S
C1982 H1970 0.950 . S
C1982 C1981 1.398 . S
C1982 C1983 1.391 . S
C1983 H1971 0.950 . S
C1983 C1979 1.393 . S
C1983 C1982 1.391 . S
H1984 C1992 0.950 . S
H1985 C1997 0.950 . S
H1986 C1994 0.950 . S
H1987 C1996 0.950 . S
H1988 C1998 0.950 . S
H1989 C2000 0.950 . S
H1990 C2002 0.950 . S
H1991 C2003 0.950 . S
C1992 H1984 0.950 . S
C1992 C1993 1.386 . S
C1992 C1994 1.391 . S
C1993 C1992 1.386 . S
C1993 C1997 1.393 . S
C1994 H1986 0.950 . S
C1994 C1992 1.391 . S
C1994 C1995 1.400 . S
C1995 C1994 1.400 . S
C1995 C1996 1.398 . S
C1995 C2001 1.491 . S
C1996 H1987 0.950 . S
C1996 C1995 1.398 . S
C1996 C1997 1.391 . S
C1997 H1985 0.950 . S
C1997 C1993 1.393 . S
C1997 C1996 1.391 . S
C1998 H1988 0.950 . S
C1998 C1999 1.386 . S
C1998 C2000 1.391 . S
C1999 C1998 1.386 . S
C1999 C2003 1.393 . S
C2000 H1989 0.950 . S
C2000 C1998 1.391 . S
C2000 C2001 1.400 . S
C2001 C1995 1.491 . S
C2001 C2000 1.400 . S
C2001 C2002 1.398 . S
C2002 H1990 0.950 . S
C2002 C2001 1.398 . S
C2002 C2003 1.391 . S
C2003 H1991 0.950 . S
C2003 C1999 1.393 . S
C2003 C2002 1.391 . S
H2004 C2012 0.950 . S
H2005 C2017 0.950 . S
H2006 C2014 0.950 . S
H2007 C2016 0.950 . S
H2008 C2018 0.950 . S
H2009 C2020 0.950 . S
H2010 C2022 0.950 . S
H2011 C2023 0.904 1_545 S
C2012 H2004 0.950 . S
C2012 C2013 1.386 . S
C2012 C2014 1.391 . S
C2013 C2012 1.386 . S
C2013 C2017 1.393 . S
C2014 H2006 0.950 . S
C2014 C2012 1.391 . S
C2014 C2015 1.400 . S
C2015 C2014 1.400 . S
C2015 C2016 1.398 . S
C2015 C2021 1.491 . S
C2016 H2007 0.950 . S
C2016 C2015 1.398 . S
C2016 C2017 1.391 . S
C2017 H2005 0.950 . S
C2017 C2013 1.393 . S
C2017 C2016 1.391 . S
C2018 H2008 0.950 . S
C2018 C2019 1.386 . S
C2018 C2020 1.391 . S
C2019 C2018 1.386 . S
C2019 C2023 1.415 . S
C2020 H2009 0.950 . S
C2020 C2018 1.391 . S
C2020 C2021 1.400 . S
C2021 C2015 1.491 . S
C2021 C2020 1.400 . S
C2021 C2022 1.398 . S
C2022 H2010 0.950 . S
C2022 C2021 1.398 . S
C2022 C2023 1.414 . S
C2023 H2011 0.904 1_565 S
C2023 C2019 1.415 . S
C2023 C2022 1.414 . S
H2024 C2032 0.950 . S
H2025 C2037 0.950 . S
H2026 C2034 0.950 . S
H2027 C2036 0.950 . S
H2028 C2038 0.950 . S
H2029 C2040 0.950 . S
H2030 C2042 0.950 . S
H2031 C2043 0.950 . S
C2032 H2024 0.950 . S
C2032 C2033 1.386 . S
C2032 C2034 1.391 . S
C2033 C2032 1.386 . S
C2033 C2037 1.393 . S
C2034 H2026 0.950 . S
C2034 C2032 1.391 . S
C2034 C2035 1.400 . S
C2035 C2034 1.400 . S
C2035 C2036 1.398 . S
C2035 C2041 1.491 . S
C2036 H2027 0.950 . S
C2036 C2035 1.398 . S
C2036 C2037 1.391 . S
C2037 H2025 0.950 . S
C2037 C2033 1.393 . S
C2037 C2036 1.391 . S
C2038 H2028 0.950 . S
C2038 C2039 1.386 . S
C2038 C2040 1.391 . S
C2039 C2038 1.386 . S
C2039 C2043 1.393 . S
C2040 H2029 0.950 . S
C2040 C2038 1.391 . S
C2040 C2041 1.400 . S
C2041 C2035 1.491 . S
C2041 C2040 1.400 . S
C2041 C2042 1.398 . S
C2042 H2030 0.950 . S
C2042 C2041 1.398 . S
C2042 C2043 1.391 . S
C2043 H2031 0.950 . S
C2043 C2039 1.393 . S
C2043 C2042 1.391 . S
H2044 C2052 0.950 . S
H2045 C2057 0.966 . S
H2046 C2054 0.950 . S
H2047 C2056 0.950 . S
H2048 C2058 0.950 . S
H2049 C2060 0.950 . S
H2050 C2062 0.950 . S
H2051 C2063 0.950 . S
C2052 H2044 0.950 . S
C2052 C2053 1.386 . S
C2052 C2054 1.391 . S
C2053 C2052 1.386 . S
C2053 C2057 1.393 . S
C2054 H2046 0.950 . S
C2054 C2052 1.391 . S
C2054 C2055 1.400 . S
C2055 C2054 1.400 . S
C2055 C2056 1.398 . S
C2055 C2061 1.491 . S
C2056 H2047 0.950 . S
C2056 C2055 1.398 . S
C2056 C2057 1.391 . S
C2057 H2045 0.966 . S
C2057 C2053 1.393 . S
C2057 C2056 1.391 . S
C2058 H2048 0.950 . S
C2058 C2059 1.386 . S
C2058 C2060 1.391 . S
C2059 C2058 1.386 . S
C2059 C2063 1.393 . S
C2060 H2049 0.950 . S
C2060 C2058 1.391 . S
C2060 C2061 1.400 . S
C2061 C2055 1.491 . S
C2061 C2060 1.400 . S
C2061 C2062 1.398 . S
C2062 H2050 0.950 . S
C2062 C2061 1.398 . S
C2062 C2063 1.391 . S
C2063 H2051 0.950 . S
C2063 C2059 1.393 . S
C2063 C2062 1.391 . S
H2064 C2072 0.950 . S
H2065 C2077 0.950 . S
H2066 C2074 0.950 . S
H2067 C2076 0.950 . S
H2068 C2078 0.950 . S
H2069 C2080 0.950 . S
H2070 C2082 0.950 . S
H2071 C2083 0.950 . S
C2072 H2064 0.950 . S
C2072 C2073 1.386 . S
C2072 C2074 1.391 . S
C2073 C2072 1.386 . S
C2073 C2077 1.393 . S
C2074 H2066 0.950 . S
C2074 C2072 1.391 . S
C2074 C2075 1.400 . S
C2075 C2074 1.400 . S
C2075 C2076 1.398 . S
C2075 C2081 1.491 . S
C2076 H2067 0.950 . S
C2076 C2075 1.398 . S
C2076 C2077 1.391 . S
C2077 H2065 0.950 . S
C2077 C2073 1.393 . S
C2077 C2076 1.391 . S
C2078 H2068 0.950 . S
C2078 C2079 1.386 . S
C2078 C2080 1.391 . S
C2079 C2078 1.386 . S
C2079 C2083 1.393 . S
C2080 H2069 0.950 . S
C2080 C2078 1.391 . S
C2080 C2081 1.400 . S
C2081 C2075 1.491 . S
C2081 C2080 1.400 . S
C2081 C2082 1.398 . S
C2082 H2070 0.950 . S
C2082 C2081 1.398 . S
C2082 C2083 1.391 . S
C2083 H2071 0.950 . S
C2083 C2079 1.393 . S
C2083 C2082 1.391 . S
H2084 C2092 0.950 1_556 S
H2085 C2097 0.950 . S
H2086 C2094 0.961 . S
H2087 C2096 0.950 . S
H2088 C2098 0.950 . S
H2089 C2100 0.950 . S
H2090 C2102 0.950 . S
H2091 C2103 0.950 . S
C2092 H2084 0.950 1_554 S
C2092 C2093 1.386 . S
C2092 C2094 1.389 1_554 S
C2093 C2092 1.386 . S
C2093 C2097 1.393 . S
C2094 H2086 0.961 . S
C2094 C2092 1.389 1_556 S
C2094 C2095 1.393 1_556 S
C2095 C2094 1.393 1_554 S
C2095 C2096 1.398 . S
C2095 C2101 1.491 . S
C2096 H2087 0.950 . S
C2096 C2095 1.398 . S
C2096 C2097 1.391 . S
C2097 H2085 0.950 . S
C2097 C2093 1.393 . S
C2097 C2096 1.391 . S
C2098 H2088 0.950 . S
C2098 C2099 1.386 1_554 S
C2098 C2100 1.391 . S
C2099 C2098 1.386 1_556 S
C2099 C2103 1.393 . S
C2100 H2089 0.950 . S
C2100 C2098 1.391 . S
C2100 C2101 1.400 . S
C2101 C2095 1.491 . S
C2101 C2100 1.400 . S
C2101 C2102 1.398 1_554 S
C2102 H2090 0.950 . S
C2102 C2101 1.398 1_556 S
C2102 C2103 1.391 . S
C2103 H2091 0.950 . S
C2103 C2099 1.393 . S
C2103 C2102 1.391 . S
H2104 C2112 0.950 . S
H2105 C2117 0.950 . S
H2106 C2114 0.950 . S
H2107 C2116 0.950 . S
H2108 C2118 0.950 . S
H2109 C2120 0.950 . S
H2110 C2122 0.950 . S
H2111 C2123 0.950 . S
C2112 H2104 0.950 . S
C2112 C2113 1.386 . S
C2112 C2114 1.391 . S
C2113 C2112 1.386 . S
C2113 C2117 1.393 . S
C2114 H2106 0.950 . S
C2114 C2112 1.391 . S
C2114 C2115 1.400 . S
C2115 C2114 1.400 . S
C2115 C2116 1.398 . S
C2115 C2121 1.491 . S
C2116 H2107 0.950 . S
C2116 C2115 1.398 . S
C2116 C2117 1.391 . S
C2117 H2105 0.950 . S
C2117 C2113 1.393 . S
C2117 C2116 1.391 . S
C2118 H2108 0.950 . S
C2118 C2119 1.386 . S
C2118 C2120 1.391 . S
C2119 C2118 1.386 . S
C2119 C2123 1.393 . S
C2120 H2109 0.950 . S
C2120 C2118 1.391 . S
C2120 C2121 1.400 . S
C2121 C2115 1.491 . S
C2121 C2120 1.400 . S
C2121 C2122 1.398 . S
C2122 H2110 0.950 . S
C2122 C2121 1.398 . S
C2122 C2123 1.391 . S
C2123 H2111 0.950 . S
C2123 C2119 1.393 . S
C2123 C2122 1.391 . S
H2124 C2132 0.950 . S
H2125 C2137 0.950 . S
H2126 C2134 0.950 . S
H2127 C2136 0.950 . S
H2128 C2138 0.950 . S
H2129 C2140 0.950 . S
H2130 C2142 0.950 . S
H2131 C2143 0.950 . S
C2132 H2124 0.950 . S
C2132 C2133 1.386 . S
C2132 C2134 1.391 . S
C2133 C2132 1.386 . S
C2133 C2137 1.393 . S
C2134 H2126 0.950 . S
C2134 C2132 1.391 . S
C2134 C2135 1.400 . S
C2135 C2134 1.400 . S
C2135 C2136 1.398 . S
C2135 C2141 1.491 . S
C2136 H2127 0.950 . S
C2136 C2135 1.398 . S
C2136 C2137 1.391 . S
C2137 H2125 0.950 . S
C2137 C2133 1.393 . S
C2137 C2136 1.391 . S
C2138 H2128 0.950 . S
C2138 C2139 1.386 . S
C2138 C2140 1.391 . S
C2139 C2138 1.386 . S
C2139 C2143 1.393 . S
C2140 H2129 0.950 . S
C2140 C2138 1.391 . S
C2140 C2141 1.400 . S
C2141 C2135 1.491 . S
C2141 C2140 1.400 . S
C2141 C2142 1.398 . S
C2142 H2130 0.950 . S
C2142 C2141 1.398 . S
C2142 C2143 1.391 . S
C2143 H2131 0.950 . S
C2143 C2139 1.393 . S
C2143 C2142 1.391 . S
H2144 C2152 0.950 . S
H2145 C2157 0.950 . S
H2146 C2154 0.950 . S
H2147 C2156 0.950 . S
H2148 C2158 0.950 . S
H2149 C2160 0.950 . S
H2150 C2162 0.950 . S
H2151 C2163 0.950 . S
C2152 H2144 0.950 . S
C2152 C2153 1.386 . S
C2152 C2154 1.391 . S
C2153 C2152 1.386 . S
C2153 C2157 1.393 . S
C2154 H2146 0.950 . S
C2154 C2152 1.391 . S
C2154 C2155 1.400 . S
C2155 C2154 1.400 . S
C2155 C2156 1.398 . S
C2155 C2161 1.491 . S
C2156 H2147 0.950 . S
C2156 C2155 1.398 . S
C2156 C2157 1.391 . S
C2157 H2145 0.950 . S
C2157 C2153 1.393 . S
C2157 C2156 1.391 . S
C2158 H2148 0.950 . S
C2158 C2159 1.386 . S
C2158 C2160 1.391 . S
C2159 C2158 1.386 . S
C2159 C2163 1.393 . S
C2160 H2149 0.950 . S
C2160 C2158 1.391 . S
C2160 C2161 1.400 . S
C2161 C2155 1.491 . S
C2161 C2160 1.400 . S
C2161 C2162 1.398 . S
C2162 H2150 0.950 . S
C2162 C2161 1.398 . S
C2162 C2163 1.391 . S
C2163 H2151 0.950 . S
C2163 C2159 1.393 . S
C2163 C2162 1.391 . S
H2164 C2172 0.950 . S
H2165 C2177 0.950 . S
H2166 C2174 0.950 . S
H2167 C2176 0.950 . S
H2168 C2178 0.950 . S
H2169 C2180 0.950 . S
H2170 C2182 0.950 . S
H2171 C2183 0.950 . S
C2172 H2164 0.950 . S
C2172 C2173 1.386 . S
C2172 C2174 1.391 . S
C2173 C2172 1.386 . S
C2173 C2177 1.393 . S
C2174 H2166 0.950 . S
C2174 C2172 1.391 . S
C2174 C2175 1.400 . S
C2175 C2174 1.400 . S
C2175 C2176 1.398 . S
C2175 C2181 1.491 . S
C2176 H2167 0.950 . S
C2176 C2175 1.398 . S
C2176 C2177 1.391 . S
C2177 H2165 0.950 . S
C2177 C2173 1.393 . S
C2177 C2176 1.391 . S
C2178 H2168 0.950 . S
C2178 C2179 1.386 . S
C2178 C2180 1.391 . S
C2179 C2178 1.386 . S
C2179 C2183 1.393 . S
C2180 H2169 0.950 . S
C2180 C2178 1.391 . S
C2180 C2181 1.400 . S
C2181 C2175 1.491 . S
C2181 C2180 1.400 . S
C2181 C2182 1.398 . S
C2182 H2170 0.950 . S
C2182 C2181 1.398 . S
C2182 C2183 1.391 . S
C2183 H2171 0.950 . S
C2183 C2179 1.393 . S
C2183 C2182 1.391 . S
H2184 C2192 0.950 . S
H2185 C2197 0.950 . S
H2186 C2194 0.950 . S
H2187 C2196 0.950 . S
H2188 C2198 0.950 1_554 S
H2189 C2200 0.950 . S
H2190 C2202 0.950 . S
H2191 C2203 0.950 . S
C2192 H2184 0.950 . S
C2192 C2193 1.386 1_655 S
C2192 C2194 1.391 . S
C2193 C2192 1.386 1_455 S
C2193 C2197 1.393 . S
C2194 H2186 0.950 . S
C2194 C2192 1.391 . S
C2194 C2195 1.400 . S
C2195 C2194 1.400 . S
C2195 C2196 1.398 1_655 S
C2195 C2201 1.491 . S
C2196 H2187 0.950 . S
C2196 C2195 1.398 1_455 S
C2196 C2197 1.391 . S
C2197 H2185 0.950 . S
C2197 C2193 1.393 . S
C2197 C2196 1.391 . S
C2198 H2188 0.950 1_556 S
C2198 C2199 1.386 1_455 S
C2198 C2200 1.391 . S
C2199 C2198 1.386 1_655 S
C2199 C2203 1.393 . S
C2200 H2189 0.950 . S
C2200 C2198 1.391 . S
C2200 C2201 1.400 1_455 S
C2201 C2195 1.491 . S
C2201 C2200 1.400 1_655 S
C2201 C2202 1.398 . S
C2202 H2190 0.950 . S
C2202 C2201 1.398 . S
C2202 C2203 1.391 . S
C2203 H2191 0.950 . S
C2203 C2199 1.393 . S
C2203 C2202 1.391 . S
H2204 C2212 0.950 . S
H2205 C2217 0.950 . S
H2206 C2214 0.950 . S
H2207 C2216 0.950 . S
H2208 C2218 0.950 . S
H2209 C2220 0.950 . S
H2210 C2222 0.950 . S
H2211 C2223 0.950 . S
C2212 H2204 0.950 . S
C2212 C2213 1.386 . S
C2212 C2214 1.391 . S
C2213 C2212 1.386 . S
C2213 C2217 1.393 . S
C2214 H2206 0.950 . S
C2214 C2212 1.391 . S
C2214 C2215 1.400 . S
C2215 C2214 1.400 . S
C2215 C2216 1.398 . S
C2215 C2221 1.491 . S
C2216 H2207 0.950 . S
C2216 C2215 1.398 . S
C2216 C2217 1.391 . S
C2217 H2205 0.950 . S
C2217 C2213 1.393 . S
C2217 C2216 1.391 . S
C2218 H2208 0.950 . S
C2218 C2219 1.386 . S
C2218 C2220 1.391 . S
C2219 C2218 1.386 . S
C2219 C2223 1.393 . S
C2220 H2209 0.950 . S
C2220 C2218 1.391 . S
C2220 C2221 1.400 . S
C2221 C2215 1.491 . S
C2221 C2220 1.400 . S
C2221 C2222 1.398 . S
C2222 H2210 0.950 . S
C2222 C2221 1.398 . S
C2222 C2223 1.391 . S
C2223 H2211 0.950 . S
C2223 C2219 1.393 . S
C2223 C2222 1.391 . S
H2224 C2232 0.950 . S
H2225 C2237 0.950 . S
H2226 C2234 0.950 . S
H2227 C2236 0.950 . S
H2228 C2238 0.950 . S
H2229 C2240 0.950 . S
H2230 C2242 0.950 . S
H2231 C2243 0.950 . S
C2232 H2224 0.950 . S
C2232 C2233 1.386 . S
C2232 C2234 1.391 . S
C2233 C2232 1.386 . S
C2233 C2237 1.393 . S
C2234 H2226 0.950 . S
C2234 C2232 1.391 . S
C2234 C2235 1.400 . S
C2235 C2234 1.400 . S
C2235 C2236 1.398 . S
C2235 C2241 1.491 . S
C2236 H2227 0.950 . S
C2236 C2235 1.398 . S
C2236 C2237 1.391 . S
C2237 H2225 0.950 . S
C2237 C2233 1.393 . S
C2237 C2236 1.391 . S
C2238 H2228 0.950 . S
C2238 C2239 1.386 . S
C2238 C2240 1.391 . S
C2239 C2238 1.386 . S
C2239 C2243 1.393 . S
C2240 H2229 0.950 . S
C2240 C2238 1.391 . S
C2240 C2241 1.400 . S
C2241 C2235 1.491 . S
C2241 C2240 1.400 . S
C2241 C2242 1.398 . S
C2242 H2230 0.950 . S
C2242 C2241 1.398 . S
C2242 C2243 1.391 . S
C2243 H2231 0.950 . S
C2243 C2239 1.393 . S
C2243 C2242 1.391 . S
H2244 C2252 0.950 . S
H2245 C2257 0.950 . S
H2246 C2254 0.950 . S
H2247 C2256 0.950 . S
H2248 C2258 0.950 . S
H2249 C2260 0.950 . S
H2250 C2262 0.950 . S
H2251 C2263 0.950 . S
C2252 H2244 0.950 . S
C2252 C2253 1.386 . S
C2252 C2254 1.391 . S
C2253 C2252 1.386 . S
C2253 C2257 1.393 . S
C2254 H2246 0.950 . S
C2254 C2252 1.391 . S
C2254 C2255 1.400 . S
C2255 C2254 1.400 . S
C2255 C2256 1.398 . S
C2255 C2261 1.491 . S
C2256 H2247 0.950 . S
C2256 C2255 1.398 . S
C2256 C2257 1.391 . S
C2257 H2245 0.950 . S
C2257 C2253 1.393 . S
C2257 C2256 1.391 . S
C2258 H2248 0.950 . S
C2258 C2259 1.386 . S
C2258 C2260 1.391 . S
C2259 C2258 1.386 . S
C2259 C2263 1.393 . S
C2260 H2249 0.950 . S
C2260 C2258 1.391 . S
C2260 C2261 1.400 . S
C2261 C2255 1.491 . S
C2261 C2260 1.400 . S
C2261 C2262 1.398 . S
C2262 H2250 0.950 . S
C2262 C2261 1.398 . S
C2262 C2263 1.391 . S
C2263 H2251 0.950 . S
C2263 C2259 1.393 . S
C2263 C2262 1.391 . S
H2264 C2272 0.950 . S
H2265 C2277 0.950 . S
H2266 C2274 0.950 . S
H2267 C2276 0.950 . S
H2268 C2278 0.950 . S
H2269 C2280 0.950 . S
H2270 C2282 0.950 . S
H2271 C2283 0.950 . S
C2272 H2264 0.950 . S
C2272 C2273 1.386 1_655 S
C2272 C2274 1.391 . S
C2273 C2272 1.386 1_455 S
C2273 C2277 1.393 . S
C2274 H2266 0.950 . S
C2274 C2272 1.391 . S
C2274 C2275 1.432 . S
C2275 C2274 1.432 . S
C2275 C2276 1.360 1_655 S
C2275 C2281 1.497 . S
C2276 H2267 0.950 . S
C2276 C2275 1.360 1_455 S
C2276 C2277 1.391 . S
C2277 H2265 0.950 . S
C2277 C2273 1.393 . S
C2277 C2276 1.391 . S
C2278 H2268 0.950 . S
C2278 C2279 1.386 1_455 S
C2278 C2280 1.391 . S
C2279 C2278 1.386 1_655 S
C2279 C2283 1.393 . S
C2280 H2269 0.950 . S
C2280 C2278 1.391 . S
C2280 C2281 1.400 1_455 S
C2281 C2275 1.497 . S
C2281 C2280 1.400 1_655 S
C2281 C2282 1.398 . S
C2282 H2270 0.950 . S
C2282 C2281 1.398 . S
C2282 C2283 1.391 . S
C2283 H2271 0.950 . S
C2283 C2279 1.393 . S
C2283 C2282 1.391 . S
H2284 C2292 0.950 . S
H2285 C2297 0.950 . S
H2286 C2294 0.950 . S
H2287 C2296 0.950 . S
H2288 C2298 0.950 . S
H2289 C2300 0.950 . S
H2290 C2302 0.950 . S
H2291 C2303 0.950 . S
C2292 H2284 0.950 . S
C2292 C2293 1.386 . S
C2292 C2294 1.391 . S
C2293 C2292 1.386 . S
C2293 C2297 1.393 . S
C2294 H2286 0.950 . S
C2294 C2292 1.391 . S
C2294 C2295 1.400 . S
C2295 C2294 1.400 . S
C2295 C2296 1.398 . S
C2295 C2301 1.491 . S
C2296 H2287 0.950 . S
C2296 C2295 1.398 . S
C2296 C2297 1.391 . S
C2297 H2285 0.950 . S
C2297 C2293 1.393 . S
C2297 C2296 1.391 . S
C2298 H2288 0.950 . S
C2298 C2299 1.386 . S
C2298 C2300 1.391 . S
C2299 C2298 1.386 . S
C2299 C2303 1.393 . S
C2300 H2289 0.950 . S
C2300 C2298 1.391 . S
C2300 C2301 1.400 . S
C2301 C2295 1.491 . S
C2301 C2300 1.400 . S
C2301 C2302 1.398 . S
C2302 H2290 0.950 . S
C2302 C2301 1.398 . S
C2302 C2303 1.391 . S
C2303 H2291 0.950 . S
C2303 C2299 1.393 . S
C2303 C2302 1.391 . S
H2304 C2312 0.950 . S
H2305 C2317 0.950 . S
H2306 C2314 0.950 . S
H2307 C2316 0.950 . S
H2308 C2318 0.950 . S
H2309 C2320 0.950 . S
H2310 C2322 0.950 . S
H2311 C2323 0.950 . S
C2312 H2304 0.950 . S
C2312 C2313 1.386 . S
C2312 C2314 1.391 . S
C2313 C2312 1.386 . S
C2313 C2317 1.393 . S
C2314 H2306 0.950 . S
C2314 C2312 1.391 . S
C2314 C2315 1.400 . S
C2315 C2314 1.400 . S
C2315 C2316 1.398 . S
C2315 C2321 1.491 . S
C2316 H2307 0.950 . S
C2316 C2315 1.398 . S
C2316 C2317 1.391 . S
C2317 H2305 0.950 . S
C2317 C2313 1.393 . S
C2317 C2316 1.391 . S
C2318 H2308 0.950 . S
C2318 C2319 1.386 . S
C2318 C2320 1.391 . S
C2319 C2318 1.386 . S
C2319 C2323 1.393 . S
C2320 H2309 0.950 . S
C2320 C2318 1.391 . S
C2320 C2321 1.400 . S
C2321 C2315 1.491 . S
C2321 C2320 1.400 . S
C2321 C2322 1.398 . S
C2322 H2310 0.950 . S
C2322 C2321 1.398 . S
C2322 C2323 1.391 . S
C2323 H2311 0.950 . S
C2323 C2319 1.393 . S
C2323 C2322 1.391 . S
H2324 C2332 0.950 . S
H2325 C2337 0.950 . S
H2326 C2334 0.950 . S
H2327 C2336 0.950 . S
H2328 C2338 0.950 . S
H2329 C2340 0.950 . S
H2330 C2342 0.950 . S
H2331 C2343 0.950 . S
C2332 H2324 0.950 . S
C2332 C2333 1.386 . S
C2332 C2334 1.391 . S
C2333 C2332 1.386 . S
C2333 C2337 1.393 . S
C2334 H2326 0.950 . S
C2334 C2332 1.391 . S
C2334 C2335 1.400 . S
C2335 C2334 1.400 . S
C2335 C2336 1.398 . S
C2335 C2341 1.491 . S
C2336 H2327 0.950 . S
C2336 C2335 1.398 . S
C2336 C2337 1.391 . S
C2337 H2325 0.950 . S
C2337 C2333 1.393 . S
C2337 C2336 1.391 . S
C2338 H2328 0.950 . S
C2338 C2339 1.386 . S
C2338 C2340 1.391 . S
C2339 C2338 1.386 . S
C2339 C2343 1.393 . S
C2340 H2329 0.950 . S
C2340 C2338 1.391 . S
C2340 C2341 1.400 . S
C2341 C2335 1.491 . S
C2341 C2340 1.400 . S
C2341 C2342 1.398 . S
C2342 H2330 0.950 . S
C2342 C2341 1.398 . S
C2342 C2343 1.391 . S
C2343 H2331 0.950 . S
C2343 C2339 1.393 . S
C2343 C2342 1.391 . S
H2344 C2352 0.950 . S
H2345 C2357 0.950 . S
H2346 C2354 0.950 . S
H2347 C2356 0.950 . S
H2348 C2358 0.950 . S
H2349 C2360 0.950 . S
H2350 C2362 0.950 . S
H2351 C2363 0.950 . S
C2352 H2344 0.950 . S
C2352 C2353 1.386 . S
C2352 C2354 1.391 . S
C2353 C2352 1.386 . S
C2353 C2357 1.393 . S
C2354 H2346 0.950 . S
C2354 C2352 1.391 . S
C2354 C2355 1.400 . S
C2355 C2354 1.400 . S
C2355 C2356 1.398 . S
C2355 C2361 1.491 . S
C2356 H2347 0.950 . S
C2356 C2355 1.398 . S
C2356 C2357 1.391 . S
C2357 H2345 0.950 . S
C2357 C2353 1.393 . S
C2357 C2356 1.391 . S
C2358 H2348 0.950 . S
C2358 C2359 1.386 . S
C2358 C2360 1.391 . S
C2359 C2358 1.386 . S
C2359 C2363 1.393 . S
C2360 H2349 0.950 . S
C2360 C2358 1.391 . S
C2360 C2361 1.400 . S
C2361 C2355 1.491 . S
C2361 C2360 1.400 . S
C2361 C2362 1.398 . S
C2362 H2350 0.950 . S
C2362 C2361 1.398 . S
C2362 C2363 1.391 . S
C2363 H2351 0.950 . S
C2363 C2359 1.393 . S
C2363 C2362 1.391 . S
H2364 C2372 0.950 . S
H2365 C2377 0.950 . S
H2366 C2374 0.950 . S
H2367 C2376 0.950 . S
H2368 C2378 0.950 . S
H2369 C2380 0.950 . S
H2370 C2382 0.950 . S
H2371 C2383 0.950 . S
C2372 H2364 0.950 . S
C2372 C2373 1.386 . S
C2372 C2374 1.391 . S
C2373 C2372 1.386 . S
C2373 C2377 1.393 . S
C2374 H2366 0.950 . S
C2374 C2372 1.391 . S
C2374 C2375 1.400 . S
C2375 C2374 1.400 . S
C2375 C2376 1.398 . S
C2375 C2381 1.491 . S
C2376 H2367 0.950 . S
C2376 C2375 1.398 . S
C2376 C2377 1.391 . S
C2377 H2365 0.950 . S
C2377 C2373 1.393 . S
C2377 C2376 1.391 . S
C2378 H2368 0.950 . S
C2378 C2379 1.386 . S
C2378 C2380 1.391 . S
C2379 C2378 1.386 . S
C2379 C2383 1.393 . S
C2380 H2369 0.950 . S
C2380 C2378 1.391 . S
C2380 C2381 1.400 . S
C2381 C2375 1.491 . S
C2381 C2380 1.400 . S
C2381 C2382 1.398 . S
C2382 H2370 0.950 . S
C2382 C2381 1.398 . S
C2382 C2383 1.391 . S
C2383 H2371 0.950 . S
C2383 C2379 1.393 . S
C2383 C2382 1.391 . S
H2384 C2392 0.950 . S
H2385 C2397 0.950 . S
H2386 C2394 0.950 . S
H2387 C2396 0.950 . S
H2388 C2398 0.950 . S
H2389 C2400 0.950 . S
H2390 C2402 0.950 . S
H2391 C2403 0.950 . S
C2392 H2384 0.950 . S
C2392 C2393 1.386 . S
C2392 C2394 1.391 . S
C2393 C2392 1.386 . S
C2393 C2397 1.393 . S
C2394 H2386 0.950 . S
C2394 C2392 1.391 . S
C2394 C2395 1.400 . S
C2395 C2394 1.400 . S
C2395 C2396 1.398 . S
C2395 C2401 1.491 . S
C2396 H2387 0.950 . S
C2396 C2395 1.398 . S
C2396 C2397 1.391 . S
C2397 H2385 0.950 . S
C2397 C2393 1.393 . S
C2397 C2396 1.391 . S
C2398 H2388 0.950 . S
C2398 C2399 1.386 . S
C2398 C2400 1.391 . S
C2399 C2398 1.386 . S
C2399 C2403 1.393 . S
C2400 H2389 0.950 . S
C2400 C2398 1.391 . S
C2400 C2401 1.400 . S
C2401 C2395 1.491 . S
C2401 C2400 1.400 . S
C2401 C2402 1.398 . S
C2402 H2390 0.950 . S
C2402 C2401 1.398 . S
C2402 C2403 1.391 . S
C2403 H2391 0.950 . S
C2403 C2399 1.393 . S
C2403 C2402 1.391 . S
H2404 C2412 0.950 . S
H2405 C2417 0.950 . S
H2406 C2414 0.950 . S
H2407 C2416 0.950 . S
H2408 C2418 0.950 . S
H2409 C2420 0.950 . S
H2410 C2422 0.950 . S
H2411 C2423 0.950 . S
C2412 H2404 0.950 . S
C2412 C2413 1.386 . S
C2412 C2414 1.391 . S
C2413 C2412 1.386 . S
C2413 C2417 1.393 . S
C2414 H2406 0.950 . S
C2414 C2412 1.391 . S
C2414 C2415 1.400 . S
C2415 C2414 1.400 . S
C2415 C2416 1.398 . S
C2415 C2421 1.491 . S
C2416 H2407 0.950 . S
C2416 C2415 1.398 . S
C2416 C2417 1.391 . S
C2417 H2405 0.950 . S
C2417 C2413 1.393 . S
C2417 C2416 1.391 . S
C2418 H2408 0.950 . S
C2418 C2419 1.386 . S
C2418 C2420 1.391 . S
C2419 C2418 1.386 . S
C2419 C2423 1.393 . S
C2420 H2409 0.950 . S
C2420 C2418 1.391 . S
C2420 C2421 1.400 . S
C2421 C2415 1.491 . S
C2421 C2420 1.400 . S
C2421 C2422 1.398 . S
C2422 H2410 0.950 . S
C2422 C2421 1.398 . S
C2422 C2423 1.391 . S
C2423 H2411 0.950 . S
C2423 C2419 1.393 . S
C2423 C2422 1.391 . S
H2424 C2432 0.950 . S
H2425 C2437 0.950 . S
H2426 C2434 0.950 . S
H2427 C2436 0.950 . S
H2428 C2438 0.950 . S
H2429 C2440 0.950 . S
H2430 C2442 0.950 . S
H2431 C2443 0.950 . S
C2432 H2424 0.950 . S
C2432 C2433 1.386 . S
C2432 C2434 1.391 . S
C2433 C2432 1.386 . S
C2433 C2437 1.393 . S
C2434 H2426 0.950 . S
C2434 C2432 1.391 . S
C2434 C2435 1.400 . S
C2435 C2434 1.400 . S
C2435 C2436 1.398 . S
C2435 C2441 1.491 . S
C2436 H2427 0.950 . S
C2436 C2435 1.398 . S
C2436 C2437 1.391 . S
C2437 H2425 0.950 . S
C2437 C2433 1.393 . S
C2437 C2436 1.391 . S
C2438 H2428 0.950 . S
C2438 C2439 1.386 . S
C2438 C2440 1.391 . S
C2439 C2438 1.386 . S
C2439 C2443 1.393 . S
C2440 H2429 0.950 . S
C2440 C2438 1.391 . S
C2440 C2441 1.400 . S
C2441 C2435 1.491 . S
C2441 C2440 1.400 . S
C2441 C2442 1.398 . S
C2442 H2430 0.950 . S
C2442 C2441 1.398 . S
C2442 C2443 1.391 . S
C2443 H2431 0.950 . S
C2443 C2439 1.393 . S
C2443 C2442 1.391 . S
H2444 C2452 0.950 . S
H2445 C2457 0.950 . S
H2446 C2454 0.950 . S
H2447 C2456 0.950 . S
H2448 C2458 0.950 . S
H2449 C2460 0.950 . S
H2450 C2462 0.950 . S
H2451 C2463 0.950 . S
C2452 H2444 0.950 . S
C2452 C2453 1.386 . S
C2452 C2454 1.391 . S
C2453 C2452 1.386 . S
C2453 C2457 1.393 . S
C2454 H2446 0.950 . S
C2454 C2452 1.391 . S
C2454 C2455 1.400 . S
C2455 C2454 1.400 . S
C2455 C2456 1.398 . S
C2455 C2461 1.491 . S
C2456 H2447 0.950 . S
C2456 C2455 1.398 . S
C2456 C2457 1.391 . S
C2457 H2445 0.950 . S
C2457 C2453 1.393 . S
C2457 C2456 1.391 . S
C2458 H2448 0.950 . S
C2458 C2459 1.386 . S
C2458 C2460 1.391 . S
C2459 C2458 1.386 . S
C2459 C2463 1.393 . S
C2460 H2449 0.950 . S
C2460 C2458 1.391 . S
C2460 C2461 1.400 . S
C2461 C2455 1.491 . S
C2461 C2460 1.400 . S
C2461 C2462 1.398 . S
C2462 H2450 0.950 . S
C2462 C2461 1.398 . S
C2462 C2463 1.391 . S
C2463 H2451 0.950 . S
C2463 C2459 1.393 . S
C2463 C2462 1.391 . S
H2464 C2472 0.950 . S
H2465 C2477 0.950 . S
H2466 C2474 0.950 . S
H2467 C2476 0.950 . S
H2468 C2478 0.950 . S
H2469 C2480 0.950 . S
H2470 C2482 0.950 . S
H2471 C2483 0.950 . S
C2472 H2464 0.950 . S
C2472 C2473 1.386 . S
C2472 C2474 1.391 . S
C2473 C2472 1.386 . S
C2473 C2477 1.393 . S
C2474 H2466 0.950 . S
C2474 C2472 1.391 . S
C2474 C2475 1.400 . S
C2475 C2474 1.400 . S
C2475 C2476 1.398 . S
C2475 C2481 1.491 . S
C2476 H2467 0.950 . S
C2476 C2475 1.398 . S
C2476 C2477 1.391 . S
C2477 H2465 0.950 . S
C2477 C2473 1.393 . S
C2477 C2476 1.391 . S
C2478 H2468 0.950 . S
C2478 C2479 1.386 . S
C2478 C2480 1.391 . S
C2479 C2478 1.386 . S
C2479 C2483 1.393 . S
C2480 H2469 0.950 . S
C2480 C2478 1.391 . S
C2480 C2481 1.400 . S
C2481 C2475 1.491 . S
C2481 C2480 1.400 . S
C2481 C2482 1.398 . S
C2482 H2470 0.950 . S
C2482 C2481 1.398 . S
C2482 C2483 1.391 . S
C2483 H2471 0.950 . S
C2483 C2479 1.393 . S
C2483 C2482 1.391 . S
H2484 C2492 0.950 . S
H2485 C2497 0.950 . S
H2486 C2494 0.950 . S
H2487 C2496 0.950 . S
H2488 C2498 0.950 . S
H2489 C2500 0.950 . S
H2490 C2502 0.950 . S
H2491 C2503 0.950 . S
C2492 H2484 0.950 . S
C2492 C2493 1.386 . S
C2492 C2494 1.391 . S
C2493 C2492 1.386 . S
C2493 C2497 1.393 . S
C2494 H2486 0.950 . S
C2494 C2492 1.391 . S
C2494 C2495 1.400 . S
C2495 C2494 1.400 . S
C2495 C2496 1.398 . S
C2495 C2501 1.491 . S
C2496 H2487 0.950 . S
C2496 C2495 1.398 . S
C2496 C2497 1.391 . S
C2497 H2485 0.950 . S
C2497 C2493 1.393 . S
C2497 C2496 1.391 . S
C2498 H2488 0.950 . S
C2498 C2499 1.386 . S
C2498 C2500 1.391 . S
C2499 C2498 1.386 . S
C2499 C2503 1.393 . S
C2500 H2489 0.950 . S
C2500 C2498 1.391 . S
C2500 C2501 1.400 . S
C2501 C2495 1.491 . S
C2501 C2500 1.400 . S
C2501 C2502 1.398 . S
C2502 H2490 0.950 . S
C2502 C2501 1.398 . S
C2502 C2503 1.391 . S
C2503 H2491 0.950 . S
C2503 C2499 1.393 . S
C2503 C2502 1.391 . S
H2504 C2512 0.950 . S
H2505 C2517 0.950 . S
H2506 C2514 0.950 . S
H2507 C2516 0.950 . S
H2508 C2518 0.950 . S
H2509 C2520 0.950 . S
H2510 C2522 0.950 . S
H2511 C2523 0.950 . S
C2512 H2504 0.950 . S
C2512 C2513 1.386 . S
C2512 C2514 1.391 . S
C2513 C2512 1.386 . S
C2513 C2517 1.393 . S
C2514 H2506 0.950 . S
C2514 C2512 1.391 . S
C2514 C2515 1.400 . S
C2515 C2514 1.400 . S
C2515 C2516 1.398 . S
C2515 C2521 1.491 . S
C2516 H2507 0.950 . S
C2516 C2515 1.398 . S
C2516 C2517 1.391 . S
C2517 H2505 0.950 . S
C2517 C2513 1.393 . S
C2517 C2516 1.391 . S
C2518 H2508 0.950 . S
C2518 C2519 1.386 . S
C2518 C2520 1.391 . S
C2519 C2518 1.386 . S
C2519 C2523 1.393 . S
C2520 H2509 0.950 . S
C2520 C2518 1.391 . S
C2520 C2521 1.400 . S
C2521 C2515 1.491 . S
C2521 C2520 1.400 . S
C2521 C2522 1.398 . S
C2522 H2510 0.950 . S
C2522 C2521 1.398 . S
C2522 C2523 1.391 . S
C2523 H2511 0.950 . S
C2523 C2519 1.393 . S
C2523 C2522 1.391 . S
H2524 C2532 0.950 . S
H2525 C2537 0.950 . S
H2526 C2534 0.950 . S
H2527 C2536 0.950 . S
H2528 C2538 0.950 . S
H2529 C2540 0.950 . S
H2530 C2542 0.955 . S
H2531 C2543 0.950 . S
C2532 H2524 0.950 . S
C2532 C2533 1.386 . S
C2532 C2534 1.391 . S
C2533 C2532 1.386 . S
C2533 C2537 1.393 1_554 S
C2534 H2526 0.950 . S
C2534 C2532 1.391 . S
C2534 C2535 1.400 1_554 S
C2535 C2534 1.400 1_556 S
C2535 C2536 1.398 . S
C2535 C2541 1.491 . S
C2536 H2527 0.950 . S
C2536 C2535 1.398 . S
C2536 C2537 1.391 . S
C2537 H2525 0.950 . S
C2537 C2533 1.393 1_556 S
C2537 C2536 1.391 . S
C2538 H2528 0.950 . S
C2538 C2539 1.386 . S
C2538 C2540 1.391 . S
C2539 C2538 1.386 . S
C2539 C2543 1.393 . S
C2540 H2529 0.950 . S
C2540 C2538 1.391 . S
C2540 C2541 1.400 . S
C2541 C2535 1.491 . S
C2541 C2540 1.400 . S
C2541 C2542 1.398 . S
C2542 H2530 0.955 . S
C2542 C2541 1.398 . S
C2542 C2543 1.391 . S
C2543 H2531 0.950 . S
C2543 C2539 1.393 . S
C2543 C2542 1.391 . S
H2544 C2552 0.950 . S
H2545 C2557 0.950 . S
H2546 C2554 0.950 . S
H2547 C2556 0.950 . S
H2548 C2558 0.950 . S
H2549 C2560 0.950 . S
H2550 C2562 0.950 . S
H2551 C2563 0.950 . S
C2552 H2544 0.950 . S
C2552 C2553 1.386 . S
C2552 C2554 1.391 . S
C2553 C2552 1.386 . S
C2553 C2557 1.393 . S
C2554 H2546 0.950 . S
C2554 C2552 1.391 . S
C2554 C2555 1.400 . S
C2555 C2554 1.400 . S
C2555 C2556 1.398 . S
C2555 C2561 1.491 . S
C2556 H2547 0.950 . S
C2556 C2555 1.398 . S
C2556 C2557 1.391 . S
C2557 H2545 0.950 . S
C2557 C2553 1.393 . S
C2557 C2556 1.391 . S
C2558 H2548 0.950 . S
C2558 C2559 1.386 . S
C2558 C2560 1.391 . S
C2559 C2558 1.386 . S
C2559 C2563 1.393 . S
C2560 H2549 0.950 . S
C2560 C2558 1.391 . S
C2560 C2561 1.400 . S
C2561 C2555 1.491 . S
C2561 C2560 1.400 . S
C2561 C2562 1.398 . S
C2562 H2550 0.950 . S
C2562 C2561 1.398 . S
C2562 C2563 1.391 . S
C2563 H2551 0.950 . S
C2563 C2559 1.393 . S
C2563 C2562 1.391 . S
H2564 C2572 0.950 . S
H2565 C2577 0.951 1_556 S
H2566 C2574 0.950 . S
H2567 C2576 0.950 . S
H2568 C2578 0.950 . S
H2569 C2580 0.950 . S
H2570 C2582 0.950 . S
H2571 C2583 0.950 . S
C2572 H2564 0.950 . S
C2572 C2573 1.386 . S
C2572 C2574 1.391 . S
C2573 C2572 1.386 . S
C2573 C2577 1.393 . S
C2574 H2566 0.950 . S
C2574 C2572 1.391 . S
C2574 C2575 1.400 . S
C2575 C2574 1.400 . S
C2575 C2576 1.398 . S
C2575 C2581 1.491 . S
C2576 H2567 0.950 . S
C2576 C2575 1.398 . S
C2576 C2577 1.391 . S
C2577 H2565 0.951 1_554 S
C2577 C2573 1.393 . S
C2577 C2576 1.391 . S
C2578 H2568 0.950 . S
C2578 C2579 1.386 . S
C2578 C2580 1.391 . S
C2579 C2578 1.386 . S
C2579 C2583 1.393 . S
C2580 H2569 0.950 . S
C2580 C2578 1.391 . S
C2580 C2581 1.400 . S
C2581 C2575 1.491 . S
C2581 C2580 1.400 . S
C2581 C2582 1.398 . S
C2582 H2570 0.950 . S
C2582 C2581 1.398 . S
C2582 C2583 1.391 . S
C2583 H2571 0.950 . S
C2583 C2579 1.393 . S
C2583 C2582 1.391 . S
H2584 C2592 0.950 . S
H2585 C2597 0.950 . S
H2586 C2594 0.950 . S
H2587 C2596 0.950 . S
H2588 C2598 0.950 . S
H2589 C2600 0.950 . S
H2590 C2602 0.950 . S
H2591 C2603 0.950 . S
C2592 H2584 0.950 . S
C2592 C2593 1.386 . S
C2592 C2594 1.391 . S
C2593 C2592 1.386 . S
C2593 C2597 1.393 . S
C2594 H2586 0.950 . S
C2594 C2592 1.391 . S
C2594 C2595 1.400 . S
C2595 C2594 1.400 . S
C2595 C2596 1.398 . S
C2595 C2601 1.491 . S
C2596 H2587 0.950 . S
C2596 C2595 1.398 . S
C2596 C2597 1.391 . S
C2597 H2585 0.950 . S
C2597 C2593 1.393 . S
C2597 C2596 1.391 . S
C2598 H2588 0.950 . S
C2598 C2599 1.386 . S
C2598 C2600 1.391 . S
C2599 C2598 1.386 . S
C2599 C2603 1.393 . S
C2600 H2589 0.950 . S
C2600 C2598 1.391 . S
C2600 C2601 1.400 . S
C2601 C2595 1.491 . S
C2601 C2600 1.400 . S
C2601 C2602 1.398 . S
C2602 H2590 0.950 . S
C2602 C2601 1.398 . S
C2602 C2603 1.391 . S
C2603 H2591 0.950 . S
C2603 C2599 1.393 . S
C2603 C2602 1.391 . S
H2604 C2612 0.950 . S
H2605 C2617 0.950 . S
H2606 C2614 0.950 . S
H2607 C2616 0.950 . S
H2608 C2618 0.950 . S
H2609 C2620 0.950 . S
H2610 C2622 0.950 . S
H2611 C2623 0.950 . S
C2612 H2604 0.950 . S
C2612 C2613 1.386 . S
C2612 C2614 1.391 . S
C2613 C2612 1.386 . S
C2613 C2617 1.393 . S
C2614 H2606 0.950 . S
C2614 C2612 1.391 . S
C2614 C2615 1.400 . S
C2615 C2614 1.400 . S
C2615 C2616 1.398 . S
C2615 C2621 1.491 . S
C2616 H2607 0.950 . S
C2616 C2615 1.398 . S
C2616 C2617 1.391 . S
C2617 H2605 0.950 . S
C2617 C2613 1.393 . S
C2617 C2616 1.391 . S
C2618 H2608 0.950 . S
C2618 C2619 1.386 . S
C2618 C2620 1.391 . S
C2619 C2618 1.386 . S
C2619 C2623 1.393 . S
C2620 H2609 0.950 . S
C2620 C2618 1.391 . S
C2620 C2621 1.400 . S
C2621 C2615 1.491 . S
C2621 C2620 1.400 . S
C2621 C2622 1.398 . S
C2622 H2610 0.950 . S
C2622 C2621 1.398 . S
C2622 C2623 1.391 . S
C2623 H2611 0.950 . S
C2623 C2619 1.393 . S
C2623 C2622 1.391 . S
C719 C352 1.149 . S
C713 C5 1.161 . S
C733 C23 1.418 . S
C739 C380 1.310 . S
C753 C39 1.098 . S
C759 C398 1.075 . S
C779 C424 1.311 . S
C773 C42 1.435 . S
C793 C19 1.482 . S
C799 C447 1.345 . S
C819 C467 1.103 . S
C813 C28 1.117 . S
C839 C495 1.278 1_556 S
C833 C53 1.385 . S
C853 C9 1.119 . S
C859 C513 1.107 . S
C873 C65 1.420 . S
C879 C354 1.427 . S
C893 C75 1.110 . S
C899 C376 1.088 . S
C919 C400 1.447 . S
C913 C93 1.440 . S
C939 C421 1.087 . S
C933 C109 1.095 . S
C953 C56 1.137 . S
C959 C444 1.125 . S
C979 C469 1.333 . S
C973 C81 1.316 . S
C999 C491 1.111 . S
C993 C84 1.119 . S
C1019 C515 1.393 . S
C1013 C103 1.389 . S
C1039 C355 0.974 1_556 S
C1033 C107 1.020 . S
C1059 C538 1.199 . S
C1053 C121 1.204 . S
C1073 C131 1.122 . S
C1079 C562 1.045 . S
C1099 C586 1.149 . S
C1093 C140 1.179 . S
C1113 C61 1.069 . S
C1119 C516 1.015 . S
C1139 C401 0.941 . S
C1133 C70 1.026 . S
C1153 C137 1.138 . S
C1159 C607 1.144 . S
C1179 C632 1.066 . S
C1173 C165 1.096 . S
C1193 C173 1.152 . S
C1199 C353 1.130 . S
C1219 C630 1.023 . S
C1213 C182 1.025 . S
C1233 C207 1.115 . S
C1239 C399 1.103 . S
C1253 C219 0.986 . S
C1259 C609 0.947 . S
C1279 C448 0.997 . S
C1273 C187 1.023 . S
C1299 C560 1.115 . S
C1293 C205 1.145 . S
C1319 C492 1.014 . S
C1313 C221 1.023 . S
C1339 C652 1.109 . S
C1333 C168 1.111 . S
C1359 C357 0.962 . S
C1353 C224 1.007 . S
C1373 C243 1.324 . S
C1379 C628 1.298 . S
C1399 C403 0.958 . S
C1393 C252 1.019 . S
C1413 C277 1.248 . S
C1419 C606 1.219 . S
C1433 C233 1.350 . S
C1439 C445 1.326 . S
C1453 C249 0.936 . S
C1459 C564 0.910 . S
C1479 C490 1.343 . S
C1473 C261 1.373 1_545 S
C1493 C271 0.975 . S
C1499 C656 0.920 . S
C1513 C266 1.309 . S
C1519 C356 1.271 . S
C1533 C280 1.239 . S
C1539 C541 1.151 . S
C1553 C299 1.380 . S
C1559 C471 1.341 . S
C1573 C317 1.273 . S
C1579 C585 1.140 . S
C1599 C655 1.315 . S
C1593 C229 1.364 . S
C1619 C402 1.273 . S
C1613 C247 1.333 . S
C1639 C426 1.155 . S
C1633 C305 1.204 . S
C1659 C378 1.101 . S
C1653 C333 1.205 . S
C1673 C33 1.160 . S
C1679 C674 1.145 . S
C1699 C633 1.297 . S
C1693 C51 1.420 . S
C1719 C697 1.090 . S
C1713 C11 1.107 . S
C1733 C14 1.442 . S
C1739 C608 1.330 . S
C1753 C47 1.484 . S
C1759 C539 1.358 1_556 S
C1779 C559 1.108 . S
C1773 C0 1.120 . S
C1799 C587 1.303 . S
C1793 C25 1.395 . S
C1819 C651 1.119 . S
C1813 C37 1.127 . S
C1839 C676 1.427 . S
C1833 C163 1.418 . S
C1853 C117 1.111 . S
C1859 C629 1.091 . S
C1873 C135 1.436 . S
C1879 C699 1.445 . S
C1899 C605 1.089 . S
C1893 C151 1.094 . S
C1919 C536 1.139 . S
C1913 C154 1.146 . S
C1933 C123 1.311 . S
C1939 C561 1.330 . S
C1959 C583 1.099 . S
C1953 C126 1.108 . S
C1973 C145 1.392 . S
C1979 C653 1.388 . S
C1999 C677 0.959 . S
C1993 C149 1.020 . S
C2019 C446 1.199 . S
C2013 C79 1.205 . S
C2039 C470 1.036 . S
C2033 C89 1.119 . S
C2053 C98 1.168 . S
C2059 C494 1.148 . S
C2079 C654 1.016 . S
C2073 C159 1.070 . S
C2093 C112 1.042 . S
C2099 C700 0.986 1_556 S
C2119 C423 1.143 . S
C2113 C95 1.132 . S
C2139 C379 1.095 . S
C2133 C67 1.107 . S
C2153 C201 1.160 . S
C2159 C675 1.145 . S
C2179 C377 1.024 . S
C2173 C210 1.023 . S
C2199 C698 1.107 . S
C2193 C179 1.114 . S
C2213 C191 0.989 . S
C2219 C425 0.956 . S
C2233 C215 1.022 . S
C2239 C540 0.990 . S
C2253 C177 1.145 . S
C2259 C468 1.135 . S
C2273 C193 1.023 . S
C2279 C584 1.012 . S
C2293 C196 1.118 . S
C2299 C514 1.093 . S
C2319 C679 0.975 . S
C2313 C322 1.013 . S
C2333 C285 1.322 . S
C2339 C375 1.292 . S
C2359 C702 0.941 . S
C2353 C294 1.020 . S
C2373 C319 1.255 . S
C2379 C422 1.223 . S
C2393 C331 1.352 . S
C2399 C537 1.317 . S
C2419 C472 0.882 . S
C2413 C291 0.935 . S
C2433 C303 1.381 . S
C2439 C582 1.355 . S
C2459 C518 0.956 . S
C2453 C313 0.987 . S
C2479 C678 1.278 . S
C2473 C308 1.310 . S
C2499 C449 1.153 . S
C2493 C238 1.245 . S
C2513 C257 1.378 . S
C2519 C563 1.335 . S
C2539 C493 1.184 . S
C2533 C275 1.274 . S
C2559 C517 1.331 . S
C2553 C327 1.366 . S
C2573 C289 1.333 . S
C2579 C701 1.273 . S
C2599 C610 1.128 . S
C2593 C263 1.216 . S
C2619 C631 1.123 . S
C2613 C235 1.206 . S
