# Generated by pormake.
# Topology pyr, (3,6)-cn, num edge types: 1
# Building blocks:
#     Node 0, Type 0, BuildingBlock: WUSLED_clean_sbu_0, # of connection points: 3
#     Node 1, Type 0, BuildingBlock: WUSLED_clean_sbu_0, # of connection points: 3
#     Node 2, Type 0, BuildingBlock: WUSLED_clean_sbu_0, # of connection points: 3
#     Node 3, Type 0, BuildingBlock: WUSLED_clean_sbu_0, # of connection points: 3
#     Node 4, Type 0, BuildingBlock: WUSLED_clean_sbu_0, # of connection points: 3
#     Node 5, Type 0, BuildingBlock: WUSLED_clean_sbu_0, # of connection points: 3
#     Node 6, Type 0, BuildingBlock: WUSLED_clean_sbu_0, # of connection points: 3
#     Node 7, Type 0, BuildingBlock: WUSLED_clean_sbu_0, # of connection points: 3
#     Node 8, Type 1, BuildingBlock: BETFAJ_clean_sbu_0, # of connection points: 6
#     Node 9, Type 1, BuildingBlock: BETFAJ_clean_sbu_0, # of connection points: 6
#     Node 10, Type 1, BuildingBlock: BETFAJ_clean_sbu_0, # of connection points: 6
#     Node 11, Type 1, BuildingBlock: BETFAJ_clean_sbu_0, # of connection points: 6
#     Edge 12, Type (0, 1), BuildingBlock: EZIPEK_clean_linker_0, # of connection points: 2
#     Edge 13, Type (0, 1), BuildingBlock: EZIPEK_clean_linker_0, # of connection points: 2
#     Edge 14, Type (0, 1), BuildingBlock: EZIPEK_clean_linker_0, # of connection points: 2
#     Edge 15, Type (0, 1), BuildingBlock: EZIPEK_clean_linker_0, # of connection points: 2
#     Edge 16, Type (0, 1), BuildingBlock: EZIPEK_clean_linker_0, # of connection points: 2
#     Edge 17, Type (0, 1), BuildingBlock: EZIPEK_clean_linker_0, # of connection points: 2
#     Edge 18, Type (0, 1), BuildingBlock: EZIPEK_clean_linker_0, # of connection points: 2
#     Edge 19, Type (0, 1), BuildingBlock: EZIPEK_clean_linker_0, # of connection points: 2
#     Edge 20, Type (0, 1), BuildingBlock: EZIPEK_clean_linker_0, # of connection points: 2
#     Edge 21, Type (0, 1), BuildingBlock: EZIPEK_clean_linker_0, # of connection points: 2
#     Edge 22, Type (0, 1), BuildingBlock: EZIPEK_clean_linker_0, # of connection points: 2
#     Edge 23, Type (0, 1), BuildingBlock: EZIPEK_clean_linker_0, # of connection points: 2
#     Edge 24, Type (0, 1), BuildingBlock: EZIPEK_clean_linker_0, # of connection points: 2
#     Edge 25, Type (0, 1), BuildingBlock: EZIPEK_clean_linker_0, # of connection points: 2
#     Edge 26, Type (0, 1), BuildingBlock: EZIPEK_clean_linker_0, # of connection points: 2
#     Edge 27, Type (0, 1), BuildingBlock: EZIPEK_clean_linker_0, # of connection points: 2
#     Edge 28, Type (0, 1), BuildingBlock: EZIPEK_clean_linker_0, # of connection points: 2
#     Edge 29, Type (0, 1), BuildingBlock: EZIPEK_clean_linker_0, # of connection points: 2
#     Edge 30, Type (0, 1), BuildingBlock: EZIPEK_clean_linker_0, # of connection points: 2
#     Edge 31, Type (0, 1), BuildingBlock: EZIPEK_clean_linker_0, # of connection points: 2
#     Edge 32, Type (0, 1), BuildingBlock: EZIPEK_clean_linker_0, # of connection points: 2
#     Edge 33, Type (0, 1), BuildingBlock: EZIPEK_clean_linker_0, # of connection points: 2
#     Edge 34, Type (0, 1), BuildingBlock: EZIPEK_clean_linker_0, # of connection points: 2
#     Edge 35, Type (0, 1), BuildingBlock: EZIPEK_clean_linker_0, # of connection points: 2
# Relax obj value: 0.115
# Max RMSD: 0.128
# Mean RMSD: 0.060
data_MOF--net-pyr--node1-WUSLED_clean_sbu_0--node2-BETFAJ_clean_sbu_0--edge1-EZIPEK_clean_linker_0
_symmetry_space_group_name_H-M    P1
_symmetry_Int_Tables_number       1
_symmetry_cell_setting            triclinic
loop_
_symmetry_equiv_pos_as_xyz
'x, y, z'
_cell_length_a     39.025775
_cell_length_b     41.324472
_cell_length_c     38.069054
_cell_angle_alpha  90.566642
_cell_angle_beta   88.843352
_cell_angle_gamma 101.63988
loop_
_atom_site_label
_atom_site_type_symbol
_atom_site_fract_x
_atom_site_fract_y
_atom_site_fract_z
_atom_type_partial_charge
C0 C 0.3279 0.37759 0.20622 0.0
C1 C 0.29634 0.37005 0.22584 0.0
C2 C 0.27476 0.41314 0.19529 0.0
C3 C 0.26987 0.38779 0.22037 0.0
C4 C 0.30731 0.42229 0.17802 0.0
C5 C 0.3337 0.40465 0.18353 0.0
U6 U 0.36785 0.30914 0.24496 0.0
O7 O 0.373 0.26238 0.21953 0.0
O8 O 0.42043 0.29708 0.23866 0.0
C9 C 0.40718 0.26903 0.22274 0.0
C10 C 0.35249 0.35485 0.20461 0.0
C11 C 0.42868 0.24569 0.21033 0.0
C12 C 0.48058 0.23537 0.17942 0.0
C13 C 0.46254 0.25725 0.19644 0.0
C14 C 0.43182 0.1901 0.19167 0.0
C15 C 0.46475 0.20186 0.17611 0.0
C16 C 0.41387 0.21186 0.20862 0.0
C17 C 0.32782 0.28182 0.3372 0.0
C18 C 0.3027 0.22747 0.35935 0.0
C19 C 0.29092 0.27646 0.38918 0.0
C20 C 0.31306 0.29625 0.36557 0.0
C21 C 0.28403 0.2422 0.38463 0.0
C22 C 0.32462 0.24738 0.33536 0.0
C23 C 0.33617 0.30214 0.3061 0.0
O24 O 0.37898 0.36065 0.22618 0.0
O25 O 0.33765 0.32347 0.20215 0.0
O26 O 0.32184 0.28901 0.27699 0.0
O27 O 0.36812 0.3195 0.30201 0.0
H28 H 0.29135 0.34924 0.24363 0.0
H29 H 0.24486 0.3804 0.2339 0.0
H30 H 0.31149 0.44171 0.15858 0.0
H31 H 0.35783 0.41079 0.16827 0.0
H32 H 0.50601 0.24473 0.16743 0.0
H33 H 0.47428 0.28333 0.19721 0.0
H34 H 0.41943 0.16424 0.18946 0.0
H35 H 0.38787 0.20241 0.21929 0.0
H36 H 0.29722 0.20089 0.35575 0.0
H37 H 0.27638 0.2879 0.40857 0.0
H38 H 0.31518 0.32279 0.36703 0.0
H39 H 0.33575 0.23596 0.31334 0.0
C40 C 0.20609 0.90014 0.59461 0.0
C41 C 0.20971 0.92651 0.6187 0.0
C42 C 0.16683 0.94867 0.58775 0.0
C43 C 0.19026 0.95076 0.61524 0.0
C44 C 0.16235 0.92196 0.56407 0.0
C45 C 0.18215 0.89761 0.56747 0.0
U46 U 0.27431 0.88142 0.64747 0.0
O47 O 0.28571 0.83554 0.66887 0.0
O48 O 0.32586 0.86982 0.6383 0.0
C49 C 0.31616 0.84032 0.65224 0.0
C50 C 0.2286 0.87652 0.59842 0.0
C51 C 0.32229 0.8133 0.62969 0.0
C52 C 0.33945 0.79538 0.57235 0.0
C53 C 0.32393 0.81673 0.59289 0.0
C54 C 0.34609 0.76411 0.62459 0.0
C55 C 0.35275 0.77049 0.5887 0.0
C56 C 0.33115 0.78571 0.64515 0.0
C57 C 0.30391 0.94026 0.71914 0.0
C58 C 0.35954 0.93834 0.7448 0.0
C59 C 0.31737 0.96464 0.77606 0.0
C60 C 0.29441 0.95733 0.74838 0.0
C61 C 0.34989 0.95513 0.77418 0.0
C62 C 0.33637 0.93049 0.71749 0.0
C63 C 0.27934 0.93077 0.69115 0.0
O64 O 0.26189 0.88944 0.59273 0.0
O65 O 0.22244 0.85936 0.62759 0.0
O66 O 0.25737 0.90255 0.6964 0.0
O67 O 0.29377 0.9337 0.65955 0.0
H68 H 0.22805 0.92863 0.63987 0.0
H69 H 0.19396 0.97147 0.63344 0.0
H70 H 0.1443 0.92052 0.54261 0.0
H71 H 0.17926 0.87733 0.54882 0.0
H72 H 0.34448 0.80045 0.54465 0.0
H73 H 0.31625 0.83757 0.58045 0.0
H74 H 0.35616 0.74472 0.63734 0.0
H75 H 0.32936 0.78247 0.67339 0.0
H76 H 0.38472 0.93108 0.74331 0.0
H77 H 0.30997 0.97779 0.79884 0.0
H78 H 0.26925 0.9646 0.74991 0.0
H79 H 0.34371 0.91673 0.69517 0.0
C80 C 0.63785 0.4216 0.78493 0.0
C81 C 0.65307 0.45525 0.78024 0.0
C82 C 0.61524 0.45888 0.72981 0.0
C83 C 0.64203 0.47361 0.75284 0.0
C84 C 0.60014 0.42532 0.73485 0.0
C85 C 0.61138 0.40703 0.76177 0.0
U86 U 0.68165 0.38196 0.86689 0.0
O87 O 0.64664 0.35191 0.90639 0.0
O88 O 0.67938 0.3281 0.87006 0.0
C89 C 0.65589 0.32448 0.89566 0.0
C90 C 0.64712 0.40077 0.81401 0.0
C91 C 0.64178 0.29181 0.91191 0.0
C92 C 0.59278 0.25214 0.93716 0.0
C93 C 0.60635 0.2831 0.9222 0.0
C94 C 0.64995 0.23804 0.93219 0.0
C95 C 0.6145 0.22937 0.94239 0.0
C96 C 0.66346 0.26891 0.91696 0.0
C97 C 0.77192 0.42931 0.91164 0.0
C98 C 0.81025 0.42292 0.96033 0.0
C99 C 0.82584 0.46993 0.92181 0.0
C100 C 0.79554 0.45851 0.90251 0.0
C101 C 0.83371 0.45245 0.95099 0.0
C102 C 0.77954 0.41142 0.94085 0.0
C103 C 0.74012 0.41961 0.8896 0.0
O104 O 0.67215 0.38399 0.80959 0.0
O105 O 0.64219 0.40868 0.84699 0.0
O106 O 0.70901 0.4208 0.90285 0.0
O107 O 0.73945 0.39719 0.86475 0.0
H108 H 0.67336 0.46734 0.79768 0.0
H109 H 0.65431 0.49938 0.7497 0.0
H110 H 0.57964 0.41312 0.71769 0.0
H111 H 0.599 0.38124 0.76471 0.0
H112 H 0.56533 0.24596 0.94468 0.0
H113 H 0.58904 0.30013 0.9183 0.0
H114 H 0.66713 0.22086 0.93606 0.0
H115 H 0.6909 0.27494 0.90934 0.0
H116 H 0.81567 0.40888 0.9827 0.0
H117 H 0.84326 0.49264 0.91392 0.0
H118 H 0.79041 0.47278 0.8802 0.0
H119 H 0.7619 0.3888 0.94861 0.0
C120 C 0.79602 0.65553 0.42434 0.0
C121 C 0.78803 0.67496 0.45258 0.0
C122 C 0.7303 0.63755 0.46186 0.0
C123 C 0.75619 0.66556 0.47179 0.0
C124 C 0.7418 0.61616 0.43698 0.0
C125 C 0.7732 0.62547 0.41787 0.0
U126 U 0.88471 0.70417 0.37684 0.0
O127 O 0.92517 0.679 0.35382 0.0
O128 O 0.89361 0.70292 0.31906 0.0
C129 C 0.91939 0.68697 0.32144 0.0
C130 C 0.82733 0.66461 0.40068 0.0
C131 C 0.92931 0.66728 0.29084 0.0
C132 C 0.92284 0.61818 0.25266 0.0
C133 C 0.91176 0.63503 0.28212 0.0
C134 C 0.96922 0.66517 0.24053 0.0
C135 C 0.95177 0.63312 0.23139 0.0
C136 C 0.9581 0.68192 0.26962 0.0
C137 C 0.92159 0.79481 0.42302 0.0
C138 C 0.96931 0.835 0.4488 0.0
C139 C 0.91276 0.84936 0.44171 0.0
C140 C 0.89992 0.81806 0.42698 0.0
C141 C 0.94766 0.85828 0.45258 0.0
C142 C 0.95639 0.80361 0.43426 0.0
C143 C 0.90831 0.76198 0.40632 0.0
O144 O 0.82731 0.68702 0.37643 0.0
O145 O 0.85864 0.66437 0.41269 0.0
O146 O 0.91877 0.73503 0.41564 0.0
O147 O 0.88476 0.75771 0.3816 0.0
H148 H 0.80625 0.69733 0.4598 0.0
H149 H 0.75332 0.68055 0.49439 0.0
H150 H 0.72601 0.59212 0.43118 0.0
H151 H 0.7795 0.60903 0.39746 0.0
H152 H 0.9088 0.5935 0.2464 0.0
H153 H 0.88954 0.62293 0.29791 0.0
H154 H 0.99144 0.67746 0.22487 0.0
H155 H 0.97221 0.70667 0.27559 0.0
H156 H 0.99631 0.84124 0.45689 0.0
H157 H 0.89552 0.86679 0.44443 0.0
H158 H 0.87298 0.81202 0.41869 0.0
H159 H 0.9738 0.78636 0.43129 0.0
C160 C 0.73513 0.72816 0.87156 0.0
C161 C 0.74508 0.70498 0.84837 0.0
C162 C 0.78389 0.69074 0.89222 0.0
C163 C 0.76925 0.68623 0.85868 0.0
C164 C 0.77223 0.71245 0.9161 0.0
C165 C 0.74808 0.73113 0.90581 0.0
U166 U 0.6801 0.79709 0.84315 0.0
O167 O 0.62681 0.79643 0.8649 0.0
O168 O 0.67329 0.82559 0.89023 0.0
C169 C 0.63906 0.81765 0.8899 0.0
C170 C 0.71536 0.75211 0.85847 0.0
C171 C 0.62182 0.8454 0.89837 0.0
C172 C 0.61284 0.88549 0.94272 0.0
C173 C 0.62709 0.85872 0.93225 0.0
C174 C 0.58691 0.88636 0.88546 0.0
C175 C 0.59257 0.89944 0.91964 0.0
C176 C 0.60178 0.85946 0.87467 0.0
C177 C 0.71776 0.82866 0.75358 0.0
C178 C 0.7381 0.85694 0.69964 0.0
C179 C 0.77758 0.83176 0.73381 0.0
C180 C 0.75046 0.81996 0.75762 0.0
C181 C 0.77182 0.85211 0.70621 0.0
C182 C 0.71105 0.84516 0.72338 0.0
C183 C 0.69353 0.82781 0.78334 0.0
O184 O 0.72651 0.78367 0.8651 0.0
O185 O 0.68453 0.74408 0.84373 0.0
O186 O 0.66903 0.80106 0.78694 0.0
O187 O 0.70828 0.83909 0.81294 0.0
H188 H 0.73555 0.70261 0.82174 0.0
H189 H 0.77779 0.6694 0.84002 0.0
H190 H 0.78287 0.71583 0.94226 0.0
H191 H 0.74057 0.74882 0.92412 0.0
H192 H 0.61735 0.8952 0.96914 0.0
H193 H 0.64257 0.84836 0.95081 0.0
H194 H 0.57121 0.89698 0.86737 0.0
H195 H 0.59767 0.84979 0.8482 0.0
H196 H 0.73362 0.87286 0.67849 0.0
H197 H 0.80375 0.82811 0.73904 0.0
H198 H 0.75594 0.80708 0.78085 0.0
H199 H 0.6859 0.85192 0.72005 0.0
C200 C 0.72896 0.2056 0.36464 0.0
C201 C 0.72806 0.1716 0.36873 0.0
C202 C 0.70897 0.16266 0.30949 0.0
C203 C 0.71742 0.15002 0.34125 0.0
C204 C 0.71472 0.1968 0.30382 0.0
C205 C 0.72443 0.21837 0.33165 0.0
U206 U 0.77704 0.22364 0.4448 0.0
O207 O 0.79941 0.26882 0.47397 0.0
O208 O 0.76199 0.22861 0.4999 0.0
C209 C 0.77803 0.25979 0.5009 0.0
C210 C 0.73431 0.22731 0.39502 0.0
C211 C 0.75485 0.28236 0.50925 0.0
C212 C 0.70067 0.30029 0.49881 0.0
C213 C 0.72218 0.27778 0.49301 0.0
C214 C 0.74432 0.33233 0.53689 0.0
C215 C 0.7119 0.3278 0.5204 0.0
C216 C 0.76578 0.30951 0.53135 0.0
C217 C 0.84352 0.17374 0.46123 0.0
C218 C 0.89677 0.19147 0.49376 0.0
C219 C 0.86847 0.13341 0.49112 0.0
C220 C 0.84215 0.14101 0.47091 0.0
C221 C 0.89646 0.15845 0.50119 0.0
C222 C 0.87001 0.19919 0.47406 0.0
C223 C 0.817 0.18099 0.43811 0.0
O224 O 0.72383 0.21244 0.42487 0.0
O225 O 0.76534 0.24686 0.396 0.0
O226 O 0.82461 0.21025 0.42331 0.0
O227 O 0.78481 0.17286 0.45067 0.0
H228 H 0.73316 0.16145 0.39377 0.0
H229 H 0.71304 0.1236 0.34558 0.0
H230 H 0.70826 0.20645 0.27897 0.0
H231 H 0.7264 0.24465 0.32799 0.0
H232 H 0.67584 0.29691 0.48559 0.0
H233 H 0.71359 0.25717 0.47532 0.0
H234 H 0.75325 0.35387 0.55322 0.0
H235 H 0.79113 0.31342 0.54355 0.0
H236 H 0.91828 0.21082 0.50185 0.0
H237 H 0.8681 0.10778 0.49729 0.0
H238 H 0.82137 0.12132 0.46198 0.0
H239 H 0.87079 0.22485 0.46786 0.0
C240 C 0.2812 0.68366 0.18747 0.0
C241 C 0.26886 0.70403 0.1633 0.0
C242 C 0.21938 0.65921 0.14868 0.0
C243 C 0.23833 0.69184 0.14396 0.0
C244 C 0.2317 0.63921 0.17314 0.0
C245 C 0.26217 0.65124 0.19213 0.0
U246 U 0.37156 0.72645 0.23762 0.0
O247 O 0.37458 0.71663 0.29468 0.0
O248 O 0.40741 0.69505 0.25678 0.0
C249 C 0.39829 0.69841 0.28984 0.0
C250 C 0.31328 0.69488 0.2087 0.0
C251 C 0.41329 0.68238 0.31971 0.0
C252 C 0.40562 0.65224 0.37563 0.0
C253 C 0.39183 0.66788 0.3479 0.0
C254 C 0.46304 0.66598 0.34843 0.0
C255 C 0.44145 0.65098 0.37637 0.0
C256 C 0.44914 0.68123 0.32044 0.0
C257 C 0.41458 0.81677 0.19734 0.0
C258 C 0.4561 0.86902 0.18964 0.0
C259 C 0.40766 0.8543 0.14998 0.0
C260 C 0.39595 0.82448 0.16837 0.0
C261 C 0.43805 0.87672 0.16039 0.0
C262 C 0.4445 0.83946 0.20783 0.0
C263 C 0.40512 0.78528 0.21706 0.0
O264 O 0.34449 0.69204 0.197 0.0
O265 O 0.31368 0.71612 0.2347 0.0
O266 O 0.37987 0.78109 0.24098 0.0
O267 O 0.41061 0.75764 0.20279 0.0
H268 H 0.28288 0.72916 0.1592 0.0
H269 H 0.22955 0.70778 0.12518 0.0
H270 H 0.21789 0.614 0.17725 0.0
H271 H 0.27099 0.63503 0.2106 0.0
H272 H 0.3882 0.64104 0.3966 0.0
H273 H 0.36414 0.66821 0.34826 0.0
H274 H 0.49073 0.66569 0.34814 0.0
H275 H 0.46655 0.69234 0.2994 0.0
H276 H 0.47987 0.88551 0.19779 0.0
H277 H 0.39366 0.85947 0.1271 0.0
H278 H 0.37289 0.80733 0.15964 0.0
H279 H 0.45944 0.834 0.22991 0.0
C280 C 0.13543 0.3061 0.67711 0.0
C281 C 0.1386 0.30324 0.64031 0.0
C282 C 0.11196 0.24416 0.64307 0.0
C283 C 0.12699 0.27245 0.62345 0.0
C284 C 0.10949 0.24714 0.67973 0.0
C285 C 0.12099 0.27764 0.69642 0.0
U286 U 0.17481 0.39778 0.71711 0.0
O287 O 0.13879 0.42924 0.73851 0.0
O288 O 0.17198 0.40753 0.77415 0.0
C289 C 0.14865 0.42616 0.77095 0.0
C290 C 0.14333 0.33817 0.69664 0.0
C291 C 0.13525 0.44257 0.80233 0.0
C292 C 0.08836 0.46327 0.83385 0.0
C293 C 0.10063 0.44771 0.80427 0.0
C294 C 0.14514 0.46954 0.86005 0.0
C295 C 0.11045 0.47448 0.86222 0.0
C296 C 0.15728 0.45371 0.83069 0.0
C297 C 0.26607 0.44315 0.66831 0.0
C298 C 0.31676 0.48801 0.66057 0.0
C299 C 0.3114 0.4387 0.62453 0.0
C300 C 0.27948 0.42522 0.64164 0.0
C301 C 0.33036 0.47017 0.63401 0.0
C302 C 0.28492 0.47463 0.67749 0.0
C303 C 0.23329 0.42947 0.68793 0.0
O304 O 0.16736 0.34326 0.72089 0.0
O305 O 0.1375 0.36541 0.68246 0.0
O306 O 0.20241 0.43219 0.67653 0.0
O307 O 0.23268 0.40842 0.71368 0.0
H308 H 0.14935 0.32474 0.62462 0.0
H309 H 0.1291 0.27081 0.5951 0.0
H310 H 0.09778 0.22591 0.69542 0.0
H311 H 0.11771 0.27918 0.72467 0.0
H312 H 0.06153 0.46658 0.8346 0.0
H313 H 0.08291 0.43943 0.78299 0.0
H314 H 0.16292 0.47787 0.88126 0.0
H315 H 0.18414 0.45046 0.83005 0.0
H316 H 0.3309 0.51228 0.66828 0.0
H317 H 0.32145 0.42454 0.60408 0.0
H318 H 0.26543 0.40084 0.63422 0.0
H319 H 0.27512 0.48883 0.69808 0.0
Sm320 Sm 0.03901 0.06552 0.51246 0.0
Sm321 Sm 1.01208 1.03641 0.58265 0.0
C322 C 0.06036 0.09869 0.45572 0.0
C323 C 0.09413 0.12113 0.45 0.0
C324 C 0.09839 0.15461 0.45963 0.0
C325 C 0.13081 0.17558 0.45556 0.0
C326 C 0.15894 0.16325 0.44135 0.0
C327 C 0.15546 0.1297 0.43339 0.0
C328 C 0.12319 0.10867 0.43772 0.0
C329 C 0.08584 1.03831 0.54893 0.0
C330 C 0.05199 0.11489 0.58147 0.0
C331 C 0.99363 1.00006 0.63787 0.0
C332 C 0.95943 0.97955 0.64515 0.0
C333 C 0.95748 0.94671 0.65483 0.0
C334 C 0.92508 0.92583 0.65907 0.0
C335 C 0.89457 0.93774 0.65342 0.0
C336 C 0.89628 0.9701 0.64211 0.0
C337 C 0.9287 0.99104 0.638 0.0
C338 C 0.96334 0.06336 0.54911 0.0
C339 C 1.00171 0.98923 0.51223 0.0
O340 O 0.03902 0.10863 0.47856 0.0
O341 O 0.06182 0.06751 0.45894 0.0
O342 O 0.0662 0.05571 0.56223 0.0
O343 O 0.08256 1.03599 0.51524 0.0
O344 O 0.04972 0.11285 0.54692 0.0
O345 O 0.0425 0.08827 0.60149 0.0
O346 O 1.01003 0.98977 0.61099 0.0
O347 O 0.9953 1.03205 0.63846 0.0
O348 O 0.98568 1.04939 0.53472 0.0
O349 O 0.96041 0.05434 0.58136 0.0
O350 O 1.00918 0.99071 0.54598 0.0
O351 O 1.00496 1.01651 0.4937 0.0
H352 H 0.07663 0.16472 0.46983 0.0
H353 H 0.13349 0.20166 0.46145 0.0
H354 H 0.17729 0.12019 0.42232 0.0
H355 H 0.12094 0.08282 0.43089 0.0
H356 H 0.98103 0.93731 0.65918 0.0
H357 H 0.92371 0.90075 0.66791 0.0
H358 H 0.8726 0.97938 0.63796 0.0
H359 H 0.92958 1.01613 0.62964 0.0
Sm360 Sm 0.55662 0.05067 0.06095 0.0
Sm361 Sm 0.49943 0.05157 1.03125 0.0
C362 C 0.6121 0.06014 0.09936 0.0
C363 C 0.61499 0.07566 0.13377 0.0
C364 C 0.6314 0.10895 0.13693 0.0
C365 C 0.63662 0.12305 0.16993 0.0
C366 C 0.62585 0.1036 0.19947 0.0
C367 C 0.60538 0.07197 0.19651 0.0
C368 C 0.59995 0.05787 0.16352 0.0
C369 C 0.50866 0.99434 0.08153 0.0
C370 C 0.50524 0.09721 0.09468 0.0
C371 C 0.44159 1.03842 0.99613 0.0
C372 C 0.43572 1.02147 0.96294 0.0
C373 C 0.40345 1.00071 0.95739 0.0
C374 C 0.39706 0.985 0.92528 0.0
C375 C 0.42303 0.99018 0.8989 0.0
C376 C 0.45652 1.00843 0.90543 0.0
C377 C 0.46292 1.02417 0.93764 0.0
C378 C 0.54912 0.10644 1.01007 0.0
C379 C 0.54939 1.00659 0.99416 0.0
O380 O 0.6092 0.07944 0.07327 0.0
O381 O 0.59066 1.03173 0.0977 0.0
O382 O 0.50269 1.02354 0.08202 0.0
O383 O 0.53926 0.99555 0.06806 0.0
O384 O 0.53803 0.09438 0.09002 0.0
O385 O 0.48094 0.07649 0.07878 0.0
O386 O 0.44796 1.01976 1.02152 0.0
O387 O 0.46254 0.06727 0.99504 0.0
O388 O 0.55416 0.07711 1.01004 0.0
O389 O 0.51815 0.10722 1.02168 0.0
O390 O 0.51721 1.01102 0.99768 0.0
O391 O 0.57379 1.02433 1.01319 0.0
H392 H 0.64186 0.12347 0.11417 0.0
H393 H 0.65228 0.14777 0.17254 0.0
H394 H 0.5969 0.05716 0.21962 0.0
H395 H 0.58578 1.03254 0.16165 0.0
H396 H 0.38294 0.99758 0.97742 0.0
H397 H 0.37117 0.97064 0.92016 0.0
H398 H 0.47659 1.01233 0.88493 0.0
H399 H 0.48855 1.03925 0.94231 0.0
Sm400 Sm 0.5293 0.52673 0.53237 0.0
Sm401 Sm 0.53302 0.58369 0.56994 0.0
C402 C 0.54121 0.4735 0.5003 0.0
C403 C 0.56807 0.45442 0.50596 0.0
C404 C 0.60214 0.4701 0.51527 0.0
C405 C 0.62695 0.45121 0.52228 0.0
C406 C 0.61761 0.41672 0.52026 0.0
C407 C 0.58341 0.40114 0.51218 0.0
C408 C 0.5587 0.41998 0.50502 0.0
C409 C 0.4641 0.52604 0.56313 0.0
C410 C 0.56291 0.52673 0.61142 0.0
C411 C 0.52351 0.63348 0.60948 0.0
C412 C 0.5019 0.65749 0.60062 0.0
C413 C 0.4677 0.65328 0.61458 0.0
C414 C 0.44511 0.67281 0.60305 0.0
C415 C 0.4564 0.69701 0.5776 0.0
C416 C 0.49023 0.7011 0.56304 0.0
C417 C 0.51296 0.68155 0.5746 0.0
C418 C 0.59039 0.58891 0.52445 0.0
C419 C 0.49938 0.58463 0.49297 0.0
O420 O 0.55191 0.50311 0.48761 0.0
O421 O 0.51861 0.4724 0.52615 0.0
O422 O 0.49327 0.536 0.57755 0.0
O423 O 0.46927 0.51759 0.53093 0.0
O424 O 0.5521 0.50883 0.58332 0.0
O425 O 0.56055 0.55818 0.61235 0.0
O426 O 0.50601 0.60342 0.6144 0.0
O427 O 0.55212 0.63443 0.59081 0.0
O428 O 0.57874 0.56448 0.54411 0.0
O429 O 0.5708 0.61054 0.52753 0.0
O430 O 0.49633 0.59455 0.5257 0.0
O431 O 0.5165 0.5605 0.48718 0.0
H432 H 0.60956 0.49679 0.51696 0.0
H433 H 0.65348 0.46333 0.52836 0.0
H434 H 0.5762 0.37446 0.5104 0.0
H435 H 0.53231 0.40772 0.49863 0.0
H436 H 0.45823 0.63451 0.63408 0.0
H437 H 0.419 0.66955 0.61454 0.0
H438 H 0.49923 0.71997 0.54352 0.0
H439 H 0.53892 0.68501 0.56282 0.0
Sm440 Sm 0.03467 0.52717 0.0647 0.0
Sm441 Sm 1.02353 0.58305 1.02605 0.0
C442 C 0.06774 0.48174 0.08805 0.0
C443 C 0.10012 0.4798 0.1073 0.0
C444 C 0.13263 0.48349 0.08929 0.0
C445 C 0.16195 0.47658 0.10596 0.0
C446 C 0.15946 0.46596 0.14095 0.0
C447 C 0.12779 0.46418 0.15968 0.0
C448 C 0.09835 0.47099 0.14298 0.0
C449 C 0.99783 0.56539 0.10616 0.0
C450 C 0.09457 0.59669 0.07063 0.0
C451 C 0.99373 0.62932 0.99904 0.0
C452 C 0.9602 0.63118 0.98219 0.0
C453 C 0.9368 0.64798 0.9996 0.0
C454 C 0.90642 0.65263 0.98324 0.0
C455 C 0.89872 0.64046 0.94918 0.0
C456 C 0.92103 0.62218 0.93231 0.0
C457 C 0.95161 0.61765 0.94863 0.0
C458 C 0.06057 0.54348 0.9855 0.0
C459 C 0.96233 0.51486 1.02275 0.0
O460 O 0.07203 0.49402 0.05641 0.0
O461 O 0.04162 0.49041 0.10535 0.0
O462 O 1.02365 0.57646 0.0856 0.0
O463 O 0.99147 0.53321 0.10541 0.0
O464 O 0.08651 0.56449 0.07526 0.0
O465 O 0.07329 0.61173 0.05337 0.0
O466 O 0.99186 0.62178 1.03229 0.0
O467 O 1.01626 0.61557 0.98156 0.0
O468 O 0.03409 0.53356 1.0055 0.0
O469 O 0.06725 0.57565 0.98639 0.0
O470 O 0.96969 0.54729 1.02018 0.0
O471 O 0.98491 0.49917 1.0369 0.0
H472 H 0.13515 0.4903 0.06182 0.0
H473 H 0.18616 0.47799 0.09108 0.0
H474 H 0.12538 0.45589 0.18668 0.0
H475 H 0.07382 0.46795 0.15758 0.0
H476 H 0.94252 0.65838 1.02557 0.0
H477 H 0.88945 0.66667 0.99671 0.0
H478 H 0.91545 0.61257 0.90601 0.0
H479 H 0.96887 0.60427 0.93464 0.0
C480 C 0.22092 0.21784 0.38013 0.0
C481 C 0.25183 0.22305 0.40029 0.0
C482 C 0.22075 0.19188 0.44936 0.0
C483 C 0.19022 0.18606 0.42883 0.0
N484 N 0.15857 0.19609 0.37745 0.0
N485 N 0.28204 0.21865 0.45396 0.0
C486 C 0.18949 0.1999 0.39502 0.0
C487 C 0.25198 0.21123 0.43504 0.0
N488 N 0.222 0.22935 0.3464 0.0
N489 N 0.21957 0.17855 0.48223 0.0
H490 H 0.30547 0.23228 0.44367 0.0
H491 H 0.2841 0.21225 0.48003 0.0
H492 H 0.19657 0.16518 0.49367 0.0
H493 H 0.24102 0.18014 0.49834 0.0
H494 H 0.20182 0.22283 0.32866 0.0
H495 H 0.24392 0.24455 0.33508 0.0
H496 H 0.15515 0.20887 0.35483 0.0
H497 H 0.13519 0.18135 0.38637 0.0
C498 C 0.38799 0.99758 0.80937 0.0
C499 C 0.37426 0.96378 0.80284 0.0
C500 C 0.40412 0.94815 0.85344 0.0
C501 C 0.41232 0.98179 0.86317 0.0
N502 N 0.40725 1.0386 0.85381 0.0
N503 N 0.36511 0.90655 0.82054 0.0
C504 C 0.40343 1.00673 0.84191 0.0
C505 C 0.38154 0.93877 0.82506 0.0
N506 N 0.38608 1.02081 0.78456 0.0
N507 N 0.41729 0.92536 0.87189 0.0
H508 H 0.34754 0.8987 0.80045 0.0
H509 H 0.36664 0.88803 0.83845 0.0
H510 H 0.43389 0.93193 0.89309 0.0
H511 H 0.41447 0.90073 0.86416 0.0
H512 H 0.39852 1.04551 0.78703 0.0
H513 H 0.37508 1.0148 0.76 0.0
H514 H 0.39681 0.05648 0.84101 0.0
H515 H 0.41827 1.04674 0.87783 0.0
C516 C 0.61397 0.47278 0.6646 0.0
C517 C 0.60325 0.47787 0.69984 0.0
C518 C 0.56497 0.51405 0.6774 0.0
C519 C 0.57767 0.51091 0.64231 0.0
N520 N 0.62003 0.49228 0.60435 0.0
N521 N 0.57179 0.50698 0.74017 0.0
C522 C 0.60361 0.49145 0.63646 0.0
C523 C 0.5799 0.49978 0.70628 0.0
N524 N 0.63416 0.4499 0.65784 0.0
N525 N 0.53705 0.52891 0.68313 0.0
H526 H 0.58048 0.4958 0.76178 0.0
H527 H 0.55861 0.52573 0.747 0.0
H528 H 0.52466 0.53885 0.66312 0.0
H529 H 0.5239 0.52869 0.70721 0.0
H530 H 0.63935 0.44191 0.63266 0.0
H531 H 0.64419 0.43733 0.67755 0.0
H532 H 0.64141 0.48136 0.59906 0.0
H533 H 0.61485 0.507 0.58384 0.0
C534 C 0.95333 0.62321 0.16496 0.0
C535 C 0.96372 0.61591 0.19916 0.0
C536 C 1.00072 0.57992 0.17167 0.0
C537 C 0.98739 0.58437 0.13786 0.0
N538 N 0.94697 0.60703 0.10341 0.0
N539 N 0.99495 0.58457 0.23527 0.0
C540 C 0.96278 0.60538 0.13482 0.0
C541 C 0.98673 0.59344 0.20249 0.0
N542 N 0.93445 0.64742 0.16116 0.0
N543 N 0.02783 0.56372 0.17427 0.0
H544 H 0.98642 0.59476 0.25821 0.0
H545 H 1.00804 0.56548 0.23986 0.0
H546 H 0.03904 0.554 0.15252 0.0
H547 H 0.04138 0.56252 0.19733 0.0
H548 H 0.92969 0.65693 0.13693 0.0
H549 H 0.92549 0.65971 0.18244 0.0
H550 H 0.92643 0.61924 0.09992 0.0
H551 H 0.95227 0.59348 0.08144 0.0
C552 C 0.47458 0.17711 0.11772 0.0
C553 C 0.48077 0.17887 0.15422 0.0
C554 C 0.50482 0.12845 0.1512 0.0
C555 C 0.4964 0.12527 0.11508 0.0
N556 N 0.46806 0.14394 0.06495 0.0
N557 N 0.5084 0.16172 0.20455 0.0
C558 C 0.48018 0.14902 0.09843 0.0
C559 C 0.49792 0.15612 0.17061 0.0
N560 N 0.46372 0.20258 0.10144 0.0
N561 N 0.51704 0.10374 0.16745 0.0
H562 H 0.50384 0.182 0.21913 0.0
H563 H 0.52397 0.14815 0.21746 0.0
H564 H 0.5215 0.08263 0.15438 0.0
H565 H 0.52047 0.10262 0.19438 0.0
H566 H 0.46343 0.20522 0.07429 0.0
H567 H 0.4579 0.22293 0.11492 0.0
H568 H 0.45293 0.15853 0.0529 0.0
H569 H 0.46957 0.12318 0.05001 0.0
C570 C 0.16322 1.00051 0.5571 0.0
C571 C 0.14919 0.97614 0.58235 0.0
C572 C 0.10281 1.00539 0.59772 0.0
C573 C 0.11238 1.02511 0.56772 0.0
N574 N 0.15792 0.05168 0.52865 0.0
N575 N 0.10556 0.95417 0.6265 0.0
C576 C 0.14475 1.02586 0.55041 0.0
C577 C 0.11926 0.97847 0.6031 0.0
N578 N 0.19319 0.99845 0.53871 0.0
N579 N 0.07972 1.01352 0.62188 0.0
H580 H 0.11709 0.93399 0.6313 0.0
H581 H 0.08138 0.95279 0.63916 0.0
H582 H 0.06975 1.03496 0.61985 0.0
H583 H 0.07402 1.00147 0.64584 0.0
H584 H 0.20284 1.01332 0.51741 0.0
H585 H 0.20816 0.98089 0.54399 0.0
H586 H 0.18248 0.05541 0.5165 0.0
H587 H 0.14505 0.07126 0.5253 0.0
C588 C 0.86494 0.48118 1.00456 0.0
C589 C 0.86668 0.46566 0.97118 0.0
C590 C 0.93103 0.48357 0.97116 0.0
C591 C 0.92952 0.49628 1.0059 0.0
N592 N 0.89526 0.50457 0.05714 0.0
N593 N 0.90199 0.44779 0.92511 0.0
C594 C 0.89647 0.4942 1.02303 0.0
C595 C 0.89997 0.46555 0.95529 0.0
N596 N 0.83319 0.48497 1.01787 0.0
N597 N 0.96185 0.49036 0.95243 0.0
H598 H 0.87994 0.43438 0.91273 0.0
H599 H 0.92548 0.44383 0.91416 0.0
H600 H 0.98472 0.50439 0.96261 0.0
H601 H 0.96404 0.48497 0.9258 0.0
H602 H 0.83023 0.4993 1.03993 0.0
H603 H 0.80969 0.47581 1.0053 0.0
H604 H 0.87245 0.5008 0.07251 0.0
H605 H 0.91768 0.5148 0.07104 0.0
C606 C 0.68148 0.64053 0.50966 0.0
C607 C 0.69238 0.62845 0.47691 0.0
C608 C 0.63486 0.5896 0.4753 0.0
C609 C 0.62715 0.59828 0.51019 0.0
N610 N 0.64639 0.62857 0.5629 0.0
N611 N 0.66751 0.60667 0.42193 0.0
C612 C 0.6518 0.62227 0.52819 0.0
C613 C 0.66589 0.60667 0.45781 0.0
N614 N 0.69335 0.67264 0.51902 0.0
N615 N 0.61217 0.5653 0.45841 0.0
H616 H 0.68609 0.62363 0.40791 0.0
H617 H 0.64782 0.59368 0.40617 0.0
H618 H 0.58793 0.5546 0.46922 0.0
H619 H 0.61848 0.55445 0.43496 0.0
H620 H 0.68518 0.68309 0.54194 0.0
H621 H 0.70366 0.69015 0.50009 0.0
H622 H 0.66512 0.64406 0.57785 0.0
H623 H 0.62485 0.61586 0.57725 0.0
C624 C 0.22041 0.40724 0.15986 0.0
C625 C 0.24455 0.42665 0.18292 0.0
C626 C 0.21409 0.47291 0.17718 0.0
C627 C 0.18853 0.45255 0.15628 0.0
N628 N 0.16415 0.39898 0.13177 0.0
N629 N 0.26347 0.47667 0.21617 0.0
C630 C 0.19077 0.4193 0.14885 0.0
C631 C 0.24114 0.4592 0.19233 0.0
N632 N 0.2267 0.37787 0.14707 0.0
N633 N 0.21286 0.50551 0.18179 0.0
H634 H 0.28367 0.46738 0.22735 0.0
H635 H 0.26075 0.49935 0.22673 0.0
H636 H 0.19294 0.51598 0.17172 0.0
H637 H 0.23247 0.52271 0.19362 0.0
H638 H 0.21252 0.36455 0.12692 0.0
H639 H 0.24804 0.36796 0.15435 0.0
H640 H 0.16218 0.37357 0.12929 0.0
H641 H 0.14233 0.40696 0.12245 0.0
C642 C 0.60841 0.19041 0.99396 0.0
C643 C 0.60012 0.19648 0.95877 0.0
C644 C 0.56095 0.14176 0.95615 0.0
C645 C 0.57034 0.13509 0.99076 0.0
N646 N 0.60534 0.15144 1.04171 0.0
N647 N 0.57325 0.17615 0.9043 0.0
C648 C 0.59507 0.15886 1.00921 0.0
C649 C 0.57774 0.1716 0.93929 0.0
N650 N 0.62729 0.21553 1.01352 0.0
N651 N 0.5349 0.12007 0.93985 0.0
H652 H 0.58499 0.19765 0.89107 0.0
H653 H 0.56034 0.15771 0.88768 0.0
H654 H 0.52347 0.09713 0.95037 0.0
H655 H 0.5232 0.12547 0.91688 0.0
H656 H 0.63106 0.2141 1.04039 0.0
H657 H 0.63718 0.23901 1.00347 0.0
H658 H 0.62652 0.16543 0.05479 0.0
H659 H 0.59358 0.13007 0.0549 0.0
C660 C 0.98751 0.91494 0.44884 0.0
C661 C 0.96153 0.8921 0.46753 0.0
C662 C 0.95829 0.93506 0.51199 0.0
C663 C 0.98737 0.95632 0.49585 0.0
N664 N 0.03359 0.96394 0.45176 0.0
N665 N 0.92726 0.87875 0.52081 0.0
C666 C 1.00302 0.94562 0.46494 0.0
C667 C 0.94835 0.90171 0.50023 0.0
N668 N 0.9966 0.90786 0.41521 0.0
N669 N 0.93903 0.94705 0.53756 0.0
H670 H 0.91985 0.85397 0.51351 0.0
H671 H 0.92 0.88365 0.54651 0.0
H672 H 0.94438 0.97165 0.54591 0.0
H673 H 0.91553 0.93355 0.5477 0.0
H674 H 1.0126 0.92497 0.39901 0.0
H675 H 0.98555 0.88596 0.40232 0.0
H676 H 0.04813 0.95558 0.43162 0.0
H677 H 0.04619 0.98612 0.46308 0.0
C678 C 0.37481 0.7267 0.55482 0.0
C679 C 0.38157 0.75753 0.57226 0.0
C680 C 0.44068 0.75202 0.58568 0.0
C681 C 0.4337 0.72031 0.56973 0.0
N682 N 0.39877 0.68101 0.53108 0.0
N683 N 0.42344 0.80473 0.5925 0.0
C684 C 0.40227 0.70893 0.55127 0.0
C685 C 0.41567 0.7721 0.5831 0.0
N686 N 0.34184 0.71393 0.5435 0.0
N687 N 0.46948 0.76179 0.60603 0.0
H688 H 0.40523 0.81998 0.59132 0.0
H689 H 0.44873 0.81731 0.59791 0.0
H690 H 0.4885 0.74771 0.60938 0.0
H691 H 0.47317 0.78283 0.62193 0.0
H692 H 0.33401 0.68992 0.53399 0.0
H693 H 0.32191 0.72741 0.5448 0.0
H694 H 0.37749 0.67263 0.51502 0.0
H695 H 0.4188 0.66777 0.52824 0.0
C696 C 0.81474 0.86901 0.65691 0.0
C697 C 0.80165 0.87515 0.69074 0.0
C698 C 0.84804 0.92363 0.69865 0.0
C699 C 0.86109 0.91773 0.66474 0.0
N700 N 0.85656 0.88827 0.60962 0.0
N701 N 0.7999 0.91194 0.74036 0.0
C702 C 0.8442 0.89147 0.64311 0.0
C703 C 0.81648 0.90362 0.71057 0.0
N704 N 0.79916 0.84154 0.63853 0.0
N705 N 0.86674 0.94727 0.72017 0.0
H706 H 0.77681 0.8977 0.75058 0.0
H707 H 0.80724 0.93448 0.75338 0.0
H708 H 0.88996 0.96305 0.71246 0.0
H709 H 0.86082 0.94969 0.74673 0.0
H710 H 0.80838 0.83418 0.61456 0.0
H711 H 0.77712 0.82508 0.64797 0.0
H712 H 0.84478 0.87072 0.59153 0.0
H713 H 0.87817 0.90455 0.59905 0.0
C714 C 0.65025 0.14346 0.28606 0.0
C715 C 0.68602 0.14112 0.28581 0.0
C716 C 0.67865 0.106 0.23416 0.0
C717 C 0.64437 0.11263 0.23167 0.0
N718 N 0.59719 0.13764 0.25281 0.0
N719 N 0.7336 0.1164 0.26527 0.0
C720 C 0.62974 0.13086 0.25725 0.0
C721 C 0.70003 0.12087 0.26172 0.0
N722 N 0.63608 0.15742 0.31413 0.0
N723 N 0.69098 0.08703 0.20903 0.0
H724 H 0.74992 0.12769 0.28512 0.0
H725 H 0.7454 0.10086 0.24964 0.0
H726 H 0.67564 0.07491 0.18891 0.0
H727 H 0.71638 0.08299 0.20751 0.0
H728 H 0.60948 0.15725 0.31718 0.0
H729 H 0.65043 0.16656 0.33617 0.0
H730 H 0.58694 0.15449 0.2682 0.0
H731 H 0.58099 0.12771 0.23226 0.0
C732 C 0.47831 0.65266 0.43159 0.0
C733 C 0.45626 0.6339 0.40623 0.0
C734 C 0.45992 0.58309 0.43913 0.0
C735 C 0.48457 0.60152 0.46274 0.0
N736 N 0.52185 0.65397 0.47645 0.0
N737 N 0.43074 0.58033 0.3829 0.0
C738 C 0.49489 0.63636 0.45759 0.0
C739 C 0.44836 0.59886 0.40928 0.0
N740 N 0.48258 0.68631 0.43172 0.0
N741 N 0.44626 0.55063 0.44593 0.0
H742 H 0.42195 0.59075 0.36082 0.0
H743 H 0.42755 0.55473 0.38134 0.0
H744 H 0.45418 0.53809 0.4669 0.0
H745 H 0.42506 0.53694 0.4326 0.0
H746 H 0.49481 0.70127 0.45187 0.0
H747 H 0.47109 0.69913 0.41332 0.0
H748 H 0.53359 0.67838 0.47097 0.0
H749 H 0.53466 0.6434 0.49557 0.0
C750 C 0.11098 0.52504 0.90139 0.0
C751 C 0.0975 0.49117 0.8943 0.0
C752 C 0.06121 0.48898 0.9491 0.0
C753 C 0.07551 0.52316 0.95666 0.0
N754 N 0.12602 0.5669 0.94623 0.0
N755 N 0.06491 0.43915 0.91533 0.0
C756 C 0.10377 0.53925 0.93451 0.0
C757 C 0.07386 0.47273 0.91918 0.0
N758 N 0.13047 0.54416 0.8762 0.0
N759 N 0.03614 0.47133 0.9707 0.0
H760 H 0.07358 0.42649 0.89419 0.0
H761 H 0.05128 0.42341 0.93431 0.0
H762 H 0.03139 0.47859 0.99619 0.0
H763 H 1.02004 0.44914 0.96329 0.0
H764 H 0.13779 0.56978 0.87844 0.0
H765 H 0.13628 0.5349 0.85168 0.0
H766 H 0.14848 0.57812 0.93232 0.0
H767 H 0.1254 0.57542 0.97202 0.0
C768 C 0.59482 0.96014 0.92676 0.0
C769 C 0.57691 0.9272 0.9329 0.0
C770 C 0.53871 0.94639 0.97707 0.0
C771 C 0.55747 0.97942 0.97179 0.0
N772 N 0.59901 1.01877 0.93813 0.0
N773 N 0.53321 0.88791 0.96399 0.0
C774 C 0.5844 0.98656 0.94569 0.0
C775 C 0.54881 0.92015 0.95768 0.0
N776 N 0.623 0.96585 0.90408 0.0
N777 N 0.51118 0.93998 1.00057 0.0
H778 H 0.53807 0.86835 0.94842 0.0
H779 H 0.51649 0.88 0.98517 0.0
H780 H 0.50444 0.95736 1.01782 0.0
H781 H 0.49373 0.91746 1.00262 0.0
H782 H 0.64019 0.98848 0.90141 0.0
H783 H 0.63039 0.94731 0.88869 0.0
H784 H 0.61654 1.02612 0.91743 0.0
H785 H 0.59153 1.03878 0.95084 0.0
C786 C 0.92614 0.14185 0.55149 0.0
C787 C 0.92682 0.14834 0.51557 0.0
C788 C 0.95673 0.10392 0.50151 0.0
C789 C 0.95388 0.09464 0.53768 0.0
N790 N 0.94067 0.10925 0.59847 0.0
N791 N 0.95452 0.14702 0.45927 0.0
C792 C 0.94029 0.1151 0.56319 0.0
C793 C 0.94703 0.13362 0.49185 0.0
N794 N 0.91307 0.16241 0.57416 0.0
N795 N 0.96447 0.08306 0.4758 0.0
H796 H 0.94635 0.16851 0.45195 0.0
H797 H 0.9717 0.13907 0.44141 0.0
H798 H 0.96717 0.059 0.48019 0.0
H799 H 0.96394 0.08809 0.44908 0.0
H800 H 0.91391 0.16131 0.6014 0.0
H801 H 0.90345 0.1826 0.56521 0.0
H802 H 0.92341 0.1166 0.61659 0.0
H803 H 0.96088 0.10076 0.61047 0.0
C804 C 0.19057 0.62284 0.09891 0.0
C805 C 0.1876 0.64507 0.1271 0.0
C806 C 0.12406 0.6378 0.11638 0.0
C807 C 0.12704 0.61573 0.08795 0.0
N808 N 0.16232 0.58511 0.05368 0.0
N809 N 0.1526 0.67655 0.16055 0.0
C810 C 0.16017 0.60778 0.07966 0.0
C811 C 0.15463 0.65342 0.13508 0.0
N812 N 0.22296 0.61723 0.08966 0.0
N813 N 0.09156 0.64187 0.12732 0.0
H814 H 0.17369 0.68693 0.17618 0.0
H815 H 0.13081 0.68707 0.16496 0.0
H816 H 0.06861 0.63103 0.11471 0.0
H817 H 0.0867 0.654 0.15039 0.0
H818 H 0.22821 0.60375 0.06773 0.0
H819 H 0.24567 0.62786 0.10287 0.0
H820 H 0.18396 0.57451 0.0489 0.0
H821 H 0.14162 0.5758 1.03714 0.0
C822 C 0.36502 0.50114 0.5838 0.0
C823 C 0.36459 0.48467 0.61629 0.0
C824 C 0.42914 0.49764 0.61651 0.0
C825 C 0.42995 0.51272 0.5826 0.0
N826 N 0.39766 0.52661 0.53315 0.0
N827 N 0.39538 0.46398 0.66228 0.0
C828 C 0.39756 0.51364 0.56606 0.0
C829 C 0.39642 0.48242 0.63244 0.0
N830 N 0.33418 0.50627 0.57064 0.0
N831 N 0.45942 0.49705 0.63369 0.0
H832 H 0.37211 0.45296 0.67504 0.0
H833 H 0.41724 0.45742 0.67316 0.0
H834 H 0.48384 0.49969 0.62155 0.0
H835 H 0.46031 0.49351 0.66068 0.0
H836 H 0.33261 0.52162 0.54947 0.0
H837 H 0.30987 0.49709 0.58248 0.0
H838 H 0.37588 0.52248 0.51713 0.0
H839 H 0.41971 0.54108 0.52133 0.0
C840 C 0.84732 0.68682 0.89016 0.0
C841 C 0.81265 0.6741 0.90234 0.0
C842 C 0.8339 0.63482 0.94029 0.0
C843 C 0.86886 0.64957 0.93039 0.0
N844 N 0.90951 0.69136 0.89857 0.0
N845 N 0.77144 0.633 0.93388 0.0
C846 C 0.87573 0.67561 0.90551 0.0
C847 C 0.80551 0.64713 0.92597 0.0
N848 N 0.85312 0.70969 0.86384 0.0
N849 N 0.8282 0.60961 0.96407 0.0
H850 H 0.75031 0.64107 0.92304 0.0
H851 H 0.76354 0.6124 0.94969 0.0
H852 H 0.84833 0.59909 0.97352 0.0
H853 H 0.80395 0.59913 0.975 0.0
H854 H 0.87692 0.7166 0.8504 0.0
H855 H 0.8335 0.72031 0.85349 0.0
H856 H 0.91632 0.71317 0.88438 0.0
H857 H 0.9312 0.68409 0.90909 0.0
C858 C 0.4404 0.9356 0.13966 0.0
C859 C 0.45387 0.9062 0.13849 0.0
C860 C 0.50219 0.93358 0.10008 0.0
C861 C 0.48791 0.9632 0.0992 0.0
N862 N 0.4369 0.9871 0.1116 0.0
N863 N 0.49346 0.87506 0.11195 0.0
C864 C 0.45516 0.96274 0.11717 0.0
C865 C 0.4836 0.90475 0.11727 0.0
N866 N 0.41385 0.93791 0.1629 0.0
N867 N 0.53399 0.93213 0.08512 0.0
H868 H 0.48074 0.85313 0.12374 0.0
H869 H 0.51226 0.87145 0.09327 0.0
H870 H 0.54384 0.94384 0.06203 0.0
H871 H 0.54934 0.91615 0.09425 0.0
H872 H 0.40564 0.95992 0.16838 0.0
H873 H 0.40197 0.91835 0.17897 0.0
H874 H 0.41179 0.98647 0.12174 0.0
H875 H 0.44428 1.00566 0.09316 0.0
C876 C 0.06009 0.20113 0.62352 0.0
C877 C 0.09699 0.21164 0.62562 0.0
C878 C 0.10458 0.15867 0.5987 0.0
C879 C 0.06762 0.14796 0.59743 0.0
N880 N 1.0113 0.16273 0.59883 0.0
N881 N 0.15465 0.2 0.61772 0.0
C882 C 0.04568 0.17015 0.60753 0.0
C883 C 0.11933 0.19038 0.61352 0.0
N884 N 0.03867 0.22088 0.63685 0.0
N885 N 0.12554 0.13899 0.58431 0.0
H886 H 0.16627 0.22303 0.62791 0.0
H887 H 0.1725 0.18481 0.61303 0.0
H888 H 0.11574 0.11539 0.57439 0.0
H889 H 0.15238 0.14645 0.58018 0.0
H890 H 1.01182 0.21298 0.64077 0.0
H891 H 0.04794 0.24491 0.64585 0.0
H892 H 0.99373 0.17837 0.60267 0.0
H893 H 1.00166 0.14226 0.58344 0.0
C894 C 0.66991 0.35603 0.5529 0.0
C895 C 0.69088 0.35343 0.5226 0.0
C896 C 0.66417 0.39277 0.49127 0.0
C897 C 0.64449 0.39674 0.5221 0.0
N898 N 0.63153 0.38671 0.58363 0.0
N899 N 0.71401 0.37396 0.466 0.0
C900 C 0.64838 0.37986 0.55348 0.0
C901 C 0.68991 0.37332 0.49272 0.0
N902 N 0.66945 0.33477 0.58029 0.0
N903 N 0.65712 0.40631 0.46023 0.0
H904 H 0.73355 0.36006 0.46623 0.0
H905 H 0.71675 0.39053 0.44522 0.0
H906 H 0.63879 0.42134 0.45801 0.0
H907 H 0.66751 0.4006 0.43608 0.0
H908 H 0.65189 0.33301 0.60145 0.0
H909 H 0.68523 0.31721 0.58081 0.0
H910 H 0.63598 0.37768 0.6082 0.0
H911 H 0.61486 0.40354 0.58451 0.0
loop_
_geom_bond_atom_site_label_1
_geom_bond_atom_site_label_2
_geom_bond_distance
_geom_bond_site_symmetry_2
_ccdc_geom_bond_type
C0 C1 1.264 . S
C0 C5 1.479 . S
C0 C10 1.465 . S
C1 C0 1.264 . S
C1 C3 1.339 . S
C1 H28 0.931 . S
C2 C3 1.395 . S
C2 C4 1.320 . S
C3 C1 1.339 . S
C3 C2 1.395 . S
C3 H29 0.929 . S
C4 C2 1.320 . S
C4 C5 1.405 . S
C4 H30 0.930 . S
C5 C0 1.479 . S
C5 C4 1.405 . S
C5 H31 0.931 . S
U6 O7 2.454 . S
U6 O8 2.458 . S
U6 C9 2.984 . S
U6 C10 2.847 . S
U6 C23 2.882 . S
U6 O24 2.441 . S
U6 O25 2.420 . S
U6 O26 2.455 . S
U6 O27 2.449 . S
O7 U6 2.454 . S
O7 C9 1.353 . S
O8 U6 2.458 . S
O8 C9 1.286 . S
C9 U6 2.984 . S
C9 O7 1.353 . S
C9 O8 1.286 . S
C9 C11 1.363 . S
C10 C0 1.465 . S
C10 U6 2.847 . S
C10 O24 1.249 . S
C10 O25 1.202 . S
C11 C9 1.363 . S
C11 C13 1.408 . S
C11 C16 1.342 . S
C12 C13 1.310 . S
C12 C15 1.461 . S
C12 H32 0.932 . S
C13 C11 1.408 . S
C13 C12 1.310 . S
C13 H33 0.930 . S
C14 C15 1.474 . S
C14 C16 1.285 . S
C14 H34 0.929 . S
C15 C12 1.461 . S
C15 C14 1.474 . S
C16 C11 1.342 . S
C16 C14 1.285 . S
C16 H35 0.930 . S
C17 C20 1.424 . S
C17 C22 1.245 . S
C17 C23 1.428 . S
C18 C21 1.260 . S
C18 C22 1.477 . S
C18 H36 0.932 . S
C19 C20 1.384 . S
C19 C21 1.479 . S
C19 H37 0.929 . S
C20 C17 1.424 . S
C20 C19 1.384 . S
C20 H38 0.928 . S
C21 C18 1.260 . S
C21 C19 1.479 . S
C22 C17 1.245 . S
C22 C18 1.477 . S
C22 H39 0.932 . S
C23 U6 2.882 . S
C23 C17 1.428 . S
C23 O26 1.301 . S
C23 O27 1.282 . S
O24 U6 2.441 . S
O24 C10 1.249 . S
O25 U6 2.420 . S
O25 C10 1.202 . S
O26 U6 2.455 . S
O26 C23 1.301 . S
O27 U6 2.449 . S
O27 C23 1.282 . S
H28 C1 0.931 . S
H29 C3 0.929 . S
H30 C4 0.930 . S
H31 C5 0.931 . S
H32 C12 0.932 . S
H33 C13 0.930 . S
H34 C14 0.929 . S
H35 C16 0.930 . S
H36 C18 0.932 . S
H37 C19 0.929 . S
H38 C20 0.928 . S
H39 C22 0.932 . S
C40 C41 1.264 . S
C40 C45 1.479 . S
C40 C50 1.465 . S
C41 C40 1.264 . S
C41 C43 1.339 . S
C41 H68 0.931 . S
C42 C43 1.395 . S
C42 C44 1.320 . S
C43 C41 1.339 . S
C43 C42 1.395 . S
C43 H69 0.929 . S
C44 C42 1.320 . S
C44 C45 1.405 . S
C44 H70 0.930 . S
C45 C40 1.479 . S
C45 C44 1.405 . S
C45 H71 0.931 . S
U46 O47 2.454 . S
U46 O48 2.458 . S
U46 C49 2.984 . S
U46 C50 2.847 . S
U46 C63 2.882 . S
U46 O64 2.441 . S
U46 O65 2.420 . S
U46 O66 2.455 . S
U46 O67 2.449 . S
O47 U46 2.454 . S
O47 C49 1.353 . S
O48 U46 2.458 . S
O48 C49 1.286 . S
C49 U46 2.984 . S
C49 O47 1.353 . S
C49 O48 1.286 . S
C49 C51 1.363 . S
C50 C40 1.465 . S
C50 U46 2.847 . S
C50 O64 1.249 . S
C50 O65 1.202 . S
C51 C49 1.363 . S
C51 C53 1.408 . S
C51 C56 1.342 . S
C52 C53 1.310 . S
C52 C55 1.461 . S
C52 H72 0.932 . S
C53 C51 1.408 . S
C53 C52 1.310 . S
C53 H73 0.930 . S
C54 C55 1.474 . S
C54 C56 1.285 . S
C54 H74 0.929 . S
C55 C52 1.461 . S
C55 C54 1.474 . S
C56 C51 1.342 . S
C56 C54 1.285 . S
C56 H75 0.930 . S
C57 C60 1.424 . S
C57 C62 1.245 . S
C57 C63 1.428 . S
C58 C61 1.260 . S
C58 C62 1.477 . S
C58 H76 0.932 . S
C59 C60 1.384 . S
C59 C61 1.479 . S
C59 H77 0.929 . S
C60 C57 1.424 . S
C60 C59 1.384 . S
C60 H78 0.928 . S
C61 C58 1.260 . S
C61 C59 1.479 . S
C62 C57 1.245 . S
C62 C58 1.477 . S
C62 H79 0.932 . S
C63 U46 2.882 . S
C63 C57 1.428 . S
C63 O66 1.301 . S
C63 O67 1.282 . S
O64 U46 2.441 . S
O64 C50 1.249 . S
O65 U46 2.420 . S
O65 C50 1.202 . S
O66 U46 2.455 . S
O66 C63 1.301 . S
O67 U46 2.449 . S
O67 C63 1.282 . S
H68 C41 0.931 . S
H69 C43 0.929 . S
H70 C44 0.930 . S
H71 C45 0.931 . S
H72 C52 0.932 . S
H73 C53 0.930 . S
H74 C54 0.929 . S
H75 C56 0.930 . S
H76 C58 0.932 . S
H77 C59 0.929 . S
H78 C60 0.928 . S
H79 C62 0.932 . S
C80 C81 1.264 . S
C80 C85 1.479 . S
C80 C90 1.465 . S
C81 C80 1.264 . S
C81 C83 1.339 . S
C81 H108 0.931 . S
C82 C83 1.395 . S
C82 C84 1.320 . S
C83 C81 1.339 . S
C83 C82 1.395 . S
C83 H109 0.929 . S
C84 C82 1.320 . S
C84 C85 1.405 . S
C84 H110 0.930 . S
C85 C80 1.479 . S
C85 C84 1.405 . S
C85 H111 0.931 . S
U86 O87 2.454 . S
U86 O88 2.458 . S
U86 C89 2.984 . S
U86 C90 2.847 . S
U86 C103 2.882 . S
U86 O104 2.441 . S
U86 O105 2.420 . S
U86 O106 2.455 . S
U86 O107 2.449 . S
O87 U86 2.454 . S
O87 C89 1.353 . S
O88 U86 2.458 . S
O88 C89 1.286 . S
C89 U86 2.984 . S
C89 O87 1.353 . S
C89 O88 1.286 . S
C89 C91 1.363 . S
C90 C80 1.465 . S
C90 U86 2.847 . S
C90 O104 1.249 . S
C90 O105 1.202 . S
C91 C89 1.363 . S
C91 C93 1.408 . S
C91 C96 1.342 . S
C92 C93 1.310 . S
C92 C95 1.461 . S
C92 H112 0.932 . S
C93 C91 1.408 . S
C93 C92 1.310 . S
C93 H113 0.930 . S
C94 C95 1.474 . S
C94 C96 1.285 . S
C94 H114 0.929 . S
C95 C92 1.461 . S
C95 C94 1.474 . S
C96 C91 1.342 . S
C96 C94 1.285 . S
C96 H115 0.930 . S
C97 C100 1.424 . S
C97 C102 1.245 . S
C97 C103 1.428 . S
C98 C101 1.260 . S
C98 C102 1.477 . S
C98 H116 0.932 . S
C99 C100 1.384 . S
C99 C101 1.479 . S
C99 H117 0.929 . S
C100 C97 1.424 . S
C100 C99 1.384 . S
C100 H118 0.928 . S
C101 C98 1.260 . S
C101 C99 1.479 . S
C102 C97 1.245 . S
C102 C98 1.477 . S
C102 H119 0.932 . S
C103 U86 2.882 . S
C103 C97 1.428 . S
C103 O106 1.301 . S
C103 O107 1.282 . S
O104 U86 2.441 . S
O104 C90 1.249 . S
O105 U86 2.420 . S
O105 C90 1.202 . S
O106 U86 2.455 . S
O106 C103 1.301 . S
O107 U86 2.449 . S
O107 C103 1.282 . S
H108 C81 0.931 . S
H109 C83 0.929 . S
H110 C84 0.930 . S
H111 C85 0.931 . S
H112 C92 0.932 . S
H113 C93 0.930 . S
H114 C94 0.929 . S
H115 C96 0.930 . S
H116 C98 0.932 . S
H117 C99 0.929 . S
H118 C100 0.928 . S
H119 C102 0.932 . S
C120 C121 1.264 . S
C120 C125 1.479 . S
C120 C130 1.465 . S
C121 C120 1.264 . S
C121 C123 1.339 . S
C121 H148 0.931 . S
C122 C123 1.395 . S
C122 C124 1.320 . S
C123 C121 1.339 . S
C123 C122 1.395 . S
C123 H149 0.929 . S
C124 C122 1.320 . S
C124 C125 1.405 . S
C124 H150 0.930 . S
C125 C120 1.479 . S
C125 C124 1.405 . S
C125 H151 0.931 . S
U126 O127 2.454 . S
U126 O128 2.458 . S
U126 C129 2.984 . S
U126 C130 2.847 . S
U126 C143 2.882 . S
U126 O144 2.441 . S
U126 O145 2.420 . S
U126 O146 2.455 . S
U126 O147 2.449 . S
O127 U126 2.454 . S
O127 C129 1.353 . S
O128 U126 2.458 . S
O128 C129 1.286 . S
C129 U126 2.984 . S
C129 O127 1.353 . S
C129 O128 1.286 . S
C129 C131 1.363 . S
C130 C120 1.465 . S
C130 U126 2.847 . S
C130 O144 1.249 . S
C130 O145 1.202 . S
C131 C129 1.363 . S
C131 C133 1.408 . S
C131 C136 1.342 . S
C132 C133 1.310 . S
C132 C135 1.461 . S
C132 H152 0.932 . S
C133 C131 1.408 . S
C133 C132 1.310 . S
C133 H153 0.930 . S
C134 C135 1.474 . S
C134 C136 1.285 . S
C134 H154 0.929 . S
C135 C132 1.461 . S
C135 C134 1.474 . S
C136 C131 1.342 . S
C136 C134 1.285 . S
C136 H155 0.930 . S
C137 C140 1.424 . S
C137 C142 1.245 . S
C137 C143 1.428 . S
C138 C141 1.260 . S
C138 C142 1.477 . S
C138 H156 0.932 . S
C139 C140 1.384 . S
C139 C141 1.479 . S
C139 H157 0.929 . S
C140 C137 1.424 . S
C140 C139 1.384 . S
C140 H158 0.928 . S
C141 C138 1.260 . S
C141 C139 1.479 . S
C142 C137 1.245 . S
C142 C138 1.477 . S
C142 H159 0.932 . S
C143 U126 2.882 . S
C143 C137 1.428 . S
C143 O146 1.301 . S
C143 O147 1.282 . S
O144 U126 2.441 . S
O144 C130 1.249 . S
O145 U126 2.420 . S
O145 C130 1.202 . S
O146 U126 2.455 . S
O146 C143 1.301 . S
O147 U126 2.449 . S
O147 C143 1.282 . S
H148 C121 0.931 . S
H149 C123 0.929 . S
H150 C124 0.930 . S
H151 C125 0.931 . S
H152 C132 0.932 . S
H153 C133 0.930 . S
H154 C134 0.929 . S
H155 C136 0.930 . S
H156 C138 0.932 . S
H157 C139 0.929 . S
H158 C140 0.928 . S
H159 C142 0.932 . S
C160 C161 1.264 . S
C160 C165 1.479 . S
C160 C170 1.465 . S
C161 C160 1.264 . S
C161 C163 1.339 . S
C161 H188 0.931 . S
C162 C163 1.395 . S
C162 C164 1.320 . S
C163 C161 1.339 . S
C163 C162 1.395 . S
C163 H189 0.929 . S
C164 C162 1.320 . S
C164 C165 1.405 . S
C164 H190 0.930 . S
C165 C160 1.479 . S
C165 C164 1.405 . S
C165 H191 0.931 . S
U166 O167 2.454 . S
U166 O168 2.458 . S
U166 C169 2.984 . S
U166 C170 2.847 . S
U166 C183 2.882 . S
U166 O184 2.441 . S
U166 O185 2.420 . S
U166 O186 2.455 . S
U166 O187 2.449 . S
O167 U166 2.454 . S
O167 C169 1.353 . S
O168 U166 2.458 . S
O168 C169 1.286 . S
C169 U166 2.984 . S
C169 O167 1.353 . S
C169 O168 1.286 . S
C169 C171 1.363 . S
C170 C160 1.465 . S
C170 U166 2.847 . S
C170 O184 1.249 . S
C170 O185 1.202 . S
C171 C169 1.363 . S
C171 C173 1.408 . S
C171 C176 1.342 . S
C172 C173 1.310 . S
C172 C175 1.461 . S
C172 H192 0.932 . S
C173 C171 1.408 . S
C173 C172 1.310 . S
C173 H193 0.930 . S
C174 C175 1.474 . S
C174 C176 1.285 . S
C174 H194 0.929 . S
C175 C172 1.461 . S
C175 C174 1.474 . S
C176 C171 1.342 . S
C176 C174 1.285 . S
C176 H195 0.930 . S
C177 C180 1.424 . S
C177 C182 1.245 . S
C177 C183 1.428 . S
C178 C181 1.260 . S
C178 C182 1.477 . S
C178 H196 0.932 . S
C179 C180 1.384 . S
C179 C181 1.479 . S
C179 H197 0.929 . S
C180 C177 1.424 . S
C180 C179 1.384 . S
C180 H198 0.928 . S
C181 C178 1.260 . S
C181 C179 1.479 . S
C182 C177 1.245 . S
C182 C178 1.477 . S
C182 H199 0.932 . S
C183 U166 2.882 . S
C183 C177 1.428 . S
C183 O186 1.301 . S
C183 O187 1.282 . S
O184 U166 2.441 . S
O184 C170 1.249 . S
O185 U166 2.420 . S
O185 C170 1.202 . S
O186 U166 2.455 . S
O186 C183 1.301 . S
O187 U166 2.449 . S
O187 C183 1.282 . S
H188 C161 0.931 . S
H189 C163 0.929 . S
H190 C164 0.930 . S
H191 C165 0.931 . S
H192 C172 0.932 . S
H193 C173 0.930 . S
H194 C174 0.929 . S
H195 C176 0.930 . S
H196 C178 0.932 . S
H197 C179 0.929 . S
H198 C180 0.928 . S
H199 C182 0.932 . S
C200 C201 1.264 . S
C200 C205 1.479 . S
C200 C210 1.465 . S
C201 C200 1.264 . S
C201 C203 1.339 . S
C201 H228 0.931 . S
C202 C203 1.395 . S
C202 C204 1.320 . S
C203 C201 1.339 . S
C203 C202 1.395 . S
C203 H229 0.929 . S
C204 C202 1.320 . S
C204 C205 1.405 . S
C204 H230 0.930 . S
C205 C200 1.479 . S
C205 C204 1.405 . S
C205 H231 0.931 . S
U206 O207 2.454 . S
U206 O208 2.458 . S
U206 C209 2.984 . S
U206 C210 2.847 . S
U206 C223 2.882 . S
U206 O224 2.441 . S
U206 O225 2.420 . S
U206 O226 2.455 . S
U206 O227 2.449 . S
O207 U206 2.454 . S
O207 C209 1.353 . S
O208 U206 2.458 . S
O208 C209 1.286 . S
C209 U206 2.984 . S
C209 O207 1.353 . S
C209 O208 1.286 . S
C209 C211 1.363 . S
C210 C200 1.465 . S
C210 U206 2.847 . S
C210 O224 1.249 . S
C210 O225 1.202 . S
C211 C209 1.363 . S
C211 C213 1.408 . S
C211 C216 1.342 . S
C212 C213 1.310 . S
C212 C215 1.461 . S
C212 H232 0.932 . S
C213 C211 1.408 . S
C213 C212 1.310 . S
C213 H233 0.930 . S
C214 C215 1.474 . S
C214 C216 1.285 . S
C214 H234 0.929 . S
C215 C212 1.461 . S
C215 C214 1.474 . S
C216 C211 1.342 . S
C216 C214 1.285 . S
C216 H235 0.930 . S
C217 C220 1.424 . S
C217 C222 1.245 . S
C217 C223 1.428 . S
C218 C221 1.260 . S
C218 C222 1.477 . S
C218 H236 0.932 . S
C219 C220 1.384 . S
C219 C221 1.479 . S
C219 H237 0.929 . S
C220 C217 1.424 . S
C220 C219 1.384 . S
C220 H238 0.928 . S
C221 C218 1.260 . S
C221 C219 1.479 . S
C222 C217 1.245 . S
C222 C218 1.477 . S
C222 H239 0.932 . S
C223 U206 2.882 . S
C223 C217 1.428 . S
C223 O226 1.301 . S
C223 O227 1.282 . S
O224 U206 2.441 . S
O224 C210 1.249 . S
O225 U206 2.420 . S
O225 C210 1.202 . S
O226 U206 2.455 . S
O226 C223 1.301 . S
O227 U206 2.449 . S
O227 C223 1.282 . S
H228 C201 0.931 . S
H229 C203 0.929 . S
H230 C204 0.930 . S
H231 C205 0.931 . S
H232 C212 0.932 . S
H233 C213 0.930 . S
H234 C214 0.929 . S
H235 C216 0.930 . S
H236 C218 0.932 . S
H237 C219 0.929 . S
H238 C220 0.928 . S
H239 C222 0.932 . S
C240 C241 1.264 . S
C240 C245 1.479 . S
C240 C250 1.465 . S
C241 C240 1.264 . S
C241 C243 1.339 . S
C241 H268 0.931 . S
C242 C243 1.395 . S
C242 C244 1.320 . S
C243 C241 1.339 . S
C243 C242 1.395 . S
C243 H269 0.929 . S
C244 C242 1.320 . S
C244 C245 1.405 . S
C244 H270 0.930 . S
C245 C240 1.479 . S
C245 C244 1.405 . S
C245 H271 0.931 . S
U246 O247 2.454 . S
U246 O248 2.458 . S
U246 C249 2.984 . S
U246 C250 2.847 . S
U246 C263 2.882 . S
U246 O264 2.441 . S
U246 O265 2.420 . S
U246 O266 2.455 . S
U246 O267 2.449 . S
O247 U246 2.454 . S
O247 C249 1.353 . S
O248 U246 2.458 . S
O248 C249 1.286 . S
C249 U246 2.984 . S
C249 O247 1.353 . S
C249 O248 1.286 . S
C249 C251 1.363 . S
C250 C240 1.465 . S
C250 U246 2.847 . S
C250 O264 1.249 . S
C250 O265 1.202 . S
C251 C249 1.363 . S
C251 C253 1.408 . S
C251 C256 1.342 . S
C252 C253 1.310 . S
C252 C255 1.461 . S
C252 H272 0.932 . S
C253 C251 1.408 . S
C253 C252 1.310 . S
C253 H273 0.930 . S
C254 C255 1.474 . S
C254 C256 1.285 . S
C254 H274 0.929 . S
C255 C252 1.461 . S
C255 C254 1.474 . S
C256 C251 1.342 . S
C256 C254 1.285 . S
C256 H275 0.930 . S
C257 C260 1.424 . S
C257 C262 1.245 . S
C257 C263 1.428 . S
C258 C261 1.260 . S
C258 C262 1.477 . S
C258 H276 0.932 . S
C259 C260 1.384 . S
C259 C261 1.479 . S
C259 H277 0.929 . S
C260 C257 1.424 . S
C260 C259 1.384 . S
C260 H278 0.928 . S
C261 C258 1.260 . S
C261 C259 1.479 . S
C262 C257 1.245 . S
C262 C258 1.477 . S
C262 H279 0.932 . S
C263 U246 2.882 . S
C263 C257 1.428 . S
C263 O266 1.301 . S
C263 O267 1.282 . S
O264 U246 2.441 . S
O264 C250 1.249 . S
O265 U246 2.420 . S
O265 C250 1.202 . S
O266 U246 2.455 . S
O266 C263 1.301 . S
O267 U246 2.449 . S
O267 C263 1.282 . S
H268 C241 0.931 . S
H269 C243 0.929 . S
H270 C244 0.930 . S
H271 C245 0.931 . S
H272 C252 0.932 . S
H273 C253 0.930 . S
H274 C254 0.929 . S
H275 C256 0.930 . S
H276 C258 0.932 . S
H277 C259 0.929 . S
H278 C260 0.928 . S
H279 C262 0.932 . S
C280 C281 1.264 . S
C280 C285 1.479 . S
C280 C290 1.465 . S
C281 C280 1.264 . S
C281 C283 1.339 . S
C281 H308 0.931 . S
C282 C283 1.395 . S
C282 C284 1.320 . S
C283 C281 1.339 . S
C283 C282 1.395 . S
C283 H309 0.929 . S
C284 C282 1.320 . S
C284 C285 1.405 . S
C284 H310 0.930 . S
C285 C280 1.479 . S
C285 C284 1.405 . S
C285 H311 0.931 . S
U286 O287 2.454 . S
U286 O288 2.458 . S
U286 C289 2.984 . S
U286 C290 2.847 . S
U286 C303 2.882 . S
U286 O304 2.441 . S
U286 O305 2.420 . S
U286 O306 2.455 . S
U286 O307 2.449 . S
O287 U286 2.454 . S
O287 C289 1.353 . S
O288 U286 2.458 . S
O288 C289 1.286 . S
C289 U286 2.984 . S
C289 O287 1.353 . S
C289 O288 1.286 . S
C289 C291 1.363 . S
C290 C280 1.465 . S
C290 U286 2.847 . S
C290 O304 1.249 . S
C290 O305 1.202 . S
C291 C289 1.363 . S
C291 C293 1.408 . S
C291 C296 1.342 . S
C292 C293 1.310 . S
C292 C295 1.461 . S
C292 H312 0.932 . S
C293 C291 1.408 . S
C293 C292 1.310 . S
C293 H313 0.930 . S
C294 C295 1.474 . S
C294 C296 1.285 . S
C294 H314 0.929 . S
C295 C292 1.461 . S
C295 C294 1.474 . S
C296 C291 1.342 . S
C296 C294 1.285 . S
C296 H315 0.930 . S
C297 C300 1.424 . S
C297 C302 1.245 . S
C297 C303 1.428 . S
C298 C301 1.260 . S
C298 C302 1.477 . S
C298 H316 0.932 . S
C299 C300 1.384 . S
C299 C301 1.479 . S
C299 H317 0.929 . S
C300 C297 1.424 . S
C300 C299 1.384 . S
C300 H318 0.928 . S
C301 C298 1.260 . S
C301 C299 1.479 . S
C302 C297 1.245 . S
C302 C298 1.477 . S
C302 H319 0.932 . S
C303 U286 2.882 . S
C303 C297 1.428 . S
C303 O306 1.301 . S
C303 O307 1.282 . S
O304 U286 2.441 . S
O304 C290 1.249 . S
O305 U286 2.420 . S
O305 C290 1.202 . S
O306 U286 2.455 . S
O306 C303 1.301 . S
O307 U286 2.449 . S
O307 C303 1.282 . S
H308 C281 0.931 . S
H309 C283 0.929 . S
H310 C284 0.930 . S
H311 C285 0.931 . S
H312 C292 0.932 . S
H313 C293 0.930 . S
H314 C294 0.929 . S
H315 C296 0.930 . S
H316 C298 0.932 . S
H317 C299 0.929 . S
H318 C300 0.928 . S
H319 C302 0.932 . S
Sm320 C322 2.846 . S
Sm320 O340 2.543 . S
Sm320 O341 2.450 . S
Sm320 O342 2.681 1_545 S
Sm320 O343 2.464 1_545 S
Sm320 O344 2.396 . S
Sm320 O348 2.386 1_455 S
Sm320 O351 2.408 1_445 S
Sm321 C331 2.849 . S
Sm321 O342 2.388 1_655 S
Sm321 O345 2.405 1_665 S
Sm321 O346 2.546 . S
Sm321 O347 2.451 . S
Sm321 O348 2.680 1_565 S
Sm321 O349 2.461 1_565 S
Sm321 O350 2.398 . S
C322 Sm320 2.846 . S
C322 C323 1.506 . S
C322 O340 1.261 . S
C322 O341 1.242 . S
C323 C322 1.506 . S
C323 C324 1.358 . S
C323 C328 1.382 . S
C324 C323 1.358 . S
C324 C325 1.385 . S
C324 H352 0.930 . S
C325 C324 1.385 . S
C325 C326 1.395 . S
C325 H353 0.929 . S
C326 C325 1.395 . S
C326 C327 1.335 . S
C327 C326 1.335 . S
C327 C328 1.398 . S
C327 H354 0.930 . S
C328 C323 1.382 . S
C328 C327 1.398 . S
C328 H355 0.929 . S
C329 O342 1.271 . S
C329 O343 1.251 . S
C330 O344 1.252 . S
C330 O345 1.272 . S
C331 Sm321 2.849 . S
C331 C332 1.506 . S
C331 O346 1.261 . S
C331 O347 1.242 . S
C332 C331 1.506 . S
C332 C333 1.358 . S
C332 C337 1.382 . S
C333 C332 1.358 . S
C333 C334 1.385 . S
C333 H356 0.930 . S
C334 C333 1.385 . S
C334 C335 1.395 . S
C334 H357 0.929 . S
C335 C334 1.395 . S
C335 C336 1.335 . S
C336 C335 1.335 . S
C336 C337 1.398 . S
C336 H358 0.930 . S
C337 C332 1.382 . S
C337 C336 1.398 . S
C337 H359 0.929 . S
C338 O348 1.271 . S
C338 O349 1.251 . S
C339 O350 1.252 . S
C339 O351 1.272 . S
O340 Sm320 2.543 . S
O340 C322 1.261 . S
O341 Sm320 2.450 . S
O341 C322 1.242 . S
O342 Sm320 2.681 1_565 S
O342 Sm321 2.388 1_455 S
O342 C329 1.271 . S
O343 Sm320 2.464 1_565 S
O343 C329 1.251 . S
O344 Sm320 2.396 . S
O344 C330 1.252 . S
O345 Sm321 2.405 1_445 S
O345 C330 1.272 . S
O346 Sm321 2.546 . S
O346 C331 1.261 . S
O347 Sm321 2.451 . S
O347 C331 1.242 . S
O348 Sm320 2.386 1_655 S
O348 Sm321 2.680 1_545 S
O348 C338 1.271 . S
O349 Sm321 2.461 1_545 S
O349 C338 1.251 . S
O350 Sm321 2.398 . S
O350 C339 1.252 . S
O351 Sm320 2.408 1_665 S
O351 C339 1.272 . S
H352 C324 0.930 . S
H353 C325 0.929 . S
H354 C327 0.930 . S
H355 C328 0.929 . S
H356 C333 0.930 . S
H357 C334 0.929 . S
H358 C336 0.930 . S
H359 C337 0.929 . S
Sm360 C362 2.847 . S
Sm360 O380 2.545 . S
Sm360 O381 2.450 . S
Sm360 O382 2.680 1_545 S
Sm360 O383 2.461 1_545 S
Sm360 O384 2.397 . S
Sm360 O388 2.388 1_554 S
Sm360 O391 2.406 1_544 S
Sm361 C371 2.846 1_545 S
Sm361 O382 2.386 1_546 S
Sm361 O385 2.408 1_556 S
Sm361 O386 2.543 1_545 S
Sm361 O387 2.450 1_545 S
Sm361 O388 2.681 . S
Sm361 O389 2.464 . S
Sm361 O390 2.396 1_545 S
C362 Sm360 2.847 . S
C362 C363 1.506 . S
C362 O380 1.261 . S
C362 O381 1.242 . S
C363 C362 1.506 . S
C363 C364 1.358 . S
C363 C368 1.382 . S
C364 C363 1.358 . S
C364 C365 1.385 . S
C364 H392 0.930 . S
C365 C364 1.385 . S
C365 C366 1.395 . S
C365 H393 0.929 . S
C366 C365 1.395 . S
C366 C367 1.335 . S
C367 C366 1.335 . S
C367 C368 1.398 . S
C367 H394 0.930 . S
C368 C363 1.382 . S
C368 C367 1.398 . S
C368 H395 0.929 . S
C369 O382 1.271 . S
C369 O383 1.251 . S
C370 O384 1.252 . S
C370 O385 1.272 . S
C371 Sm361 2.846 1_565 S
C371 C372 1.506 . S
C371 O386 1.261 . S
C371 O387 1.242 . S
C372 C371 1.506 . S
C372 C373 1.358 . S
C372 C377 1.382 . S
C373 C372 1.358 . S
C373 C374 1.385 . S
C373 H396 0.930 . S
C374 C373 1.385 . S
C374 C375 1.395 . S
C374 H397 0.929 . S
C375 C374 1.395 . S
C375 C376 1.335 . S
C376 C375 1.335 . S
C376 C377 1.398 . S
C376 H398 0.930 . S
C377 C372 1.382 . S
C377 C376 1.398 . S
C377 H399 0.929 . S
C378 O388 1.271 . S
C378 O389 1.251 . S
C379 O390 1.252 . S
C379 O391 1.272 . S
O380 Sm360 2.545 . S
O380 C362 1.261 . S
O381 Sm360 2.450 . S
O381 C362 1.242 . S
O382 Sm360 2.680 1_565 S
O382 Sm361 2.386 1_564 S
O382 C369 1.271 . S
O383 Sm360 2.461 1_565 S
O383 C369 1.251 . S
O384 Sm360 2.397 . S
O384 C370 1.252 . S
O385 Sm361 2.408 1_554 S
O385 C370 1.272 . S
O386 Sm361 2.543 1_565 S
O386 C371 1.261 . S
O387 Sm361 2.450 1_565 S
O387 C371 1.242 . S
O388 Sm360 2.388 1_556 S
O388 Sm361 2.681 . S
O388 C378 1.271 . S
O389 Sm361 2.464 . S
O389 C378 1.251 . S
O390 Sm361 2.396 1_565 S
O390 C379 1.252 . S
O391 Sm360 2.406 1_566 S
O391 C379 1.272 . S
H392 C364 0.930 . S
H393 C365 0.929 . S
H394 C367 0.930 . S
H395 C368 0.929 . S
H396 C373 0.930 . S
H397 C374 0.929 . S
H398 C376 0.930 . S
H399 C377 0.929 . S
Sm400 C402 2.846 . S
Sm400 O420 2.543 . S
Sm400 O421 2.450 . S
Sm400 O422 2.681 . S
Sm400 O423 2.464 . S
Sm400 O424 2.396 . S
Sm400 O428 2.386 . S
Sm400 O431 2.408 . S
Sm401 C411 2.846 . S
Sm401 O422 2.386 . S
Sm401 O425 2.408 . S
Sm401 O426 2.543 . S
Sm401 O427 2.450 . S
Sm401 O428 2.681 . S
Sm401 O429 2.464 . S
Sm401 O430 2.396 . S
C402 Sm400 2.846 . S
C402 C403 1.506 . S
C402 O420 1.261 . S
C402 O421 1.242 . S
C403 C402 1.506 . S
C403 C404 1.358 . S
C403 C408 1.382 . S
C404 C403 1.358 . S
C404 C405 1.385 . S
C404 H432 0.930 . S
C405 C404 1.385 . S
C405 C406 1.395 . S
C405 H433 0.929 . S
C406 C405 1.395 . S
C406 C407 1.335 . S
C407 C406 1.335 . S
C407 C408 1.398 . S
C407 H434 0.930 . S
C408 C403 1.382 . S
C408 C407 1.398 . S
C408 H435 0.929 . S
C409 O422 1.271 . S
C409 O423 1.251 . S
C410 O424 1.252 . S
C410 O425 1.272 . S
C411 Sm401 2.846 . S
C411 C412 1.506 . S
C411 O426 1.261 . S
C411 O427 1.242 . S
C412 C411 1.506 . S
C412 C413 1.358 . S
C412 C417 1.382 . S
C413 C412 1.358 . S
C413 C414 1.385 . S
C413 H436 0.930 . S
C414 C413 1.385 . S
C414 C415 1.395 . S
C414 H437 0.929 . S
C415 C414 1.395 . S
C415 C416 1.335 . S
C416 C415 1.335 . S
C416 C417 1.398 . S
C416 H438 0.930 . S
C417 C412 1.382 . S
C417 C416 1.398 . S
C417 H439 0.929 . S
C418 O428 1.271 . S
C418 O429 1.251 . S
C419 O430 1.252 . S
C419 O431 1.272 . S
O420 Sm400 2.543 . S
O420 C402 1.261 . S
O421 Sm400 2.450 . S
O421 C402 1.242 . S
O422 Sm400 2.681 . S
O422 Sm401 2.386 . S
O422 C409 1.271 . S
O423 Sm400 2.464 . S
O423 C409 1.251 . S
O424 Sm400 2.396 . S
O424 C410 1.252 . S
O425 Sm401 2.408 . S
O425 C410 1.272 . S
O426 Sm401 2.543 . S
O426 C411 1.261 . S
O427 Sm401 2.450 . S
O427 C411 1.242 . S
O428 Sm400 2.386 . S
O428 Sm401 2.681 . S
O428 C418 1.271 . S
O429 Sm401 2.464 . S
O429 C418 1.251 . S
O430 Sm401 2.396 . S
O430 C419 1.252 . S
O431 Sm400 2.408 . S
O431 C419 1.272 . S
H432 C404 0.930 . S
H433 C405 0.929 . S
H434 C407 0.930 . S
H435 C408 0.929 . S
H436 C413 0.930 . S
H437 C414 0.929 . S
H438 C416 0.930 . S
H439 C417 0.929 . S
Sm440 C442 2.846 . S
Sm440 O460 2.543 . S
Sm440 O461 2.450 . S
Sm440 O462 2.681 1_455 S
Sm440 O463 2.464 1_455 S
Sm440 O464 2.396 . S
Sm440 O468 2.386 1_554 S
Sm440 O471 2.408 1_454 S
Sm441 C451 2.843 . S
Sm441 O462 2.385 1_556 S
Sm441 O465 2.411 1_656 S
Sm441 O466 2.539 . S
Sm441 O467 2.448 . S
Sm441 O468 2.683 1_655 S
Sm441 O469 2.465 1_655 S
Sm441 O470 2.393 . S
C442 Sm440 2.846 . S
C442 C443 1.506 . S
C442 O460 1.261 . S
C442 O461 1.242 . S
C443 C442 1.506 . S
C443 C444 1.358 . S
C443 C448 1.382 . S
C444 C443 1.358 . S
C444 C445 1.385 . S
C444 H472 0.930 . S
C445 C444 1.385 . S
C445 C446 1.395 . S
C445 H473 0.929 . S
C446 C445 1.395 . S
C446 C447 1.335 . S
C447 C446 1.335 . S
C447 C448 1.398 . S
C447 H474 0.930 . S
C448 C443 1.382 . S
C448 C447 1.398 . S
C448 H475 0.929 . S
C449 O462 1.271 . S
C449 O463 1.251 . S
C450 O464 1.252 . S
C450 O465 1.272 . S
C451 Sm441 2.843 . S
C451 C452 1.506 . S
C451 O466 1.261 . S
C451 O467 1.242 . S
C452 C451 1.506 . S
C452 C453 1.358 . S
C452 C457 1.382 . S
C453 C452 1.358 . S
C453 C454 1.385 . S
C453 H476 0.930 . S
C454 C453 1.385 . S
C454 C455 1.395 . S
C454 H477 0.929 . S
C455 C454 1.395 . S
C455 C456 1.335 . S
C456 C455 1.335 . S
C456 C457 1.398 . S
C456 H478 0.930 . S
C457 C452 1.382 . S
C457 C456 1.398 . S
C457 H479 0.929 . S
C458 O468 1.271 . S
C458 O469 1.251 . S
C459 O470 1.252 . S
C459 O471 1.272 . S
O460 Sm440 2.543 . S
O460 C442 1.261 . S
O461 Sm440 2.450 . S
O461 C442 1.242 . S
O462 Sm440 2.681 1_655 S
O462 Sm441 2.385 1_554 S
O462 C449 1.271 . S
O463 Sm440 2.464 1_655 S
O463 C449 1.251 . S
O464 Sm440 2.396 . S
O464 C450 1.252 . S
O465 Sm441 2.411 1_454 S
O465 C450 1.272 . S
O466 Sm441 2.539 . S
O466 C451 1.261 . S
O467 Sm441 2.448 . S
O467 C451 1.242 . S
O468 Sm440 2.386 1_556 S
O468 Sm441 2.683 1_455 S
O468 C458 1.271 . S
O469 Sm441 2.465 1_455 S
O469 C458 1.251 . S
O470 Sm441 2.393 . S
O470 C459 1.252 . S
O471 Sm440 2.408 1_656 S
O471 C459 1.272 . S
H472 C444 0.930 . S
H473 C445 0.929 . S
H474 C447 0.930 . S
H475 C448 0.929 . S
H476 C453 0.930 . S
H477 C454 0.929 . S
H478 C456 0.930 . S
H479 C457 0.929 . S
C480 C481 1.363 . S
C480 C486 1.379 . S
C480 N488 1.356 . S
C481 C480 1.363 . S
C481 C487 1.363 . S
C482 C483 1.363 . S
C482 C487 1.379 . S
C482 N489 1.356 . S
C483 C482 1.363 . S
C483 C486 1.363 . S
N484 C486 1.356 . S
N484 H496 0.984 . S
N484 H497 0.985 . S
N485 C487 1.356 . S
N485 H490 0.984 . S
N485 H491 0.985 . S
C486 C480 1.379 . S
C486 C483 1.363 . S
C486 N484 1.356 . S
C487 C481 1.363 . S
C487 C482 1.379 . S
C487 N485 1.356 . S
N488 C480 1.356 . S
N488 H494 0.984 . S
N488 H495 0.984 . S
N489 C482 1.356 . S
N489 H492 0.984 . S
N489 H493 0.985 . S
H490 N485 0.984 . S
H491 N485 0.985 . S
H492 N489 0.984 . S
H493 N489 0.985 . S
H494 N488 0.984 . S
H495 N488 0.984 . S
H496 N484 0.984 . S
H497 N484 0.985 . S
C498 C499 1.363 . S
C498 C504 1.379 . S
C498 N506 1.356 . S
C499 C498 1.363 . S
C499 C505 1.363 . S
C500 C501 1.363 . S
C500 C505 1.379 . S
C500 N507 1.356 . S
C501 C500 1.363 . S
C501 C504 1.363 . S
N502 C504 1.356 . S
N502 H514 0.984 . S
N502 H515 0.985 . S
N503 C505 1.356 . S
N503 H508 0.984 . S
N503 H509 0.985 . S
C504 C498 1.379 . S
C504 C501 1.363 . S
C504 N502 1.356 . S
C505 C499 1.363 . S
C505 C500 1.379 . S
C505 N503 1.356 . S
N506 C498 1.356 . S
N506 H512 0.984 . S
N506 H513 0.984 . S
N507 C500 1.356 . S
N507 H510 0.984 . S
N507 H511 0.985 . S
H508 N503 0.984 . S
H509 N503 0.985 . S
H510 N507 0.984 . S
H511 N507 0.985 . S
H512 N506 0.984 . S
H513 N506 0.984 . S
H514 N502 0.984 . S
H515 N502 0.985 . S
C516 C517 1.363 . S
C516 C522 1.379 . S
C516 N524 1.356 . S
C517 C516 1.363 . S
C517 C523 1.363 . S
C518 C519 1.363 . S
C518 C523 1.379 . S
C518 N525 1.356 . S
C519 C518 1.363 . S
C519 C522 1.363 . S
N520 C522 1.356 . S
N520 H532 0.984 . S
N520 H533 0.985 . S
N521 C523 1.356 . S
N521 H526 0.984 . S
N521 H527 0.985 . S
C522 C516 1.379 . S
C522 C519 1.363 . S
C522 N520 1.356 . S
C523 C517 1.363 . S
C523 C518 1.379 . S
C523 N521 1.356 . S
N524 C516 1.356 . S
N524 H530 0.984 . S
N524 H531 0.984 . S
N525 C518 1.356 . S
N525 H528 0.984 . S
N525 H529 0.985 . S
H526 N521 0.984 . S
H527 N521 0.985 . S
H528 N525 0.984 . S
H529 N525 0.985 . S
H530 N524 0.984 . S
H531 N524 0.984 . S
H532 N520 0.984 . S
H533 N520 0.985 . S
C534 C535 1.363 . S
C534 C540 1.379 . S
C534 N542 1.356 . S
C535 C534 1.363 . S
C535 C541 1.363 . S
C536 C537 1.363 . S
C536 C541 1.379 . S
C536 N543 1.356 . S
C537 C536 1.363 . S
C537 C540 1.363 . S
N538 C540 1.356 . S
N538 H550 0.984 . S
N538 H551 0.985 . S
N539 C541 1.356 . S
N539 H544 0.984 . S
N539 H545 0.985 . S
C540 C534 1.379 . S
C540 C537 1.363 . S
C540 N538 1.356 . S
C541 C535 1.363 . S
C541 C536 1.379 . S
C541 N539 1.356 . S
N542 C534 1.356 . S
N542 H548 0.984 . S
N542 H549 0.984 . S
N543 C536 1.356 . S
N543 H546 0.984 . S
N543 H547 0.985 . S
H544 N539 0.984 . S
H545 N539 0.985 . S
H546 N543 0.984 . S
H547 N543 0.985 . S
H548 N542 0.984 . S
H549 N542 0.984 . S
H550 N538 0.984 . S
H551 N538 0.985 . S
C552 C553 1.363 . S
C552 C558 1.379 . S
C552 N560 1.356 . S
C553 C552 1.363 . S
C553 C559 1.363 . S
C554 C555 1.363 . S
C554 C559 1.379 . S
C554 N561 1.356 . S
C555 C554 1.363 . S
C555 C558 1.363 . S
N556 C558 1.356 . S
N556 H568 0.984 . S
N556 H569 0.985 . S
N557 C559 1.356 . S
N557 H562 0.984 . S
N557 H563 0.985 . S
C558 C552 1.379 . S
C558 C555 1.363 . S
C558 N556 1.356 . S
C559 C553 1.363 . S
C559 C554 1.379 . S
C559 N557 1.356 . S
N560 C552 1.356 . S
N560 H566 0.984 . S
N560 H567 0.984 . S
N561 C554 1.356 . S
N561 H564 0.984 . S
N561 H565 0.985 . S
H562 N557 0.984 . S
H563 N557 0.985 . S
H564 N561 0.984 . S
H565 N561 0.985 . S
H566 N560 0.984 . S
H567 N560 0.984 . S
H568 N556 0.984 . S
H569 N556 0.985 . S
C570 C571 1.363 . S
C570 C576 1.379 . S
C570 N578 1.356 . S
C571 C570 1.363 . S
C571 C577 1.363 . S
C572 C573 1.363 . S
C572 C577 1.379 . S
C572 N579 1.356 . S
C573 C572 1.363 . S
C573 C576 1.363 . S
N574 C576 1.356 . S
N574 H586 0.984 . S
N574 H587 0.985 1_565 S
N575 C577 1.356 . S
N575 H580 0.984 . S
N575 H581 0.985 . S
C576 C570 1.379 . S
C576 C573 1.363 . S
C576 N574 1.356 . S
C577 C571 1.363 . S
C577 C572 1.379 . S
C577 N575 1.356 . S
N578 C570 1.356 . S
N578 H584 0.984 . S
N578 H585 0.984 . S
N579 C572 1.356 . S
N579 H582 0.984 . S
N579 H583 0.985 . S
H580 N575 0.984 . S
H581 N575 0.985 . S
H582 N579 0.984 . S
H583 N579 0.985 . S
H584 N578 0.984 . S
H585 N578 0.984 . S
H586 N574 0.984 . S
H587 N574 0.985 1_545 S
C588 C589 1.363 . S
C588 C594 1.379 . S
C588 N596 1.356 . S
C589 C588 1.363 . S
C589 C595 1.363 . S
C590 C591 1.363 . S
C590 C595 1.379 . S
C590 N597 1.356 . S
C591 C590 1.363 . S
C591 C594 1.363 . S
N592 C594 1.356 . S
N592 H604 0.984 1_556 S
N592 H605 0.985 1_556 S
N593 C595 1.356 . S
N593 H598 0.984 . S
N593 H599 0.985 . S
C594 C588 1.379 . S
C594 C591 1.363 . S
C594 N592 1.356 . S
C595 C589 1.363 . S
C595 C590 1.379 . S
C595 N593 1.356 . S
N596 C588 1.356 . S
N596 H602 0.984 . S
N596 H603 0.984 . S
N597 C590 1.356 . S
N597 H600 0.984 . S
N597 H601 0.985 . S
H598 N593 0.984 . S
H599 N593 0.985 . S
H600 N597 0.984 . S
H601 N597 0.985 . S
H602 N596 0.984 . S
H603 N596 0.984 . S
H604 N592 0.984 1_554 S
H605 N592 0.985 1_554 S
C606 C607 1.363 . S
C606 C612 1.379 . S
C606 N614 1.356 . S
C607 C606 1.363 . S
C607 C613 1.363 . S
C608 C609 1.363 . S
C608 C613 1.379 . S
C608 N615 1.356 . S
C609 C608 1.363 . S
C609 C612 1.363 . S
N610 C612 1.356 . S
N610 H622 0.984 . S
N610 H623 0.985 . S
N611 C613 1.356 . S
N611 H616 0.984 . S
N611 H617 0.985 . S
C612 C606 1.379 . S
C612 C609 1.363 . S
C612 N610 1.356 . S
C613 C607 1.363 . S
C613 C608 1.379 . S
C613 N611 1.356 . S
N614 C606 1.356 . S
N614 H620 0.984 . S
N614 H621 0.984 . S
N615 C608 1.356 . S
N615 H618 0.984 . S
N615 H619 0.985 . S
H616 N611 0.984 . S
H617 N611 0.985 . S
H618 N615 0.984 . S
H619 N615 0.985 . S
H620 N614 0.984 . S
H621 N614 0.984 . S
H622 N610 0.984 . S
H623 N610 0.985 . S
C624 C625 1.363 . S
C624 C630 1.379 . S
C624 N632 1.356 . S
C625 C624 1.363 . S
C625 C631 1.363 . S
C626 C627 1.363 . S
C626 C631 1.379 . S
C626 N633 1.356 . S
C627 C626 1.363 . S
C627 C630 1.363 . S
N628 C630 1.356 . S
N628 H640 0.984 . S
N628 H641 0.985 . S
N629 C631 1.356 . S
N629 H634 0.984 . S
N629 H635 0.985 . S
C630 C624 1.379 . S
C630 C627 1.363 . S
C630 N628 1.356 . S
C631 C625 1.363 . S
C631 C626 1.379 . S
C631 N629 1.356 . S
N632 C624 1.356 . S
N632 H638 0.984 . S
N632 H639 0.984 . S
N633 C626 1.356 . S
N633 H636 0.984 . S
N633 H637 0.985 . S
H634 N629 0.984 . S
H635 N629 0.985 . S
H636 N633 0.984 . S
H637 N633 0.985 . S
H638 N632 0.984 . S
H639 N632 0.984 . S
H640 N628 0.984 . S
H641 N628 0.985 . S
C642 C643 1.363 . S
C642 C648 1.379 . S
C642 N650 1.356 . S
C643 C642 1.363 . S
C643 C649 1.363 . S
C644 C645 1.363 . S
C644 C649 1.379 . S
C644 N651 1.356 . S
C645 C644 1.363 . S
C645 C648 1.363 . S
N646 C648 1.356 . S
N646 H658 0.984 1_556 S
N646 H659 0.985 . S
N647 C649 1.356 . S
N647 H652 0.984 . S
N647 H653 0.985 . S
C648 C642 1.379 . S
C648 C645 1.363 . S
C648 N646 1.356 . S
C649 C643 1.363 . S
C649 C644 1.379 . S
C649 N647 1.356 . S
N650 C642 1.356 . S
N650 H656 0.984 . S
N650 H657 0.984 . S
N651 C644 1.356 . S
N651 H654 0.984 . S
N651 H655 0.985 . S
H652 N647 0.984 . S
H653 N647 0.985 . S
H654 N651 0.984 . S
H655 N651 0.985 . S
H656 N650 0.984 . S
H657 N650 0.984 . S
H658 N646 0.984 1_554 S
H659 N646 0.985 . S
C660 C661 1.363 . S
C660 C666 1.379 . S
C660 N668 1.356 . S
C661 C660 1.363 . S
C661 C667 1.363 . S
C662 C663 1.363 . S
C662 C667 1.379 . S
C662 N669 1.356 . S
C663 C662 1.363 . S
C663 C666 1.363 . S
N664 C666 1.356 . S
N664 H676 0.984 1_655 S
N664 H677 0.985 . S
N665 C667 1.356 . S
N665 H670 0.984 . S
N665 H671 0.985 . S
C666 C660 1.379 . S
C666 C663 1.363 . S
C666 N664 1.356 . S
C667 C661 1.363 . S
C667 C662 1.379 . S
C667 N665 1.356 . S
N668 C660 1.356 . S
N668 H674 0.984 . S
N668 H675 0.984 . S
N669 C662 1.356 . S
N669 H672 0.984 . S
N669 H673 0.985 . S
H670 N665 0.984 . S
H671 N665 0.985 . S
H672 N669 0.984 . S
H673 N669 0.985 . S
H674 N668 0.984 . S
H675 N668 0.984 . S
H676 N664 0.984 1_455 S
H677 N664 0.985 . S
C678 C679 1.363 . S
C678 C684 1.379 . S
C678 N686 1.356 . S
C679 C678 1.363 . S
C679 C685 1.363 . S
C680 C681 1.363 . S
C680 C685 1.379 . S
C680 N687 1.356 . S
C681 C680 1.363 . S
C681 C684 1.363 . S
N682 C684 1.356 . S
N682 H694 0.984 . S
N682 H695 0.985 . S
N683 C685 1.356 . S
N683 H688 0.984 . S
N683 H689 0.985 . S
C684 C678 1.379 . S
C684 C681 1.363 . S
C684 N682 1.356 . S
C685 C679 1.363 . S
C685 C680 1.379 . S
C685 N683 1.356 . S
N686 C678 1.356 . S
N686 H692 0.984 . S
N686 H693 0.984 . S
N687 C680 1.356 . S
N687 H690 0.984 . S
N687 H691 0.985 . S
H688 N683 0.984 . S
H689 N683 0.985 . S
H690 N687 0.984 . S
H691 N687 0.985 . S
H692 N686 0.984 . S
H693 N686 0.984 . S
H694 N682 0.984 . S
H695 N682 0.985 . S
C696 C697 1.363 . S
C696 C702 1.379 . S
C696 N704 1.356 . S
C697 C696 1.363 . S
C697 C703 1.363 . S
C698 C699 1.363 . S
C698 C703 1.379 . S
C698 N705 1.356 . S
C699 C698 1.363 . S
C699 C702 1.363 . S
N700 C702 1.356 . S
N700 H712 0.984 . S
N700 H713 0.985 . S
N701 C703 1.356 . S
N701 H706 0.984 . S
N701 H707 0.985 . S
C702 C696 1.379 . S
C702 C699 1.363 . S
C702 N700 1.356 . S
C703 C697 1.363 . S
C703 C698 1.379 . S
C703 N701 1.356 . S
N704 C696 1.356 . S
N704 H710 0.984 . S
N704 H711 0.984 . S
N705 C698 1.356 . S
N705 H708 0.984 . S
N705 H709 0.985 . S
H706 N701 0.984 . S
H707 N701 0.985 . S
H708 N705 0.984 . S
H709 N705 0.985 . S
H710 N704 0.984 . S
H711 N704 0.984 . S
H712 N700 0.984 . S
H713 N700 0.985 . S
C714 C715 1.363 . S
C714 C720 1.379 . S
C714 N722 1.356 . S
C715 C714 1.363 . S
C715 C721 1.363 . S
C716 C717 1.363 . S
C716 C721 1.379 . S
C716 N723 1.356 . S
C717 C716 1.363 . S
C717 C720 1.363 . S
N718 C720 1.356 . S
N718 H730 0.984 . S
N718 H731 0.985 . S
N719 C721 1.356 . S
N719 H724 0.984 . S
N719 H725 0.985 . S
C720 C714 1.379 . S
C720 C717 1.363 . S
C720 N718 1.356 . S
C721 C715 1.363 . S
C721 C716 1.379 . S
C721 N719 1.356 . S
N722 C714 1.356 . S
N722 H728 0.984 . S
N722 H729 0.984 . S
N723 C716 1.356 . S
N723 H726 0.984 . S
N723 H727 0.985 . S
H724 N719 0.984 . S
H725 N719 0.985 . S
H726 N723 0.984 . S
H727 N723 0.985 . S
H728 N722 0.984 . S
H729 N722 0.984 . S
H730 N718 0.984 . S
H731 N718 0.985 . S
C732 C733 1.363 . S
C732 C738 1.379 . S
C732 N740 1.356 . S
C733 C732 1.363 . S
C733 C739 1.363 . S
C734 C735 1.363 . S
C734 C739 1.379 . S
C734 N741 1.356 . S
C735 C734 1.363 . S
C735 C738 1.363 . S
N736 C738 1.356 . S
N736 H748 0.984 . S
N736 H749 0.985 . S
N737 C739 1.356 . S
N737 H742 0.984 . S
N737 H743 0.985 . S
C738 C732 1.379 . S
C738 C735 1.363 . S
C738 N736 1.356 . S
C739 C733 1.363 . S
C739 C734 1.379 . S
C739 N737 1.356 . S
N740 C732 1.356 . S
N740 H746 0.984 . S
N740 H747 0.984 . S
N741 C734 1.356 . S
N741 H744 0.984 . S
N741 H745 0.985 . S
H742 N737 0.984 . S
H743 N737 0.985 . S
H744 N741 0.984 . S
H745 N741 0.985 . S
H746 N740 0.984 . S
H747 N740 0.984 . S
H748 N736 0.984 . S
H749 N736 0.985 . S
C750 C751 1.363 . S
C750 C756 1.379 . S
C750 N758 1.356 . S
C751 C750 1.363 . S
C751 C757 1.363 . S
C752 C753 1.363 . S
C752 C757 1.379 . S
C752 N759 1.356 . S
C753 C752 1.363 . S
C753 C756 1.363 . S
N754 C756 1.356 . S
N754 H766 0.984 . S
N754 H767 0.985 . S
N755 C757 1.356 . S
N755 H760 0.984 . S
N755 H761 0.985 . S
C756 C750 1.379 . S
C756 C753 1.363 . S
C756 N754 1.356 . S
C757 C751 1.363 . S
C757 C752 1.379 . S
C757 N755 1.356 . S
N758 C750 1.356 . S
N758 H764 0.984 . S
N758 H765 0.984 . S
N759 C752 1.356 . S
N759 H762 0.984 . S
N759 H763 0.985 . S
H760 N755 0.984 . S
H761 N755 0.985 . S
H762 N759 0.984 . S
H763 N759 0.985 . S
H764 N758 0.984 . S
H765 N758 0.984 . S
H766 N754 0.984 . S
H767 N754 0.985 . S
C768 C769 1.363 . S
C768 C774 1.379 . S
C768 N776 1.356 . S
C769 C768 1.363 . S
C769 C775 1.363 . S
C770 C771 1.363 . S
C770 C775 1.379 . S
C770 N777 1.356 . S
C771 C770 1.363 . S
C771 C774 1.363 . S
N772 C774 1.356 . S
N772 H784 0.984 . S
N772 H785 0.985 . S
N773 C775 1.356 . S
N773 H778 0.984 . S
N773 H779 0.985 . S
C774 C768 1.379 . S
C774 C771 1.363 . S
C774 N772 1.356 . S
C775 C769 1.363 . S
C775 C770 1.379 . S
C775 N773 1.356 . S
N776 C768 1.356 . S
N776 H782 0.984 . S
N776 H783 0.984 . S
N777 C770 1.356 . S
N777 H780 0.984 . S
N777 H781 0.985 . S
H778 N773 0.984 . S
H779 N773 0.985 . S
H780 N777 0.984 . S
H781 N777 0.985 . S
H782 N776 0.984 . S
H783 N776 0.984 . S
H784 N772 0.984 . S
H785 N772 0.985 . S
C786 C787 1.363 . S
C786 C792 1.379 . S
C786 N794 1.356 . S
C787 C786 1.363 . S
C787 C793 1.363 . S
C788 C789 1.363 . S
C788 C793 1.379 . S
C788 N795 1.356 . S
C789 C788 1.363 . S
C789 C792 1.363 . S
N790 C792 1.356 . S
N790 H802 0.984 . S
N790 H803 0.985 . S
N791 C793 1.356 . S
N791 H796 0.984 . S
N791 H797 0.985 . S
C792 C786 1.379 . S
C792 C789 1.363 . S
C792 N790 1.356 . S
C793 C787 1.363 . S
C793 C788 1.379 . S
C793 N791 1.356 . S
N794 C786 1.356 . S
N794 H800 0.984 . S
N794 H801 0.984 . S
N795 C788 1.356 . S
N795 H798 0.984 . S
N795 H799 0.985 . S
H796 N791 0.984 . S
H797 N791 0.985 . S
H798 N795 0.984 . S
H799 N795 0.985 . S
H800 N794 0.984 . S
H801 N794 0.984 . S
H802 N790 0.984 . S
H803 N790 0.985 . S
C804 C805 1.363 . S
C804 C810 1.379 . S
C804 N812 1.356 . S
C805 C804 1.363 . S
C805 C811 1.363 . S
C806 C807 1.363 . S
C806 C811 1.379 . S
C806 N813 1.356 . S
C807 C806 1.363 . S
C807 C810 1.363 . S
N808 C810 1.356 . S
N808 H820 0.984 . S
N808 H821 0.985 . S
N809 C811 1.356 . S
N809 H814 0.984 . S
N809 H815 0.985 . S
C810 C804 1.379 . S
C810 C807 1.363 . S
C810 N808 1.356 . S
C811 C805 1.363 . S
C811 C806 1.379 . S
C811 N809 1.356 . S
N812 C804 1.356 . S
N812 H818 0.984 . S
N812 H819 0.984 . S
N813 C806 1.356 . S
N813 H816 0.984 . S
N813 H817 0.985 . S
H814 N809 0.984 . S
H815 N809 0.985 . S
H816 N813 0.984 . S
H817 N813 0.985 . S
H818 N812 0.984 . S
H819 N812 0.984 . S
H820 N808 0.984 . S
H821 N808 0.985 . S
C822 C823 1.363 . S
C822 C828 1.379 . S
C822 N830 1.356 . S
C823 C822 1.363 . S
C823 C829 1.363 . S
C824 C825 1.363 . S
C824 C829 1.379 . S
C824 N831 1.356 . S
C825 C824 1.363 . S
C825 C828 1.363 . S
N826 C828 1.356 . S
N826 H838 0.984 . S
N826 H839 0.985 . S
N827 C829 1.356 . S
N827 H832 0.984 . S
N827 H833 0.985 . S
C828 C822 1.379 . S
C828 C825 1.363 . S
C828 N826 1.356 . S
C829 C823 1.363 . S
C829 C824 1.379 . S
C829 N827 1.356 . S
N830 C822 1.356 . S
N830 H836 0.984 . S
N830 H837 0.984 . S
N831 C824 1.356 . S
N831 H834 0.984 . S
N831 H835 0.985 . S
H832 N827 0.984 . S
H833 N827 0.985 . S
H834 N831 0.984 . S
H835 N831 0.985 . S
H836 N830 0.984 . S
H837 N830 0.984 . S
H838 N826 0.984 . S
H839 N826 0.985 . S
C840 C841 1.363 . S
C840 C846 1.379 . S
C840 N848 1.356 . S
C841 C840 1.363 . S
C841 C847 1.363 . S
C842 C843 1.363 . S
C842 C847 1.379 . S
C842 N849 1.356 . S
C843 C842 1.363 . S
C843 C846 1.363 . S
N844 C846 1.356 . S
N844 H856 0.984 . S
N844 H857 0.985 . S
N845 C847 1.356 . S
N845 H850 0.984 . S
N845 H851 0.985 . S
C846 C840 1.379 . S
C846 C843 1.363 . S
C846 N844 1.356 . S
C847 C841 1.363 . S
C847 C842 1.379 . S
C847 N845 1.356 . S
N848 C840 1.356 . S
N848 H854 0.984 . S
N848 H855 0.984 . S
N849 C842 1.356 . S
N849 H852 0.984 . S
N849 H853 0.985 . S
H850 N845 0.984 . S
H851 N845 0.985 . S
H852 N849 0.984 . S
H853 N849 0.985 . S
H854 N848 0.984 . S
H855 N848 0.984 . S
H856 N844 0.984 . S
H857 N844 0.985 . S
C858 C859 1.363 . S
C858 C864 1.379 . S
C858 N866 1.356 . S
C859 C858 1.363 . S
C859 C865 1.363 . S
C860 C861 1.363 . S
C860 C865 1.379 . S
C860 N867 1.356 . S
C861 C860 1.363 . S
C861 C864 1.363 . S
N862 C864 1.356 . S
N862 H874 0.984 . S
N862 H875 0.985 . S
N863 C865 1.356 . S
N863 H868 0.984 . S
N863 H869 0.985 . S
C864 C858 1.379 . S
C864 C861 1.363 . S
C864 N862 1.356 . S
C865 C859 1.363 . S
C865 C860 1.379 . S
C865 N863 1.356 . S
N866 C858 1.356 . S
N866 H872 0.984 . S
N866 H873 0.984 . S
N867 C860 1.356 . S
N867 H870 0.984 . S
N867 H871 0.985 . S
H868 N863 0.984 . S
H869 N863 0.985 . S
H870 N867 0.984 . S
H871 N867 0.985 . S
H872 N866 0.984 . S
H873 N866 0.984 . S
H874 N862 0.984 . S
H875 N862 0.985 . S
C876 C877 1.363 . S
C876 C882 1.379 . S
C876 N884 1.356 . S
C877 C876 1.363 . S
C877 C883 1.363 . S
C878 C879 1.363 . S
C878 C883 1.379 . S
C878 N885 1.356 . S
C879 C878 1.363 . S
C879 C882 1.363 . S
N880 C882 1.356 . S
N880 H892 0.984 1_455 S
N880 H893 0.985 . S
N881 C883 1.356 . S
N881 H886 0.984 . S
N881 H887 0.985 . S
C882 C876 1.379 . S
C882 C879 1.363 . S
C882 N880 1.356 . S
C883 C877 1.363 . S
C883 C878 1.379 . S
C883 N881 1.356 . S
N884 C876 1.356 . S
N884 H890 0.984 . S
N884 H891 0.984 . S
N885 C878 1.356 . S
N885 H888 0.984 . S
N885 H889 0.985 . S
H886 N881 0.984 . S
H887 N881 0.985 . S
H888 N885 0.984 . S
H889 N885 0.985 . S
H890 N884 0.984 . S
H891 N884 0.984 . S
H892 N880 0.984 1_655 S
H893 N880 0.985 . S
C894 C895 1.363 . S
C894 C900 1.379 . S
C894 N902 1.356 . S
C895 C894 1.363 . S
C895 C901 1.363 . S
C896 C897 1.363 . S
C896 C901 1.379 . S
C896 N903 1.356 . S
C897 C896 1.363 . S
C897 C900 1.363 . S
N898 C900 1.356 . S
N898 H910 0.984 . S
N898 H911 0.985 . S
N899 C901 1.356 . S
N899 H904 0.984 . S
N899 H905 0.985 . S
C900 C894 1.379 . S
C900 C897 1.363 . S
C900 N898 1.356 . S
C901 C895 1.363 . S
C901 C896 1.379 . S
C901 N899 1.356 . S
N902 C894 1.356 . S
N902 H908 0.984 . S
N902 H909 0.984 . S
N903 C896 1.356 . S
N903 H906 0.984 . S
N903 H907 0.985 . S
H904 N899 0.984 . S
H905 N899 0.985 . S
H906 N903 0.984 . S
H907 N903 0.985 . S
H908 N902 0.984 . S
H909 N902 0.984 . S
H910 N898 0.984 . S
H911 N898 0.985 . S
C481 C21 1.354 . S
C483 C326 1.567 . S
C499 C61 1.144 . S
C501 C375 1.148 . S
C519 C410 2.430 . S
C517 C82 2.472 . S
C535 C135 2.448 . S
C537 C449 2.386 . S
C555 C370 2.834 . S
C553 C15 2.584 . S
C573 C329 0.902 . S
C571 C42 0.943 . S
C591 C459 1.927 . S
C589 C101 1.954 . S
C609 C418 1.652 . S
C607 C122 1.669 . S
C625 C2 1.758 . S
C627 C446 1.959 . S
C645 C378 2.266 . S
C643 C95 2.362 . S
C661 C141 2.392 . S
C663 C339 2.387 . S
C679 C55 1.105 . S
C681 C415 1.150 . S
C699 C335 1.570 . S
C697 C181 1.532 . S
C715 C202 1.091 . S
C717 C366 1.130 . S
C733 C255 2.506 . S
C735 C419 2.453 . S
C751 C295 2.425 . S
C753 C458 2.361 . S
C769 C175 2.579 . S
C771 C379 2.809 . S
C789 C338 0.922 . S
C787 C221 0.952 . S
C807 C450 1.865 . S
C805 C242 1.930 . S
C825 C409 1.710 . S
C823 C301 1.727 . S
C841 C162 1.908 . S
C843 C455 1.954 . S
C861 C369 2.307 . S
C859 C261 2.393 . S
C879 C330 2.359 . S
C877 C282 2.365 . S
C895 C215 1.115 . S
C897 C406 1.168 . S
