# Generated by pormake.
# Topology ocu, (6,8)-cn, num edge types: 1
# Building blocks:
#     Node 0, Type 0, BuildingBlock: KUMBOL_clean_sbu_0, # of connection points: 6
#     Node 1, Type 0, BuildingBlock: KUMBOL_clean_sbu_0, # of connection points: 6
#     Node 2, Type 0, BuildingBlock: KUMBOL_clean_sbu_0, # of connection points: 6
#     Node 3, Type 0, BuildingBlock: KUMBOL_clean_sbu_0, # of connection points: 6
#     Node 4, Type 0, BuildingBlock: KUMBOL_clean_sbu_0, # of connection points: 6
#     Node 5, Type 0, BuildingBlock: KUMBOL_clean_sbu_0, # of connection points: 6
#     Node 6, Type 0, BuildingBlock: KUMBOL_clean_sbu_0, # of connection points: 6
#     Node 7, Type 0, BuildingBlock: KUMBOL_clean_sbu_0, # of connection points: 6
#     Node 8, Type 1, BuildingBlock: VETTIZ_charged_sbu_0, # of connection points: 8
#     Node 9, Type 1, BuildingBlock: VETTIZ_charged_sbu_0, # of connection points: 8
#     Node 10, Type 1, BuildingBlock: VETTIZ_charged_sbu_0, # of connection points: 8
#     Node 11, Type 1, BuildingBlock: VETTIZ_charged_sbu_0, # of connection points: 8
#     Node 12, Type 1, BuildingBlock: VETTIZ_charged_sbu_0, # of connection points: 8
#     Node 13, Type 1, BuildingBlock: VETTIZ_charged_sbu_0, # of connection points: 8
#     Edge 14, Type (0, 1), BuildingBlock: CIFDUS_clean_linker_0, # of connection points: 2
#     Edge 15, Type (0, 1), BuildingBlock: CIFDUS_clean_linker_0, # of connection points: 2
#     Edge 16, Type (0, 1), BuildingBlock: CIFDUS_clean_linker_0, # of connection points: 2
#     Edge 17, Type (0, 1), BuildingBlock: CIFDUS_clean_linker_0, # of connection points: 2
#     Edge 18, Type (0, 1), BuildingBlock: CIFDUS_clean_linker_0, # of connection points: 2
#     Edge 19, Type (0, 1), BuildingBlock: CIFDUS_clean_linker_0, # of connection points: 2
#     Edge 20, Type (0, 1), BuildingBlock: CIFDUS_clean_linker_0, # of connection points: 2
#     Edge 21, Type (0, 1), BuildingBlock: CIFDUS_clean_linker_0, # of connection points: 2
#     Edge 22, Type (0, 1), BuildingBlock: CIFDUS_clean_linker_0, # of connection points: 2
#     Edge 23, Type (0, 1), BuildingBlock: CIFDUS_clean_linker_0, # of connection points: 2
#     Edge 24, Type (0, 1), BuildingBlock: CIFDUS_clean_linker_0, # of connection points: 2
#     Edge 25, Type (0, 1), BuildingBlock: CIFDUS_clean_linker_0, # of connection points: 2
#     Edge 26, Type (0, 1), BuildingBlock: CIFDUS_clean_linker_0, # of connection points: 2
#     Edge 27, Type (0, 1), BuildingBlock: CIFDUS_clean_linker_0, # of connection points: 2
#     Edge 28, Type (0, 1), BuildingBlock: CIFDUS_clean_linker_0, # of connection points: 2
#     Edge 29, Type (0, 1), BuildingBlock: CIFDUS_clean_linker_0, # of connection points: 2
#     Edge 30, Type (0, 1), BuildingBlock: CIFDUS_clean_linker_0, # of connection points: 2
#     Edge 31, Type (0, 1), BuildingBlock: CIFDUS_clean_linker_0, # of connection points: 2
#     Edge 32, Type (0, 1), BuildingBlock: CIFDUS_clean_linker_0, # of connection points: 2
#     Edge 33, Type (0, 1), BuildingBlock: CIFDUS_clean_linker_0, # of connection points: 2
#     Edge 34, Type (0, 1), BuildingBlock: CIFDUS_clean_linker_0, # of connection points: 2
#     Edge 35, Type (0, 1), BuildingBlock: CIFDUS_clean_linker_0, # of connection points: 2
#     Edge 36, Type (0, 1), BuildingBlock: CIFDUS_clean_linker_0, # of connection points: 2
#     Edge 37, Type (0, 1), BuildingBlock: CIFDUS_clean_linker_0, # of connection points: 2
#     Edge 38, Type (0, 1), BuildingBlock: CIFDUS_clean_linker_0, # of connection points: 2
#     Edge 39, Type (0, 1), BuildingBlock: CIFDUS_clean_linker_0, # of connection points: 2
#     Edge 40, Type (0, 1), BuildingBlock: CIFDUS_clean_linker_0, # of connection points: 2
#     Edge 41, Type (0, 1), BuildingBlock: CIFDUS_clean_linker_0, # of connection points: 2
#     Edge 42, Type (0, 1), BuildingBlock: CIFDUS_clean_linker_0, # of connection points: 2
#     Edge 43, Type (0, 1), BuildingBlock: CIFDUS_clean_linker_0, # of connection points: 2
#     Edge 44, Type (0, 1), BuildingBlock: CIFDUS_clean_linker_0, # of connection points: 2
#     Edge 45, Type (0, 1), BuildingBlock: CIFDUS_clean_linker_0, # of connection points: 2
#     Edge 46, Type (0, 1), BuildingBlock: CIFDUS_clean_linker_0, # of connection points: 2
#     Edge 47, Type (0, 1), BuildingBlock: CIFDUS_clean_linker_0, # of connection points: 2
#     Edge 48, Type (0, 1), BuildingBlock: CIFDUS_clean_linker_0, # of connection points: 2
#     Edge 49, Type (0, 1), BuildingBlock: CIFDUS_clean_linker_0, # of connection points: 2
#     Edge 50, Type (0, 1), BuildingBlock: CIFDUS_clean_linker_0, # of connection points: 2
#     Edge 51, Type (0, 1), BuildingBlock: CIFDUS_clean_linker_0, # of connection points: 2
#     Edge 52, Type (0, 1), BuildingBlock: CIFDUS_clean_linker_0, # of connection points: 2
#     Edge 53, Type (0, 1), BuildingBlock: CIFDUS_clean_linker_0, # of connection points: 2
#     Edge 54, Type (0, 1), BuildingBlock: CIFDUS_clean_linker_0, # of connection points: 2
#     Edge 55, Type (0, 1), BuildingBlock: CIFDUS_clean_linker_0, # of connection points: 2
#     Edge 56, Type (0, 1), BuildingBlock: CIFDUS_clean_linker_0, # of connection points: 2
#     Edge 57, Type (0, 1), BuildingBlock: CIFDUS_clean_linker_0, # of connection points: 2
#     Edge 58, Type (0, 1), BuildingBlock: CIFDUS_clean_linker_0, # of connection points: 2
#     Edge 59, Type (0, 1), BuildingBlock: CIFDUS_clean_linker_0, # of connection points: 2
#     Edge 60, Type (0, 1), BuildingBlock: CIFDUS_clean_linker_0, # of connection points: 2
#     Edge 61, Type (0, 1), BuildingBlock: CIFDUS_clean_linker_0, # of connection points: 2
# Relax obj value: 0.134
# Max RMSD: 0.257
# Mean RMSD: 0.162
data_MOF--net-ocu--node1-KUMBOL_clean_sbu_0--node2-VETTIZ_charged_sbu_0--edge1-CIFDUS_clean_linker_0
_symmetry_space_group_name_H-M    P1
_symmetry_Int_Tables_number       1
_symmetry_cell_setting            triclinic
loop_
_symmetry_equiv_pos_as_xyz
'x, y, z'
_cell_length_a     35.296711
_cell_length_b     33.507147
_cell_length_c     36.991612
_cell_angle_alpha  83.469623
_cell_angle_beta   94.581416
_cell_angle_gamma 103.84092
loop_
_atom_site_label
_atom_site_type_symbol
_atom_site_fract_x
_atom_site_fract_y
_atom_site_fract_z
_atom_type_partial_charge
Gd0 Gd 0.30633 0.32622 0.32009 0.0
Gd1 Gd 0.28011 0.24656 0.26619 0.0
C2 C 0.26385 0.29152 0.14593 0.0
C3 C 0.19763 0.30119 0.14249 0.0
C4 C 0.22671 0.27708 0.20029 0.0
C5 C 0.2612 0.2792 0.18366 0.0
C6 C 0.19389 0.28558 0.1792 0.0
C7 C 0.2327 0.30453 0.12597 0.0
C8 C 0.29646 0.28748 0.12875 0.0
C9 C 0.32357 0.26807 0.14831 0.0
N10 N 0.28996 0.2641 0.20315 0.0
C11 C 0.31899 0.25509 0.18527 0.0
H12 H 0.33875 0.23785 0.19959 0.0
C13 C 0.18829 0.25095 0.25104 0.0
N14 N 0.22388 0.26251 0.23608 0.0
C15 C 0.15472 0.25737 0.23079 0.0
C16 C 0.15769 0.2758 0.19502 0.0
H17 H 0.18538 0.23574 0.27824 0.0
H18 H 0.23454 0.31472 0.09716 0.0
H19 H 0.2393 0.34102 0.37572 0.0
H20 H 0.29955 0.29666 0.09989 0.0
H21 H 0.34752 0.26223 0.13478 0.0
H22 H 0.173 0.30892 0.1262 0.0
H23 H 0.40177 0.32473 0.31952 0.0
H24 H 0.26641 0.29229 0.48388 0.0
H25 H 0.22341 0.32468 0.44012 0.0
H26 H 0.39377 0.27012 0.47625 0.0
H27 H 0.12664 0.24843 0.24289 0.0
H28 H 0.13169 0.28121 0.17955 0.0
H29 H 0.32985 0.27162 0.49697 0.0
H30 H 0.45386 0.30898 0.36218 0.0
N31 N 0.28831 0.31343 0.38166 0.0
C32 C 0.27296 0.29829 0.45537 0.0
C33 C 0.24872 0.31673 0.43083 0.0
C34 C 0.30699 0.29081 0.44339 0.0
C35 C 0.31415 0.29885 0.40586 0.0
C36 C 0.25768 0.32556 0.39427 0.0
N37 N 0.35746 0.30751 0.35811 0.0
C38 C 0.35012 0.29712 0.39399 0.0
C39 C 0.42475 0.30506 0.37144 0.0
C40 C 0.41724 0.2922 0.40783 0.0
C41 C 0.39467 0.31341 0.34706 0.0
C42 C 0.37982 0.28867 0.41968 0.0
H43 H 0.44068 0.28588 0.42669 0.0
O44 O 0.33455 0.38959 0.29983 0.0
O45 O 0.26462 0.31077 0.26942 0.0
O46 O 0.34131 0.27797 0.25084 0.0
O47 O 0.35059 0.33889 0.27732 0.0
O48 O 0.26341 0.36379 0.29003 0.0
O49 O 0.32494 0.37365 0.35693 0.0
O50 O 0.24798 0.18525 0.28695 0.0
O51 O 0.3244 0.26281 0.31496 0.0
O52 O 0.2449 0.29195 0.33321 0.0
O53 O 0.2469 0.22883 0.31732 0.0
O54 O 0.32823 0.21295 0.28982 0.0
O55 O 0.26231 0.19768 0.23059 0.0
C56 C 0.2489 0.34399 0.26202 0.0
C57 C 0.37162 0.27777 0.45645 0.0
C58 C 0.33516 0.27846 0.46822 0.0
C59 C 0.33564 0.40327 0.33153 0.0
C60 C 0.32152 0.44094 0.33366 0.0
C61 C 0.34354 0.47919 0.31943 0.0
C62 C 0.2883 0.43953 0.35294 0.0
C63 C 0.2782 0.476 0.35996 0.0
C64 C 0.33317 0.51555 0.32516 0.0
C65 C 0.3012 0.51414 0.34567 0.0
C66 C 0.36153 0.3155 0.25588 0.0
C67 C 0.34219 0.23069 0.31902 0.0
C68 C 0.25103 0.1694 0.25714 0.0
C69 C 0.27068 0.13501 0.26117 0.0
C70 C 0.25486 0.09717 0.28076 0.0
C71 C 0.30694 0.14102 0.24612 0.0
C72 C 0.32655 0.10926 0.24786 0.0
C73 C 0.27529 0.06575 0.28461 0.0
C74 C 0.31087 0.07167 0.26813 0.0
C75 C 0.23238 0.25166 0.33637 0.0
H76 H 0.36928 0.48097 0.30465 0.0
H77 H 0.27075 0.40995 0.36297 0.0
H78 H 0.35062 0.54507 0.3145 0.0
H79 H 0.29525 0.54311 0.35096 0.0
H80 H 0.22714 0.09213 0.29321 0.0
H81 H 0.32007 0.17088 0.23255 0.0
H82 H 0.26325 0.03653 0.29989 0.0
H83 H 0.32543 0.04668 0.27055 0.0
Gd84 Gd 0.75567 0.33588 0.3202 0.0
Gd85 Gd 0.81288 0.28107 0.27494 0.0
C86 C 0.90313 0.35316 0.19483 0.0
C87 C 0.88271 0.31757 0.14045 0.0
C88 C 0.84477 0.2976 0.19451 0.0
C89 C 0.87068 0.32774 0.2127 0.0
C90 C 0.85056 0.29226 0.15816 0.0
C91 C 0.9091 0.34766 0.15884 0.0
C92 C 0.92831 0.384 0.21333 0.0
C93 C 0.92003 0.39013 0.24814 0.0
N94 N 0.8638 0.33282 0.2474 0.0
C95 C 0.88734 0.36469 0.2646 0.0
H96 H 0.88091 0.37212 0.29055 0.0
C97 C 0.7902 0.24069 0.19632 0.0
N98 N 0.8144 0.27287 0.21254 0.0
C99 C 0.79419 0.2349 0.16015 0.0
C100 C 0.82438 0.26098 0.14088 0.0
H101 H 0.76796 0.21905 0.2115 0.0
H102 H 0.93381 0.36692 0.1448 0.0
H103 H 0.67811 0.36345 0.2762 0.0
H104 H 0.95343 0.40412 0.20051 0.0
H105 H 0.93844 0.41504 0.26213 0.0
H106 H 0.88761 0.31385 0.11261 0.0
H107 H 0.7909 0.28269 0.39476 0.0
H108 H 0.57769 0.30997 0.33801 0.0
H109 H 0.60732 0.35249 0.28378 0.0
H110 H 0.63024 0.24165 0.44415 0.0
H111 H 0.77447 0.20978 0.14744 0.0
H112 H 0.8278 0.25606 0.11299 0.0
H113 H 0.58657 0.26895 0.39783 0.0
H114 H 0.76711 0.24572 0.45231 0.0
N115 N 0.68787 0.32533 0.32444 0.0
C116 C 0.60865 0.31423 0.33456 0.0
C117 C 0.62523 0.33819 0.30389 0.0
C118 C 0.63239 0.29697 0.3609 0.0
C119 C 0.67253 0.30332 0.3551 0.0
C120 C 0.66522 0.34406 0.29956 0.0
N121 N 0.73565 0.2941 0.37447 0.0
C122 C 0.69721 0.28788 0.38114 0.0
C123 C 0.74718 0.25767 0.43264 0.0
C124 C 0.70783 0.25089 0.4397 0.0
C125 C 0.76065 0.27926 0.39978 0.0
C126 C 0.68224 0.26579 0.41377 0.0
H127 H 0.69743 0.23366 0.46499 0.0
O128 O 0.79612 0.39197 0.33546 0.0
O129 O 0.79941 0.34136 0.27929 0.0
O130 O 0.85219 0.30936 0.32147 0.0
O131 O 0.81323 0.33983 0.35296 0.0
O132 O 0.75483 0.37275 0.26525 0.0
O133 O 0.73512 0.38249 0.34445 0.0
O134 O 0.84496 0.23879 0.25891 0.0
O135 O 0.7726 0.27672 0.31941 0.0
O136 O 0.71568 0.30698 0.27238 0.0
O137 O 0.75598 0.27786 0.24064 0.0
O138 O 0.75992 0.229 0.28516 0.0
O139 O 0.83537 0.23898 0.31565 0.0
C140 C 0.78563 0.36411 0.25454 0.0
C141 C 0.64223 0.25891 0.41943 0.0
C142 C 0.61734 0.27432 0.393 0.0
C143 C 0.76916 0.40814 0.34522 0.0
C144 C 0.77079 0.45058 0.3295 0.0
C145 C 0.79859 0.48365 0.34302 0.0
C146 C 0.74653 0.4579 0.29904 0.0
C147 C 0.75006 0.49774 0.2816 0.0
C148 C 0.80208 0.52369 0.32579 0.0
C149 C 0.77811 0.53077 0.2949 0.0
C150 C 0.8466 0.33011 0.34826 0.0
C151 C 0.74949 0.24265 0.31313 0.0
C152 C 0.84696 0.22011 0.29137 0.0
C153 C 0.83401 0.17489 0.29452 0.0
C154 C 0.79976 0.15418 0.27626 0.0
C155 C 0.85671 0.15211 0.31653 0.0
C156 C 0.84605 0.10873 0.32046 0.0
C157 C 0.78832 0.11105 0.28072 0.0
C158 C 0.81121 0.08829 0.30293 0.0
C159 C 0.72219 0.28724 0.24484 0.0
H160 H 0.81791 0.47839 0.36642 0.0
H161 H 0.72557 0.43229 0.28809 0.0
H162 H 0.8237 0.54914 0.33612 0.0
H163 H 0.78131 0.5618 0.28152 0.0
H164 H 0.78184 0.1711 0.25873 0.0
H165 H 0.88257 0.16853 0.33115 0.0
H166 H 0.76181 0.09521 0.26674 0.0
H167 H 0.80208 0.0549 0.30586 0.0
Gd168 Gd 0.78275 0.75457 0.30555 0.0
Gd169 Gd 0.80898 0.84739 0.25507 0.0
C170 C 0.87407 0.85265 0.15298 0.0
C171 C 0.93732 0.84303 0.1778 0.0
C172 C 0.88551 0.84011 0.21864 0.0
C173 C 0.86048 0.8471 0.18862 0.0
C174 C 0.92387 0.83699 0.21313 0.0
C175 C 0.91261 0.85109 0.14787 0.0
C176 C 0.8482 0.85834 0.12326 0.0
C177 C 0.80987 0.85882 0.12922 0.0
N178 N 0.82266 0.84687 0.1939 0.0
C179 C 0.79773 0.85365 0.1648 0.0
H180 H 0.76906 0.85768 0.1689 0.0
C181 C 0.89502 0.8234 0.28212 0.0
N182 N 0.87195 0.83433 0.25285 0.0
C183 C 0.93289 0.81966 0.27772 0.0
C184 C 0.94757 0.82698 0.2432 0.0
H185 H 0.88478 0.81675 0.3091 0.0
H186 H 0.92334 0.85514 0.12074 0.0
H187 H 0.745 0.78085 0.37636 0.0
H188 H 0.85755 0.86249 0.09561 0.0
H189 H 0.78988 0.8642 0.10645 0.0
H190 H 0.96671 0.84095 0.17326 0.0
H191 H 0.76194 0.695 0.23292 0.0
H192 H 0.64711 0.68425 0.4088 0.0
H193 H 0.69324 0.75076 0.41912 0.0
H194 H 0.63342 0.59071 0.3172 0.0
H195 H 0.95077 0.81109 0.3011 0.0
H196 H 0.97701 0.82406 0.23997 0.0
H197 H 0.62513 0.62459 0.3707 0.0
H198 H 0.7198 0.6286 0.21919 0.0
N199 N 0.72945 0.73149 0.34286 0.0
C200 C 0.67009 0.69714 0.39016 0.0
C201 C 0.69612 0.73459 0.39614 0.0
C202 C 0.67398 0.67683 0.36013 0.0
C203 C 0.70443 0.69495 0.33672 0.0
C204 C 0.72572 0.75139 0.37203 0.0
N205 N 0.73888 0.69457 0.28479 0.0
C206 C 0.70956 0.67562 0.30699 0.0
C207 C 0.71703 0.64112 0.24431 0.0
C208 C 0.68837 0.62031 0.26798 0.0
C209 C 0.74163 0.67863 0.25279 0.0
C210 C 0.68367 0.63799 0.29929 0.0
H211 H 0.66916 0.59143 0.26114 0.0
O212 O 0.78659 0.70764 0.35057 0.0
O213 O 0.81757 0.78053 0.25424 0.0
O214 O 0.7552 0.81215 0.22522 0.0
O215 O 0.73008 0.75794 0.26799 0.0
O216 O 0.81668 0.72151 0.27141 0.0
O217 O 0.83867 0.75257 0.33399 0.0
O218 O 0.85137 0.90655 0.25251 0.0
O219 O 0.7667 0.81884 0.30131 0.0
O220 O 0.80664 0.80475 0.34412 0.0
O221 O 0.8411 0.86057 0.3085 0.0
O222 O 0.76722 0.87763 0.2833 0.0
O223 O 0.7958 0.89974 0.2212 0.0
C224 C 0.83005 0.7485 0.24494 0.0
C225 C 0.65346 0.61965 0.32262 0.0
C226 C 0.64864 0.63901 0.35299 0.0
C227 C 0.82365 0.72229 0.35774 0.0
C228 C 0.83629 0.72713 0.39623 0.0
C229 C 0.81986 0.75043 0.41715 0.0
C230 C 0.86604 0.70869 0.41215 0.0
C231 C 0.87966 0.71391 0.44846 0.0
C232 C 0.83341 0.75592 0.45312 0.0
C233 C 0.86332 0.73792 0.46875 0.0
C234 C 0.72783 0.77946 0.23604 0.0
C235 C 0.75068 0.84962 0.30788 0.0
C236 C 0.82892 0.92471 0.22995 0.0
C237 C 0.82859 0.96806 0.23389 0.0
C238 C 0.86092 0.99475 0.24991 0.0
C239 C 0.79806 0.98453 0.21674 0.0
C240 C 0.79967 0.02699 0.21476 0.0
C241 C 0.86276 0.03715 0.248 0.0
C242 C 0.83264 0.05341 0.22983 0.0
C243 C 0.83287 0.84032 0.34043 0.0
H244 H 0.79717 0.7651 0.40581 0.0
H245 H 0.87903 0.69084 0.39608 0.0
H246 H 0.82081 0.77434 0.46885 0.0
H247 H 0.87339 0.74235 0.49677 0.0
H248 H 0.88528 0.98312 0.26288 0.0
H249 H 0.77349 0.9645 0.20336 0.0
H250 H 0.88794 0.05758 0.26003 0.0
H251 H 0.83488 0.08638 0.2279 0.0
Gd252 Gd 0.255 0.84039 0.29388 0.0
Gd253 Gd 0.30772 0.76111 0.28711 0.0
C254 C 0.29064 0.65806 0.38154 0.0
C255 C 0.34948 0.67862 0.42002 0.0
C256 C 0.33972 0.71921 0.36254 0.0
C257 C 0.30359 0.69306 0.35659 0.0
C258 C 0.36385 0.711 0.39351 0.0
C259 C 0.31292 0.65208 0.41398 0.0
C260 C 0.25646 0.62919 0.37255 0.0
C261 C 0.23704 0.63461 0.33874 0.0
N262 N 0.28288 0.69947 0.32477 0.0
C263 C 0.25099 0.66965 0.31491 0.0
H264 H 0.23597 0.67208 0.28865 0.0
C265 C 0.39258 0.76705 0.33559 0.0
N266 N 0.35324 0.74936 0.33586 0.0
C267 C 0.41742 0.76079 0.36598 0.0
C268 C 0.40266 0.73357 0.39564 0.0
H269 H 0.40439 0.78811 0.31267 0.0
H270 H 0.30293 0.62597 0.43379 0.0
H271 H 0.29795 0.90886 0.35721 0.0
H272 H 0.24558 0.60201 0.39096 0.0
H273 H 0.21132 0.61172 0.33093 0.0
H274 H 0.3673 0.67242 0.44428 0.0
H275 H 0.20213 0.8537 0.21376 0.0
H276 H 0.37861 1.00733 0.30068 0.0
H277 H 0.35218 0.9705 0.35842 0.0
H278 H 0.32799 1.00049 0.17722 0.0
H279 H 0.44794 0.77683 0.36642 0.0
H280 H 0.42206 0.72829 0.41897 0.0
H281 H 0.37027 0.01687 0.23211 0.0
H282 H 0.21025 0.8975 0.15589 0.0
N283 N 0.29731 0.90682 0.29958 0.0
C284 C 0.35539 0.97958 0.30006 0.0
C285 C 0.34056 0.95892 0.33267 0.0
C286 C 0.33723 0.96654 0.26706 0.0
C287 C 0.3074 0.93001 0.26785 0.0
C288 C 0.31022 0.92341 0.33182 0.0
N289 N 0.25601 0.88466 0.23882 0.0
C290 C 0.28497 0.9195 0.23666 0.0
C291 C 0.23203 0.90363 0.17812 0.0
C292 C 0.2641 0.93713 0.17428 0.0
C293 C 0.22802 0.87814 0.21094 0.0
C294 C 0.2906 0.94601 0.20403 0.0
H295 H 0.26737 0.9567 0.14877 0.0
O296 O 0.19156 0.82182 0.29176 0.0
O297 O 0.25581 0.77374 0.30964 0.0
O298 O 0.24601 0.74038 0.2646 0.0
O299 O 0.22758 0.80205 0.2484 0.0
O300 O 0.24462 0.80583 0.3502 0.0
O301 O 0.22143 0.8808 0.31025 0.0
O302 O 0.35912 0.76381 0.2575 0.0
O303 O 0.30615 0.82756 0.26884 0.0
O304 O 0.29705 0.84238 0.34195 0.0
O305 O 0.34231 0.81194 0.32071 0.0
O306 O 0.30374 0.78848 0.22908 0.0
O307 O 0.31219 0.70875 0.25918 0.0
C308 C 0.24738 0.76988 0.3427 0.0
C309 C 0.32216 0.98065 0.20237 0.0
C310 C 0.34613 0.99015 0.23367 0.0
C311 C 0.189 0.8523 0.30957 0.0
C312 C 0.16951 0.84038 0.34418 0.0
C313 C 0.13518 0.80899 0.34665 0.0
C314 C 0.18728 0.85779 0.37582 0.0
C315 C 0.17045 0.84554 0.40945 0.0
C316 C 0.11886 0.79552 0.38034 0.0
C317 C 0.13618 0.81378 0.41159 0.0
C318 C 0.2228 0.76222 0.24648 0.0
C319 C 0.30702 0.82617 0.23485 0.0
C320 C 0.3451 0.72803 0.24511 0.0
C321 C 0.34768 0.7257 0.20574 0.0
C322 C 0.35052 0.76081 0.18035 0.0
C323 C 0.34885 0.68789 0.19344 0.0
C324 C 0.35216 0.68515 0.15621 0.0
C325 C 0.35009 0.75729 0.14319 0.0
C326 C 0.35042 0.71958 0.13106 0.0
C327 C 0.33128 0.83328 0.34423 0.0
H328 H 0.12139 0.79451 0.32268 0.0
H329 H 0.21442 0.88118 0.37444 0.0
H330 H 0.09239 0.77127 0.38215 0.0
H331 H 0.12195 0.80407 0.43704 0.0
H332 H 0.35375 0.79121 0.18887 0.0
H333 H 0.34997 0.66154 0.2131 0.0
H334 H 0.35123 0.78429 0.12384 0.0
H335 H 0.35228 0.71806 0.10217 0.0
Gd336 Gd 0.28987 0.83892 0.79466 0.0
Gd337 Gd 0.33701 0.75871 0.81728 0.0
C338 C 0.46385 0.79993 0.78258 0.0
C339 C 0.46798 0.74477 0.74704 0.0
C340 C 0.40622 0.74599 0.77155 0.0
C341 C 0.42411 0.78104 0.78813 0.0
C342 C 0.42776 0.72816 0.74989 0.0
C343 C 0.486 0.7807 0.76331 0.0
C344 C 0.4795 0.83897 0.79428 0.0
C345 C 0.45499 0.85951 0.80839 0.0
N346 N 0.40143 0.79951 0.8055 0.0
C347 C 0.41579 0.8398 0.81281 0.0
H348 H 0.39725 0.85783 0.82109 0.0
C349 C 0.3474 0.701 0.75291 0.0
N350 N 0.36693 0.73218 0.77317 0.0
C351 C 0.36753 0.68221 0.7314 0.0
C352 C 0.40796 0.69545 0.73026 0.0
H353 H 0.31627 0.68928 0.75376 0.0
H354 H 0.51662 0.79446 0.7593 0.0
H355 H 0.27306 0.86629 0.70398 0.0
H356 H 0.50974 0.85457 0.79032 0.0
H357 H 0.46603 0.89093 0.81519 0.0
H358 H 0.485 0.7312 0.7309 0.0
H359 H 0.25669 0.83419 0.87829 0.0
H360 H 0.152 0.86437 0.6852 0.0
H361 H 0.21796 0.87595 0.6623 0.0
H362 H 0.10221 0.83288 0.80413 0.0
H363 H 0.35178 0.65729 0.71588 0.0
H364 H 0.42344 0.68103 0.71332 0.0
H365 H 0.10889 0.84696 0.738 0.0
H366 H 0.19434 0.82817 0.90594 0.0
N367 N 0.23936 0.84929 0.75121 0.0
C368 C 0.17622 0.86004 0.70394 0.0
C369 C 0.21343 0.86671 0.69093 0.0
C370 C 0.17086 0.84885 0.74109 0.0
C371 C 0.20342 0.84391 0.76446 0.0
C372 C 0.24483 0.86135 0.71498 0.0
N373 N 0.23185 0.83339 0.82387 0.0
C374 C 0.19954 0.83548 0.80181 0.0
C375 C 0.19528 0.82978 0.87662 0.0
C376 C 0.16123 0.82866 0.8545 0.0
C377 C 0.23064 0.83286 0.86074 0.0
C378 C 0.16319 0.83256 0.8166 0.0
H379 H 0.13389 0.82637 0.86689 0.0
O380 O 0.33779 0.89244 0.80195 0.0
O381 O 0.33657 0.81205 0.77485 0.0
O382 O 0.36195 0.80121 0.86074 0.0
O383 O 0.3186 0.84429 0.85185 0.0
O384 O 0.32641 0.86268 0.74442 0.0
O385 O 0.27781 0.89774 0.80192 0.0
O386 O 0.31382 0.69276 0.81997 0.0
O387 O 0.28 0.77524 0.82783 0.0
O388 O 0.2556 0.79034 0.75931 0.0
O389 O 0.28629 0.73672 0.77785 0.0
O390 O 0.30871 0.75174 0.87217 0.0
O391 O 0.36515 0.71757 0.85382 0.0
C392 C 0.34887 0.83723 0.74635 0.0
C393 C 0.13041 0.83551 0.79325 0.0
C394 C 0.13423 0.84364 0.75559 0.0
C395 C 0.31445 0.91742 0.80091 0.0
C396 C 0.32355 0.9548 0.77507 0.0
C397 C 0.36167 0.97976 0.77393 0.0
C398 C 0.29456 0.96454 0.74991 0.0
C399 C 0.30345 0.99779 0.72318 0.0
C400 C 0.37059 1.01336 0.74732 0.0
C401 C 0.34165 0.02213 0.7216 0.0
C402 C 0.34881 0.8325 0.86951 0.0
C403 C 0.27623 0.76212 0.86222 0.0
C404 C 0.33594 0.68589 0.84869 0.0
C405 C 0.31457 0.66542 0.88115 0.0
C406 C 0.274 0.64824 0.87862 0.0
C407 C 0.33395 0.6672 0.91553 0.0
C408 C 0.31363 0.65274 0.94741 0.0
C409 C 0.25351 0.63383 0.91009 0.0
C410 C 0.27312 0.63613 0.94435 0.0
C411 C 0.25892 0.75193 0.75869 0.0
H412 H 0.3846 0.97282 0.79313 0.0
H413 H 0.26509 0.94529 0.74997 0.0
H414 H 0.40012 0.03216 0.74623 0.0
H415 H 0.34903 0.04747 0.70051 0.0
H416 H 0.25788 0.64672 0.85245 0.0
H417 H 0.36538 0.67887 0.9172 0.0
H418 H 0.22232 0.62091 0.90791 0.0
H419 H 0.25686 0.62388 0.96836 0.0
Gd420 Gd 0.3331 0.29544 0.76137 0.0
Gd421 Gd 0.25327 0.27005 0.82573 0.0
C422 C 0.24427 0.16044 0.91221 0.0
C423 C 0.18975 0.10999 0.88766 0.0
C424 C 0.20974 0.17867 0.85578 0.0
C425 C 0.24015 0.18877 0.88169 0.0
C426 C 0.18341 0.13962 0.85923 0.0
C427 C 0.22009 0.12043 0.91418 0.0
C428 C 0.27072 0.17405 0.94096 0.0
C429 C 0.29032 0.2156 0.93979 0.0
N430 N 0.26259 0.22791 0.87938 0.0
C431 C 0.28519 0.24241 0.90891 0.0
H432 H 0.29938 0.27457 0.90878 0.0
C433 C 0.16955 0.20267 0.80806 0.0
N434 N 0.20371 0.20843 0.82927 0.0
C435 C 0.143 0.16423 0.81001 0.0
C436 C 0.15037 0.13227 0.83518 0.0
H437 H 0.16336 0.22713 0.78863 0.0
H438 H 0.22335 0.09801 0.93705 0.0
H439 H 0.2814 0.30718 0.68316 0.0
H440 H 0.27466 0.15334 0.96493 0.0
H441 H 0.30935 0.22701 0.96264 0.0
H442 H 0.17019 0.07962 0.89041 0.0
H443 H 0.41989 0.32606 0.80544 0.0
H444 H 0.32404 0.42957 0.63246 0.0
H445 H 0.27699 0.36162 0.63297 0.0
H446 H 0.43925 0.4807 0.70699 0.0
H447 H 0.11678 0.15933 0.79221 0.0
H448 H 0.1295 0.10266 0.83691 0.0
H449 H 0.38469 0.47402 0.66051 0.0
H450 H 0.47516 0.38739 0.80499 0.0
N451 N 0.32833 0.345 0.71195 0.0
C452 C 0.32569 0.406 0.65477 0.0
C453 C 0.29914 0.36768 0.65491 0.0
C454 C 0.35523 0.41267 0.6825 0.0
C455 C 0.35593 0.38096 0.71091 0.0
C456 C 0.3015 0.33705 0.6835 0.0
N457 N 0.38732 0.35219 0.76213 0.0
C458 C 0.38669 0.38458 0.73671 0.0
C459 C 0.45042 0.38703 0.78567 0.0
C460 C 0.44941 0.42135 0.76064 0.0
C461 C 0.41915 0.3523 0.78577 0.0
C462 C 0.41753 0.4202 0.73537 0.0
H463 H 0.47369 0.44818 0.76057 0.0
O464 O 0.37817 0.26273 0.75665 0.0
O465 O 0.30977 0.25972 0.81262 0.0
O466 O 0.31034 0.30961 0.84825 0.0
O467 O 0.34147 0.34702 0.79758 0.0
O468 O 0.36627 0.26121 0.80446 0.0
O469 O 0.3364 0.26874 0.71114 0.0
O470 O 0.21886 0.27736 0.87004 0.0
O471 O 0.27673 0.30848 0.77555 0.0
O472 O 0.28044 0.25102 0.73871 0.0
O473 O 0.24301 0.21906 0.78797 0.0
O474 O 0.21662 0.2868 0.77608 0.0
O475 O 0.2339 0.32673 0.82771 0.0
C476 C 0.33867 0.24553 0.82611 0.0
C477 C 0.41601 0.45289 0.70831 0.0
C478 C 0.3849 0.44912 0.6819 0.0
C479 C 0.36793 0.25623 0.72284 0.0
C480 C 0.40025 0.26511 0.69838 0.0
C481 C 0.41252 0.30429 0.67954 0.0
C482 C 0.42058 0.23442 0.69565 0.0
C483 C 0.45323 0.24264 0.67421 0.0
C484 C 0.44481 0.31268 0.65811 0.0
C485 C 0.4651 0.28216 0.65543 0.0
C486 C 0.33542 0.34211 0.83281 0.0
C487 C 0.24476 0.30881 0.75701 0.0
C488 C 0.21708 0.31487 0.85823 0.0
C489 C 0.22445 0.34541 0.88514 0.0
C490 C 0.26255 0.36256 0.89826 0.0
C491 C 0.19302 0.35886 0.89674 0.0
C492 C 0.19967 0.38985 0.92081 0.0
C493 C 0.26938 0.39331 0.92204 0.0
C494 C 0.23822 0.40709 0.93314 0.0
C495 C 0.25385 0.22057 0.75424 0.0
H496 H 0.39737 0.32838 0.68156 0.0
H497 H 0.41135 0.20438 0.71076 0.0
H498 H 0.45415 0.34292 0.64351 0.0
H499 H 0.48968 0.28932 0.63816 0.0
H500 H 0.28699 0.35241 0.89001 0.0
H501 H 0.16349 0.34564 0.88666 0.0
H502 H 0.29893 0.40645 0.93195 0.0
H503 H 0.24417 0.4306 0.952 0.0
Gd504 Gd 0.77659 0.32788 0.77928 0.0
Gd505 Gd 0.81312 0.23729 0.81148 0.0
C506 C 0.74666 0.14207 0.89691 0.0
C507 C 0.79589 0.14307 0.94676 0.0
C508 C 0.81116 0.18721 0.89034 0.0
C509 C 0.77343 0.17232 0.87594 0.0
C510 C 0.82293 0.17199 0.92557 0.0
C511 C 0.75788 0.12814 0.93246 0.0
C512 C 0.70942 0.1262 0.8815 0.0
C513 C 0.69962 0.14007 0.84591 0.0
N514 N 0.7631 0.18668 0.84147 0.0
C515 C 0.72677 0.17023 0.82617 0.0
H516 H 0.71733 0.18075 0.79922 0.0
C517 C 0.87562 0.22607 0.88056 0.0
N518 N 0.837 0.21494 0.86931 0.0
C519 C 0.88849 0.21202 0.91531 0.0
C520 C 0.86191 0.18535 0.93814 0.0
H521 H 0.89632 0.2465 0.86279 0.0
H522 H 0.73754 0.10525 0.94893 0.0
H523 H 0.86415 0.3947 0.78018 0.0
H524 H 0.68813 0.103 0.89674 0.0
H525 H 0.67085 0.12788 0.8337 0.0
H526 H 0.80434 0.13135 0.97396 0.0
H527 H 0.68649 0.31169 0.74013 0.0
H528 H 0.88189 0.45666 0.67306 0.0
H529 H 0.9056 0.44498 0.73724 0.0
H530 H 0.75764 0.41193 0.61006 0.0
H531 H 0.9189 0.22172 0.92442 0.0
H532 H 0.872 0.17435 0.96502 0.0
H533 H 0.82666 0.44339 0.62544 0.0
H534 H 0.65359 0.329 0.68081 0.0
N535 N 0.81818 0.37646 0.74034 0.0
C536 C 0.86366 0.43433 0.69173 0.0
C537 C 0.87707 0.42796 0.72797 0.0
C538 C 0.8261 0.41329 0.68052 0.0
C539 C 0.80361 0.38445 0.70592 0.0
C540 C 0.85349 0.39936 0.75222 0.0
N541 N 0.74337 0.34196 0.72342 0.0
C542 C 0.76488 0.3667 0.6972 0.0
C543 C 0.68495 0.33953 0.68496 0.0
C544 C 0.70706 0.3627 0.65681 0.0
C545 C 0.70362 0.32982 0.71847 0.0
C546 C 0.74743 0.37733 0.66295 0.0
H547 H 0.69253 0.3703 0.63091 0.0
O548 O 0.72904 0.34999 0.79734 0.0
O549 O 0.77315 0.2753 0.82194 0.0
O550 O 0.76572 0.21956 0.76431 0.0
O551 O 0.75652 0.28221 0.73494 0.0
O552 O 0.72061 0.28668 0.80113 0.0
O553 O 0.78821 0.38832 0.79907 0.0
O554 O 0.84081 0.18522 0.81657 0.0
O555 O 0.82127 0.2931 0.77239 0.0
O556 O 0.82345 0.34677 0.82636 0.0
O557 O 0.83821 0.28555 0.85368 0.0
O558 O 0.87149 0.28082 0.79965 0.0
O559 O 0.83065 0.21586 0.76355 0.0
C560 C 0.73684 0.26436 0.82534 0.0
C561 C 0.77038 0.40382 0.6367 0.0
C562 C 0.80969 0.42173 0.64546 0.0
C563 C 0.75153 0.3855 0.80419 0.0
C564 C 0.73601 0.42192 0.79259 0.0
C565 C 0.73854 0.44152 0.75699 0.0
C566 C 0.71758 0.43681 0.81833 0.0
C567 C 0.70143 0.47119 0.80912 0.0
C568 C 0.72222 0.47572 0.74745 0.0
C569 C 0.7035 0.49048 0.77334 0.0
C570 C 0.75152 0.24117 0.73586 0.0
C571 C 0.85821 0.30514 0.7747 0.0
C572 C 0.84152 0.18457 0.7816 0.0
C573 C 0.8256 0.14458 0.76696 0.0
C574 C 0.78693 0.12275 0.77217 0.0
C575 C 0.84872 0.12934 0.74547 0.0
C576 C 0.83337 0.09281 0.72868 0.0
C577 C 0.7714 0.08655 0.75542 0.0
C578 C 0.7944 0.07166 0.73355 0.0
C579 C 0.8405 0.32624 0.85356 0.0
H580 H 0.75292 0.43046 0.73676 0.0
H581 H 0.71535 0.42112 0.84569 0.0
H582 H 0.72409 0.49083 0.71996 0.0
H583 H 0.69117 0.51708 0.76562 0.0
H584 H 0.76858 0.13403 0.78853 0.0
H585 H 0.87841 0.14662 0.74096 0.0
H586 H 0.74135 0.07023 0.75915 0.0
H587 H 0.78193 0.04361 0.72068 0.0
Gd588 Gd 0.79682 0.83581 0.82461 0.0
Gd589 Gd 0.78446 0.75349 0.76814 0.0
C590 C 0.69616 0.73566 0.67076 0.0
C591 C 0.65264 0.66984 0.68946 0.0
C592 C 0.70791 0.69929 0.72947 0.0
C593 C 0.71817 0.73316 0.70417 0.0
C594 C 0.67553 0.66677 0.72205 0.0
C595 C 0.6629 0.70425 0.66389 0.0
C596 C 0.7088 0.7691 0.64486 0.0
C597 C 0.7432 0.79837 0.65217 0.0
N598 N 0.75065 0.76281 0.71151 0.0
C599 C 0.76409 0.79449 0.68563 0.0
H600 H 0.79061 0.81739 0.69077 0.0
C601 C 0.72455 0.66199 0.78418 0.0
N602 N 0.73084 0.69713 0.76053 0.0
C603 C 0.69282 0.62894 0.77799 0.0
C604 C 0.66786 0.63157 0.74704 0.0
H605 H 0.74357 0.65943 0.80819 0.0
H606 H 0.64547 0.7058 0.63851 0.0
H607 H 0.78595 0.77212 0.90377 0.0
H608 H 0.69269 0.77217 0.61891 0.0
H609 H 0.75359 0.82401 0.63211 0.0
H610 H 0.62748 0.64533 0.68341 0.0
H611 H 0.83541 0.93539 0.79508 0.0
H612 H 0.89185 0.8022 0.96937 0.0
H613 H 0.82529 0.75902 0.95945 0.0
H614 H 0.96282 0.92715 0.90711 0.0
H615 H 0.68761 0.60149 0.79711 0.0
H616 H 0.64335 0.60589 0.74228 0.0
H617 H 0.94356 0.86428 0.94898 0.0
H618 H 0.89543 0.98879 0.80647 0.0
N619 N 0.83052 0.82097 0.88034 0.0
C620 C 0.8748 0.80803 0.9445 0.0
C621 C 0.83721 0.78366 0.93904 0.0
C622 C 0.88908 0.84102 0.91871 0.0
C623 C 0.86569 0.84727 0.88672 0.0
C624 C 0.81502 0.79115 0.90703 0.0
N625 N 0.85135 0.89037 0.8349 0.0
C626 C 0.8765 0.88294 0.86321 0.0
C627 C 0.89067 0.95904 0.82242 0.0
C628 C 0.91841 0.95071 0.84946 0.0
C629 C 0.85664 0.92876 0.81611 0.0
C630 C 0.911 0.9128 0.87098 0.0
H631 H 0.94458 0.97439 0.85456 0.0
O632 O 0.78685 0.87333 0.86555 0.0
O633 O 0.76345 0.81147 0.77414 0.0
O634 O 0.8306 0.808 0.74591 0.0
O635 O 0.84611 0.85761 0.78728 0.0
O636 O 0.78504 0.87448 0.77223 0.0
O637 O 0.73984 0.84936 0.82761 0.0
O638 O 0.815 0.704 0.77196 0.0
O639 O 0.82013 0.77961 0.81782 0.0
O640 O 0.75483 0.77751 0.84583 0.0
O641 O 0.72742 0.74442 0.79527 0.0
O642 O 0.79649 0.71708 0.82172 0.0
O643 O 0.81865 0.74678 0.72341 0.0
C644 C 0.76378 0.84566 0.75389 0.0
C645 C 0.93591 0.90487 0.90108 0.0
C646 C 0.92494 0.86905 0.92492 0.0
C647 C 0.75125 0.87308 0.85364 0.0
C648 C 0.74064 0.9132 0.8491 0.0
C649 C 0.75315 0.94261 0.81984 0.0
C650 C 0.7185 0.92253 0.87534 0.0
C651 C 0.70965 0.96159 0.87337 0.0
C652 C 0.74439 0.98133 0.81743 0.0
C653 C 0.72305 0.99101 0.84409 0.0
C654 C 0.85186 0.84283 0.75726 0.0
C655 C 0.81909 0.74585 0.83881 0.0
C656 C 0.82846 0.71385 0.73962 0.0
C657 C 0.82682 0.67928 0.71767 0.0
C658 C 0.79179 0.64997 0.71204 0.0
C659 C 0.86149 0.67375 0.7047 0.0
C660 C 0.86175 0.63824 0.68737 0.0
C661 C 0.79147 0.61506 0.69472 0.0
C662 C 0.82606 0.60887 0.68294 0.0
C663 C 0.72494 0.75442 0.82839 0.0
H664 H 0.76976 0.93586 0.799 0.0
H665 H 0.70808 0.89903 0.89723 0.0
H666 H 0.75448 1.004 0.79498 0.0
H667 H 0.71753 0.02164 0.84195 0.0
H668 H 0.76484 0.65351 0.72168 0.0
H669 H 0.88819 0.6971 0.7086 0.0
H670 H 0.76438 0.59218 0.6911 0.0
H671 H 0.82467 0.58045 0.67111 0.0
Fe672 Fe 1.03662 0.11609 0.54276 0.0
O673 O 0.03998 0.05883 0.55846 0.0
Fe674 Fe 0.09205 0.04193 0.55356 0.0
Fe675 Fe 1.0033 1.0092 0.53992 0.0
O676 O 0.04341 0.0604 0.55839 0.0
O677 O 0.05606 0.99383 0.53154 0.0
O678 O 0.05192 0.99183 0.5319 0.0
Fe679 Fe 0.05868 0.93613 0.54806 0.0
C680 C 0.95813 0.06494 0.57021 0.0
O681 O 1.00055 0.10078 0.49732 0.0
O682 O 1.0046 0.03719 0.48814 0.0
O683 O 0.10857 0.95508 0.52002 0.0
O684 O 0.13906 1.01619 0.54457 0.0
O685 O 0.10024 0.07356 0.50274 0.0
O686 O 0.08393 0.13247 0.50942 0.0
O687 O 0.97098 0.95551 0.51747 0.0
O688 O 1.01726 0.92095 0.50573 0.0
C689 C 0.10112 0.11133 0.49249 0.0
O690 O 0.09649 0.95168 0.59248 0.0
O691 O 0.08527 1.01069 0.60431 0.0
O692 O 0.9874 0.09672 0.57259 0.0
O693 O 0.95681 0.0339 0.55155 0.0
C694 C 0.99703 0.07171 0.47702 0.0
C695 C 0.98247 0.92823 0.50121 0.0
C696 C 0.99749 0.94126 0.60012 0.0
O697 O 0.99965 0.97963 0.59202 0.0
O698 O 1.01205 0.92052 0.58063 0.0
C699 C 0.13904 0.98416 0.52757 0.0
O700 O 0.12306 0.09396 0.5796 0.0
O701 O 0.07633 0.13013 0.58601 0.0
C702 C 0.10095 0.98054 0.61311 0.0
C703 C 0.10998 0.12119 0.59454 0.0
Fe704 Fe 0.52242 0.99218 0.07132 0.0
O705 O 0.5238 0.05135 0.06969 0.0
Fe706 Fe 0.47458 0.07234 0.0473 0.0
Fe707 Fe 0.56562 0.0948 0.0452 0.0
O708 O 0.51971 0.04994 0.06925 0.0
O709 O 0.51661 0.11659 0.02303 0.0
O710 O 0.52099 0.11832 0.02396 0.0
Fe711 Fe 0.52162 0.17693 0.02527 0.0
C712 C 0.60252 0.03683 0.10047 0.0
O713 O 0.5621 1.00016 0.03124 0.0
O714 O 0.56074 0.06133 1.00134 0.0
O715 O 0.47257 0.16369 0.99078 0.0
O716 O 0.43326 0.10424 0.01857 0.0
O717 O 0.46694 0.03651 1.00372 0.0
O718 O 0.47729 0.97746 0.03266 0.0
O719 O 0.60375 0.1431 1.01399 0.0
O720 O 0.56278 0.18353 0.98712 0.0
C721 C 0.46305 0.99736 1.00566 0.0
O722 O 0.48274 0.16901 0.06564 0.0
O723 O 0.48 0.10527 0.09149 0.0
O724 O 0.57022 1.00935 0.10637 0.0
O725 O 0.60736 0.06516 0.07287 0.0
C726 C 0.56867 0.02614 1.00317 0.0
C727 C 0.59444 0.17 0.98845 0.0
C728 C 0.58027 0.16636 0.0906 0.0
O729 O 0.57249 0.12751 0.08983 0.0
O730 O 0.56844 0.18947 0.06448 0.0
C731 C 0.4392 0.13728 0.99489 0.0
O732 O 0.43715 0.02297 0.07909 0.0
O733 O 0.47971 0.98502 0.1081 0.0
C734 C 0.47454 0.14116 0.09202 0.0
C735 C 0.44644 0.99564 0.10451 0.0
Fe736 Fe 1.02826 0.65314 0.0454 0.0
O737 O 1.01459 0.59018 0.04885 0.0
Fe738 Fe 0.06608 0.55972 0.0662 0.0
Fe739 Fe 0.95848 0.5565 0.05786 0.0
O740 O 1.02249 0.59129 0.04586 0.0
O741 O 1.01938 0.5209 0.08689 0.0
O742 O 1.00292 0.52389 0.08568 0.0
Fe743 Fe 1.00917 0.46073 0.08487 0.0
C744 C 0.95639 0.634 0.10352 0.0
O745 O 0.98665 0.65397 1.00091 0.0
O746 O 0.93696 0.60018 0.01848 0.0
O747 O 0.0474 0.4666 0.04428 0.0
O748 O 0.0605 0.5311 0.01953 0.0
O749 O 0.11052 0.60823 0.03753 0.0
O750 O 0.07648 0.65563 1.01114 0.0
O751 O 0.95592 0.51666 1.01519 0.0
O752 O 0.96282 0.45441 0.04292 0.0
C753 C 0.10738 0.63995 1.01348 0.0
O754 O 0.05998 0.46289 0.12334 0.0
O755 O 0.10471 0.51655 0.09658 0.0
O756 O 0.98218 0.65751 0.08214 0.0
O757 O 0.95095 0.59404 0.10201 0.0
C758 C 0.95051 0.63398 0.99761 0.0
C759 C 0.95086 0.47672 1.01538 0.0
C760 C 0.94697 0.47522 0.12206 0.0
O761 O 0.95314 0.50538 0.09713 0.0
O762 O 0.96936 0.45021 0.12479 0.0
C763 C 0.06105 0.49361 0.01887 0.0
O764 O 0.07286 0.58957 0.11114 0.0
O765 O 0.0666 0.65383 0.09049 0.0
C766 C 0.09683 0.48157 0.1198 0.0
C767 C 0.07668 0.62749 0.1149 0.0
Fe768 Fe 0.54136 0.531 1.00434 0.0
O769 O 0.57383 0.56944 0.03839 0.0
Fe770 Fe 0.47688 0.46302 0.06084 0.0
Fe771 Fe 0.62734 0.60115 0.03176 0.0
O772 O 0.53058 0.49224 0.04968 0.0
O773 O 0.53181 0.4919 0.05355 0.0
O774 O 0.57511 0.56894 0.04152 0.0
Fe775 Fe 0.56138 0.53246 0.08713 0.0
C776 C 0.62174 0.52795 0.98594 0.0
O777 O 0.55826 0.57688 0.96105 0.0
O778 O 0.59993 0.63038 0.98878 0.0
O779 O 0.51537 0.55735 0.08833 0.0
O780 O 0.4663 0.50252 0.09719 0.0
O781 O 0.45224 0.49594 0.01989 0.0
O782 O 0.49461 0.55587 1.01186 0.0
O783 O 0.61743 0.63366 0.07319 0.0
O784 O 0.59298 0.58067 0.11664 0.0
C785 C 0.45975 0.5349 1.0155 0.0
O786 O 0.54102 0.48912 0.13145 0.0
O787 O 0.50282 0.43372 0.10423 0.0
O788 O 0.58794 0.50755 0.99507 0.0
O789 O 0.63719 0.56436 0.99438 0.0
C790 C 0.5796 0.61455 0.96077 0.0
C791 C 0.60835 0.61928 0.10637 0.0
C792 C 0.64428 0.53143 0.08843 0.0
O793 O 0.65345 0.56791 0.07247 0.0
O794 O 0.60965 0.50913 0.08642 0.0
C795 C 0.48102 0.54119 0.09757 0.0
O796 O 0.48554 0.4303 0.0197 0.0
O797 O 0.50471 0.48399 0.97514 0.0
C798 C 0.52054 0.45107 0.13246 0.0
C799 C 0.48803 0.44555 0.98573 0.0
Fe800 Fe 0.05022 0.41297 0.55845 0.0
O801 O 0.05624 0.4715 0.56265 0.0
Fe802 Fe 0.07813 0.51584 0.5197 0.0
Fe803 Fe 0.08203 0.50137 0.60533 0.0
O804 O 0.05457 0.47268 0.55888 0.0
O805 O 0.10746 0.54401 0.56192 0.0
O806 O 0.10883 0.54284 0.56639 0.0
Fe807 Fe 0.11062 0.60265 0.56592 0.0
C808 C 1.01984 0.42242 0.6328 0.0
O809 O 0.09335 0.40772 0.59805 0.0
O810 O 0.1275 0.46988 0.61207 0.0
O811 O 0.14767 0.60937 0.5246 0.0
O812 O 0.11006 0.56643 0.48408 0.0
O813 O 0.12234 0.48745 0.51645 0.0
O814 O 0.09127 0.4208 0.51867 0.0
O815 O 0.11264 0.54127 0.64476 0.0
O816 O 0.14887 0.596 0.6092 0.0
C817 C 0.11933 0.45098 0.50846 0.0
O818 O 0.0685 0.60779 0.52518 0.0
O819 O 1.033 0.54415 0.52144 0.0
O820 O 1.01309 0.40662 0.60156 0.0
O821 O 0.04826 0.45404 0.63982 0.0
C822 C 0.12346 0.43069 0.61266 0.0
C823 C 0.13948 0.5758 0.64038 0.0
C824 C 1.03743 0.56694 0.60742 0.0
O825 O 1.03598 0.52995 0.60163 0.0
O826 O 0.06858 0.59514 0.60394 0.0
C827 C 0.13963 0.59695 0.49226 0.0
O828 O 0.04193 0.47907 0.48086 0.0
O829 O 1.0105 0.42005 0.51532 0.0
C830 C 1.0362 0.58285 0.51831 0.0
C831 C 1.01478 0.44474 0.48541 0.0
Fe832 Fe 0.57617 0.92562 0.52795 0.0
O833 O 0.58711 0.98739 0.52512 0.0
Fe834 Fe 0.56188 0.02059 0.47406 0.0
Fe835 Fe 0.57176 1.01556 0.56587 0.0
O836 O 0.58595 0.98832 0.5181 0.0
O837 O 0.546 0.04687 0.51591 0.0
O838 O 0.54806 0.04706 0.52221 0.0
Fe839 Fe 0.5537 0.10798 0.51798 0.0
C840 C 0.51324 0.93465 0.58479 0.0
O841 O 0.61988 0.93257 0.57062 0.0
O842 O 0.60165 0.97744 0.60507 0.0
O843 O 0.59192 0.12251 0.47601 0.0
O844 O 0.61284 0.06543 0.471 0.0
O845 O 0.59137 0.98224 0.4397 0.0
O846 O 0.61208 0.93252 0.48065 0.0
O847 O 0.62449 0.06147 0.56853 0.0
O848 O 0.60086 0.11778 0.55837 0.0
C849 C 0.61148 0.95177 0.44736 0.0
O850 O 0.50768 0.10377 0.47616 0.0
O851 O 0.52591 0.06424 0.43658 0.0
O852 O 0.53509 0.91362 0.57262 0.0
O853 O 0.51804 0.97249 0.57201 0.0
C854 C 0.62136 0.94937 0.60098 0.0
C855 C 0.62606 0.09899 0.57476 0.0
C856 C 0.52625 0.07388 0.59398 0.0
O857 O 0.5499 0.04905 0.60119 0.0
O858 O 0.51914 0.09225 0.56217 0.0
C859 C 0.61572 0.10409 0.46458 0.0
O860 O 0.51079 0.97604 0.47566 0.0
O861 O 0.53125 0.91749 0.48914 0.0
C862 C 0.50467 0.09184 0.4435 0.0
C863 C 0.50697 0.9376 0.47421 0.0
H864 H 0.21598 0.17104 0.3639 0.0
H865 H 0.18106 0.28507 0.36876 0.0
H866 H 0.13761 0.25225 0.41742 0.0
H867 H 0.11105 0.19132 0.46032 0.0
H868 H 0.14403 0.07671 0.45227 0.0
H869 H 0.18606 0.10942 0.40307 0.0
C870 C 0.19862 0.18874 0.37529 0.0
C871 C 0.20273 0.23091 0.36323 0.0
C872 C 0.17322 0.16946 0.4029 0.0
C873 C 0.17957 0.253 0.37822 0.0
C874 C 0.15443 0.2341 0.40594 0.0
C875 C 0.1273 0.17341 0.44775 0.0
C876 C 0.12466 0.13156 0.4607 0.0
C877 C 0.15139 0.19243 0.4189 0.0
C878 C 0.14573 0.10898 0.44352 0.0
C879 C 0.16981 0.12768 0.41518 0.0
H880 H 0.92489 0.12474 0.32537 0.0
H881 H 0.82252 0.04223 0.37053 0.0
H882 H 0.86301 0.01825 0.42108 0.0
H883 H 0.92526 0.03025 0.45775 0.0
H884 H 1.02454 0.12187 0.41759 0.0
H885 H 0.98765 0.1336 0.35986 0.0
C886 C 0.91152 0.10117 0.34611 0.0
C887 C 0.87075 0.08609 0.34485 0.0
C888 C 0.93444 0.08983 0.37623 0.0
C889 C 0.85386 0.05445 0.371 0.0
C890 C 0.87693 0.04107 0.40012 0.0
C891 C 0.93878 0.05217 0.43592 0.0
C892 C 0.9771 0.0754 0.44129 0.0
C893 C 0.91685 0.06003 0.40386 0.0
C894 C 0.99482 0.10404 0.41355 0.0
C895 C 0.97382 0.11059 0.38076 0.0
H896 H 0.88618 0.81202 0.38596 0.0
H897 H 0.82698 0.91139 0.36555 0.0
H898 H 0.86624 0.94624 0.41562 0.0
H899 H 0.92025 0.95038 0.46262 0.0
H900 H 0.98154 0.85216 0.48073 0.0
H901 H 0.93823 0.81456 0.43475 0.0
C902 C 0.88128 0.84076 0.39323 0.0
C903 C 0.85328 0.85879 0.37292 0.0
C904 C 0.90455 0.86095 0.42144 0.0
C905 C 0.84811 0.89684 0.38135 0.0
C906 C 0.87062 0.91677 0.40981 0.0
C907 C 0.92386 0.92053 0.45682 0.0
C908 C 0.95425 0.90424 0.47509 0.0
C909 C 0.89935 0.89943 0.42972 0.0
C910 C 0.95867 0.86565 0.46691 0.0
C911 C 0.93388 0.84407 0.44062 0.0
H912 H 0.19862 0.92836 0.40764 0.0
H913 H 0.17682 0.8171 0.48183 0.0
H914 H 0.18311 0.85855 0.53314 0.0
H915 H 0.17306 0.92262 0.55192 0.0
H916 H 0.18498 0.03091 0.47546 0.0
H917 H 0.20806 0.99551 0.43055 0.0
C918 C 0.19698 0.91302 0.43509 0.0
C919 C 0.1858 0.86961 0.44085 0.0
C920 C 0.19919 0.93691 0.4641 0.0
C921 C 0.18391 0.85045 0.47667 0.0
C922 C 0.18776 0.87415 0.50599 0.0
C923 C 0.18315 0.93912 0.52619 0.0
C924 C 0.17572 0.97829 0.51595 0.0
C925 C 0.19228 0.91706 0.49954 0.0
C926 C 0.18954 1.00022 0.48329 0.0
C927 C 0.20184 0.97957 0.45736 0.0
H928 H 0.23909 0.02525 0.73129 0.0
H929 H 0.29834 0.97795 0.6543 0.0
H930 H 0.23913 0.96604 0.61401 0.0
H931 H 0.16975 0.96373 0.60364 0.0
H932 H 0.11039 1.01516 0.6777 0.0
H933 H 0.17056 0.0305 0.71698 0.0
C934 C 0.23915 1.01366 0.70508 0.0
C935 C 0.27274 1.00293 0.69521 0.0
C936 C 0.20494 1.0065 0.68242 0.0
C937 C 0.27283 0.98719 0.66174 0.0
C938 C 0.23891 0.97977 0.63913 0.0
C939 C 0.16981 0.97789 0.62856 0.0
C940 C 0.13554 0.9871 0.63854 0.0
C941 C 0.20458 0.98813 0.6498 0.0
C942 C 0.13634 1.00688 0.67014 0.0
C943 C 0.17071 1.01596 0.69229 0.0
H944 H 0.18411 0.22671 0.72438 0.0
H945 H 0.27006 0.15447 0.72696 0.0
H946 H 0.23282 0.11597 0.67763 0.0
H947 H 0.17724 0.10623 0.63126 0.0
H948 H 0.09556 0.18478 0.62674 0.0
H949 H 0.13013 0.218 0.67848 0.0
C950 C 0.19425 0.20208 0.71444 0.0
C951 C 0.22906 0.19265 0.72949 0.0
C952 C 0.17389 0.18188 0.6851 0.0
C953 C 0.24272 0.16146 0.71605 0.0
C954 C 0.22169 0.13988 0.68764 0.0
C955 C 0.16718 0.13079 0.6414 0.0
C956 C 0.1337 0.14278 0.62475 0.0
C957 C 0.18755 0.15043 0.67139 0.0
C958 C 0.12108 0.17458 0.63869 0.0
C959 C 0.14075 0.19368 0.66853 0.0
H960 H 0.81577 0.07153 0.65935 0.0
H961 H 0.90658 0.08208 0.7454 0.0
H962 H 0.95229 0.07034 0.70388 0.0
H963 H 0.96847 0.06573 0.64187 0.0
H964 H 0.87919 0.0553 0.55479 0.0
H965 H 0.83038 0.05798 0.59793 0.0
C966 C 0.84533 0.07034 0.66906 0.0
C967 C 0.85815 0.07832 0.70511 0.0
C968 C 0.87167 0.06424 0.64481 0.0
C969 C 0.89644 0.07672 0.71755 0.0
C970 C 0.92252 0.07006 0.69387 0.0
C971 C 0.93817 0.0637 0.63251 0.0
C972 C 0.92722 0.06123 0.59544 0.0
C973 C 0.91081 0.06531 0.65724 0.0
C974 C 0.88801 0.05761 0.58335 0.0
C975 C 0.86031 0.05924 0.60795 0.0
H976 H 0.89725 0.81544 0.71537 0.0
H977 H 0.87125 0.92694 0.74346 0.0
H978 H 0.91569 0.96814 0.69864 0.0
H979 H 0.95906 0.97172 0.64851 0.0
H980 H 0.98458 0.859 0.62152 0.0
H981 H 0.94342 0.81936 0.66868 0.0
C982 C 0.90166 0.84881 0.71189 0.0
C983 C 0.88137 0.86817 0.73288 0.0
C984 C 0.92702 0.87215 0.68599 0.0
C985 C 0.88728 0.9114 0.72823 0.0
C986 C 0.91237 0.93495 0.70229 0.0
C987 C 0.95587 0.93856 0.65315 0.0
C988 C 0.97469 0.91852 0.63111 0.0
C989 C 0.93205 0.91557 0.68063 0.0
C990 C 0.97033 0.87545 0.63775 0.0
C991 C 0.94673 0.85255 0.66479 0.0
H992 H 0.33733 0.15211 0.18145 0.0
H993 H 0.39385 0.08074 0.26397 0.0
H994 H 0.44701 0.08629 0.22345 0.0
H995 H 0.47426 0.10787 0.16252 0.0
H996 H 0.42061 0.18717 0.08514 0.0
H997 H 0.37042 0.1846 0.12743 0.0
C998 C 0.3618 0.13888 0.19154 0.0
C999 C 0.36114 0.11536 0.22566 0.0
C1000 C 0.39297 0.14423 0.16925 0.0
C1001 C 0.39298 0.09791 0.23741 0.0
C1002 C 0.42356 0.10149 0.21445 0.0
C1003 C 0.45203 0.1253 0.1554 0.0
C1004 C 0.45071 0.14729 0.12073 0.0
C1005 C 0.4234 0.12398 0.17999 0.0
C1006 C 0.42221 0.17016 0.11173 0.0
C1007 C 0.39329 0.16833 0.1357 0.0
H1008 H 0.83962 0.43521 0.25315 0.0
H1009 H 0.77478 0.34372 0.18474 0.0
H1010 H 0.81579 0.37595 0.13389 0.0
H1011 H 0.87757 0.42214 0.11353 0.0
H1012 H 0.94401 0.51162 0.18309 0.0
H1013 H 0.89489 0.48881 0.22903 0.0
C1014 C 0.83433 0.4229 0.22683 0.0
C1015 C 0.8059 0.38632 0.22268 0.0
C1016 C 0.8584 0.44118 0.19824 0.0
C1017 C 0.79771 0.37113 0.1885 0.0
C1018 C 0.82099 0.38963 0.15953 0.0
C1019 C 0.8805 0.43726 0.13838 0.0
C1020 C 0.91411 0.468 0.14552 0.0
C1021 C 0.85264 0.42336 0.16474 0.0
C1022 C 0.91818 0.48771 0.17749 0.0
C1023 C 0.89023 0.47462 0.20365 0.0
H1024 H 0.72345 0.99766 0.22546 0.0
H1025 H 0.80293 0.09059 0.16042 0.0
H1026 H 0.74797 0.10465 0.12001 0.0
H1027 H 0.67816 0.08353 0.09907 0.0
H1028 H 0.60085 0.98716 0.16409 0.0
H1029 H 0.65417 0.98107 0.20804 0.0
C1030 C 0.72862 0.02137 0.20266 0.0
C1031 C 0.76698 0.04256 0.19544 0.0
C1032 C 0.69736 0.02798 0.17901 0.0
C1033 C 0.77348 0.07384 0.16639 0.0
C1034 C 0.74215 0.08149 0.14309 0.0
C1035 C 0.67297 0.06131 0.12289 0.0
C1036 C 0.63555 0.03525 0.12759 0.0
C1037 C 0.70409 0.05756 0.14835 0.0
C1038 C 0.62934 1.00713 0.15908 0.0
C1039 C 0.65981 1.00369 0.18454 0.0
H1040 H 0.20846 0.68383 0.23044 0.0
H1041 H 0.15977 0.79155 0.21761 0.0
H1042 H 0.10621 0.75669 0.17857 0.0
H1043 H 0.07776 0.69828 0.14332 0.0
H1044 H 0.12588 0.58999 0.15892 0.0
H1045 H 0.1741 0.62186 0.20387 0.0
C1046 C 0.18583 0.69953 0.2198 0.0
C1047 C 0.18878 0.74062 0.22573 0.0
C1048 C 0.15482 0.67908 0.19838 0.0
C1049 C 0.15907 0.76047 0.21194 0.0
C1050 C 0.12814 0.7404 0.1901 0.0
C1051 C 0.09847 0.68153 0.15701 0.0
C1052 C 0.0992 0.64264 0.14724 0.0
C1053 C 0.12648 0.70015 0.1823 0.0
C1054 C 0.12519 0.62039 0.16576 0.0
C1055 C 0.15294 0.6386 0.19124 0.0
H1056 H 0.35052 0.91254 0.8792 0.0
H1057 H 0.39648 0.80844 0.92542 0.0
H1058 H 0.43594 0.85049 0.97085 0.0
H1059 H 0.45835 0.91676 0.9967 0.0
H1060 H 0.41464 0.02208 0.94965 0.0
H1061 H 0.3738 0.97969 0.90491 0.0
C1062 C 0.36879 0.89886 0.89948 0.0
C1063 C 0.37014 0.85709 0.89906 0.0
C1064 C 0.39222 0.9236 0.92506 0.0
C1065 C 0.39465 0.84029 0.92515 0.0
C1066 C 0.41736 0.86441 0.95108 0.0
C1067 C 0.43995 0.93067 0.97671 0.0
C1068 C 0.43967 0.97278 0.97678 0.0
C1069 C 0.4166 0.90614 0.95111 0.0
C1070 C 0.41571 0.98997 0.95031 0.0
C1071 C 0.39215 0.96562 0.9248 0.0
H1072 H 0.19235 0.46848 0.92409 0.0
H1073 H 0.13294 0.34095 0.94821 0.0
H1074 H 0.08196 0.36216 0.9771 0.0
H1075 H 0.05799 0.41652 1.00082 0.0
H1076 H 0.11728 0.54428 0.97691 0.0
H1077 H 0.16414 0.52348 0.94214 0.0
C1078 C 0.16803 0.44541 0.93544 0.0
C1079 C 0.1666 0.40319 0.93438 0.0
C1080 C 0.13885 0.45786 0.95207 0.0
C1081 C 0.13464 0.37361 0.94862 0.0
C1082 C 0.10559 0.38572 0.96529 0.0
C1083 C 0.08079 0.43989 0.98752 0.0
C1084 C 0.08431 0.48187 0.99186 0.0
C1085 C 0.10789 0.4277 0.96791 0.0
C1086 C 0.11377 0.51175 0.97405 0.0
C1087 C 0.14083 0.49986 0.95438 0.0
H1088 H 0.66021 0.23041 0.83281 0.0
H1089 H 0.7699 0.25794 0.89527 0.0
H1090 H 0.73685 0.22822 0.95142 0.0
H1091 H 0.67515 0.19633 0.9834 0.0
H1092 H 0.56605 0.17247 0.91914 0.0
H1093 H 0.60018 0.19808 0.86362 0.0
C1094 C 0.67688 0.22982 0.85873 0.0
C1095 C 0.71751 0.24565 0.8597 0.0
C1096 C 0.65761 0.21314 0.89084 0.0
C1097 C 0.73865 0.2452 0.89361 0.0
C1098 C 0.71969 0.22829 0.92579 0.0
C1099 C 0.65906 0.19643 0.95719 0.0
C1100 C 0.61796 0.18275 0.95558 0.0
C1101 C 0.679 0.21225 0.92487 0.0
C1102 C 0.59757 0.18326 0.92131 0.0
C1103 C 0.61706 0.19793 0.88941 0.0
H1104 H 0.80968 0.67687 0.88822 0.0
H1105 H 0.89758 0.78546 0.85566 0.0
H1106 H 0.94495 0.76166 0.90055 0.0
H1107 H 0.96256 0.70822 0.94938 0.0
H1108 H 0.87315 0.5994 0.97963 0.0
H1109 H 0.82665 0.62464 0.93603 0.0
C1110 C 0.83914 0.69577 0.89096 0.0
C1111 C 0.84905 0.73391 0.86841 0.0
C1112 C 0.86667 0.68132 0.91675 0.0
C1113 C 0.88802 0.75681 0.87265 0.0
C1114 C 0.91546 0.74277 0.8984 0.0
C1115 C 0.93296 0.68975 0.94655 0.0
C1116 C 0.92236 0.65109 0.96875 0.0
C1117 C 0.90538 0.70483 0.9207 0.0
C1118 C 0.88324 0.62874 0.96377 0.0
C1119 C 0.85619 0.64338 0.93851 0.0
H1120 H 0.25369 0.40822 0.19666 0.0
H1121 H 0.16654 0.33047 0.26435 0.0
H1122 H 0.11646 0.36113 0.23007 0.0
H1123 H 0.09329 0.41282 0.18017 0.0
H1124 H 0.18094 0.4958 0.11587 0.0
H1125 H 0.23071 0.46219 0.14775 0.0
C1126 C 0.22364 0.39621 0.20372 0.0
C1127 C 0.21611 0.3616 0.23316 0.0
C1128 C 0.19319 0.41675 0.18371 0.0
C1129 C 0.17574 0.35263 0.24126 0.0
C1130 C 0.14609 0.37162 0.22141 0.0
C1131 C 0.12315 0.42443 0.17244 0.0
C1132 C 0.13043 0.45932 0.14335 0.0
C1133 C 0.15365 0.40409 0.19225 0.0
C1134 C 0.17128 0.47075 0.13668 0.0
C1135 C 0.20086 0.45062 0.15557 0.0
H1136 H 0.27166 0.72939 0.93565 0.0
H1137 H 0.19452 0.74498 0.84171 0.0
H1138 H 0.13799 0.71194 0.87837 0.0
H1139 H 0.10846 0.67672 0.93857 0.0
H1140 H 0.18755 0.65412 0.02932 0.0
H1141 H 0.24307 0.69066 0.99343 0.0
C1142 C 0.24256 0.72599 0.92277 0.0
C1143 C 0.23893 0.74186 0.88497 0.0
C1144 C 0.20941 0.70479 0.94415 0.0
C1145 C 0.19988 0.735 0.87014 0.0
C1146 C 0.16697 0.71543 0.8915 0.0
C1147 C 0.13777 0.6794 0.95079 0.0
C1148 C 0.14223 0.66167 0.9881 0.0
C1149 C 0.17096 0.69989 0.92878 0.0
C1150 C 0.18157 0.66632 1.00163 0.0
C1151 C 0.21393 0.68774 0.98072 0.0
H1152 H 0.32163 0.16547 0.86048 0.0
H1153 H 0.38594 0.2897 0.8729 0.0
H1154 H 0.4147 0.26798 0.93124 0.0
H1155 H 0.42941 0.21336 0.9741 0.0
H1156 H 0.37715 0.08613 0.95844 0.0
H1157 H 0.33556 0.10845 0.90693 0.0
C1158 C 0.34078 0.18773 0.87683 0.0
C1159 C 0.34859 0.23026 0.8641 0.0
C1160 C 0.36018 0.17398 0.90944 0.0
C1161 C 0.376 0.25807 0.88408 0.0
C1162 C 0.3935 0.24525 0.91695 0.0
C1163 C 0.4085 0.19027 0.95985 0.0
C1164 C 0.40676 0.14809 0.97006 0.0
C1165 C 0.38659 0.20329 0.92942 0.0
C1166 C 0.37908 0.1188 0.95142 0.0
C1167 C 0.35568 0.13166 0.9216 0.0
H1168 H 0.85818 0.41179 0.86498 0.0
H1169 H 0.87345 0.29477 0.91775 0.0
H1170 H 0.90771 0.32889 0.96982 0.0
H1171 H 0.93394 0.39225 1.00259 0.0
H1172 H 0.91856 0.50963 0.95076 0.0
H1173 H 0.88477 0.47569 0.89802 0.0
C1174 C 0.86903 0.39346 0.88769 0.0
C1175 C 0.8628 0.34972 0.88596 0.0
C1176 C 0.88915 0.41379 0.91873 0.0
C1177 C 0.87754 0.32787 0.91676 0.0
C1178 C 0.8973 0.34767 0.94719 0.0
C1179 C 0.92336 0.41081 0.9799 0.0
C1180 C 0.92963 0.45446 0.98192 0.0
C1181 C 0.90344 0.39069 0.94881 0.0
C1182 C 0.91496 0.47657 0.95121 0.0
C1183 C 0.8953 0.45686 0.92054 0.0
H1184 H 0.65561 1.00916 0.86517 0.0
H1185 H 0.71245 0.93654 0.94644 0.0
H1186 H 0.67198 0.94784 0.99263 0.0
H1187 H 0.62069 0.97812 1.01034 0.0
H1188 H 0.56795 0.05634 0.93132 0.0
H1189 H 0.60723 0.0437 0.88398 0.0
C1190 C 0.65963 0.99624 0.89304 0.0
C1191 C 0.68666 0.97128 0.90193 0.0
C1192 C 0.63693 1.00377 0.91991 0.0
C1193 C 0.69111 0.95474 0.93833 0.0
C1194 C 0.66817 0.96145 0.96495 0.0
C1195 C 0.61746 0.99204 0.98266 0.0
C1196 C 0.591 0.01748 0.97412 0.0
C1197 C 0.64078 0.98556 0.95599 0.0
C1198 C 0.58791 0.03628 0.9384 0.0
C1199 C 0.61038 0.02912 0.9114 0.0
H1200 H 0.8746 0.68492 0.24647 0.0
H1201 H 0.83737 0.77266 0.16665 0.0
H1202 H 0.87385 0.75213 0.12084 0.0
H1203 H 0.9164 0.70534 0.09954 0.0
H1204 H 0.9418 0.60854 0.17781 0.0
H1205 H 0.9109 0.63457 0.22436 0.0
C1206 C 0.87469 0.70088 0.21933 0.0
C1207 C 0.85484 0.73543 0.21344 0.0
C1208 C 0.89407 0.68554 0.19093 0.0
C1209 C 0.855 0.75095 0.17581 0.0
C1210 C 0.87533 0.73732 0.14833 0.0
C1211 C 0.9158 0.6894 0.12671 0.0
C1212 C 0.93404 0.65354 0.13292 0.0
C1213 C 0.89555 0.70446 0.15493 0.0
C1214 C 0.9299 0.63534 0.16969 0.0
C1215 C 0.91159 0.65079 0.19729 0.0
H1216 H 0.37013 0.89127 0.24423 0.0
H1217 H 0.28638 0.83482 0.16306 0.0
H1218 H 0.31894 0.88499 0.11527 0.0
H1219 H 0.37427 0.94276 0.0957 0.0
H1220 H 0.4583 0.9984 0.17709 0.0
H1221 H 0.42254 0.95197 0.22525 0.0
C1222 C 0.35862 0.89057 0.21617 0.0
C1223 C 0.32514 0.86005 0.20738 0.0
C1224 C 0.37775 0.91955 0.18866 0.0
C1225 C 0.31153 0.85859 0.17065 0.0
C1226 C 0.33024 0.88725 0.14326 0.0
C1227 C 0.38393 0.94555 0.12407 0.0
C1228 C 0.41859 0.97459 0.13278 0.0
C1229 C 0.36357 0.91784 0.1518 0.0
C1230 C 0.43142 0.97678 0.16967 0.0
C1231 C 0.41125 0.94982 0.19724 0.0
H1232 H 0.7018 0.21032 0.22416 0.0
H1233 H 0.6697 0.32728 0.20533 0.0
H1234 H 0.62266 0.30095 0.15569 0.0
H1235 H 0.59308 0.24466 0.11519 0.0
H1236 H 0.62687 0.12812 0.13705 0.0
H1237 H 0.67104 0.15447 0.18696 0.0
C1238 C 0.68463 0.23018 0.20911 0.0
C1239 C 0.68973 0.27092 0.21811 0.0
C1240 C 0.65803 0.21488 0.18069 0.0
C1241 C 0.66632 0.29578 0.19906 0.0
C1242 C 0.63965 0.28074 0.17045 0.0
C1243 C 0.61005 0.22506 0.13093 0.0
C1244 C 0.60636 0.18425 0.12184 0.0
C1245 C 0.63562 0.2404 0.16055 0.0
C1246 C 0.6286 0.15943 0.14303 0.0
C1247 C 0.65409 0.1745 0.17179 0.0
H1248 H 0.66877 0.68254 0.82088 0.0
H1249 H 0.70017 0.78955 0.88129 0.0
H1250 H 0.64863 0.75888 0.92259 0.0
H1251 H 0.60403 0.69729 0.94841 0.0
H1252 H 0.5782 0.58606 0.8938 0.0
H1253 H 0.61692 0.62274 0.84304 0.0
C1254 C 0.66407 0.69918 0.84281 0.0
C1255 C 0.68915 0.73767 0.84862 0.0
C1256 C 0.63526 0.68046 0.86766 0.0
C1257 C 0.68194 0.75941 0.8767 0.0
C1258 C 0.65236 0.74196 0.90034 0.0
C1259 C 0.60591 0.68133 0.9249 0.0
C1260 C 0.58891 0.63886 0.92527 0.0
C1261 C 0.63016 0.70179 0.89712 0.0
C1262 C 0.59102 0.61878 0.89433 0.0
C1263 C 0.61372 0.63961 0.8655 0.0
H1264 H 0.3019 0.58533 0.99609 0.0
H1265 H 0.378 0.7061 0.97682 0.0
H1266 H 0.43401 0.6792 1.00222 0.0
H1267 H 0.46196 0.61748 1.00944 0.0
H1268 H 0.38414 0.49676 0.02675 0.0
H1269 H 0.3283 0.52752 0.02176 0.0
C1270 C 0.3303 0.60639 0.99912 0.0
C1271 C 0.33667 0.64667 0.98192 0.0
C1272 C 0.36242 0.59015 1.01142 0.0
C1273 C 0.37305 0.67412 0.98815 0.0
C1274 C 0.4052 0.65861 1.00194 0.0
C1275 C 0.43283 0.59803 1.01254 0.0
C1276 C 0.42708 0.55489 1.0165 0.0
C1277 C 0.40054 0.61589 1.00996 0.0
C1278 C 0.38933 0.53008 0.02208 0.0
C1279 C 0.35728 0.54759 0.01977 0.0
H1280 H 0.35187 0.32696 0.90509 0.0
H1281 H 0.38203 0.41935 0.81463 0.0
H1282 H 0.43407 0.45924 0.85304 0.0
H1283 H 0.47174 0.46649 0.91276 0.0
H1284 H 0.44508 0.36674 0.99878 0.0
H1285 H 0.39227 0.33004 0.96078 0.0
C1286 C 0.36973 0.35562 0.89345 0.0
C1287 C 0.36335 0.36948 0.85675 0.0
C1288 C 0.40099 0.37666 0.91476 0.0
C1289 C 0.38659 0.40746 0.8427 0.0
C1290 C 0.41656 0.43014 0.86458 0.0
C1291 C 0.4549 0.43639 0.92297 0.0
C1292 C 0.46233 0.41998 0.95901 0.0
C1293 C 0.42447 0.41463 0.90061 0.0
C1294 C 0.44013 0.38068 0.97147 0.0
C1295 C 0.40953 0.35961 0.94984 0.0
H1296 H 0.73044 0.48602 0.87717 0.0
H1297 H 0.62909 0.48795 0.80433 0.0
H1298 H 0.59407 0.50246 0.85413 0.0
H1299 H 0.59199 0.51237 0.9189 0.0
H1300 H 0.69462 0.51417 0.99059 0.0
H1301 H 0.72937 0.49877 0.94096 0.0
C1302 C 0.70069 0.48974 0.87226 0.0
C1303 C 0.68212 0.48564 0.83739 0.0
C1304 C 0.68085 0.49759 0.90093 0.0
C1305 C 0.64392 0.49124 0.83099 0.0
C1306 C 0.62382 0.49902 0.85949 0.0
C1307 C 0.62171 0.50851 0.92362 0.0
C1308 C 0.64062 0.51295 0.95826 0.0
C1309 C 0.64181 0.50153 0.89467 0.0
C1310 C 0.67951 0.50972 0.96416 0.0
C1311 C 0.69936 0.50141 0.9358 0.0
H1312 H 0.77355 0.53167 0.2149 0.0
H1313 H 0.67133 0.47411 0.27465 0.0
H1314 H 0.63007 0.47392 0.21842 0.0
H1315 H 0.62309 0.49094 0.15307 0.0
H1316 H 0.72403 0.55205 0.09274 0.0
H1317 H 0.76631 0.54879 0.14837 0.0
C1318 C 0.74215 0.5198 0.21547 0.0
C1319 C 0.72521 0.5033 0.24855 0.0
C1320 C 0.71875 0.51938 0.18302 0.0
C1321 C 0.6847 0.48717 0.24927 0.0
C1322 C 0.66126 0.48673 0.21722 0.0
C1323 C 0.65446 0.50257 0.15184 0.0
C1324 C 0.67063 0.52112 0.11889 0.0
C1325 C 0.67803 0.50241 0.18397 0.0
C1326 C 0.71116 0.53713 0.11787 0.0
C1327 C 0.73517 0.53576 0.14967 0.0
H1328 H 0.66784 0.71103 0.2463 0.0
H1329 H 0.71595 0.80807 0.16433 0.0
H1330 H 0.67941 0.76836 0.11679 0.0
H1331 H 0.64313 0.70152 0.09793 0.0
H1332 H 0.59746 0.60259 0.1797 0.0
H1333 H 0.62338 0.64764 0.22754 0.0
C1334 C 0.6702 0.72375 0.21811 0.0
C1335 C 0.6966 0.76172 0.209 0.0
C1336 C 0.64996 0.69996 0.19065 0.0
C1337 C 0.69741 0.77839 0.17235 0.0
C1338 C 0.67643 0.75554 0.14496 0.0
C1339 C 0.63847 0.68974 0.12616 0.0
C1340 C 0.61916 0.64827 0.13504 0.0
C1341 C 0.65433 0.71541 0.1537 0.0
C1342 C 0.6128 0.63409 0.17188 0.0
C1343 C 0.62772 0.65983 0.19938 0.0
H1344 H 0.4122 0.69269 0.1151 0.0
H1345 H 0.32518 0.60074 0.17312 0.0
H1346 H 0.35578 0.54617 0.15833 0.0
H1347 H 0.41074 0.52599 0.1314 0.0
H1348 H 0.49885 0.62309 0.07862 0.0
H1349 H 0.46395 0.67381 0.08846 0.0
C1350 C 0.39916 0.66061 0.12379 0.0
C1351 C 0.36617 0.65064 0.14455 0.0
C1352 C 0.41745 0.63023 0.1164 0.0
C1353 C 0.35054 0.60906 0.15679 0.0
C1354 C 0.36809 0.57798 0.14844 0.0
C1355 C 0.42207 0.55822 0.12209 0.0
C1356 C 0.45757 0.57039 0.10454 0.0
C1357 C 0.40215 0.58833 0.12873 0.0
C1358 C 0.47199 0.61246 0.09274 0.0
C1359 C 0.45194 0.64181 0.0981 0.0
H1360 H 0.40926 0.39252 0.25747 0.0
H1361 H 0.39948 0.27565 0.21462 0.0
H1362 H 0.45485 0.30613 0.17736 0.0
H1363 H 0.49912 0.36843 0.15017 0.0
H1364 H 0.50914 0.48516 0.19308 0.0
H1365 H 0.46231 0.45167 0.23865 0.0
C1366 C 0.41938 0.37348 0.24028 0.0
C1367 C 0.39864 0.33232 0.23735 0.0
C1368 C 0.45183 0.39108 0.21936 0.0
C1369 C 0.41326 0.30794 0.21592 0.0
C1370 C 0.44543 0.32522 0.19497 0.0
C1371 C 0.49209 0.38626 0.17035 0.0
C1372 C 0.50701 0.42931 0.1678 0.0
C1373 C 0.46394 0.36714 0.19545 0.0
C1374 C 0.49813 0.45197 0.1944 0.0
C1375 C 0.47075 0.43294 0.22007 0.0
H1376 H 0.87122 0.59528 0.63075 0.0
H1377 H 0.93723 0.66396 0.71655 0.0
H1378 H 0.99709 0.65077 0.69762 0.0
H1379 H 1.03104 0.617 0.65848 0.0
H1380 H 0.96366 0.54081 0.57867 0.0
H1381 H 0.90404 0.55857 0.59431 0.0
C1382 C 0.89838 0.6069 0.64597 0.0
C1383 C 0.89896 0.63084 0.6752 0.0
C1384 C 0.93272 0.59746 0.63617 0.0
C1385 C 0.93527 0.64634 0.69345 0.0
C1386 C 0.96976 0.63836 0.68292 0.0
C1387 C 1.00323 0.6044 0.64456 0.0
C1388 C 1.00163 0.57766 0.61749 0.0
C1389 C 0.96884 0.6137 0.65453 0.0
C1390 C 0.96548 0.56118 0.59982 0.0
C1391 C 0.93145 0.57146 0.60866 0.0
H1392 H 0.3924 0.91177 0.71541 0.0
H1393 H 0.38016 0.78221 0.70904 0.0
H1394 H 0.42962 0.79828 0.66288 0.0
H1395 H 0.47616 0.85109 0.61957 0.0
H1396 H 0.48013 0.98025 0.62427 0.0
H1397 H 0.43537 0.9625 0.67299 0.0
C1398 C 0.4008 0.88652 0.70471 0.0
C1399 C 0.38315 0.84505 0.71926 0.0
C1400 C 0.42823 0.89639 0.67593 0.0
C1401 C 0.39445 0.81412 0.70226 0.0
C1402 C 0.42248 0.8237 0.67438 0.0
C1403 C 0.4675 0.87568 0.63102 0.0
C1404 C 0.48325 0.91802 0.61626 0.0
C1405 C 0.43985 0.86497 0.66038 0.0
C1406 C 0.46989 0.94778 0.63313 0.0
C1407 C 0.44374 0.93752 0.66183 0.0
H1408 H 0.20448 0.29506 0.6934 0.0
H1409 H 0.26293 0.3934 0.75745 0.0
H1410 H 0.2329 0.44245 0.71708 0.0
H1411 H 0.18274 0.4548 0.66698 0.0
H1412 H 0.13063 0.35472 0.60137 0.0
H1413 H 0.16569 0.30975 0.63826 0.0
C1414 C 0.2115 0.32746 0.69797 0.0
C1415 C 0.2362 0.34058 0.72811 0.0
C1416 C 0.1947 0.35532 0.67442 0.0
C1417 C 0.24469 0.38266 0.73391 0.0
C1418 C 0.22714 0.41061 0.71099 0.0
C1419 C 0.17976 0.4235 0.66028 0.0
C1420 C 0.15273 0.40825 0.63181 0.0
C1421 C 0.20104 0.39707 0.68158 0.0
C1422 C 0.15 0.36748 0.62355 0.0
C1423 C 0.17022 0.3414 0.64466 0.0
H1424 H 0.73269 0.15603 0.72098 0.0
H1425 H 0.71878 0.27542 0.67338 0.0
H1426 H 0.68003 0.24417 0.62224 0.0
H1427 H 0.64823 0.18258 0.58919 0.0
H1428 H 0.66669 0.06347 0.63242 0.0
H1429 H 0.70502 0.09437 0.68483 0.0
C1430 C 0.72137 0.17549 0.69954 0.0
C1431 C 0.72852 0.21898 0.70303 0.0
C1432 C 0.69964 0.15695 0.66824 0.0
C1433 C 0.71335 0.24236 0.67354 0.0
C1434 C 0.69118 0.22424 0.64345 0.0
C1435 C 0.66089 0.16311 0.6097 0.0
C1436 C 0.654 0.11996 0.60552 0.0
C1437 C 0.68378 0.1815 0.64027 0.0
C1438 C 0.67122 0.09642 0.63351 0.0
C1439 C 0.6932 0.1143 0.6641 0.0
H1440 H 0.8752 0.40915 0.36529 0.0
H1441 H 0.89461 0.28633 0.38719 0.0
H1442 H 0.94919 0.31131 0.43052 0.0
H1443 H 0.98976 0.36762 0.46397 0.0
H1444 H 0.9745 0.49172 0.43858 0.0
H1445 H 0.92041 0.46708 0.39448 0.0
C1446 C 0.89144 0.38793 0.37962 0.0
C1447 C 0.88048 0.34572 0.37358 0.0
C1448 C 0.92366 0.40288 0.40365 0.0
C1449 C 0.90231 0.31877 0.3916 0.0
C1450 C 0.93351 0.3331 0.41634 0.0
C1451 C 0.97487 0.38938 0.44845 0.0
C1452 C 0.98607 0.4315 0.45472 0.0
C1453 C 0.94426 0.37501 0.4228 0.0
C1454 C 0.96671 0.45929 0.43416 0.0
C1455 C 0.93556 0.44509 0.40915 0.0
H1456 H 0.74254 0.92816 0.33107 0.0
H1457 H 0.6829 0.80058 0.34682 0.0
H1458 H 0.64157 0.81763 0.39027 0.0
H1459 H 0.61815 0.87015 0.42556 0.0
H1460 H 0.66916 0.99942 0.39941 0.0
H1461 H 0.71406 0.98102 0.36009 0.0
C1462 C 0.72109 0.90316 0.34415 0.0
C1463 C 0.72123 0.86074 0.3365 0.0
C1464 C 0.69357 0.91447 0.36795 0.0
C1465 C 0.68962 0.83192 0.35376 0.0
C1466 C 0.66392 0.84254 0.37829 0.0
C1467 C 0.6386 0.8951 0.41126 0.0
C1468 C 0.63771 0.93773 0.41759 0.0
C1469 C 0.66516 0.88382 0.38633 0.0
C1470 C 0.66633 0.96695 0.39688 0.0
C1471 C 0.69311 0.95599 0.37378 0.0
H1472 H 0.26519 0.73607 0.40982 0.0
H1473 H 0.17747 0.72019 0.32171 0.0
H1474 H 0.13631 0.66258 0.3584 0.0
H1475 H 0.12364 0.61918 0.41823 0.0
H1476 H 0.21598 0.63292 0.503 0.0
H1477 H 0.25695 0.68722 0.46485 0.0
C1478 C 0.23734 0.71947 0.39847 0.0
C1479 C 0.22477 0.7318 0.36292 0.0
C1480 C 0.21446 0.68565 0.4193 0.0
C1481 C 0.18823 0.71058 0.34876 0.0
C1482 C 0.16462 0.67771 0.36983 0.0
C1483 C 0.15305 0.63329 0.42795 0.0
C1484 C 0.16612 0.62211 0.46399 0.0
C1485 C 0.17724 0.66501 0.40544 0.0
C1486 C 0.20456 0.64109 0.47581 0.0
C1487 C 0.22816 0.67251 0.45404 0.0
H1488 H 0.40434 0.18754 0.30734 0.0
H1489 H 0.34833 0.21375 0.39766 0.0
H1490 H 0.39066 0.17929 0.43967 0.0
H1491 H 0.44466 0.13774 0.45407 0.0
H1492 H 0.49521 0.10322 0.36363 0.0
H1493 H 0.45561 0.14169 0.32166 0.0
C1494 C 0.40155 0.18732 0.3363 0.0
C1495 C 0.37346 0.20993 0.34734 0.0
C1496 C 0.42578 0.16355 0.36172 0.0
C1497 C 0.37087 0.20327 0.38602 0.0
C1498 C 0.3951 0.18134 0.41084 0.0
C1499 C 0.44766 0.13783 0.42517 0.0
C1500 C 0.47552 0.11487 0.41442 0.0
C1501 C 0.42318 0.16101 0.39966 0.0
C1502 C 0.47585 0.11817 0.37547 0.0
C1503 C 0.45247 0.1413 0.35058 0.0
H1504 H 0.76203 0.92177 0.71687 0.0
H1505 H 0.69168 0.79742 0.7286 0.0
H1506 H 0.64344 0.81724 0.68268 0.0
H1507 H 0.62042 0.87085 0.63783 0.0
H1508 H 0.68664 0.99704 0.63403 0.0
H1509 H 0.73582 0.97613 0.67796 0.0
C1510 C 0.73629 0.89862 0.7094 0.0
C1511 C 0.73247 0.85696 0.72538 0.0
C1512 C 0.70709 0.91112 0.6843 0.0
C1513 C 0.69744 0.82878 0.71584 0.0
C1514 C 0.66923 0.84051 0.68972 0.0
C1515 C 0.64534 0.89401 0.64689 0.0
C1516 C 0.64898 0.9361 0.63208 0.0
C1517 C 0.67363 0.88165 0.67345 0.0
C1518 C 0.68202 0.96491 0.64473 0.0
C1519 C 0.7106 0.95271 0.66988 0.0
H1520 H 0.76082 0.19329 0.37317 0.0
H1521 H 0.67076 0.23361 0.3035 0.0
H1522 H 0.62096 0.19429 0.34479 0.0
H1523 H 0.60394 0.15171 0.40288 0.0
H1524 H 0.69352 0.10729 0.47019 0.0
H1525 H 0.74303 0.14553 0.4282 0.0
C1526 C 0.73021 0.19336 0.36726 0.0
C1527 C 0.7193 0.2177 0.33666 0.0
C1528 C 0.70196 0.17032 0.39085 0.0
C1529 C 0.67967 0.21621 0.32784 0.0
C1530 C 0.6513 0.19367 0.35133 0.0
C1531 C 0.63438 0.15065 0.40827 0.0
C1532 C 0.64551 0.12765 0.43978 0.0
C1533 C 0.66226 0.17144 0.38338 0.0
C1534 C 0.68465 0.12535 0.44624 0.0
C1535 C 0.7128 0.14696 0.4222 0.0
H1536 H 0.88414 0.63442 0.4478 0.0
H1537 H 0.94556 0.7506 0.48631 0.0
H1538 H 0.99882 0.71954 0.51248 0.0
H1539 H 1.02857 0.66035 0.52261 0.0
H1540 H 0.9675 0.54357 0.48478 0.0
H1541 H 0.91311 0.57389 0.4602 0.0
C1542 C 0.90931 0.65284 0.46184 0.0
C1543 C 0.91122 0.69468 0.46502 0.0
C1544 C 0.93969 0.63477 0.47686 0.0
C1545 C 0.94351 0.71824 0.48374 0.0
C1546 C 0.97395 0.70057 0.49856 0.0
C1547 C 1.00342 0.64147 0.50891 0.0
C1548 C 1.00231 0.59997 0.50499 0.0
C1549 C 0.97244 0.65901 0.49501 0.0
C1550 C 0.96915 0.57571 0.48789 0.0
C1551 C 0.93812 0.59302 0.4738 0.0
H1552 H 0.41011 0.85189 0.34393 0.0
H1553 H 0.31459 0.85568 0.40833 0.0
H1554 H 0.36051 0.89034 0.45409 0.0
H1555 H 0.42828 0.92012 0.47557 0.0
H1556 H 0.52336 0.9099 0.41375 0.0
H1557 H 0.47724 0.87622 0.36743 0.0
C1558 C 0.3994 0.85923 0.36842 0.0
C1559 C 0.35923 0.85109 0.37289 0.0
C1560 C 0.42588 0.87812 0.39496 0.0
C1561 C 0.3456 0.86198 0.40423 0.0
C1562 C 0.37175 0.88171 0.43043 0.0
C1563 C 0.43854 0.9104 0.45188 0.0
C1564 C 0.4786 0.91736 0.4475 0.0
C1565 C 0.41196 0.89016 0.42596 0.0
C1566 C 0.49228 0.90456 0.41721 0.0
C1567 C 0.46608 0.88542 0.39086 0.0
H1568 H 0.2513 0.41919 0.41774 0.0
H1569 H 0.22908 0.52907 0.35474 0.0
H1570 H 0.17863 0.53039 0.3952 0.0
H1571 H 0.1418 0.50185 0.44905 0.0
H1572 H 0.15876 0.38913 0.5095 0.0
H1573 H 0.20944 0.38653 0.46839 0.0
C1574 C 0.23498 0.44298 0.41213 0.0
C1575 C 0.24488 0.47442 0.38319 0.0
C1576 C 0.20484 0.44289 0.43492 0.0
C1577 C 0.22335 0.50516 0.3772 0.0
C1578 C 0.19404 0.50574 0.40016 0.0
C1579 C 0.15648 0.47654 0.45311 0.0
C1580 C 0.14704 0.44593 0.48241 0.0
C1581 C 0.18489 0.47509 0.42925 0.0
C1582 C 0.16563 0.41296 0.48708 0.0
C1583 C 0.19465 0.41165 0.46368 0.0
H1584 H 0.42172 0.16159 0.6649 0.0
H1585 H 0.53213 0.25022 0.67498 0.0
H1586 H 0.56634 0.19975 0.6594 0.0
H1587 H 0.56346 0.1352 0.63278 0.0
H1588 H 0.45284 0.04898 0.61792 0.0
H1589 H 0.42022 0.09257 0.64729 0.0
C1590 C 0.45335 0.16952 0.66463 0.0
C1591 C 0.47426 0.20992 0.67037 0.0
C1592 C 0.47279 0.1405 0.65509 0.0
C1593 C 0.51525 0.2197 0.66974 0.0
C1594 C 0.53487 0.19077 0.66108 0.0
C1595 C 0.53254 0.12516 0.63766 0.0
C1596 C 0.51053 0.08881 0.62395 0.0
C1597 C 0.5138 0.15167 0.65235 0.0
C1598 C 0.47032 0.07647 0.62911 0.0
C1599 C 0.45164 0.10179 0.64525 0.0
H1600 H 0.93355 0.34874 0.77855 0.0
H1601 H 0.83815 0.30672 0.7015 0.0
H1602 H 0.87949 0.33836 0.65083 0.0
H1603 H 0.94342 0.37788 0.62824 0.0
H1604 H 1.03752 0.42272 0.70597 0.0
H1605 H 0.9963 0.39043 0.75614 0.0
C1606 C 0.92187 0.34664 0.75063 0.0
C1607 C 0.88272 0.32578 0.74384 0.0
C1608 C 0.94571 0.36544 0.72161 0.0
C1609 C 0.868 0.32307 0.70751 0.0
C1610 C 0.89173 0.34105 0.6785 0.0
C1611 C 0.95496 0.38049 0.65615 0.0
C1612 C 0.99382 0.40263 0.66309 0.0
C1613 C 0.93071 0.36231 0.68517 0.0
C1614 C 1.00787 0.40606 0.69958 0.0
C1615 C 0.98429 0.38746 0.72842 0.0
H1616 H 0.24542 0.66782 0.7642 0.0
H1617 H 0.20629 0.77058 0.70469 0.0
H1618 H 0.16167 0.72313 0.66643 0.0
H1619 H 0.13845 0.65391 0.64639 0.0
H1620 H 0.17894 0.55111 0.70334 0.0
H1621 H 0.2181 0.59717 0.74687 0.0
C1622 C 0.22731 0.68001 0.74276 0.0
C1623 C 0.23001 0.72306 0.73677 0.0
C1624 C 0.20189 0.6525 0.72071 0.0
C1625 C 0.20528 0.73787 0.70964 0.0
C1626 C 0.17972 0.7107 0.68778 0.0
C1627 C 0.15541 0.64145 0.66875 0.0
C1628 C 0.15612 0.5993 0.67169 0.0
C1629 C 0.17843 0.6682 0.69263 0.0
C1630 C 0.17779 0.58333 0.70078 0.0
C1631 C 0.20044 0.6098 0.72529 0.0
loop_
_geom_bond_atom_site_label_1
_geom_bond_atom_site_label_2
_geom_bond_distance
_geom_bond_site_symmetry_2
_ccdc_geom_bond_type
Gd0 N31 2.661 . S
Gd0 N37 2.601 . S
Gd0 O44 2.545 . S
Gd0 O45 2.606 . S
Gd0 O47 2.429 . S
Gd0 O48 2.545 . S
Gd0 O49 2.412 . S
Gd0 O51 2.362 . S
Gd0 O52 2.324 . S
Gd0 C59 2.828 . S
Gd1 N10 2.661 . S
Gd1 N14 2.601 . S
Gd1 O45 2.362 . S
Gd1 O46 2.324 . S
Gd1 O50 2.545 . S
Gd1 O51 2.606 . S
Gd1 O53 2.429 . S
Gd1 O54 2.545 . S
Gd1 O55 2.412 . S
Gd1 C68 2.828 . S
C2 C5 1.417 . S
C2 C7 1.431 . S
C2 C8 1.412 . S
C3 C6 1.437 . S
C3 C7 1.317 . S
C3 H22 0.929 . S
C4 C5 1.426 . S
C4 C6 1.413 . S
C4 N14 1.359 . S
C5 C2 1.417 . S
C5 C4 1.426 . S
C5 N10 1.350 . S
C6 C3 1.437 . S
C6 C4 1.413 . S
C6 C16 1.391 . S
C7 C2 1.431 . S
C7 C3 1.317 . S
C7 H18 0.930 . S
C8 C2 1.412 . S
C8 C9 1.355 . S
C8 H20 0.930 . S
C9 C8 1.355 . S
C9 C11 1.402 . S
C9 H21 0.930 . S
N10 Gd1 2.661 . S
N10 C5 1.350 . S
N10 C11 1.307 . S
C11 C9 1.402 . S
C11 N10 1.307 . S
C11 H12 0.930 . S
H12 C11 0.930 . S
C13 N14 1.334 . S
C13 C15 1.394 . S
C13 H17 0.930 . S
N14 Gd1 2.601 . S
N14 C4 1.359 . S
N14 C13 1.334 . S
C15 C13 1.394 . S
C15 C16 1.359 . S
C15 H27 0.930 . S
C16 C6 1.391 . S
C16 C15 1.359 . S
C16 H28 0.929 . S
H17 C13 0.930 . S
H18 C7 0.930 . S
H19 C36 0.930 . S
H20 C8 0.930 . S
H21 C9 0.930 . S
H22 C3 0.929 . S
H23 C41 0.930 . S
H24 C32 0.930 . S
H25 C33 0.930 . S
H26 C57 0.929 . S
H27 C15 0.930 . S
H28 C16 0.929 . S
H29 C58 0.930 . S
H30 C39 0.930 . S
N31 Gd0 2.661 . S
N31 C35 1.350 . S
N31 C36 1.307 . S
C32 H24 0.930 . S
C32 C33 1.355 . S
C32 C34 1.412 . S
C33 H25 0.930 . S
C33 C32 1.355 . S
C33 C36 1.402 . S
C34 C32 1.412 . S
C34 C35 1.417 . S
C34 C58 1.431 . S
C35 N31 1.350 . S
C35 C34 1.417 . S
C35 C38 1.426 . S
C36 H19 0.930 . S
C36 N31 1.307 . S
C36 C33 1.402 . S
N37 Gd0 2.601 . S
N37 C38 1.359 . S
N37 C41 1.334 . S
C38 C35 1.426 . S
C38 N37 1.359 . S
C38 C42 1.413 . S
C39 H30 0.930 . S
C39 C40 1.359 . S
C39 C41 1.394 . S
C40 C39 1.359 . S
C40 C42 1.391 . S
C40 H43 0.929 . S
C41 H23 0.930 . S
C41 N37 1.334 . S
C41 C39 1.394 . S
C42 C38 1.413 . S
C42 C40 1.391 . S
C42 C57 1.437 . S
H43 C40 0.929 . S
O44 Gd0 2.545 . S
O44 C59 1.258 . S
O45 Gd0 2.606 . S
O45 Gd1 2.362 . S
O45 C56 1.284 . S
O46 Gd1 2.324 . S
O46 C66 1.254 . S
O47 Gd0 2.429 . S
O47 C66 1.268 . S
O48 Gd0 2.545 . S
O48 C56 1.250 . S
O49 Gd0 2.412 . S
O49 C59 1.252 . S
O50 Gd1 2.545 . S
O50 C68 1.258 . S
O51 Gd0 2.362 . S
O51 Gd1 2.606 . S
O51 C67 1.284 . S
O52 Gd0 2.324 . S
O52 C75 1.254 . S
O53 Gd1 2.429 . S
O53 C75 1.268 . S
O54 Gd1 2.545 . S
O54 C67 1.250 . S
O55 Gd1 2.412 . S
O55 C68 1.252 . S
C56 O45 1.284 . S
C56 O48 1.250 . S
C57 H26 0.929 . S
C57 C42 1.437 . S
C57 C58 1.317 . S
C58 H29 0.930 . S
C58 C34 1.431 . S
C58 C57 1.317 . S
C59 Gd0 2.828 . S
C59 O44 1.258 . S
C59 O49 1.252 . S
C59 C60 1.497 . S
C60 C59 1.497 . S
C60 C61 1.395 . S
C60 C62 1.380 . S
C61 C60 1.395 . S
C61 C64 1.398 . S
C61 H76 0.930 . S
C62 C60 1.380 . S
C62 C63 1.391 . S
C62 H77 0.930 . S
C63 C62 1.391 . S
C63 C65 1.387 . S
C64 C61 1.398 . S
C64 C65 1.380 . S
C64 H78 0.930 . S
C65 C63 1.387 . S
C65 C64 1.380 . S
C65 H79 0.930 . S
C66 O46 1.254 . S
C66 O47 1.268 . S
C67 O51 1.284 . S
C67 O54 1.250 . S
C68 Gd1 2.828 . S
C68 O50 1.258 . S
C68 O55 1.252 . S
C68 C69 1.497 . S
C69 C68 1.497 . S
C69 C70 1.395 . S
C69 C71 1.380 . S
C70 C69 1.395 . S
C70 C73 1.398 . S
C70 H80 0.930 . S
C71 C69 1.380 . S
C71 C72 1.391 . S
C71 H81 0.930 . S
C72 C71 1.391 . S
C72 C74 1.387 . S
C73 C70 1.398 . S
C73 C74 1.380 . S
C73 H82 0.930 . S
C74 C72 1.387 . S
C74 C73 1.380 . S
C74 H83 0.930 . S
C75 O52 1.254 . S
C75 O53 1.268 . S
H76 C61 0.930 . S
H77 C62 0.930 . S
H78 C64 0.930 . S
H79 C65 0.930 . S
H80 C70 0.930 . S
H81 C71 0.930 . S
H82 C73 0.930 . S
H83 C74 0.930 . S
Gd84 N115 2.661 . S
Gd84 N121 2.601 . S
Gd84 O128 2.545 . S
Gd84 O129 2.606 . S
Gd84 O131 2.429 . S
Gd84 O132 2.545 . S
Gd84 O133 2.412 . S
Gd84 O135 2.362 . S
Gd84 O136 2.324 . S
Gd84 C143 2.828 . S
Gd85 N94 2.661 . S
Gd85 N98 2.601 . S
Gd85 O129 2.362 . S
Gd85 O130 2.324 . S
Gd85 O134 2.545 . S
Gd85 O135 2.606 . S
Gd85 O137 2.429 . S
Gd85 O138 2.545 . S
Gd85 O139 2.412 . S
Gd85 C152 2.828 . S
C86 C89 1.417 . S
C86 C91 1.431 . S
C86 C92 1.412 . S
C87 C90 1.437 . S
C87 C91 1.317 . S
C87 H106 0.929 . S
C88 C89 1.426 . S
C88 C90 1.413 . S
C88 N98 1.359 . S
C89 C86 1.417 . S
C89 C88 1.426 . S
C89 N94 1.350 . S
C90 C87 1.437 . S
C90 C88 1.413 . S
C90 C100 1.391 . S
C91 C86 1.431 . S
C91 C87 1.317 . S
C91 H102 0.930 . S
C92 C86 1.412 . S
C92 C93 1.355 . S
C92 H104 0.930 . S
C93 C92 1.355 . S
C93 C95 1.402 . S
C93 H105 0.930 . S
N94 Gd85 2.661 . S
N94 C89 1.350 . S
N94 C95 1.307 . S
C95 C93 1.402 . S
C95 N94 1.307 . S
C95 H96 0.930 . S
H96 C95 0.930 . S
C97 N98 1.334 . S
C97 C99 1.394 . S
C97 H101 0.930 . S
N98 Gd85 2.601 . S
N98 C88 1.359 . S
N98 C97 1.334 . S
C99 C97 1.394 . S
C99 C100 1.359 . S
C99 H111 0.930 . S
C100 C90 1.391 . S
C100 C99 1.359 . S
C100 H112 0.929 . S
H101 C97 0.930 . S
H102 C91 0.930 . S
H103 C120 0.930 . S
H104 C92 0.930 . S
H105 C93 0.930 . S
H106 C87 0.929 . S
H107 C125 0.930 . S
H108 C116 0.930 . S
H109 C117 0.930 . S
H110 C141 0.929 . S
H111 C99 0.930 . S
H112 C100 0.929 . S
H113 C142 0.930 . S
H114 C123 0.930 . S
N115 Gd84 2.661 . S
N115 C119 1.350 . S
N115 C120 1.307 . S
C116 H108 0.930 . S
C116 C117 1.355 . S
C116 C118 1.412 . S
C117 H109 0.930 . S
C117 C116 1.355 . S
C117 C120 1.402 . S
C118 C116 1.412 . S
C118 C119 1.417 . S
C118 C142 1.431 . S
C119 N115 1.350 . S
C119 C118 1.417 . S
C119 C122 1.426 . S
C120 H103 0.930 . S
C120 N115 1.307 . S
C120 C117 1.402 . S
N121 Gd84 2.601 . S
N121 C122 1.359 . S
N121 C125 1.334 . S
C122 C119 1.426 . S
C122 N121 1.359 . S
C122 C126 1.413 . S
C123 H114 0.930 . S
C123 C124 1.359 . S
C123 C125 1.394 . S
C124 C123 1.359 . S
C124 C126 1.391 . S
C124 H127 0.929 . S
C125 H107 0.930 . S
C125 N121 1.334 . S
C125 C123 1.394 . S
C126 C122 1.413 . S
C126 C124 1.391 . S
C126 C141 1.437 . S
H127 C124 0.929 . S
O128 Gd84 2.545 . S
O128 C143 1.258 . S
O129 Gd84 2.606 . S
O129 Gd85 2.362 . S
O129 C140 1.284 . S
O130 Gd85 2.324 . S
O130 C150 1.254 . S
O131 Gd84 2.429 . S
O131 C150 1.268 . S
O132 Gd84 2.545 . S
O132 C140 1.250 . S
O133 Gd84 2.412 . S
O133 C143 1.252 . S
O134 Gd85 2.545 . S
O134 C152 1.258 . S
O135 Gd84 2.362 . S
O135 Gd85 2.606 . S
O135 C151 1.284 . S
O136 Gd84 2.324 . S
O136 C159 1.254 . S
O137 Gd85 2.429 . S
O137 C159 1.268 . S
O138 Gd85 2.545 . S
O138 C151 1.250 . S
O139 Gd85 2.412 . S
O139 C152 1.252 . S
C140 O129 1.284 . S
C140 O132 1.250 . S
C141 H110 0.929 . S
C141 C126 1.437 . S
C141 C142 1.317 . S
C142 H113 0.930 . S
C142 C118 1.431 . S
C142 C141 1.317 . S
C143 Gd84 2.828 . S
C143 O128 1.258 . S
C143 O133 1.252 . S
C143 C144 1.497 . S
C144 C143 1.497 . S
C144 C145 1.395 . S
C144 C146 1.380 . S
C145 C144 1.395 . S
C145 C148 1.398 . S
C145 H160 0.930 . S
C146 C144 1.380 . S
C146 C147 1.391 . S
C146 H161 0.930 . S
C147 C146 1.391 . S
C147 C149 1.387 . S
C148 C145 1.398 . S
C148 C149 1.380 . S
C148 H162 0.930 . S
C149 C147 1.387 . S
C149 C148 1.380 . S
C149 H163 0.930 . S
C150 O130 1.254 . S
C150 O131 1.268 . S
C151 O135 1.284 . S
C151 O138 1.250 . S
C152 Gd85 2.828 . S
C152 O134 1.258 . S
C152 O139 1.252 . S
C152 C153 1.497 . S
C153 C152 1.497 . S
C153 C154 1.395 . S
C153 C155 1.380 . S
C154 C153 1.395 . S
C154 C157 1.398 . S
C154 H164 0.930 . S
C155 C153 1.380 . S
C155 C156 1.391 . S
C155 H165 0.930 . S
C156 C155 1.391 . S
C156 C158 1.387 . S
C157 C154 1.398 . S
C157 C158 1.380 . S
C157 H166 0.930 . S
C158 C156 1.387 . S
C158 C157 1.380 . S
C158 H167 0.930 . S
C159 O136 1.254 . S
C159 O137 1.268 . S
H160 C145 0.930 . S
H161 C146 0.930 . S
H162 C148 0.930 . S
H163 C149 0.930 . S
H164 C154 0.930 . S
H165 C155 0.930 . S
H166 C157 0.930 . S
H167 C158 0.930 . S
Gd168 N199 2.661 . S
Gd168 N205 2.601 . S
Gd168 O212 2.545 . S
Gd168 O213 2.606 . S
Gd168 O215 2.429 . S
Gd168 O216 2.545 . S
Gd168 O217 2.412 . S
Gd168 O219 2.362 . S
Gd168 O220 2.324 . S
Gd168 C227 2.828 . S
Gd169 N178 2.661 . S
Gd169 N182 2.601 . S
Gd169 O213 2.362 . S
Gd169 O214 2.324 . S
Gd169 O218 2.545 . S
Gd169 O219 2.606 . S
Gd169 O221 2.429 . S
Gd169 O222 2.545 . S
Gd169 O223 2.412 . S
Gd169 C236 2.828 . S
C170 C173 1.417 . S
C170 C175 1.431 . S
C170 C176 1.412 . S
C171 C174 1.437 . S
C171 C175 1.317 . S
C171 H190 0.929 . S
C172 C173 1.426 . S
C172 C174 1.413 . S
C172 N182 1.359 . S
C173 C170 1.417 . S
C173 C172 1.426 . S
C173 N178 1.350 . S
C174 C171 1.437 . S
C174 C172 1.413 . S
C174 C184 1.391 . S
C175 C170 1.431 . S
C175 C171 1.317 . S
C175 H186 0.930 . S
C176 C170 1.412 . S
C176 C177 1.355 . S
C176 H188 0.930 . S
C177 C176 1.355 . S
C177 C179 1.402 . S
C177 H189 0.930 . S
N178 Gd169 2.661 . S
N178 C173 1.350 . S
N178 C179 1.307 . S
C179 C177 1.402 . S
C179 N178 1.307 . S
C179 H180 0.930 . S
H180 C179 0.930 . S
C181 N182 1.334 . S
C181 C183 1.394 . S
C181 H185 0.930 . S
N182 Gd169 2.601 . S
N182 C172 1.359 . S
N182 C181 1.334 . S
C183 C181 1.394 . S
C183 C184 1.359 . S
C183 H195 0.930 . S
C184 C174 1.391 . S
C184 C183 1.359 . S
C184 H196 0.929 . S
H185 C181 0.930 . S
H186 C175 0.930 . S
H187 C204 0.930 . S
H188 C176 0.930 . S
H189 C177 0.930 . S
H190 C171 0.929 . S
H191 C209 0.930 . S
H192 C200 0.930 . S
H193 C201 0.930 . S
H194 C225 0.929 . S
H195 C183 0.930 . S
H196 C184 0.929 . S
H197 C226 0.930 . S
H198 C207 0.930 . S
N199 Gd168 2.661 . S
N199 C203 1.350 . S
N199 C204 1.307 . S
C200 H192 0.930 . S
C200 C201 1.355 . S
C200 C202 1.412 . S
C201 H193 0.930 . S
C201 C200 1.355 . S
C201 C204 1.402 . S
C202 C200 1.412 . S
C202 C203 1.417 . S
C202 C226 1.431 . S
C203 N199 1.350 . S
C203 C202 1.417 . S
C203 C206 1.426 . S
C204 H187 0.930 . S
C204 N199 1.307 . S
C204 C201 1.402 . S
N205 Gd168 2.601 . S
N205 C206 1.359 . S
N205 C209 1.334 . S
C206 C203 1.426 . S
C206 N205 1.359 . S
C206 C210 1.413 . S
C207 H198 0.930 . S
C207 C208 1.359 . S
C207 C209 1.394 . S
C208 C207 1.359 . S
C208 C210 1.391 . S
C208 H211 0.929 . S
C209 H191 0.930 . S
C209 N205 1.334 . S
C209 C207 1.394 . S
C210 C206 1.413 . S
C210 C208 1.391 . S
C210 C225 1.437 . S
H211 C208 0.929 . S
O212 Gd168 2.545 . S
O212 C227 1.258 . S
O213 Gd168 2.606 . S
O213 Gd169 2.362 . S
O213 C224 1.284 . S
O214 Gd169 2.324 . S
O214 C234 1.254 . S
O215 Gd168 2.429 . S
O215 C234 1.268 . S
O216 Gd168 2.545 . S
O216 C224 1.250 . S
O217 Gd168 2.412 . S
O217 C227 1.252 . S
O218 Gd169 2.545 . S
O218 C236 1.258 . S
O219 Gd168 2.362 . S
O219 Gd169 2.606 . S
O219 C235 1.284 . S
O220 Gd168 2.324 . S
O220 C243 1.254 . S
O221 Gd169 2.429 . S
O221 C243 1.268 . S
O222 Gd169 2.545 . S
O222 C235 1.250 . S
O223 Gd169 2.412 . S
O223 C236 1.252 . S
C224 O213 1.284 . S
C224 O216 1.250 . S
C225 H194 0.929 . S
C225 C210 1.437 . S
C225 C226 1.317 . S
C226 H197 0.930 . S
C226 C202 1.431 . S
C226 C225 1.317 . S
C227 Gd168 2.828 . S
C227 O212 1.258 . S
C227 O217 1.252 . S
C227 C228 1.497 . S
C228 C227 1.497 . S
C228 C229 1.395 . S
C228 C230 1.380 . S
C229 C228 1.395 . S
C229 C232 1.398 . S
C229 H244 0.930 . S
C230 C228 1.380 . S
C230 C231 1.391 . S
C230 H245 0.930 . S
C231 C230 1.391 . S
C231 C233 1.387 . S
C232 C229 1.398 . S
C232 C233 1.380 . S
C232 H246 0.930 . S
C233 C231 1.387 . S
C233 C232 1.380 . S
C233 H247 0.930 . S
C234 O214 1.254 . S
C234 O215 1.268 . S
C235 O219 1.284 . S
C235 O222 1.250 . S
C236 Gd169 2.828 . S
C236 O218 1.258 . S
C236 O223 1.252 . S
C236 C237 1.497 . S
C237 C236 1.497 . S
C237 C238 1.395 . S
C237 C239 1.380 . S
C238 C237 1.395 . S
C238 C241 1.398 . S
C238 H248 0.930 . S
C239 C237 1.380 . S
C239 C240 1.391 . S
C239 H249 0.930 . S
C240 C239 1.391 . S
C240 C242 1.387 . S
C241 C238 1.398 . S
C241 C242 1.380 . S
C241 H250 0.930 1_565 S
C242 C240 1.387 . S
C242 C241 1.380 . S
C242 H251 0.930 . S
C243 O220 1.254 . S
C243 O221 1.268 . S
H244 C229 0.930 . S
H245 C230 0.930 . S
H246 C232 0.930 . S
H247 C233 0.930 . S
H248 C238 0.930 . S
H249 C239 0.930 . S
H250 C241 0.930 1_545 S
H251 C242 0.930 . S
Gd252 N283 2.661 . S
Gd252 N289 2.601 . S
Gd252 O296 2.545 . S
Gd252 O297 2.606 . S
Gd252 O299 2.429 . S
Gd252 O300 2.545 . S
Gd252 O301 2.412 . S
Gd252 O303 2.362 . S
Gd252 O304 2.324 . S
Gd252 C311 2.828 . S
Gd253 N262 2.661 . S
Gd253 N266 2.601 . S
Gd253 O297 2.362 . S
Gd253 O298 2.324 . S
Gd253 O302 2.545 . S
Gd253 O303 2.606 . S
Gd253 O305 2.429 . S
Gd253 O306 2.545 . S
Gd253 O307 2.412 . S
Gd253 C320 2.828 . S
C254 C257 1.417 . S
C254 C259 1.431 . S
C254 C260 1.412 . S
C255 C258 1.437 . S
C255 C259 1.317 . S
C255 H274 0.929 . S
C256 C257 1.426 . S
C256 C258 1.413 . S
C256 N266 1.359 . S
C257 C254 1.417 . S
C257 C256 1.426 . S
C257 N262 1.350 . S
C258 C255 1.437 . S
C258 C256 1.413 . S
C258 C268 1.391 . S
C259 C254 1.431 . S
C259 C255 1.317 . S
C259 H270 0.930 . S
C260 C254 1.412 . S
C260 C261 1.355 . S
C260 H272 0.930 . S
C261 C260 1.355 . S
C261 C263 1.402 . S
C261 H273 0.930 . S
N262 Gd253 2.661 . S
N262 C257 1.350 . S
N262 C263 1.307 . S
C263 C261 1.402 . S
C263 N262 1.307 . S
C263 H264 0.930 . S
H264 C263 0.930 . S
C265 N266 1.334 . S
C265 C267 1.394 . S
C265 H269 0.930 . S
N266 Gd253 2.601 . S
N266 C256 1.359 . S
N266 C265 1.334 . S
C267 C265 1.394 . S
C267 C268 1.359 . S
C267 H279 0.930 . S
C268 C258 1.391 . S
C268 C267 1.359 . S
C268 H280 0.929 . S
H269 C265 0.930 . S
H270 C259 0.930 . S
H271 C288 0.930 . S
H272 C260 0.930 . S
H273 C261 0.930 . S
H274 C255 0.929 . S
H275 C293 0.930 . S
H276 C284 0.930 . S
H277 C285 0.930 . S
H278 C309 0.929 . S
H279 C267 0.930 . S
H280 C268 0.929 . S
H281 C310 0.930 . S
H282 C291 0.930 . S
N283 Gd252 2.661 . S
N283 C287 1.350 . S
N283 C288 1.307 . S
C284 H276 0.930 . S
C284 C285 1.355 . S
C284 C286 1.412 . S
C285 H277 0.930 . S
C285 C284 1.355 . S
C285 C288 1.402 . S
C286 C284 1.412 . S
C286 C287 1.417 . S
C286 C310 1.431 . S
C287 N283 1.350 . S
C287 C286 1.417 . S
C287 C290 1.426 . S
C288 H271 0.930 . S
C288 N283 1.307 . S
C288 C285 1.402 . S
N289 Gd252 2.601 . S
N289 C290 1.359 . S
N289 C293 1.334 . S
C290 C287 1.426 . S
C290 N289 1.359 . S
C290 C294 1.413 . S
C291 H282 0.930 . S
C291 C292 1.359 . S
C291 C293 1.394 . S
C292 C291 1.359 . S
C292 C294 1.391 . S
C292 H295 0.929 . S
C293 H275 0.930 . S
C293 N289 1.334 . S
C293 C291 1.394 . S
C294 C290 1.413 . S
C294 C292 1.391 . S
C294 C309 1.437 . S
H295 C292 0.929 . S
O296 Gd252 2.545 . S
O296 C311 1.258 . S
O297 Gd252 2.606 . S
O297 Gd253 2.362 . S
O297 C308 1.284 . S
O298 Gd253 2.324 . S
O298 C318 1.254 . S
O299 Gd252 2.429 . S
O299 C318 1.268 . S
O300 Gd252 2.545 . S
O300 C308 1.250 . S
O301 Gd252 2.412 . S
O301 C311 1.252 . S
O302 Gd253 2.545 . S
O302 C320 1.258 . S
O303 Gd252 2.362 . S
O303 Gd253 2.606 . S
O303 C319 1.284 . S
O304 Gd252 2.324 . S
O304 C327 1.254 . S
O305 Gd253 2.429 . S
O305 C327 1.268 . S
O306 Gd253 2.545 . S
O306 C319 1.250 . S
O307 Gd253 2.412 . S
O307 C320 1.252 . S
C308 O297 1.284 . S
C308 O300 1.250 . S
C309 H278 0.929 . S
C309 C294 1.437 . S
C309 C310 1.317 . S
C310 H281 0.930 . S
C310 C286 1.431 . S
C310 C309 1.317 . S
C311 Gd252 2.828 . S
C311 O296 1.258 . S
C311 O301 1.252 . S
C311 C312 1.497 . S
C312 C311 1.497 . S
C312 C313 1.395 . S
C312 C314 1.380 . S
C313 C312 1.395 . S
C313 C316 1.398 . S
C313 H328 0.930 . S
C314 C312 1.380 . S
C314 C315 1.391 . S
C314 H329 0.930 . S
C315 C314 1.391 . S
C315 C317 1.387 . S
C316 C313 1.398 . S
C316 C317 1.380 . S
C316 H330 0.930 . S
C317 C315 1.387 . S
C317 C316 1.380 . S
C317 H331 0.930 . S
C318 O298 1.254 . S
C318 O299 1.268 . S
C319 O303 1.284 . S
C319 O306 1.250 . S
C320 Gd253 2.828 . S
C320 O302 1.258 . S
C320 O307 1.252 . S
C320 C321 1.497 . S
C321 C320 1.497 . S
C321 C322 1.395 . S
C321 C323 1.380 . S
C322 C321 1.395 . S
C322 C325 1.398 . S
C322 H332 0.930 . S
C323 C321 1.380 . S
C323 C324 1.391 . S
C323 H333 0.930 . S
C324 C323 1.391 . S
C324 C326 1.387 . S
C325 C322 1.398 . S
C325 C326 1.380 . S
C325 H334 0.930 . S
C326 C324 1.387 . S
C326 C325 1.380 . S
C326 H335 0.930 . S
C327 O304 1.254 . S
C327 O305 1.268 . S
H328 C313 0.930 . S
H329 C314 0.930 . S
H330 C316 0.930 . S
H331 C317 0.930 . S
H332 C322 0.930 . S
H333 C323 0.930 . S
H334 C325 0.930 . S
H335 C326 0.930 . S
Gd336 N367 2.661 . S
Gd336 N373 2.601 . S
Gd336 O380 2.545 . S
Gd336 O381 2.606 . S
Gd336 O383 2.429 . S
Gd336 O384 2.545 . S
Gd336 O385 2.412 . S
Gd336 O387 2.362 . S
Gd336 O388 2.324 . S
Gd336 C395 2.828 . S
Gd337 N346 2.661 . S
Gd337 N350 2.601 . S
Gd337 O381 2.362 . S
Gd337 O382 2.324 . S
Gd337 O386 2.545 . S
Gd337 O387 2.606 . S
Gd337 O389 2.429 . S
Gd337 O390 2.545 . S
Gd337 O391 2.412 . S
Gd337 C404 2.828 . S
C338 C341 1.417 . S
C338 C343 1.431 . S
C338 C344 1.412 . S
C339 C342 1.437 . S
C339 C343 1.317 . S
C339 H358 0.929 . S
C340 C341 1.426 . S
C340 C342 1.413 . S
C340 N350 1.359 . S
C341 C338 1.417 . S
C341 C340 1.426 . S
C341 N346 1.350 . S
C342 C339 1.437 . S
C342 C340 1.413 . S
C342 C352 1.391 . S
C343 C338 1.431 . S
C343 C339 1.317 . S
C343 H354 0.930 . S
C344 C338 1.412 . S
C344 C345 1.355 . S
C344 H356 0.930 . S
C345 C344 1.355 . S
C345 C347 1.402 . S
C345 H357 0.930 . S
N346 Gd337 2.661 . S
N346 C341 1.350 . S
N346 C347 1.307 . S
C347 C345 1.402 . S
C347 N346 1.307 . S
C347 H348 0.930 . S
H348 C347 0.930 . S
C349 N350 1.334 . S
C349 C351 1.394 . S
C349 H353 0.930 . S
N350 Gd337 2.601 . S
N350 C340 1.359 . S
N350 C349 1.334 . S
C351 C349 1.394 . S
C351 C352 1.359 . S
C351 H363 0.930 . S
C352 C342 1.391 . S
C352 C351 1.359 . S
C352 H364 0.929 . S
H353 C349 0.930 . S
H354 C343 0.930 . S
H355 C372 0.930 . S
H356 C344 0.930 . S
H357 C345 0.930 . S
H358 C339 0.929 . S
H359 C377 0.930 . S
H360 C368 0.930 . S
H361 C369 0.930 . S
H362 C393 0.929 . S
H363 C351 0.930 . S
H364 C352 0.929 . S
H365 C394 0.930 . S
H366 C375 0.930 . S
N367 Gd336 2.661 . S
N367 C371 1.350 . S
N367 C372 1.307 . S
C368 H360 0.930 . S
C368 C369 1.355 . S
C368 C370 1.412 . S
C369 H361 0.930 . S
C369 C368 1.355 . S
C369 C372 1.402 . S
C370 C368 1.412 . S
C370 C371 1.417 . S
C370 C394 1.431 . S
C371 N367 1.350 . S
C371 C370 1.417 . S
C371 C374 1.426 . S
C372 H355 0.930 . S
C372 N367 1.307 . S
C372 C369 1.402 . S
N373 Gd336 2.601 . S
N373 C374 1.359 . S
N373 C377 1.334 . S
C374 C371 1.426 . S
C374 N373 1.359 . S
C374 C378 1.413 . S
C375 H366 0.930 . S
C375 C376 1.359 . S
C375 C377 1.394 . S
C376 C375 1.359 . S
C376 C378 1.391 . S
C376 H379 0.929 . S
C377 H359 0.930 . S
C377 N373 1.334 . S
C377 C375 1.394 . S
C378 C374 1.413 . S
C378 C376 1.391 . S
C378 C393 1.437 . S
H379 C376 0.929 . S
O380 Gd336 2.545 . S
O380 C395 1.258 . S
O381 Gd336 2.606 . S
O381 Gd337 2.362 . S
O381 C392 1.284 . S
O382 Gd337 2.324 . S
O382 C402 1.254 . S
O383 Gd336 2.429 . S
O383 C402 1.268 . S
O384 Gd336 2.545 . S
O384 C392 1.250 . S
O385 Gd336 2.412 . S
O385 C395 1.252 . S
O386 Gd337 2.545 . S
O386 C404 1.258 . S
O387 Gd336 2.362 . S
O387 Gd337 2.606 . S
O387 C403 1.284 . S
O388 Gd336 2.324 . S
O388 C411 1.254 . S
O389 Gd337 2.429 . S
O389 C411 1.268 . S
O390 Gd337 2.545 . S
O390 C403 1.250 . S
O391 Gd337 2.412 . S
O391 C404 1.252 . S
C392 O381 1.284 . S
C392 O384 1.250 . S
C393 H362 0.929 . S
C393 C378 1.437 . S
C393 C394 1.317 . S
C394 H365 0.930 . S
C394 C370 1.431 . S
C394 C393 1.317 . S
C395 Gd336 2.828 . S
C395 O380 1.258 . S
C395 O385 1.252 . S
C395 C396 1.497 . S
C396 C395 1.497 . S
C396 C397 1.395 . S
C396 C398 1.380 . S
C397 C396 1.395 . S
C397 C400 1.398 . S
C397 H412 0.930 . S
C398 C396 1.380 . S
C398 C399 1.391 . S
C398 H413 0.930 . S
C399 C398 1.391 . S
C399 C401 1.387 . S
C400 C397 1.398 . S
C400 C401 1.380 . S
C400 H414 0.930 . S
C401 C399 1.387 . S
C401 C400 1.380 . S
C401 H415 0.930 . S
C402 O382 1.254 . S
C402 O383 1.268 . S
C403 O387 1.284 . S
C403 O390 1.250 . S
C404 Gd337 2.828 . S
C404 O386 1.258 . S
C404 O391 1.252 . S
C404 C405 1.497 . S
C405 C404 1.497 . S
C405 C406 1.395 . S
C405 C407 1.380 . S
C406 C405 1.395 . S
C406 C409 1.398 . S
C406 H416 0.930 . S
C407 C405 1.380 . S
C407 C408 1.391 . S
C407 H417 0.930 . S
C408 C407 1.391 . S
C408 C410 1.387 . S
C409 C406 1.398 . S
C409 C410 1.380 . S
C409 H418 0.930 . S
C410 C408 1.387 . S
C410 C409 1.380 . S
C410 H419 0.930 . S
C411 O388 1.254 . S
C411 O389 1.268 . S
H412 C397 0.930 . S
H413 C398 0.930 . S
H414 C400 0.930 . S
H415 C401 0.930 . S
H416 C406 0.930 . S
H417 C407 0.930 . S
H418 C409 0.930 . S
H419 C410 0.930 . S
Gd420 N451 2.661 . S
Gd420 N457 2.601 . S
Gd420 O464 2.545 . S
Gd420 O465 2.606 . S
Gd420 O467 2.429 . S
Gd420 O468 2.545 . S
Gd420 O469 2.412 . S
Gd420 O471 2.362 . S
Gd420 O472 2.324 . S
Gd420 C479 2.828 . S
Gd421 N430 2.661 . S
Gd421 N434 2.601 . S
Gd421 O465 2.362 . S
Gd421 O466 2.324 . S
Gd421 O470 2.545 . S
Gd421 O471 2.606 . S
Gd421 O473 2.429 . S
Gd421 O474 2.545 . S
Gd421 O475 2.412 . S
Gd421 C488 2.828 . S
C422 C425 1.417 . S
C422 C427 1.431 . S
C422 C428 1.412 . S
C423 C426 1.437 . S
C423 C427 1.317 . S
C423 H442 0.929 . S
C424 C425 1.426 . S
C424 C426 1.413 . S
C424 N434 1.359 . S
C425 C422 1.417 . S
C425 C424 1.426 . S
C425 N430 1.350 . S
C426 C423 1.437 . S
C426 C424 1.413 . S
C426 C436 1.391 . S
C427 C422 1.431 . S
C427 C423 1.317 . S
C427 H438 0.930 . S
C428 C422 1.412 . S
C428 C429 1.355 . S
C428 H440 0.930 . S
C429 C428 1.355 . S
C429 C431 1.402 . S
C429 H441 0.930 . S
N430 Gd421 2.661 . S
N430 C425 1.350 . S
N430 C431 1.307 . S
C431 C429 1.402 . S
C431 N430 1.307 . S
C431 H432 0.930 . S
H432 C431 0.930 . S
C433 N434 1.334 . S
C433 C435 1.394 . S
C433 H437 0.930 . S
N434 Gd421 2.601 . S
N434 C424 1.359 . S
N434 C433 1.334 . S
C435 C433 1.394 . S
C435 C436 1.359 . S
C435 H447 0.930 . S
C436 C426 1.391 . S
C436 C435 1.359 . S
C436 H448 0.929 . S
H437 C433 0.930 . S
H438 C427 0.930 . S
H439 C456 0.930 . S
H440 C428 0.930 . S
H441 C429 0.930 . S
H442 C423 0.929 . S
H443 C461 0.930 . S
H444 C452 0.930 . S
H445 C453 0.930 . S
H446 C477 0.929 . S
H447 C435 0.930 . S
H448 C436 0.929 . S
H449 C478 0.930 . S
H450 C459 0.930 . S
N451 Gd420 2.661 . S
N451 C455 1.350 . S
N451 C456 1.307 . S
C452 H444 0.930 . S
C452 C453 1.355 . S
C452 C454 1.412 . S
C453 H445 0.930 . S
C453 C452 1.355 . S
C453 C456 1.402 . S
C454 C452 1.412 . S
C454 C455 1.417 . S
C454 C478 1.431 . S
C455 N451 1.350 . S
C455 C454 1.417 . S
C455 C458 1.426 . S
C456 H439 0.930 . S
C456 N451 1.307 . S
C456 C453 1.402 . S
N457 Gd420 2.601 . S
N457 C458 1.359 . S
N457 C461 1.334 . S
C458 C455 1.426 . S
C458 N457 1.359 . S
C458 C462 1.413 . S
C459 H450 0.930 . S
C459 C460 1.359 . S
C459 C461 1.394 . S
C460 C459 1.359 . S
C460 C462 1.391 . S
C460 H463 0.929 . S
C461 H443 0.930 . S
C461 N457 1.334 . S
C461 C459 1.394 . S
C462 C458 1.413 . S
C462 C460 1.391 . S
C462 C477 1.437 . S
H463 C460 0.929 . S
O464 Gd420 2.545 . S
O464 C479 1.258 . S
O465 Gd420 2.606 . S
O465 Gd421 2.362 . S
O465 C476 1.284 . S
O466 Gd421 2.324 . S
O466 C486 1.254 . S
O467 Gd420 2.429 . S
O467 C486 1.268 . S
O468 Gd420 2.545 . S
O468 C476 1.250 . S
O469 Gd420 2.412 . S
O469 C479 1.252 . S
O470 Gd421 2.545 . S
O470 C488 1.258 . S
O471 Gd420 2.362 . S
O471 Gd421 2.606 . S
O471 C487 1.284 . S
O472 Gd420 2.324 . S
O472 C495 1.254 . S
O473 Gd421 2.429 . S
O473 C495 1.268 . S
O474 Gd421 2.545 . S
O474 C487 1.250 . S
O475 Gd421 2.412 . S
O475 C488 1.252 . S
C476 O465 1.284 . S
C476 O468 1.250 . S
C477 H446 0.929 . S
C477 C462 1.437 . S
C477 C478 1.317 . S
C478 H449 0.930 . S
C478 C454 1.431 . S
C478 C477 1.317 . S
C479 Gd420 2.828 . S
C479 O464 1.258 . S
C479 O469 1.252 . S
C479 C480 1.497 . S
C480 C479 1.497 . S
C480 C481 1.395 . S
C480 C482 1.380 . S
C481 C480 1.395 . S
C481 C484 1.398 . S
C481 H496 0.930 . S
C482 C480 1.380 . S
C482 C483 1.391 . S
C482 H497 0.930 . S
C483 C482 1.391 . S
C483 C485 1.387 . S
C484 C481 1.398 . S
C484 C485 1.380 . S
C484 H498 0.930 . S
C485 C483 1.387 . S
C485 C484 1.380 . S
C485 H499 0.930 . S
C486 O466 1.254 . S
C486 O467 1.268 . S
C487 O471 1.284 . S
C487 O474 1.250 . S
C488 Gd421 2.828 . S
C488 O470 1.258 . S
C488 O475 1.252 . S
C488 C489 1.497 . S
C489 C488 1.497 . S
C489 C490 1.395 . S
C489 C491 1.380 . S
C490 C489 1.395 . S
C490 C493 1.398 . S
C490 H500 0.930 . S
C491 C489 1.380 . S
C491 C492 1.391 . S
C491 H501 0.930 . S
C492 C491 1.391 . S
C492 C494 1.387 . S
C493 C490 1.398 . S
C493 C494 1.380 . S
C493 H502 0.930 . S
C494 C492 1.387 . S
C494 C493 1.380 . S
C494 H503 0.930 . S
C495 O472 1.254 . S
C495 O473 1.268 . S
H496 C481 0.930 . S
H497 C482 0.930 . S
H498 C484 0.930 . S
H499 C485 0.930 . S
H500 C490 0.930 . S
H501 C491 0.930 . S
H502 C493 0.930 . S
H503 C494 0.930 . S
Gd504 N535 2.661 . S
Gd504 N541 2.601 . S
Gd504 O548 2.545 . S
Gd504 O549 2.606 . S
Gd504 O551 2.429 . S
Gd504 O552 2.545 . S
Gd504 O553 2.412 . S
Gd504 O555 2.362 . S
Gd504 O556 2.324 . S
Gd504 C563 2.828 . S
Gd505 N514 2.661 . S
Gd505 N518 2.601 . S
Gd505 O549 2.362 . S
Gd505 O550 2.324 . S
Gd505 O554 2.545 . S
Gd505 O555 2.606 . S
Gd505 O557 2.429 . S
Gd505 O558 2.545 . S
Gd505 O559 2.412 . S
Gd505 C572 2.828 . S
C506 C509 1.417 . S
C506 C511 1.431 . S
C506 C512 1.412 . S
C507 C510 1.437 . S
C507 C511 1.317 . S
C507 H526 0.929 . S
C508 C509 1.426 . S
C508 C510 1.413 . S
C508 N518 1.359 . S
C509 C506 1.417 . S
C509 C508 1.426 . S
C509 N514 1.350 . S
C510 C507 1.437 . S
C510 C508 1.413 . S
C510 C520 1.391 . S
C511 C506 1.431 . S
C511 C507 1.317 . S
C511 H522 0.930 . S
C512 C506 1.412 . S
C512 C513 1.355 . S
C512 H524 0.930 . S
C513 C512 1.355 . S
C513 C515 1.402 . S
C513 H525 0.930 . S
N514 Gd505 2.661 . S
N514 C509 1.350 . S
N514 C515 1.307 . S
C515 C513 1.402 . S
C515 N514 1.307 . S
C515 H516 0.930 . S
H516 C515 0.930 . S
C517 N518 1.334 . S
C517 C519 1.394 . S
C517 H521 0.930 . S
N518 Gd505 2.601 . S
N518 C508 1.359 . S
N518 C517 1.334 . S
C519 C517 1.394 . S
C519 C520 1.359 . S
C519 H531 0.930 . S
C520 C510 1.391 . S
C520 C519 1.359 . S
C520 H532 0.929 . S
H521 C517 0.930 . S
H522 C511 0.930 . S
H523 C540 0.930 . S
H524 C512 0.930 . S
H525 C513 0.930 . S
H526 C507 0.929 . S
H527 C545 0.930 . S
H528 C536 0.930 . S
H529 C537 0.930 . S
H530 C561 0.929 . S
H531 C519 0.930 . S
H532 C520 0.929 . S
H533 C562 0.930 . S
H534 C543 0.930 . S
N535 Gd504 2.661 . S
N535 C539 1.350 . S
N535 C540 1.307 . S
C536 H528 0.930 . S
C536 C537 1.355 . S
C536 C538 1.412 . S
C537 H529 0.930 . S
C537 C536 1.355 . S
C537 C540 1.402 . S
C538 C536 1.412 . S
C538 C539 1.417 . S
C538 C562 1.431 . S
C539 N535 1.350 . S
C539 C538 1.417 . S
C539 C542 1.426 . S
C540 H523 0.930 . S
C540 N535 1.307 . S
C540 C537 1.402 . S
N541 Gd504 2.601 . S
N541 C542 1.359 . S
N541 C545 1.334 . S
C542 C539 1.426 . S
C542 N541 1.359 . S
C542 C546 1.413 . S
C543 H534 0.930 . S
C543 C544 1.359 . S
C543 C545 1.394 . S
C544 C543 1.359 . S
C544 C546 1.391 . S
C544 H547 0.929 . S
C545 H527 0.930 . S
C545 N541 1.334 . S
C545 C543 1.394 . S
C546 C542 1.413 . S
C546 C544 1.391 . S
C546 C561 1.437 . S
H547 C544 0.929 . S
O548 Gd504 2.545 . S
O548 C563 1.258 . S
O549 Gd504 2.606 . S
O549 Gd505 2.362 . S
O549 C560 1.284 . S
O550 Gd505 2.324 . S
O550 C570 1.254 . S
O551 Gd504 2.429 . S
O551 C570 1.268 . S
O552 Gd504 2.545 . S
O552 C560 1.250 . S
O553 Gd504 2.412 . S
O553 C563 1.252 . S
O554 Gd505 2.545 . S
O554 C572 1.258 . S
O555 Gd504 2.362 . S
O555 Gd505 2.606 . S
O555 C571 1.284 . S
O556 Gd504 2.324 . S
O556 C579 1.254 . S
O557 Gd505 2.429 . S
O557 C579 1.268 . S
O558 Gd505 2.545 . S
O558 C571 1.250 . S
O559 Gd505 2.412 . S
O559 C572 1.252 . S
C560 O549 1.284 . S
C560 O552 1.250 . S
C561 H530 0.929 . S
C561 C546 1.437 . S
C561 C562 1.317 . S
C562 H533 0.930 . S
C562 C538 1.431 . S
C562 C561 1.317 . S
C563 Gd504 2.828 . S
C563 O548 1.258 . S
C563 O553 1.252 . S
C563 C564 1.497 . S
C564 C563 1.497 . S
C564 C565 1.395 . S
C564 C566 1.380 . S
C565 C564 1.395 . S
C565 C568 1.398 . S
C565 H580 0.930 . S
C566 C564 1.380 . S
C566 C567 1.391 . S
C566 H581 0.930 . S
C567 C566 1.391 . S
C567 C569 1.387 . S
C568 C565 1.398 . S
C568 C569 1.380 . S
C568 H582 0.930 . S
C569 C567 1.387 . S
C569 C568 1.380 . S
C569 H583 0.930 . S
C570 O550 1.254 . S
C570 O551 1.268 . S
C571 O555 1.284 . S
C571 O558 1.250 . S
C572 Gd505 2.828 . S
C572 O554 1.258 . S
C572 O559 1.252 . S
C572 C573 1.497 . S
C573 C572 1.497 . S
C573 C574 1.395 . S
C573 C575 1.380 . S
C574 C573 1.395 . S
C574 C577 1.398 . S
C574 H584 0.930 . S
C575 C573 1.380 . S
C575 C576 1.391 . S
C575 H585 0.930 . S
C576 C575 1.391 . S
C576 C578 1.387 . S
C577 C574 1.398 . S
C577 C578 1.380 . S
C577 H586 0.930 . S
C578 C576 1.387 . S
C578 C577 1.380 . S
C578 H587 0.930 . S
C579 O556 1.254 . S
C579 O557 1.268 . S
H580 C565 0.930 . S
H581 C566 0.930 . S
H582 C568 0.930 . S
H583 C569 0.930 . S
H584 C574 0.930 . S
H585 C575 0.930 . S
H586 C577 0.930 . S
H587 C578 0.930 . S
Gd588 N619 2.661 . S
Gd588 N625 2.601 . S
Gd588 O632 2.545 . S
Gd588 O633 2.606 . S
Gd588 O635 2.429 . S
Gd588 O636 2.545 . S
Gd588 O637 2.412 . S
Gd588 O639 2.362 . S
Gd588 O640 2.324 . S
Gd588 C647 2.828 . S
Gd589 N598 2.661 . S
Gd589 N602 2.601 . S
Gd589 O633 2.362 . S
Gd589 O634 2.324 . S
Gd589 O638 2.545 . S
Gd589 O639 2.606 . S
Gd589 O641 2.429 . S
Gd589 O642 2.545 . S
Gd589 O643 2.412 . S
Gd589 C656 2.828 . S
C590 C593 1.417 . S
C590 C595 1.431 . S
C590 C596 1.412 . S
C591 C594 1.437 . S
C591 C595 1.317 . S
C591 H610 0.929 . S
C592 C593 1.426 . S
C592 C594 1.413 . S
C592 N602 1.359 . S
C593 C590 1.417 . S
C593 C592 1.426 . S
C593 N598 1.350 . S
C594 C591 1.437 . S
C594 C592 1.413 . S
C594 C604 1.391 . S
C595 C590 1.431 . S
C595 C591 1.317 . S
C595 H606 0.930 . S
C596 C590 1.412 . S
C596 C597 1.355 . S
C596 H608 0.930 . S
C597 C596 1.355 . S
C597 C599 1.402 . S
C597 H609 0.930 . S
N598 Gd589 2.661 . S
N598 C593 1.350 . S
N598 C599 1.307 . S
C599 C597 1.402 . S
C599 N598 1.307 . S
C599 H600 0.930 . S
H600 C599 0.930 . S
C601 N602 1.334 . S
C601 C603 1.394 . S
C601 H605 0.930 . S
N602 Gd589 2.601 . S
N602 C592 1.359 . S
N602 C601 1.334 . S
C603 C601 1.394 . S
C603 C604 1.359 . S
C603 H615 0.930 . S
C604 C594 1.391 . S
C604 C603 1.359 . S
C604 H616 0.929 . S
H605 C601 0.930 . S
H606 C595 0.930 . S
H607 C624 0.930 . S
H608 C596 0.930 . S
H609 C597 0.930 . S
H610 C591 0.929 . S
H611 C629 0.930 . S
H612 C620 0.930 . S
H613 C621 0.930 . S
H614 C645 0.929 . S
H615 C603 0.930 . S
H616 C604 0.929 . S
H617 C646 0.930 . S
H618 C627 0.930 . S
N619 Gd588 2.661 . S
N619 C623 1.350 . S
N619 C624 1.307 . S
C620 H612 0.930 . S
C620 C621 1.355 . S
C620 C622 1.412 . S
C621 H613 0.930 . S
C621 C620 1.355 . S
C621 C624 1.402 . S
C622 C620 1.412 . S
C622 C623 1.417 . S
C622 C646 1.431 . S
C623 N619 1.350 . S
C623 C622 1.417 . S
C623 C626 1.426 . S
C624 H607 0.930 . S
C624 N619 1.307 . S
C624 C621 1.402 . S
N625 Gd588 2.601 . S
N625 C626 1.359 . S
N625 C629 1.334 . S
C626 C623 1.426 . S
C626 N625 1.359 . S
C626 C630 1.413 . S
C627 H618 0.930 . S
C627 C628 1.359 . S
C627 C629 1.394 . S
C628 C627 1.359 . S
C628 C630 1.391 . S
C628 H631 0.929 . S
C629 H611 0.930 . S
C629 N625 1.334 . S
C629 C627 1.394 . S
C630 C626 1.413 . S
C630 C628 1.391 . S
C630 C645 1.437 . S
H631 C628 0.929 . S
O632 Gd588 2.545 . S
O632 C647 1.258 . S
O633 Gd588 2.606 . S
O633 Gd589 2.362 . S
O633 C644 1.284 . S
O634 Gd589 2.324 . S
O634 C654 1.254 . S
O635 Gd588 2.429 . S
O635 C654 1.268 . S
O636 Gd588 2.545 . S
O636 C644 1.250 . S
O637 Gd588 2.412 . S
O637 C647 1.252 . S
O638 Gd589 2.545 . S
O638 C656 1.258 . S
O639 Gd588 2.362 . S
O639 Gd589 2.606 . S
O639 C655 1.284 . S
O640 Gd588 2.324 . S
O640 C663 1.254 . S
O641 Gd589 2.429 . S
O641 C663 1.268 . S
O642 Gd589 2.545 . S
O642 C655 1.250 . S
O643 Gd589 2.412 . S
O643 C656 1.252 . S
C644 O633 1.284 . S
C644 O636 1.250 . S
C645 H614 0.929 . S
C645 C630 1.437 . S
C645 C646 1.317 . S
C646 H617 0.930 . S
C646 C622 1.431 . S
C646 C645 1.317 . S
C647 Gd588 2.828 . S
C647 O632 1.258 . S
C647 O637 1.252 . S
C647 C648 1.497 . S
C648 C647 1.497 . S
C648 C649 1.395 . S
C648 C650 1.380 . S
C649 C648 1.395 . S
C649 C652 1.398 . S
C649 H664 0.930 . S
C650 C648 1.380 . S
C650 C651 1.391 . S
C650 H665 0.930 . S
C651 C650 1.391 . S
C651 C653 1.387 . S
C652 C649 1.398 . S
C652 C653 1.380 . S
C652 H666 0.945 . S
C653 C651 1.387 . S
C653 C652 1.380 . S
C653 H667 0.930 . S
C654 O634 1.254 . S
C654 O635 1.268 . S
C655 O639 1.284 . S
C655 O642 1.250 . S
C656 Gd589 2.828 . S
C656 O638 1.258 . S
C656 O643 1.252 . S
C656 C657 1.497 . S
C657 C656 1.497 . S
C657 C658 1.395 . S
C657 C659 1.380 . S
C658 C657 1.395 . S
C658 C661 1.398 . S
C658 H668 0.930 . S
C659 C657 1.380 . S
C659 C660 1.391 . S
C659 H669 0.930 . S
C660 C659 1.391 . S
C660 C662 1.387 . S
C661 C658 1.398 . S
C661 C662 1.380 . S
C661 H670 0.930 . S
C662 C660 1.387 . S
C662 C661 1.380 . S
C662 H671 0.930 . S
C663 O640 1.254 . S
C663 O641 1.268 . S
H664 C649 0.930 . S
H665 C650 0.930 . S
H666 C652 0.945 . S
H667 C653 0.930 . S
H668 C658 0.930 . S
H669 C659 0.930 . S
H670 C661 0.930 . S
H671 C662 0.930 . S
Fe672 O673 1.886 1_455 S
Fe672 O676 1.715 . S
Fe672 O681 2.077 1_455 S
Fe672 O686 1.935 . S
Fe672 O692 2.077 1_455 S
Fe672 O701 1.935 . S
O673 Fe672 1.886 1_655 S
O673 Fe675 1.715 . S
Fe674 O676 1.886 . S
Fe674 O677 1.715 1_545 S
Fe674 O684 1.947 . S
Fe674 O685 2.077 . S
Fe674 O691 1.935 1_545 S
Fe674 O700 2.077 . S
Fe675 O673 1.715 . S
Fe675 O678 1.886 1_545 S
Fe675 O682 1.935 . S
Fe675 O687 2.077 1_545 S
Fe675 O693 1.935 . S
Fe675 O697 2.077 1_545 S
O676 Fe672 1.715 . S
O676 Fe674 1.886 . S
O677 Fe674 1.715 1_565 S
O677 Fe679 1.886 . S
O678 Fe675 1.886 1_565 S
O678 Fe679 1.715 1_655 S
Fe679 O677 1.886 . S
Fe679 O678 1.715 1_455 S
Fe679 O683 2.077 . S
Fe679 O688 1.935 1_455 S
Fe679 O690 2.077 . S
Fe679 O698 1.935 1_455 S
C680 O692 1.381 . S
C680 O693 1.421 . S
O681 Fe672 2.077 1_655 S
O681 C694 1.381 . S
O682 Fe675 1.935 . S
O682 C694 1.421 . S
O683 Fe679 2.077 . S
O683 C699 1.381 . S
O684 Fe674 1.947 . S
O684 C699 1.405 1_545 S
O685 Fe674 2.077 . S
O685 C689 1.381 . S
O686 Fe672 1.935 . S
O686 C689 1.421 . S
O687 Fe675 2.077 1_565 S
O687 C695 1.381 . S
O688 Fe679 1.935 1_655 S
O688 C695 1.421 . S
C689 O685 1.381 . S
C689 O686 1.421 . S
O690 Fe679 2.077 . S
O690 C702 1.381 . S
O691 Fe674 1.935 1_565 S
O691 C702 1.421 . S
O692 Fe672 2.077 1_655 S
O692 C680 1.381 . S
O693 Fe675 1.935 . S
O693 C680 1.421 . S
C694 O681 1.381 . S
C694 O682 1.421 . S
C695 O687 1.381 . S
C695 O688 1.421 . S
C696 O697 1.381 . S
C696 O698 1.421 . S
O697 Fe675 2.077 1_565 S
O697 C696 1.381 . S
O698 Fe679 1.935 1_655 S
O698 C696 1.421 . S
C699 O683 1.381 . S
C699 O684 1.405 1_565 S
O700 Fe674 2.077 . S
O700 C703 1.381 . S
O701 Fe672 1.935 . S
O701 C703 1.421 . S
C702 O690 1.381 . S
C702 O691 1.421 . S
C703 O700 1.381 . S
C703 O701 1.421 . S
Fe704 O705 1.886 1_565 S
Fe704 O708 1.715 . S
Fe704 O713 2.077 1_554 S
Fe704 O718 1.935 1_554 S
Fe704 O724 2.077 . S
Fe704 O733 1.935 . S
O705 Fe704 1.886 1_545 S
O705 Fe707 1.715 . S
Fe706 O708 1.886 1_546 S
Fe706 O709 1.715 . S
Fe706 O716 1.947 . S
Fe706 O717 2.088 1_545 S
Fe706 O723 1.923 1_556 S
Fe706 O732 2.067 1_546 S
Fe707 O705 1.715 . S
Fe707 O710 1.886 . S
Fe707 O714 1.935 1_554 S
Fe707 O719 2.077 1_554 S
Fe707 O725 1.935 . S
Fe707 O729 2.077 . S
O708 Fe704 1.715 . S
O708 Fe706 1.886 1_564 S
O709 Fe706 1.715 . S
O709 Fe711 1.886 . S
O710 Fe707 1.886 . S
O710 Fe711 1.717 1_554 S
Fe711 O709 1.886 . S
Fe711 O710 1.717 1_556 S
Fe711 O715 2.098 . S
Fe711 O720 1.961 . S
Fe711 O722 2.055 1_556 S
Fe711 O730 1.911 1_556 S
C712 O724 1.381 . S
C712 O725 1.421 1_565 S
O713 Fe704 2.077 1_556 S
O713 C726 1.381 . S
O714 Fe707 1.935 1_556 S
O714 C726 1.421 1_545 S
O715 Fe711 2.098 . S
O715 C731 1.381 . S
O716 Fe706 1.947 . S
O716 C731 1.421 . S
O717 Fe706 2.088 1_565 S
O717 C721 1.381 . S
O718 Fe704 1.935 1_556 S
O718 C721 1.421 . S
O719 Fe707 2.077 1_556 S
O719 C727 1.381 . S
O720 Fe711 1.961 . S
O720 C727 1.421 . S
C721 O717 1.381 . S
C721 O718 1.421 . S
O722 Fe711 2.055 1_554 S
O722 C734 1.381 . S
O723 Fe706 1.923 1_554 S
O723 C734 1.421 . S
O724 Fe704 2.077 . S
O724 C712 1.381 . S
O725 Fe707 1.935 . S
O725 C712 1.421 1_545 S
C726 O713 1.381 . S
C726 O714 1.421 1_565 S
C727 O719 1.381 . S
C727 O720 1.421 . S
C728 O729 1.381 . S
C728 O730 1.421 . S
O729 Fe707 2.077 . S
O729 C728 1.381 . S
O730 Fe711 1.911 1_554 S
O730 C728 1.421 . S
C731 O715 1.381 . S
C731 O716 1.421 . S
O732 Fe706 2.067 1_564 S
O732 C735 1.381 . S
O733 Fe704 1.935 . S
O733 C735 1.421 . S
C734 O722 1.381 . S
C734 O723 1.421 . S
C735 O732 1.381 . S
C735 O733 1.421 . S
Fe736 O737 1.886 1_455 S
Fe736 O740 1.715 . S
Fe736 O745 2.077 1_455 S
Fe736 O750 1.935 . S
Fe736 O756 2.077 1_455 S
Fe736 O765 1.935 . S
O737 Fe736 1.886 1_655 S
O737 Fe739 1.715 . S
Fe738 O740 1.886 . S
Fe738 O741 1.715 . S
Fe738 O748 1.935 . S
Fe738 O749 2.077 . S
Fe738 O755 1.935 . S
Fe738 O764 2.077 . S
Fe739 O737 1.715 . S
Fe739 O742 1.886 . S
Fe739 O746 1.935 . S
Fe739 O751 2.077 . S
Fe739 O757 1.935 . S
Fe739 O761 2.077 . S
O740 Fe736 1.715 . S
O740 Fe738 1.886 . S
O741 Fe738 1.715 . S
O741 Fe743 1.886 1_455 S
O742 Fe739 1.886 . S
O742 Fe743 1.715 . S
Fe743 O741 1.886 1_655 S
Fe743 O742 1.715 . S
Fe743 O747 2.077 1_655 S
Fe743 O752 1.935 . S
Fe743 O754 2.077 1_655 S
Fe743 O762 1.935 . S
C744 O756 1.381 . S
C744 O757 1.421 . S
O745 Fe736 2.077 1_655 S
O745 C758 1.381 1_554 S
O746 Fe739 1.935 . S
O746 C758 1.421 1_554 S
O747 Fe743 2.077 1_455 S
O747 C763 1.381 . S
O748 Fe738 1.935 . S
O748 C763 1.421 . S
O749 Fe738 2.077 . S
O749 C753 1.381 1_554 S
O750 Fe736 1.935 . S
O750 C753 1.421 1_554 S
O751 Fe739 2.077 . S
O751 C759 1.381 1_554 S
O752 Fe743 1.935 . S
O752 C759 1.421 1_554 S
C753 O749 1.381 1_556 S
C753 O750 1.421 1_556 S
O754 Fe743 2.077 1_455 S
O754 C766 1.381 . S
O755 Fe738 1.935 . S
O755 C766 1.421 . S
O756 Fe736 2.077 1_655 S
O756 C744 1.381 . S
O757 Fe739 1.935 . S
O757 C744 1.421 . S
C758 O745 1.381 1_556 S
C758 O746 1.421 1_556 S
C759 O751 1.381 1_556 S
C759 O752 1.421 1_556 S
C760 O761 1.381 . S
C760 O762 1.421 . S
O761 Fe739 2.077 . S
O761 C760 1.381 . S
O762 Fe743 1.935 . S
O762 C760 1.421 . S
C763 O747 1.381 . S
C763 O748 1.421 . S
O764 Fe738 2.077 . S
O764 C767 1.381 . S
O765 Fe736 1.935 . S
O765 C767 1.421 . S
C766 O754 1.381 . S
C766 O755 1.421 . S
C767 O764 1.381 . S
C767 O765 1.421 . S
Fe768 O769 1.886 . S
Fe768 O772 1.715 . S
Fe768 O777 2.077 . S
Fe768 O782 1.935 . S
Fe768 O788 2.077 . S
Fe768 O797 1.935 . S
O769 Fe768 1.886 . S
O769 Fe771 1.715 1_556 S
Fe770 O772 1.886 1_554 S
Fe770 O773 1.715 . S
Fe770 O780 1.935 . S
Fe770 O781 2.077 1_554 S
Fe770 O787 1.935 . S
Fe770 O796 2.077 1_554 S
Fe771 O769 1.715 1_554 S
Fe771 O774 1.886 . S
Fe771 O778 1.921 1_554 S
Fe771 O783 2.077 . S
Fe771 O789 1.935 . S
Fe771 O793 2.077 . S
O772 Fe768 1.715 . S
O772 Fe770 1.886 1_556 S
O773 Fe770 1.715 . S
O773 Fe775 1.886 . S
O774 Fe771 1.886 . S
O774 Fe775 1.715 . S
Fe775 O773 1.886 . S
Fe775 O774 1.715 . S
Fe775 O779 2.077 . S
Fe775 O784 1.935 . S
Fe775 O786 2.077 . S
Fe775 O794 1.935 . S
C776 O788 1.381 . S
C776 O789 1.421 1_556 S
O777 Fe768 2.077 . S
O777 C790 1.381 . S
O778 Fe771 1.921 1_556 S
O778 C790 1.446 . S
O779 Fe775 2.077 . S
O779 C795 1.381 . S
O780 Fe770 1.935 . S
O780 C795 1.421 . S
O781 Fe770 2.077 1_556 S
O781 C785 1.381 . S
O782 Fe768 1.935 . S
O782 C785 1.421 . S
O783 Fe771 2.077 . S
O783 C791 1.381 . S
O784 Fe775 1.935 . S
O784 C791 1.421 . S
C785 O781 1.381 . S
C785 O782 1.421 . S
O786 Fe775 2.077 . S
O786 C798 1.381 . S
O787 Fe770 1.935 . S
O787 C798 1.421 . S
O788 Fe768 2.077 . S
O788 C776 1.381 . S
O789 Fe771 1.935 . S
O789 C776 1.421 1_554 S
C790 O777 1.381 . S
C790 O778 1.446 . S
C791 O783 1.381 . S
C791 O784 1.421 . S
C792 O793 1.381 . S
C792 O794 1.421 . S
O793 Fe771 2.077 . S
O793 C792 1.381 . S
O794 Fe775 1.935 . S
O794 C792 1.421 . S
C795 O779 1.381 . S
C795 O780 1.421 . S
O796 Fe770 2.077 1_556 S
O796 C799 1.381 . S
O797 Fe768 1.935 . S
O797 C799 1.421 . S
C798 O786 1.381 . S
C798 O787 1.421 . S
C799 O796 1.381 . S
C799 O797 1.421 . S
Fe800 O801 1.886 . S
Fe800 O804 1.715 . S
Fe800 O809 2.077 . S
Fe800 O814 1.935 . S
Fe800 O820 2.077 1_455 S
Fe800 O829 1.935 1_455 S
O801 Fe800 1.886 . S
O801 Fe803 1.715 . S
Fe802 O804 1.886 . S
Fe802 O805 1.715 . S
Fe802 O812 1.935 . S
Fe802 O813 2.077 . S
Fe802 O819 1.935 1_455 S
Fe802 O828 2.077 1_455 S
Fe803 O801 1.715 . S
Fe803 O806 1.886 . S
Fe803 O810 1.935 . S
Fe803 O815 2.077 . S
Fe803 O821 1.935 1_455 S
Fe803 O825 2.077 1_455 S
O804 Fe800 1.715 . S
O804 Fe802 1.886 . S
O805 Fe802 1.715 . S
O805 Fe807 1.886 . S
O806 Fe803 1.886 . S
O806 Fe807 1.715 . S
Fe807 O805 1.886 . S
Fe807 O806 1.715 . S
Fe807 O811 2.077 . S
Fe807 O816 1.935 . S
Fe807 O818 2.077 . S
Fe807 O826 1.955 . S
C808 O820 1.381 . S
C808 O821 1.421 . S
O809 Fe800 2.077 . S
O809 C822 1.381 . S
O810 Fe803 1.935 . S
O810 C822 1.421 . S
O811 Fe807 2.077 . S
O811 C827 1.381 . S
O812 Fe802 1.935 . S
O812 C827 1.421 . S
O813 Fe802 2.077 . S
O813 C817 1.381 . S
O814 Fe800 1.935 . S
O814 C817 1.421 . S
O815 Fe803 2.077 . S
O815 C823 1.381 . S
O816 Fe807 1.935 . S
O816 C823 1.421 . S
C817 O813 1.381 . S
C817 O814 1.421 . S
O818 Fe807 2.077 . S
O818 C830 1.381 1_455 S
O819 Fe802 1.935 1_655 S
O819 C830 1.421 . S
O820 Fe800 2.077 1_655 S
O820 C808 1.381 . S
O821 Fe803 1.935 1_655 S
O821 C808 1.421 . S
C822 O809 1.381 . S
C822 O810 1.421 . S
C823 O815 1.381 . S
C823 O816 1.421 . S
C824 O825 1.381 . S
C824 O826 1.416 1_655 S
O825 Fe803 2.077 1_655 S
O825 C824 1.381 . S
O826 Fe807 1.955 . S
O826 C824 1.416 1_455 S
C827 O811 1.381 . S
C827 O812 1.421 . S
O828 Fe802 2.077 1_655 S
O828 C831 1.381 . S
O829 Fe800 1.935 1_655 S
O829 C831 1.421 . S
C830 O818 1.381 1_655 S
C830 O819 1.421 . S
C831 O828 1.381 . S
C831 O829 1.421 . S
Fe832 O833 1.886 . S
Fe832 O836 1.715 . S
Fe832 O841 2.077 . S
Fe832 O846 1.935 . S
Fe832 O852 2.077 . S
Fe832 O861 1.935 . S
O833 Fe832 1.886 . S
O833 Fe835 1.715 1_565 S
Fe834 O836 1.886 1_545 S
Fe834 O837 1.715 . S
Fe834 O844 1.935 . S
Fe834 O845 2.077 1_545 S
Fe834 O851 1.935 . S
Fe834 O860 2.077 1_545 S
Fe835 O833 1.715 1_545 S
Fe835 O838 1.886 . S
Fe835 O842 1.935 1_545 S
Fe835 O847 2.077 . S
Fe835 O853 1.935 1_545 S
Fe835 O857 2.077 . S
O836 Fe832 1.715 . S
O836 Fe834 1.886 1_565 S
O837 Fe834 1.715 . S
O837 Fe839 1.886 . S
O838 Fe835 1.886 . S
O838 Fe839 1.715 . S
Fe839 O837 1.886 . S
Fe839 O838 1.715 . S
Fe839 O843 2.077 . S
Fe839 O848 1.935 . S
Fe839 O850 2.077 . S
Fe839 O858 1.935 . S
C840 O852 1.381 . S
C840 O853 1.421 . S
O841 Fe832 2.077 . S
O841 C854 1.381 . S
O842 Fe835 1.935 1_565 S
O842 C854 1.421 . S
O843 Fe839 2.077 . S
O843 C859 1.381 . S
O844 Fe834 1.935 . S
O844 C859 1.421 . S
O845 Fe834 2.077 1_565 S
O845 C849 1.381 . S
O846 Fe832 1.935 . S
O846 C849 1.421 . S
O847 Fe835 2.077 . S
O847 C855 1.381 . S
O848 Fe839 1.935 . S
O848 C855 1.421 . S
C849 O845 1.381 . S
C849 O846 1.421 . S
O850 Fe839 2.077 . S
O850 C862 1.381 . S
O851 Fe834 1.935 . S
O851 C862 1.421 . S
O852 Fe832 2.077 . S
O852 C840 1.381 . S
O853 Fe835 1.935 1_565 S
O853 C840 1.421 . S
C854 O841 1.381 . S
C854 O842 1.421 . S
C855 O847 1.381 . S
C855 O848 1.421 . S
C856 O857 1.381 . S
C856 O858 1.421 . S
O857 Fe835 2.077 . S
O857 C856 1.381 . S
O858 Fe839 1.935 . S
O858 C856 1.421 . S
C859 O843 1.381 . S
C859 O844 1.421 . S
O860 Fe834 2.077 1_565 S
O860 C863 1.381 . S
O861 Fe832 1.935 . S
O861 C863 1.421 . S
C862 O850 1.381 . S
C862 O851 1.421 . S
C863 O860 1.381 . S
C863 O861 1.421 . S
H864 C870 0.930 . S
H865 C873 0.930 . S
H866 C874 0.930 . S
H867 C875 0.930 . S
H868 C878 0.930 . S
H869 C879 0.930 . S
C870 H864 0.930 . S
C870 C871 1.355 . S
C870 C872 1.415 . S
C871 C870 1.355 . S
C871 C873 1.419 . S
C872 C870 1.415 . S
C872 C877 1.425 . S
C872 C879 1.409 . S
C873 H865 0.930 . S
C873 C871 1.419 . S
C873 C874 1.362 . S
C874 H866 0.930 . S
C874 C873 1.362 . S
C874 C877 1.409 . S
C875 H867 0.930 . S
C875 C876 1.355 . S
C875 C877 1.415 . S
C876 C875 1.355 . S
C876 C878 1.419 . S
C877 C872 1.425 . S
C877 C874 1.409 . S
C877 C875 1.415 . S
C878 H868 0.930 . S
C878 C876 1.419 . S
C878 C879 1.362 . S
C879 H869 0.930 . S
C879 C872 1.409 . S
C879 C878 1.362 . S
H880 C886 0.930 . S
H881 C889 0.930 . S
H882 C890 0.930 . S
H883 C891 0.930 . S
H884 C894 0.930 . S
H885 C895 0.930 . S
C886 H880 0.930 . S
C886 C887 1.355 . S
C886 C888 1.415 . S
C887 C886 1.355 . S
C887 C889 1.419 . S
C888 C886 1.415 . S
C888 C893 1.425 . S
C888 C895 1.409 . S
C889 H881 0.930 . S
C889 C887 1.419 . S
C889 C890 1.362 . S
C890 H882 0.930 . S
C890 C889 1.362 . S
C890 C893 1.409 . S
C891 H883 0.930 . S
C891 C892 1.355 . S
C891 C893 1.415 . S
C892 C891 1.355 . S
C892 C894 1.419 . S
C893 C888 1.425 . S
C893 C890 1.409 . S
C893 C891 1.415 . S
C894 H884 0.930 . S
C894 C892 1.419 . S
C894 C895 1.362 . S
C895 H885 0.930 . S
C895 C888 1.409 . S
C895 C894 1.362 . S
H896 C902 0.930 . S
H897 C905 0.930 . S
H898 C906 0.930 . S
H899 C907 0.930 . S
H900 C910 0.930 . S
H901 C911 0.930 . S
C902 H896 0.930 . S
C902 C903 1.355 . S
C902 C904 1.415 . S
C903 C902 1.355 . S
C903 C905 1.419 . S
C904 C902 1.415 . S
C904 C909 1.425 . S
C904 C911 1.409 . S
C905 H897 0.930 . S
C905 C903 1.419 . S
C905 C906 1.362 . S
C906 H898 0.930 . S
C906 C905 1.362 . S
C906 C909 1.409 . S
C907 H899 0.930 . S
C907 C908 1.355 . S
C907 C909 1.415 . S
C908 C907 1.355 . S
C908 C910 1.419 . S
C909 C904 1.425 . S
C909 C906 1.409 . S
C909 C907 1.415 . S
C910 H900 0.930 . S
C910 C908 1.419 . S
C910 C911 1.362 . S
C911 H901 0.930 . S
C911 C904 1.409 . S
C911 C910 1.362 . S
H912 C918 0.930 . S
H913 C921 0.930 . S
H914 C922 0.930 . S
H915 C923 0.930 . S
H916 C926 0.930 . S
H917 C927 0.930 . S
C918 H912 0.930 . S
C918 C919 1.355 . S
C918 C920 1.415 . S
C919 C918 1.355 . S
C919 C921 1.419 . S
C920 C918 1.415 . S
C920 C925 1.425 . S
C920 C927 1.409 . S
C921 H913 0.930 . S
C921 C919 1.419 . S
C921 C922 1.362 . S
C922 H914 0.930 . S
C922 C921 1.362 . S
C922 C925 1.409 . S
C923 H915 0.930 . S
C923 C924 1.355 . S
C923 C925 1.415 . S
C924 C923 1.355 . S
C924 C926 1.419 . S
C925 C920 1.425 . S
C925 C922 1.409 . S
C925 C923 1.415 . S
C926 H916 0.930 . S
C926 C924 1.419 . S
C926 C927 1.362 . S
C927 H917 0.930 . S
C927 C920 1.409 . S
C927 C926 1.362 . S
H928 C934 0.930 . S
H929 C937 0.930 . S
H930 C938 0.930 . S
H931 C939 0.930 . S
H932 C942 0.930 1_545 S
H933 C943 0.930 . S
C934 H928 0.930 . S
C934 C935 1.355 . S
C934 C936 1.415 . S
C935 C934 1.355 . S
C935 C937 1.419 . S
C936 C934 1.415 . S
C936 C941 1.425 . S
C936 C943 1.409 . S
C937 H929 0.930 . S
C937 C935 1.419 . S
C937 C938 1.362 . S
C938 H930 0.930 . S
C938 C937 1.362 . S
C938 C941 1.409 . S
C939 H931 0.930 . S
C939 C940 1.355 . S
C939 C941 1.415 . S
C940 C939 1.355 . S
C940 C942 1.419 . S
C941 C936 1.425 . S
C941 C938 1.409 . S
C941 C939 1.415 . S
C942 H932 0.930 1_565 S
C942 C940 1.419 . S
C942 C943 1.362 . S
C943 H933 0.930 . S
C943 C936 1.409 . S
C943 C942 1.362 . S
H944 C950 0.930 . S
H945 C953 0.930 . S
H946 C954 0.930 . S
H947 C955 0.930 . S
H948 C958 0.930 . S
H949 C959 0.930 . S
C950 H944 0.930 . S
C950 C951 1.355 . S
C950 C952 1.415 . S
C951 C950 1.355 . S
C951 C953 1.419 . S
C952 C950 1.415 . S
C952 C957 1.425 . S
C952 C959 1.409 . S
C953 H945 0.930 . S
C953 C951 1.419 . S
C953 C954 1.362 . S
C954 H946 0.930 . S
C954 C953 1.362 . S
C954 C957 1.409 . S
C955 H947 0.930 . S
C955 C956 1.355 . S
C955 C957 1.415 . S
C956 C955 1.355 . S
C956 C958 1.419 . S
C957 C952 1.425 . S
C957 C954 1.409 . S
C957 C955 1.415 . S
C958 H948 0.930 . S
C958 C956 1.419 . S
C958 C959 1.362 . S
C959 H949 0.930 . S
C959 C952 1.409 . S
C959 C958 1.362 . S
H960 C966 0.930 . S
H961 C969 0.930 . S
H962 C970 0.930 . S
H963 C971 0.930 . S
H964 C974 0.930 . S
H965 C975 0.930 . S
C966 H960 0.930 . S
C966 C967 1.355 . S
C966 C968 1.415 . S
C967 C966 1.355 . S
C967 C969 1.419 . S
C968 C966 1.415 . S
C968 C973 1.425 . S
C968 C975 1.409 . S
C969 H961 0.930 . S
C969 C967 1.419 . S
C969 C970 1.362 . S
C970 H962 0.930 . S
C970 C969 1.362 . S
C970 C973 1.409 . S
C971 H963 0.930 . S
C971 C972 1.355 . S
C971 C973 1.415 . S
C972 C971 1.355 . S
C972 C974 1.419 . S
C973 C968 1.425 . S
C973 C970 1.409 . S
C973 C971 1.415 . S
C974 H964 0.930 . S
C974 C972 1.419 . S
C974 C975 1.362 . S
C975 H965 0.930 . S
C975 C968 1.409 . S
C975 C974 1.362 . S
H976 C982 0.930 . S
H977 C985 0.930 . S
H978 C986 0.930 . S
H979 C987 0.930 . S
H980 C990 0.930 . S
H981 C991 0.930 . S
C982 H976 0.930 . S
C982 C983 1.355 . S
C982 C984 1.415 . S
C983 C982 1.355 . S
C983 C985 1.419 . S
C984 C982 1.415 . S
C984 C989 1.425 . S
C984 C991 1.409 . S
C985 H977 0.930 . S
C985 C983 1.419 . S
C985 C986 1.362 . S
C986 H978 0.930 . S
C986 C985 1.362 . S
C986 C989 1.409 . S
C987 H979 0.930 . S
C987 C988 1.355 . S
C987 C989 1.415 . S
C988 C987 1.355 . S
C988 C990 1.419 . S
C989 C984 1.425 . S
C989 C986 1.409 . S
C989 C987 1.415 . S
C990 H980 0.930 . S
C990 C988 1.419 . S
C990 C991 1.362 . S
C991 H981 0.930 . S
C991 C984 1.409 . S
C991 C990 1.362 . S
H992 C998 0.930 . S
H993 C1001 0.930 . S
H994 C1002 0.930 . S
H995 C1003 0.930 . S
H996 C1006 0.930 . S
H997 C1007 0.930 . S
C998 H992 0.930 . S
C998 C999 1.355 . S
C998 C1000 1.415 . S
C999 C998 1.355 . S
C999 C1001 1.419 . S
C1000 C998 1.415 . S
C1000 C1005 1.425 . S
C1000 C1007 1.409 . S
C1001 H993 0.930 . S
C1001 C999 1.419 . S
C1001 C1002 1.362 . S
C1002 H994 0.930 . S
C1002 C1001 1.362 . S
C1002 C1005 1.409 . S
C1003 H995 0.930 . S
C1003 C1004 1.355 . S
C1003 C1005 1.415 . S
C1004 C1003 1.355 . S
C1004 C1006 1.419 . S
C1005 C1000 1.425 . S
C1005 C1002 1.409 . S
C1005 C1003 1.415 . S
C1006 H996 0.930 . S
C1006 C1004 1.419 . S
C1006 C1007 1.362 . S
C1007 H997 0.930 . S
C1007 C1000 1.409 . S
C1007 C1006 1.362 . S
H1008 C1014 0.930 . S
H1009 C1017 0.930 . S
H1010 C1018 0.930 . S
H1011 C1019 0.930 . S
H1012 C1022 0.930 . S
H1013 C1023 0.930 . S
C1014 H1008 0.930 . S
C1014 C1015 1.355 . S
C1014 C1016 1.415 . S
C1015 C1014 1.355 . S
C1015 C1017 1.419 . S
C1016 C1014 1.415 . S
C1016 C1021 1.425 . S
C1016 C1023 1.409 . S
C1017 H1009 0.930 . S
C1017 C1015 1.419 . S
C1017 C1018 1.362 . S
C1018 H1010 0.930 . S
C1018 C1017 1.362 . S
C1018 C1021 1.409 . S
C1019 H1011 0.930 . S
C1019 C1020 1.355 . S
C1019 C1021 1.415 . S
C1020 C1019 1.355 . S
C1020 C1022 1.419 . S
C1021 C1016 1.425 . S
C1021 C1018 1.409 . S
C1021 C1019 1.415 . S
C1022 H1012 0.930 . S
C1022 C1020 1.419 . S
C1022 C1023 1.362 . S
C1023 H1013 0.930 . S
C1023 C1016 1.409 . S
C1023 C1022 1.362 . S
H1024 C1030 0.930 . S
H1025 C1033 0.930 . S
H1026 C1034 0.930 . S
H1027 C1035 0.930 . S
H1028 C1038 0.930 . S
H1029 C1039 0.930 . S
C1030 H1024 0.930 . S
C1030 C1031 1.355 . S
C1030 C1032 1.415 . S
C1031 C1030 1.355 . S
C1031 C1033 1.419 . S
C1032 C1030 1.415 . S
C1032 C1037 1.425 . S
C1032 C1039 1.409 . S
C1033 H1025 0.930 . S
C1033 C1031 1.419 . S
C1033 C1034 1.362 . S
C1034 H1026 0.930 . S
C1034 C1033 1.362 . S
C1034 C1037 1.409 . S
C1035 H1027 0.930 . S
C1035 C1036 1.355 . S
C1035 C1037 1.415 . S
C1036 C1035 1.355 . S
C1036 C1038 1.419 . S
C1037 C1032 1.425 . S
C1037 C1034 1.409 . S
C1037 C1035 1.415 . S
C1038 H1028 0.930 . S
C1038 C1036 1.419 . S
C1038 C1039 1.362 . S
C1039 H1029 0.930 . S
C1039 C1032 1.409 . S
C1039 C1038 1.362 . S
H1040 C1046 0.930 . S
H1041 C1049 0.930 . S
H1042 C1050 0.930 . S
H1043 C1051 0.930 . S
H1044 C1054 0.930 . S
H1045 C1055 0.930 . S
C1046 H1040 0.930 . S
C1046 C1047 1.355 . S
C1046 C1048 1.415 . S
C1047 C1046 1.355 . S
C1047 C1049 1.419 . S
C1048 C1046 1.415 . S
C1048 C1053 1.425 . S
C1048 C1055 1.409 . S
C1049 H1041 0.930 . S
C1049 C1047 1.419 . S
C1049 C1050 1.362 . S
C1050 H1042 0.930 . S
C1050 C1049 1.362 . S
C1050 C1053 1.409 . S
C1051 H1043 0.930 . S
C1051 C1052 1.355 . S
C1051 C1053 1.415 . S
C1052 C1051 1.355 . S
C1052 C1054 1.419 . S
C1053 C1048 1.425 . S
C1053 C1050 1.409 . S
C1053 C1051 1.415 . S
C1054 H1044 0.930 . S
C1054 C1052 1.419 . S
C1054 C1055 1.362 . S
C1055 H1045 0.930 . S
C1055 C1048 1.409 . S
C1055 C1054 1.362 . S
H1056 C1062 0.930 . S
H1057 C1065 0.930 . S
H1058 C1066 0.930 . S
H1059 C1067 0.930 . S
H1060 C1070 0.930 . S
H1061 C1071 0.930 . S
C1062 H1056 0.930 . S
C1062 C1063 1.355 . S
C1062 C1064 1.415 . S
C1063 C1062 1.355 . S
C1063 C1065 1.419 . S
C1064 C1062 1.415 . S
C1064 C1069 1.425 . S
C1064 C1071 1.409 . S
C1065 H1057 0.930 . S
C1065 C1063 1.419 . S
C1065 C1066 1.362 . S
C1066 H1058 0.930 . S
C1066 C1065 1.362 . S
C1066 C1069 1.409 . S
C1067 H1059 0.930 . S
C1067 C1068 1.355 . S
C1067 C1069 1.415 . S
C1068 C1067 1.355 . S
C1068 C1070 1.419 . S
C1069 C1064 1.425 . S
C1069 C1066 1.409 . S
C1069 C1067 1.415 . S
C1070 H1060 0.930 . S
C1070 C1068 1.419 . S
C1070 C1071 1.362 . S
C1071 H1061 0.930 . S
C1071 C1064 1.409 . S
C1071 C1070 1.362 . S
H1072 C1078 0.930 . S
H1073 C1081 0.930 . S
H1074 C1082 0.930 . S
H1075 C1083 0.930 . S
H1076 C1086 0.927 1_554 S
H1077 C1087 0.930 1_554 S
C1078 H1072 0.930 . S
C1078 C1079 1.355 . S
C1078 C1080 1.415 . S
C1079 C1078 1.355 . S
C1079 C1081 1.419 . S
C1080 C1078 1.415 . S
C1080 C1085 1.425 . S
C1080 C1087 1.409 . S
C1081 H1073 0.930 . S
C1081 C1079 1.419 . S
C1081 C1082 1.362 . S
C1082 H1074 0.930 . S
C1082 C1081 1.362 . S
C1082 C1085 1.409 . S
C1083 H1075 0.930 . S
C1083 C1084 1.355 . S
C1083 C1085 1.415 . S
C1084 C1083 1.355 . S
C1084 C1086 1.421 . S
C1085 C1080 1.425 . S
C1085 C1082 1.409 . S
C1085 C1083 1.415 . S
C1086 H1076 0.927 1_556 S
C1086 C1084 1.421 . S
C1086 C1087 1.364 . S
C1087 H1077 0.930 1_556 S
C1087 C1080 1.409 . S
C1087 C1086 1.364 . S
H1088 C1094 0.930 . S
H1089 C1097 0.930 . S
H1090 C1098 0.930 . S
H1091 C1099 0.930 . S
H1092 C1102 0.930 . S
H1093 C1103 0.930 . S
C1094 H1088 0.930 . S
C1094 C1095 1.355 . S
C1094 C1096 1.415 . S
C1095 C1094 1.355 . S
C1095 C1097 1.419 . S
C1096 C1094 1.415 . S
C1096 C1101 1.425 . S
C1096 C1103 1.409 . S
C1097 H1089 0.930 . S
C1097 C1095 1.419 . S
C1097 C1098 1.362 . S
C1098 H1090 0.930 . S
C1098 C1097 1.362 . S
C1098 C1101 1.409 . S
C1099 H1091 0.930 . S
C1099 C1100 1.355 . S
C1099 C1101 1.415 . S
C1100 C1099 1.355 . S
C1100 C1102 1.419 . S
C1101 C1096 1.425 . S
C1101 C1098 1.409 . S
C1101 C1099 1.415 . S
C1102 H1092 0.930 . S
C1102 C1100 1.419 . S
C1102 C1103 1.362 . S
C1103 H1093 0.930 . S
C1103 C1096 1.409 . S
C1103 C1102 1.362 . S
H1104 C1110 0.930 . S
H1105 C1113 0.930 . S
H1106 C1114 0.930 . S
H1107 C1115 0.930 . S
H1108 C1118 0.930 . S
H1109 C1119 0.930 . S
C1110 H1104 0.930 . S
C1110 C1111 1.355 . S
C1110 C1112 1.415 . S
C1111 C1110 1.355 . S
C1111 C1113 1.419 . S
C1112 C1110 1.415 . S
C1112 C1117 1.425 . S
C1112 C1119 1.409 . S
C1113 H1105 0.930 . S
C1113 C1111 1.419 . S
C1113 C1114 1.362 . S
C1114 H1106 0.930 . S
C1114 C1113 1.362 . S
C1114 C1117 1.409 . S
C1115 H1107 0.930 . S
C1115 C1116 1.355 . S
C1115 C1117 1.415 . S
C1116 C1115 1.355 . S
C1116 C1118 1.419 . S
C1117 C1112 1.425 . S
C1117 C1114 1.409 . S
C1117 C1115 1.415 . S
C1118 H1108 0.930 . S
C1118 C1116 1.419 . S
C1118 C1119 1.362 . S
C1119 H1109 0.930 . S
C1119 C1112 1.409 . S
C1119 C1118 1.362 . S
H1120 C1126 0.930 . S
H1121 C1129 0.930 . S
H1122 C1130 0.930 . S
H1123 C1131 0.930 . S
H1124 C1134 0.930 . S
H1125 C1135 0.930 . S
C1126 H1120 0.930 . S
C1126 C1127 1.355 . S
C1126 C1128 1.415 . S
C1127 C1126 1.355 . S
C1127 C1129 1.419 . S
C1128 C1126 1.415 . S
C1128 C1133 1.425 . S
C1128 C1135 1.409 . S
C1129 H1121 0.930 . S
C1129 C1127 1.419 . S
C1129 C1130 1.362 . S
C1130 H1122 0.930 . S
C1130 C1129 1.362 . S
C1130 C1133 1.409 . S
C1131 H1123 0.930 . S
C1131 C1132 1.355 . S
C1131 C1133 1.415 . S
C1132 C1131 1.355 . S
C1132 C1134 1.419 . S
C1133 C1128 1.425 . S
C1133 C1130 1.409 . S
C1133 C1131 1.415 . S
C1134 H1124 0.930 . S
C1134 C1132 1.419 . S
C1134 C1135 1.362 . S
C1135 H1125 0.930 . S
C1135 C1128 1.409 . S
C1135 C1134 1.362 . S
H1136 C1142 0.930 . S
H1137 C1145 0.930 . S
H1138 C1146 0.930 . S
H1139 C1147 0.930 . S
H1140 C1150 0.930 . S
H1141 C1151 0.930 . S
C1142 H1136 0.930 . S
C1142 C1143 1.355 . S
C1142 C1144 1.415 . S
C1143 C1142 1.355 . S
C1143 C1145 1.419 . S
C1144 C1142 1.415 . S
C1144 C1149 1.425 . S
C1144 C1151 1.409 . S
C1145 H1137 0.930 . S
C1145 C1143 1.419 . S
C1145 C1146 1.362 . S
C1146 H1138 0.930 . S
C1146 C1145 1.362 . S
C1146 C1149 1.409 . S
C1147 H1139 0.930 . S
C1147 C1148 1.355 . S
C1147 C1149 1.415 . S
C1148 C1147 1.355 . S
C1148 C1150 1.419 . S
C1149 C1144 1.425 . S
C1149 C1146 1.409 . S
C1149 C1147 1.415 . S
C1150 H1140 0.930 . S
C1150 C1148 1.419 . S
C1150 C1151 1.362 . S
C1151 H1141 0.930 . S
C1151 C1144 1.409 . S
C1151 C1150 1.362 . S
H1152 C1158 0.930 . S
H1153 C1161 0.930 . S
H1154 C1162 0.930 . S
H1155 C1163 0.930 . S
H1156 C1166 0.930 . S
H1157 C1167 0.930 . S
C1158 H1152 0.930 . S
C1158 C1159 1.355 . S
C1158 C1160 1.415 . S
C1159 C1158 1.355 . S
C1159 C1161 1.419 . S
C1160 C1158 1.415 . S
C1160 C1165 1.425 . S
C1160 C1167 1.409 . S
C1161 H1153 0.930 . S
C1161 C1159 1.419 . S
C1161 C1162 1.362 . S
C1162 H1154 0.930 . S
C1162 C1161 1.362 . S
C1162 C1165 1.409 . S
C1163 H1155 0.930 . S
C1163 C1164 1.355 . S
C1163 C1165 1.415 . S
C1164 C1163 1.355 . S
C1164 C1166 1.419 . S
C1165 C1160 1.425 . S
C1165 C1162 1.409 . S
C1165 C1163 1.415 . S
C1166 H1156 0.930 . S
C1166 C1164 1.419 . S
C1166 C1167 1.362 . S
C1167 H1157 0.930 . S
C1167 C1160 1.409 . S
C1167 C1166 1.362 . S
H1168 C1174 0.930 . S
H1169 C1177 0.930 . S
H1170 C1178 0.930 . S
H1171 C1179 0.930 . S
H1172 C1182 0.930 . S
H1173 C1183 0.930 . S
C1174 H1168 0.930 . S
C1174 C1175 1.355 . S
C1174 C1176 1.415 . S
C1175 C1174 1.355 . S
C1175 C1177 1.419 . S
C1176 C1174 1.415 . S
C1176 C1181 1.425 . S
C1176 C1183 1.409 . S
C1177 H1169 0.930 . S
C1177 C1175 1.419 . S
C1177 C1178 1.362 . S
C1178 H1170 0.930 . S
C1178 C1177 1.362 . S
C1178 C1181 1.409 . S
C1179 H1171 0.930 . S
C1179 C1180 1.355 . S
C1179 C1181 1.415 . S
C1180 C1179 1.355 . S
C1180 C1182 1.419 . S
C1181 C1176 1.425 . S
C1181 C1178 1.409 . S
C1181 C1179 1.415 . S
C1182 H1172 0.930 . S
C1182 C1180 1.419 . S
C1182 C1183 1.362 . S
C1183 H1173 0.930 . S
C1183 C1176 1.409 . S
C1183 C1182 1.362 . S
H1184 C1190 0.930 . S
H1185 C1193 0.930 . S
H1186 C1194 0.930 . S
H1187 C1195 0.930 . S
H1188 C1198 0.930 . S
H1189 C1199 0.930 . S
C1190 H1184 0.930 . S
C1190 C1191 1.355 . S
C1190 C1192 1.415 . S
C1191 C1190 1.355 . S
C1191 C1193 1.419 . S
C1192 C1190 1.415 . S
C1192 C1197 1.425 . S
C1192 C1199 1.409 . S
C1193 H1185 0.930 . S
C1193 C1191 1.419 . S
C1193 C1194 1.362 . S
C1194 H1186 0.930 . S
C1194 C1193 1.362 . S
C1194 C1197 1.409 . S
C1195 H1187 0.930 . S
C1195 C1196 1.355 . S
C1195 C1197 1.415 . S
C1196 C1195 1.355 . S
C1196 C1198 1.419 . S
C1197 C1192 1.425 . S
C1197 C1194 1.409 . S
C1197 C1195 1.415 . S
C1198 H1188 0.930 . S
C1198 C1196 1.419 . S
C1198 C1199 1.362 . S
C1199 H1189 0.930 . S
C1199 C1192 1.409 . S
C1199 C1198 1.362 . S
H1200 C1206 0.930 . S
H1201 C1209 0.930 . S
H1202 C1210 0.930 . S
H1203 C1211 0.930 . S
H1204 C1214 0.930 . S
H1205 C1215 0.930 . S
C1206 H1200 0.930 . S
C1206 C1207 1.355 . S
C1206 C1208 1.415 . S
C1207 C1206 1.355 . S
C1207 C1209 1.419 . S
C1208 C1206 1.415 . S
C1208 C1213 1.425 . S
C1208 C1215 1.409 . S
C1209 H1201 0.930 . S
C1209 C1207 1.419 . S
C1209 C1210 1.362 . S
C1210 H1202 0.930 . S
C1210 C1209 1.362 . S
C1210 C1213 1.409 . S
C1211 H1203 0.930 . S
C1211 C1212 1.355 . S
C1211 C1213 1.415 . S
C1212 C1211 1.355 . S
C1212 C1214 1.419 . S
C1213 C1208 1.425 . S
C1213 C1210 1.409 . S
C1213 C1211 1.415 . S
C1214 H1204 0.930 . S
C1214 C1212 1.419 . S
C1214 C1215 1.362 . S
C1215 H1205 0.930 . S
C1215 C1208 1.409 . S
C1215 C1214 1.362 . S
H1216 C1222 0.930 . S
H1217 C1225 0.930 . S
H1218 C1226 0.930 . S
H1219 C1227 0.930 . S
H1220 C1230 0.930 . S
H1221 C1231 0.930 . S
C1222 H1216 0.930 . S
C1222 C1223 1.355 . S
C1222 C1224 1.415 . S
C1223 C1222 1.355 . S
C1223 C1225 1.419 . S
C1224 C1222 1.415 . S
C1224 C1229 1.425 . S
C1224 C1231 1.409 . S
C1225 H1217 0.930 . S
C1225 C1223 1.419 . S
C1225 C1226 1.362 . S
C1226 H1218 0.930 . S
C1226 C1225 1.362 . S
C1226 C1229 1.409 . S
C1227 H1219 0.930 . S
C1227 C1228 1.355 . S
C1227 C1229 1.415 . S
C1228 C1227 1.355 . S
C1228 C1230 1.419 . S
C1229 C1224 1.425 . S
C1229 C1226 1.409 . S
C1229 C1227 1.415 . S
C1230 H1220 0.930 . S
C1230 C1228 1.419 . S
C1230 C1231 1.362 . S
C1231 H1221 0.930 . S
C1231 C1224 1.409 . S
C1231 C1230 1.362 . S
H1232 C1238 0.930 . S
H1233 C1241 0.930 . S
H1234 C1242 0.930 . S
H1235 C1243 0.930 . S
H1236 C1246 0.930 . S
H1237 C1247 0.930 . S
C1238 H1232 0.930 . S
C1238 C1239 1.355 . S
C1238 C1240 1.415 . S
C1239 C1238 1.355 . S
C1239 C1241 1.419 . S
C1240 C1238 1.415 . S
C1240 C1245 1.425 . S
C1240 C1247 1.409 . S
C1241 H1233 0.930 . S
C1241 C1239 1.419 . S
C1241 C1242 1.362 . S
C1242 H1234 0.930 . S
C1242 C1241 1.362 . S
C1242 C1245 1.409 . S
C1243 H1235 0.930 . S
C1243 C1244 1.355 . S
C1243 C1245 1.415 . S
C1244 C1243 1.355 . S
C1244 C1246 1.419 . S
C1245 C1240 1.425 . S
C1245 C1242 1.409 . S
C1245 C1243 1.415 . S
C1246 H1236 0.930 . S
C1246 C1244 1.419 . S
C1246 C1247 1.362 . S
C1247 H1237 0.930 . S
C1247 C1240 1.409 . S
C1247 C1246 1.362 . S
H1248 C1254 0.930 . S
H1249 C1257 0.930 . S
H1250 C1258 0.930 . S
H1251 C1259 0.930 . S
H1252 C1262 0.930 . S
H1253 C1263 0.930 . S
C1254 H1248 0.930 . S
C1254 C1255 1.355 . S
C1254 C1256 1.415 . S
C1255 C1254 1.355 . S
C1255 C1257 1.419 . S
C1256 C1254 1.415 . S
C1256 C1261 1.425 . S
C1256 C1263 1.409 . S
C1257 H1249 0.930 . S
C1257 C1255 1.419 . S
C1257 C1258 1.362 . S
C1258 H1250 0.930 . S
C1258 C1257 1.362 . S
C1258 C1261 1.409 . S
C1259 H1251 0.930 . S
C1259 C1260 1.355 . S
C1259 C1261 1.415 . S
C1260 C1259 1.355 . S
C1260 C1262 1.419 . S
C1261 C1256 1.425 . S
C1261 C1258 1.409 . S
C1261 C1259 1.415 . S
C1262 H1252 0.930 . S
C1262 C1260 1.419 . S
C1262 C1263 1.362 . S
C1263 H1253 0.930 . S
C1263 C1256 1.409 . S
C1263 C1262 1.362 . S
H1264 C1270 0.930 . S
H1265 C1273 0.930 . S
H1266 C1274 0.930 . S
H1267 C1275 0.930 . S
H1268 C1278 0.930 1_554 S
H1269 C1279 0.930 1_554 S
C1270 H1264 0.930 . S
C1270 C1271 1.355 . S
C1270 C1272 1.415 . S
C1271 C1270 1.355 . S
C1271 C1273 1.419 . S
C1272 C1270 1.415 . S
C1272 C1277 1.425 . S
C1272 C1279 1.409 . S
C1273 H1265 0.930 . S
C1273 C1271 1.419 . S
C1273 C1274 1.362 . S
C1274 H1266 0.930 . S
C1274 C1273 1.362 . S
C1274 C1277 1.409 . S
C1275 H1267 0.930 . S
C1275 C1276 1.355 . S
C1275 C1277 1.415 . S
C1276 C1275 1.355 . S
C1276 C1278 1.419 . S
C1277 C1272 1.425 . S
C1277 C1274 1.409 . S
C1277 C1275 1.415 . S
C1278 H1268 0.930 1_556 S
C1278 C1276 1.419 . S
C1278 C1279 1.362 . S
C1279 H1269 0.930 1_556 S
C1279 C1272 1.409 . S
C1279 C1278 1.362 . S
H1280 C1286 0.930 . S
H1281 C1289 0.930 . S
H1282 C1290 0.930 . S
H1283 C1291 0.930 . S
H1284 C1294 0.930 . S
H1285 C1295 0.930 . S
C1286 H1280 0.930 . S
C1286 C1287 1.355 . S
C1286 C1288 1.415 . S
C1287 C1286 1.355 . S
C1287 C1289 1.419 . S
C1288 C1286 1.415 . S
C1288 C1293 1.425 . S
C1288 C1295 1.409 . S
C1289 H1281 0.930 . S
C1289 C1287 1.419 . S
C1289 C1290 1.362 . S
C1290 H1282 0.930 . S
C1290 C1289 1.362 . S
C1290 C1293 1.409 . S
C1291 H1283 0.930 . S
C1291 C1292 1.355 . S
C1291 C1293 1.415 . S
C1292 C1291 1.355 . S
C1292 C1294 1.419 . S
C1293 C1288 1.425 . S
C1293 C1290 1.409 . S
C1293 C1291 1.415 . S
C1294 H1284 0.930 . S
C1294 C1292 1.419 . S
C1294 C1295 1.362 . S
C1295 H1285 0.930 . S
C1295 C1288 1.409 . S
C1295 C1294 1.362 . S
H1296 C1302 0.930 . S
H1297 C1305 0.930 . S
H1298 C1306 0.930 . S
H1299 C1307 0.930 . S
H1300 C1310 0.930 . S
H1301 C1311 0.930 . S
C1302 H1296 0.930 . S
C1302 C1303 1.355 . S
C1302 C1304 1.415 . S
C1303 C1302 1.355 . S
C1303 C1305 1.419 . S
C1304 C1302 1.415 . S
C1304 C1309 1.425 . S
C1304 C1311 1.409 . S
C1305 H1297 0.930 . S
C1305 C1303 1.419 . S
C1305 C1306 1.362 . S
C1306 H1298 0.930 . S
C1306 C1305 1.362 . S
C1306 C1309 1.409 . S
C1307 H1299 0.930 . S
C1307 C1308 1.355 . S
C1307 C1309 1.415 . S
C1308 C1307 1.355 . S
C1308 C1310 1.419 . S
C1309 C1304 1.425 . S
C1309 C1306 1.409 . S
C1309 C1307 1.415 . S
C1310 H1300 0.930 . S
C1310 C1308 1.419 . S
C1310 C1311 1.362 . S
C1311 H1301 0.930 . S
C1311 C1304 1.409 . S
C1311 C1310 1.362 . S
H1312 C1318 0.930 . S
H1313 C1321 0.930 . S
H1314 C1322 0.930 . S
H1315 C1323 0.930 . S
H1316 C1326 0.930 . S
H1317 C1327 0.930 . S
C1318 H1312 0.930 . S
C1318 C1319 1.355 . S
C1318 C1320 1.415 . S
C1319 C1318 1.355 . S
C1319 C1321 1.419 . S
C1320 C1318 1.415 . S
C1320 C1325 1.425 . S
C1320 C1327 1.409 . S
C1321 H1313 0.930 . S
C1321 C1319 1.419 . S
C1321 C1322 1.362 . S
C1322 H1314 0.930 . S
C1322 C1321 1.362 . S
C1322 C1325 1.409 . S
C1323 H1315 0.930 . S
C1323 C1324 1.355 . S
C1323 C1325 1.415 . S
C1324 C1323 1.355 . S
C1324 C1326 1.419 . S
C1325 C1320 1.425 . S
C1325 C1322 1.409 . S
C1325 C1323 1.415 . S
C1326 H1316 0.930 . S
C1326 C1324 1.419 . S
C1326 C1327 1.362 . S
C1327 H1317 0.930 . S
C1327 C1320 1.409 . S
C1327 C1326 1.362 . S
H1328 C1334 0.930 . S
H1329 C1337 0.930 . S
H1330 C1338 0.930 . S
H1331 C1339 0.930 . S
H1332 C1342 0.930 . S
H1333 C1343 0.930 . S
C1334 H1328 0.930 . S
C1334 C1335 1.355 . S
C1334 C1336 1.415 . S
C1335 C1334 1.355 . S
C1335 C1337 1.419 . S
C1336 C1334 1.415 . S
C1336 C1341 1.425 . S
C1336 C1343 1.409 . S
C1337 H1329 0.930 . S
C1337 C1335 1.419 . S
C1337 C1338 1.362 . S
C1338 H1330 0.930 . S
C1338 C1337 1.362 . S
C1338 C1341 1.409 . S
C1339 H1331 0.930 . S
C1339 C1340 1.355 . S
C1339 C1341 1.415 . S
C1340 C1339 1.355 . S
C1340 C1342 1.419 . S
C1341 C1336 1.425 . S
C1341 C1338 1.409 . S
C1341 C1339 1.415 . S
C1342 H1332 0.930 . S
C1342 C1340 1.419 . S
C1342 C1343 1.362 . S
C1343 H1333 0.930 . S
C1343 C1336 1.409 . S
C1343 C1342 1.362 . S
H1344 C1350 0.930 . S
H1345 C1353 0.930 . S
H1346 C1354 0.930 . S
H1347 C1355 0.930 . S
H1348 C1358 0.930 . S
H1349 C1359 0.930 . S
C1350 H1344 0.930 . S
C1350 C1351 1.355 . S
C1350 C1352 1.415 . S
C1351 C1350 1.355 . S
C1351 C1353 1.419 . S
C1352 C1350 1.415 . S
C1352 C1357 1.425 . S
C1352 C1359 1.409 . S
C1353 H1345 0.930 . S
C1353 C1351 1.419 . S
C1353 C1354 1.362 . S
C1354 H1346 0.930 . S
C1354 C1353 1.362 . S
C1354 C1357 1.409 . S
C1355 H1347 0.930 . S
C1355 C1356 1.355 . S
C1355 C1357 1.415 . S
C1356 C1355 1.355 . S
C1356 C1358 1.419 . S
C1357 C1352 1.425 . S
C1357 C1354 1.409 . S
C1357 C1355 1.415 . S
C1358 H1348 0.930 . S
C1358 C1356 1.419 . S
C1358 C1359 1.362 . S
C1359 H1349 0.930 . S
C1359 C1352 1.409 . S
C1359 C1358 1.362 . S
H1360 C1366 0.930 . S
H1361 C1369 0.930 . S
H1362 C1370 0.930 . S
H1363 C1371 0.930 . S
H1364 C1374 0.930 . S
H1365 C1375 0.930 . S
C1366 H1360 0.930 . S
C1366 C1367 1.355 . S
C1366 C1368 1.415 . S
C1367 C1366 1.355 . S
C1367 C1369 1.419 . S
C1368 C1366 1.415 . S
C1368 C1373 1.425 . S
C1368 C1375 1.409 . S
C1369 H1361 0.930 . S
C1369 C1367 1.419 . S
C1369 C1370 1.362 . S
C1370 H1362 0.930 . S
C1370 C1369 1.362 . S
C1370 C1373 1.409 . S
C1371 H1363 0.930 . S
C1371 C1372 1.355 . S
C1371 C1373 1.415 . S
C1372 C1371 1.355 . S
C1372 C1374 1.419 . S
C1373 C1368 1.425 . S
C1373 C1370 1.409 . S
C1373 C1371 1.415 . S
C1374 H1364 0.930 . S
C1374 C1372 1.419 . S
C1374 C1375 1.362 . S
C1375 H1365 0.930 . S
C1375 C1368 1.409 . S
C1375 C1374 1.362 . S
H1376 C1382 0.930 . S
H1377 C1385 0.930 . S
H1378 C1386 0.930 . S
H1379 C1387 0.930 . S
H1380 C1390 0.930 . S
H1381 C1391 0.930 . S
C1382 H1376 0.930 . S
C1382 C1383 1.355 . S
C1382 C1384 1.415 . S
C1383 C1382 1.355 . S
C1383 C1385 1.419 . S
C1384 C1382 1.415 . S
C1384 C1389 1.425 . S
C1384 C1391 1.409 . S
C1385 H1377 0.930 . S
C1385 C1383 1.419 . S
C1385 C1386 1.362 . S
C1386 H1378 0.930 . S
C1386 C1385 1.362 . S
C1386 C1389 1.409 . S
C1387 H1379 0.930 . S
C1387 C1388 1.355 . S
C1387 C1389 1.415 . S
C1388 C1387 1.355 . S
C1388 C1390 1.419 . S
C1389 C1384 1.425 . S
C1389 C1386 1.409 . S
C1389 C1387 1.415 . S
C1390 H1380 0.930 . S
C1390 C1388 1.419 . S
C1390 C1391 1.362 . S
C1391 H1381 0.930 . S
C1391 C1384 1.409 . S
C1391 C1390 1.362 . S
H1392 C1398 0.930 . S
H1393 C1401 0.930 . S
H1394 C1402 0.930 . S
H1395 C1403 0.930 . S
H1396 C1406 0.930 . S
H1397 C1407 0.930 . S
C1398 H1392 0.930 . S
C1398 C1399 1.355 . S
C1398 C1400 1.415 . S
C1399 C1398 1.355 . S
C1399 C1401 1.419 . S
C1400 C1398 1.415 . S
C1400 C1405 1.425 . S
C1400 C1407 1.409 . S
C1401 H1393 0.930 . S
C1401 C1399 1.419 . S
C1401 C1402 1.362 . S
C1402 H1394 0.930 . S
C1402 C1401 1.362 . S
C1402 C1405 1.409 . S
C1403 H1395 0.930 . S
C1403 C1404 1.355 . S
C1403 C1405 1.415 . S
C1404 C1403 1.355 . S
C1404 C1406 1.419 . S
C1405 C1400 1.425 . S
C1405 C1402 1.409 . S
C1405 C1403 1.415 . S
C1406 H1396 0.930 . S
C1406 C1404 1.419 . S
C1406 C1407 1.362 . S
C1407 H1397 0.930 . S
C1407 C1400 1.409 . S
C1407 C1406 1.362 . S
H1408 C1414 0.930 . S
H1409 C1417 0.930 . S
H1410 C1418 0.930 . S
H1411 C1419 0.930 . S
H1412 C1422 0.930 . S
H1413 C1423 0.930 . S
C1414 H1408 0.930 . S
C1414 C1415 1.355 . S
C1414 C1416 1.415 . S
C1415 C1414 1.355 . S
C1415 C1417 1.419 . S
C1416 C1414 1.415 . S
C1416 C1421 1.425 . S
C1416 C1423 1.409 . S
C1417 H1409 0.930 . S
C1417 C1415 1.419 . S
C1417 C1418 1.362 . S
C1418 H1410 0.930 . S
C1418 C1417 1.362 . S
C1418 C1421 1.409 . S
C1419 H1411 0.930 . S
C1419 C1420 1.355 . S
C1419 C1421 1.415 . S
C1420 C1419 1.355 . S
C1420 C1422 1.419 . S
C1421 C1416 1.425 . S
C1421 C1418 1.409 . S
C1421 C1419 1.415 . S
C1422 H1412 0.930 . S
C1422 C1420 1.419 . S
C1422 C1423 1.362 . S
C1423 H1413 0.930 . S
C1423 C1416 1.409 . S
C1423 C1422 1.362 . S
H1424 C1430 0.930 . S
H1425 C1433 0.930 . S
H1426 C1434 0.930 . S
H1427 C1435 0.930 . S
H1428 C1438 0.930 . S
H1429 C1439 0.930 . S
C1430 H1424 0.930 . S
C1430 C1431 1.355 . S
C1430 C1432 1.415 . S
C1431 C1430 1.355 . S
C1431 C1433 1.419 . S
C1432 C1430 1.415 . S
C1432 C1437 1.425 . S
C1432 C1439 1.409 . S
C1433 H1425 0.930 . S
C1433 C1431 1.419 . S
C1433 C1434 1.362 . S
C1434 H1426 0.930 . S
C1434 C1433 1.362 . S
C1434 C1437 1.409 . S
C1435 H1427 0.930 . S
C1435 C1436 1.355 . S
C1435 C1437 1.415 . S
C1436 C1435 1.355 . S
C1436 C1438 1.419 . S
C1437 C1432 1.425 . S
C1437 C1434 1.409 . S
C1437 C1435 1.415 . S
C1438 H1428 0.930 . S
C1438 C1436 1.419 . S
C1438 C1439 1.362 . S
C1439 H1429 0.930 . S
C1439 C1432 1.409 . S
C1439 C1438 1.362 . S
H1440 C1446 0.930 . S
H1441 C1449 0.930 . S
H1442 C1450 0.930 . S
H1443 C1451 0.930 . S
H1444 C1454 0.930 . S
H1445 C1455 0.930 . S
C1446 H1440 0.930 . S
C1446 C1447 1.355 . S
C1446 C1448 1.415 . S
C1447 C1446 1.355 . S
C1447 C1449 1.419 . S
C1448 C1446 1.415 . S
C1448 C1453 1.425 . S
C1448 C1455 1.409 . S
C1449 H1441 0.930 . S
C1449 C1447 1.419 . S
C1449 C1450 1.362 . S
C1450 H1442 0.930 . S
C1450 C1449 1.362 . S
C1450 C1453 1.409 . S
C1451 H1443 0.930 . S
C1451 C1452 1.355 . S
C1451 C1453 1.415 . S
C1452 C1451 1.355 . S
C1452 C1454 1.419 . S
C1453 C1448 1.425 . S
C1453 C1450 1.409 . S
C1453 C1451 1.415 . S
C1454 H1444 0.930 . S
C1454 C1452 1.419 . S
C1454 C1455 1.362 . S
C1455 H1445 0.930 . S
C1455 C1448 1.409 . S
C1455 C1454 1.362 . S
H1456 C1462 0.930 . S
H1457 C1465 0.930 . S
H1458 C1466 0.930 . S
H1459 C1467 0.930 . S
H1460 C1470 0.930 . S
H1461 C1471 0.930 . S
C1462 H1456 0.930 . S
C1462 C1463 1.355 . S
C1462 C1464 1.415 . S
C1463 C1462 1.355 . S
C1463 C1465 1.419 . S
C1464 C1462 1.415 . S
C1464 C1469 1.425 . S
C1464 C1471 1.409 . S
C1465 H1457 0.930 . S
C1465 C1463 1.419 . S
C1465 C1466 1.362 . S
C1466 H1458 0.930 . S
C1466 C1465 1.362 . S
C1466 C1469 1.409 . S
C1467 H1459 0.930 . S
C1467 C1468 1.355 . S
C1467 C1469 1.415 . S
C1468 C1467 1.355 . S
C1468 C1470 1.419 . S
C1469 C1464 1.425 . S
C1469 C1466 1.409 . S
C1469 C1467 1.415 . S
C1470 H1460 0.930 . S
C1470 C1468 1.419 . S
C1470 C1471 1.362 . S
C1471 H1461 0.930 . S
C1471 C1464 1.409 . S
C1471 C1470 1.362 . S
H1472 C1478 0.930 . S
H1473 C1481 0.930 . S
H1474 C1482 0.930 . S
H1475 C1483 0.930 . S
H1476 C1486 0.930 . S
H1477 C1487 0.930 . S
C1478 H1472 0.930 . S
C1478 C1479 1.355 . S
C1478 C1480 1.415 . S
C1479 C1478 1.355 . S
C1479 C1481 1.419 . S
C1480 C1478 1.415 . S
C1480 C1485 1.425 . S
C1480 C1487 1.409 . S
C1481 H1473 0.930 . S
C1481 C1479 1.419 . S
C1481 C1482 1.362 . S
C1482 H1474 0.930 . S
C1482 C1481 1.362 . S
C1482 C1485 1.409 . S
C1483 H1475 0.930 . S
C1483 C1484 1.355 . S
C1483 C1485 1.415 . S
C1484 C1483 1.355 . S
C1484 C1486 1.419 . S
C1485 C1480 1.425 . S
C1485 C1482 1.409 . S
C1485 C1483 1.415 . S
C1486 H1476 0.930 . S
C1486 C1484 1.419 . S
C1486 C1487 1.362 . S
C1487 H1477 0.930 . S
C1487 C1480 1.409 . S
C1487 C1486 1.362 . S
H1488 C1494 0.930 . S
H1489 C1497 0.930 . S
H1490 C1498 0.930 . S
H1491 C1499 0.930 . S
H1492 C1502 0.930 . S
H1493 C1503 0.930 . S
C1494 H1488 0.930 . S
C1494 C1495 1.355 . S
C1494 C1496 1.415 . S
C1495 C1494 1.355 . S
C1495 C1497 1.419 . S
C1496 C1494 1.415 . S
C1496 C1501 1.425 . S
C1496 C1503 1.409 . S
C1497 H1489 0.930 . S
C1497 C1495 1.419 . S
C1497 C1498 1.362 . S
C1498 H1490 0.930 . S
C1498 C1497 1.362 . S
C1498 C1501 1.409 . S
C1499 H1491 0.930 . S
C1499 C1500 1.355 . S
C1499 C1501 1.415 . S
C1500 C1499 1.355 . S
C1500 C1502 1.419 . S
C1501 C1496 1.425 . S
C1501 C1498 1.409 . S
C1501 C1499 1.415 . S
C1502 H1492 0.930 . S
C1502 C1500 1.419 . S
C1502 C1503 1.362 . S
C1503 H1493 0.930 . S
C1503 C1496 1.409 . S
C1503 C1502 1.362 . S
H1504 C1510 0.930 . S
H1505 C1513 0.930 . S
H1506 C1514 0.930 . S
H1507 C1515 0.930 . S
H1508 C1518 0.930 . S
H1509 C1519 0.930 . S
C1510 H1504 0.930 . S
C1510 C1511 1.355 . S
C1510 C1512 1.415 . S
C1511 C1510 1.355 . S
C1511 C1513 1.419 . S
C1512 C1510 1.415 . S
C1512 C1517 1.425 . S
C1512 C1519 1.409 . S
C1513 H1505 0.930 . S
C1513 C1511 1.419 . S
C1513 C1514 1.362 . S
C1514 H1506 0.930 . S
C1514 C1513 1.362 . S
C1514 C1517 1.409 . S
C1515 H1507 0.930 . S
C1515 C1516 1.355 . S
C1515 C1517 1.415 . S
C1516 C1515 1.355 . S
C1516 C1518 1.419 . S
C1517 C1512 1.425 . S
C1517 C1514 1.409 . S
C1517 C1515 1.415 . S
C1518 H1508 0.930 . S
C1518 C1516 1.419 . S
C1518 C1519 1.362 . S
C1519 H1509 0.930 . S
C1519 C1512 1.409 . S
C1519 C1518 1.362 . S
H1520 C1526 0.930 . S
H1521 C1529 0.930 . S
H1522 C1530 0.930 . S
H1523 C1531 0.930 . S
H1524 C1534 0.930 . S
H1525 C1535 0.930 . S
C1526 H1520 0.930 . S
C1526 C1527 1.355 . S
C1526 C1528 1.415 . S
C1527 C1526 1.355 . S
C1527 C1529 1.419 . S
C1528 C1526 1.415 . S
C1528 C1533 1.425 . S
C1528 C1535 1.409 . S
C1529 H1521 0.930 . S
C1529 C1527 1.419 . S
C1529 C1530 1.362 . S
C1530 H1522 0.930 . S
C1530 C1529 1.362 . S
C1530 C1533 1.409 . S
C1531 H1523 0.930 . S
C1531 C1532 1.355 . S
C1531 C1533 1.415 . S
C1532 C1531 1.355 . S
C1532 C1534 1.419 . S
C1533 C1528 1.425 . S
C1533 C1530 1.409 . S
C1533 C1531 1.415 . S
C1534 H1524 0.930 . S
C1534 C1532 1.419 . S
C1534 C1535 1.362 . S
C1535 H1525 0.930 . S
C1535 C1528 1.409 . S
C1535 C1534 1.362 . S
H1536 C1542 0.930 . S
H1537 C1545 0.930 . S
H1538 C1546 0.930 . S
H1539 C1547 0.930 . S
H1540 C1550 0.930 1_455 S
H1541 C1551 0.930 . S
C1542 H1536 0.930 . S
C1542 C1543 1.355 . S
C1542 C1544 1.415 . S
C1543 C1542 1.355 . S
C1543 C1545 1.419 . S
C1544 C1542 1.415 . S
C1544 C1549 1.425 . S
C1544 C1551 1.409 . S
C1545 H1537 0.930 . S
C1545 C1543 1.419 . S
C1545 C1546 1.362 . S
C1546 H1538 0.930 . S
C1546 C1545 1.362 . S
C1546 C1549 1.409 . S
C1547 H1539 0.930 . S
C1547 C1548 1.355 . S
C1547 C1549 1.415 . S
C1548 C1547 1.355 . S
C1548 C1550 1.419 . S
C1549 C1544 1.425 . S
C1549 C1546 1.409 . S
C1549 C1547 1.415 . S
C1550 H1540 0.930 1_655 S
C1550 C1548 1.419 . S
C1550 C1551 1.362 . S
C1551 H1541 0.930 . S
C1551 C1544 1.409 . S
C1551 C1550 1.362 . S
H1552 C1558 0.930 . S
H1553 C1561 0.930 . S
H1554 C1562 0.930 . S
H1555 C1563 0.930 . S
H1556 C1566 0.930 . S
H1557 C1567 0.930 . S
C1558 H1552 0.930 . S
C1558 C1559 1.355 . S
C1558 C1560 1.415 . S
C1559 C1558 1.355 . S
C1559 C1561 1.419 . S
C1560 C1558 1.415 . S
C1560 C1565 1.425 . S
C1560 C1567 1.409 . S
C1561 H1553 0.930 . S
C1561 C1559 1.419 . S
C1561 C1562 1.362 . S
C1562 H1554 0.930 . S
C1562 C1561 1.362 . S
C1562 C1565 1.409 . S
C1563 H1555 0.930 . S
C1563 C1564 1.355 . S
C1563 C1565 1.415 . S
C1564 C1563 1.355 . S
C1564 C1566 1.419 . S
C1565 C1560 1.425 . S
C1565 C1562 1.409 . S
C1565 C1563 1.415 . S
C1566 H1556 0.930 . S
C1566 C1564 1.419 . S
C1566 C1567 1.362 . S
C1567 H1557 0.930 . S
C1567 C1560 1.409 . S
C1567 C1566 1.362 . S
H1568 C1574 0.930 . S
H1569 C1577 0.930 . S
H1570 C1578 0.930 . S
H1571 C1579 0.930 . S
H1572 C1582 0.930 . S
H1573 C1583 0.930 . S
C1574 H1568 0.930 . S
C1574 C1575 1.355 . S
C1574 C1576 1.415 . S
C1575 C1574 1.355 . S
C1575 C1577 1.419 . S
C1576 C1574 1.415 . S
C1576 C1581 1.425 . S
C1576 C1583 1.409 . S
C1577 H1569 0.930 . S
C1577 C1575 1.419 . S
C1577 C1578 1.362 . S
C1578 H1570 0.930 . S
C1578 C1577 1.362 . S
C1578 C1581 1.409 . S
C1579 H1571 0.930 . S
C1579 C1580 1.355 . S
C1579 C1581 1.415 . S
C1580 C1579 1.355 . S
C1580 C1582 1.419 . S
C1581 C1576 1.425 . S
C1581 C1578 1.409 . S
C1581 C1579 1.415 . S
C1582 H1572 0.930 . S
C1582 C1580 1.419 . S
C1582 C1583 1.362 . S
C1583 H1573 0.930 . S
C1583 C1576 1.409 . S
C1583 C1582 1.362 . S
H1584 C1590 0.930 . S
H1585 C1593 0.930 . S
H1586 C1594 0.930 . S
H1587 C1595 0.930 . S
H1588 C1598 0.930 . S
H1589 C1599 0.930 . S
C1590 H1584 0.930 . S
C1590 C1591 1.355 . S
C1590 C1592 1.415 . S
C1591 C1590 1.355 . S
C1591 C1593 1.419 . S
C1592 C1590 1.415 . S
C1592 C1597 1.425 . S
C1592 C1599 1.409 . S
C1593 H1585 0.930 . S
C1593 C1591 1.419 . S
C1593 C1594 1.362 . S
C1594 H1586 0.930 . S
C1594 C1593 1.362 . S
C1594 C1597 1.409 . S
C1595 H1587 0.930 . S
C1595 C1596 1.355 . S
C1595 C1597 1.415 . S
C1596 C1595 1.355 . S
C1596 C1598 1.419 . S
C1597 C1592 1.425 . S
C1597 C1594 1.409 . S
C1597 C1595 1.415 . S
C1598 H1588 0.930 . S
C1598 C1596 1.419 . S
C1598 C1599 1.362 . S
C1599 H1589 0.930 . S
C1599 C1592 1.409 . S
C1599 C1598 1.362 . S
H1600 C1606 0.930 . S
H1601 C1609 0.930 . S
H1602 C1610 0.930 . S
H1603 C1611 0.930 . S
H1604 C1614 0.930 . S
H1605 C1615 0.930 . S
C1606 H1600 0.930 . S
C1606 C1607 1.355 . S
C1606 C1608 1.415 . S
C1607 C1606 1.355 . S
C1607 C1609 1.419 . S
C1608 C1606 1.415 . S
C1608 C1613 1.425 . S
C1608 C1615 1.409 . S
C1609 H1601 0.930 . S
C1609 C1607 1.419 . S
C1609 C1610 1.362 . S
C1610 H1602 0.930 . S
C1610 C1609 1.362 . S
C1610 C1613 1.409 . S
C1611 H1603 0.930 . S
C1611 C1612 1.355 . S
C1611 C1613 1.415 . S
C1612 C1611 1.355 . S
C1612 C1614 1.419 . S
C1613 C1608 1.425 . S
C1613 C1610 1.409 . S
C1613 C1611 1.415 . S
C1614 H1604 0.930 . S
C1614 C1612 1.419 . S
C1614 C1615 1.362 . S
C1615 H1605 0.930 . S
C1615 C1608 1.409 . S
C1615 C1614 1.362 . S
H1616 C1622 0.930 . S
H1617 C1625 0.930 . S
H1618 C1626 0.930 . S
H1619 C1627 0.930 . S
H1620 C1630 0.930 . S
H1621 C1631 0.930 . S
C1622 H1616 0.930 . S
C1622 C1623 1.355 . S
C1622 C1624 1.415 . S
C1623 C1622 1.355 . S
C1623 C1625 1.419 . S
C1624 C1622 1.415 . S
C1624 C1629 1.425 . S
C1624 C1631 1.409 . S
C1625 H1617 0.930 . S
C1625 C1623 1.419 . S
C1625 C1626 1.362 . S
C1626 H1618 0.930 . S
C1626 C1625 1.362 . S
C1626 C1629 1.409 . S
C1627 H1619 0.930 . S
C1627 C1628 1.355 . S
C1627 C1629 1.415 . S
C1628 C1627 1.355 . S
C1628 C1630 1.419 . S
C1629 C1624 1.425 . S
C1629 C1626 1.409 . S
C1629 C1627 1.415 . S
C1630 H1620 0.930 . S
C1630 C1628 1.419 . S
C1630 C1631 1.362 . S
C1631 H1621 0.930 . S
C1631 C1624 1.409 . S
C1631 C1630 1.362 . S
C876 C689 1.577 . S
C871 C75 1.502 . S
C892 C694 0.564 . S
C887 C156 0.694 . S
C908 C695 1.612 . S
C903 C243 1.428 . S
C919 C315 0.689 . S
C924 C699 0.720 . S
C935 C399 0.972 . S
C940 C702 0.648 . S
C956 C703 1.585 . S
C951 C495 1.452 . S
C967 C576 1.076 . S
C972 C680 1.163 . S
C983 C654 1.401 . S
C988 C696 1.561 . S
C1004 C734 0.822 . S
C999 C72 0.919 . S
C1015 C140 1.328 . S
C1020 C760 1.375 . S
C1036 C712 0.940 . S
C1031 C240 0.904 . S
C1052 C767 1.087 . S
C1047 C318 1.058 . S
C1063 C402 1.099 . S
C1068 C721 1.108 . S
C1084 C763 1.461 1_556 S
C1079 C492 1.448 . S
C1095 C560 1.280 . S
C1100 C727 1.384 . S
C1111 C655 2.649 . S
C1116 C758 2.727 . S
C1127 C56 2.906 . S
C1132 C766 2.955 . S
C1143 C403 1.771 . S
C1148 C753 1.775 . S
C1164 C731 2.199 . S
C1159 C476 2.103 . S
C1180 C759 1.864 . S
C1175 C579 1.832 . S
C1191 C651 1.077 . S
C1196 C726 1.161 . S
C1207 C224 2.941 . S
C1212 C744 3.067 . S
C1228 C735 1.783 . S
C1223 C319 1.758 . S
C1239 C159 1.860 . S
C1244 C728 1.905 . S
C1255 C663 1.429 . S
C1260 C790 1.399 . S
C1271 C408 0.856 . S
C1276 C785 0.314 . S
C1292 C799 1.468 . S
C1287 C486 1.425 . S
C1308 C776 1.123 . S
C1303 C567 1.132 . S
C1319 C147 0.697 . S
C1324 C792 0.463 . S
C1340 C791 1.453 . S
C1335 C234 1.410 . S
C1351 C324 0.853 . S
C1356 C795 0.724 . S
C1367 C66 1.483 . S
C1372 C798 1.490 . S
C1383 C660 1.167 . S
C1388 C824 1.210 . S
C1404 C840 1.736 . S
C1399 C392 1.774 . S
C1415 C487 2.114 . S
C1420 C822 2.247 . S
C1431 C570 1.794 . S
C1436 C855 1.824 . S
C1452 C831 1.871 . S
C1447 C150 1.859 . S
C1463 C235 3.008 . S
C1468 C849 3.098 . S
C1484 C827 1.724 . S
C1479 C308 1.675 . S
C1500 C862 3.037 . S
C1495 C67 2.911 . S
C1516 C854 2.731 . S
C1511 C644 2.680 . S
C1527 C151 1.312 . S
C1532 C859 1.339 . S
C1543 C231 0.809 . S
C1548 C830 0.895 . S
C1564 C863 1.060 . S
C1559 C327 1.116 . S
C1575 C63 0.942 . S
C1580 C817 0.925 . S
C1591 C483 1.415 . S
C1596 C856 1.541 . S
C1612 C808 1.382 . S
C1607 C571 1.354 . S
C1628 C823 0.959 . S
C1623 C411 1.032 . S
