# Generated by pormake.
# Topology gar, (4,6)-cn, num edge types: 1
# Building blocks:
#     Node 0, Type 0, BuildingBlock: CEKHIL_clean_sbu_0, # of connection points: 4
#     Node 1, Type 0, BuildingBlock: CEKHIL_clean_sbu_0, # of connection points: 4
#     Node 2, Type 0, BuildingBlock: CEKHIL_clean_sbu_0, # of connection points: 4
#     Node 3, Type 0, BuildingBlock: CEKHIL_clean_sbu_0, # of connection points: 4
#     Node 4, Type 0, BuildingBlock: CEKHIL_clean_sbu_0, # of connection points: 4
#     Node 5, Type 0, BuildingBlock: CEKHIL_clean_sbu_0, # of connection points: 4
#     Node 6, Type 0, BuildingBlock: CEKHIL_clean_sbu_0, # of connection points: 4
#     Node 7, Type 0, BuildingBlock: CEKHIL_clean_sbu_0, # of connection points: 4
#     Node 8, Type 0, BuildingBlock: CEKHIL_clean_sbu_0, # of connection points: 4
#     Node 9, Type 0, BuildingBlock: CEKHIL_clean_sbu_0, # of connection points: 4
#     Node 10, Type 0, BuildingBlock: CEKHIL_clean_sbu_0, # of connection points: 4
#     Node 11, Type 0, BuildingBlock: CEKHIL_clean_sbu_0, # of connection points: 4
#     Node 12, Type 0, BuildingBlock: CEKHIL_clean_sbu_0, # of connection points: 4
#     Node 13, Type 0, BuildingBlock: CEKHIL_clean_sbu_0, # of connection points: 4
#     Node 14, Type 0, BuildingBlock: CEKHIL_clean_sbu_0, # of connection points: 4
#     Node 15, Type 0, BuildingBlock: CEKHIL_clean_sbu_0, # of connection points: 4
#     Node 16, Type 0, BuildingBlock: CEKHIL_clean_sbu_0, # of connection points: 4
#     Node 17, Type 0, BuildingBlock: CEKHIL_clean_sbu_0, # of connection points: 4
#     Node 18, Type 0, BuildingBlock: CEKHIL_clean_sbu_0, # of connection points: 4
#     Node 19, Type 0, BuildingBlock: CEKHIL_clean_sbu_0, # of connection points: 4
#     Node 20, Type 0, BuildingBlock: CEKHIL_clean_sbu_0, # of connection points: 4
#     Node 21, Type 0, BuildingBlock: CEKHIL_clean_sbu_0, # of connection points: 4
#     Node 22, Type 0, BuildingBlock: CEKHIL_clean_sbu_0, # of connection points: 4
#     Node 23, Type 0, BuildingBlock: CEKHIL_clean_sbu_0, # of connection points: 4
#     Node 24, Type 1, BuildingBlock: KUMBOL_clean_sbu_0, # of connection points: 6
#     Node 25, Type 1, BuildingBlock: KUMBOL_clean_sbu_0, # of connection points: 6
#     Node 26, Type 1, BuildingBlock: KUMBOL_clean_sbu_0, # of connection points: 6
#     Node 27, Type 1, BuildingBlock: KUMBOL_clean_sbu_0, # of connection points: 6
#     Node 28, Type 1, BuildingBlock: KUMBOL_clean_sbu_0, # of connection points: 6
#     Node 29, Type 1, BuildingBlock: KUMBOL_clean_sbu_0, # of connection points: 6
#     Node 30, Type 1, BuildingBlock: KUMBOL_clean_sbu_0, # of connection points: 6
#     Node 31, Type 1, BuildingBlock: KUMBOL_clean_sbu_0, # of connection points: 6
#     Node 32, Type 1, BuildingBlock: KUMBOL_clean_sbu_0, # of connection points: 6
#     Node 33, Type 1, BuildingBlock: KUMBOL_clean_sbu_0, # of connection points: 6
#     Node 34, Type 1, BuildingBlock: KUMBOL_clean_sbu_0, # of connection points: 6
#     Node 35, Type 1, BuildingBlock: KUMBOL_clean_sbu_0, # of connection points: 6
#     Node 36, Type 1, BuildingBlock: KUMBOL_clean_sbu_0, # of connection points: 6
#     Node 37, Type 1, BuildingBlock: KUMBOL_clean_sbu_0, # of connection points: 6
#     Node 38, Type 1, BuildingBlock: KUMBOL_clean_sbu_0, # of connection points: 6
#     Node 39, Type 1, BuildingBlock: KUMBOL_clean_sbu_0, # of connection points: 6
#     Edge 40, Type (0, 1), BuildingBlock: TEMPAE_clean_linker_10, # of connection points: 2
#     Edge 41, Type (0, 1), BuildingBlock: TEMPAE_clean_linker_10, # of connection points: 2
#     Edge 42, Type (0, 1), BuildingBlock: TEMPAE_clean_linker_10, # of connection points: 2
#     Edge 43, Type (0, 1), BuildingBlock: TEMPAE_clean_linker_10, # of connection points: 2
#     Edge 44, Type (0, 1), BuildingBlock: TEMPAE_clean_linker_10, # of connection points: 2
#     Edge 45, Type (0, 1), BuildingBlock: TEMPAE_clean_linker_10, # of connection points: 2
#     Edge 46, Type (0, 1), BuildingBlock: TEMPAE_clean_linker_10, # of connection points: 2
#     Edge 47, Type (0, 1), BuildingBlock: TEMPAE_clean_linker_10, # of connection points: 2
#     Edge 48, Type (0, 1), BuildingBlock: TEMPAE_clean_linker_10, # of connection points: 2
#     Edge 49, Type (0, 1), BuildingBlock: TEMPAE_clean_linker_10, # of connection points: 2
#     Edge 50, Type (0, 1), BuildingBlock: TEMPAE_clean_linker_10, # of connection points: 2
#     Edge 51, Type (0, 1), BuildingBlock: TEMPAE_clean_linker_10, # of connection points: 2
#     Edge 52, Type (0, 1), BuildingBlock: TEMPAE_clean_linker_10, # of connection points: 2
#     Edge 53, Type (0, 1), BuildingBlock: TEMPAE_clean_linker_10, # of connection points: 2
#     Edge 54, Type (0, 1), BuildingBlock: TEMPAE_clean_linker_10, # of connection points: 2
#     Edge 55, Type (0, 1), BuildingBlock: TEMPAE_clean_linker_10, # of connection points: 2
#     Edge 56, Type (0, 1), BuildingBlock: TEMPAE_clean_linker_10, # of connection points: 2
#     Edge 57, Type (0, 1), BuildingBlock: TEMPAE_clean_linker_10, # of connection points: 2
#     Edge 58, Type (0, 1), BuildingBlock: TEMPAE_clean_linker_10, # of connection points: 2
#     Edge 59, Type (0, 1), BuildingBlock: TEMPAE_clean_linker_10, # of connection points: 2
#     Edge 60, Type (0, 1), BuildingBlock: TEMPAE_clean_linker_10, # of connection points: 2
#     Edge 61, Type (0, 1), BuildingBlock: TEMPAE_clean_linker_10, # of connection points: 2
#     Edge 62, Type (0, 1), BuildingBlock: TEMPAE_clean_linker_10, # of connection points: 2
#     Edge 63, Type (0, 1), BuildingBlock: TEMPAE_clean_linker_10, # of connection points: 2
#     Edge 64, Type (0, 1), BuildingBlock: TEMPAE_clean_linker_10, # of connection points: 2
#     Edge 65, Type (0, 1), BuildingBlock: TEMPAE_clean_linker_10, # of connection points: 2
#     Edge 66, Type (0, 1), BuildingBlock: TEMPAE_clean_linker_10, # of connection points: 2
#     Edge 67, Type (0, 1), BuildingBlock: TEMPAE_clean_linker_10, # of connection points: 2
#     Edge 68, Type (0, 1), BuildingBlock: TEMPAE_clean_linker_10, # of connection points: 2
#     Edge 69, Type (0, 1), BuildingBlock: TEMPAE_clean_linker_10, # of connection points: 2
#     Edge 70, Type (0, 1), BuildingBlock: TEMPAE_clean_linker_10, # of connection points: 2
#     Edge 71, Type (0, 1), BuildingBlock: TEMPAE_clean_linker_10, # of connection points: 2
#     Edge 72, Type (0, 1), BuildingBlock: TEMPAE_clean_linker_10, # of connection points: 2
#     Edge 73, Type (0, 1), BuildingBlock: TEMPAE_clean_linker_10, # of connection points: 2
#     Edge 74, Type (0, 1), BuildingBlock: TEMPAE_clean_linker_10, # of connection points: 2
#     Edge 75, Type (0, 1), BuildingBlock: TEMPAE_clean_linker_10, # of connection points: 2
#     Edge 76, Type (0, 1), BuildingBlock: TEMPAE_clean_linker_10, # of connection points: 2
#     Edge 77, Type (0, 1), BuildingBlock: TEMPAE_clean_linker_10, # of connection points: 2
#     Edge 78, Type (0, 1), BuildingBlock: TEMPAE_clean_linker_10, # of connection points: 2
#     Edge 79, Type (0, 1), BuildingBlock: TEMPAE_clean_linker_10, # of connection points: 2
#     Edge 80, Type (0, 1), BuildingBlock: TEMPAE_clean_linker_10, # of connection points: 2
#     Edge 81, Type (0, 1), BuildingBlock: TEMPAE_clean_linker_10, # of connection points: 2
#     Edge 82, Type (0, 1), BuildingBlock: TEMPAE_clean_linker_10, # of connection points: 2
#     Edge 83, Type (0, 1), BuildingBlock: TEMPAE_clean_linker_10, # of connection points: 2
#     Edge 84, Type (0, 1), BuildingBlock: TEMPAE_clean_linker_10, # of connection points: 2
#     Edge 85, Type (0, 1), BuildingBlock: TEMPAE_clean_linker_10, # of connection points: 2
#     Edge 86, Type (0, 1), BuildingBlock: TEMPAE_clean_linker_10, # of connection points: 2
#     Edge 87, Type (0, 1), BuildingBlock: TEMPAE_clean_linker_10, # of connection points: 2
#     Edge 88, Type (0, 1), BuildingBlock: TEMPAE_clean_linker_10, # of connection points: 2
#     Edge 89, Type (0, 1), BuildingBlock: TEMPAE_clean_linker_10, # of connection points: 2
#     Edge 90, Type (0, 1), BuildingBlock: TEMPAE_clean_linker_10, # of connection points: 2
#     Edge 91, Type (0, 1), BuildingBlock: TEMPAE_clean_linker_10, # of connection points: 2
#     Edge 92, Type (0, 1), BuildingBlock: TEMPAE_clean_linker_10, # of connection points: 2
#     Edge 93, Type (0, 1), BuildingBlock: TEMPAE_clean_linker_10, # of connection points: 2
#     Edge 94, Type (0, 1), BuildingBlock: TEMPAE_clean_linker_10, # of connection points: 2
#     Edge 95, Type (0, 1), BuildingBlock: TEMPAE_clean_linker_10, # of connection points: 2
#     Edge 96, Type (0, 1), BuildingBlock: TEMPAE_clean_linker_10, # of connection points: 2
#     Edge 97, Type (0, 1), BuildingBlock: TEMPAE_clean_linker_10, # of connection points: 2
#     Edge 98, Type (0, 1), BuildingBlock: TEMPAE_clean_linker_10, # of connection points: 2
#     Edge 99, Type (0, 1), BuildingBlock: TEMPAE_clean_linker_10, # of connection points: 2
#     Edge 100, Type (0, 1), BuildingBlock: TEMPAE_clean_linker_10, # of connection points: 2
#     Edge 101, Type (0, 1), BuildingBlock: TEMPAE_clean_linker_10, # of connection points: 2
#     Edge 102, Type (0, 1), BuildingBlock: TEMPAE_clean_linker_10, # of connection points: 2
#     Edge 103, Type (0, 1), BuildingBlock: TEMPAE_clean_linker_10, # of connection points: 2
#     Edge 104, Type (0, 1), BuildingBlock: TEMPAE_clean_linker_10, # of connection points: 2
#     Edge 105, Type (0, 1), BuildingBlock: TEMPAE_clean_linker_10, # of connection points: 2
#     Edge 106, Type (0, 1), BuildingBlock: TEMPAE_clean_linker_10, # of connection points: 2
#     Edge 107, Type (0, 1), BuildingBlock: TEMPAE_clean_linker_10, # of connection points: 2
#     Edge 108, Type (0, 1), BuildingBlock: TEMPAE_clean_linker_10, # of connection points: 2
#     Edge 109, Type (0, 1), BuildingBlock: TEMPAE_clean_linker_10, # of connection points: 2
#     Edge 110, Type (0, 1), BuildingBlock: TEMPAE_clean_linker_10, # of connection points: 2
#     Edge 111, Type (0, 1), BuildingBlock: TEMPAE_clean_linker_10, # of connection points: 2
#     Edge 112, Type (0, 1), BuildingBlock: TEMPAE_clean_linker_10, # of connection points: 2
#     Edge 113, Type (0, 1), BuildingBlock: TEMPAE_clean_linker_10, # of connection points: 2
#     Edge 114, Type (0, 1), BuildingBlock: TEMPAE_clean_linker_10, # of connection points: 2
#     Edge 115, Type (0, 1), BuildingBlock: TEMPAE_clean_linker_10, # of connection points: 2
#     Edge 116, Type (0, 1), BuildingBlock: TEMPAE_clean_linker_10, # of connection points: 2
#     Edge 117, Type (0, 1), BuildingBlock: TEMPAE_clean_linker_10, # of connection points: 2
#     Edge 118, Type (0, 1), BuildingBlock: TEMPAE_clean_linker_10, # of connection points: 2
#     Edge 119, Type (0, 1), BuildingBlock: TEMPAE_clean_linker_10, # of connection points: 2
#     Edge 120, Type (0, 1), BuildingBlock: TEMPAE_clean_linker_10, # of connection points: 2
#     Edge 121, Type (0, 1), BuildingBlock: TEMPAE_clean_linker_10, # of connection points: 2
#     Edge 122, Type (0, 1), BuildingBlock: TEMPAE_clean_linker_10, # of connection points: 2
#     Edge 123, Type (0, 1), BuildingBlock: TEMPAE_clean_linker_10, # of connection points: 2
#     Edge 124, Type (0, 1), BuildingBlock: TEMPAE_clean_linker_10, # of connection points: 2
#     Edge 125, Type (0, 1), BuildingBlock: TEMPAE_clean_linker_10, # of connection points: 2
#     Edge 126, Type (0, 1), BuildingBlock: TEMPAE_clean_linker_10, # of connection points: 2
#     Edge 127, Type (0, 1), BuildingBlock: TEMPAE_clean_linker_10, # of connection points: 2
#     Edge 128, Type (0, 1), BuildingBlock: TEMPAE_clean_linker_10, # of connection points: 2
#     Edge 129, Type (0, 1), BuildingBlock: TEMPAE_clean_linker_10, # of connection points: 2
#     Edge 130, Type (0, 1), BuildingBlock: TEMPAE_clean_linker_10, # of connection points: 2
#     Edge 131, Type (0, 1), BuildingBlock: TEMPAE_clean_linker_10, # of connection points: 2
#     Edge 132, Type (0, 1), BuildingBlock: TEMPAE_clean_linker_10, # of connection points: 2
#     Edge 133, Type (0, 1), BuildingBlock: TEMPAE_clean_linker_10, # of connection points: 2
#     Edge 134, Type (0, 1), BuildingBlock: TEMPAE_clean_linker_10, # of connection points: 2
#     Edge 135, Type (0, 1), BuildingBlock: TEMPAE_clean_linker_10, # of connection points: 2
# Relax obj value: 0.121
# Max RMSD: 0.321
# Mean RMSD: 0.150
data_MOF--net-gar--node1-CEKHIL_clean_sbu_0--node2-KUMBOL_clean_sbu_0--edge1-TEMPAE_clean_linker_10
_symmetry_space_group_name_H-M    P1
_symmetry_Int_Tables_number       1
_symmetry_cell_setting            triclinic
loop_
_symmetry_equiv_pos_as_xyz
'x, y, z'
_cell_length_a     62.356726
_cell_length_b     56.708548
_cell_length_c     56.181853
_cell_angle_alpha  100.32466
_cell_angle_beta   93.595522
_cell_angle_gamma 102.05776
loop_
_atom_site_label
_atom_site_type_symbol
_atom_site_fract_x
_atom_site_fract_y
_atom_site_fract_z
_atom_type_partial_charge
Co0 Co 0.12564 0.33524 0.38857 0.0
O1 O 0.15584 0.33371 0.38953 0.0
O2 O 0.13127 0.32098 0.35666 0.0
C3 C 0.13214 0.37343 0.40966 0.0
O4 O 0.09342 0.33545 0.38084 0.0
Co5 Co 0.10319 0.34372 0.43641 0.0
O6 O 0.07761 0.3459 0.41497 0.0
C7 C 0.1169 0.2979 0.41918 0.0
C8 C 0.15148 0.32473 0.36642 0.0
C9 C 0.077 0.34053 0.3919 0.0
O10 O 0.11761 0.30224 0.39759 0.0
O11 O 0.11459 0.31361 0.43764 0.0
O12 O 0.13392 0.3698 0.38642 0.0
O13 O 0.1282 0.3542 0.41921 0.0
Co14 Co 1.00309 0.76712 0.66532 0.0
O15 O 0.97212 0.76481 0.66462 0.0
O16 O 0.99357 0.75969 0.69559 0.0
C17 C 0.0107 0.80125 0.65009 0.0
O18 O 0.03555 0.7681 0.67212 0.0
Co19 Co 0.02589 0.76505 0.61644 0.0
O20 O 0.05324 0.76857 0.63827 0.0
C21 C 0.99512 0.72452 0.62724 0.0
C22 C 0.97402 0.76011 0.68633 0.0
C23 C 0.05299 0.76858 0.66098 0.0
O24 O 0.998 0.73176 0.65031 0.0
O25 O 0.9971 0.74009 0.61327 0.0
O26 O 0.00894 0.80311 0.67327 0.0
O27 O 1.00642 0.77947 0.63712 0.0
Co28 Co 0.6256 0.83512 0.8858 0.0
O29 O 0.65605 0.83578 0.88541 0.0
O30 O 0.63059 0.82079 0.85364 0.0
C31 C 0.63115 0.87382 0.9049 0.0
O32 O 0.59287 0.83275 0.87968 0.0
Co33 Co 0.60537 0.84617 0.9351 0.0
O34 O 0.57878 0.84652 0.91403 0.0
C35 C 0.61827 0.79912 0.91848 0.0
C36 C 0.6513 0.82712 0.86228 0.0
C37 C 0.57691 0.83854 0.89112 0.0
O38 O 0.61999 0.80292 0.89675 0.0
O39 O 0.61536 0.81514 0.93642 0.0
O40 O 0.63137 0.869 0.88145 0.0
O41 O 0.62895 0.85547 0.91576 0.0
Co42 Co 0.50542 0.26487 0.16303 0.0
O43 O 0.47523 0.26599 0.1624 0.0
O44 O 0.49612 0.26227 0.19466 0.0
C45 C 0.51499 0.29595 0.14374 0.0
O46 O 0.53735 0.26348 0.16969 0.0
Co47 Co 0.5253 0.25346 0.11364 0.0
O48 O 0.55359 0.26042 0.13483 0.0
C49 C 0.49506 0.21524 0.13148 0.0
C50 C 0.47714 0.26411 0.18505 0.0
C51 C 0.55422 0.26241 0.15786 0.0
O52 O 0.49773 0.22859 0.15279 0.0
O53 O 0.50102 0.22358 0.11264 0.0
O54 O 0.51369 0.30063 0.16707 0.0
O55 O 0.50876 0.27326 0.13305 0.0
Co56 Co 0.09616 0.82013 0.11702 0.0
O57 O 0.06427 0.81703 0.11092 0.0
O58 O 0.08099 0.81235 0.14477 0.0
C59 C 0.10329 0.8568 0.10164 0.0
O60 O 0.12776 0.82257 0.13412 0.0
Co61 Co 0.12889 0.81991 0.08318 0.0
O62 O 0.15375 0.82589 0.109 0.0
C63 C 0.10183 0.77149 0.0857 0.0
C64 C 0.06271 0.81287 0.13281 0.0
C65 C 0.14827 0.82466 0.13018 0.0
O66 O 0.09263 0.78303 0.10278 0.0
O67 O 0.11659 0.78321 0.07469 0.0
O68 O 0.09994 0.85627 0.12414 0.0
O69 O 0.1036 0.83534 0.08876 0.0
Co70 Co 0.53091 0.77764 0.42936 0.0
O71 O 0.56282 0.7843 0.43752 0.0
O72 O 0.5458 0.76647 0.40129 0.0
C73 C 0.52764 0.81651 0.44782 0.0
O74 O 0.49878 0.77042 0.41136 0.0
Co75 Co 0.49807 0.77532 0.46462 0.0
O76 O 0.47488 0.77563 0.43876 0.0
C77 C 0.52139 0.7352 0.45855 0.0
C78 C 0.56434 0.77488 0.41504 0.0
C79 C 0.47913 0.77234 0.41673 0.0
O80 O 0.52825 0.74349 0.4396 0.0
O81 O 0.50971 0.74654 0.4724 0.0
O82 O 0.53365 0.8119 0.4261 0.0
O83 O 0.52498 0.79791 0.45884 0.0
Co84 Co 0.5971 0.3226 0.61928 0.0
O85 O 0.565 0.31803 0.61236 0.0
O86 O 0.58151 0.31614 0.64734 0.0
C87 C 0.60323 0.35885 0.60273 0.0
O88 O 0.62915 0.32642 0.63692 0.0
Co89 Co 0.62923 0.32178 0.58506 0.0
O90 O 0.65399 0.32535 0.61039 0.0
C91 C 0.60191 0.27376 0.58761 0.0
C92 C 0.56322 0.31551 0.63469 0.0
C93 C 0.64929 0.32624 0.63213 0.0
O94 O 0.59446 0.2853 0.60625 0.0
O95 O 0.61521 0.28562 0.5752 0.0
O96 O 0.59973 0.35857 0.62519 0.0
O97 O 0.60405 0.33733 0.59038 0.0
Co98 Co 0.03297 0.27751 0.9321 0.0
O99 O 0.06496 0.28445 0.94011 0.0
O100 O 0.04776 0.26643 0.90401 0.0
C101 C 0.0299 0.31629 0.95071 0.0
O102 O 1.00101 0.26996 0.91374 0.0
Co103 Co 0.99956 0.27453 0.96625 0.0
O104 O 0.97667 0.27576 0.9404 0.0
C105 C 0.02299 0.23471 0.96072 0.0
C106 C 0.06635 0.275 0.91759 0.0
C107 C 0.98133 0.27221 0.91856 0.0
O108 O 0.03069 0.24364 0.94247 0.0
O109 O 0.01037 0.24515 0.97395 0.0
O110 O 0.03551 0.31154 0.92881 0.0
O111 O 0.02684 0.29763 0.96171 0.0
Co112 Co 0.42665 0.04955 0.31881 0.0
O113 O 0.43002 0.08338 0.31847 0.0
O114 O 0.399 0.05375 0.30742 0.0
C115 C 0.44516 0.05593 0.35433 0.0
O116 O 0.41716 0.01373 0.3173 0.0
Co117 Co 0.46625 0.02442 0.32499 0.0
O118 O 0.44367 0.99482 0.32709 0.0
C119 C 0.45345 0.03903 0.27863 0.0
C120 C 0.40929 0.07665 0.31028 0.0
C121 C 0.42366 0.99472 0.32096 0.0
O122 O 0.43508 0.04318 0.28522 0.0
O123 O 0.46819 0.03402 0.29262 0.0
O124 O 0.42427 0.056 0.35364 0.0
O125 O 0.45361 0.05261 0.33414 0.0
Co126 Co 0.30421 0.19021 0.5051 0.0
O127 O 0.33609 0.19789 0.50761 0.0
O128 O 0.31511 0.16288 0.51297 0.0
C129 C 0.30111 0.2044 0.46983 0.0
O130 O 0.27113 0.17372 0.50285 0.0
Co131 Co 0.27596 0.22743 0.50614 0.0
O132 O 0.25001 0.19961 0.49591 0.0
C133 C 0.29811 0.2229 0.55254 0.0
C134 C 0.33466 0.17597 0.51207 0.0
C135 C 0.25204 0.17824 0.49813 0.0
O136 O 0.30494 0.20456 0.5411 0.0
O137 O 0.28702 0.23527 0.5418 0.0
O138 O 0.30371 0.18228 0.46983 0.0
O139 O 0.30094 0.21777 0.49108 0.0
Co140 Co 0.18528 1.00914 0.77712 0.0
O141 O 0.18244 0.97143 0.77324 0.0
O142 O 0.21249 0.9952 0.76921 0.0
C143 C 0.16826 0.0141 0.81601 0.0
O144 O 0.20075 0.04758 0.7804 0.0
Co145 Co 0.15293 0.04178 0.78318 0.0
O146 O 0.17722 0.07185 0.78899 0.0
C147 C 0.1554 0.01809 0.7318 0.0
C148 C 0.2032 0.97274 0.77017 0.0
C149 C 0.19664 0.06965 0.78503 0.0
O150 O 0.17159 1.00821 0.73965 0.0
O151 O 0.14545 0.03013 0.74725 0.0
O152 O 0.1885 0.01191 0.81435 0.0
O153 O 0.15877 0.01312 0.79465 0.0
Co154 Co 0.32961 0.94429 0.00631 0.0
O155 O 0.29848 0.93769 1.00364 0.0
O156 O 0.32137 0.97482 0.01548 0.0
C157 C 0.33193 0.92146 0.97095 0.0
O158 O 0.36238 0.95709 0.01069 0.0
Co159 Co 0.35224 0.89965 0.00649 0.0
O160 O 0.37903 0.92514 0.00581 0.0
C161 C 0.33143 0.91987 0.04873 0.0
C162 C 0.30143 0.96128 0.01066 0.0
C163 C 0.37957 0.9481 0.00931 0.0
O164 O 0.3302 0.93922 0.04052 0.0
O165 O 0.33734 0.90126 0.03688 0.0
O166 O 0.32926 0.94364 0.97156 0.0
O167 O 0.33083 0.91333 0.99087 0.0
Co168 Co 0.32171 0.39698 0.0328 0.0
O169 O 0.28977 0.38955 0.02801 0.0
O170 O 0.31071 0.42602 0.04445 0.0
C171 C 0.32584 0.37769 0.99466 0.0
O172 O 0.3549 0.41329 0.03926 0.0
Co173 Co 0.34854 0.35796 0.03144 0.0
O174 O 0.37528 0.3849 0.03441 0.0
C175 C 0.32295 0.36725 0.07273 0.0
C176 C 0.29103 0.41257 0.03715 0.0
C177 C 0.37374 0.40728 0.03848 0.0
O178 O 0.32044 0.38721 0.06605 0.0
O179 O 0.33191 0.35166 0.06004 0.0
O180 O 0.32307 0.40007 0.99886 0.0
O181 O 0.32486 0.36699 0.01322 0.0
Co182 Co 0.79888 0.1414 0.02837 0.0
O183 O 0.82981 0.14758 0.03585 0.0
O184 O 0.80584 0.11227 0.036 0.0
C185 C 0.80067 0.15798 0.99536 0.0
O186 O 0.76597 0.12891 0.02163 0.0
Co187 Co 0.77628 0.18562 0.0258 0.0
O188 O 0.74959 0.15924 0.01461 0.0
C189 C 0.79623 0.17727 0.07101 0.0
C190 C 0.82612 0.12488 0.03847 0.0
C191 C 0.74895 0.13693 0.01607 0.0
O192 O 0.79535 0.15456 0.06264 0.0
O193 O 0.79487 0.19302 0.05764 0.0
O194 O 0.80218 0.13519 0.99341 0.0
O195 O 0.79958 0.16961 0.01682 0.0
Co196 Co 0.20563 0.54103 0.24158 0.0
O197 O 0.20066 0.50623 0.23234 0.0
O198 O 0.2317 0.5334 0.23014 0.0
C199 C 0.19063 0.54007 0.27621 0.0
O200 O 0.21723 0.57727 0.24968 0.0
Co201 Co 0.17012 0.57128 0.25458 0.0
O202 O 0.19491 0.59811 0.26965 0.0
C203 C 0.17821 0.55269 0.20337 0.0
C204 C 0.22129 0.51068 0.22835 0.0
C205 C 0.21331 0.59699 0.26164 0.0
O206 O 0.19409 0.54308 0.20897 0.0
O207 O 0.16859 0.56549 0.21855 0.0
O208 O 0.21115 0.53869 0.27553 0.0
O209 O 0.18018 0.54161 0.25631 0.0
Co210 Co 0.82136 0.8953 0.53322 0.0
O211 O 0.78952 0.88773 0.52806 0.0
O212 O 0.81021 0.92417 0.54542 0.0
C213 C 0.82472 0.87643 0.49456 0.0
O214 O 0.85472 0.91174 0.54015 0.0
Co215 Co 0.84879 0.8572 0.53084 0.0
O216 O 0.87368 0.88362 0.52636 0.0
C217 C 0.8258 0.86739 0.5745 0.0
C218 C 0.7907 0.9106 0.53758 0.0
C219 C 0.87284 0.90587 0.53399 0.0
O220 O 0.81989 0.88506 0.56615 0.0
O221 O 0.83683 0.85335 0.56279 0.0
O222 O 0.82233 0.89893 0.49946 0.0
O223 O 0.82446 0.86545 0.51295 0.0
Co224 Co 0.9437 0.0799 0.28249 0.0
O225 O 0.94631 0.11774 0.28757 0.0
O226 O 0.91637 0.0925 0.27289 0.0
C227 C 0.96267 0.07722 0.32181 0.0
O228 O 0.9283 0.04102 0.27635 0.0
Co229 Co 0.97785 0.04804 0.28116 0.0
O230 O 0.95359 0.01919 0.28191 0.0
C231 C 0.97246 0.06926 0.237 0.0
C232 C 0.92568 0.11564 0.27968 0.0
C233 C 0.93342 0.01993 0.27798 0.0
O234 O 0.95566 0.07764 0.24631 0.0
O235 O 0.98386 0.05854 0.24949 0.0
O236 O 0.94295 0.08154 0.31956 0.0
O237 O 0.97073 0.07653 0.30114 0.0
Co238 Co 0.29606 0.63728 0.52566 0.0
O239 O 0.32725 0.64479 0.53326 0.0
O240 O 0.30442 0.6084 0.53194 0.0
C241 C 0.29681 0.65508 0.49354 0.0
O242 O 0.26363 0.62258 0.51827 0.0
Co243 Co 0.26989 0.67914 0.52461 0.0
O244 O 0.24494 0.65127 0.51219 0.0
C245 C 0.28602 0.667 0.57081 0.0
C246 C 0.32436 0.62187 0.53507 0.0
C247 C 0.24595 0.62915 0.51242 0.0
O248 O 0.29227 0.64801 0.5604 0.0
O249 O 0.27864 0.68201 0.55982 0.0
O250 O 0.2997 0.63279 0.49105 0.0
O251 O 0.29493 0.66617 0.51509 0.0
Co252 Co 0.44343 0.58188 0.78273 0.0
O253 O 0.44701 0.61976 0.78724 0.0
O254 O 0.41626 0.59516 0.77428 0.0
C255 C 0.46275 0.57945 0.82173 0.0
O256 O 0.42698 0.54346 0.77711 0.0
Co257 Co 0.47534 0.54783 0.78134 0.0
O258 O 0.45049 0.51896 0.78021 0.0
C259 C 0.47233 0.57081 0.73788 0.0
C260 C 0.42622 0.61813 0.7804 0.0
C261 C 0.43077 0.52154 0.77748 0.0
O262 O 0.45524 0.57913 0.74647 0.0
O263 O 0.48293 0.55962 0.75069 0.0
O264 O 0.44305 0.58384 0.81974 0.0
O265 O 0.47051 0.57802 0.80087 0.0
Co266 Co 0.70475 0.04347 0.74455 0.0
O267 O 0.69809 1.00883 0.73506 0.0
O268 O 0.72892 0.03433 0.72935 0.0
C269 C 0.69397 0.04321 0.78104 0.0
O270 O 0.71693 0.07945 0.75194 0.0
Co271 Co 0.66847 0.0724 0.76078 0.0
O272 O 0.69327 0.10139 0.76789 0.0
C273 C 0.67115 0.04888 0.7096 0.0
C274 C 0.71783 0.01192 0.72824 0.0
C275 C 0.71195 0.0997 0.76073 0.0
O276 O 0.69071 0.04623 0.71352 0.0
O277 O 0.65937 0.05623 0.72602 0.0
O278 O 0.71394 0.0411 0.77763 0.0
O279 O 0.68131 0.04458 0.76266 0.0
Co280 Co 0.80529 0.69195 0.00488 0.0
O281 O 0.83742 0.69937 0.00873 0.0
O282 O 0.81588 0.66449 0.0131 0.0
C283 C 0.80307 0.70541 0.96877 0.0
O284 O 0.77212 0.67516 1.00174 0.0
Co285 Co 0.77678 0.72856 1.00375 0.0
O286 O 0.7503 0.70113 0.99746 0.0
C287 C 0.79785 0.72577 0.05135 0.0
C288 C 0.83567 0.6772 0.01269 0.0
C289 C 0.75281 0.67971 0.99866 0.0
O290 O 0.80505 0.70717 0.04082 0.0
O291 O 0.78703 0.73759 0.03956 0.0
O292 O 0.80571 0.68349 0.96965 0.0
O293 O 0.80237 0.71916 0.9897 0.0
Co294 Co 0.92548 0.54856 0.81986 0.0
O295 O 0.9345 0.58322 0.82417 0.0
O296 O 0.90138 0.55932 0.80789 0.0
C297 C 0.93785 0.54589 0.8556 0.0
O298 O 0.91089 0.51325 0.81353 0.0
Co299 Co 0.96037 0.51644 0.82374 0.0
O300 O 0.93405 0.4893 0.82082 0.0
C301 C 0.95494 0.53973 0.78153 0.0
C302 C 0.91438 0.58095 0.81503 0.0
C303 C 0.91488 0.49247 0.81529 0.0
O304 O 0.93671 0.54465 0.78759 0.0
O305 O 0.9677 0.53135 0.79493 0.0
O306 O 0.91884 0.55158 0.8532 0.0
O307 O 0.94938 0.54474 0.8374 0.0
Co308 Co 0.82972 0.4463 0.50159 0.0
O309 O 0.79832 0.43845 0.49708 0.0
O310 O 0.81979 0.47441 0.51612 0.0
C311 C 0.83544 0.43032 0.46409 0.0
O312 O 0.86205 0.46115 0.50883 0.0
Co313 Co 0.85545 0.40365 0.49432 0.0
O314 O 0.88127 0.4314 0.50236 0.0
C315 C 0.83159 0.4134 0.53718 0.0
C316 C 0.80015 0.4608 0.50889 0.0
C317 C 0.88003 0.45376 0.50835 0.0
O318 O 0.82923 0.43432 0.53315 0.0
O319 O 0.83907 0.39809 0.52227 0.0
O320 O 0.83114 0.45207 0.4682 0.0
O321 O 0.83341 0.41841 0.48149 0.0
Co322 Co 0.68529 0.51026 0.27676 0.0
O323 O 0.68285 0.47274 0.27357 0.0
O324 O 0.71279 0.4966 0.26933 0.0
C325 C 0.66737 0.51576 0.31497 0.0
O326 O 0.70021 0.54885 0.28 0.0
Co327 Co 0.65156 0.54129 0.27974 0.0
O328 O 0.67526 0.57186 0.28511 0.0
C329 C 0.65537 0.51619 0.22975 0.0
C330 C 0.70358 0.47411 0.27032 0.0
C331 C 0.69519 0.5705 0.2831 0.0
O332 O 0.67225 0.50819 0.23892 0.0
O333 O 0.64432 0.52805 0.24395 0.0
O334 O 0.68779 0.5139 0.31407 0.0
O335 O 0.65822 0.51391 0.29323 0.0
Gd336 Gd 0.09049 0.05752 0.0397 0.0
Gd337 Gd 0.03959 0.03072 0.00788 0.0
C338 C 0.9989 0.9554 0.01593 0.0
C339 C 0.99127 0.93338 0.97408 0.0
C340 C 0.01433 0.97494 0.98398 0.0
C341 C 0.01207 0.97571 0.00835 0.0
C342 C 1.00377 0.95379 0.96653 0.0
C343 C 0.98875 0.93424 0.99872 0.0
C344 C 0.99613 0.95692 0.04059 0.0
C345 C 1.00696 0.9779 0.05718 0.0
N346 N 0.02248 0.9963 0.02463 0.0
C347 C 0.02038 0.99716 0.04899 0.0
H348 H 0.02983 0.01174 0.06284 0.0
C349 C 0.02657 0.99579 0.95288 0.0
N350 N 0.026 0.99518 0.97714 0.0
C351 C 0.01677 0.97519 0.93504 0.0
C352 C 1.00547 0.95399 0.94189 0.0
H353 H 0.034 0.01249 0.94702 0.0
H354 H 0.97876 0.91849 1.00428 0.0
H355 H 0.10224 0.07909 0.98711 0.0
H356 H 0.98607 0.94182 0.04704 0.0
H357 H 1.00557 0.97899 0.07644 0.0
H358 H 0.98311 0.91703 0.96094 0.0
H359 H 0.09899 0.07085 0.10055 0.0
H360 H 0.12914 0.15583 0.00577 0.0
H361 H 0.11748 0.11744 0.97505 0.0
H362 H 0.13442 0.17368 0.09247 0.0
H363 H 0.0175 0.9759 0.91598 0.0
H364 H 0.99756 0.93815 0.928 0.0
H365 H 0.13531 0.17655 0.04944 0.0
H366 H 0.11348 0.10674 0.13355 0.0
N367 N 0.10449 0.09432 0.02522 0.0
C368 C 0.12236 0.13874 0.01142 0.0
C369 C 0.11594 0.11714 0.99408 0.0
C370 C 0.12054 0.13794 0.03592 0.0
C371 C 0.1114 0.11522 0.04238 0.0
C372 C 0.10739 0.09505 1.00131 0.0
N373 N 0.10251 0.09151 0.0723 0.0
C374 C 0.11052 0.11373 0.06661 0.0
C375 C 0.11251 0.10906 0.11484 0.0
C376 C 0.11988 0.13218 0.10931 0.0
C377 C 0.10418 0.08881 0.09605 0.0
C378 C 0.11923 0.13472 0.08499 0.0
H379 H 0.12659 0.14782 0.12389 0.0
O380 O 0.11227 0.04522 0.06351 0.0
O381 O 0.0693 0.01978 0.02348 0.0
O382 O 0.03301 0.04662 0.04779 0.0
O383 O 0.06684 0.06594 0.06908 0.0
O384 O 0.07935 0.02691 0.05996 0.0
O385 O 0.12375 0.05677 0.03065 0.0
O386 O 0.01711 0.03847 0.98109 0.0
O387 O 0.06097 0.06794 0.02334 0.0
O388 O 0.09795 0.04223 1.00004 0.0
O389 O 0.06395 0.02506 0.97827 0.0
O390 O 0.05139 0.05957 0.98624 0.0
O391 O 0.00988 0.04197 0.0187 0.0
C392 C 0.07015 1.00944 0.042 0.0
C393 C 0.12775 0.1574 0.0786 0.0
C394 C 0.12829 0.15903 0.05411 0.0
C395 C 0.12846 0.04868 0.05018 0.0
C396 C 0.15064 0.05696 0.06256 0.0
C397 C 0.15503 0.06864 0.08712 0.0
C398 C 0.16704 0.04837 0.05039 0.0
C399 C 0.18718 0.04889 0.06303 0.0
C400 C 0.17564 0.07082 0.09952 0.0
C401 C 0.19152 0.06047 0.08775 0.0
C402 C 0.04502 0.05885 0.06867 0.0
C403 C 0.06016 0.07716 1.00417 0.0
C404 C 1.00338 0.04336 0.99663 0.0
C405 C 0.98003 0.03473 0.98854 0.0
C406 C 0.97172 0.0152 0.96877 0.0
C407 C 0.96604 0.04844 0.99963 0.0
C408 C 0.94395 0.04329 0.99076 0.0
C409 C 0.9494 1.0099 0.96002 0.0
C410 C 0.93549 0.02407 0.97089 0.0
C411 C 0.08589 0.03134 0.97887 0.0
H412 H 0.14242 0.07507 0.097 0.0
H413 H 0.16343 0.03978 0.03128 0.0
H414 H 0.17894 0.07945 0.11858 0.0
H415 H 0.20677 0.06083 0.09827 0.0
H416 H 0.98244 1.00449 0.95984 0.0
H417 H 0.97248 0.06371 0.01475 0.0
H418 H 0.94298 0.99509 0.94461 0.0
H419 H 0.91828 0.02016 0.96384 0.0
Gd420 Gd 0.29967 0.80864 0.30373 0.0
Gd421 Gd 0.32231 0.78575 0.24714 0.0
C422 C 0.2985 0.70904 0.19809 0.0
C423 C 0.32611 0.68768 0.20964 0.0
C424 C 0.32807 0.73012 0.22957 0.0
C425 C 0.30903 0.7302 0.21559 0.0
C426 C 0.33753 0.70929 0.22545 0.0
C427 C 0.30656 0.68754 0.19603 0.0
C428 C 0.28116 0.71057 0.18188 0.0
C429 C 0.27606 0.73327 0.1818 0.0
N430 N 0.30245 0.75177 0.21685 0.0
C431 C 0.28761 0.75389 0.19866 0.0
H432 H 0.28484 0.7716 0.19651 0.0
C433 C 0.36141 0.75449 0.25035 0.0
N434 N 0.33922 0.75156 0.24402 0.0
C435 C 0.37144 0.7345 0.24694 0.0
C436 C 0.35917 0.71151 0.23526 0.0
H437 H 0.37172 0.77235 0.25826 0.0
H438 H 0.29857 0.67116 0.18283 0.0
H439 H 0.35554 0.83666 0.3171 0.0
H440 H 0.27263 0.69472 0.16833 0.0
H441 H 0.26373 0.73511 0.16821 0.0
H442 H 0.333 0.67149 0.20659 0.0
H443 H 0.24981 0.82298 0.2945 0.0
H444 H 0.35904 0.89751 0.37516 0.0
H445 H 0.37694 0.86776 0.35084 0.0
H446 H 0.28586 0.91124 0.37009 0.0
H447 H 0.38876 0.73702 0.2529 0.0
H448 H 0.36711 0.69612 0.23214 0.0
H449 H 0.32509 0.91394 0.38178 0.0
H450 H 0.23102 0.85447 0.31223 0.0
N451 N 0.32457 0.8448 0.32527 0.0
C452 C 0.34926 0.88306 0.36099 0.0
C453 C 0.35943 0.86643 0.34721 0.0
C454 C 0.32678 0.88149 0.35555 0.0
C455 C 0.31474 0.86198 0.33727 0.0
C456 C 0.347 0.84818 0.32849 0.0
N457 N 0.28171 0.84163 0.31271 0.0
C458 C 0.29271 0.86056 0.33053 0.0
C459 C 0.24849 0.85671 0.31722 0.0
C460 C 0.25977 0.87646 0.33509 0.0
C461 C 0.25956 0.83917 0.3066 0.0
C462 C 0.28206 0.87846 0.34217 0.0
H463 H 0.25101 0.88977 0.34367 0.0
O464 O 0.26681 0.79091 0.31081 0.0
O465 O 0.29849 0.77818 0.27291 0.0
O466 O 0.28627 0.7877 0.23732 0.0
O467 O 0.27778 0.81336 0.27095 0.0
O468 O 0.29908 0.76951 0.30734 0.0
O469 O 0.29237 0.80956 0.34078 0.0
O470 O 0.3558 0.80456 0.24327 0.0
O471 O 0.32249 0.81793 0.27641 0.0
O472 O 0.3309 0.79892 0.31831 0.0
O473 O 0.34363 0.78239 0.28197 0.0
O474 O 0.31871 0.82259 0.24074 0.0
O475 O 0.33176 0.78843 0.2114 0.0
C476 C 0.29817 0.7613 0.28434 0.0
C477 C 0.29384 0.8975 0.36083 0.0
C478 C 0.31613 0.89896 0.36757 0.0
C479 C 0.27179 0.79805 0.33433 0.0
C480 C 0.2609 0.78309 0.35055 0.0
C481 C 0.23919 0.78426 0.35489 0.0
C482 C 0.27238 0.77007 0.36374 0.0
C483 C 0.26222 0.75875 0.38153 0.0
C484 C 0.22907 0.77277 0.37254 0.0
C485 C 0.2406 0.76013 0.38598 0.0
C486 C 0.27336 0.8016 0.24786 0.0
C487 C 0.32055 0.83338 0.26329 0.0
C488 C 0.35211 0.79933 0.21959 0.0
C489 C 0.36485 0.8148 0.20499 0.0
C490 C 0.38718 0.81451 0.20395 0.0
C491 C 0.35464 0.82722 0.18989 0.0
C492 C 0.36668 0.839 0.17345 0.0
C493 C 0.39922 0.82626 0.18764 0.0
C494 C 0.38902 0.83836 0.17231 0.0
C495 C 0.34547 0.78864 0.30635 0.0
H496 H 0.23028 0.79461 0.34502 0.0
H497 H 0.28921 0.76919 0.3606 0.0
H498 H 0.2124 0.77389 0.376 0.0
H499 H 0.23266 0.75132 0.39974 0.0
H500 H 0.39514 0.80458 0.21529 0.0
H501 H 0.33725 0.82707 0.19039 0.0
H502 H 0.4164 0.82575 0.1867 0.0
H503 H 0.39862 0.84743 0.15977 0.0
Gd504 Gd 0.53668 0.04486 0.53473 0.0
Gd505 Gd 0.58988 0.0411 0.51546 0.0
C506 C 0.63524 0.11786 0.5269 0.0
C507 C 0.63102 0.1281 0.48702 0.0
C508 C 0.61238 0.08805 0.49393 0.0
C509 C 0.62069 0.09477 0.51815 0.0
C510 C 0.61831 0.10428 0.47787 0.0
C511 C 0.63947 0.1349 0.51154 0.0
C512 C 0.6462 0.12256 0.55032 0.0
C513 C 0.64348 0.10399 0.56384 0.0
N514 N 0.61661 0.07769 0.53237 0.0
C515 C 0.62883 0.08146 0.55443 0.0
H516 H 0.62766 0.06717 0.56497 0.0
C517 C 0.59704 0.0555 0.461 0.0
N518 N 0.60077 0.06464 0.48556 0.0
C519 C 0.6023 0.07092 0.44441 0.0
C520 C 0.61248 0.09561 0.45291 0.0
H521 H 0.58976 0.03628 0.45392 0.0
H522 H 0.65022 0.15289 0.5181 0.0
H523 H 0.5131 0.01156 0.48051 0.0
H524 H 0.65756 0.14 0.55765 0.0
H525 H 0.65263 0.10699 0.58154 0.0
H526 H 0.63539 0.14094 0.47503 0.0
H527 H 0.53046 0.05551 0.59484 0.0
H528 H 0.47868 0.94127 0.49104 0.0
H529 H 0.49112 0.96969 0.46343 0.0
H530 H 0.48219 0.95142 0.5778 0.0
H531 H 0.5987 0.06366 0.42506 0.0
H532 H 0.61682 0.10745 0.43999 0.0
H533 H 0.47592 0.93444 0.53382 0.0
H534 H 0.51468 0.03176 0.62509 0.0
N535 N 0.51379 1.00662 0.51692 0.0
C536 C 0.48835 0.95964 0.49853 0.0
C537 C 0.49531 0.97561 0.48288 0.0
C538 C 0.49328 0.96787 0.5237 0.0
C539 C 0.50598 0.99193 0.5325 0.0
C540 C 0.50796 0.99924 0.4925 0.0
N541 N 0.52135 0.02497 0.56519 0.0
C542 C 0.50979 1.0014 0.55734 0.0
C543 C 0.5134 0.02295 0.60614 0.0
C544 C 0.50294 0.99814 0.59863 0.0
C545 C 0.52223 0.03633 0.58905 0.0
C546 C 0.50066 0.98717 0.57393 0.0
H547 H 0.4961 0.98783 0.61192 0.0
O548 O 0.52157 0.0742 0.55016 0.0
O549 O 0.56877 0.06829 0.52829 0.0
O550 O 0.59045 0.04805 0.55544 0.0
O551 O 0.55476 0.03242 0.56336 0.0
O552 O 0.55637 0.07801 0.56124 0.0
O553 O 0.50565 0.04903 0.5173 0.0
O554 O 0.60294 0.01645 0.48919 0.0
O555 O 0.5551 0.0186 0.51423 0.0
O556 O 0.54538 0.05911 0.50132 0.0
O557 O 0.5644 0.03185 0.4836 0.0
O558 O 0.58052 1.00539 0.5284 0.0
O559 O 0.61834 0.02739 0.52636 0.0
C560 C 0.57166 0.08498 0.54772 0.0
C561 C 0.489 0.96276 0.56529 0.0
C562 C 0.4854 0.9531 0.54024 0.0
C563 C 0.50462 0.0679 0.53389 0.0
C564 C 0.48337 0.06896 0.54335 0.0
C565 C 0.47717 0.05826 0.56328 0.0
C566 C 0.47018 0.08309 0.53397 0.0
C567 C 0.45092 0.08637 0.54445 0.0
C568 C 0.45824 0.06192 0.57398 0.0
C569 C 0.44511 0.07588 0.56459 0.0
C570 C 0.57593 0.03951 0.56939 0.0
C571 C 0.55971 1.00006 0.52175 0.0
C572 C 0.61856 0.01451 0.50476 0.0
C573 C 0.64012 0.01322 0.49613 0.0
C574 C 0.64653 0.0224 0.47545 0.0
C575 C 0.65384 1.001 0.50784 0.0
C576 C 0.67396 0.99819 0.49905 0.0
C577 C 0.66633 0.01933 0.46649 0.0
C578 C 0.67997 1.00735 0.47818 0.0
C579 C 0.55099 0.04647 0.48183 0.0
H580 H 0.48705 0.04744 0.57082 0.0
H581 H 0.47493 0.09159 0.51869 0.0
H582 H 0.45379 0.05399 0.58962 0.0
H583 H 0.43046 0.0786 0.5731 0.0
H584 H 0.63614 0.03163 0.46602 0.0
H585 H 0.64889 0.99375 0.52376 0.0
H586 H 0.67109 0.02615 0.45036 0.0
H587 H 0.69519 1.00501 0.47076 0.0
Gd588 Gd 0.34209 0.28781 0.77635 0.0
Gd589 Gd 0.28742 0.29957 0.77237 0.0
C590 C 0.25254 0.2867 0.69573 0.0
C591 C 0.24731 0.32737 0.69304 0.0
C592 C 0.26627 0.32079 0.7297 0.0
C593 C 0.26375 0.29615 0.71925 0.0
C594 C 0.25775 0.33656 0.71676 0.0
C595 C 0.24465 0.30249 0.68258 0.0
C596 C 0.24919 0.26153 0.68624 0.0
C597 C 0.25737 0.24647 0.6998 0.0
N598 N 0.27157 0.28125 0.7323 0.0
C599 C 0.26854 0.25666 0.72284 0.0
H600 H 0.27564 0.24486 0.73229 0.0
C601 C 0.27631 0.35249 0.76469 0.0
N602 N 0.276 0.32908 0.75288 0.0
C603 C 0.26841 0.36885 0.75248 0.0
C604 C 0.25929 0.36093 0.72832 0.0
H605 H 0.28282 0.35853 0.78363 0.0
H606 H 0.23619 0.29556 0.66444 0.0
H607 H 0.35556 0.34582 0.81595 0.0
H608 H 0.24014 0.25354 0.66857 0.0
H609 H 0.25522 0.22702 0.69248 0.0
H610 H 0.24077 0.33925 0.68282 0.0
H611 H 0.34389 0.22779 0.77049 0.0
H612 H 0.40172 0.34197 0.87266 0.0
H613 H 0.38076 0.36571 0.85142 0.0
H614 H 0.40251 0.25703 0.86202 0.0
H615 H 0.26911 0.38747 0.76181 0.0
H616 H 0.25293 0.37357 0.71898 0.0
H617 H 0.40935 0.3016 0.87667 0.0
H618 H 0.3602 0.20155 0.79298 0.0
N619 N 0.36284 0.31004 0.81387 0.0
C620 C 0.39099 0.33287 0.85623 0.0
C621 C 0.37924 0.34632 0.84428 0.0
C622 C 0.38804 0.30766 0.84749 0.0
C623 C 0.37377 0.29652 0.82597 0.0
C624 C 0.36511 0.33466 0.82334 0.0
N625 N 0.35577 0.26062 0.7974 0.0
C626 C 0.3697 0.27119 0.81788 0.0
C627 C 0.36276 0.22102 0.80042 0.0
C628 C 0.37617 0.23137 0.82205 0.0
C629 C 0.35313 0.23602 0.788 0.0
C630 C 0.38013 0.25672 0.83082 0.0
H631 H 0.38383 0.21972 0.83154 0.0
O632 O 0.35452 0.26508 0.74741 0.0
O633 O 0.3108 0.28142 0.75167 0.0
O634 O 0.28181 0.25885 0.77459 0.0
O635 O 0.31681 0.25089 0.77862 0.0
O636 O 0.33913 0.30039 0.74084 0.0
O637 O 0.37643 0.29825 0.76807 0.0
O638 O 0.26959 0.29968 0.80502 0.0
O639 O 0.31465 0.29587 0.79869 0.0
O640 O 0.34726 0.32899 0.77609 0.0
O641 O 0.31227 0.33594 0.76739 0.0
O642 O 0.30312 0.3282 0.80456 0.0
O643 O 0.25139 0.28892 0.77025 0.0
C644 C 0.31885 0.29013 0.73402 0.0
C645 C 0.39443 0.26789 0.85193 0.0
C646 C 0.39843 0.29328 0.86018 0.0
C647 C 0.37403 0.27985 0.74972 0.0
C648 C 0.39327 0.26903 0.74299 0.0
C649 C 0.39296 0.24493 0.74572 0.0
C650 C 0.41083 0.28149 0.73142 0.0
C651 C 0.42754 0.26946 0.72232 0.0
C652 C 0.40888 0.23298 0.73673 0.0
C653 C 0.42551 0.24472 0.72474 0.0
C654 C 0.29474 0.2435 0.77732 0.0
C655 C 0.31515 0.31557 0.81418 0.0
C656 C 0.25007 0.29239 0.79349 0.0
C657 C 0.2326 0.3049 0.80287 0.0
C658 C 0.23164 0.32766 0.79709 0.0
C659 C 0.2163 0.29399 0.81677 0.0
C660 C 0.19921 0.30596 0.82431 0.0
C661 C 0.21533 0.33971 0.80489 0.0
C662 C 0.19938 0.3291 0.8184 0.0
C663 C 0.33439 0.34395 0.77136 0.0
H664 H 0.37985 0.23475 0.7539 0.0
H665 H 0.41123 0.30018 0.72933 0.0
H666 H 0.40798 0.2141 0.73844 0.0
H667 H 0.43651 0.23377 0.7169 0.0
H668 H 0.24341 0.33612 0.7863 0.0
H669 H 0.21656 0.27617 0.82105 0.0
H670 H 0.21495 0.35736 0.80028 0.0
H671 H 0.18702 0.33913 0.82422 0.0
Gd672 Gd 0.06935 0.01468 0.51071 0.0
Gd673 Gd 0.05722 0.06998 0.53501 0.0
C674 C 0.08003 0.10716 0.61472 0.0
C675 C 0.04581 0.11418 0.62973 0.0
C676 C 0.04599 0.09348 0.58785 0.0
C677 C 0.06846 0.09546 0.59175 0.0
C678 C 0.0345 0.10326 0.6067 0.0
C679 C 0.06853 0.11609 0.63373 0.0
C680 C 0.10292 0.1103 0.61776 0.0
C681 C 0.11385 0.1025 0.59805 0.0
N682 N 0.07921 0.08719 0.57282 0.0
C683 C 0.10179 0.09122 0.57567 0.0
H684 H 0.11095 0.08496 0.56123 0.0
C685 C 0.01392 0.08369 0.56 0.0
N686 N 0.03556 0.08331 0.56529 0.0
C687 C 1.0018 0.09287 0.57814 0.0
C688 C 0.01209 0.10252 0.60166 0.0
H689 H 1.00599 0.07673 0.54167 0.0
H690 H 0.07714 0.12505 0.65144 0.0
H691 H 0.01507 0.99759 0.48688 0.0
H692 H 0.11235 0.11915 0.63508 0.0
H693 H 0.13161 0.10503 0.60007 0.0
H694 H 0.03724 0.12171 0.64442 0.0
H695 H 0.12049 1.00838 0.50236 0.0
H696 H 0.01212 0.96535 0.41211 0.0
H697 H 0.99357 0.9778 0.44829 0.0
H698 H 0.08717 0.96507 0.39973 0.0
H699 H 0.98461 0.09278 0.57389 0.0
H700 H 1.00273 0.10991 0.61564 0.0
H701 H 0.04706 0.96097 0.39414 0.0
H702 H 0.14127 0.99329 0.46907 0.0
N703 N 0.04651 0.99693 0.4737 0.0
C704 C 0.0219 0.97409 0.42925 0.0
C705 C 0.01138 0.98097 0.44963 0.0
C706 C 0.04486 0.97787 0.43141 0.0
C707 C 0.05688 0.98935 0.45418 0.0
C708 C 0.02391 0.99219 0.47178 0.0
N709 N 0.09032 1.00153 0.47968 0.0
C710 C 0.07945 0.9917 0.45728 0.0
C711 C 0.12393 0.99289 0.46545 0.0
C712 C 0.11318 0.98365 0.44206 0.0
C713 C 0.11212 1.00143 0.48421 0.0
C714 C 0.09062 0.9826 0.4378 0.0
H715 H 0.12231 0.9768 0.42758 0.0
O716 O 0.08686 0.9908 0.52565 0.0
O717 O 0.06887 0.03823 0.5478 0.0
O718 O 0.09168 0.07754 0.52342 0.0
O719 O 0.09733 0.04215 0.49982 0.0
O720 O 0.098 0.02809 0.54041 0.0
O721 O 0.05179 0.97791 0.51367 0.0
O722 O 0.04097 0.09359 0.51815 0.0
O723 O 0.05767 0.04639 0.49776 0.0
O724 O 0.03542 1.00689 0.52429 0.0
O725 O 0.02881 0.04324 0.54522 0.0
O726 O 0.02868 0.0566 0.50492 0.0
O727 O 0.07489 0.10741 0.53439 0.0
C728 C 0.0881 0.03775 0.55781 0.0
C729 C 0.07885 0.97204 0.41492 0.0
C730 C 0.05602 0.96971 0.41174 0.0
C731 C 0.06935 0.97332 0.52397 0.0
C732 C 0.07232 0.94819 0.52055 0.0
C733 C 0.08779 0.94027 0.50587 0.0
C734 C 0.06163 0.93317 0.53538 0.0
C735 C 0.06695 0.91056 0.53662 0.0
C736 C 0.09279 0.9175 0.50646 0.0
C737 C 0.08266 0.90282 0.52192 0.0
C738 C 0.10389 0.06582 0.50948 0.0
C739 C 0.03842 0.04662 0.48752 0.0
C740 C 0.05806 0.11181 0.52248 0.0
C741 C 0.05387 0.13642 0.5267 0.0
C742 C 0.03567 0.14183 0.53814 0.0
C743 C 0.06581 0.15304 0.51428 0.0
C744 C 0.05853 0.17409 0.5109 0.0
C745 C 0.02895 0.16341 0.53611 0.0
C746 C 0.03992 0.17918 0.5221 0.0
C747 C 0.02298 0.01929 0.53725 0.0
H748 H 0.0964 0.95191 0.49457 0.0
H749 H 0.04964 0.93958 0.54658 0.0
H750 H 0.105 0.91151 0.49543 0.0
H751 H 0.08754 0.88574 0.52278 0.0
H752 H 0.02615 0.12902 0.54767 0.0
H753 H 0.08015 0.14865 0.50612 0.0
H754 H 0.0146 0.16736 0.54449 0.0
H755 H 0.03335 0.19486 0.51954 0.0
Gd756 Gd 0.28982 0.7773 0.77981 0.0
Gd757 Gd 0.33851 0.81185 0.76633 0.0
C758 C 0.34345 0.89089 0.75652 0.0
C759 C 0.35411 0.88888 0.7155 0.0
C760 C 0.34795 0.85217 0.73317 0.0
C761 C 0.34293 0.86558 0.75448 0.0
C762 C 0.35403 0.86384 0.71367 0.0
C763 C 0.34875 0.90233 0.73683 0.0
C764 C 0.33897 0.90413 0.77843 0.0
C765 C 0.33465 0.89231 0.79786 0.0
N766 N 0.33821 0.85415 0.77342 0.0
C767 C 0.33458 0.86734 0.79517 0.0
H768 H 0.33107 0.85892 0.81061 0.0
C769 C 0.35507 0.81485 0.71234 0.0
N770 N 0.34781 0.82799 0.73184 0.0
C771 C 0.36111 0.8256 0.69253 0.0
C772 C 0.36039 0.85015 0.6931 0.0
H773 H 0.3558 0.7959 0.71201 0.0
H774 H 0.34915 0.92171 0.73808 0.0
H775 H 0.29107 0.72627 0.7365 0.0
H776 H 0.3391 0.92354 0.78064 0.0
H777 H 0.33136 0.90241 0.81499 0.0
H778 H 0.35862 0.89811 0.70065 0.0
H779 H 0.2698 0.79518 0.83188 0.0
H780 H 0.28438 0.66471 0.7708 0.0
H781 H 0.28914 0.68284 0.73417 0.0
H782 H 0.26892 0.6959 0.85108 0.0
H783 H 0.36644 0.81502 0.67692 0.0
H784 H 0.36522 0.85849 0.67779 0.0
H785 H 0.2774 0.66992 0.81455 0.0
H786 H 0.25879 0.77859 0.86818 0.0
N787 N 0.28816 0.73444 0.77481 0.0
C788 C 0.28536 0.68421 0.77213 0.0
C789 C 0.28798 0.69434 0.75144 0.0
C790 C 0.28293 0.69912 0.794 0.0
C791 C 0.28418 0.72443 0.79474 0.0
C792 C 0.28931 0.71948 0.75305 0.0
N793 N 0.27908 0.76276 0.81476 0.0
C794 C 0.27943 0.73903 0.81532 0.0
C795 C 0.2647 0.76732 0.85352 0.0
C796 C 0.26629 0.74344 0.85508 0.0
C797 C 0.27092 0.77664 0.83295 0.0
C798 C 0.27328 0.72879 0.83566 0.0
H799 H 0.26139 0.73622 0.871 0.0
O800 O 0.25778 0.78598 0.78205 0.0
O801 O 0.30194 0.81384 0.76732 0.0
O802 O 0.33534 0.81908 0.80578 0.0
O803 O 0.3114 0.78607 0.81509 0.0
O804 O 0.285 0.81518 0.79722 0.0
O805 O 0.26187 0.75623 0.75398 0.0
O806 O 0.37032 0.80376 0.76115 0.0
O807 O 0.32622 0.77561 0.7788 0.0
O808 O 0.29641 0.76772 0.74131 0.0
O809 O 0.31695 0.80217 0.7314 0.0
O810 O 0.34589 0.77425 0.75159 0.0
O811 O 0.3676 0.8342 0.78962 0.0
C812 C 0.29245 0.82835 0.78174 0.0
C813 C 0.27335 0.70402 0.83552 0.0
C814 C 0.27819 0.68922 0.81473 0.0
C815 C 0.24827 0.76868 0.76383 0.0
C816 C 0.22627 0.75528 0.76693 0.0
C817 C 0.22254 0.74235 0.7859 0.0
C818 C 0.20837 0.75799 0.75218 0.0
C819 C 0.18682 0.74837 0.75668 0.0
C820 C 0.20099 0.73255 0.79027 0.0
C821 C 0.18312 0.7357 0.77582 0.0
C822 C 0.32763 0.80565 0.82133 0.0
C823 C 0.33624 0.76067 0.76573 0.0
C824 C 0.38055 0.82131 0.77888 0.0
C825 C 0.40265 0.83378 0.7752 0.0
C826 C 0.40699 0.84421 0.75469 0.0
C827 C 0.42007 0.83245 0.7914 0.0
C828 C 0.44187 0.84143 0.7873 0.0
C829 C 0.42877 0.85332 0.75058 0.0
C830 C 0.4462 0.852 0.76683 0.0
C831 C 0.30373 0.78051 0.72516 0.0
H832 H 0.23616 0.74029 0.79761 0.0
H833 H 0.21119 0.76836 0.73776 0.0
H834 H 0.19813 0.72286 0.80511 0.0
H835 H 0.16648 0.7284 0.77961 0.0
H836 H 0.3937 0.84492 0.74174 0.0
H837 H 0.41667 0.82402 0.80706 0.0
H838 H 0.43216 0.86112 0.73462 0.0
H839 H 0.46301 0.85881 0.76325 0.0
Gd840 Gd 0.5558 0.05629 0.99489 0.0
Gd841 Gd 0.5716 0.03609 0.05189 0.0
C842 C 0.63883 0.06801 0.09568 0.0
C843 C 0.65433 0.03185 0.09331 0.0
C844 C 0.6179 0.02859 0.07308 0.0
C845 C 0.61971 0.05352 0.08113 0.0
C846 C 0.63496 0.01736 0.07958 0.0
C847 C 0.65629 0.05714 0.10128 0.0
C848 C 0.63953 0.09277 0.10495 0.0
C849 C 0.62117 0.10232 0.10034 0.0
N850 N 0.6023 0.06331 0.07596 0.0
C851 C 0.60254 0.08723 0.08594 0.0
H852 H 0.58869 0.0952 0.08265 0.0
C853 C 0.59516 0.98994 0.05455 0.0
N854 N 0.59889 0.01503 0.06016 0.0
C855 C 0.61163 0.97798 0.06042 0.0
C856 C 0.63172 0.99177 0.07279 0.0
H857 H 0.57954 0.97927 0.04512 0.0
H858 H 0.67113 0.06801 0.11233 0.0
H859 H 0.53278 0.99422 0.97447 0.0
H860 H 0.65391 0.10451 0.11616 0.0
H861 H 0.62137 0.12135 0.10777 0.0
H862 H 0.66768 0.02359 0.09837 0.0
H863 H 0.54717 0.11225 1.00073 0.0
H864 H 0.47849 0.98735 0.92215 0.0
H865 H 0.50357 0.96853 0.94454 0.0
H866 H 0.47052 0.07013 0.92696 0.0
H867 H 0.60877 0.95815 0.05555 0.0
H868 H 0.64439 0.98245 0.07754 0.0
H869 H 0.46631 0.02531 0.91572 0.0
H870 H 0.5214 0.13405 0.98334 0.0
N871 N 0.52617 0.02842 0.96863 0.0
C872 C 0.49175 0.99901 0.9351 0.0
C873 C 0.50588 0.98834 0.94766 0.0
C874 C 0.49441 0.02455 0.94008 0.0
C875 C 0.5119 0.03892 0.9572 0.0
C876 C 0.52289 1.0033 0.96452 0.0
N877 N 0.52998 0.07697 0.98162 0.0
C878 C 0.51383 0.06398 0.96403 0.0
C879 C 0.51889 0.11428 0.97797 0.0
C880 C 0.50163 0.10105 0.9605 0.0
C881 C 0.53318 0.1019 0.98811 0.0
C882 C 0.49899 0.0756 0.95321 0.0
H883 H 0.49061 0.11068 0.95258 0.0
O884 O 0.57753 0.08447 0.98158 0.0
O885 O 0.58105 0.05665 0.02388 0.0
O886 O 0.55746 0.07007 0.05909 0.0
O887 O 0.53775 0.07424 0.02341 0.0
O888 O 0.58157 0.08986 0.01468 0.0
O889 O 0.56939 0.04687 0.96063 0.0
O890 O 0.5542 1.00788 0.0688 0.0
O891 O 0.54595 0.03651 0.0239 0.0
O892 O 0.56641 0.02027 0.98775 0.0
O893 O 0.58839 0.01836 0.02243 0.0
O894 O 0.54413 1.00371 0.03431 0.0
O895 O 0.56006 0.04689 0.08676 0.0
C896 C 0.59184 0.07834 0.02779 0.0
C897 C 0.48206 0.06152 0.93552 0.0
C898 C 0.47972 0.03603 0.92903 0.0
C899 C 0.57929 0.06978 0.9616 0.0
C900 C 0.57804 0.07975 0.93954 0.0
C901 C 0.56941 0.10059 0.93848 0.0
C902 C 0.58928 0.07065 0.92075 0.0
C903 C 0.59395 0.0834 0.90192 0.0
C904 C 0.57274 0.1125 0.91889 0.0
C905 C 0.58531 0.10423 0.90083 0.0
C906 C 0.54318 0.0794 0.04725 0.0
C907 C 0.5334 0.01596 0.02253 0.0
C908 C 0.55114 0.02399 0.08719 0.0
C909 C 0.54997 0.01662 0.11025 0.0
C910 C 0.56575 1.00612 0.12061 0.0
C911 C 0.53078 0.01829 0.12079 0.0
C912 C 0.52677 1.00941 0.14186 0.0
C913 C 0.5619 0.99722 0.14199 0.0
C914 C 0.54237 0.99874 0.15262 0.0
C915 C 0.58046 0.01074 0.99943 0.0
H916 H 0.56096 0.10827 0.95311 0.0
H917 H 0.59568 0.05442 0.92173 0.0
H918 H 0.56643 0.1288 0.91831 0.0
H919 H 0.58894 0.11464 0.88663 0.0
H920 H 0.58063 1.00451 0.11207 0.0
H921 H 0.51854 0.02605 0.11213 0.0
H922 H 0.57393 0.98903 0.15021 0.0
H923 H 0.53958 0.99196 0.16926 0.0
Gd924 Gd 0.29519 0.25935 0.25774 0.0
Gd925 Gd 0.3272 0.31997 0.28622 0.0
C926 C 0.397 0.34863 0.26884 0.0
C927 C 0.41709 0.36124 0.30908 0.0
C928 C 0.3787 0.33876 0.30373 0.0
C929 C 0.37802 0.33809 0.27897 0.0
C930 C 0.39827 0.35055 0.31908 0.0
C931 C 0.41644 0.36032 0.28401 0.0
C932 C 0.39589 0.3472 0.24374 0.0
C933 C 0.37688 0.33364 0.22917 0.0
N934 N 0.35887 0.32695 0.26476 0.0
C935 C 0.35872 0.32306 0.24 0.0
H936 H 0.34491 0.31159 0.22826 0.0
C937 C 0.35961 0.33226 0.33766 0.0
N938 N 0.35999 0.32895 0.31294 0.0
C939 C 0.37863 0.34321 0.35351 0.0
C940 C 0.39814 0.35224 0.34418 0.0
H941 H 0.34428 0.32857 0.34545 0.0
H942 H 0.4311 0.36863 0.27651 0.0
H943 H 0.27611 0.25235 0.31392 0.0
H944 H 0.40984 0.35583 0.23538 0.0
H945 H 0.37619 0.33128 0.20957 0.0
H946 H 0.43215 0.37051 0.32061 0.0
H947 H 0.28041 0.25628 0.1979 0.0
H948 H 0.20731 0.22475 0.30199 0.0
H949 H 0.24201 0.23653 0.32897 0.0
H950 H 0.18912 0.22313 0.21828 0.0
H951 H 0.37793 0.34574 0.37299 0.0
H952 H 0.41273 0.36138 0.35654 0.0
H953 H 0.18781 0.22062 0.26123 0.0
H954 H 0.24723 0.2439 0.16959 0.0
N955 N 0.26244 0.25044 0.27741 0.0
C956 C 0.22253 0.23223 0.29501 0.0
C957 C 0.24208 0.23858 0.31018 0.0
C958 C 0.22284 0.23528 0.27094 0.0
C959 C 0.24321 0.24481 0.2625 0.0
C960 C 0.26184 0.24741 0.3011 0.0
N961 N 0.2636 0.25515 0.23008 0.0
C962 C 0.24382 0.24707 0.23829 0.0
C963 C 0.2459 0.24535 0.18889 0.0
C964 C 0.2255 0.23837 0.19723 0.0
C965 C 0.26478 0.25313 0.20542 0.0
C966 C 0.22425 0.23876 0.22201 0.0
H967 H 0.21094 0.23168 0.18425 0.0
O968 O 0.30226 0.23694 0.22499 0.0
O969 O 0.328 0.28524 0.26144 0.0
O970 O 0.31562 0.32636 0.24966 0.0
O971 O 0.29844 0.28593 0.23122 0.0
O972 O 0.32766 0.24988 0.26611 0.0
O973 O 0.28236 0.22009 0.25066 0.0
O974 O 0.31908 0.3424 0.31845 0.0
O975 O 0.29491 0.29343 0.2833 0.0
O976 O 0.30709 0.25425 0.29469 0.0
O977 O 0.3255 0.29423 0.3139 0.0
O978 O 0.29419 0.32834 0.27767 0.0
O979 O 0.33863 0.35939 0.29255 0.0
C980 C 0.3402 0.27101 0.26578 0.0
C981 C 0.20416 0.22965 0.23057 0.0
C982 C 0.20343 0.22809 0.25499 0.0
C983 C 0.29029 0.21684 0.22963 0.0
C984 C 0.29794 0.19444 0.22268 0.0
C985 C 0.28896 0.17839 0.20067 0.0
C986 C 0.31299 0.18818 0.23837 0.0
C987 C 0.31867 0.1656 0.23228 0.0
C988 C 0.29489 0.15583 0.19455 0.0
C989 C 0.30967 0.1493 0.21045 0.0
C990 C 0.30492 0.30964 0.23082 0.0
C991 C 0.28235 0.30721 0.2791 0.0
C992 C 0.33032 0.36269 0.31335 0.0
C993 C 0.32174 0.38463 0.31952 0.0
C994 C 0.32905 0.4004 0.34211 0.0
C995 C 0.3075 0.39077 0.30275 0.0
C996 C 0.30051 0.41267 0.30865 0.0
C997 C 0.322 0.42233 0.34793 0.0
C998 C 0.30769 0.4285 0.33121 0.0
C999 C 0.31766 0.2705 0.31407 0.0
H1000 H 0.27712 0.18316 0.18847 0.0
H1001 H 0.31974 0.20043 0.25554 0.0
H1002 H 0.28785 0.14332 0.17768 0.0
H1003 H 0.31404 0.13163 0.20585 0.0
H1004 H 0.34041 0.39588 0.35505 0.0
H1005 H 0.30215 0.37884 0.28509 0.0
H1006 H 0.32779 0.43463 0.36525 0.0
H1007 H 0.30251 0.44572 0.33565 0.0
Gd1008 Gd 0.57062 0.51495 0.00974 0.0
Gd1009 Gd 0.55773 0.56982 0.0325 0.0
C1010 C 0.58471 0.61309 0.1092 0.0
C1011 C 0.55124 0.61899 0.12685 0.0
C1012 C 0.54923 0.59572 0.08555 0.0
C1013 C 0.57197 0.5991 0.0876 0.0
C1014 C 0.53867 0.60597 0.10507 0.0
C1015 C 0.5742 0.62261 0.12887 0.0
C1016 C 0.60769 0.61729 0.11041 0.0
C1017 C 0.61749 0.60743 0.09055 0.0
N1018 N 0.5817 0.58936 0.06838 0.0
C1019 C 0.60428 0.59348 0.0697 0.0
H1020 H 0.61259 0.58568 0.05514 0.0
C1021 C 0.51534 0.58241 0.06055 0.0
N1022 N 0.53748 0.58349 0.06415 0.0
C1023 C 0.50415 0.59192 0.07945 0.0
C1024 C 0.51583 0.60353 0.10191 0.0
H1025 H 0.50625 0.57395 0.04299 0.0
H1026 H 0.58372 0.63309 0.14564 0.0
H1027 H 0.51617 0.49831 0.98481 0.0
H1028 H 0.61799 0.62792 0.12663 0.0
H1029 H 0.63526 0.61033 0.09135 0.0
H1030 H 0.54338 0.62682 0.14205 0.0
H1031 H 0.62234 0.51065 1.00074 0.0
H1032 H 0.51248 0.45188 0.91603 0.0
H1033 H 0.49436 0.46917 0.9507 0.0
H1034 H 0.58768 0.45664 0.90148 0.0
H1035 H 0.48657 0.59054 0.07658 0.0
H1036 H 0.50716 0.61115 0.11647 0.0
H1037 H 0.54723 0.4488 0.89723 0.0
H1038 H 0.643 0.49445 0.96802 0.0
N1039 N 0.54756 0.49446 0.97326 0.0
C1040 C 0.52244 0.46366 0.93195 0.0
C1041 C 0.51217 0.47309 0.95157 0.0
C1042 C 0.54542 0.4696 0.93308 0.0
C1043 C 0.55771 0.48467 0.95447 0.0
C1044 C 0.52495 0.48918 0.97164 0.0
N1045 N 0.59155 0.50103 0.97867 0.0
C1046 C 0.5804 0.48857 0.95706 0.0
C1047 C 0.62544 0.4929 0.96456 0.0
C1048 C 0.61434 0.48106 0.94189 0.0
C1049 C 0.61369 0.5023 0.98296 0.0
C1050 C 0.5915 0.47825 0.93807 0.0
H1051 H 0.62341 0.47341 0.92776 0.0
O1052 O 0.58891 0.49052 0.02241 0.0
O1053 O 0.56959 0.53875 0.04675 0.0
O1054 O 0.59119 0.5789 0.01841 0.0
O1055 O 0.5994 0.54237 1.00059 0.0
O1056 O 0.59861 0.52881 0.04016 0.0
O1057 O 0.5531 0.48023 0.01763 0.0
O1058 O 0.53865 0.59286 0.01863 0.0
O1059 O 0.55892 0.54614 0.99549 0.0
O1060 O 0.53623 0.50698 0.02153 0.0
O1061 O 0.53023 0.54251 0.04429 0.0
O1062 O 0.52983 0.55588 1.00176 0.0
O1063 O 0.574 0.60679 0.02905 0.0
C1064 C 0.5886 0.53835 0.05753 0.0
C1065 C 0.57942 0.46457 0.91626 0.0
C1066 C 0.55641 0.46011 0.91384 0.0
C1067 C 0.57132 0.47439 0.02436 0.0
C1068 C 0.57249 0.4487 0.01929 0.0
C1069 C 0.58424 0.43917 1.00082 0.0
C1070 C 0.56399 0.4344 0.03576 0.0
C1071 C 0.56792 0.41093 0.03457 0.0
C1072 C 0.58786 0.41547 0.99934 0.0
C1073 C 0.57999 0.40146 0.01636 0.0
C1074 C 0.60446 0.56654 0.00697 0.0
C1075 C 0.53989 0.54619 0.98448 0.0
C1076 C 0.55568 0.61095 0.02009 0.0
C1077 C 0.55213 0.63584 0.0245 0.0
C1078 C 0.53457 0.642 0.03671 0.0
C1079 C 0.56445 0.6524 0.01224 0.0
C1080 C 0.55834 0.67443 0.01018 0.0
C1081 C 0.52891 0.66437 0.03576 0.0
C1082 C 0.54037 0.68028 0.02217 0.0
C1083 C 0.52385 0.51875 0.03516 0.0
H1084 H 0.59109 0.45021 0.9881 0.0
H1085 H 0.55528 0.44203 0.05034 0.0
H1086 H 0.59718 0.40815 0.98532 0.0
H1087 H 0.58327 0.3833 0.01535 0.0
H1088 H 0.52478 0.62925 0.04615 0.0
H1089 H 0.57827 0.6474 1.00338 0.0
H1090 H 0.51507 0.66896 0.04478 0.0
H1091 H 0.53469 0.69676 0.0206 0.0
Gd1092 Gd 0.7907 0.27531 0.2809 0.0
Gd1093 Gd 0.83898 0.31105 0.2643 0.0
C1094 C 0.84865 0.39144 0.25888 0.0
C1095 C 0.85875 0.39056 0.2177 0.0
C1096 C 0.84934 0.35255 0.23289 0.0
C1097 C 0.84571 0.36563 0.25504 0.0
C1098 C 0.85611 0.36491 0.21407 0.0
C1099 C 0.85505 0.40378 0.24005 0.0
C1100 C 0.84498 0.40408 0.28151 0.0
C1101 C 0.83826 0.39098 0.29953 0.0
N1102 N 0.83938 0.35319 0.27286 0.0
C1103 C 0.8355 0.36543 0.29489 0.0
H1104 H 0.83005 0.35573 0.30902 0.0
C1105 C 0.8522 0.31449 0.20935 0.0
N1106 N 0.84691 0.32783 0.22999 0.0
C1107 C 0.85869 0.32588 0.19004 0.0
C1108 C 0.86052 0.35119 0.19235 0.0
H1109 H 0.8512 0.29499 0.20781 0.0
H1110 H 0.85727 0.42358 0.24263 0.0
H1111 H 0.79887 0.2268 0.23945 0.0
H1112 H 0.84702 0.42388 0.28514 0.0
H1113 H 0.83508 0.40055 0.31694 0.0
H1114 H 0.86389 0.40038 0.20343 0.0
H1115 H 0.76972 0.29221 0.33242 0.0
H1116 H 0.79317 0.16496 0.27354 0.0
H1117 H 0.79993 0.18388 0.2376 0.0
H1118 H 0.77191 0.19367 0.35191 0.0
H1119 H 0.86248 0.31519 0.17351 0.0
H1120 H 0.86576 0.36002 0.17746 0.0
H1121 H 0.78294 0.16887 0.31619 0.0
H1122 H 0.75877 0.27513 0.36861 0.0
N1123 N 0.79258 0.23359 0.27685 0.0
C1124 C 0.79293 0.18417 0.27466 0.0
C1125 C 0.79672 0.19474 0.25435 0.0
C1126 C 0.78822 0.19831 0.29594 0.0
C1127 C 0.78816 0.22331 0.29652 0.0
C1128 C 0.79619 0.21941 0.25564 0.0
N1129 N 0.78118 0.26096 0.31624 0.0
C1130 C 0.78225 0.23739 0.31678 0.0
C1131 C 0.76556 0.26441 0.35429 0.0
C1132 C 0.76787 0.24076 0.3559 0.0
C1133 C 0.77182 0.27405 0.33391 0.0
C1134 C 0.77583 0.22672 0.33678 0.0
H1135 H 0.76275 0.2332 0.37157 0.0
O1136 O 0.75777 0.28169 0.27909 0.0
O1137 O 0.80415 0.3136 0.27301 0.0
O1138 O 0.83932 0.31691 0.30435 0.0
O1139 O 0.81025 0.29084 0.31701 0.0
O1140 O 0.77599 0.30919 0.28865 0.0
O1141 O 0.76394 0.24919 0.25677 0.0
O1142 O 0.87065 0.30358 0.25643 0.0
O1143 O 0.82754 0.27491 0.27771 0.0
O1144 O 0.79859 0.26812 0.24292 0.0
O1145 O 0.81409 0.30348 0.23177 0.0
O1146 O 0.84424 0.27298 0.24757 0.0
O1147 O 0.86866 0.33193 0.2874 0.0
C1148 C 0.78822 0.32514 0.2786 0.0
C1149 C 0.77666 0.20213 0.33664 0.0
C1150 C 0.78289 0.18799 0.31628 0.0
C1151 C 0.74947 0.26208 0.26282 0.0
C1152 C 0.72721 0.24951 0.26605 0.0
C1153 C 0.72276 0.23926 0.28664 0.0
C1154 C 0.70978 0.25168 0.25022 0.0
C1155 C 0.68796 0.24446 0.2553 0.0
C1156 C 0.70094 0.23163 0.29151 0.0
C1157 C 0.68358 0.23448 0.27607 0.0
C1158 C 0.82873 0.30782 0.32132 0.0
C1159 C 0.83729 0.26028 0.26371 0.0
C1160 C 0.88131 0.31986 0.27501 0.0
C1161 C 0.90346 0.33298 0.27202 0.0
C1162 C 0.9081 0.34322 0.25145 0.0
C1163 C 0.92069 0.33299 0.28925 0.0
C1164 C 0.9425 0.34303 0.28597 0.0
C1165 C 0.92991 0.35342 0.24825 0.0
C1166 C 0.9471 0.35333 0.26545 0.0
C1167 C 0.79955 0.28253 0.22717 0.0
H1168 H 0.73606 0.23791 0.29928 0.0
H1169 H 0.71321 0.26024 0.23465 0.0
H1170 H 0.69751 0.22405 0.30758 0.0
H1171 H 0.66678 0.22903 0.28034 0.0
H1172 H 0.89501 0.34291 0.23774 0.0
H1173 H 0.91719 0.32464 0.30493 0.0
H1174 H 0.93353 0.36107 0.23226 0.0
H1175 H 0.96397 0.36089 0.26257 0.0
Gd1176 Gd 0.05541 0.55722 0.49495 0.0
Gd1177 Gd 0.0719 0.53621 0.55179 0.0
C1178 C 0.13946 0.56184 0.59617 0.0
C1179 C 0.15152 0.5235 0.59373 0.0
C1180 C 0.11616 0.52396 0.57319 0.0
C1181 C 0.1199 0.54903 0.58138 0.0
C1182 C 0.13174 0.51079 0.57958 0.0
C1183 C 0.1554 0.549 0.60196 0.0
C1184 C 0.14211 0.587 0.60534 0.0
C1185 C 0.12522 0.59859 0.60026 0.0
N1186 N 0.10392 0.56069 0.57588 0.0
C1187 C 0.10611 0.58508 0.58559 0.0
H1188 H 0.09355 0.59462 0.58169 0.0
C1189 C 0.09138 0.4872 0.55327 0.0
N1190 N 0.09679 0.51224 0.55988 0.0
C1191 C 0.10633 0.47331 0.55899 0.0
C1192 C 0.12668 0.48517 0.57208 0.0
H1193 H 0.07557 0.47803 0.54328 0.0
H1194 H 0.17055 0.55853 0.61323 0.0
H1195 H 0.03732 0.49972 0.46104 0.0
H1196 H 0.1569 0.59751 0.61671 0.0
H1197 H 0.12695 0.618 0.60745 0.0
H1198 H 0.16374 0.51373 0.59879 0.0
H1199 H 0.04844 0.61428 0.50572 0.0
H1200 H 0.97379 0.49426 0.4252 0.0
H1201 H 1.00536 0.47577 0.43338 0.0
H1202 H 0.96135 0.57534 0.44845 0.0
H1203 H 0.10212 0.45348 0.55343 0.0
H1204 H 0.13818 0.47436 0.57669 0.0
H1205 H 0.95741 0.53142 0.43116 0.0
H1206 H 0.02007 0.63716 0.49691 0.0
N1207 N 0.02461 0.53199 0.46913 0.0
C1208 C 0.98795 0.50502 0.43745 0.0
C1209 C 1.00576 0.49457 0.44193 0.0
C1210 C 0.98891 0.52945 0.44834 0.0
C1211 C 1.00775 0.54265 0.46418 0.0
C1212 C 0.02405 0.50841 0.45774 0.0
N1213 N 0.02884 0.5796 0.48776 0.0
C1214 C 0.00994 0.56727 0.47383 0.0
C1215 C 0.01695 0.61748 0.49041 0.0
C1216 C 0.99701 0.60488 0.47684 0.0
C1217 C 0.03293 0.60453 0.49538 0.0
C1218 C 0.99343 0.57952 0.46804 0.0
H1219 H 0.98474 0.61498 0.47277 0.0
O1220 O 0.0747 0.58491 0.4787 0.0
O1221 O 0.07975 0.55899 0.52491 0.0
O1222 O 0.06072 0.57191 0.55875 0.0
O1223 O 0.03698 0.57199 0.52481 0.0
O1224 O 0.0822 0.59078 0.51279 0.0
O1225 O 0.06884 0.54594 0.46134 0.0
O1226 O 0.05019 0.51051 0.5679 0.0
O1227 O 0.04776 0.53428 0.52157 0.0
O1228 O 0.06776 0.52183 0.48792 0.0
O1229 O 0.08998 0.52043 0.52279 0.0
O1230 O 0.04521 0.50253 0.53395 0.0
O1231 O 0.06073 0.54925 0.58633 0.0
C1232 C 0.09179 0.57997 0.52726 0.0
C1233 C 0.97427 0.56629 0.45303 0.0
C1234 C 0.97203 0.54129 0.44318 0.0
C1235 C 0.07773 0.5687 0.4604 0.0
C1236 C 0.07684 0.57543 0.43688 0.0
C1237 C 0.06175 0.58845 0.42924 0.0
C1238 C 0.09331 0.57039 0.42275 0.0
C1239 C 0.09549 0.57877 0.40112 0.0
C1240 C 0.06376 0.59678 0.40732 0.0
C1241 C 0.0808 0.59219 0.39332 0.0
C1242 C 0.04446 0.57927 0.5481 0.0
C1243 C 0.0361 0.51309 0.51886 0.0
C1244 C 0.04915 0.5273 0.5866 0.0
C1245 C 0.04808 0.51959 0.60951 0.0
C1246 C 0.06088 0.50415 0.61705 0.0
C1247 C 0.03112 0.52539 0.62232 0.0
C1248 C 0.02602 0.5153 0.64245 0.0
C1249 C 0.05607 0.49426 0.63771 0.0
C1250 C 0.03845 0.49959 0.65033 0.0
C1251 C 0.08289 0.51332 0.49945 0.0
H1252 H 0.0489 0.59253 0.44034 0.0
H1253 H 0.1051 0.5606 0.4291 0.0
H1254 H 0.05234 0.60704 0.40137 0.0
H1255 H 0.08242 0.59888 0.37648 0.0
H1256 H 0.07396 0.49931 0.60672 0.0
H1257 H 0.02106 0.53696 0.61588 0.0
H1258 H 0.06569 0.48216 0.64363 0.0
H1259 H 0.03461 0.4917 0.66616 0.0
Gd1260 Gd 0.84171 0.78592 0.27677 0.0
Gd1261 Gd 0.78771 0.80144 0.27409 0.0
C1262 C 0.75159 0.78439 0.19726 0.0
C1263 C 0.74898 0.82501 0.19115 0.0
C1264 C 0.76595 0.81985 0.22954 0.0
C1265 C 0.7624 0.79483 0.22082 0.0
C1266 C 0.75864 0.83511 0.21505 0.0
C1267 C 0.7455 0.79968 0.18226 0.0
C1268 C 0.74657 0.75882 0.18972 0.0
C1269 C 0.75176 0.74427 0.20572 0.0
N1270 N 0.76839 0.78053 0.23582 0.0
C1271 C 0.76234 0.7554 0.22887 0.0
H1272 H 0.76606 0.74345 0.24051 0.0
C1273 C 0.7757 0.85288 0.26331 0.0
N1274 N 0.77517 0.82903 0.25274 0.0
C1275 C 0.76875 0.86874 0.24967 0.0
C1276 C 0.76052 0.85992 0.2253 0.0
H1277 H 0.78197 0.85971 0.28224 0.0
H1278 H 0.73749 0.79201 0.16401 0.0
H1279 H 0.87051 0.84319 0.3068 0.0
H1280 H 0.73809 0.75011 0.17191 0.0
H1281 H 0.74762 0.72442 0.20026 0.0
H1282 H 0.74354 0.83651 0.17965 0.0
H1283 H 0.84749 0.72785 0.26879 0.0
H1284 H 0.89614 0.83715 0.37673 0.0
H1285 H 0.89081 0.8623 0.34615 0.0
H1286 H 0.88417 0.75039 0.37197 0.0
H1287 H 0.76967 0.88773 0.25799 0.0
H1288 H 0.75502 0.87221 0.21479 0.0
H1289 H 0.89279 0.79523 0.38655 0.0
H1290 H 0.8583 0.69934 0.29342 0.0
N1291 N 0.86303 0.80669 0.31414 0.0
C1292 C 0.887 0.82842 0.35923 0.0
C1293 C 0.88411 0.84264 0.34201 0.0
C1294 C 0.87927 0.80292 0.35305 0.0
C1295 C 0.86759 0.79246 0.32991 0.0
C1296 C 0.87216 0.83147 0.31948 0.0
N1297 N 0.85406 0.75842 0.2984 0.0
C1298 C 0.86289 0.76739 0.32172 0.0
C1299 C 0.8595 0.71839 0.30169 0.0
C1300 C 0.86711 0.72699 0.32626 0.0
C1301 C 0.85347 0.73457 0.28781 0.0
C1302 C 0.86948 0.75191 0.33642 0.0
H1303 H 0.872 0.7145 0.33694 0.0
O1304 O 0.85842 0.7688 0.24785 0.0
O1305 O 0.81403 0.79042 0.25172 0.0
O1306 O 0.78305 0.76091 0.27866 0.0
O1307 O 0.81739 0.75149 0.2845 0.0
O1308 O 0.82487 0.75775 0.24472 0.0
O1309 O 0.87304 0.80551 0.26675 0.0
O1310 O 0.77154 0.81535 0.3052 0.0
O1311 O 0.81542 0.79669 0.29858 0.0
O1312 O 0.84595 0.82688 0.27336 0.0
O1313 O 0.81171 0.83644 0.26727 0.0
O1314 O 0.80474 0.82917 0.30695 0.0
O1315 O 0.75399 0.78355 0.2797 0.0
C1316 C 0.81229 0.77039 0.23633 0.0
C1317 C 0.87931 0.76201 0.36026 0.0
C1318 C 0.88419 0.78753 0.36858 0.0
C1319 C 0.87493 0.78747 0.24973 0.0
C1320 C 0.89697 0.78179 0.2475 0.0
C1321 C 0.90369 0.7655 0.26089 0.0
C1322 C 0.9107 0.79102 0.23048 0.0
C1323 C 0.9307 0.7835 0.22677 0.0
C1324 C 0.92336 0.75802 0.25715 0.0
C1325 C 0.9367 0.76683 0.24018 0.0
C1326 C 0.79535 0.74515 0.28265 0.0
C1327 C 0.81786 0.81649 0.3143 0.0
C1328 C 0.75328 0.79873 0.29979 0.0
C1329 C 0.73259 0.80746 0.30384 0.0
C1330 C 0.72956 0.8282 0.29497 0.0
C1331 C 0.71659 0.79655 0.31807 0.0
C1332 C 0.69787 0.80661 0.32314 0.0
C1333 C 0.71173 0.83856 0.3005 0.0
C1334 C 0.69622 0.82812 0.31457 0.0
C1335 C 0.83374 0.84281 0.26952 0.0
H1336 H 0.89354 0.75821 0.27396 0.0
H1337 H 0.90565 0.8035 0.21989 0.0
H1338 H 0.92822 0.74518 0.26735 0.0
H1339 H 0.95185 0.76065 0.23752 0.0
H1340 H 0.74128 0.83681 0.28414 0.0
H1341 H 0.71865 0.78041 0.32495 0.0
H1342 H 0.70997 0.85495 0.29394 0.0
H1343 H 0.68281 0.83708 0.31877 0.0
Gd1344 Gd 0.80067 0.30747 0.80736 0.0
Gd1345 Gd 0.82424 0.28721 0.75059 0.0
C1346 C 0.80486 0.20956 0.70203 0.0
C1347 C 0.83795 0.19432 0.7077 0.0
C1348 C 0.83604 0.23512 0.72897 0.0
C1349 C 0.8148 0.23169 0.71853 0.0
C1350 C 0.84828 0.21698 0.7226 0.0
C1351 C 0.81617 0.19055 0.69754 0.0
C1352 C 0.78453 0.20778 0.68914 0.0
C1353 C 0.77533 0.22826 0.69156 0.0
N1354 N 0.80494 0.25106 0.72216 0.0
C1355 C 0.78597 0.24988 0.70765 0.0
H1356 H 0.77868 0.26537 0.70748 0.0
C1357 C 0.86822 0.26402 0.74725 0.0
N1358 N 0.84573 0.25748 0.74259 0.0
C1359 C 0.88105 0.24673 0.74157 0.0
C1360 C 0.87094 0.22285 0.72976 0.0
H1361 H 0.8763 0.28266 0.75589 0.0
H1362 H 0.8087 0.17343 0.68511 0.0
H1363 H 0.85748 0.3349 0.82193 0.0
H1364 H 0.77641 0.19116 0.67634 0.0
H1365 H 0.76013 0.22756 0.68075 0.0
H1366 H 0.847 0.1801 0.70286 0.0
H1367 H 0.75127 0.32288 0.80101 0.0
H1368 H 0.86208 0.39598 0.87969 0.0
H1369 H 0.87963 0.3675 0.85331 0.0
H1370 H 0.78828 0.40689 0.88106 0.0
H1371 H 0.89875 0.25193 0.74608 0.0
H1372 H 0.88094 0.20955 0.725 0.0
H1373 H 0.82799 0.41033 0.89002 0.0
H1374 H 0.73256 0.35292 0.82216 0.0
N1375 N 0.82636 0.34243 0.8312 0.0
C1376 C 0.85195 0.38119 0.8661 0.0
C1377 C 0.86189 0.36512 0.85131 0.0
C1378 C 0.82918 0.37871 0.86243 0.0
C1379 C 0.81669 0.3592 0.84438 0.0
C1380 C 0.84894 0.34616 0.8336 0.0
N1381 N 0.78305 0.33987 0.8203 0.0
C1382 C 0.79439 0.3578 0.83883 0.0
C1383 C 0.75003 0.35478 0.82679 0.0
C1384 C 0.7615 0.37334 0.8457 0.0
C1385 C 0.76099 0.33806 0.81439 0.0
C1386 C 0.78393 0.3751 0.85189 0.0
H1387 H 0.75288 0.38613 0.85546 0.0
O1388 O 0.7674 0.28812 0.81197 0.0
O1389 O 0.79978 0.27871 0.77531 0.0
O1390 O 0.79006 0.29452 0.74062 0.0
O1391 O 0.77931 0.31567 0.77569 0.0
O1392 O 0.80067 0.26791 0.80881 0.0
O1393 O 0.79192 0.30582 0.84339 0.0
O1394 O 0.85205 0.30712 0.73615 0.0
O1395 O 0.81633 0.31801 0.776 0.0
O1396 O 0.8329 0.29731 0.8194 0.0
O1397 O 0.84501 0.27913 0.78311 0.0
O1398 O 0.84884 0.321 0.76912 0.0
O1399 O 0.81911 0.29976 0.71697 0.0
C1400 C 0.79957 0.26105 0.78556 0.0
C1401 C 0.7961 0.39363 0.8707 0.0
C1402 C 0.81869 0.39551 0.87587 0.0
C1403 C 0.77148 0.29482 0.83562 0.0
C1404 C 0.75876 0.28162 0.85175 0.0
C1405 C 0.7404 0.28981 0.86014 0.0
C1406 C 0.76655 0.26378 0.86166 0.0
C1407 C 0.75605 0.25418 0.88026 0.0
C1408 C 0.72992 0.28033 0.87868 0.0
C1409 C 0.73775 0.26267 0.88884 0.0
C1410 C 0.77627 0.30674 0.75176 0.0
C1411 C 0.83463 0.33257 0.77826 0.0
C1412 C 0.84002 0.30933 0.71744 0.0
C1413 C 0.84951 0.30813 0.69472 0.0
C1414 C 0.86434 0.29348 0.6872 0.0
C1415 C 0.84505 0.32514 0.68165 0.0
C1416 C 0.85519 0.32829 0.66091 0.0
C1417 C 0.87466 0.29643 0.66612 0.0
C1418 C 0.87025 0.31403 0.65299 0.0
C1419 C 0.84722 0.28633 0.80745 0.0
H1420 H 0.73467 0.30416 0.85294 0.0
H1421 H 0.78096 0.25779 0.85522 0.0
H1422 H 0.716 0.28702 0.8855 0.0
H1423 H 0.72977 0.25598 0.90369 0.0
H1424 H 0.8682 0.28038 0.69772 0.0
H1425 H 0.83413 0.33694 0.68836 0.0
H1426 H 0.88628 0.2854 0.66019 0.0
H1427 H 0.87842 0.31647 0.63686 0.0
Gd1428 Gd 0.79514 0.75942 0.75468 0.0
Gd1429 Gd 0.82208 0.82096 0.78903 0.0
C1430 C 0.89149 0.86179 0.7756 0.0
C1431 C 0.91193 0.86794 0.81513 0.0
C1432 C 0.87329 0.84611 0.80816 0.0
C1433 C 0.8725 0.84883 0.78424 0.0
C1434 C 0.89284 0.85641 0.82407 0.0
C1435 C 0.91126 0.87056 0.7909 0.0
C1436 C 0.88991 0.86679 0.75225 0.0
C1437 C 0.8697 0.85967 0.73829 0.0
N1438 N 0.85285 0.84079 0.77009 0.0
C1439 C 0.85139 0.84702 0.74747 0.0
H1440 H 0.83668 0.84245 0.73535 0.0
C1441 C 0.85363 0.8372 0.8411 0.0
N1442 N 0.85444 0.83567 0.81657 0.0
C1443 C 0.87253 0.84684 0.85745 0.0
C1444 C 0.89236 0.85611 0.84884 0.0
H1445 H 0.83814 0.83135 0.84823 0.0
H1446 H 0.92591 0.88033 0.78444 0.0
H1447 H 0.77951 0.74619 0.80965 0.0
H1448 H 0.90405 0.87669 0.74507 0.0
H1449 H 0.86814 0.8638 0.72025 0.0
H1450 H 0.92705 0.87578 0.82705 0.0
H1451 H 0.77877 0.75097 0.69501 0.0
H1452 H 0.71299 0.70732 0.79916 0.0
H1453 H 0.74853 0.72247 0.82473 0.0
H1454 H 0.69007 0.70679 0.71667 0.0
H1455 H 0.87166 0.84755 0.87674 0.0
H1456 H 0.90695 0.86402 0.8616 0.0
H1457 H 0.69121 0.7026 0.75938 0.0
H1458 H 0.7452 0.73489 0.66678 0.0
N1459 N 0.76377 0.74334 0.774 0.0
C1460 C 0.72705 0.71733 0.79194 0.0
C1461 C 0.74708 0.72557 0.80629 0.0
C1462 C 0.72545 0.72175 0.76832 0.0
C1463 C 0.74435 0.73471 0.7596 0.0
C1464 C 0.76516 0.73871 0.79714 0.0
N1465 N 0.76258 0.74747 0.72701 0.0
C1466 C 0.74369 0.7371 0.73551 0.0
C1467 C 0.74437 0.73587 0.68611 0.0
C1468 C 0.72458 0.7267 0.69482 0.0
C1469 C 0.76333 0.7455 0.70236 0.0
C1470 C 0.72415 0.72658 0.71963 0.0
H1471 H 0.70999 0.71864 0.68211 0.0
O1472 O 0.8017 0.73354 0.72418 0.0
O1473 O 0.82733 0.78559 0.7689 0.0
O1474 O 0.80858 0.82324 0.75103 0.0
O1475 O 0.78911 0.78481 0.72997 0.0
O1476 O 0.82357 0.7689 0.73293 0.0
O1477 O 0.79711 0.72308 0.75979 0.0
O1478 O 0.8149 0.8464 0.81955 0.0
O1479 O 0.79039 0.79434 0.77502 0.0
O1480 O 0.81062 0.75608 0.79179 0.0
O1481 O 0.82881 0.79499 0.81354 0.0
O1482 O 0.79505 0.8087 0.81166 0.0
O1483 O 0.80922 0.85198 0.78269 0.0
C1484 C 0.8373 0.7834 0.75009 0.0
C1485 C 0.70514 0.71489 0.72861 0.0
C1486 C 0.7058 0.71247 0.75291 0.0
C1487 C 0.79937 0.71627 0.73679 0.0
C1488 C 0.80177 0.69175 0.72662 0.0
C1489 C 0.7977 0.68193 0.7016 0.0
C1490 C 0.80969 0.67864 0.7423 0.0
C1491 C 0.81678 0.65748 0.73316 0.0
C1492 C 0.80257 0.65924 0.6925 0.0
C1493 C 0.81263 0.64723 0.70816 0.0
C1494 C 0.79737 0.80837 0.73123 0.0
C1495 C 0.7809 0.79566 0.79407 0.0
C1496 C 0.80915 0.86053 0.8058 0.0
C1497 C 0.81724 0.8869 0.81363 0.0
C1498 C 0.83693 0.89809 0.82859 0.0
C1499 C 0.80485 0.90116 0.80403 0.0
C1500 C 0.81262 0.92645 0.80712 0.0
C1501 C 0.844 0.92379 0.8334 0.0
C1502 C 0.83199 0.93805 0.82245 0.0
C1503 C 0.82158 0.77099 0.8119 0.0
H1504 H 0.79103 0.69183 0.68922 0.0
H1505 H 0.81215 0.68608 0.76172 0.0
H1506 H 0.79949 0.65156 0.67321 0.0
H1507 H 0.81797 0.63071 0.70065 0.0
H1508 H 0.8468 0.88716 0.83625 0.0
H1509 H 0.7894 0.8922 0.79291 0.0
H1510 H 0.8591 0.93259 0.845 0.0
H1511 H 0.83809 0.95778 0.82533 0.0
Gd1512 Gd 0.59085 0.55914 0.53684 0.0
Gd1513 Gd 0.53878 0.53038 0.51032 0.0
C1514 C 0.51142 0.45094 0.51822 0.0
C1515 C 0.50223 0.42993 0.47615 0.0
C1516 C 0.52085 0.47336 0.48594 0.0
C1517 C 0.52041 0.4731 0.51057 0.0
C1518 C 0.51147 0.45172 0.46852 0.0
C1519 C 0.50227 0.42952 0.50091 0.0
C1520 C 0.51205 0.45077 0.54307 0.0
C1521 C 0.5217 0.47218 0.55973 0.0
N1522 N 0.52906 0.4942 0.52705 0.0
C1523 C 0.5301 0.4937 0.55146 0.0
H1524 H 0.53822 0.50941 0.565 0.0
C1525 C 0.52821 0.4958 0.45464 0.0
N1526 N 0.52973 0.49476 0.47893 0.0
C1527 C 0.51933 0.47484 0.43689 0.0
C1528 C 0.51104 0.45266 0.44383 0.0
H1529 H 0.5332 0.51302 0.44863 0.0
H1530 H 0.4952 0.41249 0.50652 0.0
H1531 H 0.59269 0.58026 0.48255 0.0
H1532 H 0.50549 0.43411 0.54957 0.0
H1533 H 0.52279 0.47213 0.57902 0.0
H1534 H 0.49492 0.41326 0.463 0.0
H1535 H 0.596 0.57586 0.59872 0.0
H1536 H 0.62621 0.65535 0.49876 0.0
H1537 H 0.60878 0.61764 0.46892 0.0
H1538 H 0.63561 0.67563 0.58537 0.0
H1539 H 0.51838 0.47599 0.41784 0.0
H1540 H 0.50384 0.43649 0.43 0.0
H1541 H 0.63611 0.67665 0.54196 0.0
H1542 H 0.61078 0.61271 0.62986 0.0
N1543 N 0.60135 0.59527 0.52053 0.0
C1544 C 0.61931 0.63868 0.50506 0.0
C1545 C 0.60955 0.61744 0.48818 0.0
C1546 C 0.61959 0.63833 0.52986 0.0
C1547 C 0.61017 0.61618 0.53724 0.0
C1548 C 0.60068 0.5959 0.49619 0.0
N1549 N 0.60007 0.5944 0.56866 0.0
C1550 C 0.60932 0.61578 0.56185 0.0
C1551 C 0.61015 0.61398 0.61085 0.0
C1552 C 0.61872 0.6362 0.60412 0.0
C1553 C 0.60136 0.59314 0.59292 0.0
C1554 C 0.61869 0.63728 0.57947 0.0
H1555 H 0.62586 0.65226 0.61808 0.0
O1556 O 0.61074 0.55018 0.56575 0.0
O1557 O 0.56559 0.52393 0.53501 0.0
O1558 O 0.53101 0.5432 0.54944 0.0
O1559 O 0.56595 0.5636 0.56722 0.0
O1560 O 0.5958 0.52038 0.52521 0.0
O1561 O 0.62628 0.56733 0.53681 0.0
O1562 O 0.51828 0.53883 0.48136 0.0
O1563 O 0.56408 0.56559 0.51219 0.0
O1564 O 0.59875 0.5451 0.49784 0.0
O1565 O 0.56328 0.52852 0.47926 0.0
O1566 O 0.53402 0.56907 0.52255 0.0
O1567 O 0.5036 0.52332 0.51149 0.0
C1568 C 0.5771 0.50792 0.52905 0.0
C1569 C 0.62832 0.65907 0.57208 0.0
C1570 C 0.62874 0.65961 0.54737 0.0
C1571 C 0.62879 0.55939 0.55698 0.0
C1572 C 0.65043 0.55875 0.56742 0.0
C1573 C 0.65834 0.57158 0.5911 0.0
C1574 C 0.66304 0.54474 0.55392 0.0
C1575 C 0.6834 0.54307 0.56437 0.0
C1576 C 0.67896 0.57032 0.6013 0.0
C1577 C 0.69145 0.55593 0.58803 0.0
C1578 C 0.54422 0.55616 0.56898 0.0
C1579 C 0.5526 0.58154 0.5184 0.0
C1580 C 0.50054 0.53095 0.49127 0.0
C1581 C 0.47865 0.53257 0.48227 0.0
C1582 C 0.47091 0.52357 0.45768 0.0
C1583 C 0.46562 0.54371 0.4981 0.0
C1584 C 0.44486 0.54585 0.48928 0.0
C1585 C 0.45 0.52548 0.44897 0.0
C1586 C 0.43697 0.53663 0.46472 0.0
C1587 C 0.58522 0.53409 0.47784 0.0
H1588 H 0.6486 0.58253 0.6016 0.0
H1589 H 0.65677 0.53458 0.53569 0.0
H1590 H 0.68516 0.58027 0.61954 0.0
H1591 H 0.70729 0.55471 0.5962 0.0
H1592 H 0.48098 0.51503 0.4453 0.0
H1593 H 0.47175 0.55109 0.51706 0.0
H1594 H 0.44397 0.5185 0.43 0.0
H1595 H 0.42088 0.53835 0.45776 0.0
Gd1596 Gd 0.03397 0.53836 0.03795 0.0
Gd1597 Gd 0.08886 0.5462 0.01527 0.0
C1598 C 0.13128 0.62197 0.01583 0.0
C1599 C 0.13247 0.62181 0.97268 0.0
C1600 C 0.11208 0.5859 0.98612 0.0
C1601 C 0.11776 0.598 0.01023 0.0
C1602 C 0.11976 0.59758 0.96715 0.0
C1603 C 0.13818 0.63398 0.99695 0.0
C1604 C 0.1381 0.6329 0.04024 0.0
C1605 C 0.13182 0.61985 0.05839 0.0
N1606 N 0.11111 0.58591 0.02819 0.0
C1607 C 0.1185 0.59615 0.05202 0.0
H1608 H 0.11417 0.58629 0.06633 0.0
C1609 C 0.09572 0.54909 0.95794 0.0
N1610 N 0.09981 0.56242 0.98123 0.0
C1611 C 0.10304 0.55993 0.93858 0.0
C1612 C 0.1149 0.58435 0.94317 0.0
H1613 H 0.08658 0.53018 0.95438 0.0
H1614 H 0.14839 0.65247 1.00094 0.0
H1615 H 0.00888 0.49724 0.98734 0.0
H1616 H 0.14875 0.65111 0.04521 0.0
H1617 H 0.13734 0.62795 0.07731 0.0
H1618 H 0.13836 0.63114 0.95833 0.0
H1619 H 0.03672 0.5556 0.09914 0.0
H1620 H 0.97299 0.43389 0.00986 0.0
H1621 H 0.98515 0.45589 0.97719 0.0
H1622 H 0.98138 0.45677 0.09662 0.0
H1623 H 0.09955 0.54946 0.92014 0.0
H1624 H 0.1206 0.59267 0.92813 0.0
H1625 H 0.97168 0.43443 0.05434 0.0
H1626 H 0.02265 0.53768 0.13356 0.0
N1627 N 0.01138 0.49876 0.0257 0.0
C1628 C 0.98366 0.45212 0.01453 0.0
C1629 C 0.99044 0.46447 0.99604 0.0
C1630 C 0.99009 0.46375 0.03884 0.0
C1631 C 1.00409 0.48749 0.04401 0.0
C1632 C 1.00411 0.48801 1.00197 0.0
N1633 N 0.02249 0.52339 0.07253 0.0
C1634 C 0.00961 0.50018 0.06799 0.0
C1635 C 0.01899 0.52691 0.11524 0.0
C1636 C 1.00621 0.50293 0.111 0.0
C1637 C 0.02693 0.537 0.09571 0.0
C1638 C 1.00125 0.48931 0.08719 0.0
H1639 H 1.0 0.49523 0.12619 0.0
O1640 O 0.02043 0.57075 0.0368 0.0
O1641 O 0.064 0.56558 0.03274 0.0
O1642 O 0.08859 0.54817 0.0553 0.0
O1643 O 0.05498 0.52539 0.06332 0.0
O1644 O 0.04973 0.57424 0.06433 0.0
O1645 O 0.99881 0.53513 0.02857 0.0
O1646 O 0.10336 0.51425 0.00946 0.0
O1647 O 0.05936 0.5188 0.02169 0.0
O1648 O 0.03704 0.53321 0.9987 0.0
O1649 O 0.06701 0.55933 0.9897 0.0
O1650 O 0.07355 0.50945 0.99007 0.0
O1651 O 0.12366 0.54899 0.02724 0.0
C1652 C 0.06531 0.58236 0.05158 0.0
C1653 C 0.98787 0.46542 0.08208 0.0
C1654 C 0.98236 0.45267 0.058 0.0
C1655 C 1.00011 0.55864 0.03208 0.0
C1656 C 0.98432 0.56822 0.0475 0.0
C1657 C 0.98522 0.5664 0.07203 0.0
C1658 C 0.96877 0.57992 0.03809 0.0
C1659 C 0.95449 0.59029 0.05338 0.0
C1660 C 0.97138 0.57656 0.08725 0.0
C1661 C 0.95644 0.58872 0.0782 0.0
C1662 C 0.07606 0.53521 0.06858 0.0
C1663 C 0.05857 0.50136 1.00348 0.0
C1664 C 0.12304 0.52597 0.01868 0.0
C1665 C 0.14074 0.51984 1.00416 0.0
C1666 C 0.14068 0.52334 0.98016 0.0
C1667 C 0.15597 0.5075 0.01314 0.0
C1668 C 0.17047 0.49752 0.99778 0.0
C1669 C 0.15454 0.51349 0.96478 0.0
C1670 C 0.16881 0.5002 0.9732 0.0
C1671 C 0.04568 0.55007 0.98695 0.0
H1672 H 0.99686 0.55743 0.07952 0.0
H1673 H 0.96784 0.58073 0.01895 0.0
H1674 H 0.97247 0.57533 0.10628 0.0
H1675 H 0.94666 0.59719 0.09095 0.0
H1676 H 0.12932 0.53284 0.97301 0.0
H1677 H 0.1561 0.5056 0.03195 0.0
H1678 H 0.15381 0.51561 0.94599 0.0
H1679 H 0.17817 0.49177 0.95996 0.0
C1680 C 0.05099 0.21341 0.97785 0.0
C1681 C 0.02948 0.21219 0.96761 0.0
C1682 C 0.05683 0.19328 0.98664 0.0
C1683 C 0.04111 0.17065 0.98464 0.0
C1684 C 0.01934 0.16939 0.97425 0.0
C1685 C 0.01376 0.1901 0.96641 0.0
C1686 C 0.07996 0.19629 0.99827 0.0
C1687 C 1.00178 0.14603 0.97143 0.0
C1688 C 0.06103 0.10988 0.97916 0.0
C1689 C 0.05841 0.10309 1.00192 0.0
C1690 C 0.05612 0.13176 0.9738 0.0
C1691 C 0.0478 0.14785 0.99137 0.0
C1692 C 0.04547 0.14146 0.01472 0.0
C1693 C 0.05091 0.1194 0.01976 0.0
C1694 C 0.05911 0.13718 0.94873 0.0
C1695 C 0.03696 0.1578 0.03437 0.0
H1696 H 0.06322 0.23046 0.97958 0.0
H1697 H 0.99699 0.18891 0.95907 0.0
H1698 H 0.0795 0.19067 0.0162 0.0
H1699 H 0.08865 0.18413 0.98672 0.0
H1700 H 0.08964 0.21555 1.00091 0.0
H1701 H 0.98625 0.14709 0.96127 0.0
H1702 H 1.00773 0.13017 0.96174 0.0
H1703 H 0.99811 0.14233 0.98965 0.0
H1704 H 0.06658 0.09753 0.96505 0.0
H1705 H 0.04838 0.11445 0.0373 0.0
H1706 H 0.07019 0.15553 0.95009 0.0
H1707 H 0.04297 0.13766 0.93954 0.0
H1708 H 0.06616 0.12326 0.93719 0.0
H1709 H 0.0496 0.17513 0.04081 0.0
H1710 H 0.03311 0.14892 0.05016 0.0
H1711 H 0.02191 0.16281 0.02716 0.0
C1712 C 0.18846 0.82981 0.14654 0.0
C1713 C 0.16588 0.82369 0.14993 0.0
C1714 C 0.20525 0.82719 0.16352 0.0
C1715 C 0.19978 0.81767 0.18464 0.0
C1716 C 0.17705 0.81185 0.18847 0.0
C1717 C 0.16055 0.81508 0.17135 0.0
C1718 C 0.229 0.83423 0.15849 0.0
C1719 C 0.17009 0.80179 0.21057 0.0
C1720 C 0.24265 0.78698 0.2127 0.0
C1721 C 0.25366 0.80516 0.23264 0.0
C1722 C 0.22495 0.79056 0.19756 0.0
C1723 C 0.21775 0.81303 0.20201 0.0
C1724 C 0.2285 0.83125 0.22249 0.0
C1725 C 0.24605 0.82708 0.23746 0.0
C1726 C 0.21403 0.7702 0.17652 0.0
C1727 C 0.22212 0.85572 0.22813 0.0
H1728 H 0.19314 0.83654 0.13031 0.0
H1729 H 0.14336 0.81014 0.17444 0.0
H1730 H 0.23916 0.84627 0.17483 0.0
H1731 H 0.23565 0.81744 0.15424 0.0
H1732 H 0.2309 0.84392 0.14297 0.0
H1733 H 0.15187 0.79664 0.21036 0.0
H1734 H 0.17685 0.78536 0.21169 0.0
H1735 H 0.17691 0.81576 0.22726 0.0
H1736 H 0.24774 0.76969 0.20898 0.0
H1737 H 0.2543 0.84144 0.25262 0.0
H1738 H 0.21662 0.77652 0.15913 0.0
H1739 H 0.19598 0.76541 0.17762 0.0
H1740 H 0.22059 0.75337 0.1761 0.0
H1741 H 0.22815 0.86677 0.21449 0.0
H1742 H 0.22929 0.8663 0.24652 0.0
H1743 H 0.20394 0.85324 0.22694 0.0
C1744 C 0.55139 0.85895 0.46372 0.0
C1745 C 0.53062 0.84272 0.46107 0.0
C1746 C 0.55459 0.88417 0.47452 0.0
C1747 C 0.53645 0.89398 0.48237 0.0
C1748 C 0.51542 0.87756 0.47988 0.0
C1749 C 0.51281 0.85221 0.46955 0.0
C1750 C 0.5775 0.90034 0.47752 0.0
C1751 C 0.49546 0.88698 0.48738 0.0
C1752 C 0.5494 0.95639 0.52738 0.0
C1753 C 0.54923 0.9734 0.51204 0.0
C1754 C 0.54462 0.93071 0.51819 0.0
C1755 C 0.53955 0.92136 0.49279 0.0
C1756 C 0.53874 0.9385 0.47726 0.0
C1757 C 0.54391 0.96415 0.48696 0.0
C1758 C 0.54618 0.91366 0.53566 0.0
C1759 C 0.53335 0.92982 0.45015 0.0
H1760 H 0.56528 0.85184 0.45731 0.0
H1761 H 0.49665 0.83995 0.46736 0.0
H1762 H 0.57765 0.91591 0.46802 0.0
H1763 H 0.58262 0.90831 0.49708 0.0
H1764 H 0.58985 0.89012 0.47031 0.0
H1765 H 0.48066 0.87185 0.48619 0.0
H1766 H 0.49873 0.8978 0.50626 0.0
H1767 H 0.49182 0.89952 0.47538 0.0
H1768 H 0.55419 0.96331 0.54668 0.0
H1769 H 0.54465 0.97702 0.47475 0.0
H1770 H 0.56042 0.90507 0.53224 0.0
H1771 H 0.53116 0.8986 0.53278 0.0
H1772 H 0.54835 0.92342 0.55495 0.0
H1773 H 0.54722 0.9227 0.44239 0.0
H1774 H 0.53045 0.94483 0.44095 0.0
H1775 H 0.51848 0.91451 0.44605 0.0
C1776 C 0.54148 0.32457 0.67008 0.0
C1777 C 0.54182 0.31337 0.64575 0.0
C1778 C 0.52177 0.32207 0.68141 0.0
C1779 C 0.50189 0.30683 0.66867 0.0
C1780 C 0.50198 0.29626 0.64371 0.0
C1781 C 0.52179 0.30016 0.63245 0.0
C1782 C 0.5225 0.33508 0.70744 0.0
C1783 C 0.48139 0.27999 0.62907 0.0
C1784 C 0.46631 0.27213 0.70981 0.0
C1785 C 0.44691 0.28128 0.70983 0.0
C1786 C 0.48337 0.27947 0.69567 0.0
C1787 C 0.48262 0.29848 0.68263 0.0
C1788 C 0.46401 0.30938 0.68384 0.0
C1789 C 0.44623 0.30036 0.69693 0.0
C1790 C 0.50215 0.26634 0.69441 0.0
C1791 C 0.46308 0.33089 0.67175 0.0
H1792 H 0.55673 0.3354 0.68036 0.0
H1793 H 0.5218 0.29181 0.61351 0.0
H1794 H 0.50758 0.34261 0.71021 0.0
H1795 H 0.52288 0.32187 0.71973 0.0
H1796 H 0.53735 0.35035 0.71284 0.0
H1797 H 0.48491 0.27017 0.61129 0.0
H1798 H 0.47326 0.26618 0.63929 0.0
H1799 H 0.46954 0.29135 0.62547 0.0
H1800 H 0.46836 0.25875 0.72076 0.0
H1801 H 0.4318 0.30815 0.69679 0.0
H1802 H 0.51753 0.27897 0.70389 0.0
H1803 H 0.50506 0.26042 0.67518 0.0
H1804 H 0.49891 0.24987 0.7029 0.0
H1805 H 0.47594 0.34706 0.68122 0.0
H1806 H 0.44678 0.33587 0.67225 0.0
H1807 H 0.46668 0.32686 0.65257 0.0
C1808 C 1.00248 0.82816 0.62296 0.0
C1809 C 0.01792 0.82203 0.63848 0.0
C1810 C 0.0093 0.84361 0.60675 0.0
C1811 C 0.03212 0.8525 0.60581 0.0
C1812 C 0.04778 0.8465 0.62174 0.0
C1813 C 0.04043 0.83131 0.63806 0.0
C1814 C 0.99213 0.84947 0.58997 0.0
C1815 C 0.07226 0.85536 0.6209 0.0
C1816 C 0.05147 0.86999 0.54756 0.0
C1817 C 0.05687 0.89571 0.55397 0.0
C1818 C 0.04317 0.85565 0.56418 0.0
C1819 C 0.0397 0.86738 0.5876 0.0
C1820 C 0.04424 0.89331 0.59394 0.0
C1821 C 0.05304 0.9072 0.57716 0.0
C1822 C 0.03875 0.82797 0.55691 0.0
C1823 C 0.04007 0.9063 0.61856 0.0
H1824 H 0.9851 0.82001 0.62282 0.0
H1825 H 0.05224 0.82558 0.64949 0.0
H1826 H 0.99532 0.86956 0.5905 0.0
H1827 H 0.99301 0.84036 0.57097 0.0
H1828 H 0.97515 0.84318 0.59478 0.0
H1829 H 0.0822 0.84725 0.63299 0.0
H1830 H 0.07662 0.85067 0.60205 0.0
H1831 H 0.07693 0.87567 0.62658 0.0
H1832 H 0.05389 0.861 0.52953 0.0
H1833 H 0.05738 0.92707 0.58248 0.0
H1834 H 0.02141 0.81966 0.55906 0.0
H1835 H 0.04945 0.82079 0.56903 0.0
H1836 H 0.04187 0.82179 0.53779 0.0
H1837 H 0.02259 0.89991 0.62169 0.0
H1838 H 0.04375 0.92661 0.62036 0.0
H1839 H 0.05039 0.90168 0.6331 0.0
C1840 C 0.55416 0.83198 0.85143 0.0
C1841 C 0.55554 0.83591 0.8769 0.0
C1842 C 0.53433 0.83067 0.83766 0.0
C1843 C 0.51547 0.83334 0.84967 0.0
C1844 C 0.51647 0.83627 0.87527 0.0
C1845 C 0.53656 0.83759 0.88864 0.0
C1846 C 0.53377 0.82737 0.81032 0.0
C1847 C 0.49644 0.83855 0.88852 0.0
C1848 C 0.47599 0.86036 0.81513 0.0
C1849 C 0.46002 0.83936 0.80425 0.0
C1850 C 0.4936 0.85871 0.83094 0.0
C1851 C 0.49541 0.83541 0.8355 0.0
C1852 C 0.47894 0.81418 0.82509 0.0
C1853 C 0.4613 0.81645 0.8096 0.0
C1854 C 0.51061 0.88183 0.84225 0.0
C1855 C 0.48041 0.78895 0.82926 0.0
H1856 H 0.56872 0.83054 0.84219 0.0
H1857 H 0.53743 0.8402 0.90829 0.0
H1858 H 0.51986 0.81209 0.8014 0.0
H1859 H 0.53107 0.84434 0.80454 0.0
H1860 H 0.54932 0.82347 0.80366 0.0
H1861 H 0.50004 0.84092 0.90854 0.0
H1862 H 0.49015 0.8545 0.88455 0.0
H1863 H 0.48308 0.82187 0.88201 0.0
H1864 H 0.47465 0.87808 0.81124 0.0
H1865 H 0.44882 0.80022 0.80112 0.0
H1866 H 0.52662 0.88099 0.83494 0.0
H1867 H 0.51322 0.88335 0.86223 0.0
H1868 H 0.50573 0.89868 0.83854 0.0
H1869 H 0.49192 0.78176 0.8171 0.0
H1870 H 0.46412 0.77579 0.82515 0.0
H1871 H 0.48691 0.78961 0.84826 0.0
C1872 C 0.51424 0.18404 0.13843 0.0
C1873 C 0.49455 0.18943 0.13008 0.0
C1874 C 0.51995 0.16239 0.12788 0.0
C1875 C 0.50477 0.14537 0.10991 0.0
C1876 C 0.48333 0.14893 0.10468 0.0
C1877 C 0.47866 0.17158 0.11426 0.0
C1878 C 0.54339 0.15993 0.133 0.0
C1879 C 0.46651 0.13021 0.08657 0.0
C1880 C 0.53023 0.11768 0.0561 0.0
C1881 C 0.53184 0.09532 0.0621 0.0
C1882 C 0.52111 0.13411 0.07152 0.0
C1883 C 0.51294 0.12736 0.09292 0.0
C1884 C 0.51378 0.10427 0.09849 0.0
C1885 C 0.52357 0.08852 0.08303 0.0
C1886 C 0.52109 0.15901 0.06538 0.0
C1887 C 0.50512 0.0965 0.12104 0.0
H1888 H 0.52656 0.1983 0.15045 0.0
H1889 H 0.46351 0.17606 0.10788 0.0
H1890 H 0.54405 0.14072 0.13384 0.0
H1891 H 0.55299 0.16518 0.11803 0.0
H1892 H 0.5516 0.17213 0.15032 0.0
H1893 H 0.44964 0.13345 0.08807 0.0
H1894 H 0.47073 0.13128 0.06784 0.0
H1895 H 0.46659 0.11132 0.08931 0.0
H1896 H 0.53704 0.1228 0.04003 0.0
H1897 H 0.5248 0.07091 0.08733 0.0
H1898 H 0.53064 0.17377 0.08025 0.0
H1899 H 0.50401 0.16172 0.0636 0.0
H1900 H 0.52836 0.16122 0.04813 0.0
H1901 H 0.51747 0.10509 0.13694 0.0
H1902 H 0.50197 0.07623 0.11939 0.0
H1903 H 0.48964 0.10258 0.12474 0.0
C1904 C 0.18885 0.3393 0.35578 0.0
C1905 C 0.16929 0.32117 0.35172 0.0
C1906 C 0.20633 0.33652 0.34201 0.0
C1907 C 0.20427 0.31462 0.32458 0.0
C1908 C 0.18448 0.29625 0.32047 0.0
C1909 C 0.16693 0.29999 0.3339 0.0
C1910 C 0.22686 0.357 0.34604 0.0
C1911 C 0.18224 0.27217 0.30298 0.0
C1912 C 0.24456 0.31412 0.27719 0.0
C1913 C 0.26127 0.30614 0.28897 0.0
C1914 C 0.22561 0.31676 0.2885 0.0
C1915 C 0.22334 0.31051 0.31164 0.0
C1916 C 0.24009 0.30196 0.32332 0.0
C1917 C 0.25931 0.30094 0.31222 0.0
C1918 C 0.20861 0.32743 0.27636 0.0
C1919 C 0.23814 0.29475 0.34786 0.0
H1920 H 0.19031 0.35584 0.36948 0.0
H1921 H 0.1517 0.28603 0.33112 0.0
H1922 H 0.24143 0.35031 0.35191 0.0
H1923 H 0.23004 0.36328 0.32872 0.0
H1924 H 0.22548 0.37303 0.36 0.0
H1925 H 0.16494 0.26131 0.29951 0.0
H1926 H 0.18833 0.27513 0.28538 0.0
H1927 H 0.19251 0.26122 0.31095 0.0
H1928 H 0.24674 0.31914 0.25961 0.0
H1929 H 0.27303 0.29647 0.32195 0.0
H1930 H 0.20795 0.34541 0.28764 0.0
H1931 H 0.192 0.3152 0.27495 0.0
H1932 H 0.21239 0.33026 0.25788 0.0
H1933 H 0.24006 0.31144 0.36225 0.0
H1934 H 0.25093 0.28477 0.35238 0.0
H1935 H 0.22164 0.2829 0.34833 0.0
C1936 C 0.97877 0.08747 0.19615 0.0
C1937 C 0.98017 0.06963 0.21068 0.0
C1938 C 0.9889 0.08767 0.17346 0.0
C1939 C 1.00096 0.06958 0.16393 0.0
C1940 C 1.0022 0.05166 0.17848 0.0
C1941 C 0.99215 0.05193 0.20081 0.0
C1942 C 0.98695 0.1077 0.1597 0.0
C1943 C 0.01471 0.03199 0.17065 0.0
C1944 C 0.011 0.05246 0.09415 0.0
C1945 C 0.03352 0.06319 0.09286 0.0
C1946 C 1.00044 0.05488 0.11637 0.0
C1947 C 0.01199 0.06872 0.1391 0.0
C1948 C 0.03468 0.0799 0.13789 0.0
C1949 C 0.04489 0.07704 0.11541 0.0
C1950 C 0.97665 0.04191 0.11556 0.0
C1951 C 0.04845 0.09523 0.16058 0.0
H1952 H 0.97028 0.10178 0.20275 0.0
H1953 H 0.99399 0.03778 0.21092 0.0
H1954 H 1.00352 0.11701 0.15591 0.0
H1955 H 0.97708 0.09953 0.14191 0.0
H1956 H 0.97899 0.12165 0.16983 0.0
H1957 H 0.01338 0.01841 0.18279 0.0
H1958 H 0.00849 0.02206 0.15181 0.0
H1959 H 0.0324 0.04062 0.17064 0.0
H1960 H 1.00145 0.04153 0.07761 0.0
H1961 H 0.0621 0.08577 0.11565 0.0
H1962 H 0.96681 0.05535 0.12257 0.0
H1963 H 0.97524 0.02823 0.12757 0.0
H1964 H 0.96945 0.03231 0.09688 0.0
H1965 H 0.04229 0.11217 0.16621 0.0
H1966 H 0.06615 0.10062 0.15779 0.0
H1967 H 0.04696 0.08509 0.17576 0.0
C1968 C 0.27384 0.67347 0.46882 0.0
C1969 C 0.29384 0.66688 0.47318 0.0
C1970 C 0.27171 0.68931 0.45303 0.0
C1971 C 0.29019 0.69863 0.4414 0.0
C1972 C 0.31041 0.69168 0.44544 0.0
C1973 C 0.31199 0.67566 0.46139 0.0
C1974 C 0.24986 0.69643 0.44925 0.0
C1975 C 0.33048 0.70198 0.43374 0.0
C1976 C 0.27281 0.7202 0.38558 0.0
C1977 C 0.27377 0.74487 0.39527 0.0
C1978 C 0.27971 0.70511 0.40014 0.0
C1979 C 0.28788 0.71528 0.42469 0.0
C1980 C 0.29044 0.74072 0.43399 0.0
C1981 C 0.2831 0.7553 0.41907 0.0
C1982 C 0.27634 0.67793 0.38994 0.0
C1983 C 0.29896 0.75213 0.46018 0.0
H1984 H 0.25996 0.66672 0.47816 0.0
H1985 H 0.3276 0.67096 0.46557 0.0
H1986 H 0.25211 0.71669 0.45424 0.0
H1987 H 0.24329 0.69075 0.42978 0.0
H1988 H 0.23736 0.68787 0.46025 0.0
H1989 H 0.34461 0.69373 0.43783 0.0
H1990 H 0.32656 0.69875 0.41373 0.0
H1991 H 0.33552 0.72218 0.44041 0.0
H1992 H 0.26538 0.71241 0.3671 0.0
H1993 H 0.28363 0.77449 0.42633 0.0
H1994 H 0.26238 0.66767 0.39798 0.0
H1995 H 0.29118 0.6712 0.39481 0.0
H1996 H 0.27258 0.67357 0.36984 0.0
H1997 H 0.28524 0.74903 0.47174 0.0
H1998 H 0.30549 0.77229 0.46259 0.0
H1999 H 0.31211 0.74371 0.46685 0.0
C2000 C 0.63901 0.02806 0.68217 0.0
C2001 C 0.66078 0.0412 0.68528 0.0
C2002 C 0.62641 0.02528 0.66046 0.0
C2003 C 0.63645 0.03527 0.64155 0.0
C2004 C 0.65921 0.04595 0.64357 0.0
C2005 C 0.67139 0.04897 0.66594 0.0
C2006 C 0.60193 0.01408 0.6588 0.0
C2007 C 0.67001 0.0564 0.62322 0.0
C2008 C 0.59451 0.01524 0.58913 0.0
C2009 C 0.58517 0.03568 0.5914 0.0
C2010 C 0.61362 0.0163 0.6035 0.0
C2011 C 0.62199 0.03745 0.62157 0.0
C2012 C 0.61214 0.05799 0.62435 0.0
C2013 C 0.59352 0.05673 0.60904 0.0
C2014 C 0.62465 0.99479 0.59968 0.0
C2015 C 0.6205 0.08078 0.6439 0.0
H2016 H 0.63143 0.02155 0.69736 0.0
H2017 H 0.6885 0.05889 0.66881 0.0
H2018 H 0.59237 0.02802 0.65608 0.0
H2019 H 0.59702 0.99853 0.64306 0.0
H2020 H 0.59711 1.00721 0.67545 0.0
H2021 H 0.68815 0.05822 0.62537 0.0
H2022 H 0.66312 0.04476 0.6052 0.0
H2023 H 0.66685 0.07497 0.62337 0.0
H2024 H 0.58816 0.9995 0.5745 0.0
H2025 H 0.58645 0.07276 0.60958 0.0
H2026 H 0.62162 0.98446 0.61459 0.0
H2027 H 0.64276 1.0014 0.60014 0.0
H2028 H 0.61836 0.98195 0.58209 0.0
H2029 H 0.61296 0.07786 0.66082 0.0
H2030 H 0.61585 0.09715 0.63857 0.0
H2031 H 0.63864 0.08489 0.64806 0.0
C2032 C 0.33474 0.37724 0.9518 0.0
C2033 C 0.32634 0.36428 0.96943 0.0
C2034 C 0.33368 0.36546 0.92733 0.0
C2035 C 0.323 0.34025 0.91988 0.0
C2036 C 0.3146 0.32697 0.93774 0.0
C2037 C 0.3169 0.33901 0.96237 0.0
C2038 C 0.34344 0.38035 0.90928 0.0
C2039 C 0.30258 0.30028 0.93101 0.0
C2040 C 0.30082 0.3302 0.85367 0.0
C2041 C 0.3153 0.31744 0.84134 0.0
C2042 C 0.30155 0.33493 0.87913 0.0
C2043 C 0.31861 0.32911 0.89316 0.0
C2044 C 0.33227 0.31472 0.88108 0.0
C2045 C 0.32938 0.30774 0.85538 0.0
C2046 C 0.28433 0.34683 0.89097 0.0
C2047 C 0.35093 0.30811 0.89493 0.0
H2048 H 0.3421 0.39674 0.95713 0.0
H2049 H 0.31025 0.32888 0.97589 0.0
H2050 H 0.35292 0.36983 0.89699 0.0
H2051 H 0.33001 0.38439 0.89786 0.0
H2052 H 0.35447 0.39813 0.91843 0.0
H2053 H 0.29124 0.29523 0.94468 0.0
H2054 H 0.29292 0.29598 0.91289 0.0
H2055 H 0.31475 0.28851 0.93042 0.0
H2056 H 0.28865 0.33663 0.84345 0.0
H2057 H 0.33868 0.29549 0.84648 0.0
H2058 H 0.29144 0.36664 0.89818 0.0
H2059 H 0.27879 0.33824 0.90647 0.0
H2060 H 0.26971 0.34516 0.8779 0.0
H2061 H 0.36523 0.3241 0.8986 0.0
H2062 H 0.35615 0.29213 0.88438 0.0
H2063 H 0.34648 0.30392 0.91272 0.0
C2064 C 0.98918 0.05586 0.34474 0.0
C2065 C 0.97498 0.07259 0.34558 0.0
C2066 C 1.00058 0.05121 0.36616 0.0
C2067 C 0.99914 0.06406 0.39026 0.0
C2068 C 0.98559 0.08176 0.39111 0.0
C2069 C 0.97361 0.0853 0.36948 0.0
C2070 C 0.01403 0.03191 0.36288 0.0
C2071 C 0.98438 0.09794 0.41515 0.0
C2072 C 1.00813 0.03884 0.45119 0.0
C2073 C 0.03056 0.04845 0.46068 0.0
C2074 C 0.99855 0.04266 0.4285 0.0
C2075 C 0.01062 0.05836 0.41426 0.0
C2076 C 0.03333 0.06865 0.42389 0.0
C2077 C 0.04287 0.06335 0.44616 0.0
C2078 C 0.97499 0.02965 0.41976 0.0
C2079 C 0.04787 0.08589 0.411 0.0
H2080 H 0.99107 0.04571 0.32702 0.0
H2081 H 0.96352 0.09879 0.37134 0.0
H2082 H 0.03129 0.04007 0.37081 0.0
H2083 H 1.00731 0.01717 0.37277 0.0
H2084 H 0.01409 0.02354 0.34343 0.0
H2085 H 0.97373 0.11112 0.41344 0.0
H2086 H 0.97797 0.08658 0.42838 0.0
H2087 H 1.00123 0.10847 0.42279 0.0
H2088 H 0.99763 0.02809 0.46185 0.0
H2089 H 0.0599 0.07202 0.45278 0.0
H2090 H 0.97377 0.02012 0.40049 0.0
H2091 H 0.96447 0.04324 0.4206 0.0
H2092 H 0.96836 0.01593 0.43083 0.0
H2093 H 0.05559 0.07502 0.39697 0.0
H2094 H 0.06135 0.09871 0.42383 0.0
H2095 H 0.03834 0.09682 0.40185 0.0
C2096 C 0.27713 0.67218 0.61292 0.0
C2097 C 0.29255 0.67594 0.59627 0.0
C2098 C 0.27981 0.6886 0.63514 0.0
C2099 C 0.29755 0.70949 0.63947 0.0
C2100 C 0.31385 0.71227 0.62324 0.0
C2101 C 0.31147 0.6948 0.60202 0.0
C2102 C 0.26295 0.68456 0.65302 0.0
C2103 C 0.3328 0.73461 0.62737 0.0
C2104 C 0.29123 0.76673 0.68139 0.0
C2105 C 0.30474 0.76577 0.70171 0.0
C2106 C 0.28857 0.74823 0.66059 0.0
C2107 C 0.29941 0.72864 0.66096 0.0
C2108 C 0.31329 0.728 0.68138 0.0
C2109 C 0.31598 0.74683 0.70138 0.0
C2110 C 0.27383 0.74924 0.63861 0.0
C2111 C 0.32435 0.70682 0.68267 0.0
H2112 H 0.26237 0.65758 0.60789 0.0
H2113 H 0.32305 0.69748 0.58858 0.0
H2114 H 0.27091 0.6895 0.67202 0.0
H2115 H 0.25112 0.69645 0.65137 0.0
H2116 H 0.25351 0.66514 0.64949 0.0
H2117 H 0.34327 0.73445 0.61208 0.0
H2118 H 0.32636 0.75162 0.62966 0.0
H2119 H 0.34334 0.73551 0.64431 0.0
H2120 H 0.28216 0.78117 0.68215 0.0
H2121 H 0.32575 0.7456 0.71736 0.0
H2122 H 0.25912 0.73379 0.63576 0.0
H2123 H 0.28264 0.7471 0.62206 0.0
H2124 H 0.26819 0.76676 0.64064 0.0
H2125 H 0.31157 0.6899 0.68248 0.0
H2126 H 0.33601 0.7103 0.69934 0.0
H2127 H 0.33356 0.70314 0.66668 0.0
C2128 C 0.68945 0.06937 0.81874 0.0
C2129 C 0.68569 0.04585 0.80441 0.0
C2130 C 0.67473 0.07505 0.83542 0.0
C2131 C 0.65624 0.05656 0.83757 0.0
C2132 C 0.65318 0.03238 0.82402 0.0
C2133 C 0.66807 0.02733 0.80745 0.0
C2134 C 0.67814 0.10109 0.84955 0.0
C2135 C 0.63335 0.01245 0.82566 0.0
C2136 C 0.62797 0.06833 0.89386 0.0
C2137 C 0.60955 0.07607 0.88505 0.0
C2138 C 0.64288 0.06105 0.87829 0.0
C2139 C 0.6398 0.06264 0.85364 0.0
C2140 C 0.62136 0.07049 0.84452 0.0
C2141 C 0.60628 0.07696 0.86041 0.0
C2142 C 0.66204 0.0519 0.88823 0.0
C2143 C 0.61787 0.07288 0.81828 0.0
H2144 H 0.70269 0.08377 0.81537 0.0
H2145 H 0.66493 1.00946 0.79539 0.0
H2146 H 0.66323 0.10837 0.84642 0.0
H2147 H 0.68073 0.10131 0.86931 0.0
H2148 H 0.69254 0.11363 0.84442 0.0
H2149 H 0.63426 0.99427 0.81496 0.0
H2150 H 0.6318 0.01083 0.8449 0.0
H2151 H 0.61813 0.01733 0.81869 0.0
H2152 H 0.63095 0.06822 0.91305 0.0
H2153 H 0.59198 0.08275 0.85357 0.0
H2154 H 0.67776 0.0649 0.88714 0.0
H2155 H 0.66266 0.03383 0.87711 0.0
H2156 H 0.66098 0.04987 0.90745 0.0
H2157 H 0.62908 0.08998 0.81564 0.0
H2158 H 0.60066 0.07395 0.81309 0.0
H2159 H 0.62179 0.05726 0.80573 0.0
C2160 C 0.32905 0.37372 0.11807 0.0
C2161 C 0.31598 0.3619 0.09631 0.0
C2162 C 0.32509 0.36552 0.13998 0.0
C2163 C 0.30739 0.34529 0.14024 0.0
C2164 C 0.2934 0.33421 0.11848 0.0
C2165 C 0.29808 0.3424 0.09673 0.0
C2166 C 0.34066 0.3776 0.16257 0.0
C2167 C 0.27383 0.3133 0.11809 0.0
C2168 C 0.31341 0.30607 0.18774 0.0
C2169 C 0.30331 0.31713 0.20696 0.0
C2170 C 0.31477 0.315 0.16596 0.0
C2171 C 0.30466 0.33459 0.16274 0.0
C2172 C 0.29305 0.34459 0.18155 0.0
C2173 C 0.29309 0.33624 0.20372 0.0
C2174 C 0.32796 0.30423 0.1469 0.0
C2175 C 0.28108 0.36461 0.17869 0.0
H2176 H 0.3431 0.38854 0.11767 0.0
H2177 H 0.28804 0.33316 0.07985 0.0
H2178 H 0.33133 0.38363 0.17781 0.0
H2179 H 0.34951 0.36408 0.16818 0.0
H2180 H 0.35302 0.39377 0.15971 0.0
H2181 H 0.26402 0.30735 0.1 0.0
H2182 H 0.27942 0.29729 0.12295 0.0
H2183 H 0.26296 0.31898 0.13191 0.0
H2184 H 0.3213 0.29124 0.19025 0.0
H2185 H 0.28509 0.34462 0.21853 0.0
H2186 H 0.34188 0.31882 0.14395 0.0
H2187 H 0.31756 0.29711 0.12929 0.0
H2188 H 0.33474 0.28906 0.15217 0.0
H2189 H 0.29302 0.38265 0.18277 0.0
H2190 H 0.26817 0.36536 0.1914 0.0
H2191 H 0.27324 0.36186 0.15982 0.0
C2192 C 0.27894 0.98919 1.0002 0.0
C2193 C 0.28264 0.97193 0.01383 0.0
C2194 C 0.26082 0.99975 1.00349 0.0
C2195 C 0.24729 0.99369 0.02176 0.0
C2196 C 0.25064 0.97543 0.03489 0.0
C2197 C 0.26817 0.96426 0.03024 0.0
C2198 C 0.25673 0.01804 0.98822 0.0
C2199 C 0.23644 0.96834 0.05449 0.0
C2200 C 0.22539 0.04446 0.05692 0.0
C2201 C 0.2027 0.03564 0.05079 0.0
C2202 C 0.24017 0.03101 0.0472 0.0
C2203 C 0.23202 1.00902 0.02988 0.0
C2204 C 0.20931 1.00067 0.02236 0.0
C2205 C 0.19478 0.0137 0.0335 0.0
C2206 C 0.26436 0.03968 0.05644 0.0
C2207 C 0.20041 0.97781 1.00304 0.0
H2208 H 0.29013 0.9943 0.98702 0.0
H2209 H 0.27121 0.95037 0.04022 0.0
H2210 H 0.23885 0.01518 0.98257 0.0
H2211 H 0.26243 0.03698 0.99906 0.0
H2212 H 0.26567 0.01663 0.97171 0.0
H2213 H 0.24438 0.95822 0.06637 0.0
H2214 H 0.2328 0.98474 0.06611 0.0
H2215 H 0.22053 0.95617 0.04589 0.0
H2216 H 0.23164 0.0616 0.06977 0.0
H2217 H 0.17724 1.00627 0.02898 0.0
H2218 H 0.27429 0.0432 0.04124 0.0
H2219 H 0.27007 0.02515 0.06429 0.0
H2220 H 0.26776 0.05676 0.07061 0.0
H2221 H 0.20921 0.97898 0.98656 0.0
H2222 H 0.18245 0.97504 0.99781 0.0
H2223 H 0.20334 0.96135 0.00963 0.0
C2224 C 0.72266 0.65979 0.02077 0.0
C2225 C 0.73271 0.66028 0.99917 0.0
C2226 C 0.70242 0.64328 0.02143 0.0
C2227 C 0.69165 0.62689 0.99985 0.0
C2228 C 0.70204 0.62705 0.97804 0.0
C2229 C 0.72242 0.64368 0.97798 0.0
C2230 C 0.69239 0.64367 0.04522 0.0
C2231 C 0.69119 0.61036 0.95451 0.0
C2232 C 0.64563 0.57162 0.00524 0.0
C2233 C 0.62653 0.58083 1.00274 0.0
C2234 C 0.66682 0.58623 1.00422 0.0
C2235 C 0.66912 0.61054 0.99996 0.0
C2236 C 0.64977 0.61958 0.99663 0.0
C2237 C 0.6289 0.60486 0.99849 0.0
C2238 C 0.68685 0.57592 0.00852 0.0
C2239 C 0.65109 0.6451 0.99164 0.0
H2240 H 0.73052 0.67269 0.03717 0.0
H2241 H 0.73001 0.64418 0.96118 0.0
H2242 H 0.67601 0.64829 0.04349 0.0
H2243 H 0.6898 0.62515 0.0499 0.0
H2244 H 0.70291 0.65721 0.06042 0.0
H2245 H 0.70221 0.61088 0.93974 0.0
H2246 H 0.68611 0.5911 0.95706 0.0
H2247 H 0.67604 0.61608 0.94868 0.0
H2248 H 0.64412 0.55333 0.00909 0.0
H2249 H 0.61433 0.61226 0.99667 0.0
H2250 H 0.69741 0.58734 0.0249 0.0
H2251 H 0.69686 0.57663 0.99292 0.0
H2252 H 0.68239 0.55661 0.01115 0.0
H2253 H 0.65845 0.65892 0.00825 0.0
H2254 H 0.6346 0.64814 0.98616 0.0
H2255 H 0.66188 0.64839 0.97705 0.0
C2256 C 0.71647 0.43367 0.24951 0.0
C2257 C 0.71656 0.45245 0.27018 0.0
C2258 C 0.7289 0.41446 0.2493 0.0
C2259 C 0.74242 0.41251 0.27035 0.0
C2260 C 0.74239 0.43136 0.29125 0.0
C2261 C 0.73009 0.45054 0.29084 0.0
C2262 C 0.72707 0.3957 0.2262 0.0
C2263 C 0.75569 0.43139 0.31458 0.0
C2264 C 0.75678 0.34924 0.28137 0.0
C2265 C 0.77865 0.34885 0.27498 0.0
C2266 C 0.7452 0.36853 0.27915 0.0
C2267 C 0.75511 0.39044 0.27116 0.0
C2268 C 0.77711 0.39048 0.26428 0.0
C2269 C 0.78797 0.36997 0.26541 0.0
C2270 C 0.72163 0.365 0.28512 0.0
C2271 C 0.78938 0.4125 0.25544 0.0
H2272 H 0.7066 0.43395 0.23304 0.0
H2273 H 0.73103 0.46424 0.30724 0.0
H2274 H 0.74348 0.39218 0.22234 0.0
H2275 H 0.71646 0.37806 0.22837 0.0
H2276 H 0.71976 0.40158 0.21032 0.0
H2277 H 0.75393 0.44631 0.32959 0.0
H2278 H 0.75046 0.41349 0.32029 0.0
H2279 H 0.77336 0.43366 0.31156 0.0
H2280 H 0.74791 0.3336 0.288 0.0
H2281 H 0.80374 0.37072 0.25855 0.0
H2282 H 0.71084 0.36645 0.26921 0.0
H2283 H 0.72015 0.37972 0.30042 0.0
H2284 H 0.71544 0.34688 0.29009 0.0
H2285 H 0.78108 0.41357 0.23774 0.0
H2286 H 0.80676 0.41171 0.25304 0.0
H2287 H 0.78911 0.42962 0.26848 0.0
C2288 C 0.9163 0.46705 0.53089 0.0
C2289 C 0.90052 0.47177 0.51487 0.0
C2290 C 0.9381 0.47956 0.5325 0.0
C2291 C 0.94383 0.49696 0.51749 0.0
C2292 C 0.9275 0.50388 0.50342 0.0
C2293 C 0.90565 0.49101 0.50225 0.0
C2294 C 0.95519 0.47211 0.54814 0.0
C2295 C 0.93331 0.52279 0.48769 0.0
C2296 C 1.00319 0.52607 0.53227 0.0
C2297 C 0.0124 0.50988 0.5164 0.0
C2298 C 0.98055 0.52386 0.53104 0.0
C2299 C 0.96702 0.50446 0.51396 0.0
C2300 C 0.97624 0.48833 0.49744 0.0
C2301 C 0.99903 0.49075 0.49949 0.0
C2302 C 0.97109 0.54081 0.54932 0.0
C2303 C 0.96196 0.46745 0.47891 0.0
H2304 H 0.91182 0.45228 0.5408 0.0
H2305 H 0.89307 0.49447 0.48995 0.0
H2306 H 0.96551 0.46232 0.53634 0.0
H2307 H 0.96629 0.48854 0.55975 0.0
H2308 H 0.94759 0.45976 0.56007 0.0
H2309 H 0.91892 0.53043 0.48305 0.0
H2310 H 0.94714 0.5381 0.49675 0.0
H2311 H 0.93861 0.51395 0.47049 0.0
H2312 H 0.0136 0.53964 0.5466 0.0
H2313 H 1.00635 0.47767 0.48811 0.0
H2314 H 0.96267 0.53038 0.56231 0.0
H2315 H 0.95859 0.54832 0.54 0.0
H2316 H 0.98398 0.55631 0.55994 0.0
H2317 H 0.95343 0.4531 0.48829 0.0
H2318 H 0.97174 0.45887 0.46539 0.0
H2319 H 0.94914 0.47408 0.46908 0.0
C2320 C 0.39792 0.11579 0.3175 0.0
C2321 C 0.39838 0.09383 0.302 0.0
C2322 C 0.38629 0.13186 0.30956 0.0
C2323 C 0.37578 0.12563 0.28556 0.0
C2324 C 0.37729 0.10387 0.26955 0.0
C2325 C 0.38841 0.08791 0.27823 0.0
C2326 C 0.38433 0.15464 0.32707 0.0
C2327 C 0.36675 0.09709 0.24354 0.0
C2328 C 0.32471 0.14229 0.26379 0.0
C2329 C 0.33343 0.1587 0.24927 0.0
C2330 C 0.33874 0.13318 0.27814 0.0
C2331 C 0.36172 0.1406 0.27727 0.0
C2332 C 0.37057 0.15866 0.26405 0.0
C2333 C 0.35611 0.16775 0.25016 0.0
C2334 C 0.32899 0.11379 0.29213 0.0
C2335 C 0.3951 0.16649 0.26276 0.0
H2336 H 0.4059 0.11985 0.33596 0.0
H2337 H 0.38942 0.07084 0.26647 0.0
H2338 H 0.38677 0.17082 0.31819 0.0
H2339 H 0.36749 0.15186 0.33298 0.0
H2340 H 0.39641 0.15876 0.34349 0.0
H2341 H 0.3705 0.07995 0.23342 0.0
H2342 H 0.34859 0.0944 0.24319 0.0
H2343 H 0.37263 0.11219 0.23378 0.0
H2344 H 0.30698 0.13586 0.26308 0.0
H2345 H 0.36245 0.18081 0.23896 0.0
H2346 H 0.33811 0.11717 0.31046 0.0
H2347 H 0.33043 0.09545 0.28234 0.0
H2348 H 0.31128 0.11317 0.29415 0.0
H2349 H 0.40406 0.17153 0.28128 0.0
H2350 H 0.39931 0.18231 0.25348 0.0
H2351 H 0.40113 0.15089 0.25262 0.0
C2352 C 0.35948 0.15951 0.53747 0.0
C2353 C 0.35425 0.16601 0.51537 0.0
C2354 C 0.37724 0.14837 0.5405 0.0
C2355 C 0.38947 0.14288 0.52062 0.0
C2356 C 0.38436 0.14971 0.49827 0.0
C2357 C 0.3669 0.16158 0.49601 0.0
C2358 C 0.38256 0.14193 0.56481 0.0
C2359 C 0.39654 0.14339 0.47646 0.0
C2360 C 0.44354 0.12608 0.53696 0.0
C2361 C 0.43654 0.10059 0.5346 0.0
C2362 C 0.42859 0.14018 0.53135 0.0
C2363 C 0.4064 0.12828 0.52291 0.0
C2364 C 0.39979 0.10232 0.51897 0.0
C2365 C 0.41494 0.0888 0.52512 0.0
C2366 C 0.43616 0.16783 0.53582 0.0
C2367 C 0.3764 0.08888 0.50965 0.0
H2368 H 0.34959 0.16308 0.55235 0.0
H2369 H 0.36252 0.16644 0.47883 0.0
H2370 H 0.3801 0.12169 0.5628 0.0
H2371 H 0.40013 0.15011 0.57155 0.0
H2372 H 0.37213 0.14854 0.57871 0.0
H2373 H 0.3923 0.1524 0.46136 0.0
H2374 H 0.41462 0.14884 0.48151 0.0
H2375 H 0.39227 0.12317 0.46975 0.0
H2376 H 0.46033 0.13506 0.54439 0.0
H2377 H 0.40974 0.06902 0.52327 0.0
H2378 H 0.42777 0.17621 0.5509 0.0
H2379 H 0.43157 0.17483 0.51946 0.0
H2380 H 0.45427 0.17407 0.54067 0.0
H2381 H 0.36539 0.09246 0.52399 0.0
H2382 H 0.37477 0.06869 0.50448 0.0
H2383 H 0.37056 0.09562 0.49361 0.0
C2384 C 0.70416 0.61694 0.28287 0.0
C2385 C 0.71197 0.59522 0.28341 0.0
C2386 C 0.71825 0.64035 0.28297 0.0
C2387 C 0.74155 0.64341 0.28378 0.0
C2388 C 0.74975 0.62168 0.28437 0.0
C2389 C 0.73514 0.5982 0.28407 0.0
C2390 C 0.7079 0.66197 0.28185 0.0
C2391 C 0.77423 0.62331 0.28568 0.0
C2392 C 0.77552 0.70091 0.26174 0.0
C2393 C 0.7833 0.71856 0.28336 0.0
C2394 C 0.76259 0.67677 0.26166 0.0
C2395 C 0.75688 0.66909 0.28376 0.0
C2396 C 0.76496 0.68683 0.30568 0.0
C2397 C 0.77773 0.71095 0.30521 0.0
C2398 C 0.75454 0.65954 0.23759 0.0
C2399 C 0.75959 0.68059 0.3299 0.0
H2400 H 0.68656 0.61573 0.28214 0.0
H2401 H 0.74198 0.58222 0.28454 0.0
H2402 H 0.71539 0.67747 0.29706 0.0
H2403 H 0.71114 0.66849 0.26466 0.0
H2404 H 0.6898 0.65731 0.28271 0.0
H2405 H 0.77829 0.60499 0.28431 0.0
H2406 H 0.78131 0.63201 0.27088 0.0
H2407 H 0.78227 0.63521 0.30318 0.0
H2408 H 0.77932 0.70612 0.24459 0.0
H2409 H 0.78309 0.72411 0.32214 0.0
H2410 H 0.73625 0.65489 0.23518 0.0
H2411 H 0.76 0.64209 0.23728 0.0
H2412 H 0.76062 0.6676 0.22198 0.0
H2413 H 0.74185 0.67981 0.33173 0.0
H2414 H 0.76944 0.69442 0.34536 0.0
H2415 H 0.76259 0.66221 0.33113 0.0
C2416 C 0.89818 0.44895 0.81452 0.0
C2417 C 0.89635 0.47143 0.80896 0.0
C2418 C 0.88125 0.4283 0.80646 0.0
C2419 C 0.86243 0.43038 0.79203 0.0
C2420 C 0.86009 0.45325 0.78722 0.0
C2421 C 0.87703 0.47372 0.79619 0.0
C2422 C 0.88438 0.40407 0.81209 0.0
C2423 C 0.84031 0.45626 0.77205 0.0
C2424 C 0.85004 0.36791 0.75975 0.0
C2425 C 0.83599 0.35778 0.77555 0.0
C2426 C 0.8546 0.39311 0.76073 0.0
C2427 C 0.847 0.40788 0.77984 0.0
C2428 C 0.82971 0.39753 0.79237 0.0
C2429 C 0.82339 0.37203 0.78864 0.0
C2430 C 0.87075 0.40401 0.7446 0.0
C2431 C 0.82089 0.41275 0.81266 0.0
H2432 H 0.91301 0.44735 0.82468 0.0
H2433 H 0.87548 0.49131 0.79212 0.0
H2434 H 0.86866 0.39284 0.81579 0.0
H2435 H 0.89034 0.39358 0.79621 0.0
H2436 H 0.89674 0.40673 0.82804 0.0
H2437 H 0.8449 0.47162 0.76222 0.0
H2438 H 0.8325 0.43933 0.75856 0.0
H2439 H 0.82786 0.46091 0.78426 0.0
H2440 H 0.8584 0.3566 0.74766 0.0
H2441 H 0.81029 0.36352 0.79776 0.0
H2442 H 0.88779 0.40691 0.75338 0.0
H2443 H 0.86795 0.42202 0.74163 0.0
H2444 H 0.86934 0.39139 0.72671 0.0
H2445 H 0.83233 0.41615 0.8295 0.0
H2446 H 0.80437 0.40313 0.8163 0.0
H2447 H 0.8198 0.43082 0.80844 0.0
C2448 C 0.09726 0.87708 0.06482 0.0
C2449 C 0.10019 0.87871 0.09025 0.0
C2450 C 0.09276 0.89692 0.05427 0.0
C2451 C 0.09124 0.91954 0.0692 0.0
C2452 C 0.09426 0.92126 0.09485 0.0
C2453 C 0.09863 0.90116 0.1049 0.0
C2454 C 0.08938 0.89356 0.02697 0.0
C2455 C 0.09214 0.94427 0.11187 0.0
C2456 C 0.09728 0.98201 0.04733 0.0
C2457 C 0.0753 0.98411 0.04251 0.0
C2458 C 0.10265 0.96086 0.05458 0.0
C2459 C 0.08579 0.94104 0.05832 0.0
C2460 C 0.06362 0.94261 0.05263 0.0
C2461 C 0.05888 0.96344 0.04428 0.0
C2462 C 0.12657 0.96008 0.05891 0.0
C2463 C 0.04449 0.92251 0.05569 0.0
H2464 H 0.09806 0.86002 0.05301 0.0
H2465 H 0.10055 0.90298 0.12449 0.0
H2466 H 0.0729 0.8964 0.02131 0.0
H2467 H 0.10183 0.90758 0.02075 0.0
H2468 H 0.09069 0.87497 0.01767 0.0
H2469 H 0.09548 0.9433 0.13129 0.0
H2470 H 0.10375 0.96052 0.10805 0.0
H2471 H 0.07521 0.9472 0.1088 0.0
H2472 H 0.1105 0.99735 0.04609 0.0
H2473 H 0.04204 0.96352 0.03994 0.0
H2474 H 0.12946 0.9427 0.0484 0.0
H2475 H 0.13086 0.96034 0.07844 0.0
H2476 H 0.13777 0.97584 0.05363 0.0
H2477 H 0.04073 0.90819 0.03881 0.0
H2478 H 0.02943 0.9297 0.05882 0.0
H2479 H 0.04821 0.91366 0.07106 0.0
C2480 C 0.96391 0.29259 0.88789 0.0
C2481 C 0.96352 0.27195 0.89869 0.0
C2482 C 0.94566 0.29457 0.87239 0.0
C2483 C 0.92625 0.27534 0.86695 0.0
C2484 C 0.92613 0.25409 0.8772 0.0
C2485 C 0.94442 0.25284 0.89309 0.0
C2486 C 0.94687 0.31781 0.86254 0.0
C2487 C 0.90648 0.23261 0.87154 0.0
C2488 C 0.87013 0.29014 0.84812 0.0
C2489 C 0.86716 0.28253 0.82256 0.0
C2490 C 0.88893 0.28783 0.86251 0.0
C2491 C 0.90586 0.2778 0.8515 0.0
C2492 C 0.90299 0.27001 0.82576 0.0
C2493 C 0.8839 0.27233 0.81186 0.0
C2494 C 0.89066 0.29621 0.88973 0.0
C2495 C 0.92028 0.25939 0.8127 0.0
H2496 H 0.97823 0.30776 0.89242 0.0
H2497 H 0.94365 0.23691 0.90143 0.0
H2498 H 0.94317 0.31332 0.84246 0.0
H2499 H 0.93424 0.32741 0.87 0.0
H2500 H 0.96333 0.33058 0.86727 0.0
H2501 H 0.90825 0.21793 0.88173 0.0
H2502 H 0.89122 0.23883 0.87596 0.0
H2503 H 0.9044 0.22465 0.85177 0.0
H2504 H 0.8577 0.29811 0.8571 0.0
H2505 H 0.88226 0.26614 0.79247 0.0
H2506 H 0.90607 0.31046 0.89603 0.0
H2507 H 0.89153 0.28052 0.89876 0.0
H2508 H 0.87644 0.30387 0.8957 0.0
H2509 H 0.93561 0.27389 0.81434 0.0
H2510 H 0.91487 0.25199 0.79307 0.0
H2511 H 0.92443 0.24445 0.82116 0.0
C2512 C 0.60334 0.23409 0.55887 0.0
C2513 C 0.59586 0.24583 0.5801 0.0
C2514 C 0.59928 0.20815 0.55183 0.0
C2515 C 0.58714 0.19286 0.56604 0.0
C2516 C 0.57891 0.20447 0.58708 0.0
C2517 C 0.5834 0.2306 0.59387 0.0
C2518 C 0.60832 0.19712 0.52917 0.0
C2519 C 0.56556 0.18923 0.60271 0.0
C2520 C 0.56381 0.12401 0.53722 0.0
C2521 C 0.57815 0.11223 0.54856 0.0
C2522 C 0.56625 0.14995 0.54285 0.0
C2523 C 0.58406 0.16495 0.55955 0.0
C2524 C 0.59901 0.15308 0.57028 0.0
C2525 C 0.59527 0.12707 0.56553 0.0
C2526 C 0.54915 0.16115 0.53169 0.0
C2527 C 0.61895 0.16792 0.58705 0.0
H2528 H 0.61275 0.24525 0.54768 0.0
H2529 H 0.57736 0.23906 0.61019 0.0
H2530 H 0.61747 0.18319 0.53306 0.0
H2531 H 0.59451 0.18761 0.51504 0.0
H2532 H 0.61948 0.21124 0.52159 0.0
H2533 H 0.55833 0.20063 0.61684 0.0
H2534 H 0.55205 0.17508 0.59128 0.0
H2535 H 0.57622 0.17943 0.61188 0.0
H2536 H 0.54979 0.11276 0.52502 0.0
H2537 H 0.60549 0.11828 0.57567 0.0
H2538 H 0.55688 0.17364 0.52001 0.0
H2539 H 0.54218 0.17236 0.54621 0.0
H2540 H 0.53544 0.14699 0.52052 0.0
H2541 H 0.62938 0.18054 0.57722 0.0
H2542 H 0.62909 0.15611 0.59388 0.0
H2543 H 0.61381 0.17943 0.60281 0.0
C2544 C 0.60312 0.79679 0.41158 0.0
C2545 C 0.58609 0.77556 0.40509 0.0
C2546 C 0.62273 0.79909 0.40002 0.0
C2547 C 0.62587 0.77933 0.38212 0.0
C2548 C 0.60943 0.7571 0.37709 0.0
C2549 C 0.58955 0.75571 0.38809 0.0
C2550 C 0.63946 0.82328 0.40589 0.0
C2551 C 0.61273 0.73489 0.3597 0.0
C2552 C 0.65767 0.79593 0.32933 0.0
C2553 C 0.67953 0.79563 0.33694 0.0
C2554 C 0.64036 0.79052 0.34373 0.0
C2555 C 0.64441 0.78326 0.36613 0.0
C2556 C 0.66609 0.78092 0.37317 0.0
C2557 C 0.68344 0.78744 0.35869 0.0
C2558 C 0.61783 0.79375 0.33536 0.0
C2559 C 0.67134 0.77244 0.39637 0.0
H2560 H 0.60059 0.8122 0.42473 0.0
H2561 H 0.57664 0.73906 0.38335 0.0
H2562 H 0.65605 0.82026 0.41074 0.0
H2563 H 0.6404 0.83186 0.3896 0.0
H2564 H 0.63529 0.83635 0.42117 0.0
H2565 H 0.59927 0.71843 0.3591 0.0
H2566 H 0.61354 0.73879 0.34109 0.0
H2567 H 0.62868 0.73061 0.36523 0.0
H2568 H 0.65416 0.8014 0.31224 0.0
H2569 H 0.70013 0.78698 0.36489 0.0
H2570 H 0.61247 0.80709 0.34942 0.0
H2571 H 0.60555 0.77604 0.33284 0.0
H2572 H 0.61757 0.80045 0.31796 0.0
H2573 H 0.6761 0.78863 0.41153 0.0
H2574 H 0.68545 0.76329 0.39495 0.0
H2575 H 0.65696 0.75956 0.40104 0.0
C2576 C 0.12835 0.26915 0.44198 0.0
C2577 C 0.11466 0.27301 0.42311 0.0
C2578 C 0.12129 0.24989 0.45403 0.0
C2579 C 0.09999 0.23466 0.44701 0.0
C2580 C 0.08711 0.23699 0.42625 0.0
C2581 C 0.09483 0.25616 0.41425 0.0
C2582 C 0.13563 0.24743 0.47572 0.0
C2583 C 0.06405 0.22151 0.41872 0.0
C2584 C 0.07959 0.17942 0.47472 0.0
C2585 C 0.0696 0.18971 0.49465 0.0
C2586 C 0.09037 0.19405 0.45959 0.0
C2587 C 0.08988 0.21915 0.46349 0.0
C2588 C 0.07943 0.22962 0.48306 0.0
C2589 C 0.07002 0.21492 0.49883 0.0
C2590 C 0.10217 0.1827 0.43938 0.0
C2591 C 0.07814 0.25636 0.48743 0.0
H2592 H 0.14358 0.28259 0.4488 0.0
H2593 H 0.08415 0.25974 0.39995 0.0
H2594 H 0.12775 0.25195 0.49261 0.0
H2595 H 0.13744 0.22817 0.47396 0.0
H2596 H 0.15227 0.2598 0.47777 0.0
H2597 H 0.05763 0.22313 0.40032 0.0
H2598 H 0.06346 0.20187 0.41885 0.0
H2599 H 0.05288 0.22769 0.43194 0.0
H2600 H 0.07888 0.15987 0.4706 0.0
H2601 H 0.06298 0.22329 0.51442 0.0
H2602 H 0.11944 0.19335 0.44072 0.0
H2603 H 0.09407 0.18342 0.42146 0.0
H2604 H 0.10237 0.16325 0.43987 0.0
H2605 H 0.09482 0.26823 0.49339 0.0
H2606 H 0.06712 0.26073 0.50158 0.0
H2607 H 0.07199 0.26119 0.47038 0.0
C2608 C 0.57379 0.24628 0.18884 0.0
C2609 C 0.57475 0.26112 0.17136 0.0
C2610 C 0.5931 0.24367 0.20119 0.0
C2611 C 0.61376 0.25694 0.19651 0.0
C2612 C 0.61478 0.27215 0.17899 0.0
C2613 C 0.5952 0.27369 0.16623 0.0
C2614 C 0.59139 0.22659 0.2191 0.0
C2615 C 0.63651 0.28674 0.17372 0.0
C2616 C 0.65861 0.26677 0.24821 0.0
C2617 C 0.66988 0.2486 0.23962 0.0
C2618 C 0.64092 0.27048 0.23378 0.0
C2619 C 0.63416 0.25525 0.21052 0.0
C2620 C 0.64597 0.23731 0.20153 0.0
C2621 C 0.6639 0.23437 0.21619 0.0
C2622 C 0.62915 0.29031 0.24363 0.0
C2623 C 0.63902 0.22032 0.17708 0.0
H2624 H 0.55792 0.23618 0.1924 0.0
H2625 H 0.59582 0.28503 0.15255 0.0
H2626 H 0.60178 0.21308 0.21445 0.0
H2627 H 0.59764 0.23725 0.23767 0.0
H2628 H 0.57417 0.21638 0.21941 0.0
H2629 H 0.63429 0.29952 0.16139 0.0
H2630 H 0.64621 0.29754 0.19089 0.0
H2631 H 0.64635 0.274 0.16508 0.0
H2632 H 0.66362 0.27798 0.26625 0.0
H2633 H 0.67284 0.22043 0.20966 0.0
H2634 H 0.61226 0.28175 0.24714 0.0
H2635 H 0.62751 0.302 0.23004 0.0
H2636 H 0.63789 0.30223 0.26083 0.0
H2637 H 0.62438 0.20591 0.1786 0.0
H2638 H 0.65229 0.21113 0.17075 0.0
H2639 H 0.63426 0.23033 0.16309 0.0
C2640 C 0.62846 0.90067 0.94322 0.0
C2641 C 0.62853 0.89733 0.91794 0.0
C2642 C 0.62156 0.9205 0.956 0.0
C2643 C 0.61541 0.93763 0.94313 0.0
C2644 C 0.61716 0.93553 0.91794 0.0
C2645 C 0.62358 0.91503 0.90541 0.0
C2646 C 0.62006 0.9226 0.98306 0.0
C2647 C 0.6117 0.95454 0.90432 0.0
C2648 C 0.57488 0.97136 0.97097 0.0
C2649 C 0.5892 0.99193 0.98525 0.0
C2650 C 0.5833 0.95342 0.95675 0.0
C2651 C 0.6064 0.95719 0.95621 0.0
C2652 C 0.62085 0.97822 0.97047 0.0
C2653 C 0.61194 0.995 0.98556 0.0
C2654 C 0.56763 0.93005 0.94332 0.0
C2655 C 0.64562 0.98335 0.9703 0.0
H2656 H 0.63277 0.88713 0.95291 0.0
H2657 H 0.62388 0.91239 0.88585 0.0
H2658 H 0.63131 0.93982 0.9931 0.0
H2659 H 0.60305 0.92351 0.98728 0.0
H2660 H 0.62449 0.90688 0.98994 0.0
H2661 H 0.61497 0.95071 0.88495 0.0
H2662 H 0.59407 0.95511 0.905 0.0
H2663 H 0.62159 0.97305 0.91317 0.0
H2664 H 0.55725 0.9689 0.97159 0.0
H2665 H 0.62275 0.01068 0.99734 0.0
H2666 H 0.57157 0.91402 0.95002 0.0
H2667 H 0.56958 0.92723 0.9236 0.0
H2668 H 0.55011 0.93026 0.94573 0.0
H2669 H 0.65368 0.98807 0.98927 0.0
H2670 H 0.65095 0.99965 0.96195 0.0
H2671 H 0.65175 0.96793 0.9601 0.0
C2672 C 0.95728 0.7621 0.72554 0.0
C2673 C 0.95476 0.75683 0.70007 0.0
C2674 C 0.93899 0.76369 0.73853 0.0
C2675 C 0.91793 0.75964 0.7256 0.0
C2676 C 0.91513 0.752 0.69996 0.0
C2677 C 0.93366 0.75086 0.6875 0.0
C2678 C 0.9424 0.77162 0.76585 0.0
C2679 C 0.89291 0.74742 0.68543 0.0
C2680 C 0.86406 0.75731 0.75337 0.0
C2681 C 0.86008 0.78021 0.75072 0.0
C2682 C 0.88352 0.75053 0.7464 0.0
C2683 C 0.89963 0.76757 0.73787 0.0
C2684 C 0.89644 0.7914 0.73721 0.0
C2685 C 0.87629 0.79692 0.74262 0.0
C2686 C 0.88601 0.72459 0.74606 0.0
C2687 C 0.91357 0.81036 0.72879 0.0
H2688 H 0.97365 0.76656 0.73523 0.0
H2689 H 0.93171 0.74639 0.66777 0.0
H2690 H 0.93953 0.79043 0.77111 0.0
H2691 H 0.93036 0.75925 0.77437 0.0
H2692 H 0.95934 0.77167 0.77333 0.0
H2693 H 0.89293 0.73756 0.66646 0.0
H2694 H 0.87984 0.73655 0.69411 0.0
H2695 H 0.88855 0.7653 0.6847 0.0
H2696 H 0.85111 0.74392 0.75877 0.0
H2697 H 0.87277 0.81351 0.73862 0.0
H2698 H 0.90147 0.72474 0.75702 0.0
H2699 H 0.88707 0.71529 0.72716 0.0
H2700 H 0.87197 0.71366 0.75323 0.0
H2701 H 0.92929 0.81406 0.74065 0.0
H2702 H 0.90841 0.82798 0.72915 0.0
H2703 H 0.91689 0.80338 0.70996 0.0
C2704 C 0.14004 0.99664 0.84499 0.0
C2705 C 0.15632 0.01625 0.84006 0.0
C2706 C 0.12877 0.99821 0.86683 0.0
C2707 C 0.1326 0.0204 0.88497 0.0
C2708 C 0.14861 0.04048 0.87969 0.0
C2709 C 0.16024 0.03809 0.85813 0.0
C2710 C 0.11259 0.97565 0.87034 0.0
C2711 C 0.15336 0.06506 0.89683 0.0
C2712 C 0.0876 0.02937 0.93174 0.0
C2713 C 0.09748 0.02755 0.95465 0.0
C2714 C 0.09857 0.02754 0.9097 0.0
C2715 C 0.12024 0.02263 0.90907 0.0
C2716 C 0.12999 0.02007 0.93204 0.0
C2717 C 0.11903 0.02304 0.95402 0.0
C2718 C 0.08685 0.03138 0.88691 0.0
C2719 C 0.15206 0.01325 0.93337 0.0
H2720 H 0.13618 0.97955 0.83172 0.0
H2721 H 0.17227 0.05381 0.85519 0.0
H2722 H 0.11421 0.97333 0.88953 0.0
H2723 H 0.09556 0.97764 0.8659 0.0
H2724 H 0.11489 0.95872 0.85834 0.0
H2725 H 0.16344 0.0798 0.88902 0.0
H2726 H 0.13771 0.07031 0.90142 0.0
H2727 H 0.16242 0.06385 0.91404 0.0
H2728 H 0.07123 0.03306 0.93108 0.0
H2729 H 0.12737 0.0213 0.97091 0.0
H2730 H 0.08204 0.01374 0.87361 0.0
H2731 H 0.09801 0.04463 0.87836 0.0
H2732 H 0.07175 0.03832 0.89056 0.0
H2733 H 0.15055 0.99472 0.92198 0.0
H2734 H 0.1583 0.01301 0.95226 0.0
H2735 H 0.1644 0.02629 0.92591 0.0
C2736 C 0.82948 0.42395 0.58222 0.0
C2737 C 0.82782 0.40652 0.56066 0.0
C2738 C 0.83164 0.41688 0.60482 0.0
C2739 C 0.8339 0.39263 0.6052 0.0
C2740 C 0.83122 0.37495 0.58336 0.0
C2741 C 0.82665 0.38184 0.56164 0.0
C2742 C 0.83226 0.43535 0.62796 0.0
C2743 C 0.83414 0.34888 0.5824 0.0
C2744 C 0.86681 0.36642 0.64507 0.0
C2745 C 0.85 0.3475 0.649 0.0
C2746 C 0.86165 0.38527 0.63446 0.0
C2747 C 0.83922 0.38467 0.62775 0.0
C2748 C 0.8223 0.36773 0.63519 0.0
C2749 C 0.82786 0.34869 0.6449 0.0
C2750 C 0.88016 0.40353 0.62734 0.0
C2751 C 0.79823 0.36729 0.62922 0.0
H2752 H 0.82999 0.44303 0.58149 0.0
H2753 H 0.82428 0.36808 0.54501 0.0
H2754 H 0.82414 0.42639 0.6421 0.0
H2755 H 0.84959 0.44399 0.63524 0.0
H2756 H 0.82402 0.45021 0.62464 0.0
H2757 H 0.83543 0.33938 0.56362 0.0
H2758 H 0.84926 0.34871 0.59377 0.0
H2759 H 0.81982 0.33791 0.58922 0.0
H2760 H 0.88388 0.36605 0.64961 0.0
H2761 H 0.81483 0.33433 0.64872 0.0
H2762 H 0.87662 0.4221 0.63018 0.0
H2763 H 0.8819 0.39784 0.60772 0.0
H2764 H 0.89612 0.40457 0.63789 0.0
H2765 H 0.79563 0.38622 0.63038 0.0
H2766 H 0.78778 0.35796 0.64162 0.0
H2767 H 0.79266 0.35701 0.61035 0.0
C2768 C 0.44965 0.03868 0.39114 0.0
C2769 C 0.45838 0.05343 0.37513 0.0
C2770 C 0.46394 0.03102 0.40673 0.0
C2771 C 0.48689 0.03786 0.4052 0.0
C2772 C 0.49544 0.05148 0.38795 0.0
C2773 C 0.48113 0.06036 0.37421 0.0
C2774 C 0.4547 0.01687 0.42551 0.0
C2775 C 0.51988 0.05851 0.3854 0.0
C2776 C 0.52689 0.0641 0.45889 0.0
C2777 C 0.53813 0.04536 0.4594 0.0
C2778 C 0.50833 0.06035 0.44291 0.0
C2779 C 0.50231 0.03816 0.42553 0.0
C2780 C 0.51457 0.01976 0.42466 0.0
C2781 C 0.53261 0.02359 0.44193 0.0
C2782 C 0.49574 0.08061 0.44414 0.0
C2783 C 0.50845 0.9962 0.40584 0.0
H2784 H 0.43194 0.03275 0.39104 0.0
H2785 H 0.48771 0.07166 0.36149 0.0
H2786 H 0.46455 1.0034 0.42888 0.0
H2787 H 0.45533 0.02994 0.44294 0.0
H2788 H 0.43725 1.00704 0.4199 0.0
H2789 H 0.52309 0.06488 0.3681 0.0
H2790 H 0.52805 0.07367 0.40067 0.0
H2791 H 0.52769 0.04273 0.38603 0.0
H2792 H 0.53171 0.08116 0.47225 0.0
H2793 H 0.54136 1.00907 0.44277 0.0
H2794 H 0.47774 0.07295 0.44297 0.0
H2795 H 0.49896 0.09004 0.42862 0.0
H2796 H 0.50065 0.09465 0.46121 0.0
H2797 H 0.49219 0.98539 0.40885 0.0
H2798 H 0.52078 0.9847 0.40665 0.0
H2799 H 0.50685 1.00024 0.38728 0.0
C2800 C 0.8213 0.74276 0.09168 0.0
C2801 C 0.80051 0.73321 0.07841 0.0
C2802 C 0.82335 0.75187 0.11711 0.0
C2803 C 0.8042 0.75073 0.12974 0.0
C2804 C 0.78325 0.74108 0.11622 0.0
C2805 C 0.78167 0.73282 0.09084 0.0
C2806 C 0.84602 0.76252 0.13047 0.0
C2807 C 0.76238 0.73928 0.12863 0.0
C2808 C 0.80773 0.74274 0.19579 0.0
C2809 C 0.80793 0.76628 0.20915 0.0
C2810 C 0.80715 0.73787 0.17032 0.0
C2811 C 0.80593 0.75673 0.15721 0.0
C2812 C 0.80545 0.78051 0.17043 0.0
C2813 C 0.80696 0.78516 0.19626 0.0
C2814 C 0.80808 0.71237 0.15742 0.0
C2815 C 0.80393 0.80124 0.15742 0.0
H2816 H 0.83592 0.74363 0.0821 0.0
H2817 H 0.76557 0.72575 0.08061 0.0
H2818 H 0.84633 0.78022 0.14285 0.0
H2819 H 0.8503 0.74972 0.14184 0.0
H2820 H 0.85885 0.76565 0.11781 0.0
H2821 H 0.74736 0.73117 0.11567 0.0
H2822 H 0.76272 0.72782 0.14266 0.0
H2823 H 0.76127 0.75788 0.13799 0.0
H2824 H 0.80864 0.728 0.20545 0.0
H2825 H 0.80769 0.80356 0.2063 0.0
H2826 H 0.8225 0.71338 0.14673 0.0
H2827 H 0.79308 0.70429 0.14445 0.0
H2828 H 0.80938 0.69981 0.17024 0.0
H2829 H 0.82005 0.80781 0.15072 0.0
H2830 H 0.79969 0.81698 0.16956 0.0
H2831 H 0.79138 0.79488 0.14138 0.0
C2832 C 0.14712 1.00174 0.6829 0.0
C2833 C 0.14684 0.01883 0.7047 0.0
C2834 C 0.13668 1.00341 0.65941 0.0
C2835 C 0.1254 0.02267 0.6565 0.0
C2836 C 0.12514 0.0397 0.67835 0.0
C2837 C 0.13552 0.03765 0.7012 0.0
C2838 C 0.13735 0.98406 0.6375 0.0
C2839 C 0.11348 0.06043 0.67779 0.0
C2840 C 0.11856 0.044 0.59334 0.0
C2841 C 0.09589 0.03585 0.58449 0.0
C2842 C 0.12786 0.04014 0.61607 0.0
C2843 C 0.11497 0.02624 0.63113 0.0
C2844 C 0.09195 0.01759 0.62224 0.0
C2845 C 0.08287 0.02249 0.59963 0.0
C2846 C 0.15192 0.05126 0.62407 0.0
C2847 C 0.07676 1.00198 0.63603 0.0
H2848 H 0.15505 0.98667 0.6841 0.0
H2849 H 0.13455 0.05147 0.71688 0.0
H2850 H 0.12044 0.97615 0.62824 0.0
H2851 H 0.14733 0.99257 0.6243 0.0
H2852 H 0.14454 0.96899 0.64234 0.0
H2853 H 0.11546 0.07312 0.6957 0.0
H2854 H 0.11985 0.07117 0.66403 0.0
H2855 H 0.09561 0.05275 0.67236 0.0
H2856 H 0.12941 0.05372 0.5822 0.0
H2857 H 0.06561 0.01488 0.59335 0.0
H2858 H 0.16082 0.03649 0.62558 0.0
H2859 H 0.1538 0.06324 0.64236 0.0
H2860 H 0.15984 0.06237 0.61128 0.0
H2861 H 0.07903 0.98283 0.63166 0.0
H2862 H 0.05919 1.00168 0.63091 0.0
H2863 H 0.08058 1.00853 0.65597 0.0
C2864 C 0.83368 0.41941 0.41924 0.0
C2865 C 0.84391 0.41967 0.44209 0.0
C2866 C 0.83597 0.4017 0.3993 0.0
C2867 C 0.84773 0.38361 0.40314 0.0
C2868 C 0.8599 0.38557 0.42559 0.0
C2869 C 0.85865 0.40447 0.44447 0.0
C2870 C 0.82421 0.40094 0.3748 0.0
C2871 C 0.87212 0.36622 0.43053 0.0
C2872 C 0.822 0.32213 0.36386 0.0
C2873 C 0.8366 0.3213 0.34607 0.0
C2874 C 0.82619 0.34186 0.3836 0.0
C2875 C 0.84508 0.36108 0.38486 0.0
C2876 C 0.86106 0.35889 0.36848 0.0
C2877 C 0.85697 0.33838 0.34973 0.0
C2878 C 0.80963 0.34299 0.40204 0.0
C2879 C 0.88114 0.37927 0.36889 0.0
H2880 H 0.82256 0.43149 0.41737 0.0
H2881 H 0.86774 0.40574 0.4617 0.0
H2882 H 0.83458 0.39622 0.3601 0.0
H2883 H 0.80872 0.38651 0.37165 0.0
H2884 H 0.82 0.41882 0.37361 0.0
H2885 H 0.88101 0.37085 0.44911 0.0
H2886 H 0.86024 0.34825 0.42855 0.0
H2887 H 0.88419 0.36377 0.41715 0.0
H2888 H 0.80657 0.30864 0.36144 0.0
H2889 H 0.86874 0.33727 0.33641 0.0
H2890 H 0.80084 0.35774 0.40002 0.0
H2891 H 0.81815 0.34752 0.42078 0.0
H2892 H 0.7972 0.32536 0.39983 0.0
H2893 H 0.87608 0.39383 0.36052 0.0
H2894 H 0.89395 0.37257 0.35841 0.0
H2895 H 0.88858 0.38792 0.38767 0.0
C2896 C 0.47972 0.04095 0.24823 0.0
C2897 C 0.45787 0.03849 0.25344 0.0
C2898 C 0.48469 0.03543 0.22452 0.0
C2899 C 0.46727 0.02828 0.20541 0.0
C2900 C 0.44527 0.02789 0.21031 0.0
C2901 C 0.44071 0.03276 0.23457 0.0
C2902 C 0.50861 0.03642 0.22029 0.0
C2903 C 0.42656 0.02132 0.19021 0.0
C2904 C 0.50069 0.03518 0.15568 0.0
C2905 C 0.50649 0.01229 0.15258 0.0
C2906 C 0.48353 0.03945 0.16934 0.0
C2907 C 0.47289 0.02066 0.18074 0.0
C2908 C 0.47608 0.99644 0.17409 0.0
C2909 C 0.49319 0.99257 0.16012 0.0
C2910 C 0.47984 0.06524 0.17542 0.0
C2911 C 0.46442 0.97561 0.18516 0.0
H2912 H 0.493 0.0461 0.2629 0.0
H2913 H 0.42377 0.03101 0.23873 0.0
H2914 H 0.51049 0.01854 0.20989 0.0
H2915 H 0.51447 0.05077 0.20968 0.0
H2916 H 0.51965 0.04073 0.23755 0.0
H2917 H 0.41173 0.02749 0.19651 0.0
H2918 H 0.43149 0.02958 0.17436 0.0
H2919 H 0.42194 1.00107 0.18391 0.0
H2920 H 0.51073 0.05035 0.14928 0.0
H2921 H 0.49712 0.97459 0.15656 0.0
H2922 H 0.49069 0.07551 0.19207 0.0
H2923 H 0.46252 0.06508 0.17898 0.0
H2924 H 0.48397 0.07531 0.1605 0.0
H2925 H 0.47472 0.97465 0.20166 0.0
H2926 H 0.46213 0.95777 0.17224 0.0
H2927 H 0.44814 0.97816 0.1905 0.0
C2928 C 0.82528 0.71303 0.93406 0.0
C2929 C 0.80678 0.71582 0.94638 0.0
C2930 C 0.82932 0.72269 0.91288 0.0
C2931 C 0.81404 0.73465 0.90305 0.0
C2932 C 0.79528 0.7375 0.91548 0.0
C2933 C 0.79212 0.72849 0.93722 0.0
C2934 C 0.85009 0.72032 0.90113 0.0
C2935 C 0.77817 0.74941 0.90542 0.0
C2936 C 0.83103 0.77636 0.85749 0.0
C2937 C 0.82292 0.76078 0.83486 0.0
C2938 C 0.8285 0.76816 0.87966 0.0
C2939 C 0.81747 0.7436 0.87953 0.0
C2940 C 0.80999 0.72747 0.85679 0.0
C2941 C 0.81322 0.73605 0.8349 0.0
C2942 C 0.83737 0.78599 0.90327 0.0
C2943 C 0.79812 0.70113 0.85549 0.0
H2944 H 0.83689 0.70361 0.94128 0.0
H2945 H 0.77781 0.73069 0.94666 0.0
H2946 H 0.84588 0.70981 0.88218 0.0
H2947 H 0.85985 0.73883 0.90022 0.0
H2948 H 0.86057 0.71098 0.91121 0.0
H2949 H 0.76495 0.75103 0.91758 0.0
H2950 H 0.78596 0.76801 0.90261 0.0
H2951 H 0.77054 0.73834 0.8874 0.0
H2952 H 0.83902 0.79523 0.8581 0.0
H2953 H 0.80719 0.7235 0.81774 0.0
H2954 H 0.84903 0.7785 0.91389 0.0
H2955 H 0.8237 0.78847 0.91451 0.0
H2956 H 0.84598 0.80431 0.90033 0.0
H2957 H 0.81001 0.69052 0.86095 0.0
H2958 H 0.79023 0.69216 0.83688 0.0
H2959 H 0.78523 0.70013 0.86827 0.0
C2960 C 0.84279 0.09141 0.02134 0.0
C2961 C 0.84441 0.11292 0.0385 0.0
C2962 C 0.86162 0.08292 0.01582 0.0
C2963 C 0.88217 0.09576 0.02872 0.0
C2964 C 0.8837 0.11686 0.04699 0.0
C2965 C 0.86467 0.12557 0.05134 0.0
C2966 C 0.8596 0.06082 0.99555 0.0
C2967 C 0.9054 0.13076 0.06111 0.0
C2968 C 0.92014 0.05284 0.02266 0.0
C2969 C 0.93006 0.05861 1.00225 0.0
C2970 C 0.90595 0.06668 0.03325 0.0
C2971 C 0.90179 0.08643 0.02289 0.0
C2972 C 0.91341 0.09364 1.00359 0.0
C2973 C 0.92752 0.07943 0.99336 0.0
C2974 C 0.89404 0.05898 0.05416 0.0
C2975 C 0.9095 0.11479 0.99223 0.0
H2976 H 0.82709 0.08229 0.01091 0.0
H2977 H 0.86569 0.1426 0.06419 0.0
H2978 H 0.87084 0.06551 0.9817 0.0
H2979 H 0.86452 0.04563 1.00292 0.0
H2980 H 0.84255 0.05404 0.98634 0.0
H2981 H 0.90311 0.14438 0.07707 0.0
H2982 H 0.91457 0.1179 0.06752 0.0
H2983 H 0.91576 0.14073 0.04912 0.0
H2984 H 0.92293 0.03705 0.02977 0.0
H2985 H 0.936 0.08407 0.97797 0.0
H2986 H 0.87669 0.04962 0.04744 0.0
H2987 H 0.89373 0.07528 0.06829 0.0
H2988 H 0.9018 0.04614 0.06264 0.0
H2989 H 0.89478 0.10819 0.97864 0.0
H2990 H 0.92377 0.12214 0.98272 0.0
H2991 H 0.90634 0.12998 0.00597 0.0
C2992 C 0.41379 0.42357 0.05391 0.0
C2993 C 0.39454 0.42681 0.04183 0.0
C2994 C 0.43412 0.44056 0.05542 0.0
C2995 C 0.43564 0.46104 0.04382 0.0
C2996 C 0.4161 0.46467 0.03199 0.0
C2997 C 0.39577 0.44779 0.03151 0.0
C2998 C 0.45416 0.43621 0.06898 0.0
C2999 C 0.41685 0.48533 0.01825 0.0
C3000 C 0.48826 0.51318 0.0559 0.0
C3001 C 0.50134 0.50439 0.03837 0.0
C3002 C 0.467 0.49928 0.0582 0.0
C3003 C 0.45797 0.47668 0.04172 0.0
C3004 C 0.47088 0.46821 0.0236 0.0
C3005 C 0.4925 0.48145 0.02292 0.0
C3006 C 0.45442 0.50847 0.07862 0.0
C3007 C 0.462 0.44493 0.0048 0.0
H3008 H 0.41298 0.40753 0.0621 0.0
H3009 H 0.38105 0.45031 0.02189 0.0
H3010 H 0.46614 0.43177 0.05607 0.0
H3011 H 0.4625 0.45316 0.08219 0.0
H3012 H 0.44991 0.42087 0.07891 0.0
H3013 H 0.40012 0.48793 0.01318 0.0
H3014 H 0.4269 0.50288 0.02908 0.0
H3015 H 0.42478 0.48104 1.00134 0.0
H3016 H 0.49484 0.53061 0.06823 0.0
H3017 H 0.50235 0.47365 0.00984 0.0
H3018 H 0.45105 0.49466 0.09043 0.0
H3019 H 0.43824 0.51078 0.07123 0.0
H3020 H 0.46358 0.52627 0.08995 0.0
H3021 H 0.46232 0.4287 0.01315 0.0
H3022 H 0.47194 0.44383 0.98906 0.0
H3023 H 0.44466 0.44377 0.99791 0.0
C3024 C 0.39621 0.64352 0.79445 0.0
C3025 C 0.41403 0.64041 0.78034 0.0
C3026 C 0.38428 0.66304 0.79415 0.0
C3027 C 0.38877 0.6806 0.77851 0.0
C3028 C 0.40669 0.67748 0.76411 0.0
C3029 C 0.41892 0.65834 0.76545 0.0
C3030 C 0.36645 0.66473 0.81083 0.0
C3031 C 0.41313 0.69463 0.74689 0.0
C3032 C 0.34307 0.71555 0.75714 0.0
C3033 C 0.34753 0.73941 0.77226 0.0
C3034 C 0.35529 0.69675 0.75963 0.0
C3035 C 0.37453 0.70115 0.77666 0.0
C3036 C 0.37988 0.72564 0.79136 0.0
C3037 C 0.36662 0.74376 0.78924 0.0
C3038 C 0.34764 0.67186 0.74323 0.0
C3039 C 0.40016 0.73315 0.80939 0.0
H3040 H 0.39154 0.63059 0.80627 0.0
H3041 H 0.43219 0.65708 0.75407 0.0
H3042 H 0.36852 0.68393 0.82087 0.0
H3043 H 0.35014 0.65955 0.79987 0.0
H3044 H 0.36648 0.65248 0.8242 0.0
H3045 H 0.42549 0.68891 0.73504 0.0
H3046 H 0.39839 0.6955 0.73522 0.0
H3047 H 0.42016 0.71347 0.75748 0.0
H3048 H 0.33008 0.71152 0.74242 0.0
H3049 H 0.37193 0.76201 0.80044 0.0
H3050 H 0.34513 0.65734 0.7543 0.0
H3051 H 0.36051 0.66835 0.73115 0.0
H3052 H 0.332 0.67027 0.73182 0.0
H3053 H 0.39712 0.72378 0.82498 0.0
H3054 H 0.40469 0.75334 0.8164 0.0
H3055 H 0.41437 0.72739 0.801 0.0
C3056 C 0.20755 0.61485 0.49528 0.0
C3057 C 0.22513 0.61136 0.50979 0.0
C3058 C 0.18605 0.6049 0.49902 0.0
C3059 C 0.18243 0.59083 0.5174 0.0
C3060 C 0.20007 0.58447 0.52981 0.0
C3061 C 0.22156 0.59497 0.52584 0.0
C3062 C 0.16736 0.61125 0.48475 0.0
C3063 C 0.19624 0.56798 0.5482 0.0
C3064 C 0.13051 0.60115 0.54239 0.0
C3065 C 0.11538 0.58199 0.52729 0.0
C3066 C 0.15308 0.60254 0.54155 0.0
C3067 C 0.16016 0.58483 0.5245 0.0
C3068 C 0.14486 0.56521 0.50961 0.0
C3069 C 0.12263 0.56467 0.51059 0.0
C3070 C 0.16926 0.62399 0.55741 0.0
C3071 C 0.15193 0.54601 0.49134 0.0
H3072 H 0.21063 0.62716 0.48254 0.0
H3073 H 0.23539 0.59216 0.53683 0.0
H3074 H 0.15559 0.59425 0.47509 0.0
H3075 H 0.15816 0.62185 0.49733 0.0
H3076 H 0.17327 0.62233 0.47106 0.0
H3077 H 0.21192 0.56559 0.55694 0.0
H3078 H 0.18673 0.57557 0.56258 0.0
H3079 H 0.18622 0.54963 0.53909 0.0
H3080 H 0.12474 0.61522 0.55432 0.0
H3081 H 0.11095 0.55156 0.49714 0.0
H3082 H 0.17681 0.63688 0.54596 0.0
H3083 H 0.18275 0.61758 0.56631 0.0
H3084 H 0.16124 0.63418 0.57171 0.0
H3085 H 0.16395 0.5546 0.47994 0.0
H3086 H 0.1378 0.53385 0.47897 0.0
H3087 H 0.16023 0.53457 0.50123 0.0
C3088 C 0.75222 0.99763 0.72605 0.0
C3089 C 0.72961 0.99238 0.72836 0.0
C3090 C 0.76608 0.98614 0.73796 0.0
C3091 C 0.7568 0.96901 0.75196 0.0
C3092 C 0.73375 0.9614 0.75175 0.0
C3093 C 0.72027 0.97277 0.73922 0.0
C3094 C 0.79068 0.99356 0.73706 0.0
C3095 C 0.72345 0.94274 0.76624 0.0
C3096 C 0.79307 0.9286 0.76836 0.0
C3097 C 0.8005 0.93951 0.79275 0.0
C3098 C 0.77784 0.93735 0.75533 0.0
C3099 C 0.77133 0.95864 0.76637 0.0
C3100 C 0.77935 0.97045 0.79065 0.0
C3101 C 0.79387 0.96053 0.80375 0.0
C3102 C 0.76871 0.92355 0.72991 0.0
C3103 C 0.77248 0.99333 0.80275 0.0
H3104 H 0.75931 0.01248 0.71717 0.0
H3105 H 0.70266 0.96834 0.74057 0.0
H3106 H 0.7991 1.00088 0.75573 0.0
H3107 H 0.79698 0.97719 0.72939 0.0
H3108 H 0.79522 1.00775 0.72584 0.0
H3109 H 0.7052 0.93736 0.76234 0.0
H3110 H 0.73016 0.92598 0.76229 0.0
H3111 H 0.72757 0.95061 0.78596 0.0
H3112 H 0.79846 0.91244 0.75973 0.0
H3113 H 0.79945 0.96867 0.82268 0.0
H3114 H 0.77939 0.93092 0.71664 0.0
H3115 H 0.75169 0.92525 0.72492 0.0
H3116 H 0.76835 0.90367 0.72815 0.0
H3117 H 0.7795 1.00885 0.79396 0.0
H3118 H 0.77822 0.99853 0.82249 0.0
H3119 H 0.75428 0.99065 0.80042 0.0
C3120 C 0.76367 0.93368 0.55608 0.0
C3121 C 0.77133 0.92144 0.53557 0.0
C3122 C 0.74577 0.94499 0.5536 0.0
C3123 C 0.73609 0.94483 0.53003 0.0
C3124 C 0.74381 0.93226 0.50933 0.0
C3125 C 0.76106 0.92034 0.51241 0.0
C3126 C 0.73736 0.95727 0.57609 0.0
C3127 C 0.73465 0.93246 0.48384 0.0
C3128 C 0.68152 0.96175 0.51511 0.0
C3129 C 0.68892 0.98571 0.51116 0.0
C3130 C 0.69657 0.94854 0.52276 0.0
C3131 C 0.71942 0.95967 0.52658 0.0
C3132 C 0.72665 0.98444 0.5242 0.0
C3133 C 0.71131 0.99714 0.51658 0.0
C3134 C 0.68821 0.92227 0.52541 0.0
C3135 C 0.75079 0.99714 0.52824 0.0
H3136 H 0.7716 0.93431 0.57399 0.0
H3137 H 0.76721 0.91103 0.49658 0.0
H3138 H 0.73865 0.97704 0.57594 0.0
H3139 H 0.71965 0.94883 0.57627 0.0
H3140 H 0.74656 0.95563 0.59308 0.0
H3141 H 0.74168 0.92078 0.46975 0.0
H3142 H 0.71646 0.92593 0.48153 0.0
H3143 H 0.73841 0.95158 0.48061 0.0
H3144 H 0.66417 0.9529 0.51099 0.0
H3145 H 0.71694 0.01583 0.51396 0.0
H3146 H 0.69522 0.91934 0.54301 0.0
H3147 H 0.69367 0.90965 0.51076 0.0
H3148 H 0.66993 0.91716 0.52436 0.0
H3149 H 0.75766 0.99695 0.54688 0.0
H3150 H 0.75363 0.01653 0.52582 0.0
H3151 H 0.7601 0.98712 0.51529 0.0
C3152 C 0.39767 0.49292 0.79162 0.0
C3153 C 0.41245 0.4977 0.77407 0.0
C3154 C 0.38385 0.46895 0.79081 0.0
C3155 C 0.38406 0.44849 0.7718 0.0
C3156 C 0.39848 0.45353 0.75367 0.0
C3157 C 0.41245 0.47743 0.75524 0.0
C3158 C 0.36969 0.46525 0.81117 0.0
C3159 C 0.39937 0.43342 0.73244 0.0
C3160 C 0.36857 0.3802 0.78131 0.0
C3161 C 0.34628 0.37102 0.77131 0.0
C3162 C 0.38045 0.40485 0.78203 0.0
C3163 C 0.37065 0.42179 0.77172 0.0
C3164 C 0.34828 0.41261 0.76107 0.0
C3165 C 0.33645 0.38793 0.76135 0.0
C3166 C 0.40383 0.41279 0.79406 0.0
C3167 C 0.33669 0.42889 0.74909 0.0
H3168 H 0.39766 0.50769 0.8068 0.0
H3169 H 0.42383 0.48019 0.74167 0.0
H3170 H 0.3524 0.45645 0.80371 0.0
H3171 H 0.37567 0.45264 0.82167 0.0
H3172 H 0.36993 0.48281 0.82379 0.0
H3173 H 0.41174 0.43965 0.72018 0.0
H3174 H 0.40342 0.41738 0.73896 0.0
H3175 H 0.38292 0.42702 0.72179 0.0
H3176 H 0.37703 0.36801 0.78897 0.0
H3177 H 0.31952 0.38176 0.75323 0.0
H3178 H 0.40559 0.42961 0.80827 0.0
H3179 H 0.41533 0.41745 0.78046 0.0
H3180 H 0.4089 0.3983 0.80256 0.0
H3181 H 0.333 0.44341 0.76324 0.0
H3182 H 0.32095 0.41842 0.73832 0.0
H3183 H 0.34745 0.43817 0.73694 0.0
C3184 C 0.24695 0.61937 0.24764 0.0
C3185 C 0.22967 0.61957 0.26253 0.0
C3186 C 0.26154 0.64111 0.24625 0.0
C3187 C 0.25888 0.66316 0.26045 0.0
C3188 C 0.2416 0.66354 0.27564 0.0
C3189 C 0.22707 0.64158 0.27641 0.0
C3190 C 0.27937 0.64058 0.22928 0.0
C3191 C 0.23819 0.68714 0.29077 0.0
C3192 C 0.30171 0.71938 0.2847 0.0
C3193 C 0.29309 0.7357 0.27328 0.0
C3194 C 0.29229 0.69435 0.27841 0.0
C3195 C 0.27425 0.68615 0.26016 0.0
C3196 C 0.26742 0.70235 0.24653 0.0
C3197 C 0.27653 0.72733 0.2539 0.0
C3198 C 0.29926 0.67748 0.29385 0.0
C3199 C 0.24867 0.69373 0.22637 0.0
H3200 H 0.24877 0.60234 0.2365 0.0
H3201 H 0.21357 0.64169 0.28766 0.0
H3202 H 0.27762 0.65264 0.21614 0.0
H3203 H 0.29587 0.64785 0.23967 0.0
H3204 H 0.27871 0.62177 0.21893 0.0
H3205 H 0.22483 0.68377 0.30277 0.0
H3206 H 0.2536 0.69729 0.30228 0.0
H3207 H 0.23377 0.69922 0.27866 0.0
H3208 H 0.31447 0.72638 0.29986 0.0
H3209 H 0.26969 0.74035 0.24557 0.0
H3210 H 0.29976 0.6595 0.28255 0.0
H3211 H 0.28702 0.67397 0.30706 0.0
H3212 H 0.31568 0.6857 0.30423 0.0
H3213 H 0.25147 0.67781 0.2133 0.0
H3214 H 0.24671 0.7085 0.21638 0.0
H3215 H 0.23295 0.68754 0.23401 0.0
C3216 C 0.51735 0.70208 0.48449 0.0
C3217 C 0.52711 0.71204 0.46537 0.0
C3218 C 0.52264 0.68123 0.49218 0.0
C3219 C 0.53858 0.66958 0.48103 0.0
C3220 C 0.54864 0.67951 0.46177 0.0
C3221 C 0.54275 0.70027 0.45413 0.0
C3222 C 0.51105 0.67175 0.51253 0.0
C3223 C 0.56586 0.66825 0.4493 0.0
C3224 C 0.56254 0.62806 0.51899 0.0
C3225 C 0.55199 0.604 0.50709 0.0
C3226 C 0.55966 0.6492 0.5098 0.0
C3227 C 0.5442 0.64689 0.48925 0.0
C3228 C 0.53286 0.62266 0.47773 0.0
C3229 C 0.5372 0.60184 0.48637 0.0
C3230 C 0.57288 0.67417 0.52254 0.0
C3231 C 0.51498 0.61867 0.45712 0.0
H3232 H 0.50534 0.71064 0.49367 0.0
H3233 H 0.5507 0.7075 0.43953 0.0
H3234 H 0.50482 0.6515 0.50762 0.0
H3235 H 0.52285 0.67574 0.5291 0.0
H3236 H 0.49699 0.68037 0.51703 0.0
H3237 H 0.57348 0.67894 0.43605 0.0
H3238 H 0.57901 0.66704 0.46301 0.0
H3239 H 0.5583 0.64922 0.43953 0.0
H3240 H 0.57256 0.63057 0.53603 0.0
H3241 H 0.52804 0.58371 0.47742 0.0
H3242 H 0.56187 0.68494 0.53194 0.0
H3243 H 0.58058 0.68449 0.50907 0.0
H3244 H 0.58603 0.67287 0.53619 0.0
H3245 H 0.5009 0.62595 0.46411 0.0
H3246 H 0.50887 0.5989 0.44869 0.0
H3247 H 0.52099 0.62885 0.44286 0.0
C3248 C 0.6885 0.32255 0.64469 0.0
C3249 C 0.66757 0.3254 0.65151 0.0
C3250 C 0.70566 0.32029 0.66149 0.0
C3251 C 0.70247 0.32078 0.68639 0.0
C3252 C 0.68152 0.32394 0.6936 0.0
C3253 C 0.66451 0.32613 0.6763 0.0
C3254 C 0.72728 0.31696 0.6523 0.0
C3255 C 0.67702 0.32496 0.71976 0.0
C3256 C 0.74088 0.29047 0.72279 0.0
C3257 C 0.75675 0.31063 0.73633 0.0
C3258 C 0.72299 0.29353 0.7074 0.0
C3259 C 0.72083 0.31741 0.70445 0.0
C3260 C 0.73697 0.33785 0.71805 0.0
C3261 C 0.75434 0.33426 0.73389 0.0
C3262 C 0.7064 0.27099 0.69406 0.0
C3263 C 0.73642 0.36365 0.7152 0.0
H3264 H 0.69153 0.32173 0.62581 0.0
H3265 H 0.6487 0.32823 0.68225 0.0
H3266 H 0.74123 0.33051 0.6637 0.0
H3267 H 0.7296 0.29836 0.65366 0.0
H3268 H 0.72807 0.31905 0.63307 0.0
H3269 H 0.65972 0.32594 0.72249 0.0
H3270 H 0.68049 0.30854 0.72605 0.0
H3271 H 0.68821 0.34137 0.73137 0.0
H3272 H 0.74235 0.27209 0.72438 0.0
H3273 H 0.76654 0.35005 0.74382 0.0
H3274 H 0.70708 0.26933 0.67417 0.0
H3275 H 0.68948 0.27272 0.69787 0.0
H3276 H 0.70936 0.25385 0.69927 0.0
H3277 H 0.74082 0.36608 0.69682 0.0
H3278 H 0.74818 0.37772 0.72894 0.0
H3279 H 0.71959 0.36693 0.71672 0.0
C3280 C 0.01909 0.35114 0.97957 0.0
C3281 C 0.03385 0.34261 0.96404 0.0
C3282 C 0.02196 0.37659 0.98974 0.0
C3283 C 0.04035 0.394 0.9849 0.0
C3284 C 0.05611 0.38506 0.97077 0.0
C3285 C 0.05246 0.3598 0.9602 0.0
C3286 C 1.00477 0.38502 0.00475 0.0
C3287 C 0.07679 0.40233 0.96642 0.0
C3288 C 0.03953 0.46012 0.97892 0.0
C3289 C 0.04984 0.47427 1.00137 0.0
C3290 C 0.03477 0.43416 0.97436 0.0
C3291 C 0.04205 0.42158 0.99189 0.0
C3292 C 0.0526 0.43583 0.01473 0.0
C3293 C 0.05579 0.46187 0.01939 0.0
C3294 C 0.02264 0.4202 0.95021 0.0
C3295 C 0.06137 0.42391 0.03403 0.0
H3296 H 1.00476 0.33809 0.98286 0.0
H3297 H 0.06429 0.35345 0.94875 0.0
H3298 H 0.01268 0.3968 0.02232 0.0
H3299 H 0.9962 0.39635 0.99499 0.0
H3300 H 0.99234 0.36934 0.00847 0.0
H3301 H 0.0884 0.39237 0.95702 0.0
H3302 H 0.07246 0.41519 0.95517 0.0
H3303 H 0.08533 0.41356 0.98401 0.0
H3304 H 0.03529 0.46949 0.9647 0.0
H3305 H 0.06439 0.47262 0.03652 0.0
H3306 H 0.00918 0.40501 0.95297 0.0
H3307 H 0.03414 0.41186 0.93891 0.0
H3308 H 0.01544 0.43224 0.93999 0.0
H3309 H 0.04775 0.41702 0.04454 0.0
H3310 H 0.07445 0.43721 0.04699 0.0
H3311 H 0.06818 0.40807 0.02591 0.0
C3312 C 0.03909 0.79766 0.16387 0.0
C3313 C 0.04151 0.80971 0.14414 0.0
C3314 C 0.01964 0.79511 0.17556 0.0
C3315 C 1.00214 0.80533 0.1678 0.0
C3316 C 1.00454 0.81775 0.14798 0.0
C3317 C 0.02407 0.81957 0.13624 0.0
C3318 C 0.01781 0.78129 0.19622 0.0
C3319 C 0.98674 0.8297 0.13959 0.0
C3320 C 0.94645 0.77649 0.18686 0.0
C3321 C 0.94574 0.79222 0.20897 0.0
C3322 C 0.96394 0.78143 0.17243 0.0
C3323 C 0.98137 0.8025 0.18039 0.0
C3324 C 0.97995 0.81924 0.20199 0.0
C3325 C 0.96222 0.81384 0.21605 0.0
C3326 C 0.96449 0.76321 0.14946 0.0
C3327 C 0.99792 0.84203 0.2112 0.0
H3328 H 0.05244 0.78998 0.17011 0.0
H3329 H 0.02591 0.82927 0.12127 0.0
H3330 H 0.01497 0.79339 0.213 0.0
H3331 H 1.00344 0.76539 0.19178 0.0
H3332 H 0.03283 0.7744 0.20007 0.0
H3333 H 0.99001 0.83641 0.12247 0.0
H3334 H 0.97044 0.81664 0.13672 0.0
H3335 H 0.98569 0.84556 0.1539 0.0
H3336 H 0.93388 0.7596 0.1815 0.0
H3337 H 0.96193 0.82583 0.23333 0.0
H3338 H 0.9782 0.75386 0.15193 0.0
H3339 H 0.96766 0.77283 0.13406 0.0
H3340 H 0.94884 0.74903 0.14455 0.0
H3341 H 0.01252 0.83676 0.2192 0.0
H3342 H 0.99257 0.85526 0.22541 0.0
H3343 H 1.00314 0.85136 0.19609 0.0
C3344 C 0.52706 0.33988 0.14055 0.0
C3345 C 0.52328 0.31491 0.12996 0.0
C3346 C 0.53417 0.35786 0.12686 0.0
C3347 C 0.53759 0.35044 0.10223 0.0
C3348 C 0.53386 0.32521 0.09156 0.0
C3349 C 0.52673 0.30775 0.10558 0.0
C3350 C 0.53772 0.38468 0.13857 0.0
C3351 C 0.53754 0.31662 0.06536 0.0
C3352 C 0.53769 0.39089 0.05588 0.0
C3353 C 0.5602 0.39694 0.05312 0.0
C3354 C 0.53004 0.37661 0.07279 0.0
C3355 C 0.54543 0.3688 0.0874 0.0
C3356 C 0.56829 0.37611 0.0856 0.0
C3357 C 0.57543 0.39004 0.06827 0.0
C3358 C 0.50551 0.3687 0.07399 0.0
C3359 C 0.58509 0.36834 0.10127 0.0
H3360 H 0.5242 0.34535 0.15936 0.0
H3361 H 0.5238 0.28841 0.09732 0.0
H3362 H 0.55431 0.39486 0.13579 0.0
H3363 H 0.52544 0.39294 0.12986 0.0
H3364 H 0.53608 0.38734 0.1584 0.0
H3365 H 0.53256 0.2963 0.05951 0.0
H3366 H 0.52808 0.32502 0.05312 0.0
H3367 H 0.55524 0.3226 0.06294 0.0
H3368 H 0.52605 0.39662 0.04422 0.0
H3369 H 0.59288 0.3954 0.06639 0.0
H3370 H 0.50158 0.37201 0.09312 0.0
H3371 H 0.49997 0.34864 0.06667 0.0
H3372 H 0.49595 0.37847 0.06333 0.0
H3373 H 0.58259 0.37333 0.12075 0.0
H3374 H 0.60228 0.37697 0.09873 0.0
H3375 H 0.58292 0.34806 0.09674 0.0
C3376 C 0.0361 0.33412 0.38654 0.0
C3377 C 0.05644 0.33997 0.37721 0.0
C3378 C 0.0164 0.33359 0.37281 0.0
C3379 C 0.01719 0.33947 0.3494 0.0
C3380 C 0.03772 0.34548 0.33994 0.0
C3381 C 0.05712 0.34543 0.35389 0.0
C3382 C 0.99476 0.32653 0.38323 0.0
C3383 C 0.03921 0.35237 0.31524 0.0
C3384 C 0.96743 0.31959 0.30235 0.0
C3385 C 0.96054 0.34166 0.3034 0.0
C3386 C 0.9855 0.31835 0.31784 0.0
C3387 C 0.99666 0.33968 0.33477 0.0
C3388 C 0.98904 0.36171 0.33657 0.0
C3389 C 0.97106 0.36247 0.32067 0.0
C3390 C 0.99317 0.29455 0.31545 0.0
C3391 C 1.00026 0.38463 0.3548 0.0
H3392 H 0.03556 0.32961 0.40449 0.0
H3393 H 0.07287 0.35016 0.34676 0.0
H3394 H 0.98502 0.34072 0.38258 0.0
H3395 H 0.98487 0.30902 0.37209 0.0
H3396 H 0.99713 0.32412 0.40234 0.0
H3397 H 0.05635 0.35557 0.31013 0.0
H3398 H 0.02861 0.33766 0.3011 0.0
H3399 H 0.03307 0.36938 0.31522 0.0
H3400 H 0.95902 0.30352 0.28897 0.0
H3401 H 0.96535 0.37937 0.32151 0.0
H3402 H 0.99531 0.28955 0.33352 0.0
H3403 H 0.00947 0.2969 0.30819 0.0
H3404 H 0.98146 0.27909 0.3031 0.0
H3405 H 1.001 0.3806 0.37341 0.0
H3406 H 0.99165 0.39989 0.35462 0.0
H3407 H 0.0175 0.39087 0.35078 0.0
C3408 C 0.0118 0.69835 0.59774 0.0
C3409 C 0.99895 0.70033 0.61728 0.0
C3410 C 0.01828 0.67667 0.58931 0.0
C3411 C 0.01109 0.65623 0.60021 0.0
C3412 C 0.99807 0.65788 0.61989 0.0
C3413 C 0.99235 0.68026 0.62854 0.0
C3414 C 0.03302 0.6758 0.56889 0.0
C3415 C 0.99046 0.63616 0.63179 0.0
C3416 C 0.01383 0.60026 0.55537 0.0
C3417 C 0.03449 0.59684 0.56315 0.0
C3418 C 1.00478 0.61806 0.56898 0.0
C3419 C 0.01714 0.63317 0.59025 0.0
C3420 C 0.03752 0.629 0.59883 0.0
C3421 C 0.04585 0.61058 0.58523 0.0
C3422 C 0.98282 0.62196 0.55962 0.0
C3423 C 0.05165 0.64546 0.62087 0.0
H3424 H 0.01758 0.71411 0.58953 0.0
H3425 H 0.98283 0.68209 0.64399 0.0
H3426 H 0.04798 0.66954 0.5743 0.0
H3427 H 0.02419 0.66244 0.55257 0.0
H3428 H 0.03832 0.69399 0.56371 0.0
H3429 H 0.97939 0.64009 0.64601 0.0
H3430 H 0.98164 0.61998 0.61789 0.0
H3431 H 1.00492 0.63101 0.64026 0.0
H3432 H 1.00489 0.58932 0.53846 0.0
H3433 H 0.0618 0.6079 0.59136 0.0
H3434 H 0.98546 0.6389 0.55188 0.0
H3435 H 0.97232 0.6245 0.57469 0.0
H3436 H 0.97384 0.6063 0.54521 0.0
H3437 H 0.0606 0.6625 0.61558 0.0
H3438 H 0.06408 0.63643 0.62822 0.0
H3439 H 0.04153 0.65093 0.63552 0.0
C3440 C 0.66437 0.82079 0.82113 0.0
C3441 C 0.66903 0.82752 0.84643 0.0
C3442 C 0.68149 0.82031 0.80623 0.0
C3443 C 0.70347 0.82642 0.81713 0.0
C3444 C 0.70827 0.83596 0.84241 0.0
C3445 C 0.69092 0.83617 0.8568 0.0
C3446 C 0.67588 0.81064 0.77928 0.0
C3447 C 0.7316 0.84307 0.85475 0.0
C3448 C 0.74323 0.78673 0.80607 0.0
C3449 C 0.75867 0.80004 0.79389 0.0
C3450 C 0.72317 0.79303 0.80954 0.0
C3451 C 0.72021 0.81578 0.8046 0.0
C3452 C 0.73587 0.82985 0.79257 0.0
C3453 C 0.75453 0.82102 0.78617 0.0
C3454 C 0.70646 0.77683 0.82147 0.0
C3455 C 0.73409 0.85508 0.78872 0.0
H3456 H 0.6474 0.81504 0.81302 0.0
H3457 H 0.69463 0.84224 0.87634 0.0
H3458 H 0.68878 0.81914 0.76876 0.0
H3459 H 0.67467 0.79049 0.77544 0.0
H3460 H 0.65978 0.81403 0.77285 0.0
H3461 H 0.73272 0.85454 0.87322 0.0
H3462 H 0.73737 0.82619 0.85665 0.0
H3463 H 0.74298 0.8533 0.84379 0.0
H3464 H 0.74723 0.77254 0.8146 0.0
H3465 H 0.76687 0.83179 0.77734 0.0
H3466 H 0.68946 0.77546 0.81334 0.0
H3467 H 0.70755 0.78479 0.84116 0.0
H3468 H 0.70939 0.75795 0.81958 0.0
H3469 H 0.71766 0.85435 0.77949 0.0
H3470 H 0.74704 0.863 0.77786 0.0
H3471 H 0.73577 0.86773 0.80661 0.0
C3472 C 0.4731 0.58125 0.69271 0.0
C3473 C 0.48184 0.57237 0.71246 0.0
C3474 C 0.48299 0.58082 0.66981 0.0
C3475 C 0.50219 0.57089 0.66532 0.0
C3476 C 0.51104 0.56229 0.68525 0.0
C3477 C 0.50125 0.56337 0.70775 0.0
C3478 C 0.47271 0.59114 0.65023 0.0
C3479 C 0.53114 0.55145 0.68287 0.0
C3480 C 0.51468 0.54438 0.59839 0.0
C3481 C 0.53385 0.56079 0.59384 0.0
C3482 C 0.50459 0.54747 0.62082 0.0
C3483 C 0.51265 0.5683 0.64013 0.0
C3484 C 0.53185 0.58526 0.63556 0.0
C3485 C 0.54214 0.58123 0.61317 0.0
C3486 C 0.48535 0.5277 0.62408 0.0
C3487 C 0.54132 0.60844 0.6541 0.0
H3488 H 0.45844 0.58849 0.69495 0.0
H3489 H 0.5092 0.55657 0.72195 0.0
H3490 H 0.48564 0.60264 0.64188 0.0
H3491 H 0.46353 0.57583 0.63567 0.0
H3492 H 0.46105 0.60238 0.65737 0.0
H3493 H 0.5349 0.54308 0.69862 0.0
H3494 H 0.52877 0.53716 0.66602 0.0
H3495 H 0.54569 0.56601 0.6815 0.0
H3496 H 0.50761 0.52838 0.58435 0.0
H3497 H 0.55655 0.59461 0.61065 0.0
H3498 H 0.47055 0.53547 0.62653 0.0
H3499 H 0.48902 0.52068 0.64076 0.0
H3500 H 0.48143 0.51201 0.60834 0.0
H3501 H 0.53015 0.62129 0.65372 0.0
H3502 H 0.55793 0.61775 0.65034 0.0
H3503 H 0.54246 0.60462 0.67275 0.0
C3504 C 0.79227 0.19303 0.97974 0.0
C3505 C 0.79683 0.16956 0.97478 0.0
C3506 C 0.78644 0.20426 0.96116 0.0
C3507 C 0.78648 0.19232 0.93688 0.0
C3508 C 0.7921 0.16915 0.93155 0.0
C3509 C 0.79695 0.15773 0.95075 0.0
C3510 C 0.77969 0.2286 0.96765 0.0
C3511 C 0.79317 0.15666 0.90573 0.0
C3512 C 0.74975 0.21564 0.89622 0.0
C3513 C 0.76454 0.23593 0.89131 0.0
C3514 C 0.75705 0.19973 0.90943 0.0
C3515 C 0.77972 0.20419 0.91747 0.0
C3516 C 0.79503 0.22352 0.91098 0.0
C3517 C 0.78719 0.23941 0.89806 0.0
C3518 C 0.74025 0.17967 0.91673 0.0
C3519 C 0.81933 0.2287 0.91949 0.0
H3520 H 0.79277 0.2027 0.99829 0.0
H3521 H 0.80082 0.13975 0.94701 0.0
H3522 H 0.79113 0.24313 0.96097 0.0
H3523 H 0.76292 0.22713 0.95881 0.0
H3524 H 0.7796 0.23464 0.98758 0.0
H3525 H 0.79449 0.13725 0.90447 0.0
H3526 H 0.77846 0.15708 0.89379 0.0
H3527 H 0.80784 0.16676 0.89864 0.0
H3528 H 0.7323 0.21278 0.89055 0.0
H3529 H 0.79865 0.25524 0.89437 0.0
H3530 H 0.73861 0.18471 0.93646 0.0
H3531 H 0.74566 0.16205 0.91366 0.0
H3532 H 0.72375 0.17681 0.90655 0.0
H3533 H 0.82225 0.23815 0.93887 0.0
H3534 H 0.82942 0.2407 0.90881 0.0
H3535 H 0.82512 0.21132 0.91816 0.0
C3536 C 0.17344 0.53733 0.15864 0.0
C3537 C 0.16485 0.54115 0.18098 0.0
C3538 C 0.15888 0.52804 0.13753 0.0
C3539 C 0.13598 0.52347 0.13973 0.0
C3540 C 0.12769 0.5243 0.16253 0.0
C3541 C 0.14245 0.53271 0.18295 0.0
C3542 C 0.16771 0.52604 0.11304 0.0
C3543 C 0.10331 0.52067 0.16563 0.0
C3544 C 0.10109 0.55251 0.1042 0.0
C3545 C 0.08712 0.53176 0.08998 0.0
C3546 C 0.1185 0.54998 0.11914 0.0
C3547 C 0.12106 0.52594 0.12021 0.0
C3548 C 0.10628 0.50486 0.1066 0.0
C3549 C 0.08912 0.50807 0.09146 0.0
C3550 C 0.13378 0.573 0.13396 0.0
C3551 C 0.10891 0.4792 0.10772 0.0
H3552 H 0.19103 0.54279 0.1576 0.0
H3553 H 0.13619 0.53427 0.20064 0.0
H3554 H 0.15682 0.51104 0.09938 0.0
H3555 H 0.16847 0.54353 0.10654 0.0
H3556 H 0.18462 0.52265 0.11418 0.0
H3557 H 0.09989 0.51925 0.18456 0.0
H3558 H 0.09725 0.53662 0.16122 0.0
H3559 H 0.09364 0.5039 0.15319 0.0
H3560 H 0.09916 0.57072 0.10234 0.0
H3561 H 0.07829 0.4923 0.07962 0.0
H3562 H 0.1511 0.57322 0.13039 0.0
H3563 H 0.13272 0.57337 0.15365 0.0
H3564 H 0.12975 0.59009 0.12975 0.0
H3565 H 0.12467 0.47661 0.10069 0.0
H3566 H 0.09517 0.46484 0.09687 0.0
H3567 H 0.10977 0.47649 0.1268 0.0
C3568 C 0.83322 0.84352 0.46213 0.0
C3569 C 0.82265 0.86288 0.46888 0.0
C3570 C 0.83222 0.83188 0.43746 0.0
C3571 C 0.8198 0.83926 0.4192 0.0
C3572 C 0.80765 0.85743 0.42635 0.0
C3573 C 0.80962 0.86934 0.45089 0.0
C3574 C 0.84528 0.81253 0.43082 0.0
C3575 C 0.79276 0.86457 0.40796 0.0
C3576 C 0.83483 0.84085 0.35485 0.0
C3577 C 0.82198 0.81881 0.34109 0.0
C3578 C 0.83596 0.84612 0.38037 0.0
C3579 C 0.82158 0.83063 0.39256 0.0
C3580 C 0.8077 0.80868 0.37866 0.0
C3581 C 0.80874 0.80258 0.35324 0.0
C3582 C 0.85187 0.86904 0.39418 0.0
C3583 C 0.79093 0.79219 0.39016 0.0
H3584 H 0.84301 0.83815 0.476 0.0
H3585 H 0.80077 0.88371 0.45603 0.0
H3586 H 0.83461 0.79577 0.41926 0.0
H3587 H 0.8587 0.8195 0.42006 0.0
H3588 H 0.85266 0.8074 0.44713 0.0
H3589 H 0.7826 0.87692 0.41671 0.0
H3590 H 0.80276 0.87412 0.39541 0.0
H3591 H 0.78161 0.84784 0.3968 0.0
H3592 H 0.84367 0.85444 0.34557 0.0
H3593 H 0.79777 0.78614 0.34261 0.0
H3594 H 0.86069 0.86495 0.41021 0.0
H3595 H 0.84272 0.88326 0.40094 0.0
H3596 H 0.86426 0.8768 0.38263 0.0
H3597 H 0.79893 0.77906 0.39778 0.0
H3598 H 0.77708 0.78131 0.37657 0.0
H3599 H 0.78405 0.80286 0.40516 0.0
C3600 C 0.49734 0.57167 0.84587 0.0
C3601 C 0.47555 0.57569 0.8455 0.0
C3602 C 0.5096 0.56828 0.86726 0.0
C3603 C 0.50041 0.5683 0.89003 0.0
C3604 C 0.47847 0.57246 0.88983 0.0
C3605 C 0.46666 0.57613 0.86821 0.0
C3606 C 0.53266 0.56444 0.86521 0.0
C3607 C 0.46719 0.57289 0.91278 0.0
C3608 C 0.52248 0.53345 0.93862 0.0
C3609 C 0.5343 0.55176 0.95835 0.0
C3610 C 0.51197 0.53842 0.91701 0.0
C3611 C 0.51298 0.56289 0.91334 0.0
C3612 C 0.5258 0.58175 0.93253 0.0
C3613 C 0.53569 0.57611 0.95433 0.0
C3614 C 0.49899 0.51698 0.89818 0.0
C3615 C 0.52936 0.60826 0.93006 0.0
H3616 H 0.50509 0.57119 0.82911 0.0
H3617 H 0.45015 0.57923 0.86916 0.0
H3618 H 0.54382 0.57457 0.88167 0.0
H3619 H 0.53242 0.54461 0.86357 0.0
H3620 H 0.53954 0.57049 0.84897 0.0
H3621 H 0.4501 0.57552 0.91015 0.0
H3622 H 0.46668 0.55541 0.91924 0.0
H3623 H 0.47676 0.58801 0.92731 0.0
H3624 H 0.52068 0.51474 0.93998 0.0
H3625 H 0.5443 0.59116 0.96864 0.0
H3626 H 0.50628 0.51673 0.88066 0.0
H3627 H 0.48178 0.51902 0.89498 0.0
H3628 H 0.49863 0.49904 0.90366 0.0
H3629 H 0.54033 0.61134 0.91557 0.0
H3630 H 0.53707 0.6211 0.94722 0.0
H3631 H 0.51353 0.61273 0.92449 0.0
C3632 C 0.81004 0.19139 0.11415 0.0
C3633 C 0.79253 0.18502 0.09588 0.0
C3634 C 0.80873 0.20754 0.13565 0.0
C3635 C 0.78993 0.21785 0.13778 0.0
C3636 C 0.77172 0.21007 0.11987 0.0
C3637 C 0.77301 0.19296 0.09936 0.0
C3638 C 0.82771 0.21439 0.1555 0.0
C3639 C 0.75188 0.22153 0.12111 0.0
C3640 C 0.77808 0.24624 0.19902 0.0
C3641 C 0.79159 0.26993 0.20218 0.0
C3642 C 0.77787 0.22887 0.17828 0.0
C3643 C 0.789 0.23643 0.15901 0.0
C3644 C 0.79937 0.26143 0.1603 0.0
C3645 C 0.80098 0.27804 0.18234 0.0
C3646 C 0.76751 0.20214 0.17799 0.0
C3647 C 0.81003 0.27023 0.13913 0.0
H3648 H 0.8251 0.18516 0.11097 0.0
H3649 H 0.75968 0.18787 0.08472 0.0
H3650 H 0.83547 0.23425 0.15809 0.0
H3651 H 0.82155 0.21105 0.17299 0.0
H3652 H 0.84055 0.20375 0.15132 0.0
H3653 H 0.73858 0.21208 0.10631 0.0
H3654 H 0.74498 0.22123 0.13878 0.0
H3655 H 0.75702 0.24111 0.11957 0.0
H3656 H 0.76973 0.24026 0.21387 0.0
H3657 H 0.81054 0.29668 0.18437 0.0
H3658 H 0.77995 0.19084 0.17446 0.0
H3659 H 0.75387 0.19503 0.16317 0.0
H3660 H 0.76092 0.19934 0.19544 0.0
H3661 H 0.82603 0.26474 0.13772 0.0
H3662 H 0.81319 0.29057 0.14138 0.0
H3663 H 0.79949 0.26174 0.12178 0.0
C3664 C 0.15851 0.54738 0.29664 0.0
C3665 C 0.18036 0.54476 0.29864 0.0
C3666 C 0.14816 0.55379 0.31709 0.0
C3667 C 0.15978 0.55698 0.34024 0.0
C3668 C 0.18171 0.55391 0.34261 0.0
C3669 C 0.1919 0.54784 0.32153 0.0
C3670 C 0.12474 0.55717 0.31376 0.0
C3671 C 0.19418 0.55657 0.36717 0.0
C3672 C 0.1295 0.59276 0.38241 0.0
C3673 C 0.11363 0.57352 0.38747 0.0
C3674 C 0.14702 0.58775 0.36959 0.0
C3675 C 0.14811 0.56297 0.36148 0.0
C3676 C 0.13319 0.54366 0.36848 0.0
C3677 C 0.11595 0.54921 0.38138 0.0
C3678 C 0.16297 0.60871 0.36263 0.0
C3679 C 0.13388 0.51702 0.36005 0.0
H3680 H 0.14939 0.54475 0.27894 0.0
H3681 H 0.20877 0.54569 0.32295 0.0
H3682 H 0.11352 0.54372 0.322 0.0
H3683 H 0.12382 0.57587 0.32305 0.0
H3684 H 0.1185 0.55469 0.29431 0.0
H3685 H 0.21222 0.5592 0.36604 0.0
H3686 H 0.19105 0.57226 0.38034 0.0
H3687 H 0.18846 0.53964 0.37444 0.0
H3688 H 0.12799 0.6116 0.38812 0.0
H3689 H 0.10379 0.53445 0.38595 0.0
H3690 H 0.15816 0.60986 0.34358 0.0
H3691 H 0.17997 0.60563 0.3636 0.0
H3692 H 0.16296 0.6266 0.37454 0.0
H3693 H 0.12574 0.5105 0.34118 0.0
H3694 H 0.12508 0.50514 0.37174 0.0
H3695 H 0.15111 0.51473 0.35996 0.0
C3696 C 0.83584 0.8653 0.61773 0.0
C3697 C 0.8195 0.86258 0.59854 0.0
C3698 C 0.83057 0.85808 0.63977 0.0
C3699 C 0.80845 0.84715 0.64249 0.0
C3700 C 0.79178 0.84488 0.62328 0.0
C3701 C 0.79747 0.85287 0.60164 0.0
C3702 C 0.84887 0.86125 0.65978 0.0
C3703 C 0.76806 0.83324 0.62532 0.0
C3704 C 0.80135 0.80293 0.68672 0.0
C3705 C 0.79713 0.81767 0.70803 0.0
C3706 C 0.80444 0.81207 0.6652 0.0
C3707 C 0.80318 0.83663 0.66472 0.0
C3708 C 0.79829 0.85141 0.68597 0.0
C3709 C 0.79562 0.84189 0.70745 0.0
C3710 C 0.81007 0.79572 0.64327 0.0
C3711 C 0.79681 0.87764 0.68632 0.0
H3712 H 0.85287 0.87276 0.61532 0.0
H3713 H 0.78483 0.85054 0.58671 0.0
H3714 H 0.84439 0.87029 0.67737 0.0
H3715 H 0.85139 0.84294 0.66199 0.0
H3716 H 0.86469 0.87236 0.6559 0.0
H3717 H 0.75699 0.83305 0.60897 0.0
H3718 H 0.76665 0.81402 0.62783 0.0
H3719 H 0.76228 0.84336 0.64155 0.0
H3720 H 0.80352 0.78457 0.6872 0.0
H3721 H 0.79274 0.85353 0.72393 0.0
H3722 H 0.82693 0.80356 0.63907 0.0
H3723 H 0.79854 0.79484 0.62711 0.0
H3724 H 0.80939 0.77671 0.64615 0.0
H3725 H 0.81359 0.88919 0.68666 0.0
H3726 H 0.78941 0.88521 0.70254 0.0
H3727 H 0.7869 0.87906 0.66975 0.0
C3728 C 0.76072 0.46031 0.49986 0.0
C3729 C 0.78072 0.47026 0.51443 0.0
C3730 C 0.74213 0.46972 0.50484 0.0
C3731 C 0.74382 0.48912 0.525 0.0
C3732 C 0.76393 0.49882 0.54005 0.0
C3733 C 0.78227 0.48934 0.53441 0.0
C3734 C 0.72099 0.45938 0.48822 0.0
C3735 C 0.7661 0.51915 0.56213 0.0
C3736 C 0.70803 0.53482 0.53264 0.0
C3737 C 0.69591 0.52708 0.551 0.0
C3738 C 0.72263 0.52131 0.52231 0.0
C3739 C 0.72477 0.49974 0.53066 0.0
C3740 C 0.71109 0.49082 0.54771 0.0
C3741 C 0.69678 0.5048 0.55785 0.0
C3742 C 0.7371 0.53121 0.50413 0.0
C3743 C 0.71284 0.46764 0.55666 0.0
H3744 H 0.75973 0.44556 0.48432 0.0
H3745 H 0.79777 0.49669 0.54581 0.0
H3746 H 0.70672 0.45565 0.49889 0.0
H3747 H 0.71807 0.4731 0.47732 0.0
H3748 H 0.72159 0.44213 0.47553 0.0
H3749 H 0.78306 0.52469 0.57169 0.0
H3750 H 0.76173 0.53556 0.55671 0.0
H3751 H 0.75449 0.51303 0.57513 0.0
H3752 H 0.70695 0.55207 0.52738 0.0
H3753 H 0.68694 0.49889 0.57186 0.0
H3754 H 0.73784 0.51627 0.48868 0.0
H3755 H 0.75416 0.53886 0.51302 0.0
H3756 H 0.73119 0.54599 0.49693 0.0
H3757 H 0.71239 0.45238 0.5411 0.0
H3758 H 0.69937 0.46188 0.56788 0.0
H3759 H 0.72886 0.47076 0.56785 0.0
C3760 C 0.23094 0.13957 0.51 0.0
C3761 C 0.2315 0.15867 0.49703 0.0
C3762 C 0.21095 0.12285 0.51137 0.0
C3763 C 0.19103 0.12466 0.49883 0.0
C3764 C 0.19177 0.1433 0.48489 0.0
C3765 C 0.2118 0.16015 0.48443 0.0
C3766 C 0.21104 0.10383 0.52702 0.0
C3767 C 0.17117 0.1461 0.47111 0.0
C3768 C 0.13952 0.07133 0.48891 0.0
C3769 C 0.12637 0.08024 0.50628 0.0
C3770 C 0.16059 0.08541 0.48629 0.0
C3771 C 0.16914 0.10866 0.50185 0.0
C3772 C 0.15614 0.11737 0.51977 0.0
C3773 C 0.13498 0.10342 0.52141 0.0
C3774 C 0.17354 0.07564 0.46649 0.0
C3775 C 0.16467 0.14147 0.53749 0.0
H3776 H 0.24598 0.13833 0.52 0.0
H3777 H 0.21197 0.17476 0.47431 0.0
H3778 H 0.19905 0.1055 0.54067 0.0
H3779 H 0.20581 0.08512 0.51559 0.0
H3780 H 0.22757 0.10567 0.53671 0.0
H3781 H 0.17493 0.15896 0.45839 0.0
H3782 H 0.16179 0.128 0.46062 0.0
H3783 H 0.16033 0.15329 0.48416 0.0
H3784 H 0.1332 0.05358 0.47704 0.0
H3785 H 0.12523 0.11082 0.53492 0.0
H3786 H 0.18962 0.0737 0.47455 0.0
H3787 H 0.17709 0.0889 0.45414 0.0
H3788 H 0.16459 0.05752 0.4556 0.0
H3789 H 0.17989 0.14065 0.54837 0.0
H3790 H 0.15245 0.14589 0.55017 0.0
H3791 H 0.16909 0.15675 0.52757 0.0
C3792 C 0.23778 0.95514 0.78238 0.0
C3793 C 0.21622 0.95109 0.77007 0.0
C3794 C 0.24992 0.93593 0.78344 0.0
C3795 C 0.2417 0.9109 0.77084 0.0
C3796 C 0.2201 0.90677 0.75786 0.0
C3797 C 0.20782 0.92611 0.75813 0.0
C3798 C 0.2718 0.94259 0.79877 0.0
C3799 C 0.20959 0.88147 0.74345 0.0
C3800 C 0.28346 0.8645 0.75917 0.0
C3801 C 0.28009 0.84961 0.77715 0.0
C3802 C 0.2716 0.88391 0.75693 0.0
C3803 C 0.25489 0.8894 0.77245 0.0
C3804 C 0.2512 0.874 0.7901 0.0
C3805 C 0.26355 0.85534 0.7923 0.0
C3806 C 0.27699 0.89865 0.73748 0.0
C3807 C 0.23424 0.87754 0.80758 0.0
H3808 H 0.24518 0.97365 0.79209 0.0
H3809 H 0.19151 0.92156 0.74833 0.0
H3810 H 0.2722 0.92956 0.8113 0.0
H3811 H 0.28519 0.94103 0.78689 0.0
H3812 H 0.27525 0.96158 0.8097 0.0
H3813 H 0.19586 0.88187 0.73004 0.0
H3814 H 0.22193 0.87311 0.73365 0.0
H3815 H 0.20288 0.86943 0.75601 0.0
H3816 H 0.29556 0.8612 0.74674 0.0
H3817 H 0.25992 0.84484 0.80645 0.0
H3818 H 0.28294 0.9184 0.74591 0.0
H3819 H 0.26185 0.89695 0.72521 0.0
H3820 H 0.28981 0.89264 0.72653 0.0
H3821 H 0.24069 0.89478 0.82119 0.0
H3822 H 0.23025 0.86205 0.81737 0.0
H3823 H 0.21878 0.87938 0.79796 0.0
C3824 C 0.40373 0.98923 0.02658 0.0
C3825 C 0.40115 0.96506 0.01363 0.0
C3826 C 0.42475 1.00452 0.03317 0.0
C3827 C 0.44321 0.99541 0.02584 0.0
C3828 C 0.44055 0.97121 0.01218 0.0
C3829 C 0.41951 0.95633 0.00637 0.0
C3830 C 0.42701 0.03006 0.04806 0.0
C3831 C 0.45989 0.96058 1.00416 0.0
C3832 C 0.49772 0.02726 0.01365 0.0
C3833 C 0.51028 0.01525 0.02671 0.0
C3834 C 0.47508 0.02364 0.01477 0.0
C3835 C 0.46565 0.01046 0.03197 0.0
C3836 C 0.47931 1.00435 0.04977 0.0
C3837 C 0.50135 1.00525 0.046 0.0
C3838 C 0.4613 0.03053 0.99518 0.0
C3839 C 0.47004 0.99388 0.07078 0.0
H3840 H 0.38944 0.99593 0.03232 0.0
H3841 H 0.41747 0.93767 0.99632 0.0
H3842 H 0.44248 0.03606 0.06055 0.0
H3843 H 0.42725 0.0433 0.0357 0.0
H3844 H 0.41283 0.03107 0.05892 0.0
H3845 H 0.45458 0.94262 0.9913 0.0
H3846 H 0.47109 0.97339 0.99523 0.0
H3847 H 0.46943 0.9576 0.02027 0.0
H3848 H 0.50519 0.03854 1.00184 0.0
H3849 H 0.5113 0.99788 0.05799 0.0
H3850 H 0.44604 0.03516 1.00173 0.0
H3851 H 0.45648 0.0146 0.97972 0.0
H3852 H 0.47072 0.04631 0.98822 0.0
H3853 H 0.45715 1.00331 0.07785 0.0
H3854 H 0.48314 0.99579 0.08581 0.0
H3855 H 0.4623 0.97405 0.06452 0.0
C3856 C 0.88883 0.60682 0.82445 0.0
C3857 C 0.90631 0.60185 0.81166 0.0
C3858 C 0.87442 0.61931 0.81511 0.0
C3859 C 0.87776 0.62598 0.79239 0.0
C3860 C 0.89669 0.62292 0.78065 0.0
C3861 C 0.91112 0.61098 0.7908 0.0
C3862 C 0.85455 0.62293 0.82815 0.0
C3863 C 0.90049 0.62993 0.75627 0.0
C3864 C 0.82946 0.62376 0.74856 0.0
C3865 C 0.83118 0.64883 0.74956 0.0
C3866 C 0.84405 0.6159 0.76351 0.0
C3867 C 0.86047 0.63373 0.77951 0.0
C3868 C 0.86175 0.65898 0.78136 0.0
C3869 C 0.84708 0.66625 0.76624 0.0
C3870 C 0.84256 0.58865 0.76143 0.0
C3871 C 0.87905 0.67821 0.79865 0.0
H3872 H 0.88534 0.59905 0.84047 0.0
H3873 H 0.92463 0.60633 0.78105 0.0
H3874 H 0.85129 0.64135 0.8277 0.0
H3875 H 0.83978 0.60901 0.81888 0.0
H3876 H 0.85667 0.62089 0.8474 0.0
H3877 H 0.9159 0.62568 0.74952 0.0
H3878 H 0.88645 0.61992 0.74257 0.0
H3879 H 0.90144 0.64988 0.75764 0.0
H3880 H 0.8169 0.61042 0.736 0.0
H3881 H 0.84836 0.68569 0.76724 0.0
H3882 H 0.84131 0.58362 0.77956 0.0
H3883 H 0.85777 0.58393 0.75462 0.0
H3884 H 0.82813 0.57733 0.74889 0.0
H3885 H 0.87818 0.67491 0.81748 0.0
H3886 H 0.87713 0.69721 0.79846 0.0
H3887 H 0.89577 0.67687 0.79372 0.0
C3888 C 0.87487 0.67958 0.0282 0.0
C3889 C 0.85496 0.66607 0.015 0.0
C3890 C 0.89241 0.66813 0.03222 0.0
C3891 C 0.89025 0.6429 0.02187 0.0
C3892 C 0.87074 0.6298 0.00695 0.0
C3893 C 0.85317 0.64137 1.00418 0.0
C3894 C 0.91278 0.68269 0.04851 0.0
C3895 C 0.86803 0.60322 0.9947 0.0
C3896 C 0.94126 0.61552 0.02471 0.0
C3897 C 0.93773 0.60294 0.04406 0.0
C3898 C 0.92581 0.62818 0.01682 0.0
C3899 C 0.90684 0.62928 0.02924 0.0
C3900 C 0.90319 0.61669 0.0487 0.0
C3901 C 0.91819 0.60312 0.05528 0.0
C3902 C 0.92984 0.64037 0.99524 0.0
C3903 C 0.88353 0.61785 0.06295 0.0
H3904 H 0.87632 0.69874 0.03638 0.0
H3905 H 0.83793 0.63103 0.99352 0.0
H3906 H 0.91593 0.67325 0.06362 0.0
H3907 H 0.92733 0.6839 0.03804 0.0
H3908 H 0.91134 0.70165 0.05636 0.0
H3909 H 0.85403 0.59725 0.98013 0.0
H3910 H 0.8833 0.60022 0.98669 0.0
H3911 H 0.86488 0.59132 0.00835 0.0
H3912 H 0.95622 0.61584 0.01585 0.0
H3913 H 0.9145 0.59273 0.06948 0.0
H3914 H 0.93429 0.66062 1.00146 0.0
H3915 H 0.91466 0.63585 0.98235 0.0
H3916 H 0.9434 0.6347 0.98537 0.0
H3917 H 0.88326 0.63732 0.07016 0.0
H3918 H 0.88371 0.60815 0.07845 0.0
H3919 H 0.86802 0.60948 0.05091 0.0
C3920 C 0.23329 0.09537 0.77308 0.0
C3921 C 0.21388 0.09392 0.78507 0.0
C3922 C 0.24749 0.11854 0.77148 0.0
C3923 C 0.24297 0.14158 0.78251 0.0
C3924 C 0.22366 0.14007 0.79498 0.0
C3925 C 0.20964 0.11687 0.79586 0.0
C3926 C 0.26719 0.11835 0.75731 0.0
C3927 C 0.21731 0.16322 0.80715 0.0
C3928 C 0.28917 0.20335 0.79523 0.0
C3929 C 0.28304 0.21655 0.77781 0.0
C3930 C 0.27654 0.17946 0.79704 0.0
C3931 C 0.25753 0.16708 0.78035 0.0
C3932 C 0.25176 0.1801 0.76232 0.0
C3933 C 0.26396 0.20433 0.76172 0.0
C3934 C 0.28311 0.16781 0.81761 0.0
C3935 C 0.23267 0.16825 0.74311 0.0
H3936 H 0.2371 0.07836 0.76421 0.0
H3937 H 0.19491 0.11683 0.80513 0.0
H3938 H 0.26684 0.12995 0.74339 0.0
H3939 H 0.28254 0.12639 0.76971 0.0
H3940 H 0.26782 0.0995 0.74813 0.0
H3941 H 0.20419 0.15939 0.81933 0.0
H3942 H 0.23184 0.17638 0.81792 0.0
H3943 H 0.21111 0.17231 0.79308 0.0
H3944 H 0.30337 0.21217 0.80829 0.0
H3945 H 0.25835 0.2137 0.74825 0.0
H3946 H 0.28714 0.14995 0.81025 0.0
H3947 H 0.26907 0.16399 0.82862 0.0
H3948 H 0.29756 0.17971 0.82971 0.0
H3949 H 0.23684 0.15241 0.7311 0.0
H3950 H 0.22876 0.18122 0.73171 0.0
H3951 H 0.21768 0.16098 0.75148 0.0
C3952 C 0.3911 0.96959 0.2946 0.0
C3953 C 0.40746 0.97163 0.31367 0.0
C3954 C 0.37591 0.94756 0.28592 0.0
C3955 C 0.37681 0.92743 0.29714 0.0
C3956 C 0.39347 0.9293 0.31623 0.0
C3957 C 0.40867 0.95159 0.32435 0.0
C3958 C 0.35975 0.94552 0.26396 0.0
C3959 C 0.39628 0.90795 0.32773 0.0
C3960 C 0.3257 0.87643 0.28529 0.0
C3961 C 0.33325 0.85843 0.27003 0.0
C3962 C 0.3399 0.89923 0.29474 0.0
C3963 C 0.36141 0.90399 0.28736 0.0
C3964 C 0.36823 0.88651 0.27008 0.0
C3965 C 0.35404 0.86376 0.26181 0.0
C3966 C 0.33226 0.91783 0.31304 0.0
C3967 C 0.39048 0.89171 0.26043 0.0
H3968 H 0.39064 0.98504 0.2858 0.0
H3969 H 0.42154 0.95325 0.33887 0.0
H3970 H 0.36118 0.93 0.24945 0.0
H3971 H 0.3426 0.94163 0.26884 0.0
H3972 H 0.36249 0.96257 0.25636 0.0
H3973 H 0.39278 0.91177 0.347 0.0
H3974 H 0.38565 0.8902 0.31823 0.0
H3975 H 0.41369 0.90616 0.32785 0.0
H3976 H 0.30902 0.87249 0.2901 0.0
H3977 H 0.35942 0.85 0.24917 0.0
H3978 H 0.33337 0.9353 0.3065 0.0
H3979 H 0.34324 0.92214 0.33032 0.0
H3980 H 0.31499 0.91116 0.31674 0.0
H3981 H 0.39137 0.90681 0.25015 0.0
H3982 H 0.39359 0.87535 0.24817 0.0
H3983 H 0.40387 0.89783 0.27562 0.0
C3984 C 0.61018 0.38801 0.57208 0.0
C3985 C 0.59823 0.37959 0.59059 0.0
C3986 C 0.60581 0.40797 0.56157 0.0
C3987 C 0.58845 0.4197 0.56882 0.0
C3988 C 0.57569 0.41039 0.58663 0.0
C3989 C 0.58095 0.39113 0.5975 0.0
C3990 C 0.62027 0.41698 0.54305 0.0
C3991 C 0.55605 0.42056 0.59398 0.0
C3992 C 0.58967 0.48741 0.56264 0.0
C3993 C 0.57724 0.48519 0.54019 0.0
C3994 C 0.59354 0.46661 0.57176 0.0
C3995 C 0.58423 0.44223 0.5588 0.0
C3996 C 0.57109 0.43984 0.53636 0.0
C3997 C 0.56854 0.46107 0.52703 0.0
C3998 C 0.60842 0.47086 0.59506 0.0
C3999 C 0.56001 0.41482 0.52166 0.0
H4000 H 0.62346 0.37944 0.56625 0.0
H4001 H 0.5711 0.38471 0.61126 0.0
H4002 H 0.61004 0.4169 0.52615 0.0
H4003 H 0.62927 0.43627 0.55027 0.0
H4004 H 0.63246 0.40557 0.5384 0.0
H4005 H 0.54716 0.41097 0.60728 0.0
H4006 H 0.56137 0.44044 0.6021 0.0
H4007 H 0.5444 0.41875 0.57762 0.0
H4008 H 0.59717 0.50567 0.57285 0.0
H4009 H 0.55995 0.45866 0.50912 0.0
H4010 H 0.62256 0.46207 0.59163 0.0
H4011 H 0.59937 0.46219 0.60879 0.0
H4012 H 0.61492 0.49072 0.60282 0.0
H4013 H 0.57198 0.40741 0.51039 0.0
H4014 H 0.54579 0.41579 0.50923 0.0
H4015 H 0.55413 0.40171 0.5336 0.0
C4016 C 0.43863 0.76041 0.39996 0.0
C4017 C 0.46058 0.77155 0.39738 0.0
C4018 C 0.42047 0.76198 0.38417 0.0
C4019 C 0.42377 0.77577 0.36539 0.0
C4020 C 0.44595 0.78689 0.36251 0.0
C4021 C 0.46393 0.78439 0.37817 0.0
C4022 C 0.39757 0.74894 0.38779 0.0
C4023 C 0.45066 0.80256 0.34361 0.0
C4024 C 0.37661 0.76625 0.31333 0.0
C4025 C 0.36546 0.78496 0.3213 0.0
C4026 C 0.39553 0.76326 0.32705 0.0
C4027 C 0.40401 0.77932 0.34971 0.0
C4028 C 0.39277 0.7982 0.3579 0.0
C4029 C 0.37371 0.80049 0.34398 0.0
C4030 C 0.40621 0.74244 0.31745 0.0
C4031 C 0.4007 0.81605 0.38167 0.0
H4032 H 0.43558 0.75049 0.41464 0.0
H4033 H 0.48059 0.79359 0.37612 0.0
H4034 H 0.38696 0.76234 0.39149 0.0
H4035 H 0.39001 0.73562 0.37089 0.0
H4036 H 0.39756 0.73889 0.40305 0.0
H4037 H 0.46859 0.80826 0.34206 0.0
H4038 H 0.44221 0.79253 0.32556 0.0
H4039 H 0.44407 0.81932 0.34854 0.0
H4040 H 0.3701 0.75327 0.29671 0.0
H4041 H 0.36536 0.81479 0.35095 0.0
H4042 H 0.40504 0.72952 0.33024 0.0
H4043 H 0.42398 0.74961 0.3162 0.0
H4044 H 0.39838 0.73207 0.29922 0.0
H4045 H 0.39658 0.80659 0.39698 0.0
H4046 H 0.39294 0.83215 0.38346 0.0
H4047 H 0.41888 0.82277 0.38342 0.0
C4048 C 0.07507 0.72933 0.07999 0.0
C4049 C 0.09618 0.74362 0.07871 0.0
C4050 C 0.07006 0.70323 0.07272 0.0
C4051 C 0.08669 0.69065 0.06492 0.0
C4052 C 0.1079 0.7051 0.06337 0.0
C4053 C 0.11223 0.73109 0.06986 0.0
C4054 C 0.04684 0.68906 0.07333 0.0
C4055 C 0.12634 0.69304 0.05543 0.0
C4056 C 0.07976 0.62473 0.07697 0.0
C4057 C 0.07366 0.60973 0.05377 0.0
C4058 C 0.08463 0.65072 0.08053 0.0
C4059 C 0.08259 0.6626 0.06056 0.0
C4060 C 0.07675 0.6475 0.03687 0.0
C4061 C 0.07253 0.6214 0.03378 0.0
C4062 C 0.0918 0.66554 0.10593 0.0
C4063 C 0.07366 0.65858 0.01478 0.0
H4064 H 0.06231 0.73857 0.08625 0.0
H4065 H 0.12859 0.74168 0.06859 0.0
H4066 H 0.04123 0.67548 0.05607 0.0
H4067 H 0.04638 0.67867 0.08831 0.0
H4068 H 0.03508 0.70133 0.07613 0.0
H4069 H 0.14187 0.70664 0.0549 0.0
H4070 H 0.12953 0.68102 0.06818 0.0
H4071 H 0.1215 0.68123 0.03708 0.0
H4072 H 0.08058 0.61601 0.09257 0.0
H4073 H 0.06734 0.61014 0.01579 0.0
H4074 H 0.07917 0.67581 0.11197 0.0
H4075 H 0.10741 0.67927 0.10613 0.0
H4076 H 0.09434 0.65381 0.11924 0.0
H4077 H 0.05671 0.6618 0.01325 0.0
H4078 H 0.07563 0.64602 0.99785 0.0
H4079 H 0.08537 0.67651 0.01612 0.0
C4080 C 0.10528 0.29654 0.914 0.0
C4081 C 0.08794 0.27563 0.9073 0.0
C4082 C 0.12461 0.29885 0.90194 0.0
C4083 C 0.12711 0.27943 0.88324 0.0
C4084 C 0.11032 0.25751 0.87784 0.0
C4085 C 0.09078 0.25611 0.88945 0.0
C4086 C 0.14175 0.32273 0.90819 0.0
C4087 C 0.11284 0.23568 0.85936 0.0
C4088 C 0.15907 0.29724 0.83091 0.0
C4089 C 0.18058 0.29515 0.83775 0.0
C4090 C 0.14175 0.29192 0.84537 0.0
C4091 C 0.14553 0.28337 0.86712 0.0
C4092 C 0.16684 0.27954 0.87338 0.0
C4093 C 0.18415 0.28568 0.85877 0.0
C4094 C 0.11955 0.29654 0.83779 0.0
C4095 C 0.17176 0.26991 0.89597 0.0
H4096 H 0.1032 0.31173 0.92775 0.0
H4097 H 0.0776 0.23974 0.88446 0.0
H4098 H 0.15831 0.31915 0.91202 0.0
H4099 H 0.14234 0.33206 0.89241 0.0
H4100 H 0.1382 0.33538 0.92422 0.0
H4101 H 0.09908 0.21943 0.85837 0.0
H4102 H 0.11349 0.24046 0.84108 0.0
H4103 H 0.12862 0.23064 0.86407 0.0
H4104 H 0.15591 0.30401 0.81447 0.0
H4105 H 0.20063 0.28401 0.86437 0.0
H4106 H 0.11493 0.30996 0.85239 0.0
H4107 H 0.10669 0.27926 0.83506 0.0
H4108 H 0.11942 0.30381 0.8207 0.0
H4109 H 0.17621 0.28549 0.91176 0.0
H4110 H 0.1859 0.26082 0.89433 0.0
H4111 H 0.15725 0.25664 0.89985 0.0
C4112 C 0.6293 0.76976 0.94104 0.0
C4113 C 0.61519 0.77431 0.92296 0.0
C4114 C 0.6222 0.75067 0.95335 0.0
C4115 C 0.60033 0.73652 0.94769 0.0
C4116 C 0.58667 0.73986 0.92804 0.0
C4117 C 0.59449 0.75863 0.91558 0.0
C4118 C 0.63737 0.74702 0.97372 0.0
C4119 C 0.56296 0.72581 0.92215 0.0
C4120 C 0.57889 0.68029 0.97371 0.0
C4121 C 0.57 0.69046 0.99458 0.0
C4122 C 0.58983 0.69525 0.95892 0.0
C4123 C 0.59075 0.72071 0.96427 0.0
C4124 C 0.58166 0.73113 0.98501 0.0
C4125 C 0.57198 0.71596 1.00027 0.0
C4126 C 0.60007 0.68382 0.93736 0.0
C4127 C 0.58185 0.75826 0.99097 0.0
H4128 H 0.64515 0.78239 0.94688 0.0
H4129 H 0.58345 0.76285 0.90204 0.0
H4130 H 0.63066 0.75151 0.99138 0.0
H4131 H 0.63847 0.72746 0.97104 0.0
H4132 H 0.65424 0.75872 0.97488 0.0
H4133 H 0.55548 0.72852 0.90465 0.0
H4134 H 0.56161 0.70586 0.92121 0.0
H4135 H 0.55319 0.73222 0.93684 0.0
H4136 H 0.57707 0.66059 0.96855 0.0
H4137 H 0.56581 0.72417 0.0166 0.0
H4138 H 0.61742 0.69387 0.93768 0.0
H4139 H 0.5911 0.68529 0.92021 0.0
H4140 H 0.59979 0.66411 0.93705 0.0
H4141 H 0.59904 0.76908 0.99593 0.0
H4142 H 0.57208 0.76285 0.00632 0.0
H4143 H 0.57506 0.76418 0.97486 0.0
C4144 C 0.094 0.77893 0.66952 0.0
C4145 C 0.07332 0.76728 0.67497 0.0
C4146 C 0.11338 0.7772 0.68255 0.0
C4147 C 0.1119 0.76279 0.70077 0.0
C4148 C 0.09102 0.75075 0.7061 0.0
C4149 C 0.07196 0.75346 0.69337 0.0
C4150 C 0.13537 0.79059 0.67666 0.0
C4151 C 0.08883 0.73482 0.72508 0.0
C4152 C 0.16057 0.73736 0.71931 0.0
C4153 C 0.16821 0.75256 0.74198 0.0
C4154 C 0.14246 0.74081 0.70536 0.0
C4155 C 0.13212 0.76011 0.71433 0.0
C4156 C 0.14034 0.776 0.73696 0.0
C4157 C 0.15831 0.77193 0.75063 0.0
C4158 C 0.13394 0.72331 0.68147 0.0
C4159 C 0.13001 0.79709 0.74679 0.0
H4160 H 0.09501 0.78962 0.65528 0.0
H4161 H 0.05594 0.74415 0.69735 0.0
H4162 H 0.14568 0.80114 0.69356 0.0
H4163 H 0.14438 0.77707 0.66778 0.0
H4164 H 0.13354 0.80345 0.66429 0.0
H4165 H 0.07141 0.72569 0.7261 0.0
H4166 H 0.09844 0.72043 0.72098 0.0
H4167 H 0.0957 0.74614 0.74322 0.0
H4168 H 0.16854 0.72253 0.71275 0.0
H4169 H 0.16463 0.7838 0.7681 0.0
H4170 H 0.13257 0.73367 0.66668 0.0
H4171 H 0.11716 0.71254 0.68277 0.0
H4172 H 0.14473 0.71031 0.67637 0.0
H4173 H 0.13014 0.8094 0.73348 0.0
H4174 H 0.13874 0.80809 0.76441 0.0
H4175 H 0.11253 0.78999 0.74943 0.0
C4176 C 0.12019 0.39737 0.44511 0.0
C4177 C 0.13032 0.39703 0.42355 0.0
C4178 C 0.11473 0.41856 0.45689 0.0
C4179 C 0.12121 0.44033 0.44787 0.0
C4180 C 0.1333 0.44081 0.42746 0.0
C4181 C 0.13727 0.41876 0.41499 0.0
C4182 C 0.1007 0.41713 0.47789 0.0
C4183 C 0.1414 0.46439 0.41859 0.0
C4184 C 0.08341 0.48254 0.46254 0.0
C4185 C 0.09359 0.49609 0.48513 0.0
C4186 C 0.09293 0.46498 0.44937 0.0
C4187 C 0.11346 0.46184 0.4588 0.0
C4188 C 0.12447 0.47647 0.48091 0.0
C4189 C 0.11408 0.4931 0.49419 0.0
C4190 C 0.08021 0.44856 0.42644 0.0
C4191 C 0.14652 0.47358 0.49125 0.0
H4192 H 0.11543 0.38082 0.45227 0.0
H4193 H 0.14557 0.41847 0.39858 0.0
H4194 H 0.10902 0.43048 0.49441 0.0
H4195 H 0.0848 0.42196 0.47325 0.0
H4196 H 0.09704 0.3985 0.4824 0.0
H4197 H 0.15189 0.46187 0.40348 0.0
H4198 H 0.12721 0.47142 0.4122 0.0
H4199 H 0.15103 0.47869 0.43381 0.0
H4200 H 0.06758 0.4848 0.45559 0.0
H4201 H 0.12211 0.50383 0.51161 0.0
H4202 H 0.07559 0.42933 0.42926 0.0
H4203 H 0.09056 0.44858 0.41111 0.0
H4204 H 0.0649 0.45429 0.42113 0.0
H4205 H 0.14407 0.45734 0.50004 0.0
H4206 H 0.15499 0.4899 0.50521 0.0
H4207 H 0.15742 0.47058 0.47666 0.0
C4208 C 0.45189 0.24968 0.21459 0.0
C4209 C 0.45868 0.26602 0.19924 0.0
C4210 C 0.43274 0.25054 0.22624 0.0
C4211 C 0.42091 0.26871 0.22294 0.0
C4212 C 0.42815 0.2854 0.20764 0.0
C4213 C 0.4469 0.28372 0.19588 0.0
C4214 C 0.42459 0.23139 0.24107 0.0
C4215 C 0.41668 0.30554 0.20403 0.0
C4216 C 0.36045 0.2591 0.23133 0.0
C4217 C 0.36106 0.27126 0.25539 0.0
C4218 C 0.37989 0.25752 0.22079 0.0
C4219 C 0.40033 0.26945 0.23438 0.0
C4220 C 0.401 0.28222 0.25861 0.0
C4221 C 0.38123 0.28204 0.26923 0.0
C4222 C 0.37851 0.24317 0.19513 0.0
C4223 C 0.42249 0.29626 0.27309 0.0
H4224 H 0.46099 0.2357 0.21664 0.0
H4225 H 0.45246 0.29642 0.18403 0.0
H4226 H 0.42311 0.24036 0.25993 0.0
H4227 H 0.40789 0.22068 0.23313 0.0
H4228 H 0.43566 0.21845 0.24173 0.0
H4229 H 0.42091 0.31268 0.18735 0.0
H4230 H 0.39853 0.29936 0.20297 0.0
H4231 H 0.42235 0.32085 0.21982 0.0
H4232 H 0.3447 0.25046 0.22086 0.0
H4233 H 0.3815 0.29053 0.28813 0.0
H4234 H 0.38865 0.2292 0.19463 0.0
H4235 H 0.38523 0.25571 0.183 0.0
H4236 H 0.36131 0.2337 0.18774 0.0
H4237 H 0.4329 0.28333 0.27651 0.0
H4238 H 0.41994 0.30698 0.29085 0.0
H4239 H 0.43176 0.30909 0.26258 0.0
C4240 C 0.66295 0.53617 0.36005 0.0
C4241 C 0.65484 0.51814 0.33862 0.0
C4242 C 0.65104 0.53898 0.38137 0.0
C4243 C 0.63048 0.52261 0.38309 0.0
C4244 C 0.62246 0.50402 0.36161 0.0
C4245 C 0.6341 0.50254 0.34004 0.0
C4246 C 0.66054 0.56019 0.40211 0.0
C4247 C 0.60138 0.48519 0.36129 0.0
C4248 C 0.61383 0.51856 0.45009 0.0
C4249 C 0.59547 0.52962 0.45285 0.0
C4250 C 0.62439 0.5154 0.42787 0.0
C4251 C 0.61787 0.52464 0.40703 0.0
C4252 C 0.59933 0.53598 0.40977 0.0
C4253 C 0.58844 0.53791 0.4319 0.0
C4254 C 0.64256 0.50154 0.42668 0.0
C4255 C 0.59145 0.54757 0.38975 0.0
H4256 H 0.67856 0.54884 0.35997 0.0
H4257 H 0.62703 0.48842 0.32422 0.0
H4258 H 0.64736 0.56892 0.40954 0.0
H4259 H 0.6684 0.5534 0.41697 0.0
H4260 H 0.67322 0.57439 0.39642 0.0
H4261 H 0.59953 0.46918 0.34608 0.0
H4262 H 0.60077 0.4785 0.37869 0.0
H4263 H 0.58709 0.49371 0.35911 0.0
H4264 H 0.61994 0.51187 0.46549 0.0
H4265 H 0.57476 0.54697 0.43307 0.0
H4266 H 0.65857 0.51437 0.42649 0.0
H4267 H 0.63973 0.48744 0.40963 0.0
H4268 H 0.64378 0.49232 0.44241 0.0
H4269 H 0.60227 0.5661 0.39119 0.0
H4270 H 0.57425 0.54973 0.39121 0.0
H4271 H 0.59237 0.53677 0.3715 0.0
C4272 C 0.34649 0.92874 0.091 0.0
C4273 C 0.32816 0.91921 0.07382 0.0
C4274 C 0.34902 0.91778 0.11104 0.0
C4275 C 0.33275 0.89705 0.11344 0.0
C4276 C 0.31276 0.88986 0.09796 0.0
C4277 C 0.31062 0.90142 0.07829 0.0
C4278 C 0.3705 0.92599 0.12735 0.0
C4279 C 0.29458 0.86846 0.10046 0.0
C4280 C 0.35899 0.84866 0.1328 0.0
C4281 C 0.356 0.85206 0.15754 0.0
C4282 C 0.35048 0.86247 0.11791 0.0
C4283 C 0.33889 0.88012 0.12824 0.0
C4284 C 0.33471 0.88261 0.15283 0.0
C4285 C 0.3434 0.8685 0.16731 0.0
C4286 C 0.35452 0.85875 0.09137 0.0
C4287 C 0.32199 0.90091 0.16401 0.0
H4288 H 0.36009 0.94242 0.08711 0.0
H4289 H 0.29648 0.8944 0.06473 0.0
H4290 H 0.36761 0.92583 0.14661 0.0
H4291 H 0.38128 0.91305 0.12198 0.0
H4292 H 0.37943 0.94473 0.12593 0.0
H4293 H 0.28383 0.86066 0.0831 0.0
H4294 H 0.30112 0.85346 0.10639 0.0
H4295 H 0.28416 0.87501 0.11435 0.0
H4296 H 0.36826 0.83543 0.12518 0.0
H4297 H 0.34105 0.87101 0.18648 0.0
H4298 H 0.36571 0.87545 0.08784 0.0
H4299 H 0.3388 0.85583 0.07968 0.0
H4300 H 0.36208 0.84278 0.08582 0.0
H4301 H 0.33189 0.91985 0.16517 0.0
H4302 H 0.31796 0.89856 0.18254 0.0
H4303 H 0.30643 0.89904 0.15239 0.0
C4304 C 0.9536 0.5639 0.89624 0.0
C4305 C 0.94762 0.54296 0.87801 0.0
C4306 C 0.97251 0.56725 0.91193 0.0
C4307 C 0.98507 0.54906 0.90884 0.0
C4308 C 0.97828 0.52724 0.89121 0.0
C4309 C 0.95889 0.52402 0.87655 0.0
C4310 C 0.97902 0.59 0.93183 0.0
C4311 C 0.991 0.50709 0.88829 0.0
C4312 C 0.03898 0.56199 0.94717 0.0
C4313 C 0.03125 0.55304 0.96731 0.0
C4314 C 0.02397 0.56084 0.92727 0.0
C4315 C 1.00154 0.54983 0.92806 0.0
C4316 C 0.99394 0.54056 0.94825 0.0
C4317 C 0.00874 0.54364 0.9681 0.0
C4318 C 0.03189 0.57102 0.90555 0.0
C4319 C 0.97017 0.52761 0.9492 0.0
H4320 H 0.94476 0.57853 0.89675 0.0
H4321 H 0.95376 0.50778 0.86233 0.0
H4322 H 0.97718 0.58477 0.94983 0.0
H4323 H 0.9966 0.59902 0.9317 0.0
H4324 H 0.96872 0.6035 0.92998 0.0
H4325 H 0.98642 0.4945 0.87027 0.0
H4326 H 0.00903 0.51485 0.89041 0.0
H4327 H 0.98735 0.49605 0.90258 0.0
H4328 H 0.05643 0.56936 0.94682 0.0
H4329 H 1.00257 0.53738 0.98393 0.0
H4330 H 0.02361 0.58601 0.90288 0.0
H4331 H 0.02736 0.5565 0.88885 0.0
H4332 H 0.05003 0.57833 0.90769 0.0
H4333 H 0.95943 0.54098 0.94985 0.0
H4334 H 0.96805 0.51888 0.96537 0.0
H4335 H 0.96418 0.51303 0.93277 0.0
C4336 C 0.2838 0.22482 0.59301 0.0
C4337 C 0.30178 0.22927 0.57948 0.0
C4338 C 0.28608 0.23283 0.61842 0.0
C4339 C 0.30676 0.24638 0.63068 0.0
C4340 C 0.32517 0.2504 0.61705 0.0
C4341 C 0.3225 0.24159 0.59162 0.0
C4342 C 0.26594 0.22789 0.63178 0.0
C4343 C 0.34759 0.26445 0.62926 0.0
C4344 C 0.30838 0.29161 0.69063 0.0
C4345 C 0.31321 0.27805 0.70797 0.0
C4346 C 0.30558 0.28127 0.66555 0.0
C4347 C 0.30884 0.2572 0.65746 0.0
C4348 C 0.31401 0.24356 0.67501 0.0
C4349 C 0.31583 0.25401 0.70001 0.0
C4350 C 0.29943 0.29629 0.64768 0.0
C4351 C 0.31783 0.218 0.66738 0.0
H4352 H 0.26776 0.21534 0.5836 0.0
H4353 H 0.33642 0.24512 0.58111 0.0
H4354 H 0.26998 0.22333 0.64967 0.0
H4355 H 0.25929 0.24471 0.63492 0.0
H4356 H 0.25283 0.21261 0.6211 0.0
H4357 H 0.35997 0.2671 0.61602 0.0
H4358 H 0.34651 0.28277 0.63943 0.0
H4359 H 0.3535 0.25442 0.64264 0.0
H4360 H 0.30679 0.31036 0.69673 0.0
H4361 H 0.31996 0.24361 0.71337 0.0
H4362 H 0.28433 0.28586 0.63575 0.0
H4363 H 0.31284 0.29989 0.63582 0.0
H4364 H 0.29641 0.31416 0.65688 0.0
H4365 H 0.30242 0.20549 0.65777 0.0
H4366 H 0.32316 0.21045 0.68313 0.0
H4367 H 0.33059 0.21811 0.65447 0.0
C4368 C 0.65909 0.52108 0.18381 0.0
C4369 C 0.64643 0.51304 0.20219 0.0
C4370 C 0.64921 0.52412 0.16071 0.0
C4371 C 0.62572 0.51953 0.15483 0.0
C4372 C 0.613 0.51079 0.17304 0.0
C4373 C 0.62321 0.50789 0.19576 0.0
C4374 C 0.66416 0.53327 0.14272 0.0
C4375 C 0.58817 0.50451 0.16867 0.0
C4376 C 0.59757 0.54999 0.10579 0.0
C4377 C 0.59426 0.53264 0.08355 0.0
C4378 C 0.60784 0.54631 0.12831 0.0
C4379 C 0.61449 0.52391 0.13023 0.0
C4380 C 0.60966 0.50558 0.10834 0.0
C4381 C 0.60057 0.51035 0.08585 0.0
C4382 C 0.61217 0.56704 0.15016 0.0
C4383 C 0.61445 0.48061 0.10828 0.0
H4384 H 0.67685 0.52619 0.18785 0.0
H4385 H 0.61262 0.50216 0.20921 0.0
H4386 H 0.65968 0.52077 0.12468 0.0
H4387 H 0.66191 0.55167 0.14041 0.0
H4388 H 0.68179 0.53466 0.14859 0.0
H4389 H 0.58028 0.49946 0.18478 0.0
H4390 H 0.58212 0.52027 0.16382 0.0
H4391 H 0.58276 0.48884 0.15304 0.0
H4392 H 0.59266 0.56697 0.10571 0.0
H4393 H 0.59857 0.49618 0.06968 0.0
H4394 H 0.63013 0.57261 0.15609 0.0
H4395 H 0.60387 0.56082 0.16556 0.0
H4396 H 0.60637 0.58335 0.14637 0.0
H4397 H 0.63235 0.48181 0.10731 0.0
H4398 H 0.60528 0.4667 0.09246 0.0
H4399 H 0.61005 0.47413 0.12522 0.0
C4400 C 0.35076 0.8906 0.95166 0.0
C4401 C 0.33647 0.9062 0.94928 0.0
C4402 C 0.35237 0.87232 0.93229 0.0
C4403 C 0.33924 0.8698 0.91031 0.0
C4404 C 0.32553 0.88632 0.90736 0.0
C4405 C 0.32443 0.90467 0.92711 0.0
C4406 C 0.36751 0.85525 0.9356 0.0
C4407 C 0.31137 0.8839 0.88382 0.0
C4408 C 0.35293 0.83699 0.85187 0.0
C4409 C 0.3351 0.81649 0.8468 0.0
C4410 C 0.35509 0.85429 0.8732 0.0
C4411 C 0.33987 0.84991 0.89024 0.0
C4412 C 0.32412 0.82737 0.88699 0.0
C4413 C 0.32203 0.81061 0.86507 0.0
C4414 C 0.37186 0.87839 0.87607 0.0
C4415 C 0.30837 0.82199 0.90569 0.0
H4416 H 0.36025 0.89217 0.96885 0.0
H4417 H 0.31326 0.91679 0.92565 0.0
H4418 H 0.35784 0.83599 0.9324 0.0
H4419 H 0.37971 0.85612 0.92206 0.0
H4420 H 0.37657 0.85987 0.95409 0.0
H4421 H 0.30276 0.89924 0.88418 0.0
H4422 H 0.32157 0.88343 0.86832 0.0
H4423 H 0.29879 0.86632 0.88038 0.0
H4424 H 0.36381 0.84097 0.8381 0.0
H4425 H 0.30915 0.79405 0.86162 0.0
H4426 H 0.38112 0.88341 0.89442 0.0
H4427 H 0.3632 0.89327 0.87412 0.0
H4428 H 0.3838 0.87778 0.86223 0.0
H4429 H 0.31775 0.82324 0.92348 0.0
H4430 H 0.29722 0.80344 0.90032 0.0
H4431 H 0.29814 0.83591 0.9083 0.0
C4432 C 0.94534 0.54442 0.73922 0.0
C4433 C 0.96088 0.54195 0.75725 0.0
C4434 C 0.95028 0.54295 0.71515 0.0
C4435 C 0.97094 0.53846 0.7094 0.0
C4436 C 0.98705 0.53728 0.72785 0.0
C4437 C 0.98185 0.53941 0.7516 0.0
C4438 C 0.93308 0.5451 0.696 0.0
C4439 C 0.0096 0.53281 0.72266 0.0
C4440 C 0.9903 0.50293 0.65845 0.0
C4441 C 1.00751 0.52151 0.6547 0.0
C4442 C 0.97413 0.50885 0.67297 0.0
C4443 C 0.97613 0.53371 0.68425 0.0
C4444 C 0.99099 0.55266 0.67674 0.0
C4445 C 1.00692 0.54628 0.66215 0.0
C4446 C 0.95753 0.48828 0.67964 0.0
C4447 C 0.99281 0.57941 0.68775 0.0
H4448 H 0.92911 0.54661 0.74367 0.0
H4449 H 0.99404 0.53809 0.76565 0.0
H4450 H 0.94071 0.55398 0.68158 0.0
H4451 H 0.92346 0.52647 0.68729 0.0
H4452 H 0.92137 0.55577 0.70411 0.0
H4453 H 0.01968 0.53174 0.73929 0.0
H4454 H 1.00793 0.5153 0.70949 0.0
H4455 H 0.01886 0.5479 0.71471 0.0
H4456 H 0.99025 0.48383 0.6513 0.0
H4457 H 0.01991 0.56063 0.65826 0.0
H4458 H 0.94164 0.49365 0.68241 0.0
H4459 H 0.96392 0.48405 0.69691 0.0
H4460 H 0.95457 0.4713 0.66537 0.0
H4461 H 0.97635 0.5831 0.69101 0.0
H4462 H 1.00077 0.59163 0.67589 0.0
H4463 H 1.00307 0.5841 0.70555 0.0
C4464 C 0.32392 0.21452 0.43646 0.0
C4465 C 0.30479 0.21563 0.4481 0.0
C4466 C 0.32792 0.22511 0.41586 0.0
C4467 C 0.31199 0.23626 0.40607 0.0
C4468 C 0.29272 0.23761 0.41796 0.0
C4469 C 0.28957 0.22769 0.43912 0.0
C4470 C 0.34919 0.2244 0.40458 0.0
C4471 C 0.275 0.24867 0.4078 0.0
C4472 C 0.32571 0.278 0.36007 0.0
C4473 C 0.31855 0.26167 0.3377 0.0
C4474 C 0.32431 0.26999 0.38239 0.0
C4475 C 0.31481 0.24506 0.38257 0.0
C4476 C 0.30773 0.22839 0.36012 0.0
C4477 C 0.31007 0.23676 0.33812 0.0
C4478 C 0.33277 0.28832 0.40579 0.0
C4479 C 0.29736 0.20166 0.35925 0.0
H4480 H 0.33596 0.20565 0.44372 0.0
H4481 H 0.27485 0.22865 0.4482 0.0
H4482 H 0.34566 0.21405 0.38553 0.0
H4483 H 0.3581 0.24337 0.40402 0.0
H4484 H 0.36019 0.21572 0.41477 0.0
H4485 H 0.26146 0.24924 0.41968 0.0
H4486 H 0.28209 0.26762 0.40541 0.0
H4487 H 0.26794 0.23766 0.38956 0.0
H4488 H 0.33195 0.29718 0.36043 0.0
H4489 H 0.30448 0.22373 0.32115 0.0
H4490 H 0.34508 0.28171 0.41645 0.0
H4491 H 0.31905 0.29014 0.41713 0.0
H4492 H 0.34055 0.30681 0.40254 0.0
H4493 H 0.31009 0.19226 0.36512 0.0
H4494 H 0.28987 0.19195 0.34069 0.0
H4495 H 0.28441 0.19991 0.37191 0.0
C4496 C 0.3586 0.61502 0.5545 0.0
C4497 C 0.34292 0.61039 0.53443 0.0
C4498 C 0.37735 0.60514 0.5527 0.0
C4499 C 0.38054 0.59151 0.53001 0.0
C4500 C 0.36462 0.58716 0.50967 0.0
C4501 C 0.34574 0.59637 0.51232 0.0
C4502 C 0.3938 0.60963 0.57479 0.0
C4503 C 0.36764 0.57317 0.48498 0.0
C4504 C 0.43416 0.58406 0.50721 0.0
C4505 C 0.43166 0.55872 0.50527 0.0
C4506 C 0.41862 0.59591 0.51791 0.0
C4507 C 0.40049 0.58184 0.52681 0.0
C4508 C 0.39931 0.55673 0.52717 0.0
C4509 C 0.41494 0.54531 0.51609 0.0
C4510 C 0.42018 0.62266 0.51694 0.0
C4511 C 0.38032 0.54144 0.53695 0.0
H4512 H 0.35616 0.62627 0.57143 0.0
H4513 H 0.3335 0.5934 0.49683 0.0
H4514 H 0.39928 0.59256 0.57653 0.0
H4515 H 0.40857 0.62365 0.57288 0.0
H4516 H 0.38685 0.61636 0.59178 0.0
H4517 H 0.35436 0.57307 0.47079 0.0
H4518 H 0.3837 0.58142 0.47911 0.0
H4519 H 0.36772 0.55384 0.48601 0.0
H4520 H 0.44733 0.5942 0.49881 0.0
H4521 H 0.41337 0.52567 0.51459 0.0
H4522 H 0.41621 0.63281 0.53426 0.0
H4523 H 0.40798 0.62399 0.50226 0.0
H4524 H 0.43684 0.6318 0.51319 0.0
H4525 H 0.37678 0.55155 0.55455 0.0
H4526 H 0.38368 0.52354 0.53955 0.0
H4527 H 0.36526 0.53771 0.524 0.0
C4528 C 0.90032 0.94434 0.55622 0.0
C4529 C 0.8937 0.92509 0.53589 0.0
C4530 C 0.92121 0.96083 0.55879 0.0
C4531 C 0.93547 0.95872 0.54011 0.0
C4532 C 0.92838 0.93978 0.5192 0.0
C4533 C 0.90792 0.92305 0.5176 0.0
C4534 C 0.92819 0.98013 0.58174 0.0
C4535 C 0.94256 0.9369 0.49851 0.0
C4536 C 0.98172 0.0133 0.53418 0.0
C4537 C 1.00072 1.00553 0.54108 0.0
C4538 C 0.96042 0.99856 0.53422 0.0
C4539 C 0.95791 0.97585 0.54224 0.0
C4540 C 0.97713 0.9686 0.55037 0.0
C4541 C 0.99822 0.98321 0.54918 0.0
C4542 C 0.94066 1.0067 0.52446 0.0
C4543 C 0.97546 0.94529 0.56023 0.0
H4544 H 0.88956 0.94592 0.57057 0.0
H4545 H 0.90294 0.90827 0.50181 0.0
H4546 H 0.9451 0.98016 0.58925 0.0
H4547 H 0.92855 0.99859 0.57759 0.0
H4548 H 0.91681 0.97719 0.59591 0.0
H4549 H 0.93375 0.92302 0.4825 0.0
H4550 H 0.94804 0.95474 0.49276 0.0
H4551 H 0.95755 0.93108 0.50464 0.0
H4552 H 0.98355 0.0303 0.52746 0.0
H4553 H 0.01285 0.97712 0.55453 0.0
H4554 H 0.92909 1.00841 0.53854 0.0
H4555 H 0.93165 0.99264 0.5087 0.0
H4556 H 0.94532 0.02461 0.51858 0.0
H4557 H 0.96663 0.94671 0.5768 0.0
H4558 H 0.9919 0.9417 0.56495 0.0
H4559 H 0.96574 0.92925 0.5468 0.0
C4560 C 0.92117 0.1625 0.29086 0.0
C4561 C 0.91302 0.13753 0.27864 0.0
C4562 C 0.90918 0.18202 0.2902 0.0
C4563 C 0.8878 0.1779 0.27677 0.0
C4564 C 0.87963 0.15281 0.26432 0.0
C4565 C 0.89178 0.13362 0.26557 0.0
C4566 C 0.91953 0.20741 0.30449 0.0
C4567 C 0.85773 0.14608 0.24902 0.0
C4568 C 0.84693 0.22544 0.2878 0.0
C4569 C 0.8496 0.2391 0.26877 0.0
C4570 C 0.85865 0.20603 0.29054 0.0
C4571 C 0.87469 0.19941 0.27459 0.0
C4572 C 0.87776 0.21362 0.25588 0.0
C4573 C 0.86552 0.23231 0.25321 0.0
C4574 C 0.85375 0.19244 0.31094 0.0
C4575 C 0.89456 0.20937 0.2384 0.0
H4576 H 0.93712 0.16697 0.30142 0.0
H4577 H 0.88445 0.11513 0.25577 0.0
H4578 H 0.91912 0.22136 0.29302 0.0
H4579 H 0.90987 0.21177 0.31998 0.0
H4580 H 0.93687 0.20904 0.31176 0.0
H4581 H 0.85268 0.12609 0.24114 0.0
H4582 H 0.84479 0.1515 0.2601 0.0
H4583 H 0.85869 0.15639 0.23394 0.0
H4584 H 0.83546 0.22972 0.30071 0.0
H4585 H 0.86879 0.24205 0.23845 0.0
H4586 H 0.8689 0.19574 0.32366 0.0
H4587 H 0.84877 0.17235 0.30359 0.0
H4588 H 0.84044 0.1982 0.3212 0.0
H4589 H 0.91133 0.21541 0.24836 0.0
H4590 H 0.89391 0.21962 0.22337 0.0
H4591 H 0.89202 0.18949 0.23048 0.0
C4592 C 0.70967 0.12418 1.00047 0.0
C4593 C 0.72724 0.12083 0.01516 0.0
C4594 C 0.68805 0.11372 1.00367 0.0
C4595 C 0.68413 0.1001 0.02235 0.0
C4596 C 0.70178 0.09475 0.03578 0.0
C4597 C 0.72336 0.1052 0.03194 0.0
C4598 C 0.66937 0.11805 0.98774 0.0
C4599 C 0.69777 0.07891 0.0547 0.0
C4600 C 0.62897 0.10463 0.04308 0.0
C4601 C 0.61582 0.08295 0.02937 0.0
C4602 C 0.65191 0.1091 0.04316 0.0
C4603 C 0.66138 0.09223 0.02785 0.0
C4604 C 0.64812 0.07018 0.0142 0.0
C4605 C 0.62545 0.06584 0.01522 0.0
C4606 C 0.66589 0.1325 0.05847 0.0
C4607 C 0.65741 0.0516 0.99756 0.0
H4608 H 0.71285 0.1359 0.98721 0.0
H4609 H 0.73708 0.10254 0.04321 0.0
H4610 H 0.65844 0.10018 0.9787 0.0
H4611 H 0.65926 0.12861 0.99905 0.0
H4612 H 0.67536 0.12831 0.97348 0.0
H4613 H 0.71337 0.07678 0.06385 0.0
H4614 H 0.68815 0.08701 0.06868 0.0
H4615 H 0.68778 0.0604 0.04601 0.0
H4616 H 0.62135 0.11807 0.05346 0.0
H4617 H 0.61512 0.04976 1.00356 0.0
H4618 H 0.67249 0.14526 0.04648 0.0
H4619 H 0.68016 0.12851 0.06858 0.0
H4620 H 0.65637 0.14187 0.07173 0.0
H4621 H 0.64564 0.04273 0.98118 0.0
H4622 H 0.66009 0.03705 0.0075 0.0
H4623 H 0.67336 0.05959 0.99135 0.0
C4624 C 0.24896 0.50049 0.25388 0.0
C4625 C 0.23395 0.4932 0.23301 0.0
C4626 C 0.25759 0.4833 0.26368 0.0
C4627 C 0.25205 0.45853 0.25124 0.0
C4628 C 0.23757 0.45117 0.22953 0.0
C4629 C 0.22803 0.46869 0.22095 0.0
C4630 C 0.27219 0.49172 0.28757 0.0
C4631 C 0.23179 0.42486 0.2159 0.0
C4632 C 0.29607 0.42917 0.27156 0.0
C4633 C 0.28662 0.4197 0.29072 0.0
C4634 C 0.28395 0.43988 0.25661 0.0
C4635 C 0.26208 0.44081 0.26117 0.0
C4636 C 0.25194 0.4293 0.27923 0.0
C4637 C 0.26452 0.41887 0.29401 0.0
C4638 C 0.29523 0.45248 0.23773 0.0
C4639 C 0.22885 0.43061 0.28505 0.0
H4640 H 0.25273 0.51946 0.26362 0.0
H4641 H 0.21582 0.4633 0.20522 0.0
H4642 H 0.26715 0.47926 0.30034 0.0
H4643 H 0.28949 0.49142 0.28429 0.0
H4644 H 0.2717 0.51069 0.2966 0.0
H4645 H 0.2216 0.42263 0.19836 0.0
H4646 H 0.24706 0.41831 0.21223 0.0
H4647 H 0.22255 0.41292 0.22719 0.0
H4648 H 0.31328 0.42958 0.2693 0.0
H4649 H 0.2575 0.41127 0.30893 0.0
H4650 H 0.29947 0.47268 0.24457 0.0
H4651 H 0.28407 0.4488 0.22065 0.0
H4652 H 0.31067 0.44649 0.23358 0.0
H4653 H 0.22939 0.44855 0.29713 0.0
H4654 H 0.22165 0.41577 0.29464 0.0
H4655 H 0.21779 0.42931 0.2684 0.0
C4656 C 0.2733 0.44856 0.04619 0.0
C4657 C 0.27128 0.42342 0.03704 0.0
C4658 C 0.25554 0.45983 0.04311 0.0
C4659 C 0.23527 0.44569 0.03042 0.0
C4660 C 0.23271 0.42 0.02247 0.0
C4661 C 0.25073 0.40917 0.02591 0.0
C4662 C 0.25886 0.48719 0.05226 0.0
C4663 C 0.21155 0.40419 0.00858 0.0
C4664 C 0.18478 0.47396 0.02787 0.0
C4665 C 0.187 0.48415 0.00675 0.0
C4666 C 0.20048 0.46178 0.03613 0.0
C4667 C 0.21821 0.45836 0.02232 0.0
C4668 C 0.22024 0.46784 1.00078 0.0
C4669 C 0.20533 0.48138 0.99392 0.0
C4670 C 0.19819 0.45269 0.05972 0.0
C4671 C 0.2384 0.46391 0.98491 0.0
H4672 H 0.28904 0.45969 0.05499 0.0
H4673 H 0.24896 0.38971 0.01884 0.0
H4674 H 0.25862 0.49664 0.03662 0.0
H4675 H 0.2452 0.49114 0.06294 0.0
H4676 H 0.27476 0.49513 0.06379 0.0
H4677 H 0.21056 0.38432 0.00808 0.0
H4678 H 0.19695 0.40921 0.01665 0.0
H4679 H 0.2107 0.4072 0.98959 0.0
H4680 H 0.17084 0.47529 0.0381 0.0
H4681 H 0.20848 0.48993 0.97841 0.0
H4682 H 0.21339 0.46084 0.07237 0.0
H4683 H 0.19623 0.43245 0.05634 0.0
H4684 H 0.18388 0.45742 0.06877 0.0
H4685 H 0.25458 0.47437 0.99455 0.0
H4686 H 0.23616 0.4699 0.96732 0.0
H4687 H 0.23898 0.44417 0.98099 0.0
C4688 C 0.89325 0.99154 0.27407 0.0
C4689 C 0.91646 0.99476 0.27498 0.0
C4690 C 0.87867 0.96771 0.27235 0.0
C4691 C 0.88692 0.9458 0.27152 0.0
C4692 C 0.91021 0.94903 0.272 0.0
C4693 C 0.92426 0.97279 0.27367 0.0
C4694 C 0.85421 0.96598 0.27168 0.0
C4695 C 0.92056 0.9271 0.27063 0.0
C4696 C 0.85448 0.88633 0.29169 0.0
C4697 C 0.84583 0.86965 0.26968 0.0
C4698 C 0.86703 0.91081 0.29248 0.0
C4699 C 0.87175 0.91978 0.27074 0.0
C4700 C 0.86305 0.90292 0.2484 0.0
C4701 C 0.8503 0.87857 0.24816 0.0
C4702 C 0.8757 0.92708 0.31691 0.0
C4703 C 0.86724 0.91052 0.22445 0.0
H4704 H 0.88638 1.00768 0.27498 0.0
H4705 H 0.94185 0.97403 0.27401 0.0
H4706 H 0.84543 0.95187 0.25585 0.0
H4707 H 0.8482 0.96002 0.28831 0.0
H4708 H 0.84986 0.9838 0.27057 0.0
H4709 H 0.93887 0.93241 0.27259 0.0
H4710 H 0.91524 0.91681 0.28507 0.0
H4711 H 0.91495 0.91438 0.25287 0.0
H4712 H 0.85155 0.88011 0.3086 0.0
H4713 H 0.84413 0.86625 0.2309 0.0
H4714 H 0.86995 0.94449 0.31852 0.0
H4715 H 0.89399 0.93198 0.31858 0.0
H4716 H 0.87035 0.9181 0.33224 0.0
H4717 H 0.85749 0.92427 0.2217 0.0
H4718 H 0.86253 0.89468 0.20888 0.0
H4719 H 0.88488 0.91935 0.22442 0.0
C4720 C 0.74299 0.12153 0.74237 0.0
C4721 C 0.72822 0.12187 0.76025 0.0
C4722 C 0.75828 0.14276 0.74089 0.0
C4723 C 0.75889 0.16426 0.75807 0.0
C4724 C 0.74405 0.1647 0.77621 0.0
C4725 C 0.72863 0.14335 0.77688 0.0
C4726 C 0.77337 0.14236 0.72084 0.0
C4727 C 0.74399 0.1878 0.79452 0.0
C4728 C 0.80381 0.2186 0.78037 0.0
C4729 C 0.79362 0.23601 0.77291 0.0
C4730 C 0.79421 0.19372 0.77243 0.0
C4731 C 0.77425 0.18699 0.75692 0.0
C4732 C 0.76572 0.20458 0.74683 0.0
C4733 C 0.77522 0.2292 0.75569 0.0
C4734 C 0.80327 0.17521 0.78385 0.0
C4735 C 0.74469 0.19765 0.72974 0.0
H4736 H 0.74222 0.10483 0.72914 0.0
H4737 H 0.71701 0.14339 0.79046 0.0
H4738 H 0.77168 0.15676 0.71029 0.0
H4739 H 0.7908 0.1466 0.72876 0.0
H4740 H 0.76983 0.12427 0.70813 0.0
H4741 H 0.73291 0.18412 0.80881 0.0
H4742 H 0.76085 0.19644 0.80351 0.0
H4743 H 0.73829 0.20134 0.7851 0.0
H4744 H 0.81811 0.22443 0.79381 0.0
H4745 H 0.76731 0.24312 0.75052 0.0
H4746 H 0.80183 0.15783 0.77056 0.0
H4747 H 0.79357 0.17085 0.79904 0.0
H4748 H 0.82082 0.18248 0.79129 0.0
H4749 H 0.74546 0.18235 0.71469 0.0
H4750 H 0.74152 0.21342 0.72193 0.0
H4751 H 0.73043 0.1912 0.73961 0.0
loop_
_geom_bond_atom_site_label_1
_geom_bond_atom_site_label_2
_geom_bond_distance
_geom_bond_site_symmetry_2
_ccdc_geom_bond_type
Co0 O1 2.216 . S
Co0 O2 2.091 . S
Co0 O4 2.004 . S
Co0 O10 2.021 . S
Co0 O12 2.137 . S
Co0 O13 2.244 . S
O1 Co0 2.216 . S
O1 C8 1.247 . S
O2 Co0 2.091 . S
O2 C8 1.261 . S
C3 O12 1.247 . S
C3 O13 1.272 . S
O4 Co0 2.004 . S
O4 C9 1.259 . S
Co5 O6 2.061 . S
Co5 O11 2.052 . S
Co5 O13 2.135 . S
O6 Co5 2.061 . S
O6 C9 1.235 . S
C7 O10 1.238 . S
C7 O11 1.241 . S
C8 O1 1.247 . S
C8 O2 1.261 . S
C9 O4 1.259 . S
C9 O6 1.235 . S
O10 Co0 2.021 . S
O10 C7 1.238 . S
O11 Co5 2.052 . S
O11 C7 1.241 . S
O12 Co0 2.137 . S
O12 C3 1.247 . S
O13 Co0 2.244 . S
O13 C3 1.272 . S
O13 Co5 2.135 . S
Co14 O15 2.216 . S
Co14 O16 2.091 . S
Co14 O18 2.004 1_655 S
Co14 O24 2.021 . S
Co14 O26 2.137 . S
Co14 O27 2.244 1_655 S
O15 Co14 2.216 . S
O15 C22 1.247 . S
O16 Co14 2.091 . S
O16 C22 1.261 . S
C17 O26 1.247 1_455 S
C17 O27 1.272 . S
O18 Co14 2.004 1_455 S
O18 C23 1.259 . S
Co19 O20 2.061 . S
Co19 O25 2.052 . S
Co19 O27 2.135 . S
O20 Co19 2.061 . S
O20 C23 1.235 . S
C21 O24 1.238 . S
C21 O25 1.241 1_655 S
C22 O15 1.247 . S
C22 O16 1.261 . S
C23 O18 1.259 . S
C23 O20 1.235 . S
O24 Co14 2.021 . S
O24 C21 1.238 . S
O25 Co19 2.052 . S
O25 C21 1.241 1_455 S
O26 Co14 2.137 . S
O26 C17 1.247 1_655 S
O27 Co14 2.244 1_455 S
O27 C17 1.272 . S
O27 Co19 2.135 . S
Co28 O29 2.216 . S
Co28 O30 2.091 . S
Co28 O32 2.004 . S
Co28 O38 2.021 . S
Co28 O40 2.137 . S
Co28 O41 2.244 . S
O29 Co28 2.216 . S
O29 C36 1.247 . S
O30 Co28 2.091 . S
O30 C36 1.261 . S
C31 O40 1.247 . S
C31 O41 1.272 . S
O32 Co28 2.004 . S
O32 C37 1.259 . S
Co33 O34 2.061 . S
Co33 O39 2.052 . S
Co33 O41 2.135 . S
O34 Co33 2.061 . S
O34 C37 1.235 . S
C35 O38 1.238 . S
C35 O39 1.241 . S
C36 O29 1.247 . S
C36 O30 1.261 . S
C37 O32 1.259 . S
C37 O34 1.235 . S
O38 Co28 2.021 . S
O38 C35 1.238 . S
O39 Co33 2.052 . S
O39 C35 1.241 . S
O40 Co28 2.137 . S
O40 C31 1.247 . S
O41 Co28 2.244 . S
O41 C31 1.272 . S
O41 Co33 2.135 . S
Co42 O43 2.216 . S
Co42 O44 2.091 . S
Co42 O46 2.004 . S
Co42 O52 2.021 . S
Co42 O54 2.137 . S
Co42 O55 2.244 . S
O43 Co42 2.216 . S
O43 C50 1.247 . S
O44 Co42 2.091 . S
O44 C50 1.261 . S
C45 O54 1.247 . S
C45 O55 1.272 . S
O46 Co42 2.004 . S
O46 C51 1.259 . S
Co47 O48 2.061 . S
Co47 O53 2.052 . S
Co47 O55 2.135 . S
O48 Co47 2.061 . S
O48 C51 1.235 . S
C49 O52 1.238 . S
C49 O53 1.241 . S
C50 O43 1.247 . S
C50 O44 1.261 . S
C51 O46 1.259 . S
C51 O48 1.235 . S
O52 Co42 2.021 . S
O52 C49 1.238 . S
O53 Co47 2.052 . S
O53 C49 1.241 . S
O54 Co42 2.137 . S
O54 C45 1.247 . S
O55 Co42 2.244 . S
O55 C45 1.272 . S
O55 Co47 2.135 . S
Co56 O57 2.216 . S
Co56 O58 2.091 . S
Co56 O60 2.004 . S
Co56 O66 2.021 . S
Co56 O68 2.137 . S
Co56 O69 2.244 . S
O57 Co56 2.216 . S
O57 C64 1.247 . S
O58 Co56 2.091 . S
O58 C64 1.261 . S
C59 O68 1.247 . S
C59 O69 1.272 . S
O60 Co56 2.004 . S
O60 C65 1.259 . S
Co61 O62 2.061 . S
Co61 O67 2.052 . S
Co61 O69 2.135 . S
O62 Co61 2.061 . S
O62 C65 1.235 . S
C63 O66 1.238 . S
C63 O67 1.241 . S
C64 O57 1.247 . S
C64 O58 1.261 . S
C65 O60 1.259 . S
C65 O62 1.235 . S
O66 Co56 2.021 . S
O66 C63 1.238 . S
O67 Co61 2.052 . S
O67 C63 1.241 . S
O68 Co56 2.137 . S
O68 C59 1.247 . S
O69 Co56 2.244 . S
O69 C59 1.272 . S
O69 Co61 2.135 . S
Co70 O71 2.216 . S
Co70 O72 2.091 . S
Co70 O74 2.004 . S
Co70 O80 2.021 . S
Co70 O82 2.137 . S
Co70 O83 2.244 . S
O71 Co70 2.216 . S
O71 C78 1.247 . S
O72 Co70 2.091 . S
O72 C78 1.261 . S
C73 O82 1.247 . S
C73 O83 1.272 . S
O74 Co70 2.004 . S
O74 C79 1.259 . S
Co75 O76 2.061 . S
Co75 O81 2.052 . S
Co75 O83 2.135 . S
O76 Co75 2.061 . S
O76 C79 1.235 . S
C77 O80 1.238 . S
C77 O81 1.241 . S
C78 O71 1.247 . S
C78 O72 1.261 . S
C79 O74 1.259 . S
C79 O76 1.235 . S
O80 Co70 2.021 . S
O80 C77 1.238 . S
O81 Co75 2.052 . S
O81 C77 1.241 . S
O82 Co70 2.137 . S
O82 C73 1.247 . S
O83 Co70 2.244 . S
O83 C73 1.272 . S
O83 Co75 2.135 . S
Co84 O85 2.216 . S
Co84 O86 2.091 . S
Co84 O88 2.004 . S
Co84 O94 2.021 . S
Co84 O96 2.137 . S
Co84 O97 2.244 . S
O85 Co84 2.216 . S
O85 C92 1.247 . S
O86 Co84 2.091 . S
O86 C92 1.261 . S
C87 O96 1.247 . S
C87 O97 1.272 . S
O88 Co84 2.004 . S
O88 C93 1.259 . S
Co89 O90 2.061 . S
Co89 O95 2.052 . S
Co89 O97 2.135 . S
O90 Co89 2.061 . S
O90 C93 1.235 . S
C91 O94 1.238 . S
C91 O95 1.241 . S
C92 O85 1.247 . S
C92 O86 1.261 . S
C93 O88 1.259 . S
C93 O90 1.235 . S
O94 Co84 2.021 . S
O94 C91 1.238 . S
O95 Co89 2.052 . S
O95 C91 1.241 . S
O96 Co84 2.137 . S
O96 C87 1.247 . S
O97 Co84 2.244 . S
O97 C87 1.272 . S
O97 Co89 2.135 . S
Co98 O99 2.216 . S
Co98 O100 2.091 . S
Co98 O102 2.004 1_455 S
Co98 O108 2.021 . S
Co98 O110 2.137 . S
Co98 O111 2.244 . S
O99 Co98 2.216 . S
O99 C106 1.247 . S
O100 Co98 2.091 . S
O100 C106 1.261 . S
C101 O110 1.247 . S
C101 O111 1.272 . S
O102 Co98 2.004 1_655 S
O102 C107 1.259 . S
Co103 O104 2.061 . S
Co103 O109 2.052 1_655 S
Co103 O111 2.135 1_655 S
O104 Co103 2.061 . S
O104 C107 1.235 . S
C105 O108 1.238 . S
C105 O109 1.241 . S
C106 O99 1.247 . S
C106 O100 1.261 . S
C107 O102 1.259 . S
C107 O104 1.235 . S
O108 Co98 2.021 . S
O108 C105 1.238 . S
O109 Co103 2.052 1_455 S
O109 C105 1.241 . S
O110 Co98 2.137 . S
O110 C101 1.247 . S
O111 Co98 2.244 . S
O111 C101 1.272 . S
O111 Co103 2.135 1_455 S
Co112 O113 2.216 . S
Co112 O114 2.091 . S
Co112 O116 2.004 1_545 S
Co112 O122 2.021 . S
Co112 O124 2.137 . S
Co112 O125 2.244 . S
O113 Co112 2.216 . S
O113 C120 1.247 . S
O114 Co112 2.091 . S
O114 C120 1.261 . S
C115 O124 1.247 . S
C115 O125 1.272 . S
O116 Co112 2.004 1_565 S
O116 C121 1.259 . S
Co117 O118 2.061 . S
Co117 O123 2.052 1_565 S
Co117 O125 2.135 1_565 S
O118 Co117 2.061 . S
O118 C121 1.235 . S
C119 O122 1.238 . S
C119 O123 1.241 . S
C120 O113 1.247 . S
C120 O114 1.261 . S
C121 O116 1.259 . S
C121 O118 1.235 . S
O122 Co112 2.021 . S
O122 C119 1.238 . S
O123 Co117 2.052 1_545 S
O123 C119 1.241 . S
O124 Co112 2.137 . S
O124 C115 1.247 . S
O125 Co112 2.244 . S
O125 C115 1.272 . S
O125 Co117 2.135 1_545 S
Co126 O127 2.216 . S
Co126 O128 2.091 . S
Co126 O130 2.004 . S
Co126 O136 2.021 . S
Co126 O138 2.137 . S
Co126 O139 2.244 . S
O127 Co126 2.216 . S
O127 C134 1.247 . S
O128 Co126 2.091 . S
O128 C134 1.261 . S
C129 O138 1.247 . S
C129 O139 1.272 . S
O130 Co126 2.004 . S
O130 C135 1.259 . S
Co131 O132 2.061 . S
Co131 O137 2.052 . S
Co131 O139 2.135 . S
O132 Co131 2.061 . S
O132 C135 1.235 . S
C133 O136 1.238 . S
C133 O137 1.241 . S
C134 O127 1.247 . S
C134 O128 1.261 . S
C135 O130 1.259 . S
C135 O132 1.235 . S
O136 Co126 2.021 . S
O136 C133 1.238 . S
O137 Co131 2.052 . S
O137 C133 1.241 . S
O138 Co126 2.137 . S
O138 C129 1.247 . S
O139 Co126 2.244 . S
O139 C129 1.272 . S
O139 Co131 2.135 . S
Co140 O141 2.216 . S
Co140 O142 2.091 . S
Co140 O144 2.004 1_565 S
Co140 O150 2.021 . S
Co140 O152 2.137 . S
Co140 O153 2.244 1_565 S
O141 Co140 2.216 . S
O141 C148 1.247 . S
O142 Co140 2.091 . S
O142 C148 1.261 . S
C143 O152 1.247 1_545 S
C143 O153 1.272 . S
O144 Co140 2.004 1_545 S
O144 C149 1.259 . S
Co145 O146 2.061 . S
Co145 O151 2.052 . S
Co145 O153 2.135 . S
O146 Co145 2.061 . S
O146 C149 1.235 . S
C147 O150 1.238 . S
C147 O151 1.241 1_565 S
C148 O141 1.247 . S
C148 O142 1.261 . S
C149 O144 1.259 . S
C149 O146 1.235 . S
O150 Co140 2.021 . S
O150 C147 1.238 . S
O151 Co145 2.052 . S
O151 C147 1.241 1_545 S
O152 Co140 2.137 . S
O152 C143 1.247 1_565 S
O153 Co140 2.244 1_545 S
O153 C143 1.272 . S
O153 Co145 2.135 . S
Co154 O155 2.216 . S
Co154 O156 2.091 . S
Co154 O158 2.004 . S
Co154 O164 2.021 . S
Co154 O166 2.137 1_554 S
Co154 O167 2.244 1_554 S
O155 Co154 2.216 . S
O155 C162 1.247 . S
O156 Co154 2.091 . S
O156 C162 1.261 . S
C157 O166 1.247 . S
C157 O167 1.272 . S
O158 Co154 2.004 . S
O158 C163 1.259 . S
Co159 O160 2.061 . S
Co159 O165 2.052 . S
Co159 O167 2.135 1_554 S
O160 Co159 2.061 . S
O160 C163 1.235 . S
C161 O164 1.238 . S
C161 O165 1.241 . S
C162 O155 1.247 . S
C162 O156 1.261 . S
C163 O158 1.259 . S
C163 O160 1.235 . S
O164 Co154 2.021 . S
O164 C161 1.238 . S
O165 Co159 2.052 . S
O165 C161 1.241 . S
O166 Co154 2.137 1_556 S
O166 C157 1.247 . S
O167 Co154 2.244 1_556 S
O167 C157 1.272 . S
O167 Co159 2.135 1_556 S
Co168 O169 2.216 . S
Co168 O170 2.091 . S
Co168 O172 2.004 . S
Co168 O178 2.021 . S
Co168 O180 2.137 1_554 S
Co168 O181 2.244 . S
O169 Co168 2.216 . S
O169 C176 1.247 . S
O170 Co168 2.091 . S
O170 C176 1.261 . S
C171 O180 1.247 . S
C171 O181 1.272 1_556 S
O172 Co168 2.004 . S
O172 C177 1.259 . S
Co173 O174 2.061 . S
Co173 O179 2.052 . S
Co173 O181 2.135 . S
O174 Co173 2.061 . S
O174 C177 1.235 . S
C175 O178 1.238 . S
C175 O179 1.241 . S
C176 O169 1.247 . S
C176 O170 1.261 . S
C177 O172 1.259 . S
C177 O174 1.235 . S
O178 Co168 2.021 . S
O178 C175 1.238 . S
O179 Co173 2.052 . S
O179 C175 1.241 . S
O180 Co168 2.137 1_556 S
O180 C171 1.247 . S
O181 Co168 2.244 . S
O181 C171 1.272 1_554 S
O181 Co173 2.135 . S
Co182 O183 2.216 . S
Co182 O184 2.091 . S
Co182 O186 2.004 . S
Co182 O192 2.021 . S
Co182 O194 2.137 1_554 S
Co182 O195 2.244 . S
O183 Co182 2.216 . S
O183 C190 1.247 . S
O184 Co182 2.091 . S
O184 C190 1.261 . S
C185 O194 1.247 . S
C185 O195 1.272 1_556 S
O186 Co182 2.004 . S
O186 C191 1.259 . S
Co187 O188 2.061 . S
Co187 O193 2.052 . S
Co187 O195 2.135 . S
O188 Co187 2.061 . S
O188 C191 1.235 . S
C189 O192 1.238 . S
C189 O193 1.241 . S
C190 O183 1.247 . S
C190 O184 1.261 . S
C191 O186 1.259 . S
C191 O188 1.235 . S
O192 Co182 2.021 . S
O192 C189 1.238 . S
O193 Co187 2.052 . S
O193 C189 1.241 . S
O194 Co182 2.137 1_556 S
O194 C185 1.247 . S
O195 Co182 2.244 . S
O195 C185 1.272 1_554 S
O195 Co187 2.135 . S
Co196 O197 2.216 . S
Co196 O198 2.091 . S
Co196 O200 2.004 . S
Co196 O206 2.021 . S
Co196 O208 2.137 . S
Co196 O209 2.244 . S
O197 Co196 2.216 . S
O197 C204 1.247 . S
O198 Co196 2.091 . S
O198 C204 1.261 . S
C199 O208 1.247 . S
C199 O209 1.272 . S
O200 Co196 2.004 . S
O200 C205 1.259 . S
Co201 O202 2.061 . S
Co201 O207 2.052 . S
Co201 O209 2.135 . S
O202 Co201 2.061 . S
O202 C205 1.235 . S
C203 O206 1.238 . S
C203 O207 1.241 . S
C204 O197 1.247 . S
C204 O198 1.261 . S
C205 O200 1.259 . S
C205 O202 1.235 . S
O206 Co196 2.021 . S
O206 C203 1.238 . S
O207 Co201 2.052 . S
O207 C203 1.241 . S
O208 Co196 2.137 . S
O208 C199 1.247 . S
O209 Co196 2.244 . S
O209 C199 1.272 . S
O209 Co201 2.135 . S
Co210 O211 2.216 . S
Co210 O212 2.091 . S
Co210 O214 2.004 . S
Co210 O220 2.021 . S
Co210 O222 2.137 . S
Co210 O223 2.244 . S
O211 Co210 2.216 . S
O211 C218 1.247 . S
O212 Co210 2.091 . S
O212 C218 1.261 . S
C213 O222 1.247 . S
C213 O223 1.272 . S
O214 Co210 2.004 . S
O214 C219 1.259 . S
Co215 O216 2.061 . S
Co215 O221 2.052 . S
Co215 O223 2.135 . S
O216 Co215 2.061 . S
O216 C219 1.235 . S
C217 O220 1.238 . S
C217 O221 1.241 . S
C218 O211 1.247 . S
C218 O212 1.261 . S
C219 O214 1.259 . S
C219 O216 1.235 . S
O220 Co210 2.021 . S
O220 C217 1.238 . S
O221 Co215 2.052 . S
O221 C217 1.241 . S
O222 Co210 2.137 . S
O222 C213 1.247 . S
O223 Co210 2.244 . S
O223 C213 1.272 . S
O223 Co215 2.135 . S
Co224 O225 2.216 . S
Co224 O226 2.091 . S
Co224 O228 2.004 . S
Co224 O234 2.021 . S
Co224 O236 2.137 . S
Co224 O237 2.244 . S
O225 Co224 2.216 . S
O225 C232 1.247 . S
O226 Co224 2.091 . S
O226 C232 1.261 . S
C227 O236 1.247 . S
C227 O237 1.272 . S
O228 Co224 2.004 . S
O228 C233 1.259 . S
Co229 O230 2.061 . S
Co229 O235 2.052 . S
Co229 O237 2.135 . S
O230 Co229 2.061 . S
O230 C233 1.235 . S
C231 O234 1.238 . S
C231 O235 1.241 . S
C232 O225 1.247 . S
C232 O226 1.261 . S
C233 O228 1.259 . S
C233 O230 1.235 . S
O234 Co224 2.021 . S
O234 C231 1.238 . S
O235 Co229 2.052 . S
O235 C231 1.241 . S
O236 Co224 2.137 . S
O236 C227 1.247 . S
O237 Co224 2.244 . S
O237 C227 1.272 . S
O237 Co229 2.135 . S
Co238 O239 2.216 . S
Co238 O240 2.091 . S
Co238 O242 2.004 . S
Co238 O248 2.021 . S
Co238 O250 2.137 . S
Co238 O251 2.244 . S
O239 Co238 2.216 . S
O239 C246 1.247 . S
O240 Co238 2.091 . S
O240 C246 1.261 . S
C241 O250 1.247 . S
C241 O251 1.272 . S
O242 Co238 2.004 . S
O242 C247 1.259 . S
Co243 O244 2.061 . S
Co243 O249 2.052 . S
Co243 O251 2.135 . S
O244 Co243 2.061 . S
O244 C247 1.235 . S
C245 O248 1.238 . S
C245 O249 1.241 . S
C246 O239 1.247 . S
C246 O240 1.261 . S
C247 O242 1.259 . S
C247 O244 1.235 . S
O248 Co238 2.021 . S
O248 C245 1.238 . S
O249 Co243 2.052 . S
O249 C245 1.241 . S
O250 Co238 2.137 . S
O250 C241 1.247 . S
O251 Co238 2.244 . S
O251 C241 1.272 . S
O251 Co243 2.135 . S
Co252 O253 2.216 . S
Co252 O254 2.091 . S
Co252 O256 2.004 . S
Co252 O262 2.021 . S
Co252 O264 2.137 . S
Co252 O265 2.244 . S
O253 Co252 2.216 . S
O253 C260 1.247 . S
O254 Co252 2.091 . S
O254 C260 1.261 . S
C255 O264 1.247 . S
C255 O265 1.272 . S
O256 Co252 2.004 . S
O256 C261 1.259 . S
Co257 O258 2.061 . S
Co257 O263 2.052 . S
Co257 O265 2.135 . S
O258 Co257 2.061 . S
O258 C261 1.235 . S
C259 O262 1.238 . S
C259 O263 1.241 . S
C260 O253 1.247 . S
C260 O254 1.261 . S
C261 O256 1.259 . S
C261 O258 1.235 . S
O262 Co252 2.021 . S
O262 C259 1.238 . S
O263 Co257 2.052 . S
O263 C259 1.241 . S
O264 Co252 2.137 . S
O264 C255 1.247 . S
O265 Co252 2.244 . S
O265 C255 1.272 . S
O265 Co257 2.135 . S
Co266 O267 2.216 . S
Co266 O268 2.091 . S
Co266 O270 2.004 . S
Co266 O276 2.021 . S
Co266 O278 2.137 . S
Co266 O279 2.244 . S
O267 Co266 2.216 . S
O267 C274 1.247 . S
O268 Co266 2.091 . S
O268 C274 1.261 . S
C269 O278 1.247 . S
C269 O279 1.272 . S
O270 Co266 2.004 . S
O270 C275 1.259 . S
Co271 O272 2.061 . S
Co271 O277 2.052 . S
Co271 O279 2.135 . S
O272 Co271 2.061 . S
O272 C275 1.235 . S
C273 O276 1.238 . S
C273 O277 1.241 . S
C274 O267 1.247 . S
C274 O268 1.261 . S
C275 O270 1.259 . S
C275 O272 1.235 . S
O276 Co266 2.021 . S
O276 C273 1.238 . S
O277 Co271 2.052 . S
O277 C273 1.241 . S
O278 Co266 2.137 . S
O278 C269 1.247 . S
O279 Co266 2.244 . S
O279 C269 1.272 . S
O279 Co271 2.135 . S
Co280 O281 2.216 . S
Co280 O282 2.091 . S
Co280 O284 2.004 . S
Co280 O290 2.021 1_556 S
Co280 O292 2.137 . S
Co280 O293 2.244 . S
O281 Co280 2.216 . S
O281 C288 1.246 . S
O282 Co280 2.091 . S
O282 C288 1.261 . S
C283 O292 1.247 . S
C283 O293 1.272 . S
O284 Co280 2.004 . S
O284 C289 1.259 . S
Co285 O286 2.061 . S
Co285 O291 2.052 . S
Co285 O293 2.135 1_554 S
O286 Co285 2.061 . S
O286 C289 1.235 1_554 S
C287 O290 1.238 . S
C287 O291 1.241 . S
C288 O281 1.246 . S
C288 O282 1.261 . S
C289 O284 1.259 . S
C289 O286 1.235 1_556 S
O290 Co280 2.021 1_554 S
O290 C287 1.238 . S
O291 Co285 2.052 . S
O291 C287 1.241 . S
O292 Co280 2.137 . S
O292 C283 1.247 . S
O293 Co280 2.244 . S
O293 C283 1.272 . S
O293 Co285 2.135 1_556 S
Co294 O295 2.216 . S
Co294 O296 2.091 . S
Co294 O298 2.004 . S
Co294 O304 2.021 . S
Co294 O306 2.137 . S
Co294 O307 2.244 . S
O295 Co294 2.216 . S
O295 C302 1.247 . S
O296 Co294 2.091 . S
O296 C302 1.261 . S
C297 O306 1.247 . S
C297 O307 1.272 . S
O298 Co294 2.004 . S
O298 C303 1.259 . S
Co299 O300 2.061 . S
Co299 O305 2.052 . S
Co299 O307 2.135 . S
O300 Co299 2.061 . S
O300 C303 1.235 . S
C301 O304 1.238 . S
C301 O305 1.241 . S
C302 O295 1.247 . S
C302 O296 1.261 . S
C303 O298 1.259 . S
C303 O300 1.235 . S
O304 Co294 2.021 . S
O304 C301 1.238 . S
O305 Co299 2.052 . S
O305 C301 1.241 . S
O306 Co294 2.137 . S
O306 C297 1.247 . S
O307 Co294 2.244 . S
O307 C297 1.272 . S
O307 Co299 2.135 . S
Co308 O309 2.216 . S
Co308 O310 2.091 . S
Co308 O312 2.004 . S
Co308 O318 2.021 . S
Co308 O320 2.137 . S
Co308 O321 2.244 . S
O309 Co308 2.216 . S
O309 C316 1.247 . S
O310 Co308 2.091 . S
O310 C316 1.261 . S
C311 O320 1.247 . S
C311 O321 1.272 . S
O312 Co308 2.004 . S
O312 C317 1.259 . S
Co313 O314 2.061 . S
Co313 O319 2.052 . S
Co313 O321 2.135 . S
O314 Co313 2.061 . S
O314 C317 1.235 . S
C315 O318 1.238 . S
C315 O319 1.241 . S
C316 O309 1.247 . S
C316 O310 1.261 . S
C317 O312 1.259 . S
C317 O314 1.235 . S
O318 Co308 2.021 . S
O318 C315 1.238 . S
O319 Co313 2.052 . S
O319 C315 1.241 . S
O320 Co308 2.137 . S
O320 C311 1.247 . S
O321 Co308 2.244 . S
O321 C311 1.272 . S
O321 Co313 2.135 . S
Co322 O323 2.216 . S
Co322 O324 2.091 . S
Co322 O326 2.004 . S
Co322 O332 2.021 . S
Co322 O334 2.137 . S
Co322 O335 2.244 . S
O323 Co322 2.216 . S
O323 C330 1.247 . S
O324 Co322 2.091 . S
O324 C330 1.261 . S
C325 O334 1.247 . S
C325 O335 1.272 . S
O326 Co322 2.004 . S
O326 C331 1.259 . S
Co327 O328 2.061 . S
Co327 O333 2.052 . S
Co327 O335 2.135 . S
O328 Co327 2.061 . S
O328 C331 1.235 . S
C329 O332 1.238 . S
C329 O333 1.241 . S
C330 O323 1.247 . S
C330 O324 1.261 . S
C331 O326 1.259 . S
C331 O328 1.235 . S
O332 Co322 2.021 . S
O332 C329 1.238 . S
O333 Co327 2.052 . S
O333 C329 1.241 . S
O334 Co322 2.137 . S
O334 C325 1.247 . S
O335 Co322 2.244 . S
O335 C325 1.272 . S
O335 Co327 2.135 . S
Gd336 N367 2.661 . S
Gd336 N373 2.601 . S
Gd336 O380 2.545 . S
Gd336 O381 2.606 . S
Gd336 O383 2.429 . S
Gd336 O384 2.545 . S
Gd336 O385 2.412 . S
Gd336 O387 2.362 . S
Gd336 O388 2.324 1_554 S
Gd336 C395 2.828 . S
Gd337 N346 2.661 1_545 S
Gd337 N350 2.601 1_544 S
Gd337 O381 2.362 . S
Gd337 O382 2.324 . S
Gd337 O386 2.545 1_454 S
Gd337 O387 2.606 . S
Gd337 O389 2.429 1_554 S
Gd337 O390 2.545 . S
Gd337 O391 2.412 1_455 S
Gd337 C404 2.828 1_454 S
C338 C341 1.410 1_655 S
C338 C343 1.411 1_554 S
C338 C344 1.412 . S
C339 C342 1.437 . S
C339 C343 1.358 . S
C339 H358 0.929 . S
C340 C341 1.428 1_556 S
C340 C342 1.413 1_455 S
C340 N350 1.359 . S
C341 C338 1.410 1_455 S
C341 C340 1.428 1_554 S
C341 N346 1.356 . S
C342 C339 1.437 . S
C342 C340 1.413 1_655 S
C342 C352 1.391 . S
C343 C338 1.411 1_556 S
C343 C339 1.358 . S
C343 H354 0.909 1_556 S
C344 C338 1.412 . S
C344 C345 1.355 1_655 S
C344 H356 0.930 . S
C345 C344 1.355 1_455 S
C345 C347 1.402 . S
C345 H357 0.930 . S
N346 Gd337 2.661 1_565 S
N346 C341 1.356 . S
N346 C347 1.307 . S
C347 C345 1.402 . S
C347 N346 1.307 . S
C347 H348 0.930 . S
H348 C347 0.930 . S
C349 N350 1.334 . S
C349 C351 1.394 1_455 S
C349 H353 0.930 . S
N350 Gd337 2.601 1_566 S
N350 C340 1.359 . S
N350 C349 1.334 . S
C351 C349 1.394 1_655 S
C351 C352 1.359 . S
C351 H363 0.930 . S
C352 C342 1.391 . S
C352 C351 1.359 . S
C352 H364 0.929 . S
H353 C349 0.930 . S
H354 C343 0.909 1_554 S
H355 C372 0.930 . S
H356 C344 0.930 . S
H357 C345 0.930 . S
H358 C339 0.929 . S
H359 C377 0.930 . S
H360 C368 0.914 1_556 S
H361 C369 0.930 . S
H362 C393 0.929 . S
H363 C351 0.930 . S
H364 C352 0.929 . S
H365 C394 0.930 . S
H366 C375 0.930 . S
N367 Gd336 2.661 . S
N367 C371 1.350 . S
N367 C372 1.307 1_554 S
C368 H360 0.914 1_554 S
C368 C369 1.343 1_554 S
C368 C370 1.440 . S
C369 H361 0.930 . S
C369 C368 1.343 1_556 S
C369 C372 1.402 . S
C370 C368 1.440 . S
C370 C371 1.417 . S
C370 C394 1.431 . S
C371 N367 1.350 . S
C371 C370 1.417 . S
C371 C374 1.426 . S
C372 H355 0.930 . S
C372 N367 1.307 1_556 S
C372 C369 1.402 . S
N373 Gd336 2.601 . S
N373 C374 1.359 . S
N373 C377 1.334 . S
C374 C371 1.426 . S
C374 N373 1.359 . S
C374 C378 1.413 . S
C375 H366 0.930 . S
C375 C376 1.359 . S
C375 C377 1.394 . S
C376 C375 1.359 . S
C376 C378 1.391 . S
C376 H379 0.929 . S
C377 H359 0.930 . S
C377 N373 1.334 . S
C377 C375 1.394 . S
C378 C374 1.413 . S
C378 C376 1.391 . S
C378 C393 1.437 . S
H379 C376 0.929 . S
O380 Gd336 2.545 . S
O380 C395 1.258 . S
O381 Gd336 2.606 . S
O381 Gd337 2.362 . S
O381 C392 1.284 1_545 S
O382 Gd337 2.324 . S
O382 C402 1.254 . S
O383 Gd336 2.429 . S
O383 C402 1.268 . S
O384 Gd336 2.545 . S
O384 C392 1.250 1_545 S
O385 Gd336 2.412 . S
O385 C395 1.252 . S
O386 Gd337 2.545 1_656 S
O386 C404 1.258 . S
O387 Gd336 2.362 . S
O387 Gd337 2.606 . S
O387 C403 1.284 . S
O388 Gd336 2.324 1_556 S
O388 C411 1.254 . S
O389 Gd337 2.429 1_556 S
O389 C411 1.268 . S
O390 Gd337 2.545 . S
O390 C403 1.250 . S
O391 Gd337 2.412 1_655 S
O391 C404 1.252 1_554 S
C392 O381 1.284 1_565 S
C392 O384 1.250 1_565 S
C393 H362 0.929 . S
C393 C378 1.437 . S
C393 C394 1.317 . S
C394 H365 0.930 . S
C394 C370 1.431 . S
C394 C393 1.317 . S
C395 Gd336 2.828 . S
C395 O380 1.258 . S
C395 O385 1.252 . S
C395 C396 1.497 . S
C396 C395 1.497 . S
C396 C397 1.395 . S
C396 C398 1.380 . S
C397 C396 1.395 . S
C397 C400 1.398 . S
C397 H412 0.930 . S
C398 C396 1.380 . S
C398 C399 1.391 . S
C398 H413 0.930 . S
C399 C398 1.391 . S
C399 C401 1.387 . S
C400 C397 1.398 . S
C400 C401 1.380 . S
C400 H414 0.930 . S
C401 C399 1.387 . S
C401 C400 1.380 . S
C401 H415 0.930 . S
C402 O382 1.254 . S
C402 O383 1.268 . S
C403 O387 1.284 . S
C403 O390 1.250 . S
C404 Gd337 2.828 1_656 S
C404 O386 1.258 . S
C404 O391 1.252 1_556 S
C404 C405 1.497 . S
C405 C404 1.497 . S
C405 C406 1.395 . S
C405 C407 1.380 1_556 S
C406 C405 1.395 . S
C406 C409 1.398 . S
C406 H416 0.930 . S
C407 C405 1.380 1_554 S
C407 C408 1.389 1_554 S
C407 H417 0.930 . S
C408 C407 1.389 1_556 S
C408 C410 1.394 . S
C409 C406 1.398 . S
C409 C410 1.380 . S
C409 H418 0.930 . S
C410 C408 1.394 . S
C410 C409 1.380 . S
C410 H419 0.930 . S
C411 O388 1.254 . S
C411 O389 1.268 . S
H412 C397 0.930 . S
H413 C398 0.930 . S
H414 C400 0.930 . S
H415 C401 0.930 . S
H416 C406 0.930 . S
H417 C407 0.930 . S
H418 C409 0.930 . S
H419 C410 0.930 . S
Gd420 N451 2.661 . S
Gd420 N457 2.601 . S
Gd420 O464 2.545 . S
Gd420 O465 2.606 . S
Gd420 O467 2.429 . S
Gd420 O468 2.545 . S
Gd420 O469 2.412 . S
Gd420 O471 2.362 . S
Gd420 O472 2.324 . S
Gd420 C479 2.828 . S
Gd421 N430 2.661 . S
Gd421 N434 2.601 . S
Gd421 O465 2.362 . S
Gd421 O466 2.324 . S
Gd421 O470 2.545 . S
Gd421 O471 2.606 . S
Gd421 O473 2.429 . S
Gd421 O474 2.545 . S
Gd421 O475 2.412 . S
Gd421 C488 2.828 . S
C422 C425 1.417 . S
C422 C427 1.431 . S
C422 C428 1.412 . S
C423 C426 1.437 . S
C423 C427 1.317 . S
C423 H442 0.929 . S
C424 C425 1.426 . S
C424 C426 1.413 . S
C424 N434 1.359 . S
C425 C422 1.417 . S
C425 C424 1.426 . S
C425 N430 1.350 . S
C426 C423 1.437 . S
C426 C424 1.413 . S
C426 C436 1.391 . S
C427 C422 1.431 . S
C427 C423 1.317 . S
C427 H438 0.930 . S
C428 C422 1.412 . S
C428 C429 1.355 . S
C428 H440 0.930 . S
C429 C428 1.355 . S
C429 C431 1.402 . S
C429 H441 0.930 . S
N430 Gd421 2.661 . S
N430 C425 1.350 . S
N430 C431 1.307 . S
C431 C429 1.402 . S
C431 N430 1.307 . S
C431 H432 0.930 . S
H432 C431 0.930 . S
C433 N434 1.334 . S
C433 C435 1.394 . S
C433 H437 0.930 . S
N434 Gd421 2.601 . S
N434 C424 1.359 . S
N434 C433 1.334 . S
C435 C433 1.394 . S
C435 C436 1.359 . S
C435 H447 0.930 . S
C436 C426 1.391 . S
C436 C435 1.359 . S
C436 H448 0.929 . S
H437 C433 0.930 . S
H438 C427 0.930 . S
H439 C456 0.930 . S
H440 C428 0.930 . S
H441 C429 0.930 . S
H442 C423 0.929 . S
H443 C461 0.930 . S
H444 C452 0.930 . S
H445 C453 0.930 . S
H446 C477 0.929 . S
H447 C435 0.930 . S
H448 C436 0.929 . S
H449 C478 0.930 . S
H450 C459 0.930 . S
N451 Gd420 2.661 . S
N451 C455 1.350 . S
N451 C456 1.307 . S
C452 H444 0.930 . S
C452 C453 1.355 . S
C452 C454 1.412 . S
C453 H445 0.930 . S
C453 C452 1.355 . S
C453 C456 1.402 . S
C454 C452 1.412 . S
C454 C455 1.417 . S
C454 C478 1.431 . S
C455 N451 1.350 . S
C455 C454 1.417 . S
C455 C458 1.426 . S
C456 H439 0.930 . S
C456 N451 1.307 . S
C456 C453 1.402 . S
N457 Gd420 2.601 . S
N457 C458 1.359 . S
N457 C461 1.334 . S
C458 C455 1.426 . S
C458 N457 1.359 . S
C458 C462 1.413 . S
C459 H450 0.930 . S
C459 C460 1.359 . S
C459 C461 1.394 . S
C460 C459 1.359 . S
C460 C462 1.391 . S
C460 H463 0.929 . S
C461 H443 0.930 . S
C461 N457 1.334 . S
C461 C459 1.394 . S
C462 C458 1.413 . S
C462 C460 1.391 . S
C462 C477 1.437 . S
H463 C460 0.929 . S
O464 Gd420 2.545 . S
O464 C479 1.258 . S
O465 Gd420 2.606 . S
O465 Gd421 2.362 . S
O465 C476 1.284 . S
O466 Gd421 2.324 . S
O466 C486 1.254 . S
O467 Gd420 2.429 . S
O467 C486 1.268 . S
O468 Gd420 2.545 . S
O468 C476 1.250 . S
O469 Gd420 2.412 . S
O469 C479 1.252 . S
O470 Gd421 2.545 . S
O470 C488 1.258 . S
O471 Gd420 2.362 . S
O471 Gd421 2.606 . S
O471 C487 1.284 . S
O472 Gd420 2.324 . S
O472 C495 1.254 . S
O473 Gd421 2.429 . S
O473 C495 1.268 . S
O474 Gd421 2.545 . S
O474 C487 1.250 . S
O475 Gd421 2.412 . S
O475 C488 1.252 . S
C476 O465 1.284 . S
C476 O468 1.250 . S
C477 H446 0.929 . S
C477 C462 1.437 . S
C477 C478 1.317 . S
C478 H449 0.930 . S
C478 C454 1.431 . S
C478 C477 1.317 . S
C479 Gd420 2.828 . S
C479 O464 1.258 . S
C479 O469 1.252 . S
C479 C480 1.497 . S
C480 C479 1.497 . S
C480 C481 1.395 . S
C480 C482 1.380 . S
C481 C480 1.395 . S
C481 C484 1.398 . S
C481 H496 0.930 . S
C482 C480 1.380 . S
C482 C483 1.391 . S
C482 H497 0.930 . S
C483 C482 1.391 . S
C483 C485 1.387 . S
C484 C481 1.398 . S
C484 C485 1.380 . S
C484 H498 0.930 . S
C485 C483 1.387 . S
C485 C484 1.380 . S
C485 H499 0.930 . S
C486 O466 1.254 . S
C486 O467 1.268 . S
C487 O471 1.284 . S
C487 O474 1.250 . S
C488 Gd421 2.828 . S
C488 O470 1.258 . S
C488 O475 1.252 . S
C488 C489 1.497 . S
C489 C488 1.497 . S
C489 C490 1.395 . S
C489 C491 1.380 . S
C490 C489 1.395 . S
C490 C493 1.398 . S
C490 H500 0.930 . S
C491 C489 1.380 . S
C491 C492 1.391 . S
C491 H501 0.930 . S
C492 C491 1.391 . S
C492 C494 1.387 . S
C493 C490 1.398 . S
C493 C494 1.380 . S
C493 H502 0.930 . S
C494 C492 1.387 . S
C494 C493 1.380 . S
C494 H503 0.930 . S
C495 O472 1.254 . S
C495 O473 1.268 . S
H496 C481 0.930 . S
H497 C482 0.930 . S
H498 C484 0.930 . S
H499 C485 0.930 . S
H500 C490 0.930 . S
H501 C491 0.930 . S
H502 C493 0.930 . S
H503 C494 0.930 . S
Gd504 N535 2.661 1_545 S
Gd504 N541 2.601 . S
Gd504 O548 2.545 . S
Gd504 O549 2.606 . S
Gd504 O551 2.429 . S
Gd504 O552 2.545 . S
Gd504 O553 2.412 . S
Gd504 O555 2.362 . S
Gd504 O556 2.324 . S
Gd504 C563 2.828 . S
Gd505 N514 2.661 . S
Gd505 N518 2.601 . S
Gd505 O549 2.362 . S
Gd505 O550 2.324 . S
Gd505 O554 2.545 . S
Gd505 O555 2.606 . S
Gd505 O557 2.429 . S
Gd505 O558 2.545 1_545 S
Gd505 O559 2.412 . S
Gd505 C572 2.828 . S
C506 C509 1.417 . S
C506 C511 1.431 . S
C506 C512 1.412 . S
C507 C510 1.437 . S
C507 C511 1.317 . S
C507 H526 0.929 . S
C508 C509 1.426 . S
C508 C510 1.413 . S
C508 N518 1.359 . S
C509 C506 1.417 . S
C509 C508 1.426 . S
C509 N514 1.350 . S
C510 C507 1.437 . S
C510 C508 1.413 . S
C510 C520 1.391 . S
C511 C506 1.431 . S
C511 C507 1.317 . S
C511 H522 0.930 . S
C512 C506 1.412 . S
C512 C513 1.355 . S
C512 H524 0.930 . S
C513 C512 1.355 . S
C513 C515 1.402 . S
C513 H525 0.930 . S
N514 Gd505 2.661 . S
N514 C509 1.350 . S
N514 C515 1.307 . S
C515 C513 1.402 . S
C515 N514 1.307 . S
C515 H516 0.930 . S
H516 C515 0.930 . S
C517 N518 1.334 . S
C517 C519 1.394 . S
C517 H521 0.930 . S
N518 Gd505 2.601 . S
N518 C508 1.359 . S
N518 C517 1.334 . S
C519 C517 1.394 . S
C519 C520 1.359 . S
C519 H531 0.930 . S
C520 C510 1.391 . S
C520 C519 1.359 . S
C520 H532 0.929 . S
H521 C517 0.930 . S
H522 C511 0.930 . S
H523 C540 0.930 . S
H524 C512 0.930 . S
H525 C513 0.930 . S
H526 C507 0.929 . S
H527 C545 0.930 . S
H528 C536 0.930 . S
H529 C537 0.930 . S
H530 C561 0.929 . S
H531 C519 0.930 . S
H532 C520 0.929 . S
H533 C562 0.930 . S
H534 C543 0.929 1_545 S
N535 Gd504 2.661 1_565 S
N535 C539 1.350 . S
N535 C540 1.307 . S
C536 H528 0.930 . S
C536 C537 1.355 . S
C536 C538 1.412 . S
C537 H529 0.930 . S
C537 C536 1.355 . S
C537 C540 1.402 . S
C538 C536 1.412 . S
C538 C539 1.417 . S
C538 C562 1.431 . S
C539 N535 1.350 . S
C539 C538 1.417 . S
C539 C542 1.426 . S
C540 H523 0.930 . S
C540 N535 1.307 . S
C540 C537 1.402 . S
N541 Gd504 2.601 . S
N541 C542 1.359 1_545 S
N541 C545 1.334 . S
C542 C539 1.426 . S
C542 N541 1.359 1_565 S
C542 C546 1.413 . S
C543 H534 0.929 1_565 S
C543 C544 1.364 . S
C543 C545 1.391 1_565 S
C544 C543 1.364 . S
C544 C546 1.391 . S
C544 H547 0.929 . S
C545 H527 0.930 . S
C545 N541 1.334 . S
C545 C543 1.391 1_545 S
C546 C542 1.413 . S
C546 C544 1.391 . S
C546 C561 1.437 . S
H547 C544 0.929 . S
O548 Gd504 2.545 . S
O548 C563 1.258 . S
O549 Gd504 2.606 . S
O549 Gd505 2.362 . S
O549 C560 1.284 . S
O550 Gd505 2.324 . S
O550 C570 1.254 . S
O551 Gd504 2.429 . S
O551 C570 1.268 . S
O552 Gd504 2.545 . S
O552 C560 1.250 . S
O553 Gd504 2.412 . S
O553 C563 1.252 . S
O554 Gd505 2.545 . S
O554 C572 1.258 . S
O555 Gd504 2.362 . S
O555 Gd505 2.606 . S
O555 C571 1.284 1_545 S
O556 Gd504 2.324 . S
O556 C579 1.254 . S
O557 Gd505 2.429 . S
O557 C579 1.268 . S
O558 Gd505 2.545 1_565 S
O558 C571 1.250 . S
O559 Gd505 2.412 . S
O559 C572 1.252 . S
C560 O549 1.284 . S
C560 O552 1.250 . S
C561 H530 0.929 . S
C561 C546 1.437 . S
C561 C562 1.317 . S
C562 H533 0.930 . S
C562 C538 1.431 . S
C562 C561 1.317 . S
C563 Gd504 2.828 . S
C563 O548 1.258 . S
C563 O553 1.252 . S
C563 C564 1.497 . S
C564 C563 1.497 . S
C564 C565 1.395 . S
C564 C566 1.380 . S
C565 C564 1.395 . S
C565 C568 1.398 . S
C565 H580 0.930 . S
C566 C564 1.380 . S
C566 C567 1.391 . S
C566 H581 0.930 . S
C567 C566 1.391 . S
C567 C569 1.387 . S
C568 C565 1.398 . S
C568 C569 1.380 . S
C568 H582 0.930 . S
C569 C567 1.387 . S
C569 C568 1.380 . S
C569 H583 0.930 . S
C570 O550 1.254 . S
C570 O551 1.268 . S
C571 O555 1.284 1_565 S
C571 O558 1.250 . S
C572 Gd505 2.828 . S
C572 O554 1.258 . S
C572 O559 1.252 . S
C572 C573 1.497 . S
C573 C572 1.497 . S
C573 C574 1.395 . S
C573 C575 1.380 1_545 S
C574 C573 1.395 . S
C574 C577 1.398 1_545 S
C574 H584 0.930 . S
C575 C573 1.380 1_565 S
C575 C576 1.391 . S
C575 H585 0.930 . S
C576 C575 1.391 . S
C576 C578 1.387 . S
C577 C574 1.398 1_565 S
C577 C578 1.380 . S
C577 H586 0.930 . S
C578 C576 1.387 . S
C578 C577 1.380 . S
C578 H587 0.930 . S
C579 O556 1.254 . S
C579 O557 1.268 . S
H580 C565 0.930 . S
H581 C566 0.930 . S
H582 C568 0.930 . S
H583 C569 0.930 . S
H584 C574 0.930 . S
H585 C575 0.930 . S
H586 C577 0.930 . S
H587 C578 0.930 . S
Gd588 N619 2.661 . S
Gd588 N625 2.601 . S
Gd588 O632 2.545 . S
Gd588 O633 2.606 . S
Gd588 O635 2.429 . S
Gd588 O636 2.545 . S
Gd588 O637 2.412 . S
Gd588 O639 2.362 . S
Gd588 O640 2.324 . S
Gd588 C647 2.828 . S
Gd589 N598 2.661 . S
Gd589 N602 2.601 . S
Gd589 O633 2.362 . S
Gd589 O634 2.324 . S
Gd589 O638 2.545 . S
Gd589 O639 2.606 . S
Gd589 O641 2.429 . S
Gd589 O642 2.545 . S
Gd589 O643 2.412 . S
Gd589 C656 2.828 . S
C590 C593 1.417 . S
C590 C595 1.431 . S
C590 C596 1.412 . S
C591 C594 1.437 . S
C591 C595 1.317 . S
C591 H610 0.929 . S
C592 C593 1.426 . S
C592 C594 1.413 . S
C592 N602 1.359 . S
C593 C590 1.417 . S
C593 C592 1.426 . S
C593 N598 1.350 . S
C594 C591 1.437 . S
C594 C592 1.413 . S
C594 C604 1.391 . S
C595 C590 1.431 . S
C595 C591 1.317 . S
C595 H606 0.930 . S
C596 C590 1.412 . S
C596 C597 1.355 . S
C596 H608 0.930 . S
C597 C596 1.355 . S
C597 C599 1.402 . S
C597 H609 0.930 . S
N598 Gd589 2.661 . S
N598 C593 1.350 . S
N598 C599 1.307 . S
C599 C597 1.402 . S
C599 N598 1.307 . S
C599 H600 0.930 . S
H600 C599 0.930 . S
C601 N602 1.334 . S
C601 C603 1.394 . S
C601 H605 0.930 . S
N602 Gd589 2.601 . S
N602 C592 1.359 . S
N602 C601 1.334 . S
C603 C601 1.394 . S
C603 C604 1.359 . S
C603 H615 0.930 . S
C604 C594 1.391 . S
C604 C603 1.359 . S
C604 H616 0.929 . S
H605 C601 0.930 . S
H606 C595 0.930 . S
H607 C624 0.930 . S
H608 C596 0.930 . S
H609 C597 0.930 . S
H610 C591 0.929 . S
H611 C629 0.930 . S
H612 C620 0.930 . S
H613 C621 0.930 . S
H614 C645 0.929 . S
H615 C603 0.930 . S
H616 C604 0.929 . S
H617 C646 0.930 . S
H618 C627 0.930 . S
N619 Gd588 2.661 . S
N619 C623 1.350 . S
N619 C624 1.307 . S
C620 H612 0.930 . S
C620 C621 1.355 . S
C620 C622 1.412 . S
C621 H613 0.930 . S
C621 C620 1.355 . S
C621 C624 1.402 . S
C622 C620 1.412 . S
C622 C623 1.417 . S
C622 C646 1.431 . S
C623 N619 1.350 . S
C623 C622 1.417 . S
C623 C626 1.426 . S
C624 H607 0.930 . S
C624 N619 1.307 . S
C624 C621 1.402 . S
N625 Gd588 2.601 . S
N625 C626 1.359 . S
N625 C629 1.334 . S
C626 C623 1.426 . S
C626 N625 1.359 . S
C626 C630 1.413 . S
C627 H618 0.930 . S
C627 C628 1.359 . S
C627 C629 1.394 . S
C628 C627 1.359 . S
C628 C630 1.391 . S
C628 H631 0.929 . S
C629 H611 0.930 . S
C629 N625 1.334 . S
C629 C627 1.394 . S
C630 C626 1.413 . S
C630 C628 1.391 . S
C630 C645 1.437 . S
H631 C628 0.929 . S
O632 Gd588 2.545 . S
O632 C647 1.258 . S
O633 Gd588 2.606 . S
O633 Gd589 2.362 . S
O633 C644 1.284 . S
O634 Gd589 2.324 . S
O634 C654 1.254 . S
O635 Gd588 2.429 . S
O635 C654 1.268 . S
O636 Gd588 2.545 . S
O636 C644 1.250 . S
O637 Gd588 2.412 . S
O637 C647 1.252 . S
O638 Gd589 2.545 . S
O638 C656 1.258 . S
O639 Gd588 2.362 . S
O639 Gd589 2.606 . S
O639 C655 1.284 . S
O640 Gd588 2.324 . S
O640 C663 1.254 . S
O641 Gd589 2.429 . S
O641 C663 1.268 . S
O642 Gd589 2.545 . S
O642 C655 1.250 . S
O643 Gd589 2.412 . S
O643 C656 1.252 . S
C644 O633 1.284 . S
C644 O636 1.250 . S
C645 H614 0.929 . S
C645 C630 1.437 . S
C645 C646 1.317 . S
C646 H617 0.930 . S
C646 C622 1.431 . S
C646 C645 1.317 . S
C647 Gd588 2.828 . S
C647 O632 1.258 . S
C647 O637 1.252 . S
C647 C648 1.497 . S
C648 C647 1.497 . S
C648 C649 1.395 . S
C648 C650 1.380 . S
C649 C648 1.395 . S
C649 C652 1.398 . S
C649 H664 0.930 . S
C650 C648 1.380 . S
C650 C651 1.391 . S
C650 H665 0.930 . S
C651 C650 1.391 . S
C651 C653 1.387 . S
C652 C649 1.398 . S
C652 C653 1.380 . S
C652 H666 0.930 . S
C653 C651 1.387 . S
C653 C652 1.380 . S
C653 H667 0.930 . S
C654 O634 1.254 . S
C654 O635 1.268 . S
C655 O639 1.284 . S
C655 O642 1.250 . S
C656 Gd589 2.828 . S
C656 O638 1.258 . S
C656 O643 1.252 . S
C656 C657 1.497 . S
C657 C656 1.497 . S
C657 C658 1.395 . S
C657 C659 1.380 . S
C658 C657 1.395 . S
C658 C661 1.398 . S
C658 H668 0.930 . S
C659 C657 1.380 . S
C659 C660 1.391 . S
C659 H669 0.930 . S
C660 C659 1.391 . S
C660 C662 1.387 . S
C661 C658 1.398 . S
C661 C662 1.380 . S
C661 H670 0.930 . S
C662 C660 1.387 . S
C662 C661 1.380 . S
C662 H671 0.930 . S
C663 O640 1.254 . S
C663 O641 1.268 . S
H664 C649 0.930 . S
H665 C650 0.930 . S
H666 C652 0.930 . S
H667 C653 0.930 . S
H668 C658 0.930 . S
H669 C659 0.930 . S
H670 C661 0.930 . S
H671 C662 0.930 . S
Gd672 N703 2.661 . S
Gd672 N709 2.601 . S
Gd672 O716 2.545 . S
Gd672 O717 2.606 1_565 S
Gd672 O719 2.429 1_565 S
Gd672 O720 2.545 1_565 S
Gd672 O721 2.412 . S
Gd672 O723 2.362 1_565 S
Gd672 O724 2.324 1_565 S
Gd672 C731 2.828 . S
Gd673 N682 2.661 . S
Gd673 N686 2.601 . S
Gd673 O717 2.362 . S
Gd673 O718 2.324 . S
Gd673 O722 2.545 . S
Gd673 O723 2.606 . S
Gd673 O725 2.429 . S
Gd673 O726 2.545 . S
Gd673 O727 2.412 . S
Gd673 C740 2.828 . S
C674 C677 1.417 . S
C674 C679 1.431 . S
C674 C680 1.412 . S
C675 C678 1.437 . S
C675 C679 1.317 . S
C675 H694 0.929 . S
C676 C677 1.426 . S
C676 C678 1.413 . S
C676 N686 1.359 . S
C677 C674 1.417 . S
C677 C676 1.426 . S
C677 N682 1.350 . S
C678 C675 1.437 . S
C678 C676 1.413 . S
C678 C688 1.391 . S
C679 C674 1.431 . S
C679 C675 1.317 . S
C679 H690 0.930 . S
C680 C674 1.412 . S
C680 C681 1.355 . S
C680 H692 0.930 . S
C681 C680 1.355 . S
C681 C683 1.402 . S
C681 H693 0.930 . S
N682 Gd673 2.661 . S
N682 C677 1.350 . S
N682 C683 1.307 . S
C683 C681 1.402 . S
C683 N682 1.307 . S
C683 H684 0.930 . S
H684 C683 0.930 . S
C685 N686 1.334 . S
C685 C687 1.394 . S
C685 H689 0.930 . S
N686 Gd673 2.601 . S
N686 C676 1.359 . S
N686 C685 1.334 . S
C687 C685 1.394 . S
C687 C688 1.359 . S
C687 H699 0.930 1_455 S
C688 C678 1.391 . S
C688 C687 1.359 . S
C688 H700 0.929 . S
H689 C685 0.930 . S
H690 C679 0.930 . S
H691 C708 0.930 . S
H692 C680 0.930 . S
H693 C681 0.930 . S
H694 C675 0.929 . S
H695 C713 0.930 . S
H696 C704 0.930 1_655 S
H697 C705 0.933 . S
H698 C729 0.929 . S
H699 C687 0.930 1_655 S
H700 C688 0.929 . S
H701 C730 0.930 . S
H702 C711 0.930 . S
N703 Gd672 2.661 . S
N703 C707 1.350 . S
N703 C708 1.307 . S
C704 H696 0.930 1_455 S
C704 C705 1.353 1_455 S
C704 C706 1.412 . S
C705 H697 0.933 . S
C705 C704 1.353 1_655 S
C705 C708 1.401 1_655 S
C706 C704 1.412 . S
C706 C707 1.417 . S
C706 C730 1.431 . S
C707 N703 1.350 . S
C707 C706 1.417 . S
C707 C710 1.426 . S
C708 H691 0.930 . S
C708 N703 1.307 . S
C708 C705 1.401 1_455 S
N709 Gd672 2.601 . S
N709 C710 1.359 . S
N709 C713 1.334 . S
C710 C707 1.426 . S
C710 N709 1.359 . S
C710 C714 1.413 . S
C711 H702 0.930 . S
C711 C712 1.359 . S
C711 C713 1.394 . S
C712 C711 1.359 . S
C712 C714 1.391 . S
C712 H715 0.929 . S
C713 H695 0.930 . S
C713 N709 1.334 . S
C713 C711 1.394 . S
C714 C710 1.413 . S
C714 C712 1.391 . S
C714 C729 1.437 . S
H715 C712 0.929 . S
O716 Gd672 2.545 . S
O716 C731 1.258 . S
O717 Gd672 2.606 1_545 S
O717 Gd673 2.362 . S
O717 C728 1.284 . S
O718 Gd673 2.324 . S
O718 C738 1.254 . S
O719 Gd672 2.429 1_545 S
O719 C738 1.268 . S
O720 Gd672 2.545 1_545 S
O720 C728 1.250 . S
O721 Gd672 2.412 . S
O721 C731 1.252 . S
O722 Gd673 2.545 . S
O722 C740 1.258 . S
O723 Gd672 2.362 1_545 S
O723 Gd673 2.606 . S
O723 C739 1.284 . S
O724 Gd672 2.324 1_545 S
O724 C747 1.251 . S
O725 Gd673 2.429 . S
O725 C747 1.268 . S
O726 Gd673 2.545 . S
O726 C739 1.250 . S
O727 Gd673 2.412 . S
O727 C740 1.252 . S
C728 O717 1.284 . S
C728 O720 1.250 . S
C729 H698 0.929 . S
C729 C714 1.437 . S
C729 C730 1.317 . S
C730 H701 0.930 . S
C730 C706 1.431 . S
C730 C729 1.317 . S
C731 Gd672 2.828 . S
C731 O716 1.258 . S
C731 O721 1.252 . S
C731 C732 1.497 . S
C732 C731 1.497 . S
C732 C733 1.395 . S
C732 C734 1.380 . S
C733 C732 1.395 . S
C733 C736 1.398 . S
C733 H748 0.930 . S
C734 C732 1.380 . S
C734 C735 1.391 . S
C734 H749 0.930 . S
C735 C734 1.391 . S
C735 C737 1.387 . S
C736 C733 1.398 . S
C736 C737 1.380 . S
C736 H750 0.930 . S
C737 C735 1.387 . S
C737 C736 1.380 . S
C737 H751 0.930 . S
C738 O718 1.254 . S
C738 O719 1.268 . S
C739 O723 1.284 . S
C739 O726 1.250 . S
C740 Gd673 2.828 . S
C740 O722 1.258 . S
C740 O727 1.252 . S
C740 C741 1.497 . S
C741 C740 1.497 . S
C741 C742 1.395 . S
C741 C743 1.380 . S
C742 C741 1.395 . S
C742 C745 1.398 . S
C742 H752 0.930 . S
C743 C741 1.380 . S
C743 C744 1.391 . S
C743 H753 0.930 . S
C744 C743 1.391 . S
C744 C746 1.387 . S
C745 C742 1.398 . S
C745 C746 1.380 . S
C745 H754 0.930 . S
C746 C744 1.387 . S
C746 C745 1.380 . S
C746 H755 0.930 . S
C747 O724 1.251 . S
C747 O725 1.268 . S
H748 C733 0.930 . S
H749 C734 0.930 . S
H750 C736 0.930 . S
H751 C737 0.930 . S
H752 C742 0.930 . S
H753 C743 0.930 . S
H754 C745 0.930 . S
H755 C746 0.930 . S
Gd756 N787 2.661 . S
Gd756 N793 2.601 . S
Gd756 O800 2.545 . S
Gd756 O801 2.606 . S
Gd756 O803 2.429 . S
Gd756 O804 2.545 . S
Gd756 O805 2.412 . S
Gd756 O807 2.362 . S
Gd756 O808 2.324 . S
Gd756 C815 2.828 . S
Gd757 N766 2.661 . S
Gd757 N770 2.601 . S
Gd757 O801 2.362 . S
Gd757 O802 2.324 . S
Gd757 O806 2.545 . S
Gd757 O807 2.606 . S
Gd757 O809 2.429 . S
Gd757 O810 2.545 . S
Gd757 O811 2.412 . S
Gd757 C824 2.828 . S
C758 C761 1.417 . S
C758 C763 1.431 . S
C758 C764 1.412 . S
C759 C762 1.437 . S
C759 C763 1.317 . S
C759 H778 0.929 . S
C760 C761 1.426 . S
C760 C762 1.413 . S
C760 N770 1.359 . S
C761 C758 1.417 . S
C761 C760 1.426 . S
C761 N766 1.350 . S
C762 C759 1.437 . S
C762 C760 1.413 . S
C762 C772 1.391 . S
C763 C758 1.431 . S
C763 C759 1.317 . S
C763 H774 0.930 . S
C764 C758 1.412 . S
C764 C765 1.355 . S
C764 H776 0.930 . S
C765 C764 1.355 . S
C765 C767 1.402 . S
C765 H777 0.930 . S
N766 Gd757 2.661 . S
N766 C761 1.350 . S
N766 C767 1.307 . S
C767 C765 1.402 . S
C767 N766 1.307 . S
C767 H768 0.930 . S
H768 C767 0.930 . S
C769 N770 1.334 . S
C769 C771 1.394 . S
C769 H773 0.930 . S
N770 Gd757 2.601 . S
N770 C760 1.359 . S
N770 C769 1.334 . S
C771 C769 1.394 . S
C771 C772 1.359 . S
C771 H783 0.930 . S
C772 C762 1.391 . S
C772 C771 1.359 . S
C772 H784 0.929 . S
H773 C769 0.930 . S
H774 C763 0.930 . S
H775 C792 0.930 . S
H776 C764 0.930 . S
H777 C765 0.930 . S
H778 C759 0.929 . S
H779 C797 0.930 . S
H780 C788 0.930 . S
H781 C789 0.930 . S
H782 C813 0.929 . S
H783 C771 0.930 . S
H784 C772 0.929 . S
H785 C814 0.930 . S
H786 C795 0.930 . S
N787 Gd756 2.661 . S
N787 C791 1.350 . S
N787 C792 1.307 . S
C788 H780 0.930 . S
C788 C789 1.355 . S
C788 C790 1.412 . S
C789 H781 0.930 . S
C789 C788 1.355 . S
C789 C792 1.402 . S
C790 C788 1.412 . S
C790 C791 1.417 . S
C790 C814 1.431 . S
C791 N787 1.350 . S
C791 C790 1.417 . S
C791 C794 1.426 . S
C792 H775 0.930 . S
C792 N787 1.307 . S
C792 C789 1.402 . S
N793 Gd756 2.601 . S
N793 C794 1.359 . S
N793 C797 1.334 . S
C794 C791 1.426 . S
C794 N793 1.359 . S
C794 C798 1.413 . S
C795 H786 0.930 . S
C795 C796 1.359 . S
C795 C797 1.394 . S
C796 C795 1.359 . S
C796 C798 1.391 . S
C796 H799 0.929 . S
C797 H779 0.930 . S
C797 N793 1.334 . S
C797 C795 1.394 . S
C798 C794 1.413 . S
C798 C796 1.391 . S
C798 C813 1.437 . S
H799 C796 0.929 . S
O800 Gd756 2.545 . S
O800 C815 1.258 . S
O801 Gd756 2.606 . S
O801 Gd757 2.362 . S
O801 C812 1.284 . S
O802 Gd757 2.324 . S
O802 C822 1.254 . S
O803 Gd756 2.429 . S
O803 C822 1.268 . S
O804 Gd756 2.545 . S
O804 C812 1.250 . S
O805 Gd756 2.412 . S
O805 C815 1.252 . S
O806 Gd757 2.545 . S
O806 C824 1.258 . S
O807 Gd756 2.362 . S
O807 Gd757 2.606 . S
O807 C823 1.284 . S
O808 Gd756 2.324 . S
O808 C831 1.254 . S
O809 Gd757 2.429 . S
O809 C831 1.268 . S
O810 Gd757 2.545 . S
O810 C823 1.250 . S
O811 Gd757 2.412 . S
O811 C824 1.252 . S
C812 O801 1.284 . S
C812 O804 1.250 . S
C813 H782 0.929 . S
C813 C798 1.437 . S
C813 C814 1.317 . S
C814 H785 0.930 . S
C814 C790 1.431 . S
C814 C813 1.317 . S
C815 Gd756 2.828 . S
C815 O800 1.258 . S
C815 O805 1.252 . S
C815 C816 1.497 . S
C816 C815 1.497 . S
C816 C817 1.395 . S
C816 C818 1.380 . S
C817 C816 1.395 . S
C817 C820 1.398 . S
C817 H832 0.930 . S
C818 C816 1.380 . S
C818 C819 1.391 . S
C818 H833 0.930 . S
C819 C818 1.391 . S
C819 C821 1.387 . S
C820 C817 1.398 . S
C820 C821 1.380 . S
C820 H834 0.930 . S
C821 C819 1.387 . S
C821 C820 1.380 . S
C821 H835 0.930 . S
C822 O802 1.254 . S
C822 O803 1.268 . S
C823 O807 1.284 . S
C823 O810 1.250 . S
C824 Gd757 2.828 . S
C824 O806 1.258 . S
C824 O811 1.252 . S
C824 C825 1.497 . S
C825 C824 1.497 . S
C825 C826 1.395 . S
C825 C827 1.380 . S
C826 C825 1.395 . S
C826 C829 1.398 . S
C826 H836 0.930 . S
C827 C825 1.380 . S
C827 C828 1.391 . S
C827 H837 0.930 . S
C828 C827 1.391 . S
C828 C830 1.387 . S
C829 C826 1.398 . S
C829 C830 1.380 . S
C829 H838 0.930 . S
C830 C828 1.387 . S
C830 C829 1.380 . S
C830 H839 0.930 . S
C831 O808 1.254 . S
C831 O809 1.268 . S
H832 C817 0.930 . S
H833 C818 0.930 . S
H834 C820 0.930 . S
H835 C821 0.930 . S
H836 C826 0.930 . S
H837 C827 0.930 . S
H838 C829 0.930 . S
H839 C830 0.930 . S
Gd840 N871 2.661 . S
Gd840 N877 2.601 . S
Gd840 O884 2.545 . S
Gd840 O885 2.606 1_556 S
Gd840 O887 2.429 1_556 S
Gd840 O888 2.545 . S
Gd840 O889 2.412 . S
Gd840 O891 2.362 1_556 S
Gd840 O892 2.324 . S
Gd840 C899 2.828 . S
Gd841 N850 2.661 . S
Gd841 N854 2.601 . S
Gd841 O885 2.362 . S
Gd841 O886 2.324 . S
Gd841 O890 2.545 1_545 S
Gd841 O891 2.606 . S
Gd841 O893 2.429 1_545 S
Gd841 O894 2.545 . S
Gd841 O895 2.412 . S
Gd841 C908 2.828 . S
C842 C845 1.417 . S
C842 C847 1.431 . S
C842 C848 1.412 . S
C843 C846 1.437 . S
C843 C847 1.317 . S
C843 H862 0.929 . S
C844 C845 1.426 . S
C844 C846 1.413 . S
C844 N854 1.359 . S
C845 C842 1.417 . S
C845 C844 1.426 . S
C845 N850 1.350 . S
C846 C843 1.437 . S
C846 C844 1.413 . S
C846 C856 1.391 1_545 S
C847 C842 1.431 . S
C847 C843 1.317 . S
C847 H858 0.930 . S
C848 C842 1.412 . S
C848 C849 1.355 . S
C848 H860 0.930 . S
C849 C848 1.355 . S
C849 C851 1.402 . S
C849 H861 0.930 . S
N850 Gd841 2.661 . S
N850 C845 1.350 . S
N850 C851 1.307 . S
C851 C849 1.402 . S
C851 N850 1.307 . S
C851 H852 0.930 . S
H852 C851 0.930 . S
C853 N854 1.334 1_565 S
C853 C855 1.394 . S
C853 H857 0.930 . S
N854 Gd841 2.601 . S
N854 C844 1.359 . S
N854 C853 1.334 1_545 S
C855 C853 1.394 . S
C855 C856 1.359 . S
C855 H867 0.930 . S
C856 C846 1.391 1_565 S
C856 C855 1.359 . S
C856 H868 0.929 . S
H857 C853 0.930 . S
H858 C847 0.930 . S
H859 C876 0.930 . S
H860 C848 0.930 . S
H861 C849 0.930 . S
H862 C843 0.929 . S
H863 C881 0.930 . S
H864 C872 0.930 . S
H865 C873 0.930 . S
H866 C897 0.929 . S
H867 C855 0.930 . S
H868 C856 0.929 . S
H869 C898 0.930 . S
H870 C879 0.930 . S
N871 Gd840 2.661 . S
N871 C875 1.350 . S
N871 C876 1.307 1_545 S
C872 H864 0.930 . S
C872 C873 1.355 . S
C872 C874 1.412 1_565 S
C873 H865 0.930 . S
C873 C872 1.355 . S
C873 C876 1.402 . S
C874 C872 1.412 1_545 S
C874 C875 1.417 . S
C874 C898 1.431 . S
C875 N871 1.350 . S
C875 C874 1.417 . S
C875 C878 1.426 . S
C876 H859 0.930 . S
C876 N871 1.307 1_565 S
C876 C873 1.402 . S
N877 Gd840 2.601 . S
N877 C878 1.359 . S
N877 C881 1.334 . S
C878 C875 1.426 . S
C878 N877 1.359 . S
C878 C882 1.413 . S
C879 H870 0.930 . S
C879 C880 1.359 . S
C879 C881 1.394 . S
C880 C879 1.359 . S
C880 C882 1.391 . S
C880 H883 0.929 . S
C881 H863 0.930 . S
C881 N877 1.334 . S
C881 C879 1.394 . S
C882 C878 1.413 . S
C882 C880 1.391 . S
C882 C897 1.437 . S
H883 C880 0.929 . S
O884 Gd840 2.545 . S
O884 C899 1.258 . S
O885 Gd840 2.606 1_554 S
O885 Gd841 2.362 . S
O885 C896 1.284 . S
O886 Gd841 2.324 . S
O886 C906 1.254 . S
O887 Gd840 2.429 1_554 S
O887 C906 1.268 . S
O888 Gd840 2.545 . S
O888 C896 1.250 1_556 S
O889 Gd840 2.412 . S
O889 C899 1.252 . S
O890 Gd841 2.545 1_565 S
O890 C908 1.258 1_565 S
O891 Gd840 2.362 1_554 S
O891 Gd841 2.606 . S
O891 C907 1.284 . S
O892 Gd840 2.324 . S
O892 C915 1.254 1_545 S
O893 Gd841 2.429 1_565 S
O893 C915 1.268 1_554 S
O894 Gd841 2.545 . S
O894 C907 1.250 . S
O895 Gd841 2.412 . S
O895 C908 1.252 . S
C896 O885 1.284 . S
C896 O888 1.250 1_554 S
C897 H866 0.929 . S
C897 C882 1.437 . S
C897 C898 1.317 . S
C898 H869 0.930 . S
C898 C874 1.431 . S
C898 C897 1.317 . S
C899 Gd840 2.828 . S
C899 O884 1.258 . S
C899 O889 1.252 . S
C899 C900 1.497 . S
C900 C899 1.497 . S
C900 C901 1.395 . S
C900 C902 1.380 . S
C901 C900 1.395 . S
C901 C904 1.398 . S
C901 H916 0.930 . S
C902 C900 1.380 . S
C902 C903 1.391 . S
C902 H917 0.930 . S
C903 C902 1.391 . S
C903 C905 1.387 . S
C904 C901 1.398 . S
C904 C905 1.380 . S
C904 H918 0.930 . S
C905 C903 1.387 . S
C905 C904 1.380 . S
C905 H919 0.930 . S
C906 O886 1.254 . S
C906 O887 1.268 . S
C907 O891 1.284 . S
C907 O894 1.250 . S
C908 Gd841 2.828 . S
C908 O890 1.258 1_545 S
C908 O895 1.252 . S
C908 C909 1.497 . S
C909 C908 1.497 . S
C909 C910 1.395 1_545 S
C909 C911 1.380 . S
C910 C909 1.395 1_565 S
C910 C913 1.398 . S
C910 H920 0.930 . S
C911 C909 1.380 . S
C911 C912 1.391 . S
C911 H921 0.930 . S
C912 C911 1.391 . S
C912 C914 1.387 1_545 S
C913 C910 1.398 . S
C913 C914 1.380 . S
C913 H922 0.930 . S
C914 C912 1.387 1_565 S
C914 C913 1.380 . S
C914 H923 0.930 . S
C915 O892 1.254 1_565 S
C915 O893 1.268 1_556 S
H916 C901 0.930 . S
H917 C902 0.930 . S
H918 C904 0.930 . S
H919 C905 0.930 . S
H920 C910 0.930 . S
H921 C911 0.930 . S
H922 C913 0.930 . S
H923 C914 0.930 . S
Gd924 N955 2.661 . S
Gd924 N961 2.601 . S
Gd924 O968 2.545 . S
Gd924 O969 2.606 . S
Gd924 O971 2.429 . S
Gd924 O972 2.545 . S
Gd924 O973 2.412 . S
Gd924 O975 2.362 . S
Gd924 O976 2.324 . S
Gd924 C983 2.828 . S
Gd925 N934 2.661 . S
Gd925 N938 2.601 . S
Gd925 O969 2.362 . S
Gd925 O970 2.324 . S
Gd925 O974 2.545 . S
Gd925 O975 2.606 . S
Gd925 O977 2.429 . S
Gd925 O978 2.545 . S
Gd925 O979 2.412 . S
Gd925 C992 2.828 . S
C926 C929 1.417 . S
C926 C931 1.431 . S
C926 C932 1.412 . S
C927 C930 1.437 . S
C927 C931 1.317 . S
C927 H946 0.929 . S
C928 C929 1.426 . S
C928 C930 1.413 . S
C928 N938 1.359 . S
C929 C926 1.417 . S
C929 C928 1.426 . S
C929 N934 1.350 . S
C930 C927 1.437 . S
C930 C928 1.413 . S
C930 C940 1.391 . S
C931 C926 1.431 . S
C931 C927 1.317 . S
C931 H942 0.930 . S
C932 C926 1.412 . S
C932 C933 1.355 . S
C932 H944 0.930 . S
C933 C932 1.355 . S
C933 C935 1.402 . S
C933 H945 0.930 . S
N934 Gd925 2.661 . S
N934 C929 1.350 . S
N934 C935 1.307 . S
C935 C933 1.402 . S
C935 N934 1.307 . S
C935 H936 0.930 . S
H936 C935 0.930 . S
C937 N938 1.334 . S
C937 C939 1.394 . S
C937 H941 0.930 . S
N938 Gd925 2.601 . S
N938 C928 1.359 . S
N938 C937 1.334 . S
C939 C937 1.394 . S
C939 C940 1.359 . S
C939 H951 0.930 . S
C940 C930 1.391 . S
C940 C939 1.359 . S
C940 H952 0.929 . S
H941 C937 0.930 . S
H942 C931 0.930 . S
H943 C960 0.930 . S
H944 C932 0.930 . S
H945 C933 0.930 . S
H946 C927 0.929 . S
H947 C965 0.930 . S
H948 C956 0.930 . S
H949 C957 0.930 . S
H950 C981 0.929 . S
H951 C939 0.930 . S
H952 C940 0.929 . S
H953 C982 0.930 . S
H954 C963 0.930 . S
N955 Gd924 2.661 . S
N955 C959 1.350 . S
N955 C960 1.307 . S
C956 H948 0.930 . S
C956 C957 1.355 . S
C956 C958 1.412 . S
C957 H949 0.930 . S
C957 C956 1.355 . S
C957 C960 1.402 . S
C958 C956 1.412 . S
C958 C959 1.417 . S
C958 C982 1.431 . S
C959 N955 1.350 . S
C959 C958 1.417 . S
C959 C962 1.426 . S
C960 H943 0.930 . S
C960 N955 1.307 . S
C960 C957 1.402 . S
N961 Gd924 2.601 . S
N961 C962 1.359 . S
N961 C965 1.334 . S
C962 C959 1.426 . S
C962 N961 1.359 . S
C962 C966 1.413 . S
C963 H954 0.930 . S
C963 C964 1.359 . S
C963 C965 1.394 . S
C964 C963 1.359 . S
C964 C966 1.391 . S
C964 H967 0.929 . S
C965 H947 0.930 . S
C965 N961 1.334 . S
C965 C963 1.394 . S
C966 C962 1.413 . S
C966 C964 1.391 . S
C966 C981 1.437 . S
H967 C964 0.929 . S
O968 Gd924 2.545 . S
O968 C983 1.258 . S
O969 Gd924 2.606 . S
O969 Gd925 2.362 . S
O969 C980 1.284 . S
O970 Gd925 2.324 . S
O970 C990 1.254 . S
O971 Gd924 2.429 . S
O971 C990 1.268 . S
O972 Gd924 2.545 . S
O972 C980 1.250 . S
O973 Gd924 2.412 . S
O973 C983 1.252 . S
O974 Gd925 2.545 . S
O974 C992 1.258 . S
O975 Gd924 2.362 . S
O975 Gd925 2.606 . S
O975 C991 1.284 . S
O976 Gd924 2.324 . S
O976 C999 1.254 . S
O977 Gd925 2.429 . S
O977 C999 1.268 . S
O978 Gd925 2.545 . S
O978 C991 1.250 . S
O979 Gd925 2.412 . S
O979 C992 1.252 . S
C980 O969 1.284 . S
C980 O972 1.250 . S
C981 H950 0.929 . S
C981 C966 1.437 . S
C981 C982 1.317 . S
C982 H953 0.930 . S
C982 C958 1.431 . S
C982 C981 1.317 . S
C983 Gd924 2.828 . S
C983 O968 1.258 . S
C983 O973 1.252 . S
C983 C984 1.497 . S
C984 C983 1.497 . S
C984 C985 1.395 . S
C984 C986 1.380 . S
C985 C984 1.395 . S
C985 C988 1.398 . S
C985 H1000 0.930 . S
C986 C984 1.380 . S
C986 C987 1.391 . S
C986 H1001 0.930 . S
C987 C986 1.391 . S
C987 C989 1.387 . S
C988 C985 1.398 . S
C988 C989 1.380 . S
C988 H1002 0.930 . S
C989 C987 1.387 . S
C989 C988 1.380 . S
C989 H1003 0.930 . S
C990 O970 1.254 . S
C990 O971 1.268 . S
C991 O975 1.284 . S
C991 O978 1.250 . S
C992 Gd925 2.828 . S
C992 O974 1.258 . S
C992 O979 1.252 . S
C992 C993 1.497 . S
C993 C992 1.497 . S
C993 C994 1.395 . S
C993 C995 1.380 . S
C994 C993 1.395 . S
C994 C997 1.398 . S
C994 H1004 0.930 . S
C995 C993 1.380 . S
C995 C996 1.391 . S
C995 H1005 0.930 . S
C996 C995 1.391 . S
C996 C998 1.387 . S
C997 C994 1.398 . S
C997 C998 1.380 . S
C997 H1006 0.930 . S
C998 C996 1.387 . S
C998 C997 1.380 . S
C998 H1007 0.930 . S
C999 O976 1.254 . S
C999 O977 1.268 . S
H1000 C985 0.930 . S
H1001 C986 0.930 . S
H1002 C988 0.930 . S
H1003 C989 0.930 . S
H1004 C994 0.930 . S
H1005 C995 0.930 . S
H1006 C997 0.930 . S
H1007 C998 0.930 . S
Gd1008 N1039 2.661 1_554 S
Gd1008 N1045 2.601 1_554 S
Gd1008 O1052 2.545 . S
Gd1008 O1053 2.606 . S
Gd1008 O1055 2.429 . S
Gd1008 O1056 2.545 . S
Gd1008 O1057 2.412 . S
Gd1008 O1059 2.362 1_554 S
Gd1008 O1060 2.324 . S
Gd1008 C1067 2.828 . S
Gd1009 N1018 2.661 . S
Gd1009 N1022 2.601 . S
Gd1009 O1053 2.362 . S
Gd1009 O1054 2.324 . S
Gd1009 O1058 2.545 . S
Gd1009 O1059 2.606 1_554 S
Gd1009 O1061 2.429 . S
Gd1009 O1062 2.545 1_554 S
Gd1009 O1063 2.412 . S
Gd1009 C1076 2.828 . S
C1010 C1013 1.417 . S
C1010 C1015 1.431 . S
C1010 C1016 1.412 . S
C1011 C1014 1.437 . S
C1011 C1015 1.317 . S
C1011 H1030 0.929 . S
C1012 C1013 1.426 . S
C1012 C1014 1.413 . S
C1012 N1022 1.359 . S
C1013 C1010 1.417 . S
C1013 C1012 1.426 . S
C1013 N1018 1.350 . S
C1014 C1011 1.437 . S
C1014 C1012 1.413 . S
C1014 C1024 1.391 . S
C1015 C1010 1.431 . S
C1015 C1011 1.317 . S
C1015 H1026 0.930 . S
C1016 C1010 1.412 . S
C1016 C1017 1.355 . S
C1016 H1028 0.930 . S
C1017 C1016 1.355 . S
C1017 C1019 1.402 . S
C1017 H1029 0.930 . S
N1018 Gd1009 2.661 . S
N1018 C1013 1.350 . S
N1018 C1019 1.307 . S
C1019 C1017 1.402 . S
C1019 N1018 1.307 . S
C1019 H1020 0.930 . S
H1020 C1019 0.930 . S
C1021 N1022 1.334 . S
C1021 C1023 1.394 . S
C1021 H1025 0.930 . S
N1022 Gd1009 2.601 . S
N1022 C1012 1.359 . S
N1022 C1021 1.334 . S
C1023 C1021 1.394 . S
C1023 C1024 1.359 . S
C1023 H1035 0.930 . S
C1024 C1014 1.391 . S
C1024 C1023 1.359 . S
C1024 H1036 0.929 . S
H1025 C1021 0.930 . S
H1026 C1015 0.930 . S
H1027 C1044 0.930 . S
H1028 C1016 0.930 . S
H1029 C1017 0.930 . S
H1030 C1011 0.929 . S
H1031 C1049 0.930 . S
H1032 C1040 0.930 . S
H1033 C1041 0.930 . S
H1034 C1065 0.929 . S
H1035 C1023 0.930 . S
H1036 C1024 0.929 . S
H1037 C1066 0.930 . S
H1038 C1047 0.930 . S
N1039 Gd1008 2.661 1_556 S
N1039 C1043 1.350 . S
N1039 C1044 1.307 . S
C1040 H1032 0.930 . S
C1040 C1041 1.355 . S
C1040 C1042 1.412 . S
C1041 H1033 0.930 . S
C1041 C1040 1.355 . S
C1041 C1044 1.402 . S
C1042 C1040 1.412 . S
C1042 C1043 1.417 . S
C1042 C1066 1.431 . S
C1043 N1039 1.350 . S
C1043 C1042 1.417 . S
C1043 C1046 1.426 . S
C1044 H1027 0.930 . S
C1044 N1039 1.307 . S
C1044 C1041 1.402 . S
N1045 Gd1008 2.601 1_556 S
N1045 C1046 1.359 . S
N1045 C1049 1.334 . S
C1046 C1043 1.426 . S
C1046 N1045 1.359 . S
C1046 C1050 1.413 . S
C1047 H1038 0.930 . S
C1047 C1048 1.359 . S
C1047 C1049 1.394 . S
C1048 C1047 1.359 . S
C1048 C1050 1.391 . S
C1048 H1051 0.929 . S
C1049 H1031 0.930 . S
C1049 N1045 1.334 . S
C1049 C1047 1.394 . S
C1050 C1046 1.413 . S
C1050 C1048 1.391 . S
C1050 C1065 1.437 . S
H1051 C1048 0.929 . S
O1052 Gd1008 2.545 . S
O1052 C1067 1.258 . S
O1053 Gd1008 2.606 . S
O1053 Gd1009 2.362 . S
O1053 C1064 1.284 . S
O1054 Gd1009 2.324 . S
O1054 C1074 1.254 . S
O1055 Gd1008 2.429 . S
O1055 C1074 1.268 . S
O1056 Gd1008 2.545 . S
O1056 C1064 1.250 . S
O1057 Gd1008 2.412 . S
O1057 C1067 1.252 . S
O1058 Gd1009 2.545 . S
O1058 C1076 1.258 . S
O1059 Gd1008 2.362 1_556 S
O1059 Gd1009 2.606 1_556 S
O1059 C1075 1.284 . S
O1060 Gd1008 2.324 . S
O1060 C1083 1.254 . S
O1061 Gd1009 2.429 . S
O1061 C1083 1.268 . S
O1062 Gd1009 2.545 1_556 S
O1062 C1075 1.250 . S
O1063 Gd1009 2.412 . S
O1063 C1076 1.252 . S
C1064 O1053 1.284 . S
C1064 O1056 1.250 . S
C1065 H1034 0.929 . S
C1065 C1050 1.437 . S
C1065 C1066 1.317 . S
C1066 H1037 0.930 . S
C1066 C1042 1.431 . S
C1066 C1065 1.317 . S
C1067 Gd1008 2.828 . S
C1067 O1052 1.258 . S
C1067 O1057 1.252 . S
C1067 C1068 1.497 . S
C1068 C1067 1.497 . S
C1068 C1069 1.395 . S
C1068 C1070 1.380 . S
C1069 C1068 1.395 . S
C1069 C1072 1.398 . S
C1069 H1084 0.930 . S
C1070 C1068 1.380 . S
C1070 C1071 1.391 . S
C1070 H1085 0.930 . S
C1071 C1070 1.391 . S
C1071 C1073 1.387 . S
C1072 C1069 1.398 . S
C1072 C1073 1.380 . S
C1072 H1086 0.930 . S
C1073 C1071 1.387 . S
C1073 C1072 1.380 . S
C1073 H1087 0.930 . S
C1074 O1054 1.254 . S
C1074 O1055 1.268 . S
C1075 O1059 1.284 . S
C1075 O1062 1.250 . S
C1076 Gd1009 2.828 . S
C1076 O1058 1.258 . S
C1076 O1063 1.252 . S
C1076 C1077 1.497 . S
C1077 C1076 1.497 . S
C1077 C1078 1.395 . S
C1077 C1079 1.380 . S
C1078 C1077 1.395 . S
C1078 C1081 1.398 . S
C1078 H1088 0.930 . S
C1079 C1077 1.380 . S
C1079 C1080 1.391 1_554 S
C1079 H1089 0.930 1_554 S
C1080 C1079 1.391 1_556 S
C1080 C1082 1.387 1_556 S
C1081 C1078 1.398 . S
C1081 C1082 1.380 . S
C1081 H1090 0.930 . S
C1082 C1080 1.387 1_554 S
C1082 C1081 1.380 . S
C1082 H1091 0.929 . S
C1083 O1060 1.254 . S
C1083 O1061 1.268 . S
H1084 C1069 0.930 . S
H1085 C1070 0.930 . S
H1086 C1072 0.930 . S
H1087 C1073 0.930 . S
H1088 C1078 0.930 . S
H1089 C1079 0.930 1_556 S
H1090 C1081 0.930 . S
H1091 C1082 0.929 . S
Gd1092 N1123 2.661 . S
Gd1092 N1129 2.601 . S
Gd1092 O1136 2.545 . S
Gd1092 O1137 2.606 . S
Gd1092 O1139 2.429 . S
Gd1092 O1140 2.545 . S
Gd1092 O1141 2.412 . S
Gd1092 O1143 2.362 . S
Gd1092 O1144 2.324 . S
Gd1092 C1151 2.828 . S
Gd1093 N1102 2.661 . S
Gd1093 N1106 2.601 . S
Gd1093 O1137 2.362 . S
Gd1093 O1138 2.324 . S
Gd1093 O1142 2.545 . S
Gd1093 O1143 2.606 . S
Gd1093 O1145 2.429 . S
Gd1093 O1146 2.545 . S
Gd1093 O1147 2.412 . S
Gd1093 C1160 2.828 . S
C1094 C1097 1.417 . S
C1094 C1099 1.431 . S
C1094 C1100 1.412 . S
C1095 C1098 1.437 . S
C1095 C1099 1.317 . S
C1095 H1114 0.929 . S
C1096 C1097 1.426 . S
C1096 C1098 1.413 . S
C1096 N1106 1.359 . S
C1097 C1094 1.417 . S
C1097 C1096 1.426 . S
C1097 N1102 1.350 . S
C1098 C1095 1.437 . S
C1098 C1096 1.413 . S
C1098 C1108 1.391 . S
C1099 C1094 1.431 . S
C1099 C1095 1.317 . S
C1099 H1110 0.930 . S
C1100 C1094 1.412 . S
C1100 C1101 1.355 . S
C1100 H1112 0.930 . S
C1101 C1100 1.355 . S
C1101 C1103 1.402 . S
C1101 H1113 0.930 . S
N1102 Gd1093 2.661 . S
N1102 C1097 1.350 . S
N1102 C1103 1.307 . S
C1103 C1101 1.402 . S
C1103 N1102 1.307 . S
C1103 H1104 0.930 . S
H1104 C1103 0.930 . S
C1105 N1106 1.334 . S
C1105 C1107 1.394 . S
C1105 H1109 0.930 . S
N1106 Gd1093 2.601 . S
N1106 C1096 1.359 . S
N1106 C1105 1.334 . S
C1107 C1105 1.394 . S
C1107 C1108 1.359 . S
C1107 H1119 0.930 . S
C1108 C1098 1.391 . S
C1108 C1107 1.359 . S
C1108 H1120 0.929 . S
H1109 C1105 0.930 . S
H1110 C1099 0.930 . S
H1111 C1128 0.930 . S
H1112 C1100 0.930 . S
H1113 C1101 0.930 . S
H1114 C1095 0.929 . S
H1115 C1133 0.930 . S
H1116 C1124 0.930 . S
H1117 C1125 0.930 . S
H1118 C1149 0.929 . S
H1119 C1107 0.930 . S
H1120 C1108 0.929 . S
H1121 C1150 0.930 . S
H1122 C1131 0.930 . S
N1123 Gd1092 2.661 . S
N1123 C1127 1.350 . S
N1123 C1128 1.307 . S
C1124 H1116 0.930 . S
C1124 C1125 1.355 . S
C1124 C1126 1.412 . S
C1125 H1117 0.930 . S
C1125 C1124 1.355 . S
C1125 C1128 1.402 . S
C1126 C1124 1.412 . S
C1126 C1127 1.417 . S
C1126 C1150 1.431 . S
C1127 N1123 1.350 . S
C1127 C1126 1.417 . S
C1127 C1130 1.426 . S
C1128 H1111 0.930 . S
C1128 N1123 1.307 . S
C1128 C1125 1.402 . S
N1129 Gd1092 2.601 . S
N1129 C1130 1.359 . S
N1129 C1133 1.334 . S
C1130 C1127 1.426 . S
C1130 N1129 1.359 . S
C1130 C1134 1.413 . S
C1131 H1122 0.930 . S
C1131 C1132 1.359 . S
C1131 C1133 1.394 . S
C1132 C1131 1.359 . S
C1132 C1134 1.391 . S
C1132 H1135 0.929 . S
C1133 H1115 0.930 . S
C1133 N1129 1.334 . S
C1133 C1131 1.394 . S
C1134 C1130 1.413 . S
C1134 C1132 1.391 . S
C1134 C1149 1.437 . S
H1135 C1132 0.929 . S
O1136 Gd1092 2.545 . S
O1136 C1151 1.258 . S
O1137 Gd1092 2.606 . S
O1137 Gd1093 2.362 . S
O1137 C1148 1.284 . S
O1138 Gd1093 2.324 . S
O1138 C1158 1.254 . S
O1139 Gd1092 2.429 . S
O1139 C1158 1.268 . S
O1140 Gd1092 2.545 . S
O1140 C1148 1.250 . S
O1141 Gd1092 2.412 . S
O1141 C1151 1.252 . S
O1142 Gd1093 2.545 . S
O1142 C1160 1.258 . S
O1143 Gd1092 2.362 . S
O1143 Gd1093 2.606 . S
O1143 C1159 1.284 . S
O1144 Gd1092 2.324 . S
O1144 C1167 1.254 . S
O1145 Gd1093 2.429 . S
O1145 C1167 1.268 . S
O1146 Gd1093 2.545 . S
O1146 C1159 1.250 . S
O1147 Gd1093 2.412 . S
O1147 C1160 1.252 . S
C1148 O1137 1.284 . S
C1148 O1140 1.250 . S
C1149 H1118 0.929 . S
C1149 C1134 1.437 . S
C1149 C1150 1.317 . S
C1150 H1121 0.930 . S
C1150 C1126 1.431 . S
C1150 C1149 1.317 . S
C1151 Gd1092 2.828 . S
C1151 O1136 1.258 . S
C1151 O1141 1.252 . S
C1151 C1152 1.497 . S
C1152 C1151 1.497 . S
C1152 C1153 1.395 . S
C1152 C1154 1.380 . S
C1153 C1152 1.395 . S
C1153 C1156 1.398 . S
C1153 H1168 0.930 . S
C1154 C1152 1.380 . S
C1154 C1155 1.391 . S
C1154 H1169 0.930 . S
C1155 C1154 1.391 . S
C1155 C1157 1.387 . S
C1156 C1153 1.398 . S
C1156 C1157 1.380 . S
C1156 H1170 0.930 . S
C1157 C1155 1.387 . S
C1157 C1156 1.380 . S
C1157 H1171 0.930 . S
C1158 O1138 1.254 . S
C1158 O1139 1.268 . S
C1159 O1143 1.284 . S
C1159 O1146 1.250 . S
C1160 Gd1093 2.828 . S
C1160 O1142 1.258 . S
C1160 O1147 1.252 . S
C1160 C1161 1.497 . S
C1161 C1160 1.497 . S
C1161 C1162 1.395 . S
C1161 C1163 1.380 . S
C1162 C1161 1.395 . S
C1162 C1165 1.398 . S
C1162 H1172 0.930 . S
C1163 C1161 1.380 . S
C1163 C1164 1.391 . S
C1163 H1173 0.930 . S
C1164 C1163 1.391 . S
C1164 C1166 1.387 . S
C1165 C1162 1.398 . S
C1165 C1166 1.380 . S
C1165 H1174 0.930 . S
C1166 C1164 1.387 . S
C1166 C1165 1.380 . S
C1166 H1175 0.930 . S
C1167 O1144 1.254 . S
C1167 O1145 1.268 . S
H1168 C1153 0.930 . S
H1169 C1154 0.930 . S
H1170 C1156 0.930 . S
H1171 C1157 0.930 . S
H1172 C1162 0.930 . S
H1173 C1163 0.930 . S
H1174 C1165 0.930 . S
H1175 C1166 0.930 . S
Gd1176 N1207 2.661 . S
Gd1176 N1213 2.601 . S
Gd1176 O1220 2.545 . S
Gd1176 O1221 2.606 . S
Gd1176 O1223 2.429 . S
Gd1176 O1224 2.545 . S
Gd1176 O1225 2.412 . S
Gd1176 O1227 2.362 . S
Gd1176 O1228 2.324 . S
Gd1176 C1235 2.828 . S
Gd1177 N1186 2.661 . S
Gd1177 N1190 2.601 . S
Gd1177 O1221 2.362 . S
Gd1177 O1222 2.324 . S
Gd1177 O1226 2.545 . S
Gd1177 O1227 2.606 . S
Gd1177 O1229 2.429 . S
Gd1177 O1230 2.545 . S
Gd1177 O1231 2.412 . S
Gd1177 C1244 2.828 . S
C1178 C1181 1.417 . S
C1178 C1183 1.431 . S
C1178 C1184 1.412 . S
C1179 C1182 1.437 . S
C1179 C1183 1.317 . S
C1179 H1198 0.929 . S
C1180 C1181 1.426 . S
C1180 C1182 1.413 . S
C1180 N1190 1.359 . S
C1181 C1178 1.417 . S
C1181 C1180 1.426 . S
C1181 N1186 1.350 . S
C1182 C1179 1.437 . S
C1182 C1180 1.413 . S
C1182 C1192 1.391 . S
C1183 C1178 1.431 . S
C1183 C1179 1.317 . S
C1183 H1194 0.930 . S
C1184 C1178 1.412 . S
C1184 C1185 1.355 . S
C1184 H1196 0.930 . S
C1185 C1184 1.355 . S
C1185 C1187 1.402 . S
C1185 H1197 0.930 . S
N1186 Gd1177 2.661 . S
N1186 C1181 1.350 . S
N1186 C1187 1.307 . S
C1187 C1185 1.402 . S
C1187 N1186 1.307 . S
C1187 H1188 0.930 . S
H1188 C1187 0.930 . S
C1189 N1190 1.334 . S
C1189 C1191 1.394 . S
C1189 H1193 0.930 . S
N1190 Gd1177 2.601 . S
N1190 C1180 1.359 . S
N1190 C1189 1.334 . S
C1191 C1189 1.394 . S
C1191 C1192 1.359 . S
C1191 H1203 0.930 . S
C1192 C1182 1.391 . S
C1192 C1191 1.359 . S
C1192 H1204 0.929 . S
H1193 C1189 0.930 . S
H1194 C1183 0.930 . S
H1195 C1212 0.930 . S
H1196 C1184 0.930 . S
H1197 C1185 0.930 . S
H1198 C1179 0.929 . S
H1199 C1217 0.930 . S
H1200 C1208 0.930 . S
H1201 C1209 0.930 . S
H1202 C1233 0.929 . S
H1203 C1191 0.930 . S
H1204 C1192 0.929 . S
H1205 C1234 0.930 . S
H1206 C1215 0.930 . S
N1207 Gd1176 2.661 . S
N1207 C1211 1.377 . S
N1207 C1212 1.307 . S
C1208 H1200 0.930 . S
C1208 C1209 1.355 . S
C1208 C1210 1.412 . S
C1209 H1201 0.930 . S
C1209 C1208 1.355 . S
C1209 C1212 1.402 1_655 S
C1210 C1208 1.412 . S
C1210 C1211 1.395 1_655 S
C1210 C1234 1.431 . S
C1211 N1207 1.377 . S
C1211 C1210 1.395 1_455 S
C1211 C1214 1.422 . S
C1212 H1195 0.930 . S
C1212 N1207 1.307 . S
C1212 C1209 1.402 1_455 S
N1213 Gd1176 2.601 . S
N1213 C1214 1.359 . S
N1213 C1217 1.334 . S
C1214 C1211 1.422 . S
C1214 N1213 1.359 . S
C1214 C1218 1.413 1_455 S
C1215 H1206 0.930 . S
C1215 C1216 1.359 1_455 S
C1215 C1217 1.394 . S
C1216 C1215 1.359 1_655 S
C1216 C1218 1.391 . S
C1216 H1219 0.929 . S
C1217 H1199 0.930 . S
C1217 N1213 1.334 . S
C1217 C1215 1.394 . S
C1218 C1214 1.413 1_655 S
C1218 C1216 1.391 . S
C1218 C1233 1.437 . S
H1219 C1216 0.929 . S
O1220 Gd1176 2.545 . S
O1220 C1235 1.258 . S
O1221 Gd1176 2.606 . S
O1221 Gd1177 2.362 . S
O1221 C1232 1.284 . S
O1222 Gd1177 2.324 . S
O1222 C1242 1.254 . S
O1223 Gd1176 2.429 . S
O1223 C1242 1.268 . S
O1224 Gd1176 2.545 . S
O1224 C1232 1.250 . S
O1225 Gd1176 2.412 . S
O1225 C1235 1.252 . S
O1226 Gd1177 2.545 . S
O1226 C1244 1.258 . S
O1227 Gd1176 2.362 . S
O1227 Gd1177 2.606 . S
O1227 C1243 1.284 . S
O1228 Gd1176 2.324 . S
O1228 C1251 1.254 . S
O1229 Gd1177 2.429 . S
O1229 C1251 1.268 . S
O1230 Gd1177 2.545 . S
O1230 C1243 1.250 . S
O1231 Gd1177 2.412 . S
O1231 C1244 1.252 . S
C1232 O1221 1.284 . S
C1232 O1224 1.250 . S
C1233 H1202 0.929 . S
C1233 C1218 1.437 . S
C1233 C1234 1.317 . S
C1234 H1205 0.930 . S
C1234 C1210 1.431 . S
C1234 C1233 1.317 . S
C1235 Gd1176 2.828 . S
C1235 O1220 1.258 . S
C1235 O1225 1.252 . S
C1235 C1236 1.497 . S
C1236 C1235 1.497 . S
C1236 C1237 1.395 . S
C1236 C1238 1.380 . S
C1237 C1236 1.395 . S
C1237 C1240 1.398 . S
C1237 H1252 0.930 . S
C1238 C1236 1.380 . S
C1238 C1239 1.391 . S
C1238 H1253 0.930 . S
C1239 C1238 1.391 . S
C1239 C1241 1.387 . S
C1240 C1237 1.398 . S
C1240 C1241 1.380 . S
C1240 H1254 0.930 . S
C1241 C1239 1.387 . S
C1241 C1240 1.380 . S
C1241 H1255 0.930 . S
C1242 O1222 1.254 . S
C1242 O1223 1.268 . S
C1243 O1227 1.284 . S
C1243 O1230 1.250 . S
C1244 Gd1177 2.828 . S
C1244 O1226 1.258 . S
C1244 O1231 1.252 . S
C1244 C1245 1.497 . S
C1245 C1244 1.497 . S
C1245 C1246 1.395 . S
C1245 C1247 1.380 . S
C1246 C1245 1.395 . S
C1246 C1249 1.398 . S
C1246 H1256 0.930 . S
C1247 C1245 1.380 . S
C1247 C1248 1.391 . S
C1247 H1257 0.930 . S
C1248 C1247 1.391 . S
C1248 C1250 1.387 . S
C1249 C1246 1.398 . S
C1249 C1250 1.380 . S
C1249 H1258 0.930 . S
C1250 C1248 1.387 . S
C1250 C1249 1.380 . S
C1250 H1259 0.930 . S
C1251 O1228 1.254 . S
C1251 O1229 1.268 . S
H1252 C1237 0.930 . S
H1253 C1238 0.930 . S
H1254 C1240 0.930 . S
H1255 C1241 0.930 . S
H1256 C1246 0.930 . S
H1257 C1247 0.930 . S
H1258 C1249 0.930 . S
H1259 C1250 0.930 . S
Gd1260 N1291 2.661 . S
Gd1260 N1297 2.601 . S
Gd1260 O1304 2.545 . S
Gd1260 O1305 2.606 . S
Gd1260 O1307 2.429 . S
Gd1260 O1308 2.545 . S
Gd1260 O1309 2.412 . S
Gd1260 O1311 2.362 . S
Gd1260 O1312 2.324 . S
Gd1260 C1319 2.828 . S
Gd1261 N1270 2.661 . S
Gd1261 N1274 2.601 . S
Gd1261 O1305 2.362 . S
Gd1261 O1306 2.324 . S
Gd1261 O1310 2.545 . S
Gd1261 O1311 2.606 . S
Gd1261 O1313 2.429 . S
Gd1261 O1314 2.545 . S
Gd1261 O1315 2.412 . S
Gd1261 C1328 2.828 . S
C1262 C1265 1.417 . S
C1262 C1267 1.431 . S
C1262 C1268 1.412 . S
C1263 C1266 1.437 . S
C1263 C1267 1.317 . S
C1263 H1282 0.929 . S
C1264 C1265 1.426 . S
C1264 C1266 1.413 . S
C1264 N1274 1.359 . S
C1265 C1262 1.417 . S
C1265 C1264 1.426 . S
C1265 N1270 1.350 . S
C1266 C1263 1.437 . S
C1266 C1264 1.413 . S
C1266 C1276 1.391 . S
C1267 C1262 1.431 . S
C1267 C1263 1.317 . S
C1267 H1278 0.930 . S
C1268 C1262 1.412 . S
C1268 C1269 1.355 . S
C1268 H1280 0.930 . S
C1269 C1268 1.355 . S
C1269 C1271 1.402 . S
C1269 H1281 0.930 . S
N1270 Gd1261 2.661 . S
N1270 C1265 1.350 . S
N1270 C1271 1.307 . S
C1271 C1269 1.402 . S
C1271 N1270 1.307 . S
C1271 H1272 0.930 . S
H1272 C1271 0.930 . S
C1273 N1274 1.334 . S
C1273 C1275 1.394 . S
C1273 H1277 0.930 . S
N1274 Gd1261 2.601 . S
N1274 C1264 1.359 . S
N1274 C1273 1.334 . S
C1275 C1273 1.394 . S
C1275 C1276 1.359 . S
C1275 H1287 0.930 . S
C1276 C1266 1.391 . S
C1276 C1275 1.359 . S
C1276 H1288 0.929 . S
H1277 C1273 0.930 . S
H1278 C1267 0.930 . S
H1279 C1296 0.930 . S
H1280 C1268 0.930 . S
H1281 C1269 0.930 . S
H1282 C1263 0.929 . S
H1283 C1301 0.930 . S
H1284 C1292 0.930 . S
H1285 C1293 0.930 . S
H1286 C1317 0.929 . S
H1287 C1275 0.930 . S
H1288 C1276 0.929 . S
H1289 C1318 0.930 . S
H1290 C1299 0.930 . S
N1291 Gd1260 2.661 . S
N1291 C1295 1.350 . S
N1291 C1296 1.307 . S
C1292 H1284 0.930 . S
C1292 C1293 1.355 . S
C1292 C1294 1.412 . S
C1293 H1285 0.930 . S
C1293 C1292 1.355 . S
C1293 C1296 1.402 . S
C1294 C1292 1.412 . S
C1294 C1295 1.417 . S
C1294 C1318 1.431 . S
C1295 N1291 1.350 . S
C1295 C1294 1.417 . S
C1295 C1298 1.426 . S
C1296 H1279 0.930 . S
C1296 N1291 1.307 . S
C1296 C1293 1.402 . S
N1297 Gd1260 2.601 . S
N1297 C1298 1.359 . S
N1297 C1301 1.334 . S
C1298 C1295 1.426 . S
C1298 N1297 1.359 . S
C1298 C1302 1.413 . S
C1299 H1290 0.930 . S
C1299 C1300 1.359 . S
C1299 C1301 1.394 . S
C1300 C1299 1.359 . S
C1300 C1302 1.391 . S
C1300 H1303 0.929 . S
C1301 H1283 0.930 . S
C1301 N1297 1.334 . S
C1301 C1299 1.394 . S
C1302 C1298 1.413 . S
C1302 C1300 1.391 . S
C1302 C1317 1.437 . S
H1303 C1300 0.929 . S
O1304 Gd1260 2.545 . S
O1304 C1319 1.258 . S
O1305 Gd1260 2.606 . S
O1305 Gd1261 2.362 . S
O1305 C1316 1.284 . S
O1306 Gd1261 2.324 . S
O1306 C1326 1.254 . S
O1307 Gd1260 2.429 . S
O1307 C1326 1.268 . S
O1308 Gd1260 2.545 . S
O1308 C1316 1.250 . S
O1309 Gd1260 2.412 . S
O1309 C1319 1.252 . S
O1310 Gd1261 2.545 . S
O1310 C1328 1.258 . S
O1311 Gd1260 2.362 . S
O1311 Gd1261 2.606 . S
O1311 C1327 1.284 . S
O1312 Gd1260 2.324 . S
O1312 C1335 1.254 . S
O1313 Gd1261 2.429 . S
O1313 C1335 1.268 . S
O1314 Gd1261 2.545 . S
O1314 C1327 1.250 . S
O1315 Gd1261 2.412 . S
O1315 C1328 1.252 . S
C1316 O1305 1.284 . S
C1316 O1308 1.250 . S
C1317 H1286 0.929 . S
C1317 C1302 1.437 . S
C1317 C1318 1.317 . S
C1318 H1289 0.930 . S
C1318 C1294 1.431 . S
C1318 C1317 1.317 . S
C1319 Gd1260 2.828 . S
C1319 O1304 1.258 . S
C1319 O1309 1.252 . S
C1319 C1320 1.497 . S
C1320 C1319 1.497 . S
C1320 C1321 1.395 . S
C1320 C1322 1.380 . S
C1321 C1320 1.395 . S
C1321 C1324 1.398 . S
C1321 H1336 0.930 . S
C1322 C1320 1.380 . S
C1322 C1323 1.391 . S
C1322 H1337 0.930 . S
C1323 C1322 1.391 . S
C1323 C1325 1.387 . S
C1324 C1321 1.398 . S
C1324 C1325 1.380 . S
C1324 H1338 0.930 . S
C1325 C1323 1.387 . S
C1325 C1324 1.380 . S
C1325 H1339 0.930 . S
C1326 O1306 1.254 . S
C1326 O1307 1.268 . S
C1327 O1311 1.284 . S
C1327 O1314 1.250 . S
C1328 Gd1261 2.828 . S
C1328 O1310 1.258 . S
C1328 O1315 1.252 . S
C1328 C1329 1.497 . S
C1329 C1328 1.497 . S
C1329 C1330 1.395 . S
C1329 C1331 1.380 . S
C1330 C1329 1.395 . S
C1330 C1333 1.398 . S
C1330 H1340 0.930 . S
C1331 C1329 1.380 . S
C1331 C1332 1.391 . S
C1331 H1341 0.930 . S
C1332 C1331 1.391 . S
C1332 C1334 1.387 . S
C1333 C1330 1.398 . S
C1333 C1334 1.380 . S
C1333 H1342 0.930 . S
C1334 C1332 1.387 . S
C1334 C1333 1.380 . S
C1334 H1343 0.930 . S
C1335 O1312 1.254 . S
C1335 O1313 1.268 . S
H1336 C1321 0.930 . S
H1337 C1322 0.930 . S
H1338 C1324 0.930 . S
H1339 C1325 0.930 . S
H1340 C1330 0.930 . S
H1341 C1331 0.930 . S
H1342 C1333 0.930 . S
H1343 C1334 0.930 . S
Gd1344 N1375 2.661 . S
Gd1344 N1381 2.601 . S
Gd1344 O1388 2.545 . S
Gd1344 O1389 2.606 . S
Gd1344 O1391 2.429 . S
Gd1344 O1392 2.545 . S
Gd1344 O1393 2.412 . S
Gd1344 O1395 2.362 . S
Gd1344 O1396 2.324 . S
Gd1344 C1403 2.828 . S
Gd1345 N1354 2.661 . S
Gd1345 N1358 2.601 . S
Gd1345 O1389 2.362 . S
Gd1345 O1390 2.324 . S
Gd1345 O1394 2.545 . S
Gd1345 O1395 2.606 . S
Gd1345 O1397 2.429 . S
Gd1345 O1398 2.545 . S
Gd1345 O1399 2.412 . S
Gd1345 C1412 2.828 . S
C1346 C1349 1.417 . S
C1346 C1351 1.431 . S
C1346 C1352 1.412 . S
C1347 C1350 1.437 . S
C1347 C1351 1.317 . S
C1347 H1366 0.929 . S
C1348 C1349 1.426 . S
C1348 C1350 1.413 . S
C1348 N1358 1.359 . S
C1349 C1346 1.417 . S
C1349 C1348 1.426 . S
C1349 N1354 1.350 . S
C1350 C1347 1.437 . S
C1350 C1348 1.413 . S
C1350 C1360 1.391 . S
C1351 C1346 1.431 . S
C1351 C1347 1.317 . S
C1351 H1362 0.930 . S
C1352 C1346 1.412 . S
C1352 C1353 1.355 . S
C1352 H1364 0.930 . S
C1353 C1352 1.355 . S
C1353 C1355 1.402 . S
C1353 H1365 0.930 . S
N1354 Gd1345 2.661 . S
N1354 C1349 1.350 . S
N1354 C1355 1.307 . S
C1355 C1353 1.402 . S
C1355 N1354 1.307 . S
C1355 H1356 0.930 . S
H1356 C1355 0.930 . S
C1357 N1358 1.334 . S
C1357 C1359 1.394 . S
C1357 H1361 0.930 . S
N1358 Gd1345 2.601 . S
N1358 C1348 1.359 . S
N1358 C1357 1.334 . S
C1359 C1357 1.394 . S
C1359 C1360 1.359 . S
C1359 H1371 0.930 . S
C1360 C1350 1.391 . S
C1360 C1359 1.359 . S
C1360 H1372 0.929 . S
H1361 C1357 0.930 . S
H1362 C1351 0.930 . S
H1363 C1380 0.930 . S
H1364 C1352 0.930 . S
H1365 C1353 0.930 . S
H1366 C1347 0.929 . S
H1367 C1385 0.930 . S
H1368 C1376 0.930 . S
H1369 C1377 0.930 . S
H1370 C1401 0.929 . S
H1371 C1359 0.930 . S
H1372 C1360 0.929 . S
H1373 C1402 0.930 . S
H1374 C1383 0.930 . S
N1375 Gd1344 2.661 . S
N1375 C1379 1.350 . S
N1375 C1380 1.307 . S
C1376 H1368 0.930 . S
C1376 C1377 1.355 . S
C1376 C1378 1.412 . S
C1377 H1369 0.930 . S
C1377 C1376 1.355 . S
C1377 C1380 1.402 . S
C1378 C1376 1.412 . S
C1378 C1379 1.417 . S
C1378 C1402 1.431 . S
C1379 N1375 1.350 . S
C1379 C1378 1.417 . S
C1379 C1382 1.426 . S
C1380 H1363 0.930 . S
C1380 N1375 1.307 . S
C1380 C1377 1.402 . S
N1381 Gd1344 2.601 . S
N1381 C1382 1.359 . S
N1381 C1385 1.334 . S
C1382 C1379 1.426 . S
C1382 N1381 1.359 . S
C1382 C1386 1.413 . S
C1383 H1374 0.930 . S
C1383 C1384 1.359 . S
C1383 C1385 1.394 . S
C1384 C1383 1.359 . S
C1384 C1386 1.391 . S
C1384 H1387 0.929 . S
C1385 H1367 0.930 . S
C1385 N1381 1.334 . S
C1385 C1383 1.394 . S
C1386 C1382 1.413 . S
C1386 C1384 1.391 . S
C1386 C1401 1.437 . S
H1387 C1384 0.929 . S
O1388 Gd1344 2.545 . S
O1388 C1403 1.258 . S
O1389 Gd1344 2.606 . S
O1389 Gd1345 2.362 . S
O1389 C1400 1.284 . S
O1390 Gd1345 2.324 . S
O1390 C1410 1.254 . S
O1391 Gd1344 2.429 . S
O1391 C1410 1.268 . S
O1392 Gd1344 2.545 . S
O1392 C1400 1.250 . S
O1393 Gd1344 2.412 . S
O1393 C1403 1.252 . S
O1394 Gd1345 2.545 . S
O1394 C1412 1.258 . S
O1395 Gd1344 2.362 . S
O1395 Gd1345 2.606 . S
O1395 C1411 1.284 . S
O1396 Gd1344 2.324 . S
O1396 C1419 1.254 . S
O1397 Gd1345 2.429 . S
O1397 C1419 1.268 . S
O1398 Gd1345 2.545 . S
O1398 C1411 1.250 . S
O1399 Gd1345 2.412 . S
O1399 C1412 1.252 . S
C1400 O1389 1.284 . S
C1400 O1392 1.250 . S
C1401 H1370 0.929 . S
C1401 C1386 1.437 . S
C1401 C1402 1.317 . S
C1402 H1373 0.930 . S
C1402 C1378 1.431 . S
C1402 C1401 1.317 . S
C1403 Gd1344 2.828 . S
C1403 O1388 1.258 . S
C1403 O1393 1.252 . S
C1403 C1404 1.497 . S
C1404 C1403 1.497 . S
C1404 C1405 1.395 . S
C1404 C1406 1.380 . S
C1405 C1404 1.395 . S
C1405 C1408 1.398 . S
C1405 H1420 0.930 . S
C1406 C1404 1.380 . S
C1406 C1407 1.391 . S
C1406 H1421 0.930 . S
C1407 C1406 1.391 . S
C1407 C1409 1.387 . S
C1408 C1405 1.398 . S
C1408 C1409 1.380 . S
C1408 H1422 0.930 . S
C1409 C1407 1.387 . S
C1409 C1408 1.380 . S
C1409 H1423 0.930 . S
C1410 O1390 1.254 . S
C1410 O1391 1.268 . S
C1411 O1395 1.284 . S
C1411 O1398 1.250 . S
C1412 Gd1345 2.828 . S
C1412 O1394 1.258 . S
C1412 O1399 1.252 . S
C1412 C1413 1.497 . S
C1413 C1412 1.497 . S
C1413 C1414 1.395 . S
C1413 C1415 1.380 . S
C1414 C1413 1.395 . S
C1414 C1417 1.398 . S
C1414 H1424 0.930 . S
C1415 C1413 1.380 . S
C1415 C1416 1.391 . S
C1415 H1425 0.930 . S
C1416 C1415 1.391 . S
C1416 C1418 1.387 . S
C1417 C1414 1.398 . S
C1417 C1418 1.380 . S
C1417 H1426 0.930 . S
C1418 C1416 1.387 . S
C1418 C1417 1.380 . S
C1418 H1427 0.930 . S
C1419 O1396 1.254 . S
C1419 O1397 1.268 . S
H1420 C1405 0.930 . S
H1421 C1406 0.930 . S
H1422 C1408 0.930 . S
H1423 C1409 0.930 . S
H1424 C1414 0.930 . S
H1425 C1415 0.930 . S
H1426 C1417 0.930 . S
H1427 C1418 0.930 . S
Gd1428 N1459 2.661 . S
Gd1428 N1465 2.601 . S
Gd1428 O1472 2.545 . S
Gd1428 O1473 2.606 . S
Gd1428 O1475 2.429 . S
Gd1428 O1476 2.545 . S
Gd1428 O1477 2.412 . S
Gd1428 O1479 2.362 . S
Gd1428 O1480 2.324 . S
Gd1428 C1487 2.828 . S
Gd1429 N1438 2.661 . S
Gd1429 N1442 2.601 . S
Gd1429 O1473 2.362 . S
Gd1429 O1474 2.324 . S
Gd1429 O1478 2.545 . S
Gd1429 O1479 2.606 . S
Gd1429 O1481 2.429 . S
Gd1429 O1482 2.545 . S
Gd1429 O1483 2.412 . S
Gd1429 C1496 2.828 . S
C1430 C1433 1.417 . S
C1430 C1435 1.431 . S
C1430 C1436 1.412 . S
C1431 C1434 1.437 . S
C1431 C1435 1.317 . S
C1431 H1450 0.929 . S
C1432 C1433 1.426 . S
C1432 C1434 1.413 . S
C1432 N1442 1.359 . S
C1433 C1430 1.417 . S
C1433 C1432 1.426 . S
C1433 N1438 1.350 . S
C1434 C1431 1.437 . S
C1434 C1432 1.413 . S
C1434 C1444 1.391 . S
C1435 C1430 1.431 . S
C1435 C1431 1.317 . S
C1435 H1446 0.930 . S
C1436 C1430 1.412 . S
C1436 C1437 1.355 . S
C1436 H1448 0.930 . S
C1437 C1436 1.355 . S
C1437 C1439 1.402 . S
C1437 H1449 0.930 . S
N1438 Gd1429 2.661 . S
N1438 C1433 1.350 . S
N1438 C1439 1.307 . S
C1439 C1437 1.402 . S
C1439 N1438 1.307 . S
C1439 H1440 0.930 . S
H1440 C1439 0.930 . S
C1441 N1442 1.334 . S
C1441 C1443 1.394 . S
C1441 H1445 0.930 . S
N1442 Gd1429 2.601 . S
N1442 C1432 1.359 . S
N1442 C1441 1.334 . S
C1443 C1441 1.394 . S
C1443 C1444 1.359 . S
C1443 H1455 0.930 . S
C1444 C1434 1.391 . S
C1444 C1443 1.359 . S
C1444 H1456 0.929 . S
H1445 C1441 0.930 . S
H1446 C1435 0.930 . S
H1447 C1464 0.930 . S
H1448 C1436 0.930 . S
H1449 C1437 0.930 . S
H1450 C1431 0.929 . S
H1451 C1469 0.930 . S
H1452 C1460 0.930 . S
H1453 C1461 0.930 . S
H1454 C1485 0.929 . S
H1455 C1443 0.930 . S
H1456 C1444 0.929 . S
H1457 C1486 0.930 . S
H1458 C1467 0.930 . S
N1459 Gd1428 2.661 . S
N1459 C1463 1.350 . S
N1459 C1464 1.307 . S
C1460 H1452 0.930 . S
C1460 C1461 1.355 . S
C1460 C1462 1.412 . S
C1461 H1453 0.930 . S
C1461 C1460 1.355 . S
C1461 C1464 1.402 . S
C1462 C1460 1.412 . S
C1462 C1463 1.417 . S
C1462 C1486 1.431 . S
C1463 N1459 1.350 . S
C1463 C1462 1.417 . S
C1463 C1466 1.426 . S
C1464 H1447 0.930 . S
C1464 N1459 1.307 . S
C1464 C1461 1.402 . S
N1465 Gd1428 2.601 . S
N1465 C1466 1.359 . S
N1465 C1469 1.334 . S
C1466 C1463 1.426 . S
C1466 N1465 1.359 . S
C1466 C1470 1.413 . S
C1467 H1458 0.930 . S
C1467 C1468 1.359 . S
C1467 C1469 1.394 . S
C1468 C1467 1.359 . S
C1468 C1470 1.391 . S
C1468 H1471 0.929 . S
C1469 H1451 0.930 . S
C1469 N1465 1.334 . S
C1469 C1467 1.394 . S
C1470 C1466 1.413 . S
C1470 C1468 1.391 . S
C1470 C1485 1.437 . S
H1471 C1468 0.929 . S
O1472 Gd1428 2.545 . S
O1472 C1487 1.258 . S
O1473 Gd1428 2.606 . S
O1473 Gd1429 2.362 . S
O1473 C1484 1.284 . S
O1474 Gd1429 2.324 . S
O1474 C1494 1.254 . S
O1475 Gd1428 2.429 . S
O1475 C1494 1.268 . S
O1476 Gd1428 2.545 . S
O1476 C1484 1.250 . S
O1477 Gd1428 2.412 . S
O1477 C1487 1.252 . S
O1478 Gd1429 2.545 . S
O1478 C1496 1.258 . S
O1479 Gd1428 2.362 . S
O1479 Gd1429 2.606 . S
O1479 C1495 1.284 . S
O1480 Gd1428 2.324 . S
O1480 C1503 1.254 . S
O1481 Gd1429 2.429 . S
O1481 C1503 1.268 . S
O1482 Gd1429 2.545 . S
O1482 C1495 1.250 . S
O1483 Gd1429 2.412 . S
O1483 C1496 1.252 . S
C1484 O1473 1.284 . S
C1484 O1476 1.250 . S
C1485 H1454 0.929 . S
C1485 C1470 1.437 . S
C1485 C1486 1.317 . S
C1486 H1457 0.930 . S
C1486 C1462 1.431 . S
C1486 C1485 1.317 . S
C1487 Gd1428 2.828 . S
C1487 O1472 1.258 . S
C1487 O1477 1.252 . S
C1487 C1488 1.497 . S
C1488 C1487 1.497 . S
C1488 C1489 1.395 . S
C1488 C1490 1.380 . S
C1489 C1488 1.395 . S
C1489 C1492 1.398 . S
C1489 H1504 0.930 . S
C1490 C1488 1.380 . S
C1490 C1491 1.391 . S
C1490 H1505 0.930 . S
C1491 C1490 1.391 . S
C1491 C1493 1.387 . S
C1492 C1489 1.398 . S
C1492 C1493 1.380 . S
C1492 H1506 0.930 . S
C1493 C1491 1.387 . S
C1493 C1492 1.380 . S
C1493 H1507 0.930 . S
C1494 O1474 1.254 . S
C1494 O1475 1.268 . S
C1495 O1479 1.284 . S
C1495 O1482 1.250 . S
C1496 Gd1429 2.828 . S
C1496 O1478 1.258 . S
C1496 O1483 1.252 . S
C1496 C1497 1.497 . S
C1497 C1496 1.497 . S
C1497 C1498 1.395 . S
C1497 C1499 1.380 . S
C1498 C1497 1.395 . S
C1498 C1501 1.398 . S
C1498 H1508 0.930 . S
C1499 C1497 1.380 . S
C1499 C1500 1.391 . S
C1499 H1509 0.930 . S
C1500 C1499 1.391 . S
C1500 C1502 1.387 . S
C1501 C1498 1.398 . S
C1501 C1502 1.380 . S
C1501 H1510 0.930 . S
C1502 C1500 1.387 . S
C1502 C1501 1.380 . S
C1502 H1511 0.930 . S
C1503 O1480 1.254 . S
C1503 O1481 1.268 . S
H1504 C1489 0.930 . S
H1505 C1490 0.930 . S
H1506 C1492 0.930 . S
H1507 C1493 0.930 . S
H1508 C1498 0.930 . S
H1509 C1499 0.930 . S
H1510 C1501 0.930 . S
H1511 C1502 0.930 . S
Gd1512 N1543 2.661 . S
Gd1512 N1549 2.601 . S
Gd1512 O1556 2.545 . S
Gd1512 O1557 2.606 . S
Gd1512 O1559 2.429 . S
Gd1512 O1560 2.545 . S
Gd1512 O1561 2.412 . S
Gd1512 O1563 2.362 . S
Gd1512 O1564 2.324 . S
Gd1512 C1571 2.828 . S
Gd1513 N1522 2.661 . S
Gd1513 N1526 2.601 . S
Gd1513 O1557 2.362 . S
Gd1513 O1558 2.324 . S
Gd1513 O1562 2.545 . S
Gd1513 O1563 2.606 . S
Gd1513 O1565 2.429 . S
Gd1513 O1566 2.545 . S
Gd1513 O1567 2.412 . S
Gd1513 C1580 2.828 . S
C1514 C1517 1.417 . S
C1514 C1519 1.431 . S
C1514 C1520 1.412 . S
C1515 C1518 1.437 . S
C1515 C1519 1.317 . S
C1515 H1534 0.929 . S
C1516 C1517 1.426 . S
C1516 C1518 1.413 . S
C1516 N1526 1.359 . S
C1517 C1514 1.417 . S
C1517 C1516 1.426 . S
C1517 N1522 1.350 . S
C1518 C1515 1.437 . S
C1518 C1516 1.413 . S
C1518 C1528 1.391 . S
C1519 C1514 1.431 . S
C1519 C1515 1.317 . S
C1519 H1530 0.930 . S
C1520 C1514 1.412 . S
C1520 C1521 1.355 . S
C1520 H1532 0.930 . S
C1521 C1520 1.355 . S
C1521 C1523 1.402 . S
C1521 H1533 0.930 . S
N1522 Gd1513 2.661 . S
N1522 C1517 1.350 . S
N1522 C1523 1.307 . S
C1523 C1521 1.402 . S
C1523 N1522 1.307 . S
C1523 H1524 0.930 . S
H1524 C1523 0.930 . S
C1525 N1526 1.334 . S
C1525 C1527 1.394 . S
C1525 H1529 0.930 . S
N1526 Gd1513 2.601 . S
N1526 C1516 1.359 . S
N1526 C1525 1.334 . S
C1527 C1525 1.394 . S
C1527 C1528 1.359 . S
C1527 H1539 0.930 . S
C1528 C1518 1.391 . S
C1528 C1527 1.359 . S
C1528 H1540 0.929 . S
H1529 C1525 0.930 . S
H1530 C1519 0.930 . S
H1531 C1548 0.930 . S
H1532 C1520 0.930 . S
H1533 C1521 0.930 . S
H1534 C1515 0.929 . S
H1535 C1553 0.930 . S
H1536 C1544 0.930 . S
H1537 C1545 0.930 . S
H1538 C1569 0.929 . S
H1539 C1527 0.930 . S
H1540 C1528 0.929 . S
H1541 C1570 0.930 . S
H1542 C1551 0.930 . S
N1543 Gd1512 2.661 . S
N1543 C1547 1.350 . S
N1543 C1548 1.307 . S
C1544 H1536 0.930 . S
C1544 C1545 1.355 . S
C1544 C1546 1.412 . S
C1545 H1537 0.930 . S
C1545 C1544 1.355 . S
C1545 C1548 1.402 . S
C1546 C1544 1.412 . S
C1546 C1547 1.417 . S
C1546 C1570 1.431 . S
C1547 N1543 1.350 . S
C1547 C1546 1.417 . S
C1547 C1550 1.426 . S
C1548 H1531 0.930 . S
C1548 N1543 1.307 . S
C1548 C1545 1.402 . S
N1549 Gd1512 2.601 . S
N1549 C1550 1.359 . S
N1549 C1553 1.334 . S
C1550 C1547 1.426 . S
C1550 N1549 1.359 . S
C1550 C1554 1.413 . S
C1551 H1542 0.930 . S
C1551 C1552 1.359 . S
C1551 C1553 1.394 . S
C1552 C1551 1.359 . S
C1552 C1554 1.391 . S
C1552 H1555 0.929 . S
C1553 H1535 0.930 . S
C1553 N1549 1.334 . S
C1553 C1551 1.394 . S
C1554 C1550 1.413 . S
C1554 C1552 1.391 . S
C1554 C1569 1.437 . S
H1555 C1552 0.929 . S
O1556 Gd1512 2.545 . S
O1556 C1571 1.258 . S
O1557 Gd1512 2.606 . S
O1557 Gd1513 2.362 . S
O1557 C1568 1.284 . S
O1558 Gd1513 2.324 . S
O1558 C1578 1.254 . S
O1559 Gd1512 2.429 . S
O1559 C1578 1.268 . S
O1560 Gd1512 2.545 . S
O1560 C1568 1.250 . S
O1561 Gd1512 2.412 . S
O1561 C1571 1.252 . S
O1562 Gd1513 2.545 . S
O1562 C1580 1.258 . S
O1563 Gd1512 2.362 . S
O1563 Gd1513 2.606 . S
O1563 C1579 1.284 . S
O1564 Gd1512 2.324 . S
O1564 C1587 1.254 . S
O1565 Gd1513 2.429 . S
O1565 C1587 1.268 . S
O1566 Gd1513 2.545 . S
O1566 C1579 1.250 . S
O1567 Gd1513 2.412 . S
O1567 C1580 1.252 . S
C1568 O1557 1.284 . S
C1568 O1560 1.250 . S
C1569 H1538 0.929 . S
C1569 C1554 1.437 . S
C1569 C1570 1.317 . S
C1570 H1541 0.930 . S
C1570 C1546 1.431 . S
C1570 C1569 1.317 . S
C1571 Gd1512 2.828 . S
C1571 O1556 1.258 . S
C1571 O1561 1.252 . S
C1571 C1572 1.497 . S
C1572 C1571 1.497 . S
C1572 C1573 1.395 . S
C1572 C1574 1.380 . S
C1573 C1572 1.395 . S
C1573 C1576 1.398 . S
C1573 H1588 0.930 . S
C1574 C1572 1.380 . S
C1574 C1575 1.391 . S
C1574 H1589 0.930 . S
C1575 C1574 1.391 . S
C1575 C1577 1.387 . S
C1576 C1573 1.398 . S
C1576 C1577 1.380 . S
C1576 H1590 0.930 . S
C1577 C1575 1.387 . S
C1577 C1576 1.380 . S
C1577 H1591 0.930 . S
C1578 O1558 1.254 . S
C1578 O1559 1.268 . S
C1579 O1563 1.284 . S
C1579 O1566 1.250 . S
C1580 Gd1513 2.828 . S
C1580 O1562 1.258 . S
C1580 O1567 1.252 . S
C1580 C1581 1.497 . S
C1581 C1580 1.497 . S
C1581 C1582 1.395 . S
C1581 C1583 1.380 . S
C1582 C1581 1.395 . S
C1582 C1585 1.398 . S
C1582 H1592 0.930 . S
C1583 C1581 1.380 . S
C1583 C1584 1.391 . S
C1583 H1593 0.930 . S
C1584 C1583 1.391 . S
C1584 C1586 1.387 . S
C1585 C1582 1.398 . S
C1585 C1586 1.380 . S
C1585 H1594 0.930 . S
C1586 C1584 1.387 . S
C1586 C1585 1.380 . S
C1586 H1595 0.930 . S
C1587 O1564 1.254 . S
C1587 O1565 1.268 . S
H1588 C1573 0.930 . S
H1589 C1574 0.930 . S
H1590 C1576 0.930 . S
H1591 C1577 0.930 . S
H1592 C1582 0.930 . S
H1593 C1583 0.930 . S
H1594 C1585 0.930 . S
H1595 C1586 0.930 . S
Gd1596 N1627 2.647 1_455 S
Gd1596 N1633 2.601 . S
Gd1596 O1640 2.545 . S
Gd1596 O1641 2.606 . S
Gd1596 O1643 2.429 . S
Gd1596 O1644 2.545 . S
Gd1596 O1645 2.412 1_455 S
Gd1596 O1647 2.362 . S
Gd1596 O1648 2.324 1_554 S
Gd1596 C1655 2.828 1_455 S
Gd1597 N1606 2.661 . S
Gd1597 N1610 2.601 1_554 S
Gd1597 O1641 2.362 . S
Gd1597 O1642 2.324 . S
Gd1597 O1646 2.545 1_554 S
Gd1597 O1647 2.606 . S
Gd1597 O1649 2.429 1_554 S
Gd1597 O1650 2.545 . S
Gd1597 O1651 2.412 . S
Gd1597 C1664 2.828 1_554 S
C1598 C1601 1.417 . S
C1598 C1603 1.431 . S
C1598 C1604 1.412 . S
C1599 C1602 1.437 . S
C1599 C1603 1.317 1_556 S
C1599 H1618 0.929 . S
C1600 C1601 1.426 1_556 S
C1600 C1602 1.413 . S
C1600 N1610 1.359 . S
C1601 C1598 1.417 . S
C1601 C1600 1.426 1_554 S
C1601 N1606 1.350 . S
C1602 C1599 1.437 . S
C1602 C1600 1.413 . S
C1602 C1612 1.391 . S
C1603 C1598 1.431 . S
C1603 C1599 1.317 1_554 S
C1603 H1614 0.930 . S
C1604 C1598 1.412 . S
C1604 C1605 1.355 . S
C1604 H1616 0.930 . S
C1605 C1604 1.355 . S
C1605 C1607 1.402 . S
C1605 H1617 0.930 . S
N1606 Gd1597 2.661 . S
N1606 C1601 1.350 . S
N1606 C1607 1.307 . S
C1607 C1605 1.402 . S
C1607 N1606 1.307 . S
C1607 H1608 0.930 . S
H1608 C1607 0.930 . S
C1609 N1610 1.334 . S
C1609 C1611 1.394 . S
C1609 H1613 0.930 . S
N1610 Gd1597 2.601 1_556 S
N1610 C1600 1.359 . S
N1610 C1609 1.334 . S
C1611 C1609 1.394 . S
C1611 C1612 1.359 . S
C1611 H1623 0.930 . S
C1612 C1602 1.391 . S
C1612 C1611 1.359 . S
C1612 H1624 0.929 . S
H1613 C1609 0.930 . S
H1614 C1603 0.930 . S
H1615 C1632 0.930 1_455 S
H1616 C1604 0.930 . S
H1617 C1605 0.930 . S
H1618 C1599 0.929 . S
H1619 C1637 0.930 . S
H1620 C1628 0.930 . S
H1621 C1629 0.930 . S
H1622 C1653 0.929 . S
H1623 C1611 0.930 . S
H1624 C1612 0.929 . S
H1625 C1654 0.930 . S
H1626 C1635 0.930 . S
N1627 Gd1596 2.647 1_655 S
N1627 C1631 1.362 . S
N1627 C1632 1.310 1_554 S
C1628 H1620 0.930 . S
C1628 C1629 1.355 . S
C1628 C1630 1.412 1_556 S
C1629 H1621 0.930 . S
C1629 C1628 1.355 . S
C1629 C1632 1.402 . S
C1630 C1628 1.412 1_554 S
C1630 C1631 1.417 . S
C1630 C1654 1.431 . S
C1631 N1627 1.362 . S
C1631 C1630 1.417 . S
C1631 C1634 1.426 . S
C1632 H1615 0.930 1_655 S
C1632 N1627 1.310 1_556 S
C1632 C1629 1.402 . S
N1633 Gd1596 2.601 . S
N1633 C1634 1.359 1_455 S
N1633 C1637 1.334 . S
C1634 C1631 1.426 . S
C1634 N1633 1.359 1_655 S
C1634 C1638 1.413 . S
C1635 H1626 0.930 . S
C1635 C1636 1.359 1_455 S
C1635 C1637 1.394 . S
C1636 C1635 1.359 1_655 S
C1636 C1638 1.391 . S
C1636 H1639 0.929 . S
C1637 H1619 0.930 . S
C1637 N1633 1.334 . S
C1637 C1635 1.394 . S
C1638 C1634 1.413 . S
C1638 C1636 1.391 . S
C1638 C1653 1.437 . S
H1639 C1636 0.929 . S
O1640 Gd1596 2.545 . S
O1640 C1655 1.258 1_455 S
O1641 Gd1596 2.606 . S
O1641 Gd1597 2.362 . S
O1641 C1652 1.284 . S
O1642 Gd1597 2.324 . S
O1642 C1662 1.254 . S
O1643 Gd1596 2.429 . S
O1643 C1662 1.268 . S
O1644 Gd1596 2.545 . S
O1644 C1652 1.250 . S
O1645 Gd1596 2.412 1_655 S
O1645 C1655 1.252 . S
O1646 Gd1597 2.545 1_556 S
O1646 C1664 1.258 . S
O1647 Gd1596 2.362 . S
O1647 Gd1597 2.606 . S
O1647 C1663 1.284 . S
O1648 Gd1596 2.324 1_556 S
O1648 C1671 1.254 . S
O1649 Gd1597 2.429 1_556 S
O1649 C1671 1.268 . S
O1650 Gd1597 2.545 . S
O1650 C1663 1.250 . S
O1651 Gd1597 2.412 . S
O1651 C1664 1.252 1_554 S
C1652 O1641 1.284 . S
C1652 O1644 1.250 . S
C1653 H1622 0.929 . S
C1653 C1638 1.437 . S
C1653 C1654 1.317 . S
C1654 H1625 0.930 . S
C1654 C1630 1.431 . S
C1654 C1653 1.317 . S
C1655 Gd1596 2.828 1_655 S
C1655 O1640 1.258 1_655 S
C1655 O1645 1.252 . S
C1655 C1656 1.497 . S
C1656 C1655 1.497 . S
C1656 C1657 1.395 . S
C1656 C1658 1.380 . S
C1657 C1656 1.395 . S
C1657 C1660 1.398 . S
C1657 H1672 0.930 . S
C1658 C1656 1.380 . S
C1658 C1659 1.391 . S
C1658 H1673 0.930 . S
C1659 C1658 1.391 . S
C1659 C1661 1.387 . S
C1660 C1657 1.398 . S
C1660 C1661 1.380 . S
C1660 H1674 0.930 . S
C1661 C1659 1.387 . S
C1661 C1660 1.380 . S
C1661 H1675 0.930 . S
C1662 O1642 1.254 . S
C1662 O1643 1.268 . S
C1663 O1647 1.284 . S
C1663 O1650 1.250 . S
C1664 Gd1597 2.828 1_556 S
C1664 O1646 1.258 . S
C1664 O1651 1.252 1_556 S
C1664 C1665 1.497 . S
C1665 C1664 1.497 . S
C1665 C1666 1.395 . S
C1665 C1667 1.380 1_556 S
C1666 C1665 1.395 . S
C1666 C1669 1.398 . S
C1666 H1676 0.930 . S
C1667 C1665 1.380 1_554 S
C1667 C1668 1.391 1_554 S
C1667 H1677 0.930 . S
C1668 C1667 1.391 1_556 S
C1668 C1670 1.387 . S
C1669 C1666 1.398 . S
C1669 C1670 1.380 . S
C1669 H1678 0.930 . S
C1670 C1668 1.387 . S
C1670 C1669 1.380 . S
C1670 H1679 0.930 . S
C1671 O1648 1.254 . S
C1671 O1649 1.268 . S
H1672 C1657 0.930 . S
H1673 C1658 0.930 . S
H1674 C1660 0.930 . S
H1675 C1661 0.930 . S
H1676 C1666 0.930 . S
H1677 C1667 0.930 . S
H1678 C1669 0.930 . S
H1679 C1670 0.930 . S
C1680 C1681 1.391 . S
C1680 C1682 1.394 . S
C1680 H1696 0.931 . S
C1681 C1680 1.391 . S
C1681 C1685 1.376 . S
C1682 C1680 1.394 . S
C1682 C1683 1.369 . S
C1682 C1686 1.531 1_556 S
C1683 C1682 1.369 . S
C1683 C1684 1.410 . S
C1683 C1691 1.503 . S
C1684 C1683 1.410 . S
C1684 C1685 1.392 . S
C1684 C1687 1.511 1_455 S
C1685 C1681 1.376 . S
C1685 C1684 1.392 . S
C1685 H1697 0.929 1_455 S
C1686 C1682 1.531 1_554 S
C1686 H1698 0.960 . S
C1686 H1699 0.962 1_554 S
C1686 H1700 0.960 . S
C1687 C1684 1.511 1_655 S
C1687 H1701 0.961 . S
C1687 H1702 0.961 . S
C1687 H1703 0.961 . S
C1688 C1689 1.370 1_556 S
C1688 C1690 1.363 . S
C1688 H1704 0.931 . S
C1689 C1688 1.370 1_554 S
C1689 C1693 1.408 . S
C1690 C1688 1.363 . S
C1690 C1691 1.370 . S
C1690 C1694 1.524 . S
C1691 C1683 1.503 . S
C1691 C1690 1.370 . S
C1691 C1692 1.403 1_556 S
C1692 C1691 1.403 1_554 S
C1692 C1693 1.404 . S
C1692 C1695 1.539 . S
C1693 C1689 1.408 . S
C1693 C1692 1.404 . S
C1693 H1705 0.930 . S
C1694 C1690 1.524 . S
C1694 H1706 0.956 . S
C1694 H1707 0.961 . S
C1694 H1708 0.961 . S
C1695 C1692 1.539 . S
C1695 H1709 0.958 . S
C1695 H1710 0.961 . S
C1695 H1711 0.960 . S
H1696 C1680 0.931 . S
H1697 C1685 0.929 1_655 S
H1698 C1686 0.960 . S
H1699 C1686 0.962 1_556 S
H1700 C1686 0.960 . S
H1701 C1687 0.961 . S
H1702 C1687 0.961 . S
H1703 C1687 0.961 . S
H1704 C1688 0.931 . S
H1705 C1693 0.930 . S
H1706 C1694 0.956 . S
H1707 C1694 0.961 . S
H1708 C1694 0.961 . S
H1709 C1695 0.958 . S
H1710 C1695 0.961 . S
H1711 C1695 0.960 . S
C1712 C1713 1.391 . S
C1712 C1714 1.394 . S
C1712 H1728 0.931 . S
C1713 C1712 1.391 . S
C1713 C1717 1.376 . S
C1714 C1712 1.394 . S
C1714 C1715 1.369 . S
C1714 C1718 1.531 . S
C1715 C1714 1.369 . S
C1715 C1716 1.410 . S
C1715 C1723 1.503 . S
C1716 C1715 1.410 . S
C1716 C1717 1.392 . S
C1716 C1719 1.511 . S
C1717 C1713 1.376 . S
C1717 C1716 1.392 . S
C1717 H1729 0.929 . S
C1718 C1714 1.531 . S
C1718 H1730 0.960 . S
C1718 H1731 0.962 . S
C1718 H1732 0.960 . S
C1719 C1716 1.511 . S
C1719 H1733 0.961 . S
C1719 H1734 0.961 . S
C1719 H1735 0.961 . S
C1720 C1721 1.370 . S
C1720 C1722 1.363 . S
C1720 H1736 0.931 . S
C1721 C1720 1.370 . S
C1721 C1725 1.408 . S
C1722 C1720 1.363 . S
C1722 C1723 1.370 . S
C1722 C1726 1.524 . S
C1723 C1715 1.503 . S
C1723 C1722 1.370 . S
C1723 C1724 1.403 . S
C1724 C1723 1.403 . S
C1724 C1725 1.404 . S
C1724 C1727 1.539 . S
C1725 C1721 1.408 . S
C1725 C1724 1.404 . S
C1725 H1737 0.930 . S
C1726 C1722 1.524 . S
C1726 H1738 0.956 . S
C1726 H1739 0.961 . S
C1726 H1740 0.961 . S
C1727 C1724 1.539 . S
C1727 H1741 0.958 . S
C1727 H1742 0.961 . S
C1727 H1743 0.960 . S
H1728 C1712 0.931 . S
H1729 C1717 0.929 . S
H1730 C1718 0.960 . S
H1731 C1718 0.962 . S
H1732 C1718 0.960 . S
H1733 C1719 0.961 . S
H1734 C1719 0.961 . S
H1735 C1719 0.961 . S
H1736 C1720 0.931 . S
H1737 C1725 0.930 . S
H1738 C1726 0.956 . S
H1739 C1726 0.961 . S
H1740 C1726 0.961 . S
H1741 C1727 0.958 . S
H1742 C1727 0.961 . S
H1743 C1727 0.960 . S
C1744 C1745 1.391 . S
C1744 C1746 1.394 . S
C1744 H1760 0.931 . S
C1745 C1744 1.391 . S
C1745 C1749 1.376 . S
C1746 C1744 1.394 . S
C1746 C1747 1.369 . S
C1746 C1750 1.531 . S
C1747 C1746 1.369 . S
C1747 C1748 1.410 . S
C1747 C1755 1.503 . S
C1748 C1747 1.410 . S
C1748 C1749 1.392 . S
C1748 C1751 1.511 . S
C1749 C1745 1.376 . S
C1749 C1748 1.392 . S
C1749 H1761 0.929 . S
C1750 C1746 1.531 . S
C1750 H1762 0.960 . S
C1750 H1763 0.962 . S
C1750 H1764 0.960 . S
C1751 C1748 1.511 . S
C1751 H1765 0.961 . S
C1751 H1766 0.961 . S
C1751 H1767 0.961 . S
C1752 C1753 1.370 . S
C1752 C1754 1.363 . S
C1752 H1768 0.931 . S
C1753 C1752 1.370 . S
C1753 C1757 1.408 . S
C1754 C1752 1.363 . S
C1754 C1755 1.370 . S
C1754 C1758 1.524 . S
C1755 C1747 1.503 . S
C1755 C1754 1.370 . S
C1755 C1756 1.403 . S
C1756 C1755 1.403 . S
C1756 C1757 1.404 . S
C1756 C1759 1.539 . S
C1757 C1753 1.408 . S
C1757 C1756 1.404 . S
C1757 H1769 0.930 . S
C1758 C1754 1.524 . S
C1758 H1770 0.956 . S
C1758 H1771 0.961 . S
C1758 H1772 0.961 . S
C1759 C1756 1.539 . S
C1759 H1773 0.958 . S
C1759 H1774 0.961 . S
C1759 H1775 0.960 . S
H1760 C1744 0.931 . S
H1761 C1749 0.929 . S
H1762 C1750 0.960 . S
H1763 C1750 0.962 . S
H1764 C1750 0.960 . S
H1765 C1751 0.961 . S
H1766 C1751 0.961 . S
H1767 C1751 0.961 . S
H1768 C1752 0.931 . S
H1769 C1757 0.930 . S
H1770 C1758 0.956 . S
H1771 C1758 0.961 . S
H1772 C1758 0.961 . S
H1773 C1759 0.958 . S
H1774 C1759 0.961 . S
H1775 C1759 0.960 . S
C1776 C1777 1.391 . S
C1776 C1778 1.394 . S
C1776 H1792 0.931 . S
C1777 C1776 1.391 . S
C1777 C1781 1.376 . S
C1778 C1776 1.394 . S
C1778 C1779 1.369 . S
C1778 C1782 1.531 . S
C1779 C1778 1.369 . S
C1779 C1780 1.410 . S
C1779 C1787 1.503 . S
C1780 C1779 1.410 . S
C1780 C1781 1.392 . S
C1780 C1783 1.511 . S
C1781 C1777 1.376 . S
C1781 C1780 1.392 . S
C1781 H1793 0.929 . S
C1782 C1778 1.531 . S
C1782 H1794 0.960 . S
C1782 H1795 0.962 . S
C1782 H1796 0.960 . S
C1783 C1780 1.511 . S
C1783 H1797 0.961 . S
C1783 H1798 0.961 . S
C1783 H1799 0.961 . S
C1784 C1785 1.370 . S
C1784 C1786 1.363 . S
C1784 H1800 0.931 . S
C1785 C1784 1.370 . S
C1785 C1789 1.408 . S
C1786 C1784 1.363 . S
C1786 C1787 1.370 . S
C1786 C1790 1.524 . S
C1787 C1779 1.503 . S
C1787 C1786 1.370 . S
C1787 C1788 1.403 . S
C1788 C1787 1.403 . S
C1788 C1789 1.404 . S
C1788 C1791 1.539 . S
C1789 C1785 1.408 . S
C1789 C1788 1.404 . S
C1789 H1801 0.930 . S
C1790 C1786 1.524 . S
C1790 H1802 0.956 . S
C1790 H1803 0.961 . S
C1790 H1804 0.961 . S
C1791 C1788 1.539 . S
C1791 H1805 0.958 . S
C1791 H1806 0.961 . S
C1791 H1807 0.960 . S
H1792 C1776 0.931 . S
H1793 C1781 0.929 . S
H1794 C1782 0.960 . S
H1795 C1782 0.962 . S
H1796 C1782 0.960 . S
H1797 C1783 0.961 . S
H1798 C1783 0.961 . S
H1799 C1783 0.961 . S
H1800 C1784 0.931 . S
H1801 C1789 0.930 . S
H1802 C1790 0.956 . S
H1803 C1790 0.961 . S
H1804 C1790 0.961 . S
H1805 C1791 0.958 . S
H1806 C1791 0.961 . S
H1807 C1791 0.960 . S
C1808 C1809 1.391 1_655 S
C1808 C1810 1.393 1_655 S
C1808 H1824 0.931 . S
C1809 C1808 1.391 1_455 S
C1809 C1813 1.376 . S
C1810 C1808 1.393 1_455 S
C1810 C1811 1.376 . S
C1810 C1814 1.525 1_455 S
C1811 C1810 1.376 . S
C1811 C1812 1.410 . S
C1811 C1819 1.503 . S
C1812 C1811 1.410 . S
C1812 C1813 1.392 . S
C1812 C1815 1.511 . S
C1813 C1809 1.376 . S
C1813 C1812 1.392 . S
C1813 H1825 0.929 . S
C1814 C1810 1.525 1_655 S
C1814 H1826 0.960 . S
C1814 H1827 0.962 . S
C1814 H1828 0.960 . S
C1815 C1812 1.511 . S
C1815 H1829 0.961 . S
C1815 H1830 0.961 . S
C1815 H1831 0.961 . S
C1816 C1817 1.370 . S
C1816 C1818 1.363 . S
C1816 H1832 0.931 . S
C1817 C1816 1.370 . S
C1817 C1821 1.408 . S
C1818 C1816 1.363 . S
C1818 C1819 1.370 . S
C1818 C1822 1.524 . S
C1819 C1811 1.503 . S
C1819 C1818 1.370 . S
C1819 C1820 1.403 . S
C1820 C1819 1.403 . S
C1820 C1821 1.404 . S
C1820 C1823 1.539 . S
C1821 C1817 1.408 . S
C1821 C1820 1.404 . S
C1821 H1833 0.930 . S
C1822 C1818 1.524 . S
C1822 H1834 0.956 . S
C1822 H1835 0.961 . S
C1822 H1836 0.961 . S
C1823 C1820 1.539 . S
C1823 H1837 0.958 . S
C1823 H1838 0.961 . S
C1823 H1839 0.960 . S
H1824 C1808 0.931 . S
H1825 C1813 0.929 . S
H1826 C1814 0.960 . S
H1827 C1814 0.962 . S
H1828 C1814 0.960 . S
H1829 C1815 0.961 . S
H1830 C1815 0.961 . S
H1831 C1815 0.961 . S
H1832 C1816 0.931 . S
H1833 C1821 0.930 . S
H1834 C1822 0.956 . S
H1835 C1822 0.961 . S
H1836 C1822 0.961 . S
H1837 C1823 0.958 . S
H1838 C1823 0.961 . S
H1839 C1823 0.960 . S
C1840 C1841 1.391 . S
C1840 C1842 1.394 . S
C1840 H1856 0.931 . S
C1841 C1840 1.391 . S
C1841 C1845 1.376 . S
C1842 C1840 1.394 . S
C1842 C1843 1.369 . S
C1842 C1846 1.531 . S
C1843 C1842 1.369 . S
C1843 C1844 1.410 . S
C1843 C1851 1.503 . S
C1844 C1843 1.410 . S
C1844 C1845 1.392 . S
C1844 C1847 1.511 . S
C1845 C1841 1.376 . S
C1845 C1844 1.392 . S
C1845 H1857 0.929 . S
C1846 C1842 1.531 . S
C1846 H1858 0.960 . S
C1846 H1859 0.962 . S
C1846 H1860 0.960 . S
C1847 C1844 1.511 . S
C1847 H1861 0.961 . S
C1847 H1862 0.961 . S
C1847 H1863 0.961 . S
C1848 C1849 1.370 . S
C1848 C1850 1.363 . S
C1848 H1864 0.931 . S
C1849 C1848 1.370 . S
C1849 C1853 1.408 . S
C1850 C1848 1.363 . S
C1850 C1851 1.370 . S
C1850 C1854 1.524 . S
C1851 C1843 1.503 . S
C1851 C1850 1.370 . S
C1851 C1852 1.403 . S
C1852 C1851 1.403 . S
C1852 C1853 1.404 . S
C1852 C1855 1.539 . S
C1853 C1849 1.408 . S
C1853 C1852 1.404 . S
C1853 H1865 0.930 . S
C1854 C1850 1.524 . S
C1854 H1866 0.956 . S
C1854 H1867 0.961 . S
C1854 H1868 0.961 . S
C1855 C1852 1.539 . S
C1855 H1869 0.958 . S
C1855 H1870 0.961 . S
C1855 H1871 0.960 . S
H1856 C1840 0.931 . S
H1857 C1845 0.929 . S
H1858 C1846 0.960 . S
H1859 C1846 0.962 . S
H1860 C1846 0.960 . S
H1861 C1847 0.961 . S
H1862 C1847 0.961 . S
H1863 C1847 0.961 . S
H1864 C1848 0.931 . S
H1865 C1853 0.930 . S
H1866 C1854 0.956 . S
H1867 C1854 0.961 . S
H1868 C1854 0.961 . S
H1869 C1855 0.958 . S
H1870 C1855 0.961 . S
H1871 C1855 0.960 . S
C1872 C1873 1.391 . S
C1872 C1874 1.394 . S
C1872 H1888 0.931 . S
C1873 C1872 1.391 . S
C1873 C1877 1.376 . S
C1874 C1872 1.394 . S
C1874 C1875 1.369 . S
C1874 C1878 1.531 . S
C1875 C1874 1.369 . S
C1875 C1876 1.410 . S
C1875 C1883 1.503 . S
C1876 C1875 1.410 . S
C1876 C1877 1.392 . S
C1876 C1879 1.511 . S
C1877 C1873 1.376 . S
C1877 C1876 1.392 . S
C1877 H1889 0.929 . S
C1878 C1874 1.531 . S
C1878 H1890 0.960 . S
C1878 H1891 0.962 . S
C1878 H1892 0.960 . S
C1879 C1876 1.511 . S
C1879 H1893 0.961 . S
C1879 H1894 0.961 . S
C1879 H1895 0.961 . S
C1880 C1881 1.370 . S
C1880 C1882 1.363 . S
C1880 H1896 0.931 . S
C1881 C1880 1.370 . S
C1881 C1885 1.408 . S
C1882 C1880 1.363 . S
C1882 C1883 1.370 . S
C1882 C1886 1.524 . S
C1883 C1875 1.503 . S
C1883 C1882 1.370 . S
C1883 C1884 1.403 . S
C1884 C1883 1.403 . S
C1884 C1885 1.404 . S
C1884 C1887 1.539 . S
C1885 C1881 1.408 . S
C1885 C1884 1.404 . S
C1885 H1897 0.930 . S
C1886 C1882 1.524 . S
C1886 H1898 0.956 . S
C1886 H1899 0.961 . S
C1886 H1900 0.961 . S
C1887 C1884 1.539 . S
C1887 H1901 0.958 . S
C1887 H1902 0.961 . S
C1887 H1903 0.960 . S
H1888 C1872 0.931 . S
H1889 C1877 0.929 . S
H1890 C1878 0.960 . S
H1891 C1878 0.962 . S
H1892 C1878 0.960 . S
H1893 C1879 0.961 . S
H1894 C1879 0.961 . S
H1895 C1879 0.961 . S
H1896 C1880 0.931 . S
H1897 C1885 0.930 . S
H1898 C1886 0.956 . S
H1899 C1886 0.961 . S
H1900 C1886 0.961 . S
H1901 C1887 0.958 . S
H1902 C1887 0.961 . S
H1903 C1887 0.960 . S
C1904 C1905 1.391 . S
C1904 C1906 1.394 . S
C1904 H1920 0.931 . S
C1905 C1904 1.391 . S
C1905 C1909 1.376 . S
C1906 C1904 1.394 . S
C1906 C1907 1.369 . S
C1906 C1910 1.531 . S
C1907 C1906 1.369 . S
C1907 C1908 1.410 . S
C1907 C1915 1.503 . S
C1908 C1907 1.410 . S
C1908 C1909 1.392 . S
C1908 C1911 1.511 . S
C1909 C1905 1.376 . S
C1909 C1908 1.392 . S
C1909 H1921 0.929 . S
C1910 C1906 1.531 . S
C1910 H1922 0.960 . S
C1910 H1923 0.962 . S
C1910 H1924 0.960 . S
C1911 C1908 1.511 . S
C1911 H1925 0.961 . S
C1911 H1926 0.961 . S
C1911 H1927 0.961 . S
C1912 C1913 1.370 . S
C1912 C1914 1.363 . S
C1912 H1928 0.931 . S
C1913 C1912 1.370 . S
C1913 C1917 1.408 . S
C1914 C1912 1.363 . S
C1914 C1915 1.370 . S
C1914 C1918 1.524 . S
C1915 C1907 1.503 . S
C1915 C1914 1.370 . S
C1915 C1916 1.403 . S
C1916 C1915 1.403 . S
C1916 C1917 1.404 . S
C1916 C1919 1.539 . S
C1917 C1913 1.408 . S
C1917 C1916 1.404 . S
C1917 H1929 0.930 . S
C1918 C1914 1.524 . S
C1918 H1930 0.956 . S
C1918 H1931 0.961 . S
C1918 H1932 0.961 . S
C1919 C1916 1.539 . S
C1919 H1933 0.958 . S
C1919 H1934 0.961 . S
C1919 H1935 0.960 . S
H1920 C1904 0.931 . S
H1921 C1909 0.929 . S
H1922 C1910 0.960 . S
H1923 C1910 0.962 . S
H1924 C1910 0.960 . S
H1925 C1911 0.961 . S
H1926 C1911 0.961 . S
H1927 C1911 0.961 . S
H1928 C1912 0.931 . S
H1929 C1917 0.930 . S
H1930 C1918 0.956 . S
H1931 C1918 0.961 . S
H1932 C1918 0.961 . S
H1933 C1919 0.958 . S
H1934 C1919 0.961 . S
H1935 C1919 0.960 . S
C1936 C1937 1.391 . S
C1936 C1938 1.394 . S
C1936 H1952 0.931 . S
C1937 C1936 1.391 . S
C1937 C1941 1.376 . S
C1938 C1936 1.394 . S
C1938 C1939 1.352 1_655 S
C1938 C1942 1.531 . S
C1939 C1938 1.352 1_455 S
C1939 C1940 1.414 . S
C1939 C1947 1.515 . S
C1940 C1939 1.414 . S
C1940 C1941 1.392 1_455 S
C1940 C1943 1.511 . S
C1941 C1937 1.376 . S
C1941 C1940 1.392 1_655 S
C1941 H1953 0.929 . S
C1942 C1938 1.531 . S
C1942 H1954 0.960 1_655 S
C1942 H1955 0.962 . S
C1942 H1956 0.960 . S
C1943 C1940 1.511 . S
C1943 H1957 0.961 . S
C1943 H1958 0.961 . S
C1943 H1959 0.961 . S
C1944 C1945 1.370 . S
C1944 C1946 1.363 1_455 S
C1944 H1960 0.931 1_455 S
C1945 C1944 1.370 . S
C1945 C1949 1.408 . S
C1946 C1944 1.363 1_655 S
C1946 C1947 1.370 1_655 S
C1946 C1950 1.524 . S
C1947 C1939 1.515 . S
C1947 C1946 1.370 1_455 S
C1947 C1948 1.403 . S
C1948 C1947 1.403 . S
C1948 C1949 1.404 . S
C1948 C1951 1.539 . S
C1949 C1945 1.408 . S
C1949 C1948 1.404 . S
C1949 H1961 0.930 . S
C1950 C1946 1.524 . S
C1950 H1962 0.956 . S
C1950 H1963 0.961 . S
C1950 H1964 0.961 . S
C1951 C1948 1.539 . S
C1951 H1965 0.958 . S
C1951 H1966 0.961 . S
C1951 H1967 0.960 . S
H1952 C1936 0.931 . S
H1953 C1941 0.929 . S
H1954 C1942 0.960 1_455 S
H1955 C1942 0.962 . S
H1956 C1942 0.960 . S
H1957 C1943 0.961 . S
H1958 C1943 0.961 . S
H1959 C1943 0.961 . S
H1960 C1944 0.931 1_655 S
H1961 C1949 0.930 . S
H1962 C1950 0.956 . S
H1963 C1950 0.961 . S
H1964 C1950 0.961 . S
H1965 C1951 0.958 . S
H1966 C1951 0.961 . S
H1967 C1951 0.960 . S
C1968 C1969 1.391 . S
C1968 C1970 1.394 . S
C1968 H1984 0.931 . S
C1969 C1968 1.391 . S
C1969 C1973 1.376 . S
C1970 C1968 1.394 . S
C1970 C1971 1.369 . S
C1970 C1974 1.531 . S
C1971 C1970 1.369 . S
C1971 C1972 1.410 . S
C1971 C1979 1.503 . S
C1972 C1971 1.410 . S
C1972 C1973 1.392 . S
C1972 C1975 1.511 . S
C1973 C1969 1.376 . S
C1973 C1972 1.392 . S
C1973 H1985 0.929 . S
C1974 C1970 1.531 . S
C1974 H1986 0.960 . S
C1974 H1987 0.962 . S
C1974 H1988 0.960 . S
C1975 C1972 1.511 . S
C1975 H1989 0.961 . S
C1975 H1990 0.961 . S
C1975 H1991 0.961 . S
C1976 C1977 1.370 . S
C1976 C1978 1.363 . S
C1976 H1992 0.931 . S
C1977 C1976 1.370 . S
C1977 C1981 1.408 . S
C1978 C1976 1.363 . S
C1978 C1979 1.370 . S
C1978 C1982 1.524 . S
C1979 C1971 1.503 . S
C1979 C1978 1.370 . S
C1979 C1980 1.403 . S
C1980 C1979 1.403 . S
C1980 C1981 1.404 . S
C1980 C1983 1.539 . S
C1981 C1977 1.408 . S
C1981 C1980 1.404 . S
C1981 H1993 0.930 . S
C1982 C1978 1.524 . S
C1982 H1994 0.956 . S
C1982 H1995 0.961 . S
C1982 H1996 0.961 . S
C1983 C1980 1.539 . S
C1983 H1997 0.958 . S
C1983 H1998 0.961 . S
C1983 H1999 0.960 . S
H1984 C1968 0.931 . S
H1985 C1973 0.929 . S
H1986 C1974 0.960 . S
H1987 C1974 0.962 . S
H1988 C1974 0.960 . S
H1989 C1975 0.961 . S
H1990 C1975 0.961 . S
H1991 C1975 0.961 . S
H1992 C1976 0.931 . S
H1993 C1981 0.930 . S
H1994 C1982 0.956 . S
H1995 C1982 0.961 . S
H1996 C1982 0.961 . S
H1997 C1983 0.958 . S
H1998 C1983 0.961 . S
H1999 C1983 0.960 . S
C2000 C2001 1.391 . S
C2000 C2002 1.394 . S
C2000 H2016 0.931 . S
C2001 C2000 1.391 . S
C2001 C2005 1.376 . S
C2002 C2000 1.394 . S
C2002 C2003 1.369 . S
C2002 C2006 1.531 . S
C2003 C2002 1.369 . S
C2003 C2004 1.410 . S
C2003 C2011 1.503 . S
C2004 C2003 1.410 . S
C2004 C2005 1.392 . S
C2004 C2007 1.511 . S
C2005 C2001 1.376 . S
C2005 C2004 1.392 . S
C2005 H2017 0.929 . S
C2006 C2002 1.531 . S
C2006 H2018 0.960 . S
C2006 H2019 0.962 . S
C2006 H2020 0.960 . S
C2007 C2004 1.511 . S
C2007 H2021 0.961 . S
C2007 H2022 0.961 . S
C2007 H2023 0.961 . S
C2008 C2009 1.370 . S
C2008 C2010 1.363 . S
C2008 H2024 0.931 1_545 S
C2009 C2008 1.370 . S
C2009 C2013 1.408 . S
C2010 C2008 1.363 . S
C2010 C2011 1.370 . S
C2010 C2014 1.524 1_545 S
C2011 C2003 1.503 . S
C2011 C2010 1.370 . S
C2011 C2012 1.403 . S
C2012 C2011 1.403 . S
C2012 C2013 1.404 . S
C2012 C2015 1.539 . S
C2013 C2009 1.408 . S
C2013 C2012 1.404 . S
C2013 H2025 0.930 . S
C2014 C2010 1.524 1_565 S
C2014 H2026 0.956 . S
C2014 H2027 0.963 . S
C2014 H2028 0.961 . S
C2015 C2012 1.539 . S
C2015 H2029 0.958 . S
C2015 H2030 0.961 . S
C2015 H2031 0.960 . S
H2016 C2000 0.931 . S
H2017 C2005 0.929 . S
H2018 C2006 0.960 . S
H2019 C2006 0.962 . S
H2020 C2006 0.960 . S
H2021 C2007 0.961 . S
H2022 C2007 0.961 . S
H2023 C2007 0.961 . S
H2024 C2008 0.931 1_565 S
H2025 C2013 0.930 . S
H2026 C2014 0.956 . S
H2027 C2014 0.963 . S
H2028 C2014 0.961 . S
H2029 C2015 0.958 . S
H2030 C2015 0.961 . S
H2031 C2015 0.960 . S
C2032 C2033 1.391 . S
C2032 C2034 1.394 . S
C2032 H2048 0.931 . S
C2033 C2032 1.391 . S
C2033 C2037 1.376 . S
C2034 C2032 1.394 . S
C2034 C2035 1.369 . S
C2034 C2038 1.531 . S
C2035 C2034 1.369 . S
C2035 C2036 1.410 . S
C2035 C2043 1.503 . S
C2036 C2035 1.410 . S
C2036 C2037 1.392 . S
C2036 C2039 1.511 . S
C2037 C2033 1.376 . S
C2037 C2036 1.392 . S
C2037 H2049 0.929 . S
C2038 C2034 1.531 . S
C2038 H2050 0.960 . S
C2038 H2051 0.962 . S
C2038 H2052 0.960 . S
C2039 C2036 1.511 . S
C2039 H2053 0.961 . S
C2039 H2054 0.961 . S
C2039 H2055 0.961 . S
C2040 C2041 1.370 . S
C2040 C2042 1.363 . S
C2040 H2056 0.931 . S
C2041 C2040 1.370 . S
C2041 C2045 1.408 . S
C2042 C2040 1.363 . S
C2042 C2043 1.370 . S
C2042 C2046 1.524 . S
C2043 C2035 1.503 . S
C2043 C2042 1.370 . S
C2043 C2044 1.403 . S
C2044 C2043 1.403 . S
C2044 C2045 1.404 . S
C2044 C2047 1.539 . S
C2045 C2041 1.408 . S
C2045 C2044 1.404 . S
C2045 H2057 0.930 . S
C2046 C2042 1.524 . S
C2046 H2058 0.956 . S
C2046 H2059 0.961 . S
C2046 H2060 0.961 . S
C2047 C2044 1.539 . S
C2047 H2061 0.958 . S
C2047 H2062 0.961 . S
C2047 H2063 0.960 . S
H2048 C2032 0.931 . S
H2049 C2037 0.929 . S
H2050 C2038 0.960 . S
H2051 C2038 0.962 . S
H2052 C2038 0.960 . S
H2053 C2039 0.961 . S
H2054 C2039 0.961 . S
H2055 C2039 0.961 . S
H2056 C2040 0.931 . S
H2057 C2045 0.930 . S
H2058 C2046 0.956 . S
H2059 C2046 0.961 . S
H2060 C2046 0.961 . S
H2061 C2047 0.958 . S
H2062 C2047 0.961 . S
H2063 C2047 0.960 . S
C2064 C2065 1.391 . S
C2064 C2066 1.394 1_655 S
C2064 H2080 0.931 . S
C2065 C2064 1.391 . S
C2065 C2069 1.376 . S
C2066 C2064 1.394 1_455 S
C2066 C2067 1.369 . S
C2066 C2070 1.531 . S
C2067 C2066 1.369 . S
C2067 C2068 1.410 1_455 S
C2067 C2075 1.503 . S
C2068 C2067 1.410 1_655 S
C2068 C2069 1.392 . S
C2068 C2071 1.511 . S
C2069 C2065 1.376 . S
C2069 C2068 1.392 . S
C2069 H2081 0.929 . S
C2070 C2066 1.531 . S
C2070 H2082 0.960 . S
C2070 H2083 0.962 . S
C2070 H2084 0.960 . S
C2071 C2068 1.511 . S
C2071 H2085 0.961 . S
C2071 H2086 0.961 . S
C2071 H2087 0.961 1_655 S
C2072 C2073 1.370 . S
C2072 C2074 1.363 . S
C2072 H2088 0.931 . S
C2073 C2072 1.370 . S
C2073 C2077 1.408 . S
C2074 C2072 1.363 . S
C2074 C2075 1.370 . S
C2074 C2078 1.524 1_455 S
C2075 C2067 1.503 . S
C2075 C2074 1.370 . S
C2075 C2076 1.403 . S
C2076 C2075 1.403 . S
C2076 C2077 1.404 . S
C2076 C2079 1.539 . S
C2077 C2073 1.408 . S
C2077 C2076 1.404 . S
C2077 H2089 0.930 . S
C2078 C2074 1.524 1_655 S
C2078 H2090 0.956 . S
C2078 H2091 0.961 . S
C2078 H2092 0.961 . S
C2079 C2076 1.539 . S
C2079 H2093 0.958 . S
C2079 H2094 0.961 . S
C2079 H2095 0.960 . S
H2080 C2064 0.931 . S
H2081 C2069 0.929 . S
H2082 C2070 0.960 . S
H2083 C2070 0.962 . S
H2084 C2070 0.960 . S
H2085 C2071 0.961 . S
H2086 C2071 0.961 . S
H2087 C2071 0.961 1_455 S
H2088 C2072 0.931 . S
H2089 C2077 0.930 . S
H2090 C2078 0.956 . S
H2091 C2078 0.961 . S
H2092 C2078 0.961 . S
H2093 C2079 0.958 . S
H2094 C2079 0.961 . S
H2095 C2079 0.960 . S
C2096 C2097 1.391 . S
C2096 C2098 1.394 . S
C2096 H2112 0.931 . S
C2097 C2096 1.391 . S
C2097 C2101 1.376 . S
C2098 C2096 1.394 . S
C2098 C2099 1.369 . S
C2098 C2102 1.531 . S
C2099 C2098 1.369 . S
C2099 C2100 1.410 . S
C2099 C2107 1.503 . S
C2100 C2099 1.410 . S
C2100 C2101 1.392 . S
C2100 C2103 1.511 . S
C2101 C2097 1.376 . S
C2101 C2100 1.392 . S
C2101 H2113 0.929 . S
C2102 C2098 1.531 . S
C2102 H2114 0.960 . S
C2102 H2115 0.962 . S
C2102 H2116 0.960 . S
C2103 C2100 1.511 . S
C2103 H2117 0.961 . S
C2103 H2118 0.961 . S
C2103 H2119 0.961 . S
C2104 C2105 1.370 . S
C2104 C2106 1.363 . S
C2104 H2120 0.931 . S
C2105 C2104 1.370 . S
C2105 C2109 1.408 . S
C2106 C2104 1.363 . S
C2106 C2107 1.370 . S
C2106 C2110 1.524 . S
C2107 C2099 1.503 . S
C2107 C2106 1.370 . S
C2107 C2108 1.403 . S
C2108 C2107 1.403 . S
C2108 C2109 1.404 . S
C2108 C2111 1.539 . S
C2109 C2105 1.408 . S
C2109 C2108 1.404 . S
C2109 H2121 0.930 . S
C2110 C2106 1.524 . S
C2110 H2122 0.956 . S
C2110 H2123 0.961 . S
C2110 H2124 0.961 . S
C2111 C2108 1.539 . S
C2111 H2125 0.958 . S
C2111 H2126 0.961 . S
C2111 H2127 0.960 . S
H2112 C2096 0.931 . S
H2113 C2101 0.929 . S
H2114 C2102 0.960 . S
H2115 C2102 0.962 . S
H2116 C2102 0.960 . S
H2117 C2103 0.961 . S
H2118 C2103 0.961 . S
H2119 C2103 0.961 . S
H2120 C2104 0.931 . S
H2121 C2109 0.930 . S
H2122 C2110 0.956 . S
H2123 C2110 0.961 . S
H2124 C2110 0.961 . S
H2125 C2111 0.958 . S
H2126 C2111 0.961 . S
H2127 C2111 0.960 . S
C2128 C2129 1.391 . S
C2128 C2130 1.394 . S
C2128 H2144 0.931 . S
C2129 C2128 1.391 . S
C2129 C2133 1.376 . S
C2130 C2128 1.394 . S
C2130 C2131 1.369 . S
C2130 C2134 1.531 . S
C2131 C2130 1.369 . S
C2131 C2132 1.410 . S
C2131 C2139 1.503 . S
C2132 C2131 1.410 . S
C2132 C2133 1.392 . S
C2132 C2135 1.511 . S
C2133 C2129 1.376 . S
C2133 C2132 1.392 . S
C2133 H2145 0.929 . S
C2134 C2130 1.531 . S
C2134 H2146 0.960 . S
C2134 H2147 0.962 . S
C2134 H2148 0.960 . S
C2135 C2132 1.511 . S
C2135 H2149 0.937 1_545 S
C2135 H2150 0.961 . S
C2135 H2151 0.961 . S
C2136 C2137 1.370 . S
C2136 C2138 1.363 . S
C2136 H2152 0.931 . S
C2137 C2136 1.370 . S
C2137 C2141 1.408 . S
C2138 C2136 1.363 . S
C2138 C2139 1.370 . S
C2138 C2142 1.524 . S
C2139 C2131 1.503 . S
C2139 C2138 1.370 . S
C2139 C2140 1.403 . S
C2140 C2139 1.403 . S
C2140 C2141 1.404 . S
C2140 C2143 1.539 . S
C2141 C2137 1.408 . S
C2141 C2140 1.404 . S
C2141 H2153 0.930 . S
C2142 C2138 1.524 . S
C2142 H2154 0.956 . S
C2142 H2155 0.961 . S
C2142 H2156 0.961 . S
C2143 C2140 1.539 . S
C2143 H2157 0.958 . S
C2143 H2158 0.961 . S
C2143 H2159 0.960 . S
H2144 C2128 0.931 . S
H2145 C2133 0.929 . S
H2146 C2134 0.960 . S
H2147 C2134 0.962 . S
H2148 C2134 0.960 . S
H2149 C2135 0.937 1_565 S
H2150 C2135 0.961 . S
H2151 C2135 0.961 . S
H2152 C2136 0.931 . S
H2153 C2141 0.930 . S
H2154 C2142 0.956 . S
H2155 C2142 0.961 . S
H2156 C2142 0.961 . S
H2157 C2143 0.958 . S
H2158 C2143 0.961 . S
H2159 C2143 0.960 . S
C2160 C2161 1.391 . S
C2160 C2162 1.394 . S
C2160 H2176 0.931 . S
C2161 C2160 1.391 . S
C2161 C2165 1.376 . S
C2162 C2160 1.394 . S
C2162 C2163 1.369 . S
C2162 C2166 1.531 . S
C2163 C2162 1.369 . S
C2163 C2164 1.410 . S
C2163 C2171 1.503 . S
C2164 C2163 1.410 . S
C2164 C2165 1.392 . S
C2164 C2167 1.511 . S
C2165 C2161 1.376 . S
C2165 C2164 1.392 . S
C2165 H2177 0.929 . S
C2166 C2162 1.531 . S
C2166 H2178 0.960 . S
C2166 H2179 0.962 . S
C2166 H2180 0.960 . S
C2167 C2164 1.511 . S
C2167 H2181 0.961 . S
C2167 H2182 0.961 . S
C2167 H2183 0.961 . S
C2168 C2169 1.370 . S
C2168 C2170 1.363 . S
C2168 H2184 0.931 . S
C2169 C2168 1.370 . S
C2169 C2173 1.408 . S
C2170 C2168 1.363 . S
C2170 C2171 1.370 . S
C2170 C2174 1.524 . S
C2171 C2163 1.503 . S
C2171 C2170 1.370 . S
C2171 C2172 1.403 . S
C2172 C2171 1.403 . S
C2172 C2173 1.404 . S
C2172 C2175 1.539 . S
C2173 C2169 1.408 . S
C2173 C2172 1.404 . S
C2173 H2185 0.930 . S
C2174 C2170 1.524 . S
C2174 H2186 0.956 . S
C2174 H2187 0.961 . S
C2174 H2188 0.961 . S
C2175 C2172 1.539 . S
C2175 H2189 0.958 . S
C2175 H2190 0.961 . S
C2175 H2191 0.960 . S
H2176 C2160 0.931 . S
H2177 C2165 0.929 . S
H2178 C2166 0.960 . S
H2179 C2166 0.962 . S
H2180 C2166 0.960 . S
H2181 C2167 0.961 . S
H2182 C2167 0.961 . S
H2183 C2167 0.961 . S
H2184 C2168 0.931 . S
H2185 C2173 0.930 . S
H2186 C2174 0.956 . S
H2187 C2174 0.961 . S
H2188 C2174 0.961 . S
H2189 C2175 0.958 . S
H2190 C2175 0.961 . S
H2191 C2175 0.960 . S
C2192 C2193 1.391 1_556 S
C2192 C2194 1.394 1_556 S
C2192 H2208 0.931 . S
C2193 C2192 1.391 1_554 S
C2193 C2197 1.376 . S
C2194 C2192 1.394 1_554 S
C2194 C2195 1.368 . S
C2194 C2198 1.535 1_554 S
C2195 C2194 1.368 . S
C2195 C2196 1.410 . S
C2195 C2203 1.503 . S
C2196 C2195 1.410 . S
C2196 C2197 1.392 . S
C2196 C2199 1.511 . S
C2197 C2193 1.376 . S
C2197 C2196 1.392 . S
C2197 H2209 0.929 . S
C2198 C2194 1.535 1_556 S
C2198 H2210 0.959 . S
C2198 H2211 0.958 1_565 S
C2198 H2212 0.961 . S
C2199 C2196 1.511 . S
C2199 H2213 0.961 . S
C2199 H2214 0.961 . S
C2199 H2215 0.961 . S
C2200 C2201 1.370 . S
C2200 C2202 1.363 . S
C2200 H2216 0.931 . S
C2201 C2200 1.370 . S
C2201 C2205 1.408 1_545 S
C2202 C2200 1.363 . S
C2202 C2203 1.370 1_545 S
C2202 C2206 1.524 . S
C2203 C2195 1.503 . S
C2203 C2202 1.370 1_565 S
C2203 C2204 1.403 . S
C2204 C2203 1.403 . S
C2204 C2205 1.404 . S
C2204 C2207 1.539 1_554 S
C2205 C2201 1.408 1_565 S
C2205 C2204 1.404 . S
C2205 H2217 0.930 . S
C2206 C2202 1.524 . S
C2206 H2218 0.956 . S
C2206 H2219 0.961 . S
C2206 H2220 0.961 . S
C2207 C2204 1.539 1_556 S
C2207 H2221 0.958 . S
C2207 H2222 0.961 . S
C2207 H2223 0.960 . S
H2208 C2192 0.931 . S
H2209 C2197 0.929 . S
H2210 C2198 0.959 . S
H2211 C2198 0.958 1_545 S
H2212 C2198 0.961 . S
H2213 C2199 0.961 . S
H2214 C2199 0.961 . S
H2215 C2199 0.961 . S
H2216 C2200 0.931 . S
H2217 C2205 0.930 . S
H2218 C2206 0.956 . S
H2219 C2206 0.961 . S
H2220 C2206 0.961 . S
H2221 C2207 0.958 . S
H2222 C2207 0.961 . S
H2223 C2207 0.960 . S
C2224 C2225 1.391 1_554 S
C2224 C2226 1.394 . S
C2224 H2240 0.931 . S
C2225 C2224 1.391 1_556 S
C2225 C2229 1.376 . S
C2226 C2224 1.394 . S
C2226 C2227 1.369 1_554 S
C2226 C2230 1.531 . S
C2227 C2226 1.369 1_556 S
C2227 C2228 1.410 . S
C2227 C2235 1.503 . S
C2228 C2227 1.410 . S
C2228 C2229 1.392 . S
C2228 C2231 1.511 . S
C2229 C2225 1.376 . S
C2229 C2228 1.392 . S
C2229 H2241 0.929 . S
C2230 C2226 1.531 . S
C2230 H2242 0.960 . S
C2230 H2243 0.962 . S
C2230 H2244 0.960 . S
C2231 C2228 1.511 . S
C2231 H2245 0.961 . S
C2231 H2246 0.961 . S
C2231 H2247 0.961 . S
C2232 C2233 1.370 1_554 S
C2232 C2234 1.363 . S
C2232 H2248 0.931 . S
C2233 C2232 1.370 1_556 S
C2233 C2237 1.408 . S
C2234 C2232 1.363 . S
C2234 C2235 1.370 1_554 S
C2234 C2238 1.524 . S
C2235 C2227 1.503 . S
C2235 C2234 1.370 1_556 S
C2235 C2236 1.403 . S
C2236 C2235 1.403 . S
C2236 C2237 1.404 . S
C2236 C2239 1.539 . S
C2237 C2233 1.408 . S
C2237 C2236 1.404 . S
C2237 H2249 0.930 . S
C2238 C2234 1.524 . S
C2238 H2250 0.956 . S
C2238 H2251 0.961 1_554 S
C2238 H2252 0.961 . S
C2239 C2236 1.539 . S
C2239 H2253 0.940 1_556 S
C2239 H2254 0.961 . S
C2239 H2255 0.960 . S
H2240 C2224 0.931 . S
H2241 C2229 0.929 . S
H2242 C2230 0.960 . S
H2243 C2230 0.962 . S
H2244 C2230 0.960 . S
H2245 C2231 0.961 . S
H2246 C2231 0.961 . S
H2247 C2231 0.961 . S
H2248 C2232 0.931 . S
H2249 C2237 0.930 . S
H2250 C2238 0.956 . S
H2251 C2238 0.961 1_556 S
H2252 C2238 0.961 . S
H2253 C2239 0.940 1_554 S
H2254 C2239 0.961 . S
H2255 C2239 0.960 . S
C2256 C2257 1.391 . S
C2256 C2258 1.394 . S
C2256 H2272 0.931 . S
C2257 C2256 1.391 . S
C2257 C2261 1.376 . S
C2258 C2256 1.394 . S
C2258 C2259 1.369 . S
C2258 C2262 1.531 . S
C2259 C2258 1.369 . S
C2259 C2260 1.410 . S
C2259 C2267 1.503 . S
C2260 C2259 1.410 . S
C2260 C2261 1.392 . S
C2260 C2263 1.511 . S
C2261 C2257 1.376 . S
C2261 C2260 1.392 . S
C2261 H2273 0.929 . S
C2262 C2258 1.531 . S
C2262 H2274 0.960 . S
C2262 H2275 0.962 . S
C2262 H2276 0.960 . S
C2263 C2260 1.511 . S
C2263 H2277 0.961 . S
C2263 H2278 0.961 . S
C2263 H2279 0.961 . S
C2264 C2265 1.370 . S
C2264 C2266 1.363 . S
C2264 H2280 0.931 . S
C2265 C2264 1.370 . S
C2265 C2269 1.408 . S
C2266 C2264 1.363 . S
C2266 C2267 1.370 . S
C2266 C2270 1.524 . S
C2267 C2259 1.503 . S
C2267 C2266 1.370 . S
C2267 C2268 1.403 . S
C2268 C2267 1.403 . S
C2268 C2269 1.404 . S
C2268 C2271 1.539 . S
C2269 C2265 1.408 . S
C2269 C2268 1.404 . S
C2269 H2281 0.930 . S
C2270 C2266 1.524 . S
C2270 H2282 0.956 . S
C2270 H2283 0.961 . S
C2270 H2284 0.961 . S
C2271 C2268 1.539 . S
C2271 H2285 0.958 . S
C2271 H2286 0.961 . S
C2271 H2287 0.960 . S
H2272 C2256 0.931 . S
H2273 C2261 0.929 . S
H2274 C2262 0.960 . S
H2275 C2262 0.962 . S
H2276 C2262 0.960 . S
H2277 C2263 0.961 . S
H2278 C2263 0.961 . S
H2279 C2263 0.961 . S
H2280 C2264 0.931 . S
H2281 C2269 0.930 . S
H2282 C2270 0.956 . S
H2283 C2270 0.961 . S
H2284 C2270 0.961 . S
H2285 C2271 0.958 . S
H2286 C2271 0.961 . S
H2287 C2271 0.960 . S
C2288 C2289 1.391 . S
C2288 C2290 1.394 . S
C2288 H2304 0.931 . S
C2289 C2288 1.391 . S
C2289 C2293 1.376 . S
C2290 C2288 1.394 . S
C2290 C2291 1.369 . S
C2290 C2294 1.531 . S
C2291 C2290 1.369 . S
C2291 C2292 1.410 . S
C2291 C2299 1.503 . S
C2292 C2291 1.410 . S
C2292 C2293 1.392 . S
C2292 C2295 1.511 . S
C2293 C2289 1.376 . S
C2293 C2292 1.392 . S
C2293 H2305 0.929 . S
C2294 C2290 1.531 . S
C2294 H2306 0.960 . S
C2294 H2307 0.962 . S
C2294 H2308 0.960 . S
C2295 C2292 1.511 . S
C2295 H2309 0.961 . S
C2295 H2310 0.961 . S
C2295 H2311 0.961 . S
C2296 C2297 1.370 1_655 S
C2296 C2298 1.363 . S
C2296 H2312 0.931 . S
C2297 C2296 1.370 1_455 S
C2297 C2301 1.408 1_455 S
C2298 C2296 1.363 . S
C2298 C2299 1.370 . S
C2298 C2302 1.524 . S
C2299 C2291 1.503 . S
C2299 C2298 1.370 . S
C2299 C2300 1.403 . S
C2300 C2299 1.403 . S
C2300 C2301 1.404 . S
C2300 C2303 1.539 . S
C2301 C2297 1.408 1_655 S
C2301 C2300 1.404 . S
C2301 H2313 0.930 1_655 S
C2302 C2298 1.524 . S
C2302 H2314 0.956 . S
C2302 H2315 0.961 . S
C2302 H2316 0.961 . S
C2303 C2300 1.539 . S
C2303 H2317 0.958 . S
C2303 H2318 0.961 . S
C2303 H2319 0.960 . S
H2304 C2288 0.931 . S
H2305 C2293 0.929 . S
H2306 C2294 0.960 . S
H2307 C2294 0.962 . S
H2308 C2294 0.960 . S
H2309 C2295 0.961 . S
H2310 C2295 0.961 . S
H2311 C2295 0.961 . S
H2312 C2296 0.931 . S
H2313 C2301 0.930 1_455 S
H2314 C2302 0.956 . S
H2315 C2302 0.961 . S
H2316 C2302 0.961 . S
H2317 C2303 0.958 . S
H2318 C2303 0.961 . S
H2319 C2303 0.960 . S
C2320 C2321 1.391 . S
C2320 C2322 1.394 . S
C2320 H2336 0.931 . S
C2321 C2320 1.391 . S
C2321 C2325 1.376 . S
C2322 C2320 1.394 . S
C2322 C2323 1.369 . S
C2322 C2326 1.531 . S
C2323 C2322 1.369 . S
C2323 C2324 1.410 . S
C2323 C2331 1.503 . S
C2324 C2323 1.410 . S
C2324 C2325 1.392 . S
C2324 C2327 1.511 . S
C2325 C2321 1.376 . S
C2325 C2324 1.392 . S
C2325 H2337 0.929 . S
C2326 C2322 1.531 . S
C2326 H2338 0.960 . S
C2326 H2339 0.962 . S
C2326 H2340 0.960 . S
C2327 C2324 1.511 . S
C2327 H2341 0.961 . S
C2327 H2342 0.961 . S
C2327 H2343 0.961 . S
C2328 C2329 1.370 . S
C2328 C2330 1.363 . S
C2328 H2344 0.931 . S
C2329 C2328 1.370 . S
C2329 C2333 1.408 . S
C2330 C2328 1.363 . S
C2330 C2331 1.370 . S
C2330 C2334 1.524 . S
C2331 C2323 1.503 . S
C2331 C2330 1.370 . S
C2331 C2332 1.403 . S
C2332 C2331 1.403 . S
C2332 C2333 1.404 . S
C2332 C2335 1.539 . S
C2333 C2329 1.408 . S
C2333 C2332 1.404 . S
C2333 H2345 0.930 . S
C2334 C2330 1.524 . S
C2334 H2346 0.956 . S
C2334 H2347 0.961 . S
C2334 H2348 0.961 . S
C2335 C2332 1.539 . S
C2335 H2349 0.958 . S
C2335 H2350 0.961 . S
C2335 H2351 0.960 . S
H2336 C2320 0.931 . S
H2337 C2325 0.929 . S
H2338 C2326 0.960 . S
H2339 C2326 0.962 . S
H2340 C2326 0.960 . S
H2341 C2327 0.961 . S
H2342 C2327 0.961 . S
H2343 C2327 0.961 . S
H2344 C2328 0.931 . S
H2345 C2333 0.930 . S
H2346 C2334 0.956 . S
H2347 C2334 0.961 . S
H2348 C2334 0.961 . S
H2349 C2335 0.958 . S
H2350 C2335 0.961 . S
H2351 C2335 0.960 . S
C2352 C2353 1.391 . S
C2352 C2354 1.394 . S
C2352 H2368 0.931 . S
C2353 C2352 1.391 . S
C2353 C2357 1.376 . S
C2354 C2352 1.394 . S
C2354 C2355 1.369 . S
C2354 C2358 1.531 . S
C2355 C2354 1.369 . S
C2355 C2356 1.410 . S
C2355 C2363 1.503 . S
C2356 C2355 1.410 . S
C2356 C2357 1.392 . S
C2356 C2359 1.511 . S
C2357 C2353 1.376 . S
C2357 C2356 1.392 . S
C2357 H2369 0.929 . S
C2358 C2354 1.531 . S
C2358 H2370 0.960 . S
C2358 H2371 0.962 . S
C2358 H2372 0.960 . S
C2359 C2356 1.511 . S
C2359 H2373 0.961 . S
C2359 H2374 0.961 . S
C2359 H2375 0.961 . S
C2360 C2361 1.370 . S
C2360 C2362 1.363 . S
C2360 H2376 0.931 . S
C2361 C2360 1.370 . S
C2361 C2365 1.408 . S
C2362 C2360 1.363 . S
C2362 C2363 1.370 . S
C2362 C2366 1.524 . S
C2363 C2355 1.503 . S
C2363 C2362 1.370 . S
C2363 C2364 1.403 . S
C2364 C2363 1.403 . S
C2364 C2365 1.404 . S
C2364 C2367 1.539 . S
C2365 C2361 1.408 . S
C2365 C2364 1.404 . S
C2365 H2377 0.930 . S
C2366 C2362 1.524 . S
C2366 H2378 0.956 . S
C2366 H2379 0.961 . S
C2366 H2380 0.961 . S
C2367 C2364 1.539 . S
C2367 H2381 0.958 . S
C2367 H2382 0.961 . S
C2367 H2383 0.960 . S
H2368 C2352 0.931 . S
H2369 C2357 0.929 . S
H2370 C2358 0.960 . S
H2371 C2358 0.962 . S
H2372 C2358 0.960 . S
H2373 C2359 0.961 . S
H2374 C2359 0.961 . S
H2375 C2359 0.961 . S
H2376 C2360 0.931 . S
H2377 C2365 0.930 . S
H2378 C2366 0.956 . S
H2379 C2366 0.961 . S
H2380 C2366 0.961 . S
H2381 C2367 0.958 . S
H2382 C2367 0.961 . S
H2383 C2367 0.960 . S
C2384 C2385 1.391 . S
C2384 C2386 1.394 . S
C2384 H2400 0.931 . S
C2385 C2384 1.391 . S
C2385 C2389 1.376 . S
C2386 C2384 1.394 . S
C2386 C2387 1.369 . S
C2386 C2390 1.531 . S
C2387 C2386 1.369 . S
C2387 C2388 1.410 . S
C2387 C2395 1.503 . S
C2388 C2387 1.410 . S
C2388 C2389 1.392 . S
C2388 C2391 1.511 . S
C2389 C2385 1.376 . S
C2389 C2388 1.392 . S
C2389 H2401 0.929 . S
C2390 C2386 1.531 . S
C2390 H2402 0.960 . S
C2390 H2403 0.962 . S
C2390 H2404 0.960 . S
C2391 C2388 1.511 . S
C2391 H2405 0.961 . S
C2391 H2406 0.961 . S
C2391 H2407 0.961 . S
C2392 C2393 1.370 . S
C2392 C2394 1.363 . S
C2392 H2408 0.931 . S
C2393 C2392 1.370 . S
C2393 C2397 1.408 . S
C2394 C2392 1.363 . S
C2394 C2395 1.370 . S
C2394 C2398 1.524 . S
C2395 C2387 1.503 . S
C2395 C2394 1.370 . S
C2395 C2396 1.403 . S
C2396 C2395 1.403 . S
C2396 C2397 1.404 . S
C2396 C2399 1.539 . S
C2397 C2393 1.408 . S
C2397 C2396 1.404 . S
C2397 H2409 0.930 . S
C2398 C2394 1.524 . S
C2398 H2410 0.956 . S
C2398 H2411 0.961 . S
C2398 H2412 0.961 . S
C2399 C2396 1.539 . S
C2399 H2413 0.958 . S
C2399 H2414 0.961 . S
C2399 H2415 0.960 . S
H2400 C2384 0.931 . S
H2401 C2389 0.929 . S
H2402 C2390 0.960 . S
H2403 C2390 0.962 . S
H2404 C2390 0.960 . S
H2405 C2391 0.961 . S
H2406 C2391 0.961 . S
H2407 C2391 0.961 . S
H2408 C2392 0.931 . S
H2409 C2397 0.930 . S
H2410 C2398 0.956 . S
H2411 C2398 0.961 . S
H2412 C2398 0.961 . S
H2413 C2399 0.958 . S
H2414 C2399 0.961 . S
H2415 C2399 0.960 . S
C2416 C2417 1.391 . S
C2416 C2418 1.394 . S
C2416 H2432 0.931 . S
C2417 C2416 1.391 . S
C2417 C2421 1.376 . S
C2418 C2416 1.394 . S
C2418 C2419 1.369 . S
C2418 C2422 1.531 . S
C2419 C2418 1.369 . S
C2419 C2420 1.410 . S
C2419 C2427 1.503 . S
C2420 C2419 1.410 . S
C2420 C2421 1.392 . S
C2420 C2423 1.511 . S
C2421 C2417 1.376 . S
C2421 C2420 1.392 . S
C2421 H2433 0.929 . S
C2422 C2418 1.531 . S
C2422 H2434 0.960 . S
C2422 H2435 0.962 . S
C2422 H2436 0.960 . S
C2423 C2420 1.511 . S
C2423 H2437 0.961 . S
C2423 H2438 0.961 . S
C2423 H2439 0.961 . S
C2424 C2425 1.370 . S
C2424 C2426 1.363 . S
C2424 H2440 0.931 . S
C2425 C2424 1.370 . S
C2425 C2429 1.408 . S
C2426 C2424 1.363 . S
C2426 C2427 1.370 . S
C2426 C2430 1.524 . S
C2427 C2419 1.503 . S
C2427 C2426 1.370 . S
C2427 C2428 1.403 . S
C2428 C2427 1.403 . S
C2428 C2429 1.404 . S
C2428 C2431 1.539 . S
C2429 C2425 1.408 . S
C2429 C2428 1.404 . S
C2429 H2441 0.930 . S
C2430 C2426 1.524 . S
C2430 H2442 0.956 . S
C2430 H2443 0.961 . S
C2430 H2444 0.961 . S
C2431 C2428 1.539 . S
C2431 H2445 0.958 . S
C2431 H2446 0.961 . S
C2431 H2447 0.960 . S
H2432 C2416 0.931 . S
H2433 C2421 0.929 . S
H2434 C2422 0.960 . S
H2435 C2422 0.962 . S
H2436 C2422 0.960 . S
H2437 C2423 0.961 . S
H2438 C2423 0.961 . S
H2439 C2423 0.961 . S
H2440 C2424 0.931 . S
H2441 C2429 0.930 . S
H2442 C2430 0.956 . S
H2443 C2430 0.961 . S
H2444 C2430 0.961 . S
H2445 C2431 0.958 . S
H2446 C2431 0.961 . S
H2447 C2431 0.960 . S
C2448 C2449 1.391 . S
C2448 C2450 1.394 . S
C2448 H2464 0.931 . S
C2449 C2448 1.391 . S
C2449 C2453 1.376 . S
C2450 C2448 1.394 . S
C2450 C2451 1.369 . S
C2450 C2454 1.531 . S
C2451 C2450 1.369 . S
C2451 C2452 1.410 . S
C2451 C2459 1.503 . S
C2452 C2451 1.410 . S
C2452 C2453 1.392 . S
C2452 C2455 1.511 . S
C2453 C2449 1.376 . S
C2453 C2452 1.392 . S
C2453 H2465 0.929 . S
C2454 C2450 1.531 . S
C2454 H2466 0.960 . S
C2454 H2467 0.962 . S
C2454 H2468 0.960 . S
C2455 C2452 1.511 . S
C2455 H2469 0.961 . S
C2455 H2470 0.961 . S
C2455 H2471 0.961 . S
C2456 C2457 1.370 . S
C2456 C2458 1.363 . S
C2456 H2472 0.931 . S
C2457 C2456 1.370 . S
C2457 C2461 1.408 . S
C2458 C2456 1.363 . S
C2458 C2459 1.370 . S
C2458 C2462 1.524 . S
C2459 C2451 1.503 . S
C2459 C2458 1.370 . S
C2459 C2460 1.403 . S
C2460 C2459 1.403 . S
C2460 C2461 1.404 . S
C2460 C2463 1.539 . S
C2461 C2457 1.408 . S
C2461 C2460 1.404 . S
C2461 H2473 0.930 . S
C2462 C2458 1.524 . S
C2462 H2474 0.956 . S
C2462 H2475 0.961 . S
C2462 H2476 0.961 . S
C2463 C2460 1.539 . S
C2463 H2477 0.958 . S
C2463 H2478 0.961 . S
C2463 H2479 0.960 . S
H2464 C2448 0.931 . S
H2465 C2453 0.929 . S
H2466 C2454 0.960 . S
H2467 C2454 0.962 . S
H2468 C2454 0.960 . S
H2469 C2455 0.961 . S
H2470 C2455 0.961 . S
H2471 C2455 0.961 . S
H2472 C2456 0.931 . S
H2473 C2461 0.930 . S
H2474 C2462 0.956 . S
H2475 C2462 0.961 . S
H2476 C2462 0.961 . S
H2477 C2463 0.958 . S
H2478 C2463 0.961 . S
H2479 C2463 0.960 . S
C2480 C2481 1.391 . S
C2480 C2482 1.394 . S
C2480 H2496 0.931 . S
C2481 C2480 1.391 . S
C2481 C2485 1.376 . S
C2482 C2480 1.394 . S
C2482 C2483 1.369 . S
C2482 C2486 1.531 . S
C2483 C2482 1.369 . S
C2483 C2484 1.410 . S
C2483 C2491 1.503 . S
C2484 C2483 1.410 . S
C2484 C2485 1.392 . S
C2484 C2487 1.511 . S
C2485 C2481 1.376 . S
C2485 C2484 1.392 . S
C2485 H2497 0.929 . S
C2486 C2482 1.531 . S
C2486 H2498 0.960 . S
C2486 H2499 0.962 . S
C2486 H2500 0.960 . S
C2487 C2484 1.511 . S
C2487 H2501 0.961 . S
C2487 H2502 0.961 . S
C2487 H2503 0.961 . S
C2488 C2489 1.370 . S
C2488 C2490 1.363 . S
C2488 H2504 0.931 . S
C2489 C2488 1.370 . S
C2489 C2493 1.408 . S
C2490 C2488 1.363 . S
C2490 C2491 1.370 . S
C2490 C2494 1.524 . S
C2491 C2483 1.503 . S
C2491 C2490 1.370 . S
C2491 C2492 1.403 . S
C2492 C2491 1.403 . S
C2492 C2493 1.404 . S
C2492 C2495 1.539 . S
C2493 C2489 1.408 . S
C2493 C2492 1.404 . S
C2493 H2505 0.930 . S
C2494 C2490 1.524 . S
C2494 H2506 0.956 . S
C2494 H2507 0.961 . S
C2494 H2508 0.961 . S
C2495 C2492 1.539 . S
C2495 H2509 0.958 . S
C2495 H2510 0.961 . S
C2495 H2511 0.960 . S
H2496 C2480 0.931 . S
H2497 C2485 0.929 . S
H2498 C2486 0.960 . S
H2499 C2486 0.962 . S
H2500 C2486 0.960 . S
H2501 C2487 0.961 . S
H2502 C2487 0.961 . S
H2503 C2487 0.961 . S
H2504 C2488 0.931 . S
H2505 C2493 0.930 . S
H2506 C2494 0.956 . S
H2507 C2494 0.961 . S
H2508 C2494 0.961 . S
H2509 C2495 0.958 . S
H2510 C2495 0.961 . S
H2511 C2495 0.960 . S
C2512 C2513 1.391 . S
C2512 C2514 1.394 . S
C2512 H2528 0.931 . S
C2513 C2512 1.391 . S
C2513 C2517 1.376 . S
C2514 C2512 1.394 . S
C2514 C2515 1.369 . S
C2514 C2518 1.531 . S
C2515 C2514 1.369 . S
C2515 C2516 1.410 . S
C2515 C2523 1.503 . S
C2516 C2515 1.410 . S
C2516 C2517 1.392 . S
C2516 C2519 1.511 . S
C2517 C2513 1.376 . S
C2517 C2516 1.392 . S
C2517 H2529 0.929 . S
C2518 C2514 1.531 . S
C2518 H2530 0.960 . S
C2518 H2531 0.962 . S
C2518 H2532 0.960 . S
C2519 C2516 1.511 . S
C2519 H2533 0.961 . S
C2519 H2534 0.961 . S
C2519 H2535 0.961 . S
C2520 C2521 1.370 . S
C2520 C2522 1.363 . S
C2520 H2536 0.931 . S
C2521 C2520 1.370 . S
C2521 C2525 1.408 . S
C2522 C2520 1.363 . S
C2522 C2523 1.370 . S
C2522 C2526 1.524 . S
C2523 C2515 1.503 . S
C2523 C2522 1.370 . S
C2523 C2524 1.403 . S
C2524 C2523 1.403 . S
C2524 C2525 1.404 . S
C2524 C2527 1.539 . S
C2525 C2521 1.408 . S
C2525 C2524 1.404 . S
C2525 H2537 0.930 . S
C2526 C2522 1.524 . S
C2526 H2538 0.956 . S
C2526 H2539 0.961 . S
C2526 H2540 0.961 . S
C2527 C2524 1.539 . S
C2527 H2541 0.958 . S
C2527 H2542 0.961 . S
C2527 H2543 0.960 . S
H2528 C2512 0.931 . S
H2529 C2517 0.929 . S
H2530 C2518 0.960 . S
H2531 C2518 0.962 . S
H2532 C2518 0.960 . S
H2533 C2519 0.961 . S
H2534 C2519 0.961 . S
H2535 C2519 0.961 . S
H2536 C2520 0.931 . S
H2537 C2525 0.930 . S
H2538 C2526 0.956 . S
H2539 C2526 0.961 . S
H2540 C2526 0.961 . S
H2541 C2527 0.958 . S
H2542 C2527 0.961 . S
H2543 C2527 0.960 . S
C2544 C2545 1.391 . S
C2544 C2546 1.394 . S
C2544 H2560 0.931 . S
C2545 C2544 1.391 . S
C2545 C2549 1.376 . S
C2546 C2544 1.394 . S
C2546 C2547 1.369 . S
C2546 C2550 1.531 . S
C2547 C2546 1.369 . S
C2547 C2548 1.410 . S
C2547 C2555 1.503 . S
C2548 C2547 1.410 . S
C2548 C2549 1.392 . S
C2548 C2551 1.511 . S
C2549 C2545 1.376 . S
C2549 C2548 1.392 . S
C2549 H2561 0.929 . S
C2550 C2546 1.531 . S
C2550 H2562 0.960 . S
C2550 H2563 0.962 . S
C2550 H2564 0.960 . S
C2551 C2548 1.511 . S
C2551 H2565 0.961 . S
C2551 H2566 0.961 . S
C2551 H2567 0.961 . S
C2552 C2553 1.370 . S
C2552 C2554 1.363 . S
C2552 H2568 0.931 . S
C2553 C2552 1.370 . S
C2553 C2557 1.408 . S
C2554 C2552 1.363 . S
C2554 C2555 1.370 . S
C2554 C2558 1.524 . S
C2555 C2547 1.503 . S
C2555 C2554 1.370 . S
C2555 C2556 1.403 . S
C2556 C2555 1.403 . S
C2556 C2557 1.404 . S
C2556 C2559 1.539 . S
C2557 C2553 1.408 . S
C2557 C2556 1.404 . S
C2557 H2569 0.930 . S
C2558 C2554 1.524 . S
C2558 H2570 0.956 . S
C2558 H2571 0.961 . S
C2558 H2572 0.961 . S
C2559 C2556 1.539 . S
C2559 H2573 0.958 . S
C2559 H2574 0.961 . S
C2559 H2575 0.960 . S
H2560 C2544 0.931 . S
H2561 C2549 0.929 . S
H2562 C2550 0.960 . S
H2563 C2550 0.962 . S
H2564 C2550 0.960 . S
H2565 C2551 0.961 . S
H2566 C2551 0.961 . S
H2567 C2551 0.961 . S
H2568 C2552 0.931 . S
H2569 C2557 0.930 . S
H2570 C2558 0.956 . S
H2571 C2558 0.961 . S
H2572 C2558 0.961 . S
H2573 C2559 0.958 . S
H2574 C2559 0.961 . S
H2575 C2559 0.960 . S
C2576 C2577 1.391 . S
C2576 C2578 1.394 . S
C2576 H2592 0.931 . S
C2577 C2576 1.391 . S
C2577 C2581 1.376 . S
C2578 C2576 1.394 . S
C2578 C2579 1.369 . S
C2578 C2582 1.531 . S
C2579 C2578 1.369 . S
C2579 C2580 1.410 . S
C2579 C2587 1.503 . S
C2580 C2579 1.410 . S
C2580 C2581 1.392 . S
C2580 C2583 1.511 . S
C2581 C2577 1.376 . S
C2581 C2580 1.392 . S
C2581 H2593 0.929 . S
C2582 C2578 1.531 . S
C2582 H2594 0.960 . S
C2582 H2595 0.962 . S
C2582 H2596 0.960 . S
C2583 C2580 1.511 . S
C2583 H2597 0.961 . S
C2583 H2598 0.961 . S
C2583 H2599 0.961 . S
C2584 C2585 1.370 . S
C2584 C2586 1.363 . S
C2584 H2600 0.931 . S
C2585 C2584 1.370 . S
C2585 C2589 1.408 . S
C2586 C2584 1.363 . S
C2586 C2587 1.370 . S
C2586 C2590 1.524 . S
C2587 C2579 1.503 . S
C2587 C2586 1.370 . S
C2587 C2588 1.403 . S
C2588 C2587 1.403 . S
C2588 C2589 1.404 . S
C2588 C2591 1.539 . S
C2589 C2585 1.408 . S
C2589 C2588 1.404 . S
C2589 H2601 0.930 . S
C2590 C2586 1.524 . S
C2590 H2602 0.956 . S
C2590 H2603 0.961 . S
C2590 H2604 0.961 . S
C2591 C2588 1.539 . S
C2591 H2605 0.958 . S
C2591 H2606 0.961 . S
C2591 H2607 0.960 . S
H2592 C2576 0.931 . S
H2593 C2581 0.929 . S
H2594 C2582 0.960 . S
H2595 C2582 0.962 . S
H2596 C2582 0.960 . S
H2597 C2583 0.961 . S
H2598 C2583 0.961 . S
H2599 C2583 0.961 . S
H2600 C2584 0.931 . S
H2601 C2589 0.930 . S
H2602 C2590 0.956 . S
H2603 C2590 0.961 . S
H2604 C2590 0.961 . S
H2605 C2591 0.958 . S
H2606 C2591 0.961 . S
H2607 C2591 0.960 . S
C2608 C2609 1.391 . S
C2608 C2610 1.394 . S
C2608 H2624 0.931 . S
C2609 C2608 1.391 . S
C2609 C2613 1.376 . S
C2610 C2608 1.394 . S
C2610 C2611 1.369 . S
C2610 C2614 1.531 . S
C2611 C2610 1.369 . S
C2611 C2612 1.410 . S
C2611 C2619 1.503 . S
C2612 C2611 1.410 . S
C2612 C2613 1.392 . S
C2612 C2615 1.511 . S
C2613 C2609 1.376 . S
C2613 C2612 1.392 . S
C2613 H2625 0.929 . S
C2614 C2610 1.531 . S
C2614 H2626 0.960 . S
C2614 H2627 0.962 . S
C2614 H2628 0.960 . S
C2615 C2612 1.511 . S
C2615 H2629 0.961 . S
C2615 H2630 0.961 . S
C2615 H2631 0.961 . S
C2616 C2617 1.370 . S
C2616 C2618 1.363 . S
C2616 H2632 0.931 . S
C2617 C2616 1.370 . S
C2617 C2621 1.408 . S
C2618 C2616 1.363 . S
C2618 C2619 1.370 . S
C2618 C2622 1.524 . S
C2619 C2611 1.503 . S
C2619 C2618 1.370 . S
C2619 C2620 1.403 . S
C2620 C2619 1.403 . S
C2620 C2621 1.404 . S
C2620 C2623 1.539 . S
C2621 C2617 1.408 . S
C2621 C2620 1.404 . S
C2621 H2633 0.930 . S
C2622 C2618 1.524 . S
C2622 H2634 0.956 . S
C2622 H2635 0.961 . S
C2622 H2636 0.961 . S
C2623 C2620 1.539 . S
C2623 H2637 0.958 . S
C2623 H2638 0.961 . S
C2623 H2639 0.960 . S
H2624 C2608 0.931 . S
H2625 C2613 0.929 . S
H2626 C2614 0.960 . S
H2627 C2614 0.962 . S
H2628 C2614 0.960 . S
H2629 C2615 0.961 . S
H2630 C2615 0.961 . S
H2631 C2615 0.961 . S
H2632 C2616 0.931 . S
H2633 C2621 0.930 . S
H2634 C2622 0.956 . S
H2635 C2622 0.961 . S
H2636 C2622 0.961 . S
H2637 C2623 0.958 . S
H2638 C2623 0.961 . S
H2639 C2623 0.960 . S
C2640 C2641 1.391 . S
C2640 C2642 1.394 . S
C2640 H2656 0.931 . S
C2641 C2640 1.391 . S
C2641 C2645 1.376 . S
C2642 C2640 1.394 . S
C2642 C2643 1.369 . S
C2642 C2646 1.531 . S
C2643 C2642 1.369 . S
C2643 C2644 1.410 . S
C2643 C2651 1.503 . S
C2644 C2643 1.410 . S
C2644 C2645 1.392 . S
C2644 C2647 1.511 . S
C2645 C2641 1.376 . S
C2645 C2644 1.392 . S
C2645 H2657 0.929 . S
C2646 C2642 1.531 . S
C2646 H2658 0.960 . S
C2646 H2659 0.962 . S
C2646 H2660 0.960 . S
C2647 C2644 1.511 . S
C2647 H2661 0.961 . S
C2647 H2662 0.961 . S
C2647 H2663 0.961 . S
C2648 C2649 1.370 . S
C2648 C2650 1.363 . S
C2648 H2664 0.931 . S
C2649 C2648 1.370 . S
C2649 C2653 1.408 . S
C2650 C2648 1.363 . S
C2650 C2651 1.370 . S
C2650 C2654 1.524 . S
C2651 C2643 1.503 . S
C2651 C2650 1.370 . S
C2651 C2652 1.403 . S
C2652 C2651 1.403 . S
C2652 C2653 1.404 . S
C2652 C2655 1.539 . S
C2653 C2649 1.408 . S
C2653 C2652 1.404 . S
C2653 H2665 0.930 1_565 S
C2654 C2650 1.524 . S
C2654 H2666 0.956 . S
C2654 H2667 0.961 . S
C2654 H2668 0.961 . S
C2655 C2652 1.539 . S
C2655 H2669 0.958 . S
C2655 H2670 0.961 . S
C2655 H2671 0.960 . S
H2656 C2640 0.931 . S
H2657 C2645 0.929 . S
H2658 C2646 0.960 . S
H2659 C2646 0.962 . S
H2660 C2646 0.960 . S
H2661 C2647 0.961 . S
H2662 C2647 0.961 . S
H2663 C2647 0.961 . S
H2664 C2648 0.931 . S
H2665 C2653 0.930 1_545 S
H2666 C2654 0.956 . S
H2667 C2654 0.961 . S
H2668 C2654 0.961 . S
H2669 C2655 0.958 . S
H2670 C2655 0.961 . S
H2671 C2655 0.960 . S
C2672 C2673 1.391 . S
C2672 C2674 1.394 . S
C2672 H2688 0.931 . S
C2673 C2672 1.391 . S
C2673 C2677 1.376 . S
C2674 C2672 1.394 . S
C2674 C2675 1.369 . S
C2674 C2678 1.531 . S
C2675 C2674 1.369 . S
C2675 C2676 1.410 . S
C2675 C2683 1.503 . S
C2676 C2675 1.410 . S
C2676 C2677 1.392 . S
C2676 C2679 1.511 . S
C2677 C2673 1.376 . S
C2677 C2676 1.392 . S
C2677 H2689 0.929 . S
C2678 C2674 1.531 . S
C2678 H2690 0.960 . S
C2678 H2691 0.962 . S
C2678 H2692 0.960 . S
C2679 C2676 1.511 . S
C2679 H2693 0.961 . S
C2679 H2694 0.961 . S
C2679 H2695 0.961 . S
C2680 C2681 1.370 . S
C2680 C2682 1.363 . S
C2680 H2696 0.931 . S
C2681 C2680 1.370 . S
C2681 C2685 1.408 . S
C2682 C2680 1.363 . S
C2682 C2683 1.370 . S
C2682 C2686 1.524 . S
C2683 C2675 1.503 . S
C2683 C2682 1.370 . S
C2683 C2684 1.403 . S
C2684 C2683 1.403 . S
C2684 C2685 1.404 . S
C2684 C2687 1.539 . S
C2685 C2681 1.408 . S
C2685 C2684 1.404 . S
C2685 H2697 0.930 . S
C2686 C2682 1.524 . S
C2686 H2698 0.956 . S
C2686 H2699 0.961 . S
C2686 H2700 0.961 . S
C2687 C2684 1.539 . S
C2687 H2701 0.958 . S
C2687 H2702 0.961 . S
C2687 H2703 0.960 . S
H2688 C2672 0.931 . S
H2689 C2677 0.929 . S
H2690 C2678 0.960 . S
H2691 C2678 0.962 . S
H2692 C2678 0.960 . S
H2693 C2679 0.961 . S
H2694 C2679 0.961 . S
H2695 C2679 0.961 . S
H2696 C2680 0.931 . S
H2697 C2685 0.930 . S
H2698 C2686 0.956 . S
H2699 C2686 0.961 . S
H2700 C2686 0.961 . S
H2701 C2687 0.958 . S
H2702 C2687 0.961 . S
H2703 C2687 0.960 . S
C2704 C2705 1.391 1_565 S
C2704 C2706 1.394 . S
C2704 H2720 0.931 . S
C2705 C2704 1.391 1_545 S
C2705 C2709 1.376 . S
C2706 C2704 1.394 . S
C2706 C2707 1.369 1_565 S
C2706 C2710 1.531 . S
C2707 C2706 1.369 1_545 S
C2707 C2708 1.410 . S
C2707 C2715 1.503 . S
C2708 C2707 1.410 . S
C2708 C2709 1.392 . S
C2708 C2711 1.511 . S
C2709 C2705 1.376 . S
C2709 C2708 1.392 . S
C2709 H2721 0.929 . S
C2710 C2706 1.531 . S
C2710 H2722 0.960 . S
C2710 H2723 0.962 . S
C2710 H2724 0.960 . S
C2711 C2708 1.511 . S
C2711 H2725 0.961 . S
C2711 H2726 0.961 . S
C2711 H2727 0.961 . S
C2712 C2713 1.370 . S
C2712 C2714 1.363 . S
C2712 H2728 0.931 . S
C2713 C2712 1.370 . S
C2713 C2717 1.408 . S
C2714 C2712 1.363 . S
C2714 C2715 1.370 . S
C2714 C2718 1.524 . S
C2715 C2707 1.503 . S
C2715 C2714 1.370 . S
C2715 C2716 1.403 . S
C2716 C2715 1.403 . S
C2716 C2717 1.404 . S
C2716 C2719 1.539 1_545 S
C2717 C2713 1.408 . S
C2717 C2716 1.404 . S
C2717 H2729 0.930 . S
C2718 C2714 1.524 . S
C2718 H2730 0.956 . S
C2718 H2731 0.961 . S
C2718 H2732 0.961 . S
C2719 C2716 1.539 1_565 S
C2719 H2733 0.958 . S
C2719 H2734 0.961 1_565 S
C2719 H2735 0.960 1_565 S
H2720 C2704 0.931 . S
H2721 C2709 0.929 . S
H2722 C2710 0.960 . S
H2723 C2710 0.962 . S
H2724 C2710 0.960 . S
H2725 C2711 0.961 . S
H2726 C2711 0.961 . S
H2727 C2711 0.961 . S
H2728 C2712 0.931 . S
H2729 C2717 0.930 . S
H2730 C2718 0.956 . S
H2731 C2718 0.961 . S
H2732 C2718 0.961 . S
H2733 C2719 0.958 . S
H2734 C2719 0.961 1_545 S
H2735 C2719 0.960 1_545 S
C2736 C2737 1.391 . S
C2736 C2738 1.394 . S
C2736 H2752 0.931 . S
C2737 C2736 1.391 . S
C2737 C2741 1.376 . S
C2738 C2736 1.394 . S
C2738 C2739 1.369 . S
C2738 C2742 1.531 . S
C2739 C2738 1.369 . S
C2739 C2740 1.410 . S
C2739 C2747 1.503 . S
C2740 C2739 1.410 . S
C2740 C2741 1.392 . S
C2740 C2743 1.511 . S
C2741 C2737 1.376 . S
C2741 C2740 1.392 . S
C2741 H2753 0.929 . S
C2742 C2738 1.531 . S
C2742 H2754 0.960 . S
C2742 H2755 0.962 . S
C2742 H2756 0.960 . S
C2743 C2740 1.511 . S
C2743 H2757 0.961 . S
C2743 H2758 0.961 . S
C2743 H2759 0.961 . S
C2744 C2745 1.370 . S
C2744 C2746 1.363 . S
C2744 H2760 0.931 . S
C2745 C2744 1.370 . S
C2745 C2749 1.408 . S
C2746 C2744 1.363 . S
C2746 C2747 1.370 . S
C2746 C2750 1.524 . S
C2747 C2739 1.503 . S
C2747 C2746 1.370 . S
C2747 C2748 1.403 . S
C2748 C2747 1.403 . S
C2748 C2749 1.404 . S
C2748 C2751 1.539 . S
C2749 C2745 1.408 . S
C2749 C2748 1.404 . S
C2749 H2761 0.930 . S
C2750 C2746 1.524 . S
C2750 H2762 0.956 . S
C2750 H2763 0.961 . S
C2750 H2764 0.961 . S
C2751 C2748 1.539 . S
C2751 H2765 0.958 . S
C2751 H2766 0.961 . S
C2751 H2767 0.960 . S
H2752 C2736 0.931 . S
H2753 C2741 0.929 . S
H2754 C2742 0.960 . S
H2755 C2742 0.962 . S
H2756 C2742 0.960 . S
H2757 C2743 0.961 . S
H2758 C2743 0.961 . S
H2759 C2743 0.961 . S
H2760 C2744 0.931 . S
H2761 C2749 0.930 . S
H2762 C2750 0.956 . S
H2763 C2750 0.961 . S
H2764 C2750 0.961 . S
H2765 C2751 0.958 . S
H2766 C2751 0.961 . S
H2767 C2751 0.960 . S
C2768 C2769 1.391 . S
C2768 C2770 1.394 . S
C2768 H2784 0.931 . S
C2769 C2768 1.391 . S
C2769 C2773 1.376 . S
C2770 C2768 1.394 . S
C2770 C2771 1.369 . S
C2770 C2774 1.531 . S
C2771 C2770 1.369 . S
C2771 C2772 1.410 . S
C2771 C2779 1.503 . S
C2772 C2771 1.410 . S
C2772 C2773 1.392 . S
C2772 C2775 1.511 . S
C2773 C2769 1.376 . S
C2773 C2772 1.392 . S
C2773 H2785 0.929 . S
C2774 C2770 1.531 . S
C2774 H2786 0.956 1_545 S
C2774 H2787 0.962 . S
C2774 H2788 0.960 1_545 S
C2775 C2772 1.511 . S
C2775 H2789 0.961 . S
C2775 H2790 0.961 . S
C2775 H2791 0.961 . S
C2776 C2777 1.370 . S
C2776 C2778 1.363 . S
C2776 H2792 0.931 . S
C2777 C2776 1.370 . S
C2777 C2781 1.408 . S
C2778 C2776 1.363 . S
C2778 C2779 1.370 . S
C2778 C2782 1.524 . S
C2779 C2771 1.503 . S
C2779 C2778 1.370 . S
C2779 C2780 1.403 . S
C2780 C2779 1.403 . S
C2780 C2781 1.404 . S
C2780 C2783 1.539 1_545 S
C2781 C2777 1.408 . S
C2781 C2780 1.404 . S
C2781 H2793 0.930 . S
C2782 C2778 1.524 . S
C2782 H2794 0.956 . S
C2782 H2795 0.961 . S
C2782 H2796 0.961 . S
C2783 C2780 1.539 1_565 S
C2783 H2797 0.958 . S
C2783 H2798 0.961 . S
C2783 H2799 0.960 . S
H2784 C2768 0.931 . S
H2785 C2773 0.929 . S
H2786 C2774 0.956 1_565 S
H2787 C2774 0.962 . S
H2788 C2774 0.960 1_565 S
H2789 C2775 0.961 . S
H2790 C2775 0.961 . S
H2791 C2775 0.961 . S
H2792 C2776 0.931 . S
H2793 C2781 0.930 . S
H2794 C2782 0.956 . S
H2795 C2782 0.961 . S
H2796 C2782 0.961 . S
H2797 C2783 0.958 . S
H2798 C2783 0.961 . S
H2799 C2783 0.960 . S
C2800 C2801 1.391 . S
C2800 C2802 1.394 . S
C2800 H2816 0.931 . S
C2801 C2800 1.391 . S
C2801 C2805 1.376 . S
C2802 C2800 1.394 . S
C2802 C2803 1.369 . S
C2802 C2806 1.531 . S
C2803 C2802 1.369 . S
C2803 C2804 1.410 . S
C2803 C2811 1.503 . S
C2804 C2803 1.410 . S
C2804 C2805 1.392 . S
C2804 C2807 1.511 . S
C2805 C2801 1.376 . S
C2805 C2804 1.392 . S
C2805 H2817 0.929 . S
C2806 C2802 1.531 . S
C2806 H2818 0.960 . S
C2806 H2819 0.962 . S
C2806 H2820 0.960 . S
C2807 C2804 1.511 . S
C2807 H2821 0.961 . S
C2807 H2822 0.961 . S
C2807 H2823 0.961 . S
C2808 C2809 1.370 . S
C2808 C2810 1.363 . S
C2808 H2824 0.931 . S
C2809 C2808 1.370 . S
C2809 C2813 1.408 . S
C2810 C2808 1.363 . S
C2810 C2811 1.370 . S
C2810 C2814 1.524 . S
C2811 C2803 1.503 . S
C2811 C2810 1.370 . S
C2811 C2812 1.403 . S
C2812 C2811 1.403 . S
C2812 C2813 1.404 . S
C2812 C2815 1.539 . S
C2813 C2809 1.408 . S
C2813 C2812 1.404 . S
C2813 H2825 0.930 . S
C2814 C2810 1.524 . S
C2814 H2826 0.956 . S
C2814 H2827 0.961 . S
C2814 H2828 0.961 . S
C2815 C2812 1.539 . S
C2815 H2829 0.958 . S
C2815 H2830 0.961 . S
C2815 H2831 0.960 . S
H2816 C2800 0.931 . S
H2817 C2805 0.929 . S
H2818 C2806 0.960 . S
H2819 C2806 0.962 . S
H2820 C2806 0.960 . S
H2821 C2807 0.961 . S
H2822 C2807 0.961 . S
H2823 C2807 0.961 . S
H2824 C2808 0.931 . S
H2825 C2813 0.930 . S
H2826 C2814 0.956 . S
H2827 C2814 0.961 . S
H2828 C2814 0.961 . S
H2829 C2815 0.958 . S
H2830 C2815 0.961 . S
H2831 C2815 0.960 . S
C2832 C2833 1.391 . S
C2832 C2834 1.394 . S
C2832 H2848 0.931 . S
C2833 C2832 1.391 . S
C2833 C2837 1.376 1_565 S
C2834 C2832 1.394 . S
C2834 C2835 1.369 1_565 S
C2834 C2838 1.531 . S
C2835 C2834 1.369 1_545 S
C2835 C2836 1.410 . S
C2835 C2843 1.503 . S
C2836 C2835 1.410 . S
C2836 C2837 1.392 . S
C2836 C2839 1.511 . S
C2837 C2833 1.376 1_545 S
C2837 C2836 1.392 . S
C2837 H2849 0.929 . S
C2838 C2834 1.531 . S
C2838 H2850 0.960 . S
C2838 H2851 0.962 . S
C2838 H2852 0.960 . S
C2839 C2836 1.511 . S
C2839 H2853 0.961 . S
C2839 H2854 0.961 . S
C2839 H2855 0.961 . S
C2840 C2841 1.370 . S
C2840 C2842 1.363 . S
C2840 H2856 0.931 . S
C2841 C2840 1.370 . S
C2841 C2845 1.408 . S
C2842 C2840 1.363 . S
C2842 C2843 1.370 . S
C2842 C2846 1.524 . S
C2843 C2835 1.503 . S
C2843 C2842 1.370 . S
C2843 C2844 1.399 1_545 S
C2844 C2843 1.399 1_565 S
C2844 C2845 1.391 1_565 S
C2844 C2847 1.554 . S
C2845 C2841 1.408 . S
C2845 C2844 1.391 1_545 S
C2845 H2857 0.927 1_545 S
C2846 C2842 1.524 . S
C2846 H2858 0.956 . S
C2846 H2859 0.961 . S
C2846 H2860 0.961 . S
C2847 C2844 1.554 . S
C2847 H2861 0.958 . S
C2847 H2862 0.961 . S
C2847 H2863 0.960 . S
H2848 C2832 0.931 . S
H2849 C2837 0.929 . S
H2850 C2838 0.960 . S
H2851 C2838 0.962 . S
H2852 C2838 0.960 . S
H2853 C2839 0.961 . S
H2854 C2839 0.961 . S
H2855 C2839 0.961 . S
H2856 C2840 0.931 . S
H2857 C2845 0.927 1_565 S
H2858 C2846 0.956 . S
H2859 C2846 0.961 . S
H2860 C2846 0.961 . S
H2861 C2847 0.958 . S
H2862 C2847 0.961 . S
H2863 C2847 0.960 . S
C2864 C2865 1.391 . S
C2864 C2866 1.394 . S
C2864 H2880 0.931 . S
C2865 C2864 1.391 . S
C2865 C2869 1.376 . S
C2866 C2864 1.394 . S
C2866 C2867 1.369 . S
C2866 C2870 1.531 . S
C2867 C2866 1.369 . S
C2867 C2868 1.410 . S
C2867 C2875 1.503 . S
C2868 C2867 1.410 . S
C2868 C2869 1.392 . S
C2868 C2871 1.511 . S
C2869 C2865 1.376 . S
C2869 C2868 1.392 . S
C2869 H2881 0.929 . S
C2870 C2866 1.531 . S
C2870 H2882 0.960 . S
C2870 H2883 0.962 . S
C2870 H2884 0.960 . S
C2871 C2868 1.511 . S
C2871 H2885 0.961 . S
C2871 H2886 0.961 . S
C2871 H2887 0.961 . S
C2872 C2873 1.370 . S
C2872 C2874 1.363 . S
C2872 H2888 0.931 . S
C2873 C2872 1.370 . S
C2873 C2877 1.408 . S
C2874 C2872 1.363 . S
C2874 C2875 1.370 . S
C2874 C2878 1.524 . S
C2875 C2867 1.503 . S
C2875 C2874 1.370 . S
C2875 C2876 1.403 . S
C2876 C2875 1.403 . S
C2876 C2877 1.404 . S
C2876 C2879 1.539 . S
C2877 C2873 1.408 . S
C2877 C2876 1.404 . S
C2877 H2889 0.930 . S
C2878 C2874 1.524 . S
C2878 H2890 0.956 . S
C2878 H2891 0.961 . S
C2878 H2892 0.961 . S
C2879 C2876 1.539 . S
C2879 H2893 0.958 . S
C2879 H2894 0.961 . S
C2879 H2895 0.960 . S
H2880 C2864 0.931 . S
H2881 C2869 0.929 . S
H2882 C2870 0.960 . S
H2883 C2870 0.962 . S
H2884 C2870 0.960 . S
H2885 C2871 0.961 . S
H2886 C2871 0.961 . S
H2887 C2871 0.961 . S
H2888 C2872 0.931 . S
H2889 C2877 0.930 . S
H2890 C2878 0.956 . S
H2891 C2878 0.961 . S
H2892 C2878 0.961 . S
H2893 C2879 0.958 . S
H2894 C2879 0.961 . S
H2895 C2879 0.960 . S
C2896 C2897 1.391 . S
C2896 C2898 1.394 . S
C2896 H2912 0.931 . S
C2897 C2896 1.391 . S
C2897 C2901 1.376 . S
C2898 C2896 1.394 . S
C2898 C2899 1.369 . S
C2898 C2902 1.531 . S
C2899 C2898 1.369 . S
C2899 C2900 1.410 . S
C2899 C2907 1.503 . S
C2900 C2899 1.410 . S
C2900 C2901 1.392 . S
C2900 C2903 1.512 1_545 S
C2901 C2897 1.376 . S
C2901 C2900 1.392 . S
C2901 H2913 0.929 . S
C2902 C2898 1.531 . S
C2902 H2914 0.960 . S
C2902 H2915 0.962 . S
C2902 H2916 0.960 . S
C2903 C2900 1.512 1_565 S
C2903 H2917 0.958 1_565 S
C2903 H2918 0.958 1_565 S
C2903 H2919 0.966 . S
C2904 C2905 1.370 . S
C2904 C2906 1.363 . S
C2904 H2920 0.931 . S
C2905 C2904 1.370 . S
C2905 C2909 1.408 1_545 S
C2906 C2904 1.363 . S
C2906 C2907 1.370 . S
C2906 C2910 1.524 . S
C2907 C2899 1.503 . S
C2907 C2906 1.370 . S
C2907 C2908 1.403 1_545 S
C2908 C2907 1.403 1_565 S
C2908 C2909 1.404 . S
C2908 C2911 1.539 . S
C2909 C2905 1.408 1_565 S
C2909 C2908 1.404 . S
C2909 H2921 0.930 . S
C2910 C2906 1.524 . S
C2910 H2922 0.956 . S
C2910 H2923 0.961 . S
C2910 H2924 0.961 . S
C2911 C2908 1.539 . S
C2911 H2925 0.958 . S
C2911 H2926 0.961 . S
C2911 H2927 0.960 . S
H2912 C2896 0.931 . S
H2913 C2901 0.929 . S
H2914 C2902 0.960 . S
H2915 C2902 0.962 . S
H2916 C2902 0.960 . S
H2917 C2903 0.958 1_545 S
H2918 C2903 0.958 1_545 S
H2919 C2903 0.966 . S
H2920 C2904 0.931 . S
H2921 C2909 0.930 . S
H2922 C2910 0.956 . S
H2923 C2910 0.961 . S
H2924 C2910 0.961 . S
H2925 C2911 0.958 . S
H2926 C2911 0.961 . S
H2927 C2911 0.960 . S
C2928 C2929 1.391 . S
C2928 C2930 1.394 . S
C2928 H2944 0.931 . S
C2929 C2928 1.391 . S
C2929 C2933 1.376 . S
C2930 C2928 1.394 . S
C2930 C2931 1.369 . S
C2930 C2934 1.531 . S
C2931 C2930 1.369 . S
C2931 C2932 1.410 . S
C2931 C2939 1.503 . S
C2932 C2931 1.410 . S
C2932 C2933 1.392 . S
C2932 C2935 1.511 . S
C2933 C2929 1.376 . S
C2933 C2932 1.392 . S
C2933 H2945 0.929 . S
C2934 C2930 1.531 . S
C2934 H2946 0.960 . S
C2934 H2947 0.962 . S
C2934 H2948 0.960 . S
C2935 C2932 1.511 . S
C2935 H2949 0.961 . S
C2935 H2950 0.961 . S
C2935 H2951 0.961 . S
C2936 C2937 1.370 . S
C2936 C2938 1.363 . S
C2936 H2952 0.931 . S
C2937 C2936 1.370 . S
C2937 C2941 1.408 . S
C2938 C2936 1.363 . S
C2938 C2939 1.370 . S
C2938 C2942 1.524 . S
C2939 C2931 1.503 . S
C2939 C2938 1.370 . S
C2939 C2940 1.403 . S
C2940 C2939 1.403 . S
C2940 C2941 1.404 . S
C2940 C2943 1.539 . S
C2941 C2937 1.408 . S
C2941 C2940 1.404 . S
C2941 H2953 0.930 . S
C2942 C2938 1.524 . S
C2942 H2954 0.956 . S
C2942 H2955 0.961 . S
C2942 H2956 0.961 . S
C2943 C2940 1.539 . S
C2943 H2957 0.958 . S
C2943 H2958 0.961 . S
C2943 H2959 0.960 . S
H2944 C2928 0.931 . S
H2945 C2933 0.929 . S
H2946 C2934 0.960 . S
H2947 C2934 0.962 . S
H2948 C2934 0.960 . S
H2949 C2935 0.961 . S
H2950 C2935 0.961 . S
H2951 C2935 0.961 . S
H2952 C2936 0.931 . S
H2953 C2941 0.930 . S
H2954 C2942 0.956 . S
H2955 C2942 0.961 . S
H2956 C2942 0.961 . S
H2957 C2943 0.958 . S
H2958 C2943 0.961 . S
H2959 C2943 0.960 . S
C2960 C2961 1.391 . S
C2960 C2962 1.394 . S
C2960 H2976 0.931 1_554 S
C2961 C2960 1.391 . S
C2961 C2965 1.376 . S
C2962 C2960 1.394 . S
C2962 C2963 1.369 . S
C2962 C2966 1.531 1_554 S
C2963 C2962 1.369 . S
C2963 C2964 1.410 . S
C2963 C2971 1.503 . S
C2964 C2963 1.410 . S
C2964 C2965 1.392 . S
C2964 C2967 1.511 . S
C2965 C2961 1.376 . S
C2965 C2964 1.392 . S
C2965 H2977 0.929 . S
C2966 C2962 1.531 1_556 S
C2966 H2978 0.960 . S
C2966 H2979 0.962 . S
C2966 H2980 0.960 . S
C2967 C2964 1.511 . S
C2967 H2981 0.961 . S
C2967 H2982 0.961 . S
C2967 H2983 0.961 . S
C2968 C2969 1.370 . S
C2968 C2970 1.363 . S
C2968 H2984 0.931 . S
C2969 C2968 1.370 . S
C2969 C2973 1.408 1_554 S
C2970 C2968 1.363 . S
C2970 C2971 1.370 . S
C2970 C2974 1.524 . S
C2971 C2963 1.503 . S
C2971 C2970 1.370 . S
C2971 C2972 1.403 1_554 S
C2972 C2971 1.403 1_556 S
C2972 C2973 1.404 . S
C2972 C2975 1.539 . S
C2973 C2969 1.408 1_556 S
C2973 C2972 1.404 . S
C2973 H2985 0.930 . S
C2974 C2970 1.524 . S
C2974 H2986 0.956 . S
C2974 H2987 0.961 . S
C2974 H2988 0.961 . S
C2975 C2972 1.539 . S
C2975 H2989 0.958 . S
C2975 H2990 0.961 . S
C2975 H2991 0.960 . S
H2976 C2960 0.931 1_556 S
H2977 C2965 0.929 . S
H2978 C2966 0.960 . S
H2979 C2966 0.962 . S
H2980 C2966 0.960 . S
H2981 C2967 0.961 . S
H2982 C2967 0.961 . S
H2983 C2967 0.961 . S
H2984 C2968 0.931 . S
H2985 C2973 0.930 . S
H2986 C2974 0.956 . S
H2987 C2974 0.961 . S
H2988 C2974 0.961 . S
H2989 C2975 0.958 . S
H2990 C2975 0.961 . S
H2991 C2975 0.960 . S
C2992 C2993 1.391 . S
C2992 C2994 1.394 . S
C2992 H3008 0.931 . S
C2993 C2992 1.391 . S
C2993 C2997 1.376 . S
C2994 C2992 1.394 . S
C2994 C2995 1.369 . S
C2994 C2998 1.531 . S
C2995 C2994 1.369 . S
C2995 C2996 1.410 . S
C2995 C3003 1.503 . S
C2996 C2995 1.410 . S
C2996 C2997 1.392 . S
C2996 C2999 1.511 . S
C2997 C2993 1.376 . S
C2997 C2996 1.392 . S
C2997 H3009 0.929 . S
C2998 C2994 1.531 . S
C2998 H3010 0.960 . S
C2998 H3011 0.962 . S
C2998 H3012 0.960 . S
C2999 C2996 1.511 . S
C2999 H3013 0.961 . S
C2999 H3014 0.961 . S
C2999 H3015 0.961 1_554 S
C3000 C3001 1.370 . S
C3000 C3002 1.363 . S
C3000 H3016 0.931 . S
C3001 C3000 1.370 . S
C3001 C3005 1.408 . S
C3002 C3000 1.363 . S
C3002 C3003 1.370 . S
C3002 C3006 1.524 . S
C3003 C2995 1.503 . S
C3003 C3002 1.370 . S
C3003 C3004 1.403 . S
C3004 C3003 1.403 . S
C3004 C3005 1.404 . S
C3004 C3007 1.539 1_554 S
C3005 C3001 1.408 . S
C3005 C3004 1.404 . S
C3005 H3017 0.930 . S
C3006 C3002 1.524 . S
C3006 H3018 0.956 . S
C3006 H3019 0.961 . S
C3006 H3020 0.961 . S
C3007 C3004 1.539 1_556 S
C3007 H3021 0.958 . S
C3007 H3022 0.961 . S
C3007 H3023 0.960 . S
H3008 C2992 0.931 . S
H3009 C2997 0.929 . S
H3010 C2998 0.960 . S
H3011 C2998 0.962 . S
H3012 C2998 0.960 . S
H3013 C2999 0.961 . S
H3014 C2999 0.961 . S
H3015 C2999 0.961 1_556 S
H3016 C3000 0.931 . S
H3017 C3005 0.930 . S
H3018 C3006 0.956 . S
H3019 C3006 0.961 . S
H3020 C3006 0.961 . S
H3021 C3007 0.958 . S
H3022 C3007 0.961 . S
H3023 C3007 0.960 . S
C3024 C3025 1.391 . S
C3024 C3026 1.394 . S
C3024 H3040 0.931 . S
C3025 C3024 1.391 . S
C3025 C3029 1.376 . S
C3026 C3024 1.394 . S
C3026 C3027 1.369 . S
C3026 C3030 1.531 . S
C3027 C3026 1.369 . S
C3027 C3028 1.410 . S
C3027 C3035 1.503 . S
C3028 C3027 1.410 . S
C3028 C3029 1.392 . S
C3028 C3031 1.511 . S
C3029 C3025 1.376 . S
C3029 C3028 1.392 . S
C3029 H3041 0.929 . S
C3030 C3026 1.531 . S
C3030 H3042 0.960 . S
C3030 H3043 0.962 . S
C3030 H3044 0.960 . S
C3031 C3028 1.511 . S
C3031 H3045 0.961 . S
C3031 H3046 0.961 . S
C3031 H3047 0.961 . S
C3032 C3033 1.370 . S
C3032 C3034 1.363 . S
C3032 H3048 0.931 . S
C3033 C3032 1.370 . S
C3033 C3037 1.408 . S
C3034 C3032 1.363 . S
C3034 C3035 1.370 . S
C3034 C3038 1.524 . S
C3035 C3027 1.503 . S
C3035 C3034 1.370 . S
C3035 C3036 1.403 . S
C3036 C3035 1.403 . S
C3036 C3037 1.404 . S
C3036 C3039 1.539 . S
C3037 C3033 1.408 . S
C3037 C3036 1.404 . S
C3037 H3049 0.930 . S
C3038 C3034 1.524 . S
C3038 H3050 0.956 . S
C3038 H3051 0.961 . S
C3038 H3052 0.961 . S
C3039 C3036 1.539 . S
C3039 H3053 0.958 . S
C3039 H3054 0.961 . S
C3039 H3055 0.960 . S
H3040 C3024 0.931 . S
H3041 C3029 0.929 . S
H3042 C3030 0.960 . S
H3043 C3030 0.962 . S
H3044 C3030 0.960 . S
H3045 C3031 0.961 . S
H3046 C3031 0.961 . S
H3047 C3031 0.961 . S
H3048 C3032 0.931 . S
H3049 C3037 0.930 . S
H3050 C3038 0.956 . S
H3051 C3038 0.961 . S
H3052 C3038 0.961 . S
H3053 C3039 0.958 . S
H3054 C3039 0.961 . S
H3055 C3039 0.960 . S
C3056 C3057 1.391 . S
C3056 C3058 1.394 . S
C3056 H3072 0.931 . S
C3057 C3056 1.391 . S
C3057 C3061 1.376 . S
C3058 C3056 1.394 . S
C3058 C3059 1.369 . S
C3058 C3062 1.531 . S
C3059 C3058 1.369 . S
C3059 C3060 1.410 . S
C3059 C3067 1.503 . S
C3060 C3059 1.410 . S
C3060 C3061 1.392 . S
C3060 C3063 1.511 . S
C3061 C3057 1.376 . S
C3061 C3060 1.392 . S
C3061 H3073 0.929 . S
C3062 C3058 1.531 . S
C3062 H3074 0.960 . S
C3062 H3075 0.962 . S
C3062 H3076 0.960 . S
C3063 C3060 1.511 . S
C3063 H3077 0.961 . S
C3063 H3078 0.961 . S
C3063 H3079 0.961 . S
C3064 C3065 1.370 . S
C3064 C3066 1.363 . S
C3064 H3080 0.931 . S
C3065 C3064 1.370 . S
C3065 C3069 1.408 . S
C3066 C3064 1.363 . S
C3066 C3067 1.370 . S
C3066 C3070 1.524 . S
C3067 C3059 1.503 . S
C3067 C3066 1.370 . S
C3067 C3068 1.403 . S
C3068 C3067 1.403 . S
C3068 C3069 1.404 . S
C3068 C3071 1.539 . S
C3069 C3065 1.408 . S
C3069 C3068 1.404 . S
C3069 H3081 0.930 . S
C3070 C3066 1.524 . S
C3070 H3082 0.956 . S
C3070 H3083 0.961 . S
C3070 H3084 0.961 . S
C3071 C3068 1.539 . S
C3071 H3085 0.958 . S
C3071 H3086 0.961 . S
C3071 H3087 0.960 . S
H3072 C3056 0.931 . S
H3073 C3061 0.929 . S
H3074 C3062 0.960 . S
H3075 C3062 0.962 . S
H3076 C3062 0.960 . S
H3077 C3063 0.961 . S
H3078 C3063 0.961 . S
H3079 C3063 0.961 . S
H3080 C3064 0.931 . S
H3081 C3069 0.930 . S
H3082 C3070 0.956 . S
H3083 C3070 0.961 . S
H3084 C3070 0.961 . S
H3085 C3071 0.958 . S
H3086 C3071 0.961 . S
H3087 C3071 0.960 . S
C3088 C3089 1.390 . S
C3088 C3090 1.405 . S
C3088 H3104 0.920 1_565 S
C3089 C3088 1.390 . S
C3089 C3093 1.376 . S
C3090 C3088 1.405 . S
C3090 C3091 1.369 . S
C3090 C3094 1.531 . S
C3091 C3090 1.369 . S
C3091 C3092 1.410 . S
C3091 C3099 1.503 . S
C3092 C3091 1.410 . S
C3092 C3093 1.392 . S
C3092 C3095 1.511 . S
C3093 C3089 1.376 . S
C3093 C3092 1.392 . S
C3093 H3105 0.929 . S
C3094 C3090 1.531 . S
C3094 H3106 0.960 . S
C3094 H3107 0.962 . S
C3094 H3108 0.960 1_565 S
C3095 C3092 1.511 . S
C3095 H3109 0.961 . S
C3095 H3110 0.961 . S
C3095 H3111 0.961 . S
C3096 C3097 1.370 . S
C3096 C3098 1.363 . S
C3096 H3112 0.931 . S
C3097 C3096 1.370 . S
C3097 C3101 1.408 . S
C3098 C3096 1.363 . S
C3098 C3099 1.370 . S
C3098 C3102 1.524 . S
C3099 C3091 1.503 . S
C3099 C3098 1.370 . S
C3099 C3100 1.403 . S
C3100 C3099 1.403 . S
C3100 C3101 1.404 . S
C3100 C3103 1.539 . S
C3101 C3097 1.408 . S
C3101 C3100 1.404 . S
C3101 H3113 0.930 . S
C3102 C3098 1.524 . S
C3102 H3114 0.956 . S
C3102 H3115 0.961 . S
C3102 H3116 0.961 . S
C3103 C3100 1.539 . S
C3103 H3117 0.958 . S
C3103 H3118 0.961 . S
C3103 H3119 0.960 . S
H3104 C3088 0.920 1_545 S
H3105 C3093 0.929 . S
H3106 C3094 0.960 . S
H3107 C3094 0.962 . S
H3108 C3094 0.960 1_545 S
H3109 C3095 0.961 . S
H3110 C3095 0.961 . S
H3111 C3095 0.961 . S
H3112 C3096 0.931 . S
H3113 C3101 0.930 . S
H3114 C3102 0.956 . S
H3115 C3102 0.961 . S
H3116 C3102 0.961 . S
H3117 C3103 0.958 . S
H3118 C3103 0.961 . S
H3119 C3103 0.960 . S
C3120 C3121 1.391 . S
C3120 C3122 1.394 . S
C3120 H3136 0.931 . S
C3121 C3120 1.391 . S
C3121 C3125 1.376 . S
C3122 C3120 1.394 . S
C3122 C3123 1.369 . S
C3122 C3126 1.531 . S
C3123 C3122 1.369 . S
C3123 C3124 1.410 . S
C3123 C3131 1.503 . S
C3124 C3123 1.410 . S
C3124 C3125 1.392 . S
C3124 C3127 1.511 . S
C3125 C3121 1.376 . S
C3125 C3124 1.392 . S
C3125 H3137 0.929 . S
C3126 C3122 1.531 . S
C3126 H3138 0.960 . S
C3126 H3139 0.962 . S
C3126 H3140 0.960 . S
C3127 C3124 1.511 . S
C3127 H3141 0.961 . S
C3127 H3142 0.961 . S
C3127 H3143 0.961 . S
C3128 C3129 1.370 . S
C3128 C3130 1.363 . S
C3128 H3144 0.931 . S
C3129 C3128 1.370 . S
C3129 C3133 1.408 . S
C3130 C3128 1.363 . S
C3130 C3131 1.370 . S
C3130 C3134 1.524 . S
C3131 C3123 1.503 . S
C3131 C3130 1.370 . S
C3131 C3132 1.403 . S
C3132 C3131 1.403 . S
C3132 C3133 1.404 . S
C3132 C3135 1.539 . S
C3133 C3129 1.408 . S
C3133 C3132 1.404 . S
C3133 H3145 0.943 . S
C3134 C3130 1.524 . S
C3134 H3146 0.956 . S
C3134 H3147 0.961 . S
C3134 H3148 0.961 . S
C3135 C3132 1.539 . S
C3135 H3149 0.958 . S
C3135 H3150 0.988 . S
C3135 H3151 0.960 . S
H3136 C3120 0.931 . S
H3137 C3125 0.929 . S
H3138 C3126 0.960 . S
H3139 C3126 0.962 . S
H3140 C3126 0.960 . S
H3141 C3127 0.961 . S
H3142 C3127 0.961 . S
H3143 C3127 0.961 . S
H3144 C3128 0.931 . S
H3145 C3133 0.943 . S
H3146 C3134 0.956 . S
H3147 C3134 0.961 . S
H3148 C3134 0.961 . S
H3149 C3135 0.958 . S
H3150 C3135 0.988 . S
H3151 C3135 0.960 . S
C3152 C3153 1.391 . S
C3152 C3154 1.394 . S
C3152 H3168 0.931 . S
C3153 C3152 1.391 . S
C3153 C3157 1.376 . S
C3154 C3152 1.394 . S
C3154 C3155 1.369 . S
C3154 C3158 1.531 . S
C3155 C3154 1.369 . S
C3155 C3156 1.410 . S
C3155 C3163 1.503 . S
C3156 C3155 1.410 . S
C3156 C3157 1.392 . S
C3156 C3159 1.511 . S
C3157 C3153 1.376 . S
C3157 C3156 1.392 . S
C3157 H3169 0.929 . S
C3158 C3154 1.531 . S
C3158 H3170 0.960 . S
C3158 H3171 0.962 . S
C3158 H3172 0.960 . S
C3159 C3156 1.511 . S
C3159 H3173 0.961 . S
C3159 H3174 0.961 . S
C3159 H3175 0.961 . S
C3160 C3161 1.370 . S
C3160 C3162 1.363 . S
C3160 H3176 0.931 . S
C3161 C3160 1.370 . S
C3161 C3165 1.408 . S
C3162 C3160 1.363 . S
C3162 C3163 1.370 . S
C3162 C3166 1.524 . S
C3163 C3155 1.503 . S
C3163 C3162 1.370 . S
C3163 C3164 1.403 . S
C3164 C3163 1.403 . S
C3164 C3165 1.404 . S
C3164 C3167 1.539 . S
C3165 C3161 1.408 . S
C3165 C3164 1.404 . S
C3165 H3177 0.930 . S
C3166 C3162 1.524 . S
C3166 H3178 0.956 . S
C3166 H3179 0.961 . S
C3166 H3180 0.961 . S
C3167 C3164 1.539 . S
C3167 H3181 0.958 . S
C3167 H3182 0.961 . S
C3167 H3183 0.960 . S
H3168 C3152 0.931 . S
H3169 C3157 0.929 . S
H3170 C3158 0.960 . S
H3171 C3158 0.962 . S
H3172 C3158 0.960 . S
H3173 C3159 0.961 . S
H3174 C3159 0.961 . S
H3175 C3159 0.961 . S
H3176 C3160 0.931 . S
H3177 C3165 0.930 . S
H3178 C3166 0.956 . S
H3179 C3166 0.961 . S
H3180 C3166 0.961 . S
H3181 C3167 0.958 . S
H3182 C3167 0.961 . S
H3183 C3167 0.960 . S
C3184 C3185 1.391 . S
C3184 C3186 1.394 . S
C3184 H3200 0.931 . S
C3185 C3184 1.391 . S
C3185 C3189 1.376 . S
C3186 C3184 1.394 . S
C3186 C3187 1.369 . S
C3186 C3190 1.531 . S
C3187 C3186 1.369 . S
C3187 C3188 1.410 . S
C3187 C3195 1.503 . S
C3188 C3187 1.410 . S
C3188 C3189 1.392 . S
C3188 C3191 1.511 . S
C3189 C3185 1.376 . S
C3189 C3188 1.392 . S
C3189 H3201 0.929 . S
C3190 C3186 1.531 . S
C3190 H3202 0.960 . S
C3190 H3203 0.962 . S
C3190 H3204 0.960 . S
C3191 C3188 1.511 . S
C3191 H3205 0.961 . S
C3191 H3206 0.961 . S
C3191 H3207 0.961 . S
C3192 C3193 1.370 . S
C3192 C3194 1.363 . S
C3192 H3208 0.931 . S
C3193 C3192 1.370 . S
C3193 C3197 1.408 . S
C3194 C3192 1.363 . S
C3194 C3195 1.370 . S
C3194 C3198 1.524 . S
C3195 C3187 1.503 . S
C3195 C3194 1.370 . S
C3195 C3196 1.403 . S
C3196 C3195 1.403 . S
C3196 C3197 1.404 . S
C3196 C3199 1.539 . S
C3197 C3193 1.408 . S
C3197 C3196 1.404 . S
C3197 H3209 0.930 . S
C3198 C3194 1.524 . S
C3198 H3210 0.956 . S
C3198 H3211 0.961 . S
C3198 H3212 0.961 . S
C3199 C3196 1.539 . S
C3199 H3213 0.958 . S
C3199 H3214 0.961 . S
C3199 H3215 0.960 . S
H3200 C3184 0.931 . S
H3201 C3189 0.929 . S
H3202 C3190 0.960 . S
H3203 C3190 0.962 . S
H3204 C3190 0.960 . S
H3205 C3191 0.961 . S
H3206 C3191 0.961 . S
H3207 C3191 0.961 . S
H3208 C3192 0.931 . S
H3209 C3197 0.930 . S
H3210 C3198 0.956 . S
H3211 C3198 0.961 . S
H3212 C3198 0.961 . S
H3213 C3199 0.958 . S
H3214 C3199 0.961 . S
H3215 C3199 0.960 . S
C3216 C3217 1.391 . S
C3216 C3218 1.394 . S
C3216 H3232 0.931 . S
C3217 C3216 1.391 . S
C3217 C3221 1.376 . S
C3218 C3216 1.394 . S
C3218 C3219 1.369 . S
C3218 C3222 1.531 . S
C3219 C3218 1.369 . S
C3219 C3220 1.410 . S
C3219 C3227 1.503 . S
C3220 C3219 1.410 . S
C3220 C3221 1.392 . S
C3220 C3223 1.511 . S
C3221 C3217 1.376 . S
C3221 C3220 1.392 . S
C3221 H3233 0.929 . S
C3222 C3218 1.531 . S
C3222 H3234 0.960 . S
C3222 H3235 0.962 . S
C3222 H3236 0.960 . S
C3223 C3220 1.511 . S
C3223 H3237 0.961 . S
C3223 H3238 0.961 . S
C3223 H3239 0.961 . S
C3224 C3225 1.370 . S
C3224 C3226 1.363 . S
C3224 H3240 0.931 . S
C3225 C3224 1.370 . S
C3225 C3229 1.408 . S
C3226 C3224 1.363 . S
C3226 C3227 1.370 . S
C3226 C3230 1.524 . S
C3227 C3219 1.503 . S
C3227 C3226 1.370 . S
C3227 C3228 1.403 . S
C3228 C3227 1.403 . S
C3228 C3229 1.404 . S
C3228 C3231 1.539 . S
C3229 C3225 1.408 . S
C3229 C3228 1.404 . S
C3229 H3241 0.930 . S
C3230 C3226 1.524 . S
C3230 H3242 0.956 . S
C3230 H3243 0.961 . S
C3230 H3244 0.961 . S
C3231 C3228 1.539 . S
C3231 H3245 0.958 . S
C3231 H3246 0.961 . S
C3231 H3247 0.960 . S
H3232 C3216 0.931 . S
H3233 C3221 0.929 . S
H3234 C3222 0.960 . S
H3235 C3222 0.962 . S
H3236 C3222 0.960 . S
H3237 C3223 0.961 . S
H3238 C3223 0.961 . S
H3239 C3223 0.961 . S
H3240 C3224 0.931 . S
H3241 C3229 0.930 . S
H3242 C3230 0.956 . S
H3243 C3230 0.961 . S
H3244 C3230 0.961 . S
H3245 C3231 0.958 . S
H3246 C3231 0.961 . S
H3247 C3231 0.960 . S
C3248 C3249 1.391 . S
C3248 C3250 1.394 . S
C3248 H3264 0.931 . S
C3249 C3248 1.391 . S
C3249 C3253 1.376 . S
C3250 C3248 1.394 . S
C3250 C3251 1.369 . S
C3250 C3254 1.531 . S
C3251 C3250 1.369 . S
C3251 C3252 1.410 . S
C3251 C3259 1.503 . S
C3252 C3251 1.410 . S
C3252 C3253 1.392 . S
C3252 C3255 1.511 . S
C3253 C3249 1.376 . S
C3253 C3252 1.392 . S
C3253 H3265 0.929 . S
C3254 C3250 1.531 . S
C3254 H3266 0.960 . S
C3254 H3267 0.962 . S
C3254 H3268 0.960 . S
C3255 C3252 1.511 . S
C3255 H3269 0.961 . S
C3255 H3270 0.961 . S
C3255 H3271 0.961 . S
C3256 C3257 1.370 . S
C3256 C3258 1.363 . S
C3256 H3272 0.931 . S
C3257 C3256 1.370 . S
C3257 C3261 1.408 . S
C3258 C3256 1.363 . S
C3258 C3259 1.370 . S
C3258 C3262 1.524 . S
C3259 C3251 1.503 . S
C3259 C3258 1.370 . S
C3259 C3260 1.403 . S
C3260 C3259 1.403 . S
C3260 C3261 1.404 . S
C3260 C3263 1.539 . S
C3261 C3257 1.408 . S
C3261 C3260 1.404 . S
C3261 H3273 0.930 . S
C3262 C3258 1.524 . S
C3262 H3274 0.956 . S
C3262 H3275 0.961 . S
C3262 H3276 0.961 . S
C3263 C3260 1.539 . S
C3263 H3277 0.958 . S
C3263 H3278 0.961 . S
C3263 H3279 0.960 . S
H3264 C3248 0.931 . S
H3265 C3253 0.929 . S
H3266 C3254 0.960 . S
H3267 C3254 0.962 . S
H3268 C3254 0.960 . S
H3269 C3255 0.961 . S
H3270 C3255 0.961 . S
H3271 C3255 0.961 . S
H3272 C3256 0.931 . S
H3273 C3261 0.930 . S
H3274 C3262 0.956 . S
H3275 C3262 0.961 . S
H3276 C3262 0.961 . S
H3277 C3263 0.958 . S
H3278 C3263 0.961 . S
H3279 C3263 0.960 . S
C3280 C3281 1.391 . S
C3280 C3282 1.394 . S
C3280 H3296 0.931 . S
C3281 C3280 1.391 . S
C3281 C3285 1.376 . S
C3282 C3280 1.394 . S
C3282 C3283 1.369 . S
C3282 C3286 1.531 1_556 S
C3283 C3282 1.369 . S
C3283 C3284 1.410 . S
C3283 C3291 1.504 . S
C3284 C3283 1.410 . S
C3284 C3285 1.392 . S
C3284 C3287 1.511 . S
C3285 C3281 1.376 . S
C3285 C3284 1.392 . S
C3285 H3297 0.929 . S
C3286 C3282 1.531 1_554 S
C3286 H3298 0.960 . S
C3286 H3299 0.962 1_455 S
C3286 H3300 0.960 1_455 S
C3287 C3284 1.511 . S
C3287 H3301 0.961 . S
C3287 H3302 0.961 . S
C3287 H3303 0.961 . S
C3288 C3289 1.370 1_556 S
C3288 C3290 1.363 . S
C3288 H3304 0.931 . S
C3289 C3288 1.370 1_554 S
C3289 C3293 1.408 . S
C3290 C3288 1.363 . S
C3290 C3291 1.378 . S
C3290 C3294 1.524 . S
C3291 C3283 1.504 . S
C3291 C3290 1.378 . S
C3291 C3292 1.394 1_556 S
C3292 C3291 1.394 1_554 S
C3292 C3293 1.404 . S
C3292 C3295 1.539 . S
C3293 C3289 1.408 . S
C3293 C3292 1.404 . S
C3293 H3305 0.930 . S
C3294 C3290 1.524 . S
C3294 H3306 0.956 . S
C3294 H3307 0.961 . S
C3294 H3308 0.961 . S
C3295 C3292 1.539 . S
C3295 H3309 0.958 . S
C3295 H3310 0.961 . S
C3295 H3311 0.960 . S
H3296 C3280 0.931 . S
H3297 C3285 0.929 . S
H3298 C3286 0.960 . S
H3299 C3286 0.962 1_655 S
H3300 C3286 0.960 1_655 S
H3301 C3287 0.961 . S
H3302 C3287 0.961 . S
H3303 C3287 0.961 . S
H3304 C3288 0.931 . S
H3305 C3293 0.930 . S
H3306 C3294 0.956 . S
H3307 C3294 0.961 . S
H3308 C3294 0.961 . S
H3309 C3295 0.958 . S
H3310 C3295 0.961 . S
H3311 C3295 0.960 . S
C3312 C3313 1.391 . S
C3312 C3314 1.394 . S
C3312 H3328 0.931 . S
C3313 C3312 1.391 . S
C3313 C3317 1.376 . S
C3314 C3312 1.394 . S
C3314 C3315 1.369 1_455 S
C3314 C3318 1.531 . S
C3315 C3314 1.369 1_655 S
C3315 C3316 1.410 . S
C3315 C3323 1.503 . S
C3316 C3315 1.410 . S
C3316 C3317 1.392 1_655 S
C3316 C3319 1.511 . S
C3317 C3313 1.376 . S
C3317 C3316 1.392 1_455 S
C3317 H3329 0.929 . S
C3318 C3314 1.531 . S
C3318 H3330 0.960 . S
C3318 H3331 0.962 . S
C3318 H3332 0.960 . S
C3319 C3316 1.511 . S
C3319 H3333 0.961 . S
C3319 H3334 0.961 . S
C3319 H3335 0.961 . S
C3320 C3321 1.370 . S
C3320 C3322 1.363 . S
C3320 H3336 0.931 . S
C3321 C3320 1.370 . S
C3321 C3325 1.408 . S
C3322 C3320 1.363 . S
C3322 C3323 1.370 . S
C3322 C3326 1.524 . S
C3323 C3315 1.503 . S
C3323 C3322 1.370 . S
C3323 C3324 1.403 . S
C3324 C3323 1.403 . S
C3324 C3325 1.404 . S
C3324 C3327 1.539 . S
C3325 C3321 1.408 . S
C3325 C3324 1.404 . S
C3325 H3337 0.930 . S
C3326 C3322 1.524 . S
C3326 H3338 0.956 . S
C3326 H3339 0.961 . S
C3326 H3340 0.961 . S
C3327 C3324 1.539 . S
C3327 H3341 0.958 1_655 S
C3327 H3342 0.961 . S
C3327 H3343 0.961 . S
H3328 C3312 0.931 . S
H3329 C3317 0.929 . S
H3330 C3318 0.960 . S
H3331 C3318 0.962 . S
H3332 C3318 0.960 . S
H3333 C3319 0.961 . S
H3334 C3319 0.961 . S
H3335 C3319 0.961 . S
H3336 C3320 0.931 . S
H3337 C3325 0.930 . S
H3338 C3326 0.956 . S
H3339 C3326 0.961 . S
H3340 C3326 0.961 . S
H3341 C3327 0.958 1_455 S
H3342 C3327 0.961 . S
H3343 C3327 0.961 . S
C3344 C3345 1.391 . S
C3344 C3346 1.394 . S
C3344 H3360 0.931 . S
C3345 C3344 1.391 . S
C3345 C3349 1.376 . S
C3346 C3344 1.394 . S
C3346 C3347 1.369 . S
C3346 C3350 1.531 . S
C3347 C3346 1.369 . S
C3347 C3348 1.410 . S
C3347 C3355 1.503 . S
C3348 C3347 1.410 . S
C3348 C3349 1.392 . S
C3348 C3351 1.511 . S
C3349 C3345 1.376 . S
C3349 C3348 1.392 . S
C3349 H3361 0.929 . S
C3350 C3346 1.531 . S
C3350 H3362 0.960 . S
C3350 H3363 0.962 . S
C3350 H3364 0.960 . S
C3351 C3348 1.511 . S
C3351 H3365 0.961 . S
C3351 H3366 0.961 . S
C3351 H3367 0.961 . S
C3352 C3353 1.370 . S
C3352 C3354 1.363 . S
C3352 H3368 0.931 . S
C3353 C3352 1.370 . S
C3353 C3357 1.408 . S
C3354 C3352 1.363 . S
C3354 C3355 1.370 . S
C3354 C3358 1.524 . S
C3355 C3347 1.503 . S
C3355 C3354 1.370 . S
C3355 C3356 1.403 . S
C3356 C3355 1.403 . S
C3356 C3357 1.404 . S
C3356 C3359 1.539 . S
C3357 C3353 1.408 . S
C3357 C3356 1.404 . S
C3357 H3369 0.930 . S
C3358 C3354 1.524 . S
C3358 H3370 0.956 . S
C3358 H3371 0.961 . S
C3358 H3372 0.961 . S
C3359 C3356 1.539 . S
C3359 H3373 0.958 . S
C3359 H3374 0.961 . S
C3359 H3375 0.960 . S
H3360 C3344 0.931 . S
H3361 C3349 0.929 . S
H3362 C3350 0.960 . S
H3363 C3350 0.962 . S
H3364 C3350 0.960 . S
H3365 C3351 0.961 . S
H3366 C3351 0.961 . S
H3367 C3351 0.961 . S
H3368 C3352 0.931 . S
H3369 C3357 0.930 . S
H3370 C3358 0.956 . S
H3371 C3358 0.961 . S
H3372 C3358 0.961 . S
H3373 C3359 0.958 . S
H3374 C3359 0.961 . S
H3375 C3359 0.960 . S
C3376 C3377 1.391 . S
C3376 C3378 1.394 . S
C3376 H3392 0.931 . S
C3377 C3376 1.391 . S
C3377 C3381 1.376 . S
C3378 C3376 1.394 . S
C3378 C3379 1.369 . S
C3378 C3382 1.531 1_455 S
C3379 C3378 1.369 . S
C3379 C3380 1.410 . S
C3379 C3387 1.503 1_455 S
C3380 C3379 1.410 . S
C3380 C3381 1.392 . S
C3380 C3383 1.511 . S
C3381 C3377 1.376 . S
C3381 C3380 1.392 . S
C3381 H3393 0.929 . S
C3382 C3378 1.531 1_655 S
C3382 H3394 0.960 . S
C3382 H3395 0.962 . S
C3382 H3396 0.960 1_655 S
C3383 C3380 1.511 . S
C3383 H3397 0.961 . S
C3383 H3398 0.961 . S
C3383 H3399 0.961 . S
C3384 C3385 1.370 . S
C3384 C3386 1.363 . S
C3384 H3400 0.931 . S
C3385 C3384 1.370 . S
C3385 C3389 1.408 . S
C3386 C3384 1.363 . S
C3386 C3387 1.370 . S
C3386 C3390 1.524 . S
C3387 C3379 1.503 1_655 S
C3387 C3386 1.370 . S
C3387 C3388 1.403 . S
C3388 C3387 1.403 . S
C3388 C3389 1.404 . S
C3388 C3391 1.539 . S
C3389 C3385 1.408 . S
C3389 C3388 1.404 . S
C3389 H3401 0.930 . S
C3390 C3386 1.524 . S
C3390 H3402 0.956 . S
C3390 H3403 0.961 1_655 S
C3390 H3404 0.961 . S
C3391 C3388 1.539 . S
C3391 H3405 0.958 . S
C3391 H3406 0.961 . S
C3391 H3407 0.960 1_655 S
H3392 C3376 0.931 . S
H3393 C3381 0.929 . S
H3394 C3382 0.960 . S
H3395 C3382 0.962 . S
H3396 C3382 0.960 1_455 S
H3397 C3383 0.961 . S
H3398 C3383 0.961 . S
H3399 C3383 0.961 . S
H3400 C3384 0.931 . S
H3401 C3389 0.930 . S
H3402 C3390 0.956 . S
H3403 C3390 0.961 1_455 S
H3404 C3390 0.961 . S
H3405 C3391 0.958 . S
H3406 C3391 0.961 . S
H3407 C3391 0.960 1_455 S
C3408 C3409 1.391 1_455 S
C3408 C3410 1.394 . S
C3408 H3424 0.931 . S
C3409 C3408 1.391 1_655 S
C3409 C3413 1.376 . S
C3410 C3408 1.394 . S
C3410 C3411 1.369 . S
C3410 C3414 1.531 . S
C3411 C3410 1.369 . S
C3411 C3412 1.410 . S
C3411 C3419 1.503 . S
C3412 C3411 1.410 . S
C3412 C3413 1.392 1_455 S
C3412 C3415 1.511 1_455 S
C3413 C3409 1.376 . S
C3413 C3412 1.392 1_655 S
C3413 H3425 0.929 . S
C3414 C3410 1.531 . S
C3414 H3426 0.960 . S
C3414 H3427 0.962 . S
C3414 H3428 0.960 . S
C3415 C3412 1.511 1_655 S
C3415 H3429 0.961 . S
C3415 H3430 0.961 . S
C3415 H3431 0.961 1_655 S
C3416 C3417 1.370 . S
C3416 C3418 1.363 . S
C3416 H3432 0.931 . S
C3417 C3416 1.370 . S
C3417 C3421 1.408 . S
C3418 C3416 1.363 . S
C3418 C3419 1.370 . S
C3418 C3422 1.524 1_455 S
C3419 C3411 1.503 . S
C3419 C3418 1.370 . S
C3419 C3420 1.403 . S
C3420 C3419 1.403 . S
C3420 C3421 1.404 . S
C3420 C3423 1.539 . S
C3421 C3417 1.408 . S
C3421 C3420 1.404 . S
C3421 H3433 0.930 . S
C3422 C3418 1.524 1_655 S
C3422 H3434 0.956 . S
C3422 H3435 0.961 . S
C3422 H3436 0.961 . S
C3423 C3420 1.539 . S
C3423 H3437 0.958 . S
C3423 H3438 0.961 . S
C3423 H3439 0.960 . S
H3424 C3408 0.931 . S
H3425 C3413 0.929 . S
H3426 C3414 0.960 . S
H3427 C3414 0.962 . S
H3428 C3414 0.960 . S
H3429 C3415 0.961 . S
H3430 C3415 0.961 . S
H3431 C3415 0.961 1_455 S
H3432 C3416 0.931 . S
H3433 C3421 0.930 . S
H3434 C3422 0.956 . S
H3435 C3422 0.961 . S
H3436 C3422 0.961 . S
H3437 C3423 0.958 . S
H3438 C3423 0.961 . S
H3439 C3423 0.960 . S
C3440 C3441 1.391 . S
C3440 C3442 1.394 . S
C3440 H3456 0.931 . S
C3441 C3440 1.391 . S
C3441 C3445 1.376 . S
C3442 C3440 1.394 . S
C3442 C3443 1.369 . S
C3442 C3446 1.531 . S
C3443 C3442 1.369 . S
C3443 C3444 1.410 . S
C3443 C3451 1.503 . S
C3444 C3443 1.410 . S
C3444 C3445 1.392 . S
C3444 C3447 1.511 . S
C3445 C3441 1.376 . S
C3445 C3444 1.392 . S
C3445 H3457 0.929 . S
C3446 C3442 1.531 . S
C3446 H3458 0.960 . S
C3446 H3459 0.962 . S
C3446 H3460 0.960 . S
C3447 C3444 1.511 . S
C3447 H3461 0.961 . S
C3447 H3462 0.961 . S
C3447 H3463 0.961 . S
C3448 C3449 1.370 . S
C3448 C3450 1.363 . S
C3448 H3464 0.931 . S
C3449 C3448 1.370 . S
C3449 C3453 1.408 . S
C3450 C3448 1.363 . S
C3450 C3451 1.370 . S
C3450 C3454 1.524 . S
C3451 C3443 1.503 . S
C3451 C3450 1.370 . S
C3451 C3452 1.403 . S
C3452 C3451 1.403 . S
C3452 C3453 1.404 . S
C3452 C3455 1.539 . S
C3453 C3449 1.408 . S
C3453 C3452 1.404 . S
C3453 H3465 0.930 . S
C3454 C3450 1.524 . S
C3454 H3466 0.956 . S
C3454 H3467 0.961 . S
C3454 H3468 0.961 . S
C3455 C3452 1.539 . S
C3455 H3469 0.958 . S
C3455 H3470 0.961 . S
C3455 H3471 0.960 . S
H3456 C3440 0.931 . S
H3457 C3445 0.929 . S
H3458 C3446 0.960 . S
H3459 C3446 0.962 . S
H3460 C3446 0.960 . S
H3461 C3447 0.961 . S
H3462 C3447 0.961 . S
H3463 C3447 0.961 . S
H3464 C3448 0.931 . S
H3465 C3453 0.930 . S
H3466 C3454 0.956 . S
H3467 C3454 0.961 . S
H3468 C3454 0.961 . S
H3469 C3455 0.958 . S
H3470 C3455 0.961 . S
H3471 C3455 0.960 . S
C3472 C3473 1.391 . S
C3472 C3474 1.394 . S
C3472 H3488 0.931 . S
C3473 C3472 1.391 . S
C3473 C3477 1.376 . S
C3474 C3472 1.394 . S
C3474 C3475 1.369 . S
C3474 C3478 1.531 . S
C3475 C3474 1.369 . S
C3475 C3476 1.410 . S
C3475 C3483 1.503 . S
C3476 C3475 1.410 . S
C3476 C3477 1.392 . S
C3476 C3479 1.511 . S
C3477 C3473 1.376 . S
C3477 C3476 1.392 . S
C3477 H3489 0.929 . S
C3478 C3474 1.531 . S
C3478 H3490 0.960 . S
C3478 H3491 0.962 . S
C3478 H3492 0.960 . S
C3479 C3476 1.511 . S
C3479 H3493 0.961 . S
C3479 H3494 0.961 . S
C3479 H3495 0.961 . S
C3480 C3481 1.370 . S
C3480 C3482 1.363 . S
C3480 H3496 0.931 . S
C3481 C3480 1.370 . S
C3481 C3485 1.408 . S
C3482 C3480 1.363 . S
C3482 C3483 1.370 . S
C3482 C3486 1.524 . S
C3483 C3475 1.503 . S
C3483 C3482 1.370 . S
C3483 C3484 1.403 . S
C3484 C3483 1.403 . S
C3484 C3485 1.404 . S
C3484 C3487 1.539 . S
C3485 C3481 1.408 . S
C3485 C3484 1.404 . S
C3485 H3497 0.930 . S
C3486 C3482 1.524 . S
C3486 H3498 0.956 . S
C3486 H3499 0.961 . S
C3486 H3500 0.961 . S
C3487 C3484 1.539 . S
C3487 H3501 0.958 . S
C3487 H3502 0.961 . S
C3487 H3503 0.960 . S
H3488 C3472 0.931 . S
H3489 C3477 0.929 . S
H3490 C3478 0.960 . S
H3491 C3478 0.962 . S
H3492 C3478 0.960 . S
H3493 C3479 0.961 . S
H3494 C3479 0.961 . S
H3495 C3479 0.961 . S
H3496 C3480 0.931 . S
H3497 C3485 0.930 . S
H3498 C3486 0.956 . S
H3499 C3486 0.961 . S
H3500 C3486 0.961 . S
H3501 C3487 0.958 . S
H3502 C3487 0.961 . S
H3503 C3487 0.960 . S
C3504 C3505 1.391 . S
C3504 C3506 1.394 . S
C3504 H3520 0.931 1_556 S
C3505 C3504 1.391 . S
C3505 C3509 1.376 . S
C3506 C3504 1.394 . S
C3506 C3507 1.369 . S
C3506 C3510 1.531 . S
C3507 C3506 1.369 . S
C3507 C3508 1.410 . S
C3507 C3515 1.503 . S
C3508 C3507 1.410 . S
C3508 C3509 1.392 . S
C3508 C3511 1.511 . S
C3509 C3505 1.376 . S
C3509 C3508 1.392 . S
C3509 H3521 0.929 . S
C3510 C3506 1.531 . S
C3510 H3522 0.960 . S
C3510 H3523 0.962 . S
C3510 H3524 0.960 . S
C3511 C3508 1.511 . S
C3511 H3525 0.961 . S
C3511 H3526 0.961 . S
C3511 H3527 0.961 . S
C3512 C3513 1.370 . S
C3512 C3514 1.363 . S
C3512 H3528 0.931 . S
C3513 C3512 1.370 . S
C3513 C3517 1.408 . S
C3514 C3512 1.363 . S
C3514 C3515 1.370 . S
C3514 C3518 1.524 . S
C3515 C3507 1.503 . S
C3515 C3514 1.370 . S
C3515 C3516 1.403 . S
C3516 C3515 1.403 . S
C3516 C3517 1.404 . S
C3516 C3519 1.539 . S
C3517 C3513 1.408 . S
C3517 C3516 1.404 . S
C3517 H3529 0.930 . S
C3518 C3514 1.524 . S
C3518 H3530 0.956 . S
C3518 H3531 0.961 . S
C3518 H3532 0.961 . S
C3519 C3516 1.539 . S
C3519 H3533 0.958 . S
C3519 H3534 0.961 . S
C3519 H3535 0.960 . S
H3520 C3504 0.931 1_554 S
H3521 C3509 0.929 . S
H3522 C3510 0.960 . S
H3523 C3510 0.962 . S
H3524 C3510 0.960 . S
H3525 C3511 0.961 . S
H3526 C3511 0.961 . S
H3527 C3511 0.961 . S
H3528 C3512 0.931 . S
H3529 C3517 0.930 . S
H3530 C3518 0.956 . S
H3531 C3518 0.961 . S
H3532 C3518 0.961 . S
H3533 C3519 0.958 . S
H3534 C3519 0.961 . S
H3535 C3519 0.960 . S
C3536 C3537 1.391 . S
C3536 C3538 1.394 . S
C3536 H3552 0.931 . S
C3537 C3536 1.391 . S
C3537 C3541 1.376 . S
C3538 C3536 1.394 . S
C3538 C3539 1.369 . S
C3538 C3542 1.531 . S
C3539 C3538 1.369 . S
C3539 C3540 1.410 . S
C3539 C3547 1.503 . S
C3540 C3539 1.410 . S
C3540 C3541 1.392 . S
C3540 C3543 1.511 . S
C3541 C3537 1.376 . S
C3541 C3540 1.392 . S
C3541 H3553 0.929 . S
C3542 C3538 1.531 . S
C3542 H3554 0.960 . S
C3542 H3555 0.962 . S
C3542 H3556 0.960 . S
C3543 C3540 1.511 . S
C3543 H3557 0.961 . S
C3543 H3558 0.961 . S
C3543 H3559 0.961 . S
C3544 C3545 1.370 . S
C3544 C3546 1.363 . S
C3544 H3560 0.931 . S
C3545 C3544 1.370 . S
C3545 C3549 1.408 . S
C3546 C3544 1.363 . S
C3546 C3547 1.370 . S
C3546 C3550 1.524 . S
C3547 C3539 1.503 . S
C3547 C3546 1.370 . S
C3547 C3548 1.403 . S
C3548 C3547 1.403 . S
C3548 C3549 1.404 . S
C3548 C3551 1.539 . S
C3549 C3545 1.408 . S
C3549 C3548 1.404 . S
C3549 H3561 0.930 . S
C3550 C3546 1.524 . S
C3550 H3562 0.956 . S
C3550 H3563 0.961 . S
C3550 H3564 0.961 . S
C3551 C3548 1.539 . S
C3551 H3565 0.958 . S
C3551 H3566 0.961 . S
C3551 H3567 0.960 . S
H3552 C3536 0.931 . S
H3553 C3541 0.929 . S
H3554 C3542 0.960 . S
H3555 C3542 0.962 . S
H3556 C3542 0.960 . S
H3557 C3543 0.961 . S
H3558 C3543 0.961 . S
H3559 C3543 0.961 . S
H3560 C3544 0.931 . S
H3561 C3549 0.930 . S
H3562 C3550 0.956 . S
H3563 C3550 0.961 . S
H3564 C3550 0.961 . S
H3565 C3551 0.958 . S
H3566 C3551 0.961 . S
H3567 C3551 0.960 . S
C3568 C3569 1.391 . S
C3568 C3570 1.394 . S
C3568 H3584 0.931 . S
C3569 C3568 1.391 . S
C3569 C3573 1.376 . S
C3570 C3568 1.394 . S
C3570 C3571 1.369 . S
C3570 C3574 1.531 . S
C3571 C3570 1.369 . S
C3571 C3572 1.410 . S
C3571 C3579 1.503 . S
C3572 C3571 1.410 . S
C3572 C3573 1.392 . S
C3572 C3575 1.511 . S
C3573 C3569 1.376 . S
C3573 C3572 1.392 . S
C3573 H3585 0.929 . S
C3574 C3570 1.531 . S
C3574 H3586 0.960 . S
C3574 H3587 0.962 . S
C3574 H3588 0.960 . S
C3575 C3572 1.511 . S
C3575 H3589 0.961 . S
C3575 H3590 0.961 . S
C3575 H3591 0.961 . S
C3576 C3577 1.370 . S
C3576 C3578 1.363 . S
C3576 H3592 0.931 . S
C3577 C3576 1.370 . S
C3577 C3581 1.408 . S
C3578 C3576 1.363 . S
C3578 C3579 1.370 . S
C3578 C3582 1.524 . S
C3579 C3571 1.503 . S
C3579 C3578 1.370 . S
C3579 C3580 1.403 . S
C3580 C3579 1.403 . S
C3580 C3581 1.404 . S
C3580 C3583 1.539 . S
C3581 C3577 1.408 . S
C3581 C3580 1.404 . S
C3581 H3593 0.930 . S
C3582 C3578 1.524 . S
C3582 H3594 0.956 . S
C3582 H3595 0.961 . S
C3582 H3596 0.961 . S
C3583 C3580 1.539 . S
C3583 H3597 0.958 . S
C3583 H3598 0.961 . S
C3583 H3599 0.960 . S
H3584 C3568 0.931 . S
H3585 C3573 0.929 . S
H3586 C3574 0.960 . S
H3587 C3574 0.962 . S
H3588 C3574 0.960 . S
H3589 C3575 0.961 . S
H3590 C3575 0.961 . S
H3591 C3575 0.961 . S
H3592 C3576 0.931 . S
H3593 C3581 0.930 . S
H3594 C3582 0.956 . S
H3595 C3582 0.961 . S
H3596 C3582 0.961 . S
H3597 C3583 0.958 . S
H3598 C3583 0.961 . S
H3599 C3583 0.960 . S
C3600 C3601 1.391 . S
C3600 C3602 1.394 . S
C3600 H3616 0.931 . S
C3601 C3600 1.391 . S
C3601 C3605 1.376 . S
C3602 C3600 1.394 . S
C3602 C3603 1.369 . S
C3602 C3606 1.531 . S
C3603 C3602 1.369 . S
C3603 C3604 1.410 . S
C3603 C3611 1.503 . S
C3604 C3603 1.410 . S
C3604 C3605 1.392 . S
C3604 C3607 1.511 . S
C3605 C3601 1.376 . S
C3605 C3604 1.392 . S
C3605 H3617 0.929 . S
C3606 C3602 1.531 . S
C3606 H3618 0.960 . S
C3606 H3619 0.962 . S
C3606 H3620 0.960 . S
C3607 C3604 1.511 . S
C3607 H3621 0.961 . S
C3607 H3622 0.961 . S
C3607 H3623 0.961 . S
C3608 C3609 1.370 . S
C3608 C3610 1.363 . S
C3608 H3624 0.931 . S
C3609 C3608 1.370 . S
C3609 C3613 1.408 . S
C3610 C3608 1.363 . S
C3610 C3611 1.370 . S
C3610 C3614 1.524 . S
C3611 C3603 1.503 . S
C3611 C3610 1.370 . S
C3611 C3612 1.403 . S
C3612 C3611 1.403 . S
C3612 C3613 1.404 . S
C3612 C3615 1.539 . S
C3613 C3609 1.408 . S
C3613 C3612 1.404 . S
C3613 H3625 0.930 . S
C3614 C3610 1.524 . S
C3614 H3626 0.956 . S
C3614 H3627 0.961 . S
C3614 H3628 0.961 . S
C3615 C3612 1.539 . S
C3615 H3629 0.958 . S
C3615 H3630 0.961 . S
C3615 H3631 0.960 . S
H3616 C3600 0.931 . S
H3617 C3605 0.929 . S
H3618 C3606 0.960 . S
H3619 C3606 0.962 . S
H3620 C3606 0.960 . S
H3621 C3607 0.961 . S
H3622 C3607 0.961 . S
H3623 C3607 0.961 . S
H3624 C3608 0.931 . S
H3625 C3613 0.930 . S
H3626 C3614 0.956 . S
H3627 C3614 0.961 . S
H3628 C3614 0.961 . S
H3629 C3615 0.958 . S
H3630 C3615 0.961 . S
H3631 C3615 0.960 . S
C3632 C3633 1.391 . S
C3632 C3634 1.394 . S
C3632 H3648 0.931 . S
C3633 C3632 1.391 . S
C3633 C3637 1.376 . S
C3634 C3632 1.394 . S
C3634 C3635 1.369 . S
C3634 C3638 1.531 . S
C3635 C3634 1.369 . S
C3635 C3636 1.410 . S
C3635 C3643 1.503 . S
C3636 C3635 1.410 . S
C3636 C3637 1.392 . S
C3636 C3639 1.511 . S
C3637 C3633 1.376 . S
C3637 C3636 1.392 . S
C3637 H3649 0.929 . S
C3638 C3634 1.531 . S
C3638 H3650 0.960 . S
C3638 H3651 0.962 . S
C3638 H3652 0.960 . S
C3639 C3636 1.511 . S
C3639 H3653 0.961 . S
C3639 H3654 0.961 . S
C3639 H3655 0.961 . S
C3640 C3641 1.370 . S
C3640 C3642 1.363 . S
C3640 H3656 0.931 . S
C3641 C3640 1.370 . S
C3641 C3645 1.408 . S
C3642 C3640 1.363 . S
C3642 C3643 1.370 . S
C3642 C3646 1.524 . S
C3643 C3635 1.503 . S
C3643 C3642 1.370 . S
C3643 C3644 1.403 . S
C3644 C3643 1.403 . S
C3644 C3645 1.404 . S
C3644 C3647 1.539 . S
C3645 C3641 1.408 . S
C3645 C3644 1.404 . S
C3645 H3657 0.930 . S
C3646 C3642 1.524 . S
C3646 H3658 0.956 . S
C3646 H3659 0.961 . S
C3646 H3660 0.961 . S
C3647 C3644 1.539 . S
C3647 H3661 0.958 . S
C3647 H3662 0.961 . S
C3647 H3663 0.960 . S
H3648 C3632 0.931 . S
H3649 C3637 0.929 . S
H3650 C3638 0.960 . S
H3651 C3638 0.962 . S
H3652 C3638 0.960 . S
H3653 C3639 0.961 . S
H3654 C3639 0.961 . S
H3655 C3639 0.961 . S
H3656 C3640 0.931 . S
H3657 C3645 0.930 . S
H3658 C3646 0.956 . S
H3659 C3646 0.961 . S
H3660 C3646 0.961 . S
H3661 C3647 0.958 . S
H3662 C3647 0.961 . S
H3663 C3647 0.960 . S
C3664 C3665 1.391 . S
C3664 C3666 1.394 . S
C3664 H3680 0.931 . S
C3665 C3664 1.391 . S
C3665 C3669 1.376 . S
C3666 C3664 1.394 . S
C3666 C3667 1.369 . S
C3666 C3670 1.531 . S
C3667 C3666 1.369 . S
C3667 C3668 1.410 . S
C3667 C3675 1.503 . S
C3668 C3667 1.410 . S
C3668 C3669 1.392 . S
C3668 C3671 1.511 . S
C3669 C3665 1.376 . S
C3669 C3668 1.392 . S
C3669 H3681 0.929 . S
C3670 C3666 1.531 . S
C3670 H3682 0.960 . S
C3670 H3683 0.962 . S
C3670 H3684 0.960 . S
C3671 C3668 1.511 . S
C3671 H3685 0.961 . S
C3671 H3686 0.961 . S
C3671 H3687 0.961 . S
C3672 C3673 1.370 . S
C3672 C3674 1.363 . S
C3672 H3688 0.931 . S
C3673 C3672 1.370 . S
C3673 C3677 1.408 . S
C3674 C3672 1.363 . S
C3674 C3675 1.370 . S
C3674 C3678 1.524 . S
C3675 C3667 1.503 . S
C3675 C3674 1.370 . S
C3675 C3676 1.403 . S
C3676 C3675 1.403 . S
C3676 C3677 1.404 . S
C3676 C3679 1.539 . S
C3677 C3673 1.408 . S
C3677 C3676 1.404 . S
C3677 H3689 0.930 . S
C3678 C3674 1.524 . S
C3678 H3690 0.956 . S
C3678 H3691 0.961 . S
C3678 H3692 0.961 . S
C3679 C3676 1.539 . S
C3679 H3693 0.958 . S
C3679 H3694 0.961 . S
C3679 H3695 0.960 . S
H3680 C3664 0.931 . S
H3681 C3669 0.929 . S
H3682 C3670 0.960 . S
H3683 C3670 0.962 . S
H3684 C3670 0.960 . S
H3685 C3671 0.961 . S
H3686 C3671 0.961 . S
H3687 C3671 0.961 . S
H3688 C3672 0.931 . S
H3689 C3677 0.930 . S
H3690 C3678 0.956 . S
H3691 C3678 0.961 . S
H3692 C3678 0.961 . S
H3693 C3679 0.958 . S
H3694 C3679 0.961 . S
H3695 C3679 0.960 . S
C3696 C3697 1.391 . S
C3696 C3698 1.394 . S
C3696 H3712 0.931 . S
C3697 C3696 1.391 . S
C3697 C3701 1.376 . S
C3698 C3696 1.394 . S
C3698 C3699 1.369 . S
C3698 C3702 1.531 . S
C3699 C3698 1.369 . S
C3699 C3700 1.410 . S
C3699 C3707 1.503 . S
C3700 C3699 1.410 . S
C3700 C3701 1.392 . S
C3700 C3703 1.511 . S
C3701 C3697 1.376 . S
C3701 C3700 1.392 . S
C3701 H3713 0.929 . S
C3702 C3698 1.531 . S
C3702 H3714 0.960 . S
C3702 H3715 0.962 . S
C3702 H3716 0.960 . S
C3703 C3700 1.511 . S
C3703 H3717 0.961 . S
C3703 H3718 0.961 . S
C3703 H3719 0.961 . S
C3704 C3705 1.370 . S
C3704 C3706 1.363 . S
C3704 H3720 0.931 . S
C3705 C3704 1.370 . S
C3705 C3709 1.408 . S
C3706 C3704 1.363 . S
C3706 C3707 1.370 . S
C3706 C3710 1.524 . S
C3707 C3699 1.503 . S
C3707 C3706 1.370 . S
C3707 C3708 1.403 . S
C3708 C3707 1.403 . S
C3708 C3709 1.404 . S
C3708 C3711 1.539 . S
C3709 C3705 1.408 . S
C3709 C3708 1.404 . S
C3709 H3721 0.930 . S
C3710 C3706 1.524 . S
C3710 H3722 0.956 . S
C3710 H3723 0.961 . S
C3710 H3724 0.961 . S
C3711 C3708 1.539 . S
C3711 H3725 0.958 . S
C3711 H3726 0.961 . S
C3711 H3727 0.960 . S
H3712 C3696 0.931 . S
H3713 C3701 0.929 . S
H3714 C3702 0.960 . S
H3715 C3702 0.962 . S
H3716 C3702 0.960 . S
H3717 C3703 0.961 . S
H3718 C3703 0.961 . S
H3719 C3703 0.961 . S
H3720 C3704 0.931 . S
H3721 C3709 0.930 . S
H3722 C3710 0.956 . S
H3723 C3710 0.961 . S
H3724 C3710 0.961 . S
H3725 C3711 0.958 . S
H3726 C3711 0.961 . S
H3727 C3711 0.960 . S
C3728 C3729 1.391 . S
C3728 C3730 1.394 . S
C3728 H3744 0.931 . S
C3729 C3728 1.391 . S
C3729 C3733 1.376 . S
C3730 C3728 1.394 . S
C3730 C3731 1.369 . S
C3730 C3734 1.531 . S
C3731 C3730 1.369 . S
C3731 C3732 1.410 . S
C3731 C3739 1.503 . S
C3732 C3731 1.410 . S
C3732 C3733 1.392 . S
C3732 C3735 1.511 . S
C3733 C3729 1.376 . S
C3733 C3732 1.392 . S
C3733 H3745 0.929 . S
C3734 C3730 1.531 . S
C3734 H3746 0.960 . S
C3734 H3747 0.962 . S
C3734 H3748 0.960 . S
C3735 C3732 1.511 . S
C3735 H3749 0.961 . S
C3735 H3750 0.961 . S
C3735 H3751 0.961 . S
C3736 C3737 1.370 . S
C3736 C3738 1.363 . S
C3736 H3752 0.931 . S
C3737 C3736 1.370 . S
C3737 C3741 1.408 . S
C3738 C3736 1.363 . S
C3738 C3739 1.370 . S
C3738 C3742 1.524 . S
C3739 C3731 1.503 . S
C3739 C3738 1.370 . S
C3739 C3740 1.403 . S
C3740 C3739 1.403 . S
C3740 C3741 1.404 . S
C3740 C3743 1.539 . S
C3741 C3737 1.408 . S
C3741 C3740 1.404 . S
C3741 H3753 0.930 . S
C3742 C3738 1.524 . S
C3742 H3754 0.956 . S
C3742 H3755 0.961 . S
C3742 H3756 0.961 . S
C3743 C3740 1.539 . S
C3743 H3757 0.958 . S
C3743 H3758 0.961 . S
C3743 H3759 0.960 . S
H3744 C3728 0.931 . S
H3745 C3733 0.929 . S
H3746 C3734 0.960 . S
H3747 C3734 0.962 . S
H3748 C3734 0.960 . S
H3749 C3735 0.961 . S
H3750 C3735 0.961 . S
H3751 C3735 0.961 . S
H3752 C3736 0.931 . S
H3753 C3741 0.930 . S
H3754 C3742 0.956 . S
H3755 C3742 0.961 . S
H3756 C3742 0.961 . S
H3757 C3743 0.958 . S
H3758 C3743 0.961 . S
H3759 C3743 0.960 . S
C3760 C3761 1.391 . S
C3760 C3762 1.394 . S
C3760 H3776 0.931 . S
C3761 C3760 1.391 . S
C3761 C3765 1.376 . S
C3762 C3760 1.394 . S
C3762 C3763 1.369 . S
C3762 C3766 1.531 . S
C3763 C3762 1.369 . S
C3763 C3764 1.410 . S
C3763 C3771 1.503 . S
C3764 C3763 1.410 . S
C3764 C3765 1.392 . S
C3764 C3767 1.511 . S
C3765 C3761 1.376 . S
C3765 C3764 1.392 . S
C3765 H3777 0.929 . S
C3766 C3762 1.531 . S
C3766 H3778 0.960 . S
C3766 H3779 0.962 . S
C3766 H3780 0.960 . S
C3767 C3764 1.511 . S
C3767 H3781 0.961 . S
C3767 H3782 0.961 . S
C3767 H3783 0.961 . S
C3768 C3769 1.370 . S
C3768 C3770 1.363 . S
C3768 H3784 0.931 . S
C3769 C3768 1.370 . S
C3769 C3773 1.408 . S
C3770 C3768 1.363 . S
C3770 C3771 1.370 . S
C3770 C3774 1.524 . S
C3771 C3763 1.503 . S
C3771 C3770 1.370 . S
C3771 C3772 1.403 . S
C3772 C3771 1.403 . S
C3772 C3773 1.404 . S
C3772 C3775 1.539 . S
C3773 C3769 1.408 . S
C3773 C3772 1.404 . S
C3773 H3785 0.930 . S
C3774 C3770 1.524 . S
C3774 H3786 0.956 . S
C3774 H3787 0.961 . S
C3774 H3788 0.961 . S
C3775 C3772 1.539 . S
C3775 H3789 0.958 . S
C3775 H3790 0.961 . S
C3775 H3791 0.960 . S
H3776 C3760 0.931 . S
H3777 C3765 0.929 . S
H3778 C3766 0.960 . S
H3779 C3766 0.962 . S
H3780 C3766 0.960 . S
H3781 C3767 0.961 . S
H3782 C3767 0.961 . S
H3783 C3767 0.961 . S
H3784 C3768 0.931 . S
H3785 C3773 0.930 . S
H3786 C3774 0.956 . S
H3787 C3774 0.961 . S
H3788 C3774 0.961 . S
H3789 C3775 0.958 . S
H3790 C3775 0.961 . S
H3791 C3775 0.960 . S
C3792 C3793 1.391 . S
C3792 C3794 1.394 . S
C3792 H3808 0.931 . S
C3793 C3792 1.391 . S
C3793 C3797 1.376 . S
C3794 C3792 1.394 . S
C3794 C3795 1.369 . S
C3794 C3798 1.531 . S
C3795 C3794 1.369 . S
C3795 C3796 1.410 . S
C3795 C3803 1.503 . S
C3796 C3795 1.410 . S
C3796 C3797 1.392 . S
C3796 C3799 1.511 . S
C3797 C3793 1.376 . S
C3797 C3796 1.392 . S
C3797 H3809 0.929 . S
C3798 C3794 1.531 . S
C3798 H3810 0.960 . S
C3798 H3811 0.962 . S
C3798 H3812 0.960 . S
C3799 C3796 1.511 . S
C3799 H3813 0.961 . S
C3799 H3814 0.961 . S
C3799 H3815 0.961 . S
C3800 C3801 1.370 . S
C3800 C3802 1.363 . S
C3800 H3816 0.931 . S
C3801 C3800 1.370 . S
C3801 C3805 1.408 . S
C3802 C3800 1.363 . S
C3802 C3803 1.370 . S
C3802 C3806 1.524 . S
C3803 C3795 1.503 . S
C3803 C3802 1.370 . S
C3803 C3804 1.403 . S
C3804 C3803 1.403 . S
C3804 C3805 1.404 . S
C3804 C3807 1.539 . S
C3805 C3801 1.408 . S
C3805 C3804 1.404 . S
C3805 H3817 0.930 . S
C3806 C3802 1.524 . S
C3806 H3818 0.956 . S
C3806 H3819 0.961 . S
C3806 H3820 0.961 . S
C3807 C3804 1.539 . S
C3807 H3821 0.958 . S
C3807 H3822 0.961 . S
C3807 H3823 0.960 . S
H3808 C3792 0.931 . S
H3809 C3797 0.929 . S
H3810 C3798 0.960 . S
H3811 C3798 0.962 . S
H3812 C3798 0.960 . S
H3813 C3799 0.961 . S
H3814 C3799 0.961 . S
H3815 C3799 0.961 . S
H3816 C3800 0.931 . S
H3817 C3805 0.930 . S
H3818 C3806 0.956 . S
H3819 C3806 0.961 . S
H3820 C3806 0.961 . S
H3821 C3807 0.958 . S
H3822 C3807 0.961 . S
H3823 C3807 0.960 . S
C3824 C3825 1.391 . S
C3824 C3826 1.394 . S
C3824 H3840 0.931 . S
C3825 C3824 1.391 . S
C3825 C3829 1.376 . S
C3826 C3824 1.394 . S
C3826 C3827 1.369 . S
C3826 C3830 1.531 1_565 S
C3827 C3826 1.369 . S
C3827 C3828 1.410 . S
C3827 C3835 1.503 . S
C3828 C3827 1.410 . S
C3828 C3829 1.392 . S
C3828 C3831 1.511 . S
C3829 C3825 1.376 . S
C3829 C3828 1.392 . S
C3829 H3841 0.929 . S
C3830 C3826 1.531 1_545 S
C3830 H3842 0.960 . S
C3830 H3843 0.962 . S
C3830 H3844 0.960 . S
C3831 C3828 1.511 . S
C3831 H3845 0.961 1_554 S
C3831 H3846 0.961 1_554 S
C3831 H3847 0.961 . S
C3832 C3833 1.370 1_556 S
C3832 C3834 1.372 . S
C3832 H3848 0.931 . S
C3833 C3832 1.370 1_554 S
C3833 C3837 1.408 . S
C3834 C3832 1.372 . S
C3834 C3835 1.328 1_546 S
C3834 C3838 1.559 1_545 S
C3835 C3827 1.503 . S
C3835 C3834 1.328 1_564 S
C3835 C3836 1.401 . S
C3836 C3835 1.401 . S
C3836 C3837 1.400 1_565 S
C3836 C3839 1.546 . S
C3837 C3833 1.408 . S
C3837 C3836 1.400 1_545 S
C3837 H3849 0.930 . S
C3838 C3834 1.559 1_565 S
C3838 H3850 0.956 1_565 S
C3838 H3851 0.961 . S
C3838 H3852 0.961 1_565 S
C3839 C3836 1.546 . S
C3839 H3853 0.958 1_565 S
C3839 H3854 0.961 . S
C3839 H3855 0.960 . S
H3840 C3824 0.931 . S
H3841 C3829 0.929 . S
H3842 C3830 0.960 . S
H3843 C3830 0.962 . S
H3844 C3830 0.960 . S
H3845 C3831 0.961 1_556 S
H3846 C3831 0.961 1_556 S
H3847 C3831 0.961 . S
H3848 C3832 0.931 . S
H3849 C3837 0.930 . S
H3850 C3838 0.956 1_545 S
H3851 C3838 0.961 . S
H3852 C3838 0.961 1_545 S
H3853 C3839 0.958 1_545 S
H3854 C3839 0.961 . S
H3855 C3839 0.960 . S
C3856 C3857 1.391 . S
C3856 C3858 1.394 . S
C3856 H3872 0.931 . S
C3857 C3856 1.391 . S
C3857 C3861 1.376 . S
C3858 C3856 1.394 . S
C3858 C3859 1.369 . S
C3858 C3862 1.531 . S
C3859 C3858 1.369 . S
C3859 C3860 1.410 . S
C3859 C3867 1.503 . S
C3860 C3859 1.410 . S
C3860 C3861 1.392 . S
C3860 C3863 1.511 . S
C3861 C3857 1.376 . S
C3861 C3860 1.392 . S
C3861 H3873 0.929 . S
C3862 C3858 1.531 . S
C3862 H3874 0.960 . S
C3862 H3875 0.962 . S
C3862 H3876 0.960 . S
C3863 C3860 1.511 . S
C3863 H3877 0.961 . S
C3863 H3878 0.961 . S
C3863 H3879 0.961 . S
C3864 C3865 1.370 . S
C3864 C3866 1.363 . S
C3864 H3880 0.931 . S
C3865 C3864 1.370 . S
C3865 C3869 1.408 . S
C3866 C3864 1.363 . S
C3866 C3867 1.370 . S
C3866 C3870 1.524 . S
C3867 C3859 1.503 . S
C3867 C3866 1.370 . S
C3867 C3868 1.403 . S
C3868 C3867 1.403 . S
C3868 C3869 1.404 . S
C3868 C3871 1.539 . S
C3869 C3865 1.408 . S
C3869 C3868 1.404 . S
C3869 H3881 0.930 . S
C3870 C3866 1.524 . S
C3870 H3882 0.956 . S
C3870 H3883 0.961 . S
C3870 H3884 0.961 . S
C3871 C3868 1.539 . S
C3871 H3885 0.958 . S
C3871 H3886 0.961 . S
C3871 H3887 0.960 . S
H3872 C3856 0.931 . S
H3873 C3861 0.929 . S
H3874 C3862 0.960 . S
H3875 C3862 0.962 . S
H3876 C3862 0.960 . S
H3877 C3863 0.961 . S
H3878 C3863 0.961 . S
H3879 C3863 0.961 . S
H3880 C3864 0.931 . S
H3881 C3869 0.930 . S
H3882 C3870 0.956 . S
H3883 C3870 0.961 . S
H3884 C3870 0.961 . S
H3885 C3871 0.958 . S
H3886 C3871 0.961 . S
H3887 C3871 0.960 . S
C3888 C3889 1.391 . S
C3888 C3890 1.394 . S
C3888 H3904 0.931 . S
C3889 C3888 1.391 . S
C3889 C3893 1.376 1_554 S
C3890 C3888 1.394 . S
C3890 C3891 1.369 . S
C3890 C3894 1.531 . S
C3891 C3890 1.369 . S
C3891 C3892 1.410 . S
C3891 C3899 1.503 . S
C3892 C3891 1.410 . S
C3892 C3893 1.392 1_554 S
C3892 C3895 1.511 1_554 S
C3893 C3889 1.376 1_556 S
C3893 C3892 1.392 1_556 S
C3893 H3905 0.929 . S
C3894 C3890 1.531 . S
C3894 H3906 0.960 . S
C3894 H3907 0.962 . S
C3894 H3908 0.960 . S
C3895 C3892 1.511 1_556 S
C3895 H3909 0.961 . S
C3895 H3910 0.961 . S
C3895 H3911 0.961 1_556 S
C3896 C3897 1.370 . S
C3896 C3898 1.363 . S
C3896 H3912 0.931 . S
C3897 C3896 1.370 . S
C3897 C3901 1.408 . S
C3898 C3896 1.363 . S
C3898 C3899 1.370 . S
C3898 C3902 1.524 1_554 S
C3899 C3891 1.503 . S
C3899 C3898 1.370 . S
C3899 C3900 1.403 . S
C3900 C3899 1.403 . S
C3900 C3901 1.404 . S
C3900 C3903 1.539 . S
C3901 C3897 1.408 . S
C3901 C3900 1.404 . S
C3901 H3913 0.930 . S
C3902 C3898 1.524 1_556 S
C3902 H3914 0.956 . S
C3902 H3915 0.961 . S
C3902 H3916 0.961 . S
C3903 C3900 1.539 . S
C3903 H3917 0.958 . S
C3903 H3918 0.961 . S
C3903 H3919 0.960 . S
H3904 C3888 0.931 . S
H3905 C3893 0.929 . S
H3906 C3894 0.960 . S
H3907 C3894 0.962 . S
H3908 C3894 0.960 . S
H3909 C3895 0.961 . S
H3910 C3895 0.961 . S
H3911 C3895 0.961 1_554 S
H3912 C3896 0.931 . S
H3913 C3901 0.930 . S
H3914 C3902 0.956 . S
H3915 C3902 0.961 . S
H3916 C3902 0.961 . S
H3917 C3903 0.958 . S
H3918 C3903 0.961 . S
H3919 C3903 0.960 . S
C3920 C3921 1.391 . S
C3920 C3922 1.394 . S
C3920 H3936 0.931 . S
C3921 C3920 1.391 . S
C3921 C3925 1.376 . S
C3922 C3920 1.394 . S
C3922 C3923 1.369 . S
C3922 C3926 1.531 . S
C3923 C3922 1.369 . S
C3923 C3924 1.410 . S
C3923 C3931 1.503 . S
C3924 C3923 1.410 . S
C3924 C3925 1.392 . S
C3924 C3927 1.511 . S
C3925 C3921 1.376 . S
C3925 C3924 1.392 . S
C3925 H3937 0.929 . S
C3926 C3922 1.531 . S
C3926 H3938 0.960 . S
C3926 H3939 0.962 . S
C3926 H3940 0.960 . S
C3927 C3924 1.511 . S
C3927 H3941 0.961 . S
C3927 H3942 0.961 . S
C3927 H3943 0.961 . S
C3928 C3929 1.370 . S
C3928 C3930 1.363 . S
C3928 H3944 0.931 . S
C3929 C3928 1.370 . S
C3929 C3933 1.408 . S
C3930 C3928 1.363 . S
C3930 C3931 1.370 . S
C3930 C3934 1.524 . S
C3931 C3923 1.503 . S
C3931 C3930 1.370 . S
C3931 C3932 1.403 . S
C3932 C3931 1.403 . S
C3932 C3933 1.404 . S
C3932 C3935 1.539 . S
C3933 C3929 1.408 . S
C3933 C3932 1.404 . S
C3933 H3945 0.930 . S
C3934 C3930 1.524 . S
C3934 H3946 0.956 . S
C3934 H3947 0.961 . S
C3934 H3948 0.961 . S
C3935 C3932 1.539 . S
C3935 H3949 0.958 . S
C3935 H3950 0.961 . S
C3935 H3951 0.960 . S
H3936 C3920 0.931 . S
H3937 C3925 0.929 . S
H3938 C3926 0.960 . S
H3939 C3926 0.962 . S
H3940 C3926 0.960 . S
H3941 C3927 0.961 . S
H3942 C3927 0.961 . S
H3943 C3927 0.961 . S
H3944 C3928 0.931 . S
H3945 C3933 0.930 . S
H3946 C3934 0.956 . S
H3947 C3934 0.961 . S
H3948 C3934 0.961 . S
H3949 C3935 0.958 . S
H3950 C3935 0.961 . S
H3951 C3935 0.960 . S
C3952 C3953 1.391 . S
C3952 C3954 1.394 . S
C3952 H3968 0.931 . S
C3953 C3952 1.391 . S
C3953 C3957 1.376 . S
C3954 C3952 1.394 . S
C3954 C3955 1.369 . S
C3954 C3958 1.531 . S
C3955 C3954 1.369 . S
C3955 C3956 1.410 . S
C3955 C3963 1.503 . S
C3956 C3955 1.410 . S
C3956 C3957 1.392 . S
C3956 C3959 1.511 . S
C3957 C3953 1.376 . S
C3957 C3956 1.392 . S
C3957 H3969 0.929 . S
C3958 C3954 1.531 . S
C3958 H3970 0.960 . S
C3958 H3971 0.962 . S
C3958 H3972 0.960 . S
C3959 C3956 1.511 . S
C3959 H3973 0.961 . S
C3959 H3974 0.961 . S
C3959 H3975 0.961 . S
C3960 C3961 1.370 . S
C3960 C3962 1.363 . S
C3960 H3976 0.931 . S
C3961 C3960 1.370 . S
C3961 C3965 1.408 . S
C3962 C3960 1.363 . S
C3962 C3963 1.370 . S
C3962 C3966 1.524 . S
C3963 C3955 1.503 . S
C3963 C3962 1.370 . S
C3963 C3964 1.403 . S
C3964 C3963 1.403 . S
C3964 C3965 1.404 . S
C3964 C3967 1.539 . S
C3965 C3961 1.408 . S
C3965 C3964 1.404 . S
C3965 H3977 0.930 . S
C3966 C3962 1.524 . S
C3966 H3978 0.956 . S
C3966 H3979 0.961 . S
C3966 H3980 0.961 . S
C3967 C3964 1.539 . S
C3967 H3981 0.958 . S
C3967 H3982 0.961 . S
C3967 H3983 0.960 . S
H3968 C3952 0.931 . S
H3969 C3957 0.929 . S
H3970 C3958 0.960 . S
H3971 C3958 0.962 . S
H3972 C3958 0.960 . S
H3973 C3959 0.961 . S
H3974 C3959 0.961 . S
H3975 C3959 0.961 . S
H3976 C3960 0.931 . S
H3977 C3965 0.930 . S
H3978 C3966 0.956 . S
H3979 C3966 0.961 . S
H3980 C3966 0.961 . S
H3981 C3967 0.958 . S
H3982 C3967 0.961 . S
H3983 C3967 0.960 . S
C3984 C3985 1.391 . S
C3984 C3986 1.394 . S
C3984 H4000 0.931 . S
C3985 C3984 1.391 . S
C3985 C3989 1.376 . S
C3986 C3984 1.394 . S
C3986 C3987 1.369 . S
C3986 C3990 1.531 . S
C3987 C3986 1.369 . S
C3987 C3988 1.410 . S
C3987 C3995 1.503 . S
C3988 C3987 1.410 . S
C3988 C3989 1.392 . S
C3988 C3991 1.511 . S
C3989 C3985 1.376 . S
C3989 C3988 1.392 . S
C3989 H4001 0.929 . S
C3990 C3986 1.531 . S
C3990 H4002 0.960 . S
C3990 H4003 0.962 . S
C3990 H4004 0.960 . S
C3991 C3988 1.511 . S
C3991 H4005 0.961 . S
C3991 H4006 0.961 . S
C3991 H4007 0.961 . S
C3992 C3993 1.370 . S
C3992 C3994 1.363 . S
C3992 H4008 0.931 . S
C3993 C3992 1.370 . S
C3993 C3997 1.408 . S
C3994 C3992 1.363 . S
C3994 C3995 1.370 . S
C3994 C3998 1.524 . S
C3995 C3987 1.503 . S
C3995 C3994 1.370 . S
C3995 C3996 1.403 . S
C3996 C3995 1.403 . S
C3996 C3997 1.404 . S
C3996 C3999 1.539 . S
C3997 C3993 1.408 . S
C3997 C3996 1.404 . S
C3997 H4009 0.930 . S
C3998 C3994 1.524 . S
C3998 H4010 0.956 . S
C3998 H4011 0.961 . S
C3998 H4012 0.961 . S
C3999 C3996 1.539 . S
C3999 H4013 0.958 . S
C3999 H4014 0.961 . S
C3999 H4015 0.960 . S
H4000 C3984 0.931 . S
H4001 C3989 0.929 . S
H4002 C3990 0.960 . S
H4003 C3990 0.962 . S
H4004 C3990 0.960 . S
H4005 C3991 0.961 . S
H4006 C3991 0.961 . S
H4007 C3991 0.961 . S
H4008 C3992 0.931 . S
H4009 C3997 0.930 . S
H4010 C3998 0.956 . S
H4011 C3998 0.961 . S
H4012 C3998 0.961 . S
H4013 C3999 0.958 . S
H4014 C3999 0.961 . S
H4015 C3999 0.960 . S
C4016 C4017 1.391 . S
C4016 C4018 1.394 . S
C4016 H4032 0.931 . S
C4017 C4016 1.391 . S
C4017 C4021 1.376 . S
C4018 C4016 1.394 . S
C4018 C4019 1.369 . S
C4018 C4022 1.531 . S
C4019 C4018 1.369 . S
C4019 C4020 1.410 . S
C4019 C4027 1.503 . S
C4020 C4019 1.410 . S
C4020 C4021 1.392 . S
C4020 C4023 1.511 . S
C4021 C4017 1.376 . S
C4021 C4020 1.392 . S
C4021 H4033 0.929 . S
C4022 C4018 1.531 . S
C4022 H4034 0.960 . S
C4022 H4035 0.962 . S
C4022 H4036 0.960 . S
C4023 C4020 1.511 . S
C4023 H4037 0.961 . S
C4023 H4038 0.961 . S
C4023 H4039 0.961 . S
C4024 C4025 1.370 . S
C4024 C4026 1.363 . S
C4024 H4040 0.931 . S
C4025 C4024 1.370 . S
C4025 C4029 1.408 . S
C4026 C4024 1.363 . S
C4026 C4027 1.370 . S
C4026 C4030 1.524 . S
C4027 C4019 1.503 . S
C4027 C4026 1.370 . S
C4027 C4028 1.403 . S
C4028 C4027 1.403 . S
C4028 C4029 1.404 . S
C4028 C4031 1.539 . S
C4029 C4025 1.408 . S
C4029 C4028 1.404 . S
C4029 H4041 0.930 . S
C4030 C4026 1.524 . S
C4030 H4042 0.956 . S
C4030 H4043 0.961 . S
C4030 H4044 0.961 . S
C4031 C4028 1.539 . S
C4031 H4045 0.958 . S
C4031 H4046 0.961 . S
C4031 H4047 0.960 . S
H4032 C4016 0.931 . S
H4033 C4021 0.929 . S
H4034 C4022 0.960 . S
H4035 C4022 0.962 . S
H4036 C4022 0.960 . S
H4037 C4023 0.961 . S
H4038 C4023 0.961 . S
H4039 C4023 0.961 . S
H4040 C4024 0.931 . S
H4041 C4029 0.930 . S
H4042 C4030 0.956 . S
H4043 C4030 0.961 . S
H4044 C4030 0.961 . S
H4045 C4031 0.958 . S
H4046 C4031 0.961 . S
H4047 C4031 0.960 . S
C4048 C4049 1.391 . S
C4048 C4050 1.394 . S
C4048 H4064 0.931 . S
C4049 C4048 1.391 . S
C4049 C4053 1.376 . S
C4050 C4048 1.394 . S
C4050 C4051 1.369 . S
C4050 C4054 1.531 . S
C4051 C4050 1.369 . S
C4051 C4052 1.410 . S
C4051 C4059 1.503 . S
C4052 C4051 1.410 . S
C4052 C4053 1.392 . S
C4052 C4055 1.511 . S
C4053 C4049 1.376 . S
C4053 C4052 1.392 . S
C4053 H4065 0.929 . S
C4054 C4050 1.531 . S
C4054 H4066 0.960 . S
C4054 H4067 0.962 . S
C4054 H4068 0.960 . S
C4055 C4052 1.511 . S
C4055 H4069 0.961 . S
C4055 H4070 0.961 . S
C4055 H4071 0.961 . S
C4056 C4057 1.370 . S
C4056 C4058 1.363 . S
C4056 H4072 0.931 . S
C4057 C4056 1.370 . S
C4057 C4061 1.408 . S
C4058 C4056 1.363 . S
C4058 C4059 1.370 . S
C4058 C4062 1.524 . S
C4059 C4051 1.503 . S
C4059 C4058 1.370 . S
C4059 C4060 1.403 . S
C4060 C4059 1.403 . S
C4060 C4061 1.404 . S
C4060 C4063 1.539 1_554 S
C4061 C4057 1.408 . S
C4061 C4060 1.404 . S
C4061 H4073 0.930 1_554 S
C4062 C4058 1.524 . S
C4062 H4074 0.956 . S
C4062 H4075 0.961 . S
C4062 H4076 0.961 . S
C4063 C4060 1.539 1_556 S
C4063 H4077 0.958 . S
C4063 H4078 0.961 . S
C4063 H4079 0.960 1_556 S
H4064 C4048 0.931 . S
H4065 C4053 0.929 . S
H4066 C4054 0.960 . S
H4067 C4054 0.962 . S
H4068 C4054 0.960 . S
H4069 C4055 0.961 . S
H4070 C4055 0.961 . S
H4071 C4055 0.961 . S
H4072 C4056 0.931 . S
H4073 C4061 0.930 1_556 S
H4074 C4062 0.956 . S
H4075 C4062 0.961 . S
H4076 C4062 0.961 . S
H4077 C4063 0.958 . S
H4078 C4063 0.961 . S
H4079 C4063 0.960 1_554 S
C4080 C4081 1.391 . S
C4080 C4082 1.394 . S
C4080 H4096 0.931 . S
C4081 C4080 1.391 . S
C4081 C4085 1.376 . S
C4082 C4080 1.394 . S
C4082 C4083 1.369 . S
C4082 C4086 1.531 . S
C4083 C4082 1.369 . S
C4083 C4084 1.410 . S
C4083 C4091 1.503 . S
C4084 C4083 1.410 . S
C4084 C4085 1.392 . S
C4084 C4087 1.511 . S
C4085 C4081 1.376 . S
C4085 C4084 1.392 . S
C4085 H4097 0.929 . S
C4086 C4082 1.531 . S
C4086 H4098 0.960 . S
C4086 H4099 0.962 . S
C4086 H4100 0.960 . S
C4087 C4084 1.511 . S
C4087 H4101 0.961 . S
C4087 H4102 0.961 . S
C4087 H4103 0.961 . S
C4088 C4089 1.370 . S
C4088 C4090 1.363 . S
C4088 H4104 0.931 . S
C4089 C4088 1.370 . S
C4089 C4093 1.408 . S
C4090 C4088 1.363 . S
C4090 C4091 1.370 . S
C4090 C4094 1.524 . S
C4091 C4083 1.503 . S
C4091 C4090 1.370 . S
C4091 C4092 1.403 . S
C4092 C4091 1.403 . S
C4092 C4093 1.404 . S
C4092 C4095 1.539 . S
C4093 C4089 1.408 . S
C4093 C4092 1.404 . S
C4093 H4105 0.930 . S
C4094 C4090 1.524 . S
C4094 H4106 0.956 . S
C4094 H4107 0.961 . S
C4094 H4108 0.961 . S
C4095 C4092 1.539 . S
C4095 H4109 0.958 . S
C4095 H4110 0.961 . S
C4095 H4111 0.960 . S
H4096 C4080 0.931 . S
H4097 C4085 0.929 . S
H4098 C4086 0.960 . S
H4099 C4086 0.962 . S
H4100 C4086 0.960 . S
H4101 C4087 0.961 . S
H4102 C4087 0.961 . S
H4103 C4087 0.961 . S
H4104 C4088 0.931 . S
H4105 C4093 0.930 . S
H4106 C4094 0.956 . S
H4107 C4094 0.961 . S
H4108 C4094 0.961 . S
H4109 C4095 0.958 . S
H4110 C4095 0.961 . S
H4111 C4095 0.960 . S
C4112 C4113 1.391 . S
C4112 C4114 1.394 . S
C4112 H4128 0.931 . S
C4113 C4112 1.391 . S
C4113 C4117 1.376 . S
C4114 C4112 1.394 . S
C4114 C4115 1.369 . S
C4114 C4118 1.531 . S
C4115 C4114 1.369 . S
C4115 C4116 1.410 . S
C4115 C4123 1.503 . S
C4116 C4115 1.410 . S
C4116 C4117 1.392 . S
C4116 C4119 1.511 . S
C4117 C4113 1.376 . S
C4117 C4116 1.392 . S
C4117 H4129 0.929 . S
C4118 C4114 1.531 . S
C4118 H4130 0.960 . S
C4118 H4131 0.962 . S
C4118 H4132 0.960 . S
C4119 C4116 1.511 . S
C4119 H4133 0.961 . S
C4119 H4134 0.961 . S
C4119 H4135 0.961 . S
C4120 C4121 1.370 . S
C4120 C4122 1.363 . S
C4120 H4136 0.931 . S
C4121 C4120 1.370 . S
C4121 C4125 1.408 . S
C4122 C4120 1.363 . S
C4122 C4123 1.370 . S
C4122 C4126 1.524 . S
C4123 C4115 1.503 . S
C4123 C4122 1.370 . S
C4123 C4124 1.403 . S
C4124 C4123 1.403 . S
C4124 C4125 1.404 . S
C4124 C4127 1.539 . S
C4125 C4121 1.408 . S
C4125 C4124 1.404 . S
C4125 H4137 0.930 1_556 S
C4126 C4122 1.524 . S
C4126 H4138 0.956 . S
C4126 H4139 0.961 . S
C4126 H4140 0.961 . S
C4127 C4124 1.539 . S
C4127 H4141 0.961 1_556 S
C4127 H4142 0.961 . S
C4127 H4143 0.960 . S
H4128 C4112 0.931 . S
H4129 C4117 0.929 . S
H4130 C4118 0.960 . S
H4131 C4118 0.962 . S
H4132 C4118 0.960 . S
H4133 C4119 0.961 . S
H4134 C4119 0.961 . S
H4135 C4119 0.961 . S
H4136 C4120 0.931 . S
H4137 C4125 0.930 1_554 S
H4138 C4126 0.956 . S
H4139 C4126 0.961 . S
H4140 C4126 0.961 . S
H4141 C4127 0.961 1_554 S
H4142 C4127 0.961 . S
H4143 C4127 0.960 . S
C4144 C4145 1.391 . S
C4144 C4146 1.394 . S
C4144 H4160 0.931 . S
C4145 C4144 1.391 . S
C4145 C4149 1.376 . S
C4146 C4144 1.394 . S
C4146 C4147 1.369 . S
C4146 C4150 1.531 . S
C4147 C4146 1.369 . S
C4147 C4148 1.410 . S
C4147 C4155 1.503 . S
C4148 C4147 1.410 . S
C4148 C4149 1.392 . S
C4148 C4151 1.511 . S
C4149 C4145 1.376 . S
C4149 C4148 1.392 . S
C4149 H4161 0.929 . S
C4150 C4146 1.531 . S
C4150 H4162 0.960 . S
C4150 H4163 0.962 . S
C4150 H4164 0.960 . S
C4151 C4148 1.511 . S
C4151 H4165 0.961 . S
C4151 H4166 0.961 . S
C4151 H4167 0.961 . S
C4152 C4153 1.370 . S
C4152 C4154 1.363 . S
C4152 H4168 0.931 . S
C4153 C4152 1.370 . S
C4153 C4157 1.408 . S
C4154 C4152 1.363 . S
C4154 C4155 1.370 . S
C4154 C4158 1.524 . S
C4155 C4147 1.503 . S
C4155 C4154 1.370 . S
C4155 C4156 1.403 . S
C4156 C4155 1.403 . S
C4156 C4157 1.404 . S
C4156 C4159 1.539 . S
C4157 C4153 1.408 . S
C4157 C4156 1.404 . S
C4157 H4169 0.930 . S
C4158 C4154 1.524 . S
C4158 H4170 0.956 . S
C4158 H4171 0.961 . S
C4158 H4172 0.961 . S
C4159 C4156 1.539 . S
C4159 H4173 0.958 . S
C4159 H4174 0.961 . S
C4159 H4175 0.960 . S
H4160 C4144 0.931 . S
H4161 C4149 0.929 . S
H4162 C4150 0.960 . S
H4163 C4150 0.962 . S
H4164 C4150 0.960 . S
H4165 C4151 0.961 . S
H4166 C4151 0.961 . S
H4167 C4151 0.961 . S
H4168 C4152 0.931 . S
H4169 C4157 0.930 . S
H4170 C4158 0.956 . S
H4171 C4158 0.961 . S
H4172 C4158 0.961 . S
H4173 C4159 0.958 . S
H4174 C4159 0.961 . S
H4175 C4159 0.960 . S
C4176 C4177 1.391 . S
C4176 C4178 1.394 . S
C4176 H4192 0.931 . S
C4177 C4176 1.391 . S
C4177 C4181 1.376 . S
C4178 C4176 1.394 . S
C4178 C4179 1.369 . S
C4178 C4182 1.531 . S
C4179 C4178 1.369 . S
C4179 C4180 1.410 . S
C4179 C4187 1.503 . S
C4180 C4179 1.410 . S
C4180 C4181 1.392 . S
C4180 C4183 1.511 . S
C4181 C4177 1.376 . S
C4181 C4180 1.392 . S
C4181 H4193 0.929 . S
C4182 C4178 1.531 . S
C4182 H4194 0.960 . S
C4182 H4195 0.962 . S
C4182 H4196 0.960 . S
C4183 C4180 1.511 . S
C4183 H4197 0.961 . S
C4183 H4198 0.961 . S
C4183 H4199 0.961 . S
C4184 C4185 1.370 . S
C4184 C4186 1.363 . S
C4184 H4200 0.931 . S
C4185 C4184 1.370 . S
C4185 C4189 1.408 . S
C4186 C4184 1.363 . S
C4186 C4187 1.370 . S
C4186 C4190 1.524 . S
C4187 C4179 1.503 . S
C4187 C4186 1.370 . S
C4187 C4188 1.403 . S
C4188 C4187 1.403 . S
C4188 C4189 1.404 . S
C4188 C4191 1.539 . S
C4189 C4185 1.408 . S
C4189 C4188 1.404 . S
C4189 H4201 0.930 . S
C4190 C4186 1.524 . S
C4190 H4202 0.956 . S
C4190 H4203 0.961 . S
C4190 H4204 0.961 . S
C4191 C4188 1.539 . S
C4191 H4205 0.958 . S
C4191 H4206 0.961 . S
C4191 H4207 0.960 . S
H4192 C4176 0.931 . S
H4193 C4181 0.929 . S
H4194 C4182 0.960 . S
H4195 C4182 0.962 . S
H4196 C4182 0.960 . S
H4197 C4183 0.961 . S
H4198 C4183 0.961 . S
H4199 C4183 0.961 . S
H4200 C4184 0.931 . S
H4201 C4189 0.930 . S
H4202 C4190 0.956 . S
H4203 C4190 0.961 . S
H4204 C4190 0.961 . S
H4205 C4191 0.958 . S
H4206 C4191 0.961 . S
H4207 C4191 0.960 . S
C4208 C4209 1.391 . S
C4208 C4210 1.394 . S
C4208 H4224 0.931 . S
C4209 C4208 1.391 . S
C4209 C4213 1.376 . S
C4210 C4208 1.394 . S
C4210 C4211 1.369 . S
C4210 C4214 1.531 . S
C4211 C4210 1.369 . S
C4211 C4212 1.410 . S
C4211 C4219 1.503 . S
C4212 C4211 1.410 . S
C4212 C4213 1.392 . S
C4212 C4215 1.511 . S
C4213 C4209 1.376 . S
C4213 C4212 1.392 . S
C4213 H4225 0.929 . S
C4214 C4210 1.531 . S
C4214 H4226 0.960 . S
C4214 H4227 0.962 . S
C4214 H4228 0.960 . S
C4215 C4212 1.511 . S
C4215 H4229 0.961 . S
C4215 H4230 0.961 . S
C4215 H4231 0.961 . S
C4216 C4217 1.370 . S
C4216 C4218 1.363 . S
C4216 H4232 0.931 . S
C4217 C4216 1.370 . S
C4217 C4221 1.408 . S
C4218 C4216 1.363 . S
C4218 C4219 1.370 . S
C4218 C4222 1.524 . S
C4219 C4211 1.503 . S
C4219 C4218 1.370 . S
C4219 C4220 1.403 . S
C4220 C4219 1.403 . S
C4220 C4221 1.404 . S
C4220 C4223 1.539 . S
C4221 C4217 1.408 . S
C4221 C4220 1.404 . S
C4221 H4233 0.930 . S
C4222 C4218 1.524 . S
C4222 H4234 0.956 . S
C4222 H4235 0.961 . S
C4222 H4236 0.961 . S
C4223 C4220 1.539 . S
C4223 H4237 0.958 . S
C4223 H4238 0.961 . S
C4223 H4239 0.960 . S
H4224 C4208 0.931 . S
H4225 C4213 0.929 . S
H4226 C4214 0.960 . S
H4227 C4214 0.962 . S
H4228 C4214 0.960 . S
H4229 C4215 0.961 . S
H4230 C4215 0.961 . S
H4231 C4215 0.961 . S
H4232 C4216 0.931 . S
H4233 C4221 0.930 . S
H4234 C4222 0.956 . S
H4235 C4222 0.961 . S
H4236 C4222 0.961 . S
H4237 C4223 0.958 . S
H4238 C4223 0.961 . S
H4239 C4223 0.960 . S
C4240 C4241 1.391 . S
C4240 C4242 1.394 . S
C4240 H4256 0.931 . S
C4241 C4240 1.391 . S
C4241 C4245 1.376 . S
C4242 C4240 1.394 . S
C4242 C4243 1.369 . S
C4242 C4246 1.531 . S
C4243 C4242 1.369 . S
C4243 C4244 1.410 . S
C4243 C4251 1.503 . S
C4244 C4243 1.410 . S
C4244 C4245 1.392 . S
C4244 C4247 1.511 . S
C4245 C4241 1.376 . S
C4245 C4244 1.392 . S
C4245 H4257 0.929 . S
C4246 C4242 1.531 . S
C4246 H4258 0.960 . S
C4246 H4259 0.962 . S
C4246 H4260 0.960 . S
C4247 C4244 1.511 . S
C4247 H4261 0.961 . S
C4247 H4262 0.961 . S
C4247 H4263 0.961 . S
C4248 C4249 1.370 . S
C4248 C4250 1.363 . S
C4248 H4264 0.931 . S
C4249 C4248 1.370 . S
C4249 C4253 1.408 . S
C4250 C4248 1.363 . S
C4250 C4251 1.370 . S
C4250 C4254 1.524 . S
C4251 C4243 1.503 . S
C4251 C4250 1.370 . S
C4251 C4252 1.403 . S
C4252 C4251 1.403 . S
C4252 C4253 1.404 . S
C4252 C4255 1.539 . S
C4253 C4249 1.408 . S
C4253 C4252 1.404 . S
C4253 H4265 0.930 . S
C4254 C4250 1.524 . S
C4254 H4266 0.956 . S
C4254 H4267 0.961 . S
C4254 H4268 0.961 . S
C4255 C4252 1.539 . S
C4255 H4269 0.958 . S
C4255 H4270 0.961 . S
C4255 H4271 0.960 . S
H4256 C4240 0.931 . S
H4257 C4245 0.929 . S
H4258 C4246 0.960 . S
H4259 C4246 0.962 . S
H4260 C4246 0.960 . S
H4261 C4247 0.961 . S
H4262 C4247 0.961 . S
H4263 C4247 0.961 . S
H4264 C4248 0.931 . S
H4265 C4253 0.930 . S
H4266 C4254 0.956 . S
H4267 C4254 0.961 . S
H4268 C4254 0.961 . S
H4269 C4255 0.958 . S
H4270 C4255 0.961 . S
H4271 C4255 0.960 . S
C4272 C4273 1.391 . S
C4272 C4274 1.394 . S
C4272 H4288 0.931 . S
C4273 C4272 1.391 . S
C4273 C4277 1.376 . S
C4274 C4272 1.394 . S
C4274 C4275 1.369 . S
C4274 C4278 1.531 . S
C4275 C4274 1.369 . S
C4275 C4276 1.410 . S
C4275 C4283 1.503 . S
C4276 C4275 1.410 . S
C4276 C4277 1.392 . S
C4276 C4279 1.511 . S
C4277 C4273 1.376 . S
C4277 C4276 1.392 . S
C4277 H4289 0.929 . S
C4278 C4274 1.531 . S
C4278 H4290 0.960 . S
C4278 H4291 0.962 . S
C4278 H4292 0.960 . S
C4279 C4276 1.511 . S
C4279 H4293 0.961 . S
C4279 H4294 0.961 . S
C4279 H4295 0.961 . S
C4280 C4281 1.370 . S
C4280 C4282 1.363 . S
C4280 H4296 0.931 . S
C4281 C4280 1.370 . S
C4281 C4285 1.408 . S
C4282 C4280 1.363 . S
C4282 C4283 1.370 . S
C4282 C4286 1.524 . S
C4283 C4275 1.503 . S
C4283 C4282 1.370 . S
C4283 C4284 1.403 . S
C4284 C4283 1.403 . S
C4284 C4285 1.404 . S
C4284 C4287 1.539 . S
C4285 C4281 1.408 . S
C4285 C4284 1.404 . S
C4285 H4297 0.930 . S
C4286 C4282 1.524 . S
C4286 H4298 0.956 . S
C4286 H4299 0.961 . S
C4286 H4300 0.961 . S
C4287 C4284 1.539 . S
C4287 H4301 0.958 . S
C4287 H4302 0.961 . S
C4287 H4303 0.960 . S
H4288 C4272 0.931 . S
H4289 C4277 0.929 . S
H4290 C4278 0.960 . S
H4291 C4278 0.962 . S
H4292 C4278 0.960 . S
H4293 C4279 0.961 . S
H4294 C4279 0.961 . S
H4295 C4279 0.961 . S
H4296 C4280 0.931 . S
H4297 C4285 0.930 . S
H4298 C4286 0.956 . S
H4299 C4286 0.961 . S
H4300 C4286 0.961 . S
H4301 C4287 0.958 . S
H4302 C4287 0.961 . S
H4303 C4287 0.960 . S
C4304 C4305 1.391 . S
C4304 C4306 1.394 . S
C4304 H4320 0.931 . S
C4305 C4304 1.391 . S
C4305 C4309 1.376 . S
C4306 C4304 1.394 . S
C4306 C4307 1.369 . S
C4306 C4310 1.531 . S
C4307 C4306 1.369 . S
C4307 C4308 1.410 . S
C4307 C4315 1.503 . S
C4308 C4307 1.410 . S
C4308 C4309 1.392 . S
C4308 C4311 1.511 . S
C4309 C4305 1.376 . S
C4309 C4308 1.392 . S
C4309 H4321 0.929 . S
C4310 C4306 1.531 . S
C4310 H4322 0.960 . S
C4310 H4323 0.962 . S
C4310 H4324 0.960 . S
C4311 C4308 1.511 . S
C4311 H4325 0.961 . S
C4311 H4326 0.961 . S
C4311 H4327 0.961 . S
C4312 C4313 1.370 . S
C4312 C4314 1.363 . S
C4312 H4328 0.931 . S
C4313 C4312 1.370 . S
C4313 C4317 1.408 . S
C4314 C4312 1.363 . S
C4314 C4315 1.370 1_455 S
C4314 C4318 1.524 . S
C4315 C4307 1.503 . S
C4315 C4314 1.370 1_655 S
C4315 C4316 1.403 . S
C4316 C4315 1.403 . S
C4316 C4317 1.404 1_655 S
C4316 C4319 1.539 . S
C4317 C4313 1.408 . S
C4317 C4316 1.404 1_455 S
C4317 H4329 0.926 1_455 S
C4318 C4314 1.524 . S
C4318 H4330 0.956 . S
C4318 H4331 0.961 . S
C4318 H4332 0.961 . S
C4319 C4316 1.539 . S
C4319 H4333 0.958 . S
C4319 H4334 0.961 . S
C4319 H4335 0.960 . S
H4320 C4304 0.931 . S
H4321 C4309 0.929 . S
H4322 C4310 0.960 . S
H4323 C4310 0.962 . S
H4324 C4310 0.960 . S
H4325 C4311 0.961 . S
H4326 C4311 0.961 . S
H4327 C4311 0.961 . S
H4328 C4312 0.931 . S
H4329 C4317 0.926 1_655 S
H4330 C4318 0.956 . S
H4331 C4318 0.961 . S
H4332 C4318 0.961 . S
H4333 C4319 0.958 . S
H4334 C4319 0.961 . S
H4335 C4319 0.960 . S
C4336 C4337 1.391 . S
C4336 C4338 1.394 . S
C4336 H4352 0.931 . S
C4337 C4336 1.391 . S
C4337 C4341 1.376 . S
C4338 C4336 1.394 . S
C4338 C4339 1.369 . S
C4338 C4342 1.531 . S
C4339 C4338 1.369 . S
C4339 C4340 1.410 . S
C4339 C4347 1.503 . S
C4340 C4339 1.410 . S
C4340 C4341 1.392 . S
C4340 C4343 1.511 . S
C4341 C4337 1.376 . S
C4341 C4340 1.392 . S
C4341 H4353 0.929 . S
C4342 C4338 1.531 . S
C4342 H4354 0.960 . S
C4342 H4355 0.962 . S
C4342 H4356 0.960 . S
C4343 C4340 1.511 . S
C4343 H4357 0.961 . S
C4343 H4358 0.961 . S
C4343 H4359 0.961 . S
C4344 C4345 1.370 . S
C4344 C4346 1.363 . S
C4344 H4360 0.931 . S
C4345 C4344 1.370 . S
C4345 C4349 1.408 . S
C4346 C4344 1.363 . S
C4346 C4347 1.370 . S
C4346 C4350 1.524 . S
C4347 C4339 1.503 . S
C4347 C4346 1.370 . S
C4347 C4348 1.403 . S
C4348 C4347 1.403 . S
C4348 C4349 1.404 . S
C4348 C4351 1.539 . S
C4349 C4345 1.408 . S
C4349 C4348 1.404 . S
C4349 H4361 0.930 . S
C4350 C4346 1.524 . S
C4350 H4362 0.956 . S
C4350 H4363 0.961 . S
C4350 H4364 0.961 . S
C4351 C4348 1.539 . S
C4351 H4365 0.958 . S
C4351 H4366 0.961 . S
C4351 H4367 0.960 . S
H4352 C4336 0.931 . S
H4353 C4341 0.929 . S
H4354 C4342 0.960 . S
H4355 C4342 0.962 . S
H4356 C4342 0.960 . S
H4357 C4343 0.961 . S
H4358 C4343 0.961 . S
H4359 C4343 0.961 . S
H4360 C4344 0.931 . S
H4361 C4349 0.930 . S
H4362 C4350 0.956 . S
H4363 C4350 0.961 . S
H4364 C4350 0.961 . S
H4365 C4351 0.958 . S
H4366 C4351 0.961 . S
H4367 C4351 0.960 . S
C4368 C4369 1.391 . S
C4368 C4370 1.394 . S
C4368 H4384 0.931 . S
C4369 C4368 1.391 . S
C4369 C4373 1.376 . S
C4370 C4368 1.394 . S
C4370 C4371 1.369 . S
C4370 C4374 1.531 . S
C4371 C4370 1.369 . S
C4371 C4372 1.410 . S
C4371 C4379 1.503 . S
C4372 C4371 1.410 . S
C4372 C4373 1.392 . S
C4372 C4375 1.511 . S
C4373 C4369 1.376 . S
C4373 C4372 1.392 . S
C4373 H4385 0.929 . S
C4374 C4370 1.531 . S
C4374 H4386 0.960 . S
C4374 H4387 0.962 . S
C4374 H4388 0.960 . S
C4375 C4372 1.511 . S
C4375 H4389 0.961 . S
C4375 H4390 0.961 . S
C4375 H4391 0.961 . S
C4376 C4377 1.370 . S
C4376 C4378 1.363 . S
C4376 H4392 0.931 . S
C4377 C4376 1.370 . S
C4377 C4381 1.408 . S
C4378 C4376 1.363 . S
C4378 C4379 1.370 . S
C4378 C4382 1.524 . S
C4379 C4371 1.503 . S
C4379 C4378 1.370 . S
C4379 C4380 1.403 . S
C4380 C4379 1.403 . S
C4380 C4381 1.404 . S
C4380 C4383 1.539 . S
C4381 C4377 1.408 . S
C4381 C4380 1.404 . S
C4381 H4393 0.930 . S
C4382 C4378 1.524 . S
C4382 H4394 0.956 . S
C4382 H4395 0.961 . S
C4382 H4396 0.961 . S
C4383 C4380 1.539 . S
C4383 H4397 0.958 . S
C4383 H4398 0.961 . S
C4383 H4399 0.960 . S
H4384 C4368 0.931 . S
H4385 C4373 0.929 . S
H4386 C4374 0.960 . S
H4387 C4374 0.962 . S
H4388 C4374 0.960 . S
H4389 C4375 0.961 . S
H4390 C4375 0.961 . S
H4391 C4375 0.961 . S
H4392 C4376 0.931 . S
H4393 C4381 0.930 . S
H4394 C4382 0.956 . S
H4395 C4382 0.961 . S
H4396 C4382 0.961 . S
H4397 C4383 0.958 . S
H4398 C4383 0.961 . S
H4399 C4383 0.960 . S
C4400 C4401 1.391 . S
C4400 C4402 1.394 . S
C4400 H4416 0.931 . S
C4401 C4400 1.391 . S
C4401 C4405 1.376 . S
C4402 C4400 1.394 . S
C4402 C4403 1.369 . S
C4402 C4406 1.531 . S
C4403 C4402 1.369 . S
C4403 C4404 1.410 . S
C4403 C4411 1.503 . S
C4404 C4403 1.410 . S
C4404 C4405 1.392 . S
C4404 C4407 1.511 . S
C4405 C4401 1.376 . S
C4405 C4404 1.392 . S
C4405 H4417 0.929 . S
C4406 C4402 1.531 . S
C4406 H4418 0.960 . S
C4406 H4419 0.962 . S
C4406 H4420 0.960 . S
C4407 C4404 1.511 . S
C4407 H4421 0.961 . S
C4407 H4422 0.961 . S
C4407 H4423 0.961 . S
C4408 C4409 1.370 . S
C4408 C4410 1.363 . S
C4408 H4424 0.931 . S
C4409 C4408 1.370 . S
C4409 C4413 1.408 . S
C4410 C4408 1.363 . S
C4410 C4411 1.370 . S
C4410 C4414 1.524 . S
C4411 C4403 1.503 . S
C4411 C4410 1.370 . S
C4411 C4412 1.403 . S
C4412 C4411 1.403 . S
C4412 C4413 1.404 . S
C4412 C4415 1.539 . S
C4413 C4409 1.408 . S
C4413 C4412 1.404 . S
C4413 H4425 0.930 . S
C4414 C4410 1.524 . S
C4414 H4426 0.956 . S
C4414 H4427 0.961 . S
C4414 H4428 0.961 . S
C4415 C4412 1.539 . S
C4415 H4429 0.958 . S
C4415 H4430 0.961 . S
C4415 H4431 0.960 . S
H4416 C4400 0.931 . S
H4417 C4405 0.929 . S
H4418 C4406 0.960 . S
H4419 C4406 0.962 . S
H4420 C4406 0.960 . S
H4421 C4407 0.961 . S
H4422 C4407 0.961 . S
H4423 C4407 0.961 . S
H4424 C4408 0.931 . S
H4425 C4413 0.930 . S
H4426 C4414 0.956 . S
H4427 C4414 0.961 . S
H4428 C4414 0.961 . S
H4429 C4415 0.958 . S
H4430 C4415 0.961 . S
H4431 C4415 0.960 . S
C4432 C4433 1.391 . S
C4432 C4434 1.394 . S
C4432 H4448 0.931 . S
C4433 C4432 1.391 . S
C4433 C4437 1.376 . S
C4434 C4432 1.394 . S
C4434 C4435 1.369 . S
C4434 C4438 1.531 . S
C4435 C4434 1.369 . S
C4435 C4436 1.410 . S
C4435 C4443 1.503 . S
C4436 C4435 1.410 . S
C4436 C4437 1.392 . S
C4436 C4439 1.511 . S
C4437 C4433 1.376 . S
C4437 C4436 1.392 . S
C4437 H4449 0.929 . S
C4438 C4434 1.531 . S
C4438 H4450 0.960 . S
C4438 H4451 0.962 . S
C4438 H4452 0.960 . S
C4439 C4436 1.511 . S
C4439 H4453 0.961 . S
C4439 H4454 0.963 . S
C4439 H4455 0.961 1_655 S
C4440 C4441 1.370 . S
C4440 C4442 1.363 . S
C4440 H4456 0.931 . S
C4441 C4440 1.370 . S
C4441 C4445 1.408 . S
C4442 C4440 1.363 . S
C4442 C4443 1.370 . S
C4442 C4446 1.524 . S
C4443 C4435 1.503 . S
C4443 C4442 1.370 . S
C4443 C4444 1.403 . S
C4444 C4443 1.403 . S
C4444 C4445 1.404 . S
C4444 C4447 1.539 . S
C4445 C4441 1.408 . S
C4445 C4444 1.404 . S
C4445 H4457 0.930 1_655 S
C4446 C4442 1.524 . S
C4446 H4458 0.956 . S
C4446 H4459 0.961 . S
C4446 H4460 0.961 . S
C4447 C4444 1.539 . S
C4447 H4461 0.958 . S
C4447 H4462 0.961 1_655 S
C4447 H4463 0.960 . S
H4448 C4432 0.931 . S
H4449 C4437 0.929 . S
H4450 C4438 0.960 . S
H4451 C4438 0.962 . S
H4452 C4438 0.960 . S
H4453 C4439 0.961 . S
H4454 C4439 0.963 . S
H4455 C4439 0.961 1_455 S
H4456 C4440 0.931 . S
H4457 C4445 0.930 1_455 S
H4458 C4446 0.956 . S
H4459 C4446 0.961 . S
H4460 C4446 0.961 . S
H4461 C4447 0.958 . S
H4462 C4447 0.961 1_455 S
H4463 C4447 0.960 . S
C4464 C4465 1.391 . S
C4464 C4466 1.394 . S
C4464 H4480 0.931 . S
C4465 C4464 1.391 . S
C4465 C4469 1.376 . S
C4466 C4464 1.394 . S
C4466 C4467 1.369 . S
C4466 C4470 1.531 . S
C4467 C4466 1.369 . S
C4467 C4468 1.410 . S
C4467 C4475 1.503 . S
C4468 C4467 1.410 . S
C4468 C4469 1.392 . S
C4468 C4471 1.511 . S
C4469 C4465 1.376 . S
C4469 C4468 1.392 . S
C4469 H4481 0.929 . S
C4470 C4466 1.531 . S
C4470 H4482 0.960 . S
C4470 H4483 0.962 . S
C4470 H4484 0.960 . S
C4471 C4468 1.511 . S
C4471 H4485 0.961 . S
C4471 H4486 0.961 . S
C4471 H4487 0.961 . S
C4472 C4473 1.370 . S
C4472 C4474 1.363 . S
C4472 H4488 0.931 . S
C4473 C4472 1.370 . S
C4473 C4477 1.408 . S
C4474 C4472 1.363 . S
C4474 C4475 1.370 . S
C4474 C4478 1.524 . S
C4475 C4467 1.503 . S
C4475 C4474 1.370 . S
C4475 C4476 1.403 . S
C4476 C4475 1.403 . S
C4476 C4477 1.404 . S
C4476 C4479 1.539 . S
C4477 C4473 1.408 . S
C4477 C4476 1.404 . S
C4477 H4489 0.930 . S
C4478 C4474 1.524 . S
C4478 H4490 0.956 . S
C4478 H4491 0.961 . S
C4478 H4492 0.961 . S
C4479 C4476 1.539 . S
C4479 H4493 0.958 . S
C4479 H4494 0.961 . S
C4479 H4495 0.960 . S
H4480 C4464 0.931 . S
H4481 C4469 0.929 . S
H4482 C4470 0.960 . S
H4483 C4470 0.962 . S
H4484 C4470 0.960 . S
H4485 C4471 0.961 . S
H4486 C4471 0.961 . S
H4487 C4471 0.961 . S
H4488 C4472 0.931 . S
H4489 C4477 0.930 . S
H4490 C4478 0.956 . S
H4491 C4478 0.961 . S
H4492 C4478 0.961 . S
H4493 C4479 0.958 . S
H4494 C4479 0.961 . S
H4495 C4479 0.960 . S
C4496 C4497 1.391 . S
C4496 C4498 1.394 . S
C4496 H4512 0.931 . S
C4497 C4496 1.391 . S
C4497 C4501 1.376 . S
C4498 C4496 1.394 . S
C4498 C4499 1.369 . S
C4498 C4502 1.531 . S
C4499 C4498 1.369 . S
C4499 C4500 1.410 . S
C4499 C4507 1.503 . S
C4500 C4499 1.410 . S
C4500 C4501 1.392 . S
C4500 C4503 1.511 . S
C4501 C4497 1.376 . S
C4501 C4500 1.392 . S
C4501 H4513 0.929 . S
C4502 C4498 1.531 . S
C4502 H4514 0.960 . S
C4502 H4515 0.962 . S
C4502 H4516 0.960 . S
C4503 C4500 1.511 . S
C4503 H4517 0.961 . S
C4503 H4518 0.961 . S
C4503 H4519 0.961 . S
C4504 C4505 1.370 . S
C4504 C4506 1.363 . S
C4504 H4520 0.931 . S
C4505 C4504 1.370 . S
C4505 C4509 1.408 . S
C4506 C4504 1.363 . S
C4506 C4507 1.370 . S
C4506 C4510 1.524 . S
C4507 C4499 1.503 . S
C4507 C4506 1.370 . S
C4507 C4508 1.403 . S
C4508 C4507 1.403 . S
C4508 C4509 1.404 . S
C4508 C4511 1.539 . S
C4509 C4505 1.408 . S
C4509 C4508 1.404 . S
C4509 H4521 0.930 . S
C4510 C4506 1.524 . S
C4510 H4522 0.956 . S
C4510 H4523 0.961 . S
C4510 H4524 0.961 . S
C4511 C4508 1.539 . S
C4511 H4525 0.958 . S
C4511 H4526 0.961 . S
C4511 H4527 0.960 . S
H4512 C4496 0.931 . S
H4513 C4501 0.929 . S
H4514 C4502 0.960 . S
H4515 C4502 0.962 . S
H4516 C4502 0.960 . S
H4517 C4503 0.961 . S
H4518 C4503 0.961 . S
H4519 C4503 0.961 . S
H4520 C4504 0.931 . S
H4521 C4509 0.930 . S
H4522 C4510 0.956 . S
H4523 C4510 0.961 . S
H4524 C4510 0.961 . S
H4525 C4511 0.958 . S
H4526 C4511 0.961 . S
H4527 C4511 0.960 . S
C4528 C4529 1.391 . S
C4528 C4530 1.394 . S
C4528 H4544 0.931 . S
C4529 C4528 1.391 . S
C4529 C4533 1.376 . S
C4530 C4528 1.394 . S
C4530 C4531 1.369 . S
C4530 C4534 1.531 . S
C4531 C4530 1.369 . S
C4531 C4532 1.410 . S
C4531 C4539 1.503 . S
C4532 C4531 1.410 . S
C4532 C4533 1.392 . S
C4532 C4535 1.511 . S
C4533 C4529 1.376 . S
C4533 C4532 1.392 . S
C4533 H4545 0.929 . S
C4534 C4530 1.531 . S
C4534 H4546 0.960 . S
C4534 H4547 0.962 . S
C4534 H4548 0.960 . S
C4535 C4532 1.511 . S
C4535 H4549 0.961 . S
C4535 H4550 0.961 . S
C4535 H4551 0.961 . S
C4536 C4537 1.370 . S
C4536 C4538 1.363 . S
C4536 H4552 0.931 1_565 S
C4537 C4536 1.370 . S
C4537 C4541 1.408 . S
C4538 C4536 1.363 . S
C4538 C4539 1.370 . S
C4538 C4542 1.524 . S
C4539 C4531 1.503 . S
C4539 C4538 1.370 . S
C4539 C4540 1.403 . S
C4540 C4539 1.403 . S
C4540 C4541 1.404 . S
C4540 C4543 1.539 . S
C4541 C4537 1.408 . S
C4541 C4540 1.404 . S
C4541 H4553 0.930 1_655 S
C4542 C4538 1.524 . S
C4542 H4554 0.956 . S
C4542 H4555 0.961 . S
C4542 H4556 0.961 1_565 S
C4543 C4540 1.539 . S
C4543 H4557 0.958 . S
C4543 H4558 0.961 . S
C4543 H4559 0.960 . S
H4544 C4528 0.931 . S
H4545 C4533 0.929 . S
H4546 C4534 0.960 . S
H4547 C4534 0.962 . S
H4548 C4534 0.960 . S
H4549 C4535 0.961 . S
H4550 C4535 0.961 . S
H4551 C4535 0.961 . S
H4552 C4536 0.931 1_545 S
H4553 C4541 0.930 1_455 S
H4554 C4542 0.956 . S
H4555 C4542 0.961 . S
H4556 C4542 0.961 1_545 S
H4557 C4543 0.958 . S
H4558 C4543 0.961 . S
H4559 C4543 0.960 . S
C4560 C4561 1.391 . S
C4560 C4562 1.394 . S
C4560 H4576 0.931 . S
C4561 C4560 1.391 . S
C4561 C4565 1.376 . S
C4562 C4560 1.394 . S
C4562 C4563 1.369 . S
C4562 C4566 1.531 . S
C4563 C4562 1.369 . S
C4563 C4564 1.410 . S
C4563 C4571 1.503 . S
C4564 C4563 1.410 . S
C4564 C4565 1.392 . S
C4564 C4567 1.511 . S
C4565 C4561 1.376 . S
C4565 C4564 1.392 . S
C4565 H4577 0.929 . S
C4566 C4562 1.531 . S
C4566 H4578 0.960 . S
C4566 H4579 0.962 . S
C4566 H4580 0.960 . S
C4567 C4564 1.511 . S
C4567 H4581 0.961 . S
C4567 H4582 0.961 . S
C4567 H4583 0.961 . S
C4568 C4569 1.370 . S
C4568 C4570 1.363 . S
C4568 H4584 0.931 . S
C4569 C4568 1.370 . S
C4569 C4573 1.408 . S
C4570 C4568 1.363 . S
C4570 C4571 1.370 . S
C4570 C4574 1.524 . S
C4571 C4563 1.503 . S
C4571 C4570 1.370 . S
C4571 C4572 1.403 . S
C4572 C4571 1.403 . S
C4572 C4573 1.404 . S
C4572 C4575 1.539 . S
C4573 C4569 1.408 . S
C4573 C4572 1.404 . S
C4573 H4585 0.930 . S
C4574 C4570 1.524 . S
C4574 H4586 0.956 . S
C4574 H4587 0.961 . S
C4574 H4588 0.961 . S
C4575 C4572 1.539 . S
C4575 H4589 0.958 . S
C4575 H4590 0.961 . S
C4575 H4591 0.960 . S
H4576 C4560 0.931 . S
H4577 C4565 0.929 . S
H4578 C4566 0.960 . S
H4579 C4566 0.962 . S
H4580 C4566 0.960 . S
H4581 C4567 0.961 . S
H4582 C4567 0.961 . S
H4583 C4567 0.961 . S
H4584 C4568 0.931 . S
H4585 C4573 0.930 . S
H4586 C4574 0.956 . S
H4587 C4574 0.961 . S
H4588 C4574 0.961 . S
H4589 C4575 0.958 . S
H4590 C4575 0.961 . S
H4591 C4575 0.960 . S
C4592 C4593 1.391 . S
C4592 C4594 1.394 . S
C4592 H4608 0.931 1_554 S
C4593 C4592 1.391 . S
C4593 C4597 1.376 . S
C4594 C4592 1.394 . S
C4594 C4595 1.369 . S
C4594 C4598 1.531 1_554 S
C4595 C4594 1.369 . S
C4595 C4596 1.410 . S
C4595 C4603 1.503 . S
C4596 C4595 1.410 . S
C4596 C4597 1.392 . S
C4596 C4599 1.511 . S
C4597 C4593 1.376 . S
C4597 C4596 1.392 . S
C4597 H4609 0.929 . S
C4598 C4594 1.531 1_556 S
C4598 H4610 0.960 . S
C4598 H4611 0.962 . S
C4598 H4612 0.960 . S
C4599 C4596 1.511 . S
C4599 H4613 0.961 . S
C4599 H4614 0.961 . S
C4599 H4615 0.961 . S
C4600 C4601 1.370 . S
C4600 C4602 1.363 . S
C4600 H4616 0.931 . S
C4601 C4600 1.370 . S
C4601 C4605 1.408 . S
C4602 C4600 1.363 . S
C4602 C4603 1.370 . S
C4602 C4606 1.524 . S
C4603 C4595 1.503 . S
C4603 C4602 1.370 . S
C4603 C4604 1.403 . S
C4604 C4603 1.403 . S
C4604 C4605 1.404 . S
C4604 C4607 1.539 1_554 S
C4605 C4601 1.408 . S
C4605 C4604 1.404 . S
C4605 H4617 0.930 1_554 S
C4606 C4602 1.524 . S
C4606 H4618 0.956 . S
C4606 H4619 0.961 . S
C4606 H4620 0.961 . S
C4607 C4604 1.539 1_556 S
C4607 H4621 0.958 . S
C4607 H4622 0.961 . S
C4607 H4623 0.960 . S
H4608 C4592 0.931 1_556 S
H4609 C4597 0.929 . S
H4610 C4598 0.960 . S
H4611 C4598 0.962 . S
H4612 C4598 0.960 . S
H4613 C4599 0.961 . S
H4614 C4599 0.961 . S
H4615 C4599 0.961 . S
H4616 C4600 0.931 . S
H4617 C4605 0.930 1_556 S
H4618 C4606 0.956 . S
H4619 C4606 0.961 . S
H4620 C4606 0.961 . S
H4621 C4607 0.958 . S
H4622 C4607 0.961 . S
H4623 C4607 0.960 . S
C4624 C4625 1.391 . S
C4624 C4626 1.394 . S
C4624 H4640 0.931 . S
C4625 C4624 1.391 . S
C4625 C4629 1.376 . S
C4626 C4624 1.394 . S
C4626 C4627 1.369 . S
C4626 C4630 1.531 . S
C4627 C4626 1.369 . S
C4627 C4628 1.410 . S
C4627 C4635 1.503 . S
C4628 C4627 1.410 . S
C4628 C4629 1.392 . S
C4628 C4631 1.511 . S
C4629 C4625 1.376 . S
C4629 C4628 1.392 . S
C4629 H4641 0.929 . S
C4630 C4626 1.531 . S
C4630 H4642 0.960 . S
C4630 H4643 0.962 . S
C4630 H4644 0.960 . S
C4631 C4628 1.511 . S
C4631 H4645 0.961 . S
C4631 H4646 0.961 . S
C4631 H4647 0.961 . S
C4632 C4633 1.370 . S
C4632 C4634 1.363 . S
C4632 H4648 0.931 . S
C4633 C4632 1.370 . S
C4633 C4637 1.408 . S
C4634 C4632 1.363 . S
C4634 C4635 1.370 . S
C4634 C4638 1.524 . S
C4635 C4627 1.503 . S
C4635 C4634 1.370 . S
C4635 C4636 1.403 . S
C4636 C4635 1.403 . S
C4636 C4637 1.404 . S
C4636 C4639 1.539 . S
C4637 C4633 1.408 . S
C4637 C4636 1.404 . S
C4637 H4649 0.930 . S
C4638 C4634 1.524 . S
C4638 H4650 0.956 . S
C4638 H4651 0.961 . S
C4638 H4652 0.961 . S
C4639 C4636 1.539 . S
C4639 H4653 0.958 . S
C4639 H4654 0.961 . S
C4639 H4655 0.960 . S
H4640 C4624 0.931 . S
H4641 C4629 0.929 . S
H4642 C4630 0.960 . S
H4643 C4630 0.962 . S
H4644 C4630 0.960 . S
H4645 C4631 0.961 . S
H4646 C4631 0.961 . S
H4647 C4631 0.961 . S
H4648 C4632 0.931 . S
H4649 C4637 0.930 . S
H4650 C4638 0.956 . S
H4651 C4638 0.961 . S
H4652 C4638 0.961 . S
H4653 C4639 0.958 . S
H4654 C4639 0.961 . S
H4655 C4639 0.960 . S
C4656 C4657 1.391 . S
C4656 C4658 1.394 . S
C4656 H4672 0.931 . S
C4657 C4656 1.391 . S
C4657 C4661 1.376 . S
C4658 C4656 1.394 . S
C4658 C4659 1.369 . S
C4658 C4662 1.531 . S
C4659 C4658 1.369 . S
C4659 C4660 1.410 . S
C4659 C4667 1.503 . S
C4660 C4659 1.410 . S
C4660 C4661 1.392 . S
C4660 C4663 1.511 . S
C4661 C4657 1.376 . S
C4661 C4660 1.392 . S
C4661 H4673 0.929 . S
C4662 C4658 1.531 . S
C4662 H4674 0.960 . S
C4662 H4675 0.962 . S
C4662 H4676 0.960 . S
C4663 C4660 1.511 . S
C4663 H4677 0.961 . S
C4663 H4678 0.961 . S
C4663 H4679 0.961 1_554 S
C4664 C4665 1.370 . S
C4664 C4666 1.363 . S
C4664 H4680 0.931 . S
C4665 C4664 1.370 . S
C4665 C4669 1.408 1_554 S
C4666 C4664 1.363 . S
C4666 C4667 1.370 . S
C4666 C4670 1.524 . S
C4667 C4659 1.503 . S
C4667 C4666 1.370 . S
C4667 C4668 1.403 1_554 S
C4668 C4667 1.403 1_556 S
C4668 C4669 1.404 . S
C4668 C4671 1.539 . S
C4669 C4665 1.408 1_556 S
C4669 C4668 1.404 . S
C4669 H4681 0.930 . S
C4670 C4666 1.524 . S
C4670 H4682 0.956 . S
C4670 H4683 0.961 . S
C4670 H4684 0.961 . S
C4671 C4668 1.539 . S
C4671 H4685 0.958 . S
C4671 H4686 0.961 . S
C4671 H4687 0.960 . S
H4672 C4656 0.931 . S
H4673 C4661 0.929 . S
H4674 C4662 0.960 . S
H4675 C4662 0.962 . S
H4676 C4662 0.960 . S
H4677 C4663 0.961 . S
H4678 C4663 0.961 . S
H4679 C4663 0.961 1_556 S
H4680 C4664 0.931 . S
H4681 C4669 0.930 . S
H4682 C4670 0.956 . S
H4683 C4670 0.961 . S
H4684 C4670 0.961 . S
H4685 C4671 0.958 . S
H4686 C4671 0.961 . S
H4687 C4671 0.960 . S
C4688 C4689 1.391 . S
C4688 C4690 1.394 . S
C4688 H4704 0.931 . S
C4689 C4688 1.391 . S
C4689 C4693 1.376 . S
C4690 C4688 1.394 . S
C4690 C4691 1.369 . S
C4690 C4694 1.531 . S
C4691 C4690 1.369 . S
C4691 C4692 1.410 . S
C4691 C4699 1.503 . S
C4692 C4691 1.410 . S
C4692 C4693 1.392 . S
C4692 C4695 1.511 . S
C4693 C4689 1.376 . S
C4693 C4692 1.392 . S
C4693 H4705 0.929 . S
C4694 C4690 1.531 . S
C4694 H4706 0.960 . S
C4694 H4707 0.962 . S
C4694 H4708 0.960 . S
C4695 C4692 1.511 . S
C4695 H4709 0.961 . S
C4695 H4710 0.961 . S
C4695 H4711 0.961 . S
C4696 C4697 1.370 . S
C4696 C4698 1.363 . S
C4696 H4712 0.931 . S
C4697 C4696 1.370 . S
C4697 C4701 1.408 . S
C4698 C4696 1.363 . S
C4698 C4699 1.370 . S
C4698 C4702 1.524 . S
C4699 C4691 1.503 . S
C4699 C4698 1.370 . S
C4699 C4700 1.403 . S
C4700 C4699 1.403 . S
C4700 C4701 1.404 . S
C4700 C4703 1.539 . S
C4701 C4697 1.408 . S
C4701 C4700 1.404 . S
C4701 H4713 0.930 . S
C4702 C4698 1.524 . S
C4702 H4714 0.956 . S
C4702 H4715 0.961 . S
C4702 H4716 0.961 . S
C4703 C4700 1.539 . S
C4703 H4717 0.958 . S
C4703 H4718 0.961 . S
C4703 H4719 0.960 . S
H4704 C4688 0.931 . S
H4705 C4693 0.929 . S
H4706 C4694 0.960 . S
H4707 C4694 0.962 . S
H4708 C4694 0.960 . S
H4709 C4695 0.961 . S
H4710 C4695 0.961 . S
H4711 C4695 0.961 . S
H4712 C4696 0.931 . S
H4713 C4701 0.930 . S
H4714 C4702 0.956 . S
H4715 C4702 0.961 . S
H4716 C4702 0.961 . S
H4717 C4703 0.958 . S
H4718 C4703 0.961 . S
H4719 C4703 0.960 . S
C4720 C4721 1.391 . S
C4720 C4722 1.394 . S
C4720 H4736 0.931 . S
C4721 C4720 1.391 . S
C4721 C4725 1.376 . S
C4722 C4720 1.394 . S
C4722 C4723 1.369 . S
C4722 C4726 1.531 . S
C4723 C4722 1.369 . S
C4723 C4724 1.410 . S
C4723 C4731 1.503 . S
C4724 C4723 1.410 . S
C4724 C4725 1.392 . S
C4724 C4727 1.511 . S
C4725 C4721 1.376 . S
C4725 C4724 1.392 . S
C4725 H4737 0.929 . S
C4726 C4722 1.531 . S
C4726 H4738 0.960 . S
C4726 H4739 0.962 . S
C4726 H4740 0.960 . S
C4727 C4724 1.511 . S
C4727 H4741 0.961 . S
C4727 H4742 0.961 . S
C4727 H4743 0.961 . S
C4728 C4729 1.370 . S
C4728 C4730 1.363 . S
C4728 H4744 0.931 . S
C4729 C4728 1.370 . S
C4729 C4733 1.408 . S
C4730 C4728 1.363 . S
C4730 C4731 1.370 . S
C4730 C4734 1.524 . S
C4731 C4723 1.503 . S
C4731 C4730 1.370 . S
C4731 C4732 1.403 . S
C4732 C4731 1.403 . S
C4732 C4733 1.404 . S
C4732 C4735 1.539 . S
C4733 C4729 1.408 . S
C4733 C4732 1.404 . S
C4733 H4745 0.930 . S
C4734 C4730 1.524 . S
C4734 H4746 0.956 . S
C4734 H4747 0.961 . S
C4734 H4748 0.961 . S
C4735 C4732 1.539 . S
C4735 H4749 0.958 . S
C4735 H4750 0.961 . S
C4735 H4751 0.960 . S
H4736 C4720 0.931 . S
H4737 C4725 0.929 . S
H4738 C4726 0.960 . S
H4739 C4726 0.962 . S
H4740 C4726 0.960 . S
H4741 C4727 0.961 . S
H4742 C4727 0.961 . S
H4743 C4727 0.961 . S
H4744 C4728 0.931 . S
H4745 C4733 0.930 . S
H4746 C4734 0.956 . S
H4747 C4734 0.961 . S
H4748 C4734 0.961 . S
H4749 C4735 0.958 . S
H4750 C4735 0.961 . S
H4751 C4735 0.960 . S
C1681 C105 1.838 . S
C1689 C403 1.706 . S
C1713 C65 2.249 . S
C1721 C486 2.185 . S
C1745 C73 1.566 . S
C1753 C571 1.497 . S
C1785 C651 1.491 . S
C1777 C92 1.591 . S
C1809 C17 1.608 . S
C1817 C735 1.559 . S
C1849 C828 0.961 . S
C1841 C37 1.018 . S
C1881 C906 0.927 . S
C1873 C49 0.925 . S
C1905 C8 1.515 . S
C1913 C991 1.333 . S
C1945 C402 2.027 . S
C1937 C231 2.071 . S
C1969 C241 0.719 . S
C1977 C483 0.733 . S
C2009 C570 1.200 . S
C2001 C273 1.173 . S
C2041 C655 1.552 . S
C2033 C171 1.634 . S
C2065 C227 2.132 . S
C2073 C739 1.951 . S
C2105 C831 1.113 . S
C2097 C245 1.230 . S
C2137 C903 0.768 . S
C2129 C269 0.810 . S
C2169 C990 1.521 . S
C2161 C175 1.636 . S
C2201 C399 1.414 . S
C2193 C162 1.486 . S
C2225 C289 1.982 . S
C2233 C1074 1.914 1_556 S
C2265 C1148 2.224 . S
C2257 C330 2.378 . S
C2297 C1243 0.601 . S
C2289 C317 0.480 . S
C2321 C120 0.959 . S
C2329 C987 0.950 . S
C2353 C134 1.468 . S
C2361 C567 1.447 . S
C2385 C331 2.225 . S
C2393 C1326 2.156 . S
C2425 C1411 0.748 . S
C2417 C303 0.702 . S
C2457 C392 1.736 . S
C2449 C59 1.828 . S
C2489 C1419 2.215 . S
C2481 C107 2.265 . S
C2513 C91 1.627 . S
C2521 C560 1.562 . S
C2545 C78 1.631 . S
C2553 C1332 1.518 . S
C2585 C744 1.551 . S
C2577 C7 1.502 . S
C2609 C51 1.003 . S
C2617 C1155 0.997 . S
C2649 C915 0.998 . S
C2641 C31 1.016 . S
C2681 C1484 1.365 . S
C2673 C22 1.478 . S
C2713 C411 2.064 . S
C2705 C143 2.153 . S
C2745 C1416 0.778 . S
C2737 C315 0.778 . S
C2769 C115 1.279 . S
C2777 C579 1.224 . S
C2801 C287 1.647 . S
C2809 C1316 1.593 . S
C2833 C147 2.053 . S
C2841 C728 1.994 . S
C2873 C1158 1.161 . S
C2865 C311 1.261 . S
C2897 C119 0.806 . S
C2905 C912 0.793 . S
C2929 C283 1.655 . S
C2937 C1503 1.539 . S
C2961 C190 1.480 . S
C2969 C408 1.401 1_554 S
C2993 C177 2.001 . S
C3001 C1083 1.934 . S
C3025 C260 2.424 . S
C3033 C823 2.240 . S
C3057 C247 0.616 . S
C3065 C1232 0.623 . S
C3097 C1500 0.898 . S
C3089 C274 0.846 1_565 S
C3121 C218 1.463 . S
C3129 C576 1.442 . S
C3161 C663 2.188 . S
C3153 C261 2.267 . S
C3193 C476 0.735 . S
C3185 C205 0.735 . S
C3217 C77 1.855 . S
C3225 C1579 1.685 . S
C3257 C1410 2.186 . S
C3249 C93 2.251 . S
C3281 C101 1.596 . S
C3289 C1663 1.510 . S
C3313 C64 1.576 . S
C3321 C1323 1.483 . S
C3345 C45 1.593 . S
C3353 C1071 1.541 . S
C3385 C1164 0.959 . S
C3377 C9 0.975 . S
C3417 C1242 0.912 . S
C3409 C21 0.833 . S
C3449 C1495 1.321 . S
C3441 C36 1.523 . S
C3481 C1578 2.032 . S
C3473 C259 2.080 . S
C3505 C185 0.723 . S
C3513 C1407 0.765 . S
C3545 C1662 1.234 . S
C3537 C203 1.225 . S
C3577 C1327 1.533 . S
C3569 C213 1.641 . S
C3609 C1075 1.941 . S
C3601 C255 2.138 . S
C3633 C189 1.163 . S
C3641 C1167 1.155 . S
C3673 C1239 0.823 . S
C3665 C199 0.803 . S
C3697 C217 1.636 . S
C3705 C1494 1.516 . S
C3737 C1575 1.394 . S
C3729 C316 1.482 . S
C3761 C135 1.978 . S
C3769 C738 1.904 . S
C3801 C812 2.200 . S
C3793 C148 2.401 . S
C3833 C907 0.545 . S
C3825 C163 0.529 . S
C3865 C1491 0.962 . S
C3857 C302 0.985 . S
C3889 C288 1.464 1_554 S
C3897 C1659 1.432 . S
C3929 C654 2.139 . S
C3921 C149 2.214 . S
C3961 C487 0.676 . S
C3953 C121 0.688 . S
C3985 C87 1.842 . S
C3993 C1568 1.744 . S
C4025 C495 2.203 . S
C4017 C79 2.253 . S
C4049 C63 1.641 . S
C4057 C1652 1.573 . S
C4081 C106 1.631 . S
C4089 C660 1.518 . S
C4113 C35 1.504 . S
C4121 C1080 1.552 . S
C4153 C819 0.951 . S
C4145 C23 1.060 . S
C4177 C3 1.004 . S
C4185 C1251 0.997 . S
C4209 C50 1.476 . S
C4217 C980 1.380 . S
C4249 C1587 2.051 . S
C4241 C325 2.158 . S
C4273 C161 0.815 . S
C4281 C492 0.790 . S
C4313 C1671 1.221 . S
C4305 C297 1.293 . S
C4337 C133 1.670 . S
C4345 C644 1.569 . S
C4369 C329 2.078 . S
C4377 C1064 1.979 . S
C4409 C822 1.160 . S
C4401 C157 1.243 . S
C4433 C301 0.852 . S
C4441 C1248 0.834 1_655 S
C4473 C999 1.534 . S
C4465 C129 1.654 . S
C4505 C1584 1.398 . S
C4497 C246 1.485 . S
C4537 C747 1.949 1_665 S
C4529 C219 2.012 . S
C4561 C232 2.425 . S
C4569 C1159 2.233 . S
C4601 C896 0.627 . S
C4593 C191 0.619 . S
C4625 C204 0.899 . S
C4633 C996 0.914 . S
C4657 C176 1.456 . S
C4665 C1668 1.437 1_554 S
C4697 C1335 2.193 . S
C4689 C233 2.262 1_565 S
C4729 C1400 0.728 . S
C4721 C275 0.731 . S
