# Generated by pormake.
# Topology pth, (4,4)-cn, num edge types: 1
# Building blocks:
#     Node 0, Type 0, BuildingBlock: AZAVOO_clean_sbu_0, # of connection points: 4
#     Node 1, Type 0, BuildingBlock: AZAVOO_clean_sbu_0, # of connection points: 4
#     Node 2, Type 0, BuildingBlock: AZAVOO_clean_sbu_0, # of connection points: 4
#     Node 3, Type 1, BuildingBlock: NAWXER_clean_sbu_0, # of connection points: 4
#     Node 4, Type 1, BuildingBlock: NAWXER_clean_sbu_0, # of connection points: 4
#     Node 5, Type 1, BuildingBlock: NAWXER_clean_sbu_0, # of connection points: 4
#     Edge 6, Type (0, 1), BuildingBlock: FUNLAD_clean_linker_0, # of connection points: 2
#     Edge 7, Type (0, 1), BuildingBlock: FUNLAD_clean_linker_0, # of connection points: 2
#     Edge 8, Type (0, 1), BuildingBlock: FUNLAD_clean_linker_0, # of connection points: 2
#     Edge 9, Type (0, 1), BuildingBlock: FUNLAD_clean_linker_0, # of connection points: 2
#     Edge 10, Type (0, 1), BuildingBlock: FUNLAD_clean_linker_0, # of connection points: 2
#     Edge 11, Type (0, 1), BuildingBlock: FUNLAD_clean_linker_0, # of connection points: 2
#     Edge 12, Type (0, 1), BuildingBlock: FUNLAD_clean_linker_0, # of connection points: 2
#     Edge 13, Type (0, 1), BuildingBlock: FUNLAD_clean_linker_0, # of connection points: 2
#     Edge 14, Type (0, 1), BuildingBlock: FUNLAD_clean_linker_0, # of connection points: 2
#     Edge 15, Type (0, 1), BuildingBlock: FUNLAD_clean_linker_0, # of connection points: 2
#     Edge 16, Type (0, 1), BuildingBlock: FUNLAD_clean_linker_0, # of connection points: 2
#     Edge 17, Type (0, 1), BuildingBlock: FUNLAD_clean_linker_0, # of connection points: 2
# Relax obj value: 0.079
# Max RMSD: 0.219
# Mean RMSD: 0.117
data_MOF--net-pth--node1-AZAVOO_clean_sbu_0--node2-NAWXER_clean_sbu_0--edge1-FUNLAD_clean_linker_0
_symmetry_space_group_name_H-M    P1
_symmetry_Int_Tables_number       1
_symmetry_cell_setting            triclinic
loop_
_symmetry_equiv_pos_as_xyz
'x, y, z'
_cell_length_a     26.456582
_cell_length_b     27.022785
_cell_length_c     66.272818
_cell_angle_alpha  90.941935
_cell_angle_beta   92.998291
_cell_angle_gamma 121.98595
loop_
_atom_site_label
_atom_site_type_symbol
_atom_site_fract_x
_atom_site_fract_y
_atom_site_fract_z
_atom_type_partial_charge
Mg0 Mg 0.1375 0.10498 0.06172 0.0
O1 O 0.05124 0.04097 0.04299 0.0
O2 O 0.02756 0.08918 0.02137 0.0
Mg3 Mg 0.09883 0.18686 0.02718 0.0
C4 C 0.01758 0.04163 0.02868 0.0
C5 C 0.09798 0.98057 0.07631 0.0
O6 O 0.09513 0.97058 0.05669 0.0
O7 O 0.09119 0.13734 0.08121 0.0
O8 O 0.07651 0.19232 0.05984 0.0
O9 O 0.19141 0.10006 0.03734 0.0
O10 O 0.16261 0.16318 0.0386 0.0
C11 C 0.07508 0.17343 0.07748 0.0
C12 C 0.18823 0.14157 0.02912 0.0
O13 O 0.11667 0.03212 0.08319 0.0
Mg14 Mg 0.95498 0.02788 0.38784 0.0
O15 O 0.0377 0.06271 0.40999 0.0
O16 O 0.0412 0.12839 0.43185 0.0
Mg17 Mg 0.96097 0.13655 0.42357 0.0
C18 C 0.06265 0.09922 0.42517 0.0
C19 C 0.98449 0.98576 0.34859 0.0
O20 O 0.95587 0.00937 0.34083 0.0
O21 O 0.99986 0.11256 0.37101 0.0
O22 O 0.99784 0.17468 0.39326 0.0
O23 O 0.8956 0.95951 0.40927 0.0
O24 O 0.9122 0.04835 0.40873 0.0
C25 C 0.00972 0.16299 0.37603 0.0
C26 C 0.88614 0.99838 0.41662 0.0
O27 O 0.99177 0.98626 0.36772 0.0
Mg28 Mg 0.01017 0.06187 0.71969 0.0
O29 O 0.0857 0.13687 0.73999 0.0
O30 O 0.04506 0.17229 0.75971 0.0
Mg31 Mg 0.94363 0.11894 0.75256 0.0
C32 C 0.09051 0.17273 0.75386 0.0
C33 C 0.06425 0.02131 0.68775 0.0
O34 O 0.00791 0.9784 0.68578 0.0
O35 O 0.99977 0.12522 0.70016 0.0
O36 O 0.95358 0.15322 0.72049 0.0
O37 O 0.99763 0.9994 0.74327 0.0
O38 O 0.94853 0.04473 0.74116 0.0
C39 C 0.97439 0.15347 0.70347 0.0
C40 C 0.95975 0.01007 0.75065 0.0
O41 O 0.07976 0.06393 0.70026 0.0
C42 C 0.08975 0.66732 0.24778 0.0
C43 C 0.09924 0.52797 0.20203 0.0
O44 O 0.13725 0.67193 0.24213 0.0
Zn45 Zn 0.09885 0.60013 0.22468 0.0
O46 O 0.03894 0.62318 0.24131 0.0
Zn47 Zn 0.00205 0.5469 0.22213 0.0
O48 O 0.96115 0.48424 0.24054 0.0
O49 O 0.05947 0.53259 0.24549 0.0
O50 O 0.04638 0.51454 0.20553 0.0
O51 O 0.14432 0.57543 0.20979 0.0
O52 O 0.05683 0.61846 0.20029 0.0
O53 O 0.95866 0.56184 0.20083 0.0
C54 C 0.00783 0.49126 0.25003 0.0
C55 C 0.00436 0.60179 0.19273 0.0
C56 C 0.62847 0.12534 0.57473 0.0
C57 C 0.46325 0.10288 0.53049 0.0
O58 O 0.58408 0.07237 0.5725 0.0
Zn59 Zn 0.49714 0.02397 0.55696 0.0
O60 O 0.62525 0.16536 0.56612 0.0
Zn61 Zn 0.54631 0.11528 0.55252 0.0
O62 O 0.48787 0.0885 0.57686 0.0
O63 O 0.44422 0.99305 0.57862 0.0
O64 O 0.51377 0.14939 0.53483 0.0
O65 O 0.45227 0.05452 0.53761 0.0
O66 O 0.50496 0.97055 0.53944 0.0
O67 O 0.55986 0.06275 0.53155 0.0
C68 C 0.45134 0.04102 0.58514 0.0
C69 C 0.54218 0.00885 0.52823 0.0
C70 C 0.51033 0.50369 0.91279 0.0
C71 C 0.62581 0.6616 0.8677 0.0
O72 O 0.49875 0.54186 0.90737 0.0
Zn73 Zn 0.56483 0.58357 0.89009 0.0
O74 O 0.55457 0.50371 0.90583 0.0
Zn75 Zn 0.62259 0.55023 0.8858 0.0
O76 O 0.69537 0.58123 0.90354 0.0
O77 O 0.64108 0.61826 0.91101 0.0
O78 O 0.64333 0.62592 0.87011 0.0
O79 O 0.58081 0.65385 0.87661 0.0
O80 O 0.53843 0.52278 0.86517 0.0
O81 O 0.60009 0.49122 0.86384 0.0
C82 C 0.68725 0.61503 0.91464 0.0
C83 C 0.55417 0.49064 0.85667 0.0
C84 C 0.06365 0.25321 0.09144 0.0
C85 C 0.06507 0.20257 0.09461 0.0
C86 C 0.06629 0.28788 0.10778 0.0
C87 C 0.06977 0.27244 0.1277 0.0
C88 C 0.06683 0.21979 0.13092 0.0
C89 C 0.06516 0.18542 0.11454 0.0
C90 C 0.07517 0.31021 0.14521 0.0
C91 C 0.10727 0.36905 0.14498 0.0
C92 C 0.10832 0.40791 0.16134 0.0
C93 C 0.15633 0.46641 0.16377 0.0
C94 C 0.15528 0.50549 0.17768 0.0
C95 C 0.1055 0.48682 0.18904 0.0
H96 H 0.0211 0.34486 0.17158 0.0
C97 C 0.0583 0.42799 0.18695 0.0
C98 C 0.05963 0.38902 0.17331 0.0
H99 H 0.01934 0.41217 0.19557 0.0
H100 H 0.06318 0.26773 0.07633 0.0
H101 H 0.06613 0.32708 0.10479 0.0
H102 H 0.0682 0.20642 0.14616 0.0
H103 H 0.06603 0.14659 0.11754 0.0
H104 H 0.05364 0.28896 0.15872 0.0
H105 H 0.13365 0.38979 0.1322 0.0
H106 H 0.19418 0.48217 0.1546 0.0
H107 H 0.19211 0.55063 0.17892 0.0
C108 C 0.83356 0.02963 0.4386 0.0
C109 C 0.84443 0.98618 0.4326 0.0
C110 C 0.78973 0.01783 0.45177 0.0
C111 C 0.75481 0.96194 0.4592 0.0
C112 C 0.76743 0.91905 0.45416 0.0
C113 C 0.81166 0.93091 0.44079 0.0
C114 C 0.70591 0.94925 0.47236 0.0
C115 C 0.67221 0.97247 0.46878 0.0
C116 C 0.63258 0.97509 0.48326 0.0
C117 C 0.62049 0.01952 0.4812 0.0
C118 C 0.58922 0.02887 0.49547 0.0
C119 C 0.56804 0.99316 0.51197 0.0
H120 H 0.61653 0.90203 0.50116 0.0
C121 C 0.57675 0.9463 0.51349 0.0
C122 C 0.60923 0.93753 0.49932 0.0
H123 H 0.5608 0.91812 0.5261 0.0
H124 H 0.85765 0.07269 0.43268 0.0
H125 H 0.7829 0.05266 0.45598 0.0
H126 H 0.74181 0.87593 0.46002 0.0
H127 H 0.81906 0.89652 0.4365 0.0
H128 H 0.70009 0.92344 0.4854 0.0
H129 H 0.67846 0.99635 0.45514 0.0
H130 H 0.63748 0.04887 0.46892 0.0
H131 H 0.58274 0.06501 0.49382 0.0
C132 C 0.88005 0.98479 0.77454 0.0
C133 C 0.92931 0.98232 0.769 0.0
C134 C 0.84715 0.95313 0.79059 0.0
C135 C 0.86316 0.91856 0.80145 0.0
C136 C 0.91431 0.91878 0.79655 0.0
C137 C 0.94679 0.94994 0.78043 0.0
C138 C 0.82681 0.87923 0.81722 0.0
C139 C 0.76812 0.85795 0.81869 0.0
C140 C 0.73142 0.80821 0.83148 0.0
C141 C 0.68173 0.80272 0.84041 0.0
C142 C 0.64655 0.75503 0.85218 0.0
C143 C 0.66019 0.71174 0.85491 0.0
H144 H 0.77989 0.76514 0.82646 0.0
C145 C 0.70893 0.71677 0.84543 0.0
C146 C 0.7438 0.76405 0.83385 0.0
H147 H 0.72049 0.68401 0.84689 0.0
H148 H 0.86568 0.0097 0.76608 0.0
H149 H 0.80906 0.95547 0.79421 0.0
H150 H 0.928 0.89292 0.80474 0.0
H151 H 0.98479 0.9475 0.77665 0.0
H152 H 0.84842 0.8628 0.82698 0.0
H153 H 0.74539 0.8745 0.80966 0.0
H154 H 0.67056 0.83564 0.83846 0.0
H155 H 0.6091 0.75221 0.85919 0.0
C156 C 0.0537 0.87443 0.08234 0.0
C157 C 0.07617 0.93168 0.09007 0.0
C158 C 0.03194 0.82798 0.09521 0.0
C159 C 0.03243 0.83781 0.11616 0.0
C160 C 0.05374 0.89481 0.12381 0.0
C161 C 0.07565 0.94129 0.11095 0.0
C162 C 0.01202 0.79008 0.13051 0.0
C163 C 0.01508 0.74252 0.12703 0.0
C164 C 0.0056 0.70074 0.14284 0.0
C165 C 0.04206 0.67753 0.14374 0.0
C166 C 0.03954 0.64327 0.15962 0.0
C167 C 0.99918 0.62997 0.17459 0.0
H168 H 0.93358 0.70171 0.15675 0.0
C169 C 0.95968 0.64974 0.17304 0.0
C170 C 0.96322 0.68544 0.15734 0.0
H171 H 0.92837 0.64015 0.18448 0.0
H172 H 0.05261 0.86532 0.06629 0.0
H173 H 0.01423 0.78448 0.08861 0.0
H174 H 0.05433 0.90361 0.13986 0.0
H175 H 0.09207 0.98474 0.11739 0.0
H176 H 1.00007 0.79731 0.14524 0.0
H177 H 0.03274 0.73794 0.11318 0.0
H178 H 0.07466 0.68823 0.13268 0.0
H179 H 0.07031 0.62829 0.16047 0.0
C180 C 0.13461 0.12988 0.45572 0.0
C181 C 0.11764 0.10727 0.43558 0.0
C182 C 0.18518 0.13537 0.46583 0.0
C183 C 0.22031 0.11908 0.45592 0.0
C184 C 0.20463 0.09843 0.4356 0.0
C185 C 0.15335 0.09183 0.42559 0.0
C186 C 0.27311 0.12285 0.46654 0.0
C187 C 0.27269 0.10829 0.48587 0.0
C188 C 0.32278 0.10715 0.49647 0.0
C189 C 0.30961 0.06373 0.51022 0.0
C190 C 0.35542 0.0618 0.52084 0.0
C191 C 0.41555 0.10432 0.51837 0.0
H192 H 0.39434 0.18413 0.48349 0.0
C193 C 0.42895 0.14838 0.50478 0.0
C194 C 0.38291 0.14947 0.49374 0.0
H195 H 0.47492 0.18182 0.50265 0.0
H196 H 0.10819 0.14236 0.46382 0.0
H197 H 0.19691 0.15263 0.48138 0.0
H198 H 0.23129 0.08601 0.42761 0.0
H199 H 0.14179 0.0748 0.41001 0.0
H200 H 0.31085 0.13294 0.45784 0.0
H201 H 0.23224 0.09213 0.49379 0.0
H202 H 0.26364 0.03093 0.51267 0.0
H203 H 0.34365 0.02765 0.53136 0.0
C204 C 0.20057 0.21226 0.75991 0.0
C205 C 0.15035 0.21506 0.76391 0.0
C206 C 0.2565 0.25126 0.76994 0.0
C207 C 0.26331 0.29393 0.78419 0.0
C208 C 0.21333 0.29717 0.7879 0.0
C209 C 0.15756 0.25815 0.778 0.0
C210 C 0.32149 0.33711 0.79517 0.0
C211 C 0.36856 0.33062 0.79796 0.0
C212 C 0.42342 0.37408 0.81056 0.0
C213 C 0.45561 0.35558 0.82236 0.0
C214 C 0.5019 0.39455 0.83654 0.0
C215 C 0.51636 0.45244 0.83904 0.0
H216 H 0.42047 0.45007 0.80231 0.0
C217 C 0.48755 0.47193 0.82606 0.0
C218 C 0.44213 0.43346 0.81183 0.0
H219 H 0.49868 0.5167 0.82743 0.0
H220 H 0.19669 0.17974 0.74909 0.0
H221 H 0.29415 0.2482 0.76627 0.0
H222 H 0.21726 0.32985 0.79867 0.0
H223 H 0.12009 0.26186 0.78144 0.0
H224 H 0.32399 0.37475 0.80244 0.0
H225 H 0.3651 0.29076 0.79253 0.0
H226 H 0.44277 0.31026 0.82142 0.0
H227 H 0.5235 0.37852 0.84639 0.0
C228 C 0.96548 0.1665 0.6663 0.0
C229 C 0.96024 0.17996 0.68637 0.0
C230 C 0.93913 0.17976 0.65016 0.0
C231 C 0.90699 0.20669 0.65381 0.0
C232 C 0.90729 0.22563 0.67367 0.0
C233 C 0.93334 0.21216 0.68981 0.0
C234 C 0.86766 0.21005 0.63774 0.0
C235 C 0.83753 0.16735 0.6231 0.0
C236 C 0.78614 0.15967 0.61008 0.0
C237 C 0.74216 0.10286 0.60283 0.0
C238 C 0.69124 0.09218 0.59146 0.0
C239 C 0.68334 0.13824 0.58671 0.0
H240 H 0.81269 0.25078 0.61006 0.0
C241 C 0.72812 0.19556 0.59341 0.0
C242 C 0.77904 0.20623 0.60509 0.0
H243 H 0.72349 0.232 0.58984 0.0
H244 H 0.98665 0.14251 0.66306 0.0
H245 H 0.9418 0.16661 0.63493 0.0
H246 H 0.88372 0.24732 0.67687 0.0
H247 H 0.92932 0.22411 0.70505 0.0
H248 H 0.85618 0.24277 0.63991 0.0
H249 H 0.84543 0.13182 0.6223 0.0
H250 H 0.74653 0.0662 0.60633 0.0
H251 H 0.65805 0.04755 0.58634 0.0
C252 C 0.95333 0.98117 -0.00192 0.0
C253 C 0.97032 0.98502 0.01878 0.0
C254 C 0.91514 0.92671 0.98799 0.0
C255 C 0.89243 0.8751 -0.00152 0.0
C256 C 0.90704 0.87905 0.01934 0.0
C257 C 0.94638 0.93342 0.02935 0.0
C258 C 0.85173 0.81699 0.98804 0.0
C259 C 0.85955 0.80394 0.9692 0.0
C260 C 0.81583 0.74864 0.95749 0.0
C261 C 0.83493 0.72865 0.94163 0.0
C262 C 0.79339 0.68163 0.92848 0.0
C263 C 0.73198 0.6548 0.93075 0.0
H264 H 0.73776 0.73392 0.97218 0.0
C265 C 0.7131 0.67302 0.94716 0.0
C266 C 0.75447 0.71922 0.96043 0.0
H267 H 0.66594 0.65317 0.94922 0.0
H268 H 0.9713 0.02007 0.9895 0.0
H269 H 0.90329 0.92505 0.97199 0.0
H270 H 0.88936 0.8399 0.02779 0.0
H271 H 0.95868 0.93502 0.04531 0.0
H272 H 0.81561 0.78393 0.99633 0.0
H273 H 0.8993 0.83541 0.9619 0.0
H274 H 0.88194 0.75078 0.93897 0.0
H275 H 0.80906 0.66889 0.91581 0.0
C276 C 0.03802 0.93305 0.34316 0.0
C277 C 0.00523 0.95653 0.33519 0.0
C278 C 0.05423 0.9024 0.3305 0.0
C279 C 0.03784 0.89461 0.3096 0.0
C280 C 0.00628 0.91923 0.30165 0.0
C281 C 0.99048 0.9501 0.31424 0.0
C282 C 0.04701 0.85631 0.29592 0.0
C283 C 0.08811 0.84178 0.29948 0.0
C284 C 0.08933 0.79741 0.28627 0.0
C285 C 0.14367 0.80208 0.28281 0.0
C286 C 0.14461 0.76016 0.27027 0.0
C287 C 0.091 0.71234 0.2613 0.0
H288 H 0.99301 0.74271 0.28047 0.0
C289 C 0.03676 0.70726 0.26527 0.0
C290 C 0.0359 0.74901 0.27757 0.0
H291 H 0.99442 0.67085 0.25883 0.0
H292 H 0.05011 0.93725 0.35924 0.0
H293 H 0.07739 0.88302 0.33727 0.0
H294 H 0.99269 0.9136 0.28565 0.0
H295 H 0.96533 0.96764 0.30757 0.0
H296 H 0.01779 0.83888 0.28212 0.0
H297 H 0.12169 0.86288 0.31204 0.0
H298 H 0.18541 0.83857 0.28958 0.0
H299 H 0.18708 0.76514 0.26762 0.0
C300 C 0.1706 0.0597 0.68045 0.0
C301 C 0.10931 0.01869 0.6762 0.0
C302 C 0.21318 0.05622 0.66993 0.0
C303 C 0.19534 0.01196 0.65468 0.0
C304 C 0.13403 0.97084 0.65058 0.0
C305 C 0.09151 0.97412 0.66119 0.0
C306 C 0.23865 0.00649 0.64279 0.0
C307 C 0.29614 0.04977 0.64157 0.0
C308 C 0.33748 0.04562 0.62825 0.0
C309 C 0.38601 0.09749 0.62177 0.0
C310 C 0.42399 0.09591 0.60828 0.0
C311 C 0.41469 0.04229 0.60106 0.0
H312 H 0.29413 0.951 0.62695 0.0
C313 C 0.36783 0.99032 0.60826 0.0
C314 C 0.32964 0.99191 0.62175 0.0
H315 H 0.35977 0.94831 0.60313 0.0
H316 H 0.18584 0.09415 0.69212 0.0
H317 H 0.25977 0.08787 0.67412 0.0
H318 H 0.11881 0.93607 0.63903 0.0
H319 H 0.04466 0.94166 0.65759 0.0
H320 H 0.22103 0.96617 0.6337 0.0
H321 H 0.31285 0.09186 0.64929 0.0
H322 H 0.39367 0.1395 0.62671 0.0
H323 H 0.45991 0.13686 0.60319 0.0
C324 C 0.27198 0.17772 0.00647 0.0
C325 C 0.21494 0.16599 0.00999 0.0
C326 C 0.30298 0.21302 0.99076 0.0
C327 C 0.27707 0.23687 0.97833 0.0
C328 C 0.2179 0.2203 0.98075 0.0
C329 C 0.18725 0.18551 -0.00349 0.0
C330 C 0.31098 0.28123 0.96345 0.0
C331 C 0.37043 0.31907 0.96596 0.0
C332 C 0.40451 0.36676 0.95221 0.0
C333 C 0.46435 0.38553 0.95004 0.0
C334 C 0.49847 0.43044 0.93741 0.0
C335 C 0.47389 0.45857 0.92693 0.0
H336 H 0.33431 0.38322 0.94385 0.0
C337 C 0.41447 0.44123 0.92954 0.0
C338 C 0.37986 0.39542 0.94201 0.0
H339 H 0.39448 0.46226 0.92168 0.0
H340 H 0.29404 0.16269 0.01658 0.0
H341 H 0.34763 0.22274 0.98877 0.0
H342 H 0.19635 0.23683 0.9711 0.0
H343 H 0.14253 0.17545 -0.00153 0.0
H344 H 0.28565 0.28535 0.95087 0.0
H345 H 0.39589 0.31527 0.97856 0.0
H346 H 0.48463 0.36478 0.95794 0.0
H347 H 0.54434 0.44315 0.93588 0.0
C348 C 0.00875 0.19049 0.3402 0.0
C349 C 0.02755 0.2074 0.36074 0.0
C350 C 0.01462 0.23164 0.32643 0.0
C351 C 0.04009 0.29047 0.33296 0.0
C352 C 0.06279 0.3079 0.35313 0.0
C353 C 0.05596 0.26672 0.36695 0.0
C354 C 0.04333 0.33475 0.31926 0.0
C355 C 0.00119 0.3223 0.30427 0.0
C356 C 0.00295 0.36738 0.2912 0.0
C357 C 0.94975 0.35726 0.28127 0.0
C358 C 0.95043 0.39821 0.26838 0.0
C359 C 0.00457 0.44991 0.26508 0.0
H360 H 0.09922 0.42828 0.29472 0.0
C361 C 0.0576 0.46012 0.27519 0.0
C362 C 0.05693 0.41936 0.28795 0.0
H363 H 0.1003 0.49918 0.27289 0.0
H364 H 0.98659 0.14504 0.33499 0.0
H365 H 0.99842 0.2172 0.3108 0.0
H366 H 0.08348 0.35313 0.35845 0.0
H367 H 0.07114 0.28103 0.38266 0.0
H368 H 0.07895 0.37978 0.32288 0.0
H369 H 0.96244 0.27807 0.3021 0.0
H370 H 0.90756 0.31738 0.28339 0.0
H371 H 0.9089 0.38877 0.26068 0.0
loop_
_geom_bond_atom_site_label_1
_geom_bond_atom_site_label_2
_geom_bond_distance
_geom_bond_site_symmetry_2
_ccdc_geom_bond_type
Mg0 O1 2.028 . S
Mg0 O7 1.986 . S
Mg0 O9 2.114 . S
Mg0 O10 2.251 . S
Mg0 O13 2.010 . S
O1 Mg0 2.028 . S
O1 C4 1.250 . S
O2 Mg3 2.028 . S
O2 C4 1.248 . S
Mg3 O2 2.028 . S
Mg3 O8 2.032 . S
Mg3 O10 2.079 . S
C4 O1 1.250 . S
C4 O2 1.248 . S
C5 O6 1.264 . S
C5 O13 1.249 . S
O6 C5 1.264 . S
O7 Mg0 1.986 . S
O7 C11 1.246 . S
O8 Mg3 2.032 . S
O8 C11 1.259 . S
O9 Mg0 2.114 . S
O9 C12 1.252 . S
O10 Mg0 2.251 . S
O10 Mg3 2.079 . S
O10 C12 1.273 . S
C11 O7 1.246 . S
C11 O8 1.259 . S
C12 O9 1.252 . S
C12 O10 1.273 . S
O13 Mg0 2.010 . S
O13 C5 1.249 . S
Mg14 O15 2.028 1_655 S
Mg14 O21 1.986 1_655 S
Mg14 O23 2.114 1_545 S
Mg14 O24 2.251 . S
Mg14 O27 2.010 1_545 S
O15 Mg14 2.028 1_455 S
O15 C18 1.250 . S
O16 Mg17 2.028 . S
O16 C18 1.248 . S
Mg17 O16 2.028 . S
Mg17 O22 2.032 . S
Mg17 O24 2.079 1_455 S
C18 O15 1.250 . S
C18 O16 1.248 . S
C19 O20 1.264 . S
C19 O27 1.249 . S
O20 C19 1.264 . S
O21 Mg14 1.986 1_455 S
O21 C25 1.246 . S
O22 Mg17 2.032 . S
O22 C25 1.259 . S
O23 Mg14 2.114 1_565 S
O23 C26 1.252 1_565 S
O24 Mg14 2.251 . S
O24 Mg17 2.079 1_655 S
O24 C26 1.273 . S
C25 O21 1.246 . S
C25 O22 1.259 . S
C26 O23 1.252 1_545 S
C26 O24 1.273 . S
O27 Mg14 2.010 1_565 S
O27 C19 1.249 . S
Mg28 O29 2.028 . S
Mg28 O35 1.986 1_455 S
Mg28 O37 2.114 1_545 S
Mg28 O38 2.251 1_455 S
Mg28 O41 2.010 . S
O29 Mg28 2.028 . S
O29 C32 1.250 . S
O30 Mg31 2.028 1_455 S
O30 C32 1.248 . S
Mg31 O30 2.028 1_655 S
Mg31 O36 2.032 . S
Mg31 O38 2.079 . S
C32 O29 1.250 . S
C32 O30 1.248 . S
C33 O34 1.264 1_545 S
C33 O41 1.249 . S
O34 C33 1.264 1_565 S
O35 Mg28 1.986 1_655 S
O35 C39 1.246 . S
O36 Mg31 2.032 . S
O36 C39 1.259 . S
O37 Mg28 2.114 1_565 S
O37 C40 1.252 1_455 S
O38 Mg28 2.251 1_655 S
O38 Mg31 2.079 . S
O38 C40 1.273 1_545 S
C39 O35 1.246 . S
C39 O36 1.259 . S
C40 O37 1.252 1_655 S
C40 O38 1.273 1_565 S
O41 Mg28 2.010 . S
O41 C33 1.249 . S
C42 O44 1.247 . S
C42 O46 1.258 1_455 S
C43 O50 1.247 . S
C43 O51 1.258 . S
O44 C42 1.247 . S
O44 Zn45 2.028 . S
Zn45 O44 2.028 . S
Zn45 O49 2.035 . S
Zn45 O51 2.035 . S
Zn45 O52 2.028 . S
O46 C42 1.258 1_655 S
O46 Zn47 2.035 . S
Zn47 O46 2.035 . S
Zn47 O48 2.028 . S
Zn47 O50 2.028 1_655 S
Zn47 O53 2.035 1_655 S
O48 Zn47 2.028 . S
O48 C54 1.247 1_655 S
O49 Zn45 2.035 . S
O49 C54 1.258 . S
O50 C43 1.247 . S
O50 Zn47 2.028 1_455 S
O51 C43 1.258 . S
O51 Zn45 2.035 . S
O52 Zn45 2.028 . S
O52 C55 1.247 . S
O53 Zn47 2.035 1_455 S
O53 C55 1.258 . S
C54 O48 1.247 1_455 S
C54 O49 1.258 . S
C55 O52 1.247 . S
C55 O53 1.258 . S
C56 O58 1.247 . S
C56 O60 1.258 . S
C57 O64 1.247 . S
C57 O65 1.258 . S
O58 C56 1.247 . S
O58 Zn59 2.028 . S
Zn59 O58 2.028 . S
Zn59 O63 2.035 . S
Zn59 O65 2.035 . S
Zn59 O66 2.028 . S
O60 C56 1.258 . S
O60 Zn61 2.035 . S
Zn61 O60 2.035 . S
Zn61 O62 2.028 . S
Zn61 O64 2.028 . S
Zn61 O67 2.035 . S
O62 Zn61 2.028 . S
O62 C68 1.247 . S
O63 Zn59 2.035 . S
O63 C68 1.258 . S
O64 C57 1.247 . S
O64 Zn61 2.028 . S
O65 C57 1.258 . S
O65 Zn59 2.035 . S
O66 Zn59 2.028 . S
O66 C69 1.247 . S
O67 Zn61 2.035 . S
O67 C69 1.258 . S
C68 O62 1.247 . S
C68 O63 1.258 . S
C69 O66 1.247 . S
C69 O67 1.258 . S
C70 O72 1.247 . S
C70 O74 1.258 . S
C71 O78 1.247 . S
C71 O79 1.258 . S
O72 C70 1.247 . S
O72 Zn73 2.028 . S
Zn73 O72 2.028 . S
Zn73 O77 2.035 . S
Zn73 O79 2.035 . S
Zn73 O80 2.028 . S
O74 C70 1.258 . S
O74 Zn75 2.035 . S
Zn75 O74 2.035 . S
Zn75 O76 2.028 . S
Zn75 O78 2.028 . S
Zn75 O81 2.035 . S
O76 Zn75 2.028 . S
O76 C82 1.247 . S
O77 Zn73 2.035 . S
O77 C82 1.258 . S
O78 C71 1.247 . S
O78 Zn75 2.028 . S
O79 C71 1.258 . S
O79 Zn73 2.035 . S
O80 Zn73 2.028 . S
O80 C83 1.247 . S
O81 Zn75 2.035 . S
O81 C83 1.258 . S
C82 O76 1.247 . S
C82 O77 1.258 . S
C83 O80 1.247 . S
C83 O81 1.258 . S
C84 C85 1.386 . S
C84 C86 1.383 . S
C84 H100 0.951 1_455 S
C85 C84 1.386 . S
C85 C89 1.383 . S
C86 C84 1.383 . S
C86 C87 1.402 . S
C86 H101 0.951 1_455 S
C87 C86 1.402 . S
C87 C88 1.375 . S
C87 C90 1.481 . S
C88 C87 1.375 . S
C88 C89 1.367 . S
C88 H102 0.951 . S
C89 C85 1.383 . S
C89 C88 1.367 . S
C89 H103 0.950 . S
C90 C87 1.481 . S
C90 C91 1.297 . S
C90 H104 0.950 . S
C91 C90 1.297 . S
C91 C92 1.479 . S
C91 H105 0.950 1_455 S
C92 C91 1.479 . S
C92 C93 1.375 1_455 S
C92 C98 1.404 . S
C93 C92 1.375 1_655 S
C93 C94 1.369 1_655 S
C93 H106 0.950 . S
C94 C93 1.369 1_455 S
C94 C95 1.392 . S
C94 H107 0.951 1_455 S
C95 C94 1.392 . S
C95 C97 1.384 . S
H96 C98 0.949 . S
C97 C95 1.384 . S
C97 C98 1.385 . S
C97 H99 0.950 . S
C98 C92 1.404 . S
C98 H96 0.949 . S
C98 C97 1.385 . S
H99 C97 0.950 . S
H100 C84 0.951 1_655 S
H101 C86 0.951 1_655 S
H102 C88 0.951 . S
H103 C89 0.950 . S
H104 C90 0.950 . S
H105 C91 0.950 1_655 S
H106 C93 0.950 . S
H107 C94 0.951 1_655 S
C108 C109 1.386 . S
C108 C110 1.383 . S
C108 H124 0.951 . S
C109 C108 1.386 . S
C109 C113 1.383 . S
C110 C108 1.383 . S
C110 C111 1.402 . S
C110 H125 0.951 . S
C111 C110 1.402 . S
C111 C112 1.375 . S
C111 C114 1.481 . S
C112 C111 1.375 . S
C112 C113 1.367 . S
C112 H126 0.951 . S
C113 C109 1.383 . S
C113 C112 1.367 . S
C113 H127 0.950 . S
C114 C111 1.481 . S
C114 C115 1.297 . S
C114 H128 0.950 . S
C115 C114 1.297 . S
C115 C116 1.479 . S
C115 H129 0.950 . S
C116 C115 1.479 . S
C116 C117 1.375 . S
C116 C122 1.404 . S
C117 C116 1.375 . S
C117 C118 1.369 . S
C117 H130 0.950 . S
C118 C117 1.369 . S
C118 C119 1.392 . S
C118 H131 0.951 . S
C119 C118 1.392 . S
C119 C121 1.384 . S
H120 C122 0.949 . S
C121 C119 1.384 . S
C121 C122 1.385 . S
C121 H123 0.950 . S
C122 C116 1.404 . S
C122 H120 0.949 . S
C122 C121 1.385 . S
H123 C121 0.950 . S
H124 C108 0.951 . S
H125 C110 0.951 . S
H126 C112 0.951 . S
H127 C113 0.950 . S
H128 C114 0.950 . S
H129 C115 0.950 . S
H130 C117 0.950 . S
H131 C118 0.951 . S
C132 C133 1.386 . S
C132 C134 1.383 . S
C132 H148 0.951 . S
C133 C132 1.386 . S
C133 C137 1.383 . S
C134 C132 1.383 . S
C134 C135 1.402 . S
C134 H149 0.951 . S
C135 C134 1.402 . S
C135 C136 1.375 . S
C135 C138 1.481 . S
C136 C135 1.375 . S
C136 C137 1.367 . S
C136 H150 0.951 . S
C137 C133 1.383 . S
C137 C136 1.367 . S
C137 H151 0.950 . S
C138 C135 1.481 . S
C138 C139 1.297 . S
C138 H152 0.950 . S
C139 C138 1.297 . S
C139 C140 1.479 . S
C139 H153 0.950 . S
C140 C139 1.479 . S
C140 C141 1.375 . S
C140 C146 1.404 . S
C141 C140 1.375 . S
C141 C142 1.369 . S
C141 H154 0.950 . S
C142 C141 1.369 . S
C142 C143 1.392 . S
C142 H155 0.951 . S
C143 C142 1.392 . S
C143 C145 1.384 . S
H144 C146 0.949 . S
C145 C143 1.384 . S
C145 C146 1.385 . S
C145 H147 0.950 . S
C146 C140 1.404 . S
C146 H144 0.949 . S
C146 C145 1.385 . S
H147 C145 0.950 . S
H148 C132 0.951 . S
H149 C134 0.951 . S
H150 C136 0.951 . S
H151 C137 0.950 . S
H152 C138 0.950 . S
H153 C139 0.950 . S
H154 C141 0.950 . S
H155 C142 0.951 . S
C156 C157 1.386 . S
C156 C158 1.383 . S
C156 H172 0.951 . S
C157 C156 1.386 . S
C157 C161 1.383 . S
C158 C156 1.383 . S
C158 C159 1.402 . S
C158 H173 0.951 . S
C159 C158 1.402 . S
C159 C160 1.375 . S
C159 C162 1.481 . S
C160 C159 1.375 . S
C160 C161 1.367 . S
C160 H174 0.951 . S
C161 C157 1.383 . S
C161 C160 1.367 . S
C161 H175 0.950 1_565 S
C162 C159 1.481 . S
C162 C163 1.297 . S
C162 H176 0.950 . S
C163 C162 1.297 . S
C163 C164 1.479 . S
C163 H177 0.950 . S
C164 C163 1.479 . S
C164 C165 1.375 . S
C164 C170 1.404 . S
C165 C164 1.375 . S
C165 C166 1.369 . S
C165 H178 0.950 . S
C166 C165 1.369 . S
C166 C167 1.392 . S
C166 H179 0.951 . S
C167 C166 1.392 . S
C167 C169 1.384 . S
H168 C170 0.949 . S
C169 C167 1.384 . S
C169 C170 1.385 . S
C169 H171 0.950 . S
C170 C164 1.404 . S
C170 H168 0.949 . S
C170 C169 1.385 . S
H171 C169 0.950 . S
H172 C156 0.951 . S
H173 C158 0.951 . S
H174 C160 0.951 . S
H175 C161 0.950 1_545 S
H176 C162 0.950 . S
H177 C163 0.950 . S
H178 C165 0.950 . S
H179 C166 0.951 . S
C180 C181 1.386 . S
C180 C182 1.383 . S
C180 H196 0.951 . S
C181 C180 1.386 . S
C181 C185 1.383 . S
C182 C180 1.383 . S
C182 C183 1.402 . S
C182 H197 0.951 . S
C183 C182 1.402 . S
C183 C184 1.375 . S
C183 C186 1.481 . S
C184 C183 1.375 . S
C184 C185 1.367 . S
C184 H198 0.951 . S
C185 C181 1.383 . S
C185 C184 1.367 . S
C185 H199 0.950 . S
C186 C183 1.481 . S
C186 C187 1.297 . S
C186 H200 0.950 . S
C187 C186 1.297 . S
C187 C188 1.479 . S
C187 H201 0.950 . S
C188 C187 1.479 . S
C188 C189 1.375 . S
C188 C194 1.404 . S
C189 C188 1.375 . S
C189 C190 1.369 . S
C189 H202 0.950 . S
C190 C189 1.369 . S
C190 C191 1.392 . S
C190 H203 0.951 . S
C191 C190 1.392 . S
C191 C193 1.384 . S
H192 C194 0.949 . S
C193 C191 1.384 . S
C193 C194 1.385 . S
C193 H195 0.950 . S
C194 C188 1.404 . S
C194 H192 0.949 . S
C194 C193 1.385 . S
H195 C193 0.950 . S
H196 C180 0.951 . S
H197 C182 0.951 . S
H198 C184 0.951 . S
H199 C185 0.950 . S
H200 C186 0.950 . S
H201 C187 0.950 . S
H202 C189 0.950 . S
H203 C190 0.951 . S
C204 C205 1.386 . S
C204 C206 1.383 . S
C204 H220 0.951 . S
C205 C204 1.386 . S
C205 C209 1.383 . S
C206 C204 1.383 . S
C206 C207 1.402 . S
C206 H221 0.951 . S
C207 C206 1.402 . S
C207 C208 1.375 . S
C207 C210 1.481 . S
C208 C207 1.375 . S
C208 C209 1.367 . S
C208 H222 0.951 . S
C209 C205 1.383 . S
C209 C208 1.367 . S
C209 H223 0.950 . S
C210 C207 1.481 . S
C210 C211 1.297 . S
C210 H224 0.950 . S
C211 C210 1.297 . S
C211 C212 1.479 . S
C211 H225 0.950 . S
C212 C211 1.479 . S
C212 C213 1.375 . S
C212 C218 1.404 . S
C213 C212 1.375 . S
C213 C214 1.369 . S
C213 H226 0.950 . S
C214 C213 1.369 . S
C214 C215 1.392 . S
C214 H227 0.951 . S
C215 C214 1.392 . S
C215 C217 1.384 . S
H216 C218 0.949 . S
C217 C215 1.384 . S
C217 C218 1.385 . S
C217 H219 0.950 . S
C218 C212 1.404 . S
C218 H216 0.949 . S
C218 C217 1.385 . S
H219 C217 0.950 . S
H220 C204 0.951 . S
H221 C206 0.951 . S
H222 C208 0.951 . S
H223 C209 0.950 . S
H224 C210 0.950 . S
H225 C211 0.950 . S
H226 C213 0.950 . S
H227 C214 0.951 . S
C228 C229 1.386 . S
C228 C230 1.383 . S
C228 H244 0.951 . S
C229 C228 1.386 . S
C229 C233 1.383 . S
C230 C228 1.383 . S
C230 C231 1.402 . S
C230 H245 0.951 . S
C231 C230 1.402 . S
C231 C232 1.375 . S
C231 C234 1.481 . S
C232 C231 1.375 . S
C232 C233 1.367 . S
C232 H246 0.951 . S
C233 C229 1.383 . S
C233 C232 1.367 . S
C233 H247 0.950 . S
C234 C231 1.481 . S
C234 C235 1.297 . S
C234 H248 0.950 . S
C235 C234 1.297 . S
C235 C236 1.479 . S
C235 H249 0.950 . S
C236 C235 1.479 . S
C236 C237 1.375 . S
C236 C242 1.404 . S
C237 C236 1.375 . S
C237 C238 1.369 . S
C237 H250 0.950 . S
C238 C237 1.369 . S
C238 C239 1.392 . S
C238 H251 0.951 . S
C239 C238 1.392 . S
C239 C241 1.384 . S
H240 C242 0.949 . S
C241 C239 1.384 . S
C241 C242 1.385 . S
C241 H243 0.950 . S
C242 C236 1.404 . S
C242 H240 0.949 . S
C242 C241 1.385 . S
H243 C241 0.950 . S
H244 C228 0.951 . S
H245 C230 0.951 . S
H246 C232 0.951 . S
H247 C233 0.950 . S
H248 C234 0.950 . S
H249 C235 0.950 . S
H250 C237 0.950 . S
H251 C238 0.951 . S
C252 C253 1.386 . S
C252 C254 1.383 1_554 S
C252 H268 0.951 1_564 S
C253 C252 1.386 . S
C253 C257 1.383 . S
C254 C252 1.383 1_556 S
C254 C255 1.402 1_556 S
C254 H269 0.951 . S
C255 C254 1.402 1_554 S
C255 C256 1.375 . S
C255 C258 1.481 1_554 S
C256 C255 1.375 . S
C256 C257 1.367 . S
C256 H270 0.951 . S
C257 C253 1.383 . S
C257 C256 1.367 . S
C257 H271 0.950 . S
C258 C255 1.481 1_556 S
C258 C259 1.297 . S
C258 H272 0.950 . S
C259 C258 1.297 . S
C259 C260 1.479 . S
C259 H273 0.950 . S
C260 C259 1.479 . S
C260 C261 1.375 . S
C260 C266 1.404 . S
C261 C260 1.375 . S
C261 C262 1.369 . S
C261 H274 0.950 . S
C262 C261 1.369 . S
C262 C263 1.392 . S
C262 H275 0.951 . S
C263 C262 1.392 . S
C263 C265 1.384 . S
H264 C266 0.949 . S
C265 C263 1.384 . S
C265 C266 1.385 . S
C265 H267 0.950 . S
C266 C260 1.404 . S
C266 H264 0.949 . S
C266 C265 1.385 . S
H267 C265 0.950 . S
H268 C252 0.951 1_546 S
H269 C254 0.951 . S
H270 C256 0.951 . S
H271 C257 0.950 . S
H272 C258 0.950 . S
H273 C259 0.950 . S
H274 C261 0.950 . S
H275 C262 0.951 . S
C276 C277 1.386 1_455 S
C276 C278 1.383 . S
C276 H292 0.951 . S
C277 C276 1.386 1_655 S
C277 C281 1.383 . S
C278 C276 1.383 . S
C278 C279 1.402 1_455 S
C278 H293 0.951 . S
C279 C278 1.402 1_655 S
C279 C280 1.375 . S
C279 C282 1.481 . S
C280 C279 1.375 . S
C280 C281 1.367 . S
C280 H294 0.951 . S
C281 C277 1.383 . S
C281 C280 1.367 . S
C281 H295 0.950 . S
C282 C279 1.481 . S
C282 C283 1.297 1_655 S
C282 H296 0.950 . S
C283 C282 1.297 1_455 S
C283 C284 1.479 . S
C283 H297 0.950 . S
C284 C283 1.479 . S
C284 C285 1.375 . S
C284 C290 1.404 1_455 S
C285 C284 1.375 . S
C285 C286 1.369 . S
C285 H298 0.950 . S
C286 C285 1.369 . S
C286 C287 1.392 . S
C286 H299 0.951 . S
C287 C286 1.392 . S
C287 C289 1.384 1_455 S
H288 C290 0.949 . S
C289 C287 1.384 1_655 S
C289 C290 1.385 . S
C289 H291 0.950 . S
C290 C284 1.404 1_655 S
C290 H288 0.949 . S
C290 C289 1.385 . S
H291 C289 0.950 . S
H292 C276 0.951 . S
H293 C278 0.951 . S
H294 C280 0.951 . S
H295 C281 0.950 . S
H296 C282 0.950 . S
H297 C283 0.950 . S
H298 C285 0.950 . S
H299 C286 0.951 . S
C300 C301 1.386 . S
C300 C302 1.383 . S
C300 H316 0.951 . S
C301 C300 1.386 . S
C301 C305 1.383 . S
C302 C300 1.383 . S
C302 C303 1.402 . S
C302 H317 0.951 . S
C303 C302 1.402 . S
C303 C304 1.375 . S
C303 C306 1.481 . S
C304 C303 1.375 . S
C304 C305 1.367 . S
C304 H318 0.951 . S
C305 C301 1.383 . S
C305 C304 1.367 . S
C305 H319 0.950 . S
C306 C303 1.481 . S
C306 C307 1.297 . S
C306 H320 0.950 . S
C307 C306 1.297 . S
C307 C308 1.479 . S
C307 H321 0.950 . S
C308 C307 1.479 . S
C308 C309 1.375 . S
C308 C314 1.404 . S
C309 C308 1.375 . S
C309 C310 1.369 . S
C309 H322 0.950 . S
C310 C309 1.369 . S
C310 C311 1.392 . S
C310 H323 0.951 . S
C311 C310 1.392 . S
C311 C313 1.384 . S
H312 C314 0.949 . S
C313 C311 1.384 . S
C313 C314 1.385 . S
C313 H315 0.950 . S
C314 C308 1.404 . S
C314 H312 0.949 . S
C314 C313 1.385 . S
H315 C313 0.950 . S
H316 C300 0.951 . S
H317 C302 0.951 . S
H318 C304 0.951 . S
H319 C305 0.950 . S
H320 C306 0.950 . S
H321 C307 0.950 . S
H322 C309 0.950 . S
H323 C310 0.951 . S
C324 C325 1.386 . S
C324 C326 1.383 . S
C324 H340 0.951 . S
C325 C324 1.386 . S
C325 C329 1.383 . S
C326 C324 1.383 . S
C326 C327 1.402 1_554 S
C326 H341 0.951 . S
C327 C326 1.402 1_556 S
C327 C328 1.375 . S
C327 C330 1.481 . S
C328 C327 1.375 . S
C328 C329 1.367 1_556 S
C328 H342 0.951 . S
C329 C325 1.383 . S
C329 C328 1.367 1_554 S
C329 H343 0.950 . S
C330 C327 1.481 . S
C330 C331 1.297 . S
C330 H344 0.950 . S
C331 C330 1.297 . S
C331 C332 1.479 . S
C331 H345 0.950 . S
C332 C331 1.479 . S
C332 C333 1.375 . S
C332 C338 1.404 . S
C333 C332 1.375 . S
C333 C334 1.369 . S
C333 H346 0.950 . S
C334 C333 1.369 . S
C334 C335 1.392 . S
C334 H347 0.951 . S
C335 C334 1.392 . S
C335 C337 1.384 . S
H336 C338 0.949 . S
C337 C335 1.384 . S
C337 C338 1.385 . S
C337 H339 0.950 . S
C338 C332 1.404 . S
C338 H336 0.949 . S
C338 C337 1.385 . S
H339 C337 0.950 . S
H340 C324 0.951 . S
H341 C326 0.951 . S
H342 C328 0.951 . S
H343 C329 0.950 . S
H344 C330 0.950 . S
H345 C331 0.950 . S
H346 C333 0.950 . S
H347 C334 0.951 . S
C348 C349 1.386 . S
C348 C350 1.383 . S
C348 H364 0.951 1_455 S
C349 C348 1.386 . S
C349 C353 1.383 . S
C350 C348 1.383 . S
C350 C351 1.402 . S
C350 H365 0.951 1_455 S
C351 C350 1.402 . S
C351 C352 1.375 . S
C351 C354 1.481 . S
C352 C351 1.375 . S
C352 C353 1.367 . S
C352 H366 0.951 . S
C353 C349 1.383 . S
C353 C352 1.367 . S
C353 H367 0.950 . S
C354 C351 1.481 . S
C354 C355 1.297 . S
C354 H368 0.950 . S
C355 C354 1.297 . S
C355 C356 1.479 . S
C355 H369 0.950 1_455 S
C356 C355 1.479 . S
C356 C357 1.375 1_455 S
C356 C362 1.404 . S
C357 C356 1.375 1_655 S
C357 C358 1.369 . S
C357 H370 0.950 . S
C358 C357 1.369 . S
C358 C359 1.392 1_655 S
C358 H371 0.951 . S
C359 C358 1.392 1_455 S
C359 C361 1.384 . S
H360 C362 0.949 . S
C361 C359 1.384 . S
C361 C362 1.385 . S
C361 H363 0.950 . S
C362 C356 1.404 . S
C362 H360 0.949 . S
C362 C361 1.385 . S
H363 C361 0.950 . S
H364 C348 0.951 1_655 S
H365 C350 0.951 1_655 S
H366 C352 0.951 . S
H367 C353 0.950 . S
H368 C354 0.950 . S
H369 C355 0.950 1_655 S
H370 C357 0.950 . S
H371 C358 0.951 . S
C95 C43 1.369 . S
C85 C11 1.369 . S
C109 C26 1.495 . S
C119 C69 1.472 . S
C133 C40 1.375 . S
C143 C71 1.378 . S
C157 C5 1.144 1_565 S
C167 C55 1.347 . S
C191 C57 1.491 . S
C181 C18 1.499 . S
C205 C32 1.341 . S
C215 C83 1.372 . S
C239 C56 1.240 . S
C229 C39 1.244 . S
C253 C4 1.392 1_665 S
C263 C82 1.388 . S
C287 C42 1.353 . S
C277 C19 1.189 . S
C311 C68 1.264 . S
C301 C33 1.065 . S
C335 C70 1.388 . S
C325 C12 1.379 . S
C349 C25 1.365 . S
C359 C54 1.368 . S
