# Generated by pormake.
# Topology pth, (4,4)-cn, num edge types: 1
# Building blocks:
#     Node 0, Type 0, BuildingBlock: KUFVIS_clean_sbu_0, # of connection points: 4
#     Node 1, Type 0, BuildingBlock: KUFVIS_clean_sbu_0, # of connection points: 4
#     Node 2, Type 0, BuildingBlock: KUFVIS_clean_sbu_0, # of connection points: 4
#     Node 3, Type 1, BuildingBlock: NAWXER_clean_sbu_0, # of connection points: 4
#     Node 4, Type 1, BuildingBlock: NAWXER_clean_sbu_0, # of connection points: 4
#     Node 5, Type 1, BuildingBlock: NAWXER_clean_sbu_0, # of connection points: 4
#     Edge 6, Type (0, 1), BuildingBlock: TEMPAE_clean_linker_10, # of connection points: 2
#     Edge 7, Type (0, 1), BuildingBlock: TEMPAE_clean_linker_10, # of connection points: 2
#     Edge 8, Type (0, 1), BuildingBlock: TEMPAE_clean_linker_10, # of connection points: 2
#     Edge 9, Type (0, 1), BuildingBlock: TEMPAE_clean_linker_10, # of connection points: 2
#     Edge 10, Type (0, 1), BuildingBlock: TEMPAE_clean_linker_10, # of connection points: 2
#     Edge 11, Type (0, 1), BuildingBlock: TEMPAE_clean_linker_10, # of connection points: 2
#     Edge 12, Type (0, 1), BuildingBlock: TEMPAE_clean_linker_10, # of connection points: 2
#     Edge 13, Type (0, 1), BuildingBlock: TEMPAE_clean_linker_10, # of connection points: 2
#     Edge 14, Type (0, 1), BuildingBlock: TEMPAE_clean_linker_10, # of connection points: 2
#     Edge 15, Type (0, 1), BuildingBlock: TEMPAE_clean_linker_10, # of connection points: 2
#     Edge 16, Type (0, 1), BuildingBlock: TEMPAE_clean_linker_10, # of connection points: 2
#     Edge 17, Type (0, 1), BuildingBlock: TEMPAE_clean_linker_10, # of connection points: 2
# Relax obj value: 0.009
# Max RMSD: 0.080
# Mean RMSD: 0.046
data_MOF--net-pth--node1-KUFVIS_clean_sbu_0--node2-NAWXER_clean_sbu_0--edge1-TEMPAE_clean_linker_10
_symmetry_space_group_name_H-M    P1
_symmetry_Int_Tables_number       1
_symmetry_cell_setting            triclinic
loop_
_symmetry_equiv_pos_as_xyz
'x, y, z'
_cell_length_a     22.729213
_cell_length_b     22.70011
_cell_length_c     58.141279
_cell_angle_alpha  90.551071
_cell_angle_beta   91.722568
_cell_angle_gamma 119.83743
loop_
_atom_site_label
_atom_site_type_symbol
_atom_site_fract_x
_atom_site_fract_y
_atom_site_fract_z
_atom_type_partial_charge
Mn0 Mn 0.05266 0.11431 0.06785 0.0
Mn1 Mn 1.00055 0.20426 0.03589 0.0
C2 C 0.98134 0.06474 0.03565 0.0
C3 C 0.03847 0.04237 0.09826 0.0
C4 C 0.13882 0.21729 0.03181 0.0
O5 O 0.07419 0.1942 0.08951 0.0
O6 O 0.04103 0.25135 0.06607 0.0
C7 C 0.88969 0.18649 0.06566 0.0
N8 N 0.91112 0.18034 0.0446 0.0
C9 C 0.79902 0.13668 0.02744 0.0
C10 C 0.7758 0.14283 0.04891 0.0
C11 C 0.82129 0.16756 0.06812 0.0
C12 C 0.86758 0.15566 0.02609 0.0
H13 H 0.92449 0.2057 0.08047 0.0
C14 C 0.06672 0.24515 0.08518 0.0
O15 O 0.09762 0.08025 0.08977 0.0
O16 O 0.9884 0.04822 0.08966 0.0
N17 N 0.9595 0.1657 1.0063 0.0
C18 C 0.98956 0.16107 0.98697 0.0
C19 C 0.95102 0.13732 0.96619 0.0
C20 C 0.88234 0.11962 0.96543 0.0
C21 C 0.85248 0.12481 0.98554 0.0
C22 C 0.89342 0.14881 1.00573 0.0
H23 H 0.04246 0.17517 0.98742 0.0
O24 O 0.01851 0.04044 0.0437 0.0
O25 O 0.98627 0.11702 0.04683 0.0
O26 O 0.1326 0.17688 0.04793 0.0
O27 O 0.09199 0.23009 0.02559 0.0
C28 C 0.78377 0.10734 0.98634 0.0
C29 C 0.75687 0.1125 0.00732 0.0
H30 H 0.72314 0.12859 0.05085 0.0
H31 H 0.80373 0.17228 0.08477 0.0
H32 H 0.97433 0.13319 0.95076 0.0
H33 H 0.85309 0.10232 0.9493 0.0
H34 H 0.75099 0.08942 0.97095 0.0
H35 H 0.70374 0.09794 0.00778 0.0
Mn36 Mn 0.0643 0.1276 0.40444 0.0
Mn37 Mn 0.11219 0.26922 0.437 0.0
C38 C 0.13443 0.1509 0.43704 0.0
C39 C 0.08125 0.07027 0.37405 0.0
C40 C 0.97365 0.14349 0.43926 0.0
O41 O 0.04322 0.18549 0.38282 0.0
O42 O 0.07622 0.27695 0.40627 0.0
C43 C 0.22777 0.3637 0.40951 0.0
N44 N 0.20303 0.335 0.43003 0.0
C45 C 0.3126 0.40182 0.4492 0.0
C46 C 0.33922 0.43234 0.4283 0.0
C47 C 0.29666 0.41296 0.40835 0.0
C48 C 0.24372 0.35259 0.44925 0.0
H49 H 0.1952 0.3491 0.39415 0.0
C50 C 0.05146 0.2445 0.38705 0.0
O51 O 0.02146 0.04864 0.38212 0.0
O52 O 0.13052 0.12632 0.38304 0.0
N53 N 0.14867 0.26979 0.46714 0.0
C54 C 0.1157 0.23352 0.48571 0.0
C55 C 0.15112 0.24655 0.50705 0.0
C56 C 0.21974 0.29724 0.50914 0.0
C57 C 0.25265 0.3338 0.48977 0.0
C58 C 0.21472 0.31866 0.46897 0.0
H59 H 0.06287 0.19482 0.48424 0.0
O60 O 0.09846 0.0892 0.4288 0.0
O61 O 0.12847 0.19716 0.42594 0.0
O62 O 0.98246 0.10896 0.42365 0.0
O63 O 0.01909 0.20361 0.44568 0.0
C64 C 0.32152 0.3848 0.4903 0.0
C65 C 0.3517 0.4182 0.46998 0.0
H66 H 0.39228 0.47053 0.42735 0.0
H67 H 0.31687 0.43612 0.39213 0.0
H68 H 0.12548 0.21789 0.52189 0.0
H69 H 0.24662 0.30766 0.52569 0.0
H70 H 0.35185 0.39855 0.50623 0.0
H71 H 0.40498 0.45652 0.47053 0.0
Mn72 Mn 0.06898 0.08594 0.73661 0.0
Mn73 Mn 0.99388 0.16355 0.76296 0.0
C74 C 0.12515 0.16366 0.76699 0.0
C75 C 0.13278 0.07408 0.708 0.0
C76 C 0.96013 0.01974 0.77267 0.0
O77 O 0.9932 0.07029 0.71321 0.0
O78 O 0.94828 0.12338 0.73277 0.0
C79 C 0.03195 0.27414 0.7299 0.0
N80 N 0.03041 0.25357 0.75191 0.0
C81 C 0.0771 0.36782 0.76695 0.0
C82 C 0.07912 0.39034 0.74446 0.0
C83 C 0.05691 0.34333 0.72584 0.0
C84 C 0.0533 0.29855 0.76987 0.0
H85 H 0.014 0.23801 0.71557 0.0
C86 C 0.95002 0.09027 0.71516 0.0
O87 O 0.08911 0.02281 0.7193 0.0
O88 O 0.13906 0.133 0.713 0.0
N89 N 0.03123 0.20608 0.7924 0.0
C90 C 0.02703 0.17616 0.81295 0.0
C91 C 0.04488 0.21559 0.8334 0.0
C92 C 0.06567 0.285 0.83252 0.0
C93 C 0.07097 0.31503 0.81115 0.0
C94 C 0.05229 0.27314 0.79137 0.0
H95 H 1.0091 0.12241 0.81376 0.0
O96 O 0.1418 0.11844 0.76153 0.0
O97 O 0.07693 0.16338 0.75428 0.0
O98 O 1.00018 0.01765 0.75827 0.0
O99 O 0.95373 0.07192 0.77592 0.0
C100 C 0.0929 0.3846 0.80871 0.0
C101 C 0.0971 0.4112 0.78661 0.0
H102 H 0.09749 0.44353 0.74129 0.0
H103 H 0.05832 0.36027 0.70842 0.0
H104 H 0.04125 0.19226 0.84983 0.0
H105 H 0.07742 0.31478 0.84838 0.0
H106 H 0.10721 0.41825 0.82372 0.0
H107 H 0.11509 0.46494 0.78494 0.0
C108 C 0.11899 0.74667 0.26505 0.0
C109 C 0.10421 0.5844 0.20573 0.0
O110 O 0.16804 0.7491 0.25431 0.0
Zn111 Zn 0.11447 0.6676 0.23501 0.0
O112 O 0.05824 0.6989 0.26038 0.0
Zn113 Zn 1.00627 0.61346 0.2372 0.0
O114 O 0.96282 0.53881 0.25808 0.0
O115 O 0.0745 0.58661 0.25903 0.0
O116 O 0.04646 0.57217 0.2129 0.0
O117 O 0.15807 0.63604 0.21382 0.0
O118 O 0.06222 0.70066 0.2122 0.0
O119 O 0.95239 0.64071 0.21814 0.0
C120 C 0.01676 0.54121 0.26608 0.0
C121 C 1.00135 0.68733 0.2076 0.0
C122 C 0.63764 0.10871 0.59289 0.0
C123 C 0.49327 0.14813 0.53826 0.0
O124 O 0.58572 0.05414 0.58493 0.0
Zn125 Zn 0.5007 0.02401 0.56154 0.0
O126 O 0.64626 0.16604 0.5867 0.0
Zn127 Zn 0.56625 0.13207 0.5662 0.0
O128 O 0.48548 0.08845 0.58928 0.0
O129 O 0.4221 0.97884 0.5809 0.0
O130 O 0.54477 0.19367 0.54974 0.0
O131 O 0.47367 0.08524 0.54115 0.0
O132 O 0.51993 0.97425 0.53816 0.0
O133 O 0.59094 0.08521 0.53896 0.0
C134 C 0.43373 0.0307 0.59307 0.0
C135 C 0.57061 0.02596 0.53011 0.0
C136 C 0.53388 0.50087 0.93762 0.0
C137 C 0.67079 0.63913 0.87489 0.0
O138 O 0.5171 0.54361 0.93021 0.0
Zn139 Zn 0.54422 0.6168 0.9041 0.0
O140 O 0.58126 0.49601 0.92827 0.0
Zn141 Zn 0.60401 0.56789 0.90616 0.0
O142 O 0.63913 0.65712 0.92789 0.0
O143 O 0.57192 0.70019 0.92141 0.0
O144 O 0.68053 0.59664 0.88611 0.0
O145 O 0.62218 0.64942 0.87997 0.0
O146 O 0.46277 0.5778 0.88465 0.0
O147 O 0.51789 0.52078 0.88236 0.0
C148 C 0.62325 0.70304 0.93187 0.0
C149 C 0.46801 0.52902 0.87602 0.0
C150 C 0.09815 0.2892 0.12623 0.0
C151 C 0.08572 0.29918 0.10321 0.0
C152 C 0.10922 0.3377 0.14359 0.0
C153 C 0.10807 0.39761 0.13775 0.0
C154 C 0.09904 0.40947 0.11441 0.0
C155 C 0.0879 0.36022 0.09748 0.0
C156 C 0.11878 0.32326 0.16828 0.0
C157 C 0.09772 0.47273 0.1074 0.0
C158 C 0.04619 0.47928 0.18072 0.0
C159 C 0.10674 0.53682 0.1886 0.0
C160 C 0.04638 0.43303 0.16463 0.0
C161 C 0.10866 0.44433 0.15606 0.0
C162 C 0.17019 0.50178 0.16409 0.0
C163 C 0.16853 0.54743 0.18028 0.0
C164 C 0.97956 0.37252 0.15652 0.0
C165 C 0.23755 0.51546 0.15532 0.0
H166 H 0.09681 0.24241 0.13085 0.0
H167 H 0.07927 0.36906 0.07973 0.0
H168 H 0.16307 0.36806 0.17673 0.0
H169 H 0.0734 0.31311 0.17791 0.0
H170 H 0.12628 0.27865 0.16971 0.0
H171 H 0.09675 0.47744 0.08841 0.0
H172 H 0.05199 0.47162 0.1141 0.0
H173 H 0.14271 0.51871 0.11496 0.0
H174 H 0.99812 0.47024 0.18707 0.0
H175 H 0.21557 0.59152 0.18634 0.0
H176 H 0.98063 0.3248 0.15935 0.0
H177 H 0.97115 0.37534 0.13776 0.0
H178 H 0.93582 0.36964 0.16553 0.0
H179 H 0.24394 0.47055 0.15784 0.0
H180 H 0.28103 0.56038 0.1641 0.0
H181 H 0.23899 0.52431 0.13656 0.0
C182 C 0.90371 0.13966 0.47217 0.0
C183 C 0.90784 0.1128 0.45083 0.0
C184 C 0.84208 0.11338 0.48324 0.0
C185 C 0.78232 0.05961 0.47256 0.0
C186 C 0.78604 0.03131 0.4512 0.0
C187 C 0.84894 0.05788 0.44066 0.0
C188 C 0.84077 0.14454 0.50618 0.0
C189 C 0.72331 0.97466 0.43914 0.0
C190 C 0.63898 0.9781 0.51404 0.0
C191 C 0.61032 0.01995 0.51162 0.0
C192 C 0.69216 0.98662 0.50013 0.0
C193 C 0.71592 0.03731 0.48326 0.0
C194 C 0.68219 0.07477 0.47934 0.0
C195 C 0.63049 0.06634 0.49381 0.0
C196 C 0.72705 0.94606 0.50503 0.0
C197 C 0.70467 0.12821 0.46124 0.0
H198 H 0.94882 0.1817 0.48029 0.0
H199 H 0.85156 0.0369 0.42415 0.0
H200 H 0.81031 0.17026 0.50436 0.0
H201 H 0.81629 0.1044 0.51902 0.0
H202 H 0.89243 0.18233 0.51298 0.0
H203 H 0.73551 0.95418 0.4237 0.0
H204 H 0.6953 0.93259 0.45104 0.0
H205 H 0.68876 0.99375 0.4337 0.0
H206 H 0.6239 0.94287 0.52804 0.0
H207 H 0.60818 0.09871 0.492 0.0
H208 H 0.77599 0.97887 0.51459 0.0
H209 H 0.73861 0.9285 0.4888 0.0
H210 H 0.6958 0.90125 0.51557 0.0
H211 H 0.75319 0.17342 0.46715 0.0
H212 H 0.66662 0.14452 0.45782 0.0
H213 H 0.71375 0.10902 0.44488 0.0
C214 C 0.91289 0.89584 0.78024 0.0
C215 C 0.92038 0.95909 0.7867 0.0
C216 C 0.87548 0.83812 0.7934 0.0
C217 C 0.84568 0.84395 0.81368 0.0
C218 C 0.85411 0.90786 0.82053 0.0
C219 C 0.89074 0.96441 0.80685 0.0
C220 C 0.8666 0.77065 0.78533 0.0
C221 C 0.82376 0.91641 0.8422 0.0
C222 C 0.68912 0.6973 0.8378 0.0
C223 C 0.71649 0.68073 0.85691 0.0
C224 C 0.7311 0.74732 0.8227 0.0
C225 C 0.80219 0.78284 0.82715 0.0
C226 C 0.8304 0.76377 0.84576 0.0
C227 C 0.78705 0.71223 0.86035 0.0
C228 C 0.69895 0.76489 0.80278 0.0
C229 C 0.90586 0.80096 0.85122 0.0
H230 H 0.93542 0.89109 0.76466 0.0
H231 H 0.89652 0.01301 0.8121 0.0
H232 H 0.88372 0.74858 0.79915 0.0
H233 H 0.81203 0.73437 0.78144 0.0
H234 H 0.89529 0.77514 0.76969 0.0
H235 H 0.83862 0.97026 0.84589 0.0
H236 H 0.76758 0.88602 0.84054 0.0
H237 H 0.84011 0.89722 0.85715 0.0
H238 H 0.63444 0.67269 0.83513 0.0
H239 H 0.80811 0.69996 0.87531 0.0
H240 H 0.72508 0.76773 0.78667 0.0
H241 H 0.70428 0.81556 0.80612 0.0
H242 H 0.64412 0.72722 0.80008 0.0
H243 H 0.93415 0.80555 0.8355 0.0
H244 H 0.92037 0.77519 0.86452 0.0
H245 H 0.92204 0.85324 0.85764 0.0
C246 C 0.96229 0.93463 0.11787 0.0
C247 C 0.02726 0.99105 0.11569 0.0
C248 C 0.95143 0.88233 0.13288 0.0
C249 C 1.00655 0.88736 0.14647 0.0
C250 C 0.0718 0.94545 0.14494 0.0
C251 C 0.08156 0.99616 0.12933 0.0
C252 C 0.8815 0.82061 0.13359 0.0
C253 C 0.1316 0.95353 0.15953 0.0
C254 C 0.97391 0.77812 0.19908 0.0
C255 C 0.99069 0.73017 0.19114 0.0
C256 C 0.97747 0.82899 0.1846 0.0
C257 C 0.99686 0.83068 0.16156 0.0
C258 C 1.01045 0.77994 0.15322 0.0
C259 C 1.00846 0.73104 0.16827 0.0
C260 C 0.96428 0.88303 0.19433 0.0
C261 C 0.02956 0.77878 0.12864 0.0
H262 H 0.92021 0.93013 0.10721 0.0
H263 H 0.13178 0.03982 0.12777 0.0
H264 H 0.88336 0.77483 0.12783 0.0
H265 H 0.86395 0.81218 0.15148 0.0
H266 H 0.8436 0.82538 0.12245 0.0
H267 H 0.17764 1.00389 0.15757 0.0
H268 H 0.1189 0.94722 0.17796 0.0
H269 H 0.14365 0.91347 0.15464 0.0
H270 H 0.96184 0.77819 0.21698 0.0
H271 H 0.02237 0.69434 0.16234 0.0
H272 H 0.9262 0.88763 0.18329 0.0
H273 H 1.0118 0.93295 0.19455 0.0
H274 H 0.94591 0.87227 0.21213 0.0
H275 H 0.99236 0.7817 0.11659 0.0
H276 H 0.03189 0.73224 0.12429 0.0
H277 H 0.07994 0.82369 0.12583 0.0
C278 C 0.25708 0.21432 0.44866 0.0
C279 C 0.19028 0.16743 0.45399 0.0
C280 C 0.31215 0.22345 0.46292 0.0
C281 C 0.29985 0.18427 0.48286 0.0
C282 C 0.23206 0.13946 0.48889 0.0
C283 C 0.17808 0.13057 0.47411 0.0
C284 C 0.38336 0.27165 0.4558 0.0
C285 C 0.2166 0.09828 0.51036 0.0
C286 C 0.42018 0.12344 0.50288 0.0
C287 C 0.45271 0.16537 0.52235 0.0
C288 C 0.37313 0.13176 0.48923 0.0
C289 C 0.35676 0.18216 0.49554 0.0
C290 C 0.39128 0.22621 0.51478 0.0
C291 C 0.43982 0.21799 0.52776 0.0
C292 C 0.33877 0.08451 0.46861 0.0
C293 C 0.3755 0.28044 0.52211 0.0
H294 H 0.26639 0.24169 0.43277 0.0
H295 H 0.12628 0.09402 0.47808 0.0
H296 H 0.41455 0.30497 0.47056 0.0
H297 H 0.40752 0.24212 0.45015 0.0
H298 H 0.38418 0.30406 0.44147 0.0
H299 H 0.16183 0.07274 0.51412 0.0
H300 H 0.23145 0.05885 0.50824 0.0
H301 H 0.24645 0.13129 0.52539 0.0
H302 H 0.43053 0.08294 0.49861 0.0
H303 H 0.46478 0.25019 0.5429 0.0
H304 H 0.34195 0.11406 0.45314 0.0
H305 H 0.28418 0.05072 0.47178 0.0
H306 H 0.36167 0.05233 0.46485 0.0
H307 H 0.39417 0.32058 0.50916 0.0
H308 H 0.39982 0.30424 0.53911 0.0
H309 H 0.31992 0.25883 0.52303 0.0
C310 C 0.1929 0.28637 0.77862 0.0
C311 C 0.16725 0.2182 0.78413 0.0
C312 C 0.23847 0.33909 0.79382 0.0
C313 C 0.25969 0.32311 0.81487 0.0
C314 C 0.2327 0.25409 0.82066 0.0
C315 C 0.18743 0.20247 0.80507 0.0
C316 C 0.26572 0.41178 0.78695 0.0
C317 C 0.25307 0.2347 0.84304 0.0
C318 C 0.43276 0.44782 0.84237 0.0
C319 C 0.41553 0.47963 0.85956 0.0
C320 C 0.38269 0.39809 0.82735 0.0
C321 C 0.31356 0.37818 0.83008 0.0
C322 C 0.2963 0.41002 0.84762 0.0
C323 C 0.34753 0.46126 0.86183 0.0
C324 C 0.40372 0.36635 0.80872 0.0
C325 C 0.2237 0.38923 0.8517 0.0
H326 H 0.17877 0.29845 0.76211 0.0
H327 H 0.16803 0.14963 0.80918 0.0
H328 H 0.25762 0.44091 0.8007 0.0
H329 H 0.32124 0.43619 0.78475 0.0
H330 H 0.24121 0.41564 0.77065 0.0
H331 H 0.22333 0.17917 0.8458 0.0
H332 H 0.30771 0.25023 0.84312 0.0
H333 H 0.24594 0.26177 0.85773 0.0
H334 H 0.48555 0.46217 0.84059 0.0
H335 H 0.33412 0.48524 0.87533 0.0
H336 H 0.38423 0.37213 0.79166 0.0
H337 H 0.38125 0.31111 0.8115 0.0
H338 H 0.45973 0.38947 0.80828 0.0
H339 H 0.20175 0.40015 0.83623 0.0
H340 H 0.21829 0.41645 0.86675 0.0
H341 H 0.19441 0.33383 0.85454 0.0
C342 C 0.91879 0.07903 0.67286 0.0
C343 C 0.90185 0.08029 0.69578 0.0
C344 C 0.87794 0.08137 0.65459 0.0
C345 C 0.81876 0.08449 0.65945 0.0
C346 C 0.79997 0.08253 0.68252 0.0
C347 C 0.84171 0.08059 0.70034 0.0
C348 C 0.89945 0.08322 0.63018 0.0
C349 C 0.73683 0.08478 0.68848 0.0
C350 C 0.74344 0.16168 0.61857 0.0
C351 C 0.68671 0.10349 0.60898 0.0
C352 C 0.78857 0.15626 0.63433 0.0
C353 C 0.77661 0.09114 0.64066 0.0
C354 C 0.72057 0.03234 0.63053 0.0
C355 C 0.6764 0.03921 0.61486 0.0
C356 C 0.8479 0.22019 0.64477 0.0
C357 C 0.70588 0.96203 0.63685 0.0
H358 H 0.96552 0.07947 0.66924 0.0
H359 H 0.82803 0.08108 0.71802 0.0
H360 H 0.857 0.04335 0.61934 0.0
H361 H 0.91259 0.13293 0.62275 0.0
H362 H 0.94406 0.07577 0.62918 0.0
H363 H 0.72795 0.08006 0.70722 0.0
H364 H 0.7413 0.13344 0.68294 0.0
H365 H 0.6917 0.04317 0.67916 0.0
H366 H 0.7521 0.2115 0.61403 0.0
H367 H 0.63304 0.9938 0.60744 0.0
H368 H 0.89574 0.21908 0.64281 0.0
H369 H 0.8412 0.22328 0.66348 0.0
H370 H 0.85321 0.26676 0.63676 0.0
H371 H 0.75172 0.95719 0.63497 0.0
H372 H 0.66357 0.92163 0.62607 0.0
H373 H 0.69224 0.95332 0.65516 0.0
C374 C 0.85924 1.00351 0.02315 0.0
C375 C 0.92674 0.02459 0.01833 0.0
C376 C 0.8056 0.95662 0.0085 0.0
C377 C 0.82008 0.92994 0.98871 0.0
C378 C 0.88854 0.95368 0.98328 0.0
C379 C 0.94104 0.99981 0.99841 0.0
C380 C 0.73353 0.93277 0.01496 0.0
C381 C 0.90633 0.92793 0.96207 0.0
C382 C 0.69936 0.74974 0.96688 0.0
C383 C 0.66735 0.7604 0.94772 0.0
C384 C 0.74688 0.80441 0.98092 0.0
C385 C 0.76439 0.87159 0.97522 0.0
C386 C 0.73119 0.88238 0.95607 0.0
C387 C 0.68224 0.82648 0.94272 0.0
C388 C 0.77977 0.79032 1.00148 0.0
C389 C 0.74962 0.95291 0.94898 0.0
H390 H 0.84831 0.02151 0.03891 0.0
H391 H 0.9934 0.01581 0.99488 0.0
H392 H 0.70328 0.9348 0.99998 0.0
H393 H 0.70949 0.87907 0.0202 0.0
H394 H 0.73099 0.96382 0.02938 0.0
H395 H 0.96141 0.95759 0.9588 0.0
H396 H 0.89212 0.87397 0.96415 0.0
H397 H 0.87739 0.93025 0.94673 0.0
H398 H 0.68758 0.69847 0.97078 0.0
H399 H 0.6581 0.83474 0.9277 0.0
H400 H 0.77528 0.81578 0.01718 0.0
H401 H 0.83467 0.81133 0.99876 0.0
H402 H 0.75667 0.7351 1.00457 0.0
H403 H 0.74958 0.98299 0.96403 0.0
H404 H 0.71421 0.9527 0.93534 0.0
H405 H 0.80165 0.9785 0.9424 0.0
C406 C 0.15718 0.03364 0.35648 0.0
C407 C 0.09382 0.03013 0.3567 0.0
C408 C 0.1683 0.99121 0.34165 0.0
C409 C 0.11542 0.94569 0.32616 0.0
C410 C 0.05222 0.94409 0.32565 0.0
C411 C 0.0418 0.9855 0.34121 0.0
C412 C 0.23564 0.99308 0.34323 0.0
C413 C 0.99513 0.89771 0.30895 0.0
C414 C 0.15471 0.86711 0.27484 0.0
C415 C 0.12937 0.80022 0.28184 0.0
C416 C 0.15178 0.91567 0.28925 0.0
C417 C 0.12459 0.89703 0.31135 0.0
C418 C 0.10253 0.8303 0.31889 0.0
C419 C 0.10389 0.78232 0.30384 0.0
C420 C 0.17396 0.98556 0.28029 0.0
C421 C 0.07513 0.80879 0.34255 0.0
H422 H 0.19732 0.06763 0.36861 0.0
H423 H 0.9929 0.98296 0.34127 0.0
H424 H 0.22773 0.94311 0.34881 0.0
H425 H 0.25834 1.00225 0.3261 0.0
H426 H 0.27235 0.03305 0.35559 0.0
H427 H 0.95159 0.90705 0.30928 0.0
H428 H 0.01355 0.90468 0.29118 0.0
H429 H 0.97677 0.84397 0.31324 0.0
H430 H 0.17293 0.88028 0.25757 0.0
H431 H 0.08369 0.73024 0.30908 0.0
H432 H 0.2105 0.02524 0.29271 0.0
H433 H 0.12926 0.99282 0.27836 0.0
H434 H 0.19785 0.99338 0.26336 0.0
H435 H 0.11053 0.84596 0.35585 0.0
H436 H 0.06707 0.75765 0.34665 0.0
H437 H 0.02595 0.80767 0.34364 0.0
C438 C 0.18584 0.00968 0.69234 0.0
C439 C 0.17452 0.06493 0.69079 0.0
C440 C 0.22619 1.00007 0.67662 0.0
C441 C 0.25453 0.04578 0.65846 0.0
C442 C 0.24199 0.10087 0.65648 0.0
C443 C 0.20293 0.11038 0.67289 0.0
C444 C 0.23987 0.94194 0.67978 0.0
C445 C 0.27003 0.14986 0.63707 0.0
C446 C 0.41365 0.0683 0.63087 0.0
C447 C 0.38706 0.02733 0.61083 0.0
C448 C 0.37096 0.07312 0.64679 0.0
C449 C 0.29988 0.03778 0.64222 0.0
C450 C 0.2726 0.9955 0.62213 0.0
C451 C 0.31658 0.99001 0.6068 0.0
C452 C 0.40211 0.11703 0.66832 0.0
C453 C 0.19727 0.9582 0.61639 0.0
H454 H 0.16435 0.97462 0.70625 0.0
H455 H 0.19384 0.15281 0.67153 0.0
H456 H 0.22319 0.9087 0.66406 0.0
H457 H 0.29524 0.96206 0.68247 0.0
H458 H 0.21357 0.91057 0.69468 0.0
H459 H 0.25188 0.18715 0.63705 0.0
H460 H 0.32629 0.17808 0.63854 0.0
H461 H 0.25516 0.12157 0.62028 0.0
H462 H 0.46822 0.09723 0.63398 0.0
H463 H 0.29607 0.95922 0.59112 0.0
H464 H 0.37833 0.08736 0.68377 0.0
H465 H 0.39243 0.16033 0.6681 0.0
H466 H 0.4578 0.1375 0.67003 0.0
H467 H 0.16934 0.925 0.63069 0.0
H468 H 0.18401 0.92653 0.60033 0.0
H469 H 0.17936 0.99534 0.6143 0.0
C470 C 0.26386 0.25879 0.02925 0.0
C471 C 0.20321 0.25129 0.01942 0.0
C472 C 0.3255 0.29478 0.01799 0.0
C473 C 0.32616 0.32287 0.99629 0.0
C474 C 0.26459 0.31293 0.98592 0.0
C475 C 0.20425 0.27799 0.99768 0.0
C476 C 0.39018 0.30505 0.02972 0.0
C477 C 0.26264 0.34111 0.96263 0.0
C478 C 0.47255 0.48202 0.97371 0.0
C479 C 0.49405 0.45566 0.95604 0.0
C480 C 0.42211 0.439 0.98844 0.0
C481 C 0.39115 0.36774 0.98502 0.0
C482 C 0.41625 0.34089 0.96828 0.0
C483 C 0.46807 0.3854 0.95405 0.0
C484 C 0.39806 0.46998 1.00635 0.0
C485 C 0.38438 0.2653 0.96398 0.0
H486 H 0.2636 0.23845 0.04606 0.0
H487 H 0.15775 0.2721 0.98981 0.0
H488 H 0.41909 0.29172 0.01773 0.0
H489 H 0.42289 0.35942 0.03484 0.0
H490 H 0.38031 0.27418 0.04534 0.0
H491 H 0.20998 0.32401 0.95611 0.0
H492 H 0.29081 0.39745 0.9638 0.0
H493 H 0.28784 0.32533 0.94988 0.0
H494 H 0.49301 0.5365 0.9753 0.0
H495 H 0.4843 0.36502 0.94024 0.0
H496 H 0.39155 0.4443 0.02298 0.0
H497 H 0.34793 0.46308 1.00065 0.0
H498 H 0.43391 0.52521 0.00921 0.0
H499 H 0.37498 0.23833 0.98044 0.0
H500 H 0.41663 0.25248 0.95343 0.0
H501 H 0.33456 0.24605 0.95468 0.0
C502 C 0.03339 0.33945 0.37428 0.0
C503 C 0.03399 0.27933 0.3688 0.0
C504 C 0.02299 0.37683 0.3572 0.0
C505 C 1.01305 0.35388 0.33395 0.0
C506 C 1.01058 0.29177 0.32835 0.0
C507 C 0.02098 0.25512 0.34585 0.0
C508 C 0.02579 0.44264 0.36396 0.0
C509 C 1.00002 0.26561 0.30374 0.0
C510 C 0.95256 0.44159 0.29158 0.0
C511 C 0.01426 0.49156 0.28303 0.0
C512 C 0.95091 0.39504 0.30774 0.0
C513 C 1.01236 0.39863 0.31549 0.0
C514 C 0.07452 0.4482 0.30661 0.0
C515 C 0.0747 0.49394 0.29056 0.0
C516 C 0.88369 0.34285 0.31684 0.0
C517 C 0.14124 0.45391 0.31441 0.0
H518 H 0.04252 0.35838 0.39196 0.0
H519 H 0.0211 0.20869 0.34141 0.0
H520 H 0.07141 0.48596 0.35686 0.0
H521 H 0.98077 0.44377 0.35661 0.0
H522 H 0.02795 0.45036 0.38293 0.0
H523 H 0.99199 0.21322 0.3025 0.0
H524 H 0.95568 0.26599 0.2954 0.0
H525 H 0.04515 0.29951 0.29388 0.0
H526 H 0.9056 0.43912 0.28579 0.0
H527 H 0.12267 0.53198 0.284 0.0
H528 H 0.88291 0.35218 0.33556 0.0
H529 H 0.87678 0.29117 0.31459 0.0
H530 H 0.84016 0.34402 0.30809 0.0
H531 H 0.15074 0.46691 0.3331 0.0
H532 H 0.18476 0.49328 0.30507 0.0
H533 H 0.13921 0.40446 0.31176 0.0
loop_
_geom_bond_atom_site_label_1
_geom_bond_atom_site_label_2
_geom_bond_distance
_geom_bond_site_symmetry_2
_ccdc_geom_bond_type
Mn0 O5 2.095 . S
Mn0 O15 2.162 . S
Mn0 O16 2.297 . S
Mn0 O24 2.385 . S
Mn0 O25 2.209 1_455 S
Mn0 O26 2.094 . S
Mn1 O6 2.121 . S
Mn1 N8 2.257 1_455 S
Mn1 N17 2.237 1_454 S
Mn1 O25 2.215 1_455 S
Mn1 O27 2.117 . S
C2 O24 1.234 1_655 S
C2 O25 1.283 . S
C3 O15 1.281 . S
C3 O16 1.236 . S
C4 O26 1.240 . S
C4 O27 1.264 . S
O5 Mn0 2.095 . S
O5 C14 1.250 . S
O6 Mn1 2.121 . S
O6 C14 1.258 . S
C7 N8 1.326 . S
C7 C11 1.460 . S
C7 H13 0.929 . S
N8 Mn1 2.257 1_655 S
N8 C7 1.326 . S
N8 C12 1.362 . S
C9 C10 1.258 . S
C9 C12 1.431 . S
C9 C29 1.449 1_554 S
C10 C9 1.258 . S
C10 C11 1.477 . S
C10 H30 0.931 . S
C11 C7 1.460 . S
C11 C10 1.477 . S
C11 H31 0.930 . S
C12 N8 1.362 . S
C12 C9 1.431 . S
C12 C22 1.476 1_554 S
H13 C7 0.929 . S
C14 O5 1.250 . S
C14 O6 1.258 . S
O15 Mn0 2.162 . S
O15 C3 1.281 . S
O16 Mn0 2.297 . S
O16 C3 1.236 . S
N17 Mn1 2.237 1_656 S
N17 C18 1.361 1_655 S
N17 C22 1.329 . S
C18 N17 1.361 1_455 S
C18 C19 1.457 1_455 S
C18 H23 0.929 . S
C19 C18 1.457 1_655 S
C19 C20 1.291 . S
C19 H32 0.931 1_655 S
C20 C19 1.291 . S
C20 C21 1.373 . S
C20 H33 0.929 . S
C21 C20 1.373 . S
C21 C22 1.396 . S
C21 C28 1.403 . S
C22 C12 1.476 1_556 S
C22 N17 1.329 . S
C22 C21 1.396 . S
H23 C18 0.929 . S
O24 Mn0 2.385 . S
O24 C2 1.234 1_455 S
O25 Mn0 2.209 1_655 S
O25 Mn1 2.215 1_655 S
O25 C2 1.283 . S
O26 Mn0 2.094 . S
O26 C4 1.240 . S
O27 Mn1 2.117 . S
O27 C4 1.264 . S
C28 C21 1.403 . S
C28 C29 1.399 . S
C28 H34 0.929 . S
C29 C9 1.449 1_556 S
C29 C28 1.399 . S
C29 H35 0.930 . S
H30 C10 0.931 . S
H31 C11 0.930 . S
H32 C19 0.931 1_455 S
H33 C20 0.929 . S
H34 C28 0.929 . S
H35 C29 0.930 . S
Mn36 O41 2.095 1_455 S
Mn36 O51 2.162 1_445 S
Mn36 O52 2.297 . S
Mn36 O60 2.385 . S
Mn36 O61 2.209 . S
Mn36 O62 2.094 1_455 S
Mn37 O42 2.121 . S
Mn37 N44 2.257 . S
Mn37 N53 2.282 . S
Mn37 O61 2.215 . S
Mn37 O63 2.117 1_455 S
C38 O60 1.234 . S
C38 O61 1.283 . S
C39 O51 1.281 1_455 S
C39 O52 1.236 1_565 S
C40 O62 1.240 . S
C40 O63 1.264 . S
O41 Mn36 2.095 1_655 S
O41 C50 1.250 1_655 S
O42 Mn37 2.121 . S
O42 C50 1.258 . S
C43 N44 1.326 . S
C43 C47 1.460 . S
C43 H49 0.929 . S
N44 Mn37 2.257 . S
N44 C43 1.326 . S
N44 C48 1.362 . S
C45 C46 1.258 . S
C45 C48 1.431 . S
C45 C65 1.449 . S
C46 C45 1.258 . S
C46 C47 1.477 . S
C46 H66 0.931 . S
C47 C43 1.460 . S
C47 C46 1.477 . S
C47 H67 0.930 . S
C48 N44 1.362 . S
C48 C45 1.431 . S
C48 C58 1.476 . S
H49 C43 0.929 . S
C50 O41 1.250 1_455 S
C50 O42 1.258 . S
O51 Mn36 2.162 1_665 S
O51 C39 1.281 1_655 S
O52 Mn36 2.297 . S
O52 C39 1.236 1_545 S
N53 Mn37 2.282 . S
N53 C54 1.328 . S
N53 C58 1.318 . S
C54 N53 1.328 . S
C54 C55 1.457 . S
C54 H59 0.929 . S
C55 C54 1.457 . S
C55 C56 1.291 . S
C55 H68 0.931 . S
C56 C55 1.291 . S
C56 C57 1.373 . S
C56 H69 0.929 . S
C57 C56 1.373 . S
C57 C58 1.396 . S
C57 C64 1.403 . S
C58 C48 1.476 . S
C58 N53 1.318 . S
C58 C57 1.396 . S
H59 C54 0.929 . S
O60 Mn36 2.385 . S
O60 C38 1.234 . S
O61 Mn36 2.209 . S
O61 Mn37 2.215 . S
O61 C38 1.283 . S
O62 Mn36 2.094 1_655 S
O62 C40 1.240 . S
O63 Mn37 2.117 1_655 S
O63 C40 1.264 . S
C64 C57 1.403 . S
C64 C65 1.399 . S
C64 H70 0.929 . S
C65 C45 1.449 . S
C65 C64 1.399 . S
C65 H71 0.930 . S
H66 C46 0.931 . S
H67 C47 0.930 . S
H68 C55 0.931 . S
H69 C56 0.929 . S
H70 C64 0.929 . S
H71 C65 0.930 . S
Mn72 O77 2.095 1_455 S
Mn72 O87 2.162 . S
Mn72 O88 2.297 . S
Mn72 O96 2.385 . S
Mn72 O97 2.209 . S
Mn72 O98 2.094 1_455 S
Mn73 O78 2.121 . S
Mn73 N80 2.257 1_655 S
Mn73 N89 2.282 1_655 S
Mn73 O97 2.215 1_655 S
Mn73 O99 2.117 . S
C74 O96 1.234 . S
C74 O97 1.283 . S
C75 O87 1.281 . S
C75 O88 1.236 . S
C76 O98 1.240 . S
C76 O99 1.264 . S
O77 Mn72 2.095 1_655 S
O77 C86 1.250 . S
O78 Mn73 2.121 . S
O78 C86 1.258 . S
C79 N80 1.326 1_655 S
C79 C83 1.460 1_655 S
C79 H85 0.929 . S
N80 Mn73 2.257 1_455 S
N80 C79 1.326 1_455 S
N80 C84 1.362 . S
C81 C82 1.258 . S
C81 C84 1.431 . S
C81 C101 1.449 . S
C82 C81 1.258 . S
C82 C83 1.477 . S
C82 H102 0.931 . S
C83 C79 1.460 1_455 S
C83 C82 1.477 . S
C83 H103 0.930 . S
C84 N80 1.362 . S
C84 C81 1.431 . S
C84 C94 1.476 . S
H85 C79 0.929 . S
C86 O77 1.250 . S
C86 O78 1.258 . S
O87 Mn72 2.162 . S
O87 C75 1.281 . S
O88 Mn72 2.297 . S
O88 C75 1.236 . S
N89 Mn73 2.282 1_455 S
N89 C90 1.328 . S
N89 C94 1.318 . S
C90 N89 1.328 . S
C90 C91 1.457 . S
C90 H95 0.929 . S
C91 C90 1.457 . S
C91 C92 1.291 . S
C91 H104 0.931 . S
C92 C91 1.291 . S
C92 C93 1.373 . S
C92 H105 0.929 . S
C93 C92 1.373 . S
C93 C94 1.396 . S
C93 C100 1.403 . S
C94 C84 1.476 . S
C94 N89 1.318 . S
C94 C93 1.396 . S
H95 C90 0.929 . S
O96 Mn72 2.385 . S
O96 C74 1.234 . S
O97 Mn72 2.209 . S
O97 Mn73 2.215 1_455 S
O97 C74 1.283 . S
O98 Mn72 2.094 1_655 S
O98 C76 1.240 . S
O99 Mn73 2.117 . S
O99 C76 1.264 . S
C100 C93 1.403 . S
C100 C101 1.399 . S
C100 H106 0.929 . S
C101 C81 1.449 . S
C101 C100 1.399 . S
C101 H107 0.930 . S
H102 C82 0.931 . S
H103 C83 0.930 . S
H104 C91 0.931 . S
H105 C92 0.929 . S
H106 C100 0.929 . S
H107 C101 0.930 . S
C108 O110 1.247 . S
C108 O112 1.258 1_455 S
C109 O116 1.247 1_455 S
C109 O117 1.258 . S
O110 C108 1.247 . S
O110 Zn111 2.028 . S
Zn111 O110 2.028 . S
Zn111 O115 2.035 . S
Zn111 O117 2.035 . S
Zn111 O118 2.028 . S
O112 C108 1.258 1_655 S
O112 Zn113 2.035 . S
Zn113 O112 2.035 . S
Zn113 O114 2.028 . S
Zn113 O116 2.028 . S
Zn113 O119 2.035 . S
O114 Zn113 2.028 . S
O114 C120 1.247 1_655 S
O115 Zn111 2.035 . S
O115 C120 1.258 . S
O116 C109 1.247 1_655 S
O116 Zn113 2.028 . S
O117 C109 1.258 . S
O117 Zn111 2.035 . S
O118 Zn111 2.028 . S
O118 C121 1.247 . S
O119 Zn113 2.035 . S
O119 C121 1.258 1_655 S
C120 O114 1.247 1_455 S
C120 O115 1.258 . S
C121 O118 1.247 . S
C121 O119 1.258 1_455 S
C122 O124 1.247 . S
C122 O126 1.258 . S
C123 O130 1.247 . S
C123 O131 1.258 . S
O124 C122 1.247 . S
O124 Zn125 2.028 . S
Zn125 O124 2.028 . S
Zn125 O129 2.035 . S
Zn125 O131 2.035 . S
Zn125 O132 2.028 . S
O126 C122 1.258 . S
O126 Zn127 2.035 . S
Zn127 O126 2.035 . S
Zn127 O128 2.028 . S
Zn127 O130 2.028 . S
Zn127 O133 2.035 . S
O128 Zn127 2.028 . S
O128 C134 1.247 . S
O129 Zn125 2.035 . S
O129 C134 1.258 . S
O130 C123 1.247 . S
O130 Zn127 2.028 . S
O131 C123 1.258 . S
O131 Zn125 2.035 . S
O132 Zn125 2.028 . S
O132 C135 1.247 . S
O133 Zn127 2.035 . S
O133 C135 1.258 . S
C134 O128 1.247 . S
C134 O129 1.258 . S
C135 O132 1.247 . S
C135 O133 1.258 . S
C136 O138 1.247 . S
C136 O140 1.258 . S
C137 O144 1.247 . S
C137 O145 1.258 . S
O138 C136 1.247 . S
O138 Zn139 2.028 . S
Zn139 O138 2.028 . S
Zn139 O143 2.035 . S
Zn139 O145 2.035 . S
Zn139 O146 2.028 . S
O140 C136 1.258 . S
O140 Zn141 2.035 . S
Zn141 O140 2.035 . S
Zn141 O142 2.028 . S
Zn141 O144 2.028 . S
Zn141 O147 2.035 . S
O142 Zn141 2.028 . S
O142 C148 1.247 . S
O143 Zn139 2.035 . S
O143 C148 1.258 . S
O144 C137 1.247 . S
O144 Zn141 2.028 . S
O145 C137 1.258 . S
O145 Zn139 2.035 . S
O146 Zn139 2.028 . S
O146 C149 1.247 . S
O147 Zn141 2.035 . S
O147 C149 1.258 . S
C148 O142 1.247 . S
C148 O143 1.258 . S
C149 O146 1.247 . S
C149 O147 1.258 . S
C150 C151 1.391 . S
C150 C152 1.394 . S
C150 H166 0.931 . S
C151 C150 1.391 . S
C151 C155 1.376 . S
C152 C150 1.394 . S
C152 C153 1.369 . S
C152 C156 1.531 . S
C153 C152 1.369 . S
C153 C154 1.410 . S
C153 C161 1.503 . S
C154 C153 1.410 . S
C154 C155 1.392 . S
C154 C157 1.511 . S
C155 C151 1.376 . S
C155 C154 1.392 . S
C155 H167 0.929 . S
C156 C152 1.531 . S
C156 H168 0.960 . S
C156 H169 0.962 . S
C156 H170 0.960 . S
C157 C154 1.511 . S
C157 H171 0.961 . S
C157 H172 0.961 . S
C157 H173 0.961 . S
C158 C159 1.370 1_655 S
C158 C160 1.363 . S
C158 H174 0.931 . S
C159 C158 1.370 1_455 S
C159 C163 1.408 . S
C160 C158 1.363 . S
C160 C161 1.370 1_655 S
C160 C164 1.524 . S
C161 C153 1.503 . S
C161 C160 1.370 1_455 S
C161 C162 1.403 . S
C162 C161 1.403 . S
C162 C163 1.404 . S
C162 C165 1.539 . S
C163 C159 1.408 . S
C163 C162 1.404 . S
C163 H175 0.930 . S
C164 C160 1.524 . S
C164 H176 0.956 . S
C164 H177 0.961 . S
C164 H178 0.961 . S
C165 C162 1.539 . S
C165 H179 0.958 . S
C165 H180 0.961 . S
C165 H181 0.960 . S
H166 C150 0.931 . S
H167 C155 0.929 . S
H168 C156 0.960 . S
H169 C156 0.962 . S
H170 C156 0.960 . S
H171 C157 0.961 . S
H172 C157 0.961 . S
H173 C157 0.961 . S
H174 C158 0.931 . S
H175 C163 0.930 . S
H176 C164 0.956 . S
H177 C164 0.961 . S
H178 C164 0.961 . S
H179 C165 0.958 . S
H180 C165 0.961 . S
H181 C165 0.960 . S
C182 C183 1.391 . S
C182 C184 1.394 . S
C182 H198 0.931 . S
C183 C182 1.391 . S
C183 C187 1.376 . S
C184 C182 1.394 . S
C184 C185 1.369 . S
C184 C188 1.531 . S
C185 C184 1.369 . S
C185 C186 1.410 . S
C185 C193 1.503 . S
C186 C185 1.410 . S
C186 C187 1.392 . S
C186 C189 1.511 1_545 S
C187 C183 1.376 . S
C187 C186 1.392 . S
C187 H199 0.929 1_545 S
C188 C184 1.531 . S
C188 H200 0.960 . S
C188 H201 0.962 . S
C188 H202 0.960 . S
C189 C186 1.511 1_565 S
C189 H203 0.961 . S
C189 H204 0.961 . S
C189 H205 0.961 . S
C190 C191 1.370 . S
C190 C192 1.363 . S
C190 H206 0.931 . S
C191 C190 1.370 . S
C191 C195 1.408 . S
C192 C190 1.363 . S
C192 C193 1.370 . S
C192 C196 1.524 . S
C193 C185 1.503 . S
C193 C192 1.370 . S
C193 C194 1.403 . S
C194 C193 1.403 . S
C194 C195 1.404 . S
C194 C197 1.539 . S
C195 C191 1.408 . S
C195 C194 1.404 . S
C195 H207 0.930 . S
C196 C192 1.524 . S
C196 H208 0.956 . S
C196 H209 0.961 . S
C196 H210 0.961 . S
C197 C194 1.539 . S
C197 H211 0.958 . S
C197 H212 0.961 . S
C197 H213 0.960 . S
H198 C182 0.931 . S
H199 C187 0.929 1_565 S
H200 C188 0.960 . S
H201 C188 0.962 . S
H202 C188 0.960 . S
H203 C189 0.961 . S
H204 C189 0.961 . S
H205 C189 0.961 . S
H206 C190 0.931 . S
H207 C195 0.930 . S
H208 C196 0.956 . S
H209 C196 0.961 . S
H210 C196 0.961 . S
H211 C197 0.958 . S
H212 C197 0.961 . S
H213 C197 0.960 . S
C214 C215 1.391 . S
C214 C216 1.394 . S
C214 H230 0.931 . S
C215 C214 1.391 . S
C215 C219 1.376 . S
C216 C214 1.394 . S
C216 C217 1.369 . S
C216 C220 1.531 . S
C217 C216 1.369 . S
C217 C218 1.410 . S
C217 C225 1.503 . S
C218 C217 1.410 . S
C218 C219 1.392 . S
C218 C221 1.511 . S
C219 C215 1.376 . S
C219 C218 1.392 . S
C219 H231 0.929 . S
C220 C216 1.531 . S
C220 H232 0.960 . S
C220 H233 0.962 . S
C220 H234 0.960 . S
C221 C218 1.511 . S
C221 H235 0.961 . S
C221 H236 0.961 . S
C221 H237 0.961 . S
C222 C223 1.370 . S
C222 C224 1.363 . S
C222 H238 0.931 . S
C223 C222 1.370 . S
C223 C227 1.408 . S
C224 C222 1.363 . S
C224 C225 1.370 . S
C224 C228 1.524 . S
C225 C217 1.503 . S
C225 C224 1.370 . S
C225 C226 1.403 . S
C226 C225 1.403 . S
C226 C227 1.404 . S
C226 C229 1.539 . S
C227 C223 1.408 . S
C227 C226 1.404 . S
C227 H239 0.930 . S
C228 C224 1.524 . S
C228 H240 0.956 . S
C228 H241 0.961 . S
C228 H242 0.961 . S
C229 C226 1.539 . S
C229 H243 0.958 . S
C229 H244 0.961 . S
C229 H245 0.960 . S
H230 C214 0.931 . S
H231 C219 0.929 . S
H232 C220 0.960 . S
H233 C220 0.962 . S
H234 C220 0.960 . S
H235 C221 0.961 . S
H236 C221 0.961 . S
H237 C221 0.961 . S
H238 C222 0.931 . S
H239 C227 0.930 . S
H240 C228 0.956 . S
H241 C228 0.961 . S
H242 C228 0.961 . S
H243 C229 0.958 . S
H244 C229 0.961 . S
H245 C229 0.960 . S
C246 C247 1.391 . S
C246 C248 1.394 . S
C246 H262 0.931 1_455 S
C247 C246 1.391 . S
C247 C251 1.376 . S
C248 C246 1.394 . S
C248 C249 1.369 . S
C248 C252 1.531 1_455 S
C249 C248 1.369 . S
C249 C250 1.410 . S
C249 C257 1.503 . S
C250 C249 1.410 . S
C250 C251 1.392 . S
C250 C253 1.511 . S
C251 C247 1.376 . S
C251 C250 1.392 . S
C251 H263 0.929 1_565 S
C252 C248 1.531 1_655 S
C252 H264 0.960 . S
C252 H265 0.962 . S
C252 H266 0.960 . S
C253 C250 1.511 . S
C253 H267 0.961 . S
C253 H268 0.961 . S
C253 H269 0.961 . S
C254 C255 1.370 . S
C254 C256 1.363 . S
C254 H270 0.931 . S
C255 C254 1.370 . S
C255 C259 1.408 . S
C256 C254 1.363 . S
C256 C257 1.370 . S
C256 C260 1.524 . S
C257 C249 1.503 . S
C257 C256 1.370 . S
C257 C258 1.403 . S
C258 C257 1.403 . S
C258 C259 1.404 . S
C258 C261 1.539 . S
C259 C255 1.408 . S
C259 C258 1.404 . S
C259 H271 0.930 . S
C260 C256 1.524 . S
C260 H272 0.956 1_455 S
C260 H273 0.961 . S
C260 H274 0.961 . S
C261 C258 1.539 . S
C261 H275 0.958 . S
C261 H276 0.961 . S
C261 H277 0.960 . S
H262 C246 0.931 1_655 S
H263 C251 0.929 1_545 S
H264 C252 0.960 . S
H265 C252 0.962 . S
H266 C252 0.960 . S
H267 C253 0.961 . S
H268 C253 0.961 . S
H269 C253 0.961 . S
H270 C254 0.931 . S
H271 C259 0.930 . S
H272 C260 0.956 1_655 S
H273 C260 0.961 . S
H274 C260 0.961 . S
H275 C261 0.958 . S
H276 C261 0.961 . S
H277 C261 0.960 . S
C278 C279 1.391 . S
C278 C280 1.394 . S
C278 H294 0.931 . S
C279 C278 1.391 . S
C279 C283 1.376 . S
C280 C278 1.394 . S
C280 C281 1.369 . S
C280 C284 1.531 . S
C281 C280 1.369 . S
C281 C282 1.410 . S
C281 C289 1.503 . S
C282 C281 1.410 . S
C282 C283 1.392 . S
C282 C285 1.511 . S
C283 C279 1.376 . S
C283 C282 1.392 . S
C283 H295 0.929 . S
C284 C280 1.531 . S
C284 H296 0.960 . S
C284 H297 0.962 . S
C284 H298 0.960 . S
C285 C282 1.511 . S
C285 H299 0.961 . S
C285 H300 0.961 . S
C285 H301 0.961 . S
C286 C287 1.370 . S
C286 C288 1.363 . S
C286 H302 0.931 . S
C287 C286 1.370 . S
C287 C291 1.408 . S
C288 C286 1.363 . S
C288 C289 1.370 . S
C288 C292 1.524 . S
C289 C281 1.503 . S
C289 C288 1.370 . S
C289 C290 1.403 . S
C290 C289 1.403 . S
C290 C291 1.404 . S
C290 C293 1.539 . S
C291 C287 1.408 . S
C291 C290 1.404 . S
C291 H303 0.930 . S
C292 C288 1.524 . S
C292 H304 0.956 . S
C292 H305 0.961 . S
C292 H306 0.961 1_545 S
C293 C290 1.539 . S
C293 H307 0.958 . S
C293 H308 0.961 . S
C293 H309 0.960 . S
H294 C278 0.931 . S
H295 C283 0.929 . S
H296 C284 0.960 . S
H297 C284 0.962 . S
H298 C284 0.960 . S
H299 C285 0.961 . S
H300 C285 0.961 . S
H301 C285 0.961 . S
H302 C286 0.931 . S
H303 C291 0.930 . S
H304 C292 0.956 . S
H305 C292 0.961 . S
H306 C292 0.961 1_565 S
H307 C293 0.958 . S
H308 C293 0.961 . S
H309 C293 0.960 . S
C310 C311 1.391 . S
C310 C312 1.394 . S
C310 H326 0.931 . S
C311 C310 1.391 . S
C311 C315 1.376 . S
C312 C310 1.394 . S
C312 C313 1.369 . S
C312 C316 1.531 . S
C313 C312 1.369 . S
C313 C314 1.410 . S
C313 C321 1.503 . S
C314 C313 1.410 . S
C314 C315 1.392 . S
C314 C317 1.511 . S
C315 C311 1.376 . S
C315 C314 1.392 . S
C315 H327 0.929 . S
C316 C312 1.531 . S
C316 H328 0.960 . S
C316 H329 0.962 . S
C316 H330 0.960 . S
C317 C314 1.511 . S
C317 H331 0.961 . S
C317 H332 0.961 . S
C317 H333 0.961 . S
C318 C319 1.370 . S
C318 C320 1.363 . S
C318 H334 0.931 . S
C319 C318 1.370 . S
C319 C323 1.408 . S
C320 C318 1.363 . S
C320 C321 1.370 . S
C320 C324 1.524 . S
C321 C313 1.503 . S
C321 C320 1.370 . S
C321 C322 1.403 . S
C322 C321 1.403 . S
C322 C323 1.404 . S
C322 C325 1.539 . S
C323 C319 1.408 . S
C323 C322 1.404 . S
C323 H335 0.930 . S
C324 C320 1.524 . S
C324 H336 0.956 . S
C324 H337 0.961 . S
C324 H338 0.961 . S
C325 C322 1.539 . S
C325 H339 0.958 . S
C325 H340 0.961 . S
C325 H341 0.960 . S
H326 C310 0.931 . S
H327 C315 0.929 . S
H328 C316 0.960 . S
H329 C316 0.962 . S
H330 C316 0.960 . S
H331 C317 0.961 . S
H332 C317 0.961 . S
H333 C317 0.961 . S
H334 C318 0.931 . S
H335 C323 0.930 . S
H336 C324 0.956 . S
H337 C324 0.961 . S
H338 C324 0.961 . S
H339 C325 0.958 . S
H340 C325 0.961 . S
H341 C325 0.960 . S
C342 C343 1.391 . S
C342 C344 1.394 . S
C342 H358 0.931 . S
C343 C342 1.391 . S
C343 C347 1.376 . S
C344 C342 1.394 . S
C344 C345 1.369 . S
C344 C348 1.531 . S
C345 C344 1.369 . S
C345 C346 1.410 . S
C345 C353 1.503 . S
C346 C345 1.410 . S
C346 C347 1.392 . S
C346 C349 1.511 . S
C347 C343 1.376 . S
C347 C346 1.392 . S
C347 H359 0.929 . S
C348 C344 1.531 . S
C348 H360 0.960 . S
C348 H361 0.962 . S
C348 H362 0.960 . S
C349 C346 1.511 . S
C349 H363 0.961 . S
C349 H364 0.961 . S
C349 H365 0.961 . S
C350 C351 1.370 . S
C350 C352 1.363 . S
C350 H366 0.931 . S
C351 C350 1.370 . S
C351 C355 1.408 . S
C352 C350 1.363 . S
C352 C353 1.370 . S
C352 C356 1.524 . S
C353 C345 1.503 . S
C353 C352 1.370 . S
C353 C354 1.403 . S
C354 C353 1.403 . S
C354 C355 1.404 . S
C354 C357 1.539 . S
C355 C351 1.408 . S
C355 C354 1.404 . S
C355 H367 0.930 . S
C356 C352 1.524 . S
C356 H368 0.956 . S
C356 H369 0.961 . S
C356 H370 0.961 . S
C357 C354 1.539 . S
C357 H371 0.958 1_545 S
C357 H372 0.961 1_545 S
C357 H373 0.960 . S
H358 C342 0.931 . S
H359 C347 0.929 . S
H360 C348 0.960 . S
H361 C348 0.962 . S
H362 C348 0.960 . S
H363 C349 0.961 . S
H364 C349 0.961 . S
H365 C349 0.961 . S
H366 C350 0.931 . S
H367 C355 0.930 . S
H368 C356 0.956 . S
H369 C356 0.961 . S
H370 C356 0.961 . S
H371 C357 0.958 1_565 S
H372 C357 0.961 1_565 S
H373 C357 0.960 . S
C374 C375 1.391 . S
C374 C376 1.394 1_554 S
C374 H390 0.931 1_565 S
C375 C374 1.391 . S
C375 C379 1.376 . S
C376 C374 1.394 1_556 S
C376 C377 1.369 . S
C376 C380 1.531 . S
C377 C376 1.369 . S
C377 C378 1.410 . S
C377 C385 1.503 . S
C378 C377 1.410 . S
C378 C379 1.392 1_556 S
C378 C381 1.511 . S
C379 C375 1.376 . S
C379 C378 1.392 1_554 S
C379 H391 0.929 . S
C380 C376 1.531 . S
C380 H392 0.960 . S
C380 H393 0.962 . S
C380 H394 0.960 1_565 S
C381 C378 1.511 . S
C381 H395 0.961 . S
C381 H396 0.961 . S
C381 H397 0.961 . S
C382 C383 1.370 . S
C382 C384 1.363 . S
C382 H398 0.931 . S
C383 C382 1.370 . S
C383 C387 1.408 . S
C384 C382 1.363 . S
C384 C385 1.370 . S
C384 C388 1.524 1_556 S
C385 C377 1.503 . S
C385 C384 1.370 . S
C385 C386 1.403 . S
C386 C385 1.403 . S
C386 C387 1.404 . S
C386 C389 1.539 . S
C387 C383 1.408 . S
C387 C386 1.404 . S
C387 H399 0.930 . S
C388 C384 1.524 1_554 S
C388 H400 0.956 . S
C388 H401 0.961 . S
C388 H402 0.961 . S
C389 C386 1.539 . S
C389 H403 0.958 . S
C389 H404 0.961 . S
C389 H405 0.960 . S
H390 C374 0.931 1_545 S
H391 C379 0.929 . S
H392 C380 0.960 . S
H393 C380 0.962 . S
H394 C380 0.960 1_545 S
H395 C381 0.961 . S
H396 C381 0.961 . S
H397 C381 0.961 . S
H398 C382 0.931 . S
H399 C387 0.930 . S
H400 C388 0.956 . S
H401 C388 0.961 . S
H402 C388 0.961 . S
H403 C389 0.958 . S
H404 C389 0.961 . S
H405 C389 0.960 . S
C406 C407 1.391 . S
C406 C408 1.394 . S
C406 H422 0.931 . S
C407 C406 1.391 . S
C407 C411 1.376 1_455 S
C408 C406 1.394 . S
C408 C409 1.369 . S
C408 C412 1.531 . S
C409 C408 1.369 . S
C409 C410 1.410 1_455 S
C409 C417 1.503 . S
C410 C409 1.410 1_655 S
C410 C411 1.392 . S
C410 C413 1.511 . S
C411 C407 1.376 1_655 S
C411 C410 1.392 . S
C411 H423 0.929 . S
C412 C408 1.531 . S
C412 H424 0.960 . S
C412 H425 0.962 . S
C412 H426 0.960 . S
C413 C410 1.511 . S
C413 H427 0.961 . S
C413 H428 0.961 . S
C413 H429 0.961 . S
C414 C415 1.370 . S
C414 C416 1.363 . S
C414 H430 0.931 . S
C415 C414 1.370 . S
C415 C419 1.408 1_455 S
C416 C414 1.363 . S
C416 C417 1.370 . S
C416 C420 1.524 . S
C417 C409 1.503 . S
C417 C416 1.370 . S
C417 C418 1.403 1_455 S
C418 C417 1.403 1_655 S
C418 C419 1.404 . S
C418 C421 1.539 . S
C419 C415 1.408 1_655 S
C419 C418 1.404 . S
C419 H431 0.930 . S
C420 C416 1.524 . S
C420 H432 0.956 . S
C420 H433 0.961 . S
C420 H434 0.961 . S
C421 C418 1.539 . S
C421 H435 0.958 . S
C421 H436 0.961 . S
C421 H437 0.960 . S
H422 C406 0.931 . S
H423 C411 0.929 . S
H424 C412 0.960 . S
H425 C412 0.962 . S
H426 C412 0.960 . S
H427 C413 0.961 . S
H428 C413 0.961 . S
H429 C413 0.961 . S
H430 C414 0.931 . S
H431 C419 0.930 . S
H432 C420 0.956 . S
H433 C420 0.961 . S
H434 C420 0.961 . S
H435 C421 0.958 . S
H436 C421 0.961 . S
H437 C421 0.960 . S
C438 C439 1.391 . S
C438 C440 1.394 . S
C438 H454 0.931 . S
C439 C438 1.391 . S
C439 C443 1.376 . S
C440 C438 1.394 . S
C440 C441 1.369 . S
C440 C444 1.531 . S
C441 C440 1.369 . S
C441 C442 1.410 . S
C441 C449 1.503 . S
C442 C441 1.410 . S
C442 C443 1.392 . S
C442 C445 1.511 . S
C443 C439 1.376 . S
C443 C442 1.392 . S
C443 H455 0.929 . S
C444 C440 1.531 . S
C444 H456 0.960 . S
C444 H457 0.962 . S
C444 H458 0.960 . S
C445 C442 1.511 . S
C445 H459 0.961 . S
C445 H460 0.961 . S
C445 H461 0.961 . S
C446 C447 1.370 . S
C446 C448 1.363 . S
C446 H462 0.931 . S
C447 C446 1.370 . S
C447 C451 1.408 . S
C448 C446 1.363 . S
C448 C449 1.370 . S
C448 C452 1.524 . S
C449 C441 1.503 . S
C449 C448 1.370 . S
C449 C450 1.403 . S
C450 C449 1.403 . S
C450 C451 1.404 . S
C450 C453 1.539 1_545 S
C451 C447 1.408 . S
C451 C450 1.404 . S
C451 H463 0.930 . S
C452 C448 1.524 . S
C452 H464 0.956 . S
C452 H465 0.961 . S
C452 H466 0.961 . S
C453 C450 1.539 1_565 S
C453 H467 0.958 . S
C453 H468 0.961 . S
C453 H469 0.960 . S
H454 C438 0.931 . S
H455 C443 0.929 . S
H456 C444 0.960 . S
H457 C444 0.962 . S
H458 C444 0.960 . S
H459 C445 0.961 . S
H460 C445 0.961 . S
H461 C445 0.961 . S
H462 C446 0.931 . S
H463 C451 0.930 . S
H464 C452 0.956 . S
H465 C452 0.961 . S
H466 C452 0.961 . S
H467 C453 0.958 . S
H468 C453 0.961 . S
H469 C453 0.960 . S
C470 C471 1.391 . S
C470 C472 1.394 1_554 S
C470 H486 0.931 . S
C471 C470 1.391 . S
C471 C475 1.376 . S
C472 C470 1.394 1_556 S
C472 C473 1.369 . S
C472 C476 1.531 . S
C473 C472 1.369 . S
C473 C474 1.410 . S
C473 C481 1.503 . S
C474 C473 1.410 . S
C474 C475 1.392 1_556 S
C474 C477 1.511 . S
C475 C471 1.376 . S
C475 C474 1.392 1_554 S
C475 H487 0.929 . S
C476 C472 1.531 . S
C476 H488 0.960 . S
C476 H489 0.962 . S
C476 H490 0.960 . S
C477 C474 1.511 . S
C477 H491 0.961 . S
C477 H492 0.961 . S
C477 H493 0.961 . S
C478 C479 1.370 . S
C478 C480 1.363 . S
C478 H494 0.931 . S
C479 C478 1.370 . S
C479 C483 1.408 . S
C480 C478 1.363 . S
C480 C481 1.370 . S
C480 C484 1.524 1_556 S
C481 C473 1.503 . S
C481 C480 1.370 . S
C481 C482 1.403 . S
C482 C481 1.403 . S
C482 C483 1.404 . S
C482 C485 1.539 . S
C483 C479 1.408 . S
C483 C482 1.404 . S
C483 H495 0.930 . S
C484 C480 1.524 1_554 S
C484 H496 0.956 . S
C484 H497 0.961 . S
C484 H498 0.961 . S
C485 C482 1.539 . S
C485 H499 0.958 . S
C485 H500 0.961 . S
C485 H501 0.960 . S
H486 C470 0.931 . S
H487 C475 0.929 . S
H488 C476 0.960 . S
H489 C476 0.962 . S
H490 C476 0.960 . S
H491 C477 0.961 . S
H492 C477 0.961 . S
H493 C477 0.961 . S
H494 C478 0.931 . S
H495 C483 0.930 . S
H496 C484 0.956 . S
H497 C484 0.961 . S
H498 C484 0.961 . S
H499 C485 0.958 . S
H500 C485 0.961 . S
H501 C485 0.960 . S
C502 C503 1.391 . S
C502 C504 1.394 . S
C502 H518 0.931 . S
C503 C502 1.391 . S
C503 C507 1.376 . S
C504 C502 1.394 . S
C504 C505 1.369 . S
C504 C508 1.531 . S
C505 C504 1.369 . S
C505 C506 1.410 . S
C505 C513 1.503 . S
C506 C505 1.410 . S
C506 C507 1.392 . S
C506 C509 1.511 . S
C507 C503 1.376 . S
C507 C506 1.392 . S
C507 H519 0.929 . S
C508 C504 1.531 . S
C508 H520 0.960 . S
C508 H521 0.962 . S
C508 H522 0.960 . S
C509 C506 1.511 . S
C509 H523 0.961 . S
C509 H524 0.961 . S
C509 H525 0.961 . S
C510 C511 1.370 1_655 S
C510 C512 1.363 . S
C510 H526 0.931 . S
C511 C510 1.370 1_455 S
C511 C515 1.408 . S
C512 C510 1.363 . S
C512 C513 1.370 1_655 S
C512 C516 1.524 . S
C513 C505 1.503 . S
C513 C512 1.370 1_455 S
C513 C514 1.403 . S
C514 C513 1.403 . S
C514 C515 1.404 . S
C514 C517 1.539 . S
C515 C511 1.408 . S
C515 C514 1.404 . S
C515 H527 0.930 . S
C516 C512 1.524 . S
C516 H528 0.956 . S
C516 H529 0.961 . S
C516 H530 0.961 . S
C517 C514 1.539 . S
C517 H531 0.958 . S
C517 H532 0.961 . S
C517 H533 0.960 . S
H518 C502 0.931 . S
H519 C507 0.929 . S
H520 C508 0.960 . S
H521 C508 0.962 . S
H522 C508 0.960 . S
H523 C509 0.961 . S
H524 C509 0.961 . S
H525 C509 0.961 . S
H526 C510 0.931 . S
H527 C515 0.930 . S
H528 C516 0.956 . S
H529 C516 0.961 . S
H530 C516 0.961 . S
H531 C517 0.958 . S
H532 C517 0.961 . S
H533 C517 0.960 . S
C159 C109 1.468 . S
C151 C14 1.428 . S
C183 C40 1.464 . S
C191 C135 1.471 . S
C215 C76 1.424 1_565 S
C223 C137 1.461 . S
C247 C3 1.439 1_565 S
C255 C121 1.435 . S
C287 C123 1.479 . S
C279 C38 1.469 . S
C311 C74 1.428 . S
C319 C149 1.459 . S
C351 C122 1.433 . S
C343 C86 1.381 . S
C375 C2 1.432 1_565 S
C383 C148 1.461 . S
C415 C108 1.437 . S
C407 C39 1.439 . S
C447 C134 1.446 . S
C439 C75 1.444 . S
C479 C136 1.462 . S
C471 C4 1.434 . S
C503 C50 1.428 . S
C511 C120 1.468 . S
