# Generated by pormake.
# Topology zzz, (3,6)-cn, num edge types: 1
# Building blocks:
#     Node 0, Type 0, BuildingBlock: OLANEW_clean_sbu_2, # of connection points: 3
#     Node 1, Type 0, BuildingBlock: OLANEW_clean_sbu_2, # of connection points: 3
#     Node 2, Type 0, BuildingBlock: OLANEW_clean_sbu_2, # of connection points: 3
#     Node 3, Type 0, BuildingBlock: OLANEW_clean_sbu_2, # of connection points: 3
#     Node 4, Type 0, BuildingBlock: OLANEW_clean_sbu_2, # of connection points: 3
#     Node 5, Type 0, BuildingBlock: OLANEW_clean_sbu_2, # of connection points: 3
#     Node 6, Type 0, BuildingBlock: OLANEW_clean_sbu_2, # of connection points: 3
#     Node 7, Type 0, BuildingBlock: OLANEW_clean_sbu_2, # of connection points: 3
#     Node 8, Type 1, BuildingBlock: CUWYAW_clean_sbu_0, # of connection points: 6
#     Node 9, Type 1, BuildingBlock: CUWYAW_clean_sbu_0, # of connection points: 6
#     Node 10, Type 1, BuildingBlock: CUWYAW_clean_sbu_0, # of connection points: 6
#     Node 11, Type 1, BuildingBlock: CUWYAW_clean_sbu_0, # of connection points: 6
#     Edge 12, Type (0, 1), BuildingBlock: OJICUG_clean_linker_0, # of connection points: 2
#     Edge 13, Type (0, 1), BuildingBlock: OJICUG_clean_linker_0, # of connection points: 2
#     Edge 14, Type (0, 1), BuildingBlock: OJICUG_clean_linker_0, # of connection points: 2
#     Edge 15, Type (0, 1), BuildingBlock: OJICUG_clean_linker_0, # of connection points: 2
#     Edge 16, Type (0, 1), BuildingBlock: OJICUG_clean_linker_0, # of connection points: 2
#     Edge 17, Type (0, 1), BuildingBlock: OJICUG_clean_linker_0, # of connection points: 2
#     Edge 18, Type (0, 1), BuildingBlock: OJICUG_clean_linker_0, # of connection points: 2
#     Edge 19, Type (0, 1), BuildingBlock: OJICUG_clean_linker_0, # of connection points: 2
#     Edge 20, Type (0, 1), BuildingBlock: OJICUG_clean_linker_0, # of connection points: 2
#     Edge 21, Type (0, 1), BuildingBlock: OJICUG_clean_linker_0, # of connection points: 2
#     Edge 22, Type (0, 1), BuildingBlock: OJICUG_clean_linker_0, # of connection points: 2
#     Edge 23, Type (0, 1), BuildingBlock: OJICUG_clean_linker_0, # of connection points: 2
#     Edge 24, Type (0, 1), BuildingBlock: OJICUG_clean_linker_0, # of connection points: 2
#     Edge 25, Type (0, 1), BuildingBlock: OJICUG_clean_linker_0, # of connection points: 2
#     Edge 26, Type (0, 1), BuildingBlock: OJICUG_clean_linker_0, # of connection points: 2
#     Edge 27, Type (0, 1), BuildingBlock: OJICUG_clean_linker_0, # of connection points: 2
#     Edge 28, Type (0, 1), BuildingBlock: OJICUG_clean_linker_0, # of connection points: 2
#     Edge 29, Type (0, 1), BuildingBlock: OJICUG_clean_linker_0, # of connection points: 2
#     Edge 30, Type (0, 1), BuildingBlock: OJICUG_clean_linker_0, # of connection points: 2
#     Edge 31, Type (0, 1), BuildingBlock: OJICUG_clean_linker_0, # of connection points: 2
#     Edge 32, Type (0, 1), BuildingBlock: OJICUG_clean_linker_0, # of connection points: 2
#     Edge 33, Type (0, 1), BuildingBlock: OJICUG_clean_linker_0, # of connection points: 2
#     Edge 34, Type (0, 1), BuildingBlock: OJICUG_clean_linker_0, # of connection points: 2
#     Edge 35, Type (0, 1), BuildingBlock: OJICUG_clean_linker_0, # of connection points: 2
# Relax obj value: 0.292
# Max RMSD: 0.183
# Mean RMSD: 0.148
data_MOF--net-zzz--node1-OLANEW_clean_sbu_2--node2-CUWYAW_clean_sbu_0--edge1-OJICUG_clean_linker_0
_symmetry_space_group_name_H-M    P1
_symmetry_Int_Tables_number       1
_symmetry_cell_setting            triclinic
loop_
_symmetry_equiv_pos_as_xyz
'x, y, z'
_cell_length_a     41.973437
_cell_length_b     42.029736
_cell_length_c     12.15584
_cell_angle_alpha  89.528152
_cell_angle_beta   89.795658
_cell_angle_gamma 90.001937
loop_
_atom_site_label
_atom_site_type_symbol
_atom_site_fract_x
_atom_site_fract_y
_atom_site_fract_z
_atom_type_partial_charge
O0 O 0.72426 0.62186 0.29566 0.0
Cd1 Cd 0.67118 0.64248 0.33827 0.0
O2 O 0.70878 0.57566 0.36308 0.0
Cd3 Cd 0.72448 0.52793 0.41002 0.0
O4 O 0.7699 0.50734 0.46025 0.0
C5 C 0.78257 0.52104 0.54193 0.0
O6 O 0.76681 0.54397 0.59086 0.0
C7 C 0.72987 0.5927 0.31569 0.0
C8 C 0.62791 0.60947 0.20872 0.0
O9 O 0.6422 0.63438 0.1723 0.0
O10 O 0.63317 0.60073 0.30828 0.0
O11 O 0.86248 0.70547 0.18256 0.0
Cd12 Cd 0.84321 0.65116 0.2074 0.0
O13 O 0.90105 0.69284 0.29677 0.0
Cd14 Cd 0.9428 0.71053 0.38402 0.0
O15 O 0.96577 0.75449 0.43571 0.0
C16 C 0.95678 0.76634 0.52638 0.0
O17 O 0.93613 0.75056 0.5873 0.0
C18 C 0.8882 0.71268 0.23101 0.0
C19 C 0.88111 0.61326 0.07291 0.0
O20 O 0.85485 0.62507 0.03783 0.0
O21 O 0.88887 0.61842 0.17306 0.0
O22 O 0.77159 0.8759 0.17812 0.0
Cd23 Cd 0.82324 0.85008 0.20054 0.0
O24 O 0.79009 0.91622 0.2729 0.0
Cd25 Cd 0.7774 0.96163 0.34722 0.0
O26 O 0.73401 0.98554 0.4011 0.0
C27 C 0.72169 0.97566 0.49062 0.0
O28 O 0.73686 0.95392 0.54844 0.0
C29 C 0.76794 0.9036 0.2171 0.0
C30 C 0.86544 0.8808 0.05776 0.0
O31 O 0.84964 0.85636 0.02696 0.0
O32 O 0.86205 0.89004 0.15734 0.0
O33 O 0.61571 0.80253 0.20251 0.0
Cd34 Cd 0.64083 0.85465 0.20734 0.0
O35 O 0.6162 0.79477 0.38171 0.0
Cd36 Cd 0.60638 0.7639 0.52344 0.0
O37 O 0.58698 0.72318 0.61356 0.0
C38 C 0.58889 0.69607 0.56844 0.0
O39 O 0.60371 0.69364 0.47348 0.0
C40 C 0.60847 0.78562 0.28595 0.0
C41 C 0.60892 0.89215 0.05324 0.0
O42 O 0.63393 0.87649 0.02641 0.0
O43 O 0.59966 0.89088 0.15377 0.0
O44 O 0.268 0.45323 0.38258 0.0
Cd45 Cd 0.32329 0.43715 0.35131 0.0
O46 O 0.25369 0.42828 0.23277 0.0
Cd47 Cd 0.21683 0.41795 0.11237 0.0
O48 O 0.16881 0.42545 0.05076 0.0
C49 C 0.16383 0.44746 0.98072 0.0
O50 O 0.18814 0.46381 0.94195 0.0
C51 C 0.24629 0.44459 0.31678 0.0
C52 C 0.36375 0.46848 0.4957 0.0
O53 O 0.35945 0.47917 0.39781 0.0
O54 O 0.3493 0.44285 0.52436 0.0
O55 O 0.05258 0.2463 0.36222 0.0
Cd56 Cd 0.07399 0.29982 0.33609 0.0
O57 O 0.07075 0.2324 0.20006 0.0
Cd58 Cd 0.08016 0.19577 0.07793 0.0
O59 O 0.07163 0.14852 0.01234 0.0
C60 C 0.05145 0.14468 0.936 0.0
O61 O 0.03762 0.16975 0.89201 0.0
C62 C 0.05581 0.22537 0.28828 0.0
C63 C 0.04298 0.34252 0.47402 0.0
O64 O 0.03323 0.33799 0.37556 0.0
O65 O 0.06757 0.32707 0.50666 0.0
O66 O 0.23805 0.0484 0.31897 0.0
Cd67 Cd 0.18247 0.06287 0.28808 0.0
O68 O 0.25173 0.07595 0.17218 0.0
Cd69 Cd 0.2879 0.08912 0.05118 0.0
O70 O 0.33587 0.08309 0.98696 0.0
C71 C 0.34077 0.06416 0.90783 0.0
O72 O 0.31634 0.05022 0.86114 0.0
C73 C 0.25955 0.0586 0.25398 0.0
C74 C 0.14251 0.0285 0.42852 0.0
O75 O 0.14865 0.0185 0.33139 0.0
O76 O 0.15505 0.05483 0.4585 0.0
O77 O 0.44214 0.25024 0.29149 0.0
Cd78 Cd 0.42315 0.19745 0.24324 0.0
O79 O 0.39535 0.27323 0.27066 0.0
Cd80 Cd 0.37127 0.31923 0.26074 0.0
O81 O 0.38846 0.36623 0.21135 0.0
C82 C 0.40803 0.36525 0.13144 0.0
O83 O 0.41414 0.33762 0.08609 0.0
C84 C 0.42464 0.27481 0.29636 0.0
C85 C 0.45518 0.15482 0.3797 0.0
O86 O 0.4659 0.16142 0.28332 0.0
O87 O 0.42879 0.16748 0.4095 0.0
C88 C 0.99097 0.99845 0.43155 0.0
Eu89 Eu 0.99276 0.96768 0.61783 0.0
C90 C 0.9964 0.03218 0.40355 0.0
C91 C 0.9866 0.05617 0.47595 0.0
C92 C 0.99458 0.0879 0.45524 0.0
C93 C 0.01236 0.09631 0.36134 0.0
C94 C 0.02135 0.07236 0.28722 0.0
C95 C 0.01355 0.04052 0.30844 0.0
C96 C 0.94307 0.95189 0.74959 0.0
C97 C 0.0124 0.01812 0.81394 0.0
C98 C 0.00683 0.91384 0.04082 0.0
Eu99 Eu 0.00964 0.94369 0.85354 0.0
C100 C 0.99021 0.88434 0.07399 0.0
C101 C 0.99307 0.85672 0.01044 0.0
C102 C 0.97564 0.82953 0.03744 0.0
C103 C 0.95489 0.82931 0.12838 0.0
C104 C 0.95177 0.85699 0.19161 0.0
C105 C 0.96938 0.88429 0.16469 0.0
C106 C 0.0598 0.95887 0.72412 0.0
C107 C 0.99207 0.89357 0.6558 0.0
O108 O 0.0161 0.98281 0.46543 0.0
O109 O 0.96557 0.99217 0.49072 0.0
O110 O 0.9434 0.94701 0.64417 0.0
O111 O 0.96793 0.96639 0.77803 0.0
O112 O 0.00837 0.01233 0.70788 0.0
O113 O 0.0106 0.99568 0.89031 0.0
O114 O 0.98826 0.93784 0.01607 0.0
O115 O 0.03076 0.91084 0.97188 0.0
O116 O 0.0598 0.96238 0.83033 0.0
O117 O 0.03469 0.94508 0.69383 0.0
O118 O 0.99173 0.90019 0.76223 0.0
O119 O 0.99719 0.91571 0.5799 0.0
H120 H 0.97326 0.05033 0.5498 0.0
H121 H 0.98698 0.10586 0.51312 0.0
H122 H 0.03531 0.07812 0.21481 0.0
H123 H 0.02153 0.02234 0.25196 0.0
H124 H 0.00846 0.85616 0.93879 0.0
H125 H 0.97812 0.80872 0.98611 0.0
H126 H 0.93607 0.85739 0.26251 0.0
H127 H 0.96651 0.90547 0.21398 0.0
C128 C 0.48938 0.00481 0.40403 0.0
Eu129 Eu 0.52005 0.00933 0.58861 0.0
C130 C 0.45564 0.00969 0.37505 0.0
C131 C 0.43124 0.99889 0.44541 0.0
C132 C 0.39942 0.00587 0.42242 0.0
C133 C 0.39128 0.02382 0.32856 0.0
C134 C 0.41576 0.03415 0.25728 0.0
C135 C 0.44765 0.02717 0.28039 0.0
C136 C 0.53654 0.96181 0.7287 0.0
C137 C 0.46915 0.03035 0.78314 0.0
C138 C 0.57328 0.02976 0.00798 0.0
Eu139 Eu 0.54378 0.02965 0.82072 0.0
C140 C 0.6022 0.01307 0.04588 0.0
C141 C 0.6295 0.01201 0.97892 0.0
C142 C 0.65594 0.99419 0.01089 0.0
C143 C 0.65577 0.977 0.11057 0.0
C144 C 0.6284 0.97796 0.17758 0.0
C145 C 0.60185 0.99591 0.14548 0.0
C146 C 0.5275 0.07767 0.68348 0.0
C147 C 0.59418 0.01036 0.62389 0.0
O148 O 0.50493 0.03042 0.43266 0.0
O149 O 0.4957 0.98032 0.46761 0.0
O150 O 0.54156 0.96072 0.62322 0.0
O151 O 0.52168 0.98681 0.75284 0.0
O152 O 0.47509 0.02529 0.67757 0.0
O153 O 0.49164 0.0299 0.85885 0.0
O154 O 0.54885 0.01138 0.98803 0.0
O155 O 0.57721 0.05202 0.9328 0.0
O156 O 0.52417 0.07909 0.78975 0.0
O157 O 0.54178 0.05249 0.65711 0.0
O158 O 0.58752 0.01093 0.73059 0.0
O159 O 0.57197 0.01436 0.54822 0.0
H160 H 0.43678 0.9856 0.51962 0.0
H161 H 0.38127 0.99797 0.48003 0.0
H162 H 0.41028 0.04774 0.18381 0.0
H163 H 0.4661 0.03585 0.22529 0.0
H164 H 0.63031 0.02458 0.90086 0.0
H165 H 0.67639 0.99344 0.95633 0.0
H166 H 0.62762 0.96506 0.25504 0.0
H167 H 0.58088 0.99609 0.19774 0.0
C168 C 0.5206 0.47535 0.59841 0.0
Eu169 Eu 0.51153 0.51286 0.76478 0.0
C170 C 0.50595 0.44694 0.54966 0.0
C171 C 0.52537 0.42136 0.5191 0.0
C172 C 0.51204 0.39408 0.47314 0.0
C173 C 0.47896 0.39199 0.45587 0.0
C174 C 0.45961 0.41794 0.48537 0.0
C175 C 0.47295 0.44501 0.53262 0.0
C176 C 0.55474 0.53026 0.9181 0.0
C177 C 0.47186 0.47775 0.96475 0.0
C178 C 0.47883 0.59055 0.125 0.0
Eu179 Eu 0.48507 0.55195 0.96056 0.0
C180 C 0.49528 0.62024 0.15391 0.0
C181 C 0.50306 0.64267 0.07201 0.0
C182 C 0.52165 0.66911 0.09693 0.0
C183 C 0.5325 0.67388 0.2047 0.0
C184 C 0.52376 0.65201 0.28757 0.0
C185 C 0.50552 0.6252 0.26212 0.0
C186 C 0.4419 0.53551 0.80658 0.0
C187 C 0.52397 0.58701 0.75724 0.0
O188 O 0.5043 0.50191 0.5924 0.0
O189 O 0.5347 0.47132 0.6935 0.0
O190 O 0.56133 0.52772 0.81419 0.0
O191 O 0.52666 0.52109 0.93632 0.0
O192 O 0.48057 0.47777 0.85983 0.0
O193 O 0.47521 0.50302 0.02766 0.0
O194 O 0.49648 0.56489 0.12916 0.0
O195 O 0.46059 0.59163 0.03768 0.0
O196 O 0.43516 0.53758 0.91067 0.0
O197 O 0.47013 0.54429 0.78857 0.0
O198 O 0.51497 0.58756 0.8619 0.0
O199 O 0.52063 0.56147 0.69605 0.0
H200 H 0.55089 0.42236 0.53175 0.0
H201 H 0.52763 0.37441 0.45332 0.0
H202 H 0.43413 0.41743 0.47185 0.0
H203 H 0.45743 0.46435 0.55594 0.0
H204 H 0.4951 0.63954 0.98825 0.0
H205 H 0.52749 0.6859 0.0318 0.0
H206 H 0.53164 0.65524 0.37135 0.0
H207 H 0.4999 0.60807 0.32642 0.0
C208 C 0.0166 0.49957 0.46893 0.0
Eu209 Eu 0.98518 0.49695 0.65352 0.0
C210 C 0.0504 0.49456 0.44072 0.0
C211 C 0.07463 0.505 0.5112 0.0
C212 C 0.10651 0.49789 0.48886 0.0
C213 C 0.11486 0.48023 0.39532 0.0
C214 C 0.09052 0.47036 0.32377 0.0
C215 C 0.05861 0.47742 0.34638 0.0
C216 C 0.96558 0.54593 0.78026 0.0
C217 C 0.03545 0.47986 0.85405 0.0
C218 C 0.93049 0.48113 0.07607 0.0
Eu219 Eu 0.96058 0.47931 0.88902 0.0
C220 C 0.90148 0.49784 0.11247 0.0
C221 C 0.87525 0.50086 0.0419 0.0
C222 C 0.84829 0.51773 0.07458 0.0
C223 C 0.84683 0.53188 0.1789 0.0
C224 C 0.87334 0.52935 0.24892 0.0
C225 C 0.90045 0.51243 0.21589 0.0
C226 C 0.97847 0.42979 0.76324 0.0
C227 C 0.91087 0.49405 0.68552 0.0
O228 O 0.00111 0.47421 0.50223 0.0
O229 O 0.01006 0.52468 0.52801 0.0
O230 O 0.96187 0.54519 0.67418 0.0
O231 O 0.98123 0.52198 0.81183 0.0
O232 O 0.03003 0.48365 0.74749 0.0
O233 O 0.01256 0.48035 0.92875 0.0
O234 O 0.95478 0.49949 0.05249 0.0
O235 O 0.92664 0.45828 0.00443 0.0
O236 O 0.98133 0.42983 0.86974 0.0
O237 O 0.96395 0.45431 0.73078 0.0
O238 O 0.91681 0.49511 0.79253 0.0
O239 O 0.93368 0.48977 0.61187 0.0
H240 H 0.06888 0.51818 0.58476 0.0
H241 H 0.12451 0.50549 0.54661 0.0
H242 H 0.09613 0.45707 0.25046 0.0
H243 H 0.04028 0.46907 0.29107 0.0
H244 H 0.87553 0.49012 0.96133 0.0
H245 H 0.82853 0.51974 0.01785 0.0
H246 H 0.87287 0.53987 0.32995 0.0
H247 H 0.9206 0.5107 0.27109 0.0
C248 C 0.11915 0.01882 0.61538 0.0
C249 C 0.12175 0.01013 0.50431 0.0
H250 H 0.09773 0.00908 0.77217 0.0
C251 C 0.1044 0.98374 0.46678 0.0
H252 H 0.13226 0.03896 0.64695 0.0
C253 C 0.08456 0.96668 0.53868 0.0
C254 C 0.0819 0.97559 0.64928 0.0
H255 H 0.1059 0.97645 0.38167 0.0
H256 H 0.07121 0.94661 0.50776 0.0
C257 C 0.09956 0.0016 0.68729 0.0
C258 C 0.50066 0.1179 0.42053 0.0
C259 C 0.47345 0.13441 0.45643 0.0
H260 H 0.53936 0.08707 0.46519 0.0
C261 C 0.46451 0.13232 0.5678 0.0
H262 H 0.50818 0.11909 0.33526 0.0
C263 C 0.48254 0.11435 0.64189 0.0
C264 C 0.5096 0.0978 0.60582 0.0
H265 H 0.44376 0.14485 0.59818 0.0
H266 H 0.47498 0.11302 0.72714 0.0
C267 C 0.51853 0.09965 0.49465 0.0
C268 C 0.40599 0.50875 0.53795 0.0
C269 C 0.38409 0.48562 0.57454 0.0
H270 H 0.4421 0.54235 0.58343 0.0
C271 C 0.38135 0.47927 0.68784 0.0
H272 H 0.40871 0.51403 0.45105 0.0
C273 C 0.39982 0.49597 0.76318 0.0
C274 C 0.42189 0.5188 0.72652 0.0
H275 H 0.36463 0.46167 0.71856 0.0
H276 H 0.3972 0.49063 0.85011 0.0
C277 C 0.42508 0.52491 0.61338 0.0
C278 C 0.00122 0.3839 0.50878 0.0
C279 C 0.02619 0.36469 0.54823 0.0
H280 H 0.96629 0.41943 0.54671 0.0
C281 C 0.03483 0.36668 0.65961 0.0
H282 H 0.99397 0.3829 0.42346 0.0
C283 C 0.01888 0.38748 0.72997 0.0
C284 C 0.99421 0.40686 0.69006 0.0
H285 H 0.0539 0.35216 0.69263 0.0
H286 H 0.02621 0.38875 0.8152 0.0
C287 C 0.98541 0.40484 0.57911 0.0
C288 C 0.90191 0.92629 0.01261 0.0
C289 C 0.88584 0.89866 0.97931 0.0
H290 H 0.93198 0.96528 0.96466 0.0
C291 C 0.88833 0.88907 0.86906 0.0
H292 H 0.90041 0.93439 0.09682 0.0
C293 C 0.90638 0.9068 0.79368 0.0
C294 C 0.92242 0.93434 0.82727 0.0
H295 H 0.87623 0.86791 0.84073 0.0
H296 H 0.9082 0.89865 0.70957 0.0
C297 C 0.91995 0.944 0.93712 0.0
C298 C 0.60037 0.91075 0.85915 0.0
C299 C 0.59059 0.9102 0.96992 0.0
H300 H 0.59065 0.92732 0.69538 0.0
C301 C 0.5624 0.92606 0.99967 0.0
H302 H 0.62196 0.89875 0.83356 0.0
C303 C 0.54438 0.94208 0.92034 0.0
C304 C 0.55429 0.94276 0.81006 0.0
H305 H 0.55414 0.92602 0.08419 0.0
H306 H 0.52272 0.95407 0.94534 0.0
C307 C 0.58232 0.92682 0.77984 0.0
C308 C 0.58701 0.56687 0.17844 0.0
C309 C 0.60773 0.59019 0.13545 0.0
H310 H 0.55382 0.52948 0.14259 0.0
C311 C 0.61047 0.59378 0.02079 0.0
H312 H 0.58436 0.56365 0.2665 0.0
C313 C 0.59358 0.57389 0.95052 0.0
C314 C 0.57309 0.55046 0.9934 0.0
H315 H 0.62627 0.61147 0.98511 0.0
H316 H 0.59633 0.5771 0.86246 0.0
C317 C 0.56962 0.54733 0.10783 0.0
C318 C 0.93147 0.58294 0.03728 0.0
C319 C 0.90258 0.59561 0.9984 0.0
H320 H 0.97455 0.55803 0.99739 0.0
C321 C 0.8951 0.59255 0.88633 0.0
H322 H 0.938 0.58499 0.12306 0.0
C323 C 0.9161 0.57725 0.81469 0.0
C324 C 0.94481 0.56443 0.85391 0.0
H325 H 0.87308 0.60209 0.85365 0.0
H326 H 0.9095 0.57486 0.72908 0.0
C327 C 0.95241 0.56756 0.96554 0.0
C328 C 0.04521 0.17894 0.41256 0.0
C329 C 0.04352 0.19284 0.30735 0.0
H330 H 0.03713 0.13733 0.51167 0.0
C331 C 0.03004 0.17539 0.22115 0.0
H332 H 0.05525 0.19197 0.48071 0.0
C333 C 0.01994 0.14403 0.23837 0.0
C334 C 0.0224 0.1298 0.34298 0.0
H335 H 0.02698 0.18608 0.14058 0.0
H336 H 0.00986 0.13104 0.17019 0.0
C337 C 0.0348 0.14771 0.43021 0.0
C338 C 0.30099 0.019 0.31009 0.0
C339 C 0.29318 0.04963 0.27208 0.0
H340 H 0.33813 0.9865 0.35482 0.0
C341 C 0.31771 0.07178 0.25371 0.0
H342 H 0.2825 0.00152 0.32544 0.0
C343 C 0.34952 0.06327 0.2704 0.0
C344 C 0.35748 0.03249 0.30727 0.0
H345 H 0.31228 0.09596 0.22874 0.0
H346 H 0.36783 0.08106 0.25696 0.0
C347 C 0.33282 0.01046 0.32705 0.0
C348 C 0.42221 0.32296 0.41341 0.0
C349 C 0.43825 0.30514 0.33349 0.0
H350 H 0.42263 0.36392 0.516 0.0
C351 C 0.46761 0.31598 0.29269 0.0
H352 H 0.39983 0.31464 0.44774 0.0
C353 C 0.48054 0.34456 0.33029 0.0
C354 C 0.46462 0.36243 0.41119 0.0
H355 H 0.48036 0.30253 0.23092 0.0
H356 H 0.50296 0.35265 0.29577 0.0
C357 C 0.43525 0.35126 0.45204 0.0
C358 C 0.18806 0.43209 0.31826 0.0
C359 C 0.21281 0.45381 0.33704 0.0
H360 H 0.13788 0.42329 0.32202 0.0
C361 C 0.20534 0.48414 0.37706 0.0
H362 H 0.19323 0.40811 0.29167 0.0
C363 C 0.17357 0.49288 0.39504 0.0
C364 C 0.14866 0.47132 0.37437 0.0
H365 H 0.22403 0.50127 0.39287 0.0
H366 H 0.16851 0.51666 0.42397 0.0
C367 C 0.15634 0.44078 0.33608 0.0
C368 C 0.93713 0.74242 0.18081 0.0
C369 C 0.90451 0.74291 0.20604 0.0
H370 H 0.97863 0.76934 0.13892 0.0
C371 C 0.88817 0.77205 0.20566 0.0
H372 H 0.95008 0.72013 0.17868 0.0
C373 C 0.90458 0.80042 0.18276 0.0
C374 C 0.93733 0.79983 0.15758 0.0
H375 H 0.86292 0.77289 0.22421 0.0
H376 H 0.89161 0.82268 0.18285 0.0
C377 C 0.95338 0.77053 0.15717 0.0
C378 C 0.70848 0.90903 0.20966 0.0
C379 C 0.73892 0.92202 0.19312 0.0
H380 H 0.65808 0.91679 0.2001 0.0
C381 C 0.74184 0.95315 0.15194 0.0
H382 H 0.70573 0.88503 0.24144 0.0
C383 C 0.71484 0.97108 0.1273 0.0
C384 C 0.68424 0.95827 0.14328 0.0
H385 H 0.76514 0.96353 0.13771 0.0
H386 H 0.71793 0.99506 0.09574 0.0
C387 C 0.68131 0.92722 0.18642 0.0
C388 C 0.56521 0.74772 0.34114 0.0
C389 C 0.59046 0.75589 0.27021 0.0
H390 H 0.5271 0.71519 0.37629 0.0
C391 C 0.59683 0.7367 0.17885 0.0
H392 H 0.559 0.76279 0.40975 0.0
C393 C 0.57839 0.70971 0.15895 0.0
C394 C 0.55302 0.70157 0.22954 0.0
H395 H 0.61602 0.74265 0.12247 0.0
H396 H 0.58391 0.69525 0.08802 0.0
C397 C 0.54678 0.72066 0.32145 0.0
C398 C 0.78962 0.59233 0.3023 0.0
C399 C 0.7601 0.57802 0.28071 0.0
H400 H 0.8405 0.58856 0.28899 0.0
C401 C 0.75931 0.54898 0.22486 0.0
H402 H 0.79074 0.61483 0.34495 0.0
C403 C 0.78746 0.53411 0.19266 0.0
C404 C 0.81715 0.54802 0.21507 0.0
H405 H 0.73679 0.53772 0.20597 0.0
H406 H 0.78595 0.51145 0.15118 0.0
C407 C 0.81799 0.57723 0.27085 0.0
C408 C 0.02367 0.10748 0.80828 0.0
C409 C 0.04178 0.11229 0.90364 0.0
H410 H 0.00011 0.07387 0.70548 0.0
C411 C 0.04969 0.08595 0.97007 0.0
H412 H 0.01721 0.1273 0.75535 0.0
C413 C 0.03933 0.05547 0.9426 0.0
C414 C 0.02146 0.05062 0.84674 0.0
H415 H 0.06371 0.0889 0.04387 0.0
H416 H 0.04591 0.03563 0.99525 0.0
C417 C 0.01386 0.07689 0.77965 0.0
C418 C 0.3995 0.06428 0.94185 0.0
C419 C 0.37365 0.05609 0.87456 0.0
H420 H 0.44989 0.06194 0.96706 0.0
C421 C 0.37944 0.03919 0.77735 0.0
H422 H 0.39578 0.07739 0.01713 0.0
C423 C 0.41048 0.03072 0.74793 0.0
C424 C 0.43627 0.03848 0.81602 0.0
H425 H 0.36002 0.03258 0.72369 0.0
H426 H 0.4142 0.01786 0.67231 0.0
C427 C 0.43047 0.05527 0.91349 0.0
C428 C 0.44001 0.39377 0.98837 0.0
C429 C 0.42429 0.39423 0.09052 0.0
H430 H 0.46719 0.4196 0.86879 0.0
C431 C 0.4249 0.42223 0.15292 0.0
H432 H 0.44002 0.37256 0.93837 0.0
C433 C 0.44085 0.4493 0.11335 0.0
C434 C 0.45622 0.44891 0.01025 0.0
H435 H 0.41326 0.42317 0.23253 0.0
H436 H 0.44079 0.47059 0.16296 0.0
C437 C 0.45562 0.42081 0.94845 0.0
C438 C 0.10486 0.44453 0.00997 0.0
C439 C 0.13097 0.45575 0.94818 0.0
H440 H 0.05414 0.44412 0.03032 0.0
C441 C 0.12542 0.47558 0.8567 0.0
H442 H 0.10841 0.42911 0.08069 0.0
C443 C 0.09434 0.48371 0.82689 0.0
C444 C 0.06829 0.47271 0.88918 0.0
H445 H 0.14504 0.4846 0.80743 0.0
H446 H 0.09075 0.4988 0.75551 0.0
C447 C 0.07382 0.45326 0.98159 0.0
C448 C 0.96234 0.80865 0.66784 0.0
C449 C 0.96749 0.79836 0.55968 0.0
H450 H 0.96597 0.84661 0.78252 0.0
C451 C 0.98147 0.81944 0.48305 0.0
H452 H 0.95153 0.79303 0.7287 0.0
C453 C 0.98969 0.85041 0.51389 0.0
C454 C 0.98442 0.86068 0.62222 0.0
H455 H 0.98542 0.81228 0.39866 0.0
H456 H 3e-05 0.86628 0.45285 0.0
C457 C 0.9708 0.83938 0.69882 0.0
C458 C 0.67913 0.98055 0.63333 0.0
C459 C 0.68969 0.98638 0.52532 0.0
H460 H 0.64082 0.98349 0.74876 0.0
C461 C 0.6688 0.00091 0.4499 0.0
H462 H 0.69462 0.9693 0.69322 0.0
C463 C 0.63773 0.00889 0.48162 0.0
C464 C 0.62718 0.00292 0.58972 0.0
H465 H 0.67618 0.0054 0.3657 0.0
H466 H 0.62198 0.01963 0.42144 0.0
C467 C 0.6483 0.98885 0.6653 0.0
C468 C 0.5594 0.66963 0.72387 0.0
C469 C 0.57293 0.66804 0.61819 0.0
H470 H 0.53375 0.64528 0.85104 0.0
C471 C 0.57036 0.63961 0.55894 0.0
H472 H 0.56115 0.69113 0.772 0.0
C473 C 0.55398 0.61356 0.60333 0.0
C474 C 0.54028 0.61513 0.70892 0.0
H475 H 0.58064 0.63754 0.47744 0.0
H476 H 0.55233 0.5921 0.55491 0.0
C477 C 0.54348 0.64337 0.76904 0.0
C478 C 0.8253 0.52194 0.68362 0.0
C479 C 0.81503 0.51271 0.57886 0.0
H480 H 0.86346 0.52335 0.79891 0.0
C481 C 0.83645 0.49685 0.50899 0.0
H482 H 0.8094 0.53431 0.73916 0.0
C483 C 0.86773 0.49074 0.54311 0.0
C484 C 0.87787 0.4999 0.6483 0.0
H485 H 0.82928 0.4898 0.42721 0.0
H486 H 0.88389 0.47882 0.4873 0.0
C487 C 0.85628 0.51546 0.71815 0.0
loop_
_geom_bond_atom_site_label_1
_geom_bond_atom_site_label_2
_geom_bond_distance
_geom_bond_site_symmetry_2
_ccdc_geom_bond_type
O0 Cd1 2.300 . S
O0 C7 1.275 . S
Cd1 O0 2.300 . S
Cd1 O9 2.381 . S
Cd1 O10 2.378 . S
O2 Cd3 2.385 . S
O2 C7 1.255 . S
Cd3 O2 2.385 . S
Cd3 O4 2.317 . S
O4 Cd3 2.317 . S
O4 C5 1.232 . S
C5 O4 1.232 . S
C5 O6 1.218 . S
O6 C5 1.218 . S
C7 O0 1.275 . S
C7 O2 1.255 . S
C8 O9 1.258 . S
C8 O10 1.256 . S
O9 Cd1 2.381 . S
O9 C8 1.258 . S
O10 Cd1 2.378 . S
O10 C8 1.256 . S
O11 Cd12 2.300 1_655 S
O11 C18 1.275 1_655 S
Cd12 O11 2.300 1_455 S
Cd12 O20 2.381 1_455 S
Cd12 O21 2.378 . S
O13 Cd14 2.385 . S
O13 C18 1.255 . S
Cd14 O13 2.385 . S
Cd14 O15 2.317 . S
O15 Cd14 2.317 . S
O15 C16 1.232 . S
C16 O15 1.232 . S
C16 O17 1.218 . S
O17 C16 1.218 . S
C18 O11 1.275 1_455 S
C18 O13 1.255 . S
C19 O20 1.258 1_455 S
C19 O21 1.256 . S
O20 Cd12 2.381 1_655 S
O20 C19 1.258 1_655 S
O21 Cd12 2.378 . S
O21 C19 1.256 . S
O22 Cd23 2.300 1_565 S
O22 C29 1.275 1_565 S
Cd23 O22 2.300 1_545 S
Cd23 O31 2.381 1_545 S
Cd23 O32 2.378 . S
O24 Cd25 2.385 . S
O24 C29 1.255 . S
Cd25 O24 2.385 . S
Cd25 O26 2.317 . S
O26 Cd25 2.317 . S
O26 C27 1.232 . S
C27 O26 1.232 . S
C27 O28 1.218 . S
O28 C27 1.218 . S
C29 O22 1.275 1_545 S
C29 O24 1.255 . S
C30 O31 1.258 1_545 S
C30 O32 1.256 . S
O31 Cd23 2.381 1_565 S
O31 C30 1.258 1_565 S
O32 Cd23 2.378 . S
O32 C30 1.256 . S
O33 Cd34 2.300 . S
O33 C40 1.275 . S
Cd34 O33 2.300 . S
Cd34 O42 2.381 . S
Cd34 O43 2.378 . S
O35 Cd36 2.385 . S
O35 C40 1.255 . S
Cd36 O35 2.385 . S
Cd36 O37 2.317 . S
O37 Cd36 2.317 . S
O37 C38 1.232 . S
C38 O37 1.232 . S
C38 O39 1.218 . S
O39 C38 1.218 . S
C40 O33 1.275 . S
C40 O35 1.255 . S
C41 O42 1.258 . S
C41 O43 1.256 . S
O42 Cd34 2.381 . S
O42 C41 1.258 . S
O43 Cd34 2.378 . S
O43 C41 1.256 . S
O44 Cd45 2.300 . S
O44 C51 1.275 . S
Cd45 O44 2.300 . S
Cd45 O53 2.381 . S
Cd45 O54 2.378 . S
O46 Cd47 2.385 1_554 S
O46 C51 1.255 . S
Cd47 O46 2.385 1_556 S
Cd47 O48 2.317 . S
O48 Cd47 2.317 . S
O48 C49 1.232 . S
C49 O48 1.232 . S
C49 O50 1.218 . S
O50 C49 1.218 . S
C51 O44 1.275 . S
C51 O46 1.255 . S
C52 O53 1.258 . S
C52 O54 1.256 . S
O53 Cd45 2.381 . S
O53 C52 1.258 . S
O54 Cd45 2.378 . S
O54 C52 1.256 . S
O55 Cd56 2.300 1_655 S
O55 C62 1.275 1_655 S
Cd56 O55 2.300 1_455 S
Cd56 O64 2.381 1_455 S
Cd56 O65 2.378 . S
O57 Cd58 2.385 1_554 S
O57 C62 1.255 . S
Cd58 O57 2.385 1_556 S
Cd58 O59 2.317 . S
O59 Cd58 2.317 . S
O59 C60 1.232 . S
C60 O59 1.232 . S
C60 O61 1.218 . S
O61 C60 1.218 . S
C62 O55 1.275 1_455 S
C62 O57 1.255 . S
C63 O64 1.258 1_455 S
C63 O65 1.256 . S
O64 Cd56 2.381 1_655 S
O64 C63 1.258 1_655 S
O65 Cd56 2.378 . S
O65 C63 1.256 . S
O66 Cd67 2.300 1_565 S
O66 C73 1.275 1_565 S
Cd67 O66 2.300 1_545 S
Cd67 O75 2.381 1_545 S
Cd67 O76 2.378 . S
O68 Cd69 2.385 1_554 S
O68 C73 1.255 . S
Cd69 O68 2.385 1_556 S
Cd69 O70 2.317 . S
O70 Cd69 2.317 . S
O70 C71 1.232 . S
C71 O70 1.232 . S
C71 O72 1.218 . S
O72 C71 1.218 . S
C73 O66 1.275 1_545 S
C73 O68 1.255 . S
C74 O75 1.258 1_545 S
C74 O76 1.256 . S
O75 Cd67 2.381 1_565 S
O75 C74 1.258 1_565 S
O76 Cd67 2.378 . S
O76 C74 1.256 . S
O77 Cd78 2.300 . S
O77 C84 1.275 . S
Cd78 O77 2.300 . S
Cd78 O86 2.381 . S
Cd78 O87 2.378 . S
O79 Cd80 2.385 1_554 S
O79 C84 1.255 . S
Cd80 O79 2.385 1_556 S
Cd80 O81 2.317 . S
O81 Cd80 2.317 . S
O81 C82 1.232 . S
C82 O81 1.232 . S
C82 O83 1.218 . S
O83 C82 1.218 . S
C84 O77 1.275 . S
C84 O79 1.255 . S
C85 O86 1.258 . S
C85 O87 1.256 . S
O86 Cd78 2.381 . S
O86 C85 1.258 . S
O87 Cd78 2.378 . S
O87 C85 1.256 . S
C88 Eu89 2.835 . S
C88 C90 1.500 . S
C88 O108 1.257 . S
C88 O109 1.260 . S
Eu89 C88 2.835 . S
Eu89 O108 2.473 . S
Eu89 O109 2.480 . S
Eu89 O110 2.430 . S
Eu89 O111 2.670 1_545 S
Eu89 O112 2.394 . S
Eu89 O117 2.355 1_655 S
Eu89 O119 2.374 1_545 S
C90 C88 1.500 . S
C90 C91 1.377 . S
C90 C95 1.377 . S
C91 C90 1.377 . S
C91 C92 1.395 . S
C91 H120 0.931 . S
C92 C91 1.395 . S
C92 C93 1.383 . S
C92 H121 0.931 . S
C93 C92 1.383 . S
C93 C94 1.394 . S
C94 C93 1.394 . S
C94 C95 1.378 . S
C94 H122 0.931 1_655 S
C95 C90 1.377 . S
C95 C94 1.378 . S
C95 H123 0.931 1_655 S
C96 O110 1.259 . S
C96 O111 1.270 1_545 S
C97 O112 1.251 1_455 S
C97 O113 1.251 . S
C98 Eu99 2.835 . S
C98 C100 1.500 1_556 S
C98 O114 1.257 . S
C98 O115 1.260 . S
Eu99 C98 2.835 . S
Eu99 O111 2.355 1_455 S
Eu99 O113 2.374 1_565 S
Eu99 O114 2.473 . S
Eu99 O115 2.480 . S
Eu99 O116 2.430 . S
Eu99 O117 2.670 1_565 S
Eu99 O118 2.394 . S
C100 C98 1.500 1_554 S
C100 C101 1.377 . S
C100 C105 1.377 . S
C101 C100 1.377 . S
C101 C102 1.395 . S
C101 H124 0.931 . S
C102 C101 1.395 . S
C102 C103 1.383 . S
C102 H125 0.931 . S
C103 C102 1.383 . S
C103 C104 1.394 . S
C104 C103 1.394 . S
C104 C105 1.378 . S
C104 H126 0.931 1_455 S
C105 C100 1.377 . S
C105 C104 1.378 . S
C105 H127 0.931 1_455 S
C106 O116 1.259 . S
C106 O117 1.270 1_565 S
C107 O118 1.251 1_655 S
C107 O119 1.251 . S
O108 C88 1.257 . S
O108 Eu89 2.473 . S
O109 C88 1.260 . S
O109 Eu89 2.480 . S
O110 Eu89 2.430 . S
O110 C96 1.259 . S
O111 Eu89 2.670 1_565 S
O111 C96 1.270 1_565 S
O111 Eu99 2.355 1_655 S
O112 Eu89 2.394 . S
O112 C97 1.251 1_655 S
O113 C97 1.251 . S
O113 Eu99 2.374 1_545 S
O114 C98 1.257 . S
O114 Eu99 2.473 . S
O115 C98 1.260 . S
O115 Eu99 2.480 . S
O116 Eu99 2.430 . S
O116 C106 1.259 . S
O117 Eu89 2.355 1_455 S
O117 Eu99 2.670 1_545 S
O117 C106 1.270 1_545 S
O118 Eu99 2.394 . S
O118 C107 1.251 1_455 S
O119 Eu89 2.374 1_565 S
O119 C107 1.251 . S
H120 C91 0.931 . S
H121 C92 0.931 . S
H122 C94 0.931 1_455 S
H123 C95 0.931 1_455 S
H124 C101 0.931 . S
H125 C102 0.931 . S
H126 C104 0.931 1_655 S
H127 C105 0.931 1_655 S
C128 Eu129 2.835 . S
C128 C130 1.500 . S
C128 O148 1.257 . S
C128 O149 1.260 . S
Eu129 C128 2.835 . S
Eu129 O148 2.473 . S
Eu129 O149 2.480 . S
Eu129 O150 2.430 . S
Eu129 O151 2.670 . S
Eu129 O152 2.394 . S
Eu129 O157 2.355 1_565 S
Eu129 O159 2.374 . S
C130 C128 1.500 . S
C130 C131 1.377 . S
C130 C135 1.377 . S
C131 C130 1.377 . S
C131 C132 1.395 . S
C131 H160 0.931 . S
C132 C131 1.395 . S
C132 C133 1.383 . S
C132 H161 0.931 . S
C133 C132 1.383 . S
C133 C134 1.394 . S
C134 C133 1.394 . S
C134 C135 1.378 . S
C134 H162 0.931 1_565 S
C135 C130 1.377 . S
C135 C134 1.378 . S
C135 H163 0.931 1_565 S
C136 O150 1.259 . S
C136 O151 1.270 . S
C137 O152 1.251 1_545 S
C137 O153 1.251 . S
C138 Eu139 2.835 . S
C138 C140 1.500 1_556 S
C138 O154 1.257 . S
C138 O155 1.260 . S
Eu139 C138 2.835 . S
Eu139 O151 2.355 1_545 S
Eu139 O153 2.374 . S
Eu139 O154 2.473 . S
Eu139 O155 2.480 . S
Eu139 O156 2.430 . S
Eu139 O157 2.670 . S
Eu139 O158 2.394 . S
C140 C138 1.500 1_554 S
C140 C141 1.377 . S
C140 C145 1.377 . S
C141 C140 1.377 . S
C141 C142 1.395 . S
C141 H164 0.931 . S
C142 C141 1.395 . S
C142 C143 1.383 . S
C142 H165 0.931 . S
C143 C142 1.383 . S
C143 C144 1.394 . S
C144 C143 1.394 . S
C144 C145 1.378 . S
C144 H166 0.931 1_545 S
C145 C140 1.377 . S
C145 C144 1.378 . S
C145 H167 0.931 1_545 S
C146 O156 1.259 . S
C146 O157 1.270 . S
C147 O158 1.251 1_565 S
C147 O159 1.251 . S
O148 C128 1.257 . S
O148 Eu129 2.473 . S
O149 C128 1.260 . S
O149 Eu129 2.480 . S
O150 Eu129 2.430 . S
O150 C136 1.259 . S
O151 Eu129 2.670 . S
O151 C136 1.270 . S
O151 Eu139 2.355 1_565 S
O152 Eu129 2.394 . S
O152 C137 1.251 1_565 S
O153 C137 1.251 . S
O153 Eu139 2.374 . S
O154 C138 1.257 . S
O154 Eu139 2.473 . S
O155 C138 1.260 . S
O155 Eu139 2.480 . S
O156 Eu139 2.430 . S
O156 C146 1.259 . S
O157 Eu129 2.355 1_545 S
O157 Eu139 2.670 . S
O157 C146 1.270 . S
O158 Eu139 2.394 . S
O158 C147 1.251 1_545 S
O159 Eu129 2.374 . S
O159 C147 1.251 . S
H160 C131 0.931 . S
H161 C132 0.931 . S
H162 C134 0.931 1_545 S
H163 C135 0.931 1_545 S
H164 C141 0.931 . S
H165 C142 0.931 . S
H166 C144 0.931 1_565 S
H167 C145 0.931 1_565 S
C168 Eu169 2.835 . S
C168 C170 1.500 . S
C168 O188 1.257 . S
C168 O189 1.260 . S
Eu169 C168 2.835 . S
Eu169 O188 2.473 . S
Eu169 O189 2.480 . S
Eu169 O190 2.430 . S
Eu169 O191 2.670 . S
Eu169 O192 2.394 . S
Eu169 O197 2.355 . S
Eu169 O199 2.374 . S
C170 C168 1.500 . S
C170 C171 1.377 . S
C170 C175 1.377 . S
C171 C170 1.377 . S
C171 C172 1.395 . S
C171 H200 0.931 . S
C172 C171 1.395 . S
C172 C173 1.383 . S
C172 H201 0.931 . S
C173 C172 1.383 . S
C173 C174 1.394 . S
C174 C173 1.394 . S
C174 C175 1.378 . S
C174 H202 0.931 . S
C175 C170 1.377 . S
C175 C174 1.378 . S
C175 H203 0.931 . S
C176 O190 1.259 . S
C176 O191 1.270 . S
C177 O192 1.251 . S
C177 O193 1.251 . S
C178 Eu179 2.835 . S
C178 C180 1.500 1_556 S
C178 O194 1.257 . S
C178 O195 1.260 . S
Eu179 C178 2.835 . S
Eu179 O191 2.355 . S
Eu179 O193 2.374 . S
Eu179 O194 2.473 . S
Eu179 O195 2.480 . S
Eu179 O196 2.430 . S
Eu179 O197 2.670 . S
Eu179 O198 2.394 . S
C180 C178 1.500 1_554 S
C180 C181 1.377 . S
C180 C185 1.377 . S
C181 C180 1.377 . S
C181 C182 1.395 . S
C181 H204 0.931 . S
C182 C181 1.395 . S
C182 C183 1.383 . S
C182 H205 0.931 . S
C183 C182 1.383 . S
C183 C184 1.394 . S
C184 C183 1.394 . S
C184 C185 1.378 . S
C184 H206 0.931 . S
C185 C180 1.377 . S
C185 C184 1.378 . S
C185 H207 0.931 . S
C186 O196 1.259 . S
C186 O197 1.270 . S
C187 O198 1.251 . S
C187 O199 1.251 . S
O188 C168 1.257 . S
O188 Eu169 2.473 . S
O189 C168 1.260 . S
O189 Eu169 2.480 . S
O190 Eu169 2.430 . S
O190 C176 1.259 . S
O191 Eu169 2.670 . S
O191 C176 1.270 . S
O191 Eu179 2.355 . S
O192 Eu169 2.394 . S
O192 C177 1.251 . S
O193 C177 1.251 . S
O193 Eu179 2.374 . S
O194 C178 1.257 . S
O194 Eu179 2.473 . S
O195 C178 1.260 . S
O195 Eu179 2.480 . S
O196 Eu179 2.430 . S
O196 C186 1.259 . S
O197 Eu169 2.355 . S
O197 Eu179 2.670 . S
O197 C186 1.270 . S
O198 Eu179 2.394 . S
O198 C187 1.251 . S
O199 Eu169 2.374 . S
O199 C187 1.251 . S
H200 C171 0.931 . S
H201 C172 0.931 . S
H202 C174 0.931 . S
H203 C175 0.931 . S
H204 C181 0.931 . S
H205 C182 0.931 . S
H206 C184 0.931 . S
H207 C185 0.931 . S
C208 Eu209 2.835 . S
C208 C210 1.500 . S
C208 O228 1.257 . S
C208 O229 1.260 . S
Eu209 C208 2.835 . S
Eu209 O228 2.473 . S
Eu209 O229 2.480 . S
Eu209 O230 2.430 . S
Eu209 O231 2.670 1_455 S
Eu209 O232 2.394 . S
Eu209 O237 2.355 . S
Eu209 O239 2.374 1_455 S
C210 C208 1.500 . S
C210 C211 1.377 . S
C210 C215 1.377 . S
C211 C210 1.377 . S
C211 C212 1.395 . S
C211 H240 0.931 . S
C212 C211 1.395 . S
C212 C213 1.383 . S
C212 H241 0.931 . S
C213 C212 1.383 . S
C213 C214 1.394 . S
C214 C213 1.394 . S
C214 C215 1.378 . S
C214 H242 0.931 . S
C215 C210 1.377 . S
C215 C214 1.378 . S
C215 H243 0.931 . S
C216 O230 1.263 . S
C216 O231 1.267 1_455 S
C217 O232 1.251 . S
C217 O233 1.251 . S
C218 Eu219 2.835 . S
C218 C220 1.500 1_556 S
C218 O234 1.257 . S
C218 O235 1.260 . S
Eu219 C218 2.835 . S
Eu219 O231 2.355 . S
Eu219 O233 2.374 1_655 S
Eu219 O234 2.473 . S
Eu219 O235 2.480 . S
Eu219 O236 2.430 . S
Eu219 O237 2.670 1_655 S
Eu219 O238 2.394 . S
C220 C218 1.500 1_554 S
C220 C221 1.377 . S
C220 C225 1.377 . S
C221 C220 1.377 . S
C221 C222 1.395 . S
C221 H244 0.931 . S
C222 C221 1.395 . S
C222 C223 1.383 . S
C222 H245 0.931 . S
C223 C222 1.383 . S
C223 C224 1.394 . S
C224 C223 1.394 . S
C224 C225 1.378 . S
C224 H246 0.931 . S
C225 C220 1.377 . S
C225 C224 1.378 . S
C225 H247 0.931 . S
C226 O236 1.260 . S
C226 O237 1.269 1_655 S
C227 O238 1.251 . S
C227 O239 1.251 . S
O228 C208 1.257 . S
O228 Eu209 2.473 . S
O229 C208 1.260 . S
O229 Eu209 2.480 . S
O230 Eu209 2.430 . S
O230 C216 1.263 . S
O231 Eu209 2.670 1_655 S
O231 C216 1.267 1_655 S
O231 Eu219 2.355 . S
O232 Eu209 2.394 . S
O232 C217 1.251 . S
O233 C217 1.251 . S
O233 Eu219 2.374 1_455 S
O234 C218 1.257 . S
O234 Eu219 2.473 . S
O235 C218 1.260 . S
O235 Eu219 2.480 . S
O236 Eu219 2.430 . S
O236 C226 1.260 . S
O237 Eu209 2.355 . S
O237 Eu219 2.670 1_455 S
O237 C226 1.269 1_455 S
O238 Eu219 2.394 . S
O238 C227 1.251 . S
O239 Eu209 2.374 1_655 S
O239 C227 1.251 . S
H240 C211 0.931 . S
H241 C212 0.931 . S
H242 C214 0.931 . S
H243 C215 0.931 . S
H244 C221 0.931 . S
H245 C222 0.931 . S
H246 C224 0.931 . S
H247 C225 0.931 . S
C248 C249 1.387 . S
C248 H252 0.950 . S
C248 C257 1.390 . S
C249 C248 1.387 . S
C249 C251 1.388 1_545 S
H250 C257 0.950 . S
C251 C249 1.388 1_565 S
C251 C253 1.390 . S
C251 H255 0.950 . S
H252 C248 0.950 . S
C253 C251 1.390 . S
C253 C254 1.389 1_565 S
C253 H256 0.950 . S
C254 C253 1.389 1_545 S
C254 C257 1.386 . S
H255 C251 0.950 . S
H256 C253 0.950 . S
C257 C248 1.390 . S
C257 H250 0.950 . S
C257 C254 1.386 . S
C258 C259 1.387 . S
C258 H262 0.950 . S
C258 C267 1.390 . S
C259 C258 1.387 . S
C259 C261 1.387 . S
H260 C267 0.950 . S
C261 C259 1.387 . S
C261 C263 1.390 . S
C261 H265 0.950 . S
H262 C258 0.950 . S
C263 C261 1.390 . S
C263 C264 1.387 . S
C263 H266 0.950 . S
C264 C263 1.387 . S
C264 C267 1.387 . S
H265 C261 0.950 . S
H266 C263 0.950 . S
C267 C258 1.390 . S
C267 H260 0.950 . S
C267 C264 1.387 . S
C268 C269 1.387 . S
C268 H272 0.950 . S
C268 C277 1.390 . S
C269 C268 1.387 . S
C269 C271 1.387 . S
H270 C277 0.950 . S
C271 C269 1.387 . S
C271 C273 1.390 . S
C271 H275 0.950 . S
H272 C268 0.950 . S
C273 C271 1.390 . S
C273 C274 1.387 . S
C273 H276 0.950 . S
C274 C273 1.387 . S
C274 C277 1.387 . S
H275 C271 0.950 . S
H276 C273 0.950 . S
C277 C268 1.390 . S
C277 H270 0.950 . S
C277 C274 1.387 . S
C278 C279 1.376 1_655 S
C278 H282 0.950 . S
C278 C287 1.390 . S
C279 C278 1.376 1_455 S
C279 C281 1.400 . S
H280 C287 0.950 . S
C281 C279 1.400 . S
C281 C283 1.390 . S
C281 H285 0.950 . S
H282 C278 0.950 . S
C283 C281 1.390 . S
C283 C284 1.387 . S
C283 H286 0.950 . S
C284 C283 1.387 . S
C284 C287 1.387 1_455 S
H285 C281 0.950 . S
H286 C283 0.950 . S
C287 C278 1.390 . S
C287 H280 0.950 . S
C287 C284 1.387 1_655 S
C288 C289 1.388 . S
C288 H292 0.950 . S
C288 C297 1.390 . S
C289 C288 1.388 . S
C289 C291 1.387 1_545 S
H290 C297 0.950 . S
C291 C289 1.387 1_565 S
C291 C293 1.390 . S
C291 H295 0.950 . S
H292 C288 0.950 . S
C293 C291 1.390 . S
C293 C294 1.386 1_565 S
C293 H296 0.950 . S
C294 C293 1.386 1_545 S
C294 C297 1.389 . S
H295 C291 0.950 . S
H296 C293 0.950 . S
C297 C288 1.390 . S
C297 H290 0.950 . S
C297 C294 1.389 . S
C298 C299 1.387 . S
C298 H302 0.950 . S
C298 C307 1.390 . S
C299 C298 1.387 . S
C299 C301 1.387 . S
H300 C307 0.950 1_556 S
C301 C299 1.387 . S
C301 C303 1.390 . S
C301 H305 0.950 . S
H302 C298 0.950 . S
C303 C301 1.390 . S
C303 C304 1.387 . S
C303 H306 0.950 . S
C304 C303 1.387 . S
C304 C307 1.387 . S
H305 C301 0.950 . S
H306 C303 0.950 . S
C307 C298 1.390 . S
C307 H300 0.950 1_554 S
C307 C304 1.387 . S
C308 C309 1.387 . S
C308 H312 0.950 . S
C308 C317 1.390 . S
C309 C308 1.387 . S
C309 C311 1.387 . S
H310 C317 0.950 . S
C311 C309 1.387 . S
C311 C313 1.390 . S
C311 H315 0.950 . S
H312 C308 0.950 . S
C313 C311 1.390 . S
C313 C314 1.387 . S
C313 H316 0.950 1_554 S
C314 C313 1.387 . S
C314 C317 1.387 . S
H315 C311 0.950 . S
H316 C313 0.950 1_556 S
C317 C308 1.390 . S
C317 H310 0.950 . S
C317 C314 1.387 . S
C318 C319 1.375 1_455 S
C318 H322 0.950 . S
C318 C327 1.390 . S
C319 C318 1.375 1_655 S
C319 C321 1.401 . S
H320 C327 0.950 . S
C321 C319 1.401 . S
C321 C323 1.390 . S
C321 H325 0.950 . S
H322 C318 0.950 . S
C323 C321 1.390 . S
C323 C324 1.387 . S
C323 H326 0.950 . S
C324 C323 1.387 . S
C324 C327 1.387 1_655 S
H325 C321 0.950 . S
H326 C323 0.950 . S
C327 C318 1.390 . S
C327 H320 0.950 . S
C327 C324 1.387 1_455 S
C328 C329 1.387 . S
C328 H332 0.950 1_655 S
C328 C337 1.390 . S
C329 C328 1.387 . S
C329 C331 1.387 . S
H330 C337 0.950 . S
C331 C329 1.387 . S
C331 C333 1.390 . S
C331 H335 0.950 . S
H332 C328 0.950 1_455 S
C333 C331 1.390 . S
C333 C334 1.387 . S
C333 H336 0.950 . S
C334 C333 1.387 . S
C334 C337 1.387 . S
H335 C331 0.950 . S
H336 C333 0.950 . S
C337 C328 1.390 . S
C337 H330 0.950 . S
C337 C334 1.387 . S
C338 C339 1.387 . S
C338 H342 0.950 . S
C338 C347 1.390 . S
C339 C338 1.387 . S
C339 C341 1.387 1_565 S
H340 C347 0.950 . S
C341 C339 1.387 1_545 S
C341 C343 1.390 1_545 S
C341 H345 0.950 . S
H342 C338 0.950 . S
C343 C341 1.390 1_565 S
C343 C344 1.387 . S
C343 H346 0.950 1_565 S
C344 C343 1.387 . S
C344 C347 1.387 . S
H345 C341 0.950 . S
H346 C343 0.950 1_545 S
C347 C338 1.390 . S
C347 H340 0.950 . S
C347 C344 1.387 . S
C348 C349 1.387 . S
C348 H352 0.950 . S
C348 C357 1.390 . S
C349 C348 1.387 . S
C349 C351 1.387 . S
H350 C357 0.950 . S
C351 C349 1.387 . S
C351 C353 1.390 . S
C351 H355 0.950 . S
H352 C348 0.950 . S
C353 C351 1.390 . S
C353 C354 1.387 . S
C353 H356 0.950 . S
C354 C353 1.387 . S
C354 C357 1.387 . S
H355 C351 0.950 . S
H356 C353 0.950 . S
C357 C348 1.390 . S
C357 H350 0.950 . S
C357 C354 1.387 . S
C358 C359 1.387 . S
C358 H362 0.950 . S
C358 C367 1.390 . S
C359 C358 1.387 . S
C359 C361 1.387 . S
H360 C367 0.950 . S
C361 C359 1.387 . S
C361 C363 1.390 . S
C361 H365 0.950 . S
H362 C358 0.950 . S
C363 C361 1.390 . S
C363 C364 1.387 . S
C363 H366 0.950 . S
C364 C363 1.387 . S
C364 C367 1.387 . S
H365 C361 0.950 . S
H366 C363 0.950 . S
C367 C358 1.390 . S
C367 H360 0.950 . S
C367 C364 1.387 . S
C368 C369 1.387 . S
C368 H372 0.950 . S
C368 C377 1.390 . S
C369 C368 1.387 . S
C369 C371 1.387 . S
H370 C377 0.950 . S
C371 C369 1.387 . S
C371 C373 1.390 . S
C371 H375 0.950 1_455 S
H372 C368 0.950 . S
C373 C371 1.390 . S
C373 C374 1.387 . S
C373 H376 0.950 . S
C374 C373 1.387 . S
C374 C377 1.387 . S
H375 C371 0.950 1_655 S
H376 C373 0.950 . S
C377 C368 1.390 . S
C377 H370 0.950 . S
C377 C374 1.387 . S
C378 C379 1.387 1_565 S
C378 H382 0.950 . S
C378 C387 1.390 1_565 S
C379 C378 1.387 1_545 S
C379 C381 1.387 . S
H380 C387 0.950 . S
C381 C379 1.387 . S
C381 C383 1.390 . S
C381 H385 0.950 . S
H382 C378 0.950 . S
C383 C381 1.390 . S
C383 C384 1.387 . S
C383 H386 0.950 . S
C384 C383 1.387 . S
C384 C387 1.387 . S
H385 C381 0.950 . S
H386 C383 0.950 . S
C387 C378 1.390 1_545 S
C387 H380 0.950 . S
C387 C384 1.387 . S
C388 C389 1.387 . S
C388 H392 0.950 . S
C388 C397 1.390 . S
C389 C388 1.387 . S
C389 C391 1.387 . S
H390 C397 0.950 . S
C391 C389 1.387 . S
C391 C393 1.390 . S
C391 H395 0.950 . S
H392 C388 0.950 . S
C393 C391 1.390 . S
C393 C394 1.387 . S
C393 H396 0.950 . S
C394 C393 1.387 . S
C394 C397 1.387 . S
H395 C391 0.950 . S
H396 C393 0.950 . S
C397 C388 1.390 . S
C397 H390 0.950 . S
C397 C394 1.387 . S
C398 C399 1.387 . S
C398 H402 0.950 . S
C398 C407 1.390 . S
C399 C398 1.387 . S
C399 C401 1.387 . S
H400 C407 0.950 . S
C401 C399 1.387 . S
C401 C403 1.390 . S
C401 H405 0.950 . S
H402 C398 0.950 . S
C403 C401 1.390 . S
C403 C404 1.387 . S
C403 H406 0.950 . S
C404 C403 1.387 . S
C404 C407 1.387 . S
H405 C401 0.950 . S
H406 C403 0.950 . S
C407 C398 1.390 . S
C407 H400 0.950 . S
C407 C404 1.387 . S
C408 C409 1.387 . S
C408 H412 0.950 . S
C408 C417 1.390 . S
C409 C408 1.387 . S
C409 C411 1.387 1_455 S
H410 C417 0.950 . S
C411 C409 1.387 1_655 S
C411 C413 1.390 . S
C411 H415 0.950 . S
H412 C408 0.950 . S
C413 C411 1.390 . S
C413 C414 1.387 1_655 S
C413 H416 0.950 . S
C414 C413 1.387 1_455 S
C414 C417 1.387 . S
H415 C411 0.950 . S
H416 C413 0.950 . S
C417 C408 1.390 . S
C417 H410 0.950 . S
C417 C414 1.387 . S
C418 C419 1.387 . S
C418 H422 0.950 . S
C418 C427 1.390 . S
C419 C418 1.387 . S
C419 C421 1.387 1_545 S
H420 C427 0.950 . S
C421 C419 1.387 1_565 S
C421 C423 1.390 . S
C421 H425 0.950 . S
H422 C418 0.950 . S
C423 C421 1.390 . S
C423 C424 1.387 1_565 S
C423 H426 0.950 . S
C424 C423 1.387 1_545 S
C424 C427 1.387 . S
H425 C421 0.950 . S
H426 C423 0.950 . S
C427 C418 1.390 . S
C427 H420 0.950 . S
C427 C424 1.387 . S
C428 C429 1.387 . S
C428 H432 0.950 . S
C428 C437 1.390 . S
C429 C428 1.387 . S
C429 C431 1.387 . S
H430 C437 0.950 . S
C431 C429 1.387 . S
C431 C433 1.390 . S
C431 H435 0.950 . S
H432 C428 0.950 . S
C433 C431 1.390 . S
C433 C434 1.387 . S
C433 H436 0.950 . S
C434 C433 1.387 . S
C434 C437 1.387 . S
H435 C431 0.950 . S
H436 C433 0.950 . S
C437 C428 1.390 . S
C437 H430 0.950 . S
C437 C434 1.387 . S
C438 C439 1.387 . S
C438 H442 0.950 . S
C438 C447 1.390 . S
C439 C438 1.387 . S
C439 C441 1.387 . S
H440 C447 0.950 . S
C441 C439 1.387 . S
C441 C443 1.390 . S
C441 H445 0.950 . S
H442 C438 0.950 . S
C443 C441 1.390 . S
C443 C444 1.387 . S
C443 H446 0.950 . S
C444 C443 1.387 . S
C444 C447 1.387 . S
H445 C441 0.950 . S
H446 C443 0.950 . S
C447 C438 1.390 . S
C447 H440 0.950 . S
C447 C444 1.387 . S
C448 C449 1.387 . S
C448 H452 0.950 . S
C448 C457 1.390 . S
C449 C448 1.387 . S
C449 C451 1.387 1_655 S
H450 C457 0.950 . S
C451 C449 1.387 1_455 S
C451 C453 1.390 . S
C451 H455 0.950 . S
H452 C448 0.950 . S
C453 C451 1.390 . S
C453 C454 1.387 1_455 S
C453 H456 0.950 . S
C454 C453 1.387 1_655 S
C454 C457 1.387 . S
H455 C451 0.950 . S
H456 C453 0.950 . S
C457 C448 1.390 . S
C457 H450 0.950 . S
C457 C454 1.387 . S
C458 C459 1.387 . S
C458 H462 0.950 . S
C458 C467 1.390 . S
C459 C458 1.387 . S
C459 C461 1.387 1_565 S
H460 C467 0.950 . S
C461 C459 1.387 1_545 S
C461 C463 1.390 . S
C461 H465 0.950 . S
H462 C458 0.950 . S
C463 C461 1.390 . S
C463 C464 1.387 1_545 S
C463 H466 0.950 . S
C464 C463 1.387 1_565 S
C464 C467 1.387 . S
H465 C461 0.950 . S
H466 C463 0.950 . S
C467 C458 1.390 . S
C467 H460 0.950 . S
C467 C464 1.387 . S
C468 C469 1.387 . S
C468 H472 0.950 . S
C468 C477 1.390 . S
C469 C468 1.387 . S
C469 C471 1.387 . S
H470 C477 0.950 . S
C471 C469 1.387 . S
C471 C473 1.390 . S
C471 H475 0.950 . S
H472 C468 0.950 . S
C473 C471 1.390 . S
C473 C474 1.387 . S
C473 H476 0.950 . S
C474 C473 1.387 . S
C474 C477 1.387 . S
H475 C471 0.950 . S
H476 C473 0.950 . S
C477 C468 1.390 . S
C477 H470 0.950 . S
C477 C474 1.387 . S
C478 C479 1.387 . S
C478 H482 0.950 . S
C478 C487 1.390 . S
C479 C478 1.387 . S
C479 C481 1.387 . S
H480 C487 0.950 . S
C481 C479 1.387 . S
C481 C483 1.390 . S
C481 H485 0.950 . S
H482 C478 0.950 . S
C483 C481 1.390 . S
C483 C484 1.387 . S
C483 H486 0.950 . S
C484 C483 1.387 . S
C484 C487 1.387 . S
H485 C481 0.950 . S
H486 C483 0.950 . S
C487 C478 1.390 . S
C487 H480 0.950 . S
C487 C484 1.387 . S
C249 C74 1.951 . S
C254 C106 2.169 1_545 S
C264 C146 2.187 . S
C259 C85 1.960 . S
C274 C186 2.194 . S
C269 C52 1.971 . S
C284 C226 2.178 1_455 S
C279 C63 1.964 . S
C294 C96 2.171 1_554 S
C289 C30 1.953 . S
C299 C41 1.978 . S
C304 C136 2.188 1_554 S
C309 C8 1.987 . S
C314 C176 2.194 1_554 S
C319 C19 1.960 1_655 S
C324 C216 2.178 1_654 S
C334 C93 0.835 . S
C329 C62 0.855 1_655 S
C344 C133 0.833 . S
C339 C73 0.855 1_565 S
C354 C173 0.825 . S
C349 C84 0.843 . S
C359 C51 0.842 . S
C364 C213 0.818 . S
C369 C18 0.820 . S
C374 C103 0.838 . S
C384 C143 0.830 . S
C379 C29 0.811 . S
C394 C183 0.826 . S
C389 C40 0.816 . S
C399 C7 0.806 . S
C404 C223 0.821 . S
C409 C60 1.931 . S
C414 C97 2.552 . S
C419 C71 1.896 . S
C424 C137 2.522 . S
C434 C177 2.509 . S
C429 C82 1.852 . S
C444 C217 2.543 . S
C439 C49 1.883 . S
C449 C16 2.033 1_655 S
C454 C107 2.559 . S
C464 C147 2.521 . S
C459 C27 2.002 1_565 S
C474 C187 2.508 . S
C469 C38 2.031 . S
C479 C5 2.057 . S
C484 C227 2.546 . S
