# Generated by pormake.
# Topology llj, (12,3)-cn, num edge types: 1
# Building blocks:
#     Node 0, Type 0, BuildingBlock: QEWDON_clean_sbu_0, # of connection points: 12
#     Node 1, Type 0, BuildingBlock: QEWDON_clean_sbu_0, # of connection points: 12
#     Node 2, Type 1, BuildingBlock: OLANEW_clean_sbu_2, # of connection points: 3
#     Node 3, Type 1, BuildingBlock: OLANEW_clean_sbu_2, # of connection points: 3
#     Node 4, Type 1, BuildingBlock: OLANEW_clean_sbu_2, # of connection points: 3
#     Node 5, Type 1, BuildingBlock: OLANEW_clean_sbu_2, # of connection points: 3
#     Node 6, Type 1, BuildingBlock: OLANEW_clean_sbu_2, # of connection points: 3
#     Node 7, Type 1, BuildingBlock: OLANEW_clean_sbu_2, # of connection points: 3
#     Node 8, Type 1, BuildingBlock: OLANEW_clean_sbu_2, # of connection points: 3
#     Node 9, Type 1, BuildingBlock: OLANEW_clean_sbu_2, # of connection points: 3
#     Edge 10, Type (0, 1), BuildingBlock: ZUJKAS_clean_linker_0, # of connection points: 2
#     Edge 11, Type (0, 1), BuildingBlock: ZUJKAS_clean_linker_0, # of connection points: 2
#     Edge 12, Type (0, 1), BuildingBlock: ZUJKAS_clean_linker_0, # of connection points: 2
#     Edge 13, Type (0, 1), BuildingBlock: ZUJKAS_clean_linker_0, # of connection points: 2
#     Edge 14, Type (0, 1), BuildingBlock: ZUJKAS_clean_linker_0, # of connection points: 2
#     Edge 15, Type (0, 1), BuildingBlock: ZUJKAS_clean_linker_0, # of connection points: 2
#     Edge 16, Type (0, 1), BuildingBlock: ZUJKAS_clean_linker_0, # of connection points: 2
#     Edge 17, Type (0, 1), BuildingBlock: ZUJKAS_clean_linker_0, # of connection points: 2
#     Edge 18, Type (0, 1), BuildingBlock: ZUJKAS_clean_linker_0, # of connection points: 2
#     Edge 19, Type (0, 1), BuildingBlock: ZUJKAS_clean_linker_0, # of connection points: 2
#     Edge 20, Type (0, 1), BuildingBlock: ZUJKAS_clean_linker_0, # of connection points: 2
#     Edge 21, Type (0, 1), BuildingBlock: ZUJKAS_clean_linker_0, # of connection points: 2
#     Edge 22, Type (0, 1), BuildingBlock: ZUJKAS_clean_linker_0, # of connection points: 2
#     Edge 23, Type (0, 1), BuildingBlock: ZUJKAS_clean_linker_0, # of connection points: 2
#     Edge 24, Type (0, 1), BuildingBlock: ZUJKAS_clean_linker_0, # of connection points: 2
#     Edge 25, Type (0, 1), BuildingBlock: ZUJKAS_clean_linker_0, # of connection points: 2
#     Edge 26, Type (0, 1), BuildingBlock: ZUJKAS_clean_linker_0, # of connection points: 2
#     Edge 27, Type (0, 1), BuildingBlock: ZUJKAS_clean_linker_0, # of connection points: 2
#     Edge 28, Type (0, 1), BuildingBlock: ZUJKAS_clean_linker_0, # of connection points: 2
#     Edge 29, Type (0, 1), BuildingBlock: ZUJKAS_clean_linker_0, # of connection points: 2
#     Edge 30, Type (0, 1), BuildingBlock: ZUJKAS_clean_linker_0, # of connection points: 2
#     Edge 31, Type (0, 1), BuildingBlock: ZUJKAS_clean_linker_0, # of connection points: 2
#     Edge 32, Type (0, 1), BuildingBlock: ZUJKAS_clean_linker_0, # of connection points: 2
#     Edge 33, Type (0, 1), BuildingBlock: ZUJKAS_clean_linker_0, # of connection points: 2
# Relax obj value: 0.011
# Max RMSD: 0.108
# Mean RMSD: 0.087
data_MOF--net-llj--node1-QEWDON_clean_sbu_0--node2-OLANEW_clean_sbu_2--edge1-ZUJKAS_clean_linker_0
_symmetry_space_group_name_H-M    P1
_symmetry_Int_Tables_number       1
_symmetry_cell_setting            triclinic
loop_
_symmetry_equiv_pos_as_xyz
'x, y, z'
_cell_length_a     51.567843
_cell_length_b     51.607114
_cell_length_c     32.798025
_cell_angle_alpha  88.184162
_cell_angle_beta   91.96813
_cell_angle_gamma 89.976229
loop_
_atom_site_label
_atom_site_type_symbol
_atom_site_fract_x
_atom_site_fract_y
_atom_site_fract_z
_atom_type_partial_charge
Zn0 Zn 0.96219 0.06657 0.95325 0.0
Zn1 Zn 0.96443 0.05897 0.05003 0.0
O2 O 0.9866 0.05885 0.00172 0.0
H3 H 0.00177 0.04811 -0.00027 0.0
C4 C 0.94533 0.00288 0.88155 0.0
O5 O 0.95836 0.01722 0.90752 0.0
Zn6 Zn 0.05208 0.95722 0.04028 0.0
Zn7 Zn 0.05227 0.9543 0.9442 0.0
O8 O 0.02894 0.96204 0.99089 0.0
H9 H 0.01429 0.97371 0.98851 0.0
Zn10 Zn 0.95225 0.96295 0.94733 0.0
O11 O 0.96007 0.98787 0.99341 0.0
Zn12 Zn 0.95903 0.96463 0.04325 0.0
H13 H 0.9704 0.00341 0.9906 0.0
Zn14 Zn 0.07143 0.04753 0.95876 0.0
O15 O 0.04949 0.03087 0.00157 0.0
H16 H 0.03637 0.0179 0.99651 0.0
Zn17 Zn 0.05619 0.04936 0.05361 0.0
C18 C 0.07178 0.01018 0.89399 0.0
O19 O 0.0466 0.01164 0.8984 0.0
O20 O 0.92896 0.08546 0.96907 0.0
O21 O 0.93229 0.08138 0.03684 0.0
O22 O 0.08337 0.93071 0.96192 0.0
O23 O 0.08178 0.93301 0.02937 0.0
O24 O 0.92981 0.93179 0.96538 0.0
O25 O 0.93419 0.93476 0.03263 0.0
C26 C 0.00952 0.07023 0.10053 0.0
O27 O 0.09332 0.07765 0.98026 0.0
O28 O 0.08085 0.07993 0.04445 0.0
O29 O 0.0329 0.94584 0.89001 0.0
C30 C 0.92052 0.08998 0.00424 0.0
O31 O 0.97966 0.07886 0.90011 0.0
C32 C 0.00794 0.94457 0.088 0.0
O33 O 0.94116 0.97921 0.89091 0.0
C34 C 0.09195 0.92419 0.9977 0.0
O35 O 0.08681 0.02374 0.91617 0.0
C36 C 0.94826 0.00855 0.09299 0.0
O37 O 0.98497 0.07267 0.09828 0.0
O38 O 0.02056 0.06021 0.0707 0.0
C39 C 0.92442 0.92389 0.00128 0.0
O40 O 0.03248 0.94272 0.08773 0.0
O41 O 0.99596 0.95335 0.0559 0.0
C42 C 0.07252 0.00037 0.08881 0.0
O43 O 0.94698 0.98403 0.09138 0.0
O44 O 0.95579 0.02135 0.06178 0.0
C45 C 0.09443 0.08822 0.01488 0.0
O46 O 0.07258 0.02439 0.096 0.0
O47 O 0.0628 0.99302 0.05511 0.0
C48 C 0.00916 0.9394 0.89152 0.0
O49 O 0.998 0.93884 0.92693 0.0
C50 C 0.00285 0.07208 0.8939 0.0
O51 O 0.01511 0.05689 0.92105 0.0
Zn52 Zn 0.46088 0.57001 0.44975 0.0
Zn53 Zn 0.46731 0.56368 0.54674 0.0
O54 O 0.48708 0.56267 0.49583 0.0
H55 H 0.50322 0.55362 0.49268 0.0
C56 C 0.44361 0.50359 0.37703 0.0
O57 O 0.46128 0.51632 0.3981 0.0
Zn58 Zn 0.54682 0.45532 0.53608 0.0
Zn59 Zn 0.54195 0.4498 0.43975 0.0
O60 O 0.52213 0.46142 0.48846 0.0
H61 H 0.50873 0.47452 0.48685 0.0
Zn62 Zn 0.44655 0.46655 0.4481 0.0
O63 O 0.45709 0.49144 0.49268 0.0
Zn64 Zn 0.45526 0.46986 0.54428 0.0
H65 H 0.46754 0.5068 0.48859 0.0
Zn66 Zn 0.57128 0.55029 0.45398 0.0
O67 O 0.55074 0.53118 0.49634 0.0
H68 H 0.537 0.51897 0.49057 0.0
Zn69 Zn 0.55793 0.54817 0.54943 0.0
C70 C 0.59159 0.50509 0.41491 0.0
O71 O 0.58831 0.49484 0.45156 0.0
O72 O 0.428 0.58799 0.46939 0.0
O73 O 0.43396 0.58443 0.53695 0.0
O74 O 0.5709 0.42358 0.45564 0.0
O75 O 0.57433 0.42888 0.52262 0.0
O76 O 0.42434 0.43595 0.46877 0.0
O77 O 0.43023 0.43982 0.5357 0.0
C78 C 0.5139 0.57635 0.59136 0.0
O79 O 0.59477 0.57839 0.47834 0.0
O80 O 0.58377 0.57775 0.5435 0.0
O81 O 0.52054 0.44172 0.38731 0.0
C82 C 0.42072 0.59238 0.50532 0.0
O83 O 0.47646 0.58349 0.39569 0.0
C84 C 0.50385 0.44608 0.58832 0.0
O85 O 0.43507 0.48225 0.39151 0.0
C86 C 0.58141 0.41793 0.49048 0.0
O87 O 0.5856 0.52872 0.40773 0.0
C88 C 0.44605 0.51594 0.58934 0.0
O89 O 0.48965 0.58073 0.58975 0.0
O90 O 0.52298 0.56109 0.56571 0.0
C91 C 0.41979 0.42854 0.50524 0.0
O92 O 0.52798 0.44201 0.58524 0.0
O93 O 0.4917 0.45734 0.5583 0.0
C94 C 0.57118 0.49748 0.58355 0.0
O95 O 0.44184 0.49172 0.58892 0.0
O96 O 0.45943 0.52634 0.56146 0.0
C97 C 0.59705 0.58701 0.51428 0.0
O98 O 0.57303 0.52151 0.59011 0.0
O99 O 0.56036 0.49044 0.55035 0.0
C100 C 0.4965 0.43686 0.38991 0.0
O101 O 0.48584 0.43809 0.42558 0.0
C102 C 0.49858 0.57539 0.38572 0.0
O103 O 0.51071 0.55791 0.40931 0.0
O104 O 0.40444 0.23898 0.11129 0.0
Cd105 Cd 0.39263 0.20638 0.06213 0.0
O106 O 0.394 0.26638 0.06125 0.0
Cd107 Cd 0.3924 0.3039 0.02851 0.0
O108 O 0.39929 0.33122 0.97798 0.0
C109 C 0.41368 0.32255 0.95084 0.0
O110 O 0.42293 0.29888 0.95572 0.0
C111 C 0.40185 0.26226 0.09806 0.0
C112 C 0.33966 0.19704 0.06442 0.0
O113 O 0.35594 0.18196 0.0837 0.0
O114 O 0.34844 0.21636 0.04365 0.0
O115 O 0.67964 0.34482 0.94295 0.0
Cd116 Cd 0.69127 0.32997 0.0128 0.0
O117 O 0.71106 0.3735 0.93821 0.0
Cd118 Cd 0.72245 0.36735 0.00224 0.0
O119 O 0.71348 0.3745 0.06524 0.0
C120 C 0.6902 0.38171 0.06958 0.0
O121 O 0.67449 0.38331 0.03719 0.0
C122 C 0.69161 0.36198 0.92223 0.0
C123 C 0.72702 0.28942 0.01474 0.0
O124 O 0.70258 0.28504 0.0116 0.0
O125 O 0.73456 0.31301 0.01704 0.0
O126 O 0.61135 0.77375 0.11495 0.0
Cd127 Cd 0.62232 0.80938 0.06816 0.0
O128 O 0.61831 0.74777 0.06522 0.0
Cd129 Cd 0.61767 0.71265 0.02968 0.0
O130 O 0.61469 0.68639 0.97895 0.0
C131 C 0.62072 0.6954 0.94403 0.0
O132 O 0.62905 0.71941 0.94074 0.0
C133 C 0.61151 0.75089 0.10167 0.0
C134 C 0.67551 0.81735 0.06327 0.0
O135 O 0.66218 0.82919 0.08924 0.0
O136 O 0.66368 0.80145 0.03986 0.0
O137 O 0.2364 0.60561 0.10265 0.0
Cd138 Cd 0.19765 0.61755 0.0618 0.0
O139 O 0.25979 0.61204 0.04888 0.0
Cd140 Cd 0.29395 0.61023 0.01132 0.0
O141 O 0.32211 0.6057 0.9639 0.0
C142 C 0.31598 0.61379 0.92785 0.0
O143 O 0.29335 0.6251 0.92092 0.0
C144 C 0.25843 0.60549 0.08647 0.0
C145 C 0.19203 0.67105 0.05235 0.0
O146 O 0.18261 0.65864 0.0829 0.0
O147 O 0.20423 0.65812 0.02631 0.0
O148 O 0.90693 0.74469 0.62122 0.0
Cd149 Cd 0.89559 0.70966 0.57622 0.0
O150 O 0.90048 0.76903 0.56605 0.0
Cd151 Cd 0.89843 0.80497 0.52913 0.0
O152 O 0.90436 0.83245 0.47854 0.0
C153 C 0.92471 0.82875 0.45875 0.0
O154 O 0.94039 0.80971 0.47077 0.0
C155 C 0.9068 0.76702 0.60383 0.0
C156 C 0.84288 0.69912 0.57811 0.0
O157 O 0.85934 0.68502 0.5989 0.0
O158 O 0.85135 0.71813 0.55634 0.0
O159 O 0.16893 0.83514 0.44387 0.0
Cd160 Cd 0.17844 0.81886 0.51387 0.0
O161 O 0.20385 0.85933 0.43848 0.0
Cd162 Cd 0.21222 0.85505 0.50375 0.0
O163 O 0.20045 0.86617 0.56389 0.0
C164 C 0.17649 0.87158 0.56571 0.0
O165 O 0.1615 0.8692 0.53282 0.0
C166 C 0.18315 0.85006 0.42259 0.0
C167 C 0.21661 0.78047 0.51898 0.0
O168 O 0.19272 0.7747 0.51207 0.0
O169 O 0.22243 0.80437 0.52332 0.0
O170 O 0.11135 0.27097 0.62387 0.0
Cd171 Cd 0.12074 0.3073 0.57756 0.0
O172 O 0.1186 0.24551 0.57354 0.0
Cd173 Cd 0.11821 0.21024 0.53836 0.0
O174 O 0.11408 0.18404 0.48768 0.0
C175 C 0.10388 0.19389 0.45495 0.0
O176 O 0.09676 0.21836 0.45425 0.0
C177 C 0.11217 0.24822 0.61027 0.0
C178 C 0.17365 0.31688 0.573 0.0
O179 O 0.15994 0.32815 0.59909 0.0
O180 O 0.16232 0.30086 0.5492 0.0
O181 O 0.7377 0.10214 0.59497 0.0
Cd182 Cd 0.70501 0.11372 0.54214 0.0
O183 O 0.76521 0.1122 0.54786 0.0
Cd184 Cd 0.80245 0.11289 0.51809 0.0
O185 O 0.8315 0.10659 0.47275 0.0
C186 C 0.8301 0.08503 0.4552 0.0
O187 O 0.81236 0.06825 0.4665 0.0
C188 C 0.76103 0.10399 0.58402 0.0
C189 C 0.69237 0.16612 0.54095 0.0
O190 O 0.67828 0.14931 0.55937 0.0
O191 O 0.71255 0.15817 0.52331 0.0
H192 H 0.09992 0.11982 0.08058 0.0
H193 H 0.13551 0.15004 0.09478 0.0
H194 H 0.16925 0.13162 0.98058 0.0
H195 H 0.13348 0.10272 0.9654 0.0
H196 H 0.18324 0.13905 0.10827 0.0
H197 H 0.18088 0.20688 0.97612 0.0
H198 H 0.15399 0.1856 0.98653 0.0
H199 H 0.18072 0.17477 0.95713 0.0
C200 C 0.1146 0.12278 0.05806 0.0
C201 C 0.11383 0.10888 0.02183 0.0
C202 C 0.13494 0.14003 0.06623 0.0
C203 C 0.15489 0.14355 0.03843 0.0
C204 C 0.15371 0.13009 0.00189 0.0
H205 H 0.31567 0.15115 0.08085 0.0
H206 H 0.26919 0.14252 0.07986 0.0
C207 C 0.13327 0.11326 0.99342 0.0
C208 C 0.1786 0.1585 0.04925 0.0
H209 H 0.22446 0.19703 0.006 0.0
C210 C 0.19194 0.15227 0.08632 0.0
C211 C 0.18977 0.17642 0.02143 0.0
C212 C 0.17534 0.18649 0.98336 0.0
C213 C 0.21702 0.16165 0.09462 0.0
C214 C 0.22952 0.17673 0.06429 0.0
C215 C 0.21529 0.18485 0.02888 0.0
C216 C 0.25774 0.18246 0.06702 0.0
C217 C 0.2299 0.1549 0.13559 0.0
C218 C 0.26698 0.20759 0.05845 0.0
C219 C 0.29364 0.21237 0.0576 0.0
C220 C 0.31152 0.19217 0.06584 0.0
C221 C 0.30231 0.16714 0.0749 0.0
C222 C 0.2757 0.16226 0.07481 0.0
H223 H 0.21531 0.15336 0.1597 0.0
H224 H 0.23951 0.13572 0.1343 0.0
H225 H 0.24461 0.16956 0.14455 0.0
H226 H 0.25356 0.22347 0.05202 0.0
H227 H 0.30025 0.23189 0.05064 0.0
H228 H 0.90309 0.11308 0.07219 0.0
H229 H 0.86826 0.145 0.07523 0.0
H230 H 0.85115 0.13725 0.94652 0.0
H231 H 0.8864 0.10591 0.94291 0.0
H232 H 0.85597 0.18689 0.96556 0.0
H233 H 0.79049 0.13799 0.07406 0.0
H234 H 0.8231 0.14083 0.09424 0.0
H235 H 0.81655 0.12118 0.05072 0.0
C236 C 0.89167 0.11787 0.04462 0.0
C237 C 0.8976 0.10701 0.00725 0.0
C238 C 0.87165 0.13603 0.04649 0.0
C239 C 0.85689 0.14331 0.0112 0.0
C240 C 0.86227 0.1319 0.97414 0.0
H241 H 0.71748 0.23826 0.00123 0.0
H242 H 0.74905 0.20293 0.00019 0.0
C243 C 0.88243 0.11396 0.97215 0.0
C244 C 0.83713 0.16416 0.01213 0.0
H245 H 0.78242 0.18292 0.05908 0.0
C246 C 0.8398 0.18594 0.98584 0.0
C247 C 0.8159 0.16281 0.03833 0.0
C248 C 0.81114 0.13933 0.06564 0.0
C249 C 0.82201 0.20652 0.98531 0.0
C250 C 0.80136 0.20562 0.01261 0.0
C251 C 0.79845 0.1837 0.03852 0.0
C252 C 0.7823 0.22705 0.01419 0.0
C253 C 0.82528 0.22877 0.95492 0.0
C254 C 0.79047 0.25226 0.02304 0.0
C255 C 0.77251 0.27254 0.02329 0.0
C256 C 0.74599 0.26789 0.01527 0.0
C257 C 0.73778 0.24249 0.00744 0.0
C258 C 0.75578 0.22227 0.00689 0.0
H259 H 0.83718 0.2231 0.92902 0.0
H260 H 0.8062 0.23595 0.94254 0.0
H261 H 0.83536 0.24495 0.97031 0.0
H262 H 0.81075 0.25626 0.02976 0.0
H263 H 0.77942 0.29183 0.02984 0.0
H264 H 0.89482 0.90056 0.942 0.0
H265 H 0.85535 0.8752 0.95166 0.0
H266 H 0.86749 0.87756 0.08215 0.0
H267 H 0.90706 0.90285 0.07304 0.0
H268 H 0.84645 0.82773 0.04805 0.0
H269 H 0.79334 0.91791 0.99815 0.0
H270 H 0.81758 0.90665 0.96473 0.0
H271 H 0.82718 0.91803 0.01413 0.0
C272 C 0.88949 0.8952 0.97278 0.0
C273 C 0.90388 0.90414 0.00676 0.0
C274 C 0.86691 0.88072 0.9782 0.0
C275 C 0.85841 0.8749 0.01758 0.0
C276 C 0.87377 0.88196 0.05152 0.0
H277 H 0.70485 0.8526 0.10452 0.0
H278 H 0.75021 0.86397 0.09423 0.0
C279 C 0.89633 0.89649 0.04618 0.0
C280 C 0.83212 0.86437 0.0235 0.0
H281 H 0.76818 0.88142 0.01507 0.0
C282 C 0.82928 0.83932 0.04064 0.0
C283 C 0.80989 0.87979 0.01425 0.0
C284 C 0.81197 0.90717 0.99706 0.0
C285 C 0.80458 0.82923 0.04866 0.0
C286 C 0.7824 0.84467 0.03927 0.0
C287 C 0.7853 0.86967 0.0221 0.0
C288 C 0.75587 0.83573 0.048 0.0
C289 C 0.80233 0.80246 0.06798 0.0
C290 C 0.74416 0.81597 0.02552 0.0
C291 C 0.71816 0.80949 0.03116 0.0
C292 C 0.7035 0.82272 0.05936 0.0
C293 C 0.71558 0.84204 0.08256 0.0
C294 C 0.74148 0.84856 0.07677 0.0
H295 H 0.82142 0.79475 0.07949 0.0
H296 H 0.78885 0.80264 0.09366 0.0
H297 H 0.79424 0.78906 0.045 0.0
H298 H 0.75489 0.80613 0.00276 0.0
H299 H 0.70942 0.79453 0.01281 0.0
H300 H 0.1092 0.89983 0.06877 0.0
H301 H 0.1349 0.86028 0.0758 0.0
H302 H 0.14549 0.86185 0.94582 0.0
H303 H 0.11911 0.90116 0.93826 0.0
H304 H 0.12551 0.81701 0.97175 0.0
H305 H 0.20985 0.83973 0.07294 0.0
H306 H 0.17988 0.84895 0.09457 0.0
H307 H 0.18992 0.86468 0.04791 0.0
C308 C 0.11751 0.89218 0.04171 0.0
C309 C 0.11183 0.90352 0.00285 0.0
C310 C 0.13242 0.8696 0.04588 0.0
C311 C 0.14232 0.85817 0.01139 0.0
C312 C 0.13806 0.87037 0.97286 0.0
H313 H 0.20601 0.70214 0.98767 0.0
H314 H 0.19692 0.74847 0.97649 0.0
C315 C 0.12298 0.89286 0.96859 0.0
C316 C 0.15383 0.83183 0.01487 0.0
H317 H 0.19858 0.79439 0.0687 0.0
C318 C 0.14182 0.81219 0.99235 0.0
C319 C 0.175 0.8255 0.04198 0.0
C320 C 0.18956 0.84591 0.0654 0.0
C321 C 0.14973 0.78628 0.99736 0.0
C322 C 0.17028 0.77987 0.02543 0.0
C323 C 0.18276 0.79948 0.04728 0.0
C324 C 0.17801 0.75263 0.03375 0.0
C325 C 0.13544 0.76571 0.97383 0.0
C326 C 0.17075 0.73991 0.06996 0.0
C327 C 0.17575 0.71346 0.07638 0.0
C328 C 0.18824 0.69936 0.04672 0.0
C329 C 0.19627 0.71243 0.01104 0.0
C330 C 0.19114 0.73886 0.00459 0.0
H331 H 0.11796 0.77352 0.95692 0.0
H332 H 0.14857 0.75739 0.95151 0.0
H333 H 0.12943 0.7497 0.99486 0.0
H334 H 0.16054 0.75029 0.09273 0.0
H335 H 0.16942 0.704 0.10425 0.0
H336 H 0.63896 0.59812 0.46909 0.0
H337 H 0.67575 0.62526 0.4871 0.0
H338 H 0.63808 0.64784 0.59606 0.0
H339 H 0.60154 0.61923 0.57927 0.0
H340 H 0.68354 0.67394 0.49767 0.0
H341 H 0.70442 0.62133 0.64586 0.0
H342 H 0.68011 0.61041 0.60965 0.0
H343 H 0.67343 0.63714 0.64165 0.0
C344 C 0.63832 0.60899 0.49677 0.0
C345 C 0.61748 0.6063 0.52301 0.0
C346 C 0.65941 0.62458 0.50703 0.0
C347 C 0.66001 0.6382 0.54341 0.0
C348 C 0.63846 0.63688 0.5685 0.0
H349 H 0.80236 0.73271 0.5651 0.0
H350 H 0.75602 0.72225 0.56267 0.0
C351 C 0.6175 0.62072 0.5587 0.0
C352 C 0.68391 0.65258 0.55512 0.0
H353 H 0.73383 0.65348 0.62617 0.0
C354 C 0.69448 0.66965 0.52593 0.0
C355 C 0.69817 0.64689 0.59202 0.0
C356 C 0.68862 0.6278 0.62398 0.0
C357 C 0.71956 0.67975 0.53118 0.0
C358 C 0.73401 0.67371 0.56777 0.0
C359 C 0.72274 0.65805 0.59815 0.0
C360 C 0.76173 0.68096 0.57335 0.0
C361 C 0.73085 0.69524 0.4962 0.0
C362 C 0.7803 0.66151 0.58256 0.0
C363 C 0.80664 0.66759 0.58535 0.0
C364 C 0.81496 0.69315 0.57821 0.0
C365 C 0.79642 0.71276 0.57007 0.0
C366 C 0.76997 0.70677 0.56839 0.0
H367 H 0.71982 0.69235 0.46699 0.0
H368 H 0.73002 0.71618 0.50273 0.0
H369 H 0.7514 0.68984 0.49195 0.0
H370 H 0.77446 0.64145 0.58659 0.0
H371 H 0.82055 0.65212 0.5917 0.0
H372 H 0.38511 0.60847 0.44622 0.0
H373 H 0.3494 0.63893 0.45279 0.0
H374 H 0.36802 0.64417 0.58145 0.0
H375 H 0.40356 0.61322 0.57545 0.0
H376 H 0.31508 0.64226 0.56429 0.0
H377 H 0.36214 0.71621 0.4654 0.0
H378 H 0.35751 0.68575 0.44129 0.0
H379 H 0.37898 0.68768 0.48551 0.0
C380 C 0.38154 0.61591 0.47602 0.0
C381 C 0.39744 0.60865 0.51021 0.0
C382 C 0.36119 0.63343 0.47966 0.0
C383 C 0.35651 0.64429 0.51738 0.0
C384 C 0.37149 0.63618 0.55198 0.0
H385 H 0.26797 0.78621 0.53991 0.0
H386 H 0.30169 0.75283 0.54317 0.0
C387 C 0.39179 0.61849 0.54845 0.0
C388 C 0.33648 0.66466 0.52035 0.0
H389 H 0.31843 0.72444 0.48193 0.0
C390 C 0.31583 0.6603 0.54646 0.0
C391 C 0.33782 0.68838 0.49768 0.0
C392 C 0.36043 0.69496 0.47121 0.0
C393 C 0.29604 0.67877 0.54963 0.0
C394 C 0.29675 0.70194 0.52542 0.0
C395 C 0.31777 0.70655 0.50013 0.0
C396 C 0.27591 0.72173 0.52558 0.0
C397 C 0.27481 0.67346 0.57928 0.0
C398 C 0.25023 0.71536 0.5144 0.0
C399 C 0.23088 0.73437 0.51271 0.0
C400 C 0.23693 0.76018 0.52167 0.0
C401 C 0.26267 0.76651 0.5328 0.0
C402 C 0.28196 0.74746 0.53471 0.0
H403 H 0.28106 0.65908 0.60359 0.0
H404 H 0.26872 0.6915 0.59385 0.0
H405 H 0.25772 0.66537 0.56263 0.0
H406 H 0.24523 0.69577 0.50622 0.0
H407 H 0.21126 0.7289 0.50379 0.0
H408 H 0.38959 0.40384 0.44822 0.0
H409 H 0.3508 0.37796 0.46056 0.0
H410 H 0.3649 0.38271 0.59038 0.0
H411 H 0.40379 0.4086 0.57859 0.0
H412 H 0.3443 0.33119 0.55655 0.0
H413 H 0.28902 0.42084 0.51067 0.0
H414 H 0.31322 0.41039 0.47649 0.0
H415 H 0.32298 0.42148 0.52598 0.0
C416 C 0.38484 0.39892 0.47945 0.0
C417 C 0.39957 0.40869 0.51244 0.0
C418 C 0.36266 0.38412 0.48637 0.0
C419 C 0.35494 0.37876 0.52632 0.0
C420 C 0.37062 0.38673 0.55933 0.0
H421 H 0.20202 0.35237 0.61535 0.0
H422 H 0.24715 0.36489 0.6057 0.0
C423 C 0.39278 0.40159 0.55249 0.0
C424 C 0.329 0.36782 0.53359 0.0
H425 H 0.26475 0.38375 0.5277 0.0
C426 C 0.32685 0.34255 0.55014 0.0
C427 C 0.30642 0.38294 0.52561 0.0
C428 C 0.30783 0.4105 0.50896 0.0
C429 C 0.30246 0.33189 0.55864 0.0
C430 C 0.2799 0.34698 0.55031 0.0
C431 C 0.28214 0.37226 0.53394 0.0
C432 C 0.25362 0.33727 0.55886 0.0
C433 C 0.30094 0.30484 0.57716 0.0
C434 C 0.24244 0.31748 0.53581 0.0
C435 C 0.21659 0.31035 0.54108 0.0
C436 C 0.20152 0.32296 0.56945 0.0
C437 C 0.21306 0.34229 0.59323 0.0
C438 C 0.23884 0.34946 0.58782 0.0
H439 H 0.32022 0.29759 0.58855 0.0
H440 H 0.28739 0.30426 0.60277 0.0
H441 H 0.29334 0.29151 0.5537 0.0
H442 H 0.25346 0.30814 0.51287 0.0
H443 H 0.20826 0.29538 0.5223 0.0
H444 H 0.58688 0.37855 0.43819 0.0
H445 H 0.61192 0.33884 0.45006 0.0
H446 H 0.64382 0.36842 0.56271 0.0
H447 H 0.61761 0.40778 0.55198 0.0
H448 H 0.66039 0.32561 0.45866 0.0
H449 H 0.61285 0.30282 0.60486 0.0
H450 H 0.60256 0.32947 0.5714 0.0
H451 H 0.63072 0.3326 0.60488 0.0
C452 C 0.59943 0.37676 0.4653 0.0
C453 C 0.59996 0.3961 0.49452 0.0
C454 C 0.61376 0.35401 0.47208 0.0
C455 C 0.62921 0.35028 0.50787 0.0
C456 C 0.63132 0.37043 0.53561 0.0
H457 H 0.7238 0.20778 0.52658 0.0
H458 H 0.71132 0.25358 0.52178 0.0
C459 C 0.61651 0.39301 0.52928 0.0
C460 C 0.64191 0.32477 0.51657 0.0
H461 H 0.64444 0.2734 0.5848 0.0
C462 C 0.657 0.31421 0.48632 0.0
C463 C 0.6372 0.30977 0.55249 0.0
C464 C 0.61976 0.31909 0.58509 0.0
C465 C 0.66679 0.28885 0.49031 0.0
C466 C 0.66232 0.27398 0.52643 0.0
C467 C 0.64797 0.28485 0.55724 0.0
C468 C 0.67059 0.24647 0.53171 0.0
C469 C 0.68061 0.27789 0.45483 0.0
C470 C 0.65215 0.22732 0.54091 0.0
C471 C 0.65938 0.20127 0.54485 0.0
C472 C 0.68514 0.19381 0.53909 0.0
C473 C 0.70372 0.21298 0.53062 0.0
C474 C 0.69658 0.23913 0.52756 0.0
H475 H 0.67601 0.28898 0.42589 0.0
H476 H 0.70187 0.27902 0.46084 0.0
H477 H 0.67532 0.25729 0.45048 0.0
H478 H 0.63199 0.23248 0.54438 0.0
H479 H 0.64464 0.18692 0.55137 0.0
H480 H 0.06248 0.07234 0.1151 0.0
H481 H 0.08556 0.0869 0.17653 0.0
H482 H 0.01238 0.10231 0.23091 0.0
H483 H 0.9893 0.08718 0.17035 0.0
H484 H 0.08473 0.13418 0.20866 0.0
H485 H 0.04991 0.0626 0.3227 0.0
H486 H 0.04612 0.058 0.26848 0.0
H487 H 0.02318 0.07741 0.2944 0.0
C488 C 0.05131 0.07843 0.14024 0.0
C489 C 0.02405 0.07845 0.13766 0.0
C490 C 0.06453 0.0868 0.1754 0.0
C491 C 0.05069 0.09518 0.20866 0.0
C492 C 0.02349 0.09523 0.20613 0.0
H493 H 0.07937 0.20871 0.38307 0.0
H494 H 0.07101 0.18273 0.32332 0.0
C495 C 0.01032 0.08683 0.17117 0.0
C496 C 0.06436 0.10578 0.24494 0.0
H497 H 0.06466 0.10367 0.34903 0.0
C498 C 0.08075 0.1272 0.23936 0.0
C499 C 0.05966 0.09634 0.28498 0.0
C500 C 0.04398 0.07213 0.29298 0.0
C501 C 0.09107 0.14055 0.27278 0.0
C502 C 0.08431 0.13259 0.31271 0.0
C503 C 0.06946 0.11006 0.31838 0.0
C504 C 0.09064 0.14845 0.34858 0.0
C505 C 0.10875 0.16332 0.26489 0.0
C506 C 0.10382 0.1376 0.3832 0.0
C507 C 0.10835 0.15236 0.41779 0.0
C508 C 0.09966 0.17819 0.41834 0.0
C509 C 0.08649 0.18895 0.38359 0.0
C510 C 0.08189 0.17418 0.3492 0.0
H511 H 0.11912 0.16122 0.23603 0.0
H512 H 0.09696 0.18132 0.26175 0.0
H513 H 0.1233 0.16552 0.29028 0.0
H514 H 0.1105 0.11769 0.38349 0.0
H515 H 0.11852 0.1435 0.44411 0.0
H516 H 0.94758 0.98598 0.16891 0.0
H517 H 0.93238 0.00471 0.23123 0.0
H518 H 0.91925 0.07791 0.16681 0.0
H519 H 0.93358 0.05899 0.10404 0.0
H520 H 0.94795 0.04899 0.2764 0.0
H521 H 0.84748 0.05697 0.20916 0.0
H522 H 0.87239 0.0383 0.18625 0.0
H523 H 0.87245 0.07304 0.18102 0.0
C524 C 0.94161 0.00614 0.16797 0.0
C525 C 0.94169 0.02105 0.1313 0.0
C526 C 0.93314 0.01683 0.20371 0.0
C527 C 0.9245 0.04258 0.20347 0.0
C528 C 0.92563 0.05789 0.16748 0.0
H529 H 0.86824 0.11565 0.4228 0.0
H530 H 0.89333 0.10741 0.36233 0.0
C531 C 0.93405 0.04714 0.13163 0.0
C532 C 0.91244 0.05249 0.24016 0.0
H533 H 0.85387 0.06909 0.27715 0.0
C534 C 0.92746 0.05372 0.27657 0.0
C535 C 0.88564 0.05833 0.24018 0.0
C536 C 0.86841 0.05646 0.20222 0.0
C537 C 0.91621 0.06019 0.3133 0.0
C538 C 0.88935 0.0656 0.31335 0.0
C539 C 0.87449 0.06497 0.27679 0.0
C540 C 0.87576 0.07011 0.35142 0.0
C541 C 0.93278 0.06018 0.35209 0.0
C542 C 0.85768 0.05183 0.36515 0.0
C543 C 0.84337 0.05643 0.39951 0.0
C544 C 0.84673 0.07953 0.42063 0.0
C545 C 0.86523 0.09765 0.40721 0.0
C546 C 0.87963 0.09297 0.3728 0.0
H547 H 0.95249 0.05223 0.34779 0.0
H548 H 0.93481 0.08034 0.36257 0.0
H549 H 0.92338 0.04859 0.37657 0.0
H550 H 0.85443 0.03409 0.34892 0.0
H551 H 0.82931 0.04206 0.40899 0.0
H552 H 0.95772 0.92878 0.09682 0.0
H553 H 0.93666 0.91569 0.15978 0.0
H554 H 0.00772 0.9306 0.22823 0.0
H555 H 0.02841 0.94456 0.16545 0.0
H556 H 0.95178 0.87483 0.20802 0.0
H557 H 0.95402 0.96337 0.29833 0.0
H558 H 0.95995 0.96394 0.24436 0.0
H559 H 0.98565 0.95567 0.281 0.0
C560 C 0.9685 0.93009 0.12529 0.0
C561 C 0.99449 0.93807 0.12607 0.0
C562 C 0.95656 0.92242 0.16131 0.0
C563 C 0.97048 0.92261 0.19882 0.0
C564 C 0.99638 0.93093 0.1998 0.0
H565 H 0.96522 0.8236 0.40846 0.0
H566 H 0.97312 0.84788 0.3451 0.0
C567 C 0.00826 0.93862 0.1638 0.0
C568 C 0.95904 0.9114 0.23621 0.0
H569 H 0.95022 0.92259 0.33686 0.0
C570 C 0.95101 0.88543 0.23599 0.0
C571 C 0.95773 0.92532 0.27257 0.0
C572 C 0.96454 0.95371 0.274 0.0
C573 C 0.94312 0.87257 0.27171 0.0
C574 C 0.94367 0.88593 0.30868 0.0
C575 C 0.95021 0.91232 0.30852 0.0
C576 C 0.93914 0.87224 0.34806 0.0
C577 C 0.93476 0.8446 0.26977 0.0
C578 C 0.9178 0.87848 0.37127 0.0
C579 C 0.91321 0.86462 0.40768 0.0
C580 C 0.93004 0.84447 0.42149 0.0
C581 C 0.95179 0.83887 0.39862 0.0
C582 C 0.9563 0.85265 0.3623 0.0
H583 H 0.92851 0.8395 0.23827 0.0
H584 H 0.95135 0.83189 0.27949 0.0
H585 H 0.91857 0.84047 0.29048 0.0
H586 H 0.90446 0.89369 0.36081 0.0
H587 H 0.89634 0.86947 0.4247 0.0
H588 H 0.107 0.96182 0.07866 0.0
H589 H 0.12565 0.93177 0.13101 0.0
H590 H 0.07955 0.9672 0.22158 0.0
H591 H 0.0613 0.99756 0.16911 0.0
H592 H 0.12866 0.96325 0.2465 0.0
H593 H 0.09729 0.86837 0.18763 0.0
H594 H 0.11496 0.88741 0.15131 0.0
H595 H 0.08404 0.8987 0.16748 0.0
C596 C 0.10033 0.96256 0.10952 0.0
C597 C 0.08237 0.98144 0.1199 0.0
C598 C 0.111 0.94547 0.13942 0.0
C599 C 0.1036 0.94684 0.1801 0.0
C600 C 0.08543 0.96567 0.19034 0.0
H601 H 0.13554 0.84246 0.38574 0.0
H602 H 0.11782 0.86431 0.3238 0.0
C603 C 0.07503 0.98298 0.1605 0.0
C604 C 0.11629 0.93014 0.21257 0.0
H605 H 0.12915 0.86726 0.24226 0.0
C606 C 0.12866 0.94226 0.24562 0.0
C607 C 0.11621 0.90274 0.21144 0.0
C608 C 0.10219 0.88852 0.17776 0.0
C609 C 0.14089 0.92781 0.27766 0.0
C610 C 0.14145 0.90044 0.27605 0.0
C611 C 0.12903 0.88825 0.24307 0.0
C612 C 0.15347 0.88426 0.30973 0.0
C613 C 0.15242 0.94204 0.3135 0.0
C614 C 0.17973 0.8873 0.32131 0.0
C615 C 0.18987 0.87504 0.35698 0.0
C616 C 0.174 0.85922 0.38134 0.0
C617 C 0.14827 0.85461 0.36783 0.0
C618 C 0.13809 0.86708 0.33239 0.0
H619 H 0.14465 0.96207 0.31476 0.0
H620 H 0.14847 0.9316 0.34276 0.0
H621 H 0.17375 0.9434 0.31061 0.0
H622 H 0.1921 0.89997 0.30364 0.0
H623 H 0.20986 0.87875 0.36626 0.0
H624 H 0.04566 0.98761 0.83065 0.0
H625 H 0.0638 0.96103 0.77803 0.0
H626 H 0.14012 0.96871 0.83421 0.0
H627 H 0.1222 0.99523 0.88702 0.0
H628 H 0.10326 0.97742 0.72447 0.0
H629 H 0.13258 0.88975 0.81771 0.0
H630 H 0.10952 0.91311 0.8347 0.0
H631 H 0.14363 0.92012 0.83725 0.0
C632 C 0.06626 0.98341 0.83207 0.0
C633 C 0.08251 0.99344 0.863 0.0
C634 C 0.07656 0.96824 0.80202 0.0
C635 C 0.10319 0.96262 0.8027 0.0
C636 C 0.11944 0.97245 0.83366 0.0
H637 H 0.20295 0.88583 0.63544 0.0
H638 H 0.18515 0.9072 0.69407 0.0
C639 C 0.10919 0.98775 0.86358 0.0
C640 C 0.11418 0.94783 0.76951 0.0
H641 H 0.14608 0.89196 0.7492 0.0
C642 C 0.11251 0.95868 0.72978 0.0
C643 C 0.12639 0.92351 0.77679 0.0
C644 C 0.12802 0.91076 0.81884 0.0
C645 C 0.12301 0.94597 0.69702 0.0
C646 C 0.135 0.92151 0.70412 0.0
C647 C 0.13682 0.9107 0.74393 0.0
C648 C 0.14549 0.90685 0.67033 0.0
C649 C 0.12163 0.95911 0.6552 0.0
C650 C 0.12895 0.89895 0.63828 0.0
C651 C 0.13901 0.8869 0.60479 0.0
C652 C 0.16581 0.88229 0.60291 0.0
C653 C 0.18223 0.8892 0.63593 0.0
C654 C 0.17211 0.90138 0.66943 0.0
H655 H 0.11818 0.9803 0.65692 0.0
H656 H 0.13981 0.95603 0.63879 0.0
H657 H 0.10533 0.95076 0.637 0.0
H658 H 0.10826 0.90251 0.63887 0.0
H659 H 0.1258 0.88157 0.58007 0.0
H660 H 0.98244 0.10156 0.83004 0.0
H661 H 0.006 0.12408 0.77627 0.0
H662 H 0.07781 0.09036 0.82387 0.0
H663 H 0.05443 0.06802 0.87829 0.0
H664 H 0.07979 0.14331 0.81504 0.0
H665 H 0.04005 0.10158 0.67275 0.0
H666 H 0.01499 0.11163 0.70546 0.0
H667 H 0.0367 0.08583 0.72228 0.0
C668 C 0.00319 0.0986 0.82874 0.0
C669 C 0.0166 0.08314 0.85858 0.0
C670 C 0.0166 0.11129 0.79772 0.0
C671 C 0.0436 0.10863 0.79577 0.0
C672 C 0.05694 0.0925 0.82468 0.0
H673 H 0.12705 0.19707 0.60683 0.0
H674 H 0.11302 0.16066 0.65052 0.0
C675 C 0.04353 0.07975 0.85572 0.0
C676 C 0.05805 0.12507 0.76655 0.0
H677 H 0.05964 0.144 0.66598 0.0
C678 C 0.07576 0.14313 0.78237 0.0
C679 C 0.053 0.12463 0.72392 0.0
C680 C 0.03534 0.10468 0.70504 0.0
C681 C 0.08733 0.16178 0.75692 0.0
C682 C 0.08078 0.16255 0.71471 0.0
C683 C 0.06435 0.14352 0.69848 0.0
C684 C 0.08913 0.18421 0.6877 0.0
C685 C 0.10597 0.18098 0.77554 0.0
C686 C 0.08006 0.20933 0.69392 0.0
C687 C 0.08764 0.23 0.66865 0.0
C688 C 0.1043 0.22593 0.63644 0.0
C689 C 0.11346 0.20072 0.63034 0.0
C690 C 0.10574 0.17995 0.6556 0.0
H691 H 0.11436 0.17359 0.80533 0.0
H692 H 0.12202 0.18553 0.75477 0.0
H693 H 0.09545 0.19926 0.78088 0.0
H694 H 0.06695 0.21292 0.71825 0.0
H695 H 0.08022 0.24917 0.67416 0.0
H696 H 0.94229 0.05438 0.85941 0.0
H697 H 0.91553 0.07431 0.80396 0.0
H698 H 0.8917 0.99857 0.76548 0.0
H699 H 0.91871 0.97842 0.82041 0.0
H700 H 0.90164 0.03551 0.69992 0.0
H701 H 0.83554 0.07302 0.81513 0.0
H702 H 0.86911 0.08191 0.82134 0.0
H703 H 0.85977 0.04855 0.82767 0.0
C704 C 0.93178 0.04193 0.83872 0.0
C705 C 0.93236 0.01483 0.84467 0.0
C706 C 0.91639 0.05337 0.80719 0.0
C707 C 0.90131 0.03789 0.7812 0.0
C708 C 0.9031 0.01083 0.78543 0.0
H709 H 0.75904 0.0674 0.64525 0.0
H710 H 0.79443 0.05244 0.69175 0.0
C711 C 0.91848 -0.00063 0.81693 0.0
C712 C 0.88213 0.04975 0.75168 0.0
H713 H 0.82474 0.08287 0.74607 0.0
C714 C 0.88492 0.04605 0.70987 0.0
C715 C 0.86019 0.06317 0.76499 0.0
C716 C 0.85573 0.0668 0.80971 0.0
C717 C 0.86619 0.05535 0.6809 0.0
C718 C 0.84431 0.0688 0.69425 0.0
C719 C 0.84165 0.07266 0.73603 0.0
C720 C 0.82321 0.07791 0.66563 0.0
C721 C 0.8695 0.05004 0.63641 0.0
C722 C 0.82763 0.09747 0.63604 0.0
C723 C 0.80741 0.10613 0.60953 0.0
C724 C 0.78251 0.09526 0.61212 0.0
C725 C 0.77807 0.07603 0.64235 0.0
C726 C 0.79825 0.06742 0.66885 0.0
H727 H 0.88475 0.03526 0.63205 0.0
H728 H 0.85097 0.04329 0.62214 0.0
H729 H 0.87518 0.06823 0.62011 0.0
H730 H 0.84661 0.10629 0.63384 0.0
H731 H 0.81116 0.12175 0.58778 0.0
H732 H 0.02577 0.93933 0.81329 0.0
H733 H 0.005 0.91837 0.75498 0.0
H734 H 0.94089 0.89575 0.82938 0.0
H735 H 0.96105 0.91744 0.88724 0.0
H736 H 0.99718 0.86806 0.7534 0.0
H737 H 0.90245 0.91664 0.72558 0.0
H738 H 0.92808 0.93051 0.75678 0.0
H739 H 0.90683 0.90629 0.77804 0.0
C740 C 0.00696 0.93044 0.81693 0.0
C741 C 0.99517 0.92985 0.85494 0.0
C742 C 0.9951 0.91848 0.78358 0.0
C743 C 0.97127 0.90568 0.78765 0.0
C744 C 0.95895 0.90603 0.82513 0.0
H745 H 0.89759 0.77536 0.68332 0.0
H746 H 0.91232 0.812 0.7239 0.0
C747 C 0.97066 0.91822 0.85838 0.0
C748 C 0.96108 0.88906 0.75476 0.0
H749 H 0.90592 0.87302 0.70065 0.0
C750 C 0.97738 0.86952 0.74124 0.0
C751 C 0.93522 0.89092 0.73898 0.0
C752 C 0.91725 0.91241 0.75032 0.0
C753 C 0.96821 0.85111 0.71383 0.0
C754 C 0.94209 0.85227 0.69962 0.0
C755 C 0.92593 0.87221 0.71194 0.0
C756 C 0.93106 0.83184 0.67389 0.0
C757 C 0.98614 0.82985 0.7014 0.0
C758 C 0.93666 0.83116 0.63243 0.0
C759 C 0.92828 0.81031 0.60923 0.0
C760 C 0.9142 0.78992 0.62727 0.0
C761 C 0.90835 0.79089 0.6687 0.0
C762 C 0.91658 0.81181 0.69178 0.0
H763 H 0.00544 0.83066 0.71746 0.0
H764 H 0.97732 0.8106 0.70794 0.0
H765 H 0.98899 0.83156 0.66804 0.0
H766 H 0.94812 0.84637 0.61838 0.0
H767 H 0.93382 0.80964 0.57776 0.0
H768 H 0.56028 0.55949 0.62588 0.0
H769 H 0.58378 0.57723 0.68471 0.0
H770 H 0.52811 0.63953 0.68653 0.0
H771 H 0.5043 0.62143 0.62846 0.0
H772 H 0.6068 0.62396 0.70233 0.0
H773 H 0.52241 0.60601 0.79927 0.0
H774 H 0.52446 0.59308 0.74903 0.0
H775 H 0.51428 0.62608 0.75504 0.0
C776 C 0.55336 0.57713 0.63832 0.0
C777 C 0.53038 0.58885 0.62277 0.0
C778 C 0.56673 0.58724 0.67206 0.0
C779 C 0.55729 0.60932 0.6906 0.0
C780 C 0.5353 0.62204 0.6734 0.0
H781 H 0.62534 0.71146 0.8645 0.0
H782 H 0.61334 0.68772 0.8036 0.0
C783 C 0.5218 0.61175 0.64009 0.0
C784 C 0.56954 0.61843 0.72903 0.0
H785 H 0.55577 0.63306 0.82661 0.0
C786 C 0.59576 0.62575 0.72966 0.0
C787 C 0.55528 0.62009 0.76496 0.0
C788 C 0.52764 0.61063 0.76727 0.0
C789 C 0.60777 0.63582 0.76485 0.0
C790 C 0.59296 0.63912 0.79988 0.0
C791 C 0.56707 0.63077 0.79966 0.0
C792 C 0.60328 0.65232 0.83653 0.0
C793 C 0.63618 0.64271 0.76415 0.0
C794 C 0.6014 0.64044 0.87544 0.0
C795 C 0.60785 0.65413 0.91044 0.0
C796 C 0.61628 0.68 0.90715 0.0
C797 C 0.619 0.69154 0.86812 0.0
C798 C 0.61237 0.67789 0.83317 0.0
H799 H 0.64642 0.63118 0.74159 0.0
H800 H 0.63816 0.66349 0.75504 0.0
H801 H 0.64587 0.63946 0.79464 0.0
H802 H 0.59429 0.62075 0.87875 0.0
H803 H 0.60561 0.64466 0.94005 0.0
H804 H 0.47022 0.54981 0.63995 0.0
H805 H 0.45145 0.57169 0.69751 0.0
H806 H 0.37759 0.53593 0.66997 0.0
H807 H 0.39621 0.51462 0.61197 0.0
H808 H 0.4051 0.60528 0.70283 0.0
H809 H 0.39902 0.51128 0.78908 0.0
H810 H 0.41889 0.51584 0.74515 0.0
H811 H 0.38448 0.5112 0.7385 0.0
C812 C 0.44976 0.54764 0.64517 0.0
C813 C 0.43443 0.53127 0.621 0.0
C814 C 0.43915 0.55975 0.67836 0.0
C815 C 0.4132 0.55526 0.688 0.0
C816 C 0.39771 0.53945 0.66313 0.0
H817 H 0.30639 0.62454 0.84663 0.0
H818 H 0.33289 0.61279 0.78977 0.0
C819 C 0.4083 0.52739 0.63006 0.0
C820 C 0.40254 0.56577 0.72535 0.0
H821 H 0.37673 0.54692 0.81589 0.0
C822 C 0.39908 0.59262 0.72778 0.0
C823 C 0.3952 0.54918 0.75806 0.0
C824 C 0.39978 0.52028 0.75792 0.0
C825 C 0.38742 0.60326 0.76156 0.0
C826 C 0.37876 0.5865 0.79328 0.0
C827 C 0.3832 0.55974 0.79144 0.0
C828 C 0.36403 0.59598 0.82787 0.0
C829 C 0.3845 0.6323 0.76297 0.0
C830 C 0.37258 0.59019 0.86823 0.0
C831 C 0.35732 0.59661 0.90085 0.0
C832 C 0.33315 0.60885 0.89367 0.0
C833 C 0.32494 0.61521 0.85325 0.0
C834 C 0.34018 0.6087 0.82067 0.0
H835 H 0.39896 0.64246 0.74388 0.0
H836 H 0.36488 0.63792 0.75081 0.0
H837 H 0.38673 0.63904 0.79471 0.0
H838 H 0.39086 0.58023 0.87445 0.0
H839 H 0.36422 0.59147 0.93161 0.0
H840 H 0.45166 0.44271 0.60314 0.0
H841 H 0.4315 0.42791 0.66584 0.0
H842 H 0.50728 0.41548 0.72289 0.0
H843 H 0.52746 0.43091 0.66057 0.0
H844 H 0.43645 0.38006 0.70193 0.0
H845 H 0.47035 0.45385 0.81016 0.0
H846 H 0.47182 0.45867 0.7555 0.0
H847 H 0.4966 0.4402 0.78339 0.0
C848 C 0.46402 0.43732 0.62904 0.0
C849 C 0.49113 0.43811 0.62658 0.0
C850 C 0.45247 0.42878 0.66498 0.0
C851 C 0.46787 0.421 0.69929 0.0
C852 C 0.49497 0.42198 0.69714 0.0
H853 H 0.44383 0.30896 0.88836 0.0
H854 H 0.45385 0.33467 0.82732 0.0
C855 C 0.50647 0.43054 0.66125 0.0
C856 C 0.45582 0.40978 0.73617 0.0
H857 H 0.45605 0.41322 0.83996 0.0
C858 C 0.44041 0.38755 0.73205 0.0
C859 C 0.46061 0.41981 0.77537 0.0
C860 C 0.47552 0.44461 0.78139 0.0
C861 C 0.43087 0.37424 0.7663 0.0
C862 C 0.43732 0.38316 0.80569 0.0
C863 C 0.45146 0.40621 0.80973 0.0
C864 C 0.43101 0.36787 0.84299 0.0
C865 C 0.41427 0.35053 0.76001 0.0
C866 C 0.41543 0.37832 0.87264 0.0
C867 C 0.40974 0.36368 0.90786 0.0
C868 C 0.41974 0.33843 0.91404 0.0
C869 C 0.43565 0.32825 0.88447 0.0
C870 C 0.44129 0.34286 0.8494 0.0
H871 H 0.40462 0.35097 0.72917 0.0
H872 H 0.42672 0.33298 0.76274 0.0
H873 H 0.39916 0.34881 0.78327 0.0
H874 H 0.4075 0.3977 0.86835 0.0
H875 H 0.3975 0.3721 0.93014 0.0
H876 H 0.5985 0.45359 0.5727 0.0
H877 H 0.61584 0.42282 0.6251 0.0
H878 H 0.58627 0.47082 0.71839 0.0
H879 H 0.56712 0.50029 0.66569 0.0
H880 H 0.6521 0.43158 0.67913 0.0
H881 H 0.56533 0.40132 0.76244 0.0
H882 H 0.56312 0.41782 0.71313 0.0
H883 H 0.56769 0.43595 0.75888 0.0
C884 C 0.59439 0.45657 0.60424 0.0
C885 C 0.58043 0.47845 0.61511 0.0
C886 C 0.6048 0.4394 0.63423 0.0
C887 C 0.60181 0.44411 0.67574 0.0
C888 C 0.58805 0.46621 0.68663 0.0
H889 H 0.70436 0.40543 0.87773 0.0
H890 H 0.68334 0.42206 0.81457 0.0
C891 C 0.57736 0.48319 0.65656 0.0
C892 C 0.61518 0.42739 0.70756 0.0
H893 H 0.60646 0.39591 0.79906 0.0
C894 C 0.64202 0.42343 0.70504 0.0
C895 C 0.60202 0.41627 0.74097 0.0
C896 C 0.57291 0.41781 0.7438 0.0
C897 C 0.65625 0.40974 0.73591 0.0
C898 C 0.64344 0.40049 0.77093 0.0
C899 C 0.61639 0.40334 0.77252 0.0
C900 C 0.65777 0.38912 0.80722 0.0
C901 C 0.68486 0.40538 0.73056 0.0
C902 C 0.65022 0.36519 0.82455 0.0
C903 C 0.66191 0.35583 0.86119 0.0
C904 C 0.68144 0.37021 0.88111 0.0
C905 C 0.68957 0.39374 0.86297 0.0
C906 C 0.67766 0.40322 0.82665 0.0
H907 H 0.6894 0.40483 0.69772 0.0
H908 H 0.69594 0.42168 0.74387 0.0
H909 H 0.69161 0.38699 0.74593 0.0
H910 H 0.63486 0.35402 0.81018 0.0
H911 H 0.65522 0.33764 0.87438 0.0
H912 H 0.60883 0.45489 0.42106 0.0
H913 H 0.6282 0.42972 0.36781 0.0
H914 H 0.6189 0.49489 0.28295 0.0
H915 H 0.59964 0.52019 0.33582 0.0
H916 H 0.60716 0.41666 0.29108 0.0
H917 H 0.696 0.47609 0.27625 0.0
H918 H 0.67519 0.47807 0.31922 0.0
H919 H 0.66671 0.49492 0.27178 0.0
C920 C 0.61087 0.46385 0.39104 0.0
C921 C 0.60279 0.48957 0.3827 0.0
C922 C 0.62198 0.44946 0.36072 0.0
C923 C 0.6254 0.46064 0.32174 0.0
C924 C 0.61696 0.48613 0.31314 0.0
H925 H 0.64213 0.39921 0.08703 0.0
H926 H 0.62772 0.4151 0.15166 0.0
C927 C 0.60582 0.5005 0.34334 0.0
C928 C 0.63724 0.44558 0.28954 0.0
H929 H 0.68607 0.44738 0.22194 0.0
C930 C 0.62459 0.42316 0.27626 0.0
C931 C 0.66024 0.45385 0.27082 0.0
C932 C 0.6755 0.4769 0.28549 0.0
C933 C 0.63365 0.40948 0.24328 0.0
C934 C 0.65567 0.41877 0.2228 0.0
C935 C 0.66905 0.44044 0.23744 0.0
C936 C 0.66415 0.40742 0.18457 0.0
C937 C 0.61942 0.38538 0.23045 0.0
C938 C 0.6896 0.39824 0.1814 0.0
C939 C 0.69803 0.38931 0.14425 0.0
C940 C 0.68115 0.38962 0.10963 0.0
C941 C 0.6556 0.39858 0.11313 0.0
C942 C 0.64723 0.4075 0.15017 0.0
H943 H 0.60882 0.37637 0.2562 0.0
H944 H 0.60494 0.39061 0.20575 0.0
H945 H 0.63295 0.37082 0.21879 0.0
H946 H 0.70301 0.39824 0.20756 0.0
H947 H 0.71785 0.38259 0.14251 0.0
H948 H 0.47763 0.60897 0.32749 0.0
H949 H 0.50028 0.6323 0.27342 0.0
H950 H 0.57127 0.59228 0.30936 0.0
H951 H 0.54882 0.56894 0.36384 0.0
H952 H 0.57586 0.64619 0.30549 0.0
H953 H 0.5284 0.61057 0.16388 0.0
H954 H 0.50575 0.62065 0.20065 0.0
H955 H 0.52666 0.59335 0.21256 0.0
C956 C 0.49797 0.60484 0.32355 0.0
C957 C 0.51147 0.58725 0.35013 0.0
C958 C 0.51084 0.61803 0.2924 0.0
C959 C 0.53737 0.61381 0.28713 0.0
C960 C 0.55073 0.59567 0.3128 0.0
H961 H 0.62346 0.69892 0.09815 0.0
H962 H 0.6073 0.66337 0.14156 0.0
C963 C 0.53786 0.58236 0.34388 0.0
C964 C 0.55159 0.6303 0.2577 0.0
H965 H 0.55155 0.6509 0.15772 0.0
C966 C 0.57085 0.64692 0.27307 0.0
C967 C 0.54517 0.63107 0.21541 0.0
C968 C 0.52554 0.61278 0.19702 0.0
C969 C 0.5829 0.66523 0.24757 0.0
C970 C 0.57535 0.66705 0.20577 0.0
C971 C 0.5571 0.64956 0.18992 0.0
C972 C 0.58485 0.68822 0.17883 0.0
C973 C 0.60321 0.68293 0.26567 0.0
C974 C 0.57733 0.71382 0.18526 0.0
C975 C 0.58609 0.73404 0.1601 0.0
C976 C 0.60247 0.72905 0.12784 0.0
C977 C 0.61012 0.70335 0.12163 0.0
C978 C 0.60118 0.68304 0.14674 0.0
H979 H 0.6113 0.67506 0.29536 0.0
H980 H 0.61934 0.68602 0.24447 0.0
H981 H 0.59431 0.70206 0.27093 0.0
H982 H 0.56454 0.71814 0.20969 0.0
H983 H 0.57982 0.7536 0.16575 0.0
H984 H 0.45104 0.55225 0.34353 0.0
H985 H 0.42611 0.57316 0.28669 0.0
H986 H 0.38361 0.50228 0.26857 0.0
H987 H 0.40842 0.48122 0.32506 0.0
H988 H 0.39833 0.53039 0.19417 0.0
H989 H 0.34833 0.59103 0.30526 0.0
H990 H 0.38322 0.59195 0.30627 0.0
H991 H 0.36692 0.5626 0.3211 0.0
C992 C 0.43665 0.54102 0.32712 0.0
C993 C 0.43138 0.51523 0.33931 0.0
C994 C 0.42241 0.553 0.29469 0.0
C995 C 0.4028 0.53933 0.27394 0.0
C996 C 0.39862 0.51315 0.28437 0.0
H997 H 0.25936 0.57255 0.15256 0.0
H998 H 0.29687 0.55861 0.19521 0.0
C999 C 0.41275 0.5012 0.31679 0.0
C1000 C 0.38498 0.55261 0.24379 0.0
H1001 H 0.33353 0.59434 0.23687 0.0
C1002 C 0.38442 0.5447 0.20322 0.0
C1003 C 0.36673 0.57104 0.25601 0.0
C1004 C 0.36606 0.57964 0.29954 0.0
C1005 C 0.36556 0.5543 0.1747 0.0
C1006 C 0.34694 0.5722 0.18726 0.0
C1007 C 0.34799 0.58068 0.22747 0.0
C1008 C 0.32471 0.5805 0.16036 0.0
C1009 C 0.36485 0.54443 0.13189 0.0
C1010 C 0.32801 0.59759 0.12684 0.0
C1011 C 0.30653 0.60574 0.10247 0.0
C1012 C 0.28151 0.59673 0.11114 0.0
C1013 C 0.27838 0.57974 0.14495 0.0
C1014 C 0.29977 0.57172 0.16931 0.0
H1015 H 0.37915 0.52865 0.12814 0.0
H1016 H 0.34515 0.53712 0.12376 0.0
H1017 H 0.36919 0.56059 0.11006 0.0
H1018 H 0.3471 0.60496 0.12002 0.0
H1019 H 0.30947 0.61968 0.07777 0.0
H1020 H 0.51501 0.42359 0.31646 0.0
H1021 H 0.49206 0.40042 0.26275 0.0
H1022 H 0.42143 0.40381 0.32925 0.0
H1023 H 0.44454 0.42638 0.38395 0.0
H1024 H 0.43187 0.35581 0.30993 0.0
H1025 H 0.44098 0.41813 0.17142 0.0
H1026 H 0.47211 0.41287 0.19625 0.0
H1027 H 0.44731 0.42998 0.22202 0.0
C1028 C 0.49447 0.4199 0.31934 0.0
C1029 C 0.48165 0.42661 0.35464 0.0
C1030 C 0.48128 0.40684 0.28835 0.0
C1031 C 0.45493 0.40064 0.29168 0.0
C1032 C 0.44175 0.40849 0.32598 0.0
H1033 H 0.37972 0.31047 0.09777 0.0
H1034 H 0.38981 0.34549 0.14443 0.0
C1035 C 0.45499 0.42137 0.35721 0.0
C1036 C 0.44229 0.38311 0.26213 0.0
H1037 H 0.43487 0.37214 0.16031 0.0
C1038 C 0.43208 0.35963 0.27722 0.0
C1039 C 0.44218 0.38818 0.21947 0.0
C1040 C 0.45098 0.41381 0.20141 0.0
C1041 C 0.42316 0.3405 0.25084 0.0
C1042 C 0.42516 0.34469 0.20825 0.0
C1043 C 0.43387 0.36876 0.19303 0.0
C1044 C 0.41944 0.32387 0.17925 0.0
C1045 C 0.41198 0.31586 0.26894 0.0
C1046 C 0.43313 0.30035 0.18289 0.0
C1047 C 0.42749 0.28042 0.15624 0.0
C1048 C 0.40842 0.28384 0.12494 0.0
C1049 C 0.39504 0.30756 0.12085 0.0
C1050 C 0.40058 0.32747 0.14773 0.0
H1051 H 0.40407 0.31907 0.29947 0.0
H1052 H 0.39628 0.30805 0.24882 0.0
H1053 H 0.42755 0.30105 0.27285 0.0
H1054 H 0.44819 0.2974 0.20641 0.0
H1055 H 0.43815 0.26236 0.15999 0.0
loop_
_geom_bond_atom_site_label_1
_geom_bond_atom_site_label_2
_geom_bond_distance
_geom_bond_site_symmetry_2
_ccdc_geom_bond_type
Zn0 O2 1.933 1_556 S
Zn0 O20 1.985 . S
Zn0 O31 1.962 . S
Zn1 O2 1.911 . S
Zn1 O21 1.970 . S
Zn1 O37 1.964 . S
Zn1 O44 1.981 . S
O2 Zn0 1.933 1_554 S
O2 Zn1 1.911 . S
O2 H3 0.841 1_655 S
H3 O2 0.841 1_455 S
C4 O5 1.246 . S
C4 O33 1.289 . S
O5 C4 1.246 . S
Zn6 O8 1.911 . S
Zn6 O23 1.970 . S
Zn6 O40 1.945 . S
Zn6 O47 1.981 . S
Zn7 O8 1.933 1_556 S
Zn7 O22 1.985 . S
Zn7 O29 1.955 . S
O8 Zn6 1.911 . S
O8 Zn7 1.933 1_554 S
O8 H9 0.841 1_455 S
H9 O8 0.841 1_655 S
Zn10 O11 1.933 1_556 S
Zn10 O24 1.985 . S
Zn10 O33 1.950 1_565 S
O11 Zn10 1.933 1_554 S
O11 Zn12 1.911 . S
O11 H13 0.841 1_565 S
Zn12 O11 1.911 . S
Zn12 O25 1.970 . S
Zn12 O41 1.981 . S
Zn12 O43 1.945 . S
H13 O11 0.841 1_545 S
Zn14 O15 1.933 1_556 S
Zn14 O27 1.985 . S
Zn14 O35 1.955 . S
O15 Zn14 1.933 1_554 S
O15 H16 0.841 1_545 S
O15 Zn17 1.911 . S
H16 O15 0.841 1_565 S
Zn17 O15 1.911 . S
Zn17 O28 1.970 . S
Zn17 O38 1.981 . S
Zn17 O46 1.945 . S
C18 O19 1.246 . S
C18 O35 1.276 1_565 S
O19 C18 1.246 . S
O20 Zn0 1.985 . S
O20 C30 1.245 1_556 S
O21 Zn1 1.970 . S
O21 C30 1.263 . S
O22 Zn7 1.985 . S
O22 C34 1.245 1_556 S
O23 Zn6 1.970 . S
O23 C34 1.263 . S
O24 Zn10 1.985 . S
O24 C39 1.245 1_556 S
O25 Zn12 1.970 . S
O25 C39 1.263 . S
C26 O37 1.224 1_455 S
C26 O38 1.245 . S
O27 Zn14 1.985 . S
O27 C45 1.245 1_556 S
O28 Zn17 1.970 . S
O28 C45 1.263 . S
O29 Zn7 1.955 . S
O29 C48 1.276 1_455 S
C30 O20 1.245 1_554 S
C30 O21 1.263 . S
O31 Zn0 1.962 . S
O31 C50 1.259 1_655 S
C32 O40 1.262 1_655 S
C32 O41 1.245 . S
O33 C4 1.289 . S
O33 Zn10 1.950 1_545 S
C34 O22 1.245 1_554 S
C34 O23 1.263 . S
O35 Zn14 1.955 . S
O35 C18 1.276 1_545 S
C36 O43 1.262 1_545 S
C36 O44 1.245 . S
O37 Zn1 1.964 . S
O37 C26 1.224 1_655 S
O38 Zn17 1.981 . S
O38 C26 1.245 . S
C39 O24 1.245 1_554 S
C39 O25 1.263 . S
O40 Zn6 1.945 . S
O40 C32 1.262 1_455 S
O41 Zn12 1.981 . S
O41 C32 1.245 . S
C42 O46 1.262 1_565 S
C42 O47 1.245 . S
O43 Zn12 1.945 . S
O43 C36 1.262 1_565 S
O44 Zn1 1.981 . S
O44 C36 1.245 . S
C45 O27 1.245 1_554 S
C45 O28 1.263 . S
O46 Zn17 1.945 . S
O46 C42 1.262 1_545 S
O47 Zn6 1.981 . S
O47 C42 1.245 . S
C48 O29 1.276 1_655 S
C48 O49 1.246 . S
O49 C48 1.246 . S
C50 O31 1.259 1_455 S
C50 O51 1.246 . S
O51 C50 1.246 . S
Zn52 O54 1.933 . S
Zn52 O72 1.985 . S
Zn52 O83 1.955 . S
Zn53 O54 1.911 . S
Zn53 O73 1.970 . S
Zn53 O89 1.945 . S
Zn53 O96 1.981 . S
O54 Zn52 1.933 . S
O54 Zn53 1.911 . S
O54 H55 0.841 . S
H55 O54 0.841 . S
C56 O57 1.246 . S
C56 O85 1.276 . S
O57 C56 1.246 . S
Zn58 O60 1.911 . S
Zn58 O75 1.970 . S
Zn58 O92 1.945 . S
Zn58 O99 1.981 . S
Zn59 O60 1.933 . S
Zn59 O74 1.985 . S
Zn59 O81 1.955 . S
O60 Zn58 1.911 . S
O60 Zn59 1.933 . S
O60 H61 0.841 . S
H61 O60 0.841 . S
Zn62 O63 1.933 . S
Zn62 O76 1.985 . S
Zn62 O85 1.955 . S
O63 Zn62 1.933 . S
O63 Zn64 1.911 . S
O63 H65 0.841 . S
Zn64 O63 1.911 . S
Zn64 O77 1.970 . S
Zn64 O93 1.981 . S
Zn64 O95 1.945 . S
H65 O63 0.841 . S
Zn66 O67 1.933 . S
Zn66 O79 1.985 . S
Zn66 O87 1.955 . S
O67 Zn66 1.933 . S
O67 H68 0.841 . S
O67 Zn69 1.911 . S
H68 O67 0.841 . S
Zn69 O67 1.911 . S
Zn69 O80 1.970 . S
Zn69 O90 1.981 . S
Zn69 O98 1.945 . S
C70 O71 1.246 . S
C70 O87 1.276 . S
O71 C70 1.246 . S
O72 Zn52 1.985 . S
O72 C82 1.245 . S
O73 Zn53 1.970 . S
O73 C82 1.263 . S
O74 Zn59 1.985 . S
O74 C86 1.245 . S
O75 Zn58 1.970 . S
O75 C86 1.263 . S
O76 Zn62 1.985 . S
O76 C91 1.245 . S
O77 Zn64 1.970 . S
O77 C91 1.263 . S
C78 O89 1.262 . S
C78 O90 1.245 . S
O79 Zn66 1.985 . S
O79 C97 1.245 . S
O80 Zn69 1.970 . S
O80 C97 1.263 . S
O81 Zn59 1.955 . S
O81 C100 1.276 . S
C82 O72 1.245 . S
C82 O73 1.263 . S
O83 Zn52 1.955 . S
O83 C102 1.276 . S
C84 O92 1.262 . S
C84 O93 1.245 . S
O85 C56 1.276 . S
O85 Zn62 1.955 . S
C86 O74 1.245 . S
C86 O75 1.263 . S
O87 Zn66 1.955 . S
O87 C70 1.276 . S
C88 O95 1.262 . S
C88 O96 1.245 . S
O89 Zn53 1.945 . S
O89 C78 1.262 . S
O90 Zn69 1.981 . S
O90 C78 1.245 . S
C91 O76 1.245 . S
C91 O77 1.263 . S
O92 Zn58 1.945 . S
O92 C84 1.262 . S
O93 Zn64 1.981 . S
O93 C84 1.245 . S
C94 O98 1.262 . S
C94 O99 1.245 . S
O95 Zn64 1.945 . S
O95 C88 1.262 . S
O96 Zn53 1.981 . S
O96 C88 1.245 . S
C97 O79 1.245 . S
C97 O80 1.263 . S
O98 Zn69 1.945 . S
O98 C94 1.262 . S
O99 Zn58 1.981 . S
O99 C94 1.245 . S
C100 O81 1.276 . S
C100 O101 1.246 . S
O101 C100 1.246 . S
C102 O83 1.276 . S
C102 O103 1.246 . S
O103 C102 1.246 . S
O104 Cd105 2.300 . S
O104 C111 1.275 . S
Cd105 O104 2.300 . S
Cd105 O113 2.381 . S
Cd105 O114 2.378 . S
O106 Cd107 2.385 1_554 S
O106 C111 1.255 . S
Cd107 O106 2.385 1_556 S
Cd107 O108 2.317 . S
O108 Cd107 2.317 . S
O108 C109 1.232 . S
C109 O108 1.232 . S
C109 O110 1.218 . S
O110 C109 1.218 . S
C111 O104 1.275 . S
C111 O106 1.255 . S
C112 O113 1.258 . S
C112 O114 1.256 . S
O113 Cd105 2.381 . S
O113 C112 1.258 . S
O114 Cd105 2.378 . S
O114 C112 1.256 . S
O115 Cd116 2.300 . S
O115 C122 1.275 . S
Cd116 O115 2.300 . S
Cd116 O124 2.381 . S
Cd116 O125 2.378 1_556 S
O117 Cd118 2.385 1_556 S
O117 C122 1.255 . S
Cd118 O117 2.385 1_554 S
Cd118 O119 2.317 . S
O119 Cd118 2.317 . S
O119 C120 1.232 . S
C120 O119 1.232 . S
C120 O121 1.218 . S
O121 C120 1.218 . S
C122 O115 1.275 . S
C122 O117 1.255 . S
C123 O124 1.258 . S
C123 O125 1.256 1_556 S
O124 Cd116 2.381 . S
O124 C123 1.258 . S
O125 Cd116 2.378 1_554 S
O125 C123 1.256 1_554 S
O126 Cd127 2.300 . S
O126 C133 1.275 . S
Cd127 O126 2.300 . S
Cd127 O135 2.381 . S
Cd127 O136 2.378 . S
O128 Cd129 2.385 1_554 S
O128 C133 1.255 . S
Cd129 O128 2.385 1_556 S
Cd129 O130 2.317 . S
O130 Cd129 2.317 . S
O130 C131 1.232 . S
C131 O130 1.232 . S
C131 O132 1.218 . S
O132 C131 1.218 . S
C133 O126 1.275 . S
C133 O128 1.255 . S
C134 O135 1.258 . S
C134 O136 1.256 . S
O135 Cd127 2.381 . S
O135 C134 1.258 . S
O136 Cd127 2.378 . S
O136 C134 1.256 . S
O137 Cd138 2.300 . S
O137 C144 1.275 . S
Cd138 O137 2.300 . S
Cd138 O146 2.381 . S
Cd138 O147 2.372 1_554 S
O139 Cd140 2.385 1_554 S
O139 C144 1.255 . S
Cd140 O139 2.385 1_556 S
Cd140 O141 2.317 . S
O141 Cd140 2.317 . S
O141 C142 1.232 . S
C142 O141 1.232 . S
C142 O143 1.218 . S
O143 C142 1.218 . S
C144 O137 1.275 . S
C144 O139 1.255 . S
C145 O146 1.258 . S
C145 O147 1.244 1_554 S
O146 Cd138 2.381 . S
O146 C145 1.258 . S
O147 Cd138 2.372 1_556 S
O147 C145 1.244 1_556 S
O148 Cd149 2.300 . S
O148 C155 1.275 . S
Cd149 O148 2.300 . S
Cd149 O157 2.381 . S
Cd149 O158 2.378 . S
O150 Cd151 2.385 . S
O150 C155 1.255 . S
Cd151 O150 2.385 . S
Cd151 O152 2.317 . S
O152 Cd151 2.317 . S
O152 C153 1.232 . S
C153 O152 1.232 . S
C153 O154 1.218 . S
O154 C153 1.218 . S
C155 O148 1.275 . S
C155 O150 1.255 . S
C156 O157 1.258 . S
C156 O158 1.256 . S
O157 Cd149 2.381 . S
O157 C156 1.258 . S
O158 Cd149 2.378 . S
O158 C156 1.256 . S
O159 Cd160 2.300 . S
O159 C166 1.275 . S
Cd160 O159 2.300 . S
Cd160 O168 2.381 . S
Cd160 O169 2.378 . S
O161 Cd162 2.385 . S
O161 C166 1.255 . S
Cd162 O161 2.385 . S
Cd162 O163 2.317 . S
O163 Cd162 2.317 . S
O163 C164 1.232 . S
C164 O163 1.232 . S
C164 O165 1.218 . S
O165 C164 1.218 . S
C166 O159 1.275 . S
C166 O161 1.255 . S
C167 O168 1.258 . S
C167 O169 1.256 . S
O168 Cd160 2.381 . S
O168 C167 1.258 . S
O169 Cd160 2.378 . S
O169 C167 1.256 . S
O170 Cd171 2.300 . S
O170 C177 1.275 . S
Cd171 O170 2.300 . S
Cd171 O179 2.381 . S
Cd171 O180 2.378 . S
O172 Cd173 2.385 . S
O172 C177 1.255 . S
Cd173 O172 2.385 . S
Cd173 O174 2.317 . S
O174 Cd173 2.317 . S
O174 C175 1.232 . S
C175 O174 1.232 . S
C175 O176 1.218 . S
O176 C175 1.218 . S
C177 O170 1.275 . S
C177 O172 1.255 . S
C178 O179 1.258 . S
C178 O180 1.256 . S
O179 Cd171 2.381 . S
O179 C178 1.258 . S
O180 Cd171 2.378 . S
O180 C178 1.256 . S
O181 Cd182 2.300 . S
O181 C188 1.275 . S
Cd182 O181 2.300 . S
Cd182 O190 2.381 . S
Cd182 O191 2.378 . S
O183 Cd184 2.385 . S
O183 C188 1.255 . S
Cd184 O183 2.385 . S
Cd184 O185 2.317 . S
O185 Cd184 2.317 . S
O185 C186 1.232 . S
C186 O185 1.232 . S
C186 O187 1.218 . S
O187 C186 1.218 . S
C188 O181 1.275 . S
C188 O183 1.255 . S
C189 O190 1.258 . S
C189 O191 1.256 . S
O190 Cd182 2.381 . S
O190 C189 1.258 . S
O191 Cd182 2.378 . S
O191 C189 1.256 . S
H192 C200 0.929 . S
H193 C202 0.930 . S
H194 C204 0.925 1_556 S
H195 C207 0.929 . S
H196 C210 0.930 . S
H197 C212 0.960 . S
H198 C212 0.960 . S
H199 C212 0.960 . S
C200 H192 0.929 . S
C200 C201 1.377 . S
C200 C202 1.384 . S
C201 C200 1.377 . S
C201 C207 1.390 1_554 S
C202 H193 0.930 . S
C202 C200 1.384 . S
C202 C203 1.372 . S
C203 C202 1.372 . S
C203 C204 1.405 . S
C203 C208 1.490 . S
C204 H194 0.925 1_554 S
C204 C203 1.405 . S
C204 C207 1.385 1_554 S
H205 C221 0.930 . S
H206 C222 0.931 . S
C207 H195 0.929 . S
C207 C201 1.390 1_556 S
C207 C204 1.385 1_556 S
C208 C203 1.490 . S
C208 C210 1.395 . S
C208 C211 1.403 1_554 S
H209 C215 0.930 . S
C210 H196 0.930 . S
C210 C208 1.395 . S
C210 C213 1.403 . S
C211 C208 1.403 1_556 S
C211 C212 1.524 . S
C211 C215 1.400 . S
C212 H197 0.960 . S
C212 H198 0.960 . S
C212 H199 0.960 . S
C212 C211 1.524 . S
C213 C210 1.403 . S
C213 C214 1.392 . S
C213 C217 1.495 . S
C214 C213 1.392 . S
C214 C215 1.385 1_554 S
C214 C216 1.478 . S
C215 H209 0.930 . S
C215 C211 1.400 . S
C215 C214 1.385 1_556 S
C216 C214 1.478 . S
C216 C218 1.381 . S
C216 C222 1.383 . S
C217 C213 1.495 . S
C217 H223 0.959 . S
C217 H224 0.961 . S
C217 H225 0.960 . S
C218 C216 1.381 . S
C218 C219 1.394 . S
C218 H226 0.930 . S
C219 C218 1.394 . S
C219 C220 1.383 . S
C219 H227 0.929 . S
C220 C219 1.383 . S
C220 C221 1.377 . S
C221 H205 0.930 . S
C221 C220 1.377 . S
C221 C222 1.379 . S
C222 H206 0.931 . S
C222 C216 1.383 . S
C222 C221 1.379 . S
H223 C217 0.959 . S
H224 C217 0.961 . S
H225 C217 0.960 . S
H226 C218 0.930 . S
H227 C219 0.929 . S
H228 C236 0.929 . S
H229 C238 0.930 . S
H230 C240 0.930 . S
H231 C243 0.929 . S
H232 C246 0.930 . S
H233 C248 0.960 . S
H234 C248 0.960 . S
H235 C248 0.960 1_556 S
C236 H228 0.929 . S
C236 C237 1.377 . S
C236 C238 1.384 . S
C237 C236 1.377 . S
C237 C243 1.390 1_554 S
C238 H229 0.930 . S
C238 C236 1.384 . S
C238 C239 1.372 . S
C239 C238 1.372 . S
C239 C240 1.400 1_554 S
C239 C244 1.490 . S
C240 H230 0.930 . S
C240 C239 1.400 1_556 S
C240 C243 1.386 . S
H241 C257 0.930 . S
H242 C258 0.931 . S
C243 H231 0.929 . S
C243 C237 1.390 1_556 S
C243 C240 1.386 . S
C244 C239 1.490 . S
C244 C246 1.395 1_554 S
C244 C247 1.403 . S
H245 C251 0.930 . S
C246 H232 0.930 . S
C246 C244 1.395 1_556 S
C246 C249 1.403 . S
C247 C244 1.403 . S
C247 C248 1.524 . S
C247 C251 1.400 . S
C248 H233 0.960 . S
C248 H234 0.960 . S
C248 H235 0.960 1_554 S
C248 C247 1.524 . S
C249 C246 1.403 . S
C249 C250 1.392 1_556 S
C249 C253 1.495 . S
C250 C249 1.392 1_554 S
C250 C251 1.386 . S
C250 C252 1.478 1_554 S
C251 H245 0.930 . S
C251 C247 1.400 . S
C251 C250 1.386 . S
C252 C250 1.478 1_556 S
C252 C254 1.381 1_556 S
C252 C258 1.383 . S
C253 C249 1.495 . S
C253 H259 0.959 . S
C253 H260 0.961 . S
C253 H261 0.960 1_556 S
C254 C252 1.381 1_554 S
C254 C255 1.394 . S
C254 H262 0.930 . S
C255 C254 1.394 . S
C255 C256 1.383 1_554 S
C255 H263 0.929 . S
C256 C255 1.383 1_556 S
C256 C257 1.377 . S
C257 H241 0.930 . S
C257 C256 1.377 . S
C257 C258 1.379 . S
C258 H242 0.931 . S
C258 C252 1.383 . S
C258 C257 1.379 . S
H259 C253 0.959 . S
H260 C253 0.961 . S
H261 C253 0.960 1_554 S
H262 C254 0.930 . S
H263 C255 0.929 . S
H264 C272 0.929 1_556 S
H265 C274 0.930 . S
H266 C276 0.930 . S
H267 C279 0.929 . S
H268 C282 0.930 . S
H269 C284 0.960 . S
H270 C284 0.960 . S
H271 C284 0.960 . S
C272 H264 0.929 1_554 S
C272 C273 1.377 . S
C272 C274 1.384 . S
C273 C272 1.377 . S
C273 C279 1.390 . S
C274 H265 0.930 . S
C274 C272 1.384 . S
C274 C275 1.372 . S
C275 C274 1.372 . S
C275 C276 1.400 . S
C275 C280 1.490 . S
C276 H266 0.930 . S
C276 C275 1.400 . S
C276 C279 1.386 . S
H277 C293 0.930 . S
H278 C294 0.931 . S
C279 H267 0.929 . S
C279 C273 1.390 . S
C279 C276 1.386 . S
C280 C275 1.490 . S
C280 C282 1.395 . S
C280 C283 1.403 1_554 S
H281 C287 0.930 . S
C282 H268 0.930 . S
C282 C280 1.395 . S
C282 C285 1.403 . S
C283 C280 1.403 1_556 S
C283 C284 1.524 . S
C283 C287 1.400 . S
C284 H269 0.960 . S
C284 H270 0.960 . S
C284 H271 0.960 . S
C284 C283 1.524 . S
C285 C282 1.403 . S
C285 C286 1.392 . S
C285 C289 1.495 . S
C286 C285 1.392 . S
C286 C287 1.385 1_554 S
C286 C288 1.478 . S
C287 H281 0.930 . S
C287 C283 1.400 . S
C287 C286 1.385 1_556 S
C288 C286 1.478 . S
C288 C290 1.381 . S
C288 C294 1.383 . S
C289 C285 1.495 . S
C289 H295 0.959 . S
C289 H296 0.961 . S
C289 H297 0.960 . S
C290 C288 1.381 . S
C290 C291 1.394 . S
C290 H298 0.930 . S
C291 C290 1.394 . S
C291 C292 1.383 . S
C291 H299 0.929 . S
C292 C291 1.383 . S
C292 C293 1.377 . S
C293 H277 0.930 . S
C293 C292 1.377 . S
C293 C294 1.379 . S
C294 H278 0.931 . S
C294 C288 1.383 . S
C294 C293 1.379 . S
H295 C289 0.959 . S
H296 C289 0.961 . S
H297 C289 0.960 . S
H298 C290 0.930 . S
H299 C291 0.929 . S
H300 C308 0.929 . S
H301 C310 0.930 . S
H302 C312 0.940 . S
H303 C315 0.929 . S
H304 C318 0.930 1_556 S
H305 C320 0.960 . S
H306 C320 0.960 . S
H307 C320 0.960 . S
C308 H300 0.929 . S
C308 C309 1.377 . S
C308 C310 1.384 . S
C309 C308 1.377 . S
C309 C315 1.390 1_554 S
C310 H301 0.930 . S
C310 C308 1.384 . S
C310 C311 1.372 . S
C311 C310 1.372 . S
C311 C312 1.390 1_554 S
C311 C316 1.490 . S
C312 H302 0.940 . S
C312 C311 1.390 1_556 S
C312 C315 1.386 . S
H313 C329 0.930 . S
H314 C330 0.931 . S
C315 H303 0.929 . S
C315 C309 1.390 1_556 S
C315 C312 1.386 . S
C316 C311 1.490 . S
C316 C318 1.395 . S
C316 C319 1.403 . S
H317 C323 0.930 . S
C318 H304 0.930 1_554 S
C318 C316 1.395 . S
C318 C321 1.403 . S
C319 C316 1.403 . S
C319 C320 1.524 . S
C319 C323 1.400 . S
C320 H305 0.960 . S
C320 H306 0.960 . S
C320 H307 0.960 . S
C320 C319 1.524 . S
C321 C318 1.403 . S
C321 C322 1.392 . S
C321 C325 1.495 1_554 S
C322 C321 1.392 . S
C322 C323 1.385 . S
C322 C324 1.478 . S
C323 H317 0.930 . S
C323 C319 1.400 . S
C323 C322 1.385 . S
C324 C322 1.478 . S
C324 C326 1.381 . S
C324 C330 1.383 1_554 S
C325 C321 1.495 1_556 S
C325 H331 0.959 . S
C325 H332 0.961 . S
C325 H333 0.960 1_556 S
C326 C324 1.381 . S
C326 C327 1.394 . S
C326 H334 0.930 . S
C327 C326 1.394 . S
C327 C328 1.383 . S
C327 H335 0.929 . S
C328 C327 1.383 . S
C328 C329 1.377 1_554 S
C329 H313 0.930 . S
C329 C328 1.377 1_556 S
C329 C330 1.379 . S
C330 H314 0.931 . S
C330 C324 1.383 1_556 S
C330 C329 1.379 . S
H331 C325 0.959 . S
H332 C325 0.961 . S
H333 C325 0.960 1_554 S
H334 C326 0.930 . S
H335 C327 0.929 . S
H336 C344 0.929 . S
H337 C346 0.930 . S
H338 C348 0.930 . S
H339 C351 0.929 . S
H340 C354 0.930 . S
H341 C356 0.960 . S
H342 C356 0.960 . S
H343 C356 0.960 . S
C344 H336 0.929 . S
C344 C345 1.377 . S
C344 C346 1.384 . S
C345 C344 1.377 . S
C345 C351 1.390 . S
C346 H337 0.930 . S
C346 C344 1.384 . S
C346 C347 1.372 . S
C347 C346 1.372 . S
C347 C348 1.400 . S
C347 C352 1.490 . S
C348 H338 0.930 . S
C348 C347 1.400 . S
C348 C351 1.386 . S
H349 C365 0.930 . S
H350 C366 0.931 . S
C351 H339 0.929 . S
C351 C345 1.390 . S
C351 C348 1.386 . S
C352 C347 1.490 . S
C352 C354 1.395 . S
C352 C355 1.403 . S
H353 C359 0.930 . S
C354 H340 0.930 . S
C354 C352 1.395 . S
C354 C357 1.403 . S
C355 C352 1.403 . S
C355 C356 1.524 . S
C355 C359 1.400 . S
C356 H341 0.960 . S
C356 H342 0.960 . S
C356 H343 0.960 . S
C356 C355 1.524 . S
C357 C354 1.403 . S
C357 C358 1.392 . S
C357 C361 1.495 . S
C358 C357 1.392 . S
C358 C359 1.385 . S
C358 C360 1.478 . S
C359 H353 0.930 . S
C359 C355 1.400 . S
C359 C358 1.385 . S
C360 C358 1.478 . S
C360 C362 1.381 . S
C360 C366 1.383 . S
C361 C357 1.495 . S
C361 H367 0.959 . S
C361 H368 0.961 . S
C361 H369 0.960 . S
C362 C360 1.381 . S
C362 C363 1.394 . S
C362 H370 0.930 . S
C363 C362 1.394 . S
C363 C364 1.383 . S
C363 H371 0.929 . S
C364 C363 1.383 . S
C364 C365 1.377 . S
C365 H349 0.930 . S
C365 C364 1.377 . S
C365 C366 1.379 . S
C366 H350 0.931 . S
C366 C360 1.383 . S
C366 C365 1.379 . S
H367 C361 0.959 . S
H368 C361 0.961 . S
H369 C361 0.960 . S
H370 C362 0.930 . S
H371 C363 0.929 . S
H372 C380 0.929 . S
H373 C382 0.930 . S
H374 C384 0.930 . S
H375 C387 0.929 . S
H376 C390 0.930 . S
H377 C392 0.960 . S
H378 C392 0.960 . S
H379 C392 0.960 . S
C380 H372 0.929 . S
C380 C381 1.377 . S
C380 C382 1.384 . S
C381 C380 1.377 . S
C381 C387 1.390 . S
C382 H373 0.930 . S
C382 C380 1.384 . S
C382 C383 1.372 . S
C383 C382 1.372 . S
C383 C384 1.400 . S
C383 C388 1.490 . S
C384 H374 0.930 . S
C384 C383 1.400 . S
C384 C387 1.386 . S
H385 C401 0.930 . S
H386 C402 0.931 . S
C387 H375 0.929 . S
C387 C381 1.390 . S
C387 C384 1.386 . S
C388 C383 1.490 . S
C388 C390 1.395 . S
C388 C391 1.403 . S
H389 C395 0.930 . S
C390 H376 0.930 . S
C390 C388 1.395 . S
C390 C393 1.403 . S
C391 C388 1.403 . S
C391 C392 1.524 . S
C391 C395 1.400 . S
C392 H377 0.960 . S
C392 H378 0.960 . S
C392 H379 0.960 . S
C392 C391 1.524 . S
C393 C390 1.403 . S
C393 C394 1.392 . S
C393 C397 1.495 . S
C394 C393 1.392 . S
C394 C395 1.385 . S
C394 C396 1.478 . S
C395 H389 0.930 . S
C395 C391 1.400 . S
C395 C394 1.385 . S
C396 C394 1.478 . S
C396 C398 1.381 . S
C396 C402 1.383 . S
C397 C393 1.495 . S
C397 H403 0.959 . S
C397 H404 0.961 . S
C397 H405 0.960 . S
C398 C396 1.381 . S
C398 C399 1.394 . S
C398 H406 0.930 . S
C399 C398 1.394 . S
C399 C400 1.383 . S
C399 H407 0.929 . S
C400 C399 1.383 . S
C400 C401 1.377 . S
C401 H385 0.930 . S
C401 C400 1.377 . S
C401 C402 1.379 . S
C402 H386 0.931 . S
C402 C396 1.383 . S
C402 C401 1.379 . S
H403 C397 0.959 . S
H404 C397 0.961 . S
H405 C397 0.960 . S
H406 C398 0.930 . S
H407 C399 0.929 . S
H408 C416 0.929 . S
H409 C418 0.930 . S
H410 C420 0.930 . S
H411 C423 0.929 . S
H412 C426 0.930 . S
H413 C428 0.960 . S
H414 C428 0.960 . S
H415 C428 0.960 . S
C416 H408 0.929 . S
C416 C417 1.377 . S
C416 C418 1.384 . S
C417 C416 1.377 . S
C417 C423 1.390 . S
C418 H409 0.930 . S
C418 C416 1.384 . S
C418 C419 1.372 . S
C419 C418 1.372 . S
C419 C420 1.400 . S
C419 C424 1.490 . S
C420 H410 0.930 . S
C420 C419 1.400 . S
C420 C423 1.386 . S
H421 C437 0.930 . S
H422 C438 0.931 . S
C423 H411 0.929 . S
C423 C417 1.390 . S
C423 C420 1.386 . S
C424 C419 1.490 . S
C424 C426 1.395 . S
C424 C427 1.403 . S
H425 C431 0.930 . S
C426 H412 0.930 . S
C426 C424 1.395 . S
C426 C429 1.403 . S
C427 C424 1.403 . S
C427 C428 1.524 . S
C427 C431 1.400 . S
C428 H413 0.960 . S
C428 H414 0.960 . S
C428 H415 0.960 . S
C428 C427 1.524 . S
C429 C426 1.403 . S
C429 C430 1.392 . S
C429 C433 1.495 . S
C430 C429 1.392 . S
C430 C431 1.385 . S
C430 C432 1.478 . S
C431 H425 0.930 . S
C431 C427 1.400 . S
C431 C430 1.385 . S
C432 C430 1.478 . S
C432 C434 1.381 . S
C432 C438 1.383 . S
C433 C429 1.495 . S
C433 H439 0.959 . S
C433 H440 0.961 . S
C433 H441 0.960 . S
C434 C432 1.381 . S
C434 C435 1.394 . S
C434 H442 0.930 . S
C435 C434 1.394 . S
C435 C436 1.383 . S
C435 H443 0.929 . S
C436 C435 1.383 . S
C436 C437 1.377 . S
C437 H421 0.930 . S
C437 C436 1.377 . S
C437 C438 1.379 . S
C438 H422 0.931 . S
C438 C432 1.383 . S
C438 C437 1.379 . S
H439 C433 0.959 . S
H440 C433 0.961 . S
H441 C433 0.960 . S
H442 C434 0.930 . S
H443 C435 0.929 . S
H444 C452 0.929 . S
H445 C454 0.930 . S
H446 C456 0.930 . S
H447 C459 0.929 . S
H448 C462 0.930 . S
H449 C464 0.960 . S
H450 C464 0.960 . S
H451 C464 0.960 . S
C452 H444 0.929 . S
C452 C453 1.377 . S
C452 C454 1.384 . S
C453 C452 1.377 . S
C453 C459 1.390 . S
C454 H445 0.930 . S
C454 C452 1.384 . S
C454 C455 1.372 . S
C455 C454 1.372 . S
C455 C456 1.400 . S
C455 C460 1.490 . S
C456 H446 0.930 . S
C456 C455 1.400 . S
C456 C459 1.386 . S
H457 C473 0.930 . S
H458 C474 0.931 . S
C459 H447 0.929 . S
C459 C453 1.390 . S
C459 C456 1.386 . S
C460 C455 1.490 . S
C460 C462 1.395 . S
C460 C463 1.403 . S
H461 C467 0.930 . S
C462 H448 0.930 . S
C462 C460 1.395 . S
C462 C465 1.403 . S
C463 C460 1.403 . S
C463 C464 1.524 . S
C463 C467 1.400 . S
C464 H449 0.960 . S
C464 H450 0.960 . S
C464 H451 0.960 . S
C464 C463 1.524 . S
C465 C462 1.403 . S
C465 C466 1.392 . S
C465 C469 1.495 . S
C466 C465 1.392 . S
C466 C467 1.385 . S
C466 C468 1.478 . S
C467 H461 0.930 . S
C467 C463 1.400 . S
C467 C466 1.385 . S
C468 C466 1.478 . S
C468 C470 1.381 . S
C468 C474 1.383 . S
C469 C465 1.495 . S
C469 H475 0.959 . S
C469 H476 0.961 . S
C469 H477 0.960 . S
C470 C468 1.381 . S
C470 C471 1.394 . S
C470 H478 0.930 . S
C471 C470 1.394 . S
C471 C472 1.383 . S
C471 H479 0.929 . S
C472 C471 1.383 . S
C472 C473 1.377 . S
C473 H457 0.930 . S
C473 C472 1.377 . S
C473 C474 1.379 . S
C474 H458 0.931 . S
C474 C468 1.383 . S
C474 C473 1.379 . S
H475 C469 0.959 . S
H476 C469 0.961 . S
H477 C469 0.960 . S
H478 C470 0.930 . S
H479 C471 0.929 . S
H480 C488 0.929 . S
H481 C490 0.930 . S
H482 C492 0.930 . S
H483 C495 0.929 1_655 S
H484 C498 0.930 . S
H485 C500 0.960 . S
H486 C500 0.960 . S
H487 C500 0.960 . S
C488 H480 0.929 . S
C488 C489 1.377 . S
C488 C490 1.384 . S
C489 C488 1.377 . S
C489 C495 1.390 . S
C490 H481 0.930 . S
C490 C488 1.384 . S
C490 C491 1.372 . S
C491 C490 1.372 . S
C491 C492 1.400 . S
C491 C496 1.490 . S
C492 H482 0.930 . S
C492 C491 1.400 . S
C492 C495 1.386 . S
H493 C509 0.930 . S
H494 C510 0.931 . S
C495 H483 0.929 1_455 S
C495 C489 1.390 . S
C495 C492 1.386 . S
C496 C491 1.490 . S
C496 C498 1.395 . S
C496 C499 1.403 . S
H497 C503 0.930 . S
C498 H484 0.930 . S
C498 C496 1.395 . S
C498 C501 1.403 . S
C499 C496 1.403 . S
C499 C500 1.524 . S
C499 C503 1.400 . S
C500 H485 0.960 . S
C500 H486 0.960 . S
C500 H487 0.960 . S
C500 C499 1.524 . S
C501 C498 1.403 . S
C501 C502 1.392 . S
C501 C505 1.495 . S
C502 C501 1.392 . S
C502 C503 1.385 . S
C502 C504 1.478 . S
C503 H497 0.930 . S
C503 C499 1.400 . S
C503 C502 1.385 . S
C504 C502 1.478 . S
C504 C506 1.381 . S
C504 C510 1.383 . S
C505 C501 1.495 . S
C505 H511 0.959 . S
C505 H512 0.961 . S
C505 H513 0.960 . S
C506 C504 1.381 . S
C506 C507 1.394 . S
C506 H514 0.930 . S
C507 C506 1.394 . S
C507 C508 1.383 . S
C507 H515 0.929 . S
C508 C507 1.383 . S
C508 C509 1.377 . S
C509 H493 0.930 . S
C509 C508 1.377 . S
C509 C510 1.379 . S
C510 H494 0.931 . S
C510 C504 1.383 . S
C510 C509 1.379 . S
H511 C505 0.959 . S
H512 C505 0.961 . S
H513 C505 0.960 . S
H514 C506 0.930 . S
H515 C507 0.929 . S
H516 C524 0.929 1_565 S
H517 C526 0.930 . S
H518 C528 0.930 . S
H519 C531 0.929 . S
H520 C534 0.930 . S
H521 C536 0.960 . S
H522 C536 0.960 . S
H523 C536 0.960 . S
C524 H516 0.929 1_545 S
C524 C525 1.377 . S
C524 C526 1.384 . S
C525 C524 1.377 . S
C525 C531 1.390 . S
C526 H517 0.930 . S
C526 C524 1.384 . S
C526 C527 1.372 . S
C527 C526 1.372 . S
C527 C528 1.400 . S
C527 C532 1.490 . S
C528 H518 0.930 . S
C528 C527 1.400 . S
C528 C531 1.386 . S
H529 C545 0.930 . S
H530 C546 0.931 . S
C531 H519 0.929 . S
C531 C525 1.390 . S
C531 C528 1.386 . S
C532 C527 1.490 . S
C532 C534 1.395 . S
C532 C535 1.403 . S
H533 C539 0.930 . S
C534 H520 0.930 . S
C534 C532 1.395 . S
C534 C537 1.403 . S
C535 C532 1.403 . S
C535 C536 1.524 . S
C535 C539 1.400 . S
C536 H521 0.960 . S
C536 H522 0.960 . S
C536 H523 0.960 . S
C536 C535 1.524 . S
C537 C534 1.403 . S
C537 C538 1.392 . S
C537 C541 1.495 . S
C538 C537 1.392 . S
C538 C539 1.385 . S
C538 C540 1.478 . S
C539 H533 0.930 . S
C539 C535 1.400 . S
C539 C538 1.385 . S
C540 C538 1.478 . S
C540 C542 1.381 . S
C540 C546 1.383 . S
C541 C537 1.495 . S
C541 H547 0.959 . S
C541 H548 0.961 . S
C541 H549 0.960 . S
C542 C540 1.381 . S
C542 C543 1.394 . S
C542 H550 0.930 . S
C543 C542 1.394 . S
C543 C544 1.383 . S
C543 H551 0.929 . S
C544 C543 1.383 . S
C544 C545 1.377 . S
C545 H529 0.930 . S
C545 C544 1.377 . S
C545 C546 1.379 . S
C546 H530 0.931 . S
C546 C540 1.383 . S
C546 C545 1.379 . S
H547 C541 0.959 . S
H548 C541 0.961 . S
H549 C541 0.960 . S
H550 C542 0.930 . S
H551 C543 0.929 . S
H552 C560 0.929 . S
H553 C562 0.930 . S
H554 C564 0.938 . S
H555 C567 0.929 1_455 S
H556 C570 0.930 . S
H557 C572 0.960 . S
H558 C572 0.960 . S
H559 C572 0.937 1_455 S
C560 H552 0.929 . S
C560 C561 1.377 . S
C560 C562 1.384 . S
C561 C560 1.377 . S
C561 C567 1.390 . S
C562 H553 0.930 . S
C562 C560 1.384 . S
C562 C563 1.372 . S
C563 C562 1.372 . S
C563 C564 1.400 . S
C563 C568 1.490 . S
C564 H554 0.938 . S
C564 C563 1.400 . S
C564 C567 1.386 . S
H565 C581 0.930 . S
H566 C582 0.931 . S
C567 H555 0.929 1_655 S
C567 C561 1.390 . S
C567 C564 1.386 . S
C568 C563 1.490 . S
C568 C570 1.395 . S
C568 C571 1.403 . S
H569 C575 0.930 . S
C570 H556 0.930 . S
C570 C568 1.395 . S
C570 C573 1.403 . S
C571 C568 1.403 . S
C571 C572 1.524 . S
C571 C575 1.400 . S
C572 H557 0.960 . S
C572 H558 0.960 . S
C572 H559 0.937 1_655 S
C572 C571 1.524 . S
C573 C570 1.403 . S
C573 C574 1.392 . S
C573 C577 1.495 . S
C574 C573 1.392 . S
C574 C575 1.385 . S
C574 C576 1.478 . S
C575 H569 0.930 . S
C575 C571 1.400 . S
C575 C574 1.385 . S
C576 C574 1.478 . S
C576 C578 1.381 . S
C576 C582 1.383 . S
C577 C573 1.495 . S
C577 H583 0.959 . S
C577 H584 0.961 . S
C577 H585 0.960 . S
C578 C576 1.381 . S
C578 C579 1.394 . S
C578 H586 0.930 . S
C579 C578 1.394 . S
C579 C580 1.383 . S
C579 H587 0.929 . S
C580 C579 1.383 . S
C580 C581 1.377 . S
C581 H565 0.930 . S
C581 C580 1.377 . S
C581 C582 1.379 . S
C582 H566 0.931 . S
C582 C576 1.383 . S
C582 C581 1.379 . S
H583 C577 0.959 . S
H584 C577 0.961 . S
H585 C577 0.960 . S
H586 C578 0.930 . S
H587 C579 0.929 . S
H588 C596 0.929 . S
H589 C598 0.930 . S
H590 C600 0.930 . S
H591 C603 0.929 . S
H592 C606 0.930 . S
H593 C608 0.960 . S
H594 C608 0.960 . S
H595 C608 0.960 . S
C596 H588 0.929 . S
C596 C597 1.377 . S
C596 C598 1.384 . S
C597 C596 1.377 . S
C597 C603 1.390 . S
C598 H589 0.930 . S
C598 C596 1.384 . S
C598 C599 1.372 . S
C599 C598 1.372 . S
C599 C600 1.400 . S
C599 C604 1.490 . S
C600 H590 0.930 . S
C600 C599 1.400 . S
C600 C603 1.386 . S
H601 C617 0.930 . S
H602 C618 0.931 . S
C603 H591 0.929 . S
C603 C597 1.390 . S
C603 C600 1.386 . S
C604 C599 1.490 . S
C604 C606 1.395 . S
C604 C607 1.403 . S
H605 C611 0.930 . S
C606 H592 0.930 . S
C606 C604 1.395 . S
C606 C609 1.403 . S
C607 C604 1.403 . S
C607 C608 1.524 . S
C607 C611 1.400 . S
C608 H593 0.960 . S
C608 H594 0.960 . S
C608 H595 0.960 . S
C608 C607 1.524 . S
C609 C606 1.403 . S
C609 C610 1.392 . S
C609 C613 1.495 . S
C610 C609 1.392 . S
C610 C611 1.385 . S
C610 C612 1.478 . S
C611 H605 0.930 . S
C611 C607 1.400 . S
C611 C610 1.385 . S
C612 C610 1.478 . S
C612 C614 1.381 . S
C612 C618 1.383 . S
C613 C609 1.495 . S
C613 H619 0.977 . S
C613 H620 0.961 . S
C613 H621 0.960 . S
C614 C612 1.381 . S
C614 C615 1.394 . S
C614 H622 0.930 . S
C615 C614 1.394 . S
C615 C616 1.383 . S
C615 H623 0.929 . S
C616 C615 1.383 . S
C616 C617 1.377 . S
C617 H601 0.930 . S
C617 C616 1.377 . S
C617 C618 1.379 . S
C618 H602 0.931 . S
C618 C612 1.383 . S
C618 C617 1.379 . S
H619 C613 0.977 . S
H620 C613 0.961 . S
H621 C613 0.960 . S
H622 C614 0.930 . S
H623 C615 0.929 . S
H624 C632 0.929 . S
H625 C634 0.930 . S
H626 C636 0.930 . S
H627 C639 0.929 . S
H628 C642 0.930 . S
H629 C644 0.960 . S
H630 C644 0.960 . S
H631 C644 0.960 . S
C632 H624 0.929 . S
C632 C633 1.377 . S
C632 C634 1.384 . S
C633 C632 1.377 . S
C633 C639 1.390 . S
C634 H625 0.930 . S
C634 C632 1.384 . S
C634 C635 1.372 . S
C635 C634 1.372 . S
C635 C636 1.400 . S
C635 C640 1.490 . S
C636 H626 0.930 . S
C636 C635 1.400 . S
C636 C639 1.386 . S
H637 C653 0.930 . S
H638 C654 0.931 . S
C639 H627 0.929 . S
C639 C633 1.390 . S
C639 C636 1.386 . S
C640 C635 1.490 . S
C640 C642 1.395 . S
C640 C643 1.403 . S
H641 C647 0.930 . S
C642 H628 0.930 . S
C642 C640 1.395 . S
C642 C645 1.403 . S
C643 C640 1.403 . S
C643 C644 1.524 . S
C643 C647 1.400 . S
C644 H629 0.960 . S
C644 H630 0.960 . S
C644 H631 0.960 . S
C644 C643 1.524 . S
C645 C642 1.403 . S
C645 C646 1.392 . S
C645 C649 1.495 . S
C646 C645 1.392 . S
C646 C647 1.385 . S
C646 C648 1.478 . S
C647 H641 0.930 . S
C647 C643 1.400 . S
C647 C646 1.385 . S
C648 C646 1.478 . S
C648 C650 1.381 . S
C648 C654 1.383 . S
C649 C645 1.495 . S
C649 H655 0.959 . S
C649 H656 0.961 . S
C649 H657 0.960 . S
C650 C648 1.381 . S
C650 C651 1.394 . S
C650 H658 0.930 . S
C651 C650 1.394 . S
C651 C652 1.383 . S
C651 H659 0.929 . S
C652 C651 1.383 . S
C652 C653 1.377 . S
C653 H637 0.930 . S
C653 C652 1.377 . S
C653 C654 1.379 . S
C654 H638 0.931 . S
C654 C648 1.383 . S
C654 C653 1.379 . S
H655 C649 0.959 . S
H656 C649 0.961 . S
H657 C649 0.960 . S
H658 C650 0.930 . S
H659 C651 0.929 . S
H660 C668 0.929 . S
H661 C670 0.930 . S
H662 C672 0.930 . S
H663 C675 0.929 . S
H664 C678 0.930 . S
H665 C680 0.960 . S
H666 C680 0.960 . S
H667 C680 0.960 . S
C668 H660 0.929 . S
C668 C669 1.377 . S
C668 C670 1.384 . S
C669 C668 1.377 . S
C669 C675 1.390 . S
C670 H661 0.930 . S
C670 C668 1.384 . S
C670 C671 1.372 . S
C671 C670 1.372 . S
C671 C672 1.400 . S
C671 C676 1.490 . S
C672 H662 0.930 . S
C672 C671 1.400 . S
C672 C675 1.386 . S
H673 C689 0.930 . S
H674 C690 0.931 . S
C675 H663 0.929 . S
C675 C669 1.390 . S
C675 C672 1.386 . S
C676 C671 1.490 . S
C676 C678 1.395 . S
C676 C679 1.403 . S
H677 C683 0.930 . S
C678 H664 0.930 . S
C678 C676 1.395 . S
C678 C681 1.403 . S
C679 C676 1.403 . S
C679 C680 1.524 . S
C679 C683 1.400 . S
C680 H665 0.960 . S
C680 H666 0.960 . S
C680 H667 0.960 . S
C680 C679 1.524 . S
C681 C678 1.403 . S
C681 C682 1.392 . S
C681 C685 1.495 . S
C682 C681 1.392 . S
C682 C683 1.385 . S
C682 C684 1.478 . S
C683 H677 0.930 . S
C683 C679 1.400 . S
C683 C682 1.385 . S
C684 C682 1.478 . S
C684 C686 1.381 . S
C684 C690 1.383 . S
C685 C681 1.495 . S
C685 H691 0.959 . S
C685 H692 0.961 . S
C685 H693 0.960 . S
C686 C684 1.381 . S
C686 C687 1.394 . S
C686 H694 0.930 . S
C687 C686 1.394 . S
C687 C688 1.383 . S
C687 H695 0.929 . S
C688 C687 1.383 . S
C688 C689 1.377 . S
C689 H673 0.930 . S
C689 C688 1.377 . S
C689 C690 1.379 . S
C690 H674 0.931 . S
C690 C684 1.383 . S
C690 C689 1.379 . S
H691 C685 0.959 . S
H692 C685 0.961 . S
H693 C685 0.960 . S
H694 C686 0.930 . S
H695 C687 0.929 . S
H696 C704 0.929 . S
H697 C706 0.930 . S
H698 C708 0.930 . S
H699 C711 0.929 . S
H700 C714 0.930 . S
H701 C716 0.960 . S
H702 C716 0.960 . S
H703 C716 0.960 . S
C704 H696 0.929 . S
C704 C705 1.377 . S
C704 C706 1.384 . S
C705 C704 1.377 . S
C705 C711 1.390 . S
C706 H697 0.930 . S
C706 C704 1.384 . S
C706 C707 1.372 . S
C707 C706 1.372 . S
C707 C708 1.400 . S
C707 C712 1.490 . S
C708 H698 0.930 . S
C708 C707 1.400 . S
C708 C711 1.386 . S
H709 C725 0.930 . S
H710 C726 0.931 . S
C711 H699 0.929 . S
C711 C705 1.390 . S
C711 C708 1.386 . S
C712 C707 1.490 . S
C712 C714 1.395 . S
C712 C715 1.403 . S
H713 C719 0.930 . S
C714 H700 0.930 . S
C714 C712 1.395 . S
C714 C717 1.403 . S
C715 C712 1.403 . S
C715 C716 1.524 . S
C715 C719 1.400 . S
C716 H701 0.960 . S
C716 H702 0.960 . S
C716 H703 0.960 . S
C716 C715 1.524 . S
C717 C714 1.403 . S
C717 C718 1.392 . S
C717 C721 1.495 . S
C718 C717 1.392 . S
C718 C719 1.385 . S
C718 C720 1.478 . S
C719 H713 0.930 . S
C719 C715 1.400 . S
C719 C718 1.385 . S
C720 C718 1.478 . S
C720 C722 1.381 . S
C720 C726 1.383 . S
C721 C717 1.495 . S
C721 H727 0.959 . S
C721 H728 0.961 . S
C721 H729 0.960 . S
C722 C720 1.381 . S
C722 C723 1.394 . S
C722 H730 0.930 . S
C723 C722 1.394 . S
C723 C724 1.383 . S
C723 H731 0.929 . S
C724 C723 1.383 . S
C724 C725 1.377 . S
C725 H709 0.930 . S
C725 C724 1.377 . S
C725 C726 1.379 . S
C726 H710 0.931 . S
C726 C720 1.383 . S
C726 C725 1.379 . S
H727 C721 0.959 . S
H728 C721 0.961 . S
H729 C721 0.960 . S
H730 C722 0.930 . S
H731 C723 0.929 . S
H732 C740 0.929 . S
H733 C742 0.930 . S
H734 C744 0.930 . S
H735 C747 0.929 . S
H736 C750 0.930 . S
H737 C752 0.960 . S
H738 C752 0.960 . S
H739 C752 0.960 . S
C740 H732 0.929 . S
C740 C741 1.377 . S
C740 C742 1.384 . S
C741 C740 1.377 . S
C741 C747 1.390 . S
C742 H733 0.930 . S
C742 C740 1.384 . S
C742 C743 1.372 . S
C743 C742 1.372 . S
C743 C744 1.400 . S
C743 C748 1.490 . S
C744 H734 0.930 . S
C744 C743 1.400 . S
C744 C747 1.386 . S
H745 C761 0.930 . S
H746 C762 0.931 . S
C747 H735 0.929 . S
C747 C741 1.390 . S
C747 C744 1.386 . S
C748 C743 1.490 . S
C748 C750 1.395 . S
C748 C751 1.403 . S
H749 C755 0.930 . S
C750 H736 0.930 . S
C750 C748 1.395 . S
C750 C753 1.403 . S
C751 C748 1.403 . S
C751 C752 1.524 . S
C751 C755 1.400 . S
C752 H737 0.960 . S
C752 H738 0.960 . S
C752 H739 0.960 . S
C752 C751 1.524 . S
C753 C750 1.403 . S
C753 C754 1.392 . S
C753 C757 1.495 . S
C754 C753 1.392 . S
C754 C755 1.385 . S
C754 C756 1.478 . S
C755 H749 0.930 . S
C755 C751 1.400 . S
C755 C754 1.385 . S
C756 C754 1.478 . S
C756 C758 1.381 . S
C756 C762 1.383 . S
C757 C753 1.495 . S
C757 H763 0.959 1_655 S
C757 H764 0.961 . S
C757 H765 0.960 . S
C758 C756 1.381 . S
C758 C759 1.394 . S
C758 H766 0.930 . S
C759 C758 1.394 . S
C759 C760 1.383 . S
C759 H767 0.929 . S
C760 C759 1.383 . S
C760 C761 1.377 . S
C761 H745 0.930 . S
C761 C760 1.377 . S
C761 C762 1.379 . S
C762 H746 0.931 . S
C762 C756 1.383 . S
C762 C761 1.379 . S
H763 C757 0.959 1_455 S
H764 C757 0.961 . S
H765 C757 0.960 . S
H766 C758 0.930 . S
H767 C759 0.929 . S
H768 C776 0.929 . S
H769 C778 0.930 . S
H770 C780 0.930 . S
H771 C783 0.929 . S
H772 C786 0.930 . S
H773 C788 0.960 . S
H774 C788 0.960 . S
H775 C788 0.960 . S
C776 H768 0.929 . S
C776 C777 1.377 . S
C776 C778 1.384 . S
C777 C776 1.377 . S
C777 C783 1.390 . S
C778 H769 0.930 . S
C778 C776 1.384 . S
C778 C779 1.372 . S
C779 C778 1.372 . S
C779 C780 1.400 . S
C779 C784 1.490 . S
C780 H770 0.930 . S
C780 C779 1.400 . S
C780 C783 1.386 . S
H781 C797 0.930 . S
H782 C798 0.931 . S
C783 H771 0.929 . S
C783 C777 1.390 . S
C783 C780 1.386 . S
C784 C779 1.490 . S
C784 C786 1.395 . S
C784 C787 1.403 . S
H785 C791 0.930 . S
C786 H772 0.930 . S
C786 C784 1.395 . S
C786 C789 1.403 . S
C787 C784 1.403 . S
C787 C788 1.524 . S
C787 C791 1.400 . S
C788 H773 0.960 . S
C788 H774 0.960 . S
C788 H775 0.960 . S
C788 C787 1.524 . S
C789 C786 1.403 . S
C789 C790 1.392 . S
C789 C793 1.495 . S
C790 C789 1.392 . S
C790 C791 1.385 . S
C790 C792 1.478 . S
C791 H785 0.930 . S
C791 C787 1.400 . S
C791 C790 1.385 . S
C792 C790 1.478 . S
C792 C794 1.381 . S
C792 C798 1.383 . S
C793 C789 1.495 . S
C793 H799 0.959 . S
C793 H800 0.961 . S
C793 H801 0.960 . S
C794 C792 1.381 . S
C794 C795 1.394 . S
C794 H802 0.930 . S
C795 C794 1.394 . S
C795 C796 1.383 . S
C795 H803 0.929 . S
C796 C795 1.383 . S
C796 C797 1.377 . S
C797 H781 0.930 . S
C797 C796 1.377 . S
C797 C798 1.379 . S
C798 H782 0.931 . S
C798 C792 1.383 . S
C798 C797 1.379 . S
H799 C793 0.959 . S
H800 C793 0.961 . S
H801 C793 0.960 . S
H802 C794 0.930 . S
H803 C795 0.929 . S
H804 C812 0.929 . S
H805 C814 0.930 . S
H806 C816 0.930 . S
H807 C819 0.929 . S
H808 C822 0.930 . S
H809 C824 0.960 . S
H810 C824 0.960 . S
H811 C824 0.960 . S
C812 H804 0.929 . S
C812 C813 1.377 . S
C812 C814 1.384 . S
C813 C812 1.377 . S
C813 C819 1.390 . S
C814 H805 0.930 . S
C814 C812 1.384 . S
C814 C815 1.372 . S
C815 C814 1.372 . S
C815 C816 1.400 . S
C815 C820 1.490 . S
C816 H806 0.930 . S
C816 C815 1.400 . S
C816 C819 1.386 . S
H817 C833 0.930 . S
H818 C834 0.931 . S
C819 H807 0.929 . S
C819 C813 1.390 . S
C819 C816 1.386 . S
C820 C815 1.490 . S
C820 C822 1.395 . S
C820 C823 1.403 . S
H821 C827 0.930 . S
C822 H808 0.930 . S
C822 C820 1.395 . S
C822 C825 1.403 . S
C823 C820 1.403 . S
C823 C824 1.524 . S
C823 C827 1.400 . S
C824 H809 0.960 . S
C824 H810 0.960 . S
C824 H811 0.960 . S
C824 C823 1.524 . S
C825 C822 1.403 . S
C825 C826 1.392 . S
C825 C829 1.495 . S
C826 C825 1.392 . S
C826 C827 1.385 . S
C826 C828 1.478 . S
C827 H821 0.930 . S
C827 C823 1.400 . S
C827 C826 1.385 . S
C828 C826 1.478 . S
C828 C830 1.381 . S
C828 C834 1.383 . S
C829 C825 1.495 . S
C829 H835 0.959 . S
C829 H836 0.961 . S
C829 H837 0.960 . S
C830 C828 1.381 . S
C830 C831 1.394 . S
C830 H838 0.930 . S
C831 C830 1.394 . S
C831 C832 1.383 . S
C831 H839 0.929 . S
C832 C831 1.383 . S
C832 C833 1.377 . S
C833 H817 0.930 . S
C833 C832 1.377 . S
C833 C834 1.379 . S
C834 H818 0.931 . S
C834 C828 1.383 . S
C834 C833 1.379 . S
H835 C829 0.959 . S
H836 C829 0.961 . S
H837 C829 0.960 . S
H838 C830 0.930 . S
H839 C831 0.929 . S
H840 C848 0.929 . S
H841 C850 0.930 . S
H842 C852 0.930 . S
H843 C855 0.929 . S
H844 C858 0.930 . S
H845 C860 0.960 . S
H846 C860 0.960 . S
H847 C860 0.960 . S
C848 H840 0.929 . S
C848 C849 1.377 . S
C848 C850 1.384 . S
C849 C848 1.377 . S
C849 C855 1.390 . S
C850 H841 0.930 . S
C850 C848 1.384 . S
C850 C851 1.372 . S
C851 C850 1.372 . S
C851 C852 1.400 . S
C851 C856 1.490 . S
C852 H842 0.930 . S
C852 C851 1.400 . S
C852 C855 1.386 . S
H853 C869 0.930 . S
H854 C870 0.931 . S
C855 H843 0.929 . S
C855 C849 1.390 . S
C855 C852 1.386 . S
C856 C851 1.490 . S
C856 C858 1.395 . S
C856 C859 1.403 . S
H857 C863 0.930 . S
C858 H844 0.930 . S
C858 C856 1.395 . S
C858 C861 1.403 . S
C859 C856 1.403 . S
C859 C860 1.524 . S
C859 C863 1.400 . S
C860 H845 0.960 . S
C860 H846 0.960 . S
C860 H847 0.960 . S
C860 C859 1.524 . S
C861 C858 1.403 . S
C861 C862 1.392 . S
C861 C865 1.495 . S
C862 C861 1.392 . S
C862 C863 1.385 . S
C862 C864 1.478 . S
C863 H857 0.930 . S
C863 C859 1.400 . S
C863 C862 1.385 . S
C864 C862 1.478 . S
C864 C866 1.381 . S
C864 C870 1.383 . S
C865 C861 1.495 . S
C865 H871 0.959 . S
C865 H872 0.961 . S
C865 H873 0.960 . S
C866 C864 1.381 . S
C866 C867 1.394 . S
C866 H874 0.930 . S
C867 C866 1.394 . S
C867 C868 1.383 . S
C867 H875 0.929 . S
C868 C867 1.383 . S
C868 C869 1.377 . S
C869 H853 0.930 . S
C869 C868 1.377 . S
C869 C870 1.379 . S
C870 H854 0.931 . S
C870 C864 1.383 . S
C870 C869 1.379 . S
H871 C865 0.959 . S
H872 C865 0.961 . S
H873 C865 0.960 . S
H874 C866 0.930 . S
H875 C867 0.929 . S
H876 C884 0.929 . S
H877 C886 0.930 . S
H878 C888 0.930 . S
H879 C891 0.929 . S
H880 C894 0.930 . S
H881 C896 0.960 . S
H882 C896 0.960 . S
H883 C896 0.960 . S
C884 H876 0.929 . S
C884 C885 1.377 . S
C884 C886 1.384 . S
C885 C884 1.377 . S
C885 C891 1.390 . S
C886 H877 0.930 . S
C886 C884 1.384 . S
C886 C887 1.372 . S
C887 C886 1.372 . S
C887 C888 1.400 . S
C887 C892 1.490 . S
C888 H878 0.930 . S
C888 C887 1.400 . S
C888 C891 1.386 . S
H889 C905 0.930 . S
H890 C906 0.931 . S
C891 H879 0.929 . S
C891 C885 1.390 . S
C891 C888 1.386 . S
C892 C887 1.490 . S
C892 C894 1.395 . S
C892 C895 1.403 . S
H893 C899 0.930 . S
C894 H880 0.930 . S
C894 C892 1.395 . S
C894 C897 1.403 . S
C895 C892 1.403 . S
C895 C896 1.524 . S
C895 C899 1.400 . S
C896 H881 0.960 . S
C896 H882 0.960 . S
C896 H883 0.960 . S
C896 C895 1.524 . S
C897 C894 1.403 . S
C897 C898 1.392 . S
C897 C901 1.495 . S
C898 C897 1.392 . S
C898 C899 1.385 . S
C898 C900 1.478 . S
C899 H893 0.930 . S
C899 C895 1.400 . S
C899 C898 1.385 . S
C900 C898 1.478 . S
C900 C902 1.381 . S
C900 C906 1.383 . S
C901 C897 1.495 . S
C901 H907 0.959 . S
C901 H908 0.961 . S
C901 H909 0.960 . S
C902 C900 1.381 . S
C902 C903 1.394 . S
C902 H910 0.930 . S
C903 C902 1.394 . S
C903 C904 1.383 . S
C903 H911 0.929 . S
C904 C903 1.383 . S
C904 C905 1.377 . S
C905 H889 0.930 . S
C905 C904 1.377 . S
C905 C906 1.379 . S
C906 H890 0.931 . S
C906 C900 1.383 . S
C906 C905 1.379 . S
H907 C901 0.959 . S
H908 C901 0.961 . S
H909 C901 0.960 . S
H910 C902 0.930 . S
H911 C903 0.929 . S
H912 C920 0.929 . S
H913 C922 0.930 . S
H914 C924 0.930 . S
H915 C927 0.929 . S
H916 C930 0.930 . S
H917 C932 0.960 . S
H918 C932 0.960 . S
H919 C932 0.960 . S
C920 H912 0.929 . S
C920 C921 1.377 . S
C920 C922 1.384 . S
C921 C920 1.377 . S
C921 C927 1.390 . S
C922 H913 0.930 . S
C922 C920 1.384 . S
C922 C923 1.372 . S
C923 C922 1.372 . S
C923 C924 1.400 . S
C923 C928 1.490 . S
C924 H914 0.930 . S
C924 C923 1.400 . S
C924 C927 1.386 . S
H925 C941 0.930 . S
H926 C942 0.931 . S
C927 H915 0.929 . S
C927 C921 1.390 . S
C927 C924 1.386 . S
C928 C923 1.490 . S
C928 C930 1.395 . S
C928 C931 1.403 . S
H929 C935 0.930 . S
C930 H916 0.930 . S
C930 C928 1.395 . S
C930 C933 1.403 . S
C931 C928 1.403 . S
C931 C932 1.524 . S
C931 C935 1.400 . S
C932 H917 0.960 . S
C932 H918 0.960 . S
C932 H919 0.960 . S
C932 C931 1.524 . S
C933 C930 1.403 . S
C933 C934 1.392 . S
C933 C937 1.495 . S
C934 C933 1.392 . S
C934 C935 1.385 . S
C934 C936 1.478 . S
C935 H929 0.930 . S
C935 C931 1.400 . S
C935 C934 1.385 . S
C936 C934 1.478 . S
C936 C938 1.381 . S
C936 C942 1.383 . S
C937 C933 1.495 . S
C937 H943 0.959 . S
C937 H944 0.961 . S
C937 H945 0.960 . S
C938 C936 1.381 . S
C938 C939 1.394 . S
C938 H946 0.930 . S
C939 C938 1.394 . S
C939 C940 1.383 . S
C939 H947 0.929 . S
C940 C939 1.383 . S
C940 C941 1.377 . S
C941 H925 0.930 . S
C941 C940 1.377 . S
C941 C942 1.379 . S
C942 H926 0.931 . S
C942 C936 1.383 . S
C942 C941 1.379 . S
H943 C937 0.959 . S
H944 C937 0.961 . S
H945 C937 0.960 . S
H946 C938 0.930 . S
H947 C939 0.929 . S
H948 C956 0.929 . S
H949 C958 0.930 . S
H950 C960 0.930 . S
H951 C963 0.929 . S
H952 C966 0.930 . S
H953 C968 0.960 . S
H954 C968 0.960 . S
H955 C968 0.960 . S
C956 H948 0.929 . S
C956 C957 1.377 . S
C956 C958 1.384 . S
C957 C956 1.377 . S
C957 C963 1.390 . S
C958 H949 0.930 . S
C958 C956 1.384 . S
C958 C959 1.372 . S
C959 C958 1.372 . S
C959 C960 1.400 . S
C959 C964 1.490 . S
C960 H950 0.930 . S
C960 C959 1.400 . S
C960 C963 1.386 . S
H961 C977 0.930 . S
H962 C978 0.931 . S
C963 H951 0.929 . S
C963 C957 1.390 . S
C963 C960 1.386 . S
C964 C959 1.490 . S
C964 C966 1.395 . S
C964 C967 1.403 . S
H965 C971 0.930 . S
C966 H952 0.930 . S
C966 C964 1.395 . S
C966 C969 1.403 . S
C967 C964 1.403 . S
C967 C968 1.524 . S
C967 C971 1.400 . S
C968 H953 0.960 . S
C968 H954 0.960 . S
C968 H955 0.960 . S
C968 C967 1.524 . S
C969 C966 1.403 . S
C969 C970 1.392 . S
C969 C973 1.495 . S
C970 C969 1.392 . S
C970 C971 1.385 . S
C970 C972 1.478 . S
C971 H965 0.930 . S
C971 C967 1.400 . S
C971 C970 1.385 . S
C972 C970 1.478 . S
C972 C974 1.381 . S
C972 C978 1.383 . S
C973 C969 1.495 . S
C973 H979 0.959 . S
C973 H980 0.961 . S
C973 H981 0.960 . S
C974 C972 1.381 . S
C974 C975 1.394 . S
C974 H982 0.930 . S
C975 C974 1.394 . S
C975 C976 1.383 . S
C975 H983 0.929 . S
C976 C975 1.383 . S
C976 C977 1.377 . S
C977 H961 0.930 . S
C977 C976 1.377 . S
C977 C978 1.379 . S
C978 H962 0.931 . S
C978 C972 1.383 . S
C978 C977 1.379 . S
H979 C973 0.959 . S
H980 C973 0.961 . S
H981 C973 0.960 . S
H982 C974 0.930 . S
H983 C975 0.929 . S
H984 C992 0.929 . S
H985 C994 0.930 . S
H986 C996 0.930 . S
H987 C999 0.929 . S
H988 C1002 0.930 . S
H989 C1004 0.960 . S
H990 C1004 0.960 . S
H991 C1004 0.960 . S
C992 H984 0.929 . S
C992 C993 1.377 . S
C992 C994 1.384 . S
C993 C992 1.377 . S
C993 C999 1.390 . S
C994 H985 0.930 . S
C994 C992 1.384 . S
C994 C995 1.372 . S
C995 C994 1.372 . S
C995 C996 1.400 . S
C995 C1000 1.490 . S
C996 H986 0.930 . S
C996 C995 1.400 . S
C996 C999 1.386 . S
H997 C1013 0.930 . S
H998 C1014 0.931 . S
C999 H987 0.929 . S
C999 C993 1.390 . S
C999 C996 1.386 . S
C1000 C995 1.490 . S
C1000 C1002 1.395 . S
C1000 C1003 1.403 . S
H1001 C1007 0.930 . S
C1002 H988 0.930 . S
C1002 C1000 1.395 . S
C1002 C1005 1.403 . S
C1003 C1000 1.403 . S
C1003 C1004 1.524 . S
C1003 C1007 1.400 . S
C1004 H989 0.960 . S
C1004 H990 0.960 . S
C1004 H991 0.960 . S
C1004 C1003 1.524 . S
C1005 C1002 1.403 . S
C1005 C1006 1.392 . S
C1005 C1009 1.495 . S
C1006 C1005 1.392 . S
C1006 C1007 1.385 . S
C1006 C1008 1.478 . S
C1007 H1001 0.930 . S
C1007 C1003 1.400 . S
C1007 C1006 1.385 . S
C1008 C1006 1.478 . S
C1008 C1010 1.381 . S
C1008 C1014 1.383 . S
C1009 C1005 1.495 . S
C1009 H1015 0.959 . S
C1009 H1016 0.961 . S
C1009 H1017 0.960 . S
C1010 C1008 1.381 . S
C1010 C1011 1.394 . S
C1010 H1018 0.930 . S
C1011 C1010 1.394 . S
C1011 C1012 1.383 . S
C1011 H1019 0.929 . S
C1012 C1011 1.383 . S
C1012 C1013 1.377 . S
C1013 H997 0.930 . S
C1013 C1012 1.377 . S
C1013 C1014 1.379 . S
C1014 H998 0.931 . S
C1014 C1008 1.383 . S
C1014 C1013 1.379 . S
H1015 C1009 0.959 . S
H1016 C1009 0.961 . S
H1017 C1009 0.960 . S
H1018 C1010 0.930 . S
H1019 C1011 0.929 . S
H1020 C1028 0.929 . S
H1021 C1030 0.930 . S
H1022 C1032 0.930 . S
H1023 C1035 0.929 . S
H1024 C1038 0.930 . S
H1025 C1040 0.960 . S
H1026 C1040 0.960 . S
H1027 C1040 0.960 . S
C1028 H1020 0.929 . S
C1028 C1029 1.377 . S
C1028 C1030 1.384 . S
C1029 C1028 1.377 . S
C1029 C1035 1.390 . S
C1030 H1021 0.930 . S
C1030 C1028 1.384 . S
C1030 C1031 1.372 . S
C1031 C1030 1.372 . S
C1031 C1032 1.400 . S
C1031 C1036 1.490 . S
C1032 H1022 0.930 . S
C1032 C1031 1.400 . S
C1032 C1035 1.386 . S
H1033 C1049 0.930 . S
H1034 C1050 0.931 . S
C1035 H1023 0.929 . S
C1035 C1029 1.390 . S
C1035 C1032 1.386 . S
C1036 C1031 1.490 . S
C1036 C1038 1.395 . S
C1036 C1039 1.403 . S
H1037 C1043 0.930 . S
C1038 H1024 0.930 . S
C1038 C1036 1.395 . S
C1038 C1041 1.403 . S
C1039 C1036 1.403 . S
C1039 C1040 1.524 . S
C1039 C1043 1.400 . S
C1040 H1025 0.960 . S
C1040 H1026 0.960 . S
C1040 H1027 0.960 . S
C1040 C1039 1.524 . S
C1041 C1038 1.403 . S
C1041 C1042 1.392 . S
C1041 C1045 1.495 . S
C1042 C1041 1.392 . S
C1042 C1043 1.385 . S
C1042 C1044 1.478 . S
C1043 H1037 0.930 . S
C1043 C1039 1.400 . S
C1043 C1042 1.385 . S
C1044 C1042 1.478 . S
C1044 C1046 1.381 . S
C1044 C1050 1.383 . S
C1045 C1041 1.495 . S
C1045 H1051 0.959 . S
C1045 H1052 0.961 . S
C1045 H1053 0.960 . S
C1046 C1044 1.381 . S
C1046 C1047 1.394 . S
C1046 H1054 0.930 . S
C1047 C1046 1.394 . S
C1047 C1048 1.383 . S
C1047 H1055 0.929 . S
C1048 C1047 1.383 . S
C1048 C1049 1.377 . S
C1049 H1033 0.930 . S
C1049 C1048 1.377 . S
C1049 C1050 1.379 . S
C1050 H1034 0.931 . S
C1050 C1044 1.383 . S
C1050 C1049 1.379 . S
H1051 C1045 0.959 . S
H1052 C1045 0.961 . S
H1053 C1045 0.960 . S
H1054 C1046 0.930 . S
H1055 C1047 0.929 . S
C201 C45 1.611 . S
C220 C112 1.587 . S
C237 C30 1.600 . S
C256 C123 1.619 . S
C273 C39 1.612 . S
C292 C134 1.573 . S
C328 C145 1.591 . S
C309 C34 1.599 . S
C345 C97 1.605 . S
C364 C156 1.564 . S
C400 C167 1.614 . S
C381 C82 1.599 . S
C436 C178 1.566 . S
C417 C91 1.610 . S
C472 C189 1.574 . S
C453 C86 1.596 . S
C508 C175 1.154 . S
C489 C26 1.326 . S
C544 C186 1.205 . S
C525 C36 1.478 . S
C580 C153 1.123 . S
C561 C32 1.330 . S
C616 C166 1.559 . S
C597 C42 1.519 . S
C633 C18 1.564 . S
C652 C164 1.495 . S
C688 C177 1.739 . S
C669 C50 1.772 . S
C705 C4 1.601 . S
C724 C188 1.576 . S
C741 C48 1.778 . S
C760 C155 1.784 . S
C796 C131 1.050 . S
C777 C78 1.321 . S
C813 C88 1.485 . S
C832 C142 1.194 . S
C868 C109 1.154 . S
C849 C84 1.330 . S
C904 C122 1.548 . S
C885 C94 1.523 . S
C940 C120 1.543 . S
C921 C70 1.556 . S
C976 C133 1.753 . S
C957 C102 1.775 . S
C993 C56 1.604 . S
C1012 C144 1.589 . S
C1029 C100 1.771 . S
C1048 C111 1.758 . S
