# Generated by pormake.
# Topology wbl, (4,4)-cn, num edge types: 1
# Building blocks:
#     Node 0, Type 0, BuildingBlock: MUDLON_clean_sbu_0, # of connection points: 4
#     Node 1, Type 0, BuildingBlock: MUDLON_clean_sbu_0, # of connection points: 4
#     Node 2, Type 0, BuildingBlock: MUDLON_clean_sbu_0, # of connection points: 4
#     Node 3, Type 0, BuildingBlock: MUDLON_clean_sbu_0, # of connection points: 4
#     Node 4, Type 0, BuildingBlock: MUDLON_clean_sbu_0, # of connection points: 4
#     Node 5, Type 0, BuildingBlock: MUDLON_clean_sbu_0, # of connection points: 4
#     Node 6, Type 0, BuildingBlock: MUDLON_clean_sbu_0, # of connection points: 4
#     Node 7, Type 0, BuildingBlock: MUDLON_clean_sbu_0, # of connection points: 4
#     Node 8, Type 1, BuildingBlock: QUQFOY_clean_sbu_1, # of connection points: 4
#     Node 9, Type 1, BuildingBlock: QUQFOY_clean_sbu_1, # of connection points: 4
#     Node 10, Type 1, BuildingBlock: QUQFOY_clean_sbu_1, # of connection points: 4
#     Node 11, Type 1, BuildingBlock: QUQFOY_clean_sbu_1, # of connection points: 4
#     Node 12, Type 1, BuildingBlock: QUQFOY_clean_sbu_1, # of connection points: 4
#     Node 13, Type 1, BuildingBlock: QUQFOY_clean_sbu_1, # of connection points: 4
#     Node 14, Type 1, BuildingBlock: QUQFOY_clean_sbu_1, # of connection points: 4
#     Node 15, Type 1, BuildingBlock: QUQFOY_clean_sbu_1, # of connection points: 4
#     Edge 16, Type (0, 1), BuildingBlock: EZIPEK_clean_linker_0, # of connection points: 2
#     Edge 17, Type (0, 1), BuildingBlock: EZIPEK_clean_linker_0, # of connection points: 2
#     Edge 18, Type (0, 1), BuildingBlock: EZIPEK_clean_linker_0, # of connection points: 2
#     Edge 19, Type (0, 1), BuildingBlock: EZIPEK_clean_linker_0, # of connection points: 2
#     Edge 20, Type (0, 1), BuildingBlock: EZIPEK_clean_linker_0, # of connection points: 2
#     Edge 21, Type (0, 1), BuildingBlock: EZIPEK_clean_linker_0, # of connection points: 2
#     Edge 22, Type (0, 1), BuildingBlock: EZIPEK_clean_linker_0, # of connection points: 2
#     Edge 23, Type (0, 1), BuildingBlock: EZIPEK_clean_linker_0, # of connection points: 2
#     Edge 24, Type (0, 1), BuildingBlock: EZIPEK_clean_linker_0, # of connection points: 2
#     Edge 25, Type (0, 1), BuildingBlock: EZIPEK_clean_linker_0, # of connection points: 2
#     Edge 26, Type (0, 1), BuildingBlock: EZIPEK_clean_linker_0, # of connection points: 2
#     Edge 27, Type (0, 1), BuildingBlock: EZIPEK_clean_linker_0, # of connection points: 2
#     Edge 28, Type (0, 1), BuildingBlock: EZIPEK_clean_linker_0, # of connection points: 2
#     Edge 29, Type (0, 1), BuildingBlock: EZIPEK_clean_linker_0, # of connection points: 2
#     Edge 30, Type (0, 1), BuildingBlock: EZIPEK_clean_linker_0, # of connection points: 2
#     Edge 31, Type (0, 1), BuildingBlock: EZIPEK_clean_linker_0, # of connection points: 2
#     Edge 32, Type (0, 1), BuildingBlock: EZIPEK_clean_linker_0, # of connection points: 2
#     Edge 33, Type (0, 1), BuildingBlock: EZIPEK_clean_linker_0, # of connection points: 2
#     Edge 34, Type (0, 1), BuildingBlock: EZIPEK_clean_linker_0, # of connection points: 2
#     Edge 35, Type (0, 1), BuildingBlock: EZIPEK_clean_linker_0, # of connection points: 2
#     Edge 36, Type (0, 1), BuildingBlock: EZIPEK_clean_linker_0, # of connection points: 2
#     Edge 37, Type (0, 1), BuildingBlock: EZIPEK_clean_linker_0, # of connection points: 2
#     Edge 38, Type (0, 1), BuildingBlock: EZIPEK_clean_linker_0, # of connection points: 2
#     Edge 39, Type (0, 1), BuildingBlock: EZIPEK_clean_linker_0, # of connection points: 2
#     Edge 40, Type (0, 1), BuildingBlock: EZIPEK_clean_linker_0, # of connection points: 2
#     Edge 41, Type (0, 1), BuildingBlock: EZIPEK_clean_linker_0, # of connection points: 2
#     Edge 42, Type (0, 1), BuildingBlock: EZIPEK_clean_linker_0, # of connection points: 2
#     Edge 43, Type (0, 1), BuildingBlock: EZIPEK_clean_linker_0, # of connection points: 2
#     Edge 44, Type (0, 1), BuildingBlock: EZIPEK_clean_linker_0, # of connection points: 2
#     Edge 45, Type (0, 1), BuildingBlock: EZIPEK_clean_linker_0, # of connection points: 2
#     Edge 46, Type (0, 1), BuildingBlock: EZIPEK_clean_linker_0, # of connection points: 2
#     Edge 47, Type (0, 1), BuildingBlock: EZIPEK_clean_linker_0, # of connection points: 2
# Relax obj value: 0.236
# Max RMSD: 0.253
# Mean RMSD: 0.184
data_MOF--net-wbl--node1-MUDLON_clean_sbu_0--node2-QUQFOY_clean_sbu_1--edge1-EZIPEK_clean_linker_0
_symmetry_space_group_name_H-M    P1
_symmetry_Int_Tables_number       1
_symmetry_cell_setting            triclinic
loop_
_symmetry_equiv_pos_as_xyz
'x, y, z'
_cell_length_a     25.888012
_cell_length_b     26.03838
_cell_length_c     56.881908
_cell_angle_alpha  93.189199
_cell_angle_beta   93.150288
_cell_angle_gamma 90.487004
loop_
_atom_site_label
_atom_site_type_symbol
_atom_site_fract_x
_atom_site_fract_y
_atom_site_fract_z
_atom_type_partial_charge
Mg0 Mg 0.17008 0.20523 0.37336 0.0
C1 C 0.15176 0.15324 0.41963 0.0
O2 O 0.10836 0.17889 0.419 0.0
C3 C 0.06401 0.19278 0.34579 0.0
O4 O 0.08599 0.15409 0.33455 0.0
C5 C 0.2393 0.1309 0.34763 0.0
O6 O 0.23195 0.1056 0.3665 0.0
O7 O 0.21592 0.17315 0.34481 0.0
O8 O 0.18075 0.15483 0.40242 0.0
O9 O 0.20357 0.28124 0.38365 0.0
C10 C 0.20178 0.30904 0.40277 0.0
O11 O 0.22452 0.35447 0.40427 0.0
O12 O 0.08929 0.2181 0.36245 0.0
Mg13 Mg 0.06046 0.66906 0.62106 0.0
C14 C 0.13364 0.63895 0.6624 0.0
O15 O 0.12643 0.59139 0.65383 0.0
C16 C 0.04881 0.59408 0.57851 0.0
O17 O 0.02774 0.63415 0.56888 0.0
C18 C 0.11268 0.73945 0.59066 0.0
O19 O 0.14227 0.6988 0.58934 0.0
O20 O 0.07188 0.73794 0.60211 0.0
O21 O 0.11522 0.67601 0.65112 0.0
O22 O 0.99025 0.66259 0.63992 0.0
C23 C 0.98741 0.61844 0.64829 0.0
O24 O 0.01737 0.58189 0.64019 0.0
O25 O 0.06878 0.59872 0.59943 0.0
Mg26 Mg 0.57338 0.50996 0.87457 0.0
C27 C 0.56859 0.57819 0.91498 0.0
O28 O 0.52483 0.55205 0.91234 0.0
C29 C 0.6692 0.50775 0.84572 0.0
O30 O 0.68515 0.54214 0.86236 0.0
C31 C 0.49649 0.58419 0.85715 0.0
O32 O 0.53845 0.61273 0.86114 0.0
O33 O 0.49844 0.53637 0.86074 0.0
O34 O 0.60163 0.57161 0.89938 0.0
O35 O 0.57238 0.4501 0.90009 0.0
C36 C 0.61238 0.42282 0.90353 0.0
O37 O 0.64135 0.41213 0.88571 0.0
O38 O 0.62336 0.49002 0.84577 0.0
Mg39 Mg 0.6685 0.10653 0.13587 0.0
C40 C 0.65682 0.18516 0.17181 0.0
O41 O 0.70472 0.18769 0.16542 0.0
C42 C 0.64193 0.01259 0.10407 0.0
O43 O 0.69172 0.0165 0.10103 0.0
C44 C 0.74738 0.17436 0.11222 0.0
O45 O 0.78081 0.15822 0.12831 0.0
O46 O 0.70114 0.15711 0.111 0.0
O47 O 0.62544 0.15456 0.16002 0.0
O48 O 0.7206 0.07691 0.16329 0.0
C49 C 0.71177 0.03211 0.16998 0.0
O50 O 0.69849 0.99578 0.15382 0.0
O51 O 0.62067 0.04595 0.11743 0.0
Mg52 Mg 0.09946 0.6586 0.94946 0.0
C53 C 0.06468 0.75166 0.92132 0.0
O54 O 0.01994 0.72739 0.91824 0.0
C55 C 0.01745 0.64377 0.98708 0.0
O56 O 0.0319 0.68899 0.99673 0.0
C57 C 0.18271 0.697 0.98332 0.0
O58 O 0.14751 0.73246 0.98623 0.0
O59 O 0.17219 0.65759 0.96965 0.0
O60 O 0.09711 0.73592 0.93682 0.0
O61 O 0.10218 0.61042 0.91728 0.0
C62 C 0.05801 0.59994 0.90727 0.0
O63 O 0.01643 0.61683 0.91728 0.0
O64 O 0.03767 0.62632 0.96849 0.0
Mg65 Mg 0.58353 0.59805 0.20213 0.0
C66 C 0.50829 0.55179 0.16167 0.0
O67 O 0.51924 0.50557 0.1684 0.0
C68 C 0.62007 0.55409 0.24717 0.0
O69 O 0.62186 0.60345 0.25337 0.0
C70 C 0.52804 0.67497 0.23059 0.0
O71 O 0.49572 0.63569 0.22989 0.0
O72 O 0.57041 0.67074 0.22045 0.0
O73 O 0.5217 0.59087 0.17501 0.0
O74 O 0.64825 0.59864 0.17971 0.0
C75 C 0.6537 0.55468 0.16933 0.0
O76 O 0.62691 0.5155 0.17596 0.0
O77 O 0.60026 0.53918 0.22693 0.0
Mg78 Mg 0.63739 0.10715 0.47167 0.0
C79 C 0.61055 0.17465 0.43261 0.0
O80 O 0.57912 0.1358 0.4266 0.0
C81 C 0.57239 0.06215 0.50902 0.0
O82 O 0.61717 0.04587 0.5175 0.0
C83 C 0.727 0.15602 0.49821 0.0
O84 O 0.69348 0.19361 0.49849 0.0
O85 O 0.71263 0.1116 0.48991 0.0
O86 O 0.63226 0.17782 0.45323 0.0
O87 O 0.63886 0.05158 0.44226 0.0
C88 C 0.61265 0.01015 0.43977 0.0
O89 O 0.58791 0.9939 0.45753 0.0
O90 O 0.57076 0.09053 0.49153 0.0
Mg91 Mg 0.19683 0.13109 0.70408 0.0
C92 C 0.30524 0.16462 0.68606 0.0
O93 O 0.35156 0.18534 0.69003 0.0
C94 C 0.15404 0.21254 0.73968 0.0
O95 O 0.19763 0.20811 0.75231 0.0
C96 C 0.23814 0.04975 0.73562 0.0
O97 O 0.27805 0.08149 0.73707 0.0
O98 O 0.19796 0.06083 0.72308 0.0
O99 O 0.27525 0.16341 0.70312 0.0
O100 O 0.15868 0.1243 0.6693 0.0
C101 C 0.16293 0.16602 0.65904 0.0
O102 O 0.19115 0.20295 0.67014 0.0
O103 O 0.14579 0.18555 0.72058 0.0
O104 O 0.52264 0.72879 0.99796 0.0
Cd105 Cd 0.47978 0.76646 0.02263 0.0
Cd106 Cd 0.54198 0.71574 0.05284 0.0
O107 O 0.57254 0.68559 0.02241 0.0
O108 O 0.4152 0.7848 0.00486 0.0
O109 O 0.41832 0.72736 0.03232 0.0
C110 C 0.39218 0.75038 0.01611 0.0
C111 C 0.51442 0.65833 0.07972 0.0
C112 C 0.55759 0.69587 0.00158 0.0
C113 C 0.54391 0.83153 0.05777 0.0
O114 O 0.56205 0.78972 0.06506 0.0
O115 O 0.50926 0.83141 0.04107 0.0
O116 O 0.56275 0.66953 0.07835 0.0
O117 O 0.4813 0.67942 0.06557 0.0
O118 O 0.51606 0.96434 0.334 0.0
Cd119 Cd 0.47489 0.96778 0.30209 0.0
Cd120 Cd 0.58324 0.96218 0.29019 0.0
O121 O 0.59686 0.98102 0.32561 0.0
O122 O 0.40348 0.97746 0.3132 0.0
O123 O 0.44321 0.03598 0.29387 0.0
C124 C 0.40384 0.02275 0.30525 0.0
C125 C 0.62704 0.997 0.26009 0.0
C126 C 0.563 0.9742 0.34054 0.0
C127 C 0.50872 0.87425 0.27549 0.0
O128 O 0.55479 0.88989 0.28043 0.0
O129 O 0.47008 0.90199 0.28018 0.0
O130 O 0.64917 0.96423 0.27342 0.0
O131 O 0.58188 0.0136 0.26533 0.0
O132 O 0.23743 0.00959 0.5033 0.0
Cd133 Cd 0.27971 0.97814 0.53061 0.0
Cd134 Cd 0.21956 0.03742 0.55605 0.0
O135 O 0.20713 0.07426 0.52498 0.0
O136 O 0.34826 0.96012 0.51786 0.0
O137 O 0.33794 0.02138 0.5457 0.0
C138 C 0.36774 0.99777 0.53135 0.0
C139 C 0.24792 0.08008 0.59162 0.0
C140 C 0.21408 0.05222 0.50492 0.0
C141 C 0.20268 0.92427 0.55724 0.0
O142 O 0.18173 0.96814 0.55944 0.0
O143 O 0.24628 0.91955 0.54805 0.0
O144 O 0.20106 0.08435 0.58315 0.0
O145 O 0.27972 0.05388 0.57923 0.0
O146 O 0.26305 0.72159 0.75939 0.0
Cd147 Cd 0.28408 0.77197 0.78721 0.0
Cd148 Cd 0.21312 0.72383 0.80741 0.0
O149 O 0.18531 0.71192 0.77225 0.0
O150 O 0.31044 0.83495 0.77321 0.0
O151 O 0.23773 0.83245 0.79214 0.0
C152 C 0.26889 0.85732 0.7798 0.0
C153 C 0.16366 0.75682 0.83784 0.0
C154 C 0.21624 0.70753 0.75558 0.0
C155 C 0.32417 0.70021 0.82025 0.0
O156 O 0.27796 0.68277 0.81833 0.0
O157 O 0.33524 0.74282 0.81175 0.0
O158 O 0.15758 0.70989 0.82952 0.0
O159 O 0.19579 0.78602 0.82807 0.0
O160 O 0.04819 0.25352 0.56726 0.0
Cd161 Cd 0.01354 0.29291 0.54056 0.0
Cd162 Cd 0.05536 0.21463 0.51544 0.0
O163 O 0.09326 0.19679 0.54689 0.0
O164 O 0.99286 0.35797 0.5575 0.0
O165 O 0.04866 0.356 0.52939 0.0
C166 C 0.02442 0.38211 0.54518 0.0
C167 C 0.09824 0.2439 0.48396 0.0
C168 C 0.08046 0.21709 0.56654 0.0
C169 C 0.94029 0.21773 0.51493 0.0
O170 O 0.97924 0.19064 0.50998 0.0
O171 O 0.94566 0.26184 0.5255 0.0
O172 O 0.09551 0.19532 0.48736 0.0
O173 O 0.0775 0.27594 0.49873 0.0
O174 O 0.97509 0.45896 0.81849 0.0
Cd175 Cd 0.93039 0.42325 0.79149 0.0
Cd176 Cd 0.9842 0.48243 0.76574 0.0
O177 O 0.00555 0.51991 0.79748 0.0
O178 O 0.86633 0.40484 0.80683 0.0
O179 O 0.86909 0.46235 0.77952 0.0
C180 C 0.84393 0.44077 0.79541 0.0
C181 C 0.96143 0.53053 0.73343 0.0
C182 C 1.00042 0.50048 0.8172 0.0
C183 C 0.00499 0.36824 0.76343 0.0
O184 O 0.02008 0.41324 0.75925 0.0
O185 O 0.96375 0.36155 0.7741 0.0
O186 O 0.00873 0.52749 0.74148 0.0
O187 O 0.92616 0.507 0.74405 0.0
O188 O 0.80167 0.48602 0.08409 0.0
Cd189 Cd 0.82937 0.43771 0.05819 0.0
Cd190 Cd 0.75671 0.48077 0.03203 0.0
O191 O 0.72612 0.49336 0.06491 0.0
O192 O 0.85109 0.37511 0.07453 0.0
O193 O 0.78456 0.37669 0.04818 0.0
C194 C 0.81055 0.35274 0.06418 0.0
C195 C 0.70546 0.45444 0.9983 0.0
C196 C 0.75443 0.49846 0.08393 0.0
C197 C 0.86966 0.50919 0.02667 0.0
O198 O 0.8224 0.52215 0.02446 0.0
O199 O 0.8826 0.46957 0.0376 0.0
O200 O 0.7346 0.42192 0.00888 0.0
O201 O 0.70318 0.50058 0.00764 0.0
O202 O 0.75863 0.27263 0.26265 0.0
Cd203 Cd 0.7835 0.32048 0.29079 0.0
Cd204 Cd 0.74089 0.25219 0.3151 0.0
O205 O 0.69628 0.24502 0.28335 0.0
O206 O 0.77963 0.38961 0.27827 0.0
O207 O 0.7279 0.36277 0.30512 0.0
C208 C 0.7391 0.39657 0.29031 0.0
C209 C 0.69808 0.24418 0.34953 0.0
C210 C 0.71476 0.25106 0.26346 0.0
C211 C 0.85862 0.26155 0.31655 0.0
O212 O 0.81935 0.23266 0.31862 0.0
O213 O 0.85315 0.30498 0.30768 0.0
O214 O 0.70812 0.20463 0.336 0.0
O215 O 0.71119 0.2892 0.34331 0.0
C216 C 0.26815 0.06619 0.31688 0.0
C217 C 0.27848 0.11173 0.33126 0.0
C218 C 0.37105 0.10525 0.32441 0.0
C219 C 0.36097 0.05865 0.31056 0.0
N220 N 0.29958 0.00282 0.28825 0.0
N221 N 0.33655 0.18201 0.34374 0.0
C222 C 0.30923 0.04179 0.30506 0.0
C223 C 0.32885 0.13392 0.33315 0.0
N224 N 0.21931 0.04549 0.31514 0.0
N225 N 0.42084 0.12014 0.33084 0.0
H226 H 0.30691 0.20342 0.35099 0.0
H227 H 0.37117 0.20257 0.34348 0.0
H228 H 0.45309 0.10116 0.32473 0.0
H229 H 0.4305 0.1495 0.34354 0.0
H230 H 0.21026 0.00915 0.30738 0.0
H231 H 0.1879 0.06408 0.32245 0.0
H232 H 0.26257 0.99132 0.28188 0.0
H233 H 0.32897 0.98517 0.279 0.0
C234 C 0.13476 0.79336 0.55737 0.0
C235 C 0.13128 0.78848 0.58193 0.0
C236 C 0.16764 0.87543 0.58998 0.0
C237 C 0.17612 0.87838 0.56558 0.0
N238 N 0.16934 0.84016 0.52587 0.0
N239 N 0.15126 0.82094 0.62199 0.0
C240 C 0.1602 0.83723 0.54922 0.0
C241 C 0.14908 0.82864 0.59835 0.0
N242 N 0.11213 0.75673 0.54185 0.0
N243 N 0.17741 0.91724 0.60526 0.0
H244 H 0.13831 0.78726 0.62897 0.0
H245 H 0.16988 0.84604 0.63467 0.0
H246 H 0.19375 0.95138 0.60035 0.0
H247 H 0.16582 0.91955 0.62252 0.0
H248 H 0.10845 0.7601 0.5237 0.0
H249 H 0.09317 0.7243 0.5473 0.0
H250 H 0.16486 0.80922 0.51352 0.0
H251 H 0.18369 0.87321 0.51886 0.0
C252 C 0.40817 0.62135 0.86178 0.0
C253 C 0.44901 0.60783 0.84704 0.0
C254 C 0.40377 0.64845 0.81405 0.0
C255 C 0.36632 0.66752 0.82955 0.0
N256 N 0.33421 0.67605 0.86852 0.0
N257 N 0.48821 0.61077 0.80964 0.0
C258 C 0.36854 0.65461 0.8535 0.0
C259 C 0.44746 0.622 0.8233 0.0
N260 N 0.40734 0.60235 0.88368 0.0
N261 N 0.39636 0.65365 0.79029 0.0
H262 H 0.51931 0.58837 0.8152 0.0
H263 H 0.49267 0.62593 0.79331 0.0
H264 H 0.3644 0.67194 0.78271 0.0
H265 H 0.41923 0.6358 0.77782 0.0
H266 H 0.37627 0.60651 0.89446 0.0
H267 H 0.43618 0.57866 0.89038 0.0
H268 H 0.33703 0.67287 0.88671 0.0
H269 H 0.30475 0.70047 0.86304 0.0
C270 C 0.58446 0.93396 0.10516 0.0
C271 C 0.61137 0.96937 0.09194 0.0
C272 C 0.59256 0.91486 0.05588 0.0
C273 C 0.56386 0.88085 0.06896 0.0
N274 N 0.522 0.86395 0.10457 0.0
N275 N 0.6299 0.0001 0.05404 0.0
C276 C 0.55652 0.89231 0.09316 0.0
C277 C 0.61203 0.96179 0.06706 0.0
N278 N 0.5879 0.93817 0.12922 0.0
N279 N 0.60334 0.90133 0.03311 0.0
H280 H 0.64332 0.03549 0.06159 0.0
H281 H 0.62656 0.99886 0.03569 0.0
H282 H 0.58987 0.86729 0.02424 0.0
H283 H 0.6291 0.92179 0.02363 0.0
H284 H 0.57436 0.91007 0.13976 0.0
H285 H 0.60824 0.96763 0.13876 0.0
H286 H 0.51085 0.87385 0.12153 0.0
H287 H 0.50065 0.83326 0.09626 0.0
C288 C 0.24844 0.71719 0.01673 0.0
C289 C 0.2366 0.70783 0.9922 0.0
C290 C 0.32794 0.71767 0.98449 0.0
C291 C 0.33884 0.73376 0.0085 0.0
N292 N 0.30863 0.755 0.04719 0.0
N293 N 0.26342 0.71097 0.9522 0.0
C294 C 0.29893 0.73495 0.02465 0.0
C295 C 0.27587 0.71117 0.97589 0.0
N296 N 0.21185 0.70792 0.03245 0.0
N297 N 0.36736 0.70669 0.97003 0.0
H298 H 0.22552 0.70853 0.94498 0.0
H299 H 0.29033 0.71882 0.93986 0.0
H300 H 0.4063 0.70889 0.97581 0.0
H301 H 0.36126 0.68994 0.95302 0.0
H302 H 0.2197 0.70903 0.05063 0.0
H303 H 0.1746 0.69466 0.02722 0.0
H304 H 0.27981 0.76188 0.05901 0.0
H305 H 0.34498 0.7688 0.05354 0.0
C306 C 0.5022 0.76654 0.22803 0.0
C307 C 0.51421 0.72457 0.24214 0.0
C308 C 0.50532 0.77941 0.27802 0.0
C309 C 0.50119 0.82255 0.26397 0.0
N310 N 0.49499 0.85906 0.22597 0.0
N311 N 0.52829 0.68962 0.28033 0.0
C312 C 0.49871 0.81659 0.23903 0.0
C313 C 0.51525 0.73035 0.26711 0.0
N314 N 0.49317 0.75814 0.2042 0.0
N315 N 0.4996 0.78568 0.30176 0.0
H316 H 0.53482 0.65286 0.27294 0.0
H317 H 0.53564 0.69264 0.29853 0.0
H318 H 0.49237 0.82141 0.31011 0.0
H319 H 0.49755 0.75534 0.31284 0.0
H320 H 0.47954 0.78612 0.19312 0.0
H321 H 0.49525 0.72178 0.19564 0.0
H322 H 0.49978 0.85837 0.20791 0.0
H323 H 0.48909 0.89586 0.2335 0.0
C324 C 0.48598 0.08335 0.52431 0.0
C325 C 0.52311 0.04565 0.51866 0.0
C326 C 0.46201 0.97827 0.52808 0.0
C327 C 0.42212 0.01518 0.52928 0.0
N328 N 0.39531 0.10338 0.52472 0.0
N329 N 0.54369 0.95564 0.51194 0.0
C330 C 0.43385 0.06803 0.52664 0.0
C331 C 0.51071 0.9926 0.5199 0.0
N332 N 0.50066 0.13387 0.52776 0.0
N333 N 0.45382 0.92978 0.53523 0.0
H334 H 0.57914 0.96388 0.50513 0.0
H335 H 0.53362 0.91674 0.51005 0.0
H336 H 0.41923 0.91849 0.54212 0.0
H337 H 0.48314 0.9028 0.53679 0.0
H338 H 0.4762 0.16234 0.53416 0.0
H339 H 0.53887 0.14629 0.52673 0.0
H340 H 0.40184 0.14093 0.52005 0.0
H341 H 0.35619 0.09451 0.52537 0.0
C342 C 0.22391 0.95373 0.73643 0.0
C343 C 0.24091 0.00103 0.74814 0.0
C344 C 0.27438 0.95401 0.78195 0.0
C345 C 0.25442 0.90766 0.77072 0.0
N346 N 0.19581 0.86624 0.74101 0.0
N347 N 0.26874 0.0469 0.78486 0.0
C348 C 0.22432 0.9085 0.74921 0.0
C349 C 0.26227 0.00146 0.77177 0.0
N350 N 0.21081 0.95079 0.71278 0.0
N351 N 0.30515 0.95274 0.80219 0.0
H352 H 0.25728 0.08214 0.77858 0.0
H353 H 0.27995 0.04902 0.80277 0.0
H354 H 0.31274 0.91878 0.81061 0.0
H355 H 0.32553 0.98475 0.80974 0.0
H356 H 0.20321 0.916 0.70319 0.0
H357 H 0.21324 0.98187 0.70213 0.0
H358 H 0.16972 0.86639 0.72638 0.0
H359 H 0.19394 0.83297 0.75034 0.0
C360 C 0.7127 0.43741 0.82093 0.0
C361 C 0.70533 0.49048 0.82735 0.0
C362 C 0.7854 0.51248 0.80901 0.0
C363 C 0.79267 0.45962 0.80244 0.0
N364 N 0.75471 0.37522 0.7952 0.0
N365 N 0.72363 0.57829 0.81894 0.0
C366 C 0.75332 0.42327 0.80607 0.0
C367 C 0.73802 0.5279 0.81847 0.0
N368 N 0.68371 0.40003 0.83003 0.0
N369 N 0.82466 0.54765 0.80813 0.0
H370 H 0.68807 0.59047 0.82489 0.0
H371 H 0.74404 0.60649 0.81086 0.0
H372 H 0.86116 0.53868 0.80243 0.0
H373 H 0.8225 0.58524 0.8153 0.0
H374 H 0.69252 0.36108 0.82827 0.0
H375 H 0.65308 0.40736 0.8407 0.0
H376 H 0.72455 0.34851 0.79537 0.0
H377 H 0.78353 0.36428 0.78386 0.0
C378 C 0.80398 0.21452 0.08335 0.0
C379 C 0.7612 0.21812 0.09793 0.0
C380 C 0.74398 0.30522 0.08519 0.0
C381 C 0.79064 0.30418 0.07309 0.0
N382 N 0.86674 0.2591 0.06136 0.0
N383 N 0.69629 0.27073 0.11615 0.0
C384 C 0.82115 0.25912 0.07239 0.0
C385 C 0.73235 0.26424 0.09956 0.0
N386 N 0.82704 0.16805 0.07936 0.0
N387 N 0.71084 0.34565 0.08343 0.0
H388 H 0.68715 0.24269 0.12762 0.0
H389 H 0.67907 0.30587 0.12027 0.0
H390 H 0.71855 0.37857 0.07463 0.0
H391 H 0.67344 0.34492 0.08931 0.0
H392 H 0.85504 0.16152 0.06712 0.0
H393 H 0.81496 0.13461 0.08684 0.0
H394 H 0.89393 0.23002 0.06265 0.0
H395 H 0.87856 0.28964 0.05172 0.0
C396 C 0.99997 0.22229 0.31452 0.0
C397 C 0.01104 0.20929 0.3382 0.0
C398 C 0.92369 0.23594 0.34817 0.0
C399 C 0.9111 0.24377 0.32404 0.0
N400 N 0.93424 0.23547 0.28351 0.0
N401 N 0.98061 0.19538 0.37673 0.0
C402 C 0.9484 0.2344 0.30699 0.0
C403 C 0.97209 0.21383 0.35483 0.0
N404 N 0.03912 0.22576 0.29948 0.0
N405 N 0.89026 0.25154 0.36486 0.0
H406 H 0.01509 0.17803 0.38214 0.0
H407 H 0.95189 0.19284 0.38875 0.0
H408 H 0.85509 0.26898 0.36066 0.0
H409 H 0.89945 0.25175 0.38292 0.0
H410 H 0.03414 0.24046 0.28285 0.0
H411 H 0.07772 0.21891 0.30439 0.0
H412 H 0.95824 0.22332 0.27024 0.0
H413 H 0.89684 0.24403 0.27725 0.0
C414 C 0.08815 0.512 0.5633 0.0
C415 C 0.04345 0.54214 0.56652 0.0
C416 C 0.98907 0.47077 0.54924 0.0
C417 C 0.03265 0.43825 0.5497 0.0
N418 N 0.12352 0.42632 0.55986 0.0
N419 N 0.95008 0.54731 0.56602 0.0
C420 C 0.08239 0.45847 0.55717 0.0
C421 C 0.99349 0.52104 0.56018 0.0
N422 N 0.13607 0.53471 0.56581 0.0
N423 N 0.94351 0.45375 0.53807 0.0
H424 H 0.95107 0.58345 0.57487 0.0
H425 H 0.91305 0.53108 0.56415 0.0
H426 H 0.93927 0.41735 0.52949 0.0
H427 H 0.91187 0.47751 0.53519 0.0
H428 H 0.16981 0.51578 0.56143 0.0
H429 H 0.14154 0.57396 0.57006 0.0
H430 H 0.15909 0.43821 0.56786 0.0
H431 H 0.12111 0.38678 0.55592 0.0
C432 C 0.80768 0.19569 0.48462 0.0
C433 C 0.78279 0.16821 0.50184 0.0
C434 C 0.86271 0.1702 0.52699 0.0
C435 C 0.88763 0.19688 0.5096 0.0
N436 N 0.88836 0.22671 0.47035 0.0
N437 N 0.78746 0.12164 0.5373 0.0
C438 C 0.86145 0.20703 0.4879 0.0
C439 C 0.81069 0.15288 0.52235 0.0
N440 N 0.77967 0.21175 0.46534 0.0
N441 N 0.88839 0.16292 0.54819 0.0
H442 H 0.74885 0.10979 0.53482 0.0
H443 H 0.80706 0.1046 0.55124 0.0
H444 H 0.92716 0.17327 0.55183 0.0
H445 H 0.87082 0.14924 0.56266 0.0
H446 H 0.79389 0.2369 0.45359 0.0
H447 H 0.74079 0.20229 0.46165 0.0
H448 H 0.8731 0.23006 0.4532 0.0
H449 H 0.92769 0.23606 0.47238 0.0
C450 C 0.09251 0.25155 0.76827 0.0
C451 C 0.11571 0.25194 0.74628 0.0
C452 C 0.05722 0.32013 0.73413 0.0
C453 C 0.03867 0.32443 0.75713 0.0
N454 N 0.04713 0.30082 0.79776 0.0
N455 N 0.12859 0.29526 0.71057 0.0
C456 C 0.05832 0.29177 0.7747 0.0
C457 C 0.10034 0.28857 0.72979 0.0
N458 N 0.10193 0.21218 0.78278 0.0
N459 N 0.03299 0.34541 0.71629 0.0
H460 H 0.16201 0.27459 0.70728 0.0
H461 H 0.12209 0.32514 0.69936 0.0
H462 H 1.00019 0.36771 0.71867 0.0
H463 H 0.04209 0.33975 0.69871 0.0
H464 H 0.08168 0.20721 0.79784 0.0
H465 H 0.12656 0.1819 0.77866 0.0
H466 H 0.06511 0.28155 0.81149 0.0
H467 H 0.02384 0.3308 0.8036 0.0
C468 C 0.98592 0.59844 0.02184 0.0
C469 C 0.97871 0.61134 0.99792 0.0
C470 C 0.90644 0.54968 0.99229 0.0
C471 C 0.90944 0.54178 0.01676 0.0
N472 N 0.94656 0.56571 0.05575 0.0
N473 N 0.9248 0.60719 0.9618 0.0
C474 C 0.94766 0.56813 0.03184 0.0
C475 C 0.93682 0.58922 0.98354 0.0
N476 N 0.03037 0.6127 0.03471 0.0
N477 N 0.87619 0.51793 0.97725 0.0
H478 H 0.94469 0.6377 0.95514 0.0
H479 H 0.89173 0.59561 0.95154 0.0
H480 H 0.85574 0.48675 0.98301 0.0
H481 H 0.8761 0.51896 0.95896 0.0
H482 H 0.03984 0.59957 0.05136 0.0
H483 H 0.06025 0.63344 0.02796 0.0
H484 H 0.97 0.58872 0.0676 0.0
H485 H 0.91918 0.54411 0.06382 0.0
C486 C 0.62197 0.47229 0.2685 0.0
C487 C 0.64792 0.51702 0.26202 0.0
C488 C 0.72725 0.48897 0.28281 0.0
C489 C 0.70437 0.44009 0.28507 0.0
N490 N 0.62955 0.38329 0.27786 0.0
N491 N 0.72843 0.56438 0.26006 0.0
C492 C 0.65132 0.43129 0.27772 0.0
C493 C 0.70128 0.52491 0.26866 0.0
N494 N 0.5692 0.46917 0.26607 0.0
N495 N 0.77401 0.50092 0.29419 0.0
H496 H 0.71218 0.59018 0.24849 0.0
H497 H 0.76849 0.56828 0.26244 0.0
H498 H 0.79336 0.4755 0.30508 0.0
H499 H 0.7905 0.53767 0.29489 0.0
H500 H 0.5478 0.43975 0.27272 0.0
H501 H 0.54659 0.49874 0.25953 0.0
H502 H 0.59337 0.37383 0.26977 0.0
H503 H 0.64867 0.35155 0.28423 0.0
C504 C 0.22098 0.12838 0.45011 0.0
C505 C 0.16849 0.12545 0.44096 0.0
C506 C 0.14529 0.07882 0.47536 0.0
C507 C 0.19816 0.07773 0.48313 0.0
N508 N 0.28774 0.09303 0.47572 0.0
N509 N 0.08401 0.08556 0.44205 0.0
C510 C 0.23641 0.09957 0.46972 0.0
C511 C 0.13144 0.0974 0.45285 0.0
N512 N 0.25575 0.16105 0.44126 0.0
N513 N 0.10822 0.06181 0.48936 0.0
H514 H 0.07361 0.09474 0.42484 0.0
H515 H 0.0573 0.06131 0.44902 0.0
H516 H 0.11695 0.04577 0.50548 0.0
H517 H 0.06879 0.06731 0.48581 0.0
H518 H 0.29237 0.16891 0.44922 0.0
H519 H 0.24697 0.18511 0.42768 0.0
H520 H 0.31717 0.10226 0.46485 0.0
H521 H 0.30099 0.07461 0.49065 0.0
C522 C 0.19851 0.68934 0.68848 0.0
C523 C 0.15967 0.65053 0.686 0.0
C524 C 0.16615 0.6421 0.72879 0.0
C525 C 0.19804 0.68694 0.73156 0.0
N526 N 0.23778 0.75848 0.71331 0.0
N527 N 0.10017 0.59523 0.70452 0.0
C528 C 0.21273 0.71187 0.71121 0.0
C529 C 0.14188 0.628 0.70631 0.0
N530 N 0.2226 0.70409 0.66911 0.0
N531 N 0.16052 0.61171 0.74734 0.0
H532 H 0.0801 0.5844 0.68863 0.0
H533 H 0.08237 0.58264 0.71918 0.0
H534 H 0.17971 0.61907 0.7638 0.0
H535 H 0.14162 0.57609 0.74562 0.0
H536 H 0.25477 0.72861 0.67019 0.0
H537 H 0.21408 0.6874 0.65222 0.0
H538 H 0.24356 0.78064 0.69896 0.0
H539 H 0.24831 0.77782 0.72935 0.0
C540 C 0.57378 0.58122 0.95871 0.0
C541 C 0.5809 0.60702 0.93781 0.0
C542 C 0.5923 0.68838 0.96134 0.0
C543 C 0.57441 0.66398 0.98112 0.0
N544 N 0.54188 0.58691 0.9977 0.0
N545 N 0.59648 0.68571 0.91877 0.0
C546 C 0.56456 0.61012 0.9798 0.0
C547 C 0.59114 0.6607 0.939 0.0
N548 N 0.57501 0.52877 0.95829 0.0
N549 N 0.61032 0.73793 0.96404 0.0
H550 H 0.59647 0.66663 0.90217 0.0
H551 H 0.59783 0.72562 0.91828 0.0
H552 H 0.61202 0.75865 0.98032 0.0
H553 H 0.62801 0.75658 0.95083 0.0
H554 H 0.57601 0.50808 0.97347 0.0
H555 H 0.58015 0.50633 0.94292 0.0
H556 H 0.52815 0.54907 0.99615 0.0
H557 H 0.53199 0.60602 0.01333 0.0
C558 C 0.72386 0.03054 0.21448 0.0
C559 C 0.69091 0.02811 0.19369 0.0
C560 C 0.61812 0.00291 0.21628 0.0
C561 C 0.64945 0.00929 0.23751 0.0
N562 N 0.73006 0.03851 0.25733 0.0
N563 N 0.6034 0.03062 0.17688 0.0
C564 C 0.70193 0.02566 0.23679 0.0
C565 C 0.63706 0.0199 0.19521 0.0
N566 N 0.77598 0.03644 0.21288 0.0
N567 N 0.57131 0.97805 0.21575 0.0
H568 H 0.61548 0.04715 0.16185 0.0
H569 H 0.56334 0.02944 0.17796 0.0
H570 H 0.55687 0.96162 0.23036 0.0
H571 H 0.54971 0.96834 0.20009 0.0
H572 H 0.80266 0.03303 0.22707 0.0
H573 H 0.79277 0.04147 0.19689 0.0
H574 H 0.76674 0.05541 0.25793 0.0
H575 H 0.71472 0.03682 0.27385 0.0
C576 C 0.05622 0.78249 0.87983 0.0
C577 C 0.08558 0.77998 0.90147 0.0
C578 C 0.16589 0.78461 0.88095 0.0
C579 C 0.13692 0.77509 0.85915 0.0
N580 N 0.05499 0.77371 0.83693 0.0
N581 N 0.16372 0.81003 0.92264 0.0
C582 C 0.08205 0.77773 0.85828 0.0
C583 C 0.13912 0.79158 0.90202 0.0
N584 N 0.00425 0.79052 0.88018 0.0
N585 N 0.21871 0.78297 0.88186 0.0
H586 H 0.14338 0.81831 0.93773 0.0
H587 H 0.20207 0.82273 0.924 0.0
H588 H 0.24007 0.77834 0.8669 0.0
H589 H 0.24133 0.78302 0.89758 0.0
H590 H 0.98007 0.79482 0.86521 0.0
H591 H 0.98639 0.79818 0.89599 0.0
H592 H 0.01494 0.77024 0.83488 0.0
H593 H 0.07324 0.77271 0.821 0.0
C594 C 0.45756 0.6026 0.13335 0.0
C595 C 0.49272 0.56199 0.13677 0.0
C596 C 0.5233 0.57294 0.09726 0.0
C597 C 0.49857 0.62126 0.09696 0.0
N598 N 0.44073 0.68261 0.11479 0.0
N599 N 0.5568 0.50468 0.12058 0.0
C600 C 0.46405 0.63571 0.11466 0.0
C601 C 0.52392 0.54499 0.11806 0.0
N602 N 0.41915 0.61017 0.14864 0.0
N603 N 0.54602 0.5538 0.07752 0.0
H604 H 0.55539 0.47951 0.13407 0.0
H605 H 0.58652 0.49664 0.10936 0.0
H606 H 0.54526 0.57319 0.06193 0.0
H607 H 0.56079 0.51679 0.07579 0.0
H608 H 0.38956 0.63655 0.14625 0.0
H609 H 0.41431 0.58596 0.16242 0.0
H610 H 0.42015 0.69748 0.1288 0.0
H611 H 0.44479 0.70849 0.10169 0.0
C612 C 0.62944 0.96214 0.40156 0.0
C613 C 0.59631 0.99282 0.41538 0.0
C614 C 0.5462 0.01541 0.37993 0.0
C615 C 0.57642 0.98141 0.36614 0.0
N616 N 0.64051 0.91462 0.36432 0.0
N617 N 0.51614 0.03892 0.41844 0.0
C618 C 0.61643 0.95251 0.37706 0.0
C619 C 0.55218 0.01591 0.40479 0.0
N620 N 0.67365 0.94298 0.41179 0.0
N621 N 0.51414 0.04975 0.36929 0.0
H622 H 0.51954 0.04143 0.43681 0.0
H623 H 0.48063 0.05151 0.41155 0.0
H624 H 0.51096 0.05301 0.35109 0.0
H625 H 0.4953 0.07896 0.37858 0.0
H626 H 0.70243 0.92542 0.40219 0.0
H627 H 0.68276 0.94728 0.4299 0.0
H628 H 0.66633 0.88901 0.37188 0.0
H629 H 0.63136 0.90579 0.34646 0.0
C630 C 0.28317 0.17647 0.64309 0.0
C631 C 0.28966 0.14297 0.66194 0.0
C632 C 0.2745 0.0682 0.63407 0.0
C633 C 0.26379 0.10189 0.61561 0.0
N634 N 0.25197 0.1878 0.60269 0.0
N635 N 0.28858 0.05744 0.67603 0.0
C636 C 0.26646 0.15597 0.62017 0.0
C637 C 0.28425 0.08896 0.65761 0.0
N638 N 0.29273 0.22804 0.64714 0.0
N639 N 0.27633 0.01628 0.62903 0.0
H640 H 0.3002 0.07065 0.69312 0.0
H641 H 0.27835 0.01862 0.67474 0.0
H642 H 0.26803 0.99923 0.61225 0.0
H643 H 0.28955 0.98996 0.64102 0.0
H644 H 0.29498 0.25359 0.63378 0.0
H645 H 0.30103 0.24528 0.66392 0.0
H646 H 0.24638 0.22713 0.60558 0.0
H647 H 0.2422 0.17447 0.58538 0.0
C648 C 0.6778 0.46487 0.9327 0.0
C649 C 0.6383 0.42694 0.92758 0.0
C650 C 0.64179 0.40654 0.96938 0.0
C651 C 0.68305 0.44261 0.97401 0.0
N652 N 0.74767 0.49795 0.95927 0.0
N653 N 0.58664 0.35731 0.94002 0.0
C654 C 0.7032 0.46925 0.95541 0.0
C655 C 0.62148 0.39636 0.94565 0.0
N656 N 0.68904 0.49909 0.91629 0.0
N657 N 0.62084 0.38367 0.98775 0.0
H658 H 0.57086 0.34963 0.92289 0.0
H659 H 0.57614 0.33037 0.95178 0.0
H660 H 0.63525 0.39006 0.00517 0.0
H661 H 0.58737 0.36106 0.98604 0.0
H662 H 0.71209 0.53181 0.92008 0.0
H663 H 0.67149 0.49781 0.89941 0.0
H664 H 0.76786 0.51276 0.94578 0.0
H665 H 0.76718 0.50325 0.97575 0.0
C666 C 0.66456 0.26071 0.20019 0.0
C667 C 0.6454 0.21018 0.19498 0.0
C668 C 0.65858 0.19023 0.23631 0.0
C669 C 0.6835 0.23888 0.24109 0.0
N670 N 0.6907 0.32695 0.23013 0.0
N671 N 0.60058 0.13828 0.20944 0.0
C672 C 0.68006 0.27641 0.22382 0.0
C673 C 0.63415 0.1788 0.21358 0.0
N674 N 0.66991 0.29265 0.18222 0.0
N675 N 0.66096 0.15379 0.25269 0.0
H676 H 0.58025 0.13145 0.19323 0.0
H677 H 0.5878 0.1161 0.2227 0.0
H678 H 0.68072 0.15909 0.26909 0.0
H679 H 0.6463 0.11665 0.2494 0.0
H680 H 0.68989 0.32765 0.1841 0.0
H681 H 0.6551 0.28275 0.16511 0.0
H682 H 0.68479 0.35661 0.21878 0.0
H683 H 0.70047 0.33989 0.24747 0.0
C684 C 0.12015 0.29231 0.42321 0.0
C685 C 0.17502 0.29169 0.42339 0.0
C686 C 0.17941 0.26098 0.46353 0.0
C687 C 0.12467 0.26239 0.46352 0.0
N688 N 0.0426 0.28546 0.44517 0.0
N689 N 0.25745 0.28501 0.44489 0.0
C690 C 0.09494 0.28027 0.44394 0.0
C691 C 0.2048 0.27908 0.44396 0.0
N692 N 0.09221 0.30339 0.40305 0.0
N693 N 0.20711 0.24148 0.48212 0.0
H694 H 0.27791 0.29477 0.43046 0.0
H695 H 0.28091 0.28275 0.46025 0.0
H696 H 0.19018 0.2301 0.49725 0.0
H697 H 0.24646 0.23366 0.48213 0.0
H698 H 0.05229 0.2987 0.40063 0.0
H699 H 0.10934 0.31455 0.38794 0.0
H700 H 0.01912 0.30315 0.43266 0.0
H701 H 0.02253 0.27461 0.45954 0.0
C702 C 0.97685 0.63539 0.6918 0.0
C703 C 0.96041 0.60915 0.67003 0.0
C704 C 0.92898 0.53646 0.69103 0.0
C705 C 0.94934 0.56079 0.71254 0.0
N706 N 0.97482 0.63928 0.73449 0.0
N707 N 0.90525 0.54508 0.64949 0.0
C708 C 0.967 0.61248 0.71323 0.0
C709 C 0.93061 0.56333 0.66998 0.0
N710 N 0.00569 0.67964 0.69215 0.0
N711 N 0.91195 0.48656 0.69031 0.0
H712 H 0.90637 0.56465 0.63398 0.0
H713 H 0.87948 0.514 0.64845 0.0
H714 H 0.9098 0.46557 0.70529 0.0
H715 H 0.90266 0.4649 0.67468 0.0
H716 H 0.02546 0.69563 0.70729 0.0
H717 H 0.01199 0.69954 0.67721 0.0
H718 H 0.98341 0.67851 0.73619 0.0
H719 H 0.96743 0.62317 0.75039 0.0
C720 C 0.68665 0.18735 0.40813 0.0
C721 C 0.63521 0.20049 0.41351 0.0
C722 C 0.62593 0.24835 0.37755 0.0
C723 C 0.67783 0.23643 0.37285 0.0
N724 N 0.76165 0.20779 0.38679 0.0
N725 N 0.5588 0.25026 0.40587 0.0
C726 C 0.70948 0.2104 0.38926 0.0
C727 C 0.60577 0.23335 0.39901 0.0
N728 N 0.71255 0.1499 0.41976 0.0
N729 N 0.59542 0.2718 0.36106 0.0
H730 H 0.54321 0.23958 0.42144 0.0
H731 H 0.5373 0.27787 0.39725 0.0
H732 H 0.60953 0.28427 0.34549 0.0
H733 H 0.5557 0.2764 0.36214 0.0
H734 H 0.74744 0.13471 0.41447 0.0
H735 H 0.69758 0.13052 0.43342 0.0
H736 H 0.78744 0.19413 0.39964 0.0
H737 H 0.77966 0.22418 0.37302 0.0
C738 C 0.12398 0.13512 0.61781 0.0
C739 C 0.13705 0.17516 0.63545 0.0
C740 C 0.12194 0.23921 0.60618 0.0
C741 C 0.10389 0.20062 0.58922 0.0
N742 N 0.07558 0.11258 0.58078 0.0
N743 N 0.12224 0.26444 0.6473 0.0
C744 C 0.10118 0.14864 0.59555 0.0
C745 C 0.12843 0.22703 0.62992 0.0
N746 N 0.13432 0.08475 0.62162 0.0
N747 N 0.13307 0.28769 0.59976 0.0
H748 H 0.11836 0.25591 0.6648 0.0
H749 H 0.11274 0.30219 0.64374 0.0
H750 H 0.13101 0.29781 0.58224 0.0
H751 H 0.14989 0.31579 0.61164 0.0
H752 H 0.12761 0.05496 0.60881 0.0
H753 H 0.15461 0.07224 0.63641 0.0
H754 H 0.0673 0.07553 0.58562 0.0
H755 H 0.0582 0.12096 0.5645 0.0
C756 C 0.06531 0.52393 0.87834 0.0
C757 C 0.05272 0.57616 0.88307 0.0
C758 C 0.00712 0.57909 0.84447 0.0
C759 C 0.02147 0.52755 0.83914 0.0
N760 N 0.07456 0.45486 0.84852 0.0
N761 N 0.02787 0.65719 0.86789 0.0
C762 C 0.05385 0.50109 0.85533 0.0
C763 C 0.02872 0.6049 0.86522 0.0
N764 N 0.08609 0.49568 0.89597 0.0
N765 N 0.97064 0.60261 0.83059 0.0
H766 H 0.04707 0.67691 0.88224 0.0
H767 H 0.01431 0.68051 0.85465 0.0
H768 H 0.95183 0.58465 0.81564 0.0
H769 H 0.95512 0.63829 0.8353 0.0
H770 H 0.09053 0.45596 0.89425 0.0
H771 H 0.0958 0.51154 0.9129 0.0
H772 H 0.10215 0.43608 0.85882 0.0
H773 H 0.06793 0.43766 0.8316 0.0
C774 C 0.72069 0.50548 0.14831 0.0
C775 C 0.6857 0.54695 0.14867 0.0
C776 C 0.70369 0.56258 0.10776 0.0
C777 C 0.73198 0.51615 0.10637 0.0
N778 N 0.75971 0.43832 0.12459 0.0
N779 N 0.63773 0.6109 0.12748 0.0
C780 C 0.73879 0.48633 0.12649 0.0
C781 C 0.67579 0.57486 0.12815 0.0
N782 N 0.73721 0.48479 0.16894 0.0
N783 N 0.70446 0.59558 0.08992 0.0
H784 H 0.61504 0.62037 0.14161 0.0
H785 H 0.62536 0.62817 0.11213 0.0
H786 H 0.72537 0.58848 0.07494 0.0
H787 H 0.68876 0.63229 0.09105 0.0
H788 H 0.76651 0.45769 0.16998 0.0
H789 H 0.72555 0.49879 0.18534 0.0
H790 H 0.75993 0.4129 0.13811 0.0
H791 H 0.77213 0.42154 0.10887 0.0
loop_
_geom_bond_atom_site_label_1
_geom_bond_atom_site_label_2
_geom_bond_distance
_geom_bond_site_symmetry_2
_ccdc_geom_bond_type
Mg0 O7 2.141 . S
Mg0 O8 2.048 . S
Mg0 O9 2.048 . S
Mg0 O12 2.141 . S
C1 O2 1.313 . S
C1 O8 1.195 . S
O2 C1 1.313 . S
C3 O4 1.245 . S
C3 O12 1.289 . S
O4 C3 1.245 . S
C5 O6 1.245 . S
C5 O7 1.289 . S
O6 C5 1.245 . S
O7 Mg0 2.141 . S
O7 C5 1.289 . S
O8 Mg0 2.048 . S
O8 C1 1.195 . S
O9 Mg0 2.048 . S
O9 C10 1.195 . S
C10 O9 1.195 . S
C10 O11 1.313 . S
O11 C10 1.313 . S
O12 Mg0 2.141 . S
O12 C3 1.289 . S
Mg13 O20 2.141 . S
Mg13 O21 2.048 . S
Mg13 O22 2.033 1_455 S
Mg13 O25 2.141 . S
C14 O15 1.313 . S
C14 O21 1.195 . S
O15 C14 1.313 . S
C16 O17 1.245 . S
C16 O25 1.289 . S
O17 C16 1.245 . S
C18 O19 1.245 . S
C18 O20 1.289 . S
O19 C18 1.245 . S
O20 Mg13 2.141 . S
O20 C18 1.289 . S
O21 Mg13 2.048 . S
O21 C14 1.195 . S
O22 Mg13 2.033 1_655 S
O22 C23 1.192 1_655 S
C23 O22 1.192 1_455 S
C23 O24 1.313 . S
O24 C23 1.313 . S
O25 Mg13 2.141 . S
O25 C16 1.289 . S
Mg26 O33 2.141 . S
Mg26 O34 2.048 . S
Mg26 O35 2.048 . S
Mg26 O38 2.141 . S
C27 O28 1.313 . S
C27 O34 1.195 . S
O28 C27 1.313 . S
C29 O30 1.245 . S
C29 O38 1.289 . S
O30 C29 1.245 . S
C31 O32 1.245 . S
C31 O33 1.289 . S
O32 C31 1.245 . S
O33 Mg26 2.141 . S
O33 C31 1.289 . S
O34 Mg26 2.048 . S
O34 C27 1.195 . S
O35 Mg26 2.048 . S
O35 C36 1.195 . S
C36 O35 1.195 . S
C36 O37 1.313 . S
O37 C36 1.313 . S
O38 Mg26 2.141 . S
O38 C29 1.289 . S
Mg39 O46 2.141 . S
Mg39 O47 2.048 . S
Mg39 O48 2.048 1_545 S
Mg39 O51 2.141 1_545 S
C40 O41 1.313 . S
C40 O47 1.195 . S
O41 C40 1.313 . S
C42 O43 1.245 . S
C42 O51 1.289 . S
O43 C42 1.245 . S
C44 O45 1.245 . S
C44 O46 1.289 . S
O45 C44 1.245 . S
O46 Mg39 2.141 . S
O46 C44 1.289 . S
O47 Mg39 2.048 . S
O47 C40 1.195 . S
O48 Mg39 2.048 1_565 S
O48 C49 1.195 . S
C49 O48 1.195 . S
C49 O50 1.313 . S
O50 C49 1.313 . S
O51 Mg39 2.141 1_565 S
O51 C42 1.289 . S
Mg52 O59 2.141 . S
Mg52 O60 2.048 . S
Mg52 O61 2.048 1_455 S
Mg52 O64 2.141 1_455 S
C53 O54 1.313 . S
C53 O60 1.195 . S
O54 C53 1.313 . S
C55 O56 1.245 . S
C55 O64 1.289 . S
O56 C55 1.245 . S
C57 O58 1.245 . S
C57 O59 1.289 . S
O58 C57 1.245 . S
O59 Mg52 2.141 . S
O59 C57 1.289 . S
O60 Mg52 2.048 . S
O60 C53 1.195 . S
O61 Mg52 2.048 1_655 S
O61 C62 1.195 . S
C62 O61 1.195 . S
C62 O63 1.313 . S
O63 C62 1.313 . S
O64 Mg52 2.141 1_655 S
O64 C55 1.289 . S
Mg65 O72 2.141 . S
Mg65 O73 2.048 . S
Mg65 O74 2.048 . S
Mg65 O77 2.141 . S
C66 O67 1.313 . S
C66 O73 1.195 . S
O67 C66 1.313 . S
C68 O69 1.245 . S
C68 O77 1.289 . S
O69 C68 1.245 . S
C70 O71 1.245 . S
C70 O72 1.289 . S
O71 C70 1.245 . S
O72 Mg65 2.141 . S
O72 C70 1.289 . S
O73 Mg65 2.048 . S
O73 C66 1.195 . S
O74 Mg65 2.048 . S
O74 C75 1.195 . S
C75 O74 1.195 . S
C75 O76 1.313 . S
O76 C75 1.313 . S
O77 Mg65 2.141 . S
O77 C68 1.289 . S
Mg78 O85 2.141 . S
Mg78 O86 2.048 . S
Mg78 O87 2.048 1_545 S
Mg78 O90 2.141 1_545 S
C79 O80 1.313 . S
C79 O86 1.195 . S
O80 C79 1.313 . S
C81 O82 1.245 . S
C81 O90 1.289 1_545 S
O82 C81 1.245 . S
C83 O84 1.245 . S
C83 O85 1.289 . S
O84 C83 1.245 . S
O85 Mg78 2.141 . S
O85 C83 1.289 . S
O86 Mg78 2.048 . S
O86 C79 1.195 . S
O87 Mg78 2.048 1_565 S
O87 C88 1.195 . S
C88 O87 1.195 . S
C88 O89 1.313 1_565 S
O89 C88 1.313 1_545 S
O90 Mg78 2.141 1_565 S
O90 C81 1.289 1_565 S
Mg91 O98 2.141 . S
Mg91 O99 2.048 . S
Mg91 O100 2.048 . S
Mg91 O103 2.141 . S
C92 O93 1.313 . S
C92 O99 1.195 . S
O93 C92 1.313 . S
C94 O95 1.245 . S
C94 O103 1.289 . S
O95 C94 1.245 . S
C96 O97 1.245 . S
C96 O98 1.289 . S
O97 C96 1.245 . S
O98 Mg91 2.141 . S
O98 C96 1.289 . S
O99 Mg91 2.048 . S
O99 C92 1.195 . S
O100 Mg91 2.048 . S
O100 C101 1.195 . S
C101 O100 1.195 . S
C101 O102 1.313 . S
O102 C101 1.313 . S
O103 Mg91 2.141 . S
O103 C94 1.289 . S
O104 Cd105 2.223 . S
O104 C112 1.315 . S
Cd105 O104 2.223 . S
Cd105 O108 2.297 . S
Cd105 O109 2.439 . S
Cd105 O115 2.240 . S
Cd106 O107 2.240 . S
Cd106 O114 2.223 . S
Cd106 O116 2.297 . S
Cd106 O117 2.439 . S
O107 Cd106 2.240 . S
O107 C112 1.279 . S
O108 Cd105 2.297 . S
O108 C110 1.247 . S
O109 Cd105 2.439 . S
O109 C110 1.208 . S
C110 O108 1.247 . S
C110 O109 1.208 . S
C111 O116 1.247 . S
C111 O117 1.208 . S
C112 O104 1.315 . S
C112 O107 1.279 . S
C113 O114 1.315 . S
C113 O115 1.279 . S
O114 Cd106 2.223 . S
O114 C113 1.315 . S
O115 Cd105 2.240 . S
O115 C113 1.279 . S
O116 Cd106 2.297 . S
O116 C111 1.247 . S
O117 Cd106 2.439 . S
O117 C111 1.208 . S
O118 Cd119 2.223 . S
O118 C126 1.315 . S
Cd119 O118 2.223 . S
Cd119 O122 2.297 . S
Cd119 O123 2.439 . S
Cd119 O129 2.240 . S
Cd120 O121 2.240 . S
Cd120 O128 2.223 . S
Cd120 O130 2.297 . S
Cd120 O131 2.439 . S
O121 Cd120 2.240 . S
O121 C126 1.279 . S
O122 Cd119 2.297 . S
O122 C124 1.247 . S
O123 Cd119 2.439 . S
O123 C124 1.208 . S
C124 O122 1.247 . S
C124 O123 1.208 . S
C125 O130 1.247 . S
C125 O131 1.208 . S
C126 O118 1.315 . S
C126 O121 1.279 . S
C127 O128 1.315 . S
C127 O129 1.279 . S
O128 Cd120 2.223 . S
O128 C127 1.315 . S
O129 Cd119 2.240 . S
O129 C127 1.279 . S
O130 Cd120 2.297 . S
O130 C125 1.247 . S
O131 Cd120 2.439 . S
O131 C125 1.208 . S
O132 Cd133 2.223 . S
O132 C140 1.315 . S
Cd133 O132 2.223 . S
Cd133 O136 2.297 . S
Cd133 O137 2.439 1_565 S
Cd133 O143 2.240 . S
Cd134 O135 2.240 . S
Cd134 O142 2.223 1_545 S
Cd134 O144 2.297 . S
Cd134 O145 2.439 . S
O135 Cd134 2.240 . S
O135 C140 1.279 1_545 S
O136 Cd133 2.297 . S
O136 C138 1.247 . S
O137 Cd133 2.439 1_545 S
O137 C138 1.208 1_545 S
C138 O136 1.247 . S
C138 O137 1.208 1_565 S
C139 O144 1.247 . S
C139 O145 1.208 . S
C140 O132 1.315 . S
C140 O135 1.279 1_565 S
C141 O142 1.315 . S
C141 O143 1.279 . S
O142 Cd134 2.223 1_565 S
O142 C141 1.315 . S
O143 Cd133 2.240 . S
O143 C141 1.279 . S
O144 Cd134 2.297 . S
O144 C139 1.247 . S
O145 Cd134 2.439 . S
O145 C139 1.208 . S
O146 Cd147 2.223 . S
O146 C154 1.315 . S
Cd147 O146 2.223 . S
Cd147 O150 2.297 1_565 S
Cd147 O151 2.439 . S
Cd147 O157 2.240 . S
Cd148 O149 2.240 . S
Cd148 O156 2.223 . S
Cd148 O158 2.297 . S
Cd148 O159 2.439 . S
O149 Cd148 2.240 . S
O149 C154 1.279 . S
O150 Cd147 2.297 1_545 S
O150 C152 1.247 . S
O151 Cd147 2.439 . S
O151 C152 1.208 1_565 S
C152 O150 1.247 . S
C152 O151 1.208 1_545 S
C153 O158 1.247 . S
C153 O159 1.208 . S
C154 O146 1.315 . S
C154 O149 1.279 . S
C155 O156 1.315 . S
C155 O157 1.279 . S
O156 Cd148 2.223 . S
O156 C155 1.315 . S
O157 Cd147 2.240 . S
O157 C155 1.279 . S
O158 Cd148 2.297 . S
O158 C153 1.247 . S
O159 Cd148 2.439 . S
O159 C153 1.208 . S
O160 Cd161 2.223 . S
O160 C168 1.315 . S
Cd161 O160 2.223 . S
Cd161 O164 2.297 . S
Cd161 O165 2.439 1_655 S
Cd161 O171 2.240 . S
Cd162 O163 2.240 . S
Cd162 O170 2.223 1_455 S
Cd162 O172 2.297 . S
Cd162 O173 2.439 . S
O163 Cd162 2.240 . S
O163 C168 1.279 1_455 S
O164 Cd161 2.297 . S
O164 C166 1.247 . S
O165 Cd161 2.439 1_455 S
O165 C166 1.208 1_455 S
C166 O164 1.247 . S
C166 O165 1.208 1_655 S
C167 O172 1.247 . S
C167 O173 1.208 . S
C168 O160 1.315 . S
C168 O163 1.279 1_655 S
C169 O170 1.315 . S
C169 O171 1.279 . S
O170 Cd162 2.223 1_655 S
O170 C169 1.315 . S
O171 Cd161 2.240 . S
O171 C169 1.279 . S
O172 Cd162 2.297 . S
O172 C167 1.247 . S
O173 Cd162 2.439 . S
O173 C167 1.208 . S
O174 Cd175 2.223 . S
O174 C182 1.315 . S
Cd175 O174 2.223 . S
Cd175 O178 2.297 . S
Cd175 O179 2.439 . S
Cd175 O185 2.240 . S
Cd176 O177 2.240 . S
Cd176 O184 2.223 . S
Cd176 O186 2.297 . S
Cd176 O187 2.439 . S
O177 Cd176 2.240 . S
O177 C182 1.279 . S
O178 Cd175 2.297 . S
O178 C180 1.247 . S
O179 Cd175 2.439 . S
O179 C180 1.208 . S
C180 O178 1.247 . S
C180 O179 1.208 . S
C181 O186 1.247 . S
C181 O187 1.208 . S
C182 O174 1.315 . S
C182 O177 1.279 . S
C183 O184 1.315 . S
C183 O185 1.279 . S
O184 Cd176 2.223 . S
O184 C183 1.315 . S
O185 Cd175 2.240 . S
O185 C183 1.279 . S
O186 Cd176 2.297 . S
O186 C181 1.247 . S
O187 Cd176 2.439 . S
O187 C181 1.208 . S
O188 Cd189 2.223 . S
O188 C196 1.315 . S
Cd189 O188 2.223 . S
Cd189 O192 2.297 . S
Cd189 O193 2.439 . S
Cd189 O199 2.240 . S
Cd190 O191 2.240 . S
Cd190 O198 2.223 . S
Cd190 O200 2.297 1_554 S
Cd190 O201 2.439 1_554 S
O191 Cd190 2.240 . S
O191 C196 1.279 . S
O192 Cd189 2.297 . S
O192 C194 1.247 . S
O193 Cd189 2.439 . S
O193 C194 1.208 . S
C194 O192 1.247 . S
C194 O193 1.208 . S
C195 O200 1.247 . S
C195 O201 1.208 . S
C196 O188 1.315 . S
C196 O191 1.279 . S
C197 O198 1.315 . S
C197 O199 1.279 . S
O198 Cd190 2.223 . S
O198 C197 1.315 . S
O199 Cd189 2.240 . S
O199 C197 1.279 . S
O200 Cd190 2.297 1_556 S
O200 C195 1.247 . S
O201 Cd190 2.439 1_556 S
O201 C195 1.208 . S
O202 Cd203 2.223 . S
O202 C210 1.315 . S
Cd203 O202 2.223 . S
Cd203 O206 2.297 . S
Cd203 O207 2.439 . S
Cd203 O213 2.240 . S
Cd204 O205 2.240 . S
Cd204 O212 2.223 . S
Cd204 O214 2.297 . S
Cd204 O215 2.439 . S
O205 Cd204 2.240 . S
O205 C210 1.279 . S
O206 Cd203 2.297 . S
O206 C208 1.247 . S
O207 Cd203 2.439 . S
O207 C208 1.208 . S
C208 O206 1.247 . S
C208 O207 1.208 . S
C209 O214 1.247 . S
C209 O215 1.208 . S
C210 O202 1.315 . S
C210 O205 1.279 . S
C211 O212 1.315 . S
C211 O213 1.279 . S
O212 Cd204 2.223 . S
O212 C211 1.315 . S
O213 Cd203 2.240 . S
O213 C211 1.279 . S
O214 Cd204 2.297 . S
O214 C209 1.247 . S
O215 Cd204 2.439 . S
O215 C209 1.208 . S
C216 C217 1.363 1_565 S
C216 C222 1.379 . S
C216 N224 1.356 . S
C217 C216 1.363 1_545 S
C217 C223 1.363 . S
C218 C219 1.363 . S
C218 C223 1.379 1_565 S
C218 N225 1.357 . S
C219 C218 1.363 . S
C219 C222 1.363 . S
N220 C222 1.356 . S
N220 H232 0.984 . S
N220 H233 0.985 . S
N221 C223 1.356 . S
N221 H226 0.984 . S
N221 H227 0.985 . S
C222 C216 1.379 . S
C222 C219 1.363 . S
C222 N220 1.356 . S
C223 C217 1.363 . S
C223 C218 1.379 1_545 S
C223 N221 1.356 . S
N224 C216 1.356 . S
N224 H230 0.984 . S
N224 H231 0.984 . S
N225 C218 1.357 . S
N225 H228 0.988 . S
N225 H229 0.980 1_565 S
H226 N221 0.984 . S
H227 N221 0.985 . S
H228 N225 0.988 . S
H229 N225 0.980 1_545 S
H230 N224 0.984 . S
H231 N224 0.984 . S
H232 N220 0.984 . S
H233 N220 0.985 . S
C234 C235 1.363 . S
C234 C240 1.379 . S
C234 N242 1.356 . S
C235 C234 1.363 . S
C235 C241 1.363 . S
C236 C237 1.363 . S
C236 C241 1.379 . S
C236 N243 1.356 . S
C237 C236 1.363 . S
C237 C240 1.363 . S
N238 C240 1.356 . S
N238 H250 0.984 . S
N238 H251 0.985 . S
N239 C241 1.356 . S
N239 H244 0.984 . S
N239 H245 0.985 . S
C240 C234 1.379 . S
C240 C237 1.363 . S
C240 N238 1.356 . S
C241 C235 1.363 . S
C241 C236 1.379 . S
C241 N239 1.356 . S
N242 C234 1.356 . S
N242 H248 0.984 . S
N242 H249 0.984 . S
N243 C236 1.356 . S
N243 H246 0.984 . S
N243 H247 0.985 . S
H244 N239 0.984 . S
H245 N239 0.985 . S
H246 N243 0.984 . S
H247 N243 0.985 . S
H248 N242 0.984 . S
H249 N242 0.984 . S
H250 N238 0.984 . S
H251 N238 0.985 . S
C252 C253 1.363 . S
C252 C258 1.379 . S
C252 N260 1.356 . S
C253 C252 1.363 . S
C253 C259 1.363 . S
C254 C255 1.363 . S
C254 C259 1.379 . S
C254 N261 1.356 . S
C255 C254 1.363 . S
C255 C258 1.363 . S
N256 C258 1.356 . S
N256 H268 0.984 . S
N256 H269 0.985 . S
N257 C259 1.356 . S
N257 H262 0.984 . S
N257 H263 0.985 . S
C258 C252 1.379 . S
C258 C255 1.363 . S
C258 N256 1.356 . S
C259 C253 1.363 . S
C259 C254 1.379 . S
C259 N257 1.356 . S
N260 C252 1.356 . S
N260 H266 0.984 . S
N260 H267 0.984 . S
N261 C254 1.356 . S
N261 H264 0.984 . S
N261 H265 0.985 . S
H262 N257 0.984 . S
H263 N257 0.985 . S
H264 N261 0.984 . S
H265 N261 0.985 . S
H266 N260 0.984 . S
H267 N260 0.984 . S
H268 N256 0.984 . S
H269 N256 0.985 . S
C270 C271 1.363 . S
C270 C276 1.379 . S
C270 N278 1.356 . S
C271 C270 1.363 . S
C271 C277 1.363 . S
C272 C273 1.363 . S
C272 C277 1.379 . S
C272 N279 1.356 . S
C273 C272 1.363 . S
C273 C276 1.363 . S
N274 C276 1.356 . S
N274 H286 0.984 . S
N274 H287 0.985 . S
N275 C277 1.356 . S
N275 H280 0.984 . S
N275 H281 0.985 . S
C276 C270 1.379 . S
C276 C273 1.363 . S
C276 N274 1.356 . S
C277 C271 1.363 . S
C277 C272 1.379 . S
C277 N275 1.356 . S
N278 C270 1.356 . S
N278 H284 0.984 1_565 S
N278 H285 0.984 . S
N279 C272 1.356 . S
N279 H282 0.984 . S
N279 H283 0.985 . S
H280 N275 0.984 . S
H281 N275 0.985 . S
H282 N279 0.984 . S
H283 N279 0.985 . S
H284 N278 0.984 1_545 S
H285 N278 0.984 . S
H286 N274 0.984 . S
H287 N274 0.985 . S
C288 C289 1.363 . S
C288 C294 1.379 . S
C288 N296 1.356 . S
C289 C288 1.363 . S
C289 C295 1.376 . S
C290 C291 1.363 . S
C290 C295 1.398 . S
C290 N297 1.356 . S
C291 C290 1.363 . S
C291 C294 1.363 . S
N292 C294 1.356 . S
N292 H304 0.984 . S
N292 H305 0.985 . S
N293 C295 1.325 1_556 S
N293 H298 0.984 . S
N293 H299 0.985 . S
C294 C288 1.379 . S
C294 C291 1.363 . S
C294 N292 1.356 . S
C295 C289 1.376 . S
C295 C290 1.398 . S
C295 N293 1.325 1_554 S
N296 C288 1.356 . S
N296 H302 0.984 . S
N296 H303 0.984 . S
N297 C290 1.356 . S
N297 H300 0.984 . S
N297 H301 0.965 1_554 S
H298 N293 0.984 . S
H299 N293 0.985 . S
H300 N297 0.984 . S
H301 N297 0.965 1_556 S
H302 N296 0.984 . S
H303 N296 0.984 . S
H304 N292 0.984 . S
H305 N292 0.985 . S
C306 C307 1.363 . S
C306 C312 1.379 . S
C306 N314 1.356 . S
C307 C306 1.363 . S
C307 C313 1.363 . S
C308 C309 1.363 . S
C308 C313 1.379 . S
C308 N315 1.356 . S
C309 C308 1.363 . S
C309 C312 1.363 . S
N310 C312 1.356 . S
N310 H322 0.984 . S
N310 H323 0.985 . S
N311 C313 1.356 . S
N311 H316 0.984 . S
N311 H317 0.985 . S
C312 C306 1.379 . S
C312 C309 1.363 . S
C312 N310 1.356 . S
C313 C307 1.363 . S
C313 C308 1.379 . S
C313 N311 1.356 . S
N314 C306 1.356 . S
N314 H320 0.984 . S
N314 H321 0.984 . S
N315 C308 1.356 . S
N315 H318 0.984 . S
N315 H319 0.985 . S
H316 N311 0.984 . S
H317 N311 0.985 . S
H318 N315 0.984 . S
H319 N315 0.985 . S
H320 N314 0.984 . S
H321 N314 0.984 . S
H322 N310 0.984 . S
H323 N310 0.985 . S
C324 C325 1.363 . S
C324 C330 1.379 . S
C324 N332 1.356 . S
C325 C324 1.363 . S
C325 C331 1.363 . S
C326 C327 1.363 . S
C326 C331 1.379 . S
C326 N333 1.356 . S
C327 C326 1.363 . S
C327 C330 1.363 . S
N328 C330 1.356 . S
N328 H340 0.984 . S
N328 H341 0.985 . S
N329 C331 1.356 1_565 S
N329 H334 0.984 . S
N329 H335 0.985 . S
C330 C324 1.379 . S
C330 C327 1.363 . S
C330 N328 1.356 . S
C331 C325 1.363 . S
C331 C326 1.379 . S
C331 N329 1.356 1_545 S
N332 C324 1.356 . S
N332 H338 0.984 . S
N332 H339 0.984 . S
N333 C326 1.356 . S
N333 H336 0.984 . S
N333 H337 0.984 1_545 S
H334 N329 0.984 . S
H335 N329 0.985 . S
H336 N333 0.984 . S
H337 N333 0.984 1_565 S
H338 N332 0.984 . S
H339 N332 0.984 . S
H340 N328 0.984 . S
H341 N328 0.985 . S
C342 C343 1.363 . S
C342 C348 1.379 . S
C342 N350 1.356 . S
C343 C342 1.363 . S
C343 C349 1.363 . S
C344 C345 1.363 . S
C344 C349 1.379 . S
C344 N351 1.356 . S
C345 C344 1.363 . S
C345 C348 1.363 . S
N346 C348 1.356 . S
N346 H358 0.984 1_545 S
N346 H359 0.985 1_545 S
N347 C349 1.356 . S
N347 H352 0.984 . S
N347 H353 0.985 . S
C348 C342 1.379 . S
C348 C345 1.363 . S
C348 N346 1.356 . S
C349 C343 1.363 . S
C349 C344 1.379 . S
C349 N347 1.356 . S
N350 C342 1.356 . S
N350 H356 0.984 . S
N350 H357 0.984 . S
N351 C344 1.356 . S
N351 H354 0.984 . S
N351 H355 0.985 . S
H352 N347 0.984 . S
H353 N347 0.985 . S
H354 N351 0.984 . S
H355 N351 0.985 . S
H356 N350 0.984 . S
H357 N350 0.984 . S
H358 N346 0.984 1_565 S
H359 N346 0.985 1_565 S
C360 C361 1.363 . S
C360 C366 1.379 . S
C360 N368 1.356 . S
C361 C360 1.363 . S
C361 C367 1.363 . S
C362 C363 1.363 . S
C362 C367 1.379 . S
C362 N369 1.356 . S
C363 C362 1.363 . S
C363 C366 1.363 . S
N364 C366 1.356 . S
N364 H376 0.984 . S
N364 H377 0.985 . S
N365 C367 1.356 . S
N365 H370 0.984 . S
N365 H371 0.985 . S
C366 C360 1.379 . S
C366 C363 1.363 . S
C366 N364 1.356 . S
C367 C361 1.363 . S
C367 C362 1.379 . S
C367 N365 1.356 . S
N368 C360 1.356 . S
N368 H374 0.984 . S
N368 H375 0.984 . S
N369 C362 1.356 . S
N369 H372 0.984 . S
N369 H373 0.985 . S
H370 N365 0.984 . S
H371 N365 0.985 . S
H372 N369 0.984 . S
H373 N369 0.985 . S
H374 N368 0.984 . S
H375 N368 0.984 . S
H376 N364 0.984 . S
H377 N364 0.985 . S
C378 C379 1.363 . S
C378 C384 1.379 . S
C378 N386 1.356 . S
C379 C378 1.363 . S
C379 C385 1.363 . S
C380 C381 1.363 . S
C380 C385 1.379 . S
C380 N387 1.356 . S
C381 C380 1.363 . S
C381 C384 1.363 . S
N382 C384 1.356 . S
N382 H394 0.984 . S
N382 H395 0.985 . S
N383 C385 1.356 . S
N383 H388 0.984 . S
N383 H389 0.985 . S
C384 C378 1.379 . S
C384 C381 1.363 . S
C384 N382 1.356 . S
C385 C379 1.363 . S
C385 C380 1.379 . S
C385 N383 1.356 . S
N386 C378 1.356 . S
N386 H392 0.984 . S
N386 H393 0.984 . S
N387 C380 1.356 . S
N387 H390 0.984 . S
N387 H391 0.985 . S
H388 N383 0.984 . S
H389 N383 0.985 . S
H390 N387 0.984 . S
H391 N387 0.985 . S
H392 N386 0.984 . S
H393 N386 0.984 . S
H394 N382 0.984 . S
H395 N382 0.985 . S
C396 C397 1.363 . S
C396 C402 1.379 . S
C396 N404 1.356 . S
C397 C396 1.363 . S
C397 C403 1.363 . S
C398 C399 1.363 . S
C398 C403 1.379 . S
C398 N405 1.356 1_455 S
C399 C398 1.363 . S
C399 C402 1.363 . S
N400 C402 1.356 . S
N400 H412 0.984 . S
N400 H413 0.985 . S
N401 C403 1.356 . S
N401 H406 0.984 . S
N401 H407 0.985 . S
C402 C396 1.379 . S
C402 C399 1.363 . S
C402 N400 1.356 . S
C403 C397 1.363 . S
C403 C398 1.379 . S
C403 N401 1.356 . S
N404 C396 1.356 . S
N404 H410 0.984 . S
N404 H411 0.984 . S
N405 C398 1.356 1_655 S
N405 H408 0.984 . S
N405 H409 0.985 . S
H406 N401 0.984 . S
H407 N401 0.985 . S
H408 N405 0.984 . S
H409 N405 0.985 . S
H410 N404 0.984 . S
H411 N404 0.984 . S
H412 N400 0.984 . S
H413 N400 0.985 . S
C414 C415 1.363 . S
C414 C420 1.379 . S
C414 N422 1.356 . S
C415 C414 1.363 . S
C415 C421 1.363 1_455 S
C416 C417 1.363 1_655 S
C416 C421 1.379 . S
C416 N423 1.356 . S
C417 C416 1.363 1_455 S
C417 C420 1.363 . S
N418 C420 1.356 . S
N418 H430 0.984 . S
N418 H431 0.985 . S
N419 C421 1.356 . S
N419 H424 0.984 . S
N419 H425 0.985 . S
C420 C414 1.379 . S
C420 C417 1.363 . S
C420 N418 1.356 . S
C421 C415 1.363 1_655 S
C421 C416 1.379 . S
C421 N419 1.356 . S
N422 C414 1.356 . S
N422 H428 0.984 . S
N422 H429 0.984 . S
N423 C416 1.356 . S
N423 H426 0.984 . S
N423 H427 0.985 . S
H424 N419 0.984 . S
H425 N419 0.985 . S
H426 N423 0.984 . S
H427 N423 0.985 . S
H428 N422 0.984 . S
H429 N422 0.984 . S
H430 N418 0.984 . S
H431 N418 0.985 . S
C432 C433 1.363 . S
C432 C438 1.379 . S
C432 N440 1.356 . S
C433 C432 1.363 . S
C433 C439 1.363 . S
C434 C435 1.363 . S
C434 C439 1.379 . S
C434 N441 1.356 . S
C435 C434 1.363 . S
C435 C438 1.363 . S
N436 C438 1.356 . S
N436 H448 0.984 . S
N436 H449 0.985 . S
N437 C439 1.356 . S
N437 H442 0.984 . S
N437 H443 0.985 . S
C438 C432 1.379 . S
C438 C435 1.363 . S
C438 N436 1.356 . S
C439 C433 1.363 . S
C439 C434 1.379 . S
C439 N437 1.356 . S
N440 C432 1.356 . S
N440 H446 0.984 . S
N440 H447 0.984 . S
N441 C434 1.356 . S
N441 H444 0.984 . S
N441 H445 0.985 . S
H442 N437 0.984 . S
H443 N437 0.985 . S
H444 N441 0.984 . S
H445 N441 0.985 . S
H446 N440 0.984 . S
H447 N440 0.984 . S
H448 N436 0.984 . S
H449 N436 0.985 . S
C450 C451 1.363 . S
C450 C456 1.379 1_455 S
C450 N458 1.356 . S
C451 C450 1.363 . S
C451 C457 1.363 . S
C452 C453 1.363 . S
C452 C457 1.379 1_655 S
C452 N459 1.356 . S
C453 C452 1.363 . S
C453 C456 1.363 . S
N454 C456 1.356 . S
N454 H466 0.984 . S
N454 H467 0.985 . S
N455 C457 1.356 . S
N455 H460 0.984 . S
N455 H461 0.985 . S
C456 C450 1.379 1_655 S
C456 C453 1.363 . S
C456 N454 1.356 . S
C457 C451 1.363 . S
C457 C452 1.379 1_455 S
C457 N455 1.356 . S
N458 C450 1.356 . S
N458 H464 0.984 . S
N458 H465 0.984 . S
N459 C452 1.356 . S
N459 H462 0.984 . S
N459 H463 0.985 . S
H460 N455 0.984 . S
H461 N455 0.985 . S
H462 N459 0.984 . S
H463 N459 0.985 . S
H464 N458 0.984 . S
H465 N458 0.984 . S
H466 N454 0.984 . S
H467 N454 0.985 . S
C468 C469 1.374 . S
C468 C474 1.367 1_556 S
C468 N476 1.362 . S
C469 C468 1.374 . S
C469 C475 1.363 . S
C470 C471 1.350 1_556 S
C470 C475 1.395 . S
C470 N477 1.350 1_556 S
C471 C470 1.350 1_554 S
C471 C474 1.363 . S
N472 C474 1.356 . S
N472 H484 0.984 . S
N472 H485 0.985 . S
N473 C475 1.356 . S
N473 H478 0.984 . S
N473 H479 0.985 . S
C474 C468 1.367 1_554 S
C474 C471 1.363 . S
C474 N472 1.356 . S
C475 C469 1.363 . S
C475 C470 1.395 . S
C475 N473 1.356 . S
N476 C468 1.362 . S
N476 H482 0.984 1_656 S
N476 H483 0.984 . S
N477 C470 1.350 1_554 S
N477 H480 0.984 . S
N477 H481 0.985 1_554 S
H478 N473 0.984 . S
H479 N473 0.985 . S
H480 N477 0.984 . S
H481 N477 0.985 1_556 S
H482 N476 0.984 1_454 S
H483 N476 0.984 . S
H484 N472 0.984 . S
H485 N472 0.985 . S
C486 C487 1.363 . S
C486 C492 1.379 . S
C486 N494 1.356 . S
C487 C486 1.363 . S
C487 C493 1.363 . S
C488 C489 1.363 . S
C488 C493 1.379 . S
C488 N495 1.356 . S
C489 C488 1.363 . S
C489 C492 1.363 . S
N490 C492 1.356 . S
N490 H502 0.984 . S
N490 H503 0.985 . S
N491 C493 1.356 . S
N491 H496 0.984 . S
N491 H497 0.985 . S
C492 C486 1.379 . S
C492 C489 1.363 . S
C492 N490 1.356 . S
C493 C487 1.363 . S
C493 C488 1.379 . S
C493 N491 1.356 . S
N494 C486 1.356 . S
N494 H500 0.984 . S
N494 H501 0.984 . S
N495 C488 1.356 . S
N495 H498 0.984 . S
N495 H499 0.985 . S
H496 N491 0.984 . S
H497 N491 0.985 . S
H498 N495 0.984 . S
H499 N495 0.985 . S
H500 N494 0.984 . S
H501 N494 0.984 . S
H502 N490 0.984 . S
H503 N490 0.985 . S
C504 C505 1.363 . S
C504 C510 1.379 . S
C504 N512 1.356 . S
C505 C504 1.363 . S
C505 C511 1.363 . S
C506 C507 1.363 1_565 S
C506 C511 1.379 1_565 S
C506 N513 1.356 . S
C507 C506 1.363 1_545 S
C507 C510 1.363 . S
N508 C510 1.356 . S
N508 H520 0.984 . S
N508 H521 0.985 . S
N509 C511 1.356 1_565 S
N509 H514 0.984 1_565 S
N509 H515 0.985 . S
C510 C504 1.379 . S
C510 C507 1.363 . S
C510 N508 1.356 . S
C511 C505 1.363 . S
C511 C506 1.379 1_545 S
C511 N509 1.356 1_545 S
N512 C504 1.356 . S
N512 H518 0.984 . S
N512 H519 0.984 . S
N513 C506 1.356 . S
N513 H516 0.984 . S
N513 H517 0.985 . S
H514 N509 0.984 1_545 S
H515 N509 0.985 . S
H516 N513 0.984 . S
H517 N513 0.985 . S
H518 N512 0.984 . S
H519 N512 0.984 . S
H520 N508 0.984 . S
H521 N508 0.985 . S
C522 C523 1.363 . S
C522 C528 1.379 . S
C522 N530 1.356 . S
C523 C522 1.363 . S
C523 C529 1.363 . S
C524 C525 1.363 . S
C524 C529 1.379 . S
C524 N531 1.356 . S
C525 C524 1.363 . S
C525 C528 1.363 . S
N526 C528 1.356 . S
N526 H538 0.984 . S
N526 H539 0.985 . S
N527 C529 1.356 . S
N527 H532 0.984 . S
N527 H533 0.985 . S
C528 C522 1.379 . S
C528 C525 1.363 . S
C528 N526 1.356 . S
C529 C523 1.363 . S
C529 C524 1.379 . S
C529 N527 1.356 . S
N530 C522 1.356 . S
N530 H536 0.984 . S
N530 H537 0.984 . S
N531 C524 1.356 . S
N531 H534 0.984 . S
N531 H535 0.985 . S
H532 N527 0.984 . S
H533 N527 0.985 . S
H534 N531 0.984 . S
H535 N531 0.985 . S
H536 N530 0.984 . S
H537 N530 0.984 . S
H538 N526 0.984 . S
H539 N526 0.985 . S
C540 C541 1.363 . S
C540 C546 1.379 . S
C540 N548 1.356 . S
C541 C540 1.363 . S
C541 C547 1.363 . S
C542 C543 1.363 . S
C542 C547 1.379 . S
C542 N549 1.356 . S
C543 C542 1.363 . S
C543 C546 1.363 . S
N544 C546 1.356 . S
N544 H556 0.984 . S
N544 H557 0.985 1_556 S
N545 C547 1.356 . S
N545 H550 0.984 . S
N545 H551 0.985 . S
C546 C540 1.379 . S
C546 C543 1.363 . S
C546 N544 1.356 . S
C547 C541 1.363 . S
C547 C542 1.379 . S
C547 N545 1.356 . S
N548 C540 1.356 . S
N548 H554 0.984 . S
N548 H555 0.984 . S
N549 C542 1.356 . S
N549 H552 0.984 . S
N549 H553 0.985 . S
H550 N545 0.984 . S
H551 N545 0.985 . S
H552 N549 0.984 . S
H553 N549 0.985 . S
H554 N548 0.984 . S
H555 N548 0.984 . S
H556 N544 0.984 . S
H557 N544 0.985 1_554 S
C558 C559 1.363 . S
C558 C564 1.379 . S
C558 N566 1.356 . S
C559 C558 1.363 . S
C559 C565 1.363 . S
C560 C561 1.363 . S
C560 C565 1.379 . S
C560 N567 1.356 . S
C561 C560 1.363 . S
C561 C564 1.363 . S
N562 C564 1.356 . S
N562 H574 0.984 1_565 S
N562 H575 0.985 . S
N563 C565 1.356 . S
N563 H568 0.984 . S
N563 H569 0.985 . S
C564 C558 1.379 . S
C564 C561 1.363 . S
C564 N562 1.356 . S
C565 C559 1.363 . S
C565 C560 1.379 . S
C565 N563 1.356 . S
N566 C558 1.356 . S
N566 H572 0.984 1_565 S
N566 H573 0.984 . S
N567 C560 1.356 . S
N567 H570 0.984 . S
N567 H571 0.985 . S
H568 N563 0.984 . S
H569 N563 0.985 . S
H570 N567 0.984 . S
H571 N567 0.985 . S
H572 N566 0.984 1_545 S
H573 N566 0.984 . S
H574 N562 0.984 1_545 S
H575 N562 0.985 . S
C576 C577 1.363 . S
C576 C582 1.379 . S
C576 N584 1.356 . S
C577 C576 1.363 . S
C577 C583 1.363 . S
C578 C579 1.363 . S
C578 C583 1.379 . S
C578 N585 1.356 . S
C579 C578 1.363 . S
C579 C582 1.363 . S
N580 C582 1.356 . S
N580 H592 0.984 . S
N580 H593 0.985 . S
N581 C583 1.356 . S
N581 H586 0.984 . S
N581 H587 0.985 . S
C582 C576 1.379 . S
C582 C579 1.363 . S
C582 N580 1.356 . S
C583 C577 1.363 . S
C583 C578 1.379 . S
C583 N581 1.356 . S
N584 C576 1.356 . S
N584 H590 0.984 1_455 S
N584 H591 0.984 . S
N585 C578 1.356 . S
N585 H588 0.984 . S
N585 H589 0.985 . S
H586 N581 0.984 . S
H587 N581 0.985 . S
H588 N585 0.984 . S
H589 N585 0.985 . S
H590 N584 0.984 1_655 S
H591 N584 0.984 . S
H592 N580 0.984 . S
H593 N580 0.985 . S
C594 C595 1.363 . S
C594 C600 1.379 . S
C594 N602 1.356 . S
C595 C594 1.363 . S
C595 C601 1.363 . S
C596 C597 1.363 . S
C596 C601 1.379 . S
C596 N603 1.356 . S
C597 C596 1.363 . S
C597 C600 1.363 . S
N598 C600 1.356 . S
N598 H610 0.984 . S
N598 H611 0.985 . S
N599 C601 1.356 . S
N599 H604 0.984 . S
N599 H605 0.985 . S
C600 C594 1.379 . S
C600 C597 1.363 . S
C600 N598 1.356 . S
C601 C595 1.363 . S
C601 C596 1.379 . S
C601 N599 1.356 . S
N602 C594 1.356 . S
N602 H608 0.984 . S
N602 H609 0.984 . S
N603 C596 1.356 . S
N603 H606 0.984 . S
N603 H607 0.985 . S
H604 N599 0.984 . S
H605 N599 0.985 . S
H606 N603 0.984 . S
H607 N603 0.985 . S
H608 N602 0.984 . S
H609 N602 0.984 . S
H610 N598 0.984 . S
H611 N598 0.985 . S
C612 C613 1.363 . S
C612 C618 1.379 . S
C612 N620 1.356 . S
C613 C612 1.363 . S
C613 C619 1.363 . S
C614 C615 1.363 . S
C614 C619 1.379 . S
C614 N621 1.356 . S
C615 C614 1.363 . S
C615 C618 1.363 . S
N616 C618 1.356 . S
N616 H628 0.984 . S
N616 H629 0.985 . S
N617 C619 1.370 . S
N617 H622 0.981 1_565 S
N617 H623 0.975 1_565 S
C618 C612 1.379 . S
C618 C615 1.363 . S
C618 N616 1.356 . S
C619 C613 1.363 . S
C619 C614 1.379 . S
C619 N617 1.370 . S
N620 C612 1.356 . S
N620 H626 0.984 . S
N620 H627 0.984 . S
N621 C614 1.356 . S
N621 H624 0.984 . S
N621 H625 0.985 . S
H622 N617 0.981 1_545 S
H623 N617 0.975 1_545 S
H624 N621 0.984 . S
H625 N621 0.985 . S
H626 N620 0.984 . S
H627 N620 0.984 . S
H628 N616 0.984 . S
H629 N616 0.985 . S
C630 C631 1.363 . S
C630 C636 1.379 . S
C630 N638 1.356 . S
C631 C630 1.363 . S
C631 C637 1.363 . S
C632 C633 1.363 . S
C632 C637 1.379 . S
C632 N639 1.356 . S
C633 C632 1.363 . S
C633 C636 1.363 . S
N634 C636 1.356 . S
N634 H646 0.984 . S
N634 H647 0.985 . S
N635 C637 1.356 . S
N635 H640 0.984 . S
N635 H641 0.985 . S
C636 C630 1.379 . S
C636 C633 1.363 . S
C636 N634 1.356 . S
C637 C631 1.363 . S
C637 C632 1.379 . S
C637 N635 1.356 . S
N638 C630 1.356 . S
N638 H644 0.984 . S
N638 H645 0.984 . S
N639 C632 1.356 . S
N639 H642 0.984 . S
N639 H643 0.985 . S
H640 N635 0.984 . S
H641 N635 0.985 . S
H642 N639 0.984 . S
H643 N639 0.985 . S
H644 N638 0.984 . S
H645 N638 0.984 . S
H646 N634 0.984 . S
H647 N634 0.985 . S
C648 C649 1.363 . S
C648 C654 1.379 . S
C648 N656 1.356 . S
C649 C648 1.363 . S
C649 C655 1.363 . S
C650 C651 1.363 . S
C650 C655 1.379 . S
C650 N657 1.356 . S
C651 C650 1.363 . S
C651 C654 1.363 . S
N652 C654 1.356 . S
N652 H664 0.984 . S
N652 H665 0.985 . S
N653 C655 1.356 . S
N653 H658 0.984 . S
N653 H659 0.985 . S
C654 C648 1.379 . S
C654 C651 1.363 . S
C654 N652 1.356 . S
C655 C649 1.363 . S
C655 C650 1.379 . S
C655 N653 1.356 . S
N656 C648 1.356 . S
N656 H662 0.984 . S
N656 H663 0.984 . S
N657 C650 1.356 . S
N657 H660 0.984 . S
N657 H661 0.985 . S
H658 N653 0.984 . S
H659 N653 0.985 . S
H660 N657 0.984 . S
H661 N657 0.985 . S
H662 N656 0.984 . S
H663 N656 0.984 . S
H664 N652 0.984 . S
H665 N652 0.985 . S
C666 C667 1.363 . S
C666 C672 1.379 . S
C666 N674 1.356 . S
C667 C666 1.363 . S
C667 C673 1.363 . S
C668 C669 1.363 . S
C668 C673 1.379 . S
C668 N675 1.356 . S
C669 C668 1.363 . S
C669 C672 1.363 . S
N670 C672 1.356 . S
N670 H682 0.984 . S
N670 H683 0.985 . S
N671 C673 1.356 . S
N671 H676 0.984 . S
N671 H677 0.985 . S
C672 C666 1.379 . S
C672 C669 1.363 . S
C672 N670 1.356 . S
C673 C667 1.363 . S
C673 C668 1.379 . S
C673 N671 1.356 . S
N674 C666 1.356 . S
N674 H680 0.984 . S
N674 H681 0.984 . S
N675 C668 1.356 . S
N675 H678 0.984 . S
N675 H679 0.985 . S
H676 N671 0.984 . S
H677 N671 0.985 . S
H678 N675 0.984 . S
H679 N675 0.985 . S
H680 N674 0.984 . S
H681 N674 0.984 . S
H682 N670 0.984 . S
H683 N670 0.985 . S
C684 C685 1.363 . S
C684 C690 1.379 . S
C684 N692 1.356 . S
C685 C684 1.363 . S
C685 C691 1.363 . S
C686 C687 1.363 . S
C686 C691 1.379 . S
C686 N693 1.356 . S
C687 C686 1.363 . S
C687 C690 1.363 . S
N688 C690 1.356 . S
N688 H700 0.984 . S
N688 H701 0.985 . S
N689 C691 1.356 . S
N689 H694 0.984 . S
N689 H695 0.985 . S
C690 C684 1.379 . S
C690 C687 1.363 . S
C690 N688 1.356 . S
C691 C685 1.363 . S
C691 C686 1.379 . S
C691 N689 1.356 . S
N692 C684 1.356 . S
N692 H698 0.984 . S
N692 H699 0.984 . S
N693 C686 1.356 . S
N693 H696 0.984 . S
N693 H697 0.985 . S
H694 N689 0.984 . S
H695 N689 0.985 . S
H696 N693 0.984 . S
H697 N693 0.985 . S
H698 N692 0.984 . S
H699 N692 0.984 . S
H700 N688 0.984 . S
H701 N688 0.985 . S
C702 C703 1.363 . S
C702 C708 1.379 . S
C702 N710 1.356 . S
C703 C702 1.363 . S
C703 C709 1.363 . S
C704 C705 1.363 . S
C704 C709 1.379 . S
C704 N711 1.356 . S
C705 C704 1.363 . S
C705 C708 1.363 . S
N706 C708 1.356 . S
N706 H718 0.984 . S
N706 H719 0.985 . S
N707 C709 1.356 . S
N707 H712 0.984 1_655 S
N707 H713 0.985 . S
C708 C702 1.379 . S
C708 C705 1.363 . S
C708 N706 1.356 . S
C709 C703 1.363 . S
C709 C704 1.379 . S
C709 N707 1.356 . S
N710 C702 1.356 . S
N710 H716 0.984 . S
N710 H717 0.984 . S
N711 C704 1.356 . S
N711 H714 0.984 . S
N711 H715 0.985 . S
H712 N707 0.984 1_455 S
H713 N707 0.985 . S
H714 N711 0.984 . S
H715 N711 0.985 . S
H716 N710 0.984 . S
H717 N710 0.984 . S
H718 N706 0.984 . S
H719 N706 0.985 . S
C720 C721 1.363 . S
C720 C726 1.379 . S
C720 N728 1.356 . S
C721 C720 1.363 . S
C721 C727 1.363 . S
C722 C723 1.363 . S
C722 C727 1.379 . S
C722 N729 1.356 . S
C723 C722 1.363 . S
C723 C726 1.363 . S
N724 C726 1.356 . S
N724 H736 0.984 . S
N724 H737 0.985 . S
N725 C727 1.356 . S
N725 H730 0.984 . S
N725 H731 0.985 . S
C726 C720 1.379 . S
C726 C723 1.363 . S
C726 N724 1.356 . S
C727 C721 1.363 . S
C727 C722 1.379 . S
C727 N725 1.356 . S
N728 C720 1.356 . S
N728 H734 0.984 . S
N728 H735 0.984 . S
N729 C722 1.356 . S
N729 H732 0.984 . S
N729 H733 0.985 . S
H730 N725 0.984 . S
H731 N725 0.985 . S
H732 N729 0.984 . S
H733 N729 0.985 . S
H734 N728 0.984 . S
H735 N728 0.984 . S
H736 N724 0.984 . S
H737 N724 0.985 . S
C738 C739 1.363 . S
C738 C744 1.379 . S
C738 N746 1.356 . S
C739 C738 1.363 . S
C739 C745 1.363 . S
C740 C741 1.363 . S
C740 C745 1.379 . S
C740 N747 1.356 1_455 S
C741 C740 1.363 . S
C741 C744 1.363 . S
N742 C744 1.356 . S
N742 H754 0.984 . S
N742 H755 0.985 . S
N743 C745 1.356 . S
N743 H748 0.984 . S
N743 H749 0.985 . S
C744 C738 1.379 . S
C744 C741 1.363 . S
C744 N742 1.356 . S
C745 C739 1.363 . S
C745 C740 1.379 . S
C745 N743 1.356 . S
N746 C738 1.356 . S
N746 H752 0.984 . S
N746 H753 0.984 . S
N747 C740 1.356 1_655 S
N747 H750 0.984 . S
N747 H751 0.985 . S
H748 N743 0.984 . S
H749 N743 0.985 . S
H750 N747 0.984 . S
H751 N747 0.985 . S
H752 N746 0.984 . S
H753 N746 0.984 . S
H754 N742 0.984 . S
H755 N742 0.985 . S
C756 C757 1.363 . S
C756 C762 1.379 . S
C756 N764 1.356 . S
C757 C756 1.363 . S
C757 C763 1.363 . S
C758 C759 1.363 . S
C758 C763 1.379 . S
C758 N765 1.356 . S
C759 C758 1.363 . S
C759 C762 1.363 . S
N760 C762 1.356 . S
N760 H772 0.984 . S
N760 H773 0.985 . S
N761 C763 1.356 . S
N761 H766 0.984 . S
N761 H767 0.985 . S
C762 C756 1.379 . S
C762 C759 1.363 . S
C762 N760 1.356 . S
C763 C757 1.363 . S
C763 C758 1.379 . S
C763 N761 1.356 . S
N764 C756 1.356 . S
N764 H770 0.984 . S
N764 H771 0.984 . S
N765 C758 1.356 . S
N765 H768 0.984 . S
N765 H769 0.985 . S
H766 N761 0.984 . S
H767 N761 0.985 . S
H768 N765 0.984 . S
H769 N765 0.985 . S
H770 N764 0.984 . S
H771 N764 0.984 . S
H772 N760 0.984 . S
H773 N760 0.985 . S
C774 C775 1.363 . S
C774 C780 1.379 . S
C774 N782 1.356 . S
C775 C774 1.363 . S
C775 C781 1.363 . S
C776 C777 1.363 . S
C776 C781 1.379 . S
C776 N783 1.356 . S
C777 C776 1.363 . S
C777 C780 1.363 . S
N778 C780 1.356 . S
N778 H790 0.984 . S
N778 H791 0.985 . S
N779 C781 1.356 . S
N779 H784 0.984 . S
N779 H785 0.985 . S
C780 C774 1.379 . S
C780 C777 1.363 . S
C780 N778 1.356 . S
C781 C775 1.363 . S
C781 C776 1.379 . S
C781 N779 1.356 . S
N782 C774 1.356 . S
N782 H788 0.984 . S
N782 H789 0.984 . S
N783 C776 1.356 . S
N783 H786 0.984 . S
N783 H787 0.985 . S
H784 N779 0.984 . S
H785 N779 0.985 . S
H786 N783 0.984 . S
H787 N783 0.985 . S
H788 N782 0.984 . S
H789 N782 0.984 . S
H790 N778 0.984 . S
H791 N778 0.985 . S
C219 C124 1.403 . S
C217 C5 1.383 . S
C237 C141 1.452 . S
C235 C18 1.491 . S
C255 C155 1.563 . S
C253 C31 1.585 . S
C271 C42 1.477 . S
C273 C113 1.396 . S
C289 C57 1.282 1_554 S
C291 C110 1.254 . S
C307 C70 1.231 . S
C309 C127 1.153 . S
C327 C138 1.501 1_545 S
C325 C81 1.475 . S
C345 C152 1.320 . S
C343 C96 1.365 . S
C361 C29 1.307 . S
C363 C180 1.320 . S
C381 C194 1.501 . S
C379 C44 1.554 . S
C397 C3 1.210 . S
C399 C211 1.153 1_455 S
C417 C166 1.254 1_455 S
C415 C16 1.225 . S
C433 C83 1.418 . S
C435 C169 1.396 . S
C451 C94 1.636 . S
C453 C183 1.563 . S
C471 C197 1.452 . S
C469 C55 1.529 . S
C487 C68 1.384 . S
C489 C208 1.403 . S
C507 C140 1.718 1_545 S
C505 C1 1.698 . S
C525 C154 1.859 . S
C523 C14 1.786 . S
C541 C27 1.752 . S
C543 C112 1.821 1_556 S
C559 C49 1.730 . S
C561 C125 1.603 . S
C577 C53 1.478 . S
C579 C153 1.321 . S
C597 C111 1.304 . S
C595 C66 1.448 . S
C615 C126 1.614 . S
C613 C88 1.660 . S
C633 C139 1.399 . S
C631 C92 1.549 . S
C651 C195 1.399 . S
C649 C36 1.552 . S
C669 C210 1.614 . S
C667 C40 1.661 . S
C685 C10 1.492 . S
C687 C167 1.304 . S
C705 C181 1.321 . S
C703 C23 1.488 1_655 S
C723 C209 1.603 . S
C721 C79 1.635 . S
C739 C101 1.856 . S
C741 C168 1.821 1_455 S
C759 C182 1.859 . S
C757 C62 1.888 . S
C777 C196 1.718 . S
C775 C75 1.756 . S
