# Generated by pormake.
# Topology iac, (4,6)-cn, num edge types: 1
# Building blocks:
#     Node 0, Type 0, BuildingBlock: KUFVIS_clean_sbu_0, # of connection points: 4
#     Node 1, Type 0, BuildingBlock: KUFVIS_clean_sbu_0, # of connection points: 4
#     Node 2, Type 0, BuildingBlock: KUFVIS_clean_sbu_0, # of connection points: 4
#     Node 3, Type 0, BuildingBlock: KUFVIS_clean_sbu_0, # of connection points: 4
#     Node 4, Type 0, BuildingBlock: KUFVIS_clean_sbu_0, # of connection points: 4
#     Node 5, Type 0, BuildingBlock: KUFVIS_clean_sbu_0, # of connection points: 4
#     Node 6, Type 0, BuildingBlock: KUFVIS_clean_sbu_0, # of connection points: 4
#     Node 7, Type 0, BuildingBlock: KUFVIS_clean_sbu_0, # of connection points: 4
#     Node 8, Type 0, BuildingBlock: KUFVIS_clean_sbu_0, # of connection points: 4
#     Node 9, Type 0, BuildingBlock: KUFVIS_clean_sbu_0, # of connection points: 4
#     Node 10, Type 0, BuildingBlock: KUFVIS_clean_sbu_0, # of connection points: 4
#     Node 11, Type 0, BuildingBlock: KUFVIS_clean_sbu_0, # of connection points: 4
#     Node 12, Type 0, BuildingBlock: KUFVIS_clean_sbu_0, # of connection points: 4
#     Node 13, Type 0, BuildingBlock: KUFVIS_clean_sbu_0, # of connection points: 4
#     Node 14, Type 0, BuildingBlock: KUFVIS_clean_sbu_0, # of connection points: 4
#     Node 15, Type 0, BuildingBlock: KUFVIS_clean_sbu_0, # of connection points: 4
#     Node 16, Type 0, BuildingBlock: KUFVIS_clean_sbu_0, # of connection points: 4
#     Node 17, Type 0, BuildingBlock: KUFVIS_clean_sbu_0, # of connection points: 4
#     Node 18, Type 0, BuildingBlock: KUFVIS_clean_sbu_0, # of connection points: 4
#     Node 19, Type 0, BuildingBlock: KUFVIS_clean_sbu_0, # of connection points: 4
#     Node 20, Type 0, BuildingBlock: KUFVIS_clean_sbu_0, # of connection points: 4
#     Node 21, Type 0, BuildingBlock: KUFVIS_clean_sbu_0, # of connection points: 4
#     Node 22, Type 0, BuildingBlock: KUFVIS_clean_sbu_0, # of connection points: 4
#     Node 23, Type 0, BuildingBlock: KUFVIS_clean_sbu_0, # of connection points: 4
#     Node 24, Type 1, BuildingBlock: LEVNOQ01_clean_sbu_1, # of connection points: 6
#     Node 25, Type 1, BuildingBlock: LEVNOQ01_clean_sbu_1, # of connection points: 6
#     Node 26, Type 1, BuildingBlock: LEVNOQ01_clean_sbu_1, # of connection points: 6
#     Node 27, Type 1, BuildingBlock: LEVNOQ01_clean_sbu_1, # of connection points: 6
#     Node 28, Type 1, BuildingBlock: LEVNOQ01_clean_sbu_1, # of connection points: 6
#     Node 29, Type 1, BuildingBlock: LEVNOQ01_clean_sbu_1, # of connection points: 6
#     Node 30, Type 1, BuildingBlock: LEVNOQ01_clean_sbu_1, # of connection points: 6
#     Node 31, Type 1, BuildingBlock: LEVNOQ01_clean_sbu_1, # of connection points: 6
#     Node 32, Type 1, BuildingBlock: LEVNOQ01_clean_sbu_1, # of connection points: 6
#     Node 33, Type 1, BuildingBlock: LEVNOQ01_clean_sbu_1, # of connection points: 6
#     Node 34, Type 1, BuildingBlock: LEVNOQ01_clean_sbu_1, # of connection points: 6
#     Node 35, Type 1, BuildingBlock: LEVNOQ01_clean_sbu_1, # of connection points: 6
#     Node 36, Type 1, BuildingBlock: LEVNOQ01_clean_sbu_1, # of connection points: 6
#     Node 37, Type 1, BuildingBlock: LEVNOQ01_clean_sbu_1, # of connection points: 6
#     Node 38, Type 1, BuildingBlock: LEVNOQ01_clean_sbu_1, # of connection points: 6
#     Node 39, Type 1, BuildingBlock: LEVNOQ01_clean_sbu_1, # of connection points: 6
#     Edge 40, Type (0, 1), BuildingBlock: KIFKEQ_clean_linker_1, # of connection points: 2
#     Edge 41, Type (0, 1), BuildingBlock: KIFKEQ_clean_linker_1, # of connection points: 2
#     Edge 42, Type (0, 1), BuildingBlock: KIFKEQ_clean_linker_1, # of connection points: 2
#     Edge 43, Type (0, 1), BuildingBlock: KIFKEQ_clean_linker_1, # of connection points: 2
#     Edge 44, Type (0, 1), BuildingBlock: KIFKEQ_clean_linker_1, # of connection points: 2
#     Edge 45, Type (0, 1), BuildingBlock: KIFKEQ_clean_linker_1, # of connection points: 2
#     Edge 46, Type (0, 1), BuildingBlock: KIFKEQ_clean_linker_1, # of connection points: 2
#     Edge 47, Type (0, 1), BuildingBlock: KIFKEQ_clean_linker_1, # of connection points: 2
#     Edge 48, Type (0, 1), BuildingBlock: KIFKEQ_clean_linker_1, # of connection points: 2
#     Edge 49, Type (0, 1), BuildingBlock: KIFKEQ_clean_linker_1, # of connection points: 2
#     Edge 50, Type (0, 1), BuildingBlock: KIFKEQ_clean_linker_1, # of connection points: 2
#     Edge 51, Type (0, 1), BuildingBlock: KIFKEQ_clean_linker_1, # of connection points: 2
#     Edge 52, Type (0, 1), BuildingBlock: KIFKEQ_clean_linker_1, # of connection points: 2
#     Edge 53, Type (0, 1), BuildingBlock: KIFKEQ_clean_linker_1, # of connection points: 2
#     Edge 54, Type (0, 1), BuildingBlock: KIFKEQ_clean_linker_1, # of connection points: 2
#     Edge 55, Type (0, 1), BuildingBlock: KIFKEQ_clean_linker_1, # of connection points: 2
#     Edge 56, Type (0, 1), BuildingBlock: KIFKEQ_clean_linker_1, # of connection points: 2
#     Edge 57, Type (0, 1), BuildingBlock: KIFKEQ_clean_linker_1, # of connection points: 2
#     Edge 58, Type (0, 1), BuildingBlock: KIFKEQ_clean_linker_1, # of connection points: 2
#     Edge 59, Type (0, 1), BuildingBlock: KIFKEQ_clean_linker_1, # of connection points: 2
#     Edge 60, Type (0, 1), BuildingBlock: KIFKEQ_clean_linker_1, # of connection points: 2
#     Edge 61, Type (0, 1), BuildingBlock: KIFKEQ_clean_linker_1, # of connection points: 2
#     Edge 62, Type (0, 1), BuildingBlock: KIFKEQ_clean_linker_1, # of connection points: 2
#     Edge 63, Type (0, 1), BuildingBlock: KIFKEQ_clean_linker_1, # of connection points: 2
#     Edge 64, Type (0, 1), BuildingBlock: KIFKEQ_clean_linker_1, # of connection points: 2
#     Edge 65, Type (0, 1), BuildingBlock: KIFKEQ_clean_linker_1, # of connection points: 2
#     Edge 66, Type (0, 1), BuildingBlock: KIFKEQ_clean_linker_1, # of connection points: 2
#     Edge 67, Type (0, 1), BuildingBlock: KIFKEQ_clean_linker_1, # of connection points: 2
#     Edge 68, Type (0, 1), BuildingBlock: KIFKEQ_clean_linker_1, # of connection points: 2
#     Edge 69, Type (0, 1), BuildingBlock: KIFKEQ_clean_linker_1, # of connection points: 2
#     Edge 70, Type (0, 1), BuildingBlock: KIFKEQ_clean_linker_1, # of connection points: 2
#     Edge 71, Type (0, 1), BuildingBlock: KIFKEQ_clean_linker_1, # of connection points: 2
#     Edge 72, Type (0, 1), BuildingBlock: KIFKEQ_clean_linker_1, # of connection points: 2
#     Edge 73, Type (0, 1), BuildingBlock: KIFKEQ_clean_linker_1, # of connection points: 2
#     Edge 74, Type (0, 1), BuildingBlock: KIFKEQ_clean_linker_1, # of connection points: 2
#     Edge 75, Type (0, 1), BuildingBlock: KIFKEQ_clean_linker_1, # of connection points: 2
#     Edge 76, Type (0, 1), BuildingBlock: KIFKEQ_clean_linker_1, # of connection points: 2
#     Edge 77, Type (0, 1), BuildingBlock: KIFKEQ_clean_linker_1, # of connection points: 2
#     Edge 78, Type (0, 1), BuildingBlock: KIFKEQ_clean_linker_1, # of connection points: 2
#     Edge 79, Type (0, 1), BuildingBlock: KIFKEQ_clean_linker_1, # of connection points: 2
#     Edge 80, Type (0, 1), BuildingBlock: KIFKEQ_clean_linker_1, # of connection points: 2
#     Edge 81, Type (0, 1), BuildingBlock: KIFKEQ_clean_linker_1, # of connection points: 2
#     Edge 82, Type (0, 1), BuildingBlock: KIFKEQ_clean_linker_1, # of connection points: 2
#     Edge 83, Type (0, 1), BuildingBlock: KIFKEQ_clean_linker_1, # of connection points: 2
#     Edge 84, Type (0, 1), BuildingBlock: KIFKEQ_clean_linker_1, # of connection points: 2
#     Edge 85, Type (0, 1), BuildingBlock: KIFKEQ_clean_linker_1, # of connection points: 2
#     Edge 86, Type (0, 1), BuildingBlock: KIFKEQ_clean_linker_1, # of connection points: 2
#     Edge 87, Type (0, 1), BuildingBlock: KIFKEQ_clean_linker_1, # of connection points: 2
#     Edge 88, Type (0, 1), BuildingBlock: KIFKEQ_clean_linker_1, # of connection points: 2
#     Edge 89, Type (0, 1), BuildingBlock: KIFKEQ_clean_linker_1, # of connection points: 2
#     Edge 90, Type (0, 1), BuildingBlock: KIFKEQ_clean_linker_1, # of connection points: 2
#     Edge 91, Type (0, 1), BuildingBlock: KIFKEQ_clean_linker_1, # of connection points: 2
#     Edge 92, Type (0, 1), BuildingBlock: KIFKEQ_clean_linker_1, # of connection points: 2
#     Edge 93, Type (0, 1), BuildingBlock: KIFKEQ_clean_linker_1, # of connection points: 2
#     Edge 94, Type (0, 1), BuildingBlock: KIFKEQ_clean_linker_1, # of connection points: 2
#     Edge 95, Type (0, 1), BuildingBlock: KIFKEQ_clean_linker_1, # of connection points: 2
#     Edge 96, Type (0, 1), BuildingBlock: KIFKEQ_clean_linker_1, # of connection points: 2
#     Edge 97, Type (0, 1), BuildingBlock: KIFKEQ_clean_linker_1, # of connection points: 2
#     Edge 98, Type (0, 1), BuildingBlock: KIFKEQ_clean_linker_1, # of connection points: 2
#     Edge 99, Type (0, 1), BuildingBlock: KIFKEQ_clean_linker_1, # of connection points: 2
#     Edge 100, Type (0, 1), BuildingBlock: KIFKEQ_clean_linker_1, # of connection points: 2
#     Edge 101, Type (0, 1), BuildingBlock: KIFKEQ_clean_linker_1, # of connection points: 2
#     Edge 102, Type (0, 1), BuildingBlock: KIFKEQ_clean_linker_1, # of connection points: 2
#     Edge 103, Type (0, 1), BuildingBlock: KIFKEQ_clean_linker_1, # of connection points: 2
#     Edge 104, Type (0, 1), BuildingBlock: KIFKEQ_clean_linker_1, # of connection points: 2
#     Edge 105, Type (0, 1), BuildingBlock: KIFKEQ_clean_linker_1, # of connection points: 2
#     Edge 106, Type (0, 1), BuildingBlock: KIFKEQ_clean_linker_1, # of connection points: 2
#     Edge 107, Type (0, 1), BuildingBlock: KIFKEQ_clean_linker_1, # of connection points: 2
#     Edge 108, Type (0, 1), BuildingBlock: KIFKEQ_clean_linker_1, # of connection points: 2
#     Edge 109, Type (0, 1), BuildingBlock: KIFKEQ_clean_linker_1, # of connection points: 2
#     Edge 110, Type (0, 1), BuildingBlock: KIFKEQ_clean_linker_1, # of connection points: 2
#     Edge 111, Type (0, 1), BuildingBlock: KIFKEQ_clean_linker_1, # of connection points: 2
#     Edge 112, Type (0, 1), BuildingBlock: KIFKEQ_clean_linker_1, # of connection points: 2
#     Edge 113, Type (0, 1), BuildingBlock: KIFKEQ_clean_linker_1, # of connection points: 2
#     Edge 114, Type (0, 1), BuildingBlock: KIFKEQ_clean_linker_1, # of connection points: 2
#     Edge 115, Type (0, 1), BuildingBlock: KIFKEQ_clean_linker_1, # of connection points: 2
#     Edge 116, Type (0, 1), BuildingBlock: KIFKEQ_clean_linker_1, # of connection points: 2
#     Edge 117, Type (0, 1), BuildingBlock: KIFKEQ_clean_linker_1, # of connection points: 2
#     Edge 118, Type (0, 1), BuildingBlock: KIFKEQ_clean_linker_1, # of connection points: 2
#     Edge 119, Type (0, 1), BuildingBlock: KIFKEQ_clean_linker_1, # of connection points: 2
#     Edge 120, Type (0, 1), BuildingBlock: KIFKEQ_clean_linker_1, # of connection points: 2
#     Edge 121, Type (0, 1), BuildingBlock: KIFKEQ_clean_linker_1, # of connection points: 2
#     Edge 122, Type (0, 1), BuildingBlock: KIFKEQ_clean_linker_1, # of connection points: 2
#     Edge 123, Type (0, 1), BuildingBlock: KIFKEQ_clean_linker_1, # of connection points: 2
#     Edge 124, Type (0, 1), BuildingBlock: KIFKEQ_clean_linker_1, # of connection points: 2
#     Edge 125, Type (0, 1), BuildingBlock: KIFKEQ_clean_linker_1, # of connection points: 2
#     Edge 126, Type (0, 1), BuildingBlock: KIFKEQ_clean_linker_1, # of connection points: 2
#     Edge 127, Type (0, 1), BuildingBlock: KIFKEQ_clean_linker_1, # of connection points: 2
#     Edge 128, Type (0, 1), BuildingBlock: KIFKEQ_clean_linker_1, # of connection points: 2
#     Edge 129, Type (0, 1), BuildingBlock: KIFKEQ_clean_linker_1, # of connection points: 2
#     Edge 130, Type (0, 1), BuildingBlock: KIFKEQ_clean_linker_1, # of connection points: 2
#     Edge 131, Type (0, 1), BuildingBlock: KIFKEQ_clean_linker_1, # of connection points: 2
#     Edge 132, Type (0, 1), BuildingBlock: KIFKEQ_clean_linker_1, # of connection points: 2
#     Edge 133, Type (0, 1), BuildingBlock: KIFKEQ_clean_linker_1, # of connection points: 2
#     Edge 134, Type (0, 1), BuildingBlock: KIFKEQ_clean_linker_1, # of connection points: 2
#     Edge 135, Type (0, 1), BuildingBlock: KIFKEQ_clean_linker_1, # of connection points: 2
# Relax obj value: 0.087
# Max RMSD: 0.165
# Mean RMSD: 0.081
data_MOF--net-iac--node1-KUFVIS_clean_sbu_0--node2-LEVNOQ01_clean_sbu_1--edge1-KIFKEQ_clean_linker_1
_symmetry_space_group_name_H-M    P1
_symmetry_Int_Tables_number       1
_symmetry_cell_setting            triclinic
loop_
_symmetry_equiv_pos_as_xyz
'x, y, z'
_cell_length_a     55.465203
_cell_length_b     54.472487
_cell_length_c     56.497245
_cell_angle_alpha  90.107647
_cell_angle_beta   89.936837
_cell_angle_gamma 90.433411
loop_
_atom_site_label
_atom_site_type_symbol
_atom_site_fract_x
_atom_site_fract_y
_atom_site_fract_z
_atom_type_partial_charge
Mn0 Mn -0.0026 0.24293 0.12494 0.0
Mn1 Mn 0.95871 0.2368 0.07918 0.0
C2 C 0.99072 0.20468 0.10812 0.0
C3 C 0.03544 0.25081 0.14097 0.0
C4 C 0.94333 0.2473 0.12967 0.0
O5 O -0.00686 0.27799 0.11277 0.0
O6 O 0.97275 0.2703 0.07881 0.0
C7 C 0.99101 0.24037 0.03756 0.0
N8 N 0.97443 0.22756 0.05043 0.0
C9 C 0.97148 0.19627 0.02037 0.0
C10 C 0.98858 0.20911 0.00681 0.0
C11 C -0.00153 0.23118 0.0155 0.0
C12 C 0.96499 0.20616 0.04235 0.0
H13 H -0.00171 0.25756 0.04403 0.0
C14 C 0.98369 0.28486 0.09319 0.0
O15 O 0.01588 0.25401 0.15312 0.0
O16 O 0.03295 0.24405 0.11901 0.0
N17 N 0.94386 0.20496 0.07789 0.0
C18 C 0.92799 0.19454 0.09341 0.0
C19 C 0.91655 0.17228 0.08747 0.0
C20 C 0.92123 0.16118 0.06552 0.0
C21 C 0.93769 0.17218 0.04987 0.0
C22 C 0.94869 0.19426 0.05683 0.0
H23 H 0.92388 0.20326 0.11008 0.0
O24 O -0.00084 0.20647 0.12948 0.0
O25 O 0.98654 0.22519 0.09732 0.0
O26 O 0.9638 0.24384 0.13906 0.0
O27 O 0.93976 0.24615 0.10741 0.0
C28 C 0.9435 0.16222 0.02756 0.0
C29 C 0.96052 0.17414 0.0129 0.0
H30 H -0.0058 0.20221 0.98969 0.0
H31 H 0.01162 0.24122 0.00509 0.0
H32 H 0.90389 0.16388 0.09966 0.0
H33 H 0.91209 0.1442 0.06088 0.0
H34 H 0.93508 0.14532 0.02155 0.0
H35 H 0.96501 0.16617 -0.0041 0.0
Mn36 Mn -0.002 0.75012 0.36838 0.0
Mn37 Mn 0.95969 0.75491 0.4149 0.0
C38 C 0.99102 0.78793 0.38497 0.0
C39 C 0.03539 0.74313 0.35137 0.0
C40 C 0.94359 0.74746 0.36447 0.0
O41 O -0.00497 0.71505 0.38045 0.0
O42 O 0.97267 0.7212 0.4133 0.0
C43 C 0.9911 0.74686 0.45641 0.0
N44 N 0.97543 0.7613 0.44433 0.0
C45 C 0.9698 0.78745 0.47827 0.0
C46 C 0.98604 0.77298 0.49101 0.0
C47 C -0.00315 0.7527 0.47998 0.0
C48 C 0.9651 0.781 0.45473 0.0
H49 H -0.00125 0.73074 0.44825 0.0
C50 C 0.98517 0.70752 0.39959 0.0
O51 O 0.01554 0.73963 0.33978 0.0
O52 O 0.03369 0.74981 0.37343 0.0
N53 N 0.94583 0.78671 0.41868 0.0
C54 C 0.93148 0.79941 0.40353 0.0
C55 C 0.92011 0.82088 0.41143 0.0
C56 C 0.92294 0.82853 0.43503 0.0
C57 C 0.93775 0.81507 0.4503 0.0
C58 C 0.94938 0.79444 0.44113 0.0
H59 H 0.92869 0.79316 0.38562 0.0
O60 O -0.00081 0.78614 0.3635 0.0
O61 O 0.98759 0.76753 0.39656 0.0
O62 O 0.96413 0.74895 0.35472 0.0
O63 O 0.94018 0.74851 0.38664 0.0
C64 C 0.94148 0.82132 0.47425 0.0
C65 C 0.95767 0.80768 0.48815 0.0
H66 H 0.99018 0.77716 0.50932 0.0
H67 H 0.00919 0.74128 0.4898 0.0
H68 H 0.90884 0.83122 0.39949 0.0
H69 H 0.91379 0.84484 0.44119 0.0
H70 H 0.9323 0.83685 0.48204 0.0
H71 H 0.96063 0.81289 0.50644 0.0
Mn72 Mn 0.49424 0.74457 0.62367 0.0
Mn73 Mn 0.45739 0.7344 0.57683 0.0
C74 C 0.48772 0.70519 0.60946 0.0
C75 C 0.53222 0.75206 0.64036 0.0
C76 C 0.43929 0.74795 0.62571 0.0
O77 O 0.4917 0.77835 0.60856 0.0
O78 O 0.46928 0.769 0.57616 0.0
C79 C 0.49095 0.73951 0.53632 0.0
N80 N 0.47528 0.72554 0.54918 0.0
C81 C 0.47665 0.69298 0.5203 0.0
C82 C 0.49281 0.70703 0.50677 0.0
C83 C 0.50006 0.73036 0.51486 0.0
C84 C 0.46827 0.70301 0.54158 0.0
H85 H 0.49623 0.75761 0.54229 0.0
C86 C 0.48106 0.78419 0.58929 0.0
O87 O 0.51254 0.75778 0.6514 0.0
O88 O 0.53 0.74313 0.61916 0.0
N89 N 0.44493 0.70149 0.57576 0.0
C90 C 0.42931 0.6902 0.59095 0.0
C91 C 0.42081 0.66644 0.58576 0.0
C92 C 0.42818 0.65466 0.56486 0.0
C93 C 0.44415 0.6667 0.54943 0.0
C94 C 0.45226 0.69025 0.5557 0.0
H95 H 0.42343 0.69923 0.60694 0.0
O96 O 0.4945 0.70862 0.63121 0.0
O97 O 0.48443 0.72482 0.59699 0.0
O98 O 0.45975 0.74832 0.63592 0.0
O99 O 0.43652 0.74291 0.60384 0.0
C100 C 0.45224 0.65631 0.52803 0.0
C101 C 0.46838 0.6695 0.51341 0.0
H102 H 0.49973 0.70014 0.49011 0.0
H103 H 0.51244 0.74136 0.50445 0.0
H104 H 0.40848 0.65728 0.59776 0.0
H105 H 0.42147 0.6364 0.56084 0.0
H106 H 0.44619 0.63818 0.52265 0.0
H107 H 0.47444 0.66133 0.49697 0.0
Mn108 Mn 0.49721 0.25044 0.86638 0.0
Mn109 Mn 0.45838 0.25304 0.91258 0.0
C110 C 0.48846 0.28759 0.88362 0.0
C111 C 0.53497 0.24575 0.84929 0.0
C112 C 0.44295 0.24516 0.86208 0.0
O113 O 0.49599 0.21513 0.87839 0.0
O114 O 0.47252 0.21989 0.91089 0.0
C115 C 0.48999 0.24645 0.9542 0.0
N116 N 0.47383 0.2602 0.942 0.0
C117 C 0.46785 0.28694 0.97544 0.0
C118 C 0.48459 0.27319 0.98832 0.0
C119 C 0.49584 0.25297 0.97759 0.0
C120 C 0.46317 0.2799 0.95205 0.0
H121 H 0.49801 0.23039 0.94627 0.0
C122 C 0.48571 0.20699 0.89711 0.0
O123 O 0.51531 0.24116 0.83773 0.0
O124 O 0.53287 0.25213 0.87141 0.0
N125 N 0.44344 0.28435 0.91607 0.0
C126 C 0.42859 0.29631 0.90081 0.0
C127 C 0.41693 0.31776 0.90831 0.0
C128 C 0.41998 0.32615 0.93165 0.0
C129 C 0.43515 0.31334 0.94708 0.0
C130 C 0.4471 0.29272 0.93828 0.0
H131 H 0.42569 0.28955 0.88306 0.0
O132 O 0.49656 0.28671 0.86206 0.0
O133 O 0.4859 0.26678 0.89462 0.0
O134 O 0.46353 0.24765 0.8526 0.0
O135 O 0.43938 0.24578 0.88425 0.0
C136 C 0.43873 0.32007 0.9709 0.0
C137 C 0.45524 0.30702 0.98502 0.0
H138 H 0.48881 0.27789 0.0065 0.0
H139 H 0.5086 0.24214 0.9875 0.0
H140 H 0.40529 0.32754 0.89627 0.0
H141 H 0.41061 0.34245 0.93753 0.0
H142 H 0.42935 0.33564 0.97838 0.0
H143 H 0.45818 0.31268 0.00318 0.0
Mn144 Mn 0.11527 -0.006 0.24801 0.0
Mn145 Mn 0.16173 0.00016 0.28635 0.0
C146 C 0.13345 0.03184 0.25319 0.0
C147 C 0.0992 0.98632 0.21065 0.0
C148 C 0.10984 -0.00826 0.30136 0.0
O149 O 0.12703 0.95889 0.25243 0.0
O150 O 0.16069 0.96594 0.27435 0.0
C151 C 0.20494 -0.00761 0.25654 0.0
N152 N 0.19185 0.00707 0.27115 0.0
C153 C 0.22417 0.03678 0.27334 0.0
C154 C 0.23795 0.02204 0.25821 0.0
C155 C 0.22826 -0.00021 0.24972 0.0
C156 C 0.20102 0.02852 0.27943 0.0
H157 H 0.19774 0.97504 0.25039 0.0
C158 C 0.14623 0.95182 0.26287 0.0
O159 O 0.08646 0.98344 0.2297 0.0
O160 O 0.12172 -0.00752 0.2133 0.0
N161 N 0.16436 0.03273 0.29898 0.0
C162 C 0.14854 0.04502 0.31305 0.0
C163 C 0.15536 0.06773 0.32288 0.0
C164 C 0.17846 0.07738 0.3184 0.0
C165 C 0.19431 0.06457 0.30359 0.0
C166 C 0.18644 0.04211 0.29416 0.0
H167 H 0.13095 0.03743 0.31695 0.0
O168 O 0.11143 0.03024 0.24553 0.0
O169 O 0.14404 0.01128 0.25815 0.0
O170 O 0.10041 -0.00616 0.281 0.0
O171 O 0.13245 -0.0069 0.30498 0.0
C172 C 0.21765 0.07313 0.2979 0.0
C173 C 0.23255 0.05927 0.28276 0.0
H174 H 0.25601 0.02757 0.25306 0.0
H175 H 0.23886 0.98823 0.23817 0.0
H176 H 0.14297 0.07761 0.33416 0.0
H177 H 0.18378 0.09472 0.32633 0.0
H178 H 0.22428 0.09038 0.30502 0.0
H179 H 0.25044 0.06606 0.27848 0.0
Mn180 Mn 0.25094 0.86495 0.49784 0.0
Mn181 Mn 0.25722 0.91462 0.46218 0.0
C182 C 0.28879 0.87958 0.48821 0.0
C183 C 0.24509 0.84617 0.5345 0.0
C184 C 0.24406 0.86389 0.44449 0.0
O185 O 0.21758 0.88032 0.49817 0.0
O186 O 0.22539 0.91542 0.47802 0.0
C187 C 0.25728 0.95562 0.49676 0.0
N188 N 0.26843 0.94291 0.47915 0.0
C189 C 0.30013 0.97326 0.47666 0.0
C190 C 0.28898 0.98664 0.49478 0.0
C191 C 0.26751 0.97773 0.50494 0.0
C192 C 0.28918 0.95127 0.46936 0.0
H193 H 0.2406 0.94905 0.50431 0.0
C194 C 0.21163 0.90138 0.49028 0.0
O195 O 0.23907 0.83546 0.51485 0.0
O196 O 0.25396 0.86829 0.53299 0.0
N197 N 0.28751 0.91612 0.44596 0.0
C198 C 0.2961 0.90095 0.42873 0.0
C199 C 0.3176 0.90709 0.41696 0.0
C200 C 0.32982 0.92897 0.4227 0.0
C201 C 0.32061 0.94434 0.44042 0.0
C202 C 0.29923 0.93712 0.45172 0.0
H203 H 0.28661 0.88433 0.42391 0.0
O204 O 0.286 0.85717 0.49559 0.0
O205 O 0.26956 0.89297 0.48724 0.0
O206 O 0.24601 0.85311 0.46429 0.0
O207 O 0.24623 0.88704 0.44201 0.0
C208 C 0.33171 0.96661 0.44722 0.0
C209 C 0.32155 0.98099 0.4654 0.0
H210 H 0.2967 0.00381 0.50098 0.0
H211 H 0.25873 0.98802 0.51885 0.0
H212 H 0.3246 0.89512 0.40332 0.0
H213 H 0.34624 0.93377 0.41335 0.0
H214 H 0.3481 0.97284 0.43861 0.0
H215 H 0.33033 -0.00198 0.47053 0.0
Mn216 Mn 0.37927 -0.00757 0.74654 0.0
Mn217 Mn 0.33101 0.98176 0.78222 0.0
C218 C 0.36468 0.95324 0.75194 0.0
C219 C 0.39693 0.00104 0.70995 0.0
C220 C 0.38124 -0.00819 0.80052 0.0
O221 O 0.36416 0.02621 0.74949 0.0
O222 O 0.33197 0.01658 0.77226 0.0
C223 C 0.2905 0.99061 0.74925 0.0
N224 N 0.30248 0.97535 0.76417 0.0
C225 C 0.27072 0.94503 0.76179 0.0
C226 C 0.2581 0.96042 0.74635 0.0
C227 C 0.26807 0.98327 0.74001 0.0
C228 C 0.29302 0.95331 0.77039 0.0
H229 H 0.29787 0.00839 0.74468 0.0
C230 C 0.34469 0.03187 0.76029 0.0
O231 O 0.40803 0.00571 0.72967 0.0
O232 O 0.37508 -0.00756 0.7115 0.0
N233 N 0.32772 0.94858 0.79298 0.0
C234 C 0.34216 0.93591 0.80807 0.0
C235 C 0.33487 0.91257 0.81597 0.0
C236 C 0.31266 0.90269 0.80859 0.0
C237 C 0.29808 0.91607 0.79309 0.0
C238 C 0.30636 0.93917 0.78569 0.0
H239 H 0.3591 0.94355 0.81407 0.0
O240 O 0.38682 0.9567 0.74518 0.0
O241 O 0.35169 0.97265 0.75534 0.0
O242 O 0.39146 -0.00566 0.78049 0.0
O243 O 0.35879 0.98751 0.80299 0.0
C244 C 0.27565 0.90741 0.78473 0.0
C245 C 0.26197 0.92189 0.7691 0.0
H246 H 0.24071 0.95491 0.73933 0.0
H247 H 0.25835 -0.00469 0.72824 0.0
H248 H 0.34625 0.90232 0.82788 0.0
H249 H 0.30698 0.88481 0.81494 0.0
H250 H 0.26878 0.88962 0.79016 0.0
H251 H 0.24474 0.91505 0.76281 0.0
Mn252 Mn 0.24547 0.12492 -0.00384 0.0
Mn253 Mn 0.23657 0.07821 0.95736 0.0
C254 C 0.20708 0.1103 0.98902 0.0
C255 C 0.25371 0.13879 0.03456 0.0
C256 C 0.24716 0.13055 0.94226 0.0
O257 O 0.27881 0.11064 0.99245 0.0
O258 O 0.27094 0.07886 0.96776 0.0
C259 C 0.24431 0.03536 0.98857 0.0
N260 N 0.22982 0.0482 0.9737 0.0
C261 C 0.19922 0.0166 0.9751 0.0
C262 C 0.21384 0.00304 0.99043 0.0
C263 C 0.23645 0.01248 -0.00278 0.0
C264 C 0.20805 0.03922 0.96698 0.0
H265 H 0.26179 0.04247 0.99364 0.0
C266 C 0.28533 0.09205 0.98033 0.0
O267 O 0.25795 0.15243 0.01616 0.0
O268 O 0.2452 0.11693 0.03061 0.0
N269 N 0.20422 0.07549 0.94572 0.0
C270 C 0.19202 0.09118 0.93137 0.0
C271 C 0.16888 0.08467 0.92331 0.0
C272 C 0.15866 0.06201 0.92984 0.0
C273 C 0.17155 0.04616 0.94459 0.0
C274 C 0.19454 0.05363 0.95208 0.0
H275 H 0.1998 0.1086 0.92627 0.0
O276 O 0.21033 0.1322 -0.00242 0.0
O277 O 0.22637 0.09747 0.98502 0.0
O278 O 0.24827 0.14014 0.96289 0.0
O279 O 0.24285 0.10783 0.93861 0.0
C280 C 0.16237 0.02339 0.95241 0.0
C281 C 0.1762 0.00862 0.96766 0.0
H282 H 0.20787 0.98538 -0.00288 0.0
H283 H 0.24785 0.00209 0.009 0.0
H284 H 0.15896 0.09708 0.91207 0.0
H285 H 0.14086 0.05702 0.92351 0.0
H286 H 0.14461 0.01718 0.94698 0.0
H287 H 0.16888 -0.00878 0.97368 0.0
Mn288 Mn 0.75075 0.36601 -0.00221 0.0
Mn289 Mn 0.75811 0.41296 0.95928 0.0
C290 C 0.78868 0.382 0.99065 0.0
C291 C 0.74294 0.35012 0.03502 0.0
C292 C 0.74834 0.36042 0.94445 0.0
O293 O 0.71678 0.3798 -0.00563 0.0
O294 O 0.72504 0.41318 0.97208 0.0
C295 C 0.75249 0.45696 0.98961 0.0
N296 N 0.76594 0.44347 0.97425 0.0
C297 C 0.79342 0.47725 0.96793 0.0
C298 C 0.77997 0.49147 0.98381 0.0
C299 C 0.75955 0.48119 -0.00513 0.0
C300 C 0.78593 0.45301 0.96393 0.0
H301 H 0.73626 0.44942 -0.0026 0.0
C302 C 0.71064 0.39987 0.98437 0.0
O303 O 0.73921 0.33731 0.01603 0.0
O304 O 0.75044 0.37263 0.03257 0.0
N305 N 0.7896 0.41496 0.94562 0.0
C306 C 0.80111 0.39843 0.93155 0.0
C307 C 0.82263 0.40533 0.92016 0.0
C308 C 0.83154 0.42942 0.92264 0.0
C309 C 0.81917 0.44617 0.937 0.0
C310 C 0.79847 0.43789 0.94877 0.0
H311 H 0.79388 0.38016 0.92897 0.0
O312 O 0.78623 0.35998 -0.00089 0.0
O313 O 0.76903 0.39419 0.98694 0.0
O314 O 0.74918 0.35089 0.96491 0.0
O315 O 0.75039 0.38337 0.94084 0.0
C316 C 0.82635 0.47086 0.93984 0.0
C317 C 0.81362 0.48634 0.95546 0.0
H318 H 0.78504 0.51033 0.98751 0.0
H319 H 0.74896 0.49212 0.00699 0.0
H320 H 0.83205 0.39229 0.9091 0.0
H321 H 0.84785 0.43486 0.91341 0.0
H322 H 0.842 0.47797 0.93055 0.0
H323 H 0.8196 0.50516 0.95784 0.0
Mn324 Mn 0.88086 0.49115 0.2459 0.0
Mn325 Mn 0.83334 0.48648 0.28353 0.0
C326 C 0.86424 0.45342 0.25437 0.0
C327 C 0.89777 0.49641 0.20857 0.0
C328 C 0.88448 0.49634 0.29929 0.0
O329 O 0.86748 0.52587 0.24686 0.0
O330 O 0.83456 0.51997 0.27006 0.0
C331 C 0.79147 0.4926 0.25169 0.0
N332 N 0.80399 0.47867 0.26737 0.0
C333 C 0.77244 0.44807 0.2682 0.0
C334 C 0.75923 0.46207 0.25203 0.0
C335 C 0.7688 0.48442 0.24374 0.0
C336 C 0.79482 0.45726 0.27566 0.0
H337 H 0.79861 0.50993 0.2455 0.0
C338 C 0.84821 0.5333 0.25698 0.0
O339 O 0.90977 0.50134 0.22769 0.0
O340 O 0.87548 0.48929 0.21102 0.0
N341 N 0.83028 0.45456 0.29743 0.0
C342 C 0.84566 0.44288 0.31237 0.0
C343 C 0.83922 0.41978 0.32152 0.0
C344 C 0.81694 0.40908 0.31546 0.0
C345 C 0.80134 0.42153 0.30019 0.0
C346 C 0.8088 0.44443 0.29149 0.0
H347 H 0.86278 0.45104 0.31714 0.0
O348 O 0.88628 0.45503 0.24671 0.0
O349 O 0.85256 0.47386 0.25685 0.0
O350 O 0.8945 0.49459 0.27915 0.0
O351 O 0.86188 0.49428 0.30262 0.0
C352 C 0.77883 0.41198 0.29299 0.0
C353 C 0.76434 0.42529 0.2771 0.0
H354 H 0.74175 0.45583 0.24584 0.0
H355 H 0.75865 0.49539 0.23135 0.0
H356 H 0.85141 0.41024 0.33322 0.0
H357 H 0.81206 0.39124 0.32251 0.0
H358 H 0.77258 0.39432 0.29943 0.0
H359 H 0.7471 0.41773 0.27165 0.0
Mn360 Mn 0.74232 0.62663 0.49943 0.0
Mn361 Mn 0.73524 0.58253 0.45765 0.0
C362 C 0.70421 0.61235 0.49012 0.0
C363 C 0.7504 0.63854 0.53832 0.0
C364 C 0.74638 0.63572 0.44648 0.0
O365 O 0.77587 0.6125 0.49575 0.0
O366 O 0.76874 0.58165 0.46984 0.0
C367 C 0.74071 0.53806 0.48714 0.0
N368 N 0.72733 0.55174 0.47195 0.0
C369 C 0.69734 0.51977 0.46872 0.0
C370 C 0.71078 0.50533 0.48435 0.0
C371 C 0.73249 0.51459 0.49371 0.0
C372 C 0.70623 0.54319 0.46317 0.0
H373 H 0.75763 0.54494 0.49401 0.0
C374 C 0.78261 0.59418 0.48338 0.0
O375 O 0.75482 0.65298 0.52058 0.0
O376 O 0.74141 0.61703 0.53349 0.0
N377 N 0.70355 0.58099 0.44427 0.0
C378 C 0.69231 0.59759 0.43013 0.0
C379 C 0.66986 0.59154 0.42009 0.0
C380 C 0.65955 0.56828 0.42414 0.0
C381 C 0.67168 0.55137 0.43841 0.0
C382 C 0.69367 0.55865 0.44844 0.0
H383 H 0.70041 0.61529 0.42658 0.0
O384 O 0.70699 0.63356 0.50035 0.0
O385 O 0.72375 0.6 0.48601 0.0
O386 O 0.74544 0.64383 0.46758 0.0
O387 O 0.74319 0.61325 0.44085 0.0
C388 C 0.66289 0.52751 0.44296 0.0
C389 C 0.67561 0.51178 0.45827 0.0
H390 H 0.70464 0.48711 0.48924 0.0
H391 H 0.74299 0.50354 0.50574 0.0
H392 H 0.66064 0.60468 0.40904 0.0
H393 H 0.64235 0.5636 0.41619 0.0
H394 H 0.64609 0.52123 0.43518 0.0
H395 H 0.6684 0.49366 0.462 0.0
Mn396 Mn 0.61694 0.49694 0.74715 0.0
Mn397 Mn 0.66339 0.50301 0.78552 0.0
C398 C 0.63503 0.53471 0.75302 0.0
C399 C 0.60069 0.49056 0.70964 0.0
C400 C 0.61171 0.49513 0.80054 0.0
O401 O 0.62883 0.46173 0.75105 0.0
O402 O 0.66151 0.46834 0.77441 0.0
C403 C 0.70635 0.49367 0.75581 0.0
N404 N 0.69353 0.50899 0.77003 0.0
C405 C 0.72663 0.53782 0.77202 0.0
C406 C 0.74015 0.52239 0.75731 0.0
C407 C 0.72991 0.5003 0.74906 0.0
C408 C 0.70316 0.5304 0.77791 0.0
H409 H 0.69875 0.47637 0.74999 0.0
C410 C 0.64738 0.45424 0.76241 0.0
O411 O 0.5881 0.48678 0.72866 0.0
O412 O 0.62325 0.49647 0.71241 0.0
N413 N 0.66665 0.53586 0.79735 0.0
C414 C 0.65092 0.54902 0.81079 0.0
C415 C 0.65795 0.57214 0.81956 0.0
C416 C 0.68122 0.58125 0.81482 0.0
C417 C 0.6971 0.56733 0.80101 0.0
C418 C 0.68886 0.5447 0.79226 0.0
H419 H 0.63318 0.54191 0.81482 0.0
O420 O 0.61297 0.53329 0.74545 0.0
O421 O 0.64564 0.51404 0.75744 0.0
O422 O 0.60218 0.49613 0.78017 0.0
O423 O 0.63419 0.49715 0.80434 0.0
C424 C 0.72082 0.57492 0.79572 0.0
C425 C 0.73562 0.56012 0.78131 0.0
H426 H 0.75842 0.52726 0.75232 0.0
H427 H 0.7403 0.48822 0.73783 0.0
H428 H 0.64557 0.58278 0.83019 0.0
H429 H 0.6867 0.59894 0.82188 0.0
H430 H 0.72782 0.59217 0.80249 0.0
H431 H 0.7538 0.5662 0.77728 0.0
Mn432 Mn 0.00352 0.75401 0.87069 0.0
Mn433 Mn 0.96003 0.75478 0.91278 0.0
C434 C -0.00799 0.79078 0.88765 0.0
C435 C 0.04334 0.74783 0.85932 0.0
C436 C 0.94952 0.74943 0.86034 0.0
O437 O 0.00143 0.71854 0.88123 0.0
O438 O 0.97421 0.7212 0.91081 0.0
C439 C 0.9904 0.74712 0.95524 0.0
N440 N 0.97398 0.76075 0.94324 0.0
C441 C 0.97097 0.78953 0.97551 0.0
C442 C 0.98775 0.77571 0.98825 0.0
C443 C -0.00242 0.75448 0.97803 0.0
C444 C 0.96458 0.78135 0.95284 0.0
H445 H -0.00205 0.73075 0.94746 0.0
C446 C 0.98936 0.70921 0.89819 0.0
O447 O 0.02559 0.7444 0.84474 0.0
O448 O 0.03814 0.75551 0.88049 0.0
N449 N 0.94482 0.786 0.91685 0.0
C450 C 0.92983 0.79804 0.90176 0.0
C451 C 0.91891 0.81996 0.9091 0.0
C452 C 0.92331 0.82918 0.93192 0.0
C453 C 0.93864 0.8164 0.9472 0.0
C454 C 0.94896 0.7946 0.93894 0.0
H455 H 0.92636 0.79111 0.8842 0.0
O456 O 0.00298 0.79061 0.8673 0.0
O457 O 0.98862 0.76956 0.89762 0.0
O458 O 0.97129 0.75113 0.85328 0.0
O459 O 0.94355 0.74948 0.88218 0.0
C460 C 0.9443 0.8246 0.9702 0.0
C461 C 0.96056 0.81125 0.9843 0.0
H462 H -0.00667 0.78132 0.00583 0.0
H463 H 0.01061 0.74378 0.98773 0.0
H464 H 0.90716 0.82974 0.89716 0.0
H465 H 0.91497 0.84617 0.93746 0.0
H466 H 0.93657 0.84137 0.97707 0.0
H467 H 0.9651 0.81798 0.0018 0.0
Mn468 Mn -0.00162 0.24015 0.62316 0.0
Mn469 Mn 0.95316 0.23023 0.58435 0.0
C470 C 0.98891 0.20114 0.61088 0.0
C471 C 0.03855 0.24696 0.63241 0.0
C472 C 0.94492 0.23969 0.63633 0.0
O473 O -0.00544 0.27346 0.60829 0.0
O474 O 0.9626 0.26555 0.58469 0.0
C475 C 0.97917 0.2423 0.53994 0.0
N476 N 0.9663 0.226 0.55328 0.0
C477 C 0.96514 0.19684 0.52122 0.0
C478 C 0.97833 0.21334 0.50716 0.0
C479 C 0.98546 0.23613 0.51661 0.0
C480 C 0.95949 0.20396 0.5444 0.0
H481 H 0.98449 0.25996 0.54695 0.0
C482 C 0.97887 0.27994 0.59312 0.0
O483 O 0.02151 0.25308 0.64699 0.0
O484 O 0.03222 0.23805 0.61202 0.0
N485 N 0.94272 0.19671 0.58156 0.0
C486 C 0.93098 0.18242 0.59771 0.0
C487 C 0.92336 0.15867 0.59126 0.0
C488 C 0.92756 0.15001 0.5682 0.0
C489 C 0.93955 0.16508 0.55184 0.0
C490 C 0.94699 0.18846 0.55936 0.0
H491 H 0.92758 0.18904 0.6154 0.0
O492 O -0.00064 0.20462 0.63118 0.0
O493 O 0.98375 0.22061 0.59872 0.0
O494 O 0.96688 0.24404 0.64146 0.0
O495 O 0.93777 0.23372 0.61562 0.0
C496 C 0.94448 0.1578 0.5284 0.0
C497 C 0.95736 0.17362 0.51313 0.0
H498 H 0.98312 0.2087 0.48912 0.0
H499 H -0.00436 0.24898 0.50588 0.0
H500 H 0.91415 0.14712 0.604 0.0
H501 H 0.92156 0.13173 0.56327 0.0
H502 H 0.93872 0.13993 0.52202 0.0
H503 H 0.9613 0.16769 0.49524 0.0
Mn504 Mn 0.49384 0.24266 0.37221 0.0
Mn505 Mn 0.48967 0.28425 0.32823 0.0
C506 C 0.45732 0.24873 0.35344 0.0
C507 C 0.50331 0.20351 0.38618 0.0
C508 C 0.49414 0.29766 0.37997 0.0
O509 O 0.52879 0.24889 0.36212 0.0
O510 O 0.52273 0.27057 0.32862 0.0
C511 C 0.49627 0.25433 0.28492 0.0
N512 N 0.48252 0.26973 0.29819 0.0
C513 C 0.45235 0.27179 0.26763 0.0
C514 C 0.46621 0.25596 0.25365 0.0
C515 C 0.48823 0.24716 0.26235 0.0
C516 C 0.46132 0.27839 0.28993 0.0
H517 H 0.5133 0.24767 0.29147 0.0
C518 C 0.53625 0.25829 0.34267 0.0
O519 O 0.5042 0.22274 0.39971 0.0
O520 O 0.49715 0.207 0.36425 0.0
N521 N 0.45804 0.29817 0.3263 0.0
C522 C 0.44623 0.31242 0.34238 0.0
C523 C 0.42353 0.32198 0.33673 0.0
C524 C 0.41323 0.317 0.31454 0.0
C525 C 0.42574 0.30243 0.29821 0.0
C526 C 0.44833 0.29339 0.30484 0.0
H527 H 0.45398 0.31652 0.35943 0.0
O528 O 0.45789 0.23861 0.37425 0.0
O529 O 0.47798 0.2545 0.34424 0.0
O530 O 0.49144 0.27613 0.38819 0.0
O531 O 0.49644 0.30217 0.35796 0.0
C532 C 0.41652 0.29628 0.27574 0.0
C533 C 0.42983 0.281 0.26045 0.0
H534 H 0.46005 0.25034 0.23626 0.0
H535 H 0.49902 0.23493 0.25164 0.0
H536 H 0.41399 0.33319 0.34945 0.0
H537 H 0.39567 0.32433 0.31027 0.0
H538 H 0.3991 0.30299 0.27015 0.0
H539 H 0.42244 0.27621 0.24329 0.0
Mn540 Mn 0.49924 0.73982 0.12381 0.0
Mn541 Mn 0.45806 0.73255 0.08028 0.0
C542 C 0.49102 0.70154 0.10872 0.0
C543 C 0.53814 0.74683 0.13687 0.0
C544 C 0.44542 0.74246 0.13171 0.0
O545 O 0.49563 0.7742 0.11096 0.0
O546 O 0.47189 0.7664 0.0791 0.0
C547 C 0.4873 0.73755 0.0366 0.0
N548 N 0.47254 0.72384 0.05068 0.0
C549 C 0.47114 0.69131 0.02174 0.0
C550 C 0.48642 0.7051 0.00704 0.0
C551 C 0.49453 0.72833 0.01451 0.0
C552 C 0.46441 0.70155 0.04352 0.0
H553 H 0.49331 0.75546 0.04211 0.0
C554 C 0.48528 0.78054 0.0918 0.0
O555 O 0.51964 0.75126 0.15025 0.0
O556 O 0.53399 0.73958 0.11533 0.0
N557 N 0.44434 0.70008 0.07967 0.0
C558 C 0.43026 0.68871 0.0962 0.0
C559 C 0.42115 0.66504 0.09165 0.0
C560 C 0.42649 0.65331 0.07015 0.0
C561 C 0.44098 0.66535 0.0534 0.0
C562 C 0.44956 0.68894 0.0589 0.0
H563 H 0.42612 0.69752 0.1128 0.0
O564 O 0.50041 0.70379 0.12965 0.0
O565 O 0.48673 0.72166 0.09733 0.0
O566 O 0.46671 0.74166 0.13977 0.0
O567 O 0.44044 0.74066 0.10972 0.0
C568 C 0.44743 0.65475 0.03155 0.0
C569 C 0.46244 0.66775 0.0157 0.0
H570 H 0.49206 0.69803 0.98999 0.0
H571 H 0.50623 0.73916 0.00321 0.0
H572 H 0.41003 0.65584 0.10471 0.0
H573 H 0.41948 0.63503 0.06674 0.0
H574 H 0.44105 0.63654 0.02681 0.0
H575 H 0.46734 0.65938 -0.00102 0.0
Mn576 Mn 0.87979 0.98935 0.74161 0.0
Mn577 Mn 0.83422 0.98878 0.78127 0.0
C578 C 0.86065 0.95273 0.75095 0.0
C579 C 0.89373 -0.00423 0.70325 0.0
C580 C 0.88701 -0.00539 0.7946 0.0
O581 O 0.86981 0.02502 0.74374 0.0
O582 O 0.83642 0.02209 0.76666 0.0
C583 C 0.79124 -0.00442 0.75092 0.0
N584 N 0.80371 0.98187 0.76681 0.0
C585 C 0.77154 0.95197 0.76892 0.0
C586 C 0.75836 0.9658 0.7526 0.0
C587 C 0.76827 0.98767 0.74355 0.0
C588 C 0.79426 0.96086 0.77576 0.0
H589 H 0.79876 0.01245 0.74399 0.0
C590 C 0.85112 0.03415 0.7534 0.0
O591 O 0.90778 -0.00176 0.72147 0.0
O592 O 0.87155 0.98914 0.70728 0.0
N593 N 0.83042 0.95741 0.79624 0.0
C594 C 0.84597 0.9455 0.81085 0.0
C595 C 0.83918 0.92284 0.82071 0.0
C596 C 0.81644 0.91268 0.81555 0.0
C597 C 0.80071 0.92529 0.80053 0.0
C598 C 0.80845 0.94786 0.79127 0.0
H599 H 0.86349 0.95315 0.81491 0.0
O600 O 0.8821 0.95269 0.74166 0.0
O601 O 0.85102 0.97416 0.75413 0.0
O602 O 0.89583 -0.00887 0.77409 0.0
O603 O 0.86439 -0.0046 0.79861 0.0
C604 C 0.7778 0.91616 0.79412 0.0
C605 C 0.7632 0.92952 0.77837 0.0
H606 H 0.74069 0.95973 0.74679 0.0
H607 H 0.75819 -0.00157 0.73093 0.0
H608 H 0.85145 0.9132 0.83224 0.0
H609 H 0.81131 0.89514 0.8231 0.0
H610 H 0.77132 0.89877 0.80102 0.0
H611 H 0.7457 0.92221 0.77341 0.0
Mn612 Mn 0.74108 0.12188 0.49792 0.0
Mn613 Mn 0.73399 0.0802 0.45386 0.0
C614 C 0.70339 0.10747 0.48828 0.0
C615 C 0.74769 0.13347 0.53698 0.0
C616 C 0.74228 0.13419 0.44529 0.0
O617 O 0.77462 0.10803 0.49437 0.0
O618 O 0.76808 0.08117 0.46451 0.0
C619 C 0.7446 0.03454 0.48018 0.0
N620 N 0.72923 0.0481 0.46681 0.0
C621 C 0.70046 0.01483 0.46521 0.0
C622 C 0.71602 0.0005 0.4789 0.0
C623 C 0.73816 0.01043 0.48646 0.0
C624 C 0.70791 0.03869 0.45938 0.0
H625 H 0.76172 0.04199 0.48591 0.0
C626 C 0.78168 0.09159 0.47991 0.0
O627 O 0.75271 0.14795 0.51945 0.0
O628 O 0.73961 0.11165 0.53183 0.0
N629 N 0.7017 0.07695 0.44223 0.0
C630 C 0.68832 0.09349 0.42996 0.0
C631 C 0.66527 0.08671 0.42186 0.0
C632 C 0.65633 0.06295 0.42623 0.0
C633 C 0.6705 0.04617 0.43873 0.0
C634 C 0.69332 0.05397 0.44639 0.0
H635 H 0.69516 0.11174 0.42648 0.0
O636 O 0.70602 0.12861 0.49868 0.0
O637 O 0.72295 0.09531 0.48366 0.0
O638 O 0.74414 0.14045 0.46686 0.0
O639 O 0.73843 0.11228 0.43828 0.0
C640 C 0.66276 0.02212 0.44412 0.0
C641 C 0.67775 0.00644 0.45732 0.0
H642 H 0.7111 0.98191 0.48382 0.0
H643 H 0.75027 -0.0005 0.49703 0.0
H644 H 0.65444 0.09976 0.41223 0.0
H645 H 0.63853 0.05782 0.42 0.0
H646 H 0.64523 0.01556 0.43837 0.0
H647 H 0.67153 0.98805 0.46149 0.0
Mn648 Mn 0.61359 0.00092 0.24362 0.0
Mn649 Mn 0.65754 0.00714 0.28451 0.0
C650 C 0.62913 0.0391 0.25192 0.0
C651 C 0.60082 -0.0067 0.20547 0.0
C652 C 0.60483 -0.00231 0.29602 0.0
O653 O 0.62597 0.9663 0.24753 0.0
O654 O 0.65838 0.97357 0.2709 0.0
C655 C 0.70218 0.00178 0.25615 0.0
N656 N 0.68813 0.01541 0.27086 0.0
C657 C 0.71884 0.04674 0.27388 0.0
C658 C 0.73361 0.033 0.25877 0.0
C659 C 0.72521 0.01044 0.24983 0.0
C660 C 0.6961 0.0371 0.27966 0.0
H661 H 0.69592 0.98438 0.24942 0.0
C662 C 0.64525 0.95965 0.25783 0.0
O663 O 0.5869 0.98929 0.22355 0.0
O664 O 0.62265 0.00099 0.20961 0.0
N665 N 0.65874 0.03928 0.29831 0.0
C666 C 0.64195 0.05074 0.31196 0.0
C667 C 0.64724 0.07393 0.32163 0.0
C668 C 0.66976 0.08502 0.31733 0.0
C669 C 0.68677 0.07287 0.30328 0.0
C670 C 0.68048 0.04981 0.29408 0.0
H671 H 0.62468 0.04224 0.31548 0.0
O672 O 0.60799 0.03679 0.24227 0.0
O673 O 0.64071 0.01894 0.25621 0.0
O674 O 0.59668 -0.00061 0.27521 0.0
O675 O 0.62717 -0.00114 0.30127 0.0
C676 C 0.70967 0.0828 0.29794 0.0
C677 C 0.72572 0.06972 0.28329 0.0
H678 H 0.75138 0.03962 0.25385 0.0
H679 H 0.7365 -0.00031 0.23818 0.0
H680 H 0.63401 0.0832 0.33247 0.0
H681 H 0.67377 0.1029 0.32485 0.0
H682 H 0.71508 0.10054 0.3049 0.0
H683 H 0.74322 0.07759 0.27921 0.0
Mn684 Mn 0.74841 0.8671 0.00213 0.0
Mn685 Mn 0.75397 0.91486 0.96455 0.0
C686 C 0.78604 0.88434 -0.00458 0.0
C687 C 0.73971 0.85172 0.03965 0.0
C688 C 0.74448 0.86232 0.94864 0.0
O689 O 0.71418 0.87945 -0.00147 0.0
O690 O 0.72062 0.91424 0.9776 0.0
C691 C 0.74868 0.95784 -0.00368 0.0
N692 N 0.76209 0.94476 0.98059 0.0
C693 C 0.79342 0.97563 0.98071 0.0
C694 C 0.77994 0.98943 -0.0031 0.0
C695 C 0.75749 0.98048 0.00476 0.0
C696 C 0.78363 0.95332 0.97277 0.0
H697 H 0.73135 0.95109 0.00226 0.0
C698 C 0.70691 0.89933 0.9891 0.0
O699 O 0.73711 0.83838 0.02077 0.0
O700 O 0.74735 0.87412 0.03679 0.0
N701 N 0.78555 0.9171 0.95101 0.0
C702 C 0.79681 0.90099 0.93628 0.0
C703 C 0.81988 0.90672 0.92754 0.0
C704 C 0.83106 0.92899 0.9339 0.0
C705 C 0.81908 0.94531 0.94902 0.0
C706 C 0.79611 0.93861 0.95719 0.0
H707 H 0.78831 0.88386 0.93131 0.0
O708 O 0.78402 0.8622 0.00372 0.0
O709 O 0.76593 0.89582 0.99158 0.0
O710 O 0.74715 0.85228 0.9688 0.0
O711 O 0.74577 0.88547 0.94548 0.0
C712 C 0.82916 0.96781 0.95657 0.0
C713 C 0.81631 0.983 0.97234 0.0
H714 H 0.78669 0.00685 0.0035 0.0
H715 H 0.74697 0.99104 0.01724 0.0
H716 H 0.82902 0.894 0.91592 0.0
H717 H 0.84889 0.93331 0.92718 0.0
H718 H 0.84687 0.97352 0.95051 0.0
H719 H 0.82432 0.00018 0.97814 0.0
Mn720 Mn 0.24117 0.62476 -0.00102 0.0
Mn721 Mn 0.23608 0.57978 0.9582 0.0
C722 C 0.20405 0.60746 0.99107 0.0
C723 C 0.24814 0.63782 0.03738 0.0
C724 C 0.24434 0.63362 0.94636 0.0
O725 O 0.27563 0.61296 -0.00521 0.0
O726 O 0.26903 0.5793 0.97202 0.0
C727 C 0.24146 0.53434 0.98644 0.0
N728 N 0.22795 0.54869 0.97197 0.0
C729 C 0.19693 0.5176 0.96951 0.0
C730 C 0.21048 0.50259 0.9845 0.0
C731 C 0.23283 0.51102 0.99303 0.0
C732 C 0.20645 0.54068 0.96357 0.0
H733 H 0.25878 0.54053 0.99272 0.0
C734 C 0.28254 0.59318 0.98481 0.0
O735 O 0.25161 0.65228 0.01944 0.0
O736 O 0.24158 0.61535 0.03292 0.0
N737 N 0.20449 0.57841 0.94445 0.0
C738 C 0.19322 0.5954 0.93077 0.0
C739 C 0.17027 0.59011 0.9215 0.0
C740 C 0.15924 0.56734 0.92617 0.0
C741 C 0.17121 0.5501 0.94019 0.0
C742 C 0.19398 0.55646 0.94911 0.0
H743 H 0.20162 0.61289 0.92698 0.0
O744 O 0.20549 0.62907 0.00071 0.0
O745 O 0.22431 0.59672 0.98647 0.0
O746 O 0.24202 0.6419 0.96723 0.0
O747 O 0.24404 0.61074 0.94136 0.0
C748 C 0.16139 0.52688 0.94575 0.0
C749 C 0.17431 0.51059 0.96028 0.0
H750 H 0.20391 0.48457 0.98957 0.0
H751 H 0.24348 0.4995 0.00451 0.0
H752 H 0.16113 0.60353 0.9107 0.0
H753 H 0.14156 0.56331 0.91895 0.0
H754 H 0.14387 0.52141 0.93904 0.0
H755 H 0.16655 0.49281 0.96449 0.0
Mn756 Mn 0.11506 0.50215 0.74502 0.0
Mn757 Mn 0.15841 0.50962 0.78645 0.0
C758 C 0.12951 0.54078 0.75385 0.0
C759 C 0.10353 0.4946 0.70626 0.0
C760 C 0.10583 0.49818 0.79772 0.0
O761 O 0.12867 0.46812 0.74858 0.0
O762 O 0.16035 0.47594 0.77279 0.0
C763 C 0.20318 0.50589 0.75798 0.0
N764 N 0.18883 0.51887 0.77293 0.0
C765 C 0.21843 0.55132 0.77576 0.0
C766 C 0.23359 0.53813 0.76057 0.0
C767 C 0.22589 0.51535 0.75158 0.0
C768 C 0.19609 0.54083 0.78169 0.0
H769 H 0.19734 0.48848 0.75101 0.0
C770 C 0.14791 0.46185 0.75918 0.0
O771 O 0.0892 0.48986 0.72387 0.0
O772 O 0.12483 0.5032 0.71122 0.0
N773 N 0.1586 0.54186 0.80017 0.0
C774 C 0.14127 0.55298 0.81343 0.0
C775 C 0.14569 0.57647 0.82285 0.0
C776 C 0.16788 0.58825 0.81863 0.0
C777 C 0.18542 0.5765 0.8049 0.0
C778 C 0.18001 0.55308 0.79599 0.0
H779 H 0.12416 0.54407 0.81672 0.0
O780 O 0.10844 0.53806 0.74412 0.0
O781 O 0.14133 0.52083 0.75818 0.0
O782 O 0.09801 0.49908 0.77663 0.0
O783 O 0.12808 0.50079 0.80308 0.0
C784 C 0.20795 0.58724 0.79946 0.0
C785 C 0.22447 0.57463 0.78495 0.0
H786 H 0.25108 0.54543 0.75552 0.0
H787 H 0.23743 0.50509 0.73975 0.0
H788 H 0.13202 0.58546 0.83336 0.0
H789 H 0.1712 0.60638 0.82589 0.0
H790 H 0.21266 0.60529 0.80617 0.0
H791 H 0.24164 0.58316 0.78072 0.0
Mn792 Mn 0.24769 0.36653 0.50324 0.0
Mn793 Mn 0.25486 0.41465 0.46614 0.0
C794 C 0.28574 0.3835 0.49749 0.0
C795 C 0.23828 0.35151 0.54089 0.0
C796 C 0.2461 0.36219 0.44939 0.0
O797 O 0.21374 0.37964 0.49967 0.0
O798 O 0.2211 0.41372 0.4781 0.0
C799 C 0.24712 0.45763 0.49732 0.0
N800 N 0.26159 0.44474 0.48238 0.0
C801 C 0.29131 0.47721 0.48221 0.0
C802 C 0.27671 0.49081 0.49761 0.0
C803 C 0.25455 0.48095 0.50522 0.0
C804 C 0.28287 0.45416 0.47478 0.0
H805 H 0.22991 0.45028 0.50296 0.0
C806 C 0.20705 0.39967 0.49013 0.0
O807 O 0.23566 0.33801 0.52208 0.0
O808 O 0.24648 0.37364 0.53782 0.0
N809 N 0.28692 0.41761 0.45383 0.0
C810 C 0.29932 0.40166 0.43986 0.0
C811 C 0.32238 0.40823 0.43163 0.0
C812 C 0.33232 0.43121 0.43762 0.0
C813 C 0.31918 0.44733 0.45198 0.0
C814 C 0.29637 0.4397 0.45981 0.0
H815 H 0.29172 0.38403 0.4351 0.0
O816 O 0.28328 0.36118 0.50524 0.0
O817 O 0.26585 0.39523 0.49332 0.0
O818 O 0.24654 0.35181 0.46961 0.0
O819 O 0.24831 0.38532 0.44677 0.0
C820 C 0.32793 0.47057 0.45904 0.0
C821 C 0.31395 0.48554 0.47405 0.0
H822 H 0.28237 0.50881 0.50373 0.0
H823 H 0.24315 0.49139 0.51703 0.0
H824 H 0.33243 0.39565 0.42061 0.0
H825 H 0.35009 0.43622 0.4312 0.0
H826 H 0.34544 0.47704 0.45314 0.0
H827 H 0.3209 0.50334 0.47941 0.0
Mn828 Mn 0.37689 0.49024 0.24339 0.0
Mn829 Mn 0.33133 0.48796 0.28278 0.0
C830 C 0.35951 0.45284 0.25348 0.0
C831 C 0.39021 0.49622 0.20495 0.0
C832 C 0.38378 0.49713 0.2961 0.0
O833 O 0.36526 0.52555 0.24513 0.0
O834 O 0.33116 0.52047 0.26651 0.0
C835 C 0.28883 0.48961 0.25103 0.0
N836 N 0.30162 0.47806 0.26823 0.0
C837 C 0.27209 0.44547 0.27053 0.0
C838 C 0.25848 0.4572 0.25307 0.0
C839 C 0.26693 0.47932 0.24322 0.0
C840 C 0.29368 0.45669 0.27777 0.0
H841 H 0.29537 0.50645 0.24322 0.0
C842 C 0.34532 0.5334 0.2534 0.0
O843 O 0.40431 0.50017 0.22287 0.0
O844 O 0.36839 0.48867 0.2092 0.0
N845 N 0.32963 0.45703 0.29896 0.0
C846 C 0.34581 0.44693 0.31417 0.0
C847 C 0.3406 0.42419 0.32475 0.0
C848 C 0.31882 0.41203 0.3196 0.0
C849 C 0.30246 0.42272 0.30387 0.0
C850 C 0.30852 0.44555 0.29402 0.0
H851 H 0.36266 0.45601 0.31814 0.0
O852 O 0.38086 0.45355 0.24401 0.0
O853 O 0.34916 0.47386 0.25632 0.0
O854 O 0.3927 0.49334 0.27569 0.0
O855 O 0.36109 0.49742 0.30013 0.0
C856 C 0.2806 0.41135 0.29719 0.0
C857 C 0.26542 0.42272 0.28055 0.0
H858 H 0.24169 0.44923 0.24684 0.0
H859 H 0.25662 0.48836 0.22956 0.0
H860 H 0.3534 0.41601 0.33678 0.0
H861 H 0.31497 0.39439 0.32763 0.0
H862 H 0.27547 0.39368 0.30448 0.0
H863 H 0.24885 0.4136 0.27526 0.0
O864 O 0.95168 0.00547 0.96089 0.0
Mg865 Mg 0.95631 0.01573 -0.00328 0.0
O866 O 0.99051 -0.0013 0.95778 0.0
Mg867 Mg -0.00065 -0.00545 -0.00231 0.0
O868 O 0.98575 0.03419 0.00934 0.0
O869 O 0.94979 0.05139 0.00169 0.0
O870 O 0.01202 0.98926 0.03697 0.0
O871 O 0.035 0.01616 0.99086 0.0
Mg872 Mg 0.04939 0.96252 -0.00382 0.0
O873 O 0.01456 0.95829 0.98705 0.0
O874 O 0.04788 0.97103 0.03289 0.0
O875 O 0.06298 -0.00803 0.97558 0.0
O876 O 0.04024 0.92817 0.98168 0.0
C877 C 0.94375 0.9734 0.01556 0.0
C878 C 0.96987 0.00056 0.94835 0.0
C879 C 0.97118 0.05286 0.01054 0.0
C880 C 0.03182 0.9812 0.04563 0.0
C881 C 0.05537 0.01321 0.98078 0.0
C882 C 0.01869 0.93649 0.97947 0.0
O883 O 0.93825 -0.00523 0.02196 0.0
O884 O 0.96348 0.97025 0.00424 0.0
O885 O 0.25577 0.72893 0.31029 0.0
Mg886 Mg 0.24314 0.69907 0.2901 0.0
O887 O 0.25116 0.75809 0.28311 0.0
Mg888 Mg 0.24461 0.73962 0.24659 0.0
O889 O 0.25852 0.70293 0.25834 0.0
O890 O 0.26504 0.67 0.28009 0.0
O891 O 0.23702 0.72029 0.20993 0.0
O892 O 0.28432 0.74594 0.23753 0.0
Mg893 Mg 0.24846 0.77237 0.20253 0.0
O894 O 0.23048 0.77745 0.23405 0.0
O895 O 0.22694 0.74802 0.18309 0.0
O896 O 0.28562 0.76467 0.20301 0.0
O897 O 0.24442 0.80811 0.21189 0.0
C898 C 0.19418 0.71592 0.2722 0.0
C899 C 0.25521 0.75141 0.30438 0.0
C900 C 0.26902 0.6821 0.26089 0.0
C901 C 0.22896 0.72579 0.18939 0.0
C902 C 0.2961 0.75466 0.22025 0.0
C903 C 0.23504 0.8007 0.23152 0.0
O904 O 0.20569 0.70005 0.28408 0.0
O905 O 0.20501 0.73134 0.25868 0.0
O906 O 0.52594 0.95641 0.45807 0.0
Mg907 Mg 0.53731 0.9606 0.49305 0.0
O908 O 0.50559 -0.00872 0.45779 0.0
Mg909 Mg 0.49258 -0.0017 0.49684 0.0
O910 O 0.50686 0.96243 0.51173 0.0
O911 O 0.53297 0.93206 0.51639 0.0
O912 O 0.4802 0.00492 0.53579 0.0
O913 O 0.45775 0.9768 0.48925 0.0
Mg914 Mg 0.44564 0.03302 0.5009 0.0
O915 O 0.47761 0.03461 0.48299 0.0
O916 O 0.45245 0.03398 0.53795 0.0
O917 O 0.42627 0.00184 0.4881 0.0
O918 O 0.45011 0.06383 0.47991 0.0
C919 C 0.55047 0.01381 0.50473 0.0
C920 C 0.51656 0.97407 0.4469 0.0
C921 C 0.51259 0.94194 0.52163 0.0
C922 C 0.46647 0.01886 0.54788 0.0
C923 C 0.43543 0.98066 0.48584 0.0
C924 C 0.4709 0.0553 0.47403 0.0
O925 O 0.55792 -0.00794 0.50158 0.0
O926 O 0.52818 0.01934 0.50374 0.0
O927 O 0.30744 0.25867 0.73937 0.0
Mg928 Mg 0.28873 0.24421 0.70985 0.0
O929 O 0.27656 0.25441 0.76419 0.0
Mg930 Mg 0.2418 0.24505 0.74408 0.0
O931 O 0.25587 0.26014 0.70875 0.0
O932 O 0.28306 0.26521 0.68018 0.0
O933 O 0.20691 0.23561 0.72332 0.0
O934 O 0.22726 0.28354 0.75057 0.0
Mg935 Mg 0.19282 0.23947 0.77405 0.0
O936 O 0.22804 0.2319 0.78014 0.0
O937 O 0.17912 0.21809 0.74584 0.0
O938 O 0.19141 0.27773 0.76776 0.0
O939 O 0.19968 0.22509 0.80719 0.0
C940 C 0.2708 0.19441 0.7243 0.0
C941 C 0.29858 0.25956 0.76006 0.0
C942 C 0.26195 0.26974 0.68864 0.0
C943 C 0.18665 0.22463 0.72561 0.0
C944 C 0.20734 0.29162 0.75853 0.0
C945 C 0.22203 0.22412 0.80096 0.0
O946 O 0.28405 0.20563 0.70946 0.0
O947 O 0.25624 0.20588 0.73781 0.0
O948 O 0.98774 0.9274 0.50448 0.0
Mg949 Mg 0.00146 0.9473 0.5338 0.0
O950 O 0.98811 0.95883 0.47945 0.0
Mg951 Mg -0.00345 -0.00557 0.4991 0.0
O952 O 0.98385 0.97969 0.53491 0.0
O953 O 0.98119 0.95243 0.564 0.0
O954 O 0.00484 0.03069 0.519 0.0
O955 O 0.95745 0.00687 0.49401 0.0
Mg956 Mg -0.00249 0.04339 0.46745 0.0
O957 O 0.00714 0.0082 0.46248 0.0
O958 O 0.02068 0.0571 0.49368 0.0
O959 O 0.96012 0.04304 0.47564 0.0
O960 O 0.01058 0.03597 0.43394 0.0
C961 C 0.04857 0.9691 0.51804 0.0
C962 C 0.98497 0.93617 0.48385 0.0
C963 C 0.9753 0.97343 0.55535 0.0
C964 C 0.01545 0.05101 0.51469 0.0
C965 C 0.94789 0.02623 0.48573 0.0
C966 C 0.01383 0.01385 0.44127 0.0
O967 O 0.03865 0.95534 0.53336 0.0
O968 O 0.03624 0.98243 0.50406 0.0
O969 O 0.27738 0.71032 0.78908 0.0
Mg970 Mg 0.27922 0.70354 0.75248 0.0
O971 O 0.24973 0.73965 0.78746 0.0
Mg972 Mg 0.24397 0.7499 0.74774 0.0
O973 O 0.28159 0.73673 0.73653 0.0
O974 O 0.31125 0.70941 0.73521 0.0
O975 O 0.23869 0.7607 0.70779 0.0
O976 O 0.26208 0.78688 0.75444 0.0
Mg977 Mg 0.20539 0.79411 0.73889 0.0
O978 O 0.20712 0.76352 0.75913 0.0
O979 O 0.20561 0.78294 0.70308 0.0
O980 O 0.23536 0.81656 0.74835 0.0
O981 O 0.17546 0.78802 0.76034 0.0
C982 C 0.22972 0.69069 0.73627 0.0
C983 C 0.26339 0.72536 0.79923 0.0
C984 C 0.30301 0.73069 0.72956 0.0
C985 C 0.22339 0.77143 0.69447 0.0
C986 C 0.25645 0.80944 0.75367 0.0
C987 C 0.18604 0.76842 0.76753 0.0
O988 O 0.25108 0.68263 0.73708 0.0
O989 O 0.22491 0.713 0.74087 0.0
O990 O 0.45848 0.95343 0.03368 0.0
Mg991 Mg 0.45776 -0.00847 0.04029 0.0
O992 O 0.49129 0.95828 0.01194 0.0
Mg993 Mg 0.49763 -0.00199 0.00022 0.0
O994 O 0.45973 0.01112 0.00968 0.0
O995 O 0.4276 0.01165 0.03351 0.0
O996 O 0.50464 0.03945 0.98888 0.0
O997 O 0.48113 0.98802 0.96418 0.0
Mg998 Mg 0.53218 0.00952 0.96861 0.0
O999 O 0.53535 0.98151 0.99244 0.0
O1000 O 0.54365 0.04273 0.9829 0.0
O1001 O 0.50425 0.01274 0.94351 0.0
O1002 O 0.55453 0.98276 0.95744 0.0
C1003 C 0.50611 0.00908 0.05817 0.0
C1004 C 0.47635 0.94455 0.02275 0.0
C1005 C 0.43829 0.01893 0.01445 0.0
C1006 C 0.52334 0.05286 0.9852 0.0
C1007 C 0.48556 -0.00047 0.94515 0.0
C1008 C 0.54986 0.97176 0.97712 0.0
O1009 O 0.4843 0.00489 0.06377 0.0
O1010 O 0.51343 0.00723 0.03685 0.0
O1011 O 0.28099 0.23652 0.19157 0.0
Mg1012 Mg 0.25469 0.26051 0.20518 0.0
O1013 O 0.25419 0.21619 0.21156 0.0
Mg1014 Mg 0.24814 0.24071 0.24619 0.0
O1015 O 0.26241 0.28044 0.23481 0.0
O1016 O 0.2639 0.29527 0.19774 0.0
O1017 O 0.24026 0.26336 0.28197 0.0
O1018 O 0.2887 0.23643 0.25571 0.0
Mg1019 Mg 0.25089 0.21511 0.28769 0.0
O1020 O 0.23521 0.20092 0.25793 0.0
O1021 O 0.22842 0.23639 0.30839 0.0
O1022 O 0.28818 0.22017 0.29127 0.0
O1023 O 0.24271 0.17981 0.2914 0.0
C1024 C 0.20206 0.24957 0.21258 0.0
C1025 C 0.26953 0.21681 0.19477 0.0
C1026 C 0.2676 0.29813 0.22012 0.0
C1027 C 0.2312 0.25844 0.30232 0.0
C1028 C 0.29968 0.22934 0.27416 0.0
C1029 C 0.23327 0.18098 0.27058 0.0
O1030 O 0.21802 0.25332 0.19692 0.0
O1031 O 0.20817 0.24705 0.23423 0.0
O1032 O 0.44685 0.51525 0.96223 0.0
Mg1033 Mg 0.48186 0.52984 0.96376 0.0
O1034 O 0.45548 0.50639 -0.00094 0.0
Mg1035 Mg 0.49513 0.4927 0.00102 0.0
O1036 O 0.50741 0.50345 0.96314 0.0
O1037 O 0.50138 0.52999 0.93344 0.0
O1038 O 0.53447 0.47858 0.00574 0.0
O1039 O 0.48368 0.45641 0.98319 0.0
Mg1040 Mg 0.49921 0.4477 0.03768 0.0
O1041 O 0.48574 0.48229 0.03949 0.0
O1042 O 0.53658 0.45457 0.03759 0.0
O1043 O 0.48697 0.42643 0.00916 0.0
O1044 O 0.4726 0.45261 0.06267 0.0
C1045 C 0.50051 0.55138 0.01018 0.0
C1046 C 0.44001 0.51116 0.98315 0.0
C1047 C 0.51256 0.51135 0.94206 0.0
C1048 C 0.54668 0.46606 0.02064 0.0
C1049 C 0.48195 0.43385 0.98856 0.0
C1050 C 0.47036 0.47477 0.05516 0.0
O1051 O 0.48962 0.55568 0.99089 0.0
O1052 O 0.50604 0.52975 0.01653 0.0
O1053 O 0.76864 0.20657 0.28876 0.0
Mg1054 Mg 0.76942 0.20437 0.25185 0.0
O1055 O 0.74488 0.23856 0.28525 0.0
Mg1056 Mg 0.74181 0.24859 0.24539 0.0
O1057 O 0.78051 0.23474 0.23344 0.0
O1058 O 0.80261 0.20077 0.23949 0.0
O1059 O 0.73691 0.26099 0.20603 0.0
O1060 O 0.76122 0.28507 0.25345 0.0
Mg1061 Mg 0.70432 0.2957 0.24028 0.0
O1062 O 0.70578 0.26298 0.25655 0.0
O1063 O 0.70604 0.28696 0.20387 0.0
O1064 O 0.73483 0.31577 0.25252 0.0
O1065 O 0.67415 0.28675 0.26095 0.0
C1066 C 0.72424 0.19066 0.23168 0.0
C1067 C 0.75585 0.22305 0.29801 0.0
C1068 C 0.80025 0.22222 0.23014 0.0
C1069 C 0.72223 0.27406 0.19404 0.0
C1070 C 0.75604 0.30771 0.25571 0.0
C1071 C 0.68476 0.26636 0.26553 0.0
O1072 O 0.74502 0.1818 0.23407 0.0
O1073 O 0.72024 0.21304 0.23664 0.0
O1074 O 0.98194 0.46608 0.54892 0.0
Mg1075 Mg 0.97594 0.50363 0.54101 0.0
O1076 O 0.98722 0.45853 0.51114 0.0
Mg1077 Mg -0.00262 0.49773 0.50058 0.0
O1078 O 0.9592 0.51452 0.51086 0.0
O1079 O 0.94181 0.51326 0.54692 0.0
O1080 O 0.00876 0.5349 0.48564 0.0
O1081 O 0.97516 0.4932 0.46646 0.0
Mg1082 Mg 0.02323 0.4827 0.45458 0.0
O1083 O 0.03396 0.48261 0.48902 0.0
O1084 O 0.02235 0.52217 0.45034 0.0
O1085 O 0.99124 0.46298 0.44701 0.0
O1086 O 0.04909 0.457 0.46297 0.0
C1087 C 0.0185 0.51826 0.55335 0.0
C1088 C 0.98466 0.45095 0.53216 0.0
C1089 C 0.94105 0.5191 0.52481 0.0
C1090 C 0.01666 0.53938 0.46475 0.0
C1091 C 0.97375 0.47711 0.45031 0.0
C1092 C 0.04671 0.46345 0.48473 0.0
O1093 O -0.00104 0.52951 0.556 0.0
O1094 O 0.02056 0.50368 0.53576 0.0
O1095 O 0.69505 0.7771 0.26653 0.0
Mg1096 Mg 0.69937 0.7391 0.27034 0.0
O1097 O 0.73113 0.78339 0.25059 0.0
Mg1098 Mg 0.74427 0.7444 0.24329 0.0
O1099 O 0.73322 0.73107 0.28112 0.0
O1100 O 0.70013 0.72754 0.3041 0.0
O1101 O 0.75782 0.70471 0.2356 0.0
O1102 O 0.78012 0.7529 0.26273 0.0
Mg1103 Mg 0.78947 0.74451 0.20772 0.0
O1104 O 0.75666 0.76019 0.20777 0.0
O1105 O 0.78466 0.70632 0.20642 0.0
O1106 O 0.80986 0.75698 0.23664 0.0
O1107 O 0.78317 0.76604 0.17866 0.0
C1108 C 0.68983 0.72241 0.22506 0.0
C1109 C 0.71134 0.7914 0.2588 0.0
C1110 C 0.72306 0.72509 0.30107 0.0
C1111 C 0.77201 0.69409 0.22102 0.0
C1112 C 0.80219 0.75706 0.25779 0.0
C1113 C 0.76212 0.76992 0.18755 0.0
O1114 O 0.68399 0.71517 0.24549 0.0
O1115 O 0.70893 0.73526 0.22232 0.0
O1116 O 0.75839 0.22756 0.80963 0.0
Mg1117 Mg 0.74365 0.19868 0.78899 0.0
O1118 O 0.75207 0.25601 0.78215 0.0
Mg1119 Mg 0.74488 0.23868 0.7456 0.0
O1120 O 0.75852 0.20133 0.7566 0.0
O1121 O 0.76373 0.1685 0.77904 0.0
O1122 O 0.73748 0.22083 0.70869 0.0
O1123 O 0.78492 0.24617 0.73582 0.0
Mg1124 Mg 0.75254 0.27801 0.70486 0.0
O1125 O 0.73154 0.27702 0.73449 0.0
O1126 O 0.74131 0.24992 0.68143 0.0
O1127 O 0.78946 0.27955 0.71401 0.0
O1128 O 0.7317 0.30852 0.70924 0.0
C1129 C 0.69448 0.21611 0.77224 0.0
C1130 C 0.7576 0.24987 0.80322 0.0
C1131 C 0.76829 0.18016 0.7597 0.0
C1132 C 0.73677 0.22783 0.68714 0.0
C1133 C 0.79842 0.2621 0.72581 0.0
C1134 C 0.72388 0.29857 0.72849 0.0
O1135 O 0.70613 0.20061 0.7844 0.0
O1136 O 0.70517 0.23073 0.75783 0.0
O1137 O 0.73061 0.74541 0.68855 0.0
Mg1138 Mg 0.7279 0.77458 0.71393 0.0
O1139 O 0.7568 0.72593 0.71075 0.0
Mg1140 Mg 0.74583 0.74363 0.74648 0.0
O1141 O 0.75689 0.78357 0.7345 0.0
O1142 O 0.74409 0.80618 0.70383 0.0
O1143 O 0.73499 0.76136 0.78326 0.0
O1144 O 0.78717 0.74518 0.75669 0.0
Mg1145 Mg 0.76028 0.70993 0.78559 0.0
O1146 O 0.73818 0.70302 0.75762 0.0
O1147 O 0.74572 0.73435 0.81045 0.0
O1148 O 0.79686 0.71233 0.77711 0.0
O1149 O 0.74699 0.67559 0.78596 0.0
C1150 C 0.68765 0.75844 0.73255 0.0
C1151 C 0.74562 0.72823 0.69125 0.0
C1152 C 0.75826 0.80338 0.72172 0.0
C1153 C 0.73651 0.75476 0.80495 0.0
C1154 C 0.80305 0.73154 0.7662 0.0
C1155 C 0.73603 0.6811 0.76655 0.0
O1156 O 0.69459 0.78036 0.7304 0.0
O1157 O 0.70365 0.74182 0.73518 0.0
O1158 O 0.55596 0.49165 0.47197 0.0
Mg1159 Mg 0.54331 0.46496 0.49563 0.0
O1160 O 0.53248 0.51853 0.48957 0.0
Mg1161 Mg 0.49622 0.49775 0.49882 0.0
O1162 O 0.50845 0.45942 0.48845 0.0
O1163 O 0.53556 0.4299 0.48416 0.0
O1164 O 0.45985 0.4776 0.50783 0.0
O1165 O 0.48426 0.50092 0.45941 0.0
Mg1166 Mg 0.45089 0.5327 0.49126 0.0
O1167 O 0.4826 0.53601 0.5092 0.0
O1168 O 0.42966 0.50413 0.50602 0.0
O1169 O 0.45779 0.53079 0.45459 0.0
O1170 O 0.45499 0.56557 0.50839 0.0
C1171 C 0.53021 0.48375 0.54573 0.0
C1172 C 0.55163 0.51356 0.47799 0.0
C1173 C 0.51365 0.43732 0.48204 0.0
C1174 C 0.4375 0.48272 0.51002 0.0
C1175 C 0.47139 0.5144 0.4461 0.0
C1176 C 0.47565 0.55772 0.51546 0.0
O1177 O 0.54496 0.4731 0.53196 0.0
O1178 O 0.51062 0.49322 0.53794 0.0
O1179 O 0.01481 0.45415 0.94915 0.0
Mg1180 Mg 0.03052 0.45591 0.98303 0.0
O1181 O 0.00411 0.49225 0.95634 0.0
Mg1182 Mg -0.0055 0.49757 -0.00382 0.0
O1183 O 0.00534 0.45934 0.00878 0.0
O1184 O 0.02848 0.42622 0.00511 0.0
O1185 O 0.98296 0.50435 0.0359 0.0
O1186 O 0.95718 0.48029 0.98826 0.0
Mg1187 Mg 0.95135 0.53685 -0.00094 0.0
O1188 O 0.98435 0.53605 0.98408 0.0
O1189 O 0.95546 0.53386 0.03579 0.0
O1190 O 0.93 0.50937 0.9831 0.0
O1191 O 0.96052 0.56856 0.98139 0.0
C1192 C 0.05374 0.50501 -0.00197 0.0
C1193 C 0.0087 0.47507 0.9417 0.0
C1194 C 0.01146 0.43772 0.01593 0.0
C1195 C 0.96843 0.51863 0.04686 0.0
C1196 C 0.93593 0.48692 0.98277 0.0
C1197 C 0.98052 0.55792 0.97614 0.0
O1198 O 0.05661 0.48369 0.98931 0.0
O1199 O 0.03279 0.5132 0.00307 0.0
H1200 H 0.01387 0.19465 0.06711 0.0
H1201 H 0.96978 0.16162 0.12149 0.0
H1202 H 0.01325 0.156 0.04474 0.0
H1203 H 0.96893 0.12297 0.09907 0.0
H1204 H 0.93979 0.08362 0.03128 0.0
H1205 H 0.94819 0.11755 0.05761 0.0
H1206 H 0.0246 0.107 0.04835 0.0
H1207 H 0.0162 0.0712 0.02267 0.0
C1208 C 0.00415 0.179 0.07426 0.0
C1209 C 0.99119 0.1811 0.09551 0.0
C1210 C 0.00411 0.15688 0.06168 0.0
C1211 C 0.99102 0.13662 0.07021 0.0
C1212 C 0.9791 0.13842 0.09214 0.0
C1213 C 0.97946 0.16044 0.10487 0.0
C1214 C 0.95846 0.08841 0.03467 0.0
C1215 C 0.97736 0.07478 0.02476 0.0
C1216 C 0.96321 0.10786 0.04989 0.0
C1217 C 0.98695 0.11494 0.05493 0.0
C1218 C 0.00609 0.10182 0.04467 0.0
C1219 C 0.00131 0.08151 0.02997 0.0
H1220 H 0.04431 0.7518 0.30514 0.0
H1221 H 0.07887 0.72964 0.37006 0.0
H1222 H 0.08214 0.74634 0.28365 0.0
H1223 H 0.11675 0.72357 0.34829 0.0
H1224 H 0.16477 0.68308 0.29429 0.0
H1225 H 0.12659 0.69167 0.31371 0.0
H1226 H 0.12708 0.76467 0.28421 0.0
H1227 H 0.16585 0.75639 0.265 0.0
C1228 C 0.06005 0.74575 0.31478 0.0
C1229 C 0.05871 0.74085 0.33916 0.0
C1230 C 0.08165 0.74281 0.30251 0.0
C1231 C 0.10216 0.73438 0.31431 0.0
C1232 C 0.10102 0.72993 0.33882 0.0
C1233 C 0.07948 0.73344 0.35125 0.0
C1234 C 0.15662 0.70087 0.29155 0.0
C1235 C 0.16846 0.71913 0.27823 0.0
C1236 C 0.1349 0.70581 0.3029 0.0
C1237 C 0.12432 0.72897 0.30086 0.0
C1238 C 0.13509 0.74671 0.28614 0.0
C1239 C 0.1571 0.74187 0.27495 0.0
H1240 H 0.48104 0.80226 0.54448 0.0
H1241 H 0.48051 0.82463 0.61784 0.0
H1242 H 0.48007 0.84507 0.53232 0.0
H1243 H 0.47865 0.86768 0.60569 0.0
H1244 H 0.52092 0.9327 0.56746 0.0
H1245 H 0.50712 0.89569 0.58737 0.0
H1246 H 0.45597 0.88247 0.53098 0.0
H1247 H 0.47024 0.91966 0.51099 0.0
C1248 C 0.48045 0.81638 0.558 0.0
C1249 C 0.48115 0.81018 0.58208 0.0
C1250 C 0.47951 0.84091 0.55106 0.0
C1251 C 0.47887 0.8598 0.56806 0.0
C1252 C 0.47918 0.85355 0.59219 0.0
C1253 C 0.48045 0.82897 0.59913 0.0
C1254 C 0.50576 0.92261 0.56009 0.0
C1255 C 0.49663 0.92877 0.53781 0.0
C1256 C 0.49791 0.90129 0.5714 0.0
C1257 C 0.48097 0.88576 0.56037 0.0
C1258 C 0.46947 0.89383 0.53961 0.0
C1259 C 0.47728 0.91531 0.52836 0.0
H1260 H 0.40076 0.2211 0.87014 0.0
H1261 H 0.43696 0.26919 0.82061 0.0
H1262 H 0.3631 0.22599 0.84841 0.0
H1263 H 0.39946 0.27388 0.79867 0.0
H1264 H 0.32574 0.29742 0.77736 0.0
H1265 H 0.36024 0.29336 0.80421 0.0
H1266 H 0.34515 0.21561 0.81067 0.0
H1267 H 0.31017 0.22015 0.7851 0.0
C1268 C 0.40065 0.23242 0.85439 0.0
C1269 C 0.42161 0.24472 0.84692 0.0
C1270 C 0.37916 0.23527 0.84201 0.0
C1271 C 0.37831 0.25066 0.82213 0.0
C1272 C 0.39952 0.26232 0.81425 0.0
C1273 C 0.42105 0.25928 0.8265 0.0
C1274 C 0.32952 0.27975 0.78525 0.0
C1275 C 0.31549 0.25914 0.77965 0.0
C1276 C 0.34931 0.2773 0.80027 0.0
C1277 C 0.35553 0.25408 0.80918 0.0
C1278 C 0.34064 0.23376 0.80433 0.0
C1279 C 0.32064 0.23634 0.78978 0.0
H1280 H 0.97553 0.8306 0.3655 0.0
H1281 H 0.00593 0.79972 0.42897 0.0
H1282 H 0.9724 0.87078 0.38533 0.0
H1283 H 0.00201 0.83929 0.44895 0.0
H1284 H 0.95643 0.89597 0.48433 0.0
H1285 H 0.95719 0.8626 0.45577 0.0
H1286 H 0.0061 0.90347 0.41143 0.0
H1287 H 0.00496 0.93777 0.43981 0.0
C1288 C 0.98141 0.83248 0.38369 0.0
C1289 C 0.98976 0.81203 0.3963 0.0
C1290 C 0.97976 0.85532 0.39487 0.0
C1291 C 0.98655 0.85772 0.41864 0.0
C1292 C -0.0037 0.8376 0.43067 0.0
C1293 C -0.0018 0.81498 0.41944 0.0
C1294 C 0.96678 0.89814 0.46817 0.0
C1295 C 0.98085 0.91912 0.46429 0.0
C1296 C 0.96725 0.87904 0.45196 0.0
C1297 C 0.98201 0.88036 0.43192 0.0
C1298 C -0.00543 0.90216 0.42687 0.0
C1299 C -0.00613 0.92164 0.44302 0.0
H1300 H 0.39302 0.73326 0.61708 0.0
H1301 H 0.4363 0.77596 0.66577 0.0
H1302 H 0.3578 0.73962 0.64176 0.0
H1303 H 0.40068 0.78358 0.68997 0.0
H1304 H 0.34681 0.74643 0.74275 0.0
H1305 H 0.3788 0.75911 0.7162 0.0
H1306 H 0.32731 0.76386 0.6589 0.0
H1307 H 0.29535 0.75005 0.68586 0.0
C1308 C 0.3949 0.74442 0.63287 0.0
C1309 C 0.41755 0.75359 0.63981 0.0
C1310 C 0.37456 0.74841 0.6469 0.0
C1311 C 0.37629 0.76206 0.66802 0.0
C1312 C 0.39872 0.77256 0.67411 0.0
C1313 C 0.41917 0.76814 0.6603 0.0
C1314 C 0.34222 0.75123 0.7247 0.0
C1315 C 0.3188 0.74727 0.7162 0.0
C1316 C 0.36057 0.75857 0.70938 0.0
C1317 C 0.35584 0.76193 0.68515 0.0
C1318 C 0.3317 0.76082 0.67733 0.0
C1319 C 0.31328 0.75338 0.69278 0.0
H1320 H 0.45439 0.17167 0.91177 0.0
H1321 H 0.53003 0.18798 0.90292 0.0
H1322 H 0.4643 0.13446 0.93353 0.0
H1323 H 0.54023 0.15219 0.9263 0.0
H1324 H 0.55254 0.07591 0.95375 0.0
H1325 H 0.54299 0.11103 0.92979 0.0
H1326 H 0.47741 0.12161 0.97009 0.0
H1327 H 0.48618 0.08472 0.99285 0.0
C1328 C 0.47317 0.16698 0.91428 0.0
C1329 C 0.49151 0.18232 0.90552 0.0
C1330 C 0.4789 0.14597 0.92715 0.0
C1331 C 0.50311 0.1404 0.93221 0.0
C1332 C 0.5214 0.15548 0.92258 0.0
C1333 C 0.51563 0.17603 0.90908 0.0
C1334 C 0.5363 0.086 0.95788 0.0
C1335 C 0.52014 0.07761 0.97528 0.0
C1336 C 0.53077 0.10627 0.94403 0.0
C1337 C 0.50929 0.11927 0.94771 0.0
C1338 C 0.4938 0.11172 0.96618 0.0
C1339 C 0.49901 0.09088 0.97961 0.0
H1340 H 0.07924 0.25852 0.11996 0.0
H1341 H 0.04556 0.24667 0.18791 0.0
H1342 H 0.11876 0.25861 0.1388 0.0
H1343 H 0.08505 0.24529 0.20669 0.0
H1344 H 0.16091 0.26478 0.23562 0.0
H1345 H 0.12014 0.26661 0.21894 0.0
H1346 H 0.14573 0.231 0.15529 0.0
H1347 H 0.18615 0.23039 0.17146 0.0
C1348 C 0.08033 0.25587 0.13893 0.0
C1349 C 0.05936 0.25257 0.15243 0.0
C1350 C 0.103 0.25567 0.14977 0.0
C1351 C 0.10528 0.25155 0.17432 0.0
C1352 C 0.08413 0.24877 0.18785 0.0
C1353 C 0.06145 0.24947 0.17705 0.0
C1354 C 0.15761 0.2572 0.21818 0.0
C1355 C 0.1767 0.24777 0.2047 0.0
C1356 C 0.13428 0.25822 0.20856 0.0
C1357 C 0.12962 0.24947 0.18545 0.0
C1358 C 0.14864 0.23879 0.17271 0.0
C1359 C 0.17184 0.23817 0.1821 0.0
H1360 H 0.12114 0.97706 0.16841 0.0
H1361 H 0.05193 -0.00706 0.19962 0.0
H1362 H 0.10292 0.97712 0.12922 0.0
H1363 H 0.0338 -0.00554 0.16034 0.0
H1364 H 0.00585 0.97066 0.08596 0.0
H1365 H 0.02127 0.97181 0.12668 0.0
H1366 H 0.08782 0.00432 0.1013 0.0
H1367 H 0.07287 0.00186 0.06103 0.0
C1368 C 0.10203 0.98065 0.16683 0.0
C1369 C 0.08795 0.98489 0.18701 0.0
C1370 C 0.09156 0.98097 0.14435 0.0
C1371 C 0.06685 0.98616 0.14146 0.0
C1372 C 0.05276 0.99012 0.1618 0.0
C1373 C 0.06317 0.9893 0.18433 0.0
C1374 C 0.0236 0.97832 0.08933 0.0
C1375 C 0.03833 0.98585 0.07049 0.0
C1376 C 0.0325 0.97901 0.11259 0.0
C1377 C 0.05612 0.98755 0.11729 0.0
C1378 C 0.06997 -0.00327 0.09839 0.0
C1379 C 0.06129 -0.00438 0.0753 0.0
H1380 H 0.25243 0.81506 0.44171 0.0
H1381 H 0.23326 0.87766 0.39884 0.0
H1382 H 0.25542 0.79005 0.40673 0.0
H1383 H 0.23512 0.85179 0.36329 0.0
H1384 H 0.26898 0.80036 0.30475 0.0
H1385 H 0.26417 0.8293 0.33798 0.0
H1386 H 0.22956 0.77193 0.37881 0.0
H1387 H 0.23566 0.74333 0.34694 0.0
C1388 C 0.24824 0.8234 0.42483 0.0
C1389 C 0.24244 0.84837 0.42312 0.0
C1390 C 0.24994 0.80898 0.40467 0.0
C1391 C 0.2453 0.81887 0.38221 0.0
C1392 C 0.23903 0.84374 0.38036 0.0
C1393 C 0.23769 0.85843 0.4007 0.0
C1394 C 0.26073 0.79407 0.32106 0.0
C1395 C 0.25353 0.76944 0.32366 0.0
C1396 C 0.25768 0.81061 0.33988 0.0
C1397 C 0.24692 0.80272 0.36119 0.0
C1398 C 0.23871 0.7784 0.36304 0.0
C1399 C 0.2423 0.76195 0.34472 0.0
H1400 H 0.38021 0.98754 0.66631 0.0
H1401 H 0.442 0.01975 0.70144 0.0
H1402 H 0.40159 0.98974 0.62851 0.0
H1403 H 0.46321 0.02215 0.66349 0.0
H1404 H 0.46876 0.05259 0.58342 0.0
H1405 H 0.45473 0.04693 0.62425 0.0
H1406 H 0.44096 0.97024 0.60982 0.0
H1407 H 0.456 0.97574 0.56931 0.0
C1408 C 0.39829 -0.00483 0.66597 0.0
C1409 C 0.40934 0.00361 0.68686 0.0
C1410 C 0.41061 -0.00381 0.64438 0.0
C1411 C 0.43411 0.00594 0.64318 0.0
C1412 C 0.44511 0.01457 0.66398 0.0
C1413 C 0.43291 0.01327 0.68564 0.0
C1414 C 0.46345 0.03441 0.58929 0.0
C1415 C 0.46346 0.0146 0.57341 0.0
C1416 C 0.45539 0.03117 0.61255 0.0
C1417 C 0.44646 0.00824 0.62001 0.0
C1418 C 0.4476 0.98814 0.60442 0.0
C1419 C 0.45637 -0.00877 0.58138 0.0
H1420 H 0.26946 0.17594 0.93877 0.0
H1421 H 0.23312 0.12001 0.89745 0.0
H1422 H 0.27485 0.20065 0.90281 0.0
H1423 H 0.23777 0.14452 0.86235 0.0
H1424 H 0.24801 0.18244 0.799 0.0
H1425 H 0.26431 0.1609 0.8332 0.0
H1426 H 0.24835 0.22372 0.87723 0.0
H1427 H 0.23337 0.24542 0.84265 0.0
C1428 C 0.26263 0.16895 0.9221 0.0
C1429 C 0.25074 0.14607 0.92103 0.0
C1430 C 0.26584 0.183 0.90151 0.0
C1431 C 0.2571 0.17444 0.87956 0.0
C1432 C 0.2455 0.15144 0.87866 0.0
C1433 C 0.24249 0.13746 0.89901 0.0
C1434 C 0.24959 0.19212 0.81565 0.0
C1435 C 0.23966 0.21547 0.81828 0.0
C1436 C 0.25844 0.17968 0.8354 0.0
C1437 C 0.25682 0.19027 0.85813 0.0
C1438 C 0.24976 0.21492 0.86009 0.0
C1439 C 0.24111 0.22737 0.84029 0.0
H1440 H 0.12062 0.96683 0.34163 0.0
H1441 H 0.06326 0.00624 0.30724 0.0
H1442 H 0.09527 0.96096 0.37644 0.0
H1443 H 0.03833 0.00164 0.34237 0.0
H1444 H -0.00661 -0.00808 0.4033 0.0
H1445 H 0.01558 0.97756 0.36865 0.0
H1446 H 0.08235 0.98585 0.40754 0.0
H1447 H 0.05982 -0.00126 0.44224 0.0
C1448 C 0.10257 0.97429 0.34158 0.0
C1449 C 0.09398 0.98728 0.32189 0.0
C1450 C 0.08802 0.97091 0.36152 0.0
C1451 C 0.06474 0.98089 0.3624 0.0
C1452 C 0.05593 -0.00681 0.34228 0.0
C1453 C 0.07032 -0.00386 0.32218 0.0
C1454 C 0.01269 0.9893 0.40465 0.0
C1455 C 0.02505 -0.00372 0.42523 0.0
C1456 C 0.02548 0.98153 0.38474 0.0
C1457 C 0.05085 0.98137 0.38496 0.0
C1458 C 0.06286 0.98568 0.40657 0.0
C1459 C 0.04999 -0.00699 0.42659 0.0
H1460 H 0.22332 0.80193 0.54247 0.0
H1461 H 0.26183 0.86052 0.57804 0.0
H1462 H 0.22009 0.77958 0.57973 0.0
H1463 H 0.25858 0.83802 0.6154 0.0
H1464 H 0.26664 0.78185 0.67413 0.0
H1465 H 0.27335 0.798 0.63424 0.0
H1466 H 0.1979 0.787 0.61831 0.0
H1467 H 0.19125 0.77103 0.65821 0.0
C1468 C 0.23109 0.81006 0.55824 0.0
C1469 C 0.24273 0.83308 0.55734 0.0
C1470 C 0.22924 0.79722 0.57956 0.0
C1471 C 0.2392 0.80698 0.60041 0.0
C1472 C 0.25103 0.8299 0.59951 0.0
C1473 C 0.25268 0.84289 0.57819 0.0
C1474 C 0.25173 0.782 0.66178 0.0
C1475 C 0.22849 0.77493 0.66909 0.0
C1476 C 0.25547 0.79163 0.63911 0.0
C1477 C 0.23609 0.79399 0.62328 0.0
C1478 C 0.21319 0.78532 0.6301 0.0
C1479 C 0.20937 0.77612 0.65288 0.0
H1480 H 0.42854 0.0058 0.80418 0.0
H1481 H 0.36788 0.97962 0.84554 0.0
H1482 H 0.45328 0.00657 0.83973 0.0
H1483 H 0.39261 0.98082 0.88106 0.0
H1484 H 0.45362 0.96276 0.93414 0.0
H1485 H 0.42805 0.96017 0.89887 0.0
H1486 H 0.45444 0.03122 0.87622 0.0
H1487 H 0.48025 0.03349 0.91087 0.0
C1488 C 0.42045 0.0003 0.82082 0.0
C1489 C 0.3962 -0.00715 0.82205 0.0
C1490 C 0.43459 0.00082 0.84118 0.0
C1491 C 0.42477 -0.00614 0.86311 0.0
C1492 C 0.40065 0.98611 0.86433 0.0
C1493 C 0.38646 0.98567 0.844 0.0
C1494 C 0.45379 0.97779 0.92161 0.0
C1495 C 0.46905 -0.00185 0.92496 0.0
C1496 C 0.43919 0.97636 0.90152 0.0
C1497 C 0.43955 -0.00462 0.88473 0.0
C1498 C 0.45428 0.01603 0.88858 0.0
C1499 C 0.46896 0.01736 0.90844 0.0
H1500 H 0.25385 0.1126 0.07596 0.0
H1501 H 0.26097 0.18622 0.04838 0.0
H1502 H 0.25715 0.12876 0.11644 0.0
H1503 H 0.26385 0.20222 0.08866 0.0
H1504 H 0.23614 0.2235 0.16151 0.0
H1505 H 0.23233 0.20262 0.12343 0.0
H1506 H 0.29042 0.15422 0.14248 0.0
H1507 H 0.2945 0.1757 0.18082 0.0
C1508 C 0.25625 0.13218 0.07853 0.0
C1509 C 0.25716 0.14816 0.05897 0.0
C1510 C 0.25819 0.14136 0.10166 0.0
C1511 C 0.26061 0.16671 0.10562 0.0
C1512 C 0.2618 0.1826 0.08608 0.0
C1513 C 0.26027 0.17342 0.06302 0.0
C1514 C 0.2478 0.20811 0.15771 0.0
C1515 C 0.26558 0.2011 0.17394 0.0
C1516 C 0.24572 0.19629 0.13591 0.0
C1517 C 0.26125 0.17702 0.12994 0.0
C1518 C 0.27824 0.16905 0.14671 0.0
C1519 C 0.28059 0.18125 0.16854 0.0
H1520 H 0.19419 0.06754 0.00939 0.0
H1521 H 0.16567 0.12907 0.97087 0.0
H1522 H 0.15464 0.0477 0.00887 0.0
H1523 H 0.12564 0.10935 0.97051 0.0
H1524 H 0.0736 0.04335 0.94628 0.0
H1525 H 0.10849 0.07115 0.95039 0.0
H1526 H 0.11328 0.05271 0.02458 0.0
H1527 H 0.07827 0.02562 0.02047 0.0
C1528 C 0.17933 0.07674 0.00079 0.0
C1529 C 0.18295 0.09921 0.9893 0.0
C1530 C 0.15665 0.06561 0.00078 0.0
C1531 C 0.13711 0.07693 0.98947 0.0
C1532 C 0.1405 0.10009 0.979 0.0
C1533 C 0.16326 0.11134 0.97922 0.0
C1534 C 0.08189 0.04584 0.96348 0.0
C1535 C 0.07347 0.03266 0.9831 0.0
C1536 C 0.10177 0.06163 0.96587 0.0
C1537 C 0.11376 0.06378 0.98774 0.0
C1538 C 0.10454 0.05124 0.0075 0.0
C1539 C 0.08449 0.0359 0.0052 0.0
H1540 H 0.69295 0.44354 0.96887 0.0
H1541 H 0.67294 0.37873 0.00878 0.0
H1542 H 0.65451 0.46192 0.97819 0.0
H1543 H 0.63392 0.39713 0.01754 0.0
H1544 H 0.57932 0.44692 0.05133 0.0
H1545 H 0.61912 0.43127 0.04177 0.0
H1546 H 0.61171 0.45789 0.97015 0.0
H1547 H 0.57202 0.474 0.97981 0.0
C1548 C 0.68025 0.43301 0.9794 0.0
C1549 C 0.68616 0.40964 0.98824 0.0
C1550 C 0.65814 0.44361 0.98466 0.0
C1551 C 0.64133 0.4311 -0.00122 0.0
C1552 C 0.6468 0.40741 0.00701 0.0
C1553 C 0.66904 0.39678 0.00183 0.0
C1554 C 0.58634 0.44981 0.03365 0.0
C1555 C 0.57244 0.46143 0.01624 0.0
C1556 C 0.60901 0.4406 0.02812 0.0
C1557 C 0.61823 0.44281 0.00508 0.0
C1558 C 0.60502 0.45586 0.98807 0.0
C1559 C 0.58233 0.46517 0.99362 0.0
H1560 H 0.87839 0.40955 0.27302 0.0
H1561 H 0.82235 0.44438 0.23261 0.0
H1562 H 0.85541 0.3707 0.27221 0.0
H1563 H 0.79906 0.40661 0.23261 0.0
H1564 H 0.76859 0.33441 0.2185 0.0
H1565 H 0.79907 0.36658 0.21626 0.0
H1566 H 0.81759 0.35399 0.28958 0.0
H1567 H 0.78752 0.32052 0.29124 0.0
C1568 C 0.86115 0.40879 0.26406 0.0
C1569 C 0.85152 0.42988 0.25363 0.0
C1570 C 0.848 0.38675 0.26368 0.0
C1571 C 0.82541 0.38564 0.25244 0.0
C1572 C 0.81654 0.40667 0.24113 0.0
C1573 C 0.82964 0.42844 0.24145 0.0
C1574 C 0.77942 0.33841 0.23402 0.0
C1575 C 0.77566 0.3256 0.25514 0.0
C1576 C 0.79679 0.3568 0.23279 0.0
C1577 C 0.81034 0.36316 0.25289 0.0
C1578 C 0.80741 0.34942 0.27381 0.0
C1579 C 0.79016 0.33053 0.27488 0.0
H1580 H 0.79698 0.57038 0.52197 0.0
H1581 H 0.82158 0.5955 0.45372 0.0
H1582 H 0.83618 0.55233 0.52953 0.0
H1583 H 0.86177 0.57839 0.46165 0.0
H1584 H 0.92207 0.51996 0.4797 0.0
H1585 H 0.88406 0.53927 0.46759 0.0
H1586 H 0.87533 0.56803 0.53843 0.0
H1587 H 0.91211 0.54817 0.55053 0.0
C1588 C 0.81109 0.57233 0.50879 0.0
C1589 C 0.80671 0.58458 0.48756 0.0
C1590 C 0.83353 0.5621 0.51307 0.0
C1591 C 0.85226 0.56436 0.49637 0.0
C1592 C 0.84769 0.57634 0.47481 0.0
C1593 C 0.82491 0.58628 0.47036 0.0
C1594 C 0.91194 0.53052 0.49252 0.0
C1595 C 0.91965 0.53213 0.51616 0.0
C1596 C 0.89031 0.54163 0.48561 0.0
C1597 C 0.87642 0.55467 0.50223 0.0
C1598 C 0.88514 0.55742 0.5254 0.0
C1599 C 0.90629 0.54609 0.53233 0.0
H1600 H 0.17814 0.03816 0.23421 0.0
H1601 H 0.11783 0.07763 0.26332 0.0
H1602 H 0.20139 0.0766 0.23163 0.0
H1603 H 0.14069 0.11613 0.25992 0.0
H1604 H 0.22317 0.16503 0.22501 0.0
H1605 H 0.19729 0.12947 0.21416 0.0
H1606 H 0.18281 0.11661 0.28808 0.0
H1607 H 0.20909 0.15021 0.29895 0.0
C1608 C 0.16993 0.0551 0.24003 0.0
C1609 C 0.14686 0.05497 0.25034 0.0
C1610 C 0.18291 0.07707 0.23785 0.0
C1611 C 0.17267 0.09915 0.2455 0.0
C1612 C 0.14882 0.09922 0.25385 0.0
C1613 C 0.13594 0.07727 0.25614 0.0
C1614 C 0.21451 0.15433 0.23881 0.0
C1615 C 0.2182 0.1602 0.26281 0.0
C1616 C 0.19983 0.13416 0.23263 0.0
C1617 C 0.18822 0.1205 0.25045 0.0
C1618 C 0.19174 0.12677 0.27417 0.0
C1619 C 0.20681 0.14606 0.28032 0.0
H1620 H 0.30468 0.9195 0.51136 0.0
H1621 H 0.32694 0.86341 0.4621 0.0
H1622 H 0.34456 0.9387 0.50882 0.0
H1623 H 0.36708 0.8831 0.45915 0.0
H1624 H 0.40814 0.96876 0.44747 0.0
H1625 H 0.37591 0.93758 0.44623 0.0
H1626 H 0.39277 0.91635 0.51777 0.0
H1627 H 0.42607 0.9462 0.51844 0.0
C1628 C 0.3182 0.91138 0.49996 0.0
C1629 C 0.31288 0.89043 0.48651 0.0
C1630 C 0.34093 0.92219 0.49866 0.0
C1631 C 0.35864 0.91218 0.48388 0.0
C1632 C 0.35354 0.89095 0.47066 0.0
C1633 C 0.33079 0.87981 0.47233 0.0
C1634 C 0.40539 0.95677 0.46253 0.0
C1635 C 0.41925 0.95966 0.48307 0.0
C1636 C 0.38706 0.93907 0.46184 0.0
C1637 C 0.3819 0.92498 0.48198 0.0
C1638 C 0.39668 0.92698 0.50201 0.0
C1639 C 0.41552 0.94402 0.50241 0.0
H1640 H 0.83738 0.57086 0.28671 0.0
H1641 H 0.83603 0.5485 0.2135 0.0
H1642 H 0.81551 0.60825 0.27665 0.0
H1643 H 0.81268 0.5847 0.20347 0.0
H1644 H 0.79734 0.66568 0.19047 0.0
H1645 H 0.81576 0.62671 0.19891 0.0
H1646 H 0.77716 0.62298 0.2654 0.0
H1647 H 0.75964 0.66311 0.25746 0.0
C1648 C 0.83255 0.57422 0.26842 0.0
C1649 C 0.83879 0.55739 0.2507 0.0
C1650 C 0.81962 0.59528 0.2627 0.0
C1651 C 0.81207 0.59943 0.23926 0.0
C1652 C 0.81853 0.58242 0.2216 0.0
C1653 C 0.83201 0.56176 0.22725 0.0
C1654 C 0.79241 0.65642 0.20675 0.0
C1655 C 0.77737 0.66773 0.22349 0.0
C1656 C 0.80294 0.63389 0.21156 0.0
C1657 C 0.79836 0.62184 0.23306 0.0
C1658 C 0.78164 0.63213 0.24895 0.0
C1659 C 0.77126 0.65493 0.24424 0.0
H1660 H 0.63947 0.42119 0.72666 0.0
H1661 H 0.66859 0.42768 0.79722 0.0
H1662 H 0.65355 0.37897 0.72449 0.0
H1663 H 0.68161 0.38512 0.79568 0.0
H1664 H 0.73589 0.32844 0.76459 0.0
H1665 H 0.71283 0.36401 0.77696 0.0
H1666 H 0.65178 0.33755 0.73641 0.0
H1667 H 0.67564 0.30251 0.72328 0.0
C1668 C 0.64838 0.41336 0.74191 0.0
C1669 C 0.65327 0.42781 0.76193 0.0
C1670 C 0.65629 0.38905 0.74081 0.0
C1671 C 0.66888 0.37851 0.7599 0.0
C1672 C 0.67246 0.39268 0.78045 0.0
C1673 C 0.66496 0.41708 0.78135 0.0
C1674 C 0.71716 0.32972 0.75928 0.0
C1675 C 0.70737 0.3128 0.74322 0.0
C1676 C 0.70388 0.3502 0.76625 0.0
C1677 C 0.68052 0.35405 0.75726 0.0
C1678 C 0.66991 0.33555 0.74318 0.0
C1679 C 0.68335 0.31523 0.73601 0.0
H1680 H 0.96884 0.83274 0.87415 0.0
H1681 H 0.01051 0.80076 0.93039 0.0
H1682 H 0.96459 0.87067 0.89749 0.0
H1683 H 0.0071 0.83827 0.9533 0.0
H1684 H -0.00511 0.89792 -0.00161 0.0
H1685 H 0.9801 0.863 0.97558 0.0
H1686 H 0.98949 0.90455 0.91105 0.0
H1687 H 0.0033 0.93977 0.93426 0.0
C1688 C 0.977 0.83392 0.89153 0.0
C1689 C 0.98936 0.81379 0.90093 0.0
C1690 C 0.97456 0.8555 0.90488 0.0
C1691 C 0.98492 0.85734 0.92758 0.0
C1692 C -0.00199 0.83728 0.93637 0.0
C1693 C 0.00021 0.81582 0.92318 0.0
C1694 C -0.00756 0.89994 0.97946 0.0
C1695 C 0.00037 0.92122 0.96792 0.0
C1696 C 0.98427 0.87986 0.96631 0.0
C1697 C 0.98457 0.88061 0.94139 0.0
C1698 C 0.98926 0.9032 0.93017 0.0
C1699 C -0.00289 0.92344 0.94343 0.0
H1700 H 0.94853 0.26358 0.67896 0.0
H1701 H 0.90048 0.21822 0.63706 0.0
H1702 H 0.91738 0.26687 0.70963 0.0
H1703 H 0.86992 0.22115 0.66771 0.0
H1704 H 0.82152 0.21839 0.72729 0.0
H1705 H 0.862 0.21038 0.71237 0.0
H1706 H 0.87468 0.28829 0.7052 0.0
H1707 H 0.83407 0.29633 0.71991 0.0
C1708 C 0.93151 0.25405 0.67644 0.0
C1709 C 0.92684 0.24087 0.65547 0.0
C1710 C 0.91382 0.25585 0.69402 0.0
C1711 C 0.89147 0.24402 0.69109 0.0
C1712 C 0.8872 0.23007 0.67058 0.0
C1713 C 0.90461 0.22867 0.65289 0.0
C1714 C 0.83331 0.23382 0.72352 0.0
C1715 C 0.82458 0.25794 0.72427 0.0
C1716 C 0.85642 0.22922 0.71491 0.0
C1717 C 0.87118 0.24873 0.70732 0.0
C1718 C 0.86359 0.27296 0.71095 0.0
C1719 C 0.84032 0.27755 0.7192 0.0
H1720 H 0.50199 0.15923 0.36289 0.0
H1721 H 0.51417 0.19158 0.43173 0.0
H1722 H 0.50319 0.11832 0.38056 0.0
H1723 H 0.51465 0.15103 0.44941 0.0
H1724 H 0.51477 0.07755 0.48018 0.0
H1725 H 0.53117 0.11063 0.45531 0.0
H1726 H 0.47394 0.0979 0.40473 0.0
H1727 H 0.45815 0.06503 0.42935 0.0
C1728 C 0.50526 0.15761 0.38172 0.0
C1729 C 0.50753 0.17867 0.39596 0.0
C1730 C 0.50593 0.13417 0.39186 0.0
C1731 C 0.50874 0.1313 0.41648 0.0
C1732 C 0.51271 0.15239 0.43039 0.0
C1733 C 0.51215 0.17575 0.42025 0.0
C1734 C 0.5065 0.08122 0.4632 0.0
C1735 C 0.4853 0.06888 0.45652 0.0
C1736 C 0.51564 0.10032 0.44909 0.0
C1737 C 0.50364 0.10728 0.42816 0.0
C1738 C 0.48382 0.09309 0.42055 0.0
C1739 C 0.47468 0.07423 0.43467 0.0
H1740 H 0.54996 0.74716 0.18334 0.0
H1741 H 0.58125 0.74424 0.11327 0.0
H1742 H 0.58906 0.7383 0.20055 0.0
H1743 H 0.62083 0.73572 0.13081 0.0
H1744 H 0.68737 0.75104 0.18559 0.0
H1745 H 0.65184 0.75716 0.16088 0.0
H1746 H 0.61508 0.69842 0.19767 0.0
H1747 H 0.65051 0.69222 0.22243 0.0
C1748 C 0.56529 0.7451 0.17162 0.0
C1749 C 0.56256 0.74617 0.14695 0.0
C1750 C 0.58759 0.73974 0.18147 0.0
C1751 C 0.60768 0.73573 0.16691 0.0
C1752 C 0.60543 0.73843 0.14231 0.0
C1753 C 0.5829 0.74339 0.13235 0.0
C1754 C 0.67206 0.73881 0.18782 0.0
C1755 C 0.67158 0.72136 0.20615 0.0
C1756 C 0.65172 0.74241 0.17373 0.0
C1757 C 0.6307 0.7286 0.17782 0.0
C1758 C 0.63102 0.7096 0.19457 0.0
C1759 C 0.6513 0.70599 0.20863 0.0
H1760 H 0.98032 0.155 0.62836 0.0
H1761 H 0.00624 0.19474 0.56726 0.0
H1762 H 0.9872 0.1159 0.60731 0.0
H1763 H 0.01294 0.15643 0.54653 0.0
H1764 H 0.98984 0.09078 0.50607 0.0
H1765 H 0.9823 0.12517 0.53207 0.0
H1766 H 0.02411 0.09094 0.58718 0.0
H1767 H 0.03139 0.05548 0.56074 0.0
C1768 C 0.98729 0.15527 0.61045 0.0
C1769 C -0.0082 0.17762 0.5989 0.0
C1770 C 0.99142 0.1331 0.59859 0.0
C1771 C 0.00029 0.13336 0.57531 0.0
C1772 C 0.00566 0.15581 0.56433 0.0
C1773 C 0.00157 0.17769 0.57606 0.0
C1774 C -0.00241 0.09063 0.52369 0.0
C1775 C 0.01184 0.07109 0.53132 0.0
C1776 C -0.00695 0.11016 0.5386 0.0
C1777 C 0.00285 0.11074 0.56141 0.0
C1778 C 0.01636 0.09073 0.56959 0.0
C1779 C 0.02073 0.07075 0.55454 0.0
H1780 H 0.55774 0.2743 0.30219 0.0
H1781 H 0.57121 0.23009 0.3643 0.0
H1782 H 0.59684 0.26351 0.28657 0.0
H1783 H 0.6112 0.21967 0.3484 0.0
H1784 H 0.68594 0.26222 0.31321 0.0
H1785 H 0.65009 0.25093 0.33608 0.0
H1786 H 0.61758 0.22061 0.27306 0.0
H1787 H 0.65338 0.23194 0.25031 0.0
C1788 C 0.56899 0.26228 0.3126 0.0
C1789 C 0.56117 0.25307 0.33455 0.0
C1790 C 0.59135 0.25585 0.30345 0.0
C1791 C 0.6067 0.24022 0.316 0.0
C1792 C 0.59943 0.23142 0.33826 0.0
C1793 C 0.57669 0.23761 0.34738 0.0
C1794 C 0.6718 0.25162 0.30467 0.0
C1795 C 0.67212 0.24815 0.28006 0.0
C1796 C 0.65125 0.24522 0.31774 0.0
C1797 C 0.63093 0.23556 0.30612 0.0
C1798 C 0.633 0.22828 0.28232 0.0
C1799 C 0.65353 0.23461 0.26933 0.0
H1800 H 0.50998 0.79163 0.05204 0.0
H1801 H 0.47321 0.82418 0.1115 0.0
H1802 H 0.51424 0.83196 0.03357 0.0
H1803 H 0.47789 0.86477 0.09331 0.0
H1804 H 0.50152 0.93555 0.06154 0.0
H1805 H 0.51073 0.89554 0.07865 0.0
H1806 H 0.47909 0.85986 0.01764 0.0
H1807 H 0.46971 0.90021 0.00058 0.0
C1808 C 0.50275 0.80747 0.06104 0.0
C1809 C 0.49048 0.80499 0.08263 0.0
C1810 C 0.50545 0.83046 0.05065 0.0
C1811 C 0.49614 0.85122 0.06194 0.0
C1812 C 0.48531 0.84892 0.08436 0.0
C1813 C 0.4825 0.82585 0.09469 0.0
C1814 C 0.49694 0.91906 0.0517 0.0
C1815 C 0.48458 0.92052 0.03014 0.0
C1816 C 0.50223 0.89634 0.0614 0.0
C1817 C 0.49532 0.87484 0.04954 0.0
C1818 C 0.4846 0.87633 0.02702 0.0
C1819 C 0.47909 0.89921 0.01736 0.0
H1820 H 0.95337 0.74227 0.81228 0.0
H1821 H 0.90133 0.75627 0.86768 0.0
H1822 H 0.9209 0.74316 0.78288 0.0
H1823 H 0.86938 0.75769 0.83832 0.0
H1824 H 0.8182 0.77621 0.78169 0.0
H1825 H 0.85697 0.78434 0.80103 0.0
H1826 H 0.8827 0.71365 0.77793 0.0
H1827 H 0.84375 0.70526 0.75928 0.0
C1828 C 0.93512 0.74567 0.8182 0.0
C1829 C 0.93 0.74912 0.84239 0.0
C1830 C 0.91662 0.74632 0.80134 0.0
C1831 C 0.89278 0.75095 0.80832 0.0
C1832 C 0.88771 0.75464 0.83241 0.0
C1833 C 0.90602 0.75352 0.84925 0.0
C1834 C 0.83254 0.76293 0.77983 0.0
C1835 C 0.82808 0.74006 0.76917 0.0
C1836 C 0.8546 0.76748 0.79107 0.0
C1837 C 0.8726 0.74943 0.79124 0.0
C1838 C 0.86912 0.72785 0.77804 0.0
C1839 C 0.84689 0.72306 0.76733 0.0
H1840 H 0.87431 -0.0012 0.84093 0.0
H1841 H 0.93682 -0.00664 0.79533 0.0
H1842 H 0.90013 -0.00301 0.87534 0.0
H1843 H 0.96288 -0.00827 0.83048 0.0
H1844 H 0.988 0.02495 0.90989 0.0
H1845 H 0.97205 0.02193 0.86929 0.0
H1846 H 0.92722 0.96067 0.89055 0.0
H1847 H 0.9427 0.96404 0.93084 0.0
C1848 C 0.89358 -0.00262 0.83816 0.0
C1849 C 0.90341 -0.00403 0.81527 0.0
C1850 C 0.90835 -0.00382 0.85795 0.0
C1851 C 0.93337 -0.00628 0.85548 0.0
C1852 C 0.94357 -0.00659 0.83273 0.0
C1853 C 0.92865 -0.00563 0.81271 0.0
C1854 C 0.97538 0.01038 0.90551 0.0
C1855 C 0.96615 -0.00503 0.92327 0.0
C1856 C 0.96632 0.00861 0.88239 0.0
C1857 C 0.94811 -0.00861 0.87708 0.0
C1858 C 0.94099 0.97434 0.89438 0.0
C1859 C 0.94981 0.97624 0.91734 0.0
H1860 H 0.76752 0.17635 0.55203 0.0
H1861 H 0.72939 0.11203 0.57727 0.0
H1862 H 0.76241 0.19583 0.59039 0.0
H1863 H 0.72429 0.13184 0.61606 0.0
H1864 H 0.74671 0.17849 0.68721 0.0
H1865 H 0.74962 0.15183 0.65219 0.0
H1866 H 0.72218 0.21037 0.60871 0.0
H1867 H 0.71939 0.23684 0.64328 0.0
C1868 C 0.75834 0.1662 0.56588 0.0
C1869 C 0.74851 0.14282 0.56152 0.0
C1870 C 0.75532 0.17743 0.58781 0.0
C1871 C 0.74244 0.16554 0.60592 0.0
C1872 C 0.73412 0.14141 0.60227 0.0
C1873 C 0.73709 0.13012 0.58014 0.0
C1874 C 0.74068 0.18535 0.67026 0.0
C1875 C 0.73321 0.20985 0.66785 0.0
C1876 C 0.74242 0.17014 0.65027 0.0
C1877 C 0.7367 0.17933 0.62776 0.0
C1878 C 0.72726 0.20307 0.62581 0.0
C1879 C 0.72558 0.21818 0.64561 0.0
H1880 H 0.57122 0.02939 0.31248 0.0
H1881 H 0.59925 0.95636 0.32124 0.0
H1882 H 0.54484 0.02338 0.34706 0.0
H1883 H 0.57208 0.94962 0.35458 0.0
H1884 H 0.56029 0.96261 0.43131 0.0
H1885 H 0.57741 0.96834 0.39281 0.0
H1886 H 0.5109 0.00025 0.36815 0.0
H1887 H 0.4935 -0.00479 0.40825 0.0
C1888 C 0.57129 0.01193 0.32164 0.0
C1889 C 0.58749 -0.0065 0.31498 0.0
C1890 C 0.55606 0.00838 0.34112 0.0
C1891 C 0.55675 0.9862 0.35372 0.0
C1892 C 0.57163 0.96713 0.34555 0.0
C1893 C 0.58719 0.97092 0.3266 0.0
C1894 C 0.54895 0.97045 0.41771 0.0
C1895 C 0.52524 0.97769 0.42256 0.0
C1896 C 0.55883 0.97369 0.39552 0.0
C1897 C 0.54523 0.98387 0.3772 0.0
C1898 C 0.52163 -0.00802 0.38197 0.0
C1899 C 0.51167 0.98903 0.40472 0.0
H1900 H 0.73026 0.87653 0.08077 0.0
H1901 H 0.73881 0.80363 0.05206 0.0
H1902 H 0.72517 0.85918 0.12039 0.0
H1903 H 0.73494 0.78636 0.09143 0.0
H1904 H 0.72517 0.75484 0.15989 0.0
H1905 H 0.7112 0.77717 0.12512 0.0
H1906 H 0.75125 0.84122 0.14841 0.0
H1907 H 0.76418 0.81902 0.18337 0.0
C1908 C 0.73096 0.8568 0.08295 0.0
C1909 C 0.73505 0.84142 0.0634 0.0
C1910 C 0.72804 0.84684 0.10562 0.0
C1911 C 0.72955 0.82132 0.10922 0.0
C1912 C 0.73299 0.80601 0.08941 0.0
C1913 C 0.7355 0.81593 0.06678 0.0
C1914 C 0.72966 0.77415 0.1582 0.0
C1915 C 0.74555 0.78537 0.17421 0.0
C1916 C 0.72212 0.78683 0.13806 0.0
C1917 C 0.73074 0.81077 0.13351 0.0
C1918 C 0.74421 0.82286 0.15119 0.0
C1919 C 0.75159 0.8102 0.17135 0.0
H1920 H 0.9402 0.0038 0.68975 0.0
H1921 H 0.86783 -0.00206 0.66207 0.0
H1922 H 0.95595 0.00757 0.64985 0.0
H1923 H 0.88355 0.00258 0.62188 0.0
H1924 H 0.92872 0.96269 0.56262 0.0
H1925 H 0.90542 0.97572 0.5967 0.0
H1926 H 0.96038 0.02971 0.61352 0.0
H1927 H 0.98397 0.01594 0.57934 0.0
C1928 C 0.92759 0.00378 0.67512 0.0
C1929 C 0.90282 0.00017 0.67902 0.0
C1930 C 0.9366 0.0063 0.65218 0.0
C1931 C 0.92104 0.00545 0.63254 0.0
C1932 C 0.89608 0.00306 0.63656 0.0
C1933 C 0.88707 0.00035 0.65957 0.0
C1934 C 0.93519 0.97817 0.57297 0.0
C1935 C 0.95801 0.98834 0.56853 0.0
C1936 C 0.92186 0.98566 0.59259 0.0
C1937 C 0.93129 0.00336 0.60826 0.0
C1938 C 0.95288 0.01562 0.60209 0.0
C1939 C 0.96623 0.00807 0.58235 0.0
H1940 H 0.70957 0.16931 0.43549 0.0
H1941 H 0.77934 0.14186 0.41529 0.0
H1942 H 0.71164 0.19976 0.40351 0.0
H1943 H 0.78166 0.17203 0.3835 0.0
H1944 H 0.78848 0.23006 0.33283 0.0
H1945 H 0.78447 0.21547 0.37356 0.0
H1946 H 0.71003 0.19602 0.35999 0.0
H1947 H 0.71392 0.21178 0.31971 0.0
C1948 C 0.72546 0.17016 0.42434 0.0
C1949 C 0.74427 0.15343 0.42746 0.0
C1950 C 0.72666 0.18747 0.40613 0.0
C1951 C 0.74687 0.18841 0.39111 0.0
C1952 C 0.76604 0.17211 0.39502 0.0
C1953 C 0.76467 0.15466 0.41297 0.0
C1954 C 0.77105 0.22366 0.33903 0.0
C1955 C 0.75151 0.22191 0.32346 0.0
C1956 C 0.76877 0.21513 0.36217 0.0
C1957 C 0.74712 0.20408 0.36974 0.0
C1958 C 0.7269 0.20456 0.35474 0.0
C1959 C 0.72908 0.21356 0.33171 0.0
H1960 H 0.55752 0.97454 0.19218 0.0
H1961 H 0.62157 0.01009 0.16456 0.0
H1962 H 0.53733 0.98065 0.15454 0.0
H1963 H 0.60107 0.01634 0.12667 0.0
H1964 H 0.55414 -0.00156 0.05719 0.0
H1965 H 0.58029 -0.00651 0.09168 0.0
H1966 H 0.52369 0.02105 0.13682 0.0
H1967 H 0.49752 0.02573 0.10262 0.0
C1968 C 0.56742 0.98332 0.17794 0.0
C1969 C 0.59094 -0.00774 0.18139 0.0
C1970 C 0.5558 0.98697 0.15648 0.0
C1971 C 0.56748 -0.00039 0.13808 0.0
C1972 C 0.59168 0.00677 0.14076 0.0
C1973 C 0.60337 0.00313 0.16236 0.0
C1974 C 0.54758 0.00413 0.0744 0.0
C1975 C 0.52372 0.01216 0.07736 0.0
C1976 C 0.5625 0.00117 0.09408 0.0
C1977 C 0.55368 0.00629 0.11683 0.0
C1978 C 0.53061 0.01636 0.11946 0.0
C1979 C 0.51573 0.01922 0.0999 0.0
H1980 H 0.75623 0.81406 0.94223 0.0
H1981 H 0.72156 0.875 0.90774 0.0
H1982 H 0.74978 0.78889 0.90708 0.0
H1983 H 0.71426 0.84957 0.87284 0.0
H1984 H 0.73702 0.80518 0.80537 0.0
H1985 H 0.73581 0.83154 0.84044 0.0
H1986 H 0.72016 0.7682 0.88397 0.0
H1987 H 0.7221 0.742 0.84915 0.0
C1988 C 0.74693 0.82197 0.92725 0.0
C1989 C 0.73961 0.84658 0.92771 0.0
C1990 C 0.74305 0.8075 0.9071 0.0
C1991 C 0.73142 0.81715 0.88703 0.0
C1992 C 0.72361 0.84163 0.88776 0.0
C1993 C 0.72776 0.85619 0.9078 0.0
C1994 C 0.73272 0.79705 0.82236 0.0
C1995 C 0.72999 0.77152 0.82456 0.0
C1996 C 0.73207 0.81212 0.84252 0.0
C1997 C 0.72847 0.80193 0.86519 0.0
C1998 C 0.72374 0.77662 0.86696 0.0
C1999 C 0.72461 0.76161 0.84693 0.0
H2000 H 0.79622 0.92833 0.01562 0.0
H2001 H 0.82911 0.86757 0.97927 0.0
H2002 H 0.83554 0.94793 0.02027 0.0
H2003 H 0.86894 0.88623 0.9852 0.0
H2004 H 0.93396 0.94011 0.98069 0.0
H2005 H 0.8958 0.9184 0.97455 0.0
H2006 H 0.87074 0.94394 0.04273 0.0
H2007 H 0.90837 0.96655 0.04814 0.0
C2008 C 0.81194 0.91939 0.00828 0.0
C2009 C 0.80964 0.89693 -0.00366 0.0
C2010 C 0.83458 0.93031 0.0114 0.0
C2011 C 0.85563 0.91857 0.00337 0.0
C2012 C 0.85321 0.89599 0.99139 0.0
C2013 C 0.83045 0.88522 0.98805 0.0
C2014 C 0.92054 0.94043 -0.00536 0.0
C2015 C 0.92416 0.95488 0.01497 0.0
C2016 C 0.89855 0.92812 0.99107 0.0
C2017 C 0.87988 0.92973 0.00793 0.0
C2018 C 0.88432 0.94284 0.029 0.0
C2019 C 0.90608 0.95544 0.03236 0.0
H2020 H 0.29259 0.55463 0.01255 0.0
H2021 H 0.32604 0.61114 0.97012 0.0
H2022 H 0.33152 0.53461 0.01747 0.0
H2023 H 0.36533 0.59129 0.97527 0.0
H2024 H 0.43435 0.55603 0.00126 0.0
H2025 H 0.39645 0.5781 0.00667 0.0
H2026 H 0.35689 0.51303 0.98554 0.0
H2027 H 0.395 0.49118 0.97972 0.0
C2028 C 0.30839 0.56276 0.0044 0.0
C2029 C 0.3065 0.58395 0.99051 0.0
C2030 C 0.33059 0.55143 0.00732 0.0
C2031 C 0.35125 0.56126 -0.0035 0.0
C2032 C 0.3496 0.58343 0.98386 0.0
C2033 C 0.32727 0.59473 0.98084 0.0
C2034 C 0.41744 0.54638 -0.00162 0.0
C2035 C 0.41723 0.52201 0.99032 0.0
C2036 C 0.39589 0.559 0.00129 0.0
C2037 C 0.37388 0.54725 -0.00355 0.0
C2038 C 0.3737 0.52239 0.98956 0.0
C2039 C 0.39533 0.50989 0.98623 0.0
H2040 H 0.11237 0.58647 0.76394 0.0
H2041 H 0.17387 0.54776 0.73644 0.0
H2042 H 0.13276 0.62568 0.75588 0.0
H2043 H 0.19524 0.58603 0.7308 0.0
H2044 H 0.22513 0.65395 0.70413 0.0
H2045 H 0.19699 0.61948 0.70624 0.0
H2046 H 0.16397 0.6518 0.7683 0.0
H2047 H 0.19073 0.68721 0.76461 0.0
C2048 C 0.13049 0.58645 0.75675 0.0
C2049 C 0.14208 0.5643 0.75169 0.0
C2050 C 0.1422 0.60878 0.75219 0.0
C2051 C 0.16562 0.6091 0.74249 0.0
C2052 C 0.17701 0.5867 0.73765 0.0
C2053 C 0.1651 0.56463 0.7416 0.0
C2054 C 0.21128 0.65391 0.71767 0.0
C2055 C 0.20999 0.67294 0.73425 0.0
C2056 C 0.19539 0.63407 0.71918 0.0
C2057 C 0.17871 0.63244 0.73795 0.0
C2058 C 0.17645 0.65242 0.75357 0.0
C2059 C 0.1918 0.67269 0.75151 0.0
H2060 H 0.18191 0.43322 0.46471 0.0
H2061 H 0.17616 0.38574 0.52574 0.0
H2062 H 0.14239 0.45 0.47358 0.0
H2063 H 0.13627 0.40269 0.53451 0.0
H2064 H 0.0546 0.41803 0.50206 0.0
H2065 H 0.09487 0.40219 0.51028 0.0
H2066 H 0.12357 0.47604 0.50831 0.0
H2067 H 0.08322 0.49182 0.50067 0.0
C2068 C 0.17226 0.42643 0.48007 0.0
C2069 C 0.18221 0.40821 0.49454 0.0
C2070 C 0.14975 0.43622 0.48529 0.0
C2071 C 0.13666 0.42806 0.50509 0.0
C2072 C 0.14621 0.40943 0.51931 0.0
C2073 C 0.16888 0.39962 0.51413 0.0
C2074 C 0.06931 0.43091 0.50488 0.0
C2075 C 0.06604 0.45603 0.50068 0.0
C2076 C 0.09234 0.42187 0.50942 0.0
C2077 C 0.11227 0.4379 0.50928 0.0
C2078 C 0.10843 0.46334 0.50824 0.0
C2079 C 0.08534 0.4724 0.50417 0.0
H2080 H 0.87206 0.9072 0.76812 0.0
H2081 H 0.817 0.94735 0.73122 0.0
H2082 H 0.84859 0.86899 0.76277 0.0
H2083 H 0.79321 0.91002 0.72689 0.0
H2084 H 0.77389 0.83945 0.69243 0.0
H2085 H 0.79981 0.87411 0.70182 0.0
H2086 H 0.80877 0.84692 0.77301 0.0
H2087 H 0.78295 0.8114 0.76334 0.0
C2088 C 0.85473 0.90786 0.75934 0.0
C2089 C 0.84595 0.93017 0.75055 0.0
C2090 C 0.84129 0.88613 0.75639 0.0
C2091 C 0.81919 0.88649 0.74419 0.0
C2092 C 0.81035 0.90903 0.736 0.0
C2093 C 0.82377 0.9305 0.73879 0.0
C2094 C 0.78142 0.8407 0.71008 0.0
C2095 C 0.77599 0.82294 0.72728 0.0
C2096 C 0.79622 0.86065 0.71549 0.0
C2097 C 0.80581 0.86357 0.73833 0.0
C2098 C 0.8015 0.84518 0.7553 0.0
C2099 C 0.78671 0.82494 0.74978 0.0
H2100 H 0.69428 0.06106 0.50171 0.0
H2101 H 0.65962 0.12749 0.47884 0.0
H2102 H 0.65542 0.04105 0.50605 0.0
H2103 H 0.62009 0.10829 0.48545 0.0
H2104 H 0.55552 0.05347 0.47642 0.0
H2105 H 0.59222 0.07809 0.47177 0.0
H2106 H 0.62323 0.04154 0.53239 0.0
H2107 H 0.58721 0.016 0.53576 0.0
C2108 C 0.67821 0.07119 0.49719 0.0
C2109 C 0.6798 0.09535 0.48897 0.0
C2110 C 0.65587 0.06001 0.50035 0.0
C2111 C 0.63454 0.07321 0.49654 0.0
C2112 C 0.63615 0.09754 0.48835 0.0
C2113 C 0.65867 0.10856 0.48463 0.0
C2114 C 0.56998 0.0514 0.48912 0.0
C2115 C 0.56875 0.0331 0.50651 0.0
C2116 C 0.59103 0.06536 0.48643 0.0
C2117 C 0.6109 0.06137 0.50135 0.0
C2118 C 0.6086 0.04449 0.52006 0.0
C2119 C 0.58787 0.03018 0.52234 0.0
H2120 H 0.12418 0.4191 0.76656 0.0
H2121 H 0.1913 0.4494 0.7408 0.0
H2122 H 0.14 0.37774 0.7614 0.0
H2123 H 0.20706 0.40817 0.73499 0.0
H2124 H 0.23369 0.33322 0.76704 0.0
H2125 H 0.2197 0.3755 0.76213 0.0
H2126 H 0.15297 0.34816 0.73209 0.0
H2127 H 0.16654 0.30624 0.73808 0.0
C2128 C 0.14223 0.41679 0.75958 0.0
C2129 C 0.15687 0.43718 0.75476 0.0
C2130 C 0.15123 0.39324 0.75639 0.0
C2131 C 0.17485 0.38983 0.74793 0.0
C2132 C 0.18901 0.41034 0.74201 0.0
C2133 C 0.18008 0.43388 0.74548 0.0
C2134 C 0.21616 0.33648 0.75927 0.0
C2135 C 0.20075 0.31688 0.75363 0.0
C2136 C 0.20823 0.36053 0.75623 0.0
C2137 C 0.18504 0.36498 0.74715 0.0
C2138 C 0.1706 0.34519 0.73976 0.0
C2139 C 0.1783 0.32131 0.74322 0.0
H2140 H 0.29935 0.55023 0.25229 0.0
H2141 H 0.37282 0.57232 0.23754 0.0
H2142 H 0.28542 0.59043 0.2409 0.0
H2143 H 0.3587 0.61326 0.22628 0.0
H2144 H 0.31746 0.68232 0.26282 0.0
H2145 H 0.34077 0.64678 0.2508 0.0
H2146 H 0.28061 0.62089 0.20893 0.0
H2147 H 0.25709 0.65613 0.22184 0.0
C2148 C 0.31256 0.56364 0.24646 0.0
C2149 C 0.33723 0.55811 0.24613 0.0
C2150 C 0.30452 0.58666 0.23948 0.0
C2151 C 0.32092 0.60501 0.2323 0.0
C2152 C 0.34562 0.59943 0.23151 0.0
C2153 C 0.35368 0.57608 0.23812 0.0
C2154 C 0.30984 0.66985 0.24981 0.0
C2155 C 0.28549 0.67165 0.24343 0.0
C2156 C 0.32317 0.64937 0.24296 0.0
C2157 C 0.31213 0.63055 0.22972 0.0
C2158 C 0.28932 0.63485 0.21969 0.0
C2159 C 0.27595 0.65523 0.22674 0.0
H2160 H 0.5176 0.69704 0.57294 0.0
H2161 H 0.46879 0.66026 0.62077 0.0
H2162 H 0.52545 0.65846 0.55272 0.0
H2163 H 0.47503 0.62166 0.59952 0.0
H2164 H 0.48821 0.55333 0.56179 0.0
H2165 H 0.49861 0.58801 0.58761 0.0
H2166 H 0.50486 0.63472 0.52598 0.0
H2167 H 0.49483 0.60023 0.50078 0.0
C2168 C 0.5084 0.68056 0.57894 0.0
C2169 C 0.4921 0.68152 0.59788 0.0
C2170 C 0.51288 0.65843 0.56739 0.0
C2171 C 0.5007 0.63683 0.5742 0.0
C2172 C 0.4851 0.63774 0.59394 0.0
C2173 C 0.48116 0.65986 0.60593 0.0
C2174 C 0.49296 0.57083 0.55391 0.0
C2175 C 0.4907 0.57437 0.52948 0.0
C2176 C 0.49848 0.5908 0.56865 0.0
C2177 C 0.50168 0.61447 0.55902 0.0
C2178 C 0.50232 0.61699 0.53423 0.0
C2179 C 0.49668 0.59717 0.51965 0.0
H2180 H 0.58006 0.24461 0.86911 0.0
H2181 H 0.54289 0.24474 0.80191 0.0
H2182 H 0.61854 0.23977 0.84822 0.0
H2183 H 0.58126 0.2403 0.78124 0.0
H2184 H 0.66368 0.25278 0.75774 0.0
H2185 H 0.625 0.26346 0.77624 0.0
H2186 H 0.63026 0.20033 0.82185 0.0
H2187 H 0.66789 0.18905 0.8032 0.0
C2188 C 0.58013 0.24387 0.84995 0.0
C2189 C 0.55848 0.24456 0.83715 0.0
C2190 C 0.60207 0.24119 0.83803 0.0
C2191 C 0.60267 0.2396 0.81317 0.0
C2192 C 0.5812 0.24162 0.80038 0.0
C2193 C 0.55928 0.24388 0.81226 0.0
C2194 C 0.65626 0.24085 0.77128 0.0
C2195 C 0.66901 0.22012 0.77902 0.0
C2196 C 0.63433 0.24714 0.78202 0.0
C2197 C 0.62518 0.23302 0.80085 0.0
C2198 C 0.63731 0.2118 0.80775 0.0
C2199 C 0.65876 0.20524 0.7968 0.0
H2200 H 0.97428 0.30446 0.05004 0.0
H2201 H -0.00562 0.32478 0.12144 0.0
H2202 H 0.97408 0.34722 0.0388 0.0
H2203 H -0.00588 0.36819 0.10991 0.0
H2204 H 0.03316 0.42616 0.05682 0.0
H2205 H 0.02103 0.39217 0.08222 0.0
H2206 H 0.95304 0.38719 0.0452 0.0
H2207 H 0.96543 0.42135 0.01976 0.0
C2208 C 0.9784 0.31807 0.06347 0.0
C2209 C 0.98443 0.31113 0.08665 0.0
C2210 C 0.97794 0.34268 0.05706 0.0
C2211 C 0.98353 0.3611 0.07362 0.0
C2212 C 0.98952 0.35432 0.09688 0.0
C2213 C 0.98991 0.32952 0.10337 0.0
C2214 C 0.01511 0.41861 0.05504 0.0
C2215 C 0.00022 0.426 0.03639 0.0
C2216 C 0.00814 0.39916 0.06957 0.0
C2217 C 0.98637 0.38667 0.06524 0.0
C2218 C 0.97009 0.39633 0.04863 0.0
C2219 C 0.97703 0.41598 0.03423 0.0
H2220 H 0.9249 0.78627 0.34201 0.0
H2221 H 0.91425 0.70885 0.35457 0.0
H2222 H 0.88683 0.78769 0.32015 0.0
H2223 H 0.87639 0.71 0.33199 0.0
H2224 H 0.83759 0.72447 0.25828 0.0
H2225 H 0.86978 0.72024 0.28713 0.0
H2226 H 0.83965 0.77946 0.32832 0.0
H2227 H 0.80661 0.78331 0.29931 0.0
C2228 C 0.91436 0.76958 0.33987 0.0
C2229 C 0.92225 0.74741 0.34957 0.0
C2230 C 0.89255 0.77045 0.32775 0.0
C2231 C 0.87866 0.74905 0.32484 0.0
C2232 C 0.88678 0.72676 0.33432 0.0
C2233 C 0.90838 0.72602 0.34691 0.0
C2234 C 0.83779 0.73652 0.27358 0.0
C2235 C 0.82023 0.75468 0.27642 0.0
C2236 C 0.85599 0.73388 0.29017 0.0
C2237 C 0.85715 0.74963 0.30971 0.0
C2238 C 0.83903 0.76725 0.31317 0.0
C2239 C 0.82034 0.76952 0.2967 0.0
H2240 H 0.46861 0.33064 0.86889 0.0
H2241 H 0.50831 0.29735 0.92587 0.0
H2242 H 0.46557 0.36889 0.89194 0.0
H2243 H 0.50605 0.33527 0.94847 0.0
H2244 H 0.46846 0.38686 -0.00433 0.0
H2245 H 0.47224 0.35352 0.96811 0.0
H2246 H 0.48865 0.40423 0.91173 0.0
H2247 H 0.48644 0.43838 0.94016 0.0
C2248 C 0.47678 0.33168 0.88627 0.0
C2249 C 0.48769 0.31099 0.89626 0.0
C2250 C 0.47523 0.35349 0.89931 0.0
C2251 C 0.48501 0.35479 0.92222 0.0
C2252 C 0.49763 0.33455 0.93119 0.0
C2253 C 0.49888 0.31284 0.91835 0.0
C2254 C 0.47245 0.39113 0.97735 0.0
C2255 C 0.47753 0.4152 0.97018 0.0
C2256 C 0.47444 0.3719 0.96146 0.0
C2257 C 0.4807 0.37614 0.93779 0.0
C2258 C 0.48377 0.40044 0.92993 0.0
C2259 C 0.48234 0.41993 0.94613 0.0
H2260 H 0.94177 0.24292 0.17772 0.0
H2261 H 0.89781 0.26207 0.11738 0.0
H2262 H 0.90625 0.24412 0.20297 0.0
H2263 H 0.86222 0.26329 0.14305 0.0
H2264 H 0.80931 0.26954 0.21428 0.0
H2265 H 0.84443 0.28316 0.19054 0.0
H2266 H 0.87051 0.20876 0.18897 0.0
H2267 H 0.83622 0.19519 0.21192 0.0
C2268 C 0.9247 0.24798 0.16991 0.0
C2269 C 0.92251 0.25176 0.14541 0.0
C2270 C 0.90445 0.24892 0.18445 0.0
C2271 C 0.88171 0.25387 0.17484 0.0
C2272 C 0.8797 0.25971 0.15079 0.0
C2273 C 0.89999 0.25862 0.13612 0.0
C2274 C 0.82255 0.25621 0.2087 0.0
C2275 C 0.82018 0.23138 0.21521 0.0
C2276 C 0.84252 0.26398 0.19525 0.0
C2277 C 0.86014 0.24695 0.18846 0.0
C2278 C 0.85734 0.22223 0.19449 0.0
C2279 C 0.83765 0.21453 0.20765 0.0
H2280 H 0.01962 0.67581 0.38352 0.0
H2281 H 0.96169 0.68222 0.43442 0.0
H2282 H 0.03017 0.6361 0.40017 0.0
H2283 H 0.97182 0.64232 0.45055 0.0
H2284 H 0.00912 0.58183 0.48981 0.0
H2285 H 0.00279 0.6228 0.47366 0.0
H2286 H 0.01547 0.59487 0.40311 0.0
H2287 H 0.02263 0.55439 0.41918 0.0
C2288 C 0.0089 0.66859 0.39799 0.0
C2289 C 0.98987 0.68222 0.40767 0.0
C2290 C 0.01497 0.64585 0.40757 0.0
C2291 C 0.00202 0.63619 0.42688 0.0
C2292 C 0.98255 0.64951 0.43608 0.0
C2293 C 0.97658 0.67228 0.42663 0.0
C2294 C 0.01097 0.58457 0.47091 0.0
C2295 C 0.01629 0.56482 0.45579 0.0
C2296 C 0.00712 0.60797 0.46163 0.0
C2297 C 0.00833 0.61201 0.43706 0.0
C2298 C 0.01464 0.59247 0.42212 0.0
C2299 C 0.0187 0.5692 0.43138 0.0
H2300 H 0.56279 0.71412 0.64636 0.0
H2301 H 0.55393 0.79076 0.6627 0.0
H2302 H 0.59861 0.71274 0.67117 0.0
H2303 H 0.59106 0.7904 0.68577 0.0
H2304 H 0.64604 0.78252 0.74222 0.0
H2305 H 0.60838 0.7799 0.72034 0.0
H2306 H 0.6379 0.72097 0.678 0.0
H2307 H 0.67466 0.72253 0.70137 0.0
C2308 C 0.56901 0.73087 0.65484 0.0
C2309 C 0.55569 0.75254 0.65269 0.0
C2310 C 0.58967 0.73017 0.66908 0.0
C2311 C 0.59799 0.75138 0.68102 0.0
C2312 C 0.58502 0.77337 0.67779 0.0
C2313 C 0.56388 0.77379 0.66422 0.0
C2314 C 0.64402 0.76842 0.72879 0.0
C2315 C 0.66314 0.75251 0.72375 0.0
C2316 C 0.62259 0.76725 0.71575 0.0
C2317 C 0.61993 0.75065 0.69671 0.0
C2318 C 0.6388 0.73391 0.69252 0.0
C2319 C 0.65999 0.73466 0.70605 0.0
H2320 H 0.55258 0.48796 0.6994 0.0
H2321 H 0.62278 0.49375 0.66654 0.0
H2322 H 0.53354 0.4888 0.66033 0.0
H2323 H 0.6037 0.49444 0.62761 0.0
H2324 H 0.56367 0.45594 0.56735 0.0
H2325 H 0.57966 0.45984 0.60688 0.0
H2326 H 0.5293 0.51781 0.62197 0.0
H2327 H 0.5131 0.51428 0.5814 0.0
C2328 C 0.56395 0.48933 0.68386 0.0
C2329 C 0.58922 0.49036 0.68601 0.0
C2330 C 0.553 0.49014 0.66156 0.0
C2331 C 0.56715 0.49167 0.64103 0.0
C2332 C 0.59238 0.49312 0.64321 0.0
C2333 C 0.60331 0.49259 0.66546 0.0
C2334 C 0.55582 0.46962 0.57891 0.0
C2335 C 0.53719 0.485 0.57103 0.0
C2336 C 0.56515 0.47186 0.6016 0.0
C2337 C 0.55603 0.48938 0.6173 0.0
C2338 C 0.53668 0.5042 0.61005 0.0
C2339 C 0.52736 0.50211 0.58696 0.0
H2340 H 0.73958 0.37366 0.89882 0.0
H2341 H 0.7545 0.31063 0.94275 0.0
H2342 H 0.74315 0.34832 0.86367 0.0
H2343 H 0.75717 0.28501 0.90749 0.0
H2344 H 0.7876 0.2516 0.84118 0.0
H2345 H 0.78448 0.2791 0.87523 0.0
H2346 H 0.72506 0.31628 0.84151 0.0
H2347 H 0.72925 0.28975 0.80706 0.0
C2348 C 0.74332 0.3543 0.901 0.0
C2349 C 0.74706 0.34422 0.92356 0.0
C2350 C 0.74524 0.33974 0.88082 0.0
C2351 C 0.75084 0.31474 0.88276 0.0
C2352 C 0.75345 0.30438 0.90539 0.0
C2353 C 0.7516 0.31898 0.92561 0.0
C2354 C 0.7743 0.26607 0.84096 0.0
C2355 C 0.75879 0.26878 0.82161 0.0
C2356 C 0.77224 0.28156 0.86052 0.0
C2357 C 0.75423 0.29959 0.86125 0.0
C2358 C 0.73928 0.30277 0.84143 0.0
C2359 C 0.74172 0.28765 0.82167 0.0
H2360 H 0.87629 0.50298 0.16561 0.0
H2361 H 0.94562 0.49285 0.19879 0.0
H2362 H 0.89627 0.50718 0.12707 0.0
H2363 H 0.96544 0.49641 0.16015 0.0
H2364 H 0.97944 0.47966 0.07604 0.0
H2365 H 0.9632 0.47236 0.116 0.0
H2366 H 0.92877 0.54306 0.11456 0.0
H2367 H 0.94528 0.55079 0.07546 0.0
C2368 C 0.89573 0.50142 0.16462 0.0
C2369 C 0.90946 0.49793 0.18516 0.0
C2370 C 0.90712 0.50378 0.14264 0.0
C2371 C 0.93234 0.50211 0.14081 0.0
C2372 C 0.94598 0.49765 0.16119 0.0
C2373 C 0.93465 0.49585 0.18323 0.0
C2374 C 0.96899 0.4939 0.08456 0.0
C2375 C 0.96352 0.51572 0.07248 0.0
C2376 C 0.95956 0.48962 0.10726 0.0
C2377 C 0.94436 0.50698 0.11795 0.0
C2378 C 0.94005 0.52923 0.10644 0.0
C2379 C 0.94967 0.53365 0.08409 0.0
H2380 H 0.72493 0.67971 0.44012 0.0
H2381 H 0.77766 0.631 0.40997 0.0
H2382 H 0.72733 0.70562 0.40527 0.0
H2383 H 0.78191 0.65793 0.3758 0.0
H2384 H 0.74698 0.68255 0.30562 0.0
H2385 H 0.75966 0.66432 0.34267 0.0
H2386 H 0.74442 0.73256 0.37913 0.0
H2387 H 0.72984 0.74976 0.34201 0.0
C2388 C 0.7376 0.67506 0.42624 0.0
C2389 C 0.75074 0.65326 0.42731 0.0
C2390 C 0.73926 0.69003 0.40629 0.0
C2391 C 0.75461 0.68377 0.38732 0.0
C2392 C 0.76931 0.66296 0.38958 0.0
C2393 C 0.76702 0.64758 0.40917 0.0
C2394 C 0.74709 0.69373 0.32151 0.0
C2395 C 0.73739 0.71728 0.32127 0.0
C2396 C 0.75445 0.68341 0.34285 0.0
C2397 C 0.75261 0.69673 0.36422 0.0
C2398 C 0.74533 0.72141 0.36327 0.0
C2399 C 0.73731 0.73143 0.34201 0.0
H2400 H 0.60605 0.45534 0.82873 0.0
H2401 H 0.58361 0.53029 0.81901 0.0
H2402 H 0.58433 0.45375 0.86679 0.0
H2403 H 0.56253 0.529 0.85711 0.0
H2404 H 0.55652 0.53064 0.9351 0.0
H2405 H 0.58217 0.52252 0.90082 0.0
H2406 H 0.53624 0.4615 0.88119 0.0
H2407 H 0.51046 0.46979 0.91565 0.0
C2408 C 0.59614 0.47127 0.8347 0.0
C2409 C 0.59614 0.49288 0.82122 0.0
C2410 C 0.58391 0.47039 0.85634 0.0
C2411 C 0.57223 0.49137 0.86485 0.0
C2412 C 0.57174 0.51272 0.85093 0.0
C2413 C 0.58351 0.51342 0.82916 0.0
C2414 C 0.55263 0.5148 0.92408 0.0
C2415 C 0.53182 0.50066 0.92792 0.0
C2416 C 0.56709 0.51031 0.90442 0.0
C2417 C 0.56081 0.49168 0.88835 0.0
C2418 C 0.54137 0.47592 0.89347 0.0
C2419 C 0.52679 0.4805 0.91319 0.0
H2420 H 0.7706 0.31368 0.05144 0.0
H2421 H 0.71087 0.36001 0.07023 0.0
H2422 H 0.76629 0.29146 0.08882 0.0
H2423 H 0.70627 0.33777 0.10771 0.0
H2424 H 0.68799 0.27926 0.16032 0.0
H2425 H 0.69371 0.29659 0.1209 0.0
H2426 H 0.77083 0.29727 0.13175 0.0
H2427 H 0.76503 0.27923 0.17098 0.0
C2428 C 0.75663 0.3191 0.06376 0.0
C2429 C 0.74107 0.33843 0.05825 0.0
C2430 C 0.75418 0.30647 0.08511 0.0
C2431 C 0.73579 0.31268 0.10108 0.0
C2432 C 0.72039 0.33232 0.09557 0.0
C2433 C 0.72311 0.34521 0.07434 0.0
C2434 C 0.70617 0.28247 0.15395 0.0
C2435 C 0.72607 0.27792 0.16857 0.0
C2436 C 0.70944 0.2927 0.13156 0.0
C2437 C 0.73267 0.29884 0.12348 0.0
C2438 C 0.7527 0.29269 0.13748 0.0
C2439 C 0.74943 0.28219 0.15984 0.0
H2440 H 0.8756 0.5227 0.33898 0.0
H2441 H 0.92686 0.4733 0.30715 0.0
H2442 H 0.89625 0.51905 0.37694 0.0
H2443 H 0.94762 0.46962 0.34509 0.0
H2444 H 0.95631 0.4423 0.42028 0.0
H2445 H 0.93547 0.44959 0.38288 0.0
H2446 H 0.93439 0.52739 0.398 0.0
H2447 H 0.95443 0.52001 0.43564 0.0
C2448 C 0.89158 0.51145 0.34009 0.0
C2449 C 0.89965 0.49815 0.32038 0.0
C2450 C 0.90338 0.50937 0.36173 0.0
C2451 C 0.92317 0.49366 0.36398 0.0
C2452 C 0.93207 0.48148 0.34387 0.0
C2453 C 0.92046 0.48383 0.32214 0.0
C2454 C 0.95106 0.46084 0.41578 0.0
C2455 C 0.95682 0.48055 0.43076 0.0
C2456 C 0.93951 0.46507 0.39431 0.0
C2457 C 0.93383 0.48911 0.38742 0.0
C2458 C 0.93852 0.50868 0.40296 0.0
C2459 C 0.9498 0.50442 0.42455 0.0
H2460 H 0.77731 0.67764 0.55342 0.0
H2461 H 0.73193 0.61852 0.57886 0.0
H2462 H 0.77938 0.69466 0.59341 0.0
H2463 H 0.73371 0.63589 0.61886 0.0
H2464 H 0.71066 0.70496 0.66652 0.0
H2465 H 0.71532 0.67816 0.6321 0.0
H2466 H 0.79271 0.68499 0.63755 0.0
H2467 H 0.78797 0.71128 0.67273 0.0
C2468 C 0.76808 0.66808 0.56762 0.0
C2469 C 0.75421 0.64692 0.56297 0.0
C2470 C 0.76943 0.67773 0.59053 0.0
C2471 C 0.75664 0.66663 0.60916 0.0
C2472 C 0.74368 0.64483 0.60475 0.0
C2473 C 0.74268 0.63491 0.58189 0.0
C2474 C 0.72866 0.70041 0.66055 0.0
C2475 C 0.74897 0.71031 0.67199 0.0
C2476 C 0.73133 0.68493 0.64101 0.0
C2477 C 0.75437 0.67957 0.63216 0.0
C2478 C 0.77476 0.68888 0.64406 0.0
C2479 C 0.77207 0.70385 0.6641 0.0
H2480 H 0.69179 0.56973 0.51051 0.0
H2481 H 0.66276 0.62956 0.46997 0.0
H2482 H 0.65282 0.54905 0.50976 0.0
H2483 H 0.6236 0.6081 0.46783 0.0
H2484 H 0.55148 0.56424 0.48362 0.0
H2485 H 0.58722 0.59101 0.48849 0.0
H2486 H 0.63291 0.52786 0.47965 0.0
H2487 H 0.59853 0.50221 0.47305 0.0
C2488 C 0.67699 0.57826 0.50119 0.0
C2489 C 0.68031 0.60065 0.48952 0.0
C2490 C 0.65465 0.56648 0.50074 0.0
C2491 C 0.63521 0.57659 0.48816 0.0
C2492 C 0.63819 0.59981 0.47763 0.0
C2493 C 0.66058 0.61194 0.4786 0.0
C2494 C 0.56931 0.55642 0.48199 0.0
C2495 C 0.5721 0.53114 0.4776 0.0
C2496 C 0.58971 0.57166 0.4849 0.0
C2497 C 0.61304 0.5616 0.48428 0.0
C2498 C 0.61546 0.53643 0.47981 0.0
C2499 C 0.59548 0.5216 0.47599 0.0
H2500 H 0.16809 0.88653 0.4734 0.0
H2501 H 0.20262 0.93874 0.52006 0.0
H2502 H 0.12934 0.90722 0.47955 0.0
H2503 H 0.1642 0.9595 0.52613 0.0
H2504 H 0.08309 0.96358 0.5514 0.0
H2505 H 0.12377 0.94804 0.54493 0.0
H2506 H 0.11239 0.95048 0.46935 0.0
H2507 H 0.07174 0.96642 0.47585 0.0
C2508 C 0.16721 0.90222 0.48518 0.0
C2509 C 0.18802 0.91115 0.49636 0.0
C2510 C 0.14528 0.91422 0.48843 0.0
C2511 C 0.14401 0.93511 0.50304 0.0
C2512 C 0.16479 0.94349 0.51474 0.0
C2513 C 0.18667 0.93166 0.5113 0.0
C2514 C 0.08961 0.96148 0.53343 0.0
C2515 C 0.07447 0.96614 0.51412 0.0
C2516 C 0.11277 0.95253 0.52973 0.0
C2517 C 0.1209 0.9477 0.50667 0.0
C2518 C 0.10629 0.95378 0.48729 0.0
C2519 C 0.08326 0.9632 0.49099 0.0
H2520 H 0.32445 0.94352 0.72787 0.0
H2521 H 0.38007 0.90919 0.76928 0.0
H2522 H 0.30199 0.90539 0.72662 0.0
H2523 H 0.35783 0.86994 0.76738 0.0
H2524 H 0.28865 0.82248 0.78825 0.0
H2525 H 0.32039 0.85401 0.78485 0.0
H2526 H 0.30091 0.86514 0.71154 0.0
H2527 H 0.26876 0.83488 0.7155 0.0
C2528 C 0.33195 0.92752 0.73645 0.0
C2529 C 0.35334 0.9292 0.74939 0.0
C2530 C 0.31933 0.90553 0.73542 0.0
C2531 C 0.32814 0.8846 0.74694 0.0
C2532 C 0.3505 0.88589 0.75863 0.0
C2533 C 0.36321 0.90815 0.75964 0.0
C2534 C 0.29129 0.83192 0.77158 0.0
C2535 C 0.27596 0.82733 0.7524 0.0
C2536 C 0.30954 0.84963 0.76948 0.0
C2537 C 0.31267 0.86248 0.74808 0.0
C2538 C 0.2984 0.85616 0.72846 0.0
C2539 C 0.27998 0.83901 0.73072 0.0
H2540 H 0.31688 0.09763 0.01673 0.0
H2541 H 0.31169 0.07193 0.94458 0.0
H2542 H 0.35874 0.08498 0.01815 0.0
H2543 H 0.35414 0.06032 0.94544 0.0
H2544 H 0.41205 0.00628 0.97623 0.0
H2545 H 0.3768 0.02873 0.963 0.0
H2546 H 0.39892 0.09095 0.00569 0.0
H2547 H 0.43355 0.06772 0.01963 0.0
C2548 C 0.3249 0.08969 0.00101 0.0
C2549 C 0.31103 0.08546 0.98066 0.0
C2550 C 0.34902 0.08269 0.00167 0.0
C2551 C 0.35997 0.07176 0.98181 0.0
C2552 C 0.34624 0.0684 0.96113 0.0
C2553 C 0.32194 0.07499 0.96064 0.0
C2554 C 0.40992 0.02521 0.98177 0.0
C2555 C 0.42528 0.03543 -0.00117 0.0
C2556 C 0.38965 0.03811 0.97431 0.0
C2557 C 0.3846 0.06141 0.98386 0.0
C2558 C 0.40189 0.07276 -0.00145 0.0
C2559 C 0.42196 0.05971 0.0062 0.0
H2560 H 0.62259 0.58145 0.76499 0.0
H2561 H 0.67764 0.53881 0.73052 0.0
H2562 H 0.64673 0.61881 0.75897 0.0
H2563 H 0.70146 0.5759 0.72381 0.0
H2564 H 0.7488 0.63393 0.76313 0.0
H2565 H 0.72365 0.59959 0.75166 0.0
H2566 H 0.66656 0.64925 0.73243 0.0
H2567 H 0.69262 0.68429 0.74335 0.0
C2568 C 0.6398 0.58021 0.756 0.0
C2569 C 0.64893 0.55734 0.74922 0.0
C2570 C 0.65342 0.60155 0.75217 0.0
C2571 C 0.67613 0.60027 0.7411 0.0
C2572 C 0.68427 0.57745 0.73278 0.0
C2573 C 0.67082 0.55621 0.73687 0.0
C2574 C 0.7311 0.63758 0.75588 0.0
C2575 C 0.72234 0.6616 0.75458 0.0
C2576 C 0.71664 0.61786 0.74928 0.0
C2577 C 0.69283 0.62162 0.74187 0.0
C2578 C 0.6847 0.64583 0.73861 0.0
C2579 C 0.69956 0.66581 0.74471 0.0
H2580 H 0.79938 0.4256 0.01002 0.0
H2581 H 0.83102 0.3649 0.97236 0.0
H2582 H 0.83734 0.448 0.00797 0.0
H2583 H 0.86933 0.38783 0.96936 0.0
H2584 H 0.93863 0.43665 0.98803 0.0
H2585 H 0.90432 0.40807 0.99104 0.0
H2586 H 0.85613 0.46752 0.97512 0.0
H2587 H 0.88959 0.49525 0.97059 0.0
C2588 C 0.81456 0.41719 0.00114 0.0
C2589 C 0.81226 0.39413 0.99047 0.0
C2590 C 0.83628 0.42993 -4e-05 0.0
C2591 C 0.85607 0.41996 0.98782 0.0
C2592 C 0.85429 0.39601 0.97863 0.0
C2593 C 0.83246 0.38302 0.98017 0.0
C2594 C 0.92068 0.44332 0.9844 0.0
C2595 C 0.91677 0.46832 0.97947 0.0
C2596 C 0.90109 0.42699 0.9862 0.0
C2597 C 0.87747 0.43564 0.98337 0.0
C2598 C 0.87399 0.46023 0.9771 0.0
C2599 C 0.89331 0.47624 0.97471 0.0
H2600 H 0.35962 0.06789 0.72958 0.0
H2601 H 0.30662 0.05194 0.78378 0.0
H2602 H 0.33923 0.10634 0.72101 0.0
H2603 H 0.28594 0.08979 0.77464 0.0
H2604 H 0.27144 0.17261 0.76704 0.0
H2605 H 0.2895 0.13348 0.77701 0.0
H2606 H 0.3019 0.11927 0.70267 0.0
H2607 H 0.28432 0.15901 0.69292 0.0
C2608 C 0.34379 0.07264 0.7398 0.0
C2609 C 0.33465 0.05671 0.7572 0.0
C2610 C 0.33191 0.0945 0.73466 0.0
C2611 C 0.31069 0.10083 0.74682 0.0
C2612 C 0.30221 0.08544 0.76494 0.0
C2613 C 0.31409 0.06368 0.77011 0.0
C2614 C 0.2772 0.16071 0.75284 0.0
C2615 C 0.27627 0.16862 0.72926 0.0
C2616 C 0.28779 0.13838 0.75852 0.0
C2617 C 0.29747 0.12344 0.74064 0.0
C2618 C 0.29516 0.1307 0.71688 0.0
C2619 C 0.28481 0.15322 0.71125 0.0
H2620 H 0.14206 0.91433 0.29435 0.0
H2621 H 0.16939 0.93342 0.22527 0.0
H2622 H 0.16329 0.87477 0.2923 0.0
H2623 H 0.19086 0.89441 0.22334 0.0
H2624 H 0.25173 0.84594 0.24172 0.0
H2625 H 0.22717 0.88125 0.25213 0.0
H2626 H 0.16558 0.83359 0.26258 0.0
H2627 H 0.19033 0.79794 0.25207 0.0
C2628 C 0.15209 0.90966 0.27852 0.0
C2629 C 0.154 0.92646 0.25979 0.0
C2630 C 0.16425 0.88725 0.27742 0.0
C2631 C 0.17889 0.88189 0.25784 0.0
C2632 C 0.17984 0.89834 0.23872 0.0
C2633 C 0.16741 0.92043 0.23966 0.0
C2634 C 0.23318 0.84289 0.24709 0.0
C2635 C 0.22277 0.81937 0.24581 0.0
C2636 C 0.21912 0.86307 0.25284 0.0
C2637 C 0.19444 0.86005 0.25748 0.0
C2638 C 0.18459 0.83626 0.25888 0.0
C2639 C 0.19875 0.81592 0.25307 0.0
H2640 H 0.51442 0.34308 0.37519 0.0
H2641 H 0.46781 0.30023 0.42066 0.0
H2642 H 0.50863 0.37877 0.40052 0.0
H2643 H 0.46138 0.33624 0.44573 0.0
H2644 H 0.49861 0.39347 0.49845 0.0
H2645 H 0.48662 0.35939 0.47309 0.0
H2646 H 0.47947 0.4094 0.41423 0.0
H2647 H 0.49168 0.44348 0.43991 0.0
C2648 C 0.50283 0.34137 0.39055 0.0
C2649 C 0.49188 0.31881 0.39617 0.0
C2650 C 0.49916 0.36191 0.40486 0.0
C2651 C 0.48419 0.36045 0.42494 0.0
C2652 C 0.47303 0.33792 0.43041 0.0
C2653 C 0.47693 0.31727 0.41622 0.0
C2654 C 0.49315 0.39727 0.48041 0.0
C2655 C 0.49612 0.42085 0.47095 0.0
C2656 C 0.48639 0.37776 0.46581 0.0
C2657 C 0.48288 0.38161 0.44147 0.0
C2658 C 0.48262 0.40583 0.43282 0.0
C2659 C 0.48919 0.42541 0.44755 0.0
H2660 H 0.39778 0.73293 0.12362 0.0
H2661 H 0.44793 0.75398 0.17884 0.0
H2662 H 0.36527 0.73187 0.15258 0.0
H2663 H 0.41496 0.75334 0.20769 0.0
H2664 H 0.33282 0.78742 0.22369 0.0
H2665 H 0.37333 0.7816 0.20731 0.0
H2666 H 0.35627 0.7055 0.1932 0.0
H2667 H 0.31609 0.71119 0.21028 0.0
C2668 C 0.40189 0.73739 0.14188 0.0
C2669 C 0.42544 0.74354 0.14891 0.0
C2670 C 0.38335 0.73646 0.15846 0.0
C2671 C 0.38791 0.74206 0.18229 0.0
C2672 C 0.41125 0.74865 0.1894 0.0
C2673 C 0.42996 0.74916 0.17286 0.0
C2674 C 0.33828 0.76924 0.21813 0.0
C2675 C 0.32173 0.74972 0.21809 0.0
C2676 C 0.36132 0.7659 0.20883 0.0
C2677 C 0.36756 0.74322 0.19885 0.0
C2678 C 0.3517 0.72312 0.20085 0.0
C2679 C 0.32888 0.72634 0.21064 0.0
H2680 H 0.95635 0.67341 0.90722 0.0
H2681 H 0.03295 0.68738 0.90365 0.0
H2682 H 0.9641 0.63141 0.92031 0.0
H2683 H 0.04072 0.64548 0.91783 0.0
H2684 H 0.01479 0.59145 0.98749 0.0
H2685 H 0.02405 0.62664 0.96215 0.0
H2686 H 0.98906 0.59023 0.90353 0.0
H2687 H 0.98039 0.55483 0.92875 0.0
C2688 C 0.97481 0.66735 0.90904 0.0
C2689 C -0.00596 0.68346 0.90442 0.0
C2690 C 0.97927 0.64334 0.9163 0.0
C2691 C 0.00302 0.63523 0.91971 0.0
C2692 C 0.02232 0.65126 0.91495 0.0
C2693 C 0.01785 0.67512 0.90693 0.0
C2694 C 0.01068 0.59028 0.96877 0.0
C2695 C -0.00306 0.5706 0.95994 0.0
C2696 C 0.0158 0.61047 0.95431 0.0
C2697 C 0.00683 0.61119 0.93109 0.0
C2698 C -0.00393 0.59004 0.92142 0.0
C2699 C 0.99132 0.56973 0.93577 0.0
H2700 H 0.07252 0.21427 0.61921 0.0
H2701 H 0.06096 0.27762 0.66379 0.0
H2702 H 0.11179 0.20787 0.63787 0.0
H2703 H 0.10077 0.27169 0.68175 0.0
H2704 H 0.18412 0.25905 0.6912 0.0
H2705 H 0.15054 0.26594 0.6641 0.0
H2706 H 0.11571 0.19994 0.68935 0.0
H2707 H 0.14904 0.19324 0.71702 0.0
C2708 C 0.07875 0.22729 0.63242 0.0
C2709 C 0.06382 0.24643 0.64015 0.0
C2710 C 0.10109 0.22353 0.6431 0.0
C2711 C 0.10906 0.2393 0.66111 0.0
C2712 C 0.09488 0.25942 0.66776 0.0
C2713 C 0.07222 0.26278 0.65755 0.0
C2714 C 0.16973 0.24553 0.6904 0.0
C2715 C 0.16928 0.2254 0.70597 0.0
C2716 C 0.15047 0.24966 0.67508 0.0
C2717 C 0.1308 0.23341 0.67475 0.0
C2718 C 0.13092 0.21253 0.68927 0.0
C2719 C 0.14993 0.20869 0.70499 0.0
H2720 H 0.51303 0.69451 0.06713 0.0
H2721 H 0.47496 0.65666 0.123 0.0
H2722 H 0.51736 0.65608 0.04551 0.0
H2723 H 0.47974 0.6177 0.10157 0.0
H2724 H 0.46391 0.56607 0.03697 0.0
H2725 H 0.46291 0.60146 0.06349 0.0
H2726 H 0.53824 0.61582 0.04873 0.0
H2727 H 0.53894 0.58035 0.02177 0.0
C2728 C 0.50553 0.67783 0.07466 0.0
C2729 C 0.49301 0.67832 0.09619 0.0
C2730 C 0.50836 0.65586 0.06254 0.0
C2731 C 0.49899 0.63401 0.07199 0.0
C2732 C 0.48698 0.63442 0.09392 0.0
C2733 C 0.48423 0.65651 0.10611 0.0
C2734 C 0.48027 0.5767 0.03976 0.0
C2735 C 0.50148 0.5709 0.02762 0.0
C2736 C 0.47977 0.59672 0.05498 0.0
C2737 C 0.5005 0.61123 0.05813 0.0
C2738 C 0.522 0.6049 0.04643 0.0
C2739 C 0.5225 0.58472 0.03119 0.0
H2740 H 0.05914 0.71011 0.83229 0.0
H2741 H 0.08359 0.77484 0.86942 0.0
H2742 H 0.09919 0.7049 0.81525 0.0
H2743 H 0.12321 0.77095 0.85113 0.0
H2744 H 0.19194 0.76624 0.81519 0.0
H2745 H 0.16063 0.75316 0.84313 0.0
H2746 H 0.1185 0.72476 0.78458 0.0
H2747 H 0.15012 0.73696 0.75737 0.0
C2748 C 0.07323 0.72316 0.83685 0.0
C2749 C 0.06831 0.7431 0.85179 0.0
C2750 C 0.09617 0.72026 0.82705 0.0
C2751 C 0.11448 0.73777 0.83129 0.0
C2752 C 0.10982 0.75687 0.84754 0.0
C2753 C 0.08702 0.75932 0.8579 0.0
C2754 C 0.17649 0.756 0.80865 0.0
C2755 C 0.1733 0.75246 0.78428 0.0
C2756 C 0.15834 0.74889 0.82454 0.0
C2757 C 0.13659 0.73851 0.81616 0.0
C2758 C 0.13486 0.73257 0.79193 0.0
C2759 C 0.15303 0.73953 0.77618 0.0
H2760 H 0.01955 0.30778 0.5893 0.0
H2761 H 0.94361 0.30686 0.57212 0.0
H2762 H 0.02405 0.34733 0.56961 0.0
H2763 H 0.94804 0.34675 0.55292 0.0
H2764 H 0.96665 0.41209 0.50695 0.0
H2765 H 0.96769 0.36865 0.51862 0.0
H2766 H 0.00943 0.38836 0.58049 0.0
H2767 H 0.00813 0.43131 0.56897 0.0
C2768 C 0.00376 0.3162 0.58161 0.0
C2769 C 0.98112 0.30453 0.58263 0.0
C2770 C 0.0064 0.33868 0.57015 0.0
C2771 C 0.9864 0.35003 0.55976 0.0
C2772 C 0.96383 0.33819 0.56045 0.0
C2773 C 0.96123 0.31557 0.57172 0.0
C2774 C 0.97618 0.4069 0.52289 0.0
C2775 C 0.98678 0.42481 0.53749 0.0
C2776 C 0.97677 0.38222 0.52955 0.0
C2777 C 0.98844 0.37527 0.55057 0.0
C2778 C 0.00034 0.39317 0.5642 0.0
C2779 C -0.00065 0.41774 0.55781 0.0
H2780 H 0.45202 0.22717 0.31092 0.0
H2781 H 0.41325 0.26748 0.36435 0.0
H2782 H 0.41583 0.22537 0.28634 0.0
H2783 H 0.37671 0.26549 0.3399 0.0
H2784 H 0.31978 0.27344 0.28386 0.0
H2785 H 0.36001 0.28048 0.30072 0.0
H2786 H 0.37643 0.20377 0.29044 0.0
H2787 H 0.33624 0.19689 0.2739 0.0
C2788 C 0.43569 0.23579 0.31725 0.0
C2789 C 0.43533 0.24793 0.33914 0.0
C2790 C 0.41502 0.23469 0.30327 0.0
C2791 C 0.39356 0.24551 0.31109 0.0
C2792 C 0.39317 0.25744 0.33323 0.0
C2793 C 0.41388 0.25838 0.3473 0.0
C2794 C 0.33243 0.25838 0.28447 0.0
C2795 C 0.3253 0.23469 0.27748 0.0
C2796 C 0.35522 0.26231 0.29436 0.0
C2797 C 0.37116 0.24259 0.29716 0.0
C2798 C 0.36455 0.21931 0.28841 0.0
C2799 C 0.34166 0.21534 0.27889 0.0
H2800 H 0.3725 0.49543 0.34313 0.0
H2801 H 0.43302 0.50327 0.29526 0.0
H2802 H 0.4001 0.49577 0.37661 0.0
H2803 H 0.46055 0.50421 0.3292 0.0
H2804 H 0.47773 0.54451 0.40832 0.0
H2805 H 0.46078 0.53787 0.3687 0.0
H2806 H 0.4388 0.4647 0.38892 0.0
H2807 H 0.45648 0.47104 0.42818 0.0
C2808 C 0.39163 0.49736 0.3397 0.0
C2809 C 0.4005 0.4993 0.31645 0.0
C2810 C 0.40741 0.4973 0.35887 0.0
C2811 C 0.43235 0.49962 0.3553 0.0
C2812 C 0.44135 0.50216 0.33224 0.0
C2813 C 0.42557 0.50175 0.31292 0.0
C2814 C 0.47027 0.52666 0.40383 0.0
C2815 C 0.46845 0.50821 0.42103 0.0
C2816 C 0.46059 0.52288 0.38128 0.0
C2817 C 0.44839 0.50089 0.37603 0.0
C2818 C 0.44823 0.48176 0.39266 0.0
C2819 C 0.45847 0.48531 0.41497 0.0
H2820 H 0.25353 0.6854 0.05085 0.0
H2821 H 0.24293 0.61228 0.07884 0.0
H2822 H 0.24645 0.70259 0.08996 0.0
H2823 H 0.23602 0.62975 0.11832 0.0
H2824 H 0.25311 0.68245 0.1865 0.0
H2825 H 0.25846 0.65764 0.15074 0.0
H2826 H 0.20647 0.70242 0.11435 0.0
H2827 H 0.20106 0.72711 0.14996 0.0
C2828 C 0.25009 0.67296 0.06542 0.0
C2829 C 0.24842 0.64752 0.06174 0.0
C2830 C 0.24583 0.68283 0.08776 0.0
C2831 C 0.24007 0.66747 0.1069 0.0
C2832 C 0.24014 0.64192 0.1037 0.0
C2833 C 0.24414 0.63199 0.08118 0.0
C2834 C 0.2421 0.68631 0.17118 0.0
C2835 C 0.22683 0.70681 0.1709 0.0
C2836 C 0.24532 0.67225 0.15069 0.0
C2837 C 0.2333 0.67859 0.12976 0.0
C2838 C 0.21633 0.69757 0.1302 0.0
C2839 C 0.21312 0.71156 0.15058 0.0
H2840 H 0.05917 0.4817 0.79444 0.0
H2841 H 0.11209 0.50849 0.84461 0.0
H2842 H 0.02934 0.47864 0.82632 0.0
H2843 H 0.08216 0.5058 0.8761 0.0
H2844 H 0.0198 0.5198 0.92314 0.0
H2845 H 0.03985 0.5271 0.88534 0.0
H2846 H 0.02867 0.4512 0.86594 0.0
H2847 H 0.00899 0.44363 0.90401 0.0
C2848 C 0.06442 0.48702 0.8122 0.0
C2849 C 0.08802 0.49534 0.81701 0.0
C2850 C 0.04733 0.48532 0.83033 0.0
C2851 C 0.05343 0.49239 0.85344 0.0
C2852 C 0.07694 0.50071 0.85827 0.0
C2853 C 0.09412 0.50199 0.84029 0.0
C2854 C 0.02082 0.50485 0.91051 0.0
C2855 C 0.01327 0.48101 0.91666 0.0
C2856 C 0.03242 0.50903 0.88896 0.0
C2857 C 0.03613 0.48958 0.87309 0.0
C2858 C 0.02607 0.46644 0.87801 0.0
C2859 C 0.01486 0.46212 0.89976 0.0
H2860 H 0.23416 0.37747 0.58211 0.0
H2861 H 0.23028 0.30388 0.55379 0.0
H2862 H 0.22948 0.36125 0.62209 0.0
H2863 H 0.22666 0.28754 0.59364 0.0
H2864 H 0.22104 0.25845 0.66435 0.0
H2865 H 0.20628 0.28159 0.63026 0.0
H2866 H 0.25614 0.34048 0.64723 0.0
H2867 H 0.2699 0.31769 0.68139 0.0
C2868 C 0.23214 0.35782 0.58443 0.0
C2869 C 0.23296 0.34191 0.56484 0.0
C2870 C 0.22946 0.34851 0.60735 0.0
C2871 C 0.22788 0.32303 0.61125 0.0
C2872 C 0.22741 0.30727 0.59145 0.0
C2873 C 0.22979 0.31661 0.56853 0.0
C2874 C 0.2277 0.27695 0.66144 0.0
C2875 C 0.24644 0.28645 0.6754 0.0
C2876 C 0.21964 0.29004 0.64168 0.0
C2877 C 0.23048 0.31265 0.63552 0.0
C2878 C 0.24724 0.32324 0.65128 0.0
C2879 C 0.25517 0.3102 0.67097 0.0
H2880 H 0.40705 0.45971 0.17776 0.0
H2881 H 0.39429 0.53771 0.17835 0.0
H2882 H 0.42578 0.46323 0.13856 0.0
H2883 H 0.41289 0.54123 0.13872 0.0
H2884 H 0.42398 0.49089 0.05514 0.0
H2885 H 0.4019 0.50232 0.09126 0.0
H2886 H 0.46872 0.50417 0.13011 0.0
H2887 H 0.49072 0.49338 0.09414 0.0
C2888 C 0.40797 0.4775 0.16923 0.0
C2889 C 0.39932 0.49842 0.18074 0.0
C2890 C 0.41862 0.47952 0.14696 0.0
C2891 C 0.42059 0.50247 0.13583 0.0
C2892 C 0.41139 0.52339 0.14706 0.0
C2893 C 0.40086 0.52138 0.16955 0.0
C2894 C 0.43401 0.49531 0.07106 0.0
C2895 C 0.45902 0.49176 0.07187 0.0
C2896 C 0.42141 0.50162 0.09169 0.0
C2897 C 0.43376 0.5041 0.11325 0.0
C2898 C 0.45897 0.50276 0.11354 0.0
C2899 C 0.47153 0.49681 0.09294 0.0
H2900 H 0.26742 0.62683 0.9044 0.0
H2901 H 0.22761 0.68062 0.94459 0.0
H2902 H 0.27254 0.65643 0.8724 0.0
H2903 H 0.23242 0.71018 0.91214 0.0
H2904 H 0.2224 0.72733 0.82596 0.0
H2905 H 0.21788 0.70934 0.86552 0.0
H2906 H 0.29496 0.69997 0.86962 0.0
H2907 H 0.29947 0.71777 0.8303 0.0
C2908 C 0.25976 0.64495 0.90636 0.0
C2909 C 0.24726 0.65148 0.92698 0.0
C2910 C 0.26282 0.66193 0.88817 0.0
C2911 C 0.25311 0.6856 0.89008 0.0
C2912 C 0.2402 0.69208 0.91045 0.0
C2913 C 0.23755 0.67521 0.92893 0.0
C2914 C 0.23841 0.72248 0.83582 0.0
C2915 C 0.26123 0.72347 0.82507 0.0
C2916 C 0.23582 0.71212 0.85835 0.0
C2917 C 0.25607 0.70282 0.87018 0.0
C2918 C 0.2791 0.70665 0.86058 0.0
C2919 C 0.28166 0.7169 0.83818 0.0
H2920 H 0.12448 0.51403 0.66672 0.0
H2921 H 0.06305 0.47135 0.69035 0.0
H2922 H 0.10616 0.51787 0.62756 0.0
H2923 H 0.04494 0.47505 0.65118 0.0
H2924 H 0.00639 0.52607 0.59912 0.0
H2925 H 0.02936 0.51584 0.63409 0.0
H2926 H 0.08917 0.49341 0.59034 0.0
H2927 H 0.06566 0.50316 0.55467 0.0
C2928 C 0.1074 0.50491 0.66336 0.0
C2929 C 0.09497 0.49275 0.68165 0.0
C2930 C 0.09699 0.50707 0.64095 0.0
C2931 C 0.07406 0.49705 0.63657 0.0
C2932 C 0.06251 0.48326 0.65432 0.0
C2933 C 0.07287 0.48114 0.67668 0.0
C2934 C 0.02458 0.51936 0.59679 0.0
C2935 C 0.03436 0.51565 0.57409 0.0
C2936 C 0.03757 0.51315 0.61688 0.0
C2937 C 0.06083 0.5035 0.61483 0.0
C2938 C 0.07115 0.50068 0.59227 0.0
C2939 C 0.05783 0.50639 0.57196 0.0
H2940 H 0.24733 0.37838 0.40378 0.0
H2941 H 0.23773 0.31223 0.44505 0.0
H2942 H 0.2412 0.35524 0.3677 0.0
H2943 H 0.23222 0.28876 0.40844 0.0
H2944 H 0.20129 0.2574 0.34044 0.0
H2945 H 0.20415 0.2827 0.376 0.0
H2946 H 0.26056 0.32588 0.34303 0.0
H2947 H 0.25716 0.30093 0.30727 0.0
C2948 C 0.24399 0.35883 0.40523 0.0
C2949 C 0.24294 0.34725 0.4275 0.0
C2950 C 0.24063 0.3455 0.38439 0.0
C2951 C 0.23619 0.32013 0.38505 0.0
C2952 C 0.23524 0.30838 0.40727 0.0
C2953 C 0.2386 0.32179 0.42827 0.0
C2954 C 0.21387 0.27272 0.34061 0.0
C2955 C 0.22893 0.27729 0.32103 0.0
C2956 C 0.21577 0.28698 0.36112 0.0
C2957 C 0.23286 0.30609 0.36259 0.0
C2958 C 0.24705 0.31144 0.3425 0.0
C2959 C 0.24501 0.29727 0.32188 0.0
H2960 H 0.33034 0.36599 0.48628 0.0
H2961 H 0.29407 0.42843 0.51616 0.0
H2962 H 0.36929 0.38618 0.49297 0.0
H2963 H 0.33221 0.44985 0.52048 0.0
H2964 H 0.40174 0.4804 0.54274 0.0
H2965 H 0.36654 0.45345 0.54188 0.0
H2966 H 0.39587 0.4162 0.48063 0.0
H2967 H 0.43195 0.44188 0.48314 0.0
C2968 C 0.33075 0.38432 0.49375 0.0
C2969 C 0.30922 0.39617 0.49972 0.0
C2970 C 0.35304 0.39601 0.49748 0.0
C2971 C 0.35421 0.41983 0.50728 0.0
C2972 C 0.33243 0.43139 0.5134 0.0
C2973 C 0.31034 0.41944 0.51024 0.0
C2974 C 0.40092 0.46581 0.52969 0.0
C2975 C 0.41951 0.46302 0.51315 0.0
C2976 C 0.38052 0.45063 0.52881 0.0
C2977 C 0.37777 0.43298 0.51069 0.0
C2978 C 0.39718 0.42935 0.49496 0.0
C2979 C 0.41796 0.44405 0.49637 0.0
H2980 H 0.81061 0.07384 0.44517 0.0
H2981 H 0.80731 0.08668 0.52056 0.0
H2982 H 0.84959 0.05407 0.44987 0.0
H2983 H 0.84594 0.06609 0.52545 0.0
H2984 H 0.92933 0.06003 0.51476 0.0
H2985 H 0.88774 0.07411 0.51574 0.0
H2986 H 0.86777 0.017 0.46601 0.0
H2987 H 0.90977 0.00316 0.46502 0.0
C2988 C 0.81828 0.07239 0.46273 0.0
C2989 C 0.80618 0.08196 0.48247 0.0
C2990 C 0.84039 0.06078 0.46549 0.0
C2991 C 0.85063 0.05822 0.48808 0.0
C2992 C 0.83855 0.06794 0.50782 0.0
C2993 C 0.81657 0.07987 0.50501 0.0
C2994 C 0.91582 0.05022 0.50452 0.0
C2995 C 0.92239 0.03075 0.48972 0.0
C2996 C 0.89205 0.05816 0.50512 0.0
C2997 C 0.8746 0.04689 0.49066 0.0
C2998 C 0.88099 0.02627 0.47702 0.0
C2999 C 0.90483 0.0182 0.47659 0.0
H3000 H 0.67424 0.04706 0.23618 0.0
H3001 H 0.61069 0.08406 0.26124 0.0
H3002 H 0.69398 0.08612 0.22926 0.0
H3003 H 0.62923 0.12366 0.25165 0.0
H3004 H 0.68379 0.18836 0.25786 0.0
H3005 H 0.65844 0.15217 0.26262 0.0
H3006 H 0.69401 0.11825 0.20276 0.0
H3007 H 0.7207 0.15381 0.19955 0.0
C3008 C 0.66475 0.06371 0.24074 0.0
C3009 C 0.64152 0.06275 0.25035 0.0
C3010 C 0.67568 0.08615 0.23595 0.0
C3011 C 0.66303 0.10816 0.23942 0.0
C3012 C 0.63961 0.10713 0.24897 0.0
C3013 C 0.62896 0.08455 0.25446 0.0
C3014 C 0.68555 0.17344 0.24528 0.0
C3015 C 0.70418 0.17354 0.22852 0.0
C3016 C 0.67108 0.15262 0.24802 0.0
C3017 C 0.67472 0.13192 0.23358 0.0
C3018 C 0.69145 0.13345 0.21487 0.0
C3019 C 0.70642 0.15393 0.21266 0.0
H3020 H 0.67417 0.8859 0.02338 0.0
H3021 H 0.68116 0.92525 0.95733 0.0
H3022 H 0.6308 0.8953 0.02422 0.0
H3023 H 0.63839 0.93412 0.95803 0.0
H3024 H 0.56334 0.93379 0.94945 0.0
H3025 H 0.59861 0.90813 0.95587 0.0
H3026 H 0.60682 0.93858 0.02603 0.0
H3027 H 0.57095 0.96371 0.01986 0.0
C3028 C 0.66642 0.89635 0.00902 0.0
C3029 C 0.68098 0.90492 0.99029 0.0
C3030 C 0.64172 0.90163 0.00951 0.0
C3031 C 0.6313 0.91491 0.99093 0.0
C3032 C 0.64591 0.92332 0.97229 0.0
C3033 C 0.67047 0.91853 0.97204 0.0
C3034 C 0.57213 0.9342 0.96657 0.0
C3035 C 0.5651 0.95111 0.98391 0.0
C3036 C 0.59219 0.91953 0.97027 0.0
C3037 C 0.60571 0.92203 0.99115 0.0
C3038 C 0.59671 0.93643 0.00976 0.0
C3039 C 0.57629 0.95086 0.00619 0.0
H3040 H 0.36919 0.40852 0.27458 0.0
H3041 H 0.3183 0.44599 0.22997 0.0
H3042 H 0.34532 0.37024 0.27043 0.0
H3043 H 0.29458 0.40845 0.22614 0.0
H3044 H 0.28857 0.33266 0.19245 0.0
H3045 H 0.31053 0.3691 0.20434 0.0
H3046 H 0.29767 0.35205 0.27785 0.0
H3047 H 0.27548 0.31458 0.2659 0.0
C3048 C 0.35276 0.40857 0.26423 0.0
C3049 C 0.34522 0.43009 0.25289 0.0
C3050 C 0.33906 0.38689 0.26207 0.0
C3051 C 0.31811 0.38657 0.24806 0.0
C3052 C 0.31063 0.40827 0.23706 0.0
C3053 C 0.32415 0.42971 0.23928 0.0
C3054 C 0.2901 0.33657 0.21119 0.0
C3055 C 0.27993 0.32082 0.22822 0.0
C3056 C 0.3028 0.35747 0.21797 0.0
C3057 C 0.30561 0.36339 0.24194 0.0
C3058 C 0.29578 0.34769 0.25922 0.0
C3059 C 0.28298 0.32647 0.25238 0.0
H3060 H 0.15928 0.62018 0.97567 0.0
H3061 H 0.19854 0.56408 0.01269 0.0
H3062 H 0.1219 0.59618 0.98034 0.0
H3063 H 0.16156 0.54048 0.01802 0.0
H3064 H 0.10035 0.49131 0.99297 0.0
H3065 H 0.13584 0.51708 0.99296 0.0
H3066 H 0.09231 0.58036 0.00925 0.0
H3067 H 0.05609 0.55429 0.0089 0.0
C3068 C 0.15978 0.60271 0.98477 0.0
C3069 C 0.18164 0.59337 0.99307 0.0
C3070 C 0.13848 0.58914 0.9877 0.0
C3071 C 0.13884 0.56634 -0.00062 0.0
C3072 C 0.16074 0.55769 0.0085 0.0
C3073 C 0.18191 0.57109 0.00537 0.0
C3074 C 0.09819 0.51067 -0.00326 0.0
C3075 C 0.07532 0.52077 0.00078 0.0
C3076 C 0.11866 0.52548 -0.0032 0.0
C3077 C 0.11689 0.5508 0.00089 0.0
C3078 C 0.09414 0.56093 0.00567 0.0
C3079 C 0.07348 0.54599 0.00569 0.0
H3080 H 0.62399 0.91726 0.27193 0.0
H3081 H 0.68554 0.9466 0.23446 0.0
H3082 H 0.64188 0.87631 0.27055 0.0
H3083 H 0.7039 0.90607 0.23369 0.0
H3084 H 0.71767 0.82266 0.22197 0.0
H3085 H 0.70058 0.86389 0.21872 0.0
H3086 H 0.67665 0.85948 0.29151 0.0
H3087 H 0.6928 0.81812 0.29427 0.0
C3088 C 0.6412 0.91477 0.26318 0.0
C3089 C 0.6538 0.93482 0.25378 0.0
C3090 C 0.65155 0.89155 0.26258 0.0
C3091 C 0.67455 0.88826 0.25254 0.0
C3092 C 0.68627 0.90815 0.24168 0.0
C3093 C 0.67593 0.93132 0.24234 0.0
C3094 C 0.70917 0.83088 0.23732 0.0
C3095 C 0.70622 0.81752 0.2583 0.0
C3096 C 0.69932 0.85429 0.23546 0.0
C3097 C 0.68675 0.86449 0.25469 0.0
C3098 C 0.6855 0.85166 0.27618 0.0
C3099 C 0.69497 0.82823 0.27789 0.0
H3100 H 0.84545 0.07153 0.7845 0.0
H3101 H 0.84354 0.05399 0.71006 0.0
H3102 H 0.83237 0.11329 0.7758 0.0
H3103 H 0.82949 0.09573 0.70126 0.0
H3104 H 0.75989 0.14812 0.724 0.0
H3105 H 0.78777 0.11493 0.71494 0.0
H3106 H 0.84416 0.15342 0.75269 0.0
H3107 H 0.81621 0.18657 0.76157 0.0
C3108 C 0.84252 0.07683 0.76626 0.0
C3109 C 0.8454 0.05978 0.74795 0.0
C3110 C 0.83531 0.10073 0.7612 0.0
C3111 C 0.83023 0.1078 0.73779 0.0
C3112 C 0.83361 0.09082 0.71938 0.0
C3113 C 0.84152 0.06704 0.72441 0.0
C3114 C 0.77869 0.15025 0.72885 0.0
C3115 C 0.78601 0.1697 0.74349 0.0
C3116 C 0.79465 0.13118 0.72381 0.0
C3117 C 0.81789 0.1314 0.73371 0.0
C3118 C 0.82623 0.15275 0.74511 0.0
C3119 C 0.81032 0.17184 0.74997 0.0
loop_
_geom_bond_atom_site_label_1
_geom_bond_atom_site_label_2
_geom_bond_distance
_geom_bond_site_symmetry_2
_ccdc_geom_bond_type
Mn0 O5 2.088 1_455 S
Mn0 O15 2.162 . S
Mn0 O16 2.297 . S
Mn0 O24 2.385 . S
Mn0 O25 2.201 1_455 S
Mn0 O26 2.094 1_455 S
Mn1 O6 2.121 . S
Mn1 N8 2.257 . S
Mn1 N17 2.282 . S
Mn1 O25 2.256 . S
Mn1 O27 2.117 . S
C2 O24 1.234 . S
C2 O25 1.276 1_455 S
C3 O15 1.281 . S
C3 O16 1.236 . S
C4 O26 1.240 . S
C4 O27 1.264 . S
O5 Mn0 2.088 1_655 S
O5 C14 1.255 . S
O6 Mn1 2.121 . S
O6 C14 1.258 . S
C7 N8 1.326 . S
C7 C11 1.460 . S
C7 H13 0.929 . S
N8 Mn1 2.257 . S
N8 C7 1.326 . S
N8 C12 1.362 . S
C9 C10 1.245 1_554 S
C9 C12 1.431 . S
C9 C29 1.449 . S
C10 C9 1.245 1_556 S
C10 C11 1.473 1_556 S
C10 H30 0.947 . S
C11 C7 1.460 . S
C11 C10 1.473 1_554 S
C11 H31 0.930 1_554 S
C12 N8 1.362 . S
C12 C9 1.431 . S
C12 C22 1.476 . S
H13 C7 0.929 . S
C14 O5 1.255 . S
C14 O6 1.258 . S
O15 Mn0 2.162 . S
O15 C3 1.281 . S
O16 Mn0 2.297 . S
O16 C3 1.236 . S
N17 Mn1 2.282 . S
N17 C18 1.328 . S
N17 C22 1.318 . S
C18 N17 1.328 . S
C18 C19 1.457 . S
C18 H23 0.929 . S
C19 C18 1.457 . S
C19 C20 1.291 . S
C19 H32 0.931 . S
C20 C19 1.291 . S
C20 C21 1.373 . S
C20 H33 0.929 . S
C21 C20 1.373 . S
C21 C22 1.396 . S
C21 C28 1.403 . S
C22 C12 1.476 . S
C22 N17 1.318 . S
C22 C21 1.396 . S
H23 C18 0.929 . S
O24 Mn0 2.385 . S
O24 C2 1.234 . S
O25 Mn0 2.201 1_655 S
O25 Mn1 2.256 . S
O25 C2 1.276 1_655 S
O26 Mn0 2.094 1_655 S
O26 C4 1.240 . S
O27 Mn1 2.117 . S
O27 C4 1.264 . S
C28 C21 1.403 . S
C28 C29 1.399 . S
C28 H34 0.929 . S
C29 C9 1.449 . S
C29 C28 1.399 . S
C29 H35 0.930 1_554 S
H30 C10 0.947 . S
H31 C11 0.930 1_556 S
H32 C19 0.931 . S
H33 C20 0.929 . S
H34 C28 0.929 . S
H35 C29 0.930 1_556 S
Mn36 O41 2.100 . S
Mn36 O51 2.162 . S
Mn36 O52 2.297 . S
Mn36 O60 2.385 . S
Mn36 O61 2.209 . S
Mn36 O62 2.094 1_455 S
Mn37 O42 2.121 . S
Mn37 N44 2.257 . S
Mn37 N53 2.282 . S
Mn37 O61 2.215 1_655 S
Mn37 O63 2.117 . S
C38 O60 1.234 . S
C38 O61 1.283 . S
C39 O51 1.281 . S
C39 O52 1.236 . S
C40 O62 1.240 . S
C40 O63 1.264 . S
O41 Mn36 2.100 . S
O41 C50 1.247 1_455 S
O42 Mn37 2.121 . S
O42 C50 1.258 . S
C43 N44 1.326 . S
C43 C47 1.460 . S
C43 H49 0.929 . S
N44 Mn37 2.257 . S
N44 C43 1.326 . S
N44 C48 1.362 . S
C45 C46 1.258 . S
C45 C48 1.431 . S
C45 C65 1.449 . S
C46 C45 1.258 . S
C46 C47 1.477 . S
C46 H66 0.931 . S
C47 C43 1.460 . S
C47 C46 1.477 . S
C47 H67 0.930 . S
C48 N44 1.362 . S
C48 C45 1.431 . S
C48 C58 1.476 . S
H49 C43 0.929 . S
C50 O41 1.247 1_655 S
C50 O42 1.258 . S
O51 Mn36 2.162 . S
O51 C39 1.281 . S
O52 Mn36 2.297 . S
O52 C39 1.236 . S
N53 Mn37 2.282 . S
N53 C54 1.328 . S
N53 C58 1.318 . S
C54 N53 1.328 . S
C54 C55 1.457 . S
C54 H59 0.929 . S
C55 C54 1.457 . S
C55 C56 1.291 . S
C55 H68 0.931 . S
C56 C55 1.291 . S
C56 C57 1.373 . S
C56 H69 0.929 . S
C57 C56 1.373 . S
C57 C58 1.396 . S
C57 C64 1.403 . S
C58 C48 1.476 . S
C58 N53 1.318 . S
C58 C57 1.396 . S
H59 C54 0.929 . S
O60 Mn36 2.385 . S
O60 C38 1.234 . S
O61 Mn36 2.209 . S
O61 Mn37 2.215 1_455 S
O61 C38 1.283 . S
O62 Mn36 2.094 1_655 S
O62 C40 1.240 . S
O63 Mn37 2.117 . S
O63 C40 1.264 . S
C64 C57 1.403 . S
C64 C65 1.399 . S
C64 H70 0.929 . S
C65 C45 1.449 . S
C65 C64 1.399 . S
C65 H71 0.930 . S
H66 C46 0.931 . S
H67 C47 0.930 . S
H68 C55 0.931 . S
H69 C56 0.929 . S
H70 C64 0.929 . S
H71 C65 0.930 . S
Mn72 O77 2.095 . S
Mn72 O87 2.162 . S
Mn72 O88 2.297 . S
Mn72 O96 2.385 . S
Mn72 O97 2.209 . S
Mn72 O98 2.094 . S
Mn73 O78 2.121 . S
Mn73 N80 2.257 . S
Mn73 N89 2.282 . S
Mn73 O97 2.215 . S
Mn73 O99 2.117 . S
C74 O96 1.234 . S
C74 O97 1.283 . S
C75 O87 1.281 . S
C75 O88 1.236 . S
C76 O98 1.240 . S
C76 O99 1.264 . S
O77 Mn72 2.095 . S
O77 C86 1.250 . S
O78 Mn73 2.121 . S
O78 C86 1.258 . S
C79 N80 1.326 . S
C79 C83 1.460 . S
C79 H85 0.929 . S
N80 Mn73 2.257 . S
N80 C79 1.326 . S
N80 C84 1.362 . S
C81 C82 1.258 . S
C81 C84 1.431 . S
C81 C101 1.449 . S
C82 C81 1.258 . S
C82 C83 1.477 . S
C82 H102 0.931 . S
C83 C79 1.460 . S
C83 C82 1.477 . S
C83 H103 0.930 . S
C84 N80 1.362 . S
C84 C81 1.431 . S
C84 C94 1.476 . S
H85 C79 0.929 . S
C86 O77 1.250 . S
C86 O78 1.258 . S
O87 Mn72 2.162 . S
O87 C75 1.281 . S
O88 Mn72 2.297 . S
O88 C75 1.236 . S
N89 Mn73 2.282 . S
N89 C90 1.328 . S
N89 C94 1.318 . S
C90 N89 1.328 . S
C90 C91 1.457 . S
C90 H95 0.929 . S
C91 C90 1.457 . S
C91 C92 1.291 . S
C91 H104 0.931 . S
C92 C91 1.291 . S
C92 C93 1.373 . S
C92 H105 0.929 . S
C93 C92 1.373 . S
C93 C94 1.396 . S
C93 C100 1.403 . S
C94 C84 1.476 . S
C94 N89 1.318 . S
C94 C93 1.396 . S
H95 C90 0.929 . S
O96 Mn72 2.385 . S
O96 C74 1.234 . S
O97 Mn72 2.209 . S
O97 Mn73 2.215 . S
O97 C74 1.283 . S
O98 Mn72 2.094 . S
O98 C76 1.240 . S
O99 Mn73 2.117 . S
O99 C76 1.264 . S
C100 C93 1.403 . S
C100 C101 1.399 . S
C100 H106 0.929 . S
C101 C81 1.449 . S
C101 C100 1.399 . S
C101 H107 0.930 . S
H102 C82 0.931 . S
H103 C83 0.930 . S
H104 C91 0.931 . S
H105 C92 0.929 . S
H106 C100 0.929 . S
H107 C101 0.930 . S
Mn108 O113 2.095 . S
Mn108 O123 2.162 . S
Mn108 O124 2.297 . S
Mn108 O132 2.385 . S
Mn108 O133 2.209 . S
Mn108 O134 2.094 . S
Mn109 O114 2.121 . S
Mn109 N116 2.257 . S
Mn109 N125 2.282 . S
Mn109 O133 2.215 . S
Mn109 O135 2.117 . S
C110 O132 1.234 . S
C110 O133 1.283 . S
C111 O123 1.281 . S
C111 O124 1.236 . S
C112 O134 1.240 . S
C112 O135 1.264 . S
O113 Mn108 2.095 . S
O113 C122 1.250 . S
O114 Mn109 2.121 . S
O114 C122 1.258 . S
C115 N116 1.326 . S
C115 C119 1.460 . S
C115 H121 0.929 . S
N116 Mn109 2.257 . S
N116 C115 1.326 . S
N116 C120 1.362 . S
C117 C118 1.258 1_556 S
C117 C120 1.431 . S
C117 C137 1.449 . S
C118 C117 1.258 1_554 S
C118 C119 1.477 1_554 S
C118 H138 0.931 . S
C119 C115 1.460 . S
C119 C118 1.477 1_556 S
C119 H139 0.930 1_556 S
C120 N116 1.362 . S
C120 C117 1.431 . S
C120 C130 1.476 . S
H121 C115 0.929 . S
C122 O113 1.250 . S
C122 O114 1.258 . S
O123 Mn108 2.162 . S
O123 C111 1.281 . S
O124 Mn108 2.297 . S
O124 C111 1.236 . S
N125 Mn109 2.282 . S
N125 C126 1.328 . S
N125 C130 1.318 . S
C126 N125 1.328 . S
C126 C127 1.457 . S
C126 H131 0.929 . S
C127 C126 1.457 . S
C127 C128 1.291 . S
C127 H140 0.931 . S
C128 C127 1.291 . S
C128 C129 1.373 . S
C128 H141 0.929 . S
C129 C128 1.373 . S
C129 C130 1.396 . S
C129 C136 1.403 . S
C130 C120 1.476 . S
C130 N125 1.318 . S
C130 C129 1.396 . S
H131 C126 0.929 . S
O132 Mn108 2.385 . S
O132 C110 1.234 . S
O133 Mn108 2.209 . S
O133 Mn109 2.215 . S
O133 C110 1.283 . S
O134 Mn108 2.094 . S
O134 C112 1.240 . S
O135 Mn109 2.117 . S
O135 C112 1.264 . S
C136 C129 1.403 . S
C136 C137 1.399 . S
C136 H142 0.929 . S
C137 C117 1.449 . S
C137 C136 1.399 . S
C137 H143 0.930 1_556 S
H138 C118 0.931 . S
H139 C119 0.930 1_554 S
H140 C127 0.931 . S
H141 C128 0.929 . S
H142 C136 0.929 . S
H143 C137 0.930 1_554 S
Mn144 O149 2.095 1_545 S
Mn144 O159 2.162 . S
Mn144 O160 2.297 . S
Mn144 O168 2.385 . S
Mn144 O169 2.209 . S
Mn144 O170 2.094 . S
Mn145 O150 2.121 1_545 S
Mn145 N152 2.257 . S
Mn145 N161 2.282 . S
Mn145 O169 2.215 . S
Mn145 O171 2.117 . S
C146 O168 1.234 . S
C146 O169 1.283 . S
C147 O159 1.281 . S
C147 O160 1.236 . S
C148 O170 1.240 . S
C148 O171 1.264 . S
O149 Mn144 2.095 1_565 S
O149 C158 1.250 . S
O150 Mn145 2.121 1_565 S
O150 C158 1.258 . S
C151 N152 1.326 . S
C151 C155 1.460 . S
C151 H157 0.929 1_545 S
N152 Mn145 2.257 . S
N152 C151 1.326 . S
N152 C156 1.362 . S
C153 C154 1.258 . S
C153 C156 1.431 . S
C153 C173 1.449 . S
C154 C153 1.258 . S
C154 C155 1.477 . S
C154 H174 0.931 . S
C155 C151 1.460 . S
C155 C154 1.477 . S
C155 H175 0.904 1_545 S
C156 N152 1.362 . S
C156 C153 1.431 . S
C156 C166 1.476 . S
H157 C151 0.929 1_565 S
C158 O149 1.250 . S
C158 O150 1.258 . S
O159 Mn144 2.162 . S
O159 C147 1.281 . S
O160 Mn144 2.297 . S
O160 C147 1.236 . S
N161 Mn145 2.282 . S
N161 C162 1.328 . S
N161 C166 1.318 . S
C162 N161 1.328 . S
C162 C163 1.457 . S
C162 H167 0.929 . S
C163 C162 1.457 . S
C163 C164 1.291 . S
C163 H176 0.931 . S
C164 C163 1.291 . S
C164 C165 1.373 . S
C164 H177 0.929 . S
C165 C164 1.373 . S
C165 C166 1.396 . S
C165 C172 1.403 . S
C166 C156 1.476 . S
C166 N161 1.318 . S
C166 C165 1.396 . S
H167 C162 0.929 . S
O168 Mn144 2.385 . S
O168 C146 1.234 . S
O169 Mn144 2.209 . S
O169 Mn145 2.215 . S
O169 C146 1.283 . S
O170 Mn144 2.094 . S
O170 C148 1.240 . S
O171 Mn145 2.117 . S
O171 C148 1.264 . S
C172 C165 1.403 . S
C172 C173 1.399 . S
C172 H178 0.929 . S
C173 C153 1.449 . S
C173 C172 1.399 . S
C173 H179 0.930 . S
H174 C154 0.931 . S
H175 C155 0.904 1_565 S
H176 C163 0.931 . S
H177 C164 0.929 . S
H178 C172 0.929 . S
H179 C173 0.930 . S
Mn180 O185 2.095 . S
Mn180 O195 2.162 . S
Mn180 O196 2.297 . S
Mn180 O204 2.385 . S
Mn180 O205 2.209 . S
Mn180 O206 2.094 . S
Mn181 O186 2.121 . S
Mn181 N188 2.257 . S
Mn181 N197 2.282 . S
Mn181 O205 2.215 . S
Mn181 O207 2.117 . S
C182 O204 1.234 . S
C182 O205 1.283 . S
C183 O195 1.281 . S
C183 O196 1.236 . S
C184 O206 1.240 . S
C184 O207 1.264 . S
O185 Mn180 2.095 . S
O185 C194 1.250 . S
O186 Mn181 2.121 . S
O186 C194 1.258 . S
C187 N188 1.326 . S
C187 C191 1.440 1_565 S
C187 H193 0.929 . S
N188 Mn181 2.257 . S
N188 C187 1.326 . S
N188 C192 1.362 . S
C189 C190 1.258 1_565 S
C189 C192 1.431 . S
C189 C209 1.449 . S
C190 C189 1.258 1_545 S
C190 C191 1.482 . S
C190 H210 0.931 . S
C191 C187 1.440 1_545 S
C191 C190 1.482 . S
C191 H211 0.945 . S
C192 N188 1.362 . S
C192 C189 1.431 . S
C192 C202 1.476 . S
H193 C187 0.929 . S
C194 O185 1.250 . S
C194 O186 1.258 . S
O195 Mn180 2.162 . S
O195 C183 1.281 . S
O196 Mn180 2.297 . S
O196 C183 1.236 . S
N197 Mn181 2.282 . S
N197 C198 1.328 . S
N197 C202 1.318 . S
C198 N197 1.328 . S
C198 C199 1.457 . S
C198 H203 0.929 . S
C199 C198 1.457 . S
C199 C200 1.291 . S
C199 H212 0.931 . S
C200 C199 1.291 . S
C200 C201 1.373 . S
C200 H213 0.929 . S
C201 C200 1.373 . S
C201 C202 1.396 . S
C201 C208 1.403 . S
C202 C192 1.476 . S
C202 N197 1.318 . S
C202 C201 1.396 . S
H203 C198 0.929 . S
O204 Mn180 2.385 . S
O204 C182 1.234 . S
O205 Mn180 2.209 . S
O205 Mn181 2.215 . S
O205 C182 1.283 . S
O206 Mn180 2.094 . S
O206 C184 1.240 . S
O207 Mn181 2.117 . S
O207 C184 1.264 . S
C208 C201 1.403 . S
C208 C209 1.399 . S
C208 H214 0.929 . S
C209 C189 1.449 . S
C209 C208 1.399 . S
C209 H215 0.930 1_565 S
H210 C190 0.931 . S
H211 C191 0.945 . S
H212 C199 0.931 . S
H213 C200 0.929 . S
H214 C208 0.929 . S
H215 C209 0.930 1_545 S
Mn216 O221 2.095 . S
Mn216 O231 2.162 . S
Mn216 O232 2.297 . S
Mn216 O240 2.385 1_545 S
Mn216 O241 2.209 1_545 S
Mn216 O242 2.094 . S
Mn217 O222 2.121 . S
Mn217 N224 2.257 1_545 S
Mn217 N233 2.282 1_545 S
Mn217 O241 2.215 1_545 S
Mn217 O243 2.117 . S
C218 O240 1.234 . S
C218 O241 1.283 . S
C219 O231 1.281 . S
C219 O232 1.236 . S
C220 O242 1.240 . S
C220 O243 1.264 . S
O221 Mn216 2.095 . S
O221 C230 1.250 . S
O222 Mn217 2.121 . S
O222 C230 1.258 . S
C223 N224 1.326 1_545 S
C223 C227 1.460 1_545 S
C223 H229 0.929 . S
N224 Mn217 2.257 1_565 S
N224 C223 1.326 1_565 S
N224 C228 1.362 . S
C225 C226 1.258 . S
C225 C228 1.431 . S
C225 C245 1.449 . S
C226 C225 1.258 . S
C226 C227 1.477 . S
C226 H246 0.931 . S
C227 C223 1.460 1_565 S
C227 C226 1.477 . S
C227 H247 0.930 1_565 S
C228 N224 1.362 . S
C228 C225 1.431 . S
C228 C238 1.476 . S
H229 C223 0.929 . S
C230 O221 1.250 . S
C230 O222 1.258 . S
O231 Mn216 2.162 . S
O231 C219 1.281 . S
O232 Mn216 2.297 . S
O232 C219 1.236 . S
N233 Mn217 2.282 1_565 S
N233 C234 1.328 . S
N233 C238 1.318 . S
C234 N233 1.328 . S
C234 C235 1.457 . S
C234 H239 0.929 . S
C235 C234 1.457 . S
C235 C236 1.291 . S
C235 H248 0.931 . S
C236 C235 1.291 . S
C236 C237 1.373 . S
C236 H249 0.929 . S
C237 C236 1.373 . S
C237 C238 1.396 . S
C237 C244 1.403 . S
C238 C228 1.476 . S
C238 N233 1.318 . S
C238 C237 1.396 . S
H239 C234 0.929 . S
O240 Mn216 2.385 1_565 S
O240 C218 1.234 . S
O241 Mn216 2.209 1_565 S
O241 Mn217 2.215 1_565 S
O241 C218 1.283 . S
O242 Mn216 2.094 . S
O242 C220 1.240 . S
O243 Mn217 2.117 . S
O243 C220 1.264 . S
C244 C237 1.403 . S
C244 C245 1.399 . S
C244 H250 0.929 . S
C245 C225 1.449 . S
C245 C244 1.399 . S
C245 H251 0.930 . S
H246 C226 0.931 . S
H247 C227 0.930 1_545 S
H248 C235 0.931 . S
H249 C236 0.929 . S
H250 C244 0.929 . S
H251 C245 0.930 . S
Mn252 O257 2.093 1_554 S
Mn252 O267 2.162 . S
Mn252 O268 2.297 . S
Mn252 O276 2.385 . S
Mn252 O277 2.208 . S
Mn252 O278 2.094 1_554 S
Mn253 O258 2.121 . S
Mn253 N260 2.257 . S
Mn253 N269 2.282 . S
Mn253 O277 2.219 1_556 S
Mn253 O279 2.117 . S
C254 O276 1.234 . S
C254 O277 1.282 . S
C255 O267 1.281 . S
C255 O268 1.236 . S
C256 O278 1.240 . S
C256 O279 1.264 . S
O257 Mn252 2.093 1_556 S
O257 C266 1.252 . S
O258 Mn253 2.121 . S
O258 C266 1.258 . S
C259 N260 1.326 . S
C259 C263 1.460 . S
C259 H265 0.929 . S
N260 Mn253 2.257 . S
N260 C259 1.326 . S
N260 C264 1.362 . S
C261 C262 1.254 . S
C261 C264 1.431 . S
C261 C281 1.449 . S
C262 C261 1.254 . S
C262 C263 1.476 . S
C262 H282 0.935 1_545 S
C263 C259 1.460 . S
C263 C262 1.476 . S
C263 H283 0.930 1_545 S
C264 N260 1.362 . S
C264 C261 1.431 . S
C264 C274 1.476 . S
H265 C259 0.929 . S
C266 O257 1.252 . S
C266 O258 1.258 . S
O267 Mn252 2.162 . S
O267 C255 1.281 . S
O268 Mn252 2.297 . S
O268 C255 1.236 . S
N269 Mn253 2.282 . S
N269 C270 1.328 . S
N269 C274 1.318 . S
C270 N269 1.328 . S
C270 C271 1.457 . S
C270 H275 0.929 . S
C271 C270 1.457 . S
C271 C272 1.291 . S
C271 H284 0.931 . S
C272 C271 1.291 . S
C272 C273 1.373 . S
C272 H285 0.929 . S
C273 C272 1.373 . S
C273 C274 1.396 . S
C273 C280 1.403 . S
C274 C264 1.476 . S
C274 N269 1.318 . S
C274 C273 1.396 . S
H275 C270 0.929 . S
O276 Mn252 2.385 . S
O276 C254 1.234 . S
O277 Mn252 2.208 . S
O277 Mn253 2.219 1_554 S
O277 C254 1.282 . S
O278 Mn252 2.094 1_556 S
O278 C256 1.240 . S
O279 Mn253 2.117 . S
O279 C256 1.264 . S
C280 C273 1.403 . S
C280 C281 1.399 . S
C280 H286 0.929 . S
C281 C261 1.449 . S
C281 C280 1.399 . S
C281 H287 0.930 1_545 S
H282 C262 0.935 1_565 S
H283 C263 0.930 1_565 S
H284 C271 0.931 . S
H285 C272 0.929 . S
H286 C280 0.929 . S
H287 C281 0.930 1_565 S
Mn288 O293 2.088 1_554 S
Mn288 O303 2.162 . S
Mn288 O304 2.297 . S
Mn288 O312 2.385 . S
Mn288 O313 2.207 1_554 S
Mn288 O314 2.094 1_554 S
Mn289 O294 2.121 . S
Mn289 N296 2.257 . S
Mn289 N305 2.282 . S
Mn289 O313 2.224 . S
Mn289 O315 2.117 . S
C290 O312 1.234 . S
C290 O313 1.281 1_554 S
C291 O303 1.281 . S
C291 O304 1.236 . S
C292 O314 1.240 . S
C292 O315 1.264 . S
O293 Mn288 2.088 1_556 S
O293 C302 1.255 . S
O294 Mn289 2.121 . S
O294 C302 1.258 . S
C295 N296 1.326 . S
C295 C299 1.460 . S
C295 H301 0.929 . S
N296 Mn289 2.257 . S
N296 C295 1.326 . S
N296 C300 1.362 . S
C297 C298 1.258 . S
C297 C300 1.431 . S
C297 C317 1.449 . S
C298 C297 1.258 . S
C298 C299 1.477 . S
C298 H318 0.931 . S
C299 C295 1.460 . S
C299 C298 1.477 . S
C299 H319 0.930 . S
C300 N296 1.362 . S
C300 C297 1.431 . S
C300 C310 1.476 . S
H301 C295 0.929 . S
C302 O293 1.255 . S
C302 O294 1.258 . S
O303 Mn288 2.162 . S
O303 C291 1.281 . S
O304 Mn288 2.297 . S
O304 C291 1.236 . S
N305 Mn289 2.282 . S
N305 C306 1.328 . S
N305 C310 1.318 . S
C306 N305 1.328 . S
C306 C307 1.457 . S
C306 H311 0.929 . S
C307 C306 1.457 . S
C307 C308 1.291 . S
C307 H320 0.931 . S
C308 C307 1.291 . S
C308 C309 1.373 . S
C308 H321 0.929 . S
C309 C308 1.373 . S
C309 C310 1.396 . S
C309 C316 1.403 . S
C310 C300 1.476 . S
C310 N305 1.318 . S
C310 C309 1.396 . S
H311 C306 0.929 . S
O312 Mn288 2.385 . S
O312 C290 1.234 . S
O313 Mn288 2.207 1_556 S
O313 Mn289 2.224 . S
O313 C290 1.281 1_556 S
O314 Mn288 2.094 1_556 S
O314 C292 1.240 . S
O315 Mn289 2.117 . S
O315 C292 1.264 . S
C316 C309 1.403 . S
C316 C317 1.399 . S
C316 H322 0.929 . S
C317 C297 1.449 . S
C317 C316 1.399 . S
C317 H323 0.930 . S
H318 C298 0.931 . S
H319 C299 0.930 . S
H320 C307 0.931 . S
H321 C308 0.929 . S
H322 C316 0.929 . S
H323 C317 0.930 . S
Mn324 O329 2.095 . S
Mn324 O339 2.162 . S
Mn324 O340 2.297 . S
Mn324 O348 2.385 . S
Mn324 O349 2.209 . S
Mn324 O350 2.094 . S
Mn325 O330 2.121 . S
Mn325 N332 2.257 . S
Mn325 N341 2.282 . S
Mn325 O349 2.215 . S
Mn325 O351 2.117 . S
C326 O348 1.234 . S
C326 O349 1.283 . S
C327 O339 1.281 . S
C327 O340 1.236 . S
C328 O350 1.240 . S
C328 O351 1.264 . S
O329 Mn324 2.095 . S
O329 C338 1.250 . S
O330 Mn325 2.121 . S
O330 C338 1.258 . S
C331 N332 1.326 . S
C331 C335 1.460 . S
C331 H337 0.929 . S
N332 Mn325 2.257 . S
N332 C331 1.326 . S
N332 C336 1.362 . S
C333 C334 1.258 . S
C333 C336 1.431 . S
C333 C353 1.449 . S
C334 C333 1.258 . S
C334 C335 1.477 . S
C334 H354 0.931 . S
C335 C331 1.460 . S
C335 C334 1.477 . S
C335 H355 0.930 . S
C336 N332 1.362 . S
C336 C333 1.431 . S
C336 C346 1.476 . S
H337 C331 0.929 . S
C338 O329 1.250 . S
C338 O330 1.258 . S
O339 Mn324 2.162 . S
O339 C327 1.281 . S
O340 Mn324 2.297 . S
O340 C327 1.236 . S
N341 Mn325 2.282 . S
N341 C342 1.328 . S
N341 C346 1.318 . S
C342 N341 1.328 . S
C342 C343 1.457 . S
C342 H347 0.929 . S
C343 C342 1.457 . S
C343 C344 1.291 . S
C343 H356 0.931 . S
C344 C343 1.291 . S
C344 C345 1.373 . S
C344 H357 0.929 . S
C345 C344 1.373 . S
C345 C346 1.396 . S
C345 C352 1.403 . S
C346 C336 1.476 . S
C346 N341 1.318 . S
C346 C345 1.396 . S
H347 C342 0.929 . S
O348 Mn324 2.385 . S
O348 C326 1.234 . S
O349 Mn324 2.209 . S
O349 Mn325 2.215 . S
O349 C326 1.283 . S
O350 Mn324 2.094 . S
O350 C328 1.240 . S
O351 Mn325 2.117 . S
O351 C328 1.264 . S
C352 C345 1.403 . S
C352 C353 1.399 . S
C352 H358 0.929 . S
C353 C333 1.449 . S
C353 C352 1.399 . S
C353 H359 0.930 . S
H354 C334 0.931 . S
H355 C335 0.930 . S
H356 C343 0.931 . S
H357 C344 0.929 . S
H358 C352 0.929 . S
H359 C353 0.930 . S
Mn360 O365 2.095 . S
Mn360 O375 2.162 . S
Mn360 O376 2.297 . S
Mn360 O384 2.385 . S
Mn360 O385 2.209 . S
Mn360 O386 2.094 . S
Mn361 O366 2.121 . S
Mn361 N368 2.257 . S
Mn361 N377 2.282 . S
Mn361 O385 2.215 . S
Mn361 O387 2.117 . S
C362 O384 1.234 . S
C362 O385 1.283 . S
C363 O375 1.281 . S
C363 O376 1.236 . S
C364 O386 1.240 . S
C364 O387 1.264 . S
O365 Mn360 2.095 . S
O365 C374 1.250 . S
O366 Mn361 2.121 . S
O366 C374 1.258 . S
C367 N368 1.326 . S
C367 C371 1.460 . S
C367 H373 0.929 . S
N368 Mn361 2.257 . S
N368 C367 1.326 . S
N368 C372 1.362 . S
C369 C370 1.258 . S
C369 C372 1.431 . S
C369 C389 1.449 . S
C370 C369 1.258 . S
C370 C371 1.477 . S
C370 H390 0.931 . S
C371 C367 1.460 . S
C371 C370 1.477 . S
C371 H391 0.930 . S
C372 N368 1.362 . S
C372 C369 1.431 . S
C372 C382 1.476 . S
H373 C367 0.929 . S
C374 O365 1.250 . S
C374 O366 1.258 . S
O375 Mn360 2.162 . S
O375 C363 1.281 . S
O376 Mn360 2.297 . S
O376 C363 1.236 . S
N377 Mn361 2.282 . S
N377 C378 1.328 . S
N377 C382 1.318 . S
C378 N377 1.328 . S
C378 C379 1.457 . S
C378 H383 0.929 . S
C379 C378 1.457 . S
C379 C380 1.291 . S
C379 H392 0.931 . S
C380 C379 1.291 . S
C380 C381 1.373 . S
C380 H393 0.929 . S
C381 C380 1.373 . S
C381 C382 1.396 . S
C381 C388 1.403 . S
C382 C372 1.476 . S
C382 N377 1.318 . S
C382 C381 1.396 . S
H383 C378 0.929 . S
O384 Mn360 2.385 . S
O384 C362 1.234 . S
O385 Mn360 2.209 . S
O385 Mn361 2.215 . S
O385 C362 1.283 . S
O386 Mn360 2.094 . S
O386 C364 1.240 . S
O387 Mn361 2.117 . S
O387 C364 1.264 . S
C388 C381 1.403 . S
C388 C389 1.399 . S
C388 H394 0.929 . S
C389 C369 1.449 . S
C389 C388 1.399 . S
C389 H395 0.930 . S
H390 C370 0.931 . S
H391 C371 0.930 . S
H392 C379 0.931 . S
H393 C380 0.929 . S
H394 C388 0.929 . S
H395 C389 0.930 . S
Mn396 O401 2.095 . S
Mn396 O411 2.162 . S
Mn396 O412 2.297 . S
Mn396 O420 2.385 . S
Mn396 O421 2.209 . S
Mn396 O422 2.094 . S
Mn397 O402 2.121 . S
Mn397 N404 2.257 . S
Mn397 N413 2.282 . S
Mn397 O421 2.215 . S
Mn397 O423 2.117 . S
C398 O420 1.234 . S
C398 O421 1.283 . S
C399 O411 1.281 . S
C399 O412 1.236 . S
C400 O422 1.240 . S
C400 O423 1.264 . S
O401 Mn396 2.095 . S
O401 C410 1.250 . S
O402 Mn397 2.121 . S
O402 C410 1.258 . S
C403 N404 1.326 . S
C403 C407 1.460 . S
C403 H409 0.929 . S
N404 Mn397 2.257 . S
N404 C403 1.326 . S
N404 C408 1.362 . S
C405 C406 1.258 . S
C405 C408 1.431 . S
C405 C425 1.449 . S
C406 C405 1.258 . S
C406 C407 1.477 . S
C406 H426 0.931 . S
C407 C403 1.460 . S
C407 C406 1.477 . S
C407 H427 0.930 . S
C408 N404 1.362 . S
C408 C405 1.431 . S
C408 C418 1.476 . S
H409 C403 0.929 . S
C410 O401 1.250 . S
C410 O402 1.258 . S
O411 Mn396 2.162 . S
O411 C399 1.281 . S
O412 Mn396 2.297 . S
O412 C399 1.236 . S
N413 Mn397 2.282 . S
N413 C414 1.328 . S
N413 C418 1.318 . S
C414 N413 1.328 . S
C414 C415 1.457 . S
C414 H419 0.929 . S
C415 C414 1.457 . S
C415 C416 1.291 . S
C415 H428 0.931 . S
C416 C415 1.291 . S
C416 C417 1.373 . S
C416 H429 0.929 . S
C417 C416 1.373 . S
C417 C418 1.396 . S
C417 C424 1.403 . S
C418 C408 1.476 . S
C418 N413 1.318 . S
C418 C417 1.396 . S
H419 C414 0.929 . S
O420 Mn396 2.385 . S
O420 C398 1.234 . S
O421 Mn396 2.209 . S
O421 Mn397 2.215 . S
O421 C398 1.283 . S
O422 Mn396 2.094 . S
O422 C400 1.240 . S
O423 Mn397 2.117 . S
O423 C400 1.264 . S
C424 C417 1.403 . S
C424 C425 1.399 . S
C424 H430 0.929 . S
C425 C405 1.449 . S
C425 C424 1.399 . S
C425 H431 0.930 . S
H426 C406 0.931 . S
H427 C407 0.930 . S
H428 C415 0.931 . S
H429 C416 0.929 . S
H430 C424 0.929 . S
H431 C425 0.930 . S
Mn432 O437 2.095 . S
Mn432 O447 2.162 . S
Mn432 O448 2.297 . S
Mn432 O456 2.385 . S
Mn432 O457 2.209 . S
Mn432 O458 2.094 1_455 S
Mn433 O438 2.121 . S
Mn433 N440 2.257 . S
Mn433 N449 2.282 . S
Mn433 O457 2.215 1_655 S
Mn433 O459 2.117 . S
C434 O456 1.234 . S
C434 O457 1.283 . S
C435 O447 1.281 . S
C435 O448 1.236 . S
C436 O458 1.240 . S
C436 O459 1.264 . S
O437 Mn432 2.095 . S
O437 C446 1.247 1_455 S
O438 Mn433 2.121 . S
O438 C446 1.274 . S
C439 N440 1.326 . S
C439 C443 1.460 . S
C439 H445 0.929 . S
N440 Mn433 2.257 . S
N440 C439 1.326 . S
N440 C444 1.362 . S
C441 C442 1.258 1_556 S
C441 C444 1.431 . S
C441 C461 1.449 . S
C442 C441 1.258 1_554 S
C442 C443 1.477 1_554 S
C442 H462 0.931 . S
C443 C439 1.460 . S
C443 C442 1.477 1_556 S
C443 H463 0.930 1_556 S
C444 N440 1.362 . S
C444 C441 1.431 . S
C444 C454 1.476 . S
H445 C439 0.929 . S
C446 O437 1.247 1_655 S
C446 O438 1.274 . S
O447 Mn432 2.162 . S
O447 C435 1.281 . S
O448 Mn432 2.297 . S
O448 C435 1.236 . S
N449 Mn433 2.282 . S
N449 C450 1.328 . S
N449 C454 1.318 . S
C450 N449 1.328 . S
C450 C451 1.457 . S
C450 H455 0.929 . S
C451 C450 1.457 . S
C451 C452 1.291 . S
C451 H464 0.931 . S
C452 C451 1.291 . S
C452 C453 1.373 . S
C452 H465 0.929 . S
C453 C452 1.373 . S
C453 C454 1.396 . S
C453 C460 1.403 . S
C454 C444 1.476 . S
C454 N449 1.318 . S
C454 C453 1.396 . S
H455 C450 0.929 . S
O456 Mn432 2.385 . S
O456 C434 1.234 . S
O457 Mn432 2.209 . S
O457 Mn433 2.215 1_455 S
O457 C434 1.283 . S
O458 Mn432 2.094 1_655 S
O458 C436 1.240 . S
O459 Mn433 2.117 . S
O459 C436 1.264 . S
C460 C453 1.403 . S
C460 C461 1.399 . S
C460 H466 0.929 . S
C461 C441 1.449 . S
C461 C460 1.399 . S
C461 H467 0.930 1_556 S
H462 C442 0.931 . S
H463 C443 0.930 1_554 S
H464 C451 0.931 . S
H465 C452 0.929 . S
H466 C460 0.929 . S
H467 C461 0.930 1_554 S
Mn468 O473 2.095 1_455 S
Mn468 O483 2.162 . S
Mn468 O484 2.297 . S
Mn468 O492 2.385 . S
Mn468 O493 2.203 1_455 S
Mn468 O494 2.094 1_455 S
Mn469 O474 2.121 . S
Mn469 N476 2.257 . S
Mn469 N485 2.282 . S
Mn469 O493 2.249 . S
Mn469 O495 2.117 . S
C470 O492 1.234 . S
C470 O493 1.276 1_455 S
C471 O483 1.281 . S
C471 O484 1.236 . S
C472 O494 1.240 . S
C472 O495 1.264 . S
O473 Mn468 2.095 1_655 S
O473 C482 1.250 . S
O474 Mn469 2.121 . S
O474 C482 1.258 . S
C475 N476 1.326 . S
C475 C479 1.460 . S
C475 H481 0.929 . S
N476 Mn469 2.257 . S
N476 C475 1.326 . S
N476 C480 1.362 . S
C477 C478 1.258 . S
C477 C480 1.431 . S
C477 C497 1.449 . S
C478 C477 1.258 . S
C478 C479 1.477 . S
C478 H498 0.931 . S
C479 C475 1.460 . S
C479 C478 1.477 . S
C479 H499 0.930 . S
C480 N476 1.362 . S
C480 C477 1.431 . S
C480 C490 1.476 . S
H481 C475 0.929 . S
C482 O473 1.250 . S
C482 O474 1.258 . S
O483 Mn468 2.162 . S
O483 C471 1.281 . S
O484 Mn468 2.297 . S
O484 C471 1.236 . S
N485 Mn469 2.282 . S
N485 C486 1.328 . S
N485 C490 1.318 . S
C486 N485 1.328 . S
C486 C487 1.457 . S
C486 H491 0.929 . S
C487 C486 1.457 . S
C487 C488 1.291 . S
C487 H500 0.931 . S
C488 C487 1.291 . S
C488 C489 1.373 . S
C488 H501 0.929 . S
C489 C488 1.373 . S
C489 C490 1.396 . S
C489 C496 1.403 . S
C490 C480 1.476 . S
C490 N485 1.318 . S
C490 C489 1.396 . S
H491 C486 0.929 . S
O492 Mn468 2.385 . S
O492 C470 1.234 . S
O493 Mn468 2.203 1_655 S
O493 Mn469 2.249 . S
O493 C470 1.276 1_655 S
O494 Mn468 2.094 1_655 S
O494 C472 1.240 . S
O495 Mn469 2.117 . S
O495 C472 1.264 . S
C496 C489 1.403 . S
C496 C497 1.399 . S
C496 H502 0.929 . S
C497 C477 1.449 . S
C497 C496 1.399 . S
C497 H503 0.930 . S
H498 C478 0.931 . S
H499 C479 0.930 . S
H500 C487 0.931 . S
H501 C488 0.929 . S
H502 C496 0.929 . S
H503 C497 0.930 . S
Mn504 O509 2.095 . S
Mn504 O519 2.162 . S
Mn504 O520 2.297 . S
Mn504 O528 2.385 . S
Mn504 O529 2.209 . S
Mn504 O530 2.094 . S
Mn505 O510 2.121 . S
Mn505 N512 2.257 . S
Mn505 N521 2.282 . S
Mn505 O529 2.215 . S
Mn505 O531 2.117 . S
C506 O528 1.234 . S
C506 O529 1.283 . S
C507 O519 1.281 . S
C507 O520 1.236 . S
C508 O530 1.240 . S
C508 O531 1.264 . S
O509 Mn504 2.095 . S
O509 C518 1.250 . S
O510 Mn505 2.121 . S
O510 C518 1.258 . S
C511 N512 1.326 . S
C511 C515 1.460 . S
C511 H517 0.929 . S
N512 Mn505 2.257 . S
N512 C511 1.326 . S
N512 C516 1.362 . S
C513 C514 1.258 . S
C513 C516 1.431 . S
C513 C533 1.449 . S
C514 C513 1.258 . S
C514 C515 1.477 . S
C514 H534 0.931 . S
C515 C511 1.460 . S
C515 C514 1.477 . S
C515 H535 0.930 . S
C516 N512 1.362 . S
C516 C513 1.431 . S
C516 C526 1.476 . S
H517 C511 0.929 . S
C518 O509 1.250 . S
C518 O510 1.258 . S
O519 Mn504 2.162 . S
O519 C507 1.281 . S
O520 Mn504 2.297 . S
O520 C507 1.236 . S
N521 Mn505 2.282 . S
N521 C522 1.328 . S
N521 C526 1.318 . S
C522 N521 1.328 . S
C522 C523 1.457 . S
C522 H527 0.929 . S
C523 C522 1.457 . S
C523 C524 1.291 . S
C523 H536 0.931 . S
C524 C523 1.291 . S
C524 C525 1.373 . S
C524 H537 0.929 . S
C525 C524 1.373 . S
C525 C526 1.396 . S
C525 C532 1.403 . S
C526 C516 1.476 . S
C526 N521 1.318 . S
C526 C525 1.396 . S
H527 C522 0.929 . S
O528 Mn504 2.385 . S
O528 C506 1.234 . S
O529 Mn504 2.209 . S
O529 Mn505 2.215 . S
O529 C506 1.283 . S
O530 Mn504 2.094 . S
O530 C508 1.240 . S
O531 Mn505 2.117 . S
O531 C508 1.264 . S
C532 C525 1.403 . S
C532 C533 1.399 . S
C532 H538 0.929 . S
C533 C513 1.449 . S
C533 C532 1.399 . S
C533 H539 0.930 . S
H534 C514 0.931 . S
H535 C515 0.930 . S
H536 C523 0.931 . S
H537 C524 0.929 . S
H538 C532 0.929 . S
H539 C533 0.930 . S
Mn540 O545 2.095 . S
Mn540 O555 2.162 . S
Mn540 O556 2.297 . S
Mn540 O564 2.385 . S
Mn540 O565 2.209 . S
Mn540 O566 2.094 . S
Mn541 O546 2.121 . S
Mn541 N548 2.257 . S
Mn541 N557 2.282 . S
Mn541 O565 2.215 . S
Mn541 O567 2.117 . S
C542 O564 1.234 . S
C542 O565 1.283 . S
C543 O555 1.281 . S
C543 O556 1.236 . S
C544 O566 1.240 . S
C544 O567 1.264 . S
O545 Mn540 2.095 . S
O545 C554 1.250 . S
O546 Mn541 2.121 . S
O546 C554 1.258 . S
C547 N548 1.326 . S
C547 C551 1.460 . S
C547 H553 0.929 . S
N548 Mn541 2.257 . S
N548 C547 1.326 . S
N548 C552 1.362 . S
C549 C550 1.258 . S
C549 C552 1.431 . S
C549 C569 1.449 . S
C550 C549 1.258 . S
C550 C551 1.477 . S
C550 H570 0.931 1_554 S
C551 C547 1.460 . S
C551 C550 1.477 . S
C551 H571 0.930 1_554 S
C552 N548 1.362 . S
C552 C549 1.431 . S
C552 C562 1.476 . S
H553 C547 0.929 . S
C554 O545 1.250 . S
C554 O546 1.258 . S
O555 Mn540 2.162 . S
O555 C543 1.281 . S
O556 Mn540 2.297 . S
O556 C543 1.236 . S
N557 Mn541 2.282 . S
N557 C558 1.328 . S
N557 C562 1.318 . S
C558 N557 1.328 . S
C558 C559 1.457 . S
C558 H563 0.929 . S
C559 C558 1.457 . S
C559 C560 1.291 . S
C559 H572 0.931 . S
C560 C559 1.291 . S
C560 C561 1.373 . S
C560 H573 0.929 . S
C561 C560 1.373 . S
C561 C562 1.396 . S
C561 C568 1.403 . S
C562 C552 1.476 . S
C562 N557 1.318 . S
C562 C561 1.396 . S
H563 C558 0.929 . S
O564 Mn540 2.385 . S
O564 C542 1.234 . S
O565 Mn540 2.209 . S
O565 Mn541 2.215 . S
O565 C542 1.283 . S
O566 Mn540 2.094 . S
O566 C544 1.240 . S
O567 Mn541 2.117 . S
O567 C544 1.264 . S
C568 C561 1.403 . S
C568 C569 1.399 . S
C568 H574 0.929 . S
C569 C549 1.449 . S
C569 C568 1.399 . S
C569 H575 0.930 1_554 S
H570 C550 0.931 1_556 S
H571 C551 0.930 1_556 S
H572 C559 0.931 . S
H573 C560 0.929 . S
H574 C568 0.929 . S
H575 C569 0.930 1_556 S
Mn576 O581 2.133 . S
Mn576 O591 2.164 . S
Mn576 O592 2.297 . S
Mn576 O600 2.344 1_545 S
Mn576 O601 2.191 1_545 S
Mn576 O602 2.094 . S
Mn577 O582 2.106 1_565 S
Mn577 N584 2.261 . S
Mn577 N593 2.298 . S
Mn577 O601 2.222 . S
Mn577 O603 2.117 1_565 S
C578 O600 1.234 . S
C578 O601 1.283 . S
C579 O591 1.281 . S
C579 O592 1.236 . S
C580 O602 1.240 . S
C580 O603 1.264 . S
O581 Mn576 2.133 . S
O581 C590 1.250 . S
O582 Mn577 2.106 1_545 S
O582 C590 1.258 . S
C583 N584 1.326 1_545 S
C583 C587 1.460 1_545 S
C583 H589 0.929 . S
N584 Mn577 2.261 . S
N584 C583 1.326 1_565 S
N584 C588 1.362 . S
C585 C586 1.258 . S
C585 C588 1.431 . S
C585 C605 1.449 . S
C586 C585 1.258 . S
C586 C587 1.477 . S
C586 H606 0.931 . S
C587 C583 1.460 1_565 S
C587 C586 1.477 . S
C587 H607 0.930 1_565 S
C588 N584 1.362 . S
C588 C585 1.431 . S
C588 C598 1.476 . S
H589 C583 0.929 . S
C590 O581 1.250 . S
C590 O582 1.258 . S
O591 Mn576 2.164 . S
O591 C579 1.281 . S
O592 Mn576 2.297 . S
O592 C579 1.236 . S
N593 Mn577 2.298 . S
N593 C594 1.328 . S
N593 C598 1.318 . S
C594 N593 1.328 . S
C594 C595 1.457 . S
C594 H599 0.929 . S
C595 C594 1.457 . S
C595 C596 1.291 . S
C595 H608 0.931 . S
C596 C595 1.291 . S
C596 C597 1.373 . S
C596 H609 0.929 . S
C597 C596 1.373 . S
C597 C598 1.396 . S
C597 C604 1.403 . S
C598 C588 1.476 . S
C598 N593 1.318 . S
C598 C597 1.396 . S
H599 C594 0.929 . S
O600 Mn576 2.344 1_565 S
O600 C578 1.234 . S
O601 Mn576 2.191 1_565 S
O601 Mn577 2.222 . S
O601 C578 1.283 . S
O602 Mn576 2.094 . S
O602 C580 1.240 . S
O603 Mn577 2.117 1_545 S
O603 C580 1.264 . S
C604 C597 1.403 . S
C604 C605 1.399 . S
C604 H610 0.929 . S
C605 C585 1.449 . S
C605 C604 1.399 . S
C605 H611 0.930 . S
H606 C586 0.931 . S
H607 C587 0.930 1_545 S
H608 C595 0.931 . S
H609 C596 0.929 . S
H610 C604 0.929 . S
H611 C605 0.930 . S
Mn612 O617 2.095 . S
Mn612 O627 2.162 . S
Mn612 O628 2.297 . S
Mn612 O636 2.385 . S
Mn612 O637 2.209 . S
Mn612 O638 2.094 . S
Mn613 O618 2.121 . S
Mn613 N620 2.257 . S
Mn613 N629 2.282 . S
Mn613 O637 2.215 . S
Mn613 O639 2.117 . S
C614 O636 1.234 . S
C614 O637 1.283 . S
C615 O627 1.281 . S
C615 O628 1.236 . S
C616 O638 1.240 . S
C616 O639 1.264 . S
O617 Mn612 2.095 . S
O617 C626 1.250 . S
O618 Mn613 2.121 . S
O618 C626 1.258 . S
C619 N620 1.326 . S
C619 C623 1.460 . S
C619 H625 0.929 . S
N620 Mn613 2.257 . S
N620 C619 1.326 . S
N620 C624 1.362 . S
C621 C622 1.258 1_545 S
C621 C624 1.431 . S
C621 C641 1.449 . S
C622 C621 1.258 1_565 S
C622 C623 1.477 1_565 S
C622 H642 0.931 . S
C623 C619 1.460 . S
C623 C622 1.477 1_545 S
C623 H643 0.930 1_545 S
C624 N620 1.362 . S
C624 C621 1.431 . S
C624 C634 1.476 . S
H625 C619 0.929 . S
C626 O617 1.250 . S
C626 O618 1.258 . S
O627 Mn612 2.162 . S
O627 C615 1.281 . S
O628 Mn612 2.297 . S
O628 C615 1.236 . S
N629 Mn613 2.282 . S
N629 C630 1.328 . S
N629 C634 1.318 . S
C630 N629 1.328 . S
C630 C631 1.457 . S
C630 H635 0.929 . S
C631 C630 1.457 . S
C631 C632 1.291 . S
C631 H644 0.931 . S
C632 C631 1.291 . S
C632 C633 1.373 . S
C632 H645 0.929 . S
C633 C632 1.373 . S
C633 C634 1.396 . S
C633 C640 1.403 . S
C634 C624 1.476 . S
C634 N629 1.318 . S
C634 C633 1.396 . S
H635 C630 0.929 . S
O636 Mn612 2.385 . S
O636 C614 1.234 . S
O637 Mn612 2.209 . S
O637 Mn613 2.215 . S
O637 C614 1.283 . S
O638 Mn612 2.094 . S
O638 C616 1.240 . S
O639 Mn613 2.117 . S
O639 C616 1.264 . S
C640 C633 1.403 . S
C640 C641 1.399 . S
C640 H646 0.929 . S
C641 C621 1.449 . S
C641 C640 1.399 . S
C641 H647 0.930 1_545 S
H642 C622 0.931 . S
H643 C623 0.930 1_565 S
H644 C631 0.931 . S
H645 C632 0.929 . S
H646 C640 0.929 . S
H647 C641 0.930 1_565 S
Mn648 O653 2.095 1_545 S
Mn648 O663 2.162 . S
Mn648 O664 2.297 . S
Mn648 O672 2.385 . S
Mn648 O673 2.209 . S
Mn648 O674 2.094 . S
Mn649 O654 2.121 1_545 S
Mn649 N656 2.257 . S
Mn649 N665 2.282 . S
Mn649 O673 2.215 . S
Mn649 O675 2.117 . S
C650 O672 1.234 . S
C650 O673 1.283 . S
C651 O663 1.282 . S
C651 O664 1.236 . S
C652 O674 1.240 . S
C652 O675 1.264 . S
O653 Mn648 2.095 1_565 S
O653 C662 1.250 . S
O654 Mn649 2.121 1_565 S
O654 C662 1.258 . S
C655 N656 1.326 . S
C655 C659 1.460 . S
C655 H661 0.929 1_545 S
N656 Mn649 2.257 . S
N656 C655 1.326 . S
N656 C660 1.362 . S
C657 C658 1.258 . S
C657 C660 1.431 . S
C657 C677 1.449 . S
C658 C657 1.258 . S
C658 C659 1.477 . S
C658 H678 0.931 . S
C659 C655 1.460 . S
C659 C658 1.477 . S
C659 H679 0.928 . S
C660 N656 1.362 . S
C660 C657 1.431 . S
C660 C670 1.476 . S
H661 C655 0.929 1_565 S
C662 O653 1.250 . S
C662 O654 1.258 . S
O663 Mn648 2.162 . S
O663 C651 1.282 . S
O664 Mn648 2.297 . S
O664 C651 1.236 . S
N665 Mn649 2.282 . S
N665 C666 1.328 . S
N665 C670 1.318 . S
C666 N665 1.328 . S
C666 C667 1.457 . S
C666 H671 0.929 . S
C667 C666 1.457 . S
C667 C668 1.291 . S
C667 H680 0.931 . S
C668 C667 1.291 . S
C668 C669 1.373 . S
C668 H681 0.929 . S
C669 C668 1.373 . S
C669 C670 1.396 . S
C669 C676 1.403 . S
C670 C660 1.476 . S
C670 N665 1.318 . S
C670 C669 1.396 . S
H671 C666 0.929 . S
O672 Mn648 2.385 . S
O672 C650 1.234 . S
O673 Mn648 2.209 . S
O673 Mn649 2.215 . S
O673 C650 1.283 . S
O674 Mn648 2.094 . S
O674 C652 1.240 . S
O675 Mn649 2.117 . S
O675 C652 1.264 . S
C676 C669 1.403 . S
C676 C677 1.399 . S
C676 H682 0.929 . S
C677 C657 1.449 . S
C677 C676 1.399 . S
C677 H683 0.930 . S
H678 C658 0.931 . S
H679 C659 0.928 . S
H680 C667 0.931 . S
H681 C668 0.929 . S
H682 C676 0.929 . S
H683 C677 0.930 . S
Mn684 O689 2.095 . S
Mn684 O699 2.162 . S
Mn684 O700 2.297 . S
Mn684 O708 2.385 . S
Mn684 O709 2.209 . S
Mn684 O710 2.094 1_554 S
Mn685 O690 2.121 . S
Mn685 N692 2.257 . S
Mn685 N701 2.282 . S
Mn685 O709 2.215 1_556 S
Mn685 O711 2.117 . S
C686 O708 1.234 . S
C686 O709 1.283 . S
C687 O699 1.281 . S
C687 O700 1.236 . S
C688 O710 1.240 . S
C688 O711 1.264 . S
O689 Mn684 2.095 . S
O689 C698 1.256 . S
O690 Mn685 2.121 . S
O690 C698 1.235 1_556 S
C691 N692 1.326 . S
C691 C695 1.460 1_565 S
C691 H697 0.929 . S
N692 Mn685 2.257 . S
N692 C691 1.326 . S
N692 C696 1.362 . S
C693 C694 1.258 1_565 S
C693 C696 1.431 . S
C693 C713 1.449 . S
C694 C693 1.258 1_545 S
C694 C695 1.477 . S
C694 H714 0.931 . S
C695 C691 1.460 1_545 S
C695 C694 1.477 . S
C695 H715 0.930 . S
C696 N692 1.362 . S
C696 C693 1.431 . S
C696 C706 1.476 . S
H697 C691 0.929 . S
C698 O689 1.256 . S
C698 O690 1.235 1_554 S
O699 Mn684 2.162 . S
O699 C687 1.281 . S
O700 Mn684 2.297 . S
O700 C687 1.236 . S
N701 Mn685 2.282 . S
N701 C702 1.328 . S
N701 C706 1.318 . S
C702 N701 1.328 . S
C702 C703 1.457 . S
C702 H707 0.929 . S
C703 C702 1.457 . S
C703 C704 1.291 . S
C703 H716 0.931 . S
C704 C703 1.291 . S
C704 C705 1.373 . S
C704 H717 0.929 . S
C705 C704 1.373 . S
C705 C706 1.396 . S
C705 C712 1.403 . S
C706 C696 1.476 . S
C706 N701 1.318 . S
C706 C705 1.396 . S
H707 C702 0.929 . S
O708 Mn684 2.385 . S
O708 C686 1.234 . S
O709 Mn684 2.209 . S
O709 Mn685 2.215 1_554 S
O709 C686 1.283 . S
O710 Mn684 2.094 1_556 S
O710 C688 1.240 . S
O711 Mn685 2.117 . S
O711 C688 1.264 . S
C712 C705 1.403 . S
C712 C713 1.399 . S
C712 H718 0.929 . S
C713 C693 1.449 . S
C713 C712 1.399 . S
C713 H719 0.930 1_565 S
H714 C694 0.931 . S
H715 C695 0.930 . S
H716 C703 0.931 . S
H717 C704 0.929 . S
H718 C712 0.929 . S
H719 C713 0.930 1_545 S
Mn720 O725 2.095 1_554 S
Mn720 O735 2.162 . S
Mn720 O736 2.297 . S
Mn720 O744 2.385 . S
Mn720 O745 2.209 1_554 S
Mn720 O746 2.094 1_554 S
Mn721 O726 2.121 . S
Mn721 N728 2.257 . S
Mn721 N737 2.282 . S
Mn721 O745 2.215 . S
Mn721 O747 2.117 . S
C722 O744 1.236 . S
C722 O745 1.281 1_554 S
C723 O735 1.281 . S
C723 O736 1.236 . S
C724 O746 1.240 . S
C724 O747 1.264 . S
O725 Mn720 2.095 1_556 S
O725 C734 1.250 . S
O726 Mn721 2.121 . S
O726 C734 1.258 . S
C727 N728 1.326 . S
C727 C731 1.460 . S
C727 H733 0.929 . S
N728 Mn721 2.257 . S
N728 C727 1.326 . S
N728 C732 1.362 . S
C729 C730 1.258 . S
C729 C732 1.431 . S
C729 C749 1.449 . S
C730 C729 1.258 . S
C730 C731 1.477 . S
C730 H750 0.931 . S
C731 C727 1.460 . S
C731 C730 1.477 . S
C731 H751 0.930 . S
C732 N728 1.362 . S
C732 C729 1.431 . S
C732 C742 1.476 . S
H733 C727 0.929 . S
C734 O725 1.250 . S
C734 O726 1.258 . S
O735 Mn720 2.162 . S
O735 C723 1.281 . S
O736 Mn720 2.297 . S
O736 C723 1.236 . S
N737 Mn721 2.282 . S
N737 C738 1.328 . S
N737 C742 1.318 . S
C738 N737 1.328 . S
C738 C739 1.457 . S
C738 H743 0.929 . S
C739 C738 1.457 . S
C739 C740 1.291 . S
C739 H752 0.931 . S
C740 C739 1.291 . S
C740 C741 1.373 . S
C740 H753 0.929 . S
C741 C740 1.373 . S
C741 C742 1.396 . S
C741 C748 1.403 . S
C742 C732 1.476 . S
C742 N737 1.318 . S
C742 C741 1.396 . S
H743 C738 0.929 . S
O744 Mn720 2.385 . S
O744 C722 1.236 . S
O745 Mn720 2.209 1_556 S
O745 Mn721 2.215 . S
O745 C722 1.281 1_556 S
O746 Mn720 2.094 1_556 S
O746 C724 1.240 . S
O747 Mn721 2.117 . S
O747 C724 1.264 . S
C748 C741 1.403 . S
C748 C749 1.399 . S
C748 H754 0.929 . S
C749 C729 1.449 . S
C749 C748 1.399 . S
C749 H755 0.930 . S
H750 C730 0.931 . S
H751 C731 0.930 . S
H752 C739 0.931 . S
H753 C740 0.929 . S
H754 C748 0.929 . S
H755 C749 0.930 . S
Mn756 O761 2.095 . S
Mn756 O771 2.162 . S
Mn756 O772 2.297 . S
Mn756 O780 2.385 . S
Mn756 O781 2.209 . S
Mn756 O782 2.094 . S
Mn757 O762 2.121 . S
Mn757 N764 2.257 . S
Mn757 N773 2.282 . S
Mn757 O781 2.215 . S
Mn757 O783 2.117 . S
C758 O780 1.234 . S
C758 O781 1.283 . S
C759 O771 1.281 . S
C759 O772 1.236 . S
C760 O782 1.240 . S
C760 O783 1.264 . S
O761 Mn756 2.095 . S
O761 C770 1.250 . S
O762 Mn757 2.121 . S
O762 C770 1.258 . S
C763 N764 1.326 . S
C763 C767 1.460 . S
C763 H769 0.929 . S
N764 Mn757 2.257 . S
N764 C763 1.326 . S
N764 C768 1.362 . S
C765 C766 1.258 . S
C765 C768 1.431 . S
C765 C785 1.449 . S
C766 C765 1.258 . S
C766 C767 1.477 . S
C766 H786 0.931 . S
C767 C763 1.460 . S
C767 C766 1.477 . S
C767 H787 0.930 . S
C768 N764 1.362 . S
C768 C765 1.431 . S
C768 C778 1.476 . S
H769 C763 0.929 . S
C770 O761 1.250 . S
C770 O762 1.258 . S
O771 Mn756 2.162 . S
O771 C759 1.281 . S
O772 Mn756 2.297 . S
O772 C759 1.236 . S
N773 Mn757 2.282 . S
N773 C774 1.328 . S
N773 C778 1.318 . S
C774 N773 1.328 . S
C774 C775 1.457 . S
C774 H779 0.929 . S
C775 C774 1.457 . S
C775 C776 1.291 . S
C775 H788 0.931 . S
C776 C775 1.291 . S
C776 C777 1.373 . S
C776 H789 0.929 . S
C777 C776 1.373 . S
C777 C778 1.396 . S
C777 C784 1.403 . S
C778 C768 1.476 . S
C778 N773 1.318 . S
C778 C777 1.396 . S
H779 C774 0.929 . S
O780 Mn756 2.385 . S
O780 C758 1.234 . S
O781 Mn756 2.209 . S
O781 Mn757 2.215 . S
O781 C758 1.283 . S
O782 Mn756 2.094 . S
O782 C760 1.240 . S
O783 Mn757 2.117 . S
O783 C760 1.264 . S
C784 C777 1.403 . S
C784 C785 1.399 . S
C784 H790 0.929 . S
C785 C765 1.449 . S
C785 C784 1.399 . S
C785 H791 0.930 . S
H786 C766 0.931 . S
H787 C767 0.930 . S
H788 C775 0.931 . S
H789 C776 0.929 . S
H790 C784 0.929 . S
H791 C785 0.930 . S
Mn792 O797 2.095 . S
Mn792 O807 2.162 . S
Mn792 O808 2.297 . S
Mn792 O816 2.385 . S
Mn792 O817 2.209 . S
Mn792 O818 2.094 . S
Mn793 O798 2.121 . S
Mn793 N800 2.257 . S
Mn793 N809 2.282 . S
Mn793 O817 2.215 . S
Mn793 O819 2.117 . S
C794 O816 1.234 . S
C794 O817 1.283 . S
C795 O807 1.281 . S
C795 O808 1.236 . S
C796 O818 1.240 . S
C796 O819 1.264 . S
O797 Mn792 2.095 . S
O797 C806 1.250 . S
O798 Mn793 2.121 . S
O798 C806 1.258 . S
C799 N800 1.326 . S
C799 C803 1.460 . S
C799 H805 0.929 . S
N800 Mn793 2.257 . S
N800 C799 1.326 . S
N800 C804 1.362 . S
C801 C802 1.258 . S
C801 C804 1.431 . S
C801 C821 1.449 . S
C802 C801 1.258 . S
C802 C803 1.477 . S
C802 H822 0.931 . S
C803 C799 1.460 . S
C803 C802 1.477 . S
C803 H823 0.930 . S
C804 N800 1.362 . S
C804 C801 1.431 . S
C804 C814 1.476 . S
H805 C799 0.929 . S
C806 O797 1.250 . S
C806 O798 1.258 . S
O807 Mn792 2.162 . S
O807 C795 1.281 . S
O808 Mn792 2.297 . S
O808 C795 1.236 . S
N809 Mn793 2.282 . S
N809 C810 1.328 . S
N809 C814 1.318 . S
C810 N809 1.328 . S
C810 C811 1.457 . S
C810 H815 0.929 . S
C811 C810 1.457 . S
C811 C812 1.291 . S
C811 H824 0.931 . S
C812 C811 1.291 . S
C812 C813 1.373 . S
C812 H825 0.929 . S
C813 C812 1.373 . S
C813 C814 1.396 . S
C813 C820 1.403 . S
C814 C804 1.476 . S
C814 N809 1.318 . S
C814 C813 1.396 . S
H815 C810 0.929 . S
O816 Mn792 2.385 . S
O816 C794 1.234 . S
O817 Mn792 2.209 . S
O817 Mn793 2.215 . S
O817 C794 1.283 . S
O818 Mn792 2.094 . S
O818 C796 1.240 . S
O819 Mn793 2.117 . S
O819 C796 1.264 . S
C820 C813 1.403 . S
C820 C821 1.399 . S
C820 H826 0.929 . S
C821 C801 1.449 . S
C821 C820 1.399 . S
C821 H827 0.930 . S
H822 C802 0.931 . S
H823 C803 0.930 . S
H824 C811 0.931 . S
H825 C812 0.929 . S
H826 C820 0.929 . S
H827 C821 0.930 . S
Mn828 O833 2.095 . S
Mn828 O843 2.162 . S
Mn828 O844 2.297 . S
Mn828 O852 2.385 . S
Mn828 O853 2.209 . S
Mn828 O854 2.094 . S
Mn829 O834 2.121 . S
Mn829 N836 2.257 . S
Mn829 N845 2.282 . S
Mn829 O853 2.215 . S
Mn829 O855 2.117 . S
C830 O852 1.234 . S
C830 O853 1.283 . S
C831 O843 1.281 . S
C831 O844 1.236 . S
C832 O854 1.240 . S
C832 O855 1.264 . S
O833 Mn828 2.095 . S
O833 C842 1.250 . S
O834 Mn829 2.121 . S
O834 C842 1.258 . S
C835 N836 1.326 . S
C835 C839 1.460 . S
C835 H841 0.929 . S
N836 Mn829 2.257 . S
N836 C835 1.326 . S
N836 C840 1.362 . S
C837 C838 1.258 . S
C837 C840 1.431 . S
C837 C857 1.449 . S
C838 C837 1.258 . S
C838 C839 1.477 . S
C838 H858 0.931 . S
C839 C835 1.460 . S
C839 C838 1.477 . S
C839 H859 0.930 . S
C840 N836 1.362 . S
C840 C837 1.431 . S
C840 C850 1.476 . S
H841 C835 0.929 . S
C842 O833 1.250 . S
C842 O834 1.258 . S
O843 Mn828 2.162 . S
O843 C831 1.281 . S
O844 Mn828 2.297 . S
O844 C831 1.236 . S
N845 Mn829 2.282 . S
N845 C846 1.328 . S
N845 C850 1.318 . S
C846 N845 1.328 . S
C846 C847 1.457 . S
C846 H851 0.929 . S
C847 C846 1.457 . S
C847 C848 1.291 . S
C847 H860 0.931 . S
C848 C847 1.291 . S
C848 C849 1.373 . S
C848 H861 0.929 . S
C849 C848 1.373 . S
C849 C850 1.396 . S
C849 C856 1.403 . S
C850 C840 1.476 . S
C850 N845 1.318 . S
C850 C849 1.396 . S
H851 C846 0.929 . S
O852 Mn828 2.385 . S
O852 C830 1.234 . S
O853 Mn828 2.209 . S
O853 Mn829 2.215 . S
O853 C830 1.283 . S
O854 Mn828 2.094 . S
O854 C832 1.240 . S
O855 Mn829 2.117 . S
O855 C832 1.264 . S
C856 C849 1.403 . S
C856 C857 1.399 . S
C856 H862 0.929 . S
C857 C837 1.449 . S
C857 C856 1.399 . S
C857 H863 0.930 . S
H858 C838 0.931 . S
H859 C839 0.930 . S
H860 C847 0.931 . S
H861 C848 0.929 . S
H862 C856 0.929 . S
H863 C857 0.930 . S
O864 Mg865 1.990 . S
O864 C878 1.253 . S
Mg865 O864 1.990 . S
Mg865 O868 2.180 1_556 S
Mg865 O869 2.117 1_556 S
Mg865 O883 2.027 1_556 S
O866 Mg867 2.072 1_656 S
O866 C878 1.260 . S
Mg867 O866 2.072 1_454 S
Mg867 O868 2.099 1_455 S
Mg867 O870 2.079 1_545 S
Mg867 O871 2.072 . S
Mg867 O873 2.105 1_545 S
Mg867 O884 2.079 1_445 S
O868 Mg865 2.180 1_554 S
O868 Mg867 2.099 1_655 S
O868 C879 1.279 . S
O869 Mg865 2.117 1_554 S
O869 C879 1.250 . S
O870 Mg867 2.079 1_565 S
O870 C880 1.264 . S
O871 Mg867 2.072 . S
O871 C881 1.255 1_554 S
Mg872 O873 2.190 . S
Mg872 O874 2.030 . S
Mg872 O875 2.025 1_554 S
Mg872 O876 2.117 1_554 S
O873 Mg867 2.105 1_565 S
O873 Mg872 2.190 . S
O873 C882 1.257 1_554 S
O874 Mg872 2.030 . S
O874 C880 1.248 . S
O875 Mg872 2.025 1_556 S
O875 C881 1.220 1_565 S
O876 Mg872 2.117 1_556 S
O876 C882 1.250 . S
C877 O883 1.261 1_565 S
C877 O884 1.264 . S
C878 O864 1.253 . S
C878 O866 1.260 . S
C879 O868 1.279 . S
C879 O869 1.250 . S
C880 O870 1.264 . S
C880 O874 1.248 . S
C881 O871 1.255 1_556 S
C881 O875 1.220 1_545 S
C882 O873 1.257 1_556 S
C882 O876 1.250 . S
O883 Mg865 2.027 1_554 S
O883 C877 1.261 1_545 S
O884 Mg867 2.079 1_665 S
O884 C877 1.264 . S
O885 Mg886 1.990 . S
O885 C899 1.253 . S
Mg886 O885 1.990 . S
Mg886 O889 2.180 . S
Mg886 O890 2.117 . S
Mg886 O904 2.030 . S
O887 Mg888 2.072 . S
O887 C899 1.260 . S
Mg888 O887 2.072 . S
Mg888 O889 2.099 . S
Mg888 O891 2.079 . S
Mg888 O892 2.072 . S
Mg888 O894 2.099 . S
Mg888 O905 2.079 . S
O889 Mg886 2.180 . S
O889 Mg888 2.099 . S
O889 C900 1.279 . S
O890 Mg886 2.117 . S
O890 C900 1.250 . S
O891 Mg888 2.079 . S
O891 C901 1.264 . S
O892 Mg888 2.072 . S
O892 C902 1.260 . S
Mg893 O894 2.180 . S
Mg893 O895 2.030 . S
Mg893 O896 1.990 . S
Mg893 O897 2.117 . S
O894 Mg888 2.099 . S
O894 Mg893 2.180 . S
O894 C903 1.279 . S
O895 Mg893 2.030 . S
O895 C901 1.248 . S
O896 Mg893 1.990 . S
O896 C902 1.253 . S
O897 Mg893 2.117 . S
O897 C903 1.250 . S
C898 O904 1.248 . S
C898 O905 1.264 . S
C899 O885 1.253 . S
C899 O887 1.260 . S
C900 O889 1.279 . S
C900 O890 1.250 . S
C901 O891 1.264 . S
C901 O895 1.248 . S
C902 O892 1.260 . S
C902 O896 1.253 . S
C903 O894 1.279 . S
C903 O897 1.250 . S
O904 Mg886 2.030 . S
O904 C898 1.248 . S
O905 Mg888 2.079 . S
O905 C898 1.264 . S
O906 Mg907 1.990 . S
O906 C920 1.253 . S
Mg907 O906 1.990 . S
Mg907 O910 2.180 . S
Mg907 O911 2.117 . S
Mg907 O925 2.046 . S
O908 Mg909 2.072 . S
O908 C920 1.260 1_545 S
Mg909 O908 2.072 . S
Mg909 O910 2.099 1_545 S
Mg909 O912 2.079 . S
Mg909 O913 2.072 1_545 S
Mg909 O915 2.099 . S
Mg909 O926 2.079 . S
O910 Mg907 2.180 . S
O910 Mg909 2.099 1_565 S
O910 C921 1.279 . S
O911 Mg907 2.117 . S
O911 C921 1.250 . S
O912 Mg909 2.079 . S
O912 C922 1.264 . S
O913 Mg909 2.072 1_565 S
O913 C923 1.260 . S
Mg914 O915 2.180 . S
Mg914 O916 2.030 . S
Mg914 O917 1.990 . S
Mg914 O918 2.117 . S
O915 Mg909 2.099 . S
O915 Mg914 2.180 . S
O915 C924 1.279 . S
O916 Mg914 2.030 . S
O916 C922 1.248 . S
O917 Mg914 1.990 . S
O917 C923 1.253 1_545 S
O918 Mg914 2.117 . S
O918 C924 1.250 . S
C919 O925 1.234 1_545 S
C919 O926 1.264 . S
C920 O906 1.253 . S
C920 O908 1.260 1_565 S
C921 O910 1.279 . S
C921 O911 1.250 . S
C922 O912 1.264 . S
C922 O916 1.248 . S
C923 O913 1.260 . S
C923 O917 1.253 1_565 S
C924 O915 1.279 . S
C924 O918 1.250 . S
O925 Mg907 2.046 . S
O925 C919 1.234 1_565 S
O926 Mg909 2.079 . S
O926 C919 1.264 . S
O927 Mg928 1.990 . S
O927 C941 1.253 . S
Mg928 O927 1.990 . S
Mg928 O931 2.180 . S
Mg928 O932 2.117 . S
Mg928 O946 2.030 . S
O929 Mg930 2.072 . S
O929 C941 1.260 . S
Mg930 O929 2.072 . S
Mg930 O931 2.099 . S
Mg930 O933 2.079 . S
Mg930 O934 2.072 . S
Mg930 O936 2.099 . S
Mg930 O947 2.079 . S
O931 Mg928 2.180 . S
O931 Mg930 2.099 . S
O931 C942 1.279 . S
O932 Mg928 2.117 . S
O932 C942 1.250 . S
O933 Mg930 2.079 . S
O933 C943 1.264 . S
O934 Mg930 2.072 . S
O934 C944 1.260 . S
Mg935 O936 2.180 . S
Mg935 O937 2.030 . S
Mg935 O938 1.990 . S
Mg935 O939 2.117 . S
O936 Mg930 2.099 . S
O936 Mg935 2.180 . S
O936 C945 1.279 . S
O937 Mg935 2.030 . S
O937 C943 1.248 . S
O938 Mg935 1.990 . S
O938 C944 1.253 . S
O939 Mg935 2.117 . S
O939 C945 1.250 . S
C940 O946 1.248 . S
C940 O947 1.264 . S
C941 O927 1.253 . S
C941 O929 1.260 . S
C942 O931 1.279 . S
C942 O932 1.250 . S
C943 O933 1.264 . S
C943 O937 1.248 . S
C944 O934 1.260 . S
C944 O938 1.253 . S
C945 O936 1.279 . S
C945 O939 1.250 . S
O946 Mg928 2.030 . S
O946 C940 1.248 . S
O947 Mg930 2.079 . S
O947 C940 1.264 . S
O948 Mg949 1.990 1_655 S
O948 C962 1.254 . S
Mg949 O948 1.990 1_455 S
Mg949 O952 2.180 . S
Mg949 O953 2.117 1_455 S
Mg949 O967 2.030 . S
O950 Mg951 2.072 1_565 S
O950 C962 1.259 1_455 S
Mg951 O950 2.072 1_545 S
Mg951 O952 2.099 1_545 S
Mg951 O954 2.079 . S
Mg951 O955 2.072 1_455 S
Mg951 O957 2.099 . S
Mg951 O968 2.079 1_545 S
O952 Mg949 2.180 . S
O952 Mg951 2.099 1_565 S
O952 C963 1.279 1_455 S
O953 Mg949 2.117 1_655 S
O953 C963 1.250 . S
O954 Mg951 2.079 . S
O954 C964 1.264 . S
O955 Mg951 2.072 1_655 S
O955 C965 1.260 . S
Mg956 O957 2.180 1_655 S
Mg956 O958 2.030 1_655 S
Mg956 O959 1.990 . S
Mg956 O960 2.117 1_655 S
O957 Mg951 2.099 . S
O957 Mg956 2.180 1_455 S
O957 C966 1.279 . S
O958 Mg956 2.030 1_455 S
O958 C964 1.248 . S
O959 Mg956 1.990 . S
O959 C965 1.253 . S
O960 Mg956 2.117 1_455 S
O960 C966 1.250 . S
C961 O967 1.248 . S
C961 O968 1.264 . S
C962 O948 1.254 . S
C962 O950 1.259 1_655 S
C963 O952 1.279 1_655 S
C963 O953 1.250 . S
C964 O954 1.264 . S
C964 O958 1.248 . S
C965 O955 1.260 . S
C965 O959 1.253 . S
C966 O957 1.279 . S
C966 O960 1.250 . S
O967 Mg949 2.030 . S
O967 C961 1.248 . S
O968 Mg951 2.079 1_565 S
O968 C961 1.264 . S
O969 Mg970 1.990 . S
O969 C983 1.253 . S
Mg970 O969 1.990 . S
Mg970 O973 2.180 . S
Mg970 O974 2.117 . S
Mg970 O988 2.030 . S
O971 Mg972 2.072 . S
O971 C983 1.260 . S
Mg972 O971 2.072 . S
Mg972 O973 2.099 . S
Mg972 O975 2.079 . S
Mg972 O976 2.072 . S
Mg972 O978 2.099 . S
Mg972 O989 2.079 . S
O973 Mg970 2.180 . S
O973 Mg972 2.099 . S
O973 C984 1.279 . S
O974 Mg970 2.117 . S
O974 C984 1.250 . S
O975 Mg972 2.079 . S
O975 C985 1.264 . S
O976 Mg972 2.072 . S
O976 C986 1.260 . S
Mg977 O978 2.180 . S
Mg977 O979 2.030 . S
Mg977 O980 1.990 . S
Mg977 O981 2.117 . S
O978 Mg972 2.099 . S
O978 Mg977 2.180 . S
O978 C987 1.279 . S
O979 Mg977 2.030 . S
O979 C985 1.248 . S
O980 Mg977 1.990 . S
O980 C986 1.253 . S
O981 Mg977 2.117 . S
O981 C987 1.250 . S
C982 O988 1.248 . S
C982 O989 1.264 . S
C983 O969 1.253 . S
C983 O971 1.260 . S
C984 O973 1.279 . S
C984 O974 1.250 . S
C985 O975 1.264 . S
C985 O979 1.248 . S
C986 O976 1.260 . S
C986 O980 1.253 . S
C987 O978 1.279 . S
C987 O981 1.250 . S
O988 Mg970 2.030 . S
O988 C982 1.248 . S
O989 Mg972 2.079 . S
O989 C982 1.264 . S
O990 Mg991 1.990 . S
O990 C1004 1.253 . S
Mg991 O990 1.990 . S
Mg991 O994 2.180 1_565 S
Mg991 O995 2.117 1_565 S
Mg991 O1009 2.030 1_565 S
O992 Mg993 2.072 1_565 S
O992 C1004 1.260 . S
Mg993 O992 2.072 1_545 S
Mg993 O994 2.099 . S
Mg993 O996 2.079 1_554 S
Mg993 O997 2.073 1_554 S
Mg993 O999 2.098 1_544 S
Mg993 O1010 2.079 . S
O994 Mg991 2.180 1_545 S
O994 Mg993 2.099 . S
O994 C1005 1.279 . S
O995 Mg991 2.117 1_545 S
O995 C1005 1.250 . S
O996 Mg993 2.079 1_556 S
O996 C1006 1.264 . S
O997 Mg993 2.073 1_556 S
O997 C1007 1.260 1_545 S
Mg998 O999 2.180 1_545 S
Mg998 O1000 2.030 . S
Mg998 O1001 1.990 1_545 S
Mg998 O1002 2.117 1_545 S
O999 Mg993 2.098 1_566 S
O999 Mg998 2.180 1_565 S
O999 C1008 1.280 . S
O1000 Mg998 2.030 . S
O1000 C1006 1.248 . S
O1001 Mg998 1.990 1_565 S
O1001 C1007 1.253 . S
O1002 Mg998 2.117 1_565 S
O1002 C1008 1.250 . S
C1003 O1009 1.248 . S
C1003 O1010 1.264 . S
C1004 O990 1.253 . S
C1004 O992 1.260 . S
C1005 O994 1.279 . S
C1005 O995 1.250 . S
C1006 O996 1.264 . S
C1006 O1000 1.248 . S
C1007 O997 1.260 1_565 S
C1007 O1001 1.253 . S
C1008 O999 1.280 . S
C1008 O1002 1.250 . S
O1009 Mg991 2.030 1_545 S
O1009 C1003 1.248 . S
O1010 Mg993 2.079 . S
O1010 C1003 1.264 . S
O1011 Mg1012 1.990 . S
O1011 C1025 1.253 . S
Mg1012 O1011 1.990 . S
Mg1012 O1015 2.180 . S
Mg1012 O1016 2.117 . S
Mg1012 O1030 2.030 . S
O1013 Mg1014 2.072 . S
O1013 C1025 1.260 . S
Mg1014 O1013 2.072 . S
Mg1014 O1015 2.099 . S
Mg1014 O1017 2.079 . S
Mg1014 O1018 2.072 . S
Mg1014 O1020 2.099 . S
Mg1014 O1031 2.079 . S
O1015 Mg1012 2.180 . S
O1015 Mg1014 2.099 . S
O1015 C1026 1.279 . S
O1016 Mg1012 2.117 . S
O1016 C1026 1.250 . S
O1017 Mg1014 2.079 . S
O1017 C1027 1.264 . S
O1018 Mg1014 2.072 . S
O1018 C1028 1.260 . S
Mg1019 O1020 2.180 . S
Mg1019 O1021 2.030 . S
Mg1019 O1022 1.990 . S
Mg1019 O1023 2.117 . S
O1020 Mg1014 2.099 . S
O1020 Mg1019 2.180 . S
O1020 C1029 1.279 . S
O1021 Mg1019 2.030 . S
O1021 C1027 1.248 . S
O1022 Mg1019 1.990 . S
O1022 C1028 1.253 . S
O1023 Mg1019 2.117 . S
O1023 C1029 1.250 . S
C1024 O1030 1.248 . S
C1024 O1031 1.264 . S
C1025 O1011 1.253 . S
C1025 O1013 1.260 . S
C1026 O1015 1.279 . S
C1026 O1016 1.250 . S
C1027 O1017 1.264 . S
C1027 O1021 1.248 . S
C1028 O1018 1.260 . S
C1028 O1022 1.253 . S
C1029 O1020 1.279 . S
C1029 O1023 1.250 . S
O1030 Mg1012 2.030 . S
O1030 C1024 1.248 . S
O1031 Mg1014 2.079 . S
O1031 C1024 1.264 . S
O1032 Mg1033 1.990 . S
O1032 C1046 1.253 . S
Mg1033 O1032 1.990 . S
Mg1033 O1036 2.180 . S
Mg1033 O1037 2.117 . S
Mg1033 O1051 2.001 1_556 S
O1034 Mg1035 2.072 . S
O1034 C1046 1.260 1_554 S
Mg1035 O1034 2.072 . S
Mg1035 O1036 2.099 1_554 S
Mg1035 O1038 2.079 . S
Mg1035 O1039 2.072 1_554 S
Mg1035 O1041 2.099 . S
Mg1035 O1052 2.079 . S
O1036 Mg1033 2.180 . S
O1036 Mg1035 2.099 1_556 S
O1036 C1047 1.279 . S
O1037 Mg1033 2.117 . S
O1037 C1047 1.250 . S
O1038 Mg1035 2.079 . S
O1038 C1048 1.264 . S
O1039 Mg1035 2.072 1_556 S
O1039 C1049 1.260 . S
Mg1040 O1041 2.180 . S
Mg1040 O1042 2.030 . S
Mg1040 O1043 1.990 . S
Mg1040 O1044 2.117 . S
O1041 Mg1035 2.099 . S
O1041 Mg1040 2.180 . S
O1041 C1050 1.279 . S
O1042 Mg1040 2.030 . S
O1042 C1048 1.248 . S
O1043 Mg1040 1.990 . S
O1043 C1049 1.253 1_554 S
O1044 Mg1040 2.117 . S
O1044 C1050 1.250 . S
C1045 O1051 1.272 . S
C1045 O1052 1.264 . S
C1046 O1032 1.253 . S
C1046 O1034 1.260 1_556 S
C1047 O1036 1.279 . S
C1047 O1037 1.250 . S
C1048 O1038 1.264 . S
C1048 O1042 1.248 . S
C1049 O1039 1.260 . S
C1049 O1043 1.253 1_556 S
C1050 O1041 1.279 . S
C1050 O1044 1.250 . S
O1051 Mg1033 2.001 1_554 S
O1051 C1045 1.272 . S
O1052 Mg1035 2.079 . S
O1052 C1045 1.264 . S
O1053 Mg1054 1.990 . S
O1053 C1067 1.253 . S
Mg1054 O1053 1.990 . S
Mg1054 O1057 2.180 . S
Mg1054 O1058 2.117 . S
Mg1054 O1072 2.030 . S
O1055 Mg1056 2.072 . S
O1055 C1067 1.260 . S
Mg1056 O1055 2.072 . S
Mg1056 O1057 2.099 . S
Mg1056 O1059 2.079 . S
Mg1056 O1060 2.072 . S
Mg1056 O1062 2.099 . S
Mg1056 O1073 2.079 . S
O1057 Mg1054 2.180 . S
O1057 Mg1056 2.099 . S
O1057 C1068 1.279 . S
O1058 Mg1054 2.117 . S
O1058 C1068 1.250 . S
O1059 Mg1056 2.079 . S
O1059 C1069 1.264 . S
O1060 Mg1056 2.072 . S
O1060 C1070 1.260 . S
Mg1061 O1062 2.180 . S
Mg1061 O1063 2.030 . S
Mg1061 O1064 1.990 . S
Mg1061 O1065 2.117 . S
O1062 Mg1056 2.099 . S
O1062 Mg1061 2.180 . S
O1062 C1071 1.279 . S
O1063 Mg1061 2.030 . S
O1063 C1069 1.248 . S
O1064 Mg1061 1.990 . S
O1064 C1070 1.253 . S
O1065 Mg1061 2.117 . S
O1065 C1071 1.250 . S
C1066 O1072 1.248 . S
C1066 O1073 1.264 . S
C1067 O1053 1.253 . S
C1067 O1055 1.260 . S
C1068 O1057 1.279 . S
C1068 O1058 1.250 . S
C1069 O1059 1.264 . S
C1069 O1063 1.248 . S
C1070 O1060 1.260 . S
C1070 O1064 1.253 . S
C1071 O1062 1.279 . S
C1071 O1065 1.250 . S
O1072 Mg1054 2.030 . S
O1072 C1066 1.248 . S
O1073 Mg1056 2.079 . S
O1073 C1066 1.264 . S
O1074 Mg1075 1.990 . S
O1074 C1088 1.253 . S
Mg1075 O1074 1.990 . S
Mg1075 O1078 2.180 . S
Mg1075 O1079 2.117 . S
Mg1075 O1093 2.065 . S
O1076 Mg1077 2.072 . S
O1076 C1088 1.260 1_455 S
Mg1077 O1076 2.072 . S
Mg1077 O1078 2.099 1_455 S
Mg1077 O1080 2.079 . S
Mg1077 O1081 2.072 1_455 S
Mg1077 O1083 2.099 . S
Mg1077 O1094 2.079 . S
O1078 Mg1075 2.180 . S
O1078 Mg1077 2.099 1_655 S
O1078 C1089 1.279 . S
O1079 Mg1075 2.117 . S
O1079 C1089 1.250 . S
O1080 Mg1077 2.079 . S
O1080 C1090 1.264 . S
O1081 Mg1077 2.072 1_655 S
O1081 C1091 1.260 . S
Mg1082 O1083 2.180 . S
Mg1082 O1084 2.030 . S
Mg1082 O1085 1.990 . S
Mg1082 O1086 2.117 . S
O1083 Mg1077 2.099 . S
O1083 Mg1082 2.180 . S
O1083 C1092 1.279 . S
O1084 Mg1082 2.030 . S
O1084 C1090 1.248 . S
O1085 Mg1082 1.990 . S
O1085 C1091 1.253 1_455 S
O1086 Mg1082 2.117 . S
O1086 C1092 1.250 . S
C1087 O1093 1.218 1_455 S
C1087 O1094 1.264 . S
C1088 O1074 1.253 . S
C1088 O1076 1.260 1_655 S
C1089 O1078 1.279 . S
C1089 O1079 1.250 . S
C1090 O1080 1.264 . S
C1090 O1084 1.248 . S
C1091 O1081 1.260 . S
C1091 O1085 1.253 1_655 S
C1092 O1083 1.279 . S
C1092 O1086 1.250 . S
O1093 Mg1075 2.065 . S
O1093 C1087 1.218 1_655 S
O1094 Mg1077 2.079 . S
O1094 C1087 1.264 . S
O1095 Mg1096 1.990 . S
O1095 C1109 1.253 . S
Mg1096 O1095 1.990 . S
Mg1096 O1099 2.180 . S
Mg1096 O1100 2.117 . S
Mg1096 O1114 2.030 . S
O1097 Mg1098 2.072 . S
O1097 C1109 1.260 . S
Mg1098 O1097 2.072 . S
Mg1098 O1099 2.099 . S
Mg1098 O1101 2.079 . S
Mg1098 O1102 2.072 . S
Mg1098 O1104 2.099 . S
Mg1098 O1115 2.079 . S
O1099 Mg1096 2.180 . S
O1099 Mg1098 2.099 . S
O1099 C1110 1.279 . S
O1100 Mg1096 2.117 . S
O1100 C1110 1.250 . S
O1101 Mg1098 2.079 . S
O1101 C1111 1.264 . S
O1102 Mg1098 2.072 . S
O1102 C1112 1.260 . S
Mg1103 O1104 2.180 . S
Mg1103 O1105 2.030 . S
Mg1103 O1106 1.990 . S
Mg1103 O1107 2.117 . S
O1104 Mg1098 2.099 . S
O1104 Mg1103 2.180 . S
O1104 C1113 1.279 . S
O1105 Mg1103 2.030 . S
O1105 C1111 1.248 . S
O1106 Mg1103 1.990 . S
O1106 C1112 1.253 . S
O1107 Mg1103 2.117 . S
O1107 C1113 1.250 . S
C1108 O1114 1.248 . S
C1108 O1115 1.264 . S
C1109 O1095 1.253 . S
C1109 O1097 1.260 . S
C1110 O1099 1.279 . S
C1110 O1100 1.250 . S
C1111 O1101 1.264 . S
C1111 O1105 1.248 . S
C1112 O1102 1.260 . S
C1112 O1106 1.253 . S
C1113 O1104 1.279 . S
C1113 O1107 1.250 . S
O1114 Mg1096 2.030 . S
O1114 C1108 1.248 . S
O1115 Mg1098 2.079 . S
O1115 C1108 1.264 . S
O1116 Mg1117 1.990 . S
O1116 C1130 1.253 . S
Mg1117 O1116 1.990 . S
Mg1117 O1120 2.180 . S
Mg1117 O1121 2.117 . S
Mg1117 O1135 2.030 . S
O1118 Mg1119 2.072 . S
O1118 C1130 1.260 . S
Mg1119 O1118 2.072 . S
Mg1119 O1120 2.099 . S
Mg1119 O1122 2.079 . S
Mg1119 O1123 2.072 . S
Mg1119 O1125 2.099 . S
Mg1119 O1136 2.079 . S
O1120 Mg1117 2.180 . S
O1120 Mg1119 2.099 . S
O1120 C1131 1.279 . S
O1121 Mg1117 2.117 . S
O1121 C1131 1.250 . S
O1122 Mg1119 2.079 . S
O1122 C1132 1.264 . S
O1123 Mg1119 2.072 . S
O1123 C1133 1.260 . S
Mg1124 O1125 2.180 . S
Mg1124 O1126 2.030 . S
Mg1124 O1127 1.990 . S
Mg1124 O1128 2.117 . S
O1125 Mg1119 2.099 . S
O1125 Mg1124 2.180 . S
O1125 C1134 1.279 . S
O1126 Mg1124 2.030 . S
O1126 C1132 1.248 . S
O1127 Mg1124 1.990 . S
O1127 C1133 1.253 . S
O1128 Mg1124 2.117 . S
O1128 C1134 1.250 . S
C1129 O1135 1.248 . S
C1129 O1136 1.264 . S
C1130 O1116 1.253 . S
C1130 O1118 1.260 . S
C1131 O1120 1.279 . S
C1131 O1121 1.250 . S
C1132 O1122 1.264 . S
C1132 O1126 1.248 . S
C1133 O1123 1.260 . S
C1133 O1127 1.253 . S
C1134 O1125 1.279 . S
C1134 O1128 1.250 . S
O1135 Mg1117 2.030 . S
O1135 C1129 1.248 . S
O1136 Mg1119 2.079 . S
O1136 C1129 1.264 . S
O1137 Mg1138 1.990 . S
O1137 C1151 1.253 . S
Mg1138 O1137 1.990 . S
Mg1138 O1141 2.180 . S
Mg1138 O1142 2.117 . S
Mg1138 O1156 2.030 . S
O1139 Mg1140 2.072 . S
O1139 C1151 1.260 . S
Mg1140 O1139 2.072 . S
Mg1140 O1141 2.099 . S
Mg1140 O1143 2.079 . S
Mg1140 O1144 2.072 . S
Mg1140 O1146 2.099 . S
Mg1140 O1157 2.079 . S
O1141 Mg1138 2.180 . S
O1141 Mg1140 2.099 . S
O1141 C1152 1.279 . S
O1142 Mg1138 2.117 . S
O1142 C1152 1.250 . S
O1143 Mg1140 2.079 . S
O1143 C1153 1.264 . S
O1144 Mg1140 2.072 . S
O1144 C1154 1.260 . S
Mg1145 O1146 2.180 . S
Mg1145 O1147 2.030 . S
Mg1145 O1148 1.990 . S
Mg1145 O1149 2.117 . S
O1146 Mg1140 2.099 . S
O1146 Mg1145 2.180 . S
O1146 C1155 1.279 . S
O1147 Mg1145 2.030 . S
O1147 C1153 1.248 . S
O1148 Mg1145 1.990 . S
O1148 C1154 1.253 . S
O1149 Mg1145 2.117 . S
O1149 C1155 1.250 . S
C1150 O1156 1.248 . S
C1150 O1157 1.264 . S
C1151 O1137 1.253 . S
C1151 O1139 1.260 . S
C1152 O1141 1.279 . S
C1152 O1142 1.250 . S
C1153 O1143 1.264 . S
C1153 O1147 1.248 . S
C1154 O1144 1.260 . S
C1154 O1148 1.253 . S
C1155 O1146 1.279 . S
C1155 O1149 1.250 . S
O1156 Mg1138 2.030 . S
O1156 C1150 1.248 . S
O1157 Mg1140 2.079 . S
O1157 C1150 1.264 . S
O1158 Mg1159 1.990 . S
O1158 C1172 1.253 . S
Mg1159 O1158 1.990 . S
Mg1159 O1162 2.180 . S
Mg1159 O1163 2.117 . S
Mg1159 O1177 2.030 . S
O1160 Mg1161 2.072 . S
O1160 C1172 1.260 . S
Mg1161 O1160 2.072 . S
Mg1161 O1162 2.099 . S
Mg1161 O1164 2.079 . S
Mg1161 O1165 2.072 . S
Mg1161 O1167 2.099 . S
Mg1161 O1178 2.079 . S
O1162 Mg1159 2.180 . S
O1162 Mg1161 2.099 . S
O1162 C1173 1.279 . S
O1163 Mg1159 2.117 . S
O1163 C1173 1.250 . S
O1164 Mg1161 2.079 . S
O1164 C1174 1.264 . S
O1165 Mg1161 2.072 . S
O1165 C1175 1.260 . S
Mg1166 O1167 2.180 . S
Mg1166 O1168 2.030 . S
Mg1166 O1169 1.990 . S
Mg1166 O1170 2.117 . S
O1167 Mg1161 2.099 . S
O1167 Mg1166 2.180 . S
O1167 C1176 1.279 . S
O1168 Mg1166 2.030 . S
O1168 C1174 1.248 . S
O1169 Mg1166 1.990 . S
O1169 C1175 1.253 . S
O1170 Mg1166 2.117 . S
O1170 C1176 1.250 . S
C1171 O1177 1.248 . S
C1171 O1178 1.264 . S
C1172 O1158 1.253 . S
C1172 O1160 1.260 . S
C1173 O1162 1.279 . S
C1173 O1163 1.250 . S
C1174 O1164 1.264 . S
C1174 O1168 1.248 . S
C1175 O1165 1.260 . S
C1175 O1169 1.253 . S
C1176 O1167 1.279 . S
C1176 O1170 1.250 . S
O1177 Mg1159 2.030 . S
O1177 C1171 1.248 . S
O1178 Mg1161 2.079 . S
O1178 C1171 1.264 . S
O1179 Mg1180 1.990 . S
O1179 C1193 1.253 . S
Mg1180 O1179 1.990 . S
Mg1180 O1183 2.180 1_556 S
Mg1180 O1184 2.117 1_556 S
Mg1180 O1198 2.030 . S
O1181 Mg1182 2.072 1_556 S
O1181 C1193 1.260 . S
Mg1182 O1181 2.072 1_554 S
Mg1182 O1183 2.099 . S
Mg1182 O1185 2.079 1_455 S
Mg1182 O1186 2.074 1_455 S
Mg1182 O1188 2.094 1_454 S
Mg1182 O1199 2.079 . S
O1183 Mg1180 2.180 1_554 S
O1183 Mg1182 2.099 . S
O1183 C1194 1.279 . S
O1184 Mg1180 2.117 1_554 S
O1184 C1194 1.250 . S
O1185 Mg1182 2.079 1_655 S
O1185 C1195 1.264 . S
O1186 Mg1182 2.074 1_655 S
O1186 C1196 1.259 1_554 S
Mg1187 O1188 2.172 1_554 S
Mg1187 O1189 2.030 . S
Mg1187 O1190 1.990 1_554 S
Mg1187 O1191 2.117 1_554 S
O1188 Mg1182 2.094 1_656 S
O1188 Mg1187 2.172 1_556 S
O1188 C1197 1.298 . S
O1189 Mg1187 2.030 . S
O1189 C1195 1.248 . S
O1190 Mg1187 1.990 1_556 S
O1190 C1196 1.253 . S
O1191 Mg1187 2.117 1_556 S
O1191 C1197 1.250 . S
C1192 O1198 1.248 1_554 S
C1192 O1199 1.264 . S
C1193 O1179 1.253 . S
C1193 O1181 1.260 . S
C1194 O1183 1.279 . S
C1194 O1184 1.250 . S
C1195 O1185 1.264 . S
C1195 O1189 1.248 . S
C1196 O1186 1.259 1_556 S
C1196 O1190 1.253 . S
C1197 O1188 1.298 . S
C1197 O1191 1.250 . S
O1198 Mg1180 2.030 . S
O1198 C1192 1.248 1_556 S
O1199 Mg1182 2.079 . S
O1199 C1192 1.264 . S
H1200 C1208 0.950 . S
H1201 C1213 0.950 . S
H1202 C1210 0.950 . S
H1203 C1212 0.950 . S
H1204 C1214 0.950 . S
H1205 C1216 0.950 . S
H1206 C1218 0.950 . S
H1207 C1219 0.950 . S
C1208 H1200 0.950 . S
C1208 C1209 1.386 . S
C1208 C1210 1.391 . S
C1209 C1208 1.386 . S
C1209 C1213 1.393 1_455 S
C1210 H1202 0.950 . S
C1210 C1208 1.391 . S
C1210 C1211 1.436 . S
C1211 C1210 1.436 . S
C1211 C1212 1.363 1_455 S
C1211 C1217 1.491 . S
C1212 H1203 0.950 . S
C1212 C1211 1.363 1_655 S
C1212 C1213 1.391 . S
C1213 H1201 0.950 . S
C1213 C1209 1.393 1_655 S
C1213 C1212 1.391 . S
C1214 H1204 0.950 . S
C1214 C1215 1.386 . S
C1214 C1216 1.391 . S
C1215 C1214 1.386 . S
C1215 C1219 1.393 1_655 S
C1216 H1205 0.950 . S
C1216 C1214 1.391 . S
C1216 C1217 1.393 1_655 S
C1217 C1211 1.491 . S
C1217 C1216 1.393 1_455 S
C1217 C1218 1.406 . S
C1218 H1206 0.950 . S
C1218 C1217 1.406 . S
C1218 C1219 1.391 . S
C1219 H1207 0.950 . S
C1219 C1215 1.393 1_455 S
C1219 C1218 1.391 . S
H1220 C1228 0.950 . S
H1221 C1233 0.950 . S
H1222 C1230 0.950 . S
H1223 C1232 0.950 . S
H1224 C1234 0.950 . S
H1225 C1236 0.950 . S
H1226 C1238 0.950 . S
H1227 C1239 0.950 . S
C1228 H1220 0.950 . S
C1228 C1229 1.386 . S
C1228 C1230 1.391 . S
C1229 C1228 1.386 . S
C1229 C1233 1.393 . S
C1230 H1222 0.950 . S
C1230 C1228 1.391 . S
C1230 C1231 1.400 . S
C1231 C1230 1.400 . S
C1231 C1232 1.398 . S
C1231 C1237 1.491 . S
C1232 H1223 0.950 . S
C1232 C1231 1.398 . S
C1232 C1233 1.391 . S
C1233 H1221 0.950 . S
C1233 C1229 1.393 . S
C1233 C1232 1.391 . S
C1234 H1224 0.950 . S
C1234 C1235 1.386 . S
C1234 C1236 1.391 . S
C1235 C1234 1.386 . S
C1235 C1239 1.393 . S
C1236 H1225 0.950 . S
C1236 C1234 1.391 . S
C1236 C1237 1.400 . S
C1237 C1231 1.491 . S
C1237 C1236 1.400 . S
C1237 C1238 1.398 . S
C1238 H1226 0.950 . S
C1238 C1237 1.398 . S
C1238 C1239 1.391 . S
C1239 H1227 0.950 . S
C1239 C1235 1.393 . S
C1239 C1238 1.391 . S
H1240 C1248 0.950 . S
H1241 C1253 0.950 . S
H1242 C1250 0.950 . S
H1243 C1252 0.950 . S
H1244 C1254 0.950 . S
H1245 C1256 0.950 . S
H1246 C1258 0.950 . S
H1247 C1259 0.950 . S
C1248 H1240 0.950 . S
C1248 C1249 1.386 . S
C1248 C1250 1.391 . S
C1249 C1248 1.386 . S
C1249 C1253 1.393 . S
C1250 H1242 0.950 . S
C1250 C1248 1.391 . S
C1250 C1251 1.400 . S
C1251 C1250 1.400 . S
C1251 C1252 1.398 . S
C1251 C1257 1.491 . S
C1252 H1243 0.950 . S
C1252 C1251 1.398 . S
C1252 C1253 1.391 . S
C1253 H1241 0.950 . S
C1253 C1249 1.393 . S
C1253 C1252 1.391 . S
C1254 H1244 0.950 . S
C1254 C1255 1.386 . S
C1254 C1256 1.391 . S
C1255 C1254 1.386 . S
C1255 C1259 1.393 . S
C1256 H1245 0.950 . S
C1256 C1254 1.391 . S
C1256 C1257 1.400 . S
C1257 C1251 1.491 . S
C1257 C1256 1.400 . S
C1257 C1258 1.398 . S
C1258 H1246 0.950 . S
C1258 C1257 1.398 . S
C1258 C1259 1.391 . S
C1259 H1247 0.950 . S
C1259 C1255 1.393 . S
C1259 C1258 1.391 . S
H1260 C1268 0.950 . S
H1261 C1273 0.950 . S
H1262 C1270 0.950 . S
H1263 C1272 0.950 . S
H1264 C1274 0.950 . S
H1265 C1276 0.950 . S
H1266 C1278 0.950 . S
H1267 C1279 0.950 . S
C1268 H1260 0.950 . S
C1268 C1269 1.386 . S
C1268 C1270 1.391 . S
C1269 C1268 1.386 . S
C1269 C1273 1.393 . S
C1270 H1262 0.950 . S
C1270 C1268 1.391 . S
C1270 C1271 1.400 . S
C1271 C1270 1.400 . S
C1271 C1272 1.398 . S
C1271 C1277 1.491 . S
C1272 H1263 0.950 . S
C1272 C1271 1.398 . S
C1272 C1273 1.391 . S
C1273 H1261 0.950 . S
C1273 C1269 1.393 . S
C1273 C1272 1.391 . S
C1274 H1264 0.950 . S
C1274 C1275 1.386 . S
C1274 C1276 1.391 . S
C1275 C1274 1.386 . S
C1275 C1279 1.393 . S
C1276 H1265 0.950 . S
C1276 C1274 1.391 . S
C1276 C1277 1.400 . S
C1277 C1271 1.491 . S
C1277 C1276 1.400 . S
C1277 C1278 1.398 . S
C1278 H1266 0.950 . S
C1278 C1277 1.398 . S
C1278 C1279 1.391 . S
C1279 H1267 0.950 . S
C1279 C1275 1.393 . S
C1279 C1278 1.391 . S
H1280 C1288 0.950 . S
H1281 C1293 0.950 . S
H1282 C1290 0.950 . S
H1283 C1292 0.950 . S
H1284 C1294 0.950 . S
H1285 C1296 0.950 . S
H1286 C1298 0.950 . S
H1287 C1299 0.950 . S
C1288 H1280 0.950 . S
C1288 C1289 1.386 . S
C1288 C1290 1.391 . S
C1289 C1288 1.386 . S
C1289 C1293 1.393 1_455 S
C1290 H1282 0.950 . S
C1290 C1288 1.391 . S
C1290 C1291 1.400 . S
C1291 C1290 1.400 . S
C1291 C1292 1.398 1_455 S
C1291 C1297 1.491 . S
C1292 H1283 0.950 . S
C1292 C1291 1.398 1_655 S
C1292 C1293 1.391 . S
C1293 H1281 0.950 . S
C1293 C1289 1.393 1_655 S
C1293 C1292 1.391 . S
C1294 H1284 0.950 . S
C1294 C1295 1.382 1_655 S
C1294 C1296 1.391 . S
C1295 C1294 1.382 1_455 S
C1295 C1299 1.397 . S
C1296 H1285 0.950 . S
C1296 C1294 1.391 . S
C1296 C1297 1.400 1_655 S
C1297 C1291 1.491 . S
C1297 C1296 1.400 1_455 S
C1297 C1298 1.398 . S
C1298 H1286 0.950 . S
C1298 C1297 1.398 . S
C1298 C1299 1.391 . S
C1299 H1287 0.950 . S
C1299 C1295 1.397 . S
C1299 C1298 1.391 . S
H1300 C1308 0.950 . S
H1301 C1313 0.950 . S
H1302 C1310 0.950 . S
H1303 C1312 0.950 . S
H1304 C1314 0.950 . S
H1305 C1316 0.950 . S
H1306 C1318 0.950 . S
H1307 C1319 0.950 . S
C1308 H1300 0.950 . S
C1308 C1309 1.386 . S
C1308 C1310 1.391 . S
C1309 C1308 1.386 . S
C1309 C1313 1.393 . S
C1310 H1302 0.950 . S
C1310 C1308 1.391 . S
C1310 C1311 1.400 . S
C1311 C1310 1.400 . S
C1311 C1312 1.398 . S
C1311 C1317 1.491 . S
C1312 H1303 0.950 . S
C1312 C1311 1.398 . S
C1312 C1313 1.391 . S
C1313 H1301 0.950 . S
C1313 C1309 1.393 . S
C1313 C1312 1.391 . S
C1314 H1304 0.950 . S
C1314 C1315 1.386 . S
C1314 C1316 1.391 . S
C1315 C1314 1.386 . S
C1315 C1319 1.393 . S
C1316 H1305 0.950 . S
C1316 C1314 1.391 . S
C1316 C1317 1.400 . S
C1317 C1311 1.491 . S
C1317 C1316 1.400 . S
C1317 C1318 1.398 . S
C1318 H1306 0.950 . S
C1318 C1317 1.398 . S
C1318 C1319 1.391 . S
C1319 H1307 0.950 . S
C1319 C1315 1.393 . S
C1319 C1318 1.391 . S
H1320 C1328 0.950 . S
H1321 C1333 0.950 . S
H1322 C1330 0.950 . S
H1323 C1332 0.950 . S
H1324 C1334 0.950 . S
H1325 C1336 0.950 . S
H1326 C1338 0.950 . S
H1327 C1339 0.950 . S
C1328 H1320 0.950 . S
C1328 C1329 1.386 . S
C1328 C1330 1.391 . S
C1329 C1328 1.386 . S
C1329 C1333 1.393 . S
C1330 H1322 0.950 . S
C1330 C1328 1.391 . S
C1330 C1331 1.400 . S
C1331 C1330 1.400 . S
C1331 C1332 1.398 . S
C1331 C1337 1.491 . S
C1332 H1323 0.950 . S
C1332 C1331 1.398 . S
C1332 C1333 1.391 . S
C1333 H1321 0.950 . S
C1333 C1329 1.393 . S
C1333 C1332 1.391 . S
C1334 H1324 0.950 . S
C1334 C1335 1.386 . S
C1334 C1336 1.391 . S
C1335 C1334 1.386 . S
C1335 C1339 1.393 . S
C1336 H1325 0.950 . S
C1336 C1334 1.391 . S
C1336 C1337 1.400 . S
C1337 C1331 1.491 . S
C1337 C1336 1.400 . S
C1337 C1338 1.398 . S
C1338 H1326 0.950 . S
C1338 C1337 1.398 . S
C1338 C1339 1.391 . S
C1339 H1327 0.950 . S
C1339 C1335 1.393 . S
C1339 C1338 1.391 . S
H1340 C1348 0.950 . S
H1341 C1353 0.950 . S
H1342 C1350 0.950 . S
H1343 C1352 0.950 . S
H1344 C1354 0.950 . S
H1345 C1356 0.950 . S
H1346 C1358 0.950 . S
H1347 C1359 0.950 . S
C1348 H1340 0.950 . S
C1348 C1349 1.386 . S
C1348 C1350 1.391 . S
C1349 C1348 1.386 . S
C1349 C1353 1.393 . S
C1350 H1342 0.950 . S
C1350 C1348 1.391 . S
C1350 C1351 1.400 . S
C1351 C1350 1.400 . S
C1351 C1352 1.398 . S
C1351 C1357 1.491 . S
C1352 H1343 0.950 . S
C1352 C1351 1.398 . S
C1352 C1353 1.391 . S
C1353 H1341 0.950 . S
C1353 C1349 1.393 . S
C1353 C1352 1.391 . S
C1354 H1344 0.950 . S
C1354 C1355 1.386 . S
C1354 C1356 1.391 . S
C1355 C1354 1.386 . S
C1355 C1359 1.393 . S
C1356 H1345 0.950 . S
C1356 C1354 1.391 . S
C1356 C1357 1.400 . S
C1357 C1351 1.491 . S
C1357 C1356 1.400 . S
C1357 C1358 1.398 . S
C1358 H1346 0.950 . S
C1358 C1357 1.398 . S
C1358 C1359 1.391 . S
C1359 H1347 0.950 . S
C1359 C1355 1.393 . S
C1359 C1358 1.391 . S
H1360 C1368 0.950 . S
H1361 C1373 0.950 . S
H1362 C1370 0.950 . S
H1363 C1372 0.950 . S
H1364 C1374 0.950 1_545 S
H1365 C1376 0.950 . S
H1366 C1378 0.950 . S
H1367 C1379 0.950 . S
C1368 H1360 0.950 . S
C1368 C1369 1.386 1_565 S
C1368 C1370 1.391 . S
C1369 C1368 1.386 1_545 S
C1369 C1373 1.393 . S
C1370 H1362 0.950 . S
C1370 C1368 1.391 . S
C1370 C1371 1.403 . S
C1371 C1370 1.403 . S
C1371 C1372 1.396 1_565 S
C1371 C1377 1.491 . S
C1372 H1363 0.950 . S
C1372 C1371 1.396 1_545 S
C1372 C1373 1.391 . S
C1373 H1361 0.950 . S
C1373 C1369 1.393 . S
C1373 C1372 1.391 . S
C1374 H1364 0.950 1_565 S
C1374 C1375 1.385 . S
C1374 C1376 1.391 1_565 S
C1375 C1374 1.385 . S
C1375 C1379 1.393 . S
C1376 H1365 0.950 . S
C1376 C1374 1.391 1_545 S
C1376 C1377 1.400 1_545 S
C1377 C1371 1.491 . S
C1377 C1376 1.400 1_565 S
C1377 C1378 1.398 . S
C1378 H1366 0.950 . S
C1378 C1377 1.398 . S
C1378 C1379 1.391 . S
C1379 H1367 0.950 . S
C1379 C1375 1.393 . S
C1379 C1378 1.391 . S
H1380 C1388 0.950 . S
H1381 C1393 0.950 . S
H1382 C1390 0.950 . S
H1383 C1392 0.950 . S
H1384 C1394 0.950 . S
H1385 C1396 0.950 . S
H1386 C1398 0.950 . S
H1387 C1399 0.950 . S
C1388 H1380 0.950 . S
C1388 C1389 1.386 . S
C1388 C1390 1.391 . S
C1389 C1388 1.386 . S
C1389 C1393 1.393 . S
C1390 H1382 0.950 . S
C1390 C1388 1.391 . S
C1390 C1391 1.400 . S
C1391 C1390 1.400 . S
C1391 C1392 1.398 . S
C1391 C1397 1.491 . S
C1392 H1383 0.950 . S
C1392 C1391 1.398 . S
C1392 C1393 1.391 . S
C1393 H1381 0.950 . S
C1393 C1389 1.393 . S
C1393 C1392 1.391 . S
C1394 H1384 0.950 . S
C1394 C1395 1.386 . S
C1394 C1396 1.391 . S
C1395 C1394 1.386 . S
C1395 C1399 1.393 . S
C1396 H1385 0.950 . S
C1396 C1394 1.391 . S
C1396 C1397 1.400 . S
C1397 C1391 1.491 . S
C1397 C1396 1.400 . S
C1397 C1398 1.398 . S
C1398 H1386 0.950 . S
C1398 C1397 1.398 . S
C1398 C1399 1.391 . S
C1399 H1387 0.950 . S
C1399 C1395 1.393 . S
C1399 C1398 1.391 . S
H1400 C1408 0.950 . S
H1401 C1413 0.950 . S
H1402 C1410 0.950 . S
H1403 C1412 0.950 . S
H1404 C1414 0.950 . S
H1405 C1416 0.950 . S
H1406 C1418 0.950 . S
H1407 C1419 0.955 . S
C1408 H1400 0.950 . S
C1408 C1409 1.386 1_565 S
C1408 C1410 1.391 . S
C1409 C1408 1.386 1_545 S
C1409 C1413 1.393 . S
C1410 H1402 0.950 . S
C1410 C1408 1.391 . S
C1410 C1411 1.400 1_565 S
C1411 C1410 1.400 1_545 S
C1411 C1412 1.398 . S
C1411 C1417 1.491 . S
C1412 H1403 0.950 . S
C1412 C1411 1.398 . S
C1412 C1413 1.391 . S
C1413 H1401 0.950 . S
C1413 C1409 1.393 . S
C1413 C1412 1.391 . S
C1414 H1404 0.950 . S
C1414 C1415 1.386 . S
C1414 C1416 1.391 . S
C1415 C1414 1.386 . S
C1415 C1419 1.386 1_545 S
C1416 H1405 0.950 . S
C1416 C1414 1.391 . S
C1416 C1417 1.400 . S
C1417 C1411 1.491 . S
C1417 C1416 1.400 . S
C1417 C1418 1.398 1_545 S
C1418 H1406 0.950 . S
C1418 C1417 1.398 1_565 S
C1418 C1419 1.392 . S
C1419 H1407 0.955 . S
C1419 C1415 1.386 1_565 S
C1419 C1418 1.392 . S
H1420 C1428 0.950 . S
H1421 C1433 0.950 . S
H1422 C1430 0.950 . S
H1423 C1432 0.950 . S
H1424 C1434 0.950 . S
H1425 C1436 0.950 . S
H1426 C1438 0.950 . S
H1427 C1439 0.950 . S
C1428 H1420 0.950 . S
C1428 C1429 1.386 . S
C1428 C1430 1.391 . S
C1429 C1428 1.386 . S
C1429 C1433 1.393 . S
C1430 H1422 0.950 . S
C1430 C1428 1.391 . S
C1430 C1431 1.400 . S
C1431 C1430 1.400 . S
C1431 C1432 1.398 . S
C1431 C1437 1.491 . S
C1432 H1423 0.950 . S
C1432 C1431 1.398 . S
C1432 C1433 1.391 . S
C1433 H1421 0.950 . S
C1433 C1429 1.393 . S
C1433 C1432 1.391 . S
C1434 H1424 0.950 . S
C1434 C1435 1.386 . S
C1434 C1436 1.391 . S
C1435 C1434 1.386 . S
C1435 C1439 1.393 . S
C1436 H1425 0.950 . S
C1436 C1434 1.391 . S
C1436 C1437 1.400 . S
C1437 C1431 1.491 . S
C1437 C1436 1.400 . S
C1437 C1438 1.398 . S
C1438 H1426 0.950 . S
C1438 C1437 1.398 . S
C1438 C1439 1.391 . S
C1439 H1427 0.950 . S
C1439 C1435 1.393 . S
C1439 C1438 1.391 . S
H1440 C1448 0.955 . S
H1441 C1453 0.950 . S
H1442 C1450 0.946 1_565 S
H1443 C1452 0.950 . S
H1444 C1454 0.950 . S
H1445 C1456 0.950 . S
H1446 C1458 0.950 1_565 S
H1447 C1459 0.946 1_565 S
C1448 H1440 0.955 . S
C1448 C1449 1.382 1_565 S
C1448 C1450 1.390 1_565 S
C1449 C1448 1.382 1_545 S
C1449 C1453 1.393 . S
C1450 H1442 0.946 1_545 S
C1450 C1448 1.390 1_545 S
C1450 C1451 1.405 . S
C1451 C1450 1.405 . S
C1451 C1452 1.398 . S
C1451 C1457 1.491 . S
C1452 H1443 0.950 . S
C1452 C1451 1.398 . S
C1452 C1453 1.391 . S
C1453 H1441 0.950 . S
C1453 C1449 1.393 . S
C1453 C1452 1.391 . S
C1454 H1444 0.950 . S
C1454 C1455 1.386 . S
C1454 C1456 1.391 . S
C1455 C1454 1.386 . S
C1455 C1459 1.393 . S
C1456 H1445 0.950 . S
C1456 C1454 1.391 . S
C1456 C1457 1.400 . S
C1457 C1451 1.491 . S
C1457 C1456 1.400 . S
C1457 C1458 1.398 . S
C1458 H1446 0.950 1_545 S
C1458 C1457 1.398 . S
C1458 C1459 1.391 . S
C1459 H1447 0.946 1_545 S
C1459 C1455 1.393 . S
C1459 C1458 1.391 . S
H1460 C1468 0.950 . S
H1461 C1473 0.950 . S
H1462 C1470 0.950 . S
H1463 C1472 0.950 . S
H1464 C1474 0.950 . S
H1465 C1476 0.950 . S
H1466 C1478 0.950 . S
H1467 C1479 0.950 . S
C1468 H1460 0.950 . S
C1468 C1469 1.386 . S
C1468 C1470 1.391 . S
C1469 C1468 1.386 . S
C1469 C1473 1.393 . S
C1470 H1462 0.950 . S
C1470 C1468 1.391 . S
C1470 C1471 1.400 . S
C1471 C1470 1.400 . S
C1471 C1472 1.398 . S
C1471 C1477 1.491 . S
C1472 H1463 0.950 . S
C1472 C1471 1.398 . S
C1472 C1473 1.391 . S
C1473 H1461 0.950 . S
C1473 C1469 1.393 . S
C1473 C1472 1.391 . S
C1474 H1464 0.950 . S
C1474 C1475 1.386 . S
C1474 C1476 1.391 . S
C1475 C1474 1.386 . S
C1475 C1479 1.393 . S
C1476 H1465 0.950 . S
C1476 C1474 1.391 . S
C1476 C1477 1.400 . S
C1477 C1471 1.491 . S
C1477 C1476 1.400 . S
C1477 C1478 1.398 . S
C1478 H1466 0.950 . S
C1478 C1477 1.398 . S
C1478 C1479 1.391 . S
C1479 H1467 0.950 . S
C1479 C1475 1.393 . S
C1479 C1478 1.391 . S
H1480 C1488 0.950 . S
H1481 C1493 0.950 . S
H1482 C1490 0.950 . S
H1483 C1492 0.950 . S
H1484 C1494 0.950 . S
H1485 C1496 0.950 . S
H1486 C1498 0.950 . S
H1487 C1499 0.950 . S
C1488 H1480 0.950 . S
C1488 C1489 1.386 . S
C1488 C1490 1.391 . S
C1489 C1488 1.386 . S
C1489 C1493 1.393 1_545 S
C1490 H1482 0.950 . S
C1490 C1488 1.391 . S
C1490 C1491 1.400 . S
C1491 C1490 1.400 . S
C1491 C1492 1.398 1_545 S
C1491 C1497 1.490 1_545 S
C1492 H1483 0.950 . S
C1492 C1491 1.398 1_565 S
C1492 C1493 1.391 . S
C1493 H1481 0.950 . S
C1493 C1489 1.393 1_565 S
C1493 C1492 1.391 . S
C1494 H1484 0.950 . S
C1494 C1495 1.386 . S
C1494 C1496 1.391 . S
C1495 C1494 1.386 . S
C1495 C1499 1.393 1_565 S
C1496 H1485 0.950 . S
C1496 C1494 1.391 . S
C1496 C1497 1.402 . S
C1497 C1491 1.490 1_565 S
C1497 C1496 1.402 . S
C1497 C1498 1.397 1_565 S
C1498 H1486 0.950 . S
C1498 C1497 1.397 1_545 S
C1498 C1499 1.391 . S
C1499 H1487 0.950 . S
C1499 C1495 1.393 1_545 S
C1499 C1498 1.391 . S
H1500 C1508 0.950 . S
H1501 C1513 0.950 . S
H1502 C1510 0.950 . S
H1503 C1512 0.950 . S
H1504 C1514 0.950 . S
H1505 C1516 0.950 . S
H1506 C1518 0.950 . S
H1507 C1519 0.950 . S
C1508 H1500 0.950 . S
C1508 C1509 1.386 . S
C1508 C1510 1.391 . S
C1509 C1508 1.386 . S
C1509 C1513 1.393 . S
C1510 H1502 0.950 . S
C1510 C1508 1.391 . S
C1510 C1511 1.400 . S
C1511 C1510 1.400 . S
C1511 C1512 1.398 . S
C1511 C1517 1.491 . S
C1512 H1503 0.950 . S
C1512 C1511 1.398 . S
C1512 C1513 1.391 . S
C1513 H1501 0.950 . S
C1513 C1509 1.393 . S
C1513 C1512 1.391 . S
C1514 H1504 0.950 . S
C1514 C1515 1.386 . S
C1514 C1516 1.391 . S
C1515 C1514 1.386 . S
C1515 C1519 1.393 . S
C1516 H1505 0.950 . S
C1516 C1514 1.391 . S
C1516 C1517 1.400 . S
C1517 C1511 1.491 . S
C1517 C1516 1.400 . S
C1517 C1518 1.398 . S
C1518 H1506 0.950 . S
C1518 C1517 1.398 . S
C1518 C1519 1.391 . S
C1519 H1507 0.950 . S
C1519 C1515 1.393 . S
C1519 C1518 1.391 . S
H1520 C1528 0.950 . S
H1521 C1533 0.950 . S
H1522 C1530 0.950 . S
H1523 C1532 0.950 . S
H1524 C1534 0.950 . S
H1525 C1536 0.950 . S
H1526 C1538 0.950 . S
H1527 C1539 0.950 . S
C1528 H1520 0.950 . S
C1528 C1529 1.386 . S
C1528 C1530 1.391 . S
C1529 C1528 1.386 . S
C1529 C1533 1.393 1_554 S
C1530 H1522 0.950 . S
C1530 C1528 1.391 . S
C1530 C1531 1.400 . S
C1531 C1530 1.400 . S
C1531 C1532 1.398 1_554 S
C1531 C1537 1.492 . S
C1532 H1523 0.950 . S
C1532 C1531 1.398 1_556 S
C1532 C1533 1.391 . S
C1533 H1521 0.950 . S
C1533 C1529 1.393 1_556 S
C1533 C1532 1.391 . S
C1534 H1524 0.950 . S
C1534 C1535 1.386 . S
C1534 C1536 1.391 . S
C1535 C1534 1.386 . S
C1535 C1539 1.393 1_556 S
C1536 H1525 0.950 . S
C1536 C1534 1.391 . S
C1536 C1537 1.389 1_556 S
C1537 C1531 1.492 . S
C1537 C1536 1.389 1_554 S
C1537 C1538 1.408 . S
C1538 H1526 0.950 . S
C1538 C1537 1.408 . S
C1538 C1539 1.391 . S
C1539 H1527 0.950 . S
C1539 C1535 1.393 1_554 S
C1539 C1538 1.391 . S
H1540 C1548 0.950 . S
H1541 C1553 0.950 . S
H1542 C1550 0.950 . S
H1543 C1552 0.950 . S
H1544 C1554 0.950 . S
H1545 C1556 0.950 . S
H1546 C1558 0.950 . S
H1547 C1559 0.950 . S
C1548 H1540 0.950 . S
C1548 C1549 1.386 1_556 S
C1548 C1550 1.391 . S
C1549 C1548 1.386 1_554 S
C1549 C1553 1.393 . S
C1550 H1542 0.950 . S
C1550 C1548 1.391 . S
C1550 C1551 1.400 1_556 S
C1551 C1550 1.400 1_554 S
C1551 C1552 1.398 . S
C1551 C1557 1.491 . S
C1552 H1543 0.950 . S
C1552 C1551 1.398 . S
C1552 C1553 1.391 . S
C1553 H1541 0.950 . S
C1553 C1549 1.393 . S
C1553 C1552 1.391 . S
C1554 H1544 0.950 . S
C1554 C1555 1.386 . S
C1554 C1556 1.391 . S
C1555 C1554 1.386 . S
C1555 C1559 1.393 1_554 S
C1556 H1545 0.950 . S
C1556 C1554 1.391 . S
C1556 C1557 1.400 . S
C1557 C1551 1.491 . S
C1557 C1556 1.400 . S
C1557 C1558 1.398 1_554 S
C1558 H1546 0.950 . S
C1558 C1557 1.398 1_556 S
C1558 C1559 1.391 . S
C1559 H1547 0.950 . S
C1559 C1555 1.393 1_556 S
C1559 C1558 1.391 . S
H1560 C1568 0.950 . S
H1561 C1573 0.950 . S
H1562 C1570 0.950 . S
H1563 C1572 0.950 . S
H1564 C1574 0.950 . S
H1565 C1576 0.950 . S
H1566 C1578 0.950 . S
H1567 C1579 0.950 . S
C1568 H1560 0.950 . S
C1568 C1569 1.386 . S
C1568 C1570 1.391 . S
C1569 C1568 1.386 . S
C1569 C1573 1.393 . S
C1570 H1562 0.950 . S
C1570 C1568 1.391 . S
C1570 C1571 1.400 . S
C1571 C1570 1.400 . S
C1571 C1572 1.398 . S
C1571 C1577 1.491 . S
C1572 H1563 0.950 . S
C1572 C1571 1.398 . S
C1572 C1573 1.391 . S
C1573 H1561 0.950 . S
C1573 C1569 1.393 . S
C1573 C1572 1.391 . S
C1574 H1564 0.950 . S
C1574 C1575 1.386 . S
C1574 C1576 1.391 . S
C1575 C1574 1.386 . S
C1575 C1579 1.393 . S
C1576 H1565 0.950 . S
C1576 C1574 1.391 . S
C1576 C1577 1.400 . S
C1577 C1571 1.491 . S
C1577 C1576 1.400 . S
C1577 C1578 1.398 . S
C1578 H1566 0.950 . S
C1578 C1577 1.398 . S
C1578 C1579 1.391 . S
C1579 H1567 0.950 . S
C1579 C1575 1.393 . S
C1579 C1578 1.391 . S
H1580 C1588 0.950 . S
H1581 C1593 0.950 . S
H1582 C1590 0.950 . S
H1583 C1592 0.950 . S
H1584 C1594 0.950 . S
H1585 C1596 0.950 . S
H1586 C1598 0.950 . S
H1587 C1599 0.950 . S
C1588 H1580 0.950 . S
C1588 C1589 1.386 . S
C1588 C1590 1.391 . S
C1589 C1588 1.386 . S
C1589 C1593 1.393 . S
C1590 H1582 0.950 . S
C1590 C1588 1.391 . S
C1590 C1591 1.400 . S
C1591 C1590 1.400 . S
C1591 C1592 1.398 . S
C1591 C1597 1.491 . S
C1592 H1583 0.950 . S
C1592 C1591 1.398 . S
C1592 C1593 1.391 . S
C1593 H1581 0.950 . S
C1593 C1589 1.393 . S
C1593 C1592 1.391 . S
C1594 H1584 0.950 . S
C1594 C1595 1.386 . S
C1594 C1596 1.391 . S
C1595 C1594 1.386 . S
C1595 C1599 1.393 . S
C1596 H1585 0.950 . S
C1596 C1594 1.391 . S
C1596 C1597 1.400 . S
C1597 C1591 1.491 . S
C1597 C1596 1.400 . S
C1597 C1598 1.398 . S
C1598 H1586 0.950 . S
C1598 C1597 1.398 . S
C1598 C1599 1.391 . S
C1599 H1587 0.950 . S
C1599 C1595 1.393 . S
C1599 C1598 1.391 . S
H1600 C1608 0.950 . S
H1601 C1613 0.950 . S
H1602 C1610 0.950 . S
H1603 C1612 0.950 . S
H1604 C1614 0.950 . S
H1605 C1616 0.950 . S
H1606 C1618 0.950 . S
H1607 C1619 0.950 . S
C1608 H1600 0.950 . S
C1608 C1609 1.386 . S
C1608 C1610 1.391 . S
C1609 C1608 1.386 . S
C1609 C1613 1.393 . S
C1610 H1602 0.950 . S
C1610 C1608 1.391 . S
C1610 C1611 1.400 . S
C1611 C1610 1.400 . S
C1611 C1612 1.398 . S
C1611 C1617 1.491 . S
C1612 H1603 0.950 . S
C1612 C1611 1.398 . S
C1612 C1613 1.391 . S
C1613 H1601 0.950 . S
C1613 C1609 1.393 . S
C1613 C1612 1.391 . S
C1614 H1604 0.950 . S
C1614 C1615 1.386 . S
C1614 C1616 1.391 . S
C1615 C1614 1.386 . S
C1615 C1619 1.393 . S
C1616 H1605 0.950 . S
C1616 C1614 1.391 . S
C1616 C1617 1.400 . S
C1617 C1611 1.491 . S
C1617 C1616 1.400 . S
C1617 C1618 1.398 . S
C1618 H1606 0.950 . S
C1618 C1617 1.398 . S
C1618 C1619 1.391 . S
C1619 H1607 0.950 . S
C1619 C1615 1.393 . S
C1619 C1618 1.391 . S
H1620 C1628 0.950 . S
H1621 C1633 0.950 . S
H1622 C1630 0.950 . S
H1623 C1632 0.950 . S
H1624 C1634 0.950 . S
H1625 C1636 0.950 . S
H1626 C1638 0.950 . S
H1627 C1639 0.950 . S
C1628 H1620 0.950 . S
C1628 C1629 1.386 . S
C1628 C1630 1.391 . S
C1629 C1628 1.386 . S
C1629 C1633 1.393 . S
C1630 H1622 0.950 . S
C1630 C1628 1.391 . S
C1630 C1631 1.400 . S
C1631 C1630 1.400 . S
C1631 C1632 1.398 . S
C1631 C1637 1.491 . S
C1632 H1623 0.950 . S
C1632 C1631 1.398 . S
C1632 C1633 1.391 . S
C1633 H1621 0.950 . S
C1633 C1629 1.393 . S
C1633 C1632 1.391 . S
C1634 H1624 0.950 . S
C1634 C1635 1.386 . S
C1634 C1636 1.391 . S
C1635 C1634 1.386 . S
C1635 C1639 1.393 . S
C1636 H1625 0.950 . S
C1636 C1634 1.391 . S
C1636 C1637 1.400 . S
C1637 C1631 1.491 . S
C1637 C1636 1.400 . S
C1637 C1638 1.398 . S
C1638 H1626 0.950 . S
C1638 C1637 1.398 . S
C1638 C1639 1.391 . S
C1639 H1627 0.950 . S
C1639 C1635 1.393 . S
C1639 C1638 1.391 . S
H1640 C1648 0.950 . S
H1641 C1653 0.950 . S
H1642 C1650 0.950 . S
H1643 C1652 0.950 . S
H1644 C1654 0.950 . S
H1645 C1656 0.950 . S
H1646 C1658 0.950 . S
H1647 C1659 0.950 . S
C1648 H1640 0.950 . S
C1648 C1649 1.386 . S
C1648 C1650 1.391 . S
C1649 C1648 1.386 . S
C1649 C1653 1.393 . S
C1650 H1642 0.950 . S
C1650 C1648 1.391 . S
C1650 C1651 1.400 . S
C1651 C1650 1.400 . S
C1651 C1652 1.398 . S
C1651 C1657 1.491 . S
C1652 H1643 0.950 . S
C1652 C1651 1.398 . S
C1652 C1653 1.391 . S
C1653 H1641 0.950 . S
C1653 C1649 1.393 . S
C1653 C1652 1.391 . S
C1654 H1644 0.950 . S
C1654 C1655 1.386 . S
C1654 C1656 1.391 . S
C1655 C1654 1.386 . S
C1655 C1659 1.393 . S
C1656 H1645 0.950 . S
C1656 C1654 1.391 . S
C1656 C1657 1.400 . S
C1657 C1651 1.491 . S
C1657 C1656 1.400 . S
C1657 C1658 1.398 . S
C1658 H1646 0.950 . S
C1658 C1657 1.398 . S
C1658 C1659 1.391 . S
C1659 H1647 0.950 . S
C1659 C1655 1.393 . S
C1659 C1658 1.391 . S
H1660 C1668 0.950 . S
H1661 C1673 0.950 . S
H1662 C1670 0.950 . S
H1663 C1672 0.950 . S
H1664 C1674 0.950 . S
H1665 C1676 0.950 . S
H1666 C1678 0.950 . S
H1667 C1679 0.950 . S
C1668 H1660 0.950 . S
C1668 C1669 1.386 . S
C1668 C1670 1.391 . S
C1669 C1668 1.386 . S
C1669 C1673 1.393 . S
C1670 H1662 0.950 . S
C1670 C1668 1.391 . S
C1670 C1671 1.400 . S
C1671 C1670 1.400 . S
C1671 C1672 1.398 . S
C1671 C1677 1.491 . S
C1672 H1663 0.950 . S
C1672 C1671 1.398 . S
C1672 C1673 1.391 . S
C1673 H1661 0.950 . S
C1673 C1669 1.393 . S
C1673 C1672 1.391 . S
C1674 H1664 0.950 . S
C1674 C1675 1.386 . S
C1674 C1676 1.391 . S
C1675 C1674 1.386 . S
C1675 C1679 1.393 . S
C1676 H1665 0.950 . S
C1676 C1674 1.391 . S
C1676 C1677 1.400 . S
C1677 C1671 1.491 . S
C1677 C1676 1.400 . S
C1677 C1678 1.398 . S
C1678 H1666 0.950 . S
C1678 C1677 1.398 . S
C1678 C1679 1.391 . S
C1679 H1667 0.950 . S
C1679 C1675 1.393 . S
C1679 C1678 1.391 . S
H1680 C1688 0.950 . S
H1681 C1693 0.950 . S
H1682 C1690 0.950 . S
H1683 C1692 0.950 . S
H1684 C1694 0.950 . S
H1685 C1696 0.950 . S
H1686 C1698 0.950 1_655 S
H1687 C1699 0.950 1_655 S
C1688 H1680 0.950 . S
C1688 C1689 1.386 1_655 S
C1688 C1690 1.391 . S
C1689 C1688 1.386 1_455 S
C1689 C1693 1.393 . S
C1690 H1682 0.950 . S
C1690 C1688 1.391 . S
C1690 C1691 1.400 1_655 S
C1691 C1690 1.400 1_455 S
C1691 C1692 1.398 . S
C1691 C1697 1.491 . S
C1692 H1683 0.950 . S
C1692 C1691 1.398 . S
C1692 C1693 1.391 . S
C1693 H1681 0.950 . S
C1693 C1689 1.393 . S
C1693 C1692 1.391 . S
C1694 H1684 0.950 . S
C1694 C1695 1.386 . S
C1694 C1696 1.391 . S
C1695 C1694 1.386 . S
C1695 C1699 1.393 . S
C1696 H1685 0.950 . S
C1696 C1694 1.391 . S
C1696 C1697 1.400 . S
C1697 C1691 1.491 . S
C1697 C1696 1.400 . S
C1697 C1698 1.398 . S
C1698 H1686 0.950 1_455 S
C1698 C1697 1.398 . S
C1698 C1699 1.391 . S
C1699 H1687 0.950 1_455 S
C1699 C1695 1.393 . S
C1699 C1698 1.391 . S
H1700 C1708 0.950 . S
H1701 C1713 0.950 . S
H1702 C1710 0.950 . S
H1703 C1712 0.950 . S
H1704 C1714 0.950 . S
H1705 C1716 0.950 . S
H1706 C1718 0.950 . S
H1707 C1719 0.950 . S
C1708 H1700 0.950 . S
C1708 C1709 1.386 . S
C1708 C1710 1.391 . S
C1709 C1708 1.386 . S
C1709 C1713 1.393 . S
C1710 H1702 0.950 . S
C1710 C1708 1.391 . S
C1710 C1711 1.400 . S
C1711 C1710 1.400 . S
C1711 C1712 1.398 . S
C1711 C1717 1.491 . S
C1712 H1703 0.950 . S
C1712 C1711 1.398 . S
C1712 C1713 1.391 . S
C1713 H1701 0.950 . S
C1713 C1709 1.393 . S
C1713 C1712 1.391 . S
C1714 H1704 0.950 . S
C1714 C1715 1.386 . S
C1714 C1716 1.391 . S
C1715 C1714 1.386 . S
C1715 C1719 1.393 . S
C1716 H1705 0.950 . S
C1716 C1714 1.391 . S
C1716 C1717 1.400 . S
C1717 C1711 1.491 . S
C1717 C1716 1.400 . S
C1717 C1718 1.398 . S
C1718 H1706 0.950 . S
C1718 C1717 1.398 . S
C1718 C1719 1.391 . S
C1719 H1707 0.950 . S
C1719 C1715 1.393 . S
C1719 C1718 1.391 . S
H1720 C1728 0.950 . S
H1721 C1733 0.950 . S
H1722 C1730 0.950 . S
H1723 C1732 0.950 . S
H1724 C1734 0.950 . S
H1725 C1736 0.950 . S
H1726 C1738 0.950 . S
H1727 C1739 0.950 . S
C1728 H1720 0.950 . S
C1728 C1729 1.386 . S
C1728 C1730 1.391 . S
C1729 C1728 1.386 . S
C1729 C1733 1.393 . S
C1730 H1722 0.950 . S
C1730 C1728 1.391 . S
C1730 C1731 1.400 . S
C1731 C1730 1.400 . S
C1731 C1732 1.398 . S
C1731 C1737 1.491 . S
C1732 H1723 0.950 . S
C1732 C1731 1.398 . S
C1732 C1733 1.391 . S
C1733 H1721 0.950 . S
C1733 C1729 1.393 . S
C1733 C1732 1.391 . S
C1734 H1724 0.950 . S
C1734 C1735 1.386 . S
C1734 C1736 1.391 . S
C1735 C1734 1.386 . S
C1735 C1739 1.393 . S
C1736 H1725 0.950 . S
C1736 C1734 1.391 . S
C1736 C1737 1.400 . S
C1737 C1731 1.491 . S
C1737 C1736 1.400 . S
C1737 C1738 1.398 . S
C1738 H1726 0.950 . S
C1738 C1737 1.398 . S
C1738 C1739 1.391 . S
C1739 H1727 0.950 . S
C1739 C1735 1.393 . S
C1739 C1738 1.391 . S
H1740 C1748 0.950 . S
H1741 C1753 0.950 . S
H1742 C1750 0.950 . S
H1743 C1752 0.950 . S
H1744 C1754 0.950 . S
H1745 C1756 0.950 . S
H1746 C1758 0.950 . S
H1747 C1759 0.950 . S
C1748 H1740 0.950 . S
C1748 C1749 1.386 . S
C1748 C1750 1.391 . S
C1749 C1748 1.386 . S
C1749 C1753 1.393 . S
C1750 H1742 0.950 . S
C1750 C1748 1.391 . S
C1750 C1751 1.400 . S
C1751 C1750 1.400 . S
C1751 C1752 1.398 . S
C1751 C1757 1.491 . S
C1752 H1743 0.950 . S
C1752 C1751 1.398 . S
C1752 C1753 1.391 . S
C1753 H1741 0.950 . S
C1753 C1749 1.393 . S
C1753 C1752 1.391 . S
C1754 H1744 0.950 . S
C1754 C1755 1.386 . S
C1754 C1756 1.391 . S
C1755 C1754 1.386 . S
C1755 C1759 1.393 . S
C1756 H1745 0.950 . S
C1756 C1754 1.391 . S
C1756 C1757 1.400 . S
C1757 C1751 1.491 . S
C1757 C1756 1.400 . S
C1757 C1758 1.398 . S
C1758 H1746 0.950 . S
C1758 C1757 1.398 . S
C1758 C1759 1.391 . S
C1759 H1747 0.950 . S
C1759 C1755 1.393 . S
C1759 C1758 1.391 . S
H1760 C1768 0.950 . S
H1761 C1773 0.950 . S
H1762 C1770 0.950 . S
H1763 C1772 0.950 . S
H1764 C1774 0.950 1_655 S
H1765 C1776 0.948 1_655 S
H1766 C1778 0.950 . S
H1767 C1779 0.950 . S
C1768 H1760 0.950 . S
C1768 C1769 1.386 . S
C1768 C1770 1.391 . S
C1769 C1768 1.386 . S
C1769 C1773 1.393 1_455 S
C1770 H1762 0.950 . S
C1770 C1768 1.391 . S
C1770 C1771 1.400 . S
C1771 C1770 1.400 . S
C1771 C1772 1.398 1_455 S
C1771 C1777 1.491 . S
C1772 H1763 0.950 . S
C1772 C1771 1.398 1_655 S
C1772 C1773 1.391 . S
C1773 H1761 0.950 . S
C1773 C1769 1.393 1_655 S
C1773 C1772 1.391 . S
C1774 H1764 0.950 1_455 S
C1774 C1775 1.386 . S
C1774 C1776 1.392 . S
C1775 C1774 1.386 . S
C1775 C1779 1.393 . S
C1776 H1765 0.948 1_455 S
C1776 C1774 1.392 . S
C1776 C1777 1.402 . S
C1777 C1771 1.491 . S
C1777 C1776 1.402 . S
C1777 C1778 1.398 . S
C1778 H1766 0.950 . S
C1778 C1777 1.398 . S
C1778 C1779 1.391 . S
C1779 H1767 0.950 . S
C1779 C1775 1.393 . S
C1779 C1778 1.391 . S
H1780 C1788 0.950 . S
H1781 C1793 0.950 . S
H1782 C1790 0.950 . S
H1783 C1792 0.950 . S
H1784 C1794 0.950 . S
H1785 C1796 0.950 . S
H1786 C1798 0.950 . S
H1787 C1799 0.950 . S
C1788 H1780 0.950 . S
C1788 C1789 1.386 . S
C1788 C1790 1.391 . S
C1789 C1788 1.386 . S
C1789 C1793 1.393 . S
C1790 H1782 0.950 . S
C1790 C1788 1.391 . S
C1790 C1791 1.400 . S
C1791 C1790 1.400 . S
C1791 C1792 1.398 . S
C1791 C1797 1.491 . S
C1792 H1783 0.950 . S
C1792 C1791 1.398 . S
C1792 C1793 1.391 . S
C1793 H1781 0.950 . S
C1793 C1789 1.393 . S
C1793 C1792 1.391 . S
C1794 H1784 0.950 . S
C1794 C1795 1.386 . S
C1794 C1796 1.391 . S
C1795 C1794 1.386 . S
C1795 C1799 1.393 . S
C1796 H1785 0.950 . S
C1796 C1794 1.391 . S
C1796 C1797 1.400 . S
C1797 C1791 1.491 . S
C1797 C1796 1.400 . S
C1797 C1798 1.398 . S
C1798 H1786 0.950 . S
C1798 C1797 1.398 . S
C1798 C1799 1.391 . S
C1799 H1787 0.950 . S
C1799 C1795 1.393 . S
C1799 C1798 1.391 . S
H1800 C1808 0.950 . S
H1801 C1813 0.950 . S
H1802 C1810 0.950 . S
H1803 C1812 0.950 . S
H1804 C1814 0.950 . S
H1805 C1816 0.950 . S
H1806 C1818 0.950 . S
H1807 C1819 0.950 . S
C1808 H1800 0.950 . S
C1808 C1809 1.386 . S
C1808 C1810 1.391 . S
C1809 C1808 1.386 . S
C1809 C1813 1.393 . S
C1810 H1802 0.950 . S
C1810 C1808 1.391 . S
C1810 C1811 1.400 . S
C1811 C1810 1.400 . S
C1811 C1812 1.398 . S
C1811 C1817 1.491 . S
C1812 H1803 0.950 . S
C1812 C1811 1.398 . S
C1812 C1813 1.391 . S
C1813 H1801 0.950 . S
C1813 C1809 1.393 . S
C1813 C1812 1.391 . S
C1814 H1804 0.950 . S
C1814 C1815 1.386 . S
C1814 C1816 1.391 . S
C1815 C1814 1.386 . S
C1815 C1819 1.393 . S
C1816 H1805 0.950 . S
C1816 C1814 1.391 . S
C1816 C1817 1.400 . S
C1817 C1811 1.491 . S
C1817 C1816 1.400 . S
C1817 C1818 1.398 . S
C1818 H1806 0.950 . S
C1818 C1817 1.398 . S
C1818 C1819 1.391 . S
C1819 H1807 0.950 . S
C1819 C1815 1.393 . S
C1819 C1818 1.391 . S
H1820 C1828 0.950 . S
H1821 C1833 0.950 . S
H1822 C1830 0.950 . S
H1823 C1832 0.950 . S
H1824 C1834 0.950 . S
H1825 C1836 0.950 . S
H1826 C1838 0.950 . S
H1827 C1839 0.950 . S
C1828 H1820 0.950 . S
C1828 C1829 1.386 . S
C1828 C1830 1.391 . S
C1829 C1828 1.386 . S
C1829 C1833 1.393 . S
C1830 H1822 0.950 . S
C1830 C1828 1.391 . S
C1830 C1831 1.400 . S
C1831 C1830 1.400 . S
C1831 C1832 1.398 . S
C1831 C1837 1.491 . S
C1832 H1823 0.950 . S
C1832 C1831 1.398 . S
C1832 C1833 1.391 . S
C1833 H1821 0.950 . S
C1833 C1829 1.393 . S
C1833 C1832 1.391 . S
C1834 H1824 0.950 . S
C1834 C1835 1.386 . S
C1834 C1836 1.391 . S
C1835 C1834 1.386 . S
C1835 C1839 1.393 . S
C1836 H1825 0.950 . S
C1836 C1834 1.391 . S
C1836 C1837 1.400 . S
C1837 C1831 1.491 . S
C1837 C1836 1.400 . S
C1837 C1838 1.398 . S
C1838 H1826 0.950 . S
C1838 C1837 1.398 . S
C1838 C1839 1.391 . S
C1839 H1827 0.950 . S
C1839 C1835 1.393 . S
C1839 C1838 1.391 . S
H1840 C1848 0.950 . S
H1841 C1853 0.950 . S
H1842 C1850 0.952 . S
H1843 C1852 0.950 . S
H1844 C1854 0.950 1_455 S
H1845 C1856 0.950 . S
H1846 C1858 0.950 . S
H1847 C1859 0.950 . S
C1848 H1840 0.950 . S
C1848 C1849 1.386 1_565 S
C1848 C1850 1.392 . S
C1849 C1848 1.386 1_545 S
C1849 C1853 1.393 . S
C1850 H1842 0.952 . S
C1850 C1848 1.392 . S
C1850 C1851 1.397 1_565 S
C1851 C1850 1.397 1_545 S
C1851 C1852 1.398 . S
C1851 C1857 1.491 . S
C1852 H1843 0.950 . S
C1852 C1851 1.398 . S
C1852 C1853 1.391 . S
C1853 H1841 0.950 . S
C1853 C1849 1.393 . S
C1853 C1852 1.391 . S
C1854 H1844 0.950 1_655 S
C1854 C1855 1.386 . S
C1854 C1856 1.391 . S
C1855 C1854 1.386 . S
C1855 C1859 1.393 . S
C1856 H1845 0.950 . S
C1856 C1854 1.391 . S
C1856 C1857 1.400 . S
C1857 C1851 1.491 . S
C1857 C1856 1.400 . S
C1857 C1858 1.398 . S
C1858 H1846 0.950 . S
C1858 C1857 1.398 . S
C1858 C1859 1.391 . S
C1859 H1847 0.950 . S
C1859 C1855 1.393 . S
C1859 C1858 1.391 . S
H1860 C1868 0.950 . S
H1861 C1873 0.950 . S
H1862 C1870 0.950 . S
H1863 C1872 0.950 . S
H1864 C1874 0.950 . S
H1865 C1876 0.950 . S
H1866 C1878 0.950 . S
H1867 C1879 0.950 . S
C1868 H1860 0.950 . S
C1868 C1869 1.386 . S
C1868 C1870 1.391 . S
C1869 C1868 1.386 . S
C1869 C1873 1.393 . S
C1870 H1862 0.950 . S
C1870 C1868 1.391 . S
C1870 C1871 1.400 . S
C1871 C1870 1.400 . S
C1871 C1872 1.398 . S
C1871 C1877 1.491 . S
C1872 H1863 0.950 . S
C1872 C1871 1.398 . S
C1872 C1873 1.391 . S
C1873 H1861 0.950 . S
C1873 C1869 1.393 . S
C1873 C1872 1.391 . S
C1874 H1864 0.950 . S
C1874 C1875 1.386 . S
C1874 C1876 1.391 . S
C1875 C1874 1.386 . S
C1875 C1879 1.393 . S
C1876 H1865 0.950 . S
C1876 C1874 1.391 . S
C1876 C1877 1.400 . S
C1877 C1871 1.491 . S
C1877 C1876 1.400 . S
C1877 C1878 1.398 . S
C1878 H1866 0.950 . S
C1878 C1877 1.398 . S
C1878 C1879 1.391 . S
C1879 H1867 0.950 . S
C1879 C1875 1.393 . S
C1879 C1878 1.391 . S
H1880 C1888 0.950 . S
H1881 C1893 0.950 . S
H1882 C1890 0.950 . S
H1883 C1892 0.950 . S
H1884 C1894 0.950 . S
H1885 C1896 0.950 . S
H1886 C1898 0.950 . S
H1887 C1899 0.950 . S
C1888 H1880 0.950 . S
C1888 C1889 1.414 . S
C1888 C1890 1.391 . S
C1889 C1888 1.414 . S
C1889 C1893 1.363 1_545 S
C1890 H1882 0.950 . S
C1890 C1888 1.391 . S
C1890 C1891 1.400 1_545 S
C1891 C1890 1.400 1_565 S
C1891 C1892 1.398 . S
C1891 C1897 1.491 . S
C1892 H1883 0.950 . S
C1892 C1891 1.398 . S
C1892 C1893 1.391 . S
C1893 H1881 0.950 . S
C1893 C1889 1.363 1_565 S
C1893 C1892 1.391 . S
C1894 H1884 0.950 . S
C1894 C1895 1.386 . S
C1894 C1896 1.391 . S
C1895 C1894 1.386 . S
C1895 C1899 1.393 1_565 S
C1896 H1885 0.950 . S
C1896 C1894 1.391 . S
C1896 C1897 1.400 . S
C1897 C1891 1.491 . S
C1897 C1896 1.400 . S
C1897 C1898 1.398 1_565 S
C1898 H1886 0.950 . S
C1898 C1897 1.398 1_545 S
C1898 C1899 1.391 . S
C1899 H1887 0.950 . S
C1899 C1895 1.393 1_545 S
C1899 C1898 1.391 . S
H1900 C1908 0.950 . S
H1901 C1913 0.950 . S
H1902 C1910 0.950 . S
H1903 C1912 0.950 . S
H1904 C1914 0.950 . S
H1905 C1916 0.950 . S
H1906 C1918 0.950 . S
H1907 C1919 0.950 . S
C1908 H1900 0.950 . S
C1908 C1909 1.386 . S
C1908 C1910 1.391 . S
C1909 C1908 1.386 . S
C1909 C1913 1.393 . S
C1910 H1902 0.950 . S
C1910 C1908 1.391 . S
C1910 C1911 1.400 . S
C1911 C1910 1.400 . S
C1911 C1912 1.398 . S
C1911 C1917 1.491 . S
C1912 H1903 0.950 . S
C1912 C1911 1.398 . S
C1912 C1913 1.391 . S
C1913 H1901 0.950 . S
C1913 C1909 1.393 . S
C1913 C1912 1.391 . S
C1914 H1904 0.950 . S
C1914 C1915 1.386 . S
C1914 C1916 1.391 . S
C1915 C1914 1.386 . S
C1915 C1919 1.393 . S
C1916 H1905 0.950 . S
C1916 C1914 1.391 . S
C1916 C1917 1.400 . S
C1917 C1911 1.491 . S
C1917 C1916 1.400 . S
C1917 C1918 1.398 . S
C1918 H1906 0.950 . S
C1918 C1917 1.398 . S
C1918 C1919 1.391 . S
C1919 H1907 0.950 . S
C1919 C1915 1.393 . S
C1919 C1918 1.391 . S
H1920 C1928 0.950 . S
H1921 C1933 0.950 . S
H1922 C1930 0.951 . S
H1923 C1932 0.950 . S
H1924 C1934 0.950 . S
H1925 C1936 0.950 . S
H1926 C1938 0.950 1_545 S
H1927 C1939 0.953 1_455 S
C1928 H1920 0.950 . S
C1928 C1929 1.386 1_545 S
C1928 C1930 1.392 . S
C1929 C1928 1.386 1_565 S
C1929 C1933 1.393 . S
C1930 H1922 0.951 . S
C1930 C1928 1.392 . S
C1930 C1931 1.399 1_545 S
C1931 C1930 1.399 1_565 S
C1931 C1932 1.398 . S
C1931 C1937 1.491 . S
C1932 H1923 0.950 . S
C1932 C1931 1.398 . S
C1932 C1933 1.391 . S
C1933 H1921 0.950 . S
C1933 C1929 1.393 . S
C1933 C1932 1.391 . S
C1934 H1924 0.950 . S
C1934 C1935 1.386 . S
C1934 C1936 1.391 . S
C1935 C1934 1.386 . S
C1935 C1939 1.393 . S
C1936 H1925 0.950 . S
C1936 C1934 1.391 . S
C1936 C1937 1.400 . S
C1937 C1931 1.491 . S
C1937 C1936 1.400 . S
C1937 C1938 1.398 . S
C1938 H1926 0.950 1_565 S
C1938 C1937 1.398 . S
C1938 C1939 1.391 . S
C1939 H1927 0.953 1_655 S
C1939 C1935 1.393 . S
C1939 C1938 1.391 . S
H1940 C1948 0.950 . S
H1941 C1953 0.950 . S
H1942 C1950 0.950 . S
H1943 C1952 0.950 . S
H1944 C1954 0.950 . S
H1945 C1956 0.950 . S
H1946 C1958 0.950 . S
H1947 C1959 0.950 . S
C1948 H1940 0.950 . S
C1948 C1949 1.386 . S
C1948 C1950 1.391 . S
C1949 C1948 1.386 . S
C1949 C1953 1.393 . S
C1950 H1942 0.950 . S
C1950 C1948 1.391 . S
C1950 C1951 1.400 . S
C1951 C1950 1.400 . S
C1951 C1952 1.398 . S
C1951 C1957 1.491 . S
C1952 H1943 0.950 . S
C1952 C1951 1.398 . S
C1952 C1953 1.391 . S
C1953 H1941 0.950 . S
C1953 C1949 1.393 . S
C1953 C1952 1.391 . S
C1954 H1944 0.950 . S
C1954 C1955 1.386 . S
C1954 C1956 1.391 . S
C1955 C1954 1.386 . S
C1955 C1959 1.393 . S
C1956 H1945 0.950 . S
C1956 C1954 1.391 . S
C1956 C1957 1.400 . S
C1957 C1951 1.491 . S
C1957 C1956 1.400 . S
C1957 C1958 1.398 . S
C1958 H1946 0.950 . S
C1958 C1957 1.398 . S
C1958 C1959 1.391 . S
C1959 H1947 0.950 . S
C1959 C1955 1.393 . S
C1959 C1958 1.391 . S
H1960 C1968 0.950 . S
H1961 C1973 0.950 . S
H1962 C1970 0.950 . S
H1963 C1972 0.950 . S
H1964 C1974 0.950 . S
H1965 C1976 0.950 . S
H1966 C1978 0.950 . S
H1967 C1979 0.950 . S
C1968 H1960 0.950 . S
C1968 C1969 1.386 . S
C1968 C1970 1.391 . S
C1969 C1968 1.386 . S
C1969 C1973 1.393 . S
C1970 H1962 0.950 . S
C1970 C1968 1.391 . S
C1970 C1971 1.400 . S
C1971 C1970 1.400 . S
C1971 C1972 1.398 . S
C1971 C1977 1.491 . S
C1972 H1963 0.950 . S
C1972 C1971 1.398 . S
C1972 C1973 1.391 . S
C1973 H1961 0.950 . S
C1973 C1969 1.393 . S
C1973 C1972 1.391 . S
C1974 H1964 0.950 . S
C1974 C1975 1.386 . S
C1974 C1976 1.391 . S
C1975 C1974 1.386 . S
C1975 C1979 1.393 . S
C1976 H1965 0.950 . S
C1976 C1974 1.391 . S
C1976 C1977 1.400 . S
C1977 C1971 1.491 . S
C1977 C1976 1.400 . S
C1977 C1978 1.398 . S
C1978 H1966 0.950 . S
C1978 C1977 1.398 . S
C1978 C1979 1.391 . S
C1979 H1967 0.950 . S
C1979 C1975 1.393 . S
C1979 C1978 1.391 . S
H1980 C1988 0.950 . S
H1981 C1993 0.950 . S
H1982 C1990 0.950 . S
H1983 C1992 0.950 . S
H1984 C1994 0.950 . S
H1985 C1996 0.950 . S
H1986 C1998 0.950 . S
H1987 C1999 0.950 . S
C1988 H1980 0.950 . S
C1988 C1989 1.386 . S
C1988 C1990 1.391 . S
C1989 C1988 1.386 . S
C1989 C1993 1.393 . S
C1990 H1982 0.950 . S
C1990 C1988 1.391 . S
C1990 C1991 1.400 . S
C1991 C1990 1.400 . S
C1991 C1992 1.398 . S
C1991 C1997 1.491 . S
C1992 H1983 0.950 . S
C1992 C1991 1.398 . S
C1992 C1993 1.391 . S
C1993 H1981 0.950 . S
C1993 C1989 1.393 . S
C1993 C1992 1.391 . S
C1994 H1984 0.950 . S
C1994 C1995 1.386 . S
C1994 C1996 1.391 . S
C1995 C1994 1.386 . S
C1995 C1999 1.393 . S
C1996 H1985 0.950 . S
C1996 C1994 1.391 . S
C1996 C1997 1.400 . S
C1997 C1991 1.491 . S
C1997 C1996 1.400 . S
C1997 C1998 1.398 . S
C1998 H1986 0.950 . S
C1998 C1997 1.398 . S
C1998 C1999 1.391 . S
C1999 H1987 0.950 . S
C1999 C1995 1.393 . S
C1999 C1998 1.391 . S
H2000 C2008 0.950 . S
H2001 C2013 0.950 . S
H2002 C2010 0.950 . S
H2003 C2012 0.950 . S
H2004 C2014 0.950 . S
H2005 C2016 0.950 . S
H2006 C2018 0.950 . S
H2007 C2019 0.950 . S
C2008 H2000 0.950 . S
C2008 C2009 1.386 . S
C2008 C2010 1.391 . S
C2009 C2008 1.386 . S
C2009 C2013 1.393 1_554 S
C2010 H2002 0.950 . S
C2010 C2008 1.391 . S
C2010 C2011 1.400 . S
C2011 C2010 1.400 . S
C2011 C2012 1.398 1_554 S
C2011 C2017 1.491 . S
C2012 H2003 0.950 . S
C2012 C2011 1.398 1_556 S
C2012 C2013 1.391 . S
C2013 H2001 0.950 . S
C2013 C2009 1.393 1_556 S
C2013 C2012 1.391 . S
C2014 H2004 0.950 . S
C2014 C2015 1.386 1_556 S
C2014 C2016 1.391 . S
C2015 C2014 1.386 1_554 S
C2015 C2019 1.393 . S
C2016 H2005 0.950 . S
C2016 C2014 1.391 . S
C2016 C2017 1.400 1_556 S
C2017 C2011 1.491 . S
C2017 C2016 1.400 1_554 S
C2017 C2018 1.398 . S
C2018 H2006 0.950 . S
C2018 C2017 1.398 . S
C2018 C2019 1.391 . S
C2019 H2007 0.950 . S
C2019 C2015 1.393 . S
C2019 C2018 1.391 . S
H2020 C2028 0.950 . S
H2021 C2033 0.950 . S
H2022 C2030 0.950 . S
H2023 C2032 0.950 . S
H2024 C2034 0.950 . S
H2025 C2036 0.950 . S
H2026 C2038 0.950 . S
H2027 C2039 0.950 . S
C2028 H2020 0.950 . S
C2028 C2029 1.386 1_554 S
C2028 C2030 1.391 . S
C2029 C2028 1.386 1_556 S
C2029 C2033 1.393 . S
C2030 H2022 0.950 . S
C2030 C2028 1.391 . S
C2030 C2031 1.400 1_554 S
C2031 C2030 1.400 1_556 S
C2031 C2032 1.398 . S
C2031 C2037 1.491 . S
C2032 H2023 0.950 . S
C2032 C2031 1.398 . S
C2032 C2033 1.391 . S
C2033 H2021 0.950 . S
C2033 C2029 1.393 . S
C2033 C2032 1.391 . S
C2034 H2024 0.950 . S
C2034 C2035 1.386 . S
C2034 C2036 1.391 . S
C2035 C2034 1.386 . S
C2035 C2039 1.393 1_556 S
C2036 H2025 0.950 . S
C2036 C2034 1.391 . S
C2036 C2037 1.400 . S
C2037 C2031 1.491 . S
C2037 C2036 1.400 . S
C2037 C2038 1.398 1_556 S
C2038 H2026 0.950 . S
C2038 C2037 1.398 1_554 S
C2038 C2039 1.391 . S
C2039 H2027 0.950 . S
C2039 C2035 1.393 1_554 S
C2039 C2038 1.391 . S
H2040 C2048 0.950 . S
H2041 C2053 0.950 . S
H2042 C2050 0.950 . S
H2043 C2052 0.950 . S
H2044 C2054 0.950 . S
H2045 C2056 0.950 . S
H2046 C2058 0.950 . S
H2047 C2059 0.950 . S
C2048 H2040 0.950 . S
C2048 C2049 1.386 . S
C2048 C2050 1.391 . S
C2049 C2048 1.386 . S
C2049 C2053 1.393 . S
C2050 H2042 0.950 . S
C2050 C2048 1.391 . S
C2050 C2051 1.400 . S
C2051 C2050 1.400 . S
C2051 C2052 1.398 . S
C2051 C2057 1.491 . S
C2052 H2043 0.950 . S
C2052 C2051 1.398 . S
C2052 C2053 1.391 . S
C2053 H2041 0.950 . S
C2053 C2049 1.393 . S
C2053 C2052 1.391 . S
C2054 H2044 0.950 . S
C2054 C2055 1.386 . S
C2054 C2056 1.391 . S
C2055 C2054 1.386 . S
C2055 C2059 1.393 . S
C2056 H2045 0.950 . S
C2056 C2054 1.391 . S
C2056 C2057 1.400 . S
C2057 C2051 1.491 . S
C2057 C2056 1.400 . S
C2057 C2058 1.398 . S
C2058 H2046 0.950 . S
C2058 C2057 1.398 . S
C2058 C2059 1.391 . S
C2059 H2047 0.950 . S
C2059 C2055 1.393 . S
C2059 C2058 1.391 . S
H2060 C2068 0.950 . S
H2061 C2073 0.950 . S
H2062 C2070 0.950 . S
H2063 C2072 0.950 . S
H2064 C2074 0.950 . S
H2065 C2076 0.950 . S
H2066 C2078 0.950 . S
H2067 C2079 0.950 . S
C2068 H2060 0.950 . S
C2068 C2069 1.386 . S
C2068 C2070 1.391 . S
C2069 C2068 1.386 . S
C2069 C2073 1.393 . S
C2070 H2062 0.950 . S
C2070 C2068 1.391 . S
C2070 C2071 1.400 . S
C2071 C2070 1.400 . S
C2071 C2072 1.398 . S
C2071 C2077 1.491 . S
C2072 H2063 0.950 . S
C2072 C2071 1.398 . S
C2072 C2073 1.391 . S
C2073 H2061 0.950 . S
C2073 C2069 1.393 . S
C2073 C2072 1.391 . S
C2074 H2064 0.950 . S
C2074 C2075 1.386 . S
C2074 C2076 1.391 . S
C2075 C2074 1.386 . S
C2075 C2079 1.393 . S
C2076 H2065 0.950 . S
C2076 C2074 1.391 . S
C2076 C2077 1.400 . S
C2077 C2071 1.491 . S
C2077 C2076 1.400 . S
C2077 C2078 1.398 . S
C2078 H2066 0.950 . S
C2078 C2077 1.398 . S
C2078 C2079 1.391 . S
C2079 H2067 0.950 . S
C2079 C2075 1.393 . S
C2079 C2078 1.391 . S
H2080 C2088 0.950 . S
H2081 C2093 0.950 . S
H2082 C2090 0.950 . S
H2083 C2092 0.950 . S
H2084 C2094 0.950 . S
H2085 C2096 0.950 . S
H2086 C2098 0.950 . S
H2087 C2099 0.950 . S
C2088 H2080 0.950 . S
C2088 C2089 1.386 . S
C2088 C2090 1.391 . S
C2089 C2088 1.386 . S
C2089 C2093 1.393 . S
C2090 H2082 0.950 . S
C2090 C2088 1.391 . S
C2090 C2091 1.400 . S
C2091 C2090 1.400 . S
C2091 C2092 1.398 . S
C2091 C2097 1.491 . S
C2092 H2083 0.950 . S
C2092 C2091 1.398 . S
C2092 C2093 1.391 . S
C2093 H2081 0.950 . S
C2093 C2089 1.393 . S
C2093 C2092 1.391 . S
C2094 H2084 0.950 . S
C2094 C2095 1.386 . S
C2094 C2096 1.391 . S
C2095 C2094 1.386 . S
C2095 C2099 1.393 . S
C2096 H2085 0.950 . S
C2096 C2094 1.391 . S
C2096 C2097 1.400 . S
C2097 C2091 1.491 . S
C2097 C2096 1.400 . S
C2097 C2098 1.398 . S
C2098 H2086 0.950 . S
C2098 C2097 1.398 . S
C2098 C2099 1.391 . S
C2099 H2087 0.950 . S
C2099 C2095 1.393 . S
C2099 C2098 1.391 . S
H2100 C2108 0.950 . S
H2101 C2113 0.950 . S
H2102 C2110 0.950 . S
H2103 C2112 0.950 . S
H2104 C2114 0.950 . S
H2105 C2116 0.950 . S
H2106 C2118 0.950 . S
H2107 C2119 0.950 . S
C2108 H2100 0.950 . S
C2108 C2109 1.386 . S
C2108 C2110 1.391 . S
C2109 C2108 1.386 . S
C2109 C2113 1.393 . S
C2110 H2102 0.950 . S
C2110 C2108 1.391 . S
C2110 C2111 1.400 . S
C2111 C2110 1.400 . S
C2111 C2112 1.398 . S
C2111 C2117 1.491 . S
C2112 H2103 0.950 . S
C2112 C2111 1.398 . S
C2112 C2113 1.391 . S
C2113 H2101 0.950 . S
C2113 C2109 1.393 . S
C2113 C2112 1.391 . S
C2114 H2104 0.950 . S
C2114 C2115 1.386 . S
C2114 C2116 1.391 . S
C2115 C2114 1.386 . S
C2115 C2119 1.393 . S
C2116 H2105 0.950 . S
C2116 C2114 1.391 . S
C2116 C2117 1.400 . S
C2117 C2111 1.491 . S
C2117 C2116 1.400 . S
C2117 C2118 1.398 . S
C2118 H2106 0.950 . S
C2118 C2117 1.398 . S
C2118 C2119 1.391 . S
C2119 H2107 0.950 . S
C2119 C2115 1.393 . S
C2119 C2118 1.391 . S
H2120 C2128 0.950 . S
H2121 C2133 0.950 . S
H2122 C2130 0.950 . S
H2123 C2132 0.950 . S
H2124 C2134 0.950 . S
H2125 C2136 0.950 . S
H2126 C2138 0.950 . S
H2127 C2139 0.950 . S
C2128 H2120 0.950 . S
C2128 C2129 1.386 . S
C2128 C2130 1.391 . S
C2129 C2128 1.386 . S
C2129 C2133 1.393 . S
C2130 H2122 0.950 . S
C2130 C2128 1.391 . S
C2130 C2131 1.400 . S
C2131 C2130 1.400 . S
C2131 C2132 1.398 . S
C2131 C2137 1.491 . S
C2132 H2123 0.950 . S
C2132 C2131 1.398 . S
C2132 C2133 1.391 . S
C2133 H2121 0.950 . S
C2133 C2129 1.393 . S
C2133 C2132 1.391 . S
C2134 H2124 0.950 . S
C2134 C2135 1.386 . S
C2134 C2136 1.391 . S
C2135 C2134 1.386 . S
C2135 C2139 1.393 . S
C2136 H2125 0.950 . S
C2136 C2134 1.391 . S
C2136 C2137 1.400 . S
C2137 C2131 1.491 . S
C2137 C2136 1.400 . S
C2137 C2138 1.398 . S
C2138 H2126 0.950 . S
C2138 C2137 1.398 . S
C2138 C2139 1.391 . S
C2139 H2127 0.950 . S
C2139 C2135 1.393 . S
C2139 C2138 1.391 . S
H2140 C2148 0.950 . S
H2141 C2153 0.950 . S
H2142 C2150 0.950 . S
H2143 C2152 0.950 . S
H2144 C2154 0.950 . S
H2145 C2156 0.950 . S
H2146 C2158 0.950 . S
H2147 C2159 0.950 . S
C2148 H2140 0.950 . S
C2148 C2149 1.386 . S
C2148 C2150 1.391 . S
C2149 C2148 1.386 . S
C2149 C2153 1.393 . S
C2150 H2142 0.950 . S
C2150 C2148 1.391 . S
C2150 C2151 1.400 . S
C2151 C2150 1.400 . S
C2151 C2152 1.398 . S
C2151 C2157 1.491 . S
C2152 H2143 0.950 . S
C2152 C2151 1.398 . S
C2152 C2153 1.391 . S
C2153 H2141 0.950 . S
C2153 C2149 1.393 . S
C2153 C2152 1.391 . S
C2154 H2144 0.950 . S
C2154 C2155 1.386 . S
C2154 C2156 1.391 . S
C2155 C2154 1.386 . S
C2155 C2159 1.393 . S
C2156 H2145 0.950 . S
C2156 C2154 1.391 . S
C2156 C2157 1.400 . S
C2157 C2151 1.491 . S
C2157 C2156 1.400 . S
C2157 C2158 1.398 . S
C2158 H2146 0.950 . S
C2158 C2157 1.398 . S
C2158 C2159 1.391 . S
C2159 H2147 0.950 . S
C2159 C2155 1.393 . S
C2159 C2158 1.391 . S
H2160 C2168 0.950 . S
H2161 C2173 0.950 . S
H2162 C2170 0.950 . S
H2163 C2172 0.950 . S
H2164 C2174 0.950 . S
H2165 C2176 0.950 . S
H2166 C2178 0.950 . S
H2167 C2179 0.950 . S
C2168 H2160 0.950 . S
C2168 C2169 1.386 . S
C2168 C2170 1.391 . S
C2169 C2168 1.386 . S
C2169 C2173 1.393 . S
C2170 H2162 0.950 . S
C2170 C2168 1.391 . S
C2170 C2171 1.400 . S
C2171 C2170 1.400 . S
C2171 C2172 1.398 . S
C2171 C2177 1.491 . S
C2172 H2163 0.950 . S
C2172 C2171 1.398 . S
C2172 C2173 1.391 . S
C2173 H2161 0.950 . S
C2173 C2169 1.393 . S
C2173 C2172 1.391 . S
C2174 H2164 0.950 . S
C2174 C2175 1.386 . S
C2174 C2176 1.391 . S
C2175 C2174 1.386 . S
C2175 C2179 1.393 . S
C2176 H2165 0.950 . S
C2176 C2174 1.391 . S
C2176 C2177 1.400 . S
C2177 C2171 1.491 . S
C2177 C2176 1.400 . S
C2177 C2178 1.398 . S
C2178 H2166 0.950 . S
C2178 C2177 1.398 . S
C2178 C2179 1.391 . S
C2179 H2167 0.950 . S
C2179 C2175 1.393 . S
C2179 C2178 1.391 . S
H2180 C2188 0.950 . S
H2181 C2193 0.950 . S
H2182 C2190 0.950 . S
H2183 C2192 0.950 . S
H2184 C2194 0.950 . S
H2185 C2196 0.950 . S
H2186 C2198 0.950 . S
H2187 C2199 0.950 . S
C2188 H2180 0.950 . S
C2188 C2189 1.386 . S
C2188 C2190 1.391 . S
C2189 C2188 1.386 . S
C2189 C2193 1.393 . S
C2190 H2182 0.950 . S
C2190 C2188 1.391 . S
C2190 C2191 1.400 . S
C2191 C2190 1.400 . S
C2191 C2192 1.398 . S
C2191 C2197 1.491 . S
C2192 H2183 0.950 . S
C2192 C2191 1.398 . S
C2192 C2193 1.391 . S
C2193 H2181 0.950 . S
C2193 C2189 1.393 . S
C2193 C2192 1.391 . S
C2194 H2184 0.950 . S
C2194 C2195 1.386 . S
C2194 C2196 1.391 . S
C2195 C2194 1.386 . S
C2195 C2199 1.393 . S
C2196 H2185 0.950 . S
C2196 C2194 1.391 . S
C2196 C2197 1.400 . S
C2197 C2191 1.491 . S
C2197 C2196 1.400 . S
C2197 C2198 1.398 . S
C2198 H2186 0.950 . S
C2198 C2197 1.398 . S
C2198 C2199 1.391 . S
C2199 H2187 0.950 . S
C2199 C2195 1.393 . S
C2199 C2198 1.391 . S
H2200 C2208 0.950 . S
H2201 C2213 0.950 . S
H2202 C2210 0.950 . S
H2203 C2212 0.950 . S
H2204 C2214 0.950 . S
H2205 C2216 0.950 . S
H2206 C2218 0.950 . S
H2207 C2219 0.979 1_655 S
C2208 H2200 0.950 . S
C2208 C2209 1.386 1_655 S
C2208 C2210 1.391 . S
C2209 C2208 1.386 1_455 S
C2209 C2213 1.393 . S
C2210 H2202 0.950 . S
C2210 C2208 1.391 . S
C2210 C2211 1.400 1_655 S
C2211 C2210 1.400 1_455 S
C2211 C2212 1.398 . S
C2211 C2217 1.491 . S
C2212 H2203 0.950 . S
C2212 C2211 1.398 . S
C2212 C2213 1.391 . S
C2213 H2201 0.950 . S
C2213 C2209 1.393 . S
C2213 C2212 1.391 . S
C2214 H2204 0.950 . S
C2214 C2215 1.386 . S
C2214 C2216 1.391 . S
C2215 C2214 1.386 . S
C2215 C2219 1.392 . S
C2216 H2205 0.950 . S
C2216 C2214 1.391 . S
C2216 C2217 1.400 . S
C2217 C2211 1.491 . S
C2217 C2216 1.400 . S
C2217 C2218 1.398 1_455 S
C2218 H2206 0.950 . S
C2218 C2217 1.398 1_655 S
C2218 C2219 1.391 1_655 S
C2219 H2207 0.979 1_455 S
C2219 C2215 1.392 . S
C2219 C2218 1.391 1_455 S
H2220 C2228 0.950 . S
H2221 C2233 0.950 . S
H2222 C2230 0.950 . S
H2223 C2232 0.950 . S
H2224 C2234 0.950 . S
H2225 C2236 0.950 . S
H2226 C2238 0.950 . S
H2227 C2239 0.950 . S
C2228 H2220 0.950 . S
C2228 C2229 1.386 . S
C2228 C2230 1.391 . S
C2229 C2228 1.386 . S
C2229 C2233 1.393 . S
C2230 H2222 0.950 . S
C2230 C2228 1.391 . S
C2230 C2231 1.400 . S
C2231 C2230 1.400 . S
C2231 C2232 1.398 . S
C2231 C2237 1.491 . S
C2232 H2223 0.950 . S
C2232 C2231 1.398 . S
C2232 C2233 1.391 . S
C2233 H2221 0.950 . S
C2233 C2229 1.393 . S
C2233 C2232 1.391 . S
C2234 H2224 0.950 . S
C2234 C2235 1.386 . S
C2234 C2236 1.391 . S
C2235 C2234 1.386 . S
C2235 C2239 1.393 . S
C2236 H2225 0.950 . S
C2236 C2234 1.391 . S
C2236 C2237 1.400 . S
C2237 C2231 1.491 . S
C2237 C2236 1.400 . S
C2237 C2238 1.398 . S
C2238 H2226 0.950 . S
C2238 C2237 1.398 . S
C2238 C2239 1.391 . S
C2239 H2227 0.950 . S
C2239 C2235 1.393 . S
C2239 C2238 1.391 . S
H2240 C2248 0.950 . S
H2241 C2253 0.950 . S
H2242 C2250 0.950 . S
H2243 C2252 0.950 . S
H2244 C2254 0.954 1_554 S
H2245 C2256 0.950 . S
H2246 C2258 0.950 . S
H2247 C2259 0.950 . S
C2248 H2240 0.950 . S
C2248 C2249 1.386 . S
C2248 C2250 1.391 . S
C2249 C2248 1.386 . S
C2249 C2253 1.393 . S
C2250 H2242 0.950 . S
C2250 C2248 1.391 . S
C2250 C2251 1.400 . S
C2251 C2250 1.400 . S
C2251 C2252 1.398 . S
C2251 C2257 1.491 . S
C2252 H2243 0.950 . S
C2252 C2251 1.398 . S
C2252 C2253 1.391 . S
C2253 H2241 0.950 . S
C2253 C2249 1.393 . S
C2253 C2252 1.391 . S
C2254 H2244 0.954 1_556 S
C2254 C2255 1.386 . S
C2254 C2256 1.391 . S
C2255 C2254 1.386 . S
C2255 C2259 1.393 . S
C2256 H2245 0.950 . S
C2256 C2254 1.391 . S
C2256 C2257 1.400 . S
C2257 C2251 1.491 . S
C2257 C2256 1.400 . S
C2257 C2258 1.398 . S
C2258 H2246 0.950 . S
C2258 C2257 1.398 . S
C2258 C2259 1.391 . S
C2259 H2247 0.950 . S
C2259 C2255 1.393 . S
C2259 C2258 1.391 . S
H2260 C2268 0.950 . S
H2261 C2273 0.950 . S
H2262 C2270 0.950 . S
H2263 C2272 0.950 . S
H2264 C2274 0.950 . S
H2265 C2276 0.950 . S
H2266 C2278 0.950 . S
H2267 C2279 0.950 . S
C2268 H2260 0.950 . S
C2268 C2269 1.386 . S
C2268 C2270 1.391 . S
C2269 C2268 1.386 . S
C2269 C2273 1.393 . S
C2270 H2262 0.950 . S
C2270 C2268 1.391 . S
C2270 C2271 1.400 . S
C2271 C2270 1.400 . S
C2271 C2272 1.398 . S
C2271 C2277 1.491 . S
C2272 H2263 0.950 . S
C2272 C2271 1.398 . S
C2272 C2273 1.391 . S
C2273 H2261 0.950 . S
C2273 C2269 1.393 . S
C2273 C2272 1.391 . S
C2274 H2264 0.950 . S
C2274 C2275 1.386 . S
C2274 C2276 1.391 . S
C2275 C2274 1.386 . S
C2275 C2279 1.393 . S
C2276 H2265 0.950 . S
C2276 C2274 1.391 . S
C2276 C2277 1.400 . S
C2277 C2271 1.491 . S
C2277 C2276 1.400 . S
C2277 C2278 1.398 . S
C2278 H2266 0.950 . S
C2278 C2277 1.398 . S
C2278 C2279 1.391 . S
C2279 H2267 0.950 . S
C2279 C2275 1.393 . S
C2279 C2278 1.391 . S
H2280 C2288 0.950 . S
H2281 C2293 0.950 . S
H2282 C2290 0.950 . S
H2283 C2292 0.956 . S
H2284 C2294 0.950 1_655 S
H2285 C2296 0.950 1_655 S
H2286 C2298 0.950 . S
H2287 C2299 0.950 . S
C2288 H2280 0.950 . S
C2288 C2289 1.386 . S
C2288 C2290 1.391 . S
C2289 C2288 1.386 . S
C2289 C2293 1.393 1_455 S
C2290 H2282 0.950 . S
C2290 C2288 1.391 . S
C2290 C2291 1.400 . S
C2291 C2290 1.400 . S
C2291 C2292 1.391 1_455 S
C2291 C2297 1.491 . S
C2292 H2283 0.956 . S
C2292 C2291 1.391 1_655 S
C2292 C2293 1.393 . S
C2293 H2281 0.950 . S
C2293 C2289 1.393 1_655 S
C2293 C2292 1.393 . S
C2294 H2284 0.950 1_455 S
C2294 C2295 1.386 . S
C2294 C2296 1.391 . S
C2295 C2294 1.386 . S
C2295 C2299 1.393 . S
C2296 H2285 0.950 1_455 S
C2296 C2294 1.391 . S
C2296 C2297 1.400 . S
C2297 C2291 1.491 . S
C2297 C2296 1.400 . S
C2297 C2298 1.398 . S
C2298 H2286 0.950 . S
C2298 C2297 1.398 . S
C2298 C2299 1.391 . S
C2299 H2287 0.950 . S
C2299 C2295 1.393 . S
C2299 C2298 1.391 . S
H2300 C2308 0.950 . S
H2301 C2313 0.950 . S
H2302 C2310 0.950 . S
H2303 C2312 0.950 . S
H2304 C2314 0.950 . S
H2305 C2316 0.950 . S
H2306 C2318 0.950 . S
H2307 C2319 0.950 . S
C2308 H2300 0.950 . S
C2308 C2309 1.386 . S
C2308 C2310 1.391 . S
C2309 C2308 1.386 . S
C2309 C2313 1.393 . S
C2310 H2302 0.950 . S
C2310 C2308 1.391 . S
C2310 C2311 1.400 . S
C2311 C2310 1.400 . S
C2311 C2312 1.398 . S
C2311 C2317 1.491 . S
C2312 H2303 0.950 . S
C2312 C2311 1.398 . S
C2312 C2313 1.391 . S
C2313 H2301 0.950 . S
C2313 C2309 1.393 . S
C2313 C2312 1.391 . S
C2314 H2304 0.950 . S
C2314 C2315 1.386 . S
C2314 C2316 1.391 . S
C2315 C2314 1.386 . S
C2315 C2319 1.393 . S
C2316 H2305 0.950 . S
C2316 C2314 1.391 . S
C2316 C2317 1.400 . S
C2317 C2311 1.491 . S
C2317 C2316 1.400 . S
C2317 C2318 1.398 . S
C2318 H2306 0.950 . S
C2318 C2317 1.398 . S
C2318 C2319 1.391 . S
C2319 H2307 0.950 . S
C2319 C2315 1.393 . S
C2319 C2318 1.391 . S
H2320 C2328 0.950 . S
H2321 C2333 0.950 . S
H2322 C2330 0.950 . S
H2323 C2332 0.950 . S
H2324 C2334 0.950 . S
H2325 C2336 0.950 . S
H2326 C2338 0.950 . S
H2327 C2339 0.950 . S
C2328 H2320 0.950 . S
C2328 C2329 1.386 . S
C2328 C2330 1.391 . S
C2329 C2328 1.386 . S
C2329 C2333 1.393 . S
C2330 H2322 0.950 . S
C2330 C2328 1.391 . S
C2330 C2331 1.400 . S
C2331 C2330 1.400 . S
C2331 C2332 1.398 . S
C2331 C2337 1.491 . S
C2332 H2323 0.950 . S
C2332 C2331 1.398 . S
C2332 C2333 1.391 . S
C2333 H2321 0.950 . S
C2333 C2329 1.393 . S
C2333 C2332 1.391 . S
C2334 H2324 0.950 . S
C2334 C2335 1.386 . S
C2334 C2336 1.391 . S
C2335 C2334 1.386 . S
C2335 C2339 1.393 . S
C2336 H2325 0.950 . S
C2336 C2334 1.391 . S
C2336 C2337 1.400 . S
C2337 C2331 1.491 . S
C2337 C2336 1.400 . S
C2337 C2338 1.398 . S
C2338 H2326 0.950 . S
C2338 C2337 1.398 . S
C2338 C2339 1.391 . S
C2339 H2327 0.950 . S
C2339 C2335 1.393 . S
C2339 C2338 1.391 . S
H2340 C2348 0.950 . S
H2341 C2353 0.950 . S
H2342 C2350 0.950 . S
H2343 C2352 0.950 . S
H2344 C2354 0.950 . S
H2345 C2356 0.950 . S
H2346 C2358 0.950 . S
H2347 C2359 0.950 . S
C2348 H2340 0.950 . S
C2348 C2349 1.386 . S
C2348 C2350 1.391 . S
C2349 C2348 1.386 . S
C2349 C2353 1.393 . S
C2350 H2342 0.950 . S
C2350 C2348 1.391 . S
C2350 C2351 1.400 . S
C2351 C2350 1.400 . S
C2351 C2352 1.398 . S
C2351 C2357 1.491 . S
C2352 H2343 0.950 . S
C2352 C2351 1.398 . S
C2352 C2353 1.391 . S
C2353 H2341 0.950 . S
C2353 C2349 1.393 . S
C2353 C2352 1.391 . S
C2354 H2344 0.950 . S
C2354 C2355 1.386 . S
C2354 C2356 1.391 . S
C2355 C2354 1.386 . S
C2355 C2359 1.393 . S
C2356 H2345 0.950 . S
C2356 C2354 1.391 . S
C2356 C2357 1.400 . S
C2357 C2351 1.491 . S
C2357 C2356 1.400 . S
C2357 C2358 1.398 . S
C2358 H2346 0.950 . S
C2358 C2357 1.398 . S
C2358 C2359 1.391 . S
C2359 H2347 0.950 . S
C2359 C2355 1.393 . S
C2359 C2358 1.391 . S
H2360 C2368 0.950 . S
H2361 C2373 0.950 . S
H2362 C2370 0.950 . S
H2363 C2372 0.950 . S
H2364 C2374 0.950 . S
H2365 C2376 0.950 . S
H2366 C2378 0.950 . S
H2367 C2379 0.950 . S
C2368 H2360 0.950 . S
C2368 C2369 1.386 . S
C2368 C2370 1.391 . S
C2369 C2368 1.386 . S
C2369 C2373 1.393 . S
C2370 H2362 0.950 . S
C2370 C2368 1.391 . S
C2370 C2371 1.400 . S
C2371 C2370 1.400 . S
C2371 C2372 1.398 . S
C2371 C2377 1.491 . S
C2372 H2363 0.950 . S
C2372 C2371 1.398 . S
C2372 C2373 1.391 . S
C2373 H2361 0.950 . S
C2373 C2369 1.393 . S
C2373 C2372 1.391 . S
C2374 H2364 0.950 . S
C2374 C2375 1.386 . S
C2374 C2376 1.391 . S
C2375 C2374 1.386 . S
C2375 C2379 1.393 . S
C2376 H2365 0.950 . S
C2376 C2374 1.391 . S
C2376 C2377 1.400 . S
C2377 C2371 1.491 . S
C2377 C2376 1.400 . S
C2377 C2378 1.398 . S
C2378 H2366 0.950 . S
C2378 C2377 1.398 . S
C2378 C2379 1.391 . S
C2379 H2367 0.950 . S
C2379 C2375 1.393 . S
C2379 C2378 1.391 . S
H2380 C2388 0.950 . S
H2381 C2393 0.950 . S
H2382 C2390 0.950 . S
H2383 C2392 0.950 . S
H2384 C2394 0.950 . S
H2385 C2396 0.950 . S
H2386 C2398 0.950 . S
H2387 C2399 0.950 . S
C2388 H2380 0.950 . S
C2388 C2389 1.386 . S
C2388 C2390 1.391 . S
C2389 C2388 1.386 . S
C2389 C2393 1.393 . S
C2390 H2382 0.950 . S
C2390 C2388 1.391 . S
C2390 C2391 1.400 . S
C2391 C2390 1.400 . S
C2391 C2392 1.398 . S
C2391 C2397 1.491 . S
C2392 H2383 0.950 . S
C2392 C2391 1.398 . S
C2392 C2393 1.391 . S
C2393 H2381 0.950 . S
C2393 C2389 1.393 . S
C2393 C2392 1.391 . S
C2394 H2384 0.950 . S
C2394 C2395 1.386 . S
C2394 C2396 1.391 . S
C2395 C2394 1.386 . S
C2395 C2399 1.393 . S
C2396 H2385 0.950 . S
C2396 C2394 1.391 . S
C2396 C2397 1.400 . S
C2397 C2391 1.491 . S
C2397 C2396 1.400 . S
C2397 C2398 1.398 . S
C2398 H2386 0.950 . S
C2398 C2397 1.398 . S
C2398 C2399 1.391 . S
C2399 H2387 0.950 . S
C2399 C2395 1.393 . S
C2399 C2398 1.391 . S
H2400 C2408 0.950 . S
H2401 C2413 0.950 . S
H2402 C2410 0.950 . S
H2403 C2412 0.950 . S
H2404 C2414 0.950 . S
H2405 C2416 0.950 . S
H2406 C2418 0.950 . S
H2407 C2419 0.950 . S
C2408 H2400 0.950 . S
C2408 C2409 1.386 . S
C2408 C2410 1.391 . S
C2409 C2408 1.386 . S
C2409 C2413 1.393 . S
C2410 H2402 0.950 . S
C2410 C2408 1.391 . S
C2410 C2411 1.400 . S
C2411 C2410 1.400 . S
C2411 C2412 1.398 . S
C2411 C2417 1.491 . S
C2412 H2403 0.950 . S
C2412 C2411 1.398 . S
C2412 C2413 1.391 . S
C2413 H2401 0.950 . S
C2413 C2409 1.393 . S
C2413 C2412 1.391 . S
C2414 H2404 0.950 . S
C2414 C2415 1.386 . S
C2414 C2416 1.391 . S
C2415 C2414 1.386 . S
C2415 C2419 1.393 . S
C2416 H2405 0.950 . S
C2416 C2414 1.391 . S
C2416 C2417 1.400 . S
C2417 C2411 1.491 . S
C2417 C2416 1.400 . S
C2417 C2418 1.398 . S
C2418 H2406 0.950 . S
C2418 C2417 1.398 . S
C2418 C2419 1.391 . S
C2419 H2407 0.950 . S
C2419 C2415 1.393 . S
C2419 C2418 1.391 . S
H2420 C2428 0.950 . S
H2421 C2433 0.950 . S
H2422 C2430 0.950 . S
H2423 C2432 0.950 . S
H2424 C2434 0.950 . S
H2425 C2436 0.950 . S
H2426 C2438 0.950 . S
H2427 C2439 0.950 . S
C2428 H2420 0.950 . S
C2428 C2429 1.386 . S
C2428 C2430 1.391 . S
C2429 C2428 1.386 . S
C2429 C2433 1.393 . S
C2430 H2422 0.950 . S
C2430 C2428 1.391 . S
C2430 C2431 1.400 . S
C2431 C2430 1.400 . S
C2431 C2432 1.398 . S
C2431 C2437 1.491 . S
C2432 H2423 0.950 . S
C2432 C2431 1.398 . S
C2432 C2433 1.391 . S
C2433 H2421 0.950 . S
C2433 C2429 1.393 . S
C2433 C2432 1.391 . S
C2434 H2424 0.950 . S
C2434 C2435 1.386 . S
C2434 C2436 1.391 . S
C2435 C2434 1.386 . S
C2435 C2439 1.393 . S
C2436 H2425 0.950 . S
C2436 C2434 1.391 . S
C2436 C2437 1.400 . S
C2437 C2431 1.491 . S
C2437 C2436 1.400 . S
C2437 C2438 1.398 . S
C2438 H2426 0.950 . S
C2438 C2437 1.398 . S
C2438 C2439 1.391 . S
C2439 H2427 0.950 . S
C2439 C2435 1.393 . S
C2439 C2438 1.391 . S
H2440 C2448 0.950 . S
H2441 C2453 0.950 . S
H2442 C2450 0.950 . S
H2443 C2452 0.950 . S
H2444 C2454 0.950 . S
H2445 C2456 0.950 . S
H2446 C2458 0.950 . S
H2447 C2459 0.950 . S
C2448 H2440 0.950 . S
C2448 C2449 1.386 . S
C2448 C2450 1.391 . S
C2449 C2448 1.386 . S
C2449 C2453 1.393 . S
C2450 H2442 0.950 . S
C2450 C2448 1.391 . S
C2450 C2451 1.400 . S
C2451 C2450 1.400 . S
C2451 C2452 1.398 . S
C2451 C2457 1.491 . S
C2452 H2443 0.950 . S
C2452 C2451 1.398 . S
C2452 C2453 1.391 . S
C2453 H2441 0.950 . S
C2453 C2449 1.393 . S
C2453 C2452 1.391 . S
C2454 H2444 0.950 . S
C2454 C2455 1.386 . S
C2454 C2456 1.391 . S
C2455 C2454 1.386 . S
C2455 C2459 1.393 . S
C2456 H2445 0.950 . S
C2456 C2454 1.391 . S
C2456 C2457 1.400 . S
C2457 C2451 1.491 . S
C2457 C2456 1.400 . S
C2457 C2458 1.398 . S
C2458 H2446 0.950 . S
C2458 C2457 1.398 . S
C2458 C2459 1.391 . S
C2459 H2447 0.950 . S
C2459 C2455 1.393 . S
C2459 C2458 1.391 . S
H2460 C2468 0.950 . S
H2461 C2473 0.950 . S
H2462 C2470 0.950 . S
H2463 C2472 0.950 . S
H2464 C2474 0.950 . S
H2465 C2476 0.950 . S
H2466 C2478 0.950 . S
H2467 C2479 0.950 . S
C2468 H2460 0.950 . S
C2468 C2469 1.386 . S
C2468 C2470 1.391 . S
C2469 C2468 1.386 . S
C2469 C2473 1.393 . S
C2470 H2462 0.950 . S
C2470 C2468 1.391 . S
C2470 C2471 1.400 . S
C2471 C2470 1.400 . S
C2471 C2472 1.398 . S
C2471 C2477 1.491 . S
C2472 H2463 0.950 . S
C2472 C2471 1.398 . S
C2472 C2473 1.391 . S
C2473 H2461 0.950 . S
C2473 C2469 1.393 . S
C2473 C2472 1.391 . S
C2474 H2464 0.950 . S
C2474 C2475 1.386 . S
C2474 C2476 1.391 . S
C2475 C2474 1.386 . S
C2475 C2479 1.393 . S
C2476 H2465 0.950 . S
C2476 C2474 1.391 . S
C2476 C2477 1.400 . S
C2477 C2471 1.491 . S
C2477 C2476 1.400 . S
C2477 C2478 1.398 . S
C2478 H2466 0.950 . S
C2478 C2477 1.398 . S
C2478 C2479 1.391 . S
C2479 H2467 0.950 . S
C2479 C2475 1.393 . S
C2479 C2478 1.391 . S
H2480 C2488 0.950 . S
H2481 C2493 0.950 . S
H2482 C2490 0.950 . S
H2483 C2492 0.950 . S
H2484 C2494 0.950 . S
H2485 C2496 0.950 . S
H2486 C2498 0.950 . S
H2487 C2499 0.950 . S
C2488 H2480 0.950 . S
C2488 C2489 1.386 . S
C2488 C2490 1.391 . S
C2489 C2488 1.386 . S
C2489 C2493 1.393 . S
C2490 H2482 0.950 . S
C2490 C2488 1.391 . S
C2490 C2491 1.400 . S
C2491 C2490 1.400 . S
C2491 C2492 1.398 . S
C2491 C2497 1.491 . S
C2492 H2483 0.950 . S
C2492 C2491 1.398 . S
C2492 C2493 1.391 . S
C2493 H2481 0.950 . S
C2493 C2489 1.393 . S
C2493 C2492 1.391 . S
C2494 H2484 0.950 . S
C2494 C2495 1.386 . S
C2494 C2496 1.391 . S
C2495 C2494 1.386 . S
C2495 C2499 1.393 . S
C2496 H2485 0.950 . S
C2496 C2494 1.391 . S
C2496 C2497 1.400 . S
C2497 C2491 1.491 . S
C2497 C2496 1.400 . S
C2497 C2498 1.398 . S
C2498 H2486 0.950 . S
C2498 C2497 1.398 . S
C2498 C2499 1.391 . S
C2499 H2487 0.950 . S
C2499 C2495 1.393 . S
C2499 C2498 1.391 . S
H2500 C2508 0.950 . S
H2501 C2513 0.950 . S
H2502 C2510 0.950 . S
H2503 C2512 0.950 . S
H2504 C2514 0.950 . S
H2505 C2516 0.950 . S
H2506 C2518 0.950 . S
H2507 C2519 0.950 . S
C2508 H2500 0.950 . S
C2508 C2509 1.386 . S
C2508 C2510 1.391 . S
C2509 C2508 1.386 . S
C2509 C2513 1.393 . S
C2510 H2502 0.950 . S
C2510 C2508 1.391 . S
C2510 C2511 1.400 . S
C2511 C2510 1.400 . S
C2511 C2512 1.398 . S
C2511 C2517 1.491 . S
C2512 H2503 0.950 . S
C2512 C2511 1.398 . S
C2512 C2513 1.391 . S
C2513 H2501 0.950 . S
C2513 C2509 1.393 . S
C2513 C2512 1.391 . S
C2514 H2504 0.950 . S
C2514 C2515 1.386 . S
C2514 C2516 1.391 . S
C2515 C2514 1.386 . S
C2515 C2519 1.393 . S
C2516 H2505 0.950 . S
C2516 C2514 1.391 . S
C2516 C2517 1.400 . S
C2517 C2511 1.491 . S
C2517 C2516 1.400 . S
C2517 C2518 1.398 . S
C2518 H2506 0.950 . S
C2518 C2517 1.398 . S
C2518 C2519 1.391 . S
C2519 H2507 0.950 . S
C2519 C2515 1.393 . S
C2519 C2518 1.391 . S
H2520 C2528 0.950 . S
H2521 C2533 0.950 . S
H2522 C2530 0.950 . S
H2523 C2532 0.950 . S
H2524 C2534 0.950 . S
H2525 C2536 0.950 . S
H2526 C2538 0.950 . S
H2527 C2539 0.950 . S
C2528 H2520 0.950 . S
C2528 C2529 1.386 . S
C2528 C2530 1.391 . S
C2529 C2528 1.386 . S
C2529 C2533 1.393 . S
C2530 H2522 0.950 . S
C2530 C2528 1.391 . S
C2530 C2531 1.400 . S
C2531 C2530 1.400 . S
C2531 C2532 1.398 . S
C2531 C2537 1.491 . S
C2532 H2523 0.950 . S
C2532 C2531 1.398 . S
C2532 C2533 1.391 . S
C2533 H2521 0.950 . S
C2533 C2529 1.393 . S
C2533 C2532 1.391 . S
C2534 H2524 0.950 . S
C2534 C2535 1.386 . S
C2534 C2536 1.391 . S
C2535 C2534 1.386 . S
C2535 C2539 1.393 . S
C2536 H2525 0.950 . S
C2536 C2534 1.391 . S
C2536 C2537 1.400 . S
C2537 C2531 1.491 . S
C2537 C2536 1.400 . S
C2537 C2538 1.398 . S
C2538 H2526 0.950 . S
C2538 C2537 1.398 . S
C2538 C2539 1.391 . S
C2539 H2527 0.950 . S
C2539 C2535 1.393 . S
C2539 C2538 1.391 . S
H2540 C2548 0.950 . S
H2541 C2553 0.950 . S
H2542 C2550 0.950 . S
H2543 C2552 0.950 . S
H2544 C2554 0.950 . S
H2545 C2556 0.950 . S
H2546 C2558 0.950 . S
H2547 C2559 0.950 . S
C2548 H2540 0.950 . S
C2548 C2549 1.386 . S
C2548 C2550 1.391 . S
C2549 C2548 1.386 . S
C2549 C2553 1.393 1_554 S
C2550 H2542 0.950 . S
C2550 C2548 1.391 . S
C2550 C2551 1.400 . S
C2551 C2550 1.400 . S
C2551 C2552 1.398 1_554 S
C2551 C2557 1.491 . S
C2552 H2543 0.950 . S
C2552 C2551 1.398 1_556 S
C2552 C2553 1.391 . S
C2553 H2541 0.950 . S
C2553 C2549 1.393 1_556 S
C2553 C2552 1.391 . S
C2554 H2544 0.950 . S
C2554 C2555 1.386 1_556 S
C2554 C2556 1.391 . S
C2555 C2554 1.386 1_554 S
C2555 C2559 1.393 . S
C2556 H2545 0.950 . S
C2556 C2554 1.391 . S
C2556 C2557 1.400 1_556 S
C2557 C2551 1.491 . S
C2557 C2556 1.400 1_554 S
C2557 C2558 1.398 . S
C2558 H2546 0.950 . S
C2558 C2557 1.398 . S
C2558 C2559 1.391 . S
C2559 H2547 0.950 . S
C2559 C2555 1.393 . S
C2559 C2558 1.391 . S
H2560 C2568 0.950 . S
H2561 C2573 0.950 . S
H2562 C2570 0.950 . S
H2563 C2572 0.950 . S
H2564 C2574 0.950 . S
H2565 C2576 0.950 . S
H2566 C2578 0.950 . S
H2567 C2579 0.950 . S
C2568 H2560 0.950 . S
C2568 C2569 1.386 . S
C2568 C2570 1.391 . S
C2569 C2568 1.386 . S
C2569 C2573 1.393 . S
C2570 H2562 0.950 . S
C2570 C2568 1.391 . S
C2570 C2571 1.400 . S
C2571 C2570 1.400 . S
C2571 C2572 1.398 . S
C2571 C2577 1.491 . S
C2572 H2563 0.950 . S
C2572 C2571 1.398 . S
C2572 C2573 1.391 . S
C2573 H2561 0.950 . S
C2573 C2569 1.393 . S
C2573 C2572 1.391 . S
C2574 H2564 0.950 . S
C2574 C2575 1.386 . S
C2574 C2576 1.391 . S
C2575 C2574 1.386 . S
C2575 C2579 1.393 . S
C2576 H2565 0.950 . S
C2576 C2574 1.391 . S
C2576 C2577 1.400 . S
C2577 C2571 1.491 . S
C2577 C2576 1.400 . S
C2577 C2578 1.398 . S
C2578 H2566 0.950 . S
C2578 C2577 1.398 . S
C2578 C2579 1.391 . S
C2579 H2567 0.950 . S
C2579 C2575 1.393 . S
C2579 C2578 1.391 . S
H2580 C2588 0.950 . S
H2581 C2593 0.950 . S
H2582 C2590 0.950 . S
H2583 C2592 0.950 . S
H2584 C2594 0.950 . S
H2585 C2596 0.950 . S
H2586 C2598 0.950 . S
H2587 C2599 0.950 . S
C2588 H2580 0.950 . S
C2588 C2589 1.386 1_556 S
C2588 C2590 1.391 . S
C2589 C2588 1.386 1_554 S
C2589 C2593 1.393 . S
C2590 H2582 0.950 . S
C2590 C2588 1.391 . S
C2590 C2591 1.400 1_556 S
C2591 C2590 1.400 1_554 S
C2591 C2592 1.398 . S
C2591 C2597 1.489 1_554 S
C2592 H2583 0.950 . S
C2592 C2591 1.398 . S
C2592 C2593 1.391 . S
C2593 H2581 0.950 . S
C2593 C2589 1.393 . S
C2593 C2592 1.391 . S
C2594 H2584 0.950 . S
C2594 C2595 1.386 1_554 S
C2594 C2596 1.391 . S
C2595 C2594 1.386 1_556 S
C2595 C2599 1.393 . S
C2596 H2585 0.950 . S
C2596 C2594 1.391 . S
C2596 C2597 1.397 1_554 S
C2597 C2591 1.489 1_556 S
C2597 C2596 1.397 1_556 S
C2597 C2598 1.404 . S
C2598 H2586 0.950 . S
C2598 C2597 1.404 . S
C2598 C2599 1.391 . S
C2599 H2587 0.950 . S
C2599 C2595 1.393 . S
C2599 C2598 1.391 . S
H2600 C2608 0.950 . S
H2601 C2613 0.950 . S
H2602 C2610 0.950 . S
H2603 C2612 0.950 . S
H2604 C2614 0.950 . S
H2605 C2616 0.950 . S
H2606 C2618 0.950 . S
H2607 C2619 0.950 . S
C2608 H2600 0.950 . S
C2608 C2609 1.386 . S
C2608 C2610 1.391 . S
C2609 C2608 1.386 . S
C2609 C2613 1.393 . S
C2610 H2602 0.950 . S
C2610 C2608 1.391 . S
C2610 C2611 1.400 . S
C2611 C2610 1.400 . S
C2611 C2612 1.398 . S
C2611 C2617 1.491 . S
C2612 H2603 0.950 . S
C2612 C2611 1.398 . S
C2612 C2613 1.391 . S
C2613 H2601 0.950 . S
C2613 C2609 1.393 . S
C2613 C2612 1.391 . S
C2614 H2604 0.950 . S
C2614 C2615 1.386 . S
C2614 C2616 1.391 . S
C2615 C2614 1.386 . S
C2615 C2619 1.393 . S
C2616 H2605 0.950 . S
C2616 C2614 1.391 . S
C2616 C2617 1.400 . S
C2617 C2611 1.491 . S
C2617 C2616 1.400 . S
C2617 C2618 1.398 . S
C2618 H2606 0.950 . S
C2618 C2617 1.398 . S
C2618 C2619 1.391 . S
C2619 H2607 0.950 . S
C2619 C2615 1.393 . S
C2619 C2618 1.391 . S
H2620 C2628 0.950 . S
H2621 C2633 0.950 . S
H2622 C2630 0.950 . S
H2623 C2632 0.950 . S
H2624 C2634 0.950 . S
H2625 C2636 0.950 . S
H2626 C2638 0.950 . S
H2627 C2639 0.950 . S
C2628 H2620 0.950 . S
C2628 C2629 1.386 . S
C2628 C2630 1.391 . S
C2629 C2628 1.386 . S
C2629 C2633 1.393 . S
C2630 H2622 0.950 . S
C2630 C2628 1.391 . S
C2630 C2631 1.400 . S
C2631 C2630 1.400 . S
C2631 C2632 1.398 . S
C2631 C2637 1.491 . S
C2632 H2623 0.950 . S
C2632 C2631 1.398 . S
C2632 C2633 1.391 . S
C2633 H2621 0.950 . S
C2633 C2629 1.393 . S
C2633 C2632 1.391 . S
C2634 H2624 0.950 . S
C2634 C2635 1.386 . S
C2634 C2636 1.391 . S
C2635 C2634 1.386 . S
C2635 C2639 1.393 . S
C2636 H2625 0.950 . S
C2636 C2634 1.391 . S
C2636 C2637 1.400 . S
C2637 C2631 1.491 . S
C2637 C2636 1.400 . S
C2637 C2638 1.398 . S
C2638 H2626 0.950 . S
C2638 C2637 1.398 . S
C2638 C2639 1.391 . S
C2639 H2627 0.950 . S
C2639 C2635 1.393 . S
C2639 C2638 1.391 . S
H2640 C2648 0.950 . S
H2641 C2653 0.950 . S
H2642 C2650 0.950 . S
H2643 C2652 0.950 . S
H2644 C2654 0.950 . S
H2645 C2656 0.950 . S
H2646 C2658 0.950 . S
H2647 C2659 0.950 . S
C2648 H2640 0.950 . S
C2648 C2649 1.386 . S
C2648 C2650 1.391 . S
C2649 C2648 1.386 . S
C2649 C2653 1.393 . S
C2650 H2642 0.950 . S
C2650 C2648 1.391 . S
C2650 C2651 1.400 . S
C2651 C2650 1.400 . S
C2651 C2652 1.398 . S
C2651 C2657 1.491 . S
C2652 H2643 0.950 . S
C2652 C2651 1.398 . S
C2652 C2653 1.391 . S
C2653 H2641 0.950 . S
C2653 C2649 1.393 . S
C2653 C2652 1.391 . S
C2654 H2644 0.950 . S
C2654 C2655 1.386 . S
C2654 C2656 1.391 . S
C2655 C2654 1.386 . S
C2655 C2659 1.393 . S
C2656 H2645 0.950 . S
C2656 C2654 1.391 . S
C2656 C2657 1.400 . S
C2657 C2651 1.491 . S
C2657 C2656 1.400 . S
C2657 C2658 1.398 . S
C2658 H2646 0.950 . S
C2658 C2657 1.398 . S
C2658 C2659 1.391 . S
C2659 H2647 0.950 . S
C2659 C2655 1.393 . S
C2659 C2658 1.391 . S
H2660 C2668 0.950 . S
H2661 C2673 0.950 . S
H2662 C2670 0.950 . S
H2663 C2672 0.950 . S
H2664 C2674 0.950 . S
H2665 C2676 0.950 . S
H2666 C2678 0.950 . S
H2667 C2679 0.950 . S
C2668 H2660 0.950 . S
C2668 C2669 1.386 . S
C2668 C2670 1.391 . S
C2669 C2668 1.386 . S
C2669 C2673 1.393 . S
C2670 H2662 0.950 . S
C2670 C2668 1.391 . S
C2670 C2671 1.400 . S
C2671 C2670 1.400 . S
C2671 C2672 1.398 . S
C2671 C2677 1.491 . S
C2672 H2663 0.950 . S
C2672 C2671 1.398 . S
C2672 C2673 1.391 . S
C2673 H2661 0.950 . S
C2673 C2669 1.393 . S
C2673 C2672 1.391 . S
C2674 H2664 0.950 . S
C2674 C2675 1.386 . S
C2674 C2676 1.391 . S
C2675 C2674 1.386 . S
C2675 C2679 1.393 . S
C2676 H2665 0.950 . S
C2676 C2674 1.391 . S
C2676 C2677 1.400 . S
C2677 C2671 1.491 . S
C2677 C2676 1.400 . S
C2677 C2678 1.398 . S
C2678 H2666 0.950 . S
C2678 C2677 1.398 . S
C2678 C2679 1.391 . S
C2679 H2667 0.950 . S
C2679 C2675 1.393 . S
C2679 C2678 1.391 . S
H2680 C2688 0.950 . S
H2681 C2693 0.950 . S
H2682 C2690 0.950 . S
H2683 C2692 0.950 . S
H2684 C2694 0.950 . S
H2685 C2696 0.950 . S
H2686 C2698 0.950 . S
H2687 C2699 0.950 . S
C2688 H2680 0.950 . S
C2688 C2689 1.386 1_655 S
C2688 C2690 1.391 . S
C2689 C2688 1.386 1_455 S
C2689 C2693 1.393 . S
C2690 H2682 0.950 . S
C2690 C2688 1.391 . S
C2690 C2691 1.389 1_655 S
C2691 C2690 1.389 1_455 S
C2691 C2692 1.411 . S
C2691 C2697 1.489 1_455 S
C2692 H2683 0.950 . S
C2692 C2691 1.411 . S
C2692 C2693 1.391 . S
C2693 H2681 0.950 . S
C2693 C2689 1.393 . S
C2693 C2692 1.391 . S
C2694 H2684 0.950 . S
C2694 C2695 1.386 1_455 S
C2694 C2696 1.391 . S
C2695 C2694 1.386 1_655 S
C2695 C2699 1.393 . S
C2696 H2685 0.950 . S
C2696 C2694 1.391 . S
C2696 C2697 1.400 1_455 S
C2697 C2691 1.489 1_655 S
C2697 C2696 1.400 1_655 S
C2697 C2698 1.398 . S
C2698 H2686 0.950 . S
C2698 C2697 1.398 . S
C2698 C2699 1.391 . S
C2699 H2687 0.950 . S
C2699 C2695 1.393 . S
C2699 C2698 1.391 . S
H2700 C2708 0.950 . S
H2701 C2713 0.950 . S
H2702 C2710 0.950 . S
H2703 C2712 0.950 . S
H2704 C2714 0.950 . S
H2705 C2716 0.950 . S
H2706 C2718 0.950 . S
H2707 C2719 0.950 . S
C2708 H2700 0.950 . S
C2708 C2709 1.386 . S
C2708 C2710 1.391 . S
C2709 C2708 1.386 . S
C2709 C2713 1.393 . S
C2710 H2702 0.950 . S
C2710 C2708 1.391 . S
C2710 C2711 1.400 . S
C2711 C2710 1.400 . S
C2711 C2712 1.398 . S
C2711 C2717 1.491 . S
C2712 H2703 0.950 . S
C2712 C2711 1.398 . S
C2712 C2713 1.391 . S
C2713 H2701 0.950 . S
C2713 C2709 1.393 . S
C2713 C2712 1.391 . S
C2714 H2704 0.950 . S
C2714 C2715 1.386 . S
C2714 C2716 1.391 . S
C2715 C2714 1.386 . S
C2715 C2719 1.393 . S
C2716 H2705 0.950 . S
C2716 C2714 1.391 . S
C2716 C2717 1.400 . S
C2717 C2711 1.491 . S
C2717 C2716 1.400 . S
C2717 C2718 1.398 . S
C2718 H2706 0.950 . S
C2718 C2717 1.398 . S
C2718 C2719 1.391 . S
C2719 H2707 0.950 . S
C2719 C2715 1.393 . S
C2719 C2718 1.391 . S
H2720 C2728 0.950 . S
H2721 C2733 0.950 . S
H2722 C2730 0.950 . S
H2723 C2732 0.950 . S
H2724 C2734 0.950 . S
H2725 C2736 0.950 . S
H2726 C2738 0.950 . S
H2727 C2739 0.950 . S
C2728 H2720 0.950 . S
C2728 C2729 1.386 . S
C2728 C2730 1.391 . S
C2729 C2728 1.386 . S
C2729 C2733 1.393 . S
C2730 H2722 0.950 . S
C2730 C2728 1.391 . S
C2730 C2731 1.400 . S
C2731 C2730 1.400 . S
C2731 C2732 1.398 . S
C2731 C2737 1.491 . S
C2732 H2723 0.950 . S
C2732 C2731 1.398 . S
C2732 C2733 1.391 . S
C2733 H2721 0.950 . S
C2733 C2729 1.393 . S
C2733 C2732 1.391 . S
C2734 H2724 0.950 . S
C2734 C2735 1.386 . S
C2734 C2736 1.391 . S
C2735 C2734 1.386 . S
C2735 C2739 1.393 . S
C2736 H2725 0.950 . S
C2736 C2734 1.391 . S
C2736 C2737 1.400 . S
C2737 C2731 1.491 . S
C2737 C2736 1.400 . S
C2737 C2738 1.398 . S
C2738 H2726 0.950 . S
C2738 C2737 1.398 . S
C2738 C2739 1.391 . S
C2739 H2727 0.950 . S
C2739 C2735 1.393 . S
C2739 C2738 1.391 . S
H2740 C2748 0.950 . S
H2741 C2753 0.950 . S
H2742 C2750 0.950 . S
H2743 C2752 0.950 . S
H2744 C2754 0.950 . S
H2745 C2756 0.950 . S
H2746 C2758 0.950 . S
H2747 C2759 0.950 . S
C2748 H2740 0.950 . S
C2748 C2749 1.386 . S
C2748 C2750 1.391 . S
C2749 C2748 1.386 . S
C2749 C2753 1.393 . S
C2750 H2742 0.950 . S
C2750 C2748 1.391 . S
C2750 C2751 1.400 . S
C2751 C2750 1.400 . S
C2751 C2752 1.398 . S
C2751 C2757 1.491 . S
C2752 H2743 0.950 . S
C2752 C2751 1.398 . S
C2752 C2753 1.391 . S
C2753 H2741 0.950 . S
C2753 C2749 1.393 . S
C2753 C2752 1.391 . S
C2754 H2744 0.950 . S
C2754 C2755 1.386 . S
C2754 C2756 1.391 . S
C2755 C2754 1.386 . S
C2755 C2759 1.393 . S
C2756 H2745 0.950 . S
C2756 C2754 1.391 . S
C2756 C2757 1.400 . S
C2757 C2751 1.491 . S
C2757 C2756 1.400 . S
C2757 C2758 1.398 . S
C2758 H2746 0.950 . S
C2758 C2757 1.398 . S
C2758 C2759 1.391 . S
C2759 H2747 0.950 . S
C2759 C2755 1.393 . S
C2759 C2758 1.391 . S
H2760 C2768 0.950 . S
H2761 C2773 0.950 . S
H2762 C2770 0.950 . S
H2763 C2772 0.950 . S
H2764 C2774 0.950 . S
H2765 C2776 0.950 . S
H2766 C2778 0.950 . S
H2767 C2779 0.950 . S
C2768 H2760 0.950 . S
C2768 C2769 1.386 . S
C2768 C2770 1.391 . S
C2769 C2768 1.386 . S
C2769 C2773 1.393 1_455 S
C2770 H2762 0.950 . S
C2770 C2768 1.391 . S
C2770 C2771 1.400 1_455 S
C2771 C2770 1.400 1_655 S
C2771 C2772 1.398 . S
C2771 C2777 1.491 . S
C2772 H2763 0.950 . S
C2772 C2771 1.398 . S
C2772 C2773 1.391 . S
C2773 H2761 0.950 . S
C2773 C2769 1.393 1_655 S
C2773 C2772 1.391 . S
C2774 H2764 0.950 . S
C2774 C2775 1.386 . S
C2774 C2776 1.391 . S
C2775 C2774 1.386 . S
C2775 C2779 1.393 1_655 S
C2776 H2765 0.950 . S
C2776 C2774 1.391 . S
C2776 C2777 1.400 . S
C2777 C2771 1.491 . S
C2777 C2776 1.400 . S
C2777 C2778 1.398 1_655 S
C2778 H2766 0.950 . S
C2778 C2777 1.398 1_455 S
C2778 C2779 1.391 . S
C2779 H2767 0.950 . S
C2779 C2775 1.393 1_455 S
C2779 C2778 1.391 . S
H2780 C2788 0.950 . S
H2781 C2793 0.950 . S
H2782 C2790 0.950 . S
H2783 C2792 0.950 . S
H2784 C2794 0.950 . S
H2785 C2796 0.950 . S
H2786 C2798 0.950 . S
H2787 C2799 0.950 . S
C2788 H2780 0.950 . S
C2788 C2789 1.386 . S
C2788 C2790 1.391 . S
C2789 C2788 1.386 . S
C2789 C2793 1.393 . S
C2790 H2782 0.950 . S
C2790 C2788 1.391 . S
C2790 C2791 1.400 . S
C2791 C2790 1.400 . S
C2791 C2792 1.398 . S
C2791 C2797 1.491 . S
C2792 H2783 0.950 . S
C2792 C2791 1.398 . S
C2792 C2793 1.391 . S
C2793 H2781 0.950 . S
C2793 C2789 1.393 . S
C2793 C2792 1.391 . S
C2794 H2784 0.950 . S
C2794 C2795 1.386 . S
C2794 C2796 1.391 . S
C2795 C2794 1.386 . S
C2795 C2799 1.393 . S
C2796 H2785 0.950 . S
C2796 C2794 1.391 . S
C2796 C2797 1.400 . S
C2797 C2791 1.491 . S
C2797 C2796 1.400 . S
C2797 C2798 1.398 . S
C2798 H2786 0.950 . S
C2798 C2797 1.398 . S
C2798 C2799 1.391 . S
C2799 H2787 0.950 . S
C2799 C2795 1.393 . S
C2799 C2798 1.391 . S
H2800 C2808 0.950 . S
H2801 C2813 0.950 . S
H2802 C2810 0.950 . S
H2803 C2812 0.950 . S
H2804 C2814 0.950 . S
H2805 C2816 0.950 . S
H2806 C2818 0.950 . S
H2807 C2819 0.950 . S
C2808 H2800 0.950 . S
C2808 C2809 1.386 . S
C2808 C2810 1.391 . S
C2809 C2808 1.386 . S
C2809 C2813 1.393 . S
C2810 H2802 0.950 . S
C2810 C2808 1.391 . S
C2810 C2811 1.400 . S
C2811 C2810 1.400 . S
C2811 C2812 1.398 . S
C2811 C2817 1.491 . S
C2812 H2803 0.950 . S
C2812 C2811 1.398 . S
C2812 C2813 1.391 . S
C2813 H2801 0.950 . S
C2813 C2809 1.393 . S
C2813 C2812 1.391 . S
C2814 H2804 0.950 . S
C2814 C2815 1.386 . S
C2814 C2816 1.391 . S
C2815 C2814 1.386 . S
C2815 C2819 1.393 . S
C2816 H2805 0.950 . S
C2816 C2814 1.391 . S
C2816 C2817 1.400 . S
C2817 C2811 1.491 . S
C2817 C2816 1.400 . S
C2817 C2818 1.398 . S
C2818 H2806 0.950 . S
C2818 C2817 1.398 . S
C2818 C2819 1.391 . S
C2819 H2807 0.950 . S
C2819 C2815 1.393 . S
C2819 C2818 1.391 . S
H2820 C2828 0.950 . S
H2821 C2833 0.950 . S
H2822 C2830 0.950 . S
H2823 C2832 0.950 . S
H2824 C2834 0.950 . S
H2825 C2836 0.950 . S
H2826 C2838 0.950 . S
H2827 C2839 0.950 . S
C2828 H2820 0.950 . S
C2828 C2829 1.386 . S
C2828 C2830 1.391 . S
C2829 C2828 1.386 . S
C2829 C2833 1.393 . S
C2830 H2822 0.950 . S
C2830 C2828 1.391 . S
C2830 C2831 1.400 . S
C2831 C2830 1.400 . S
C2831 C2832 1.398 . S
C2831 C2837 1.491 . S
C2832 H2823 0.950 . S
C2832 C2831 1.398 . S
C2832 C2833 1.391 . S
C2833 H2821 0.950 . S
C2833 C2829 1.393 . S
C2833 C2832 1.391 . S
C2834 H2824 0.950 . S
C2834 C2835 1.386 . S
C2834 C2836 1.391 . S
C2835 C2834 1.386 . S
C2835 C2839 1.393 . S
C2836 H2825 0.950 . S
C2836 C2834 1.391 . S
C2836 C2837 1.400 . S
C2837 C2831 1.491 . S
C2837 C2836 1.400 . S
C2837 C2838 1.398 . S
C2838 H2826 0.950 . S
C2838 C2837 1.398 . S
C2838 C2839 1.391 . S
C2839 H2827 0.950 . S
C2839 C2835 1.393 . S
C2839 C2838 1.391 . S
H2840 C2848 0.950 . S
H2841 C2853 0.950 . S
H2842 C2850 0.950 . S
H2843 C2852 0.950 . S
H2844 C2854 0.950 . S
H2845 C2856 0.950 . S
H2846 C2858 0.950 . S
H2847 C2859 0.950 . S
C2848 H2840 0.950 . S
C2848 C2849 1.386 . S
C2848 C2850 1.391 . S
C2849 C2848 1.386 . S
C2849 C2853 1.393 . S
C2850 H2842 0.950 . S
C2850 C2848 1.391 . S
C2850 C2851 1.400 . S
C2851 C2850 1.400 . S
C2851 C2852 1.398 . S
C2851 C2857 1.491 . S
C2852 H2843 0.950 . S
C2852 C2851 1.398 . S
C2852 C2853 1.391 . S
C2853 H2841 0.950 . S
C2853 C2849 1.393 . S
C2853 C2852 1.391 . S
C2854 H2844 0.950 . S
C2854 C2855 1.386 . S
C2854 C2856 1.391 . S
C2855 C2854 1.386 . S
C2855 C2859 1.393 . S
C2856 H2845 0.950 . S
C2856 C2854 1.391 . S
C2856 C2857 1.400 . S
C2857 C2851 1.491 . S
C2857 C2856 1.400 . S
C2857 C2858 1.398 . S
C2858 H2846 0.950 . S
C2858 C2857 1.398 . S
C2858 C2859 1.391 . S
C2859 H2847 0.950 . S
C2859 C2855 1.393 . S
C2859 C2858 1.391 . S
H2860 C2868 0.950 . S
H2861 C2873 0.950 . S
H2862 C2870 0.950 . S
H2863 C2872 0.950 . S
H2864 C2874 0.950 . S
H2865 C2876 0.950 . S
H2866 C2878 0.950 . S
H2867 C2879 0.950 . S
C2868 H2860 0.950 . S
C2868 C2869 1.386 . S
C2868 C2870 1.391 . S
C2869 C2868 1.386 . S
C2869 C2873 1.393 . S
C2870 H2862 0.950 . S
C2870 C2868 1.391 . S
C2870 C2871 1.400 . S
C2871 C2870 1.400 . S
C2871 C2872 1.398 . S
C2871 C2877 1.491 . S
C2872 H2863 0.950 . S
C2872 C2871 1.398 . S
C2872 C2873 1.391 . S
C2873 H2861 0.950 . S
C2873 C2869 1.393 . S
C2873 C2872 1.391 . S
C2874 H2864 0.950 . S
C2874 C2875 1.386 . S
C2874 C2876 1.391 . S
C2875 C2874 1.386 . S
C2875 C2879 1.393 . S
C2876 H2865 0.950 . S
C2876 C2874 1.391 . S
C2876 C2877 1.400 . S
C2877 C2871 1.491 . S
C2877 C2876 1.400 . S
C2877 C2878 1.398 . S
C2878 H2866 0.950 . S
C2878 C2877 1.398 . S
C2878 C2879 1.391 . S
C2879 H2867 0.950 . S
C2879 C2875 1.393 . S
C2879 C2878 1.391 . S
H2880 C2888 0.950 . S
H2881 C2893 0.950 . S
H2882 C2890 0.950 . S
H2883 C2892 0.950 . S
H2884 C2894 0.950 . S
H2885 C2896 0.950 . S
H2886 C2898 0.950 . S
H2887 C2899 0.950 . S
C2888 H2880 0.950 . S
C2888 C2889 1.386 . S
C2888 C2890 1.391 . S
C2889 C2888 1.386 . S
C2889 C2893 1.393 . S
C2890 H2882 0.950 . S
C2890 C2888 1.391 . S
C2890 C2891 1.400 . S
C2891 C2890 1.400 . S
C2891 C2892 1.398 . S
C2891 C2897 1.491 . S
C2892 H2883 0.950 . S
C2892 C2891 1.398 . S
C2892 C2893 1.391 . S
C2893 H2881 0.950 . S
C2893 C2889 1.393 . S
C2893 C2892 1.391 . S
C2894 H2884 0.950 . S
C2894 C2895 1.386 . S
C2894 C2896 1.391 . S
C2895 C2894 1.386 . S
C2895 C2899 1.393 . S
C2896 H2885 0.950 . S
C2896 C2894 1.391 . S
C2896 C2897 1.400 . S
C2897 C2891 1.491 . S
C2897 C2896 1.400 . S
C2897 C2898 1.398 . S
C2898 H2886 0.950 . S
C2898 C2897 1.398 . S
C2898 C2899 1.391 . S
C2899 H2887 0.950 . S
C2899 C2895 1.393 . S
C2899 C2898 1.391 . S
H2900 C2908 0.950 . S
H2901 C2913 0.950 . S
H2902 C2910 0.950 . S
H2903 C2912 0.950 . S
H2904 C2914 0.950 . S
H2905 C2916 0.950 . S
H2906 C2918 0.950 . S
H2907 C2919 0.950 . S
C2908 H2900 0.950 . S
C2908 C2909 1.386 . S
C2908 C2910 1.391 . S
C2909 C2908 1.386 . S
C2909 C2913 1.393 . S
C2910 H2902 0.950 . S
C2910 C2908 1.391 . S
C2910 C2911 1.400 . S
C2911 C2910 1.400 . S
C2911 C2912 1.398 . S
C2911 C2917 1.491 . S
C2912 H2903 0.950 . S
C2912 C2911 1.398 . S
C2912 C2913 1.391 . S
C2913 H2901 0.950 . S
C2913 C2909 1.393 . S
C2913 C2912 1.391 . S
C2914 H2904 0.950 . S
C2914 C2915 1.386 . S
C2914 C2916 1.391 . S
C2915 C2914 1.386 . S
C2915 C2919 1.393 . S
C2916 H2905 0.950 . S
C2916 C2914 1.391 . S
C2916 C2917 1.400 . S
C2917 C2911 1.491 . S
C2917 C2916 1.400 . S
C2917 C2918 1.398 . S
C2918 H2906 0.950 . S
C2918 C2917 1.398 . S
C2918 C2919 1.391 . S
C2919 H2907 0.950 . S
C2919 C2915 1.393 . S
C2919 C2918 1.391 . S
H2920 C2928 0.950 . S
H2921 C2933 0.950 . S
H2922 C2930 0.950 . S
H2923 C2932 0.950 . S
H2924 C2934 0.950 . S
H2925 C2936 0.950 . S
H2926 C2938 0.950 . S
H2927 C2939 0.950 . S
C2928 H2920 0.950 . S
C2928 C2929 1.386 . S
C2928 C2930 1.391 . S
C2929 C2928 1.386 . S
C2929 C2933 1.393 . S
C2930 H2922 0.950 . S
C2930 C2928 1.391 . S
C2930 C2931 1.400 . S
C2931 C2930 1.400 . S
C2931 C2932 1.398 . S
C2931 C2937 1.491 . S
C2932 H2923 0.950 . S
C2932 C2931 1.398 . S
C2932 C2933 1.391 . S
C2933 H2921 0.950 . S
C2933 C2929 1.393 . S
C2933 C2932 1.391 . S
C2934 H2924 0.950 . S
C2934 C2935 1.386 . S
C2934 C2936 1.391 . S
C2935 C2934 1.386 . S
C2935 C2939 1.393 . S
C2936 H2925 0.950 . S
C2936 C2934 1.391 . S
C2936 C2937 1.400 . S
C2937 C2931 1.491 . S
C2937 C2936 1.400 . S
C2937 C2938 1.398 . S
C2938 H2926 0.950 . S
C2938 C2937 1.398 . S
C2938 C2939 1.391 . S
C2939 H2927 0.950 . S
C2939 C2935 1.393 . S
C2939 C2938 1.391 . S
H2940 C2948 0.950 . S
H2941 C2953 0.950 . S
H2942 C2950 0.950 . S
H2943 C2952 0.950 . S
H2944 C2954 0.950 . S
H2945 C2956 0.950 . S
H2946 C2958 0.950 . S
H2947 C2959 0.950 . S
C2948 H2940 0.950 . S
C2948 C2949 1.386 . S
C2948 C2950 1.391 . S
C2949 C2948 1.386 . S
C2949 C2953 1.393 . S
C2950 H2942 0.950 . S
C2950 C2948 1.391 . S
C2950 C2951 1.400 . S
C2951 C2950 1.400 . S
C2951 C2952 1.398 . S
C2951 C2957 1.491 . S
C2952 H2943 0.950 . S
C2952 C2951 1.398 . S
C2952 C2953 1.391 . S
C2953 H2941 0.950 . S
C2953 C2949 1.393 . S
C2953 C2952 1.391 . S
C2954 H2944 0.950 . S
C2954 C2955 1.386 . S
C2954 C2956 1.391 . S
C2955 C2954 1.386 . S
C2955 C2959 1.393 . S
C2956 H2945 0.950 . S
C2956 C2954 1.391 . S
C2956 C2957 1.400 . S
C2957 C2951 1.491 . S
C2957 C2956 1.400 . S
C2957 C2958 1.398 . S
C2958 H2946 0.950 . S
C2958 C2957 1.398 . S
C2958 C2959 1.391 . S
C2959 H2947 0.950 . S
C2959 C2955 1.393 . S
C2959 C2958 1.391 . S
H2960 C2968 0.950 . S
H2961 C2973 0.950 . S
H2962 C2970 0.950 . S
H2963 C2972 0.950 . S
H2964 C2974 0.950 . S
H2965 C2976 0.950 . S
H2966 C2978 0.950 . S
H2967 C2979 0.950 . S
C2968 H2960 0.950 . S
C2968 C2969 1.386 . S
C2968 C2970 1.391 . S
C2969 C2968 1.386 . S
C2969 C2973 1.393 . S
C2970 H2962 0.950 . S
C2970 C2968 1.391 . S
C2970 C2971 1.400 . S
C2971 C2970 1.400 . S
C2971 C2972 1.398 . S
C2971 C2977 1.491 . S
C2972 H2963 0.950 . S
C2972 C2971 1.398 . S
C2972 C2973 1.391 . S
C2973 H2961 0.950 . S
C2973 C2969 1.393 . S
C2973 C2972 1.391 . S
C2974 H2964 0.950 . S
C2974 C2975 1.386 . S
C2974 C2976 1.391 . S
C2975 C2974 1.386 . S
C2975 C2979 1.393 . S
C2976 H2965 0.950 . S
C2976 C2974 1.391 . S
C2976 C2977 1.400 . S
C2977 C2971 1.491 . S
C2977 C2976 1.400 . S
C2977 C2978 1.398 . S
C2978 H2966 0.950 . S
C2978 C2977 1.398 . S
C2978 C2979 1.391 . S
C2979 H2967 0.950 . S
C2979 C2975 1.393 . S
C2979 C2978 1.391 . S
H2980 C2988 0.950 . S
H2981 C2993 0.950 . S
H2982 C2990 0.950 . S
H2983 C2992 0.950 . S
H2984 C2994 0.950 . S
H2985 C2996 0.950 . S
H2986 C2998 0.950 . S
H2987 C2999 0.950 . S
C2988 H2980 0.950 . S
C2988 C2989 1.386 . S
C2988 C2990 1.391 . S
C2989 C2988 1.386 . S
C2989 C2993 1.393 . S
C2990 H2982 0.950 . S
C2990 C2988 1.391 . S
C2990 C2991 1.400 . S
C2991 C2990 1.400 . S
C2991 C2992 1.398 . S
C2991 C2997 1.491 . S
C2992 H2983 0.950 . S
C2992 C2991 1.398 . S
C2992 C2993 1.391 . S
C2993 H2981 0.950 . S
C2993 C2989 1.393 . S
C2993 C2992 1.391 . S
C2994 H2984 0.950 . S
C2994 C2995 1.386 . S
C2994 C2996 1.391 . S
C2995 C2994 1.386 . S
C2995 C2999 1.393 . S
C2996 H2985 0.950 . S
C2996 C2994 1.391 . S
C2996 C2997 1.400 . S
C2997 C2991 1.491 . S
C2997 C2996 1.400 . S
C2997 C2998 1.398 . S
C2998 H2986 0.950 . S
C2998 C2997 1.398 . S
C2998 C2999 1.391 . S
C2999 H2987 0.950 . S
C2999 C2995 1.393 . S
C2999 C2998 1.391 . S
H3000 C3008 0.950 . S
H3001 C3013 0.950 . S
H3002 C3010 0.950 . S
H3003 C3012 0.950 . S
H3004 C3014 0.950 . S
H3005 C3016 0.950 . S
H3006 C3018 0.950 . S
H3007 C3019 0.950 . S
C3008 H3000 0.950 . S
C3008 C3009 1.386 . S
C3008 C3010 1.391 . S
C3009 C3008 1.386 . S
C3009 C3013 1.393 . S
C3010 H3002 0.950 . S
C3010 C3008 1.391 . S
C3010 C3011 1.400 . S
C3011 C3010 1.400 . S
C3011 C3012 1.398 . S
C3011 C3017 1.491 . S
C3012 H3003 0.950 . S
C3012 C3011 1.398 . S
C3012 C3013 1.391 . S
C3013 H3001 0.950 . S
C3013 C3009 1.393 . S
C3013 C3012 1.391 . S
C3014 H3004 0.950 . S
C3014 C3015 1.386 . S
C3014 C3016 1.391 . S
C3015 C3014 1.386 . S
C3015 C3019 1.393 . S
C3016 H3005 0.950 . S
C3016 C3014 1.391 . S
C3016 C3017 1.400 . S
C3017 C3011 1.491 . S
C3017 C3016 1.400 . S
C3017 C3018 1.398 . S
C3018 H3006 0.950 . S
C3018 C3017 1.398 . S
C3018 C3019 1.391 . S
C3019 H3007 0.950 . S
C3019 C3015 1.393 . S
C3019 C3018 1.391 . S
H3020 C3028 0.950 . S
H3021 C3033 0.950 . S
H3022 C3030 0.950 . S
H3023 C3032 0.950 . S
H3024 C3034 0.950 . S
H3025 C3036 0.950 . S
H3026 C3038 0.950 . S
H3027 C3039 0.950 . S
C3028 H3020 0.950 . S
C3028 C3029 1.386 . S
C3028 C3030 1.391 . S
C3029 C3028 1.386 . S
C3029 C3033 1.393 1_554 S
C3030 H3022 0.950 . S
C3030 C3028 1.391 . S
C3030 C3031 1.434 . S
C3031 C3030 1.434 . S
C3031 C3032 1.369 1_554 S
C3031 C3037 1.487 1_554 S
C3032 H3023 0.950 . S
C3032 C3031 1.369 1_556 S
C3032 C3033 1.391 . S
C3033 H3021 0.950 . S
C3033 C3029 1.393 1_556 S
C3033 C3032 1.391 . S
C3034 H3024 0.950 . S
C3034 C3035 1.386 . S
C3034 C3036 1.391 . S
C3035 C3034 1.386 . S
C3035 C3039 1.393 1_556 S
C3036 H3025 0.950 . S
C3036 C3034 1.391 . S
C3036 C3037 1.400 . S
C3037 C3031 1.487 1_556 S
C3037 C3036 1.400 . S
C3037 C3038 1.398 1_556 S
C3038 H3026 0.950 . S
C3038 C3037 1.398 1_554 S
C3038 C3039 1.391 . S
C3039 H3027 0.950 . S
C3039 C3035 1.393 1_554 S
C3039 C3038 1.391 . S
H3040 C3048 0.950 . S
H3041 C3053 0.950 . S
H3042 C3050 0.950 . S
H3043 C3052 0.950 . S
H3044 C3054 0.950 . S
H3045 C3056 0.950 . S
H3046 C3058 0.950 . S
H3047 C3059 0.950 . S
C3048 H3040 0.950 . S
C3048 C3049 1.386 . S
C3048 C3050 1.391 . S
C3049 C3048 1.386 . S
C3049 C3053 1.393 . S
C3050 H3042 0.950 . S
C3050 C3048 1.391 . S
C3050 C3051 1.400 . S
C3051 C3050 1.400 . S
C3051 C3052 1.398 . S
C3051 C3057 1.491 . S
C3052 H3043 0.950 . S
C3052 C3051 1.398 . S
C3052 C3053 1.391 . S
C3053 H3041 0.950 . S
C3053 C3049 1.393 . S
C3053 C3052 1.391 . S
C3054 H3044 0.950 . S
C3054 C3055 1.386 . S
C3054 C3056 1.391 . S
C3055 C3054 1.386 . S
C3055 C3059 1.393 . S
C3056 H3045 0.950 . S
C3056 C3054 1.391 . S
C3056 C3057 1.400 . S
C3057 C3051 1.491 . S
C3057 C3056 1.400 . S
C3057 C3058 1.398 . S
C3058 H3046 0.950 . S
C3058 C3057 1.398 . S
C3058 C3059 1.391 . S
C3059 H3047 0.950 . S
C3059 C3055 1.393 . S
C3059 C3058 1.391 . S
H3060 C3068 0.950 . S
H3061 C3073 0.950 . S
H3062 C3070 0.950 . S
H3063 C3072 0.950 . S
H3064 C3074 0.952 . S
H3065 C3076 0.950 1_556 S
H3066 C3078 0.950 . S
H3067 C3079 0.950 . S
C3068 H3060 0.950 . S
C3068 C3069 1.394 . S
C3068 C3070 1.391 . S
C3069 C3068 1.394 . S
C3069 C3073 1.386 1_554 S
C3070 H3062 0.950 . S
C3070 C3068 1.391 . S
C3070 C3071 1.400 . S
C3071 C3070 1.400 . S
C3071 C3072 1.398 1_554 S
C3071 C3077 1.491 . S
C3072 H3063 0.950 . S
C3072 C3071 1.398 1_556 S
C3072 C3073 1.391 . S
C3073 H3061 0.950 . S
C3073 C3069 1.386 1_556 S
C3073 C3072 1.391 . S
C3074 H3064 0.952 . S
C3074 C3075 1.386 . S
C3074 C3076 1.391 . S
C3075 C3074 1.386 . S
C3075 C3079 1.393 . S
C3076 H3065 0.950 1_554 S
C3076 C3074 1.391 . S
C3076 C3077 1.400 . S
C3077 C3071 1.491 . S
C3077 C3076 1.400 . S
C3077 C3078 1.398 . S
C3078 H3066 0.950 . S
C3078 C3077 1.398 . S
C3078 C3079 1.391 . S
C3079 H3067 0.950 . S
C3079 C3075 1.393 . S
C3079 C3078 1.391 . S
H3080 C3088 0.950 . S
H3081 C3093 0.950 . S
H3082 C3090 0.950 . S
H3083 C3092 0.950 . S
H3084 C3094 0.950 . S
H3085 C3096 0.950 . S
H3086 C3098 0.950 . S
H3087 C3099 0.950 . S
C3088 H3080 0.950 . S
C3088 C3089 1.386 . S
C3088 C3090 1.391 . S
C3089 C3088 1.386 . S
C3089 C3093 1.393 . S
C3090 H3082 0.950 . S
C3090 C3088 1.391 . S
C3090 C3091 1.400 . S
C3091 C3090 1.400 . S
C3091 C3092 1.398 . S
C3091 C3097 1.491 . S
C3092 H3083 0.950 . S
C3092 C3091 1.398 . S
C3092 C3093 1.391 . S
C3093 H3081 0.950 . S
C3093 C3089 1.393 . S
C3093 C3092 1.391 . S
C3094 H3084 0.950 . S
C3094 C3095 1.386 . S
C3094 C3096 1.391 . S
C3095 C3094 1.386 . S
C3095 C3099 1.393 . S
C3096 H3085 0.950 . S
C3096 C3094 1.391 . S
C3096 C3097 1.400 . S
C3097 C3091 1.491 . S
C3097 C3096 1.400 . S
C3097 C3098 1.398 . S
C3098 H3086 0.950 . S
C3098 C3097 1.398 . S
C3098 C3099 1.391 . S
C3099 H3087 0.950 . S
C3099 C3095 1.393 . S
C3099 C3098 1.391 . S
H3100 C3108 0.950 . S
H3101 C3113 0.950 . S
H3102 C3110 0.950 . S
H3103 C3112 0.950 . S
H3104 C3114 0.950 . S
H3105 C3116 0.950 . S
H3106 C3118 0.950 . S
H3107 C3119 0.950 . S
C3108 H3100 0.950 . S
C3108 C3109 1.386 . S
C3108 C3110 1.391 . S
C3109 C3108 1.386 . S
C3109 C3113 1.393 . S
C3110 H3102 0.950 . S
C3110 C3108 1.391 . S
C3110 C3111 1.400 . S
C3111 C3110 1.400 . S
C3111 C3112 1.398 . S
C3111 C3117 1.491 . S
C3112 H3103 0.950 . S
C3112 C3111 1.398 . S
C3112 C3113 1.391 . S
C3113 H3101 0.950 . S
C3113 C3109 1.393 . S
C3113 C3112 1.391 . S
C3114 H3104 0.950 . S
C3114 C3115 1.386 . S
C3114 C3116 1.391 . S
C3115 C3114 1.386 . S
C3115 C3119 1.393 . S
C3116 H3105 0.950 . S
C3116 C3114 1.391 . S
C3116 C3117 1.400 . S
C3117 C3111 1.491 . S
C3117 C3116 1.400 . S
C3117 C3118 1.398 . S
C3118 H3106 0.950 . S
C3118 C3117 1.398 . S
C3118 C3119 1.391 . S
C3119 H3107 0.950 . S
C3119 C3115 1.393 . S
C3119 C3118 1.391 . S
C1215 C879 1.217 . S
C1209 C2 1.312 . S
C1229 C39 1.117 . S
C1235 C898 1.094 . S
C1249 C86 1.184 . S
C1255 C921 1.115 . S
C1275 C941 1.210 . S
C1269 C112 1.244 . S
C1289 C38 1.323 . S
C1295 C962 1.295 1_455 S
C1315 C984 1.222 . S
C1309 C76 1.290 . S
C1335 C1006 1.133 . S
C1329 C122 1.134 . S
C1349 C3 1.278 . S
C1355 C1024 1.240 . S
C1369 C147 1.283 . S
C1375 C880 1.248 . S
C1389 C184 1.312 . S
C1395 C899 1.282 . S
C1415 C922 1.157 . S
C1409 C219 1.176 . S
C1435 C945 1.240 . S
C1429 C256 1.364 . S
C1449 C148 1.372 . S
C1455 C966 1.293 . S
C1475 C985 1.107 . S
C1469 C183 1.147 . S
C1495 C1007 1.280 . S
C1489 C220 1.316 . S
C1515 C1025 1.242 . S
C1509 C255 1.264 . S
C1535 C881 1.308 . S
C1529 C254 1.334 . S
C1555 C1048 1.147 . S
C1549 C302 1.143 1_554 S
C1569 C326 1.336 . S
C1575 C1070 1.317 . S
C1595 C1089 1.291 . S
C1589 C374 1.362 . S
C1609 C146 1.322 . S
C1615 C1029 1.210 . S
C1635 C923 1.327 . S
C1629 C182 1.358 . S
C1649 C338 1.140 . S
C1655 C1111 1.135 . S
C1675 C1134 1.213 . S
C1669 C410 1.264 . S
C1689 C434 1.338 . S
C1695 C882 1.225 . S
C1715 C1133 1.199 . S
C1709 C472 1.212 . S
C1729 C507 1.327 . S
C1735 C924 1.205 . S
C1749 C543 1.178 . S
C1755 C1108 1.130 . S
C1775 C964 1.229 . S
C1769 C470 1.257 . S
C1795 C1071 1.281 . S
C1789 C518 1.326 . S
C1815 C1004 1.264 . S
C1809 C554 1.228 . S
C1835 C1154 1.297 . S
C1829 C436 1.314 . S
C1855 C878 1.357 . S
C1849 C580 1.394 . S
C1869 C615 1.248 . S
C1875 C1132 1.198 . S
C1895 C920 1.232 . S
C1889 C652 1.267 . S
C1909 C687 1.356 . S
C1915 C1113 1.241 . S
C1929 C579 1.397 1_565 S
C1935 C963 1.303 . S
C1949 C616 1.331 . S
C1955 C1067 1.285 . S
C1975 C1003 1.176 . S
C1969 C651 1.227 . S
C1989 C688 1.256 . S
C1995 C1153 1.212 . S
C2009 C686 1.320 . S
C2015 C877 1.282 . S
C2029 C734 1.295 . S
C2035 C1046 1.325 . S
C2049 C758 1.256 . S
C2055 C982 1.233 . S
C2069 C806 1.355 . S
C2075 C1092 1.294 . S
C2095 C1152 1.214 . S
C2089 C578 1.320 . S
C2115 C919 1.260 . S
C2109 C614 1.301 . S
C2135 C944 1.254 . S
C2129 C770 1.261 . S
C2155 C900 1.291 . S
C2149 C842 1.313 . S
C2169 C74 1.247 . S
C2175 C1176 1.137 . S
C2195 C1129 1.072 . S
C2189 C111 1.103 . S
C2215 C1194 1.172 . S
C2209 C14 1.255 1_455 S
C2229 C40 1.250 . S
C2235 C1112 1.232 . S
C2249 C110 1.327 . S
C2255 C1049 1.302 . S
C2275 C1068 1.250 . S
C2269 C4 1.357 . S
C2295 C1090 1.109 . S
C2289 C50 1.133 1_455 S
C2315 C1150 1.197 . S
C2309 C75 1.221 . S
C2335 C1171 1.251 . S
C2329 C399 1.291 . S
C2349 C292 1.308 . S
C2355 C1130 1.275 . S
C2369 C327 1.168 . S
C2375 C1195 1.135 . S
C2395 C1110 1.244 . S
C2389 C364 1.363 . S
C2415 C1047 1.262 . S
C2409 C400 1.368 . S
C2429 C291 1.143 . S
C2435 C1069 1.129 . S
C2455 C1091 1.279 . S
C2449 C328 1.316 . S
C2469 C363 1.267 . S
C2475 C1151 1.249 . S
C2495 C1172 1.289 . S
C2489 C362 1.318 . S
C2515 C961 1.153 . S
C2509 C194 1.163 . S
C2535 C986 1.276 . S
C2529 C218 1.304 . S
C2549 C266 1.353 1_554 S
C2555 C1005 1.291 . S
C2575 C1155 1.208 . S
C2569 C398 1.290 . S
C2589 C290 1.393 . S
C2595 C1196 1.369 . S
C2615 C940 1.110 . S
C2609 C230 1.129 . S
C2635 C903 1.193 . S
C2629 C158 1.261 . S
C2649 C508 1.239 . S
C2655 C1173 1.126 . S
C2675 C902 1.174 . S
C2669 C544 1.220 . S
C2695 C1197 1.270 . S
C2689 C446 1.352 1_455 S
C2709 C471 1.184 . S
C2715 C943 1.141 . S
C2729 C542 1.247 . S
C2735 C1045 1.207 . S
C2749 C435 1.308 . S
C2755 C987 1.229 . S
C2769 C482 1.235 1_455 S
C2775 C1088 1.244 . S
C2789 C506 1.404 . S
C2795 C1028 1.397 . S
C2815 C1175 1.341 . S
C2809 C832 1.375 . S
C2829 C723 1.233 . S
C2835 C901 1.172 . S
C2855 C1193 1.262 . S
C2849 C760 1.273 . S
C2869 C795 1.364 . S
C2875 C942 1.240 . S
C2889 C831 1.391 . S
C2895 C1050 1.275 . S
C2915 C983 1.283 . S
C2909 C724 1.311 . S
C2929 C759 1.244 . S
C2935 C1087 1.210 . S
C2955 C1027 1.257 . S
C2949 C796 1.280 . S
C2975 C1174 1.308 . S
C2969 C794 1.331 . S
C2995 C965 1.341 . S
C2989 C626 1.325 . S
C3009 C650 1.235 . S
C3015 C1066 1.193 . S
C3035 C1008 1.296 . S
C3029 C698 1.345 . S
C3055 C1026 1.229 . S
C3049 C830 1.322 . S
C3069 C722 1.297 . S
C3075 C1192 1.271 . S
C3095 C1109 1.254 . S
C3089 C662 1.251 . S
C3115 C1131 1.263 . S
C3109 C590 1.356 . S
