# Generated by pormake.
# Topology zzz, (3,6)-cn, num edge types: 1
# Building blocks:
#     Node 0, Type 0, BuildingBlock: WUSLED_clean_sbu_0, # of connection points: 3
#     Node 1, Type 0, BuildingBlock: WUSLED_clean_sbu_0, # of connection points: 3
#     Node 2, Type 0, BuildingBlock: WUSLED_clean_sbu_0, # of connection points: 3
#     Node 3, Type 0, BuildingBlock: WUSLED_clean_sbu_0, # of connection points: 3
#     Node 4, Type 0, BuildingBlock: WUSLED_clean_sbu_0, # of connection points: 3
#     Node 5, Type 0, BuildingBlock: WUSLED_clean_sbu_0, # of connection points: 3
#     Node 6, Type 0, BuildingBlock: WUSLED_clean_sbu_0, # of connection points: 3
#     Node 7, Type 0, BuildingBlock: WUSLED_clean_sbu_0, # of connection points: 3
#     Node 8, Type 1, BuildingBlock: BETDIP_clean_sbu_0, # of connection points: 6
#     Node 9, Type 1, BuildingBlock: BETDIP_clean_sbu_0, # of connection points: 6
#     Node 10, Type 1, BuildingBlock: BETDIP_clean_sbu_0, # of connection points: 6
#     Node 11, Type 1, BuildingBlock: BETDIP_clean_sbu_0, # of connection points: 6
#     Edge 12, Type (0, 1), BuildingBlock: AJUNOK_clean_linker_0, # of connection points: 2
#     Edge 13, Type (0, 1), BuildingBlock: AJUNOK_clean_linker_0, # of connection points: 2
#     Edge 14, Type (0, 1), BuildingBlock: AJUNOK_clean_linker_0, # of connection points: 2
#     Edge 15, Type (0, 1), BuildingBlock: AJUNOK_clean_linker_0, # of connection points: 2
#     Edge 16, Type (0, 1), BuildingBlock: AJUNOK_clean_linker_0, # of connection points: 2
#     Edge 17, Type (0, 1), BuildingBlock: AJUNOK_clean_linker_0, # of connection points: 2
#     Edge 18, Type (0, 1), BuildingBlock: AJUNOK_clean_linker_0, # of connection points: 2
#     Edge 19, Type (0, 1), BuildingBlock: AJUNOK_clean_linker_0, # of connection points: 2
#     Edge 20, Type (0, 1), BuildingBlock: AJUNOK_clean_linker_0, # of connection points: 2
#     Edge 21, Type (0, 1), BuildingBlock: AJUNOK_clean_linker_0, # of connection points: 2
#     Edge 22, Type (0, 1), BuildingBlock: AJUNOK_clean_linker_0, # of connection points: 2
#     Edge 23, Type (0, 1), BuildingBlock: AJUNOK_clean_linker_0, # of connection points: 2
#     Edge 24, Type (0, 1), BuildingBlock: AJUNOK_clean_linker_0, # of connection points: 2
#     Edge 25, Type (0, 1), BuildingBlock: AJUNOK_clean_linker_0, # of connection points: 2
#     Edge 26, Type (0, 1), BuildingBlock: AJUNOK_clean_linker_0, # of connection points: 2
#     Edge 27, Type (0, 1), BuildingBlock: AJUNOK_clean_linker_0, # of connection points: 2
#     Edge 28, Type (0, 1), BuildingBlock: AJUNOK_clean_linker_0, # of connection points: 2
#     Edge 29, Type (0, 1), BuildingBlock: AJUNOK_clean_linker_0, # of connection points: 2
#     Edge 30, Type (0, 1), BuildingBlock: AJUNOK_clean_linker_0, # of connection points: 2
#     Edge 31, Type (0, 1), BuildingBlock: AJUNOK_clean_linker_0, # of connection points: 2
#     Edge 32, Type (0, 1), BuildingBlock: AJUNOK_clean_linker_0, # of connection points: 2
#     Edge 33, Type (0, 1), BuildingBlock: AJUNOK_clean_linker_0, # of connection points: 2
#     Edge 34, Type (0, 1), BuildingBlock: AJUNOK_clean_linker_0, # of connection points: 2
#     Edge 35, Type (0, 1), BuildingBlock: AJUNOK_clean_linker_0, # of connection points: 2
# Relax obj value: 0.452
# Max RMSD: 0.255
# Mean RMSD: 0.237
data_MOF--net-zzz--node1-WUSLED_clean_sbu_0--node2-BETDIP_clean_sbu_0--edge1-AJUNOK_clean_linker_0
_symmetry_space_group_name_H-M    P1
_symmetry_Int_Tables_number       1
_symmetry_cell_setting            triclinic
loop_
_symmetry_equiv_pos_as_xyz
'x, y, z'
_cell_length_a     51.154902
_cell_length_b     51.189055
_cell_length_c     16.05245
_cell_angle_alpha  89.929015
_cell_angle_beta   89.946598
_cell_angle_gamma 90.000806
loop_
_atom_site_label
_atom_site_type_symbol
_atom_site_fract_x
_atom_site_fract_y
_atom_site_fract_z
_atom_type_partial_charge
C0 C 0.80122 0.51426 0.44407 0.0
C1 C 0.80521 0.49757 0.51309 0.0
C2 C 0.85174 0.50973 0.52207 0.0
C3 C 0.83004 0.49535 0.55137 0.0
C4 C 0.84759 0.52647 0.45343 0.0
C5 C 0.8229 0.52866 0.41529 0.0
U6 U 0.73806 0.50153 0.30536 0.0
O7 O 0.71705 0.53153 0.23341 0.0
O8 O 0.69591 0.50932 0.32836 0.0
C9 C 0.69412 0.52582 0.26562 0.0
C10 C 0.77438 0.5196 0.40855 0.0
C11 C 0.67213 0.52204 0.20479 0.0
C12 C 0.62564 0.52668 0.16982 0.0
C13 C 0.64622 0.52777 0.22819 0.0
C14 C 0.65626 0.51374 0.0631 0.0
C15 C 0.63036 0.51991 0.08597 0.0
C16 C 0.67678 0.51468 0.12151 0.0
C17 C 0.77006 0.43978 0.22081 0.0
C18 C 0.79251 0.40785 0.13548 0.0
C19 C 0.81675 0.43388 0.23514 0.0
C20 C 0.79361 0.44577 0.26097 0.0
C21 C 0.81655 0.41602 0.16862 0.0
C22 C 0.76935 0.41983 0.16119 0.0
C23 C 0.7478 0.4575 0.22785 0.0
O24 O 0.77289 0.52597 0.32927 0.0
O25 O 0.75457 0.505 0.43269 0.0
O26 O 0.73601 0.45849 0.30058 0.0
O27 O 0.75209 0.48065 0.19525 0.0
H28 H 0.78902 0.48652 0.53863 0.0
H29 H 0.83225 0.48229 0.60401 0.0
H30 H 0.86336 0.53855 0.43012 0.0
H31 H 0.82066 0.5423 0.36416 0.0
H32 H 0.60615 0.532 0.1899 0.0
H33 H 0.64195 0.53373 0.29148 0.0
H34 H 0.66074 0.50827 0.99951 0.0
H35 H 0.69642 0.51009 0.10093 0.0
H36 H 0.79189 0.3939 0.08482 0.0
H37 H 0.83504 0.44062 0.26149 0.0
H38 H 0.79443 0.46124 0.30695 0.0
H39 H 0.75124 0.41503 0.12973 0.0
C40 C 1.004 0.80696 0.42423 0.0
C41 C 0.02012 0.81068 0.49463 0.0
C42 C 1.00765 0.85708 0.50503 0.0
C43 C 0.02192 0.83531 0.53425 0.0
C44 C 0.99155 0.85323 0.43476 0.0
C45 C 0.98979 0.82873 0.39524 0.0
U46 U 0.01709 0.74396 0.28462 0.0
O47 O 0.98711 0.72325 0.21188 0.0
O48 O 1.00888 0.70188 0.30719 0.0
C49 C 0.99257 0.70027 0.24399 0.0
C50 C 0.99886 0.78024 0.38773 0.0
C51 C 0.99638 0.67831 0.18307 0.0
C52 C 0.99251 0.63173 0.14867 0.0
C53 C 0.99149 0.65229 0.20712 0.0
C54 C 1.00385 0.66259 0.04075 0.0
C55 C 0.99813 0.63663 0.06409 0.0
C56 C 1.00301 0.68307 0.09917 0.0
C57 C 0.07987 0.77493 0.20141 0.0
C58 C 0.11136 0.79754 0.1146 0.0
C59 C 0.08846 0.82085 0.224 0.0
C60 C 0.07572 0.79785 0.2471 0.0
C61 C 0.10532 0.82116 0.15467 0.0
C62 C 0.09865 0.77453 0.13787 0.0
C63 C 0.0615 0.75317 0.20813 0.0
O64 O 0.99283 0.77893 0.3082 0.0
O65 O 0.01333 0.76036 0.41202 0.0
O66 O 0.06011 0.74133 0.2807 0.0
O67 O 0.0385 0.75804 0.17533 0.0
H68 H 0.031 0.79442 0.52034 0.0
H69 H 0.03451 0.83728 0.58807 0.0
H70 H 0.97956 0.86904 0.41135 0.0
H71 H 0.97657 0.82668 0.343 0.0
H72 H 0.98806 0.61206 0.16921 0.0
H73 H 0.98627 0.64789 0.27103 0.0
H74 H 1.00886 0.66714 0.9768 0.0
H75 H 1.0071 0.70276 0.07812 0.0
H76 H 0.12419 0.79734 0.06086 0.0
H77 H 0.08302 0.83884 0.25502 0.0
H78 H 0.06106 0.79847 0.29587 0.0
H79 H 0.10193 0.75694 0.10188 0.0
C80 C 0.70597 1.00318 0.41964 0.0
C81 C 0.70115 0.02347 0.4771 0.0
C82 C 0.656 1.00823 0.50052 0.0
C83 C 0.67655 0.02595 0.51688 0.0
C84 C 0.66104 0.98796 0.44326 0.0
C85 C 0.68546 0.98556 0.40359 0.0
U86 U 0.77043 0.01551 0.28474 0.0
O87 O 0.78964 0.98533 0.20796 0.0
O88 O 0.81159 1.00421 0.30799 0.0
C89 C 0.8126 0.9886 0.24288 0.0
C90 C 0.73258 0.99775 0.38299 0.0
C91 C 0.8352 0.99137 0.18403 0.0
C92 C 0.86888 0.01714 0.1125 0.0
C93 C 0.84801 0.01534 0.16991 0.0
C94 C 0.86452 0.97118 0.08191 0.0
C95 C 0.87744 0.99506 0.06738 0.0
C96 C 0.84383 0.96937 0.13939 0.0
C97 C 0.74403 0.0811 0.2075 0.0
C98 C 0.72387 0.11401 0.12004 0.0
C99 C 0.6984 0.09197 0.22652 0.0
C100 C 0.72051 0.07801 0.25113 0.0
C101 C 0.69959 0.10898 0.15764 0.0
C102 C 0.746 0.1001 0.14491 0.0
C103 C 0.76454 0.06135 0.2139 0.0
O104 O 0.7339 0.99301 0.30261 0.0
O105 O 0.75293 1.01093 0.41038 0.0
O106 O 0.7756 0.0583 0.28716 0.0
O107 O 0.75854 0.03916 0.17772 0.0
H108 H 0.71648 0.03724 0.49235 0.0
H109 H 0.6736 0.0418 0.56048 0.0
H110 H 0.64627 0.97337 0.43045 0.0
H111 H 0.68854 0.9693 0.36156 0.0
H112 H 0.87791 0.03599 0.10207 0.0
H113 H 0.84174 0.03276 0.20255 0.0
H114 H 0.8705 0.95373 0.04891 0.0
H115 H 0.8344 0.95064 0.14867 0.0
H116 H 0.72521 0.12693 0.0667 0.0
H117 H 0.67985 0.08735 0.25566 0.0
H118 H 0.71868 0.06319 0.29909 0.0
H119 H 0.76406 0.10257 0.11045 0.0
C120 C 0.51447 0.72075 0.45924 0.0
C121 C 0.49323 0.71443 0.51183 0.0
C122 C 0.51 0.66979 0.53372 0.0
C123 C 0.49106 0.68933 0.54855 0.0
C124 C 0.53126 0.67638 0.48179 0.0
C125 C 0.5334 0.70128 0.44526 0.0
U126 U 0.49972 0.78379 0.3227 0.0
O127 O 0.52936 0.80518 0.2497 0.0
O128 O 0.50672 0.82603 0.34425 0.0
C129 C 0.52349 0.82797 0.2822 0.0
C130 C 0.51906 0.74778 0.42461 0.0
C131 C 0.52062 0.8501 0.22131 0.0
C132 C 0.4959 0.88542 0.1539 0.0
C133 C 0.4975 0.86488 0.21272 0.0
C134 C 0.54041 0.87702 0.11176 0.0
C135 C 0.51734 0.89174 0.10206 0.0
C136 C 0.54202 0.85667 0.17034 0.0
C137 C 0.43933 0.74905 0.24414 0.0
C138 C 0.4039 0.72602 0.17611 0.0
C139 C 0.43751 0.70188 0.24961 0.0
C140 C 0.4492 0.72525 0.27356 0.0
C141 C 0.41562 0.702 0.19649 0.0
C142 C 0.41593 0.74947 0.19892 0.0
C143 C 0.45568 0.77244 0.24776 0.0
O144 O 0.52514 0.74956 0.34521 0.0
O145 O 0.50402 0.76712 0.44958 0.0
O146 O 0.47878 0.76936 0.21334 0.0
O147 O 0.45659 0.78462 0.31973 0.0
H148 H 0.4784 0.72891 0.5253 0.0
H149 H 0.47442 0.68516 0.58812 0.0
H150 H 0.54669 0.66235 0.47036 0.0
H151 H 0.55033 0.7055 0.40694 0.0
H152 H 0.47763 0.89592 0.14772 0.0
H153 H 0.48058 0.86044 0.25077 0.0
H154 H 0.55743 0.88129 0.07393 0.0
H155 H 0.56017 0.84589 0.17561 0.0
H156 H 0.38653 0.72671 0.13765 0.0
H157 H 0.44708 0.68378 0.26663 0.0
H158 H 0.46722 0.72465 0.30901 0.0
H159 H 0.40796 0.76779 0.17651 0.0
C160 C 0.21556 0.50417 0.04442 0.0
C161 C 0.19416 0.51561 0.08609 0.0
C162 C 0.16578 0.50998 0.96324 0.0
C163 C 0.16969 0.51844 0.04616 0.0
C164 C 0.18742 0.49901 0.92152 0.0
C165 C 0.21181 0.4962 0.96136 0.0
U166 U 0.27786 0.51755 0.18476 0.0
O167 O 0.31912 0.50512 0.17106 0.0
O168 O 0.2955 0.48973 0.27366 0.0
C169 C 0.31888 0.49119 0.24011 0.0
C170 C 0.24094 0.49775 0.08738 0.0
C171 C 0.34122 0.49424 0.29962 0.0
C172 C 0.37404 0.5203 0.37374 0.0
C173 C 0.35327 0.51844 0.31597 0.0
C174 C 0.37109 0.47392 0.39972 0.0
C175 C 0.38326 0.49803 0.41678 0.0
C176 C 0.35049 0.47208 0.34212 0.0
C177 C 0.24779 0.58299 0.2277 0.0
C178 C 0.21524 0.60679 0.30648 0.0
C179 C 0.20369 0.58709 0.17435 0.0
C180 C 0.22944 0.57867 0.16425 0.0
C181 C 0.19596 0.59934 0.24879 0.0
C182 C 0.24106 0.59869 0.29576 0.0
C183 C 0.27028 0.56552 0.23597 0.0
O184 O 0.26246 0.50863 0.0587 0.0
O185 O 0.24083 0.49588 0.1691 0.0
O186 O 0.26501 0.54482 0.28135 0.0
O187 O 0.28328 0.56 0.16746 0.0
H188 H 0.19613 0.52191 0.15016 0.0
H189 H 0.15369 0.5271 0.08069 0.0
H190 H 0.18533 0.49162 0.85873 0.0
H191 H 0.22766 0.48695 0.92768 0.0
H192 H 0.38244 0.53931 0.38609 0.0
H193 H 0.34649 0.53594 0.28478 0.0
H194 H 0.37758 0.45631 0.43088 0.0
H195 H 0.34166 0.45317 0.33098 0.0
H196 H 0.20994 0.61592 0.36493 0.0
H197 H 0.18924 0.58129 0.12863 0.0
H198 H 0.23422 0.5664 0.11143 0.0
H199 H 0.25495 0.60202 0.34556 0.0
C200 C 0.9984 0.21624 0.04716 0.0
C201 C 1.01128 0.21346 0.96992 0.0
C202 C 1.00229 0.16627 0.96626 0.0
C203 C 0.01332 0.18892 0.93046 0.0
C204 C 0.98974 0.16901 0.04407 0.0
C205 C 0.98774 0.19351 0.08358 0.0
U206 U 0.01875 0.27254 0.19726 0.0
O207 O 0.99403 0.29634 0.28017 0.0
O208 O 0.01826 0.31582 0.18636 0.0
C209 C 1.00255 0.31877 0.25073 0.0
C210 C 0.99461 0.24277 0.08653 0.0
C211 C 1.0088 0.33985 0.31286 0.0
C212 C 0.01342 0.38658 0.34437 0.0
C213 C 1.0106 0.36605 0.28653 0.0
C214 C 0.01296 0.3553 0.45692 0.0
C215 C 0.01457 0.38161 0.43071 0.0
C216 C 1.01019 0.33479 0.39908 0.0
C217 C 0.06873 0.22289 0.23823 0.0
C218 C 0.0768 0.17985 0.29568 0.0
C219 C 0.0585 0.18416 0.15717 0.0
C220 C 0.06035 0.21127 0.16351 0.0
C221 C 0.06525 0.16834 0.22518 0.0
C222 C 0.07838 0.20703 0.30236 0.0
C223 C 0.06025 0.24966 0.25721 0.0
O224 O 0.98843 0.24337 0.16606 0.0
O225 O 1.0112 0.26138 0.06618 0.0
O226 O 0.03786 0.25036 0.29727 0.0
O227 O 0.06143 0.26644 0.19513 0.0
H228 H 0.01968 0.23036 0.93933 0.0
H229 H 0.02373 0.18774 0.87186 0.0
H230 H 0.98092 0.1522 0.074 0.0
H231 H 0.97747 0.19465 0.14248 0.0
H232 H 0.01462 0.40643 0.32131 0.0
H233 H 1.00923 0.37077 0.22087 0.0
H234 H 0.01305 0.35053 0.52263 0.0
H235 H 1.00848 0.315 0.4223 0.0
H236 H 0.08179 0.16806 0.34945 0.0
H237 H 0.04945 0.1757 0.10247 0.0
H238 H 0.05266 0.22313 0.11329 0.0
H239 H 0.08456 0.21559 0.36081 0.0
C240 C 0.29652 0.02926 0.04595 0.0
C241 C 0.3183 0.02395 0.09673 0.0
C242 C 0.34785 0.02446 0.97578 0.0
C243 C 0.34351 0.02172 0.06227 0.0
C244 C 0.32584 0.029 0.92492 0.0
C245 C 0.30062 0.0315 0.95953 0.0
U246 U 0.23944 0.01313 0.19728 0.0
O247 O 0.19622 0.01452 0.18405 0.0
O248 O 0.2159 0.04022 0.27298 0.0
C249 C 0.19339 0.03159 0.24468 0.0
C250 C 0.26991 0.0341 0.08202 0.0
C251 C 0.17219 0.02684 0.30769 0.0
C252 C 0.12545 0.02656 0.34236 0.0
C253 C 0.14579 0.02787 0.28318 0.0
C254 C 0.15735 0.02252 0.45228 0.0
C255 C 0.13088 0.02455 0.4282 0.0
C256 C 0.17767 0.02371 0.3931 0.0
C257 C 0.28523 0.95911 0.26082 0.0
C258 C 0.32448 0.94295 0.32731 0.0
C259 C 0.32331 0.94762 0.17721 0.0
C260 C 0.29753 0.9567 0.18274 0.0
C261 C 0.3374 0.9414 0.24983 0.0
C262 C 0.2987 0.95154 0.33258 0.0
C263 C 0.25976 0.97216 0.27008 0.0
O264 O 0.25153 0.01693 0.06505 0.0
O265 O 0.26902 0.04215 0.15973 0.0
O266 O 0.26111 0.99579 0.30169 0.0
O267 O 0.24364 0.97043 0.20654 0.0
H268 H 0.31596 0.0219 0.16349 0.0
H269 H 0.3596 0.01791 0.104 0.0
H270 H 0.32816 0.03137 0.85828 0.0
H271 H 0.28431 0.03567 0.91864 0.0
H272 H 0.10543 0.02802 0.321 0.0
H273 H 0.14084 0.03043 0.21808 0.0
H274 H 0.16244 0.0201 0.51728 0.0
H275 H 0.1977 0.0227 0.41457 0.0
H276 H 0.3347 0.93882 0.3849 0.0
H277 H 0.33233 0.94613 0.1164 0.0
H278 H 0.28754 0.96263 0.12631 0.0
H279 H 0.28967 0.95349 0.39338 0.0
C280 C 0.49854 0.30533 0.05311 0.0
C281 C 0.50524 0.3278 0.09911 0.0
C282 C 0.50426 0.35528 0.97296 0.0
C283 C 0.50809 0.35233 0.05966 0.0
C284 C 0.49788 0.33267 0.92717 0.0
C285 C 0.49511 0.30819 0.96652 0.0
U286 U 0.51177 0.24303 0.19347 0.0
O287 O 0.5017 0.20129 0.17366 0.0
O288 O 0.48333 0.22319 0.27489 0.0
C289 C 0.48681 0.20016 0.24052 0.0
C290 C 0.49227 0.27953 0.09379 0.0
C291 C 0.49088 0.17771 0.29916 0.0
C292 C 0.48127 0.13242 0.33891 0.0
C293 C 0.47991 0.15315 0.28116 0.0
C294 C 0.50509 0.16016 0.43379 0.0
C295 C 0.49365 0.13565 0.41666 0.0
C296 C 0.5038 0.18084 0.37591 0.0
C297 C 0.57574 0.27462 0.25306 0.0
C298 C 0.60973 0.29894 0.32373 0.0
C299 C 0.57878 0.32145 0.23472 0.0
C300 C 0.56724 0.29764 0.21442 0.0
C301 C 0.59924 0.3225 0.29323 0.0
C302 C 0.59786 0.27513 0.3043 0.0
C303 C 0.55839 0.25193 0.25501 0.0
O304 O 0.50463 0.25867 0.06658 0.0
O305 O 0.4887 0.27909 0.17496 0.0
O306 O 0.53659 0.25627 0.29598 0.0
O307 O 0.55471 0.23972 0.18399 0.0
H308 H 0.50783 0.32659 0.16595 0.0
H309 H 0.51312 0.3691 0.09743 0.0
H310 H 0.49404 0.33397 0.86099 0.0
H311 H 0.48947 0.2915 0.92921 0.0
H312 H 0.47179 0.11413 0.32368 0.0
H313 H 0.46961 0.15016 0.22301 0.0
H314 H 0.51492 0.16345 0.49257 0.0
H315 H 0.51248 0.19946 0.39199 0.0
H316 H 0.62558 0.29915 0.36843 0.0
H317 H 0.56975 0.33911 0.21124 0.0
H318 H 0.55006 0.29751 0.17501 0.0
H319 H 0.6046 0.25746 0.33471 0.0
Tb320 Tb 0.01976 1.0027 0.81308 0.0
Tb321 Tb 0.98789 0.01913 0.67869 0.0
C322 C 0.0392 0.98328 0.94296 0.0
C323 C 0.05746 0.96283 0.9682 0.0
C324 C 0.05794 0.95525 0.05182 0.0
C325 C 0.07403 0.93485 0.07747 0.0
C326 C 0.09013 0.92182 0.01987 0.0
C327 C 0.0903 0.93017 0.9363 0.0
C328 C 0.074 0.95057 0.91053 0.0
C329 C 0.04816 0.02122 0.6851 0.0
C330 C 1.00597 0.96053 0.67283 0.0
C331 C 0.97088 0.04106 0.5493 0.0
C332 C 0.98607 0.05324 0.4822 0.0
C333 C 0.0117 0.06151 0.49825 0.0
C334 C 0.02607 0.07431 0.43699 0.0
C335 C 0.01536 0.07861 0.35746 0.0
C336 C 0.99014 0.06897 0.34015 0.0
C337 C 0.97555 0.05642 0.40231 0.0
C338 C 0.95939 1.00168 0.80802 0.0
C339 C 1.00601 0.06124 0.8101 0.0
O340 O 0.01706 0.97549 0.91061 0.0
O341 O 0.04933 1.00301 0.90277 0.0
O342 O 0.02797 1.00718 0.68119 0.0
O343 O 0.05362 0.02408 0.76306 0.0
O344 O 0.01325 0.96412 0.75141 0.0
O345 O 0.99819 0.9808 0.62853 0.0
O346 O 0.97379 0.01591 0.55614 0.0
O347 O 0.97244 0.05262 0.6215 0.0
O348 O 0.97979 0.01541 0.81046 0.0
O349 O 0.95356 0.99875 0.73034 0.0
O350 O 1.00273 0.05676 0.72946 0.0
O351 O 1.00836 0.041 0.86019 0.0
H352 H 0.04523 0.96458 0.09692 0.0
H353 H 0.0727 0.92836 0.14158 0.0
H354 H 0.10234 0.92033 0.89052 0.0
H355 H 0.07384 0.95636 0.84557 0.0
H356 H 0.02032 0.05887 0.5593 0.0
H357 H 0.045 0.0821 0.45394 0.0
H358 H 0.98137 0.07192 0.27947 0.0
H359 H 0.95594 0.0497 0.38856 0.0
Tb360 Tb 0.51304 0.02982 0.81487 0.0
Tb361 Tb 0.49487 0.99478 0.69523 0.0
C362 C 0.53471 0.05193 0.93644 0.0
C363 C 0.55682 0.06824 0.96086 0.0
C364 C 0.56408 0.06833 0.04475 0.0
C365 C 0.58537 0.08305 0.07104 0.0
C366 C 0.59967 0.09821 0.01388 0.0
C367 C 0.59192 0.09858 0.92974 0.0
C368 C 0.57056 0.08365 0.9033 0.0
C369 C 0.49454 0.05517 0.68115 0.0
C370 C 0.55309 1.01118 0.67309 0.0
C371 C 0.47117 0.96914 0.58497 0.0
C372 C 0.46746 0.96378 0.49556 0.0
C373 C 0.45593 0.9825 0.44332 0.0
C374 C 0.44319 0.97469 0.37069 0.0
C375 C 0.4419 0.94805 0.34894 0.0
C376 C 0.45696 0.93007 0.39448 0.0
C377 C 0.46947 0.93786 0.46773 0.0
C378 C 0.51257 0.9704 0.83198 0.0
C379 C 0.45384 0.01689 0.82739 0.0
O380 O 0.53993 0.02798 0.91346 0.0
O381 O 0.5169 0.0629 0.89003 0.0
O382 O 0.508 0.03443 0.68082 0.0
O383 O 0.49179 0.06227 0.75782 0.0
O384 O 0.55063 0.0199 0.75071 0.0
O385 O 0.53182 1.0038 0.63279 0.0
O386 O 0.49251 0.96096 0.62095 0.0
O387 O 0.46317 0.99161 0.61403 0.0
O388 O 0.49868 0.99075 0.82927 0.0
O389 O 0.51686 0.96336 0.75621 0.0
O390 O 0.45717 1.00723 0.75172 0.0
O391 O 0.47462 0.02352 0.87075 0.0
H392 H 0.55361 0.0565 0.08981 0.0
H393 H 0.59136 0.0815 0.13556 0.0
H394 H 0.60279 0.10986 0.88427 0.0
H395 H 0.56506 0.08379 0.83814 0.0
H396 H 0.4543 1.0027 0.46267 0.0
H397 H 0.43171 0.98917 0.33781 0.0
H398 H 0.45668 0.90951 0.37858 0.0
H399 H 0.47842 0.92307 0.50678 0.0
Tb400 Tb 0.4895 0.51954 0.8154 0.0
Tb401 Tb 0.52398 0.50466 0.68649 0.0
C402 C 0.46681 0.5389 0.93998 0.0
C403 C 0.45154 0.56208 0.96259 0.0
C404 C 0.45928 0.58713 0.9373 0.0
C405 C 0.44606 0.60904 0.96692 0.0
C406 C 0.4246 0.60628 0.02127 0.0
C407 C 0.41621 0.5811 0.04345 0.0
C408 C 0.42962 0.55916 0.01433 0.0
C409 C 0.46405 0.50322 0.6798 0.0
C410 C 0.50749 0.56355 0.68427 0.0
C411 C 0.54648 0.48548 0.56115 0.0
C412 C 0.56093 0.46206 0.53514 0.0
C413 C 0.55061 0.43698 0.54751 0.0
C414 C 0.56328 0.41527 0.51429 0.0
C415 C 0.58644 0.41822 0.46792 0.0
C416 C 0.59733 0.44322 0.45853 0.0
C417 C 0.5846 0.465 0.4918 0.0
C418 C 0.54932 0.52067 0.82313 0.0
C419 C 0.50573 0.46058 0.81646 0.0
O420 O 0.49162 0.54242 0.92315 0.0
O421 O 0.45565 0.52265 0.8886 0.0
O422 O 0.48412 0.51763 0.68176 0.0
O423 O 0.45776 0.49781 0.75582 0.0
O424 O 0.49805 0.55885 0.76004 0.0
O425 O 0.51611 0.54382 0.63933 0.0
O426 O 0.52152 0.48273 0.57696 0.0
O427 O 0.55808 0.50075 0.61461 0.0
O428 O 0.52924 0.50632 0.82016 0.0
O429 O 0.55568 0.52631 0.74725 0.0
O430 O 0.51518 0.46547 0.7409 0.0
O431 O 0.49733 0.48021 0.86248 0.0
H432 H 0.47613 0.58986 0.89729 0.0
H433 H 0.45355 0.62816 0.95065 0.0
H434 H 0.39983 0.57842 0.08544 0.0
H435 H 0.42336 0.53991 0.03425 0.0
H436 H 0.53232 0.4342 0.58029 0.0
H437 H 0.55431 0.39624 0.52178 0.0
H438 H 0.61532 0.44597 0.424 0.0
H439 H 0.59286 0.48424 0.48166 0.0
Tb440 Tb 1.00108 0.49405 0.81358 0.0
Tb441 Tb 0.01581 0.5258 0.6773 0.0
C442 C 0.9823 0.47456 0.94448 0.0
C443 C 0.96059 0.45805 0.97159 0.0
C444 C 0.95177 0.46036 0.0537 0.0
C445 C 0.9302 0.44609 0.08062 0.0
C446 C 0.91711 0.42918 0.02576 0.0
C447 C 0.92677 0.42596 0.94435 0.0
C448 C 0.94833 0.44047 0.91718 0.0
C449 C 0.01702 0.46581 0.68279 0.0
C450 C 0.95691 0.50901 0.67916 0.0
C451 C 0.03398 0.5461 0.5466 0.0
C452 C 0.05742 0.55851 0.51175 0.0
C453 C 0.08221 0.54723 0.52149 0.0
C454 C 0.10349 0.55717 0.47741 0.0
C455 C 0.1003 0.57852 0.42327 0.0
C456 C 0.07583 0.59066 0.41691 0.0
C457 C 0.05448 0.58064 0.46084 0.0
C458 C 0.99909 0.55356 0.80821 0.0
C459 C 0.06 0.51042 0.8095 0.0
O460 O 0.97611 0.49778 0.91667 0.0
O461 O 1.00026 0.46328 0.89931 0.0
O462 O 1.00281 0.48599 0.68137 0.0
O463 O 0.0221 0.46072 0.7599 0.0
O464 O 0.96164 0.50105 0.75665 0.0
O465 O 0.97657 0.517 0.63246 0.0
O466 O 0.03541 0.52117 0.56402 0.0
O467 O 0.02108 0.5592 0.60286 0.0
O468 O 0.01393 0.53384 0.80965 0.0
O469 O 0.9933 0.55811 0.73117 0.0
O470 O 0.05513 0.51745 0.73134 0.0
O471 O 0.04024 0.50395 0.85824 0.0
H472 H 0.96115 0.47379 0.09644 0.0
H473 H 0.92301 0.44927 0.14329 0.0
H474 H 0.91721 0.41284 0.90115 0.0
H475 H 0.95507 0.43837 0.85353 0.0
H476 H 0.08495 0.53016 0.5604 0.0
H477 H 0.12232 0.54766 0.48349 0.0
H478 H 0.07297 0.60703 0.37506 0.0
H479 H 0.03542 0.5895 0.45239 0.0
C480 C 0.08611 1.01016 0.4812 0.0
C481 C 0.10917 0.02497 0.49227 0.0
C482 C 0.06612 1.00957 0.54223 0.0
C483 C 0.06827 0.02375 0.61724 0.0
H484 H 0.08372 0.99837 0.42576 0.0
H485 H 0.04916 0.9974 0.53133 0.0
S486 S 0.12267 0.06849 0.67237 0.0
N487 N 0.13133 0.05634 0.5812 0.0
N488 N 0.0943 0.05486 0.69534 0.0
C489 C 0.09065 0.03943 0.62752 0.0
C490 C 0.11091 0.04011 0.56548 0.0
C491 C 0.48695 0.12014 0.56491 0.0
C492 C 0.4935 0.11424 0.48168 0.0
C493 C 0.48671 0.10083 0.62758 0.0
C494 C 0.49332 0.07459 0.6108 0.0
H495 H 0.48173 0.13993 0.58194 0.0
H496 H 0.48163 0.10673 0.69032 0.0
S497 S 0.51167 0.04836 0.40336 0.0
N498 N 0.50652 0.07977 0.38603 0.0
N499 N 0.50613 0.04367 0.50367 0.0
C500 C 0.49964 0.06825 0.52778 0.0
C501 C 0.49969 0.08794 0.46351 0.0
C502 C 0.40178 0.48657 0.55855 0.0
C503 C 0.40464 0.49968 0.48168 0.0
C504 C 0.42121 0.48758 0.62071 0.0
C505 C 0.44467 0.50163 0.60945 0.0
H506 H 0.38408 0.47569 0.57159 0.0
H507 H 0.41763 0.47734 0.67871 0.0
S508 S 0.46287 0.53835 0.41835 0.0
N509 N 0.4336 0.52648 0.39707 0.0
N510 N 0.46994 0.52838 0.51363 0.0
C511 C 0.44808 0.51453 0.53251 0.0
C512 C 0.42815 0.51362 0.46907 0.0
C513 C 1.00133 0.42659 0.48456 0.0
C514 C 0.01664 0.40372 0.49309 0.0
C515 C 1.00202 0.44689 0.54436 0.0
C516 C 0.01804 0.44531 0.61568 0.0
H517 H 0.98813 0.42857 0.43224 0.0
H518 H 0.9894 0.46365 0.53557 0.0
S519 S 0.06414 0.39131 0.66367 0.0
N520 N 0.05002 0.38214 0.576 0.0
N521 N 0.05097 0.41975 0.68792 0.0
C522 C 0.03404 0.42303 0.62356 0.0
C523 C 0.03341 0.40243 0.56272 0.0
C524 C 0.89594 0.98521 0.9242 0.0
C525 C 0.89906 0.99681 1.0033 0.0
C526 C 0.91559 0.98663 0.8626 0.0
C527 C 0.93953 0.99952 0.87697 0.0
H528 H 0.87788 0.97526 0.90903 0.0
H529 H 0.91186 0.97764 0.80273 0.0
S530 S 0.95854 0.03188 0.07497 0.0
N531 N 0.92873 0.02084 0.09328 0.0
N532 N 0.96552 0.02336 0.97826 0.0
C533 C 0.94319 1.01079 0.95629 0.0
C534 C 0.92305 1.00953 0.01895 0.0
C535 C 0.5258 0.90763 0.95505 0.0
C536 C 0.51573 0.91262 0.03535 0.0
C537 C 0.52499 0.92651 0.89115 0.0
C538 C 0.51407 0.9515 0.90377 0.0
H539 H 0.53416 0.88871 0.9408 0.0
H540 H 0.53284 0.92129 0.83074 0.0
S541 S 0.48641 0.97553 0.10338 0.0
N542 N 0.49541 0.94523 0.12448 0.0
N543 N 0.49375 0.98052 1.00439 0.0
C544 C 0.5042 0.95701 0.98391 0.0
C545 C 0.50499 0.93767 0.04934 0.0
C546 C 0.6129 0.53257 0.94377 0.0
C547 C 0.60879 0.52034 0.0215 0.0
C548 C 0.5934 0.53309 0.88165 0.0
C549 C 0.56877 0.52122 0.89352 0.0
H550 H 0.6314 0.54202 0.93074 0.0
H551 H 0.59786 0.54267 0.82315 0.0
S552 S 0.54784 0.4861 0.08487 0.0
N553 N 0.57791 0.49578 0.10614 0.0
N554 N 0.54145 0.49679 0.9899 0.0
C555 C 0.56425 0.50907 0.97111 0.0
C556 C 0.58412 0.50864 0.03473 0.0
C557 C 1.01052 0.59109 0.01298 0.0
C558 C 0.99738 0.61503 0.99997 0.0
C559 C 1.01066 0.57112 0.9519 0.0
C560 C 0.99743 0.57406 0.87529 0.0
H561 H 0.02131 0.58797 0.07015 0.0
H562 H 0.02155 0.5534 0.96439 0.0
S563 S 0.95776 0.63174 0.81356 0.0
N564 N 0.96925 0.6395 0.90635 0.0
N565 N 0.96939 0.60237 0.79287 0.0
C566 C 0.98353 0.59754 0.86285 0.0
C567 C 0.98354 0.61786 0.92457 0.0
C568 C 0.02654 0.13944 0.23076 0.0
C569 C 0.0539 0.14192 0.23307 0.0
C570 C 0.01414 0.11738 0.26352 0.0
C571 C 0.02869 0.09692 0.29934 0.0
H572 H 0.0145 0.15573 0.21116 0.0
H573 H 0.99301 0.11763 0.26786 0.0
S574 S 0.10103 0.09121 0.29968 0.0
N575 N 0.09531 0.12044 0.25994 0.0
N576 N 0.07206 0.0782 0.3185 0.0
C577 C 0.05615 0.09777 0.29205 0.0
C578 C 0.06876 0.1205 0.25987 0.0
C579 C 0.37656 0.91831 0.30679 0.0
C580 C 0.36609 0.93609 0.24872 0.0
C581 C 0.40274 0.91981 0.33131 0.0
C582 C 0.41954 0.93887 0.29752 0.0
H583 H 0.36385 0.90487 0.33973 0.0
H584 H 0.40883 0.90793 0.38367 0.0
S585 S 0.40471 0.98258 0.12003 0.0
N586 N 0.37651 0.9684 0.14192 0.0
N587 N 0.42607 0.97022 0.18612 0.0
C588 C 0.4106 0.95329 0.22882 0.0
C589 C 0.38376 0.95213 0.20462 0.0
C590 C 0.60334 0.34802 0.42424 0.0
C591 C 0.60468 0.34751 0.33659 0.0
C592 C 0.59981 0.37147 0.46722 0.0
C593 C 0.59747 0.39527 0.42427 0.0
H594 H 0.6026 0.33003 0.45976 0.0
H595 H 0.59704 0.37075 0.53413 0.0
S596 S 0.60499 0.40514 0.19644 0.0
N597 N 0.60794 0.37327 0.20966 0.0
N598 N 0.6004 0.41744 0.29038 0.0
C599 C 0.60154 0.39541 0.33757 0.0
C600 C 0.60534 0.37148 0.29375 0.0
C601 C 0.1563 0.57257 0.27248 0.0
C602 C 0.16849 0.59719 0.27727 0.0
C603 C 0.13358 0.56721 0.31734 0.0
C604 C 0.12207 0.58624 0.36832 0.0
H605 H 0.16534 0.55665 0.23866 0.0
H606 H 0.12551 0.54764 0.31475 0.0
S607 S 0.14391 0.65477 0.39337 0.0
N608 N 0.1657 0.64165 0.32991 0.0
N609 N 0.12267 0.63137 0.41488 0.0
C610 C 0.13276 0.61149 0.36904 0.0
C611 C 0.1561 0.61699 0.32344 0.0
C612 C 0.10194 0.84959 0.03024 0.0
C613 C 0.11065 0.84633 0.11271 0.0
C614 C 0.09802 0.8745 0.99686 0.0
C615 C 0.10278 0.89697 0.04474 0.0
H616 H 0.09555 0.83292 0.99406 0.0
H617 H 0.08876 0.87599 0.93636 0.0
S618 S 0.13262 0.89877 0.25511 0.0
N619 N 0.12876 0.86734 0.23532 0.0
N620 N 0.1219 0.91441 0.17176 0.0
C621 C 0.11473 0.89394 0.12307 0.0
C622 C 0.11852 0.86853 0.15734 0.0
C623 C 0.6723 0.10661 0.03061 0.0
C624 C 0.67515 0.1154 0.11312 0.0
C625 C 0.64756 0.10377 0.99493 0.0
C626 C 0.62487 0.10975 0.04051 0.0
H627 H 0.68901 0.09932 0.99626 0.0
H628 H 0.64621 0.09441 0.9346 0.0
S629 S 0.62241 0.14024 0.24985 0.0
N630 N 0.65382 0.1348 0.23323 0.0
N631 N 0.60711 0.1301 0.16527 0.0
C632 C 0.6277 0.1218 0.11875 0.0
C633 C 0.65292 0.12445 0.15539 0.0
C634 C 0.40945 0.65357 0.19416 0.0
C635 C 0.40878 0.6776 0.15154 0.0
C636 C 0.41205 0.62999 0.15086 0.0
C637 C 0.41378 0.62965 0.0634 0.0
H638 H 0.41016 0.65313 0.2616 0.0
H639 H 0.41501 0.61227 0.18657 0.0
S640 S 0.4066 0.68637 0.92173 0.0
N641 N 0.40588 0.69907 0.01617 0.0
N642 N 0.40937 0.65453 0.93531 0.0
C643 C 0.40969 0.6531 0.01989 0.0
C644 C 0.40744 0.67716 0.06383 0.0
C645 C 0.86389 0.40416 0.16744 0.0
C646 C 0.84123 0.41111 0.12326 0.0
C647 C 0.8887 0.40748 0.13199 0.0
C648 C 0.89162 0.41809 0.05155 0.0
H649 H 0.8625 0.39793 0.23183 0.0
H650 H 0.90574 0.40354 0.17 0.0
S651 S 0.83821 0.43676 0.90712 0.0
N652 N 0.82313 0.42661 0.9921 0.0
N653 N 0.8697 0.43316 0.92602 0.0
C654 C 0.86904 0.42284 1.0041 0.0
C655 C 0.84381 0.4193 0.03994 0.0
C656 C 1.00967 0.11714 0.96981 0.0
C657 C 1.00383 0.13987 0.92357 0.0
C658 C 1.01063 0.0922 0.93237 0.0
C659 C 1.00581 0.08849 0.84646 0.0
H660 H 0.0137 0.1186 0.03588 0.0
H661 H 0.01512 0.07562 0.97178 0.0
S662 S 0.9887 0.14124 0.69696 0.0
N663 N 0.99241 0.15665 0.78651 0.0
N664 N 0.99459 0.11012 0.71649 0.0
C665 C 1.00003 0.11103 0.79925 0.0
C666 C 0.99899 0.13651 0.8375 0.0
C667 C 0.37973 1.00916 0.86373 0.0
C668 C 0.37507 0.02285 0.93872 0.0
C669 C 0.40499 1.00741 0.8281 0.0
C670 C 0.42696 0.01917 0.86574 0.0
H671 H 0.36373 0.99938 0.83254 0.0
H672 H 0.40729 0.9965 0.77081 0.0
S673 S 0.42546 0.05878 0.05987 0.0
N674 N 0.3948 0.04968 0.04654 0.0
N675 N 0.44191 0.04581 0.98172 0.0
C676 C 0.42254 0.03311 0.94037 0.0
C677 C 0.39682 0.03509 0.97616 0.0
C678 C 0.49389 0.40386 0.9698 0.0
C679 C 0.50554 0.38195 0.93156 0.0
C680 C 0.49403 0.42879 0.93199 0.0
C681 C 0.50587 0.43336 0.85367 0.0
H682 H 0.48409 0.4017 0.02924 0.0
H683 H 0.48457 0.44466 0.96484 0.0
S684 S 0.54086 0.3832 0.7289 0.0
N685 N 0.53052 0.36703 0.81172 0.0
N686 N 0.5306 0.41355 0.74095 0.0
C687 C 0.51792 0.41171 0.81505 0.0
C688 C 0.51778 0.38623 0.85368 0.0
C689 C 0.11648 0.50358 0.96685 0.0
C690 C 0.13902 0.51119 0.92232 0.0
C691 C 0.09143 0.50342 0.9298 0.0
C692 C 0.08734 0.51099 0.84602 0.0
H693 H 0.11822 0.49713 0.03089 0.0
H694 H 0.07509 0.4971 0.96772 0.0
S695 S 0.13941 0.53437 0.70253 0.0
N696 N 0.15517 0.52775 0.78982 0.0
N697 N 0.10841 0.52733 0.72065 0.0
C698 C 0.10964 0.51905 0.80095 0.0
C699 C 0.13526 0.51915 0.83874 0.0
C700 C 1.00785 0.88584 0.63576 0.0
C701 C 1.00896 0.88352 0.54793 0.0
C702 C 1.00746 0.91052 0.67608 0.0
C703 C 1.00802 0.93415 0.6306 0.0
H704 H 1.0066 0.86841 0.67383 0.0
H705 H 1.00605 0.91106 0.74338 0.0
S706 S 0.01476 0.93922 0.40023 0.0
N707 N 0.01346 0.90749 0.41802 0.0
N708 N 0.01221 0.95325 0.49236 0.0
C709 C 1.01011 0.93205 0.543 0.0
C710 C 1.01069 0.90703 0.50223 0.0
C711 C 0.62746 0.01502 0.62995 0.0
C712 C 0.62957 1.01035 0.54336 0.0
C713 C 0.60293 0.01553 0.67129 0.0
C714 C 0.5792 0.01137 0.62824 0.0
H715 H 0.645 0.01774 0.66667 0.0
H716 H 0.60263 0.01883 0.73791 0.0
S717 S 0.57346 1.00117 0.39933 0.0
N718 N 0.60521 1.00372 0.41533 0.0
N719 N 0.55973 1.00411 0.49188 0.0
C720 C 0.58106 1.0074 0.54122 0.0
C721 C 0.60595 1.00703 0.4993 0.0
C722 C 0.50201 0.63863 0.65652 0.0
C723 C 0.50788 0.64261 0.57127 0.0
C724 C 0.50162 0.61328 0.69274 0.0
C725 C 0.50707 0.59062 0.6455 0.0
H726 H 0.49826 0.65531 0.69619 0.0
H727 H 0.49739 0.6115 0.75861 0.0
S728 S 0.52064 0.58998 0.41733 0.0
N729 N 0.51698 0.62121 0.43961 0.0
N730 N 0.51677 0.5743 0.50632 0.0
C731 C 0.51218 0.59441 0.55959 0.0
C732 C 0.51246 0.62008 0.52302 0.0
C733 C 0.88172 0.50824 0.65019 0.0
C734 C 0.87852 0.50769 0.56257 0.0
C735 C 0.90684 0.50804 0.68803 0.0
C736 C 0.93 0.50739 0.64008 0.0
H737 H 0.86468 0.50953 0.69001 0.0
H738 H 0.9081 0.50909 0.75528 0.0
S739 S 0.9326 0.50177 0.40896 0.0
N740 N 0.90108 0.5035 0.43011 0.0
N741 N 0.9476 0.50359 0.4997 0.0
C742 C 0.92695 0.50577 0.55264 0.0
C743 C 0.90152 0.50581 0.51446 0.0
loop_
_geom_bond_atom_site_label_1
_geom_bond_atom_site_label_2
_geom_bond_distance
_geom_bond_site_symmetry_2
_ccdc_geom_bond_type
C0 C1 1.264 . S
C0 C5 1.479 . S
C0 C10 1.465 . S
C1 C0 1.264 . S
C1 C3 1.339 . S
C1 H28 0.931 . S
C2 C3 1.395 . S
C2 C4 1.320 . S
C3 C1 1.339 . S
C3 C2 1.395 . S
C3 H29 0.929 . S
C4 C2 1.320 . S
C4 C5 1.405 . S
C4 H30 0.930 . S
C5 C0 1.479 . S
C5 C4 1.405 . S
C5 H31 0.931 . S
U6 O7 2.454 . S
U6 O8 2.458 . S
U6 C9 2.984 . S
U6 C10 2.847 . S
U6 C23 2.882 . S
U6 O24 2.441 . S
U6 O25 2.420 . S
U6 O26 2.455 . S
U6 O27 2.449 . S
O7 U6 2.454 . S
O7 C9 1.353 . S
O8 U6 2.458 . S
O8 C9 1.286 . S
C9 U6 2.984 . S
C9 O7 1.353 . S
C9 O8 1.286 . S
C9 C11 1.363 . S
C10 C0 1.465 . S
C10 U6 2.847 . S
C10 O24 1.249 . S
C10 O25 1.202 . S
C11 C9 1.363 . S
C11 C13 1.408 . S
C11 C16 1.342 . S
C12 C13 1.310 . S
C12 C15 1.461 . S
C12 H32 0.932 . S
C13 C11 1.408 . S
C13 C12 1.310 . S
C13 H33 0.930 . S
C14 C15 1.474 . S
C14 C16 1.285 . S
C14 H34 0.929 . S
C15 C12 1.461 . S
C15 C14 1.474 . S
C16 C11 1.342 . S
C16 C14 1.285 . S
C16 H35 0.930 . S
C17 C20 1.424 . S
C17 C22 1.245 . S
C17 C23 1.428 . S
C18 C21 1.260 . S
C18 C22 1.477 . S
C18 H36 0.932 . S
C19 C20 1.384 . S
C19 C21 1.479 . S
C19 H37 0.929 . S
C20 C17 1.424 . S
C20 C19 1.384 . S
C20 H38 0.928 . S
C21 C18 1.260 . S
C21 C19 1.479 . S
C22 C17 1.245 . S
C22 C18 1.477 . S
C22 H39 0.932 . S
C23 U6 2.882 . S
C23 C17 1.428 . S
C23 O26 1.301 . S
C23 O27 1.282 . S
O24 U6 2.441 . S
O24 C10 1.249 . S
O25 U6 2.420 . S
O25 C10 1.202 . S
O26 U6 2.455 . S
O26 C23 1.301 . S
O27 U6 2.449 . S
O27 C23 1.282 . S
H28 C1 0.931 . S
H29 C3 0.929 . S
H30 C4 0.930 . S
H31 C5 0.931 . S
H32 C12 0.932 . S
H33 C13 0.930 . S
H34 C14 0.929 . S
H35 C16 0.930 . S
H36 C18 0.932 . S
H37 C19 0.929 . S
H38 C20 0.928 . S
H39 C22 0.932 . S
C40 C41 1.264 . S
C40 C45 1.479 . S
C40 C50 1.465 . S
C41 C40 1.264 . S
C41 C43 1.339 . S
C41 H68 0.931 . S
C42 C43 1.395 . S
C42 C44 1.320 . S
C43 C41 1.339 . S
C43 C42 1.395 . S
C43 H69 0.929 . S
C44 C42 1.320 . S
C44 C45 1.405 . S
C44 H70 0.921 1_455 S
C45 C40 1.479 . S
C45 C44 1.405 . S
C45 H71 0.931 . S
U46 O47 2.454 . S
U46 O48 2.458 . S
U46 C49 2.984 . S
U46 C50 2.847 . S
U46 C63 2.882 . S
U46 O64 2.441 . S
U46 O65 2.420 . S
U46 O66 2.455 . S
U46 O67 2.449 . S
O47 U46 2.454 . S
O47 C49 1.353 . S
O48 U46 2.458 . S
O48 C49 1.286 . S
C49 U46 2.984 . S
C49 O47 1.353 . S
C49 O48 1.286 . S
C49 C51 1.363 . S
C50 C40 1.465 . S
C50 U46 2.847 . S
C50 O64 1.249 . S
C50 O65 1.202 . S
C51 C49 1.363 . S
C51 C53 1.408 . S
C51 C56 1.342 . S
C52 C53 1.310 . S
C52 C55 1.461 . S
C52 H72 0.932 . S
C53 C51 1.408 . S
C53 C52 1.310 . S
C53 H73 0.930 . S
C54 C55 1.474 1_655 S
C54 C56 1.285 1_655 S
C54 H74 0.930 . S
C55 C52 1.461 . S
C55 C54 1.474 1_455 S
C56 C51 1.342 . S
C56 C54 1.285 1_455 S
C56 H75 0.933 . S
C57 C60 1.424 . S
C57 C62 1.245 . S
C57 C63 1.428 . S
C58 C61 1.260 . S
C58 C62 1.477 . S
C58 H76 0.932 . S
C59 C60 1.384 . S
C59 C61 1.479 . S
C59 H77 0.929 . S
C60 C57 1.424 . S
C60 C59 1.384 . S
C60 H78 0.928 . S
C61 C58 1.260 . S
C61 C59 1.479 . S
C62 C57 1.245 . S
C62 C58 1.477 . S
C62 H79 0.932 . S
C63 U46 2.882 . S
C63 C57 1.428 . S
C63 O66 1.301 . S
C63 O67 1.282 . S
O64 U46 2.441 . S
O64 C50 1.249 . S
O65 U46 2.420 . S
O65 C50 1.202 . S
O66 U46 2.455 . S
O66 C63 1.301 . S
O67 U46 2.449 . S
O67 C63 1.282 . S
H68 C41 0.931 . S
H69 C43 0.929 . S
H70 C44 0.921 1_655 S
H71 C45 0.931 . S
H72 C52 0.932 . S
H73 C53 0.930 . S
H74 C54 0.930 . S
H75 C56 0.933 . S
H76 C58 0.932 . S
H77 C59 0.929 . S
H78 C60 0.928 . S
H79 C62 0.932 . S
C80 C81 1.264 . S
C80 C85 1.479 . S
C80 C90 1.465 . S
C81 C80 1.264 . S
C81 C83 1.339 . S
C81 H108 0.931 . S
C82 C83 1.395 . S
C82 C84 1.320 . S
C83 C81 1.339 . S
C83 C82 1.395 . S
C83 H109 0.929 . S
C84 C82 1.320 . S
C84 C85 1.405 . S
C84 H110 0.921 1_545 S
C85 C80 1.479 . S
C85 C84 1.405 . S
C85 H111 0.931 . S
U86 O87 2.454 . S
U86 O88 2.458 . S
U86 C89 2.984 . S
U86 C90 2.847 . S
U86 C103 2.882 . S
U86 O104 2.441 . S
U86 O105 2.420 . S
U86 O106 2.455 . S
U86 O107 2.449 . S
O87 U86 2.454 . S
O87 C89 1.353 . S
O88 U86 2.458 . S
O88 C89 1.286 . S
C89 U86 2.984 . S
C89 O87 1.353 . S
C89 O88 1.286 . S
C89 C91 1.363 . S
C90 C80 1.465 . S
C90 U86 2.847 . S
C90 O104 1.249 . S
C90 O105 1.202 . S
C91 C89 1.363 . S
C91 C93 1.408 . S
C91 C96 1.342 . S
C92 C93 1.310 . S
C92 C95 1.461 . S
C92 H112 0.932 . S
C93 C91 1.408 . S
C93 C92 1.310 . S
C93 H113 0.930 . S
C94 C95 1.474 1_565 S
C94 C96 1.285 1_565 S
C94 H114 0.931 . S
C95 C92 1.461 . S
C95 C94 1.474 1_545 S
C96 C91 1.342 . S
C96 C94 1.285 1_545 S
C96 H115 0.933 . S
C97 C100 1.424 . S
C97 C102 1.245 . S
C97 C103 1.428 . S
C98 C101 1.260 . S
C98 C102 1.477 . S
C98 H116 0.932 . S
C99 C100 1.384 . S
C99 C101 1.479 . S
C99 H117 0.929 . S
C100 C97 1.424 . S
C100 C99 1.384 . S
C100 H118 0.928 . S
C101 C98 1.260 . S
C101 C99 1.479 . S
C102 C97 1.245 . S
C102 C98 1.477 . S
C102 H119 0.932 . S
C103 U86 2.882 . S
C103 C97 1.428 . S
C103 O106 1.301 . S
C103 O107 1.282 . S
O104 U86 2.441 . S
O104 C90 1.249 . S
O105 U86 2.420 . S
O105 C90 1.202 . S
O106 U86 2.455 . S
O106 C103 1.301 . S
O107 U86 2.449 . S
O107 C103 1.282 . S
H108 C81 0.931 . S
H109 C83 0.929 . S
H110 C84 0.921 1_565 S
H111 C85 0.931 . S
H112 C92 0.932 . S
H113 C93 0.930 . S
H114 C94 0.931 . S
H115 C96 0.933 . S
H116 C98 0.932 . S
H117 C99 0.929 . S
H118 C100 0.928 . S
H119 C102 0.932 . S
C120 C121 1.264 . S
C120 C125 1.479 . S
C120 C130 1.465 . S
C121 C120 1.264 . S
C121 C123 1.339 . S
C121 H148 0.931 . S
C122 C123 1.395 . S
C122 C124 1.320 . S
C123 C121 1.339 . S
C123 C122 1.395 . S
C123 H149 0.929 . S
C124 C122 1.320 . S
C124 C125 1.405 . S
C124 H150 0.930 . S
C125 C120 1.479 . S
C125 C124 1.405 . S
C125 H151 0.931 . S
U126 O127 2.454 . S
U126 O128 2.458 . S
U126 C129 2.984 . S
U126 C130 2.847 . S
U126 C143 2.882 . S
U126 O144 2.441 . S
U126 O145 2.420 . S
U126 O146 2.455 . S
U126 O147 2.449 . S
O127 U126 2.454 . S
O127 C129 1.353 . S
O128 U126 2.458 . S
O128 C129 1.286 . S
C129 U126 2.984 . S
C129 O127 1.353 . S
C129 O128 1.286 . S
C129 C131 1.363 . S
C130 C120 1.465 . S
C130 U126 2.847 . S
C130 O144 1.249 . S
C130 O145 1.202 . S
C131 C129 1.363 . S
C131 C133 1.408 . S
C131 C136 1.342 . S
C132 C133 1.310 . S
C132 C135 1.461 . S
C132 H152 0.932 . S
C133 C131 1.408 . S
C133 C132 1.310 . S
C133 H153 0.930 . S
C134 C135 1.474 . S
C134 C136 1.285 . S
C134 H154 0.929 . S
C135 C132 1.461 . S
C135 C134 1.474 . S
C136 C131 1.342 . S
C136 C134 1.285 . S
C136 H155 0.930 . S
C137 C140 1.424 . S
C137 C142 1.245 . S
C137 C143 1.428 . S
C138 C141 1.260 . S
C138 C142 1.477 . S
C138 H156 0.932 . S
C139 C140 1.384 . S
C139 C141 1.479 . S
C139 H157 0.929 . S
C140 C137 1.424 . S
C140 C139 1.384 . S
C140 H158 0.928 . S
C141 C138 1.260 . S
C141 C139 1.479 . S
C142 C137 1.245 . S
C142 C138 1.477 . S
C142 H159 0.932 . S
C143 U126 2.882 . S
C143 C137 1.428 . S
C143 O146 1.301 . S
C143 O147 1.282 . S
O144 U126 2.441 . S
O144 C130 1.249 . S
O145 U126 2.420 . S
O145 C130 1.202 . S
O146 U126 2.455 . S
O146 C143 1.301 . S
O147 U126 2.449 . S
O147 C143 1.282 . S
H148 C121 0.931 . S
H149 C123 0.929 . S
H150 C124 0.930 . S
H151 C125 0.931 . S
H152 C132 0.932 . S
H153 C133 0.930 . S
H154 C134 0.929 . S
H155 C136 0.930 . S
H156 C138 0.932 . S
H157 C139 0.929 . S
H158 C140 0.928 . S
H159 C142 0.932 . S
C160 C161 1.264 . S
C160 C165 1.479 . S
C160 C170 1.465 . S
C161 C160 1.264 . S
C161 C163 1.339 . S
C161 H188 0.931 . S
C162 C163 1.395 . S
C162 C164 1.320 . S
C163 C161 1.339 . S
C163 C162 1.395 . S
C163 H189 0.929 . S
C164 C162 1.320 . S
C164 C165 1.405 . S
C164 H190 0.930 . S
C165 C160 1.479 . S
C165 C164 1.405 . S
C165 H191 0.931 . S
U166 O167 2.454 . S
U166 O168 2.458 . S
U166 C169 2.984 . S
U166 C170 2.847 1_554 S
U166 C183 2.882 . S
U166 O184 2.441 1_554 S
U166 O185 2.420 1_554 S
U166 O186 2.455 . S
U166 O187 2.449 . S
O167 U166 2.454 . S
O167 C169 1.353 . S
O168 U166 2.458 . S
O168 C169 1.286 . S
C169 U166 2.984 . S
C169 O167 1.353 . S
C169 O168 1.286 . S
C169 C171 1.363 . S
C170 C160 1.465 . S
C170 U166 2.847 1_556 S
C170 O184 1.249 . S
C170 O185 1.202 . S
C171 C169 1.363 . S
C171 C173 1.408 . S
C171 C176 1.342 . S
C172 C173 1.310 . S
C172 C175 1.461 . S
C172 H192 0.932 . S
C173 C171 1.408 . S
C173 C172 1.310 . S
C173 H193 0.930 1_554 S
C174 C175 1.474 . S
C174 C176 1.285 . S
C174 H194 0.929 . S
C175 C172 1.461 . S
C175 C174 1.474 . S
C176 C171 1.342 . S
C176 C174 1.285 . S
C176 H195 0.930 . S
C177 C180 1.424 . S
C177 C182 1.245 . S
C177 C183 1.428 . S
C178 C181 1.260 . S
C178 C182 1.477 . S
C178 H196 0.932 . S
C179 C180 1.384 . S
C179 C181 1.479 . S
C179 H197 0.929 . S
C180 C177 1.424 . S
C180 C179 1.384 . S
C180 H198 0.928 . S
C181 C178 1.260 . S
C181 C179 1.479 . S
C182 C177 1.245 . S
C182 C178 1.477 . S
C182 H199 0.932 . S
C183 U166 2.882 . S
C183 C177 1.428 . S
C183 O186 1.301 . S
C183 O187 1.282 . S
O184 U166 2.441 1_556 S
O184 C170 1.249 . S
O185 U166 2.420 1_556 S
O185 C170 1.202 . S
O186 U166 2.455 . S
O186 C183 1.301 . S
O187 U166 2.449 . S
O187 C183 1.282 . S
H188 C161 0.931 . S
H189 C163 0.929 . S
H190 C164 0.930 . S
H191 C165 0.931 . S
H192 C172 0.932 . S
H193 C173 0.930 1_556 S
H194 C174 0.929 . S
H195 C176 0.930 . S
H196 C178 0.932 . S
H197 C179 0.929 . S
H198 C180 0.928 . S
H199 C182 0.932 . S
C200 C201 1.264 . S
C200 C205 1.479 . S
C200 C210 1.465 . S
C201 C200 1.264 . S
C201 C203 1.339 . S
C201 H228 0.931 . S
C202 C203 1.395 . S
C202 C204 1.320 . S
C203 C201 1.339 . S
C203 C202 1.395 . S
C203 H229 0.929 . S
C204 C202 1.320 . S
C204 C205 1.405 . S
C204 H230 0.923 1_455 S
C205 C200 1.479 . S
C205 C204 1.405 . S
C205 H231 0.931 . S
U206 O207 2.454 . S
U206 O208 2.458 . S
U206 C209 2.984 . S
U206 C210 2.847 1_554 S
U206 C223 2.882 . S
U206 O224 2.441 1_554 S
U206 O225 2.420 1_554 S
U206 O226 2.455 . S
U206 O227 2.449 . S
O207 U206 2.454 . S
O207 C209 1.353 . S
O208 U206 2.458 . S
O208 C209 1.286 . S
C209 U206 2.984 . S
C209 O207 1.353 . S
C209 O208 1.286 . S
C209 C211 1.363 . S
C210 C200 1.465 . S
C210 U206 2.847 1_556 S
C210 O224 1.249 . S
C210 O225 1.202 . S
C211 C209 1.363 . S
C211 C213 1.408 . S
C211 C216 1.342 . S
C212 C213 1.310 . S
C212 C215 1.462 . S
C212 H232 0.932 . S
C213 C211 1.408 . S
C213 C212 1.310 . S
C213 H233 0.930 1_554 S
C214 C215 1.474 1_655 S
C214 C216 1.286 1_655 S
C214 H234 0.929 . S
C215 C212 1.462 . S
C215 C214 1.474 1_455 S
C216 C211 1.342 . S
C216 C214 1.286 1_455 S
C216 H235 0.930 . S
C217 C220 1.424 . S
C217 C222 1.245 . S
C217 C223 1.428 . S
C218 C221 1.260 . S
C218 C222 1.477 . S
C218 H236 0.932 . S
C219 C220 1.384 . S
C219 C221 1.479 . S
C219 H237 0.929 . S
C220 C217 1.424 . S
C220 C219 1.384 . S
C220 H238 0.928 . S
C221 C218 1.260 . S
C221 C219 1.479 . S
C222 C217 1.245 . S
C222 C218 1.477 . S
C222 H239 0.932 . S
C223 U206 2.882 . S
C223 C217 1.428 . S
C223 O226 1.301 . S
C223 O227 1.282 . S
O224 U206 2.441 1_556 S
O224 C210 1.249 . S
O225 U206 2.420 1_556 S
O225 C210 1.202 . S
O226 U206 2.455 . S
O226 C223 1.301 . S
O227 U206 2.449 . S
O227 C223 1.282 . S
H228 C201 0.931 . S
H229 C203 0.929 . S
H230 C204 0.923 1_655 S
H231 C205 0.931 . S
H232 C212 0.932 . S
H233 C213 0.930 1_556 S
H234 C214 0.929 . S
H235 C216 0.930 . S
H236 C218 0.932 . S
H237 C219 0.929 . S
H238 C220 0.928 . S
H239 C222 0.932 . S
C240 C241 1.264 . S
C240 C245 1.479 . S
C240 C250 1.465 . S
C241 C240 1.264 . S
C241 C243 1.339 . S
C241 H268 0.931 . S
C242 C243 1.395 . S
C242 C244 1.320 . S
C243 C241 1.339 . S
C243 C242 1.395 . S
C243 H269 0.929 . S
C244 C242 1.320 . S
C244 C245 1.405 . S
C244 H270 0.922 1_545 S
C245 C240 1.479 . S
C245 C244 1.405 . S
C245 H271 0.931 . S
U246 O247 2.454 . S
U246 O248 2.458 . S
U246 C249 2.984 . S
U246 C250 2.847 1_554 S
U246 C263 2.882 . S
U246 O264 2.441 1_554 S
U246 O265 2.420 1_554 S
U246 O266 2.455 . S
U246 O267 2.449 . S
O247 U246 2.454 . S
O247 C249 1.353 . S
O248 U246 2.458 . S
O248 C249 1.286 . S
C249 U246 2.984 . S
C249 O247 1.353 . S
C249 O248 1.286 . S
C249 C251 1.363 . S
C250 C240 1.465 . S
C250 U246 2.847 1_556 S
C250 O264 1.249 . S
C250 O265 1.202 . S
C251 C249 1.363 . S
C251 C253 1.408 . S
C251 C256 1.342 . S
C252 C253 1.310 . S
C252 C255 1.462 . S
C252 H272 0.932 . S
C253 C251 1.408 . S
C253 C252 1.310 . S
C253 H273 0.930 1_554 S
C254 C255 1.474 1_565 S
C254 C256 1.286 1_565 S
C254 H274 0.929 . S
C255 C252 1.462 . S
C255 C254 1.474 1_545 S
C256 C251 1.342 . S
C256 C254 1.286 1_545 S
C256 H275 0.930 . S
C257 C260 1.424 . S
C257 C262 1.245 . S
C257 C263 1.428 . S
C258 C261 1.260 . S
C258 C262 1.477 . S
C258 H276 0.932 . S
C259 C260 1.384 . S
C259 C261 1.479 . S
C259 H277 0.929 . S
C260 C257 1.424 . S
C260 C259 1.384 . S
C260 H278 0.928 . S
C261 C258 1.260 . S
C261 C259 1.479 . S
C262 C257 1.245 . S
C262 C258 1.477 . S
C262 H279 0.932 . S
C263 U246 2.882 . S
C263 C257 1.428 . S
C263 O266 1.301 . S
C263 O267 1.282 . S
O264 U246 2.441 1_556 S
O264 C250 1.249 . S
O265 U246 2.420 1_556 S
O265 C250 1.202 . S
O266 U246 2.455 . S
O266 C263 1.301 . S
O267 U246 2.449 . S
O267 C263 1.282 . S
H268 C241 0.931 . S
H269 C243 0.929 . S
H270 C244 0.922 1_565 S
H271 C245 0.931 . S
H272 C252 0.932 . S
H273 C253 0.930 1_556 S
H274 C254 0.929 . S
H275 C256 0.930 . S
H276 C258 0.932 . S
H277 C259 0.929 . S
H278 C260 0.928 . S
H279 C262 0.932 . S
C280 C281 1.264 . S
C280 C285 1.479 . S
C280 C290 1.465 . S
C281 C280 1.264 . S
C281 C283 1.339 . S
C281 H308 0.931 . S
C282 C283 1.395 . S
C282 C284 1.320 . S
C283 C281 1.339 . S
C283 C282 1.395 . S
C283 H309 0.929 . S
C284 C282 1.320 . S
C284 C285 1.405 . S
C284 H310 0.930 . S
C285 C280 1.479 . S
C285 C284 1.405 . S
C285 H311 0.931 . S
U286 O287 2.454 . S
U286 O288 2.458 . S
U286 C289 2.984 . S
U286 C290 2.847 1_554 S
U286 C303 2.882 . S
U286 O304 2.441 1_554 S
U286 O305 2.420 1_554 S
U286 O306 2.455 . S
U286 O307 2.449 . S
O287 U286 2.454 . S
O287 C289 1.353 . S
O288 U286 2.458 . S
O288 C289 1.286 . S
C289 U286 2.984 . S
C289 O287 1.353 . S
C289 O288 1.286 . S
C289 C291 1.363 . S
C290 C280 1.465 . S
C290 U286 2.847 1_556 S
C290 O304 1.249 . S
C290 O305 1.202 . S
C291 C289 1.363 . S
C291 C293 1.408 . S
C291 C296 1.342 . S
C292 C293 1.310 . S
C292 C295 1.461 . S
C292 H312 0.932 . S
C293 C291 1.408 . S
C293 C292 1.310 . S
C293 H313 0.930 1_554 S
C294 C295 1.474 . S
C294 C296 1.285 . S
C294 H314 0.929 . S
C295 C292 1.461 . S
C295 C294 1.474 . S
C296 C291 1.342 . S
C296 C294 1.285 . S
C296 H315 0.930 . S
C297 C300 1.424 . S
C297 C302 1.245 . S
C297 C303 1.428 . S
C298 C301 1.260 . S
C298 C302 1.477 . S
C298 H316 0.932 . S
C299 C300 1.384 . S
C299 C301 1.479 . S
C299 H317 0.929 . S
C300 C297 1.424 . S
C300 C299 1.384 . S
C300 H318 0.928 . S
C301 C298 1.260 . S
C301 C299 1.479 . S
C302 C297 1.245 . S
C302 C298 1.477 . S
C302 H319 0.932 . S
C303 U286 2.882 . S
C303 C297 1.428 . S
C303 O306 1.301 . S
C303 O307 1.282 . S
O304 U286 2.441 1_556 S
O304 C290 1.249 . S
O305 U286 2.420 1_556 S
O305 C290 1.202 . S
O306 U286 2.455 . S
O306 C303 1.301 . S
O307 U286 2.449 . S
O307 C303 1.282 . S
H308 C281 0.931 . S
H309 C283 0.929 . S
H310 C284 0.930 . S
H311 C285 0.931 . S
H312 C292 0.932 . S
H313 C293 0.930 1_556 S
H314 C294 0.929 . S
H315 C296 0.930 . S
H316 C298 0.932 . S
H317 C299 0.929 . S
H318 C300 0.928 . S
H319 C302 0.932 . S
Tb320 C322 2.809 . S
Tb320 O340 2.484 . S
Tb320 O341 2.440 . S
Tb320 O342 2.658 1_565 S
Tb320 O343 2.409 . S
Tb320 O344 2.378 . S
Tb320 O348 2.325 1_455 S
Tb320 O351 2.341 1_565 S
Tb321 C331 2.809 . S
Tb321 O342 2.325 1_655 S
Tb321 O345 2.341 1_545 S
Tb321 O346 2.484 . S
Tb321 O347 2.440 . S
Tb321 O348 2.658 1_545 S
Tb321 O349 2.409 . S
Tb321 O350 2.378 . S
C322 Tb320 2.809 . S
C322 C323 1.514 . S
C322 O340 1.248 . S
C322 O341 1.266 . S
C323 C322 1.514 . S
C323 C324 1.359 . S
C323 C328 1.348 . S
C324 C323 1.359 . S
C324 C325 1.376 1_556 S
C324 H352 0.929 1_455 S
C325 C324 1.376 1_554 S
C325 C326 1.347 . S
C325 H353 0.934 1_455 S
C326 C325 1.347 . S
C326 C327 1.369 1_554 S
C327 C326 1.369 1_556 S
C327 C328 1.408 . S
C327 H354 0.930 . S
C328 C323 1.348 . S
C328 C327 1.408 . S
C328 H355 0.930 . S
C329 O342 1.281 1_565 S
C329 O343 1.254 . S
C330 O344 1.236 1_655 S
C330 O345 1.266 . S
C331 Tb321 2.809 . S
C331 C332 1.514 . S
C331 O346 1.248 . S
C331 O347 1.266 . S
C332 C331 1.514 . S
C332 C333 1.359 . S
C332 C337 1.348 . S
C333 C332 1.359 . S
C333 C334 1.380 . S
C333 H356 0.929 1_655 S
C334 C333 1.380 . S
C334 C335 1.347 . S
C334 H357 0.931 1_655 S
C335 C334 1.347 . S
C335 C336 1.369 . S
C336 C335 1.369 . S
C336 C337 1.408 . S
C336 H358 0.930 . S
C337 C332 1.348 . S
C337 C336 1.408 . S
C337 H359 0.930 . S
C338 O348 1.281 1_545 S
C338 O349 1.254 . S
C339 O350 1.236 1_455 S
C339 O351 1.266 . S
O340 Tb320 2.484 . S
O340 C322 1.248 . S
O341 Tb320 2.440 . S
O341 C322 1.266 . S
O342 Tb320 2.658 1_545 S
O342 Tb321 2.325 1_455 S
O342 C329 1.281 1_545 S
O343 Tb320 2.409 . S
O343 C329 1.254 . S
O344 Tb320 2.378 . S
O344 C330 1.236 1_455 S
O345 Tb321 2.341 1_565 S
O345 C330 1.266 . S
O346 Tb321 2.484 . S
O346 C331 1.248 . S
O347 Tb321 2.440 . S
O347 C331 1.266 . S
O348 Tb320 2.325 1_655 S
O348 Tb321 2.658 1_565 S
O348 C338 1.281 1_565 S
O349 Tb321 2.409 . S
O349 C338 1.254 . S
O350 Tb321 2.378 . S
O350 C339 1.236 1_655 S
O351 Tb320 2.341 1_545 S
O351 C339 1.266 . S
H352 C324 0.929 1_655 S
H353 C325 0.934 1_655 S
H354 C327 0.930 . S
H355 C328 0.930 . S
H356 C333 0.929 1_455 S
H357 C334 0.931 1_455 S
H358 C336 0.930 . S
H359 C337 0.930 . S
Tb360 C362 2.809 . S
Tb360 O380 2.484 . S
Tb360 O381 2.440 . S
Tb360 O382 2.658 . S
Tb360 O383 2.409 . S
Tb360 O384 2.378 . S
Tb360 O388 2.325 1_545 S
Tb360 O391 2.341 . S
Tb361 C371 2.809 . S
Tb361 O382 2.325 1_565 S
Tb361 O385 2.341 . S
Tb361 O386 2.484 . S
Tb361 O387 2.440 . S
Tb361 O388 2.658 . S
Tb361 O389 2.409 . S
Tb361 O390 2.378 . S
C362 Tb360 2.809 . S
C362 C363 1.514 . S
C362 O380 1.248 . S
C362 O381 1.266 . S
C363 C362 1.514 . S
C363 C364 1.359 . S
C363 C368 1.348 . S
C364 C363 1.359 . S
C364 C365 1.380 1_556 S
C364 H392 0.929 1_545 S
C365 C364 1.380 1_554 S
C365 C366 1.347 . S
C365 H393 0.931 1_545 S
C366 C365 1.347 . S
C366 C367 1.369 1_554 S
C367 C366 1.369 1_556 S
C367 C368 1.408 . S
C367 H394 0.930 . S
C368 C363 1.348 . S
C368 C367 1.408 . S
C368 H395 0.930 . S
C369 O382 1.281 . S
C369 O383 1.254 . S
C370 O384 1.236 1_565 S
C370 O385 1.266 . S
C371 Tb361 2.809 . S
C371 C372 1.514 . S
C371 O386 1.248 . S
C371 O387 1.266 . S
C372 C371 1.514 . S
C372 C373 1.359 . S
C372 C377 1.348 . S
C373 C372 1.359 . S
C373 C374 1.380 . S
C373 H396 0.929 1_565 S
C374 C373 1.380 . S
C374 C375 1.347 . S
C374 H397 0.931 1_565 S
C375 C374 1.347 . S
C375 C376 1.369 . S
C376 C375 1.369 . S
C376 C377 1.408 . S
C376 H398 0.930 . S
C377 C372 1.348 . S
C377 C376 1.408 . S
C377 H399 0.930 . S
C378 O388 1.281 . S
C378 O389 1.254 . S
C379 O390 1.236 1_545 S
C379 O391 1.266 . S
O380 Tb360 2.484 . S
O380 C362 1.248 . S
O381 Tb360 2.440 . S
O381 C362 1.266 . S
O382 Tb360 2.658 . S
O382 Tb361 2.325 1_545 S
O382 C369 1.281 . S
O383 Tb360 2.409 . S
O383 C369 1.254 . S
O384 Tb360 2.378 . S
O384 C370 1.236 1_545 S
O385 Tb361 2.341 . S
O385 C370 1.266 . S
O386 Tb361 2.484 . S
O386 C371 1.248 . S
O387 Tb361 2.440 . S
O387 C371 1.266 . S
O388 Tb360 2.325 1_565 S
O388 Tb361 2.658 . S
O388 C378 1.281 . S
O389 Tb361 2.409 . S
O389 C378 1.254 . S
O390 Tb361 2.378 . S
O390 C379 1.236 1_565 S
O391 Tb360 2.341 . S
O391 C379 1.266 . S
H392 C364 0.929 1_565 S
H393 C365 0.931 1_565 S
H394 C367 0.930 . S
H395 C368 0.930 . S
H396 C373 0.929 1_545 S
H397 C374 0.931 1_545 S
H398 C376 0.930 . S
H399 C377 0.930 . S
Tb400 C402 2.809 . S
Tb400 O420 2.484 . S
Tb400 O421 2.440 . S
Tb400 O422 2.658 . S
Tb400 O423 2.409 . S
Tb400 O424 2.378 . S
Tb400 O428 2.325 . S
Tb400 O431 2.341 . S
Tb401 C411 2.809 . S
Tb401 O422 2.325 . S
Tb401 O425 2.341 . S
Tb401 O426 2.484 . S
Tb401 O427 2.440 . S
Tb401 O428 2.658 . S
Tb401 O429 2.409 . S
Tb401 O430 2.378 . S
C402 Tb400 2.809 . S
C402 C403 1.514 . S
C402 O420 1.248 . S
C402 O421 1.266 . S
C403 C402 1.514 . S
C403 C404 1.359 . S
C403 C408 1.348 . S
C404 C403 1.359 . S
C404 C405 1.380 1_556 S
C404 H432 0.929 . S
C405 C404 1.380 1_554 S
C405 C406 1.347 . S
C405 H433 0.931 . S
C406 C405 1.347 . S
C406 C407 1.369 1_554 S
C407 C406 1.369 1_556 S
C407 C408 1.408 . S
C407 H434 0.930 . S
C408 C403 1.348 . S
C408 C407 1.408 . S
C408 H435 0.930 . S
C409 O422 1.281 . S
C409 O423 1.254 . S
C410 O424 1.236 . S
C410 O425 1.266 . S
C411 Tb401 2.809 . S
C411 C412 1.514 . S
C411 O426 1.248 . S
C411 O427 1.266 . S
C412 C411 1.514 . S
C412 C413 1.359 . S
C412 C417 1.348 . S
C413 C412 1.359 . S
C413 C414 1.380 . S
C413 H436 0.929 . S
C414 C413 1.380 . S
C414 C415 1.347 . S
C414 H437 0.931 . S
C415 C414 1.347 . S
C415 C416 1.369 . S
C416 C415 1.369 . S
C416 C417 1.408 . S
C416 H438 0.930 . S
C417 C412 1.348 . S
C417 C416 1.408 . S
C417 H439 0.930 . S
C418 O428 1.281 . S
C418 O429 1.254 . S
C419 O430 1.236 . S
C419 O431 1.266 . S
O420 Tb400 2.484 . S
O420 C402 1.248 . S
O421 Tb400 2.440 . S
O421 C402 1.266 . S
O422 Tb400 2.658 . S
O422 Tb401 2.325 . S
O422 C409 1.281 . S
O423 Tb400 2.409 . S
O423 C409 1.254 . S
O424 Tb400 2.378 . S
O424 C410 1.236 . S
O425 Tb401 2.341 . S
O425 C410 1.266 . S
O426 Tb401 2.484 . S
O426 C411 1.248 . S
O427 Tb401 2.440 . S
O427 C411 1.266 . S
O428 Tb400 2.325 . S
O428 Tb401 2.658 . S
O428 C418 1.281 . S
O429 Tb401 2.409 . S
O429 C418 1.254 . S
O430 Tb401 2.378 . S
O430 C419 1.236 . S
O431 Tb400 2.341 . S
O431 C419 1.266 . S
H432 C404 0.929 . S
H433 C405 0.931 . S
H434 C407 0.930 . S
H435 C408 0.930 . S
H436 C413 0.929 . S
H437 C414 0.931 . S
H438 C416 0.930 . S
H439 C417 0.930 . S
Tb440 C442 2.809 . S
Tb440 O460 2.484 . S
Tb440 O461 2.440 . S
Tb440 O462 2.658 1_655 S
Tb440 O463 2.409 . S
Tb440 O464 2.378 . S
Tb440 O468 2.325 . S
Tb440 O471 2.341 1_655 S
Tb441 C451 2.809 . S
Tb441 O462 2.325 . S
Tb441 O465 2.341 1_455 S
Tb441 O466 2.484 . S
Tb441 O467 2.440 . S
Tb441 O468 2.658 1_455 S
Tb441 O469 2.409 . S
Tb441 O470 2.378 . S
C442 Tb440 2.809 . S
C442 C443 1.514 . S
C442 O460 1.248 . S
C442 O461 1.266 . S
C443 C442 1.514 . S
C443 C444 1.359 . S
C443 C448 1.348 . S
C444 C443 1.359 . S
C444 C445 1.380 1_556 S
C444 H472 0.929 . S
C445 C444 1.380 1_554 S
C445 C446 1.347 . S
C445 H473 0.931 . S
C446 C445 1.347 . S
C446 C447 1.369 1_554 S
C447 C446 1.369 1_556 S
C447 C448 1.408 . S
C447 H474 0.930 . S
C448 C443 1.348 . S
C448 C447 1.408 . S
C448 H475 0.930 . S
C449 O462 1.278 1_655 S
C449 O463 1.258 . S
C450 O464 1.236 . S
C450 O465 1.266 . S
C451 Tb441 2.809 . S
C451 C452 1.514 . S
C451 O466 1.248 . S
C451 O467 1.266 . S
C452 C451 1.514 . S
C452 C453 1.359 . S
C452 C457 1.348 . S
C453 C452 1.359 . S
C453 C454 1.380 . S
C453 H476 0.929 . S
C454 C453 1.380 . S
C454 C455 1.347 . S
C454 H477 0.931 . S
C455 C454 1.347 . S
C455 C456 1.369 . S
C456 C455 1.369 . S
C456 C457 1.408 . S
C456 H478 0.930 . S
C457 C452 1.348 . S
C457 C456 1.408 . S
C457 H479 0.930 . S
C458 O468 1.275 1_455 S
C458 O469 1.262 . S
C459 O470 1.236 . S
C459 O471 1.266 . S
O460 Tb440 2.484 . S
O460 C442 1.248 . S
O461 Tb440 2.440 . S
O461 C442 1.266 . S
O462 Tb440 2.658 1_455 S
O462 Tb441 2.325 . S
O462 C449 1.278 1_455 S
O463 Tb440 2.409 . S
O463 C449 1.258 . S
O464 Tb440 2.378 . S
O464 C450 1.236 . S
O465 Tb441 2.341 1_655 S
O465 C450 1.266 . S
O466 Tb441 2.484 . S
O466 C451 1.248 . S
O467 Tb441 2.440 . S
O467 C451 1.266 . S
O468 Tb440 2.325 . S
O468 Tb441 2.658 1_655 S
O468 C458 1.275 1_655 S
O469 Tb441 2.409 . S
O469 C458 1.262 . S
O470 Tb441 2.378 . S
O470 C459 1.236 . S
O471 Tb440 2.341 1_455 S
O471 C459 1.266 . S
H472 C444 0.929 . S
H473 C445 0.931 . S
H474 C447 0.930 . S
H475 C448 0.930 . S
H476 C453 0.929 . S
H477 C454 0.931 . S
H478 C456 0.930 . S
H479 C457 0.930 . S
C480 C481 1.368 1_565 S
C480 C482 1.419 . S
C480 H484 0.930 . S
C481 C480 1.368 1_545 S
C481 C490 1.429 . S
C482 C480 1.419 . S
C482 C483 1.362 1_565 S
C482 H485 0.929 . S
C483 C482 1.362 1_545 S
C483 C489 1.430 . S
H484 C480 0.930 . S
H485 C482 0.929 . S
S486 N487 1.613 . S
S486 N488 1.610 . S
N487 S486 1.613 . S
N487 C490 1.350 . S
N488 S486 1.610 . S
N488 C489 1.351 . S
C489 C483 1.430 . S
C489 N488 1.351 . S
C489 C490 1.434 . S
C490 C481 1.429 . S
C490 N487 1.350 . S
C490 C489 1.434 . S
C491 C492 1.369 . S
C491 C493 1.419 . S
C491 H495 0.930 . S
C492 C491 1.369 . S
C492 C501 1.429 . S
C493 C491 1.419 . S
C493 C494 1.363 . S
C493 H496 0.929 . S
C494 C493 1.363 . S
C494 C500 1.428 . S
H495 C491 0.930 . S
H496 C493 0.929 . S
S497 N498 1.613 . S
S497 N499 1.610 . S
N498 S497 1.613 . S
N498 C501 1.350 . S
N499 S497 1.610 . S
N499 C500 1.351 . S
C500 C494 1.428 . S
C500 N499 1.351 . S
C500 C501 1.434 . S
C501 C492 1.429 . S
C501 N498 1.350 . S
C501 C500 1.434 . S
C502 C503 1.369 . S
C502 C504 1.419 . S
C502 H506 0.930 . S
C503 C502 1.369 . S
C503 C512 1.429 . S
C504 C502 1.419 . S
C504 C505 1.363 . S
C504 H507 0.929 . S
C505 C504 1.363 . S
C505 C511 1.428 . S
H506 C502 0.930 . S
H507 C504 0.929 . S
S508 N509 1.613 . S
S508 N510 1.610 . S
N509 S508 1.613 . S
N509 C512 1.350 . S
N510 S508 1.610 . S
N510 C511 1.351 . S
C511 C505 1.428 . S
C511 N510 1.351 . S
C511 C512 1.434 . S
C512 C503 1.429 . S
C512 N509 1.350 . S
C512 C511 1.434 . S
C513 C514 1.361 1_655 S
C513 C515 1.419 . S
C513 H517 0.930 . S
C514 C513 1.361 1_455 S
C514 C523 1.438 . S
C515 C513 1.419 . S
C515 C516 1.363 1_655 S
C515 H518 0.929 . S
C516 C515 1.363 1_455 S
C516 C522 1.428 . S
H517 C513 0.930 . S
H518 C515 0.929 . S
S519 N520 1.613 . S
S519 N521 1.610 . S
N520 S519 1.613 . S
N520 C523 1.350 . S
N521 S519 1.610 . S
N521 C522 1.351 . S
C522 C516 1.428 . S
C522 N521 1.351 . S
C522 C523 1.434 . S
C523 C514 1.438 . S
C523 N520 1.350 . S
C523 C522 1.434 . S
C524 C525 1.368 . S
C524 C526 1.419 . S
C524 H528 0.930 . S
C525 C524 1.368 . S
C525 C534 1.430 1_545 S
C526 C524 1.419 . S
C526 C527 1.361 1_554 S
C526 H529 0.929 1_554 S
C527 C526 1.361 1_556 S
C527 C533 1.430 1_546 S
H528 C524 0.930 . S
H529 C526 0.929 1_556 S
S530 N531 1.592 1_455 S
S530 N532 1.593 1_454 S
N531 S530 1.592 1_655 S
N531 C534 1.350 . S
N532 S530 1.593 1_656 S
N532 C533 1.351 1_556 S
C533 C527 1.430 1_564 S
C533 N532 1.351 1_554 S
C533 C534 1.434 . S
C534 C525 1.430 1_565 S
C534 N531 1.350 . S
C534 C533 1.434 . S
C535 C536 1.369 . S
C535 C537 1.419 . S
C535 H539 0.930 . S
C536 C535 1.369 . S
C536 C545 1.429 . S
C537 C535 1.419 . S
C537 C538 1.363 1_554 S
C537 H540 0.929 1_554 S
C538 C537 1.363 1_556 S
C538 C544 1.428 1_556 S
H539 C535 0.930 . S
H540 C537 0.929 1_556 S
S541 N542 1.613 . S
S541 N543 1.610 . S
N542 S541 1.613 . S
N542 C545 1.350 . S
N543 S541 1.610 . S
N543 C544 1.351 . S
C544 C538 1.428 1_554 S
C544 N543 1.351 . S
C544 C545 1.434 . S
C545 C536 1.429 . S
C545 N542 1.350 . S
C545 C544 1.434 . S
C546 C547 1.369 . S
C546 C548 1.419 . S
C546 H550 0.930 . S
C547 C546 1.369 . S
C547 C556 1.429 . S
C548 C546 1.419 . S
C548 C549 1.363 1_554 S
C548 H551 0.929 1_554 S
C549 C548 1.363 1_556 S
C549 C555 1.428 1_556 S
H550 C546 0.930 . S
H551 C548 0.929 1_556 S
S552 N553 1.613 . S
S552 N554 1.610 1_554 S
N553 S552 1.613 . S
N553 C556 1.350 . S
N554 S552 1.610 1_556 S
N554 C555 1.351 1_556 S
C555 C549 1.428 1_554 S
C555 N554 1.351 1_554 S
C555 C556 1.434 . S
C556 C547 1.429 . S
C556 N553 1.350 . S
C556 C555 1.434 . S
C557 C558 1.339 1_455 S
C557 C559 1.419 . S
C557 H561 0.930 . S
C558 C557 1.339 1_655 S
C558 C567 1.460 . S
C559 C557 1.419 . S
C559 C560 1.363 1_454 S
C559 H562 0.929 1_554 S
C560 C559 1.363 1_656 S
C560 C566 1.428 1_556 S
H561 C557 0.930 . S
H562 C559 0.929 1_556 S
S563 N564 1.613 . S
S563 N565 1.610 1_554 S
N564 S563 1.613 . S
N564 C567 1.350 . S
N565 S563 1.610 1_556 S
N565 C566 1.351 1_556 S
C566 C560 1.428 1_554 S
C566 N565 1.351 1_554 S
C566 C567 1.434 . S
C567 C558 1.460 . S
C567 N564 1.350 . S
C567 C566 1.434 . S
C568 C569 1.369 1_655 S
C568 C570 1.419 . S
C568 H572 0.930 . S
C569 C568 1.369 1_455 S
C569 C578 1.429 1_455 S
C570 C568 1.419 . S
C570 C571 1.363 . S
C570 H573 0.929 . S
C571 C570 1.363 . S
C571 C577 1.428 . S
H572 C568 0.930 . S
H573 C570 0.929 . S
S574 N575 1.613 . S
S574 N576 1.610 1_455 S
N575 S574 1.613 . S
N575 C578 1.350 1_455 S
N576 S574 1.610 1_655 S
N576 C577 1.351 . S
C577 C571 1.428 . S
C577 N576 1.351 . S
C577 C578 1.434 . S
C578 C569 1.429 1_655 S
C578 N575 1.350 1_655 S
C578 C577 1.434 . S
C579 C580 1.358 1_565 S
C579 C581 1.419 . S
C579 H583 0.930 . S
C580 C579 1.358 1_545 S
C580 C589 1.432 . S
C581 C579 1.419 . S
C581 C582 1.363 . S
C581 H584 0.929 . S
C582 C581 1.363 . S
C582 C588 1.428 . S
H583 C579 0.930 . S
H584 C581 0.929 . S
S585 N586 1.613 . S
S585 N587 1.642 . S
N586 S585 1.613 . S
N586 C589 1.350 . S
N587 S585 1.642 . S
N587 C588 1.338 1_545 S
C588 C582 1.428 . S
C588 N587 1.338 1_565 S
C588 C589 1.434 1_565 S
C589 C580 1.432 . S
C589 N586 1.350 . S
C589 C588 1.434 1_545 S
C590 C591 1.369 . S
C590 C592 1.419 . S
C590 H594 0.930 . S
C591 C590 1.369 . S
C591 C600 1.429 . S
C592 C590 1.419 . S
C592 C593 1.363 . S
C592 H595 0.929 . S
C593 C592 1.363 . S
C593 C599 1.428 . S
H594 C590 0.930 . S
H595 C592 0.929 . S
S596 N597 1.613 . S
S596 N598 1.610 . S
N597 S596 1.613 . S
N597 C600 1.350 . S
N598 S596 1.610 . S
N598 C599 1.351 . S
C599 C593 1.428 . S
C599 N598 1.351 . S
C599 C600 1.434 . S
C600 C591 1.429 . S
C600 N597 1.350 . S
C600 C599 1.434 . S
C601 C602 1.369 . S
C601 C603 1.419 . S
C601 H605 0.930 . S
C602 C601 1.369 . S
C602 C611 1.429 . S
C603 C601 1.419 . S
C603 C604 1.363 . S
C603 H606 0.929 . S
C604 C603 1.363 . S
C604 C610 1.428 . S
H605 C601 0.930 . S
H606 C603 0.929 . S
S607 N608 1.613 . S
S607 N609 1.610 . S
N608 S607 1.613 . S
N608 C611 1.350 . S
N609 S607 1.610 . S
N609 C610 1.351 . S
C610 C604 1.428 . S
C610 N609 1.351 . S
C610 C611 1.434 . S
C611 C602 1.429 . S
C611 N608 1.350 . S
C611 C610 1.434 . S
C612 C613 1.369 1_655 S
C612 C614 1.419 1_655 S
C612 H616 0.930 . S
C613 C612 1.369 1_455 S
C613 C622 1.430 . S
C614 C612 1.419 1_455 S
C614 C615 1.363 . S
C614 H617 0.929 1_554 S
C615 C614 1.363 . S
C615 C621 1.428 . S
H616 C612 0.930 . S
H617 C614 0.929 1_556 S
S618 N619 1.613 . S
S618 N620 1.610 . S
N619 S618 1.613 . S
N619 C622 1.350 . S
N620 S618 1.610 . S
N620 C621 1.351 . S
C621 C615 1.428 . S
C621 N620 1.351 . S
C621 C622 1.434 . S
C622 C613 1.430 . S
C622 N619 1.350 . S
C622 C621 1.434 . S
C623 C624 1.368 1_565 S
C623 C625 1.419 1_564 S
C623 H627 0.930 1_554 S
C624 C623 1.368 1_545 S
C624 C633 1.433 . S
C625 C623 1.419 1_546 S
C625 C626 1.363 1_556 S
C625 H628 0.929 . S
C626 C625 1.363 1_554 S
C626 C632 1.428 . S
H627 C623 0.930 1_556 S
H628 C625 0.929 . S
S629 N630 1.613 . S
S629 N631 1.610 . S
N630 S629 1.613 . S
N630 C633 1.350 . S
N631 S629 1.610 . S
N631 C632 1.351 . S
C632 C626 1.428 . S
C632 N631 1.351 . S
C632 C633 1.434 . S
C633 C624 1.433 . S
C633 N630 1.350 . S
C633 C632 1.434 . S
C634 C635 1.369 . S
C634 C636 1.419 . S
C634 H638 0.930 . S
C635 C634 1.369 . S
C635 C644 1.429 1_554 S
C636 C634 1.419 . S
C636 C637 1.363 . S
C636 H639 0.929 . S
C637 C636 1.363 . S
C637 C643 1.428 1_554 S
H638 C634 0.930 . S
H639 C636 0.929 . S
S640 N641 1.613 . S
S640 N642 1.610 . S
N641 S640 1.613 . S
N641 C644 1.350 . S
N642 S640 1.610 . S
N642 C643 1.351 . S
C643 C637 1.428 1_556 S
C643 N642 1.351 . S
C643 C644 1.434 . S
C644 C635 1.429 1_556 S
C644 N641 1.350 . S
C644 C643 1.434 . S
C645 C646 1.369 . S
C645 C647 1.419 . S
C645 H649 0.930 . S
C646 C645 1.369 . S
C646 C655 1.429 . S
C647 C645 1.419 . S
C647 C648 1.363 . S
C647 H650 0.929 . S
C648 C647 1.363 . S
C648 C654 1.428 . S
H649 C645 0.930 . S
H650 C647 0.929 . S
S651 N652 1.613 . S
S651 N653 1.610 . S
N652 S651 1.613 . S
N652 C655 1.350 1_556 S
N653 S651 1.610 . S
N653 C654 1.351 1_556 S
C654 C648 1.428 . S
C654 N653 1.351 1_554 S
C654 C655 1.434 . S
C655 C646 1.429 . S
C655 N652 1.350 1_554 S
C655 C654 1.434 . S
C656 C657 1.369 . S
C656 C658 1.419 . S
C656 H660 0.930 . S
C657 C656 1.369 . S
C657 C666 1.429 . S
C658 C656 1.419 . S
C658 C659 1.363 . S
C658 H661 0.929 . S
C659 C658 1.363 . S
C659 C665 1.428 . S
H660 C656 0.930 . S
H661 C658 0.929 . S
S662 N663 1.613 . S
S662 N664 1.611 1_655 S
N663 S662 1.613 . S
N663 C666 1.350 1_655 S
N664 S662 1.611 1_455 S
N664 C665 1.350 . S
C665 C659 1.428 . S
C665 N664 1.350 . S
C665 C666 1.434 . S
C666 C657 1.429 . S
C666 N663 1.350 1_455 S
C666 C665 1.434 . S
C667 C668 1.369 1_565 S
C667 C669 1.419 . S
C667 H671 0.930 . S
C668 C667 1.369 1_545 S
C668 C677 1.429 . S
C669 C667 1.419 . S
C669 C670 1.363 1_565 S
C669 H672 0.929 . S
C670 C669 1.363 1_545 S
C670 C676 1.428 . S
H671 C667 0.930 . S
H672 C669 0.929 . S
S673 N674 1.613 . S
S673 N675 1.610 . S
N674 S673 1.613 . S
N674 C677 1.350 . S
N675 S673 1.610 . S
N675 C676 1.351 . S
C676 C670 1.428 . S
C676 N675 1.351 . S
C676 C677 1.434 . S
C677 C668 1.429 . S
C677 N674 1.350 . S
C677 C676 1.434 . S
C678 C679 1.369 . S
C678 C680 1.419 . S
C678 H682 0.930 . S
C679 C678 1.369 . S
C679 C688 1.429 . S
C680 C678 1.419 . S
C680 C681 1.363 . S
C680 H683 0.929 . S
C681 C680 1.363 . S
C681 C687 1.428 . S
H682 C678 0.930 . S
H683 C680 0.929 . S
S684 N685 1.613 . S
S684 N686 1.610 . S
N685 S684 1.613 . S
N685 C688 1.350 . S
N686 S684 1.610 . S
N686 C687 1.351 . S
C687 C681 1.428 . S
C687 N686 1.351 . S
C687 C688 1.434 . S
C688 C679 1.429 . S
C688 N685 1.350 . S
C688 C687 1.434 . S
C689 C690 1.369 . S
C689 C691 1.419 . S
C689 H693 0.930 . S
C690 C689 1.369 . S
C690 C699 1.429 . S
C691 C689 1.419 . S
C691 C692 1.363 . S
C691 H694 0.929 . S
C692 C691 1.363 . S
C692 C698 1.428 . S
H693 C689 0.930 . S
H694 C691 0.929 . S
S695 N696 1.613 . S
S695 N697 1.610 . S
N696 S695 1.613 . S
N696 C699 1.350 . S
N697 S695 1.610 . S
N697 C698 1.351 . S
C698 C692 1.428 . S
C698 N697 1.351 . S
C698 C699 1.434 . S
C699 C690 1.429 . S
C699 N696 1.350 . S
C699 C698 1.434 . S
C700 C701 1.369 1_455 S
C700 C702 1.419 . S
C700 H704 0.930 . S
C701 C700 1.369 1_655 S
C701 C710 1.429 . S
C702 C700 1.419 . S
C702 C703 1.363 1_455 S
C702 H705 0.929 . S
C703 C702 1.363 1_655 S
C703 C709 1.428 . S
H704 C700 0.930 . S
H705 C702 0.929 . S
S706 N707 1.613 . S
S706 N708 1.610 . S
N707 S706 1.613 . S
N707 C710 1.350 . S
N708 S706 1.610 . S
N708 C709 1.351 . S
C709 C703 1.428 . S
C709 N708 1.351 . S
C709 C710 1.434 . S
C710 C701 1.429 . S
C710 N707 1.350 . S
C710 C709 1.434 . S
C711 C712 1.369 1_545 S
C711 C713 1.419 . S
C711 H715 0.930 . S
C712 C711 1.369 1_565 S
C712 C721 1.429 . S
C713 C711 1.419 . S
C713 C714 1.363 1_545 S
C713 H716 0.929 . S
C714 C713 1.363 1_565 S
C714 C720 1.428 . S
H715 C711 0.930 . S
H716 C713 0.929 . S
S717 N718 1.613 . S
S717 N719 1.610 . S
N718 S717 1.613 . S
N718 C721 1.350 . S
N719 S717 1.610 . S
N719 C720 1.351 . S
C720 C714 1.428 . S
C720 N719 1.351 . S
C720 C721 1.434 . S
C721 C712 1.429 . S
C721 N718 1.350 . S
C721 C720 1.434 . S
C722 C723 1.369 . S
C722 C724 1.419 . S
C722 H726 0.930 . S
C723 C722 1.369 . S
C723 C732 1.429 . S
C724 C722 1.419 . S
C724 C725 1.363 . S
C724 H727 0.929 . S
C725 C724 1.363 . S
C725 C731 1.428 . S
H726 C722 0.930 . S
H727 C724 0.929 . S
S728 N729 1.613 . S
S728 N730 1.610 . S
N729 S728 1.613 . S
N729 C732 1.350 . S
N730 S728 1.610 . S
N730 C731 1.351 . S
C731 C725 1.428 . S
C731 N730 1.351 . S
C731 C732 1.434 . S
C732 C723 1.429 . S
C732 N729 1.350 . S
C732 C731 1.434 . S
C733 C734 1.369 . S
C733 C735 1.419 . S
C733 H737 0.930 . S
C734 C733 1.369 . S
C734 C743 1.429 . S
C735 C733 1.419 . S
C735 C736 1.363 . S
C735 H738 0.929 . S
C736 C735 1.363 . S
C736 C742 1.428 . S
H737 C733 0.930 . S
H738 C735 0.929 . S
S739 N740 1.613 . S
S739 N741 1.610 . S
N740 S739 1.613 . S
N740 C743 1.350 . S
N741 S739 1.610 . S
N741 C742 1.351 . S
C742 C736 1.428 . S
C742 N741 1.351 . S
C742 C743 1.434 . S
C743 C734 1.429 . S
C743 N740 1.350 . S
C743 C742 1.434 . S
C481 C255 2.613 . S
C483 C329 2.977 1_545 S
C494 C369 2.999 . S
C492 C295 2.644 . S
C505 C409 3.005 . S
C503 C175 2.652 . S
C516 C449 2.980 1_455 S
C514 C215 2.618 . S
C527 C338 2.975 . S
C525 C95 2.624 . S
C536 C135 2.649 . S
C538 C378 3.001 . S
C547 C15 2.652 . S
C549 C418 3.004 . S
C558 C55 2.625 1_655 S
C560 C458 2.979 1_655 S
C571 C335 0.754 . S
C569 C221 0.740 . S
C582 C375 0.743 . S
C580 C261 0.748 . S
C593 C415 0.718 . S
C591 C301 0.693 . S
C602 C181 0.708 . S
C604 C455 0.705 . S
C613 C61 0.735 . S
C615 C326 0.764 . S
C626 C366 0.758 . S
C624 C101 0.732 . S
C637 C406 0.705 . S
C635 C141 0.726 . S
C646 C21 0.736 . S
C648 C446 0.703 . S
C657 C202 3.607 . S
C659 C339 4.061 . S
C668 C242 3.563 . S
C670 C379 4.032 . S
C681 C419 4.019 . S
C679 C282 3.548 . S
C692 C459 4.056 . S
C690 C162 3.581 . S
C701 C42 3.625 1_655 S
C703 C330 4.071 . S
C714 C370 4.032 . S
C712 C82 3.585 1_565 S
C725 C410 4.022 . S
C723 C122 3.585 . S
C734 C2 3.621 . S
C736 C450 4.063 . S
