# Generated by pormake.
# Topology wbl, (4,4)-cn, num edge types: 1
# Building blocks:
#     Node 0, Type 0, BuildingBlock: MUDLON_clean_sbu_0, # of connection points: 4
#     Node 1, Type 0, BuildingBlock: MUDLON_clean_sbu_0, # of connection points: 4
#     Node 2, Type 0, BuildingBlock: MUDLON_clean_sbu_0, # of connection points: 4
#     Node 3, Type 0, BuildingBlock: MUDLON_clean_sbu_0, # of connection points: 4
#     Node 4, Type 0, BuildingBlock: MUDLON_clean_sbu_0, # of connection points: 4
#     Node 5, Type 0, BuildingBlock: MUDLON_clean_sbu_0, # of connection points: 4
#     Node 6, Type 0, BuildingBlock: MUDLON_clean_sbu_0, # of connection points: 4
#     Node 7, Type 0, BuildingBlock: MUDLON_clean_sbu_0, # of connection points: 4
#     Node 8, Type 1, BuildingBlock: QUQFOY_clean_sbu_3, # of connection points: 4
#     Node 9, Type 1, BuildingBlock: QUQFOY_clean_sbu_3, # of connection points: 4
#     Node 10, Type 1, BuildingBlock: QUQFOY_clean_sbu_3, # of connection points: 4
#     Node 11, Type 1, BuildingBlock: QUQFOY_clean_sbu_3, # of connection points: 4
#     Node 12, Type 1, BuildingBlock: QUQFOY_clean_sbu_3, # of connection points: 4
#     Node 13, Type 1, BuildingBlock: QUQFOY_clean_sbu_3, # of connection points: 4
#     Node 14, Type 1, BuildingBlock: QUQFOY_clean_sbu_3, # of connection points: 4
#     Node 15, Type 1, BuildingBlock: QUQFOY_clean_sbu_3, # of connection points: 4
#     Edge 16, Type (0, 1), BuildingBlock: TEMPAE_clean_linker_10, # of connection points: 2
#     Edge 17, Type (0, 1), BuildingBlock: TEMPAE_clean_linker_10, # of connection points: 2
#     Edge 18, Type (0, 1), BuildingBlock: TEMPAE_clean_linker_10, # of connection points: 2
#     Edge 19, Type (0, 1), BuildingBlock: TEMPAE_clean_linker_10, # of connection points: 2
#     Edge 20, Type (0, 1), BuildingBlock: TEMPAE_clean_linker_10, # of connection points: 2
#     Edge 21, Type (0, 1), BuildingBlock: TEMPAE_clean_linker_10, # of connection points: 2
#     Edge 22, Type (0, 1), BuildingBlock: TEMPAE_clean_linker_10, # of connection points: 2
#     Edge 23, Type (0, 1), BuildingBlock: TEMPAE_clean_linker_10, # of connection points: 2
#     Edge 24, Type (0, 1), BuildingBlock: TEMPAE_clean_linker_10, # of connection points: 2
#     Edge 25, Type (0, 1), BuildingBlock: TEMPAE_clean_linker_10, # of connection points: 2
#     Edge 26, Type (0, 1), BuildingBlock: TEMPAE_clean_linker_10, # of connection points: 2
#     Edge 27, Type (0, 1), BuildingBlock: TEMPAE_clean_linker_10, # of connection points: 2
#     Edge 28, Type (0, 1), BuildingBlock: TEMPAE_clean_linker_10, # of connection points: 2
#     Edge 29, Type (0, 1), BuildingBlock: TEMPAE_clean_linker_10, # of connection points: 2
#     Edge 30, Type (0, 1), BuildingBlock: TEMPAE_clean_linker_10, # of connection points: 2
#     Edge 31, Type (0, 1), BuildingBlock: TEMPAE_clean_linker_10, # of connection points: 2
#     Edge 32, Type (0, 1), BuildingBlock: TEMPAE_clean_linker_10, # of connection points: 2
#     Edge 33, Type (0, 1), BuildingBlock: TEMPAE_clean_linker_10, # of connection points: 2
#     Edge 34, Type (0, 1), BuildingBlock: TEMPAE_clean_linker_10, # of connection points: 2
#     Edge 35, Type (0, 1), BuildingBlock: TEMPAE_clean_linker_10, # of connection points: 2
#     Edge 36, Type (0, 1), BuildingBlock: TEMPAE_clean_linker_10, # of connection points: 2
#     Edge 37, Type (0, 1), BuildingBlock: TEMPAE_clean_linker_10, # of connection points: 2
#     Edge 38, Type (0, 1), BuildingBlock: TEMPAE_clean_linker_10, # of connection points: 2
#     Edge 39, Type (0, 1), BuildingBlock: TEMPAE_clean_linker_10, # of connection points: 2
#     Edge 40, Type (0, 1), BuildingBlock: TEMPAE_clean_linker_10, # of connection points: 2
#     Edge 41, Type (0, 1), BuildingBlock: TEMPAE_clean_linker_10, # of connection points: 2
#     Edge 42, Type (0, 1), BuildingBlock: TEMPAE_clean_linker_10, # of connection points: 2
#     Edge 43, Type (0, 1), BuildingBlock: TEMPAE_clean_linker_10, # of connection points: 2
#     Edge 44, Type (0, 1), BuildingBlock: TEMPAE_clean_linker_10, # of connection points: 2
#     Edge 45, Type (0, 1), BuildingBlock: TEMPAE_clean_linker_10, # of connection points: 2
#     Edge 46, Type (0, 1), BuildingBlock: TEMPAE_clean_linker_10, # of connection points: 2
#     Edge 47, Type (0, 1), BuildingBlock: TEMPAE_clean_linker_10, # of connection points: 2
# Relax obj value: 0.236
# Max RMSD: 0.222
# Mean RMSD: 0.173
data_MOF--net-wbl--node1-MUDLON_clean_sbu_0--node2-QUQFOY_clean_sbu_3--edge1-TEMPAE_clean_linker_10
_symmetry_space_group_name_H-M    P1
_symmetry_Int_Tables_number       1
_symmetry_cell_setting            triclinic
loop_
_symmetry_equiv_pos_as_xyz
'x, y, z'
_cell_length_a     35.288351
_cell_length_b     35.701618
_cell_length_c     77.334758
_cell_angle_alpha  90.547224
_cell_angle_beta   90.122418
_cell_angle_gamma 89.840585
loop_
_atom_site_label
_atom_site_type_symbol
_atom_site_fract_x
_atom_site_fract_y
_atom_site_fract_z
_atom_type_partial_charge
Mg0 Mg 0.01188 0.02645 0.34051 0.0
C1 C 0.99166 0.96387 0.36391 0.0
O2 O 0.96094 0.98453 0.36534 0.0
C3 C 0.95793 0.0626 0.3155 0.0
O4 O 0.9894 0.07932 0.3109 0.0
C5 C 0.06296 0.01636 0.30972 0.0
O6 O 0.03317 -0.00218 0.30413 0.0
O7 O 0.06149 0.03268 0.32439 0.0
O8 O 0.01539 0.97183 0.35218 0.0
O9 O 0.0133 0.06244 0.36332 0.0
C10 C 0.98184 0.07444 0.3692 0.0
O11 O 0.95104 0.06904 0.35996 0.0
O12 O 0.95931 0.03727 0.32692 0.0
Mg13 Mg 0.13226 0.50812 0.58776 0.0
C14 C 0.20763 0.52562 0.60443 0.0
O15 O 0.20819 0.55291 0.59319 0.0
C16 C 0.09172 0.45945 0.56113 0.0
O17 O 0.07939 0.49201 0.55565 0.0
C18 C 0.15369 0.56085 0.55865 0.0
O19 O 0.16988 0.53051 0.55233 0.0
O20 O 0.13554 0.55894 0.57279 0.0
O21 O 0.18325 0.49977 0.60268 0.0
O22 O 0.09311 0.5143 0.60917 0.0
C23 C 0.0843 0.48356 0.61627 0.0
O24 O 0.09469 0.45211 0.60866 0.0
O25 O 0.11573 0.4585 0.57338 0.0
Mg26 Mg 0.67597 0.65308 0.84436 0.0
C27 C 0.69094 0.7408 0.84828 0.0
O28 O 0.70797 0.77099 0.84264 0.0
C29 C 0.72903 0.5875 0.83822 0.0
O30 O 0.72274 0.58308 0.8548 0.0
C31 C 0.61125 0.66926 0.82044 0.0
O32 O 0.63773 0.69023 0.81361 0.0
O33 O 0.61931 0.64961 0.83358 0.0
O34 O 0.69654 0.71003 0.84015 0.0
O35 O 0.67544 0.63774 0.87156 0.0
C36 C 0.70287 0.64677 0.8814 0.0
O37 O 0.73102 0.66621 0.875 0.0
O38 O 0.71277 0.61429 0.83038 0.0
Mg39 Mg 0.52329 0.1469 0.07834 0.0
C40 C 0.55242 0.12009 0.11341 0.0
O41 O 0.52879 0.09222 0.11084 0.0
C42 C 0.54895 0.06954 0.06711 0.0
O43 O 0.57373 0.07545 0.07952 0.0
C44 C 0.58154 0.19829 0.066 0.0
O45 O 0.60045 0.17386 0.07526 0.0
O46 O 0.54599 0.19401 0.06408 0.0
O47 O 0.55715 0.14425 0.10167 0.0
O48 O 0.46832 0.15486 0.09027 0.0
C49 C 0.44921 0.1254 0.09307 0.0
O50 O 0.45722 0.09514 0.08398 0.0
O51 O 0.52523 0.09512 0.06346 0.0
Mg52 Mg 0.1719 0.50349 0.94342 0.0
C53 C 0.14787 0.53765 0.90935 0.0
O54 O 0.12122 0.51215 0.91037 0.0
C55 C 0.09648 0.53097 0.9574 0.0
O56 O 0.09647 0.54934 0.94277 0.0
C57 C 0.22727 0.53158 0.97016 0.0
O58 O 0.1955 0.53934 0.97829 0.0
O59 O 0.22589 0.51392 0.95583 0.0
O60 O 0.17057 0.54217 0.92199 0.0
O61 O 0.16731 0.45002 0.93009 0.0
C62 C 0.13457 0.43535 0.92931 0.0
O63 O 0.10815 0.44818 0.93975 0.0
O64 O 0.12495 0.5108 0.96121 0.0
Mg65 Mg 0.63738 0.639 0.1925 0.0
C66 C 0.6197 0.66375 0.15768 0.0
O67 O 0.63621 0.69266 0.16514 0.0
C68 C 0.62365 0.55825 0.19999 0.0
O69 O 0.62606 0.55735 0.18304 0.0
C70 C 0.59082 0.69167 0.2152 0.0
O71 O 0.57816 0.66002 0.22146 0.0
O72 O 0.61655 0.69085 0.20373 0.0
O73 O 0.61365 0.63474 0.16665 0.0
O74 O 0.69713 0.64042 0.18635 0.0
C75 C 0.7168 0.61106 0.18874 0.0
O76 O 0.7051 0.58672 0.20016 0.0
O77 O 0.62568 0.58971 0.20777 0.0
Mg78 Mg 0.50213 0.15088 0.43774 0.0
C79 C 0.47645 0.21809 0.41814 0.0
O80 O 0.44336 0.20157 0.41933 0.0
C81 C 0.45606 0.10893 0.4635 0.0
O82 O 0.48979 0.09481 0.46658 0.0
C83 C 0.5593 0.15641 0.46653 0.0
O84 O 0.53186 0.17649 0.47342 0.0
O85 O 0.5543 0.14147 0.45173 0.0
O86 O 0.50288 0.20754 0.42817 0.0
O87 O 0.50117 0.11837 0.41388 0.0
C88 C 0.46885 0.11274 0.40705 0.0
O89 O 0.43842 0.12312 0.41561 0.0
O90 O 0.45277 0.13504 0.45253 0.0
Mg91 Mg 0.00697 0.9811 0.69719 0.0
C92 C 0.04482 0.95053 0.66667 0.0
O93 O 0.02399 0.92253 0.67206 0.0
C94 C 0.02086 0.06227 0.70344 0.0
O95 O 0.02386 0.06012 0.68652 0.0
C96 C 0.03935 0.93391 0.72566 0.0
O97 O 0.0463 0.96731 0.73218 0.0
O98 O 0.02038 0.93124 0.71171 0.0
O99 O 0.04551 0.98057 0.67559 0.0
O100 O 0.95359 0.98194 0.6833 0.0
C101 C 0.9351 0.01252 0.68337 0.0
O102 O 0.94081 0.03643 0.69611 0.0
O103 O 0.01439 0.03254 0.71184 0.0
C104 C 0.58899 0.70076 0.03018 0.0
O105 O 0.61864 0.71028 0.02205 0.0
Cd106 Cd 0.61494 0.74549 -0.00447 0.0
O107 O 0.55641 0.70643 0.02359 0.0
Cd108 Cd 0.52587 0.72965 -0.00305 0.0
C109 C 0.55421 0.81577 0.00942 0.0
O110 O 0.574 0.71497 0.97525 0.0
O111 O 0.52957 0.75319 0.96751 0.0
O112 O 0.49097 0.67125 -0.00256 0.0
C113 C 0.55913 0.73487 0.96348 0.0
O114 O 0.58693 0.80542 0.00427 0.0
C115 C 0.45839 0.68595 -0.0042 0.0
O116 O 0.52639 0.79304 0.00933 0.0
O117 O 0.45694 0.72149 -0.00516 0.0
C118 C 0.43491 0.05387 0.21534 0.0
O119 O 0.46703 0.05731 0.22259 0.0
Cd120 Cd 0.48136 0.0344 0.25102 0.0
O121 O 0.40806 0.03704 0.22295 0.0
Cd122 Cd 0.40062 0.00433 0.2509 0.0
C123 C 0.47015 0.94111 0.24366 0.0
O124 O 0.43157 0.04867 0.27113 0.0
O125 O 0.41923 0.99338 0.28065 0.0
O126 O 0.33715 0.0311 0.25165 0.0
C127 C 0.42977 0.0266 0.28389 0.0
O128 O 0.49233 0.96742 0.24829 0.0
C129 C 0.32027 0.00079 0.25515 0.0
O130 O 0.4348 0.94728 0.2417 0.0
O131 O 0.34063 0.97145 0.25598 0.0
C132 C 0.10771 0.93598 0.4779 0.0
O133 O 0.10328 0.96676 0.48601 0.0
Cd134 Cd 0.12895 0.97974 0.51419 0.0
O135 O 0.12734 0.9097 0.48443 0.0
Cd136 Cd 0.16478 0.90075 0.51123 0.0
C137 C 0.22259 0.97438 0.50408 0.0
O138 O 0.11953 0.92663 0.53234 0.0
O139 O 0.1761 0.91547 0.54164 0.0
O140 O 0.14124 0.83704 0.5093 0.0
C141 C 0.14215 0.92441 0.54507 0.0
O142 O 0.19542 0.99429 0.5099 0.0
C143 C 0.17265 0.82109 0.51241 0.0
O144 O 0.21845 0.93925 0.5016 0.0
O145 O 0.20128 0.84225 0.51437 0.0
C146 C 0.23773 0.59358 0.78991 0.0
O147 O 0.25291 0.56572 0.78226 0.0
Cd148 Cd 0.28707 0.57084 0.75548 0.0
O149 O 0.2386 0.62591 0.78313 0.0
Cd150 Cd 0.26108 0.6569 0.75668 0.0
C151 C 0.35186 0.63779 0.768 0.0
O152 O 0.24818 0.60578 0.73616 0.0
O153 O 0.27863 0.65342 0.72622 0.0
O154 O 0.19994 0.6882 0.75859 0.0
C155 C 0.26321 0.62195 0.72336 0.0
O156 O 0.34479 0.60434 0.76313 0.0
C157 C 0.21241 0.7209 0.75584 0.0
O158 O 0.32594 0.66275 0.76802 0.0
O159 O 0.24799 0.72416 0.75377 0.0
C160 C 0.93169 0.10003 0.49608 0.0
O161 O 0.9226 0.0697 0.50341 0.0
Cd162 Cd 0.89099 0.06975 0.53091 0.0
O163 O 0.92695 0.1312 0.50391 0.0
Cd164 Cd 0.90517 0.15512 0.53229 0.0
C165 C 0.81738 0.1289 0.52085 0.0
O166 O 0.92571 0.10554 0.55207 0.0
O167 O 0.88175 0.14287 0.56132 0.0
O168 O 0.96172 0.19385 0.53173 0.0
C169 C 0.90494 0.11663 0.5645 0.0
O170 O 0.82818 0.09604 0.52491 0.0
C171 C 0.94497 0.22442 0.53534 0.0
O172 O 0.84055 0.15618 0.52121 0.0
O173 O 0.90935 0.22291 0.53766 0.0
C174 C 0.06215 0.43575 0.74211 0.0
O175 O 0.09346 0.42671 0.74902 0.0
Cd176 Cd 0.09582 0.38876 0.77442 0.0
O177 O 0.0311 0.42774 0.74955 0.0
Cd178 Cd 0.00985 0.39901 0.77698 0.0
C179 C 0.03831 0.31621 0.76109 0.0
O180 O 0.05983 0.4154 0.79774 0.0
O181 O 0.02487 0.36784 0.80413 0.0
O182 O 0.97241 0.45455 0.78277 0.0
C183 C 0.04982 0.39136 0.80882 0.0
O184 O 0.07127 0.32794 0.76512 0.0
C185 C 0.94093 0.43803 0.78462 0.0
O186 O 0.00941 0.3373 0.76307 0.0
O187 O 0.94093 0.40265 0.78245 0.0
C188 C 0.73726 0.56679 0.0045 0.0
O189 O 0.74486 0.59384 0.01468 0.0
Cd190 Cd 0.78016 0.58483 0.04075 0.0
O191 O 0.74386 0.53316 0.00895 0.0
Cd192 Cd 0.76589 0.49932 0.03497 0.0
C193 C 0.85248 0.52954 0.02436 0.0
O194 O 0.74772 0.54126 0.05849 0.0
O195 O 0.79289 0.50221 0.06423 0.0
O196 O 0.70764 0.46388 0.03658 0.0
C197 C 0.76943 0.52662 0.06965 0.0
O198 O 0.84151 0.56069 0.03083 0.0
C199 C 0.72274 0.43177 0.03492 0.0
O200 O 0.82998 0.50174 0.02337 0.0
O201 O 0.75848 0.43071 0.03278 0.0
C202 C 0.58423 0.20345 0.3019 0.0
O203 O 0.582 0.17005 0.29623 0.0
Cd204 Cd 0.61102 0.14924 0.2697 0.0
O205 O 0.60261 0.22792 0.29354 0.0
Cd206 Cd 0.63978 0.22995 0.26647 0.0
C207 C 0.70412 0.16574 0.27893 0.0
O208 O 0.59963 0.19258 0.24679 0.0
O209 O 0.65686 0.20375 0.23847 0.0
O210 O 0.60879 0.28946 0.26112 0.0
C211 C 0.6242 0.19125 0.23483 0.0
O212 O 0.67853 0.1421 0.27496 0.0
C213 C 0.63876 0.30803 0.25847 0.0
O214 O 0.69707 0.20081 0.27882 0.0
O215 O 0.66998 0.29052 0.26008 0.0
C216 C 0.09987 0.00032 0.28299 0.0
C217 C 0.09882 0.01546 0.2998 0.0
C218 C 0.13417 -0.00272 0.27389 0.0
C219 C 0.16822 0.00928 0.28187 0.0
C220 C 0.16724 0.02505 0.29874 0.0
C221 C 0.13255 0.02815 0.30745 0.0
C222 C 0.13407 0.98081 0.25584 0.0
C223 C 0.20299 0.03797 0.30774 0.0
C224 C 0.26389 0.97012 0.26839 0.0
C225 C 0.27956 0.00063 0.25968 0.0
C226 C 0.22698 0.97196 0.2751 0.0
C227 C 0.20515 0.00491 0.27284 0.0
C228 C 0.22003 0.03489 0.26315 0.0
C229 C 0.25717 0.03249 0.25678 0.0
C230 C 0.21219 0.93947 0.28544 0.0
C231 C 0.19741 0.07023 0.26021 0.0
H232 H 0.0739 0.99057 0.27697 0.0
H233 H 0.13204 0.03976 0.32045 0.0
H234 H 0.14745 0.00056 0.24671 0.0
H235 H 0.15109 0.95464 0.25554 0.0
H236 H 0.105 0.97434 0.25117 0.0
H237 H 0.19734 0.04979 0.32083 0.0
H238 H 0.22299 0.01411 0.30903 0.0
H239 H 0.2173 0.05962 0.29993 0.0
H240 H 0.28107 0.94545 0.2707 0.0
H241 H 0.26905 0.05607 0.24995 0.0
H242 H 0.18379 0.93096 0.28068 0.0
H243 H 0.20898 0.94815 0.29918 0.0
H244 H 0.23139 0.91478 0.28483 0.0
H245 H 0.16863 0.06333 0.25537 0.0
H246 H 0.21133 0.08912 0.25084 0.0
H247 H 0.19395 0.0856 0.27265 0.0
C248 C 0.17547 0.59978 0.53371 0.0
C249 C 0.15823 0.59743 0.55001 0.0
C250 C 0.18042 0.63456 0.52565 0.0
C251 C 0.1681 0.66768 0.53416 0.0
C252 C 0.15084 0.66544 0.55063 0.0
C253 C 0.14598 0.63039 0.5583 0.0
C254 C 0.19865 0.63587 0.50803 0.0
C255 C 0.13749 0.70014 0.56019 0.0
C256 C 0.2057 0.76439 0.52389 0.0
C257 C 0.1746 0.78023 0.5153 0.0
C258 C 0.20491 0.72696 0.52931 0.0
C259 C 0.17241 0.70487 0.5259 0.0
C260 C 0.1421 0.72 0.51617 0.0
C261 C 0.14347 0.75755 0.51107 0.0
C262 C 0.23777 0.71187 0.53969 0.0
C263 C 0.10717 0.69722 0.51204 0.0
H264 H 0.185 0.57444 0.52722 0.0
H265 H 0.13283 0.62891 0.57093 0.0
H266 H 0.17882 0.64868 0.49862 0.0
H267 H 0.22429 0.65377 0.50852 0.0
H268 H 0.20688 0.60761 0.50319 0.0
H269 H 0.12535 0.69364 0.57305 0.0
H270 H 0.16145 0.71984 0.56204 0.0
H271 H 0.11559 0.71479 0.55245 0.0
H272 H 0.22984 0.78177 0.5272 0.0
H273 H 0.11948 0.76954 0.50428 0.0
H274 H 0.24659 0.68398 0.53467 0.0
H275 H 0.22886 0.7082 0.55332 0.0
H276 H 0.2626 0.73091 0.53949 0.0
H277 H 0.11519 0.66934 0.50673 0.0
H278 H 0.08836 0.71144 0.5026 0.0
H279 H 0.09089 0.6925 0.52408 0.0
C280 C 0.54333 0.64941 0.82119 0.0
C281 C 0.57273 0.66833 0.81283 0.0
C282 C 0.50697 0.64745 0.81387 0.0
C283 C 0.49992 0.66459 0.79774 0.0
C284 C 0.52924 0.68439 0.7894 0.0
C285 C 0.56528 0.68613 0.79708 0.0
C286 C 0.47631 0.62629 0.82321 0.0
C287 C 0.52285 0.70284 0.77215 0.0
C288 C 0.42035 0.62173 0.77128 0.0
C289 C 0.39036 0.64672 0.77448 0.0
C290 C 0.45637 0.62785 0.77839 0.0
C291 C 0.46257 0.6596 0.7891 0.0
C292 C 0.43275 0.68552 0.79203 0.0
C293 C 0.39698 0.67886 0.7846 0.0
C294 C 0.48757 0.59979 0.77478 0.0
C295 C 0.43832 0.7196 0.80345 0.0
H296 H 0.54875 0.63586 0.83344 0.0
H297 H 0.58782 0.7009 0.79055 0.0
H298 H 0.45085 0.64426 0.82487 0.0
H299 H 0.4677 0.6015 0.8154 0.0
H300 H 0.48571 0.61658 0.83614 0.0
H301 H 0.54793 0.71901 0.76785 0.0
H302 H 0.51637 0.68119 0.76219 0.0
H303 H 0.49808 0.722 0.77284 0.0
H304 H 0.4156 0.59699 0.76335 0.0
H305 H 0.37393 0.69824 0.78717 0.0
H306 H 0.49636 0.58622 0.787 0.0
H307 H 0.5128 0.61417 0.76951 0.0
H308 H 0.47865 0.57763 0.76546 0.0
H309 H 0.44458 0.71069 0.81686 0.0
H310 H 0.41294 0.73808 0.80367 0.0
H311 H 0.46297 0.73605 0.79895 0.0
C312 C 0.52617 0.02843 0.04283 0.0
C313 C 0.54763 0.03294 0.058 0.0
C314 C 0.52468 0.99374 0.03415 0.0
C315 C 0.54473 0.96278 0.04095 0.0
C316 C 0.56598 0.96706 0.05639 0.0
C317 C 0.56738 0.00215 0.06466 0.0
C318 C 0.50213 0.99033 0.0176 0.0
C319 C 0.58741 0.93458 0.06414 0.0
C320 C 0.5196 0.86319 0.02758 0.0
C321 C 0.54941 0.85431 0.01629 0.0
C322 C 0.51712 0.89877 0.03542 0.0
C323 C 0.54478 0.92616 0.03165 0.0
C324 C 0.57395 0.91783 0.01969 0.0
C325 C 0.57607 0.88194 0.01226 0.0
C326 C 0.48581 0.90656 0.04825 0.0
C327 C 0.60362 0.94648 0.01512 0.0
H328 H 0.51084 0.05215 0.03761 0.0
H329 H 0.58374 0.00533 0.07646 0.0
H330 H 0.52117 0.98221 0.00679 0.0
H331 H 0.48059 0.96793 0.01878 0.0
H332 H 0.48753 0.01688 0.01422 0.0
H333 H 0.60128 0.94218 0.07659 0.0
H334 H 0.56789 0.91081 0.06637 0.0
H335 H 0.60951 0.92463 0.05499 0.0
H336 H 0.49898 0.84191 0.03079 0.0
H337 H 0.59896 0.87539 0.00339 0.0
H338 H 0.4703 0.93247 0.04474 0.0
H339 H 0.49819 0.91124 0.06129 0.0
H340 H 0.46524 0.88312 0.04897 0.0
H341 H 0.58989 0.97293 0.01098 0.0
H342 H 0.62268 0.9365 0.00462 0.0
H343 H 0.62111 0.9531 0.02668 0.0
C344 C 0.2658 0.56599 0.99237 0.0
C345 C 0.26322 0.54889 0.97601 0.0
C346 C 0.29799 0.58668 -0.00281 0.0
C347 C 0.32798 0.59083 0.98524 0.0
C348 C 0.32613 0.57249 0.96895 0.0
C349 C 0.29392 0.55148 0.96459 0.0
C350 C 0.29934 0.60516 0.01482 0.0
C351 C 0.35741 0.57645 0.95579 0.0
C352 C 0.39031 0.67724 0.98774 0.0
C353 C 0.42408 0.66243 0.99439 0.0
C354 C 0.35854 0.65434 0.98501 0.0
C355 C 0.36045 0.61589 0.98931 0.0
C356 C 0.39401 0.60113 -0.00335 0.0
C357 C 0.42555 0.62451 -0.00104 0.0
C358 C 0.32338 0.67101 0.97697 0.0
C359 C 0.39688 0.56046 0.00169 0.0
H360 H 0.24227 0.56392 0.0013 0.0
H361 H 0.29214 0.53846 0.9519 0.0
H362 H 0.3264 0.59837 0.02142 0.0
H363 H 0.29813 0.63604 0.01341 0.0
H364 H 0.27545 0.59635 0.02317 0.0
H365 H 0.35235 0.55914 0.944 0.0
H366 H 0.35982 0.6062 0.95192 0.0
H367 H 0.38501 0.56815 0.9615 0.0
H368 H 0.38908 0.70649 0.98414 0.0
H369 H 0.45152 0.61298 0.00424 0.0
H370 H 0.29845 0.66602 0.98534 0.0
H371 H 0.31766 0.65713 0.96433 0.0
H372 H 0.32606 0.70163 0.97486 0.0
H373 H 0.37287 0.55285 0.01019 0.0
H374 H 0.42385 0.5541 0.00851 0.0
H375 H 0.39507 0.54241 0.98997 0.0
C376 C 0.5494 0.73024 0.23476 0.0
C377 C 0.57318 0.7278 0.22029 0.0
C378 C 0.53155 0.76416 0.2393 0.0
C379 C 0.53717 0.79616 0.22894 0.0
C380 C 0.56107 0.7938 0.21429 0.0
C381 C 0.579 0.75976 0.21022 0.0
C382 C 0.50678 0.7658 0.25518 0.0
C383 C 0.56751 0.82721 0.20283 0.0
C384 C 0.46634 0.87661 0.23062 0.0
C385 C 0.48611 0.90325 0.24052 0.0
C386 C 0.48238 0.84136 0.22692 0.0
C387 C 0.51874 0.83241 0.23354 0.0
C388 C 0.53829 0.8588 0.24397 0.0
C389 C 0.52189 0.89396 0.24722 0.0
C390 C 0.4609 0.81408 0.21556 0.0
C391 C 0.57685 0.85012 0.25148 0.0
H392 H 0.54485 0.70568 0.24261 0.0
H393 H 0.59709 0.75804 0.19893 0.0
H394 H 0.51765 0.78736 0.26434 0.0
H395 H 0.47756 0.77417 0.25156 0.0
H396 H 0.50557 0.73852 0.26195 0.0
H397 H 0.58618 0.82047 0.19167 0.0
H398 H 0.53999 0.83769 0.19783 0.0
H399 H 0.58059 0.85032 0.21042 0.0
H400 H 0.43874 0.88364 0.22537 0.0
H401 H 0.53719 0.91426 0.25504 0.0
H402 H 0.45737 0.78703 0.2223 0.0
H403 H 0.47728 0.8083 0.20359 0.0
H404 H 0.43246 0.82484 0.21189 0.0
H405 H 0.57582 0.82366 0.25888 0.0
H406 H 0.58727 0.87282 0.26017 0.0
H407 H 0.59765 0.84601 0.24089 0.0
C408 C 0.38639 0.09664 0.4634 0.0
C409 C 0.42204 0.09142 0.47106 0.0
C410 C 0.3545 0.07729 0.46936 0.0
C411 C 0.35825 0.05263 0.4835 0.0
C412 C 0.39392 0.04816 0.49163 0.0
C413 C 0.42549 0.06737 0.48521 0.0
C414 C 0.31699 0.08253 0.46024 0.0
C415 C 0.39884 0.0227 0.50696 0.0
C416 C 0.26718 0.0283 0.50675 0.0
C417 C 0.25871 0.99294 0.49968 0.0
C418 C 0.30007 0.04754 0.50199 0.0
C419 C 0.32481 0.03132 0.48963 0.0
C420 C 0.31682 0.99534 0.48267 0.0
C421 C 0.28399 0.9764 0.4879 0.0
C422 C 0.30798 0.08553 0.50994 0.0
C423 C 0.34234 0.97734 0.4693 0.0
H424 H 0.38359 0.11495 0.45237 0.0
H425 H 0.45296 0.06335 0.49122 0.0
H426 H 0.30704 0.05527 0.45494 0.0
H427 H 0.29526 0.09259 0.46954 0.0
H428 H 0.31882 0.10283 0.44948 0.0
H429 H 0.42807 0.02363 0.5123 0.0
H430 H 0.37866 0.03075 0.51734 0.0
H431 H 0.39232 0.99341 0.50311 0.0
H432 H 0.24794 0.0411 0.51599 0.0
H433 H 0.27752 0.94917 0.48234 0.0
H434 H 0.30704 0.10727 0.4998 0.0
H435 H 0.33685 0.08604 0.51565 0.0
H436 H 0.2872 0.09315 0.52017 0.0
H437 H 0.34323 0.995 0.45758 0.0
H438 H 0.33268 0.94884 0.46549 0.0
H439 H 0.37171 0.97535 0.47435 0.0
C440 C 0.06304 0.86822 0.72236 0.0
C441 C 0.05924 0.90068 0.73259 0.0
C442 C 0.08662 0.83867 0.72752 0.0
C443 C 0.10638 0.84133 0.74344 0.0
C444 C 0.10099 0.87307 0.75428 0.0
C445 C 0.07772 0.90254 0.74865 0.0
C446 C 0.09183 0.80541 0.71552 0.0
C447 C 0.12092 0.87652 0.77151 0.0
C448 C 0.14857 0.75026 0.75974 0.0
C449 C 0.18627 0.75313 0.75417 0.0
C450 C 0.12255 0.77942 0.75697 0.0
C451 C 0.13437 0.81189 0.74815 0.0
C452 C 0.17264 0.81533 0.7429 0.0
C453 C 0.19822 0.78602 0.74612 0.0
C454 C 0.08219 0.77503 0.76306 0.0
C455 C 0.18624 0.84936 0.73329 0.0
H456 H 0.04899 0.86659 0.7099 0.0
H457 H 0.07473 0.92744 0.75667 0.0
H458 H 0.1217 0.80409 0.71109 0.0
H459 H 0.0859 0.77901 0.72245 0.0
H460 H 0.07309 0.80683 0.70399 0.0
H461 H 0.11072 0.90103 0.77916 0.0
H462 H 0.11668 0.85079 0.7792 0.0
H463 H 0.15185 0.87959 0.76942 0.0
H464 H 0.13925 0.72498 0.76609 0.0
H465 H 0.22728 0.78833 0.74174 0.0
H466 H 0.06294 0.77296 0.75173 0.0
H467 H 0.07333 0.79999 0.77071 0.0
H468 H 0.07842 0.74968 0.77108 0.0
H469 H 0.17093 0.85152 0.72078 0.0
H470 H 0.21716 0.84831 0.73064 0.0
H471 H 0.17993 0.87519 0.74083 0.0
C472 C 0.78111 0.54003 0.83857 0.0
C473 C 0.75644 0.56287 0.82908 0.0
C474 C 0.80895 0.51828 0.8303 0.0
C475 C 0.81187 0.51893 0.81205 0.0
C476 C 0.78617 0.54086 0.80233 0.0
C477 C 0.75892 0.56284 0.81098 0.0
C478 C 0.83614 0.49566 0.84115 0.0
C479 C 0.78805 0.54183 0.78284 0.0
C480 C 0.90958 0.49732 0.79425 0.0
C481 C 0.90668 0.4591 0.79007 0.0
C482 C 0.87859 0.51731 0.80094 0.0
C483 C 0.84363 0.49878 0.80335 0.0
C484 C 0.84001 0.46059 0.7985 0.0
C485 C 0.87168 0.4411 0.79199 0.0
C486 C 0.88374 0.55793 0.80605 0.0
C487 C 0.80301 0.44006 0.80067 0.0
H488 H 0.77944 0.53992 0.85257 0.0
H489 H 0.73974 0.5802 0.80355 0.0
H490 H 0.83604 0.46593 0.83687 0.0
H491 H 0.86539 0.50632 0.83943 0.0
H492 H 0.82906 0.49692 0.85513 0.0
H493 H 0.76397 0.55759 0.77713 0.0
H494 H 0.81487 0.55523 0.77877 0.0
H495 H 0.78804 0.51292 0.77744 0.0
H496 H 0.93648 0.51149 0.79278 0.0
H497 H 0.8692 0.41163 0.78871 0.0
H498 H 0.87982 0.56126 0.82022 0.0
H499 H 0.86203 0.57557 0.79966 0.0
H500 H 0.91224 0.56867 0.80261 0.0
H501 H 0.79642 0.43752 0.81463 0.0
H502 H 0.80384 0.41153 0.79483 0.0
H503 H 0.77951 0.45608 0.79466 0.0
C504 C 0.63328 0.24507 0.06826 0.0
C505 C 0.60125 0.23169 0.05944 0.0
C506 C 0.65212 0.27734 0.06283 0.0
C507 C 0.63931 0.29615 0.04787 0.0
C508 C 0.60756 0.28221 0.03861 0.0
C509 C 0.58845 0.2504 0.04468 0.0
C510 C 0.68515 0.29183 0.07338 0.0
C511 C 0.59379 0.30095 0.02234 0.0
C512 C 0.66575 0.39881 0.04591 0.0
C513 C 0.69984 0.39742 0.03663 0.0
C514 C 0.64511 0.36616 0.04919 0.0
C515 C 0.65831 0.33138 0.0426 0.0
C516 C 0.69167 0.33009 0.03244 0.0
C517 C 0.71243 0.3631 0.02981 0.0
C518 C 0.61033 0.36866 0.0605 0.0
C519 C 0.70602 0.2937 0.02479 0.0
H520 H 0.64307 0.23084 0.07976 0.0
H521 H 0.56386 0.23989 0.03778 0.0
H522 H 0.71097 0.29306 0.06527 0.0
H523 H 0.67908 0.32076 0.078 0.0
H524 H 0.69129 0.27407 0.08478 0.0
H525 H 0.57045 0.28513 0.01598 0.0
H526 H 0.58352 0.32962 0.02542 0.0
H527 H 0.61751 0.30373 0.01305 0.0
H528 H 0.65602 0.42528 0.05129 0.0
H529 H 0.73859 0.36203 0.0225 0.0
H530 H 0.61541 0.35313 0.07266 0.0
H531 H 0.58575 0.35541 0.05394 0.0
H532 H 0.60276 0.39806 0.06387 0.0
H533 H 0.71662 0.27539 0.03526 0.0
H534 H 0.72938 0.29814 0.01542 0.0
H535 H 0.68266 0.27855 0.01814 0.0
C536 C 0.88781 0.06946 0.31854 0.0
C537 C 0.92094 0.07636 0.30912 0.0
C538 C 0.85295 0.08486 0.31347 0.0
C539 C 0.85102 0.10707 0.29842 0.0
C540 C 0.88422 0.11345 0.28864 0.0
C541 C 0.91888 0.09831 0.2942 0.0
C542 C 0.81827 0.07782 0.32437 0.0
C543 C 0.8831 0.13629 0.27231 0.0
C544 C 0.75387 0.11606 0.27781 0.0
C545 C 0.74235 0.15177 0.28347 0.0
C546 C 0.78955 0.10163 0.28221 0.0
C547 C 0.81408 0.1231 0.29283 0.0
C548 C 0.80278 0.1593 0.29851 0.0
C549 C 0.76715 0.1734 0.2936 0.0
C550 C 0.80083 0.06323 0.27561 0.0
C551 C 0.82797 0.18275 0.31008 0.0
H552 H 0.88928 0.05284 0.33018 0.0
H553 H 0.94441 0.10365 0.28686 0.0
H554 H 0.80591 0.10488 0.32878 0.0
H555 H 0.79633 0.06324 0.31655 0.0
H556 H 0.82473 0.0606 0.33591 0.0
H557 H 0.91126 0.1379 0.26597 0.0
H558 H 0.86257 0.12388 0.26302 0.0
H559 H 0.87324 0.16515 0.2753 0.0
H560 H 0.735 0.09936 0.26981 0.0
H561 H 0.75832 0.20095 0.29805 0.0
H562 H 0.80481 0.04397 0.28665 0.0
H563 H 0.82829 0.06475 0.26869 0.0
H564 H 0.77931 0.051 0.26672 0.0
H565 H 0.83338 0.16777 0.32235 0.0
H566 H 0.81527 0.21052 0.31318 0.0
H567 H 0.85582 0.18717 0.30381 0.0
C568 C 0.05098 0.42369 0.54018 0.0
C569 C 0.07355 0.42432 0.55513 0.0
C570 C 0.03072 0.39137 0.53539 0.0
C571 C 0.03252 0.3593 0.54599 0.0
C572 C 0.05594 0.35954 0.56087 0.0
C573 C 0.07645 0.3919 0.56516 0.0
C574 C 0.00672 0.39183 0.51921 0.0
C575 C 0.05828 0.32608 0.57265 0.0
C576 C 0.95073 0.29039 0.54613 0.0
C577 C 0.96628 0.25985 0.53709 0.0
C578 C 0.97175 0.32327 0.54883 0.0
C579 C 0.00888 0.32587 0.54202 0.0
C580 C 0.02415 0.29563 0.53232 0.0
C581 C 0.00281 0.26281 0.53013 0.0
C582 C 0.95472 0.35471 0.55949 0.0
C583 C 0.06332 0.29763 0.52456 0.0
H584 H 0.04878 0.44861 0.53234 0.0
H585 H 0.09364 0.3922 0.57679 0.0
H586 H 0.01372 0.36736 0.51084 0.0
H587 H 0.97635 0.38954 0.5227 0.0
H588 H 0.01073 0.41783 0.51166 0.0
H589 H 0.07841 0.33053 0.58353 0.0
H590 H 0.02986 0.32011 0.57807 0.0
H591 H 0.06733 0.30087 0.56523 0.0
H592 H 0.92254 0.28818 0.55156 0.0
H593 H 0.01481 0.23937 0.52298 0.0
H594 H 0.95507 0.38117 0.5521 0.0
H595 H 0.97198 0.35931 0.57133 0.0
H596 H 0.92508 0.34877 0.5634 0.0
H597 H 0.06623 0.32346 0.51681 0.0
H598 H 0.06975 0.27303 0.51616 0.0
H599 H 0.08483 0.29901 0.53502 0.0
C600 C 0.60075 0.16578 0.49253 0.0
C601 C 0.59611 0.15242 0.47554 0.0
C602 C 0.63582 0.16288 0.50103 0.0
C603 C 0.66699 0.1465 0.49227 0.0
C604 C 0.66246 0.1329 0.47514 0.0
C605 C 0.62704 0.13587 0.46701 0.0
C606 C 0.63956 0.17737 0.51936 0.0
C607 C 0.69511 0.11544 0.46533 0.0
C608 C 0.76777 0.16796 0.50636 0.0
C609 C 0.77797 0.1348 0.5148 0.0
C610 C 0.73138 0.17255 0.49933 0.0
C611 C 0.70448 0.14345 0.50093 0.0
C612 C 0.71414 0.11052 0.50999 0.0
C613 C 0.75082 0.10651 0.51674 0.0
C614 C 0.72215 0.20798 0.48965 0.0
C615 C 0.68606 0.07906 0.51213 0.0
H616 H 0.57696 0.17852 0.49922 0.0
H617 H 0.62375 0.12559 0.45387 0.0
H618 H 0.64919 0.1545 0.52796 0.0
H619 H 0.66134 0.19969 0.51999 0.0
H620 H 0.61246 0.18887 0.52444 0.0
H621 H 0.68694 0.10648 0.45205 0.0
H622 H 0.71876 0.13575 0.46442 0.0
H623 H 0.70598 0.09069 0.47237 0.0
H624 H 0.78856 0.18994 0.50479 0.0
H625 H 0.75836 0.08092 0.52337 0.0
H626 H 0.69605 0.22109 0.49494 0.0
H627 H 0.71658 0.20114 0.47586 0.0
H628 H 0.74551 0.22874 0.49035 0.0
H629 H 0.65926 0.08996 0.51775 0.0
H630 H 0.69713 0.05649 0.52056 0.0
H631 H 0.67908 0.06671 0.4993 0.0
C632 C 0.01782 0.10172 0.73036 0.0
C633 C 0.02249 0.09907 0.71238 0.0
C634 C 0.01879 0.13657 0.7389 0.0
C635 C 0.02463 0.16949 0.72922 0.0
C636 C 0.02911 0.16702 0.71106 0.0
C637 C 0.02798 0.13184 0.70286 0.0
C638 C 0.01389 0.13816 0.75828 0.0
C639 C 0.03547 0.20153 0.7003 0.0
C640 C -0.00136 0.26468 0.74824 0.0
C641 C 0.03417 0.27806 0.7536 0.0
C642 C 0.99495 0.22909 0.74052 0.0
C643 C 0.02756 0.20645 0.73811 0.0
C644 C 0.06335 0.21953 0.74374 0.0
C645 C 0.06621 0.25511 0.75142 0.0
C646 C 0.95631 0.21596 0.73469 0.0
C647 C 0.09877 0.19618 0.74139 0.0
H648 H 0.01341 0.07653 0.7378 0.0
H649 H 0.03145 0.13008 0.68895 0.0
H650 H 0.03974 0.14994 0.76442 0.0
H651 H 0.98996 0.15702 0.76171 0.0
H652 H 0.00843 0.11012 0.76385 0.0
H653 H 0.03742 0.1949 0.68626 0.0
H654 H 0.012 0.22181 0.70235 0.0
H655 H 0.06205 0.21557 0.70442 0.0
H656 H 0.97372 0.28215 0.74989 0.0
H657 H 0.0938 0.26508 0.75554 0.0
H658 H 0.94956 0.18868 0.74068 0.0
H659 H 0.9562 0.21153 0.72047 0.0
H660 H 0.93359 0.23634 0.73807 0.0
H661 H 0.09524 0.16857 0.74764 0.0
H662 H 0.12428 0.20999 0.74693 0.0
H663 H 0.10374 0.19082 0.72742 0.0
C664 C 0.06288 0.51273 0.98453 0.0
C665 C 0.06251 0.53119 0.96859 0.0
C666 C 0.03022 0.51116 -0.00517 0.0
C667 C -0.00362 0.52827 0.98898 0.0
C668 C 0.99593 0.54725 0.97299 0.0
C669 C 0.02904 0.5486 0.96302 0.0
C670 C 0.03181 0.49096 0.01188 0.0
C671 C 0.96032 0.56574 0.96629 0.0
C672 C 0.90046 0.49719 0.00559 0.0
C673 C 0.89093 0.52686 0.01679 0.0
C674 C 0.93526 0.49668 -0.00317 0.0
C675 C 0.96124 0.52635 -0.00052 0.0
C676 C 0.95253 0.55545 0.01137 0.0
C677 C 0.91743 0.55544 0.01983 0.0
C678 C 0.94354 0.46522 0.98419 0.0
C679 C 0.97972 0.58733 0.0147 0.0
H680 H 0.08866 0.49924 0.98894 0.0
H681 H 0.02845 0.56282 0.9507 0.0
H682 H 0.02314 0.51016 0.02253 0.0
H683 H 0.01156 0.46725 0.01173 0.0
H684 H 0.06057 0.47991 0.01476 0.0
H685 H 0.96474 0.57942 0.95361 0.0
H686 H 0.9375 0.54462 0.96483 0.0
H687 H 0.95023 0.58717 0.9757 0.0
H688 H 0.88016 0.47502 0.00315 0.0
H689 H 0.91045 0.57832 0.02859 0.0
H690 H 0.97145 0.45235 0.98709 0.0
H691 H 0.94504 0.47651 0.97089 0.0
H692 H 0.92154 0.44303 0.98445 0.0
H693 H 0.00823 0.5763 0.01799 0.0
H694 H 0.97005 0.6061 0.02536 0.0
H695 H 0.98272 0.6042 0.0028 0.0
C696 C 0.62736 0.52333 0.22794 0.0
C697 C 0.62334 0.5229 0.20988 0.0
C698 C 0.62995 0.48982 0.23726 0.0
C699 C 0.62831 0.45511 0.2283 0.0
C700 C 0.62354 0.45451 0.21011 0.0
C701 C 0.62117 0.48838 0.20113 0.0
C702 C 0.63503 0.49155 0.25664 0.0
C703 C 0.62139 0.41803 0.2001 0.0
C704 C 0.66967 0.36614 0.24734 0.0
C705 C 0.63687 0.34736 0.25258 0.0
C706 C 0.66746 0.4019 0.23996 0.0
C707 C 0.6316 0.41922 0.23782 0.0
C708 C 0.59859 0.40105 0.24376 0.0
C709 C 0.60162 0.36535 0.25106 0.0
C710 C 0.70332 0.4205 0.23385 0.0
C711 C 0.55987 0.41864 0.24178 0.0
H712 H 0.6292 0.54988 0.2348 0.0
H713 H 0.61804 0.48775 0.18719 0.0
H714 H 0.61207 0.47578 0.26307 0.0
H715 H 0.66223 0.47806 0.26027 0.0
H716 H 0.63496 0.52077 0.26171 0.0
H717 H 0.61706 0.4224 0.18602 0.0
H718 H 0.64791 0.40178 0.20195 0.0
H719 H 0.59774 0.40075 0.20503 0.0
H720 H 0.697 0.35244 0.24849 0.0
H721 H 0.57613 0.35111 0.25516 0.0
H722 H 0.7053 0.44935 0.23922 0.0
H723 H 0.70273 0.4228 0.21955 0.0
H724 H 0.72914 0.40468 0.23762 0.0
H725 H 0.55977 0.44747 0.24725 0.0
H726 H 0.53739 0.40218 0.24824 0.0
H727 H 0.55271 0.42081 0.22784 0.0
C728 C 0.04186 0.92772 0.37946 0.0
C729 C 0.00457 0.94151 0.37888 0.0
C730 C 0.05853 0.91743 0.39521 0.0
C731 C 0.03734 0.92098 0.41065 0.0
C732 C -0.00169 0.93002 0.40978 0.0
C733 C 0.9823 0.94011 0.39386 0.0
C734 C 0.09993 0.90673 0.39552 0.0
C735 C 0.97428 0.93204 0.42589 0.0
C736 C 0.07926 0.89586 0.4545 0.0
C737 C 0.09083 0.93121 0.46054 0.0
C738 C 0.06217 0.89164 0.43815 0.0
C739 C 0.05733 0.92344 0.42757 0.0
C740 C 0.0704 0.95888 0.4334 0.0
C741 C 0.08636 0.96242 0.44992 0.0
C742 C 0.04856 0.85343 0.43246 0.0
C743 C 0.06731 0.99325 0.42224 0.0
H744 H 0.05912 0.92786 0.36788 0.0
H745 H 0.95315 0.94973 0.39346 0.0
H746 H 0.11692 0.93121 0.39983 0.0
H747 H 0.10517 0.88374 0.40478 0.0
H748 H 0.11012 0.89782 0.38252 0.0
H749 H 0.9448 0.94126 0.42315 0.0
H750 H 0.97336 0.90408 0.432 0.0
H751 H 0.98704 0.95167 0.43544 0.0
H752 H 0.08269 0.87167 0.46274 0.0
H753 H 0.09584 0.98966 0.45446 0.0
H754 H 0.05478 0.8482 0.41858 0.0
H755 H 0.01739 0.85196 0.43411 0.0
H756 H 0.06167 0.83077 0.44022 0.0
H757 H 0.08108 0.98808 0.40956 0.0
H758 H 0.08089 0.01807 0.42835 0.0
H759 H 0.03708 -0.00025 0.41967 0.0
C760 C 0.2592 0.54125 0.62557 0.0
C761 C 0.22107 0.53372 0.62206 0.0
C762 C 0.27064 0.55267 0.64225 0.0
C763 C 0.24291 0.5584 0.65527 0.0
C764 C 0.20439 0.55066 0.65166 0.0
C765 C 0.19408 0.53772 0.6352 0.0
C766 C 0.31213 0.55931 0.64585 0.0
C767 C 0.17368 0.55802 0.66485 0.0
C768 C 0.26169 0.56664 0.70343 0.0
C769 C 0.2616 0.60557 0.70582 0.0
C770 C 0.25835 0.5508 0.68681 0.0
C771 C 0.25331 0.57453 0.67241 0.0
C772 C 0.2539 0.61393 0.67478 0.0
C773 C 0.25876 0.62897 0.69145 0.0
C774 C 0.25887 0.50871 0.68474 0.0
C775 C 0.24718 0.6402 0.65988 0.0
H776 H 0.2799 0.53832 0.61531 0.0
H777 H 0.16443 0.53258 0.6323 0.0
H778 H 0.31726 0.58966 0.64789 0.0
H779 H 0.32078 0.54483 0.65787 0.0
H780 H 0.33037 0.54933 0.63505 0.0
H781 H 0.14537 0.54912 0.66011 0.0
H782 H 0.17997 0.54315 0.67704 0.0
H783 H 0.17251 0.5884 0.66797 0.0
H784 H 0.26434 0.54857 0.71456 0.0
H785 H 0.25853 0.6591 0.69335 0.0
H786 H 0.27747 0.50028 0.67382 0.0
H787 H 0.2299 0.49856 0.68172 0.0
H788 H 0.26887 0.49458 0.69665 0.0
H789 H 0.26743 0.6342 0.64927 0.0
H790 H 0.25007 0.67008 0.66379 0.0
H791 H 0.21823 0.63582 0.65462 0.0
C792 C 0.64094 0.71575 0.86815 0.0
C793 C 0.66771 0.74321 0.86423 0.0
C794 C 0.62185 0.71605 0.88405 0.0
C795 C 0.62791 0.74595 0.89586 0.0
C796 C 0.6528 0.77533 0.89144 0.0
C797 C 0.67273 0.77338 0.87577 0.0
C798 C 0.59653 0.68353 0.88851 0.0
C799 C 0.65989 0.80777 0.90367 0.0
C800 C 0.55696 0.75522 0.93257 0.0
C801 C 0.57684 0.73868 0.94627 0.0
C802 C 0.57357 0.75864 0.91617 0.0
C803 C 0.61074 0.74484 0.91338 0.0
C804 C 0.63132 0.7293 0.92733 0.0
C805 C 0.61408 0.72646 0.94357 0.0
C806 C 0.5515 0.77727 0.90186 0.0
C807 C 0.67135 0.71485 0.92544 0.0
H808 H 0.63516 0.6937 0.85894 0.0
H809 H 0.69295 0.79517 0.87278 0.0
H810 H 0.60701 0.67002 0.90049 0.0
H811 H 0.56734 0.69361 0.89112 0.0
H812 H 0.5954 0.66208 0.87802 0.0
H813 H 0.67612 0.83059 0.89745 0.0
H814 H 0.63265 0.81935 0.90852 0.0
H815 H 0.67622 0.79777 0.91501 0.0
H816 H 0.52832 0.76532 0.93465 0.0
H817 H 0.62999 0.71497 0.95426 0.0
H818 H 0.54624 0.75696 0.8912 0.0
H819 H 0.56827 0.80062 0.89643 0.0
H820 H 0.52382 0.78847 0.9064 0.0
H821 H 0.6709 0.68401 0.92659 0.0
H822 H 0.68925 0.72596 0.93614 0.0
H823 H 0.68503 0.72185 0.91302 0.0
C824 C 0.41467 0.08639 0.11451 0.0
C825 C 0.43008 0.12116 0.11001 0.0
C826 C 0.40742 0.07762 0.13184 0.0
C827 C 0.41553 0.10438 0.14495 0.0
C828 C 0.42677 0.14096 0.1403 0.0
C829 C 0.43386 0.14896 0.12286 0.0
C830 C 0.39543 0.03827 0.13619 0.0
C831 C 0.43527 0.17051 0.15383 0.0
C832 C 0.39385 0.08011 0.19182 0.0
C833 C 0.42945 0.06767 0.19755 0.0
C834 C 0.38876 0.09288 0.1748 0.0
C835 C 0.41973 0.09201 0.1632 0.0
C836 C 0.45547 0.07882 0.16891 0.0
C837 C 0.46004 0.06746 0.18607 0.0
C838 C 0.35046 0.10739 0.16927 0.0
C839 C 0.48901 0.07662 0.15687 0.0
H840 H 0.41114 0.06487 0.10466 0.0
H841 H 0.44535 0.17609 0.11955 0.0
H842 H 0.42038 0.02242 0.14097 0.0
H843 H 0.37385 0.03841 0.14659 0.0
H844 H 0.38376 0.02319 0.12473 0.0
H845 H 0.43517 0.19907 0.14826 0.0
H846 H 0.41445 0.16958 0.16454 0.0
H847 H 0.46377 0.1652 0.15939 0.0
H848 H 0.37016 0.08038 0.20072 0.0
H849 H 0.48749 0.05749 0.19041 0.0
H850 H 0.33951 0.09041 0.15827 0.0
H851 H 0.35311 0.13663 0.16469 0.0
H852 H 0.32943 0.10675 0.17993 0.0
H853 H 0.48142 0.06142 0.14478 0.0
H854 H 0.51354 0.06215 0.16285 0.0
H855 H 0.49766 0.10535 0.15327 0.0
C856 C 0.12956 0.55392 0.87905 0.0
C857 C 0.15622 0.55513 0.89252 0.0
C858 C 0.13946 0.56468 0.86223 0.0
C859 C 0.17705 0.57616 0.85882 0.0
C860 C 0.20335 0.57959 0.87258 0.0
C861 C 0.19251 0.56934 0.8893 0.0
C862 C 0.11008 0.56275 0.84803 0.0
C863 C 0.24371 0.59176 0.86947 0.0
C864 C 0.21984 0.55365 0.81501 0.0
C865 C 0.22003 0.58884 0.80712 0.0
C866 C 0.20515 0.54913 0.83168 0.0
C867 C 0.19018 0.58054 0.8407 0.0
C868 C 0.18936 0.61596 0.83268 0.0
C869 C 0.20433 0.61971 0.81598 0.0
C870 C 0.20628 0.5108 0.83978 0.0
C871 C 0.17365 0.65008 0.84189 0.0
H872 H 0.10128 0.54351 0.88154 0.0
H873 H 0.21328 0.57044 0.89964 0.0
H874 H 0.1044 0.59132 0.84313 0.0
H875 H 0.12071 0.54577 0.83696 0.0
H876 H 0.08291 0.55063 0.85254 0.0
H877 H 0.25944 0.5967 0.88173 0.0
H878 H 0.25879 0.56975 0.86191 0.0
H879 H 0.24432 0.61778 0.86176 0.0
H880 H 0.23173 0.52961 0.80827 0.0
H881 H 0.20425 0.64702 0.80998 0.0
H882 H 0.17729 0.5023 0.84355 0.0
H883 H 0.22378 0.51164 0.85171 0.0
H884 H 0.21811 0.4891 0.83091 0.0
H885 H 0.14486 0.64429 0.8469 0.0
H886 H 0.17221 0.67487 0.83334 0.0
H887 H 0.19182 0.65711 0.85318 0.0
C888 C 0.61253 0.69875 0.13018 0.0
C889 C 0.6115 0.66453 0.1389 0.0
C890 C 0.60764 0.70037 0.11223 0.0
C891 C 0.60188 0.66687 0.10266 0.0
C892 C 0.60025 0.63219 0.11137 0.0
C893 C 0.6049 0.63143 0.12945 0.0
C894 C 0.60914 0.73801 0.10348 0.0
C895 C 0.59389 0.59595 0.10159 0.0
C896 C 0.55933 0.68349 0.05836 0.0
C897 C 0.59192 0.6862 0.04805 0.0
C898 C 0.56192 0.67502 0.076 0.0
C899 C 0.59794 0.66873 0.08351 0.0
C900 C 0.6307 0.66883 0.07295 0.0
C901 C 0.62733 0.6778 0.05536 0.0
C902 C 0.52632 0.67531 0.0868 0.0
C903 C 0.66954 0.66141 0.08044 0.0
H904 H 0.61743 0.72447 0.1374 0.0
H905 H 0.60429 0.60486 0.1361 0.0
H906 H 0.63303 0.7385 0.09418 0.0
H907 H 0.5827 0.7428 0.09602 0.0
H908 H 0.61279 0.7615 0.11285 0.0
H909 H 0.59658 0.5711 0.11006 0.0
H910 H 0.56515 0.59597 0.09576 0.0
H911 H 0.6145 0.59317 0.09083 0.0
H912 H 0.53178 0.68973 0.05285 0.0
H913 H 0.65262 0.67935 0.04747 0.0
H914 H 0.52628 0.70042 0.09537 0.0
H915 H 0.52531 0.65036 0.09521 0.0
H916 H 0.50027 0.67592 0.07871 0.0
H917 H 0.67758 0.68474 0.08927 0.0
H918 H 0.69155 0.65865 0.07025 0.0
H919 H 0.6693 0.63539 0.08816 0.0
C920 C 0.4303 0.10058 0.38055 0.0
C921 C 0.46536 0.09854 0.38907 0.0
C922 C 0.42644 0.08911 0.36326 0.0
C923 C 0.45836 0.075 0.35425 0.0
C924 C 0.49384 0.07262 0.36277 0.0
C925 C 0.49695 0.08454 0.3801 0.0
C926 C 0.38815 0.09223 0.35461 0.0
C927 C 0.52841 0.05742 0.3536 0.0
C928 C 0.43618 0.01331 0.31539 0.0
C929 C 0.43944 0.03863 0.30171 0.0
C930 C 0.44336 0.02452 0.3325 0.0
C931 C 0.45408 0.06198 0.33603 0.0
C932 C 0.45833 0.08745 0.32224 0.0
C933 C 0.451 0.07545 0.30522 0.0
C934 C 0.43834 0.99656 0.34685 0.0
C935 C 0.47011 0.12747 0.32549 0.0
H936 H 0.40579 0.11165 0.38732 0.0
H937 H 0.52416 0.083 0.38658 0.0
H938 H 0.39018 0.11049 0.34312 0.0
H939 H 0.37873 0.06423 0.35 0.0
H940 H 0.36617 0.10392 0.36341 0.0
H941 H 0.5544 0.05967 0.36167 0.0
H942 H 0.52392 0.02753 0.35015 0.0
H943 H 0.53307 0.07268 0.34136 0.0
H944 H 0.42736 0.98475 0.31277 0.0
H945 H 0.45381 0.09508 0.29469 0.0
H946 H 0.41474 0.00563 0.35538 0.0
H947 H 0.4643 0.99528 0.35494 0.0
H948 H 0.43205 0.96797 0.34184 0.0
H949 H 0.45017 0.14122 0.33462 0.0
H950 H 0.47118 0.14409 0.31343 0.0
H951 H 0.49854 0.12786 0.33157 0.0
C952 C 0.06469 0.91405 0.64058 0.0
C953 C 0.06331 0.94833 0.64955 0.0
C954 C 0.07897 0.91179 0.62372 0.0
C955 C 0.09209 0.94465 0.6156 0.0
C956 C 0.09157 0.97923 0.62471 0.0
C957 C 0.07724 0.98066 0.64162 0.0
C958 C 0.07922 0.87435 0.61444 0.0
C959 C 0.10521 0.01485 0.61642 0.0
C960 C 0.15565 0.92902 0.57673 0.0
C961 C 0.12977 0.93204 0.56301 0.0
C962 C 0.14401 0.93425 0.59391 0.0
C963 C 0.10558 0.94264 0.59744 0.0
C964 C 0.07953 0.9468 0.58364 0.0
C965 C 0.09195 0.94142 0.56657 0.0
C966 C 0.17261 0.92978 0.60831 0.0
C967 C 0.03831 0.95586 0.58693 0.0
H968 H 0.05407 0.88894 0.64665 0.0
H969 H 0.07603 0.00729 0.64845 0.0
H970 H 0.06092 0.87569 0.60278 0.0
H971 H 0.10832 0.86744 0.61002 0.0
H972 H 0.06899 0.8513 0.62276 0.0
H973 H 0.10516 0.03896 0.62561 0.0
H974 H 0.13433 0.01096 0.61133 0.0
H975 H 0.08668 0.02182 0.60529 0.0
H976 H 0.18497 0.92195 0.57408 0.0
H977 H 0.07186 0.94395 0.55602 0.0
H978 H 0.16497 0.90535 0.61633 0.0
H979 H 0.17231 0.95485 0.6169 0.0
H980 H 0.20185 0.92558 0.60334 0.0
H981 H 0.02488 0.93248 0.59398 0.0
H982 H 0.02227 0.96054 0.57476 0.0
H983 H 0.03577 0.98127 0.59521 0.0
C984 C 0.73569 0.6417 0.90997 0.0
C985 C 0.70396 0.63408 0.89959 0.0
C986 C 0.73764 0.6293 0.92711 0.0
C987 C 0.70702 0.6089 0.93413 0.0
C988 C 0.67473 0.60135 0.92379 0.0
C989 C 0.67365 0.61389 0.90661 0.0
C990 C 0.77258 0.63799 0.93771 0.0
C991 C 0.64131 0.5802 0.93088 0.0
C992 C 0.73282 0.55013 0.97311 0.0
C993 C 0.72419 0.57483 0.98676 0.0
C994 C 0.72589 0.56019 0.95587 0.0
C995 C 0.7093 0.59544 0.95228 0.0
C996 C 0.69821 0.61923 0.96613 0.0
C997 C 0.70619 0.60886 0.98318 0.0
C998 C 0.73833 0.53404 0.9415 0.0
C999 C 0.67941 0.65641 0.96298 0.0
H1000 H 0.75923 0.65728 0.90468 0.0
H1001 H 0.64896 0.60793 0.8987 0.0
H1002 H 0.7647 0.65493 0.94926 0.0
H1003 H 0.78559 0.61161 0.94238 0.0
H1004 H 0.79416 0.65363 0.93025 0.0
H1005 H 0.61821 0.57691 0.92121 0.0
H1006 H 0.65046 0.55199 0.93514 0.0
H1007 H 0.62984 0.59507 0.9424 0.0
H1008 H 0.74688 0.52379 0.97582 0.0
H1009 H 0.69909 0.62784 0.99373 0.0
H1010 H 0.76223 0.5468 0.93437 0.0
H1011 H 0.71494 0.52961 0.9321 0.0
H1012 H 0.74766 0.50637 0.94643 0.0
H1013 H 0.70031 0.67593 0.95735 0.0
H1014 H 0.66804 0.66925 0.97505 0.0
H1015 H 0.65582 0.65292 0.95363 0.0
C1016 C 0.57571 0.09783 0.14211 0.0
C1017 C 0.56804 0.12732 0.13081 0.0
C1018 C 0.5869 0.10504 0.15928 0.0
C1019 C 0.58981 0.14258 0.16521 0.0
C1020 C 0.58298 0.17238 0.15368 0.0
C1021 C 0.57253 0.16437 0.13657 0.0
C1022 C 0.5947 0.07262 0.17116 0.0
C1023 C 0.58551 0.2128 0.15954 0.0
C1024 C 0.57815 0.1677 0.21267 0.0
C1025 C 0.61558 0.17574 0.21749 0.0
C1026 C 0.56947 0.15559 0.19581 0.0
C1027 C 0.599 0.15109 0.18358 0.0
C1028 C 0.63699 0.15769 0.18858 0.0
C1029 C 0.64481 0.17014 0.20546 0.0
C1030 C 0.5286 0.14891 0.19091 0.0
C1031 C 0.66925 0.1529 0.17594 0.0
H1032 H 0.57232 0.06918 0.13762 0.0
H1033 H 0.56632 0.18725 0.12788 0.0
H1034 H 0.62368 0.07497 0.17664 0.0
H1035 H 0.57461 0.07337 0.18218 0.0
H1036 H 0.59202 0.04512 0.16443 0.0
H1037 H 0.58028 0.23266 0.14882 0.0
H1038 H 0.5644 0.21831 0.16987 0.0
H1039 H 0.61393 0.21857 0.16509 0.0
H1040 H 0.55548 0.17189 0.22193 0.0
H1041 H 0.67386 0.17601 0.20915 0.0
H1042 H 0.52542 0.12056 0.18517 0.0
H1043 H 0.51973 0.16936 0.18097 0.0
H1044 H 0.5092 0.15153 0.20216 0.0
H1045 H 0.66767 0.12507 0.16948 0.0
H1046 H 0.69738 0.15567 0.1823 0.0
H1047 H 0.66702 0.17437 0.16571 0.0
C1048 C 0.94274 0.09569 0.39431 0.0
C1049 C 0.97854 0.08713 0.38744 0.0
C1050 C 0.93773 0.10153 0.41211 0.0
C1051 C 0.96932 0.09903 0.42333 0.0
C1052 C 0.00592 0.09287 0.41639 0.0
C1053 C 0.01013 0.08687 0.39851 0.0
C1054 C 0.89823 0.10826 0.41898 0.0
C1055 C 0.04037 0.09127 0.42796 0.0
C1056 C 0.95429 0.13303 0.46955 0.0
C1057 C 0.94514 0.09951 0.47793 0.0
C1058 C 0.96347 0.13329 0.45188 0.0
C1059 C 0.96334 0.09925 0.44237 0.0
C1060 C 0.95533 0.06522 0.45088 0.0
C1061 C 0.94649 0.06574 0.46854 0.0
C1062 C 0.97174 0.17015 0.44328 0.0
C1063 C 0.95493 0.02832 0.44118 0.0
H1064 H 0.91819 0.09623 0.38587 0.0
H1065 H 0.03795 0.08056 0.39332 0.0
H1066 H 0.8891 0.0837 0.4266 0.0
H1067 H 0.89785 0.13296 0.42778 0.0
H1068 H 0.87728 0.11284 0.40846 0.0
H1069 H 0.06684 0.08592 0.42058 0.0
H1070 H 0.04342 0.1181 0.43516 0.0
H1071 H 0.03685 0.06894 0.43771 0.0
H1072 H 0.9534 0.15929 0.47668 0.0
H1073 H 0.93956 0.0397 0.47488 0.0
H1074 H 0.94817 0.17732 0.43438 0.0
H1075 H -0.0021 0.16806 0.4354 0.0
H1076 H 0.97509 0.19338 0.45281 0.0
H1077 H 0.93266 0.02877 0.43104 0.0
H1078 H 0.9495 0.00425 0.44982 0.0
H1079 H 0.98245 0.02385 0.4346 0.0
C1080 C 0.06167 0.44812 0.6418 0.0
C1081 C 0.0704 0.48266 0.63432 0.0
C1082 C 0.05599 0.44504 0.65965 0.0
C1083 C 0.05881 0.47735 0.67031 0.0
C1084 C 0.06469 0.51279 0.66271 0.0
C1085 C 0.07049 0.51506 0.64476 0.0
C1086 C 0.04953 0.40671 0.6672 0.0
C1087 C 0.06698 0.54791 0.67367 0.0
C1088 C 0.02724 0.46193 0.71659 0.0
C1089 C 0.06166 0.45222 0.72456 0.0
C1090 C 0.026 0.47249 0.69914 0.0
C1091 C 0.05991 0.47302 0.68942 0.0
C1092 C 0.09495 0.46534 0.69766 0.0
C1093 C 0.09539 0.45518 0.71512 0.0
C1094 C 0.98815 0.48092 0.6909 0.0
C1095 C 0.13182 0.46532 0.68776 0.0
H1096 H 0.06111 0.42301 0.63381 0.0
H1097 H 0.07706 0.5419 0.63908 0.0
H1098 H 0.0746 0.39843 0.67498 0.0
H1099 H 0.02473 0.40721 0.67598 0.0
H1100 H 0.04474 0.38499 0.65705 0.0
H1101 H 0.07044 0.57347 0.66575 0.0
H1102 H 0.041 0.55095 0.68161 0.0
H1103 H 0.09129 0.54591 0.68275 0.0
H1104 H 0.00102 0.46002 0.7238 0.0
H1105 H 0.12216 0.44789 0.72113 0.0
H1106 H 0.97956 0.45693 0.68257 0.0
H1107 H 0.99002 0.50591 0.68254 0.0
H1108 H 0.96567 0.48574 0.70071 0.0
H1109 H 0.13306 0.44012 0.67926 0.0
H1110 H 0.15686 0.46497 0.69649 0.0
H1111 H 0.1337 0.49019 0.67935 0.0
C1112 C 0.52522 0.24601 0.39882 0.0
C1113 C 0.48748 0.23515 0.40149 0.0
C1114 C 0.5398 0.24937 0.38206 0.0
C1115 C 0.51593 0.24211 0.36769 0.0
C1116 C 0.47671 0.23633 0.37033 0.0
C1117 C 0.46289 0.23296 0.38724 0.0
C1118 C 0.58174 0.25601 0.37985 0.0
C1119 C 0.45004 0.22927 0.35538 0.0
C1120 C 0.55624 0.25101 0.32228 0.0
C1121 C 0.56621 0.21371 0.31854 0.0
C1122 C 0.5393 0.26086 0.33813 0.0
C1123 C 0.53304 0.23286 0.35061 0.0
C1124 C 0.5435 0.19527 0.34696 0.0
C1125 C 0.55949 0.1861 0.3309 0.0
C1126 C 0.52801 0.30107 0.3415 0.0
C1127 C 0.53795 0.16465 0.36006 0.0
H1128 H 0.54431 0.24853 0.40977 0.0
H1129 H 0.43351 0.22524 0.38913 0.0
H1130 H 0.59601 0.2289 0.37701 0.0
H1131 H 0.58728 0.2749 0.36885 0.0
H1132 H 0.59471 0.26825 0.39172 0.0
H1133 H 0.42011 0.23471 0.35909 0.0
H1134 H 0.45727 0.24689 0.34413 0.0
H1135 H 0.45246 0.19952 0.35128 0.0
H1136 H 0.56126 0.27243 0.31272 0.0
H1137 H 0.56742 0.1573 0.32813 0.0
H1138 H 0.54301 0.31203 0.3531 0.0
H1139 H 0.4972 0.30277 0.34424 0.0
H1140 H 0.53448 0.31944 0.33038 0.0
H1141 H 0.55122 0.17255 0.37259 0.0
H1142 H 0.55035 0.13757 0.35571 0.0
H1143 H 0.50722 0.16064 0.36242 0.0
C1144 C 0.90992 0.00133 0.65347 0.0
C1145 C 0.92041 0.02641 0.66668 0.0
C1146 C 0.90332 0.01394 0.63656 0.0
C1147 C 0.90854 0.0523 0.63273 0.0
C1148 C 0.91764 0.07792 0.64619 0.0
C1149 C 0.92284 0.06474 0.66304 0.0
C1150 C 0.89234 0.986 0.62268 0.0
C1151 C 0.92427 0.11892 0.64261 0.0
C1152 C 0.93828 0.08051 0.58751 0.0
C1153 C 0.90531 0.09797 0.58145 0.0
C1154 C 0.93954 0.0648 0.60409 0.0
C1155 C 0.90663 0.06564 0.61459 0.0
C1156 C 0.87277 0.08168 0.60816 0.0
C1157 C 0.87269 0.09822 0.59178 0.0
C1158 C 0.97644 0.04859 0.61061 0.0
C1159 C 0.83681 0.08196 0.61871 0.0
H1160 H 0.90804 0.97167 0.65623 0.0
H1161 H 0.93139 0.08429 0.67311 0.0
H1162 H 0.86843 0.99692 0.61484 0.0
H1163 H 0.91659 0.98134 0.61381 0.0
H1164 H 0.88406 0.95859 0.62818 0.0
H1165 H 0.9302 0.13532 0.65459 0.0
H1166 H 0.9487 0.12189 0.63371 0.0
H1167 H 0.89921 0.13129 0.63612 0.0
H1168 H 0.96351 0.08033 0.57953 0.0
H1169 H 0.84698 0.11125 0.587 0.0
H1170 H 0.9725 0.01894 0.61433 0.0
H1171 H 0.98578 0.06414 0.62235 0.0
H1172 H -0.00065 0.04991 0.6008 0.0
H1173 H 0.8307 0.0534 0.6235 0.0
H1174 H 0.81201 0.09198 0.61116 0.0
H1175 H 0.84035 0.10048 0.63019 0.0
C1176 C 0.08509 0.41359 0.90856 0.0
C1177 C 0.1234 0.41464 0.91343 0.0
C1178 C 0.07438 0.40371 0.89167 0.0
C1179 C 0.10258 0.39359 0.8795 0.0
C1180 C 0.14087 0.39074 0.88484 0.0
C1181 C 0.15093 0.40172 0.90173 0.0
C1182 C 0.03327 0.40763 0.88647 0.0
C1183 C 0.17161 0.37894 0.87238 0.0
C1184 C 0.06502 0.35808 0.8363 0.0
C1185 C 0.06623 0.39077 0.82639 0.0
C1186 C 0.0786 0.3579 0.85339 0.0
C1187 C 0.09258 0.39149 0.86084 0.0
C1188 C 0.09457 0.42431 0.85073 0.0
C1189 C 0.08182 0.42341 0.83355 0.0
C1190 C 0.07719 0.32209 0.86358 0.0
C1191 C 0.10854 0.4609 0.8583 0.0
H1192 H 0.06355 0.42339 0.91751 0.0
H1193 H 0.18056 0.40208 0.90545 0.0
H1194 H 0.03006 0.43202 0.87779 0.0
H1195 H 0.02362 0.38249 0.87921 0.0
H1196 H 0.01442 0.41191 0.89781 0.0
H1197 H 0.19814 0.37108 0.87922 0.0
H1198 H 0.16219 0.35488 0.86427 0.0
H1199 H 0.17802 0.40245 0.86358 0.0
H1200 H 0.05332 0.33265 0.83071 0.0
H1201 H 0.08267 0.44874 0.82593 0.0
H1202 H 0.05566 0.32469 0.87396 0.0
H1203 H 0.10491 0.31682 0.86993 0.0
H1204 H 0.06989 0.29752 0.85532 0.0
H1205 H 0.08925 0.47036 0.86879 0.0
H1206 H 0.10994 0.48312 0.84842 0.0
H1207 H 0.13712 0.45735 0.86404 0.0
C1208 C 0.75575 0.62383 0.16256 0.0
C1209 C 0.74078 0.59799 0.17423 0.0
C1210 C 0.76826 0.61221 0.14615 0.0
C1211 C 0.76472 0.57409 0.14123 0.0
C1212 C 0.75298 0.54745 0.15354 0.0
C1213 C 0.74171 0.5597 0.17002 0.0
C1214 C 0.78201 0.64127 0.1336 0.0
C1215 C 0.74803 0.50664 0.14875 0.0
C1216 C 0.73593 0.5553 0.09474 0.0
C1217 C 0.76894 0.53935 0.08784 0.0
C1218 C 0.73432 0.56665 0.11212 0.0
C1219 C 0.76697 0.5631 0.12268 0.0
C1220 C 0.80078 0.54805 0.11564 0.0
C1221 C 0.80118 0.53573 0.09833 0.0
C1222 C 0.69744 0.582 0.11918 0.0
C1223 C 0.83645 0.5451 0.12636 0.0
H1224 H 0.7554 0.65344 0.16583 0.0
H1225 H 0.73012 0.53951 0.17894 0.0
H1226 H 0.80619 0.63038 0.12588 0.0
H1227 H 0.75883 0.64832 0.12447 0.0
H1228 H 0.79086 0.66743 0.14036 0.0
H1229 H 0.74375 0.48888 0.1603 0.0
H1230 H 0.72289 0.50363 0.1402 0.0
H1231 H 0.77291 0.49593 0.14149 0.0
H1232 H 0.71097 0.55811 0.08664 0.0
H1233 H 0.82689 0.5238 0.09293 0.0
H1234 H 0.70079 0.61204 0.12263 0.0
H1235 H 0.68931 0.56701 0.13111 0.0
H1236 H 0.67392 0.5794 0.1097 0.0
H1237 H 0.84373 0.57293 0.13193 0.0
H1238 H 0.86092 0.53463 0.11868 0.0
H1239 H 0.83184 0.52591 0.13734 0.0
loop_
_geom_bond_atom_site_label_1
_geom_bond_atom_site_label_2
_geom_bond_distance
_geom_bond_site_symmetry_2
_ccdc_geom_bond_type
Mg0 O7 2.141 . S
Mg0 O8 2.048 1_545 S
Mg0 O9 2.048 1_455 S
Mg0 O12 2.141 1_455 S
C1 O2 1.313 . S
C1 O8 1.195 . S
O2 C1 1.313 . S
C3 O4 1.245 . S
C3 O12 1.289 . S
O4 C3 1.245 . S
C5 O6 1.245 . S
C5 O7 1.289 1_565 S
O6 C5 1.245 . S
O7 Mg0 2.141 . S
O7 C5 1.289 1_545 S
O8 Mg0 2.048 1_565 S
O8 C1 1.195 . S
O9 Mg0 2.048 1_655 S
O9 C10 1.195 . S
C10 O9 1.195 . S
C10 O11 1.313 1_545 S
O11 C10 1.313 1_565 S
O12 Mg0 2.141 1_655 S
O12 C3 1.289 . S
Mg13 O20 2.141 . S
Mg13 O21 2.048 . S
Mg13 O22 2.048 . S
Mg13 O25 2.141 . S
C14 O15 1.313 . S
C14 O21 1.195 . S
O15 C14 1.313 . S
C16 O17 1.245 . S
C16 O25 1.289 . S
O17 C16 1.245 . S
C18 O19 1.245 . S
C18 O20 1.289 . S
O19 C18 1.245 . S
O20 Mg13 2.141 . S
O20 C18 1.289 . S
O21 Mg13 2.048 . S
O21 C14 1.195 . S
O22 Mg13 2.048 . S
O22 C23 1.195 . S
C23 O22 1.195 . S
C23 O24 1.313 . S
O24 C23 1.313 . S
O25 Mg13 2.141 . S
O25 C16 1.289 . S
Mg26 O33 2.141 . S
Mg26 O34 2.048 . S
Mg26 O35 2.048 . S
Mg26 O38 2.141 . S
C27 O28 1.313 . S
C27 O34 1.195 . S
O28 C27 1.313 . S
C29 O30 1.245 . S
C29 O38 1.289 . S
O30 C29 1.245 . S
C31 O32 1.245 . S
C31 O33 1.289 . S
O32 C31 1.245 . S
O33 Mg26 2.141 . S
O33 C31 1.289 . S
O34 Mg26 2.048 . S
O34 C27 1.195 . S
O35 Mg26 2.048 . S
O35 C36 1.195 . S
C36 O35 1.195 . S
C36 O37 1.313 . S
O37 C36 1.313 . S
O38 Mg26 2.141 . S
O38 C29 1.289 . S
Mg39 O46 2.141 . S
Mg39 O47 2.048 . S
Mg39 O48 2.048 . S
Mg39 O51 2.141 . S
C40 O41 1.313 . S
C40 O47 1.195 . S
O41 C40 1.313 . S
C42 O43 1.245 . S
C42 O51 1.289 . S
O43 C42 1.245 . S
C44 O45 1.245 . S
C44 O46 1.289 . S
O45 C44 1.245 . S
O46 Mg39 2.141 . S
O46 C44 1.289 . S
O47 Mg39 2.048 . S
O47 C40 1.195 . S
O48 Mg39 2.048 . S
O48 C49 1.195 . S
C49 O48 1.195 . S
C49 O50 1.313 . S
O50 C49 1.313 . S
O51 Mg39 2.141 . S
O51 C42 1.289 . S
Mg52 O59 2.141 . S
Mg52 O60 2.048 . S
Mg52 O61 2.048 . S
Mg52 O64 2.141 . S
C53 O54 1.313 . S
C53 O60 1.195 . S
O54 C53 1.313 . S
C55 O56 1.245 . S
C55 O64 1.289 . S
O56 C55 1.245 . S
C57 O58 1.245 . S
C57 O59 1.289 . S
O58 C57 1.245 . S
O59 Mg52 2.141 . S
O59 C57 1.289 . S
O60 Mg52 2.048 . S
O60 C53 1.195 . S
O61 Mg52 2.048 . S
O61 C62 1.195 . S
C62 O61 1.195 . S
C62 O63 1.313 . S
O63 C62 1.313 . S
O64 Mg52 2.141 . S
O64 C55 1.289 . S
Mg65 O72 2.141 . S
Mg65 O73 2.048 . S
Mg65 O74 2.048 . S
Mg65 O77 2.141 . S
C66 O67 1.313 . S
C66 O73 1.195 . S
O67 C66 1.313 . S
C68 O69 1.245 . S
C68 O77 1.289 . S
O69 C68 1.245 . S
C70 O71 1.245 . S
C70 O72 1.289 . S
O71 C70 1.245 . S
O72 Mg65 2.141 . S
O72 C70 1.289 . S
O73 Mg65 2.048 . S
O73 C66 1.195 . S
O74 Mg65 2.048 . S
O74 C75 1.195 . S
C75 O74 1.195 . S
C75 O76 1.313 . S
O76 C75 1.313 . S
O77 Mg65 2.141 . S
O77 C68 1.289 . S
Mg78 O85 2.141 . S
Mg78 O86 2.048 . S
Mg78 O87 2.048 . S
Mg78 O90 2.141 . S
C79 O80 1.313 . S
C79 O86 1.195 . S
O80 C79 1.313 . S
C81 O82 1.245 . S
C81 O90 1.289 . S
O82 C81 1.245 . S
C83 O84 1.245 . S
C83 O85 1.289 . S
O84 C83 1.245 . S
O85 Mg78 2.141 . S
O85 C83 1.289 . S
O86 Mg78 2.048 . S
O86 C79 1.195 . S
O87 Mg78 2.048 . S
O87 C88 1.195 . S
C88 O87 1.195 . S
C88 O89 1.313 . S
O89 C88 1.313 . S
O90 Mg78 2.141 . S
O90 C81 1.289 . S
Mg91 O98 2.141 . S
Mg91 O99 2.048 . S
Mg91 O100 2.048 1_465 S
Mg91 O103 2.141 1_465 S
C92 O93 1.313 . S
C92 O99 1.195 . S
O93 C92 1.313 . S
C94 O95 1.245 1_655 S
C94 O103 1.289 . S
O95 C94 1.245 1_455 S
C96 O97 1.245 . S
C96 O98 1.289 . S
O97 C96 1.245 . S
O98 Mg91 2.141 . S
O98 C96 1.289 . S
O99 Mg91 2.048 . S
O99 C92 1.195 . S
O100 Mg91 2.048 1_645 S
O100 C101 1.195 . S
C101 O100 1.195 . S
C101 O102 1.313 1_655 S
O102 C101 1.313 1_455 S
O103 Mg91 2.141 1_645 S
O103 C94 1.289 . S
C104 O105 1.306 . S
C104 O107 1.160 . S
O105 C104 1.306 . S
O105 Cd106 2.228 . S
Cd106 O105 2.228 . S
Cd106 O110 2.249 1_554 S
Cd106 O114 2.277 . S
O107 C104 1.160 . S
O107 Cd108 2.203 . S
Cd108 O107 2.203 . S
Cd108 O110 2.395 1_554 S
Cd108 O111 2.333 1_554 S
Cd108 O112 2.352 . S
Cd108 O116 2.277 . S
Cd108 O117 2.356 . S
C109 O114 1.209 . S
C109 O116 1.226 . S
O110 Cd106 2.249 1_556 S
O110 Cd108 2.395 1_556 S
O110 C113 1.353 . S
O111 Cd108 2.333 1_556 S
O111 C113 1.214 . S
O112 Cd108 2.352 . S
O112 C115 1.258 . S
C113 O110 1.353 . S
C113 O111 1.214 . S
O114 Cd106 2.277 . S
O114 C109 1.209 . S
C115 O112 1.258 . S
C115 O117 1.282 . S
O116 Cd108 2.277 . S
O116 C109 1.226 . S
O117 Cd108 2.356 . S
O117 C115 1.282 . S
C118 O119 1.306 . S
C118 O121 1.160 . S
O119 C118 1.306 . S
O119 Cd120 2.228 . S
Cd120 O119 2.228 . S
Cd120 O124 2.273 . S
Cd120 O128 2.277 . S
O121 C118 1.160 . S
O121 Cd122 2.203 . S
Cd122 O121 2.203 . S
Cd122 O124 2.411 . S
Cd122 O125 2.333 . S
Cd122 O126 2.352 . S
Cd122 O130 2.277 . S
Cd122 O131 2.356 . S
C123 O128 1.209 . S
C123 O130 1.226 . S
O124 Cd120 2.273 . S
O124 Cd122 2.411 . S
O124 C127 1.320 . S
O125 Cd122 2.333 . S
O125 C127 1.214 . S
O126 Cd122 2.352 . S
O126 C129 1.258 . S
C127 O124 1.320 . S
C127 O125 1.214 . S
O128 Cd120 2.277 . S
O128 C123 1.209 . S
C129 O126 1.258 . S
C129 O131 1.282 . S
O130 Cd122 2.277 . S
O130 C123 1.226 . S
O131 Cd122 2.356 . S
O131 C129 1.282 . S
C132 O133 1.306 . S
C132 O135 1.160 . S
O133 C132 1.306 . S
O133 Cd134 2.228 . S
Cd134 O133 2.228 . S
Cd134 O138 2.273 . S
Cd134 O142 2.277 . S
O135 C132 1.160 . S
O135 Cd136 2.203 . S
Cd136 O135 2.203 . S
Cd136 O138 2.411 . S
Cd136 O139 2.333 . S
Cd136 O140 2.352 . S
Cd136 O144 2.277 . S
Cd136 O145 2.356 . S
C137 O142 1.209 . S
C137 O144 1.226 . S
O138 Cd134 2.273 . S
O138 Cd136 2.411 . S
O138 C141 1.320 . S
O139 Cd136 2.333 . S
O139 C141 1.214 . S
O140 Cd136 2.352 . S
O140 C143 1.258 . S
C141 O138 1.320 . S
C141 O139 1.214 . S
O142 Cd134 2.277 . S
O142 C137 1.209 . S
C143 O140 1.258 . S
C143 O145 1.282 . S
O144 Cd136 2.277 . S
O144 C137 1.226 . S
O145 Cd136 2.356 . S
O145 C143 1.282 . S
C146 O147 1.306 . S
C146 O149 1.160 . S
O147 C146 1.306 . S
O147 Cd148 2.228 . S
Cd148 O147 2.228 . S
Cd148 O152 2.273 . S
Cd148 O156 2.277 . S
O149 C146 1.160 . S
O149 Cd150 2.203 . S
Cd150 O149 2.203 . S
Cd150 O152 2.411 . S
Cd150 O153 2.333 . S
Cd150 O154 2.352 . S
Cd150 O158 2.277 . S
Cd150 O159 2.356 . S
C151 O156 1.209 . S
C151 O158 1.226 . S
O152 Cd148 2.273 . S
O152 Cd150 2.411 . S
O152 C155 1.320 . S
O153 Cd150 2.333 . S
O153 C155 1.214 . S
O154 Cd150 2.352 . S
O154 C157 1.258 . S
C155 O152 1.320 . S
C155 O153 1.214 . S
O156 Cd148 2.277 . S
O156 C151 1.209 . S
C157 O154 1.258 . S
C157 O159 1.282 . S
O158 Cd150 2.277 . S
O158 C151 1.226 . S
O159 Cd150 2.356 . S
O159 C157 1.282 . S
C160 O161 1.306 . S
C160 O163 1.160 . S
O161 C160 1.306 . S
O161 Cd162 2.228 . S
Cd162 O161 2.228 . S
Cd162 O166 2.273 . S
Cd162 O170 2.277 . S
O163 C160 1.160 . S
O163 Cd164 2.203 . S
Cd164 O163 2.203 . S
Cd164 O166 2.411 . S
Cd164 O167 2.333 . S
Cd164 O168 2.352 . S
Cd164 O172 2.277 . S
Cd164 O173 2.356 . S
C165 O170 1.209 . S
C165 O172 1.226 . S
O166 Cd162 2.273 . S
O166 Cd164 2.411 . S
O166 C169 1.320 . S
O167 Cd164 2.333 . S
O167 C169 1.214 . S
O168 Cd164 2.352 . S
O168 C171 1.258 . S
C169 O166 1.320 . S
C169 O167 1.214 . S
O170 Cd162 2.277 . S
O170 C165 1.209 . S
C171 O168 1.258 . S
C171 O173 1.282 . S
O172 Cd164 2.277 . S
O172 C165 1.226 . S
O173 Cd164 2.356 . S
O173 C171 1.282 . S
C174 O175 1.306 1_655 S
C174 O177 1.160 . S
O175 C174 1.306 1_455 S
O175 Cd176 2.228 . S
Cd176 O175 2.228 . S
Cd176 O180 2.273 1_455 S
Cd176 O184 2.277 1_455 S
O177 C174 1.160 . S
O177 Cd178 2.203 . S
Cd178 O177 2.203 . S
Cd178 O180 2.411 . S
Cd178 O181 2.333 . S
Cd178 O182 2.352 . S
Cd178 O186 2.277 . S
Cd178 O187 2.356 . S
C179 O184 1.209 . S
C179 O186 1.226 . S
O180 Cd176 2.273 1_655 S
O180 Cd178 2.411 . S
O180 C183 1.320 . S
O181 Cd178 2.333 . S
O181 C183 1.214 . S
O182 Cd178 2.352 . S
O182 C185 1.258 . S
C183 O180 1.320 . S
C183 O181 1.214 . S
O184 Cd176 2.277 1_655 S
O184 C179 1.209 . S
C185 O182 1.258 . S
C185 O187 1.282 . S
O186 Cd178 2.277 . S
O186 C179 1.226 . S
O187 Cd178 2.356 . S
O187 C185 1.282 . S
C188 O189 1.306 1_556 S
C188 O191 1.160 1_556 S
O189 C188 1.306 1_554 S
O189 Cd190 2.228 . S
Cd190 O189 2.228 . S
Cd190 O194 2.273 . S
Cd190 O198 2.277 . S
O191 C188 1.160 1_554 S
O191 Cd192 2.203 . S
Cd192 O191 2.203 . S
Cd192 O194 2.411 . S
Cd192 O195 2.333 . S
Cd192 O196 2.352 . S
Cd192 O200 2.277 . S
Cd192 O201 2.356 . S
C193 O198 1.209 . S
C193 O200 1.226 . S
O194 Cd190 2.273 . S
O194 Cd192 2.411 . S
O194 C197 1.320 . S
O195 Cd192 2.333 . S
O195 C197 1.214 . S
O196 Cd192 2.352 . S
O196 C199 1.258 . S
C197 O194 1.320 . S
C197 O195 1.214 . S
O198 Cd190 2.277 . S
O198 C193 1.209 . S
C199 O196 1.258 . S
C199 O201 1.282 . S
O200 Cd192 2.277 . S
O200 C193 1.226 . S
O201 Cd192 2.356 . S
O201 C199 1.282 . S
C202 O203 1.306 . S
C202 O205 1.160 . S
O203 C202 1.306 . S
O203 Cd204 2.228 . S
Cd204 O203 2.228 . S
Cd204 O208 2.273 . S
Cd204 O212 2.277 . S
O205 C202 1.160 . S
O205 Cd206 2.203 . S
Cd206 O205 2.203 . S
Cd206 O208 2.411 . S
Cd206 O209 2.333 . S
Cd206 O210 2.352 . S
Cd206 O214 2.277 . S
Cd206 O215 2.356 . S
C207 O212 1.209 . S
C207 O214 1.226 . S
O208 Cd204 2.273 . S
O208 Cd206 2.411 . S
O208 C211 1.320 . S
O209 Cd206 2.333 . S
O209 C211 1.214 . S
O210 Cd206 2.352 . S
O210 C213 1.258 . S
C211 O208 1.320 . S
C211 O209 1.214 . S
O212 Cd204 2.277 . S
O212 C207 1.209 . S
C213 O210 1.258 . S
C213 O215 1.282 . S
O214 Cd206 2.277 . S
O214 C207 1.226 . S
O215 Cd206 2.356 . S
O215 C213 1.282 . S
C216 C217 1.391 . S
C216 C218 1.394 . S
C216 H232 0.931 . S
C217 C216 1.391 . S
C217 C221 1.376 . S
C218 C216 1.394 . S
C218 C219 1.369 . S
C218 C222 1.531 . S
C219 C218 1.369 . S
C219 C220 1.410 . S
C219 C227 1.503 . S
C220 C219 1.410 . S
C220 C221 1.392 . S
C220 C223 1.511 . S
C221 C217 1.376 . S
C221 C220 1.392 . S
C221 H233 0.929 . S
C222 C218 1.531 . S
C222 H234 0.960 . S
C222 H235 0.962 . S
C222 H236 0.960 . S
C223 C220 1.511 . S
C223 H237 0.961 . S
C223 H238 0.961 . S
C223 H239 0.961 1_565 S
C224 C225 1.370 . S
C224 C226 1.363 . S
C224 H240 0.931 . S
C225 C224 1.370 . S
C225 C229 1.408 . S
C226 C224 1.363 . S
C226 C227 1.370 . S
C226 C230 1.524 . S
C227 C219 1.503 . S
C227 C226 1.370 . S
C227 C228 1.403 . S
C228 C227 1.403 . S
C228 C229 1.404 . S
C228 C231 1.539 1_565 S
C229 C225 1.408 . S
C229 C228 1.404 . S
C229 H241 0.930 . S
C230 C226 1.524 . S
C230 H242 0.956 . S
C230 H243 0.961 . S
C230 H244 0.961 . S
C231 C228 1.539 1_545 S
C231 H245 0.958 . S
C231 H246 0.961 . S
C231 H247 0.960 . S
H232 C216 0.931 . S
H233 C221 0.929 . S
H234 C222 0.960 . S
H235 C222 0.962 . S
H236 C222 0.960 . S
H237 C223 0.961 . S
H238 C223 0.961 . S
H239 C223 0.961 1_545 S
H240 C224 0.931 . S
H241 C229 0.930 . S
H242 C230 0.956 . S
H243 C230 0.961 . S
H244 C230 0.961 . S
H245 C231 0.958 . S
H246 C231 0.961 . S
H247 C231 0.960 . S
C248 C249 1.391 . S
C248 C250 1.394 . S
C248 H264 0.931 . S
C249 C248 1.391 . S
C249 C253 1.376 . S
C250 C248 1.394 . S
C250 C251 1.369 . S
C250 C254 1.531 . S
C251 C250 1.369 . S
C251 C252 1.410 . S
C251 C259 1.503 . S
C252 C251 1.410 . S
C252 C253 1.392 . S
C252 C255 1.511 . S
C253 C249 1.376 . S
C253 C252 1.392 . S
C253 H265 0.929 . S
C254 C250 1.531 . S
C254 H266 0.960 . S
C254 H267 0.962 . S
C254 H268 0.960 . S
C255 C252 1.511 . S
C255 H269 0.961 . S
C255 H270 0.961 . S
C255 H271 0.961 . S
C256 C257 1.370 . S
C256 C258 1.363 . S
C256 H272 0.931 . S
C257 C256 1.370 . S
C257 C261 1.408 . S
C258 C256 1.363 . S
C258 C259 1.370 . S
C258 C262 1.524 . S
C259 C251 1.503 . S
C259 C258 1.370 . S
C259 C260 1.403 . S
C260 C259 1.403 . S
C260 C261 1.404 . S
C260 C263 1.539 . S
C261 C257 1.408 . S
C261 C260 1.404 . S
C261 H273 0.930 . S
C262 C258 1.524 . S
C262 H274 0.956 . S
C262 H275 0.961 . S
C262 H276 0.961 . S
C263 C260 1.539 . S
C263 H277 0.958 . S
C263 H278 0.961 . S
C263 H279 0.960 . S
H264 C248 0.931 . S
H265 C253 0.929 . S
H266 C254 0.960 . S
H267 C254 0.962 . S
H268 C254 0.960 . S
H269 C255 0.961 . S
H270 C255 0.961 . S
H271 C255 0.961 . S
H272 C256 0.931 . S
H273 C261 0.930 . S
H274 C262 0.956 . S
H275 C262 0.961 . S
H276 C262 0.961 . S
H277 C263 0.958 . S
H278 C263 0.961 . S
H279 C263 0.960 . S
C280 C281 1.391 . S
C280 C282 1.394 . S
C280 H296 0.931 . S
C281 C280 1.391 . S
C281 C285 1.376 . S
C282 C280 1.394 . S
C282 C283 1.369 . S
C282 C286 1.531 . S
C283 C282 1.369 . S
C283 C284 1.410 . S
C283 C291 1.503 . S
C284 C283 1.410 . S
C284 C285 1.392 . S
C284 C287 1.511 . S
C285 C281 1.376 . S
C285 C284 1.392 . S
C285 H297 0.929 . S
C286 C282 1.531 . S
C286 H298 0.960 . S
C286 H299 0.962 . S
C286 H300 0.960 . S
C287 C284 1.511 . S
C287 H301 0.961 . S
C287 H302 0.961 . S
C287 H303 0.961 . S
C288 C289 1.370 . S
C288 C290 1.363 . S
C288 H304 0.931 . S
C289 C288 1.370 . S
C289 C293 1.408 . S
C290 C288 1.363 . S
C290 C291 1.370 . S
C290 C294 1.524 . S
C291 C283 1.503 . S
C291 C290 1.370 . S
C291 C292 1.403 . S
C292 C291 1.403 . S
C292 C293 1.404 . S
C292 C295 1.539 . S
C293 C289 1.408 . S
C293 C292 1.404 . S
C293 H305 0.930 . S
C294 C290 1.524 . S
C294 H306 0.956 . S
C294 H307 0.961 . S
C294 H308 0.961 . S
C295 C292 1.539 . S
C295 H309 0.958 . S
C295 H310 0.961 . S
C295 H311 0.960 . S
H296 C280 0.931 . S
H297 C285 0.929 . S
H298 C286 0.960 . S
H299 C286 0.962 . S
H300 C286 0.960 . S
H301 C287 0.961 . S
H302 C287 0.961 . S
H303 C287 0.961 . S
H304 C288 0.931 . S
H305 C293 0.930 . S
H306 C294 0.956 . S
H307 C294 0.961 . S
H308 C294 0.961 . S
H309 C295 0.958 . S
H310 C295 0.961 . S
H311 C295 0.960 . S
C312 C313 1.391 . S
C312 C314 1.394 . S
C312 H328 0.931 . S
C313 C312 1.391 . S
C313 C317 1.376 . S
C314 C312 1.394 . S
C314 C315 1.369 . S
C314 C318 1.531 . S
C315 C314 1.369 . S
C315 C316 1.410 . S
C315 C323 1.503 1_545 S
C316 C315 1.410 . S
C316 C317 1.392 . S
C316 C319 1.511 1_545 S
C317 C313 1.376 . S
C317 C316 1.392 . S
C317 H329 0.929 . S
C318 C314 1.531 . S
C318 H330 0.960 . S
C318 H331 0.962 . S
C318 H332 0.960 . S
C319 C316 1.511 1_565 S
C319 H333 0.961 . S
C319 H334 0.961 . S
C319 H335 0.961 1_565 S
C320 C321 1.370 . S
C320 C322 1.363 . S
C320 H336 0.931 . S
C321 C320 1.370 . S
C321 C325 1.408 . S
C322 C320 1.363 . S
C322 C323 1.370 . S
C322 C326 1.524 . S
C323 C315 1.503 1_565 S
C323 C322 1.370 . S
C323 C324 1.403 . S
C324 C323 1.403 . S
C324 C325 1.404 . S
C324 C327 1.539 1_565 S
C325 C321 1.408 . S
C325 C324 1.404 . S
C325 H337 0.930 . S
C326 C322 1.524 . S
C326 H338 0.956 . S
C326 H339 0.961 . S
C326 H340 0.961 . S
C327 C324 1.539 1_545 S
C327 H341 0.958 . S
C327 H342 0.961 1_545 S
C327 H343 0.960 . S
H328 C312 0.931 . S
H329 C317 0.929 . S
H330 C318 0.960 . S
H331 C318 0.962 . S
H332 C318 0.960 . S
H333 C319 0.961 . S
H334 C319 0.961 . S
H335 C319 0.961 1_545 S
H336 C320 0.931 . S
H337 C325 0.930 . S
H338 C326 0.956 . S
H339 C326 0.961 . S
H340 C326 0.961 . S
H341 C327 0.958 . S
H342 C327 0.961 1_565 S
H343 C327 0.960 . S
C344 C345 1.391 . S
C344 C346 1.394 . S
C344 H360 0.931 . S
C345 C344 1.391 . S
C345 C349 1.376 . S
C346 C344 1.394 . S
C346 C347 1.369 . S
C346 C350 1.543 . S
C347 C346 1.369 . S
C347 C348 1.410 . S
C347 C355 1.503 . S
C348 C347 1.410 . S
C348 C349 1.392 . S
C348 C351 1.511 . S
C349 C345 1.376 . S
C349 C348 1.392 . S
C349 H361 0.929 . S
C350 C346 1.543 . S
C350 H362 0.949 1_556 S
C350 H363 0.970 . S
C350 H364 0.952 1_556 S
C351 C348 1.511 . S
C351 H365 0.961 . S
C351 H366 0.961 . S
C351 H367 0.961 . S
C352 C353 1.397 . S
C352 C354 1.363 . S
C352 H368 0.931 . S
C353 C352 1.397 . S
C353 C357 1.391 1_556 S
C354 C352 1.363 . S
C354 C355 1.370 . S
C354 C358 1.524 . S
C355 C347 1.503 . S
C355 C354 1.370 . S
C355 C356 1.403 1_556 S
C356 C355 1.403 1_554 S
C356 C357 1.404 . S
C356 C359 1.539 . S
C357 C353 1.391 1_554 S
C357 C356 1.404 . S
C357 H369 0.930 . S
C358 C354 1.524 . S
C358 H370 0.956 . S
C358 H371 0.961 . S
C358 H372 0.961 . S
C359 C356 1.539 . S
C359 H373 0.958 . S
C359 H374 0.961 . S
C359 H375 0.960 . S
H360 C344 0.931 . S
H361 C349 0.929 . S
H362 C350 0.949 1_554 S
H363 C350 0.970 . S
H364 C350 0.952 1_554 S
H365 C351 0.961 . S
H366 C351 0.961 . S
H367 C351 0.961 . S
H368 C352 0.931 . S
H369 C357 0.930 . S
H370 C358 0.956 . S
H371 C358 0.961 . S
H372 C358 0.961 . S
H373 C359 0.958 . S
H374 C359 0.961 . S
H375 C359 0.960 . S
C376 C377 1.391 . S
C376 C378 1.394 . S
C376 H392 0.931 . S
C377 C376 1.391 . S
C377 C381 1.376 . S
C378 C376 1.394 . S
C378 C379 1.369 . S
C378 C382 1.531 . S
C379 C378 1.369 . S
C379 C380 1.410 . S
C379 C387 1.503 . S
C380 C379 1.410 . S
C380 C381 1.392 . S
C380 C383 1.511 . S
C381 C377 1.376 . S
C381 C380 1.392 . S
C381 H393 0.929 . S
C382 C378 1.531 . S
C382 H394 0.960 . S
C382 H395 0.962 . S
C382 H396 0.960 . S
C383 C380 1.511 . S
C383 H397 0.961 . S
C383 H398 0.961 . S
C383 H399 0.961 . S
C384 C385 1.370 . S
C384 C386 1.363 . S
C384 H400 0.931 . S
C385 C384 1.370 . S
C385 C389 1.408 . S
C386 C384 1.363 . S
C386 C387 1.370 . S
C386 C390 1.524 . S
C387 C379 1.503 . S
C387 C386 1.370 . S
C387 C388 1.403 . S
C388 C387 1.403 . S
C388 C389 1.404 . S
C388 C391 1.539 . S
C389 C385 1.408 . S
C389 C388 1.404 . S
C389 H401 0.930 . S
C390 C386 1.524 . S
C390 H402 0.956 . S
C390 H403 0.961 . S
C390 H404 0.961 . S
C391 C388 1.539 . S
C391 H405 0.958 . S
C391 H406 0.961 . S
C391 H407 0.960 . S
H392 C376 0.931 . S
H393 C381 0.929 . S
H394 C382 0.960 . S
H395 C382 0.962 . S
H396 C382 0.960 . S
H397 C383 0.961 . S
H398 C383 0.961 . S
H399 C383 0.961 . S
H400 C384 0.931 . S
H401 C389 0.930 . S
H402 C390 0.956 . S
H403 C390 0.961 . S
H404 C390 0.961 . S
H405 C391 0.958 . S
H406 C391 0.961 . S
H407 C391 0.960 . S
C408 C409 1.391 . S
C408 C410 1.394 . S
C408 H424 0.931 . S
C409 C408 1.391 . S
C409 C413 1.376 . S
C410 C408 1.394 . S
C410 C411 1.369 . S
C410 C414 1.531 . S
C411 C410 1.369 . S
C411 C412 1.410 . S
C411 C419 1.503 1_545 S
C412 C411 1.410 . S
C412 C413 1.392 . S
C412 C415 1.511 1_545 S
C413 C409 1.376 . S
C413 C412 1.392 . S
C413 H425 0.929 . S
C414 C410 1.531 . S
C414 H426 0.960 1_545 S
C414 H427 0.962 . S
C414 H428 0.960 . S
C415 C412 1.511 1_565 S
C415 H429 0.961 1_565 S
C415 H430 0.961 . S
C415 H431 0.961 . S
C416 C417 1.370 . S
C416 C418 1.363 . S
C416 H432 0.931 . S
C417 C416 1.370 . S
C417 C421 1.408 . S
C418 C416 1.363 . S
C418 C419 1.370 . S
C418 C422 1.524 1_565 S
C419 C411 1.503 1_565 S
C419 C418 1.370 . S
C419 C420 1.403 . S
C420 C419 1.403 . S
C420 C421 1.404 . S
C420 C423 1.539 . S
C421 C417 1.408 . S
C421 C420 1.404 . S
C421 H433 0.930 . S
C422 C418 1.524 1_545 S
C422 H434 0.956 . S
C422 H435 0.961 . S
C422 H436 0.961 . S
C423 C420 1.539 . S
C423 H437 0.958 . S
C423 H438 0.961 . S
C423 H439 0.960 . S
H424 C408 0.931 . S
H425 C413 0.929 . S
H426 C414 0.960 1_565 S
H427 C414 0.962 . S
H428 C414 0.960 . S
H429 C415 0.961 1_545 S
H430 C415 0.961 . S
H431 C415 0.961 . S
H432 C416 0.931 . S
H433 C421 0.930 . S
H434 C422 0.956 . S
H435 C422 0.961 . S
H436 C422 0.961 . S
H437 C423 0.958 . S
H438 C423 0.961 . S
H439 C423 0.960 . S
C440 C441 1.391 . S
C440 C442 1.394 . S
C440 H456 0.931 . S
C441 C440 1.391 . S
C441 C445 1.376 . S
C442 C440 1.394 . S
C442 C443 1.369 . S
C442 C446 1.531 . S
C443 C442 1.369 . S
C443 C444 1.410 . S
C443 C451 1.503 . S
C444 C443 1.410 . S
C444 C445 1.392 . S
C444 C447 1.511 . S
C445 C441 1.376 . S
C445 C444 1.392 . S
C445 H457 0.929 . S
C446 C442 1.531 . S
C446 H458 0.960 . S
C446 H459 0.962 . S
C446 H460 0.960 . S
C447 C444 1.511 . S
C447 H461 0.961 . S
C447 H462 0.961 . S
C447 H463 0.961 . S
C448 C449 1.370 . S
C448 C450 1.363 . S
C448 H464 0.931 . S
C449 C448 1.370 . S
C449 C453 1.408 . S
C450 C448 1.363 . S
C450 C451 1.370 . S
C450 C454 1.524 . S
C451 C443 1.503 . S
C451 C450 1.370 . S
C451 C452 1.403 . S
C452 C451 1.403 . S
C452 C453 1.404 . S
C452 C455 1.539 . S
C453 C449 1.408 . S
C453 C452 1.404 . S
C453 H465 0.930 . S
C454 C450 1.524 . S
C454 H466 0.956 . S
C454 H467 0.961 . S
C454 H468 0.961 . S
C455 C452 1.539 . S
C455 H469 0.958 . S
C455 H470 0.961 . S
C455 H471 0.960 . S
H456 C440 0.931 . S
H457 C445 0.929 . S
H458 C446 0.960 . S
H459 C446 0.962 . S
H460 C446 0.960 . S
H461 C447 0.961 . S
H462 C447 0.961 . S
H463 C447 0.961 . S
H464 C448 0.931 . S
H465 C453 0.930 . S
H466 C454 0.956 . S
H467 C454 0.961 . S
H468 C454 0.961 . S
H469 C455 0.958 . S
H470 C455 0.961 . S
H471 C455 0.960 . S
C472 C473 1.391 . S
C472 C474 1.394 . S
C472 H488 0.931 . S
C473 C472 1.391 . S
C473 C477 1.376 . S
C474 C472 1.394 . S
C474 C475 1.369 . S
C474 C478 1.531 . S
C475 C474 1.369 . S
C475 C476 1.410 . S
C475 C483 1.503 . S
C476 C475 1.410 . S
C476 C477 1.392 . S
C476 C479 1.511 . S
C477 C473 1.376 . S
C477 C476 1.392 . S
C477 H489 0.929 . S
C478 C474 1.531 . S
C478 H490 0.960 . S
C478 H491 0.962 . S
C478 H492 0.960 . S
C479 C476 1.511 . S
C479 H493 0.961 . S
C479 H494 0.961 . S
C479 H495 0.961 . S
C480 C481 1.370 . S
C480 C482 1.363 . S
C480 H496 0.931 . S
C481 C480 1.370 . S
C481 C485 1.408 . S
C482 C480 1.363 . S
C482 C483 1.370 . S
C482 C486 1.524 . S
C483 C475 1.503 . S
C483 C482 1.370 . S
C483 C484 1.403 . S
C484 C483 1.403 . S
C484 C485 1.404 . S
C484 C487 1.539 . S
C485 C481 1.408 . S
C485 C484 1.404 . S
C485 H497 0.930 . S
C486 C482 1.524 . S
C486 H498 0.956 . S
C486 H499 0.961 . S
C486 H500 0.961 . S
C487 C484 1.539 . S
C487 H501 0.958 . S
C487 H502 0.961 . S
C487 H503 0.960 . S
H488 C472 0.931 . S
H489 C477 0.929 . S
H490 C478 0.960 . S
H491 C478 0.962 . S
H492 C478 0.960 . S
H493 C479 0.961 . S
H494 C479 0.961 . S
H495 C479 0.961 . S
H496 C480 0.931 . S
H497 C485 0.930 . S
H498 C486 0.956 . S
H499 C486 0.961 . S
H500 C486 0.961 . S
H501 C487 0.958 . S
H502 C487 0.961 . S
H503 C487 0.960 . S
C504 C505 1.391 . S
C504 C506 1.394 . S
C504 H520 0.931 . S
C505 C504 1.391 . S
C505 C509 1.376 . S
C506 C504 1.394 . S
C506 C507 1.369 . S
C506 C510 1.531 . S
C507 C506 1.369 . S
C507 C508 1.410 . S
C507 C515 1.503 . S
C508 C507 1.410 . S
C508 C509 1.392 . S
C508 C511 1.511 . S
C509 C505 1.376 . S
C509 C508 1.392 . S
C509 H521 0.929 . S
C510 C506 1.531 . S
C510 H522 0.960 . S
C510 H523 0.962 . S
C510 H524 0.960 . S
C511 C508 1.511 . S
C511 H525 0.961 . S
C511 H526 0.961 . S
C511 H527 0.961 . S
C512 C513 1.370 . S
C512 C514 1.363 . S
C512 H528 0.931 . S
C513 C512 1.370 . S
C513 C517 1.408 . S
C514 C512 1.363 . S
C514 C515 1.370 . S
C514 C518 1.524 . S
C515 C507 1.503 . S
C515 C514 1.370 . S
C515 C516 1.403 . S
C516 C515 1.403 . S
C516 C517 1.404 . S
C516 C519 1.539 . S
C517 C513 1.408 . S
C517 C516 1.404 . S
C517 H529 0.930 . S
C518 C514 1.524 . S
C518 H530 0.956 . S
C518 H531 0.961 . S
C518 H532 0.961 . S
C519 C516 1.539 . S
C519 H533 0.958 . S
C519 H534 0.961 . S
C519 H535 0.960 . S
H520 C504 0.931 . S
H521 C509 0.929 . S
H522 C510 0.960 . S
H523 C510 0.962 . S
H524 C510 0.960 . S
H525 C511 0.961 . S
H526 C511 0.961 . S
H527 C511 0.961 . S
H528 C512 0.931 . S
H529 C517 0.930 . S
H530 C518 0.956 . S
H531 C518 0.961 . S
H532 C518 0.961 . S
H533 C519 0.958 . S
H534 C519 0.961 . S
H535 C519 0.960 . S
C536 C537 1.391 . S
C536 C538 1.394 . S
C536 H552 0.931 . S
C537 C536 1.391 . S
C537 C541 1.376 . S
C538 C536 1.394 . S
C538 C539 1.369 . S
C538 C542 1.531 . S
C539 C538 1.369 . S
C539 C540 1.410 . S
C539 C547 1.503 . S
C540 C539 1.410 . S
C540 C541 1.392 . S
C540 C543 1.511 . S
C541 C537 1.376 . S
C541 C540 1.392 . S
C541 H553 0.929 . S
C542 C538 1.531 . S
C542 H554 0.960 . S
C542 H555 0.962 . S
C542 H556 0.960 . S
C543 C540 1.511 . S
C543 H557 0.961 . S
C543 H558 0.961 . S
C543 H559 0.961 . S
C544 C545 1.370 . S
C544 C546 1.363 . S
C544 H560 0.931 . S
C545 C544 1.370 . S
C545 C549 1.408 . S
C546 C544 1.363 . S
C546 C547 1.370 . S
C546 C550 1.524 . S
C547 C539 1.503 . S
C547 C546 1.370 . S
C547 C548 1.403 . S
C548 C547 1.403 . S
C548 C549 1.404 . S
C548 C551 1.539 . S
C549 C545 1.408 . S
C549 C548 1.404 . S
C549 H561 0.930 . S
C550 C546 1.524 . S
C550 H562 0.956 . S
C550 H563 0.961 . S
C550 H564 0.961 . S
C551 C548 1.539 . S
C551 H565 0.958 . S
C551 H566 0.961 . S
C551 H567 0.960 . S
H552 C536 0.931 . S
H553 C541 0.929 . S
H554 C542 0.960 . S
H555 C542 0.962 . S
H556 C542 0.960 . S
H557 C543 0.961 . S
H558 C543 0.961 . S
H559 C543 0.961 . S
H560 C544 0.931 . S
H561 C549 0.930 . S
H562 C550 0.956 . S
H563 C550 0.961 . S
H564 C550 0.961 . S
H565 C551 0.958 . S
H566 C551 0.961 . S
H567 C551 0.960 . S
C568 C569 1.391 . S
C568 C570 1.394 . S
C568 H584 0.931 . S
C569 C568 1.391 . S
C569 C573 1.376 . S
C570 C568 1.394 . S
C570 C571 1.369 . S
C570 C574 1.531 1_455 S
C571 C570 1.369 . S
C571 C572 1.410 . S
C571 C579 1.503 1_455 S
C572 C571 1.410 . S
C572 C573 1.392 . S
C572 C575 1.511 . S
C573 C569 1.376 . S
C573 C572 1.392 . S
C573 H585 0.929 . S
C574 C570 1.531 1_655 S
C574 H586 0.960 . S
C574 H587 0.962 . S
C574 H588 0.960 . S
C575 C572 1.511 . S
C575 H589 0.961 . S
C575 H590 0.961 . S
C575 H591 0.961 . S
C576 C577 1.370 . S
C576 C578 1.363 . S
C576 H592 0.931 . S
C577 C576 1.370 . S
C577 C581 1.408 . S
C578 C576 1.363 . S
C578 C579 1.370 . S
C578 C582 1.533 . S
C579 C571 1.503 1_655 S
C579 C578 1.370 . S
C579 C580 1.403 . S
C580 C579 1.403 . S
C580 C581 1.404 . S
C580 C583 1.539 1_655 S
C581 C577 1.408 . S
C581 C580 1.404 . S
C581 H593 0.930 . S
C582 C578 1.533 . S
C582 H594 0.961 . S
C582 H595 0.938 1_655 S
C582 H596 0.971 . S
C583 C580 1.539 1_455 S
C583 H597 0.958 1_455 S
C583 H598 0.962 . S
C583 H599 0.960 . S
H584 C568 0.931 . S
H585 C573 0.929 . S
H586 C574 0.960 . S
H587 C574 0.962 . S
H588 C574 0.960 . S
H589 C575 0.961 . S
H590 C575 0.961 . S
H591 C575 0.961 . S
H592 C576 0.931 . S
H593 C581 0.930 . S
H594 C582 0.961 . S
H595 C582 0.938 1_455 S
H596 C582 0.971 . S
H597 C583 0.958 1_655 S
H598 C583 0.962 . S
H599 C583 0.960 . S
C600 C601 1.391 . S
C600 C602 1.394 . S
C600 H616 0.931 . S
C601 C600 1.391 . S
C601 C605 1.376 . S
C602 C600 1.394 . S
C602 C603 1.369 . S
C602 C606 1.531 . S
C603 C602 1.369 . S
C603 C604 1.410 . S
C603 C611 1.503 . S
C604 C603 1.410 . S
C604 C605 1.392 . S
C604 C607 1.511 . S
C605 C601 1.376 . S
C605 C604 1.392 . S
C605 H617 0.929 . S
C606 C602 1.531 . S
C606 H618 0.960 . S
C606 H619 0.962 . S
C606 H620 0.960 . S
C607 C604 1.511 . S
C607 H621 0.961 . S
C607 H622 0.961 . S
C607 H623 0.961 . S
C608 C609 1.370 . S
C608 C610 1.363 . S
C608 H624 0.931 . S
C609 C608 1.370 . S
C609 C613 1.408 . S
C610 C608 1.363 . S
C610 C611 1.370 . S
C610 C614 1.524 . S
C611 C603 1.503 . S
C611 C610 1.370 . S
C611 C612 1.403 . S
C612 C611 1.403 . S
C612 C613 1.404 . S
C612 C615 1.539 . S
C613 C609 1.408 . S
C613 C612 1.404 . S
C613 H625 0.930 . S
C614 C610 1.524 . S
C614 H626 0.956 . S
C614 H627 0.961 . S
C614 H628 0.961 . S
C615 C612 1.539 . S
C615 H629 0.958 . S
C615 H630 0.961 . S
C615 H631 0.960 . S
H616 C600 0.931 . S
H617 C605 0.929 . S
H618 C606 0.960 . S
H619 C606 0.962 . S
H620 C606 0.960 . S
H621 C607 0.961 . S
H622 C607 0.961 . S
H623 C607 0.961 . S
H624 C608 0.931 . S
H625 C613 0.930 . S
H626 C614 0.956 . S
H627 C614 0.961 . S
H628 C614 0.961 . S
H629 C615 0.958 . S
H630 C615 0.961 . S
H631 C615 0.960 . S
C632 C633 1.391 . S
C632 C634 1.394 . S
C632 H648 0.931 . S
C633 C632 1.391 . S
C633 C637 1.376 1_655 S
C634 C632 1.394 . S
C634 C635 1.369 . S
C634 C638 1.531 . S
C635 C634 1.369 . S
C635 C636 1.402 1_655 S
C635 C643 1.503 . S
C636 C635 1.402 1_455 S
C636 C637 1.393 . S
C636 C639 1.518 . S
C637 C633 1.376 1_455 S
C637 C636 1.393 . S
C637 H649 0.929 . S
C638 C634 1.531 . S
C638 H650 0.960 . S
C638 H651 0.962 . S
C638 H652 0.960 . S
C639 C636 1.518 . S
C639 H653 0.961 . S
C639 H654 0.961 . S
C639 H655 0.961 . S
C640 C641 1.370 . S
C640 C642 1.363 . S
C640 H656 0.931 . S
C641 C640 1.370 . S
C641 C645 1.408 . S
C642 C640 1.363 . S
C642 C643 1.370 . S
C642 C646 1.524 . S
C643 C635 1.503 . S
C643 C642 1.370 . S
C643 C644 1.403 . S
C644 C643 1.403 . S
C644 C645 1.404 . S
C644 C647 1.539 1_655 S
C645 C641 1.408 . S
C645 C644 1.404 . S
C645 H657 0.930 1_655 S
C646 C642 1.524 . S
C646 H658 0.956 . S
C646 H659 0.961 . S
C646 H660 0.961 . S
C647 C644 1.539 1_455 S
C647 H661 0.958 . S
C647 H662 0.961 . S
C647 H663 0.960 . S
H648 C632 0.931 . S
H649 C637 0.929 . S
H650 C638 0.960 . S
H651 C638 0.962 . S
H652 C638 0.960 . S
H653 C639 0.961 . S
H654 C639 0.961 . S
H655 C639 0.961 . S
H656 C640 0.931 . S
H657 C645 0.930 1_455 S
H658 C646 0.956 . S
H659 C646 0.961 . S
H660 C646 0.961 . S
H661 C647 0.958 . S
H662 C647 0.961 . S
H663 C647 0.960 . S
C664 C665 1.391 . S
C664 C666 1.394 . S
C664 H680 0.931 . S
C665 C664 1.391 . S
C665 C669 1.376 . S
C666 C664 1.394 . S
C666 C667 1.369 . S
C666 C670 1.531 . S
C667 C666 1.369 . S
C667 C668 1.410 . S
C667 C675 1.503 1_455 S
C668 C667 1.410 . S
C668 C669 1.392 . S
C668 C671 1.511 1_556 S
C669 C665 1.376 . S
C669 C668 1.392 . S
C669 H681 0.929 . S
C670 C666 1.531 . S
C670 H682 0.960 . S
C670 H683 0.964 . S
C670 H684 0.960 . S
C671 C668 1.511 1_554 S
C671 H685 0.961 1_554 S
C671 H686 0.961 . S
C671 H687 0.961 . S
C672 C673 1.370 1_556 S
C672 C674 1.363 . S
C672 H688 0.931 . S
C673 C672 1.370 1_554 S
C673 C677 1.408 . S
C674 C672 1.363 . S
C674 C675 1.370 . S
C674 C678 1.524 . S
C675 C667 1.503 1_655 S
C675 C674 1.370 . S
C675 C676 1.403 1_556 S
C676 C675 1.403 1_554 S
C676 C677 1.404 . S
C676 C679 1.539 1_655 S
C677 C673 1.408 . S
C677 C676 1.404 . S
C677 H689 0.930 . S
C678 C674 1.524 . S
C678 H690 0.956 . S
C678 H691 0.961 . S
C678 H692 0.961 . S
C679 C676 1.539 1_455 S
C679 H693 0.958 . S
C679 H694 0.961 . S
C679 H695 0.960 . S
H680 C664 0.931 . S
H681 C669 0.929 . S
H682 C670 0.960 . S
H683 C670 0.964 . S
H684 C670 0.960 . S
H685 C671 0.961 1_556 S
H686 C671 0.961 . S
H687 C671 0.961 . S
H688 C672 0.931 . S
H689 C677 0.930 . S
H690 C678 0.956 . S
H691 C678 0.961 . S
H692 C678 0.961 . S
H693 C679 0.958 . S
H694 C679 0.961 . S
H695 C679 0.960 . S
C696 C697 1.391 . S
C696 C698 1.394 . S
C696 H712 0.931 . S
C697 C696 1.391 . S
C697 C701 1.376 . S
C698 C696 1.394 . S
C698 C699 1.369 . S
C698 C702 1.531 . S
C699 C698 1.369 . S
C699 C700 1.410 . S
C699 C707 1.503 . S
C700 C699 1.410 . S
C700 C701 1.392 . S
C700 C703 1.511 . S
C701 C697 1.376 . S
C701 C700 1.392 . S
C701 H713 0.929 . S
C702 C698 1.531 . S
C702 H714 0.960 . S
C702 H715 0.962 . S
C702 H716 0.960 . S
C703 C700 1.511 . S
C703 H717 0.961 . S
C703 H718 0.961 . S
C703 H719 0.961 . S
C704 C705 1.370 . S
C704 C706 1.363 . S
C704 H720 0.931 . S
C705 C704 1.370 . S
C705 C709 1.408 . S
C706 C704 1.363 . S
C706 C707 1.370 . S
C706 C710 1.524 . S
C707 C699 1.503 . S
C707 C706 1.370 . S
C707 C708 1.403 . S
C708 C707 1.403 . S
C708 C709 1.404 . S
C708 C711 1.539 . S
C709 C705 1.408 . S
C709 C708 1.404 . S
C709 H721 0.930 . S
C710 C706 1.524 . S
C710 H722 0.956 . S
C710 H723 0.961 . S
C710 H724 0.961 . S
C711 C708 1.539 . S
C711 H725 0.958 . S
C711 H726 0.961 . S
C711 H727 0.960 . S
H712 C696 0.931 . S
H713 C701 0.929 . S
H714 C702 0.960 . S
H715 C702 0.962 . S
H716 C702 0.960 . S
H717 C703 0.961 . S
H718 C703 0.961 . S
H719 C703 0.961 . S
H720 C704 0.931 . S
H721 C709 0.930 . S
H722 C710 0.956 . S
H723 C710 0.961 . S
H724 C710 0.961 . S
H725 C711 0.958 . S
H726 C711 0.961 . S
H727 C711 0.960 . S
C728 C729 1.391 . S
C728 C730 1.394 . S
C728 H744 0.931 . S
C729 C728 1.391 . S
C729 C733 1.376 . S
C730 C728 1.394 . S
C730 C731 1.369 . S
C730 C734 1.531 . S
C731 C730 1.369 . S
C731 C732 1.410 . S
C731 C739 1.503 . S
C732 C731 1.410 . S
C732 C733 1.392 . S
C732 C735 1.511 . S
C733 C729 1.376 . S
C733 C732 1.392 . S
C733 H745 0.929 . S
C734 C730 1.531 . S
C734 H746 0.960 . S
C734 H747 0.962 . S
C734 H748 0.960 . S
C735 C732 1.511 . S
C735 H749 0.961 . S
C735 H750 0.961 . S
C735 H751 0.961 . S
C736 C737 1.370 . S
C736 C738 1.363 . S
C736 H752 0.931 . S
C737 C736 1.370 . S
C737 C741 1.408 . S
C738 C736 1.363 . S
C738 C739 1.370 . S
C738 C742 1.524 . S
C739 C731 1.503 . S
C739 C738 1.370 . S
C739 C740 1.403 . S
C740 C739 1.403 . S
C740 C741 1.404 . S
C740 C743 1.539 . S
C741 C737 1.408 . S
C741 C740 1.404 . S
C741 H753 0.930 . S
C742 C738 1.524 . S
C742 H754 0.956 . S
C742 H755 0.961 . S
C742 H756 0.961 . S
C743 C740 1.539 . S
C743 H757 0.958 . S
C743 H758 0.961 . S
C743 H759 0.960 . S
H744 C728 0.931 . S
H745 C733 0.929 . S
H746 C734 0.960 . S
H747 C734 0.962 . S
H748 C734 0.960 . S
H749 C735 0.961 . S
H750 C735 0.961 . S
H751 C735 0.961 . S
H752 C736 0.931 . S
H753 C741 0.930 . S
H754 C742 0.956 . S
H755 C742 0.961 . S
H756 C742 0.961 . S
H757 C743 0.958 . S
H758 C743 0.961 . S
H759 C743 0.960 . S
C760 C761 1.391 . S
C760 C762 1.394 . S
C760 H776 0.931 . S
C761 C760 1.391 . S
C761 C765 1.376 . S
C762 C760 1.394 . S
C762 C763 1.369 . S
C762 C766 1.531 . S
C763 C762 1.369 . S
C763 C764 1.410 . S
C763 C771 1.503 . S
C764 C763 1.410 . S
C764 C765 1.392 . S
C764 C767 1.511 . S
C765 C761 1.376 . S
C765 C764 1.392 . S
C765 H777 0.929 . S
C766 C762 1.531 . S
C766 H778 0.960 . S
C766 H779 0.962 . S
C766 H780 0.960 . S
C767 C764 1.511 . S
C767 H781 0.961 . S
C767 H782 0.961 . S
C767 H783 0.961 . S
C768 C769 1.370 . S
C768 C770 1.363 . S
C768 H784 0.931 . S
C769 C768 1.370 . S
C769 C773 1.408 . S
C770 C768 1.363 . S
C770 C771 1.370 . S
C770 C774 1.524 . S
C771 C763 1.503 . S
C771 C770 1.370 . S
C771 C772 1.403 . S
C772 C771 1.403 . S
C772 C773 1.404 . S
C772 C775 1.539 . S
C773 C769 1.408 . S
C773 C772 1.404 . S
C773 H785 0.930 . S
C774 C770 1.524 . S
C774 H786 0.956 . S
C774 H787 0.961 . S
C774 H788 0.961 . S
C775 C772 1.539 . S
C775 H789 0.958 . S
C775 H790 0.961 . S
C775 H791 0.960 . S
H776 C760 0.931 . S
H777 C765 0.929 . S
H778 C766 0.960 . S
H779 C766 0.962 . S
H780 C766 0.960 . S
H781 C767 0.961 . S
H782 C767 0.961 . S
H783 C767 0.961 . S
H784 C768 0.931 . S
H785 C773 0.930 . S
H786 C774 0.956 . S
H787 C774 0.961 . S
H788 C774 0.961 . S
H789 C775 0.958 . S
H790 C775 0.961 . S
H791 C775 0.960 . S
C792 C793 1.391 . S
C792 C794 1.394 . S
C792 H808 0.931 . S
C793 C792 1.391 . S
C793 C797 1.376 . S
C794 C792 1.394 . S
C794 C795 1.369 . S
C794 C798 1.531 . S
C795 C794 1.369 . S
C795 C796 1.410 . S
C795 C803 1.503 . S
C796 C795 1.410 . S
C796 C797 1.392 . S
C796 C799 1.511 . S
C797 C793 1.376 . S
C797 C796 1.392 . S
C797 H809 0.929 . S
C798 C794 1.531 . S
C798 H810 0.960 . S
C798 H811 0.962 . S
C798 H812 0.960 . S
C799 C796 1.511 . S
C799 H813 0.961 . S
C799 H814 0.961 . S
C799 H815 0.961 . S
C800 C801 1.370 . S
C800 C802 1.363 . S
C800 H816 0.931 . S
C801 C800 1.370 . S
C801 C805 1.408 . S
C802 C800 1.363 . S
C802 C803 1.370 . S
C802 C806 1.524 . S
C803 C795 1.503 . S
C803 C802 1.370 . S
C803 C804 1.403 . S
C804 C803 1.403 . S
C804 C805 1.404 . S
C804 C807 1.539 . S
C805 C801 1.408 . S
C805 C804 1.404 . S
C805 H817 0.930 . S
C806 C802 1.524 . S
C806 H818 0.956 . S
C806 H819 0.961 . S
C806 H820 0.961 . S
C807 C804 1.539 . S
C807 H821 0.958 . S
C807 H822 0.961 . S
C807 H823 0.960 . S
H808 C792 0.931 . S
H809 C797 0.929 . S
H810 C798 0.960 . S
H811 C798 0.962 . S
H812 C798 0.960 . S
H813 C799 0.961 . S
H814 C799 0.961 . S
H815 C799 0.961 . S
H816 C800 0.931 . S
H817 C805 0.930 . S
H818 C806 0.956 . S
H819 C806 0.961 . S
H820 C806 0.961 . S
H821 C807 0.958 . S
H822 C807 0.961 . S
H823 C807 0.960 . S
C824 C825 1.391 . S
C824 C826 1.394 . S
C824 H840 0.931 . S
C825 C824 1.391 . S
C825 C829 1.376 . S
C826 C824 1.394 . S
C826 C827 1.369 . S
C826 C830 1.531 1_545 S
C827 C826 1.369 . S
C827 C828 1.410 . S
C827 C835 1.503 . S
C828 C827 1.410 . S
C828 C829 1.392 . S
C828 C831 1.511 . S
C829 C825 1.376 . S
C829 C828 1.392 . S
C829 H841 0.929 . S
C830 C826 1.531 1_565 S
C830 H842 0.960 . S
C830 H843 0.962 . S
C830 H844 0.960 . S
C831 C828 1.511 . S
C831 H845 0.961 . S
C831 H846 0.961 . S
C831 H847 0.961 . S
C832 C833 1.370 1_545 S
C832 C834 1.363 . S
C832 H848 0.931 . S
C833 C832 1.370 1_565 S
C833 C837 1.408 . S
C834 C832 1.363 . S
C834 C835 1.370 . S
C834 C838 1.524 . S
C835 C827 1.503 . S
C835 C834 1.370 . S
C835 C836 1.403 . S
C836 C835 1.403 . S
C836 C837 1.404 1_545 S
C836 C839 1.539 . S
C837 C833 1.408 . S
C837 C836 1.404 1_565 S
C837 H849 0.930 . S
C838 C834 1.524 . S
C838 H850 0.956 . S
C838 H851 0.961 . S
C838 H852 0.961 . S
C839 C836 1.539 . S
C839 H853 0.958 1_545 S
C839 H854 0.961 . S
C839 H855 0.960 . S
H840 C824 0.931 . S
H841 C829 0.929 . S
H842 C830 0.960 . S
H843 C830 0.962 . S
H844 C830 0.960 . S
H845 C831 0.961 . S
H846 C831 0.961 . S
H847 C831 0.961 . S
H848 C832 0.931 . S
H849 C837 0.930 . S
H850 C838 0.956 . S
H851 C838 0.961 . S
H852 C838 0.961 . S
H853 C839 0.958 1_565 S
H854 C839 0.961 . S
H855 C839 0.960 . S
C856 C857 1.391 . S
C856 C858 1.394 . S
C856 H872 0.931 . S
C857 C856 1.391 . S
C857 C861 1.376 . S
C858 C856 1.394 . S
C858 C859 1.369 . S
C858 C862 1.531 . S
C859 C858 1.369 . S
C859 C860 1.410 . S
C859 C867 1.503 . S
C860 C859 1.410 . S
C860 C861 1.392 . S
C860 C863 1.511 . S
C861 C857 1.376 . S
C861 C860 1.392 . S
C861 H873 0.929 . S
C862 C858 1.531 . S
C862 H874 0.960 . S
C862 H875 0.962 . S
C862 H876 0.960 . S
C863 C860 1.511 . S
C863 H877 0.961 . S
C863 H878 0.961 . S
C863 H879 0.961 . S
C864 C865 1.370 . S
C864 C866 1.363 . S
C864 H880 0.931 . S
C865 C864 1.370 . S
C865 C869 1.408 . S
C866 C864 1.363 . S
C866 C867 1.370 . S
C866 C870 1.524 . S
C867 C859 1.503 . S
C867 C866 1.370 . S
C867 C868 1.403 . S
C868 C867 1.403 . S
C868 C869 1.404 . S
C868 C871 1.539 . S
C869 C865 1.408 . S
C869 C868 1.404 . S
C869 H881 0.930 . S
C870 C866 1.524 . S
C870 H882 0.956 . S
C870 H883 0.961 . S
C870 H884 0.961 . S
C871 C868 1.539 . S
C871 H885 0.958 . S
C871 H886 0.961 . S
C871 H887 0.960 . S
H872 C856 0.931 . S
H873 C861 0.929 . S
H874 C862 0.960 . S
H875 C862 0.962 . S
H876 C862 0.960 . S
H877 C863 0.961 . S
H878 C863 0.961 . S
H879 C863 0.961 . S
H880 C864 0.931 . S
H881 C869 0.930 . S
H882 C870 0.956 . S
H883 C870 0.961 . S
H884 C870 0.961 . S
H885 C871 0.958 . S
H886 C871 0.961 . S
H887 C871 0.960 . S
C888 C889 1.391 . S
C888 C890 1.394 . S
C888 H904 0.931 . S
C889 C888 1.391 . S
C889 C893 1.376 . S
C890 C888 1.394 . S
C890 C891 1.369 . S
C890 C894 1.531 . S
C891 C890 1.369 . S
C891 C892 1.410 . S
C891 C899 1.503 . S
C892 C891 1.410 . S
C892 C893 1.392 . S
C892 C895 1.511 . S
C893 C889 1.376 . S
C893 C892 1.392 . S
C893 H905 0.929 . S
C894 C890 1.531 . S
C894 H906 0.960 . S
C894 H907 0.962 . S
C894 H908 0.960 . S
C895 C892 1.511 . S
C895 H909 0.961 . S
C895 H910 0.961 . S
C895 H911 0.961 . S
C896 C897 1.370 . S
C896 C898 1.363 . S
C896 H912 0.931 . S
C897 C896 1.370 . S
C897 C901 1.408 . S
C898 C896 1.363 . S
C898 C899 1.370 . S
C898 C902 1.524 . S
C899 C891 1.503 . S
C899 C898 1.370 . S
C899 C900 1.403 . S
C900 C899 1.403 . S
C900 C901 1.404 . S
C900 C903 1.539 . S
C901 C897 1.408 . S
C901 C900 1.404 . S
C901 H913 0.930 . S
C902 C898 1.524 . S
C902 H914 0.956 . S
C902 H915 0.961 . S
C902 H916 0.961 . S
C903 C900 1.539 . S
C903 H917 0.958 . S
C903 H918 0.961 . S
C903 H919 0.960 . S
H904 C888 0.931 . S
H905 C893 0.929 . S
H906 C894 0.960 . S
H907 C894 0.962 . S
H908 C894 0.960 . S
H909 C895 0.961 . S
H910 C895 0.961 . S
H911 C895 0.961 . S
H912 C896 0.931 . S
H913 C901 0.930 . S
H914 C902 0.956 . S
H915 C902 0.961 . S
H916 C902 0.961 . S
H917 C903 0.958 . S
H918 C903 0.961 . S
H919 C903 0.960 . S
C920 C921 1.391 . S
C920 C922 1.394 . S
C920 H936 0.931 . S
C921 C920 1.391 . S
C921 C925 1.376 . S
C922 C920 1.394 . S
C922 C923 1.369 . S
C922 C926 1.531 . S
C923 C922 1.369 . S
C923 C924 1.410 . S
C923 C931 1.503 . S
C924 C923 1.410 . S
C924 C925 1.392 . S
C924 C927 1.511 . S
C925 C921 1.376 . S
C925 C924 1.392 . S
C925 H937 0.929 . S
C926 C922 1.531 . S
C926 H938 0.960 . S
C926 H939 0.962 . S
C926 H940 0.960 . S
C927 C924 1.511 . S
C927 H941 0.961 . S
C927 H942 0.961 . S
C927 H943 0.961 . S
C928 C929 1.370 . S
C928 C930 1.363 . S
C928 H944 0.931 . S
C929 C928 1.370 . S
C929 C933 1.408 1_565 S
C930 C928 1.363 . S
C930 C931 1.370 1_565 S
C930 C934 1.524 . S
C931 C923 1.503 . S
C931 C930 1.370 1_545 S
C931 C932 1.403 . S
C932 C931 1.403 . S
C932 C933 1.404 . S
C932 C935 1.539 . S
C933 C929 1.408 1_545 S
C933 C932 1.404 . S
C933 H945 0.930 . S
C934 C930 1.524 . S
C934 H946 0.956 . S
C934 H947 0.961 . S
C934 H948 0.961 . S
C935 C932 1.539 . S
C935 H949 0.958 . S
C935 H950 0.961 . S
C935 H951 0.960 . S
H936 C920 0.931 . S
H937 C925 0.929 . S
H938 C926 0.960 . S
H939 C926 0.962 . S
H940 C926 0.960 . S
H941 C927 0.961 . S
H942 C927 0.961 . S
H943 C927 0.961 . S
H944 C928 0.931 . S
H945 C933 0.930 . S
H946 C934 0.956 . S
H947 C934 0.961 . S
H948 C934 0.961 . S
H949 C935 0.958 . S
H950 C935 0.961 . S
H951 C935 0.960 . S
C952 C953 1.391 . S
C952 C954 1.394 . S
C952 H968 0.931 . S
C953 C952 1.391 . S
C953 C957 1.376 . S
C954 C952 1.394 . S
C954 C955 1.369 . S
C954 C958 1.531 . S
C955 C954 1.369 . S
C955 C956 1.410 . S
C955 C963 1.503 . S
C956 C955 1.410 . S
C956 C957 1.392 . S
C956 C959 1.511 . S
C957 C953 1.376 . S
C957 C956 1.392 . S
C957 H969 0.929 . S
C958 C954 1.531 . S
C958 H970 0.960 . S
C958 H971 0.962 . S
C958 H972 0.960 . S
C959 C956 1.511 . S
C959 H973 0.961 . S
C959 H974 0.961 . S
C959 H975 0.961 . S
C960 C961 1.370 . S
C960 C962 1.363 . S
C960 H976 0.931 . S
C961 C960 1.370 . S
C961 C965 1.408 . S
C962 C960 1.363 . S
C962 C963 1.370 . S
C962 C966 1.524 . S
C963 C955 1.503 . S
C963 C962 1.370 . S
C963 C964 1.403 . S
C964 C963 1.403 . S
C964 C965 1.404 . S
C964 C967 1.539 . S
C965 C961 1.408 . S
C965 C964 1.404 . S
C965 H977 0.930 . S
C966 C962 1.524 . S
C966 H978 0.956 . S
C966 H979 0.961 . S
C966 H980 0.961 . S
C967 C964 1.539 . S
C967 H981 0.958 . S
C967 H982 0.961 . S
C967 H983 0.960 . S
H968 C952 0.931 . S
H969 C957 0.929 . S
H970 C958 0.960 . S
H971 C958 0.962 . S
H972 C958 0.960 . S
H973 C959 0.961 . S
H974 C959 0.961 . S
H975 C959 0.961 . S
H976 C960 0.931 . S
H977 C965 0.930 . S
H978 C966 0.956 . S
H979 C966 0.961 . S
H980 C966 0.961 . S
H981 C967 0.958 . S
H982 C967 0.961 . S
H983 C967 0.960 . S
C984 C985 1.391 . S
C984 C986 1.394 . S
C984 H1000 0.931 . S
C985 C984 1.391 . S
C985 C989 1.376 . S
C986 C984 1.394 . S
C986 C987 1.369 . S
C986 C990 1.531 . S
C987 C986 1.369 . S
C987 C988 1.410 . S
C987 C995 1.503 . S
C988 C987 1.410 . S
C988 C989 1.392 . S
C988 C991 1.511 . S
C989 C985 1.376 . S
C989 C988 1.392 . S
C989 H1001 0.929 . S
C990 C986 1.531 . S
C990 H1002 0.960 . S
C990 H1003 0.962 . S
C990 H1004 0.960 . S
C991 C988 1.511 . S
C991 H1005 0.961 . S
C991 H1006 0.961 . S
C991 H1007 0.961 . S
C992 C993 1.370 . S
C992 C994 1.363 . S
C992 H1008 0.931 . S
C993 C992 1.370 . S
C993 C997 1.408 . S
C994 C992 1.363 . S
C994 C995 1.370 . S
C994 C998 1.524 . S
C995 C987 1.503 . S
C995 C994 1.370 . S
C995 C996 1.403 . S
C996 C995 1.403 . S
C996 C997 1.404 . S
C996 C999 1.539 . S
C997 C993 1.408 . S
C997 C996 1.404 . S
C997 H1009 0.930 . S
C998 C994 1.524 . S
C998 H1010 0.956 . S
C998 H1011 0.961 . S
C998 H1012 0.961 . S
C999 C996 1.539 . S
C999 H1013 0.958 . S
C999 H1014 0.961 . S
C999 H1015 0.960 . S
H1000 C984 0.931 . S
H1001 C989 0.929 . S
H1002 C990 0.960 . S
H1003 C990 0.962 . S
H1004 C990 0.960 . S
H1005 C991 0.961 . S
H1006 C991 0.961 . S
H1007 C991 0.961 . S
H1008 C992 0.931 . S
H1009 C997 0.930 . S
H1010 C998 0.956 . S
H1011 C998 0.961 . S
H1012 C998 0.961 . S
H1013 C999 0.958 . S
H1014 C999 0.961 . S
H1015 C999 0.960 . S
C1016 C1017 1.391 . S
C1016 C1018 1.394 . S
C1016 H1032 0.931 . S
C1017 C1016 1.391 . S
C1017 C1021 1.376 . S
C1018 C1016 1.394 . S
C1018 C1019 1.369 . S
C1018 C1022 1.531 . S
C1019 C1018 1.369 . S
C1019 C1020 1.410 . S
C1019 C1027 1.503 . S
C1020 C1019 1.410 . S
C1020 C1021 1.392 . S
C1020 C1023 1.511 . S
C1021 C1017 1.376 . S
C1021 C1020 1.392 . S
C1021 H1033 0.929 . S
C1022 C1018 1.531 . S
C1022 H1034 0.960 . S
C1022 H1035 0.962 . S
C1022 H1036 0.960 . S
C1023 C1020 1.511 . S
C1023 H1037 0.961 . S
C1023 H1038 0.961 . S
C1023 H1039 0.961 . S
C1024 C1025 1.370 . S
C1024 C1026 1.363 . S
C1024 H1040 0.931 . S
C1025 C1024 1.370 . S
C1025 C1029 1.408 . S
C1026 C1024 1.363 . S
C1026 C1027 1.370 . S
C1026 C1030 1.524 . S
C1027 C1019 1.503 . S
C1027 C1026 1.370 . S
C1027 C1028 1.403 . S
C1028 C1027 1.403 . S
C1028 C1029 1.404 . S
C1028 C1031 1.539 . S
C1029 C1025 1.408 . S
C1029 C1028 1.404 . S
C1029 H1041 0.930 . S
C1030 C1026 1.524 . S
C1030 H1042 0.956 . S
C1030 H1043 0.961 . S
C1030 H1044 0.961 . S
C1031 C1028 1.539 . S
C1031 H1045 0.958 . S
C1031 H1046 0.961 . S
C1031 H1047 0.960 . S
H1032 C1016 0.931 . S
H1033 C1021 0.929 . S
H1034 C1022 0.960 . S
H1035 C1022 0.962 . S
H1036 C1022 0.960 . S
H1037 C1023 0.961 . S
H1038 C1023 0.961 . S
H1039 C1023 0.961 . S
H1040 C1024 0.931 . S
H1041 C1029 0.930 . S
H1042 C1030 0.956 . S
H1043 C1030 0.961 . S
H1044 C1030 0.961 . S
H1045 C1031 0.958 . S
H1046 C1031 0.961 . S
H1047 C1031 0.960 . S
C1048 C1049 1.391 . S
C1048 C1050 1.394 . S
C1048 H1064 0.931 . S
C1049 C1048 1.391 . S
C1049 C1053 1.376 . S
C1050 C1048 1.394 . S
C1050 C1051 1.369 . S
C1050 C1054 1.531 . S
C1051 C1050 1.369 . S
C1051 C1052 1.410 . S
C1051 C1059 1.503 . S
C1052 C1051 1.410 . S
C1052 C1053 1.392 . S
C1052 C1055 1.511 . S
C1053 C1049 1.376 . S
C1053 C1052 1.392 . S
C1053 H1065 0.929 . S
C1054 C1050 1.531 . S
C1054 H1066 0.960 . S
C1054 H1067 0.962 . S
C1054 H1068 0.960 . S
C1055 C1052 1.511 . S
C1055 H1069 0.961 . S
C1055 H1070 0.961 . S
C1055 H1071 0.961 . S
C1056 C1057 1.370 . S
C1056 C1058 1.363 . S
C1056 H1072 0.931 . S
C1057 C1056 1.370 . S
C1057 C1061 1.408 . S
C1058 C1056 1.363 . S
C1058 C1059 1.370 . S
C1058 C1062 1.524 . S
C1059 C1051 1.503 . S
C1059 C1058 1.370 . S
C1059 C1060 1.403 . S
C1060 C1059 1.403 . S
C1060 C1061 1.404 . S
C1060 C1063 1.539 . S
C1061 C1057 1.408 . S
C1061 C1060 1.404 . S
C1061 H1073 0.930 . S
C1062 C1058 1.524 . S
C1062 H1074 0.956 . S
C1062 H1075 0.961 . S
C1062 H1076 0.961 . S
C1063 C1060 1.539 . S
C1063 H1077 0.958 . S
C1063 H1078 0.961 1_655 S
C1063 H1079 0.960 . S
H1064 C1048 0.931 . S
H1065 C1053 0.929 . S
H1066 C1054 0.960 . S
H1067 C1054 0.962 . S
H1068 C1054 0.960 . S
H1069 C1055 0.961 . S
H1070 C1055 0.961 . S
H1071 C1055 0.961 . S
H1072 C1056 0.931 . S
H1073 C1061 0.930 . S
H1074 C1062 0.956 . S
H1075 C1062 0.961 . S
H1076 C1062 0.961 . S
H1077 C1063 0.958 . S
H1078 C1063 0.961 1_455 S
H1079 C1063 0.960 . S
C1080 C1081 1.391 . S
C1080 C1082 1.394 . S
C1080 H1096 0.931 . S
C1081 C1080 1.391 . S
C1081 C1085 1.376 . S
C1082 C1080 1.394 . S
C1082 C1083 1.369 . S
C1082 C1086 1.531 . S
C1083 C1082 1.369 . S
C1083 C1084 1.410 . S
C1083 C1091 1.503 . S
C1084 C1083 1.410 . S
C1084 C1085 1.392 . S
C1084 C1087 1.511 . S
C1085 C1081 1.376 . S
C1085 C1084 1.392 . S
C1085 H1097 0.929 . S
C1086 C1082 1.531 . S
C1086 H1098 0.960 . S
C1086 H1099 0.962 . S
C1086 H1100 0.960 . S
C1087 C1084 1.511 . S
C1087 H1101 0.961 . S
C1087 H1102 0.961 . S
C1087 H1103 0.961 . S
C1088 C1089 1.370 . S
C1088 C1090 1.363 1_655 S
C1088 H1104 0.931 . S
C1089 C1088 1.370 . S
C1089 C1093 1.408 1_655 S
C1090 C1088 1.363 1_455 S
C1090 C1091 1.370 . S
C1090 C1094 1.524 1_455 S
C1091 C1083 1.503 . S
C1091 C1090 1.370 . S
C1091 C1092 1.403 . S
C1092 C1091 1.403 . S
C1092 C1093 1.404 . S
C1092 C1095 1.539 . S
C1093 C1089 1.408 1_455 S
C1093 C1092 1.404 . S
C1093 H1105 0.930 . S
C1094 C1090 1.524 1_655 S
C1094 H1106 0.956 . S
C1094 H1107 0.961 1_655 S
C1094 H1108 0.961 . S
C1095 C1092 1.539 . S
C1095 H1109 0.958 . S
C1095 H1110 0.961 . S
C1095 H1111 0.960 . S
H1096 C1080 0.931 . S
H1097 C1085 0.929 . S
H1098 C1086 0.960 . S
H1099 C1086 0.962 . S
H1100 C1086 0.960 . S
H1101 C1087 0.961 . S
H1102 C1087 0.961 . S
H1103 C1087 0.961 . S
H1104 C1088 0.931 . S
H1105 C1093 0.930 . S
H1106 C1094 0.956 . S
H1107 C1094 0.961 1_455 S
H1108 C1094 0.961 . S
H1109 C1095 0.958 . S
H1110 C1095 0.961 . S
H1111 C1095 0.960 . S
C1112 C1113 1.391 . S
C1112 C1114 1.394 . S
C1112 H1128 0.931 . S
C1113 C1112 1.391 . S
C1113 C1117 1.376 . S
C1114 C1112 1.394 . S
C1114 C1115 1.369 . S
C1114 C1118 1.531 . S
C1115 C1114 1.369 . S
C1115 C1116 1.410 . S
C1115 C1123 1.503 . S
C1116 C1115 1.410 . S
C1116 C1117 1.392 . S
C1116 C1119 1.511 . S
C1117 C1113 1.376 . S
C1117 C1116 1.392 . S
C1117 H1129 0.929 . S
C1118 C1114 1.531 . S
C1118 H1130 0.960 . S
C1118 H1131 0.962 . S
C1118 H1132 0.960 . S
C1119 C1116 1.511 . S
C1119 H1133 0.961 . S
C1119 H1134 0.961 . S
C1119 H1135 0.961 . S
C1120 C1121 1.370 . S
C1120 C1122 1.363 . S
C1120 H1136 0.931 . S
C1121 C1120 1.370 . S
C1121 C1125 1.408 . S
C1122 C1120 1.363 . S
C1122 C1123 1.370 . S
C1122 C1126 1.524 . S
C1123 C1115 1.503 . S
C1123 C1122 1.370 . S
C1123 C1124 1.403 . S
C1124 C1123 1.403 . S
C1124 C1125 1.404 . S
C1124 C1127 1.539 . S
C1125 C1121 1.408 . S
C1125 C1124 1.404 . S
C1125 H1137 0.930 . S
C1126 C1122 1.524 . S
C1126 H1138 0.956 . S
C1126 H1139 0.961 . S
C1126 H1140 0.961 . S
C1127 C1124 1.539 . S
C1127 H1141 0.958 . S
C1127 H1142 0.961 . S
C1127 H1143 0.960 . S
H1128 C1112 0.931 . S
H1129 C1117 0.929 . S
H1130 C1118 0.960 . S
H1131 C1118 0.962 . S
H1132 C1118 0.960 . S
H1133 C1119 0.961 . S
H1134 C1119 0.961 . S
H1135 C1119 0.961 . S
H1136 C1120 0.931 . S
H1137 C1125 0.930 . S
H1138 C1126 0.956 . S
H1139 C1126 0.961 . S
H1140 C1126 0.961 . S
H1141 C1127 0.958 . S
H1142 C1127 0.961 . S
H1143 C1127 0.960 . S
C1144 C1145 1.391 . S
C1144 C1146 1.394 . S
C1144 H1160 0.931 . S
C1145 C1144 1.391 . S
C1145 C1149 1.376 . S
C1146 C1144 1.394 . S
C1146 C1147 1.369 . S
C1146 C1150 1.531 . S
C1147 C1146 1.369 . S
C1147 C1148 1.410 . S
C1147 C1155 1.503 . S
C1148 C1147 1.410 . S
C1148 C1149 1.392 . S
C1148 C1151 1.511 . S
C1149 C1145 1.376 . S
C1149 C1148 1.392 . S
C1149 H1161 0.929 . S
C1150 C1146 1.531 . S
C1150 H1162 0.960 . S
C1150 H1163 0.962 . S
C1150 H1164 0.960 . S
C1151 C1148 1.511 . S
C1151 H1165 0.961 . S
C1151 H1166 0.961 . S
C1151 H1167 0.961 . S
C1152 C1153 1.370 . S
C1152 C1154 1.363 . S
C1152 H1168 0.931 . S
C1153 C1152 1.370 . S
C1153 C1157 1.408 . S
C1154 C1152 1.363 . S
C1154 C1155 1.370 . S
C1154 C1158 1.524 . S
C1155 C1147 1.503 . S
C1155 C1154 1.370 . S
C1155 C1156 1.403 . S
C1156 C1155 1.403 . S
C1156 C1157 1.404 . S
C1156 C1159 1.539 . S
C1157 C1153 1.408 . S
C1157 C1156 1.404 . S
C1157 H1169 0.930 . S
C1158 C1154 1.524 . S
C1158 H1170 0.956 . S
C1158 H1171 0.961 . S
C1158 H1172 0.961 . S
C1159 C1156 1.539 . S
C1159 H1173 0.958 . S
C1159 H1174 0.961 . S
C1159 H1175 0.960 . S
H1160 C1144 0.931 . S
H1161 C1149 0.929 . S
H1162 C1150 0.960 . S
H1163 C1150 0.962 . S
H1164 C1150 0.960 . S
H1165 C1151 0.961 . S
H1166 C1151 0.961 . S
H1167 C1151 0.961 . S
H1168 C1152 0.931 . S
H1169 C1157 0.930 . S
H1170 C1158 0.956 . S
H1171 C1158 0.961 . S
H1172 C1158 0.961 . S
H1173 C1159 0.958 . S
H1174 C1159 0.961 . S
H1175 C1159 0.960 . S
C1176 C1177 1.391 . S
C1176 C1178 1.394 . S
C1176 H1192 0.931 . S
C1177 C1176 1.391 . S
C1177 C1181 1.376 . S
C1178 C1176 1.394 . S
C1178 C1179 1.369 . S
C1178 C1182 1.531 . S
C1179 C1178 1.369 . S
C1179 C1180 1.410 . S
C1179 C1187 1.503 . S
C1180 C1179 1.410 . S
C1180 C1181 1.392 . S
C1180 C1183 1.511 . S
C1181 C1177 1.376 . S
C1181 C1180 1.392 . S
C1181 H1193 0.929 . S
C1182 C1178 1.531 . S
C1182 H1194 0.960 . S
C1182 H1195 0.962 1_455 S
C1182 H1196 0.960 . S
C1183 C1180 1.511 . S
C1183 H1197 0.961 . S
C1183 H1198 0.961 . S
C1183 H1199 0.961 . S
C1184 C1185 1.370 1_655 S
C1184 C1186 1.363 1_655 S
C1184 H1200 0.931 . S
C1185 C1184 1.370 1_455 S
C1185 C1189 1.408 . S
C1186 C1184 1.363 1_455 S
C1186 C1187 1.370 . S
C1186 C1190 1.524 . S
C1187 C1179 1.503 . S
C1187 C1186 1.370 . S
C1187 C1188 1.403 . S
C1188 C1187 1.403 . S
C1188 C1189 1.404 . S
C1188 C1191 1.539 . S
C1189 C1185 1.408 . S
C1189 C1188 1.404 . S
C1189 H1201 0.930 . S
C1190 C1186 1.524 . S
C1190 H1202 0.956 1_455 S
C1190 H1203 0.961 . S
C1190 H1204 0.961 1_455 S
C1191 C1188 1.539 . S
C1191 H1205 0.958 . S
C1191 H1206 0.961 . S
C1191 H1207 0.960 . S
H1192 C1176 0.931 . S
H1193 C1181 0.929 . S
H1194 C1182 0.960 . S
H1195 C1182 0.962 1_655 S
H1196 C1182 0.960 . S
H1197 C1183 0.961 . S
H1198 C1183 0.961 . S
H1199 C1183 0.961 . S
H1200 C1184 0.931 . S
H1201 C1189 0.930 . S
H1202 C1190 0.956 1_655 S
H1203 C1190 0.961 . S
H1204 C1190 0.961 1_655 S
H1205 C1191 0.958 . S
H1206 C1191 0.961 . S
H1207 C1191 0.960 . S
C1208 C1209 1.391 . S
C1208 C1210 1.394 . S
C1208 H1224 0.931 . S
C1209 C1208 1.391 . S
C1209 C1213 1.376 . S
C1210 C1208 1.394 . S
C1210 C1211 1.369 . S
C1210 C1214 1.531 . S
C1211 C1210 1.369 . S
C1211 C1212 1.410 . S
C1211 C1219 1.503 . S
C1212 C1211 1.410 . S
C1212 C1213 1.392 . S
C1212 C1215 1.511 . S
C1213 C1209 1.376 . S
C1213 C1212 1.392 . S
C1213 H1225 0.929 . S
C1214 C1210 1.531 . S
C1214 H1226 0.960 . S
C1214 H1227 0.962 . S
C1214 H1228 0.960 . S
C1215 C1212 1.511 . S
C1215 H1229 0.961 . S
C1215 H1230 0.961 . S
C1215 H1231 0.961 . S
C1216 C1217 1.370 . S
C1216 C1218 1.363 . S
C1216 H1232 0.931 . S
C1217 C1216 1.370 . S
C1217 C1221 1.408 . S
C1218 C1216 1.363 . S
C1218 C1219 1.370 . S
C1218 C1222 1.524 . S
C1219 C1211 1.503 . S
C1219 C1218 1.370 . S
C1219 C1220 1.403 . S
C1220 C1219 1.403 . S
C1220 C1221 1.404 . S
C1220 C1223 1.539 . S
C1221 C1217 1.408 . S
C1221 C1220 1.404 . S
C1221 H1233 0.930 . S
C1222 C1218 1.524 . S
C1222 H1234 0.956 . S
C1222 H1235 0.961 . S
C1222 H1236 0.961 . S
C1223 C1220 1.539 . S
C1223 H1237 0.958 . S
C1223 H1238 0.961 . S
C1223 H1239 0.960 . S
H1224 C1208 0.931 . S
H1225 C1213 0.929 . S
H1226 C1214 0.960 . S
H1227 C1214 0.962 . S
H1228 C1214 0.960 . S
H1229 C1215 0.961 . S
H1230 C1215 0.961 . S
H1231 C1215 0.961 . S
H1232 C1216 0.931 . S
H1233 C1221 0.930 . S
H1234 C1222 0.956 . S
H1235 C1222 0.961 . S
H1236 C1222 0.961 . S
H1237 C1223 0.958 . S
H1238 C1223 0.961 . S
H1239 C1223 0.960 . S
C225 C129 1.235 . S
C217 C5 1.240 . S
C257 C143 1.285 . S
C249 C18 1.296 . S
C289 C151 1.264 . S
C281 C31 1.260 . S
C313 C42 1.179 . S
C321 C109 1.205 . S
C345 C57 1.425 . S
C353 C115 1.421 1_556 S
C377 C70 1.462 . S
C385 C123 1.480 . S
C417 C137 1.503 . S
C409 C81 1.497 . S
C449 C157 1.453 . S
C441 C96 1.402 . S
C473 C29 1.421 . S
C481 C185 1.426 . S
C513 C199 1.463 . S
C505 C44 1.431 . S
C537 C3 1.461 . S
C545 C207 1.463 . S
C577 C171 1.452 . S
C569 C16 1.462 . S
C601 C83 1.244 . S
C609 C165 1.231 . S
C633 C94 1.195 . S
C641 C179 1.250 . S
C673 C193 1.289 . S
C665 C55 1.267 . S
C697 C68 1.284 . S
C705 C213 1.322 . S
C737 C132 1.324 . S
C729 C1 1.373 . S
C769 C155 1.353 . S
C761 C14 1.389 . S
C793 C27 1.338 . S
C801 C113 1.331 . S
C825 C49 1.328 . S
C833 C118 1.297 . S
C857 C53 1.626 . S
C865 C146 1.662 . S
C897 C104 1.659 . S
C889 C66 1.668 . S
C929 C127 1.684 . S
C921 C88 1.701 . S
C961 C141 1.685 . S
C953 C92 1.671 . S
C993 C188 1.655 . S
C985 C36 1.686 . S
C1025 C211 1.678 . S
C1017 C40 1.582 . S
C1049 C10 1.672 . S
C1057 C160 1.656 . S
C1089 C174 1.644 . S
C1081 C23 1.701 . S
C1121 C202 1.317 . S
C1113 C79 1.378 . S
C1145 C101 1.362 . S
C1153 C169 1.351 . S
C1185 C183 1.341 1_455 S
C1177 C62 1.341 . S
C1217 C197 1.383 . S
C1209 C75 1.390 . S
