# Generated by pormake.
# Topology iac, (4,6)-cn, num edge types: 1
# Building blocks:
#     Node 0, Type 0, BuildingBlock: QUQFOY_clean_sbu_1, # of connection points: 4
#     Node 1, Type 0, BuildingBlock: QUQFOY_clean_sbu_1, # of connection points: 4
#     Node 2, Type 0, BuildingBlock: QUQFOY_clean_sbu_1, # of connection points: 4
#     Node 3, Type 0, BuildingBlock: QUQFOY_clean_sbu_1, # of connection points: 4
#     Node 4, Type 0, BuildingBlock: QUQFOY_clean_sbu_1, # of connection points: 4
#     Node 5, Type 0, BuildingBlock: QUQFOY_clean_sbu_1, # of connection points: 4
#     Node 6, Type 0, BuildingBlock: QUQFOY_clean_sbu_1, # of connection points: 4
#     Node 7, Type 0, BuildingBlock: QUQFOY_clean_sbu_1, # of connection points: 4
#     Node 8, Type 0, BuildingBlock: QUQFOY_clean_sbu_1, # of connection points: 4
#     Node 9, Type 0, BuildingBlock: QUQFOY_clean_sbu_1, # of connection points: 4
#     Node 10, Type 0, BuildingBlock: QUQFOY_clean_sbu_1, # of connection points: 4
#     Node 11, Type 0, BuildingBlock: QUQFOY_clean_sbu_1, # of connection points: 4
#     Node 12, Type 0, BuildingBlock: QUQFOY_clean_sbu_1, # of connection points: 4
#     Node 13, Type 0, BuildingBlock: QUQFOY_clean_sbu_1, # of connection points: 4
#     Node 14, Type 0, BuildingBlock: QUQFOY_clean_sbu_1, # of connection points: 4
#     Node 15, Type 0, BuildingBlock: QUQFOY_clean_sbu_1, # of connection points: 4
#     Node 16, Type 0, BuildingBlock: QUQFOY_clean_sbu_1, # of connection points: 4
#     Node 17, Type 0, BuildingBlock: QUQFOY_clean_sbu_1, # of connection points: 4
#     Node 18, Type 0, BuildingBlock: QUQFOY_clean_sbu_1, # of connection points: 4
#     Node 19, Type 0, BuildingBlock: QUQFOY_clean_sbu_1, # of connection points: 4
#     Node 20, Type 0, BuildingBlock: QUQFOY_clean_sbu_1, # of connection points: 4
#     Node 21, Type 0, BuildingBlock: QUQFOY_clean_sbu_1, # of connection points: 4
#     Node 22, Type 0, BuildingBlock: QUQFOY_clean_sbu_1, # of connection points: 4
#     Node 23, Type 0, BuildingBlock: QUQFOY_clean_sbu_1, # of connection points: 4
#     Node 24, Type 1, BuildingBlock: FUNLAD_clean_sbu_0, # of connection points: 6
#     Node 25, Type 1, BuildingBlock: FUNLAD_clean_sbu_0, # of connection points: 6
#     Node 26, Type 1, BuildingBlock: FUNLAD_clean_sbu_0, # of connection points: 6
#     Node 27, Type 1, BuildingBlock: FUNLAD_clean_sbu_0, # of connection points: 6
#     Node 28, Type 1, BuildingBlock: FUNLAD_clean_sbu_0, # of connection points: 6
#     Node 29, Type 1, BuildingBlock: FUNLAD_clean_sbu_0, # of connection points: 6
#     Node 30, Type 1, BuildingBlock: FUNLAD_clean_sbu_0, # of connection points: 6
#     Node 31, Type 1, BuildingBlock: FUNLAD_clean_sbu_0, # of connection points: 6
#     Node 32, Type 1, BuildingBlock: FUNLAD_clean_sbu_0, # of connection points: 6
#     Node 33, Type 1, BuildingBlock: FUNLAD_clean_sbu_0, # of connection points: 6
#     Node 34, Type 1, BuildingBlock: FUNLAD_clean_sbu_0, # of connection points: 6
#     Node 35, Type 1, BuildingBlock: FUNLAD_clean_sbu_0, # of connection points: 6
#     Node 36, Type 1, BuildingBlock: FUNLAD_clean_sbu_0, # of connection points: 6
#     Node 37, Type 1, BuildingBlock: FUNLAD_clean_sbu_0, # of connection points: 6
#     Node 38, Type 1, BuildingBlock: FUNLAD_clean_sbu_0, # of connection points: 6
#     Node 39, Type 1, BuildingBlock: FUNLAD_clean_sbu_0, # of connection points: 6
#     Edge 40, Type (0, 1), BuildingBlock: XUDNAN_clean_linker_2, # of connection points: 2
#     Edge 41, Type (0, 1), BuildingBlock: XUDNAN_clean_linker_2, # of connection points: 2
#     Edge 42, Type (0, 1), BuildingBlock: XUDNAN_clean_linker_2, # of connection points: 2
#     Edge 43, Type (0, 1), BuildingBlock: XUDNAN_clean_linker_2, # of connection points: 2
#     Edge 44, Type (0, 1), BuildingBlock: XUDNAN_clean_linker_2, # of connection points: 2
#     Edge 45, Type (0, 1), BuildingBlock: XUDNAN_clean_linker_2, # of connection points: 2
#     Edge 46, Type (0, 1), BuildingBlock: XUDNAN_clean_linker_2, # of connection points: 2
#     Edge 47, Type (0, 1), BuildingBlock: XUDNAN_clean_linker_2, # of connection points: 2
#     Edge 48, Type (0, 1), BuildingBlock: XUDNAN_clean_linker_2, # of connection points: 2
#     Edge 49, Type (0, 1), BuildingBlock: XUDNAN_clean_linker_2, # of connection points: 2
#     Edge 50, Type (0, 1), BuildingBlock: XUDNAN_clean_linker_2, # of connection points: 2
#     Edge 51, Type (0, 1), BuildingBlock: XUDNAN_clean_linker_2, # of connection points: 2
#     Edge 52, Type (0, 1), BuildingBlock: XUDNAN_clean_linker_2, # of connection points: 2
#     Edge 53, Type (0, 1), BuildingBlock: XUDNAN_clean_linker_2, # of connection points: 2
#     Edge 54, Type (0, 1), BuildingBlock: XUDNAN_clean_linker_2, # of connection points: 2
#     Edge 55, Type (0, 1), BuildingBlock: XUDNAN_clean_linker_2, # of connection points: 2
#     Edge 56, Type (0, 1), BuildingBlock: XUDNAN_clean_linker_2, # of connection points: 2
#     Edge 57, Type (0, 1), BuildingBlock: XUDNAN_clean_linker_2, # of connection points: 2
#     Edge 58, Type (0, 1), BuildingBlock: XUDNAN_clean_linker_2, # of connection points: 2
#     Edge 59, Type (0, 1), BuildingBlock: XUDNAN_clean_linker_2, # of connection points: 2
#     Edge 60, Type (0, 1), BuildingBlock: XUDNAN_clean_linker_2, # of connection points: 2
#     Edge 61, Type (0, 1), BuildingBlock: XUDNAN_clean_linker_2, # of connection points: 2
#     Edge 62, Type (0, 1), BuildingBlock: XUDNAN_clean_linker_2, # of connection points: 2
#     Edge 63, Type (0, 1), BuildingBlock: XUDNAN_clean_linker_2, # of connection points: 2
#     Edge 64, Type (0, 1), BuildingBlock: XUDNAN_clean_linker_2, # of connection points: 2
#     Edge 65, Type (0, 1), BuildingBlock: XUDNAN_clean_linker_2, # of connection points: 2
#     Edge 66, Type (0, 1), BuildingBlock: XUDNAN_clean_linker_2, # of connection points: 2
#     Edge 67, Type (0, 1), BuildingBlock: XUDNAN_clean_linker_2, # of connection points: 2
#     Edge 68, Type (0, 1), BuildingBlock: XUDNAN_clean_linker_2, # of connection points: 2
#     Edge 69, Type (0, 1), BuildingBlock: XUDNAN_clean_linker_2, # of connection points: 2
#     Edge 70, Type (0, 1), BuildingBlock: XUDNAN_clean_linker_2, # of connection points: 2
#     Edge 71, Type (0, 1), BuildingBlock: XUDNAN_clean_linker_2, # of connection points: 2
#     Edge 72, Type (0, 1), BuildingBlock: XUDNAN_clean_linker_2, # of connection points: 2
#     Edge 73, Type (0, 1), BuildingBlock: XUDNAN_clean_linker_2, # of connection points: 2
#     Edge 74, Type (0, 1), BuildingBlock: XUDNAN_clean_linker_2, # of connection points: 2
#     Edge 75, Type (0, 1), BuildingBlock: XUDNAN_clean_linker_2, # of connection points: 2
#     Edge 76, Type (0, 1), BuildingBlock: XUDNAN_clean_linker_2, # of connection points: 2
#     Edge 77, Type (0, 1), BuildingBlock: XUDNAN_clean_linker_2, # of connection points: 2
#     Edge 78, Type (0, 1), BuildingBlock: XUDNAN_clean_linker_2, # of connection points: 2
#     Edge 79, Type (0, 1), BuildingBlock: XUDNAN_clean_linker_2, # of connection points: 2
#     Edge 80, Type (0, 1), BuildingBlock: XUDNAN_clean_linker_2, # of connection points: 2
#     Edge 81, Type (0, 1), BuildingBlock: XUDNAN_clean_linker_2, # of connection points: 2
#     Edge 82, Type (0, 1), BuildingBlock: XUDNAN_clean_linker_2, # of connection points: 2
#     Edge 83, Type (0, 1), BuildingBlock: XUDNAN_clean_linker_2, # of connection points: 2
#     Edge 84, Type (0, 1), BuildingBlock: XUDNAN_clean_linker_2, # of connection points: 2
#     Edge 85, Type (0, 1), BuildingBlock: XUDNAN_clean_linker_2, # of connection points: 2
#     Edge 86, Type (0, 1), BuildingBlock: XUDNAN_clean_linker_2, # of connection points: 2
#     Edge 87, Type (0, 1), BuildingBlock: XUDNAN_clean_linker_2, # of connection points: 2
#     Edge 88, Type (0, 1), BuildingBlock: XUDNAN_clean_linker_2, # of connection points: 2
#     Edge 89, Type (0, 1), BuildingBlock: XUDNAN_clean_linker_2, # of connection points: 2
#     Edge 90, Type (0, 1), BuildingBlock: XUDNAN_clean_linker_2, # of connection points: 2
#     Edge 91, Type (0, 1), BuildingBlock: XUDNAN_clean_linker_2, # of connection points: 2
#     Edge 92, Type (0, 1), BuildingBlock: XUDNAN_clean_linker_2, # of connection points: 2
#     Edge 93, Type (0, 1), BuildingBlock: XUDNAN_clean_linker_2, # of connection points: 2
#     Edge 94, Type (0, 1), BuildingBlock: XUDNAN_clean_linker_2, # of connection points: 2
#     Edge 95, Type (0, 1), BuildingBlock: XUDNAN_clean_linker_2, # of connection points: 2
#     Edge 96, Type (0, 1), BuildingBlock: XUDNAN_clean_linker_2, # of connection points: 2
#     Edge 97, Type (0, 1), BuildingBlock: XUDNAN_clean_linker_2, # of connection points: 2
#     Edge 98, Type (0, 1), BuildingBlock: XUDNAN_clean_linker_2, # of connection points: 2
#     Edge 99, Type (0, 1), BuildingBlock: XUDNAN_clean_linker_2, # of connection points: 2
#     Edge 100, Type (0, 1), BuildingBlock: XUDNAN_clean_linker_2, # of connection points: 2
#     Edge 101, Type (0, 1), BuildingBlock: XUDNAN_clean_linker_2, # of connection points: 2
#     Edge 102, Type (0, 1), BuildingBlock: XUDNAN_clean_linker_2, # of connection points: 2
#     Edge 103, Type (0, 1), BuildingBlock: XUDNAN_clean_linker_2, # of connection points: 2
#     Edge 104, Type (0, 1), BuildingBlock: XUDNAN_clean_linker_2, # of connection points: 2
#     Edge 105, Type (0, 1), BuildingBlock: XUDNAN_clean_linker_2, # of connection points: 2
#     Edge 106, Type (0, 1), BuildingBlock: XUDNAN_clean_linker_2, # of connection points: 2
#     Edge 107, Type (0, 1), BuildingBlock: XUDNAN_clean_linker_2, # of connection points: 2
#     Edge 108, Type (0, 1), BuildingBlock: XUDNAN_clean_linker_2, # of connection points: 2
#     Edge 109, Type (0, 1), BuildingBlock: XUDNAN_clean_linker_2, # of connection points: 2
#     Edge 110, Type (0, 1), BuildingBlock: XUDNAN_clean_linker_2, # of connection points: 2
#     Edge 111, Type (0, 1), BuildingBlock: XUDNAN_clean_linker_2, # of connection points: 2
#     Edge 112, Type (0, 1), BuildingBlock: XUDNAN_clean_linker_2, # of connection points: 2
#     Edge 113, Type (0, 1), BuildingBlock: XUDNAN_clean_linker_2, # of connection points: 2
#     Edge 114, Type (0, 1), BuildingBlock: XUDNAN_clean_linker_2, # of connection points: 2
#     Edge 115, Type (0, 1), BuildingBlock: XUDNAN_clean_linker_2, # of connection points: 2
#     Edge 116, Type (0, 1), BuildingBlock: XUDNAN_clean_linker_2, # of connection points: 2
#     Edge 117, Type (0, 1), BuildingBlock: XUDNAN_clean_linker_2, # of connection points: 2
#     Edge 118, Type (0, 1), BuildingBlock: XUDNAN_clean_linker_2, # of connection points: 2
#     Edge 119, Type (0, 1), BuildingBlock: XUDNAN_clean_linker_2, # of connection points: 2
#     Edge 120, Type (0, 1), BuildingBlock: XUDNAN_clean_linker_2, # of connection points: 2
#     Edge 121, Type (0, 1), BuildingBlock: XUDNAN_clean_linker_2, # of connection points: 2
#     Edge 122, Type (0, 1), BuildingBlock: XUDNAN_clean_linker_2, # of connection points: 2
#     Edge 123, Type (0, 1), BuildingBlock: XUDNAN_clean_linker_2, # of connection points: 2
#     Edge 124, Type (0, 1), BuildingBlock: XUDNAN_clean_linker_2, # of connection points: 2
#     Edge 125, Type (0, 1), BuildingBlock: XUDNAN_clean_linker_2, # of connection points: 2
#     Edge 126, Type (0, 1), BuildingBlock: XUDNAN_clean_linker_2, # of connection points: 2
#     Edge 127, Type (0, 1), BuildingBlock: XUDNAN_clean_linker_2, # of connection points: 2
#     Edge 128, Type (0, 1), BuildingBlock: XUDNAN_clean_linker_2, # of connection points: 2
#     Edge 129, Type (0, 1), BuildingBlock: XUDNAN_clean_linker_2, # of connection points: 2
#     Edge 130, Type (0, 1), BuildingBlock: XUDNAN_clean_linker_2, # of connection points: 2
#     Edge 131, Type (0, 1), BuildingBlock: XUDNAN_clean_linker_2, # of connection points: 2
#     Edge 132, Type (0, 1), BuildingBlock: XUDNAN_clean_linker_2, # of connection points: 2
#     Edge 133, Type (0, 1), BuildingBlock: XUDNAN_clean_linker_2, # of connection points: 2
#     Edge 134, Type (0, 1), BuildingBlock: XUDNAN_clean_linker_2, # of connection points: 2
#     Edge 135, Type (0, 1), BuildingBlock: XUDNAN_clean_linker_2, # of connection points: 2
# Relax obj value: 0.353
# Max RMSD: 0.270
# Mean RMSD: 0.186
data_MOF--net-iac--node1-QUQFOY_clean_sbu_1--node2-FUNLAD_clean_sbu_0--edge1-XUDNAN_clean_linker_2
_symmetry_space_group_name_H-M    P1
_symmetry_Int_Tables_number       1
_symmetry_cell_setting            triclinic
loop_
_symmetry_equiv_pos_as_xyz
'x, y, z'
_cell_length_a     55.993117
_cell_length_b     53.988389
_cell_length_c     60.391579
_cell_angle_alpha  91.091019
_cell_angle_beta   92.476327
_cell_angle_gamma 93.497194
loop_
_atom_site_label
_atom_site_type_symbol
_atom_site_fract_x
_atom_site_fract_y
_atom_site_fract_z
_atom_type_partial_charge
O0 O 0.06578 0.17624 0.17661 0.0
Cd1 Cd 0.06324 0.21079 0.19079 0.0
Cd2 Cd 0.06333 0.22131 0.14846 0.0
O3 O 0.04314 0.18841 0.14906 0.0
O4 O 0.03832 0.21141 0.21313 0.0
O5 O 0.03527 0.22785 0.17967 0.0
C6 C 0.02565 0.22203 0.19802 0.0
C7 C 0.05519 0.24981 0.1217 0.0
C8 C 0.05231 0.17101 0.15955 0.0
C9 C 0.10763 0.23174 0.17754 0.0
O10 O 0.09893 0.22401 0.15872 0.0
O11 O 0.09444 0.23209 0.19412 0.0
O12 O 0.0646 0.22937 0.11667 0.0
O13 O 0.04904 0.25333 0.14183 0.0
O14 O 0.07999 0.75684 0.38579 0.0
Cd15 Cd 0.05138 0.75731 0.40681 0.0
Cd16 Cd 0.03498 0.78745 0.36805 0.0
O17 O 0.06749 0.77609 0.35578 0.0
O18 O 0.06017 0.73521 0.43226 0.0
O19 O 0.03072 0.72533 0.40764 0.0
C20 C 0.04345 0.71937 0.42486 0.0
C21 C 0.99887 0.78396 0.34555 0.0
C22 C 0.08335 0.76417 0.36614 0.0
C23 C 0.03724 0.81131 0.41424 0.0
O24 O 0.03579 0.81459 0.39339 0.0
O25 O 0.04169 0.79013 0.4219 0.0
O26 O 0.01573 0.80074 0.34245 0.0
O27 O 0.00264 0.76839 0.36111 0.0
O28 O 0.54862 0.68227 0.67244 0.0
Cd29 Cd 0.54985 0.70452 0.70088 0.0
Cd30 Cd 0.55379 0.73504 0.66552 0.0
O31 O 0.52589 0.70986 0.65818 0.0
O32 O 0.52703 0.69036 0.72204 0.0
O33 O 0.52088 0.72336 0.70134 0.0
C34 C 0.51296 0.70683 0.7148 0.0
C35 C 0.55765 0.76855 0.64252 0.0
C36 C 0.53199 0.68775 0.65876 0.0
C37 C 0.59349 0.73136 0.69577 0.0
O38 O 0.58696 0.72483 0.67613 0.0
O39 O 0.57908 0.72718 0.71103 0.0
O40 O 0.55018 0.77144 0.66228 0.0
O41 O 0.5618 0.74654 0.63581 0.0
O42 O 0.58146 0.2606 0.88053 0.0
Cd43 Cd 0.5577 0.25718 0.90632 0.0
Cd44 Cd 0.53027 0.28602 0.87318 0.0
O45 O 0.56058 0.27999 0.85495 0.0
O46 O 0.5754 0.23573 0.92753 0.0
O47 O 0.53995 0.2239 0.91239 0.0
C48 C 0.55801 0.21902 0.92525 0.0
C49 C 0.49096 0.27607 0.85803 0.0
C50 C 0.57964 0.26979 0.86127 0.0
C51 C 0.54123 0.30884 0.91942 0.0
O52 O 0.53344 0.31183 0.89957 0.0
O53 O 0.55026 0.28861 0.925 0.0
O54 O 0.50296 0.29615 0.85289 0.0
O55 O 0.5015 0.26125 0.87131 0.0
O56 O 0.1541 -0.00082 0.21641 0.0
Cd57 Cd 0.18242 0.99779 0.23895 0.0
Cd58 Cd 0.15625 0.03133 0.26023 0.0
O59 O 0.13591 0.03041 0.23072 0.0
O60 O 0.20062 0.97326 0.22332 0.0
O61 O 0.18739 0.96708 0.25681 0.0
C62 C 0.19889 0.95931 0.24023 0.0
C63 C 0.13829 0.02372 0.29355 0.0
C64 C 0.1378 0.01446 0.21524 0.0
C65 C 0.20724 0.04709 0.25243 0.0
O66 O 0.1883 0.05208 0.26198 0.0
O67 O 0.20811 0.02689 0.24151 0.0
O68 O 0.13733 0.04493 0.28419 0.0
O69 O 0.14907 0.00643 0.28364 0.0
O70 O 0.26941 0.90687 0.59561 0.0
Cd71 Cd 0.27061 0.92699 0.56709 0.0
Cd72 Cd 0.2838 0.88056 0.55003 0.0
O73 O 0.27439 0.86966 0.58137 0.0
O74 O 0.24656 0.95252 0.56988 0.0
O75 O 0.24314 0.9216 0.54491 0.0
C76 C 0.23433 0.94075 0.55394 0.0
C77 C 0.27998 0.85184 0.5205 0.0
C78 C 0.27012 0.88356 0.59777 0.0
C79 C 0.31791 0.92755 0.54768 0.0
O80 O 0.31314 0.90432 0.5454 0.0
O81 O 0.30309 0.94145 0.55621 0.0
O82 O 0.29497 0.84948 0.53696 0.0
O83 O 0.26569 0.86969 0.52146 0.0
O84 O 0.40363 0.03351 0.69825 0.0
Cd85 Cd 0.38077 0.0254 0.72378 0.0
Cd86 Cd 0.4243 0.00927 0.74295 0.0
O87 O 0.43775 0.02369 0.71464 0.0
O88 O 0.35328 0.04687 0.71878 0.0
O89 O 0.37828 0.0506 0.74833 0.0
C90 C 0.35999 0.05822 0.73721 0.0
C91 C 0.44943 0.00954 0.77492 0.0
C92 C 0.4262 0.03193 0.69811 0.0
C93 C 0.38163 0.97183 0.73538 0.0
O94 O 0.40372 0.97678 0.74009 0.0
O95 O 0.36821 0.98886 0.7292 0.0
O96 O 0.45374 0.99702 0.75738 0.0
O97 O 0.4313 0.0232 0.7741 0.0
O98 O 0.33323 0.12355 0.07027 0.0
Cd99 Cd 0.31217 0.10377 0.04676 0.0
Cd100 Cd 0.31976 0.1675 0.01754 0.0
O101 O 0.33247 0.15373 0.04671 0.0
O102 O 0.31182 0.06664 0.04757 0.0
O103 O 0.33549 0.09048 0.02711 0.0
C104 C 0.329 0.06881 0.03401 0.0
C105 C 0.34121 0.18435 0.98989 0.0
C106 C 0.34039 0.14525 0.06481 0.0
C107 C 0.27854 0.13544 0.01269 0.0
O108 O 0.28529 0.15698 0.00673 0.0
O109 O 0.2922 0.12428 0.02584 0.0
O110 O 0.33295 0.19851 0.00497 0.0
O111 O 0.34008 0.16063 0.9927 0.0
O112 O 0.77242 0.39315 0.0985 0.0
Cd113 Cd 0.77605 0.42132 0.07535 0.0
Cd114 Cd 0.79395 0.38449 0.052 0.0
O115 O 0.77966 0.36251 0.07572 0.0
O116 O 0.75687 0.44822 0.08677 0.0
O117 O 0.74728 0.42763 0.05532 0.0
C118 C 0.74242 0.44446 0.06967 0.0
C119 C 0.78659 0.37286 0.01519 0.0
C120 C 0.77312 0.37 0.09438 0.0
C121 C 0.82769 0.42719 0.06272 0.0
O122 O 0.82615 0.40409 0.05828 0.0
O123 O 0.80926 0.43811 0.06822 0.0
O124 O 0.80049 0.36081 0.02804 0.0
O125 O 0.77613 0.39138 0.02348 0.0
O126 O 0.91349 0.51653 0.20332 0.0
Cd127 Cd 0.88497 0.51561 0.22444 0.0
Cd128 Cd 0.92187 0.50983 0.25681 0.0
O129 O 0.94189 0.51136 0.22905 0.0
O130 O 0.85892 0.53416 0.21021 0.0
O131 O 0.87799 0.54651 0.24176 0.0
C132 C 0.86188 0.55021 0.22638 0.0
C133 C 0.94259 0.51906 0.29059 0.0
C134 C 0.93539 0.51408 0.20889 0.0
C135 C 0.88008 0.47025 0.25114 0.0
O136 O 0.89907 0.47942 0.26108 0.0
O137 O 0.87082 0.48134 0.2348 0.0
O138 O 0.94648 0.49988 0.27874 0.0
O139 O 0.92779 0.53438 0.28269 0.0
O140 O 0.78617 0.61179 0.54677 0.0
Cd141 Cd 0.79281 0.5986 0.51546 0.0
Cd142 Cd 0.80809 0.65328 0.51914 0.0
O143 O 0.82075 0.63139 0.54344 0.0
O144 O 0.82685 0.59417 0.51394 0.0
O145 O 0.79885 0.56276 0.51185 0.0
C146 C 0.82115 0.57067 0.51253 0.0
C147 C 0.82803 0.67856 0.49578 0.0
C148 C 0.80353 0.6253 0.55554 0.0
C149 C 0.76637 0.63369 0.49376 0.0
O150 O 0.77233 0.64831 0.51003 0.0
O151 O 0.78057 0.61741 0.48856 0.0
O152 O 0.8268 0.65468 0.49288 0.0
O153 O 0.82094 0.68776 0.51418 0.0
O154 O 0.65083 0.50275 0.71631 0.0
Cd155 Cd 0.68125 0.50469 0.73648 0.0
Cd156 Cd 0.65424 0.52883 0.76479 0.0
O157 O 0.62978 0.52545 0.73806 0.0
O158 O 0.701 0.47738 0.72695 0.0
O159 O 0.68754 0.48119 0.76085 0.0
C160 C 0.69973 0.46932 0.74687 0.0
C161 C 0.63961 0.52174 0.80004 0.0
C162 C 0.63196 0.51385 0.71979 0.0
C163 C 0.69869 0.55618 0.74868 0.0
O164 O 0.68192 0.55551 0.76223 0.0
O165 O 0.70155 0.53762 0.73605 0.0
O166 O 0.63609 0.54197 0.78978 0.0
O167 O 0.65159 0.50531 0.79032 0.0
O168 O 0.03107 0.80471 0.91056 0.0
Cd169 Cd 0.99658 0.79596 0.91974 0.0
Cd170 Cd 0.98781 0.79809 0.87817 0.0
O171 O 0.02335 0.7929 0.87581 0.0
O172 O 8e-05 0.78261 0.94996 0.0
O173 O 0.98281 0.7613 0.92107 0.0
C174 C 0.98925 0.76249 0.94184 0.0
C175 C 0.95936 0.7719 0.8598 0.0
C176 C 0.03824 0.79998 0.8914 0.0
C177 C 0.9733 0.83977 0.90582 0.0
O178 O 0.97967 0.83368 0.88664 0.0
O179 O 0.97439 0.82429 0.9213 0.0
O180 O 0.97163 0.78859 0.84932 0.0
O181 O 0.96361 0.76999 0.88085 0.0
O182 O 0.01988 0.21819 0.65137 0.0
Cd183 Cd 0.02135 0.24853 0.67357 0.0
Cd184 Cd 0.03784 0.2708 0.63449 0.0
O185 O 0.02921 0.23568 0.61981 0.0
O186 O 0.00285 0.23736 0.70008 0.0
O187 O 0.99091 0.26705 0.67864 0.0
C188 C 0.9872 0.25327 0.69555 0.0
C189 C 0.02584 0.30847 0.61938 0.0
C190 C 0.02345 0.21634 0.63066 0.0
C191 C 0.07328 0.26848 0.67456 0.0
O192 O 0.06924 0.27362 0.65427 0.0
O193 O 0.05628 0.25954 0.68602 0.0
O194 O 0.04207 0.29607 0.61049 0.0
O195 O 0.01559 0.29892 0.63629 0.0
O196 O 0.48206 0.27042 0.38862 0.0
Cd197 Cd 0.4959 0.30657 0.38543 0.0
Cd198 Cd 0.49105 0.30733 0.42735 0.0
O199 O 0.49849 0.27144 0.42221 0.0
O200 O 0.50773 0.30636 0.35525 0.0
O201 O 0.53139 0.31268 0.38558 0.0
C202 C 0.52898 0.3099 0.36427 0.0
C203 C 0.51062 0.32663 0.45773 0.0
C204 C 0.48971 0.25917 0.40544 0.0
C205 C 0.45643 0.33253 0.39921 0.0
O206 O 0.4581 0.31876 0.41595 0.0
O207 O 0.47429 0.33546 0.38719 0.0
O208 O 0.49235 0.31127 0.45985 0.0
O209 O 0.51751 0.33138 0.43799 0.0
O210 O 0.52132 0.7178 0.15378 0.0
Cd211 Cd 0.52249 0.74842 0.17544 0.0
Cd212 Cd 0.54131 0.76999 0.13557 0.0
O213 O 0.53294 0.73415 0.12233 0.0
O214 O 0.50318 0.73854 0.20192 0.0
O215 O 0.49193 0.76718 0.17892 0.0
C216 C 0.48772 0.75425 0.19626 0.0
C217 C 0.53072 0.80635 0.11685 0.0
C218 C 0.52605 0.71531 0.13338 0.0
C219 C 0.57468 0.76808 0.17761 0.0
O220 O 0.5714 0.77347 0.15726 0.0
O221 O 0.55728 0.75898 0.18849 0.0
O222 O 0.54777 0.79336 0.11028 0.0
O223 O 0.51916 0.79831 0.13362 0.0
O224 O 0.91975 0.03624 0.76137 0.0
Cd225 Cd 0.89997 0.03328 0.7893 0.0
Cd226 Cd 0.93812 0.00787 0.80089 0.0
O227 O 0.95333 0.02022 0.77249 0.0
O228 O 0.87205 0.05154 0.77877 0.0
O229 O 0.89402 0.06271 0.80898 0.0
C230 C 0.87615 0.06645 0.7955 0.0
C231 C 0.94992 0.01947 0.8368 0.0
C232 C 0.94086 0.03043 0.7576 0.0
C233 C 0.89269 0.9784 0.79689 0.0
O234 O 0.91522 0.97685 0.79704 0.0
O235 O 0.88359 -0.00067 0.79589 0.0
O236 O 0.96193 0.00414 0.82571 0.0
O237 O 0.93196 0.02933 0.82697 0.0
O238 O 0.78315 0.13757 0.53745 0.0
Cd239 Cd 0.78497 0.11134 0.51227 0.0
Cd240 Cd 0.76235 0.14524 0.48823 0.0
O241 O 0.76375 0.16473 0.51783 0.0
O242 O 0.8092 0.08794 0.52294 0.0
O243 O 0.81295 0.10997 0.49264 0.0
C244 C 0.82145 0.09398 0.50606 0.0
C245 C 0.77587 0.16453 0.45636 0.0
C246 C 0.77296 0.15792 0.53613 0.0
C247 C 0.73466 0.09714 0.49476 0.0
O248 O 0.73467 0.1183 0.48588 0.0
O249 O 0.75331 0.09037 0.50521 0.0
O250 O 0.7559 0.16971 0.4647 0.0
O251 O 0.7883 0.14822 0.46619 0.0
O252 O 0.64527 0.00186 0.25816 0.0
Cd253 Cd 0.67308 0.00022 0.28171 0.0
Cd254 Cd 0.63861 0.01626 0.30918 0.0
O255 O 0.61848 0.01655 0.27981 0.0
O256 O 0.69754 0.98391 0.26457 0.0
O257 O 0.68317 0.96757 0.29475 0.0
C258 C 0.69716 0.96608 0.2784 0.0
C259 C 0.61893 0.00258 0.34067 0.0
C260 C 0.62475 0.01012 0.26068 0.0
C261 C 0.68235 0.05062 0.30365 0.0
O262 O 0.66312 0.04604 0.31365 0.0
O263 O 0.68986 0.03458 0.29037 0.0
O264 O 0.61477 0.02337 0.33165 0.0
O265 O 0.63442 0.98919 0.33175 0.0
O266 O 0.73956 0.91578 0.05719 0.0
Cd267 Cd 0.75408 0.92697 0.0281 0.0
Cd268 Cd 0.74825 0.8788 0.02202 0.0
O269 O 0.72248 0.88027 0.04478 0.0
O270 O 0.75178 0.96366 0.02864 0.0
O271 O 0.73337 0.9381 0.00328 0.0
C272 C 0.73736 0.96027 0.01147 0.0
C273 C 0.74034 0.86997 0.98506 0.0
C274 C 0.72583 0.89664 0.06011 0.0
C275 C 0.79727 0.89908 0.03062 0.0
O276 O 0.78336 0.88019 0.03397 0.0
O277 O 0.78892 0.91925 0.02425 0.0
O278 O 0.74334 0.89258 0.99243 0.0
O279 O 0.74119 0.85214 -0.00096 0.0
O280 O 0.29202 0.64105 0.03508 0.0
Cd281 Cd 0.29418 0.61121 0.01333 0.0
Cd282 Cd 0.26509 0.63999 0.9857 0.0
O283 O 0.26458 0.65961 0.01527 0.0
O284 O 0.31369 0.5892 0.03202 0.0
O285 O 0.32552 0.60215 -0.00023 0.0
C286 C 0.32947 0.58931 0.0172 0.0
C287 C 0.27013 0.6644 0.95431 0.0
C288 C 0.27701 0.6577 0.03317 0.0
C289 C 0.24358 0.59091 0.99736 0.0
O290 O 0.24157 0.60922 0.98461 0.0
O291 O 0.26262 0.58898 0.00934 0.0
O292 O 0.2508 0.66402 0.96509 0.0
O293 O 0.28661 0.6501 0.9607 0.0
O294 O 0.15775 0.50707 0.76438 0.0
Cd295 Cd 0.18141 0.51104 0.79144 0.0
Cd296 Cd 0.13729 0.52416 0.81078 0.0
O297 O 0.12355 0.51541 0.779 0.0
O298 O 0.21082 0.4978 0.77923 0.0
O299 O 0.19218 0.48011 0.80675 0.0
C300 C 0.20913 0.47988 0.79293 0.0
C301 C 0.11174 0.51733 0.84045 0.0
C302 C 0.13536 0.50965 0.76234 0.0
C303 C 0.17882 0.56348 0.80845 0.0
O304 O 0.15757 0.55727 0.81367 0.0
O305 O 0.19197 0.54754 0.80023 0.0
O306 O 0.10799 0.53361 0.82566 0.0
O307 O 0.12993 0.50406 0.83827 0.0
O308 O 0.26394 0.3961 0.53811 0.0
Cd309 Cd 0.25102 0.40071 0.50623 0.0
Cd310 Cd 0.26032 0.35547 0.50403 0.0
O311 O 0.25164 0.35666 0.53662 0.0
O312 O 0.2163 0.39235 0.50168 0.0
O313 O 0.23318 0.43081 0.50572 0.0
C314 C 0.21417 0.41598 0.50387 0.0
C315 C 0.24079 0.32863 0.47849 0.0
C316 C 0.25896 0.37597 0.54789 0.0
C317 C 0.29443 0.39384 0.4893 0.0
O318 O 0.29337 0.37296 0.4986 0.0
O319 O 0.27489 0.4017 0.48184 0.0
O320 O 0.25762 0.32134 0.49172 0.0
O321 O 0.23495 0.35139 0.48005 0.0
O322 O 0.42334 0.52326 0.2606 0.0
Cd323 Cd 0.39393 0.52136 0.27961 0.0
Cd324 Cd 0.42015 0.49471 0.30626 0.0
O325 O 0.44481 0.49955 0.28196 0.0
O326 O 0.37203 0.54587 0.2681 0.0
O327 O 0.38724 0.54699 0.30271 0.0
C328 C 0.37322 0.5558 0.28769 0.0
C329 C 0.4307 0.50339 0.34317 0.0
C330 C 0.44221 0.5118 0.26433 0.0
C331 C 0.37527 0.46942 0.28635 0.0
O332 O 0.39285 0.46773 0.30011 0.0
O333 O 0.37271 0.48929 0.27593 0.0
O334 O 0.43778 0.48397 0.33329 0.0
O335 O 0.41808 0.51844 0.33197 0.0
C336 C 0.01716 0.01285 0.9881 0.0
N337 N 0.0006 0.98805 0.05095 0.0
C338 C 0.98095 0.00159 0.04961 0.0
C339 C 0.95913 0.99146 0.05648 0.0
C340 C 0.9577 0.96716 0.06447 0.0
C341 C 0.97877 0.95485 0.06807 0.0
C342 C 0.00023 0.96573 0.06107 0.0
Zn343 Zn 0.02961 0.99837 0.03398 0.0
C344 C 0.04556 0.95626 0.00774 0.0
N345 N 0.09096 0.01734 -0.00125 0.0
C346 C 0.09159 0.03861 0.98706 0.0
C347 C 0.1099 0.00277 -8e-05 0.0
C348 C 0.13125 0.01045 0.99047 0.0
C349 C 0.13314 0.03356 0.98019 0.0
C350 C 0.11267 0.04716 0.9776 0.0
Zn351 Zn 0.06186 0.00812 0.01591 0.0
O352 O 0.00749 0.00688 0.00604 0.0
C353 C 0.04513 0.05104 0.0402 0.0
O354 O 0.03984 0.01463 0.9876 0.0
H355 H 0.10883 0.98579 0.00913 0.0
H356 H 0.98181 0.01938 0.04165 0.0
H357 H 0.07613 0.04968 0.98613 0.0
O358 O 0.02929 0.03496 0.04611 0.0
O359 O 0.06059 0.04487 0.02676 0.0
H360 H 0.01618 0.95541 0.06204 0.0
O361 O 0.08376 0.00247 0.04502 0.0
O362 O 0.05139 0.99036 0.06188 0.0
O363 O 0.06309 0.97157 0.00465 0.0
O364 O 0.02981 0.96214 0.02101 0.0
C365 C 0.07383 0.99523 0.06249 0.0
H366 H 0.94317 0.00155 0.05372 0.0
H367 H 0.9783 0.93605 0.07407 0.0
H368 H 0.14659 -0.00071 0.99255 0.0
H369 H 0.11339 0.06519 0.97001 0.0
C370 C 0.33016 0.76195 0.26475 0.0
N371 N 0.26662 0.7384 0.22779 0.0
C372 C 0.2788 0.7509 0.21201 0.0
C373 C 0.2757 0.74369 0.18975 0.0
C374 C 0.25958 0.72366 0.18351 0.0
C375 C 0.24645 0.71162 0.19992 0.0
C376 C 0.25044 0.71921 0.22218 0.0
Zn377 Zn 0.27561 0.74869 0.26015 0.0
C378 C 0.29079 0.70731 0.28662 0.0
N379 N 0.29757 0.77197 0.32626 0.0
C380 C 0.30682 0.79506 0.33263 0.0
C381 C 0.29072 0.75506 0.34156 0.0
C382 C 0.29277 0.76107 0.36409 0.0
C383 C 0.30151 0.78491 0.37114 0.0
C384 C 0.30879 0.80203 0.35515 0.0
Zn385 Zn 0.28896 0.76207 0.29373 0.0
O386 O 0.31337 0.75239 0.25177 0.0
C387 C 0.27376 0.80316 0.2665 0.0
O388 O 0.325 0.76932 0.28405 0.0
H389 H 0.28265 0.7371 0.33633 0.0
H390 H 0.29139 0.76627 0.2167 0.0
H391 H 0.31192 0.80835 0.32024 0.0
O392 O 0.27154 0.78551 0.25228 0.0
O393 O 0.28032 0.79892 0.28642 0.0
H394 H 0.24101 0.70947 0.23498 0.0
O395 O 0.25306 0.75432 0.30323 0.0
O396 O 0.23821 0.74543 0.26961 0.0
O397 O 0.2975 0.72513 0.29989 0.0
O398 O 0.2797 0.71152 0.26844 0.0
C399 C 0.23503 0.74872 0.29023 0.0
H400 H 0.28591 0.75359 0.17751 0.0
H401 H 0.23389 0.69603 0.19566 0.0
H402 H 0.28654 0.74749 0.37586 0.0
H403 H 0.31564 0.82063 0.36001 0.0
C404 C 0.51393 0.03142 0.56205 0.0
N405 N 0.5413 0.96421 0.54225 0.0
C406 C 0.55454 0.96576 0.56171 0.0
C407 C 0.5625 0.94433 0.57132 0.0
C408 C 0.55698 0.92133 0.56057 0.0
C409 C 0.54342 0.92029 0.54048 0.0
C410 C 0.5356 0.94209 0.53162 0.0
Zn411 Zn 0.53052 0.99529 0.52806 0.0
C412 C 0.47909 0.9926 0.51689 0.0
N413 N 0.5089 0.06087 0.49895 0.0
C414 C 0.51585 0.08417 0.50648 0.0
C415 C 0.49455 0.05683 0.48032 0.0
C416 C 0.48738 0.07665 0.46788 0.0
C417 C 0.49493 0.10088 0.47475 0.0
C418 C 0.50892 0.10462 0.49459 0.0
Zn419 Zn 0.5202 0.03058 0.51417 0.0
O420 O 0.52113 0.00968 0.55953 0.0
C421 C 0.57214 0.03239 0.52489 0.0
O422 O 0.51284 0.04546 0.54545 0.0
H423 H 0.48916 0.03811 0.4747 0.0
H424 H 0.55895 0.98363 0.56973 0.0
H425 H 0.52714 0.08683 0.52143 0.0
O426 O 0.56558 0.01124 0.5321 0.0
O427 O 0.5564 0.04602 0.51665 0.0
H428 H 0.52494 0.94135 0.51624 0.0
O429 O 0.52775 0.01571 0.48271 0.0
O430 O 0.53979 0.98133 0.4966 0.0
O431 O 0.48431 0.0149 0.51186 0.0
O432 O 0.49546 0.979 0.52361 0.0
C433 C 0.53667 0.99491 0.47995 0.0
H434 H 0.57292 0.94569 0.58688 0.0
H435 H 0.53848 0.90275 0.53198 0.0
H436 H 0.47687 0.07292 0.45257 0.0
H437 H 0.51481 0.1231 0.50063 0.0
C438 C 0.28758 0.21669 0.76232 0.0
N439 N 0.25744 0.25384 0.81456 0.0
C440 C 0.24923 0.23008 0.81814 0.0
C441 C 0.25366 0.21959 0.83875 0.0
C442 C 0.26624 0.23401 0.85557 0.0
C443 C 0.2705 0.25955 0.85241 0.0
C444 C 0.26599 0.26914 0.83161 0.0
Zn445 Zn 0.27059 0.26261 0.7847 0.0
C446 C 0.32581 0.27005 0.79176 0.0
N447 N 0.30505 0.28001 0.72582 0.0
C448 C 0.29763 0.26719 0.70695 0.0
C449 C 0.31798 0.3021 0.72522 0.0
C450 C 0.32071 0.31395 0.70517 0.0
C451 C 0.3106 0.30254 0.68556 0.0
C452 C 0.30072 0.27798 0.68644 0.0
Zn453 Zn 0.29065 0.27053 0.75473 0.0
O454 O 0.27619 0.22459 0.77847 0.0
C455 C 0.23555 0.26341 0.74729 0.0
O456 O 0.29537 0.23205 0.74824 0.0
H457 H 0.32411 0.31172 0.74047 0.0
H458 H 0.24218 0.21831 0.8044 0.0
H459 H 0.28752 0.24955 0.70787 0.0
O460 O 0.23559 0.25906 0.76796 0.0
O461 O 0.25554 0.26787 0.73836 0.0
H462 H 0.27284 0.28781 0.82851 0.0
O463 O 0.28608 0.30879 0.76148 0.0
O464 O 0.26539 0.30107 0.79066 0.0
O465 O 0.32525 0.27365 0.77106 0.0
O466 O 0.30616 0.26566 0.80122 0.0
C467 C 0.27446 0.31666 0.77747 0.0
H468 H 0.2495 0.19993 0.84077 0.0
H469 H 0.28021 0.27144 0.86481 0.0
H470 H 0.3286 0.33276 0.70552 0.0
H471 H 0.29365 0.26795 0.67166 0.0
C472 C 0.07308 0.00095 0.53086 0.0
N473 N 0.04148 0.03431 0.47709 0.0
C474 C 0.06357 0.04558 0.47445 0.0
C475 C 0.0737 0.04514 0.45366 0.0
C476 C 0.06093 0.03281 0.43577 0.0
C477 C 0.03738 0.02352 0.43853 0.0
C478 C 0.0279 0.02459 0.45941 0.0
Zn479 Zn 0.03139 0.02215 0.5073 0.0
C480 C 0.01877 0.96525 0.50232 0.0
N481 N 0.01101 0.99006 0.56771 0.0
C482 C 0.02568 0.99682 0.58565 0.0
C483 C 0.9882 0.98064 0.5701 0.0
C484 C 0.97846 0.98056 0.59098 0.0
C485 C 0.99249 0.98998 0.60943 0.0
C486 C 0.01675 0.99675 0.60685 0.0
Zn487 Zn 0.02084 0.00267 0.53762 0.0
O488 O 0.06677 0.0144 0.51494 0.0
C489 C 0.0334 0.05865 0.54441 0.0
O490 O 0.05753 0.9932 0.5443 0.0
H491 H 0.97688 0.97532 0.55562 0.0
H492 H 0.07418 0.0529 0.48876 0.0
H493 H 0.04363 0.00462 0.58339 0.0
O494 O 0.03665 0.05934 0.5236 0.0
O495 O 0.02788 0.03782 0.5528 0.0
H496 H 0.01054 0.0154 0.46184 0.0
O497 O 0.98427 0.01251 0.52988 0.0
O498 O 0.99607 0.02959 0.49931 0.0
O499 O 0.01378 0.96739 0.52256 0.0
O500 O 0.02603 0.98464 0.49222 0.0
C501 C 0.97937 0.02387 0.51211 0.0
H502 H 0.09197 0.05247 0.45203 0.0
H503 H 0.02699 0.01406 0.42499 0.0
H504 H 0.95968 0.97499 0.59244 0.0
H505 H 0.02806 0.00433 0.62066 0.0
C506 C 0.25348 0.79095 0.73511 0.0
N507 N 0.30576 0.74458 0.7581 0.0
C508 C 0.30346 0.73213 0.73823 0.0
C509 C 0.32347 0.72237 0.7291 0.0
C510 C 0.34571 0.72582 0.74063 0.0
C511 C 0.34722 0.73754 0.76157 0.0
C512 C 0.32694 0.74689 0.77001 0.0
Zn513 Zn 0.27929 0.76366 0.77004 0.0
C514 C 0.29774 0.81683 0.77909 0.0
N515 N 0.22714 0.807 0.7965 0.0
C516 C 0.2053 0.80552 0.7857 0.0
C517 C 0.2309 0.81916 0.8164 0.0
C518 C 0.21163 0.82796 0.82738 0.0
C519 C 0.18851 0.82457 0.81745 0.0
C520 C 0.18575 0.81477 0.79571 0.0
Zn521 Zn 0.25322 0.78738 0.78404 0.0
O522 O 0.27034 0.7763 0.73726 0.0
C523 C 0.23548 0.73355 0.7753 0.0
O524 O 0.24213 0.7966 0.75199 0.0
H525 H 0.24856 0.82056 0.82448 0.0
H526 H 0.28636 0.73063 0.72911 0.0
H527 H 0.20266 0.79581 0.76989 0.0
O528 O 0.25538 0.73246 0.76616 0.0
O529 O 0.22986 0.75422 0.78348 0.0
H530 H 0.32836 0.75698 0.78568 0.0
O531 O 0.26471 0.77853 0.81629 0.0
O532 O 0.28791 0.7512 0.80309 0.0
O533 O 0.27647 0.81973 0.78461 0.0
O534 O 0.30371 0.79522 0.77396 0.0
C535 C 0.27887 0.76143 0.81962 0.0
H536 H 0.32185 0.71331 0.7129 0.0
H537 H 0.36412 0.74013 0.77101 0.0
H538 H 0.21461 0.83543 0.8441 0.0
H539 H 0.1683 0.81249 0.78719 0.0
C540 C 0.5289 0.96449 0.03698 0.0
N541 N 0.5448 0.03421 0.06723 0.0
C542 C 0.52831 0.02798 0.08244 0.0
C543 C 0.53384 0.03172 0.10506 0.0
C544 C 0.55674 0.04136 0.11213 0.0
C545 C 0.57311 0.04866 0.09622 0.0
C546 C 0.56662 0.04521 0.07368 0.0
Zn547 Zn 0.5382 0.02111 0.03509 0.0
C548 C 0.5828 0.00705 0.01358 0.0
N549 N 0.52511 0.989 0.97011 0.0
C550 C 0.50421 0.97618 0.96352 0.0
C551 C 0.54097 0.99724 0.95504 0.0
C552 C 0.53582 0.99349 0.93245 0.0
C553 C 0.51385 0.98168 0.92516 0.0
C554 C 0.49806 0.97253 0.94093 0.0
Zn555 Zn 0.53146 0.00194 0.0021 0.0
O556 O 0.53334 0.9847 0.04797 0.0
C557 C 0.48654 0.01651 0.02088 0.0
O558 O 0.52724 0.96503 0.01586 0.0
H559 H 0.5571 0.00809 0.96038 0.0
H560 H 0.51131 0.01872 0.07718 0.0
H561 H 0.49173 0.96991 0.9757 0.0
O562 O 0.5002 0.02523 0.03697 0.0
O563 O 0.49555 0.00609 0.00458 0.0
H564 H 0.57952 0.05014 0.06146 0.0
O565 O 0.53612 0.03918 0.98931 0.0
O566 O 0.5429 0.05729 0.02207 0.0
O567 O 0.56726 0.99806 -0.00062 0.0
O568 O 0.57605 0.01696 0.03137 0.0
C569 C 0.54086 0.05881 0.0011 0.0
H570 H 0.5209 0.02563 0.11696 0.0
H571 H 0.59096 0.05617 0.10118 0.0
H572 H 0.54827 0.00117 0.92077 0.0
H573 H 0.48092 0.96331 0.93583 0.0
C574 C 0.30694 0.19917 0.26609 0.0
N575 N 0.34423 0.24998 0.22718 0.0
C576 C 0.36393 0.23667 0.2301 0.0
C577 C 0.37873 0.233 0.21257 0.0
C578 C 0.37291 0.24281 0.19182 0.0
C579 C 0.35378 0.25842 0.18988 0.0
C580 C 0.33955 0.26176 0.20793 0.0
Zn581 Zn 0.3204 0.24969 0.25132 0.0
C582 C 0.27117 0.24797 0.23558 0.0
N583 N 0.27359 0.25021 0.30418 0.0
C584 C 0.27406 0.23196 0.31937 0.0
C585 C 0.25753 0.26806 0.30508 0.0
C586 C 0.24229 0.26905 0.32268 0.0
C587 C 0.2432 0.25111 0.33925 0.0
C588 C 0.2586 0.23175 0.3368 0.0
Zn589 Zn 0.29754 0.25073 0.27988 0.0
O590 O 0.32113 0.20997 0.25296 0.0
C591 C 0.34616 0.25684 0.2961 0.0
O592 O 0.2951 0.21223 0.27875 0.0
H593 H 0.2571 0.2821 0.29257 0.0
H594 H 0.36734 0.22762 0.24564 0.0
H595 H 0.28689 0.21787 0.31842 0.0
O596 O 0.34887 0.25598 0.27532 0.0
O597 O 0.32565 0.25164 0.30348 0.0
H598 H 0.32389 0.27246 0.20612 0.0
O599 O 0.30035 0.28966 0.28065 0.0
O600 O 0.31896 0.2886 0.24938 0.0
O601 O 0.26944 0.25086 0.25633 0.0
O602 O 0.29151 0.24512 0.22776 0.0
C603 C 0.30999 0.30088 0.26476 0.0
H604 H 0.39339 0.22094 0.21468 0.0
H605 H 0.3485 0.26608 0.17409 0.0
H606 H 0.231 0.28454 0.32385 0.0
H607 H 0.25956 0.21715 0.34879 0.0
C608 C 0.58254 0.50232 0.03981 0.0
N609 N 0.54441 0.52935 0.98492 0.0
C610 C 0.56534 0.54231 0.98087 0.0
C611 C 0.5742 0.54217 0.95953 0.0
C612 C 0.56145 0.52833 0.94246 0.0
C613 C 0.53889 0.51716 0.94669 0.0
C614 C 0.5306 0.51802 0.96812 0.0
Zn615 Zn 0.53757 0.51752 0.01622 0.0
C616 C 0.52953 0.45985 0.0133 0.0
N617 N 0.52477 0.48606 0.07907 0.0
C618 C 0.54108 0.49423 0.09539 0.0
C619 C 0.50386 0.47359 0.08397 0.0
C620 C 0.49811 0.47034 0.10608 0.0
C621 C 0.51426 0.47962 0.12312 0.0
C622 C 0.53628 0.49092 0.11758 0.0
Zn623 Zn 0.53069 0.49822 0.04775 0.0
O624 O 0.57548 0.51289 0.02229 0.0
C625 C 0.53848 0.55507 0.05214 0.0
O626 O 0.56732 0.49431 0.05326 0.0
H627 H 0.49107 0.46736 0.07081 0.0
H628 H 0.5762 0.55091 0.9945 0.0
H629 H 0.55727 0.50478 0.09137 0.0
O630 O 0.54138 0.55522 0.03126 0.0
O631 O 0.53446 0.53434 0.06127 0.0
H632 H 0.51417 0.50758 0.97168 0.0
O633 O 0.49401 0.5028 0.04207 0.0
O634 O 0.49962 0.52228 0.01101 0.0
O635 O 0.5269 0.46191 0.03405 0.0
O636 O 0.53358 0.47951 0.00233 0.0
C637 C 0.4855 0.51423 0.02562 0.0
H638 H 0.59171 0.55098 0.95687 0.0
H639 H 0.52847 0.5065 0.93387 0.0
H640 H 0.48088 0.46155 0.10983 0.0
H641 H 0.54897 0.49873 0.13027 0.0
C642 C 0.76465 0.27344 0.22854 0.0
N643 N 0.8189 0.23337 0.25405 0.0
C644 C 0.81625 0.22002 0.23465 0.0
C645 C 0.83633 0.2126 0.22409 0.0
C646 C 0.85902 0.2184 0.23407 0.0
C647 C 0.86115 0.23034 0.25492 0.0
C648 C 0.84068 0.23797 0.26461 0.0
Zn649 Zn 0.79069 0.25038 0.26536 0.0
C650 C 0.80358 0.30515 0.27571 0.0
N651 N 0.73126 0.28828 0.28838 0.0
C652 C 0.71427 0.29357 0.2726 0.0
C653 C 0.72677 0.29048 0.31033 0.0
C654 C 0.70396 0.29577 0.31691 0.0
C655 C 0.68582 0.29932 0.30071 0.0
C656 C 0.69166 0.29961 0.27844 0.0
Zn657 Zn 0.76146 0.27172 0.27816 0.0
O658 O 0.78036 0.258 0.2322 0.0
C659 C 0.74827 0.21711 0.26935 0.0
O660 O 0.75424 0.28247 0.24475 0.0
H661 H 0.74029 0.28681 0.3229 0.0
H662 H 0.79868 0.21638 0.2267 0.0
H663 H 0.71724 0.29185 0.25521 0.0
O664 O 0.76985 0.21631 0.26384 0.0
O665 O 0.74021 0.23799 0.27406 0.0
H666 H 0.84233 0.24881 0.2799 0.0
O667 O 0.77061 0.26054 0.31108 0.0
O668 O 0.80116 0.24217 0.29834 0.0
O669 O 0.78253 0.30483 0.2827 0.0
O670 O 0.81148 0.28545 0.26758 0.0
C671 C 0.78875 0.24784 0.31456 0.0
H672 H 0.83427 0.20348 0.20792 0.0
H673 H 0.87856 0.23535 0.26283 0.0
H674 H 0.70027 0.29556 0.33436 0.0
H675 H 0.67845 0.3031 0.26542 0.0
C676 C 0.02285 0.47259 0.55017 0.0
N677 N 0.03625 0.54516 0.57692 0.0
C678 C 0.02325 0.53518 0.59347 0.0
C679 C 0.0329 0.53575 0.61526 0.0
C680 C 0.05605 0.54658 0.61976 0.0
C681 C 0.06752 0.55969 0.60298 0.0
C682 C 0.05714 0.55888 0.58153 0.0
Zn683 Zn 0.03194 0.52953 0.54561 0.0
C684 C 0.07901 0.51038 0.53281 0.0
N685 N 0.02775 0.4922 0.48292 0.0
C686 C 0.00657 0.48065 0.47538 0.0
C687 C 0.04372 0.50205 0.46862 0.0
C688 C 0.03712 0.50402 0.44629 0.0
C689 C 0.01412 0.49531 0.43867 0.0
C690 C 0.99932 0.48199 0.45302 0.0
Zn691 Zn 0.031 0.50686 0.5144 0.0
O692 O 0.02397 0.49366 0.56021 0.0
C693 C 0.98354 0.52435 0.52649 0.0
O694 O 0.02555 0.47173 0.52935 0.0
H695 H 0.06033 0.5114 0.47488 0.0
H696 H 0.00679 0.52417 0.58944 0.0
H697 H 0.9941 0.47301 0.48701 0.0
O698 O 0.99472 0.53551 0.54298 0.0
O699 O 0.99478 0.51132 0.51333 0.0
H700 H 0.06733 0.56644 0.56814 0.0
O701 O 0.03618 0.54174 0.4999 0.0
O702 O 0.03952 0.56531 0.52979 0.0
O703 O 0.06699 0.50253 0.51564 0.0
O704 O 0.06901 0.52203 0.54792 0.0
C705 C 0.03914 0.56326 0.50871 0.0
H706 H 0.02364 0.52533 0.6278 0.0
H707 H 0.08542 0.56823 0.60591 0.0
H708 H 0.049 0.5142 0.43552 0.0
H709 H 0.98144 0.47501 0.44756 0.0
C710 C 0.7941 0.71156 0.24832 0.0
N711 N 0.77448 0.74641 0.30782 0.0
C712 C 0.78927 0.72912 0.31544 0.0
C713 C 0.79182 0.72474 0.33787 0.0
C714 C 0.77928 0.73841 0.35296 0.0
C715 C 0.76336 0.75557 0.34482 0.0
C716 C 0.76113 0.75924 0.3219 0.0
Zn717 Zn 0.78044 0.75637 0.27607 0.0
C718 C 0.83551 0.76824 0.27355 0.0
N719 N 0.80034 0.77544 0.21187 0.0
C720 C 0.78889 0.76177 0.19502 0.0
C721 C 0.80836 0.79937 0.20906 0.0
C722 C 0.80044 0.81194 0.19052 0.0
C723 C 0.78504 0.79926 0.17449 0.0
C724 C 0.78138 0.77337 0.17581 0.0
Zn725 Zn 0.79365 0.76498 0.24305 0.0
O726 O 0.7858 0.71766 0.2668 0.0
C727 C 0.73884 0.75599 0.24444 0.0
O728 O 0.79918 0.72827 0.23458 0.0
H729 H 0.81792 0.80971 0.22254 0.0
H730 H 0.80073 0.71997 0.30442 0.0
H731 H 0.78274 0.7427 0.19753 0.0
O732 O 0.74225 0.75183 0.26505 0.0
O733 O 0.75701 0.76012 0.23287 0.0
H734 H 0.74985 0.7733 0.31557 0.0
O735 O 0.78752 0.80187 0.2513 0.0
O736 O 0.77455 0.7948 0.28427 0.0
O737 O 0.83 0.77093 0.25316 0.0
O738 O 0.81887 0.76215 0.28654 0.0
C739 C 0.77893 0.80995 0.26889 0.0
H740 H 0.80482 0.71186 0.34338 0.0
H741 H 0.75341 0.76648 0.35602 0.0
H742 H 0.80416 0.83182 0.19027 0.0
H743 H 0.77066 0.76258 0.1633 0.0
C744 C 0.83024 0.26698 0.76396 0.0
N745 N 0.76623 0.24892 0.72701 0.0
C746 C 0.77521 0.26241 0.71012 0.0
C747 C 0.77075 0.25431 0.68818 0.0
C748 C 0.757 0.23204 0.68353 0.0
C749 C 0.74731 0.21891 0.70127 0.0
C750 C 0.75215 0.22775 0.72299 0.0
Zn751 Zn 0.77633 0.25945 0.7588 0.0
C752 C 0.78782 0.21506 0.78669 0.0
N753 N 0.79816 0.27951 0.82511 0.0
C754 C 0.81272 0.30052 0.82818 0.0
C755 C 0.78677 0.26878 0.84226 0.0
C756 C 0.7882 0.28038 0.86313 0.0
C757 C 0.80132 0.30327 0.8662 0.0
C758 C 0.81447 0.31286 0.84872 0.0
Zn759 Zn 0.78817 0.26818 0.79365 0.0
O760 O 0.81325 0.26336 0.74936 0.0
C761 C 0.77664 0.31303 0.7675 0.0
O762 O 0.82505 0.26979 0.78417 0.0
H763 H 0.77517 0.25217 0.83938 0.0
H764 H 0.78641 0.27916 0.71371 0.0
H765 H 0.82161 0.30869 0.81429 0.0
O766 O 0.77124 0.29759 0.75165 0.0
O767 O 0.78484 0.3052 0.78575 0.0
H768 H 0.74526 0.2173 0.73668 0.0
O769 O 0.75127 0.26586 0.80269 0.0
O770 O 0.73946 0.25598 0.76843 0.0
O771 O 0.79114 0.2317 0.80175 0.0
O772 O 0.7817 0.22117 0.76705 0.0
C773 C 0.7343 0.26036 0.78843 0.0
H774 H 0.77827 0.26521 0.67501 0.0
H775 H 0.73686 0.2015 0.69851 0.0
H776 H 0.77773 0.27248 0.87623 0.0
H777 H 0.82502 0.33033 0.85061 0.0
C778 C 0.75811 0.73016 0.74373 0.0
N779 N 0.80744 0.77382 0.70914 0.0
C780 C 0.81753 0.75178 0.7063 0.0
C781 C 0.81993 0.74228 0.68506 0.0
C782 C 0.81135 0.75549 0.66699 0.0
C783 C 0.80433 0.77965 0.67017 0.0
C784 C 0.80299 0.78882 0.69176 0.0
Zn785 Zn 0.78877 0.77782 0.73669 0.0
C786 C 0.74215 0.79743 0.72684 0.0
N787 N 0.74783 0.78277 0.79412 0.0
C788 C 0.75162 0.76989 0.813 0.0
C789 C 0.73482 0.80328 0.79418 0.0
C790 C 0.72697 0.81281 0.81384 0.0
C791 C 0.73345 0.8019 0.83385 0.0
C792 C 0.74464 0.77932 0.83332 0.0
Zn793 Zn 0.76711 0.77736 0.76659 0.0
O794 O 0.7728 0.74111 0.73111 0.0
C795 C 0.81397 0.75802 0.77634 0.0
O796 O 0.75141 0.74162 0.76073 0.0
H797 H 0.73232 0.81393 0.77945 0.0
H798 H 0.82066 0.74001 0.72028 0.0
H799 H 0.76185 0.75355 0.81269 0.0
O800 O 0.81626 0.7634 0.75615 0.0
O801 O 0.79468 0.76218 0.78564 0.0
H802 H 0.79536 0.80648 0.69449 0.0
O803 O 0.78319 0.81308 0.77246 0.0
O804 O 0.80465 0.81367 0.74287 0.0
O805 O 0.74027 0.79212 0.747 0.0
O806 O 0.76085 0.79243 0.71711 0.0
C807 C 0.79822 0.82423 0.76041 0.0
H808 H 0.82527 0.72345 0.68294 0.0
H809 H 0.79759 0.79014 0.65638 0.0
H810 H 0.71794 0.83001 0.81357 0.0
H811 H 0.74987 0.7703 0.84849 0.0
C812 C 0.49429 0.51584 0.49663 0.0
N813 N 0.46986 0.50712 0.55984 0.0
C814 C 0.45045 0.51913 0.55264 0.0
C815 C 0.42755 0.5098 0.55707 0.0
C816 C 0.42464 0.4875 0.56841 0.0
C817 C 0.4449 0.47671 0.57748 0.0
C818 C 0.46762 0.48711 0.57316 0.0
Zn819 Zn 0.50131 0.51632 0.54579 0.0
C820 C 0.52854 0.47229 0.53619 0.0
N821 N 0.56564 0.53484 0.51461 0.0
C822 C 0.56593 0.55348 0.4998 0.0
C823 C 0.58564 0.52279 0.51995 0.0
C824 C 0.6073 0.53005 0.51082 0.0
C825 C 0.60845 0.55031 0.49654 0.0
C826 C 0.58728 0.5617 0.49066 0.0
Zn827 Zn 0.53484 0.52576 0.52936 0.0
O828 O 0.48397 0.51073 0.51441 0.0
C829 C 0.50912 0.57006 0.54013 0.0
O830 O 0.51623 0.5235 0.49767 0.0
H831 H 0.58493 0.50793 0.53169 0.0
H832 H 0.45248 0.5347 0.54177 0.0
H833 H 0.54971 0.56256 0.4956 0.0
O834 O 0.49351 0.55379 0.54595 0.0
O835 O 0.52848 0.56329 0.53254 0.0
H836 H 0.48333 0.47802 0.57892 0.0
O837 O 0.55299 0.5279 0.5616 0.0
O838 O 0.51823 0.52206 0.57688 0.0
O839 O 0.54156 0.48847 0.52668 0.0
O840 O 0.51015 0.47874 0.54586 0.0
C841 C 0.54074 0.52637 0.57886 0.0
H842 H 0.41234 0.51841 0.54948 0.0
H843 H 0.44321 0.4594 0.58623 0.0
H844 H 0.6231 0.52042 0.51548 0.0
H845 H 0.58731 0.57759 0.48 0.0
C846 C 0.02994 0.51402 0.07612 0.0
N847 N 0.05153 0.45557 0.0367 0.0
C848 C 0.06659 0.45113 0.05424 0.0
C849 C 0.07196 0.42695 0.05902 0.0
C850 C 0.06179 0.4073 0.04553 0.0
C851 C 0.04746 0.4125 0.02679 0.0
C852 C 0.04242 0.43699 0.02271 0.0
Zn853 Zn 0.04114 0.49028 0.0326 0.0
C854 C 0.98869 0.49223 0.02735 0.0
N855 N 0.01993 0.56331 0.02509 0.0
C856 C 0.02781 0.58293 0.03847 0.0
C857 C 0.00318 0.56563 0.00842 0.0
C858 C 0.99374 0.58836 0.00451 0.0
C859 C 0.00152 0.60901 0.01792 0.0
C860 C 0.0188 0.60619 0.03511 0.0
Zn861 Zn 0.03125 0.52892 0.0295 0.0
O862 O 0.03649 0.49401 0.0675 0.0
C863 C 0.08362 0.52693 0.03485 0.0
O864 O 0.02729 0.53268 0.06399 0.0
H865 H 0.99711 0.54978 0.998 0.0
H866 H 0.07374 0.46628 0.065 0.0
H867 H 0.04105 0.58052 0.05171 0.0
O868 O 0.0772 0.5041 0.03646 0.0
O869 O 0.06778 0.54265 0.03211 0.0
H870 H 0.03047 0.44106 0.00888 0.0
O871 O 0.03461 0.52504 0.9951 0.0
O872 O 0.04575 0.48698 0.99746 0.0
O873 O 0.99531 0.51506 0.02671 0.0
O874 O 0.00449 0.47637 0.02906 0.0
C875 C 0.04144 0.50565 0.98575 0.0
H876 H 0.0832 0.42353 0.07356 0.0
H877 H 0.03911 0.39772 0.0162 0.0
H878 H 0.98092 0.58984 0.99072 0.0
H879 H 0.02525 0.62176 0.04577 0.0
H880 H 0.01681 0.14236 0.1379 0.0
H881 H 0.09363 0.15037 0.1513 0.0
H882 H 0.09974 0.12365 0.11871 0.0
H883 H 0.01606 0.0757 0.11846 0.0
H884 H 0.99206 0.08011 0.09833 0.0
H885 H 0.99421 0.098 0.12388 0.0
H886 H 0.99374 0.13808 0.10083 0.0
H887 H 0.99299 0.12029 0.07525 0.0
H888 H 0.01651 0.14411 0.08108 0.0
H889 H 0.09767 0.104 0.08105 0.0
H890 H 0.08786 0.07664 0.04849 0.0
H891 H 0.01234 0.0766 0.06205 0.0
C892 C 0.03479 0.13743 0.13453 0.0
C893 C 0.05477 0.14812 0.14698 0.0
C894 C 0.07814 0.14186 0.14207 0.0
C895 C 0.08179 0.12717 0.12337 0.0
C896 C 0.06181 0.11849 0.11037 0.0
C897 C 0.03872 0.12218 0.11632 0.0
C898 C 0.0204 0.11001 0.09976 0.0
C899 C 0.00478 0.08974 0.11076 0.0
C900 C 0.00501 0.12928 0.08858 0.0
C901 C 0.03689 0.09911 0.08354 0.0
C902 C 0.06065 0.10513 0.08953 0.0
C903 C 0.07918 0.09851 0.07648 0.0
C904 C 0.07336 0.08334 0.0578 0.0
C905 C 0.04939 0.07412 0.05323 0.0
C906 C 0.03082 0.08318 0.06547 0.0
H907 H 0.10522 0.7848 0.32915 0.0
H908 H 0.11274 0.72819 0.37871 0.0
H909 H 0.14993 0.71638 0.36245 0.0
H910 H 0.12967 0.75026 0.28313 0.0
H911 H 0.14571 0.77705 0.27235 0.0
H912 H 0.11864 0.78068 0.28688 0.0
H913 H 0.14142 0.81227 0.3142 0.0
H914 H 0.16848 0.80884 0.29966 0.0
H915 H 0.16814 0.80351 0.32902 0.0
H916 H 0.18724 0.71155 0.34267 0.0
H917 H 0.22359 0.71517 0.32097 0.0
H918 H 0.19374 0.77431 0.28323 0.0
C919 C 0.1146 0.76978 0.33643 0.0
C920 C 0.10578 0.75744 0.35532 0.0
C921 C 0.11892 0.73809 0.3644 0.0
C922 C 0.14012 0.7311 0.35518 0.0
C923 C 0.14835 0.7436 0.33678 0.0
C924 C 0.13617 0.76263 0.32749 0.0
C925 C 0.14993 0.77367 0.30834 0.0
C926 C 0.1351 0.7702 0.28637 0.0
C927 C 0.15743 0.8012 0.31309 0.0
C928 C 0.17168 0.75792 0.3085 0.0
C929 C 0.17019 0.74064 0.32506 0.0
C930 C 0.18846 0.72477 0.32946 0.0
C931 C 0.20901 0.72688 0.31699 0.0
C932 C 0.21124 0.7445 0.30005 0.0
C933 C 0.19216 0.76008 0.29557 0.0
H934 H 0.54875 0.81715 0.6505 0.0
H935 H 0.57667 0.76762 0.60175 0.0
H936 H 0.584 0.80282 0.57711 0.0
H937 H 0.51735 0.85255 0.61254 0.0
H938 H 0.52349 0.88164 0.62744 0.0
H939 H 0.52275 0.85301 0.6422 0.0
H940 H 0.56567 0.86434 0.65868 0.0
H941 H 0.56657 0.89299 0.64381 0.0
H942 H 0.58957 0.87146 0.64032 0.0
H943 H 0.58501 0.8421 0.5565 0.0
H944 H 0.57838 0.88319 0.54078 0.0
H945 H 0.55025 0.9072 0.6029 0.0
C946 C 0.55665 0.81378 0.63475 0.0
C947 C 0.56212 0.78972 0.62802 0.0
C948 C 0.57227 0.78595 0.60722 0.0
C949 C 0.57667 0.80582 0.59316 0.0
C950 C 0.57096 0.8293 0.60023 0.0
C951 C 0.56116 0.83341 0.62051 0.0
C952 C 0.55505 0.86012 0.62342 0.0
C953 C 0.52806 0.86192 0.62657 0.0
C954 C 0.57012 0.87298 0.6427 0.0
C955 C 0.5623 0.87018 0.60135 0.0
C956 C 0.57171 0.85217 0.58833 0.0
C957 C 0.57802 0.8565 0.56662 0.0
C958 C 0.57412 0.87976 0.55782 0.0
C959 C 0.56402 0.89821 0.57076 0.0
C960 C 0.55853 0.89353 0.5929 0.0
H961 H 0.4608 0.30745 0.83659 0.0
H962 H 0.46379 0.2322 0.86007 0.0
H963 H 0.42181 0.22305 0.84656 0.0
H964 H 0.39902 0.31456 0.85147 0.0
H965 H 0.39209 0.3331 0.82782 0.0
H966 H 0.42229 0.33388 0.83955 0.0
H967 H 0.43772 0.32169 0.80129 0.0
H968 H 0.40762 0.32095 0.78943 0.0
H969 H 0.42495 0.29404 0.78698 0.0
H970 H 0.37892 0.22232 0.83123 0.0
H971 H 0.33948 0.22925 0.81301 0.0
H972 H 0.36447 0.30429 0.79785 0.0
C973 C 0.45268 0.289 0.8388 0.0
C974 C 0.46574 0.27051 0.84939 0.0
C975 C 0.45425 0.2467 0.8521 0.0
C976 C 0.43035 0.24133 0.84448 0.0
C977 C 0.41796 0.26 0.83429 0.0
C978 C 0.42874 0.28336 0.8314 0.0
C979 C 0.41135 0.30014 0.82001 0.0
C980 C 0.40587 0.3217 0.83564 0.0
C981 C 0.42099 0.30976 0.79812 0.0
C982 C 0.38946 0.28228 0.81605 0.0
C983 C 0.39348 0.25939 0.82494 0.0
C984 C 0.37566 0.24013 0.82416 0.0
C985 C 0.35328 0.24425 0.81386 0.0
C986 C 0.349 0.26724 0.80403 0.0
C987 C 0.36736 0.28649 0.80514 0.0
H988 H 0.04169 0.86233 0.40802 0.0
H989 H 0.02234 0.80699 0.4564 0.0
H990 H 0.01382 0.84017 0.48294 0.0
H991 H 0.0718 0.90609 0.44793 0.0
H992 H 0.06198 0.9332 0.43408 0.0
H993 H 0.06576 0.90513 0.41835 0.0
H994 H 0.02194 0.9055 0.40284 0.0
H995 H 0.01805 0.93349 0.41867 0.0
H996 H 0.998 0.90649 0.4218 0.0
H997 H 0.00699 0.87888 0.50434 0.0
H998 H 0.00536 0.92089 0.5205 0.0
H999 H 0.03068 0.95239 0.45949 0.0
C1000 C 0.03555 0.85723 0.42417 0.0
C1001 C 0.03259 0.83191 0.43003 0.0
C1002 C 0.02484 0.82613 0.45147 0.0
C1003 C 0.01983 0.84488 0.46667 0.0
C1004 C 0.02289 0.86954 0.46043 0.0
C1005 C 0.03085 0.87586 0.43981 0.0
C1006 C 0.03362 0.90398 0.43785 0.0
C1007 C 0.05985 0.9126 0.43435 0.0
C1008 C 0.0169 0.91288 0.41918 0.0
C1009 C 0.02585 0.91237 0.46051 0.0
C1010 C 0.01958 0.89211 0.47313 0.0
C1011 C 0.01191 0.89489 0.49463 0.0
C1012 C 0.011 0.91893 0.50366 0.0
C1013 C 0.01786 0.94013 0.49137 0.0
C1014 C 0.02518 0.93667 0.46935 0.0
H1015 H 0.48447 0.74415 0.72439 0.0
H1016 H 0.48422 0.6647 0.7126 0.0
H1017 H 0.43995 0.66153 0.71301 0.0
H1018 H 0.43772 0.74024 0.76337 0.0
H1019 H 0.42545 0.7688 0.75477 0.0
H1020 H 0.45683 0.76453 0.75213 0.0
H1021 H 0.45238 0.77408 0.71027 0.0
H1022 H 0.42085 0.77782 0.71272 0.0
H1023 H 0.43078 0.75585 0.69279 0.0
H1024 H 0.39587 0.66718 0.71475 0.0
H1025 H 0.35572 0.68021 0.72417 0.0
H1026 H 0.38554 0.75553 0.73594 0.0
C1027 C 0.47501 0.72611 0.72214 0.0
C1028 C 0.48743 0.70462 0.71871 0.0
C1029 C 0.47477 0.68124 0.71573 0.0
C1030 C 0.44972 0.67934 0.71557 0.0
C1031 C 0.43786 0.70097 0.71869 0.0
C1032 C 0.45011 0.72382 0.72243 0.0
C1033 C 0.43334 0.74386 0.72728 0.0
C1034 C 0.43865 0.75499 0.75078 0.0
C1035 C 0.43441 0.76409 0.70971 0.0
C1036 C 0.40974 0.72871 0.72564 0.0
C1037 C 0.41261 0.7041 0.7203 0.0
C1038 C 0.39334 0.68641 0.7189 0.0
C1039 C 0.37068 0.69392 0.72412 0.0
C1040 C 0.36787 0.71872 0.73084 0.0
C1041 C 0.38742 0.73642 0.73084 0.0
H1042 H 0.52129 0.18821 0.94088 0.0
H1043 H 0.59835 0.19534 0.93517 0.0
H1044 H 0.60209 0.15536 0.95374 0.0
H1045 H 0.52435 0.16184 0.99617 0.0
H1046 H 0.49775 0.14161 0.9914 0.0
H1047 H 0.50082 0.17055 0.97709 0.0
H1048 H 0.49384 0.14698 0.93938 0.0
H1049 H 0.4907 0.118 0.95358 0.0
H1050 H 0.51258 0.12212 0.9327 0.0
H1051 H 0.59769 0.11434 0.97238 0.0
H1052 H 0.58537 0.07552 0.99116 0.0
H1053 H 0.51141 0.09493 0.98658 0.0
C1054 C 0.5389 0.18122 0.94345 0.0
C1055 C 0.55955 0.19483 0.93643 0.0
C1056 C 0.58231 0.18529 0.94043 0.0
C1057 C 0.58461 0.16255 0.95094 0.0
C1058 C 0.56401 0.14964 0.95778 0.0
C1059 C 0.54159 0.15869 0.95443 0.0
C1060 C 0.52251 0.14147 0.9643 0.0
C1061 C 0.51066 0.15466 0.98337 0.0
C1062 C 0.50381 0.13155 0.94642 0.0
C1063 C 0.5376 0.12096 0.97297 0.0
C1064 C 0.56153 0.12619 0.96913 0.0
C1065 C 0.57902 0.11013 0.97557 0.0
C1066 C 0.57191 0.08817 0.98622 0.0
C1067 C 0.54755 0.08242 0.99032 0.0
C1068 C 0.53016 0.09901 0.98363 0.0
H1069 H 0.13201 0.25106 0.21459 0.0
H1070 H 0.14151 0.22706 0.14667 0.0
H1071 H 0.18527 0.23352 0.15269 0.0
H1072 H 0.18431 0.29795 0.21858 0.0
H1073 H 0.19108 0.29026 0.24699 0.0
H1074 H 0.16051 0.28784 0.23613 0.0
H1075 H 0.15657 0.24188 0.24801 0.0
H1076 H 0.18707 0.24412 0.2587 0.0
H1077 H 0.17747 0.22049 0.23819 0.0
H1078 H 0.22792 0.23664 0.16778 0.0
H1079 H 0.26579 0.23752 0.19071 0.0
H1080 H 0.22745 0.25976 0.2481 0.0
C1081 C 0.14325 0.24774 0.20082 0.0
C1082 C 0.13342 0.23851 0.18024 0.0
C1083 C 0.1487 0.2342 0.16263 0.0
C1084 C 0.17358 0.23789 0.16583 0.0
C1085 C 0.18275 0.24624 0.1866 0.0
C1086 C 0.16802 0.25143 0.2037 0.0
C1087 C 0.18224 0.25801 0.22498 0.0
C1088 C 0.17936 0.28513 0.23208 0.0
C1089 C 0.17543 0.24004 0.24354 0.0
C1090 C 0.20714 0.25446 0.21746 0.0
C1091 C 0.20725 0.24809 0.19523 0.0
C1092 C 0.22815 0.24208 0.18513 0.0
C1093 C 0.2495 0.24249 0.19825 0.0
C1094 C 0.24946 0.24858 0.22114 0.0
C1095 C 0.22807 0.25501 0.23063 0.0
H1096 H 0.12557 0.9761 0.18593 0.0
H1097 H 0.11828 0.05488 0.19699 0.0
H1098 H 0.10172 0.05805 0.15861 0.0
H1099 H 0.14411 0.97864 0.13204 0.0
H1100 H 0.1273 0.95098 0.12167 0.0
H1101 H 0.13642 0.95394 0.15061 0.0
H1102 H 0.09243 0.94652 0.16173 0.0
H1103 H 0.08323 0.94277 0.13284 0.0
H1104 H 0.06983 0.96537 0.14995 0.0
H1105 H 0.09192 0.05386 0.11798 0.0
H1106 H 0.08079 0.04097 0.07934 0.0
H1107 H 0.09089 0.96435 0.09491 0.0
C1108 C 0.11992 0.99389 0.18042 0.0
C1109 C 0.12326 0.01531 0.19433 0.0
C1110 C 0.1157 0.03826 0.18663 0.0
C1111 C 0.10648 0.04025 0.16482 0.0
C1112 C 0.10449 0.019 0.1512 0.0
C1113 C 0.11022 0.99609 0.15887 0.0
C1114 C 0.10641 0.97619 0.14074 0.0
C1115 C 0.12997 0.96424 0.13599 0.0
C1116 C 0.0868 0.95656 0.14667 0.0
C1117 C 0.09825 0.99163 0.12149 0.0
C1118 C 0.09764 0.01634 0.1279 0.0
C1119 C 0.09201 0.03453 0.11289 0.0
C1120 C 0.08604 0.02714 0.09094 0.0
C1121 C 0.08537 0.00188 0.08423 0.0
C1122 C 0.09161 0.98383 0.09964 0.0
H1123 H 0.26667 0.86289 0.4777 0.0
H1124 H 0.29802 0.8063 0.51773 0.0
H1125 H 0.30709 0.78323 0.48377 0.0
H1126 H 0.24092 0.82111 0.4325 0.0
H1127 H 0.24799 0.84322 0.4114 0.0
H1128 H 0.2418 0.85393 0.43888 0.0
H1129 H 0.28264 0.87937 0.44113 0.0
H1130 H 0.28916 0.86833 0.41386 0.0
H1131 H 0.30973 0.8638 0.43701 0.0
H1132 H 0.31496 0.76757 0.44584 0.0
H1133 H 0.31886 0.75885 0.40589 0.0
H1134 H 0.28362 0.8261 0.39017 0.0
C1135 C 0.27481 0.84528 0.47928 0.0
C1136 C 0.28141 0.8362 0.50033 0.0
C1137 C 0.29266 0.81347 0.50176 0.0
C1138 C 0.29797 0.80028 0.48257 0.0
C1139 C 0.29202 0.81015 0.46207 0.0
C1140 C 0.28049 0.832 0.46025 0.0
C1141 C 0.27712 0.83906 0.43617 0.0
C1142 C 0.25037 0.83934 0.42933 0.0
C1143 C 0.29046 0.86413 0.4318 0.0
C1144 C 0.28867 0.81785 0.42481 0.0
C1145 C 0.29708 0.80138 0.4401 0.0
C1146 C 0.30834 0.78025 0.43369 0.0
C1147 C 0.31052 0.77548 0.41101 0.0
C1148 C 0.30162 0.79183 0.39501 0.0
C1149 C 0.29089 0.81348 0.40207 0.0
H1150 H 0.4601 0.00552 0.67956 0.0
H1151 H 0.42083 0.07167 0.67121 0.0
H1152 H 0.44285 0.08143 0.63732 0.0
H1153 H 0.51701 0.02817 0.65879 0.0
H1154 H 0.52164 -0.00054 0.64431 0.0
H1155 H 0.50463 -0.00083 0.66897 0.0
H1156 H 0.46871 0.97591 0.64734 0.0
H1157 H 0.48571 0.9759 0.62274 0.0
H1158 H 0.4568 0.98889 0.6222 0.0
H1159 H 0.46855 0.08308 0.60389 0.0
H1160 H 0.49166 0.07405 0.57112 0.0
H1161 H 0.51215 0.00526 0.60051 0.0
C1162 C 0.45645 0.02227 0.67076 0.0
C1163 C 0.43916 0.03814 0.67805 0.0
C1164 C 0.43419 0.05945 0.66583 0.0
C1165 C 0.44669 0.06516 0.64671 0.0
C1166 C 0.4637 0.04909 0.63993 0.0
C1167 C 0.46826 0.02786 0.6514 0.0
C1168 C 0.48549 0.01228 0.63948 0.0
C1169 C 0.50856 0.00963 0.65374 0.0
C1170 C 0.47345 0.98675 0.63253 0.0
C1171 C 0.49011 0.02814 0.61955 0.0
C1172 C 0.47764 0.04945 0.62024 0.0
C1173 C 0.47844 0.06649 0.60321 0.0
C1174 C 0.49171 0.06123 0.58469 0.0
C1175 C 0.50377 0.03895 0.58322 0.0
C1176 C 0.50334 0.02255 0.60117 0.0
H1177 H 0.32888 0.2289 0.97483 0.0
H1178 H 0.35779 0.15991 0.95402 0.0
H1179 H 0.34375 0.16693 0.91556 0.0
H1180 H 0.2771 0.21802 0.94865 0.0
H1181 H 0.27156 0.24911 0.94033 0.0
H1182 H 0.29069 0.24438 0.9643 0.0
H1183 H 0.32581 0.27049 0.94802 0.0
H1184 H 0.30645 0.27666 0.92441 0.0
H1185 H 0.33483 0.26354 0.9204 0.0
H1186 H 0.31837 0.17617 0.8819 0.0
H1187 H 0.28983 0.19108 0.85371 0.0
H1188 H 0.27379 0.25114 0.89847 0.0
C1189 C 0.33358 0.21601 0.96201 0.0
C1190 C 0.34421 0.19377 0.96741 0.0
C1191 C 0.34968 0.17712 0.95021 0.0
C1192 C 0.34157 0.18085 0.92832 0.0
C1193 C 0.32836 0.20142 0.92406 0.0
C1194 C 0.32498 0.21912 0.94032 0.0
C1195 C 0.30713 0.23736 0.93257 0.0
C1196 C 0.28535 0.23718 0.94735 0.0
C1197 C 0.31929 0.26357 0.93126 0.0
C1198 C 0.30021 0.22657 0.90982 0.0
C1199 C 0.31285 0.20608 0.90505 0.0
C1200 C 0.30867 0.19245 0.88531 0.0
C1201 C 0.292 0.20076 0.8696 0.0
C1202 C 0.27948 0.22228 0.87391 0.0
C1203 C 0.28324 0.23481 0.89458 0.0
H1204 H 0.1279 0.05902 0.32399 0.0
H1205 H 0.12465 0.97936 0.31197 0.0
H1206 H 0.10542 0.97301 0.34775 0.0
H1207 H 0.14167 0.0565 0.38351 0.0
H1208 H 0.12416 0.08244 0.38984 0.0
H1209 H 0.13808 0.08057 0.36357 0.0
H1210 H 0.09682 0.08421 0.34311 0.0
H1211 H 0.08279 0.08602 0.3693 0.0
H1212 H 0.07225 0.06252 0.34899 0.0
H1213 H 0.08419 0.97567 0.38345 0.0
H1214 H 0.06476 0.98686 0.41792 0.0
H1215 H 0.08392 0.0647 0.40765 0.0
C1216 C 0.12318 0.04023 0.3289 0.0
C1217 C 0.12754 0.01965 0.31517 0.0
C1218 C 0.12141 0.99535 0.32227 0.0
C1219 C 0.11049 0.99159 0.34252 0.0
C1220 C 0.10626 0.01232 0.35558 0.0
C1221 C 0.11269 0.03615 0.34919 0.0
C1222 C 0.10629 0.05526 0.36629 0.0
C1223 C 0.1289 0.06953 0.3764 0.0
C1224 C 0.08848 0.07304 0.35632 0.0
C1225 C 0.09469 0.0385 0.38307 0.0
C1226 C 0.09482 0.0138 0.37655 0.0
C1227 C 0.08419 0.99491 0.38882 0.0
C1228 C 0.07311 0.00144 0.40826 0.0
C1229 C 0.07291 0.02661 0.41527 0.0
C1230 C 0.08404 0.04533 0.40265 0.0
H1231 H 0.27916 0.83672 0.61239 0.0
H1232 H 0.24931 0.90574 0.63227 0.0
H1233 H 0.23924 0.88774 0.66805 0.0
H1234 H 0.2363 0.79511 0.63935 0.0
H1235 H 0.25831 0.77388 0.64806 0.0
H1236 H 0.26229 0.79146 0.62326 0.0
H1237 H 0.30388 0.8091 0.63874 0.0
H1238 H 0.30014 0.7914 0.66345 0.0
H1239 H 0.30638 0.82454 0.66555 0.0
H1240 H 0.23148 0.86274 0.70088 0.0
H1241 H 0.23149 0.83411 0.73185 0.0
H1242 H 0.26888 0.78155 0.6928 0.0
C1243 C 0.2704 0.84797 0.62424 0.0
C1244 C 0.26485 0.8726 0.61944 0.0
C1245 C 0.25371 0.88685 0.63552 0.0
C1246 C 0.24777 0.87674 0.65585 0.0
C1247 C 0.25323 0.85241 0.65997 0.0
C1248 C 0.26461 0.83827 0.64485 0.0
C1249 C 0.26957 0.81305 0.65416 0.0
C1250 C 0.2558 0.79214 0.64039 0.0
C1251 C 0.2966 0.80932 0.65556 0.0
C1252 C 0.25958 0.8155 0.67702 0.0
C1253 C 0.24974 0.83818 0.67966 0.0
C1254 C 0.23914 0.84493 0.69907 0.0
C1255 C 0.23912 0.82837 0.71654 0.0
C1256 C 0.25013 0.80547 0.71478 0.0
C1257 C 0.26023 0.79883 0.69459 0.0
H1258 H 0.43703 0.01869 0.81775 0.0
H1259 H 0.4938 0.99186 0.77871 0.0
H1260 H 0.51577 0.9806 0.81293 0.0
H1261 H 0.47558 0.04387 0.86453 0.0
H1262 H 0.45439 0.0343 0.88481 0.0
H1263 H 0.44394 0.04178 0.85726 0.0
H1264 H 0.42125 0.99851 0.85335 0.0
H1265 H 0.43204 0.99072 0.88072 0.0
H1266 H 0.43752 0.97101 0.85729 0.0
H1267 H 0.53102 0.97095 0.85093 0.0
H1268 H 0.53984 0.96599 0.89102 0.0
H1269 H 0.47282 0.99773 0.90559 0.0
C1270 C 0.45432 0.01094 0.81647 0.0
C1271 C 0.4638 0.00627 0.7956 0.0
C1272 C 0.48625 0.99564 0.79454 0.0
C1273 C 0.49883 0.98911 0.81387 0.0
C1274 C 0.48867 0.99321 0.83414 0.0
C1275 C 0.46705 0.00407 0.83565 0.0
C1276 C 0.45992 0.00582 0.85953 0.0
C1277 C 0.45838 0.03306 0.86697 0.0
C1278 C 0.43628 0.9906 0.86291 0.0
C1279 C 0.48089 0.99422 0.87113 0.0
C1280 C 0.49725 0.98709 0.85614 0.0
C1281 C 0.51835 0.97644 0.86285 0.0
C1282 C 0.52318 0.97361 0.88558 0.0
C1283 C 0.50691 0.98126 0.90126 0.0
C1284 C 0.48531 0.99128 0.89388 0.0
H1285 H 0.3547 0.13571 0.10722 0.0
H1286 H 0.36038 0.1914 0.05659 0.0
H1287 H 0.3807 0.22092 0.08386 0.0
H1288 H 0.3363 0.17316 0.14591 0.0
H1289 H 0.35142 0.15988 0.16938 0.0
H1290 H 0.34415 0.14127 0.14489 0.0
H1291 H 0.38878 0.13168 0.14236 0.0
H1292 H 0.39624 0.15053 0.16695 0.0
H1293 H 0.41144 0.15684 0.14176 0.0
H1294 H 0.39014 0.24692 0.11747 0.0
H1295 H 0.38735 0.26678 0.15439 0.0
H1296 H 0.37671 0.19424 0.18311 0.0
C1297 C 0.36108 0.15379 0.1017 0.0
C1298 C 0.35599 0.16132 0.07993 0.0
C1299 C 0.36412 0.18528 0.0733 0.0
C1300 C 0.37588 0.20212 0.08862 0.0
C1301 C 0.37961 0.19456 0.11036 0.0
C1302 C 0.37265 0.17082 0.11683 0.0
C1303 C 0.3746 0.16855 0.1417 0.0
C1304 C 0.35018 0.16027 0.15099 0.0
C1305 C 0.39393 0.15085 0.14859 0.0
C1306 C 0.38223 0.19509 0.14831 0.0
C1307 C 0.38559 0.20974 0.13003 0.0
C1308 C 0.38848 0.23557 0.13196 0.0
C1309 C 0.38682 0.24672 0.15295 0.0
C1310 C 0.38228 0.23198 0.17159 0.0
C1311 C 0.38121 0.2059 0.16931 0.0
H1312 H 0.25454 0.09544 0.02915 0.0
H1313 H 0.25394 0.14586 0.97405 0.0
H1314 H 0.21919 0.12117 0.95647 0.0
H1315 H 0.2375 0.0387 0.99862 0.0
H1316 H 0.21864 0.02678 0.01992 0.0
H1317 H 0.24431 0.04751 0.02725 0.0
H1318 H 0.21729 0.07753 0.04715 0.0
H1319 H 0.19173 0.05659 0.04035 0.0
H1320 H 0.19157 0.08854 0.03226 0.0
H1321 H 0.18349 0.09162 0.94594 0.0
H1322 H 0.14711 0.06312 0.9457 0.0
H1323 H 0.1721 0.03331 0.00818 0.0
C1324 C 0.24716 0.10124 0.01333 0.0
C1325 C 0.25682 0.12239 0.00287 0.0
C1326 C 0.24658 0.12969 0.98235 0.0
C1327 C 0.22709 0.11566 0.97215 0.0
C1328 C 0.2182 0.09458 0.98279 0.0
C1329 C 0.22774 0.08768 0.00309 0.0
C1330 C 0.21387 0.06563 0.01213 0.0
C1331 C 0.22952 0.04334 0.01461 0.0
C1332 C 0.20296 0.07249 0.03426 0.0
C1333 C 0.19488 0.06117 0.99379 0.0
C1334 C 0.19774 0.07781 0.97686 0.0
C1335 C 0.18118 0.07834 0.95899 0.0
C1336 C 0.16063 0.06212 0.95897 0.0
C1337 C 0.15693 0.04585 0.9768 0.0
C1338 C 0.17473 0.04489 0.99394 0.0
H1339 H 0.71055 0.44605 0.03343 0.0
H1340 H 0.72442 0.47406 0.10096 0.0
H1341 H 0.68674 0.49516 0.09891 0.0
H1342 H 0.68224 0.50256 0.01294 0.0
H1343 H 0.66063 0.48489 0.99505 0.0
H1344 H 0.68976 0.4734 0.00089 0.0
H1345 H 0.6698 0.43237 0.01478 0.0
H1346 H 0.64068 0.44373 0.00897 0.0
H1347 H 0.64864 0.43349 0.0364 0.0
H1348 H 0.64607 0.50892 0.09168 0.0
H1349 H 0.6048 0.51645 0.07872 0.0
H1350 H 0.6171 0.48246 0.01495 0.0
C1351 C 0.70578 0.45692 0.04765 0.0
C1352 C 0.72048 0.45839 0.06737 0.0
C1353 C 0.71358 0.47272 0.08565 0.0
C1354 C 0.69219 0.48483 0.08465 0.0
C1355 C 0.678 0.48282 0.06514 0.0
C1356 C 0.68453 0.4695 0.04684 0.0
C1357 C 0.6654 0.46976 0.02821 0.0
C1358 C 0.67509 0.48347 0.00808 0.0
C1359 C 0.65555 0.44326 0.02172 0.0
C1360 C 0.64673 0.48438 0.03931 0.0
C1361 C 0.65455 0.49182 0.06057 0.0
C1362 C 0.63992 0.50373 0.0749 0.0
C1363 C 0.61655 0.5079 0.06743 0.0
C1364 C 0.60811 0.50048 0.04576 0.0
C1365 C 0.62348 0.48894 0.03136 0.0
H1366 H 0.84529 0.43803 0.23026 0.0
H1367 H 0.89165 0.44778 0.28976 0.0
H1368 H 0.87737 0.40671 0.30228 0.0
H1369 H 0.79607 0.40625 0.25664 0.0
H1370 H 0.78815 0.38446 0.23429 0.0
H1371 H 0.80148 0.41473 0.22848 0.0
H1372 H 0.83513 0.39595 0.20797 0.0
H1373 H 0.82361 0.36476 0.21301 0.0
H1374 H 0.8539 0.37442 0.22169 0.0
H1375 H 0.85947 0.36386 0.308 0.0
H1376 H 0.83696 0.32275 0.30704 0.0
H1377 H 0.80193 0.34052 0.2445 0.0
C1378 C 0.85223 0.43163 0.24601 0.0
C1379 C 0.86967 0.44619 0.25893 0.0
C1380 C 0.87839 0.437 0.27942 0.0
C1381 C 0.8704 0.41363 0.28675 0.0
C1382 C 0.85361 0.39955 0.27347 0.0
C1383 C 0.84445 0.4082 0.25363 0.0
C1384 C 0.82667 0.3891 0.24252 0.0
C1385 C 0.80162 0.39924 0.24033 0.0
C1386 C 0.83533 0.38059 0.21995 0.0
C1387 C 0.82738 0.36844 0.25915 0.0
C1388 C 0.84311 0.37482 0.27687 0.0
C1389 C 0.84704 0.35865 0.29424 0.0
C1390 C 0.83434 0.33539 0.29356 0.0
C1391 C 0.81801 0.32872 0.27567 0.0
C1392 C 0.8145 0.34536 0.25827 0.0
H1393 H 0.85352 0.56774 0.54578 0.0
H1394 H 0.83258 0.53806 0.48024 0.0
H1395 H 0.8718 0.51929 0.47813 0.0
H1396 H 0.9094 0.58726 0.53505 0.0
H1397 H 0.92385 0.57958 0.56105 0.0
H1398 H 0.89265 0.5857 0.55988 0.0
H1399 H 0.88137 0.54281 0.57636 0.0
H1400 H 0.91271 0.53685 0.57843 0.0
H1401 H 0.89171 0.51516 0.56369 0.0
H1402 H 0.91496 0.51093 0.48066 0.0
H1403 H 0.95809 0.50879 0.4889 0.0
H1404 H 0.9509 0.54444 0.55319 0.0
C1405 C 0.8569 0.55626 0.53146 0.0
C1406 C 0.84032 0.55377 0.51331 0.0
C1407 C 0.84513 0.53945 0.49444 0.0
C1408 C 0.86731 0.52895 0.4931 0.0
C1409 C 0.88392 0.53281 0.51094 0.0
C1410 C 0.87876 0.54563 0.53 0.0
C1411 C 0.90035 0.54936 0.54588 0.0
C1412 C 0.90694 0.57712 0.55072 0.0
C1413 C 0.89629 0.53519 0.56736 0.0
C1414 C 0.91887 0.53772 0.53235 0.0
C1415 C 0.90896 0.52806 0.51238 0.0
C1416 C 0.92279 0.51778 0.49648 0.0
C1417 C 0.9473 0.51677 0.50133 0.0
C1418 C 0.95775 0.52617 0.52188 0.0
C1419 C 0.94334 0.5369 0.5375 0.0
H1420 H 0.21544 0.08616 0.28155 0.0
H1421 H 0.24617 0.04901 0.2262 0.0
H1422 H 0.27944 0.08141 0.22689 0.0
H1423 H 0.22645 0.14596 0.26398 0.0
H1424 H 0.23316 0.15937 0.29127 0.0
H1425 H 0.21377 0.13168 0.28791 0.0
H1426 H 0.24135 0.10914 0.31555 0.0
H1427 H 0.26093 0.13683 0.31886 0.0
H1428 H 0.27276 0.10796 0.31049 0.0
H1429 H 0.30605 0.12141 0.23047 0.0
H1430 H 0.32318 0.16451 0.23693 0.0
H1431 H 0.27606 0.17302 0.2914 0.0
C1432 C 0.22936 0.08457 0.2698 0.0
C1433 C 0.2282 0.06514 0.2538 0.0
C1434 C 0.24676 0.06374 0.23867 0.0
C1435 C 0.26576 0.08201 0.23898 0.0
C1436 C 0.26614 0.10121 0.25479 0.0
C1437 C 0.24851 0.10238 0.27007 0.0
C1438 C 0.25187 0.12569 0.28434 0.0
C1439 C 0.23003 0.1416 0.2817 0.0
C1440 C 0.25704 0.11952 0.30876 0.0
C1441 C 0.27368 0.13791 0.27425 0.0
C1442 C 0.28185 0.12359 0.25731 0.0
C1443 C 0.30018 0.13253 0.24406 0.0
C1444 C 0.30986 0.157 0.24787 0.0
C1445 C 0.3011 0.17209 0.26476 0.0
C1446 C 0.28344 0.16192 0.27854 0.0
H1447 H 0.34928 0.96607 0.56386 0.0
H1448 H 0.33668 0.91176 0.51007 0.0
H1449 H 0.37516 0.9252 0.49467 0.0
H1450 H 0.3815 0.01472 0.53173 0.0
H1451 H 0.40271 0.02316 0.55432 0.0
H1452 H 0.37279 0.01148 0.55998 0.0
H1453 H 0.39031 0.97711 0.584 0.0
H1454 H 0.42021 0.98863 0.57829 0.0
H1455 H 0.4108 0.95664 0.57208 0.0
H1456 H 0.41624 0.94062 0.48714 0.0
H1457 H 0.45794 0.9589 0.48736 0.0
H1458 H 0.44479 0.0039 0.54521 0.0
C1459 C 0.35448 0.95749 0.54859 0.0
C1460 C 0.34006 0.93792 0.5381 0.0
C1461 C 0.34757 0.9267 0.5184 0.0
C1462 C 0.36934 0.93427 0.50946 0.0
C1463 C 0.38351 0.95308 0.52042 0.0
C1464 C 0.37647 0.96468 0.5395 0.0
C1465 C 0.39612 0.98311 0.54877 0.0
C1466 C 0.38777 0.0097 0.54868 0.0
C1467 C 0.40487 0.97593 0.57217 0.0
C1468 C 0.4152 0.97972 0.53205 0.0
C1469 C 0.40747 0.96231 0.51583 0.0
C1470 C 0.42241 0.95462 0.49948 0.0
C1471 C 0.44598 0.96497 0.49973 0.0
C1472 C 0.4541 0.98292 0.51604 0.0
C1473 C 0.43857 0.99055 0.53229 0.0
H1474 H 0.85547 0.58252 0.26148 0.0
H1475 H 0.83627 0.56848 0.19174 0.0
H1476 H 0.81402 0.60642 0.19092 0.0
H1477 H 0.79753 0.60775 0.27509 0.0
H1478 H 0.81133 0.6305 0.29464 0.0
H1479 H 0.82479 0.60139 0.29034 0.0
H1480 H 0.86462 0.62502 0.28102 0.0
H1481 H 0.8513 0.65413 0.28535 0.0
H1482 H 0.8646 0.64759 0.25939 0.0
H1483 H 0.79757 0.64756 0.19628 0.0
H1484 H 0.78613 0.68904 0.20809 0.0
H1485 H 0.81299 0.67612 0.27503 0.0
C1486 C 0.84639 0.58735 0.24611 0.0
C1487 C 0.84766 0.57251 0.22664 0.0
C1488 C 0.8355 0.57944 0.20688 0.0
C1489 C 0.82278 0.60098 0.20624 0.0
C1490 C 0.82198 0.61526 0.2256 0.0
C1491 C 0.8332 0.60868 0.24526 0.0
C1492 C 0.82978 0.62773 0.26354 0.0
C1493 C 0.81497 0.61615 0.282 0.0
C1494 C 0.85402 0.6393 0.27286 0.0
C1495 C 0.81576 0.64649 0.2508 0.0
C1496 C 0.8114 0.63877 0.22896 0.0
C1497 C 0.80043 0.65361 0.21343 0.0
C1498 C 0.79403 0.67713 0.22027 0.0
C1499 C 0.79832 0.68553 0.24251 0.0
C1500 C 0.80894 0.66982 0.25807 0.0
H1501 H 0.70848 0.42861 0.72152 0.0
H1502 H 0.72043 0.46152 0.78746 0.0
H1503 H 0.74474 0.42668 0.7984 0.0
H1504 H 0.70089 0.36574 0.74022 0.0
H1505 H 0.715 0.35252 0.71687 0.0
H1506 H 0.69987 0.38082 0.71384 0.0
H1507 H 0.73865 0.40254 0.69962 0.0
H1508 H 0.75398 0.37436 0.70292 0.0
H1509 H 0.76606 0.40273 0.71645 0.0
H1510 H 0.76827 0.38945 0.80188 0.0
H1511 H 0.78429 0.34822 0.80028 0.0
H1512 H 0.75462 0.33708 0.73286 0.0
C1513 C 0.71632 0.42844 0.73822 0.0
C1514 C 0.71287 0.44775 0.75365 0.0
C1515 C 0.72292 0.44682 0.77547 0.0
C1516 C 0.73688 0.42726 0.78175 0.0
C1517 C 0.74021 0.40864 0.76609 0.0
C1518 C 0.72981 0.40871 0.74493 0.0
C1519 C 0.7347 0.38537 0.73193 0.0
C1520 C 0.71122 0.37022 0.72534 0.0
C1521 C 0.74922 0.39164 0.71152 0.0
C1522 C 0.7495 0.37219 0.74912 0.0
C1523 C 0.7528 0.38626 0.76851 0.0
C1524 C 0.76572 0.37818 0.78685 0.0
C1525 C 0.77482 0.3547 0.7857 0.0
C1526 C 0.77061 0.33928 0.76644 0.0
C1527 C 0.75823 0.34844 0.74774 0.0
H1528 H 0.95609 0.85941 0.94326 0.0
H1529 H 0.9939 0.87901 0.88433 0.0
H1530 H 0.01643 0.91292 0.90511 0.0
H1531 H 0.95978 0.92687 0.96978 0.0
H1532 H 0.96347 0.91356 0.99676 0.0
H1533 H 0.94461 0.89743 0.97551 0.0
H1534 H 0.96927 0.85894 0.98157 0.0
H1535 H 0.98944 0.87531 0.00149 0.0
H1536 H 0.00099 0.8612 0.9772 0.0
H1537 H 0.04407 0.93282 0.93406 0.0
H1538 H 0.06511 0.95159 0.96738 0.0
H1539 H 0.0093 0.91983 0.00799 0.0
C1540 C 0.96786 0.87198 0.93437 0.0
C1541 C 0.97388 0.86615 0.91249 0.0
C1542 C 0.98924 0.88293 0.90121 0.0
C1543 C 0.00242 0.90209 0.91299 0.0
C1544 C 0.99903 0.90468 0.9356 0.0
C1545 C 0.98114 0.89113 0.94598 0.0
C1546 C 0.98303 0.89558 0.97088 0.0
C1547 C 0.96145 0.90918 0.97869 0.0
C1548 C 0.98585 0.87131 0.98349 0.0
C1549 C 0.00577 0.91214 0.97291 0.0
C1550 C 0.01472 0.9171 0.95239 0.0
C1551 C 0.03672 0.92999 0.95017 0.0
C1552 C 0.04883 0.94007 0.9693 0.0
C1553 C 0.03861 0.93753 0.99028 0.0
C1554 C 0.01744 0.92229 0.99216 0.0
H1555 H 0.94307 0.27215 0.68454 0.0
H1556 H 0.98275 0.23839 0.7381 0.0
H1557 H 0.94784 0.24011 0.7615 0.0
H1558 H 0.90943 0.31299 0.71916 0.0
H1559 H 0.88217 0.30857 0.7022 0.0
H1560 H 0.91074 0.30629 0.6899 0.0
H1561 H 0.89731 0.2623 0.67456 0.0
H1562 H 0.86872 0.26447 0.6868 0.0
H1563 H 0.88683 0.23888 0.69335 0.0
H1564 H 0.90889 0.24592 0.77959 0.0
H1565 H 0.86735 0.25169 0.78985 0.0
H1566 H 0.85082 0.27855 0.72404 0.0
C1567 C 0.94446 0.26537 0.70127 0.0
C1568 C 0.96589 0.25533 0.70951 0.0
C1569 C 0.96671 0.24624 0.73138 0.0
C1570 C 0.94693 0.2472 0.74486 0.0
C1571 C 0.92612 0.25705 0.73628 0.0
C1572 C 0.92459 0.26576 0.71492 0.0
C1573 C 0.89956 0.27423 0.70951 0.0
C1574 C 0.90054 0.30218 0.70492 0.0
C1575 C 0.88739 0.25906 0.68989 0.0
C1576 C 0.88726 0.26863 0.73104 0.0
C1577 C 0.90313 0.2592 0.74638 0.0
C1578 C 0.8963 0.25321 0.76767 0.0
C1579 C 0.87264 0.25667 0.7734 0.0
C1580 C 0.85572 0.26557 0.75783 0.0
C1581 C 0.86326 0.27163 0.73632 0.0
H1582 H 0.52346 0.23133 0.42253 0.0
H1583 H 0.4517 0.22702 0.39238 0.0
H1584 H 0.44603 0.18328 0.40411 0.0
H1585 H 0.5372 0.16482 0.41165 0.0
H1586 H 0.55347 0.16405 0.43803 0.0
H1587 H 0.55308 0.19256 0.42302 0.0
H1588 H 0.53744 0.21437 0.45765 0.0
H1589 H 0.53695 0.18587 0.47253 0.0
H1590 H 0.51003 0.20236 0.46922 0.0
H1591 H 0.44605 0.14335 0.4255 0.0
H1592 H 0.45321 0.10882 0.45082 0.0
H1593 H 0.52543 0.14022 0.46592 0.0
C1594 C 0.50692 0.2208 0.41765 0.0
C1595 C 0.48805 0.23214 0.40655 0.0
C1596 C 0.46645 0.21825 0.40061 0.0
C1597 C 0.46307 0.19355 0.40732 0.0
C1598 C 0.48167 0.18329 0.41948 0.0
C1599 C 0.50339 0.19636 0.42409 0.0
C1600 C 0.51973 0.18241 0.43918 0.0
C1601 C 0.54219 0.17554 0.42725 0.0
C1602 C 0.5264 0.19713 0.46092 0.0
C1603 C 0.50351 0.15982 0.44316 0.0
C1604 C 0.4817 0.16046 0.43161 0.0
C1605 C 0.46328 0.14235 0.43416 0.0
C1606 C 0.46748 0.12289 0.44861 0.0
C1607 C 0.48989 0.12187 0.46031 0.0
C1608 C 0.50804 0.14059 0.45741 0.0
H1609 H 0.59532 0.74419 0.2139 0.0
H1610 H 0.61085 0.79917 0.1641 0.0
H1611 H 0.65311 0.80232 0.17709 0.0
H1612 H 0.6384 0.7716 0.25765 0.0
H1613 H 0.64718 0.74189 0.26712 0.0
H1614 H 0.61743 0.74489 0.25524 0.0
H1615 H 0.624 0.71002 0.22659 0.0
H1616 H 0.65382 0.70704 0.23826 0.0
H1617 H 0.64931 0.71299 0.20916 0.0
H1618 H 0.69367 0.79759 0.19245 0.0
H1619 H 0.73116 0.7875 0.21136 0.0
H1620 H 0.69212 0.73603 0.25324 0.0
C1621 C 0.60755 0.75727 0.20609 0.0
C1622 C 0.59953 0.77154 0.18792 0.0
C1623 C 0.61633 0.78803 0.17793 0.0
C1624 C 0.64048 0.78997 0.18522 0.0
C1625 C 0.64789 0.77532 0.20265 0.0
C1626 C 0.63205 0.75942 0.21319 0.0
C1627 C 0.64545 0.74523 0.23104 0.0
C1628 C 0.63658 0.75127 0.25414 0.0
C1629 C 0.643 0.71715 0.22596 0.0
C1630 C 0.67122 0.75559 0.22868 0.0
C1631 C 0.67191 0.77283 0.21204 0.0
C1632 C 0.69333 0.78433 0.20567 0.0
C1633 C 0.71466 0.77826 0.21653 0.0
C1634 C 0.71487 0.7609 0.23391 0.0
C1635 C 0.69267 0.74951 0.24021 0.0
H1636 H 0.02662 0.20244 0.5858 0.0
H1637 H 0.02062 0.17225 0.6517 0.0
H1638 H 0.02437 0.13041 0.63642 0.0
H1639 H 0.99167 0.15019 0.55716 0.0
H1640 H 0.00969 0.15068 0.53313 0.0
H1641 H 0.00652 0.17889 0.54888 0.0
H1642 H 0.05262 0.18511 0.55396 0.0
H1643 H 0.05593 0.15676 0.53844 0.0
H1644 H 0.06931 0.16083 0.56606 0.0
H1645 H 0.03102 0.09242 0.61558 0.0
H1646 H 0.03467 0.05827 0.58917 0.0
H1647 H 0.03406 0.10989 0.53475 0.0
C1648 C 0.02588 0.18699 0.59695 0.0
C1649 C 0.02337 0.19095 0.62011 0.0
C1650 C 0.02246 0.17005 0.634 0.0
C1651 C 0.02471 0.14606 0.62548 0.0
C1652 C 0.0276 0.14285 0.60286 0.0
C1653 C 0.02773 0.16252 0.58859 0.0
C1654 C 0.03038 0.15321 0.56479 0.0
C1655 C 0.00824 0.15857 0.55012 0.0
C1656 C 0.05344 0.16466 0.55525 0.0
C1657 C 0.03193 0.12534 0.5681 0.0
C1658 C 0.03052 0.12014 0.59034 0.0
C1659 C 0.03186 0.0962 0.59808 0.0
C1660 C 0.03398 0.07683 0.58277 0.0
C1661 C 0.03447 0.08106 0.55962 0.0
C1662 C 0.03382 0.10589 0.55223 0.0
H1663 H 0.57521 0.32767 0.37462 0.0
H1664 H 0.52988 0.28896 0.32321 0.0
H1665 H 0.56514 0.28322 0.30118 0.0
H1666 H 0.6155 0.35961 0.33601 0.0
H1667 H 0.64164 0.3572 0.35414 0.0
H1668 H 0.61264 0.35935 0.36562 0.0
H1669 H 0.61841 0.31864 0.38674 0.0
H1670 H 0.6473 0.31626 0.37517 0.0
H1671 H 0.62484 0.29097 0.37149 0.0
H1672 H 0.60472 0.27807 0.28657 0.0
H1673 H 0.647 0.27716 0.27784 0.0
H1674 H 0.66726 0.32202 0.33702 0.0
C1675 C 0.57274 0.31826 0.35861 0.0
C1676 C 0.54991 0.30876 0.35056 0.0
C1677 C 0.54724 0.29656 0.32957 0.0
C1678 C 0.56713 0.29312 0.31697 0.0
C1679 C 0.58944 0.30238 0.32547 0.0
C1680 C 0.59241 0.31506 0.34558 0.0
C1681 C 0.6185 0.32303 0.35073 0.0
C1682 C 0.62229 0.35149 0.35168 0.0
C1683 C 0.6278 0.31153 0.37231 0.0
C1684 C 0.62971 0.31215 0.33066 0.0
C1685 C 0.61253 0.30034 0.31638 0.0
C1686 C 0.61835 0.28778 0.29728 0.0
C1687 C 0.64244 0.28757 0.29241 0.0
C1688 C 0.66045 0.30012 0.30643 0.0
C1689 C 0.65393 0.31244 0.3259 0.0
H1690 H 0.54817 0.82584 0.07814 0.0
H1691 H 0.50155 0.84146 0.13159 0.0
H1692 H 0.49465 0.88235 0.11576 0.0
H1693 H 0.57547 0.88679 0.07444 0.0
H1694 H 0.5765 0.88628 0.04465 0.0
H1695 H 0.57713 0.85773 0.05955 0.0
H1696 H 0.54015 0.83969 0.03597 0.0
H1697 H 0.53943 0.8682 0.02098 0.0
H1698 H 0.51325 0.85643 0.03469 0.0
H1699 H 0.49551 0.92292 0.09618 0.0
H1700 H 0.50192 0.95951 0.07278 0.0
H1701 H 0.54579 0.91761 0.0301 0.0
C1702 C 0.53631 0.83776 0.08639 0.0
C1703 C 0.5254 0.83029 0.1062 0.0
C1704 C 0.51005 0.84656 0.11642 0.0
C1705 C 0.50604 0.86991 0.10755 0.0
C1706 C 0.51723 0.87676 0.0882 0.0
C1707 C 0.53184 0.86109 0.07756 0.0
C1708 C 0.54186 0.87325 0.05707 0.0
C1709 C 0.56937 0.87618 0.05906 0.0
C1710 C 0.53315 0.85851 0.03593 0.0
C1711 C 0.53093 0.89834 0.05807 0.0
C1712 C 0.51688 0.89993 0.07627 0.0
C1713 C 0.50613 0.92171 0.08169 0.0
C1714 C 0.50991 0.94243 0.0683 0.0
C1715 C 0.52401 0.94131 0.04942 0.0
C1716 C 0.53444 0.91882 0.0441 0.0
H1717 H 0.94749 0.77099 0.81573 0.0
H1718 H 0.92557 0.74094 0.8783 0.0
H1719 H 0.88715 0.72507 0.86039 0.0
H1720 H 0.89713 0.79584 0.80265 0.0
H1721 H 0.89627 0.79 0.77314 0.0
H1722 H 0.92443 0.79203 0.7885 0.0
H1723 H 0.93365 0.74827 0.77401 0.0
H1724 H 0.90547 0.7462 0.75825 0.0
H1725 H 0.91241 0.72233 0.77755 0.0
H1726 H 0.84824 0.72359 0.83931 0.0
H1727 H 0.81313 0.73349 0.81562 0.0
H1728 H 0.86055 0.76302 0.76634 0.0
C1729 C 0.93502 0.76013 0.82543 0.0
C1730 C 0.93937 0.75726 0.84835 0.0
C1731 C 0.92257 0.74327 0.86065 0.0
C1732 C 0.90073 0.7341 0.85059 0.0
C1733 C 0.89627 0.73871 0.82821 0.0
C1734 C 0.91321 0.75094 0.81563 0.0
C1735 C 0.90283 0.75722 0.79306 0.0
C1736 C 0.9053 0.78542 0.78915 0.0
C1737 C 0.91427 0.74262 0.77463 0.0
C1738 C 0.87705 0.74824 0.79549 0.0
C1739 C 0.87362 0.73722 0.8157 0.0
C1740 C 0.85076 0.73129 0.8231 0.0
C1741 C 0.83095 0.73717 0.80967 0.0
C1742 C 0.83428 0.74877 0.78914 0.0
C1743 C 0.85756 0.75355 0.78172 0.0
H1744 H 0.99383 0.02619 0.8582 0.0
H1745 H 0.91773 0.0204 0.86908 0.0
H1746 H 0.92636 0.02019 0.90964 0.0
H1747 H 0.01296 0.98763 0.8993 0.0
H1748 H 0.03969 0.0062 0.90796 0.0
H1749 H 0.02752 0.00803 0.88003 0.0
H1750 H 0.02518 0.05565 0.88496 0.0
H1751 H 0.03759 0.05397 0.91289 0.0
H1752 H 0.00943 0.06777 0.9078 0.0
H1753 H 0.94363 0.01545 0.94861 0.0
H1754 H 0.96807 0.01092 0.98322 0.0
H1755 H 0.03279 0.02268 0.94674 0.0
C1756 C 0.97905 0.02545 0.86921 0.0
C1757 C 0.95515 0.02343 0.86071 0.0
C1758 C 0.93616 0.02234 0.87543 0.0
C1759 C 0.94089 0.02208 0.89843 0.0
C1760 C 0.96471 0.02363 0.90635 0.0
C1761 C 0.98346 0.02592 0.89219 0.0
C1762 C 0.00741 0.02711 0.90488 0.0
C1763 C 0.02278 0.00597 0.89761 0.0
C1764 C 0.02068 0.05264 0.90249 0.0
C1765 C 0.99926 0.02371 0.92824 0.0
C1766 C 0.97457 0.02191 0.92881 0.0
C1767 C 0.96297 0.01736 0.94843 0.0
C1768 C 0.977 0.01476 0.96799 0.0
C1769 C 0.00234 0.01671 0.96774 0.0
C1770 C 0.01348 0.02139 0.94757 0.0
H1771 H 0.80087 0.18805 0.56563 0.0
H1772 H 0.72942 0.15402 0.55262 0.0
H1773 H 0.71667 0.17109 0.58818 0.0
H1774 H 0.80535 0.17839 0.62304 0.0
H1775 H 0.82046 0.20805 0.63033 0.0
H1776 H 0.82366 0.19437 0.6033 0.0
H1777 H 0.80884 0.23405 0.58505 0.0
H1778 H 0.80556 0.24783 0.61209 0.0
H1779 H 0.78045 0.2452 0.59232 0.0
H1780 H 0.71241 0.18933 0.62592 0.0
H1781 H 0.71658 0.20875 0.66334 0.0
H1782 H 0.79057 0.23181 0.65174 0.0
C1783 C 0.78252 0.18457 0.57027 0.0
C1784 C 0.76597 0.16996 0.55658 0.0
C1785 C 0.74214 0.16547 0.56299 0.0
C1786 C 0.73478 0.17505 0.58309 0.0
C1787 C 0.75143 0.18939 0.59637 0.0
C1788 C 0.77472 0.19442 0.59018 0.0
C1789 C 0.789 0.21016 0.60774 0.0
C1790 C 0.8109 0.19694 0.61663 0.0
C1791 C 0.7964 0.23583 0.59876 0.0
C1792 C 0.77043 0.21213 0.62512 0.0
C1793 C 0.74881 0.20028 0.61811 0.0
C1794 C 0.72919 0.19888 0.63156 0.0
C1795 C 0.73178 0.20981 0.65284 0.0
C1796 C 0.75387 0.22188 0.66049 0.0
C1797 C 0.77332 0.22317 0.64627 0.0
H1798 H 0.58762 0.02893 0.36348 0.0
H1799 H 0.62212 0.9591 0.3635 0.0
H1800 H 0.60171 0.94744 0.39774 0.0
H1801 H 0.59316 0.04013 0.4212 0.0
H1802 H 0.56479 0.054 0.4227 0.0
H1803 H 0.58084 0.05569 0.39756 0.0
H1804 H 0.54362 0.03535 0.37562 0.0
H1805 H 0.52752 0.03344 0.40079 0.0
H1806 H 0.53066 0.00585 0.38415 0.0
H1807 H 0.5792 0.9449 0.43353 0.0
H1808 H 0.55792 0.9523 0.46791 0.0
H1809 H 0.53813 0.02358 0.44328 0.0
C1810 C 0.59073 0.01103 0.37048 0.0
C1811 C 0.6064 0.99486 0.36075 0.0
C1812 C 0.61014 0.97175 0.37064 0.0
C1813 C 0.59857 0.96495 0.39004 0.0
C1814 C 0.5833 0.98145 0.39925 0.0
C1815 C 0.57942 0.00402 0.38975 0.0
C1816 C 0.56325 0.01909 0.40336 0.0
C1817 C 0.5763 0.04367 0.4117 0.0
C1818 C 0.53988 0.02369 0.39019 0.0
C1819 C 0.55877 0.00161 0.42218 0.0
C1820 C 0.57035 0.97993 0.41955 0.0
C1821 C 0.56985 0.96169 0.43562 0.0
C1822 C 0.55767 0.96603 0.45506 0.0
C1823 C 0.5462 0.98843 0.45824 0.0
C1824 C 0.5464 0.0061 0.44128 0.0
H1825 H 0.75515 0.90846 0.09542 0.0
H1826 H 0.69026 0.86477 0.07486 0.0
H1827 H 0.69547 0.83834 0.10741 0.0
H1828 H 0.78606 0.86056 0.10099 0.0
H1829 H 0.80588 0.87106 0.12402 0.0
H1830 H 0.7928 0.89328 0.10628 0.0
H1831 H 0.77414 0.91475 0.13952 0.0
H1832 H 0.78817 0.89332 0.15775 0.0
H1833 H 0.75633 0.89648 0.15814 0.0
H1834 H 0.71254 0.81133 0.13607 0.0
H1835 H 0.73862 0.78688 0.15955 0.0
H1836 H 0.79629 0.84408 0.15524 0.0
C1837 C 0.74113 0.89442 0.09859 0.0
C1838 C 0.72212 0.88878 0.08289 0.0
C1839 C 0.70469 0.86957 0.087 0.0
C1840 C 0.70763 0.85441 0.10537 0.0
C1841 C 0.7282 0.85868 0.11913 0.0
C1842 C 0.74458 0.87843 0.11606 0.0
C1843 C 0.76782 0.87572 0.1293 0.0
C1844 C 0.78937 0.8751 0.11424 0.0
C1845 C 0.77183 0.89629 0.14725 0.0
C1846 C 0.76239 0.85081 0.13941 0.0
C1847 C 0.73926 0.84168 0.13398 0.0
C1848 C 0.73062 0.81843 0.14061 0.0
C1849 C 0.74586 0.8044 0.15354 0.0
C1850 C 0.76983 0.8133 0.1591 0.0
C1851 C 0.77807 0.83678 0.15168 0.0
H1852 H 0.97889 0.0083 0.73982 0.0
H1853 H 0.92009 0.05448 0.72319 0.0
H1854 H 0.92729 0.04897 0.68356 0.0
H1855 H 0.01747 0.02944 0.69414 0.0
H1856 H 0.02801 0.99888 0.68995 0.0
H1857 H 0.01993 0.00881 0.71714 0.0
H1858 H 0.99046 0.97006 0.71873 0.0
H1859 H 0.99793 0.96033 0.69134 0.0
H1860 H 0.96719 0.96474 0.69729 0.0
H1861 H 0.937 0.03424 0.64612 0.0
H1862 H 0.95329 0.01667 0.61238 0.0
H1863 H 0.00668 0.9809 0.65265 0.0
C1864 C 0.96804 0.01792 0.72789 0.0
C1865 C 0.94889 0.03179 0.73464 0.0
C1866 C 0.93485 0.04375 0.71845 0.0
C1867 C 0.93872 0.04065 0.69587 0.0
C1868 C 0.95688 0.0258 0.68975 0.0
C1869 C 0.97171 0.01509 0.70522 0.0
C1870 C 0.98937 -0.00071 0.69405 0.0
C1871 C 0.01523 0.00974 0.69912 0.0
C1872 C 0.98602 0.97199 0.70076 0.0
C1873 C 0.9818 0.00246 0.66993 0.0
C1874 C 0.96289 0.01767 0.6679 0.0
C1875 C 0.95201 0.02255 0.64743 0.0
C1876 C 0.96117 0.01222 0.62841 0.0
C1877 C 0.9811 0.99732 0.62998 0.0
C1878 C 0.99142 0.99224 0.65104 0.0
H1879 H 0.75449 0.20139 0.43385 0.0
H1880 H 0.81524 0.15522 0.43264 0.0
H1881 H 0.8274 0.17456 0.39773 0.0
H1882 H 0.73951 0.19797 0.37692 0.0
H1883 H 0.73122 0.22963 0.37501 0.0
H1884 H 0.72862 0.21366 0.40074 0.0
H1885 H 0.75552 0.2487 0.42086 0.0
H1886 H 0.75826 0.26474 0.3951 0.0
H1887 H 0.78474 0.2569 0.41081 0.0
H1888 H 0.83122 0.19695 0.36163 0.0
H1889 H 0.82587 0.21956 0.32683 0.0
H1890 H 0.76262 0.25121 0.35187 0.0
C1891 C 0.77051 0.1955 0.4264 0.0
C1892 C 0.78394 0.17679 0.436 0.0
C1893 C 0.80472 0.16957 0.42564 0.0
C1894 C 0.81179 0.1805 0.40584 0.0
C1895 C 0.79802 0.19876 0.39674 0.0
C1896 C 0.77785 0.20626 0.40673 0.0
C1897 C 0.76548 0.22538 0.39308 0.0
C1898 C 0.73969 0.21609 0.38602 0.0
C1899 C 0.76604 0.25041 0.40572 0.0
C1900 C 0.78137 0.2269 0.37344 0.0
C1901 C 0.80023 0.21167 0.37601 0.0
C1902 C 0.81667 0.20913 0.35957 0.0
C1903 C 0.81347 0.22209 0.33985 0.0
C1904 C 0.79388 0.23729 0.33662 0.0
C1905 C 0.77794 0.24002 0.35389 0.0
H1906 H 0.62895 0.99353 0.21782 0.0
H1907 H 0.58647 0.03937 0.25862 0.0
H1908 H 0.56461 0.05287 0.22505 0.0
H1909 H 0.63606 0.03419 0.1739 0.0
H1910 H 0.63294 0.01061 0.15225 0.0
H1911 H 0.64412 0.00302 0.17952 0.0
H1912 H 0.61069 0.96788 0.18177 0.0
H1913 H 0.59965 0.97507 0.15432 0.0
H1914 H 0.57984 0.97489 0.17707 0.0
H1915 H 0.54839 0.0627 0.18665 0.0
H1916 H 0.53785 0.06618 0.14651 0.0
H1917 H 0.5916 0.01485 0.13108 0.0
C1918 C 0.6148 0.0061 0.21974 0.0
C1919 C 0.60941 0.01531 0.24089 0.0
C1920 C 0.59079 0.03182 0.24264 0.0
C1921 C 0.57835 0.03973 0.22364 0.0
C1922 C 0.58454 0.03077 0.20301 0.0
C1923 C 0.60209 0.01404 0.20098 0.0
C1924 C 0.60543 0.00733 0.1769 0.0
C1925 C 0.63117 0.01421 0.17026 0.0
C1926 C 0.59849 0.97965 0.17225 0.0
C1927 C 0.58765 0.02357 0.16566 0.0
C1928 C 0.57554 0.03674 0.181 0.0
C1929 C 0.55777 0.05248 0.17451 0.0
C1930 C 0.55196 0.05443 0.15176 0.0
C1931 C 0.56419 0.04107 0.13589 0.0
C1932 C 0.58236 0.02564 0.14296 0.0
H1933 H 0.72404 0.82628 0.96391 0.0
H1934 H 0.75065 0.90198 0.95223 0.0
H1935 H 0.74915 0.89302 0.91209 0.0
H1936 H 0.75583 0.7967 0.92375 0.0
H1937 H 0.732 0.77433 0.91474 0.0
H1938 H 0.73312 0.78695 0.94258 0.0
H1939 H 0.6901 0.8015 0.9365 0.0
H1940 H 0.68883 0.78878 0.90862 0.0
H1941 H 0.68334 0.82095 0.91341 0.0
H1942 H 0.7485 0.87551 0.87439 0.0
H1943 H 0.74718 0.85059 0.83994 0.0
H1944 H 0.71951 0.78612 0.87489 0.0
C1945 C 0.72923 0.84102 0.95284 0.0
C1946 C 0.73743 0.86482 0.9611 0.0
C1947 C 0.74413 0.88367 0.9462 0.0
C1948 C 0.74335 0.87878 0.92339 0.0
C1949 C 0.73546 0.85508 0.91578 0.0
C1950 C 0.72823 0.83655 0.92992 0.0
C1951 C 0.72112 0.81253 0.91724 0.0
C1952 C 0.73644 0.79139 0.92505 0.0
C1953 C 0.69425 0.80553 0.91905 0.0
C1954 C 0.72666 0.82021 0.89395 0.0
C1955 C 0.73458 0.84496 0.89356 0.0
C1956 C 0.7418 0.85628 0.87431 0.0
C1957 C 0.74084 0.84196 0.85482 0.0
C1958 C 0.73268 0.81656 0.85466 0.0
C1959 C 0.72553 0.80555 0.87452 0.0
H1960 H 0.83283 0.9218 0.00865 0.0
H1961 H 0.81863 0.87817 0.06661 0.0
H1962 H 0.86019 0.88834 0.08127 0.0
H1963 H 0.8982 0.90799 0.00542 0.0
H1964 H 0.90546 0.93904 0.99634 0.0
H1965 H 0.87662 0.92382 0.98881 0.0
H1966 H 0.85623 0.96117 0.00584 0.0
H1967 H 0.88484 0.9761 0.01411 0.0
H1968 H 0.86282 0.96992 0.03452 0.0
H1969 H 0.90124 0.90932 0.09201 0.0
H1970 H 0.9392 0.93578 0.09592 0.0
H1971 H 0.9247 0.96522 0.03074 0.0
C1972 C 0.83884 0.9136 0.024 0.0
C1973 C 0.82288 0.89915 0.03649 0.0
C1974 C 0.83094 0.88895 0.05668 0.0
C1975 C 0.8544 0.89476 0.06515 0.0
C1976 C 0.86942 0.91029 0.05293 0.0
C1977 C 0.86208 0.91901 0.03248 0.0
C1978 C 0.88058 0.93703 0.02337 0.0
C1979 C 0.89082 0.92632 0.00224 0.0
C1980 C 0.8705 0.96255 0.01924 0.0
C1981 C 0.8989 0.93827 0.0424 0.0
C1982 C 0.89252 0.92251 0.0592 0.0
C1983 C 0.90656 0.92147 0.07881 0.0
C1984 C 0.92787 0.93664 0.08099 0.0
C1985 C 0.93447 0.95283 0.06382 0.0
C1986 C 0.91977 0.95349 0.04438 0.0
H1987 H 0.36871 0.58676 0.99064 0.0
H1988 H 0.33919 0.55925 0.05151 0.0
H1989 H 0.37444 0.53514 0.0582 0.0
H1990 H 0.39638 0.52915 0.97511 0.0
H1991 H 0.42259 0.54505 0.96451 0.0
H1992 H 0.39436 0.55946 0.9634 0.0
H1993 H 0.41399 0.59799 0.98484 0.0
H1994 H 0.44227 0.58377 0.9859 0.0
H1995 H 0.42957 0.59401 0.01117 0.0
H1996 H 0.41235 0.51464 0.0592 0.0
H1997 H 0.45297 0.50087 0.056 0.0
H1998 H 0.46016 0.54177 0.99508 0.0
C1999 C 0.36964 0.57553 0.00527 0.0
C2000 C 0.35104 0.57487 0.02049 0.0
C2001 C 0.35306 0.56007 0.03954 0.0
C2002 C 0.37302 0.54619 0.04349 0.0
C2003 C 0.39095 0.54717 0.02825 0.0
C2004 C 0.38965 0.56149 0.00957 0.0
C2005 C 0.41212 0.55975 0.99645 0.0
C2006 C 0.40599 0.54763 0.9735 0.0
C2007 C 0.42526 0.58541 0.99449 0.0
C2008 C 0.4264 0.54281 0.01109 0.0
C2009 C 0.4135 0.5355 0.02908 0.0
C2010 C 0.42264 0.52015 0.04516 0.0
C2011 C 0.44582 0.51238 0.04313 0.0
C2012 C 0.45991 0.52018 0.02527 0.0
C2013 C 0.44984 0.53534 0.00884 0.0
H2014 H 0.21526 0.5868 0.78599 0.0
H2015 H 0.15909 0.60084 0.83114 0.0
H2016 H 0.16647 0.64588 0.82639 0.0
H2017 H 0.25527 0.64143 0.80321 0.0
H2018 H 0.26444 0.64649 0.77533 0.0
H2019 H 0.25603 0.61555 0.78398 0.0
H2020 H 0.22474 0.61094 0.751 0.0
H2021 H 0.23257 0.64212 0.74265 0.0
H2022 H 0.20195 0.63302 0.74828 0.0
H2023 H 0.17767 0.68922 0.81449 0.0
H2024 H 0.19576 0.72823 0.8002 0.0
H2025 H 0.24439 0.68602 0.76256 0.0
C2026 C 0.20495 0.59935 0.79535 0.0
C2027 C 0.1866 0.59024 0.80897 0.0
C2028 C 0.17324 0.60734 0.82061 0.0
C2029 C 0.17722 0.63298 0.81795 0.0
C2030 C 0.19465 0.64128 0.80361 0.0
C2031 C 0.20862 0.62504 0.79282 0.0
C2032 C 0.2258 0.63882 0.77796 0.0
C2033 C 0.25193 0.63537 0.78558 0.0
C2034 C 0.22096 0.63074 0.75353 0.0
C2035 C 0.21916 0.66528 0.78196 0.0
C2036 C 0.20108 0.66628 0.79673 0.0
C2037 C 0.19194 0.68869 0.803 0.0
C2038 C 0.20219 0.71075 0.79462 0.0
C2039 C 0.22148 0.71026 0.7802 0.0
C2040 C 0.22959 0.68709 0.77343 0.0
H2041 H 0.19794 0.4602 0.49101 0.0
H2042 H 0.17924 0.39388 0.52751 0.0
H2043 H 0.14527 0.41436 0.54314 0.0
H2044 H 0.18407 0.5048 0.53078 0.0
H2045 H 0.17061 0.52548 0.51148 0.0
H2046 H 0.1934 0.50582 0.50259 0.0
H2047 H 0.16494 0.48657 0.47091 0.0
H2048 H 0.14254 0.50703 0.47907 0.0
H2049 H 0.13554 0.474 0.47734 0.0
H2050 H 0.1165 0.44328 0.55767 0.0
H2051 H 0.08589 0.47398 0.56117 0.0
H2052 H 0.12075 0.51977 0.51245 0.0
C2053 C 0.18631 0.44988 0.5019 0.0
C2054 C 0.19104 0.42564 0.50822 0.0
C2055 C 0.17561 0.41246 0.5224 0.0
C2056 C 0.15659 0.42405 0.53162 0.0
C2057 C 0.15317 0.44851 0.52602 0.0
C2058 C 0.16689 0.4609 0.51076 0.0
C2059 C 0.15832 0.48644 0.50642 0.0
C2060 C 0.17777 0.50683 0.51323 0.0
C2061 C 0.14982 0.48863 0.48199 0.0
C2062 C 0.13771 0.48649 0.52174 0.0
C2063 C 0.13558 0.46474 0.53343 0.0
C2064 C 0.11789 0.46038 0.54861 0.0
C2065 C 0.1009 0.47806 0.55078 0.0
C2066 C 0.10155 0.49925 0.53741 0.0
C2067 C 0.1205 0.50398 0.52327 0.0
H2068 H 0.89977 0.9336 0.77733 0.0
H2069 H 0.8489 0.97327 0.81441 0.0
H2070 H 0.81949 0.93738 0.8098 0.0
H2071 H 0.85779 0.90801 0.73719 0.0
H2072 H 0.87113 0.87862 0.7344 0.0
H2073 H 0.88949 0.906 0.74283 0.0
H2074 H 0.90427 0.88422 0.77832 0.0
H2075 H 0.88623 0.85661 0.76983 0.0
H2076 H 0.88267 0.87081 0.79664 0.0
H2077 H 0.79526 0.89845 0.80003 0.0
H2078 H 0.77721 0.85829 0.78538 0.0
H2079 H 0.84271 0.84496 0.75236 0.0
C2080 C 0.88265 0.9344 0.78494 0.0
C2081 C 0.87657 0.95594 0.79643 0.0
C2082 C 0.85382 0.95677 0.80565 0.0
C2083 C 0.83706 0.93654 0.80313 0.0
C2084 C 0.84332 0.91581 0.79116 0.0
C2085 C 0.86553 0.91453 0.78222 0.0
C2086 C 0.86703 0.89076 0.76877 0.0
C2087 C 0.87163 0.89619 0.74436 0.0
C2088 C 0.88619 0.87465 0.77901 0.0
C2089 C 0.84208 0.87909 0.77135 0.0
C2090 C 0.82884 0.89374 0.78457 0.0
C2091 C 0.80541 0.88679 0.78965 0.0
C2092 C 0.79532 0.86405 0.78123 0.0
C2093 C 0.80856 0.8488 0.76762 0.0
C2094 C 0.83213 0.85653 0.76245 0.0
H2095 H 0.68918 0.1131 0.49121 0.0
H2096 H 0.72876 0.04756 0.50295 0.0
H2097 H 0.69128 0.02429 0.5122 0.0
H2098 H 0.65193 0.10489 0.53624 0.0
H2099 H 0.62557 0.11603 0.52251 0.0
H2100 H 0.65487 0.12713 0.51448 0.0
H2101 H 0.6444 0.11306 0.47378 0.0
H2102 H 0.61487 0.10244 0.48156 0.0
H2103 H 0.63348 0.08142 0.46778 0.0
H2104 H 0.6508 0.00946 0.52355 0.0
H2105 H 0.60849 0.00186 0.53193 0.0
H2106 H 0.59448 0.07694 0.51266 0.0
C2107 C 0.68986 0.09364 0.49507 0.0
C2108 C 0.71187 0.08203 0.49617 0.0
C2109 C 0.71209 0.05675 0.5019 0.0
C2110 C 0.69092 0.04343 0.50727 0.0
C2111 C 0.66973 0.05572 0.50692 0.0
C2112 C 0.66893 0.08014 0.50069 0.0
C2113 C 0.64398 0.08926 0.50273 0.0
C2114 C 0.64411 0.11059 0.52001 0.0
C2115 C 0.63357 0.09699 0.48011 0.0
C2116 C 0.63083 0.06602 0.51084 0.0
C2117 C 0.64617 0.04706 0.5134 0.0
C2118 C 0.63855 0.02407 0.5214 0.0
C2119 C 0.61445 0.02004 0.52628 0.0
C2120 C 0.59806 0.03879 0.52292 0.0
C2121 C 0.60652 0.06223 0.51538 0.0
H2122 H 0.20679 0.43555 0.81517 0.0
H2123 H 0.24704 0.47654 0.76643 0.0
H2124 H 0.27052 0.44027 0.75981 0.0
H2125 H 0.25795 0.39983 0.83661 0.0
H2126 H 0.2389 0.3722 0.84019 0.0
H2127 H 0.22709 0.40235 0.8432 0.0
H2128 H 0.19347 0.38979 0.81355 0.0
H2129 H 0.20524 0.35972 0.81037 0.0
H2130 H 0.2014 0.37897 0.78657 0.0
H2131 H 0.28657 0.39863 0.75529 0.0
H2132 H 0.29496 0.35438 0.75391 0.0
H2133 H 0.245 0.33974 0.80583 0.0
C2134 C 0.22094 0.43708 0.80352 0.0
C2135 C 0.22509 0.45899 0.79139 0.0
C2136 C 0.24353 0.46006 0.776 0.0
C2137 C 0.25703 0.43953 0.77213 0.0
C2138 C 0.2521 0.41804 0.78391 0.0
C2139 C 0.23469 0.41669 0.79946 0.0
C2140 C 0.23213 0.39081 0.80885 0.0
C2141 C 0.23945 0.39134 0.83369 0.0
C2142 C 0.20654 0.37915 0.80457 0.0
C2143 C 0.25003 0.37764 0.79543 0.0
C2144 C 0.26157 0.39382 0.78137 0.0
C2145 C 0.27793 0.38584 0.76646 0.0
C2146 C 0.28253 0.36062 0.76577 0.0
C2147 C 0.27074 0.34355 0.77983 0.0
C2148 C 0.25451 0.35234 0.79505 0.0
H2149 H 0.38491 0.60455 0.29843 0.0
H2150 H 0.32529 0.55018 0.28721 0.0
H2151 H 0.29683 0.58311 0.29074 0.0
H2152 H 0.3558 0.64723 0.33709 0.0
H2153 H 0.36911 0.6745 0.32458 0.0
H2154 H 0.38465 0.64623 0.32505 0.0
H2155 H 0.38749 0.64754 0.28236 0.0
H2156 H 0.37184 0.67565 0.28177 0.0
H2157 H 0.3605 0.64906 0.26519 0.0
H2158 H 0.27551 0.62185 0.28911 0.0
H2159 H 0.26242 0.66454 0.28442 0.0
H2160 H 0.33539 0.69411 0.29781 0.0
C2161 C 0.36584 0.59965 0.29753 0.0
C2162 C 0.35702 0.57504 0.29297 0.0
C2163 C 0.33211 0.56907 0.29097 0.0
C2164 C 0.3159 0.58759 0.29299 0.0
C2165 C 0.32501 0.61191 0.29688 0.0
C2166 C 0.34939 0.61804 0.29925 0.0
C2167 C 0.35447 0.6459 0.30075 0.0
C2168 C 0.36673 0.65393 0.32322 0.0
C2169 C 0.36945 0.65506 0.28137 0.0
C2170 C 0.32922 0.65438 0.29862 0.0
C2171 C 0.3125 0.63448 0.29635 0.0
C2172 C 0.2883 0.63763 0.29149 0.0
C2173 C 0.28103 0.66179 0.28876 0.0
C2174 C 0.29788 0.68228 0.2913 0.0
C2175 C 0.32214 0.6786 0.29659 0.0
H2176 H 0.55897 0.6596 0.63349 0.0
H2177 H 0.48634 0.68027 0.64226 0.0
H2178 H 0.47295 0.65764 0.60742 0.0
H2179 H 0.5577 0.66677 0.5741 0.0
H2180 H 0.57568 0.64077 0.56931 0.0
H2181 H 0.5795 0.65833 0.59503 0.0
H2182 H 0.57135 0.61836 0.61754 0.0
H2183 H 0.56862 0.60068 0.59196 0.0
H2184 H 0.54465 0.59879 0.61094 0.0
H2185 H 0.46726 0.62973 0.57396 0.0
H2186 H 0.46934 0.59592 0.54606 0.0
H2187 H 0.54658 0.59913 0.55621 0.0
C2188 C 0.5402 0.65893 0.6282 0.0
C2189 C 0.5235 0.67111 0.64047 0.0
C2190 C 0.4992 0.67062 0.63297 0.0
C2191 C 0.49155 0.65815 0.61316 0.0
C2192 C 0.50864 0.64701 0.60093 0.0
C2193 C 0.53243 0.64723 0.60821 0.0
C2194 C 0.5471 0.63338 0.59232 0.0
C2195 C 0.56612 0.65087 0.58208 0.0
C2196 C 0.55858 0.61151 0.60387 0.0
C2197 C 0.5277 0.6246 0.57532 0.0
C2198 C 0.50562 0.63273 0.5805 0.0
C2199 C 0.48448 0.62377 0.56927 0.0
C2200 C 0.4858 0.60477 0.55335 0.0
C2201 C 0.50813 0.59539 0.54881 0.0
C2202 C 0.52938 0.60663 0.55879 0.0
H2203 H 0.6254 0.25524 0.87109 0.0
H2204 H 0.58081 0.28225 0.81728 0.0
H2205 H 0.61478 0.28093 0.79255 0.0
H2206 H 0.6792 0.28995 0.85874 0.0
H2207 H 0.69863 0.26564 0.86591 0.0
H2208 H 0.67049 0.26741 0.87901 0.0
H2209 H 0.65831 0.22218 0.86622 0.0
H2210 H 0.68642 0.22028 0.85302 0.0
H2211 H 0.65864 0.21376 0.83721 0.0
H2212 H 0.65394 0.27614 0.77331 0.0
H2213 H 0.69557 0.27182 0.76229 0.0
H2214 H 0.71547 0.25042 0.82909 0.0
C2215 C 0.62266 0.26076 0.85407 0.0
C2216 C 0.60019 0.26875 0.84621 0.0
C2217 C 0.59768 0.276 0.82381 0.0
C2218 C 0.61691 0.27525 0.80957 0.0
C2219 C 0.63875 0.2673 0.81788 0.0
C2220 C 0.64176 0.26034 0.83967 0.0
C2221 C 0.6673 0.25329 0.84468 0.0
C2222 C 0.67963 0.27008 0.86318 0.0
C2223 C 0.66768 0.22574 0.85064 0.0
C2224 C 0.67837 0.25799 0.82249 0.0
C2225 C 0.66146 0.26552 0.8071 0.0
C2226 C 0.66729 0.27034 0.78529 0.0
C2227 C 0.691 0.26772 0.77913 0.0
C2228 C 0.70885 0.26085 0.79479 0.0
C2229 C 0.70229 0.25585 0.81675 0.0
H2230 H 0.04525 0.29779 0.12969 0.0
H2231 H 0.06397 0.24701 0.0775 0.0
H2232 H 0.06807 0.28202 0.05189 0.0
H2233 H 0.01168 0.33894 0.09462 0.0
H2234 H 0.02275 0.36619 0.11047 0.0
H2235 H 0.0194 0.33669 0.12377 0.0
H2236 H 0.06405 0.34147 0.1374 0.0
H2237 H 0.06766 0.37071 0.12373 0.0
H2238 H 0.08688 0.34615 0.11747 0.0
H2239 H 0.07162 0.32303 0.0325 0.0
H2240 H 0.07277 0.36683 0.02063 0.0
H2241 H 0.05323 0.38986 0.08627 0.0
C2242 C 0.04969 0.2939 0.11274 0.0
C2243 C 0.05413 0.26973 0.1055 0.0
C2244 C 0.06034 0.26545 0.08332 0.0
C2245 C 0.06281 0.28519 0.06869 0.0
C2246 C 0.05904 0.30896 0.0766 0.0
C2247 C 0.05246 0.31333 0.09806 0.0
C2248 C 0.05033 0.34063 0.1028 0.0
C2249 C 0.02451 0.34591 0.10822 0.0
C2250 C 0.06831 0.35029 0.12145 0.0
C2251 C 0.05689 0.35096 0.08069 0.0
C2252 C 0.06176 0.33247 0.06572 0.0
C2253 C 0.06784 0.33768 0.04407 0.0
C2254 C 0.06849 0.36248 0.03749 0.0
C2255 C 0.06336 0.38154 0.05265 0.0
C2256 C 0.05772 0.37565 0.07451 0.0
H2257 H 0.95487 0.75904 0.35305 0.0
H2258 H 0.99074 0.80783 0.30692 0.0
H2259 H 0.95324 0.8088 0.28423 0.0
H2260 H 0.91621 0.72376 0.31193 0.0
H2261 H 0.89066 0.72166 0.32911 0.0
H2262 H 0.92051 0.72394 0.34169 0.0
H2263 H 0.91 0.76247 0.36458 0.0
H2264 H 0.88015 0.76035 0.352 0.0
H2265 H 0.89863 0.78875 0.35049 0.0
H2266 H 0.91251 0.80443 0.26602 0.0
H2267 H 0.87027 0.79602 0.25379 0.0
H2268 H 0.85859 0.7515 0.31191 0.0
C2269 C 0.95485 0.76975 0.33808 0.0
C2270 C 0.97597 0.78326 0.33176 0.0
C2271 C 0.97498 0.79729 0.31217 0.0
C2272 C 0.95369 0.79796 0.29912 0.0
C2273 C 0.93325 0.78466 0.30582 0.0
C2274 C 0.9335 0.77086 0.32485 0.0
C2275 C 0.90861 0.7588 0.32835 0.0
C2276 C 0.90903 0.73035 0.32773 0.0
C2277 C 0.89877 0.76816 0.35015 0.0
C2278 C 0.89448 0.76799 0.30831 0.0
C2279 C 0.90923 0.78273 0.29553 0.0
C2280 C 0.90077 0.79298 0.27593 0.0
C2281 C 0.87668 0.78802 0.26908 0.0
C2282 C 0.86095 0.77312 0.28182 0.0
C2283 C 0.87004 0.76311 0.30185 0.0
H2284 H 0.5393 0.35958 0.9138 0.0
H2285 H 0.53808 0.30312 0.964 0.0
H2286 H 0.53341 0.33528 0.99281 0.0
H2287 H 0.57434 0.40604 0.94774 0.0
H2288 H 0.55889 0.43178 0.9368 0.0
H2289 H 0.56131 0.40427 0.91989 0.0
H2290 H 0.51516 0.40014 0.91383 0.0
H2291 H 0.51265 0.42758 0.93082 0.0
H2292 H 0.49663 0.3989 0.93751 0.0
H2293 H 0.52816 0.37324 0.01624 0.0
H2294 H 0.52605 0.41483 0.03327 0.0
H2295 H 0.53272 0.44781 0.96862 0.0
C2296 C 0.53796 0.35401 0.93085 0.0
C2297 C 0.53893 0.3287 0.93659 0.0
C2298 C 0.53745 0.32229 0.95915 0.0
C2299 C 0.53469 0.34045 0.97566 0.0
C2300 C 0.53377 0.36514 0.96949 0.0
C2301 C 0.53567 0.37205 0.94769 0.0
C2302 C 0.5352 0.4001 0.94579 0.0
C2303 C 0.55884 0.4112 0.93704 0.0
C2304 C 0.51362 0.40708 0.93112 0.0
C2305 C 0.53251 0.40779 0.96988 0.0
C2306 C 0.53154 0.38726 0.98319 0.0
C2307 C 0.529 0.38946 0.00598 0.0
C2308 C 0.52776 0.41325 0.01552 0.0
C2309 C 0.52925 0.43475 0.00239 0.0
C2310 C 0.53151 0.43183 0.97918 0.0
H2311 H 0.99648 0.19852 0.22709 0.0
H2312 H 0.99684 0.25071 0.17325 0.0
H2313 H 0.95278 0.25081 0.17347 0.0
H2314 H 0.9415 0.16343 0.20769 0.0
H2315 H 0.93157 0.15824 0.2353 0.0
H2316 H 0.96314 0.16134 0.23044 0.0
H2317 H 0.96898 0.19735 0.25966 0.0
H2318 H 0.93762 0.19386 0.26495 0.0
H2319 H 0.9507 0.22362 0.25719 0.0
H2320 H 0.9092 0.24577 0.17981 0.0
H2321 H 0.86931 0.24079 0.19574 0.0
H2322 H 0.89748 0.19224 0.24548 0.0
C2323 C 0.98731 0.21021 0.21554 0.0
C2324 C -4e-05 0.22472 0.20025 0.0
C2325 C 0.98738 0.2395 0.18515 0.0
C2326 C 0.9624 0.23948 0.18498 0.0
C2327 C 0.95039 0.22437 0.19984 0.0
C2328 C 0.9624 0.21021 0.21499 0.0
C2329 C 0.9453 0.19636 0.22975 0.0
C2330 C 0.94539 0.16817 0.22554 0.0
C2331 C 0.95098 0.20323 0.25434 0.0
C2332 C 0.92194 0.20613 0.2214 0.0
C2333 C 0.92517 0.22157 0.20362 0.0
C2334 C 0.90636 0.23353 0.19357 0.0
C2335 C 0.88381 0.23047 0.20258 0.0
C2336 C 0.8806 0.21596 0.22158 0.0
C2337 C 0.89964 0.2031 0.23072 0.0
H2338 H 0.05132 0.70584 0.46855 0.0
H2339 H 0.02898 0.67635 0.40306 0.0
H2340 H 0.02685 0.63397 0.41767 0.0
H2341 H 0.08698 0.65652 0.48636 0.0
H2342 H 0.0771 0.65604 0.51438 0.0
H2343 H 0.07719 0.68439 0.49911 0.0
H2344 H 0.0322 0.6879 0.50581 0.0
H2345 H 0.03202 0.65968 0.5213 0.0
H2346 H 0.01119 0.66228 0.49798 0.0
H2347 H 0.02954 0.59516 0.43809 0.0
H2348 H 0.0313 0.56127 0.46415 0.0
H2349 H 0.04858 0.61432 0.51846 0.0
C2350 C 0.04585 0.69041 0.45738 0.0
C2351 C 0.04038 0.69437 0.43459 0.0
C2352 C 0.0331 0.67379 0.42053 0.0
C2353 C 0.03198 0.64963 0.42867 0.0
C2354 C 0.03769 0.6463 0.45107 0.0
C2355 C 0.04397 0.66606 0.46541 0.0
C2356 C 0.04809 0.65702 0.48898 0.0
C2357 C 0.07388 0.6639 0.49771 0.0
C2358 C 0.02978 0.66734 0.50443 0.0
C2359 C 0.04371 0.62906 0.48546 0.0
C2360 C 0.03796 0.62352 0.46334 0.0
C2361 C 0.03372 0.59926 0.45549 0.0
C2362 C 0.03487 0.58005 0.47059 0.0
C2363 C 0.03994 0.5849 0.4936 0.0
C2364 C 0.04456 0.60989 0.50109 0.0
H2365 H 0.63374 0.73463 0.67238 0.0
H2366 H 0.5982 0.76981 0.72584 0.0
H2367 H 0.6306 0.80283 0.72881 0.0
H2368 H 0.68814 0.73867 0.69607 0.0
H2369 H 0.70448 0.74461 0.67141 0.0
H2370 H 0.67538 0.72897 0.66912 0.0
H2371 H 0.66195 0.76243 0.6417 0.0
H2372 H 0.6911 0.77862 0.64478 0.0
H2373 H 0.6646 0.79471 0.65012 0.0
H2374 H 0.66841 0.82637 0.73134 0.0
H2375 H 0.71143 0.83018 0.7411 0.0
H2376 H 0.72477 0.78039 0.68674 0.0
C2377 C 0.63273 0.74959 0.68444 0.0
C2378 C 0.61372 0.74975 0.69895 0.0
C2379 C 0.61288 0.76925 0.71476 0.0
C2380 C 0.63086 0.78841 0.71615 0.0
C2381 C 0.64952 0.78778 0.7016 0.0
C2382 C 0.65079 0.76859 0.68628 0.0
C2383 C 0.67502 0.76909 0.67611 0.0
C2384 C 0.68642 0.74387 0.67837 0.0
C2385 C 0.67304 0.77667 0.65174 0.0
C2386 C 0.68818 0.78946 0.6903 0.0
C2387 C 0.67256 0.80131 0.7036 0.0
C2388 C 0.68073 0.8177 0.72075 0.0
C2389 C 0.70522 0.81982 0.72618 0.0
C2390 C 0.72097 0.80534 0.71466 0.0
C2391 C 0.71283 0.79196 0.69531 0.0
H2392 H 0.63521 0.49932 0.67635 0.0
H2393 H 0.58818 0.53378 0.72156 0.0
H2394 H 0.56045 0.54195 0.69001 0.0
H2395 H 0.62847 0.5417 0.63289 0.0
H2396 H 0.62889 0.51874 0.61087 0.0
H2397 H 0.64446 0.51404 0.63703 0.0
H2398 H 0.62062 0.47179 0.64101 0.0
H2399 H 0.60531 0.47613 0.61465 0.0
H2400 H 0.58834 0.47047 0.63893 0.0
H2401 H 0.53837 0.54713 0.65369 0.0
H2402 H 0.52212 0.54694 0.61502 0.0
H2403 H 0.58437 0.51083 0.59322 0.0
C2404 C 0.61889 0.50822 0.67972 0.0
C2405 C 0.61382 0.51584 0.70147 0.0
C2406 C 0.59241 0.5277 0.70507 0.0
C2407 C 0.5766 0.53252 0.68725 0.0
C2408 C 0.58253 0.52542 0.66597 0.0
C2409 C 0.60304 0.51335 0.66213 0.0
C2410 C 0.60542 0.50805 0.63762 0.0
C2411 C 0.62816 0.52144 0.62911 0.0
C2412 C 0.60488 0.47994 0.63277 0.0
C2413 C 0.58305 0.51912 0.62824 0.0
C2414 C 0.57008 0.52897 0.64492 0.0
C2415 C 0.54836 0.5395 0.6405 0.0
C2416 C 0.5393 0.53932 0.61853 0.0
C2417 C 0.55209 0.52896 0.60127 0.0
C2418 C 0.57447 0.5192 0.60612 0.0
H2419 H 0.7939 0.32825 0.99589 0.0
H2420 H 0.77482 0.40301 0.981 0.0
H2421 H 0.77669 0.39336 0.94087 0.0
H2422 H 0.8356 0.32208 0.95512 0.0
H2423 H 0.8272 0.28998 0.94833 0.0
H2424 H 0.82278 0.30216 0.9757 0.0
H2425 H 0.77766 0.28805 0.97197 0.0
H2426 H 0.78202 0.27542 0.94471 0.0
H2427 H 0.75981 0.29775 0.94851 0.0
H2428 H 0.78418 0.37647 0.90278 0.0
H2429 H 0.79177 0.35209 0.86903 0.0
H2430 H 0.80485 0.2881 0.90917 0.0
C2431 C 0.78976 0.34248 0.98416 0.0
C2432 C 0.78426 0.36638 0.99141 0.0
C2433 C 0.77889 0.38453 0.97567 0.0
C2434 C 0.78005 0.37926 0.95292 0.0
C2435 C 0.78623 0.35567 0.94634 0.0
C2436 C 0.79051 0.33743 0.96149 0.0
C2437 C 0.79688 0.31362 0.95021 0.0
C2438 C 0.82212 0.30656 0.95779 0.0
C2439 C 0.77796 0.29246 0.95408 0.0
C2440 C 0.79607 0.32146 0.92633 0.0
C2441 C 0.79 0.3458 0.92444 0.0
C2442 C 0.78875 0.35734 0.90404 0.0
C2443 C 0.79333 0.34345 0.88503 0.0
C2444 C 0.79896 0.31829 0.8866 0.0
C2445 C 0.80047 0.30727 0.90754 0.0
H2446 H 0.93551 0.53625 0.16812 0.0
H2447 H 0.97638 0.48953 0.21127 0.0
H2448 H 0.00653 0.48636 0.18291 0.0
H2449 H 0.94597 0.50586 0.11704 0.0
H2450 H 0.94906 0.53397 0.10152 0.0
H2451 H 0.93088 0.53286 0.12538 0.0
H2452 H 0.9558 0.57103 0.14268 0.0
H2453 H 0.97416 0.57213 0.11889 0.0
H2454 H 0.98785 0.57003 0.14629 0.0
H2455 H 0.03026 0.48506 0.14851 0.0
H2456 H 0.04725 0.4883 0.11138 0.0
H2457 H 0.9933 0.53898 0.09203 0.0
C2458 C 0.95085 0.52543 0.17158 0.0
C2459 C 0.95357 0.51307 0.19186 0.0
C2460 C 0.97399 0.49925 0.19588 0.0
C2461 C 0.99121 0.49731 0.17987 0.0
C2462 C 0.98804 0.50969 0.16005 0.0
C2463 C 0.96855 0.52376 0.15595 0.0
C2464 C 0.96954 0.53535 0.13332 0.0
C2465 C 0.94756 0.52647 0.11844 0.0
C2466 C 0.97199 0.56383 0.13543 0.0
C2467 C 0.99227 0.52509 0.12517 0.0
C2468 C 0.00261 0.51022 0.14078 0.0
C2469 C 0.02264 0.49709 0.13632 0.0
C2470 C 0.03218 0.49904 0.11524 0.0
C2471 C 0.02195 0.51434 0.0991 0.0
C2472 C 0.00197 0.52778 0.10432 0.0
H2473 H 0.82548 0.66238 0.45346 0.0
H2474 H 0.83284 0.72989 0.49393 0.0
H2475 H 0.82196 0.75417 0.46088 0.0
H2476 H 0.84108 0.68611 0.39925 0.0
H2477 H 0.81725 0.6666 0.38582 0.0
H2478 H 0.83199 0.6567 0.41091 0.0
H2479 H 0.79054 0.65109 0.42847 0.0
H2480 H 0.77575 0.66209 0.40388 0.0
H2481 H 0.77212 0.67722 0.43027 0.0
H2482 H 0.80554 0.76984 0.42313 0.0
H2483 H 0.78792 0.77515 0.38518 0.0
H2484 H 0.7844 0.69536 0.37442 0.0
C2485 C 0.82595 0.6824 0.45535 0.0
C2486 C 0.8303 0.69426 0.47621 0.0
C2487 C 0.8299 0.72046 0.47797 0.0
C2488 C 0.8235 0.73433 0.45934 0.0
C2489 C 0.81709 0.72153 0.43944 0.0
C2490 C 0.81837 0.6961 0.43749 0.0
C2491 C 0.80702 0.68577 0.41595 0.0
C2492 C 0.82544 0.67306 0.40217 0.0
C2493 C 0.78507 0.66801 0.41989 0.0
C2494 C 0.79957 0.70937 0.40564 0.0
C2495 C 0.8056 0.72995 0.41916 0.0
C2496 C 0.80073 0.7538 0.41248 0.0
C2497 C 0.7904 0.75662 0.39107 0.0
C2498 C 0.78486 0.73563 0.37691 0.0
C2499 C 0.78866 0.71177 0.38479 0.0
H2500 H 0.62809 0.55679 0.83038 0.0
H2501 H 0.62829 0.47721 0.8191 0.0
H2502 H 0.60855 0.47031 0.85455 0.0
H2503 H 0.64085 0.55505 0.89037 0.0
H2504 H 0.62225 0.58029 0.89615 0.0
H2505 H 0.63686 0.5788 0.87019 0.0
H2506 H 0.59582 0.58083 0.84898 0.0
H2507 H 0.58108 0.58212 0.87485 0.0
H2508 H 0.57185 0.55825 0.85444 0.0
H2509 H 0.58608 0.47227 0.88968 0.0
H2510 H 0.56613 0.48269 0.92403 0.0
H2511 H 0.58273 0.56102 0.9137 0.0
C2512 C 0.62411 0.53791 0.83546 0.0
C2513 C 0.62956 0.51749 0.82197 0.0
C2514 C 0.62431 0.49307 0.82923 0.0
C2515 C 0.61304 0.489 0.84928 0.0
C2516 C 0.60759 0.50956 0.86203 0.0
C2517 C 0.61333 0.53353 0.85561 0.0
C2518 C 0.60582 0.55238 0.87247 0.0
C2519 C 0.62775 0.56752 0.88292 0.0
C2520 C 0.58755 0.56939 0.86206 0.0
C2521 C 0.59439 0.53529 0.88915 0.0
C2522 C 0.5955 0.51067 0.88273 0.0
C2523 C 0.58532 0.49147 0.89496 0.0
C2524 C 0.57388 0.49757 0.91434 0.0
C2525 C 0.57286 0.52265 0.92142 0.0
C2526 C 0.58338 0.54172 0.90869 0.0
H2527 H 0.76432 0.37822 0.13843 0.0
H2528 H 0.76892 0.3196 0.08881 0.0
H2529 H 0.76263 0.28822 0.11733 0.0
H2530 H 0.79678 0.34996 0.17965 0.0
H2531 H 0.77962 0.35929 0.20258 0.0
H2532 H 0.78106 0.37812 0.17836 0.0
H2533 H 0.73501 0.3754 0.17309 0.0
H2534 H 0.73306 0.35749 0.1979 0.0
H2535 H 0.7188 0.34547 0.17224 0.0
H2536 H 0.76165 0.2634 0.15168 0.0
H2537 H 0.76395 0.24693 0.18964 0.0
H2538 H 0.75774 0.32099 0.21688 0.0
C2539 C 0.76346 0.3588 0.13347 0.0
C2540 C 0.76713 0.35144 0.11136 0.0
C2541 C 0.76623 0.32577 0.10564 0.0
C2542 C 0.76255 0.30775 0.12171 0.0
C2543 C 0.75954 0.3156 0.14342 0.0
C2544 C 0.75969 0.34049 0.14931 0.0
C2545 C 0.75788 0.34393 0.17412 0.0
C2546 C 0.78017 0.35873 0.18425 0.0
C2547 C 0.7348 0.3563 0.17965 0.0
C2548 C 0.7571 0.31715 0.18126 0.0
C2549 C 0.75812 0.30109 0.16328 0.0
C2550 C 0.76023 0.27569 0.16586 0.0
C2551 C 0.76158 0.2665 0.18742 0.0
C2552 C 0.76045 0.28264 0.20601 0.0
C2553 C 0.75779 0.30818 0.20285 0.0
H2554 H 0.95447 0.48163 0.31698 0.0
H2555 H 0.95406 0.56189 0.3154 0.0
H2556 H 0.97269 0.56464 0.35357 0.0
H2557 H 0.93873 0.47644 0.37404 0.0
H2558 H 0.95692 0.45048 0.37888 0.0
H2559 H 0.94403 0.45529 0.35157 0.0
H2560 H 0.98622 0.45553 0.33549 0.0
H2561 H 0.99928 0.45081 0.36273 0.0
H2562 H 0.00974 0.47695 0.34688 0.0
H2563 H 0.99337 0.55805 0.39105 0.0
H2564 H 0.01101 0.54296 0.42617 0.0
H2565 H 0.9949 0.46688 0.40352 0.0
C2566 C 0.95844 0.49984 0.32459 0.0
C2567 C 0.95328 0.52161 0.31325 0.0
C2568 C 0.95809 0.54504 0.32388 0.0
C2569 C 0.96866 0.54673 0.34546 0.0
C2570 C 0.97371 0.52478 0.35611 0.0
C2571 C 0.96839 0.50178 0.34611 0.0
C2572 C 0.97477 0.48091 0.36118 0.0
C2573 C 0.95227 0.46484 0.36675 0.0
C2574 C 0.99363 0.46513 0.35096 0.0
C2575 C 0.98506 0.49569 0.38119 0.0
C2576 C 0.98444 0.52097 0.37792 0.0
C2577 C 0.99377 0.53834 0.39382 0.0
C2578 C 0.00386 0.52961 0.4136 0.0
C2579 C 0.00431 0.50381 0.41731 0.0
C2580 C 0.99467 0.48667 0.40099 0.0
H2581 H 0.83518 0.66061 0.57314 0.0
H2582 H 0.76204 0.63013 0.57816 0.0
H2583 H 0.75432 0.66469 0.60403 0.0
H2584 H 0.84654 0.68052 0.62759 0.0
H2585 H 0.86358 0.70846 0.62051 0.0
H2586 H 0.86233 0.68177 0.60219 0.0
H2587 H 0.8467 0.70851 0.56998 0.0
H2588 H 0.8476 0.73528 0.58837 0.0
H2589 H 0.82013 0.72521 0.5733 0.0
H2590 H 0.75552 0.70218 0.62986 0.0
H2591 H 0.76685 0.73596 0.65726 0.0
H2592 H 0.83881 0.74143 0.63361 0.0
C2593 C 0.8175 0.66098 0.57972 0.0
C2594 C 0.79922 0.6427 0.5737 0.0
C2595 C 0.77638 0.6439 0.58272 0.0
C2596 C 0.77174 0.66363 0.5971 0.0
C2597 C 0.79005 0.68193 0.60183 0.0
C2598 C 0.81248 0.6806 0.59348 0.0
C2599 C 0.82947 0.70194 0.60144 0.0
C2600 C 0.85178 0.69261 0.61367 0.0
C2601 C 0.83638 0.71872 0.58212 0.0
C2602 C 0.81362 0.71482 0.61688 0.0
C2603 C 0.79069 0.70352 0.61635 0.0
C2604 C 0.77325 0.7114 0.63013 0.0
C2605 C 0.77976 0.73064 0.64545 0.0
C2606 C 0.8035 0.74133 0.64692 0.0
C2607 C 0.82043 0.73385 0.63217 0.0
H2608 H 0.74022 0.60749 0.52162 0.0
H2609 H 0.73754 0.64113 0.45712 0.0
H2610 H 0.69668 0.62114 0.44944 0.0
H2611 H 0.71187 0.54918 0.50287 0.0
H2612 H 0.69662 0.54406 0.52821 0.0
H2613 H 0.72486 0.56198 0.52875 0.0
H2614 H 0.70575 0.59898 0.54763 0.0
H2615 H 0.67762 0.58103 0.54761 0.0
H2616 H 0.67922 0.61106 0.535 0.0
H2617 H 0.65676 0.59645 0.44911 0.0
H2618 H 0.61951 0.5719 0.45694 0.0
H2619 H 0.65011 0.55471 0.52178 0.0
C2620 C 0.73066 0.61114 0.50615 0.0
C2621 C 0.74121 0.62628 0.49015 0.0
C2622 C 0.72906 0.62999 0.46966 0.0
C2623 C 0.70615 0.61853 0.46514 0.0
C2624 C 0.69635 0.60313 0.48116 0.0
C2625 C 0.70826 0.59949 0.50125 0.0
C2626 C 0.69439 0.58162 0.51547 0.0
C2627 C 0.70774 0.55781 0.51902 0.0
C2628 C 0.6889 0.59392 0.53773 0.0
C2629 C 0.67218 0.57659 0.50069 0.0
C2630 C 0.6738 0.5887 0.48079 0.0
C2631 C 0.65524 0.58694 0.46465 0.0
C2632 C 0.63416 0.57305 0.46929 0.0
C2633 C 0.63182 0.56144 0.49002 0.0
C2634 C 0.65136 0.56288 0.50562 0.0
H2635 H 0.19924 0.95735 0.57959 0.0
H2636 H 0.21613 0.9417 0.51153 0.0
H2637 H 0.17675 0.95578 0.49867 0.0
H2638 H 0.13658 0.93476 0.57238 0.0
H2639 H 0.12611 0.95757 0.59124 0.0
H2640 H 0.15592 0.94709 0.59512 0.0
H2641 H 0.17348 0.99253 0.59413 0.0
H2642 H 0.14375 0.00315 0.59019 0.0
H2643 H 0.16624 0.01127 0.57067 0.0
H2644 H 0.13728 0.9737 0.49312 0.0
H2645 H 0.0974 0.99011 0.49485 0.0
H2646 H 0.10334 0.99042 0.56678 0.0
C2647 C 0.19459 0.95704 0.56198 0.0
C2648 C 0.21072 0.94882 0.54643 0.0
C2649 C 0.20399 0.94806 0.5236 0.0
C2650 C 0.18173 0.95605 0.51619 0.0
C2651 C 0.16624 0.96412 0.5319 0.0
C2652 C 0.17211 0.96425 0.55435 0.0
C2653 C 0.15158 0.97269 0.56771 0.0
C2654 C 0.14198 0.95178 0.58249 0.0
C2655 C 0.15923 0.99632 0.58148 0.0
C2656 C 0.13348 0.9779 0.54921 0.0
C2657 C 0.14254 0.97301 0.52873 0.0
C2658 C 0.12987 0.97734 0.50903 0.0
C2659 C 0.10728 0.9868 0.51023 0.0
C2660 C 0.09729 0.9915 0.53095 0.0
C2661 C 0.1105 0.9868 0.55074 0.0
H2662 H 0.33486 0.95506 0.7425 0.0
H2663 H 0.40691 0.93059 0.73711 0.0
H2664 H 0.39334 0.88897 0.74888 0.0
H2665 H 0.32099 0.92253 0.79073 0.0
H2666 H 0.29029 0.91373 0.78242 0.0
H2667 H 0.30474 0.94149 0.77181 0.0
H2668 H 0.29494 0.92554 0.73146 0.0
H2669 H 0.28 0.89797 0.74198 0.0
H2670 H 0.3038 0.89533 0.72308 0.0
H2671 H 0.37319 0.85091 0.76321 0.0
H2672 H 0.34609 0.8168 0.77576 0.0
H2673 H 0.2869 0.86516 0.7725 0.0
C2674 C 0.34761 0.94077 0.74332 0.0
C2675 C 0.37197 0.94614 0.73894 0.0
C2676 C 0.38818 0.927 0.74049 0.0
C2677 C 0.38069 0.90326 0.7472 0.0
C2678 C 0.35686 0.89881 0.75225 0.0
C2679 C 0.3404 0.9168 0.75007 0.0
C2680 C 0.31591 0.90695 0.75694 0.0
C2681 C 0.3075 0.92208 0.77665 0.0
C2682 C 0.29758 0.90642 0.73719 0.0
C2683 C 0.3214 0.88089 0.76369 0.0
C2684 C 0.34514 0.87664 0.76077 0.0
C2685 C 0.35452 0.85394 0.76551 0.0
C2686 C 0.33903 0.83473 0.77276 0.0
C2687 C 0.31446 0.83839 0.7753 0.0
C2688 C 0.30569 0.86195 0.7711 0.0
H2689 H 0.36221 0.05573 0.06333 0.0
H2690 H 0.33373 0.04144 0.99632 0.0
H2691 H 0.37021 0.02021 0.98744 0.0
H2692 H 0.416 0.07594 0.04784 0.0
H2693 H 0.4337 0.06439 0.07059 0.0
H2694 H 0.40302 0.07085 0.07431 0.0
H2695 H 0.39319 0.02586 0.08671 0.0
H2696 H 0.42412 0.01937 0.0838 0.0
H2697 H 0.40073 0.00014 0.06943 0.0
H2698 H 0.41179 0.00845 0.98398 0.0
H2699 H 0.45538 0.0056 0.98581 0.0
H2700 H 0.45854 0.03132 0.05455 0.0
C2701 C 0.36311 0.04658 0.04728 0.0
C2702 C 0.34499 0.04898 0.03073 0.0
C2703 C 0.34716 0.03867 0.00934 0.0
C2704 C 0.36785 0.0268 0.00419 0.0
C2705 C 0.38616 0.02601 0.02057 0.0
C2706 C 0.38394 0.03551 0.04176 0.0
C2707 C 0.40762 0.0367 0.05498 0.0
C2708 C 0.41553 0.06356 0.06234 0.0
C2709 C 0.40633 0.01948 0.07491 0.0
C2710 C 0.42369 0.02711 0.03774 0.0
C2711 C 0.41084 0.02064 0.01818 0.0
C2712 C 0.42194 0.01293 -0.00066 0.0
C2713 C 0.44677 0.01153 0.00057 0.0
C2714 C 0.46035 0.01814 0.02042 0.0
C2715 C 0.44861 0.02599 0.03924 0.0
H2716 H 0.69888 0.59843 0.7744 0.0
H2717 H 0.72995 0.56765 0.71606 0.0
H2718 H 0.74857 0.60903 0.7082 0.0
H2719 H 0.68363 0.65435 0.75134 0.0
H2720 H 0.69092 0.6731 0.776 0.0
H2721 H 0.68182 0.64073 0.77829 0.0
H2722 H 0.72093 0.6334 0.80115 0.0
H2723 H 0.72994 0.66587 0.79933 0.0
H2724 H 0.74943 0.64276 0.79014 0.0
H2725 H 0.76117 0.65459 0.70522 0.0
H2726 H 0.77 0.69989 0.70941 0.0
H2727 H 0.73024 0.70025 0.76959 0.0
C2728 C 0.70995 0.60023 0.76018 0.0
C2729 C 0.71293 0.57979 0.74584 0.0
C2730 C 0.72751 0.58301 0.72737 0.0
C2731 C 0.73806 0.60646 0.72269 0.0
C2732 C 0.73401 0.62639 0.73676 0.0
C2733 C 0.72062 0.62341 0.75532 0.0
C2734 C 0.71846 0.64783 0.76751 0.0
C2735 C 0.69214 0.65438 0.76832 0.0
C2736 C 0.73041 0.64743 0.79092 0.0
C2737 C 0.73237 0.66514 0.75271 0.0
C2738 C 0.74123 0.65247 0.73506 0.0
C2739 C 0.75448 0.66467 0.71908 0.0
C2740 C 0.75928 0.69042 0.72154 0.0
C2741 C 0.75081 0.70362 0.73984 0.0
C2742 C 0.73692 0.69075 0.75539 0.0
H2743 H 0.87366 0.41218 0.06633 0.0
H2744 H 0.83218 0.47469 0.04846 0.0
H2745 H 0.8687 0.49705 0.03574 0.0
H2746 H 0.92708 0.45101 0.08681 0.0
H2747 H 0.94749 0.42898 0.07728 0.0
H2748 H 0.91813 0.41835 0.08552 0.0
H2749 H 0.91011 0.39625 0.04719 0.0
H2750 H 0.93923 0.40728 0.03868 0.0
H2751 H 0.9128 0.41399 0.02233 0.0
H2752 H 0.90883 0.51151 0.02294 0.0
H2753 H 0.95145 0.51999 0.01558 0.0
H2754 H 0.96769 0.44882 0.04294 0.0
C2755 C 0.87238 0.43071 0.06001 0.0
C2756 C 0.85013 0.44175 0.05835 0.0
C2757 C 0.8491 0.46603 0.05008 0.0
C2758 C 0.86969 0.47877 0.04265 0.0
C2759 C 0.89123 0.46715 0.04399 0.0
C2760 C 0.89289 0.44394 0.05296 0.0
C2761 C 0.91845 0.43606 0.05317 0.0
C2762 C 0.92837 0.43345 0.07711 0.0
C2763 C 0.92024 0.41197 0.03952 0.0
C2764 C 0.93072 0.4581 0.04216 0.0
C2765 C 0.91463 0.47578 0.03703 0.0
C2766 C 0.92163 0.49789 0.02702 0.0
C2767 C 0.94587 0.50248 0.02282 0.0
C2768 C 0.96289 0.48505 0.02862 0.0
C2769 C 0.95507 0.46234 0.03803 0.0
H2770 H 0.34178 0.09484 0.71222 0.0
H2771 H 0.35038 0.07024 0.77984 0.0
H2772 H 0.32935 0.10644 0.79301 0.0
H2773 H 0.35477 0.1589 0.72566 0.0
H2774 H 0.33403 0.16986 0.70495 0.0
H2775 H 0.34737 0.14074 0.70067 0.0
H2776 H 0.30515 0.11852 0.69508 0.0
H2777 H 0.29166 0.14758 0.69945 0.0
H2778 H 0.28371 0.12137 0.71627 0.0
H2779 H 0.30736 0.145 0.79866 0.0
H2780 H 0.29111 0.18637 0.79753 0.0
H2781 H 0.3004 0.18843 0.72658 0.0
C2782 C 0.33891 0.09696 0.72976 0.0
C2783 C 0.34731 0.07966 0.74506 0.0
C2784 C 0.34391 0.08329 0.76792 0.0
C2785 C 0.3319 0.10368 0.77549 0.0
C2786 C 0.32385 0.12047 0.75999 0.0
C2787 C 0.32757 0.1176 0.73765 0.0
C2788 C 0.31913 0.13952 0.72474 0.0
C2789 C 0.34007 0.15305 0.71334 0.0
C2790 C 0.29869 0.13125 0.70789 0.0
C2791 C 0.3102 0.15527 0.74334 0.0
C2792 C 0.31259 0.14362 0.76344 0.0
C2793 C 0.30546 0.15433 0.78304 0.0
C2794 C 0.29613 0.1778 0.78218 0.0
C2795 C 0.29448 0.19064 0.76196 0.0
C2796 C 0.30143 0.17906 0.74226 0.0
H2797 H 0.20628 0.92852 0.2755 0.0
H2798 H 0.21806 0.93674 0.20528 0.0
H2799 H 0.24019 0.89886 0.20527 0.0
H2800 H 0.26371 0.90652 0.29049 0.0
H2801 H 0.25261 0.88431 0.31008 0.0
H2802 H 0.23692 0.91193 0.30492 0.0
H2803 H 0.19784 0.88515 0.2947 0.0
H2804 H 0.21333 0.85748 0.30015 0.0
H2805 H 0.19808 0.86107 0.27363 0.0
H2806 H 0.26077 0.86084 0.21223 0.0
H2807 H 0.27738 0.82241 0.22573 0.0
H2808 H 0.25371 0.83852 0.29169 0.0
C2809 C 0.21338 0.92221 0.26013 0.0
C2810 C 0.21056 0.93561 0.24042 0.0
C2811 C 0.22013 0.92684 0.22061 0.0
C2812 C 0.23276 0.90536 0.22041 0.0
C2813 C 0.2357 0.89289 0.24015 0.0
C2814 C 0.22619 0.90074 0.25962 0.0
C2815 C 0.23197 0.88356 0.27842 0.0
C2816 C 0.24721 0.89741 0.29708 0.0
C2817 C 0.20894 0.87108 0.28724 0.0
C2818 C 0.2463 0.865 0.26639 0.0
C2819 C 0.24814 0.87082 0.24432 0.0
C2820 C 0.25962 0.85609 0.2295 0.0
C2821 C 0.26903 0.83439 0.23731 0.0
C2822 C 0.26701 0.82779 0.25974 0.0
C2823 C 0.25592 0.84351 0.27458 0.0
H2824 H 0.54608 0.36343 0.45847 0.0
H2825 H 0.49957 0.32053 0.50091 0.0
H2826 H 0.5103 0.3499 0.53174 0.0
H2827 H 0.59096 0.39067 0.50684 0.0
H2828 H 0.59343 0.41964 0.49252 0.0
H2829 H 0.59034 0.39068 0.47697 0.0
H2830 H 0.55361 0.40629 0.45509 0.0
H2831 H 0.55638 0.43491 0.47058 0.0
H2832 H 0.52855 0.41622 0.47006 0.0
H2833 H 0.51313 0.3892 0.55191 0.0
H2834 H 0.51066 0.43373 0.56054 0.0
H2835 H 0.55706 0.45184 0.50681 0.0
C2836 C 0.53914 0.35963 0.4746 0.0
C2837 C 0.52183 0.34002 0.47729 0.0
C2838 C 0.51279 0.33561 0.49846 0.0
C2839 C 0.51898 0.35209 0.51617 0.0
C2840 C 0.53454 0.37259 0.51254 0.0
C2841 C 0.54512 0.37606 0.4924 0.0
C2842 C 0.55726 0.40179 0.49122 0.0
C2843 C 0.58462 0.40061 0.49194 0.0
C2844 C 0.54837 0.41558 0.47055 0.0
C2845 C 0.54907 0.41318 0.51243 0.0
C2846 C 0.53681 0.39581 0.52496 0.0
C2847 C 0.52354 0.40281 0.54283 0.0
C2848 C 0.52199 0.42814 0.54748 0.0
C2849 C 0.5337 0.44603 0.5343 0.0
C2850 C 0.54835 0.43841 0.51738 0.0
H2851 H 0.43999 0.75651 0.18218 0.0
H2852 H 0.48719 0.75848 0.24106 0.0
H2853 H 0.45246 0.76266 0.26449 0.0
H2854 H 0.39662 0.7989 0.20156 0.0
H2855 H 0.37096 0.78102 0.18938 0.0
H2856 H 0.39959 0.7801 0.17695 0.0
H2857 H 0.3974 0.73224 0.1797 0.0
H2858 H 0.36877 0.73306 0.19211 0.0
H2859 H 0.39293 0.71827 0.2062 0.0
H2860 H 0.41276 0.76716 0.28171 0.0
H2861 H 0.37057 0.76748 0.29186 0.0
H2862 H 0.3477 0.75876 0.22241 0.0
C2863 C 0.44296 0.75817 0.19999 0.0
C2864 C 0.46642 0.7576 0.20981 0.0
C2865 C 0.46948 0.75908 0.23319 0.0
C2866 C 0.44984 0.7615 0.24664 0.0
C2867 C 0.42697 0.76185 0.23656 0.0
C2868 C 0.42333 0.75986 0.21378 0.0
C2869 C 0.39662 0.75895 0.20741 0.0
C2870 C 0.3906 0.78106 0.19297 0.0
C2871 C 0.38846 0.73415 0.19566 0.0
C2872 C 0.38592 0.76099 0.23011 0.0
C2873 C 0.40383 0.76297 0.24663 0.0
C2874 C 0.39859 0.76549 0.2689 0.0
C2875 C 0.3745 0.76575 0.27451 0.0
C2876 C 0.35565 0.76311 0.25803 0.0
C2877 C 0.3616 0.76073 0.23547 0.0
H2878 H 0.02078 0.74343 0.97102 0.0
H2879 H 0.94819 0.73323 0.9431 0.0
H2880 H 0.94133 0.69593 0.96577 0.0
H2881 H 0.03158 0.68087 0.96667 0.0
H2882 H 0.05091 0.68054 0.9913 0.0
H2883 H 0.04843 0.70879 0.97635 0.0
H2884 H 0.03632 0.73107 0.01221 0.0
H2885 H 0.03849 0.7027 0.02724 0.0
H2886 H 0.01108 0.71859 0.02689 0.0
H2887 H 0.94339 0.65857 0.98885 0.0
H2888 H 0.95573 0.6201 0.00616 0.0
H2889 H 0.02819 0.65288 0.01633 0.0
C2890 C 0.00327 0.73364 0.97025 0.0
C2891 C 0.98478 0.74118 0.95588 0.0
C2892 C 0.96238 0.72762 0.95434 0.0
C2893 C 0.95831 0.70665 0.96725 0.0
C2894 C 0.97699 0.69948 0.98123 0.0
C2895 C 0.99917 0.71231 0.98251 0.0
C2896 C 0.01733 0.69858 0.99593 0.0
C2897 C 0.03828 0.69179 0.98171 0.0
C2898 C 0.02633 0.71364 0.01681 0.0
C2899 C 0.00199 0.67582 0.00174 0.0
C2900 C 0.97864 0.67702 0.99357 0.0
C2901 C 0.96155 0.65746 0.99548 0.0
C2902 C 0.96875 0.63569 0.00523 0.0
C2903 C 0.99292 0.63356 0.01247 0.0
C2904 C 0.00949 0.65419 0.01138 0.0
H2905 H 0.09355 0.24931 0.71331 0.0
H2906 H 0.11055 0.29507 0.65704 0.0
H2907 H 0.15294 0.29821 0.66967 0.0
H2908 H 0.13658 0.28153 0.75333 0.0
H2909 H 0.14456 0.25347 0.76675 0.0
H2910 H 0.11509 0.25531 0.7539 0.0
H2911 H 0.12132 0.21604 0.73012 0.0
H2912 H 0.15089 0.21421 0.74276 0.0
H2913 H 0.14691 0.2155 0.71304 0.0
H2914 H 0.19376 0.29461 0.68647 0.0
H2915 H 0.23055 0.28755 0.70848 0.0
H2916 H 0.18883 0.24535 0.75546 0.0
C2917 C 0.10614 0.2603 0.70385 0.0
C2918 C 0.09847 0.27194 0.68407 0.0
C2919 C 0.11574 0.28588 0.67212 0.0
C2920 C 0.13998 0.28778 0.67917 0.0
C2921 C 0.14701 0.27571 0.69832 0.0
C2922 C 0.13067 0.26243 0.71069 0.0
C2923 C 0.14342 0.25099 0.7305 0.0
C2924 C 0.13437 0.26093 0.75242 0.0
C2925 C 0.14045 0.22249 0.72901 0.0
C2926 C 0.16934 0.26013 0.72735 0.0
C2927 C 0.17087 0.2741 0.70847 0.0
C2928 C 0.19276 0.28388 0.7014 0.0
C2929 C 0.21365 0.27962 0.71402 0.0
C2930 C 0.21278 0.26593 0.73382 0.0
C2931 C 0.19018 0.25602 0.74052 0.0
H2932 H 0.53019 0.70002 0.08903 0.0
H2933 H 0.52245 0.67205 0.15555 0.0
H2934 H 0.52634 0.62973 0.14154 0.0
H2935 H 0.49559 0.64694 0.06112 0.0
H2936 H 0.51418 0.64654 0.0375 0.0
H2937 H 0.51071 0.67529 0.05235 0.0
H2938 H 0.55674 0.68154 0.05824 0.0
H2939 H 0.56033 0.65268 0.04362 0.0
H2940 H 0.5731 0.65766 0.07138 0.0
H2941 H 0.53349 0.59123 0.12205 0.0
H2942 H 0.538 0.55623 0.09685 0.0
H2943 H 0.53873 0.60582 0.04088 0.0
C2944 C 0.52909 0.68494 0.10057 0.0
C2945 C 0.52605 0.68965 0.12354 0.0
C2946 C 0.52467 0.66925 0.13798 0.0
C2947 C 0.52701 0.645 0.13018 0.0
C2948 C 0.5304 0.64106 0.10774 0.0
C2949 C 0.53098 0.66022 0.09294 0.0
C2950 C 0.53415 0.65011 0.06949 0.0
C2951 C 0.51236 0.65502 0.05421 0.0
C2952 C 0.55747 0.66116 0.06013 0.0
C2953 C 0.53554 0.6224 0.07365 0.0
C2954 C 0.53356 0.61797 0.09597 0.0
C2955 C 0.53475 0.59437 0.10448 0.0
C2956 C 0.53735 0.57452 0.08984 0.0
C2957 C 0.53849 0.57793 0.06662 0.0
C2958 C 0.53791 0.60244 0.05845 0.0
H2959 H 0.06293 0.77691 0.86042 0.0
H2960 H 0.06939 0.8362 0.91016 0.0
H2961 H 0.10909 0.84995 0.89658 0.0
H2962 H 0.12655 0.76335 0.86316 0.0
H2963 H 0.12619 0.75636 0.83384 0.0
H2964 H 0.09943 0.75069 0.84892 0.0
H2965 H 0.07663 0.77797 0.82123 0.0
H2966 H 0.10347 0.78426 0.80645 0.0
H2967 H 0.08763 0.8096 0.81728 0.0
H2968 H 0.14656 0.85916 0.8748 0.0
H2969 H 0.18057 0.8598 0.8498 0.0
H2970 H 0.14883 0.79307 0.81624 0.0
C2971 C 0.07293 0.79248 0.86872 0.0
C2972 C 0.06331 0.80551 0.88626 0.0
C2973 C 0.07675 0.82583 0.8968 0.0
C2974 C 0.09915 0.83387 0.8891 0.0
C2975 C 0.10779 0.82107 0.87117 0.0
C2976 C 0.09528 0.80047 0.86149 0.0
C2977 C 0.10818 0.78993 0.84244 0.0
C2978 C 0.11553 0.76353 0.8474 0.0
C2979 C 0.09307 0.79049 0.82056 0.0
C2980 C 0.12963 0.80818 0.84249 0.0
C2981 C 0.12921 0.82607 0.85908 0.0
C2982 C 0.14719 0.84506 0.86189 0.0
C2983 C 0.16637 0.84531 0.84763 0.0
C2984 C 0.16726 0.82667 0.83089 0.0
C2985 C 0.14849 0.80805 0.82839 0.0
H2986 H 0.03845 0.33022 0.58022 0.0
H2987 H 0.0014 0.34382 0.64048 0.0
H2988 H 0.99546 0.38674 0.62885 0.0
H2989 H 0.06917 0.38939 0.57748 0.0
H2990 H 0.06587 0.39149 0.54777 0.0
H2991 H 0.06644 0.36155 0.56035 0.0
H2992 H 0.02552 0.34815 0.54067 0.0
H2993 H 0.02488 0.37804 0.52794 0.0
H2994 H 0.00035 0.36692 0.54419 0.0
H2995 H 0.99666 0.4295 0.61206 0.0
H2996 H 0.00187 0.46743 0.59003 0.0
H2997 H 0.03587 0.42554 0.53951 0.0
C2998 C 0.02884 0.34213 0.59086 0.0
C2999 C 0.02039 0.33355 0.61131 0.0
C3000 C 0.00793 0.34982 0.62471 0.0
C3001 C 0.00454 0.37431 0.61827 0.0
C3002 C 0.01338 0.38226 0.59818 0.0
C3003 C 0.02498 0.36654 0.58451 0.0
C3004 C 0.0328 0.37974 0.56378 0.0
C3005 C 0.0602 0.38059 0.56227 0.0
C3006 C 0.02013 0.36748 0.54291 0.0
C3007 C 0.02418 0.40544 0.56808 0.0
C3008 C 0.01315 0.40655 0.58809 0.0
C3009 C 0.00494 0.42869 0.59622 0.0
C3010 C 0.00804 0.45019 0.5836 0.0
C3011 C 0.019 0.44944 0.56289 0.0
C3012 C 0.02701 0.42664 0.55505 0.0
H3013 H 0.41427 0.30676 0.40633 0.0
H3014 H 0.44613 0.36512 0.3668 0.0
H3015 H 0.41689 0.35386 0.33626 0.0
H3016 H 0.41085 0.26402 0.37054 0.0
H3017 H 0.38212 0.24839 0.37494 0.0
H3018 H 0.39762 0.26609 0.39718 0.0
H3019 H 0.36199 0.29369 0.40195 0.0
H3020 H 0.3454 0.27501 0.38076 0.0
H3021 H 0.34885 0.30822 0.37812 0.0
H3022 H 0.39774 0.32648 0.30693 0.0
H3023 H 0.37616 0.29446 0.283 0.0
H3024 H 0.35441 0.25427 0.34112 0.0
C3025 C 0.41393 0.31836 0.39191 0.0
C3026 C 0.43279 0.33631 0.3886 0.0
C3027 C 0.43196 0.35106 0.36949 0.0
C3028 C 0.41553 0.34463 0.35194 0.0
C3029 C 0.39958 0.32415 0.35433 0.0
C3030 C 0.39756 0.31209 0.37425 0.0
C3031 C 0.38113 0.28871 0.37151 0.0
C3032 C 0.39371 0.26546 0.37898 0.0
C3033 C 0.35796 0.29159 0.38381 0.0
C3034 C 0.37631 0.28828 0.34668 0.0
C3035 C 0.38712 0.30888 0.33714 0.0
C3036 C 0.38819 0.31088 0.31426 0.0
C3037 C 0.3764 0.29223 0.3008 0.0
C3038 C 0.36362 0.2719 0.31027 0.0
C3039 C 0.36393 0.26972 0.3335 0.0
H3040 H 0.46944 0.52661 0.3657 0.0
H3041 H 0.40155 0.48578 0.37418 0.0
H3042 H 0.40984 0.48594 0.41478 0.0
H3043 H 0.50312 0.49606 0.40565 0.0
H3044 H 0.52098 0.52309 0.41596 0.0
H3045 H 0.50888 0.52198 0.38783 0.0
H3046 H 0.48812 0.56286 0.39475 0.0
H3047 H 0.5004 0.56422 0.42286 0.0
H3048 H 0.46854 0.56506 0.41754 0.0
H3049 H 0.4265 0.48798 0.45362 0.0
H3050 H 0.44994 0.4928 0.48904 0.0
H3051 H 0.50753 0.53233 0.45576 0.0
C3052 C 0.45619 0.51826 0.37628 0.0
C3053 C 0.43473 0.50649 0.36718 0.0
C3054 C 0.41789 0.49519 0.38115 0.0
C3055 C 0.42248 0.49516 0.40412 0.0
C3056 C 0.44395 0.50662 0.41271 0.0
C3057 C 0.46046 0.5182 0.39931 0.0
C3058 C 0.48251 0.52832 0.4128 0.0
C3059 C 0.50521 0.51665 0.4051 0.0
C3060 C 0.48503 0.5568 0.41193 0.0
C3061 C 0.47616 0.51982 0.4357 0.0
C3062 C 0.45372 0.50761 0.43527 0.0
C3063 C 0.44401 0.49771 0.45424 0.0
C3064 C 0.4575 0.50051 0.47427 0.0
C3065 C 0.48058 0.51296 0.47518 0.0
C3066 C 0.48999 0.52269 0.45558 0.0
H3067 H 0.30642 0.67323 0.06916 0.0
H3068 H 0.23328 0.67336 0.04236 0.0
H3069 H 0.22074 0.69096 0.07768 0.0
H3070 H 0.29433 0.65645 0.12301 0.0
H3071 H 0.31715 0.67703 0.13669 0.0
H3072 H 0.32093 0.66601 0.10883 0.0
H3073 H 0.32653 0.7113 0.09556 0.0
H3074 H 0.32311 0.72245 0.1235 0.0
H3075 H 0.30406 0.73284 0.10117 0.0
H3076 H 0.21527 0.70357 0.11747 0.0
H3077 H 0.21857 0.71645 0.1572 0.0
H3078 H 0.29552 0.71134 0.15714 0.0
C3079 C 0.28789 0.67747 0.07062 0.0
C3080 C 0.27084 0.67198 0.05303 0.0
C3081 C 0.24671 0.6777 0.05554 0.0
C3082 C 0.23937 0.68755 0.07559 0.0
C3083 C 0.25647 0.69218 0.09282 0.0
C3084 C 0.28035 0.68798 0.09035 0.0
C3085 C 0.29512 0.69475 0.11145 0.0
C3086 C 0.30761 0.67221 0.12052 0.0
C3087 C 0.31328 0.71664 0.10769 0.0
C3088 C 0.27568 0.70239 0.12639 0.0
C3089 C 0.25348 0.70069 0.11538 0.0
C3090 C 0.23262 0.70544 0.12616 0.0
C3091 C 0.23461 0.71255 0.1487 0.0
C3092 C 0.25728 0.7151 0.16004 0.0
C3093 C 0.278 0.70989 0.1487 0.0
H3094 H 0.11583 0.48737 0.87714 0.0
H3095 H 0.07239 0.54297 0.84737 0.0
H3096 H 0.04762 0.54263 0.87992 0.0
H3097 H 0.06575 0.45315 0.9044 0.0
H3098 H 0.08398 0.44705 0.92879 0.0
H3099 H 0.0974 0.44973 0.90226 0.0
H3100 H 0.12773 0.48424 0.91854 0.0
H3101 H 0.11445 0.48157 0.94507 0.0
H3102 H 0.11676 0.51122 0.93185 0.0
H3103 H 0.02985 0.53966 0.91636 0.0
H3104 H 0.01976 0.53391 0.95525 0.0
H3105 H 0.07327 0.47938 0.96233 0.0
C3106 C 0.10084 0.49912 0.87734 0.0
C3107 C 0.09604 0.51512 0.85958 0.0
C3108 C 0.07644 0.53047 0.86064 0.0
C3109 C 0.06217 0.53039 0.87907 0.0
C3110 C 0.0675 0.5147 0.89636 0.0
C3111 C 0.08624 0.49922 0.89571 0.0
C3112 C 0.0886 0.48513 0.91719 0.0
C3113 C 0.08364 0.4571 0.9129 0.0
C3114 C 0.11335 0.4909 0.92884 0.0
C3115 C 0.06883 0.49583 0.93017 0.0
C3116 C 0.05679 0.51266 0.91764 0.0
C3117 C 0.03885 0.52623 0.92624 0.0
C3118 C 0.03327 0.52285 0.94837 0.0
C3119 C 0.04552 0.506 0.96172 0.0
C3120 C 0.06324 0.49196 0.95235 0.0
H3121 H 0.24041 0.34225 0.57634 0.0
H3122 H 0.29364 0.4036 0.5719 0.0
H3123 H 0.31181 0.39278 0.60813 0.0
H3124 H 0.23582 0.34678 0.63876 0.0
H3125 H 0.23175 0.3135 0.64034 0.0
H3126 H 0.22071 0.32901 0.61616 0.0
H3127 H 0.24487 0.30063 0.59166 0.0
H3128 H 0.25674 0.28567 0.61571 0.0
H3129 H 0.27683 0.30016 0.59658 0.0
H3130 H 0.32899 0.36985 0.64017 0.0
H3131 H 0.33921 0.3417 0.67033 0.0
H3132 H 0.27251 0.2978 0.65532 0.0
C3133 C 0.25537 0.3539 0.5834 0.0
C3134 C 0.26576 0.3736 0.57143 0.0
C3135 C 0.28537 0.38848 0.58098 0.0
C3136 C 0.29588 0.38241 0.60146 0.0
C3137 C 0.28611 0.36186 0.61225 0.0
C3138 C 0.26578 0.34837 0.60394 0.0
C3139 C 0.25961 0.32633 0.61811 0.0
C3140 C 0.23555 0.32909 0.629 0.0
C3141 C 0.25952 0.30176 0.60471 0.0
C3142 C 0.28034 0.32885 0.635 0.0
C3143 C 0.29546 0.34937 0.63135 0.0
C3144 C 0.31687 0.35418 0.6437 0.0
C3145 C 0.32253 0.33802 0.66077 0.0
C3146 C 0.30665 0.3175 0.6655 0.0
C3147 C 0.28538 0.31294 0.65218 0.0
H3148 H 0.43454 0.52187 0.22066 0.0
H3149 H 0.48728 0.4943 0.2673 0.0
H3150 H 0.51193 0.48296 0.23606 0.0
H3151 H 0.43651 0.47391 0.18165 0.0
H3152 H 0.4327 0.49296 0.15772 0.0
H3153 H 0.42067 0.5019 0.18364 0.0
H3154 H 0.44438 0.54465 0.18304 0.0
H3155 H 0.45602 0.53609 0.15682 0.0
H3156 H 0.47628 0.54588 0.17976 0.0
H3157 H 0.52959 0.47254 0.19933 0.0
H3158 H 0.53951 0.4655 0.16018 0.0
H3159 H 0.47372 0.49773 0.13832 0.0
C3160 C 0.45159 0.51411 0.22442 0.0
C3161 C 0.45911 0.5092 0.24644 0.0
C3162 C 0.48128 0.49841 0.25055 0.0
C3163 C 0.49533 0.49183 0.23293 0.0
C3164 C 0.48686 0.49602 0.21136 0.0
C3165 C 0.46558 0.50709 0.20709 0.0
C3166 C 0.45966 0.50825 0.18248 0.0
C3167 C 0.43599 0.49337 0.17601 0.0
C3168 C 0.45907 0.53533 0.17509 0.0
C3169 C 0.48082 0.49589 0.17352 0.0
C3170 C 0.49644 0.48912 0.19038 0.0
C3171 C 0.51748 0.47775 0.18601 0.0
C3172 C 0.52291 0.47372 0.16381 0.0
C3173 C 0.50717 0.48074 0.14637 0.0
C3174 C 0.48576 0.49166 0.15137 0.0
H3175 H 0.28551 0.65717 0.91184 0.0
H3176 H 0.26236 0.71289 0.9575 0.0
H3177 H 0.2669 0.74465 0.92892 0.0
H3178 H 0.32827 0.69722 0.88189 0.0
H3179 H 0.31958 0.68331 0.85515 0.0
H3180 H 0.3172 0.66515 0.8798 0.0
H3181 H 0.27222 0.65443 0.86984 0.0
H3182 H 0.27455 0.67239 0.84513 0.0
H3183 H 0.25259 0.67921 0.86496 0.0
H3184 H 0.27162 0.76978 0.89566 0.0
H3185 H 0.2728 0.78658 0.8581 0.0
H3186 H 0.29134 0.71494 0.83238 0.0
C3187 C 0.28185 0.67618 0.9158 0.0
C3188 C 0.27392 0.68281 0.9369 0.0
C3189 C 0.26857 0.7076 0.94143 0.0
C3190 C 0.27122 0.72576 0.92537 0.0
C3191 C 0.27889 0.71875 0.90468 0.0
C3192 C 0.28384 0.69454 0.89965 0.0
C3193 C 0.28948 0.69174 0.87536 0.0
C3194 C 0.31517 0.68389 0.87292 0.0
C3195 C 0.27112 0.67336 0.86311 0.0
C3196 C 0.28685 0.71811 0.86764 0.0
C3197 C 0.281 0.73335 0.88497 0.0
C3198 C 0.27639 0.75813 0.88197 0.0
C3199 C 0.27713 0.76751 0.86056 0.0
C3200 C 0.28239 0.75216 0.84235 0.0
C3201 C 0.28782 0.72726 0.84605 0.0
H3202 H 0.09381 0.53048 0.74815 0.0
H3203 H 0.15164 0.48785 0.72531 0.0
H3204 H 0.13672 0.49214 0.68669 0.0
H3205 H 0.04778 0.50695 0.70574 0.0
H3206 H 0.03523 0.53677 0.70309 0.0
H3207 H 0.04904 0.52829 0.72914 0.0
H3208 H 0.07717 0.56817 0.72889 0.0
H3209 H 0.06377 0.57659 0.70267 0.0
H3210 H 0.09566 0.57377 0.70558 0.0
H3211 H 0.11865 0.5045 0.65081 0.0
H3212 H 0.09553 0.52064 0.61915 0.0
H3213 H 0.04831 0.55458 0.66432 0.0
C3214 C 0.10291 0.52144 0.73506 0.0
C3215 C 0.12385 0.50871 0.73977 0.0
C3216 C 0.13557 0.49765 0.72212 0.0
C3217 C 0.12726 0.50002 0.70012 0.0
C3218 C 0.10716 0.51346 0.69599 0.0
C3219 C 0.09488 0.52371 0.7129 0.0
C3220 C 0.0744 0.53823 0.7037 0.0
C3221 C 0.05017 0.52687 0.71084 0.0
C3222 C 0.07797 0.56582 0.71063 0.0
C3223 C 0.0772 0.53458 0.67898 0.0
C3224 C 0.09638 0.52039 0.67502 0.0
C3225 C 0.10344 0.5154 0.65367 0.0
C3226 C 0.09035 0.52482 0.63583 0.0
C3227 C 0.0703 0.53892 0.63937 0.0
C3228 C 0.06357 0.54381 0.66123 0.0
H3229 H 0.25828 0.28604 0.46373 0.0
H3230 H 0.2004 0.33463 0.45226 0.0
H3231 H 0.18777 0.3108 0.41798 0.0
H3232 H 0.27651 0.28797 0.41285 0.0
H3233 H 0.2856 0.25657 0.41076 0.0
H3234 H 0.2849 0.2715 0.43741 0.0
H3235 H 0.25641 0.23555 0.45059 0.0
H3236 H 0.257 0.22048 0.42373 0.0
H3237 H 0.22879 0.22728 0.43502 0.0
H3238 H 0.18694 0.28809 0.38168 0.0
H3239 H 0.19991 0.27161 0.3461 0.0
H3240 H 0.26039 0.24062 0.38069 0.0
C3241 C 0.24228 0.29096 0.45453 0.0
C3242 C 0.23017 0.31196 0.46066 0.0
C3243 C 0.20981 0.31842 0.44787 0.0
C3244 C 0.20241 0.30487 0.42848 0.0
C3245 C 0.21556 0.28495 0.4222 0.0
C3246 C 0.23508 0.278 0.43496 0.0
C3247 C 0.24929 0.25968 0.42267 0.0
C3248 C 0.27559 0.26954 0.4208 0.0
C3249 C 0.24777 0.23424 0.43366 0.0
C3250 C 0.23575 0.25873 0.40048 0.0
C3251 C 0.2158 0.27259 0.40073 0.0
C3252 C 0.20225 0.27681 0.3814 0.0
C3253 C 0.20992 0.26759 0.3612 0.0
C3254 C 0.23131 0.25491 0.36047 0.0
C3255 C 0.24362 0.24956 0.38055 0.0
H3256 H 0.34263 0.38973 0.49746 0.0
H3257 H 0.28511 0.43883 0.50673 0.0
H3258 H 0.31094 0.46451 0.53314 0.0
H3259 H 0.36779 0.39167 0.55218 0.0
H3260 H 0.3986 0.3935 0.54449 0.0
H3261 H 0.37579 0.37843 0.52609 0.0
H3262 H 0.38788 0.40761 0.49421 0.0
H3263 H 0.41134 0.42196 0.51229 0.0
H3264 H 0.38956 0.44073 0.49909 0.0
H3265 H 0.34215 0.48421 0.55942 0.0
H3266 H 0.38009 0.50229 0.57711 0.0
H3267 H 0.41768 0.44146 0.55023 0.0
C3268 C 0.33574 0.40623 0.50466 0.0
C3269 C 0.31194 0.4123 0.49994 0.0
C3270 C 0.30342 0.43396 0.50979 0.0
C3271 C 0.31781 0.44847 0.52514 0.0
C3272 C 0.34082 0.44139 0.53016 0.0
C3273 C 0.35007 0.42134 0.51966 0.0
C3274 C 0.37605 0.41902 0.5268 0.0
C3275 C 0.37975 0.39417 0.53806 0.0
C3276 C 0.39216 0.42255 0.50693 0.0
C3277 C 0.37973 0.44061 0.54322 0.0
C3278 C 0.35908 0.45307 0.54514 0.0
C3279 C 0.35846 0.4746 0.55817 0.0
C3280 C 0.37995 0.48459 0.56832 0.0
C3281 C 0.40158 0.47302 0.56525 0.0
C3282 C 0.40123 0.45019 0.55343 0.0
H3283 H 0.84833 0.06733 0.53521 0.0
H3284 H 0.84693 0.0959 0.46848 0.0
H3285 H 0.88567 0.07803 0.46218 0.0
H3286 H 0.91067 0.08048 0.54672 0.0
H3287 H 0.91481 0.05299 0.56257 0.0
H3288 H 0.88614 0.0664 0.56139 0.0
H3289 H 0.86596 0.0243 0.54712 0.0
H3290 H 0.89463 0.0108 0.54819 0.0
H3291 H 0.87661 0.00964 0.52268 0.0
H3292 H 0.92478 0.05866 0.46339 0.0
H3293 H 0.96332 0.041 0.47249 0.0
H3294 H 0.94048 0.02537 0.5389 0.0
C3295 C 0.85606 0.0696 0.51919 0.0
C3296 C 0.84454 0.08292 0.50226 0.0
C3297 C 0.8554 0.08578 0.48166 0.0
C3298 C 0.87735 0.0756 0.4779 0.0
C3299 C 0.88826 0.06268 0.49493 0.0
C3300 C 0.87811 0.05973 0.51522 0.0
C3301 C 0.8943 0.04617 0.53109 0.0
C3302 C 0.90193 0.06249 0.55165 0.0
C3303 C 0.88214 0.02124 0.53765 0.0
C3304 C 0.9153 0.04229 0.51663 0.0
C3305 C 0.91123 0.05174 0.49577 0.0
C3306 C 0.92815 0.05112 0.47962 0.0
C3307 C 0.95003 0.04104 0.48501 0.0
C3308 C 0.95499 0.03178 0.50644 0.0
C3309 C 0.93716 0.03206 0.52233 0.0
H3310 H 0.71867 0.07072 0.27873 0.0
H3311 H 0.67025 0.08909 0.33007 0.0
H3312 H 0.6815 0.13343 0.3259 0.0
H3313 H 0.7654 0.12112 0.29421 0.0
H3314 H 0.77213 0.12629 0.26569 0.0
H3315 H 0.76194 0.09578 0.27422 0.0
H3316 H 0.72764 0.09518 0.24399 0.0
H3317 H 0.73727 0.12596 0.2358 0.0
H3318 H 0.70696 0.11951 0.24393 0.0
H3319 H 0.69316 0.17545 0.31275 0.0
H3320 H 0.7114 0.21338 0.29706 0.0
H3321 H 0.75454 0.1688 0.25567 0.0
C3322 C 0.71095 0.084 0.28955 0.0
C3323 C 0.69341 0.07633 0.30463 0.0
C3324 C 0.68363 0.0944 0.31834 0.0
C3325 C 0.6898 0.1197 0.31602 0.0
C3326 C 0.70607 0.12668 0.30016 0.0
C3327 C 0.7171 0.10943 0.28761 0.0
C3328 C 0.73379 0.12214 0.27157 0.0
C3329 C 0.75986 0.11597 0.27674 0.0
C3330 C 0.72594 0.11528 0.2474 0.0
C3331 C 0.73004 0.14918 0.27686 0.0
C3332 C 0.71369 0.15125 0.29319 0.0
C3333 C 0.70629 0.17412 0.30021 0.0
C3334 C 0.71658 0.19557 0.29097 0.0
C3335 C 0.73443 0.1941 0.27512 0.0
C3336 C 0.74096 0.17051 0.26775 0.0
H3337 H 0.7195 0.99527 0.0372 0.0
H3338 H 0.71922 0.96686 0.96974 0.0
H3339 H 0.68214 0.98741 0.96088 0.0
H3340 H 0.66655 0.9788 0.04637 0.0
H3341 H 0.65757 0.00461 0.0628 0.0
H3342 H 0.68864 0.9989 0.06162 0.0
H3343 H 0.69804 0.04342 0.04801 0.0
H3344 H 0.6668 0.04947 0.04947 0.0
H3345 H 0.6819 0.0543 0.024 0.0
H3346 H 0.64096 0.99636 0.96257 0.0
H3347 H 0.59946 0.99722 0.97312 0.0
H3348 H 0.62329 0.01841 0.04062 0.0
C3349 C 0.71241 0.99497 0.02023 0.0
C3350 C 0.72208 0.97982 0.00406 0.0
C3351 C 0.71206 0.97869 0.98221 0.0
C3352 C 0.69101 0.99036 0.97707 0.0
C3353 C 0.68031 0.00296 0.99402 0.0
C3354 C 0.69094 0.00596 0.01512 0.0
C3355 C 0.67343 0.0152 0.03145 0.0
C3356 C 0.67142 0.99834 0.05171 0.0
C3357 C 0.68046 0.04221 0.03865 0.0
C3358 C 0.65063 0.01364 0.01694 0.0
C3359 C 0.65534 0.00769 0.99522 0.0
C3360 C 0.63712 0.00191 0.97929 0.0
C3361 C 0.61351 0.00208 0.98561 0.0
C3362 C 0.60813 0.00781 0.00779 0.0
C3363 C 0.62694 0.01422 0.02354 0.0
H3364 H 0.3659 0.42927 0.3122 0.0
H3365 H 0.34805 0.46027 0.24825 0.0
H3366 H 0.32481 0.42142 0.23714 0.0
H3367 H 0.3753 0.37001 0.29438 0.0
H3368 H 0.36173 0.35472 0.31743 0.0
H3369 H 0.37443 0.38595 0.32083 0.0
H3370 H 0.33354 0.39922 0.33436 0.0
H3371 H 0.32101 0.36781 0.33037 0.0
H3372 H 0.30682 0.39293 0.31692 0.0
H3373 H 0.31059 0.37722 0.23048 0.0
H3374 H 0.30205 0.33164 0.23045 0.0
H3375 H 0.32576 0.33038 0.29964 0.0
C3376 C 0.35665 0.42803 0.29606 0.0
C3377 C 0.35882 0.44763 0.28104 0.0
C3378 C 0.3465 0.44545 0.26005 0.0
C3379 C 0.33326 0.42349 0.25358 0.0
C3380 C 0.33205 0.4042 0.26853 0.0
C3381 C 0.34295 0.40644 0.28953 0.0
C3382 C 0.33991 0.3825 0.302 0.0
C3383 C 0.36431 0.37274 0.30903 0.0
C3384 C 0.32438 0.38583 0.3221 0.0
C3385 C 0.32687 0.36606 0.28425 0.0
C3386 C 0.32239 0.37895 0.26509 0.0
C3387 C 0.31322 0.36706 0.24557 0.0
C3388 C 0.30855 0.34127 0.24564 0.0
C3389 C 0.31275 0.32796 0.26517 0.0
C3390 C 0.32164 0.34049 0.28476 0.0
H3391 H 0.197 0.59606 0.98279 0.0
H3392 H 0.24148 0.54939 0.02277 0.0
H3393 H 0.20522 0.52794 0.03678 0.0
H3394 H 0.15512 0.60587 0.02147 0.0
H3395 H 0.12926 0.60445 0.00253 0.0
H3396 H 0.1583 0.6139 0.99285 0.0
H3397 H 0.15438 0.57914 0.96247 0.0
H3398 H 0.12497 0.57005 0.97161 0.0
H3399 H 0.14734 0.54752 0.97019 0.0
H3400 H 0.16428 0.51387 0.04883 0.0
H3401 H 0.12126 0.50592 0.05563 0.0
H3402 H 0.10368 0.56314 0.0093 0.0
C3403 C 0.19916 0.58081 0.99394 0.0
C3404 C 0.22217 0.57441 0.00161 0.0
C3405 C 0.22411 0.55459 0.01654 0.0
C3406 C 0.20359 0.54235 0.02469 0.0
C3407 C 0.18125 0.55 0.01766 0.0
C3408 C 0.17887 0.56846 0.00232 0.0
C3409 C 0.15283 0.57395 0.99828 0.0
C3410 C 0.14865 0.60116 0.00414 0.0
C3411 C 0.14439 0.56726 0.97421 0.0
C3412 C 0.14105 0.55638 0.01437 0.0
C3413 C 0.15772 0.54247 0.02514 0.0
C3414 C 0.15107 0.52461 0.04045 0.0
C3415 C 0.12666 0.52034 0.04432 0.0
C3416 C 0.10928 0.53419 0.03326 0.0
C3417 C 0.11666 0.55271 0.01838 0.0
H3418 H 0.7055 0.92661 0.3063 0.0
H3419 H 0.72229 0.95676 0.24218 0.0
H3420 H 0.74683 0.92172 0.23484 0.0
H3421 H 0.76514 0.90253 0.3177 0.0
H3422 H 0.75345 0.875 0.33092 0.0
H3423 H 0.7377 0.90311 0.33219 0.0
H3424 H 0.69931 0.87954 0.31536 0.0
H3425 H 0.71489 0.85137 0.31417 0.0
H3426 H 0.70051 0.8627 0.2894 0.0
H3427 H 0.76883 0.88432 0.23349 0.0
H3428 H 0.78552 0.84376 0.23682 0.0
H3429 H 0.75487 0.83499 0.3014 0.0
C3430 C 0.71447 0.92583 0.29079 0.0
C3431 C 0.71203 0.94462 0.27487 0.0
C3432 C 0.72398 0.94285 0.25474 0.0
C3433 C 0.73804 0.92298 0.25039 0.0
C3434 C 0.74023 0.90496 0.26635 0.0
C3435 C 0.72882 0.90598 0.28614 0.0
C3436 C 0.73403 0.88348 0.30002 0.0
C3437 C 0.74843 0.89151 0.32148 0.0
C3438 C 0.7108 0.86838 0.30502 0.0
C3439 C 0.74928 0.86932 0.28444 0.0
C3440 C 0.75293 0.88253 0.26539 0.0
C3441 C 0.7662 0.87377 0.24834 0.0
C3442 C 0.77567 0.85059 0.25048 0.0
C3443 C 0.7716 0.83597 0.2694 0.0
C3444 C 0.75848 0.84571 0.28682 0.0
H3445 H 0.85331 0.09205 0.76355 0.0
H3446 H 0.86449 0.08739 0.83482 0.0
H3447 H 0.83746 0.12148 0.84005 0.0
H3448 H 0.85603 0.15751 0.7631 0.0
H3449 H 0.8342 0.15926 0.74045 0.0
H3450 H 0.85198 0.1327 0.74263 0.0
H3451 H 0.81316 0.10388 0.74177 0.0
H3452 H 0.79526 0.13046 0.73993 0.0
H3453 H 0.79091 0.10869 0.76187 0.0
H3454 H 0.81105 0.15684 0.83743 0.0
H3455 H 0.79182 0.19515 0.82758 0.0
H3456 H 0.79931 0.17821 0.75776 0.0
C3457 C 0.84976 0.09802 0.78026 0.0
C3458 C 0.86065 0.08706 0.79884 0.0
C3459 C 0.85622 0.09565 0.82043 0.0
C3460 C 0.84075 0.11477 0.82352 0.0
C3461 C 0.83018 0.12515 0.80482 0.0
C3462 C 0.8348 0.11737 0.7836 0.0
C3463 C 0.82338 0.13343 0.76631 0.0
C3464 C 0.84254 0.1465 0.75232 0.0
C3465 C 0.80455 0.1182 0.75161 0.0
C3466 C 0.81181 0.1517 0.78115 0.0
C3467 C 0.81557 0.14624 0.80327 0.0
C3468 C 0.80786 0.16122 0.82019 0.0
C3469 C 0.79694 0.18294 0.8144 0.0
C3470 C 0.79408 0.18962 0.79189 0.0
C3471 C 0.80087 0.17335 0.77505 0.0
loop_
_geom_bond_atom_site_label_1
_geom_bond_atom_site_label_2
_geom_bond_distance
_geom_bond_site_symmetry_2
_ccdc_geom_bond_type
O0 Cd1 2.223 . S
O0 C8 1.315 . S
Cd1 O0 2.223 . S
Cd1 O4 2.297 . S
Cd1 O5 2.439 . S
Cd1 O11 2.240 . S
Cd2 O3 2.240 . S
Cd2 O10 2.223 . S
Cd2 O12 2.297 . S
Cd2 O13 2.439 . S
O3 Cd2 2.240 . S
O3 C8 1.279 . S
O4 Cd1 2.297 . S
O4 C6 1.247 . S
O5 Cd1 2.439 . S
O5 C6 1.208 . S
C6 O4 1.247 . S
C6 O5 1.208 . S
C7 O12 1.247 . S
C7 O13 1.208 . S
C8 O0 1.315 . S
C8 O3 1.279 . S
C9 O10 1.315 . S
C9 O11 1.279 . S
O10 Cd2 2.223 . S
O10 C9 1.315 . S
O11 Cd1 2.240 . S
O11 C9 1.279 . S
O12 Cd2 2.297 . S
O12 C7 1.247 . S
O13 Cd2 2.439 . S
O13 C7 1.208 . S
O14 Cd15 2.223 . S
O14 C22 1.315 . S
Cd15 O14 2.223 . S
Cd15 O18 2.297 . S
Cd15 O19 2.439 . S
Cd15 O25 2.240 . S
Cd16 O17 2.240 . S
Cd16 O24 2.223 . S
Cd16 O26 2.297 1_455 S
Cd16 O27 2.439 1_455 S
O17 Cd16 2.240 . S
O17 C22 1.279 . S
O18 Cd15 2.297 . S
O18 C20 1.247 . S
O19 Cd15 2.439 . S
O19 C20 1.208 . S
C20 O18 1.247 . S
C20 O19 1.208 . S
C21 O26 1.247 . S
C21 O27 1.208 . S
C22 O14 1.315 . S
C22 O17 1.279 . S
C23 O24 1.315 . S
C23 O25 1.279 . S
O24 Cd16 2.223 . S
O24 C23 1.315 . S
O25 Cd15 2.240 . S
O25 C23 1.279 . S
O26 Cd16 2.297 1_655 S
O26 C21 1.247 . S
O27 Cd16 2.439 1_655 S
O27 C21 1.208 . S
O28 Cd29 2.223 . S
O28 C36 1.315 . S
Cd29 O28 2.223 . S
Cd29 O32 2.297 . S
Cd29 O33 2.439 . S
Cd29 O39 2.240 . S
Cd30 O31 2.240 . S
Cd30 O38 2.223 . S
Cd30 O40 2.297 . S
Cd30 O41 2.439 . S
O31 Cd30 2.240 . S
O31 C36 1.279 . S
O32 Cd29 2.297 . S
O32 C34 1.247 . S
O33 Cd29 2.439 . S
O33 C34 1.208 . S
C34 O32 1.247 . S
C34 O33 1.208 . S
C35 O40 1.247 . S
C35 O41 1.208 . S
C36 O28 1.315 . S
C36 O31 1.279 . S
C37 O38 1.315 . S
C37 O39 1.279 . S
O38 Cd30 2.223 . S
O38 C37 1.315 . S
O39 Cd29 2.240 . S
O39 C37 1.279 . S
O40 Cd30 2.297 . S
O40 C35 1.247 . S
O41 Cd30 2.439 . S
O41 C35 1.208 . S
O42 Cd43 2.223 . S
O42 C50 1.315 . S
Cd43 O42 2.223 . S
Cd43 O46 2.297 . S
Cd43 O47 2.439 . S
Cd43 O53 2.240 . S
Cd44 O45 2.240 . S
Cd44 O52 2.223 . S
Cd44 O54 2.297 . S
Cd44 O55 2.439 . S
O45 Cd44 2.240 . S
O45 C50 1.279 . S
O46 Cd43 2.297 . S
O46 C48 1.247 . S
O47 Cd43 2.439 . S
O47 C48 1.208 . S
C48 O46 1.247 . S
C48 O47 1.208 . S
C49 O54 1.247 . S
C49 O55 1.208 . S
C50 O42 1.315 . S
C50 O45 1.279 . S
C51 O52 1.315 . S
C51 O53 1.279 . S
O52 Cd44 2.223 . S
O52 C51 1.315 . S
O53 Cd43 2.240 . S
O53 C51 1.279 . S
O54 Cd44 2.297 . S
O54 C49 1.247 . S
O55 Cd44 2.439 . S
O55 C49 1.208 . S
O56 Cd57 2.223 . S
O56 C64 1.315 . S
Cd57 O56 2.223 . S
Cd57 O60 2.297 1_545 S
Cd57 O61 2.439 1_545 S
Cd57 O67 2.240 . S
Cd58 O59 2.240 . S
Cd58 O66 2.223 . S
Cd58 O68 2.297 . S
Cd58 O69 2.439 . S
O59 Cd58 2.240 . S
O59 C64 1.279 . S
O60 Cd57 2.297 1_565 S
O60 C62 1.247 . S
O61 Cd57 2.439 1_565 S
O61 C62 1.208 . S
C62 O60 1.247 . S
C62 O61 1.208 . S
C63 O68 1.247 . S
C63 O69 1.208 . S
C64 O56 1.315 . S
C64 O59 1.279 . S
C65 O66 1.315 . S
C65 O67 1.279 . S
O66 Cd58 2.223 . S
O66 C65 1.315 . S
O67 Cd57 2.240 . S
O67 C65 1.279 . S
O68 Cd58 2.297 . S
O68 C63 1.247 . S
O69 Cd58 2.439 . S
O69 C63 1.208 . S
O70 Cd71 2.223 . S
O70 C78 1.315 . S
Cd71 O70 2.223 . S
Cd71 O74 2.297 . S
Cd71 O75 2.439 . S
Cd71 O81 2.240 . S
Cd72 O73 2.240 . S
Cd72 O80 2.223 . S
Cd72 O82 2.297 . S
Cd72 O83 2.439 . S
O73 Cd72 2.240 . S
O73 C78 1.279 . S
O74 Cd71 2.297 . S
O74 C76 1.247 . S
O75 Cd71 2.439 . S
O75 C76 1.208 . S
C76 O74 1.247 . S
C76 O75 1.208 . S
C77 O82 1.247 . S
C77 O83 1.208 . S
C78 O70 1.315 . S
C78 O73 1.279 . S
C79 O80 1.315 . S
C79 O81 1.279 . S
O80 Cd72 2.223 . S
O80 C79 1.315 . S
O81 Cd71 2.240 . S
O81 C79 1.279 . S
O82 Cd72 2.297 . S
O82 C77 1.247 . S
O83 Cd72 2.439 . S
O83 C77 1.208 . S
O84 Cd85 2.223 . S
O84 C92 1.315 . S
Cd85 O84 2.223 . S
Cd85 O88 2.297 . S
Cd85 O89 2.439 . S
Cd85 O95 2.240 1_545 S
Cd86 O87 2.240 . S
Cd86 O94 2.223 1_545 S
Cd86 O96 2.297 1_545 S
Cd86 O97 2.439 . S
O87 Cd86 2.240 . S
O87 C92 1.279 . S
O88 Cd85 2.297 . S
O88 C90 1.247 . S
O89 Cd85 2.439 . S
O89 C90 1.208 . S
C90 O88 1.247 . S
C90 O89 1.208 . S
C91 O96 1.247 1_545 S
C91 O97 1.208 . S
C92 O84 1.315 . S
C92 O87 1.279 . S
C93 O94 1.315 . S
C93 O95 1.279 . S
O94 Cd86 2.223 1_565 S
O94 C93 1.315 . S
O95 Cd85 2.240 1_565 S
O95 C93 1.279 . S
O96 Cd86 2.297 1_565 S
O96 C91 1.247 1_565 S
O97 Cd86 2.439 . S
O97 C91 1.208 . S
O98 Cd99 2.223 . S
O98 C106 1.315 . S
Cd99 O98 2.223 . S
Cd99 O102 2.297 . S
Cd99 O103 2.439 . S
Cd99 O109 2.240 . S
Cd100 O101 2.240 . S
Cd100 O108 2.223 . S
Cd100 O110 2.297 1_554 S
Cd100 O111 2.439 1_554 S
O101 Cd100 2.240 . S
O101 C106 1.279 . S
O102 Cd99 2.297 . S
O102 C104 1.247 . S
O103 Cd99 2.439 . S
O103 C104 1.208 . S
C104 O102 1.247 . S
C104 O103 1.208 . S
C105 O110 1.247 . S
C105 O111 1.208 . S
C106 O98 1.315 . S
C106 O101 1.279 . S
C107 O108 1.315 . S
C107 O109 1.279 . S
O108 Cd100 2.223 . S
O108 C107 1.315 . S
O109 Cd99 2.240 . S
O109 C107 1.279 . S
O110 Cd100 2.297 1_556 S
O110 C105 1.247 . S
O111 Cd100 2.439 1_556 S
O111 C105 1.208 . S
O112 Cd113 2.223 . S
O112 C120 1.315 . S
Cd113 O112 2.223 . S
Cd113 O116 2.297 . S
Cd113 O117 2.439 . S
Cd113 O123 2.240 . S
Cd114 O115 2.240 . S
Cd114 O122 2.223 . S
Cd114 O124 2.297 . S
Cd114 O125 2.439 . S
O115 Cd114 2.240 . S
O115 C120 1.279 . S
O116 Cd113 2.297 . S
O116 C118 1.247 . S
O117 Cd113 2.439 . S
O117 C118 1.208 . S
C118 O116 1.247 . S
C118 O117 1.208 . S
C119 O124 1.258 . S
C119 O125 1.223 . S
C120 O112 1.315 . S
C120 O115 1.279 . S
C121 O122 1.315 . S
C121 O123 1.279 . S
O122 Cd114 2.223 . S
O122 C121 1.315 . S
O123 Cd113 2.240 . S
O123 C121 1.279 . S
O124 Cd114 2.297 . S
O124 C119 1.258 . S
O125 Cd114 2.439 . S
O125 C119 1.223 . S
O126 Cd127 2.223 . S
O126 C134 1.315 . S
Cd127 O126 2.223 . S
Cd127 O130 2.297 . S
Cd127 O131 2.439 . S
Cd127 O137 2.240 . S
Cd128 O129 2.240 . S
Cd128 O136 2.223 . S
Cd128 O138 2.297 . S
Cd128 O139 2.439 . S
O129 Cd128 2.240 . S
O129 C134 1.279 . S
O130 Cd127 2.297 . S
O130 C132 1.247 . S
O131 Cd127 2.439 . S
O131 C132 1.208 . S
C132 O130 1.247 . S
C132 O131 1.208 . S
C133 O138 1.247 . S
C133 O139 1.208 . S
C134 O126 1.315 . S
C134 O129 1.279 . S
C135 O136 1.315 . S
C135 O137 1.279 . S
O136 Cd128 2.223 . S
O136 C135 1.315 . S
O137 Cd127 2.240 . S
O137 C135 1.279 . S
O138 Cd128 2.297 . S
O138 C133 1.247 . S
O139 Cd128 2.439 . S
O139 C133 1.208 . S
O140 Cd141 2.223 . S
O140 C148 1.315 . S
Cd141 O140 2.223 . S
Cd141 O144 2.297 . S
Cd141 O145 2.439 . S
Cd141 O151 2.240 . S
Cd142 O143 2.240 . S
Cd142 O150 2.223 . S
Cd142 O152 2.297 . S
Cd142 O153 2.439 . S
O143 Cd142 2.240 . S
O143 C148 1.279 . S
O144 Cd141 2.297 . S
O144 C146 1.247 . S
O145 Cd141 2.439 . S
O145 C146 1.208 . S
C146 O144 1.247 . S
C146 O145 1.208 . S
C147 O152 1.247 . S
C147 O153 1.208 . S
C148 O140 1.315 . S
C148 O143 1.279 . S
C149 O150 1.315 . S
C149 O151 1.279 . S
O150 Cd142 2.223 . S
O150 C149 1.315 . S
O151 Cd141 2.240 . S
O151 C149 1.279 . S
O152 Cd142 2.297 . S
O152 C147 1.247 . S
O153 Cd142 2.439 . S
O153 C147 1.208 . S
O154 Cd155 2.223 . S
O154 C162 1.315 . S
Cd155 O154 2.223 . S
Cd155 O158 2.297 . S
Cd155 O159 2.439 . S
Cd155 O165 2.240 . S
Cd156 O157 2.240 . S
Cd156 O164 2.223 . S
Cd156 O166 2.297 . S
Cd156 O167 2.439 . S
O157 Cd156 2.240 . S
O157 C162 1.279 . S
O158 Cd155 2.297 . S
O158 C160 1.247 . S
O159 Cd155 2.439 . S
O159 C160 1.208 . S
C160 O158 1.247 . S
C160 O159 1.208 . S
C161 O166 1.247 . S
C161 O167 1.208 . S
C162 O154 1.315 . S
C162 O157 1.279 . S
C163 O164 1.315 . S
C163 O165 1.279 . S
O164 Cd156 2.223 . S
O164 C163 1.315 . S
O165 Cd155 2.240 . S
O165 C163 1.279 . S
O166 Cd156 2.297 . S
O166 C161 1.247 . S
O167 Cd156 2.439 . S
O167 C161 1.208 . S
O168 Cd169 2.223 . S
O168 C176 1.315 . S
Cd169 O168 2.223 . S
Cd169 O172 2.297 . S
Cd169 O173 2.439 1_455 S
Cd169 O179 2.240 1_455 S
Cd170 O171 2.240 1_655 S
Cd170 O178 2.223 1_655 S
Cd170 O180 2.297 . S
Cd170 O181 2.439 . S
O171 Cd170 2.240 1_455 S
O171 C176 1.279 . S
O172 Cd169 2.297 . S
O172 C174 1.247 . S
O173 Cd169 2.439 1_655 S
O173 C174 1.208 1_655 S
C174 O172 1.247 . S
C174 O173 1.208 1_455 S
C175 O180 1.247 . S
C175 O181 1.208 . S
C176 O168 1.315 . S
C176 O171 1.279 . S
C177 O178 1.315 . S
C177 O179 1.279 1_455 S
O178 Cd170 2.223 1_455 S
O178 C177 1.315 . S
O179 Cd169 2.240 1_655 S
O179 C177 1.279 1_655 S
O180 Cd170 2.297 . S
O180 C175 1.247 . S
O181 Cd170 2.439 . S
O181 C175 1.208 . S
O182 Cd183 2.223 . S
O182 C190 1.315 . S
Cd183 O182 2.223 . S
Cd183 O186 2.297 1_455 S
Cd183 O187 2.439 1_455 S
Cd183 O193 2.240 . S
Cd184 O185 2.240 . S
Cd184 O192 2.223 . S
Cd184 O194 2.297 . S
Cd184 O195 2.439 . S
O185 Cd184 2.240 . S
O185 C190 1.279 . S
O186 Cd183 2.297 1_655 S
O186 C188 1.247 . S
O187 Cd183 2.439 1_655 S
O187 C188 1.208 . S
C188 O186 1.247 . S
C188 O187 1.208 . S
C189 O194 1.247 . S
C189 O195 1.208 . S
C190 O182 1.315 . S
C190 O185 1.279 . S
C191 O192 1.315 . S
C191 O193 1.279 . S
O192 Cd184 2.223 . S
O192 C191 1.315 . S
O193 Cd183 2.240 . S
O193 C191 1.279 . S
O194 Cd184 2.297 . S
O194 C189 1.247 . S
O195 Cd184 2.439 . S
O195 C189 1.208 . S
O196 Cd197 2.223 . S
O196 C204 1.315 . S
Cd197 O196 2.223 . S
Cd197 O200 2.297 . S
Cd197 O201 2.439 . S
Cd197 O207 2.240 . S
Cd198 O199 2.240 . S
Cd198 O206 2.223 . S
Cd198 O208 2.297 . S
Cd198 O209 2.439 . S
O199 Cd198 2.240 . S
O199 C204 1.279 . S
O200 Cd197 2.297 . S
O200 C202 1.247 . S
O201 Cd197 2.439 . S
O201 C202 1.208 . S
C202 O200 1.247 . S
C202 O201 1.208 . S
C203 O208 1.247 . S
C203 O209 1.208 . S
C204 O196 1.315 . S
C204 O199 1.279 . S
C205 O206 1.315 . S
C205 O207 1.279 . S
O206 Cd198 2.223 . S
O206 C205 1.315 . S
O207 Cd197 2.240 . S
O207 C205 1.279 . S
O208 Cd198 2.297 . S
O208 C203 1.247 . S
O209 Cd198 2.439 . S
O209 C203 1.208 . S
O210 Cd211 2.223 . S
O210 C218 1.315 . S
Cd211 O210 2.223 . S
Cd211 O214 2.297 . S
Cd211 O215 2.439 . S
Cd211 O221 2.240 . S
Cd212 O213 2.240 . S
Cd212 O220 2.223 . S
Cd212 O222 2.297 . S
Cd212 O223 2.439 . S
O213 Cd212 2.240 . S
O213 C218 1.279 . S
O214 Cd211 2.297 . S
O214 C216 1.247 . S
O215 Cd211 2.439 . S
O215 C216 1.208 . S
C216 O214 1.247 . S
C216 O215 1.208 . S
C217 O222 1.247 . S
C217 O223 1.208 . S
C218 O210 1.315 . S
C218 O213 1.279 . S
C219 O220 1.315 . S
C219 O221 1.279 . S
O220 Cd212 2.223 . S
O220 C219 1.315 . S
O221 Cd211 2.240 . S
O221 C219 1.279 . S
O222 Cd212 2.297 . S
O222 C217 1.247 . S
O223 Cd212 2.439 . S
O223 C217 1.208 . S
O224 Cd225 2.223 . S
O224 C232 1.315 . S
Cd225 O224 2.223 . S
Cd225 O228 2.297 . S
Cd225 O229 2.439 . S
Cd225 O235 2.240 1_545 S
Cd226 O227 2.240 1_565 S
Cd226 O234 2.223 . S
Cd226 O236 2.297 . S
Cd226 O237 2.439 1_565 S
O227 Cd226 2.240 1_545 S
O227 C232 1.279 . S
O228 Cd225 2.297 . S
O228 C230 1.247 . S
O229 Cd225 2.439 . S
O229 C230 1.208 . S
C230 O228 1.247 . S
C230 O229 1.208 . S
C231 O236 1.247 . S
C231 O237 1.208 1_565 S
C232 O224 1.315 . S
C232 O227 1.279 . S
C233 O234 1.315 . S
C233 O235 1.279 . S
O234 Cd226 2.223 . S
O234 C233 1.315 . S
O235 Cd225 2.240 1_565 S
O235 C233 1.279 . S
O236 Cd226 2.297 . S
O236 C231 1.247 . S
O237 Cd226 2.439 1_545 S
O237 C231 1.208 1_545 S
O238 Cd239 2.223 . S
O238 C246 1.315 . S
Cd239 O238 2.223 . S
Cd239 O242 2.297 . S
Cd239 O243 2.439 . S
Cd239 O249 2.240 . S
Cd240 O241 2.240 . S
Cd240 O248 2.223 . S
Cd240 O250 2.297 . S
Cd240 O251 2.439 . S
O241 Cd240 2.240 . S
O241 C246 1.279 . S
O242 Cd239 2.297 . S
O242 C244 1.247 . S
O243 Cd239 2.439 . S
O243 C244 1.208 . S
C244 O242 1.247 . S
C244 O243 1.208 . S
C245 O250 1.247 . S
C245 O251 1.208 . S
C246 O238 1.315 . S
C246 O241 1.279 . S
C247 O248 1.315 . S
C247 O249 1.279 . S
O248 Cd240 2.223 . S
O248 C247 1.315 . S
O249 Cd239 2.240 . S
O249 C247 1.279 . S
O250 Cd240 2.297 . S
O250 C245 1.247 . S
O251 Cd240 2.439 . S
O251 C245 1.208 . S
O252 Cd253 2.223 . S
O252 C260 1.315 . S
Cd253 O252 2.223 . S
Cd253 O256 2.297 1_545 S
Cd253 O257 2.439 1_545 S
Cd253 O263 2.240 . S
Cd254 O255 2.240 . S
Cd254 O262 2.223 . S
Cd254 O264 2.297 . S
Cd254 O265 2.439 . S
O255 Cd254 2.240 . S
O255 C260 1.279 . S
O256 Cd253 2.297 1_565 S
O256 C258 1.247 . S
O257 Cd253 2.439 1_565 S
O257 C258 1.208 . S
C258 O256 1.247 . S
C258 O257 1.208 . S
C259 O264 1.247 . S
C259 O265 1.208 . S
C260 O252 1.315 . S
C260 O255 1.279 . S
C261 O262 1.315 . S
C261 O263 1.279 . S
O262 Cd254 2.223 . S
O262 C261 1.315 . S
O263 Cd253 2.240 . S
O263 C261 1.279 . S
O264 Cd254 2.297 . S
O264 C259 1.247 . S
O265 Cd254 2.439 . S
O265 C259 1.208 . S
O266 Cd267 2.223 . S
O266 C274 1.315 . S
Cd267 O266 2.223 . S
Cd267 O270 2.297 . S
Cd267 O271 2.439 . S
Cd267 O277 2.240 . S
Cd268 O269 2.240 . S
Cd268 O276 2.223 . S
Cd268 O278 2.297 1_554 S
Cd268 O279 2.439 1_554 S
O269 Cd268 2.240 . S
O269 C274 1.279 . S
O270 Cd267 2.297 . S
O270 C272 1.247 . S
O271 Cd267 2.439 . S
O271 C272 1.208 . S
C272 O270 1.247 . S
C272 O271 1.208 . S
C273 O278 1.247 . S
C273 O279 1.208 . S
C274 O266 1.315 . S
C274 O269 1.279 . S
C275 O276 1.315 . S
C275 O277 1.279 . S
O276 Cd268 2.223 . S
O276 C275 1.315 . S
O277 Cd267 2.240 . S
O277 C275 1.279 . S
O278 Cd268 2.297 1_556 S
O278 C273 1.247 . S
O279 Cd268 2.439 1_556 S
O279 C273 1.208 . S
O280 Cd281 2.223 . S
O280 C288 1.315 . S
Cd281 O280 2.223 . S
Cd281 O284 2.297 . S
Cd281 O285 2.439 1_554 S
Cd281 O291 2.240 1_554 S
Cd282 O283 2.240 1_556 S
Cd282 O290 2.223 1_556 S
Cd282 O292 2.297 . S
Cd282 O293 2.439 . S
O283 Cd282 2.240 1_554 S
O283 C288 1.279 . S
O284 Cd281 2.297 . S
O284 C286 1.247 . S
O285 Cd281 2.439 1_556 S
O285 C286 1.208 1_556 S
C286 O284 1.247 . S
C286 O285 1.208 1_554 S
C287 O292 1.247 . S
C287 O293 1.208 . S
C288 O280 1.315 . S
C288 O283 1.279 . S
C289 O290 1.321 . S
C289 O291 1.261 1_554 S
O290 Cd282 2.223 1_554 S
O290 C289 1.321 . S
O291 Cd281 2.240 1_556 S
O291 C289 1.261 1_556 S
O292 Cd282 2.297 . S
O292 C287 1.247 . S
O293 Cd282 2.439 . S
O293 C287 1.208 . S
O294 Cd295 2.223 . S
O294 C302 1.315 . S
Cd295 O294 2.223 . S
Cd295 O298 2.297 . S
Cd295 O299 2.439 . S
Cd295 O305 2.240 . S
Cd296 O297 2.240 . S
Cd296 O304 2.223 . S
Cd296 O306 2.297 . S
Cd296 O307 2.439 . S
O297 Cd296 2.240 . S
O297 C302 1.279 . S
O298 Cd295 2.297 . S
O298 C300 1.247 . S
O299 Cd295 2.439 . S
O299 C300 1.208 . S
C300 O298 1.247 . S
C300 O299 1.208 . S
C301 O306 1.247 . S
C301 O307 1.208 . S
C302 O294 1.315 . S
C302 O297 1.279 . S
C303 O304 1.315 . S
C303 O305 1.279 . S
O304 Cd296 2.223 . S
O304 C303 1.315 . S
O305 Cd295 2.240 . S
O305 C303 1.279 . S
O306 Cd296 2.297 . S
O306 C301 1.247 . S
O307 Cd296 2.439 . S
O307 C301 1.208 . S
O308 Cd309 2.223 . S
O308 C316 1.315 . S
Cd309 O308 2.223 . S
Cd309 O312 2.297 . S
Cd309 O313 2.439 . S
Cd309 O319 2.240 . S
Cd310 O311 2.240 . S
Cd310 O318 2.223 . S
Cd310 O320 2.297 . S
Cd310 O321 2.439 . S
O311 Cd310 2.240 . S
O311 C316 1.279 . S
O312 Cd309 2.297 . S
O312 C314 1.247 . S
O313 Cd309 2.439 . S
O313 C314 1.208 . S
C314 O312 1.247 . S
C314 O313 1.208 . S
C315 O320 1.247 . S
C315 O321 1.208 . S
C316 O308 1.315 . S
C316 O311 1.279 . S
C317 O318 1.315 . S
C317 O319 1.279 . S
O318 Cd310 2.223 . S
O318 C317 1.315 . S
O319 Cd309 2.240 . S
O319 C317 1.279 . S
O320 Cd310 2.297 . S
O320 C315 1.247 . S
O321 Cd310 2.439 . S
O321 C315 1.208 . S
O322 Cd323 2.223 . S
O322 C330 1.315 . S
Cd323 O322 2.223 . S
Cd323 O326 2.297 . S
Cd323 O327 2.439 . S
Cd323 O333 2.240 . S
Cd324 O325 2.240 . S
Cd324 O332 2.223 . S
Cd324 O334 2.297 . S
Cd324 O335 2.439 . S
O325 Cd324 2.240 . S
O325 C330 1.279 . S
O326 Cd323 2.297 . S
O326 C328 1.247 . S
O327 Cd323 2.439 . S
O327 C328 1.208 . S
C328 O326 1.247 . S
C328 O327 1.208 . S
C329 O334 1.247 . S
C329 O335 1.208 . S
C330 O322 1.315 . S
C330 O325 1.279 . S
C331 O332 1.315 . S
C331 O333 1.279 . S
O332 Cd324 2.223 . S
O332 C331 1.315 . S
O333 Cd323 2.240 . S
O333 C331 1.279 . S
O334 Cd324 2.297 . S
O334 C329 1.247 . S
O335 Cd324 2.439 . S
O335 C329 1.208 . S
C336 O352 1.251 1_556 S
C336 O354 1.254 . S
N337 C338 1.333 . S
N337 C342 1.307 . S
N337 Zn343 2.020 1_655 S
C338 N337 1.333 . S
C338 C339 1.379 . S
C338 H356 0.952 1_565 S
C339 C338 1.379 . S
C339 C340 1.390 . S
C339 H366 0.949 . S
C340 C339 1.390 . S
C340 C341 1.357 . S
C341 C340 1.357 . S
C341 C342 1.370 . S
C341 H367 0.950 . S
C342 N337 1.307 . S
C342 C341 1.370 . S
C342 H360 0.948 . S
Zn343 N337 2.020 1_455 S
Zn343 O352 2.039 1_565 S
Zn343 O358 2.034 1_565 S
Zn343 O362 2.025 . S
Zn343 O364 2.024 . S
C344 O363 1.246 . S
C344 O364 1.249 . S
N345 C346 1.307 . S
N345 C347 1.333 . S
N345 Zn351 2.020 . S
C346 N345 1.307 . S
C346 C350 1.364 1_554 S
C346 H357 0.948 1_554 S
C347 N345 1.333 . S
C347 C348 1.379 . S
C347 H355 0.952 1_545 S
C348 C347 1.379 . S
C348 C349 1.390 . S
C348 H368 0.949 . S
C349 C348 1.390 . S
C349 C350 1.347 1_554 S
C350 C346 1.364 1_556 S
C350 C349 1.347 1_556 S
C350 H369 0.967 . S
Zn351 N345 2.020 . S
Zn351 O354 2.025 1_554 S
Zn351 O359 2.024 . S
Zn351 O361 2.026 1_545 S
Zn351 O363 2.034 1_545 S
O352 C336 1.251 1_554 S
O352 Zn343 2.039 1_545 S
C353 O358 1.246 . S
C353 O359 1.249 . S
O354 C336 1.254 . S
O354 Zn351 2.025 1_556 S
H355 C347 0.952 1_565 S
H356 C338 0.952 1_545 S
H357 C346 0.948 1_556 S
O358 Zn343 2.034 1_545 S
O358 C353 1.246 . S
O359 Zn351 2.024 . S
O359 C353 1.249 . S
H360 C342 0.948 . S
O361 Zn351 2.026 1_565 S
O361 C365 1.265 . S
O362 Zn343 2.025 . S
O362 C365 1.254 . S
O363 C344 1.246 . S
O363 Zn351 2.034 1_565 S
O364 Zn343 2.024 . S
O364 C344 1.249 . S
C365 O361 1.265 . S
C365 O362 1.254 . S
H366 C339 0.949 . S
H367 C341 0.950 . S
H368 C348 0.949 . S
H369 C350 0.967 . S
C370 O386 1.251 . S
C370 O388 1.254 . S
N371 C372 1.333 . S
N371 C376 1.307 . S
N371 Zn377 2.020 . S
C372 N371 1.333 . S
C372 C373 1.379 . S
C372 H390 0.952 . S
C373 C372 1.379 . S
C373 C374 1.390 . S
C373 H400 0.949 . S
C374 C373 1.390 . S
C374 C375 1.357 . S
C375 C374 1.357 . S
C375 C376 1.370 . S
C375 H401 0.950 . S
C376 N371 1.307 . S
C376 C375 1.370 . S
C376 H394 0.948 . S
Zn377 N371 2.020 . S
Zn377 O386 2.039 . S
Zn377 O392 2.034 . S
Zn377 O396 2.025 . S
Zn377 O398 2.024 . S
C378 O397 1.246 . S
C378 O398 1.249 . S
N379 C380 1.307 . S
N379 C381 1.333 . S
N379 Zn385 2.020 . S
C380 N379 1.307 . S
C380 C384 1.370 . S
C380 H391 0.948 . S
C381 N379 1.333 . S
C381 C382 1.379 . S
C381 H389 0.952 . S
C382 C381 1.379 . S
C382 C383 1.390 . S
C382 H402 0.949 . S
C383 C382 1.390 . S
C383 C384 1.357 . S
C384 C380 1.370 . S
C384 C383 1.357 . S
C384 H403 0.950 . S
Zn385 N379 2.020 . S
Zn385 O388 2.025 . S
Zn385 O393 2.024 . S
Zn385 O395 2.039 . S
Zn385 O397 2.034 . S
O386 C370 1.251 . S
O386 Zn377 2.039 . S
C387 O392 1.246 . S
C387 O393 1.249 . S
O388 C370 1.254 . S
O388 Zn385 2.025 . S
H389 C381 0.952 . S
H390 C372 0.952 . S
H391 C380 0.948 . S
O392 Zn377 2.034 . S
O392 C387 1.246 . S
O393 Zn385 2.024 . S
O393 C387 1.249 . S
H394 C376 0.948 . S
O395 Zn385 2.039 . S
O395 C399 1.251 . S
O396 Zn377 2.025 . S
O396 C399 1.254 . S
O397 C378 1.246 . S
O397 Zn385 2.034 . S
O398 Zn377 2.024 . S
O398 C378 1.249 . S
C399 O395 1.251 . S
C399 O396 1.254 . S
H400 C373 0.949 . S
H401 C375 0.950 . S
H402 C382 0.949 . S
H403 C384 0.950 . S
C404 O420 1.251 . S
C404 O422 1.254 . S
N405 C406 1.333 . S
N405 C410 1.307 . S
N405 Zn411 2.039 . S
C406 N405 1.333 . S
C406 C407 1.379 . S
C406 H424 0.952 . S
C407 C406 1.379 . S
C407 C408 1.390 . S
C407 H434 0.949 . S
C408 C407 1.390 . S
C408 C409 1.357 . S
C409 C408 1.357 . S
C409 C410 1.370 . S
C409 H435 0.950 . S
C410 N405 1.307 . S
C410 C409 1.370 . S
C410 H428 0.948 . S
Zn411 N405 2.039 . S
Zn411 O420 2.031 1_565 S
Zn411 O426 2.023 1_565 S
Zn411 O430 2.027 . S
Zn411 O432 2.028 . S
C412 O431 1.246 . S
C412 O432 1.249 1_545 S
N413 C414 1.307 . S
N413 C415 1.333 . S
N413 Zn419 2.020 . S
C414 N413 1.307 . S
C414 C418 1.370 . S
C414 H425 0.948 . S
C415 N413 1.333 . S
C415 C416 1.379 . S
C415 H423 0.952 . S
C416 C415 1.379 . S
C416 C417 1.390 . S
C416 H436 0.949 . S
C417 C416 1.390 . S
C417 C418 1.357 . S
C418 C414 1.370 . S
C418 C417 1.357 . S
C418 H437 0.950 . S
Zn419 N413 2.020 . S
Zn419 O422 2.025 . S
Zn419 O427 2.024 . S
Zn419 O429 2.039 . S
Zn419 O431 2.034 . S
O420 C404 1.251 . S
O420 Zn411 2.031 1_545 S
C421 O426 1.246 . S
C421 O427 1.249 . S
O422 C404 1.254 . S
O422 Zn419 2.025 . S
H423 C415 0.952 . S
H424 C406 0.952 . S
H425 C414 0.948 . S
O426 Zn411 2.023 1_545 S
O426 C421 1.246 . S
O427 Zn419 2.024 . S
O427 C421 1.249 . S
H428 C410 0.948 . S
O429 Zn419 2.039 . S
O429 C433 1.251 . S
O430 Zn411 2.027 . S
O430 C433 1.254 1_565 S
O431 C412 1.246 . S
O431 Zn419 2.034 . S
O432 Zn411 2.028 . S
O432 C412 1.249 1_565 S
C433 O429 1.251 . S
C433 O430 1.254 1_545 S
H434 C407 0.949 . S
H435 C409 0.950 . S
H436 C416 0.949 . S
H437 C418 0.950 . S
C438 O454 1.251 . S
C438 O456 1.254 . S
N439 C440 1.333 . S
N439 C444 1.307 . S
N439 Zn445 2.020 . S
C440 N439 1.333 . S
C440 C441 1.379 . S
C440 H458 0.952 . S
C441 C440 1.379 . S
C441 C442 1.390 . S
C441 H468 0.949 . S
C442 C441 1.390 . S
C442 C443 1.357 . S
C443 C442 1.357 . S
C443 C444 1.370 . S
C443 H469 0.950 . S
C444 N439 1.307 . S
C444 C443 1.370 . S
C444 H462 0.948 . S
Zn445 N439 2.020 . S
Zn445 O454 2.039 . S
Zn445 O460 2.034 . S
Zn445 O464 2.025 . S
Zn445 O466 2.024 . S
C446 O465 1.246 . S
C446 O466 1.249 . S
N447 C448 1.307 . S
N447 C449 1.333 . S
N447 Zn453 2.020 . S
C448 N447 1.307 . S
C448 C452 1.370 . S
C448 H459 0.948 . S
C449 N447 1.333 . S
C449 C450 1.379 . S
C449 H457 0.952 . S
C450 C449 1.379 . S
C450 C451 1.390 . S
C450 H470 0.949 . S
C451 C450 1.390 . S
C451 C452 1.357 . S
C452 C448 1.370 . S
C452 C451 1.357 . S
C452 H471 0.950 . S
Zn453 N447 2.020 . S
Zn453 O456 2.025 . S
Zn453 O461 2.024 . S
Zn453 O463 2.039 . S
Zn453 O465 2.034 . S
O454 C438 1.251 . S
O454 Zn445 2.039 . S
C455 O460 1.246 . S
C455 O461 1.249 . S
O456 C438 1.254 . S
O456 Zn453 2.025 . S
H457 C449 0.952 . S
H458 C440 0.952 . S
H459 C448 0.948 . S
O460 Zn445 2.034 . S
O460 C455 1.246 . S
O461 Zn453 2.024 . S
O461 C455 1.249 . S
H462 C444 0.948 . S
O463 Zn453 2.039 . S
O463 C467 1.251 . S
O464 Zn445 2.025 . S
O464 C467 1.254 . S
O465 C446 1.246 . S
O465 Zn453 2.034 . S
O466 Zn445 2.024 . S
O466 C446 1.249 . S
C467 O463 1.251 . S
C467 O464 1.254 . S
H468 C441 0.949 . S
H469 C443 0.950 . S
H470 C450 0.949 . S
H471 C452 0.950 . S
C472 O488 1.268 . S
C472 O490 1.254 1_545 S
N473 C474 1.333 . S
N473 C478 1.307 . S
N473 Zn479 2.020 . S
C474 N473 1.333 . S
C474 C475 1.379 . S
C474 H492 0.952 . S
C475 C474 1.379 . S
C475 C476 1.390 . S
C475 H502 0.949 . S
C476 C475 1.390 . S
C476 C477 1.357 . S
C477 C476 1.357 . S
C477 C478 1.370 . S
C477 H503 0.950 . S
C478 N473 1.307 . S
C478 C477 1.370 . S
C478 H496 0.948 . S
Zn479 N473 2.020 . S
Zn479 O488 2.039 . S
Zn479 O494 2.034 . S
Zn479 O498 2.025 . S
Zn479 O500 2.024 1_545 S
C480 O499 1.246 . S
C480 O500 1.249 . S
N481 C482 1.307 . S
N481 C483 1.333 1_455 S
N481 Zn487 2.020 1_565 S
C482 N481 1.307 . S
C482 C486 1.370 . S
C482 H493 0.948 1_565 S
C483 N481 1.333 1_655 S
C483 C484 1.379 . S
C483 H491 0.952 . S
C484 C483 1.379 . S
C484 C485 1.390 . S
C484 H504 0.949 . S
C485 C484 1.390 . S
C485 C486 1.357 1_655 S
C486 C482 1.370 . S
C486 C485 1.357 1_455 S
C486 H505 0.950 . S
Zn487 N481 2.020 1_545 S
Zn487 O490 2.022 1_545 S
Zn487 O495 2.024 . S
Zn487 O497 2.039 1_455 S
Zn487 O499 2.034 1_545 S
O488 C472 1.268 . S
O488 Zn479 2.039 . S
C489 O494 1.246 . S
C489 O495 1.249 . S
O490 C472 1.254 1_565 S
O490 Zn487 2.022 1_565 S
H491 C483 0.952 . S
H492 C474 0.952 . S
H493 C482 0.948 1_545 S
O494 Zn479 2.034 . S
O494 C489 1.246 . S
O495 Zn487 2.024 . S
O495 C489 1.249 . S
H496 C478 0.948 . S
O497 Zn487 2.039 1_655 S
O497 C501 1.251 . S
O498 Zn479 2.025 . S
O498 C501 1.254 1_455 S
O499 C480 1.246 . S
O499 Zn487 2.034 1_565 S
O500 Zn479 2.024 1_565 S
O500 C480 1.249 . S
C501 O497 1.251 . S
C501 O498 1.254 1_655 S
H502 C475 0.949 . S
H503 C477 0.950 . S
H504 C484 0.949 . S
H505 C486 0.950 . S
C506 O522 1.251 . S
C506 O524 1.254 . S
N507 C508 1.333 . S
N507 C512 1.307 . S
N507 Zn513 2.020 . S
C508 N507 1.333 . S
C508 C509 1.379 . S
C508 H526 0.952 . S
C509 C508 1.379 . S
C509 C510 1.390 . S
C509 H536 0.949 . S
C510 C509 1.390 . S
C510 C511 1.357 . S
C511 C510 1.357 . S
C511 C512 1.370 . S
C511 H537 0.950 . S
C512 N507 1.307 . S
C512 C511 1.370 . S
C512 H530 0.948 . S
Zn513 N507 2.020 . S
Zn513 O522 2.039 . S
Zn513 O528 2.034 . S
Zn513 O532 2.025 . S
Zn513 O534 2.024 . S
C514 O533 1.246 . S
C514 O534 1.249 . S
N515 C516 1.307 . S
N515 C517 1.333 . S
N515 Zn521 2.020 . S
C516 N515 1.307 . S
C516 C520 1.370 . S
C516 H527 0.948 . S
C517 N515 1.333 . S
C517 C518 1.379 . S
C517 H525 0.952 . S
C518 C517 1.379 . S
C518 C519 1.390 . S
C518 H538 0.949 . S
C519 C518 1.390 . S
C519 C520 1.357 . S
C520 C516 1.370 . S
C520 C519 1.357 . S
C520 H539 0.950 . S
Zn521 N515 2.020 . S
Zn521 O524 2.025 . S
Zn521 O529 2.024 . S
Zn521 O531 2.039 . S
Zn521 O533 2.034 . S
O522 C506 1.251 . S
O522 Zn513 2.039 . S
C523 O528 1.246 . S
C523 O529 1.249 . S
O524 C506 1.254 . S
O524 Zn521 2.025 . S
H525 C517 0.952 . S
H526 C508 0.952 . S
H527 C516 0.948 . S
O528 Zn513 2.034 . S
O528 C523 1.246 . S
O529 Zn521 2.024 . S
O529 C523 1.249 . S
H530 C512 0.948 . S
O531 Zn521 2.039 . S
O531 C535 1.251 . S
O532 Zn513 2.025 . S
O532 C535 1.254 . S
O533 C514 1.246 . S
O533 Zn521 2.034 . S
O534 Zn513 2.024 . S
O534 C514 1.249 . S
C535 O531 1.251 . S
C535 O532 1.254 . S
H536 C509 0.949 . S
H537 C511 0.950 . S
H538 C518 0.949 . S
H539 C520 0.950 . S
C540 O556 1.251 . S
C540 O558 1.254 . S
N541 C542 1.333 . S
N541 C546 1.307 . S
N541 Zn547 2.020 . S
C542 N541 1.333 . S
C542 C543 1.379 . S
C542 H560 0.952 . S
C543 C542 1.379 . S
C543 C544 1.390 . S
C543 H570 0.949 . S
C544 C543 1.390 . S
C544 C545 1.357 . S
C545 C544 1.357 . S
C545 C546 1.370 . S
C545 H571 0.950 . S
C546 N541 1.307 . S
C546 C545 1.370 . S
C546 H564 0.948 . S
Zn547 N541 2.020 . S
Zn547 O556 2.039 1_545 S
Zn547 O562 2.034 . S
Zn547 O566 2.025 . S
Zn547 O568 2.024 . S
C548 O567 1.246 . S
C548 O568 1.249 . S
N549 C550 1.307 1_545 S
N549 C551 1.333 . S
N549 Zn555 2.020 1_556 S
C550 N549 1.307 1_565 S
C550 C554 1.370 . S
C550 H561 0.948 . S
C551 N549 1.333 . S
C551 C552 1.379 . S
C551 H559 0.952 . S
C552 C551 1.379 . S
C552 C553 1.390 1_545 S
C552 H572 0.949 . S
C553 C552 1.390 1_565 S
C553 C554 1.357 . S
C554 C550 1.370 . S
C554 C553 1.357 . S
C554 H573 0.950 . S
Zn555 N549 2.020 1_554 S
Zn555 O558 2.025 1_545 S
Zn555 O563 2.024 . S
Zn555 O565 2.039 . S
Zn555 O567 2.034 . S
O556 C540 1.251 . S
O556 Zn547 2.039 1_565 S
C557 O562 1.246 . S
C557 O563 1.249 . S
O558 C540 1.254 . S
O558 Zn555 2.025 1_565 S
H559 C551 0.952 . S
H560 C542 0.952 . S
H561 C550 0.948 . S
O562 Zn547 2.034 . S
O562 C557 1.246 . S
O563 Zn555 2.024 . S
O563 C557 1.249 . S
H564 C546 0.948 . S
O565 Zn555 2.039 . S
O565 C569 1.251 . S
O566 Zn547 2.025 . S
O566 C569 1.254 . S
O567 C548 1.246 . S
O567 Zn555 2.034 . S
O568 Zn547 2.024 . S
O568 C548 1.249 . S
C569 O565 1.251 . S
C569 O566 1.254 . S
H570 C543 0.949 . S
H571 C545 0.950 . S
H572 C552 0.949 . S
H573 C554 0.950 . S
C574 O590 1.251 . S
C574 O592 1.254 . S
N575 C576 1.333 . S
N575 C580 1.307 . S
N575 Zn581 2.020 . S
C576 N575 1.333 . S
C576 C577 1.379 . S
C576 H594 0.952 . S
C577 C576 1.379 . S
C577 C578 1.390 . S
C577 H604 0.949 . S
C578 C577 1.390 . S
C578 C579 1.357 . S
C579 C578 1.357 . S
C579 C580 1.370 . S
C579 H605 0.950 . S
C580 N575 1.307 . S
C580 C579 1.370 . S
C580 H598 0.948 . S
Zn581 N575 2.020 . S
Zn581 O590 2.039 . S
Zn581 O596 2.034 . S
Zn581 O600 2.025 . S
Zn581 O602 2.024 . S
C582 O601 1.246 . S
C582 O602 1.249 . S
N583 C584 1.307 . S
N583 C585 1.333 . S
N583 Zn589 2.020 . S
C584 N583 1.307 . S
C584 C588 1.370 . S
C584 H595 0.948 . S
C585 N583 1.333 . S
C585 C586 1.379 . S
C585 H593 0.952 . S
C586 C585 1.379 . S
C586 C587 1.390 . S
C586 H606 0.949 . S
C587 C586 1.390 . S
C587 C588 1.357 . S
C588 C584 1.370 . S
C588 C587 1.357 . S
C588 H607 0.950 . S
Zn589 N583 2.020 . S
Zn589 O592 2.025 . S
Zn589 O597 2.024 . S
Zn589 O599 2.039 . S
Zn589 O601 2.034 . S
O590 C574 1.251 . S
O590 Zn581 2.039 . S
C591 O596 1.246 . S
C591 O597 1.249 . S
O592 C574 1.254 . S
O592 Zn589 2.025 . S
H593 C585 0.952 . S
H594 C576 0.952 . S
H595 C584 0.948 . S
O596 Zn581 2.034 . S
O596 C591 1.246 . S
O597 Zn589 2.024 . S
O597 C591 1.249 . S
H598 C580 0.948 . S
O599 Zn589 2.039 . S
O599 C603 1.251 . S
O600 Zn581 2.025 . S
O600 C603 1.254 . S
O601 C582 1.246 . S
O601 Zn589 2.034 . S
O602 Zn581 2.024 . S
O602 C582 1.249 . S
C603 O599 1.251 . S
C603 O600 1.254 . S
H604 C577 0.949 . S
H605 C579 0.950 . S
H606 C586 0.949 . S
H607 C588 0.950 . S
C608 O624 1.251 . S
C608 O626 1.254 . S
N609 C610 1.333 . S
N609 C614 1.307 . S
N609 Zn615 2.020 1_556 S
C610 N609 1.333 . S
C610 C611 1.379 . S
C610 H628 0.952 . S
C611 C610 1.379 . S
C611 C612 1.390 . S
C611 H638 0.949 . S
C612 C611 1.390 . S
C612 C613 1.357 . S
C613 C612 1.357 . S
C613 C614 1.370 . S
C613 H639 0.950 . S
C614 N609 1.307 . S
C614 C613 1.370 . S
C614 H632 0.948 . S
Zn615 N609 2.020 1_554 S
Zn615 O624 2.039 . S
Zn615 O630 2.034 . S
Zn615 O634 2.025 . S
Zn615 O636 2.024 . S
C616 O635 1.246 . S
C616 O636 1.249 . S
N617 C618 1.307 . S
N617 C619 1.333 . S
N617 Zn623 2.020 . S
C618 N617 1.307 . S
C618 C622 1.370 . S
C618 H629 0.948 . S
C619 N617 1.333 . S
C619 C620 1.379 . S
C619 H627 0.952 . S
C620 C619 1.379 . S
C620 C621 1.390 . S
C620 H640 0.949 . S
C621 C620 1.390 . S
C621 C622 1.357 . S
C622 C618 1.370 . S
C622 C621 1.357 . S
C622 H641 0.950 . S
Zn623 N617 2.020 . S
Zn623 O626 2.025 . S
Zn623 O631 2.024 . S
Zn623 O633 2.039 . S
Zn623 O635 2.034 . S
O624 C608 1.251 . S
O624 Zn615 2.039 . S
C625 O630 1.246 . S
C625 O631 1.249 . S
O626 C608 1.254 . S
O626 Zn623 2.025 . S
H627 C619 0.952 . S
H628 C610 0.952 . S
H629 C618 0.948 . S
O630 Zn615 2.034 . S
O630 C625 1.246 . S
O631 Zn623 2.024 . S
O631 C625 1.249 . S
H632 C614 0.948 . S
O633 Zn623 2.039 . S
O633 C637 1.251 . S
O634 Zn615 2.025 . S
O634 C637 1.254 . S
O635 C616 1.246 . S
O635 Zn623 2.034 . S
O636 Zn615 2.024 . S
O636 C616 1.249 . S
C637 O633 1.251 . S
C637 O634 1.254 . S
H638 C611 0.949 . S
H639 C613 0.950 . S
H640 C620 0.949 . S
H641 C622 0.950 . S
C642 O658 1.251 . S
C642 O660 1.254 . S
N643 C644 1.333 . S
N643 C648 1.307 . S
N643 Zn649 2.020 . S
C644 N643 1.333 . S
C644 C645 1.379 . S
C644 H662 0.952 . S
C645 C644 1.379 . S
C645 C646 1.390 . S
C645 H672 0.949 . S
C646 C645 1.390 . S
C646 C647 1.357 . S
C647 C646 1.357 . S
C647 C648 1.370 . S
C647 H673 0.950 . S
C648 N643 1.307 . S
C648 C647 1.370 . S
C648 H666 0.948 . S
Zn649 N643 2.020 . S
Zn649 O658 2.039 . S
Zn649 O664 2.034 . S
Zn649 O668 2.025 . S
Zn649 O670 2.024 . S
C650 O669 1.246 . S
C650 O670 1.249 . S
N651 C652 1.307 . S
N651 C653 1.333 . S
N651 Zn657 2.020 . S
C652 N651 1.307 . S
C652 C656 1.370 . S
C652 H663 0.948 . S
C653 N651 1.333 . S
C653 C654 1.379 . S
C653 H661 0.952 . S
C654 C653 1.379 . S
C654 C655 1.390 . S
C654 H674 0.949 . S
C655 C654 1.390 . S
C655 C656 1.357 . S
C656 C652 1.370 . S
C656 C655 1.357 . S
C656 H675 0.950 . S
Zn657 N651 2.020 . S
Zn657 O660 2.025 . S
Zn657 O665 2.024 . S
Zn657 O667 2.039 . S
Zn657 O669 2.034 . S
O658 C642 1.251 . S
O658 Zn649 2.039 . S
C659 O664 1.246 . S
C659 O665 1.249 . S
O660 C642 1.254 . S
O660 Zn657 2.025 . S
H661 C653 0.952 . S
H662 C644 0.952 . S
H663 C652 0.948 . S
O664 Zn649 2.034 . S
O664 C659 1.246 . S
O665 Zn657 2.024 . S
O665 C659 1.249 . S
H666 C648 0.948 . S
O667 Zn657 2.039 . S
O667 C671 1.251 . S
O668 Zn649 2.025 . S
O668 C671 1.254 . S
O669 C650 1.246 . S
O669 Zn657 2.034 . S
O670 Zn649 2.024 . S
O670 C650 1.249 . S
C671 O667 1.251 . S
C671 O668 1.254 . S
H672 C645 0.949 . S
H673 C647 0.950 . S
H674 C654 0.949 . S
H675 C656 0.950 . S
C676 O692 1.251 . S
C676 O694 1.254 . S
N677 C678 1.333 . S
N677 C682 1.307 . S
N677 Zn683 2.020 . S
C678 N677 1.333 . S
C678 C679 1.379 . S
C678 H696 0.952 . S
C679 C678 1.379 . S
C679 C680 1.390 . S
C679 H706 0.949 . S
C680 C679 1.390 . S
C680 C681 1.357 . S
C681 C680 1.357 . S
C681 C682 1.370 . S
C681 H707 0.950 . S
C682 N677 1.307 . S
C682 C681 1.370 . S
C682 H700 0.948 . S
Zn683 N677 2.020 . S
Zn683 O692 2.039 . S
Zn683 O698 2.034 . S
Zn683 O702 2.025 . S
Zn683 O704 2.024 . S
C684 O703 1.246 . S
C684 O704 1.249 . S
N685 C686 1.305 . S
N685 C687 1.333 . S
N685 Zn691 2.020 . S
C686 N685 1.305 . S
C686 C690 1.371 1_455 S
C686 H697 0.950 1_455 S
C687 N685 1.333 . S
C687 C688 1.379 . S
C687 H695 0.952 . S
C688 C687 1.379 . S
C688 C689 1.390 . S
C688 H708 0.949 . S
C689 C688 1.390 . S
C689 C690 1.357 1_455 S
C690 C686 1.371 1_655 S
C690 C689 1.357 1_655 S
C690 H709 0.950 . S
Zn691 N685 2.020 . S
Zn691 O694 2.025 . S
Zn691 O699 1.998 1_455 S
Zn691 O701 2.039 . S
Zn691 O703 2.034 . S
O692 C676 1.251 . S
O692 Zn683 2.039 . S
C693 O698 1.246 1_655 S
C693 O699 1.252 . S
O694 C676 1.254 . S
O694 Zn691 2.025 . S
H695 C687 0.952 . S
H696 C678 0.952 . S
H697 C686 0.950 1_655 S
O698 Zn683 2.034 . S
O698 C693 1.246 1_455 S
O699 Zn691 1.998 1_655 S
O699 C693 1.252 . S
H700 C682 0.948 . S
O701 Zn691 2.039 . S
O701 C705 1.251 . S
O702 Zn683 2.025 . S
O702 C705 1.254 . S
O703 C684 1.246 . S
O703 Zn691 2.034 . S
O704 Zn683 2.024 . S
O704 C684 1.249 . S
C705 O701 1.251 . S
C705 O702 1.254 . S
H706 C679 0.949 . S
H707 C681 0.950 . S
H708 C688 0.949 . S
H709 C690 0.950 . S
C710 O726 1.251 . S
C710 O728 1.254 . S
N711 C712 1.333 . S
N711 C716 1.307 . S
N711 Zn717 2.020 . S
C712 N711 1.333 . S
C712 C713 1.379 . S
C712 H730 0.952 . S
C713 C712 1.379 . S
C713 C714 1.390 . S
C713 H740 0.949 . S
C714 C713 1.390 . S
C714 C715 1.357 . S
C715 C714 1.357 . S
C715 C716 1.370 . S
C715 H741 0.950 . S
C716 N711 1.307 . S
C716 C715 1.370 . S
C716 H734 0.948 . S
Zn717 N711 2.020 . S
Zn717 O726 2.039 . S
Zn717 O732 2.034 . S
Zn717 O736 2.025 . S
Zn717 O738 2.024 . S
C718 O737 1.246 . S
C718 O738 1.249 . S
N719 C720 1.307 . S
N719 C721 1.333 . S
N719 Zn725 2.020 . S
C720 N719 1.307 . S
C720 C724 1.370 . S
C720 H731 0.948 . S
C721 N719 1.333 . S
C721 C722 1.379 . S
C721 H729 0.952 . S
C722 C721 1.379 . S
C722 C723 1.390 . S
C722 H742 0.949 . S
C723 C722 1.390 . S
C723 C724 1.357 . S
C724 C720 1.370 . S
C724 C723 1.357 . S
C724 H743 0.950 . S
Zn725 N719 2.020 . S
Zn725 O728 2.025 . S
Zn725 O733 2.024 . S
Zn725 O735 2.039 . S
Zn725 O737 2.034 . S
O726 C710 1.251 . S
O726 Zn717 2.039 . S
C727 O732 1.246 . S
C727 O733 1.249 . S
O728 C710 1.254 . S
O728 Zn725 2.025 . S
H729 C721 0.952 . S
H730 C712 0.952 . S
H731 C720 0.948 . S
O732 Zn717 2.034 . S
O732 C727 1.246 . S
O733 Zn725 2.024 . S
O733 C727 1.249 . S
H734 C716 0.948 . S
O735 Zn725 2.039 . S
O735 C739 1.251 . S
O736 Zn717 2.025 . S
O736 C739 1.254 . S
O737 C718 1.246 . S
O737 Zn725 2.034 . S
O738 Zn717 2.024 . S
O738 C718 1.249 . S
C739 O735 1.251 . S
C739 O736 1.254 . S
H740 C713 0.949 . S
H741 C715 0.950 . S
H742 C722 0.949 . S
H743 C724 0.950 . S
C744 O760 1.251 . S
C744 O762 1.254 . S
N745 C746 1.333 . S
N745 C750 1.307 . S
N745 Zn751 2.020 . S
C746 N745 1.333 . S
C746 C747 1.379 . S
C746 H764 0.952 . S
C747 C746 1.379 . S
C747 C748 1.390 . S
C747 H774 0.949 . S
C748 C747 1.390 . S
C748 C749 1.357 . S
C749 C748 1.357 . S
C749 C750 1.370 . S
C749 H775 0.950 . S
C750 N745 1.307 . S
C750 C749 1.370 . S
C750 H768 0.948 . S
Zn751 N745 2.020 . S
Zn751 O760 2.039 . S
Zn751 O766 2.034 . S
Zn751 O770 2.025 . S
Zn751 O772 2.024 . S
C752 O771 1.246 . S
C752 O772 1.249 . S
N753 C754 1.307 . S
N753 C755 1.333 . S
N753 Zn759 2.020 . S
C754 N753 1.307 . S
C754 C758 1.370 . S
C754 H765 0.948 . S
C755 N753 1.333 . S
C755 C756 1.379 . S
C755 H763 0.952 . S
C756 C755 1.379 . S
C756 C757 1.390 . S
C756 H776 0.949 . S
C757 C756 1.390 . S
C757 C758 1.357 . S
C758 C754 1.370 . S
C758 C757 1.357 . S
C758 H777 0.950 . S
Zn759 N753 2.020 . S
Zn759 O762 2.025 . S
Zn759 O767 2.024 . S
Zn759 O769 2.039 . S
Zn759 O771 2.034 . S
O760 C744 1.251 . S
O760 Zn751 2.039 . S
C761 O766 1.246 . S
C761 O767 1.249 . S
O762 C744 1.254 . S
O762 Zn759 2.025 . S
H763 C755 0.952 . S
H764 C746 0.952 . S
H765 C754 0.948 . S
O766 Zn751 2.034 . S
O766 C761 1.246 . S
O767 Zn759 2.024 . S
O767 C761 1.249 . S
H768 C750 0.948 . S
O769 Zn759 2.039 . S
O769 C773 1.251 . S
O770 Zn751 2.025 . S
O770 C773 1.254 . S
O771 C752 1.246 . S
O771 Zn759 2.034 . S
O772 Zn751 2.024 . S
O772 C752 1.249 . S
C773 O769 1.251 . S
C773 O770 1.254 . S
H774 C747 0.949 . S
H775 C749 0.950 . S
H776 C756 0.949 . S
H777 C758 0.950 . S
C778 O794 1.251 . S
C778 O796 1.254 . S
N779 C780 1.333 . S
N779 C784 1.307 . S
N779 Zn785 2.020 . S
C780 N779 1.333 . S
C780 C781 1.379 . S
C780 H798 0.952 . S
C781 C780 1.379 . S
C781 C782 1.390 . S
C781 H808 0.949 . S
C782 C781 1.390 . S
C782 C783 1.357 . S
C783 C782 1.357 . S
C783 C784 1.370 . S
C783 H809 0.950 . S
C784 N779 1.307 . S
C784 C783 1.370 . S
C784 H802 0.948 . S
Zn785 N779 2.020 . S
Zn785 O794 2.039 . S
Zn785 O800 2.034 . S
Zn785 O804 2.025 . S
Zn785 O806 2.024 . S
C786 O805 1.246 . S
C786 O806 1.249 . S
N787 C788 1.307 . S
N787 C789 1.333 . S
N787 Zn793 2.020 . S
C788 N787 1.307 . S
C788 C792 1.370 . S
C788 H799 0.948 . S
C789 N787 1.333 . S
C789 C790 1.379 . S
C789 H797 0.952 . S
C790 C789 1.379 . S
C790 C791 1.390 . S
C790 H810 0.949 . S
C791 C790 1.390 . S
C791 C792 1.357 . S
C792 C788 1.370 . S
C792 C791 1.357 . S
C792 H811 0.950 . S
Zn793 N787 2.020 . S
Zn793 O796 2.025 . S
Zn793 O801 2.024 . S
Zn793 O803 2.039 . S
Zn793 O805 2.034 . S
O794 C778 1.251 . S
O794 Zn785 2.039 . S
C795 O800 1.246 . S
C795 O801 1.249 . S
O796 C778 1.254 . S
O796 Zn793 2.025 . S
H797 C789 0.952 . S
H798 C780 0.952 . S
H799 C788 0.948 . S
O800 Zn785 2.034 . S
O800 C795 1.246 . S
O801 Zn793 2.024 . S
O801 C795 1.249 . S
H802 C784 0.948 . S
O803 Zn793 2.039 . S
O803 C807 1.251 . S
O804 Zn785 2.025 . S
O804 C807 1.254 . S
O805 C786 1.246 . S
O805 Zn793 2.034 . S
O806 Zn785 2.024 . S
O806 C786 1.249 . S
C807 O803 1.251 . S
C807 O804 1.254 . S
H808 C781 0.949 . S
H809 C783 0.950 . S
H810 C790 0.949 . S
H811 C792 0.950 . S
C812 O828 1.251 . S
C812 O830 1.254 . S
N813 C814 1.333 . S
N813 C818 1.307 . S
N813 Zn819 2.020 . S
C814 N813 1.333 . S
C814 C815 1.379 . S
C814 H832 0.952 . S
C815 C814 1.379 . S
C815 C816 1.390 . S
C815 H842 0.949 . S
C816 C815 1.390 . S
C816 C817 1.357 . S
C817 C816 1.357 . S
C817 C818 1.370 . S
C817 H843 0.950 . S
C818 N813 1.307 . S
C818 C817 1.370 . S
C818 H836 0.948 . S
Zn819 N813 2.020 . S
Zn819 O828 2.039 . S
Zn819 O834 2.034 . S
Zn819 O838 2.025 . S
Zn819 O840 2.024 . S
C820 O839 1.246 . S
C820 O840 1.249 . S
N821 C822 1.307 . S
N821 C823 1.333 . S
N821 Zn827 2.020 . S
C822 N821 1.307 . S
C822 C826 1.370 . S
C822 H833 0.948 . S
C823 N821 1.333 . S
C823 C824 1.379 . S
C823 H831 0.952 . S
C824 C823 1.379 . S
C824 C825 1.390 . S
C824 H844 0.949 . S
C825 C824 1.390 . S
C825 C826 1.357 . S
C826 C822 1.370 . S
C826 C825 1.357 . S
C826 H845 0.950 . S
Zn827 N821 2.020 . S
Zn827 O830 2.025 . S
Zn827 O835 2.024 . S
Zn827 O837 2.039 . S
Zn827 O839 2.034 . S
O828 C812 1.251 . S
O828 Zn819 2.039 . S
C829 O834 1.246 . S
C829 O835 1.249 . S
O830 C812 1.254 . S
O830 Zn827 2.025 . S
H831 C823 0.952 . S
H832 C814 0.952 . S
H833 C822 0.948 . S
O834 Zn819 2.034 . S
O834 C829 1.246 . S
O835 Zn827 2.024 . S
O835 C829 1.249 . S
H836 C818 0.948 . S
O837 Zn827 2.039 . S
O837 C841 1.251 . S
O838 Zn819 2.025 . S
O838 C841 1.254 . S
O839 C820 1.246 . S
O839 Zn827 2.034 . S
O840 Zn819 2.024 . S
O840 C820 1.249 . S
C841 O837 1.251 . S
C841 O838 1.254 . S
H842 C815 0.949 . S
H843 C817 0.950 . S
H844 C824 0.949 . S
H845 C826 0.950 . S
C846 O862 1.251 . S
C846 O864 1.254 . S
N847 C848 1.333 . S
N847 C852 1.307 . S
N847 Zn853 2.020 . S
C848 N847 1.333 . S
C848 C849 1.379 . S
C848 H866 0.952 . S
C849 C848 1.379 . S
C849 C850 1.390 . S
C849 H876 0.949 . S
C850 C849 1.390 . S
C850 C851 1.357 . S
C851 C850 1.357 . S
C851 C852 1.370 . S
C851 H877 0.950 . S
C852 N847 1.307 . S
C852 C851 1.370 . S
C852 H870 0.948 . S
Zn853 N847 2.020 . S
Zn853 O862 2.039 . S
Zn853 O868 2.034 . S
Zn853 O872 2.025 . S
Zn853 O874 2.024 . S
C854 O873 1.246 1_655 S
C854 O874 1.249 1_655 S
N855 C856 1.307 . S
N855 C857 1.333 1_554 S
N855 Zn861 2.020 . S
C856 N855 1.307 . S
C856 C860 1.370 . S
C856 H867 0.948 . S
C857 N855 1.333 1_556 S
C857 C858 1.379 . S
C857 H865 0.952 . S
C858 C857 1.379 . S
C858 C859 1.390 . S
C858 H878 0.949 . S
C859 C858 1.390 . S
C859 C860 1.357 1_556 S
C860 C856 1.370 . S
C860 C859 1.357 1_554 S
C860 H879 0.950 . S
Zn861 N855 2.020 . S
Zn861 O864 2.025 . S
Zn861 O869 2.024 . S
Zn861 O871 2.002 1_554 S
Zn861 O873 2.034 . S
O862 C846 1.251 . S
O862 Zn853 2.039 . S
C863 O868 1.246 . S
C863 O869 1.249 . S
O864 C846 1.254 . S
O864 Zn861 2.025 . S
H865 C857 0.952 . S
H866 C848 0.952 . S
H867 C856 0.948 . S
O868 Zn853 2.034 . S
O868 C863 1.246 . S
O869 Zn861 2.024 . S
O869 C863 1.249 . S
H870 C852 0.948 . S
O871 Zn861 2.002 1_556 S
O871 C875 1.258 . S
O872 Zn853 2.025 . S
O872 C875 1.254 1_554 S
O873 C854 1.246 1_455 S
O873 Zn861 2.034 . S
O874 Zn853 2.024 . S
O874 C854 1.249 1_455 S
C875 O871 1.258 . S
C875 O872 1.254 1_556 S
H876 C849 0.949 . S
H877 C851 0.950 . S
H878 C858 0.949 . S
H879 C860 0.950 . S
H880 C892 0.930 . S
H881 C894 0.930 . S
H882 C895 0.930 . S
H883 C899 0.959 . S
H884 C899 0.959 1_655 S
H885 C899 0.972 . S
H886 C900 0.960 . S
H887 C900 0.961 . S
H888 C900 0.959 . S
H889 C903 0.929 . S
H890 C904 0.931 . S
H891 C906 0.930 . S
C892 H880 0.930 . S
C892 C893 1.399 . S
C892 C897 1.399 . S
C893 C892 1.399 . S
C893 C894 1.376 . S
C894 H881 0.930 . S
C894 C893 1.376 . S
C894 C895 1.388 . S
C895 H882 0.930 . S
C895 C894 1.388 . S
C895 C896 1.390 . S
C896 C895 1.390 . S
C896 C897 1.394 . S
C896 C902 1.465 . S
C897 C892 1.399 . S
C897 C896 1.394 . S
C897 C898 1.516 . S
C898 C897 1.516 . S
C898 C899 1.502 . S
C898 C900 1.561 . S
C898 C901 1.526 . S
C899 H883 0.959 . S
C899 H884 0.959 1_455 S
C899 H885 0.972 . S
C899 C898 1.502 . S
C900 H886 0.960 . S
C900 H887 0.961 . S
C900 H888 0.959 . S
C900 C898 1.561 . S
C901 C898 1.526 . S
C901 C902 1.396 . S
C901 C906 1.390 . S
C902 C896 1.465 . S
C902 C901 1.396 . S
C902 C903 1.399 . S
C903 H889 0.929 . S
C903 C902 1.399 . S
C903 C904 1.385 . S
C904 H890 0.931 . S
C904 C903 1.385 . S
C904 C905 1.389 . S
C905 C904 1.389 . S
C905 C906 1.387 . S
C906 H891 0.930 . S
C906 C901 1.390 . S
C906 C905 1.387 . S
H907 C919 0.930 . S
H908 C921 0.930 . S
H909 C922 0.930 . S
H910 C926 0.959 . S
H911 C926 0.959 . S
H912 C926 0.961 . S
H913 C927 0.960 . S
H914 C927 0.961 . S
H915 C927 0.959 . S
H916 C930 0.929 . S
H917 C931 0.931 . S
H918 C933 0.930 . S
C919 H907 0.930 . S
C919 C920 1.399 . S
C919 C924 1.399 . S
C920 C919 1.399 . S
C920 C921 1.376 . S
C921 H908 0.930 . S
C921 C920 1.376 . S
C921 C922 1.388 . S
C922 H909 0.930 . S
C922 C921 1.388 . S
C922 C923 1.390 . S
C923 C922 1.390 . S
C923 C924 1.394 . S
C923 C929 1.465 . S
C924 C919 1.399 . S
C924 C923 1.394 . S
C924 C925 1.516 . S
C925 C924 1.516 . S
C925 C926 1.502 . S
C925 C927 1.561 . S
C925 C928 1.526 . S
C926 H910 0.959 . S
C926 H911 0.959 . S
C926 H912 0.961 . S
C926 C925 1.502 . S
C927 H913 0.960 . S
C927 H914 0.961 . S
C927 H915 0.959 . S
C927 C925 1.561 . S
C928 C925 1.526 . S
C928 C929 1.396 . S
C928 C933 1.390 . S
C929 C923 1.465 . S
C929 C928 1.396 . S
C929 C930 1.399 . S
C930 H916 0.929 . S
C930 C929 1.399 . S
C930 C931 1.385 . S
C931 H917 0.931 . S
C931 C930 1.385 . S
C931 C932 1.389 . S
C932 C931 1.389 . S
C932 C933 1.387 . S
C933 H918 0.930 . S
C933 C928 1.390 . S
C933 C932 1.387 . S
H934 C946 0.930 . S
H935 C948 0.930 . S
H936 C949 0.930 . S
H937 C953 0.959 . S
H938 C953 0.959 . S
H939 C953 0.961 . S
H940 C954 0.960 . S
H941 C954 0.961 . S
H942 C954 0.959 . S
H943 C957 0.929 . S
H944 C958 0.931 . S
H945 C960 0.930 . S
C946 H934 0.930 . S
C946 C947 1.399 . S
C946 C951 1.399 . S
C947 C946 1.399 . S
C947 C948 1.376 . S
C948 H935 0.930 . S
C948 C947 1.376 . S
C948 C949 1.388 . S
C949 H936 0.930 . S
C949 C948 1.388 . S
C949 C950 1.390 . S
C950 C949 1.390 . S
C950 C951 1.394 . S
C950 C956 1.465 . S
C951 C946 1.399 . S
C951 C950 1.394 . S
C951 C952 1.516 . S
C952 C951 1.516 . S
C952 C953 1.502 . S
C952 C954 1.561 . S
C952 C955 1.526 . S
C953 H937 0.959 . S
C953 H938 0.959 . S
C953 H939 0.961 . S
C953 C952 1.502 . S
C954 H940 0.960 . S
C954 H941 0.961 . S
C954 H942 0.959 . S
C954 C952 1.561 . S
C955 C952 1.526 . S
C955 C956 1.396 . S
C955 C960 1.390 . S
C956 C950 1.465 . S
C956 C955 1.396 . S
C956 C957 1.399 . S
C957 H943 0.929 . S
C957 C956 1.399 . S
C957 C958 1.385 . S
C958 H944 0.931 . S
C958 C957 1.385 . S
C958 C959 1.389 . S
C959 C958 1.389 . S
C959 C960 1.387 . S
C960 H945 0.930 . S
C960 C955 1.390 . S
C960 C959 1.387 . S
H961 C973 0.930 . S
H962 C975 0.930 . S
H963 C976 0.930 . S
H964 C980 0.959 . S
H965 C980 0.959 . S
H966 C980 0.961 . S
H967 C981 0.960 . S
H968 C981 0.961 . S
H969 C981 0.959 . S
H970 C984 0.929 . S
H971 C985 0.931 . S
H972 C987 0.930 . S
C973 H961 0.930 . S
C973 C974 1.399 . S
C973 C978 1.399 . S
C974 C973 1.399 . S
C974 C975 1.376 . S
C975 H962 0.930 . S
C975 C974 1.376 . S
C975 C976 1.388 . S
C976 H963 0.930 . S
C976 C975 1.388 . S
C976 C977 1.390 . S
C977 C976 1.390 . S
C977 C978 1.394 . S
C977 C983 1.465 . S
C978 C973 1.399 . S
C978 C977 1.394 . S
C978 C979 1.516 . S
C979 C978 1.516 . S
C979 C980 1.502 . S
C979 C981 1.561 . S
C979 C982 1.526 . S
C980 H964 0.959 . S
C980 H965 0.959 . S
C980 H966 0.961 . S
C980 C979 1.502 . S
C981 H967 0.960 . S
C981 H968 0.961 . S
C981 H969 0.959 . S
C981 C979 1.561 . S
C982 C979 1.526 . S
C982 C983 1.396 . S
C982 C987 1.390 . S
C983 C977 1.465 . S
C983 C982 1.396 . S
C983 C984 1.399 . S
C984 H970 0.929 . S
C984 C983 1.399 . S
C984 C985 1.385 . S
C985 H971 0.931 . S
C985 C984 1.385 . S
C985 C986 1.389 . S
C986 C985 1.389 . S
C986 C987 1.387 . S
C987 H972 0.930 . S
C987 C982 1.390 . S
C987 C986 1.387 . S
H988 C1000 0.930 . S
H989 C1002 0.930 . S
H990 C1003 0.930 1_655 S
H991 C1007 0.959 . S
H992 C1007 0.959 . S
H993 C1007 0.961 . S
H994 C1008 0.960 . S
H995 C1008 0.961 . S
H996 C1008 0.959 . S
H997 C1011 0.929 1_655 S
H998 C1012 0.931 1_655 S
H999 C1014 0.930 . S
C1000 H988 0.930 . S
C1000 C1001 1.399 . S
C1000 C1005 1.399 . S
C1001 C1000 1.399 . S
C1001 C1002 1.376 . S
C1002 H989 0.930 . S
C1002 C1001 1.376 . S
C1002 C1003 1.388 . S
C1003 H990 0.930 1_455 S
C1003 C1002 1.388 . S
C1003 C1004 1.390 . S
C1004 C1003 1.390 . S
C1004 C1005 1.394 . S
C1004 C1010 1.465 . S
C1005 C1000 1.399 . S
C1005 C1004 1.394 . S
C1005 C1006 1.516 . S
C1006 C1005 1.516 . S
C1006 C1007 1.502 . S
C1006 C1008 1.561 . S
C1006 C1009 1.526 . S
C1007 H991 0.959 . S
C1007 H992 0.959 . S
C1007 H993 0.961 . S
C1007 C1006 1.502 . S
C1008 H994 0.960 . S
C1008 H995 0.961 . S
C1008 H996 0.959 . S
C1008 C1006 1.561 . S
C1009 C1006 1.526 . S
C1009 C1010 1.396 . S
C1009 C1014 1.390 . S
C1010 C1004 1.465 . S
C1010 C1009 1.396 . S
C1010 C1011 1.399 . S
C1011 H997 0.929 1_455 S
C1011 C1010 1.399 . S
C1011 C1012 1.385 . S
C1012 H998 0.931 1_455 S
C1012 C1011 1.385 . S
C1012 C1013 1.389 . S
C1013 C1012 1.389 . S
C1013 C1014 1.387 . S
C1014 H999 0.930 . S
C1014 C1009 1.390 . S
C1014 C1013 1.387 . S
H1015 C1027 0.930 . S
H1016 C1029 0.930 . S
H1017 C1030 0.930 . S
H1018 C1034 0.959 . S
H1019 C1034 0.959 . S
H1020 C1034 0.961 . S
H1021 C1035 0.960 . S
H1022 C1035 0.961 . S
H1023 C1035 0.959 . S
H1024 C1038 0.929 . S
H1025 C1039 0.931 . S
H1026 C1041 0.930 . S
C1027 H1015 0.930 . S
C1027 C1028 1.399 . S
C1027 C1032 1.399 . S
C1028 C1027 1.399 . S
C1028 C1029 1.376 . S
C1029 H1016 0.930 . S
C1029 C1028 1.376 . S
C1029 C1030 1.388 . S
C1030 H1017 0.930 . S
C1030 C1029 1.388 . S
C1030 C1031 1.390 . S
C1031 C1030 1.390 . S
C1031 C1032 1.394 . S
C1031 C1037 1.465 . S
C1032 C1027 1.399 . S
C1032 C1031 1.394 . S
C1032 C1033 1.516 . S
C1033 C1032 1.516 . S
C1033 C1034 1.502 . S
C1033 C1035 1.561 . S
C1033 C1036 1.526 . S
C1034 H1018 0.959 . S
C1034 H1019 0.959 . S
C1034 H1020 0.961 . S
C1034 C1033 1.502 . S
C1035 H1021 0.960 . S
C1035 H1022 0.961 . S
C1035 H1023 0.959 . S
C1035 C1033 1.561 . S
C1036 C1033 1.526 . S
C1036 C1037 1.396 . S
C1036 C1041 1.390 . S
C1037 C1031 1.465 . S
C1037 C1036 1.396 . S
C1037 C1038 1.399 . S
C1038 H1024 0.929 . S
C1038 C1037 1.399 . S
C1038 C1039 1.385 . S
C1039 H1025 0.931 . S
C1039 C1038 1.385 . S
C1039 C1040 1.389 . S
C1040 C1039 1.389 . S
C1040 C1041 1.387 . S
C1041 H1026 0.930 . S
C1041 C1036 1.390 . S
C1041 C1040 1.387 . S
H1042 C1054 0.930 . S
H1043 C1056 0.930 . S
H1044 C1057 0.930 . S
H1045 C1061 0.959 . S
H1046 C1061 0.959 . S
H1047 C1061 0.961 1_556 S
H1048 C1062 0.960 . S
H1049 C1062 0.961 . S
H1050 C1062 0.959 . S
H1051 C1065 0.929 . S
H1052 C1066 0.931 . S
H1053 C1068 0.930 . S
C1054 H1042 0.930 . S
C1054 C1055 1.399 . S
C1054 C1059 1.399 . S
C1055 C1054 1.399 . S
C1055 C1056 1.376 . S
C1056 H1043 0.930 . S
C1056 C1055 1.376 . S
C1056 C1057 1.388 . S
C1057 H1044 0.930 . S
C1057 C1056 1.388 . S
C1057 C1058 1.390 . S
C1058 C1057 1.390 . S
C1058 C1059 1.394 . S
C1058 C1064 1.465 . S
C1059 C1054 1.399 . S
C1059 C1058 1.394 . S
C1059 C1060 1.516 . S
C1060 C1059 1.516 . S
C1060 C1061 1.502 1_556 S
C1060 C1062 1.561 . S
C1060 C1063 1.526 . S
C1061 H1045 0.959 . S
C1061 H1046 0.959 . S
C1061 H1047 0.961 1_554 S
C1061 C1060 1.502 1_554 S
C1062 H1048 0.960 . S
C1062 H1049 0.961 . S
C1062 H1050 0.959 . S
C1062 C1060 1.561 . S
C1063 C1060 1.526 . S
C1063 C1064 1.396 . S
C1063 C1068 1.390 1_556 S
C1064 C1058 1.465 . S
C1064 C1063 1.396 . S
C1064 C1065 1.399 . S
C1065 H1051 0.929 . S
C1065 C1064 1.399 . S
C1065 C1066 1.385 . S
C1066 H1052 0.931 . S
C1066 C1065 1.385 . S
C1066 C1067 1.389 1_556 S
C1067 C1066 1.389 1_554 S
C1067 C1068 1.387 . S
C1068 H1053 0.930 . S
C1068 C1063 1.390 1_554 S
C1068 C1067 1.387 . S
H1069 C1081 0.930 . S
H1070 C1083 0.930 . S
H1071 C1084 0.930 . S
H1072 C1088 0.959 . S
H1073 C1088 0.959 . S
H1074 C1088 0.961 . S
H1075 C1089 0.960 . S
H1076 C1089 0.961 . S
H1077 C1089 0.959 . S
H1078 C1092 0.929 . S
H1079 C1093 0.931 . S
H1080 C1095 0.930 . S
C1081 H1069 0.930 . S
C1081 C1082 1.399 . S
C1081 C1086 1.399 . S
C1082 C1081 1.399 . S
C1082 C1083 1.376 . S
C1083 H1070 0.930 . S
C1083 C1082 1.376 . S
C1083 C1084 1.388 . S
C1084 H1071 0.930 . S
C1084 C1083 1.388 . S
C1084 C1085 1.390 . S
C1085 C1084 1.390 . S
C1085 C1086 1.394 . S
C1085 C1091 1.465 . S
C1086 C1081 1.399 . S
C1086 C1085 1.394 . S
C1086 C1087 1.516 . S
C1087 C1086 1.516 . S
C1087 C1088 1.502 . S
C1087 C1089 1.561 . S
C1087 C1090 1.526 . S
C1088 H1072 0.959 . S
C1088 H1073 0.959 . S
C1088 H1074 0.961 . S
C1088 C1087 1.502 . S
C1089 H1075 0.960 . S
C1089 H1076 0.961 . S
C1089 H1077 0.959 . S
C1089 C1087 1.561 . S
C1090 C1087 1.526 . S
C1090 C1091 1.396 . S
C1090 C1095 1.390 . S
C1091 C1085 1.465 . S
C1091 C1090 1.396 . S
C1091 C1092 1.399 . S
C1092 H1078 0.929 . S
C1092 C1091 1.399 . S
C1092 C1093 1.385 . S
C1093 H1079 0.931 . S
C1093 C1092 1.385 . S
C1093 C1094 1.389 . S
C1094 C1093 1.389 . S
C1094 C1095 1.387 . S
C1095 H1080 0.930 . S
C1095 C1090 1.390 . S
C1095 C1094 1.387 . S
H1096 C1108 0.930 . S
H1097 C1110 0.930 . S
H1098 C1111 0.930 . S
H1099 C1115 0.959 . S
H1100 C1115 0.959 . S
H1101 C1115 0.961 . S
H1102 C1116 0.960 . S
H1103 C1116 0.961 . S
H1104 C1116 0.959 . S
H1105 C1119 0.929 . S
H1106 C1120 0.931 . S
H1107 C1122 0.930 . S
C1108 H1096 0.930 . S
C1108 C1109 1.399 1_565 S
C1108 C1113 1.399 . S
C1109 C1108 1.399 1_545 S
C1109 C1110 1.376 . S
C1110 H1097 0.930 . S
C1110 C1109 1.376 . S
C1110 C1111 1.388 . S
C1111 H1098 0.930 . S
C1111 C1110 1.388 . S
C1111 C1112 1.390 . S
C1112 C1111 1.390 . S
C1112 C1113 1.394 1_545 S
C1112 C1118 1.465 . S
C1113 C1108 1.399 . S
C1113 C1112 1.394 1_565 S
C1113 C1114 1.516 . S
C1114 C1113 1.516 . S
C1114 C1115 1.502 . S
C1114 C1116 1.561 . S
C1114 C1117 1.526 . S
C1115 H1099 0.959 . S
C1115 H1100 0.959 . S
C1115 H1101 0.961 . S
C1115 C1114 1.502 . S
C1116 H1102 0.960 . S
C1116 H1103 0.961 . S
C1116 H1104 0.959 . S
C1116 C1114 1.561 . S
C1117 C1114 1.526 . S
C1117 C1118 1.396 1_565 S
C1117 C1122 1.390 . S
C1118 C1112 1.465 . S
C1118 C1117 1.396 1_545 S
C1118 C1119 1.399 . S
C1119 H1105 0.929 . S
C1119 C1118 1.399 . S
C1119 C1120 1.385 . S
C1120 H1106 0.931 . S
C1120 C1119 1.385 . S
C1120 C1121 1.389 1_545 S
C1121 C1120 1.389 1_565 S
C1121 C1122 1.387 . S
C1122 H1107 0.930 . S
C1122 C1117 1.390 . S
C1122 C1121 1.387 . S
H1123 C1135 0.930 . S
H1124 C1137 0.930 . S
H1125 C1138 0.930 . S
H1126 C1142 0.959 . S
H1127 C1142 0.959 . S
H1128 C1142 0.961 . S
H1129 C1143 0.960 . S
H1130 C1143 0.961 . S
H1131 C1143 0.959 . S
H1132 C1146 0.929 . S
H1133 C1147 0.931 . S
H1134 C1149 0.930 . S
C1135 H1123 0.930 . S
C1135 C1136 1.399 . S
C1135 C1140 1.399 . S
C1136 C1135 1.399 . S
C1136 C1137 1.376 . S
C1137 H1124 0.930 . S
C1137 C1136 1.376 . S
C1137 C1138 1.388 . S
C1138 H1125 0.930 . S
C1138 C1137 1.388 . S
C1138 C1139 1.390 . S
C1139 C1138 1.390 . S
C1139 C1140 1.394 . S
C1139 C1145 1.465 . S
C1140 C1135 1.399 . S
C1140 C1139 1.394 . S
C1140 C1141 1.516 . S
C1141 C1140 1.516 . S
C1141 C1142 1.502 . S
C1141 C1143 1.561 . S
C1141 C1144 1.526 . S
C1142 H1126 0.959 . S
C1142 H1127 0.959 . S
C1142 H1128 0.961 . S
C1142 C1141 1.502 . S
C1143 H1129 0.960 . S
C1143 H1130 0.961 . S
C1143 H1131 0.959 . S
C1143 C1141 1.561 . S
C1144 C1141 1.526 . S
C1144 C1145 1.396 . S
C1144 C1149 1.390 . S
C1145 C1139 1.465 . S
C1145 C1144 1.396 . S
C1145 C1146 1.399 . S
C1146 H1132 0.929 . S
C1146 C1145 1.399 . S
C1146 C1147 1.385 . S
C1147 H1133 0.931 . S
C1147 C1146 1.385 . S
C1147 C1148 1.389 . S
C1148 C1147 1.389 . S
C1148 C1149 1.387 . S
C1149 H1134 0.930 . S
C1149 C1144 1.390 . S
C1149 C1148 1.387 . S
H1150 C1162 0.930 1_565 S
H1151 C1164 0.930 . S
H1152 C1165 0.930 . S
H1153 C1169 0.959 . S
H1154 C1169 0.959 . S
H1155 C1169 0.961 . S
H1156 C1170 0.960 . S
H1157 C1170 0.961 . S
H1158 C1170 0.959 . S
H1159 C1173 0.929 . S
H1160 C1174 0.931 . S
H1161 C1176 0.930 . S
C1162 H1150 0.930 1_545 S
C1162 C1163 1.399 . S
C1162 C1167 1.399 . S
C1163 C1162 1.399 . S
C1163 C1164 1.376 . S
C1164 H1151 0.930 . S
C1164 C1163 1.376 . S
C1164 C1165 1.388 . S
C1165 H1152 0.930 . S
C1165 C1164 1.388 . S
C1165 C1166 1.390 . S
C1166 C1165 1.390 . S
C1166 C1167 1.394 . S
C1166 C1172 1.465 . S
C1167 C1162 1.399 . S
C1167 C1166 1.394 . S
C1167 C1168 1.516 1_545 S
C1168 C1167 1.516 1_565 S
C1168 C1169 1.502 . S
C1168 C1170 1.561 . S
C1168 C1171 1.526 1_565 S
C1169 H1153 0.959 . S
C1169 H1154 0.959 . S
C1169 H1155 0.961 . S
C1169 C1168 1.502 . S
C1170 H1156 0.960 . S
C1170 H1157 0.961 . S
C1170 H1158 0.959 . S
C1170 C1168 1.561 . S
C1171 C1168 1.526 1_545 S
C1171 C1172 1.396 . S
C1171 C1176 1.390 . S
C1172 C1166 1.465 . S
C1172 C1171 1.396 . S
C1172 C1173 1.399 . S
C1173 H1159 0.929 . S
C1173 C1172 1.399 . S
C1173 C1174 1.385 . S
C1174 H1160 0.931 . S
C1174 C1173 1.385 . S
C1174 C1175 1.389 . S
C1175 C1174 1.389 . S
C1175 C1176 1.387 . S
C1176 H1161 0.930 . S
C1176 C1171 1.390 . S
C1176 C1175 1.387 . S
H1177 C1189 0.930 . S
H1178 C1191 0.930 . S
H1179 C1192 0.930 . S
H1180 C1196 0.959 . S
H1181 C1196 0.959 . S
H1182 C1196 0.961 . S
H1183 C1197 0.960 . S
H1184 C1197 0.961 . S
H1185 C1197 0.959 . S
H1186 C1200 0.929 . S
H1187 C1201 0.931 . S
H1188 C1203 0.930 . S
C1189 H1177 0.930 . S
C1189 C1190 1.399 . S
C1189 C1194 1.399 . S
C1190 C1189 1.399 . S
C1190 C1191 1.376 . S
C1191 H1178 0.930 . S
C1191 C1190 1.376 . S
C1191 C1192 1.388 . S
C1192 H1179 0.930 . S
C1192 C1191 1.388 . S
C1192 C1193 1.390 . S
C1193 C1192 1.390 . S
C1193 C1194 1.394 . S
C1193 C1199 1.465 . S
C1194 C1189 1.399 . S
C1194 C1193 1.394 . S
C1194 C1195 1.516 . S
C1195 C1194 1.516 . S
C1195 C1196 1.502 . S
C1195 C1197 1.561 . S
C1195 C1198 1.526 . S
C1196 H1180 0.959 . S
C1196 H1181 0.959 . S
C1196 H1182 0.961 . S
C1196 C1195 1.502 . S
C1197 H1183 0.960 . S
C1197 H1184 0.961 . S
C1197 H1185 0.959 . S
C1197 C1195 1.561 . S
C1198 C1195 1.526 . S
C1198 C1199 1.396 . S
C1198 C1203 1.390 . S
C1199 C1193 1.465 . S
C1199 C1198 1.396 . S
C1199 C1200 1.399 . S
C1200 H1186 0.929 . S
C1200 C1199 1.399 . S
C1200 C1201 1.385 . S
C1201 H1187 0.931 . S
C1201 C1200 1.385 . S
C1201 C1202 1.389 . S
C1202 C1201 1.389 . S
C1202 C1203 1.387 . S
C1203 H1188 0.930 . S
C1203 C1198 1.390 . S
C1203 C1202 1.387 . S
H1204 C1216 0.930 . S
H1205 C1218 0.941 . S
H1206 C1219 0.937 . S
H1207 C1223 0.959 . S
H1208 C1223 0.959 . S
H1209 C1223 0.961 . S
H1210 C1224 0.960 . S
H1211 C1224 0.961 . S
H1212 C1224 0.959 . S
H1213 C1227 0.929 1_565 S
H1214 C1228 0.931 . S
H1215 C1230 0.930 . S
C1216 H1204 0.930 . S
C1216 C1217 1.399 . S
C1216 C1221 1.399 . S
C1217 C1216 1.399 . S
C1217 C1218 1.366 1_545 S
C1218 H1205 0.941 . S
C1218 C1217 1.366 1_565 S
C1218 C1219 1.388 . S
C1219 H1206 0.937 . S
C1219 C1218 1.388 . S
C1219 C1220 1.383 1_565 S
C1220 C1219 1.383 1_545 S
C1220 C1221 1.394 . S
C1220 C1226 1.465 . S
C1221 C1216 1.399 . S
C1221 C1220 1.394 . S
C1221 C1222 1.516 . S
C1222 C1221 1.516 . S
C1222 C1223 1.502 . S
C1222 C1224 1.561 . S
C1222 C1225 1.526 . S
C1223 H1207 0.959 . S
C1223 H1208 0.959 . S
C1223 H1209 0.961 . S
C1223 C1222 1.502 . S
C1224 H1210 0.960 . S
C1224 H1211 0.961 . S
C1224 H1212 0.959 . S
C1224 C1222 1.561 . S
C1225 C1222 1.526 . S
C1225 C1226 1.396 . S
C1225 C1230 1.390 . S
C1226 C1220 1.465 . S
C1226 C1225 1.396 . S
C1226 C1227 1.399 . S
C1227 H1213 0.929 1_545 S
C1227 C1226 1.399 . S
C1227 C1228 1.385 . S
C1228 H1214 0.931 . S
C1228 C1227 1.385 . S
C1228 C1229 1.389 . S
C1229 C1228 1.389 . S
C1229 C1230 1.387 . S
C1230 H1215 0.930 . S
C1230 C1225 1.390 . S
C1230 C1229 1.387 . S
H1231 C1243 0.930 . S
H1232 C1245 0.930 . S
H1233 C1246 0.930 . S
H1234 C1250 0.959 . S
H1235 C1250 0.959 . S
H1236 C1250 0.961 . S
H1237 C1251 0.960 . S
H1238 C1251 0.961 . S
H1239 C1251 0.959 . S
H1240 C1254 0.929 . S
H1241 C1255 0.931 . S
H1242 C1257 0.930 . S
C1243 H1231 0.930 . S
C1243 C1244 1.399 . S
C1243 C1248 1.399 . S
C1244 C1243 1.399 . S
C1244 C1245 1.376 . S
C1245 H1232 0.930 . S
C1245 C1244 1.376 . S
C1245 C1246 1.388 . S
C1246 H1233 0.930 . S
C1246 C1245 1.388 . S
C1246 C1247 1.390 . S
C1247 C1246 1.390 . S
C1247 C1248 1.394 . S
C1247 C1253 1.465 . S
C1248 C1243 1.399 . S
C1248 C1247 1.394 . S
C1248 C1249 1.516 . S
C1249 C1248 1.516 . S
C1249 C1250 1.502 . S
C1249 C1251 1.561 . S
C1249 C1252 1.526 . S
C1250 H1234 0.959 . S
C1250 H1235 0.959 . S
C1250 H1236 0.961 . S
C1250 C1249 1.502 . S
C1251 H1237 0.960 . S
C1251 H1238 0.961 . S
C1251 H1239 0.959 . S
C1251 C1249 1.561 . S
C1252 C1249 1.526 . S
C1252 C1253 1.396 . S
C1252 C1257 1.390 . S
C1253 C1247 1.465 . S
C1253 C1252 1.396 . S
C1253 C1254 1.399 . S
C1254 H1240 0.929 . S
C1254 C1253 1.399 . S
C1254 C1255 1.385 . S
C1255 H1241 0.931 . S
C1255 C1254 1.385 . S
C1255 C1256 1.389 . S
C1256 C1255 1.389 . S
C1256 C1257 1.387 . S
C1257 H1242 0.930 . S
C1257 C1252 1.390 . S
C1257 C1256 1.387 . S
H1258 C1270 0.930 . S
H1259 C1272 0.930 . S
H1260 C1273 0.928 1_565 S
H1261 C1277 0.959 . S
H1262 C1277 0.959 . S
H1263 C1277 0.961 . S
H1264 C1278 0.960 . S
H1265 C1278 0.961 . S
H1266 C1278 0.959 . S
H1267 C1281 0.929 . S
H1268 C1282 0.931 . S
H1269 C1284 0.930 . S
C1270 H1258 0.930 . S
C1270 C1271 1.399 . S
C1270 C1275 1.399 . S
C1271 C1270 1.399 . S
C1271 C1272 1.376 . S
C1272 H1259 0.930 . S
C1272 C1271 1.376 . S
C1272 C1273 1.388 . S
C1273 H1260 0.928 1_545 S
C1273 C1272 1.388 . S
C1273 C1274 1.390 1_545 S
C1274 C1273 1.390 1_565 S
C1274 C1275 1.394 1_565 S
C1274 C1280 1.465 . S
C1275 C1270 1.399 . S
C1275 C1274 1.394 1_545 S
C1275 C1276 1.516 1_545 S
C1276 C1275 1.516 1_565 S
C1276 C1277 1.502 1_565 S
C1276 C1278 1.561 . S
C1276 C1279 1.526 . S
C1277 H1261 0.959 . S
C1277 H1262 0.959 . S
C1277 H1263 0.961 . S
C1277 C1276 1.502 1_545 S
C1278 H1264 0.960 . S
C1278 H1265 0.961 . S
C1278 H1266 0.959 . S
C1278 C1276 1.561 . S
C1279 C1276 1.526 . S
C1279 C1280 1.396 . S
C1279 C1284 1.390 . S
C1280 C1274 1.465 . S
C1280 C1279 1.396 . S
C1280 C1281 1.399 . S
C1281 H1267 0.929 . S
C1281 C1280 1.399 . S
C1281 C1282 1.385 . S
C1282 H1268 0.931 . S
C1282 C1281 1.385 . S
C1282 C1283 1.389 . S
C1283 C1282 1.389 . S
C1283 C1284 1.387 . S
C1284 H1269 0.930 . S
C1284 C1279 1.390 . S
C1284 C1283 1.387 . S
H1285 C1297 0.930 . S
H1286 C1299 0.930 . S
H1287 C1300 0.930 . S
H1288 C1304 0.959 . S
H1289 C1304 0.959 . S
H1290 C1304 0.961 . S
H1291 C1305 0.960 . S
H1292 C1305 0.961 . S
H1293 C1305 0.959 . S
H1294 C1308 0.929 . S
H1295 C1309 0.931 . S
H1296 C1311 0.930 . S
C1297 H1285 0.930 . S
C1297 C1298 1.399 . S
C1297 C1302 1.399 . S
C1298 C1297 1.399 . S
C1298 C1299 1.376 . S
C1299 H1286 0.930 . S
C1299 C1298 1.376 . S
C1299 C1300 1.388 . S
C1300 H1287 0.930 . S
C1300 C1299 1.388 . S
C1300 C1301 1.390 . S
C1301 C1300 1.390 . S
C1301 C1302 1.394 . S
C1301 C1307 1.465 . S
C1302 C1297 1.399 . S
C1302 C1301 1.394 . S
C1302 C1303 1.516 . S
C1303 C1302 1.516 . S
C1303 C1304 1.502 . S
C1303 C1305 1.561 . S
C1303 C1306 1.526 . S
C1304 H1288 0.959 . S
C1304 H1289 0.959 . S
C1304 H1290 0.961 . S
C1304 C1303 1.502 . S
C1305 H1291 0.960 . S
C1305 H1292 0.961 . S
C1305 H1293 0.959 . S
C1305 C1303 1.561 . S
C1306 C1303 1.526 . S
C1306 C1307 1.396 . S
C1306 C1311 1.390 . S
C1307 C1301 1.465 . S
C1307 C1306 1.396 . S
C1307 C1308 1.399 . S
C1308 H1294 0.929 . S
C1308 C1307 1.399 . S
C1308 C1309 1.385 . S
C1309 H1295 0.931 . S
C1309 C1308 1.385 . S
C1309 C1310 1.389 . S
C1310 C1309 1.389 . S
C1310 C1311 1.387 . S
C1311 H1296 0.930 . S
C1311 C1306 1.390 . S
C1311 C1310 1.387 . S
H1312 C1324 0.930 . S
H1313 C1326 0.930 . S
H1314 C1327 0.930 . S
H1315 C1331 0.959 . S
H1316 C1331 0.959 . S
H1317 C1331 0.961 . S
H1318 C1332 0.960 . S
H1319 C1332 0.961 . S
H1320 C1332 0.959 . S
H1321 C1335 0.929 . S
H1322 C1336 0.931 . S
H1323 C1338 0.930 . S
C1324 H1312 0.930 . S
C1324 C1325 1.399 . S
C1324 C1329 1.399 . S
C1325 C1324 1.399 . S
C1325 C1326 1.376 1_554 S
C1326 H1313 0.930 . S
C1326 C1325 1.376 1_556 S
C1326 C1327 1.388 . S
C1327 H1314 0.930 . S
C1327 C1326 1.388 . S
C1327 C1328 1.390 1_556 S
C1328 C1327 1.390 1_554 S
C1328 C1329 1.394 . S
C1328 C1334 1.465 . S
C1329 C1324 1.399 . S
C1329 C1328 1.394 . S
C1329 C1330 1.516 . S
C1330 C1329 1.516 . S
C1330 C1331 1.502 . S
C1330 C1332 1.561 . S
C1330 C1333 1.526 . S
C1331 H1315 0.959 . S
C1331 H1316 0.959 . S
C1331 H1317 0.961 . S
C1331 C1330 1.502 . S
C1332 H1318 0.960 . S
C1332 H1319 0.961 . S
C1332 H1320 0.959 . S
C1332 C1330 1.561 . S
C1333 C1330 1.526 . S
C1333 C1334 1.396 . S
C1333 C1338 1.390 . S
C1334 C1328 1.465 . S
C1334 C1333 1.396 . S
C1334 C1335 1.399 1_554 S
C1335 H1321 0.929 . S
C1335 C1334 1.399 1_556 S
C1335 C1336 1.385 . S
C1336 H1322 0.931 . S
C1336 C1335 1.385 . S
C1336 C1337 1.389 1_556 S
C1337 C1336 1.389 1_554 S
C1337 C1338 1.387 . S
C1338 H1323 0.930 . S
C1338 C1333 1.390 . S
C1338 C1337 1.387 . S
H1339 C1351 0.930 . S
H1340 C1353 0.930 . S
H1341 C1354 0.930 . S
H1342 C1358 0.959 . S
H1343 C1358 0.959 . S
H1344 C1358 0.961 . S
H1345 C1359 0.960 . S
H1346 C1359 0.964 1_556 S
H1347 C1359 0.959 . S
H1348 C1362 0.929 . S
H1349 C1363 0.931 . S
H1350 C1365 0.930 . S
C1351 H1339 0.930 . S
C1351 C1352 1.399 . S
C1351 C1356 1.399 . S
C1352 C1351 1.399 . S
C1352 C1353 1.376 . S
C1353 H1340 0.930 . S
C1353 C1352 1.376 . S
C1353 C1354 1.388 . S
C1354 H1341 0.930 . S
C1354 C1353 1.388 . S
C1354 C1355 1.390 . S
C1355 C1354 1.390 . S
C1355 C1356 1.394 . S
C1355 C1361 1.465 . S
C1356 C1351 1.399 . S
C1356 C1355 1.394 . S
C1356 C1357 1.516 . S
C1357 C1356 1.516 . S
C1357 C1358 1.502 . S
C1357 C1359 1.561 . S
C1357 C1360 1.526 . S
C1358 H1342 0.959 . S
C1358 H1343 0.959 . S
C1358 H1344 0.961 . S
C1358 C1357 1.502 . S
C1359 H1345 0.960 . S
C1359 H1346 0.964 1_554 S
C1359 H1347 0.959 . S
C1359 C1357 1.561 . S
C1360 C1357 1.526 . S
C1360 C1361 1.396 . S
C1360 C1365 1.390 . S
C1361 C1355 1.465 . S
C1361 C1360 1.396 . S
C1361 C1362 1.399 . S
C1362 H1348 0.929 . S
C1362 C1361 1.399 . S
C1362 C1363 1.385 . S
C1363 H1349 0.931 . S
C1363 C1362 1.385 . S
C1363 C1364 1.389 . S
C1364 C1363 1.389 . S
C1364 C1365 1.387 . S
C1365 H1350 0.930 . S
C1365 C1360 1.390 . S
C1365 C1364 1.387 . S
H1366 C1378 0.930 . S
H1367 C1380 0.930 . S
H1368 C1381 0.930 . S
H1369 C1385 0.959 . S
H1370 C1385 0.959 . S
H1371 C1385 0.961 . S
H1372 C1386 0.960 . S
H1373 C1386 0.961 . S
H1374 C1386 0.959 . S
H1375 C1389 0.929 . S
H1376 C1390 0.931 . S
H1377 C1392 0.930 . S
C1378 H1366 0.930 . S
C1378 C1379 1.399 . S
C1378 C1383 1.399 . S
C1379 C1378 1.399 . S
C1379 C1380 1.376 . S
C1380 H1367 0.930 . S
C1380 C1379 1.376 . S
C1380 C1381 1.388 . S
C1381 H1368 0.930 . S
C1381 C1380 1.388 . S
C1381 C1382 1.390 . S
C1382 C1381 1.390 . S
C1382 C1383 1.394 . S
C1382 C1388 1.465 . S
C1383 C1378 1.399 . S
C1383 C1382 1.394 . S
C1383 C1384 1.516 . S
C1384 C1383 1.516 . S
C1384 C1385 1.502 . S
C1384 C1386 1.561 . S
C1384 C1387 1.526 . S
C1385 H1369 0.959 . S
C1385 H1370 0.959 . S
C1385 H1371 0.961 . S
C1385 C1384 1.502 . S
C1386 H1372 0.960 . S
C1386 H1373 0.961 . S
C1386 H1374 0.959 . S
C1386 C1384 1.561 . S
C1387 C1384 1.526 . S
C1387 C1388 1.396 . S
C1387 C1392 1.390 . S
C1388 C1382 1.465 . S
C1388 C1387 1.396 . S
C1388 C1389 1.399 . S
C1389 H1375 0.929 . S
C1389 C1388 1.399 . S
C1389 C1390 1.385 . S
C1390 H1376 0.931 . S
C1390 C1389 1.385 . S
C1390 C1391 1.389 . S
C1391 C1390 1.389 . S
C1391 C1392 1.387 . S
C1392 H1377 0.930 . S
C1392 C1387 1.390 . S
C1392 C1391 1.387 . S
H1393 C1405 0.930 . S
H1394 C1407 0.930 . S
H1395 C1408 0.930 . S
H1396 C1412 0.959 . S
H1397 C1412 0.959 . S
H1398 C1412 0.961 . S
H1399 C1413 0.960 . S
H1400 C1413 0.961 . S
H1401 C1413 0.959 . S
H1402 C1416 0.929 . S
H1403 C1417 0.931 . S
H1404 C1419 0.930 . S
C1405 H1393 0.930 . S
C1405 C1406 1.399 . S
C1405 C1410 1.399 . S
C1406 C1405 1.399 . S
C1406 C1407 1.376 . S
C1407 H1394 0.930 . S
C1407 C1406 1.376 . S
C1407 C1408 1.388 . S
C1408 H1395 0.930 . S
C1408 C1407 1.388 . S
C1408 C1409 1.390 . S
C1409 C1408 1.390 . S
C1409 C1410 1.394 . S
C1409 C1415 1.465 . S
C1410 C1405 1.399 . S
C1410 C1409 1.394 . S
C1410 C1411 1.516 . S
C1411 C1410 1.516 . S
C1411 C1412 1.502 . S
C1411 C1413 1.561 . S
C1411 C1414 1.526 . S
C1412 H1396 0.959 . S
C1412 H1397 0.959 . S
C1412 H1398 0.961 . S
C1412 C1411 1.502 . S
C1413 H1399 0.960 . S
C1413 H1400 0.961 . S
C1413 H1401 0.959 . S
C1413 C1411 1.561 . S
C1414 C1411 1.526 . S
C1414 C1415 1.396 . S
C1414 C1419 1.390 . S
C1415 C1409 1.465 . S
C1415 C1414 1.396 . S
C1415 C1416 1.399 . S
C1416 H1402 0.929 . S
C1416 C1415 1.399 . S
C1416 C1417 1.385 . S
C1417 H1403 0.931 . S
C1417 C1416 1.385 . S
C1417 C1418 1.389 . S
C1418 C1417 1.389 . S
C1418 C1419 1.387 . S
C1419 H1404 0.930 . S
C1419 C1414 1.390 . S
C1419 C1418 1.387 . S
H1420 C1432 0.930 . S
H1421 C1434 0.930 . S
H1422 C1435 0.930 . S
H1423 C1439 0.959 . S
H1424 C1439 0.959 . S
H1425 C1439 0.961 . S
H1426 C1440 0.960 . S
H1427 C1440 0.961 . S
H1428 C1440 0.959 . S
H1429 C1443 0.929 . S
H1430 C1444 0.931 . S
H1431 C1446 0.930 . S
C1432 H1420 0.930 . S
C1432 C1433 1.399 . S
C1432 C1437 1.399 . S
C1433 C1432 1.399 . S
C1433 C1434 1.376 . S
C1434 H1421 0.930 . S
C1434 C1433 1.376 . S
C1434 C1435 1.388 . S
C1435 H1422 0.930 . S
C1435 C1434 1.388 . S
C1435 C1436 1.390 . S
C1436 C1435 1.390 . S
C1436 C1437 1.394 . S
C1436 C1442 1.465 . S
C1437 C1432 1.399 . S
C1437 C1436 1.394 . S
C1437 C1438 1.516 . S
C1438 C1437 1.516 . S
C1438 C1439 1.502 . S
C1438 C1440 1.561 . S
C1438 C1441 1.526 . S
C1439 H1423 0.959 . S
C1439 H1424 0.959 . S
C1439 H1425 0.961 . S
C1439 C1438 1.502 . S
C1440 H1426 0.960 . S
C1440 H1427 0.961 . S
C1440 H1428 0.959 . S
C1440 C1438 1.561 . S
C1441 C1438 1.526 . S
C1441 C1442 1.396 . S
C1441 C1446 1.390 . S
C1442 C1436 1.465 . S
C1442 C1441 1.396 . S
C1442 C1443 1.399 . S
C1443 H1429 0.929 . S
C1443 C1442 1.399 . S
C1443 C1444 1.385 . S
C1444 H1430 0.931 . S
C1444 C1443 1.385 . S
C1444 C1445 1.389 . S
C1445 C1444 1.389 . S
C1445 C1446 1.387 . S
C1446 H1431 0.930 . S
C1446 C1441 1.390 . S
C1446 C1445 1.387 . S
H1447 C1459 0.930 . S
H1448 C1461 0.930 . S
H1449 C1462 0.930 . S
H1450 C1466 0.963 . S
H1451 C1466 0.963 . S
H1452 C1466 0.960 1_565 S
H1453 C1467 0.960 . S
H1454 C1467 0.961 . S
H1455 C1467 0.959 . S
H1456 C1470 0.929 . S
H1457 C1471 0.931 . S
H1458 C1473 0.930 1_545 S
C1459 H1447 0.930 . S
C1459 C1460 1.399 . S
C1459 C1464 1.399 . S
C1460 C1459 1.399 . S
C1460 C1461 1.376 . S
C1461 H1448 0.930 . S
C1461 C1460 1.376 . S
C1461 C1462 1.388 . S
C1462 H1449 0.930 . S
C1462 C1461 1.388 . S
C1462 C1463 1.390 . S
C1463 C1462 1.390 . S
C1463 C1464 1.394 . S
C1463 C1469 1.465 . S
C1464 C1459 1.399 . S
C1464 C1463 1.394 . S
C1464 C1465 1.516 . S
C1465 C1464 1.516 . S
C1465 C1466 1.496 1_565 S
C1465 C1467 1.561 . S
C1465 C1468 1.526 . S
C1466 H1450 0.963 . S
C1466 H1451 0.963 . S
C1466 H1452 0.960 1_545 S
C1466 C1465 1.496 1_545 S
C1467 H1453 0.960 . S
C1467 H1454 0.961 . S
C1467 H1455 0.959 . S
C1467 C1465 1.561 . S
C1468 C1465 1.526 . S
C1468 C1469 1.396 . S
C1468 C1473 1.390 . S
C1469 C1463 1.465 . S
C1469 C1468 1.396 . S
C1469 C1470 1.399 . S
C1470 H1456 0.929 . S
C1470 C1469 1.399 . S
C1470 C1471 1.385 . S
C1471 H1457 0.931 . S
C1471 C1470 1.385 . S
C1471 C1472 1.389 . S
C1472 C1471 1.389 . S
C1472 C1473 1.387 . S
C1473 H1458 0.930 1_565 S
C1473 C1468 1.390 . S
C1473 C1472 1.387 . S
H1474 C1486 0.930 . S
H1475 C1488 0.930 . S
H1476 C1489 0.930 . S
H1477 C1493 0.959 . S
H1478 C1493 0.959 . S
H1479 C1493 0.961 . S
H1480 C1494 0.960 . S
H1481 C1494 0.961 . S
H1482 C1494 0.959 . S
H1483 C1497 0.929 . S
H1484 C1498 0.931 . S
H1485 C1500 0.930 . S
C1486 H1474 0.930 . S
C1486 C1487 1.399 . S
C1486 C1491 1.399 . S
C1487 C1486 1.399 . S
C1487 C1488 1.376 . S
C1488 H1475 0.930 . S
C1488 C1487 1.376 . S
C1488 C1489 1.388 . S
C1489 H1476 0.930 . S
C1489 C1488 1.388 . S
C1489 C1490 1.390 . S
C1490 C1489 1.390 . S
C1490 C1491 1.394 . S
C1490 C1496 1.465 . S
C1491 C1486 1.399 . S
C1491 C1490 1.394 . S
C1491 C1492 1.516 . S
C1492 C1491 1.516 . S
C1492 C1493 1.502 . S
C1492 C1494 1.561 . S
C1492 C1495 1.526 . S
C1493 H1477 0.959 . S
C1493 H1478 0.959 . S
C1493 H1479 0.961 . S
C1493 C1492 1.502 . S
C1494 H1480 0.960 . S
C1494 H1481 0.961 . S
C1494 H1482 0.959 . S
C1494 C1492 1.561 . S
C1495 C1492 1.526 . S
C1495 C1496 1.396 . S
C1495 C1500 1.390 . S
C1496 C1490 1.465 . S
C1496 C1495 1.396 . S
C1496 C1497 1.399 . S
C1497 H1483 0.929 . S
C1497 C1496 1.399 . S
C1497 C1498 1.385 . S
C1498 H1484 0.931 . S
C1498 C1497 1.385 . S
C1498 C1499 1.389 . S
C1499 C1498 1.389 . S
C1499 C1500 1.387 . S
C1500 H1485 0.930 . S
C1500 C1495 1.390 . S
C1500 C1499 1.387 . S
H1501 C1513 0.930 . S
H1502 C1515 0.930 . S
H1503 C1516 0.930 . S
H1504 C1520 0.959 . S
H1505 C1520 0.959 . S
H1506 C1520 0.961 . S
H1507 C1521 0.960 . S
H1508 C1521 0.961 . S
H1509 C1521 0.959 . S
H1510 C1524 0.929 . S
H1511 C1525 0.931 . S
H1512 C1527 0.930 . S
C1513 H1501 0.930 . S
C1513 C1514 1.399 . S
C1513 C1518 1.399 . S
C1514 C1513 1.399 . S
C1514 C1515 1.376 . S
C1515 H1502 0.930 . S
C1515 C1514 1.376 . S
C1515 C1516 1.388 . S
C1516 H1503 0.930 . S
C1516 C1515 1.388 . S
C1516 C1517 1.390 . S
C1517 C1516 1.390 . S
C1517 C1518 1.394 . S
C1517 C1523 1.465 . S
C1518 C1513 1.399 . S
C1518 C1517 1.394 . S
C1518 C1519 1.516 . S
C1519 C1518 1.516 . S
C1519 C1520 1.502 . S
C1519 C1521 1.561 . S
C1519 C1522 1.526 . S
C1520 H1504 0.959 . S
C1520 H1505 0.959 . S
C1520 H1506 0.961 . S
C1520 C1519 1.502 . S
C1521 H1507 0.960 . S
C1521 H1508 0.961 . S
C1521 H1509 0.959 . S
C1521 C1519 1.561 . S
C1522 C1519 1.526 . S
C1522 C1523 1.396 . S
C1522 C1527 1.390 . S
C1523 C1517 1.465 . S
C1523 C1522 1.396 . S
C1523 C1524 1.399 . S
C1524 H1510 0.929 . S
C1524 C1523 1.399 . S
C1524 C1525 1.385 . S
C1525 H1511 0.931 . S
C1525 C1524 1.385 . S
C1525 C1526 1.389 . S
C1526 C1525 1.389 . S
C1526 C1527 1.387 . S
C1527 H1512 0.930 . S
C1527 C1522 1.390 . S
C1527 C1526 1.387 . S
H1528 C1540 0.930 . S
H1529 C1542 0.930 . S
H1530 C1543 0.930 . S
H1531 C1547 0.959 1_655 S
H1532 C1547 0.959 1_554 S
H1533 C1547 0.961 . S
H1534 C1548 0.960 . S
H1535 C1548 0.961 . S
H1536 C1548 0.959 . S
H1537 C1551 0.929 . S
H1538 C1552 0.931 . S
H1539 C1554 0.900 1_554 S
C1540 H1528 0.930 . S
C1540 C1541 1.399 . S
C1540 C1545 1.399 . S
C1541 C1540 1.399 . S
C1541 C1542 1.376 . S
C1542 H1529 0.930 . S
C1542 C1541 1.376 . S
C1542 C1543 1.388 . S
C1543 H1530 0.930 . S
C1543 C1542 1.388 . S
C1543 C1544 1.390 . S
C1544 C1543 1.390 . S
C1544 C1545 1.394 . S
C1544 C1550 1.465 . S
C1545 C1540 1.399 . S
C1545 C1544 1.394 . S
C1545 C1546 1.516 . S
C1546 C1545 1.516 . S
C1546 C1547 1.502 . S
C1546 C1548 1.561 . S
C1546 C1549 1.526 . S
C1547 H1531 0.959 1_455 S
C1547 H1532 0.959 1_556 S
C1547 H1533 0.961 . S
C1547 C1546 1.502 . S
C1548 H1534 0.960 . S
C1548 H1535 0.961 . S
C1548 H1536 0.959 . S
C1548 C1546 1.561 . S
C1549 C1546 1.526 . S
C1549 C1550 1.396 . S
C1549 C1554 1.419 . S
C1550 C1544 1.465 . S
C1550 C1549 1.396 . S
C1550 C1551 1.399 . S
C1551 H1537 0.929 . S
C1551 C1550 1.399 . S
C1551 C1552 1.385 . S
C1552 H1538 0.931 . S
C1552 C1551 1.385 . S
C1552 C1553 1.398 . S
C1553 C1552 1.398 . S
C1553 C1554 1.387 . S
C1554 H1539 0.900 1_556 S
C1554 C1549 1.419 . S
C1554 C1553 1.387 . S
H1555 C1567 0.930 . S
H1556 C1569 0.930 . S
H1557 C1570 0.930 . S
H1558 C1574 0.959 . S
H1559 C1574 0.959 . S
H1560 C1574 0.961 . S
H1561 C1575 0.960 . S
H1562 C1575 0.961 . S
H1563 C1575 0.959 . S
H1564 C1578 0.929 . S
H1565 C1579 0.931 . S
H1566 C1581 0.930 . S
C1567 H1555 0.930 . S
C1567 C1568 1.399 . S
C1567 C1572 1.399 . S
C1568 C1567 1.399 . S
C1568 C1569 1.376 . S
C1569 H1556 0.930 . S
C1569 C1568 1.376 . S
C1569 C1570 1.388 . S
C1570 H1557 0.930 . S
C1570 C1569 1.388 . S
C1570 C1571 1.390 . S
C1571 C1570 1.390 . S
C1571 C1572 1.394 . S
C1571 C1577 1.465 . S
C1572 C1567 1.399 . S
C1572 C1571 1.394 . S
C1572 C1573 1.516 . S
C1573 C1572 1.516 . S
C1573 C1574 1.502 . S
C1573 C1575 1.561 . S
C1573 C1576 1.526 . S
C1574 H1558 0.959 . S
C1574 H1559 0.959 . S
C1574 H1560 0.961 . S
C1574 C1573 1.502 . S
C1575 H1561 0.960 . S
C1575 H1562 0.961 . S
C1575 H1563 0.959 . S
C1575 C1573 1.561 . S
C1576 C1573 1.526 . S
C1576 C1577 1.396 . S
C1576 C1581 1.390 . S
C1577 C1571 1.465 . S
C1577 C1576 1.396 . S
C1577 C1578 1.399 . S
C1578 H1564 0.929 . S
C1578 C1577 1.399 . S
C1578 C1579 1.385 . S
C1579 H1565 0.931 . S
C1579 C1578 1.385 . S
C1579 C1580 1.389 . S
C1580 C1579 1.389 . S
C1580 C1581 1.387 . S
C1581 H1566 0.930 . S
C1581 C1576 1.390 . S
C1581 C1580 1.387 . S
H1582 C1594 0.930 . S
H1583 C1596 0.930 . S
H1584 C1597 0.930 . S
H1585 C1601 0.959 . S
H1586 C1601 0.959 . S
H1587 C1601 0.961 . S
H1588 C1602 0.960 . S
H1589 C1602 0.961 . S
H1590 C1602 0.959 . S
H1591 C1605 0.929 . S
H1592 C1606 0.931 . S
H1593 C1608 0.930 . S
C1594 H1582 0.930 . S
C1594 C1595 1.399 . S
C1594 C1599 1.399 . S
C1595 C1594 1.399 . S
C1595 C1596 1.376 . S
C1596 H1583 0.930 . S
C1596 C1595 1.376 . S
C1596 C1597 1.388 . S
C1597 H1584 0.930 . S
C1597 C1596 1.388 . S
C1597 C1598 1.390 . S
C1598 C1597 1.390 . S
C1598 C1599 1.394 . S
C1598 C1604 1.465 . S
C1599 C1594 1.399 . S
C1599 C1598 1.394 . S
C1599 C1600 1.516 . S
C1600 C1599 1.516 . S
C1600 C1601 1.502 . S
C1600 C1602 1.561 . S
C1600 C1603 1.526 . S
C1601 H1585 0.959 . S
C1601 H1586 0.959 . S
C1601 H1587 0.961 . S
C1601 C1600 1.502 . S
C1602 H1588 0.960 . S
C1602 H1589 0.961 . S
C1602 H1590 0.959 . S
C1602 C1600 1.561 . S
C1603 C1600 1.526 . S
C1603 C1604 1.396 . S
C1603 C1608 1.390 . S
C1604 C1598 1.465 . S
C1604 C1603 1.396 . S
C1604 C1605 1.399 . S
C1605 H1591 0.929 . S
C1605 C1604 1.399 . S
C1605 C1606 1.385 . S
C1606 H1592 0.931 . S
C1606 C1605 1.385 . S
C1606 C1607 1.389 . S
C1607 C1606 1.389 . S
C1607 C1608 1.387 . S
C1608 H1593 0.930 . S
C1608 C1603 1.390 . S
C1608 C1607 1.387 . S
H1609 C1621 0.930 . S
H1610 C1623 0.930 . S
H1611 C1624 0.930 . S
H1612 C1628 0.959 . S
H1613 C1628 0.959 . S
H1614 C1628 0.961 . S
H1615 C1629 0.960 . S
H1616 C1629 0.961 . S
H1617 C1629 0.959 . S
H1618 C1632 0.929 . S
H1619 C1633 0.931 . S
H1620 C1635 0.930 . S
C1621 H1609 0.930 . S
C1621 C1622 1.399 . S
C1621 C1626 1.399 . S
C1622 C1621 1.399 . S
C1622 C1623 1.376 . S
C1623 H1610 0.930 . S
C1623 C1622 1.376 . S
C1623 C1624 1.388 . S
C1624 H1611 0.930 . S
C1624 C1623 1.388 . S
C1624 C1625 1.390 . S
C1625 C1624 1.390 . S
C1625 C1626 1.394 . S
C1625 C1631 1.465 . S
C1626 C1621 1.399 . S
C1626 C1625 1.394 . S
C1626 C1627 1.516 . S
C1627 C1626 1.516 . S
C1627 C1628 1.502 . S
C1627 C1629 1.561 . S
C1627 C1630 1.526 . S
C1628 H1612 0.959 . S
C1628 H1613 0.959 . S
C1628 H1614 0.961 . S
C1628 C1627 1.502 . S
C1629 H1615 0.960 . S
C1629 H1616 0.961 . S
C1629 H1617 0.959 . S
C1629 C1627 1.561 . S
C1630 C1627 1.526 . S
C1630 C1631 1.396 . S
C1630 C1635 1.390 . S
C1631 C1625 1.465 . S
C1631 C1630 1.396 . S
C1631 C1632 1.399 . S
C1632 H1618 0.929 . S
C1632 C1631 1.399 . S
C1632 C1633 1.385 . S
C1633 H1619 0.931 . S
C1633 C1632 1.385 . S
C1633 C1634 1.389 . S
C1634 C1633 1.389 . S
C1634 C1635 1.387 . S
C1635 H1620 0.930 . S
C1635 C1630 1.390 . S
C1635 C1634 1.387 . S
H1636 C1648 0.930 . S
H1637 C1650 0.930 . S
H1638 C1651 0.930 . S
H1639 C1655 0.959 1_655 S
H1640 C1655 0.959 . S
H1641 C1655 0.961 . S
H1642 C1656 0.960 . S
H1643 C1656 0.961 . S
H1644 C1656 0.959 . S
H1645 C1659 0.929 . S
H1646 C1660 0.931 . S
H1647 C1662 0.930 . S
C1648 H1636 0.930 . S
C1648 C1649 1.399 . S
C1648 C1653 1.399 . S
C1649 C1648 1.399 . S
C1649 C1650 1.376 . S
C1650 H1637 0.930 . S
C1650 C1649 1.376 . S
C1650 C1651 1.388 . S
C1651 H1638 0.930 . S
C1651 C1650 1.388 . S
C1651 C1652 1.390 . S
C1652 C1651 1.390 . S
C1652 C1653 1.394 . S
C1652 C1658 1.465 . S
C1653 C1648 1.399 . S
C1653 C1652 1.394 . S
C1653 C1654 1.516 . S
C1654 C1653 1.516 . S
C1654 C1655 1.502 . S
C1654 C1656 1.561 . S
C1654 C1657 1.526 . S
C1655 H1639 0.959 1_455 S
C1655 H1640 0.959 . S
C1655 H1641 0.961 . S
C1655 C1654 1.502 . S
C1656 H1642 0.960 . S
C1656 H1643 0.961 . S
C1656 H1644 0.959 . S
C1656 C1654 1.561 . S
C1657 C1654 1.526 . S
C1657 C1658 1.396 . S
C1657 C1662 1.390 . S
C1658 C1652 1.465 . S
C1658 C1657 1.396 . S
C1658 C1659 1.399 . S
C1659 H1645 0.929 . S
C1659 C1658 1.399 . S
C1659 C1660 1.385 . S
C1660 H1646 0.931 . S
C1660 C1659 1.385 . S
C1660 C1661 1.389 . S
C1661 C1660 1.389 . S
C1661 C1662 1.387 . S
C1662 H1647 0.930 . S
C1662 C1657 1.390 . S
C1662 C1661 1.387 . S
H1663 C1675 0.930 . S
H1664 C1677 0.930 . S
H1665 C1678 0.930 . S
H1666 C1682 0.959 . S
H1667 C1682 0.959 . S
H1668 C1682 0.961 . S
H1669 C1683 0.960 . S
H1670 C1683 0.961 . S
H1671 C1683 0.959 . S
H1672 C1686 0.929 . S
H1673 C1687 0.931 . S
H1674 C1689 0.930 . S
C1675 H1663 0.930 . S
C1675 C1676 1.399 . S
C1675 C1680 1.399 . S
C1676 C1675 1.399 . S
C1676 C1677 1.376 . S
C1677 H1664 0.930 . S
C1677 C1676 1.376 . S
C1677 C1678 1.388 . S
C1678 H1665 0.930 . S
C1678 C1677 1.388 . S
C1678 C1679 1.390 . S
C1679 C1678 1.390 . S
C1679 C1680 1.394 . S
C1679 C1685 1.465 . S
C1680 C1675 1.399 . S
C1680 C1679 1.394 . S
C1680 C1681 1.516 . S
C1681 C1680 1.516 . S
C1681 C1682 1.502 . S
C1681 C1683 1.561 . S
C1681 C1684 1.526 . S
C1682 H1666 0.959 . S
C1682 H1667 0.959 . S
C1682 H1668 0.961 . S
C1682 C1681 1.502 . S
C1683 H1669 0.960 . S
C1683 H1670 0.961 . S
C1683 H1671 0.959 . S
C1683 C1681 1.561 . S
C1684 C1681 1.526 . S
C1684 C1685 1.396 . S
C1684 C1689 1.390 . S
C1685 C1679 1.465 . S
C1685 C1684 1.396 . S
C1685 C1686 1.399 . S
C1686 H1672 0.929 . S
C1686 C1685 1.399 . S
C1686 C1687 1.385 . S
C1687 H1673 0.931 . S
C1687 C1686 1.385 . S
C1687 C1688 1.389 . S
C1688 C1687 1.389 . S
C1688 C1689 1.387 . S
C1689 H1674 0.930 . S
C1689 C1684 1.390 . S
C1689 C1688 1.387 . S
H1690 C1702 0.930 . S
H1691 C1704 0.930 . S
H1692 C1705 0.930 . S
H1693 C1709 0.959 . S
H1694 C1709 0.959 . S
H1695 C1709 0.961 . S
H1696 C1710 0.960 . S
H1697 C1710 0.961 . S
H1698 C1710 0.959 . S
H1699 C1713 0.929 . S
H1700 C1714 0.931 . S
H1701 C1716 0.930 . S
C1702 H1690 0.930 . S
C1702 C1703 1.399 . S
C1702 C1707 1.399 . S
C1703 C1702 1.399 . S
C1703 C1704 1.376 . S
C1704 H1691 0.930 . S
C1704 C1703 1.376 . S
C1704 C1705 1.388 . S
C1705 H1692 0.930 . S
C1705 C1704 1.388 . S
C1705 C1706 1.390 . S
C1706 C1705 1.390 . S
C1706 C1707 1.394 . S
C1706 C1712 1.465 . S
C1707 C1702 1.399 . S
C1707 C1706 1.394 . S
C1707 C1708 1.516 . S
C1708 C1707 1.516 . S
C1708 C1709 1.502 . S
C1708 C1710 1.561 . S
C1708 C1711 1.526 . S
C1709 H1693 0.959 . S
C1709 H1694 0.959 . S
C1709 H1695 0.961 . S
C1709 C1708 1.502 . S
C1710 H1696 0.960 . S
C1710 H1697 0.961 . S
C1710 H1698 0.959 . S
C1710 C1708 1.561 . S
C1711 C1708 1.526 . S
C1711 C1712 1.396 . S
C1711 C1716 1.390 . S
C1712 C1706 1.465 . S
C1712 C1711 1.396 . S
C1712 C1713 1.399 . S
C1713 H1699 0.929 . S
C1713 C1712 1.399 . S
C1713 C1714 1.385 . S
C1714 H1700 0.931 . S
C1714 C1713 1.385 . S
C1714 C1715 1.389 . S
C1715 C1714 1.389 . S
C1715 C1716 1.387 . S
C1716 H1701 0.930 . S
C1716 C1711 1.390 . S
C1716 C1715 1.387 . S
H1717 C1729 0.930 . S
H1718 C1731 0.930 . S
H1719 C1732 0.930 . S
H1720 C1736 0.959 . S
H1721 C1736 0.959 . S
H1722 C1736 0.961 . S
H1723 C1737 0.960 . S
H1724 C1737 0.961 . S
H1725 C1737 0.959 . S
H1726 C1740 0.929 . S
H1727 C1741 0.931 . S
H1728 C1743 0.930 . S
C1729 H1717 0.930 . S
C1729 C1730 1.399 . S
C1729 C1734 1.399 . S
C1730 C1729 1.399 . S
C1730 C1731 1.376 . S
C1731 H1718 0.930 . S
C1731 C1730 1.376 . S
C1731 C1732 1.388 . S
C1732 H1719 0.930 . S
C1732 C1731 1.388 . S
C1732 C1733 1.390 . S
C1733 C1732 1.390 . S
C1733 C1734 1.394 . S
C1733 C1739 1.465 . S
C1734 C1729 1.399 . S
C1734 C1733 1.394 . S
C1734 C1735 1.516 . S
C1735 C1734 1.516 . S
C1735 C1736 1.502 . S
C1735 C1737 1.561 . S
C1735 C1738 1.526 . S
C1736 H1720 0.959 . S
C1736 H1721 0.959 . S
C1736 H1722 0.961 . S
C1736 C1735 1.502 . S
C1737 H1723 0.960 . S
C1737 H1724 0.961 . S
C1737 H1725 0.959 . S
C1737 C1735 1.561 . S
C1738 C1735 1.526 . S
C1738 C1739 1.396 . S
C1738 C1743 1.390 . S
C1739 C1733 1.465 . S
C1739 C1738 1.396 . S
C1739 C1740 1.399 . S
C1740 H1726 0.929 . S
C1740 C1739 1.399 . S
C1740 C1741 1.385 . S
C1741 H1727 0.931 . S
C1741 C1740 1.385 . S
C1741 C1742 1.389 . S
C1742 C1741 1.389 . S
C1742 C1743 1.387 . S
C1743 H1728 0.930 . S
C1743 C1738 1.390 . S
C1743 C1742 1.387 . S
H1744 C1756 0.930 . S
H1745 C1758 0.930 . S
H1746 C1759 0.930 . S
H1747 C1763 0.959 . S
H1748 C1763 0.959 . S
H1749 C1763 0.961 . S
H1750 C1764 0.960 . S
H1751 C1764 0.961 . S
H1752 C1764 0.959 . S
H1753 C1767 0.929 . S
H1754 C1768 0.931 . S
H1755 C1770 0.930 . S
C1756 H1744 0.930 . S
C1756 C1757 1.390 1_545 S
C1756 C1761 1.399 . S
C1757 C1756 1.390 1_565 S
C1757 C1758 1.387 . S
C1758 H1745 0.930 . S
C1758 C1757 1.387 . S
C1758 C1759 1.388 . S
C1759 H1746 0.930 . S
C1759 C1758 1.388 . S
C1759 C1760 1.390 . S
C1760 C1759 1.390 . S
C1760 C1761 1.394 1_565 S
C1760 C1766 1.465 1_565 S
C1761 C1756 1.399 . S
C1761 C1760 1.394 1_545 S
C1761 C1762 1.516 . S
C1762 C1761 1.516 . S
C1762 C1763 1.502 1_655 S
C1762 C1764 1.561 . S
C1762 C1765 1.526 . S
C1763 H1747 0.959 . S
C1763 H1748 0.959 . S
C1763 H1749 0.961 . S
C1763 C1762 1.502 1_455 S
C1764 H1750 0.960 . S
C1764 H1751 0.961 . S
C1764 H1752 0.959 . S
C1764 C1762 1.561 . S
C1765 C1762 1.526 . S
C1765 C1766 1.396 . S
C1765 C1770 1.390 1_655 S
C1766 C1760 1.465 1_545 S
C1766 C1765 1.396 . S
C1766 C1767 1.399 1_545 S
C1767 H1753 0.929 . S
C1767 C1766 1.399 1_565 S
C1767 C1768 1.385 . S
C1768 H1754 0.931 . S
C1768 C1767 1.385 . S
C1768 C1769 1.389 1_665 S
C1769 C1768 1.389 1_445 S
C1769 C1770 1.387 . S
C1770 H1755 0.930 . S
C1770 C1765 1.390 1_455 S
C1770 C1769 1.387 . S
H1771 C1783 0.930 . S
H1772 C1785 0.930 . S
H1773 C1786 0.930 . S
H1774 C1790 0.959 . S
H1775 C1790 0.959 . S
H1776 C1790 0.961 . S
H1777 C1791 0.960 . S
H1778 C1791 0.961 . S
H1779 C1791 0.959 . S
H1780 C1794 0.929 . S
H1781 C1795 0.931 . S
H1782 C1797 0.930 . S
C1783 H1771 0.930 . S
C1783 C1784 1.399 . S
C1783 C1788 1.399 . S
C1784 C1783 1.399 . S
C1784 C1785 1.376 . S
C1785 H1772 0.930 . S
C1785 C1784 1.376 . S
C1785 C1786 1.388 . S
C1786 H1773 0.930 . S
C1786 C1785 1.388 . S
C1786 C1787 1.390 . S
C1787 C1786 1.390 . S
C1787 C1788 1.394 . S
C1787 C1793 1.465 . S
C1788 C1783 1.399 . S
C1788 C1787 1.394 . S
C1788 C1789 1.516 . S
C1789 C1788 1.516 . S
C1789 C1790 1.502 . S
C1789 C1791 1.561 . S
C1789 C1792 1.526 . S
C1790 H1774 0.959 . S
C1790 H1775 0.959 . S
C1790 H1776 0.961 . S
C1790 C1789 1.502 . S
C1791 H1777 0.960 . S
C1791 H1778 0.961 . S
C1791 H1779 0.959 . S
C1791 C1789 1.561 . S
C1792 C1789 1.526 . S
C1792 C1793 1.396 . S
C1792 C1797 1.390 . S
C1793 C1787 1.465 . S
C1793 C1792 1.396 . S
C1793 C1794 1.399 . S
C1794 H1780 0.929 . S
C1794 C1793 1.399 . S
C1794 C1795 1.385 . S
C1795 H1781 0.931 . S
C1795 C1794 1.385 . S
C1795 C1796 1.389 . S
C1796 C1795 1.389 . S
C1796 C1797 1.387 . S
C1797 H1782 0.930 . S
C1797 C1792 1.390 . S
C1797 C1796 1.387 . S
H1798 C1810 0.930 . S
H1799 C1812 0.930 1_565 S
H1800 C1813 0.930 . S
H1801 C1817 0.959 . S
H1802 C1817 0.959 . S
H1803 C1817 0.961 . S
H1804 C1818 0.960 . S
H1805 C1818 0.961 . S
H1806 C1818 0.959 . S
H1807 C1821 0.929 . S
H1808 C1822 0.931 . S
H1809 C1824 0.930 . S
C1810 H1798 0.930 . S
C1810 C1811 1.399 . S
C1810 C1815 1.399 . S
C1811 C1810 1.399 . S
C1811 C1812 1.376 . S
C1812 H1799 0.930 1_545 S
C1812 C1811 1.376 . S
C1812 C1813 1.388 1_545 S
C1813 H1800 0.930 . S
C1813 C1812 1.388 1_565 S
C1813 C1814 1.390 1_565 S
C1814 C1813 1.390 1_545 S
C1814 C1815 1.394 . S
C1814 C1820 1.465 . S
C1815 C1810 1.399 . S
C1815 C1814 1.394 . S
C1815 C1816 1.516 . S
C1816 C1815 1.516 . S
C1816 C1817 1.502 . S
C1816 C1818 1.561 . S
C1816 C1819 1.526 . S
C1817 H1801 0.959 . S
C1817 H1802 0.959 . S
C1817 H1803 0.961 . S
C1817 C1816 1.502 . S
C1818 H1804 0.960 . S
C1818 H1805 0.961 . S
C1818 H1806 0.959 . S
C1818 C1816 1.561 . S
C1819 C1816 1.526 . S
C1819 C1820 1.396 . S
C1819 C1824 1.390 . S
C1820 C1814 1.465 . S
C1820 C1819 1.396 . S
C1820 C1821 1.399 1_545 S
C1821 H1807 0.929 . S
C1821 C1820 1.399 1_565 S
C1821 C1822 1.385 . S
C1822 H1808 0.931 . S
C1822 C1821 1.385 . S
C1822 C1823 1.389 1_565 S
C1823 C1822 1.389 1_545 S
C1823 C1824 1.387 . S
C1824 H1809 0.930 . S
C1824 C1819 1.390 . S
C1824 C1823 1.387 . S
H1825 C1837 0.930 . S
H1826 C1839 0.930 . S
H1827 C1840 0.930 . S
H1828 C1844 0.959 . S
H1829 C1844 0.959 . S
H1830 C1844 0.961 . S
H1831 C1845 0.960 . S
H1832 C1845 0.961 . S
H1833 C1845 0.959 . S
H1834 C1848 0.929 . S
H1835 C1849 0.931 . S
H1836 C1851 0.930 . S
C1837 H1825 0.930 . S
C1837 C1838 1.399 . S
C1837 C1842 1.399 . S
C1838 C1837 1.399 . S
C1838 C1839 1.376 . S
C1839 H1826 0.930 . S
C1839 C1838 1.376 . S
C1839 C1840 1.388 . S
C1840 H1827 0.930 . S
C1840 C1839 1.388 . S
C1840 C1841 1.390 . S
C1841 C1840 1.390 . S
C1841 C1842 1.394 . S
C1841 C1847 1.465 . S
C1842 C1837 1.399 . S
C1842 C1841 1.394 . S
C1842 C1843 1.516 . S
C1843 C1842 1.516 . S
C1843 C1844 1.502 . S
C1843 C1845 1.561 . S
C1843 C1846 1.526 . S
C1844 H1828 0.959 . S
C1844 H1829 0.959 . S
C1844 H1830 0.961 . S
C1844 C1843 1.502 . S
C1845 H1831 0.960 . S
C1845 H1832 0.961 . S
C1845 H1833 0.959 . S
C1845 C1843 1.561 . S
C1846 C1843 1.526 . S
C1846 C1847 1.396 . S
C1846 C1851 1.390 . S
C1847 C1841 1.465 . S
C1847 C1846 1.396 . S
C1847 C1848 1.399 . S
C1848 H1834 0.929 . S
C1848 C1847 1.399 . S
C1848 C1849 1.385 . S
C1849 H1835 0.931 . S
C1849 C1848 1.385 . S
C1849 C1850 1.389 . S
C1850 C1849 1.389 . S
C1850 C1851 1.387 . S
C1851 H1836 0.930 . S
C1851 C1846 1.390 . S
C1851 C1850 1.387 . S
H1852 C1864 0.930 . S
H1853 C1866 0.930 . S
H1854 C1867 0.930 . S
H1855 C1871 0.966 . S
H1856 C1871 0.959 1_455 S
H1857 C1871 0.961 . S
H1858 C1872 0.960 . S
H1859 C1872 0.961 . S
H1860 C1872 0.959 . S
H1861 C1875 0.929 . S
H1862 C1876 0.931 1_545 S
H1863 C1878 0.930 . S
C1864 H1852 0.930 . S
C1864 C1865 1.399 1_565 S
C1864 C1869 1.399 . S
C1865 C1864 1.399 1_545 S
C1865 C1866 1.376 . S
C1866 H1853 0.930 . S
C1866 C1865 1.376 . S
C1866 C1867 1.388 . S
C1867 H1854 0.930 . S
C1867 C1866 1.388 . S
C1867 C1868 1.392 . S
C1868 C1867 1.392 . S
C1868 C1869 1.391 1_545 S
C1868 C1874 1.464 1_545 S
C1869 C1864 1.399 . S
C1869 C1868 1.391 1_565 S
C1869 C1870 1.516 . S
C1870 C1869 1.516 . S
C1870 C1871 1.502 . S
C1870 C1872 1.561 . S
C1870 C1873 1.526 . S
C1871 H1855 0.966 . S
C1871 H1856 0.959 1_655 S
C1871 H1857 0.961 . S
C1871 C1870 1.502 . S
C1872 H1858 0.960 . S
C1872 H1859 0.961 . S
C1872 H1860 0.959 . S
C1872 C1870 1.561 . S
C1873 C1870 1.526 . S
C1873 C1874 1.396 . S
C1873 C1878 1.390 . S
C1874 C1868 1.464 1_565 S
C1874 C1873 1.396 . S
C1874 C1875 1.399 1_565 S
C1875 H1861 0.929 . S
C1875 C1874 1.399 1_545 S
C1875 C1876 1.385 1_545 S
C1876 H1862 0.931 1_565 S
C1876 C1875 1.385 1_565 S
C1876 C1877 1.389 . S
C1877 C1876 1.389 . S
C1877 C1878 1.387 . S
C1878 H1863 0.930 . S
C1878 C1873 1.390 . S
C1878 C1877 1.387 . S
H1879 C1891 0.930 . S
H1880 C1893 0.930 . S
H1881 C1894 0.930 . S
H1882 C1898 0.959 . S
H1883 C1898 0.959 . S
H1884 C1898 0.961 . S
H1885 C1899 0.960 . S
H1886 C1899 0.961 . S
H1887 C1899 0.959 . S
H1888 C1902 0.929 . S
H1889 C1903 0.931 . S
H1890 C1905 0.930 . S
C1891 H1879 0.930 . S
C1891 C1892 1.399 . S
C1891 C1896 1.399 . S
C1892 C1891 1.399 . S
C1892 C1893 1.376 . S
C1893 H1880 0.930 . S
C1893 C1892 1.376 . S
C1893 C1894 1.388 . S
C1894 H1881 0.930 . S
C1894 C1893 1.388 . S
C1894 C1895 1.390 . S
C1895 C1894 1.390 . S
C1895 C1896 1.394 . S
C1895 C1901 1.465 . S
C1896 C1891 1.399 . S
C1896 C1895 1.394 . S
C1896 C1897 1.516 . S
C1897 C1896 1.516 . S
C1897 C1898 1.502 . S
C1897 C1899 1.561 . S
C1897 C1900 1.526 . S
C1898 H1882 0.959 . S
C1898 H1883 0.959 . S
C1898 H1884 0.961 . S
C1898 C1897 1.502 . S
C1899 H1885 0.960 . S
C1899 H1886 0.961 . S
C1899 H1887 0.959 . S
C1899 C1897 1.561 . S
C1900 C1897 1.526 . S
C1900 C1901 1.396 . S
C1900 C1905 1.390 . S
C1901 C1895 1.465 . S
C1901 C1900 1.396 . S
C1901 C1902 1.399 . S
C1902 H1888 0.929 . S
C1902 C1901 1.399 . S
C1902 C1903 1.385 . S
C1903 H1889 0.931 . S
C1903 C1902 1.385 . S
C1903 C1904 1.389 . S
C1904 C1903 1.389 . S
C1904 C1905 1.387 . S
C1905 H1890 0.930 . S
C1905 C1900 1.390 . S
C1905 C1904 1.387 . S
H1906 C1918 0.930 1_565 S
H1907 C1920 0.930 . S
H1908 C1921 0.930 . S
H1909 C1925 0.959 1_545 S
H1910 C1925 0.959 . S
H1911 C1925 0.961 . S
H1912 C1926 0.960 . S
H1913 C1926 0.961 . S
H1914 C1926 0.959 1_545 S
H1915 C1929 0.929 . S
H1916 C1930 0.931 . S
H1917 C1932 0.930 . S
C1918 H1906 0.930 1_545 S
C1918 C1919 1.399 . S
C1918 C1923 1.399 . S
C1919 C1918 1.399 . S
C1919 C1920 1.376 . S
C1920 H1907 0.930 . S
C1920 C1919 1.376 . S
C1920 C1921 1.388 . S
C1921 H1908 0.930 . S
C1921 C1920 1.388 . S
C1921 C1922 1.390 . S
C1922 C1921 1.390 . S
C1922 C1923 1.394 . S
C1922 C1928 1.465 . S
C1923 C1918 1.399 . S
C1923 C1922 1.394 . S
C1923 C1924 1.516 . S
C1924 C1923 1.516 . S
C1924 C1925 1.502 1_545 S
C1924 C1926 1.561 1_545 S
C1924 C1927 1.526 . S
C1925 H1909 0.959 1_565 S
C1925 H1910 0.959 . S
C1925 H1911 0.961 . S
C1925 C1924 1.502 1_565 S
C1926 H1912 0.960 . S
C1926 H1913 0.961 . S
C1926 H1914 0.959 1_565 S
C1926 C1924 1.561 1_565 S
C1927 C1924 1.526 . S
C1927 C1928 1.396 . S
C1927 C1932 1.390 . S
C1928 C1922 1.465 . S
C1928 C1927 1.396 . S
C1928 C1929 1.399 . S
C1929 H1915 0.929 . S
C1929 C1928 1.399 . S
C1929 C1930 1.385 . S
C1930 H1916 0.931 . S
C1930 C1929 1.385 . S
C1930 C1931 1.389 . S
C1931 C1930 1.389 . S
C1931 C1932 1.387 . S
C1932 H1917 0.930 . S
C1932 C1927 1.390 . S
C1932 C1931 1.387 . S
H1933 C1945 0.930 . S
H1934 C1947 0.930 . S
H1935 C1948 0.930 . S
H1936 C1952 0.959 . S
H1937 C1952 0.959 . S
H1938 C1952 0.961 . S
H1939 C1953 0.960 . S
H1940 C1953 0.961 . S
H1941 C1953 0.959 . S
H1942 C1956 0.929 . S
H1943 C1957 0.931 . S
H1944 C1959 0.930 . S
C1945 H1933 0.930 . S
C1945 C1946 1.399 . S
C1945 C1950 1.399 . S
C1946 C1945 1.399 . S
C1946 C1947 1.376 . S
C1947 H1934 0.930 . S
C1947 C1946 1.376 . S
C1947 C1948 1.388 . S
C1948 H1935 0.930 . S
C1948 C1947 1.388 . S
C1948 C1949 1.390 . S
C1949 C1948 1.390 . S
C1949 C1950 1.394 . S
C1949 C1955 1.465 . S
C1950 C1945 1.399 . S
C1950 C1949 1.394 . S
C1950 C1951 1.516 . S
C1951 C1950 1.516 . S
C1951 C1952 1.502 . S
C1951 C1953 1.561 . S
C1951 C1954 1.526 . S
C1952 H1936 0.959 . S
C1952 H1937 0.959 . S
C1952 H1938 0.961 . S
C1952 C1951 1.502 . S
C1953 H1939 0.960 . S
C1953 H1940 0.961 . S
C1953 H1941 0.959 . S
C1953 C1951 1.561 . S
C1954 C1951 1.526 . S
C1954 C1955 1.396 . S
C1954 C1959 1.390 . S
C1955 C1949 1.465 . S
C1955 C1954 1.396 . S
C1955 C1956 1.399 . S
C1956 H1942 0.929 . S
C1956 C1955 1.399 . S
C1956 C1957 1.385 . S
C1957 H1943 0.931 . S
C1957 C1956 1.385 . S
C1957 C1958 1.389 . S
C1958 C1957 1.389 . S
C1958 C1959 1.387 . S
C1959 H1944 0.930 . S
C1959 C1954 1.390 . S
C1959 C1958 1.387 . S
H1960 C1972 0.930 1_556 S
H1961 C1974 0.930 . S
H1962 C1975 0.930 . S
H1963 C1979 0.959 . S
H1964 C1979 0.959 1_556 S
H1965 C1979 0.961 1_556 S
H1966 C1980 0.960 . S
H1967 C1980 0.961 . S
H1968 C1980 0.959 1_554 S
H1969 C1983 0.929 . S
H1970 C1984 0.931 . S
H1971 C1986 0.930 . S
C1972 H1960 0.930 1_554 S
C1972 C1973 1.399 . S
C1972 C1977 1.399 . S
C1973 C1972 1.399 . S
C1973 C1974 1.376 . S
C1974 H1961 0.930 . S
C1974 C1973 1.376 . S
C1974 C1975 1.388 . S
C1975 H1962 0.930 . S
C1975 C1974 1.388 . S
C1975 C1976 1.390 . S
C1976 C1975 1.390 . S
C1976 C1977 1.394 . S
C1976 C1982 1.465 . S
C1977 C1972 1.399 . S
C1977 C1976 1.394 . S
C1977 C1978 1.516 . S
C1978 C1977 1.516 . S
C1978 C1979 1.502 . S
C1978 C1980 1.561 1_554 S
C1978 C1981 1.526 . S
C1979 H1963 0.959 . S
C1979 H1964 0.959 1_554 S
C1979 H1965 0.961 1_554 S
C1979 C1978 1.502 . S
C1980 H1966 0.960 . S
C1980 H1967 0.961 . S
C1980 H1968 0.959 1_556 S
C1980 C1978 1.561 1_556 S
C1981 C1978 1.526 . S
C1981 C1982 1.396 . S
C1981 C1986 1.390 . S
C1982 C1976 1.465 . S
C1982 C1981 1.396 . S
C1982 C1983 1.399 . S
C1983 H1969 0.929 . S
C1983 C1982 1.399 . S
C1983 C1984 1.385 . S
C1984 H1970 0.931 . S
C1984 C1983 1.385 . S
C1984 C1985 1.389 . S
C1985 C1984 1.389 . S
C1985 C1986 1.387 . S
C1986 H1971 0.930 . S
C1986 C1981 1.390 . S
C1986 C1985 1.387 . S
H1987 C1999 0.930 . S
H1988 C2001 0.930 . S
H1989 C2002 0.930 . S
H1990 C2006 0.959 . S
H1991 C2006 0.959 . S
H1992 C2006 0.961 . S
H1993 C2007 0.960 . S
H1994 C2007 0.961 . S
H1995 C2007 0.959 . S
H1996 C2010 0.929 . S
H1997 C2011 0.931 . S
H1998 C2013 0.930 1_556 S
C1999 H1987 0.930 . S
C1999 C2000 1.399 1_556 S
C1999 C2004 1.399 1_556 S
C2000 C1999 1.399 1_554 S
C2000 C2001 1.376 . S
C2001 H1988 0.930 . S
C2001 C2000 1.376 . S
C2001 C2002 1.388 . S
C2002 H1989 0.930 . S
C2002 C2001 1.388 . S
C2002 C2003 1.390 . S
C2003 C2002 1.390 . S
C2003 C2004 1.394 . S
C2003 C2009 1.465 . S
C2004 C1999 1.399 1_554 S
C2004 C2003 1.394 . S
C2004 C2005 1.516 1_554 S
C2005 C2004 1.516 1_556 S
C2005 C2006 1.502 . S
C2005 C2007 1.561 . S
C2005 C2008 1.526 1_556 S
C2006 H1990 0.959 . S
C2006 H1991 0.959 . S
C2006 H1992 0.961 . S
C2006 C2005 1.502 . S
C2007 H1993 0.960 . S
C2007 H1994 0.961 . S
C2007 H1995 0.959 . S
C2007 C2005 1.561 . S
C2008 C2005 1.526 1_554 S
C2008 C2009 1.396 . S
C2008 C2013 1.390 . S
C2009 C2003 1.465 . S
C2009 C2008 1.396 . S
C2009 C2010 1.399 . S
C2010 H1996 0.929 . S
C2010 C2009 1.399 . S
C2010 C2011 1.385 . S
C2011 H1997 0.931 . S
C2011 C2010 1.385 . S
C2011 C2012 1.389 . S
C2012 C2011 1.389 . S
C2012 C2013 1.387 . S
C2013 H1998 0.930 1_554 S
C2013 C2008 1.390 . S
C2013 C2012 1.387 . S
H2014 C2026 0.930 . S
H2015 C2028 0.930 . S
H2016 C2029 0.930 . S
H2017 C2033 0.959 . S
H2018 C2033 0.959 . S
H2019 C2033 0.961 . S
H2020 C2034 0.960 . S
H2021 C2034 0.961 . S
H2022 C2034 0.959 . S
H2023 C2037 0.929 . S
H2024 C2038 0.931 . S
H2025 C2040 0.930 . S
C2026 H2014 0.930 . S
C2026 C2027 1.399 . S
C2026 C2031 1.399 . S
C2027 C2026 1.399 . S
C2027 C2028 1.376 . S
C2028 H2015 0.930 . S
C2028 C2027 1.376 . S
C2028 C2029 1.388 . S
C2029 H2016 0.930 . S
C2029 C2028 1.388 . S
C2029 C2030 1.390 . S
C2030 C2029 1.390 . S
C2030 C2031 1.394 . S
C2030 C2036 1.465 . S
C2031 C2026 1.399 . S
C2031 C2030 1.394 . S
C2031 C2032 1.516 . S
C2032 C2031 1.516 . S
C2032 C2033 1.502 . S
C2032 C2034 1.561 . S
C2032 C2035 1.526 . S
C2033 H2017 0.959 . S
C2033 H2018 0.959 . S
C2033 H2019 0.961 . S
C2033 C2032 1.502 . S
C2034 H2020 0.960 . S
C2034 H2021 0.961 . S
C2034 H2022 0.959 . S
C2034 C2032 1.561 . S
C2035 C2032 1.526 . S
C2035 C2036 1.396 . S
C2035 C2040 1.390 . S
C2036 C2030 1.465 . S
C2036 C2035 1.396 . S
C2036 C2037 1.399 . S
C2037 H2023 0.929 . S
C2037 C2036 1.399 . S
C2037 C2038 1.385 . S
C2038 H2024 0.931 . S
C2038 C2037 1.385 . S
C2038 C2039 1.389 . S
C2039 C2038 1.389 . S
C2039 C2040 1.387 . S
C2040 H2025 0.930 . S
C2040 C2035 1.390 . S
C2040 C2039 1.387 . S
H2041 C2053 0.930 . S
H2042 C2055 0.930 . S
H2043 C2056 0.930 . S
H2044 C2060 0.959 . S
H2045 C2060 0.959 . S
H2046 C2060 0.961 . S
H2047 C2061 0.960 . S
H2048 C2061 0.961 . S
H2049 C2061 0.959 . S
H2050 C2064 0.929 . S
H2051 C2065 0.931 . S
H2052 C2067 0.930 . S
C2053 H2041 0.930 . S
C2053 C2054 1.399 . S
C2053 C2058 1.399 . S
C2054 C2053 1.399 . S
C2054 C2055 1.376 . S
C2055 H2042 0.930 . S
C2055 C2054 1.376 . S
C2055 C2056 1.388 . S
C2056 H2043 0.930 . S
C2056 C2055 1.388 . S
C2056 C2057 1.390 . S
C2057 C2056 1.390 . S
C2057 C2058 1.394 . S
C2057 C2063 1.465 . S
C2058 C2053 1.399 . S
C2058 C2057 1.394 . S
C2058 C2059 1.516 . S
C2059 C2058 1.516 . S
C2059 C2060 1.502 . S
C2059 C2061 1.561 . S
C2059 C2062 1.526 . S
C2060 H2044 0.959 . S
C2060 H2045 0.959 . S
C2060 H2046 0.961 . S
C2060 C2059 1.502 . S
C2061 H2047 0.960 . S
C2061 H2048 0.961 . S
C2061 H2049 0.959 . S
C2061 C2059 1.561 . S
C2062 C2059 1.526 . S
C2062 C2063 1.396 . S
C2062 C2067 1.390 . S
C2063 C2057 1.465 . S
C2063 C2062 1.396 . S
C2063 C2064 1.399 . S
C2064 H2050 0.929 . S
C2064 C2063 1.399 . S
C2064 C2065 1.385 . S
C2065 H2051 0.931 . S
C2065 C2064 1.385 . S
C2065 C2066 1.389 . S
C2066 C2065 1.389 . S
C2066 C2067 1.387 . S
C2067 H2052 0.930 . S
C2067 C2062 1.390 . S
C2067 C2066 1.387 . S
H2068 C2080 0.930 . S
H2069 C2082 0.930 . S
H2070 C2083 0.930 . S
H2071 C2087 0.959 . S
H2072 C2087 0.959 . S
H2073 C2087 0.961 . S
H2074 C2088 0.960 . S
H2075 C2088 0.961 . S
H2076 C2088 0.959 . S
H2077 C2091 0.929 . S
H2078 C2092 0.931 . S
H2079 C2094 0.930 . S
C2080 H2068 0.930 . S
C2080 C2081 1.399 . S
C2080 C2085 1.399 . S
C2081 C2080 1.399 . S
C2081 C2082 1.376 . S
C2082 H2069 0.930 . S
C2082 C2081 1.376 . S
C2082 C2083 1.388 . S
C2083 H2070 0.930 . S
C2083 C2082 1.388 . S
C2083 C2084 1.390 . S
C2084 C2083 1.390 . S
C2084 C2085 1.394 . S
C2084 C2090 1.465 . S
C2085 C2080 1.399 . S
C2085 C2084 1.394 . S
C2085 C2086 1.516 . S
C2086 C2085 1.516 . S
C2086 C2087 1.502 . S
C2086 C2088 1.561 . S
C2086 C2089 1.526 . S
C2087 H2071 0.959 . S
C2087 H2072 0.959 . S
C2087 H2073 0.961 . S
C2087 C2086 1.502 . S
C2088 H2074 0.960 . S
C2088 H2075 0.961 . S
C2088 H2076 0.959 . S
C2088 C2086 1.561 . S
C2089 C2086 1.526 . S
C2089 C2090 1.396 . S
C2089 C2094 1.390 . S
C2090 C2084 1.465 . S
C2090 C2089 1.396 . S
C2090 C2091 1.399 . S
C2091 H2077 0.929 . S
C2091 C2090 1.399 . S
C2091 C2092 1.385 . S
C2092 H2078 0.931 . S
C2092 C2091 1.385 . S
C2092 C2093 1.389 . S
C2093 C2092 1.389 . S
C2093 C2094 1.387 . S
C2094 H2079 0.930 . S
C2094 C2089 1.390 . S
C2094 C2093 1.387 . S
H2095 C2107 0.930 . S
H2096 C2109 0.930 . S
H2097 C2110 0.930 . S
H2098 C2114 0.959 . S
H2099 C2114 0.959 . S
H2100 C2114 0.961 . S
H2101 C2115 0.960 . S
H2102 C2115 0.961 . S
H2103 C2115 0.959 . S
H2104 C2118 0.929 . S
H2105 C2119 0.931 . S
H2106 C2121 0.930 . S
C2107 H2095 0.930 . S
C2107 C2108 1.399 . S
C2107 C2112 1.399 . S
C2108 C2107 1.399 . S
C2108 C2109 1.376 . S
C2109 H2096 0.930 . S
C2109 C2108 1.376 . S
C2109 C2110 1.388 . S
C2110 H2097 0.930 . S
C2110 C2109 1.388 . S
C2110 C2111 1.390 . S
C2111 C2110 1.390 . S
C2111 C2112 1.394 . S
C2111 C2117 1.465 . S
C2112 C2107 1.399 . S
C2112 C2111 1.394 . S
C2112 C2113 1.516 . S
C2113 C2112 1.516 . S
C2113 C2114 1.502 . S
C2113 C2115 1.561 . S
C2113 C2116 1.526 . S
C2114 H2098 0.959 . S
C2114 H2099 0.959 . S
C2114 H2100 0.961 . S
C2114 C2113 1.502 . S
C2115 H2101 0.960 . S
C2115 H2102 0.961 . S
C2115 H2103 0.959 . S
C2115 C2113 1.561 . S
C2116 C2113 1.526 . S
C2116 C2117 1.396 . S
C2116 C2121 1.390 . S
C2117 C2111 1.465 . S
C2117 C2116 1.396 . S
C2117 C2118 1.399 . S
C2118 H2104 0.929 . S
C2118 C2117 1.399 . S
C2118 C2119 1.385 . S
C2119 H2105 0.931 . S
C2119 C2118 1.385 . S
C2119 C2120 1.389 . S
C2120 C2119 1.389 . S
C2120 C2121 1.387 . S
C2121 H2106 0.930 . S
C2121 C2116 1.390 . S
C2121 C2120 1.387 . S
H2122 C2134 0.930 . S
H2123 C2136 0.930 . S
H2124 C2137 0.930 . S
H2125 C2141 0.959 . S
H2126 C2141 0.959 . S
H2127 C2141 0.961 . S
H2128 C2142 0.960 . S
H2129 C2142 0.961 . S
H2130 C2142 0.959 . S
H2131 C2145 0.929 . S
H2132 C2146 0.931 . S
H2133 C2148 0.930 . S
C2134 H2122 0.930 . S
C2134 C2135 1.399 . S
C2134 C2139 1.399 . S
C2135 C2134 1.399 . S
C2135 C2136 1.376 . S
C2136 H2123 0.930 . S
C2136 C2135 1.376 . S
C2136 C2137 1.388 . S
C2137 H2124 0.930 . S
C2137 C2136 1.388 . S
C2137 C2138 1.390 . S
C2138 C2137 1.390 . S
C2138 C2139 1.394 . S
C2138 C2144 1.465 . S
C2139 C2134 1.399 . S
C2139 C2138 1.394 . S
C2139 C2140 1.516 . S
C2140 C2139 1.516 . S
C2140 C2141 1.502 . S
C2140 C2142 1.561 . S
C2140 C2143 1.526 . S
C2141 H2125 0.959 . S
C2141 H2126 0.959 . S
C2141 H2127 0.961 . S
C2141 C2140 1.502 . S
C2142 H2128 0.960 . S
C2142 H2129 0.961 . S
C2142 H2130 0.959 . S
C2142 C2140 1.561 . S
C2143 C2140 1.526 . S
C2143 C2144 1.396 . S
C2143 C2148 1.390 . S
C2144 C2138 1.465 . S
C2144 C2143 1.396 . S
C2144 C2145 1.399 . S
C2145 H2131 0.929 . S
C2145 C2144 1.399 . S
C2145 C2146 1.385 . S
C2146 H2132 0.931 . S
C2146 C2145 1.385 . S
C2146 C2147 1.389 . S
C2147 C2146 1.389 . S
C2147 C2148 1.387 . S
C2148 H2133 0.930 . S
C2148 C2143 1.390 . S
C2148 C2147 1.387 . S
H2149 C2161 0.930 . S
H2150 C2163 0.930 . S
H2151 C2164 0.930 . S
H2152 C2168 0.959 . S
H2153 C2168 0.959 . S
H2154 C2168 0.961 . S
H2155 C2169 0.960 . S
H2156 C2169 0.961 . S
H2157 C2169 0.959 . S
H2158 C2172 0.929 . S
H2159 C2173 0.931 . S
H2160 C2175 0.930 . S
C2161 H2149 0.930 . S
C2161 C2162 1.399 . S
C2161 C2166 1.399 . S
C2162 C2161 1.399 . S
C2162 C2163 1.376 . S
C2163 H2150 0.930 . S
C2163 C2162 1.376 . S
C2163 C2164 1.388 . S
C2164 H2151 0.930 . S
C2164 C2163 1.388 . S
C2164 C2165 1.390 . S
C2165 C2164 1.390 . S
C2165 C2166 1.394 . S
C2165 C2171 1.465 . S
C2166 C2161 1.399 . S
C2166 C2165 1.394 . S
C2166 C2167 1.516 . S
C2167 C2166 1.516 . S
C2167 C2168 1.502 . S
C2167 C2169 1.561 . S
C2167 C2170 1.526 . S
C2168 H2152 0.959 . S
C2168 H2153 0.959 . S
C2168 H2154 0.961 . S
C2168 C2167 1.502 . S
C2169 H2155 0.960 . S
C2169 H2156 0.961 . S
C2169 H2157 0.959 . S
C2169 C2167 1.561 . S
C2170 C2167 1.526 . S
C2170 C2171 1.396 . S
C2170 C2175 1.390 . S
C2171 C2165 1.465 . S
C2171 C2170 1.396 . S
C2171 C2172 1.399 . S
C2172 H2158 0.929 . S
C2172 C2171 1.399 . S
C2172 C2173 1.385 . S
C2173 H2159 0.931 . S
C2173 C2172 1.385 . S
C2173 C2174 1.389 . S
C2174 C2173 1.389 . S
C2174 C2175 1.387 . S
C2175 H2160 0.930 . S
C2175 C2170 1.390 . S
C2175 C2174 1.387 . S
H2176 C2188 0.930 . S
H2177 C2190 0.930 . S
H2178 C2191 0.930 . S
H2179 C2195 0.959 . S
H2180 C2195 0.959 . S
H2181 C2195 0.961 . S
H2182 C2196 0.960 . S
H2183 C2196 0.961 . S
H2184 C2196 0.959 . S
H2185 C2199 0.929 . S
H2186 C2200 0.931 . S
H2187 C2202 0.930 . S
C2188 H2176 0.930 . S
C2188 C2189 1.399 . S
C2188 C2193 1.399 . S
C2189 C2188 1.399 . S
C2189 C2190 1.376 . S
C2190 H2177 0.930 . S
C2190 C2189 1.376 . S
C2190 C2191 1.388 . S
C2191 H2178 0.930 . S
C2191 C2190 1.388 . S
C2191 C2192 1.390 . S
C2192 C2191 1.390 . S
C2192 C2193 1.394 . S
C2192 C2198 1.465 . S
C2193 C2188 1.399 . S
C2193 C2192 1.394 . S
C2193 C2194 1.516 . S
C2194 C2193 1.516 . S
C2194 C2195 1.502 . S
C2194 C2196 1.561 . S
C2194 C2197 1.526 . S
C2195 H2179 0.959 . S
C2195 H2180 0.959 . S
C2195 H2181 0.961 . S
C2195 C2194 1.502 . S
C2196 H2182 0.960 . S
C2196 H2183 0.961 . S
C2196 H2184 0.959 . S
C2196 C2194 1.561 . S
C2197 C2194 1.526 . S
C2197 C2198 1.396 . S
C2197 C2202 1.390 . S
C2198 C2192 1.465 . S
C2198 C2197 1.396 . S
C2198 C2199 1.399 . S
C2199 H2185 0.929 . S
C2199 C2198 1.399 . S
C2199 C2200 1.385 . S
C2200 H2186 0.931 . S
C2200 C2199 1.385 . S
C2200 C2201 1.389 . S
C2201 C2200 1.389 . S
C2201 C2202 1.387 . S
C2202 H2187 0.930 . S
C2202 C2197 1.390 . S
C2202 C2201 1.387 . S
H2203 C2215 0.930 . S
H2204 C2217 0.930 . S
H2205 C2218 0.930 . S
H2206 C2222 0.959 . S
H2207 C2222 0.959 . S
H2208 C2222 0.961 . S
H2209 C2223 0.960 . S
H2210 C2223 0.961 . S
H2211 C2223 0.959 . S
H2212 C2226 0.929 . S
H2213 C2227 0.931 . S
H2214 C2229 0.930 . S
C2215 H2203 0.930 . S
C2215 C2216 1.399 . S
C2215 C2220 1.399 . S
C2216 C2215 1.399 . S
C2216 C2217 1.376 . S
C2217 H2204 0.930 . S
C2217 C2216 1.376 . S
C2217 C2218 1.388 . S
C2218 H2205 0.930 . S
C2218 C2217 1.388 . S
C2218 C2219 1.390 . S
C2219 C2218 1.390 . S
C2219 C2220 1.394 . S
C2219 C2225 1.465 . S
C2220 C2215 1.399 . S
C2220 C2219 1.394 . S
C2220 C2221 1.516 . S
C2221 C2220 1.516 . S
C2221 C2222 1.502 . S
C2221 C2223 1.561 . S
C2221 C2224 1.526 . S
C2222 H2206 0.959 . S
C2222 H2207 0.959 . S
C2222 H2208 0.961 . S
C2222 C2221 1.502 . S
C2223 H2209 0.960 . S
C2223 H2210 0.961 . S
C2223 H2211 0.959 . S
C2223 C2221 1.561 . S
C2224 C2221 1.526 . S
C2224 C2225 1.396 . S
C2224 C2229 1.390 . S
C2225 C2219 1.465 . S
C2225 C2224 1.396 . S
C2225 C2226 1.399 . S
C2226 H2212 0.929 . S
C2226 C2225 1.399 . S
C2226 C2227 1.385 . S
C2227 H2213 0.931 . S
C2227 C2226 1.385 . S
C2227 C2228 1.389 . S
C2228 C2227 1.389 . S
C2228 C2229 1.387 . S
C2229 H2214 0.930 . S
C2229 C2224 1.390 . S
C2229 C2228 1.387 . S
H2230 C2242 0.930 . S
H2231 C2244 0.930 . S
H2232 C2245 0.930 . S
H2233 C2249 0.959 . S
H2234 C2249 0.959 . S
H2235 C2249 0.961 . S
H2236 C2250 0.960 . S
H2237 C2250 0.961 . S
H2238 C2250 0.959 . S
H2239 C2253 0.929 . S
H2240 C2254 0.931 . S
H2241 C2256 0.930 . S
C2242 H2230 0.930 . S
C2242 C2243 1.399 . S
C2242 C2247 1.399 . S
C2243 C2242 1.399 . S
C2243 C2244 1.376 . S
C2244 H2231 0.930 . S
C2244 C2243 1.376 . S
C2244 C2245 1.388 . S
C2245 H2232 0.930 . S
C2245 C2244 1.388 . S
C2245 C2246 1.390 . S
C2246 C2245 1.390 . S
C2246 C2247 1.394 . S
C2246 C2252 1.465 . S
C2247 C2242 1.399 . S
C2247 C2246 1.394 . S
C2247 C2248 1.516 . S
C2248 C2247 1.516 . S
C2248 C2249 1.502 . S
C2248 C2250 1.561 . S
C2248 C2251 1.526 . S
C2249 H2233 0.959 . S
C2249 H2234 0.959 . S
C2249 H2235 0.961 . S
C2249 C2248 1.502 . S
C2250 H2236 0.960 . S
C2250 H2237 0.961 . S
C2250 H2238 0.959 . S
C2250 C2248 1.561 . S
C2251 C2248 1.526 . S
C2251 C2252 1.396 . S
C2251 C2256 1.390 . S
C2252 C2246 1.465 . S
C2252 C2251 1.396 . S
C2252 C2253 1.399 . S
C2253 H2239 0.929 . S
C2253 C2252 1.399 . S
C2253 C2254 1.385 . S
C2254 H2240 0.931 . S
C2254 C2253 1.385 . S
C2254 C2255 1.389 . S
C2255 C2254 1.389 . S
C2255 C2256 1.387 . S
C2256 H2241 0.930 . S
C2256 C2251 1.390 . S
C2256 C2255 1.387 . S
H2257 C2269 0.930 . S
H2258 C2271 0.930 . S
H2259 C2272 0.930 . S
H2260 C2276 0.959 . S
H2261 C2276 0.959 . S
H2262 C2276 0.961 . S
H2263 C2277 0.960 . S
H2264 C2277 0.961 . S
H2265 C2277 0.959 . S
H2266 C2280 0.929 . S
H2267 C2281 0.931 . S
H2268 C2283 0.930 . S
C2269 H2257 0.930 . S
C2269 C2270 1.399 . S
C2269 C2274 1.399 . S
C2270 C2269 1.399 . S
C2270 C2271 1.376 . S
C2271 H2258 0.930 . S
C2271 C2270 1.376 . S
C2271 C2272 1.388 . S
C2272 H2259 0.930 . S
C2272 C2271 1.388 . S
C2272 C2273 1.390 . S
C2273 C2272 1.390 . S
C2273 C2274 1.394 . S
C2273 C2279 1.465 . S
C2274 C2269 1.399 . S
C2274 C2273 1.394 . S
C2274 C2275 1.516 . S
C2275 C2274 1.516 . S
C2275 C2276 1.502 . S
C2275 C2277 1.561 . S
C2275 C2278 1.526 . S
C2276 H2260 0.959 . S
C2276 H2261 0.959 . S
C2276 H2262 0.961 . S
C2276 C2275 1.502 . S
C2277 H2263 0.960 . S
C2277 H2264 0.961 . S
C2277 H2265 0.959 . S
C2277 C2275 1.561 . S
C2278 C2275 1.526 . S
C2278 C2279 1.396 . S
C2278 C2283 1.390 . S
C2279 C2273 1.465 . S
C2279 C2278 1.396 . S
C2279 C2280 1.399 . S
C2280 H2266 0.929 . S
C2280 C2279 1.399 . S
C2280 C2281 1.385 . S
C2281 H2267 0.931 . S
C2281 C2280 1.385 . S
C2281 C2282 1.389 . S
C2282 C2281 1.389 . S
C2282 C2283 1.387 . S
C2283 H2268 0.930 . S
C2283 C2278 1.390 . S
C2283 C2282 1.387 . S
H2284 C2296 0.930 . S
H2285 C2298 0.930 . S
H2286 C2299 0.930 . S
H2287 C2303 0.959 . S
H2288 C2303 0.959 . S
H2289 C2303 0.961 . S
H2290 C2304 0.960 . S
H2291 C2304 0.961 . S
H2292 C2304 0.959 . S
H2293 C2307 0.929 1_554 S
H2294 C2308 0.931 . S
H2295 C2310 0.930 . S
C2296 H2284 0.930 . S
C2296 C2297 1.399 . S
C2296 C2301 1.399 . S
C2297 C2296 1.399 . S
C2297 C2298 1.376 . S
C2298 H2285 0.930 . S
C2298 C2297 1.376 . S
C2298 C2299 1.388 . S
C2299 H2286 0.930 . S
C2299 C2298 1.388 . S
C2299 C2300 1.390 . S
C2300 C2299 1.390 . S
C2300 C2301 1.394 . S
C2300 C2306 1.465 . S
C2301 C2296 1.399 . S
C2301 C2300 1.394 . S
C2301 C2302 1.516 . S
C2302 C2301 1.516 . S
C2302 C2303 1.502 . S
C2302 C2304 1.561 . S
C2302 C2305 1.526 . S
C2303 H2287 0.959 . S
C2303 H2288 0.959 . S
C2303 H2289 0.961 . S
C2303 C2302 1.502 . S
C2304 H2290 0.960 . S
C2304 H2291 0.961 . S
C2304 H2292 0.959 . S
C2304 C2302 1.561 . S
C2305 C2302 1.526 . S
C2305 C2306 1.396 . S
C2305 C2310 1.390 . S
C2306 C2300 1.465 . S
C2306 C2305 1.396 . S
C2306 C2307 1.399 . S
C2307 H2293 0.929 1_556 S
C2307 C2306 1.399 . S
C2307 C2308 1.385 1_556 S
C2308 H2294 0.931 . S
C2308 C2307 1.385 1_554 S
C2308 C2309 1.389 . S
C2309 C2308 1.389 . S
C2309 C2310 1.387 1_554 S
C2310 H2295 0.930 . S
C2310 C2305 1.390 . S
C2310 C2309 1.387 1_556 S
H2311 C2323 0.930 . S
H2312 C2325 0.930 1_455 S
H2313 C2326 0.930 . S
H2314 C2330 0.959 . S
H2315 C2330 0.959 . S
H2316 C2330 0.961 . S
H2317 C2331 0.960 . S
H2318 C2331 0.961 . S
H2319 C2331 0.959 . S
H2320 C2334 0.929 . S
H2321 C2335 0.931 . S
H2322 C2337 0.930 . S
C2323 H2311 0.930 . S
C2323 C2324 1.392 1_655 S
C2323 C2328 1.399 . S
C2324 C2323 1.392 1_455 S
C2324 C2325 1.375 1_455 S
C2325 H2312 0.930 1_655 S
C2325 C2324 1.375 1_655 S
C2325 C2326 1.388 . S
C2326 H2313 0.930 . S
C2326 C2325 1.388 . S
C2326 C2327 1.390 . S
C2327 C2326 1.390 . S
C2327 C2328 1.394 . S
C2327 C2333 1.465 . S
C2328 C2323 1.399 . S
C2328 C2327 1.394 . S
C2328 C2329 1.516 . S
C2329 C2328 1.516 . S
C2329 C2330 1.502 . S
C2329 C2331 1.561 . S
C2329 C2332 1.526 . S
C2330 H2314 0.959 . S
C2330 H2315 0.959 . S
C2330 H2316 0.961 . S
C2330 C2329 1.502 . S
C2331 H2317 0.960 . S
C2331 H2318 0.961 . S
C2331 H2319 0.959 . S
C2331 C2329 1.561 . S
C2332 C2329 1.526 . S
C2332 C2333 1.396 . S
C2332 C2337 1.390 . S
C2333 C2327 1.465 . S
C2333 C2332 1.396 . S
C2333 C2334 1.399 . S
C2334 H2320 0.929 . S
C2334 C2333 1.399 . S
C2334 C2335 1.385 . S
C2335 H2321 0.931 . S
C2335 C2334 1.385 . S
C2335 C2336 1.389 . S
C2336 C2335 1.389 . S
C2336 C2337 1.387 . S
C2337 H2322 0.930 . S
C2337 C2332 1.390 . S
C2337 C2336 1.387 . S
H2338 C2350 0.930 . S
H2339 C2352 0.930 . S
H2340 C2353 0.930 . S
H2341 C2357 0.959 . S
H2342 C2357 0.959 . S
H2343 C2357 0.961 . S
H2344 C2358 0.960 1_655 S
H2345 C2358 0.955 1_655 S
H2346 C2358 0.959 1_655 S
H2347 C2361 0.929 . S
H2348 C2362 0.931 . S
H2349 C2364 0.930 . S
C2350 H2338 0.930 . S
C2350 C2351 1.399 . S
C2350 C2355 1.399 . S
C2351 C2350 1.399 . S
C2351 C2352 1.376 . S
C2352 H2339 0.930 . S
C2352 C2351 1.376 . S
C2352 C2353 1.388 . S
C2353 H2340 0.930 . S
C2353 C2352 1.388 . S
C2353 C2354 1.390 . S
C2354 C2353 1.390 . S
C2354 C2355 1.394 . S
C2354 C2360 1.465 . S
C2355 C2350 1.399 . S
C2355 C2354 1.394 . S
C2355 C2356 1.516 . S
C2356 C2355 1.516 . S
C2356 C2357 1.502 . S
C2356 C2358 1.561 . S
C2356 C2359 1.526 . S
C2357 H2341 0.959 . S
C2357 H2342 0.959 . S
C2357 H2343 0.961 . S
C2357 C2356 1.502 . S
C2358 H2344 0.960 1_455 S
C2358 H2345 0.955 1_455 S
C2358 H2346 0.959 1_455 S
C2358 C2356 1.561 . S
C2359 C2356 1.526 . S
C2359 C2360 1.396 . S
C2359 C2364 1.390 . S
C2360 C2354 1.465 . S
C2360 C2359 1.396 . S
C2360 C2361 1.399 . S
C2361 H2347 0.929 . S
C2361 C2360 1.399 . S
C2361 C2362 1.385 . S
C2362 H2348 0.931 . S
C2362 C2361 1.385 . S
C2362 C2363 1.389 . S
C2363 C2362 1.389 . S
C2363 C2364 1.387 . S
C2364 H2349 0.930 . S
C2364 C2359 1.390 . S
C2364 C2363 1.387 . S
H2365 C2377 0.930 . S
H2366 C2379 0.930 . S
H2367 C2380 0.930 . S
H2368 C2384 0.959 . S
H2369 C2384 0.959 . S
H2370 C2384 0.961 . S
H2371 C2385 0.960 . S
H2372 C2385 0.961 . S
H2373 C2385 0.959 . S
H2374 C2388 0.929 . S
H2375 C2389 0.931 . S
H2376 C2391 0.930 . S
C2377 H2365 0.930 . S
C2377 C2378 1.399 . S
C2377 C2382 1.399 . S
C2378 C2377 1.399 . S
C2378 C2379 1.376 . S
C2379 H2366 0.930 . S
C2379 C2378 1.376 . S
C2379 C2380 1.388 . S
C2380 H2367 0.930 . S
C2380 C2379 1.388 . S
C2380 C2381 1.390 . S
C2381 C2380 1.390 . S
C2381 C2382 1.394 . S
C2381 C2387 1.465 . S
C2382 C2377 1.399 . S
C2382 C2381 1.394 . S
C2382 C2383 1.516 . S
C2383 C2382 1.516 . S
C2383 C2384 1.502 . S
C2383 C2385 1.561 . S
C2383 C2386 1.526 . S
C2384 H2368 0.959 . S
C2384 H2369 0.959 . S
C2384 H2370 0.961 . S
C2384 C2383 1.502 . S
C2385 H2371 0.960 . S
C2385 H2372 0.961 . S
C2385 H2373 0.959 . S
C2385 C2383 1.561 . S
C2386 C2383 1.526 . S
C2386 C2387 1.396 . S
C2386 C2391 1.390 . S
C2387 C2381 1.465 . S
C2387 C2386 1.396 . S
C2387 C2388 1.399 . S
C2388 H2374 0.929 . S
C2388 C2387 1.399 . S
C2388 C2389 1.385 . S
C2389 H2375 0.931 . S
C2389 C2388 1.385 . S
C2389 C2390 1.389 . S
C2390 C2389 1.389 . S
C2390 C2391 1.387 . S
C2391 H2376 0.930 . S
C2391 C2386 1.390 . S
C2391 C2390 1.387 . S
H2392 C2404 0.930 . S
H2393 C2406 0.930 . S
H2394 C2407 0.930 . S
H2395 C2411 0.959 . S
H2396 C2411 0.959 . S
H2397 C2411 0.961 . S
H2398 C2412 0.960 . S
H2399 C2412 0.961 . S
H2400 C2412 0.959 . S
H2401 C2415 0.929 . S
H2402 C2416 0.931 . S
H2403 C2418 0.930 . S
C2404 H2392 0.930 . S
C2404 C2405 1.399 . S
C2404 C2409 1.399 . S
C2405 C2404 1.399 . S
C2405 C2406 1.376 . S
C2406 H2393 0.930 . S
C2406 C2405 1.376 . S
C2406 C2407 1.388 . S
C2407 H2394 0.930 . S
C2407 C2406 1.388 . S
C2407 C2408 1.390 . S
C2408 C2407 1.390 . S
C2408 C2409 1.394 . S
C2408 C2414 1.465 . S
C2409 C2404 1.399 . S
C2409 C2408 1.394 . S
C2409 C2410 1.516 . S
C2410 C2409 1.516 . S
C2410 C2411 1.502 . S
C2410 C2412 1.561 . S
C2410 C2413 1.526 . S
C2411 H2395 0.959 . S
C2411 H2396 0.959 . S
C2411 H2397 0.961 . S
C2411 C2410 1.502 . S
C2412 H2398 0.960 . S
C2412 H2399 0.961 . S
C2412 H2400 0.959 . S
C2412 C2410 1.561 . S
C2413 C2410 1.526 . S
C2413 C2414 1.396 . S
C2413 C2418 1.390 . S
C2414 C2408 1.465 . S
C2414 C2413 1.396 . S
C2414 C2415 1.399 . S
C2415 H2401 0.929 . S
C2415 C2414 1.399 . S
C2415 C2416 1.385 . S
C2416 H2402 0.931 . S
C2416 C2415 1.385 . S
C2416 C2417 1.389 . S
C2417 C2416 1.389 . S
C2417 C2418 1.387 . S
C2418 H2403 0.930 . S
C2418 C2413 1.390 . S
C2418 C2417 1.387 . S
H2419 C2431 0.930 . S
H2420 C2433 0.930 . S
H2421 C2434 0.930 . S
H2422 C2438 0.959 . S
H2423 C2438 0.959 . S
H2424 C2438 0.961 . S
H2425 C2439 0.960 . S
H2426 C2439 0.961 . S
H2427 C2439 0.959 . S
H2428 C2442 0.929 . S
H2429 C2443 0.931 . S
H2430 C2445 0.930 . S
C2431 H2419 0.930 . S
C2431 C2432 1.399 . S
C2431 C2436 1.399 . S
C2432 C2431 1.399 . S
C2432 C2433 1.376 . S
C2433 H2420 0.930 . S
C2433 C2432 1.376 . S
C2433 C2434 1.388 . S
C2434 H2421 0.930 . S
C2434 C2433 1.388 . S
C2434 C2435 1.390 . S
C2435 C2434 1.390 . S
C2435 C2436 1.394 . S
C2435 C2441 1.465 . S
C2436 C2431 1.399 . S
C2436 C2435 1.394 . S
C2436 C2437 1.516 . S
C2437 C2436 1.516 . S
C2437 C2438 1.502 . S
C2437 C2439 1.561 . S
C2437 C2440 1.526 . S
C2438 H2422 0.959 . S
C2438 H2423 0.959 . S
C2438 H2424 0.961 . S
C2438 C2437 1.502 . S
C2439 H2425 0.960 . S
C2439 H2426 0.961 . S
C2439 H2427 0.959 . S
C2439 C2437 1.561 . S
C2440 C2437 1.526 . S
C2440 C2441 1.396 . S
C2440 C2445 1.390 . S
C2441 C2435 1.465 . S
C2441 C2440 1.396 . S
C2441 C2442 1.399 . S
C2442 H2428 0.929 . S
C2442 C2441 1.399 . S
C2442 C2443 1.385 . S
C2443 H2429 0.931 . S
C2443 C2442 1.385 . S
C2443 C2444 1.389 . S
C2444 C2443 1.389 . S
C2444 C2445 1.387 . S
C2445 H2430 0.930 . S
C2445 C2440 1.390 . S
C2445 C2444 1.387 . S
H2446 C2458 0.930 . S
H2447 C2460 0.930 . S
H2448 C2461 0.930 . S
H2449 C2465 0.959 . S
H2450 C2465 0.959 . S
H2451 C2465 0.961 . S
H2452 C2466 0.960 . S
H2453 C2466 0.961 . S
H2454 C2466 0.959 . S
H2455 C2469 0.929 . S
H2456 C2470 0.931 . S
H2457 C2472 0.930 . S
C2458 H2446 0.930 . S
C2458 C2459 1.399 . S
C2458 C2463 1.399 . S
C2459 C2458 1.399 . S
C2459 C2460 1.376 . S
C2460 H2447 0.930 . S
C2460 C2459 1.376 . S
C2460 C2461 1.388 . S
C2461 H2448 0.930 . S
C2461 C2460 1.388 . S
C2461 C2462 1.390 . S
C2462 C2461 1.390 . S
C2462 C2463 1.394 . S
C2462 C2468 1.465 . S
C2463 C2458 1.399 . S
C2463 C2462 1.394 . S
C2463 C2464 1.516 . S
C2464 C2463 1.516 . S
C2464 C2465 1.502 . S
C2464 C2466 1.561 . S
C2464 C2467 1.526 . S
C2465 H2449 0.959 . S
C2465 H2450 0.959 . S
C2465 H2451 0.961 . S
C2465 C2464 1.502 . S
C2466 H2452 0.960 . S
C2466 H2453 0.961 . S
C2466 H2454 0.959 . S
C2466 C2464 1.561 . S
C2467 C2464 1.526 . S
C2467 C2468 1.396 . S
C2467 C2472 1.390 . S
C2468 C2462 1.465 . S
C2468 C2467 1.396 . S
C2468 C2469 1.399 . S
C2469 H2455 0.929 . S
C2469 C2468 1.399 . S
C2469 C2470 1.385 1_655 S
C2470 H2456 0.931 . S
C2470 C2469 1.385 1_455 S
C2470 C2471 1.389 . S
C2471 C2470 1.389 . S
C2471 C2472 1.387 1_455 S
C2472 H2457 0.930 . S
C2472 C2467 1.390 . S
C2472 C2471 1.387 1_655 S
H2473 C2485 0.930 . S
H2474 C2487 0.930 . S
H2475 C2488 0.930 . S
H2476 C2492 0.959 . S
H2477 C2492 0.959 . S
H2478 C2492 0.961 . S
H2479 C2493 0.960 . S
H2480 C2493 0.961 . S
H2481 C2493 0.959 . S
H2482 C2496 0.929 . S
H2483 C2497 0.931 . S
H2484 C2499 0.930 . S
C2485 H2473 0.930 . S
C2485 C2486 1.399 . S
C2485 C2490 1.399 . S
C2486 C2485 1.399 . S
C2486 C2487 1.376 . S
C2487 H2474 0.930 . S
C2487 C2486 1.376 . S
C2487 C2488 1.388 . S
C2488 H2475 0.930 . S
C2488 C2487 1.388 . S
C2488 C2489 1.390 . S
C2489 C2488 1.390 . S
C2489 C2490 1.394 . S
C2489 C2495 1.465 . S
C2490 C2485 1.399 . S
C2490 C2489 1.394 . S
C2490 C2491 1.516 . S
C2491 C2490 1.516 . S
C2491 C2492 1.502 . S
C2491 C2493 1.561 . S
C2491 C2494 1.526 . S
C2492 H2476 0.959 . S
C2492 H2477 0.959 . S
C2492 H2478 0.961 . S
C2492 C2491 1.502 . S
C2493 H2479 0.960 . S
C2493 H2480 0.961 . S
C2493 H2481 0.959 . S
C2493 C2491 1.561 . S
C2494 C2491 1.526 . S
C2494 C2495 1.396 . S
C2494 C2499 1.390 . S
C2495 C2489 1.465 . S
C2495 C2494 1.396 . S
C2495 C2496 1.399 . S
C2496 H2482 0.929 . S
C2496 C2495 1.399 . S
C2496 C2497 1.385 . S
C2497 H2483 0.931 . S
C2497 C2496 1.385 . S
C2497 C2498 1.389 . S
C2498 C2497 1.389 . S
C2498 C2499 1.387 . S
C2499 H2484 0.930 . S
C2499 C2494 1.390 . S
C2499 C2498 1.387 . S
H2500 C2512 0.930 . S
H2501 C2514 0.930 . S
H2502 C2515 0.930 . S
H2503 C2519 0.959 . S
H2504 C2519 0.959 . S
H2505 C2519 0.961 . S
H2506 C2520 0.960 . S
H2507 C2520 0.961 . S
H2508 C2520 0.959 . S
H2509 C2523 0.929 . S
H2510 C2524 0.931 . S
H2511 C2526 0.930 . S
C2512 H2500 0.930 . S
C2512 C2513 1.399 . S
C2512 C2517 1.399 . S
C2513 C2512 1.399 . S
C2513 C2514 1.376 . S
C2514 H2501 0.930 . S
C2514 C2513 1.376 . S
C2514 C2515 1.388 . S
C2515 H2502 0.930 . S
C2515 C2514 1.388 . S
C2515 C2516 1.390 . S
C2516 C2515 1.390 . S
C2516 C2517 1.394 . S
C2516 C2522 1.465 . S
C2517 C2512 1.399 . S
C2517 C2516 1.394 . S
C2517 C2518 1.516 . S
C2518 C2517 1.516 . S
C2518 C2519 1.502 . S
C2518 C2520 1.561 . S
C2518 C2521 1.526 . S
C2519 H2503 0.959 . S
C2519 H2504 0.959 . S
C2519 H2505 0.961 . S
C2519 C2518 1.502 . S
C2520 H2506 0.960 . S
C2520 H2507 0.961 . S
C2520 H2508 0.959 . S
C2520 C2518 1.561 . S
C2521 C2518 1.526 . S
C2521 C2522 1.396 . S
C2521 C2526 1.390 . S
C2522 C2516 1.465 . S
C2522 C2521 1.396 . S
C2522 C2523 1.399 . S
C2523 H2509 0.929 . S
C2523 C2522 1.399 . S
C2523 C2524 1.385 . S
C2524 H2510 0.931 . S
C2524 C2523 1.385 . S
C2524 C2525 1.389 . S
C2525 C2524 1.389 . S
C2525 C2526 1.387 . S
C2526 H2511 0.930 . S
C2526 C2521 1.390 . S
C2526 C2525 1.387 . S
H2527 C2539 0.930 . S
H2528 C2541 0.930 . S
H2529 C2542 0.930 . S
H2530 C2546 0.959 . S
H2531 C2546 0.959 . S
H2532 C2546 0.961 . S
H2533 C2547 0.960 . S
H2534 C2547 0.961 . S
H2535 C2547 0.959 . S
H2536 C2550 0.929 . S
H2537 C2551 0.931 . S
H2538 C2553 0.930 . S
C2539 H2527 0.930 . S
C2539 C2540 1.399 . S
C2539 C2544 1.399 . S
C2540 C2539 1.399 . S
C2540 C2541 1.376 . S
C2541 H2528 0.930 . S
C2541 C2540 1.376 . S
C2541 C2542 1.388 . S
C2542 H2529 0.930 . S
C2542 C2541 1.388 . S
C2542 C2543 1.390 . S
C2543 C2542 1.390 . S
C2543 C2544 1.394 . S
C2543 C2549 1.465 . S
C2544 C2539 1.399 . S
C2544 C2543 1.394 . S
C2544 C2545 1.516 . S
C2545 C2544 1.516 . S
C2545 C2546 1.502 . S
C2545 C2547 1.561 . S
C2545 C2548 1.526 . S
C2546 H2530 0.959 . S
C2546 H2531 0.959 . S
C2546 H2532 0.961 . S
C2546 C2545 1.502 . S
C2547 H2533 0.960 . S
C2547 H2534 0.961 . S
C2547 H2535 0.959 . S
C2547 C2545 1.561 . S
C2548 C2545 1.526 . S
C2548 C2549 1.396 . S
C2548 C2553 1.390 . S
C2549 C2543 1.465 . S
C2549 C2548 1.396 . S
C2549 C2550 1.399 . S
C2550 H2536 0.929 . S
C2550 C2549 1.399 . S
C2550 C2551 1.385 . S
C2551 H2537 0.931 . S
C2551 C2550 1.385 . S
C2551 C2552 1.389 . S
C2552 C2551 1.389 . S
C2552 C2553 1.387 . S
C2553 H2538 0.930 . S
C2553 C2548 1.390 . S
C2553 C2552 1.387 . S
H2554 C2566 0.930 . S
H2555 C2568 0.930 . S
H2556 C2569 0.930 . S
H2557 C2573 0.959 . S
H2558 C2573 0.959 . S
H2559 C2573 0.961 . S
H2560 C2574 0.960 . S
H2561 C2574 0.961 . S
H2562 C2574 0.959 . S
H2563 C2577 0.929 . S
H2564 C2578 0.931 1_455 S
H2565 C2580 0.930 . S
C2566 H2554 0.930 . S
C2566 C2567 1.399 . S
C2566 C2571 1.399 . S
C2567 C2566 1.399 . S
C2567 C2568 1.376 . S
C2568 H2555 0.930 . S
C2568 C2567 1.376 . S
C2568 C2569 1.388 . S
C2569 H2556 0.930 . S
C2569 C2568 1.388 . S
C2569 C2570 1.390 . S
C2570 C2569 1.390 . S
C2570 C2571 1.394 . S
C2570 C2576 1.465 . S
C2571 C2566 1.399 . S
C2571 C2570 1.394 . S
C2571 C2572 1.516 . S
C2572 C2571 1.516 . S
C2572 C2573 1.502 . S
C2572 C2574 1.561 . S
C2572 C2575 1.526 . S
C2573 H2557 0.959 . S
C2573 H2558 0.959 . S
C2573 H2559 0.961 . S
C2573 C2572 1.502 . S
C2574 H2560 0.960 . S
C2574 H2561 0.961 . S
C2574 H2562 0.959 . S
C2574 C2572 1.561 . S
C2575 C2572 1.526 . S
C2575 C2576 1.396 . S
C2575 C2580 1.390 . S
C2576 C2570 1.465 . S
C2576 C2575 1.396 . S
C2576 C2577 1.399 . S
C2577 H2563 0.929 . S
C2577 C2576 1.399 . S
C2577 C2578 1.385 . S
C2578 H2564 0.931 1_655 S
C2578 C2577 1.385 . S
C2578 C2579 1.389 . S
C2579 C2578 1.389 . S
C2579 C2580 1.387 . S
C2580 H2565 0.930 . S
C2580 C2575 1.390 . S
C2580 C2579 1.387 . S
H2581 C2593 0.930 . S
H2582 C2595 0.930 . S
H2583 C2596 0.930 . S
H2584 C2600 0.959 . S
H2585 C2600 0.959 . S
H2586 C2600 0.961 . S
H2587 C2601 0.960 . S
H2588 C2601 0.961 . S
H2589 C2601 0.959 . S
H2590 C2604 0.929 . S
H2591 C2605 0.931 . S
H2592 C2607 0.930 . S
C2593 H2581 0.930 . S
C2593 C2594 1.399 . S
C2593 C2598 1.399 . S
C2594 C2593 1.399 . S
C2594 C2595 1.376 . S
C2595 H2582 0.930 . S
C2595 C2594 1.376 . S
C2595 C2596 1.388 . S
C2596 H2583 0.930 . S
C2596 C2595 1.388 . S
C2596 C2597 1.390 . S
C2597 C2596 1.390 . S
C2597 C2598 1.394 . S
C2597 C2603 1.465 . S
C2598 C2593 1.399 . S
C2598 C2597 1.394 . S
C2598 C2599 1.516 . S
C2599 C2598 1.516 . S
C2599 C2600 1.502 . S
C2599 C2601 1.561 . S
C2599 C2602 1.526 . S
C2600 H2584 0.959 . S
C2600 H2585 0.959 . S
C2600 H2586 0.961 . S
C2600 C2599 1.502 . S
C2601 H2587 0.960 . S
C2601 H2588 0.961 . S
C2601 H2589 0.959 . S
C2601 C2599 1.561 . S
C2602 C2599 1.526 . S
C2602 C2603 1.396 . S
C2602 C2607 1.390 . S
C2603 C2597 1.465 . S
C2603 C2602 1.396 . S
C2603 C2604 1.399 . S
C2604 H2590 0.929 . S
C2604 C2603 1.399 . S
C2604 C2605 1.385 . S
C2605 H2591 0.931 . S
C2605 C2604 1.385 . S
C2605 C2606 1.389 . S
C2606 C2605 1.389 . S
C2606 C2607 1.387 . S
C2607 H2592 0.930 . S
C2607 C2602 1.390 . S
C2607 C2606 1.387 . S
H2608 C2620 0.930 . S
H2609 C2622 0.930 . S
H2610 C2623 0.930 . S
H2611 C2627 0.959 . S
H2612 C2627 0.959 . S
H2613 C2627 0.961 . S
H2614 C2628 0.960 . S
H2615 C2628 0.961 . S
H2616 C2628 0.959 . S
H2617 C2631 0.929 . S
H2618 C2632 0.931 . S
H2619 C2634 0.930 . S
C2620 H2608 0.930 . S
C2620 C2621 1.399 . S
C2620 C2625 1.399 . S
C2621 C2620 1.399 . S
C2621 C2622 1.376 . S
C2622 H2609 0.930 . S
C2622 C2621 1.376 . S
C2622 C2623 1.388 . S
C2623 H2610 0.930 . S
C2623 C2622 1.388 . S
C2623 C2624 1.390 . S
C2624 C2623 1.390 . S
C2624 C2625 1.394 . S
C2624 C2630 1.465 . S
C2625 C2620 1.399 . S
C2625 C2624 1.394 . S
C2625 C2626 1.516 . S
C2626 C2625 1.516 . S
C2626 C2627 1.502 . S
C2626 C2628 1.561 . S
C2626 C2629 1.526 . S
C2627 H2611 0.959 . S
C2627 H2612 0.959 . S
C2627 H2613 0.961 . S
C2627 C2626 1.502 . S
C2628 H2614 0.960 . S
C2628 H2615 0.961 . S
C2628 H2616 0.959 . S
C2628 C2626 1.561 . S
C2629 C2626 1.526 . S
C2629 C2630 1.396 . S
C2629 C2634 1.390 . S
C2630 C2624 1.465 . S
C2630 C2629 1.396 . S
C2630 C2631 1.399 . S
C2631 H2617 0.929 . S
C2631 C2630 1.399 . S
C2631 C2632 1.385 . S
C2632 H2618 0.931 . S
C2632 C2631 1.385 . S
C2632 C2633 1.389 . S
C2633 C2632 1.389 . S
C2633 C2634 1.387 . S
C2634 H2619 0.930 . S
C2634 C2629 1.390 . S
C2634 C2633 1.387 . S
H2635 C2647 0.930 . S
H2636 C2649 0.930 . S
H2637 C2650 0.930 . S
H2638 C2654 0.959 . S
H2639 C2654 0.959 . S
H2640 C2654 0.961 . S
H2641 C2655 0.960 . S
H2642 C2655 0.961 . S
H2643 C2655 0.959 . S
H2644 C2658 0.929 . S
H2645 C2659 0.931 1_545 S
H2646 C2661 0.930 . S
C2647 H2635 0.930 . S
C2647 C2648 1.399 . S
C2647 C2652 1.399 . S
C2648 C2647 1.399 . S
C2648 C2649 1.376 . S
C2649 H2636 0.930 . S
C2649 C2648 1.376 . S
C2649 C2650 1.388 . S
C2650 H2637 0.930 . S
C2650 C2649 1.388 . S
C2650 C2651 1.390 . S
C2651 C2650 1.390 . S
C2651 C2652 1.394 . S
C2651 C2657 1.465 . S
C2652 C2647 1.399 . S
C2652 C2651 1.394 . S
C2652 C2653 1.516 . S
C2653 C2652 1.516 . S
C2653 C2654 1.502 . S
C2653 C2655 1.561 . S
C2653 C2656 1.526 . S
C2654 H2638 0.959 . S
C2654 H2639 0.959 . S
C2654 H2640 0.961 . S
C2654 C2653 1.502 . S
C2655 H2641 0.960 . S
C2655 H2642 0.961 . S
C2655 H2643 0.959 . S
C2655 C2653 1.561 . S
C2656 C2653 1.526 . S
C2656 C2657 1.396 . S
C2656 C2661 1.390 . S
C2657 C2651 1.465 . S
C2657 C2656 1.396 . S
C2657 C2658 1.399 . S
C2658 H2644 0.929 . S
C2658 C2657 1.399 . S
C2658 C2659 1.385 . S
C2659 H2645 0.931 1_565 S
C2659 C2658 1.385 . S
C2659 C2660 1.389 . S
C2660 C2659 1.389 . S
C2660 C2661 1.387 . S
C2661 H2646 0.930 . S
C2661 C2656 1.390 . S
C2661 C2660 1.387 . S
H2662 C2674 0.930 . S
H2663 C2676 0.930 . S
H2664 C2677 0.930 . S
H2665 C2681 0.959 . S
H2666 C2681 0.959 . S
H2667 C2681 0.961 . S
H2668 C2682 0.960 . S
H2669 C2682 0.961 . S
H2670 C2682 0.959 . S
H2671 C2685 0.929 . S
H2672 C2686 0.931 . S
H2673 C2688 0.930 . S
C2674 H2662 0.930 . S
C2674 C2675 1.399 . S
C2674 C2679 1.399 . S
C2675 C2674 1.399 . S
C2675 C2676 1.376 . S
C2676 H2663 0.930 . S
C2676 C2675 1.376 . S
C2676 C2677 1.388 . S
C2677 H2664 0.930 . S
C2677 C2676 1.388 . S
C2677 C2678 1.390 . S
C2678 C2677 1.390 . S
C2678 C2679 1.394 . S
C2678 C2684 1.465 . S
C2679 C2674 1.399 . S
C2679 C2678 1.394 . S
C2679 C2680 1.516 . S
C2680 C2679 1.516 . S
C2680 C2681 1.502 . S
C2680 C2682 1.561 . S
C2680 C2683 1.526 . S
C2681 H2665 0.959 . S
C2681 H2666 0.959 . S
C2681 H2667 0.961 . S
C2681 C2680 1.502 . S
C2682 H2668 0.960 . S
C2682 H2669 0.961 . S
C2682 H2670 0.959 . S
C2682 C2680 1.561 . S
C2683 C2680 1.526 . S
C2683 C2684 1.396 . S
C2683 C2688 1.390 . S
C2684 C2678 1.465 . S
C2684 C2683 1.396 . S
C2684 C2685 1.399 . S
C2685 H2671 0.929 . S
C2685 C2684 1.399 . S
C2685 C2686 1.385 . S
C2686 H2672 0.931 . S
C2686 C2685 1.385 . S
C2686 C2687 1.389 . S
C2687 C2686 1.389 . S
C2687 C2688 1.387 . S
C2688 H2673 0.930 . S
C2688 C2683 1.390 . S
C2688 C2687 1.387 . S
H2689 C2701 0.930 . S
H2690 C2703 0.930 1_556 S
H2691 C2704 0.930 1_556 S
H2692 C2708 0.959 . S
H2693 C2708 0.959 . S
H2694 C2708 0.961 . S
H2695 C2709 0.960 . S
H2696 C2709 0.961 . S
H2697 C2709 0.959 . S
H2698 C2712 0.929 1_556 S
H2699 C2713 0.931 . S
H2700 C2715 0.930 . S
C2701 H2689 0.930 . S
C2701 C2702 1.399 . S
C2701 C2706 1.399 . S
C2702 C2701 1.399 . S
C2702 C2703 1.376 . S
C2703 H2690 0.930 1_554 S
C2703 C2702 1.376 . S
C2703 C2704 1.388 . S
C2704 H2691 0.930 1_554 S
C2704 C2703 1.388 . S
C2704 C2705 1.390 . S
C2705 C2704 1.390 . S
C2705 C2706 1.394 . S
C2705 C2711 1.465 . S
C2706 C2701 1.399 . S
C2706 C2705 1.394 . S
C2706 C2707 1.516 . S
C2707 C2706 1.516 . S
C2707 C2708 1.502 . S
C2707 C2709 1.561 . S
C2707 C2710 1.526 . S
C2708 H2692 0.959 . S
C2708 H2693 0.959 . S
C2708 H2694 0.961 . S
C2708 C2707 1.502 . S
C2709 H2695 0.960 . S
C2709 H2696 0.961 . S
C2709 H2697 0.959 . S
C2709 C2707 1.561 . S
C2710 C2707 1.526 . S
C2710 C2711 1.396 . S
C2710 C2715 1.390 . S
C2711 C2705 1.465 . S
C2711 C2710 1.396 . S
C2711 C2712 1.399 . S
C2712 H2698 0.929 1_554 S
C2712 C2711 1.399 . S
C2712 C2713 1.385 . S
C2713 H2699 0.931 . S
C2713 C2712 1.385 . S
C2713 C2714 1.389 . S
C2714 C2713 1.389 . S
C2714 C2715 1.387 . S
C2715 H2700 0.930 . S
C2715 C2710 1.390 . S
C2715 C2714 1.387 . S
H2716 C2728 0.930 . S
H2717 C2730 0.930 . S
H2718 C2731 0.930 . S
H2719 C2735 0.959 . S
H2720 C2735 0.959 . S
H2721 C2735 0.961 . S
H2722 C2736 0.960 . S
H2723 C2736 0.961 . S
H2724 C2736 0.959 . S
H2725 C2739 0.929 . S
H2726 C2740 0.931 . S
H2727 C2742 0.930 . S
C2728 H2716 0.930 . S
C2728 C2729 1.399 . S
C2728 C2733 1.399 . S
C2729 C2728 1.399 . S
C2729 C2730 1.376 . S
C2730 H2717 0.930 . S
C2730 C2729 1.376 . S
C2730 C2731 1.388 . S
C2731 H2718 0.930 . S
C2731 C2730 1.388 . S
C2731 C2732 1.390 . S
C2732 C2731 1.390 . S
C2732 C2733 1.394 . S
C2732 C2738 1.465 . S
C2733 C2728 1.399 . S
C2733 C2732 1.394 . S
C2733 C2734 1.516 . S
C2734 C2733 1.516 . S
C2734 C2735 1.502 . S
C2734 C2736 1.561 . S
C2734 C2737 1.526 . S
C2735 H2719 0.959 . S
C2735 H2720 0.959 . S
C2735 H2721 0.961 . S
C2735 C2734 1.502 . S
C2736 H2722 0.960 . S
C2736 H2723 0.961 . S
C2736 H2724 0.959 . S
C2736 C2734 1.561 . S
C2737 C2734 1.526 . S
C2737 C2738 1.396 . S
C2737 C2742 1.390 . S
C2738 C2732 1.465 . S
C2738 C2737 1.396 . S
C2738 C2739 1.399 . S
C2739 H2725 0.929 . S
C2739 C2738 1.399 . S
C2739 C2740 1.385 . S
C2740 H2726 0.931 . S
C2740 C2739 1.385 . S
C2740 C2741 1.389 . S
C2741 C2740 1.389 . S
C2741 C2742 1.387 . S
C2742 H2727 0.930 . S
C2742 C2737 1.390 . S
C2742 C2741 1.387 . S
H2743 C2755 0.930 . S
H2744 C2757 0.930 . S
H2745 C2758 0.930 . S
H2746 C2762 0.959 . S
H2747 C2762 0.959 . S
H2748 C2762 0.961 . S
H2749 C2763 0.960 . S
H2750 C2763 0.961 . S
H2751 C2763 0.959 . S
H2752 C2766 0.929 1_556 S
H2753 C2767 0.931 1_556 S
H2754 C2769 0.930 . S
C2755 H2743 0.930 . S
C2755 C2756 1.399 . S
C2755 C2760 1.399 . S
C2756 C2755 1.399 . S
C2756 C2757 1.376 . S
C2757 H2744 0.930 . S
C2757 C2756 1.376 . S
C2757 C2758 1.388 . S
C2758 H2745 0.930 . S
C2758 C2757 1.388 . S
C2758 C2759 1.390 . S
C2759 C2758 1.390 . S
C2759 C2760 1.394 . S
C2759 C2765 1.465 . S
C2760 C2755 1.399 . S
C2760 C2759 1.394 . S
C2760 C2761 1.516 . S
C2761 C2760 1.516 . S
C2761 C2762 1.502 . S
C2761 C2763 1.561 . S
C2761 C2764 1.526 . S
C2762 H2746 0.959 . S
C2762 H2747 0.959 . S
C2762 H2748 0.961 . S
C2762 C2761 1.502 . S
C2763 H2749 0.960 . S
C2763 H2750 0.961 . S
C2763 H2751 0.959 . S
C2763 C2761 1.561 . S
C2764 C2761 1.526 . S
C2764 C2765 1.396 . S
C2764 C2769 1.390 . S
C2765 C2759 1.465 . S
C2765 C2764 1.396 . S
C2765 C2766 1.399 . S
C2766 H2752 0.929 1_554 S
C2766 C2765 1.399 . S
C2766 C2767 1.385 . S
C2767 H2753 0.931 1_554 S
C2767 C2766 1.385 . S
C2767 C2768 1.389 . S
C2768 C2767 1.389 . S
C2768 C2769 1.387 . S
C2769 H2754 0.930 . S
C2769 C2764 1.390 . S
C2769 C2768 1.387 . S
H2770 C2782 0.930 . S
H2771 C2784 0.930 . S
H2772 C2785 0.930 . S
H2773 C2789 0.959 . S
H2774 C2789 0.959 . S
H2775 C2789 0.961 . S
H2776 C2790 0.960 . S
H2777 C2790 0.961 . S
H2778 C2790 0.959 . S
H2779 C2793 0.929 . S
H2780 C2794 0.931 . S
H2781 C2796 0.930 . S
C2782 H2770 0.930 . S
C2782 C2783 1.399 . S
C2782 C2787 1.399 . S
C2783 C2782 1.399 . S
C2783 C2784 1.376 . S
C2784 H2771 0.930 . S
C2784 C2783 1.376 . S
C2784 C2785 1.388 . S
C2785 H2772 0.930 . S
C2785 C2784 1.388 . S
C2785 C2786 1.390 . S
C2786 C2785 1.390 . S
C2786 C2787 1.394 . S
C2786 C2792 1.465 . S
C2787 C2782 1.399 . S
C2787 C2786 1.394 . S
C2787 C2788 1.516 . S
C2788 C2787 1.516 . S
C2788 C2789 1.502 . S
C2788 C2790 1.561 . S
C2788 C2791 1.526 . S
C2789 H2773 0.959 . S
C2789 H2774 0.959 . S
C2789 H2775 0.961 . S
C2789 C2788 1.502 . S
C2790 H2776 0.960 . S
C2790 H2777 0.961 . S
C2790 H2778 0.959 . S
C2790 C2788 1.561 . S
C2791 C2788 1.526 . S
C2791 C2792 1.396 . S
C2791 C2796 1.390 . S
C2792 C2786 1.465 . S
C2792 C2791 1.396 . S
C2792 C2793 1.399 . S
C2793 H2779 0.929 . S
C2793 C2792 1.399 . S
C2793 C2794 1.385 . S
C2794 H2780 0.931 . S
C2794 C2793 1.385 . S
C2794 C2795 1.389 . S
C2795 C2794 1.389 . S
C2795 C2796 1.387 . S
C2796 H2781 0.930 . S
C2796 C2791 1.390 . S
C2796 C2795 1.387 . S
H2797 C2809 0.930 . S
H2798 C2811 0.930 . S
H2799 C2812 0.930 . S
H2800 C2816 0.959 . S
H2801 C2816 0.959 . S
H2802 C2816 0.961 . S
H2803 C2817 0.960 . S
H2804 C2817 0.961 . S
H2805 C2817 0.959 . S
H2806 C2820 0.929 . S
H2807 C2821 0.931 . S
H2808 C2823 0.930 . S
C2809 H2797 0.930 . S
C2809 C2810 1.399 . S
C2809 C2814 1.399 . S
C2810 C2809 1.399 . S
C2810 C2811 1.376 . S
C2811 H2798 0.930 . S
C2811 C2810 1.376 . S
C2811 C2812 1.388 . S
C2812 H2799 0.930 . S
C2812 C2811 1.388 . S
C2812 C2813 1.390 . S
C2813 C2812 1.390 . S
C2813 C2814 1.394 . S
C2813 C2819 1.465 . S
C2814 C2809 1.399 . S
C2814 C2813 1.394 . S
C2814 C2815 1.516 . S
C2815 C2814 1.516 . S
C2815 C2816 1.502 . S
C2815 C2817 1.561 . S
C2815 C2818 1.526 . S
C2816 H2800 0.959 . S
C2816 H2801 0.959 . S
C2816 H2802 0.961 . S
C2816 C2815 1.502 . S
C2817 H2803 0.960 . S
C2817 H2804 0.961 . S
C2817 H2805 0.959 . S
C2817 C2815 1.561 . S
C2818 C2815 1.526 . S
C2818 C2819 1.396 . S
C2818 C2823 1.390 . S
C2819 C2813 1.465 . S
C2819 C2818 1.396 . S
C2819 C2820 1.399 . S
C2820 H2806 0.929 . S
C2820 C2819 1.399 . S
C2820 C2821 1.385 . S
C2821 H2807 0.931 . S
C2821 C2820 1.385 . S
C2821 C2822 1.389 . S
C2822 C2821 1.389 . S
C2822 C2823 1.387 . S
C2823 H2808 0.930 . S
C2823 C2818 1.390 . S
C2823 C2822 1.387 . S
H2824 C2836 0.930 . S
H2825 C2838 0.930 . S
H2826 C2839 0.930 . S
H2827 C2843 0.959 . S
H2828 C2843 0.959 . S
H2829 C2843 0.961 . S
H2830 C2844 0.960 . S
H2831 C2844 0.961 . S
H2832 C2844 0.959 . S
H2833 C2847 0.929 . S
H2834 C2848 0.931 . S
H2835 C2850 0.930 . S
C2836 H2824 0.930 . S
C2836 C2837 1.399 . S
C2836 C2841 1.399 . S
C2837 C2836 1.399 . S
C2837 C2838 1.376 . S
C2838 H2825 0.930 . S
C2838 C2837 1.376 . S
C2838 C2839 1.388 . S
C2839 H2826 0.930 . S
C2839 C2838 1.388 . S
C2839 C2840 1.390 . S
C2840 C2839 1.390 . S
C2840 C2841 1.394 . S
C2840 C2846 1.465 . S
C2841 C2836 1.399 . S
C2841 C2840 1.394 . S
C2841 C2842 1.516 . S
C2842 C2841 1.516 . S
C2842 C2843 1.502 . S
C2842 C2844 1.561 . S
C2842 C2845 1.526 . S
C2843 H2827 0.959 . S
C2843 H2828 0.959 . S
C2843 H2829 0.961 . S
C2843 C2842 1.502 . S
C2844 H2830 0.960 . S
C2844 H2831 0.961 . S
C2844 H2832 0.959 . S
C2844 C2842 1.561 . S
C2845 C2842 1.526 . S
C2845 C2846 1.396 . S
C2845 C2850 1.390 . S
C2846 C2840 1.465 . S
C2846 C2845 1.396 . S
C2846 C2847 1.399 . S
C2847 H2833 0.929 . S
C2847 C2846 1.399 . S
C2847 C2848 1.385 . S
C2848 H2834 0.931 . S
C2848 C2847 1.385 . S
C2848 C2849 1.389 . S
C2849 C2848 1.389 . S
C2849 C2850 1.387 . S
C2850 H2835 0.930 . S
C2850 C2845 1.390 . S
C2850 C2849 1.387 . S
H2851 C2863 0.930 . S
H2852 C2865 0.930 . S
H2853 C2866 0.930 . S
H2854 C2870 0.959 . S
H2855 C2870 0.959 . S
H2856 C2870 0.961 . S
H2857 C2871 0.960 . S
H2858 C2871 0.961 . S
H2859 C2871 0.959 . S
H2860 C2874 0.929 . S
H2861 C2875 0.931 . S
H2862 C2877 0.930 . S
C2863 H2851 0.930 . S
C2863 C2864 1.399 . S
C2863 C2868 1.399 . S
C2864 C2863 1.399 . S
C2864 C2865 1.376 . S
C2865 H2852 0.930 . S
C2865 C2864 1.376 . S
C2865 C2866 1.388 . S
C2866 H2853 0.930 . S
C2866 C2865 1.388 . S
C2866 C2867 1.390 . S
C2867 C2866 1.390 . S
C2867 C2868 1.394 . S
C2867 C2873 1.465 . S
C2868 C2863 1.399 . S
C2868 C2867 1.394 . S
C2868 C2869 1.516 . S
C2869 C2868 1.516 . S
C2869 C2870 1.502 . S
C2869 C2871 1.561 . S
C2869 C2872 1.526 . S
C2870 H2854 0.959 . S
C2870 H2855 0.959 . S
C2870 H2856 0.961 . S
C2870 C2869 1.502 . S
C2871 H2857 0.960 . S
C2871 H2858 0.961 . S
C2871 H2859 0.959 . S
C2871 C2869 1.561 . S
C2872 C2869 1.526 . S
C2872 C2873 1.396 . S
C2872 C2877 1.390 . S
C2873 C2867 1.465 . S
C2873 C2872 1.396 . S
C2873 C2874 1.399 . S
C2874 H2860 0.929 . S
C2874 C2873 1.399 . S
C2874 C2875 1.385 . S
C2875 H2861 0.931 . S
C2875 C2874 1.385 . S
C2875 C2876 1.389 . S
C2876 C2875 1.389 . S
C2876 C2877 1.387 . S
C2877 H2862 0.930 . S
C2877 C2872 1.390 . S
C2877 C2876 1.387 . S
H2878 C2890 0.930 . S
H2879 C2892 0.930 . S
H2880 C2893 0.930 . S
H2881 C2897 0.959 . S
H2882 C2897 0.959 . S
H2883 C2897 0.961 . S
H2884 C2898 0.960 . S
H2885 C2898 0.961 . S
H2886 C2898 0.959 . S
H2887 C2901 0.929 . S
H2888 C2902 0.931 . S
H2889 C2904 0.930 . S
C2890 H2878 0.930 . S
C2890 C2891 1.399 . S
C2890 C2895 1.399 . S
C2891 C2890 1.399 . S
C2891 C2892 1.376 1_455 S
C2892 H2879 0.930 . S
C2892 C2891 1.376 1_655 S
C2892 C2893 1.388 . S
C2893 H2880 0.930 . S
C2893 C2892 1.388 . S
C2893 C2894 1.390 . S
C2894 C2893 1.390 . S
C2894 C2895 1.394 1_655 S
C2894 C2900 1.465 . S
C2895 C2890 1.399 . S
C2895 C2894 1.394 1_455 S
C2895 C2896 1.516 . S
C2896 C2895 1.516 . S
C2896 C2897 1.502 . S
C2896 C2898 1.561 . S
C2896 C2899 1.526 . S
C2897 H2881 0.959 . S
C2897 H2882 0.959 . S
C2897 H2883 0.961 . S
C2897 C2896 1.502 . S
C2898 H2884 0.960 . S
C2898 H2885 0.961 . S
C2898 H2886 0.959 . S
C2898 C2896 1.561 . S
C2899 C2896 1.526 . S
C2899 C2900 1.396 1_455 S
C2899 C2904 1.390 . S
C2900 C2894 1.465 . S
C2900 C2899 1.396 1_655 S
C2900 C2901 1.399 . S
C2901 H2887 0.929 . S
C2901 C2900 1.399 . S
C2901 C2902 1.385 . S
C2902 H2888 0.931 . S
C2902 C2901 1.385 . S
C2902 C2903 1.389 1_655 S
C2903 C2902 1.389 1_455 S
C2903 C2904 1.387 . S
C2904 H2889 0.930 . S
C2904 C2899 1.390 . S
C2904 C2903 1.387 . S
H2905 C2917 0.930 . S
H2906 C2919 0.930 . S
H2907 C2920 0.930 . S
H2908 C2924 0.959 . S
H2909 C2924 0.959 . S
H2910 C2924 0.961 . S
H2911 C2925 0.960 . S
H2912 C2925 0.961 . S
H2913 C2925 0.959 . S
H2914 C2928 0.929 . S
H2915 C2929 0.931 . S
H2916 C2931 0.930 . S
C2917 H2905 0.930 . S
C2917 C2918 1.399 . S
C2917 C2922 1.399 . S
C2918 C2917 1.399 . S
C2918 C2919 1.376 . S
C2919 H2906 0.930 . S
C2919 C2918 1.376 . S
C2919 C2920 1.388 . S
C2920 H2907 0.930 . S
C2920 C2919 1.388 . S
C2920 C2921 1.390 . S
C2921 C2920 1.390 . S
C2921 C2922 1.394 . S
C2921 C2927 1.465 . S
C2922 C2917 1.399 . S
C2922 C2921 1.394 . S
C2922 C2923 1.516 . S
C2923 C2922 1.516 . S
C2923 C2924 1.502 . S
C2923 C2925 1.561 . S
C2923 C2926 1.526 . S
C2924 H2908 0.959 . S
C2924 H2909 0.959 . S
C2924 H2910 0.961 . S
C2924 C2923 1.502 . S
C2925 H2911 0.960 . S
C2925 H2912 0.961 . S
C2925 H2913 0.959 . S
C2925 C2923 1.561 . S
C2926 C2923 1.526 . S
C2926 C2927 1.396 . S
C2926 C2931 1.390 . S
C2927 C2921 1.465 . S
C2927 C2926 1.396 . S
C2927 C2928 1.399 . S
C2928 H2914 0.929 . S
C2928 C2927 1.399 . S
C2928 C2929 1.385 . S
C2929 H2915 0.931 . S
C2929 C2928 1.385 . S
C2929 C2930 1.389 . S
C2930 C2929 1.389 . S
C2930 C2931 1.387 . S
C2931 H2916 0.930 . S
C2931 C2926 1.390 . S
C2931 C2930 1.387 . S
H2932 C2944 0.930 . S
H2933 C2946 0.930 . S
H2934 C2947 0.930 . S
H2935 C2951 0.959 . S
H2936 C2951 0.959 . S
H2937 C2951 0.961 . S
H2938 C2952 0.960 . S
H2939 C2952 0.961 . S
H2940 C2952 0.959 . S
H2941 C2955 0.929 . S
H2942 C2956 0.931 . S
H2943 C2958 0.930 . S
C2944 H2932 0.930 . S
C2944 C2945 1.399 . S
C2944 C2949 1.399 . S
C2945 C2944 1.399 . S
C2945 C2946 1.376 . S
C2946 H2933 0.930 . S
C2946 C2945 1.376 . S
C2946 C2947 1.388 . S
C2947 H2934 0.930 . S
C2947 C2946 1.388 . S
C2947 C2948 1.390 . S
C2948 C2947 1.390 . S
C2948 C2949 1.394 . S
C2948 C2954 1.465 . S
C2949 C2944 1.399 . S
C2949 C2948 1.394 . S
C2949 C2950 1.516 . S
C2950 C2949 1.516 . S
C2950 C2951 1.502 . S
C2950 C2952 1.561 . S
C2950 C2953 1.526 . S
C2951 H2935 0.959 . S
C2951 H2936 0.959 . S
C2951 H2937 0.961 . S
C2951 C2950 1.502 . S
C2952 H2938 0.960 . S
C2952 H2939 0.961 . S
C2952 H2940 0.959 . S
C2952 C2950 1.561 . S
C2953 C2950 1.526 . S
C2953 C2954 1.396 . S
C2953 C2958 1.390 . S
C2954 C2948 1.465 . S
C2954 C2953 1.396 . S
C2954 C2955 1.399 . S
C2955 H2941 0.929 . S
C2955 C2954 1.399 . S
C2955 C2956 1.385 . S
C2956 H2942 0.931 . S
C2956 C2955 1.385 . S
C2956 C2957 1.389 . S
C2957 C2956 1.389 . S
C2957 C2958 1.387 . S
C2958 H2943 0.930 . S
C2958 C2953 1.390 . S
C2958 C2957 1.387 . S
H2959 C2971 0.930 . S
H2960 C2973 0.930 . S
H2961 C2974 0.930 . S
H2962 C2978 0.959 . S
H2963 C2978 0.959 . S
H2964 C2978 0.961 . S
H2965 C2979 0.960 . S
H2966 C2979 0.961 . S
H2967 C2979 0.959 . S
H2968 C2982 0.929 . S
H2969 C2983 0.931 . S
H2970 C2985 0.930 . S
C2971 H2959 0.930 . S
C2971 C2972 1.399 . S
C2971 C2976 1.399 . S
C2972 C2971 1.399 . S
C2972 C2973 1.376 . S
C2973 H2960 0.930 . S
C2973 C2972 1.376 . S
C2973 C2974 1.388 . S
C2974 H2961 0.930 . S
C2974 C2973 1.388 . S
C2974 C2975 1.390 . S
C2975 C2974 1.390 . S
C2975 C2976 1.394 . S
C2975 C2981 1.465 . S
C2976 C2971 1.399 . S
C2976 C2975 1.394 . S
C2976 C2977 1.516 . S
C2977 C2976 1.516 . S
C2977 C2978 1.502 . S
C2977 C2979 1.561 . S
C2977 C2980 1.526 . S
C2978 H2962 0.959 . S
C2978 H2963 0.959 . S
C2978 H2964 0.961 . S
C2978 C2977 1.502 . S
C2979 H2965 0.960 . S
C2979 H2966 0.961 . S
C2979 H2967 0.959 . S
C2979 C2977 1.561 . S
C2980 C2977 1.526 . S
C2980 C2981 1.396 . S
C2980 C2985 1.390 . S
C2981 C2975 1.465 . S
C2981 C2980 1.396 . S
C2981 C2982 1.399 . S
C2982 H2968 0.929 . S
C2982 C2981 1.399 . S
C2982 C2983 1.385 . S
C2983 H2969 0.931 . S
C2983 C2982 1.385 . S
C2983 C2984 1.389 . S
C2984 C2983 1.389 . S
C2984 C2985 1.387 . S
C2985 H2970 0.930 . S
C2985 C2980 1.390 . S
C2985 C2984 1.387 . S
H2986 C2998 0.930 . S
H2987 C3000 0.930 . S
H2988 C3001 0.930 . S
H2989 C3005 0.959 . S
H2990 C3005 0.959 . S
H2991 C3005 0.961 . S
H2992 C3006 0.960 . S
H2993 C3006 0.961 . S
H2994 C3006 0.959 1_655 S
H2995 C3009 0.929 . S
H2996 C3010 0.931 . S
H2997 C3012 0.930 . S
C2998 H2986 0.930 . S
C2998 C2999 1.399 . S
C2998 C3003 1.399 . S
C2999 C2998 1.399 . S
C2999 C3000 1.376 . S
C3000 H2987 0.930 . S
C3000 C2999 1.376 . S
C3000 C3001 1.388 . S
C3001 H2988 0.930 . S
C3001 C3000 1.388 . S
C3001 C3002 1.390 . S
C3002 C3001 1.390 . S
C3002 C3003 1.394 . S
C3002 C3008 1.465 . S
C3003 C2998 1.399 . S
C3003 C3002 1.394 . S
C3003 C3004 1.516 . S
C3004 C3003 1.516 . S
C3004 C3005 1.502 . S
C3004 C3006 1.561 . S
C3004 C3007 1.526 . S
C3005 H2989 0.959 . S
C3005 H2990 0.959 . S
C3005 H2991 0.961 . S
C3005 C3004 1.502 . S
C3006 H2992 0.960 . S
C3006 H2993 0.961 . S
C3006 H2994 0.959 1_455 S
C3006 C3004 1.561 . S
C3007 C3004 1.526 . S
C3007 C3008 1.396 . S
C3007 C3012 1.390 . S
C3008 C3002 1.465 . S
C3008 C3007 1.396 . S
C3008 C3009 1.399 . S
C3009 H2995 0.929 . S
C3009 C3008 1.399 . S
C3009 C3010 1.385 . S
C3010 H2996 0.931 . S
C3010 C3009 1.385 . S
C3010 C3011 1.389 . S
C3011 C3010 1.389 . S
C3011 C3012 1.387 . S
C3012 H2997 0.930 . S
C3012 C3007 1.390 . S
C3012 C3011 1.387 . S
H3013 C3025 0.930 . S
H3014 C3027 0.930 . S
H3015 C3028 0.930 . S
H3016 C3032 0.959 . S
H3017 C3032 0.959 . S
H3018 C3032 0.961 . S
H3019 C3033 0.960 . S
H3020 C3033 0.961 . S
H3021 C3033 0.959 . S
H3022 C3036 0.929 . S
H3023 C3037 0.931 . S
H3024 C3039 0.930 . S
C3025 H3013 0.930 . S
C3025 C3026 1.399 . S
C3025 C3030 1.399 . S
C3026 C3025 1.399 . S
C3026 C3027 1.376 . S
C3027 H3014 0.930 . S
C3027 C3026 1.376 . S
C3027 C3028 1.388 . S
C3028 H3015 0.930 . S
C3028 C3027 1.388 . S
C3028 C3029 1.390 . S
C3029 C3028 1.390 . S
C3029 C3030 1.394 . S
C3029 C3035 1.465 . S
C3030 C3025 1.399 . S
C3030 C3029 1.394 . S
C3030 C3031 1.516 . S
C3031 C3030 1.516 . S
C3031 C3032 1.502 . S
C3031 C3033 1.561 . S
C3031 C3034 1.526 . S
C3032 H3016 0.959 . S
C3032 H3017 0.959 . S
C3032 H3018 0.961 . S
C3032 C3031 1.502 . S
C3033 H3019 0.960 . S
C3033 H3020 0.961 . S
C3033 H3021 0.959 . S
C3033 C3031 1.561 . S
C3034 C3031 1.526 . S
C3034 C3035 1.396 . S
C3034 C3039 1.390 . S
C3035 C3029 1.465 . S
C3035 C3034 1.396 . S
C3035 C3036 1.399 . S
C3036 H3022 0.929 . S
C3036 C3035 1.399 . S
C3036 C3037 1.385 . S
C3037 H3023 0.931 . S
C3037 C3036 1.385 . S
C3037 C3038 1.389 . S
C3038 C3037 1.389 . S
C3038 C3039 1.387 . S
C3039 H3024 0.930 . S
C3039 C3034 1.390 . S
C3039 C3038 1.387 . S
H3040 C3052 0.930 . S
H3041 C3054 0.930 . S
H3042 C3055 0.930 . S
H3043 C3059 0.959 . S
H3044 C3059 0.959 . S
H3045 C3059 0.961 . S
H3046 C3060 0.960 . S
H3047 C3060 0.961 . S
H3048 C3060 0.959 . S
H3049 C3063 0.929 . S
H3050 C3064 0.931 . S
H3051 C3066 0.930 . S
C3052 H3040 0.930 . S
C3052 C3053 1.399 . S
C3052 C3057 1.399 . S
C3053 C3052 1.399 . S
C3053 C3054 1.376 . S
C3054 H3041 0.930 . S
C3054 C3053 1.376 . S
C3054 C3055 1.388 . S
C3055 H3042 0.930 . S
C3055 C3054 1.388 . S
C3055 C3056 1.390 . S
C3056 C3055 1.390 . S
C3056 C3057 1.394 . S
C3056 C3062 1.465 . S
C3057 C3052 1.399 . S
C3057 C3056 1.394 . S
C3057 C3058 1.516 . S
C3058 C3057 1.516 . S
C3058 C3059 1.502 . S
C3058 C3060 1.561 . S
C3058 C3061 1.526 . S
C3059 H3043 0.959 . S
C3059 H3044 0.959 . S
C3059 H3045 0.961 . S
C3059 C3058 1.502 . S
C3060 H3046 0.960 . S
C3060 H3047 0.961 . S
C3060 H3048 0.959 . S
C3060 C3058 1.561 . S
C3061 C3058 1.526 . S
C3061 C3062 1.396 . S
C3061 C3066 1.390 . S
C3062 C3056 1.465 . S
C3062 C3061 1.396 . S
C3062 C3063 1.399 . S
C3063 H3049 0.929 . S
C3063 C3062 1.399 . S
C3063 C3064 1.385 . S
C3064 H3050 0.931 . S
C3064 C3063 1.385 . S
C3064 C3065 1.389 . S
C3065 C3064 1.389 . S
C3065 C3066 1.387 . S
C3066 H3051 0.930 . S
C3066 C3061 1.390 . S
C3066 C3065 1.387 . S
H3067 C3079 0.930 . S
H3068 C3081 0.930 . S
H3069 C3082 0.930 . S
H3070 C3086 0.959 . S
H3071 C3086 0.959 . S
H3072 C3086 0.961 . S
H3073 C3087 0.960 . S
H3074 C3087 0.961 . S
H3075 C3087 0.959 . S
H3076 C3090 0.929 . S
H3077 C3091 0.931 . S
H3078 C3093 0.930 . S
C3079 H3067 0.930 . S
C3079 C3080 1.399 . S
C3079 C3084 1.399 . S
C3080 C3079 1.399 . S
C3080 C3081 1.376 . S
C3081 H3068 0.930 . S
C3081 C3080 1.376 . S
C3081 C3082 1.388 . S
C3082 H3069 0.930 . S
C3082 C3081 1.388 . S
C3082 C3083 1.390 . S
C3083 C3082 1.390 . S
C3083 C3084 1.394 . S
C3083 C3089 1.465 . S
C3084 C3079 1.399 . S
C3084 C3083 1.394 . S
C3084 C3085 1.516 . S
C3085 C3084 1.516 . S
C3085 C3086 1.502 . S
C3085 C3087 1.561 . S
C3085 C3088 1.526 . S
C3086 H3070 0.959 . S
C3086 H3071 0.959 . S
C3086 H3072 0.961 . S
C3086 C3085 1.502 . S
C3087 H3073 0.960 . S
C3087 H3074 0.961 . S
C3087 H3075 0.959 . S
C3087 C3085 1.561 . S
C3088 C3085 1.526 . S
C3088 C3089 1.396 . S
C3088 C3093 1.390 . S
C3089 C3083 1.465 . S
C3089 C3088 1.396 . S
C3089 C3090 1.399 . S
C3090 H3076 0.929 . S
C3090 C3089 1.399 . S
C3090 C3091 1.385 . S
C3091 H3077 0.931 . S
C3091 C3090 1.385 . S
C3091 C3092 1.389 . S
C3092 C3091 1.389 . S
C3092 C3093 1.387 . S
C3093 H3078 0.930 . S
C3093 C3088 1.390 . S
C3093 C3092 1.387 . S
H3094 C3106 0.930 . S
H3095 C3108 0.930 . S
H3096 C3109 0.930 . S
H3097 C3113 0.959 . S
H3098 C3113 0.959 . S
H3099 C3113 0.961 . S
H3100 C3114 0.960 . S
H3101 C3114 0.961 . S
H3102 C3114 0.959 . S
H3103 C3117 0.929 . S
H3104 C3118 0.931 . S
H3105 C3120 0.930 . S
C3106 H3094 0.930 . S
C3106 C3107 1.399 . S
C3106 C3111 1.399 . S
C3107 C3106 1.399 . S
C3107 C3108 1.376 . S
C3108 H3095 0.930 . S
C3108 C3107 1.376 . S
C3108 C3109 1.388 . S
C3109 H3096 0.930 . S
C3109 C3108 1.388 . S
C3109 C3110 1.390 . S
C3110 C3109 1.390 . S
C3110 C3111 1.394 . S
C3110 C3116 1.465 . S
C3111 C3106 1.399 . S
C3111 C3110 1.394 . S
C3111 C3112 1.516 . S
C3112 C3111 1.516 . S
C3112 C3113 1.502 . S
C3112 C3114 1.561 . S
C3112 C3115 1.526 . S
C3113 H3097 0.959 . S
C3113 H3098 0.959 . S
C3113 H3099 0.961 . S
C3113 C3112 1.502 . S
C3114 H3100 0.960 . S
C3114 H3101 0.961 . S
C3114 H3102 0.959 . S
C3114 C3112 1.561 . S
C3115 C3112 1.526 . S
C3115 C3116 1.396 . S
C3115 C3120 1.390 . S
C3116 C3110 1.465 . S
C3116 C3115 1.396 . S
C3116 C3117 1.399 . S
C3117 H3103 0.929 . S
C3117 C3116 1.399 . S
C3117 C3118 1.385 . S
C3118 H3104 0.931 . S
C3118 C3117 1.385 . S
C3118 C3119 1.389 . S
C3119 C3118 1.389 . S
C3119 C3120 1.387 . S
C3120 H3105 0.930 . S
C3120 C3115 1.390 . S
C3120 C3119 1.387 . S
H3121 C3133 0.930 . S
H3122 C3135 0.930 . S
H3123 C3136 0.930 . S
H3124 C3140 0.959 . S
H3125 C3140 0.959 . S
H3126 C3140 0.961 . S
H3127 C3141 0.960 . S
H3128 C3141 0.961 . S
H3129 C3141 0.959 . S
H3130 C3144 0.929 . S
H3131 C3145 0.931 . S
H3132 C3147 0.930 . S
C3133 H3121 0.930 . S
C3133 C3134 1.399 . S
C3133 C3138 1.399 . S
C3134 C3133 1.399 . S
C3134 C3135 1.376 . S
C3135 H3122 0.930 . S
C3135 C3134 1.376 . S
C3135 C3136 1.388 . S
C3136 H3123 0.930 . S
C3136 C3135 1.388 . S
C3136 C3137 1.390 . S
C3137 C3136 1.390 . S
C3137 C3138 1.394 . S
C3137 C3143 1.465 . S
C3138 C3133 1.399 . S
C3138 C3137 1.394 . S
C3138 C3139 1.516 . S
C3139 C3138 1.516 . S
C3139 C3140 1.502 . S
C3139 C3141 1.561 . S
C3139 C3142 1.526 . S
C3140 H3124 0.959 . S
C3140 H3125 0.959 . S
C3140 H3126 0.961 . S
C3140 C3139 1.502 . S
C3141 H3127 0.960 . S
C3141 H3128 0.961 . S
C3141 H3129 0.959 . S
C3141 C3139 1.561 . S
C3142 C3139 1.526 . S
C3142 C3143 1.396 . S
C3142 C3147 1.390 . S
C3143 C3137 1.465 . S
C3143 C3142 1.396 . S
C3143 C3144 1.399 . S
C3144 H3130 0.929 . S
C3144 C3143 1.399 . S
C3144 C3145 1.385 . S
C3145 H3131 0.931 . S
C3145 C3144 1.385 . S
C3145 C3146 1.389 . S
C3146 C3145 1.389 . S
C3146 C3147 1.387 . S
C3147 H3132 0.930 . S
C3147 C3142 1.390 . S
C3147 C3146 1.387 . S
H3148 C3160 0.930 . S
H3149 C3162 0.930 . S
H3150 C3163 0.930 . S
H3151 C3167 0.959 . S
H3152 C3167 0.959 . S
H3153 C3167 0.961 . S
H3154 C3168 0.960 . S
H3155 C3168 0.961 . S
H3156 C3168 0.959 . S
H3157 C3171 0.929 . S
H3158 C3172 0.931 . S
H3159 C3174 0.930 . S
C3160 H3148 0.930 . S
C3160 C3161 1.399 . S
C3160 C3165 1.399 . S
C3161 C3160 1.399 . S
C3161 C3162 1.376 . S
C3162 H3149 0.930 . S
C3162 C3161 1.376 . S
C3162 C3163 1.388 . S
C3163 H3150 0.930 . S
C3163 C3162 1.388 . S
C3163 C3164 1.390 . S
C3164 C3163 1.390 . S
C3164 C3165 1.394 . S
C3164 C3170 1.465 . S
C3165 C3160 1.399 . S
C3165 C3164 1.394 . S
C3165 C3166 1.516 . S
C3166 C3165 1.516 . S
C3166 C3167 1.502 . S
C3166 C3168 1.561 . S
C3166 C3169 1.526 . S
C3167 H3151 0.959 . S
C3167 H3152 0.959 . S
C3167 H3153 0.961 . S
C3167 C3166 1.502 . S
C3168 H3154 0.960 . S
C3168 H3155 0.961 . S
C3168 H3156 0.959 . S
C3168 C3166 1.561 . S
C3169 C3166 1.526 . S
C3169 C3170 1.396 . S
C3169 C3174 1.390 . S
C3170 C3164 1.465 . S
C3170 C3169 1.396 . S
C3170 C3171 1.399 . S
C3171 H3157 0.929 . S
C3171 C3170 1.399 . S
C3171 C3172 1.385 . S
C3172 H3158 0.931 . S
C3172 C3171 1.385 . S
C3172 C3173 1.389 . S
C3173 C3172 1.389 . S
C3173 C3174 1.387 . S
C3174 H3159 0.930 . S
C3174 C3169 1.390 . S
C3174 C3173 1.387 . S
H3175 C3187 0.930 . S
H3176 C3189 0.930 . S
H3177 C3190 0.930 . S
H3178 C3194 0.959 . S
H3179 C3194 0.959 . S
H3180 C3194 0.961 . S
H3181 C3195 0.960 . S
H3182 C3195 0.961 . S
H3183 C3195 0.959 . S
H3184 C3198 0.929 . S
H3185 C3199 0.931 . S
H3186 C3201 0.930 . S
C3187 H3175 0.930 . S
C3187 C3188 1.399 . S
C3187 C3192 1.399 . S
C3188 C3187 1.399 . S
C3188 C3189 1.376 . S
C3189 H3176 0.930 . S
C3189 C3188 1.376 . S
C3189 C3190 1.388 . S
C3190 H3177 0.930 . S
C3190 C3189 1.388 . S
C3190 C3191 1.390 . S
C3191 C3190 1.390 . S
C3191 C3192 1.394 . S
C3191 C3197 1.465 . S
C3192 C3187 1.399 . S
C3192 C3191 1.394 . S
C3192 C3193 1.516 . S
C3193 C3192 1.516 . S
C3193 C3194 1.502 . S
C3193 C3195 1.561 . S
C3193 C3196 1.526 . S
C3194 H3178 0.959 . S
C3194 H3179 0.959 . S
C3194 H3180 0.961 . S
C3194 C3193 1.502 . S
C3195 H3181 0.960 . S
C3195 H3182 0.961 . S
C3195 H3183 0.959 . S
C3195 C3193 1.561 . S
C3196 C3193 1.526 . S
C3196 C3197 1.396 . S
C3196 C3201 1.390 . S
C3197 C3191 1.465 . S
C3197 C3196 1.396 . S
C3197 C3198 1.399 . S
C3198 H3184 0.929 . S
C3198 C3197 1.399 . S
C3198 C3199 1.385 . S
C3199 H3185 0.931 . S
C3199 C3198 1.385 . S
C3199 C3200 1.389 . S
C3200 C3199 1.389 . S
C3200 C3201 1.387 . S
C3201 H3186 0.930 . S
C3201 C3196 1.390 . S
C3201 C3200 1.387 . S
H3202 C3214 0.930 . S
H3203 C3216 0.930 . S
H3204 C3217 0.930 . S
H3205 C3221 0.959 . S
H3206 C3221 0.959 . S
H3207 C3221 0.961 . S
H3208 C3222 0.960 . S
H3209 C3222 0.961 . S
H3210 C3222 0.959 . S
H3211 C3225 0.929 . S
H3212 C3226 0.931 . S
H3213 C3228 0.930 . S
C3214 H3202 0.930 . S
C3214 C3215 1.399 . S
C3214 C3219 1.399 . S
C3215 C3214 1.399 . S
C3215 C3216 1.376 . S
C3216 H3203 0.930 . S
C3216 C3215 1.376 . S
C3216 C3217 1.388 . S
C3217 H3204 0.930 . S
C3217 C3216 1.388 . S
C3217 C3218 1.390 . S
C3218 C3217 1.390 . S
C3218 C3219 1.394 . S
C3218 C3224 1.465 . S
C3219 C3214 1.399 . S
C3219 C3218 1.394 . S
C3219 C3220 1.516 . S
C3220 C3219 1.516 . S
C3220 C3221 1.502 . S
C3220 C3222 1.561 . S
C3220 C3223 1.526 . S
C3221 H3205 0.959 . S
C3221 H3206 0.959 . S
C3221 H3207 0.961 . S
C3221 C3220 1.502 . S
C3222 H3208 0.960 . S
C3222 H3209 0.961 . S
C3222 H3210 0.959 . S
C3222 C3220 1.561 . S
C3223 C3220 1.526 . S
C3223 C3224 1.396 . S
C3223 C3228 1.390 . S
C3224 C3218 1.465 . S
C3224 C3223 1.396 . S
C3224 C3225 1.399 . S
C3225 H3211 0.929 . S
C3225 C3224 1.399 . S
C3225 C3226 1.385 . S
C3226 H3212 0.931 . S
C3226 C3225 1.385 . S
C3226 C3227 1.389 . S
C3227 C3226 1.389 . S
C3227 C3228 1.387 . S
C3228 H3213 0.930 . S
C3228 C3223 1.390 . S
C3228 C3227 1.387 . S
H3229 C3241 0.930 . S
H3230 C3243 0.930 . S
H3231 C3244 0.930 . S
H3232 C3248 0.959 . S
H3233 C3248 0.959 . S
H3234 C3248 0.961 . S
H3235 C3249 0.960 . S
H3236 C3249 0.961 . S
H3237 C3249 0.959 . S
H3238 C3252 0.929 . S
H3239 C3253 0.931 . S
H3240 C3255 0.930 . S
C3241 H3229 0.930 . S
C3241 C3242 1.399 . S
C3241 C3246 1.399 . S
C3242 C3241 1.399 . S
C3242 C3243 1.376 . S
C3243 H3230 0.930 . S
C3243 C3242 1.376 . S
C3243 C3244 1.388 . S
C3244 H3231 0.930 . S
C3244 C3243 1.388 . S
C3244 C3245 1.390 . S
C3245 C3244 1.390 . S
C3245 C3246 1.394 . S
C3245 C3251 1.465 . S
C3246 C3241 1.399 . S
C3246 C3245 1.394 . S
C3246 C3247 1.516 . S
C3247 C3246 1.516 . S
C3247 C3248 1.502 . S
C3247 C3249 1.561 . S
C3247 C3250 1.526 . S
C3248 H3232 0.959 . S
C3248 H3233 0.959 . S
C3248 H3234 0.961 . S
C3248 C3247 1.502 . S
C3249 H3235 0.960 . S
C3249 H3236 0.961 . S
C3249 H3237 0.959 . S
C3249 C3247 1.561 . S
C3250 C3247 1.526 . S
C3250 C3251 1.396 . S
C3250 C3255 1.390 . S
C3251 C3245 1.465 . S
C3251 C3250 1.396 . S
C3251 C3252 1.399 . S
C3252 H3238 0.929 . S
C3252 C3251 1.399 . S
C3252 C3253 1.385 . S
C3253 H3239 0.931 . S
C3253 C3252 1.385 . S
C3253 C3254 1.389 . S
C3254 C3253 1.389 . S
C3254 C3255 1.387 . S
C3255 H3240 0.930 . S
C3255 C3250 1.390 . S
C3255 C3254 1.387 . S
H3256 C3268 0.930 . S
H3257 C3270 0.930 . S
H3258 C3271 0.930 . S
H3259 C3275 0.959 . S
H3260 C3275 0.959 . S
H3261 C3275 0.961 . S
H3262 C3276 0.960 . S
H3263 C3276 0.961 . S
H3264 C3276 0.959 . S
H3265 C3279 0.929 . S
H3266 C3280 0.931 . S
H3267 C3282 0.930 . S
C3268 H3256 0.930 . S
C3268 C3269 1.399 . S
C3268 C3273 1.399 . S
C3269 C3268 1.399 . S
C3269 C3270 1.376 . S
C3270 H3257 0.930 . S
C3270 C3269 1.376 . S
C3270 C3271 1.388 . S
C3271 H3258 0.930 . S
C3271 C3270 1.388 . S
C3271 C3272 1.390 . S
C3272 C3271 1.390 . S
C3272 C3273 1.394 . S
C3272 C3278 1.465 . S
C3273 C3268 1.399 . S
C3273 C3272 1.394 . S
C3273 C3274 1.516 . S
C3274 C3273 1.516 . S
C3274 C3275 1.502 . S
C3274 C3276 1.561 . S
C3274 C3277 1.526 . S
C3275 H3259 0.959 . S
C3275 H3260 0.959 . S
C3275 H3261 0.961 . S
C3275 C3274 1.502 . S
C3276 H3262 0.960 . S
C3276 H3263 0.961 . S
C3276 H3264 0.959 . S
C3276 C3274 1.561 . S
C3277 C3274 1.526 . S
C3277 C3278 1.396 . S
C3277 C3282 1.390 . S
C3278 C3272 1.465 . S
C3278 C3277 1.396 . S
C3278 C3279 1.399 . S
C3279 H3265 0.929 . S
C3279 C3278 1.399 . S
C3279 C3280 1.385 . S
C3280 H3266 0.931 . S
C3280 C3279 1.385 . S
C3280 C3281 1.389 . S
C3281 C3280 1.389 . S
C3281 C3282 1.387 . S
C3282 H3267 0.930 . S
C3282 C3277 1.390 . S
C3282 C3281 1.387 . S
H3283 C3295 0.930 . S
H3284 C3297 0.930 . S
H3285 C3298 0.930 . S
H3286 C3302 0.959 . S
H3287 C3302 0.959 . S
H3288 C3302 0.961 . S
H3289 C3303 0.960 . S
H3290 C3303 0.961 . S
H3291 C3303 0.959 . S
H3292 C3306 0.929 . S
H3293 C3307 0.931 . S
H3294 C3309 0.930 . S
C3295 H3283 0.930 . S
C3295 C3296 1.399 . S
C3295 C3300 1.399 . S
C3296 C3295 1.399 . S
C3296 C3297 1.376 . S
C3297 H3284 0.930 . S
C3297 C3296 1.376 . S
C3297 C3298 1.388 . S
C3298 H3285 0.930 . S
C3298 C3297 1.388 . S
C3298 C3299 1.390 . S
C3299 C3298 1.390 . S
C3299 C3300 1.394 . S
C3299 C3305 1.465 . S
C3300 C3295 1.399 . S
C3300 C3299 1.394 . S
C3300 C3301 1.516 . S
C3301 C3300 1.516 . S
C3301 C3302 1.502 . S
C3301 C3303 1.561 . S
C3301 C3304 1.526 . S
C3302 H3286 0.959 . S
C3302 H3287 0.959 . S
C3302 H3288 0.961 . S
C3302 C3301 1.502 . S
C3303 H3289 0.960 . S
C3303 H3290 0.961 . S
C3303 H3291 0.959 . S
C3303 C3301 1.561 . S
C3304 C3301 1.526 . S
C3304 C3305 1.396 . S
C3304 C3309 1.390 . S
C3305 C3299 1.465 . S
C3305 C3304 1.396 . S
C3305 C3306 1.399 . S
C3306 H3292 0.929 . S
C3306 C3305 1.399 . S
C3306 C3307 1.385 . S
C3307 H3293 0.931 . S
C3307 C3306 1.385 . S
C3307 C3308 1.389 . S
C3308 C3307 1.389 . S
C3308 C3309 1.387 . S
C3309 H3294 0.930 . S
C3309 C3304 1.390 . S
C3309 C3308 1.387 . S
H3310 C3322 0.930 . S
H3311 C3324 0.930 . S
H3312 C3325 0.930 . S
H3313 C3329 0.959 . S
H3314 C3329 0.959 . S
H3315 C3329 0.961 . S
H3316 C3330 0.960 . S
H3317 C3330 0.961 . S
H3318 C3330 0.959 . S
H3319 C3333 0.929 . S
H3320 C3334 0.931 . S
H3321 C3336 0.930 . S
C3322 H3310 0.930 . S
C3322 C3323 1.399 . S
C3322 C3327 1.399 . S
C3323 C3322 1.399 . S
C3323 C3324 1.376 . S
C3324 H3311 0.930 . S
C3324 C3323 1.376 . S
C3324 C3325 1.388 . S
C3325 H3312 0.930 . S
C3325 C3324 1.388 . S
C3325 C3326 1.390 . S
C3326 C3325 1.390 . S
C3326 C3327 1.394 . S
C3326 C3332 1.465 . S
C3327 C3322 1.399 . S
C3327 C3326 1.394 . S
C3327 C3328 1.516 . S
C3328 C3327 1.516 . S
C3328 C3329 1.502 . S
C3328 C3330 1.561 . S
C3328 C3331 1.526 . S
C3329 H3313 0.959 . S
C3329 H3314 0.959 . S
C3329 H3315 0.961 . S
C3329 C3328 1.502 . S
C3330 H3316 0.960 . S
C3330 H3317 0.961 . S
C3330 H3318 0.959 . S
C3330 C3328 1.561 . S
C3331 C3328 1.526 . S
C3331 C3332 1.396 . S
C3331 C3336 1.390 . S
C3332 C3326 1.465 . S
C3332 C3331 1.396 . S
C3332 C3333 1.399 . S
C3333 H3319 0.929 . S
C3333 C3332 1.399 . S
C3333 C3334 1.385 . S
C3334 H3320 0.931 . S
C3334 C3333 1.385 . S
C3334 C3335 1.389 . S
C3335 C3334 1.389 . S
C3335 C3336 1.387 . S
C3336 H3321 0.930 . S
C3336 C3331 1.390 . S
C3336 C3335 1.387 . S
H3337 C3349 0.930 . S
H3338 C3351 0.930 . S
H3339 C3352 0.930 . S
H3340 C3356 0.959 . S
H3341 C3356 0.959 . S
H3342 C3356 0.961 . S
H3343 C3357 0.960 . S
H3344 C3357 0.961 . S
H3345 C3357 0.944 1_566 S
H3346 C3360 0.929 . S
H3347 C3361 0.931 . S
H3348 C3363 0.930 . S
C3349 H3337 0.930 . S
C3349 C3350 1.399 . S
C3349 C3354 1.399 . S
C3350 C3349 1.399 . S
C3350 C3351 1.376 . S
C3351 H3338 0.930 . S
C3351 C3350 1.376 . S
C3351 C3352 1.388 . S
C3352 H3339 0.930 . S
C3352 C3351 1.388 . S
C3352 C3353 1.390 . S
C3353 C3352 1.390 . S
C3353 C3354 1.394 . S
C3353 C3359 1.465 . S
C3354 C3349 1.399 . S
C3354 C3353 1.394 . S
C3354 C3355 1.516 . S
C3355 C3354 1.516 . S
C3355 C3356 1.502 1_565 S
C3355 C3357 1.561 1_565 S
C3355 C3358 1.526 . S
C3356 H3340 0.959 . S
C3356 H3341 0.959 . S
C3356 H3342 0.961 . S
C3356 C3355 1.502 1_545 S
C3357 H3343 0.960 . S
C3357 H3344 0.961 . S
C3357 H3345 0.944 1_544 S
C3357 C3355 1.561 1_545 S
C3358 C3355 1.526 . S
C3358 C3359 1.396 . S
C3358 C3363 1.390 1_565 S
C3359 C3353 1.465 . S
C3359 C3358 1.396 . S
C3359 C3360 1.399 . S
C3360 H3346 0.929 . S
C3360 C3359 1.399 . S
C3360 C3361 1.385 . S
C3361 H3347 0.931 . S
C3361 C3360 1.385 . S
C3361 C3362 1.389 1_565 S
C3362 C3361 1.389 1_545 S
C3362 C3363 1.387 . S
C3363 H3348 0.930 . S
C3363 C3358 1.390 1_545 S
C3363 C3362 1.387 . S
H3364 C3376 0.930 . S
H3365 C3378 0.930 . S
H3366 C3379 0.930 . S
H3367 C3383 0.959 . S
H3368 C3383 0.959 . S
H3369 C3383 0.961 . S
H3370 C3384 0.960 . S
H3371 C3384 0.961 . S
H3372 C3384 0.959 . S
H3373 C3387 0.929 . S
H3374 C3388 0.931 . S
H3375 C3390 0.930 . S
C3376 H3364 0.930 . S
C3376 C3377 1.399 . S
C3376 C3381 1.399 . S
C3377 C3376 1.399 . S
C3377 C3378 1.376 . S
C3378 H3365 0.930 . S
C3378 C3377 1.376 . S
C3378 C3379 1.388 . S
C3379 H3366 0.930 . S
C3379 C3378 1.388 . S
C3379 C3380 1.390 . S
C3380 C3379 1.390 . S
C3380 C3381 1.394 . S
C3380 C3386 1.465 . S
C3381 C3376 1.399 . S
C3381 C3380 1.394 . S
C3381 C3382 1.516 . S
C3382 C3381 1.516 . S
C3382 C3383 1.502 . S
C3382 C3384 1.561 . S
C3382 C3385 1.526 . S
C3383 H3367 0.959 . S
C3383 H3368 0.959 . S
C3383 H3369 0.961 . S
C3383 C3382 1.502 . S
C3384 H3370 0.960 . S
C3384 H3371 0.961 . S
C3384 H3372 0.959 . S
C3384 C3382 1.561 . S
C3385 C3382 1.526 . S
C3385 C3386 1.396 . S
C3385 C3390 1.390 . S
C3386 C3380 1.465 . S
C3386 C3385 1.396 . S
C3386 C3387 1.399 . S
C3387 H3373 0.929 . S
C3387 C3386 1.399 . S
C3387 C3388 1.385 . S
C3388 H3374 0.931 . S
C3388 C3387 1.385 . S
C3388 C3389 1.389 . S
C3389 C3388 1.389 . S
C3389 C3390 1.387 . S
C3390 H3375 0.930 . S
C3390 C3385 1.390 . S
C3390 C3389 1.387 . S
H3391 C3403 0.930 . S
H3392 C3405 0.930 . S
H3393 C3406 0.930 . S
H3394 C3410 0.959 . S
H3395 C3410 0.959 . S
H3396 C3410 0.961 . S
H3397 C3411 0.960 . S
H3398 C3411 0.961 . S
H3399 C3411 0.977 . S
H3400 C3414 0.929 . S
H3401 C3415 0.931 . S
H3402 C3417 0.930 . S
C3403 H3391 0.930 . S
C3403 C3404 1.399 1_556 S
C3403 C3408 1.399 1_556 S
C3404 C3403 1.399 1_554 S
C3404 C3405 1.376 . S
C3405 H3392 0.930 . S
C3405 C3404 1.376 . S
C3405 C3406 1.388 . S
C3406 H3393 0.930 . S
C3406 C3405 1.388 . S
C3406 C3407 1.390 . S
C3407 C3406 1.390 . S
C3407 C3408 1.394 . S
C3407 C3413 1.465 . S
C3408 C3403 1.399 1_554 S
C3408 C3407 1.394 . S
C3408 C3409 1.516 1_554 S
C3409 C3408 1.516 1_556 S
C3409 C3410 1.502 . S
C3409 C3411 1.561 . S
C3409 C3412 1.526 1_556 S
C3410 H3394 0.959 . S
C3410 H3395 0.959 . S
C3410 H3396 0.961 . S
C3410 C3409 1.502 . S
C3411 H3397 0.960 . S
C3411 H3398 0.961 . S
C3411 H3399 0.977 . S
C3411 C3409 1.561 . S
C3412 C3409 1.526 1_554 S
C3412 C3413 1.396 . S
C3412 C3417 1.390 . S
C3413 C3407 1.465 . S
C3413 C3412 1.396 . S
C3413 C3414 1.399 . S
C3414 H3400 0.929 . S
C3414 C3413 1.399 . S
C3414 C3415 1.385 . S
C3415 H3401 0.931 . S
C3415 C3414 1.385 . S
C3415 C3416 1.389 . S
C3416 C3415 1.389 . S
C3416 C3417 1.387 . S
C3417 H3402 0.930 . S
C3417 C3412 1.390 . S
C3417 C3416 1.387 . S
H3418 C3430 0.930 . S
H3419 C3432 0.930 . S
H3420 C3433 0.930 . S
H3421 C3437 0.959 . S
H3422 C3437 0.959 . S
H3423 C3437 0.961 . S
H3424 C3438 0.960 . S
H3425 C3438 0.961 . S
H3426 C3438 0.959 . S
H3427 C3441 0.929 . S
H3428 C3442 0.931 . S
H3429 C3444 0.930 . S
C3430 H3418 0.930 . S
C3430 C3431 1.399 . S
C3430 C3435 1.399 . S
C3431 C3430 1.399 . S
C3431 C3432 1.376 . S
C3432 H3419 0.930 . S
C3432 C3431 1.376 . S
C3432 C3433 1.388 . S
C3433 H3420 0.930 . S
C3433 C3432 1.388 . S
C3433 C3434 1.390 . S
C3434 C3433 1.390 . S
C3434 C3435 1.394 . S
C3434 C3440 1.465 . S
C3435 C3430 1.399 . S
C3435 C3434 1.394 . S
C3435 C3436 1.516 . S
C3436 C3435 1.516 . S
C3436 C3437 1.502 . S
C3436 C3438 1.561 . S
C3436 C3439 1.526 . S
C3437 H3421 0.959 . S
C3437 H3422 0.959 . S
C3437 H3423 0.961 . S
C3437 C3436 1.502 . S
C3438 H3424 0.960 . S
C3438 H3425 0.961 . S
C3438 H3426 0.959 . S
C3438 C3436 1.561 . S
C3439 C3436 1.526 . S
C3439 C3440 1.396 . S
C3439 C3444 1.390 . S
C3440 C3434 1.465 . S
C3440 C3439 1.396 . S
C3440 C3441 1.399 . S
C3441 H3427 0.929 . S
C3441 C3440 1.399 . S
C3441 C3442 1.385 . S
C3442 H3428 0.931 . S
C3442 C3441 1.385 . S
C3442 C3443 1.389 . S
C3443 C3442 1.389 . S
C3443 C3444 1.387 . S
C3444 H3429 0.930 . S
C3444 C3439 1.390 . S
C3444 C3443 1.387 . S
H3445 C3457 0.930 . S
H3446 C3459 0.930 . S
H3447 C3460 0.930 . S
H3448 C3464 0.959 . S
H3449 C3464 0.959 . S
H3450 C3464 0.961 . S
H3451 C3465 0.960 . S
H3452 C3465 0.961 . S
H3453 C3465 0.959 . S
H3454 C3468 0.929 . S
H3455 C3469 0.931 . S
H3456 C3471 0.930 . S
C3457 H3445 0.930 . S
C3457 C3458 1.399 . S
C3457 C3462 1.399 . S
C3458 C3457 1.399 . S
C3458 C3459 1.376 . S
C3459 H3446 0.930 . S
C3459 C3458 1.376 . S
C3459 C3460 1.388 . S
C3460 H3447 0.930 . S
C3460 C3459 1.388 . S
C3460 C3461 1.390 . S
C3461 C3460 1.390 . S
C3461 C3462 1.394 . S
C3461 C3467 1.465 . S
C3462 C3457 1.399 . S
C3462 C3461 1.394 . S
C3462 C3463 1.516 . S
C3463 C3462 1.516 . S
C3463 C3464 1.502 . S
C3463 C3465 1.561 . S
C3463 C3466 1.526 . S
C3464 H3448 0.959 . S
C3464 H3449 0.959 . S
C3464 H3450 0.961 . S
C3464 C3463 1.502 . S
C3465 H3451 0.960 . S
C3465 H3452 0.961 . S
C3465 H3453 0.959 . S
C3465 C3463 1.561 . S
C3466 C3463 1.526 . S
C3466 C3467 1.396 . S
C3466 C3471 1.390 . S
C3467 C3461 1.465 . S
C3467 C3466 1.396 . S
C3467 C3468 1.399 . S
C3468 H3454 0.929 . S
C3468 C3467 1.399 . S
C3468 C3469 1.385 . S
C3469 H3455 0.931 . S
C3469 C3468 1.385 . S
C3469 C3470 1.389 . S
C3470 C3469 1.389 . S
C3470 C3471 1.387 . S
C3471 H3456 0.930 . S
C3471 C3466 1.390 . S
C3471 C3470 1.387 . S
C905 C353 1.156 . S
C893 C8 1.220 . S
C920 C22 2.187 . S
C932 C399 2.193 . S
C947 C35 0.697 . S
C959 C408 0.757 . S
C986 C446 1.655 . S
C974 C49 1.602 . S
C1001 C23 2.000 . S
C1013 C480 2.013 . S
C1040 C510 0.700 . S
C1028 C34 0.737 . S
C1067 C569 1.529 . S
C1055 C48 1.519 . S
C1082 C9 1.185 . S
C1094 C582 1.126 . S
C1109 C64 1.501 . S
C1121 C365 1.446 . S
C1136 C77 1.043 . S
C1148 C383 1.136 . S
C1175 C404 1.950 . S
C1163 C92 1.939 . S
C1202 C442 0.871 . S
C1190 C105 0.948 . S
C1217 C63 1.237 . S
C1229 C476 1.211 . S
C1256 C506 1.849 . S
C1244 C78 1.892 . S
C1283 C553 1.284 . S
C1271 C91 1.191 . S
C1310 C578 0.783 . S
C1298 C106 0.781 . S
C1337 C349 0.840 . S
C1325 C107 0.773 . S
C1364 C608 1.541 . S
C1352 C118 1.532 . S
C1379 C135 1.640 . S
C1391 C650 1.698 . S
C1418 C693 0.564 . S
C1406 C146 0.599 . S
C1433 C65 1.484 . S
C1445 C574 1.443 . S
C1472 C412 1.705 1_565 S
C1460 C79 1.645 . S
C1487 C132 1.402 . S
C1499 C710 1.410 . S
C1526 C761 1.496 . S
C1514 C160 1.463 . S
C1541 C177 1.232 . S
C1553 C344 1.166 1_556 S
C1580 C744 1.683 . S
C1568 C188 1.687 . S
C1595 C204 1.122 . S
C1607 C417 1.118 . S
C1622 C219 1.684 . S
C1634 C727 1.652 . S
C1661 C489 1.685 . S
C1649 C190 1.731 . S
C1688 C655 0.738 . S
C1676 C202 0.716 . S
C1715 C540 1.516 . S
C1703 C217 1.495 . S
C1742 C795 0.972 . S
C1730 C175 0.945 . S
C1769 C336 1.348 . S
C1757 C231 1.396 . S
C1784 C246 1.315 . S
C1796 C748 1.323 . S
C1823 C433 1.573 . S
C1811 C259 1.557 . S
C1838 C274 0.915 . S
C1850 C723 0.855 . S
C1865 C232 1.351 . S
C1877 C485 1.336 . S
C1892 C245 1.518 . S
C1904 C671 1.504 . S
C1931 C544 1.267 . S
C1919 C260 1.259 . S
C1946 C273 0.675 . S
C1958 C791 0.518 . S
C1973 C275 0.837 . S
C1985 C340 0.863 . S
C2000 C286 1.526 . S
C2012 C637 1.536 . S
C2027 C303 1.453 . S
C2039 C523 1.409 . S
C2054 C314 0.589 . S
C2066 C684 0.367 . S
C2093 C807 1.424 . S
C2081 C233 1.475 . S
C2120 C421 1.506 . S
C2108 C247 1.545 . S
C2147 C467 1.267 . S
C2135 C300 1.252 . S
C2174 C378 1.509 . S
C2162 C328 1.438 . S
C2189 C36 1.086 . S
C2201 C829 1.148 . S
C2228 C773 2.187 . S
C2216 C50 2.220 . S
C2255 C850 0.798 . S
C2243 C7 0.762 . S
C2270 C21 1.610 . S
C2282 C718 1.681 . S
C2297 C51 2.000 . S
C2309 C616 2.012 . S
C2336 C646 0.694 . S
C2324 C6 0.705 . S
C2363 C705 1.523 . S
C2351 C20 1.535 . S
C2390 C786 1.101 . S
C2378 C37 1.075 . S
C2417 C841 1.389 . S
C2405 C162 1.423 . S
C2432 C119 1.085 1_556 S
C2444 C757 1.073 . S
C2459 C134 1.900 . S
C2471 C846 1.851 . S
C2498 C714 0.858 . S
C2486 C147 0.793 . S
C2525 C612 1.205 . S
C2513 C161 1.224 . S
C2540 C120 1.800 . S
C2552 C642 1.819 . S
C2579 C689 1.212 1_655 S
C2567 C133 1.207 . S
C2594 C148 0.737 . S
C2606 C782 0.669 . S
C2633 C825 0.809 . S
C2621 C149 0.759 . S
C2660 C472 1.444 1_565 S
C2648 C76 1.423 . S
C2687 C514 1.625 . S
C2675 C93 1.640 . S
C2702 C104 0.547 . S
C2714 C557 0.502 . S
C2741 C778 1.516 . S
C2729 C163 1.541 . S
C2756 C121 1.679 . S
C2768 C854 1.759 . S
C2795 C438 1.332 . S
C2783 C90 1.302 . S
C2822 C387 1.465 . S
C2810 C62 1.432 . S
C2837 C203 0.934 . S
C2849 C820 1.024 . S
C2876 C370 1.766 . S
C2864 C216 1.703 . S
C2903 C859 0.892 . S
C2891 C174 0.820 . S
C2918 C191 1.731 . S
C2930 C455 1.700 . S
C2945 C218 1.670 . S
C2957 C625 1.627 . S
C2972 C176 1.014 . S
C2984 C519 1.010 . S
C2999 C189 1.448 . S
C3011 C676 1.434 . S
C3026 C205 1.167 . S
C3038 C591 1.100 . S
C3065 C812 1.323 . S
C3053 C329 1.381 . S
C3080 C288 1.255 . S
C3092 C374 1.269 . S
C3119 C875 1.502 . S
C3107 C301 1.537 . S
C3134 C316 0.797 . S
C3146 C451 0.849 . S
C3161 C330 1.452 . S
C3173 C621 1.428 . S
C3200 C535 1.569 . S
C3188 C287 1.490 . S
C3215 C302 1.295 . S
C3227 C680 1.257 . S
C3254 C587 0.618 . S
C3242 C315 0.727 . S
C3281 C816 0.854 . S
C3269 C317 0.815 . S
C3308 C501 1.542 . S
C3296 C244 1.516 . S
C3323 C261 1.388 . S
C3335 C659 1.325 . S
C3362 C548 0.403 . S
C3350 C272 0.535 . S
C3389 C603 1.539 . S
C3377 C331 1.546 . S
C3404 C289 1.466 . S
C3416 C863 1.456 . S
C3443 C739 1.307 . S
C3431 C258 1.300 . S
C3470 C752 1.536 . S
C3458 C230 1.457 . S
