# Generated by pormake.
# Topology gar, (4,6)-cn, num edge types: 1
# Building blocks:
#     Node 0, Type 0, BuildingBlock: KUFVIS_clean_sbu_0, # of connection points: 4
#     Node 1, Type 0, BuildingBlock: KUFVIS_clean_sbu_0, # of connection points: 4
#     Node 2, Type 0, BuildingBlock: KUFVIS_clean_sbu_0, # of connection points: 4
#     Node 3, Type 0, BuildingBlock: KUFVIS_clean_sbu_0, # of connection points: 4
#     Node 4, Type 0, BuildingBlock: KUFVIS_clean_sbu_0, # of connection points: 4
#     Node 5, Type 0, BuildingBlock: KUFVIS_clean_sbu_0, # of connection points: 4
#     Node 6, Type 0, BuildingBlock: KUFVIS_clean_sbu_0, # of connection points: 4
#     Node 7, Type 0, BuildingBlock: KUFVIS_clean_sbu_0, # of connection points: 4
#     Node 8, Type 0, BuildingBlock: KUFVIS_clean_sbu_0, # of connection points: 4
#     Node 9, Type 0, BuildingBlock: KUFVIS_clean_sbu_0, # of connection points: 4
#     Node 10, Type 0, BuildingBlock: KUFVIS_clean_sbu_0, # of connection points: 4
#     Node 11, Type 0, BuildingBlock: KUFVIS_clean_sbu_0, # of connection points: 4
#     Node 12, Type 0, BuildingBlock: KUFVIS_clean_sbu_0, # of connection points: 4
#     Node 13, Type 0, BuildingBlock: KUFVIS_clean_sbu_0, # of connection points: 4
#     Node 14, Type 0, BuildingBlock: KUFVIS_clean_sbu_0, # of connection points: 4
#     Node 15, Type 0, BuildingBlock: KUFVIS_clean_sbu_0, # of connection points: 4
#     Node 16, Type 0, BuildingBlock: KUFVIS_clean_sbu_0, # of connection points: 4
#     Node 17, Type 0, BuildingBlock: KUFVIS_clean_sbu_0, # of connection points: 4
#     Node 18, Type 0, BuildingBlock: KUFVIS_clean_sbu_0, # of connection points: 4
#     Node 19, Type 0, BuildingBlock: KUFVIS_clean_sbu_0, # of connection points: 4
#     Node 20, Type 0, BuildingBlock: KUFVIS_clean_sbu_0, # of connection points: 4
#     Node 21, Type 0, BuildingBlock: KUFVIS_clean_sbu_0, # of connection points: 4
#     Node 22, Type 0, BuildingBlock: KUFVIS_clean_sbu_0, # of connection points: 4
#     Node 23, Type 0, BuildingBlock: KUFVIS_clean_sbu_0, # of connection points: 4
#     Node 24, Type 1, BuildingBlock: KUMBUR_clean_sbu_1, # of connection points: 6
#     Node 25, Type 1, BuildingBlock: KUMBUR_clean_sbu_1, # of connection points: 6
#     Node 26, Type 1, BuildingBlock: KUMBUR_clean_sbu_1, # of connection points: 6
#     Node 27, Type 1, BuildingBlock: KUMBUR_clean_sbu_1, # of connection points: 6
#     Node 28, Type 1, BuildingBlock: KUMBUR_clean_sbu_1, # of connection points: 6
#     Node 29, Type 1, BuildingBlock: KUMBUR_clean_sbu_1, # of connection points: 6
#     Node 30, Type 1, BuildingBlock: KUMBUR_clean_sbu_1, # of connection points: 6
#     Node 31, Type 1, BuildingBlock: KUMBUR_clean_sbu_1, # of connection points: 6
#     Node 32, Type 1, BuildingBlock: KUMBUR_clean_sbu_1, # of connection points: 6
#     Node 33, Type 1, BuildingBlock: KUMBUR_clean_sbu_1, # of connection points: 6
#     Node 34, Type 1, BuildingBlock: KUMBUR_clean_sbu_1, # of connection points: 6
#     Node 35, Type 1, BuildingBlock: KUMBUR_clean_sbu_1, # of connection points: 6
#     Node 36, Type 1, BuildingBlock: KUMBUR_clean_sbu_1, # of connection points: 6
#     Node 37, Type 1, BuildingBlock: KUMBUR_clean_sbu_1, # of connection points: 6
#     Node 38, Type 1, BuildingBlock: KUMBUR_clean_sbu_1, # of connection points: 6
#     Node 39, Type 1, BuildingBlock: KUMBUR_clean_sbu_1, # of connection points: 6
#     Edge 40, Type (0, 1), BuildingBlock: ZUJKAS_clean_linker_0, # of connection points: 2
#     Edge 41, Type (0, 1), BuildingBlock: ZUJKAS_clean_linker_0, # of connection points: 2
#     Edge 42, Type (0, 1), BuildingBlock: ZUJKAS_clean_linker_0, # of connection points: 2
#     Edge 43, Type (0, 1), BuildingBlock: ZUJKAS_clean_linker_0, # of connection points: 2
#     Edge 44, Type (0, 1), BuildingBlock: ZUJKAS_clean_linker_0, # of connection points: 2
#     Edge 45, Type (0, 1), BuildingBlock: ZUJKAS_clean_linker_0, # of connection points: 2
#     Edge 46, Type (0, 1), BuildingBlock: ZUJKAS_clean_linker_0, # of connection points: 2
#     Edge 47, Type (0, 1), BuildingBlock: ZUJKAS_clean_linker_0, # of connection points: 2
#     Edge 48, Type (0, 1), BuildingBlock: ZUJKAS_clean_linker_0, # of connection points: 2
#     Edge 49, Type (0, 1), BuildingBlock: ZUJKAS_clean_linker_0, # of connection points: 2
#     Edge 50, Type (0, 1), BuildingBlock: ZUJKAS_clean_linker_0, # of connection points: 2
#     Edge 51, Type (0, 1), BuildingBlock: ZUJKAS_clean_linker_0, # of connection points: 2
#     Edge 52, Type (0, 1), BuildingBlock: ZUJKAS_clean_linker_0, # of connection points: 2
#     Edge 53, Type (0, 1), BuildingBlock: ZUJKAS_clean_linker_0, # of connection points: 2
#     Edge 54, Type (0, 1), BuildingBlock: ZUJKAS_clean_linker_0, # of connection points: 2
#     Edge 55, Type (0, 1), BuildingBlock: ZUJKAS_clean_linker_0, # of connection points: 2
#     Edge 56, Type (0, 1), BuildingBlock: ZUJKAS_clean_linker_0, # of connection points: 2
#     Edge 57, Type (0, 1), BuildingBlock: ZUJKAS_clean_linker_0, # of connection points: 2
#     Edge 58, Type (0, 1), BuildingBlock: ZUJKAS_clean_linker_0, # of connection points: 2
#     Edge 59, Type (0, 1), BuildingBlock: ZUJKAS_clean_linker_0, # of connection points: 2
#     Edge 60, Type (0, 1), BuildingBlock: ZUJKAS_clean_linker_0, # of connection points: 2
#     Edge 61, Type (0, 1), BuildingBlock: ZUJKAS_clean_linker_0, # of connection points: 2
#     Edge 62, Type (0, 1), BuildingBlock: ZUJKAS_clean_linker_0, # of connection points: 2
#     Edge 63, Type (0, 1), BuildingBlock: ZUJKAS_clean_linker_0, # of connection points: 2
#     Edge 64, Type (0, 1), BuildingBlock: ZUJKAS_clean_linker_0, # of connection points: 2
#     Edge 65, Type (0, 1), BuildingBlock: ZUJKAS_clean_linker_0, # of connection points: 2
#     Edge 66, Type (0, 1), BuildingBlock: ZUJKAS_clean_linker_0, # of connection points: 2
#     Edge 67, Type (0, 1), BuildingBlock: ZUJKAS_clean_linker_0, # of connection points: 2
#     Edge 68, Type (0, 1), BuildingBlock: ZUJKAS_clean_linker_0, # of connection points: 2
#     Edge 69, Type (0, 1), BuildingBlock: ZUJKAS_clean_linker_0, # of connection points: 2
#     Edge 70, Type (0, 1), BuildingBlock: ZUJKAS_clean_linker_0, # of connection points: 2
#     Edge 71, Type (0, 1), BuildingBlock: ZUJKAS_clean_linker_0, # of connection points: 2
#     Edge 72, Type (0, 1), BuildingBlock: ZUJKAS_clean_linker_0, # of connection points: 2
#     Edge 73, Type (0, 1), BuildingBlock: ZUJKAS_clean_linker_0, # of connection points: 2
#     Edge 74, Type (0, 1), BuildingBlock: ZUJKAS_clean_linker_0, # of connection points: 2
#     Edge 75, Type (0, 1), BuildingBlock: ZUJKAS_clean_linker_0, # of connection points: 2
#     Edge 76, Type (0, 1), BuildingBlock: ZUJKAS_clean_linker_0, # of connection points: 2
#     Edge 77, Type (0, 1), BuildingBlock: ZUJKAS_clean_linker_0, # of connection points: 2
#     Edge 78, Type (0, 1), BuildingBlock: ZUJKAS_clean_linker_0, # of connection points: 2
#     Edge 79, Type (0, 1), BuildingBlock: ZUJKAS_clean_linker_0, # of connection points: 2
#     Edge 80, Type (0, 1), BuildingBlock: ZUJKAS_clean_linker_0, # of connection points: 2
#     Edge 81, Type (0, 1), BuildingBlock: ZUJKAS_clean_linker_0, # of connection points: 2
#     Edge 82, Type (0, 1), BuildingBlock: ZUJKAS_clean_linker_0, # of connection points: 2
#     Edge 83, Type (0, 1), BuildingBlock: ZUJKAS_clean_linker_0, # of connection points: 2
#     Edge 84, Type (0, 1), BuildingBlock: ZUJKAS_clean_linker_0, # of connection points: 2
#     Edge 85, Type (0, 1), BuildingBlock: ZUJKAS_clean_linker_0, # of connection points: 2
#     Edge 86, Type (0, 1), BuildingBlock: ZUJKAS_clean_linker_0, # of connection points: 2
#     Edge 87, Type (0, 1), BuildingBlock: ZUJKAS_clean_linker_0, # of connection points: 2
#     Edge 88, Type (0, 1), BuildingBlock: ZUJKAS_clean_linker_0, # of connection points: 2
#     Edge 89, Type (0, 1), BuildingBlock: ZUJKAS_clean_linker_0, # of connection points: 2
#     Edge 90, Type (0, 1), BuildingBlock: ZUJKAS_clean_linker_0, # of connection points: 2
#     Edge 91, Type (0, 1), BuildingBlock: ZUJKAS_clean_linker_0, # of connection points: 2
#     Edge 92, Type (0, 1), BuildingBlock: ZUJKAS_clean_linker_0, # of connection points: 2
#     Edge 93, Type (0, 1), BuildingBlock: ZUJKAS_clean_linker_0, # of connection points: 2
#     Edge 94, Type (0, 1), BuildingBlock: ZUJKAS_clean_linker_0, # of connection points: 2
#     Edge 95, Type (0, 1), BuildingBlock: ZUJKAS_clean_linker_0, # of connection points: 2
#     Edge 96, Type (0, 1), BuildingBlock: ZUJKAS_clean_linker_0, # of connection points: 2
#     Edge 97, Type (0, 1), BuildingBlock: ZUJKAS_clean_linker_0, # of connection points: 2
#     Edge 98, Type (0, 1), BuildingBlock: ZUJKAS_clean_linker_0, # of connection points: 2
#     Edge 99, Type (0, 1), BuildingBlock: ZUJKAS_clean_linker_0, # of connection points: 2
#     Edge 100, Type (0, 1), BuildingBlock: ZUJKAS_clean_linker_0, # of connection points: 2
#     Edge 101, Type (0, 1), BuildingBlock: ZUJKAS_clean_linker_0, # of connection points: 2
#     Edge 102, Type (0, 1), BuildingBlock: ZUJKAS_clean_linker_0, # of connection points: 2
#     Edge 103, Type (0, 1), BuildingBlock: ZUJKAS_clean_linker_0, # of connection points: 2
#     Edge 104, Type (0, 1), BuildingBlock: ZUJKAS_clean_linker_0, # of connection points: 2
#     Edge 105, Type (0, 1), BuildingBlock: ZUJKAS_clean_linker_0, # of connection points: 2
#     Edge 106, Type (0, 1), BuildingBlock: ZUJKAS_clean_linker_0, # of connection points: 2
#     Edge 107, Type (0, 1), BuildingBlock: ZUJKAS_clean_linker_0, # of connection points: 2
#     Edge 108, Type (0, 1), BuildingBlock: ZUJKAS_clean_linker_0, # of connection points: 2
#     Edge 109, Type (0, 1), BuildingBlock: ZUJKAS_clean_linker_0, # of connection points: 2
#     Edge 110, Type (0, 1), BuildingBlock: ZUJKAS_clean_linker_0, # of connection points: 2
#     Edge 111, Type (0, 1), BuildingBlock: ZUJKAS_clean_linker_0, # of connection points: 2
#     Edge 112, Type (0, 1), BuildingBlock: ZUJKAS_clean_linker_0, # of connection points: 2
#     Edge 113, Type (0, 1), BuildingBlock: ZUJKAS_clean_linker_0, # of connection points: 2
#     Edge 114, Type (0, 1), BuildingBlock: ZUJKAS_clean_linker_0, # of connection points: 2
#     Edge 115, Type (0, 1), BuildingBlock: ZUJKAS_clean_linker_0, # of connection points: 2
#     Edge 116, Type (0, 1), BuildingBlock: ZUJKAS_clean_linker_0, # of connection points: 2
#     Edge 117, Type (0, 1), BuildingBlock: ZUJKAS_clean_linker_0, # of connection points: 2
#     Edge 118, Type (0, 1), BuildingBlock: ZUJKAS_clean_linker_0, # of connection points: 2
#     Edge 119, Type (0, 1), BuildingBlock: ZUJKAS_clean_linker_0, # of connection points: 2
#     Edge 120, Type (0, 1), BuildingBlock: ZUJKAS_clean_linker_0, # of connection points: 2
#     Edge 121, Type (0, 1), BuildingBlock: ZUJKAS_clean_linker_0, # of connection points: 2
#     Edge 122, Type (0, 1), BuildingBlock: ZUJKAS_clean_linker_0, # of connection points: 2
#     Edge 123, Type (0, 1), BuildingBlock: ZUJKAS_clean_linker_0, # of connection points: 2
#     Edge 124, Type (0, 1), BuildingBlock: ZUJKAS_clean_linker_0, # of connection points: 2
#     Edge 125, Type (0, 1), BuildingBlock: ZUJKAS_clean_linker_0, # of connection points: 2
#     Edge 126, Type (0, 1), BuildingBlock: ZUJKAS_clean_linker_0, # of connection points: 2
#     Edge 127, Type (0, 1), BuildingBlock: ZUJKAS_clean_linker_0, # of connection points: 2
#     Edge 128, Type (0, 1), BuildingBlock: ZUJKAS_clean_linker_0, # of connection points: 2
#     Edge 129, Type (0, 1), BuildingBlock: ZUJKAS_clean_linker_0, # of connection points: 2
#     Edge 130, Type (0, 1), BuildingBlock: ZUJKAS_clean_linker_0, # of connection points: 2
#     Edge 131, Type (0, 1), BuildingBlock: ZUJKAS_clean_linker_0, # of connection points: 2
#     Edge 132, Type (0, 1), BuildingBlock: ZUJKAS_clean_linker_0, # of connection points: 2
#     Edge 133, Type (0, 1), BuildingBlock: ZUJKAS_clean_linker_0, # of connection points: 2
#     Edge 134, Type (0, 1), BuildingBlock: ZUJKAS_clean_linker_0, # of connection points: 2
#     Edge 135, Type (0, 1), BuildingBlock: ZUJKAS_clean_linker_0, # of connection points: 2
# Relax obj value: 0.054
# Max RMSD: 0.175
# Mean RMSD: 0.103
data_MOF--net-gar--node1-KUFVIS_clean_sbu_0--node2-KUMBUR_clean_sbu_1--edge1-ZUJKAS_clean_linker_0
_symmetry_space_group_name_H-M    P1
_symmetry_Int_Tables_number       1
_symmetry_cell_setting            triclinic
loop_
_symmetry_equiv_pos_as_xyz
'x, y, z'
_cell_length_a     75.047125
_cell_length_b     75.222511
_cell_length_c     72.594637
_cell_angle_alpha  95.30306
_cell_angle_beta   95.44114
_cell_angle_gamma 100.34484
loop_
_atom_site_label
_atom_site_type_symbol
_atom_site_fract_x
_atom_site_fract_y
_atom_site_fract_z
_atom_type_partial_charge
Mn0 Mn 0.04422 0.30361 0.37137 0.0
Mn1 Mn 0.04255 0.33125 0.33752 0.0
C2 C 0.01551 0.3073 0.35742 0.0
C3 C 0.04615 0.27566 0.383 0.0
C4 C 0.0509 0.34549 0.37878 0.0
O5 O 0.07024 0.30627 0.36279 0.0
O6 O 0.0668 0.32298 0.33904 0.0
C7 C 0.04323 0.30527 0.30444 0.0
N8 N 0.03493 0.31747 0.31373 0.0
C9 C 0.01098 0.31405 0.28842 0.0
C10 C 0.01938 0.30159 0.27851 0.0
C11 C 0.03554 0.29715 0.28658 0.0
C12 C 0.01936 0.32184 0.30609 0.0
H13 H 0.05561 0.30175 0.31059 0.0
C14 C 0.07625 0.31378 0.34882 0.0
O15 O 0.05166 0.29115 0.39306 0.0
O16 O 0.03996 0.27627 0.36576 0.0
N17 N 0.02011 0.33987 0.33408 0.0
C18 C 0.01302 0.35112 0.34598 0.0
C19 C 0.99642 0.35622 0.34036 0.0
C20 C 0.98734 0.34983 0.32254 0.0
C21 C 0.99494 0.33835 0.3105 0.0
C22 C 0.01154 0.33374 0.31685 0.0
H23 H 0.01983 0.35603 0.35975 0.0
O24 O 0.01747 0.3019 0.37384 0.0
O25 O 0.03054 0.31028 0.34943 0.0
O26 O 0.04926 0.32983 0.38453 0.0
O27 O 0.04989 0.34749 0.36143 0.0
C28 C 0.98644 0.33092 0.29262 0.0
C29 C 0.99446 0.3188 0.28158 0.0
H30 H 0.01344 0.29522 0.26477 0.0
H31 H 0.04205 0.28747 0.27906 0.0
H32 H 0.99061 0.365 0.34978 0.0
H33 H 0.97445 0.35366 0.31832 0.0
H34 H 0.97358 0.33423 0.28734 0.0
H35 H 0.98768 0.31301 0.26795 0.0
Mn36 Mn 0.02517 0.75328 0.68505 0.0
Mn37 Mn 0.0346 0.78692 0.72088 0.0
C38 C 0.05575 0.76331 0.69914 0.0
C39 C 0.01852 0.72296 0.66974 0.0
C40 C 0.02733 0.7941 0.68086 0.0
O41 O 0.99937 0.75341 0.69446 0.0
O42 O 1.00774 0.77626 0.71783 0.0
C43 C 0.02695 0.76524 0.75218 0.0
N44 N 0.03871 0.77705 0.74385 0.0
C45 C 0.06203 0.78004 0.76968 0.0
C46 C 0.05015 0.76795 0.77858 0.0
C47 C 0.03255 0.76049 0.76977 0.0
C48 C 0.05567 0.78431 0.7522 0.0
H49 H 0.01339 0.75956 0.74547 0.0
C50 C 0.99547 0.76414 0.70784 0.0
O51 O 0.01495 0.73676 0.66174 0.0
O52 O 0.0244 0.72636 0.68741 0.0
N53 N 0.05965 0.79864 0.72544 0.0
C54 C 0.06964 0.8095 0.71462 0.0
C55 C 0.0877 0.81776 0.72121 0.0
C56 C 0.09519 0.81492 0.73892 0.0
C57 C 0.08464 0.80367 0.74979 0.0
C58 C 0.06672 0.79583 0.74249 0.0
H59 H 0.06392 0.81179 0.70102 0.0
O60 O 0.05194 0.75571 0.68211 0.0
O61 O 0.0414 0.76515 0.70763 0.0
O62 O 0.02475 0.77751 0.67405 0.0
O63 O 0.03101 0.79912 0.69824 0.0
C64 C 0.09127 0.79973 0.76746 0.0
C65 C 0.07998 0.78792 0.7774 0.0
H66 H 0.05442 0.76424 0.79214 0.0
H67 H 0.02331 0.75114 0.77655 0.0
H68 H 0.09579 0.82633 0.71269 0.0
H69 H 0.10909 0.82139 0.74403 0.0
H70 H 0.10509 0.80557 0.77346 0.0
H71 H 0.08527 0.78489 0.79092 0.0
Mn72 Mn 0.54199 0.80468 0.87222 0.0
Mn73 Mn 0.54193 0.83297 0.83898 0.0
C74 C 0.51358 0.80909 0.85772 0.0
C75 C 0.54268 0.77632 0.8833 0.0
C76 C 0.54884 0.84668 0.88042 0.0
O77 O 0.5683 0.80661 0.8642 0.0
O78 O 0.56629 0.8249 0.84169 0.0
C79 C 0.54428 0.80715 0.80629 0.0
N80 N 0.53558 0.81939 0.81495 0.0
C81 C 0.51353 0.81694 0.78809 0.0
C82 C 0.52231 0.80439 0.77884 0.0
C83 C 0.5377 0.79941 0.78802 0.0
C84 C 0.52066 0.82413 0.80632 0.0
H85 H 0.55616 0.80332 0.81324 0.0
C86 C 0.57516 0.81494 0.85107 0.0
O87 O 0.54837 0.7915 0.89384 0.0
O88 O 0.53703 0.77743 0.86604 0.0
N89 N 0.51971 0.84166 0.83422 0.0
C90 C 0.51218 0.85308 0.84548 0.0
C91 C 0.49652 0.85916 0.83852 0.0
C92 C 0.48889 0.85358 0.82002 0.0
C93 C 0.49673 0.84163 0.80878 0.0
C94 C 0.51235 0.83605 0.81647 0.0
H95 H 0.51807 0.85759 0.85965 0.0
O96 O 0.5152 0.80358 0.87411 0.0
O97 O 0.52887 0.81189 0.85007 0.0
O98 O 0.54738 0.83089 0.8859 0.0
O99 O 0.54802 0.84894 0.86314 0.0
C100 C 0.48963 0.83498 0.79027 0.0
C101 C 0.49793 0.82252 0.77998 0.0
H102 H 0.5173 0.79842 0.76473 0.0
H103 H 0.54452 0.78969 0.781 0.0
H104 H 0.49046 0.86826 0.84733 0.0
H105 H 0.47699 0.85855 0.81461 0.0
H106 H 0.4777 0.83922 0.78385 0.0
H107 H 0.49217 0.8173 0.76586 0.0
Mn108 Mn 0.52555 0.25322 0.18796 0.0
Mn109 Mn 0.4917 0.24713 0.1523 0.0
C110 C 0.51462 0.22405 0.17121 0.0
C111 C 0.55755 0.25906 0.19947 0.0
C112 C 0.4849 0.25505 0.19276 0.0
O113 O 0.5267 0.27907 0.17974 0.0
O114 O 0.50515 0.27258 0.15478 0.0
C115 C 0.51225 0.25193 0.11972 0.0
N116 N 0.4999 0.24152 0.12877 0.0
C117 C 0.49117 0.21926 0.10197 0.0
C118 C 0.50391 0.22964 0.09238 0.0
C119 C 0.51459 0.24598 0.10135 0.0
C120 C 0.4898 0.22563 0.12039 0.0
H121 H 0.52013 0.26472 0.12645 0.0
C122 C 0.51765 0.28365 0.16555 0.0
O123 O 0.54514 0.26219 0.20998 0.0
O124 O 0.55156 0.25307 0.1823 0.0
N125 N 0.47783 0.22293 0.1486 0.0
C126 C 0.46735 0.21387 0.16036 0.0
C127 C 0.45652 0.19679 0.15392 0.0
C128 C 0.45628 0.18946 0.13535 0.0
C129 C 0.46719 0.19911 0.12354 0.0
C130 C 0.47813 0.21577 0.13092 0.0
H131 H 0.46718 0.21967 0.1745 0.0
O132 O 0.52217 0.22578 0.18831 0.0
O133 O 0.51277 0.2393 0.165 0.0
O134 O 0.5011 0.2547 0.20022 0.0
O135 O 0.48074 0.25275 0.1752 0.0
C136 C 0.46757 0.19294 0.10469 0.0
C137 C 0.47967 0.20293 0.09395 0.0
H138 H 0.50557 0.22522 0.07812 0.0
H139 H 0.5244 0.2541 0.09402 0.0
H140 H 0.44816 0.18944 0.16314 0.0
H141 H 0.4477 0.17641 0.13034 0.0
H142 H 0.45899 0.18026 0.09845 0.0
H143 H 0.48017 0.19779 0.07961 0.0
Mn144 Mn 0.06354 0.79096 0.12218 0.0
Mn145 Mn 0.02931 0.78139 0.08684 0.0
C146 C 0.05306 0.76054 0.10836 0.0
C147 C 0.09444 0.79738 0.13592 0.0
C148 C 0.02276 0.78891 0.127 0.0
O149 O 0.06333 0.81663 0.1127 0.0
O150 O 0.0401 0.8079 0.0898 0.0
C151 C 0.05105 0.78899 0.05557 0.0
N152 N 0.039 0.77736 0.06379 0.0
C153 C 0.03477 0.7547 0.03733 0.0
C154 C 0.04712 0.76643 0.02854 0.0
C155 C 0.05537 0.78362 0.03775 0.0
C156 C 0.03119 0.76072 0.05518 0.0
H157 H 0.05724 0.80229 0.06253 0.0
C158 C 0.05228 0.82029 0.09943 0.0
O159 O 0.08128 0.80136 0.14484 0.0
O160 O 0.08999 0.79114 0.11847 0.0
N161 N 0.01743 0.75646 0.08223 0.0
C162 C 1.00654 0.74649 0.09304 0.0
C163 C 0.99763 0.72876 0.08611 0.0
C164 C 0.99969 0.72165 0.06801 0.0
C165 C 0.01087 0.73226 0.05711 0.0
C166 C 0.01965 0.7497 0.06489 0.0
H167 H 1.00469 0.75202 0.10684 0.0
O168 O 0.06104 0.76424 0.12527 0.0
O169 O 0.05114 0.77482 0.09994 0.0
O170 O 0.03948 0.79163 0.13368 0.0
O171 O 0.01742 0.78501 0.10968 0.0
C172 C 0.01368 0.72623 0.03884 0.0
C173 C 0.02581 0.73733 0.02905 0.0
H174 H 0.05037 0.76239 0.01473 0.0
H175 H 0.06491 0.79275 0.03106 0.0
H176 H 0.98905 0.72067 0.09462 0.0
H177 H 0.99269 0.70802 0.06266 0.0
H178 H 1.00671 0.71299 0.03223 0.0
H179 H 0.02811 0.73237 0.01516 0.0
Mn180 Mn 0.50497 0.76865 0.44026 0.0
Mn181 Mn 0.50337 0.79436 0.40431 0.0
C182 C 0.47649 0.77072 0.42365 0.0
C183 C 0.50832 0.73965 0.45147 0.0
C184 C 0.51277 0.81088 0.4449 0.0
O185 O 0.53131 0.77274 0.43252 0.0
O186 O 0.52596 0.78432 0.40528 0.0
C187 C 0.50017 0.7667 0.37177 0.0
N188 N 0.4939 0.78047 0.38099 0.0
C189 C 0.47173 0.78125 0.35505 0.0
C190 C 0.47827 0.76738 0.34506 0.0
C191 C 0.4924 0.75991 0.35355 0.0
C192 C 0.47986 0.78727 0.37322 0.0
H193 H 0.5109 0.76091 0.37835 0.0
C194 C 0.53604 0.77748 0.41682 0.0
O195 O 0.51198 0.75496 0.46218 0.0
O196 O 0.50271 0.74111 0.43431 0.0
N197 N 0.48193 0.80479 0.40173 0.0
C198 C 0.47629 0.81708 0.41377 0.0
C199 C 0.46132 0.82483 0.40798 0.0
C200 C 0.45254 0.82018 0.38977 0.0
C201 C 0.45869 0.80764 0.37758 0.0
C202 C 0.47348 0.80013 0.38423 0.0
H203 H 0.48312 0.82098 0.42767 0.0
O204 O 0.4772 0.76533 0.44016 0.0
O205 O 0.49217 0.77453 0.41752 0.0
O206 O 0.50873 0.79603 0.45244 0.0
O207 O 0.51301 0.81078 0.42733 0.0
C208 C 0.45074 0.80229 0.35908 0.0
C209 C 0.45736 0.78921 0.34777 0.0
H210 H 0.47237 0.76219 0.33096 0.0
H211 H 0.49735 0.74902 0.34605 0.0
H212 H 0.45667 0.8345 0.41749 0.0
H213 H 0.44106 0.82627 0.38532 0.0
H214 H 0.43937 0.80798 0.35347 0.0
H215 H 0.45097 0.78503 0.33365 0.0
Mn216 Mn 0.56405 0.29225 0.62208 0.0
Mn217 Mn 0.53051 0.28209 0.58598 0.0
C218 C 0.5541 0.26167 0.60832 0.0
C219 C 0.59488 0.29889 0.63649 0.0
C220 C 0.52325 0.29064 0.62596 0.0
O221 O 0.56346 0.31784 0.61226 0.0
O222 O 0.5419 0.30847 0.58774 0.0
C223 C 0.55228 0.28756 0.55437 0.0
N224 N 0.54026 0.27658 0.56325 0.0
C225 C 0.53721 0.25196 0.53882 0.0
C226 C 0.5495 0.26304 0.52936 0.0
C227 C 0.55709 0.28091 0.53719 0.0
C228 C 0.53285 0.25938 0.55584 0.0
H229 H 0.55811 0.3013 0.56035 0.0
C230 C 0.55347 0.32111 0.59787 0.0
O231 O 0.58143 0.30275 0.64501 0.0
O232 O 0.59077 0.29282 0.61896 0.0
N233 N 0.51834 0.2572 0.58267 0.0
C234 C 0.50728 0.24809 0.59395 0.0
C235 C 0.49899 0.22987 0.58842 0.0
C236 C 0.50205 0.22127 0.57131 0.0
C237 C 0.51335 0.23099 0.55987 0.0
C238 C 0.52119 0.24914 0.56609 0.0
H239 H 0.50488 0.25461 0.60713 0.0
O240 O 0.56184 0.26552 0.62531 0.0
O241 O 0.55213 0.27587 0.5998 0.0
O242 O 0.53977 0.29268 0.63313 0.0
O243 O 0.51849 0.28713 0.60849 0.0
C244 C 0.51738 0.22331 0.54268 0.0
C245 C 0.52929 0.23379 0.53216 0.0
H246 H 0.55329 0.25795 0.51613 0.0
H247 H 0.56661 0.28953 0.52999 0.0
H248 H 0.4903 0.22246 0.59734 0.0
H249 H 0.49573 0.20718 0.56714 0.0
H250 H 0.51153 0.20931 0.5375 0.0
H251 H 0.5324 0.22769 0.51903 0.0
Mn252 Mn 1.00644 0.26677 0.93912 0.0
Mn253 Mn 1.0062 0.29572 0.90564 0.0
C254 C 0.97857 0.2699 0.92216 0.0
C255 C 1.00912 0.2373 0.94942 0.0
C256 C 0.01363 0.30904 0.94693 0.0
O257 O 0.03306 0.27113 0.93218 0.0
O258 O 0.02963 0.28738 0.90775 0.0
C259 C 1.00757 0.27153 0.8715 0.0
N260 N 0.99921 0.28338 0.8812 0.0
C261 C 0.97872 0.28516 0.85417 0.0
C262 C 0.98704 0.2729 0.84386 0.0
C263 C 1.00144 0.26596 0.85261 0.0
C264 C 0.98518 0.28993 0.873 0.0
H265 H 0.01895 0.26657 0.8781 0.0
C266 C 0.03905 0.27899 0.91834 0.0
O267 O 0.01271 0.25233 0.96052 0.0
O268 O 1.00399 0.23927 0.93224 0.0
N269 N 0.98417 0.30496 0.90223 0.0
C270 C 0.97694 0.31572 0.91447 0.0
C271 C 0.96188 0.32313 0.9082 0.0
C272 C 0.95474 0.31977 0.88934 0.0
C273 C 0.96255 0.30877 0.877 0.0
C274 C 0.97723 0.30139 0.88415 0.0
H275 H 0.98262 0.31869 0.92888 0.0
O276 O 0.97875 0.26365 0.93828 0.0
O277 O 0.99451 0.27414 0.91653 0.0
O278 O 1.0101 0.29342 0.95303 0.0
O279 O 0.01359 0.31077 0.92968 0.0
C280 C 0.9564 0.30486 0.85788 0.0
C281 C 0.96436 0.29293 0.84649 0.0
H282 H 0.9825 0.26874 0.82924 0.0
H283 H 1.00798 0.25655 0.84473 0.0
H284 H 0.95595 0.33161 0.91783 0.0
H285 H 0.94325 0.32566 0.8845 0.0
H286 H 0.94526 0.31062 0.85186 0.0
H287 H 0.95921 0.2897 0.83189 0.0
Mn288 Mn 0.39157 0.0211 0.29484 0.0
Mn289 Mn 0.3593 0.01178 0.32364 0.0
C290 C 0.37988 0.99163 0.29839 0.0
C291 C 0.40052 0.02786 0.26644 0.0
C292 C 0.39908 0.02623 0.33655 0.0
O293 O 0.38256 0.04463 0.29941 0.0
O294 O 0.35812 0.03557 0.31466 0.0
C295 C 0.32557 1.00767 0.2977 0.0
N296 N 0.33621 1.00074 0.31036 0.0
C297 C 0.31366 0.9734 0.30905 0.0
C298 C 0.30236 0.98032 0.29614 0.0
C299 C 0.3084 0.99749 0.29037 0.0
C300 C 0.33061 0.98417 0.31589 0.0
H301 H 0.33021 0.02083 0.29321 0.0
C302 C 0.36831 0.04731 0.30666 0.0
O303 O 0.41142 0.0329 0.28171 0.0
O304 O 0.38411 0.01924 0.26766 0.0
N305 N 0.35915 0.98886 0.33308 0.0
C306 C 0.37222 0.98366 0.3446 0.0
C307 C 0.36864 0.96657 0.35119 0.0
C308 C 0.35163 0.95507 0.34599 0.0
C309 C 0.33844 0.96068 0.33402 0.0
C310 C 0.34277 0.97788 0.32794 0.0
H311 H 0.38525 0.9925 0.34882 0.0
O312 O 0.39556 0.99564 0.29205 0.0
O313 O 0.37145 1.00492 0.30207 0.0
O314 O 0.40468 0.02505 0.32066 0.0
O315 O 0.38232 0.02273 0.33914 0.0
C316 C 0.32122 0.94981 0.32774 0.0
C317 C 0.30888 0.95612 0.3152 0.0
H318 H 0.28912 0.97249 0.29042 0.0
H319 H 0.29981 1.00287 0.2803 0.0
H320 H 0.37893 0.96231 0.36035 0.0
H321 H 0.34891 0.94192 0.35117 0.0
H322 H 0.31743 0.93646 0.33228 0.0
H323 H 0.29581 0.94751 0.31023 0.0
Mn324 Mn 0.26738 0.18045 0.51784 0.0
Mn325 Mn 0.25904 0.14517 0.48353 0.0
C326 C 0.23783 0.16381 0.50943 0.0
C327 C 0.27362 0.19273 0.54966 0.0
C328 C 0.26737 0.18461 0.47582 0.0
O329 O 0.29254 0.17357 0.51667 0.0
O330 O 0.285 0.14966 0.4942 0.0
C331 C 0.26513 0.11441 0.50442 0.0
N332 N 0.25404 0.12216 0.49298 0.0
C333 C 0.23065 0.09521 0.48905 0.0
C334 C 0.24182 0.08693 0.50078 0.0
C335 C 0.25912 0.09658 0.50851 0.0
C336 C 0.23745 0.11292 0.48528 0.0
H337 H 0.27846 0.12176 0.5103 0.0
C338 C 0.29652 0.16037 0.50635 0.0
O339 O 0.277 0.20263 0.53622 0.0
O340 O 0.26745 0.17555 0.54469 0.0
N341 N 0.23428 0.13952 0.47242 0.0
C342 C 0.22455 0.15015 0.463 0.0
C343 C 0.20655 0.14294 0.45528 0.0
C344 C 0.19877 0.12489 0.45728 0.0
C345 C 0.20902 0.11427 0.46716 0.0
C346 C 0.22692 0.12217 0.47449 0.0
H347 H 0.23043 0.16406 0.46153 0.0
O348 O 0.24054 0.18057 0.5169 0.0
O349 O 0.25243 0.15753 0.50629 0.0
O350 O 0.26912 0.19184 0.49273 0.0
O351 O 0.26371 0.1675 0.47141 0.0
C352 C 0.20203 0.09632 0.47045 0.0
C353 C 0.21286 0.08677 0.48133 0.0
H354 H 0.23719 0.07323 0.50409 0.0
H355 H 0.26781 0.09028 0.51758 0.0
H356 H 0.19867 0.15129 0.44783 0.0
H357 H 0.18485 0.11941 0.45138 0.0
H358 H 0.18824 0.08983 0.46494 0.0
H359 H 0.20723 0.07308 0.48399 0.0
Mn360 Mn 0.13601 0.04849 0.78578 0.0
Mn361 Mn 0.17161 0.05538 0.81946 0.0
C362 C 0.1527 0.07779 0.79515 0.0
C363 C 0.12361 0.04257 0.7541 0.0
C364 C 0.13205 0.0449 0.82685 0.0
O365 O 0.14289 0.02316 0.78663 0.0
O366 O 0.16943 0.03082 0.80587 0.0
C367 C 0.2034 0.05538 0.79826 0.0
N368 N 0.19433 0.06413 0.81048 0.0
C369 C 0.2185 0.09044 0.81519 0.0
C370 C 0.22808 0.08168 0.80263 0.0
C371 C 0.22049 0.06407 0.79413 0.0
C372 C 0.20161 0.081 0.81891 0.0
H373 H 0.19765 0.04188 0.79175 0.0
C374 C 0.1577 0.0195 0.79446 0.0
O375 O 0.11373 0.03912 0.76753 0.0
O376 O 0.14087 0.04871 0.75899 0.0
N377 N 0.1748 0.07909 0.8329 0.0
C378 C 0.16324 0.08613 0.84364 0.0
C379 C 0.16843 0.10398 0.85249 0.0
C380 C 0.18544 0.11438 0.85024 0.0
C381 C 0.19709 0.10685 0.83912 0.0
C382 C 0.19121 0.08897 0.83069 0.0
H383 H 0.15013 0.07827 0.84539 0.0
O384 O 0.13607 0.07543 0.78721 0.0
O385 O 0.15873 0.06301 0.7977 0.0
O386 O 0.12484 0.04674 0.81067 0.0
O387 O 0.14921 0.04661 0.83102 0.0
C388 C 0.21415 0.11652 0.83576 0.0
C389 C 0.22486 0.1083 0.82384 0.0
H390 H 0.2412 0.0884 0.79929 0.0
H391 H 0.22778 0.05721 0.78441 0.0
H392 H 0.15931 0.10972 0.86097 0.0
H393 H 0.18933 0.12819 0.85698 0.0
H394 H 0.21906 0.13035 0.84211 0.0
H395 H 0.23785 0.11595 0.82118 0.0
Mn396 Mn 0.29961 0.9255 0.00791 0.0
Mn397 Mn 0.30635 0.95759 0.97864 0.0
C398 C 0.32845 0.93922 1.00459 0.0
C399 C 0.29358 0.91676 0.03633 0.0
C400 C 0.29484 0.91753 0.96656 0.0
O401 O 0.27496 0.93219 1.00254 0.0
O402 O 0.28237 0.9572 0.98767 0.0
C403 C 0.30853 0.9912 1.00403 0.0
N404 N 0.31612 0.9811 0.99152 0.0
C405 C 0.34237 1.00497 0.99254 0.0
C406 C 0.33477 0.01571 0.00533 0.0
C407 C 0.31781 1.00876 0.01116 0.0
C408 C 0.33248 0.98759 0.98592 0.0
H409 H 0.29553 0.98586 0.00854 0.0
C410 C 0.27118 0.94609 0.99536 0.0
O411 O 0.28942 0.9053 0.02141 0.0
O412 O 0.30071 0.93353 0.03476 0.0
N413 N 0.32942 0.95912 0.96915 0.0
C414 C 0.33543 0.94652 0.95783 0.0
C415 C 0.35242 0.95107 0.95116 0.0
C416 C 0.36298 0.96856 0.95607 0.0
C417 C 0.35658 0.98125 0.96788 0.0
C418 C 0.33951 0.97595 0.97403 0.0
H419 H 0.32731 0.93312 0.95382 0.0
O420 O 0.32569 0.9237 0.01137 0.0
O421 O 0.31431 0.94638 1.00047 0.0
O422 O 0.29712 0.91212 0.98242 0.0
O423 O 0.29655 0.93413 0.96361 0.0
C424 C 0.36654 0.99889 0.97394 0.0
C425 C 0.35949 0.0107 0.98634 0.0
H426 H 0.3419 0.02924 0.01089 0.0
H427 H 0.31191 0.01691 0.02111 0.0
H428 H 0.35731 0.94116 0.94215 0.0
H429 H 0.37605 0.97203 0.95082 0.0
H430 H 0.37976 1.00342 0.96936 0.0
H431 H 0.36743 0.0241 0.99116 0.0
Mn432 Mn 0.29977 0.38421 0.04054 0.0
Mn433 Mn 0.30473 0.41646 0.01049 0.0
C434 C 0.32864 0.4009 0.03753 0.0
C435 C 0.29508 0.37405 0.06996 0.0
C436 C 0.29752 0.3761 0.99768 0.0
O437 O 0.27407 0.38987 0.03651 0.0
O438 O 0.27933 0.41135 0.01683 0.0
C439 C 0.29836 0.44811 0.03466 0.0
N440 N 0.30911 0.44037 0.02348 0.0
C441 C 0.33063 0.46854 0.02545 0.0
C442 C 0.31975 0.47685 0.03692 0.0
C443 C 0.30358 0.46657 0.04159 0.0
C444 C 0.32468 0.45014 0.01887 0.0
H445 H 0.28585 0.4403 0.03817 0.0
C446 C 0.26891 0.40159 0.02653 0.0
O447 O 0.29167 0.36308 0.05469 0.0
O448 O 0.30084 0.39111 0.06828 0.0
N449 N 0.32868 0.42296 1.00331 0.0
C450 C 0.33837 0.41251 0.9935 0.0
C451 C 0.35536 0.42046 0.98849 0.0
C452 C 0.36211 0.43912 0.99343 0.0
C453 C 0.35186 0.44962 1.00349 0.0
C454 C 0.33503 0.44092 0.00811 0.0
H455 H 0.33325 0.39821 0.98974 0.0
O456 O 0.32681 0.38495 0.0434 0.0
O457 O 0.31357 0.40659 0.03321 0.0
O458 O 0.2968 0.37063 0.0138 0.0
O459 O 0.30055 0.39282 0.99509 0.0
C460 C 0.35792 0.46825 0.00958 0.0
C461 C 0.3473 0.47771 0.02054 0.0
H462 H 0.32376 0.49106 0.04234 0.0
H463 H 0.29513 0.47288 0.05046 0.0
H464 H 0.36324 0.41222 0.98086 0.0
H465 H 0.37528 0.44518 0.98965 0.0
H466 H 0.37088 0.47534 0.00622 0.0
H467 H 0.35224 0.49196 0.02537 0.0
Mn468 Mn 0.77371 0.1428 0.04998 0.0
Mn469 Mn 0.76296 0.10781 0.01603 0.0
C470 C 0.74406 0.1313 0.03933 0.0
C471 C 0.78009 0.15353 0.08074 0.0
C472 C 0.7773 0.14641 0.00916 0.0
O473 O 0.7967 0.13279 0.05031 0.0
O474 O 0.78793 0.1091 0.02797 0.0
C475 C 0.76287 0.07746 0.03922 0.0
N476 N 0.75418 0.08587 0.02625 0.0
C477 C 0.72834 0.06123 0.02131 0.0
C478 C 0.73701 0.05225 0.03459 0.0
C479 C 0.75429 0.06048 0.04369 0.0
C480 C 0.73742 0.07826 0.01769 0.0
H481 H 0.77626 0.08364 0.04605 0.0
C482 C 0.79957 0.11889 0.04058 0.0
O483 O 0.78589 0.1635 0.06805 0.0
O484 O 0.77089 0.13724 0.07562 0.0
N485 N 0.73888 0.10487 1.00346 0.0
C486 C 0.73174 0.11608 0.99234 0.0
C487 C 0.7141 0.11033 0.98295 0.0
C488 C 0.70423 0.09295 0.98471 0.0
C489 C 0.71196 0.08162 0.99613 0.0
C490 C 0.72935 0.08829 0.00554 0.0
H491 H 0.73945 0.1293 0.99069 0.0
O492 O 0.7486 0.14783 0.04749 0.0
O493 O 0.75701 0.12218 0.03756 0.0
O494 O 0.77867 0.15349 0.02594 0.0
O495 O 0.77156 0.12953 1.00395 0.0
C496 C 0.70308 0.06398 0.99862 0.0
C497 C 0.71109 0.05394 0.01148 0.0
H498 H 0.7305 0.03908 0.03795 0.0
H499 H 0.76105 0.05366 0.05398 0.0
H500 H 0.70822 0.11917 0.9742 0.0
H501 H 0.69069 0.08848 0.97731 0.0
H502 H 0.68984 0.05821 0.99109 0.0
H503 H 0.70384 0.04066 0.01373 0.0
Mn504 Mn 0.17614 0.54919 0.25276 0.0
Mn505 Mn 0.21072 0.55933 0.28741 0.0
C506 C 0.18825 0.57872 0.26274 0.0
C507 C 0.16596 0.54161 0.22192 0.0
C508 C 0.17147 0.5461 0.29326 0.0
O509 O 0.18511 0.52581 0.25399 0.0
O510 O 0.20971 0.53447 0.27537 0.0
C511 C 0.24191 0.55972 0.26534 0.0
N512 N 0.23307 0.5683 0.27794 0.0
C513 C 0.25687 0.59489 0.28218 0.0
C514 C 0.26629 0.5863 0.26931 0.0
C515 C 0.25874 0.56866 0.26082 0.0
C516 C 0.24019 0.58527 0.28619 0.0
H517 H 0.23614 0.54616 0.25879 0.0
C518 C 0.19925 0.52279 0.26329 0.0
O519 O 0.15553 0.53697 0.23465 0.0
O520 O 0.18243 0.55047 0.22712 0.0
N521 N 0.21331 0.58325 0.30011 0.0
C522 C 0.2018 0.59009 0.31104 0.0
C523 C 0.20701 0.60784 0.32013 0.0
C524 C 0.22404 0.61828 0.318 0.0
C525 C 0.23562 0.61098 0.3066 0.0
C526 C 0.22975 0.59316 0.29801 0.0
H527 H 0.18873 0.58208 0.31278 0.0
O528 O 0.17197 0.5745 0.2538 0.0
O529 O 0.19695 0.56555 0.26536 0.0
O530 O 0.16463 0.54581 0.27654 0.0
O531 O 0.18848 0.55044 0.29877 0.0
C532 C 0.25257 0.62079 0.3031 0.0
C533 C 0.26317 0.61276 0.29087 0.0
H534 H 0.27923 0.59319 0.2657 0.0
H535 H 0.26589 0.56197 0.25081 0.0
H536 H 0.19795 0.61345 0.32879 0.0
H537 H 0.22804 0.63193 0.32511 0.0
H538 H 0.25742 0.63463 0.30946 0.0
H539 H 0.27602 0.62055 0.28803 0.0
Mn540 Mn 0.79922 0.88337 0.53975 0.0
Mn541 Mn 0.80075 0.91736 0.51211 0.0
C542 C 0.82751 0.90059 0.53486 0.0
C543 C 0.79614 0.87262 0.56927 0.0
C544 C 0.79236 0.87729 0.49689 0.0
O545 O 0.77317 0.88875 0.53814 0.0
O546 O 0.77739 0.91376 0.52291 0.0
C547 C 0.80053 0.94918 0.53927 0.0
N548 N 0.80827 0.94097 0.52544 0.0
C549 C 0.82745 0.9692 0.52125 0.0
C550 C 0.81979 0.97799 0.53555 0.0
C551 C 0.80643 0.96788 0.54475 0.0
C552 C 0.82157 0.95043 0.51696 0.0
H553 H 0.78979 0.94154 0.54584 0.0
C554 C 0.76778 0.90245 0.5318 0.0
O555 O 0.79174 0.86189 0.55385 0.0
O556 O 0.80233 0.88959 0.56769 0.0
N557 N 0.82263 0.92264 0.50064 0.0
C558 C 0.82957 0.91178 0.48821 0.0
C559 C 0.84351 0.9196 0.47821 0.0
C560 C 0.84968 0.93854 0.48062 0.0
C561 C 0.84229 0.94939 0.4935 0.0
C562 C 0.82904 0.94073 0.50365 0.0
H563 H 0.82431 0.89734 0.48574 0.0
O564 O 0.82638 0.8845 0.54037 0.0
O565 O 0.81214 0.90616 0.53246 0.0
O566 O 0.79498 0.87076 0.51239 0.0
O567 O 0.79301 0.89421 0.49602 0.0
C568 C 0.84746 0.96848 0.49664 0.0
C569 C 0.84036 0.97834 0.51078 0.0
H570 H 0.82399 0.99249 0.53949 0.0
H571 H 0.80038 0.97458 0.55573 0.0
H572 H 0.84914 0.91112 0.46831 0.0
H573 H 0.86015 0.94458 0.47257 0.0
H574 H 0.85738 0.97565 0.48868 0.0
H575 H 0.84492 0.99293 0.51348 0.0
Mn576 Mn 0.93246 0.01498 0.262 0.0
Mn577 Mn 0.89839 0.0113 0.28983 0.0
C578 C 0.91565 0.9864 0.26567 0.0
C579 C 0.94353 0.01938 0.23284 0.0
C580 C 0.9385 0.02047 0.30485 0.0
O581 O 0.92646 0.04066 0.26483 0.0
O582 O 0.90184 0.03548 0.28075 0.0
C583 C 0.86664 0.01218 0.26269 0.0
N584 N 0.875 1.00367 0.2758 0.0
C585 C 0.84853 0.97995 0.27425 0.0
C586 C 0.83961 0.98847 0.26074 0.0
C587 C 0.84873 1.00462 0.2549 0.0
C588 C 0.86638 0.9881 0.28149 0.0
H589 H 0.8736 0.02466 0.25828 0.0
C590 C 0.91303 0.04568 0.27217 0.0
O591 O 0.95405 0.02329 0.24846 0.0
O592 O 0.92645 0.01306 0.23409 0.0
N593 N 0.8937 0.98843 0.29965 0.0
C594 C 0.90467 0.98137 0.31192 0.0
C595 C 0.89781 0.96499 0.31883 0.0
C596 C 0.87972 0.95615 0.3132 0.0
C597 C 0.86871 0.96367 0.30054 0.0
C598 C 0.87627 0.98007 0.2942 0.0
H599 H 0.91852 0.98818 0.31644 0.0
O600 O 0.93179 0.9879 0.26017 0.0
O601 O 0.90993 1.00154 0.26889 0.0
O602 O 0.94493 0.01838 0.28926 0.0
O603 O 0.9215 0.01897 0.30614 0.0
C604 C 0.85061 0.95543 0.29377 0.0
C605 C 0.84055 0.96352 0.28059 0.0
H606 H 0.8258 0.98267 0.25468 0.0
H607 H 0.84194 0.01126 0.24446 0.0
H608 H 0.90642 0.95924 0.32853 0.0
H609 H 0.87447 0.94357 0.31864 0.0
H610 H 0.8444 0.94271 0.29839 0.0
H611 H 0.82676 0.9569 0.27526 0.0
Mn612 Mn 0.27332 0.64161 0.55031 0.0
Mn613 Mn 0.26178 0.60658 0.51617 0.0
C614 C 0.24347 0.62946 0.54173 0.0
C615 C 0.28147 0.65385 0.58055 0.0
C616 C 0.2744 0.64538 0.5092 0.0
O617 O 0.29648 0.63215 0.54923 0.0
O618 O 0.28743 0.6084 0.52683 0.0
C619 C 0.26384 0.57544 0.53785 0.0
N620 N 0.2542 0.58407 0.52589 0.0
C621 C 0.22869 0.55905 0.52166 0.0
C622 C 0.23837 0.54986 0.53391 0.0
C623 C 0.256 0.55811 0.54206 0.0
C624 C 0.23726 0.57621 0.51788 0.0
H625 H 0.27744 0.58172 0.54405 0.0
C626 C 0.29927 0.61849 0.53907 0.0
O627 O 0.28588 0.663 0.56685 0.0
O628 O 0.2728 0.63712 0.57668 0.0
N629 N 0.23724 0.60324 0.5047 0.0
C630 C 0.22922 0.61462 0.49455 0.0
C631 C 0.2113 0.60873 0.48596 0.0
C632 C 0.20188 0.59118 0.4878 0.0
C633 C 0.21036 0.5798 0.49848 0.0
C634 C 0.22829 0.58637 0.5066 0.0
H635 H 0.23646 0.62808 0.49303 0.0
O636 O 0.24826 0.6461 0.54956 0.0
O637 O 0.25637 0.62035 0.53884 0.0
O638 O 0.27632 0.65223 0.52603 0.0
O639 O 0.26907 0.6285 0.50402 0.0
C640 C 0.20159 0.56239 0.50178 0.0
C641 C 0.21075 0.55201 0.51336 0.0
H642 H 0.23234 0.53652 0.53727 0.0
H643 H 0.26354 0.55111 0.55154 0.0
H644 H 0.20475 0.61768 0.47793 0.0
H645 H 0.18803 0.5867 0.48121 0.0
H646 H 0.18769 0.55698 0.49574 0.0
H647 H 0.20376 0.53876 0.51602 0.0
Mn648 Mn 0.43173 0.51483 0.7622 0.0
Mn649 Mn 0.39784 0.5122 0.79 0.0
C650 C 0.41481 0.48644 0.76656 0.0
C651 C 0.44219 0.51875 0.73275 0.0
C652 C 0.4381 0.5216 0.80481 0.0
O653 O 0.42607 0.54073 0.76485 0.0
O654 O 0.40027 0.53543 0.77895 0.0
C655 C 0.36537 0.51075 0.76295 0.0
N656 N 0.37433 0.5033 0.77655 0.0
C657 C 0.3481 0.4799 0.77754 0.0
C658 C 0.33856 0.48734 0.76356 0.0
C659 C 0.34729 0.50277 0.75615 0.0
C660 C 0.36616 0.4883 0.78357 0.0
H661 H 0.37196 0.52274 0.75743 0.0
C662 C 0.41181 0.5455 0.77061 0.0
O663 O 0.45312 0.52267 0.7481 0.0
O664 O 0.42517 0.51267 0.73437 0.0
N665 N 0.39402 0.49007 0.80135 0.0
C666 C 0.40548 0.4839 0.8139 0.0
C667 C 0.39916 0.46805 0.82198 0.0
C668 C 0.38102 0.45891 0.81736 0.0
C669 C 0.36944 0.46561 0.80455 0.0
C670 C 0.37659 0.4813 0.79673 0.0
H671 H 0.41935 0.49098 0.81775 0.0
O672 O 0.43076 0.48767 0.76068 0.0
O673 O 0.40928 0.50169 0.7695 0.0
O674 O 0.4444 0.51826 0.78935 0.0
O675 O 0.42118 0.52124 0.80592 0.0
C676 C 0.35108 0.45733 0.79921 0.0
C677 C 0.34043 0.46444 0.78568 0.0
H678 H 0.32457 0.48129 0.75837 0.0
H679 H 0.34003 0.50859 0.74534 0.0
H680 H 0.40819 0.46298 0.83186 0.0
H681 H 0.37616 0.44673 0.82369 0.0
H682 H 0.34511 0.44527 0.80517 0.0
H683 H 0.32642 0.45773 0.78143 0.0
Mn684 Mn 0.67642 0.04691 0.75534 0.0
Mn685 Mn 0.71306 0.058 0.78769 0.0
C686 C 0.68994 0.07639 0.762 0.0
C687 C 0.66316 0.0379 0.72567 0.0
C688 C 0.67437 0.0467 0.79639 0.0
O689 O 0.68447 0.02333 0.75774 0.0
O690 O 0.71118 0.03265 0.77628 0.0
C691 C 0.74426 0.05627 0.766 0.0
N692 N 0.73546 0.06585 0.77779 0.0
C693 C 0.76056 0.09129 0.78233 0.0
C694 C 0.76991 0.08168 0.77023 0.0
C695 C 0.76171 0.06411 0.76201 0.0
C696 C 0.74334 0.08267 0.78599 0.0
H697 H 0.73808 0.0427 0.75981 0.0
C698 C 0.69935 0.02067 0.76575 0.0
O699 O 0.6542 0.03473 0.73982 0.0
O700 O 0.68028 0.04559 0.72881 0.0
N701 N 0.71625 0.08245 0.79919 0.0
C702 C 0.70454 0.09056 0.80875 0.0
C703 C 0.71003 0.10871 0.81664 0.0
C704 C 0.72753 0.11827 0.81477 0.0
C705 C 0.73933 0.10964 0.80483 0.0
C706 C 0.73306 0.09156 0.79717 0.0
H707 H 0.69107 0.08327 0.8102 0.0
O708 O 0.67305 0.07201 0.7547 0.0
O709 O 0.6986 0.06327 0.76534 0.0
O710 O 0.66664 0.0461 0.78005 0.0
O711 O 0.69157 0.05033 0.80051 0.0
C712 C 0.75682 0.11843 0.80169 0.0
C713 C 0.76747 0.10923 0.79053 0.0
H714 H 0.78332 0.08773 0.76702 0.0
H715 H 0.76883 0.05661 0.75267 0.0
H716 H 0.70079 0.11533 0.82415 0.0
H717 H 0.73168 0.13231 0.82079 0.0
H718 H 0.76207 0.13239 0.80749 0.0
H719 H 0.78078 0.11623 0.78799 0.0
Mn720 Mn 0.76776 0.68073 0.0187 0.0
Mn721 Mn 0.76126 0.64549 0.98462 0.0
C722 C 0.73847 0.66429 0.00852 0.0
C723 C 0.77291 0.69266 0.05054 0.0
C724 C 0.77138 0.68495 0.97734 0.0
O725 O 0.79296 0.67363 0.01891 0.0
O726 O 0.78634 0.64886 0.99735 0.0
C727 C 0.76359 0.61435 0.00619 0.0
N728 N 0.75401 0.62268 0.99387 0.0
C729 C 0.72913 0.59703 0.98888 0.0
C730 C 0.73873 0.58816 1.00152 0.0
C731 C 0.75603 0.59687 0.01022 0.0
C732 C 0.73742 0.61437 0.9853 0.0
H733 H 0.77692 0.62098 0.01283 0.0
C734 C 0.79725 0.65996 0.00964 0.0
O735 O 0.77708 0.7027 0.03739 0.0
O736 O 0.76637 0.67559 0.04528 0.0
N737 N 0.7373 0.64105 0.97151 0.0
C738 C 0.72937 0.65202 0.96071 0.0
C739 C 0.71178 0.64563 0.95146 0.0
C740 C 0.70258 0.62803 0.95335 0.0
C741 C 0.71095 0.61706 0.96471 0.0
C742 C 0.72854 0.62414 0.97351 0.0
H743 H 0.73642 0.66554 0.95916 0.0
O744 O 0.74083 0.68094 0.01627 0.0
O745 O 0.75329 0.6581 0.00638 0.0
O746 O 0.77075 0.69219 0.99386 0.0
O747 O 0.76848 0.66782 0.97296 0.0
C748 C 0.70246 0.5995 0.96786 0.0
C749 C 0.71153 0.58949 0.97994 0.0
H750 H 0.7329 0.57472 1.00475 0.0
H751 H 0.76351 0.59011 0.02 0.0
H752 H 0.70535 0.65422 0.94285 0.0
H753 H 0.68904 0.62313 0.94611 0.0
H754 H 0.68885 0.59364 0.96125 0.0
H755 H 0.70476 0.5761 0.98243 0.0
Mn756 Mn 0.89075 0.52249 0.7947 0.0
Mn757 Mn 0.85929 0.51203 0.82423 0.0
C758 C 0.87973 0.49286 0.79792 0.0
C759 C 0.89878 0.52911 0.76595 0.0
C760 C 0.89922 0.52631 0.83656 0.0
O761 O 0.88127 0.54561 0.79951 0.0
O762 O 0.85864 0.5366 0.81697 0.0
C763 C 0.82538 0.51014 0.79912 0.0
N764 N 0.83586 0.5022 0.811 0.0
C765 C 0.81262 0.47526 0.80865 0.0
C766 C 0.80152 0.48316 0.79644 0.0
C767 C 0.80796 0.50065 0.79161 0.0
C768 C 0.82983 0.48537 0.81569 0.0
H769 H 0.83029 0.52359 0.79543 0.0
C770 C 0.86795 0.54841 0.80831 0.0
O771 O 0.90999 0.53462 0.78095 0.0
O772 O 0.88257 0.52036 0.7677 0.0
N773 N 0.8585 0.48846 0.83226 0.0
C774 C 0.87136 0.48238 0.84326 0.0
C775 C 0.86717 0.46511 0.84933 0.0
C776 C 0.8498 0.45431 0.8441 0.0
C777 C 0.83694 0.46068 0.83242 0.0
C778 C 0.8418 0.47813 0.82705 0.0
H779 H 0.88466 0.49072 0.84751 0.0
O780 O 0.89537 0.49733 0.79163 0.0
O781 O 0.87105 0.50586 0.8021 0.0
O782 O 0.9044 0.52676 0.82046 0.0
O783 O 0.88265 0.5216 0.83948 0.0
C784 C 0.81954 0.45039 0.8258 0.0
C785 C 0.80741 0.45764 0.81386 0.0
H786 H 0.7881 0.47588 0.79058 0.0
H787 H 0.79951 0.50681 0.78215 0.0
H788 H 0.87724 0.46018 0.85816 0.0
H789 H 0.84655 0.44106 0.84898 0.0
H790 H 0.81543 0.43679 0.82963 0.0
H791 H 0.79417 0.44949 0.80865 0.0
Mn792 Mn 0.80121 0.42474 0.50642 0.0
Mn793 Mn 0.8082 0.458 0.4786 0.0
C794 C 0.83 0.43795 0.50238 0.0
C795 C 0.79609 0.41434 0.53448 0.0
C796 C 0.79465 0.41851 0.46479 0.0
O797 O 0.77715 0.43278 0.50313 0.0
O798 O 0.78431 0.45759 0.48794 0.0
C799 C 0.81134 0.49072 0.50552 0.0
N800 N 0.81881 0.48068 0.49284 0.0
C801 C 0.84625 0.50338 0.49588 0.0
C802 C 0.83884 0.51401 0.50893 0.0
C803 C 0.82133 0.50762 0.51381 0.0
C804 C 0.83569 0.48663 0.48815 0.0
H805 H 0.79783 0.48588 0.50919 0.0
C806 C 0.77327 0.44669 0.49605 0.0
O807 O 0.79099 0.40397 0.51892 0.0
O808 O 0.80365 0.4312 0.53376 0.0
N809 N 0.83115 0.45938 0.46887 0.0
C810 C 0.83627 0.44746 0.45603 0.0
C811 C 0.85342 0.4518 0.44961 0.0
C812 C 0.86505 0.46837 0.45638 0.0
C813 C 0.85943 0.48045 0.46952 0.0
C814 C 0.84218 0.4754 0.47537 0.0
H815 H 0.82733 0.43479 0.45062 0.0
O816 O 0.82703 0.4219 0.50804 0.0
O817 O 0.81604 0.44559 0.49945 0.0
O818 O 0.79679 0.4126 0.48042 0.0
O819 O 0.79766 0.43532 0.4625 0.0
C820 C 0.87024 0.49733 0.47699 0.0
C821 C 0.86368 0.50877 0.49019 0.0
H822 H 0.84646 0.52711 0.51528 0.0
H823 H 0.81552 0.51576 0.52387 0.0
H824 H 0.85761 0.44243 0.43941 0.0
H825 H 0.87825 0.47169 0.45135 0.0
H826 H 0.88363 0.50164 0.47269 0.0
H827 H 0.87213 0.5217 0.49586 0.0
Mn828 Mn 0.63693 0.5482 0.28544 0.0
Mn829 Mn 0.67276 0.55512 0.3189 0.0
C830 C 0.65343 0.57755 0.29505 0.0
C831 C 0.62468 0.5424 0.25368 0.0
C832 C 0.63334 0.54464 0.32681 0.0
O833 O 0.64407 0.52304 0.28573 0.0
O834 O 0.67005 0.53032 0.30578 0.0
C835 C 0.70367 0.55419 0.29663 0.0
N836 N 0.6952 0.56328 0.30919 0.0
C837 C 0.71971 0.58925 0.31303 0.0
C838 C 0.72871 0.58016 0.30015 0.0
C839 C 0.72065 0.56256 0.29191 0.0
C840 C 0.70288 0.58018 0.31729 0.0
H841 H 0.69753 0.54066 0.29029 0.0
C842 C 0.6585 0.51916 0.2941 0.0
O843 O 0.61475 0.53862 0.26701 0.0
O844 O 0.64182 0.54897 0.25874 0.0
N845 N 0.67659 0.57896 0.33209 0.0
C846 C 0.66555 0.5863 0.34326 0.0
C847 C 0.67128 0.60412 0.35204 0.0
C848 C 0.6883 0.61418 0.34929 0.0
C849 C 0.69942 0.60633 0.33773 0.0
C850 C 0.693 0.5885 0.32938 0.0
H851 H 0.65245 0.57866 0.34541 0.0
O852 O 0.63673 0.57512 0.28729 0.0
O853 O 0.65959 0.56279 0.29735 0.0
O854 O 0.6259 0.54582 0.31048 0.0
O855 O 0.65057 0.54699 0.33089 0.0
C856 C 0.71647 0.6156 0.33391 0.0
C857 C 0.7266 0.60708 0.32156 0.0
H858 H 0.74176 0.58661 0.29639 0.0
H859 H 0.7275 0.55547 0.28193 0.0
H860 H 0.66258 0.6101 0.36087 0.0
H861 H 0.69263 0.62796 0.35599 0.0
H862 H 0.72185 0.62936 0.34026 0.0
H863 H 0.73958 0.61445 0.31854 0.0
Tb864 Tb 0.05441 0.03889 0.03781 0.0
C865 C 0.99745 0.97652 0.99136 0.0
N866 N 1.00636 0.99319 0.98816 0.0
C867 C 0.01171 0.98066 0.95793 0.0
C868 C 0.99603 0.96114 0.97821 0.0
C869 C 0.01257 0.99553 0.97123 0.0
C870 C 1.00366 0.96334 0.96154 0.0
C871 C 0.97903 0.95797 0.01088 0.0
C872 C 0.98901 0.97494 0.00756 0.0
C873 C 0.97812 0.9426 0.99807 0.0
C874 C 0.98659 0.94418 0.98179 0.0
Tb875 Tb 1.00639 0.01625 0.01123 0.0
N876 N 0.99014 0.99005 0.01976 0.0
C877 C 0.96993 0.95699 0.0268 0.0
C878 C 0.9801 0.98931 0.0346 0.0
C879 C 0.97026 0.97279 0.03856 0.0
H880 H 0.01741 1.00884 0.96733 0.0
H881 H 0.96264 0.97233 0.05049 0.0
H882 H 0.04974 0.05179 0.08246 0.0
H883 H 0.09688 0.07203 0.99033 0.0
H884 H 0.97909 1.00145 0.04328 0.0
H885 H 0.96213 0.94422 0.02981 0.0
H886 H 0.07866 0.04601 1.00247 0.0
H887 H 0.01685 0.98265 0.94469 0.0
H888 H 0.97059 0.92947 1.00045 0.0
H889 H 0.98544 0.93224 0.97185 0.0
H890 H 0.05706 0.08005 0.10393 0.0
H891 H 1.00279 0.95188 0.95107 0.0
H892 H 0.10286 0.10245 0.00842 0.0
N893 N 0.06048 0.06412 0.05951 0.0
C894 C 0.07028 0.07931 0.05398 0.0
C895 C 0.06063 0.08012 0.08983 0.0
C896 C 0.07509 0.0957 0.06597 0.0
C897 C 0.05627 0.06417 0.07749 0.0
C898 C 0.06987 0.09602 0.08397 0.0
N899 N 0.0725 0.0618 0.02599 0.0
C900 C 0.08034 0.05933 0.00995 0.0
C901 C 0.08749 0.09326 0.03068 0.0
C902 C 0.07653 0.0781 0.03666 0.0
C903 C 0.09441 0.09113 0.01353 0.0
C904 C 0.09103 0.074 1.00325 0.0
H905 H 0.07339 0.10832 0.09362 0.0
H906 H 0.08922 0.12377 0.06882 0.0
H907 H 0.09995 0.12167 0.03784 0.0
O908 O 0.07812 0.0283 0.03387 0.0
O909 O 0.04356 0.05701 0.01931 0.0
O910 O 0.01227 0.04695 0.01704 0.0
O911 O 0.07167 0.03685 0.06168 0.0
O912 O 0.05185 0.02252 0.01041 0.0
O913 O 0.02661 0.02921 0.99463 0.0
O914 O 0.98041 0.02106 0.01509 0.0
O915 O 0.02468 0.99709 0.01887 0.0
O916 O 0.04146 0.01229 0.04562 0.0
O917 O 0.98782 0.0155 0.9875 0.0
O918 O 1.00789 0.01884 0.04163 0.0
O919 O 0.03071 0.04326 0.05232 0.0
C920 C 0.02677 0.05985 0.01591 0.0
C921 C 0.09964 0.02552 0.06021 0.0
C922 C 0.12643 0.01232 0.05685 0.0
C923 C 0.13173 0.01633 0.07607 0.0
C924 C 0.10491 0.02939 0.07947 0.0
C925 C 0.12094 0.02479 0.08733 0.0
C926 C 0.1104 0.01694 0.04899 0.0
C927 C 0.04331 0.02629 0.995 0.0
C928 C 0.08299 0.03037 0.05177 0.0
C929 C 0.08549 0.11104 0.05985 0.0
C930 C 0.09162 0.10984 0.04221 0.0
C931 C 0.03492 0.99702 0.03474 0.0
C932 C 0.96555 0.03375 0.99106 0.0
C933 C 0.94332 0.05259 0.99698 0.0
C934 C 0.94348 0.05767 0.97889 0.0
C935 C 0.96591 0.039 0.97298 0.0
C936 C 0.9543 0.04071 1.00296 0.0
C937 C 0.95491 0.05098 0.96698 0.0
C938 C 0.01595 0.03174 0.05466 0.0
C939 C 0.97532 0.01981 0.9973 0.0
H940 H 0.14409 0.01274 0.08236 0.0
H941 H 0.09672 0.036 0.08841 0.0
H942 H 0.12498 0.02779 0.10216 0.0
H943 H 0.10645 0.01399 0.0341 0.0
H944 H 0.93486 0.0668 0.97407 0.0
H945 H 0.97436 0.03363 0.96341 0.0
H946 H 0.95357 0.03643 0.0168 0.0
H947 H 0.95508 0.05491 0.95302 0.0
Tb948 Tb 0.2751 0.7849 0.29678 0.0
C949 C 0.3166 0.74412 0.23054 0.0
N950 N 0.32241 0.75744 0.24494 0.0
C951 C 0.3497 0.74562 0.25149 0.0
C952 C 0.32706 0.73081 0.22624 0.0
C953 C 0.33883 0.75848 0.25529 0.0
C954 C 0.34378 0.7317 0.23694 0.0
C955 C 0.29311 0.72966 0.2057 0.0
C956 C 0.29983 0.74357 0.2204 0.0
C957 C 0.30355 0.71644 0.20129 0.0
C958 C 0.32048 0.71703 0.21152 0.0
Tb959 Tb 0.30394 0.77814 0.2491 0.0
N960 N 0.28988 0.75635 0.22538 0.0
C961 C 0.27609 0.7294 0.1959 0.0
C962 C 0.27353 0.75646 0.21534 0.0
C963 C 0.26632 0.74292 0.20068 0.0
H964 H 0.34394 0.76949 0.26614 0.0
H965 H 0.2533 0.74305 0.19294 0.0
H966 H 0.23388 0.79148 0.28332 0.0
H967 H 0.3303 0.82462 0.34584 0.0
H968 H 0.26595 0.76702 0.21804 0.0
H969 H 0.27045 0.71894 0.18452 0.0
H970 H 0.31581 0.79887 0.32344 0.0
H971 H 0.36271 0.74655 0.2597 0.0
H972 H 0.29861 0.70568 0.19003 0.0
H973 H 0.32834 0.7067 0.208 0.0
H974 H 0.2149 0.81427 0.29028 0.0
H975 H 0.35224 0.72175 0.23405 0.0
H976 H 0.31348 0.84894 0.35455 0.0
N977 N 0.25676 0.80537 0.30193 0.0
C978 C 0.26364 0.81983 0.31476 0.0
C979 C 0.22862 0.81604 0.29722 0.0
C980 C 0.25327 0.83315 0.31927 0.0
C981 C 0.23947 0.80322 0.2932 0.0
C982 C 0.23555 0.83109 0.31031 0.0
N983 N 0.29086 0.80834 0.31804 0.0
C984 C 0.3082 0.80931 0.32635 0.0
C985 C 0.28911 0.83642 0.33625 0.0
C986 C 0.28131 0.82141 0.32307 0.0
C987 C 0.30699 0.83763 0.34437 0.0
C988 C 0.31654 0.82397 0.33943 0.0
H989 H 0.22711 0.84102 0.31341 0.0
H990 H 0.25318 0.85845 0.33614 0.0
H991 H 0.28458 0.86132 0.35104 0.0
O992 O 0.27558 0.77075 0.32014 0.0
O993 O 0.28253 0.8099 0.2845 0.0
O994 O 0.30482 0.79827 0.2728 0.0
O995 O 0.25016 0.76913 0.30202 0.0
O996 O 0.30119 0.77462 0.30136 0.0
O997 O 0.31974 0.78263 0.27763 0.0
O998 O 0.30333 0.79536 0.22778 0.0
O999 O 0.29251 0.75116 0.25599 0.0
O1000 O 0.28304 0.77002 0.27429 0.0
O1001 O 0.32894 0.78951 0.24041 0.0
O1002 O 0.27645 0.78639 0.2451 0.0
O1003 O 0.25824 0.77827 0.26919 0.0
C1004 C 0.29513 0.81098 0.27327 0.0
C1005 C 0.24888 0.75184 0.32875 0.0
C1006 C 0.25044 0.73548 0.35576 0.0
C1007 C 0.23207 0.72719 0.35128 0.0
C1008 C 0.23044 0.74364 0.32426 0.0
C1009 C 0.22207 0.73137 0.33558 0.0
C1010 C 0.25877 0.74778 0.3446 0.0
C1011 C 0.31704 0.77629 0.29403 0.0
C1012 C 0.25822 0.76401 0.3167 0.0
C1013 C 0.26094 0.84808 0.33245 0.0
C1014 C 0.27882 0.84971 0.34092 0.0
C1015 C 0.28316 0.75313 0.26959 0.0
C1016 C 0.33124 0.8092 0.21598 0.0
C1017 C 0.33165 0.82608 0.18913 0.0
C1018 C 0.3508 0.8296 0.19162 0.0
C1019 C 0.35039 0.81287 0.21847 0.0
C1020 C 0.32194 0.81597 0.20141 0.0
C1021 C 0.3601 0.82307 0.20631 0.0
C1022 C 0.26048 0.78355 0.25231 0.0
C1023 C 0.32098 0.79777 0.22808 0.0
H1024 H 0.22555 0.71754 0.35991 0.0
H1025 H 0.22261 0.74654 0.31196 0.0
H1026 H 0.20789 0.72497 0.33209 0.0
H1027 H 0.27306 0.75392 0.34818 0.0
H1028 H 0.35854 0.83758 0.18235 0.0
H1029 H 0.35785 0.80778 0.2297 0.0
H1030 H 0.30715 0.81304 0.19933 0.0
H1031 H 0.37485 0.82587 0.20825 0.0
Tb1032 Tb 0.51383 0.03646 0.53565 0.0
C1033 C 0.5817 0.07408 0.49977 0.0
N1034 N 0.56867 0.05904 0.49386 0.0
C1035 C 0.566 0.06838 0.46315 0.0
C1036 C 0.587 0.08714 0.48762 0.0
C1037 C 0.56124 0.05575 0.47565 0.0
C1038 C 0.57884 0.0842 0.46917 0.0
C1039 C 0.60284 0.09216 0.52491 0.0
C1040 C 0.58967 0.07653 0.5182 0.0
C1041 C 0.60817 0.10516 0.51279 0.0
C1042 C 0.60029 0.10265 0.49422 0.0
Tb1043 Tb 0.56362 0.03923 0.51558 0.0
N1044 N 0.58385 0.06395 0.52974 0.0
C1045 C 0.61008 0.09439 0.54366 0.0
C1046 C 0.59092 0.06593 0.54799 0.0
C1047 C 0.60408 0.08122 0.55523 0.0
H1048 H 0.55207 0.0432 0.47039 0.0
H1049 H 0.60967 0.08281 0.56972 0.0
H1050 H 0.51564 0.0389 0.58172 0.0
H1051 H 0.46426 0.99458 0.48319 0.0
H1052 H 0.5866 0.05573 0.55696 0.0
H1053 H 0.62024 0.10622 0.54934 0.0
H1054 H 0.48742 0.02159 0.49608 0.0
H1055 H 0.55996 0.06576 0.44878 0.0
H1056 H 0.61832 0.11725 0.51768 0.0
H1057 H 0.60453 0.11281 0.48507 0.0
H1058 H 0.50507 0.01885 0.60516 0.0
H1059 H 0.58256 0.0939 0.4594 0.0
H1060 H 0.45433 0.97069 0.50334 0.0
N1061 N 0.5036 0.01968 0.5586 0.0
C1062 C 0.49181 1.00382 0.55287 0.0
C1063 C 0.50145 0.01431 0.59048 0.0
C1064 C 0.4849 0.99216 0.5657 0.0
C1065 C 0.50768 0.0255 0.57717 0.0
C1066 C 0.49026 0.99739 0.58471 0.0
N1067 N 0.49155 0.01249 0.52269 0.0
C1068 C 0.4835 0.01108 0.50478 0.0
C1069 C 0.47195 0.98468 0.52768 0.0
C1070 C 0.48537 1.00017 0.53423 0.0
C1071 C 0.46467 0.98242 0.50895 0.0
C1072 C 0.47024 0.99587 0.49753 0.0
H1073 H 0.48525 0.98883 0.59504 0.0
H1074 H 0.46693 0.96688 0.5688 0.0
H1075 H 0.45563 0.96028 0.53542 0.0
O1076 O 0.49469 0.05059 0.52309 0.0
O1077 O 0.51824 0.01081 0.52011 0.0
O1078 O 0.54965 0.01212 0.52157 0.0
O1079 O 0.50058 0.05257 0.55269 0.0
O1080 O 0.52309 0.04765 0.51103 0.0
O1081 O 0.53962 0.02996 0.49599 0.0
O1082 O 0.58942 0.03183 0.52158 0.0
O1083 O 0.55439 0.06536 0.5241 0.0
O1084 O 0.53671 0.05827 0.54748 0.0
O1085 O 0.57469 0.02647 0.49362 0.0
O1086 O 0.56198 0.03029 0.54271 0.0
O1087 O 0.53614 0.03506 0.55689 0.0
C1088 C 0.53263 1.00293 0.51904 0.0
C1089 C 0.47085 0.05484 0.54148 0.0
C1090 C 0.44317 0.06763 0.54059 0.0
C1091 C 0.43517 0.05375 0.55053 0.0
C1092 C 0.46244 0.04086 0.55113 0.0
C1093 C 0.44472 0.04037 0.55563 0.0
C1094 C 0.46102 0.06811 0.53596 0.0
C1095 C 0.52532 0.03748 0.49627 0.0
C1096 C 0.49035 0.0568 0.53902 0.0
C1097 C 0.47226 0.97613 0.55919 0.0
C1098 C 0.4658 0.97238 0.54019 0.0
C1099 C 0.54577 0.07046 0.53825 0.0
C1100 C 0.60391 0.0169 0.49726 0.0
C1101 C 0.62718 0.9981 0.50044 0.0
C1102 C 0.62995 0.99953 0.48173 0.0
C1103 C 0.60697 0.0181 0.4786 0.0
C1104 C 0.61429 1.00709 0.50834 0.0
C1105 C 0.62 0.00957 0.47096 0.0
C1106 C 0.55226 0.03035 0.55681 0.0
C1107 C 0.5891 0.02502 0.50441 0.0
H1108 H 0.42149 0.05329 0.55433 0.0
H1109 H 0.46973 0.03062 0.5557 0.0
H1110 H 0.43847 0.02973 0.56334 0.0
H1111 H 0.46742 0.07908 0.52869 0.0
H1112 H 0.63986 0.99281 0.47543 0.0
H1113 H 0.59918 0.02558 0.46987 0.0
H1114 H 0.61188 1.00585 0.5227 0.0
H1115 H 0.62225 0.01056 0.45655 0.0
Tb1116 Tb 0.30533 0.27717 0.77766 0.0
C1117 C 0.24015 0.29769 0.73187 0.0
N1118 N 0.25124 0.30678 0.74701 0.0
C1119 C 0.25411 0.33439 0.73248 0.0
C1120 C 0.23621 0.30653 0.71609 0.0
C1121 C 0.25771 0.32505 0.74776 0.0
C1122 C 0.24344 0.32507 0.71651 0.0
C1123 C 0.22221 0.26926 0.71625 0.0
C1124 C 0.2331 0.27928 0.73201 0.0
C1125 C 0.21836 0.27801 0.70048 0.0
C1126 C 0.22529 0.29659 0.70042 0.0
Tb1127 Tb 0.25517 0.29001 0.77118 0.0
N1128 N 0.23748 0.27111 0.74736 0.0
C1129 C 0.21563 0.25072 0.71678 0.0
C1130 C 0.23054 0.25318 0.74818 0.0
C1131 C 0.21971 0.24269 0.73286 0.0
H1132 H 0.26527 0.33272 0.76022 0.0
H1133 H 0.21438 0.22843 0.73353 0.0
H1134 H 0.3009 0.23274 0.78257 0.0
H1135 H 0.35141 0.33429 0.81641 0.0
H1136 H 0.23292 0.24694 0.76066 0.0
H1137 H 0.20725 0.24254 0.70494 0.0
H1138 H 0.33085 0.31767 0.78911 0.0
H1139 H 0.2594 0.34883 0.73311 0.0
H1140 H 0.21004 0.27052 0.68823 0.0
H1141 H 0.22217 0.30314 0.68815 0.0
H1142 H 0.30628 0.21411 0.80792 0.0
H1143 H 0.2407 0.33236 0.70469 0.0
H1144 H 0.35672 0.31885 0.84458 0.0
N1145 N 0.31072 0.258 0.79939 0.0
C1146 C 0.32043 0.26619 0.81568 0.0
C1147 C 0.31003 0.22878 0.81042 0.0
C1148 C 0.32469 0.25602 0.83029 0.0
C1149 C 0.30656 0.23944 0.79619 0.0
C1150 C 0.31883 0.23713 0.82768 0.0
N1151 N 0.32369 0.29379 0.80235 0.0
C1152 C 0.3328 0.3111 0.80155 0.0
C1153 C 0.33925 0.2934 0.83283 0.0
C1154 C 0.32754 0.28463 0.81703 0.0
C1155 C 0.34757 0.31163 0.83274 0.0
C1156 C 0.34458 0.32041 0.81687 0.0
H1157 H 0.3218 0.22881 0.83857 0.0
H1158 H 0.33868 0.25733 0.85806 0.0
H1159 H 0.35149 0.29007 0.86025 0.0
O1160 O 0.32319 0.28725 0.75851 0.0
O1161 O 0.2972 0.29461 0.80053 0.0
O1162 O 0.26619 0.28534 0.79905 0.0
O1163 O 0.32839 0.26552 0.77394 0.0
O1164 O 0.2995 0.30034 0.76359 0.0
O1165 O 0.27843 0.31273 0.77869 0.0
O1166 O 0.22792 0.28413 0.77779 0.0
O1167 O 0.26896 0.2828 0.74628 0.0
O1168 O 0.28652 0.26186 0.75439 0.0
O1169 O 0.24304 0.31143 0.78124 0.0
O1170 O 0.25676 0.26506 0.78412 0.0
O1171 O 0.28195 0.25383 0.77479 0.0
C1172 C 0.28198 0.29279 0.80845 0.0
C1173 C 0.34125 0.2674 0.74554 0.0
C1174 C 0.36591 0.26628 0.72584 0.0
C1175 C 0.35617 0.24962 0.7167 0.0
C1176 C 0.33179 0.25076 0.73615 0.0
C1177 C 0.33921 0.24198 0.72178 0.0
C1178 C 0.35834 0.27522 0.74026 0.0
C1179 C 0.2939 0.31451 0.77122 0.0
C1180 C 0.33412 0.27602 0.76167 0.0
C1181 C 0.3354 0.26489 0.84661 0.0
C1182 C 0.34272 0.28354 0.84785 0.0
C1183 C 0.27692 0.26889 0.74179 0.0
C1184 C 0.22177 0.30419 0.80295 0.0
C1185 C 0.19835 0.29976 0.8245 0.0
C1186 C 0.20979 0.31259 0.83775 0.0
C1187 C 0.23288 0.31685 0.81672 0.0
C1188 C 0.2043 0.29565 0.80692 0.0
C1189 C 0.22684 0.32108 0.83384 0.0
C1190 C 0.26586 0.25175 0.78135 0.0
C1191 C 0.22813 0.30086 0.7843 0.0
H1192 H 0.36174 0.2425 0.70561 0.0
H1193 H 0.31885 0.24442 0.74021 0.0
H1194 H 0.33187 0.22909 0.71467 0.0
H1195 H 0.36584 0.288 0.74754 0.0
H1196 H 0.20544 0.31612 0.85121 0.0
H1197 H 0.24627 0.32372 0.81427 0.0
H1198 H 0.19548 0.28592 0.79651 0.0
H1199 H 0.23542 0.3311 0.84409 0.0
Tb1200 Tb 0.04218 1.0071 0.52459 0.0
C1201 C 0.01533 0.07218 0.56734 0.0
N1202 N 1.00715 0.06043 0.5523 0.0
C1203 C 0.97862 0.05737 0.56522 0.0
C1204 C 1.00551 0.07671 0.58212 0.0
C1205 C 0.98891 0.05331 0.55087 0.0
C1206 C 0.98696 0.06904 0.58097 0.0
C1207 C 0.04275 0.09185 0.58317 0.0
C1208 C 0.03371 0.07961 0.56789 0.0
C1209 C 0.03307 0.09631 0.59804 0.0
C1210 C 0.0145 0.08876 0.59751 0.0
Tb1211 Tb 0.02557 0.05503 0.52993 0.0
N1212 N 0.04275 0.07456 0.5535 0.0
C1213 C 0.0612 0.09933 0.58295 0.0
C1214 C 0.06029 0.08281 0.55257 0.0
C1215 C 0.06993 0.09498 0.56744 0.0
H1216 H 0.98209 0.04486 0.53849 0.0
H1217 H 0.08398 0.10125 0.56677 0.0
H1218 H 0.08631 0.01578 0.51818 0.0
H1219 H 0.98263 0.96751 0.48265 0.0
H1220 H 0.06666 0.08056 0.54017 0.0
H1221 H 0.06867 0.1088 0.59442 0.0
H1222 H 0.99971 0.98597 0.51076 0.0
H1223 H 0.9642 0.05164 0.56404 0.0
H1224 H 0.03979 0.10566 0.60995 0.0
H1225 H 1.0072 0.09239 0.60904 0.0
H1226 H 0.10486 0.00919 0.4931 0.0
H1227 H 0.97892 0.07219 0.59203 0.0
H1228 H 0.99898 0.95966 0.45588 0.0
N1229 N 0.06125 1.00179 0.50295 0.0
C1230 C 0.05307 0.99118 0.48714 0.0
C1231 C 0.09029 1.00413 0.49121 0.0
C1232 C 0.06323 0.98681 0.4726 0.0
C1233 C 0.07966 1.00807 0.50531 0.0
C1234 C 0.08205 0.99351 0.47477 0.0
N1235 N 0.02484 0.99023 0.49938 0.0
C1236 C 1.00669 0.98348 0.49887 0.0
C1237 C 0.02531 0.97409 0.4692 0.0
C1238 C 0.03431 0.98497 0.48541 0.0
C1239 C 1.00642 0.96807 0.46809 0.0
C1240 C 0.99712 0.9726 0.4831 0.0
H1241 H 0.09035 0.99048 0.4639 0.0
H1242 H 0.06188 0.97252 0.44503 0.0
H1243 H 0.02872 0.96133 0.44209 0.0
O1244 O 0.03173 0.98441 0.53823 0.0
O1245 O 0.03527 0.01971 0.49885 0.0
O1246 O 0.01313 0.03561 0.50611 0.0
O1247 O 0.05863 0.98789 0.52978 0.0
O1248 O 0.01785 0.00911 0.53889 0.0
O1249 O 1.00453 0.03028 0.5246 0.0
O1250 O 0.0337 0.0768 0.51333 0.0
O1251 O 0.03443 0.0443 0.55629 0.0
O1252 O 0.05446 0.02487 0.54987 0.0
O1253 O 1.00709 0.07163 0.52336 0.0
O1254 O 0.05094 0.05319 0.51733 0.0
O1255 O 0.06391 0.03118 0.53109 0.0
C1256 C 0.022 0.02819 0.49375 0.0
C1257 C 0.05366 0.97147 0.55576 0.0
C1258 C 0.05266 0.94784 0.57694 0.0
C1259 C 0.06857 0.9579 0.58733 0.0
C1260 C 0.06965 0.98117 0.56637 0.0
C1261 C 0.07695 0.97448 0.5821 0.0
C1262 C 0.0451 0.95472 0.56116 0.0
C1263 C 1.00353 0.01616 0.53413 0.0
C1264 C 0.04672 0.97798 0.53831 0.0
C1265 C 0.0543 0.97601 0.45637 0.0
C1266 C 0.0354 0.96965 0.45469 0.0
C1267 C 0.04708 0.03504 0.56165 0.0
C1268 C 0.01202 0.09735 0.50559 0.0
C1269 C 0.0153 0.12218 0.48566 0.0
C1270 C 0.99843 0.12585 0.49007 0.0
C1271 C 0.99521 0.10161 0.50969 0.0
C1272 C 0.02226 0.10789 0.49356 0.0
C1273 C 0.98854 0.1157 0.50202 0.0
C1274 C 0.06519 0.04636 0.52315 0.0
C1275 C 0.01799 0.08177 0.51408 0.0
H1276 H 0.0746 0.95282 0.59945 0.0
H1277 H 0.07675 0.99374 0.56224 0.0
H1278 H 0.08931 0.98205 0.59013 0.0
H1279 H 0.03292 0.94692 0.55294 0.0
H1280 H 0.99291 0.13676 0.48425 0.0
H1281 H 0.98704 0.09399 0.5189 0.0
H1282 H 0.03525 0.10491 0.4902 0.0
H1283 H 0.97557 0.11874 0.50533 0.0
Tb1284 Tb 0.28798 0.808 0.76789 0.0
C1285 C 0.24911 0.74004 0.80314 0.0
N1286 N 0.26561 0.75106 0.80881 0.0
C1287 C 0.25859 0.75253 0.84046 0.0
C1288 C 0.23635 0.7357 0.81589 0.0
C1289 C 0.27086 0.75637 0.82738 0.0
C1290 C 0.24116 0.74242 0.83466 0.0
C1291 C 0.22798 0.72147 0.77822 0.0
C1292 C 0.245 0.73276 0.7845 0.0
C1293 C 0.21514 0.71755 0.79084 0.0
C1294 C 0.21931 0.72463 0.8096 0.0
Tb1295 Tb 0.28337 0.75679 0.78525 0.0
N1296 N 0.25739 0.73742 0.77236 0.0
C1297 C 0.22429 0.71462 0.75938 0.0
C1298 C 0.25407 0.73032 0.75412 0.0
C1299 C 0.23746 0.71894 0.74732 0.0
H1300 H 0.28453 0.76346 0.83237 0.0
H1301 H 0.23482 0.71351 0.73278 0.0
H1302 H 0.29183 0.80049 0.72149 0.0
H1303 H 0.32888 0.85682 0.82099 0.0
H1304 H 0.26416 0.7334 0.74485 0.0
H1305 H 0.21136 0.70591 0.75402 0.0
H1306 H 0.3015 0.83429 0.80722 0.0
H1307 H 0.26266 0.7572 0.85506 0.0
H1308 H 0.20194 0.70901 0.78623 0.0
H1309 H 0.2093 0.72132 0.81919 0.0
H1310 H 0.31621 0.8058 0.70153 0.0
H1311 H 0.23171 0.73944 0.84485 0.0
H1312 H 0.35541 0.86323 0.80313 0.0
N1313 N 0.30871 0.81248 0.74665 0.0
C1314 C 0.32484 0.82355 0.75362 0.0
C1315 C 0.31896 0.81054 0.71624 0.0
C1316 C 0.33893 0.82783 0.74228 0.0
C1317 C 0.30524 0.80706 0.72789 0.0
C1318 C 0.336 0.82067 0.72353 0.0
N1319 N 0.31293 0.82762 0.78239 0.0
C1320 C 0.31315 0.83694 0.79952 0.0
C1321 C 0.34267 0.84447 0.7791 0.0
C1322 C 0.32681 0.8318 0.77185 0.0
C1323 C 0.34347 0.85336 0.79709 0.0
C1324 C 0.32854 0.84975 0.80725 0.0
H1325 H 0.34648 0.82362 0.71437 0.0
H1326 H 0.36617 0.84304 0.74126 0.0
H1327 H 0.36941 0.85762 0.77347 0.0
O1328 O 0.27341 0.82709 0.77935 0.0
O1329 O 0.31168 0.80177 0.78608 0.0
O1330 O 0.31029 0.77116 0.7789 0.0
O1331 O 0.2836 0.82968 0.75294 0.0
O1332 O 0.27483 0.79781 0.79123 0.0
O1333 O 0.29046 0.77947 0.80667 0.0
O1334 O 0.28946 0.73114 0.77618 0.0
O1335 O 0.25716 0.76562 0.77497 0.0
O1336 O 0.26132 0.79046 0.75731 0.0
O1337 O 0.29974 0.74517 0.80364 0.0
O1338 O 0.29497 0.76673 0.76124 0.0
O1339 O 0.28085 0.78548 0.74549 0.0
C1340 C 0.31956 0.78735 0.78606 0.0
C1341 C 0.25683 0.84089 0.75734 0.0
C1342 C 0.23483 0.86116 0.7578 0.0
C1343 C 0.22458 0.85043 0.74215 0.0
C1344 C 0.24632 0.83031 0.74177 0.0
C1345 C 0.23033 0.83514 0.7342 0.0
C1346 C 0.25111 0.85642 0.76528 0.0
C1347 C 0.28355 0.79416 0.80637 0.0
C1348 C 0.27403 0.83619 0.76498 0.0
C1349 C 0.35517 0.83974 0.74975 0.0
C1350 C 0.357 0.84809 0.76808 0.0
C1351 C 0.25078 0.77682 0.76382 0.0
C1352 C 0.30125 0.71385 0.7992 0.0
C1353 C 0.31705 0.68821 0.79944 0.0
C1354 C 0.31111 0.6848 0.81675 0.0
C1355 C 0.29514 0.71005 0.81636 0.0
C1356 C 0.31191 0.70263 0.79059 0.0
C1357 C 0.30003 0.69554 0.82504 0.0
C1358 C 0.28579 0.76972 0.74621 0.0
C1359 C 0.29968 0.73108 0.79173 0.0
H1360 H 0.21215 0.85398 0.73601 0.0
H1361 H 0.25058 0.81842 0.73537 0.0
H1362 H 0.22237 0.82702 0.7221 0.0
H1363 H 0.25916 0.86465 0.77731 0.0
H1364 H 0.31507 0.67382 0.82385 0.0
H1365 H 0.28716 0.71868 0.82336 0.0
H1366 H 0.31702 0.70572 0.77753 0.0
H1367 H 0.29558 0.69285 0.83843 0.0
Tb1368 Tb 0.53342 0.05008 0.00554 0.0
C1369 C 0.56764 1.0087 0.07378 0.0
N1370 N 0.55428 1.00176 0.05973 0.0
C1371 C 0.56732 0.9751 0.05471 0.0
C1372 C 0.5817 0.99927 0.07862 0.0
C1373 C 0.55379 0.98509 0.05031 0.0
C1374 C 0.58141 0.98226 0.06886 0.0
C1375 C 0.58089 0.03327 0.09772 0.0
C1376 C 0.56725 0.02547 0.08303 0.0
C1377 C 0.59515 0.02412 0.10247 0.0
C1378 C 0.59554 1.00714 0.09295 0.0
Tb1379 Tb 0.53331 0.01924 0.05261 0.0
N1380 N 0.55327 0.03389 0.07788 0.0
C1381 C 0.5796 0.04983 0.10743 0.0
C1382 C 0.55127 0.04932 0.0884 0.0
C1383 C 0.56454 0.05772 0.10295 0.0
H1384 H 0.54292 0.97941 0.03945 0.0
H1385 H 0.56295 0.07012 0.11092 0.0
H1386 H 0.52689 0.09102 0.02181 0.0
H1387 H 0.4996 1.00264 0.94632 0.0
H1388 H 0.53932 0.05513 0.08632 0.0
H1389 H 0.58979 0.05629 0.11879 0.0
H1390 H 0.52178 0.01303 0.97359 0.0
H1391 H 0.56688 0.9619 0.04716 0.0
H1392 H 0.6058 0.02995 0.11364 0.0
H1393 H 0.60652 1.00016 0.09684 0.0
H1394 H 0.50633 0.11181 0.0139 0.0
H1395 H 0.59194 0.97454 0.07218 0.0
H1396 H 0.47809 0.02203 0.93606 0.0
N1397 N 0.51485 0.07039 0.99986 0.0
C1398 C 0.50244 0.06577 0.98449 0.0
C1399 C 0.50497 0.09883 0.0056 0.0
C1400 C 0.49059 0.07744 0.97923 0.0
C1401 C 0.51643 0.0868 0.01027 0.0
C1402 C 0.49195 0.09411 0.99006 0.0
N1403 N 0.51278 0.03798 0.98007 0.0
C1404 C 0.51239 0.02161 0.96996 0.0
C1405 C 0.48853 0.04365 0.95833 0.0
C1406 C 0.50144 0.04908 0.97418 0.0
C1407 C 0.48779 0.02669 0.94833 0.0
C1408 C 0.49984 0.01568 0.95413 0.0
H1409 H 0.4831 0.10348 0.98646 0.0
H1410 H 0.46855 0.08092 0.95916 0.0
H1411 H 0.46674 0.05133 0.94084 0.0
O1412 O 0.55287 0.04888 0.98676 0.0
O1413 O 0.50523 0.03983 0.00962 0.0
O1414 O 0.52175 0.02848 0.0289 0.0
O1415 O 0.54782 0.0746 0.99855 0.0
O1416 O 0.54023 0.02199 1.00167 0.0
O1417 O 0.52935 1.00318 0.02442 0.0
O1418 O 0.513 0.0188 0.07052 0.0
O1419 O 0.55998 0.02608 0.04325 0.0
O1420 O 0.55093 0.04929 0.03089 0.0
O1421 O 0.51792 0.99391 0.05666 0.0
O1422 O 0.52494 0.0464 0.05663 0.0
O1423 O 0.53617 0.06518 0.03418 0.0
C1424 C 0.50545 0.02986 0.02292 0.0
C1425 C 0.55349 0.07211 0.9672 0.0
C1426 C 0.56118 0.06938 0.9355 0.0
C1427 C 0.551 0.08273 0.93124 0.0
C1428 C 0.54329 0.08544 0.96285 0.0
C1429 C 0.54202 0.09063 0.94487 0.0
C1430 C 0.56209 0.064 0.95344 0.0
C1431 C 0.53606 1.00575 0.00815 0.0
C1432 C 0.55546 0.06636 0.98589 0.0
C1433 C 0.47777 0.07212 0.96342 0.0
C1434 C 0.47674 0.05527 0.95299 0.0
C1435 C 0.56309 0.03909 0.03268 0.0
C1436 C 0.50973 0.99367 0.0874 0.0
C1437 C 0.49947 0.99385 0.11813 0.0
C1438 C 0.50947 0.98034 0.12218 0.0
C1439 C 0.51997 0.98036 0.09165 0.0
C1440 C 0.4996 1.0004 0.10073 0.0
C1441 C 0.51976 0.97372 0.10899 0.0
C1442 C 0.52877 0.06256 0.05007 0.0
C1443 C 0.50961 1.00116 0.06945 0.0
H1444 H 0.55034 0.08738 0.91756 0.0
H1445 H 0.53639 0.0919 0.97325 0.0
H1446 H 0.53428 0.10097 0.94157 0.0
H1447 H 0.56964 0.05348 0.95681 0.0
H1448 H 0.50947 0.97511 0.13559 0.0
H1449 H 0.52812 0.97511 0.08167 0.0
H1450 H 0.49168 0.01068 0.09752 0.0
H1451 H 0.52761 0.96344 0.11223 0.0
Tb1452 Tb 0.27198 0.25917 0.26264 0.0
C1453 C 0.33521 0.3159 0.30415 0.0
N1454 N 0.31863 0.30863 0.30913 0.0
C1455 C 0.33266 0.30654 0.33984 0.0
C1456 C 0.35123 0.31812 0.31664 0.0
C1457 C 0.31713 0.30498 0.3271 0.0
C1458 C 0.34983 0.31285 0.3345 0.0
C1459 C 0.35255 0.3314 0.28178 0.0
C1460 C 0.33593 0.32251 0.287 0.0
C1461 C 0.36865 0.33293 0.29383 0.0
C1462 C 0.368 0.32629 0.31122 0.0
Tb1463 Tb 0.29433 0.30767 0.28705 0.0
N1464 N 0.32012 0.3207 0.27564 0.0
C1465 C 0.35237 0.33889 0.2648 0.0
C1466 C 0.31968 0.32893 0.25964 0.0
C1467 C 0.33581 0.33784 0.25379 0.0
H1468 H 0.30402 0.30164 0.33209 0.0
H1469 H 0.33544 0.34403 0.24092 0.0
H1470 H 0.25803 0.26955 0.22067 0.0
H1471 H 0.23566 0.22365 0.31369 0.0
H1472 H 0.30687 0.32875 0.25148 0.0
H1473 H 0.36485 0.34588 0.2603 0.0
H1474 H 0.26282 0.23728 0.30016 0.0
H1475 H 0.33133 0.30337 0.35395 0.0
H1476 H 0.38159 0.33962 0.29003 0.0
H1477 H 0.38046 0.32803 0.3206 0.0
H1478 H 0.2291 0.26639 0.20086 0.0
H1479 H 0.36181 0.3144 0.34453 0.0
H1480 H 0.2051 0.22129 0.29656 0.0
N1481 N 0.24588 0.25859 0.24359 0.0
C1482 C 0.23034 0.24978 0.24945 0.0
C1483 C 0.2292 0.26195 0.21463 0.0
C1484 C 0.21343 0.24743 0.23836 0.0
C1485 C 0.24561 0.2641 0.22615 0.0
C1486 C 0.213 0.25373 0.22081 0.0
N1487 N 0.24807 0.24534 0.27685 0.0
C1488 C 0.2497 0.23774 0.29316 0.0
C1489 C 0.21547 0.23462 0.27352 0.0
C1490 C 0.23141 0.24331 0.26678 0.0
C1491 C 0.21703 0.22798 0.29085 0.0
C1492 C 0.23424 0.22939 0.30062 0.0
H1493 H 0.2003 0.25206 0.21183 0.0
H1494 H 0.18443 0.23695 0.2368 0.0
H1495 H 0.18617 0.22589 0.26764 0.0
O1496 O 0.26851 0.23065 0.25914 0.0
O1497 O 0.25358 0.27884 0.26914 0.0
O1498 O 0.26751 0.29657 0.29579 0.0
O1499 O 0.27654 0.24649 0.2371 0.0
O1500 O 0.28626 0.25929 0.29076 0.0
O1501 O 0.28455 0.28739 0.30553 0.0
O1502 O 0.28456 0.33072 0.27991 0.0
O1503 O 0.31119 0.2935 0.26936 0.0
O1504 O 0.3017 0.26323 0.27176 0.0
O1505 O 0.29941 0.33068 0.30683 0.0
O1506 O 0.27832 0.30541 0.25964 0.0
O1507 O 0.28366 0.27909 0.24475 0.0
C1508 C 0.25251 0.28842 0.28511 0.0
C1509 C 0.28815 0.21975 0.23888 0.0
C1510 C 0.30736 0.19859 0.24778 0.0
C1511 C 0.3152 0.19979 0.23107 0.0
C1512 C 0.29593 0.2207 0.22203 0.0
C1513 C 0.30943 0.21079 0.21821 0.0
C1514 C 0.29385 0.20848 0.2517 0.0
C1515 C 0.28623 0.2703 0.30602 0.0
C1516 C 0.27403 0.23041 0.24267 0.0
C1517 C 0.19755 0.23884 0.2451 0.0
C1518 C 0.19855 0.23255 0.26267 0.0
C1519 C 0.31439 0.27681 0.26854 0.0
C1520 C 0.27698 0.34894 0.30466 0.0
C1521 C 0.25749 0.37099 0.30167 0.0
C1522 C 0.25321 0.36941 0.3199 0.0
C1523 C 0.27245 0.34694 0.32281 0.0
C1524 C 0.26932 0.36081 0.29416 0.0
C1525 C 0.26057 0.35722 0.33038 0.0
C1526 C 0.28106 0.29586 0.24444 0.0
C1527 C 0.29015 0.3396 0.29627 0.0
H1528 H 0.32557 0.192 0.22791 0.0
H1529 H 0.29157 0.22912 0.21181 0.0
H1530 H 0.31537 0.21159 0.20522 0.0
H1531 H 0.28788 0.20735 0.26468 0.0
H1532 H 0.24417 0.37748 0.3259 0.0
H1533 H 0.27818 0.33769 0.33115 0.0
H1534 H 0.27289 0.36247 0.28018 0.0
H1535 H 0.25719 0.35586 0.3444 0.0
Tb1536 Tb 0.54243 0.50826 0.02633 0.0
C1537 C 0.51325 0.57216 0.06735 0.0
N1538 N 0.50574 0.56207 0.05103 0.0
C1539 C 0.47585 0.56056 0.06066 0.0
C1540 C 0.50229 0.57661 0.08113 0.0
C1541 C 0.48726 0.55652 0.04736 0.0
C1542 C 0.48339 0.57057 0.07765 0.0
C1543 C 0.54037 0.58842 0.08698 0.0
C1544 C 0.53207 0.57805 0.07024 0.0
C1545 C 0.52949 0.59282 0.1008 0.0
C1546 C 0.51051 0.58694 0.09789 0.0
Tb1547 Tb 0.52603 0.55647 0.0308 0.0
N1548 N 0.54226 0.57296 0.05684 0.0
C1549 C 0.55936 0.59398 0.08933 0.0
C1550 C 0.56066 0.57901 0.05866 0.0
C1551 C 0.56952 0.58939 0.07504 0.0
H1552 H 0.48121 0.5494 0.03401 0.0
H1553 H 0.58417 0.59387 0.07662 0.0
H1554 H 0.58648 0.51021 0.02396 0.0
H1555 H 0.4831 0.46877 0.98341 0.0
H1556 H 0.56853 0.57576 0.04764 0.0
H1557 H 0.56628 0.60196 0.10202 0.0
H1558 H 0.49969 0.4877 0.01128 0.0
H1559 H 0.46124 0.5561 0.05772 0.0
H1560 H 0.53562 0.60077 0.1138 0.0
H1561 H 0.50231 0.59047 0.10867 0.0
H1562 H 0.60621 0.50024 1.00126 0.0
H1563 H 0.47449 0.57371 0.0879 0.0
H1564 H 0.50011 0.4585 0.95813 0.0
N1565 N 0.56184 0.4987 0.00689 0.0
C1566 C 0.55401 0.48816 0.991 0.0
C1567 C 0.59154 0.4969 0.9981 0.0
C1568 C 0.56465 0.48179 0.97779 0.0
C1569 C 0.58035 0.50281 0.01079 0.0
C1570 C 0.58365 0.48646 0.98144 0.0
N1571 N 0.52562 0.48971 1.00151 0.0
C1572 C 0.50719 0.48403 1.0002 0.0
C1573 C 0.52644 0.47205 0.97222 0.0
C1574 C 0.53524 0.4833 0.98829 0.0
C1575 C 0.50742 0.46712 0.97028 0.0
C1576 C 0.49777 0.47296 0.98447 0.0
H1577 H 0.59233 0.48182 0.97166 0.0
H1578 H 0.56392 0.46585 0.95118 0.0
H1579 H 0.53041 0.45736 0.94627 0.0
O1580 O 0.53051 0.48721 0.0414 0.0
O1581 O 0.53442 0.51891 0.99969 0.0
O1582 O 0.51407 0.53809 0.00576 0.0
O1583 O 0.5592 0.49243 0.03928 0.0
O1584 O 0.5179 0.51219 0.03961 0.0
O1585 O 0.50411 0.53256 0.02452 0.0
O1586 O 0.53706 0.57814 0.01605 0.0
O1587 O 0.53403 0.54438 0.05656 0.0
O1588 O 0.55619 0.52868 0.04879 0.0
O1589 O 0.51077 0.57667 0.02554 0.0
O1590 O 0.55077 0.55476 0.01724 0.0
O1591 O 0.5647 0.53219 0.02862 0.0
C1592 C 0.52192 0.52826 0.9941 0.0
C1593 C 0.54619 0.4624 0.04386 0.0
C1594 C 0.54408 0.43355 0.05756 0.0
C1595 C 0.54913 0.42557 0.04106 0.0
C1596 C 0.55114 0.45399 0.02756 0.0
C1597 C 0.55268 0.43573 0.02625 0.0
C1598 C 0.54277 0.45213 0.05899 0.0
C1599 C 0.50315 0.51766 0.0329 0.0
C1600 C 0.54594 0.48212 0.04567 0.0
C1601 C 0.55599 0.47082 0.96155 0.0
C1602 C 0.53691 0.46597 0.95876 0.0
C1603 C 0.54787 0.53653 0.0613 0.0
C1604 C 0.51544 0.59156 0.9986 0.0
C1605 C 0.51509 0.61493 0.97716 0.0
C1606 C 0.49938 0.60419 0.967 0.0
C1607 C 0.49971 0.58117 0.98812 0.0
C1608 C 0.52325 0.60848 0.99294 0.0
C1609 C 0.49185 0.5874 0.97238 0.0
C1610 C 0.56531 0.54767 0.02115 0.0
C1611 C 0.52268 0.58555 0.01622 0.0
H1612 H 0.55046 0.41141 0.0397 0.0
H1613 H 0.55411 0.46159 0.01593 0.0
H1614 H 0.55672 0.42943 0.01369 0.0
H1615 H 0.53909 0.45852 0.07171 0.0
H1616 H 0.49286 0.6089 0.9549 0.0
H1617 H 0.49321 0.56844 0.99243 0.0
H1618 H 0.53521 0.61681 1.00107 0.0
H1619 H 0.47965 0.57931 0.9645 0.0
Tb1620 Tb 0.79093 0.30897 0.2651 0.0
C1621 C 0.75253 0.23824 0.30138 0.0
N1622 N 0.76795 0.25081 0.30709 0.0
C1623 C 0.76031 0.25176 0.33853 0.0
C1624 C 0.74013 0.23229 0.31397 0.0
C1625 C 0.77237 0.25694 0.3256 0.0
C1626 C 0.744 0.23956 0.33266 0.0
C1627 C 0.73437 0.21679 0.27667 0.0
C1628 C 0.74961 0.23061 0.28299 0.0
C1629 C 0.72173 0.21116 0.28903 0.0
C1630 C 0.72457 0.21895 0.30762 0.0
Tb1631 Tb 0.78623 0.25824 0.28432 0.0
N1632 N 0.76191 0.23666 0.27133 0.0
C1633 C 0.73238 0.20897 0.25814 0.0
C1634 C 0.76043 0.22861 0.25349 0.0
C1635 C 0.74556 0.21482 0.24654 0.0
H1636 H 0.78535 0.26553 0.33065 0.0
H1637 H 0.74438 0.20862 0.23231 0.0
H1638 H 0.79319 0.3009 0.21873 0.0
H1639 H 0.83696 0.35019 0.32076 0.0
H1640 H 0.77086 0.23255 0.24474 0.0
H1641 H 0.72087 0.19829 0.25273 0.0
H1642 H 0.80822 0.33004 0.30688 0.0
H1643 H 0.76376 0.25694 0.35309 0.0
H1644 H 0.70983 0.20067 0.2844 0.0
H1645 H 0.71485 0.21428 0.31708 0.0
H1646 H 0.81624 0.30833 0.19751 0.0
H1647 H 0.7348 0.23539 0.34277 0.0
H1648 H 0.86138 0.35934 0.30095 0.0
N1649 N 0.81034 0.31448 0.24306 0.0
C1650 C 0.82639 0.32591 0.24966 0.0
C1651 C 0.81934 0.31316 0.21218 0.0
C1652 C 0.83978 0.33088 0.23775 0.0
C1653 C 0.80641 0.30864 0.22444 0.0
C1654 C 0.83615 0.32416 0.21887 0.0
N1655 N 0.81675 0.32695 0.27995 0.0
C1656 C 0.81894 0.33356 0.29832 0.0
C1657 C 0.84607 0.34429 0.27578 0.0
C1658 C 0.82952 0.33268 0.26853 0.0
C1659 C 0.84881 0.35044 0.29484 0.0
C1660 C 0.83511 0.34519 0.3061 0.0
H1661 H 0.84611 0.32766 0.20928 0.0
H1662 H 0.86677 0.3463 0.23603 0.0
H1663 H 0.87229 0.35794 0.26926 0.0
O1664 O 0.78098 0.33163 0.27668 0.0
O1665 O 0.81657 0.2992 0.27504 0.0
O1666 O 0.81123 0.27767 0.29593 0.0
O1667 O 0.78476 0.32822 0.24768 0.0
O1668 O 0.77726 0.30082 0.28884 0.0
O1669 O 0.7914 0.28166 0.30489 0.0
O1670 O 0.79915 0.23794 0.27207 0.0
O1671 O 0.75974 0.26472 0.27205 0.0
O1672 O 0.76299 0.29257 0.25894 0.0
O1673 O 0.79911 0.24282 0.30179 0.0
O1674 O 0.79755 0.26851 0.26016 0.0
O1675 O 0.78251 0.28627 0.24372 0.0
C1676 C 0.82242 0.28937 0.28785 0.0
C1677 C 0.76072 0.34271 0.25538 0.0
C1678 C 0.7396 0.36373 0.25832 0.0
C1679 C 0.72737 0.35269 0.24426 0.0
C1680 C 0.74832 0.33197 0.24116 0.0
C1681 C 0.73172 0.3369 0.23574 0.0
C1682 C 0.75631 0.35872 0.26392 0.0
C1683 C 0.78502 0.29664 0.30419 0.0
C1684 C 0.77855 0.33775 0.26059 0.0
C1685 C 0.8563 0.34243 0.24498 0.0
C1686 C 0.85944 0.34911 0.26391 0.0
C1687 C 0.75301 0.27729 0.26318 0.0
C1688 C 0.80112 0.21323 0.29021 0.0
C1689 C 0.81413 0.18579 0.28989 0.0
C1690 C 0.80044 0.17801 0.3002 0.0
C1691 C 0.78726 0.20507 0.30017 0.0
C1692 C 0.81434 0.20337 0.28475 0.0
C1693 C 0.78696 0.18754 0.30511 0.0
C1694 C 0.7878 0.27079 0.24508 0.0
C1695 C 0.80377 0.23278 0.28822 0.0
H1696 H 0.71448 0.35641 0.23976 0.0
H1697 H 0.75141 0.31968 0.23424 0.0
H1698 H 0.72224 0.3285 0.22483 0.0
H1699 H 0.76585 0.36728 0.27471 0.0
H1700 H 0.80015 0.16451 0.30439 0.0
H1701 H 0.77709 0.21247 0.30477 0.0
H1702 H 0.82526 0.20968 0.27735 0.0
H1703 H 0.77647 0.18147 0.31311 0.0
Tb1704 Tb 0.03719 0.54731 0.5055 0.0
C1705 C 0.06725 0.50105 0.57417 0.0
N1706 N 0.05425 0.49586 0.55935 0.0
C1707 C 0.06393 0.46724 0.55434 0.0
C1708 C 0.0795 0.48971 0.57931 0.0
C1709 C 0.05217 0.47901 0.54972 0.0
C1710 C 0.07776 0.47267 0.5691 0.0
C1711 C 0.08204 0.52408 0.59921 0.0
C1712 C 0.06844 0.51795 0.58406 0.0
C1713 C 0.09436 0.5129 0.6043 0.0
C1714 C 0.09308 0.49575 0.59439 0.0
Tb1715 Tb 0.036 0.51629 0.5528 0.0
N1716 N 0.05669 0.52867 0.57823 0.0
C1717 C 0.08294 0.54132 0.6087 0.0
C1718 C 0.05712 0.54523 0.58799 0.0
C1719 C 0.07031 0.55185 0.60315 0.0
H1720 H 0.04117 0.47433 0.53878 0.0
H1721 H 0.07067 0.56508 0.61062 0.0
H1722 H 0.03301 0.58943 0.51802 0.0
H1723 H 1.00155 0.49746 0.44873 0.0
H1724 H 0.04733 0.55348 0.58452 0.0
H1725 H 0.09319 0.54654 0.6204 0.0
H1726 H 0.02573 0.50972 0.47369 0.0
H1727 H 0.06223 0.45393 0.54659 0.0
H1728 H 0.10494 0.51741 0.61586 0.0
H1729 H 0.10268 0.48726 0.59848 0.0
H1730 H 0.01211 0.61001 0.51 0.0
H1731 H 0.08689 0.46354 0.57261 0.0
H1732 H 0.97827 0.51542 0.43965 0.0
N1733 N 0.01929 0.56764 0.49806 0.0
C1734 C 1.00563 0.56199 0.48403 0.0
C1735 C 1.01006 0.5965 0.50263 0.0
C1736 C 0.99331 0.57327 0.47895 0.0
C1737 C 0.02183 0.58473 0.50723 0.0
C1738 C 0.99564 0.5907 0.4885 0.0
N1739 N 0.01626 0.53445 0.48031 0.0
C1740 C 0.01567 0.51778 0.47068 0.0
C1741 C 0.9899 0.53826 0.46023 0.0
C1742 C 1.00399 0.54476 0.47488 0.0
C1743 C 0.98888 0.52092 0.45097 0.0
C1744 C 1.00194 0.51073 0.4561 0.0
H1745 H 0.98649 0.59981 0.48501 0.0
H1746 H 0.96944 0.57521 0.4605 0.0
H1747 H 0.96645 0.54451 0.44408 0.0
O1748 O 0.0566 0.54663 0.48682 0.0
O1749 O 1.0102 0.54054 0.51402 0.0
O1750 O 0.01813 0.51707 0.52744 0.0
O1751 O 0.05626 0.57126 0.50436 0.0
O1752 O 0.04419 0.5196 0.50121 0.0
O1753 O 0.03515 0.50071 0.52459 0.0
O1754 O 0.01739 0.51835 0.57233 0.0
O1755 O 0.0642 0.52788 0.54974 0.0
O1756 O 0.04756 0.53669 0.52861 0.0
O1757 O 0.02001 0.49227 0.55918 0.0
O1758 O 0.0293 0.54432 0.55614 0.0
O1759 O 0.04035 0.56322 0.53354 0.0
C1760 C 1.00686 0.52826 0.52542 0.0
C1761 C 0.06578 0.57412 0.47435 0.0
C1762 C 0.07503 0.57485 0.44313 0.0
C1763 C 0.07395 0.59338 0.44403 0.0
C1764 C 0.06473 0.59261 0.47507 0.0
C1765 C 0.06866 0.60212 0.45987 0.0
C1766 C 0.07058 0.56532 0.45825 0.0
C1767 C 0.04106 0.50347 0.50799 0.0
C1768 C 0.06324 0.56395 0.49052 0.0
C1769 C 0.97911 0.56679 0.46456 0.0
C1770 C 0.9774 0.54931 0.45523 0.0
C1771 C 0.06388 0.53703 0.53584 0.0
C1772 C 0.01306 0.49388 0.59021 0.0
C1773 C 1.00097 0.49308 0.61999 0.0
C1774 C 0.01186 0.48054 0.62492 0.0
C1775 C 0.02419 0.48155 0.59533 0.0
C1776 C 1.00163 0.49969 0.60264 0.0
C1777 C 0.02352 0.47491 0.61264 0.0
C1778 C 0.03365 0.56052 0.54973 0.0
C1779 C 0.01283 0.50081 0.57203 0.0
H1780 H 0.07763 0.60127 0.43276 0.0
H1781 H 0.06113 0.59976 0.4874 0.0
H1782 H 0.06799 0.61642 0.46051 0.0
H1783 H 0.07112 0.55098 0.45764 0.0
H1784 H 0.0115 0.47531 0.63832 0.0
H1785 H 0.03326 0.47696 0.58599 0.0
H1786 H 0.99301 0.50918 0.59868 0.0
H1787 H 0.03203 0.46536 0.61654 0.0
Tb1788 Tb 0.80494 0.776 0.27507 0.0
C1789 C 0.74072 0.79867 0.23318 0.0
N1790 N 0.75052 0.80725 0.2493 0.0
C1791 C 0.7527 0.83587 0.23662 0.0
C1792 C 0.73735 0.80826 0.21782 0.0
C1793 C 0.75536 0.82582 0.25158 0.0
C1794 C 0.744 0.827 0.21954 0.0
C1795 C 0.72141 0.77133 0.21673 0.0
C1796 C 0.73278 0.78048 0.23258 0.0
C1797 C 0.71881 0.78058 0.20105 0.0
C1798 C 0.72679 0.799 0.20158 0.0
Tb1799 Tb 0.75463 0.78874 0.27218 0.0
N1800 N 0.73593 0.77183 0.24784 0.0
C1801 C 0.71266 0.75333 0.21736 0.0
C1802 C 0.72644 0.75476 0.24909 0.0
C1803 C 0.71493 0.74513 0.23373 0.0
H1804 H 0.76095 0.83314 0.26497 0.0
H1805 H 0.70783 0.73141 0.23453 0.0
H1806 H 0.80049 0.73113 0.27673 0.0
H1807 H 0.84418 0.83371 0.32027 0.0
H1808 H 0.72814 0.74853 0.2618 0.0
H1809 H 0.70376 0.74584 0.20548 0.0
H1810 H 0.82534 0.81847 0.29166 0.0
H1811 H 0.75702 0.85051 0.23842 0.0
H1812 H 0.71027 0.77375 0.18862 0.0
H1813 H 0.72421 0.8061 0.18957 0.0
H1814 H 0.80882 0.71094 0.29954 0.0
H1815 H 0.7417 0.83487 0.20807 0.0
H1816 H 0.85357 0.81554 0.3449 0.0
N1817 N 0.81241 0.75552 0.29424 0.0
C1818 C 0.82318 0.76289 0.31022 0.0
C1819 C 0.81274 0.72554 0.30282 0.0
C1820 C 0.82854 0.75181 0.32353 0.0
C1821 C 0.80775 0.73708 0.29005 0.0
C1822 C 0.82299 0.73293 0.31974 0.0
N1823 N 0.82335 0.79197 0.30016 0.0
C1824 C 0.82901 0.81039 0.30233 0.0
C1825 C 0.83987 0.78981 0.32977 0.0
C1826 C 0.82895 0.78167 0.31322 0.0
C1827 C 0.84522 0.80876 0.33235 0.0
C1828 C 0.83988 0.81907 0.31851 0.0
H1829 H 0.82684 0.72394 0.32961 0.0
H1830 H 0.84347 0.75159 0.35054 0.0
H1831 H 0.85325 0.78484 0.35607 0.0
O1832 O 0.83163 0.78413 0.26811 0.0
O1833 O 0.79328 0.78208 0.30168 0.0
O1834 O 0.77405 0.80232 0.29588 0.0
O1835 O 0.81527 0.75823 0.25652 0.0
O1836 O 0.80251 0.80202 0.26497 0.0
O1837 O 0.77783 0.81246 0.27641 0.0
O1838 O 0.73626 0.77955 0.2912 0.0
O1839 O 0.76171 0.77017 0.24972 0.0
O1840 O 0.79113 0.78313 0.24974 0.0
O1841 O 0.73219 0.80141 0.27551 0.0
O1842 O 0.76025 0.76529 0.28606 0.0
O1843 O 0.78151 0.75297 0.27065 0.0
C1844 C 0.78429 0.79481 0.30747 0.0
C1845 C 0.84749 0.76205 0.25535 0.0
C1846 C 0.87537 0.76113 0.24041 0.0
C1847 C 0.87793 0.74613 0.24981 0.0
C1848 C 0.85054 0.74724 0.26476 0.0
C1849 C 0.8657 0.73937 0.26201 0.0
C1850 C 0.86013 0.76918 0.24337 0.0
C1851 C 0.79384 0.8152 0.26967 0.0
C1852 C 0.83071 0.76952 0.25672 0.0
C1853 C 0.83933 0.75988 0.34009 0.0
C1854 C 0.84494 0.77882 0.34322 0.0
C1855 C 0.77625 0.77313 0.24099 0.0
C1856 C 0.72032 0.80113 0.30447 0.0
C1857 C 0.69859 0.80276 0.32747 0.0
C1858 C 0.70837 0.82018 0.33452 0.0
C1859 C 0.72985 0.81849 0.31188 0.0
C1860 C 0.70457 0.79331 0.31223 0.0
C1861 C 0.72384 0.82795 0.32677 0.0
C1862 C 0.76664 0.75116 0.2793 0.0
C1863 C 0.72616 0.79151 0.28812 0.0
H1864 H 0.88949 0.73967 0.24777 0.0
H1865 H 0.84108 0.74159 0.27401 0.0
H1866 H 0.8679 0.72784 0.2692 0.0
H1867 H 0.85781 0.78056 0.23593 0.0
H1868 H 0.70392 0.8279 0.34597 0.0
H1869 H 0.74181 0.82483 0.30598 0.0
H1870 H 0.6971 0.77993 0.30652 0.0
H1871 H 0.73115 0.84142 0.33228 0.0
Tb1872 Tb 0.77429 0.28065 0.7977 0.0
C1873 C 0.82025 0.24956 0.73112 0.0
N1874 N 0.82462 0.26157 0.74682 0.0
C1875 C 0.85077 0.24845 0.75508 0.0
C1876 C 0.83057 0.23605 0.72719 0.0
C1877 C 0.84008 0.26158 0.75841 0.0
C1878 C 0.84588 0.23548 0.73954 0.0
C1879 C 0.80028 0.23879 0.70245 0.0
C1880 C 0.80538 0.25095 0.71884 0.0
C1881 C 0.81026 0.22504 0.69869 0.0
C1882 C 0.8254 0.22369 0.71102 0.0
Tb1883 Tb 0.80574 0.28211 0.75064 0.0
N1884 N 0.79578 0.26414 0.72318 0.0
C1885 C 0.78538 0.24093 0.69029 0.0
C1886 C 0.78202 0.26704 0.71078 0.0
C1887 C 0.77638 0.25529 0.69435 0.0
H1888 H 0.84468 0.27191 0.77 0.0
H1889 H 0.76521 0.25742 0.68476 0.0
H1890 H 0.73366 0.28955 0.78621 0.0
H1891 H 0.82485 0.30769 0.85704 0.0
H1892 H 0.77548 0.27853 0.71326 0.0
H1893 H 0.78099 0.23186 0.67755 0.0
H1894 H 0.80983 0.28498 0.83153 0.0
H1895 H 0.86291 0.24847 0.76442 0.0
H1896 H 0.80651 0.21549 0.68622 0.0
H1897 H 0.8331 0.21314 0.70784 0.0
H1898 H 0.71615 0.31323 0.79477 0.0
H1899 H 0.85422 0.22535 0.73701 0.0
H1900 H 0.81121 0.3344 0.8658 0.0
N1901 N 0.75648 0.30084 0.80613 0.0
C1902 C 0.7636 0.31394 0.82028 0.0
C1903 C 0.72952 0.31364 0.80203 0.0
C1904 C 0.75413 0.32777 0.82567 0.0
C1905 C 0.73953 0.30027 0.79717 0.0
C1906 C 0.73691 0.32756 0.81625 0.0
N1907 N 0.78873 0.29943 0.82376 0.0
C1908 C 0.8041 0.29692 0.83415 0.0
C1909 C 0.78825 0.32641 0.84444 0.0
C1910 C 0.78042 0.31331 0.82934 0.0
C1911 C 0.80474 0.32465 0.85411 0.0
C1912 C 0.81251 0.30964 0.84914 0.0
H1913 H 0.72916 0.33793 0.81996 0.0
H1914 H 0.75511 0.35206 0.84459 0.0
H1915 H 0.78501 0.35082 0.86114 0.0
O1916 O 0.77333 0.26001 0.81504 0.0
O1917 O 0.78058 0.30744 0.78833 0.0
O1918 O 0.80442 0.29942 0.77599 0.0
O1919 O 0.74898 0.26341 0.79877 0.0
O1920 O 0.80137 0.27193 0.80105 0.0
O1921 O 0.82043 0.28489 0.77966 0.0
O1922 O 0.8056 0.30326 0.73369 0.0
O1923 O 0.79112 0.25443 0.75137 0.0
O1924 O 0.7853 0.27025 0.77488 0.0
O1925 O 0.83071 0.29531 0.74355 0.0
O1926 O 0.77685 0.28684 0.74589 0.0
O1927 O 0.75814 0.27889 0.76996 0.0
C1928 C 0.79347 0.3109 0.77758 0.0
C1929 C 0.74661 0.25458 0.82921 0.0
C1930 C 0.74732 0.24694 0.8611 0.0
C1931 C 0.73125 0.25377 0.86291 0.0
C1932 C 0.73055 0.26135 0.83114 0.0
C1933 C 0.72294 0.26092 0.84797 0.0
C1934 C 0.75483 0.24741 0.8442 0.0
C1935 C 0.81769 0.27668 0.79507 0.0
C1936 C 0.75569 0.25539 0.81217 0.0
C1937 C 0.7621 0.34122 0.84029 0.0
C1938 C 0.77914 0.34054 0.84967 0.0
C1939 C 0.7829 0.2544 0.76594 0.0
C1940 C 0.82819 0.30382 0.71317 0.0
C1941 C 0.82518 0.31363 0.68227 0.0
C1942 C 0.83872 0.304 0.6772 0.0
C1943 C 0.84163 0.29414 0.70792 0.0
C1944 C 0.81987 0.31327 0.70023 0.0
C1945 C 0.84679 0.29423 0.68996 0.0
C1946 C 0.76081 0.28368 0.75296 0.0
C1947 C 0.82295 0.30467 0.73214 0.0
H1948 H 0.72494 0.25331 0.87571 0.0
H1949 H 0.72398 0.26708 0.81979 0.0
H1950 H 0.71054 0.26611 0.84943 0.0
H1951 H 0.76741 0.24247 0.84278 0.0
H1952 H 0.84339 0.30437 0.66355 0.0
H1953 H 0.84826 0.28664 0.71764 0.0
H1954 H 0.80932 0.32048 0.70425 0.0
H1955 H 0.85728 0.28693 0.68602 0.0
Tb1956 Tb 0.77313 0.76 0.7639 0.0
C1957 C 0.83538 0.81793 0.80436 0.0
N1958 N 0.81969 0.80861 0.80955 0.0
C1959 C 0.83609 0.80426 0.83838 0.0
C1960 C 0.85216 0.82008 0.81566 0.0
C1961 C 0.81977 0.80271 0.82683 0.0
C1962 C 0.85241 0.81273 0.83265 0.0
C1963 C 0.85017 0.83679 0.78267 0.0
C1964 C 0.83444 0.82637 0.7882 0.0
C1965 C 0.867 0.8384 0.79352 0.0
C1966 C 0.86799 0.83009 0.81 0.0
Tb1967 Tb 0.7939 0.80811 0.78958 0.0
N1968 N 0.81796 0.8245 0.778 0.0
C1969 C 0.84843 0.84548 0.76651 0.0
C1970 C 0.816 0.83373 0.76286 0.0
C1971 C 0.83122 0.84407 0.75666 0.0
H1972 H 0.8073 0.79765 0.83235 0.0
H1973 H 0.82964 0.85113 0.74445 0.0
H1974 H 0.75887 0.77133 0.72239 0.0
H1975 H 0.73795 0.72041 0.81297 0.0
H1976 H 0.80269 0.83342 0.75573 0.0
H1977 H 0.86019 0.8536 0.76177 0.0
H1978 H 0.76467 0.7367 0.80073 0.0
H1979 H 0.836 0.79939 0.85195 0.0
H1980 H 0.87927 0.84631 0.78949 0.0
H1981 H 0.88099 0.83183 0.81848 0.0
H1982 H 0.73011 0.76697 0.70211 0.0
H1983 H 0.865 0.81418 0.84178 0.0
H1984 H 0.70758 0.71598 0.79491 0.0
N1985 N 0.74706 0.75855 0.74454 0.0
C1986 C 0.73189 0.74832 0.74972 0.0
C1987 C 0.73033 0.76194 0.71561 0.0
C1988 C 0.71511 0.74516 0.73828 0.0
C1989 C 0.74664 0.76478 0.72743 0.0
C1990 C 0.71446 0.75222 0.72112 0.0
N1991 N 0.74966 0.74422 0.77728 0.0
C1992 C 0.75153 0.7363 0.79337 0.0
C1993 C 0.71755 0.73092 0.7727 0.0
C1994 C 0.73317 0.74117 0.76671 0.0
C1995 C 0.71926 0.72384 0.78978 0.0
C1996 C 0.73636 0.72643 0.80008 0.0
H1997 H 0.70186 0.74998 0.71188 0.0
H1998 H 0.68658 0.73241 0.73565 0.0
H1999 H 0.68866 0.72009 0.76582 0.0
O2000 O 0.77053 0.73165 0.75966 0.0
O2001 O 0.75317 0.77806 0.77091 0.0
O2002 O 0.7671 0.79585 0.79747 0.0
O2003 O 0.77881 0.7483 0.73829 0.0
O2004 O 0.78742 0.75964 0.79185 0.0
O2005 O 0.78449 0.78699 0.80713 0.0
O2006 O 0.78188 0.83088 0.78637 0.0
O2007 O 0.8117 0.79561 0.77144 0.0
O2008 O 0.80307 0.76505 0.77285 0.0
O2009 O 0.79874 0.8287 0.81211 0.0
O2010 O 0.77863 0.80692 0.76177 0.0
O2011 O 0.7842 0.78073 0.74663 0.0
C2012 C 0.75213 0.78831 0.78651 0.0
C2013 C 0.79173 0.72235 0.74055 0.0
C2014 C 0.81228 0.70283 0.75098 0.0
C2015 C 0.82023 0.70393 0.73425 0.0
C2016 C 0.79972 0.72321 0.72386 0.0
C2017 C 0.81397 0.71411 0.7208 0.0
C2018 C 0.7981 0.71214 0.7541 0.0
C2019 C 0.78679 0.7701 0.80727 0.0
C2020 C 0.77678 0.73209 0.74357 0.0
C2021 C 0.69958 0.73497 0.74425 0.0
C2022 C 0.70078 0.72794 0.76143 0.0
C2023 C 0.81541 0.77909 0.76984 0.0
C2024 C 0.78561 0.85566 0.81106 0.0
C2025 C 0.77239 0.88221 0.80695 0.0
C2026 C 0.77756 0.88857 0.82584 0.0
C2027 C 0.791 0.86207 0.82992 0.0
C2028 C 0.77636 0.86575 0.79973 0.0
C2029 C 0.78691 0.8785 0.83727 0.0
C2030 C 0.78138 0.79744 0.74645 0.0
C2031 C 0.78868 0.83812 0.80315 0.0
H2032 H 0.83096 0.69654 0.73137 0.0
H2033 H 0.79493 0.73093 0.71317 0.0
H2034 H 0.82004 0.71477 0.70788 0.0
H2035 H 0.79208 0.71137 0.76707 0.0
H2036 H 0.77458 0.90136 0.83165 0.0
H2037 H 0.7981 0.85431 0.83897 0.0
H2038 H 0.77194 0.86067 0.78523 0.0
H2039 H 0.79096 0.88341 0.85182 0.0
Tb2040 Tb 0.55493 0.54035 0.53849 0.0
C2041 C 0.49814 0.4782 0.49867 0.0
N2042 N 0.50709 0.49386 0.49313 0.0
C2043 C 0.51037 0.47776 0.46388 0.0
C2044 C 0.49568 0.46154 0.48723 0.0
C2045 C 0.51259 0.49393 0.47571 0.0
C2046 C 0.50202 0.46147 0.46971 0.0
C2047 C 0.4829 0.46273 0.52241 0.0
C2048 C 0.49166 0.47885 0.51605 0.0
C2049 C 0.48066 0.4461 0.51113 0.0
C2050 C 0.48692 0.44553 0.49356 0.0
Tb2051 Tb 0.50695 0.5195 0.51245 0.0
N2052 N 0.49386 0.49524 0.52662 0.0
C2053 C 0.47641 0.4638 0.53982 0.0
C2054 C 0.48643 0.49639 0.54305 0.0
C2055 C 0.47805 0.48073 0.5501 0.0
H2056 H 0.51797 0.50645 0.4704 0.0
H2057 H 0.47241 0.48178 0.56325 0.0
H2058 H 0.54717 0.55296 0.58233 0.0
H2059 H 0.59789 0.57565 0.49301 0.0
H2060 H 0.48599 0.50925 0.55042 0.0
H2061 H 0.46967 0.45172 0.54522 0.0
H2062 H 0.57975 0.54896 0.5042 0.0
H2063 H 0.5148 0.47794 0.45012 0.0
H2064 H 0.47391 0.43362 0.51579 0.0
H2065 H 0.48491 0.43261 0.48495 0.0
H2066 H 0.55101 0.58123 0.60308 0.0
H2067 H 0.50025 0.44897 0.46046 0.0
H2068 H 0.60178 0.60598 0.51099 0.0
N2069 N 0.5577 0.56571 0.55954 0.0
C2070 C 0.56712 0.58133 0.55439 0.0
C2071 C 0.55526 0.58153 0.58926 0.0
C2072 C 0.57038 0.5978 0.56623 0.0
C2073 C 0.55258 0.56549 0.57713 0.0
C2074 C 0.56395 0.59783 0.58369 0.0
N2075 N 0.5719 0.56421 0.52714 0.0
C2076 C 0.58065 0.5622 0.51165 0.0
C2077 C 0.58536 0.59607 0.53223 0.0
C2078 C 0.57465 0.58051 0.53772 0.0
C2079 C 0.59343 0.59434 0.5157 0.0
C2080 C 0.59123 0.57727 0.50548 0.0
H2081 H 0.56627 0.61017 0.59324 0.0
H2082 H 0.58316 0.62632 0.56948 0.0
H2083 H 0.59616 0.62482 0.53962 0.0
O2084 O 0.57564 0.52558 0.53397 0.0
O2085 O 0.54292 0.5586 0.52067 0.0
O2086 O 0.51173 0.54972 0.5194 0.0
O2087 O 0.5767 0.54368 0.55968 0.0
O2088 O 0.55323 0.5255 0.51046 0.0
O2089 O 0.52719 0.5313 0.49506 0.0
O2090 O 0.47842 0.51459 0.50923 0.0
O2091 O 0.52651 0.50107 0.51962 0.0
O2092 O 0.5411 0.5148 0.54743 0.0
O2093 O 0.49345 0.52317 0.48673 0.0
O2094 O 0.50549 0.5342 0.53997 0.0
O2095 O 0.53318 0.53285 0.55612 0.0
C2096 C 0.52635 0.56218 0.51796 0.0
C2097 C 0.60133 0.52728 0.55739 0.0
C2098 C 0.62499 0.51006 0.55261 0.0
C2099 C 0.63176 0.51413 0.57151 0.0
C2100 C 0.6082 0.53158 0.57627 0.0
C2101 C 0.62344 0.52503 0.58327 0.0
C2102 C 0.60994 0.51677 0.54557 0.0
C2103 C 0.54401 0.52868 0.49514 0.0
C2104 C 0.58422 0.53206 0.55034 0.0
C2105 C 0.58057 0.61353 0.56059 0.0
C2106 C 0.58802 0.61267 0.54361 0.0
C2107 C 0.53488 0.49984 0.53618 0.0
C2108 C 0.46327 0.5281 0.48581 0.0
C2109 C 0.43919 0.54463 0.49224 0.0
C2110 C 0.43301 0.54229 0.47308 0.0
C2111 C 0.45712 0.52608 0.46676 0.0
C2112 C 0.45451 0.53765 0.4985 0.0
C2113 C 0.44209 0.53324 0.46043 0.0
C2114 C 0.5161 0.53496 0.55573 0.0
C2115 C 0.47744 0.51834 0.49209 0.0
H2116 H 0.64355 0.50905 0.57708 0.0
H2117 H 0.60156 0.53959 0.58567 0.0
H2118 H 0.62866 0.5282 0.59784 0.0
H2119 H 0.60466 0.51329 0.53098 0.0
H2120 H 0.42096 0.54713 0.46788 0.0
H2121 H 0.46367 0.51854 0.45684 0.0
H2122 H 0.45942 0.53937 0.51321 0.0
H2123 H 0.43721 0.5314 0.44574 0.0
Tb2124 Tb 1.0083 0.53099 0.03923 0.0
C2125 C 0.07945 0.5671 1.00123 0.0
N2126 N 0.06749 0.55115 0.99645 0.0
C2127 C 0.06782 0.55548 0.96414 0.0
C2128 C 0.08566 0.5782 0.98765 0.0
C2129 C 0.06241 0.54479 0.97814 0.0
C2130 C 0.07928 0.57241 0.96893 0.0
C2131 C 0.10028 0.58705 0.02514 0.0
C2132 C 0.08665 0.57147 0.01963 0.0
C2133 C 0.10592 0.59866 0.01185 0.0
C2134 C 0.0986 0.59426 0.99313 0.0
Tb2135 Tb 0.05906 0.53501 0.02043 0.0
N2136 N 0.08084 0.55987 0.03201 0.0
C2137 C 0.1082 0.59013 0.04369 0.0
C2138 C 0.08928 0.56221 0.0498 0.0
C2139 C 0.10284 0.57749 0.05601 0.0
H2140 H 0.05458 0.53126 0.9743 0.0
H2141 H 0.10924 0.57943 0.07023 0.0
H2142 H 0.01874 0.52528 0.0844 0.0
H2143 H 0.96696 0.48789 0.98169 0.0
H2144 H 0.08573 0.55221 0.05912 0.0
H2145 H 0.11876 0.60191 0.04849 0.0
H2146 H 0.9888 0.51521 0.9964 0.0
H2147 H 0.06347 0.55048 0.94965 0.0
H2148 H 0.11627 0.6108 0.01581 0.0
H2149 H 0.10345 0.60304 0.98292 0.0
H2150 H 1.00973 0.5018 0.10471 0.0
H2151 H 0.08372 0.58053 0.95805 0.0
H2152 H 0.95525 0.4637 1.00079 0.0
N2153 N 1.0028 0.51037 0.06001 0.0
C2154 C 0.99013 0.49532 0.05302 0.0
C2155 C 1.00427 0.49973 0.09016 0.0
C2156 C 0.98434 0.48169 0.0644 0.0
C2157 C 1.00963 0.51293 0.07841 0.0
C2158 C 0.99163 0.48404 0.08313 0.0
N2159 N 0.98996 0.50613 0.02324 0.0
C2160 C 0.98408 0.50456 1.00472 0.0
C2161 C 0.97076 0.47753 0.0264 0.0
C2162 C 0.98331 0.49326 0.03417 0.0
C2163 C 0.96489 0.47562 0.00729 0.0
C2164 C 0.97156 0.4892 0.99643 0.0
H2165 H 0.98751 0.47387 0.09232 0.0
H2166 H 0.96695 0.45555 0.06527 0.0
H2167 H 0.95514 0.45188 0.03209 0.0
O2168 O 0.98365 0.53903 0.03026 0.0
O2169 O 0.0188 0.50542 0.03125 0.0
O2170 O 0.03782 0.51157 0.00852 0.0
O2171 O 0.99189 0.53847 0.05931 0.0
O2172 O 0.01266 0.54338 0.01368 0.0
O2173 O 0.03511 0.531 1.0001 0.0
O2174 O 0.07849 0.52188 0.03405 0.0
O2175 O 0.05359 0.56173 0.03253 0.0
O2176 O 0.02385 0.559 0.04114 0.0
O2177 O 0.07397 0.52007 1.00423 0.0
O2178 O 0.04885 0.52497 0.04509 0.0
O2179 O 0.03109 0.54079 0.06044 0.0
C2180 C 0.02797 0.49988 0.01775 0.0
C2181 C 0.97561 0.56129 0.05141 0.0
C2182 C 0.95452 0.58223 0.04768 0.0
C2183 C 0.96663 0.59555 0.05985 0.0
C2184 C 0.98756 0.57486 0.06357 0.0
C2185 C 0.98305 0.59185 0.06774 0.0
C2186 C 0.95901 0.56506 0.04347 0.0
C2187 C 0.02141 0.53967 0.9994 0.0
C2188 C 0.98023 0.5432 0.04719 0.0
C2189 C 0.97157 0.46614 0.05672 0.0
C2190 C 0.96481 0.46407 0.03781 0.0
C2191 C 0.03986 0.56871 0.03866 0.0
C2192 C 0.10341 0.51853 0.01673 0.0
C2193 C 0.13073 0.50529 0.01601 0.0
C2194 C 0.1391 0.52016 0.00755 0.0
C2195 C 0.11214 0.53345 0.00855 0.0
C2196 C 0.1129 0.50459 0.02076 0.0
C2197 C 0.1299 0.53424 1.00403 0.0
C2198 C 0.04664 0.53551 0.05956 0.0
C2199 C 0.08374 0.51603 0.01839 0.0
H2200 H 0.9633 0.60881 0.06328 0.0
H2201 H 1.00045 0.57237 0.06982 0.0
H2202 H 0.99232 0.60221 0.07712 0.0
H2203 H 0.94966 0.55472 0.0341 0.0
H2204 H 0.15278 0.52086 1.00368 0.0
H2205 H 0.10503 0.54415 1.00498 0.0
H2206 H 0.10616 0.49285 0.02674 0.0
H2207 H 0.1364 0.54563 0.99743 0.0
H2208 H 1.00456 0.20332 0.929 0.0
H2209 H 1.00736 0.17394 0.94005 0.0
H2210 H 0.02008 0.19986 0.99636 0.0
H2211 H 0.0176 0.22928 0.98532 0.0
H2212 H 0.04208 0.17582 0.99054 0.0
H2213 H 0.97194 0.13992 0.96496 0.0
H2214 H 0.98399 0.14997 0.94713 0.0
H2215 H 0.97872 0.16431 0.9663 0.0
C2216 C 1.00787 0.20283 0.94377 0.0
C2217 C 1.01074 0.21897 0.95616 0.0
C2218 C 1.00935 0.18582 0.95017 0.0
C2219 C 0.01362 0.18418 0.96926 0.0
C2220 C 0.0167 0.20036 0.9816 0.0
H2221 H 0.99681 0.07724 0.01569 0.0
H2222 H 0.99413 0.107 0.00541 0.0
C2223 C 0.01524 0.21734 0.97521 0.0
C2224 C 0.01519 0.16586 0.97632 0.0
H2225 H 0.99245 0.12176 0.976 0.0
C2226 C 0.03116 0.16405 0.98734 0.0
C2227 C 1.00098 0.15025 0.97271 0.0
C2228 C 0.98286 0.15116 0.9623 0.0
C2229 C 0.03342 0.14744 0.9944 0.0
C2230 C 0.01949 0.13154 0.9901 0.0
C2231 C 1.00338 0.1335 0.97935 0.0
C2232 C 0.02119 0.11297 0.99664 0.0
C2233 C 0.05066 0.14752 0.00695 0.0
C2234 C 0.03707 0.10556 0.99507 0.0
C2235 C 0.03876 0.08866 1.00142 0.0
C2236 C 0.02444 0.07797 0.00911 0.0
C2237 C 1.00825 0.08493 0.01004 0.0
C2238 C 1.00671 0.10211 1.00404 0.0
H2239 H 0.05649 0.16136 0.01405 0.0
H2240 H 0.04825 0.13812 0.01775 0.0
H2241 H 0.06104 0.14332 0.99843 0.0
H2242 H 0.04827 0.11272 0.98869 0.0
H2243 H 0.05134 0.0838 0.99995 0.0
H2244 H 0.1146 0.82271 0.16329 0.0
H2245 H 0.14331 0.82105 0.18166 0.0
H2246 H 0.14264 0.76845 0.15202 0.0
H2247 H 0.11501 0.77103 0.13257 0.0
H2248 H 0.15279 0.80256 0.20556 0.0
H2249 H 0.19358 0.78612 0.14913 0.0
H2250 H 0.17173 0.79243 0.1443 0.0
H2251 H 0.17328 0.76929 0.14797 0.0
C2252 C 0.12093 0.81106 0.16034 0.0
C2253 C 0.11277 0.79728 0.14604 0.0
C2254 C 0.13734 0.80999 0.17101 0.0
C2255 C 0.14583 0.79481 0.16815 0.0
C2256 C 0.13726 0.7808 0.15414 0.0
H2257 H 0.22456 0.76884 0.25522 0.0
H2258 H 0.19728 0.77165 0.23531 0.0
C2259 C 0.12126 0.78221 0.143 0.0
C2260 C 0.16304 0.79339 0.18031 0.0
H2261 H 0.20512 0.78148 0.17968 0.0
C2262 C 0.16423 0.79809 0.19973 0.0
C2263 C 0.17839 0.78775 0.1731 0.0
C2264 C 0.17926 0.78381 0.15248 0.0
C2265 C 0.17986 0.79719 0.21188 0.0
C2266 C 0.19476 0.79072 0.20473 0.0
C2267 C 0.19373 0.78621 0.18536 0.0
C2268 C 0.21161 0.78884 0.21699 0.0
C2269 C 0.18043 0.80375 0.23225 0.0
C2270 C 0.22911 0.79699 0.21322 0.0
C2271 C 0.24487 0.79528 0.22459 0.0
C2272 C 0.24366 0.78531 0.24009 0.0
C2273 C 0.22615 0.77695 0.24369 0.0
C2274 C 0.21041 0.7786 0.23228 0.0
H2275 H 0.1709 0.81326 0.23449 0.0
H2276 H 0.17626 0.79194 0.24 0.0
H2277 H 0.19437 0.81075 0.23822 0.0
H2278 H 0.23062 0.80488 0.20153 0.0
H2279 H 0.25803 0.80191 0.22128 0.0
H2280 H 0.52386 0.84364 0.43201 0.0
H2281 H 0.52666 0.87418 0.44704 0.0
H2282 H 0.51222 0.85303 0.49785 0.0
H2283 H 0.50863 0.82167 0.48239 0.0
H2284 H 0.49568 0.88166 0.49233 0.0
H2285 H 0.56747 0.90395 0.48131 0.0
H2286 H 0.55408 0.89521 0.45956 0.0
H2287 H 0.55646 0.88036 0.47741 0.0
C2288 C 0.5214 0.84517 0.44648 0.0
C2289 C 0.51617 0.8297 0.45586 0.0
C2290 C 0.52317 0.86297 0.45519 0.0
C2291 C 0.52016 0.86638 0.47388 0.0
C2292 C 0.51486 0.85105 0.48347 0.0
H2293 H 0.55683 0.98011 0.52579 0.0
H2294 H 0.55315 0.94744 0.5168 0.0
C2295 C 0.51294 0.83299 0.47463 0.0
C2296 C 0.52225 0.88593 0.48282 0.0
H2297 H 0.55065 0.92773 0.48719 0.0
C2298 C 0.50782 0.89166 0.49137 0.0
C2299 C 0.53812 0.8993 0.48208 0.0
C2300 C 0.55497 0.89435 0.47479 0.0
C2301 C 0.50858 0.9101 0.49849 0.0
C2302 C 0.524 0.92369 0.49662 0.0
C2303 C 0.53861 0.91777 0.48857 0.0
C2304 C 0.52561 0.94391 0.50308 0.0
C2305 C 0.49288 0.91459 0.50837 0.0
C2306 C 0.51151 0.95353 0.49862 0.0
C2307 C 0.51352 0.9724 0.50417 0.0
C2308 C 0.52985 0.98252 0.51401 0.0
C2309 C 0.54399 0.97297 0.51829 0.0
C2310 C 0.54188 0.95409 0.51304 0.0
H2311 H 0.48575 0.90258 0.51435 0.0
H2312 H 0.49751 0.92584 0.51977 0.0
H2313 H 0.48281 0.91873 0.49822 0.0
H2314 H 0.49902 0.9466 0.49038 0.0
H2315 H 0.50245 0.97916 0.50015 0.0
H2316 H 0.52266 0.28226 0.66203 0.0
H2317 H 0.49707 0.28066 0.68088 0.0
H2318 H 0.46558 0.30051 0.63717 0.0
H2319 H 0.49061 0.30104 0.61794 0.0
H2320 H 0.47846 0.30277 0.69614 0.0
H2321 H 0.43016 0.25665 0.64267 0.0
H2322 H 0.45413 0.26244 0.64034 0.0
H2323 H 0.43899 0.27753 0.63391 0.0
C2324 C 0.51027 0.28631 0.65647 0.0
C2325 C 0.50861 0.29154 0.63835 0.0
C2326 C 0.49561 0.28538 0.66726 0.0
C2327 C 0.47901 0.28988 0.6603 0.0
C2328 C 0.47782 0.29618 0.64265 0.0
H2329 H 0.37306 0.29022 0.70039 0.0
H2330 H 0.40145 0.29775 0.68603 0.0
C2331 C 0.49227 0.29667 0.6317 0.0
C2332 C 0.46292 0.28775 0.67128 0.0
H2333 H 0.4173 0.26975 0.66807 0.0
C2334 C 0.46513 0.29545 0.68999 0.0
C2335 C 0.44541 0.27806 0.66345 0.0
C2336 C 0.44207 0.26804 0.64407 0.0
C2337 C 0.45038 0.29406 0.70082 0.0
C2338 C 0.43287 0.2848 0.69278 0.0
C2339 C 0.43066 0.27707 0.67417 0.0
C2340 C 0.41665 0.28246 0.7034 0.0
C2341 C 0.45355 0.30274 0.72072 0.0
C2342 C 0.41577 0.2716 0.71817 0.0
C2343 C 0.39953 0.26728 0.72635 0.0
C2344 C 0.38392 0.27384 0.71999 0.0
C2345 C 0.385 0.28527 0.70574 0.0
C2346 C 0.40118 0.28949 0.69748 0.0
H2347 H 0.46667 0.31261 0.72363 0.0
H2348 H 0.44228 0.30983 0.72399 0.0
H2349 H 0.45392 0.292 0.73017 0.0
H2350 H 0.42735 0.26571 0.72277 0.0
H2351 H 0.39891 0.25815 0.73707 0.0
H2352 H 0.01772 0.82717 0.68808 0.0
H2353 H 0.01788 0.85132 0.66777 0.0
H2354 H 0.03714 0.81825 0.62501 0.0
H2355 H 0.03582 0.7936 0.6449 0.0
H2356 H 0.04369 0.87109 0.65566 0.0
H2357 H 1.00045 0.8351 0.59261 0.0
H2358 H 1.00228 0.82488 0.61403 0.0
H2359 H 0.01938 0.82434 0.59823 0.0
C2360 C 0.02169 0.82493 0.67422 0.0
C2361 C 0.02661 0.80839 0.66807 0.0
C2362 C 0.02182 0.83879 0.66258 0.0
C2363 C 0.0272 0.83667 0.64457 0.0
C2364 C 0.03225 0.82015 0.63847 0.0
H2365 H 0.06209 0.91508 0.56825 0.0
H2366 H 0.05405 0.88739 0.58361 0.0
C2367 C 0.03166 0.80606 0.64995 0.0
C2368 C 0.02871 0.85223 0.6329 0.0
H2369 H 0.01852 0.86406 0.58917 0.0
C2370 C 0.03793 0.86949 0.6412 0.0
C2371 C 0.02131 0.85037 0.61391 0.0
C2372 C 1.01015 0.83271 0.60425 0.0
C2373 C 0.0402 0.88469 0.63113 0.0
C2374 C 0.03314 0.88272 0.61213 0.0
C2375 C 0.02394 0.86555 0.60373 0.0
C2376 C 0.0357 0.89836 0.60081 0.0
C2377 C 0.05048 0.90274 0.64085 0.0
C2378 C 0.02751 0.91347 0.60482 0.0
C2379 C 0.03198 0.9292 0.59594 0.0
C2380 C 0.04463 0.93006 0.58283 0.0
C2381 C 0.05207 0.91462 0.5781 0.0
C2382 C 0.04755 0.89885 0.58692 0.0
H2383 H 0.05795 0.90128 0.65442 0.0
H2384 H 0.06037 0.90937 0.63196 0.0
H2385 H 0.0407 0.91187 0.6435 0.0
H2386 H 0.01823 0.91335 0.61537 0.0
H2387 H 0.0263 0.94104 0.60002 0.0
H2388 H 0.49836 0.7965 0.8212 0.0
H2389 H 0.4664 0.79345 0.80769 0.0
H2390 H 0.45285 0.81542 0.86029 0.0
H2391 H 0.48483 0.81931 0.87345 0.0
H2392 H 0.429 0.77954 0.84182 0.0
H2393 H 0.43536 0.83496 0.7958 0.0
H2394 H 0.45233 0.82076 0.79679 0.0
H2395 H 0.45071 0.83607 0.81678 0.0
C2396 C 0.48878 0.80143 0.82966 0.0
C2397 C 0.4946 0.80898 0.84826 0.0
C2398 C 0.4703 0.79938 0.82199 0.0
C2399 C 0.45689 0.80428 0.83282 0.0
C2400 C 0.46269 0.8116 0.85143 0.0
H2401 H 0.34331 0.81732 0.80518 0.0
H2402 H 0.37595 0.82096 0.81533 0.0
C2403 C 0.48113 0.81391 0.85897 0.0
C2404 C 0.43681 0.80124 0.82519 0.0
H2405 H 0.4061 0.8176 0.79614 0.0
C2406 C 0.42407 0.78781 0.83173 0.0
C2407 C 0.42999 0.81199 0.81212 0.0
C2408 C 0.44269 0.82686 0.80488 0.0
C2409 C 0.40509 0.78487 0.82561 0.0
C2410 C 0.39827 0.79565 0.81249 0.0
C2411 C 0.41102 0.80917 0.80607 0.0
C2412 C 0.37806 0.79342 0.80565 0.0
C2413 C 0.3924 0.77048 0.83366 0.0
C2414 C 0.36789 0.77685 0.79644 0.0
C2415 C 0.34911 0.77491 0.79018 0.0
C2416 C 0.33973 0.78948 0.79285 0.0
C2417 C 0.34992 0.80597 0.80221 0.0
C2418 C 0.36873 0.808 0.80825 0.0
H2419 H 0.39886 0.7666 0.84672 0.0
H2420 H 0.37965 0.7752 0.83658 0.0
H2421 H 0.3887 0.75812 0.82344 0.0
H2422 H 0.37451 0.76535 0.79388 0.0
H2423 H 0.34196 0.76191 0.78314 0.0
H2424 H 0.52628 0.22168 0.13674 0.0
H2425 H 0.52847 0.19458 0.11645 0.0
H2426 H 0.50689 0.16076 0.157 0.0
H2427 H 0.5045 0.18814 0.17736 0.0
H2428 H 0.53682 0.14955 0.14339 0.0
H2429 H 0.48915 0.15884 0.08338 0.0
H2430 H 0.50594 0.1787 0.0923 0.0
H2431 H 0.48916 0.16929 0.10674 0.0
C2432 C 0.52133 0.20848 0.14108 0.0
C2433 C 0.51441 0.20715 0.15837 0.0
C2434 C 0.52275 0.19288 0.12946 0.0
C2435 C 0.51747 0.17537 0.13483 0.0
C2436 C 0.5109 0.174 0.15231 0.0
H2437 H 0.50752 0.06501 0.07877 0.0
H2438 H 0.50589 0.09201 0.09986 0.0
C2439 C 0.50943 0.18968 0.16394 0.0
C2440 C 0.51934 0.15865 0.12245 0.0
H2441 H 0.50644 0.13602 0.07858 0.0
C2442 C 0.53007 0.14659 0.12928 0.0
C2443 C 0.51068 0.15455 0.10389 0.0
C2444 C 0.49795 0.16593 0.09605 0.0
C2445 C 0.53242 0.13092 0.11808 0.0
C2446 C 0.52379 0.12704 0.09957 0.0
C2447 C 0.51316 0.13903 0.09272 0.0
C2448 C 0.52536 0.11045 0.08717 0.0
C2449 C 0.54435 0.11868 0.12591 0.0
C2450 C 0.53674 0.11177 0.07287 0.0
C2451 C 0.53784 0.0963 0.06089 0.0
C2452 C 0.52734 0.07913 0.06267 0.0
C2453 C 0.51583 0.07793 0.07695 0.0
C2454 C 0.51491 0.09337 0.08907 0.0
H2455 H 0.55124 0.12419 0.14003 0.0
H2456 H 0.53595 0.10508 0.12668 0.0
H2457 H 0.55486 0.11678 0.11649 0.0
H2458 H 0.54489 0.12478 0.07105 0.0
H2459 H 0.54713 0.09782 0.05036 0.0
H2460 H 0.09004 0.32011 0.31553 0.0
H2461 H 0.1188 0.3148 0.30503 0.0
H2462 H 0.13396 0.29709 0.35809 0.0
H2463 H 0.10465 0.30139 0.36824 0.0
H2464 H 0.15209 0.32762 0.31235 0.0
H2465 H 0.14753 0.25683 0.32871 0.0
H2466 H 0.12872 0.26853 0.33041 0.0
H2467 H 0.14697 0.27181 0.34919 0.0
C2468 C 0.09939 0.31497 0.32503 0.0
C2469 C 0.09463 0.31114 0.34284 0.0
C2470 C 0.11606 0.31193 0.31894 0.0
C2471 C 0.1289 0.30503 0.33039 0.0
C2472 C 0.12437 0.30168 0.34841 0.0
H2473 H 0.24498 0.30252 0.31943 0.0
H2474 H 0.21552 0.30613 0.32981 0.0
C2475 C 0.10751 0.30441 0.3544 0.0
C2476 C 0.14694 0.30185 0.32355 0.0
H2477 H 0.17642 0.27158 0.32123 0.0
C2478 C 0.15718 0.31525 0.31428 0.0
C2479 C 0.15407 0.28569 0.32562 0.0
C2480 C 0.14366 0.26983 0.33383 0.0
C2481 C 0.17399 0.31315 0.30761 0.0
C2482 C 0.18128 0.29733 0.31024 0.0
C2483 C 0.17111 0.28385 0.31929 0.0
C2484 C 0.19944 0.29473 0.30375 0.0
C2485 C 0.18404 0.32796 0.29774 0.0
C2486 C 0.20063 0.28713 0.2855 0.0
C2487 C 0.21763 0.28513 0.27941 0.0
C2488 C 0.23411 0.29051 0.29138 0.0
C2489 C 0.2328 0.29812 0.30966 0.0
C2490 C 0.21583 0.30016 0.31571 0.0
H2491 H 0.1768 0.33954 0.29674 0.0
H2492 H 0.19789 0.33307 0.30522 0.0
H2493 H 0.18574 0.32232 0.28346 0.0
H2494 H 0.18836 0.28286 0.27584 0.0
H2495 H 0.21785 0.27964 0.26518 0.0
H2496 H 0.9776 0.03633 0.22664 0.0
H2497 H 0.9899 0.0399 0.19689 0.0
H2498 H 0.93882 0.01064 0.16774 0.0
H2499 H 0.92625 1.00757 0.19748 0.0
H2500 H 0.99639 0.01626 0.17056 0.0
H2501 H 0.94609 0.05319 0.13859 0.0
H2502 H 0.94732 0.04945 0.16283 0.0
H2503 H 0.93558 0.03173 0.14518 0.0
C2504 C 0.9689 0.03078 0.2139 0.0
C2505 C 0.95085 0.02177 0.21454 0.0
C2506 C 0.97599 0.03281 0.19682 0.0
C2507 C 0.96528 0.02587 0.17984 0.0
C2508 C 0.9473 0.01665 0.18047 0.0
H2509 H 1.00116 1.00235 0.07131 0.0
H2510 H 0.98963 1.00176 0.1017 0.0
C2511 C 0.94013 0.01477 0.19757 0.0
C2512 C 0.97317 0.0278 0.16164 0.0
H2513 H 0.96595 0.04204 0.11845 0.0
C2514 C 0.98972 0.02199 0.15925 0.0
C2515 C 0.96473 0.03549 0.14676 0.0
C2516 C 0.94755 0.04299 0.1485 0.0
C2517 C 0.99769 0.02321 0.14245 0.0
C2518 C 0.98893 0.03032 0.12745 0.0
C2519 C 0.97263 0.03649 0.12989 0.0
C2520 C 0.99621 0.03089 0.10896 0.0
C2521 C 0.01555 0.01699 0.14084 0.0
C2522 C 1.00374 0.04749 0.10274 0.0
C2523 C 1.01036 0.04788 0.08523 0.0
C2524 C 1.00932 0.03169 0.07344 0.0
C2525 C 1.00183 0.01513 0.07979 0.0
C2526 C 0.99538 0.01473 0.09729 0.0
H2527 H 0.02216 0.01476 0.15456 0.0
H2528 H 0.0131 1.00401 0.13155 0.0
H2529 H 0.02507 0.02716 0.13455 0.0
H2530 H 1.00455 0.06016 0.11147 0.0
H2531 H 0.01603 0.06086 0.08079 0.0
H2532 H 0.27955 0.68247 0.51343 0.0
H2533 H 0.28244 0.70252 0.48879 0.0
H2534 H 0.28025 0.65624 0.44829 0.0
H2535 H 0.27717 0.63602 0.47263 0.0
H2536 H 0.30813 0.706 0.45792 0.0
H2537 H 0.23415 0.68051 0.43585 0.0
H2538 H 0.24483 0.67832 0.45867 0.0
H2539 H 0.24749 0.66318 0.43892 0.0
C2540 C 0.27998 0.67658 0.49933 0.0
C2541 C 0.27793 0.65766 0.49488 0.0
C2542 C 0.28174 0.68806 0.48537 0.0
C2543 C 0.28152 0.6807 0.46694 0.0
C2544 C 0.28043 0.662 0.46257 0.0
H2545 H 0.26549 0.70575 0.35802 0.0
H2546 H 0.27928 0.69594 0.38641 0.0
C2547 C 0.27856 0.65051 0.47645 0.0
C2548 C 0.28016 0.69208 0.45185 0.0
H2549 H 0.25075 0.69789 0.41538 0.0
C2550 C 0.2956 0.70446 0.44865 0.0
C2551 C 0.26366 0.69001 0.44015 0.0
C2552 C 0.24652 0.67741 0.4436 0.0
C2553 C 0.29509 0.71434 0.43322 0.0
C2554 C 0.27882 0.71153 0.42108 0.0
C2555 C 0.26325 0.6997 0.42476 0.0
C2556 C 0.27721 0.72018 0.40399 0.0
C2557 C 0.31185 0.72726 0.42961 0.0
C2558 C 0.27216 0.73724 0.40465 0.0
C2559 C 0.26421 0.74274 0.38855 0.0
C2560 C 0.26115 0.73106 0.37191 0.0
C2561 C 0.26758 0.7147 0.37093 0.0
C2562 C 0.27566 0.70928 0.38696 0.0
H2563 H 0.32352 0.72782 0.44042 0.0
H2564 H 0.31587 0.72301 0.41578 0.0
H2565 H 0.30877 0.74112 0.42921 0.0
H2566 H 0.273 0.74556 0.41783 0.0
H2567 H 0.25944 0.75553 0.3893 0.0
H2568 H 0.67757 0.04276 0.6929 0.0
H2569 H 0.66028 0.04079 0.66204 0.0
H2570 H 0.61006 0.02517 0.68588 0.0
H2571 H 0.62693 0.02684 0.71644 0.0
H2572 H 0.62361 1.00345 0.64851 0.0
H2573 H 0.61606 0.07613 0.65294 0.0
H2574 H 0.63653 0.0694 0.66282 0.0
H2575 H 0.61603 0.06476 0.67375 0.0
C2576 C 0.66287 0.03867 0.69145 0.0
C2577 C 0.65354 0.03484 0.70693 0.0
C2578 C 0.65311 0.03769 0.67397 0.0
C2579 C 0.63409 0.033 0.67209 0.0
C2580 C 0.62481 0.02885 0.68737 0.0
H2581 H 0.54514 0.03917 0.59259 0.0
H2582 H 0.56448 0.03731 0.62101 0.0
C2583 C 0.63448 0.0297 0.70471 0.0
C2584 C 0.62344 0.03199 0.65416 0.0
H2585 H 0.59775 0.05591 0.62886 0.0
C2586 C 0.61808 0.01489 0.64392 0.0
C2587 C 0.6162 0.04699 0.64886 0.0
C2588 C 0.62146 0.06543 0.66008 0.0
C2589 C 0.60492 0.01216 0.62854 0.0
C2590 C 0.59753 0.02717 0.62317 0.0
C2591 C 0.60335 0.04443 0.63321 0.0
C2592 C 0.58436 0.02553 0.60665 0.0
C2593 C 0.59866 0.99315 0.61872 0.0
C2594 C 0.58892 0.01898 0.58944 0.0
C2595 C 0.57748 0.01913 0.57342 0.0
C2596 C 0.56173 0.02676 0.57422 0.0
C2597 C 0.55688 0.03286 0.59154 0.0
C2598 C 0.56808 0.03207 0.60773 0.0
H2599 H 0.60061 0.98274 0.62824 0.0
H2600 H 0.58407 0.99068 0.613 0.0
H2601 H 0.60695 0.9912 0.60708 0.0
H2602 H 0.60171 0.01444 0.58826 0.0
H2603 H 0.58161 0.0142 0.56029 0.0
H2604 H 0.26603 0.35444 0.98032 0.0
H2605 H 0.26168 0.33716 0.94917 0.0
H2606 H 0.31925 0.35249 0.94506 0.0
H2607 H 0.32359 0.36896 0.97618 0.0
H2608 H 0.26713 0.34957 0.91649 0.0
H2609 H 0.31199 0.29984 0.92689 0.0
H2610 H 0.30538 0.31317 0.94614 0.0
H2611 H 0.32411 0.32259 0.93399 0.0
C2612 C 0.27779 0.35353 0.97296 0.0
C2613 C 0.2952 0.36282 0.98079 0.0
C2614 C 0.2753 0.34384 0.95507 0.0
C2615 C 0.29017 0.3432 0.9447 0.0
C2616 C 0.30759 0.35226 0.95279 0.0
H2617 H 0.31021 0.31473 0.83141 0.0
H2618 H 0.31121 0.32564 0.86429 0.0
C2619 C 0.31006 0.36184 0.97061 0.0
C2620 C 0.2875 0.33424 0.92504 0.0
H2621 H 0.30427 0.30504 0.89517 0.0
C2622 C 0.27508 0.33964 0.91192 0.0
C2623 C 0.2978 0.32121 0.91889 0.0
C2624 C 0.31041 0.31373 0.93227 0.0
C2625 C 0.27323 0.33297 0.89288 0.0
C2626 C 0.28399 0.32045 0.88667 0.0
C2627 C 0.29612 0.31475 0.89982 0.0
C2628 C 0.28325 0.31344 0.86657 0.0
C2629 C 0.26009 0.33978 0.87948 0.0
C2630 C 0.26727 0.30275 0.85677 0.0
C2631 C 0.26687 0.29603 0.83798 0.0
C2632 C 0.28242 0.2999 0.82848 0.0
C2633 C 0.29824 0.31087 0.83831 0.0
C2634 C 0.29875 0.31734 0.85714 0.0
H2635 H 0.25612 0.35241 0.88553 0.0
H2636 H 0.26605 0.34245 0.86634 0.0
H2637 H 0.24756 0.32919 0.87605 0.0
H2638 H 0.25514 0.29942 0.86369 0.0
H2639 H 0.25435 0.28773 0.83093 0.0
H2640 H 0.93233 0.03743 0.33769 0.0
H2641 H 0.94931 0.0391 0.36828 0.0
H2642 H 0.98874 0.0118 0.34395 0.0
H2643 H 0.97185 0.01044 0.31295 0.0
H2644 H 0.95438 0.01061 0.38616 0.0
H2645 H 0.02209 0.05166 0.37879 0.0
H2646 H 1.00244 0.05047 0.36201 0.0
H2647 H 0.01481 0.0321 0.36185 0.0
C2648 C 0.94481 0.03205 0.33872 0.0
C2649 C 0.9507 0.02378 0.32278 0.0
C2650 C 0.95451 0.03299 0.35631 0.0
C2651 C 0.97041 0.02566 0.35858 0.0
C2652 C 0.97673 0.0179 0.34262 0.0
H2653 H 0.03618 0.01434 0.46286 0.0
H2654 H 0.02401 0.01258 0.43005 0.0
C2655 C 0.96705 0.0171 0.32486 0.0
C2656 C 0.97927 0.02504 0.37785 0.0
H2657 H 0.01885 0.03895 0.40723 0.0
C2658 C 0.96849 0.01683 0.39071 0.0
C2659 C 0.99774 0.03297 0.38388 0.0
C2660 C 1.00994 0.04244 0.37099 0.0
C2661 C 0.97551 0.01643 0.4093 0.0
C2662 C 0.99384 0.02478 0.4155 0.0
C2663 C 1.0048 0.03259 0.40256 0.0
C2664 C 1.00155 0.02603 0.43547 0.0
C2665 C 0.9632 1.00687 0.42208 0.0
C2666 C 0.99327 0.03446 0.44954 0.0
C2667 C 0.99997 0.03514 0.46832 0.0
C2668 C 0.01533 0.02763 0.4736 0.0
C2669 C 0.02405 0.01981 0.45944 0.0
C2670 C 0.0172 0.01895 0.44061 0.0
H2671 H 0.95196 0.99658 0.41413 0.0
H2672 H 0.97091 1.00001 0.43216 0.0
H2673 H 0.95694 0.01699 0.43001 0.0
H2674 H 0.98155 0.04054 0.44602 0.0
H2675 H 0.99301 0.04157 0.4787 0.0
H2676 H 0.29857 0.68849 0.59155 0.0
H2677 H 0.29931 0.70553 0.62174 0.0
H2678 H 0.27159 0.65744 0.64264 0.0
H2679 H 0.27042 0.64012 0.61205 0.0
H2680 H 0.25581 0.68939 0.6483 0.0
H2681 H 0.3301 0.7028 0.6709 0.0
H2682 H 0.32469 0.70729 0.64736 0.0
H2683 H 0.31909 0.68446 0.65343 0.0
C2684 C 0.29292 0.68139 0.60262 0.0
C2685 C 0.28445 0.66299 0.59953 0.0
C2686 C 0.29339 0.69115 0.61984 0.0
C2687 C 0.28566 0.6826 0.63428 0.0
C2688 C 0.27767 0.66411 0.63152 0.0
H2689 H 0.30271 0.74097 0.74295 0.0
H2690 H 0.30045 0.71871 0.71629 0.0
C2691 C 0.27713 0.65428 0.61417 0.0
C2692 C 0.28515 0.69356 0.65183 0.0
H2693 H 0.31289 0.72285 0.68532 0.0
C2694 C 0.26821 0.69649 0.65672 0.0
C2695 C 0.3014 0.70261 0.66257 0.0
C2696 C 0.31985 0.69901 0.65842 0.0
C2697 C 0.26713 0.70883 0.67202 0.0
C2698 C 0.28349 0.71874 0.68211 0.0
C2699 C 0.30038 0.71538 0.67739 0.0
C2700 C 0.28365 0.73203 0.69826 0.0
C2701 C 0.24858 0.71102 0.67724 0.0
C2702 C 0.27496 0.74699 0.69691 0.0
C2703 C 0.27571 0.75958 0.71247 0.0
C2704 C 0.28561 0.75754 0.72926 0.0
C2705 C 0.29488 0.74293 0.73023 0.0
C2706 C 0.29361 0.73013 0.715 0.0
H2707 H 0.23798 0.69892 0.6717 0.0
H2708 H 0.24864 0.71324 0.69258 0.0
H2709 H 0.24466 0.72296 0.67116 0.0
H2710 H 0.26769 0.74896 0.68387 0.0
H2711 H 0.26849 0.77075 0.71141 0.0
H2712 H 0.68523 0.04831 0.83354 0.0
H2713 H 0.66564 0.04575 0.85851 0.0
H2714 H 0.61799 0.03642 0.8181 0.0
H2715 H 0.63728 0.03857 0.79302 0.0
H2716 H 0.642 0.06985 0.86327 0.0
H2717 H 0.6046 0.99828 0.8538 0.0
H2718 H 0.62569 1.00538 0.84408 0.0
H2719 H 0.60458 0.00937 0.83292 0.0
C2720 C 0.67059 0.04534 0.82994 0.0
C2721 C 0.66278 0.0437 0.81135 0.0
C2722 C 0.65947 0.04381 0.84418 0.0
C2723 C 0.6405 0.04056 0.83997 0.0
C2724 C 0.63264 0.03843 0.82147 0.0
H2725 H 0.55111 0.05958 0.8982 0.0
H2726 H 0.57032 0.04984 0.87521 0.0
C2727 C 0.64371 0.03988 0.80721 0.0
C2728 C 0.62897 0.04195 0.85494 0.0
H2729 H 0.59252 0.01951 0.87344 0.0
C2730 C 0.63136 0.05879 0.86573 0.0
C2731 C 0.61503 0.02749 0.85772 0.0
C2732 C 0.61238 0.00905 0.84662 0.0
C2733 C 0.6198 0.06173 0.87912 0.0
C2734 C 0.60576 0.04732 0.88182 0.0
C2735 C 0.60341 0.03041 0.87118 0.0
C2736 C 0.59331 0.04998 0.89562 0.0
C2737 C 0.62235 0.08033 0.88994 0.0
C2738 C 0.59999 0.05281 0.91448 0.0
C2739 C 0.58937 0.05882 0.92747 0.0
C2740 C 0.57177 0.06172 0.92176 0.0
C2741 C 0.56475 0.05779 0.9029 0.0
C2742 C 0.57553 0.05199 0.88985 0.0
H2743 H 0.63157 0.09078 0.88366 0.0
H2744 H 0.60904 0.08469 0.89069 0.0
H2745 H 0.6284 0.07978 0.90438 0.0
H2746 H 0.61377 0.05129 0.91901 0.0
H2747 H 0.5953 0.06193 0.94186 0.0
H2748 H 0.30957 0.34639 0.08291 0.0
H2749 H 0.30682 0.33415 0.11297 0.0
H2750 H 0.2736 0.37303 0.12841 0.0
H2751 H 0.27694 0.38581 0.09853 0.0
H2752 H 0.31521 0.35722 0.15267 0.0
H2753 H 0.24493 0.31724 0.13287 0.0
H2754 H 0.26015 0.32367 0.11575 0.0
H2755 H 0.24961 0.34041 0.12738 0.0
C2756 C 0.30173 0.35237 0.09275 0.0
C2757 C 0.29349 0.36706 0.08839 0.0
C2758 C 0.30019 0.34538 0.10993 0.0
C2759 C 0.28993 0.35258 0.12295 0.0
C2760 C 0.2816 0.36724 0.11861 0.0
H2761 H 0.26669 0.32523 0.23449 0.0
H2762 H 0.26845 0.33914 0.2052 0.0
C2763 C 0.28355 0.37457 0.10158 0.0
C2764 C 0.28794 0.34466 0.14098 0.0
H2765 H 0.25825 0.31658 0.16354 0.0
C2766 C 0.30274 0.34838 0.15506 0.0
C2767 C 0.27172 0.33303 0.14411 0.0
C2768 C 0.25565 0.32818 0.12926 0.0
C2769 C 0.30167 0.34091 0.17214 0.0
C2770 C 0.28547 0.32925 0.17523 0.0
C2771 C 0.27065 0.32556 0.1612 0.0
C2772 C 0.28394 0.3205 0.19283 0.0
C2773 C 0.31782 0.34552 0.18692 0.0
C2774 C 0.29191 0.3053 0.19559 0.0
C2775 C 0.29076 0.2972 0.21221 0.0
C2776 C 0.28177 0.30425 0.22658 0.0
C2777 C 0.27376 0.31948 0.22376 0.0
C2778 C 0.27472 0.32743 0.20701 0.0
H2779 H 0.32867 0.35629 0.18327 0.0
H2780 H 0.31344 0.35012 0.20046 0.0
H2781 H 0.32364 0.33315 0.18879 0.0
H2782 H 0.2991 0.29971 0.18487 0.0
H2783 H 0.29718 0.28557 0.21391 0.0
H2784 H 0.23958 0.92154 0.99303 0.0
H2785 H 0.20898 0.92827 0.99471 0.0
H2786 H 0.23188 0.98576 1.00277 0.0
H2787 H 0.2621 0.97915 1.00001 0.0
H2788 H 0.19736 0.9442 0.02312 0.0
H2789 H 0.1901 0.9858 0.9652 0.0
H2790 H 0.20758 0.97219 0.96722 0.0
H2791 H 0.21114 0.99475 0.97949 0.0
C2792 C 0.23791 0.93559 0.99488 0.0
C2793 C 0.25297 0.94988 0.99626 0.0
C2794 C 0.22053 0.93939 0.99572 0.0
C2795 C 0.21818 0.95749 0.99822 0.0
C2796 C 0.23333 0.97173 0.99994 0.0
H2797 H 0.16266 0.02226 0.05516 0.0
H2798 H 0.18162 1.00647 0.03627 0.0
C2799 C 0.25059 0.96795 0.99863 0.0
C2800 C 0.20031 0.96169 1.00123 0.0
H2801 H 0.1737 0.99269 0.99205 0.0
C2802 C 0.19175 0.95429 0.01588 0.0
C2803 C 0.19306 0.9748 0.99166 0.0
C2804 C 0.2009 0.98215 0.97489 0.0
C2805 C 0.17704 0.96093 0.02236 0.0
C2806 C 0.17101 0.97528 0.01396 0.0
C2807 C 0.17857 0.9817 0.9984 0.0
C2808 C 0.15911 0.98564 0.02315 0.0
C2809 C 0.16893 0.95365 0.03904 0.0
C2810 C 0.14033 0.97907 0.0216 0.0
C2811 C 0.12954 0.98799 0.03239 0.0
C2812 C 0.13758 1.00339 0.04486 0.0
C2813 C 0.15632 0.01022 0.04587 0.0
C2814 C 0.16704 1.00138 0.035 0.0
H2815 H 0.17517 0.94233 0.04386 0.0
H2816 H 0.17085 0.96471 0.05069 0.0
H2817 H 0.15404 0.94868 0.03548 0.0
H2818 H 0.13419 0.96683 0.0125 0.0
H2819 H 0.11506 0.98256 0.03143 0.0
H2820 H 0.73209 0.63114 0.02093 0.0
H2821 H 0.70302 0.61042 0.02049 0.0
H2822 H 0.67506 0.65044 0.99809 0.0
H2823 H 0.70452 0.67044 0.99684 0.0
H2824 H 0.6764 0.61223 0.03833 0.0
H2825 H 0.64865 0.60839 0.96443 0.0
H2826 H 0.67161 0.61961 0.97287 0.0
H2827 H 0.6529 0.63128 0.97552 0.0
C2828 C 0.71978 0.63518 0.01518 0.0
C2829 C 0.72062 0.65194 0.00792 0.0
C2830 C 0.70308 0.62345 0.01523 0.0
C2831 C 0.68666 0.62849 0.00874 0.0
C2832 C 0.68745 0.64574 1.00237 0.0
H2833 H 0.57227 0.58117 0.00837 0.0
H2834 H 0.60167 0.60002 0.00576 0.0
C2835 C 0.70427 0.65729 1.00186 0.0
C2836 C 0.66885 0.6161 0.00979 0.0
H2837 H 0.62788 0.59632 0.98506 0.0
C2838 C 0.66589 0.60866 0.02658 0.0
C2839 C 0.65494 0.61137 0.99457 0.0
C2840 C 0.65724 0.61795 0.97578 0.0
C2841 C 0.64948 0.59704 0.02871 0.0
C2842 C 0.63555 0.59245 0.01353 0.0
C2843 C 0.63849 0.59982 0.99673 0.0
C2844 C 0.61762 0.58053 0.01489 0.0
C2845 C 0.64712 0.59028 0.04744 0.0
C2846 C 0.61659 0.56308 0.02067 0.0
C2847 C 0.59971 0.5524 0.02271 0.0
C2848 C 0.58336 0.55856 0.0183 0.0
C2849 C 0.58445 0.5758 0.01187 0.0
C2850 C 0.60133 0.58665 0.0103 0.0
H2851 H 0.65654 0.59905 0.05876 0.0
H2852 H 0.63293 0.58968 0.05087 0.0
H2853 H 0.65026 0.5764 0.04715 0.0
H2854 H 0.62887 0.55774 0.02378 0.0
H2855 H 0.59962 0.53947 0.02801 0.0
H2856 H 0.64945 0.48772 0.30981 0.0
H2857 H 0.6636 0.46068 0.30578 0.0
H2858 H 0.69447 0.48491 0.26424 0.0
H2859 H 0.68034 0.51178 0.26824 0.0
H2860 H 0.6657 0.43633 0.27276 0.0
H2861 H 0.73349 0.47478 0.3045 0.0
H2862 H 0.71264 0.48311 0.30704 0.0
H2863 H 0.72307 0.4849 0.28584 0.0
C2864 C 0.65885 0.48694 0.29946 0.0
C2865 C 0.66358 0.50153 0.28903 0.0
C2866 C 0.66704 0.47163 0.29728 0.0
C2867 C 0.68029 0.47094 0.28493 0.0
C2868 C 0.68447 0.48528 0.27403 0.0
H2869 H 0.74953 0.39786 0.24874 0.0
H2870 H 0.73555 0.42421 0.25706 0.0
C2871 C 0.67624 0.50048 0.27613 0.0
C2872 C 0.6901 0.45549 0.28365 0.0
H2873 H 0.73256 0.44496 0.28991 0.0
C2874 C 0.68028 0.43814 0.27666 0.0
C2875 C 0.70913 0.45794 0.28876 0.0
C2876 C 0.72023 0.47614 0.29712 0.0
C2877 C 0.68909 0.42327 0.274 0.0
C2878 C 0.70819 0.42575 0.2789 0.0
C2879 C 0.71795 0.44307 0.28618 0.0
C2880 C 0.71832 0.41067 0.27585 0.0
C2881 C 0.67794 0.4052 0.26532 0.0
C2882 C 0.7139 0.39462 0.2843 0.0
C2883 C 0.72184 0.37962 0.27952 0.0
C2884 C 0.73457 0.38057 0.26652 0.0
C2885 C 0.7399 0.39696 0.25899 0.0
C2886 C 0.73186 0.41194 0.26366 0.0
H2887 H 0.66459 0.40668 0.25823 0.0
H2888 H 0.68538 0.39849 0.25505 0.0
H2889 H 0.67523 0.39614 0.27637 0.0
H2890 H 0.70382 0.39348 0.29407 0.0
H2891 H 0.71746 0.36702 0.28535 0.0
H2892 H 0.86138 0.43563 0.48741 0.0
H2893 H 0.89166 0.45344 0.4993 0.0
H2894 H 0.8681 0.48147 0.54276 0.0
H2895 H 0.83784 0.46488 0.52987 0.0
H2896 H 0.89175 0.50408 0.52932 0.0
H2897 H 0.9226 0.4447 0.54374 0.0
H2898 H 0.91339 0.44249 0.51981 0.0
H2899 H 0.89836 0.44276 0.53777 0.0
C2900 C 0.86284 0.44583 0.49929 0.0
C2901 C 0.84768 0.44925 0.50773 0.0
C2902 C 0.88 0.4557 0.50626 0.0
C2903 C 0.88204 0.4682 0.52231 0.0
C2904 C 0.86673 0.47173 0.5305 0.0
H2905 H 0.99234 0.53279 0.55788 0.0
H2906 H 0.96145 0.5188 0.56381 0.0
C2907 C 0.84957 0.46238 0.52312 0.0
C2908 C 0.90012 0.47812 0.53013 0.0
H2909 H 0.94379 0.47236 0.53952 0.0
C2910 C 0.90306 0.49718 0.53218 0.0
C2911 C 0.91467 0.46901 0.53427 0.0
C2912 C 0.91202 0.4486 0.53399 0.0
C2913 C 0.92065 0.50738 0.53635 0.0
C2914 C 0.93531 0.49813 0.53814 0.0
C2915 C 0.93227 0.47923 0.538 0.0
C2916 C 0.95342 0.5071 0.53523 0.0
C2917 C 0.92371 0.52781 0.53706 0.0
C2918 C 0.95856 0.50511 0.51722 0.0
C2919 C 0.97601 0.51267 0.51395 0.0
C2920 C 0.98828 0.52226 0.5287 0.0
C2921 C 0.98299 0.52491 0.54658 0.0
C2922 C 0.9655 0.51715 0.54991 0.0
H2923 H 0.91079 0.533 0.53759 0.0
H2924 H 0.93333 0.53415 0.54947 0.0
H2925 H 0.92996 0.53207 0.52452 0.0
H2926 H 0.94914 0.4974 0.5058 0.0
H2927 H 0.98009 0.51065 0.50009 0.0
H2928 H 0.3906 0.08031 0.31022 0.0
H2929 H 0.38144 0.10972 0.30772 0.0
H2930 H 0.32508 0.08258 0.29629 0.0
H2931 H 0.33407 0.05349 0.30004 0.0
H2932 H 0.36597 0.12018 0.27845 0.0
H2933 H 0.31968 0.12283 0.33306 0.0
H2934 H 0.33453 0.10647 0.33171 0.0
H2935 H 0.31281 0.10229 0.31754 0.0
C2936 C 0.37626 0.08078 0.30747 0.0
C2937 C 0.36297 0.06485 0.30542 0.0
C2938 C 0.37105 0.09749 0.30612 0.0
C2939 C 0.35255 0.09832 0.30235 0.0
C2940 C 0.33933 0.08231 0.30002 0.0
H2941 H 0.28915 0.16525 0.25225 0.0
H2942 H 0.30103 0.14262 0.26968 0.0
C2943 C 0.34449 0.0657 0.30191 0.0
C2944 C 0.34716 0.11565 0.29897 0.0
H2945 H 0.31576 0.14183 0.30826 0.0
C2946 C 0.35531 0.12519 0.28529 0.0
C2947 C 0.3332 0.12202 0.30791 0.0
C2948 C 0.32471 0.11293 0.3235 0.0
C2949 C 0.34921 0.14046 0.27956 0.0
C2950 C 0.33468 0.14632 0.28788 0.0
C2951 C 0.32693 0.1372 0.30201 0.0
C2952 C 0.32632 0.16081 0.2807 0.0
C2953 C 0.3577 0.14962 0.26398 0.0
C2954 C 0.33642 0.17853 0.28184 0.0
C2955 C 0.32979 0.19127 0.27172 0.0
C2956 C 0.31292 0.18639 0.26075 0.0
C2957 C 0.30221 0.16912 0.26074 0.0
C2958 C 0.30892 0.15631 0.27068 0.0
H2959 H 0.36665 0.14149 0.25703 0.0
H2960 H 0.34699 0.15198 0.25334 0.0
H2961 H 0.3661 0.16302 0.2697 0.0
H2962 H 0.3498 0.18216 0.28971 0.0
H2963 H 0.3381 0.20466 0.27185 0.0
H2964 H 0.31376 0.14297 0.48095 0.0
H2965 H 0.34155 0.13075 0.48662 0.0
H2966 H 0.34856 0.15449 0.54381 0.0
H2967 H 0.3206 0.16684 0.53826 0.0
H2968 H 0.37886 0.14779 0.50143 0.0
H2969 H 0.34468 0.09824 0.54533 0.0
H2970 H 0.33219 0.11022 0.52977 0.0
H2971 H 0.34354 0.12167 0.55167 0.0
C2972 C 0.32136 0.14588 0.49468 0.0
C2973 C 0.31495 0.15586 0.50919 0.0
C2974 C 0.33725 0.13888 0.49787 0.0
C2975 C 0.34697 0.14153 0.51566 0.0
C2976 C 0.34113 0.15218 0.53 0.0
H2977 H 0.43556 0.0948 0.56389 0.0
H2978 H 0.41349 0.11448 0.55719 0.0
C2979 C 0.32526 0.15937 0.52678 0.0
C2980 C 0.36254 0.13222 0.51935 0.0
H2981 H 0.37574 0.09838 0.54248 0.0
C2982 C 0.37824 0.13703 0.51044 0.0
C2983 C 0.36153 0.118 0.53089 0.0
C2984 C 0.34455 0.11155 0.53988 0.0
C2985 C 0.39313 0.12819 0.51308 0.0
C2986 C 0.39218 0.11414 0.5248 0.0
C2987 C 0.37646 0.10929 0.53363 0.0
C2988 C 0.40726 0.1041 0.52805 0.0
C2989 C 0.40992 0.13408 0.50363 0.0
C2990 C 0.4113 0.09203 0.51378 0.0
C2991 C 0.424 0.08092 0.51756 0.0
C2992 C 0.43268 0.08167 0.53568 0.0
C2993 C 0.42911 0.09417 0.54978 0.0
C2994 C 0.4165 0.10532 0.54599 0.0
H2995 H 0.40952 0.14683 0.49714 0.0
H2996 H 0.42233 0.13615 0.5138 0.0
H2997 H 0.41104 0.12324 0.49258 0.0
H2998 H 0.40405 0.09064 0.49993 0.0
H2999 H 0.42634 0.0711 0.50661 0.0
H3000 H 0.65005 0.61128 0.31064 0.0
H3001 H 0.67045 0.64056 0.30889 0.0
H3002 H 0.70474 0.61269 0.27689 0.0
H3003 H 0.68444 0.58364 0.27853 0.0
H3004 H 0.71063 0.6512 0.31999 0.0
H3005 H 0.6906 0.65235 0.24447 0.0
H3006 H 0.67667 0.63854 0.25877 0.0
H3007 H 0.69667 0.63158 0.25113 0.0
C3008 C 0.66201 0.61148 0.30334 0.0
C3009 C 0.6659 0.59522 0.29505 0.0
C3010 C 0.67365 0.62815 0.30237 0.0
C3011 C 0.68906 0.62884 0.29263 0.0
C3012 C 0.69287 0.61255 0.28432 0.0
H3013 H 0.7693 0.71781 0.2615 0.0
H3014 H 0.75158 0.68787 0.26538 0.0
C3015 C 0.68135 0.59595 0.2854 0.0
C3016 C 0.70102 0.64654 0.29078 0.0
H3017 H 0.71482 0.67536 0.25891 0.0
C3018 C 0.71157 0.65648 0.30665 0.0
C3019 C 0.70228 0.65341 0.27335 0.0
C3020 C 0.69088 0.64354 0.25593 0.0
C3021 C 0.72357 0.67296 0.30552 0.0
C3022 C 0.72464 0.68002 0.28811 0.0
C3023 C 0.7141 0.67 0.27223 0.0
C3024 C 0.736 0.69809 0.2862 0.0
C3025 C 0.73527 0.68243 0.32293 0.0
C3026 C 0.73309 0.71387 0.29643 0.0
C3027 C 0.74328 0.73092 0.29436 0.0
C3028 C 0.75659 0.73273 0.28186 0.0
C3029 C 0.75943 0.71693 0.2715 0.0
C3030 C 0.74921 0.6998 0.27361 0.0
H3031 H 0.7372 0.67277 0.33331 0.0
H3032 H 0.74888 0.68916 0.31976 0.0
H3033 H 0.72848 0.69296 0.32942 0.0
H3034 H 0.72269 0.71307 0.30585 0.0
H3035 H 0.74056 0.74274 0.30251 0.0
H3036 H 0.84539 0.4809 0.78232 0.0
H3037 H 0.82887 0.44967 0.77701 0.0
H3038 H 0.87803 0.43115 0.79604 0.0
H3039 H 0.89382 0.46283 0.80389 0.0
H3040 H 0.83215 0.42371 0.75472 0.0
H3041 H 0.84475 0.40321 0.82549 0.0
H3042 H 0.85296 0.42594 0.82033 0.0
H3043 H 0.86562 0.40831 0.81524 0.0
C3044 C 0.85233 0.47015 0.78627 0.0
C3045 C 0.87032 0.47406 0.79475 0.0
C3046 C 0.84306 0.45233 0.7828 0.0
C3047 C 0.85207 0.43811 0.78667 0.0
C3048 C 0.87059 0.44197 0.79379 0.0
H3049 H 0.82569 0.32499 0.76614 0.0
H3050 H 0.83721 0.35664 0.76316 0.0
C3051 C 0.87962 0.45995 0.79811 0.0
C3052 C 0.84201 0.41931 0.78261 0.0
H3053 H 0.83146 0.37942 0.80128 0.0
C3054 C 0.83185 0.41411 0.76501 0.0
C3055 C 0.84169 0.40679 0.79603 0.0
C3056 C 0.85172 0.41142 0.81537 0.0
C3057 C 0.82142 0.39666 0.76048 0.0
C3058 C 0.8215 0.38429 0.77377 0.0
C3059 C 0.83153 0.38931 0.79128 0.0
C3060 C 0.81241 0.36546 0.76957 0.0
C3061 C 0.8106 0.39132 0.74159 0.0
C3062 C 0.79442 0.3602 0.77342 0.0
C3063 C 0.78757 0.34195 0.77468 0.0
C3064 C 0.79888 0.32914 0.77241 0.0
C3065 C 0.81649 0.33446 0.76738 0.0
C3066 C 0.82315 0.35254 0.76577 0.0
H3067 H 0.81172 0.40275 0.73286 0.0
H3068 H 0.81546 0.3798 0.73423 0.0
H3069 H 0.79601 0.38656 0.74326 0.0
H3070 H 0.78622 0.37028 0.7767 0.0
H3071 H 0.77395 0.33808 0.77861 0.0
H3072 H 0.02427 0.83329 0.08187 0.0
H3073 H 0.02347 0.86315 0.07195 0.0
H3074 H 0.07934 0.88178 0.09544 0.0
H3075 H 0.08027 0.85143 0.10553 0.0
H3076 H 0.0271 0.89645 0.09051 0.0
H3077 H 0.08138 0.89824 0.0436 0.0
H3078 H 0.07149 0.87772 0.05283 0.0
H3079 H 0.0884 0.89463 0.0671 0.0
C3080 C 0.03653 0.84361 0.085 0.0
C3081 C 0.05241 0.83957 0.09455 0.0
C3082 C 0.03599 0.8609 0.07927 0.0
C3083 C 0.05136 0.87503 0.08255 0.0
C3084 C 0.06727 0.87123 0.0923 0.0
H3085 H 0.0594 0.99128 0.06357 0.0
H3086 H 0.06398 0.96248 0.07496 0.0
C3087 C 0.06777 0.85381 0.09829 0.0
C3088 C 0.05025 0.89351 0.07591 0.0
H3089 H 0.06868 0.92479 0.04777 0.0
C3090 C 0.0363 0.90258 0.08122 0.0
C3091 C 0.06197 0.90178 0.06352 0.0
C3092 C 0.07656 0.89257 0.05624 0.0
C3093 C 0.03393 0.91936 0.0748 0.0
C3094 C 0.04568 0.92762 0.06254 0.0
C3095 C 0.05966 0.91868 0.05722 0.0
C3096 C 0.04334 0.94535 0.05502 0.0
C3097 C 0.01879 0.92829 0.08115 0.0
C3098 C 0.03038 0.94565 0.03974 0.0
C3099 C 0.02795 0.96218 0.03293 0.0
C3100 C 0.03802 0.97911 0.04143 0.0
C3101 C 0.05111 0.97872 0.05668 0.0
C3102 C 0.05381 0.96215 0.06324 0.0
H3103 H 0.01172 0.9211 0.09189 0.0
H3104 H 0.02431 0.94263 0.08693 0.0
H3105 H 1.00865 0.92848 0.06903 0.0
H3106 H 0.02208 0.93302 0.033 0.0
H3107 H 0.01805 0.9616 0.02102 0.0
H3108 H 0.94811 0.28342 0.93028 0.0
H3109 H 0.92048 0.28354 0.90924 0.0
H3110 H 0.94186 0.25399 0.86534 0.0
H3111 H 0.96957 0.25438 0.88624 0.0
H3112 H 0.92791 0.27799 0.85068 0.0
H3113 H 0.87623 0.24616 0.89245 0.0
H3114 H 0.88998 0.26615 0.90545 0.0
H3115 H 0.90026 0.24707 0.89848 0.0
C3116 C 0.9468 0.27684 0.91618 0.0
C3117 C 0.96121 0.26922 0.90985 0.0
C3118 C 0.93088 0.27676 0.90411 0.0
C3119 C 0.92865 0.26851 0.88555 0.0
C3120 C 0.94296 0.26047 0.87947 0.0
H3121 H 0.8238 0.24773 0.8134 0.0
H3122 H 0.85056 0.24553 0.83475 0.0
C3123 C 0.9589 0.26073 0.89145 0.0
C3124 C 0.91196 0.26892 0.87223 0.0
H3125 H 0.86517 0.26106 0.86722 0.0
C3126 C 0.9143 0.27468 0.85457 0.0
C3127 C 0.89383 0.26343 0.87648 0.0
C3128 C 0.88989 0.25515 0.89415 0.0
C3129 C 0.89948 0.27609 0.84164 0.0
C3130 C 0.88138 0.27153 0.84627 0.0
C3131 C 0.87892 0.265 0.86362 0.0
C3132 C 0.86492 0.27294 0.83316 0.0
C3133 C 0.90353 0.28205 0.82294 0.0
C3134 C 0.86367 0.28908 0.82507 0.0
C3135 C 0.84862 0.2901 0.81237 0.0
C3136 C 0.83403 0.27525 0.80791 0.0
C3137 C 0.83488 0.25935 0.81645 0.0
C3138 C 0.85019 0.25814 0.82876 0.0
H3139 H 0.917 0.27945 0.81944 0.0
H3140 H 0.89293 0.27498 0.81164 0.0
H3141 H 0.90401 0.29692 0.82336 0.0
H3142 H 0.8743 0.30101 0.82865 0.0
H3143 H 0.84816 0.30271 0.8064 0.0
H3144 H 0.538 0.23053 0.62155 0.0
H3145 H 0.53556 0.19886 0.60841 0.0
H3146 H 0.56223 0.21706 0.56164 0.0
H3147 H 0.56443 0.24885 0.57477 0.0
H3148 H 0.53578 0.18768 0.54974 0.0
H3149 H 0.57591 0.17098 0.61142 0.0
H3150 H 0.55593 0.17908 0.61741 0.0
H3151 H 0.57369 0.19399 0.60823 0.0
C3152 C 0.54318 0.22781 0.60836 0.0
C3153 C 0.55103 0.24238 0.59907 0.0
C3154 C 0.54195 0.20958 0.60088 0.0
C3155 C 0.54908 0.20518 0.5841 0.0
C3156 C 0.55665 0.21978 0.57461 0.0
H3157 H 0.56502 0.10099 0.52501 0.0
H3158 H 0.56593 0.13322 0.53525 0.0
C3159 C 0.5578 0.23806 0.58208 0.0
C3160 C 0.54904 0.18552 0.57685 0.0
H3161 H 0.56103 0.14593 0.58959 0.0
C3162 C 0.54146 0.17866 0.55847 0.0
C3163 C 0.55649 0.1734 0.58797 0.0
C3164 C 0.56614 0.17976 0.60727 0.0
C3165 C 0.54073 0.16028 0.55126 0.0
C3166 C 0.54781 0.14815 0.56256 0.0
C3167 C 0.55548 0.15501 0.58083 0.0
C3168 C 0.54714 0.12829 0.55587 0.0
C3169 C 0.53185 0.15372 0.53173 0.0
C3170 C 0.53656 0.11443 0.56409 0.0
C3171 C 0.53616 0.09589 0.55836 0.0
C3172 C 0.54643 0.09046 0.54424 0.0
C3173 C 0.557 0.10439 0.53597 0.0
C3174 C 0.55741 0.12297 0.54174 0.0
H3175 H 0.52505 0.16406 0.52547 0.0
H3176 H 0.54233 0.15049 0.52282 0.0
H3177 H 0.52162 0.14106 0.53169 0.0
H3178 H 0.52847 0.11794 0.57497 0.0
H3179 H 0.52769 0.08579 0.56506 0.0
H3180 H 0.54107 0.76319 0.38268 0.0
H3181 H 0.5694 0.76406 0.36897 0.0
H3182 H 0.5997 0.78669 0.42187 0.0
H3183 H 0.57083 0.78598 0.43589 0.0
H3184 H 0.59588 0.80048 0.37155 0.0
H3185 H 0.62441 0.74277 0.39739 0.0
H3186 H 0.60017 0.74243 0.39443 0.0
H3187 H 0.61428 0.75692 0.41321 0.0
C3188 C 0.55368 0.76804 0.3916 0.0
C3189 C 0.55362 0.77452 0.41042 0.0
C3190 C 0.56992 0.76853 0.38367 0.0
C3191 C 0.58665 0.77546 0.39434 0.0
C3192 C 0.58688 0.78115 0.41343 0.0
H3193 H 0.69636 0.79995 0.36425 0.0
H3194 H 0.66895 0.79179 0.37973 0.0
C3195 C 0.57043 0.78063 0.42146 0.0
C3196 C 0.60346 0.77809 0.38482 0.0
H3197 H 0.64132 0.7603 0.37733 0.0
C3198 C 0.60587 0.79176 0.37286 0.0
C3199 C 0.61629 0.76654 0.38637 0.0
C3200 C 0.61379 0.75125 0.39846 0.0
C3201 C 0.62096 0.79439 0.36264 0.0
C3202 C 0.63384 0.7828 0.36411 0.0
C3203 C 0.6314 0.76911 0.3761 0.0
C3204 C 0.65052 0.78555 0.35426 0.0
C3205 C 0.62319 0.80984 0.35067 0.0
C3206 C 0.64941 0.78411 0.33469 0.0
C3207 C 0.66516 0.78871 0.32577 0.0
C3208 C 0.68224 0.79493 0.3363 0.0
C3209 C 0.68336 0.7954 0.35579 0.0
C3210 C 0.66771 0.79068 0.36465 0.0
H3211 H 0.61441 0.8198 0.3542 0.0
H3212 H 0.6376 0.81711 0.35222 0.0
H3213 H 0.61932 0.80431 0.33584 0.0
H3214 H 0.63631 0.7799 0.32635 0.0
H3215 H 0.66386 0.78824 0.31073 0.0
H3216 H 0.02768 0.24111 0.36947 0.0
H3217 H 0.02526 0.21358 0.38562 0.0
H3218 H 0.06234 0.24357 0.43166 0.0
H3219 H 0.06429 0.27105 0.41599 0.0
H3220 H 0.04904 0.19322 0.39865 0.0
H3221 H 0.02038 0.22399 0.45864 0.0
H3222 H 0.02285 0.23476 0.43761 0.0
H3223 H 0.04207 0.2368 0.45504 0.0
C3224 C 0.03539 0.24178 0.38299 0.0
C3225 C 0.04604 0.25835 0.3915 0.0
C3226 C 0.03398 0.22603 0.39224 0.0
C3227 C 0.04323 0.22653 0.41015 0.0
C3228 C 0.05457 0.24288 0.41818 0.0
H3229 H 0.04415 0.15047 0.49427 0.0
H3230 H 0.053 0.17513 0.47502 0.0
C3231 C 0.0558 0.2586 0.40908 0.0
C3232 C 0.04089 0.21017 0.42062 0.0
H3233 H 0.0293 0.19565 0.46197 0.0
C3234 C 0.04466 0.19375 0.41247 0.0
C3235 C 0.03512 0.21072 0.43869 0.0
C3236 C 0.02969 0.22745 0.44794 0.0
C3237 C 0.04321 0.1781 0.42197 0.0
C3238 C 0.03763 0.17874 0.4401 0.0
C3239 C 0.03382 0.19514 0.44821 0.0
C3240 C 0.0347 0.16244 0.45062 0.0
C3241 C 0.04798 0.16111 0.41261 0.0
C3242 C 0.02186 0.14681 0.44326 0.0
C3243 C 0.017 0.13267 0.45418 0.0
C3244 C 0.02484 0.13379 0.47273 0.0
C3245 C 0.03833 0.14898 0.47984 0.0
C3246 C 0.04319 0.16317 0.46891 0.0
H3247 H 0.05719 0.16429 0.40175 0.0
H3248 H 0.05464 0.15358 0.42285 0.0
H3249 H 0.03532 0.15207 0.4057 0.0
H3250 H 0.01471 0.14602 0.42945 0.0
H3251 H 1.00615 0.12139 0.44856 0.0
H3252 H 0.57853 0.23282 0.19956 0.0
H3253 H 0.61057 0.23552 0.21185 0.0
H3254 H 0.61421 0.2931 0.22632 0.0
H3255 H 0.58168 0.28989 0.21566 0.0
H3256 H 0.6404 0.24879 0.20409 0.0
H3257 H 0.64013 0.28699 0.27267 0.0
H3258 H 0.61932 0.27804 0.25772 0.0
H3259 H 0.63314 0.29957 0.25446 0.0
C3260 C 0.58612 0.24601 0.20566 0.0
C3261 C 0.57736 0.26107 0.20683 0.0
C3262 C 0.60462 0.24762 0.21267 0.0
C3263 C 0.6153 0.26448 0.22071 0.0
C3264 C 0.60656 0.27969 0.22122 0.0
H3265 H 0.73232 0.30324 0.25721 0.0
H3266 H 0.69982 0.2996 0.24676 0.0
C3267 C 0.58784 0.27792 0.21482 0.0
C3268 C 0.63548 0.26607 0.22773 0.0
H3269 H 0.66932 0.28577 0.26286 0.0
C3270 C 0.64649 0.25673 0.2171 0.0
C3271 C 0.64406 0.27638 0.24475 0.0
C3272 C 0.63349 0.28563 0.25813 0.0
C3273 C 0.66532 0.25764 0.22264 0.0
C3274 C 0.67389 0.26829 0.23936 0.0
C3275 C 0.66301 0.27765 0.25 0.0
C3276 C 0.69411 0.27029 0.24579 0.0
C3277 C 0.676 0.24746 0.21019 0.0
C3278 C 0.70223 0.25517 0.24914 0.0
C3279 C 0.72114 0.25729 0.25486 0.0
C3280 C 0.73261 0.27457 0.25751 0.0
C3281 C 0.72429 0.28966 0.25467 0.0
C3282 C 0.70548 0.28758 0.24891 0.0
H3283 H 0.66876 0.24359 0.19592 0.0
H3284 H 0.68965 0.25572 0.20922 0.0
H3285 H 0.67799 0.23479 0.21612 0.0
H3286 H 0.69394 0.24165 0.24742 0.0
H3287 H 0.72677 0.24535 0.25692 0.0
H3288 H 0.55229 0.88286 0.87454 0.0
H3289 H 0.55118 0.90903 0.89673 0.0
H3290 H 0.54499 0.87411 0.94043 0.0
H3291 H 0.54662 0.84794 0.91841 0.0
H3292 H 0.5257 0.91773 0.91572 0.0
H3293 H 0.583 0.91351 0.96792 0.0
H3294 H 0.57894 0.89999 0.94557 0.0
H3295 H 0.56617 0.89298 0.96432 0.0
C3296 C 0.55105 0.8807 0.88894 0.0
C3297 C 0.54982 0.86307 0.89453 0.0
C3298 C 0.55029 0.8958 0.9017 0.0
C3299 C 0.5483 0.89393 0.92059 0.0
C3300 C 0.54708 0.87633 0.92622 0.0
H3301 H 0.52315 0.96927 0.01122 0.0
H3302 H 0.52636 0.94252 0.99067 0.0
C3303 C 0.54794 0.86121 0.91347 0.0
C3304 C 0.54675 0.9102 0.93399 0.0
H3305 H 0.56361 0.93392 0.97676 0.0
C3306 C 0.53413 0.92123 0.92899 0.0
C3307 C 0.55764 0.91512 0.9515 0.0
C3308 C 0.57232 0.9049 0.95758 0.0
C3309 C 0.53199 0.93659 0.94083 0.0
C3310 C 0.5427 0.9413 0.95833 0.0
C3311 C 0.55527 0.93033 0.96344 0.0
C3312 C 0.54119 0.95775 0.97128 0.0
C3313 C 0.51809 0.94765 0.93468 0.0
C3314 C 0.54861 0.97541 0.96753 0.0
C3315 C 0.54715 0.99081 0.97953 0.0
C3316 C 0.53798 0.98912 0.99559 0.0
C3317 C 0.53054 0.97134 0.99926 0.0
C3318 C 0.53227 0.95592 0.98739 0.0
H3319 H 0.50933 0.94112 0.92177 0.0
H3320 H 0.50929 0.94967 0.94587 0.0
H3321 H 0.52521 0.96128 0.93205 0.0
H3322 H 0.55562 0.97731 0.95529 0.0
H3323 H 0.55319 1.00411 0.97611 0.0
H3324 H 0.97733 0.7926 0.7106 0.0
H3325 H 0.9471 0.79369 0.7204 0.0
H3326 H 0.93895 0.73642 0.7261 0.0
H3327 H 0.96919 0.73524 0.71576 0.0
H3328 H 0.91143 0.77566 0.7059 0.0
H3329 H 0.92751 0.75812 0.77725 0.0
H3330 H 0.94494 0.76501 0.76246 0.0
H3331 H 0.93192 0.74223 0.75895 0.0
C3332 C 0.96905 0.78012 0.71369 0.0
C3333 C 0.97588 0.76378 0.71206 0.0
C3334 C 0.95162 0.78078 0.71941 0.0
C3335 C 0.94039 0.76523 0.72437 0.0
C3336 C 0.94712 0.74879 0.72265 0.0
H3337 H 0.83141 0.74815 0.76806 0.0
H3338 H 0.8608 0.74449 0.75719 0.0
C3339 C 0.96447 0.74804 0.71648 0.0
C3340 C 0.92181 0.76638 0.73116 0.0
H3341 H 0.89695 0.76064 0.76852 0.0
C3342 C 0.90837 0.77235 0.71962 0.0
C3343 C 0.91736 0.7622 0.74911 0.0
C3344 C 0.93119 0.75668 0.76279 0.0
C3345 C 0.89095 0.77387 0.7252 0.0
C3346 C 0.8865 0.76979 0.74319 0.0
C3347 C 0.89993 0.76377 0.75473 0.0
C3348 C 0.86828 0.77203 0.75028 0.0
C3349 C 0.87724 0.77943 0.7114 0.0
C3350 C 0.86219 0.78875 0.75047 0.0
C3351 C 0.84529 0.79085 0.75669 0.0
C3352 C 0.83366 0.77643 0.76328 0.0
C3353 C 0.83977 0.7597 0.76323 0.0
C3354 C 0.85677 0.75759 0.75699 0.0
H3355 H 0.88034 0.77667 0.69686 0.0
H3356 H 0.8632 0.77218 0.71252 0.0
H3357 H 0.87766 0.79426 0.71423 0.0
H3358 H 0.87059 0.80038 0.74584 0.0
H3359 H 0.84126 0.80389 0.75608 0.0
H3360 H 0.12935 0.01639 0.84758 0.0
H3361 H 0.11256 0.01186 0.87468 0.0
H3362 H 0.0936 0.06216 0.86895 0.0
H3363 H 0.10942 0.06596 0.8411 0.0
H3364 H 0.11707 0.03006 0.90674 0.0
H3365 H 0.04695 0.03293 0.87764 0.0
H3366 H 0.06486 0.03143 0.86301 0.0
H3367 H 0.06285 0.05302 0.87482 0.0
C3368 C 0.12118 0.0262 0.85187 0.0
C3369 C 0.12035 0.04131 0.84202 0.0
C3370 C 0.11166 0.02369 0.86745 0.0
C3371 C 0.10138 0.03645 0.87388 0.0
C3372 C 0.10072 0.05167 0.86404 0.0
H3373 H 0.04312 0.05193 0.97099 0.0
H3374 H 0.05752 0.05397 0.94217 0.0
C3375 C 0.10986 0.05392 0.84813 0.0
C3376 C 0.09245 0.03432 0.89148 0.0
H3377 H 0.05254 0.03493 0.91066 0.0
C3378 C 0.1029 0.03099 0.9075 0.0
C3379 C 0.07395 0.03559 0.89274 0.0
C3380 C 0.06147 0.03826 0.87608 0.0
C3381 C 0.09568 0.02938 0.92465 0.0
C3382 C 0.0772 0.03074 0.92595 0.0
C3383 C 0.0667 0.03393 0.90988 0.0
C3384 C 0.0686 0.02939 0.94383 0.0
C3385 C 0.10827 0.02687 0.9413 0.0
C3386 C 0.06975 0.01487 0.9546 0.0
C3387 C 0.06204 0.01408 0.97149 0.0
C3388 C 0.05231 0.02736 0.97762 0.0
C3389 C 0.05059 0.04152 0.96662 0.0
C3390 C 0.05879 0.04264 0.95007 0.0
H3391 H 0.12279 0.03184 0.9395 0.0
H3392 H 0.10519 0.03414 0.95428 0.0
H3393 H 0.10666 0.01216 0.94293 0.0
H3394 H 0.07647 1.00399 0.94989 0.0
H3395 H 0.06322 1.00279 0.97949 0.0
H3396 H 0.78801 0.3787 0.53897 0.0
H3397 H 0.78844 0.36507 0.56795 0.0
H3398 H 0.80188 0.41835 0.59906 0.0
H3399 H 0.80195 0.43232 0.56975 0.0
H3400 H 0.82456 0.39439 0.60917 0.0
H3401 H 0.75207 0.361 0.60602 0.0
H3402 H 0.76151 0.35688 0.58459 0.0
H3403 H 0.75955 0.37967 0.59286 0.0
C3404 C 0.79069 0.3876 0.55194 0.0
C3405 C 0.79474 0.40657 0.55217 0.0
C3406 C 0.79082 0.37976 0.56848 0.0
C3407 C 0.79464 0.39076 0.58553 0.0
C3408 C 0.79858 0.40974 0.58592 0.0
H3409 H 0.81698 0.34721 0.69054 0.0
H3410 H 0.80641 0.36691 0.66877 0.0
C3411 C 0.79863 0.41765 0.56926 0.0
C3412 C 0.79616 0.38206 0.60271 0.0
H3413 H 0.77381 0.34825 0.62489 0.0
C3414 C 0.81337 0.38468 0.613 0.0
C3415 C 0.7815 0.36933 0.60742 0.0
C3416 C 0.76257 0.36667 0.59724 0.0
C3417 C 0.81659 0.37401 0.62726 0.0
C3418 C 0.80217 0.36062 0.63125 0.0
C3419 C 0.78476 0.35857 0.62161 0.0
C3420 C 0.8055 0.34776 0.64447 0.0
C3421 C 0.83559 0.37629 0.63725 0.0
C3422 C 0.8078 0.33035 0.63781 0.0
C3423 C 0.81363 0.31893 0.65017 0.0
C3424 C 0.8173 0.3249 0.6693 0.0
C3425 C 0.81412 0.34212 0.67592 0.0
C3426 C 0.80817 0.35344 0.66356 0.0
H3427 H 0.84553 0.38661 0.63163 0.0
H3428 H 0.83543 0.38053 0.65228 0.0
H3429 H 0.84033 0.36311 0.63605 0.0
H3430 H 0.80577 0.32589 0.62301 0.0
H3431 H 0.81561 0.30561 0.64473 0.0
H3432 H 0.43518 0.02561 0.33708 0.0
H3433 H 0.45754 0.02927 0.3643 0.0
H3434 H 0.41688 0.04018 0.3998 0.0
H3435 H 0.39408 0.03607 0.37258 0.0
H3436 H 0.46999 0.05806 0.39173 0.0
H3437 H 0.43465 0.99639 0.41961 0.0
H3438 H 0.42885 1.00158 0.39627 0.0
H3439 H 0.42087 0.01319 0.4157 0.0
C3440 C 0.43098 0.02899 0.35064 0.0
C3441 C 0.41285 0.03042 0.35278 0.0
C3442 C 0.44378 0.03106 0.36612 0.0
C3443 C 0.43865 0.03469 0.38389 0.0
C3444 C 0.42084 0.03701 0.38609 0.0
H3445 H 0.50509 0.06267 0.48796 0.0
H3446 H 0.48497 0.06221 0.4594 0.0
C3447 C 0.40792 0.03474 0.37059 0.0
C3448 C 0.45191 0.03533 0.4001 0.0
H3449 H 0.46056 0.01389 0.4383 0.0
C3450 C 0.46798 0.04845 0.40195 0.0
C3451 C 0.44921 0.02245 0.41303 0.0
C3452 C 0.43255 1.00749 0.41102 0.0
C3453 C 0.48145 0.04921 0.41678 0.0
C3454 C 0.47847 0.03669 0.42994 0.0
C3455 C 0.46256 0.02344 0.428 0.0
C3456 C 0.49146 0.03751 0.4463 0.0
C3457 C 0.49881 0.06323 0.41828 0.0
C3458 C 0.50149 0.02366 0.44807 0.0
C3459 C 0.51294 0.02384 0.4643 0.0
C3460 C 0.51418 0.03779 0.47885 0.0
C3461 C 0.50425 0.05175 0.4769 0.0
C3462 C 0.4929 0.05159 0.46065 0.0
H3463 H 0.50032 0.06977 0.40526 0.0
H3464 H 0.49873 0.07396 0.42983 0.0
H3465 H 0.51085 0.0569 0.42155 0.0
H3466 H 0.50025 0.01265 0.437 0.0
H3467 H 0.52042 0.0129 0.46567 0.0
H3468 H 0.79131 0.72622 0.06678 0.0
H3469 H 0.7928 0.73937 0.09919 0.0
H3470 H 0.75832 0.69055 0.11144 0.0
H3471 H 0.75757 0.67708 0.07937 0.0
H3472 H 0.76869 0.74875 0.11913 0.0
H3473 H 0.79582 0.6955 0.15427 0.0
H3474 H 0.79484 0.69597 0.12943 0.0
H3475 H 0.77497 0.68615 0.13978 0.0
C3476 C 0.78427 0.71818 0.07646 0.0
C3477 C 0.7745 0.70049 0.07046 0.0
C3478 C 0.78507 0.72575 0.09504 0.0
C3479 C 0.776 0.71591 0.10812 0.0
C3480 C 0.76602 0.69831 0.10201 0.0
H3481 H 0.75108 0.7452 0.2211 0.0
H3482 H 0.75089 0.73185 0.18892 0.0
C3483 C 0.76547 0.69062 0.08353 0.0
C3484 C 0.77641 0.7243 0.12784 0.0
H3485 H 0.78354 0.71668 0.1736 0.0
C3486 C 0.7721 0.74173 0.13098 0.0
C3487 C 0.78092 0.71534 0.14355 0.0
C3488 C 0.78709 0.6973 0.14161 0.0
C3489 C 0.77185 0.75016 0.14912 0.0
C3490 C 0.77588 0.74097 0.16468 0.0
C3491 C 0.78025 0.72364 0.16166 0.0
C3492 C 0.77588 0.74928 0.18419 0.0
C3493 C 0.76701 0.76878 0.15162 0.0
C3494 C 0.79002 0.76347 0.19235 0.0
C3495 C 0.79015 0.77114 0.21076 0.0
C3496 C 0.77605 0.76488 0.22143 0.0
C3497 C 0.76195 0.7506 0.21323 0.0
C3498 C 0.7619 0.74286 0.19485 0.0
H3499 H 0.76201 0.77318 0.13821 0.0
H3500 H 0.75639 0.76892 0.16127 0.0
H3501 H 0.77926 0.77882 0.15794 0.0
H3502 H 0.80104 0.76857 0.18448 0.0
H3503 H 0.80127 0.78205 0.21659 0.0
H3504 H 0.08741 0.03724 0.74083 0.0
H3505 H 0.07385 0.0362 0.70857 0.0
H3506 H 0.12732 0.0433 0.69016 0.0
H3507 H 0.14105 0.04447 0.72246 0.0
H3508 H 0.10113 0.06779 0.67653 0.0
H3509 H 0.07232 0.99353 0.66496 0.0
H3510 H 0.06997 1.0059 0.68678 0.0
H3511 H 0.09213 1.00284 0.68146 0.0
C3512 C 0.09631 0.03838 0.72992 0.0
C3513 C 0.11535 0.04084 0.73429 0.0
C3514 C 0.08851 0.03782 0.71146 0.0
C3515 C 0.09953 0.03959 0.69688 0.0
C3516 C 0.11853 0.04194 0.70115 0.0
H3517 H 0.07615 0.02199 0.57702 0.0
H3518 H 0.08761 0.02316 0.60971 0.0
C3519 C 0.12636 0.04255 0.71964 0.0
C3520 C 0.09122 0.03922 0.67725 0.0
H3521 H 0.06626 0.01087 0.64054 0.0
C3522 C 0.09344 0.05537 0.66868 0.0
C3523 C 0.08123 0.02301 0.66697 0.0
C3524 C 0.07875 1.00524 0.67536 0.0
C3525 C 0.08589 0.05572 0.65018 0.0
C3526 C 0.07587 0.03951 0.63992 0.0
C3527 C 0.07376 0.02334 0.64846 0.0
C3528 C 0.06842 0.03883 0.61997 0.0
C3529 C 0.08896 0.07333 0.64154 0.0
C3530 C 0.05361 0.04709 0.61469 0.0
C3531 C 0.04658 0.04595 0.59584 0.0
C3532 C 0.05443 0.0368 0.58181 0.0
C3533 C 0.06944 0.02883 0.58727 0.0
C3534 C 0.07617 0.02962 0.60605 0.0
H3535 H 0.09915 0.08406 0.65032 0.0
H3536 H 0.09364 0.07118 0.62759 0.0
H3537 H 0.07589 0.07826 0.63964 0.0
H3538 H 0.04729 0.05418 0.62518 0.0
H3539 H 0.03488 0.05203 0.59234 0.0
H3540 H 0.78735 0.42446 0.42856 0.0
H3541 H 0.78204 0.40161 0.40143 0.0
H3542 H 0.78562 0.3595 0.43741 0.0
H3543 H 0.79039 0.38187 0.46448 0.0
H3544 H 0.80843 0.38075 0.39466 0.0
H3545 H 0.74132 0.33725 0.40036 0.0
H3546 H 0.74848 0.35973 0.41281 0.0
H3547 H 0.75719 0.3408 0.42107 0.0
C3548 C 0.78663 0.4103 0.43068 0.0
C3549 C 0.78944 0.40496 0.44856 0.0
C3550 C 0.78355 0.39733 0.41526 0.0
C3551 C 0.78327 0.37904 0.41766 0.0
C3552 C 0.7854 0.37357 0.43546 0.0
H3553 H 0.80571 0.29688 0.33686 0.0
H3554 H 0.8053 0.31601 0.36587 0.0
C3555 C 0.7883 0.38643 0.45085 0.0
C3556 C 0.78301 0.36595 0.40158 0.0
H3557 H 0.75929 0.32629 0.37816 0.0
C3558 C 0.79765 0.3689 0.39091 0.0
C3559 C 0.76902 0.35047 0.39722 0.0
C3560 C 0.75303 0.3469 0.40838 0.0
C3561 C 0.79853 0.35671 0.37557 0.0
C3562 C 0.78448 0.34134 0.37116 0.0
C3563 C 0.76998 0.33821 0.38192 0.0
C3564 C 0.78395 0.32906 0.35449 0.0
C3565 C 0.81421 0.36041 0.36398 0.0
C3566 C 0.77188 0.33024 0.33898 0.0
C3567 C 0.77198 0.31939 0.32253 0.0
C3568 C 0.78412 0.30728 0.32166 0.0
C3569 C 0.79602 0.30595 0.33739 0.0
C3570 C 0.79591 0.31684 0.35383 0.0
H3571 H 0.82297 0.37399 0.36829 0.0
H3572 H 0.82276 0.34991 0.3654 0.0
H3573 H 0.80899 0.3596 0.34903 0.0
H3574 H 0.76267 0.33981 0.33952 0.0
H3575 H 0.76273 0.32061 0.31053 0.0
H3576 H 0.42803 0.05392 0.25914 0.0
H3577 H 0.44317 0.05473 0.23081 0.0
H3578 H 0.40481 1.00684 0.20572 0.0
H3579 H 0.38907 1.00662 0.23365 0.0
H3580 H 0.46037 0.03001 0.21965 0.0
H3581 H 0.40852 0.03441 0.16191 0.0
H3582 H 0.40491 0.03903 0.18598 0.0
H3583 H 0.40041 0.01599 0.17477 0.0
C3584 C 0.42249 0.04396 0.2473 0.0
C3585 C 0.40738 0.03027 0.24843 0.0
C3586 C 0.43115 0.04441 0.23117 0.0
C3587 C 0.425 0.031 0.21605 0.0
C3588 C 0.40945 0.0177 0.21694 0.0
H3589 H 0.47301 0.97464 0.13518 0.0
H3590 H 0.45493 0.98657 0.15816 0.0
C3591 C 0.40052 0.0175 0.23294 0.0
C3592 C 0.43628 0.02934 0.20061 0.0
H3593 H 0.43402 0.02059 0.15341 0.0
C3594 C 0.45469 0.02842 0.20516 0.0
C3595 C 0.42889 0.02727 0.1817 0.0
C3596 C 0.40964 0.02943 0.17583 0.0
C3597 C 0.46563 0.02452 0.19134 0.0
C3598 C 0.45787 0.02132 0.17262 0.0
C3599 C 0.43976 0.02297 0.1679 0.0
C3600 C 0.468 0.01462 0.15801 0.0
C3601 C 0.48518 0.02306 0.19681 0.0
C3602 C 0.48111 0.0266 0.15042 0.0
C3603 C 0.49134 0.01985 0.13729 0.0
C3604 C 0.48868 1.00104 0.13189 0.0
C3605 C 0.47541 0.98914 0.13941 0.0
C3606 C 0.46504 0.99592 0.15233 0.0
H3607 H 0.48893 0.02524 0.21214 0.0
H3608 H 0.48753 0.00944 0.19151 0.0
H3609 H 0.49439 0.03334 0.19035 0.0
H3610 H 0.48352 0.04108 0.1548 0.0
H3611 H 0.50153 0.02922 0.13159 0.0
H3612 H 0.76437 0.71938 0.97279 0.0
H3613 H 0.76764 0.73547 0.94484 0.0
H3614 H 0.79105 0.69234 0.91939 0.0
H3615 H 0.78741 0.67617 0.9467 0.0
H3616 H 0.7964 0.74862 0.92553 0.0
H3617 H 0.7494 0.693 0.88054 0.0
H3618 H 0.75176 0.69406 0.9056 0.0
H3619 H 0.768 0.68512 0.89245 0.0
C3620 C 0.77036 0.71346 0.96129 0.0
C3621 C 0.77537 0.69635 0.96192 0.0
C3622 C 0.77218 0.72262 0.94528 0.0
C3623 C 0.77909 0.71487 0.92969 0.0
C3624 C 0.78509 0.69835 0.93087 0.0
H3625 H 0.79902 0.73946 0.81734 0.0
H3626 H 0.79777 0.72693 0.8474 0.0
C3627 C 0.7831 0.68916 0.94663 0.0
C3628 C 0.77985 0.72363 0.912 0.0
H3629 H 0.76726 0.71511 0.86496 0.0
C3630 C 0.78989 0.74135 0.91232 0.0
C3631 C 0.77135 0.71422 0.89465 0.0
C3632 C 0.75937 0.69563 0.89327 0.0
C3633 C 0.79214 0.74963 0.89579 0.0
C3634 C 0.78397 0.74001 0.87843 0.0
C3635 C 0.77374 0.72242 0.87817 0.0
C3636 C 0.78542 0.74803 0.8604 0.0
C3637 C 0.80366 0.76841 0.89704 0.0
C3638 C 0.77868 0.76391 0.85752 0.0
C3639 C 0.77926 0.77098 0.84036 0.0
C3640 C 0.78658 0.76238 0.82553 0.0
C3641 C 0.79332 0.74645 0.82841 0.0
C3642 C 0.79264 0.7393 0.84561 0.0
H3643 H 0.81298 0.77176 0.91024 0.0
H3644 H 0.81191 0.76976 0.88516 0.0
H3645 H 0.79462 0.77857 0.89666 0.0
H3646 H 0.77261 0.77067 0.86844 0.0
H3647 H 0.77372 0.78315 0.83866 0.0
H3648 H 0.82456 0.12936 0.07129 0.0
H3649 H 0.8539 0.11961 0.07705 0.0
H3650 H 0.8432 0.08652 0.02397 0.0
H3651 H 0.81411 0.09605 0.018 0.0
H3652 H 0.8562 0.07126 0.06235 0.0
H3653 H 0.89682 0.13333 0.03949 0.0
H3654 H 0.87818 0.1345 0.05333 0.0
H3655 H 0.87357 0.12568 0.02921 0.0
C3656 C 0.82853 0.12004 0.06086 0.0
C3657 C 0.81716 0.11345 0.04419 0.0
C3658 C 0.84512 0.11445 0.06425 0.0
C3659 C 0.85034 0.10235 0.05097 0.0
C3660 C 0.83907 0.09576 0.03439 0.0
H3661 H 0.90659 0.04798 0.99144 0.0
H3662 H 0.88657 0.05898 0.01285 0.0
C3663 C 0.82255 0.10125 0.03101 0.0
C3664 C 0.86794 0.09689 0.05345 0.0
H3665 H 0.90876 0.10621 0.03646 0.0
C3666 C 0.86812 0.0791 0.05754 0.0
C3667 C 0.88317 0.10728 0.04702 0.0
C3668 C 0.88308 0.12631 0.04204 0.0
C3669 C 0.88257 0.07066 0.05333 0.0
C3670 C 0.89691 0.08045 0.04502 0.0
C3671 C 0.89769 0.0989 0.04302 0.0
C3672 C 0.90861 0.07109 0.03429 0.0
C3673 C 0.88166 0.05093 0.05613 0.0
C3674 C 0.92742 0.07443 0.03945 0.0
C3675 C 0.93878 0.06823 0.02728 0.0
C3676 C 0.93136 0.05908 0.00973 0.0
C3677 C 0.91248 0.05537 1.00479 0.0
C3678 C 0.90112 0.06131 0.01708 0.0
H3679 H 0.87275 0.04686 0.067 0.0
H3680 H 0.87591 0.04238 0.04288 0.0
H3681 H 0.89548 0.04818 0.06011 0.0
H3682 H 0.93329 0.08226 0.0526 0.0
H3683 H 0.95337 0.07097 0.03131 0.0
H3684 H 0.36081 0.39171 0.02929 0.0
H3685 H 0.39069 0.41175 0.03138 0.0
H3686 H 0.36688 0.45725 0.05072 0.0
H3687 H 0.33779 0.43674 0.05083 0.0
H3688 H 0.40287 0.4364 0.01377 0.0
H3689 H 0.40975 0.47063 0.08552 0.0
H3690 H 0.39156 0.45169 0.07733 0.0
H3691 H 0.38965 0.47446 0.07246 0.0
C3692 C 0.36213 0.40596 0.03429 0.0
C3693 C 0.34684 0.41287 0.03911 0.0
C3694 C 0.3792 0.41749 0.03538 0.0
C3695 C 0.38137 0.43622 0.04131 0.0
C3696 C 0.36605 0.44291 0.04665 0.0
H3697 H 0.4699 0.51886 0.01421 0.0
H3698 H 0.44042 0.49933 0.01639 0.0
C3699 C 0.34918 0.43125 0.04616 0.0
C3700 C 0.39934 0.44871 0.04092 0.0
H3701 H 0.43 0.48446 0.06521 0.0
C3702 C 0.40877 0.44675 0.02518 0.0
C3703 C 0.40739 0.46236 0.05574 0.0
C3704 C 0.39912 0.46476 0.07376 0.0
C3705 C 0.42569 0.45789 0.02384 0.0
C3706 C 0.43323 0.47185 0.03828 0.0
C3707 C 0.42402 0.47388 0.05403 0.0
C3708 C 0.45095 0.48416 0.03743 0.0
C3709 C 0.43569 0.45441 0.00719 0.0
C3710 C 0.46657 0.48231 0.04875 0.0
C3711 C 0.48343 0.49345 0.04757 0.0
C3712 C 0.48497 0.50684 0.03517 0.0
C3713 C 0.46918 0.50889 0.0241 0.0
C3714 C 0.45234 0.49763 0.0252 0.0
H3715 H 0.42911 0.44168 0.99829 0.0
H3716 H 0.43608 0.46594 0.99864 0.0
H3717 H 0.45 0.45351 0.01184 0.0
H3718 H 0.4658 0.472 0.05828 0.0
H3719 H 0.49529 0.49143 0.05625 0.0
H3720 H 0.38447 0.55043 0.74604 0.0
H3721 H 0.37048 0.57737 0.74566 0.0
H3722 H 0.41328 0.60658 0.7871 0.0
H3723 H 0.42726 0.57941 0.78755 0.0
H3724 H 0.35806 0.59131 0.77778 0.0
H3725 H 0.40661 0.64459 0.75063 0.0
H3726 H 0.40712 0.62064 0.7464 0.0
H3727 H 0.41661 0.63317 0.76848 0.0
C3728 C 0.39122 0.5628 0.75459 0.0
C3729 C 0.40705 0.563 0.76663 0.0
C3730 C 0.3832 0.57816 0.75441 0.0
C3731 C 0.39089 0.59404 0.76624 0.0
C3732 C 0.40732 0.5946 0.77757 0.0
H3733 H 0.352 0.68722 0.81219 0.0
H3734 H 0.37039 0.66519 0.80155 0.0
C3735 C 0.41535 0.57914 0.77778 0.0
C3736 C 0.38048 0.60898 0.76844 0.0
H3737 H 0.38246 0.65437 0.76554 0.0
C3738 C 0.36331 0.60505 0.77489 0.0
C3739 C 0.38738 0.62689 0.76473 0.0
C3740 C 0.40537 0.63162 0.75702 0.0
C3741 C 0.35305 0.61864 0.77823 0.0
C3742 C 0.36004 0.63662 0.77476 0.0
C3743 C 0.37712 0.64055 0.7681 0.0
C3744 C 0.35013 0.65159 0.77908 0.0
C3745 C 0.33509 0.61377 0.78605 0.0
C3746 C 0.33298 0.65167 0.7695 0.0
C3747 C 0.32256 0.66433 0.77547 0.0
C3748 C 0.32912 0.67695 0.79117 0.0
C3749 C 0.34668 0.6775 0.80011 0.0
C3750 C 0.35716 0.66499 0.79402 0.0
H3751 H 0.33339 0.60026 0.79137 0.0
H3752 H 0.33387 0.62414 0.79755 0.0
H3753 H 0.32376 0.61339 0.77494 0.0
H3754 H 0.32739 0.64152 0.75784 0.0
H3755 H 0.30903 0.66369 0.76842 0.0
H3756 H 0.23076 0.59531 0.54901 0.0
H3757 H 0.19941 0.57903 0.54322 0.0
H3758 H 0.18188 0.62956 0.5341 0.0
H3759 H 0.2137 0.64475 0.53579 0.0
H3760 H 0.17207 0.57722 0.55609 0.0
H3761 H 0.15516 0.60405 0.48942 0.0
H3762 H 0.17753 0.61072 0.50189 0.0
H3763 H 0.15943 0.62213 0.50802 0.0
C3764 C 0.22019 0.60253 0.54449 0.0
C3765 C 0.2245 0.62055 0.54064 0.0
C3766 C 0.20221 0.59345 0.54182 0.0
C3767 C 0.18819 0.60279 0.53685 0.0
C3768 C 0.19247 0.62166 0.53619 0.0
H3769 H 0.07673 0.57274 0.54338 0.0
H3770 H 0.10716 0.58846 0.53866 0.0
C3771 C 0.21058 0.6304 0.53746 0.0
C3772 C 0.16924 0.59273 0.53267 0.0
H3773 H 0.12993 0.58847 0.50341 0.0
C3774 C 0.16314 0.57944 0.54423 0.0
C3775 C 0.15732 0.59562 0.51726 0.0
C3776 C 0.16282 0.60877 0.50339 0.0
C3777 C 0.14554 0.56918 0.54099 0.0
C3778 C 0.1336 0.5728 0.52624 0.0
C3779 C 0.13945 0.58584 0.51459 0.0
C3780 C 0.11438 0.56465 0.5244 0.0
C3781 C 0.13956 0.55491 0.55364 0.0
C3782 C 0.10851 0.5464 0.5172 0.0
C3783 C 0.09123 0.53748 0.51988 0.0
C3784 C 0.07996 0.54693 0.52958 0.0
C3785 C 0.08534 0.56547 0.53561 0.0
C3786 C 0.10256 0.57438 0.5329 0.0
H3787 H 0.1504 0.55434 0.56499 0.0
H3788 H 0.12728 0.55766 0.55995 0.0
H3789 H 0.13583 0.54134 0.54538 0.0
H3790 H 0.11771 0.53884 0.51073 0.0
H3791 H 0.08704 0.52307 0.51532 0.0
H3792 H 0.72202 0.01399 0.74089 0.0
H3793 H 0.73079 0.98478 0.73224 0.0
H3794 H 0.69563 0.95987 0.77037 0.0
H3795 H 0.68637 0.98892 0.77833 0.0
H3796 H 0.74877 0.97149 0.75814 0.0
H3797 H 0.68929 0.91879 0.72987 0.0
H3798 H 0.68908 0.94278 0.7297 0.0
H3799 H 0.68381 0.9315 0.74995 0.0
C3800 C 0.71609 1.0021 0.74714 0.0
C3801 C 0.70407 1.00336 0.76058 0.0
C3802 C 0.72078 0.98549 0.74196 0.0
C3803 C 0.71358 0.97018 0.75039 0.0
C3804 C 0.70086 0.9714 0.76324 0.0
H3805 H 0.74314 0.89759 0.81321 0.0
H3806 H 0.7281 0.91568 0.79248 0.0
C3807 C 0.69593 0.98797 0.76815 0.0
C3808 C 0.72244 0.9544 0.74945 0.0
H3809 H 0.71261 0.90874 0.75128 0.0
C3810 C 0.74108 0.95766 0.75581 0.0
C3811 C 0.7123 0.93648 0.74646 0.0
C3812 C 0.69254 0.93224 0.73842 0.0
C3813 C 0.74939 0.94366 0.76144 0.0
C3814 C 0.73872 0.92605 0.76028 0.0
C3815 C 0.72059 0.92239 0.75214 0.0
C3816 C 0.74533 0.91241 0.77058 0.0
C3817 C 0.76892 0.94814 0.77039 0.0
C3818 C 0.75971 0.90466 0.7648 0.0
C3819 C 0.76854 0.8948 0.77672 0.0
C3820 C 0.76289 0.8925 0.79442 0.0
C3821 C 0.74791 0.89958 0.79978 0.0
C3822 C 0.73914 0.90953 0.78788 0.0
H3823 H 0.77478 0.9629 0.77144 0.0
H3824 H 0.76981 0.94378 0.78461 0.0
H3825 H 0.77745 0.94066 0.76206 0.0
H3826 H 0.76463 0.90701 0.7515 0.0
H3827 H 0.7801 0.88942 0.77232 0.0
H3828 H 0.73441 0.88974 0.51232 0.0
H3829 H 0.70788 0.90475 0.51314 0.0
H3830 H 0.73611 0.94216 0.55973 0.0
H3831 H 0.76242 0.92706 0.55906 0.0
H3832 H 0.68557 0.91557 0.54391 0.0
H3833 H 0.72746 0.97301 0.51498 0.0
H3834 H 0.73326 0.9507 0.51431 0.0
H3835 H 0.73748 0.96555 0.5357 0.0
C3836 C 0.73454 0.90061 0.52325 0.0
C3837 C 0.75022 0.90703 0.53588 0.0
C3838 C 0.71951 0.90929 0.5236 0.0
C3839 C 0.72013 0.92466 0.53639 0.0
C3840 C 0.73537 0.93036 0.54973 0.0
H3841 H 0.65342 1.00884 0.53014 0.0
H3842 H 0.67528 0.99083 0.54238 0.0
C3843 C 0.75031 0.92162 0.54945 0.0
C3844 C 0.70576 0.9358 0.53459 0.0
H3845 H 0.69775 0.97602 0.52049 0.0
C3846 C 0.68822 0.92883 0.53889 0.0
C3847 C 0.70931 0.95313 0.52812 0.0
C3848 C 0.72784 0.96108 0.52286 0.0
C3849 C 0.67406 0.93873 0.53682 0.0
C3850 C 0.67747 0.95586 0.52987 0.0
C3851 C 0.69515 0.96296 0.52594 0.0
C3852 C 0.66268 0.96596 0.52497 0.0
C3853 C 0.65562 0.93081 0.5422 0.0
C3854 C 0.64816 0.95791 0.51143 0.0
C3855 C 0.63575 0.96814 0.50452 0.0
C3856 C 0.63762 0.98664 0.51097 0.0
C3857 C 0.65155 0.99453 0.52519 0.0
C3858 C 0.66408 0.98428 0.53206 0.0
H3859 H 0.65674 0.92113 0.55274 0.0
H3860 H 0.64869 0.94163 0.54788 0.0
H3861 H 0.64696 0.92322 0.5297 0.0
H3862 H 0.647 0.94398 0.50541 0.0
H3863 H 0.62523 0.96185 0.49339 0.0
H3864 H 0.42105 0.45745 0.78458 0.0
H3865 H 0.40006 0.42846 0.78487 0.0
H3866 H 0.36054 0.44597 0.74693 0.0
H3867 H 0.38117 0.47525 0.74753 0.0
H3868 H 0.34323 0.43026 0.77039 0.0
H3869 H 0.38897 0.38481 0.74853 0.0
H3870 H 0.39923 0.39886 0.76945 0.0
H3871 H 0.39478 0.40909 0.74838 0.0
C3872 C 0.4079 0.455 0.77628 0.0
C3873 C 0.40257 0.46862 0.76628 0.0
C3874 C 0.39594 0.43835 0.77627 0.0
C3875 C 0.37873 0.43468 0.76559 0.0
C3876 C 0.37366 0.44828 0.75527 0.0
H3877 H 0.31391 0.32505 0.74353 0.0
H3878 H 0.33344 0.35443 0.74201 0.0
C3879 C 0.38546 0.46504 0.75561 0.0
C3880 C 0.36578 0.41702 0.76568 0.0
H3881 H 0.36268 0.37089 0.76184 0.0
C3882 C 0.34763 0.41737 0.76881 0.0
C3883 C 0.37101 0.39991 0.76248 0.0
C3884 C 0.38949 0.39812 0.7568 0.0
C3885 C 0.3349 0.40137 0.76972 0.0
C3886 C 0.34044 0.38434 0.76763 0.0
C3887 C 0.35843 0.38391 0.76387 0.0
C3888 C 0.32771 0.36675 0.76842 0.0
C3889 C 0.31553 0.40299 0.77242 0.0
C3890 C 0.31775 0.36373 0.78371 0.0
C3891 C 0.30611 0.347 0.78434 0.0
C3892 C 0.30468 0.3328 0.76997 0.0
C3893 C 0.31473 0.33577 0.7548 0.0
C3894 C 0.32598 0.35256 0.75397 0.0
H3895 H 0.31226 0.41589 0.76798 0.0
H3896 H 0.30559 0.39146 0.76451 0.0
H3897 H 0.31377 0.40302 0.78743 0.0
H3898 H 0.31922 0.37416 0.79536 0.0
H3899 H 0.2988 0.34494 0.79637 0.0
H3900 H 0.17615 0.6081 0.27754 0.0
H3901 H 0.19298 0.63962 0.28212 0.0
H3902 H 0.23825 0.62203 0.25791 0.0
H3903 H 0.22078 0.59117 0.25178 0.0
H3904 H 0.22192 0.65303 0.30336 0.0
H3905 H 0.23658 0.66445 0.2318 0.0
H3906 H 0.22104 0.64465 0.23649 0.0
H3907 H 0.24528 0.64504 0.23832 0.0
C3908 C 0.18959 0.61122 0.27299 0.0
C3909 C 0.19769 0.59745 0.26509 0.0
C3910 C 0.19917 0.62907 0.27562 0.0
C3911 C 0.21683 0.63314 0.2703 0.0
C3912 C 0.22451 0.61933 0.26171 0.0
H3913 H 0.30062 0.72794 0.28262 0.0
H3914 H 0.28581 0.69813 0.29017 0.0
C3915 C 0.21474 0.60166 0.25863 0.0
C3916 C 0.2277 0.65156 0.27472 0.0
H3917 H 0.25514 0.68478 0.25635 0.0
C3918 C 0.22921 0.65994 0.29309 0.0
C3919 C 0.23696 0.66066 0.26118 0.0
C3920 C 0.23469 0.65327 0.24084 0.0
C3921 C 0.23994 0.67717 0.29833 0.0
C3922 C 0.24944 0.68588 0.28492 0.0
C3923 C 0.24809 0.67757 0.26664 0.0
C3924 C 0.25885 0.70472 0.28839 0.0
C3925 C 0.2409 0.68619 0.31791 0.0
C3926 C 0.24847 0.71813 0.28556 0.0
C3927 C 0.25675 0.73475 0.28063 0.0
C3928 C 0.27547 0.73819 0.27929 0.0
C3929 C 0.28614 0.72544 0.28394 0.0
C3930 C 0.2778 0.70863 0.28846 0.0
H3931 H 0.23482 0.67662 0.3274 0.0
H3932 H 0.25529 0.69194 0.32347 0.0
H3933 H 0.23343 0.69765 0.31775 0.0
H3934 H 0.23374 0.71499 0.28493 0.0
H3935 H 0.24825 0.74406 0.27608 0.0
H3936 H 0.50772 0.70647 0.43105 0.0
H3937 H 0.51113 0.67728 0.44215 0.0
H3938 H 0.51697 0.70191 0.49887 0.0
H3939 H 0.51399 0.73127 0.48778 0.0
H3940 H 0.5414 0.67913 0.4949 0.0
H3941 H 0.47389 0.64101 0.46267 0.0
H3942 H 0.48741 0.65263 0.44674 0.0
H3943 H 0.47952 0.66554 0.46535 0.0
C3944 C 0.50963 0.70574 0.44591 0.0
C3945 C 0.51042 0.72151 0.4584 0.0
C3946 C 0.51148 0.68884 0.45232 0.0
C3947 C 0.51397 0.68686 0.47152 0.0
C3948 C 0.51502 0.70268 0.48401 0.0
H3949 H 0.49638 0.57955 0.51674 0.0
H3950 H 0.49398 0.60934 0.5064 0.0
C3951 C 0.51327 0.71962 0.4776 0.0
C3952 C 0.51564 0.66854 0.47853 0.0
H3953 H 0.49403 0.62378 0.47605 0.0
C3954 C 0.53097 0.66707 0.49075 0.0
C3955 C 0.50209 0.65251 0.47357 0.0
C3956 C 0.4847 0.65292 0.46151 0.0
C3957 C 0.53323 0.65042 0.49775 0.0
C3958 C 0.51991 0.63421 0.49233 0.0
C3959 C 0.50445 0.6358 0.48033 0.0
C3960 C 0.52153 0.61568 0.49899 0.0
C3961 C 0.5498 0.6507 0.51136 0.0
C3962 C 0.53763 0.60849 0.49822 0.0
C3963 C 0.53907 0.59146 0.50442 0.0
C3964 C 0.5244 0.58053 0.51139 0.0
C3965 C 0.5081 0.5874 0.51168 0.0
C3966 C 0.50672 0.60461 0.50566 0.0
H3967 H 0.55506 0.66452 0.51875 0.0
H3968 H 0.54677 0.64113 0.52191 0.0
H3969 H 0.56082 0.64674 0.50366 0.0
H3970 H 0.54916 0.61591 0.4925 0.0
H3971 H 0.55174 0.58669 0.50335 0.0
H3972 H 0.60942 0.3171 0.67075 0.0
H3973 H 0.63779 0.315 0.68935 0.0
H3974 H 0.6492 0.27691 0.64595 0.0
H3975 H 0.62142 0.2799 0.62691 0.0
H3976 H 0.64902 0.2901 0.70538 0.0
H3977 H 0.69817 0.3062 0.65448 0.0
H3978 H 0.67483 0.30895 0.65027 0.0
H3979 H 0.68082 0.28691 0.64566 0.0
C3980 C 0.61821 0.30862 0.66494 0.0
C3981 C 0.61319 0.29901 0.64705 0.0
C3982 C 0.63447 0.30729 0.67572 0.0
C3983 C 0.64624 0.29608 0.66915 0.0
C3984 C 0.64107 0.28628 0.65132 0.0
H3985 H 0.74548 0.2633 0.71995 0.0
H3986 H 0.71806 0.26627 0.70002 0.0
C3987 C 0.62499 0.28793 0.64036 0.0
C3988 C 0.66332 0.29414 0.68128 0.0
H3989 H 0.70915 0.29403 0.68148 0.0
C3990 C 0.66215 0.29114 0.70007 0.0
C3991 C 0.68073 0.29536 0.6747 0.0
C3992 C 0.68377 0.29972 0.65524 0.0
C3993 C 0.67747 0.28913 0.71214 0.0
C3994 C 0.6948 0.29024 0.70551 0.0
C3995 C 0.69599 0.2931 0.68673 0.0
C3996 C 0.71179 0.28855 0.71775 0.0
C3997 C 0.67478 0.28537 0.73185 0.0
C3998 C 0.71789 0.30019 0.73439 0.0
C3999 C 0.73373 0.29858 0.74571 0.0
C4000 C 0.74412 0.28544 0.74068 0.0
C4001 C 0.73813 0.27387 0.72404 0.0
C4002 C 0.72228 0.27548 0.71268 0.0
H4003 H 0.66029 0.27976 0.73323 0.0
H4004 H 0.68327 0.27565 0.73663 0.0
H4005 H 0.67884 0.29828 0.74122 0.0
H4006 H 0.71051 0.31072 0.73856 0.0
H4007 H 0.73805 0.30785 0.7583 0.0
H4008 H 0.9938 0.32096 0.97453 0.0
H4009 H 0.99616 0.35263 0.98851 0.0
H4010 H 0.0436 0.36911 0.96063 0.0
H4011 H 0.04104 0.33787 0.94648 0.0
H4012 H 0.02277 0.37942 0.01087 0.0
H4013 H 0.01085 0.40182 0.94098 0.0
H4014 H 1.00744 0.37811 0.94466 0.0
H4015 H 0.03003 0.3907 0.94354 0.0
C4016 C 1.00505 0.33124 0.97186 0.0
C4017 C 0.01735 0.3267 0.95949 0.0
C4018 C 1.00629 0.34947 0.9797 0.0
C4019 C 0.0198 0.36362 0.97532 0.0
C4020 C 0.03272 0.35878 0.96393 0.0
H4021 H 0.04556 0.48307 0.99144 0.0
H4022 H 0.04365 0.4506 0.98252 0.0
C4023 C 0.03139 0.34074 0.95602 0.0
C4024 C 0.02016 0.38344 0.98189 0.0
H4025 H 0.01975 0.42505 0.96614 0.0
C4026 C 0.02199 0.38936 1.00107 0.0
C4027 C 0.01926 0.3967 0.96927 0.0
C4028 C 0.01662 0.39153 0.94847 0.0
C4029 C 0.02356 0.40796 0.00789 0.0
C4030 C 0.02265 0.42127 0.99523 0.0
C4031 C 0.02056 0.41521 0.97605 0.0
C4032 C 0.02406 0.44144 1.00134 0.0
C4033 C 0.02699 0.41311 0.02868 0.0
C4034 C 0.01375 0.44774 0.01496 0.0
C4035 C 0.01528 0.46647 0.02053 0.0
C4036 C 0.02652 0.47974 0.01211 0.0
C4037 C 0.0366 0.47347 0.99826 0.0
C4038 C 0.03546 0.45472 0.99305 0.0
H4039 H 0.03343 0.40299 0.03575 0.0
H4040 H 0.03594 0.42667 0.03229 0.0
H4041 H 0.01378 0.41341 0.03428 0.0
H4042 H 1.00432 0.43819 0.02131 0.0
H4043 H 1.0076 0.47047 0.03151 0.0
H4044 H 0.99568 0.80868 0.12572 0.0
H4045 H 0.97114 0.80823 0.1458 0.0
H4046 H 0.9921 0.768 0.17575 0.0
H4047 H 0.0174 0.76964 0.15663 0.0
H4048 H 0.94434 0.78464 0.14987 0.0
H4049 H 0.984 0.79847 0.21933 0.0
H4050 H 0.99484 0.80075 0.19833 0.0
H4051 H 0.98929 0.77883 0.2068 0.0
C4052 C 0.99522 0.80008 0.13691 0.0
C4053 C 1.00861 0.78946 0.13988 0.0
C4054 C 0.98113 0.79973 0.14835 0.0
C4055 C 0.97979 0.78838 0.16275 0.0
C4056 C 0.99308 0.7775 0.16541 0.0
H4057 H 0.88268 0.74243 0.20906 0.0
H4058 H 0.90717 0.75121 0.18974 0.0
C4059 C 1.00751 0.77831 0.15436 0.0
C4060 C 0.96397 0.78716 0.17414 0.0
H4061 H 0.95226 0.78507 0.2185 0.0
C4062 C 0.94621 0.78498 0.1649 0.0
C4063 C 0.96611 0.78791 0.19388 0.0
C4064 C 0.98461 0.79183 0.20514 0.0
C4065 C 0.93072 0.78287 0.17464 0.0
C4066 C 0.93285 0.78234 0.19414 0.0
C4067 C 0.95055 0.78521 0.20351 0.0
C4068 C 0.91691 0.77787 0.20492 0.0
C4069 C 0.91217 0.78134 0.16394 0.0
C4070 C 0.91405 0.78994 0.21988 0.0
C4071 C 0.89986 0.78498 0.23084 0.0
C4072 C 0.88852 0.76771 0.22725 0.0
C4073 C 0.89117 0.75584 0.21207 0.0
C4074 C 0.90514 0.76089 0.20099 0.0
H4075 H 0.91314 0.7873 0.15054 0.0
H4076 H 0.90569 0.76678 0.16076 0.0
H4077 H 0.9032 0.78829 0.17222 0.0
H4078 H 0.923 0.80308 0.22328 0.0
H4079 H 0.89825 0.7943 0.24259 0.0
H4080 H 0.551 0.30629 0.16588 0.0
H4081 H 0.55697 0.33488 0.15143 0.0
H4082 H 0.49919 0.33147 0.13796 0.0
H4083 H 0.49321 0.30305 0.15206 0.0
H4084 H 0.54353 0.3373 0.11184 0.0
H4085 H 0.51882 0.38536 0.16168 0.0
H4086 H 0.52591 0.3649 0.16833 0.0
H4087 H 0.50405 0.36359 0.15532 0.0
C4088 C 0.5396 0.31194 0.16031 0.0
C4089 C 0.52163 0.30249 0.16028 0.0
C4090 C 0.54301 0.32819 0.15191 0.0
C4091 C 0.52851 0.33543 0.14374 0.0
C4092 C 0.51059 0.32634 0.14437 0.0
H4093 H 0.51747 0.40374 0.05623 0.0
H4094 H 0.51414 0.38112 0.07852 0.0
C4095 C 0.5072 0.31006 0.15245 0.0
C4096 C 0.5319 0.35165 0.13325 0.0
H4097 H 0.52418 0.39508 0.13202 0.0
C4098 C 0.53953 0.35 0.11638 0.0
C4099 C 0.52654 0.36821 0.13907 0.0
C4100 C 0.51848 0.37078 0.15716 0.0
C4101 C 0.54149 0.36425 0.105 0.0
C4102 C 0.53575 0.38066 0.11061 0.0
C4103 C 0.52858 0.38252 0.12771 0.0
C4104 C 0.53649 0.39561 0.09838 0.0
C4105 C 0.54948 0.36163 0.08687 0.0
C4106 C 0.54972 0.41167 0.10245 0.0
C4107 C 0.55153 0.42475 0.08974 0.0
C4108 C 0.54013 0.42193 0.07278 0.0
C4109 C 0.52639 0.40626 0.06921 0.0
C4110 C 0.52454 0.3933 0.08189 0.0
H4111 H 0.55579 0.34935 0.08584 0.0
H4112 H 0.53855 0.36011 0.0751 0.0
H4113 H 0.55993 0.37372 0.08531 0.0
H4114 H 0.55911 0.41372 0.11508 0.0
H4115 H 0.5624 0.43657 0.09272 0.0
H4116 H 0.98789 0.32037 0.37266 0.0
H4117 H 0.9561 0.31766 0.35947 0.0
H4118 H 0.96808 0.29082 0.30829 0.0
H4119 H 0.99963 0.29255 0.32202 0.0
H4120 H 0.9388 0.33002 0.33235 0.0
H4121 H 0.92476 0.25515 0.31532 0.0
H4122 H 0.9457 0.26712 0.32854 0.0
H4123 H 0.94274 0.26634 0.30353 0.0
C4124 C 0.98378 0.31396 0.35854 0.0
C4125 C 0.99661 0.30722 0.34824 0.0
C4126 C 0.96549 0.31241 0.35094 0.0
C4127 C 0.9592 0.30377 0.33282 0.0
C4128 C 0.9721 0.29715 0.32243 0.0
H4129 H 0.85166 0.3069 0.27147 0.0
H4130 H 0.88431 0.31137 0.28209 0.0
C4131 C 0.9904 0.29853 0.33014 0.0
C4132 C 0.93923 0.30167 0.32516 0.0
H4133 H 0.90133 0.27055 0.30535 0.0
C4134 C 0.93072 0.31696 0.32643 0.0
C4135 C 0.92823 0.28468 0.31747 0.0
C4136 C 0.93575 0.26736 0.31627 0.0
C4137 C 0.91198 0.31576 0.32029 0.0
C4138 C 0.90114 0.29886 0.31248 0.0
C4139 C 0.90954 0.28357 0.3112 0.0
C4140 C 0.88098 0.29668 0.30616 0.0
C4141 C 0.90367 0.33254 0.32266 0.0
C4142 C 0.86791 0.28688 0.31595 0.0
C4143 C 0.84909 0.28472 0.31014 0.0
C4144 C 0.84264 0.2921 0.29417 0.0
C4145 C 0.85582 0.30161 0.28419 0.0
C4146 C 0.87465 0.30401 0.29017 0.0
H4147 H 0.91323 0.34415 0.33093 0.0
H4148 H 0.89974 0.33662 0.30877 0.0
H4149 H 0.89109 0.3296 0.32965 0.0
H4150 H 0.87227 0.28097 0.32826 0.0
H4151 H 0.83957 0.27718 0.31824 0.0
H4152 H 0.02558 0.69051 0.68146 0.0
H4153 H 0.02766 0.66251 0.66191 0.0
H4154 H 0.0136 0.68711 0.61266 0.0
H4155 H 0.01146 0.71492 0.63191 0.0
H4156 H 0.99381 0.64708 0.61699 0.0
H4157 H 0.06968 0.66036 0.62391 0.0
H4158 H 0.0582 0.66519 0.64401 0.0
H4159 H 0.05709 0.67871 0.62503 0.0
C4160 C 0.02273 0.6899 0.66649 0.0
C4161 C 0.01819 0.70507 0.65839 0.0
C4162 C 0.02401 0.67388 0.65529 0.0
C4163 C 0.02086 0.67263 0.63572 0.0
C4164 C 0.01604 0.68761 0.62766 0.0
H4165 H 0.0489 0.59673 0.54861 0.0
H4166 H 0.04515 0.62332 0.56897 0.0
C4167 C 0.01475 0.70356 0.63879 0.0
C4168 C 0.02276 0.6559 0.62354 0.0
H4169 H 0.05439 0.63377 0.60532 0.0
C4170 C 1.00705 0.64409 0.61455 0.0
C4171 C 0.04001 0.65211 0.61997 0.0
C4172 C 0.05731 0.6647 0.62862 0.0
C4173 C 1.0081 0.62863 0.60231 0.0
C4174 C 0.02539 0.62457 0.59899 0.0
C4175 C 0.04111 0.63658 0.60784 0.0
C4176 C 0.02745 0.60813 0.58629 0.0
C4177 C 0.99059 0.61709 0.59263 0.0
C4178 C 0.01897 0.59046 0.58907 0.0
C4179 C 0.02083 0.57519 0.57717 0.0
C4180 C 0.03148 0.577 0.5622 0.0
C4181 C 0.04024 0.59467 0.55963 0.0
C4182 C 0.03826 0.60997 0.57147 0.0
H4183 H 0.97927 0.6248 0.59214 0.0
H4184 H 0.99222 0.61193 0.57817 0.0
H4185 H 0.98659 0.60527 0.60043 0.0
H4186 H 0.01099 0.58839 0.60062 0.0
H4187 H 0.01394 0.5619 0.57982 0.0
H4188 H 0.59592 0.83337 0.82669 0.0
H4189 H 0.62497 0.82873 0.81627 0.0
H4190 H 0.6264 0.78592 0.8515 0.0
H4191 H 0.59724 0.79062 0.86219 0.0
H4192 H 0.66088 0.80852 0.85311 0.0
H4193 H 0.63419 0.78822 0.77899 0.0
H4194 H 0.62821 0.80882 0.78893 0.0
H4195 H 0.61961 0.78761 0.79741 0.0
C4196 C 0.6023 0.82293 0.83234 0.0
C4197 C 0.59384 0.81246 0.84548 0.0
C4198 C 0.61905 0.82016 0.82616 0.0
C4199 C 0.62817 0.80669 0.83267 0.0
C4200 C 0.61994 0.7964 0.84604 0.0
H4201 H 0.71648 0.76955 0.77409 0.0
H4202 H 0.68787 0.7732 0.78598 0.0
C4203 C 0.60312 0.79916 0.85225 0.0
C4204 C 0.64619 0.80359 0.82573 0.0
H4205 H 0.66617 0.79376 0.78616 0.0
C4206 C 0.66196 0.80523 0.83845 0.0
C4207 C 0.648 0.79896 0.80663 0.0
C4208 C 0.63162 0.79561 0.79215 0.0
C4209 C 0.67913 0.80274 0.83279 0.0
C4210 C 0.6812 0.79886 0.81352 0.0
C4211 C 0.66523 0.7969 0.80086 0.0
C4212 C 0.69942 0.79642 0.80623 0.0
C4213 C 0.69465 0.80377 0.84789 0.0
C4214 C 0.71618 0.80816 0.81294 0.0
C4215 C 0.73292 0.80543 0.80662 0.0
C4216 C 0.73376 0.79128 0.79265 0.0
C4217 C 0.71691 0.7802 0.78515 0.0
C4218 C 0.70022 0.78252 0.79193 0.0
H4219 H 0.68957 0.80045 0.86129 0.0
H4220 H 0.70382 0.79431 0.84409 0.0
H4221 H 0.70262 0.81787 0.85029 0.0
H4222 H 0.71648 0.81971 0.82307 0.0
H4223 H 0.74529 0.8147 0.81262 0.0
H4224 H 0.44689 0.54904 0.71433 0.0
H4225 H 0.4585 0.55238 0.684 0.0
H4226 H 0.46511 0.49643 0.67968 0.0
H4227 H 0.45312 0.49305 0.70977 0.0
H4228 H 0.4912 0.54904 0.67232 0.0
H4229 H 0.43748 0.49741 0.6296 0.0
H4230 H 0.43529 0.50563 0.65328 0.0
H4231 H 0.44889 0.48866 0.64861 0.0
C4232 C 0.45069 0.53745 0.70679 0.0
C4233 C 0.44895 0.52074 0.71429 0.0
C4234 C 0.45738 0.53936 0.68946 0.0
C4235 C 0.46243 0.52458 0.6792 0.0
C4236 C 0.46089 0.50793 0.68691 0.0
H4237 H 0.52967 0.52373 0.58816 0.0
H4238 H 0.51669 0.5225 0.61763 0.0
C4239 C 0.45414 0.50602 0.7042 0.0
C4240 C 0.46969 0.52674 0.66073 0.0
H4241 H 0.46324 0.5093 0.6147 0.0
C4242 C 0.48498 0.54038 0.65974 0.0
C4243 C 0.46163 0.51557 0.64412 0.0
C4244 C 0.44482 0.50111 0.64385 0.0
C4245 C 0.49258 0.54287 0.64287 0.0
C4246 C 0.48472 0.53148 0.62641 0.0
C4247 C 0.46927 0.51806 0.62728 0.0
C4248 C 0.49276 0.53291 0.60835 0.0
C4249 C 0.50896 0.55774 0.6427 0.0
C4250 C 0.48362 0.53908 0.59306 0.0
C4251 C 0.49121 0.54013 0.57606 0.0
C4252 C 0.50802 0.53481 0.57391 0.0
C4253 C 0.51695 0.52842 0.58926 0.0
C4254 C 0.50949 0.52759 0.60622 0.0
H4255 H 0.51158 0.5673 0.6557 0.0
H4256 H 0.5212 0.55157 0.64125 0.0
H4257 H 0.50707 0.56552 0.63062 0.0
H4258 H 0.47061 0.54315 0.5943 0.0
H4259 H 0.48385 0.54495 0.56457 0.0
H4260 H 0.78321 0.13663 0.97357 0.0
H4261 H 0.78593 0.15601 0.94848 0.0
H4262 H 0.78291 0.20248 0.98682 0.0
H4263 H 0.78062 0.18332 0.01214 0.0
H4264 H 0.75766 0.17254 0.93901 0.0
H4265 H 0.8217 0.22386 0.95517 0.0
H4266 H 0.81787 0.20293 0.96584 0.0
H4267 H 0.80801 0.22181 0.97413 0.0
C4268 C 0.78356 0.15106 0.97676 0.0
C4269 C 0.78154 0.15846 0.99475 0.0
C4270 C 0.78523 0.16209 0.96246 0.0
C4271 C 0.78483 0.18064 0.96592 0.0
C4272 C 0.78372 0.18827 0.98402 0.0
H4273 H 0.75191 0.25888 0.89837 0.0
H4274 H 0.76413 0.24368 0.92382 0.0
C4275 C 0.78223 0.17726 0.99841 0.0
C4276 C 0.78242 0.19119 0.95016 0.0
H4277 H 0.79938 0.23003 0.93187 0.0
C4278 C 0.76693 0.18497 0.93728 0.0
C4279 C 0.79445 0.20748 0.94822 0.0
C4280 C 0.81153 0.21436 0.96148 0.0
C4281 C 0.76288 0.1948 0.9226 0.0
C4282 C 0.7748 0.21115 0.92069 0.0
C4283 C 0.79038 0.21741 0.93347 0.0
C4284 C 0.77072 0.22197 0.90562 0.0
C4285 C 0.74563 0.18786 0.90951 0.0
C4286 C 0.77086 0.21486 0.88715 0.0
C4287 C 0.76348 0.22315 0.87269 0.0
C4288 C 0.75614 0.23887 0.87651 0.0
C4289 C 0.75707 0.24656 0.89505 0.0
C4290 C 0.7643 0.23811 0.90955 0.0
H4291 H 0.7362 0.17708 0.91514 0.0
H4292 H 0.73834 0.19911 0.90672 0.0
H4293 H 0.74919 0.18202 0.89605 0.0
H4294 H 0.77581 0.20238 0.88398 0.0
H4295 H 0.76286 0.21678 0.85859 0.0
H4296 H 0.17396 0.56441 0.19602 0.0
H4297 H 0.15547 0.56433 0.16642 0.0
H4298 H 0.12304 0.51264 0.17432 0.0
H4299 H 0.14081 0.51325 0.2045 0.0
H4300 H 0.14475 0.54347 0.13401 0.0
H4301 H 0.08608 0.5453 0.17477 0.0
H4302 H 0.10908 0.54746 0.18569 0.0
H4303 H 0.09566 0.52536 0.17724 0.0
C4304 C 0.16317 0.55283 0.19116 0.0
C4305 C 0.15845 0.53898 0.20246 0.0
C4306 C 0.15263 0.55282 0.17434 0.0
C4307 C 0.13758 0.53879 0.16866 0.0
C4308 C 0.13426 0.52388 0.17892 0.0
H4309 H 0.06867 0.5121 0.06827 0.0
H4310 H 0.09177 0.5158 0.0949 0.0
C4311 C 0.14444 0.52414 0.19598 0.0
C4312 C 0.12436 0.54065 0.15311 0.0
H4313 H 0.07929 0.54064 0.14173 0.0
C4314 C 0.13047 0.543 0.13569 0.0
C4315 C 0.10588 0.54065 0.15562 0.0
C4316 C 0.09882 0.53977 0.17439 0.0
C4317 C 0.11827 0.54443 0.12037 0.0
C4318 C 0.09963 0.54303 0.12264 0.0
C4319 C 0.09366 0.54155 0.14019 0.0
C4320 C 0.08584 0.54129 0.10668 0.0
C4321 C 0.12534 0.54722 0.10186 0.0
C4322 C 0.07449 0.55411 0.10512 0.0
C4323 C 0.06116 0.55199 0.08995 0.0
C4324 C 0.05919 0.53703 0.07641 0.0
C4325 C 0.07017 0.52392 0.07843 0.0
C4326 C 0.08342 0.52605 0.09349 0.0
H4327 H 0.14011 0.55331 0.10363 0.0
H4328 H 0.12346 0.53388 0.09328 0.0
H4329 H 0.11778 0.55614 0.09412 0.0
H4330 H 0.07613 0.5658 0.11547 0.0
H4331 H 0.0528 0.56223 0.08853 0.0
H4332 H 0.79195 0.84008 0.48955 0.0
H4333 H 0.79064 0.82253 0.4588 0.0
H4334 H 0.78673 0.87062 0.43201 0.0
H4335 H 0.78777 0.88803 0.46208 0.0
H4336 H 0.76015 0.82426 0.42134 0.0
H4337 H 0.83446 0.84587 0.41711 0.0
H4338 H 0.82532 0.84345 0.43912 0.0
H4339 H 0.82218 0.86238 0.42671 0.0
C4340 C 0.79057 0.84686 0.47712 0.0
C4341 C 0.78995 0.86556 0.47854 0.0
C4342 C 0.78987 0.83682 0.45953 0.0
C4343 C 0.78867 0.84529 0.44305 0.0
C4344 C 0.78768 0.86376 0.44445 0.0
H4345 H 0.77138 0.82352 0.32384 0.0
H4346 H 0.7725 0.83376 0.35688 0.0
C4347 C 0.78826 0.87371 0.46183 0.0
C4348 C 0.78888 0.83533 0.42426 0.0
H4349 H 0.81635 0.83107 0.3896 0.0
C4350 C 0.77249 0.8255 0.41451 0.0
C4351 C 0.80492 0.83709 0.41521 0.0
C4352 C 0.82281 0.84769 0.425 0.0
C4353 C 0.77166 0.81779 0.39587 0.0
C4354 C 0.78762 0.81995 0.38666 0.0
C4355 C 0.80412 0.82933 0.39661 0.0
C4356 C 0.78714 0.81347 0.36644 0.0
C4357 C 0.75366 0.80754 0.38598 0.0
C4358 C 0.79519 0.79871 0.3606 0.0
C4359 C 0.79435 0.79258 0.34154 0.0
C4360 C 0.78572 0.80129 0.32784 0.0
C4361 C 0.77799 0.81628 0.33383 0.0
C4362 C 0.77863 0.82222 0.35281 0.0
H4363 H 0.74332 0.80439 0.39578 0.0
H4364 H 0.74835 0.81586 0.37566 0.0
H4365 H 0.75547 0.79463 0.37829 0.0
H4366 H 0.80187 0.79173 0.37082 0.0
H4367 H 0.80027 0.78089 0.3376 0.0
H4368 H 0.47052 0.50979 0.81314 0.0
H4369 H 0.48698 0.51026 0.84424 0.0
H4370 H 0.44946 0.54026 0.86837 0.0
H4371 H 0.43285 0.53947 0.83769 0.0
H4372 H 0.50441 0.537 0.87276 0.0
H4373 H 0.44379 0.49643 0.89695 0.0
H4374 H 0.44518 0.49948 0.87273 0.0
H4375 H 0.43915 0.5169 0.88835 0.0
C4376 C 0.46597 0.51674 0.82504 0.0
C4377 C 0.45023 0.52446 0.82285 0.0
C4378 C 0.47535 0.51693 0.84286 0.0
C4379 C 0.4692 0.52485 0.85884 0.0
C4380 C 0.45421 0.53355 0.85645 0.0
H4381 H 0.49186 0.5394 0.97829 0.0
H4382 H 0.48108 0.5385 0.94552 0.0
C4383 C 0.44478 0.53322 0.83878 0.0
C4384 C 0.47788 0.5236 0.87808 0.0
H4385 H 0.4679 0.51031 0.92038 0.0
C4386 C 0.49648 0.531 0.88312 0.0
C4387 C 0.46763 0.51568 0.8917 0.0
C4388 C 0.44789 0.50651 0.88714 0.0
C4389 C 0.50484 0.53144 0.90152 0.0
C4390 C 0.49442 0.52397 0.91526 0.0
C4391 C 0.47595 0.51615 0.91001 0.0
C4392 C 0.50191 0.52493 0.93536 0.0
C4393 C 0.52456 0.54057 0.90621 0.0
C4394 C 0.51728 0.51753 0.94093 0.0
C4395 C 0.52383 0.51846 0.95992 0.0
C4396 C 0.51501 0.52659 0.97382 0.0
C4397 C 0.49939 0.53351 0.96813 0.0
C4398 C 0.49304 0.53282 0.94926 0.0
H4399 H 0.52927 0.54948 0.89555 0.0
H4400 H 0.52677 0.54887 0.91998 0.0
H4401 H 0.53314 0.53002 0.90681 0.0
H4402 H 0.52414 0.51088 0.93063 0.0
H4403 H 0.53584 0.5129 0.96367 0.0
H4404 H 0.81104 0.17126 0.10147 0.0
H4405 H 0.81318 0.18823 0.13233 0.0
H4406 H 0.75496 0.17181 0.1325 0.0
H4407 H 0.75319 0.15368 0.10249 0.0
H4408 H 0.79858 0.2162 0.13763 0.0
H4409 H 0.77042 0.16726 0.18486 0.0
H4410 H 0.77635 0.15988 0.16227 0.0
H4411 H 0.75474 0.16668 0.16454 0.0
C4412 C 0.79891 0.17084 0.10854 0.0
C4413 C 0.78201 0.16123 0.10001 0.0
C4414 C 0.80008 0.1805 0.12603 0.0
C4415 C 0.78425 0.18108 0.13477 0.0
C4416 C 0.76742 0.17102 0.12634 0.0
H4417 H 0.76382 0.2661 0.21386 0.0
H4418 H 0.76268 0.24419 0.18628 0.0
C4419 C 0.76638 0.16082 0.10918 0.0
C4420 C 0.78498 0.19412 0.15129 0.0
H4421 H 0.77179 0.19892 0.19483 0.0
C4422 C 0.79291 0.21234 0.1502 0.0
C4423 C 0.77741 0.18905 0.1676 0.0
C4424 C 0.76942 0.16961 0.16994 0.0
C4425 C 0.79344 0.22567 0.16502 0.0
C4426 C 0.78551 0.22062 0.18099 0.0
C4427 C 0.77761 0.20253 0.18224 0.0
C4428 C 0.78626 0.23391 0.19704 0.0
C4429 C 0.80264 0.24501 0.16373 0.0
C4430 C 0.80003 0.23519 0.21171 0.0
C4431 C 0.80081 0.24764 0.22721 0.0
C4432 C 0.78771 0.25877 0.22817 0.0
C4433 C 0.77409 0.25767 0.21326 0.0
C4434 C 0.77335 0.24519 0.19769 0.0
H4435 H 0.80864 0.24657 0.15042 0.0
H4436 H 0.79261 0.25413 0.16496 0.0
H4437 H 0.81362 0.24952 0.17546 0.0
H4438 H 0.8101 0.22653 0.21116 0.0
H4439 H 0.81154 0.24839 0.2385 0.0
H4440 H 0.1772 0.52884 0.32384 0.0
H4441 H 0.15721 0.52412 0.34839 0.0
H4442 H 0.11848 0.55056 0.31891 0.0
H4443 H 0.13788 0.55429 0.29394 0.0
H4444 H 0.15023 0.55059 0.36941 0.0
H4445 H 0.08404 0.51105 0.33622 0.0
H4446 H 0.10445 0.51279 0.32465 0.0
H4447 H 0.09092 0.53032 0.32405 0.0
C4448 C 0.1642 0.53322 0.32249 0.0
C4449 C 0.15898 0.54191 0.30715 0.0
C4450 C 0.15278 0.53044 0.33639 0.0
C4451 C 0.13621 0.53666 0.33528 0.0
C4452 C 0.13085 0.54501 0.31972 0.0
H4453 H 0.06898 0.57967 0.40622 0.0
H4454 H 0.08287 0.56658 0.3804 0.0
C4455 C 0.14204 0.54736 0.30559 0.0
C4456 C 0.12602 0.53714 0.3516 0.0
H4457 H 0.08308 0.53082 0.36462 0.0
C4458 C 0.13561 0.54583 0.3685 0.0
C4459 C 0.10695 0.531 0.3503 0.0
C4460 C 0.09608 0.52061 0.33284 0.0
C4461 C 0.12653 0.5496 0.38387 0.0
C4462 C 0.10735 0.54432 0.38226 0.0
C4463 C 0.0978 0.53488 0.36567 0.0
C4464 C 0.09699 0.54996 0.39719 0.0
C4465 C 0.13748 0.56012 0.40129 0.0
C4466 C 0.10006 0.54455 0.41494 0.0
C4467 C 0.09278 0.55251 0.42981 0.0
C4468 C 0.08177 0.56558 0.42704 0.0
C4469 C 0.07774 0.57002 0.40892 0.0
C4470 C 0.0854 0.56233 0.39411 0.0
H4471 H 0.1515 0.56636 0.39878 0.0
H4472 H 0.13067 0.57105 0.40689 0.0
H4473 H 0.13869 0.55075 0.41209 0.0
H4474 H 0.10878 0.5348 0.41745 0.0
H4475 H 0.09643 0.54887 0.44356 0.0
H4476 H 0.823 0.87219 0.59736 0.0
H4477 H 0.81994 0.85942 0.6271 0.0
H4478 H 0.76154 0.84634 0.61324 0.0
H4479 H 0.76485 0.85775 0.58295 0.0
H4480 H 0.80625 0.86672 0.65661 0.0
H4481 H 0.76695 0.79889 0.62768 0.0
H4482 H 0.77671 0.81511 0.61293 0.0
H4483 H 0.75517 0.81655 0.62154 0.0
C4484 C 0.80954 0.86643 0.60066 0.0
C4485 C 0.79419 0.86576 0.58774 0.0
C4486 C 0.80775 0.85914 0.61772 0.0
C4487 C 0.79051 0.85131 0.62251 0.0
C4488 C 0.7751 0.85144 0.60981 0.0
H4489 H 0.77005 0.82878 0.73692 0.0
H4490 H 0.77217 0.84216 0.70737 0.0
C4491 C 0.77695 0.85819 0.59251 0.0
C4492 C 0.78874 0.84335 0.64079 0.0
H4493 H 0.76898 0.80599 0.6605 0.0
C4494 C 0.7981 0.85341 0.65733 0.0
C4495 C 0.77834 0.82581 0.64207 0.0
C4496 C 0.7689 0.8134 0.62508 0.0
C4497 C 0.7972 0.84664 0.67482 0.0
C4498 C 0.78631 0.82946 0.6761 0.0
C4499 C 0.77711 0.81929 0.65964 0.0
C4500 C 0.78492 0.82144 0.69424 0.0
C4501 C 0.80839 0.85769 0.69178 0.0
C4502 C 0.79103 0.80515 0.69675 0.0
C4503 C 0.78986 0.79751 0.71362 0.0
C4504 C 0.78239 0.80584 0.7285 0.0
C4505 C 0.77603 0.82205 0.7259 0.0
C4506 C 0.7773 0.82976 0.70899 0.0
H4507 H 0.81876 0.86886 0.688 0.0
H4508 H 0.79927 0.8638 0.70059 0.0
H4509 H 0.81544 0.84889 0.70024 0.0
H4510 H 0.79692 0.79839 0.68566 0.0
H4511 H 0.79495 0.78505 0.715 0.0
H4512 H 0.75855 0.47341 0.48094 0.0
H4513 H 0.72854 0.48054 0.48464 0.0
H4514 H 0.71667 0.43557 0.51717 0.0
H4515 H 0.74659 0.42832 0.51383 0.0
H4516 H 0.69066 0.45642 0.47774 0.0
H4517 H 0.71681 0.48487 0.55087 0.0
H4518 H 0.73169 0.48109 0.53337 0.0
H4519 H 0.72045 0.4623 0.54416 0.0
C4520 C 0.74952 0.46494 0.48876 0.0
C4521 C 0.75497 0.45045 0.4973 0.0
C4522 C 0.73239 0.46893 0.49067 0.0
C4523 C 0.7207 0.4585 0.50111 0.0
C4524 C 0.72573 0.44363 0.50901 0.0
H4525 H 0.63048 0.47597 0.55615 0.0
H4526 H 0.64986 0.45968 0.53835 0.0
C4527 C 0.74282 0.43963 0.50717 0.0
C4528 C 0.70408 0.46435 0.50562 0.0
H4529 H 0.68544 0.48267 0.54184 0.0
C4530 C 0.68936 0.46215 0.49171 0.0
C4531 C 0.7029 0.47201 0.52381 0.0
C4532 C 0.71883 0.47539 0.53891 0.0
C4533 C 0.67295 0.46709 0.4958 0.0
C4534 C 0.67163 0.47424 0.51413 0.0
C4535 C 0.68655 0.47674 0.52788 0.0
C4536 C 0.65537 0.48032 0.51966 0.0
C4537 C 0.65716 0.46451 0.48074 0.0
C4538 C 0.65165 0.4968 0.51433 0.0
C4539 C 0.64067 0.50607 0.52446 0.0
C4540 C 0.63371 0.49895 0.54008 0.0
C4541 C 0.63612 0.48172 0.54433 0.0
C4542 C 0.64687 0.47235 0.53405 0.0
H4543 H 0.65948 0.45615 0.46808 0.0
H4544 H 0.64442 0.45794 0.48592 0.0
H4545 H 0.65519 0.478 0.47681 0.0
H4546 H 0.65849 0.50325 0.5035 0.0
H4547 H 0.63876 0.51935 0.521 0.0
H4548 H 0.23198 0.1293 0.51866 0.0
H4549 H 0.20325 0.10829 0.51765 0.0
H4550 H 0.1746 0.15195 0.5071 0.0
H4551 H 0.20358 0.17176 0.5042 0.0
H4552 H 0.17978 0.10284 0.53544 0.0
H4553 H 0.14187 0.1182 0.472 0.0
H4554 H 0.16568 0.12766 0.47798 0.0
H4555 H 0.1485 0.13862 0.48762 0.0
C4556 C 0.21949 0.13399 0.51481 0.0
C4557 C 0.22002 0.15161 0.50979 0.0
C4558 C 0.2029 0.12212 0.51487 0.0
C4559 C 0.18622 0.12801 0.51152 0.0
C4560 C 0.18689 0.14635 0.50838 0.0
H4561 H 0.09182 0.06158 0.55082 0.0
H4562 H 0.12051 0.08178 0.54805 0.0
C4563 C 0.20355 0.15788 0.50708 0.0
C4564 C 0.16849 0.11521 0.51244 0.0
H4565 H 0.12387 0.10344 0.49373 0.0
C4566 C 0.16778 0.10278 0.52587 0.0
C4567 C 0.15249 0.11457 0.50003 0.0
C4568 C 0.15226 0.12533 0.48349 0.0
C4569 C 0.152 0.08988 0.52711 0.0
C4570 C 0.13557 0.09048 0.51596 0.0
C4571 C 0.1362 0.10292 0.50257 0.0
C4572 C 0.11771 0.0784 0.51781 0.0
C4573 C 0.15363 0.07528 0.53979 0.0
C4574 C 0.10563 0.07051 0.50189 0.0
C4575 C 0.08855 0.06003 0.50359 0.0
C4576 C 0.08349 0.05655 0.52119 0.0
C4577 C 0.09562 0.06387 0.53708 0.0
C4578 C 0.11219 0.07524 0.53544 0.0
H4579 H 0.16761 0.0722 0.54084 0.0
H4580 H 0.15114 0.08018 0.55403 0.0
H4581 H 0.14388 0.06244 0.53478 0.0
H4582 H 0.10929 0.07254 0.48806 0.0
H4583 H 0.07934 0.05451 0.49116 0.0
H4584 H 0.14105 0.98547 0.80116 0.0
H4585 H 0.15357 0.95731 0.79716 0.0
H4586 H 0.19904 0.98627 0.77317 0.0
H4587 H 0.18641 0.01396 0.77659 0.0
H4588 H 0.16665 0.94061 0.76045 0.0
H4589 H 0.22007 0.96279 0.82082 0.0
H4590 H 0.19885 0.97104 0.81906 0.0
H4591 H 0.2164 0.97933 0.80516 0.0
C4592 C 0.15347 0.98562 0.79465 0.0
C4593 C 0.16285 1.00186 0.78927 0.0
C4594 C 0.16069 0.96966 0.79255 0.0
C4595 C 0.17741 0.96988 0.78522 0.0
C4596 C 0.18631 0.98592 0.77916 0.0
H4597 H 0.25211 0.89692 0.763 0.0
H4598 H 0.23827 0.92344 0.77131 0.0
C4599 C 0.17908 1.00172 0.78113 0.0
C4600 C 0.18581 0.95351 0.7838 0.0
H4601 H 0.2222 0.93632 0.80147 0.0
C4602 C 0.17865 0.93951 0.76953 0.0
C4603 C 0.20166 0.95237 0.79549 0.0
C4604 C 0.20973 0.9671 0.8111 0.0
C4605 C 0.18716 0.92451 0.76636 0.0
C4606 C 0.20297 0.92324 0.77815 0.0
C4607 C 0.21007 0.93725 0.79251 0.0
C4608 C 0.21226 0.90746 0.77559 0.0
C4609 C 0.17949 0.9105 0.74996 0.0
C4610 C 0.20257 0.88977 0.77613 0.0
C4611 C 0.21035 0.87474 0.77122 0.0
C4612 C 0.2281 0.8771 0.76605 0.0
C4613 C 0.23838 0.89478 0.76692 0.0
C4614 C 0.23047 0.90989 0.77161 0.0
H4615 H 0.17073 0.91596 0.73952 0.0
H4616 H 0.19056 0.90569 0.74297 0.0
H4617 H 0.17097 0.89864 0.75489 0.0
H4618 H 0.18873 0.88756 0.77973 0.0
H4619 H 0.20227 0.86122 0.77088 0.0
H4620 H 0.33858 0.97323 0.02135 0.0
H4621 H 0.36948 0.991 0.02762 0.0
H4622 H 0.39021 0.94566 1.00248 0.0
H4623 H 0.35898 0.92847 0.99473 0.0
H4624 H 0.39604 0.98337 0.04967 0.0
H4625 H 0.41656 0.98657 0.97857 0.0
H4626 H 0.39356 0.97766 0.98267 0.0
H4627 H 0.41041 0.96346 0.98344 0.0
C4628 C 0.34973 0.96745 0.01645 0.0
C4629 C 0.34665 0.95 0.00682 0.0
C4630 C 0.3673 0.97743 0.02031 0.0
C4631 C 0.38197 0.96969 0.01521 0.0
C4632 C 0.37893 0.952 0.00596 0.0
H4633 H 0.49479 0.99509 0.02848 0.0
H4634 H 0.46458 0.98111 0.03504 0.0
C4635 C 0.36125 0.9422 1.00167 0.0
C4636 C 0.40053 0.97973 0.0207 0.0
H4637 H 0.4406 0.9943 1.0038 0.0
C4638 C 0.40577 0.98593 0.03965 0.0
C4639 C 0.41304 0.98302 0.00751 0.0
C4640 C 0.40804 0.97746 0.98689 0.0
C4641 C 0.42353 0.99505 0.04582 0.0
C4642 C 0.43601 0.9977 0.03268 0.0
C4643 C 0.43074 0.99187 0.01376 0.0
C4644 C 0.45486 1.00651 0.03778 0.0
C4645 C 0.42906 1.00156 0.06616 0.0
C4646 C 0.45933 0.02543 0.03822 0.0
C4647 C 0.47668 0.03343 0.03482 0.0
C4648 C 0.48938 0.02245 0.03104 0.0
C4649 C 0.48534 1.00376 0.03217 0.0
C4650 C 0.46815 0.99581 0.0359 0.0
H4651 H 0.41777 0.99784 0.07477 0.0
H4652 H 0.44088 0.99566 0.07133 0.0
H4653 H 0.43348 0.01658 0.06795 0.0
H4654 H 0.44895 0.03369 0.0392 0.0
H4655 H 0.47976 0.04792 0.03375 0.0
H4656 H 0.8353 0.55698 0.81534 0.0
H4657 H 0.82544 0.58576 0.81132 0.0
H4658 H 0.87866 0.60852 0.79701 0.0
H4659 H 0.88856 0.57976 0.80055 0.0
H4660 H 0.83906 0.62255 0.82661 0.0
H4661 H 0.84331 0.61038 0.75068 0.0
H4662 H 0.84422 0.59292 0.76601 0.0
H4663 H 0.8642 0.60979 0.76465 0.0
C4664 C 0.84496 0.56819 0.81155 0.0
C4665 C 0.86258 0.56612 0.80792 0.0
C4666 C 0.83932 0.58457 0.80934 0.0
C4667 C 0.85129 0.59896 0.80361 0.0
C4668 C 0.86922 0.59732 0.80114 0.0
H4669 H 0.84694 0.70026 0.76348 0.0
H4670 H 0.85619 0.67641 0.78079 0.0
C4671 C 0.8748 0.58093 0.80312 0.0
C4672 C 0.84469 0.6152 0.79866 0.0
H4673 H 0.839 0.6397 0.76221 0.0
C4674 C 0.83894 0.62636 0.81256 0.0
C4675 C 0.8443 0.61972 0.78019 0.0
C4676 C 0.84915 0.60748 0.76448 0.0
C4677 C 0.83344 0.64254 0.80853 0.0
C4678 C 0.83386 0.6474 0.79027 0.0
C4679 C 0.83911 0.63595 0.7763 0.0
C4680 C 0.82869 0.66416 0.78484 0.0
C4681 C 0.82754 0.65447 0.82372 0.0
C4682 C 0.81024 0.66527 0.78202 0.0
C4683 C 0.80491 0.67871 0.77196 0.0
C4684 C 0.81803 0.69102 0.76457 0.0
C4685 C 0.83659 0.6907 0.76876 0.0
C4686 C 0.84189 0.67729 0.7788 0.0
H4687 H 0.83042 0.65001 0.83768 0.0
H4688 H 0.83454 0.6688 0.82382 0.0
H4689 H 0.81265 0.65402 0.82096 0.0
H4690 H 0.79991 0.65497 0.78634 0.0
H4691 H 0.79049 0.67861 0.76884 0.0
H4692 H 0.82289 0.65867 0.986 0.0
H4693 H 0.85023 0.64511 0.99056 0.0
H4694 H 0.83848 0.63566 0.04621 0.0
H4695 H 0.81134 0.64962 0.04183 0.0
H4696 H 0.8812 0.65439 0.02835 0.0
H4697 H 0.84045 0.58457 0.00812 0.0
H4698 H 0.83375 0.60432 0.99918 0.0
H4699 H 0.83127 0.60051 0.02287 0.0
C4700 C 0.82652 0.6542 0.99939 0.0
C4701 C 0.81539 0.65554 0.01375 0.0
C4702 C 0.84199 0.64636 1.00191 0.0
C4703 C 0.84624 0.63937 0.01867 0.0
C4704 C 0.8354 0.64109 0.03322 0.0
H4705 H 0.9213 0.57433 0.06008 0.0
H4706 H 0.89445 0.58744 0.05114 0.0
C4707 C 0.82008 0.64922 0.0308 0.0
C4708 C 0.86161 0.62961 0.02073 0.0
H4709 H 0.87168 0.58701 0.01834 0.0
C4710 C 0.87921 0.63968 0.02609 0.0
C4711 C 0.85882 0.61044 0.0177 0.0
C4712 C 0.84009 0.5992 0.01157 0.0
C4713 C 0.89417 0.63101 0.02898 0.0
C4714 C 0.89142 0.61177 0.02607 0.0
C4715 C 0.87377 0.60173 0.0205 0.0
C4716 C 0.90662 0.60188 0.02959 0.0
C4717 C 0.91267 0.64254 0.03572 0.0
C4718 C 0.92201 0.60498 0.01989 0.0
C4719 C 0.9373 0.59757 0.02504 0.0
C4720 C 0.93727 0.58668 0.03971 0.0
C4721 C 0.92148 0.58256 0.0486 0.0
C4722 C 0.90622 0.59009 0.04354 0.0
H4723 H 0.91164 0.65648 0.04151 0.0
H4724 H 0.92 0.63622 0.0466 0.0
H4725 H 0.92095 0.64379 0.02387 0.0
H4726 H 0.92245 0.61369 0.0088 0.0
H4727 H 0.94943 0.60095 0.0181 0.0
H4728 H 0.14878 0.11157 0.80992 0.0
H4729 H 0.16934 0.14079 0.80854 0.0
H4730 H 0.20513 0.11263 0.77897 0.0
H4731 H 0.1844 0.08373 0.77982 0.0
H4732 H 0.20588 0.15317 0.82181 0.0
H4733 H 0.1966 0.15042 0.74482 0.0
H4734 H 0.182 0.13529 0.75735 0.0
H4735 H 0.20413 0.13094 0.75305 0.0
C4736 C 0.16106 0.11172 0.80316 0.0
C4737 C 0.16524 0.09542 0.79534 0.0
C4738 C 0.17281 0.12836 0.8024 0.0
C4739 C 0.1887 0.12899 0.79342 0.0
C4740 C 0.19282 0.11262 0.78564 0.0
H4741 H 0.27182 0.21812 0.7674 0.0
H4742 H 0.2545 0.18815 0.77161 0.0
C4743 C 0.18109 0.09607 0.78636 0.0
C4744 C 0.20093 0.14669 0.79206 0.0
H4745 H 0.21956 0.17395 0.7609 0.0
C4746 C 0.20886 0.15772 0.80849 0.0
C4747 C 0.20491 0.15264 0.77468 0.0
C4748 C 0.19635 0.1418 0.75646 0.0
C4749 C 0.22081 0.17438 0.80805 0.0
C4750 C 0.22463 0.18045 0.79066 0.0
C4751 C 0.21677 0.16934 0.77424 0.0
C4752 C 0.23606 0.1986 0.78913 0.0
C4753 C 0.22948 0.18508 0.8263 0.0
C4754 C 0.23153 0.21453 0.79747 0.0
C4755 C 0.24166 0.2316 0.79544 0.0
C4756 C 0.25644 0.23331 0.78469 0.0
C4757 C 0.26093 0.21736 0.77622 0.0
C4758 C 0.25086 0.2002 0.77844 0.0
H4759 H 0.23024 0.17611 0.83756 0.0
H4760 H 0.24345 0.1925 0.82512 0.0
H4761 H 0.22105 0.19513 0.8305 0.0
H4762 H 0.21986 0.21383 0.80525 0.0
H4763 H 0.23761 0.24354 0.80203 0.0
H4764 H 0.34624 0.97938 0.28104 0.0
H4765 H 0.33033 0.94789 0.27446 0.0
H4766 H 0.37727 0.9302 0.30061 0.0
H4767 H 0.39267 0.96205 0.30855 0.0
H4768 H 0.3407 0.92285 0.2524 0.0
H4769 H 0.33673 0.90052 0.32291 0.0
H4770 H 0.34408 0.92394 0.3193 0.0
H4771 H 0.35975 0.90853 0.31845 0.0
C4772 C 0.3528 0.96877 0.28605 0.0
C4773 C 0.37023 0.97291 0.29595 0.0
C4774 C 0.34386 0.95084 0.28205 0.0
C4775 C 0.35258 0.93682 0.28727 0.0
C4776 C 0.37018 0.94092 0.29694 0.0
H4777 H 0.32823 0.82256 0.26187 0.0
H4778 H 0.3415 0.85406 0.25909 0.0
C4779 C 0.37898 0.95897 0.30133 0.0
C4780 C 0.34363 0.91794 0.28129 0.0
H4781 H 0.32888 0.87736 0.29718 0.0
C4782 C 0.33803 0.91291 0.26219 0.0
C4783 C 0.34025 0.9051 0.29416 0.0
C4784 C 0.34537 0.90982 0.31487 0.0
C4785 C 0.32907 0.89523 0.25561 0.0
C4786 C 0.32591 0.88254 0.26847 0.0
C4787 C 0.33152 0.88742 0.28749 0.0
C4788 C 0.31659 0.86392 0.2628 0.0
C4789 C 0.32295 0.89008 0.23513 0.0
C4790 C 0.29803 0.85928 0.26474 0.0
C4791 C 0.29038 0.84133 0.26625 0.0
C4792 C 0.30139 0.82811 0.26603 0.0
C4793 C 0.31945 0.83251 0.26195 0.0
C4794 C 0.32706 0.85045 0.26035 0.0
H4795 H 0.32647 0.90166 0.22685 0.0
H4796 H 0.32938 0.87871 0.22985 0.0
H4797 H 0.30796 0.88517 0.23299 0.0
H4798 H 0.28995 0.86972 0.26684 0.0
H4799 H 0.27635 0.83811 0.26922 0.0
H4800 H 0.56761 0.35557 0.61792 0.0
H4801 H 0.56525 0.38578 0.60817 0.0
H4802 H 0.53882 0.36031 0.55458 0.0
H4803 H 0.54073 0.33058 0.56419 0.0
H4804 H 0.57719 0.40625 0.5812 0.0
H4805 H 0.50215 0.39018 0.56662 0.0
H4806 H 0.51474 0.37545 0.57839 0.0
H4807 H 0.51259 0.37445 0.55335 0.0
C4808 C 0.56137 0.35638 0.60403 0.0
C4809 C 0.55422 0.34024 0.59207 0.0
C4810 C 0.55994 0.37379 0.59841 0.0
C4811 C 0.55126 0.3757 0.58068 0.0
C4812 C 0.54493 0.35962 0.56855 0.0
H4813 H 0.52615 0.46502 0.51664 0.0
H4814 H 0.52993 0.43588 0.52752 0.0
C4815 C 0.54623 0.34239 0.57413 0.0
C4816 C 0.54879 0.3942 0.57465 0.0
H4817 H 0.51701 0.41697 0.55519 0.0
C4818 C 0.56395 0.40855 0.5757 0.0
C4819 C 0.53161 0.39766 0.56723 0.0
C4820 C 0.51433 0.38369 0.56649 0.0
C4821 C 0.56255 0.42564 0.56928 0.0
C4822 C 0.54539 0.42903 0.56178 0.0
C4823 C 0.53024 0.41471 0.56078 0.0
C4824 C 0.54282 0.44721 0.55507 0.0
C4825 C 0.57973 0.43972 0.57001 0.0
C4826 C 0.54833 0.46376 0.56675 0.0
C4827 C 0.54577 0.48054 0.56061 0.0
C4828 C 0.53756 0.4816 0.54248 0.0
C4829 C 0.5321 0.46504 0.53077 0.0
C4830 C 0.53445 0.44819 0.53701 0.0
H4831 H 0.59206 0.43343 0.57053 0.0
H4832 H 0.57945 0.44752 0.55776 0.0
H4833 H 0.58102 0.44939 0.58278 0.0
H4834 H 0.55444 0.46374 0.58087 0.0
H4835 H 0.55023 0.49278 0.57022 0.0
H4836 H 0.44821 0.78864 0.42915 0.0
H4837 H 0.42113 0.78858 0.40742 0.0
H4838 H 0.43746 0.74841 0.36948 0.0
H4839 H 0.46525 0.74986 0.39051 0.0
H4840 H 0.42533 0.76751 0.34929 0.0
H4841 H 0.37343 0.75827 0.39765 0.0
H4842 H 0.3895 0.77867 0.40596 0.0
H4843 H 0.39677 0.75698 0.40462 0.0
C4844 C 0.44587 0.77971 0.41623 0.0
C4845 C 0.45896 0.76941 0.41149 0.0
C4846 C 0.43018 0.77946 0.4038 0.0
C4847 C 0.42659 0.76813 0.38669 0.0
C4848 C 0.43954 0.75736 0.38238 0.0
H4849 H 0.3188 0.75284 0.32057 0.0
H4850 H 0.34516 0.75014 0.34204 0.0
C4851 C 0.45549 0.75808 0.39452 0.0
C4852 C 0.41005 0.76815 0.3729 0.0
H4853 H 0.36441 0.76958 0.36905 0.0
C4854 C 0.41216 0.76821 0.35381 0.0
C4855 C 0.39223 0.76787 0.37815 0.0
C4856 C 0.38781 0.7652 0.39767 0.0
C4857 C 0.39761 0.76895 0.34024 0.0
C4858 C 0.38012 0.77003 0.3457 0.0
C4859 C 0.37777 0.76923 0.36466 0.0
C4860 C 0.36404 0.77145 0.33205 0.0
C4861 C 0.4012 0.76798 0.32009 0.0
C4862 C 0.36546 0.78435 0.31907 0.0
C4863 C 0.35045 0.7855 0.30635 0.0
C4864 C 0.33337 0.77423 0.30663 0.0
C4865 C 0.33177 0.76166 0.31986 0.0
C4866 C 0.3469 0.76018 0.33226 0.0
H4867 H 0.41273 0.76094 0.31772 0.0
H4868 H 0.38903 0.76073 0.31068 0.0
H4869 H 0.40504 0.78198 0.31623 0.0
H4870 H 0.37813 0.7938 0.3189 0.0
H4871 H 0.3521 0.79564 0.29667 0.0
H4872 H 0.06192 0.74818 0.074 0.0
H4873 H 0.06047 0.71664 0.06085 0.0
H4874 H 0.03687 0.69757 0.10896 0.0
H4875 H 0.03878 0.72913 0.12225 0.0
H4876 H 0.06162 0.67874 0.10162 0.0
H4877 H 0.02084 0.67854 0.03384 0.0
H4878 H 0.04039 0.6966 0.03841 0.0
H4879 H 0.02225 0.69583 0.05309 0.0
C4880 C 0.05593 0.73726 0.08152 0.0
C4881 C 0.04992 0.74132 0.09897 0.0
C4882 C 0.05509 0.71906 0.07396 0.0
C4883 C 0.04819 0.70427 0.08357 0.0
C4884 C 0.0422 0.70843 0.10102 0.0
H4885 H 0.01341 0.58945 0.04033 0.0
H4886 H 0.01642 0.62167 0.05122 0.0
C4887 C 0.04318 0.72659 0.10862 0.0
C4888 C 0.04795 0.6846 0.07609 0.0
H4889 H 0.03353 0.65261 0.03811 0.0
C4890 C 0.05548 0.67314 0.08769 0.0
C4891 C 0.03985 0.6768 0.05795 0.0
C4892 C 0.03023 0.68749 0.04508 0.0
C4893 C 0.05513 0.65454 0.08181 0.0
C4894 C 0.04732 0.64692 0.06358 0.0
C4895 C 0.03978 0.65831 0.05198 0.0
C4896 C 0.04583 0.627 0.05667 0.0
C4897 C 0.06261 0.64303 0.09545 0.0
C4898 C 0.06131 0.61886 0.05564 0.0
C4899 C 0.05957 0.60017 0.04946 0.0
C4900 C 0.04232 0.58899 0.04411 0.0
C4901 C 0.02694 0.59734 0.0447 0.0
C4902 C 0.02865 0.61594 0.05082 0.0
H4903 H 0.06439 0.6497 0.10999 0.0
H4904 H 0.05346 0.62957 0.09477 0.0
H4905 H 0.07612 0.64072 0.09187 0.0
H4906 H 0.07481 0.62697 0.05962 0.0
H4907 H 0.07173 0.59443 0.04927 0.0
H4908 H 0.06301 0.3074 0.90989 0.0
H4909 H 0.08997 0.30658 0.89379 0.0
H4910 H 0.08381 0.24896 0.89748 0.0
H4911 H 0.05639 0.24973 0.9136 0.0
H4912 H 0.12283 0.29629 0.9029 0.0
H4913 H 0.08373 0.25228 0.84114 0.0
H4914 H 0.07273 0.26324 0.85883 0.0
H4915 H 0.08197 0.24342 0.8632 0.0
C4916 C 0.06765 0.29461 0.90772 0.0
C4917 C 0.05768 0.27866 0.91322 0.0
C4918 C 0.08302 0.29414 0.89838 0.0
C4919 C 0.0888 0.27767 0.89406 0.0
C4920 C 0.07945 0.2618 0.90036 0.0
H4921 H 0.1924 0.27505 0.84917 0.0
H4922 H 0.165 0.26742 0.86494 0.0
C4923 C 0.06399 0.26228 0.90988 0.0
C4924 C 0.10432 0.27746 0.8826 0.0
H4925 H 0.11525 0.26225 0.83988 0.0
C4926 C 0.12119 0.28869 0.88921 0.0
C4927 C 0.10214 0.26781 0.86454 0.0
C4928 C 0.08416 0.2561 0.85635 0.0
C4929 C 0.13585 0.29055 0.87836 0.0
C4930 C 0.13372 0.28087 0.86037 0.0
C4931 C 0.11689 0.2696 0.8537 0.0
C4932 C 0.14895 0.28264 0.84844 0.0
C4933 C 0.15346 0.30326 0.88603 0.0
C4934 C 0.14878 0.29304 0.83329 0.0
C4935 C 0.16445 0.29727 0.82412 0.0
C4936 C 0.18046 0.29109 0.82989 0.0
C4937 C 0.18015 0.27973 0.84424 0.0
C4938 C 0.16456 0.2755 0.85336 0.0
H4939 H 0.15202 0.31183 0.89891 0.0
H4940 H 0.16411 0.29518 0.88934 0.0
H4941 H 0.15823 0.31228 0.8755 0.0
H4942 H 0.13693 0.29876 0.8293 0.0
H4943 H 0.16444 0.30638 0.8134 0.0
H4944 H 0.51265 0.75717 0.89519 0.0
H4945 H 0.51056 0.73018 0.91202 0.0
H4946 H 0.56708 0.72902 0.9063 0.0
H4947 H 0.56929 0.75657 0.89023 0.0
H4948 H 0.51396 0.6967 0.90355 0.0
H4949 H 0.56847 0.72642 0.9607 0.0
H4950 H 0.55979 0.73995 0.94398 0.0
H4951 H 0.57639 0.7264 0.93817 0.0
C4952 C 0.52456 0.75102 0.89744 0.0
C4953 C 0.54109 0.7588 0.89133 0.0
C4954 C 0.5234 0.73562 0.90712 0.0
C4955 C 0.53876 0.72763 0.91089 0.0
C4956 C 0.55515 0.73513 0.90417 0.0
H4957 H 0.54451 0.62483 0.95823 0.0
H4958 H 0.55168 0.65263 0.94268 0.0
C4959 C 0.55637 0.75072 0.89473 0.0
C4960 C 0.53738 0.71144 0.92168 0.0
H4961 H 0.55618 0.69494 0.95997 0.0
C4962 C 0.52321 0.69642 0.91589 0.0
C4963 C 0.54938 0.71089 0.9379 0.0
C4964 C 0.56425 0.72684 0.94568 0.0
C4965 C 0.52074 0.68105 0.92574 0.0
C4966 C 0.53275 0.68051 0.94182 0.0
C4967 C 0.54705 0.69534 0.94756 0.0
C4968 C 0.53009 0.66483 0.95309 0.0
C4969 C 0.50527 0.66537 0.91891 0.0
C4970 C 0.51595 0.66272 0.96453 0.0
C4971 C 0.51192 0.64695 0.97343 0.0
C4972 C 0.52204 0.63304 0.9712 0.0
C4973 C 0.53675 0.63552 0.96047 0.0
C4974 C 0.54076 0.65131 0.9515 0.0
H4975 H 0.49843 0.66692 0.90505 0.0
H4976 H 0.51035 0.65237 0.91803 0.0
H4977 H 0.49499 0.6645 0.92899 0.0
H4978 H 0.50758 0.67298 0.966 0.0
H4979 H 0.50038 0.64526 0.98143 0.0
H4980 H 0.06972 0.75568 0.73388 0.0
H4981 H 0.10188 0.75894 0.74664 0.0
H4982 H 0.11855 0.77892 0.696 0.0
H4983 H 0.08661 0.77668 0.68386 0.0
H4984 H 0.12864 0.7434 0.73741 0.0
H4985 H 0.15248 0.81584 0.73034 0.0
H4986 H 0.12866 0.80553 0.72642 0.0
H4987 H 0.14312 0.80358 0.7082 0.0
C4988 C 0.08025 0.76146 0.72577 0.0
C4989 C 0.07535 0.76675 0.70813 0.0
C4990 C 0.09879 0.76305 0.73298 0.0
C4991 C 0.11318 0.76969 0.72267 0.0
C4992 C 0.10816 0.77448 0.70482 0.0
H4993 H 0.23301 0.78628 0.73229 0.0
H4994 H 0.20037 0.78382 0.72347 0.0
C4995 C 0.0897 0.77306 0.69774 0.0
C4996 C 0.13321 0.77074 0.73 0.0
H4997 H 0.17569 0.79825 0.73508 0.0
C4998 C 0.13885 0.75549 0.737 0.0
C4999 C 0.14699 0.78639 0.72965 0.0
C5000 C 0.14248 0.8038 0.72342 0.0
C5001 C 0.15745 0.75516 0.7428 0.0
C5002 C 0.17128 0.77075 0.74218 0.0
C5003 C 0.16553 0.78611 0.73554 0.0
C5004 C 0.19166 0.77147 0.74773 0.0
C5005 C 0.16202 0.73767 0.74877 0.0
C5006 C 0.19846 0.76546 0.76447 0.0
C5007 C 0.21741 0.76655 0.76939 0.0
C5008 C 0.23039 0.77416 0.75806 0.0
C5009 C 0.22364 0.78035 0.7415 0.0
C5010 C 0.20475 0.77897 0.73642 0.0
H5011 H 0.15134 0.72576 0.74286 0.0
H5012 H 0.17528 0.73538 0.74441 0.0
H5013 H 0.16277 0.73829 0.76416 0.0
H5014 H 0.18919 0.76029 0.77408 0.0
H5015 H 0.2219 0.762 0.78246 0.0
H5016 H 0.05314 0.38143 0.37243 0.0
H5017 H 0.05254 0.40771 0.39475 0.0
H5018 H 0.04975 0.37335 0.4391 0.0
H5019 H 0.05075 0.34709 0.41697 0.0
H5020 H 0.02715 0.41517 0.41597 0.0
H5021 H 0.08921 0.41401 0.46328 0.0
H5022 H 0.08393 0.40043 0.44096 0.0
H5023 H 0.07311 0.39298 0.46074 0.0
C5024 C 0.05275 0.37944 0.38698 0.0
C5025 C 0.05226 0.36197 0.39275 0.0
C5026 C 0.05228 0.39457 0.39979 0.0
C5027 C 0.0514 0.39282 0.41885 0.0
C5028 C 0.05095 0.37539 0.42467 0.0
H5029 H 0.02575 0.4673 0.50911 0.0
H5030 H 0.02862 0.44077 0.48811 0.0
C5031 C 0.05145 0.36026 0.41188 0.0
C5032 C 0.05027 0.40902 0.43237 0.0
H5033 H 0.06994 0.43389 0.47371 0.0
C5034 C 0.03661 0.41924 0.42852 0.0
C5035 C 0.06254 0.4146 0.4489 0.0
C5036 C 0.07813 0.40506 0.45366 0.0
C5037 C 0.03478 0.43447 0.44066 0.0
C5038 C 0.0469 0.43985 0.45719 0.0
C5039 C 0.06057 0.42976 0.4611 0.0
C5040 C 0.04565 0.45608 0.4704 0.0
C5041 C 0.01983 0.44479 0.43587 0.0
C5042 C 0.05436 0.47364 0.46765 0.0
C5043 C 0.05308 0.48888 0.47992 0.0
C5044 C 0.04294 0.48704 0.49528 0.0
C5045 C 0.03415 0.46937 0.49789 0.0
C5046 C 0.03559 0.45412 0.48571 0.0
H5047 H 0.01103 0.43859 0.42287 0.0
H5048 H 0.01121 0.44525 0.44746 0.0
H5049 H 0.02592 0.45904 0.43415 0.0
H5050 H 0.06215 0.47558 0.45593 0.0
H5051 H 0.05999 0.50217 0.47729 0.0
H5052 H 0.4765 0.24478 0.22782 0.0
H5053 H 0.44839 0.24722 0.2424 0.0
H5054 H 0.43037 0.27577 0.19755 0.0
H5055 H 0.45771 0.27297 0.18292 0.0
H5056 H 0.43119 0.27423 0.25582 0.0
H5057 H 0.38657 0.23664 0.19439 0.0
H5058 H 0.41092 0.23792 0.19676 0.0
H5059 H 0.40118 0.25632 0.18843 0.0
C5060 C 0.46664 0.25175 0.22119 0.0
C5061 C 0.46953 0.25851 0.20399 0.0
C5062 C 0.45041 0.25307 0.22951 0.0
C5063 C 0.43661 0.26117 0.22089 0.0
C5064 C 0.44014 0.2688 0.20432 0.0
H5065 H 0.3403 0.30019 0.25356 0.0
H5066 H 0.36967 0.29577 0.24415 0.0
C5067 C 0.45607 0.26733 0.196 0.0
C5068 C 0.41852 0.26165 0.22877 0.0
H5069 H 0.37199 0.2526 0.2167 0.0
C5070 C 0.41831 0.26929 0.24725 0.0
C5071 C 0.40133 0.25521 0.21788 0.0
C5072 C 0.39996 0.2459 0.19834 0.0
C5073 C 0.40178 0.27118 0.25468 0.0
C5074 C 0.38476 0.26523 0.24358 0.0
C5075 C 0.3849 0.25722 0.22533 0.0
C5076 C 0.36681 0.26795 0.25037 0.0
C5077 C 0.40251 0.27974 0.2744 0.0
C5078 C 0.35494 0.25382 0.25705 0.0
C5079 C 0.33803 0.25651 0.26297 0.0
C5080 C 0.33238 0.2734 0.26227 0.0
C5081 C 0.34421 0.28727 0.25515 0.0
C5082 C 0.36111 0.28468 0.24949 0.0
H5083 H 0.41655 0.28259 0.28179 0.0
H5084 H 0.39738 0.29269 0.27434 0.0
H5085 H 0.39347 0.27062 0.28225 0.0
H5086 H 0.35877 0.24067 0.25773 0.0
H5087 H 0.32939 0.24534 0.26809 0.0
H5088 H 0.64016 0.52558 0.35593 0.0
H5089 H 0.62342 0.52137 0.38291 0.0
H5090 H 0.58481 0.55229 0.36076 0.0
H5091 H 0.60107 0.55561 0.33312 0.0
H5092 H 0.61883 0.54439 0.40905 0.0
H5093 H 0.54939 0.51288 0.37616 0.0
H5094 H 0.56876 0.5156 0.36306 0.0
H5095 H 0.55747 0.5344 0.36821 0.0
C5096 C 0.62789 0.5312 0.35662 0.0
C5097 C 0.62189 0.54082 0.34225 0.0
C5098 C 0.61832 0.52884 0.37215 0.0
C5099 C 0.60257 0.53627 0.37401 0.0
C5100 C 0.5965 0.54585 0.35958 0.0
H5101 H 0.53496 0.54591 0.46501 0.0
H5102 H 0.54915 0.54748 0.43607 0.0
C5103 C 0.60588 0.54786 0.34376 0.0
C5104 C 0.59343 0.53482 0.39156 0.0
H5105 H 0.55235 0.52299 0.40853 0.0
C5106 C 0.60429 0.53956 0.40884 0.0
C5107 C 0.57441 0.52864 0.39157 0.0
C5108 C 0.56186 0.52242 0.37376 0.0
C5109 C 0.59681 0.53856 0.4259 0.0
C5110 C 0.57781 0.53238 0.42591 0.0
C5111 C 0.5669 0.52772 0.40866 0.0
C5112 C 0.56897 0.53098 0.4436 0.0
C5113 C 0.60938 0.54464 0.44373 0.0
C5114 C 0.57506 0.52095 0.45758 0.0
C5115 C 0.5671 0.52026 0.47434 0.0
C5116 C 0.55257 0.52925 0.47738 0.0
C5117 C 0.54613 0.53883 0.46317 0.0
C5118 C 0.55425 0.53972 0.44655 0.0
H5119 H 0.62206 0.55389 0.44135 0.0
H5120 H 0.60261 0.55174 0.45435 0.0
H5121 H 0.61341 0.53256 0.44941 0.0
H5122 H 0.58596 0.51356 0.45555 0.0
H5123 H 0.57223 0.51255 0.48485 0.0
H5124 H 0.32226 0.90833 0.05559 0.0
H5125 H 0.32233 0.8928 0.08373 0.0
H5126 H 0.26523 0.89427 0.08538 0.0
H5127 H 0.26505 0.90931 0.05661 0.0
H5128 H 0.31358 0.90373 0.11879 0.0
H5129 H 0.26734 0.84005 0.0855 0.0
H5130 H 0.27819 0.85703 0.07203 0.0
H5131 H 0.25923 0.86102 0.08407 0.0
C5132 C 0.30984 0.90556 0.06221 0.0
C5133 C 0.2937 0.91003 0.05438 0.0
C5134 C 0.30986 0.89669 0.07814 0.0
C5135 C 0.29374 0.8923 0.08642 0.0
C5136 C 0.27768 0.89734 0.07893 0.0
H5137 H 0.30385 0.84464 0.19137 0.0
H5138 H 0.28992 0.85949 0.16656 0.0
C5139 C 0.27762 0.90603 0.06275 0.0
C5140 C 0.29402 0.88209 0.10268 0.0
H5141 H 0.28092 0.83982 0.116 0.0
C5142 C 0.30615 0.88989 0.1184 0.0
C5143 C 0.28442 0.86399 0.10183 0.0
C5144 C 0.27163 0.8549 0.08494 0.0
C5145 C 0.30956 0.87978 0.13306 0.0
C5146 C 0.30038 0.86156 0.13197 0.0
C5147 C 0.28769 0.85392 0.11667 0.0
C5148 C 0.30569 0.84985 0.14566 0.0
C5149 C 0.32375 0.8882 0.14912 0.0
C5150 C 0.31871 0.83928 0.14171 0.0
C5151 C 0.32677 0.83099 0.15578 0.0
C5152 C 0.32178 0.83317 0.17387 0.0
C5153 C 0.30788 0.84283 0.17748 0.0
C5154 C 0.2999 0.85121 0.1634 0.0
H5155 H 0.33017 0.90238 0.14744 0.0
H5156 H 0.31739 0.88827 0.16231 0.0
H5157 H 0.3346 0.87996 0.1504 0.0
H5158 H 0.32331 0.83824 0.12801 0.0
H5159 H 0.33725 0.82332 0.15268 0.0
H5160 H 0.89437 0.52354 0.87299 0.0
H5161 H 0.91799 0.52844 0.89937 0.0
H5162 H 0.95924 0.54273 0.86295 0.0
H5163 H 0.93577 0.53816 0.83642 0.0
H5164 H 0.94722 0.50922 0.90159 0.0
H5165 H 0.97036 0.58426 0.90664 0.0
H5166 H 0.9487 0.57273 0.89441 0.0
H5167 H 0.96933 0.57201 0.88396 0.0
C5168 C 0.90842 0.52799 0.87059 0.0
C5169 C 0.91322 0.53051 0.85265 0.0
C5170 C 0.92185 0.53073 0.88565 0.0
C5171 C 0.94017 0.53609 0.88295 0.0
C5172 C 0.94505 0.53887 0.86518 0.0
H5173 H 0.02474 0.52126 0.96611 0.0
H5174 H 1.00799 0.52253 0.93614 0.0
C5175 C 0.93164 0.53616 0.85009 0.0
C5176 C 0.95422 0.53777 0.89868 0.0
H5177 H 0.98668 0.56835 0.92679 0.0
C5178 C 0.95592 0.5221 0.90715 0.0
C5179 C 0.9653 0.55467 0.90571 0.0
C5180 C 0.96331 0.57195 0.89735 0.0
C5181 C 0.96832 0.52291 0.9229 0.0
C5182 C 0.97961 0.5398 0.92984 0.0
C5183 C 0.97808 0.55544 0.92119 0.0
C5184 C 0.99216 0.54169 0.94689 0.0
C5185 C 0.96869 0.50584 0.9323 0.0
C5186 C 0.9896 0.55305 0.96243 0.0
C5187 C 0.99987 0.55312 0.97941 0.0
C5188 C 0.01262 0.54164 0.98103 0.0
C5189 C 0.01559 0.5308 0.96521 0.0
C5190 C 1.00571 0.53116 0.94814 0.0
H5191 H 0.9561 0.49544 0.928 0.0
H5192 H 0.98042 0.49981 0.92834 0.0
H5193 H 0.97022 0.50887 0.94769 0.0
H5194 H 0.97915 0.56128 0.96161 0.0
H5195 H 0.99732 0.5616 0.9914 0.0
H5196 H 0.27949 0.22884 0.56334 0.0
H5197 H 0.28018 0.24204 0.59568 0.0
H5198 H 0.27201 0.18841 0.61345 0.0
H5199 H 0.27115 0.17505 0.58111 0.0
H5200 H 0.24704 0.22259 0.62371 0.0
H5201 H 0.32194 0.23223 0.64386 0.0
H5202 H 0.31294 0.23486 0.62049 0.0
H5203 H 0.31014 0.2127 0.62821 0.0
C5204 C 0.27801 0.21982 0.57412 0.0
C5205 C 0.27533 0.20084 0.56953 0.0
C5206 C 0.27833 0.22742 0.59262 0.0
C5207 C 0.27612 0.21624 0.60703 0.0
C5208 C 0.2737 0.19732 0.60259 0.0
H5209 H 0.2871 0.23753 0.72793 0.0
H5210 H 0.28679 0.2255 0.69546 0.0
C5211 C 0.27326 0.1897 0.58406 0.0
C5212 C 0.2761 0.22431 0.62667 0.0
H5213 H 0.30412 0.24083 0.6669 0.0
C5214 C 0.25951 0.22664 0.63315 0.0
C5215 C 0.29234 0.22952 0.63902 0.0
C5216 C 0.31044 0.22728 0.63271 0.0
C5217 C 0.25875 0.23394 0.65164 0.0
C5218 C 0.27505 0.23928 0.66402 0.0
C5219 C 0.29162 0.23686 0.65749 0.0
C5220 C 0.27515 0.24691 0.6839 0.0
C5221 C 0.24042 0.23542 0.65792 0.0
C5222 C 0.26893 0.26317 0.68846 0.0
C5223 C 0.2694 0.27031 0.70715 0.0
C5224 C 0.27597 0.26131 0.7218 0.0
C5225 C 0.28211 0.24501 0.71714 0.0
C5226 C 0.28187 0.23802 0.69849 0.0
H5227 H 0.22907 0.22673 0.64843 0.0
H5228 H 0.23954 0.23149 0.67223 0.0
H5229 H 0.23853 0.24973 0.65807 0.0
H5230 H 0.264 0.27055 0.67755 0.0
H5231 H 0.26492 0.28305 0.71007 0.0
H5232 H 0.64151 0.55307 0.22346 0.0
H5233 H 0.62788 0.55157 0.19119 0.0
H5234 H 0.57621 0.52538 0.20626 0.0
H5235 H 0.58965 0.52719 0.23865 0.0
H5236 H 0.61124 0.52278 0.16549 0.0
H5237 H 0.56133 0.56681 0.18071 0.0
H5238 H 0.5798 0.56474 0.19771 0.0
H5239 H 0.55969 0.54722 0.19323 0.0
C5240 C 0.62724 0.54694 0.21993 0.0
C5241 C 0.61667 0.54036 0.23376 0.0
C5242 C 0.61944 0.54611 0.20142 0.0
C5243 C 0.60087 0.53872 0.19623 0.0
C5244 C 0.59042 0.53162 0.2099 0.0
H5245 H 0.52921 0.53096 0.09148 0.0
H5246 H 0.54197 0.53066 0.12386 0.0
C5247 C 0.59819 0.53253 0.22844 0.0
C5248 C 0.59255 0.5384 0.17653 0.0
H5249 H 0.55941 0.55335 0.14974 0.0
C5250 C 0.59992 0.52949 0.16204 0.0
C5251 C 0.57763 0.54698 0.17192 0.0
C5252 C 0.56922 0.55712 0.18667 0.0
C5253 C 0.5927 0.52866 0.14325 0.0
C5254 C 0.57804 0.53766 0.13854 0.0
C5255 C 0.57062 0.54648 0.15311 0.0
C5256 C 0.5702 0.53812 0.11874 0.0
C5257 C 0.60058 0.51756 0.1288 0.0
C5258 C 0.58158 0.54285 0.1049 0.0
C5259 C 0.57429 0.54237 0.0863 0.0
C5260 C 0.55537 0.538 0.08117 0.0
C5261 C 0.54385 0.53433 0.09507 0.0
C5262 C 0.55119 0.53418 0.11359 0.0
H5263 H 0.60663 0.50671 0.13497 0.0
H5264 H 0.59009 0.51107 0.11716 0.0
H5265 H 0.61167 0.52653 0.12314 0.0
H5266 H 0.59618 0.54688 0.10841 0.0
H5267 H 0.58347 0.54561 0.07592 0.0
H5268 H 0.26695 0.91147 0.93894 0.0
H5269 H 0.26163 0.88745 0.91259 0.0
H5270 H 0.31125 0.87016 0.93231 0.0
H5271 H 0.31595 0.89337 0.95904 0.0
H5272 H 0.28342 0.88419 0.8861 0.0
H5273 H 0.27649 0.8225 0.92316 0.0
H5274 H 0.27566 0.84464 0.93462 0.0
H5275 H 0.29723 0.83832 0.93109 0.0
C5276 C 0.27651 0.90234 0.93757 0.0
C5277 C 0.2917 0.90386 0.95074 0.0
C5278 C 0.27348 0.8887 0.92273 0.0
C5279 C 0.28582 0.87684 0.92095 0.0
C5280 C 0.30125 0.87875 0.93394 0.0
H5281 H 0.30882 0.80075 0.83642 0.0
H5282 H 0.30808 0.82036 0.86515 0.0
C5283 C 0.30402 0.89205 0.94898 0.0
C5284 C 0.28344 0.86341 0.90465 0.0
H5285 H 0.28213 0.81863 0.89118 0.0
C5286 C 0.28284 0.86981 0.88714 0.0
C5287 C 0.28292 0.84477 0.9063 0.0
C5288 C 0.28294 0.83714 0.92482 0.0
C5289 C 0.28226 0.85803 0.87105 0.0
C5290 C 0.28198 0.83945 0.87273 0.0
C5291 C 0.28234 0.83297 0.89018 0.0
C5292 C 0.2817 0.82661 0.85642 0.0
C5293 C 0.28257 0.86565 0.85251 0.0
C5294 C 0.26692 0.82356 0.84252 0.0
C5295 C 0.26748 0.81278 0.82614 0.0
C5296 C 0.28263 0.80466 0.82383 0.0
C5297 C 0.29703 0.80697 0.83812 0.0
C5298 C 0.29661 0.81805 0.85439 0.0
H5299 H 0.28718 0.88065 0.8542 0.0
H5300 H 0.29167 0.85943 0.84373 0.0
H5301 H 0.2686 0.86253 0.84499 0.0
H5302 H 0.25519 0.82986 0.84419 0.0
H5303 H 0.25613 0.81085 0.81529 0.0
H5304 H 0.88834 0.50494 0.73514 0.0
H5305 H 0.90432 0.50323 0.70743 0.0
H5306 H 0.93944 0.5547 0.72764 0.0
H5307 H 0.92425 0.55582 0.756 0.0
H5308 H 0.91206 0.52214 0.67939 0.0
H5309 H 0.97604 0.52257 0.725 0.0
H5310 H 0.95434 0.52135 0.73396 0.0
H5311 H 0.96691 0.54283 0.72911 0.0
C5312 C 0.89921 0.51607 0.73344 0.0
C5313 C 0.90526 0.53043 0.74766 0.0
C5314 C 0.90834 0.51507 0.71765 0.0
C5315 C 0.9234 0.52859 0.71579 0.0
C5316 C 0.92826 0.54384 0.72916 0.0
H5317 H 0.99915 0.528 0.63171 0.0
H5318 H 0.97918 0.53839 0.65363 0.0
C5319 C 0.91948 0.54457 0.74521 0.0
C5320 C 0.93485 0.52582 0.70074 0.0
H5321 H 0.97792 0.521 0.69277 0.0
C5322 C 0.92648 0.52202 0.6823 0.0
C5323 C 0.95365 0.52543 0.70465 0.0
C5324 C 0.96323 0.52808 0.72425 0.0
C5325 C 0.9364 0.51765 0.66768 0.0
C5326 C 0.95505 0.5173 0.67169 0.0
C5327 C 0.96357 0.52152 0.68994 0.0
C5328 C 0.9658 0.51123 0.65738 0.0
C5329 C 0.92693 0.51303 0.64811 0.0
C5330 C 0.96477 0.49258 0.65255 0.0
C5331 C 0.97626 0.48664 0.64035 0.0
C5332 C 0.98879 0.49932 0.63281 0.0
C5333 C 0.98953 0.51802 0.63739 0.0
C5334 C 0.97817 0.52395 0.64978 0.0
H5335 H 0.91293 0.51605 0.64695 0.0
H5336 H 0.93495 0.52074 0.63834 0.0
H5337 H 0.92603 0.49833 0.64373 0.0
H5338 H 0.95532 0.48267 0.65852 0.0
H5339 H 0.97537 0.47218 0.63677 0.0
H5340 H 0.25424 0.1744 0.43943 0.0
H5341 H 0.25888 0.19115 0.41272 0.0
H5342 H 0.28997 0.23732 0.44865 0.0
H5343 H 0.28537 0.2204 0.47591 0.0
H5344 H 0.24894 0.22391 0.405 0.0
H5345 H 0.32394 0.22831 0.40807 0.0
H5346 H 0.3098 0.21275 0.42063 0.0
H5347 H 0.31548 0.2365 0.42898 0.0
C5348 C 0.26206 0.18814 0.44184 0.0
C5349 C 0.26946 0.19598 0.45999 0.0
C5350 C 0.26469 0.19774 0.42642 0.0
C5351 C 0.27497 0.21544 0.42851 0.0
C5352 C 0.2822 0.22356 0.4466 0.0
H5353 H 0.27343 0.28414 0.33728 0.0
H5354 H 0.27182 0.27198 0.36721 0.0
C5355 C 0.27941 0.21395 0.46221 0.0
C5356 C 0.27772 0.2251 0.41155 0.0
H5357 H 0.30986 0.24138 0.38364 0.0
C5358 C 0.26229 0.22788 0.40044 0.0
C5359 C 0.29508 0.22998 0.40533 0.0
C5360 C 0.31207 0.22666 0.41623 0.0
C5361 C 0.2637 0.2353 0.38339 0.0
C5362 C 0.28108 0.24038 0.37723 0.0
C5363 C 0.29654 0.23761 0.38833 0.0
C5364 C 0.28333 0.24841 0.35925 0.0
C5365 C 0.24643 0.23714 0.37185 0.0
C5366 C 0.29096 0.23964 0.34482 0.0
C5367 C 0.29217 0.24676 0.32761 0.0
C5368 C 0.28584 0.26287 0.32447 0.0
C5369 C 0.27856 0.27177 0.33912 0.0
C5370 C 0.27745 0.26473 0.35627 0.0
H5371 H 0.23424 0.22834 0.37596 0.0
H5372 H 0.24451 0.25144 0.37395 0.0
H5373 H 0.2472 0.23357 0.3568 0.0
H5374 H 0.29565 0.22706 0.34673 0.0
H5375 H 0.29788 0.23955 0.3167 0.0
H5376 H 0.31582 0.61219 0.57175 0.0
H5377 H 0.34476 0.60129 0.57656 0.0
H5378 H 0.35103 0.60323 0.51824 0.0
H5379 H 0.32191 0.6135 0.51329 0.0
H5380 H 0.34953 0.56662 0.5463 0.0
H5381 H 0.4014 0.63048 0.5575 0.0
H5382 H 0.37882 0.62895 0.56483 0.0
H5383 H 0.38199 0.63003 0.54073 0.0
C5384 C 0.32362 0.61048 0.5601 0.0
C5385 C 0.31697 0.61353 0.54218 0.0
C5386 C 0.33999 0.60435 0.56286 0.0
C5387 C 0.34985 0.60175 0.54778 0.0
C5388 C 0.34348 0.60538 0.53 0.0
H5389 H 0.42426 0.57455 0.48801 0.0
H5390 H 0.40503 0.58773 0.50838 0.0
C5391 C 0.32696 0.6111 0.52716 0.0
C5392 C 0.36594 0.59348 0.54971 0.0
H5393 H 0.41097 0.60365 0.54456 0.0
C5394 C 0.36319 0.57451 0.54663 0.0
C5395 C 0.38346 0.60409 0.55018 0.0
C5396 C 0.38671 0.62455 0.55362 0.0
C5397 C 0.3773 0.56586 0.54168 0.0
C5398 C 0.39454 0.57666 0.54034 0.0
C5399 C 0.39771 0.59548 0.54563 0.0
C5400 C 0.40777 0.56953 0.52951 0.0
C5401 C 0.37308 0.5456 0.53595 0.0
C5402 C 0.4158 0.5551 0.53481 0.0
C5403 C 0.42638 0.54715 0.52287 0.0
C5404 C 0.42925 0.55378 0.50566 0.0
C5405 C 0.42195 0.56888 0.50095 0.0
C5406 C 0.41118 0.57658 0.5127 0.0
H5407 H 0.3584 0.5397 0.53595 0.0
H5408 H 0.37698 0.54249 0.5218 0.0
H5409 H 0.38106 0.53876 0.54579 0.0
H5410 H 0.41345 0.54968 0.54787 0.0
H5411 H 0.43175 0.53545 0.52685 0.0
H5412 H 0.83718 0.93613 0.54936 0.0
H5413 H 0.86708 0.95605 0.55171 0.0
H5414 H 0.889 0.9122 0.52549 0.0
H5415 H 0.8589 0.8922 0.52314 0.0
H5416 H 0.91253 0.93098 0.55518 0.0
H5417 H 0.88996 0.97988 0.50982 0.0
H5418 H 0.87594 0.97472 0.5281 0.0
H5419 H 0.87774 0.95703 0.51014 0.0
C5420 C 0.84824 0.9309 0.54359 0.0
C5421 C 0.8455 0.91283 0.53531 0.0
C5422 C 0.86542 0.94226 0.5451 0.0
C5423 C 0.88035 0.93583 0.53843 0.0
C5424 C 0.87774 0.91759 0.53062 0.0
H5425 H 0.97435 1.00602 0.5079 0.0
H5426 H 0.94564 0.98578 0.51034 0.0
C5427 C 0.86051 0.90619 0.52916 0.0
C5428 C 0.89855 0.94818 0.53939 0.0
H5429 H 0.91914 0.98831 0.52571 0.0
C5430 C 0.91407 0.94347 0.54863 0.0
C5431 C 0.90073 0.96442 0.53078 0.0
C5432 C 0.88526 0.96936 0.51899 0.0
C5433 C 0.93157 0.9544 0.54922 0.0
C5434 C 0.93357 0.97093 0.54087 0.0
C5435 C 0.9179 0.97574 0.53211 0.0
C5436 C 0.95161 0.98296 0.53969 0.0
C5437 C 0.94766 0.94765 0.55822 0.0
C5438 C 0.9648 0.98846 0.55528 0.0
C5439 C 0.98172 0.99931 0.55355 0.0
C5440 C 0.98537 1.00575 0.53649 0.0
C5441 C 0.97183 1.00128 0.52124 0.0
C5442 C 0.95538 0.98967 0.52269 0.0
H5443 H 0.94456 0.93271 0.55875 0.0
H5444 H 0.9598 0.95092 0.55066 0.0
H5445 H 0.95104 0.95417 0.57279 0.0
H5446 H 0.96211 0.98441 0.5688 0.0
H5447 H 0.99188 1.00285 0.56558 0.0
H5448 H 0.90746 0.06235 0.24079 0.0
H5449 H 0.89426 0.08998 0.23882 0.0
H5450 H 0.8962 0.09721 0.29864 0.0
H5451 H 0.90892 0.06961 0.3006 0.0
H5452 H 0.85891 0.09234 0.25851 0.0
H5453 H 0.91797 0.14905 0.2798 0.0
H5454 H 0.92025 0.12743 0.26806 0.0
H5455 H 0.91699 0.12933 0.29228 0.0
C5456 C 0.90565 0.07026 0.25349 0.0
C5457 C 0.90947 0.06414 0.27087 0.0
C5458 C 0.89799 0.08588 0.25235 0.0
C5459 C 0.89446 0.09565 0.26861 0.0
C5460 C 0.89908 0.08997 0.28598 0.0
H5461 H 0.83828 0.17379 0.31366 0.0
H5462 H 0.85909 0.15328 0.3058 0.0
C5463 C 0.90639 0.07429 0.28709 0.0
C5464 C 0.88429 0.11071 0.26772 0.0
H5465 H 0.88839 0.15611 0.281 0.0
C5466 C 0.86535 0.10637 0.26297 0.0
C5467 C 0.89278 0.12888 0.27382 0.0
C5468 C 0.91315 0.1341 0.2787 0.0
C5469 C 0.85453 0.11968 0.265 0.0
C5470 C 0.86297 0.13779 0.27167 0.0
C5471 C 0.882 0.14223 0.2758 0.0
C5472 C 0.85206 0.15186 0.27602 0.0
C5473 C 0.83406 0.11413 0.26102 0.0
C5474 C 0.84172 0.15828 0.26184 0.0
C5475 C 0.83 0.17014 0.26631 0.0
C5476 C 0.82835 0.17551 0.28501 0.0
C5477 C 0.83928 0.16969 0.29915 0.0
C5478 C 0.85115 0.15804 0.29468 0.0
H5479 H 0.82955 0.09912 0.25861 0.0
H5480 H 0.82737 0.11947 0.27278 0.0
H5481 H 0.82932 0.12001 0.2484 0.0
H5482 H 0.84237 0.15373 0.24736 0.0
H5483 H 0.82163 0.17447 0.25523 0.0
H5484 H 0.7137 0.14267 0.02554 0.0
H5485 H 0.68205 0.12638 0.02489 0.0
H5486 H 0.70146 0.0833 0.05139 0.0
H5487 H 0.73281 0.09963 0.05247 0.0
H5488 H 0.67705 0.07462 0.01485 0.0
H5489 H 0.65208 0.11495 0.07169 0.0
H5490 H 0.66491 0.12716 0.05549 0.0
H5491 H 0.67598 0.11429 0.07103 0.0
C5492 C 0.71104 0.12974 0.03119 0.0
C5493 C 0.72537 0.12189 0.03837 0.0
C5494 C 0.69316 0.1206 0.03095 0.0
C5495 C 0.68975 0.10383 0.03816 0.0
C5496 C 0.70406 0.09628 0.04582 0.0
H5497 H 0.59245 0.02287 0.03801 0.0
H5498 H 0.62433 0.03763 0.03844 0.0
C5499 C 0.72183 0.10543 0.04615 0.0
C5500 C 0.67133 0.09339 0.0365 0.0
H5501 H 0.63066 0.09127 0.05376 0.0
C5502 C 0.66692 0.07805 0.02335 0.0
C5503 C 0.65839 0.09827 0.0478 0.0
C5504 C 0.66299 0.11451 0.06242 0.0
C5505 C 0.64953 0.0674 0.02081 0.0
C5506 C 0.63648 0.0724 0.0319 0.0
C5507 C 0.64093 0.08766 0.04531 0.0
C5508 C 0.6178 0.06253 0.02928 0.0
C5509 C 0.64512 0.05125 0.00606 0.0
C5510 C 0.60399 0.07173 0.02369 0.0
C5511 C 0.586 0.06359 0.02382 0.0
C5512 C 0.58166 0.04606 0.02924 0.0
C5513 C 0.59553 0.03639 0.03369 0.0
C5514 C 0.61364 0.04472 0.03389 0.0
H5515 H 0.6557 0.05145 0.99634 0.0
H5516 H 0.64426 0.03856 0.01288 0.0
H5517 H 0.63173 0.05084 0.9979 0.0
H5518 H 0.60718 0.08555 0.02016 0.0
H5519 H 0.57565 0.07155 0.02089 0.0
H5520 H 0.18497 0.4966 0.23453 0.0
H5521 H 0.19235 0.46627 0.22933 0.0
H5522 H 0.23113 0.47825 0.27868 0.0
H5523 H 0.22398 0.50848 0.28412 0.0
H5524 H 0.24083 0.46063 0.23957 0.0
H5525 H 0.17977 0.42767 0.27073 0.0
H5526 H 0.1785 0.44527 0.2556 0.0
H5527 H 0.19007 0.45099 0.27872 0.0
C5528 C 0.19511 0.49278 0.24425 0.0
C5529 C 0.20387 0.50482 0.25979 0.0
C5530 C 0.19932 0.47558 0.24117 0.0
C5531 C 0.21226 0.47037 0.2536 0.0
C5532 C 0.2212 0.48235 0.26892 0.0
H5533 H 0.26489 0.40754 0.30823 0.0
H5534 H 0.25384 0.42904 0.28862 0.0
C5535 C 0.21706 0.49952 0.27201 0.0
C5536 C 0.21597 0.45203 0.25159 0.0
H5537 H 0.2045 0.41225 0.26998 0.0
C5538 C 0.23262 0.44967 0.2455 0.0
C5539 C 0.2051 0.43806 0.25942 0.0
C5540 C 0.18731 0.44048 0.26649 0.0
C5541 C 0.23957 0.4341 0.24876 0.0
C5542 C 0.2295 0.42094 0.25826 0.0
C5543 C 0.21199 0.42245 0.26253 0.0
C5544 C 0.23828 0.40807 0.26782 0.0
C5545 C 0.25821 0.4325 0.24352 0.0
C5546 C 0.23297 0.3894 0.26245 0.0
C5547 C 0.23923 0.37721 0.2736 0.0
C5548 C 0.25037 0.38372 0.29037 0.0
C5549 C 0.25592 0.40241 0.29554 0.0
C5550 C 0.24993 0.41458 0.28424 0.0
H5551 H 0.26204 0.44102 0.23227 0.0
H5552 H 0.26843 0.43718 0.25589 0.0
H5553 H 0.25876 0.41813 0.2389 0.0
H5554 H 0.22375 0.38433 0.24992 0.0
H5555 H 0.23517 0.36274 0.26936 0.0
H5556 H 0.24703 0.40966 0.99792 0.0
H5557 H 0.22002 0.42341 0.9999 0.0
H5558 H 0.22301 0.41861 0.05877 0.0
H5559 H 0.25008 0.40454 0.05684 0.0
H5560 H 0.18441 0.41029 0.01723 0.0
H5561 H 0.22854 0.47548 0.04969 0.0
H5562 H 0.23748 0.4586 0.0359 0.0
H5563 H 0.23172 0.4546 0.05875 0.0
C5564 C 0.24162 0.41104 0.01119 0.0
C5565 C 0.25052 0.40587 0.02719 0.0
C5566 C 0.22625 0.41895 0.0123 0.0
C5567 C 0.21965 0.42209 0.02948 0.0
C5568 C 0.22796 0.41624 0.04539 0.0
H5569 H 0.14178 0.49433 0.04924 0.0
H5570 H 0.16194 0.47239 0.05454 0.0
C5571 C 0.24326 0.40806 0.04423 0.0
C5572 C 0.20488 0.43265 0.0307 0.0
H5573 H 0.19753 0.47567 0.04171 0.0
C5574 C 0.18718 0.4245 0.02284 0.0
C5575 C 0.20863 0.45121 0.03792 0.0
C5576 C 0.22761 0.46064 0.04601 0.0
C5577 C 0.17312 0.43456 0.02172 0.0
C5578 C 0.17701 0.45328 0.02833 0.0
C5579 C 0.19459 0.46128 0.03674 0.0
C5580 C 0.16349 0.46514 0.02527 0.0
C5581 C 0.15427 0.42516 0.01328 0.0
C5582 C 0.15768 0.46821 0.00708 0.0
C5583 C 0.1464 0.48079 1.00408 0.0
C5584 C 0.14066 0.4904 0.01922 0.0
C5585 C 0.14593 0.48689 0.03739 0.0
C5586 C 0.15745 0.47447 0.04041 0.0
H5587 H 0.1523 0.41021 0.01368 0.0
H5588 H 0.14367 0.43044 0.02066 0.0
H5589 H 0.15228 0.42777 0.99849 0.0
H5590 H 0.16241 0.46136 0.99523 0.0
H5591 H 0.14252 0.48336 0.98996 0.0
H5592 H 0.9222 0.95579 0.28071 0.0
H5593 H 0.90081 0.92674 0.27985 0.0
H5594 H 0.86002 0.94811 0.2473 0.0
H5595 H 0.88167 0.97653 0.24733 0.0
H5596 H 0.87055 0.91868 0.29366 0.0
H5597 H 0.85415 0.90088 0.21775 0.0
H5598 H 0.87234 0.91928 0.22759 0.0
H5599 H 0.8491 0.92273 0.2246 0.0
C5600 C 0.90874 0.95406 0.27313 0.0
C5601 C 0.90337 0.96849 0.2645 0.0
C5602 C 0.89647 0.93752 0.27271 0.0
C5603 C 0.87871 0.93501 0.26336 0.0
C5604 C 0.87368 0.94934 0.25421 0.0
H5605 H 0.79006 0.84826 0.28767 0.0
H5606 H 0.80937 0.87818 0.28636 0.0
C5607 C 0.88597 0.96574 0.25449 0.0
C5608 C 0.86522 0.91782 0.26389 0.0
H5609 H 0.8339 0.88485 0.23668 0.0
C5610 C 0.86256 0.91132 0.28118 0.0
C5611 C 0.8549 0.90787 0.24761 0.0
C5612 C 0.85792 0.91295 0.22835 0.0
C5613 C 0.84987 0.89541 0.28267 0.0
C5614 C 0.83913 0.88586 0.26647 0.0
C5615 C 0.84184 0.89231 0.24918 0.0
C5616 C 0.82634 0.86821 0.26675 0.0
C5617 C 0.84859 0.88867 0.30154 0.0
C5618 C 0.82881 0.85282 0.25558 0.0
C5619 C 0.81762 0.83596 0.256 0.0
C5620 C 0.8036 0.83389 0.26769 0.0
C5621 C 0.80063 0.84939 0.27844 0.0
C5622 C 0.81187 0.86644 0.27791 0.0
H5623 H 0.86069 0.89496 0.31157 0.0
H5624 H 0.83635 0.89225 0.30727 0.0
H5625 H 0.8473 0.87366 0.30049 0.0
H5626 H 0.83976 0.85373 0.24679 0.0
H5627 H 0.82031 0.82439 0.24741 0.0
H5628 H 0.67505 0.10633 0.76525 0.0
H5629 H 0.69032 0.13752 0.76433 0.0
H5630 H 0.74122 0.11897 0.7593 0.0
H5631 H 0.72457 0.08778 0.75485 0.0
H5632 H 0.71116 0.15536 0.78846 0.0
H5633 H 0.75129 0.15571 0.72808 0.0
H5634 H 0.73472 0.13607 0.73113 0.0
H5635 H 0.75756 0.13992 0.7432 0.0
C5636 C 0.68945 0.10904 0.76358 0.0
C5637 C 0.69927 0.09497 0.76196 0.0
C5638 C 0.6982 0.1268 0.76316 0.0
C5639 C 0.71709 0.13076 0.76225 0.0
C5640 C 0.72665 0.11649 0.75974 0.0
H5641 H 0.79077 0.23317 0.79195 0.0
H5642 H 0.77284 0.20326 0.79559 0.0
C5643 C 0.71742 0.09865 0.75833 0.0
C5644 C 0.7267 0.14977 0.76559 0.0
H5645 H 0.75956 0.18113 0.75128 0.0
C5646 C 0.72149 0.16095 0.78 0.0
C5647 C 0.74051 0.15709 0.75488 0.0
C5648 C 0.74616 0.14655 0.73837 0.0
C5649 C 0.72908 0.17937 0.78341 0.0
C5650 C 0.74297 0.18633 0.77302 0.0
C5651 C 0.74887 0.17527 0.75924 0.0
C5652 C 0.75077 0.20549 0.775 0.0
C5653 C 0.72193 0.19147 0.79753 0.0
C5654 C 0.74371 0.21634 0.76261 0.0
C5655 C 0.75393 0.23308 0.76038 0.0
C5656 C 0.77099 0.23886 0.77068 0.0
C5657 C 0.77746 0.22865 0.78407 0.0
C5658 C 0.76729 0.21182 0.78622 0.0
H5659 H 0.71139 0.18371 0.805 0.0
H5660 H 0.73332 0.19894 0.80782 0.0
H5661 H 0.71586 0.20176 0.79036 0.0
H5662 H 0.73103 0.21126 0.75374 0.0
H5663 H 0.74901 0.24103 0.74996 0.0
loop_
_geom_bond_atom_site_label_1
_geom_bond_atom_site_label_2
_geom_bond_distance
_geom_bond_site_symmetry_2
_ccdc_geom_bond_type
Mn0 O5 2.095 . S
Mn0 O15 2.162 . S
Mn0 O16 2.297 . S
Mn0 O24 2.385 . S
Mn0 O25 2.209 . S
Mn0 O26 2.094 . S
Mn1 O6 2.121 . S
Mn1 N8 2.257 . S
Mn1 N17 2.282 . S
Mn1 O25 2.215 . S
Mn1 O27 2.117 . S
C2 O24 1.234 . S
C2 O25 1.283 . S
C3 O15 1.281 . S
C3 O16 1.236 . S
C4 O26 1.240 . S
C4 O27 1.264 . S
O5 Mn0 2.095 . S
O5 C14 1.250 . S
O6 Mn1 2.121 . S
O6 C14 1.258 . S
C7 N8 1.326 . S
C7 C11 1.460 . S
C7 H13 0.929 . S
N8 Mn1 2.257 . S
N8 C7 1.326 . S
N8 C12 1.362 . S
C9 C10 1.272 . S
C9 C12 1.437 . S
C9 C29 1.428 1_455 S
C10 C9 1.272 . S
C10 C11 1.477 . S
C10 H30 0.931 . S
C11 C7 1.460 . S
C11 C10 1.477 . S
C11 H31 0.930 . S
C12 N8 1.362 . S
C12 C9 1.437 . S
C12 C22 1.476 1_455 S
H13 C7 0.929 . S
C14 O5 1.250 . S
C14 O6 1.258 . S
O15 Mn0 2.162 . S
O15 C3 1.281 . S
O16 Mn0 2.297 . S
O16 C3 1.236 . S
N17 Mn1 2.282 . S
N17 C18 1.328 1_455 S
N17 C22 1.318 1_455 S
C18 N17 1.328 1_655 S
C18 C19 1.457 . S
C18 H23 0.929 1_655 S
C19 C18 1.457 . S
C19 C20 1.291 . S
C19 H32 0.931 . S
C20 C19 1.291 . S
C20 C21 1.373 . S
C20 H33 0.929 . S
C21 C20 1.373 . S
C21 C22 1.396 . S
C21 C28 1.403 . S
C22 C12 1.476 1_655 S
C22 N17 1.318 1_655 S
C22 C21 1.396 . S
H23 C18 0.929 1_455 S
O24 Mn0 2.385 . S
O24 C2 1.234 . S
O25 Mn0 2.209 . S
O25 Mn1 2.215 . S
O25 C2 1.283 . S
O26 Mn0 2.094 . S
O26 C4 1.240 . S
O27 Mn1 2.117 . S
O27 C4 1.264 . S
C28 C21 1.403 . S
C28 C29 1.399 . S
C28 H34 0.929 . S
C29 C9 1.428 1_655 S
C29 C28 1.399 . S
C29 H35 0.930 . S
H30 C10 0.931 . S
H31 C11 0.930 . S
H32 C19 0.931 . S
H33 C20 0.929 . S
H34 C28 0.929 . S
H35 C29 0.930 . S
Mn36 O41 2.095 1_455 S
Mn36 O51 2.162 . S
Mn36 O52 2.297 . S
Mn36 O60 2.385 . S
Mn36 O61 2.209 . S
Mn36 O62 2.094 . S
Mn37 O42 2.121 1_455 S
Mn37 N44 2.257 . S
Mn37 N53 2.282 . S
Mn37 O61 2.215 . S
Mn37 O63 2.117 . S
C38 O60 1.234 . S
C38 O61 1.283 . S
C39 O51 1.281 . S
C39 O52 1.236 . S
C40 O62 1.240 . S
C40 O63 1.264 . S
O41 Mn36 2.095 1_655 S
O41 C50 1.250 . S
O42 Mn37 2.121 1_655 S
O42 C50 1.258 . S
C43 N44 1.326 . S
C43 C47 1.460 . S
C43 H49 0.929 . S
N44 Mn37 2.257 . S
N44 C43 1.326 . S
N44 C48 1.362 . S
C45 C46 1.258 . S
C45 C48 1.431 . S
C45 C65 1.449 . S
C46 C45 1.258 . S
C46 C47 1.477 . S
C46 H66 0.931 . S
C47 C43 1.460 . S
C47 C46 1.477 . S
C47 H67 0.930 . S
C48 N44 1.362 . S
C48 C45 1.431 . S
C48 C58 1.476 . S
H49 C43 0.929 . S
C50 O41 1.250 . S
C50 O42 1.258 . S
O51 Mn36 2.162 . S
O51 C39 1.281 . S
O52 Mn36 2.297 . S
O52 C39 1.236 . S
N53 Mn37 2.282 . S
N53 C54 1.328 . S
N53 C58 1.318 . S
C54 N53 1.328 . S
C54 C55 1.457 . S
C54 H59 0.929 . S
C55 C54 1.457 . S
C55 C56 1.291 . S
C55 H68 0.931 . S
C56 C55 1.291 . S
C56 C57 1.373 . S
C56 H69 0.929 . S
C57 C56 1.373 . S
C57 C58 1.396 . S
C57 C64 1.403 . S
C58 C48 1.476 . S
C58 N53 1.318 . S
C58 C57 1.396 . S
H59 C54 0.929 . S
O60 Mn36 2.385 . S
O60 C38 1.234 . S
O61 Mn36 2.209 . S
O61 Mn37 2.215 . S
O61 C38 1.283 . S
O62 Mn36 2.094 . S
O62 C40 1.240 . S
O63 Mn37 2.117 . S
O63 C40 1.264 . S
C64 C57 1.403 . S
C64 C65 1.399 . S
C64 H70 0.929 . S
C65 C45 1.449 . S
C65 C64 1.399 . S
C65 H71 0.930 . S
H66 C46 0.931 . S
H67 C47 0.930 . S
H68 C55 0.931 . S
H69 C56 0.929 . S
H70 C64 0.929 . S
H71 C65 0.930 . S
Mn72 O77 2.095 . S
Mn72 O87 2.162 . S
Mn72 O88 2.297 . S
Mn72 O96 2.385 . S
Mn72 O97 2.209 . S
Mn72 O98 2.094 . S
Mn73 O78 2.121 . S
Mn73 N80 2.257 . S
Mn73 N89 2.282 . S
Mn73 O97 2.215 . S
Mn73 O99 2.117 . S
C74 O96 1.234 . S
C74 O97 1.283 . S
C75 O87 1.281 . S
C75 O88 1.236 . S
C76 O98 1.240 . S
C76 O99 1.264 . S
O77 Mn72 2.095 . S
O77 C86 1.250 . S
O78 Mn73 2.121 . S
O78 C86 1.258 . S
C79 N80 1.326 . S
C79 C83 1.460 . S
C79 H85 0.929 . S
N80 Mn73 2.257 . S
N80 C79 1.326 . S
N80 C84 1.362 . S
C81 C82 1.258 . S
C81 C84 1.431 . S
C81 C101 1.449 . S
C82 C81 1.258 . S
C82 C83 1.477 . S
C82 H102 0.931 . S
C83 C79 1.460 . S
C83 C82 1.477 . S
C83 H103 0.930 . S
C84 N80 1.362 . S
C84 C81 1.431 . S
C84 C94 1.476 . S
H85 C79 0.929 . S
C86 O77 1.250 . S
C86 O78 1.258 . S
O87 Mn72 2.162 . S
O87 C75 1.281 . S
O88 Mn72 2.297 . S
O88 C75 1.236 . S
N89 Mn73 2.282 . S
N89 C90 1.328 . S
N89 C94 1.318 . S
C90 N89 1.328 . S
C90 C91 1.457 . S
C90 H95 0.929 . S
C91 C90 1.457 . S
C91 C92 1.291 . S
C91 H104 0.931 . S
C92 C91 1.291 . S
C92 C93 1.373 . S
C92 H105 0.929 . S
C93 C92 1.373 . S
C93 C94 1.396 . S
C93 C100 1.403 . S
C94 C84 1.476 . S
C94 N89 1.318 . S
C94 C93 1.396 . S
H95 C90 0.929 . S
O96 Mn72 2.385 . S
O96 C74 1.234 . S
O97 Mn72 2.209 . S
O97 Mn73 2.215 . S
O97 C74 1.283 . S
O98 Mn72 2.094 . S
O98 C76 1.240 . S
O99 Mn73 2.117 . S
O99 C76 1.264 . S
C100 C93 1.403 . S
C100 C101 1.399 . S
C100 H106 0.929 . S
C101 C81 1.449 . S
C101 C100 1.399 . S
C101 H107 0.930 . S
H102 C82 0.931 . S
H103 C83 0.930 . S
H104 C91 0.931 . S
H105 C92 0.929 . S
H106 C100 0.929 . S
H107 C101 0.930 . S
Mn108 O113 2.095 . S
Mn108 O123 2.162 . S
Mn108 O124 2.297 . S
Mn108 O132 2.385 . S
Mn108 O133 2.209 . S
Mn108 O134 2.094 . S
Mn109 O114 2.121 . S
Mn109 N116 2.257 . S
Mn109 N125 2.282 . S
Mn109 O133 2.215 . S
Mn109 O135 2.117 . S
C110 O132 1.234 . S
C110 O133 1.283 . S
C111 O123 1.281 . S
C111 O124 1.236 . S
C112 O134 1.240 . S
C112 O135 1.264 . S
O113 Mn108 2.095 . S
O113 C122 1.250 . S
O114 Mn109 2.121 . S
O114 C122 1.258 . S
C115 N116 1.326 . S
C115 C119 1.460 . S
C115 H121 0.929 . S
N116 Mn109 2.257 . S
N116 C115 1.326 . S
N116 C120 1.362 . S
C117 C118 1.258 . S
C117 C120 1.431 . S
C117 C137 1.449 . S
C118 C117 1.258 . S
C118 C119 1.477 . S
C118 H138 0.931 . S
C119 C115 1.460 . S
C119 C118 1.477 . S
C119 H139 0.930 . S
C120 N116 1.362 . S
C120 C117 1.431 . S
C120 C130 1.476 . S
H121 C115 0.929 . S
C122 O113 1.250 . S
C122 O114 1.258 . S
O123 Mn108 2.162 . S
O123 C111 1.281 . S
O124 Mn108 2.297 . S
O124 C111 1.236 . S
N125 Mn109 2.282 . S
N125 C126 1.328 . S
N125 C130 1.318 . S
C126 N125 1.328 . S
C126 C127 1.457 . S
C126 H131 0.929 . S
C127 C126 1.457 . S
C127 C128 1.291 . S
C127 H140 0.931 . S
C128 C127 1.291 . S
C128 C129 1.373 . S
C128 H141 0.929 . S
C129 C128 1.373 . S
C129 C130 1.396 . S
C129 C136 1.403 . S
C130 C120 1.476 . S
C130 N125 1.318 . S
C130 C129 1.396 . S
H131 C126 0.929 . S
O132 Mn108 2.385 . S
O132 C110 1.234 . S
O133 Mn108 2.209 . S
O133 Mn109 2.215 . S
O133 C110 1.283 . S
O134 Mn108 2.094 . S
O134 C112 1.240 . S
O135 Mn109 2.117 . S
O135 C112 1.264 . S
C136 C129 1.403 . S
C136 C137 1.399 . S
C136 H142 0.929 . S
C137 C117 1.449 . S
C137 C136 1.399 . S
C137 H143 0.930 . S
H138 C118 0.931 . S
H139 C119 0.930 . S
H140 C127 0.931 . S
H141 C128 0.929 . S
H142 C136 0.929 . S
H143 C137 0.930 . S
Mn144 O149 2.095 . S
Mn144 O159 2.162 . S
Mn144 O160 2.297 . S
Mn144 O168 2.385 . S
Mn144 O169 2.209 . S
Mn144 O170 2.094 . S
Mn145 O150 2.121 . S
Mn145 N152 2.257 . S
Mn145 N161 2.282 . S
Mn145 O169 2.215 . S
Mn145 O171 2.117 . S
C146 O168 1.234 . S
C146 O169 1.283 . S
C147 O159 1.281 . S
C147 O160 1.236 . S
C148 O170 1.240 . S
C148 O171 1.264 . S
O149 Mn144 2.095 . S
O149 C158 1.250 . S
O150 Mn145 2.121 . S
O150 C158 1.258 . S
C151 N152 1.326 . S
C151 C155 1.460 . S
C151 H157 0.929 . S
N152 Mn145 2.257 . S
N152 C151 1.326 . S
N152 C156 1.362 . S
C153 C154 1.258 . S
C153 C156 1.431 . S
C153 C173 1.449 1_455 S
C154 C153 1.258 . S
C154 C155 1.477 . S
C154 H174 0.931 . S
C155 C151 1.460 . S
C155 C154 1.477 . S
C155 H175 0.930 . S
C156 N152 1.362 . S
C156 C153 1.431 . S
C156 C166 1.476 . S
H157 C151 0.929 . S
C158 O149 1.250 . S
C158 O150 1.258 . S
O159 Mn144 2.162 . S
O159 C147 1.281 . S
O160 Mn144 2.297 . S
O160 C147 1.236 . S
N161 Mn145 2.282 . S
N161 C162 1.328 1_455 S
N161 C166 1.318 . S
C162 N161 1.328 1_655 S
C162 C163 1.457 . S
C162 H167 0.929 . S
C163 C162 1.457 . S
C163 C164 1.291 . S
C163 H176 0.931 . S
C164 C163 1.291 . S
C164 C165 1.373 . S
C164 H177 0.929 . S
C165 C164 1.373 . S
C165 C166 1.396 1_655 S
C165 C172 1.403 . S
C166 C156 1.476 . S
C166 N161 1.318 . S
C166 C165 1.396 1_455 S
H167 C162 0.929 . S
O168 Mn144 2.385 . S
O168 C146 1.234 . S
O169 Mn144 2.209 . S
O169 Mn145 2.215 . S
O169 C146 1.283 . S
O170 Mn144 2.094 . S
O170 C148 1.240 . S
O171 Mn145 2.117 . S
O171 C148 1.264 . S
C172 C165 1.403 . S
C172 C173 1.399 . S
C172 H178 0.929 . S
C173 C153 1.449 1_655 S
C173 C172 1.399 . S
C173 H179 0.930 . S
H174 C154 0.931 . S
H175 C155 0.930 . S
H176 C163 0.931 . S
H177 C164 0.929 . S
H178 C172 0.929 . S
H179 C173 0.930 . S
Mn180 O185 2.095 . S
Mn180 O195 2.162 . S
Mn180 O196 2.297 . S
Mn180 O204 2.385 . S
Mn180 O205 2.209 . S
Mn180 O206 2.094 . S
Mn181 O186 2.121 . S
Mn181 N188 2.257 . S
Mn181 N197 2.282 . S
Mn181 O205 2.215 . S
Mn181 O207 2.117 . S
C182 O204 1.234 . S
C182 O205 1.283 . S
C183 O195 1.281 . S
C183 O196 1.236 . S
C184 O206 1.240 . S
C184 O207 1.264 . S
O185 Mn180 2.095 . S
O185 C194 1.250 . S
O186 Mn181 2.121 . S
O186 C194 1.258 . S
C187 N188 1.326 . S
C187 C191 1.460 . S
C187 H193 0.929 . S
N188 Mn181 2.257 . S
N188 C187 1.326 . S
N188 C192 1.362 . S
C189 C190 1.258 . S
C189 C192 1.431 . S
C189 C209 1.449 . S
C190 C189 1.258 . S
C190 C191 1.477 . S
C190 H210 0.931 . S
C191 C187 1.460 . S
C191 C190 1.477 . S
C191 H211 0.930 . S
C192 N188 1.362 . S
C192 C189 1.431 . S
C192 C202 1.476 . S
H193 C187 0.929 . S
C194 O185 1.250 . S
C194 O186 1.258 . S
O195 Mn180 2.162 . S
O195 C183 1.281 . S
O196 Mn180 2.297 . S
O196 C183 1.236 . S
N197 Mn181 2.282 . S
N197 C198 1.328 . S
N197 C202 1.318 . S
C198 N197 1.328 . S
C198 C199 1.457 . S
C198 H203 0.929 . S
C199 C198 1.457 . S
C199 C200 1.291 . S
C199 H212 0.931 . S
C200 C199 1.291 . S
C200 C201 1.373 . S
C200 H213 0.929 . S
C201 C200 1.373 . S
C201 C202 1.396 . S
C201 C208 1.403 . S
C202 C192 1.476 . S
C202 N197 1.318 . S
C202 C201 1.396 . S
H203 C198 0.929 . S
O204 Mn180 2.385 . S
O204 C182 1.234 . S
O205 Mn180 2.209 . S
O205 Mn181 2.215 . S
O205 C182 1.283 . S
O206 Mn180 2.094 . S
O206 C184 1.240 . S
O207 Mn181 2.117 . S
O207 C184 1.264 . S
C208 C201 1.403 . S
C208 C209 1.399 . S
C208 H214 0.929 . S
C209 C189 1.449 . S
C209 C208 1.399 . S
C209 H215 0.930 . S
H210 C190 0.931 . S
H211 C191 0.930 . S
H212 C199 0.931 . S
H213 C200 0.929 . S
H214 C208 0.929 . S
H215 C209 0.930 . S
Mn216 O221 2.095 . S
Mn216 O231 2.162 . S
Mn216 O232 2.297 . S
Mn216 O240 2.385 . S
Mn216 O241 2.209 . S
Mn216 O242 2.094 . S
Mn217 O222 2.121 . S
Mn217 N224 2.257 . S
Mn217 N233 2.282 . S
Mn217 O241 2.215 . S
Mn217 O243 2.117 . S
C218 O240 1.234 . S
C218 O241 1.283 . S
C219 O231 1.281 . S
C219 O232 1.236 . S
C220 O242 1.240 . S
C220 O243 1.264 . S
O221 Mn216 2.095 . S
O221 C230 1.250 . S
O222 Mn217 2.121 . S
O222 C230 1.258 . S
C223 N224 1.326 . S
C223 C227 1.460 . S
C223 H229 0.929 . S
N224 Mn217 2.257 . S
N224 C223 1.326 . S
N224 C228 1.362 . S
C225 C226 1.258 . S
C225 C228 1.431 . S
C225 C245 1.449 . S
C226 C225 1.258 . S
C226 C227 1.477 . S
C226 H246 0.931 . S
C227 C223 1.460 . S
C227 C226 1.477 . S
C227 H247 0.930 . S
C228 N224 1.362 . S
C228 C225 1.431 . S
C228 C238 1.476 . S
H229 C223 0.929 . S
C230 O221 1.250 . S
C230 O222 1.258 . S
O231 Mn216 2.162 . S
O231 C219 1.281 . S
O232 Mn216 2.297 . S
O232 C219 1.236 . S
N233 Mn217 2.282 . S
N233 C234 1.328 . S
N233 C238 1.318 . S
C234 N233 1.328 . S
C234 C235 1.457 . S
C234 H239 0.929 . S
C235 C234 1.457 . S
C235 C236 1.291 . S
C235 H248 0.931 . S
C236 C235 1.291 . S
C236 C237 1.373 . S
C236 H249 0.929 . S
C237 C236 1.373 . S
C237 C238 1.396 . S
C237 C244 1.403 . S
C238 C228 1.476 . S
C238 N233 1.318 . S
C238 C237 1.396 . S
H239 C234 0.929 . S
O240 Mn216 2.385 . S
O240 C218 1.234 . S
O241 Mn216 2.209 . S
O241 Mn217 2.215 . S
O241 C218 1.283 . S
O242 Mn216 2.094 . S
O242 C220 1.240 . S
O243 Mn217 2.117 . S
O243 C220 1.264 . S
C244 C237 1.403 . S
C244 C245 1.399 . S
C244 H250 0.929 . S
C245 C225 1.449 . S
C245 C244 1.399 . S
C245 H251 0.930 . S
H246 C226 0.931 . S
H247 C227 0.930 . S
H248 C235 0.931 . S
H249 C236 0.929 . S
H250 C244 0.929 . S
H251 C245 0.930 . S
Mn252 O257 2.064 1_655 S
Mn252 O267 2.155 1_655 S
Mn252 O268 2.294 . S
Mn252 O276 2.419 . S
Mn252 O277 2.224 . S
Mn252 O278 2.098 1_655 S
Mn253 O258 2.121 1_655 S
Mn253 N260 2.257 . S
Mn253 N269 2.282 . S
Mn253 O277 2.215 . S
Mn253 O279 2.117 1_655 S
C254 O276 1.234 . S
C254 O277 1.283 . S
C255 O267 1.283 1_655 S
C255 O268 1.236 . S
C256 O278 1.240 . S
C256 O279 1.264 . S
O257 Mn252 2.064 1_455 S
O257 C266 1.250 . S
O258 Mn253 2.121 1_455 S
O258 C266 1.258 . S
C259 N260 1.326 . S
C259 C263 1.460 . S
C259 H265 0.929 1_655 S
N260 Mn253 2.257 . S
N260 C259 1.326 . S
N260 C264 1.362 . S
C261 C262 1.258 . S
C261 C264 1.431 . S
C261 C281 1.449 . S
C262 C261 1.258 . S
C262 C263 1.477 . S
C262 H282 0.931 . S
C263 C259 1.460 . S
C263 C262 1.477 . S
C263 H283 0.930 . S
C264 N260 1.362 . S
C264 C261 1.431 . S
C264 C274 1.476 . S
H265 C259 0.929 1_455 S
C266 O257 1.250 . S
C266 O258 1.258 . S
O267 Mn252 2.155 1_455 S
O267 C255 1.283 1_455 S
O268 Mn252 2.294 . S
O268 C255 1.236 . S
N269 Mn253 2.282 . S
N269 C270 1.328 . S
N269 C274 1.318 . S
C270 N269 1.328 . S
C270 C271 1.457 . S
C270 H275 0.929 . S
C271 C270 1.457 . S
C271 C272 1.291 . S
C271 H284 0.931 . S
C272 C271 1.291 . S
C272 C273 1.373 . S
C272 H285 0.929 . S
C273 C272 1.373 . S
C273 C274 1.396 . S
C273 C280 1.403 . S
C274 C264 1.476 . S
C274 N269 1.318 . S
C274 C273 1.396 . S
H275 C270 0.929 . S
O276 Mn252 2.419 . S
O276 C254 1.234 . S
O277 Mn252 2.224 . S
O277 Mn253 2.215 . S
O277 C254 1.283 . S
O278 Mn252 2.098 1_455 S
O278 C256 1.240 . S
O279 Mn253 2.117 1_455 S
O279 C256 1.264 . S
C280 C273 1.403 . S
C280 C281 1.399 . S
C280 H286 0.929 . S
C281 C261 1.449 . S
C281 C280 1.399 . S
C281 H287 0.930 . S
H282 C262 0.931 . S
H283 C263 0.930 . S
H284 C271 0.931 . S
H285 C272 0.929 . S
H286 C280 0.929 . S
H287 C281 0.930 . S
Mn288 O293 2.095 . S
Mn288 O303 2.162 . S
Mn288 O304 2.297 . S
Mn288 O312 2.385 1_545 S
Mn288 O313 2.209 1_545 S
Mn288 O314 2.094 . S
Mn289 O294 2.121 . S
Mn289 N296 2.257 1_545 S
Mn289 N305 2.282 1_545 S
Mn289 O313 2.215 1_545 S
Mn289 O315 2.117 . S
C290 O312 1.234 . S
C290 O313 1.283 . S
C291 O303 1.281 . S
C291 O304 1.236 . S
C292 O314 1.240 . S
C292 O315 1.264 . S
O293 Mn288 2.095 . S
O293 C302 1.250 . S
O294 Mn289 2.121 . S
O294 C302 1.258 . S
C295 N296 1.285 1_545 S
C295 C299 1.446 1_545 S
C295 H301 0.987 . S
N296 Mn289 2.257 1_565 S
N296 C295 1.285 1_565 S
N296 C300 1.362 . S
C297 C298 1.258 . S
C297 C300 1.431 . S
C297 C317 1.449 . S
C298 C297 1.258 . S
C298 C299 1.477 . S
C298 H318 0.931 . S
C299 C295 1.446 1_565 S
C299 C298 1.477 . S
C299 H319 0.930 . S
C300 N296 1.362 . S
C300 C297 1.431 . S
C300 C310 1.476 . S
H301 C295 0.987 . S
C302 O293 1.250 . S
C302 O294 1.258 . S
O303 Mn288 2.162 . S
O303 C291 1.281 . S
O304 Mn288 2.297 . S
O304 C291 1.236 . S
N305 Mn289 2.282 1_565 S
N305 C306 1.328 . S
N305 C310 1.318 . S
C306 N305 1.328 . S
C306 C307 1.457 . S
C306 H311 0.929 . S
C307 C306 1.457 . S
C307 C308 1.291 . S
C307 H320 0.931 . S
C308 C307 1.291 . S
C308 C309 1.373 . S
C308 H321 0.929 . S
C309 C308 1.373 . S
C309 C310 1.396 . S
C309 C316 1.403 . S
C310 C300 1.476 . S
C310 N305 1.318 . S
C310 C309 1.396 . S
H311 C306 0.929 . S
O312 Mn288 2.385 1_565 S
O312 C290 1.234 . S
O313 Mn288 2.209 1_565 S
O313 Mn289 2.215 1_565 S
O313 C290 1.283 . S
O314 Mn288 2.094 . S
O314 C292 1.240 . S
O315 Mn289 2.117 . S
O315 C292 1.264 . S
C316 C309 1.403 . S
C316 C317 1.399 . S
C316 H322 0.929 . S
C317 C297 1.449 . S
C317 C316 1.399 . S
C317 H323 0.930 . S
H318 C298 0.931 . S
H319 C299 0.930 . S
H320 C307 0.931 . S
H321 C308 0.929 . S
H322 C316 0.929 . S
H323 C317 0.930 . S
Mn324 O329 2.095 . S
Mn324 O339 2.162 . S
Mn324 O340 2.297 . S
Mn324 O348 2.385 . S
Mn324 O349 2.209 . S
Mn324 O350 2.094 . S
Mn325 O330 2.121 . S
Mn325 N332 2.257 . S
Mn325 N341 2.282 . S
Mn325 O349 2.215 . S
Mn325 O351 2.117 . S
C326 O348 1.234 . S
C326 O349 1.283 . S
C327 O339 1.281 . S
C327 O340 1.236 . S
C328 O350 1.240 . S
C328 O351 1.264 . S
O329 Mn324 2.095 . S
O329 C338 1.250 . S
O330 Mn325 2.121 . S
O330 C338 1.258 . S
C331 N332 1.326 . S
C331 C335 1.460 . S
C331 H337 0.929 . S
N332 Mn325 2.257 . S
N332 C331 1.326 . S
N332 C336 1.362 . S
C333 C334 1.258 . S
C333 C336 1.431 . S
C333 C353 1.449 . S
C334 C333 1.258 . S
C334 C335 1.477 . S
C334 H354 0.931 . S
C335 C331 1.460 . S
C335 C334 1.477 . S
C335 H355 0.930 . S
C336 N332 1.362 . S
C336 C333 1.431 . S
C336 C346 1.476 . S
H337 C331 0.929 . S
C338 O329 1.250 . S
C338 O330 1.258 . S
O339 Mn324 2.162 . S
O339 C327 1.281 . S
O340 Mn324 2.297 . S
O340 C327 1.236 . S
N341 Mn325 2.282 . S
N341 C342 1.328 . S
N341 C346 1.318 . S
C342 N341 1.328 . S
C342 C343 1.457 . S
C342 H347 0.929 . S
C343 C342 1.457 . S
C343 C344 1.291 . S
C343 H356 0.931 . S
C344 C343 1.291 . S
C344 C345 1.373 . S
C344 H357 0.929 . S
C345 C344 1.373 . S
C345 C346 1.396 . S
C345 C352 1.403 . S
C346 C336 1.476 . S
C346 N341 1.318 . S
C346 C345 1.396 . S
H347 C342 0.929 . S
O348 Mn324 2.385 . S
O348 C326 1.234 . S
O349 Mn324 2.209 . S
O349 Mn325 2.215 . S
O349 C326 1.283 . S
O350 Mn324 2.094 . S
O350 C328 1.240 . S
O351 Mn325 2.117 . S
O351 C328 1.264 . S
C352 C345 1.403 . S
C352 C353 1.399 . S
C352 H358 0.929 . S
C353 C333 1.449 . S
C353 C352 1.399 . S
C353 H359 0.930 . S
H354 C334 0.931 . S
H355 C335 0.930 . S
H356 C343 0.931 . S
H357 C344 0.929 . S
H358 C352 0.929 . S
H359 C353 0.930 . S
Mn360 O365 2.095 . S
Mn360 O375 2.162 . S
Mn360 O376 2.297 . S
Mn360 O384 2.385 . S
Mn360 O385 2.209 . S
Mn360 O386 2.094 . S
Mn361 O366 2.121 . S
Mn361 N368 2.257 . S
Mn361 N377 2.282 . S
Mn361 O385 2.215 . S
Mn361 O387 2.117 . S
C362 O384 1.234 . S
C362 O385 1.283 . S
C363 O375 1.281 . S
C363 O376 1.236 . S
C364 O386 1.240 . S
C364 O387 1.264 . S
O365 Mn360 2.095 . S
O365 C374 1.250 . S
O366 Mn361 2.121 . S
O366 C374 1.258 . S
C367 N368 1.326 . S
C367 C371 1.460 . S
C367 H373 0.929 . S
N368 Mn361 2.257 . S
N368 C367 1.326 . S
N368 C372 1.362 . S
C369 C370 1.258 . S
C369 C372 1.431 . S
C369 C389 1.449 . S
C370 C369 1.258 . S
C370 C371 1.477 . S
C370 H390 0.931 . S
C371 C367 1.460 . S
C371 C370 1.477 . S
C371 H391 0.930 . S
C372 N368 1.362 . S
C372 C369 1.431 . S
C372 C382 1.476 . S
H373 C367 0.929 . S
C374 O365 1.250 . S
C374 O366 1.258 . S
O375 Mn360 2.162 . S
O375 C363 1.281 . S
O376 Mn360 2.297 . S
O376 C363 1.236 . S
N377 Mn361 2.282 . S
N377 C378 1.328 . S
N377 C382 1.318 . S
C378 N377 1.328 . S
C378 C379 1.457 . S
C378 H383 0.929 . S
C379 C378 1.457 . S
C379 C380 1.291 . S
C379 H392 0.931 . S
C380 C379 1.291 . S
C380 C381 1.373 . S
C380 H393 0.929 . S
C381 C380 1.373 . S
C381 C382 1.396 . S
C381 C388 1.403 . S
C382 C372 1.476 . S
C382 N377 1.318 . S
C382 C381 1.396 . S
H383 C378 0.929 . S
O384 Mn360 2.385 . S
O384 C362 1.234 . S
O385 Mn360 2.209 . S
O385 Mn361 2.215 . S
O385 C362 1.283 . S
O386 Mn360 2.094 . S
O386 C364 1.240 . S
O387 Mn361 2.117 . S
O387 C364 1.264 . S
C388 C381 1.403 . S
C388 C389 1.399 . S
C388 H394 0.929 . S
C389 C369 1.449 . S
C389 C388 1.399 . S
C389 H395 0.930 . S
H390 C370 0.931 . S
H391 C371 0.930 . S
H392 C379 0.931 . S
H393 C380 0.929 . S
H394 C388 0.929 . S
H395 C389 0.930 . S
Mn396 O401 2.095 1_554 S
Mn396 O411 2.162 . S
Mn396 O412 2.297 . S
Mn396 O420 2.385 . S
Mn396 O421 2.203 1_554 S
Mn396 O422 2.094 1_554 S
Mn397 O402 2.121 . S
Mn397 N404 2.257 . S
Mn397 N413 2.282 . S
Mn397 O421 2.237 . S
Mn397 O423 2.117 . S
C398 O420 1.234 . S
C398 O421 1.280 1_554 S
C399 O411 1.281 . S
C399 O412 1.236 . S
C400 O422 1.240 . S
C400 O423 1.264 . S
O401 Mn396 2.095 1_556 S
O401 C410 1.250 . S
O402 Mn397 2.121 . S
O402 C410 1.258 . S
C403 N404 1.326 . S
C403 C407 1.460 1_565 S
C403 H409 0.929 . S
N404 Mn397 2.257 . S
N404 C403 1.326 . S
N404 C408 1.362 . S
C405 C406 1.258 1_565 S
C405 C408 1.431 . S
C405 C425 1.449 1_565 S
C406 C405 1.258 1_545 S
C406 C407 1.477 . S
C406 H426 0.931 . S
C407 C403 1.460 1_545 S
C407 C406 1.477 . S
C407 H427 0.930 . S
C408 N404 1.362 . S
C408 C405 1.431 . S
C408 C418 1.476 . S
H409 C403 0.929 . S
C410 O401 1.250 . S
C410 O402 1.258 . S
O411 Mn396 2.162 . S
O411 C399 1.281 . S
O412 Mn396 2.297 . S
O412 C399 1.236 . S
N413 Mn397 2.282 . S
N413 C414 1.328 . S
N413 C418 1.318 . S
C414 N413 1.328 . S
C414 C415 1.457 . S
C414 H419 0.929 . S
C415 C414 1.457 . S
C415 C416 1.291 . S
C415 H428 0.931 . S
C416 C415 1.291 . S
C416 C417 1.373 . S
C416 H429 0.929 . S
C417 C416 1.373 . S
C417 C418 1.396 . S
C417 C424 1.403 . S
C418 C408 1.476 . S
C418 N413 1.318 . S
C418 C417 1.396 . S
H419 C414 0.929 . S
O420 Mn396 2.385 . S
O420 C398 1.234 . S
O421 Mn396 2.203 1_556 S
O421 Mn397 2.237 . S
O421 C398 1.280 1_556 S
O422 Mn396 2.094 1_556 S
O422 C400 1.240 . S
O423 Mn397 2.117 . S
O423 C400 1.264 . S
C424 C417 1.403 . S
C424 C425 1.399 1_565 S
C424 H430 0.929 . S
C425 C405 1.449 1_545 S
C425 C424 1.399 1_545 S
C425 H431 0.930 . S
H426 C406 0.931 . S
H427 C407 0.930 . S
H428 C415 0.931 . S
H429 C416 0.929 . S
H430 C424 0.929 . S
H431 C425 0.930 . S
Mn432 O437 2.095 . S
Mn432 O447 2.162 . S
Mn432 O448 2.297 . S
Mn432 O456 2.385 . S
Mn432 O457 2.209 . S
Mn432 O458 2.094 . S
Mn433 O438 2.121 . S
Mn433 N440 2.257 . S
Mn433 N449 2.282 1_554 S
Mn433 O457 2.215 . S
Mn433 O459 2.117 1_554 S
C434 O456 1.234 . S
C434 O457 1.283 . S
C435 O447 1.281 . S
C435 O448 1.236 . S
C436 O458 1.240 1_556 S
C436 O459 1.264 . S
O437 Mn432 2.095 . S
O437 C446 1.250 . S
O438 Mn433 2.121 . S
O438 C446 1.258 . S
C439 N440 1.326 . S
C439 C443 1.460 . S
C439 H445 0.929 . S
N440 Mn433 2.257 . S
N440 C439 1.326 . S
N440 C444 1.362 . S
C441 C442 1.258 . S
C441 C444 1.431 . S
C441 C461 1.449 . S
C442 C441 1.258 . S
C442 C443 1.477 . S
C442 H462 0.931 . S
C443 C439 1.460 . S
C443 C442 1.477 . S
C443 H463 0.930 . S
C444 N440 1.362 . S
C444 C441 1.431 . S
C444 C454 1.476 1_554 S
H445 C439 0.929 . S
C446 O437 1.250 . S
C446 O438 1.258 . S
O447 Mn432 2.162 . S
O447 C435 1.281 . S
O448 Mn432 2.297 . S
O448 C435 1.236 . S
N449 Mn433 2.282 1_556 S
N449 C450 1.328 . S
N449 C454 1.318 . S
C450 N449 1.328 . S
C450 C451 1.457 . S
C450 H455 0.929 . S
C451 C450 1.457 . S
C451 C452 1.291 . S
C451 H464 0.931 . S
C452 C451 1.291 . S
C452 C453 1.373 . S
C452 H465 0.929 . S
C453 C452 1.373 . S
C453 C454 1.396 . S
C453 C460 1.403 . S
C454 C444 1.476 1_556 S
C454 N449 1.318 . S
C454 C453 1.396 . S
H455 C450 0.929 . S
O456 Mn432 2.385 . S
O456 C434 1.234 . S
O457 Mn432 2.209 . S
O457 Mn433 2.215 . S
O457 C434 1.283 . S
O458 Mn432 2.094 . S
O458 C436 1.240 1_554 S
O459 Mn433 2.117 1_556 S
O459 C436 1.264 . S
C460 C453 1.403 . S
C460 C461 1.399 1_556 S
C460 H466 0.929 . S
C461 C441 1.449 . S
C461 C460 1.399 1_554 S
C461 H467 0.930 . S
H462 C442 0.931 . S
H463 C443 0.930 . S
H464 C451 0.931 . S
H465 C452 0.929 . S
H466 C460 0.929 . S
H467 C461 0.930 . S
Mn468 O473 2.095 . S
Mn468 O483 2.162 . S
Mn468 O484 2.297 . S
Mn468 O492 2.385 . S
Mn468 O493 2.209 . S
Mn468 O494 2.094 . S
Mn469 O474 2.121 . S
Mn469 N476 2.257 . S
Mn469 N485 2.282 1_554 S
Mn469 O493 2.215 . S
Mn469 O495 2.117 . S
C470 O492 1.234 . S
C470 O493 1.283 . S
C471 O483 1.281 . S
C471 O484 1.236 . S
C472 O494 1.240 . S
C472 O495 1.264 . S
O473 Mn468 2.095 . S
O473 C482 1.250 . S
O474 Mn469 2.121 . S
O474 C482 1.258 . S
C475 N476 1.326 . S
C475 C479 1.460 . S
C475 H481 0.929 . S
N476 Mn469 2.257 . S
N476 C475 1.326 . S
N476 C480 1.362 . S
C477 C478 1.258 . S
C477 C480 1.431 . S
C477 C497 1.449 1_554 S
C478 C477 1.258 . S
C478 C479 1.477 . S
C478 H498 0.931 . S
C479 C475 1.460 . S
C479 C478 1.477 . S
C479 H499 0.930 . S
C480 N476 1.362 . S
C480 C477 1.431 . S
C480 C490 1.476 1_554 S
H481 C475 0.929 . S
C482 O473 1.250 . S
C482 O474 1.258 . S
O483 Mn468 2.162 . S
O483 C471 1.281 . S
O484 Mn468 2.297 . S
O484 C471 1.236 . S
N485 Mn469 2.282 1_556 S
N485 C486 1.328 . S
N485 C490 1.318 . S
C486 N485 1.328 . S
C486 C487 1.457 . S
C486 H491 0.929 . S
C487 C486 1.457 . S
C487 C488 1.291 . S
C487 H500 0.931 . S
C488 C487 1.291 . S
C488 C489 1.373 . S
C488 H501 0.929 . S
C489 C488 1.373 . S
C489 C490 1.396 . S
C489 C496 1.403 . S
C490 C480 1.476 1_556 S
C490 N485 1.318 . S
C490 C489 1.396 . S
H491 C486 0.929 . S
O492 Mn468 2.385 . S
O492 C470 1.234 . S
O493 Mn468 2.209 . S
O493 Mn469 2.215 . S
O493 C470 1.283 . S
O494 Mn468 2.094 . S
O494 C472 1.240 . S
O495 Mn469 2.117 . S
O495 C472 1.264 . S
C496 C489 1.403 . S
C496 C497 1.399 . S
C496 H502 0.929 . S
C497 C477 1.449 1_556 S
C497 C496 1.399 . S
C497 H503 0.930 . S
H498 C478 0.931 . S
H499 C479 0.930 . S
H500 C487 0.931 . S
H501 C488 0.929 . S
H502 C496 0.929 . S
H503 C497 0.930 . S
Mn504 O509 2.095 . S
Mn504 O519 2.162 . S
Mn504 O520 2.297 . S
Mn504 O528 2.385 . S
Mn504 O529 2.209 . S
Mn504 O530 2.094 . S
Mn505 O510 2.121 . S
Mn505 N512 2.257 . S
Mn505 N521 2.282 . S
Mn505 O529 2.215 . S
Mn505 O531 2.117 . S
C506 O528 1.234 . S
C506 O529 1.283 . S
C507 O519 1.281 . S
C507 O520 1.236 . S
C508 O530 1.240 . S
C508 O531 1.264 . S
O509 Mn504 2.095 . S
O509 C518 1.250 . S
O510 Mn505 2.121 . S
O510 C518 1.258 . S
C511 N512 1.326 . S
C511 C515 1.460 . S
C511 H517 0.929 . S
N512 Mn505 2.257 . S
N512 C511 1.326 . S
N512 C516 1.362 . S
C513 C514 1.258 . S
C513 C516 1.431 . S
C513 C533 1.449 . S
C514 C513 1.258 . S
C514 C515 1.477 . S
C514 H534 0.931 . S
C515 C511 1.460 . S
C515 C514 1.477 . S
C515 H535 0.930 . S
C516 N512 1.362 . S
C516 C513 1.431 . S
C516 C526 1.476 . S
H517 C511 0.929 . S
C518 O509 1.250 . S
C518 O510 1.258 . S
O519 Mn504 2.162 . S
O519 C507 1.281 . S
O520 Mn504 2.297 . S
O520 C507 1.236 . S
N521 Mn505 2.282 . S
N521 C522 1.328 . S
N521 C526 1.318 . S
C522 N521 1.328 . S
C522 C523 1.457 . S
C522 H527 0.929 . S
C523 C522 1.457 . S
C523 C524 1.291 . S
C523 H536 0.931 . S
C524 C523 1.291 . S
C524 C525 1.373 . S
C524 H537 0.929 . S
C525 C524 1.373 . S
C525 C526 1.396 . S
C525 C532 1.403 . S
C526 C516 1.476 . S
C526 N521 1.318 . S
C526 C525 1.396 . S
H527 C522 0.929 . S
O528 Mn504 2.385 . S
O528 C506 1.234 . S
O529 Mn504 2.209 . S
O529 Mn505 2.215 . S
O529 C506 1.283 . S
O530 Mn504 2.094 . S
O530 C508 1.240 . S
O531 Mn505 2.117 . S
O531 C508 1.264 . S
C532 C525 1.403 . S
C532 C533 1.399 . S
C532 H538 0.929 . S
C533 C513 1.449 . S
C533 C532 1.399 . S
C533 H539 0.930 . S
H534 C514 0.931 . S
H535 C515 0.930 . S
H536 C523 0.931 . S
H537 C524 0.929 . S
H538 C532 0.929 . S
H539 C533 0.930 . S
Mn540 O545 2.095 . S
Mn540 O555 2.162 . S
Mn540 O556 2.297 . S
Mn540 O564 2.385 . S
Mn540 O565 2.209 . S
Mn540 O566 2.094 . S
Mn541 O546 2.121 . S
Mn541 N548 2.257 . S
Mn541 N557 2.282 . S
Mn541 O565 2.215 . S
Mn541 O567 2.117 . S
C542 O564 1.234 . S
C542 O565 1.283 . S
C543 O555 1.281 . S
C543 O556 1.236 . S
C544 O566 1.240 . S
C544 O567 1.264 . S
O545 Mn540 2.095 . S
O545 C554 1.250 . S
O546 Mn541 2.121 . S
O546 C554 1.258 . S
C547 N548 1.326 . S
C547 C551 1.460 . S
C547 H553 0.929 . S
N548 Mn541 2.257 . S
N548 C547 1.326 . S
N548 C552 1.362 . S
C549 C550 1.258 . S
C549 C552 1.431 . S
C549 C569 1.449 . S
C550 C549 1.258 . S
C550 C551 1.477 . S
C550 H570 0.931 . S
C551 C547 1.460 . S
C551 C550 1.477 . S
C551 H571 0.930 . S
C552 N548 1.362 . S
C552 C549 1.431 . S
C552 C562 1.476 . S
H553 C547 0.929 . S
C554 O545 1.250 . S
C554 O546 1.258 . S
O555 Mn540 2.162 . S
O555 C543 1.281 . S
O556 Mn540 2.297 . S
O556 C543 1.236 . S
N557 Mn541 2.282 . S
N557 C558 1.328 . S
N557 C562 1.318 . S
C558 N557 1.328 . S
C558 C559 1.457 . S
C558 H563 0.929 . S
C559 C558 1.457 . S
C559 C560 1.291 . S
C559 H572 0.931 . S
C560 C559 1.291 . S
C560 C561 1.373 . S
C560 H573 0.929 . S
C561 C560 1.373 . S
C561 C562 1.396 . S
C561 C568 1.403 . S
C562 C552 1.476 . S
C562 N557 1.318 . S
C562 C561 1.396 . S
H563 C558 0.929 . S
O564 Mn540 2.385 . S
O564 C542 1.234 . S
O565 Mn540 2.209 . S
O565 Mn541 2.215 . S
O565 C542 1.283 . S
O566 Mn540 2.094 . S
O566 C544 1.240 . S
O567 Mn541 2.117 . S
O567 C544 1.264 . S
C568 C561 1.403 . S
C568 C569 1.399 . S
C568 H574 0.929 . S
C569 C549 1.449 . S
C569 C568 1.399 . S
C569 H575 0.930 . S
H570 C550 0.931 . S
H571 C551 0.930 . S
H572 C559 0.931 . S
H573 C560 0.929 . S
H574 C568 0.929 . S
H575 C569 0.930 . S
Mn576 O581 2.095 . S
Mn576 O591 2.162 . S
Mn576 O592 2.297 . S
Mn576 O600 2.385 1_545 S
Mn576 O601 2.209 1_545 S
Mn576 O602 2.094 . S
Mn577 O582 2.121 . S
Mn577 N584 2.257 1_545 S
Mn577 N593 2.282 1_545 S
Mn577 O601 2.215 1_545 S
Mn577 O603 2.117 . S
C578 O600 1.234 . S
C578 O601 1.283 . S
C579 O591 1.281 . S
C579 O592 1.236 . S
C580 O602 1.240 . S
C580 O603 1.264 . S
O581 Mn576 2.095 . S
O581 C590 1.250 . S
O582 Mn577 2.121 . S
O582 C590 1.258 . S
C583 N584 1.326 1_545 S
C583 C587 1.460 1_545 S
C583 H589 0.929 . S
N584 Mn577 2.257 1_565 S
N584 C583 1.326 1_565 S
N584 C588 1.362 . S
C585 C586 1.258 . S
C585 C588 1.431 . S
C585 C605 1.449 . S
C586 C585 1.258 . S
C586 C587 1.477 . S
C586 H606 0.931 . S
C587 C583 1.460 1_565 S
C587 C586 1.477 . S
C587 H607 0.930 1_565 S
C588 N584 1.362 . S
C588 C585 1.431 . S
C588 C598 1.476 . S
H589 C583 0.929 . S
C590 O581 1.250 . S
C590 O582 1.258 . S
O591 Mn576 2.162 . S
O591 C579 1.281 . S
O592 Mn576 2.297 . S
O592 C579 1.236 . S
N593 Mn577 2.282 1_565 S
N593 C594 1.328 . S
N593 C598 1.318 . S
C594 N593 1.328 . S
C594 C595 1.457 . S
C594 H599 0.929 . S
C595 C594 1.457 . S
C595 C596 1.291 . S
C595 H608 0.931 . S
C596 C595 1.291 . S
C596 C597 1.373 . S
C596 H609 0.929 . S
C597 C596 1.373 . S
C597 C598 1.396 . S
C597 C604 1.403 . S
C598 C588 1.476 . S
C598 N593 1.318 . S
C598 C597 1.396 . S
H599 C594 0.929 . S
O600 Mn576 2.385 1_565 S
O600 C578 1.234 . S
O601 Mn576 2.209 1_565 S
O601 Mn577 2.215 1_565 S
O601 C578 1.283 . S
O602 Mn576 2.094 . S
O602 C580 1.240 . S
O603 Mn577 2.117 . S
O603 C580 1.264 . S
C604 C597 1.403 . S
C604 C605 1.399 . S
C604 H610 0.929 . S
C605 C585 1.449 . S
C605 C604 1.399 . S
C605 H611 0.930 . S
H606 C586 0.931 . S
H607 C587 0.930 1_545 S
H608 C595 0.931 . S
H609 C596 0.929 . S
H610 C604 0.929 . S
H611 C605 0.930 . S
Mn612 O617 2.095 . S
Mn612 O627 2.162 . S
Mn612 O628 2.297 . S
Mn612 O636 2.385 . S
Mn612 O637 2.209 . S
Mn612 O638 2.094 . S
Mn613 O618 2.121 . S
Mn613 N620 2.257 . S
Mn613 N629 2.282 . S
Mn613 O637 2.215 . S
Mn613 O639 2.117 . S
C614 O636 1.234 . S
C614 O637 1.283 . S
C615 O627 1.281 . S
C615 O628 1.236 . S
C616 O638 1.240 . S
C616 O639 1.264 . S
O617 Mn612 2.095 . S
O617 C626 1.250 . S
O618 Mn613 2.121 . S
O618 C626 1.258 . S
C619 N620 1.326 . S
C619 C623 1.460 . S
C619 H625 0.929 . S
N620 Mn613 2.257 . S
N620 C619 1.326 . S
N620 C624 1.362 . S
C621 C622 1.258 . S
C621 C624 1.431 . S
C621 C641 1.449 . S
C622 C621 1.258 . S
C622 C623 1.477 . S
C622 H642 0.931 . S
C623 C619 1.460 . S
C623 C622 1.477 . S
C623 H643 0.930 . S
C624 N620 1.362 . S
C624 C621 1.431 . S
C624 C634 1.476 . S
H625 C619 0.929 . S
C626 O617 1.250 . S
C626 O618 1.258 . S
O627 Mn612 2.162 . S
O627 C615 1.281 . S
O628 Mn612 2.297 . S
O628 C615 1.236 . S
N629 Mn613 2.282 . S
N629 C630 1.328 . S
N629 C634 1.318 . S
C630 N629 1.328 . S
C630 C631 1.457 . S
C630 H635 0.929 . S
C631 C630 1.457 . S
C631 C632 1.291 . S
C631 H644 0.931 . S
C632 C631 1.291 . S
C632 C633 1.373 . S
C632 H645 0.929 . S
C633 C632 1.373 . S
C633 C634 1.396 . S
C633 C640 1.403 . S
C634 C624 1.476 . S
C634 N629 1.318 . S
C634 C633 1.396 . S
H635 C630 0.929 . S
O636 Mn612 2.385 . S
O636 C614 1.234 . S
O637 Mn612 2.209 . S
O637 Mn613 2.215 . S
O637 C614 1.283 . S
O638 Mn612 2.094 . S
O638 C616 1.240 . S
O639 Mn613 2.117 . S
O639 C616 1.264 . S
C640 C633 1.403 . S
C640 C641 1.399 . S
C640 H646 0.929 . S
C641 C621 1.449 . S
C641 C640 1.399 . S
C641 H647 0.930 . S
H642 C622 0.931 . S
H643 C623 0.930 . S
H644 C631 0.931 . S
H645 C632 0.929 . S
H646 C640 0.929 . S
H647 C641 0.930 . S
Mn648 O653 2.095 . S
Mn648 O663 2.162 . S
Mn648 O664 2.297 . S
Mn648 O672 2.385 . S
Mn648 O673 2.209 . S
Mn648 O674 2.094 . S
Mn649 O654 2.121 . S
Mn649 N656 2.257 . S
Mn649 N665 2.282 . S
Mn649 O673 2.215 . S
Mn649 O675 2.117 . S
C650 O672 1.234 . S
C650 O673 1.283 . S
C651 O663 1.281 . S
C651 O664 1.236 . S
C652 O674 1.240 . S
C652 O675 1.264 . S
O653 Mn648 2.095 . S
O653 C662 1.250 . S
O654 Mn649 2.121 . S
O654 C662 1.258 . S
C655 N656 1.326 . S
C655 C659 1.460 . S
C655 H661 0.929 . S
N656 Mn649 2.257 . S
N656 C655 1.326 . S
N656 C660 1.362 . S
C657 C658 1.258 . S
C657 C660 1.431 . S
C657 C677 1.449 . S
C658 C657 1.258 . S
C658 C659 1.477 . S
C658 H678 0.931 . S
C659 C655 1.460 . S
C659 C658 1.477 . S
C659 H679 0.930 . S
C660 N656 1.362 . S
C660 C657 1.431 . S
C660 C670 1.476 . S
H661 C655 0.929 . S
C662 O653 1.250 . S
C662 O654 1.258 . S
O663 Mn648 2.162 . S
O663 C651 1.281 . S
O664 Mn648 2.297 . S
O664 C651 1.236 . S
N665 Mn649 2.282 . S
N665 C666 1.328 . S
N665 C670 1.318 . S
C666 N665 1.328 . S
C666 C667 1.457 . S
C666 H671 0.929 . S
C667 C666 1.457 . S
C667 C668 1.291 . S
C667 H680 0.931 . S
C668 C667 1.291 . S
C668 C669 1.373 . S
C668 H681 0.929 . S
C669 C668 1.373 . S
C669 C670 1.396 . S
C669 C676 1.403 . S
C670 C660 1.476 . S
C670 N665 1.318 . S
C670 C669 1.396 . S
H671 C666 0.929 . S
O672 Mn648 2.385 . S
O672 C650 1.234 . S
O673 Mn648 2.209 . S
O673 Mn649 2.215 . S
O673 C650 1.283 . S
O674 Mn648 2.094 . S
O674 C652 1.240 . S
O675 Mn649 2.117 . S
O675 C652 1.264 . S
C676 C669 1.403 . S
C676 C677 1.399 . S
C676 H682 0.929 . S
C677 C657 1.449 . S
C677 C676 1.399 . S
C677 H683 0.930 . S
H678 C658 0.931 . S
H679 C659 0.930 . S
H680 C667 0.931 . S
H681 C668 0.929 . S
H682 C676 0.929 . S
H683 C677 0.930 . S
Mn684 O689 2.095 . S
Mn684 O699 2.162 . S
Mn684 O700 2.297 . S
Mn684 O708 2.385 . S
Mn684 O709 2.209 . S
Mn684 O710 2.094 . S
Mn685 O690 2.121 . S
Mn685 N692 2.257 . S
Mn685 N701 2.282 . S
Mn685 O709 2.215 . S
Mn685 O711 2.117 . S
C686 O708 1.234 . S
C686 O709 1.283 . S
C687 O699 1.281 . S
C687 O700 1.236 . S
C688 O710 1.240 . S
C688 O711 1.264 . S
O689 Mn684 2.095 . S
O689 C698 1.250 . S
O690 Mn685 2.121 . S
O690 C698 1.258 . S
C691 N692 1.326 . S
C691 C695 1.460 . S
C691 H697 0.929 . S
N692 Mn685 2.257 . S
N692 C691 1.326 . S
N692 C696 1.362 . S
C693 C694 1.258 . S
C693 C696 1.431 . S
C693 C713 1.449 . S
C694 C693 1.258 . S
C694 C695 1.477 . S
C694 H714 0.931 . S
C695 C691 1.460 . S
C695 C694 1.477 . S
C695 H715 0.930 . S
C696 N692 1.362 . S
C696 C693 1.431 . S
C696 C706 1.476 . S
H697 C691 0.929 . S
C698 O689 1.250 . S
C698 O690 1.258 . S
O699 Mn684 2.162 . S
O699 C687 1.281 . S
O700 Mn684 2.297 . S
O700 C687 1.236 . S
N701 Mn685 2.282 . S
N701 C702 1.328 . S
N701 C706 1.318 . S
C702 N701 1.328 . S
C702 C703 1.457 . S
C702 H707 0.929 . S
C703 C702 1.457 . S
C703 C704 1.291 . S
C703 H716 0.931 . S
C704 C703 1.291 . S
C704 C705 1.373 . S
C704 H717 0.929 . S
C705 C704 1.373 . S
C705 C706 1.396 . S
C705 C712 1.403 . S
C706 C696 1.476 . S
C706 N701 1.318 . S
C706 C705 1.396 . S
H707 C702 0.929 . S
O708 Mn684 2.385 . S
O708 C686 1.234 . S
O709 Mn684 2.209 . S
O709 Mn685 2.215 . S
O709 C686 1.283 . S
O710 Mn684 2.094 . S
O710 C688 1.240 . S
O711 Mn685 2.117 . S
O711 C688 1.264 . S
C712 C705 1.403 . S
C712 C713 1.399 . S
C712 H718 0.929 . S
C713 C693 1.449 . S
C713 C712 1.399 . S
C713 H719 0.930 . S
H714 C694 0.931 . S
H715 C695 0.930 . S
H716 C703 0.931 . S
H717 C704 0.929 . S
H718 C712 0.929 . S
H719 C713 0.930 . S
Mn720 O725 2.095 . S
Mn720 O735 2.162 . S
Mn720 O736 2.297 . S
Mn720 O744 2.385 . S
Mn720 O745 2.209 . S
Mn720 O746 2.094 1_554 S
Mn721 O726 2.121 . S
Mn721 N728 2.257 . S
Mn721 N737 2.282 . S
Mn721 O745 2.215 1_556 S
Mn721 O747 2.117 . S
C722 O744 1.234 . S
C722 O745 1.283 . S
C723 O735 1.281 . S
C723 O736 1.236 . S
C724 O746 1.240 . S
C724 O747 1.264 . S
O725 Mn720 2.095 . S
O725 C734 1.250 . S
O726 Mn721 2.121 . S
O726 C734 1.258 1_556 S
C727 N728 1.326 . S
C727 C731 1.460 . S
C727 H733 0.929 . S
N728 Mn721 2.257 . S
N728 C727 1.326 . S
N728 C732 1.362 . S
C729 C730 1.258 . S
C729 C732 1.431 . S
C729 C749 1.449 . S
C730 C729 1.258 . S
C730 C731 1.477 . S
C730 H750 0.931 . S
C731 C727 1.460 . S
C731 C730 1.477 . S
C731 H751 0.930 . S
C732 N728 1.362 . S
C732 C729 1.431 . S
C732 C742 1.476 . S
H733 C727 0.929 . S
C734 O725 1.250 . S
C734 O726 1.258 1_554 S
O735 Mn720 2.162 . S
O735 C723 1.281 . S
O736 Mn720 2.297 . S
O736 C723 1.236 . S
N737 Mn721 2.282 . S
N737 C738 1.328 . S
N737 C742 1.318 . S
C738 N737 1.328 . S
C738 C739 1.457 . S
C738 H743 0.929 . S
C739 C738 1.457 . S
C739 C740 1.291 . S
C739 H752 0.931 . S
C740 C739 1.291 . S
C740 C741 1.373 . S
C740 H753 0.929 . S
C741 C740 1.373 . S
C741 C742 1.396 . S
C741 C748 1.403 . S
C742 C732 1.476 . S
C742 N737 1.318 . S
C742 C741 1.396 . S
H743 C738 0.929 . S
O744 Mn720 2.385 . S
O744 C722 1.234 . S
O745 Mn720 2.209 . S
O745 Mn721 2.215 1_554 S
O745 C722 1.283 . S
O746 Mn720 2.094 1_556 S
O746 C724 1.240 . S
O747 Mn721 2.117 . S
O747 C724 1.264 . S
C748 C741 1.403 . S
C748 C749 1.399 . S
C748 H754 0.929 . S
C749 C729 1.449 . S
C749 C748 1.399 . S
C749 H755 0.930 . S
H750 C730 0.931 . S
H751 C731 0.930 . S
H752 C739 0.931 . S
H753 C740 0.929 . S
H754 C748 0.929 . S
H755 C749 0.930 . S
Mn756 O761 2.095 . S
Mn756 O771 2.162 . S
Mn756 O772 2.297 . S
Mn756 O780 2.385 . S
Mn756 O781 2.209 . S
Mn756 O782 2.094 . S
Mn757 O762 2.121 . S
Mn757 N764 2.257 . S
Mn757 N773 2.282 . S
Mn757 O781 2.215 . S
Mn757 O783 2.117 . S
C758 O780 1.234 . S
C758 O781 1.283 . S
C759 O771 1.281 . S
C759 O772 1.236 . S
C760 O782 1.240 . S
C760 O783 1.264 . S
O761 Mn756 2.095 . S
O761 C770 1.250 . S
O762 Mn757 2.121 . S
O762 C770 1.258 . S
C763 N764 1.326 . S
C763 C767 1.460 . S
C763 H769 0.929 . S
N764 Mn757 2.257 . S
N764 C763 1.326 . S
N764 C768 1.362 . S
C765 C766 1.258 . S
C765 C768 1.431 . S
C765 C785 1.449 . S
C766 C765 1.258 . S
C766 C767 1.477 . S
C766 H786 0.931 . S
C767 C763 1.460 . S
C767 C766 1.477 . S
C767 H787 0.930 . S
C768 N764 1.362 . S
C768 C765 1.431 . S
C768 C778 1.476 . S
H769 C763 0.929 . S
C770 O761 1.250 . S
C770 O762 1.258 . S
O771 Mn756 2.162 . S
O771 C759 1.281 . S
O772 Mn756 2.297 . S
O772 C759 1.236 . S
N773 Mn757 2.282 . S
N773 C774 1.328 . S
N773 C778 1.318 . S
C774 N773 1.328 . S
C774 C775 1.457 . S
C774 H779 0.929 . S
C775 C774 1.457 . S
C775 C776 1.291 . S
C775 H788 0.931 . S
C776 C775 1.291 . S
C776 C777 1.373 . S
C776 H789 0.929 . S
C777 C776 1.373 . S
C777 C778 1.396 . S
C777 C784 1.403 . S
C778 C768 1.476 . S
C778 N773 1.318 . S
C778 C777 1.396 . S
H779 C774 0.929 . S
O780 Mn756 2.385 . S
O780 C758 1.234 . S
O781 Mn756 2.209 . S
O781 Mn757 2.215 . S
O781 C758 1.283 . S
O782 Mn756 2.094 . S
O782 C760 1.240 . S
O783 Mn757 2.117 . S
O783 C760 1.264 . S
C784 C777 1.403 . S
C784 C785 1.399 . S
C784 H790 0.929 . S
C785 C765 1.449 . S
C785 C784 1.399 . S
C785 H791 0.930 . S
H786 C766 0.931 . S
H787 C767 0.930 . S
H788 C775 0.931 . S
H789 C776 0.929 . S
H790 C784 0.929 . S
H791 C785 0.930 . S
Mn792 O797 2.095 . S
Mn792 O807 2.162 . S
Mn792 O808 2.297 . S
Mn792 O816 2.385 . S
Mn792 O817 2.209 . S
Mn792 O818 2.094 . S
Mn793 O798 2.121 . S
Mn793 N800 2.257 . S
Mn793 N809 2.282 . S
Mn793 O817 2.215 . S
Mn793 O819 2.117 . S
C794 O816 1.234 . S
C794 O817 1.283 . S
C795 O807 1.281 . S
C795 O808 1.236 . S
C796 O818 1.240 . S
C796 O819 1.264 . S
O797 Mn792 2.095 . S
O797 C806 1.250 . S
O798 Mn793 2.121 . S
O798 C806 1.258 . S
C799 N800 1.326 . S
C799 C803 1.460 . S
C799 H805 0.929 . S
N800 Mn793 2.257 . S
N800 C799 1.326 . S
N800 C804 1.362 . S
C801 C802 1.258 . S
C801 C804 1.431 . S
C801 C821 1.449 . S
C802 C801 1.258 . S
C802 C803 1.477 . S
C802 H822 0.931 . S
C803 C799 1.460 . S
C803 C802 1.477 . S
C803 H823 0.930 . S
C804 N800 1.362 . S
C804 C801 1.431 . S
C804 C814 1.476 . S
H805 C799 0.929 . S
C806 O797 1.250 . S
C806 O798 1.258 . S
O807 Mn792 2.162 . S
O807 C795 1.281 . S
O808 Mn792 2.297 . S
O808 C795 1.236 . S
N809 Mn793 2.282 . S
N809 C810 1.328 . S
N809 C814 1.318 . S
C810 N809 1.328 . S
C810 C811 1.457 . S
C810 H815 0.929 . S
C811 C810 1.457 . S
C811 C812 1.291 . S
C811 H824 0.931 . S
C812 C811 1.291 . S
C812 C813 1.373 . S
C812 H825 0.929 . S
C813 C812 1.373 . S
C813 C814 1.396 . S
C813 C820 1.403 . S
C814 C804 1.476 . S
C814 N809 1.318 . S
C814 C813 1.396 . S
H815 C810 0.929 . S
O816 Mn792 2.385 . S
O816 C794 1.234 . S
O817 Mn792 2.209 . S
O817 Mn793 2.215 . S
O817 C794 1.283 . S
O818 Mn792 2.094 . S
O818 C796 1.240 . S
O819 Mn793 2.117 . S
O819 C796 1.264 . S
C820 C813 1.403 . S
C820 C821 1.399 . S
C820 H826 0.929 . S
C821 C801 1.449 . S
C821 C820 1.399 . S
C821 H827 0.930 . S
H822 C802 0.931 . S
H823 C803 0.930 . S
H824 C811 0.931 . S
H825 C812 0.929 . S
H826 C820 0.929 . S
H827 C821 0.930 . S
Mn828 O833 2.095 . S
Mn828 O843 2.162 . S
Mn828 O844 2.297 . S
Mn828 O852 2.385 . S
Mn828 O853 2.209 . S
Mn828 O854 2.094 . S
Mn829 O834 2.121 . S
Mn829 N836 2.257 . S
Mn829 N845 2.282 . S
Mn829 O853 2.215 . S
Mn829 O855 2.117 . S
C830 O852 1.234 . S
C830 O853 1.283 . S
C831 O843 1.281 . S
C831 O844 1.236 . S
C832 O854 1.240 . S
C832 O855 1.264 . S
O833 Mn828 2.095 . S
O833 C842 1.250 . S
O834 Mn829 2.121 . S
O834 C842 1.258 . S
C835 N836 1.326 . S
C835 C839 1.460 . S
C835 H841 0.929 . S
N836 Mn829 2.257 . S
N836 C835 1.326 . S
N836 C840 1.362 . S
C837 C838 1.258 . S
C837 C840 1.431 . S
C837 C857 1.449 . S
C838 C837 1.258 . S
C838 C839 1.477 . S
C838 H858 0.931 . S
C839 C835 1.460 . S
C839 C838 1.477 . S
C839 H859 0.930 . S
C840 N836 1.362 . S
C840 C837 1.431 . S
C840 C850 1.476 . S
H841 C835 0.929 . S
C842 O833 1.250 . S
C842 O834 1.258 . S
O843 Mn828 2.162 . S
O843 C831 1.281 . S
O844 Mn828 2.297 . S
O844 C831 1.236 . S
N845 Mn829 2.282 . S
N845 C846 1.328 . S
N845 C850 1.318 . S
C846 N845 1.328 . S
C846 C847 1.457 . S
C846 H851 0.929 . S
C847 C846 1.457 . S
C847 C848 1.291 . S
C847 H860 0.931 . S
C848 C847 1.291 . S
C848 C849 1.373 . S
C848 H861 0.929 . S
C849 C848 1.373 . S
C849 C850 1.396 . S
C849 C856 1.403 . S
C850 C840 1.476 . S
C850 N845 1.318 . S
C850 C849 1.396 . S
H851 C846 0.929 . S
O852 Mn828 2.385 . S
O852 C830 1.234 . S
O853 Mn828 2.209 . S
O853 Mn829 2.215 . S
O853 C830 1.283 . S
O854 Mn828 2.094 . S
O854 C832 1.240 . S
O855 Mn829 2.117 . S
O855 C832 1.264 . S
C856 C849 1.403 . S
C856 C857 1.399 . S
C856 H862 0.929 . S
C857 C837 1.449 . S
C857 C856 1.399 . S
C857 H863 0.930 . S
H858 C838 0.931 . S
H859 C839 0.930 . S
H860 C847 0.931 . S
H861 C848 0.929 . S
H862 C856 0.929 . S
H863 C857 0.930 . S
Tb864 N893 2.617 . S
Tb864 N899 2.572 . S
Tb864 O908 2.465 . S
Tb864 O909 2.387 . S
Tb864 O911 2.428 . S
Tb864 O912 2.358 . S
Tb864 O916 2.349 1_545 S
Tb864 O919 2.393 . S
Tb864 C928 2.802 . S
C865 N866 1.379 . S
C865 C868 1.416 . S
C865 C872 1.424 1_556 S
N866 C865 1.379 . S
N866 C869 1.334 . S
N866 Tb875 2.617 1_566 S
C867 C869 1.390 . S
C867 C870 1.339 . S
C867 H887 0.930 . S
C868 C865 1.416 . S
C868 C870 1.416 . S
C868 C874 1.448 . S
C869 N866 1.334 . S
C869 C867 1.390 . S
C869 H880 0.930 . S
C870 C867 1.339 . S
C870 C868 1.416 . S
C870 H891 0.930 . S
C871 C872 1.413 . S
C871 C873 1.427 1_554 S
C871 C877 1.416 . S
C872 C865 1.424 1_554 S
C872 C871 1.413 . S
C872 N876 1.361 . S
C873 C871 1.427 1_556 S
C873 C874 1.328 . S
C873 H888 0.929 . S
C874 C868 1.448 . S
C874 C873 1.328 . S
C874 H889 0.930 . S
Tb875 N866 2.617 1_544 S
Tb875 N876 2.572 1_545 S
Tb875 O910 2.349 1_655 S
Tb875 O913 2.393 1_654 S
Tb875 O914 2.465 . S
Tb875 O915 2.387 1_645 S
Tb875 O917 2.428 1_554 S
Tb875 O918 2.308 1_655 S
Tb875 C939 2.801 1_554 S
N876 C872 1.361 . S
N876 Tb875 2.572 1_565 S
N876 C878 1.340 . S
C877 C871 1.416 . S
C877 C879 1.332 . S
C877 H885 0.931 . S
C878 N876 1.340 . S
C878 C879 1.407 . S
C878 H884 0.930 . S
C879 C877 1.332 . S
C879 C878 1.407 . S
C879 H881 0.929 . S
H880 C869 0.930 . S
H881 C879 0.929 . S
H882 C897 0.930 . S
H883 C904 0.929 . S
H884 C878 0.930 . S
H885 C877 0.931 . S
H886 C900 0.930 1_556 S
H887 C867 0.930 . S
H888 C873 0.929 . S
H889 C874 0.930 . S
H890 C895 0.930 . S
H891 C870 0.930 . S
H892 C903 0.931 . S
N893 Tb864 2.617 . S
N893 C894 1.379 . S
N893 C897 1.334 . S
C894 N893 1.379 . S
C894 C896 1.416 . S
C894 C902 1.424 . S
C895 H890 0.930 . S
C895 C897 1.390 . S
C895 C898 1.339 . S
C896 C894 1.416 . S
C896 C898 1.416 . S
C896 C929 1.448 . S
C897 H882 0.930 . S
C897 N893 1.334 . S
C897 C895 1.390 . S
C898 C895 1.339 . S
C898 C896 1.416 . S
C898 H905 0.930 . S
N899 Tb864 2.572 . S
N899 C900 1.340 . S
N899 C902 1.361 . S
C900 H886 0.930 1_554 S
C900 N899 1.340 . S
C900 C904 1.407 1_554 S
C901 C902 1.413 . S
C901 C903 1.416 . S
C901 C930 1.427 . S
C902 C894 1.424 . S
C902 N899 1.361 . S
C902 C901 1.413 . S
C903 H892 0.931 . S
C903 C901 1.416 . S
C903 C904 1.332 1_554 S
C904 H883 0.929 . S
C904 C900 1.407 1_556 S
C904 C903 1.332 1_556 S
H905 C898 0.930 . S
H906 C929 0.930 . S
H907 C930 0.929 . S
O908 Tb864 2.465 . S
O908 C928 1.264 . S
O909 Tb864 2.387 . S
O909 C920 1.264 . S
O910 Tb875 2.349 1_455 S
O910 C920 1.243 . S
O911 Tb864 2.428 . S
O911 C928 1.256 . S
O912 Tb864 2.358 . S
O912 C927 1.223 1_554 S
O913 Tb875 2.393 1_456 S
O913 C927 1.248 . S
O914 Tb875 2.465 . S
O914 C939 1.257 1_554 S
O915 Tb875 2.387 1_465 S
O915 C931 1.264 . S
O916 Tb864 2.349 1_565 S
O916 C931 1.243 . S
O917 Tb875 2.428 1_556 S
O917 C939 1.262 . S
O918 Tb875 2.308 1_455 S
O918 C938 1.266 . S
O919 Tb864 2.393 . S
O919 C938 1.248 . S
C920 O909 1.264 . S
C920 O910 1.243 . S
C921 C924 1.399 . S
C921 C926 1.401 . S
C921 C928 1.496 . S
C922 C923 1.399 . S
C922 C926 1.367 1_565 S
C923 C922 1.399 . S
C923 C925 1.380 1_565 S
C923 H940 0.929 . S
C924 C921 1.399 . S
C924 C925 1.392 . S
C924 H941 0.929 . S
C925 C923 1.380 1_545 S
C925 C924 1.392 . S
C925 H942 0.929 . S
C926 C921 1.401 . S
C926 C922 1.367 1_545 S
C926 H943 0.936 . S
C927 O912 1.223 1_556 S
C927 O913 1.248 . S
C928 Tb864 2.802 . S
C928 O908 1.264 . S
C928 O911 1.256 . S
C928 C921 1.496 . S
C929 C896 1.448 . S
C929 H906 0.930 . S
C929 C930 1.328 . S
C930 C901 1.427 . S
C930 H907 0.929 . S
C930 C929 1.328 . S
C931 O915 1.264 . S
C931 O916 1.243 . S
C932 C935 1.399 . S
C932 C936 1.383 1_556 S
C932 C939 1.497 . S
C933 C934 1.399 1_554 S
C933 C936 1.389 . S
C934 C933 1.399 1_556 S
C934 C937 1.380 . S
C934 H944 0.929 . S
C935 C932 1.399 . S
C935 C937 1.392 . S
C935 H945 0.929 . S
C936 C932 1.383 1_554 S
C936 C933 1.389 . S
C936 H946 0.931 . S
C937 C934 1.380 . S
C937 C935 1.392 . S
C937 H947 0.929 . S
C938 O918 1.266 . S
C938 O919 1.248 . S
C939 Tb875 2.801 1_556 S
C939 O914 1.257 1_556 S
C939 O917 1.262 . S
C939 C932 1.497 . S
H940 C923 0.929 . S
H941 C924 0.929 . S
H942 C925 0.929 . S
H943 C926 0.936 . S
H944 C934 0.929 . S
H945 C935 0.929 . S
H946 C936 0.931 . S
H947 C937 0.929 . S
Tb948 N977 2.617 . S
Tb948 N983 2.572 . S
Tb948 O992 2.465 . S
Tb948 O993 2.387 . S
Tb948 O995 2.428 . S
Tb948 O996 2.308 . S
Tb948 O1000 2.349 . S
Tb948 O1003 2.393 . S
Tb948 C1012 2.802 . S
C949 N950 1.379 . S
C949 C952 1.416 . S
C949 C956 1.424 . S
N950 C949 1.379 . S
N950 C953 1.334 . S
N950 Tb959 2.617 . S
C951 C953 1.390 . S
C951 C954 1.339 . S
C951 H971 0.930 . S
C952 C949 1.416 . S
C952 C954 1.416 . S
C952 C958 1.448 . S
C953 N950 1.334 . S
C953 C951 1.390 . S
C953 H964 0.930 . S
C954 C951 1.339 . S
C954 C952 1.416 . S
C954 H975 0.930 . S
C955 C956 1.413 . S
C955 C957 1.427 . S
C955 C961 1.416 . S
C956 C949 1.424 . S
C956 C955 1.413 . S
C956 N960 1.361 . S
C957 C955 1.427 . S
C957 C958 1.328 . S
C957 H972 0.929 . S
C958 C952 1.448 . S
C958 C957 1.328 . S
C958 H973 0.930 . S
Tb959 N950 2.617 . S
Tb959 N960 2.572 . S
Tb959 O994 2.349 . S
Tb959 O997 2.393 . S
Tb959 O998 2.465 . S
Tb959 O999 2.387 . S
Tb959 O1001 2.428 . S
Tb959 O1002 2.308 . S
Tb959 C1023 2.802 . S
N960 C956 1.361 . S
N960 Tb959 2.572 . S
N960 C962 1.340 . S
C961 C955 1.416 . S
C961 C963 1.332 . S
C961 H969 0.931 . S
C962 N960 1.340 . S
C962 C963 1.407 . S
C962 H968 0.930 . S
C963 C961 1.332 . S
C963 C962 1.407 . S
C963 H965 0.929 . S
H964 C953 0.930 . S
H965 C963 0.929 . S
H966 C981 0.930 . S
H967 C988 0.929 . S
H968 C962 0.930 . S
H969 C961 0.931 . S
H970 C984 0.930 . S
H971 C951 0.930 . S
H972 C957 0.929 . S
H973 C958 0.930 . S
H974 C979 0.930 . S
H975 C954 0.930 . S
H976 C987 0.931 . S
N977 Tb948 2.617 . S
N977 C978 1.379 . S
N977 C981 1.334 . S
C978 N977 1.379 . S
C978 C980 1.416 . S
C978 C986 1.424 . S
C979 H974 0.930 . S
C979 C981 1.390 . S
C979 C982 1.339 . S
C980 C978 1.416 . S
C980 C982 1.416 . S
C980 C1013 1.448 . S
C981 H966 0.930 . S
C981 N977 1.334 . S
C981 C979 1.390 . S
C982 C979 1.339 . S
C982 C980 1.416 . S
C982 H989 0.930 . S
N983 Tb948 2.572 . S
N983 C984 1.340 . S
N983 C986 1.361 . S
C984 H970 0.930 . S
C984 N983 1.340 . S
C984 C988 1.407 . S
C985 C986 1.413 . S
C985 C987 1.416 . S
C985 C1014 1.427 . S
C986 C978 1.424 . S
C986 N983 1.361 . S
C986 C985 1.413 . S
C987 H976 0.931 . S
C987 C985 1.416 . S
C987 C988 1.332 . S
C988 H967 0.929 . S
C988 C984 1.407 . S
C988 C987 1.332 . S
H989 C982 0.930 . S
H990 C1013 0.930 . S
H991 C1014 0.929 . S
O992 Tb948 2.465 . S
O992 C1012 1.264 . S
O993 Tb948 2.387 . S
O993 C1004 1.264 . S
O994 Tb959 2.349 . S
O994 C1004 1.243 . S
O995 Tb948 2.428 . S
O995 C1012 1.256 . S
O996 Tb948 2.308 . S
O996 C1011 1.266 . S
O997 Tb959 2.393 . S
O997 C1011 1.248 . S
O998 Tb959 2.465 . S
O998 C1023 1.264 . S
O999 Tb959 2.387 . S
O999 C1015 1.264 . S
O1000 Tb948 2.349 . S
O1000 C1015 1.243 . S
O1001 Tb959 2.428 . S
O1001 C1023 1.256 . S
O1002 Tb959 2.308 . S
O1002 C1022 1.266 . S
O1003 Tb948 2.393 . S
O1003 C1022 1.248 . S
C1004 O993 1.264 . S
C1004 O994 1.243 . S
C1005 C1008 1.399 . S
C1005 C1010 1.383 . S
C1005 C1012 1.496 . S
C1006 C1007 1.399 . S
C1006 C1010 1.389 . S
C1007 C1006 1.399 . S
C1007 C1009 1.380 . S
C1007 H1024 0.929 . S
C1008 C1005 1.399 . S
C1008 C1009 1.392 . S
C1008 H1025 0.929 . S
C1009 C1007 1.380 . S
C1009 C1008 1.392 . S
C1009 H1026 0.929 . S
C1010 C1005 1.383 . S
C1010 C1006 1.389 . S
C1010 H1027 0.931 . S
C1011 O996 1.266 . S
C1011 O997 1.248 . S
C1012 Tb948 2.802 . S
C1012 O992 1.264 . S
C1012 O995 1.256 . S
C1012 C1005 1.496 . S
C1013 C980 1.448 . S
C1013 H990 0.930 . S
C1013 C1014 1.328 . S
C1014 C985 1.427 . S
C1014 H991 0.929 . S
C1014 C1013 1.328 . S
C1015 O999 1.264 . S
C1015 O1000 1.243 . S
C1016 C1019 1.399 . S
C1016 C1020 1.383 . S
C1016 C1023 1.496 . S
C1017 C1018 1.399 . S
C1017 C1020 1.389 . S
C1018 C1017 1.399 . S
C1018 C1021 1.380 . S
C1018 H1028 0.929 . S
C1019 C1016 1.399 . S
C1019 C1021 1.392 . S
C1019 H1029 0.929 . S
C1020 C1016 1.383 . S
C1020 C1017 1.389 . S
C1020 H1030 0.931 . S
C1021 C1018 1.380 . S
C1021 C1019 1.392 . S
C1021 H1031 0.929 . S
C1022 O1002 1.266 . S
C1022 O1003 1.248 . S
C1023 Tb959 2.802 . S
C1023 O998 1.264 . S
C1023 O1001 1.256 . S
C1023 C1016 1.496 . S
H1024 C1007 0.929 . S
H1025 C1008 0.929 . S
H1026 C1009 0.929 . S
H1027 C1010 0.931 . S
H1028 C1018 0.929 . S
H1029 C1019 0.929 . S
H1030 C1020 0.931 . S
H1031 C1021 0.929 . S
Tb1032 N1061 2.617 . S
Tb1032 N1067 2.572 1_545 S
Tb1032 O1076 2.465 . S
Tb1032 O1077 2.387 1_545 S
Tb1032 O1079 2.428 . S
Tb1032 O1080 2.308 . S
Tb1032 O1084 2.349 . S
Tb1032 O1087 2.393 . S
Tb1032 C1096 2.802 . S
C1033 N1034 1.379 . S
C1033 C1036 1.416 . S
C1033 C1040 1.424 . S
N1034 C1033 1.379 . S
N1034 C1037 1.334 . S
N1034 Tb1043 2.617 . S
C1035 C1037 1.390 . S
C1035 C1038 1.339 . S
C1035 H1055 0.930 . S
C1036 C1033 1.416 . S
C1036 C1038 1.416 . S
C1036 C1042 1.448 . S
C1037 N1034 1.334 . S
C1037 C1035 1.390 . S
C1037 H1048 0.930 . S
C1038 C1035 1.339 . S
C1038 C1036 1.416 . S
C1038 H1059 0.930 . S
C1039 C1040 1.413 . S
C1039 C1041 1.427 . S
C1039 C1045 1.416 . S
C1040 C1033 1.424 . S
C1040 C1039 1.413 . S
C1040 N1044 1.361 . S
C1041 C1039 1.427 . S
C1041 C1042 1.328 . S
C1041 H1056 0.929 . S
C1042 C1036 1.448 . S
C1042 C1041 1.328 . S
C1042 H1057 0.930 . S
Tb1043 N1034 2.617 . S
Tb1043 N1044 2.572 . S
Tb1043 O1078 2.349 . S
Tb1043 O1081 2.393 . S
Tb1043 O1082 2.465 . S
Tb1043 O1083 2.387 . S
Tb1043 O1085 2.428 . S
Tb1043 O1086 2.308 . S
Tb1043 C1107 2.802 . S
N1044 C1040 1.361 . S
N1044 Tb1043 2.572 . S
N1044 C1046 1.340 . S
C1045 C1039 1.416 . S
C1045 C1047 1.332 . S
C1045 H1053 0.931 . S
C1046 N1044 1.340 . S
C1046 C1047 1.407 . S
C1046 H1052 0.930 . S
C1047 C1045 1.332 . S
C1047 C1046 1.407 . S
C1047 H1049 0.929 . S
H1048 C1037 0.930 . S
H1049 C1047 0.929 . S
H1050 C1065 0.930 . S
H1051 C1072 0.929 . S
H1052 C1046 0.930 . S
H1053 C1045 0.931 . S
H1054 C1068 0.930 1_545 S
H1055 C1035 0.930 . S
H1056 C1041 0.929 . S
H1057 C1042 0.930 . S
H1058 C1063 0.930 . S
H1059 C1038 0.930 . S
H1060 C1071 0.931 . S
N1061 Tb1032 2.617 . S
N1061 C1062 1.379 1_545 S
N1061 C1065 1.334 . S
C1062 N1061 1.379 1_565 S
C1062 C1064 1.416 . S
C1062 C1070 1.424 . S
C1063 H1058 0.930 . S
C1063 C1065 1.390 1_565 S
C1063 C1066 1.339 . S
C1064 C1062 1.416 . S
C1064 C1066 1.416 . S
C1064 C1097 1.448 . S
C1065 H1050 0.930 . S
C1065 N1061 1.334 . S
C1065 C1063 1.390 1_545 S
C1066 C1063 1.339 . S
C1066 C1064 1.416 . S
C1066 H1073 0.930 . S
N1067 Tb1032 2.572 1_565 S
N1067 C1068 1.340 . S
N1067 C1070 1.361 . S
C1068 H1054 0.930 1_565 S
C1068 N1067 1.340 . S
C1068 C1072 1.407 . S
C1069 C1070 1.413 . S
C1069 C1071 1.416 . S
C1069 C1098 1.427 . S
C1070 C1062 1.424 . S
C1070 N1067 1.361 . S
C1070 C1069 1.413 . S
C1071 H1060 0.931 . S
C1071 C1069 1.416 . S
C1071 C1072 1.332 . S
C1072 H1051 0.929 . S
C1072 C1068 1.407 . S
C1072 C1071 1.332 . S
H1073 C1066 0.930 . S
H1074 C1097 0.930 . S
H1075 C1098 0.929 . S
O1076 Tb1032 2.465 . S
O1076 C1096 1.264 . S
O1077 Tb1032 2.387 1_565 S
O1077 C1088 1.264 . S
O1078 Tb1043 2.349 . S
O1078 C1088 1.243 1_545 S
O1079 Tb1032 2.428 . S
O1079 C1096 1.256 . S
O1080 Tb1032 2.308 . S
O1080 C1095 1.266 . S
O1081 Tb1043 2.393 . S
O1081 C1095 1.248 . S
O1082 Tb1043 2.465 . S
O1082 C1107 1.264 . S
O1083 Tb1043 2.387 . S
O1083 C1099 1.264 . S
O1084 Tb1032 2.349 . S
O1084 C1099 1.243 . S
O1085 Tb1043 2.428 . S
O1085 C1107 1.256 . S
O1086 Tb1043 2.308 . S
O1086 C1106 1.266 . S
O1087 Tb1032 2.393 . S
O1087 C1106 1.248 . S
C1088 O1077 1.264 . S
C1088 O1078 1.243 1_565 S
C1089 C1092 1.399 . S
C1089 C1094 1.383 . S
C1089 C1096 1.496 . S
C1090 C1091 1.399 . S
C1090 C1094 1.389 . S
C1091 C1090 1.399 . S
C1091 C1093 1.380 . S
C1091 H1108 0.929 . S
C1092 C1089 1.399 . S
C1092 C1093 1.392 . S
C1092 H1109 0.929 . S
C1093 C1091 1.380 . S
C1093 C1092 1.392 . S
C1093 H1110 0.929 . S
C1094 C1089 1.383 . S
C1094 C1090 1.389 . S
C1094 H1111 0.931 . S
C1095 O1080 1.266 . S
C1095 O1081 1.248 . S
C1096 Tb1032 2.802 . S
C1096 O1076 1.264 . S
C1096 O1079 1.256 . S
C1096 C1089 1.496 . S
C1097 C1064 1.448 . S
C1097 H1074 0.930 . S
C1097 C1098 1.328 . S
C1098 C1069 1.427 . S
C1098 H1075 0.929 . S
C1098 C1097 1.328 . S
C1099 O1083 1.264 . S
C1099 O1084 1.243 . S
C1100 C1103 1.399 1_545 S
C1100 C1104 1.383 1_545 S
C1100 C1107 1.496 . S
C1101 C1102 1.399 . S
C1101 C1104 1.389 . S
C1102 C1101 1.399 . S
C1102 C1105 1.380 . S
C1102 H1112 0.929 . S
C1103 C1100 1.399 1_565 S
C1103 C1105 1.392 . S
C1103 H1113 0.929 1_565 S
C1104 C1100 1.383 1_565 S
C1104 C1101 1.389 . S
C1104 H1114 0.936 . S
C1105 C1102 1.380 . S
C1105 C1103 1.392 . S
C1105 H1115 0.929 . S
C1106 O1086 1.266 . S
C1106 O1087 1.248 . S
C1107 Tb1043 2.802 . S
C1107 O1082 1.264 . S
C1107 O1085 1.256 . S
C1107 C1100 1.496 . S
H1108 C1091 0.929 . S
H1109 C1092 0.929 . S
H1110 C1093 0.929 . S
H1111 C1094 0.931 . S
H1112 C1102 0.929 . S
H1113 C1103 0.929 1_545 S
H1114 C1104 0.936 . S
H1115 C1105 0.929 . S
Tb1116 N1145 2.617 . S
Tb1116 N1151 2.572 . S
Tb1116 O1160 2.465 . S
Tb1116 O1161 2.387 . S
Tb1116 O1163 2.428 . S
Tb1116 O1164 2.308 . S
Tb1116 O1168 2.349 . S
Tb1116 O1171 2.393 . S
Tb1116 C1180 2.802 . S
C1117 N1118 1.379 . S
C1117 C1120 1.416 . S
C1117 C1124 1.424 . S
N1118 C1117 1.379 . S
N1118 C1121 1.334 . S
N1118 Tb1127 2.617 . S
C1119 C1121 1.390 . S
C1119 C1122 1.339 . S
C1119 H1139 0.930 . S
C1120 C1117 1.416 . S
C1120 C1122 1.416 . S
C1120 C1126 1.448 . S
C1121 N1118 1.334 . S
C1121 C1119 1.390 . S
C1121 H1132 0.930 . S
C1122 C1119 1.339 . S
C1122 C1120 1.416 . S
C1122 H1143 0.930 . S
C1123 C1124 1.413 . S
C1123 C1125 1.427 . S
C1123 C1129 1.416 . S
C1124 C1117 1.424 . S
C1124 C1123 1.413 . S
C1124 N1128 1.361 . S
C1125 C1123 1.427 . S
C1125 C1126 1.328 . S
C1125 H1140 0.929 . S
C1126 C1120 1.448 . S
C1126 C1125 1.328 . S
C1126 H1141 0.930 . S
Tb1127 N1118 2.617 . S
Tb1127 N1128 2.572 . S
Tb1127 O1162 2.349 . S
Tb1127 O1165 2.393 . S
Tb1127 O1166 2.465 . S
Tb1127 O1167 2.387 . S
Tb1127 O1169 2.428 . S
Tb1127 O1170 2.308 . S
Tb1127 C1191 2.802 . S
N1128 C1124 1.361 . S
N1128 Tb1127 2.572 . S
N1128 C1130 1.340 . S
C1129 C1123 1.416 . S
C1129 C1131 1.332 . S
C1129 H1137 0.931 . S
C1130 N1128 1.340 . S
C1130 C1131 1.407 . S
C1130 H1136 0.930 . S
C1131 C1129 1.332 . S
C1131 C1130 1.407 . S
C1131 H1133 0.929 . S
H1132 C1121 0.930 . S
H1133 C1131 0.929 . S
H1134 C1149 0.930 . S
H1135 C1156 0.929 . S
H1136 C1130 0.930 . S
H1137 C1129 0.931 . S
H1138 C1152 0.930 . S
H1139 C1119 0.930 . S
H1140 C1125 0.929 . S
H1141 C1126 0.930 . S
H1142 C1147 0.930 . S
H1143 C1122 0.930 . S
H1144 C1155 0.931 . S
N1145 Tb1116 2.617 . S
N1145 C1146 1.379 . S
N1145 C1149 1.334 . S
C1146 N1145 1.379 . S
C1146 C1148 1.416 . S
C1146 C1154 1.424 . S
C1147 H1142 0.930 . S
C1147 C1149 1.390 . S
C1147 C1150 1.339 . S
C1148 C1146 1.416 . S
C1148 C1150 1.416 . S
C1148 C1181 1.448 . S
C1149 H1134 0.930 . S
C1149 N1145 1.334 . S
C1149 C1147 1.390 . S
C1150 C1147 1.339 . S
C1150 C1148 1.416 . S
C1150 H1157 0.930 . S
N1151 Tb1116 2.572 . S
N1151 C1152 1.340 . S
N1151 C1154 1.361 . S
C1152 H1138 0.930 . S
C1152 N1151 1.340 . S
C1152 C1156 1.407 . S
C1153 C1154 1.413 . S
C1153 C1155 1.416 . S
C1153 C1182 1.427 . S
C1154 C1146 1.424 . S
C1154 N1151 1.361 . S
C1154 C1153 1.413 . S
C1155 H1144 0.931 . S
C1155 C1153 1.416 . S
C1155 C1156 1.332 . S
C1156 H1135 0.929 . S
C1156 C1152 1.407 . S
C1156 C1155 1.332 . S
H1157 C1150 0.930 . S
H1158 C1181 0.930 . S
H1159 C1182 0.929 . S
O1160 Tb1116 2.465 . S
O1160 C1180 1.264 . S
O1161 Tb1116 2.387 . S
O1161 C1172 1.264 . S
O1162 Tb1127 2.349 . S
O1162 C1172 1.243 . S
O1163 Tb1116 2.428 . S
O1163 C1180 1.256 . S
O1164 Tb1116 2.308 . S
O1164 C1179 1.266 . S
O1165 Tb1127 2.393 . S
O1165 C1179 1.248 . S
O1166 Tb1127 2.465 . S
O1166 C1191 1.264 . S
O1167 Tb1127 2.387 . S
O1167 C1183 1.264 . S
O1168 Tb1116 2.349 . S
O1168 C1183 1.243 . S
O1169 Tb1127 2.428 . S
O1169 C1191 1.256 . S
O1170 Tb1127 2.308 . S
O1170 C1190 1.266 . S
O1171 Tb1116 2.393 . S
O1171 C1190 1.248 . S
C1172 O1161 1.264 . S
C1172 O1162 1.243 . S
C1173 C1176 1.399 . S
C1173 C1178 1.383 . S
C1173 C1180 1.496 . S
C1174 C1175 1.399 . S
C1174 C1178 1.389 . S
C1175 C1174 1.399 . S
C1175 C1177 1.380 . S
C1175 H1192 0.929 . S
C1176 C1173 1.399 . S
C1176 C1177 1.392 . S
C1176 H1193 0.929 . S
C1177 C1175 1.380 . S
C1177 C1176 1.392 . S
C1177 H1194 0.929 . S
C1178 C1173 1.383 . S
C1178 C1174 1.389 . S
C1178 H1195 0.931 . S
C1179 O1164 1.266 . S
C1179 O1165 1.248 . S
C1180 Tb1116 2.802 . S
C1180 O1160 1.264 . S
C1180 O1163 1.256 . S
C1180 C1173 1.496 . S
C1181 C1148 1.448 . S
C1181 H1158 0.930 . S
C1181 C1182 1.328 . S
C1182 C1153 1.427 . S
C1182 H1159 0.929 . S
C1182 C1181 1.328 . S
C1183 O1167 1.264 . S
C1183 O1168 1.243 . S
C1184 C1187 1.399 . S
C1184 C1188 1.383 . S
C1184 C1191 1.496 . S
C1185 C1186 1.399 . S
C1185 C1188 1.389 . S
C1186 C1185 1.399 . S
C1186 C1189 1.380 . S
C1186 H1196 0.929 . S
C1187 C1184 1.399 . S
C1187 C1189 1.392 . S
C1187 H1197 0.929 . S
C1188 C1184 1.383 . S
C1188 C1185 1.389 . S
C1188 H1198 0.931 . S
C1189 C1186 1.380 . S
C1189 C1187 1.392 . S
C1189 H1199 0.929 . S
C1190 O1170 1.266 . S
C1190 O1171 1.248 . S
C1191 Tb1127 2.802 . S
C1191 O1166 1.264 . S
C1191 O1169 1.256 . S
C1191 C1184 1.496 . S
H1192 C1175 0.929 . S
H1193 C1176 0.929 . S
H1194 C1177 0.929 . S
H1195 C1178 0.931 . S
H1196 C1186 0.929 . S
H1197 C1187 0.929 . S
H1198 C1188 0.931 . S
H1199 C1189 0.929 . S
Tb1200 N1229 2.631 . S
Tb1200 N1235 2.596 . S
Tb1200 O1244 2.497 . S
Tb1200 O1245 2.366 1_565 S
Tb1200 O1247 2.457 . S
Tb1200 O1248 2.297 1_565 S
Tb1200 O1252 2.336 1_565 S
Tb1200 O1255 2.368 1_565 S
Tb1200 C1264 2.837 . S
C1201 N1202 1.364 1_455 S
C1201 C1204 1.375 1_455 S
C1201 C1208 1.482 . S
N1202 C1201 1.364 1_655 S
N1202 C1205 1.334 . S
N1202 Tb1211 2.617 1_655 S
C1203 C1205 1.390 . S
C1203 C1206 1.339 . S
C1203 H1223 0.930 . S
C1204 C1201 1.375 1_655 S
C1204 C1206 1.416 . S
C1204 C1210 1.431 1_655 S
C1205 N1202 1.334 . S
C1205 C1203 1.390 . S
C1205 H1216 0.930 . S
C1206 C1203 1.339 . S
C1206 C1204 1.416 . S
C1206 H1227 0.930 . S
C1207 C1208 1.413 . S
C1207 C1209 1.427 . S
C1207 C1213 1.416 . S
C1208 C1201 1.482 . S
C1208 C1207 1.413 . S
C1208 N1212 1.361 . S
C1209 C1207 1.427 . S
C1209 C1210 1.385 . S
C1209 H1224 0.929 . S
C1210 C1204 1.431 1_455 S
C1210 C1209 1.385 . S
C1210 H1225 0.893 1_455 S
Tb1211 N1202 2.617 1_455 S
Tb1211 N1212 2.572 . S
Tb1211 O1246 2.349 . S
Tb1211 O1249 2.393 1_455 S
Tb1211 O1250 2.465 . S
Tb1211 O1251 2.387 . S
Tb1211 O1253 2.428 1_455 S
Tb1211 O1254 2.308 . S
Tb1211 C1275 2.802 . S
N1212 C1208 1.361 . S
N1212 Tb1211 2.572 . S
N1212 C1214 1.340 . S
C1213 C1207 1.416 . S
C1213 C1215 1.332 . S
C1213 H1221 0.931 . S
C1214 N1212 1.340 . S
C1214 C1215 1.407 . S
C1214 H1220 0.930 . S
C1215 C1213 1.332 . S
C1215 C1214 1.407 . S
C1215 H1217 0.929 . S
H1216 C1205 0.930 . S
H1217 C1215 0.929 . S
H1218 C1233 0.930 1_545 S
H1219 C1240 0.929 . S
H1220 C1214 0.930 . S
H1221 C1213 0.931 . S
H1222 C1236 0.972 . S
H1223 C1203 0.930 . S
H1224 C1209 0.929 . S
H1225 C1210 0.893 1_655 S
H1226 C1231 0.930 . S
H1227 C1206 0.930 . S
H1228 C1239 0.931 . S
N1229 Tb1200 2.631 . S
N1229 C1230 1.379 . S
N1229 C1233 1.334 . S
C1230 N1229 1.379 . S
C1230 C1232 1.416 . S
C1230 C1238 1.424 . S
C1231 H1226 0.930 . S
C1231 C1233 1.390 . S
C1231 C1234 1.339 . S
C1232 C1230 1.416 . S
C1232 C1234 1.416 . S
C1232 C1265 1.448 . S
C1233 H1218 0.930 1_565 S
C1233 N1229 1.334 . S
C1233 C1231 1.390 . S
C1234 C1231 1.339 . S
C1234 C1232 1.416 . S
C1234 H1241 0.930 . S
N1235 Tb1200 2.596 . S
N1235 C1236 1.280 1_455 S
N1235 C1238 1.361 . S
C1236 H1222 0.972 . S
C1236 N1235 1.280 1_655 S
C1236 C1240 1.430 . S
C1237 C1238 1.413 . S
C1237 C1239 1.416 1_455 S
C1237 C1266 1.427 . S
C1238 C1230 1.424 . S
C1238 N1235 1.361 . S
C1238 C1237 1.413 . S
C1239 H1228 0.931 . S
C1239 C1237 1.416 1_655 S
C1239 C1240 1.332 . S
C1240 H1219 0.929 . S
C1240 C1236 1.430 . S
C1240 C1239 1.332 . S
H1241 C1234 0.930 . S
H1242 C1265 0.930 . S
H1243 C1266 0.929 . S
O1244 Tb1200 2.497 . S
O1244 C1264 1.264 . S
O1245 Tb1200 2.366 1_545 S
O1245 C1256 1.264 . S
O1246 Tb1211 2.349 . S
O1246 C1256 1.243 . S
O1247 Tb1200 2.457 . S
O1247 C1264 1.256 . S
O1248 Tb1200 2.297 1_545 S
O1248 C1263 1.266 1_455 S
O1249 Tb1211 2.393 1_655 S
O1249 C1263 1.248 . S
O1250 Tb1211 2.465 . S
O1250 C1275 1.264 . S
O1251 Tb1211 2.387 . S
O1251 C1267 1.264 . S
O1252 Tb1200 2.336 1_545 S
O1252 C1267 1.243 . S
O1253 Tb1211 2.428 1_655 S
O1253 C1275 1.256 1_655 S
O1254 Tb1211 2.308 . S
O1254 C1274 1.266 . S
O1255 Tb1200 2.368 1_545 S
O1255 C1274 1.248 . S
C1256 O1245 1.264 . S
C1256 O1246 1.243 . S
C1257 C1260 1.399 . S
C1257 C1262 1.383 . S
C1257 C1264 1.496 . S
C1258 C1259 1.399 . S
C1258 C1262 1.389 . S
C1259 C1258 1.399 . S
C1259 C1261 1.380 . S
C1259 H1276 0.929 . S
C1260 C1257 1.399 . S
C1260 C1261 1.392 . S
C1260 H1277 0.929 . S
C1261 C1259 1.380 . S
C1261 C1260 1.392 . S
C1261 H1278 0.929 . S
C1262 C1257 1.383 . S
C1262 C1258 1.389 . S
C1262 H1279 0.931 . S
C1263 O1248 1.266 1_655 S
C1263 O1249 1.248 . S
C1264 Tb1200 2.837 . S
C1264 O1244 1.264 . S
C1264 O1247 1.256 . S
C1264 C1257 1.496 . S
C1265 C1232 1.448 . S
C1265 H1242 0.930 . S
C1265 C1266 1.328 . S
C1266 C1237 1.427 . S
C1266 H1243 0.929 . S
C1266 C1265 1.328 . S
C1267 O1251 1.264 . S
C1267 O1252 1.243 . S
C1268 C1271 1.399 1_455 S
C1268 C1272 1.383 . S
C1268 C1275 1.496 . S
C1269 C1270 1.399 1_455 S
C1269 C1272 1.389 . S
C1270 C1269 1.399 1_655 S
C1270 C1273 1.380 . S
C1270 H1280 0.929 . S
C1271 C1268 1.399 1_655 S
C1271 C1273 1.392 . S
C1271 H1281 0.929 . S
C1272 C1268 1.383 . S
C1272 C1269 1.389 . S
C1272 H1282 0.931 . S
C1273 C1270 1.380 . S
C1273 C1271 1.392 . S
C1273 H1283 0.929 . S
C1274 O1254 1.266 . S
C1274 O1255 1.248 . S
C1275 Tb1211 2.802 . S
C1275 O1250 1.264 . S
C1275 O1253 1.256 1_455 S
C1275 C1268 1.496 . S
H1276 C1259 0.929 . S
H1277 C1260 0.929 . S
H1278 C1261 0.929 . S
H1279 C1262 0.931 . S
H1280 C1270 0.929 . S
H1281 C1271 0.929 . S
H1282 C1272 0.931 . S
H1283 C1273 0.929 . S
Tb1284 N1313 2.617 . S
Tb1284 N1319 2.572 . S
Tb1284 O1328 2.465 . S
Tb1284 O1329 2.387 . S
Tb1284 O1331 2.428 . S
Tb1284 O1332 2.308 . S
Tb1284 O1336 2.349 . S
Tb1284 O1339 2.393 . S
Tb1284 C1348 2.802 . S
C1285 N1286 1.379 . S
C1285 C1288 1.416 . S
C1285 C1292 1.424 . S
N1286 C1285 1.379 . S
N1286 C1289 1.334 . S
N1286 Tb1295 2.617 . S
C1287 C1289 1.390 . S
C1287 C1290 1.339 . S
C1287 H1307 0.930 . S
C1288 C1285 1.416 . S
C1288 C1290 1.416 . S
C1288 C1294 1.448 . S
C1289 N1286 1.334 . S
C1289 C1287 1.390 . S
C1289 H1300 0.930 . S
C1290 C1287 1.339 . S
C1290 C1288 1.416 . S
C1290 H1311 0.930 . S
C1291 C1292 1.413 . S
C1291 C1293 1.427 . S
C1291 C1297 1.416 . S
C1292 C1285 1.424 . S
C1292 C1291 1.413 . S
C1292 N1296 1.361 . S
C1293 C1291 1.427 . S
C1293 C1294 1.328 . S
C1293 H1308 0.929 . S
C1294 C1288 1.448 . S
C1294 C1293 1.328 . S
C1294 H1309 0.930 . S
Tb1295 N1286 2.617 . S
Tb1295 N1296 2.572 . S
Tb1295 O1330 2.349 . S
Tb1295 O1333 2.393 . S
Tb1295 O1334 2.465 . S
Tb1295 O1335 2.387 . S
Tb1295 O1337 2.428 . S
Tb1295 O1338 2.308 . S
Tb1295 C1359 2.802 . S
N1296 C1292 1.361 . S
N1296 Tb1295 2.572 . S
N1296 C1298 1.340 . S
C1297 C1291 1.416 . S
C1297 C1299 1.332 . S
C1297 H1305 0.931 . S
C1298 N1296 1.340 . S
C1298 C1299 1.407 . S
C1298 H1304 0.930 . S
C1299 C1297 1.332 . S
C1299 C1298 1.407 . S
C1299 H1301 0.929 . S
H1300 C1289 0.930 . S
H1301 C1299 0.929 . S
H1302 C1317 0.930 . S
H1303 C1324 0.929 . S
H1304 C1298 0.930 . S
H1305 C1297 0.931 . S
H1306 C1320 0.930 . S
H1307 C1287 0.930 . S
H1308 C1293 0.929 . S
H1309 C1294 0.930 . S
H1310 C1315 0.930 . S
H1311 C1290 0.930 . S
H1312 C1323 0.931 . S
N1313 Tb1284 2.617 . S
N1313 C1314 1.379 . S
N1313 C1317 1.334 . S
C1314 N1313 1.379 . S
C1314 C1316 1.416 . S
C1314 C1322 1.424 . S
C1315 H1310 0.930 . S
C1315 C1317 1.390 . S
C1315 C1318 1.339 . S
C1316 C1314 1.416 . S
C1316 C1318 1.416 . S
C1316 C1349 1.448 . S
C1317 H1302 0.930 . S
C1317 N1313 1.334 . S
C1317 C1315 1.390 . S
C1318 C1315 1.339 . S
C1318 C1316 1.416 . S
C1318 H1325 0.930 . S
N1319 Tb1284 2.572 . S
N1319 C1320 1.340 . S
N1319 C1322 1.361 . S
C1320 H1306 0.930 . S
C1320 N1319 1.340 . S
C1320 C1324 1.407 . S
C1321 C1322 1.413 . S
C1321 C1323 1.416 . S
C1321 C1350 1.427 . S
C1322 C1314 1.424 . S
C1322 N1319 1.361 . S
C1322 C1321 1.413 . S
C1323 H1312 0.931 . S
C1323 C1321 1.416 . S
C1323 C1324 1.332 . S
C1324 H1303 0.929 . S
C1324 C1320 1.407 . S
C1324 C1323 1.332 . S
H1325 C1318 0.930 . S
H1326 C1349 0.930 . S
H1327 C1350 0.929 . S
O1328 Tb1284 2.465 . S
O1328 C1348 1.264 . S
O1329 Tb1284 2.387 . S
O1329 C1340 1.264 . S
O1330 Tb1295 2.349 . S
O1330 C1340 1.243 . S
O1331 Tb1284 2.428 . S
O1331 C1348 1.256 . S
O1332 Tb1284 2.308 . S
O1332 C1347 1.266 . S
O1333 Tb1295 2.393 . S
O1333 C1347 1.248 . S
O1334 Tb1295 2.465 . S
O1334 C1359 1.264 . S
O1335 Tb1295 2.387 . S
O1335 C1351 1.264 . S
O1336 Tb1284 2.349 . S
O1336 C1351 1.243 . S
O1337 Tb1295 2.428 . S
O1337 C1359 1.256 . S
O1338 Tb1295 2.308 . S
O1338 C1358 1.266 . S
O1339 Tb1284 2.393 . S
O1339 C1358 1.248 . S
C1340 O1329 1.264 . S
C1340 O1330 1.243 . S
C1341 C1344 1.399 . S
C1341 C1346 1.383 . S
C1341 C1348 1.496 . S
C1342 C1343 1.399 . S
C1342 C1346 1.389 . S
C1343 C1342 1.399 . S
C1343 C1345 1.380 . S
C1343 H1360 0.929 . S
C1344 C1341 1.399 . S
C1344 C1345 1.392 . S
C1344 H1361 0.929 . S
C1345 C1343 1.380 . S
C1345 C1344 1.392 . S
C1345 H1362 0.929 . S
C1346 C1341 1.383 . S
C1346 C1342 1.389 . S
C1346 H1363 0.931 . S
C1347 O1332 1.266 . S
C1347 O1333 1.248 . S
C1348 Tb1284 2.802 . S
C1348 O1328 1.264 . S
C1348 O1331 1.256 . S
C1348 C1341 1.496 . S
C1349 C1316 1.448 . S
C1349 H1326 0.930 . S
C1349 C1350 1.328 . S
C1350 C1321 1.427 . S
C1350 H1327 0.929 . S
C1350 C1349 1.328 . S
C1351 O1335 1.264 . S
C1351 O1336 1.243 . S
C1352 C1355 1.399 . S
C1352 C1356 1.383 . S
C1352 C1359 1.496 . S
C1353 C1354 1.399 . S
C1353 C1356 1.389 . S
C1354 C1353 1.399 . S
C1354 C1357 1.380 . S
C1354 H1364 0.929 . S
C1355 C1352 1.399 . S
C1355 C1357 1.392 . S
C1355 H1365 0.929 . S
C1356 C1352 1.383 . S
C1356 C1353 1.389 . S
C1356 H1366 0.931 . S
C1357 C1354 1.380 . S
C1357 C1355 1.392 . S
C1357 H1367 0.929 . S
C1358 O1338 1.266 . S
C1358 O1339 1.248 . S
C1359 Tb1295 2.802 . S
C1359 O1334 1.264 . S
C1359 O1337 1.256 . S
C1359 C1352 1.496 . S
H1360 C1343 0.929 . S
H1361 C1344 0.929 . S
H1362 C1345 0.929 . S
H1363 C1346 0.931 . S
H1364 C1354 0.929 . S
H1365 C1355 0.929 . S
H1366 C1356 0.931 . S
H1367 C1357 0.929 . S
Tb1368 N1397 2.617 . S
Tb1368 N1403 2.572 . S
Tb1368 O1412 2.465 . S
Tb1368 O1413 2.387 1_556 S
Tb1368 O1415 2.428 . S
Tb1368 O1416 2.303 1_556 S
Tb1368 O1420 2.349 1_556 S
Tb1368 O1423 2.393 1_556 S
Tb1368 C1432 2.802 . S
C1369 N1370 1.379 1_545 S
C1369 C1372 1.416 1_545 S
C1369 C1376 1.424 . S
N1370 C1369 1.379 1_565 S
N1370 C1373 1.334 . S
N1370 Tb1379 2.617 1_565 S
C1371 C1373 1.390 . S
C1371 C1374 1.339 . S
C1371 H1391 0.930 . S
C1372 C1369 1.416 1_565 S
C1372 C1374 1.416 . S
C1372 C1378 1.448 1_565 S
C1373 N1370 1.334 . S
C1373 C1371 1.390 . S
C1373 H1384 0.930 . S
C1374 C1371 1.339 . S
C1374 C1372 1.416 . S
C1374 H1395 0.930 . S
C1375 C1376 1.413 . S
C1375 C1377 1.427 . S
C1375 C1381 1.416 . S
C1376 C1369 1.424 . S
C1376 C1375 1.413 . S
C1376 N1380 1.361 . S
C1377 C1375 1.427 . S
C1377 C1378 1.328 . S
C1377 H1392 0.929 . S
C1378 C1372 1.448 1_545 S
C1378 C1377 1.328 . S
C1378 H1393 0.930 1_545 S
Tb1379 N1370 2.617 1_545 S
Tb1379 N1380 2.572 . S
Tb1379 O1414 2.349 . S
Tb1379 O1417 2.393 1_545 S
Tb1379 O1418 2.465 . S
Tb1379 O1419 2.387 . S
Tb1379 O1421 2.428 1_545 S
Tb1379 O1422 2.308 . S
Tb1379 C1443 2.802 . S
N1380 C1376 1.361 . S
N1380 Tb1379 2.572 . S
N1380 C1382 1.340 . S
C1381 C1375 1.416 . S
C1381 C1383 1.332 . S
C1381 H1389 0.931 . S
C1382 N1380 1.340 . S
C1382 C1383 1.407 . S
C1382 H1388 0.930 . S
C1383 C1381 1.332 . S
C1383 C1382 1.407 . S
C1383 H1385 0.929 . S
H1384 C1373 0.930 . S
H1385 C1383 0.929 . S
H1386 C1401 0.930 1_554 S
H1387 C1408 0.977 . S
H1388 C1382 0.930 . S
H1389 C1381 0.931 . S
H1390 C1404 0.930 . S
H1391 C1371 0.930 . S
H1392 C1377 0.929 . S
H1393 C1378 0.930 1_565 S
H1394 C1399 0.930 . S
H1395 C1374 0.930 . S
H1396 C1407 0.931 . S
N1397 Tb1368 2.617 . S
N1397 C1398 1.379 . S
N1397 C1401 1.334 . S
C1398 N1397 1.379 . S
C1398 C1400 1.416 . S
C1398 C1406 1.424 . S
C1399 H1394 0.930 . S
C1399 C1401 1.390 . S
C1399 C1402 1.339 . S
C1400 C1398 1.416 . S
C1400 C1402 1.416 . S
C1400 C1433 1.448 . S
C1401 H1386 0.930 1_556 S
C1401 N1397 1.334 . S
C1401 C1399 1.390 . S
C1402 C1399 1.339 . S
C1402 C1400 1.416 . S
C1402 H1409 0.930 . S
N1403 Tb1368 2.572 . S
N1403 C1404 1.340 . S
N1403 C1406 1.361 . S
C1404 H1390 0.930 . S
C1404 N1403 1.340 . S
C1404 C1408 1.394 1_545 S
C1405 C1406 1.413 . S
C1405 C1407 1.416 . S
C1405 C1434 1.427 . S
C1406 C1398 1.424 . S
C1406 N1403 1.361 . S
C1406 C1405 1.413 . S
C1407 H1396 0.931 . S
C1407 C1405 1.416 . S
C1407 C1408 1.299 1_545 S
C1408 H1387 0.977 . S
C1408 C1404 1.394 1_565 S
C1408 C1407 1.299 1_565 S
H1409 C1402 0.930 . S
H1410 C1433 0.930 . S
H1411 C1434 0.929 . S
O1412 Tb1368 2.465 . S
O1412 C1432 1.264 . S
O1413 Tb1368 2.387 1_554 S
O1413 C1424 1.264 . S
O1414 Tb1379 2.349 . S
O1414 C1424 1.243 . S
O1415 Tb1368 2.428 . S
O1415 C1432 1.256 . S
O1416 Tb1368 2.303 1_554 S
O1416 C1431 1.276 1_545 S
O1417 Tb1379 2.393 1_565 S
O1417 C1431 1.248 . S
O1418 Tb1379 2.465 . S
O1418 C1443 1.264 . S
O1419 Tb1379 2.387 . S
O1419 C1435 1.264 . S
O1420 Tb1368 2.349 1_554 S
O1420 C1435 1.243 . S
O1421 Tb1379 2.428 1_565 S
O1421 C1443 1.256 1_565 S
O1422 Tb1379 2.308 . S
O1422 C1442 1.266 . S
O1423 Tb1368 2.393 1_554 S
O1423 C1442 1.248 . S
C1424 O1413 1.264 . S
C1424 O1414 1.243 . S
C1425 C1428 1.399 . S
C1425 C1430 1.383 . S
C1425 C1432 1.496 . S
C1426 C1427 1.399 . S
C1426 C1430 1.389 . S
C1427 C1426 1.399 . S
C1427 C1429 1.380 . S
C1427 H1444 0.929 . S
C1428 C1425 1.399 . S
C1428 C1429 1.392 . S
C1428 H1445 0.929 . S
C1429 C1427 1.380 . S
C1429 C1428 1.392 . S
C1429 H1446 0.929 . S
C1430 C1425 1.383 . S
C1430 C1426 1.389 . S
C1430 H1447 0.931 . S
C1431 O1416 1.276 1_565 S
C1431 O1417 1.248 . S
C1432 Tb1368 2.802 . S
C1432 O1412 1.264 . S
C1432 O1415 1.256 . S
C1432 C1425 1.496 . S
C1433 C1400 1.448 . S
C1433 H1410 0.930 . S
C1433 C1434 1.328 . S
C1434 C1405 1.427 . S
C1434 H1411 0.929 . S
C1434 C1433 1.328 . S
C1435 O1419 1.264 . S
C1435 O1420 1.243 . S
C1436 C1439 1.448 . S
C1436 C1440 1.349 1_565 S
C1436 C1443 1.484 1_565 S
C1437 C1438 1.399 1_545 S
C1437 C1440 1.389 . S
C1438 C1437 1.399 1_565 S
C1438 C1441 1.380 . S
C1438 H1448 0.929 . S
C1439 C1436 1.448 . S
C1439 C1441 1.392 . S
C1439 H1449 0.929 . S
C1440 C1436 1.349 1_545 S
C1440 C1437 1.389 . S
C1440 H1450 0.931 . S
C1441 C1438 1.380 . S
C1441 C1439 1.392 . S
C1441 H1451 0.929 . S
C1442 O1422 1.266 . S
C1442 O1423 1.248 . S
C1443 Tb1379 2.802 . S
C1443 O1418 1.264 . S
C1443 O1421 1.256 1_545 S
C1443 C1436 1.484 1_545 S
H1444 C1427 0.929 . S
H1445 C1428 0.929 . S
H1446 C1429 0.929 . S
H1447 C1430 0.931 . S
H1448 C1438 0.929 . S
H1449 C1439 0.929 . S
H1450 C1440 0.931 . S
H1451 C1441 0.929 . S
Tb1452 N1481 2.617 . S
Tb1452 N1487 2.572 . S
Tb1452 O1496 2.465 . S
Tb1452 O1497 2.387 . S
Tb1452 O1499 2.428 . S
Tb1452 O1500 2.308 . S
Tb1452 O1504 2.349 . S
Tb1452 O1507 2.393 . S
Tb1452 C1516 2.802 . S
C1453 N1454 1.379 . S
C1453 C1456 1.416 . S
C1453 C1460 1.424 . S
N1454 C1453 1.379 . S
N1454 C1457 1.334 . S
N1454 Tb1463 2.617 . S
C1455 C1457 1.390 . S
C1455 C1458 1.339 . S
C1455 H1475 0.930 . S
C1456 C1453 1.416 . S
C1456 C1458 1.416 . S
C1456 C1462 1.448 . S
C1457 N1454 1.334 . S
C1457 C1455 1.390 . S
C1457 H1468 0.930 . S
C1458 C1455 1.339 . S
C1458 C1456 1.416 . S
C1458 H1479 0.930 . S
C1459 C1460 1.413 . S
C1459 C1461 1.427 . S
C1459 C1465 1.416 . S
C1460 C1453 1.424 . S
C1460 C1459 1.413 . S
C1460 N1464 1.361 . S
C1461 C1459 1.427 . S
C1461 C1462 1.328 . S
C1461 H1476 0.929 . S
C1462 C1456 1.448 . S
C1462 C1461 1.328 . S
C1462 H1477 0.930 . S
Tb1463 N1454 2.617 . S
Tb1463 N1464 2.572 . S
Tb1463 O1498 2.349 . S
Tb1463 O1501 2.393 . S
Tb1463 O1502 2.465 . S
Tb1463 O1503 2.387 . S
Tb1463 O1505 2.428 . S
Tb1463 O1506 2.308 . S
Tb1463 C1527 2.802 . S
N1464 C1460 1.361 . S
N1464 Tb1463 2.572 . S
N1464 C1466 1.340 . S
C1465 C1459 1.416 . S
C1465 C1467 1.332 . S
C1465 H1473 0.931 . S
C1466 N1464 1.340 . S
C1466 C1467 1.407 . S
C1466 H1472 0.930 . S
C1467 C1465 1.332 . S
C1467 C1466 1.407 . S
C1467 H1469 0.929 . S
H1468 C1457 0.930 . S
H1469 C1467 0.929 . S
H1470 C1485 0.930 . S
H1471 C1492 0.929 . S
H1472 C1466 0.930 . S
H1473 C1465 0.931 . S
H1474 C1488 0.930 . S
H1475 C1455 0.930 . S
H1476 C1461 0.929 . S
H1477 C1462 0.930 . S
H1478 C1483 0.930 . S
H1479 C1458 0.930 . S
H1480 C1491 0.931 . S
N1481 Tb1452 2.617 . S
N1481 C1482 1.379 . S
N1481 C1485 1.334 . S
C1482 N1481 1.379 . S
C1482 C1484 1.416 . S
C1482 C1490 1.424 . S
C1483 H1478 0.930 . S
C1483 C1485 1.390 . S
C1483 C1486 1.339 . S
C1484 C1482 1.416 . S
C1484 C1486 1.416 . S
C1484 C1517 1.448 . S
C1485 H1470 0.930 . S
C1485 N1481 1.334 . S
C1485 C1483 1.390 . S
C1486 C1483 1.339 . S
C1486 C1484 1.416 . S
C1486 H1493 0.930 . S
N1487 Tb1452 2.572 . S
N1487 C1488 1.340 . S
N1487 C1490 1.361 . S
C1488 H1474 0.930 . S
C1488 N1487 1.340 . S
C1488 C1492 1.407 . S
C1489 C1490 1.413 . S
C1489 C1491 1.416 . S
C1489 C1518 1.427 . S
C1490 C1482 1.424 . S
C1490 N1487 1.361 . S
C1490 C1489 1.413 . S
C1491 H1480 0.931 . S
C1491 C1489 1.416 . S
C1491 C1492 1.332 . S
C1492 H1471 0.929 . S
C1492 C1488 1.407 . S
C1492 C1491 1.332 . S
H1493 C1486 0.930 . S
H1494 C1517 0.930 . S
H1495 C1518 0.929 . S
O1496 Tb1452 2.465 . S
O1496 C1516 1.264 . S
O1497 Tb1452 2.387 . S
O1497 C1508 1.264 . S
O1498 Tb1463 2.349 . S
O1498 C1508 1.243 . S
O1499 Tb1452 2.428 . S
O1499 C1516 1.256 . S
O1500 Tb1452 2.308 . S
O1500 C1515 1.266 . S
O1501 Tb1463 2.393 . S
O1501 C1515 1.248 . S
O1502 Tb1463 2.465 . S
O1502 C1527 1.264 . S
O1503 Tb1463 2.387 . S
O1503 C1519 1.264 . S
O1504 Tb1452 2.349 . S
O1504 C1519 1.243 . S
O1505 Tb1463 2.428 . S
O1505 C1527 1.256 . S
O1506 Tb1463 2.308 . S
O1506 C1526 1.266 . S
O1507 Tb1452 2.393 . S
O1507 C1526 1.248 . S
C1508 O1497 1.264 . S
C1508 O1498 1.243 . S
C1509 C1512 1.399 . S
C1509 C1514 1.383 . S
C1509 C1516 1.496 . S
C1510 C1511 1.399 . S
C1510 C1514 1.389 . S
C1511 C1510 1.399 . S
C1511 C1513 1.380 . S
C1511 H1528 0.929 . S
C1512 C1509 1.399 . S
C1512 C1513 1.392 . S
C1512 H1529 0.929 . S
C1513 C1511 1.380 . S
C1513 C1512 1.392 . S
C1513 H1530 0.929 . S
C1514 C1509 1.383 . S
C1514 C1510 1.389 . S
C1514 H1531 0.931 . S
C1515 O1500 1.266 . S
C1515 O1501 1.248 . S
C1516 Tb1452 2.802 . S
C1516 O1496 1.264 . S
C1516 O1499 1.256 . S
C1516 C1509 1.496 . S
C1517 C1484 1.448 . S
C1517 H1494 0.930 . S
C1517 C1518 1.328 . S
C1518 C1489 1.427 . S
C1518 H1495 0.929 . S
C1518 C1517 1.328 . S
C1519 O1503 1.264 . S
C1519 O1504 1.243 . S
C1520 C1523 1.399 . S
C1520 C1524 1.383 . S
C1520 C1527 1.496 . S
C1521 C1522 1.399 . S
C1521 C1524 1.389 . S
C1522 C1521 1.399 . S
C1522 C1525 1.380 . S
C1522 H1532 0.929 . S
C1523 C1520 1.399 . S
C1523 C1525 1.392 . S
C1523 H1533 0.929 . S
C1524 C1520 1.383 . S
C1524 C1521 1.389 . S
C1524 H1534 0.931 . S
C1525 C1522 1.380 . S
C1525 C1523 1.392 . S
C1525 H1535 0.929 . S
C1526 O1506 1.266 . S
C1526 O1507 1.248 . S
C1527 Tb1463 2.802 . S
C1527 O1502 1.264 . S
C1527 O1505 1.256 . S
C1527 C1520 1.496 . S
H1528 C1511 0.929 . S
H1529 C1512 0.929 . S
H1530 C1513 0.929 . S
H1531 C1514 0.931 . S
H1532 C1522 0.929 . S
H1533 C1523 0.929 . S
H1534 C1524 0.931 . S
H1535 C1525 0.929 . S
Tb1536 N1565 2.617 1_554 S
Tb1536 N1571 2.572 1_554 S
Tb1536 O1580 2.465 . S
Tb1536 O1581 2.387 1_554 S
Tb1536 O1583 2.428 . S
Tb1536 O1584 2.308 . S
Tb1536 O1588 2.349 . S
Tb1536 O1591 2.393 . S
Tb1536 C1600 2.802 . S
C1537 N1538 1.379 . S
C1537 C1540 1.416 . S
C1537 C1544 1.424 . S
N1538 C1537 1.379 . S
N1538 C1541 1.334 . S
N1538 Tb1547 2.617 . S
C1539 C1541 1.390 . S
C1539 C1542 1.339 . S
C1539 H1559 0.930 . S
C1540 C1537 1.416 . S
C1540 C1542 1.416 . S
C1540 C1546 1.448 . S
C1541 N1538 1.334 . S
C1541 C1539 1.390 . S
C1541 H1552 0.930 . S
C1542 C1539 1.339 . S
C1542 C1540 1.416 . S
C1542 H1563 0.930 . S
C1543 C1544 1.413 . S
C1543 C1545 1.427 . S
C1543 C1549 1.416 . S
C1544 C1537 1.424 . S
C1544 C1543 1.413 . S
C1544 N1548 1.361 . S
C1545 C1543 1.427 . S
C1545 C1546 1.328 . S
C1545 H1560 0.929 . S
C1546 C1540 1.448 . S
C1546 C1545 1.328 . S
C1546 H1561 0.930 . S
Tb1547 N1538 2.617 . S
Tb1547 N1548 2.572 . S
Tb1547 O1582 2.349 1_554 S
Tb1547 O1585 2.393 . S
Tb1547 O1586 2.465 . S
Tb1547 O1587 2.387 . S
Tb1547 O1589 2.428 . S
Tb1547 O1590 2.308 . S
Tb1547 C1611 2.802 . S
N1548 C1544 1.361 . S
N1548 Tb1547 2.572 . S
N1548 C1550 1.340 . S
C1549 C1543 1.416 . S
C1549 C1551 1.332 . S
C1549 H1557 0.931 . S
C1550 N1548 1.340 . S
C1550 C1551 1.407 . S
C1550 H1556 0.930 . S
C1551 C1549 1.332 . S
C1551 C1550 1.407 . S
C1551 H1553 0.929 . S
H1552 C1541 0.930 . S
H1553 C1551 0.929 . S
H1554 C1569 0.930 1_554 S
H1555 C1576 0.929 . S
H1556 C1550 0.930 . S
H1557 C1549 0.931 . S
H1558 C1572 0.930 1_554 S
H1559 C1539 0.930 . S
H1560 C1545 0.929 . S
H1561 C1546 0.930 . S
H1562 C1567 0.930 . S
H1563 C1542 0.930 . S
H1564 C1575 0.931 . S
N1565 Tb1536 2.617 1_556 S
N1565 C1566 1.379 . S
N1565 C1569 1.334 . S
C1566 N1565 1.379 . S
C1566 C1568 1.416 . S
C1566 C1574 1.424 . S
C1567 H1562 0.930 . S
C1567 C1569 1.390 . S
C1567 C1570 1.339 . S
C1568 C1566 1.416 . S
C1568 C1570 1.416 . S
C1568 C1601 1.448 . S
C1569 H1554 0.930 1_556 S
C1569 N1565 1.334 . S
C1569 C1567 1.390 . S
C1570 C1567 1.339 . S
C1570 C1568 1.416 . S
C1570 H1577 0.930 . S
N1571 Tb1536 2.572 1_556 S
N1571 C1572 1.340 . S
N1571 C1574 1.361 . S
C1572 H1558 0.930 1_556 S
C1572 N1571 1.340 . S
C1572 C1576 1.407 . S
C1573 C1574 1.413 . S
C1573 C1575 1.416 . S
C1573 C1602 1.427 . S
C1574 C1566 1.424 . S
C1574 N1571 1.361 . S
C1574 C1573 1.413 . S
C1575 H1564 0.931 . S
C1575 C1573 1.416 . S
C1575 C1576 1.332 . S
C1576 H1555 0.929 . S
C1576 C1572 1.407 . S
C1576 C1575 1.332 . S
H1577 C1570 0.930 . S
H1578 C1601 0.930 . S
H1579 C1602 0.929 . S
O1580 Tb1536 2.465 . S
O1580 C1600 1.264 . S
O1581 Tb1536 2.387 1_556 S
O1581 C1592 1.264 . S
O1582 Tb1547 2.349 1_556 S
O1582 C1592 1.243 . S
O1583 Tb1536 2.428 . S
O1583 C1600 1.256 . S
O1584 Tb1536 2.308 . S
O1584 C1599 1.266 . S
O1585 Tb1547 2.393 . S
O1585 C1599 1.248 . S
O1586 Tb1547 2.465 . S
O1586 C1611 1.264 . S
O1587 Tb1547 2.387 . S
O1587 C1603 1.264 . S
O1588 Tb1536 2.349 . S
O1588 C1603 1.243 . S
O1589 Tb1547 2.428 . S
O1589 C1611 1.256 . S
O1590 Tb1547 2.308 . S
O1590 C1610 1.266 . S
O1591 Tb1536 2.393 . S
O1591 C1610 1.248 . S
C1592 O1581 1.264 . S
C1592 O1582 1.243 . S
C1593 C1596 1.399 . S
C1593 C1598 1.383 . S
C1593 C1600 1.496 . S
C1594 C1595 1.399 . S
C1594 C1598 1.389 . S
C1595 C1594 1.399 . S
C1595 C1597 1.380 . S
C1595 H1612 0.929 . S
C1596 C1593 1.399 . S
C1596 C1597 1.392 . S
C1596 H1613 0.929 . S
C1597 C1595 1.380 . S
C1597 C1596 1.392 . S
C1597 H1614 0.929 . S
C1598 C1593 1.383 . S
C1598 C1594 1.389 . S
C1598 H1615 0.931 . S
C1599 O1584 1.266 . S
C1599 O1585 1.248 . S
C1600 Tb1536 2.802 . S
C1600 O1580 1.264 . S
C1600 O1583 1.256 . S
C1600 C1593 1.496 . S
C1601 C1568 1.448 . S
C1601 H1578 0.930 . S
C1601 C1602 1.328 . S
C1602 C1573 1.427 . S
C1602 H1579 0.929 . S
C1602 C1601 1.328 . S
C1603 O1587 1.264 . S
C1603 O1588 1.243 . S
C1604 C1607 1.399 . S
C1604 C1608 1.383 . S
C1604 C1611 1.496 1_556 S
C1605 C1606 1.399 . S
C1605 C1608 1.389 . S
C1606 C1605 1.399 . S
C1606 C1609 1.380 . S
C1606 H1616 0.929 . S
C1607 C1604 1.399 . S
C1607 C1609 1.392 . S
C1607 H1617 0.929 . S
C1608 C1604 1.383 . S
C1608 C1605 1.389 . S
C1608 H1618 0.931 . S
C1609 C1606 1.380 . S
C1609 C1607 1.392 . S
C1609 H1619 0.929 . S
C1610 O1590 1.266 . S
C1610 O1591 1.248 . S
C1611 Tb1547 2.802 . S
C1611 O1586 1.264 . S
C1611 O1589 1.256 . S
C1611 C1604 1.496 1_554 S
H1612 C1595 0.929 . S
H1613 C1596 0.929 . S
H1614 C1597 0.929 . S
H1615 C1598 0.931 . S
H1616 C1606 0.929 . S
H1617 C1607 0.929 . S
H1618 C1608 0.931 . S
H1619 C1609 0.929 . S
Tb1620 N1649 2.617 . S
Tb1620 N1655 2.572 . S
Tb1620 O1664 2.465 . S
Tb1620 O1665 2.387 . S
Tb1620 O1667 2.428 . S
Tb1620 O1668 2.308 . S
Tb1620 O1672 2.349 . S
Tb1620 O1675 2.393 . S
Tb1620 C1684 2.802 . S
C1621 N1622 1.379 . S
C1621 C1624 1.416 . S
C1621 C1628 1.424 . S
N1622 C1621 1.379 . S
N1622 C1625 1.334 . S
N1622 Tb1631 2.617 . S
C1623 C1625 1.390 . S
C1623 C1626 1.339 . S
C1623 H1643 0.930 . S
C1624 C1621 1.416 . S
C1624 C1626 1.416 . S
C1624 C1630 1.448 . S
C1625 N1622 1.334 . S
C1625 C1623 1.390 . S
C1625 H1636 0.930 . S
C1626 C1623 1.339 . S
C1626 C1624 1.416 . S
C1626 H1647 0.930 . S
C1627 C1628 1.413 . S
C1627 C1629 1.427 . S
C1627 C1633 1.416 . S
C1628 C1621 1.424 . S
C1628 C1627 1.413 . S
C1628 N1632 1.361 . S
C1629 C1627 1.427 . S
C1629 C1630 1.328 . S
C1629 H1644 0.929 . S
C1630 C1624 1.448 . S
C1630 C1629 1.328 . S
C1630 H1645 0.930 . S
Tb1631 N1622 2.617 . S
Tb1631 N1632 2.572 . S
Tb1631 O1666 2.349 . S
Tb1631 O1669 2.393 . S
Tb1631 O1670 2.465 . S
Tb1631 O1671 2.387 . S
Tb1631 O1673 2.428 . S
Tb1631 O1674 2.308 . S
Tb1631 C1695 2.802 . S
N1632 C1628 1.361 . S
N1632 Tb1631 2.572 . S
N1632 C1634 1.340 . S
C1633 C1627 1.416 . S
C1633 C1635 1.332 . S
C1633 H1641 0.931 . S
C1634 N1632 1.340 . S
C1634 C1635 1.407 . S
C1634 H1640 0.930 . S
C1635 C1633 1.332 . S
C1635 C1634 1.407 . S
C1635 H1637 0.929 . S
H1636 C1625 0.930 . S
H1637 C1635 0.929 . S
H1638 C1653 0.930 . S
H1639 C1660 0.929 . S
H1640 C1634 0.930 . S
H1641 C1633 0.931 . S
H1642 C1656 0.930 . S
H1643 C1623 0.930 . S
H1644 C1629 0.929 . S
H1645 C1630 0.930 . S
H1646 C1651 0.930 . S
H1647 C1626 0.930 . S
H1648 C1659 0.931 . S
N1649 Tb1620 2.617 . S
N1649 C1650 1.379 . S
N1649 C1653 1.334 . S
C1650 N1649 1.379 . S
C1650 C1652 1.416 . S
C1650 C1658 1.424 . S
C1651 H1646 0.930 . S
C1651 C1653 1.390 . S
C1651 C1654 1.339 . S
C1652 C1650 1.416 . S
C1652 C1654 1.416 . S
C1652 C1685 1.448 . S
C1653 H1638 0.930 . S
C1653 N1649 1.334 . S
C1653 C1651 1.390 . S
C1654 C1651 1.339 . S
C1654 C1652 1.416 . S
C1654 H1661 0.930 . S
N1655 Tb1620 2.572 . S
N1655 C1656 1.340 . S
N1655 C1658 1.361 . S
C1656 H1642 0.930 . S
C1656 N1655 1.340 . S
C1656 C1660 1.407 . S
C1657 C1658 1.413 . S
C1657 C1659 1.416 . S
C1657 C1686 1.427 . S
C1658 C1650 1.424 . S
C1658 N1655 1.361 . S
C1658 C1657 1.413 . S
C1659 H1648 0.931 . S
C1659 C1657 1.416 . S
C1659 C1660 1.332 . S
C1660 H1639 0.929 . S
C1660 C1656 1.407 . S
C1660 C1659 1.332 . S
H1661 C1654 0.930 . S
H1662 C1685 0.930 . S
H1663 C1686 0.929 . S
O1664 Tb1620 2.465 . S
O1664 C1684 1.264 . S
O1665 Tb1620 2.387 . S
O1665 C1676 1.264 . S
O1666 Tb1631 2.349 . S
O1666 C1676 1.243 . S
O1667 Tb1620 2.428 . S
O1667 C1684 1.256 . S
O1668 Tb1620 2.308 . S
O1668 C1683 1.266 . S
O1669 Tb1631 2.393 . S
O1669 C1683 1.248 . S
O1670 Tb1631 2.465 . S
O1670 C1695 1.264 . S
O1671 Tb1631 2.387 . S
O1671 C1687 1.264 . S
O1672 Tb1620 2.349 . S
O1672 C1687 1.243 . S
O1673 Tb1631 2.428 . S
O1673 C1695 1.256 . S
O1674 Tb1631 2.308 . S
O1674 C1694 1.266 . S
O1675 Tb1620 2.393 . S
O1675 C1694 1.248 . S
C1676 O1665 1.264 . S
C1676 O1666 1.243 . S
C1677 C1680 1.399 . S
C1677 C1682 1.383 . S
C1677 C1684 1.496 . S
C1678 C1679 1.399 . S
C1678 C1682 1.389 . S
C1679 C1678 1.399 . S
C1679 C1681 1.380 . S
C1679 H1696 0.929 . S
C1680 C1677 1.399 . S
C1680 C1681 1.392 . S
C1680 H1697 0.929 . S
C1681 C1679 1.380 . S
C1681 C1680 1.392 . S
C1681 H1698 0.929 . S
C1682 C1677 1.383 . S
C1682 C1678 1.389 . S
C1682 H1699 0.931 . S
C1683 O1668 1.266 . S
C1683 O1669 1.248 . S
C1684 Tb1620 2.802 . S
C1684 O1664 1.264 . S
C1684 O1667 1.256 . S
C1684 C1677 1.496 . S
C1685 C1652 1.448 . S
C1685 H1662 0.930 . S
C1685 C1686 1.328 . S
C1686 C1657 1.427 . S
C1686 H1663 0.929 . S
C1686 C1685 1.328 . S
C1687 O1671 1.264 . S
C1687 O1672 1.243 . S
C1688 C1691 1.399 . S
C1688 C1692 1.383 . S
C1688 C1695 1.496 . S
C1689 C1690 1.399 . S
C1689 C1692 1.389 . S
C1690 C1689 1.399 . S
C1690 C1693 1.380 . S
C1690 H1700 0.929 . S
C1691 C1688 1.399 . S
C1691 C1693 1.392 . S
C1691 H1701 0.929 . S
C1692 C1688 1.383 . S
C1692 C1689 1.389 . S
C1692 H1702 0.931 . S
C1693 C1690 1.380 . S
C1693 C1691 1.392 . S
C1693 H1703 0.929 . S
C1694 O1674 1.266 . S
C1694 O1675 1.248 . S
C1695 Tb1631 2.802 . S
C1695 O1670 1.264 . S
C1695 O1673 1.256 . S
C1695 C1688 1.496 . S
H1696 C1679 0.929 . S
H1697 C1680 0.929 . S
H1698 C1681 0.929 . S
H1699 C1682 0.931 . S
H1700 C1690 0.929 . S
H1701 C1691 0.929 . S
H1702 C1692 0.931 . S
H1703 C1693 0.929 . S
Tb1704 N1733 2.613 . S
Tb1704 N1739 2.572 1_455 S
Tb1704 O1748 2.465 . S
Tb1704 O1749 2.387 1_455 S
Tb1704 O1751 2.428 . S
Tb1704 O1752 2.308 . S
Tb1704 O1756 2.349 . S
Tb1704 O1759 2.393 . S
Tb1704 C1768 2.802 . S
C1705 N1706 1.379 . S
C1705 C1708 1.416 . S
C1705 C1712 1.424 . S
N1706 C1705 1.379 . S
N1706 C1709 1.334 . S
N1706 Tb1715 2.617 . S
C1707 C1709 1.390 . S
C1707 C1710 1.339 . S
C1707 H1727 0.930 . S
C1708 C1705 1.416 . S
C1708 C1710 1.416 . S
C1708 C1714 1.448 . S
C1709 N1706 1.334 . S
C1709 C1707 1.390 . S
C1709 H1720 0.930 . S
C1710 C1707 1.339 . S
C1710 C1708 1.416 . S
C1710 H1731 0.930 . S
C1711 C1712 1.413 . S
C1711 C1713 1.427 . S
C1711 C1717 1.416 . S
C1712 C1705 1.424 . S
C1712 C1711 1.413 . S
C1712 N1716 1.361 . S
C1713 C1711 1.427 . S
C1713 C1714 1.328 . S
C1713 H1728 0.929 . S
C1714 C1708 1.448 . S
C1714 C1713 1.328 . S
C1714 H1729 0.930 . S
Tb1715 N1706 2.617 . S
Tb1715 N1716 2.572 . S
Tb1715 O1750 2.299 1_455 S
Tb1715 O1753 2.393 . S
Tb1715 O1754 2.465 . S
Tb1715 O1755 2.387 . S
Tb1715 O1757 2.428 . S
Tb1715 O1758 2.308 . S
Tb1715 C1779 2.802 . S
N1716 C1712 1.361 . S
N1716 Tb1715 2.572 . S
N1716 C1718 1.340 . S
C1717 C1711 1.416 . S
C1717 C1719 1.332 . S
C1717 H1725 0.931 . S
C1718 N1716 1.340 . S
C1718 C1719 1.407 . S
C1718 H1724 0.930 . S
C1719 C1717 1.332 . S
C1719 C1718 1.407 . S
C1719 H1721 0.929 . S
H1720 C1709 0.930 . S
H1721 C1719 0.929 . S
H1722 C1737 0.970 . S
H1723 C1744 0.929 . S
H1724 C1718 0.930 . S
H1725 C1717 0.931 . S
H1726 C1740 0.930 1_455 S
H1727 C1707 0.930 . S
H1728 C1713 0.929 . S
H1729 C1714 0.930 . S
H1730 C1735 0.930 . S
H1731 C1710 0.930 . S
H1732 C1743 0.931 . S
N1733 Tb1704 2.613 . S
N1733 C1734 1.383 1_455 S
N1733 C1737 1.348 . S
C1734 N1733 1.383 1_655 S
C1734 C1736 1.416 . S
C1734 C1742 1.424 . S
C1735 H1730 0.930 . S
C1735 C1737 1.342 1_655 S
C1735 C1738 1.339 . S
C1736 C1734 1.416 . S
C1736 C1738 1.416 . S
C1736 C1769 1.448 . S
C1737 H1722 0.970 . S
C1737 N1733 1.348 . S
C1737 C1735 1.342 1_455 S
C1738 C1735 1.339 . S
C1738 C1736 1.416 . S
C1738 H1745 0.930 . S
N1739 Tb1704 2.572 1_655 S
N1739 C1740 1.340 . S
N1739 C1742 1.361 . S
C1740 H1726 0.930 1_655 S
C1740 N1739 1.340 . S
C1740 C1744 1.407 . S
C1741 C1742 1.413 . S
C1741 C1743 1.416 . S
C1741 C1770 1.427 . S
C1742 C1734 1.424 . S
C1742 N1739 1.361 . S
C1742 C1741 1.413 . S
C1743 H1732 0.931 . S
C1743 C1741 1.416 . S
C1743 C1744 1.332 . S
C1744 H1723 0.929 . S
C1744 C1740 1.407 . S
C1744 C1743 1.332 . S
H1745 C1738 0.930 . S
H1746 C1769 0.930 . S
H1747 C1770 0.929 . S
O1748 Tb1704 2.465 . S
O1748 C1768 1.264 . S
O1749 Tb1704 2.387 1_655 S
O1749 C1760 1.264 . S
O1750 Tb1715 2.299 1_655 S
O1750 C1760 1.275 . S
O1751 Tb1704 2.428 . S
O1751 C1768 1.256 . S
O1752 Tb1704 2.308 . S
O1752 C1767 1.266 . S
O1753 Tb1715 2.393 . S
O1753 C1767 1.248 . S
O1754 Tb1715 2.465 . S
O1754 C1779 1.264 . S
O1755 Tb1715 2.387 . S
O1755 C1771 1.264 . S
O1756 Tb1704 2.349 . S
O1756 C1771 1.243 . S
O1757 Tb1715 2.428 . S
O1757 C1779 1.256 . S
O1758 Tb1715 2.308 . S
O1758 C1778 1.266 . S
O1759 Tb1704 2.393 . S
O1759 C1778 1.248 . S
C1760 O1749 1.264 . S
C1760 O1750 1.275 . S
C1761 C1764 1.399 . S
C1761 C1766 1.383 . S
C1761 C1768 1.496 . S
C1762 C1763 1.399 . S
C1762 C1766 1.389 . S
C1763 C1762 1.399 . S
C1763 C1765 1.380 . S
C1763 H1780 0.929 . S
C1764 C1761 1.399 . S
C1764 C1765 1.392 . S
C1764 H1781 0.929 . S
C1765 C1763 1.380 . S
C1765 C1764 1.392 . S
C1765 H1782 0.929 . S
C1766 C1761 1.383 . S
C1766 C1762 1.389 . S
C1766 H1783 0.931 . S
C1767 O1752 1.266 . S
C1767 O1753 1.248 . S
C1768 Tb1704 2.802 . S
C1768 O1748 1.264 . S
C1768 O1751 1.256 . S
C1768 C1761 1.496 . S
C1769 C1736 1.448 . S
C1769 H1746 0.930 . S
C1769 C1770 1.328 . S
C1770 C1741 1.427 . S
C1770 H1747 0.929 . S
C1770 C1769 1.328 . S
C1771 O1755 1.264 . S
C1771 O1756 1.243 . S
C1772 C1775 1.399 . S
C1772 C1776 1.383 . S
C1772 C1779 1.496 1_655 S
C1773 C1774 1.399 . S
C1773 C1776 1.389 . S
C1774 C1773 1.399 . S
C1774 C1777 1.380 . S
C1774 H1784 0.929 . S
C1775 C1772 1.399 . S
C1775 C1777 1.392 . S
C1775 H1785 0.936 . S
C1776 C1772 1.383 . S
C1776 C1773 1.389 . S
C1776 H1786 0.931 . S
C1777 C1774 1.380 . S
C1777 C1775 1.392 . S
C1777 H1787 0.929 . S
C1778 O1758 1.266 . S
C1778 O1759 1.248 . S
C1779 Tb1715 2.802 . S
C1779 O1754 1.264 . S
C1779 O1757 1.256 . S
C1779 C1772 1.496 1_455 S
H1780 C1763 0.929 . S
H1781 C1764 0.929 . S
H1782 C1765 0.929 . S
H1783 C1766 0.931 . S
H1784 C1774 0.929 . S
H1785 C1775 0.936 . S
H1786 C1776 0.931 . S
H1787 C1777 0.929 . S
Tb1788 N1817 2.617 . S
Tb1788 N1823 2.572 . S
Tb1788 O1832 2.465 . S
Tb1788 O1833 2.387 . S
Tb1788 O1835 2.428 . S
Tb1788 O1836 2.308 . S
Tb1788 O1840 2.349 . S
Tb1788 O1843 2.393 . S
Tb1788 C1852 2.802 . S
C1789 N1790 1.379 . S
C1789 C1792 1.416 . S
C1789 C1796 1.424 . S
N1790 C1789 1.379 . S
N1790 C1793 1.334 . S
N1790 Tb1799 2.617 . S
C1791 C1793 1.390 . S
C1791 C1794 1.339 . S
C1791 H1811 0.930 . S
C1792 C1789 1.416 . S
C1792 C1794 1.416 . S
C1792 C1798 1.448 . S
C1793 N1790 1.334 . S
C1793 C1791 1.390 . S
C1793 H1804 0.930 . S
C1794 C1791 1.339 . S
C1794 C1792 1.416 . S
C1794 H1815 0.930 . S
C1795 C1796 1.413 . S
C1795 C1797 1.427 . S
C1795 C1801 1.416 . S
C1796 C1789 1.424 . S
C1796 C1795 1.413 . S
C1796 N1800 1.361 . S
C1797 C1795 1.427 . S
C1797 C1798 1.328 . S
C1797 H1812 0.929 . S
C1798 C1792 1.448 . S
C1798 C1797 1.328 . S
C1798 H1813 0.930 . S
Tb1799 N1790 2.617 . S
Tb1799 N1800 2.572 . S
Tb1799 O1834 2.349 . S
Tb1799 O1837 2.393 . S
Tb1799 O1838 2.465 . S
Tb1799 O1839 2.387 . S
Tb1799 O1841 2.428 . S
Tb1799 O1842 2.308 . S
Tb1799 C1863 2.802 . S
N1800 C1796 1.361 . S
N1800 Tb1799 2.572 . S
N1800 C1802 1.340 . S
C1801 C1795 1.416 . S
C1801 C1803 1.332 . S
C1801 H1809 0.931 . S
C1802 N1800 1.340 . S
C1802 C1803 1.407 . S
C1802 H1808 0.930 . S
C1803 C1801 1.332 . S
C1803 C1802 1.407 . S
C1803 H1805 0.929 . S
H1804 C1793 0.930 . S
H1805 C1803 0.929 . S
H1806 C1821 0.930 . S
H1807 C1828 0.929 . S
H1808 C1802 0.930 . S
H1809 C1801 0.931 . S
H1810 C1824 0.930 . S
H1811 C1791 0.930 . S
H1812 C1797 0.929 . S
H1813 C1798 0.930 . S
H1814 C1819 0.930 . S
H1815 C1794 0.930 . S
H1816 C1827 0.931 . S
N1817 Tb1788 2.617 . S
N1817 C1818 1.379 . S
N1817 C1821 1.334 . S
C1818 N1817 1.379 . S
C1818 C1820 1.416 . S
C1818 C1826 1.424 . S
C1819 H1814 0.930 . S
C1819 C1821 1.390 . S
C1819 C1822 1.339 . S
C1820 C1818 1.416 . S
C1820 C1822 1.416 . S
C1820 C1853 1.448 . S
C1821 H1806 0.930 . S
C1821 N1817 1.334 . S
C1821 C1819 1.390 . S
C1822 C1819 1.339 . S
C1822 C1820 1.416 . S
C1822 H1829 0.930 . S
N1823 Tb1788 2.572 . S
N1823 C1824 1.340 . S
N1823 C1826 1.361 . S
C1824 H1810 0.930 . S
C1824 N1823 1.340 . S
C1824 C1828 1.407 . S
C1825 C1826 1.413 . S
C1825 C1827 1.416 . S
C1825 C1854 1.427 . S
C1826 C1818 1.424 . S
C1826 N1823 1.361 . S
C1826 C1825 1.413 . S
C1827 H1816 0.931 . S
C1827 C1825 1.416 . S
C1827 C1828 1.332 . S
C1828 H1807 0.929 . S
C1828 C1824 1.407 . S
C1828 C1827 1.332 . S
H1829 C1822 0.930 . S
H1830 C1853 0.930 . S
H1831 C1854 0.929 . S
O1832 Tb1788 2.465 . S
O1832 C1852 1.264 . S
O1833 Tb1788 2.387 . S
O1833 C1844 1.264 . S
O1834 Tb1799 2.349 . S
O1834 C1844 1.243 . S
O1835 Tb1788 2.428 . S
O1835 C1852 1.256 . S
O1836 Tb1788 2.308 . S
O1836 C1851 1.266 . S
O1837 Tb1799 2.393 . S
O1837 C1851 1.248 . S
O1838 Tb1799 2.465 . S
O1838 C1863 1.264 . S
O1839 Tb1799 2.387 . S
O1839 C1855 1.264 . S
O1840 Tb1788 2.349 . S
O1840 C1855 1.243 . S
O1841 Tb1799 2.428 . S
O1841 C1863 1.256 . S
O1842 Tb1799 2.308 . S
O1842 C1862 1.266 . S
O1843 Tb1788 2.393 . S
O1843 C1862 1.248 . S
C1844 O1833 1.264 . S
C1844 O1834 1.243 . S
C1845 C1848 1.399 . S
C1845 C1850 1.383 . S
C1845 C1852 1.496 . S
C1846 C1847 1.399 . S
C1846 C1850 1.389 . S
C1847 C1846 1.399 . S
C1847 C1849 1.380 . S
C1847 H1864 0.929 . S
C1848 C1845 1.399 . S
C1848 C1849 1.392 . S
C1848 H1865 0.929 . S
C1849 C1847 1.380 . S
C1849 C1848 1.392 . S
C1849 H1866 0.929 . S
C1850 C1845 1.383 . S
C1850 C1846 1.389 . S
C1850 H1867 0.931 . S
C1851 O1836 1.266 . S
C1851 O1837 1.248 . S
C1852 Tb1788 2.802 . S
C1852 O1832 1.264 . S
C1852 O1835 1.256 . S
C1852 C1845 1.496 . S
C1853 C1820 1.448 . S
C1853 H1830 0.930 . S
C1853 C1854 1.328 . S
C1854 C1825 1.427 . S
C1854 H1831 0.929 . S
C1854 C1853 1.328 . S
C1855 O1839 1.264 . S
C1855 O1840 1.243 . S
C1856 C1859 1.399 . S
C1856 C1860 1.383 . S
C1856 C1863 1.496 . S
C1857 C1858 1.399 . S
C1857 C1860 1.389 . S
C1858 C1857 1.399 . S
C1858 C1861 1.380 . S
C1858 H1868 0.929 . S
C1859 C1856 1.399 . S
C1859 C1861 1.392 . S
C1859 H1869 0.929 . S
C1860 C1856 1.383 . S
C1860 C1857 1.389 . S
C1860 H1870 0.931 . S
C1861 C1858 1.380 . S
C1861 C1859 1.392 . S
C1861 H1871 0.929 . S
C1862 O1842 1.266 . S
C1862 O1843 1.248 . S
C1863 Tb1799 2.802 . S
C1863 O1838 1.264 . S
C1863 O1841 1.256 . S
C1863 C1856 1.496 . S
H1864 C1847 0.929 . S
H1865 C1848 0.929 . S
H1866 C1849 0.929 . S
H1867 C1850 0.931 . S
H1868 C1858 0.929 . S
H1869 C1859 0.929 . S
H1870 C1860 0.931 . S
H1871 C1861 0.929 . S
Tb1872 N1901 2.617 . S
Tb1872 N1907 2.572 . S
Tb1872 O1916 2.465 . S
Tb1872 O1917 2.387 . S
Tb1872 O1919 2.428 . S
Tb1872 O1920 2.308 . S
Tb1872 O1924 2.349 . S
Tb1872 O1927 2.393 . S
Tb1872 C1936 2.802 . S
C1873 N1874 1.379 . S
C1873 C1876 1.416 . S
C1873 C1880 1.424 . S
N1874 C1873 1.379 . S
N1874 C1877 1.334 . S
N1874 Tb1883 2.617 . S
C1875 C1877 1.390 . S
C1875 C1878 1.339 . S
C1875 H1895 0.930 . S
C1876 C1873 1.416 . S
C1876 C1878 1.416 . S
C1876 C1882 1.448 . S
C1877 N1874 1.334 . S
C1877 C1875 1.390 . S
C1877 H1888 0.930 . S
C1878 C1875 1.339 . S
C1878 C1876 1.416 . S
C1878 H1899 0.930 . S
C1879 C1880 1.413 . S
C1879 C1881 1.427 . S
C1879 C1885 1.416 . S
C1880 C1873 1.424 . S
C1880 C1879 1.413 . S
C1880 N1884 1.361 . S
C1881 C1879 1.427 . S
C1881 C1882 1.328 . S
C1881 H1896 0.929 . S
C1882 C1876 1.448 . S
C1882 C1881 1.328 . S
C1882 H1897 0.930 . S
Tb1883 N1874 2.617 . S
Tb1883 N1884 2.572 . S
Tb1883 O1918 2.349 . S
Tb1883 O1921 2.393 . S
Tb1883 O1922 2.465 . S
Tb1883 O1923 2.387 . S
Tb1883 O1925 2.428 . S
Tb1883 O1926 2.308 . S
Tb1883 C1947 2.802 . S
N1884 C1880 1.361 . S
N1884 Tb1883 2.572 . S
N1884 C1886 1.340 . S
C1885 C1879 1.416 . S
C1885 C1887 1.332 . S
C1885 H1893 0.931 . S
C1886 N1884 1.340 . S
C1886 C1887 1.407 . S
C1886 H1892 0.930 . S
C1887 C1885 1.332 . S
C1887 C1886 1.407 . S
C1887 H1889 0.929 . S
H1888 C1877 0.930 . S
H1889 C1887 0.929 . S
H1890 C1905 0.930 . S
H1891 C1912 0.929 . S
H1892 C1886 0.930 . S
H1893 C1885 0.931 . S
H1894 C1908 0.930 . S
H1895 C1875 0.930 . S
H1896 C1881 0.929 . S
H1897 C1882 0.930 . S
H1898 C1903 0.930 . S
H1899 C1878 0.930 . S
H1900 C1911 0.931 . S
N1901 Tb1872 2.617 . S
N1901 C1902 1.379 . S
N1901 C1905 1.334 . S
C1902 N1901 1.379 . S
C1902 C1904 1.416 . S
C1902 C1910 1.424 . S
C1903 H1898 0.930 . S
C1903 C1905 1.390 . S
C1903 C1906 1.339 . S
C1904 C1902 1.416 . S
C1904 C1906 1.416 . S
C1904 C1937 1.448 . S
C1905 H1890 0.930 . S
C1905 N1901 1.334 . S
C1905 C1903 1.390 . S
C1906 C1903 1.339 . S
C1906 C1904 1.416 . S
C1906 H1913 0.930 . S
N1907 Tb1872 2.572 . S
N1907 C1908 1.340 . S
N1907 C1910 1.361 . S
C1908 H1894 0.930 . S
C1908 N1907 1.340 . S
C1908 C1912 1.407 . S
C1909 C1910 1.413 . S
C1909 C1911 1.416 . S
C1909 C1938 1.427 . S
C1910 C1902 1.424 . S
C1910 N1907 1.361 . S
C1910 C1909 1.413 . S
C1911 H1900 0.931 . S
C1911 C1909 1.416 . S
C1911 C1912 1.332 . S
C1912 H1891 0.929 . S
C1912 C1908 1.407 . S
C1912 C1911 1.332 . S
H1913 C1906 0.930 . S
H1914 C1937 0.930 . S
H1915 C1938 0.929 . S
O1916 Tb1872 2.465 . S
O1916 C1936 1.264 . S
O1917 Tb1872 2.387 . S
O1917 C1928 1.264 . S
O1918 Tb1883 2.349 . S
O1918 C1928 1.243 . S
O1919 Tb1872 2.428 . S
O1919 C1936 1.256 . S
O1920 Tb1872 2.308 . S
O1920 C1935 1.266 . S
O1921 Tb1883 2.393 . S
O1921 C1935 1.248 . S
O1922 Tb1883 2.465 . S
O1922 C1947 1.264 . S
O1923 Tb1883 2.387 . S
O1923 C1939 1.264 . S
O1924 Tb1872 2.349 . S
O1924 C1939 1.243 . S
O1925 Tb1883 2.428 . S
O1925 C1947 1.256 . S
O1926 Tb1883 2.308 . S
O1926 C1946 1.266 . S
O1927 Tb1872 2.393 . S
O1927 C1946 1.248 . S
C1928 O1917 1.264 . S
C1928 O1918 1.243 . S
C1929 C1932 1.399 . S
C1929 C1934 1.383 . S
C1929 C1936 1.496 . S
C1930 C1931 1.399 . S
C1930 C1934 1.389 . S
C1931 C1930 1.399 . S
C1931 C1933 1.380 . S
C1931 H1948 0.929 . S
C1932 C1929 1.399 . S
C1932 C1933 1.392 . S
C1932 H1949 0.929 . S
C1933 C1931 1.380 . S
C1933 C1932 1.392 . S
C1933 H1950 0.929 . S
C1934 C1929 1.383 . S
C1934 C1930 1.389 . S
C1934 H1951 0.931 . S
C1935 O1920 1.266 . S
C1935 O1921 1.248 . S
C1936 Tb1872 2.802 . S
C1936 O1916 1.264 . S
C1936 O1919 1.256 . S
C1936 C1929 1.496 . S
C1937 C1904 1.448 . S
C1937 H1914 0.930 . S
C1937 C1938 1.328 . S
C1938 C1909 1.427 . S
C1938 H1915 0.929 . S
C1938 C1937 1.328 . S
C1939 O1923 1.264 . S
C1939 O1924 1.243 . S
C1940 C1943 1.399 . S
C1940 C1944 1.383 . S
C1940 C1947 1.496 . S
C1941 C1942 1.399 . S
C1941 C1944 1.389 . S
C1942 C1941 1.399 . S
C1942 C1945 1.380 . S
C1942 H1952 0.929 . S
C1943 C1940 1.399 . S
C1943 C1945 1.392 . S
C1943 H1953 0.929 . S
C1944 C1940 1.383 . S
C1944 C1941 1.389 . S
C1944 H1954 0.931 . S
C1945 C1942 1.380 . S
C1945 C1943 1.392 . S
C1945 H1955 0.929 . S
C1946 O1926 1.266 . S
C1946 O1927 1.248 . S
C1947 Tb1883 2.802 . S
C1947 O1922 1.264 . S
C1947 O1925 1.256 . S
C1947 C1940 1.496 . S
H1948 C1931 0.929 . S
H1949 C1932 0.929 . S
H1950 C1933 0.929 . S
H1951 C1934 0.931 . S
H1952 C1942 0.929 . S
H1953 C1943 0.929 . S
H1954 C1944 0.931 . S
H1955 C1945 0.929 . S
Tb1956 N1985 2.617 . S
Tb1956 N1991 2.572 . S
Tb1956 O2000 2.465 . S
Tb1956 O2001 2.387 . S
Tb1956 O2003 2.428 . S
Tb1956 O2004 2.308 . S
Tb1956 O2008 2.349 . S
Tb1956 O2011 2.393 . S
Tb1956 C2020 2.802 . S
C1957 N1958 1.379 . S
C1957 C1960 1.416 . S
C1957 C1964 1.424 . S
N1958 C1957 1.379 . S
N1958 C1961 1.334 . S
N1958 Tb1967 2.617 . S
C1959 C1961 1.390 . S
C1959 C1962 1.339 . S
C1959 H1979 0.930 . S
C1960 C1957 1.416 . S
C1960 C1962 1.416 . S
C1960 C1966 1.448 . S
C1961 N1958 1.334 . S
C1961 C1959 1.390 . S
C1961 H1972 0.930 . S
C1962 C1959 1.339 . S
C1962 C1960 1.416 . S
C1962 H1983 0.930 . S
C1963 C1964 1.413 . S
C1963 C1965 1.427 . S
C1963 C1969 1.416 . S
C1964 C1957 1.424 . S
C1964 C1963 1.413 . S
C1964 N1968 1.361 . S
C1965 C1963 1.427 . S
C1965 C1966 1.328 . S
C1965 H1980 0.929 . S
C1966 C1960 1.448 . S
C1966 C1965 1.328 . S
C1966 H1981 0.930 . S
Tb1967 N1958 2.617 . S
Tb1967 N1968 2.572 . S
Tb1967 O2002 2.349 . S
Tb1967 O2005 2.393 . S
Tb1967 O2006 2.465 . S
Tb1967 O2007 2.387 . S
Tb1967 O2009 2.428 . S
Tb1967 O2010 2.308 . S
Tb1967 C2031 2.802 . S
N1968 C1964 1.361 . S
N1968 Tb1967 2.572 . S
N1968 C1970 1.340 . S
C1969 C1963 1.416 . S
C1969 C1971 1.332 . S
C1969 H1977 0.931 . S
C1970 N1968 1.340 . S
C1970 C1971 1.407 . S
C1970 H1976 0.930 . S
C1971 C1969 1.332 . S
C1971 C1970 1.407 . S
C1971 H1973 0.929 . S
H1972 C1961 0.930 . S
H1973 C1971 0.929 . S
H1974 C1989 0.930 . S
H1975 C1996 0.929 . S
H1976 C1970 0.930 . S
H1977 C1969 0.931 . S
H1978 C1992 0.930 . S
H1979 C1959 0.930 . S
H1980 C1965 0.929 . S
H1981 C1966 0.930 . S
H1982 C1987 0.930 . S
H1983 C1962 0.930 . S
H1984 C1995 0.931 . S
N1985 Tb1956 2.617 . S
N1985 C1986 1.379 . S
N1985 C1989 1.334 . S
C1986 N1985 1.379 . S
C1986 C1988 1.416 . S
C1986 C1994 1.424 . S
C1987 H1982 0.930 . S
C1987 C1989 1.390 . S
C1987 C1990 1.339 . S
C1988 C1986 1.416 . S
C1988 C1990 1.416 . S
C1988 C2021 1.448 . S
C1989 H1974 0.930 . S
C1989 N1985 1.334 . S
C1989 C1987 1.390 . S
C1990 C1987 1.339 . S
C1990 C1988 1.416 . S
C1990 H1997 0.930 . S
N1991 Tb1956 2.572 . S
N1991 C1992 1.340 . S
N1991 C1994 1.361 . S
C1992 H1978 0.930 . S
C1992 N1991 1.340 . S
C1992 C1996 1.407 . S
C1993 C1994 1.413 . S
C1993 C1995 1.416 . S
C1993 C2022 1.427 . S
C1994 C1986 1.424 . S
C1994 N1991 1.361 . S
C1994 C1993 1.413 . S
C1995 H1984 0.931 . S
C1995 C1993 1.416 . S
C1995 C1996 1.332 . S
C1996 H1975 0.929 . S
C1996 C1992 1.407 . S
C1996 C1995 1.332 . S
H1997 C1990 0.930 . S
H1998 C2021 0.930 . S
H1999 C2022 0.929 . S
O2000 Tb1956 2.465 . S
O2000 C2020 1.264 . S
O2001 Tb1956 2.387 . S
O2001 C2012 1.264 . S
O2002 Tb1967 2.349 . S
O2002 C2012 1.243 . S
O2003 Tb1956 2.428 . S
O2003 C2020 1.256 . S
O2004 Tb1956 2.308 . S
O2004 C2019 1.266 . S
O2005 Tb1967 2.393 . S
O2005 C2019 1.248 . S
O2006 Tb1967 2.465 . S
O2006 C2031 1.264 . S
O2007 Tb1967 2.387 . S
O2007 C2023 1.264 . S
O2008 Tb1956 2.349 . S
O2008 C2023 1.243 . S
O2009 Tb1967 2.428 . S
O2009 C2031 1.256 . S
O2010 Tb1967 2.308 . S
O2010 C2030 1.266 . S
O2011 Tb1956 2.393 . S
O2011 C2030 1.248 . S
C2012 O2001 1.264 . S
C2012 O2002 1.243 . S
C2013 C2016 1.399 . S
C2013 C2018 1.383 . S
C2013 C2020 1.496 . S
C2014 C2015 1.399 . S
C2014 C2018 1.389 . S
C2015 C2014 1.399 . S
C2015 C2017 1.380 . S
C2015 H2032 0.929 . S
C2016 C2013 1.399 . S
C2016 C2017 1.392 . S
C2016 H2033 0.929 . S
C2017 C2015 1.380 . S
C2017 C2016 1.392 . S
C2017 H2034 0.929 . S
C2018 C2013 1.383 . S
C2018 C2014 1.389 . S
C2018 H2035 0.931 . S
C2019 O2004 1.266 . S
C2019 O2005 1.248 . S
C2020 Tb1956 2.802 . S
C2020 O2000 1.264 . S
C2020 O2003 1.256 . S
C2020 C2013 1.496 . S
C2021 C1988 1.448 . S
C2021 H1998 0.930 . S
C2021 C2022 1.328 . S
C2022 C1993 1.427 . S
C2022 H1999 0.929 . S
C2022 C2021 1.328 . S
C2023 O2007 1.264 . S
C2023 O2008 1.243 . S
C2024 C2027 1.399 . S
C2024 C2028 1.383 . S
C2024 C2031 1.496 . S
C2025 C2026 1.399 . S
C2025 C2028 1.389 . S
C2026 C2025 1.399 . S
C2026 C2029 1.380 . S
C2026 H2036 0.929 . S
C2027 C2024 1.399 . S
C2027 C2029 1.392 . S
C2027 H2037 0.929 . S
C2028 C2024 1.383 . S
C2028 C2025 1.389 . S
C2028 H2038 0.931 . S
C2029 C2026 1.380 . S
C2029 C2027 1.392 . S
C2029 H2039 0.929 . S
C2030 O2010 1.266 . S
C2030 O2011 1.248 . S
C2031 Tb1967 2.802 . S
C2031 O2006 1.264 . S
C2031 O2009 1.256 . S
C2031 C2024 1.496 . S
H2032 C2015 0.929 . S
H2033 C2016 0.929 . S
H2034 C2017 0.929 . S
H2035 C2018 0.931 . S
H2036 C2026 0.929 . S
H2037 C2027 0.929 . S
H2038 C2028 0.931 . S
H2039 C2029 0.929 . S
Tb2040 N2069 2.617 . S
Tb2040 N2075 2.572 . S
Tb2040 O2084 2.465 . S
Tb2040 O2085 2.387 . S
Tb2040 O2087 2.428 . S
Tb2040 O2088 2.308 . S
Tb2040 O2092 2.349 . S
Tb2040 O2095 2.393 . S
Tb2040 C2104 2.802 . S
C2041 N2042 1.379 . S
C2041 C2044 1.416 . S
C2041 C2048 1.424 . S
N2042 C2041 1.379 . S
N2042 C2045 1.334 . S
N2042 Tb2051 2.617 . S
C2043 C2045 1.390 . S
C2043 C2046 1.339 . S
C2043 H2063 0.930 . S
C2044 C2041 1.416 . S
C2044 C2046 1.416 . S
C2044 C2050 1.448 . S
C2045 N2042 1.334 . S
C2045 C2043 1.390 . S
C2045 H2056 0.930 . S
C2046 C2043 1.339 . S
C2046 C2044 1.416 . S
C2046 H2067 0.930 . S
C2047 C2048 1.413 . S
C2047 C2049 1.427 . S
C2047 C2053 1.416 . S
C2048 C2041 1.424 . S
C2048 C2047 1.413 . S
C2048 N2052 1.361 . S
C2049 C2047 1.427 . S
C2049 C2050 1.328 . S
C2049 H2064 0.929 . S
C2050 C2044 1.448 . S
C2050 C2049 1.328 . S
C2050 H2065 0.930 . S
Tb2051 N2042 2.617 . S
Tb2051 N2052 2.572 . S
Tb2051 O2086 2.349 . S
Tb2051 O2089 2.393 . S
Tb2051 O2090 2.465 . S
Tb2051 O2091 2.387 . S
Tb2051 O2093 2.428 . S
Tb2051 O2094 2.308 . S
Tb2051 C2115 2.802 . S
N2052 C2048 1.361 . S
N2052 Tb2051 2.572 . S
N2052 C2054 1.340 . S
C2053 C2047 1.416 . S
C2053 C2055 1.332 . S
C2053 H2061 0.931 . S
C2054 N2052 1.340 . S
C2054 C2055 1.407 . S
C2054 H2060 0.930 . S
C2055 C2053 1.332 . S
C2055 C2054 1.407 . S
C2055 H2057 0.929 . S
H2056 C2045 0.930 . S
H2057 C2055 0.929 . S
H2058 C2073 0.930 . S
H2059 C2080 0.929 . S
H2060 C2054 0.930 . S
H2061 C2053 0.931 . S
H2062 C2076 0.930 . S
H2063 C2043 0.930 . S
H2064 C2049 0.929 . S
H2065 C2050 0.930 . S
H2066 C2071 0.930 . S
H2067 C2046 0.930 . S
H2068 C2079 0.931 . S
N2069 Tb2040 2.617 . S
N2069 C2070 1.379 . S
N2069 C2073 1.334 . S
C2070 N2069 1.379 . S
C2070 C2072 1.416 . S
C2070 C2078 1.424 . S
C2071 H2066 0.930 . S
C2071 C2073 1.390 . S
C2071 C2074 1.339 . S
C2072 C2070 1.416 . S
C2072 C2074 1.416 . S
C2072 C2105 1.448 . S
C2073 H2058 0.930 . S
C2073 N2069 1.334 . S
C2073 C2071 1.390 . S
C2074 C2071 1.339 . S
C2074 C2072 1.416 . S
C2074 H2081 0.930 . S
N2075 Tb2040 2.572 . S
N2075 C2076 1.340 . S
N2075 C2078 1.361 . S
C2076 H2062 0.930 . S
C2076 N2075 1.340 . S
C2076 C2080 1.407 . S
C2077 C2078 1.413 . S
C2077 C2079 1.416 . S
C2077 C2106 1.427 . S
C2078 C2070 1.424 . S
C2078 N2075 1.361 . S
C2078 C2077 1.413 . S
C2079 H2068 0.931 . S
C2079 C2077 1.416 . S
C2079 C2080 1.332 . S
C2080 H2059 0.929 . S
C2080 C2076 1.407 . S
C2080 C2079 1.332 . S
H2081 C2074 0.930 . S
H2082 C2105 0.930 . S
H2083 C2106 0.929 . S
O2084 Tb2040 2.465 . S
O2084 C2104 1.264 . S
O2085 Tb2040 2.387 . S
O2085 C2096 1.264 . S
O2086 Tb2051 2.349 . S
O2086 C2096 1.243 . S
O2087 Tb2040 2.428 . S
O2087 C2104 1.256 . S
O2088 Tb2040 2.308 . S
O2088 C2103 1.266 . S
O2089 Tb2051 2.393 . S
O2089 C2103 1.248 . S
O2090 Tb2051 2.465 . S
O2090 C2115 1.264 . S
O2091 Tb2051 2.387 . S
O2091 C2107 1.264 . S
O2092 Tb2040 2.349 . S
O2092 C2107 1.243 . S
O2093 Tb2051 2.428 . S
O2093 C2115 1.256 . S
O2094 Tb2051 2.308 . S
O2094 C2114 1.266 . S
O2095 Tb2040 2.393 . S
O2095 C2114 1.248 . S
C2096 O2085 1.264 . S
C2096 O2086 1.243 . S
C2097 C2100 1.399 . S
C2097 C2102 1.383 . S
C2097 C2104 1.496 . S
C2098 C2099 1.399 . S
C2098 C2102 1.389 . S
C2099 C2098 1.399 . S
C2099 C2101 1.380 . S
C2099 H2116 0.929 . S
C2100 C2097 1.399 . S
C2100 C2101 1.392 . S
C2100 H2117 0.929 . S
C2101 C2099 1.380 . S
C2101 C2100 1.392 . S
C2101 H2118 0.929 . S
C2102 C2097 1.383 . S
C2102 C2098 1.389 . S
C2102 H2119 0.931 . S
C2103 O2088 1.266 . S
C2103 O2089 1.248 . S
C2104 Tb2040 2.802 . S
C2104 O2084 1.264 . S
C2104 O2087 1.256 . S
C2104 C2097 1.496 . S
C2105 C2072 1.448 . S
C2105 H2082 0.930 . S
C2105 C2106 1.328 . S
C2106 C2077 1.427 . S
C2106 H2083 0.929 . S
C2106 C2105 1.328 . S
C2107 O2091 1.264 . S
C2107 O2092 1.243 . S
C2108 C2111 1.399 . S
C2108 C2112 1.383 . S
C2108 C2115 1.496 . S
C2109 C2110 1.399 . S
C2109 C2112 1.389 . S
C2110 C2109 1.399 . S
C2110 C2113 1.380 . S
C2110 H2120 0.929 . S
C2111 C2108 1.399 . S
C2111 C2113 1.392 . S
C2111 H2121 0.929 . S
C2112 C2108 1.383 . S
C2112 C2109 1.389 . S
C2112 H2122 0.931 . S
C2113 C2110 1.380 . S
C2113 C2111 1.392 . S
C2113 H2123 0.929 . S
C2114 O2094 1.266 . S
C2114 O2095 1.248 . S
C2115 Tb2051 2.802 . S
C2115 O2090 1.264 . S
C2115 O2093 1.256 . S
C2115 C2108 1.496 . S
H2116 C2099 0.929 . S
H2117 C2100 0.929 . S
H2118 C2101 0.929 . S
H2119 C2102 0.931 . S
H2120 C2110 0.929 . S
H2121 C2111 0.929 . S
H2122 C2112 0.931 . S
H2123 C2113 0.929 . S
Tb2124 N2153 2.605 1_455 S
Tb2124 N2159 2.543 1_455 S
Tb2124 O2168 2.427 1_455 S
Tb2124 O2169 2.411 . S
Tb2124 O2171 2.396 1_455 S
Tb2124 O2172 2.318 . S
Tb2124 O2176 2.363 . S
Tb2124 O2179 2.423 . S
Tb2124 C2188 2.763 1_455 S
C2125 N2126 1.379 . S
C2125 C2128 1.416 . S
C2125 C2132 1.424 1_556 S
N2126 C2125 1.379 . S
N2126 C2129 1.334 . S
N2126 Tb2135 2.617 1_556 S
C2127 C2129 1.390 . S
C2127 C2130 1.339 . S
C2127 H2147 0.930 . S
C2128 C2125 1.416 . S
C2128 C2130 1.416 . S
C2128 C2134 1.448 . S
C2129 N2126 1.334 . S
C2129 C2127 1.390 . S
C2129 H2140 0.930 . S
C2130 C2127 1.339 . S
C2130 C2128 1.416 . S
C2130 H2151 0.930 . S
C2131 C2132 1.413 . S
C2131 C2133 1.427 . S
C2131 C2137 1.416 . S
C2132 C2125 1.424 1_554 S
C2132 C2131 1.413 . S
C2132 N2136 1.361 . S
C2133 C2131 1.427 . S
C2133 C2134 1.328 1_554 S
C2133 H2148 0.929 . S
C2134 C2128 1.448 . S
C2134 C2133 1.328 1_556 S
C2134 H2149 0.930 . S
Tb2135 N2126 2.617 1_554 S
Tb2135 N2136 2.572 . S
Tb2135 O2170 2.349 . S
Tb2135 O2173 2.393 1_554 S
Tb2135 O2174 2.465 . S
Tb2135 O2175 2.387 . S
Tb2135 O2177 2.428 1_554 S
Tb2135 O2178 2.308 . S
Tb2135 C2199 2.802 . S
N2136 C2132 1.361 . S
N2136 Tb2135 2.572 . S
N2136 C2138 1.340 . S
C2137 C2131 1.416 . S
C2137 C2139 1.332 . S
C2137 H2145 0.931 . S
C2138 N2136 1.340 . S
C2138 C2139 1.407 . S
C2138 H2144 0.930 . S
C2139 C2137 1.332 . S
C2139 C2138 1.407 . S
C2139 H2141 0.929 . S
H2140 C2129 0.930 . S
H2141 C2139 0.929 . S
H2142 C2157 0.930 1_455 S
H2143 C2164 0.929 . S
H2144 C2138 0.930 . S
H2145 C2137 0.931 . S
H2146 C2160 0.930 1_556 S
H2147 C2127 0.930 . S
H2148 C2133 0.929 . S
H2149 C2134 0.930 . S
H2150 C2155 0.930 . S
H2151 C2130 0.930 . S
H2152 C2163 0.931 . S
N2153 Tb2124 2.605 1_655 S
N2153 C2154 1.379 . S
N2153 C2157 1.334 . S
C2154 N2153 1.379 . S
C2154 C2156 1.416 . S
C2154 C2162 1.424 . S
C2155 H2150 0.930 . S
C2155 C2157 1.390 . S
C2155 C2158 1.339 . S
C2156 C2154 1.416 . S
C2156 C2158 1.416 . S
C2156 C2189 1.448 . S
C2157 H2142 0.930 1_655 S
C2157 N2153 1.334 . S
C2157 C2155 1.390 . S
C2158 C2155 1.339 . S
C2158 C2156 1.416 . S
C2158 H2165 0.930 . S
N2159 Tb2124 2.543 1_655 S
N2159 C2160 1.340 . S
N2159 C2162 1.361 . S
C2160 H2146 0.930 1_554 S
C2160 N2159 1.340 . S
C2160 C2164 1.407 1_554 S
C2161 C2162 1.413 . S
C2161 C2163 1.416 . S
C2161 C2190 1.427 . S
C2162 C2154 1.424 . S
C2162 N2159 1.361 . S
C2162 C2161 1.413 . S
C2163 H2152 0.931 . S
C2163 C2161 1.416 . S
C2163 C2164 1.332 1_554 S
C2164 H2143 0.929 . S
C2164 C2160 1.407 1_556 S
C2164 C2163 1.332 1_556 S
H2165 C2158 0.930 . S
H2166 C2189 0.930 . S
H2167 C2190 0.929 . S
O2168 Tb2124 2.427 1_655 S
O2168 C2188 1.264 . S
O2169 Tb2124 2.411 . S
O2169 C2180 1.264 . S
O2170 Tb2135 2.349 . S
O2170 C2180 1.243 . S
O2171 Tb2124 2.396 1_655 S
O2171 C2188 1.256 . S
O2172 Tb2124 2.318 . S
O2172 C2187 1.266 1_554 S
O2173 Tb2135 2.393 1_556 S
O2173 C2187 1.248 . S
O2174 Tb2135 2.465 . S
O2174 C2199 1.264 . S
O2175 Tb2135 2.387 . S
O2175 C2191 1.264 . S
O2176 Tb2124 2.363 . S
O2176 C2191 1.243 . S
O2177 Tb2135 2.428 1_556 S
O2177 C2199 1.256 1_556 S
O2178 Tb2135 2.308 . S
O2178 C2198 1.266 . S
O2179 Tb2124 2.423 . S
O2179 C2198 1.248 . S
C2180 O2169 1.264 . S
C2180 O2170 1.243 . S
C2181 C2184 1.399 . S
C2181 C2186 1.383 . S
C2181 C2188 1.496 . S
C2182 C2183 1.399 . S
C2182 C2186 1.389 . S
C2183 C2182 1.399 . S
C2183 C2185 1.380 . S
C2183 H2200 0.929 . S
C2184 C2181 1.399 . S
C2184 C2185 1.392 . S
C2184 H2201 0.929 . S
C2185 C2183 1.380 . S
C2185 C2184 1.392 . S
C2185 H2202 0.929 . S
C2186 C2181 1.383 . S
C2186 C2182 1.389 . S
C2186 H2203 0.931 . S
C2187 O2172 1.266 1_556 S
C2187 O2173 1.248 . S
C2188 Tb2124 2.763 1_655 S
C2188 O2168 1.264 . S
C2188 O2171 1.256 . S
C2188 C2181 1.496 . S
C2189 C2156 1.448 . S
C2189 H2166 0.930 . S
C2189 C2190 1.328 . S
C2190 C2161 1.427 . S
C2190 H2167 0.929 . S
C2190 C2189 1.328 . S
C2191 O2175 1.264 . S
C2191 O2176 1.243 . S
C2192 C2195 1.399 . S
C2192 C2196 1.383 1_556 S
C2192 C2199 1.496 1_556 S
C2193 C2194 1.399 1_554 S
C2193 C2196 1.389 . S
C2194 C2193 1.399 1_556 S
C2194 C2197 1.380 . S
C2194 H2204 0.929 . S
C2195 C2192 1.399 . S
C2195 C2197 1.392 . S
C2195 H2205 0.929 . S
C2196 C2192 1.383 1_554 S
C2196 C2193 1.389 . S
C2196 H2206 0.931 . S
C2197 C2194 1.380 . S
C2197 C2195 1.392 . S
C2197 H2207 0.929 . S
C2198 O2178 1.266 . S
C2198 O2179 1.248 . S
C2199 Tb2135 2.802 . S
C2199 O2174 1.264 . S
C2199 O2177 1.256 1_554 S
C2199 C2192 1.496 1_554 S
H2200 C2183 0.929 . S
H2201 C2184 0.929 . S
H2202 C2185 0.929 . S
H2203 C2186 0.931 . S
H2204 C2194 0.929 . S
H2205 C2195 0.929 . S
H2206 C2196 0.931 . S
H2207 C2197 0.929 . S
H2208 C2216 0.929 . S
H2209 C2218 0.930 . S
H2210 C2220 0.930 . S
H2211 C2223 0.929 . S
H2212 C2226 0.930 . S
H2213 C2228 0.960 . S
H2214 C2228 0.960 . S
H2215 C2228 0.960 . S
C2216 H2208 0.929 . S
C2216 C2217 1.377 1_455 S
C2216 C2218 1.384 . S
C2217 C2216 1.377 1_655 S
C2217 C2223 1.390 . S
C2218 H2209 0.930 . S
C2218 C2216 1.384 . S
C2218 C2219 1.372 . S
C2219 C2218 1.372 . S
C2219 C2220 1.400 1_455 S
C2219 C2224 1.490 . S
C2220 H2210 0.930 . S
C2220 C2219 1.400 1_655 S
C2220 C2223 1.386 . S
H2221 C2237 0.930 . S
H2222 C2238 0.942 . S
C2223 H2211 0.929 . S
C2223 C2217 1.390 . S
C2223 C2220 1.386 . S
C2224 C2219 1.490 . S
C2224 C2226 1.395 . S
C2224 C2227 1.403 1_455 S
H2225 C2231 0.930 . S
C2226 H2212 0.930 . S
C2226 C2224 1.395 . S
C2226 C2229 1.403 . S
C2227 C2224 1.403 1_655 S
C2227 C2228 1.524 . S
C2227 C2231 1.400 . S
C2228 H2213 0.960 . S
C2228 H2214 0.960 . S
C2228 H2215 0.960 . S
C2228 C2227 1.524 . S
C2229 C2226 1.403 . S
C2229 C2230 1.392 . S
C2229 C2233 1.495 . S
C2230 C2229 1.392 . S
C2230 C2231 1.385 1_455 S
C2230 C2232 1.478 . S
C2231 H2225 0.930 . S
C2231 C2227 1.400 . S
C2231 C2230 1.385 1_655 S
C2232 C2230 1.478 . S
C2232 C2234 1.381 . S
C2232 C2238 1.383 1_556 S
C2233 C2229 1.495 . S
C2233 H2239 0.959 . S
C2233 H2240 0.961 1_556 S
C2233 H2241 0.960 . S
C2234 C2232 1.381 . S
C2234 C2235 1.394 . S
C2234 H2242 0.930 . S
C2235 C2234 1.394 . S
C2235 C2236 1.383 1_556 S
C2235 H2243 0.929 . S
C2236 C2235 1.383 1_554 S
C2236 C2237 1.377 . S
C2237 H2221 0.930 . S
C2237 C2236 1.377 . S
C2237 C2238 1.379 . S
C2238 H2222 0.942 . S
C2238 C2232 1.383 1_554 S
C2238 C2237 1.379 . S
H2239 C2233 0.959 . S
H2240 C2233 0.961 1_554 S
H2241 C2233 0.960 . S
H2242 C2234 0.930 . S
H2243 C2235 0.929 . S
H2244 C2252 0.929 . S
H2245 C2254 0.930 . S
H2246 C2256 0.930 . S
H2247 C2259 0.929 . S
H2248 C2262 0.930 . S
H2249 C2264 0.960 . S
H2250 C2264 0.960 . S
H2251 C2264 0.960 . S
C2252 H2244 0.929 . S
C2252 C2253 1.377 . S
C2252 C2254 1.384 . S
C2253 C2252 1.377 . S
C2253 C2259 1.390 . S
C2254 H2245 0.930 . S
C2254 C2252 1.384 . S
C2254 C2255 1.372 . S
C2255 C2254 1.372 . S
C2255 C2256 1.400 . S
C2255 C2260 1.490 . S
C2256 H2246 0.930 . S
C2256 C2255 1.400 . S
C2256 C2259 1.386 . S
H2257 C2273 0.930 . S
H2258 C2274 0.931 . S
C2259 H2247 0.929 . S
C2259 C2253 1.390 . S
C2259 C2256 1.386 . S
C2260 C2255 1.490 . S
C2260 C2262 1.395 . S
C2260 C2263 1.403 . S
H2261 C2267 0.930 . S
C2262 H2248 0.930 . S
C2262 C2260 1.395 . S
C2262 C2265 1.403 . S
C2263 C2260 1.403 . S
C2263 C2264 1.524 . S
C2263 C2267 1.400 . S
C2264 H2249 0.960 . S
C2264 H2250 0.960 . S
C2264 H2251 0.960 . S
C2264 C2263 1.524 . S
C2265 C2262 1.403 . S
C2265 C2266 1.392 . S
C2265 C2269 1.495 . S
C2266 C2265 1.392 . S
C2266 C2267 1.385 . S
C2266 C2268 1.478 . S
C2267 H2261 0.930 . S
C2267 C2263 1.400 . S
C2267 C2266 1.385 . S
C2268 C2266 1.478 . S
C2268 C2270 1.381 . S
C2268 C2274 1.383 . S
C2269 C2265 1.495 . S
C2269 H2275 0.959 . S
C2269 H2276 0.961 . S
C2269 H2277 0.960 . S
C2270 C2268 1.381 . S
C2270 C2271 1.394 . S
C2270 H2278 0.930 . S
C2271 C2270 1.394 . S
C2271 C2272 1.383 . S
C2271 H2279 0.929 . S
C2272 C2271 1.383 . S
C2272 C2273 1.377 . S
C2273 H2257 0.930 . S
C2273 C2272 1.377 . S
C2273 C2274 1.379 . S
C2274 H2258 0.931 . S
C2274 C2268 1.383 . S
C2274 C2273 1.379 . S
H2275 C2269 0.959 . S
H2276 C2269 0.961 . S
H2277 C2269 0.960 . S
H2278 C2270 0.930 . S
H2279 C2271 0.929 . S
H2280 C2288 0.929 . S
H2281 C2290 0.930 . S
H2282 C2292 0.930 . S
H2283 C2295 0.929 . S
H2284 C2298 0.930 . S
H2285 C2300 0.960 . S
H2286 C2300 0.960 . S
H2287 C2300 0.960 . S
C2288 H2280 0.929 . S
C2288 C2289 1.377 . S
C2288 C2290 1.384 . S
C2289 C2288 1.377 . S
C2289 C2295 1.390 . S
C2290 H2281 0.930 . S
C2290 C2288 1.384 . S
C2290 C2291 1.372 . S
C2291 C2290 1.372 . S
C2291 C2292 1.400 . S
C2291 C2296 1.490 . S
C2292 H2282 0.930 . S
C2292 C2291 1.400 . S
C2292 C2295 1.386 . S
H2293 C2309 0.930 . S
H2294 C2310 0.931 . S
C2295 H2283 0.929 . S
C2295 C2289 1.390 . S
C2295 C2292 1.386 . S
C2296 C2291 1.490 . S
C2296 C2298 1.395 . S
C2296 C2299 1.403 . S
H2297 C2303 0.930 . S
C2298 H2284 0.930 . S
C2298 C2296 1.395 . S
C2298 C2301 1.403 . S
C2299 C2296 1.403 . S
C2299 C2300 1.524 . S
C2299 C2303 1.400 . S
C2300 H2285 0.960 . S
C2300 H2286 0.960 . S
C2300 H2287 0.960 . S
C2300 C2299 1.524 . S
C2301 C2298 1.403 . S
C2301 C2302 1.392 . S
C2301 C2305 1.495 . S
C2302 C2301 1.392 . S
C2302 C2303 1.385 . S
C2302 C2304 1.478 . S
C2303 H2297 0.930 . S
C2303 C2299 1.400 . S
C2303 C2302 1.385 . S
C2304 C2302 1.478 . S
C2304 C2306 1.381 . S
C2304 C2310 1.383 . S
C2305 C2301 1.495 . S
C2305 H2311 0.959 . S
C2305 H2312 0.961 . S
C2305 H2313 0.960 . S
C2306 C2304 1.381 . S
C2306 C2307 1.394 . S
C2306 H2314 0.930 . S
C2307 C2306 1.394 . S
C2307 C2308 1.383 . S
C2307 H2315 0.929 . S
C2308 C2307 1.383 . S
C2308 C2309 1.377 . S
C2309 H2293 0.930 . S
C2309 C2308 1.377 . S
C2309 C2310 1.379 . S
C2310 H2294 0.931 . S
C2310 C2304 1.383 . S
C2310 C2309 1.379 . S
H2311 C2305 0.959 . S
H2312 C2305 0.961 . S
H2313 C2305 0.960 . S
H2314 C2306 0.930 . S
H2315 C2307 0.929 . S
H2316 C2324 0.929 . S
H2317 C2326 0.930 . S
H2318 C2328 0.930 . S
H2319 C2331 0.929 . S
H2320 C2334 0.930 . S
H2321 C2336 0.960 . S
H2322 C2336 0.960 . S
H2323 C2336 0.960 . S
C2324 H2316 0.929 . S
C2324 C2325 1.377 . S
C2324 C2326 1.384 . S
C2325 C2324 1.377 . S
C2325 C2331 1.390 . S
C2326 H2317 0.930 . S
C2326 C2324 1.384 . S
C2326 C2327 1.372 . S
C2327 C2326 1.372 . S
C2327 C2328 1.400 . S
C2327 C2332 1.490 . S
C2328 H2318 0.930 . S
C2328 C2327 1.400 . S
C2328 C2331 1.386 . S
H2329 C2345 0.930 . S
H2330 C2346 0.931 . S
C2331 H2319 0.929 . S
C2331 C2325 1.390 . S
C2331 C2328 1.386 . S
C2332 C2327 1.490 . S
C2332 C2334 1.395 . S
C2332 C2335 1.403 . S
H2333 C2339 0.930 . S
C2334 H2320 0.930 . S
C2334 C2332 1.395 . S
C2334 C2337 1.403 . S
C2335 C2332 1.403 . S
C2335 C2336 1.524 . S
C2335 C2339 1.400 . S
C2336 H2321 0.960 . S
C2336 H2322 0.960 . S
C2336 H2323 0.960 . S
C2336 C2335 1.524 . S
C2337 C2334 1.403 . S
C2337 C2338 1.392 . S
C2337 C2341 1.495 . S
C2338 C2337 1.392 . S
C2338 C2339 1.385 . S
C2338 C2340 1.478 . S
C2339 H2333 0.930 . S
C2339 C2335 1.400 . S
C2339 C2338 1.385 . S
C2340 C2338 1.478 . S
C2340 C2342 1.381 . S
C2340 C2346 1.383 . S
C2341 C2337 1.495 . S
C2341 H2347 0.959 . S
C2341 H2348 0.961 . S
C2341 H2349 0.960 . S
C2342 C2340 1.381 . S
C2342 C2343 1.394 . S
C2342 H2350 0.930 . S
C2343 C2342 1.394 . S
C2343 C2344 1.383 . S
C2343 H2351 0.929 . S
C2344 C2343 1.383 . S
C2344 C2345 1.377 . S
C2345 H2329 0.930 . S
C2345 C2344 1.377 . S
C2345 C2346 1.379 . S
C2346 H2330 0.931 . S
C2346 C2340 1.383 . S
C2346 C2345 1.379 . S
H2347 C2341 0.959 . S
H2348 C2341 0.961 . S
H2349 C2341 0.960 . S
H2350 C2342 0.930 . S
H2351 C2343 0.929 . S
H2352 C2360 0.920 1_655 S
H2353 C2362 0.967 . S
H2354 C2364 0.930 . S
H2355 C2367 0.929 . S
H2356 C2370 0.930 . S
H2357 C2372 0.970 . S
H2358 C2372 0.960 1_655 S
H2359 C2372 0.960 . S
C2360 H2352 0.920 1_455 S
C2360 C2361 1.377 . S
C2360 C2362 1.384 . S
C2361 C2360 1.377 . S
C2361 C2367 1.390 . S
C2362 H2353 0.967 . S
C2362 C2360 1.384 . S
C2362 C2363 1.372 . S
C2363 C2362 1.372 . S
C2363 C2364 1.400 . S
C2363 C2368 1.490 . S
C2364 H2354 0.930 . S
C2364 C2363 1.400 . S
C2364 C2367 1.386 . S
H2365 C2381 0.930 . S
H2366 C2382 0.931 . S
C2367 H2355 0.929 . S
C2367 C2361 1.390 . S
C2367 C2364 1.386 . S
C2368 C2363 1.490 . S
C2368 C2370 1.395 . S
C2368 C2371 1.403 . S
H2369 C2375 0.930 . S
C2370 H2356 0.930 . S
C2370 C2368 1.395 . S
C2370 C2373 1.403 . S
C2371 C2368 1.403 . S
C2371 C2372 1.524 . S
C2371 C2375 1.400 . S
C2372 H2357 0.970 . S
C2372 H2358 0.960 1_455 S
C2372 H2359 0.960 . S
C2372 C2371 1.524 . S
C2373 C2370 1.403 . S
C2373 C2374 1.392 . S
C2373 C2377 1.495 . S
C2374 C2373 1.392 . S
C2374 C2375 1.385 . S
C2374 C2376 1.478 . S
C2375 H2369 0.930 . S
C2375 C2371 1.400 . S
C2375 C2374 1.385 . S
C2376 C2374 1.478 . S
C2376 C2378 1.381 . S
C2376 C2382 1.383 . S
C2377 C2373 1.495 . S
C2377 H2383 0.959 . S
C2377 H2384 0.961 . S
C2377 H2385 0.960 . S
C2378 C2376 1.381 . S
C2378 C2379 1.394 . S
C2378 H2386 0.930 . S
C2379 C2378 1.394 . S
C2379 C2380 1.383 . S
C2379 H2387 0.929 . S
C2380 C2379 1.383 . S
C2380 C2381 1.377 . S
C2381 H2365 0.930 . S
C2381 C2380 1.377 . S
C2381 C2382 1.379 . S
C2382 H2366 0.931 . S
C2382 C2376 1.383 . S
C2382 C2381 1.379 . S
H2383 C2377 0.959 . S
H2384 C2377 0.961 . S
H2385 C2377 0.960 . S
H2386 C2378 0.930 . S
H2387 C2379 0.929 . S
H2388 C2396 0.929 . S
H2389 C2398 0.930 . S
H2390 C2400 0.930 . S
H2391 C2403 0.929 . S
H2392 C2406 0.930 . S
H2393 C2408 0.960 . S
H2394 C2408 0.960 . S
H2395 C2408 0.960 . S
C2396 H2388 0.929 . S
C2396 C2397 1.377 . S
C2396 C2398 1.384 . S
C2397 C2396 1.377 . S
C2397 C2403 1.390 . S
C2398 H2389 0.930 . S
C2398 C2396 1.384 . S
C2398 C2399 1.372 . S
C2399 C2398 1.372 . S
C2399 C2400 1.400 . S
C2399 C2404 1.490 . S
C2400 H2390 0.930 . S
C2400 C2399 1.400 . S
C2400 C2403 1.386 . S
H2401 C2417 0.930 . S
H2402 C2418 0.931 . S
C2403 H2391 0.929 . S
C2403 C2397 1.390 . S
C2403 C2400 1.386 . S
C2404 C2399 1.490 . S
C2404 C2406 1.395 . S
C2404 C2407 1.403 . S
H2405 C2411 0.930 . S
C2406 H2392 0.930 . S
C2406 C2404 1.395 . S
C2406 C2409 1.403 . S
C2407 C2404 1.403 . S
C2407 C2408 1.524 . S
C2407 C2411 1.400 . S
C2408 H2393 0.960 . S
C2408 H2394 0.960 . S
C2408 H2395 0.960 . S
C2408 C2407 1.524 . S
C2409 C2406 1.403 . S
C2409 C2410 1.392 . S
C2409 C2413 1.495 . S
C2410 C2409 1.392 . S
C2410 C2411 1.385 . S
C2410 C2412 1.478 . S
C2411 H2405 0.930 . S
C2411 C2407 1.400 . S
C2411 C2410 1.385 . S
C2412 C2410 1.478 . S
C2412 C2414 1.381 . S
C2412 C2418 1.383 . S
C2413 C2409 1.495 . S
C2413 H2419 0.959 . S
C2413 H2420 0.961 . S
C2413 H2421 0.960 . S
C2414 C2412 1.381 . S
C2414 C2415 1.394 . S
C2414 H2422 0.930 . S
C2415 C2414 1.394 . S
C2415 C2416 1.383 . S
C2415 H2423 0.929 . S
C2416 C2415 1.383 . S
C2416 C2417 1.377 . S
C2417 H2401 0.930 . S
C2417 C2416 1.377 . S
C2417 C2418 1.379 . S
C2418 H2402 0.931 . S
C2418 C2412 1.383 . S
C2418 C2417 1.379 . S
H2419 C2413 0.959 . S
H2420 C2413 0.961 . S
H2421 C2413 0.960 . S
H2422 C2414 0.930 . S
H2423 C2415 0.929 . S
H2424 C2432 0.929 . S
H2425 C2434 0.930 . S
H2426 C2436 0.930 . S
H2427 C2439 0.929 . S
H2428 C2442 0.930 . S
H2429 C2444 0.960 . S
H2430 C2444 0.960 . S
H2431 C2444 0.960 . S
C2432 H2424 0.929 . S
C2432 C2433 1.377 . S
C2432 C2434 1.384 . S
C2433 C2432 1.377 . S
C2433 C2439 1.390 . S
C2434 H2425 0.930 . S
C2434 C2432 1.384 . S
C2434 C2435 1.372 . S
C2435 C2434 1.372 . S
C2435 C2436 1.400 . S
C2435 C2440 1.490 . S
C2436 H2426 0.930 . S
C2436 C2435 1.400 . S
C2436 C2439 1.386 . S
H2437 C2453 0.930 . S
H2438 C2454 0.931 . S
C2439 H2427 0.929 . S
C2439 C2433 1.390 . S
C2439 C2436 1.386 . S
C2440 C2435 1.490 . S
C2440 C2442 1.395 . S
C2440 C2443 1.403 . S
H2441 C2447 0.930 . S
C2442 H2428 0.930 . S
C2442 C2440 1.395 . S
C2442 C2445 1.403 . S
C2443 C2440 1.403 . S
C2443 C2444 1.524 . S
C2443 C2447 1.400 . S
C2444 H2429 0.960 . S
C2444 H2430 0.960 . S
C2444 H2431 0.960 . S
C2444 C2443 1.524 . S
C2445 C2442 1.403 . S
C2445 C2446 1.392 . S
C2445 C2449 1.495 . S
C2446 C2445 1.392 . S
C2446 C2447 1.385 . S
C2446 C2448 1.478 . S
C2447 H2441 0.930 . S
C2447 C2443 1.400 . S
C2447 C2446 1.385 . S
C2448 C2446 1.478 . S
C2448 C2450 1.381 . S
C2448 C2454 1.383 . S
C2449 C2445 1.495 . S
C2449 H2455 0.959 . S
C2449 H2456 0.961 . S
C2449 H2457 0.960 . S
C2450 C2448 1.381 . S
C2450 C2451 1.394 . S
C2450 H2458 0.930 . S
C2451 C2450 1.394 . S
C2451 C2452 1.383 . S
C2451 H2459 0.929 . S
C2452 C2451 1.383 . S
C2452 C2453 1.377 . S
C2453 H2437 0.930 . S
C2453 C2452 1.377 . S
C2453 C2454 1.379 . S
C2454 H2438 0.931 . S
C2454 C2448 1.383 . S
C2454 C2453 1.379 . S
H2455 C2449 0.959 . S
H2456 C2449 0.961 . S
H2457 C2449 0.960 . S
H2458 C2450 0.930 . S
H2459 C2451 0.929 . S
H2460 C2468 0.929 . S
H2461 C2470 0.930 . S
H2462 C2472 0.930 . S
H2463 C2475 0.929 . S
H2464 C2478 0.930 . S
H2465 C2480 0.960 . S
H2466 C2480 0.960 . S
H2467 C2480 0.960 . S
C2468 H2460 0.929 . S
C2468 C2469 1.377 . S
C2468 C2470 1.384 . S
C2469 C2468 1.377 . S
C2469 C2475 1.390 . S
C2470 H2461 0.930 . S
C2470 C2468 1.384 . S
C2470 C2471 1.372 . S
C2471 C2470 1.372 . S
C2471 C2472 1.400 . S
C2471 C2476 1.490 . S
C2472 H2462 0.930 . S
C2472 C2471 1.400 . S
C2472 C2475 1.386 . S
H2473 C2489 0.930 . S
H2474 C2490 0.931 . S
C2475 H2463 0.929 . S
C2475 C2469 1.390 . S
C2475 C2472 1.386 . S
C2476 C2471 1.490 . S
C2476 C2478 1.395 . S
C2476 C2479 1.403 . S
H2477 C2483 0.930 . S
C2478 H2464 0.930 . S
C2478 C2476 1.395 . S
C2478 C2481 1.403 . S
C2479 C2476 1.403 . S
C2479 C2480 1.524 . S
C2479 C2483 1.400 . S
C2480 H2465 0.960 . S
C2480 H2466 0.960 . S
C2480 H2467 0.960 . S
C2480 C2479 1.524 . S
C2481 C2478 1.403 . S
C2481 C2482 1.392 . S
C2481 C2485 1.495 . S
C2482 C2481 1.392 . S
C2482 C2483 1.385 . S
C2482 C2484 1.478 . S
C2483 H2477 0.930 . S
C2483 C2479 1.400 . S
C2483 C2482 1.385 . S
C2484 C2482 1.478 . S
C2484 C2486 1.381 . S
C2484 C2490 1.383 . S
C2485 C2481 1.495 . S
C2485 H2491 0.959 . S
C2485 H2492 0.961 . S
C2485 H2493 0.960 . S
C2486 C2484 1.381 . S
C2486 C2487 1.394 . S
C2486 H2494 0.930 . S
C2487 C2486 1.394 . S
C2487 C2488 1.383 . S
C2487 H2495 0.929 . S
C2488 C2487 1.383 . S
C2488 C2489 1.377 . S
C2489 H2473 0.930 . S
C2489 C2488 1.377 . S
C2489 C2490 1.379 . S
C2490 H2474 0.931 . S
C2490 C2484 1.383 . S
C2490 C2489 1.379 . S
H2491 C2485 0.959 . S
H2492 C2485 0.961 . S
H2493 C2485 0.960 . S
H2494 C2486 0.930 . S
H2495 C2487 0.929 . S
H2496 C2504 0.929 . S
H2497 C2506 0.930 . S
H2498 C2508 0.930 1_565 S
H2499 C2511 0.929 1_565 S
H2500 C2514 0.930 . S
H2501 C2516 0.960 . S
H2502 C2516 0.960 . S
H2503 C2516 0.960 . S
C2504 H2496 0.929 . S
C2504 C2505 1.377 . S
C2504 C2506 1.384 . S
C2505 C2504 1.377 . S
C2505 C2511 1.390 . S
C2506 H2497 0.930 . S
C2506 C2504 1.384 . S
C2506 C2507 1.372 . S
C2507 C2506 1.372 . S
C2507 C2508 1.400 . S
C2507 C2512 1.490 . S
C2508 H2498 0.930 1_545 S
C2508 C2507 1.400 . S
C2508 C2511 1.386 . S
H2509 C2525 0.930 . S
H2510 C2526 0.929 . S
C2511 H2499 0.929 1_545 S
C2511 C2505 1.390 . S
C2511 C2508 1.386 . S
C2512 C2507 1.490 . S
C2512 C2514 1.395 . S
C2512 C2515 1.403 . S
H2513 C2519 0.930 . S
C2514 H2500 0.930 . S
C2514 C2512 1.395 . S
C2514 C2517 1.403 . S
C2515 C2512 1.403 . S
C2515 C2516 1.524 . S
C2515 C2519 1.400 . S
C2516 H2501 0.960 . S
C2516 H2502 0.960 . S
C2516 H2503 0.960 . S
C2516 C2515 1.524 . S
C2517 C2514 1.403 . S
C2517 C2518 1.392 . S
C2517 C2521 1.495 1_655 S
C2518 C2517 1.392 . S
C2518 C2519 1.385 . S
C2518 C2520 1.478 . S
C2519 H2513 0.930 . S
C2519 C2515 1.400 . S
C2519 C2518 1.385 . S
C2520 C2518 1.478 . S
C2520 C2522 1.381 1_655 S
C2520 C2526 1.383 . S
C2521 C2517 1.495 1_455 S
C2521 H2527 0.959 . S
C2521 H2528 0.954 1_545 S
C2521 H2529 0.960 . S
C2522 C2520 1.381 1_455 S
C2522 C2523 1.394 . S
C2522 H2530 0.930 . S
C2523 C2522 1.394 . S
C2523 C2524 1.383 . S
C2523 H2531 0.929 . S
C2524 C2523 1.383 . S
C2524 C2525 1.377 1_455 S
C2525 H2509 0.930 . S
C2525 C2524 1.377 1_655 S
C2525 C2526 1.379 . S
C2526 H2510 0.929 . S
C2526 C2520 1.383 . S
C2526 C2525 1.379 . S
H2527 C2521 0.959 . S
H2528 C2521 0.954 1_565 S
H2529 C2521 0.960 . S
H2530 C2522 0.930 . S
H2531 C2523 0.929 . S
H2532 C2540 0.929 . S
H2533 C2542 0.930 . S
H2534 C2544 0.930 . S
H2535 C2547 0.929 . S
H2536 C2550 0.930 . S
H2537 C2552 0.960 . S
H2538 C2552 0.960 . S
H2539 C2552 0.960 . S
C2540 H2532 0.929 . S
C2540 C2541 1.377 . S
C2540 C2542 1.384 . S
C2541 C2540 1.377 . S
C2541 C2547 1.390 . S
C2542 H2533 0.930 . S
C2542 C2540 1.384 . S
C2542 C2543 1.372 . S
C2543 C2542 1.372 . S
C2543 C2544 1.400 . S
C2543 C2548 1.490 . S
C2544 H2534 0.930 . S
C2544 C2543 1.400 . S
C2544 C2547 1.386 . S
H2545 C2561 0.930 . S
H2546 C2562 0.931 . S
C2547 H2535 0.929 . S
C2547 C2541 1.390 . S
C2547 C2544 1.386 . S
C2548 C2543 1.490 . S
C2548 C2550 1.395 . S
C2548 C2551 1.403 . S
H2549 C2555 0.930 . S
C2550 H2536 0.930 . S
C2550 C2548 1.395 . S
C2550 C2553 1.403 . S
C2551 C2548 1.403 . S
C2551 C2552 1.524 . S
C2551 C2555 1.400 . S
C2552 H2537 0.960 . S
C2552 H2538 0.960 . S
C2552 H2539 0.960 . S
C2552 C2551 1.524 . S
C2553 C2550 1.403 . S
C2553 C2554 1.392 . S
C2553 C2557 1.495 . S
C2554 C2553 1.392 . S
C2554 C2555 1.385 . S
C2554 C2556 1.478 . S
C2555 H2549 0.930 . S
C2555 C2551 1.400 . S
C2555 C2554 1.385 . S
C2556 C2554 1.478 . S
C2556 C2558 1.381 . S
C2556 C2562 1.383 . S
C2557 C2553 1.495 . S
C2557 H2563 0.959 . S
C2557 H2564 0.961 . S
C2557 H2565 0.960 . S
C2558 C2556 1.381 . S
C2558 C2559 1.394 . S
C2558 H2566 0.930 . S
C2559 C2558 1.394 . S
C2559 C2560 1.383 . S
C2559 H2567 0.929 . S
C2560 C2559 1.383 . S
C2560 C2561 1.377 . S
C2561 H2545 0.930 . S
C2561 C2560 1.377 . S
C2561 C2562 1.379 . S
C2562 H2546 0.931 . S
C2562 C2556 1.383 . S
C2562 C2561 1.379 . S
H2563 C2557 0.959 . S
H2564 C2557 0.961 . S
H2565 C2557 0.960 . S
H2566 C2558 0.930 . S
H2567 C2559 0.929 . S
H2568 C2576 0.929 . S
H2569 C2578 0.930 . S
H2570 C2580 0.930 . S
H2571 C2583 0.929 . S
H2572 C2586 0.930 . S
H2573 C2588 0.960 . S
H2574 C2588 0.960 . S
H2575 C2588 0.960 . S
C2576 H2568 0.929 . S
C2576 C2577 1.377 . S
C2576 C2578 1.384 . S
C2577 C2576 1.377 . S
C2577 C2583 1.390 . S
C2578 H2569 0.930 . S
C2578 C2576 1.384 . S
C2578 C2579 1.372 . S
C2579 C2578 1.372 . S
C2579 C2580 1.400 . S
C2579 C2584 1.490 . S
C2580 H2570 0.930 . S
C2580 C2579 1.400 . S
C2580 C2583 1.386 . S
H2581 C2597 0.930 . S
H2582 C2598 0.931 . S
C2583 H2571 0.929 . S
C2583 C2577 1.390 . S
C2583 C2580 1.386 . S
C2584 C2579 1.490 . S
C2584 C2586 1.395 . S
C2584 C2587 1.403 . S
H2585 C2591 0.930 . S
C2586 H2572 0.930 . S
C2586 C2584 1.395 . S
C2586 C2589 1.403 . S
C2587 C2584 1.403 . S
C2587 C2588 1.524 . S
C2587 C2591 1.400 . S
C2588 H2573 0.960 . S
C2588 H2574 0.960 . S
C2588 H2575 0.960 . S
C2588 C2587 1.524 . S
C2589 C2586 1.403 . S
C2589 C2590 1.392 . S
C2589 C2593 1.495 1_545 S
C2590 C2589 1.392 . S
C2590 C2591 1.385 . S
C2590 C2592 1.478 . S
C2591 H2585 0.930 . S
C2591 C2587 1.400 . S
C2591 C2590 1.385 . S
C2592 C2590 1.478 . S
C2592 C2594 1.381 . S
C2592 C2598 1.383 . S
C2593 C2589 1.495 1_565 S
C2593 H2599 0.959 . S
C2593 H2600 0.961 . S
C2593 H2601 0.960 1_565 S
C2594 C2592 1.381 . S
C2594 C2595 1.394 . S
C2594 H2602 0.930 . S
C2595 C2594 1.394 . S
C2595 C2596 1.383 . S
C2595 H2603 0.929 . S
C2596 C2595 1.383 . S
C2596 C2597 1.377 . S
C2597 H2581 0.930 . S
C2597 C2596 1.377 . S
C2597 C2598 1.379 . S
C2598 H2582 0.931 . S
C2598 C2592 1.383 . S
C2598 C2597 1.379 . S
H2599 C2593 0.959 . S
H2600 C2593 0.961 . S
H2601 C2593 0.960 1_545 S
H2602 C2594 0.930 . S
H2603 C2595 0.929 . S
H2604 C2612 0.929 . S
H2605 C2614 0.930 . S
H2606 C2616 0.930 . S
H2607 C2619 0.929 . S
H2608 C2622 0.930 . S
H2609 C2624 0.960 . S
H2610 C2624 0.960 . S
H2611 C2624 0.960 . S
C2612 H2604 0.929 . S
C2612 C2613 1.377 . S
C2612 C2614 1.384 . S
C2613 C2612 1.377 . S
C2613 C2619 1.390 . S
C2614 H2605 0.930 . S
C2614 C2612 1.384 . S
C2614 C2615 1.372 . S
C2615 C2614 1.372 . S
C2615 C2616 1.400 . S
C2615 C2620 1.490 . S
C2616 H2606 0.930 . S
C2616 C2615 1.400 . S
C2616 C2619 1.386 . S
H2617 C2633 0.930 . S
H2618 C2634 0.931 . S
C2619 H2607 0.929 . S
C2619 C2613 1.390 . S
C2619 C2616 1.386 . S
C2620 C2615 1.490 . S
C2620 C2622 1.395 . S
C2620 C2623 1.403 . S
H2621 C2627 0.930 . S
C2622 H2608 0.930 . S
C2622 C2620 1.395 . S
C2622 C2625 1.403 . S
C2623 C2620 1.403 . S
C2623 C2624 1.524 . S
C2623 C2627 1.400 . S
C2624 H2609 0.960 . S
C2624 H2610 0.960 . S
C2624 H2611 0.960 . S
C2624 C2623 1.524 . S
C2625 C2622 1.403 . S
C2625 C2626 1.392 . S
C2625 C2629 1.495 . S
C2626 C2625 1.392 . S
C2626 C2627 1.385 . S
C2626 C2628 1.478 . S
C2627 H2621 0.930 . S
C2627 C2623 1.400 . S
C2627 C2626 1.385 . S
C2628 C2626 1.478 . S
C2628 C2630 1.381 . S
C2628 C2634 1.383 . S
C2629 C2625 1.495 . S
C2629 H2635 0.959 . S
C2629 H2636 0.961 . S
C2629 H2637 0.960 . S
C2630 C2628 1.381 . S
C2630 C2631 1.394 . S
C2630 H2638 0.930 . S
C2631 C2630 1.394 . S
C2631 C2632 1.383 . S
C2631 H2639 0.929 . S
C2632 C2631 1.383 . S
C2632 C2633 1.377 . S
C2633 H2617 0.930 . S
C2633 C2632 1.377 . S
C2633 C2634 1.379 . S
C2634 H2618 0.931 . S
C2634 C2628 1.383 . S
C2634 C2633 1.379 . S
H2635 C2629 0.959 . S
H2636 C2629 0.961 . S
H2637 C2629 0.960 . S
H2638 C2630 0.930 . S
H2639 C2631 0.929 . S
H2640 C2648 0.929 . S
H2641 C2650 0.930 . S
H2642 C2652 0.930 . S
H2643 C2655 0.929 . S
H2644 C2658 0.930 . S
H2645 C2660 0.960 1_455 S
H2646 C2660 0.960 . S
H2647 C2660 0.960 . S
C2648 H2640 0.929 . S
C2648 C2649 1.377 . S
C2648 C2650 1.384 . S
C2649 C2648 1.377 . S
C2649 C2655 1.390 . S
C2650 H2641 0.930 . S
C2650 C2648 1.384 . S
C2650 C2651 1.372 . S
C2651 C2650 1.372 . S
C2651 C2652 1.400 . S
C2651 C2656 1.490 . S
C2652 H2642 0.930 . S
C2652 C2651 1.400 . S
C2652 C2655 1.386 . S
H2653 C2669 0.930 . S
H2654 C2670 0.922 1_455 S
C2655 H2643 0.929 . S
C2655 C2649 1.390 . S
C2655 C2652 1.386 . S
C2656 C2651 1.490 . S
C2656 C2658 1.395 . S
C2656 C2659 1.403 . S
H2657 C2663 0.930 1_455 S
C2658 H2644 0.930 . S
C2658 C2656 1.395 . S
C2658 C2661 1.403 . S
C2659 C2656 1.403 . S
C2659 C2660 1.524 . S
C2659 C2663 1.400 . S
C2660 H2645 0.960 1_655 S
C2660 H2646 0.960 . S
C2660 H2647 0.960 . S
C2660 C2659 1.524 . S
C2661 C2658 1.403 . S
C2661 C2662 1.392 . S
C2661 C2665 1.495 . S
C2662 C2661 1.392 . S
C2662 C2663 1.385 . S
C2662 C2664 1.478 . S
C2663 H2657 0.930 1_655 S
C2663 C2659 1.400 . S
C2663 C2662 1.385 . S
C2664 C2662 1.478 . S
C2664 C2666 1.381 . S
C2664 C2670 1.398 . S
C2665 C2661 1.495 . S
C2665 H2671 0.959 1_545 S
C2665 H2672 0.961 1_545 S
C2665 H2673 0.960 . S
C2666 C2664 1.381 . S
C2666 C2667 1.394 . S
C2666 H2674 0.930 . S
C2667 C2666 1.394 . S
C2667 C2668 1.383 1_655 S
C2667 H2675 0.929 . S
C2668 C2667 1.383 1_455 S
C2668 C2669 1.377 . S
C2669 H2653 0.930 . S
C2669 C2668 1.377 . S
C2669 C2670 1.373 1_455 S
C2670 H2654 0.922 1_655 S
C2670 C2664 1.398 . S
C2670 C2669 1.373 1_655 S
H2671 C2665 0.959 1_565 S
H2672 C2665 0.961 1_565 S
H2673 C2665 0.960 . S
H2674 C2666 0.930 . S
H2675 C2667 0.929 . S
H2676 C2684 0.929 . S
H2677 C2686 0.930 . S
H2678 C2688 0.930 . S
H2679 C2691 0.929 . S
H2680 C2694 0.930 . S
H2681 C2696 0.960 . S
H2682 C2696 0.960 . S
H2683 C2696 0.960 . S
C2684 H2676 0.929 . S
C2684 C2685 1.377 . S
C2684 C2686 1.384 . S
C2685 C2684 1.377 . S
C2685 C2691 1.390 . S
C2686 H2677 0.930 . S
C2686 C2684 1.384 . S
C2686 C2687 1.372 . S
C2687 C2686 1.372 . S
C2687 C2688 1.400 . S
C2687 C2692 1.490 . S
C2688 H2678 0.930 . S
C2688 C2687 1.400 . S
C2688 C2691 1.386 . S
H2689 C2705 0.930 . S
H2690 C2706 0.931 . S
C2691 H2679 0.929 . S
C2691 C2685 1.390 . S
C2691 C2688 1.386 . S
C2692 C2687 1.490 . S
C2692 C2694 1.395 . S
C2692 C2695 1.403 . S
H2693 C2699 0.930 . S
C2694 H2680 0.930 . S
C2694 C2692 1.395 . S
C2694 C2697 1.403 . S
C2695 C2692 1.403 . S
C2695 C2696 1.524 . S
C2695 C2699 1.400 . S
C2696 H2681 0.960 . S
C2696 H2682 0.960 . S
C2696 H2683 0.960 . S
C2696 C2695 1.524 . S
C2697 C2694 1.403 . S
C2697 C2698 1.392 . S
C2697 C2701 1.495 . S
C2698 C2697 1.392 . S
C2698 C2699 1.385 . S
C2698 C2700 1.478 . S
C2699 H2693 0.930 . S
C2699 C2695 1.400 . S
C2699 C2698 1.385 . S
C2700 C2698 1.478 . S
C2700 C2702 1.381 . S
C2700 C2706 1.383 . S
C2701 C2697 1.495 . S
C2701 H2707 0.959 . S
C2701 H2708 0.961 . S
C2701 H2709 0.960 . S
C2702 C2700 1.381 . S
C2702 C2703 1.394 . S
C2702 H2710 0.930 . S
C2703 C2702 1.394 . S
C2703 C2704 1.383 . S
C2703 H2711 0.929 . S
C2704 C2703 1.383 . S
C2704 C2705 1.377 . S
C2705 H2689 0.930 . S
C2705 C2704 1.377 . S
C2705 C2706 1.379 . S
C2706 H2690 0.931 . S
C2706 C2700 1.383 . S
C2706 C2705 1.379 . S
H2707 C2701 0.959 . S
H2708 C2701 0.961 . S
H2709 C2701 0.960 . S
H2710 C2702 0.930 . S
H2711 C2703 0.929 . S
H2712 C2720 0.929 . S
H2713 C2722 0.930 . S
H2714 C2724 0.930 . S
H2715 C2727 0.929 . S
H2716 C2730 0.930 . S
H2717 C2732 0.930 1_565 S
H2718 C2732 0.960 . S
H2719 C2732 0.960 . S
C2720 H2712 0.929 . S
C2720 C2721 1.377 . S
C2720 C2722 1.384 . S
C2721 C2720 1.377 . S
C2721 C2727 1.390 . S
C2722 H2713 0.930 . S
C2722 C2720 1.384 . S
C2722 C2723 1.372 . S
C2723 C2722 1.372 . S
C2723 C2724 1.400 . S
C2723 C2728 1.490 . S
C2724 H2714 0.930 . S
C2724 C2723 1.400 . S
C2724 C2727 1.386 . S
H2725 C2741 0.930 . S
H2726 C2742 0.931 . S
C2727 H2715 0.929 . S
C2727 C2721 1.390 . S
C2727 C2724 1.386 . S
C2728 C2723 1.490 . S
C2728 C2730 1.395 . S
C2728 C2731 1.403 . S
H2729 C2735 0.930 . S
C2730 H2716 0.930 . S
C2730 C2728 1.395 . S
C2730 C2733 1.403 . S
C2731 C2728 1.403 . S
C2731 C2732 1.524 . S
C2731 C2735 1.400 . S
C2732 H2717 0.930 1_545 S
C2732 H2718 0.960 . S
C2732 H2719 0.960 . S
C2732 C2731 1.524 . S
C2733 C2730 1.403 . S
C2733 C2734 1.392 . S
C2733 C2737 1.495 . S
C2734 C2733 1.392 . S
C2734 C2735 1.385 . S
C2734 C2736 1.478 . S
C2735 H2729 0.930 . S
C2735 C2731 1.400 . S
C2735 C2734 1.385 . S
C2736 C2734 1.478 . S
C2736 C2738 1.381 . S
C2736 C2742 1.383 . S
C2737 C2733 1.495 . S
C2737 H2743 0.959 . S
C2737 H2744 0.961 . S
C2737 H2745 0.960 . S
C2738 C2736 1.381 . S
C2738 C2739 1.394 . S
C2738 H2746 0.930 . S
C2739 C2738 1.394 . S
C2739 C2740 1.383 . S
C2739 H2747 0.929 . S
C2740 C2739 1.383 . S
C2740 C2741 1.377 . S
C2741 H2725 0.930 . S
C2741 C2740 1.377 . S
C2741 C2742 1.379 . S
C2742 H2726 0.931 . S
C2742 C2736 1.383 . S
C2742 C2741 1.379 . S
H2743 C2737 0.959 . S
H2744 C2737 0.961 . S
H2745 C2737 0.960 . S
H2746 C2738 0.930 . S
H2747 C2739 0.929 . S
H2748 C2756 0.929 . S
H2749 C2758 0.930 . S
H2750 C2760 0.930 . S
H2751 C2763 0.929 . S
H2752 C2766 0.930 . S
H2753 C2768 0.960 . S
H2754 C2768 0.960 . S
H2755 C2768 0.960 . S
C2756 H2748 0.929 . S
C2756 C2757 1.377 . S
C2756 C2758 1.384 . S
C2757 C2756 1.377 . S
C2757 C2763 1.390 . S
C2758 H2749 0.930 . S
C2758 C2756 1.384 . S
C2758 C2759 1.372 . S
C2759 C2758 1.372 . S
C2759 C2760 1.400 . S
C2759 C2764 1.490 . S
C2760 H2750 0.930 . S
C2760 C2759 1.400 . S
C2760 C2763 1.386 . S
H2761 C2777 0.930 . S
H2762 C2778 0.931 . S
C2763 H2751 0.929 . S
C2763 C2757 1.390 . S
C2763 C2760 1.386 . S
C2764 C2759 1.490 . S
C2764 C2766 1.395 . S
C2764 C2767 1.403 . S
H2765 C2771 0.930 . S
C2766 H2752 0.930 . S
C2766 C2764 1.395 . S
C2766 C2769 1.403 . S
C2767 C2764 1.403 . S
C2767 C2768 1.524 . S
C2767 C2771 1.400 . S
C2768 H2753 0.960 . S
C2768 H2754 0.960 . S
C2768 H2755 0.960 . S
C2768 C2767 1.524 . S
C2769 C2766 1.403 . S
C2769 C2770 1.392 . S
C2769 C2773 1.495 . S
C2770 C2769 1.392 . S
C2770 C2771 1.385 . S
C2770 C2772 1.478 . S
C2771 H2765 0.930 . S
C2771 C2767 1.400 . S
C2771 C2770 1.385 . S
C2772 C2770 1.478 . S
C2772 C2774 1.381 . S
C2772 C2778 1.383 . S
C2773 C2769 1.495 . S
C2773 H2779 0.959 . S
C2773 H2780 0.961 . S
C2773 H2781 0.960 . S
C2774 C2772 1.381 . S
C2774 C2775 1.394 . S
C2774 H2782 0.930 . S
C2775 C2774 1.394 . S
C2775 C2776 1.383 . S
C2775 H2783 0.929 . S
C2776 C2775 1.383 . S
C2776 C2777 1.377 . S
C2777 H2761 0.930 . S
C2777 C2776 1.377 . S
C2777 C2778 1.379 . S
C2778 H2762 0.931 . S
C2778 C2772 1.383 . S
C2778 C2777 1.379 . S
H2779 C2773 0.959 . S
H2780 C2773 0.961 . S
H2781 C2773 0.960 . S
H2782 C2774 0.930 . S
H2783 C2775 0.929 . S
H2784 C2792 0.929 . S
H2785 C2794 0.930 . S
H2786 C2796 0.930 . S
H2787 C2799 0.929 . S
H2788 C2802 0.930 . S
H2789 C2804 0.960 . S
H2790 C2804 0.960 . S
H2791 C2804 0.960 . S
C2792 H2784 0.929 . S
C2792 C2793 1.377 . S
C2792 C2794 1.384 . S
C2793 C2792 1.377 . S
C2793 C2799 1.390 1_556 S
C2794 H2785 0.930 . S
C2794 C2792 1.384 . S
C2794 C2795 1.372 1_556 S
C2795 C2794 1.372 1_554 S
C2795 C2796 1.400 . S
C2795 C2800 1.490 . S
C2796 H2786 0.930 . S
C2796 C2795 1.400 . S
C2796 C2799 1.386 . S
H2797 C2813 0.972 . S
H2798 C2814 0.925 1_545 S
C2799 H2787 0.929 . S
C2799 C2793 1.390 1_554 S
C2799 C2796 1.386 . S
C2800 C2795 1.490 . S
C2800 C2802 1.395 . S
C2800 C2803 1.403 1_554 S
H2801 C2807 0.930 1_556 S
C2802 H2788 0.930 . S
C2802 C2800 1.395 . S
C2802 C2805 1.403 . S
C2803 C2800 1.403 1_556 S
C2803 C2804 1.524 . S
C2803 C2807 1.400 1_556 S
C2804 H2789 0.960 . S
C2804 H2790 0.960 . S
C2804 H2791 0.960 . S
C2804 C2803 1.524 . S
C2805 C2802 1.403 . S
C2805 C2806 1.392 . S
C2805 C2809 1.495 . S
C2806 C2805 1.392 . S
C2806 C2807 1.385 . S
C2806 C2808 1.478 . S
C2807 H2801 0.930 1_554 S
C2807 C2803 1.400 1_554 S
C2807 C2806 1.385 . S
C2808 C2806 1.478 . S
C2808 C2810 1.381 . S
C2808 C2814 1.383 . S
C2809 C2805 1.495 . S
C2809 H2815 0.959 . S
C2809 H2816 0.961 . S
C2809 H2817 0.960 . S
C2810 C2808 1.381 . S
C2810 C2811 1.394 . S
C2810 H2818 0.930 . S
C2811 C2810 1.394 . S
C2811 C2812 1.383 . S
C2811 H2819 0.929 . S
C2812 C2811 1.383 . S
C2812 C2813 1.361 1_565 S
C2813 H2797 0.972 . S
C2813 C2812 1.361 1_545 S
C2813 C2814 1.355 1_545 S
C2814 H2798 0.925 1_565 S
C2814 C2808 1.383 . S
C2814 C2813 1.355 1_565 S
H2815 C2809 0.959 . S
H2816 C2809 0.961 . S
H2817 C2809 0.960 . S
H2818 C2810 0.930 . S
H2819 C2811 0.929 . S
H2820 C2828 0.929 1_556 S
H2821 C2830 0.929 . S
H2822 C2832 0.930 . S
H2823 C2835 0.929 . S
H2824 C2838 0.930 . S
H2825 C2840 0.960 . S
H2826 C2840 0.960 . S
H2827 C2840 0.960 . S
C2828 H2820 0.929 1_554 S
C2828 C2829 1.377 . S
C2828 C2830 1.384 . S
C2829 C2828 1.377 . S
C2829 C2835 1.390 . S
C2830 H2821 0.929 . S
C2830 C2828 1.384 . S
C2830 C2831 1.372 . S
C2831 C2830 1.372 . S
C2831 C2832 1.400 . S
C2831 C2836 1.490 . S
C2832 H2822 0.930 . S
C2832 C2831 1.400 . S
C2832 C2835 1.386 . S
H2833 C2849 0.930 . S
H2834 C2850 0.931 . S
C2835 H2823 0.929 . S
C2835 C2829 1.390 . S
C2835 C2832 1.386 . S
C2836 C2831 1.490 . S
C2836 C2838 1.395 . S
C2836 C2839 1.403 1_554 S
H2837 C2843 0.921 1_556 S
C2838 H2824 0.930 . S
C2838 C2836 1.395 . S
C2838 C2841 1.403 . S
C2839 C2836 1.403 1_556 S
C2839 C2840 1.524 . S
C2839 C2843 1.394 1_556 S
C2840 H2825 0.960 . S
C2840 H2826 0.960 . S
C2840 H2827 0.960 . S
C2840 C2839 1.524 . S
C2841 C2838 1.403 . S
C2841 C2842 1.392 . S
C2841 C2845 1.495 . S
C2842 C2841 1.392 . S
C2842 C2843 1.401 . S
C2842 C2844 1.478 . S
C2843 H2837 0.921 1_554 S
C2843 C2839 1.394 1_554 S
C2843 C2842 1.401 . S
C2844 C2842 1.478 . S
C2844 C2846 1.381 . S
C2844 C2850 1.383 . S
C2845 C2841 1.495 . S
C2845 H2851 0.959 . S
C2845 H2852 0.961 . S
C2845 H2853 0.960 . S
C2846 C2844 1.381 . S
C2846 C2847 1.394 . S
C2846 H2854 0.930 . S
C2847 C2846 1.394 . S
C2847 C2848 1.383 . S
C2847 H2855 0.929 . S
C2848 C2847 1.383 . S
C2848 C2849 1.377 . S
C2849 H2833 0.930 . S
C2849 C2848 1.377 . S
C2849 C2850 1.379 . S
C2850 H2834 0.931 . S
C2850 C2844 1.383 . S
C2850 C2849 1.379 . S
H2851 C2845 0.959 . S
H2852 C2845 0.961 . S
H2853 C2845 0.960 . S
H2854 C2846 0.930 . S
H2855 C2847 0.929 . S
H2856 C2864 0.929 . S
H2857 C2866 0.930 . S
H2858 C2868 0.930 . S
H2859 C2871 0.929 . S
H2860 C2874 0.930 . S
H2861 C2876 0.960 . S
H2862 C2876 0.960 . S
H2863 C2876 0.960 . S
C2864 H2856 0.929 . S
C2864 C2865 1.377 . S
C2864 C2866 1.384 . S
C2865 C2864 1.377 . S
C2865 C2871 1.390 . S
C2866 H2857 0.930 . S
C2866 C2864 1.384 . S
C2866 C2867 1.372 . S
C2867 C2866 1.372 . S
C2867 C2868 1.400 . S
C2867 C2872 1.490 . S
C2868 H2858 0.930 . S
C2868 C2867 1.400 . S
C2868 C2871 1.386 . S
H2869 C2885 0.930 . S
H2870 C2886 0.931 . S
C2871 H2859 0.929 . S
C2871 C2865 1.390 . S
C2871 C2868 1.386 . S
C2872 C2867 1.490 . S
C2872 C2874 1.395 . S
C2872 C2875 1.403 . S
H2873 C2879 0.930 . S
C2874 H2860 0.930 . S
C2874 C2872 1.395 . S
C2874 C2877 1.403 . S
C2875 C2872 1.403 . S
C2875 C2876 1.524 . S
C2875 C2879 1.400 . S
C2876 H2861 0.960 . S
C2876 H2862 0.960 . S
C2876 H2863 0.960 . S
C2876 C2875 1.524 . S
C2877 C2874 1.403 . S
C2877 C2878 1.392 . S
C2877 C2881 1.495 . S
C2878 C2877 1.392 . S
C2878 C2879 1.385 . S
C2878 C2880 1.478 . S
C2879 H2873 0.930 . S
C2879 C2875 1.400 . S
C2879 C2878 1.385 . S
C2880 C2878 1.478 . S
C2880 C2882 1.381 . S
C2880 C2886 1.383 . S
C2881 C2877 1.495 . S
C2881 H2887 0.959 . S
C2881 H2888 0.961 . S
C2881 H2889 0.960 . S
C2882 C2880 1.381 . S
C2882 C2883 1.394 . S
C2882 H2890 0.930 . S
C2883 C2882 1.394 . S
C2883 C2884 1.383 . S
C2883 H2891 0.929 . S
C2884 C2883 1.383 . S
C2884 C2885 1.377 . S
C2885 H2869 0.930 . S
C2885 C2884 1.377 . S
C2885 C2886 1.379 . S
C2886 H2870 0.931 . S
C2886 C2880 1.383 . S
C2886 C2885 1.379 . S
H2887 C2881 0.959 . S
H2888 C2881 0.961 . S
H2889 C2881 0.960 . S
H2890 C2882 0.930 . S
H2891 C2883 0.929 . S
H2892 C2900 0.929 . S
H2893 C2902 0.930 . S
H2894 C2904 0.930 . S
H2895 C2907 0.929 . S
H2896 C2910 0.930 . S
H2897 C2912 0.960 . S
H2898 C2912 0.960 . S
H2899 C2912 0.960 . S
C2900 H2892 0.929 . S
C2900 C2901 1.377 . S
C2900 C2902 1.384 . S
C2901 C2900 1.377 . S
C2901 C2907 1.390 . S
C2902 H2893 0.930 . S
C2902 C2900 1.384 . S
C2902 C2903 1.372 . S
C2903 C2902 1.372 . S
C2903 C2904 1.400 . S
C2903 C2908 1.490 . S
C2904 H2894 0.930 . S
C2904 C2903 1.400 . S
C2904 C2907 1.386 . S
H2905 C2921 0.930 . S
H2906 C2922 0.931 . S
C2907 H2895 0.929 . S
C2907 C2901 1.390 . S
C2907 C2904 1.386 . S
C2908 C2903 1.490 . S
C2908 C2910 1.395 . S
C2908 C2911 1.403 . S
H2909 C2915 0.930 . S
C2910 H2896 0.930 . S
C2910 C2908 1.395 . S
C2910 C2913 1.403 . S
C2911 C2908 1.403 . S
C2911 C2912 1.524 . S
C2911 C2915 1.400 . S
C2912 H2897 0.960 . S
C2912 H2898 0.960 . S
C2912 H2899 0.960 . S
C2912 C2911 1.524 . S
C2913 C2910 1.403 . S
C2913 C2914 1.392 . S
C2913 C2917 1.495 . S
C2914 C2913 1.392 . S
C2914 C2915 1.385 . S
C2914 C2916 1.478 . S
C2915 H2909 0.930 . S
C2915 C2911 1.400 . S
C2915 C2914 1.385 . S
C2916 C2914 1.478 . S
C2916 C2918 1.381 . S
C2916 C2922 1.383 . S
C2917 C2913 1.495 . S
C2917 H2923 0.959 . S
C2917 H2924 0.961 . S
C2917 H2925 0.960 . S
C2918 C2916 1.381 . S
C2918 C2919 1.394 . S
C2918 H2926 0.930 . S
C2919 C2918 1.394 . S
C2919 C2920 1.383 . S
C2919 H2927 0.929 . S
C2920 C2919 1.383 . S
C2920 C2921 1.377 . S
C2921 H2905 0.930 . S
C2921 C2920 1.377 . S
C2921 C2922 1.379 . S
C2922 H2906 0.931 . S
C2922 C2916 1.383 . S
C2922 C2921 1.379 . S
H2923 C2917 0.959 . S
H2924 C2917 0.961 . S
H2925 C2917 0.960 . S
H2926 C2918 0.930 . S
H2927 C2919 0.929 . S
H2928 C2936 0.929 . S
H2929 C2938 0.930 . S
H2930 C2940 0.930 . S
H2931 C2943 0.929 . S
H2932 C2946 0.930 . S
H2933 C2948 0.960 . S
H2934 C2948 0.960 . S
H2935 C2948 0.960 . S
C2936 H2928 0.929 . S
C2936 C2937 1.377 . S
C2936 C2938 1.384 . S
C2937 C2936 1.377 . S
C2937 C2943 1.390 . S
C2938 H2929 0.930 . S
C2938 C2936 1.384 . S
C2938 C2939 1.372 . S
C2939 C2938 1.372 . S
C2939 C2940 1.400 . S
C2939 C2944 1.490 . S
C2940 H2930 0.930 . S
C2940 C2939 1.400 . S
C2940 C2943 1.386 . S
H2941 C2957 0.930 . S
H2942 C2958 0.931 . S
C2943 H2931 0.929 . S
C2943 C2937 1.390 . S
C2943 C2940 1.386 . S
C2944 C2939 1.490 . S
C2944 C2946 1.395 . S
C2944 C2947 1.403 . S
H2945 C2951 0.930 . S
C2946 H2932 0.930 . S
C2946 C2944 1.395 . S
C2946 C2949 1.403 . S
C2947 C2944 1.403 . S
C2947 C2948 1.524 . S
C2947 C2951 1.400 . S
C2948 H2933 0.960 . S
C2948 H2934 0.960 . S
C2948 H2935 0.960 . S
C2948 C2947 1.524 . S
C2949 C2946 1.403 . S
C2949 C2950 1.392 . S
C2949 C2953 1.495 . S
C2950 C2949 1.392 . S
C2950 C2951 1.385 . S
C2950 C2952 1.478 . S
C2951 H2945 0.930 . S
C2951 C2947 1.400 . S
C2951 C2950 1.385 . S
C2952 C2950 1.478 . S
C2952 C2954 1.381 . S
C2952 C2958 1.383 . S
C2953 C2949 1.495 . S
C2953 H2959 0.959 . S
C2953 H2960 0.961 . S
C2953 H2961 0.960 . S
C2954 C2952 1.381 . S
C2954 C2955 1.394 . S
C2954 H2962 0.930 . S
C2955 C2954 1.394 . S
C2955 C2956 1.383 . S
C2955 H2963 0.929 . S
C2956 C2955 1.383 . S
C2956 C2957 1.377 . S
C2957 H2941 0.930 . S
C2957 C2956 1.377 . S
C2957 C2958 1.379 . S
C2958 H2942 0.931 . S
C2958 C2952 1.383 . S
C2958 C2957 1.379 . S
H2959 C2953 0.959 . S
H2960 C2953 0.961 . S
H2961 C2953 0.960 . S
H2962 C2954 0.930 . S
H2963 C2955 0.929 . S
H2964 C2972 0.929 . S
H2965 C2974 0.930 . S
H2966 C2976 0.930 . S
H2967 C2979 0.929 . S
H2968 C2982 0.930 . S
H2969 C2984 0.960 . S
H2970 C2984 0.960 . S
H2971 C2984 0.960 . S
C2972 H2964 0.929 . S
C2972 C2973 1.377 . S
C2972 C2974 1.384 . S
C2973 C2972 1.377 . S
C2973 C2979 1.390 . S
C2974 H2965 0.930 . S
C2974 C2972 1.384 . S
C2974 C2975 1.372 . S
C2975 C2974 1.372 . S
C2975 C2976 1.400 . S
C2975 C2980 1.490 . S
C2976 H2966 0.930 . S
C2976 C2975 1.400 . S
C2976 C2979 1.386 . S
H2977 C2993 0.930 . S
H2978 C2994 0.931 . S
C2979 H2967 0.929 . S
C2979 C2973 1.390 . S
C2979 C2976 1.386 . S
C2980 C2975 1.490 . S
C2980 C2982 1.395 . S
C2980 C2983 1.403 . S
H2981 C2987 0.930 . S
C2982 H2968 0.930 . S
C2982 C2980 1.395 . S
C2982 C2985 1.403 . S
C2983 C2980 1.403 . S
C2983 C2984 1.524 . S
C2983 C2987 1.400 . S
C2984 H2969 0.960 . S
C2984 H2970 0.960 . S
C2984 H2971 0.960 . S
C2984 C2983 1.524 . S
C2985 C2982 1.403 . S
C2985 C2986 1.392 . S
C2985 C2989 1.495 . S
C2986 C2985 1.392 . S
C2986 C2987 1.385 . S
C2986 C2988 1.478 . S
C2987 H2981 0.930 . S
C2987 C2983 1.400 . S
C2987 C2986 1.385 . S
C2988 C2986 1.478 . S
C2988 C2990 1.381 . S
C2988 C2994 1.383 . S
C2989 C2985 1.495 . S
C2989 H2995 0.959 . S
C2989 H2996 0.961 . S
C2989 H2997 0.960 . S
C2990 C2988 1.381 . S
C2990 C2991 1.394 . S
C2990 H2998 0.930 . S
C2991 C2990 1.394 . S
C2991 C2992 1.383 . S
C2991 H2999 0.929 . S
C2992 C2991 1.383 . S
C2992 C2993 1.377 . S
C2993 H2977 0.930 . S
C2993 C2992 1.377 . S
C2993 C2994 1.379 . S
C2994 H2978 0.931 . S
C2994 C2988 1.383 . S
C2994 C2993 1.379 . S
H2995 C2989 0.959 . S
H2996 C2989 0.961 . S
H2997 C2989 0.960 . S
H2998 C2990 0.930 . S
H2999 C2991 0.929 . S
H3000 C3008 0.929 . S
H3001 C3010 0.930 . S
H3002 C3012 0.930 . S
H3003 C3015 0.929 . S
H3004 C3018 0.930 . S
H3005 C3020 0.960 . S
H3006 C3020 0.960 . S
H3007 C3020 0.960 . S
C3008 H3000 0.929 . S
C3008 C3009 1.377 . S
C3008 C3010 1.384 . S
C3009 C3008 1.377 . S
C3009 C3015 1.390 . S
C3010 H3001 0.930 . S
C3010 C3008 1.384 . S
C3010 C3011 1.372 . S
C3011 C3010 1.372 . S
C3011 C3012 1.400 . S
C3011 C3016 1.490 . S
C3012 H3002 0.930 . S
C3012 C3011 1.400 . S
C3012 C3015 1.386 . S
H3013 C3029 0.930 . S
H3014 C3030 0.931 . S
C3015 H3003 0.929 . S
C3015 C3009 1.390 . S
C3015 C3012 1.386 . S
C3016 C3011 1.490 . S
C3016 C3018 1.395 . S
C3016 C3019 1.403 . S
H3017 C3023 0.930 . S
C3018 H3004 0.930 . S
C3018 C3016 1.395 . S
C3018 C3021 1.403 . S
C3019 C3016 1.403 . S
C3019 C3020 1.524 . S
C3019 C3023 1.400 . S
C3020 H3005 0.960 . S
C3020 H3006 0.960 . S
C3020 H3007 0.960 . S
C3020 C3019 1.524 . S
C3021 C3018 1.403 . S
C3021 C3022 1.392 . S
C3021 C3025 1.495 . S
C3022 C3021 1.392 . S
C3022 C3023 1.385 . S
C3022 C3024 1.478 . S
C3023 H3017 0.930 . S
C3023 C3019 1.400 . S
C3023 C3022 1.385 . S
C3024 C3022 1.478 . S
C3024 C3026 1.381 . S
C3024 C3030 1.383 . S
C3025 C3021 1.495 . S
C3025 H3031 0.959 . S
C3025 H3032 0.961 . S
C3025 H3033 0.960 . S
C3026 C3024 1.381 . S
C3026 C3027 1.394 . S
C3026 H3034 0.930 . S
C3027 C3026 1.394 . S
C3027 C3028 1.383 . S
C3027 H3035 0.929 . S
C3028 C3027 1.383 . S
C3028 C3029 1.377 . S
C3029 H3013 0.930 . S
C3029 C3028 1.377 . S
C3029 C3030 1.379 . S
C3030 H3014 0.931 . S
C3030 C3024 1.383 . S
C3030 C3029 1.379 . S
H3031 C3025 0.959 . S
H3032 C3025 0.961 . S
H3033 C3025 0.960 . S
H3034 C3026 0.930 . S
H3035 C3027 0.929 . S
H3036 C3044 0.929 . S
H3037 C3046 0.930 . S
H3038 C3048 0.930 . S
H3039 C3051 0.929 . S
H3040 C3054 0.930 . S
H3041 C3056 0.960 . S
H3042 C3056 0.960 . S
H3043 C3056 0.960 . S
C3044 H3036 0.929 . S
C3044 C3045 1.377 . S
C3044 C3046 1.384 . S
C3045 C3044 1.377 . S
C3045 C3051 1.390 . S
C3046 H3037 0.930 . S
C3046 C3044 1.384 . S
C3046 C3047 1.372 . S
C3047 C3046 1.372 . S
C3047 C3048 1.400 . S
C3047 C3052 1.490 . S
C3048 H3038 0.930 . S
C3048 C3047 1.400 . S
C3048 C3051 1.386 . S
H3049 C3065 0.930 . S
H3050 C3066 0.931 . S
C3051 H3039 0.929 . S
C3051 C3045 1.390 . S
C3051 C3048 1.386 . S
C3052 C3047 1.490 . S
C3052 C3054 1.395 . S
C3052 C3055 1.403 . S
H3053 C3059 0.930 . S
C3054 H3040 0.930 . S
C3054 C3052 1.395 . S
C3054 C3057 1.403 . S
C3055 C3052 1.403 . S
C3055 C3056 1.524 . S
C3055 C3059 1.400 . S
C3056 H3041 0.960 . S
C3056 H3042 0.960 . S
C3056 H3043 0.960 . S
C3056 C3055 1.524 . S
C3057 C3054 1.403 . S
C3057 C3058 1.392 . S
C3057 C3061 1.495 . S
C3058 C3057 1.392 . S
C3058 C3059 1.385 . S
C3058 C3060 1.478 . S
C3059 H3053 0.930 . S
C3059 C3055 1.400 . S
C3059 C3058 1.385 . S
C3060 C3058 1.478 . S
C3060 C3062 1.381 . S
C3060 C3066 1.383 . S
C3061 C3057 1.495 . S
C3061 H3067 0.959 . S
C3061 H3068 0.961 . S
C3061 H3069 0.960 . S
C3062 C3060 1.381 . S
C3062 C3063 1.394 . S
C3062 H3070 0.930 . S
C3063 C3062 1.394 . S
C3063 C3064 1.383 . S
C3063 H3071 0.929 . S
C3064 C3063 1.383 . S
C3064 C3065 1.377 . S
C3065 H3049 0.930 . S
C3065 C3064 1.377 . S
C3065 C3066 1.379 . S
C3066 H3050 0.931 . S
C3066 C3060 1.383 . S
C3066 C3065 1.379 . S
H3067 C3061 0.959 . S
H3068 C3061 0.961 . S
H3069 C3061 0.960 . S
H3070 C3062 0.930 . S
H3071 C3063 0.929 . S
H3072 C3080 0.929 . S
H3073 C3082 0.930 . S
H3074 C3084 0.930 . S
H3075 C3087 0.929 . S
H3076 C3090 0.930 . S
H3077 C3092 0.960 . S
H3078 C3092 0.960 . S
H3079 C3092 0.960 . S
C3080 H3072 0.929 . S
C3080 C3081 1.377 . S
C3080 C3082 1.384 . S
C3081 C3080 1.377 . S
C3081 C3087 1.390 . S
C3082 H3073 0.930 . S
C3082 C3080 1.384 . S
C3082 C3083 1.372 . S
C3083 C3082 1.372 . S
C3083 C3084 1.400 . S
C3083 C3088 1.490 . S
C3084 H3074 0.930 . S
C3084 C3083 1.400 . S
C3084 C3087 1.386 . S
H3085 C3101 0.930 . S
H3086 C3102 0.931 . S
C3087 H3075 0.929 . S
C3087 C3081 1.390 . S
C3087 C3084 1.386 . S
C3088 C3083 1.490 . S
C3088 C3090 1.395 . S
C3088 C3091 1.403 . S
H3089 C3095 0.930 . S
C3090 H3076 0.930 . S
C3090 C3088 1.395 . S
C3090 C3093 1.403 . S
C3091 C3088 1.403 . S
C3091 C3092 1.524 . S
C3091 C3095 1.400 . S
C3092 H3077 0.960 . S
C3092 H3078 0.960 . S
C3092 H3079 0.960 . S
C3092 C3091 1.524 . S
C3093 C3090 1.403 . S
C3093 C3094 1.392 . S
C3093 C3097 1.495 . S
C3094 C3093 1.392 . S
C3094 C3095 1.385 . S
C3094 C3096 1.478 . S
C3095 H3089 0.930 . S
C3095 C3091 1.400 . S
C3095 C3094 1.385 . S
C3096 C3094 1.478 . S
C3096 C3098 1.381 . S
C3096 C3102 1.383 . S
C3097 C3093 1.495 . S
C3097 H3103 0.959 . S
C3097 H3104 0.961 . S
C3097 H3105 0.960 . S
C3098 C3096 1.381 . S
C3098 C3099 1.394 . S
C3098 H3106 0.930 . S
C3099 C3098 1.394 . S
C3099 C3100 1.383 . S
C3099 H3107 0.929 1_455 S
C3100 C3099 1.383 . S
C3100 C3101 1.377 . S
C3101 H3085 0.930 . S
C3101 C3100 1.377 . S
C3101 C3102 1.379 . S
C3102 H3086 0.931 . S
C3102 C3096 1.383 . S
C3102 C3101 1.379 . S
H3103 C3097 0.959 . S
H3104 C3097 0.961 . S
H3105 C3097 0.960 . S
H3106 C3098 0.930 . S
H3107 C3099 0.929 1_655 S
H3108 C3116 0.929 . S
H3109 C3118 0.930 . S
H3110 C3120 0.930 . S
H3111 C3123 0.929 . S
H3112 C3126 0.930 . S
H3113 C3128 0.960 . S
H3114 C3128 0.960 . S
H3115 C3128 0.960 . S
C3116 H3108 0.929 . S
C3116 C3117 1.377 . S
C3116 C3118 1.384 . S
C3117 C3116 1.377 . S
C3117 C3123 1.390 . S
C3118 H3109 0.930 . S
C3118 C3116 1.384 . S
C3118 C3119 1.372 . S
C3119 C3118 1.372 . S
C3119 C3120 1.400 . S
C3119 C3124 1.490 . S
C3120 H3110 0.930 . S
C3120 C3119 1.400 . S
C3120 C3123 1.386 . S
H3121 C3137 0.930 . S
H3122 C3138 0.931 . S
C3123 H3111 0.929 . S
C3123 C3117 1.390 . S
C3123 C3120 1.386 . S
C3124 C3119 1.490 . S
C3124 C3126 1.395 . S
C3124 C3127 1.403 . S
H3125 C3131 0.930 . S
C3126 H3112 0.930 . S
C3126 C3124 1.395 . S
C3126 C3129 1.403 . S
C3127 C3124 1.403 . S
C3127 C3128 1.524 . S
C3127 C3131 1.400 . S
C3128 H3113 0.960 . S
C3128 H3114 0.960 . S
C3128 H3115 0.960 . S
C3128 C3127 1.524 . S
C3129 C3126 1.403 . S
C3129 C3130 1.392 . S
C3129 C3133 1.495 . S
C3130 C3129 1.392 . S
C3130 C3131 1.385 . S
C3130 C3132 1.478 . S
C3131 H3125 0.930 . S
C3131 C3127 1.400 . S
C3131 C3130 1.385 . S
C3132 C3130 1.478 . S
C3132 C3134 1.381 . S
C3132 C3138 1.383 . S
C3133 C3129 1.495 . S
C3133 H3139 0.959 . S
C3133 H3140 0.961 . S
C3133 H3141 0.960 . S
C3134 C3132 1.381 . S
C3134 C3135 1.394 . S
C3134 H3142 0.930 . S
C3135 C3134 1.394 . S
C3135 C3136 1.383 . S
C3135 H3143 0.929 . S
C3136 C3135 1.383 . S
C3136 C3137 1.377 . S
C3137 H3121 0.930 . S
C3137 C3136 1.377 . S
C3137 C3138 1.379 . S
C3138 H3122 0.931 . S
C3138 C3132 1.383 . S
C3138 C3137 1.379 . S
H3139 C3133 0.959 . S
H3140 C3133 0.961 . S
H3141 C3133 0.960 . S
H3142 C3134 0.930 . S
H3143 C3135 0.929 . S
H3144 C3152 0.929 . S
H3145 C3154 0.930 . S
H3146 C3156 0.930 . S
H3147 C3159 0.929 . S
H3148 C3162 0.930 . S
H3149 C3164 0.960 . S
H3150 C3164 0.960 . S
H3151 C3164 0.960 . S
C3152 H3144 0.929 . S
C3152 C3153 1.377 . S
C3152 C3154 1.384 . S
C3153 C3152 1.377 . S
C3153 C3159 1.390 . S
C3154 H3145 0.930 . S
C3154 C3152 1.384 . S
C3154 C3155 1.372 . S
C3155 C3154 1.372 . S
C3155 C3156 1.400 . S
C3155 C3160 1.490 . S
C3156 H3146 0.930 . S
C3156 C3155 1.400 . S
C3156 C3159 1.386 . S
H3157 C3173 0.930 . S
H3158 C3174 0.931 . S
C3159 H3147 0.929 . S
C3159 C3153 1.390 . S
C3159 C3156 1.386 . S
C3160 C3155 1.490 . S
C3160 C3162 1.395 . S
C3160 C3163 1.403 . S
H3161 C3167 0.930 . S
C3162 H3148 0.930 . S
C3162 C3160 1.395 . S
C3162 C3165 1.403 . S
C3163 C3160 1.403 . S
C3163 C3164 1.524 . S
C3163 C3167 1.400 . S
C3164 H3149 0.960 . S
C3164 H3150 0.960 . S
C3164 H3151 0.960 . S
C3164 C3163 1.524 . S
C3165 C3162 1.403 . S
C3165 C3166 1.392 . S
C3165 C3169 1.495 . S
C3166 C3165 1.392 . S
C3166 C3167 1.385 . S
C3166 C3168 1.478 . S
C3167 H3161 0.930 . S
C3167 C3163 1.400 . S
C3167 C3166 1.385 . S
C3168 C3166 1.478 . S
C3168 C3170 1.381 . S
C3168 C3174 1.383 . S
C3169 C3165 1.495 . S
C3169 H3175 0.959 . S
C3169 H3176 0.961 . S
C3169 H3177 0.960 . S
C3170 C3168 1.381 . S
C3170 C3171 1.394 . S
C3170 H3178 0.930 . S
C3171 C3170 1.394 . S
C3171 C3172 1.383 . S
C3171 H3179 0.929 . S
C3172 C3171 1.383 . S
C3172 C3173 1.377 . S
C3173 H3157 0.930 . S
C3173 C3172 1.377 . S
C3173 C3174 1.379 . S
C3174 H3158 0.931 . S
C3174 C3168 1.383 . S
C3174 C3173 1.379 . S
H3175 C3169 0.959 . S
H3176 C3169 0.961 . S
H3177 C3169 0.960 . S
H3178 C3170 0.930 . S
H3179 C3171 0.929 . S
H3180 C3188 0.929 . S
H3181 C3190 0.930 . S
H3182 C3192 0.930 . S
H3183 C3195 0.929 . S
H3184 C3198 0.930 . S
H3185 C3200 0.960 . S
H3186 C3200 0.960 . S
H3187 C3200 0.960 . S
C3188 H3180 0.929 . S
C3188 C3189 1.377 . S
C3188 C3190 1.384 . S
C3189 C3188 1.377 . S
C3189 C3195 1.390 . S
C3190 H3181 0.930 . S
C3190 C3188 1.384 . S
C3190 C3191 1.372 . S
C3191 C3190 1.372 . S
C3191 C3192 1.400 . S
C3191 C3196 1.490 . S
C3192 H3182 0.930 . S
C3192 C3191 1.400 . S
C3192 C3195 1.386 . S
H3193 C3209 0.930 . S
H3194 C3210 0.931 . S
C3195 H3183 0.929 . S
C3195 C3189 1.390 . S
C3195 C3192 1.386 . S
C3196 C3191 1.490 . S
C3196 C3198 1.395 . S
C3196 C3199 1.403 . S
H3197 C3203 0.930 . S
C3198 H3184 0.930 . S
C3198 C3196 1.395 . S
C3198 C3201 1.403 . S
C3199 C3196 1.403 . S
C3199 C3200 1.524 . S
C3199 C3203 1.400 . S
C3200 H3185 0.960 . S
C3200 H3186 0.960 . S
C3200 H3187 0.960 . S
C3200 C3199 1.524 . S
C3201 C3198 1.403 . S
C3201 C3202 1.392 . S
C3201 C3205 1.495 . S
C3202 C3201 1.392 . S
C3202 C3203 1.385 . S
C3202 C3204 1.478 . S
C3203 H3197 0.930 . S
C3203 C3199 1.400 . S
C3203 C3202 1.385 . S
C3204 C3202 1.478 . S
C3204 C3206 1.381 . S
C3204 C3210 1.383 . S
C3205 C3201 1.495 . S
C3205 H3211 0.959 . S
C3205 H3212 0.961 . S
C3205 H3213 0.960 . S
C3206 C3204 1.381 . S
C3206 C3207 1.394 . S
C3206 H3214 0.930 . S
C3207 C3206 1.394 . S
C3207 C3208 1.383 . S
C3207 H3215 0.929 . S
C3208 C3207 1.383 . S
C3208 C3209 1.377 . S
C3209 H3193 0.930 . S
C3209 C3208 1.377 . S
C3209 C3210 1.379 . S
C3210 H3194 0.931 . S
C3210 C3204 1.383 . S
C3210 C3209 1.379 . S
H3211 C3205 0.959 . S
H3212 C3205 0.961 . S
H3213 C3205 0.960 . S
H3214 C3206 0.930 . S
H3215 C3207 0.929 . S
H3216 C3224 0.929 . S
H3217 C3226 0.930 . S
H3218 C3228 0.930 . S
H3219 C3231 0.929 . S
H3220 C3234 0.930 . S
H3221 C3236 0.960 . S
H3222 C3236 0.960 . S
H3223 C3236 0.960 . S
C3224 H3216 0.929 . S
C3224 C3225 1.377 . S
C3224 C3226 1.384 . S
C3225 C3224 1.377 . S
C3225 C3231 1.390 . S
C3226 H3217 0.930 . S
C3226 C3224 1.384 . S
C3226 C3227 1.372 . S
C3227 C3226 1.372 . S
C3227 C3228 1.400 . S
C3227 C3232 1.490 . S
C3228 H3218 0.930 . S
C3228 C3227 1.400 . S
C3228 C3231 1.386 . S
H3229 C3245 0.930 . S
H3230 C3246 0.931 . S
C3231 H3219 0.929 . S
C3231 C3225 1.390 . S
C3231 C3228 1.386 . S
C3232 C3227 1.490 . S
C3232 C3234 1.395 . S
C3232 C3235 1.403 . S
H3233 C3239 0.930 . S
C3234 H3220 0.930 . S
C3234 C3232 1.395 . S
C3234 C3237 1.403 . S
C3235 C3232 1.403 . S
C3235 C3236 1.524 . S
C3235 C3239 1.400 . S
C3236 H3221 0.960 . S
C3236 H3222 0.960 . S
C3236 H3223 0.960 . S
C3236 C3235 1.524 . S
C3237 C3234 1.403 . S
C3237 C3238 1.392 . S
C3237 C3241 1.495 . S
C3238 C3237 1.392 . S
C3238 C3239 1.385 . S
C3238 C3240 1.478 . S
C3239 H3233 0.930 . S
C3239 C3235 1.400 . S
C3239 C3238 1.385 . S
C3240 C3238 1.478 . S
C3240 C3242 1.381 . S
C3240 C3246 1.383 . S
C3241 C3237 1.495 . S
C3241 H3247 0.959 . S
C3241 H3248 0.961 . S
C3241 H3249 0.960 . S
C3242 C3240 1.381 . S
C3242 C3243 1.394 . S
C3242 H3250 0.930 . S
C3243 C3242 1.394 . S
C3243 C3244 1.383 . S
C3243 H3251 0.949 . S
C3244 C3243 1.383 . S
C3244 C3245 1.377 . S
C3245 H3229 0.930 . S
C3245 C3244 1.377 . S
C3245 C3246 1.379 . S
C3246 H3230 0.931 . S
C3246 C3240 1.383 . S
C3246 C3245 1.379 . S
H3247 C3241 0.959 . S
H3248 C3241 0.961 . S
H3249 C3241 0.960 . S
H3250 C3242 0.930 . S
H3251 C3243 0.949 . S
H3252 C3260 0.929 . S
H3253 C3262 0.930 . S
H3254 C3264 0.930 . S
H3255 C3267 0.929 . S
H3256 C3270 0.930 . S
H3257 C3272 0.960 . S
H3258 C3272 0.960 . S
H3259 C3272 0.960 . S
C3260 H3252 0.929 . S
C3260 C3261 1.377 . S
C3260 C3262 1.384 . S
C3261 C3260 1.377 . S
C3261 C3267 1.390 . S
C3262 H3253 0.930 . S
C3262 C3260 1.384 . S
C3262 C3263 1.372 . S
C3263 C3262 1.372 . S
C3263 C3264 1.400 . S
C3263 C3268 1.490 . S
C3264 H3254 0.930 . S
C3264 C3263 1.400 . S
C3264 C3267 1.386 . S
H3265 C3281 0.930 . S
H3266 C3282 0.931 . S
C3267 H3255 0.929 . S
C3267 C3261 1.390 . S
C3267 C3264 1.386 . S
C3268 C3263 1.490 . S
C3268 C3270 1.395 . S
C3268 C3271 1.403 . S
H3269 C3275 0.930 . S
C3270 H3256 0.930 . S
C3270 C3268 1.395 . S
C3270 C3273 1.403 . S
C3271 C3268 1.403 . S
C3271 C3272 1.524 . S
C3271 C3275 1.400 . S
C3272 H3257 0.960 . S
C3272 H3258 0.960 . S
C3272 H3259 0.960 . S
C3272 C3271 1.524 . S
C3273 C3270 1.403 . S
C3273 C3274 1.392 . S
C3273 C3277 1.495 . S
C3274 C3273 1.392 . S
C3274 C3275 1.385 . S
C3274 C3276 1.478 . S
C3275 H3269 0.930 . S
C3275 C3271 1.400 . S
C3275 C3274 1.385 . S
C3276 C3274 1.478 . S
C3276 C3278 1.381 . S
C3276 C3282 1.383 . S
C3277 C3273 1.495 . S
C3277 H3283 0.959 . S
C3277 H3284 0.961 . S
C3277 H3285 0.960 . S
C3278 C3276 1.381 . S
C3278 C3279 1.394 . S
C3278 H3286 0.930 . S
C3279 C3278 1.394 . S
C3279 C3280 1.383 . S
C3279 H3287 0.929 . S
C3280 C3279 1.383 . S
C3280 C3281 1.377 . S
C3281 H3265 0.930 . S
C3281 C3280 1.377 . S
C3281 C3282 1.379 . S
C3282 H3266 0.931 . S
C3282 C3276 1.383 . S
C3282 C3281 1.379 . S
H3283 C3277 0.959 . S
H3284 C3277 0.961 . S
H3285 C3277 0.960 . S
H3286 C3278 0.930 . S
H3287 C3279 0.929 . S
H3288 C3296 0.929 . S
H3289 C3298 0.930 . S
H3290 C3300 0.930 . S
H3291 C3303 0.929 . S
H3292 C3306 0.930 . S
H3293 C3308 0.960 . S
H3294 C3308 0.960 . S
H3295 C3308 0.960 . S
C3296 H3288 0.929 . S
C3296 C3297 1.377 . S
C3296 C3298 1.384 . S
C3297 C3296 1.377 . S
C3297 C3303 1.390 . S
C3298 H3289 0.930 . S
C3298 C3296 1.384 . S
C3298 C3299 1.372 . S
C3299 C3298 1.372 . S
C3299 C3300 1.400 . S
C3299 C3304 1.490 . S
C3300 H3290 0.930 . S
C3300 C3299 1.400 . S
C3300 C3303 1.386 . S
H3301 C3317 0.930 1_554 S
H3302 C3318 0.931 . S
C3303 H3291 0.929 . S
C3303 C3297 1.390 . S
C3303 C3300 1.386 . S
C3304 C3299 1.490 . S
C3304 C3306 1.395 . S
C3304 C3307 1.403 . S
H3305 C3311 0.930 . S
C3306 H3292 0.930 . S
C3306 C3304 1.395 . S
C3306 C3309 1.403 . S
C3307 C3304 1.403 . S
C3307 C3308 1.524 . S
C3307 C3311 1.400 . S
C3308 H3293 0.960 . S
C3308 H3294 0.960 . S
C3308 H3295 0.960 . S
C3308 C3307 1.524 . S
C3309 C3306 1.403 . S
C3309 C3310 1.392 . S
C3309 C3313 1.495 . S
C3310 C3309 1.392 . S
C3310 C3311 1.385 . S
C3310 C3312 1.478 . S
C3311 H3305 0.930 . S
C3311 C3307 1.400 . S
C3311 C3310 1.385 . S
C3312 C3310 1.478 . S
C3312 C3314 1.381 . S
C3312 C3318 1.383 . S
C3313 C3309 1.495 . S
C3313 H3319 0.959 . S
C3313 H3320 0.961 . S
C3313 H3321 0.960 . S
C3314 C3312 1.381 . S
C3314 C3315 1.394 . S
C3314 H3322 0.930 . S
C3315 C3314 1.394 . S
C3315 C3316 1.383 . S
C3315 H3323 0.929 . S
C3316 C3315 1.383 . S
C3316 C3317 1.377 . S
C3317 H3301 0.930 1_556 S
C3317 C3316 1.377 . S
C3317 C3318 1.379 . S
C3318 H3302 0.931 . S
C3318 C3312 1.383 . S
C3318 C3317 1.379 . S
H3319 C3313 0.959 . S
H3320 C3313 0.961 . S
H3321 C3313 0.960 . S
H3322 C3314 0.930 . S
H3323 C3315 0.929 . S
H3324 C3332 0.929 . S
H3325 C3334 0.930 . S
H3326 C3336 0.930 . S
H3327 C3339 0.929 . S
H3328 C3342 0.930 . S
H3329 C3344 0.960 . S
H3330 C3344 0.960 . S
H3331 C3344 0.960 . S
C3332 H3324 0.929 . S
C3332 C3333 1.377 . S
C3332 C3334 1.384 . S
C3333 C3332 1.377 . S
C3333 C3339 1.390 . S
C3334 H3325 0.930 . S
C3334 C3332 1.384 . S
C3334 C3335 1.372 . S
C3335 C3334 1.372 . S
C3335 C3336 1.400 . S
C3335 C3340 1.490 . S
C3336 H3326 0.930 . S
C3336 C3335 1.400 . S
C3336 C3339 1.386 . S
H3337 C3353 0.930 . S
H3338 C3354 0.931 . S
C3339 H3327 0.929 . S
C3339 C3333 1.390 . S
C3339 C3336 1.386 . S
C3340 C3335 1.490 . S
C3340 C3342 1.395 . S
C3340 C3343 1.403 . S
H3341 C3347 0.930 . S
C3342 H3328 0.930 . S
C3342 C3340 1.395 . S
C3342 C3345 1.403 . S
C3343 C3340 1.403 . S
C3343 C3344 1.524 . S
C3343 C3347 1.400 . S
C3344 H3329 0.960 . S
C3344 H3330 0.960 . S
C3344 H3331 0.960 . S
C3344 C3343 1.524 . S
C3345 C3342 1.403 . S
C3345 C3346 1.392 . S
C3345 C3349 1.495 . S
C3346 C3345 1.392 . S
C3346 C3347 1.385 . S
C3346 C3348 1.478 . S
C3347 H3341 0.930 . S
C3347 C3343 1.400 . S
C3347 C3346 1.385 . S
C3348 C3346 1.478 . S
C3348 C3350 1.381 . S
C3348 C3354 1.383 . S
C3349 C3345 1.495 . S
C3349 H3355 0.959 . S
C3349 H3356 0.961 . S
C3349 H3357 0.960 . S
C3350 C3348 1.381 . S
C3350 C3351 1.394 . S
C3350 H3358 0.930 . S
C3351 C3350 1.394 . S
C3351 C3352 1.383 . S
C3351 H3359 0.929 . S
C3352 C3351 1.383 . S
C3352 C3353 1.377 . S
C3353 H3337 0.930 . S
C3353 C3352 1.377 . S
C3353 C3354 1.379 . S
C3354 H3338 0.931 . S
C3354 C3348 1.383 . S
C3354 C3353 1.379 . S
H3355 C3349 0.959 . S
H3356 C3349 0.961 . S
H3357 C3349 0.960 . S
H3358 C3350 0.930 . S
H3359 C3351 0.929 . S
H3360 C3368 0.929 . S
H3361 C3370 0.930 1_565 S
H3362 C3372 0.930 . S
H3363 C3375 0.929 . S
H3364 C3378 0.930 . S
H3365 C3380 0.960 . S
H3366 C3380 0.960 . S
H3367 C3380 0.960 . S
C3368 H3360 0.929 . S
C3368 C3369 1.377 . S
C3368 C3370 1.384 . S
C3369 C3368 1.377 . S
C3369 C3375 1.390 . S
C3370 H3361 0.930 1_545 S
C3370 C3368 1.384 . S
C3370 C3371 1.372 . S
C3371 C3370 1.372 . S
C3371 C3372 1.400 . S
C3371 C3376 1.490 . S
C3372 H3362 0.930 . S
C3372 C3371 1.400 . S
C3372 C3375 1.386 . S
H3373 C3389 0.930 . S
H3374 C3390 0.931 . S
C3375 H3363 0.929 . S
C3375 C3369 1.390 . S
C3375 C3372 1.386 . S
C3376 C3371 1.490 . S
C3376 C3378 1.395 . S
C3376 C3379 1.403 . S
H3377 C3383 0.930 . S
C3378 H3364 0.930 . S
C3378 C3376 1.395 . S
C3378 C3381 1.403 . S
C3379 C3376 1.403 . S
C3379 C3380 1.524 . S
C3379 C3383 1.400 . S
C3380 H3365 0.960 . S
C3380 H3366 0.960 . S
C3380 H3367 0.960 . S
C3380 C3379 1.524 . S
C3381 C3378 1.403 . S
C3381 C3382 1.392 . S
C3381 C3385 1.495 . S
C3382 C3381 1.392 . S
C3382 C3383 1.385 . S
C3382 C3384 1.478 . S
C3383 H3377 0.930 . S
C3383 C3379 1.400 . S
C3383 C3382 1.385 . S
C3384 C3382 1.478 . S
C3384 C3386 1.327 1_545 S
C3384 C3390 1.383 . S
C3385 C3381 1.495 . S
C3385 H3391 0.966 . S
C3385 H3392 0.961 . S
C3385 H3393 0.960 1_545 S
C3386 C3384 1.327 1_565 S
C3386 C3387 1.400 . S
C3386 H3394 0.982 . S
C3387 C3386 1.400 . S
C3387 C3388 1.383 1_565 S
C3387 H3395 0.929 . S
C3388 C3387 1.383 1_545 S
C3388 C3389 1.377 . S
C3389 H3373 0.930 . S
C3389 C3388 1.377 . S
C3389 C3390 1.379 . S
C3390 H3374 0.931 . S
C3390 C3384 1.383 . S
C3390 C3389 1.379 . S
H3391 C3385 0.966 . S
H3392 C3385 0.961 . S
H3393 C3385 0.960 1_565 S
H3394 C3386 0.982 . S
H3395 C3387 0.929 . S
H3396 C3404 0.929 . S
H3397 C3406 0.930 . S
H3398 C3408 0.930 . S
H3399 C3411 0.929 . S
H3400 C3414 0.930 . S
H3401 C3416 0.960 . S
H3402 C3416 0.960 . S
H3403 C3416 0.960 . S
C3404 H3396 0.929 . S
C3404 C3405 1.377 . S
C3404 C3406 1.384 . S
C3405 C3404 1.377 . S
C3405 C3411 1.390 . S
C3406 H3397 0.930 . S
C3406 C3404 1.384 . S
C3406 C3407 1.372 . S
C3407 C3406 1.372 . S
C3407 C3408 1.400 . S
C3407 C3412 1.490 . S
C3408 H3398 0.930 . S
C3408 C3407 1.400 . S
C3408 C3411 1.386 . S
H3409 C3425 0.930 . S
H3410 C3426 0.931 . S
C3411 H3399 0.929 . S
C3411 C3405 1.390 . S
C3411 C3408 1.386 . S
C3412 C3407 1.490 . S
C3412 C3414 1.395 . S
C3412 C3415 1.403 . S
H3413 C3419 0.930 . S
C3414 H3400 0.930 . S
C3414 C3412 1.395 . S
C3414 C3417 1.403 . S
C3415 C3412 1.403 . S
C3415 C3416 1.524 . S
C3415 C3419 1.400 . S
C3416 H3401 0.960 . S
C3416 H3402 0.960 . S
C3416 H3403 0.960 . S
C3416 C3415 1.524 . S
C3417 C3414 1.403 . S
C3417 C3418 1.392 . S
C3417 C3421 1.495 . S
C3418 C3417 1.392 . S
C3418 C3419 1.385 . S
C3418 C3420 1.478 . S
C3419 H3413 0.930 . S
C3419 C3415 1.400 . S
C3419 C3418 1.385 . S
C3420 C3418 1.478 . S
C3420 C3422 1.381 . S
C3420 C3426 1.383 . S
C3421 C3417 1.495 . S
C3421 H3427 0.959 . S
C3421 H3428 0.961 . S
C3421 H3429 0.960 . S
C3422 C3420 1.381 . S
C3422 C3423 1.394 . S
C3422 H3430 0.930 . S
C3423 C3422 1.394 . S
C3423 C3424 1.383 . S
C3423 H3431 0.929 . S
C3424 C3423 1.383 . S
C3424 C3425 1.377 . S
C3425 H3409 0.930 . S
C3425 C3424 1.377 . S
C3425 C3426 1.379 . S
C3426 H3410 0.931 . S
C3426 C3420 1.383 . S
C3426 C3425 1.379 . S
H3427 C3421 0.959 . S
H3428 C3421 0.961 . S
H3429 C3421 0.960 . S
H3430 C3422 0.930 . S
H3431 C3423 0.929 . S
H3432 C3440 0.929 . S
H3433 C3442 0.930 . S
H3434 C3444 0.930 . S
H3435 C3447 0.929 . S
H3436 C3450 0.930 . S
H3437 C3452 0.960 . S
H3438 C3452 0.960 . S
H3439 C3452 0.960 1_545 S
C3440 H3432 0.929 . S
C3440 C3441 1.377 . S
C3440 C3442 1.384 . S
C3441 C3440 1.377 . S
C3441 C3447 1.390 . S
C3442 H3433 0.930 . S
C3442 C3440 1.384 . S
C3442 C3443 1.372 . S
C3443 C3442 1.372 . S
C3443 C3444 1.400 . S
C3443 C3448 1.490 . S
C3444 H3434 0.930 . S
C3444 C3443 1.400 . S
C3444 C3447 1.386 . S
H3445 C3461 0.930 . S
H3446 C3462 0.931 . S
C3447 H3435 0.929 . S
C3447 C3441 1.390 . S
C3447 C3444 1.386 . S
C3448 C3443 1.490 . S
C3448 C3450 1.395 . S
C3448 C3451 1.403 . S
H3449 C3455 0.930 . S
C3450 H3436 0.930 . S
C3450 C3448 1.395 . S
C3450 C3453 1.403 . S
C3451 C3448 1.403 . S
C3451 C3452 1.524 1_545 S
C3451 C3455 1.400 . S
C3452 H3437 0.960 . S
C3452 H3438 0.960 . S
C3452 H3439 0.960 1_565 S
C3452 C3451 1.524 1_565 S
C3453 C3450 1.403 . S
C3453 C3454 1.392 . S
C3453 C3457 1.495 . S
C3454 C3453 1.392 . S
C3454 C3455 1.385 . S
C3454 C3456 1.478 . S
C3455 H3449 0.930 . S
C3455 C3451 1.400 . S
C3455 C3454 1.385 . S
C3456 C3454 1.478 . S
C3456 C3458 1.381 . S
C3456 C3462 1.383 . S
C3457 C3453 1.495 . S
C3457 H3463 0.959 . S
C3457 H3464 0.961 . S
C3457 H3465 0.960 . S
C3458 C3456 1.381 . S
C3458 C3459 1.394 . S
C3458 H3466 0.930 . S
C3459 C3458 1.394 . S
C3459 C3460 1.383 . S
C3459 H3467 0.929 . S
C3460 C3459 1.383 . S
C3460 C3461 1.377 . S
C3461 H3445 0.930 . S
C3461 C3460 1.377 . S
C3461 C3462 1.379 . S
C3462 H3446 0.931 . S
C3462 C3456 1.383 . S
C3462 C3461 1.379 . S
H3463 C3457 0.959 . S
H3464 C3457 0.961 . S
H3465 C3457 0.960 . S
H3466 C3458 0.930 . S
H3467 C3459 0.929 . S
H3468 C3476 0.929 . S
H3469 C3478 0.930 . S
H3470 C3480 0.930 . S
H3471 C3483 0.929 . S
H3472 C3486 0.930 . S
H3473 C3488 0.960 . S
H3474 C3488 0.960 . S
H3475 C3488 0.960 . S
C3476 H3468 0.929 . S
C3476 C3477 1.377 . S
C3476 C3478 1.384 . S
C3477 C3476 1.377 . S
C3477 C3483 1.390 . S
C3478 H3469 0.930 . S
C3478 C3476 1.384 . S
C3478 C3479 1.372 . S
C3479 C3478 1.372 . S
C3479 C3480 1.400 . S
C3479 C3484 1.490 . S
C3480 H3470 0.930 . S
C3480 C3479 1.400 . S
C3480 C3483 1.386 . S
H3481 C3497 0.930 . S
H3482 C3498 0.931 . S
C3483 H3471 0.929 . S
C3483 C3477 1.390 . S
C3483 C3480 1.386 . S
C3484 C3479 1.490 . S
C3484 C3486 1.395 . S
C3484 C3487 1.403 . S
H3485 C3491 0.930 . S
C3486 H3472 0.930 . S
C3486 C3484 1.395 . S
C3486 C3489 1.403 . S
C3487 C3484 1.403 . S
C3487 C3488 1.524 . S
C3487 C3491 1.400 . S
C3488 H3473 0.960 . S
C3488 H3474 0.960 . S
C3488 H3475 0.960 . S
C3488 C3487 1.524 . S
C3489 C3486 1.403 . S
C3489 C3490 1.392 . S
C3489 C3493 1.495 . S
C3490 C3489 1.392 . S
C3490 C3491 1.385 . S
C3490 C3492 1.478 . S
C3491 H3485 0.930 . S
C3491 C3487 1.400 . S
C3491 C3490 1.385 . S
C3492 C3490 1.478 . S
C3492 C3494 1.381 . S
C3492 C3498 1.383 . S
C3493 C3489 1.495 . S
C3493 H3499 0.959 . S
C3493 H3500 0.961 . S
C3493 H3501 0.960 . S
C3494 C3492 1.381 . S
C3494 C3495 1.394 . S
C3494 H3502 0.930 . S
C3495 C3494 1.394 . S
C3495 C3496 1.383 . S
C3495 H3503 0.929 . S
C3496 C3495 1.383 . S
C3496 C3497 1.377 . S
C3497 H3481 0.930 . S
C3497 C3496 1.377 . S
C3497 C3498 1.379 . S
C3498 H3482 0.931 . S
C3498 C3492 1.383 . S
C3498 C3497 1.379 . S
H3499 C3493 0.959 . S
H3500 C3493 0.961 . S
H3501 C3493 0.960 . S
H3502 C3494 0.930 . S
H3503 C3495 0.929 . S
H3504 C3512 0.929 . S
H3505 C3514 0.930 . S
H3506 C3516 0.930 . S
H3507 C3519 0.929 . S
H3508 C3522 0.930 . S
H3509 C3524 0.960 . S
H3510 C3524 0.960 . S
H3511 C3524 0.960 . S
C3512 H3504 0.929 . S
C3512 C3513 1.377 . S
C3512 C3514 1.384 . S
C3513 C3512 1.377 . S
C3513 C3519 1.390 . S
C3514 H3505 0.930 . S
C3514 C3512 1.384 . S
C3514 C3515 1.372 . S
C3515 C3514 1.372 . S
C3515 C3516 1.400 . S
C3515 C3520 1.490 . S
C3516 H3506 0.930 . S
C3516 C3515 1.400 . S
C3516 C3519 1.386 . S
H3517 C3533 0.930 . S
H3518 C3534 0.931 . S
C3519 H3507 0.929 . S
C3519 C3513 1.390 . S
C3519 C3516 1.386 . S
C3520 C3515 1.490 . S
C3520 C3522 1.395 . S
C3520 C3523 1.403 . S
H3521 C3527 0.930 . S
C3522 H3508 0.930 . S
C3522 C3520 1.395 . S
C3522 C3525 1.403 . S
C3523 C3520 1.403 . S
C3523 C3524 1.524 1_545 S
C3523 C3527 1.400 . S
C3524 H3509 0.960 . S
C3524 H3510 0.960 . S
C3524 H3511 0.960 . S
C3524 C3523 1.524 1_565 S
C3525 C3522 1.403 . S
C3525 C3526 1.392 . S
C3525 C3529 1.495 . S
C3526 C3525 1.392 . S
C3526 C3527 1.385 . S
C3526 C3528 1.478 . S
C3527 H3521 0.930 . S
C3527 C3523 1.400 . S
C3527 C3526 1.385 . S
C3528 C3526 1.478 . S
C3528 C3530 1.381 . S
C3528 C3534 1.383 . S
C3529 C3525 1.495 . S
C3529 H3535 0.959 . S
C3529 H3536 0.961 . S
C3529 H3537 0.960 . S
C3530 C3528 1.381 . S
C3530 C3531 1.394 . S
C3530 H3538 0.930 . S
C3531 C3530 1.394 . S
C3531 C3532 1.383 . S
C3531 H3539 0.929 . S
C3532 C3531 1.383 . S
C3532 C3533 1.377 . S
C3533 H3517 0.930 . S
C3533 C3532 1.377 . S
C3533 C3534 1.379 . S
C3534 H3518 0.931 . S
C3534 C3528 1.383 . S
C3534 C3533 1.379 . S
H3535 C3529 0.959 . S
H3536 C3529 0.961 . S
H3537 C3529 0.960 . S
H3538 C3530 0.930 . S
H3539 C3531 0.929 . S
H3540 C3548 0.929 . S
H3541 C3550 0.930 . S
H3542 C3552 0.930 . S
H3543 C3555 0.929 . S
H3544 C3558 0.930 . S
H3545 C3560 0.960 . S
H3546 C3560 0.960 . S
H3547 C3560 0.960 . S
C3548 H3540 0.929 . S
C3548 C3549 1.377 . S
C3548 C3550 1.384 . S
C3549 C3548 1.377 . S
C3549 C3555 1.390 . S
C3550 H3541 0.930 . S
C3550 C3548 1.384 . S
C3550 C3551 1.372 . S
C3551 C3550 1.372 . S
C3551 C3552 1.400 . S
C3551 C3556 1.490 . S
C3552 H3542 0.930 . S
C3552 C3551 1.400 . S
C3552 C3555 1.386 . S
H3553 C3569 0.930 . S
H3554 C3570 0.931 . S
C3555 H3543 0.929 . S
C3555 C3549 1.390 . S
C3555 C3552 1.386 . S
C3556 C3551 1.490 . S
C3556 C3558 1.395 . S
C3556 C3559 1.403 . S
H3557 C3563 0.930 . S
C3558 H3544 0.930 . S
C3558 C3556 1.395 . S
C3558 C3561 1.403 . S
C3559 C3556 1.403 . S
C3559 C3560 1.524 . S
C3559 C3563 1.400 . S
C3560 H3545 0.960 . S
C3560 H3546 0.960 . S
C3560 H3547 0.960 . S
C3560 C3559 1.524 . S
C3561 C3558 1.403 . S
C3561 C3562 1.392 . S
C3561 C3565 1.495 . S
C3562 C3561 1.392 . S
C3562 C3563 1.385 . S
C3562 C3564 1.478 . S
C3563 H3557 0.930 . S
C3563 C3559 1.400 . S
C3563 C3562 1.385 . S
C3564 C3562 1.478 . S
C3564 C3566 1.381 . S
C3564 C3570 1.383 . S
C3565 C3561 1.495 . S
C3565 H3571 0.959 . S
C3565 H3572 0.961 . S
C3565 H3573 0.960 . S
C3566 C3564 1.381 . S
C3566 C3567 1.394 . S
C3566 H3574 0.930 . S
C3567 C3566 1.394 . S
C3567 C3568 1.383 . S
C3567 H3575 0.929 . S
C3568 C3567 1.383 . S
C3568 C3569 1.377 . S
C3569 H3553 0.930 . S
C3569 C3568 1.377 . S
C3569 C3570 1.379 . S
C3570 H3554 0.931 . S
C3570 C3564 1.383 . S
C3570 C3569 1.379 . S
H3571 C3565 0.959 . S
H3572 C3565 0.961 . S
H3573 C3565 0.960 . S
H3574 C3566 0.930 . S
H3575 C3567 0.929 . S
H3576 C3584 0.929 . S
H3577 C3586 0.930 . S
H3578 C3588 0.930 . S
H3579 C3591 0.929 . S
H3580 C3594 0.930 . S
H3581 C3596 0.960 . S
H3582 C3596 0.960 . S
H3583 C3596 0.960 1_565 S
C3584 H3576 0.929 . S
C3584 C3585 1.377 . S
C3584 C3586 1.384 . S
C3585 C3584 1.377 . S
C3585 C3591 1.390 1_545 S
C3586 H3577 0.930 . S
C3586 C3584 1.384 . S
C3586 C3587 1.372 . S
C3587 C3586 1.372 . S
C3587 C3588 1.400 1_545 S
C3587 C3592 1.490 . S
C3588 H3578 0.930 . S
C3588 C3587 1.400 1_565 S
C3588 C3591 1.386 . S
H3589 C3605 0.930 . S
H3590 C3606 0.931 . S
C3591 H3579 0.929 . S
C3591 C3585 1.390 1_565 S
C3591 C3588 1.386 . S
C3592 C3587 1.490 . S
C3592 C3594 1.395 . S
C3592 C3595 1.403 . S
H3593 C3599 0.930 . S
C3594 H3580 0.930 . S
C3594 C3592 1.395 . S
C3594 C3597 1.403 . S
C3595 C3592 1.403 . S
C3595 C3596 1.524 . S
C3595 C3599 1.400 . S
C3596 H3581 0.960 . S
C3596 H3582 0.960 . S
C3596 H3583 0.960 1_545 S
C3596 C3595 1.524 . S
C3597 C3594 1.403 . S
C3597 C3598 1.392 . S
C3597 C3601 1.495 . S
C3598 C3597 1.392 . S
C3598 C3599 1.385 . S
C3598 C3600 1.478 . S
C3599 H3593 0.930 . S
C3599 C3595 1.400 . S
C3599 C3598 1.385 . S
C3600 C3598 1.478 . S
C3600 C3602 1.381 . S
C3600 C3606 1.383 1_545 S
C3601 C3597 1.495 . S
C3601 H3607 0.959 . S
C3601 H3608 0.961 . S
C3601 H3609 0.960 . S
C3602 C3600 1.381 . S
C3602 C3603 1.394 . S
C3602 H3610 0.930 . S
C3603 C3602 1.394 . S
C3603 C3604 1.383 . S
C3603 H3611 0.929 . S
C3604 C3603 1.383 . S
C3604 C3605 1.377 1_545 S
C3605 H3589 0.930 . S
C3605 C3604 1.377 1_565 S
C3605 C3606 1.379 . S
C3606 H3590 0.931 . S
C3606 C3600 1.383 1_565 S
C3606 C3605 1.379 . S
H3607 C3601 0.959 . S
H3608 C3601 0.961 . S
H3609 C3601 0.960 . S
H3610 C3602 0.930 . S
H3611 C3603 0.929 . S
H3612 C3620 0.929 . S
H3613 C3622 0.930 . S
H3614 C3624 0.930 . S
H3615 C3627 0.929 . S
H3616 C3630 0.930 . S
H3617 C3632 0.960 . S
H3618 C3632 0.960 . S
H3619 C3632 0.960 . S
C3620 H3612 0.929 . S
C3620 C3621 1.377 . S
C3620 C3622 1.384 . S
C3621 C3620 1.377 . S
C3621 C3627 1.390 . S
C3622 H3613 0.930 . S
C3622 C3620 1.384 . S
C3622 C3623 1.372 . S
C3623 C3622 1.372 . S
C3623 C3624 1.400 . S
C3623 C3628 1.490 . S
C3624 H3614 0.930 . S
C3624 C3623 1.400 . S
C3624 C3627 1.386 . S
H3625 C3641 0.930 . S
H3626 C3642 0.931 . S
C3627 H3615 0.929 . S
C3627 C3621 1.390 . S
C3627 C3624 1.386 . S
C3628 C3623 1.490 . S
C3628 C3630 1.395 . S
C3628 C3631 1.403 . S
H3629 C3635 0.930 . S
C3630 H3616 0.930 . S
C3630 C3628 1.395 . S
C3630 C3633 1.403 . S
C3631 C3628 1.403 . S
C3631 C3632 1.524 . S
C3631 C3635 1.400 . S
C3632 H3617 0.960 . S
C3632 H3618 0.960 . S
C3632 H3619 0.960 . S
C3632 C3631 1.524 . S
C3633 C3630 1.403 . S
C3633 C3634 1.392 . S
C3633 C3637 1.495 . S
C3634 C3633 1.392 . S
C3634 C3635 1.385 . S
C3634 C3636 1.478 . S
C3635 H3629 0.930 . S
C3635 C3631 1.400 . S
C3635 C3634 1.385 . S
C3636 C3634 1.478 . S
C3636 C3638 1.381 . S
C3636 C3642 1.383 . S
C3637 C3633 1.495 . S
C3637 H3643 0.959 . S
C3637 H3644 0.961 . S
C3637 H3645 0.960 . S
C3638 C3636 1.381 . S
C3638 C3639 1.394 . S
C3638 H3646 0.930 . S
C3639 C3638 1.394 . S
C3639 C3640 1.383 . S
C3639 H3647 0.929 . S
C3640 C3639 1.383 . S
C3640 C3641 1.377 . S
C3641 H3625 0.930 . S
C3641 C3640 1.377 . S
C3641 C3642 1.379 . S
C3642 H3626 0.931 . S
C3642 C3636 1.383 . S
C3642 C3641 1.379 . S
H3643 C3637 0.959 . S
H3644 C3637 0.961 . S
H3645 C3637 0.960 . S
H3646 C3638 0.930 . S
H3647 C3639 0.929 . S
H3648 C3656 0.929 . S
H3649 C3658 0.930 . S
H3650 C3660 0.930 . S
H3651 C3663 0.929 . S
H3652 C3666 0.930 . S
H3653 C3668 0.960 . S
H3654 C3668 0.960 . S
H3655 C3668 0.960 . S
C3656 H3648 0.929 . S
C3656 C3657 1.377 . S
C3656 C3658 1.384 . S
C3657 C3656 1.377 . S
C3657 C3663 1.390 . S
C3658 H3649 0.930 . S
C3658 C3656 1.384 . S
C3658 C3659 1.372 . S
C3659 C3658 1.372 . S
C3659 C3660 1.400 . S
C3659 C3664 1.490 . S
C3660 H3650 0.930 . S
C3660 C3659 1.400 . S
C3660 C3663 1.386 . S
H3661 C3677 0.930 1_556 S
H3662 C3678 0.931 1_556 S
C3663 H3651 0.929 . S
C3663 C3657 1.390 . S
C3663 C3660 1.386 . S
C3664 C3659 1.490 . S
C3664 C3666 1.395 . S
C3664 C3667 1.403 . S
H3665 C3671 0.930 . S
C3666 H3652 0.930 . S
C3666 C3664 1.395 . S
C3666 C3669 1.403 . S
C3667 C3664 1.403 . S
C3667 C3668 1.524 . S
C3667 C3671 1.400 . S
C3668 H3653 0.960 . S
C3668 H3654 0.960 . S
C3668 H3655 0.960 . S
C3668 C3667 1.524 . S
C3669 C3666 1.403 . S
C3669 C3670 1.392 . S
C3669 C3673 1.495 . S
C3670 C3669 1.392 . S
C3670 C3671 1.385 . S
C3670 C3672 1.478 . S
C3671 H3665 0.930 . S
C3671 C3667 1.400 . S
C3671 C3670 1.385 . S
C3672 C3670 1.478 . S
C3672 C3674 1.381 . S
C3672 C3678 1.383 . S
C3673 C3669 1.495 . S
C3673 H3679 0.959 . S
C3673 H3680 0.961 . S
C3673 H3681 0.960 . S
C3674 C3672 1.381 . S
C3674 C3675 1.394 . S
C3674 H3682 0.930 . S
C3675 C3674 1.394 . S
C3675 C3676 1.383 . S
C3675 H3683 0.929 . S
C3676 C3675 1.383 . S
C3676 C3677 1.377 . S
C3677 H3661 0.930 1_554 S
C3677 C3676 1.377 . S
C3677 C3678 1.379 . S
C3678 H3662 0.931 1_554 S
C3678 C3672 1.383 . S
C3678 C3677 1.379 . S
H3679 C3673 0.959 . S
H3680 C3673 0.961 . S
H3681 C3673 0.960 . S
H3682 C3674 0.930 . S
H3683 C3675 0.929 . S
H3684 C3692 0.929 . S
H3685 C3694 0.930 . S
H3686 C3696 0.930 . S
H3687 C3699 0.929 . S
H3688 C3702 0.930 . S
H3689 C3704 0.960 . S
H3690 C3704 0.960 . S
H3691 C3704 0.960 . S
C3692 H3684 0.929 . S
C3692 C3693 1.377 . S
C3692 C3694 1.384 . S
C3693 C3692 1.377 . S
C3693 C3699 1.390 . S
C3694 H3685 0.930 . S
C3694 C3692 1.384 . S
C3694 C3695 1.372 . S
C3695 C3694 1.372 . S
C3695 C3696 1.400 . S
C3695 C3700 1.490 . S
C3696 H3686 0.930 . S
C3696 C3695 1.400 . S
C3696 C3699 1.386 . S
H3697 C3713 0.930 . S
H3698 C3714 0.931 . S
C3699 H3687 0.929 . S
C3699 C3693 1.390 . S
C3699 C3696 1.386 . S
C3700 C3695 1.490 . S
C3700 C3702 1.395 . S
C3700 C3703 1.403 . S
H3701 C3707 0.930 . S
C3702 H3688 0.930 . S
C3702 C3700 1.395 . S
C3702 C3705 1.403 . S
C3703 C3700 1.403 . S
C3703 C3704 1.524 . S
C3703 C3707 1.400 . S
C3704 H3689 0.960 . S
C3704 H3690 0.960 . S
C3704 H3691 0.960 . S
C3704 C3703 1.524 . S
C3705 C3702 1.403 . S
C3705 C3706 1.392 . S
C3705 C3709 1.495 . S
C3706 C3705 1.392 . S
C3706 C3707 1.385 . S
C3706 C3708 1.478 . S
C3707 H3701 0.930 . S
C3707 C3703 1.400 . S
C3707 C3706 1.385 . S
C3708 C3706 1.478 . S
C3708 C3710 1.381 . S
C3708 C3714 1.383 . S
C3709 C3705 1.495 . S
C3709 H3715 0.959 . S
C3709 H3716 0.961 . S
C3709 H3717 0.960 . S
C3710 C3708 1.381 . S
C3710 C3711 1.394 . S
C3710 H3718 0.930 . S
C3711 C3710 1.394 . S
C3711 C3712 1.383 . S
C3711 H3719 0.929 . S
C3712 C3711 1.383 . S
C3712 C3713 1.377 . S
C3713 H3697 0.930 . S
C3713 C3712 1.377 . S
C3713 C3714 1.379 . S
C3714 H3698 0.931 . S
C3714 C3708 1.383 . S
C3714 C3713 1.379 . S
H3715 C3709 0.959 . S
H3716 C3709 0.961 . S
H3717 C3709 0.960 . S
H3718 C3710 0.930 . S
H3719 C3711 0.929 . S
H3720 C3728 0.929 . S
H3721 C3730 0.930 . S
H3722 C3732 0.930 . S
H3723 C3735 0.929 . S
H3724 C3738 0.930 . S
H3725 C3740 0.960 . S
H3726 C3740 0.960 . S
H3727 C3740 0.960 . S
C3728 H3720 0.929 . S
C3728 C3729 1.377 . S
C3728 C3730 1.384 . S
C3729 C3728 1.377 . S
C3729 C3735 1.390 . S
C3730 H3721 0.930 . S
C3730 C3728 1.384 . S
C3730 C3731 1.372 . S
C3731 C3730 1.372 . S
C3731 C3732 1.400 . S
C3731 C3736 1.490 . S
C3732 H3722 0.930 . S
C3732 C3731 1.400 . S
C3732 C3735 1.386 . S
H3733 C3749 0.930 . S
H3734 C3750 0.931 . S
C3735 H3723 0.929 . S
C3735 C3729 1.390 . S
C3735 C3732 1.386 . S
C3736 C3731 1.490 . S
C3736 C3738 1.395 . S
C3736 C3739 1.403 . S
H3737 C3743 0.930 . S
C3738 H3724 0.930 . S
C3738 C3736 1.395 . S
C3738 C3741 1.403 . S
C3739 C3736 1.403 . S
C3739 C3740 1.524 . S
C3739 C3743 1.400 . S
C3740 H3725 0.960 . S
C3740 H3726 0.960 . S
C3740 H3727 0.960 . S
C3740 C3739 1.524 . S
C3741 C3738 1.403 . S
C3741 C3742 1.392 . S
C3741 C3745 1.495 . S
C3742 C3741 1.392 . S
C3742 C3743 1.385 . S
C3742 C3744 1.478 . S
C3743 H3737 0.930 . S
C3743 C3739 1.400 . S
C3743 C3742 1.385 . S
C3744 C3742 1.478 . S
C3744 C3746 1.381 . S
C3744 C3750 1.383 . S
C3745 C3741 1.495 . S
C3745 H3751 0.959 . S
C3745 H3752 0.961 . S
C3745 H3753 0.960 . S
C3746 C3744 1.381 . S
C3746 C3747 1.394 . S
C3746 H3754 0.930 . S
C3747 C3746 1.394 . S
C3747 C3748 1.383 . S
C3747 H3755 0.929 . S
C3748 C3747 1.383 . S
C3748 C3749 1.377 . S
C3749 H3733 0.930 . S
C3749 C3748 1.377 . S
C3749 C3750 1.379 . S
C3750 H3734 0.931 . S
C3750 C3744 1.383 . S
C3750 C3749 1.379 . S
H3751 C3745 0.959 . S
H3752 C3745 0.961 . S
H3753 C3745 0.960 . S
H3754 C3746 0.930 . S
H3755 C3747 0.929 . S
H3756 C3764 0.929 . S
H3757 C3766 0.930 . S
H3758 C3768 0.930 . S
H3759 C3771 0.929 . S
H3760 C3774 0.930 . S
H3761 C3776 0.960 . S
H3762 C3776 0.960 . S
H3763 C3776 0.960 . S
C3764 H3756 0.929 . S
C3764 C3765 1.377 . S
C3764 C3766 1.384 . S
C3765 C3764 1.377 . S
C3765 C3771 1.390 . S
C3766 H3757 0.930 . S
C3766 C3764 1.384 . S
C3766 C3767 1.372 . S
C3767 C3766 1.372 . S
C3767 C3768 1.400 . S
C3767 C3772 1.490 . S
C3768 H3758 0.930 . S
C3768 C3767 1.400 . S
C3768 C3771 1.386 . S
H3769 C3785 0.930 . S
H3770 C3786 0.931 . S
C3771 H3759 0.929 . S
C3771 C3765 1.390 . S
C3771 C3768 1.386 . S
C3772 C3767 1.490 . S
C3772 C3774 1.395 . S
C3772 C3775 1.403 . S
H3773 C3779 0.930 . S
C3774 H3760 0.930 . S
C3774 C3772 1.395 . S
C3774 C3777 1.403 . S
C3775 C3772 1.403 . S
C3775 C3776 1.524 . S
C3775 C3779 1.400 . S
C3776 H3761 0.960 . S
C3776 H3762 0.960 . S
C3776 H3763 0.960 . S
C3776 C3775 1.524 . S
C3777 C3774 1.403 . S
C3777 C3778 1.392 . S
C3777 C3781 1.495 . S
C3778 C3777 1.392 . S
C3778 C3779 1.385 . S
C3778 C3780 1.478 . S
C3779 H3773 0.930 . S
C3779 C3775 1.400 . S
C3779 C3778 1.385 . S
C3780 C3778 1.478 . S
C3780 C3782 1.381 . S
C3780 C3786 1.383 . S
C3781 C3777 1.495 . S
C3781 H3787 0.959 . S
C3781 H3788 0.961 . S
C3781 H3789 0.960 . S
C3782 C3780 1.381 . S
C3782 C3783 1.394 . S
C3782 H3790 0.930 . S
C3783 C3782 1.394 . S
C3783 C3784 1.383 . S
C3783 H3791 0.929 . S
C3784 C3783 1.383 . S
C3784 C3785 1.377 . S
C3785 H3769 0.930 . S
C3785 C3784 1.377 . S
C3785 C3786 1.379 . S
C3786 H3770 0.931 . S
C3786 C3780 1.383 . S
C3786 C3785 1.379 . S
H3787 C3781 0.959 . S
H3788 C3781 0.961 . S
H3789 C3781 0.960 . S
H3790 C3782 0.930 . S
H3791 C3783 0.929 . S
H3792 C3800 0.901 1_545 S
H3793 C3802 0.930 . S
H3794 C3804 0.930 . S
H3795 C3807 0.929 . S
H3796 C3810 0.930 . S
H3797 C3812 0.960 . S
H3798 C3812 0.960 . S
H3799 C3812 0.960 . S
C3800 H3792 0.901 1_565 S
C3800 C3801 1.364 1_565 S
C3800 C3802 1.427 . S
C3801 C3800 1.364 1_545 S
C3801 C3807 1.390 1_545 S
C3802 H3793 0.930 . S
C3802 C3800 1.427 . S
C3802 C3803 1.372 . S
C3803 C3802 1.372 . S
C3803 C3804 1.400 . S
C3803 C3808 1.490 . S
C3804 H3794 0.930 . S
C3804 C3803 1.400 . S
C3804 C3807 1.386 . S
H3805 C3821 0.930 . S
H3806 C3822 0.931 . S
C3807 H3795 0.929 . S
C3807 C3801 1.390 1_565 S
C3807 C3804 1.386 . S
C3808 C3803 1.490 . S
C3808 C3810 1.395 . S
C3808 C3811 1.403 . S
H3809 C3815 0.930 . S
C3810 H3796 0.930 . S
C3810 C3808 1.395 . S
C3810 C3813 1.403 . S
C3811 C3808 1.403 . S
C3811 C3812 1.524 . S
C3811 C3815 1.400 . S
C3812 H3797 0.960 . S
C3812 H3798 0.960 . S
C3812 H3799 0.960 . S
C3812 C3811 1.524 . S
C3813 C3810 1.403 . S
C3813 C3814 1.392 . S
C3813 C3817 1.495 . S
C3814 C3813 1.392 . S
C3814 C3815 1.385 . S
C3814 C3816 1.478 . S
C3815 H3809 0.930 . S
C3815 C3811 1.400 . S
C3815 C3814 1.385 . S
C3816 C3814 1.478 . S
C3816 C3818 1.381 . S
C3816 C3822 1.383 . S
C3817 C3813 1.495 . S
C3817 H3823 0.959 . S
C3817 H3824 0.961 . S
C3817 H3825 0.960 . S
C3818 C3816 1.381 . S
C3818 C3819 1.394 . S
C3818 H3826 0.930 . S
C3819 C3818 1.394 . S
C3819 C3820 1.383 . S
C3819 H3827 0.929 . S
C3820 C3819 1.383 . S
C3820 C3821 1.377 . S
C3821 H3805 0.930 . S
C3821 C3820 1.377 . S
C3821 C3822 1.379 . S
C3822 H3806 0.931 . S
C3822 C3816 1.383 . S
C3822 C3821 1.379 . S
H3823 C3817 0.959 . S
H3824 C3817 0.961 . S
H3825 C3817 0.960 . S
H3826 C3818 0.930 . S
H3827 C3819 0.929 . S
H3828 C3836 0.929 . S
H3829 C3838 0.930 . S
H3830 C3840 0.930 . S
H3831 C3843 0.929 . S
H3832 C3846 0.930 . S
H3833 C3848 0.960 . S
H3834 C3848 0.960 . S
H3835 C3848 0.960 . S
C3836 H3828 0.929 . S
C3836 C3837 1.377 . S
C3836 C3838 1.384 . S
C3837 C3836 1.377 . S
C3837 C3843 1.390 . S
C3838 H3829 0.930 . S
C3838 C3836 1.384 . S
C3838 C3839 1.372 . S
C3839 C3838 1.372 . S
C3839 C3840 1.400 . S
C3839 C3844 1.490 . S
C3840 H3830 0.930 . S
C3840 C3839 1.400 . S
C3840 C3843 1.386 . S
H3841 C3857 0.930 . S
H3842 C3858 0.931 . S
C3843 H3831 0.929 . S
C3843 C3837 1.390 . S
C3843 C3840 1.386 . S
C3844 C3839 1.490 . S
C3844 C3846 1.395 . S
C3844 C3847 1.403 . S
H3845 C3851 0.930 . S
C3846 H3832 0.930 . S
C3846 C3844 1.395 . S
C3846 C3849 1.403 . S
C3847 C3844 1.403 . S
C3847 C3848 1.524 . S
C3847 C3851 1.400 . S
C3848 H3833 0.960 . S
C3848 H3834 0.960 . S
C3848 H3835 0.960 . S
C3848 C3847 1.524 . S
C3849 C3846 1.403 . S
C3849 C3850 1.392 . S
C3849 C3853 1.495 . S
C3850 C3849 1.392 . S
C3850 C3851 1.385 . S
C3850 C3852 1.478 . S
C3851 H3845 0.930 . S
C3851 C3847 1.400 . S
C3851 C3850 1.385 . S
C3852 C3850 1.478 . S
C3852 C3854 1.381 . S
C3852 C3858 1.383 . S
C3853 C3849 1.495 . S
C3853 H3859 0.959 . S
C3853 H3860 0.961 . S
C3853 H3861 0.960 . S
C3854 C3852 1.381 . S
C3854 C3855 1.394 . S
C3854 H3862 0.930 . S
C3855 C3854 1.394 . S
C3855 C3856 1.383 . S
C3855 H3863 0.929 . S
C3856 C3855 1.383 . S
C3856 C3857 1.377 . S
C3857 H3841 0.930 . S
C3857 C3856 1.377 . S
C3857 C3858 1.379 . S
C3858 H3842 0.931 . S
C3858 C3852 1.383 . S
C3858 C3857 1.379 . S
H3859 C3853 0.959 . S
H3860 C3853 0.961 . S
H3861 C3853 0.960 . S
H3862 C3854 0.930 . S
H3863 C3855 0.929 . S
H3864 C3872 0.929 . S
H3865 C3874 0.930 . S
H3866 C3876 0.930 . S
H3867 C3879 0.929 . S
H3868 C3882 0.930 . S
H3869 C3884 0.960 . S
H3870 C3884 0.960 . S
H3871 C3884 0.960 . S
C3872 H3864 0.929 . S
C3872 C3873 1.377 . S
C3872 C3874 1.384 . S
C3873 C3872 1.377 . S
C3873 C3879 1.390 . S
C3874 H3865 0.930 . S
C3874 C3872 1.384 . S
C3874 C3875 1.372 . S
C3875 C3874 1.372 . S
C3875 C3876 1.400 . S
C3875 C3880 1.490 . S
C3876 H3866 0.930 . S
C3876 C3875 1.400 . S
C3876 C3879 1.386 . S
H3877 C3893 0.930 . S
H3878 C3894 0.931 . S
C3879 H3867 0.929 . S
C3879 C3873 1.390 . S
C3879 C3876 1.386 . S
C3880 C3875 1.490 . S
C3880 C3882 1.395 . S
C3880 C3883 1.403 . S
H3881 C3887 0.930 . S
C3882 H3868 0.930 . S
C3882 C3880 1.395 . S
C3882 C3885 1.403 . S
C3883 C3880 1.403 . S
C3883 C3884 1.524 . S
C3883 C3887 1.400 . S
C3884 H3869 0.960 . S
C3884 H3870 0.960 . S
C3884 H3871 0.960 . S
C3884 C3883 1.524 . S
C3885 C3882 1.403 . S
C3885 C3886 1.392 . S
C3885 C3889 1.495 . S
C3886 C3885 1.392 . S
C3886 C3887 1.385 . S
C3886 C3888 1.478 . S
C3887 H3881 0.930 . S
C3887 C3883 1.400 . S
C3887 C3886 1.385 . S
C3888 C3886 1.478 . S
C3888 C3890 1.381 . S
C3888 C3894 1.383 . S
C3889 C3885 1.495 . S
C3889 H3895 0.959 . S
C3889 H3896 0.961 . S
C3889 H3897 0.960 . S
C3890 C3888 1.381 . S
C3890 C3891 1.394 . S
C3890 H3898 0.930 . S
C3891 C3890 1.394 . S
C3891 C3892 1.383 . S
C3891 H3899 0.929 . S
C3892 C3891 1.383 . S
C3892 C3893 1.377 . S
C3893 H3877 0.930 . S
C3893 C3892 1.377 . S
C3893 C3894 1.379 . S
C3894 H3878 0.931 . S
C3894 C3888 1.383 . S
C3894 C3893 1.379 . S
H3895 C3889 0.959 . S
H3896 C3889 0.961 . S
H3897 C3889 0.960 . S
H3898 C3890 0.930 . S
H3899 C3891 0.929 . S
H3900 C3908 0.929 . S
H3901 C3910 0.930 . S
H3902 C3912 0.930 . S
H3903 C3915 0.929 . S
H3904 C3918 0.930 . S
H3905 C3920 0.960 . S
H3906 C3920 0.960 . S
H3907 C3920 0.960 . S
C3908 H3900 0.929 . S
C3908 C3909 1.377 . S
C3908 C3910 1.384 . S
C3909 C3908 1.377 . S
C3909 C3915 1.390 . S
C3910 H3901 0.930 . S
C3910 C3908 1.384 . S
C3910 C3911 1.372 . S
C3911 C3910 1.372 . S
C3911 C3912 1.400 . S
C3911 C3916 1.490 . S
C3912 H3902 0.930 . S
C3912 C3911 1.400 . S
C3912 C3915 1.386 . S
H3913 C3929 0.930 . S
H3914 C3930 0.931 . S
C3915 H3903 0.929 . S
C3915 C3909 1.390 . S
C3915 C3912 1.386 . S
C3916 C3911 1.490 . S
C3916 C3918 1.395 . S
C3916 C3919 1.403 . S
H3917 C3923 0.930 . S
C3918 H3904 0.930 . S
C3918 C3916 1.395 . S
C3918 C3921 1.403 . S
C3919 C3916 1.403 . S
C3919 C3920 1.524 . S
C3919 C3923 1.400 . S
C3920 H3905 0.960 . S
C3920 H3906 0.960 . S
C3920 H3907 0.960 . S
C3920 C3919 1.524 . S
C3921 C3918 1.403 . S
C3921 C3922 1.392 . S
C3921 C3925 1.495 . S
C3922 C3921 1.392 . S
C3922 C3923 1.385 . S
C3922 C3924 1.478 . S
C3923 H3917 0.930 . S
C3923 C3919 1.400 . S
C3923 C3922 1.385 . S
C3924 C3922 1.478 . S
C3924 C3926 1.381 . S
C3924 C3930 1.383 . S
C3925 C3921 1.495 . S
C3925 H3931 0.959 . S
C3925 H3932 0.961 . S
C3925 H3933 0.960 . S
C3926 C3924 1.381 . S
C3926 C3927 1.394 . S
C3926 H3934 0.930 . S
C3927 C3926 1.394 . S
C3927 C3928 1.383 . S
C3927 H3935 0.929 . S
C3928 C3927 1.383 . S
C3928 C3929 1.377 . S
C3929 H3913 0.930 . S
C3929 C3928 1.377 . S
C3929 C3930 1.379 . S
C3930 H3914 0.931 . S
C3930 C3924 1.383 . S
C3930 C3929 1.379 . S
H3931 C3925 0.959 . S
H3932 C3925 0.961 . S
H3933 C3925 0.960 . S
H3934 C3926 0.930 . S
H3935 C3927 0.929 . S
H3936 C3944 0.929 . S
H3937 C3946 0.930 . S
H3938 C3948 0.930 . S
H3939 C3951 0.929 . S
H3940 C3954 0.930 . S
H3941 C3956 0.960 . S
H3942 C3956 0.960 . S
H3943 C3956 0.960 . S
C3944 H3936 0.929 . S
C3944 C3945 1.377 . S
C3944 C3946 1.384 . S
C3945 C3944 1.377 . S
C3945 C3951 1.390 . S
C3946 H3937 0.930 . S
C3946 C3944 1.384 . S
C3946 C3947 1.372 . S
C3947 C3946 1.372 . S
C3947 C3948 1.400 . S
C3947 C3952 1.490 . S
C3948 H3938 0.930 . S
C3948 C3947 1.400 . S
C3948 C3951 1.386 . S
H3949 C3965 0.930 . S
H3950 C3966 0.931 . S
C3951 H3939 0.929 . S
C3951 C3945 1.390 . S
C3951 C3948 1.386 . S
C3952 C3947 1.490 . S
C3952 C3954 1.395 . S
C3952 C3955 1.403 . S
H3953 C3959 0.930 . S
C3954 H3940 0.930 . S
C3954 C3952 1.395 . S
C3954 C3957 1.403 . S
C3955 C3952 1.403 . S
C3955 C3956 1.524 . S
C3955 C3959 1.400 . S
C3956 H3941 0.960 . S
C3956 H3942 0.960 . S
C3956 H3943 0.960 . S
C3956 C3955 1.524 . S
C3957 C3954 1.403 . S
C3957 C3958 1.392 . S
C3957 C3961 1.495 . S
C3958 C3957 1.392 . S
C3958 C3959 1.385 . S
C3958 C3960 1.478 . S
C3959 H3953 0.930 . S
C3959 C3955 1.400 . S
C3959 C3958 1.385 . S
C3960 C3958 1.478 . S
C3960 C3962 1.381 . S
C3960 C3966 1.383 . S
C3961 C3957 1.495 . S
C3961 H3967 0.959 . S
C3961 H3968 0.961 . S
C3961 H3969 0.960 . S
C3962 C3960 1.381 . S
C3962 C3963 1.394 . S
C3962 H3970 0.930 . S
C3963 C3962 1.394 . S
C3963 C3964 1.383 . S
C3963 H3971 0.929 . S
C3964 C3963 1.383 . S
C3964 C3965 1.377 . S
C3965 H3949 0.930 . S
C3965 C3964 1.377 . S
C3965 C3966 1.379 . S
C3966 H3950 0.931 . S
C3966 C3960 1.383 . S
C3966 C3965 1.379 . S
H3967 C3961 0.959 . S
H3968 C3961 0.961 . S
H3969 C3961 0.960 . S
H3970 C3962 0.930 . S
H3971 C3963 0.929 . S
H3972 C3980 0.929 . S
H3973 C3982 0.930 . S
H3974 C3984 0.930 . S
H3975 C3987 0.929 . S
H3976 C3990 0.930 . S
H3977 C3992 0.960 . S
H3978 C3992 0.960 . S
H3979 C3992 0.960 . S
C3980 H3972 0.929 . S
C3980 C3981 1.377 . S
C3980 C3982 1.384 . S
C3981 C3980 1.377 . S
C3981 C3987 1.390 . S
C3982 H3973 0.930 . S
C3982 C3980 1.384 . S
C3982 C3983 1.372 . S
C3983 C3982 1.372 . S
C3983 C3984 1.400 . S
C3983 C3988 1.490 . S
C3984 H3974 0.930 . S
C3984 C3983 1.400 . S
C3984 C3987 1.386 . S
H3985 C4001 0.930 . S
H3986 C4002 0.931 . S
C3987 H3975 0.929 . S
C3987 C3981 1.390 . S
C3987 C3984 1.386 . S
C3988 C3983 1.490 . S
C3988 C3990 1.395 . S
C3988 C3991 1.403 . S
H3989 C3995 0.930 . S
C3990 H3976 0.930 . S
C3990 C3988 1.395 . S
C3990 C3993 1.403 . S
C3991 C3988 1.403 . S
C3991 C3992 1.524 . S
C3991 C3995 1.400 . S
C3992 H3977 0.960 . S
C3992 H3978 0.960 . S
C3992 H3979 0.960 . S
C3992 C3991 1.524 . S
C3993 C3990 1.403 . S
C3993 C3994 1.392 . S
C3993 C3997 1.495 . S
C3994 C3993 1.392 . S
C3994 C3995 1.385 . S
C3994 C3996 1.478 . S
C3995 H3989 0.930 . S
C3995 C3991 1.400 . S
C3995 C3994 1.385 . S
C3996 C3994 1.478 . S
C3996 C3998 1.381 . S
C3996 C4002 1.383 . S
C3997 C3993 1.495 . S
C3997 H4003 0.959 . S
C3997 H4004 0.961 . S
C3997 H4005 0.960 . S
C3998 C3996 1.381 . S
C3998 C3999 1.394 . S
C3998 H4006 0.930 . S
C3999 C3998 1.394 . S
C3999 C4000 1.383 . S
C3999 H4007 0.929 . S
C4000 C3999 1.383 . S
C4000 C4001 1.377 . S
C4001 H3985 0.930 . S
C4001 C4000 1.377 . S
C4001 C4002 1.379 . S
C4002 H3986 0.931 . S
C4002 C3996 1.383 . S
C4002 C4001 1.379 . S
H4003 C3997 0.959 . S
H4004 C3997 0.961 . S
H4005 C3997 0.960 . S
H4006 C3998 0.930 . S
H4007 C3999 0.929 . S
H4008 C4016 0.929 . S
H4009 C4018 0.930 . S
H4010 C4020 0.930 . S
H4011 C4023 0.929 . S
H4012 C4026 0.930 1_554 S
H4013 C4028 0.960 . S
H4014 C4028 0.976 . S
H4015 C4028 0.960 . S
C4016 H4008 0.929 . S
C4016 C4017 1.377 1_655 S
C4016 C4018 1.384 . S
C4017 C4016 1.377 1_455 S
C4017 C4023 1.390 . S
C4018 H4009 0.930 . S
C4018 C4016 1.384 . S
C4018 C4019 1.372 1_655 S
C4019 C4018 1.372 1_455 S
C4019 C4020 1.400 . S
C4019 C4024 1.490 . S
C4020 H4010 0.930 . S
C4020 C4019 1.400 . S
C4020 C4023 1.386 . S
H4021 C4037 0.930 . S
H4022 C4038 0.931 . S
C4023 H4011 0.929 . S
C4023 C4017 1.390 . S
C4023 C4020 1.386 . S
C4024 C4019 1.490 . S
C4024 C4026 1.395 . S
C4024 C4027 1.403 . S
H4025 C4031 0.930 . S
C4026 H4012 0.930 1_556 S
C4026 C4024 1.395 . S
C4026 C4029 1.403 1_556 S
C4027 C4024 1.403 . S
C4027 C4028 1.524 . S
C4027 C4031 1.400 . S
C4028 H4013 0.960 . S
C4028 H4014 0.976 . S
C4028 H4015 0.960 . S
C4028 C4027 1.524 . S
C4029 C4026 1.403 1_554 S
C4029 C4030 1.392 1_554 S
C4029 C4033 1.495 . S
C4030 C4029 1.392 1_556 S
C4030 C4031 1.385 . S
C4030 C4032 1.487 . S
C4031 H4025 0.930 . S
C4031 C4027 1.400 . S
C4031 C4030 1.385 . S
C4032 C4030 1.487 . S
C4032 C4034 1.365 1_556 S
C4032 C4038 1.393 . S
C4033 C4029 1.495 . S
C4033 H4039 0.959 . S
C4033 H4040 0.961 . S
C4033 H4041 0.960 . S
C4034 C4032 1.365 1_554 S
C4034 C4035 1.394 . S
C4034 H4042 0.930 1_455 S
C4035 C4034 1.394 . S
C4035 C4036 1.383 . S
C4035 H4043 0.929 1_455 S
C4036 C4035 1.383 . S
C4036 C4037 1.377 . S
C4037 H4021 0.930 . S
C4037 C4036 1.377 . S
C4037 C4038 1.379 1_554 S
C4038 H4022 0.931 . S
C4038 C4032 1.393 . S
C4038 C4037 1.379 1_556 S
H4039 C4033 0.959 . S
H4040 C4033 0.961 . S
H4041 C4033 0.960 . S
H4042 C4034 0.930 1_655 S
H4043 C4035 0.929 1_655 S
H4044 C4052 0.929 . S
H4045 C4054 0.930 . S
H4046 C4056 0.930 . S
H4047 C4059 0.929 . S
H4048 C4062 0.930 . S
H4049 C4064 0.960 . S
H4050 C4064 0.960 . S
H4051 C4064 0.960 . S
C4052 H4044 0.929 . S
C4052 C4053 1.377 . S
C4052 C4054 1.384 . S
C4053 C4052 1.377 . S
C4053 C4059 1.390 . S
C4054 H4045 0.930 . S
C4054 C4052 1.384 . S
C4054 C4055 1.372 . S
C4055 C4054 1.372 . S
C4055 C4056 1.400 . S
C4055 C4060 1.490 . S
C4056 H4046 0.930 . S
C4056 C4055 1.400 . S
C4056 C4059 1.386 . S
H4057 C4073 0.930 . S
H4058 C4074 0.931 . S
C4059 H4047 0.929 . S
C4059 C4053 1.390 . S
C4059 C4056 1.386 . S
C4060 C4055 1.490 . S
C4060 C4062 1.395 . S
C4060 C4063 1.403 . S
H4061 C4067 0.930 . S
C4062 H4048 0.930 . S
C4062 C4060 1.395 . S
C4062 C4065 1.403 . S
C4063 C4060 1.403 . S
C4063 C4064 1.524 . S
C4063 C4067 1.400 . S
C4064 H4049 0.960 . S
C4064 H4050 0.960 . S
C4064 H4051 0.960 . S
C4064 C4063 1.524 . S
C4065 C4062 1.403 . S
C4065 C4066 1.392 . S
C4065 C4069 1.495 . S
C4066 C4065 1.392 . S
C4066 C4067 1.385 . S
C4066 C4068 1.478 . S
C4067 H4061 0.930 . S
C4067 C4063 1.400 . S
C4067 C4066 1.385 . S
C4068 C4066 1.478 . S
C4068 C4070 1.381 . S
C4068 C4074 1.383 . S
C4069 C4065 1.495 . S
C4069 H4075 0.959 . S
C4069 H4076 0.961 . S
C4069 H4077 0.960 . S
C4070 C4068 1.381 . S
C4070 C4071 1.394 . S
C4070 H4078 0.930 . S
C4071 C4070 1.394 . S
C4071 C4072 1.383 . S
C4071 H4079 0.929 . S
C4072 C4071 1.383 . S
C4072 C4073 1.377 . S
C4073 H4057 0.930 . S
C4073 C4072 1.377 . S
C4073 C4074 1.379 . S
C4074 H4058 0.931 . S
C4074 C4068 1.383 . S
C4074 C4073 1.379 . S
H4075 C4069 0.959 . S
H4076 C4069 0.961 . S
H4077 C4069 0.960 . S
H4078 C4070 0.930 . S
H4079 C4071 0.929 . S
H4080 C4088 0.929 . S
H4081 C4090 0.930 . S
H4082 C4092 0.930 . S
H4083 C4095 0.929 . S
H4084 C4098 0.930 . S
H4085 C4100 0.960 . S
H4086 C4100 0.960 . S
H4087 C4100 0.960 . S
C4088 H4080 0.929 . S
C4088 C4089 1.377 . S
C4088 C4090 1.384 . S
C4089 C4088 1.377 . S
C4089 C4095 1.390 . S
C4090 H4081 0.930 . S
C4090 C4088 1.384 . S
C4090 C4091 1.372 . S
C4091 C4090 1.372 . S
C4091 C4092 1.400 . S
C4091 C4096 1.490 . S
C4092 H4082 0.930 . S
C4092 C4091 1.400 . S
C4092 C4095 1.386 . S
H4093 C4109 0.930 . S
H4094 C4110 0.931 . S
C4095 H4083 0.929 . S
C4095 C4089 1.390 . S
C4095 C4092 1.386 . S
C4096 C4091 1.490 . S
C4096 C4098 1.395 . S
C4096 C4099 1.403 . S
H4097 C4103 0.930 . S
C4098 H4084 0.930 . S
C4098 C4096 1.395 . S
C4098 C4101 1.403 . S
C4099 C4096 1.403 . S
C4099 C4100 1.524 . S
C4099 C4103 1.400 . S
C4100 H4085 0.960 . S
C4100 H4086 0.960 . S
C4100 H4087 0.960 . S
C4100 C4099 1.524 . S
C4101 C4098 1.403 . S
C4101 C4102 1.392 . S
C4101 C4105 1.495 . S
C4102 C4101 1.392 . S
C4102 C4103 1.385 . S
C4102 C4104 1.478 . S
C4103 H4097 0.930 . S
C4103 C4099 1.400 . S
C4103 C4102 1.385 . S
C4104 C4102 1.478 . S
C4104 C4106 1.381 . S
C4104 C4110 1.383 . S
C4105 C4101 1.495 . S
C4105 H4111 0.959 . S
C4105 H4112 0.961 . S
C4105 H4113 0.960 . S
C4106 C4104 1.381 . S
C4106 C4107 1.394 . S
C4106 H4114 0.930 . S
C4107 C4106 1.394 . S
C4107 C4108 1.383 . S
C4107 H4115 0.929 . S
C4108 C4107 1.383 . S
C4108 C4109 1.377 . S
C4109 H4093 0.930 . S
C4109 C4108 1.377 . S
C4109 C4110 1.379 . S
C4110 H4094 0.931 . S
C4110 C4104 1.383 . S
C4110 C4109 1.379 . S
H4111 C4105 0.959 . S
H4112 C4105 0.961 . S
H4113 C4105 0.960 . S
H4114 C4106 0.930 . S
H4115 C4107 0.929 . S
H4116 C4124 0.929 . S
H4117 C4126 0.930 . S
H4118 C4128 0.930 . S
H4119 C4131 0.929 . S
H4120 C4134 0.930 . S
H4121 C4136 0.960 . S
H4122 C4136 0.960 . S
H4123 C4136 0.960 . S
C4124 H4116 0.929 . S
C4124 C4125 1.377 . S
C4124 C4126 1.384 . S
C4125 C4124 1.377 . S
C4125 C4131 1.390 . S
C4126 H4117 0.930 . S
C4126 C4124 1.384 . S
C4126 C4127 1.372 . S
C4127 C4126 1.372 . S
C4127 C4128 1.400 . S
C4127 C4132 1.490 . S
C4128 H4118 0.930 . S
C4128 C4127 1.400 . S
C4128 C4131 1.386 . S
H4129 C4145 0.930 . S
H4130 C4146 0.931 . S
C4131 H4119 0.929 . S
C4131 C4125 1.390 . S
C4131 C4128 1.386 . S
C4132 C4127 1.490 . S
C4132 C4134 1.395 . S
C4132 C4135 1.403 . S
H4133 C4139 0.930 . S
C4134 H4120 0.930 . S
C4134 C4132 1.395 . S
C4134 C4137 1.403 . S
C4135 C4132 1.403 . S
C4135 C4136 1.524 . S
C4135 C4139 1.400 . S
C4136 H4121 0.960 . S
C4136 H4122 0.960 . S
C4136 H4123 0.960 . S
C4136 C4135 1.524 . S
C4137 C4134 1.403 . S
C4137 C4138 1.392 . S
C4137 C4141 1.495 . S
C4138 C4137 1.392 . S
C4138 C4139 1.385 . S
C4138 C4140 1.478 . S
C4139 H4133 0.930 . S
C4139 C4135 1.400 . S
C4139 C4138 1.385 . S
C4140 C4138 1.478 . S
C4140 C4142 1.381 . S
C4140 C4146 1.383 . S
C4141 C4137 1.495 . S
C4141 H4147 0.959 . S
C4141 H4148 0.961 . S
C4141 H4149 0.960 . S
C4142 C4140 1.381 . S
C4142 C4143 1.394 . S
C4142 H4150 0.930 . S
C4143 C4142 1.394 . S
C4143 C4144 1.383 . S
C4143 H4151 0.929 . S
C4144 C4143 1.383 . S
C4144 C4145 1.377 . S
C4145 H4129 0.930 . S
C4145 C4144 1.377 . S
C4145 C4146 1.379 . S
C4146 H4130 0.931 . S
C4146 C4140 1.383 . S
C4146 C4145 1.379 . S
H4147 C4141 0.959 . S
H4148 C4141 0.961 . S
H4149 C4141 0.960 . S
H4150 C4142 0.930 . S
H4151 C4143 0.929 . S
H4152 C4160 0.929 1_655 S
H4153 C4162 0.930 1_655 S
H4154 C4164 0.930 . S
H4155 C4167 0.929 . S
H4156 C4170 0.930 . S
H4157 C4172 0.960 . S
H4158 C4172 0.960 . S
H4159 C4172 0.960 . S
C4160 H4152 0.929 1_455 S
C4160 C4161 1.377 . S
C4160 C4162 1.384 . S
C4161 C4160 1.377 . S
C4161 C4167 1.390 . S
C4162 H4153 0.930 1_455 S
C4162 C4160 1.384 . S
C4162 C4163 1.372 . S
C4163 C4162 1.372 . S
C4163 C4164 1.400 . S
C4163 C4168 1.490 . S
C4164 H4154 0.930 . S
C4164 C4163 1.400 . S
C4164 C4167 1.386 . S
H4165 C4181 0.930 . S
H4166 C4182 0.931 . S
C4167 H4155 0.929 . S
C4167 C4161 1.390 . S
C4167 C4164 1.386 . S
C4168 C4163 1.490 . S
C4168 C4170 1.395 1_455 S
C4168 C4171 1.403 . S
H4169 C4175 0.930 . S
C4170 H4156 0.930 . S
C4170 C4168 1.395 1_655 S
C4170 C4173 1.403 . S
C4171 C4168 1.403 . S
C4171 C4172 1.524 . S
C4171 C4175 1.400 . S
C4172 H4157 0.960 . S
C4172 H4158 0.960 . S
C4172 H4159 0.960 . S
C4172 C4171 1.524 . S
C4173 C4170 1.403 . S
C4173 C4174 1.392 1_655 S
C4173 C4177 1.495 . S
C4174 C4173 1.392 1_455 S
C4174 C4175 1.385 . S
C4174 C4176 1.478 . S
C4175 H4169 0.930 . S
C4175 C4171 1.400 . S
C4175 C4174 1.385 . S
C4176 C4174 1.478 . S
C4176 C4178 1.381 . S
C4176 C4182 1.383 . S
C4177 C4173 1.495 . S
C4177 H4183 0.959 . S
C4177 H4184 0.961 . S
C4177 H4185 0.960 . S
C4178 C4176 1.381 . S
C4178 C4179 1.394 . S
C4178 H4186 0.930 . S
C4179 C4178 1.394 . S
C4179 C4180 1.383 . S
C4179 H4187 0.929 . S
C4180 C4179 1.383 . S
C4180 C4181 1.377 . S
C4181 H4165 0.930 . S
C4181 C4180 1.377 . S
C4181 C4182 1.379 . S
C4182 H4166 0.931 . S
C4182 C4176 1.383 . S
C4182 C4181 1.379 . S
H4183 C4177 0.959 . S
H4184 C4177 0.961 . S
H4185 C4177 0.960 . S
H4186 C4178 0.930 . S
H4187 C4179 0.929 . S
H4188 C4196 0.929 . S
H4189 C4198 0.930 . S
H4190 C4200 0.930 . S
H4191 C4203 0.929 . S
H4192 C4206 0.930 . S
H4193 C4208 0.960 . S
H4194 C4208 0.960 . S
H4195 C4208 0.960 . S
C4196 H4188 0.929 . S
C4196 C4197 1.377 . S
C4196 C4198 1.384 . S
C4197 C4196 1.377 . S
C4197 C4203 1.390 . S
C4198 H4189 0.930 . S
C4198 C4196 1.384 . S
C4198 C4199 1.372 . S
C4199 C4198 1.372 . S
C4199 C4200 1.400 . S
C4199 C4204 1.490 . S
C4200 H4190 0.930 . S
C4200 C4199 1.400 . S
C4200 C4203 1.386 . S
H4201 C4217 0.930 . S
H4202 C4218 0.931 . S
C4203 H4191 0.929 . S
C4203 C4197 1.390 . S
C4203 C4200 1.386 . S
C4204 C4199 1.490 . S
C4204 C4206 1.395 . S
C4204 C4207 1.403 . S
H4205 C4211 0.930 . S
C4206 H4192 0.930 . S
C4206 C4204 1.395 . S
C4206 C4209 1.403 . S
C4207 C4204 1.403 . S
C4207 C4208 1.524 . S
C4207 C4211 1.400 . S
C4208 H4193 0.960 . S
C4208 H4194 0.960 . S
C4208 H4195 0.960 . S
C4208 C4207 1.524 . S
C4209 C4206 1.403 . S
C4209 C4210 1.392 . S
C4209 C4213 1.495 . S
C4210 C4209 1.392 . S
C4210 C4211 1.385 . S
C4210 C4212 1.478 . S
C4211 H4205 0.930 . S
C4211 C4207 1.400 . S
C4211 C4210 1.385 . S
C4212 C4210 1.478 . S
C4212 C4214 1.381 . S
C4212 C4218 1.383 . S
C4213 C4209 1.495 . S
C4213 H4219 0.959 . S
C4213 H4220 0.961 . S
C4213 H4221 0.960 . S
C4214 C4212 1.381 . S
C4214 C4215 1.394 . S
C4214 H4222 0.930 . S
C4215 C4214 1.394 . S
C4215 C4216 1.383 . S
C4215 H4223 0.929 . S
C4216 C4215 1.383 . S
C4216 C4217 1.377 . S
C4217 H4201 0.930 . S
C4217 C4216 1.377 . S
C4217 C4218 1.379 . S
C4218 H4202 0.931 . S
C4218 C4212 1.383 . S
C4218 C4217 1.379 . S
H4219 C4213 0.959 . S
H4220 C4213 0.961 . S
H4221 C4213 0.960 . S
H4222 C4214 0.930 . S
H4223 C4215 0.929 . S
H4224 C4232 0.929 . S
H4225 C4234 0.930 . S
H4226 C4236 0.930 . S
H4227 C4239 0.929 . S
H4228 C4242 0.930 . S
H4229 C4244 0.960 . S
H4230 C4244 0.960 . S
H4231 C4244 0.960 . S
C4232 H4224 0.929 . S
C4232 C4233 1.377 . S
C4232 C4234 1.384 . S
C4233 C4232 1.377 . S
C4233 C4239 1.390 . S
C4234 H4225 0.930 . S
C4234 C4232 1.384 . S
C4234 C4235 1.372 . S
C4235 C4234 1.372 . S
C4235 C4236 1.400 . S
C4235 C4240 1.490 . S
C4236 H4226 0.930 . S
C4236 C4235 1.400 . S
C4236 C4239 1.386 . S
H4237 C4253 0.930 . S
H4238 C4254 0.931 . S
C4239 H4227 0.929 . S
C4239 C4233 1.390 . S
C4239 C4236 1.386 . S
C4240 C4235 1.490 . S
C4240 C4242 1.395 . S
C4240 C4243 1.403 . S
H4241 C4247 0.930 . S
C4242 H4228 0.930 . S
C4242 C4240 1.395 . S
C4242 C4245 1.403 . S
C4243 C4240 1.403 . S
C4243 C4244 1.524 . S
C4243 C4247 1.400 . S
C4244 H4229 0.960 . S
C4244 H4230 0.960 . S
C4244 H4231 0.960 . S
C4244 C4243 1.524 . S
C4245 C4242 1.403 . S
C4245 C4246 1.392 . S
C4245 C4249 1.495 . S
C4246 C4245 1.392 . S
C4246 C4247 1.385 . S
C4246 C4248 1.478 . S
C4247 H4241 0.930 . S
C4247 C4243 1.400 . S
C4247 C4246 1.385 . S
C4248 C4246 1.478 . S
C4248 C4250 1.381 . S
C4248 C4254 1.383 . S
C4249 C4245 1.495 . S
C4249 H4255 0.959 . S
C4249 H4256 0.961 . S
C4249 H4257 0.960 . S
C4250 C4248 1.381 . S
C4250 C4251 1.394 . S
C4250 H4258 0.930 . S
C4251 C4250 1.394 . S
C4251 C4252 1.383 . S
C4251 H4259 0.929 . S
C4252 C4251 1.383 . S
C4252 C4253 1.377 . S
C4253 H4237 0.930 . S
C4253 C4252 1.377 . S
C4253 C4254 1.379 . S
C4254 H4238 0.931 . S
C4254 C4248 1.383 . S
C4254 C4253 1.379 . S
H4255 C4249 0.959 . S
H4256 C4249 0.961 . S
H4257 C4249 0.960 . S
H4258 C4250 0.930 . S
H4259 C4251 0.929 . S
H4260 C4268 0.929 . S
H4261 C4270 0.930 . S
H4262 C4272 0.930 . S
H4263 C4275 0.919 1_554 S
H4264 C4278 0.930 . S
H4265 C4280 0.960 . S
H4266 C4280 0.960 . S
H4267 C4280 0.960 . S
C4268 H4260 0.929 . S
C4268 C4269 1.377 . S
C4268 C4270 1.384 . S
C4269 C4268 1.377 . S
C4269 C4275 1.389 . S
C4270 H4261 0.930 . S
C4270 C4268 1.384 . S
C4270 C4271 1.372 . S
C4271 C4270 1.372 . S
C4271 C4272 1.400 . S
C4271 C4276 1.490 . S
C4272 H4262 0.930 . S
C4272 C4271 1.400 . S
C4272 C4275 1.396 . S
H4273 C4289 0.930 . S
H4274 C4290 0.931 . S
C4275 H4263 0.919 1_556 S
C4275 C4269 1.389 . S
C4275 C4272 1.396 . S
C4276 C4271 1.490 . S
C4276 C4278 1.395 . S
C4276 C4279 1.403 . S
H4277 C4283 0.930 . S
C4278 H4264 0.930 . S
C4278 C4276 1.395 . S
C4278 C4281 1.403 . S
C4279 C4276 1.403 . S
C4279 C4280 1.524 . S
C4279 C4283 1.400 . S
C4280 H4265 0.960 . S
C4280 H4266 0.960 . S
C4280 H4267 0.960 . S
C4280 C4279 1.524 . S
C4281 C4278 1.403 . S
C4281 C4282 1.392 . S
C4281 C4285 1.495 . S
C4282 C4281 1.392 . S
C4282 C4283 1.385 . S
C4282 C4284 1.478 . S
C4283 H4277 0.930 . S
C4283 C4279 1.400 . S
C4283 C4282 1.385 . S
C4284 C4282 1.478 . S
C4284 C4286 1.381 . S
C4284 C4290 1.383 . S
C4285 C4281 1.495 . S
C4285 H4291 0.959 . S
C4285 H4292 0.961 . S
C4285 H4293 0.960 . S
C4286 C4284 1.381 . S
C4286 C4287 1.394 . S
C4286 H4294 0.930 . S
C4287 C4286 1.394 . S
C4287 C4288 1.383 . S
C4287 H4295 0.929 . S
C4288 C4287 1.383 . S
C4288 C4289 1.377 . S
C4289 H4273 0.930 . S
C4289 C4288 1.377 . S
C4289 C4290 1.379 . S
C4290 H4274 0.931 . S
C4290 C4284 1.383 . S
C4290 C4289 1.379 . S
H4291 C4285 0.959 . S
H4292 C4285 0.961 . S
H4293 C4285 0.960 . S
H4294 C4286 0.930 . S
H4295 C4287 0.929 . S
H4296 C4304 0.929 . S
H4297 C4306 0.930 . S
H4298 C4308 0.930 . S
H4299 C4311 0.929 . S
H4300 C4314 0.930 . S
H4301 C4316 0.960 . S
H4302 C4316 0.960 . S
H4303 C4316 0.960 . S
C4304 H4296 0.929 . S
C4304 C4305 1.377 . S
C4304 C4306 1.384 . S
C4305 C4304 1.377 . S
C4305 C4311 1.390 . S
C4306 H4297 0.930 . S
C4306 C4304 1.384 . S
C4306 C4307 1.372 . S
C4307 C4306 1.372 . S
C4307 C4308 1.400 . S
C4307 C4312 1.490 . S
C4308 H4298 0.930 . S
C4308 C4307 1.400 . S
C4308 C4311 1.386 . S
H4309 C4325 0.930 . S
H4310 C4326 0.931 . S
C4311 H4299 0.929 . S
C4311 C4305 1.390 . S
C4311 C4308 1.386 . S
C4312 C4307 1.490 . S
C4312 C4314 1.395 . S
C4312 C4315 1.403 . S
H4313 C4319 0.930 . S
C4314 H4300 0.930 . S
C4314 C4312 1.395 . S
C4314 C4317 1.403 . S
C4315 C4312 1.403 . S
C4315 C4316 1.524 . S
C4315 C4319 1.400 . S
C4316 H4301 0.960 . S
C4316 H4302 0.960 . S
C4316 H4303 0.960 . S
C4316 C4315 1.524 . S
C4317 C4314 1.403 . S
C4317 C4318 1.392 . S
C4317 C4321 1.495 . S
C4318 C4317 1.392 . S
C4318 C4319 1.385 . S
C4318 C4320 1.478 . S
C4319 H4313 0.930 . S
C4319 C4315 1.400 . S
C4319 C4318 1.385 . S
C4320 C4318 1.478 . S
C4320 C4322 1.381 . S
C4320 C4326 1.383 . S
C4321 C4317 1.495 . S
C4321 H4327 0.959 . S
C4321 H4328 0.961 . S
C4321 H4329 0.960 . S
C4322 C4320 1.381 . S
C4322 C4323 1.394 . S
C4322 H4330 0.930 . S
C4323 C4322 1.394 . S
C4323 C4324 1.383 . S
C4323 H4331 0.929 . S
C4324 C4323 1.383 . S
C4324 C4325 1.377 . S
C4325 H4309 0.930 . S
C4325 C4324 1.377 . S
C4325 C4326 1.379 . S
C4326 H4310 0.931 . S
C4326 C4320 1.383 . S
C4326 C4325 1.379 . S
H4327 C4321 0.959 . S
H4328 C4321 0.961 . S
H4329 C4321 0.960 . S
H4330 C4322 0.930 . S
H4331 C4323 0.929 . S
H4332 C4340 0.929 . S
H4333 C4342 0.930 . S
H4334 C4344 0.930 . S
H4335 C4347 0.929 . S
H4336 C4350 0.930 . S
H4337 C4352 0.960 . S
H4338 C4352 0.960 . S
H4339 C4352 0.960 . S
C4340 H4332 0.929 . S
C4340 C4341 1.377 . S
C4340 C4342 1.384 . S
C4341 C4340 1.377 . S
C4341 C4347 1.390 . S
C4342 H4333 0.930 . S
C4342 C4340 1.384 . S
C4342 C4343 1.372 . S
C4343 C4342 1.372 . S
C4343 C4344 1.400 . S
C4343 C4348 1.490 . S
C4344 H4334 0.930 . S
C4344 C4343 1.400 . S
C4344 C4347 1.386 . S
H4345 C4361 0.930 . S
H4346 C4362 0.931 . S
C4347 H4335 0.929 . S
C4347 C4341 1.390 . S
C4347 C4344 1.386 . S
C4348 C4343 1.490 . S
C4348 C4350 1.395 . S
C4348 C4351 1.403 . S
H4349 C4355 0.930 . S
C4350 H4336 0.930 . S
C4350 C4348 1.395 . S
C4350 C4353 1.403 . S
C4351 C4348 1.403 . S
C4351 C4352 1.524 . S
C4351 C4355 1.400 . S
C4352 H4337 0.960 . S
C4352 H4338 0.960 . S
C4352 H4339 0.960 . S
C4352 C4351 1.524 . S
C4353 C4350 1.403 . S
C4353 C4354 1.392 . S
C4353 C4357 1.495 . S
C4354 C4353 1.392 . S
C4354 C4355 1.385 . S
C4354 C4356 1.478 . S
C4355 H4349 0.930 . S
C4355 C4351 1.400 . S
C4355 C4354 1.385 . S
C4356 C4354 1.478 . S
C4356 C4358 1.381 . S
C4356 C4362 1.383 . S
C4357 C4353 1.495 . S
C4357 H4363 0.959 . S
C4357 H4364 0.961 . S
C4357 H4365 0.960 . S
C4358 C4356 1.381 . S
C4358 C4359 1.394 . S
C4358 H4366 0.930 . S
C4359 C4358 1.394 . S
C4359 C4360 1.383 . S
C4359 H4367 0.929 . S
C4360 C4359 1.383 . S
C4360 C4361 1.377 . S
C4361 H4345 0.930 . S
C4361 C4360 1.377 . S
C4361 C4362 1.379 . S
C4362 H4346 0.931 . S
C4362 C4356 1.383 . S
C4362 C4361 1.379 . S
H4363 C4357 0.959 . S
H4364 C4357 0.961 . S
H4365 C4357 0.960 . S
H4366 C4358 0.930 . S
H4367 C4359 0.929 . S
H4368 C4376 0.929 . S
H4369 C4378 0.930 . S
H4370 C4380 0.930 . S
H4371 C4383 0.929 . S
H4372 C4386 0.930 . S
H4373 C4388 0.960 . S
H4374 C4388 0.960 . S
H4375 C4388 0.960 . S
C4376 H4368 0.929 . S
C4376 C4377 1.377 . S
C4376 C4378 1.384 . S
C4377 C4376 1.377 . S
C4377 C4383 1.390 . S
C4378 H4369 0.930 . S
C4378 C4376 1.384 . S
C4378 C4379 1.372 . S
C4379 C4378 1.372 . S
C4379 C4380 1.400 . S
C4379 C4384 1.490 . S
C4380 H4370 0.930 . S
C4380 C4379 1.400 . S
C4380 C4383 1.386 . S
H4381 C4397 0.930 . S
H4382 C4398 0.931 . S
C4383 H4371 0.929 . S
C4383 C4377 1.390 . S
C4383 C4380 1.386 . S
C4384 C4379 1.490 . S
C4384 C4386 1.395 . S
C4384 C4387 1.403 . S
H4385 C4391 0.930 . S
C4386 H4372 0.930 . S
C4386 C4384 1.395 . S
C4386 C4389 1.403 . S
C4387 C4384 1.403 . S
C4387 C4388 1.524 . S
C4387 C4391 1.400 . S
C4388 H4373 0.960 . S
C4388 H4374 0.960 . S
C4388 H4375 0.960 . S
C4388 C4387 1.524 . S
C4389 C4386 1.403 . S
C4389 C4390 1.392 . S
C4389 C4393 1.495 . S
C4390 C4389 1.392 . S
C4390 C4391 1.385 . S
C4390 C4392 1.478 . S
C4391 H4385 0.930 . S
C4391 C4387 1.400 . S
C4391 C4390 1.385 . S
C4392 C4390 1.478 . S
C4392 C4394 1.381 . S
C4392 C4398 1.383 . S
C4393 C4389 1.495 . S
C4393 H4399 0.959 . S
C4393 H4400 0.961 . S
C4393 H4401 0.960 . S
C4394 C4392 1.381 . S
C4394 C4395 1.394 . S
C4394 H4402 0.930 . S
C4395 C4394 1.394 . S
C4395 C4396 1.383 . S
C4395 H4403 0.929 . S
C4396 C4395 1.383 . S
C4396 C4397 1.377 . S
C4397 H4381 0.930 . S
C4397 C4396 1.377 . S
C4397 C4398 1.379 . S
C4398 H4382 0.931 . S
C4398 C4392 1.383 . S
C4398 C4397 1.379 . S
H4399 C4393 0.959 . S
H4400 C4393 0.961 . S
H4401 C4393 0.960 . S
H4402 C4394 0.930 . S
H4403 C4395 0.929 . S
H4404 C4412 0.929 . S
H4405 C4414 0.930 . S
H4406 C4416 0.930 . S
H4407 C4419 0.929 . S
H4408 C4422 0.930 . S
H4409 C4424 0.960 . S
H4410 C4424 0.960 . S
H4411 C4424 0.960 . S
C4412 H4404 0.929 . S
C4412 C4413 1.377 . S
C4412 C4414 1.384 . S
C4413 C4412 1.377 . S
C4413 C4419 1.390 . S
C4414 H4405 0.930 . S
C4414 C4412 1.384 . S
C4414 C4415 1.372 . S
C4415 C4414 1.372 . S
C4415 C4416 1.400 . S
C4415 C4420 1.490 . S
C4416 H4406 0.930 . S
C4416 C4415 1.400 . S
C4416 C4419 1.386 . S
H4417 C4433 0.930 . S
H4418 C4434 0.931 . S
C4419 H4407 0.929 . S
C4419 C4413 1.390 . S
C4419 C4416 1.386 . S
C4420 C4415 1.490 . S
C4420 C4422 1.395 . S
C4420 C4423 1.403 . S
H4421 C4427 0.930 . S
C4422 H4408 0.930 . S
C4422 C4420 1.395 . S
C4422 C4425 1.403 . S
C4423 C4420 1.403 . S
C4423 C4424 1.524 . S
C4423 C4427 1.400 . S
C4424 H4409 0.960 . S
C4424 H4410 0.960 . S
C4424 H4411 0.960 . S
C4424 C4423 1.524 . S
C4425 C4422 1.403 . S
C4425 C4426 1.392 . S
C4425 C4429 1.495 . S
C4426 C4425 1.392 . S
C4426 C4427 1.385 . S
C4426 C4428 1.478 . S
C4427 H4421 0.930 . S
C4427 C4423 1.400 . S
C4427 C4426 1.385 . S
C4428 C4426 1.478 . S
C4428 C4430 1.381 . S
C4428 C4434 1.383 . S
C4429 C4425 1.495 . S
C4429 H4435 0.959 . S
C4429 H4436 0.961 . S
C4429 H4437 0.960 . S
C4430 C4428 1.381 . S
C4430 C4431 1.394 . S
C4430 H4438 0.930 . S
C4431 C4430 1.394 . S
C4431 C4432 1.383 . S
C4431 H4439 0.929 . S
C4432 C4431 1.383 . S
C4432 C4433 1.377 . S
C4433 H4417 0.930 . S
C4433 C4432 1.377 . S
C4433 C4434 1.379 . S
C4434 H4418 0.931 . S
C4434 C4428 1.383 . S
C4434 C4433 1.379 . S
H4435 C4429 0.959 . S
H4436 C4429 0.961 . S
H4437 C4429 0.960 . S
H4438 C4430 0.930 . S
H4439 C4431 0.929 . S
H4440 C4448 0.929 . S
H4441 C4450 0.930 . S
H4442 C4452 0.930 . S
H4443 C4455 0.929 . S
H4444 C4458 0.930 . S
H4445 C4460 0.960 . S
H4446 C4460 0.960 . S
H4447 C4460 0.960 . S
C4448 H4440 0.929 . S
C4448 C4449 1.377 . S
C4448 C4450 1.384 . S
C4449 C4448 1.377 . S
C4449 C4455 1.390 . S
C4450 H4441 0.930 . S
C4450 C4448 1.384 . S
C4450 C4451 1.372 . S
C4451 C4450 1.372 . S
C4451 C4452 1.400 . S
C4451 C4456 1.490 . S
C4452 H4442 0.930 . S
C4452 C4451 1.400 . S
C4452 C4455 1.386 . S
H4453 C4469 0.930 . S
H4454 C4470 0.931 . S
C4455 H4443 0.929 . S
C4455 C4449 1.390 . S
C4455 C4452 1.386 . S
C4456 C4451 1.490 . S
C4456 C4458 1.395 . S
C4456 C4459 1.403 . S
H4457 C4463 0.930 . S
C4458 H4444 0.930 . S
C4458 C4456 1.395 . S
C4458 C4461 1.403 . S
C4459 C4456 1.403 . S
C4459 C4460 1.524 . S
C4459 C4463 1.400 . S
C4460 H4445 0.960 . S
C4460 H4446 0.960 . S
C4460 H4447 0.960 . S
C4460 C4459 1.524 . S
C4461 C4458 1.403 . S
C4461 C4462 1.392 . S
C4461 C4465 1.495 . S
C4462 C4461 1.392 . S
C4462 C4463 1.385 . S
C4462 C4464 1.478 . S
C4463 H4457 0.930 . S
C4463 C4459 1.400 . S
C4463 C4462 1.385 . S
C4464 C4462 1.478 . S
C4464 C4466 1.381 . S
C4464 C4470 1.383 . S
C4465 C4461 1.495 . S
C4465 H4471 0.959 . S
C4465 H4472 0.961 . S
C4465 H4473 0.960 . S
C4466 C4464 1.381 . S
C4466 C4467 1.394 . S
C4466 H4474 0.930 . S
C4467 C4466 1.394 . S
C4467 C4468 1.383 . S
C4467 H4475 0.929 . S
C4468 C4467 1.383 . S
C4468 C4469 1.377 . S
C4469 H4453 0.930 . S
C4469 C4468 1.377 . S
C4469 C4470 1.379 . S
C4470 H4454 0.931 . S
C4470 C4464 1.383 . S
C4470 C4469 1.379 . S
H4471 C4465 0.959 . S
H4472 C4465 0.961 . S
H4473 C4465 0.960 . S
H4474 C4466 0.930 . S
H4475 C4467 0.929 . S
H4476 C4484 0.929 . S
H4477 C4486 0.930 . S
H4478 C4488 0.930 . S
H4479 C4491 0.929 . S
H4480 C4494 0.930 . S
H4481 C4496 0.960 . S
H4482 C4496 0.960 . S
H4483 C4496 0.960 . S
C4484 H4476 0.929 . S
C4484 C4485 1.377 . S
C4484 C4486 1.384 . S
C4485 C4484 1.377 . S
C4485 C4491 1.390 . S
C4486 H4477 0.930 . S
C4486 C4484 1.384 . S
C4486 C4487 1.372 . S
C4487 C4486 1.372 . S
C4487 C4488 1.400 . S
C4487 C4492 1.490 . S
C4488 H4478 0.930 . S
C4488 C4487 1.400 . S
C4488 C4491 1.386 . S
H4489 C4505 0.930 . S
H4490 C4506 0.931 . S
C4491 H4479 0.929 . S
C4491 C4485 1.390 . S
C4491 C4488 1.386 . S
C4492 C4487 1.490 . S
C4492 C4494 1.395 . S
C4492 C4495 1.403 . S
H4493 C4499 0.930 . S
C4494 H4480 0.930 . S
C4494 C4492 1.395 . S
C4494 C4497 1.403 . S
C4495 C4492 1.403 . S
C4495 C4496 1.524 . S
C4495 C4499 1.400 . S
C4496 H4481 0.960 . S
C4496 H4482 0.960 . S
C4496 H4483 0.960 . S
C4496 C4495 1.524 . S
C4497 C4494 1.403 . S
C4497 C4498 1.392 . S
C4497 C4501 1.495 . S
C4498 C4497 1.392 . S
C4498 C4499 1.385 . S
C4498 C4500 1.478 . S
C4499 H4493 0.930 . S
C4499 C4495 1.400 . S
C4499 C4498 1.385 . S
C4500 C4498 1.478 . S
C4500 C4502 1.381 . S
C4500 C4506 1.383 . S
C4501 C4497 1.495 . S
C4501 H4507 0.959 . S
C4501 H4508 0.961 . S
C4501 H4509 0.960 . S
C4502 C4500 1.381 . S
C4502 C4503 1.394 . S
C4502 H4510 0.930 . S
C4503 C4502 1.394 . S
C4503 C4504 1.383 . S
C4503 H4511 0.929 . S
C4504 C4503 1.383 . S
C4504 C4505 1.377 . S
C4505 H4489 0.930 . S
C4505 C4504 1.377 . S
C4505 C4506 1.379 . S
C4506 H4490 0.931 . S
C4506 C4500 1.383 . S
C4506 C4505 1.379 . S
H4507 C4501 0.959 . S
H4508 C4501 0.961 . S
H4509 C4501 0.960 . S
H4510 C4502 0.930 . S
H4511 C4503 0.929 . S
H4512 C4520 0.929 . S
H4513 C4522 0.930 . S
H4514 C4524 0.930 . S
H4515 C4527 0.929 . S
H4516 C4530 0.930 . S
H4517 C4532 0.960 . S
H4518 C4532 0.960 . S
H4519 C4532 0.960 . S
C4520 H4512 0.929 . S
C4520 C4521 1.377 . S
C4520 C4522 1.384 . S
C4521 C4520 1.377 . S
C4521 C4527 1.390 . S
C4522 H4513 0.930 . S
C4522 C4520 1.384 . S
C4522 C4523 1.372 . S
C4523 C4522 1.372 . S
C4523 C4524 1.400 . S
C4523 C4528 1.490 . S
C4524 H4514 0.930 . S
C4524 C4523 1.400 . S
C4524 C4527 1.386 . S
H4525 C4541 0.930 . S
H4526 C4542 0.931 . S
C4527 H4515 0.929 . S
C4527 C4521 1.390 . S
C4527 C4524 1.386 . S
C4528 C4523 1.490 . S
C4528 C4530 1.395 . S
C4528 C4531 1.403 . S
H4529 C4535 0.930 . S
C4530 H4516 0.930 . S
C4530 C4528 1.395 . S
C4530 C4533 1.403 . S
C4531 C4528 1.403 . S
C4531 C4532 1.524 . S
C4531 C4535 1.400 . S
C4532 H4517 0.960 . S
C4532 H4518 0.960 . S
C4532 H4519 0.960 . S
C4532 C4531 1.524 . S
C4533 C4530 1.403 . S
C4533 C4534 1.392 . S
C4533 C4537 1.495 . S
C4534 C4533 1.392 . S
C4534 C4535 1.385 . S
C4534 C4536 1.478 . S
C4535 H4529 0.930 . S
C4535 C4531 1.400 . S
C4535 C4534 1.385 . S
C4536 C4534 1.478 . S
C4536 C4538 1.381 . S
C4536 C4542 1.383 . S
C4537 C4533 1.495 . S
C4537 H4543 0.959 . S
C4537 H4544 0.961 . S
C4537 H4545 0.960 . S
C4538 C4536 1.381 . S
C4538 C4539 1.394 . S
C4538 H4546 0.930 . S
C4539 C4538 1.394 . S
C4539 C4540 1.383 . S
C4539 H4547 0.929 . S
C4540 C4539 1.383 . S
C4540 C4541 1.377 . S
C4541 H4525 0.930 . S
C4541 C4540 1.377 . S
C4541 C4542 1.379 . S
C4542 H4526 0.931 . S
C4542 C4536 1.383 . S
C4542 C4541 1.379 . S
H4543 C4537 0.959 . S
H4544 C4537 0.961 . S
H4545 C4537 0.960 . S
H4546 C4538 0.930 . S
H4547 C4539 0.929 . S
H4548 C4556 0.929 . S
H4549 C4558 0.930 . S
H4550 C4560 0.930 . S
H4551 C4563 0.929 . S
H4552 C4566 0.930 . S
H4553 C4568 0.960 . S
H4554 C4568 0.960 . S
H4555 C4568 0.960 . S
C4556 H4548 0.929 . S
C4556 C4557 1.377 . S
C4556 C4558 1.384 . S
C4557 C4556 1.377 . S
C4557 C4563 1.390 . S
C4558 H4549 0.930 . S
C4558 C4556 1.384 . S
C4558 C4559 1.372 . S
C4559 C4558 1.372 . S
C4559 C4560 1.400 . S
C4559 C4564 1.490 . S
C4560 H4550 0.930 . S
C4560 C4559 1.400 . S
C4560 C4563 1.386 . S
H4561 C4577 0.930 . S
H4562 C4578 0.931 . S
C4563 H4551 0.929 . S
C4563 C4557 1.390 . S
C4563 C4560 1.386 . S
C4564 C4559 1.490 . S
C4564 C4566 1.395 . S
C4564 C4567 1.403 . S
H4565 C4571 0.930 . S
C4566 H4552 0.930 . S
C4566 C4564 1.395 . S
C4566 C4569 1.403 . S
C4567 C4564 1.403 . S
C4567 C4568 1.524 . S
C4567 C4571 1.400 . S
C4568 H4553 0.960 . S
C4568 H4554 0.960 . S
C4568 H4555 0.960 . S
C4568 C4567 1.524 . S
C4569 C4566 1.403 . S
C4569 C4570 1.392 . S
C4569 C4573 1.495 . S
C4570 C4569 1.392 . S
C4570 C4571 1.385 . S
C4570 C4572 1.478 . S
C4571 H4565 0.930 . S
C4571 C4567 1.400 . S
C4571 C4570 1.385 . S
C4572 C4570 1.478 . S
C4572 C4574 1.381 . S
C4572 C4578 1.383 . S
C4573 C4569 1.495 . S
C4573 H4579 0.959 . S
C4573 H4580 0.961 . S
C4573 H4581 0.960 . S
C4574 C4572 1.381 . S
C4574 C4575 1.394 . S
C4574 H4582 0.930 . S
C4575 C4574 1.394 . S
C4575 C4576 1.383 . S
C4575 H4583 0.929 . S
C4576 C4575 1.383 . S
C4576 C4577 1.377 . S
C4577 H4561 0.930 . S
C4577 C4576 1.377 . S
C4577 C4578 1.379 . S
C4578 H4562 0.931 . S
C4578 C4572 1.383 . S
C4578 C4577 1.379 . S
H4579 C4573 0.959 . S
H4580 C4573 0.961 . S
H4581 C4573 0.960 . S
H4582 C4574 0.930 . S
H4583 C4575 0.929 . S
H4584 C4592 0.929 . S
H4585 C4594 0.930 . S
H4586 C4596 0.930 . S
H4587 C4599 0.929 1_545 S
H4588 C4602 0.930 . S
H4589 C4604 0.960 . S
H4590 C4604 0.960 . S
H4591 C4604 0.960 . S
C4592 H4584 0.929 . S
C4592 C4593 1.377 . S
C4592 C4594 1.384 . S
C4593 C4592 1.377 . S
C4593 C4599 1.390 . S
C4594 H4585 0.930 . S
C4594 C4592 1.384 . S
C4594 C4595 1.372 . S
C4595 C4594 1.372 . S
C4595 C4596 1.400 . S
C4595 C4600 1.490 . S
C4596 H4586 0.930 . S
C4596 C4595 1.400 . S
C4596 C4599 1.386 . S
H4597 C4613 0.930 . S
H4598 C4614 0.931 . S
C4599 H4587 0.929 1_565 S
C4599 C4593 1.390 . S
C4599 C4596 1.386 . S
C4600 C4595 1.490 . S
C4600 C4602 1.395 . S
C4600 C4603 1.403 . S
H4601 C4607 0.930 . S
C4602 H4588 0.930 . S
C4602 C4600 1.395 . S
C4602 C4605 1.403 . S
C4603 C4600 1.403 . S
C4603 C4604 1.524 . S
C4603 C4607 1.400 . S
C4604 H4589 0.960 . S
C4604 H4590 0.960 . S
C4604 H4591 0.960 . S
C4604 C4603 1.524 . S
C4605 C4602 1.403 . S
C4605 C4606 1.392 . S
C4605 C4609 1.495 . S
C4606 C4605 1.392 . S
C4606 C4607 1.385 . S
C4606 C4608 1.478 . S
C4607 H4601 0.930 . S
C4607 C4603 1.400 . S
C4607 C4606 1.385 . S
C4608 C4606 1.478 . S
C4608 C4610 1.381 . S
C4608 C4614 1.383 . S
C4609 C4605 1.495 . S
C4609 H4615 0.959 . S
C4609 H4616 0.961 . S
C4609 H4617 0.960 . S
C4610 C4608 1.381 . S
C4610 C4611 1.394 . S
C4610 H4618 0.930 . S
C4611 C4610 1.394 . S
C4611 C4612 1.383 . S
C4611 H4619 0.929 . S
C4612 C4611 1.383 . S
C4612 C4613 1.377 . S
C4613 H4597 0.930 . S
C4613 C4612 1.377 . S
C4613 C4614 1.379 . S
C4614 H4598 0.931 . S
C4614 C4608 1.383 . S
C4614 C4613 1.379 . S
H4615 C4609 0.959 . S
H4616 C4609 0.961 . S
H4617 C4609 0.960 . S
H4618 C4610 0.930 . S
H4619 C4611 0.929 . S
H4620 C4628 0.929 . S
H4621 C4630 0.930 . S
H4622 C4632 0.930 . S
H4623 C4635 0.929 . S
H4624 C4638 0.930 . S
H4625 C4640 0.960 . S
H4626 C4640 0.960 . S
H4627 C4640 0.960 . S
C4628 H4620 0.929 . S
C4628 C4629 1.377 . S
C4628 C4630 1.384 . S
C4629 C4628 1.377 . S
C4629 C4635 1.390 . S
C4630 H4621 0.930 . S
C4630 C4628 1.384 . S
C4630 C4631 1.372 . S
C4631 C4630 1.372 . S
C4631 C4632 1.400 . S
C4631 C4636 1.490 . S
C4632 H4622 0.930 . S
C4632 C4631 1.400 . S
C4632 C4635 1.386 . S
H4633 C4649 0.930 . S
H4634 C4650 0.931 . S
C4635 H4623 0.929 . S
C4635 C4629 1.390 . S
C4635 C4632 1.386 . S
C4636 C4631 1.490 . S
C4636 C4638 1.395 . S
C4636 C4639 1.403 1_554 S
H4637 C4643 0.934 . S
C4638 H4624 0.930 . S
C4638 C4636 1.395 . S
C4638 C4641 1.403 . S
C4639 C4636 1.403 1_556 S
C4639 C4640 1.524 . S
C4639 C4643 1.400 . S
C4640 H4625 0.960 . S
C4640 H4626 0.960 . S
C4640 H4627 0.960 . S
C4640 C4639 1.524 . S
C4641 C4638 1.403 . S
C4641 C4642 1.392 . S
C4641 C4645 1.470 1_565 S
C4642 C4641 1.392 . S
C4642 C4643 1.381 1_554 S
C4642 C4644 1.478 . S
C4643 H4637 0.934 . S
C4643 C4639 1.400 . S
C4643 C4642 1.381 1_556 S
C4644 C4642 1.478 . S
C4644 C4646 1.381 1_565 S
C4644 C4650 1.383 . S
C4645 C4641 1.470 1_545 S
C4645 H4651 0.959 . S
C4645 H4652 0.931 1_545 S
C4645 H4653 1.013 . S
C4646 C4644 1.381 1_545 S
C4646 C4647 1.394 . S
C4646 H4654 0.930 . S
C4647 C4646 1.394 . S
C4647 C4648 1.383 . S
C4647 H4655 0.929 . S
C4648 C4647 1.383 . S
C4648 C4649 1.377 1_545 S
C4649 H4633 0.930 . S
C4649 C4648 1.377 1_565 S
C4649 C4650 1.379 . S
C4650 H4634 0.931 . S
C4650 C4644 1.383 . S
C4650 C4649 1.379 . S
H4651 C4645 0.959 . S
H4652 C4645 0.931 1_565 S
H4653 C4645 1.013 . S
H4654 C4646 0.930 . S
H4655 C4647 0.929 . S
H4656 C4664 0.929 . S
H4657 C4666 0.930 . S
H4658 C4668 0.930 . S
H4659 C4671 0.929 . S
H4660 C4674 0.930 . S
H4661 C4676 0.960 . S
H4662 C4676 0.960 . S
H4663 C4676 0.960 . S
C4664 H4656 0.929 . S
C4664 C4665 1.377 . S
C4664 C4666 1.384 . S
C4665 C4664 1.377 . S
C4665 C4671 1.390 . S
C4666 H4657 0.930 . S
C4666 C4664 1.384 . S
C4666 C4667 1.372 . S
C4667 C4666 1.372 . S
C4667 C4668 1.400 . S
C4667 C4672 1.490 . S
C4668 H4658 0.930 . S
C4668 C4667 1.400 . S
C4668 C4671 1.386 . S
H4669 C4685 0.930 . S
H4670 C4686 0.931 . S
C4671 H4659 0.929 . S
C4671 C4665 1.390 . S
C4671 C4668 1.386 . S
C4672 C4667 1.490 . S
C4672 C4674 1.395 . S
C4672 C4675 1.403 . S
H4673 C4679 0.930 . S
C4674 H4660 0.930 . S
C4674 C4672 1.395 . S
C4674 C4677 1.403 . S
C4675 C4672 1.403 . S
C4675 C4676 1.524 . S
C4675 C4679 1.400 . S
C4676 H4661 0.960 . S
C4676 H4662 0.960 . S
C4676 H4663 0.960 . S
C4676 C4675 1.524 . S
C4677 C4674 1.403 . S
C4677 C4678 1.392 . S
C4677 C4681 1.495 . S
C4678 C4677 1.392 . S
C4678 C4679 1.385 . S
C4678 C4680 1.478 . S
C4679 H4673 0.930 . S
C4679 C4675 1.400 . S
C4679 C4678 1.385 . S
C4680 C4678 1.478 . S
C4680 C4682 1.381 . S
C4680 C4686 1.383 . S
C4681 C4677 1.495 . S
C4681 H4687 0.959 . S
C4681 H4688 0.961 . S
C4681 H4689 0.960 . S
C4682 C4680 1.381 . S
C4682 C4683 1.394 . S
C4682 H4690 0.930 . S
C4683 C4682 1.394 . S
C4683 C4684 1.383 . S
C4683 H4691 0.929 . S
C4684 C4683 1.383 . S
C4684 C4685 1.377 . S
C4685 H4669 0.930 . S
C4685 C4684 1.377 . S
C4685 C4686 1.379 . S
C4686 H4670 0.931 . S
C4686 C4680 1.383 . S
C4686 C4685 1.379 . S
H4687 C4681 0.959 . S
H4688 C4681 0.961 . S
H4689 C4681 0.960 . S
H4690 C4682 0.930 . S
H4691 C4683 0.929 . S
H4692 C4700 0.929 . S
H4693 C4702 0.926 1_556 S
H4694 C4704 0.930 . S
H4695 C4707 0.929 . S
H4696 C4710 0.930 . S
H4697 C4712 0.960 . S
H4698 C4712 0.960 1_556 S
H4699 C4712 0.960 . S
C4700 H4692 0.929 . S
C4700 C4701 1.377 1_556 S
C4700 C4702 1.384 1_556 S
C4701 C4700 1.377 1_554 S
C4701 C4707 1.390 . S
C4702 H4693 0.926 1_554 S
C4702 C4700 1.384 1_554 S
C4702 C4703 1.376 . S
C4703 C4702 1.376 . S
C4703 C4704 1.400 . S
C4703 C4708 1.490 . S
C4704 H4694 0.930 . S
C4704 C4703 1.400 . S
C4704 C4707 1.386 . S
H4705 C4721 0.930 . S
H4706 C4722 0.931 . S
C4707 H4695 0.929 . S
C4707 C4701 1.390 . S
C4707 C4704 1.386 . S
C4708 C4703 1.490 . S
C4708 C4710 1.395 . S
C4708 C4711 1.403 . S
H4709 C4715 0.930 . S
C4710 H4696 0.930 . S
C4710 C4708 1.395 . S
C4710 C4713 1.403 . S
C4711 C4708 1.403 . S
C4711 C4712 1.524 . S
C4711 C4715 1.400 . S
C4712 H4697 0.960 . S
C4712 H4698 0.960 1_554 S
C4712 H4699 0.960 . S
C4712 C4711 1.524 . S
C4713 C4710 1.403 . S
C4713 C4714 1.392 . S
C4713 C4717 1.495 . S
C4714 C4713 1.392 . S
C4714 C4715 1.385 . S
C4714 C4716 1.478 . S
C4715 H4709 0.930 . S
C4715 C4711 1.400 . S
C4715 C4714 1.385 . S
C4716 C4714 1.478 . S
C4716 C4718 1.381 . S
C4716 C4722 1.383 . S
C4717 C4713 1.495 . S
C4717 H4723 0.959 . S
C4717 H4724 0.961 . S
C4717 H4725 0.960 . S
C4718 C4716 1.381 . S
C4718 C4719 1.394 . S
C4718 H4726 0.962 . S
C4719 C4718 1.394 . S
C4719 C4720 1.383 . S
C4719 H4727 0.929 . S
C4720 C4719 1.383 . S
C4720 C4721 1.377 . S
C4721 H4705 0.930 . S
C4721 C4720 1.377 . S
C4721 C4722 1.379 . S
C4722 H4706 0.931 . S
C4722 C4716 1.383 . S
C4722 C4721 1.379 . S
H4723 C4717 0.959 . S
H4724 C4717 0.961 . S
H4725 C4717 0.960 . S
H4726 C4718 0.962 . S
H4727 C4719 0.929 . S
H4728 C4736 0.929 . S
H4729 C4738 0.930 . S
H4730 C4740 0.930 . S
H4731 C4743 0.929 . S
H4732 C4746 0.930 . S
H4733 C4748 0.960 . S
H4734 C4748 0.960 . S
H4735 C4748 0.960 . S
C4736 H4728 0.929 . S
C4736 C4737 1.377 . S
C4736 C4738 1.384 . S
C4737 C4736 1.377 . S
C4737 C4743 1.390 . S
C4738 H4729 0.930 . S
C4738 C4736 1.384 . S
C4738 C4739 1.372 . S
C4739 C4738 1.372 . S
C4739 C4740 1.400 . S
C4739 C4744 1.490 . S
C4740 H4730 0.930 . S
C4740 C4739 1.400 . S
C4740 C4743 1.386 . S
H4741 C4757 0.930 . S
H4742 C4758 0.931 . S
C4743 H4731 0.929 . S
C4743 C4737 1.390 . S
C4743 C4740 1.386 . S
C4744 C4739 1.490 . S
C4744 C4746 1.395 . S
C4744 C4747 1.403 . S
H4745 C4751 0.930 . S
C4746 H4732 0.930 . S
C4746 C4744 1.395 . S
C4746 C4749 1.403 . S
C4747 C4744 1.403 . S
C4747 C4748 1.524 . S
C4747 C4751 1.400 . S
C4748 H4733 0.960 . S
C4748 H4734 0.960 . S
C4748 H4735 0.960 . S
C4748 C4747 1.524 . S
C4749 C4746 1.403 . S
C4749 C4750 1.392 . S
C4749 C4753 1.495 . S
C4750 C4749 1.392 . S
C4750 C4751 1.385 . S
C4750 C4752 1.478 . S
C4751 H4745 0.930 . S
C4751 C4747 1.400 . S
C4751 C4750 1.385 . S
C4752 C4750 1.478 . S
C4752 C4754 1.381 . S
C4752 C4758 1.383 . S
C4753 C4749 1.495 . S
C4753 H4759 0.959 . S
C4753 H4760 0.961 . S
C4753 H4761 0.960 . S
C4754 C4752 1.381 . S
C4754 C4755 1.394 . S
C4754 H4762 0.930 . S
C4755 C4754 1.394 . S
C4755 C4756 1.383 . S
C4755 H4763 0.929 . S
C4756 C4755 1.383 . S
C4756 C4757 1.377 . S
C4757 H4741 0.930 . S
C4757 C4756 1.377 . S
C4757 C4758 1.379 . S
C4758 H4742 0.931 . S
C4758 C4752 1.383 . S
C4758 C4757 1.379 . S
H4759 C4753 0.959 . S
H4760 C4753 0.961 . S
H4761 C4753 0.960 . S
H4762 C4754 0.930 . S
H4763 C4755 0.929 . S
H4764 C4772 0.929 . S
H4765 C4774 0.930 . S
H4766 C4776 0.930 . S
H4767 C4779 0.929 . S
H4768 C4782 0.930 . S
H4769 C4784 0.960 . S
H4770 C4784 0.960 . S
H4771 C4784 0.960 . S
C4772 H4764 0.929 . S
C4772 C4773 1.377 . S
C4772 C4774 1.384 . S
C4773 C4772 1.377 . S
C4773 C4779 1.390 . S
C4774 H4765 0.930 . S
C4774 C4772 1.384 . S
C4774 C4775 1.372 . S
C4775 C4774 1.372 . S
C4775 C4776 1.400 . S
C4775 C4780 1.490 . S
C4776 H4766 0.930 . S
C4776 C4775 1.400 . S
C4776 C4779 1.386 . S
H4777 C4793 0.930 . S
H4778 C4794 0.931 . S
C4779 H4767 0.929 . S
C4779 C4773 1.390 . S
C4779 C4776 1.386 . S
C4780 C4775 1.490 . S
C4780 C4782 1.395 . S
C4780 C4783 1.403 . S
H4781 C4787 0.930 . S
C4782 H4768 0.930 . S
C4782 C4780 1.395 . S
C4782 C4785 1.403 . S
C4783 C4780 1.403 . S
C4783 C4784 1.524 . S
C4783 C4787 1.400 . S
C4784 H4769 0.960 . S
C4784 H4770 0.960 . S
C4784 H4771 0.960 . S
C4784 C4783 1.524 . S
C4785 C4782 1.403 . S
C4785 C4786 1.392 . S
C4785 C4789 1.495 . S
C4786 C4785 1.392 . S
C4786 C4787 1.385 . S
C4786 C4788 1.478 . S
C4787 H4781 0.930 . S
C4787 C4783 1.400 . S
C4787 C4786 1.385 . S
C4788 C4786 1.478 . S
C4788 C4790 1.381 . S
C4788 C4794 1.383 . S
C4789 C4785 1.495 . S
C4789 H4795 0.959 . S
C4789 H4796 0.961 . S
C4789 H4797 0.960 . S
C4790 C4788 1.381 . S
C4790 C4791 1.394 . S
C4790 H4798 0.930 . S
C4791 C4790 1.394 . S
C4791 C4792 1.383 . S
C4791 H4799 0.929 . S
C4792 C4791 1.383 . S
C4792 C4793 1.377 . S
C4793 H4777 0.930 . S
C4793 C4792 1.377 . S
C4793 C4794 1.379 . S
C4794 H4778 0.931 . S
C4794 C4788 1.383 . S
C4794 C4793 1.379 . S
H4795 C4789 0.959 . S
H4796 C4789 0.961 . S
H4797 C4789 0.960 . S
H4798 C4790 0.930 . S
H4799 C4791 0.929 . S
H4800 C4808 0.929 . S
H4801 C4810 0.930 . S
H4802 C4812 0.930 . S
H4803 C4815 0.929 . S
H4804 C4818 0.930 . S
H4805 C4820 0.960 . S
H4806 C4820 0.960 . S
H4807 C4820 0.960 . S
C4808 H4800 0.929 . S
C4808 C4809 1.377 . S
C4808 C4810 1.384 . S
C4809 C4808 1.377 . S
C4809 C4815 1.390 . S
C4810 H4801 0.930 . S
C4810 C4808 1.384 . S
C4810 C4811 1.372 . S
C4811 C4810 1.372 . S
C4811 C4812 1.400 . S
C4811 C4816 1.490 . S
C4812 H4802 0.930 . S
C4812 C4811 1.400 . S
C4812 C4815 1.386 . S
H4813 C4829 0.930 . S
H4814 C4830 0.931 . S
C4815 H4803 0.929 . S
C4815 C4809 1.390 . S
C4815 C4812 1.386 . S
C4816 C4811 1.490 . S
C4816 C4818 1.395 . S
C4816 C4819 1.403 . S
H4817 C4823 0.930 . S
C4818 H4804 0.930 . S
C4818 C4816 1.395 . S
C4818 C4821 1.403 . S
C4819 C4816 1.403 . S
C4819 C4820 1.524 . S
C4819 C4823 1.400 . S
C4820 H4805 0.960 . S
C4820 H4806 0.960 . S
C4820 H4807 0.960 . S
C4820 C4819 1.524 . S
C4821 C4818 1.403 . S
C4821 C4822 1.392 . S
C4821 C4825 1.495 . S
C4822 C4821 1.392 . S
C4822 C4823 1.385 . S
C4822 C4824 1.478 . S
C4823 H4817 0.930 . S
C4823 C4819 1.400 . S
C4823 C4822 1.385 . S
C4824 C4822 1.478 . S
C4824 C4826 1.381 . S
C4824 C4830 1.383 . S
C4825 C4821 1.495 . S
C4825 H4831 0.959 . S
C4825 H4832 0.961 . S
C4825 H4833 0.960 . S
C4826 C4824 1.381 . S
C4826 C4827 1.394 . S
C4826 H4834 0.930 . S
C4827 C4826 1.394 . S
C4827 C4828 1.383 . S
C4827 H4835 0.929 . S
C4828 C4827 1.383 . S
C4828 C4829 1.377 . S
C4829 H4813 0.930 . S
C4829 C4828 1.377 . S
C4829 C4830 1.379 . S
C4830 H4814 0.931 . S
C4830 C4824 1.383 . S
C4830 C4829 1.379 . S
H4831 C4825 0.959 . S
H4832 C4825 0.961 . S
H4833 C4825 0.960 . S
H4834 C4826 0.930 . S
H4835 C4827 0.929 . S
H4836 C4844 0.929 . S
H4837 C4846 0.930 . S
H4838 C4848 0.930 . S
H4839 C4851 0.929 . S
H4840 C4854 0.930 . S
H4841 C4856 0.960 . S
H4842 C4856 0.960 . S
H4843 C4856 0.960 . S
C4844 H4836 0.929 . S
C4844 C4845 1.377 . S
C4844 C4846 1.384 . S
C4845 C4844 1.377 . S
C4845 C4851 1.390 . S
C4846 H4837 0.930 . S
C4846 C4844 1.384 . S
C4846 C4847 1.372 . S
C4847 C4846 1.372 . S
C4847 C4848 1.400 . S
C4847 C4852 1.490 . S
C4848 H4838 0.930 . S
C4848 C4847 1.400 . S
C4848 C4851 1.386 . S
H4849 C4865 0.930 . S
H4850 C4866 0.931 . S
C4851 H4839 0.929 . S
C4851 C4845 1.390 . S
C4851 C4848 1.386 . S
C4852 C4847 1.490 . S
C4852 C4854 1.395 . S
C4852 C4855 1.403 . S
H4853 C4859 0.930 . S
C4854 H4840 0.930 . S
C4854 C4852 1.395 . S
C4854 C4857 1.403 . S
C4855 C4852 1.403 . S
C4855 C4856 1.524 . S
C4855 C4859 1.400 . S
C4856 H4841 0.960 . S
C4856 H4842 0.960 . S
C4856 H4843 0.960 . S
C4856 C4855 1.524 . S
C4857 C4854 1.403 . S
C4857 C4858 1.392 . S
C4857 C4861 1.495 . S
C4858 C4857 1.392 . S
C4858 C4859 1.385 . S
C4858 C4860 1.478 . S
C4859 H4853 0.930 . S
C4859 C4855 1.400 . S
C4859 C4858 1.385 . S
C4860 C4858 1.478 . S
C4860 C4862 1.381 . S
C4860 C4866 1.383 . S
C4861 C4857 1.495 . S
C4861 H4867 0.959 . S
C4861 H4868 0.961 . S
C4861 H4869 0.960 . S
C4862 C4860 1.381 . S
C4862 C4863 1.394 . S
C4862 H4870 0.930 . S
C4863 C4862 1.394 . S
C4863 C4864 1.383 . S
C4863 H4871 0.929 . S
C4864 C4863 1.383 . S
C4864 C4865 1.377 . S
C4865 H4849 0.930 . S
C4865 C4864 1.377 . S
C4865 C4866 1.379 . S
C4866 H4850 0.931 . S
C4866 C4860 1.383 . S
C4866 C4865 1.379 . S
H4867 C4861 0.959 . S
H4868 C4861 0.961 . S
H4869 C4861 0.960 . S
H4870 C4862 0.930 . S
H4871 C4863 0.929 . S
H4872 C4880 0.929 . S
H4873 C4882 0.930 . S
H4874 C4884 0.930 . S
H4875 C4887 0.929 . S
H4876 C4890 0.930 . S
H4877 C4892 0.960 . S
H4878 C4892 0.960 . S
H4879 C4892 0.960 . S
C4880 H4872 0.929 . S
C4880 C4881 1.377 . S
C4880 C4882 1.384 . S
C4881 C4880 1.377 . S
C4881 C4887 1.390 . S
C4882 H4873 0.930 . S
C4882 C4880 1.384 . S
C4882 C4883 1.372 . S
C4883 C4882 1.372 . S
C4883 C4884 1.400 . S
C4883 C4888 1.490 . S
C4884 H4874 0.930 . S
C4884 C4883 1.400 . S
C4884 C4887 1.386 . S
H4885 C4901 0.930 . S
H4886 C4902 0.931 . S
C4887 H4875 0.929 . S
C4887 C4881 1.390 . S
C4887 C4884 1.386 . S
C4888 C4883 1.490 . S
C4888 C4890 1.395 . S
C4888 C4891 1.403 . S
H4889 C4895 0.930 . S
C4890 H4876 0.930 . S
C4890 C4888 1.395 . S
C4890 C4893 1.403 . S
C4891 C4888 1.403 . S
C4891 C4892 1.524 . S
C4891 C4895 1.400 . S
C4892 H4877 0.960 . S
C4892 H4878 0.960 . S
C4892 H4879 0.960 . S
C4892 C4891 1.524 . S
C4893 C4890 1.403 . S
C4893 C4894 1.392 . S
C4893 C4897 1.495 . S
C4894 C4893 1.392 . S
C4894 C4895 1.385 . S
C4894 C4896 1.478 . S
C4895 H4889 0.930 . S
C4895 C4891 1.400 . S
C4895 C4894 1.385 . S
C4896 C4894 1.478 . S
C4896 C4898 1.381 . S
C4896 C4902 1.383 . S
C4897 C4893 1.495 . S
C4897 H4903 0.959 . S
C4897 H4904 0.961 . S
C4897 H4905 0.960 . S
C4898 C4896 1.381 . S
C4898 C4899 1.394 . S
C4898 H4906 0.930 . S
C4899 C4898 1.394 . S
C4899 C4900 1.383 . S
C4899 H4907 0.929 . S
C4900 C4899 1.383 . S
C4900 C4901 1.377 . S
C4901 H4885 0.930 . S
C4901 C4900 1.377 . S
C4901 C4902 1.379 . S
C4902 H4886 0.931 . S
C4902 C4896 1.383 . S
C4902 C4901 1.379 . S
H4903 C4897 0.959 . S
H4904 C4897 0.961 . S
H4905 C4897 0.960 . S
H4906 C4898 0.930 . S
H4907 C4899 0.929 . S
H4908 C4916 0.929 . S
H4909 C4918 0.930 . S
H4910 C4920 0.930 . S
H4911 C4923 0.929 . S
H4912 C4926 0.930 . S
H4913 C4928 0.960 . S
H4914 C4928 0.960 . S
H4915 C4928 0.960 . S
C4916 H4908 0.929 . S
C4916 C4917 1.377 . S
C4916 C4918 1.384 . S
C4917 C4916 1.377 . S
C4917 C4923 1.390 . S
C4918 H4909 0.930 . S
C4918 C4916 1.384 . S
C4918 C4919 1.372 . S
C4919 C4918 1.372 . S
C4919 C4920 1.400 . S
C4919 C4924 1.490 . S
C4920 H4910 0.930 . S
C4920 C4919 1.400 . S
C4920 C4923 1.386 . S
H4921 C4937 0.930 . S
H4922 C4938 0.931 . S
C4923 H4911 0.929 . S
C4923 C4917 1.390 . S
C4923 C4920 1.386 . S
C4924 C4919 1.490 . S
C4924 C4926 1.395 . S
C4924 C4927 1.403 . S
H4925 C4931 0.930 . S
C4926 H4912 0.930 . S
C4926 C4924 1.395 . S
C4926 C4929 1.403 . S
C4927 C4924 1.403 . S
C4927 C4928 1.524 . S
C4927 C4931 1.400 . S
C4928 H4913 0.960 . S
C4928 H4914 0.960 . S
C4928 H4915 0.960 . S
C4928 C4927 1.524 . S
C4929 C4926 1.403 . S
C4929 C4930 1.392 . S
C4929 C4933 1.495 . S
C4930 C4929 1.392 . S
C4930 C4931 1.385 . S
C4930 C4932 1.478 . S
C4931 H4925 0.930 . S
C4931 C4927 1.400 . S
C4931 C4930 1.385 . S
C4932 C4930 1.478 . S
C4932 C4934 1.381 . S
C4932 C4938 1.383 . S
C4933 C4929 1.495 . S
C4933 H4939 0.959 . S
C4933 H4940 0.961 . S
C4933 H4941 0.960 . S
C4934 C4932 1.381 . S
C4934 C4935 1.394 . S
C4934 H4942 0.930 . S
C4935 C4934 1.394 . S
C4935 C4936 1.383 . S
C4935 H4943 0.929 . S
C4936 C4935 1.383 . S
C4936 C4937 1.377 . S
C4937 H4921 0.930 . S
C4937 C4936 1.377 . S
C4937 C4938 1.379 . S
C4938 H4922 0.931 . S
C4938 C4932 1.383 . S
C4938 C4937 1.379 . S
H4939 C4933 0.959 . S
H4940 C4933 0.961 . S
H4941 C4933 0.960 . S
H4942 C4934 0.930 . S
H4943 C4935 0.929 . S
H4944 C4952 0.929 . S
H4945 C4954 0.930 . S
H4946 C4956 0.930 . S
H4947 C4959 0.929 . S
H4948 C4962 0.930 . S
H4949 C4964 0.960 . S
H4950 C4964 0.960 . S
H4951 C4964 0.960 . S
C4952 H4944 0.929 . S
C4952 C4953 1.377 . S
C4952 C4954 1.384 . S
C4953 C4952 1.377 . S
C4953 C4959 1.390 . S
C4954 H4945 0.930 . S
C4954 C4952 1.384 . S
C4954 C4955 1.372 . S
C4955 C4954 1.372 . S
C4955 C4956 1.400 . S
C4955 C4960 1.490 . S
C4956 H4946 0.930 . S
C4956 C4955 1.400 . S
C4956 C4959 1.386 . S
H4957 C4973 0.930 . S
H4958 C4974 0.931 . S
C4959 H4947 0.929 . S
C4959 C4953 1.390 . S
C4959 C4956 1.386 . S
C4960 C4955 1.490 . S
C4960 C4962 1.395 . S
C4960 C4963 1.403 . S
H4961 C4967 0.930 . S
C4962 H4948 0.930 . S
C4962 C4960 1.395 . S
C4962 C4965 1.403 . S
C4963 C4960 1.403 . S
C4963 C4964 1.524 . S
C4963 C4967 1.400 . S
C4964 H4949 0.960 . S
C4964 H4950 0.960 . S
C4964 H4951 0.960 . S
C4964 C4963 1.524 . S
C4965 C4962 1.403 . S
C4965 C4966 1.392 . S
C4965 C4969 1.495 . S
C4966 C4965 1.392 . S
C4966 C4967 1.385 . S
C4966 C4968 1.478 . S
C4967 H4961 0.930 . S
C4967 C4963 1.400 . S
C4967 C4966 1.385 . S
C4968 C4966 1.478 . S
C4968 C4970 1.381 . S
C4968 C4974 1.383 . S
C4969 C4965 1.495 . S
C4969 H4975 0.959 . S
C4969 H4976 0.961 . S
C4969 H4977 0.960 . S
C4970 C4968 1.381 . S
C4970 C4971 1.394 . S
C4970 H4978 0.930 . S
C4971 C4970 1.394 . S
C4971 C4972 1.383 . S
C4971 H4979 0.929 . S
C4972 C4971 1.383 . S
C4972 C4973 1.377 . S
C4973 H4957 0.930 . S
C4973 C4972 1.377 . S
C4973 C4974 1.379 . S
C4974 H4958 0.931 . S
C4974 C4968 1.383 . S
C4974 C4973 1.379 . S
H4975 C4969 0.959 . S
H4976 C4969 0.961 . S
H4977 C4969 0.960 . S
H4978 C4970 0.930 . S
H4979 C4971 0.929 . S
H4980 C4988 0.929 . S
H4981 C4990 0.930 . S
H4982 C4992 0.930 . S
H4983 C4995 0.929 . S
H4984 C4998 0.930 . S
H4985 C5000 0.960 . S
H4986 C5000 0.960 . S
H4987 C5000 0.960 . S
C4988 H4980 0.929 . S
C4988 C4989 1.377 . S
C4988 C4990 1.384 . S
C4989 C4988 1.377 . S
C4989 C4995 1.390 . S
C4990 H4981 0.930 . S
C4990 C4988 1.384 . S
C4990 C4991 1.372 . S
C4991 C4990 1.372 . S
C4991 C4992 1.400 . S
C4991 C4996 1.490 . S
C4992 H4982 0.930 . S
C4992 C4991 1.400 . S
C4992 C4995 1.386 . S
H4993 C5009 0.930 . S
H4994 C5010 0.931 . S
C4995 H4983 0.929 . S
C4995 C4989 1.390 . S
C4995 C4992 1.386 . S
C4996 C4991 1.490 . S
C4996 C4998 1.395 . S
C4996 C4999 1.403 . S
H4997 C5003 0.930 . S
C4998 H4984 0.930 . S
C4998 C4996 1.395 . S
C4998 C5001 1.403 . S
C4999 C4996 1.403 . S
C4999 C5000 1.524 . S
C4999 C5003 1.400 . S
C5000 H4985 0.960 . S
C5000 H4986 0.960 . S
C5000 H4987 0.960 . S
C5000 C4999 1.524 . S
C5001 C4998 1.403 . S
C5001 C5002 1.392 . S
C5001 C5005 1.495 . S
C5002 C5001 1.392 . S
C5002 C5003 1.385 . S
C5002 C5004 1.478 . S
C5003 H4997 0.930 . S
C5003 C4999 1.400 . S
C5003 C5002 1.385 . S
C5004 C5002 1.478 . S
C5004 C5006 1.381 . S
C5004 C5010 1.383 . S
C5005 C5001 1.495 . S
C5005 H5011 0.959 . S
C5005 H5012 0.961 . S
C5005 H5013 0.960 . S
C5006 C5004 1.381 . S
C5006 C5007 1.394 . S
C5006 H5014 0.930 . S
C5007 C5006 1.394 . S
C5007 C5008 1.383 . S
C5007 H5015 0.929 . S
C5008 C5007 1.383 . S
C5008 C5009 1.377 . S
C5009 H4993 0.930 . S
C5009 C5008 1.377 . S
C5009 C5010 1.379 . S
C5010 H4994 0.931 . S
C5010 C5004 1.383 . S
C5010 C5009 1.379 . S
H5011 C5005 0.959 . S
H5012 C5005 0.961 . S
H5013 C5005 0.960 . S
H5014 C5006 0.930 . S
H5015 C5007 0.929 . S
H5016 C5024 0.929 . S
H5017 C5026 0.930 . S
H5018 C5028 0.930 . S
H5019 C5031 0.929 . S
H5020 C5034 0.930 . S
H5021 C5036 0.960 . S
H5022 C5036 0.960 . S
H5023 C5036 0.960 . S
C5024 H5016 0.929 . S
C5024 C5025 1.377 . S
C5024 C5026 1.384 . S
C5025 C5024 1.377 . S
C5025 C5031 1.390 . S
C5026 H5017 0.930 . S
C5026 C5024 1.384 . S
C5026 C5027 1.372 . S
C5027 C5026 1.372 . S
C5027 C5028 1.400 . S
C5027 C5032 1.490 . S
C5028 H5018 0.930 . S
C5028 C5027 1.400 . S
C5028 C5031 1.386 . S
H5029 C5045 0.930 . S
H5030 C5046 0.931 . S
C5031 H5019 0.929 . S
C5031 C5025 1.390 . S
C5031 C5028 1.386 . S
C5032 C5027 1.490 . S
C5032 C5034 1.395 . S
C5032 C5035 1.403 . S
H5033 C5039 0.930 . S
C5034 H5020 0.930 . S
C5034 C5032 1.395 . S
C5034 C5037 1.403 . S
C5035 C5032 1.403 . S
C5035 C5036 1.524 . S
C5035 C5039 1.400 . S
C5036 H5021 0.960 . S
C5036 H5022 0.960 . S
C5036 H5023 0.960 . S
C5036 C5035 1.524 . S
C5037 C5034 1.403 . S
C5037 C5038 1.392 . S
C5037 C5041 1.495 . S
C5038 C5037 1.392 . S
C5038 C5039 1.385 . S
C5038 C5040 1.478 . S
C5039 H5033 0.930 . S
C5039 C5035 1.400 . S
C5039 C5038 1.385 . S
C5040 C5038 1.478 . S
C5040 C5042 1.381 . S
C5040 C5046 1.383 . S
C5041 C5037 1.495 . S
C5041 H5047 0.959 1_455 S
C5041 H5048 0.961 1_455 S
C5041 H5049 0.960 . S
C5042 C5040 1.381 . S
C5042 C5043 1.394 . S
C5042 H5050 0.930 . S
C5043 C5042 1.394 . S
C5043 C5044 1.383 . S
C5043 H5051 0.929 . S
C5044 C5043 1.383 . S
C5044 C5045 1.377 . S
C5045 H5029 0.930 . S
C5045 C5044 1.377 . S
C5045 C5046 1.379 . S
C5046 H5030 0.931 . S
C5046 C5040 1.383 . S
C5046 C5045 1.379 . S
H5047 C5041 0.959 1_655 S
H5048 C5041 0.961 1_655 S
H5049 C5041 0.960 . S
H5050 C5042 0.930 . S
H5051 C5043 0.929 . S
H5052 C5060 0.929 . S
H5053 C5062 0.930 . S
H5054 C5064 0.930 . S
H5055 C5067 0.929 . S
H5056 C5070 0.930 . S
H5057 C5072 0.960 . S
H5058 C5072 0.960 . S
H5059 C5072 0.960 . S
C5060 H5052 0.929 . S
C5060 C5061 1.377 . S
C5060 C5062 1.384 . S
C5061 C5060 1.377 . S
C5061 C5067 1.390 . S
C5062 H5053 0.930 . S
C5062 C5060 1.384 . S
C5062 C5063 1.372 . S
C5063 C5062 1.372 . S
C5063 C5064 1.400 . S
C5063 C5068 1.490 . S
C5064 H5054 0.930 . S
C5064 C5063 1.400 . S
C5064 C5067 1.386 . S
H5065 C5081 0.930 . S
H5066 C5082 0.931 . S
C5067 H5055 0.929 . S
C5067 C5061 1.390 . S
C5067 C5064 1.386 . S
C5068 C5063 1.490 . S
C5068 C5070 1.395 . S
C5068 C5071 1.403 . S
H5069 C5075 0.930 . S
C5070 H5056 0.930 . S
C5070 C5068 1.395 . S
C5070 C5073 1.403 . S
C5071 C5068 1.403 . S
C5071 C5072 1.524 . S
C5071 C5075 1.400 . S
C5072 H5057 0.960 . S
C5072 H5058 0.960 . S
C5072 H5059 0.960 . S
C5072 C5071 1.524 . S
C5073 C5070 1.403 . S
C5073 C5074 1.392 . S
C5073 C5077 1.495 . S
C5074 C5073 1.392 . S
C5074 C5075 1.385 . S
C5074 C5076 1.478 . S
C5075 H5069 0.930 . S
C5075 C5071 1.400 . S
C5075 C5074 1.385 . S
C5076 C5074 1.478 . S
C5076 C5078 1.381 . S
C5076 C5082 1.383 . S
C5077 C5073 1.495 . S
C5077 H5083 0.959 . S
C5077 H5084 0.961 . S
C5077 H5085 0.960 . S
C5078 C5076 1.381 . S
C5078 C5079 1.394 . S
C5078 H5086 0.930 . S
C5079 C5078 1.394 . S
C5079 C5080 1.383 . S
C5079 H5087 0.929 . S
C5080 C5079 1.383 . S
C5080 C5081 1.377 . S
C5081 H5065 0.930 . S
C5081 C5080 1.377 . S
C5081 C5082 1.379 . S
C5082 H5066 0.931 . S
C5082 C5076 1.383 . S
C5082 C5081 1.379 . S
H5083 C5077 0.959 . S
H5084 C5077 0.961 . S
H5085 C5077 0.960 . S
H5086 C5078 0.930 . S
H5087 C5079 0.929 . S
H5088 C5096 0.929 . S
H5089 C5098 0.930 . S
H5090 C5100 0.930 . S
H5091 C5103 0.929 . S
H5092 C5106 0.930 . S
H5093 C5108 0.960 . S
H5094 C5108 0.960 . S
H5095 C5108 0.960 . S
C5096 H5088 0.929 . S
C5096 C5097 1.377 . S
C5096 C5098 1.384 . S
C5097 C5096 1.377 . S
C5097 C5103 1.390 . S
C5098 H5089 0.930 . S
C5098 C5096 1.384 . S
C5098 C5099 1.372 . S
C5099 C5098 1.372 . S
C5099 C5100 1.400 . S
C5099 C5104 1.490 . S
C5100 H5090 0.930 . S
C5100 C5099 1.400 . S
C5100 C5103 1.386 . S
H5101 C5117 0.930 . S
H5102 C5118 0.931 . S
C5103 H5091 0.929 . S
C5103 C5097 1.390 . S
C5103 C5100 1.386 . S
C5104 C5099 1.490 . S
C5104 C5106 1.395 . S
C5104 C5107 1.403 . S
H5105 C5111 0.930 . S
C5106 H5092 0.930 . S
C5106 C5104 1.395 . S
C5106 C5109 1.403 . S
C5107 C5104 1.403 . S
C5107 C5108 1.524 . S
C5107 C5111 1.400 . S
C5108 H5093 0.960 . S
C5108 H5094 0.960 . S
C5108 H5095 0.960 . S
C5108 C5107 1.524 . S
C5109 C5106 1.403 . S
C5109 C5110 1.392 . S
C5109 C5113 1.495 . S
C5110 C5109 1.392 . S
C5110 C5111 1.385 . S
C5110 C5112 1.478 . S
C5111 H5105 0.930 . S
C5111 C5107 1.400 . S
C5111 C5110 1.385 . S
C5112 C5110 1.478 . S
C5112 C5114 1.381 . S
C5112 C5118 1.383 . S
C5113 C5109 1.495 . S
C5113 H5119 0.959 . S
C5113 H5120 0.961 . S
C5113 H5121 0.960 . S
C5114 C5112 1.381 . S
C5114 C5115 1.394 . S
C5114 H5122 0.930 . S
C5115 C5114 1.394 . S
C5115 C5116 1.383 . S
C5115 H5123 0.929 . S
C5116 C5115 1.383 . S
C5116 C5117 1.377 . S
C5117 H5101 0.930 . S
C5117 C5116 1.377 . S
C5117 C5118 1.379 . S
C5118 H5102 0.931 . S
C5118 C5112 1.383 . S
C5118 C5117 1.379 . S
H5119 C5113 0.959 . S
H5120 C5113 0.961 . S
H5121 C5113 0.960 . S
H5122 C5114 0.930 . S
H5123 C5115 0.929 . S
H5124 C5132 0.929 . S
H5125 C5134 0.930 . S
H5126 C5136 0.930 . S
H5127 C5139 0.929 . S
H5128 C5142 0.930 . S
H5129 C5144 0.960 . S
H5130 C5144 0.960 . S
H5131 C5144 0.960 . S
C5132 H5124 0.929 . S
C5132 C5133 1.377 . S
C5132 C5134 1.384 . S
C5133 C5132 1.377 . S
C5133 C5139 1.390 . S
C5134 H5125 0.930 . S
C5134 C5132 1.384 . S
C5134 C5135 1.372 . S
C5135 C5134 1.372 . S
C5135 C5136 1.400 . S
C5135 C5140 1.490 . S
C5136 H5126 0.930 . S
C5136 C5135 1.400 . S
C5136 C5139 1.386 . S
H5137 C5153 0.930 . S
H5138 C5154 0.931 . S
C5139 H5127 0.929 . S
C5139 C5133 1.390 . S
C5139 C5136 1.386 . S
C5140 C5135 1.490 . S
C5140 C5142 1.395 . S
C5140 C5143 1.403 . S
H5141 C5147 0.930 . S
C5142 H5128 0.930 . S
C5142 C5140 1.395 . S
C5142 C5145 1.403 . S
C5143 C5140 1.403 . S
C5143 C5144 1.524 . S
C5143 C5147 1.400 . S
C5144 H5129 0.960 . S
C5144 H5130 0.960 . S
C5144 H5131 0.960 . S
C5144 C5143 1.524 . S
C5145 C5142 1.403 . S
C5145 C5146 1.392 . S
C5145 C5149 1.495 . S
C5146 C5145 1.392 . S
C5146 C5147 1.385 . S
C5146 C5148 1.478 . S
C5147 H5141 0.930 . S
C5147 C5143 1.400 . S
C5147 C5146 1.385 . S
C5148 C5146 1.478 . S
C5148 C5150 1.381 . S
C5148 C5154 1.383 . S
C5149 C5145 1.495 . S
C5149 H5155 0.959 . S
C5149 H5156 0.961 . S
C5149 H5157 0.960 . S
C5150 C5148 1.381 . S
C5150 C5151 1.394 . S
C5150 H5158 0.930 . S
C5151 C5150 1.394 . S
C5151 C5152 1.383 . S
C5151 H5159 0.929 . S
C5152 C5151 1.383 . S
C5152 C5153 1.377 . S
C5153 H5137 0.930 . S
C5153 C5152 1.377 . S
C5153 C5154 1.379 . S
C5154 H5138 0.931 . S
C5154 C5148 1.383 . S
C5154 C5153 1.379 . S
H5155 C5149 0.959 . S
H5156 C5149 0.961 . S
H5157 C5149 0.960 . S
H5158 C5150 0.930 . S
H5159 C5151 0.929 . S
H5160 C5168 0.929 . S
H5161 C5170 0.930 . S
H5162 C5172 0.930 . S
H5163 C5175 0.929 . S
H5164 C5178 0.930 . S
H5165 C5180 0.960 . S
H5166 C5180 0.960 . S
H5167 C5180 0.960 . S
C5168 H5160 0.929 . S
C5168 C5169 1.377 . S
C5168 C5170 1.384 . S
C5169 C5168 1.377 . S
C5169 C5175 1.390 . S
C5170 H5161 0.930 . S
C5170 C5168 1.384 . S
C5170 C5171 1.372 . S
C5171 C5170 1.372 . S
C5171 C5172 1.400 . S
C5171 C5176 1.490 . S
C5172 H5162 0.930 . S
C5172 C5171 1.400 . S
C5172 C5175 1.386 . S
H5173 C5189 0.930 . S
H5174 C5190 0.931 . S
C5175 H5163 0.929 . S
C5175 C5169 1.390 . S
C5175 C5172 1.386 . S
C5176 C5171 1.490 . S
C5176 C5178 1.395 . S
C5176 C5179 1.403 . S
H5177 C5183 0.930 . S
C5178 H5164 0.930 . S
C5178 C5176 1.395 . S
C5178 C5181 1.403 . S
C5179 C5176 1.403 . S
C5179 C5180 1.524 . S
C5179 C5183 1.400 . S
C5180 H5165 0.960 . S
C5180 H5166 0.960 . S
C5180 H5167 0.960 . S
C5180 C5179 1.524 . S
C5181 C5178 1.403 . S
C5181 C5182 1.392 . S
C5181 C5185 1.495 . S
C5182 C5181 1.392 . S
C5182 C5183 1.385 . S
C5182 C5184 1.478 . S
C5183 H5177 0.930 . S
C5183 C5179 1.400 . S
C5183 C5182 1.385 . S
C5184 C5182 1.478 . S
C5184 C5186 1.381 . S
C5184 C5190 1.383 . S
C5185 C5181 1.495 . S
C5185 H5191 0.959 . S
C5185 H5192 0.961 . S
C5185 H5193 0.960 . S
C5186 C5184 1.381 . S
C5186 C5187 1.394 . S
C5186 H5194 0.930 . S
C5187 C5186 1.394 . S
C5187 C5188 1.360 1_655 S
C5187 H5195 0.929 . S
C5188 C5187 1.360 1_455 S
C5188 C5189 1.386 . S
C5189 H5173 0.930 . S
C5189 C5188 1.386 . S
C5189 C5190 1.379 1_455 S
C5190 H5174 0.931 . S
C5190 C5184 1.383 . S
C5190 C5189 1.379 1_655 S
H5191 C5185 0.959 . S
H5192 C5185 0.961 . S
H5193 C5185 0.960 . S
H5194 C5186 0.930 . S
H5195 C5187 0.929 . S
H5196 C5204 0.929 . S
H5197 C5206 0.930 . S
H5198 C5208 0.930 . S
H5199 C5211 0.929 . S
H5200 C5214 0.930 . S
H5201 C5216 0.960 . S
H5202 C5216 0.960 . S
H5203 C5216 0.960 . S
C5204 H5196 0.929 . S
C5204 C5205 1.377 . S
C5204 C5206 1.384 . S
C5205 C5204 1.377 . S
C5205 C5211 1.390 . S
C5206 H5197 0.930 . S
C5206 C5204 1.384 . S
C5206 C5207 1.372 . S
C5207 C5206 1.372 . S
C5207 C5208 1.400 . S
C5207 C5212 1.490 . S
C5208 H5198 0.930 . S
C5208 C5207 1.400 . S
C5208 C5211 1.386 . S
H5209 C5225 0.930 . S
H5210 C5226 0.931 . S
C5211 H5199 0.929 . S
C5211 C5205 1.390 . S
C5211 C5208 1.386 . S
C5212 C5207 1.490 . S
C5212 C5214 1.395 . S
C5212 C5215 1.403 . S
H5213 C5219 0.930 . S
C5214 H5200 0.930 . S
C5214 C5212 1.395 . S
C5214 C5217 1.403 . S
C5215 C5212 1.403 . S
C5215 C5216 1.524 . S
C5215 C5219 1.400 . S
C5216 H5201 0.960 . S
C5216 H5202 0.960 . S
C5216 H5203 0.960 . S
C5216 C5215 1.524 . S
C5217 C5214 1.403 . S
C5217 C5218 1.392 . S
C5217 C5221 1.495 . S
C5218 C5217 1.392 . S
C5218 C5219 1.385 . S
C5218 C5220 1.478 . S
C5219 H5213 0.930 . S
C5219 C5215 1.400 . S
C5219 C5218 1.385 . S
C5220 C5218 1.478 . S
C5220 C5222 1.381 . S
C5220 C5226 1.383 . S
C5221 C5217 1.495 . S
C5221 H5227 0.959 . S
C5221 H5228 0.961 . S
C5221 H5229 0.960 . S
C5222 C5220 1.381 . S
C5222 C5223 1.394 . S
C5222 H5230 0.930 . S
C5223 C5222 1.394 . S
C5223 C5224 1.383 . S
C5223 H5231 0.929 . S
C5224 C5223 1.383 . S
C5224 C5225 1.377 . S
C5225 H5209 0.930 . S
C5225 C5224 1.377 . S
C5225 C5226 1.379 . S
C5226 H5210 0.931 . S
C5226 C5220 1.383 . S
C5226 C5225 1.379 . S
H5227 C5221 0.959 . S
H5228 C5221 0.961 . S
H5229 C5221 0.960 . S
H5230 C5222 0.930 . S
H5231 C5223 0.929 . S
H5232 C5240 0.929 . S
H5233 C5242 0.930 . S
H5234 C5244 0.930 . S
H5235 C5247 0.929 . S
H5236 C5250 0.930 . S
H5237 C5252 0.960 . S
H5238 C5252 0.960 . S
H5239 C5252 0.960 . S
C5240 H5232 0.929 . S
C5240 C5241 1.377 . S
C5240 C5242 1.384 . S
C5241 C5240 1.377 . S
C5241 C5247 1.390 . S
C5242 H5233 0.930 . S
C5242 C5240 1.384 . S
C5242 C5243 1.372 . S
C5243 C5242 1.372 . S
C5243 C5244 1.400 . S
C5243 C5248 1.490 . S
C5244 H5234 0.930 . S
C5244 C5243 1.400 . S
C5244 C5247 1.386 . S
H5245 C5261 0.930 . S
H5246 C5262 0.931 . S
C5247 H5235 0.929 . S
C5247 C5241 1.390 . S
C5247 C5244 1.386 . S
C5248 C5243 1.490 . S
C5248 C5250 1.395 . S
C5248 C5251 1.403 . S
H5249 C5255 0.930 . S
C5250 H5236 0.930 . S
C5250 C5248 1.395 . S
C5250 C5253 1.403 . S
C5251 C5248 1.403 . S
C5251 C5252 1.524 . S
C5251 C5255 1.400 . S
C5252 H5237 0.960 . S
C5252 H5238 0.960 . S
C5252 H5239 0.960 . S
C5252 C5251 1.524 . S
C5253 C5250 1.403 . S
C5253 C5254 1.392 . S
C5253 C5257 1.495 . S
C5254 C5253 1.392 . S
C5254 C5255 1.385 . S
C5254 C5256 1.478 . S
C5255 H5249 0.930 . S
C5255 C5251 1.400 . S
C5255 C5254 1.385 . S
C5256 C5254 1.478 . S
C5256 C5258 1.381 . S
C5256 C5262 1.383 . S
C5257 C5253 1.495 . S
C5257 H5263 0.959 . S
C5257 H5264 0.961 . S
C5257 H5265 0.960 . S
C5258 C5256 1.381 . S
C5258 C5259 1.394 . S
C5258 H5266 0.930 . S
C5259 C5258 1.394 . S
C5259 C5260 1.383 . S
C5259 H5267 0.929 . S
C5260 C5259 1.383 . S
C5260 C5261 1.377 . S
C5261 H5245 0.930 . S
C5261 C5260 1.377 . S
C5261 C5262 1.379 . S
C5262 H5246 0.931 . S
C5262 C5256 1.383 . S
C5262 C5261 1.379 . S
H5263 C5257 0.959 . S
H5264 C5257 0.961 . S
H5265 C5257 0.960 . S
H5266 C5258 0.930 . S
H5267 C5259 0.929 . S
H5268 C5276 0.929 . S
H5269 C5278 0.930 . S
H5270 C5280 0.930 . S
H5271 C5283 0.929 . S
H5272 C5286 0.930 . S
H5273 C5288 0.960 . S
H5274 C5288 0.960 . S
H5275 C5288 0.960 . S
C5276 H5268 0.929 . S
C5276 C5277 1.377 . S
C5276 C5278 1.384 . S
C5277 C5276 1.377 . S
C5277 C5283 1.390 . S
C5278 H5269 0.930 . S
C5278 C5276 1.384 . S
C5278 C5279 1.372 . S
C5279 C5278 1.372 . S
C5279 C5280 1.400 . S
C5279 C5284 1.490 . S
C5280 H5270 0.930 . S
C5280 C5279 1.400 . S
C5280 C5283 1.386 . S
H5281 C5297 0.930 . S
H5282 C5298 0.931 . S
C5283 H5271 0.929 . S
C5283 C5277 1.390 . S
C5283 C5280 1.386 . S
C5284 C5279 1.490 . S
C5284 C5286 1.395 . S
C5284 C5287 1.403 . S
H5285 C5291 0.930 . S
C5286 H5272 0.930 . S
C5286 C5284 1.395 . S
C5286 C5289 1.403 . S
C5287 C5284 1.403 . S
C5287 C5288 1.524 . S
C5287 C5291 1.400 . S
C5288 H5273 0.960 . S
C5288 H5274 0.960 . S
C5288 H5275 0.960 . S
C5288 C5287 1.524 . S
C5289 C5286 1.403 . S
C5289 C5290 1.392 . S
C5289 C5293 1.495 . S
C5290 C5289 1.392 . S
C5290 C5291 1.385 . S
C5290 C5292 1.478 . S
C5291 H5285 0.930 . S
C5291 C5287 1.400 . S
C5291 C5290 1.385 . S
C5292 C5290 1.478 . S
C5292 C5294 1.381 . S
C5292 C5298 1.383 . S
C5293 C5289 1.495 . S
C5293 H5299 0.959 . S
C5293 H5300 0.961 . S
C5293 H5301 0.960 . S
C5294 C5292 1.381 . S
C5294 C5295 1.394 . S
C5294 H5302 0.930 . S
C5295 C5294 1.394 . S
C5295 C5296 1.383 . S
C5295 H5303 0.929 . S
C5296 C5295 1.383 . S
C5296 C5297 1.377 . S
C5297 H5281 0.930 . S
C5297 C5296 1.377 . S
C5297 C5298 1.379 . S
C5298 H5282 0.931 . S
C5298 C5292 1.383 . S
C5298 C5297 1.379 . S
H5299 C5293 0.959 . S
H5300 C5293 0.961 . S
H5301 C5293 0.960 . S
H5302 C5294 0.930 . S
H5303 C5295 0.929 . S
H5304 C5312 0.929 . S
H5305 C5314 0.930 . S
H5306 C5316 0.930 . S
H5307 C5319 0.929 . S
H5308 C5322 0.930 . S
H5309 C5324 0.960 . S
H5310 C5324 0.960 . S
H5311 C5324 0.960 . S
C5312 H5304 0.929 . S
C5312 C5313 1.377 . S
C5312 C5314 1.384 . S
C5313 C5312 1.377 . S
C5313 C5319 1.390 . S
C5314 H5305 0.930 . S
C5314 C5312 1.384 . S
C5314 C5315 1.372 . S
C5315 C5314 1.372 . S
C5315 C5316 1.400 . S
C5315 C5320 1.490 . S
C5316 H5306 0.930 . S
C5316 C5315 1.400 . S
C5316 C5319 1.386 . S
H5317 C5333 0.930 . S
H5318 C5334 0.931 . S
C5319 H5307 0.929 . S
C5319 C5313 1.390 . S
C5319 C5316 1.386 . S
C5320 C5315 1.490 . S
C5320 C5322 1.395 . S
C5320 C5323 1.403 . S
H5321 C5327 0.930 . S
C5322 H5308 0.930 . S
C5322 C5320 1.395 . S
C5322 C5325 1.403 . S
C5323 C5320 1.403 . S
C5323 C5324 1.524 . S
C5323 C5327 1.400 . S
C5324 H5309 0.960 . S
C5324 H5310 0.960 . S
C5324 H5311 0.960 . S
C5324 C5323 1.524 . S
C5325 C5322 1.403 . S
C5325 C5326 1.392 . S
C5325 C5329 1.495 . S
C5326 C5325 1.392 . S
C5326 C5327 1.385 . S
C5326 C5328 1.478 . S
C5327 H5321 0.930 . S
C5327 C5323 1.400 . S
C5327 C5326 1.385 . S
C5328 C5326 1.478 . S
C5328 C5330 1.381 . S
C5328 C5334 1.383 . S
C5329 C5325 1.495 . S
C5329 H5335 0.959 . S
C5329 H5336 0.961 . S
C5329 H5337 0.960 . S
C5330 C5328 1.381 . S
C5330 C5331 1.394 . S
C5330 H5338 0.930 . S
C5331 C5330 1.394 . S
C5331 C5332 1.383 . S
C5331 H5339 0.929 . S
C5332 C5331 1.383 . S
C5332 C5333 1.377 . S
C5333 H5317 0.930 . S
C5333 C5332 1.377 . S
C5333 C5334 1.379 . S
C5334 H5318 0.931 . S
C5334 C5328 1.383 . S
C5334 C5333 1.379 . S
H5335 C5329 0.959 . S
H5336 C5329 0.961 . S
H5337 C5329 0.960 . S
H5338 C5330 0.930 . S
H5339 C5331 0.929 . S
H5340 C5348 0.929 . S
H5341 C5350 0.930 . S
H5342 C5352 0.930 . S
H5343 C5355 0.929 . S
H5344 C5358 0.930 . S
H5345 C5360 0.960 . S
H5346 C5360 0.960 . S
H5347 C5360 0.960 . S
C5348 H5340 0.929 . S
C5348 C5349 1.377 . S
C5348 C5350 1.384 . S
C5349 C5348 1.377 . S
C5349 C5355 1.390 . S
C5350 H5341 0.930 . S
C5350 C5348 1.384 . S
C5350 C5351 1.372 . S
C5351 C5350 1.372 . S
C5351 C5352 1.400 . S
C5351 C5356 1.490 . S
C5352 H5342 0.930 . S
C5352 C5351 1.400 . S
C5352 C5355 1.386 . S
H5353 C5369 0.930 . S
H5354 C5370 0.931 . S
C5355 H5343 0.929 . S
C5355 C5349 1.390 . S
C5355 C5352 1.386 . S
C5356 C5351 1.490 . S
C5356 C5358 1.395 . S
C5356 C5359 1.403 . S
H5357 C5363 0.930 . S
C5358 H5344 0.930 . S
C5358 C5356 1.395 . S
C5358 C5361 1.403 . S
C5359 C5356 1.403 . S
C5359 C5360 1.524 . S
C5359 C5363 1.400 . S
C5360 H5345 0.960 . S
C5360 H5346 0.960 . S
C5360 H5347 0.960 . S
C5360 C5359 1.524 . S
C5361 C5358 1.403 . S
C5361 C5362 1.392 . S
C5361 C5365 1.495 . S
C5362 C5361 1.392 . S
C5362 C5363 1.385 . S
C5362 C5364 1.478 . S
C5363 H5357 0.930 . S
C5363 C5359 1.400 . S
C5363 C5362 1.385 . S
C5364 C5362 1.478 . S
C5364 C5366 1.381 . S
C5364 C5370 1.383 . S
C5365 C5361 1.495 . S
C5365 H5371 0.959 . S
C5365 H5372 0.961 . S
C5365 H5373 0.960 . S
C5366 C5364 1.381 . S
C5366 C5367 1.394 . S
C5366 H5374 0.930 . S
C5367 C5366 1.394 . S
C5367 C5368 1.383 . S
C5367 H5375 0.929 . S
C5368 C5367 1.383 . S
C5368 C5369 1.377 . S
C5369 H5353 0.930 . S
C5369 C5368 1.377 . S
C5369 C5370 1.379 . S
C5370 H5354 0.931 . S
C5370 C5364 1.383 . S
C5370 C5369 1.379 . S
H5371 C5365 0.959 . S
H5372 C5365 0.961 . S
H5373 C5365 0.960 . S
H5374 C5366 0.930 . S
H5375 C5367 0.929 . S
H5376 C5384 0.929 . S
H5377 C5386 0.930 . S
H5378 C5388 0.930 . S
H5379 C5391 0.929 . S
H5380 C5394 0.930 . S
H5381 C5396 0.960 . S
H5382 C5396 0.960 . S
H5383 C5396 0.960 . S
C5384 H5376 0.929 . S
C5384 C5385 1.377 . S
C5384 C5386 1.384 . S
C5385 C5384 1.377 . S
C5385 C5391 1.390 . S
C5386 H5377 0.930 . S
C5386 C5384 1.384 . S
C5386 C5387 1.372 . S
C5387 C5386 1.372 . S
C5387 C5388 1.400 . S
C5387 C5392 1.490 . S
C5388 H5378 0.930 . S
C5388 C5387 1.400 . S
C5388 C5391 1.386 . S
H5389 C5405 0.930 . S
H5390 C5406 0.931 . S
C5391 H5379 0.929 . S
C5391 C5385 1.390 . S
C5391 C5388 1.386 . S
C5392 C5387 1.490 . S
C5392 C5394 1.395 . S
C5392 C5395 1.403 . S
H5393 C5399 0.930 . S
C5394 H5380 0.930 . S
C5394 C5392 1.395 . S
C5394 C5397 1.403 . S
C5395 C5392 1.403 . S
C5395 C5396 1.524 . S
C5395 C5399 1.400 . S
C5396 H5381 0.960 . S
C5396 H5382 0.960 . S
C5396 H5383 0.960 . S
C5396 C5395 1.524 . S
C5397 C5394 1.403 . S
C5397 C5398 1.392 . S
C5397 C5401 1.495 . S
C5398 C5397 1.392 . S
C5398 C5399 1.385 . S
C5398 C5400 1.478 . S
C5399 H5393 0.930 . S
C5399 C5395 1.400 . S
C5399 C5398 1.385 . S
C5400 C5398 1.478 . S
C5400 C5402 1.381 . S
C5400 C5406 1.383 . S
C5401 C5397 1.495 . S
C5401 H5407 0.959 . S
C5401 H5408 0.961 . S
C5401 H5409 0.960 . S
C5402 C5400 1.381 . S
C5402 C5403 1.394 . S
C5402 H5410 0.930 . S
C5403 C5402 1.394 . S
C5403 C5404 1.383 . S
C5403 H5411 0.929 . S
C5404 C5403 1.383 . S
C5404 C5405 1.377 . S
C5405 H5389 0.930 . S
C5405 C5404 1.377 . S
C5405 C5406 1.379 . S
C5406 H5390 0.931 . S
C5406 C5400 1.383 . S
C5406 C5405 1.379 . S
H5407 C5401 0.959 . S
H5408 C5401 0.961 . S
H5409 C5401 0.960 . S
H5410 C5402 0.930 . S
H5411 C5403 0.929 . S
H5412 C5420 0.929 . S
H5413 C5422 0.930 . S
H5414 C5424 0.930 . S
H5415 C5427 0.929 . S
H5416 C5430 0.930 . S
H5417 C5432 0.960 . S
H5418 C5432 0.960 . S
H5419 C5432 0.960 . S
C5420 H5412 0.929 . S
C5420 C5421 1.377 . S
C5420 C5422 1.384 . S
C5421 C5420 1.377 . S
C5421 C5427 1.390 . S
C5422 H5413 0.930 . S
C5422 C5420 1.384 . S
C5422 C5423 1.372 . S
C5423 C5422 1.372 . S
C5423 C5424 1.400 . S
C5423 C5428 1.490 . S
C5424 H5414 0.930 . S
C5424 C5423 1.400 . S
C5424 C5427 1.386 . S
H5425 C5441 0.930 . S
H5426 C5442 0.931 . S
C5427 H5415 0.929 . S
C5427 C5421 1.390 . S
C5427 C5424 1.386 . S
C5428 C5423 1.490 . S
C5428 C5430 1.395 . S
C5428 C5431 1.403 . S
H5429 C5435 0.930 . S
C5430 H5416 0.930 . S
C5430 C5428 1.395 . S
C5430 C5433 1.403 . S
C5431 C5428 1.403 . S
C5431 C5432 1.524 . S
C5431 C5435 1.400 . S
C5432 H5417 0.960 . S
C5432 H5418 0.960 . S
C5432 H5419 0.960 . S
C5432 C5431 1.524 . S
C5433 C5430 1.403 . S
C5433 C5434 1.392 . S
C5433 C5437 1.495 . S
C5434 C5433 1.392 . S
C5434 C5435 1.385 . S
C5434 C5436 1.478 . S
C5435 H5429 0.930 . S
C5435 C5431 1.400 . S
C5435 C5434 1.385 . S
C5436 C5434 1.478 . S
C5436 C5438 1.381 . S
C5436 C5442 1.383 . S
C5437 C5433 1.495 . S
C5437 H5443 0.959 . S
C5437 H5444 0.961 . S
C5437 H5445 0.960 . S
C5438 C5436 1.381 . S
C5438 C5439 1.394 . S
C5438 H5446 0.930 . S
C5439 C5438 1.394 . S
C5439 C5440 1.383 . S
C5439 H5447 0.929 1_565 S
C5440 C5439 1.383 . S
C5440 C5441 1.377 . S
C5441 H5425 0.930 . S
C5441 C5440 1.377 . S
C5441 C5442 1.379 . S
C5442 H5426 0.931 . S
C5442 C5436 1.383 . S
C5442 C5441 1.379 . S
H5443 C5437 0.959 . S
H5444 C5437 0.961 . S
H5445 C5437 0.960 . S
H5446 C5438 0.930 . S
H5447 C5439 0.929 1_545 S
H5448 C5456 0.929 . S
H5449 C5458 0.930 . S
H5450 C5460 0.930 . S
H5451 C5463 0.929 . S
H5452 C5466 0.930 . S
H5453 C5468 0.960 . S
H5454 C5468 0.960 . S
H5455 C5468 0.960 . S
C5456 H5448 0.929 . S
C5456 C5457 1.377 . S
C5456 C5458 1.384 . S
C5457 C5456 1.377 . S
C5457 C5463 1.390 . S
C5458 H5449 0.930 . S
C5458 C5456 1.384 . S
C5458 C5459 1.372 . S
C5459 C5458 1.372 . S
C5459 C5460 1.400 . S
C5459 C5464 1.490 . S
C5460 H5450 0.930 . S
C5460 C5459 1.400 . S
C5460 C5463 1.386 . S
H5461 C5477 0.930 . S
H5462 C5478 0.931 . S
C5463 H5451 0.929 . S
C5463 C5457 1.390 . S
C5463 C5460 1.386 . S
C5464 C5459 1.490 . S
C5464 C5466 1.395 . S
C5464 C5467 1.403 . S
H5465 C5471 0.930 . S
C5466 H5452 0.930 . S
C5466 C5464 1.395 . S
C5466 C5469 1.403 . S
C5467 C5464 1.403 . S
C5467 C5468 1.524 . S
C5467 C5471 1.400 . S
C5468 H5453 0.960 . S
C5468 H5454 0.960 . S
C5468 H5455 0.960 . S
C5468 C5467 1.524 . S
C5469 C5466 1.403 . S
C5469 C5470 1.392 . S
C5469 C5473 1.495 . S
C5470 C5469 1.392 . S
C5470 C5471 1.385 . S
C5470 C5472 1.478 . S
C5471 H5465 0.930 . S
C5471 C5467 1.400 . S
C5471 C5470 1.385 . S
C5472 C5470 1.478 . S
C5472 C5474 1.381 . S
C5472 C5478 1.383 . S
C5473 C5469 1.495 . S
C5473 H5479 0.959 . S
C5473 H5480 0.961 . S
C5473 H5481 0.960 . S
C5474 C5472 1.381 . S
C5474 C5475 1.394 . S
C5474 H5482 0.930 . S
C5475 C5474 1.394 . S
C5475 C5476 1.383 . S
C5475 H5483 0.929 . S
C5476 C5475 1.383 . S
C5476 C5477 1.377 . S
C5477 H5461 0.930 . S
C5477 C5476 1.377 . S
C5477 C5478 1.379 . S
C5478 H5462 0.931 . S
C5478 C5472 1.383 . S
C5478 C5477 1.379 . S
H5479 C5473 0.959 . S
H5480 C5473 0.961 . S
H5481 C5473 0.960 . S
H5482 C5474 0.930 . S
H5483 C5475 0.929 . S
H5484 C5492 0.929 . S
H5485 C5494 0.930 . S
H5486 C5496 0.930 . S
H5487 C5499 0.929 . S
H5488 C5502 0.930 . S
H5489 C5504 0.960 . S
H5490 C5504 0.960 . S
H5491 C5504 0.960 . S
C5492 H5484 0.929 . S
C5492 C5493 1.377 . S
C5492 C5494 1.384 . S
C5493 C5492 1.377 . S
C5493 C5499 1.390 . S
C5494 H5485 0.930 . S
C5494 C5492 1.384 . S
C5494 C5495 1.372 . S
C5495 C5494 1.372 . S
C5495 C5496 1.400 . S
C5495 C5500 1.490 . S
C5496 H5486 0.930 . S
C5496 C5495 1.400 . S
C5496 C5499 1.386 . S
H5497 C5513 0.930 . S
H5498 C5514 0.931 . S
C5499 H5487 0.929 . S
C5499 C5493 1.390 . S
C5499 C5496 1.386 . S
C5500 C5495 1.490 . S
C5500 C5502 1.395 . S
C5500 C5503 1.403 . S
H5501 C5507 0.930 . S
C5502 H5488 0.930 . S
C5502 C5500 1.395 . S
C5502 C5505 1.403 . S
C5503 C5500 1.403 . S
C5503 C5504 1.524 . S
C5503 C5507 1.400 . S
C5504 H5489 0.960 . S
C5504 H5490 0.960 . S
C5504 H5491 0.960 . S
C5504 C5503 1.524 . S
C5505 C5502 1.403 . S
C5505 C5506 1.392 . S
C5505 C5509 1.495 . S
C5506 C5505 1.392 . S
C5506 C5507 1.385 . S
C5506 C5508 1.478 . S
C5507 H5501 0.930 . S
C5507 C5503 1.400 . S
C5507 C5506 1.385 . S
C5508 C5506 1.478 . S
C5508 C5510 1.381 . S
C5508 C5514 1.383 . S
C5509 C5505 1.495 . S
C5509 H5515 0.959 1_554 S
C5509 H5516 0.961 . S
C5509 H5517 0.960 1_554 S
C5510 C5508 1.381 . S
C5510 C5511 1.394 . S
C5510 H5518 0.930 . S
C5511 C5510 1.394 . S
C5511 C5512 1.383 . S
C5511 H5519 0.966 . S
C5512 C5511 1.383 . S
C5512 C5513 1.377 . S
C5513 H5497 0.930 . S
C5513 C5512 1.377 . S
C5513 C5514 1.379 . S
C5514 H5498 0.931 . S
C5514 C5508 1.383 . S
C5514 C5513 1.379 . S
H5515 C5509 0.959 1_556 S
H5516 C5509 0.961 . S
H5517 C5509 0.960 1_556 S
H5518 C5510 0.930 . S
H5519 C5511 0.966 . S
H5520 C5528 0.929 . S
H5521 C5530 0.930 . S
H5522 C5532 0.930 . S
H5523 C5535 0.929 . S
H5524 C5538 0.930 . S
H5525 C5540 0.960 . S
H5526 C5540 0.960 . S
H5527 C5540 0.960 . S
C5528 H5520 0.929 . S
C5528 C5529 1.377 . S
C5528 C5530 1.384 . S
C5529 C5528 1.377 . S
C5529 C5535 1.390 . S
C5530 H5521 0.930 . S
C5530 C5528 1.384 . S
C5530 C5531 1.372 . S
C5531 C5530 1.372 . S
C5531 C5532 1.400 . S
C5531 C5536 1.490 . S
C5532 H5522 0.930 . S
C5532 C5531 1.400 . S
C5532 C5535 1.386 . S
H5533 C5549 0.930 . S
H5534 C5550 0.931 . S
C5535 H5523 0.929 . S
C5535 C5529 1.390 . S
C5535 C5532 1.386 . S
C5536 C5531 1.490 . S
C5536 C5538 1.395 . S
C5536 C5539 1.403 . S
H5537 C5543 0.930 . S
C5538 H5524 0.930 . S
C5538 C5536 1.395 . S
C5538 C5541 1.403 . S
C5539 C5536 1.403 . S
C5539 C5540 1.524 . S
C5539 C5543 1.400 . S
C5540 H5525 0.960 . S
C5540 H5526 0.960 . S
C5540 H5527 0.960 . S
C5540 C5539 1.524 . S
C5541 C5538 1.403 . S
C5541 C5542 1.392 . S
C5541 C5545 1.495 . S
C5542 C5541 1.392 . S
C5542 C5543 1.385 . S
C5542 C5544 1.478 . S
C5543 H5537 0.930 . S
C5543 C5539 1.400 . S
C5543 C5542 1.385 . S
C5544 C5542 1.478 . S
C5544 C5546 1.381 . S
C5544 C5550 1.383 . S
C5545 C5541 1.495 . S
C5545 H5551 0.959 . S
C5545 H5552 0.961 . S
C5545 H5553 0.960 . S
C5546 C5544 1.381 . S
C5546 C5547 1.394 . S
C5546 H5554 0.930 . S
C5547 C5546 1.394 . S
C5547 C5548 1.383 . S
C5547 H5555 0.929 . S
C5548 C5547 1.383 . S
C5548 C5549 1.377 . S
C5549 H5533 0.930 . S
C5549 C5548 1.377 . S
C5549 C5550 1.379 . S
C5550 H5534 0.931 . S
C5550 C5544 1.383 . S
C5550 C5549 1.379 . S
H5551 C5545 0.959 . S
H5552 C5545 0.961 . S
H5553 C5545 0.960 . S
H5554 C5546 0.930 . S
H5555 C5547 0.929 . S
H5556 C5564 0.929 . S
H5557 C5566 0.978 . S
H5558 C5568 0.930 . S
H5559 C5571 0.929 . S
H5560 C5574 0.930 . S
H5561 C5576 0.960 . S
H5562 C5576 0.960 . S
H5563 C5576 0.960 . S
C5564 H5556 0.929 . S
C5564 C5565 1.377 . S
C5564 C5566 1.384 . S
C5565 C5564 1.377 . S
C5565 C5571 1.390 . S
C5566 H5557 0.978 . S
C5566 C5564 1.384 . S
C5566 C5567 1.372 . S
C5567 C5566 1.372 . S
C5567 C5568 1.400 . S
C5567 C5572 1.490 . S
C5568 H5558 0.930 . S
C5568 C5567 1.400 . S
C5568 C5571 1.386 . S
H5569 C5585 0.930 . S
H5570 C5586 0.931 . S
C5571 H5559 0.929 . S
C5571 C5565 1.390 . S
C5571 C5568 1.386 . S
C5572 C5567 1.490 . S
C5572 C5574 1.395 . S
C5572 C5575 1.403 . S
H5573 C5579 0.930 . S
C5574 H5560 0.930 . S
C5574 C5572 1.395 . S
C5574 C5577 1.403 . S
C5575 C5572 1.403 . S
C5575 C5576 1.524 . S
C5575 C5579 1.400 . S
C5576 H5561 0.960 . S
C5576 H5562 0.960 . S
C5576 H5563 0.960 . S
C5576 C5575 1.524 . S
C5577 C5574 1.403 . S
C5577 C5578 1.392 . S
C5577 C5581 1.495 . S
C5578 C5577 1.392 . S
C5578 C5579 1.385 . S
C5578 C5580 1.478 . S
C5579 H5573 0.930 . S
C5579 C5575 1.400 . S
C5579 C5578 1.385 . S
C5580 C5578 1.478 . S
C5580 C5582 1.381 . S
C5580 C5586 1.383 . S
C5581 C5577 1.495 . S
C5581 H5587 0.959 . S
C5581 H5588 0.961 . S
C5581 H5589 0.960 1_554 S
C5582 C5580 1.381 . S
C5582 C5583 1.394 . S
C5582 H5590 0.930 1_554 S
C5583 C5582 1.394 . S
C5583 C5584 1.383 . S
C5583 H5591 0.929 1_554 S
C5584 C5583 1.383 . S
C5584 C5585 1.377 . S
C5585 H5569 0.930 . S
C5585 C5584 1.377 . S
C5585 C5586 1.379 . S
C5586 H5570 0.931 . S
C5586 C5580 1.383 . S
C5586 C5585 1.379 . S
H5587 C5581 0.959 . S
H5588 C5581 0.961 . S
H5589 C5581 0.960 1_556 S
H5590 C5582 0.930 1_556 S
H5591 C5583 0.929 1_556 S
H5592 C5600 0.929 . S
H5593 C5602 0.930 . S
H5594 C5604 0.930 . S
H5595 C5607 0.929 . S
H5596 C5610 0.930 . S
H5597 C5612 0.960 . S
H5598 C5612 0.960 . S
H5599 C5612 0.960 . S
C5600 H5592 0.929 . S
C5600 C5601 1.377 . S
C5600 C5602 1.384 . S
C5601 C5600 1.377 . S
C5601 C5607 1.390 . S
C5602 H5593 0.930 . S
C5602 C5600 1.384 . S
C5602 C5603 1.372 . S
C5603 C5602 1.372 . S
C5603 C5604 1.400 . S
C5603 C5608 1.490 . S
C5604 H5594 0.930 . S
C5604 C5603 1.400 . S
C5604 C5607 1.386 . S
H5605 C5621 0.930 . S
H5606 C5622 0.931 . S
C5607 H5595 0.929 . S
C5607 C5601 1.390 . S
C5607 C5604 1.386 . S
C5608 C5603 1.490 . S
C5608 C5610 1.395 . S
C5608 C5611 1.403 . S
H5609 C5615 0.930 . S
C5610 H5596 0.930 . S
C5610 C5608 1.395 . S
C5610 C5613 1.403 . S
C5611 C5608 1.403 . S
C5611 C5612 1.524 . S
C5611 C5615 1.400 . S
C5612 H5597 0.960 . S
C5612 H5598 0.960 . S
C5612 H5599 0.960 . S
C5612 C5611 1.524 . S
C5613 C5610 1.403 . S
C5613 C5614 1.392 . S
C5613 C5617 1.495 . S
C5614 C5613 1.392 . S
C5614 C5615 1.385 . S
C5614 C5616 1.478 . S
C5615 H5609 0.930 . S
C5615 C5611 1.400 . S
C5615 C5614 1.385 . S
C5616 C5614 1.478 . S
C5616 C5618 1.381 . S
C5616 C5622 1.383 . S
C5617 C5613 1.495 . S
C5617 H5623 0.959 . S
C5617 H5624 0.961 . S
C5617 H5625 0.960 . S
C5618 C5616 1.381 . S
C5618 C5619 1.394 . S
C5618 H5626 0.930 . S
C5619 C5618 1.394 . S
C5619 C5620 1.383 . S
C5619 H5627 0.929 . S
C5620 C5619 1.383 . S
C5620 C5621 1.377 . S
C5621 H5605 0.930 . S
C5621 C5620 1.377 . S
C5621 C5622 1.379 . S
C5622 H5606 0.931 . S
C5622 C5616 1.383 . S
C5622 C5621 1.379 . S
H5623 C5617 0.959 . S
H5624 C5617 0.961 . S
H5625 C5617 0.960 . S
H5626 C5618 0.930 . S
H5627 C5619 0.929 . S
H5628 C5636 0.929 . S
H5629 C5638 0.930 . S
H5630 C5640 0.930 . S
H5631 C5643 0.929 . S
H5632 C5646 0.930 . S
H5633 C5648 0.960 . S
H5634 C5648 0.960 . S
H5635 C5648 0.960 . S
C5636 H5628 0.929 . S
C5636 C5637 1.377 . S
C5636 C5638 1.384 . S
C5637 C5636 1.377 . S
C5637 C5643 1.390 . S
C5638 H5629 0.930 . S
C5638 C5636 1.384 . S
C5638 C5639 1.372 . S
C5639 C5638 1.372 . S
C5639 C5640 1.400 . S
C5639 C5644 1.490 . S
C5640 H5630 0.930 . S
C5640 C5639 1.400 . S
C5640 C5643 1.386 . S
H5641 C5657 0.930 . S
H5642 C5658 0.931 . S
C5643 H5631 0.929 . S
C5643 C5637 1.390 . S
C5643 C5640 1.386 . S
C5644 C5639 1.490 . S
C5644 C5646 1.395 . S
C5644 C5647 1.403 . S
H5645 C5651 0.930 . S
C5646 H5632 0.930 . S
C5646 C5644 1.395 . S
C5646 C5649 1.403 . S
C5647 C5644 1.403 . S
C5647 C5648 1.524 . S
C5647 C5651 1.400 . S
C5648 H5633 0.960 . S
C5648 H5634 0.960 . S
C5648 H5635 0.960 . S
C5648 C5647 1.524 . S
C5649 C5646 1.403 . S
C5649 C5650 1.392 . S
C5649 C5653 1.495 . S
C5650 C5649 1.392 . S
C5650 C5651 1.385 . S
C5650 C5652 1.478 . S
C5651 H5645 0.930 . S
C5651 C5647 1.400 . S
C5651 C5650 1.385 . S
C5652 C5650 1.478 . S
C5652 C5654 1.381 . S
C5652 C5658 1.383 . S
C5653 C5649 1.495 . S
C5653 H5659 0.959 . S
C5653 H5660 0.961 . S
C5653 H5661 0.960 . S
C5654 C5652 1.381 . S
C5654 C5655 1.394 . S
C5654 H5662 0.930 . S
C5655 C5654 1.394 . S
C5655 C5656 1.383 . S
C5655 H5663 0.929 . S
C5656 C5655 1.383 . S
C5656 C5657 1.377 . S
C5657 H5641 0.930 . S
C5657 C5656 1.377 . S
C5657 C5658 1.379 . S
C5658 H5642 0.931 . S
C5658 C5652 1.383 . S
C5658 C5657 1.379 . S
H5659 C5653 0.959 . S
H5660 C5653 0.961 . S
H5661 C5653 0.960 . S
H5662 C5654 0.930 . S
H5663 C5655 0.929 . S
C2217 C255 1.941 . S
C2236 C920 1.955 . S
C2253 C147 1.818 . S
C2272 C1022 1.806 . S
C2289 C184 1.707 . S
C2308 C1088 1.736 . S
C2344 C1174 1.472 . S
C2325 C220 1.586 . S
C2361 C40 1.548 . S
C2380 C1258 1.409 . S
C2416 C1340 1.826 . S
C2397 C74 1.797 . S
C2452 C1442 1.838 . S
C2433 C110 1.857 . S
C2469 C14 1.892 . S
C2488 C1508 1.893 . S
C2524 C938 1.575 . S
C2505 C579 1.629 . S
C2541 C616 0.904 . S
C2560 C1006 0.920 . S
C2596 C1106 1.152 . S
C2577 C687 1.143 . S
C2632 C1172 1.645 . S
C2613 C436 1.641 . S
C2649 C580 1.613 . S
C2668 C1256 1.626 . S
C2704 C1358 1.080 . S
C2685 C615 1.113 . S
C2740 C1426 0.809 . S
C2721 C688 0.898 . S
C2776 C1526 1.562 . S
C2757 C435 1.608 . S
C2812 C922 0.836 . S
C2793 C410 0.900 . S
C2829 C722 1.734 . S
C2848 C1610 1.695 . S
C2884 C1678 1.318 . S
C2865 C842 1.390 . S
C2920 C1760 0.824 . S
C2901 C794 0.819 . S
C2937 C302 0.916 . S
C2956 C1510 0.855 . S
C2973 C338 1.357 . S
C2992 C1090 1.324 . S
C3009 C830 1.763 . S
C3028 C1862 1.749 . S
C3064 C1928 0.879 . S
C3045 C758 0.882 . S
C3100 C931 1.901 . S
C3081 C158 1.808 . S
C3136 C1935 1.762 . S
C3117 C254 1.789 . S
C3153 C218 1.703 . S
C3172 C1099 1.734 . S
C3189 C194 1.495 . S
C3208 C1857 1.396 . S
C3244 C1269 1.424 . S
C3225 C3 1.521 . S
C3261 C111 1.651 . S
C3280 C1687 1.649 . S
C3316 C1431 1.779 1_556 S
C3297 C76 1.799 . S
C3352 C2023 1.964 . S
C3333 C50 1.872 . S
C3388 C927 1.544 . S
C3369 C364 1.568 . S
C3424 C1941 0.771 . S
C3405 C795 0.846 . S
C3441 C292 1.077 . S
C3460 C1095 1.074 . S
C3477 C723 1.577 . S
C3496 C1855 1.572 . S
C3513 C363 1.588 . S
C3532 C1267 1.587 . S
C3568 C1683 1.065 . S
C3549 C796 1.097 . S
C3585 C291 0.870 . S
C3604 C1437 0.836 . S
C3621 C724 1.588 . S
C3640 C2019 1.550 . S
C3657 C482 0.869 . S
C3676 C933 0.894 . S
C3693 C434 1.693 . S
C3712 C1599 1.676 . S
C3729 C662 1.341 . S
C3748 C1353 1.293 . S
C3765 C614 0.806 . S
C3784 C1771 0.810 . S
C3820 C2025 0.868 . S
C3801 C698 0.901 . S
C3837 C554 1.323 . S
C3856 C1101 1.322 . S
C3892 C1179 1.663 . S
C3873 C650 1.693 . S
C3928 C1015 0.803 . S
C3909 C506 0.806 . S
C3945 C183 1.942 . S
C3964 C2096 1.956 . S
C4000 C1946 1.798 . S
C3981 C219 1.818 . S
C4017 C256 1.702 . S
C4036 C2180 1.726 . S
C4053 C148 1.584 1_655 S
C4072 C1846 1.466 . S
C4089 C122 1.549 . S
C4108 C1594 1.459 . S
C4144 C1676 1.761 . S
C4125 C2 1.719 1_655 S
C4180 C1778 1.746 . S
C4161 C39 1.743 . S
C4216 C2012 1.976 . S
C4197 C86 1.969 . S
C4252 C2114 1.607 . S
C4233 C651 1.642 . S
C4269 C472 0.904 1_556 S
C4288 C1930 0.817 . S
C4324 C2198 1.118 . S
C4305 C507 1.124 . S
C4360 C1844 1.651 . S
C4341 C544 1.648 . S
C4396 C1592 1.612 . S
C4377 C652 1.605 . S
C4413 C471 1.104 . S
C4432 C1694 1.095 . S
C4468 C1762 0.851 . S
C4449 C508 0.897 . S
C4485 C543 1.628 . S
C4504 C2030 1.588 . S
C4540 C2098 0.946 . S
C4521 C806 0.921 . S
C4557 C326 1.711 . S
C4576 C1274 1.675 . S
C4612 C1342 1.281 . S
C4593 C374 1.371 1_565 S
C4648 C1424 0.833 . S
C4629 C398 0.841 . S
C4684 C2014 0.945 . S
C4665 C770 0.920 . S
C4701 C734 1.348 . S
C4720 C2182 1.283 . S
C4756 C1190 1.740 . S
C4737 C362 1.747 . S
C4792 C1004 0.898 . S
C4773 C290 0.903 . S
C4809 C230 1.807 . S
C4828 C2107 1.892 . S
C4864 C1011 1.773 . S
C4845 C182 1.791 . S
C4881 C146 1.708 . S
C4900 C2191 1.738 . S
C4917 C266 1.491 . S
C4936 C1185 1.410 . S
C4953 C75 1.564 . S
C4972 C1605 1.426 . S
C5008 C1351 1.807 . S
C4989 C38 1.771 . S
C5025 C4 1.722 . S
C5044 C1767 1.701 . S
C5061 C112 1.872 . S
C5080 C1519 1.884 . S
C5116 C2103 1.537 . S
C5097 C832 1.571 . S
C5133 C399 0.859 . S
C5152 C1017 0.796 . S
C5188 C2187 1.048 . S
C5169 C760 1.074 . S
C5205 C327 1.572 . S
C5224 C1183 1.571 . S
C5241 C831 1.618 . S
C5260 C1603 1.607 . S
C5296 C1347 1.098 . S
C5277 C400 1.108 . S
C5313 C759 0.874 . S
C5332 C1773 0.841 . S
C5368 C1515 1.533 . S
C5349 C328 1.591 . S
C5404 C2109 0.865 . S
C5385 C626 0.881 . S
C5440 C1263 1.695 1_565 S
C5421 C542 1.700 . S
C5457 C590 1.315 . S
C5476 C1689 1.294 . S
C5512 C1435 0.810 . S
C5493 C470 0.809 . S
C5529 C518 0.878 . S
C5548 C1521 0.906 . S
C5565 C446 1.314 . S
C5584 C2193 1.283 . S
C5620 C1851 1.678 . S
C5601 C578 1.709 . S
C5656 C1939 0.785 . S
C5637 C686 0.789 . S
