# Generated by pormake.
# Topology soc, (4,6)-cn, num edge types: 1
# Building blocks:
#     Node 0, Type 0, BuildingBlock: ESEHIV_clean_sbu_0, # of connection points: 4
#     Node 1, Type 0, BuildingBlock: ESEHIV_clean_sbu_0, # of connection points: 4
#     Node 2, Type 0, BuildingBlock: ESEHIV_clean_sbu_0, # of connection points: 4
#     Node 3, Type 0, BuildingBlock: ESEHIV_clean_sbu_0, # of connection points: 4
#     Node 4, Type 0, BuildingBlock: ESEHIV_clean_sbu_0, # of connection points: 4
#     Node 5, Type 0, BuildingBlock: ESEHIV_clean_sbu_0, # of connection points: 4
#     Node 6, Type 0, BuildingBlock: ESEHIV_clean_sbu_0, # of connection points: 4
#     Node 7, Type 0, BuildingBlock: ESEHIV_clean_sbu_0, # of connection points: 4
#     Node 8, Type 0, BuildingBlock: ESEHIV_clean_sbu_0, # of connection points: 4
#     Node 9, Type 0, BuildingBlock: ESEHIV_clean_sbu_0, # of connection points: 4
#     Node 10, Type 0, BuildingBlock: ESEHIV_clean_sbu_0, # of connection points: 4
#     Node 11, Type 0, BuildingBlock: ESEHIV_clean_sbu_0, # of connection points: 4
#     Node 12, Type 1, BuildingBlock: BETGAK_clean_sbu_0, # of connection points: 6
#     Node 13, Type 1, BuildingBlock: BETGAK_clean_sbu_0, # of connection points: 6
#     Node 14, Type 1, BuildingBlock: BETGAK_clean_sbu_0, # of connection points: 6
#     Node 15, Type 1, BuildingBlock: BETGAK_clean_sbu_0, # of connection points: 6
#     Node 16, Type 1, BuildingBlock: BETGAK_clean_sbu_0, # of connection points: 6
#     Node 17, Type 1, BuildingBlock: BETGAK_clean_sbu_0, # of connection points: 6
#     Node 18, Type 1, BuildingBlock: BETGAK_clean_sbu_0, # of connection points: 6
#     Node 19, Type 1, BuildingBlock: BETGAK_clean_sbu_0, # of connection points: 6
#     Edge 20, Type (0, 1), BuildingBlock: TEMPAE_clean_linker_10, # of connection points: 2
#     Edge 21, Type (0, 1), BuildingBlock: TEMPAE_clean_linker_10, # of connection points: 2
#     Edge 22, Type (0, 1), BuildingBlock: TEMPAE_clean_linker_10, # of connection points: 2
#     Edge 23, Type (0, 1), BuildingBlock: TEMPAE_clean_linker_10, # of connection points: 2
#     Edge 24, Type (0, 1), BuildingBlock: TEMPAE_clean_linker_10, # of connection points: 2
#     Edge 25, Type (0, 1), BuildingBlock: TEMPAE_clean_linker_10, # of connection points: 2
#     Edge 26, Type (0, 1), BuildingBlock: TEMPAE_clean_linker_10, # of connection points: 2
#     Edge 27, Type (0, 1), BuildingBlock: TEMPAE_clean_linker_10, # of connection points: 2
#     Edge 28, Type (0, 1), BuildingBlock: TEMPAE_clean_linker_10, # of connection points: 2
#     Edge 29, Type (0, 1), BuildingBlock: TEMPAE_clean_linker_10, # of connection points: 2
#     Edge 30, Type (0, 1), BuildingBlock: TEMPAE_clean_linker_10, # of connection points: 2
#     Edge 31, Type (0, 1), BuildingBlock: TEMPAE_clean_linker_10, # of connection points: 2
#     Edge 32, Type (0, 1), BuildingBlock: TEMPAE_clean_linker_10, # of connection points: 2
#     Edge 33, Type (0, 1), BuildingBlock: TEMPAE_clean_linker_10, # of connection points: 2
#     Edge 34, Type (0, 1), BuildingBlock: TEMPAE_clean_linker_10, # of connection points: 2
#     Edge 35, Type (0, 1), BuildingBlock: TEMPAE_clean_linker_10, # of connection points: 2
#     Edge 36, Type (0, 1), BuildingBlock: TEMPAE_clean_linker_10, # of connection points: 2
#     Edge 37, Type (0, 1), BuildingBlock: TEMPAE_clean_linker_10, # of connection points: 2
#     Edge 38, Type (0, 1), BuildingBlock: TEMPAE_clean_linker_10, # of connection points: 2
#     Edge 39, Type (0, 1), BuildingBlock: TEMPAE_clean_linker_10, # of connection points: 2
#     Edge 40, Type (0, 1), BuildingBlock: TEMPAE_clean_linker_10, # of connection points: 2
#     Edge 41, Type (0, 1), BuildingBlock: TEMPAE_clean_linker_10, # of connection points: 2
#     Edge 42, Type (0, 1), BuildingBlock: TEMPAE_clean_linker_10, # of connection points: 2
#     Edge 43, Type (0, 1), BuildingBlock: TEMPAE_clean_linker_10, # of connection points: 2
#     Edge 44, Type (0, 1), BuildingBlock: TEMPAE_clean_linker_10, # of connection points: 2
#     Edge 45, Type (0, 1), BuildingBlock: TEMPAE_clean_linker_10, # of connection points: 2
#     Edge 46, Type (0, 1), BuildingBlock: TEMPAE_clean_linker_10, # of connection points: 2
#     Edge 47, Type (0, 1), BuildingBlock: TEMPAE_clean_linker_10, # of connection points: 2
#     Edge 48, Type (0, 1), BuildingBlock: TEMPAE_clean_linker_10, # of connection points: 2
#     Edge 49, Type (0, 1), BuildingBlock: TEMPAE_clean_linker_10, # of connection points: 2
#     Edge 50, Type (0, 1), BuildingBlock: TEMPAE_clean_linker_10, # of connection points: 2
#     Edge 51, Type (0, 1), BuildingBlock: TEMPAE_clean_linker_10, # of connection points: 2
#     Edge 52, Type (0, 1), BuildingBlock: TEMPAE_clean_linker_10, # of connection points: 2
#     Edge 53, Type (0, 1), BuildingBlock: TEMPAE_clean_linker_10, # of connection points: 2
#     Edge 54, Type (0, 1), BuildingBlock: TEMPAE_clean_linker_10, # of connection points: 2
#     Edge 55, Type (0, 1), BuildingBlock: TEMPAE_clean_linker_10, # of connection points: 2
#     Edge 56, Type (0, 1), BuildingBlock: TEMPAE_clean_linker_10, # of connection points: 2
#     Edge 57, Type (0, 1), BuildingBlock: TEMPAE_clean_linker_10, # of connection points: 2
#     Edge 58, Type (0, 1), BuildingBlock: TEMPAE_clean_linker_10, # of connection points: 2
#     Edge 59, Type (0, 1), BuildingBlock: TEMPAE_clean_linker_10, # of connection points: 2
#     Edge 60, Type (0, 1), BuildingBlock: TEMPAE_clean_linker_10, # of connection points: 2
#     Edge 61, Type (0, 1), BuildingBlock: TEMPAE_clean_linker_10, # of connection points: 2
#     Edge 62, Type (0, 1), BuildingBlock: TEMPAE_clean_linker_10, # of connection points: 2
#     Edge 63, Type (0, 1), BuildingBlock: TEMPAE_clean_linker_10, # of connection points: 2
#     Edge 64, Type (0, 1), BuildingBlock: TEMPAE_clean_linker_10, # of connection points: 2
#     Edge 65, Type (0, 1), BuildingBlock: TEMPAE_clean_linker_10, # of connection points: 2
#     Edge 66, Type (0, 1), BuildingBlock: TEMPAE_clean_linker_10, # of connection points: 2
#     Edge 67, Type (0, 1), BuildingBlock: TEMPAE_clean_linker_10, # of connection points: 2
# Relax obj value: 0.184
# Max RMSD: 0.278
# Mean RMSD: 0.173
data_MOF--net-soc--node1-ESEHIV_clean_sbu_0--node2-BETGAK_clean_sbu_0--edge1-TEMPAE_clean_linker_10
_symmetry_space_group_name_H-M    P1
_symmetry_Int_Tables_number       1
_symmetry_cell_setting            triclinic
loop_
_symmetry_equiv_pos_as_xyz
'x, y, z'
_cell_length_a     51.438307
_cell_length_b     50.309067
_cell_length_c     43.996778
_cell_angle_alpha  82.294879
_cell_angle_beta   83.595049
_cell_angle_gamma 69.771551
loop_
_atom_site_label
_atom_site_type_symbol
_atom_site_fract_x
_atom_site_fract_y
_atom_site_fract_z
_atom_type_partial_charge
Cu0 Cu 0.04741 0.04462 0.36766 0.0
N1 N 0.05781 0.06592 0.39246 0.0
N2 N 0.07977 0.09366 0.40548 0.0
C3 C 0.07775 0.07762 0.38419 0.0
C4 C 0.06033 0.09172 0.42823 0.0
C5 C 0.04682 0.07455 0.42011 0.0
O6 O 0.08168 0.02289 0.34605 0.0
C7 C 1.01688 0.09561 0.33211 0.0
O8 O 0.03918 0.10277 0.33166 0.0
H9 H 0.08968 0.07533 0.36224 0.0
H10 H 0.02985 0.06922 0.4331 0.0
N11 N 0.03278 0.01892 0.39138 0.0
N12 N 1.00593 0.99194 0.40433 0.0
C13 C 1.00917 0.01475 0.38653 0.0
C14 C 0.04492 0.99815 0.4131 0.0
C15 C 1.02839 0.98138 0.42111 0.0
C16 C 0.08552 1.0009 0.33249 0.0
O17 O 0.06414 0.99384 0.32762 0.0
H18 H 0.99557 0.0271 0.36884 0.0
H19 H 0.06496 0.99468 0.42141 0.0
O20 O 1.01776 0.07065 0.34329 0.0
H21 H 0.05596 0.10212 0.44912 0.0
H22 H 0.03297 0.96241 0.43727 0.0
Cu23 Cu 0.06564 0.04229 0.75255 0.0
N24 N 0.04963 0.02854 0.725 0.0
N25 N 1.02114 1.0085 0.71048 0.0
C26 C 1.02825 0.01909 0.73359 0.0
C27 C 0.03891 1.01135 0.68626 0.0
C28 C 0.0565 0.0238 0.6953 0.0
O29 O 0.03455 0.06757 0.77666 0.0
C30 C 0.11301 0.99597 0.75458 0.0
O31 O 0.11313 1.00691 0.72574 0.0
H32 H 1.01894 0.01888 0.7569 0.0
H33 H 0.07356 0.02817 0.68147 0.0
N34 N 0.08452 0.06618 0.7336 0.0
N35 N 0.104 0.09949 0.73303 0.0
C36 C 0.09543 0.07952 0.75034 0.0
C37 C 0.08637 0.07786 0.7044 0.0
C38 C 0.09868 0.09838 0.70396 0.0
C39 C 1.01856 0.08748 0.75913 0.0
O40 O 1.02453 0.08761 0.72929 0.0
H41 H 0.0961 0.07522 0.77506 0.0
H42 H 0.07797 0.07311 0.68518 0.0
O43 O 0.09309 1.00887 0.77318 0.0
H44 H 0.0395 1.00451 0.66382 0.0
H45 H 0.10206 0.11237 0.68414 0.0
Cu46 Cu 0.31538 0.06887 0.11255 0.0
N47 N 0.33245 0.03452 0.09623 0.0
N48 N 0.33502 0.99911 0.06932 0.0
C49 C 0.31889 0.02415 0.07924 0.0
C50 C 0.36 0.99353 0.08048 0.0
C51 C 0.35839 0.01562 0.09704 0.0
O52 O 0.27806 0.06982 0.1283 0.0
C53 C 0.30107 0.10543 0.05552 0.0
O54 O 0.28453 0.09094 0.05355 0.0
H55 H 0.29723 0.03467 0.07497 0.0
H56 H 0.37497 0.01786 0.10843 0.0
N57 N 0.33344 0.07284 0.14523 0.0
N58 N 0.34303 0.09404 0.18209 0.0
C59 C 0.3286 0.09752 0.15711 0.0
C60 C 0.35135 0.05281 0.16335 0.0
C61 C 0.35744 0.06582 0.18599 0.0
C62 C 0.26867 0.05241 0.14628 0.0
O63 O 0.24175 0.06012 0.15303 0.0
H64 H 0.31388 0.11742 0.1481 0.0
H65 H 0.35889 0.03027 0.16084 0.0
O66 O 0.31515 0.09982 0.0792 0.0
H67 H 0.37826 0.97521 0.07647 0.0
H68 H 0.37124 0.05512 0.20403 0.0
Cu69 Cu 0.07635 0.31931 0.11865 0.0
N70 N 0.08574 0.34104 0.08383 0.0
N71 N 0.10876 0.35076 0.03962 0.0
C72 C 0.11063 0.33559 0.06772 0.0
C73 C 0.08158 0.36672 0.0386 0.0
C74 C 0.06755 0.36061 0.06564 0.0
O75 O 0.10443 0.3105 0.14949 0.0
C76 C 0.07251 0.28213 0.07594 0.0
O77 O 0.0946 0.28619 0.061 0.0
H78 H 0.12924 0.31932 0.07575 0.0
H79 H 0.0453 0.36822 0.07066 0.0
N80 N 0.04289 0.3407 0.13836 0.0
N81 N 1.00186 0.35003 0.1657 0.0
C82 C 1.02475 0.32965 0.1551 0.0
C83 C 0.03121 0.3691 0.13849 0.0
C84 C 1.00583 0.37493 0.15523 0.0
C85 C 0.12993 0.29459 0.14918 0.0
O86 O 0.14051 0.27856 0.12658 0.0
H87 H 1.02804 0.30704 0.1588 0.0
H88 H 0.04038 0.38448 0.12704 0.0
O89 O 0.06557 0.28977 0.1031 0.0
H90 H 0.07188 0.38036 1.01893 0.0
H91 H 0.99152 0.39585 0.15952 0.0
Cu92 Cu 0.80663 1.00803 0.0231 0.0
N93 N 0.82986 0.02497 0.99871 0.0
N94 N 0.8424 0.06067 0.97338 0.0
C95 C 0.82312 0.05334 0.99253 0.0
C96 C 0.86208 0.03582 0.96694 0.0
C97 C 0.85429 0.01374 0.98272 0.0
O98 O 0.78386 0.03755 0.04955 0.0
C99 C 0.80457 0.9699 0.98439 0.0
O100 O 0.83019 0.95883 0.99265 0.0
H101 H 0.80386 0.06832 1.00119 0.0
H102 H 0.86541 0.99121 0.98215 0.0
N103 N 0.82596 0.97751 0.05031 0.0
N104 N 0.83211 0.94403 0.09028 0.0
C105 C 0.81356 0.9642 0.07274 0.0
C106 C 0.85339 0.96548 0.05366 0.0
C107 C 0.85726 0.94474 0.07833 0.0
C108 C 0.79899 0.04344 0.06706 0.0
O109 O 0.82584 0.02955 0.06505 0.0
H110 H 0.79124 0.96984 0.0765 0.0
H111 H 0.86938 0.97157 0.03947 0.0
O112 O 0.78878 0.9929 0.99529 0.0
H113 H 0.88063 0.03373 0.95184 0.0
H114 H 0.87704 0.93116 0.08663 0.0
Cu115 Cu 0.04787 0.74472 1.01937 0.0
N116 N 1.02901 0.73071 0.99467 0.0
N117 N 0.99771 0.72932 0.96373 0.0
C118 C 1.0069 0.74603 0.9784 0.0
C119 C 1.01484 0.7025 0.97106 0.0
C120 C 0.03408 0.70344 0.99001 0.0
O121 O 1.01835 0.76654 0.04896 0.0
C122 C 0.08953 0.77284 0.99615 0.0
O123 O 0.08889 0.77967 0.02409 0.0
H124 H 0.99739 0.76891 0.97792 0.0
H125 H 0.05055 0.68546 0.99985 0.0
N126 N 0.07165 0.71443 0.04373 0.0
N127 N 0.10297 0.69657 0.07923 0.0
C128 C 0.09561 0.71436 0.05344 0.0
C129 C 0.06415 0.695 0.06338 0.0
C130 C 0.08338 0.68399 0.08533 0.0
C131 C 1.02216 0.76558 0.07746 0.0
O132 O 0.04775 0.75668 0.08577 0.0
H133 H 0.10554 0.72967 0.04432 0.0
H134 H 0.04446 0.69157 0.0639 0.0
O135 O 0.07198 0.76172 0.99016 0.0
H136 H 1.01369 0.6835 0.96313 0.0
H137 H 0.08162 0.66988 0.1057 0.0
Cu138 Cu 0.56248 0.52888 0.87065 0.0
N139 N 0.57994 0.54601 0.89249 0.0
N140 N 0.60639 0.57091 0.90068 0.0
C141 C 0.59742 0.55955 0.87965 0.0
C142 C 0.59397 0.56425 0.9279 0.0
C143 C 0.57764 0.54876 0.92275 0.0
O144 O 0.59076 0.51038 0.83973 0.0
C145 C 0.51263 0.55995 0.83685 0.0
O146 O 0.51919 0.53927 0.81907 0.0
H147 H 0.60265 0.5618 0.85514 0.0
H148 H 0.56475 0.54044 0.93972 0.0
N149 N 0.55381 0.50053 0.89657 0.0
N150 N 0.5356 0.46632 0.91141 0.0
C151 C 0.53272 0.49123 0.89408 0.0
C152 C 0.57047 0.4811 0.91641 0.0
C153 C 0.55927 0.45983 0.9256 0.0
C154 C 0.59359 0.48625 0.83117 0.0
O155 O 0.57269 0.47654 0.83608 0.0
H156 H 0.5171 0.50107 0.87763 0.0
H157 H 0.59034 0.48135 0.92196 0.0
O158 O 0.52858 0.55872 0.85753 0.0
H159 H 0.59637 0.57025 0.94987 0.0
H160 H 0.56856 0.44039 0.94014 0.0
Cu161 Cu 0.55847 0.56135 0.25384 0.0
N162 N 0.54114 0.54346 0.23208 0.0
N163 N 0.51445 0.51816 0.22514 0.0
C164 C 0.52316 0.53061 0.24543 0.0
C165 C 0.52759 0.52343 0.19785 0.0
C166 C 0.54406 0.53906 0.2022 0.0
O167 O 0.52862 0.59099 0.27429 0.0
C168 C 0.60356 0.5141 0.26148 0.0
O169 O 0.60226 0.51985 0.23154 0.0
H170 H 0.51731 0.52973 0.26984 0.0
H171 H 0.55754 0.5462 0.18494 0.0
N172 N 0.58014 0.57993 0.22878 0.0
N173 N 0.61318 0.5998 0.21747 0.0
C174 C 0.60178 0.58454 0.23888 0.0
C175 C 0.57769 0.59272 0.1998 0.0
C176 C 0.59805 0.60515 0.1928 0.0
C177 C 0.51242 0.6084 0.25503 0.0
O178 O 0.51748 0.6039 0.2259 0.0
H179 H 0.60844 0.57755 0.26197 0.0
H180 H 0.56195 0.59351 0.18502 0.0
O181 O 0.5848 0.53051 0.27862 0.0
H182 H 0.52555 0.51648 0.17628 0.0
H183 H 0.60137 0.61725 0.17136 0.0
Cu184 Cu 0.82544 0.57058 0.58603 0.0
N185 N 0.80955 0.59687 0.55337 0.0
N186 N 0.80862 0.62585 0.50981 0.0
C187 C 0.82462 0.60684 0.53073 0.0
C188 C 0.78227 0.62763 0.51986 0.0
C189 C 0.78293 0.60963 0.54664 0.0
O190 O 0.837 0.59071 0.61473 0.0
C191 C 0.86724 0.51558 0.57435 0.0
O192 O 0.86896 0.50855 0.60411 0.0
H193 H 0.84704 0.59994 0.52981 0.0
H194 H 0.7653 0.6064 0.56045 0.0
N195 N 0.80024 0.55421 0.60786 0.0
N196 N 0.78674 0.52014 0.63623 0.0
C197 C 0.80398 0.52614 0.61299 0.0
C198 C 0.77908 0.56661 0.62782 0.0
C199 C 0.77069 0.54572 0.64529 0.0
C200 C 0.82034 0.61557 0.61977 0.0
O201 O 0.79753 0.62614 0.60507 0.0
H202 H 0.82037 0.51013 0.60155 0.0
H203 H 0.77166 0.58899 0.6311 0.0
O204 O 0.85416 0.54122 0.5645 0.0
H205 H 0.76368 0.64137 0.50915 0.0
H206 H 0.75508 0.54909 0.66435 0.0
Cu207 Cu 0.59117 0.79553 0.5974 0.0
N208 N 0.62225 0.77511 0.57192 0.0
N209 N 0.65701 0.76777 0.53428 0.0
C210 C 0.63295 0.78634 0.54576 0.0
C211 C 0.66143 0.7439 0.5541 0.0
C212 C 0.64021 0.74849 0.57713 0.0
O213 O 0.60691 0.81292 0.62502 0.0
C214 C 0.55813 0.80647 0.55112 0.0
O215 O 0.5697 0.77861 0.55461 0.0
H216 H 0.62378 0.80816 0.53604 0.0
H217 H 0.63862 0.73366 0.59682 0.0
N218 N 0.57039 0.77419 0.62171 0.0
N219 N 0.53446 0.76481 0.65011 0.0
C220 C 0.54358 0.78492 0.63315 0.0
C221 C 0.5783 0.74623 0.63155 0.0
C222 C 0.55643 0.74047 0.64903 0.0
C223 C 0.62083 0.79581 0.6463 0.0
O224 O 0.62172 0.76919 0.64923 0.0
H225 H 0.53114 0.80721 0.62947 0.0
H226 H 0.59858 0.73098 0.62658 0.0
O227 O 0.56478 0.82095 0.56873 0.0
H228 H 0.67893 0.72443 0.55236 0.0
H229 H 0.55666 0.71976 0.65985 0.0
Cu230 Cu 0.28594 0.52817 0.54019 0.0
N231 N 0.30636 0.55114 0.51978 0.0
N232 N 0.31416 0.58844 0.49067 0.0
C233 C 0.2992 0.57051 0.49486 0.0
C234 C 0.33139 0.57988 0.51373 0.0
C235 C 0.32649 0.55716 0.53158 0.0
O236 O 0.25456 0.55549 0.56012 0.0
C237 C 0.29356 0.48695 0.5003 0.0
O238 O 0.31847 0.47799 0.5106 0.0
H239 H 0.28193 0.57286 0.48154 0.0
H240 H 0.33556 0.54717 0.55301 0.0
N241 N 0.30554 0.50072 0.57136 0.0
N242 N 0.31501 0.46842 0.61316 0.0
C243 C 0.29501 0.48704 0.59568 0.0
C244 C 0.33322 0.49007 0.57348 0.0
C245 C 0.33908 0.47039 0.59904 0.0
C246 C 0.23429 0.55199 0.57751 0.0
O247 O 0.23046 0.52725 0.58094 0.0
H248 H 0.27312 0.49058 0.60052 0.0
H249 H 0.34826 0.49572 0.55715 0.0
O250 O 0.27542 0.50912 0.5102 0.0
H251 H 0.34574 0.59014 0.51818 0.0
H252 H 0.35964 0.45792 0.60609 0.0
Cu253 Cu 0.52367 0.27166 0.53852 0.0
N254 N 0.55332 0.25139 0.51225 0.0
N255 N 0.59217 0.24257 0.48093 0.0
C256 C 0.5724 0.26202 0.49694 0.0
C257 C 0.58517 0.21878 0.48617 0.0
C258 C 0.5611 0.22434 0.50528 0.0
O259 O 0.53937 0.2947 0.55938 0.0
C260 C 0.48168 0.272 0.50403 0.0
O261 O 0.49375 0.24484 0.51276 0.0
H262 H 0.57218 0.28344 0.49822 0.0
H263 H 0.55015 0.20961 0.51348 0.0
N264 N 0.513 0.24826 0.57106 0.0
N265 N 0.49231 0.23698 0.61617 0.0
C266 C 0.49319 0.25787 0.59366 0.0
C267 C 0.52503 0.22027 0.57953 0.0
C268 C 0.5123 0.21327 0.60723 0.0
C269 C 0.56049 0.27873 0.57388 0.0
O270 O 0.56817 0.25115 0.57239 0.0
H271 H 0.48062 0.28007 0.59428 0.0
H272 H 0.54264 0.20613 0.56728 0.0
O273 O 0.49129 0.28979 0.51302 0.0
H274 H 0.59652 0.19888 0.47667 0.0
H275 H 0.51772 0.1924 0.62002 0.0
La276 La 0.2747 0.29999 0.35236 0.0
La277 La 0.315 0.31624 0.30655 0.0
C278 C 0.23737 0.28222 0.38014 0.0
C279 C 0.22324 0.26178 0.37688 0.0
C280 C 0.23783 0.23238 0.3773 0.0
C281 C 0.22353 0.21319 0.37773 0.0
C282 C 0.19442 0.223 0.37751 0.0
C283 C 0.18 0.25247 0.37576 0.0
C284 C 0.19427 0.27163 0.37562 0.0
C285 C 0.31907 0.30153 0.37673 0.0
C286 C 0.31501 0.25464 0.30909 0.0
C287 C 0.35227 0.33356 0.27768 0.0
C288 C 0.36733 0.3535 0.27924 0.0
C289 C 0.35335 0.3824 0.28318 0.0
C290 C 0.36815 0.40138 0.28088 0.0
C291 C 0.39718 0.3918 0.27475 0.0
C292 C 0.41113 0.36267 0.27203 0.0
C293 C 0.39634 0.34377 0.27419 0.0
C294 C 0.27098 0.31374 0.28214 0.0
C295 C 0.27602 0.36092 0.35162 0.0
O296 O 0.26355 0.27169 0.38625 0.0
O297 O 0.23226 0.30493 0.36026 0.0
O298 O 0.29443 0.30735 0.39035 0.0
O299 O 0.31887 0.29271 0.3511 0.0
O300 O 0.29107 0.26337 0.32554 0.0
O301 O 0.33072 0.27085 0.30235 0.0
O302 O 0.32591 0.34454 0.27242 0.0
O303 O 0.35743 0.31123 0.29806 0.0
O304 O 0.29547 0.30869 0.26838 0.0
O305 O 0.27094 0.32291 0.30764 0.0
O306 O 0.2994 0.35249 0.33409 0.0
O307 O 0.26 0.34502 0.35823 0.0
H308 H 0.26021 0.2241 0.37806 0.0
H309 H 0.2352 0.19061 0.37866 0.0
H310 H 0.15756 0.26065 0.37574 0.0
H311 H 0.18254 0.29416 0.37536 0.0
H312 H 0.33096 0.39047 0.28726 0.0
H313 H 0.35686 0.42362 0.2835 0.0
H314 H 0.43342 0.35464 0.26701 0.0
H315 H 0.40753 0.32162 0.27094 0.0
La316 La 0.80025 0.31136 0.34897 0.0
La317 La 0.79486 0.27831 0.29767 0.0
C318 C 0.79213 0.3438 0.39082 0.0
C319 C 0.80594 0.35753 0.40849 0.0
C320 C 0.79728 0.36028 0.43962 0.0
C321 C 0.80822 0.37478 0.45689 0.0
C322 C 0.82814 0.38699 0.44346 0.0
C323 C 0.83745 0.38351 0.41239 0.0
C324 C 0.8264 0.36896 0.39501 0.0
C325 C 0.84085 0.26276 0.34339 0.0
C326 C 0.75754 0.27638 0.35778 0.0
C327 C 0.80231 0.2454 0.25631 0.0
C328 C 0.7892 0.23014 0.23941 0.0
C329 C 0.77915 0.24176 0.21036 0.0
C330 C 0.7714 0.22544 0.19191 0.0
C331 C 0.77367 0.19699 0.20191 0.0
C332 C 0.78265 0.1858 0.2315 0.0
C333 C 0.7904 0.20209 0.24993 0.0
C334 C 0.75475 0.32756 0.30344 0.0
C335 C 0.83763 0.31332 0.2888 0.0
O336 O 0.78879 0.35292 0.36169 0.0
O337 O 0.7988 0.3161 0.39597 0.0
O338 O 0.84322 0.28414 0.35486 0.0
O339 O 0.81564 0.26769 0.33918 0.0
O340 O 0.76455 0.29747 0.36551 0.0
O341 O 0.76928 0.26294 0.33331 0.0
O342 O 0.80665 0.23663 0.28532 0.0
O343 O 0.79496 0.27319 0.25092 0.0
O344 O 0.75166 0.30584 0.29337 0.0
O345 O 0.78013 0.32209 0.30697 0.0
O346 O 0.83043 0.29238 0.28089 0.0
O347 O 0.82595 0.32669 0.31338 0.0
H348 H 0.78161 0.35156 0.45053 0.0
H349 H 0.80092 0.37655 0.48084 0.0
H350 H 0.85266 0.39275 0.40126 0.0
H351 H 0.83347 0.36707 0.37101 0.0
H352 H 0.77827 0.26314 0.20131 0.0
H353 H 0.76431 0.23491 0.16942 0.0
H354 H 0.7851 0.16388 0.23987 0.0
H355 H 0.79852 0.19221 0.27189 0.0
La356 La 0.82723 0.75182 0.29157 0.0
La357 La 0.83298 0.80698 0.30671 0.0
C358 C 0.82347 0.70308 0.29173 0.0
C359 C 0.80247 0.69224 0.28262 0.0
C360 C 0.79541 0.69631 0.25193 0.0
C361 C 0.77529 0.68621 0.2438 0.0
C362 C 0.76167 0.67198 0.26615 0.0
C363 C 0.76876 0.66789 0.29681 0.0
C364 C 0.78905 0.67781 0.30492 0.0
C365 C 0.80126 0.79783 0.25515 0.0
C366 C 0.78772 0.78566 0.34647 0.0
C367 C 0.83796 0.85547 0.30352 0.0
C368 C 0.84591 0.87339 0.32187 0.0
C369 C 0.85829 0.86228 0.3498 0.0
C370 C 0.87132 0.87754 0.36338 0.0
C371 C 0.87235 0.90393 0.34903 0.0
C372 C 0.85838 0.91566 0.3221 0.0
C373 C 0.8453 0.90049 0.30865 0.0
C374 C 0.85744 0.7613 0.34397 0.0
C375 C 0.87187 0.77299 0.25325 0.0
O376 O 0.83653 0.71473 0.26971 0.0
O377 O 0.81635 0.71764 0.3156 0.0
O378 O 0.80865 0.77197 0.24819 0.0
O379 O 0.80464 0.79632 0.28323 0.0
O380 O 0.79767 0.76223 0.33204 0.0
O381 O 0.79659 0.80771 0.3385 0.0
O382 O 0.81433 0.851 0.31111 0.0
O383 O 0.85802 0.83234 0.29651 0.0
O384 O 0.8499 0.7873 0.35079 0.0
O385 O 0.85527 0.76241 0.31554 0.0
O386 O 0.85678 0.79815 0.2623 0.0
O387 O 0.86743 0.74962 0.26694 0.0
H388 H 0.80527 0.70744 0.23416 0.0
H389 H 0.77006 0.68995 0.22006 0.0
H390 H 0.75882 0.65673 0.31447 0.0
H391 H 0.7942 0.6743 0.32869 0.0
H392 H 0.85921 0.84121 0.36014 0.0
H393 H 0.88203 0.86793 0.38404 0.0
H394 H 0.85853 0.9361 0.31075 0.0
H395 H 0.83601 0.90928 0.28698 0.0
La396 La 0.28437 0.80871 0.28687 0.0
La397 La 0.32743 0.81616 0.3237 0.0
C398 C 0.24382 0.81348 0.25667 0.0
C399 C 0.23102 0.79544 0.24421 0.0
C400 C 0.2471 0.77181 0.22866 0.0
C401 C 0.23428 0.75719 0.21381 0.0
C402 C 0.20512 0.76584 0.21427 0.0
C403 C 0.18918 0.78873 0.23105 0.0
C404 C 0.202 0.8034 0.24574 0.0
C405 C 0.33479 0.77142 0.27904 0.0
C406 C 0.30936 0.85969 0.26646 0.0
C407 C 0.36779 0.81033 0.35474 0.0
C408 C 0.3823 0.82584 0.36896 0.0
C409 C 0.3692 0.84302 0.39277 0.0
C410 C 0.38476 0.8526 0.41019 0.0
C411 C 0.41369 0.84527 0.40415 0.0
C412 C 0.42639 0.82966 0.37905 0.0
C413 C 0.41087 0.81998 0.36174 0.0
C414 C 0.2764 0.85225 0.3323 0.0
C415 C 0.30197 0.76574 0.34442 0.0
O416 O 0.24193 0.81376 0.2866 0.0
O417 O 0.26827 0.81312 0.24418 0.0
O418 O 0.31208 0.76655 0.2764 0.0
O419 O 0.32885 0.79736 0.28272 0.0
O420 O 0.2882 0.85013 0.26714 0.0
O421 O 0.33024 0.8468 0.28428 0.0
O422 O 0.36984 0.81099 0.32469 0.0
O423 O 0.34302 0.81136 0.36673 0.0
O424 O 0.29868 0.85832 0.33398 0.0
O425 O 0.28331 0.82636 0.32837 0.0
O426 O 0.3235 0.77475 0.3434 0.0
O427 O 0.28104 0.7789 0.32679 0.0
H428 H 0.26957 0.76515 0.22717 0.0
H429 H 0.24724 0.73983 0.20097 0.0
H430 H 0.1667 0.79564 0.23246 0.0
H431 H 0.18919 0.82151 0.25766 0.0
H432 H 0.34718 0.84795 0.39894 0.0
H433 H 0.3743 0.86484 0.42916 0.0
H434 H 0.44866 0.82331 0.37396 0.0
H435 H 0.42153 0.80655 0.34374 0.0
La436 La 0.31003 0.79194 0.82698 0.0
La437 La 0.29935 0.75205 0.78964 0.0
C438 C 0.31055 0.82998 0.85823 0.0
C439 C 0.29589 0.85007 0.88095 0.0
C440 C 0.29456 0.84049 0.91243 0.0
C441 C 0.28981 0.8595 0.93446 0.0
C442 C 0.28644 0.88824 0.92528 0.0
C443 C 0.28439 0.89832 0.89397 0.0
C444 C 0.28916 0.87934 0.87195 0.0
C445 C 0.3466 0.73979 0.83122 0.0
C446 C 0.26052 0.76704 0.84938 0.0
C447 C 0.30324 0.71244 0.75815 0.0
C448 C 0.28731 0.69795 0.74519 0.0
C449 C 0.26355 0.69337 0.76064 0.0
C450 C 0.2501 0.67806 0.74765 0.0
C451 C 0.26044 0.66708 0.71927 0.0
C452 C 0.28372 0.67257 0.70369 0.0
C453 C 0.29701 0.68776 0.71655 0.0
C454 C 0.26308 0.80418 0.78423 0.0
C455 C 0.34807 0.77865 0.76717 0.0
O456 O 0.31908 0.80275 0.86771 0.0
O457 O 0.30229 0.83538 0.83024 0.0
O458 O 0.3523 0.76267 0.83222 0.0
O459 O 0.32072 0.74632 0.82987 0.0
O460 O 0.27117 0.7875 0.8501 0.0
O461 O 0.27092 0.74756 0.82961 0.0
O462 O 0.30513 0.70884 0.78799 0.0
O463 O 0.3001 0.73857 0.74641 0.0
O464 O 0.2575 0.7814 0.7817 0.0
O465 O 0.2889 0.79753 0.78646 0.0
O466 O 0.33833 0.75743 0.76698 0.0
O467 O 0.33679 0.79815 0.78657 0.0
H468 H 0.29959 0.81803 0.9201 0.0
H469 H 0.29147 0.85117 0.95845 0.0
H470 H 0.28132 0.92053 0.88638 0.0
H471 H 0.29003 0.88727 0.84784 0.0
H472 H 0.25567 0.70126 0.78276 0.0
H473 H 0.23215 0.67418 0.76009 0.0
H474 H 0.29181 0.66495 0.68148 0.0
H475 H 0.31518 0.69127 0.70421 0.0
La476 La 0.29836 0.27124 0.82105 0.0
La477 La 0.31951 0.3065 0.85057 0.0
C478 C 0.27608 0.23822 0.80537 0.0
C479 C 0.24979 0.23216 0.80865 0.0
C480 C 0.23122 0.24313 0.78532 0.0
C481 C 0.20913 0.23332 0.78457 0.0
C482 C 0.20518 0.2122 0.80706 0.0
C483 C 0.2226 0.20263 0.8316 0.0
C484 C 0.24482 0.21244 0.83232 0.0
C485 C 0.30338 0.31581 0.78445 0.0
C486 C 0.25753 0.31529 0.86526 0.0
C487 C 0.34204 0.3393 0.86626 0.0
C488 C 0.36899 0.34393 0.86358 0.0
C489 C 0.39133 0.32524 0.87995 0.0
C490 C 0.41471 0.33271 0.88215 0.0
C491 C 0.41619 0.35887 0.86794 0.0
C492 C 0.39475 0.37662 0.84983 0.0
C493 C 0.37126 0.36926 0.84781 0.0
C494 C 0.31422 0.26189 0.88705 0.0
C495 C 0.36015 0.26325 0.80527 0.0
O496 O 0.27586 0.26218 0.7896 0.0
O497 O 0.29092 0.23221 0.82926 0.0
O498 O 0.30885 0.29063 0.77631 0.0
O499 O 0.29425 0.31602 0.81247 0.0
O500 O 0.26283 0.29132 0.85276 0.0
O501 O 0.27597 0.32842 0.86224 0.0
O502 O 0.3405 0.31636 0.883 0.0
O503 O 0.32846 0.34475 0.84147 0.0
O504 O 0.30848 0.28711 0.89518 0.0
O505 O 0.32367 0.2617 0.85915 0.0
O506 O 0.35498 0.28675 0.81864 0.0
O507 O 0.34181 0.25 0.80814 0.0
H508 H 0.23465 0.25811 0.76654 0.0
H509 H 0.19638 0.24084 0.76511 0.0
H510 H 0.21984 0.18658 0.84945 0.0
H511 H 0.25885 0.20353 0.85055 0.0
H512 H 0.39027 0.30548 0.89232 0.0
H513 H 0.43112 0.31858 0.89603 0.0
H514 H 0.39532 0.39704 0.83886 0.0
H515 H 0.35425 0.38409 0.83523 0.0
La516 La 0.79231 0.2871 0.80189 0.0
La517 La 0.83571 0.30309 0.83066 0.0
C518 C 0.74999 0.28599 0.77818 0.0
C519 C 0.72993 0.29839 0.75373 0.0
C520 C 0.73648 0.28913 0.72413 0.0
C521 C 0.71599 0.29597 0.70309 0.0
C522 C 0.68822 0.3122 0.71096 0.0
C523 C 0.68197 0.32268 0.74004 0.0
C524 C 0.70251 0.31581 0.76114 0.0
C525 C 0.84277 0.24925 0.79938 0.0
C526 C 0.81833 0.33286 0.7657 0.0
C527 C 0.87524 0.30755 0.85696 0.0
C528 C 0.89676 0.29643 0.87985 0.0
C529 C 0.92171 0.30222 0.87309 0.0
C530 C 0.94064 0.29685 0.89564 0.0
C531 C 0.93525 0.28539 0.92569 0.0
C532 C 0.91084 0.27824 0.93209 0.0
C533 C 0.89169 0.28389 0.90948 0.0
C534 C 0.78413 0.33917 0.83369 0.0
C535 C 0.8113 0.25588 0.86538 0.0
O536 O 0.77566 0.27129 0.76984 0.0
O537 O 0.74856 0.30063 0.80122 0.0
O538 O 0.81999 0.24344 0.80091 0.0
O539 O 0.83709 0.27606 0.79634 0.0
O540 O 0.79794 0.32202 0.76949 0.0
O541 O 0.83835 0.32522 0.78495 0.0
O542 O 0.84911 0.31667 0.86723 0.0
O543 O 0.87884 0.29562 0.83135 0.0
O544 O 0.806 0.34669 0.82982 0.0
O545 O 0.79162 0.31244 0.83696 0.0
O546 O 0.83222 0.26596 0.86091 0.0
O547 O 0.79013 0.26526 0.84761 0.0
H548 H 0.7572 0.27534 0.71763 0.0
H549 H 0.72171 0.28713 0.68121 0.0
H550 H 0.66098 0.33558 0.74687 0.0
H551 H 0.69661 0.32312 0.78378 0.0
H552 H 0.92611 0.31205 0.85056 0.0
H553 H 0.95936 0.3022 0.88963 0.0
H554 H 0.90594 0.26943 0.95496 0.0
H555 H 0.87253 0.27936 0.91548 0.0
La556 La 0.77962 0.79334 0.81984 0.0
La557 La 0.82278 0.80824 0.77759 0.0
C558 C 0.7389 0.77937 0.8441 0.0
C559 C 0.72701 0.75707 0.84228 0.0
C560 C 0.744 0.72946 0.83624 0.0
C561 C 0.73263 0.70772 0.83826 0.0
C562 C 0.70413 0.71337 0.84617 0.0
C563 C 0.68703 0.74137 0.85068 0.0
C564 C 0.69843 0.76303 0.8488 0.0
C565 C 0.82666 0.78408 0.84494 0.0
C566 C 0.81667 0.74996 0.77187 0.0
C567 C 0.86286 0.82258 0.75194 0.0
C568 C 0.87663 0.84339 0.75394 0.0
C569 C 0.86134 0.87208 0.75747 0.0
C570 C 0.87494 0.89202 0.75555 0.0
C571 C 0.90399 0.88348 0.75042 0.0
C572 C 0.91925 0.85454 0.74833 0.0
C573 C 0.90565 0.83469 0.74997 0.0
C574 C 0.77603 0.81618 0.75238 0.0
C575 C 0.78718 0.85058 0.82707 0.0
O576 O 0.7631 0.77096 0.85571 0.0
O577 O 0.73736 0.79795 0.81995 0.0
O578 O 0.80229 0.79251 0.8592 0.0
O579 O 0.82434 0.7794 0.81802 0.0
O580 O 0.79341 0.75857 0.78974 0.0
O581 O 0.83401 0.76453 0.76724 0.0
O582 O 0.83772 0.8327 0.7425 0.0
O583 O 0.86546 0.80245 0.77472 0.0
O584 O 0.80053 0.80765 0.73845 0.0
O585 O 0.77814 0.82161 0.77907 0.0
O586 O 0.8103 0.84179 0.80906 0.0
O587 O 0.76921 0.83674 0.83106 0.0
H588 H 0.76613 0.7245 0.83094 0.0
H589 H 0.74618 0.6864 0.83427 0.0
H590 H 0.66504 0.74627 0.85704 0.0
H591 H 0.68506 0.78425 0.85347 0.0
H592 H 0.83889 0.87923 0.76085 0.0
H593 H 0.86277 0.91417 0.75762 0.0
H594 H 0.94164 0.84742 0.74415 0.0
H595 H 0.91775 0.81264 0.74719 0.0
C596 C 0.12211 0.10401 0.38368 0.0
C597 C 0.09751 0.11085 0.40291 0.0
C598 C 0.13869 0.12145 0.3793 0.0
C599 C 0.1307 0.14627 0.39478 0.0
C600 C 0.1063 0.15298 0.41481 0.0
C601 C 0.08998 0.13526 0.41857 0.0
C602 C 0.16457 0.11353 0.35777 0.0
C603 C 0.09719 0.17917 0.43189 0.0
C604 C 0.18521 0.17947 0.40369 0.0
C605 C 0.17896 0.2026 0.38083 0.0
C606 C 0.16975 0.16091 0.40842 0.0
C607 C 0.14765 0.16544 0.38966 0.0
C608 C 0.14158 0.18845 0.36617 0.0
C609 C 0.15721 0.20685 0.36215 0.0
C610 C 0.17671 0.13679 0.43388 0.0
C611 C 0.11844 0.19375 0.3454 0.0
H612 H 0.12846 0.08495 0.37193 0.0
H613 H 0.07093 0.14096 0.43321 0.0
H614 H 0.16301 0.13079 0.33877 0.0
H615 H 0.18301 0.11114 0.37017 0.0
H616 H 0.16805 0.09338 0.34769 0.0
H617 H 0.07829 0.18082 0.4475 0.0
H618 H 0.1141 0.17889 0.44566 0.0
H619 H 0.0928 0.19854 0.41524 0.0
H620 H 0.20177 0.17633 0.41845 0.0
H621 H 0.15247 0.22457 0.3443 0.0
H622 H 0.18136 0.11615 0.42443 0.0
H623 H 0.15857 0.13926 0.45082 0.0
H624 H 0.19482 0.1359 0.4461 0.0
H625 H 0.12189 0.17455 0.33357 0.0
H626 H 0.11681 0.21215 0.32777 0.0
H627 H 0.09833 0.19789 0.35928 0.0
C628 C 0.98834 0.14572 0.31421 0.0
C629 C 0.98962 0.11803 0.32622 0.0
C630 C 0.96291 0.16835 0.31369 0.0
C631 C 0.93814 0.16328 0.32577 0.0
C632 C 0.93906 0.1351 0.33615 0.0
C633 C 0.96474 0.11281 0.3361 0.0
C634 C 0.96282 0.19798 0.30188 0.0
C635 C 0.91318 0.12874 0.3492 0.0
C636 C 0.88334 0.22517 0.36212 0.0
C637 C 0.8641 0.2359 0.33959 0.0
C638 C 0.90706 0.20112 0.35819 0.0
C639 C 0.91201 0.18778 0.3307 0.0
C640 C 0.89253 0.19852 0.30786 0.0
C641 C 0.86879 0.22252 0.31261 0.0
C642 C 0.9271 0.19032 0.38327 0.0
C643 C 0.89724 0.18534 0.27799 0.0
H644 H 1.00738 0.14998 0.30631 0.0
H645 H 0.96541 0.09152 0.34539 0.0
H646 H 0.94617 0.20848 0.28587 0.0
H647 H 0.95848 0.21109 0.32142 0.0
H648 H 0.98302 0.19786 0.28982 0.0
H649 H 0.91681 0.1055 0.35321 0.0
H650 H 0.90598 0.138 0.37142 0.0
H651 H 0.8962 0.1387 0.3335 0.0
H652 H 0.87987 0.23576 0.38285 0.0
H653 H 0.85472 0.23163 0.29456 0.0
H654 H 0.94751 0.19223 0.37448 0.0
H655 H 0.93051 0.16743 0.39043 0.0
H656 H 0.91956 0.20224 0.40382 0.0
H657 H 0.9155 0.18888 0.26447 0.0
H658 H 0.87898 0.19451 0.26386 0.0
H659 H 0.90189 0.16199 0.28247 0.0
C660 C 0.95797 0.99682 0.39532 0.0
C661 C 0.98495 0.97943 0.40215 0.0
C662 C 0.93806 0.98501 0.3899 0.0
C663 C 0.94546 0.95507 0.39088 0.0
C664 C 0.97237 0.93737 0.39893 0.0
C665 C 0.99174 0.94977 0.40466 0.0
C666 C 0.90948 1.00463 0.38188 0.0
C667 C 0.98122 0.90537 0.39984 0.0
C668 C 0.88974 0.92093 0.39143 0.0
C669 C 0.89021 0.91783 0.36014 0.0
C670 C 0.90733 0.93337 0.40185 0.0
C671 C 0.92608 0.94246 0.38051 0.0
C672 C 0.92664 0.93927 0.34894 0.0
C673 C 0.90865 0.92714 0.33916 0.0
C674 C 0.90589 0.93677 0.43562 0.0
C675 C 0.94655 0.94831 0.32546 0.0
H676 H 0.95259 0.01975 0.39376 0.0
H677 H 1.01264 0.93625 0.40962 0.0
H678 H 0.90666 1.00367 0.35746 0.0
H679 H 0.89329 0.99772 0.39609 0.0
H680 H 0.90609 0.0271 0.3853 0.0
H681 H 1.00198 0.89454 0.40898 0.0
H682 H 0.96589 0.8973 0.41425 0.0
H683 H 0.98199 0.89942 0.37628 0.0
H684 H 0.87546 0.91382 0.40769 0.0
H685 H 0.90946 0.92431 0.31503 0.0
H686 H 0.90136 0.95948 0.43883 0.0
H687 H 0.92627 0.92461 0.44505 0.0
H688 H 0.88972 0.92927 0.44912 0.0
H689 H 0.94288 0.97137 0.32554 0.0
H690 H 0.94446 0.94422 0.30181 0.0
H691 H 0.96825 0.93669 0.3315 0.0
C692 C 0.12213 0.96322 0.30421 0.0
C693 C 0.11408 0.98036 0.32856 0.0
C694 C 0.14885 0.94258 0.30177 0.0
C695 C 0.16738 0.93818 0.325 0.0
C696 C 0.15917 0.95541 0.34968 0.0
C697 C 0.13289 0.97659 0.35083 0.0
C698 C 0.15724 0.92549 0.27444 0.0
C699 C 0.17784 0.95093 0.37546 0.0
C700 C 0.22468 0.8665 0.33904 0.0
C701 C 0.24845 0.87356 0.32882 0.0
C702 C 0.19807 0.88721 0.33749 0.0
C703 C 0.19518 0.91529 0.32413 0.0
C704 C 0.21919 0.92198 0.31224 0.0
C705 C 0.24556 0.90122 0.31544 0.0
C706 C 0.17318 0.87938 0.35141 0.0
C707 C 0.21708 0.95116 0.29651 0.0
H708 H 0.10763 0.96611 0.28696 0.0
H709 H 0.1266 0.98949 0.36997 0.0
H710 H 0.17725 0.92674 0.26317 0.0
H711 H 0.16045 0.90273 0.2821 0.0
H712 H 0.14136 0.93303 0.25718 0.0
H713 H 0.16797 0.9655 0.39351 0.0
H714 H 0.18329 0.92863 0.38628 0.0
H715 H 0.19751 0.95439 0.36626 0.0
H716 H 0.227 0.84506 0.34937 0.0
H717 H 0.26397 0.90657 0.30716 0.0
H718 H 0.15766 0.88408 0.33412 0.0
H719 H 0.16301 0.89245 0.37061 0.0
H720 H 0.17888 0.85652 0.36034 0.0
H721 H 0.20225 0.95728 0.27823 0.0
H722 H 0.23747 0.95211 0.28607 0.0
H723 H 0.20895 0.9672 0.31331 0.0
C724 C 0.13981 0.95755 0.79425 0.0
C725 C 0.13524 0.96854 0.76351 0.0
C726 C 0.16123 0.93151 0.80166 0.0
C727 C 0.17813 0.91596 0.77777 0.0
C728 C 0.17352 0.92709 0.74681 0.0
C729 C 0.15241 0.95311 0.74014 0.0
C730 C 0.16575 0.92057 0.83496 0.0
C731 C 0.19057 0.91119 0.7205 0.0
C732 C 0.24874 0.85741 0.78531 0.0
C733 C 0.24165 0.83288 0.78549 0.0
C734 C 0.22808 0.88458 0.78513 0.0
C735 C 0.19973 0.88732 0.78444 0.0
C736 C 0.19252 0.86242 0.78578 0.0
C737 C 0.2135 0.83562 0.78643 0.0
C738 C 0.23674 0.91043 0.78429 0.0
C739 C 0.16272 0.86413 0.78481 0.0
H740 H 0.1268 0.96933 0.81247 0.0
H741 H 0.14912 0.96117 0.71627 0.0
H742 H 0.16198 0.89996 0.84018 0.0
H743 H 0.18764 0.91655 0.83952 0.0
H744 H 0.15187 0.93573 0.85082 0.0
H745 H 0.18456 0.92288 0.69769 0.0
H746 H 0.21294 0.90742 0.72225 0.0
H747 H 0.18799 0.89006 0.72169 0.0
H748 H 0.27042 0.8555 0.78444 0.0
H749 H 0.2078 0.81673 0.7869 0.0
H750 H 0.22303 0.92527 0.80053 0.0
H751 H 0.23468 0.922 0.76089 0.0
H752 H 0.2586 0.90462 0.79017 0.0
H753 H 0.14918 0.87776 0.80216 0.0
H754 H 0.16026 0.84282 0.78907 0.0
H755 H 0.15526 0.87404 0.76189 0.0
C756 C 0.10664 0.12701 0.77413 0.0
C757 C 0.11464 0.11901 0.7442 0.0
C758 C 0.11849 0.14403 0.78645 0.0
C759 C 0.13868 0.15344 0.7683 0.0
C760 C 0.14595 0.14656 0.7376 0.0
C761 C 0.13381 0.12937 0.72589 0.0
C762 C 0.11015 0.15104 0.81923 0.0
C763 C 0.16733 0.15644 0.71752 0.0
C764 C 0.16001 0.21293 0.79006 0.0
C765 C 0.18571 0.19754 0.80216 0.0
C766 C 0.14388 0.19886 0.77986 0.0
C767 C 0.15368 0.16876 0.78203 0.0
C768 C 0.17874 0.15311 0.79593 0.0
C769 C 0.1945 0.1677 0.80576 0.0
C770 C 0.1171 0.21619 0.76538 0.0
C771 C 0.18968 0.12094 0.79896 0.0
H772 H 0.09123 0.11973 0.78811 0.0
H773 H 0.14003 0.12321 0.70281 0.0
H774 H 0.12811 0.14056 0.83353 0.0
H775 H 0.10408 0.17431 0.82038 0.0
H776 H 0.09262 0.1439 0.82944 0.0
H777 H 0.16922 0.15093 0.69356 0.0
H778 H 0.16185 0.17984 0.71699 0.0
H779 H 0.1879 0.14645 0.72725 0.0
H780 H 0.15298 0.236 0.7876 0.0
H781 H 0.21451 0.15565 0.81467 0.0
H782 H 0.09996 0.20852 0.77568 0.0
H783 H 0.11945 0.21357 0.74047 0.0
H784 H 0.1111 0.23923 0.7681 0.0
H785 H 0.17347 0.11234 0.81031 0.0
H786 H 0.2084 0.11201 0.81239 0.0
H787 H 0.19516 0.11337 0.77577 0.0
C788 C 0.98986 0.11783 0.80083 0.0
C789 C 0.99382 0.11072 0.77048 0.0
C790 C 0.96696 0.14132 0.80997 0.0
C791 C 0.94756 0.15779 0.78832 0.0
C792 C 0.9515 0.15043 0.75781 0.0
C793 C 0.97443 0.1272 0.74936 0.0
C794 C 0.96357 0.14862 0.84265 0.0
C795 C 0.93119 0.16685 0.734 0.0
C796 C 0.87181 0.19835 0.80845 0.0
C797 C 0.87051 0.22677 0.80087 0.0
C798 C 0.89707 0.17576 0.80659 0.0
C799 C 0.92196 0.18159 0.79732 0.0
C800 C 0.92107 0.21038 0.79181 0.0
C801 C 0.89528 0.2327 0.79351 0.0
C802 C 0.89681 0.14556 0.81258 0.0
C803 C 0.94713 0.21758 0.78231 0.0
H804 H 1.00483 0.10541 0.81723 0.0
H805 H 0.97707 0.12189 0.72587 0.0
H806 H 0.96208 0.17113 0.84286 0.0
H807 H 0.94397 0.14644 0.85407 0.0
H808 H 0.9811 0.13472 0.85629 0.0
H809 H 0.93754 0.15871 0.7111 0.0
H810 H 0.91031 0.16552 0.74153 0.0
H811 H 0.92925 0.18968 0.73149 0.0
H812 H 0.85278 0.1936 0.8148 0.0
H813 H 0.89443 0.25461 0.78791 0.0
H814 H 0.91102 0.13353 0.83069 0.0
H815 H 0.90439 0.13457 0.79144 0.0
H816 H 0.87573 0.14467 0.81989 0.0
H817 H 0.95385 0.2132 0.7581 0.0
H818 H 0.96424 0.20411 0.79669 0.0
H819 H 0.94385 0.24034 0.78414 0.0
C820 C 0.97835 1.00117 0.73501 0.0
C821 C 1.00091 0.99427 0.71295 0.0
C822 C 0.96047 0.98517 0.74065 0.0
C823 C 0.9651 0.96188 0.72356 0.0
C824 C 0.98688 0.95574 0.70008 0.0
C825 C 1.00459 0.972 0.69509 0.0
C826 C 0.93741 0.99242 0.76581 0.0
C827 C 0.99225 0.93121 0.68118 0.0
C828 C 0.94274 0.89984 0.75991 0.0
C829 C 0.91839 0.90474 0.74538 0.0
C830 C 0.95784 0.91862 0.75342 0.0
C831 C 0.94844 0.94272 0.73167 0.0
C832 C 0.92354 0.9481 0.71739 0.0
C833 C 0.90873 0.92906 0.72452 0.0
C834 C 0.9841 0.91242 0.76945 0.0
C835 C 0.913 0.97349 0.69397 0.0
H836 H 0.975 0.01878 0.74839 0.0
H837 H 1.02201 0.96644 0.67813 0.0
H838 H 0.9173 0.99467 0.757 0.0
H839 H 0.94155 0.97486 0.78473 0.0
H840 H 0.93535 1.01244 0.77543 0.0
H841 H 1.00841 0.93082 0.66208 0.0
H842 H 0.9992 0.9108 0.69612 0.0
H843 H 0.97286 0.93243 0.67139 0.0
H844 H 0.95006 0.88117 0.77624 0.0
H845 H 0.89006 0.93267 0.71299 0.0
H846 H 0.98282 0.93093 0.78143 0.0
H847 H 1.00215 0.90894 0.75226 0.0
H848 H 0.98802 0.89331 0.78651 0.0
H849 H 0.91079 0.9934 0.70382 0.0
H850 H 0.89265 0.97532 0.68599 0.0
H851 H 0.92825 0.97171 0.67376 0.0
C852 C 0.35047 0.1083 0.23147 0.0
C853 C 0.34181 0.11572 0.20135 0.0
C854 C 0.34832 0.12925 0.2507 0.0
C855 C 0.3369 0.15838 0.2398 0.0
C856 C 0.32845 0.16608 0.2094 0.0
C857 C 0.33126 0.14473 0.19052 0.0
C858 C 0.35777 0.12021 0.28292 0.0
C859 C 0.31592 0.19694 0.19695 0.0
C860 C 0.30259 0.2141 0.2954 0.0
C861 C 0.32229 0.22782 0.29451 0.0
C862 C 0.30745 0.19094 0.27844 0.0
C863 C 0.33277 0.18095 0.26038 0.0
C864 C 0.35329 0.19381 0.26052 0.0
C865 C 0.34775 0.2172 0.27745 0.0
C866 C 0.28488 0.17805 0.27873 0.0
C867 C 0.38069 0.18353 0.24187 0.0
H868 H 0.35844 0.08611 0.24039 0.0
H869 H 0.32505 0.15094 0.16721 0.0
H870 H 0.3727 0.13063 0.287 0.0
H871 H 0.33972 0.12716 0.29986 0.0
H872 H 0.3678 0.09677 0.28729 0.0
H873 H 0.31082 0.1994 0.17262 0.0
H874 H 0.29662 0.20731 0.21101 0.0
H875 H 0.33051 0.2085 0.19851 0.0
H876 H 0.28279 0.22214 0.30841 0.0
H877 H 0.36313 0.22758 0.2767 0.0
H878 H 0.29337 0.15461 0.28415 0.0
H879 H 0.27678 0.18229 0.25558 0.0
H880 H 0.26728 0.18684 0.29572 0.0
H881 H 0.39052 0.16015 0.24682 0.0
H882 H 0.39537 0.19404 0.24659 0.0
H883 H 0.37714 0.18795 0.217 0.0
C884 C 0.95137 0.366 0.18049 0.0
C885 C 0.97804 0.34593 0.18382 0.0
C886 C 0.92794 0.36186 0.19738 0.0
C887 C 0.93122 0.33722 0.21847 0.0
C888 C 0.95814 0.31708 0.22227 0.0
C889 C 0.98115 0.32159 0.20479 0.0
C890 C 0.89959 0.38364 0.19228 0.0
C891 C 0.96266 0.2907 0.24476 0.0
C892 C 0.87401 0.33702 0.28168 0.0
C893 C 0.86067 0.32072 0.27026 0.0
C894 C 0.89687 0.34268 0.26504 0.0
C895 C 0.90647 0.33212 0.23608 0.0
C896 C 0.89273 0.31616 0.22417 0.0
C897 C 0.87018 0.31051 0.24145 0.0
C898 C 0.9111 0.3595 0.27875 0.0
C899 C 0.90204 0.30477 0.19327 0.0
H900 H 0.94875 0.38466 0.16409 0.0
H901 H 1.0017 0.30619 0.2078 0.0
H902 H 0.88613 0.37346 0.18387 0.0
H903 H 0.88953 0.39199 0.2143 0.0
H904 H 0.90057 0.40182 0.17535 0.0
H905 H 0.98497 0.27756 0.2457 0.0
H906 H 0.95425 0.29674 0.26813 0.0
H907 H 0.95127 0.27744 0.23821 0.0
H908 H 0.867 0.34486 0.30398 0.0
H909 H 0.86 0.298 0.23231 0.0
H910 H 0.9112 0.37852 0.2628 0.0
H911 H 0.93308 0.34631 0.28201 0.0
H912 H 0.90087 0.36659 0.30126 0.0
H913 H 0.90212 0.32243 0.17523 0.0
H914 H 0.88847 0.29375 0.18668 0.0
H915 H 0.9236 0.28955 0.1937 0.0
C916 C 0.80175 0.91869 0.11821 0.0
C917 C 0.82611 0.92565 0.11617 0.0
C918 C 0.796 0.90012 0.14265 0.0
C919 C 0.81515 0.88797 0.16557 0.0
C920 C 0.83939 0.89551 0.16419 0.0
C921 C 0.84455 0.91429 0.13954 0.0
C922 C 0.76987 0.89271 0.14335 0.0
C923 C 0.8601 0.88334 0.18844 0.0
C924 C 0.79329 0.84964 0.23943 0.0
C925 C 0.80313 0.82145 0.23217 0.0
C926 C 0.79685 0.87173 0.21796 0.0
C927 C 0.8112 0.86518 0.189 0.0
C928 C 0.82161 0.83659 0.18193 0.0
C929 C 0.81701 0.8152 0.20336 0.0
C930 C 0.78546 0.90195 0.22631 0.0
C931 C 0.83815 0.82848 0.15195 0.0
H932 H 0.78748 0.92711 0.10019 0.0
H933 H 0.86307 0.92005 0.13856 0.0
H934 H 0.77542 0.87001 0.13944 0.0
H935 H 0.75841 0.89548 0.16627 0.0
H936 H 0.75583 0.90601 0.12555 0.0
H937 H 0.87933 0.88878 0.18226 0.0
H938 H 0.85064 0.89172 0.21062 0.0
H939 H 0.86574 0.85987 0.19207 0.0
H940 H 0.78275 0.85439 0.26181 0.0
H941 H 0.82521 0.79331 0.19789 0.0
H942 H 0.77228 0.91602 0.20823 0.0
H943 H 0.80282 0.90993 0.22772 0.0
H944 H 0.77299 0.90372 0.24872 0.0
H945 H 0.8254 0.83953 0.13232 0.0
H946 H 0.8453 0.80516 0.1503 0.0
H947 H 0.85666 0.83534 0.14957 0.0
C948 C 0.1455 0.70544 0.08868 0.0
C949 C 0.12177 0.69864 0.10018 0.0
C950 C 0.16106 0.71315 0.10806 0.0
C951 C 0.1527 0.71411 0.1398 0.0
C952 C 0.1298 0.70553 0.15188 0.0
C953 C 0.11463 0.69788 0.13195 0.0
C954 C 0.18544 0.72193 0.09421 0.0
C955 C 0.12014 0.70627 0.18554 0.0
C956 C 0.20161 0.72261 0.19406 0.0
C957 C 0.19138 0.75213 0.19601 0.0
C958 C 0.18922 0.70982 0.17602 0.0
C959 C 0.16599 0.72693 0.15958 0.0
C960 C 0.15546 0.75668 0.16166 0.0
C961 C 0.16829 0.76888 0.17969 0.0
C962 C 0.20104 0.67806 0.17441 0.0
C963 C 0.13074 0.77575 0.14449 0.0
H964 H 0.15123 0.70583 0.06421 0.0
H965 H 0.09614 0.69305 0.14105 0.0
H966 H 0.18028 0.74516 0.09494 0.0
H967 H 0.20385 0.71095 0.10771 0.0
H968 H 0.19104 0.71715 0.06992 0.0
H969 H 0.10426 0.69575 0.19197 0.0
H970 H 0.13791 0.6957 0.20007 0.0
H971 H 0.11098 0.72873 0.19085 0.0
H972 H 0.21924 0.70942 0.20679 0.0
H973 H 0.16052 0.79175 0.18049 0.0
H974 H 0.20782 0.67349 0.15026 0.0
H975 H 0.18481 0.6683 0.18221 0.0
H976 H 0.21903 0.66768 0.18875 0.0
H977 H 0.13554 0.7745 0.1194 0.0
H978 H 0.12472 0.79836 0.14905 0.0
H979 H 0.11266 0.76847 0.15115 0.0
C980 C 0.34057 0.9532 0.05044 0.0
C981 C 0.32679 0.98261 0.05032 0.0
C982 C 0.3327 0.9372 0.03169 0.0
C983 C 0.31041 0.95096 1.01265 0.0
C984 C 0.29603 0.98045 1.01297 0.0
C985 C 0.30456 0.99594 0.03153 0.0
C986 C 0.34866 0.90575 0.03166 0.0
C987 C 0.27211 0.99587 0.99301 0.0
C988 C 0.30982 0.92014 0.93914 0.0
C989 C 0.29045 0.90605 0.94727 0.0
C990 C 0.31662 0.9346 0.96034 0.0
C991 C 0.30357 0.93516 0.99039 0.0
C992 C 0.28366 0.92135 0.99871 0.0
C993 C 0.27745 0.90672 0.97703 0.0
C994 C 0.33812 0.94891 0.95069 0.0
C995 C 0.26908 0.92194 0.03047 0.0
H996 H 0.35747 0.94269 0.06519 0.0
H997 H 0.29408 0.0187 0.03072 0.0
H998 H 0.33422 0.8934 0.03643 0.0
H999 H 0.35928 0.90131 1.00859 0.0
H1000 H 0.36449 0.898 0.04896 0.0
H1001 H 0.26158 0.01832 0.99799 0.0
H1002 H 0.27981 0.99578 0.96843 0.0
H1003 H 0.25657 0.98479 0.9964 0.0
H1004 H 0.32045 0.91903 0.91639 0.0
H1005 H 0.26257 0.8957 0.98334 0.0
H1006 H 0.35558 0.94006 0.96591 0.0
H1007 H 0.32889 0.97204 0.9531 0.0
H1008 H 0.34658 0.94613 0.92652 0.0
H1009 H 0.28454 0.91233 0.04798 0.0
H1010 H 0.25403 0.91026 0.03322 0.0
H1011 H 0.25782 0.9443 0.03529 0.0
C1012 C 0.15494 0.3243 1.01498 0.0
C1013 C 0.12999 0.34761 1.01428 0.0
C1014 C 0.17495 0.32035 0.9899 0.0
C1015 C 0.16992 0.3399 0.9631 0.0
C1016 C 0.14502 0.36352 0.96218 0.0
C1017 C 0.1256 0.36725 0.98779 0.0
C1018 C 0.20149 0.29511 0.99203 0.0
C1019 C 0.13873 0.38476 0.93398 0.0
C1020 C 0.23248 0.3428 0.90935 0.0
C1021 C 0.23297 0.32465 0.88749 0.0
C1022 C 0.21188 0.34827 0.93375 0.0
C1023 C 0.19088 0.33573 0.93616 0.0
C1024 C 0.19051 0.31843 0.9134 0.0
C1025 C 0.2117 0.31288 0.88952 0.0
C1026 C 0.21335 0.36647 0.95773 0.0
C1027 C 0.16819 0.3051 0.91477 0.0
H1028 H 0.15886 0.30873 0.03489 0.0
H1029 H 0.10689 0.38567 0.98682 0.0
H1030 H 0.20314 0.28111 0.97393 0.0
H1031 H 0.2197 0.30247 0.98797 0.0
H1032 H 0.20268 0.28227 1.01476 0.0
H1033 H 0.11817 0.40169 0.93662 0.0
H1034 H 0.15494 0.39494 0.92906 0.0
H1035 H 0.13907 0.37367 0.91369 0.0
H1036 H 0.24897 0.35176 0.90827 0.0
H1037 H 0.21191 0.29879 0.87281 0.0
H1038 H 0.21691 0.35345 0.9803 0.0
H1039 H 0.19337 0.38413 0.96048 0.0
H1040 H 0.23027 0.37565 0.95186 0.0
H1041 H 0.16996 0.28947 0.93544 0.0
H1042 H 0.16961 0.294 0.89413 0.0
H1043 H 0.14734 0.32162 0.91685 0.0
C1044 C 0.85144 0.0947 0.93115 0.0
C1045 C 0.84068 0.08923 0.96109 0.0
C1046 C 0.84722 0.12275 0.91791 0.0
C1047 C 0.83199 0.14583 0.93512 0.0
C1048 C 0.82214 0.14038 0.96582 0.0
C1049 C 0.82658 0.11217 0.9784 0.0
C1050 C 0.85814 0.12772 0.88511 0.0
C1051 C 0.80619 0.16436 0.98508 0.0
C1052 C 0.83787 0.21791 0.90418 0.0
C1053 C 0.81423 0.23002 0.88723 0.0
C1054 C 0.84348 0.1909 0.92075 0.0
C1055 C 0.82507 0.17561 0.92034 0.0
C1056 C 0.80051 0.18827 0.90452 0.0
C1057 C 0.79535 0.21534 0.88825 0.0
C1058 C 0.86976 0.17824 0.93754 0.0
C1059 C 0.78031 0.17265 0.90361 0.0
H1060 H 0.86219 0.0771 0.91763 0.0
H1061 H 0.81871 0.10803 1.00178 0.0
H1062 H 0.8405 0.13886 0.87052 0.0
H1063 H 0.87098 0.14165 0.88373 0.0
H1064 H 0.87087 0.10755 0.87544 0.0
H1065 H 0.80175 0.1565 1.00925 0.0
H1066 H 0.81801 0.17909 0.98508 0.0
H1067 H 0.78618 0.17686 0.97501 0.0
H1068 H 0.85261 0.22904 0.90361 0.0
H1069 H 0.77706 0.22442 0.87524 0.0
H1070 H 0.88433 0.16005 0.92582 0.0
H1071 H 0.86515 0.16988 0.96141 0.0
H1072 H 0.88034 0.19398 0.93836 0.0
H1073 H 0.79059 0.15332 0.89147 0.0
H1074 H 0.76147 0.18604 0.8917 0.0
H1075 H 0.77379 0.16554 0.92728 0.0
C1076 C 0.96584 0.76476 0.92776 0.0
C1077 C 0.97415 0.73796 0.94498 0.0
C1078 C 0.9429 0.77329 0.90951 0.0
C1079 C 0.92761 0.75477 0.90868 0.0
C1080 C 0.93597 0.72769 0.92594 0.0
C1081 C 0.95912 0.7196 0.94368 0.0
C1082 C 0.93491 0.80222 0.89126 0.0
C1083 C 0.92009 0.7074 0.92618 0.0
C1084 C 0.85167 0.78503 0.88996 0.0
C1085 C 0.8529 0.77791 0.85994 0.0
C1086 C 0.87582 0.77827 0.9057 0.0
C1087 C 0.90205 0.76408 0.8911 0.0
C1088 C 0.90352 0.7576 0.86039 0.0
C1089 C 0.87891 0.76449 0.8452 0.0
C1090 C 0.87312 0.78567 0.93833 0.0
C1091 C 0.93104 0.74284 0.84381 0.0
H1092 H 0.97748 0.77895 0.92829 0.0
H1093 H 0.96508 0.69905 0.95717 0.0
H1094 H 0.93419 0.80001 0.86664 0.0
H1095 H 0.91382 0.81553 0.89944 0.0
H1096 H 0.94964 0.81358 0.89318 0.0
H1097 H 0.92966 0.68684 0.94013 0.0
H1098 H 0.89843 0.71726 0.93567 0.0
H1099 H 0.91907 0.70303 0.90237 0.0
H1100 H 0.83165 0.79561 0.90143 0.0
H1101 H 0.88 0.75891 0.82203 0.0
H1102 H 0.88643 0.79847 0.94056 0.0
H1103 H 0.88038 0.76587 0.95415 0.0
H1104 H 0.85138 0.79787 0.94589 0.0
H1105 H 0.94569 0.75447 0.8448 0.0
H1106 H 0.92892 0.74121 0.81933 0.0
H1107 H 0.94041 0.72106 0.85535 0.0
C1108 C 0.17491 0.27578 0.17591 0.0
C1109 C 0.14827 0.29614 0.17279 0.0
C1110 C 0.19315 0.27815 0.19639 0.0
C1111 C 0.18499 0.30179 0.21397 0.0
C1112 C 0.1579 0.32204 0.21145 0.0
C1113 C 0.13989 0.31887 0.19122 0.0
C1114 C 0.22153 0.25568 0.19857 0.0
C1115 C 0.14829 0.3478 0.22921 0.0
C1116 C 0.22813 0.30005 0.28103 0.0
C1117 C 0.24664 0.31359 0.26664 0.0
C1118 C 0.20784 0.29618 0.26442 0.0
C1119 C 0.20559 0.30656 0.23277 0.0
C1120 C 0.2238 0.32099 0.21857 0.0
C1121 C 0.24424 0.32388 0.23546 0.0
C1122 C 0.1895 0.28003 0.28047 0.0
C1123 C 0.22215 0.3329 0.18518 0.0
H1124 H 0.1817 0.25803 0.16205 0.0
H1125 H 0.11949 0.33484 0.18906 0.0
H1126 H 0.2256 0.24789 0.22299 0.0
H1127 H 0.22378 0.23723 0.18593 0.0
H1128 H 0.2377 0.26501 0.1889 0.0
H1129 H 0.12614 0.36068 0.22633 0.0
H1130 H 0.15111 0.34119 0.25405 0.0
H1131 H 0.16114 0.36149 0.22126 0.0
H1132 H 0.23042 0.2912 0.3048 0.0
H1133 H 0.25868 0.33405 0.22407 0.0
H1134 H 0.19292 0.26068 0.26892 0.0
H1135 H 0.16733 0.29332 0.2789 0.0
H1136 H 0.1936 0.27349 0.3051 0.0
H1137 H 0.22741 0.31528 0.17041 0.0
H1138 H 0.2365 0.34514 0.17806 0.0
H1139 H 0.20066 0.34706 0.18088 0.0
C1140 C 0.13869 0.77278 0.98376 0.0
C1141 C 0.11348 0.7736 0.97339 0.0
C1142 C 0.1623 0.77122 0.96334 0.0
C1143 C 0.16086 0.77122 0.93131 0.0
C1144 C 0.1353 0.77265 0.92058 0.0
C1145 C 0.11217 0.77336 0.94167 0.0
C1146 C 0.18904 0.76908 0.97622 0.0
C1147 C 0.13233 0.77351 0.8867 0.0
C1148 C 0.21601 0.7938 0.8784 0.0
C1149 C 0.23489 0.7677 0.86983 0.0
C1150 C 0.19162 0.7953 0.89743 0.0
C1151 C 0.18602 0.77 0.90924 0.0
C1152 C 0.20505 0.74354 0.90066 0.0
C1153 C 0.2289 0.74275 0.88075 0.0
C1154 C 0.17181 0.8241 0.90491 0.0
C1155 C 0.20051 0.71592 0.91308 0.0
H1156 H 0.14028 0.7725 1.00817 0.0
H1157 H 0.09295 0.77392 0.93328 0.0
H1158 H 0.20592 0.7497 0.96932 0.0
H1159 H 0.19533 0.78767 0.96665 0.0
H1160 H 0.18718 0.7682 1.00171 0.0
H1161 H 0.1109 0.77578 0.88179 0.0
H1162 H 0.13786 0.79159 0.87388 0.0
H1163 H 0.1469 0.75373 0.87777 0.0
H1164 H 0.22008 0.81331 0.86976 0.0
H1165 H 0.24326 0.72248 0.87435 0.0
H1166 H 0.17106 0.82581 0.92989 0.0
H1167 H 0.15049 0.82667 0.89936 0.0
H1168 H 0.17792 0.84185 0.89208 0.0
H1169 H 0.19984 0.71353 0.93857 0.0
H1170 H 0.21712 0.69713 0.90442 0.0
H1171 H 0.18023 0.71609 0.9066 0.0
C1172 C 0.32371 0.14074 0.02891 0.0
C1173 C 0.30359 0.12751 0.02979 0.0
C1174 C 0.32627 0.16121 1.00443 0.0
C1175 C 0.30816 0.16903 0.98015 0.0
C1176 C 0.28793 0.15563 0.98087 0.0
C1177 C 0.28599 0.13509 1.00544 0.0
C1178 C 0.34823 0.17473 1.00471 0.0
C1179 C 0.2679 0.16338 0.9559 0.0
C1180 C 0.29517 0.24311 0.93666 0.0
C1181 C 0.31185 0.23739 0.90915 0.0
C1182 C 0.2935 0.22117 0.95947 0.0
C1183 C 0.30919 0.19245 0.95516 0.0
C1184 C 0.32575 0.18642 0.92713 0.0
C1185 C 0.32672 0.20892 0.90436 0.0
C1186 C 0.275 0.22886 0.9884 0.0
C1187 C 0.34291 0.15622 0.92148 0.0
H1188 H 0.33757 0.13505 0.04735 0.0
H1189 H 0.27035 0.12512 1.00565 0.0
H1190 H 0.36148 0.17218 0.98286 0.0
H1191 H 0.33823 0.19792 1.00643 0.0
H1192 H 0.36169 0.16535 0.02419 0.0
H1193 H 0.25408 0.15031 0.95905 0.0
H1194 H 0.25482 0.18616 0.95568 0.0
H1195 H 0.27947 0.16055 0.93306 0.0
H1196 H 0.28335 0.26501 0.94049 0.0
H1197 H 0.33968 0.20429 0.88324 0.0
H1198 H 0.28752 0.2215 1.00877 0.0
H1199 H 0.25934 0.21794 0.99124 0.0
H1200 H 0.26394 0.25215 0.98815 0.0
H1201 H 0.35818 0.14696 0.93924 0.0
H1202 H 0.35427 0.1549 0.89842 0.0
H1203 H 0.32939 0.14293 0.92348 0.0
C1204 C 0.06106 0.26507 0.02955 0.0
C1205 C 0.05244 0.27574 0.05829 0.0
C1206 C 0.04181 0.26385 1.00979 0.0
C1207 C 1.01297 0.27388 1.01858 0.0
C1208 C 1.00421 0.28337 0.04821 0.0
C1209 C 1.02399 0.28403 0.06771 0.0
C1210 C 0.05231 0.25313 0.97875 0.0
C1211 C 0.97378 0.29444 0.05864 0.0
C1212 C 0.96482 0.30439 0.95277 0.0
C1213 C 0.95446 0.28237 0.95031 0.0
C1214 C 0.98328 0.30205 0.97516 0.0
C1215 C 0.99208 0.27691 0.99572 0.0
C1216 C 0.98151 0.25467 0.99362 0.0
C1217 C 0.96273 0.25773 0.97116 0.0
C1218 C 0.99355 0.32654 0.97663 0.0
C1219 C 0.99048 0.22738 1.01472 0.0
H1220 H 0.08293 0.25855 0.02195 0.0
H1221 H 1.01694 0.29257 0.08967 0.0
H1222 H 0.0429 0.23727 0.97457 0.0
H1223 H 0.04609 0.27111 0.96045 0.0
H1224 H 0.07528 0.24321 0.97664 0.0
H1225 H 0.97042 0.29828 0.08329 0.0
H1226 H 0.96351 0.31477 0.04471 0.0
H1227 H 0.96344 0.2792 0.05499 0.0
H1228 H 0.95826 0.32374 0.93723 0.0
H1229 H 0.95501 0.24052 0.96945 0.0
H1230 H 1.01643 0.31953 0.97185 0.0
H1231 H 0.98893 0.33359 1.00008 0.0
H1232 H 0.98396 0.34506 0.95987 0.0
H1233 H 1.01322 0.21663 1.01098 0.0
H1234 H 0.97977 0.21246 1.01093 0.0
H1235 H 0.9862 0.23206 0.03906 0.0
C1236 C 0.80933 0.92596 0.96087 0.0
C1237 C 0.79567 0.95529 0.96226 0.0
C1238 C 0.80448 0.91155 0.93808 0.0
C1239 C 0.78565 0.92679 0.91556 0.0
C1240 C 0.77105 0.95629 0.9173 0.0
C1241 C 0.77609 0.97019 0.94079 0.0
C1242 C 0.82021 0.88003 0.93763 0.0
C1243 C 0.75095 0.97337 0.89367 0.0
C1244 C 0.80167 0.88964 0.84225 0.0
C1245 C 0.7834 0.87398 0.84654 0.0
C1246 C 0.80129 0.90847 0.86342 0.0
C1247 C 0.78237 0.91163 0.88982 0.0
C1248 C 0.76283 0.89712 0.89335 0.0
C1249 C 0.7635 0.87862 0.87167 0.0
C1250 C 0.82231 0.92369 0.85842 0.0
C1251 C 0.74241 0.8996 0.92115 0.0
H1252 H 0.82435 0.91419 0.9775 0.0
H1253 H 0.76564 0.99288 0.94153 0.0
H1254 H 0.80554 0.86828 0.93743 0.0
H1255 H 0.8342 0.87625 0.91638 0.0
H1256 H 0.83294 0.87098 0.95775 0.0
H1257 H 0.73966 0.99546 0.89948 0.0
H1258 H 0.76242 0.97435 0.87087 0.0
H1259 H 0.73559 0.96288 0.8915 0.0
H1260 H 0.81705 0.88644 0.82289 0.0
H1261 H 0.74927 0.86668 0.87536 0.0
H1262 H 0.83818 0.91432 0.87553 0.0
H1263 H 0.81215 0.94654 0.86185 0.0
H1264 H 0.83303 0.92202 0.83503 0.0
H1265 H 0.75369 0.88835 0.94176 0.0
H1266 H 0.72627 0.89019 0.91856 0.0
H1267 H 0.73205 0.92222 0.92543 0.0
C1268 C 0.97093 0.77597 0.09525 0.0
C1269 C 0.99868 0.76939 0.1021 0.0
C1270 C 0.94955 0.77682 0.11886 0.0
C1271 C 0.9559 0.7706 0.15021 0.0
C1272 C 0.98377 0.76437 0.15718 0.0
C1273 C 1.00458 0.76395 0.13329 0.0
C1274 C 0.9201 0.78429 0.11028 0.0
C1275 C 0.99169 0.75812 0.19007 0.0
C1276 C 0.89947 0.79663 0.21486 0.0
C1277 C 0.89335 0.77188 0.22676 0.0
C1278 C 0.91939 0.79658 0.19002 0.0
C1279 C 0.93356 0.77123 0.17592 0.0
C1280 C 0.92732 0.74619 0.18756 0.0
C1281 C 0.90746 0.74677 0.21278 0.0
C1282 C 0.92504 0.82391 0.17886 0.0
C1283 C 0.94188 0.71862 0.17352 0.0
H1284 H 0.96593 0.78013 0.07141 0.0
H1285 H 1.02579 0.75878 0.13921 0.0
H1286 H 0.91192 0.76688 0.11955 0.0
H1287 H 0.90665 0.80375 0.12077 0.0
H1288 H 0.91845 0.78807 0.08499 0.0
H1289 H 1.01429 0.75323 0.1918 0.0
H1290 H 0.98013 0.77672 0.20294 0.0
H1291 H 0.98584 0.73976 0.20151 0.0
H1292 H 0.88883 0.81626 0.22522 0.0
H1293 H 0.90293 0.72753 0.22146 0.0
H1294 H 0.94747 0.82 0.1728 0.0
H1295 H 0.91792 0.83932 0.19642 0.0
H1296 H 0.91381 0.83385 0.15787 0.0
H1297 H 0.93888 0.72173 0.14854 0.0
H1298 H 0.9342 0.70123 0.18438 0.0
H1299 H 0.96454 0.71187 0.17603 0.0
C1300 C 0.29145 0.99975 0.14526 0.0
C1301 C 0.28602 0.02411 0.16047 0.0
C1302 C 0.29974 0.97215 0.16118 0.0
C1303 C 0.30119 0.96869 0.19359 0.0
C1304 C 0.29668 0.9932 0.20889 0.0
C1305 C 0.28931 0.02045 0.19216 0.0
C1306 C 0.30491 0.94689 0.1435 0.0
C1307 C 0.29731 0.99096 0.24336 0.0
C1308 C 0.28215 0.90628 0.23814 0.0
C1309 C 0.30791 0.88711 0.2472 0.0
C1310 C 0.27978 0.93271 0.22105 0.0
C1311 C 0.30385 0.94027 0.21181 0.0
C1312 C 0.33004 0.92081 0.22039 0.0
C1313 C 0.33172 0.89473 0.23828 0.0
C1314 C 0.25128 0.9528 0.2133 0.0
C1315 C 0.35633 0.9275 0.21051 0.0
H1316 H 0.28724 1.00227 0.1213 0.0
H1317 H 0.28409 0.03919 0.20433 0.0
H1318 H 0.32343 0.92902 0.15128 0.0
H1319 H 0.28682 0.93936 0.14774 0.0
H1320 H 0.30804 0.95234 0.11834 0.0
H1321 H 0.2964 1.01129 0.25143 0.0
H1322 H 0.27928 0.98515 0.25447 0.0
H1323 H 0.31638 0.97393 0.25117 0.0
H1324 H 0.26352 0.90092 0.24505 0.0
H1325 H 0.35176 0.88015 0.24498 0.0
H1326 H 0.25036 0.95747 0.188 0.0
H1327 H 0.24705 0.97331 0.22289 0.0
H1328 H 0.23459 0.94399 0.22248 0.0
H1329 H 0.35826 0.93177 0.1851 0.0
H1330 H 0.37516 0.90986 0.21803 0.0
H1331 H 0.35548 0.94706 0.22019 0.0
C1332 C 0.80566 0.06658 0.11064 0.0
C1333 C 0.78834 0.06617 0.08829 0.0
C1334 C 0.79879 0.08919 0.1288 0.0
C1335 C 0.77367 0.11221 0.12499 0.0
C1336 C 0.75531 0.11145 0.10352 0.0
C1337 C 0.76289 0.08842 0.0853 0.0
C1338 C 0.8191 0.08887 0.15131 0.0
C1339 C 0.72818 0.1354 0.09904 0.0
C1340 C 0.75671 0.15765 0.19182 0.0
C1341 C 0.76918 0.17822 0.18074 0.0
C1342 C 0.75588 0.13736 0.17308 0.0
C1343 C 0.768 0.13743 0.14253 0.0
C1344 C 0.77901 0.15925 0.13063 0.0
C1345 C 0.77946 0.17931 0.14981 0.0
C1346 C 0.74361 0.11477 0.18665 0.0
C1347 C 0.79226 0.16017 0.09828 0.0
H1348 H 0.82523 0.04937 0.11351 0.0
H1349 H 0.7494 0.08834 0.0681 0.0
H1350 H 0.82667 0.10714 0.14473 0.0
H1351 H 0.80869 0.09121 0.17475 0.0
H1352 H 0.83734 0.06894 0.15218 0.0
H1353 H 0.71468 0.13001 0.0846 0.0
H1354 H 0.71678 0.14073 0.12157 0.0
H1355 H 0.73234 0.15474 0.08774 0.0
H1356 H 0.74821 0.15689 0.21547 0.0
H1357 H 0.78937 0.19487 0.14096 0.0
H1358 H 0.7606 0.09424 0.19127 0.0
H1359 H 0.73037 0.11153 0.17022 0.0
H1360 H 0.73102 0.12029 0.20857 0.0
H1361 H 0.81223 0.14225 0.09684 0.0
H1362 H 0.79647 0.18041 0.09112 0.0
H1363 H 0.77876 0.15758 0.08173 0.0
C1364 C 0.64306 0.58479 0.86883 0.0
C1365 C 0.62373 0.58843 0.89441 0.0
C1366 C 0.65814 0.60343 0.8605 0.0
C1367 C 0.65385 0.62618 0.87829 0.0
C1368 C 0.63523 0.62931 0.90486 0.0
C1369 C 0.62037 0.61037 0.91261 0.0
C1370 C 0.67798 0.59931 0.83213 0.0
C1371 C 0.63025 0.65328 0.92448 0.0
C1372 C 0.70597 0.66506 0.87061 0.0
C1373 C 0.69248 0.68992 0.85203 0.0
C1374 C 0.6939 0.64382 0.87892 0.0
C1375 C 0.66778 0.64757 0.86829 0.0
C1376 C 0.65447 0.67222 0.84874 0.0
C1377 C 0.66697 0.69316 0.84089 0.0
C1378 C 0.70864 0.61783 0.89986 0.0
C1379 C 0.62672 0.67678 0.83667 0.0
H1380 H 0.64616 0.5675 0.85506 0.0
H1381 H 0.60533 0.61343 0.93225 0.0
H1382 H 0.67053 0.61778 0.81463 0.0
H1383 H 0.69881 0.59829 0.83777 0.0
H1384 H 0.68011 0.5796 0.82183 0.0
H1385 H 0.61644 0.65168 0.94543 0.0
H1386 H 0.65026 0.65334 0.93157 0.0
H1387 H 0.62059 0.67401 0.91091 0.0
H1388 H 0.72554 0.66268 0.87958 0.0
H1389 H 0.65666 0.71225 0.82628 0.0
H1390 H 0.71097 0.59816 0.88945 0.0
H1391 H 0.69607 0.61742 0.92201 0.0
H1392 H 0.72953 0.61741 0.90469 0.0
H1393 H 0.62796 0.65847 0.82438 0.0
H1394 H 0.61967 0.69659 0.82077 0.0
H1395 H 0.6108 0.67803 0.85615 0.0
C1396 C 0.47629 0.60237 0.85769 0.0
C1397 C 0.48624 0.58452 0.83397 0.0
C1398 C 0.45178 0.626 0.85558 0.0
C1399 C 0.4368 0.63238 0.82889 0.0
C1400 C 0.44642 0.61423 0.805 0.0
C1401 C 0.47092 0.5904 0.80792 0.0
C1402 C 0.44225 0.64455 0.88175 0.0
C1403 C 0.43129 0.62047 0.77601 0.0
C1404 C 0.36327 0.68614 0.83675 0.0
C1405 C 0.3682 0.71177 0.8272 0.0
C1406 C 0.38518 0.65984 0.83625 0.0
C1407 C 0.41241 0.65927 0.82536 0.0
C1408 C 0.4169 0.68512 0.81387 0.0
C1409 C 0.39486 0.71097 0.81524 0.0
C1410 C 0.37951 0.63284 0.84891 0.0
C1411 C 0.4453 0.68565 0.80134 0.0
H1412 H 0.48774 0.59791 0.8781 0.0
H1413 H 0.47838 0.57675 0.78948 0.0
H1414 H 0.44339 0.66603 0.87384 0.0
H1415 H 0.42027 0.64724 0.88937 0.0
H1416 H 0.45506 0.63558 0.90181 0.0
H1417 H 0.44021 0.60327 0.76056 0.0
H1418 H 0.409 0.62329 0.78173 0.0
H1419 H 0.43237 0.64071 0.76335 0.0
H1420 H 0.34264 0.68674 0.84594 0.0
H1421 H 0.39866 0.73076 0.80734 0.0
H1422 H 0.38959 0.62441 0.87087 0.0
H1423 H 0.38855 0.61627 0.8328 0.0
H1424 H 0.35693 0.63639 0.85327 0.0
H1425 H 0.45972 0.67862 0.82007 0.0
H1426 H 0.44481 0.70723 0.79112 0.0
H1427 H 0.45392 0.67064 0.78353 0.0
C1428 C 0.4912 0.45992 0.90653 0.0
C1429 C 0.51985 0.4481 0.9094 0.0
C1430 C 0.47587 0.44307 0.90103 0.0
C1431 C 0.4897 0.41378 0.89793 0.0
C1432 C 0.51855 0.40154 0.90158 0.0
C1433 C 0.5333 0.41888 0.90748 0.0
C1434 C 0.44502 0.45678 0.89777 0.0
C1435 C 0.53398 0.37044 0.89809 0.0
C1436 C 0.44318 0.36889 0.90582 0.0
C1437 C 0.4381 0.36935 0.87507 0.0
C1438 C 0.46087 0.38234 0.91359 0.0
C1439 C 0.47391 0.39631 0.88998 0.0
C1440 C 0.47 0.39556 0.85879 0.0
C1441 C 0.45192 0.38224 0.8517 0.0
C1442 C 0.46432 0.38298 0.9471 0.0
C1443 C 0.48394 0.40991 0.83299 0.0
H1444 H 0.48091 0.48251 0.90818 0.0
H1445 H 0.55556 0.40986 0.9092 0.0
H1446 H 0.44023 0.45561 0.87412 0.0
H1447 H 0.43349 0.44513 0.91383 0.0
H1448 H 0.43726 0.47948 0.90242 0.0
H1449 H 0.55613 0.36395 0.90315 0.0
H1450 H 0.524 0.35695 0.91364 0.0
H1451 H 0.53304 0.36612 0.87423 0.0
H1452 H 0.43219 0.35926 0.92395 0.0
H1453 H 0.44807 0.38242 0.82792 0.0
H1454 H 0.45448 0.4051 0.95337 0.0
H1455 H 0.48664 0.37624 0.95135 0.0
H1456 H 0.45472 0.369 0.96248 0.0
H1457 H 0.47533 0.43333 0.83368 0.0
H1458 H 0.4809 0.40498 0.81004 0.0
H1459 H 0.50655 0.4032 0.8358 0.0
C1460 C 0.62628 0.44256 0.80834 0.0
C1461 C 0.62198 0.46612 0.82452 0.0
C1462 C 0.65259 0.42125 0.80591 0.0
C1463 C 0.67475 0.42294 0.82115 0.0
C1464 C 0.67064 0.44705 0.83684 0.0
C1465 C 0.6445 0.4685 0.8379 0.0
C1466 C 0.65661 0.39678 0.78737 0.0
C1467 C 0.69356 0.44967 0.85363 0.0
C1468 C 0.73306 0.35556 0.84754 0.0
C1469 C 0.7557 0.35873 0.82853 0.0
C1470 C 0.70636 0.37597 0.84491 0.0
C1471 C 0.70207 0.39928 0.82171 0.0
C1472 C 0.72467 0.40124 0.80104 0.0
C1473 C 0.75135 0.38144 0.80531 0.0
C1474 C 0.68314 0.37344 0.86804 0.0
C1475 C 0.72115 0.42469 0.77497 0.0
H1476 H 0.60898 0.44064 0.79789 0.0
H1477 H 0.64132 0.48645 0.85075 0.0
H1478 H 0.67517 0.39396 0.77095 0.0
H1479 H 0.66036 0.37671 0.80282 0.0
H1480 H 0.63828 0.40007 0.7743 0.0
H1481 H 0.68669 0.46921 0.86576 0.0
H1482 H 0.7011 0.43086 0.87073 0.0
H1483 H 0.71139 0.45014 0.83714 0.0
H1484 H 0.73652 0.33796 0.86551 0.0
H1485 H 0.76885 0.38377 0.79039 0.0
H1486 H 0.66516 0.37366 0.85615 0.0
H1487 H 0.67593 0.39204 0.88166 0.0
H1488 H 0.68967 0.35368 0.8841 0.0
H1489 H 0.69999 0.43221 0.76659 0.0
H1490 H 0.73645 0.41732 0.7554 0.0
H1491 H 0.72487 0.44299 0.78294 0.0
C1492 C 0.62758 0.47845 0.30478 0.0
C1493 C 0.62649 0.48872 0.27351 0.0
C1494 C 0.64873 0.45315 0.31487 0.0
C1495 C 0.66905 0.43782 0.29316 0.0
C1496 C 0.66844 0.44871 0.26181 0.0
C1497 C 0.64737 0.4739 0.25248 0.0
C1498 C 0.6489 0.4424 0.34856 0.0
C1499 C 0.68953 0.43321 0.23773 0.0
C1500 C 0.73824 0.37998 0.30937 0.0
C1501 C 0.73241 0.35549 0.30538 0.0
C1502 C 0.71723 0.40691 0.30798 0.0
C1503 C 0.68987 0.40935 0.30214 0.0
C1504 C 0.68368 0.38438 0.29988 0.0
C1505 C 0.70498 0.35781 0.30158 0.0
C1506 C 0.72471 0.43288 0.31089 0.0
C1507 C 0.65494 0.38584 0.29351 0.0
H1508 H 0.61166 0.48979 0.32121 0.0
H1509 H 0.64706 0.48168 0.22828 0.0
H1510 H 0.64365 0.42255 0.35208 0.0
H1511 H 0.66994 0.43711 0.35669 0.0
H1512 H 0.63376 0.45821 0.3629 0.0
H1513 H 0.6868 0.4451 0.21448 0.0
H1514 H 0.71088 0.42958 0.24395 0.0
H1515 H 0.68768 0.41202 0.23664 0.0
H1516 H 0.7594 0.37831 0.31231 0.0
H1517 H 0.7003 0.33888 0.29884 0.0
H1518 H 0.70859 0.44753 0.32553 0.0
H1519 H 0.72576 0.44463 0.28782 0.0
H1520 H 0.74513 0.42715 0.32077 0.0
H1521 H 0.63904 0.39941 0.30927 0.0
H1522 H 0.65271 0.36445 0.29604 0.0
H1523 H 0.65055 0.39568 0.26968 0.0
C1524 C 0.65697 0.59286 0.24024 0.0
C1525 C 0.63573 0.60954 0.2214 0.0
C1526 C 0.67806 0.60276 0.24622 0.0
C1527 C 0.6778 0.63015 0.23323 0.0
C1528 C 0.65677 0.64687 0.21361 0.0
C1529 C 0.63604 0.63628 0.20779 0.0
C1530 C 0.70031 0.58412 0.26693 0.0
C1531 C 0.6557 0.67625 0.1995 0.0
C1532 C 0.71491 0.66612 0.2754 0.0
C1533 C 0.74006 0.66156 0.25746 0.0
C1534 C 0.69429 0.65642 0.26747 0.0
C1535 C 0.69904 0.64159 0.24109 0.0
C1536 C 0.72436 0.63701 0.22282 0.0
C1537 C 0.74453 0.64713 0.23117 0.0
C1538 C 0.66747 0.66193 0.28741 0.0
C1539 C 0.7303 0.62105 0.19471 0.0
H1540 H 0.65701 0.57201 0.25041 0.0
H1541 H 0.61952 0.64932 0.19346 0.0
H1542 H 0.72117 0.58114 0.25508 0.0
H1543 H 0.69917 0.59461 0.2879 0.0
H1544 H 0.69827 0.56285 0.27401 0.0
H1545 H 0.63866 0.68606 0.18379 0.0
H1546 H 0.65261 0.69031 0.21795 0.0
H1547 H 0.67569 0.6753 0.18647 0.0
H1548 H 0.71121 0.6776 0.29551 0.0
H1549 H 0.76406 0.64332 0.2174 0.0
H1550 H 0.66493 0.64141 0.29724 0.0
H1551 H 0.64957 0.67357 0.27334 0.0
H1552 H 0.66669 0.67452 0.3066 0.0
H1553 H 0.73004 0.59907 0.20145 0.0
H1554 H 0.75075 0.61982 0.18257 0.0
H1555 H 0.71387 0.63155 0.17844 0.0
C1556 C 0.4718 0.65096 0.24049 0.0
C1557 C 0.48809 0.63331 0.2638 0.0
C1558 C 0.44817 0.6742 0.24707 0.0
C1559 C 0.44035 0.6804 0.27786 0.0
C1560 C 0.45696 0.66319 0.30162 0.0
C1561 C 0.48066 0.63974 0.29432 0.0
C1562 C 0.4311 0.69169 0.22093 0.0
C1563 C 0.4494 0.66929 0.3347 0.0
C1564 C 0.38679 0.75464 0.28104 0.0
C1565 C 0.36203 0.74859 0.28269 0.0
C1566 C 0.41266 0.73247 0.28202 0.0
C1567 C 0.41366 0.7037 0.28462 0.0
C1568 C 0.38851 0.69765 0.28837 0.0
C1569 C 0.3631 0.72012 0.28722 0.0
C1570 C 0.4389 0.73992 0.27839 0.0
C1571 C 0.38839 0.66743 0.29145 0.0
H1572 H 0.47726 0.64645 0.21676 0.0
H1573 H 0.49315 0.62636 0.31247 0.0
H1574 H 0.40997 0.69007 0.22417 0.0
H1575 H 0.42874 0.71447 0.22073 0.0
H1576 H 0.44054 0.68465 0.19814 0.0
H1577 H 0.4656 0.65557 0.35012 0.0
H1578 H 0.44622 0.69194 0.33688 0.0
H1579 H 0.42952 0.66571 0.34264 0.0
H1580 H 0.38604 0.77662 0.27774 0.0
H1581 H 0.34396 0.7153 0.28914 0.0
H1582 H 0.44853 0.73683 0.25469 0.0
H1583 H 0.45418 0.72572 0.2945 0.0
H1584 H 0.43477 0.76239 0.28244 0.0
H1585 H 0.39543 0.65852 0.26902 0.0
H1586 H 0.36739 0.66618 0.29853 0.0
H1587 H 0.40298 0.65379 0.30851 0.0
C1588 C 0.47656 0.5063 0.25731 0.0
C1589 C 0.4961 0.50159 0.23188 0.0
C1590 C 0.45947 0.48951 0.26508 0.0
C1591 C 0.46182 0.4675 0.24691 0.0
C1592 C 0.48111 0.46294 0.22089 0.0
C1593 C 0.49801 0.48001 0.21371 0.0
C1594 C 0.43911 0.49512 0.29293 0.0
C1595 C 0.48421 0.43971 0.20091 0.0
C1596 C 0.43863 0.40527 0.28178 0.0
C1597 C 0.41281 0.41216 0.26947 0.0
C1598 C 0.45456 0.42332 0.27505 0.0
C1599 C 0.44451 0.44886 0.25543 0.0
C1600 C 0.41821 0.45623 0.24344 0.0
C1601 C 0.40267 0.43783 0.25064 0.0
C1602 C 0.48237 0.41483 0.28855 0.0
C1603 C 0.4068 0.48322 0.22237 0.0
H1604 H 0.47454 0.52322 0.27118 0.0
H1605 H 0.51319 0.47597 0.19426 0.0
H1606 H 0.41773 0.49964 0.2862 0.0
H1607 H 0.44394 0.4759 0.30982 0.0
H1608 H 0.43952 0.51334 0.30438 0.0
H1609 H 0.49952 0.43949 0.18095 0.0
H1610 H 0.49101 0.41865 0.2147 0.0
H1611 H 0.4639 0.44249 0.19223 0.0
H1612 H 0.44644 0.38563 0.29663 0.0
H1613 H 0.38291 0.44311 0.24072 0.0
H1614 H 0.48306 0.43195 0.30159 0.0
H1615 H 0.49912 0.41199 0.2698 0.0
H1616 H 0.48682 0.39474 0.30414 0.0
H1617 H 0.4062 0.50193 0.23357 0.0
H1618 H 0.38555 0.48644 0.21596 0.0
H1619 H 0.42065 0.48249 0.20105 0.0
C1620 C 0.84097 0.61986 0.66778 0.0
C1621 C 0.82491 0.63259 0.6426 0.0
C1622 C 0.84225 0.63616 0.69101 0.0
C1623 C 0.82744 0.6659 0.68875 0.0
C1624 C 0.81199 0.67888 0.66282 0.0
C1625 C 0.81083 0.66212 0.64028 0.0
C1626 C 0.85874 0.62147 0.71842 0.0
C1627 C 0.79615 0.71051 0.6591 0.0
C1628 C 0.80314 0.71018 0.75688 0.0
C1629 C 0.82188 0.72525 0.7539 0.0
C1630 C 0.80573 0.68947 0.73707 0.0
C1631 C 0.82746 0.68376 0.71343 0.0
C1632 C 0.84722 0.69789 0.71128 0.0
C1633 C 0.84426 0.71833 0.73154 0.0
C1634 C 0.78428 0.67483 0.74044 0.0
C1635 C 0.87056 0.69273 0.68635 0.0
H1636 H 0.85169 0.59705 0.6699 0.0
H1637 H 0.7985 0.67224 0.62082 0.0
H1638 H 0.87388 0.63196 0.7215 0.0
H1639 H 0.84455 0.62332 0.73956 0.0
H1640 H 0.87013 0.59854 0.71615 0.0
H1641 H 0.78604 0.71751 0.63699 0.0
H1642 H 0.77985 0.71619 0.67819 0.0
H1643 H 0.81033 0.72264 0.66021 0.0
H1644 H 0.7858 0.71522 0.77403 0.0
H1645 H 0.85893 0.72973 0.72893 0.0
H1646 H 0.79446 0.65155 0.73962 0.0
H1647 H 0.77064 0.6829 0.72101 0.0
H1648 H 0.77107 0.67863 0.76228 0.0
H1649 H 0.88146 0.66957 0.68536 0.0
H1650 H 0.88595 0.70282 0.68986 0.0
H1651 H 0.8619 0.70159 0.66372 0.0
C1652 C 0.48297 0.78869 0.65524 0.0
C1653 C 0.50732 0.76816 0.66627 0.0
C1654 C 0.45648 0.79129 0.67027 0.0
C1655 C 0.45402 0.7733 0.69745 0.0
C1656 C 0.4786 0.75283 0.70889 0.0
C1657 C 0.5047 0.75039 0.69316 0.0
C1658 C 0.43103 0.81311 0.65679 0.0
C1659 C 0.47736 0.73341 0.73791 0.0
C1660 C 0.38905 0.79607 0.75344 0.0
C1661 C 0.37415 0.77867 0.74779 0.0
C1662 C 0.41471 0.79476 0.73715 0.0
C1663 C 0.42594 0.77586 0.71407 0.0
C1664 C 0.41069 0.7587 0.70777 0.0
C1665 C 0.38528 0.76011 0.72477 0.0
C1666 C 0.43021 0.81312 0.74526 0.0
C1667 C 0.42142 0.73848 0.68326 0.0
H1668 H 0.48455 0.80235 0.63439 0.0
H1669 H 0.52324 0.73469 0.70223 0.0
H1670 H 0.41668 0.80244 0.65158 0.0
H1671 H 0.41972 0.82835 0.67375 0.0
H1672 H 0.43623 0.82525 0.63538 0.0
H1673 H 0.4983 0.71939 0.74457 0.0
H1674 H 0.46669 0.74621 0.75717 0.0
H1675 H 0.46508 0.71983 0.7347 0.0
H1676 H 0.38102 0.81032 0.77129 0.0
H1677 H 0.37418 0.74647 0.72009 0.0
H1678 H 0.43442 0.82659 0.72452 0.0
H1679 H 0.45059 0.7994 0.75371 0.0
H1680 H 0.41855 0.82716 0.76322 0.0
H1681 H 0.42605 0.75004 0.66117 0.0
H1682 H 0.40638 0.72802 0.67958 0.0
H1683 H 0.44112 0.72172 0.68984 0.0
C1684 C 0.28851 0.44056 0.64579 0.0
C1685 C 0.31182 0.4495 0.64039 0.0
C1686 C 0.28613 0.42082 0.67108 0.0
C1687 C 0.30751 0.40957 0.6918 0.0
C1688 C 0.33064 0.41921 0.68708 0.0
C1689 C 0.3325 0.43892 0.6616 0.0
C1690 C 0.26116 0.41114 0.67496 0.0
C1691 C 0.35391 0.40804 0.70847 0.0
C1692 C 0.29366 0.36876 0.76901 0.0
C1693 C 0.30505 0.34041 0.76211 0.0
C1694 C 0.29443 0.39155 0.74656 0.0
C1695 C 0.30694 0.38587 0.71654 0.0
C1696 C 0.31894 0.35718 0.70987 0.0
C1697 C 0.31786 0.335 0.73259 0.0
C1698 C 0.28156 0.42172 0.75482 0.0
C1699 C 0.33285 0.34979 0.67855 0.0
H1700 H 0.27244 0.44826 0.62967 0.0
H1701 H 0.35037 0.44594 0.65824 0.0
H1702 H 0.26781 0.38827 0.67131 0.0
H1703 H 0.25142 0.41331 0.69871 0.0
H1704 H 0.2453 0.42345 0.65852 0.0
H1705 H 0.36926 0.41935 0.70331 0.0
H1706 H 0.34546 0.41021 0.73268 0.0
H1707 H 0.36489 0.38503 0.70647 0.0
H1708 H 0.2838 0.37316 0.79174 0.0
H1709 H 0.32704 0.31318 0.72705 0.0
H1710 H 0.26427 0.43361 0.74 0.0
H1711 H 0.29712 0.43277 0.7505 0.0
H1712 H 0.27343 0.42266 0.77927 0.0
H1713 H 0.31813 0.36051 0.66051 0.0
H1714 H 0.34041 0.3265 0.67671 0.0
H1715 H 0.35077 0.35754 0.67366 0.0
C1716 C 0.59987 0.26929 0.60679 0.0
C1717 C 0.57683 0.28931 0.59257 0.0
C1718 C 0.61592 0.27728 0.6252 0.0
C1719 C 0.60913 0.30626 0.62982 0.0
C1720 C 0.58607 0.32683 0.61541 0.0
C1721 C 0.57014 0.31813 0.59695 0.0
C1722 C 0.64019 0.25444 0.63992 0.0
C1723 C 0.57818 0.35795 0.61965 0.0
C1724 C 0.64014 0.31332 0.70186 0.0
C1725 C 0.66579 0.31588 0.68994 0.0
C1726 C 0.62046 0.31252 0.68241 0.0
C1727 C 0.62641 0.31422 0.65009 0.0
C1728 C 0.65142 0.31872 0.63784 0.0
C1729 C 0.67073 0.31949 0.65781 0.0
C1730 C 0.59416 0.30772 0.69666 0.0
C1731 C 0.65871 0.32081 0.60362 0.0
H1732 H 0.60551 0.24693 0.60372 0.0
H1733 H 0.55248 0.33381 0.58614 0.0
H1734 H 0.65968 0.25901 0.6325 0.0
H1735 H 0.63724 0.25428 0.66531 0.0
H1736 H 0.64281 0.23285 0.63396 0.0
H1737 H 0.56014 0.3714 0.6065 0.0
H1738 H 0.57296 0.36105 0.64437 0.0
H1739 H 0.59604 0.36539 0.61214 0.0
H1740 H 0.63599 0.3103 0.72653 0.0
H1741 H 0.69013 0.32209 0.64818 0.0
H1742 H 0.59565 0.28548 0.69461 0.0
H1743 H 0.57594 0.32203 0.6844 0.0
H1744 H 0.5905 0.31127 0.72139 0.0
H1745 H 0.66425 0.29948 0.59543 0.0
H1746 H 0.67656 0.32859 0.59746 0.0
H1747 H 0.64065 0.33528 0.5912 0.0
C1748 C 0.87447 0.4651 0.56514 0.0
C1749 C 0.87149 0.49328 0.55332 0.0
C1750 C 0.8715 0.44572 0.54656 0.0
C1751 C 0.86543 0.45466 0.51541 0.0
C1752 C 0.86457 0.48235 0.50281 0.0
C1753 C 0.86771 0.50122 0.52182 0.0
C1754 C 0.87315 0.4162 0.56075 0.0
C1755 C 0.85811 0.49291 0.4698 0.0
C1756 C 0.86634 0.40156 0.46022 0.0
C1757 C 0.83815 0.40413 0.46172 0.0
C1758 C 0.87571 0.4175 0.47782 0.0
C1759 C 0.85643 0.43665 0.49721 0.0
C1760 C 0.82797 0.43937 0.49869 0.0
C1761 C 0.81924 0.42315 0.48102 0.0
C1762 C 0.90621 0.41383 0.47571 0.0
C1763 C 0.8066 0.45964 0.51883 0.0
H1764 H 0.8774 0.45863 0.58938 0.0
H1765 H 0.86554 0.52284 0.51232 0.0
H1766 H 0.85283 0.41324 0.56016 0.0
H1767 H 0.88868 0.40002 0.5472 0.0
H1768 H 0.8789 0.41215 0.58497 0.0
H1769 H 0.86153 0.51353 0.46247 0.0
H1770 H 0.87108 0.47707 0.45417 0.0
H1771 H 0.83607 0.49585 0.46706 0.0
H1772 H 0.88115 0.38677 0.44562 0.0
H1773 H 0.79737 0.42569 0.482 0.0
H1774 H 0.91439 0.40702 0.49882 0.0
H1775 H 0.90925 0.43446 0.46756 0.0
H1776 H 0.9186 0.39787 0.45987 0.0
H1777 H 0.81203 0.4542 0.54314 0.0
H1778 H 0.78533 0.45916 0.51756 0.0
H1779 H 0.80647 0.48172 0.51184 0.0
C1780 C 0.70364 0.7569 0.50598 0.0
C1781 C 0.67504 0.77253 0.50757 0.0
C1782 C 0.72139 0.7606 0.48008 0.0
C1783 C 0.71057 0.78037 0.4546 0.0
C1784 C 0.68177 0.7965 0.45614 0.0
C1785 C 0.66446 0.7925 0.4825 0.0
C1786 C 0.75181 0.74304 0.47994 0.0
C1787 C 0.66909 0.81768 0.42965 0.0
C1788 C 0.76198 0.80435 0.39624 0.0
C1789 C 0.76657 0.78609 0.37316 0.0
C1790 C 0.74369 0.80301 0.42256 0.0
C1791 C 0.72922 0.78317 0.426 0.0
C1792 C 0.73336 0.76516 0.40242 0.0
C1793 C 0.75195 0.76672 0.37661 0.0
C1794 C 0.74034 0.82243 0.4471 0.0
C1795 C 0.71834 0.74389 0.40459 0.0
H1796 H 0.71236 0.74179 0.52521 0.0
H1797 H 0.64247 0.80461 0.48316 0.0
H1798 H 0.76447 0.75726 0.47582 0.0
H1799 H 0.75733 0.72933 0.50187 0.0
H1800 H 0.75747 0.72922 0.46094 0.0
H1801 H 0.64665 0.82932 0.43468 0.0
H1802 H 0.6801 0.83337 0.42407 0.0
H1803 H 0.67151 0.80649 0.40888 0.0
H1804 H 0.77328 0.81919 0.39418 0.0
H1805 H 0.75515 0.75246 0.35908 0.0
H1806 H 0.74801 0.80953 0.46882 0.0
H1807 H 0.71806 0.83473 0.45182 0.0
H1808 H 0.75189 0.83759 0.44051 0.0
H1809 H 0.7227 0.7295 0.42622 0.0
H1810 H 0.72441 0.73075 0.38491 0.0
H1811 H 0.69559 0.75525 0.40525 0.0
C1812 C 0.30584 0.61365 0.43812 0.0
C1813 C 0.3104 0.6137 0.46897 0.0
C1814 C 0.30384 0.63772 0.41658 0.0
C1815 C 0.30572 0.66282 0.42622 0.0
C1816 C 0.30951 0.66315 0.45758 0.0
C1817 C 0.31209 0.63863 0.47836 0.0
C1818 C 0.30045 0.63606 0.38335 0.0
C1819 C 0.311 0.68944 0.46925 0.0
C1820 C 0.32803 0.71767 0.37051 0.0
C1821 C 0.30256 0.73907 0.36439 0.0
C1822 C 0.32925 0.69238 0.38947 0.0
C1823 C 0.30445 0.68854 0.40362 0.0
C1824 C 0.27863 0.71003 0.39733 0.0
C1825 C 0.27798 0.73477 0.37748 0.0
C1826 C 0.35722 0.6699 0.39458 0.0
C1827 C 0.25169 0.70727 0.41228 0.0
H1828 H 0.3047 0.59444 0.43066 0.0
H1829 H 0.3152 0.63903 0.50222 0.0
H1830 H 0.28147 0.65325 0.37555 0.0
H1831 H 0.31835 0.63935 0.36877 0.0
H1832 H 0.29904 0.61524 0.37951 0.0
H1833 H 0.31247 0.68684 0.49454 0.0
H1834 H 0.32939 0.69443 0.45795 0.0
H1835 H 0.29235 0.708 0.46331 0.0
H1836 H 0.34713 0.72055 0.36014 0.0
H1837 H 0.25822 0.75116 0.37292 0.0
H1838 H 0.35696 0.64883 0.39002 0.0
H1839 H 0.36191 0.6681 0.41893 0.0
H1840 H 0.37422 0.6748 0.37964 0.0
H1841 H 0.2495 0.68722 0.40709 0.0
H1842 H 0.23333 0.72541 0.40452 0.0
H1843 H 0.25178 0.70621 0.43763 0.0
C1844 C 0.44796 0.30687 0.46673 0.0
C1845 C 0.45761 0.28029 0.48418 0.0
C1846 C 0.42619 0.31311 0.44688 0.0
C1847 C 0.41351 0.29245 0.44466 0.0
C1848 C 0.42304 0.26582 0.46255 0.0
C1849 C 0.44483 0.2601 0.48177 0.0
C1850 C 0.41687 0.3417 0.4281 0.0
C1851 C 0.41003 0.24323 0.46164 0.0
C1852 C 0.33945 0.31151 0.42116 0.0
C1853 C 0.34361 0.30161 0.392 0.0
C1854 C 0.36187 0.31001 0.43777 0.0
C1855 C 0.38947 0.29861 0.42495 0.0
C1856 C 0.39378 0.28996 0.39477 0.0
C1857 C 0.37085 0.29141 0.37873 0.0
C1858 C 0.35597 0.3193 0.46981 0.0
C1859 C 0.42271 0.27815 0.37985 0.0
H1860 H 0.45771 0.32258 0.46815 0.0
H1861 H 0.45181 0.23952 0.49517 0.0
H1862 H 0.41882 0.33872 0.40331 0.0
H1863 H 0.39463 0.35319 0.43421 0.0
H1864 H 0.42916 0.3552 0.43169 0.0
H1865 H 0.41983 0.22358 0.47688 0.0
H1866 H 0.38756 0.25161 0.46884 0.0
H1867 H 0.41189 0.2375 0.43782 0.0
H1868 H 0.31848 0.31982 0.43152 0.0
H1869 H 0.37432 0.28392 0.35616 0.0
H1870 H 0.36688 0.33435 0.4723 0.0
H1871 H 0.36394 0.30051 0.4868 0.0
H1872 H 0.33342 0.32969 0.47561 0.0
H1873 H 0.43493 0.29202 0.38228 0.0
H1874 H 0.42254 0.2761 0.35505 0.0
H1875 H 0.43351 0.25681 0.39157 0.0
C1876 C 0.64616 0.82822 0.65747 0.0
C1877 C 0.63846 0.80389 0.66566 0.0
C1878 C 0.66619 0.83313 0.67341 0.0
C1879 C 0.67877 0.81333 0.69818 0.0
C1880 C 0.66986 0.78965 0.70756 0.0
C1881 C 0.64993 0.78526 0.69126 0.0
C1882 C 0.67497 0.85872 0.6627 0.0
C1883 C 0.68251 0.76796 0.73378 0.0
C1884 C 0.75363 0.80229 0.7127 0.0
C1885 C 0.75065 0.8162 0.73913 0.0
C1886 C 0.73047 0.80161 0.69907 0.0
C1887 C 0.70336 0.81536 0.71198 0.0
C1888 C 0.70014 0.82962 0.73864 0.0
C1889 C 0.72384 0.82983 0.75195 0.0
C1890 C 0.73514 0.78567 0.67108 0.0
C1891 C 0.67168 0.84444 0.75322 0.0
H1892 H 0.6375 0.84273 0.63776 0.0
H1893 H 0.644 0.76651 0.69808 0.0
H1894 H 0.67509 0.87017 0.68253 0.0
H1895 H 0.69646 0.85159 0.65187 0.0
H1896 H 0.66113 0.87379 0.64571 0.0
H1897 H 0.67132 0.75248 0.74037 0.0
H1898 H 0.70448 0.75599 0.727 0.0
H1899 H 0.68245 0.77867 0.75427 0.0
H1900 H 0.77427 0.79154 0.70272 0.0
H1901 H 0.72139 0.84081 0.77222 0.0
H1902 H 0.72353 0.79986 0.65195 0.0
H1903 H 0.72717 0.76758 0.67643 0.0
H1904 H 0.75745 0.77717 0.66308 0.0
H1905 H 0.65878 0.8602 0.73599 0.0
H1906 H 0.67257 0.85554 0.77307 0.0
H1907 H 0.66107 0.8287 0.76128 0.0
C1908 C 0.64169 0.22409 0.46246 0.0
C1909 C 0.61608 0.24632 0.46277 0.0
C1910 C 0.66535 0.22775 0.4456 0.0
C1911 C 0.66324 0.2541 0.42806 0.0
C1912 C 0.63727 0.27644 0.42786 0.0
C1913 C 0.61412 0.27238 0.44547 0.0
C1914 C 0.69272 0.2036 0.44702 0.0
C1915 C 0.63392 0.30467 0.40903 0.0
C1916 C 0.72738 0.27603 0.40661 0.0
C1917 C 0.73444 0.2691 0.37622 0.0
C1918 C 0.70473 0.27062 0.42393 0.0
C1919 C 0.68826 0.25855 0.41038 0.0
C1920 C 0.69536 0.25137 0.37975 0.0
C1921 C 0.71852 0.25645 0.36316 0.0
C1922 C 0.69828 0.27807 0.45669 0.0
C1923 C 0.67808 0.23898 0.36422 0.0
H1924 H 0.64336 0.20404 0.47607 0.0
H1925 H 0.5943 0.28949 0.44539 0.0
H1926 H 0.70081 0.19757 0.42357 0.0
H1927 H 0.70826 0.21055 0.45627 0.0
H1928 H 0.69091 0.18447 0.4617 0.0
H1929 H 0.61211 0.31944 0.41034 0.0
H1930 H 0.64734 0.31501 0.4172 0.0
H1931 H 0.64068 0.30127 0.38459 0.0
H1932 H 0.73965 0.28568 0.41694 0.0
H1933 H 0.72364 0.25128 0.33961 0.0
H1934 H 0.6974 0.25915 0.47238 0.0
H1935 H 0.6776 0.29481 0.45892 0.0
H1936 H 0.71396 0.28588 0.46438 0.0
H1937 H 0.67701 0.21906 0.37768 0.0
H1938 H 0.68652 0.23424 0.34043 0.0
H1939 H 0.65651 0.25415 0.3633 0.0
C1940 C 0.79996 0.65629 0.46004 0.0
C1941 C 0.81785 0.64166 0.48331 0.0
C1942 C 0.80819 0.67312 0.43531 0.0
C1943 C 0.83511 0.67517 0.43346 0.0
C1944 C 0.85369 0.65954 0.45599 0.0
C1945 C 0.84481 0.64324 0.48068 0.0
C1946 C 0.78765 0.68984 0.41192 0.0
C1947 C 0.88262 0.66101 0.45479 0.0
C1948 C 0.86037 0.71045 0.3593 0.0
C1949 C 0.85461 0.7381 0.36709 0.0
C1950 C 0.85451 0.68947 0.38076 0.0
C1951 C 0.84248 0.69651 0.4105 0.0
C1952 C 0.83731 0.7243 0.41855 0.0
C1953 C 0.84375 0.74454 0.39692 0.0
C1954 C 0.86084 0.65996 0.37147 0.0
C1955 C 0.82511 0.73299 0.45005 0.0
H1956 H 0.7793 0.655 0.46127 0.0
H1957 H 0.85896 0.63247 0.49834 0.0
H1958 H 0.78403 0.7129 0.4118 0.0
H1959 H 0.79622 0.68397 0.38855 0.0
H1960 H 0.76744 0.68617 0.41667 0.0
H1961 H 0.89586 0.64445 0.47119 0.0
H1962 H 0.89281 0.65842 0.43126 0.0
H1963 H 0.8814 0.68221 0.46061 0.0
H1964 H 0.86897 0.7054 0.33631 0.0
H1965 H 0.8394 0.76585 0.40323 0.0
H1966 H 0.84117 0.65585 0.37023 0.0
H1967 H 0.87294 0.64374 0.38895 0.0
H1968 H 0.87269 0.65714 0.34874 0.0
H1969 H 0.81061 0.72177 0.46031 0.0
H1970 H 0.8139 0.7563 0.44925 0.0
H1971 H 0.8422 0.72759 0.46555 0.0
C1972 C 0.51946 0.84775 0.52696 0.0
C1973 C 0.53712 0.81929 0.52798 0.0
C1974 C 0.49805 0.85835 0.50647 0.0
C1975 C 0.49424 0.83996 0.48686 0.0
C1976 C 0.5127 0.81158 0.48717 0.0
C1977 C 0.53385 0.80173 0.5075 0.0
C1978 C 0.47904 0.88885 0.50648 0.0
C1979 C 0.50956 0.79111 0.46675 0.0
C1980 C 0.42639 0.84419 0.45774 0.0
C1981 C 0.43112 0.85054 0.426 0.0
C1982 C 0.44566 0.84337 0.4784 0.0
C1983 C 0.47025 0.84914 0.46711 0.0
C1984 C 0.47387 0.85815 0.43549 0.0
C1985 C 0.45436 0.85855 0.41527 0.0
C1986 C 0.44092 0.83357 0.51188 0.0
C1987 C 0.49946 0.86509 0.42256 0.0
H1988 H 0.52187 0.86147 0.54264 0.0
H1989 H 0.54755 0.77981 0.50774 0.0
H1990 H 0.47608 0.89918 0.48261 0.0
H1991 H 0.45832 0.88942 0.51724 0.0
H1992 H 0.48716 0.90145 0.51944 0.0
H1993 H 0.52607 0.76991 0.46932 0.0
H1994 H 0.48912 0.78812 0.4724 0.0
H1995 H 0.51023 0.79993 0.44229 0.0
H1996 H 0.40862 0.8378 0.4663 0.0
H1997 H 0.45792 0.86399 0.39084 0.0
H1998 H 0.44585 0.84695 0.52691 0.0
H1999 H 0.45495 0.81134 0.51697 0.0
H2000 H 0.41917 0.83419 0.51783 0.0
H2001 H 0.5049 0.87779 0.43801 0.0
H2002 H 0.49665 0.87705 0.39934 0.0
H2003 H 0.51728 0.84502 0.4207 0.0
C2004 C 0.26422 0.48363 0.45972 0.0
C2005 C 0.28721 0.47114 0.47756 0.0
C2006 C 0.25897 0.46883 0.4374 0.0
C2007 C 0.27685 0.44075 0.43322 0.0
C2008 C 0.2998 0.42792 0.45155 0.0
C2009 C 0.30479 0.44333 0.47325 0.0
C2010 C 0.23456 0.48335 0.41799 0.0
C2011 C 0.31919 0.39786 0.44823 0.0
C2012 C 0.25532 0.38748 0.39757 0.0
C2013 C 0.2711 0.38558 0.36928 0.0
C2014 C 0.25572 0.40654 0.41799 0.0
C2015 C 0.27194 0.42447 0.40974 0.0
C2016 C 0.28615 0.42421 0.38022 0.0
C2017 C 0.28573 0.40463 0.36045 0.0
C2018 C 0.24057 0.40581 0.44935 0.0
C2019 C 0.30331 0.44328 0.37024 0.0
H2020 H 0.25063 0.50516 0.4628 0.0
H2021 H 0.3225 0.43342 0.48704 0.0
H2022 H 0.24195 0.48467 0.39334 0.0
H2023 H 0.22043 0.47067 0.42074 0.0
H2024 H 0.22256 0.50519 0.42413 0.0
H2025 H 0.33543 0.3906 0.46506 0.0
H2026 H 0.30724 0.38295 0.45144 0.0
H2027 H 0.32959 0.3965 0.42472 0.0
H2028 H 0.24412 0.37272 0.40475 0.0
H2029 H 0.29789 0.40341 0.33859 0.0
H2030 H 0.22851 0.42769 0.45516 0.0
H2031 H 0.25591 0.39587 0.46695 0.0
H2032 H 0.22621 0.39342 0.45085 0.0
H2033 H 0.29146 0.46544 0.37533 0.0
H2034 H 0.30985 0.44337 0.3453 0.0
H2035 H 0.32222 0.4358 0.38329 0.0
C2036 C 0.44845 0.26054 0.64616 0.0
C2037 C 0.47499 0.23979 0.64467 0.0
C2038 C 0.43131 0.2633 0.67365 0.0
C2039 C 0.44097 0.24504 0.7005 0.0
C2040 C 0.46787 0.2243 0.69926 0.0
C2041 C 0.48446 0.22185 0.6714 0.0
C2042 C 0.40268 0.28555 0.67385 0.0
C2043 C 0.47912 0.20467 0.72739 0.0
C2044 C 0.40276 0.27017 0.77642 0.0
C2045 C 0.38395 0.25512 0.78176 0.0
C2046 C 0.42213 0.26635 0.75071 0.0
C2047 C 0.42259 0.24722 0.7296 0.0
C2048 C 0.40449 0.23107 0.73559 0.0
C2049 C 0.38556 0.23508 0.76162 0.0
C2050 C 0.4413 0.2837 0.74546 0.0
C2051 C 0.40415 0.21054 0.71367 0.0
H2052 H 0.44086 0.2743 0.62561 0.0
H2053 H 0.50508 0.20609 0.67067 0.0
H2054 H 0.38673 0.27515 0.68019 0.0
H2055 H 0.40038 0.30025 0.69142 0.0
H2056 H 0.39834 0.29828 0.65118 0.0
H2057 H 0.50072 0.19019 0.72287 0.0
H2058 H 0.47877 0.21733 0.74632 0.0
H2059 H 0.46575 0.19157 0.73552 0.0
H2060 H 0.40173 0.28574 0.79173 0.0
H2061 H 0.3711 0.22341 0.7653 0.0
H2062 H 0.43562 0.29927 0.72486 0.0
H2063 H 0.46307 0.26972 0.74098 0.0
H2064 H 0.44025 0.29555 0.76539 0.0
H2065 H 0.39736 0.22244 0.69119 0.0
H2066 H 0.38996 0.19843 0.72244 0.0
H2067 H 0.42534 0.19519 0.70945 0.0
C2068 C 0.80235 0.4676 0.63683 0.0
C2069 C 0.78967 0.49221 0.6521 0.0
C2070 C 0.80807 0.44023 0.65271 0.0
C2071 C 0.8009 0.43728 0.6847 0.0
C2072 C 0.78745 0.46197 0.7001 0.0
C2073 C 0.78205 0.48904 0.68368 0.0
C2074 C 0.82259 0.41458 0.63534 0.0
C2075 C 0.77925 0.45984 0.73415 0.0
C2076 C 0.79215 0.36891 0.72507 0.0
C2077 C 0.81612 0.35715 0.74157 0.0
C2078 C 0.78739 0.39444 0.70571 0.0
C2079 C 0.80723 0.40851 0.70231 0.0
C2080 C 0.83217 0.39601 0.71751 0.0
C2081 C 0.83625 0.37058 0.7371 0.0
C2082 C 0.7606 0.40695 0.68981 0.0
C2083 C 0.85408 0.41007 0.71398 0.0
H2084 H 0.80813 0.46969 0.61242 0.0
H2085 H 0.77268 0.50771 0.69594 0.0
H2086 H 0.84452 0.4052 0.6414 0.0
H2087 H 0.8128 0.39794 0.64173 0.0
H2088 H 0.82241 0.42021 0.61006 0.0
H2089 H 0.7676 0.48096 0.74239 0.0
H2090 H 0.76619 0.44609 0.73953 0.0
H2091 H 0.79809 0.44976 0.74717 0.0
H2092 H 0.77638 0.35883 0.72823 0.0
H2093 H 0.85487 0.3617 0.74959 0.0
H2094 H 0.76517 0.40976 0.66457 0.0
H2095 H 0.74872 0.42833 0.6972 0.0
H2096 H 0.74728 0.39337 0.69482 0.0
H2097 H 0.85958 0.41496 0.68926 0.0
H2098 H 0.87325 0.39652 0.72519 0.0
H2099 H 0.84581 0.43055 0.72434 0.0
C2100 C 0.2141 0.56427 0.63025 0.0
C2101 C 0.22108 0.57313 0.59978 0.0
C2102 C 0.21179 0.58135 0.65392 0.0
C2103 C 0.21679 0.60753 0.64674 0.0
C2104 C 0.21964 0.61826 0.61557 0.0
C2105 C 0.22168 0.6009 0.59244 0.0
C2106 C 0.20736 0.5698 0.68679 0.0
C2107 C 0.22441 0.64634 0.60673 0.0
C2108 C 0.21918 0.65803 0.70266 0.0
C2109 C 0.24788 0.64935 0.70562 0.0
C2110 C 0.20812 0.64337 0.68537 0.0
C2111 C 0.2263 0.61982 0.67055 0.0
C2112 C 0.25501 0.60985 0.67544 0.0
C2113 C 0.26533 0.6246 0.69308 0.0
C2114 C 0.17731 0.6542 0.68156 0.0
C2115 C 0.27527 0.5847 0.66034 0.0
H2116 H 0.21325 0.54294 0.63607 0.0
H2117 H 0.22648 0.60805 0.56879 0.0
H2118 H 0.22777 0.55943 0.69679 0.0
H2119 H 0.19481 0.58717 0.7009 0.0
H2120 H 0.19685 0.55369 0.68829 0.0
H2121 H 0.22199 0.65356 0.58189 0.0
H2122 H 0.20976 0.66306 0.62031 0.0
H2123 H 0.24581 0.64403 0.61177 0.0
H2124 H 0.20556 0.67707 0.71251 0.0
H2125 H 0.28743 0.61739 0.69606 0.0
H2126 H 0.16956 0.6366 0.67922 0.0
H2127 H 0.17293 0.66931 0.66045 0.0
H2128 H 0.16555 0.66573 0.70133 0.0
H2129 H 0.26849 0.56584 0.66588 0.0
H2130 H 0.29667 0.57892 0.66772 0.0
H2131 H 0.27592 0.58974 0.63498 0.0
loop_
_geom_bond_atom_site_label_1
_geom_bond_atom_site_label_2
_geom_bond_distance
_geom_bond_site_symmetry_2
_ccdc_geom_bond_type
Cu0 N1 1.999 . S
Cu0 O6 1.974 1_545 S
Cu0 N11 1.985 1_545 S
Cu0 O20 1.973 . S
N1 Cu0 1.999 . S
N1 C3 1.263 . S
N1 C5 1.389 . S
N2 C3 1.358 . S
N2 C4 1.400 . S
C3 N1 1.263 . S
C3 N2 1.358 . S
C3 H9 0.930 . S
C4 N2 1.400 . S
C4 C5 1.351 . S
C4 H21 0.930 . S
C5 N1 1.389 . S
C5 C4 1.351 . S
C5 H10 0.930 . S
O6 Cu0 1.974 1_565 S
O6 C16 1.282 . S
C7 O8 1.261 1_655 S
C7 O20 1.245 1_655 S
O8 C7 1.261 1_455 S
H9 C3 0.930 . S
H10 C5 0.930 . S
N11 Cu0 1.985 1_565 S
N11 C13 1.335 1_455 S
N11 C14 1.390 . S
N12 C13 1.345 . S
N12 C15 1.336 1_655 S
C13 N11 1.335 1_655 S
C13 N12 1.345 . S
C13 H18 0.930 . S
C14 N11 1.390 . S
C14 C15 1.346 . S
C14 H19 0.930 . S
C15 N12 1.336 1_455 S
C15 C14 1.346 . S
C15 H22 0.929 . S
C16 O6 1.282 . S
C16 O17 1.216 . S
O17 C16 1.216 . S
H18 C13 0.930 . S
H19 C14 0.930 . S
O20 Cu0 1.973 . S
O20 C7 1.245 1_455 S
H21 C4 0.930 . S
H22 C15 0.929 . S
Cu23 N24 2.031 . S
Cu23 O29 1.974 1_455 S
Cu23 N34 1.985 . S
Cu23 O43 1.959 . S
N24 Cu23 2.031 . S
N24 C26 1.227 1_455 S
N24 C28 1.390 1_545 S
N25 C26 1.358 . S
N25 C27 1.400 1_545 S
C26 N24 1.227 1_655 S
C26 N25 1.358 . S
C26 H32 0.930 . S
C27 N25 1.400 1_565 S
C27 C28 1.351 1_655 S
C27 H44 0.930 . S
C28 N24 1.390 1_565 S
C28 C27 1.351 1_455 S
C28 H33 0.930 . S
O29 Cu23 1.974 1_655 S
O29 C39 1.282 . S
C30 O31 1.261 . S
C30 O43 1.251 . S
O31 C30 1.261 . S
H32 C26 0.930 . S
H33 C28 0.930 . S
N34 Cu23 1.985 . S
N34 C36 1.335 . S
N34 C37 1.390 . S
N35 C36 1.345 . S
N35 C38 1.336 . S
C36 N34 1.335 . S
C36 N35 1.345 . S
C36 H41 0.930 . S
C37 N34 1.390 . S
C37 C38 1.346 . S
C37 H42 0.930 . S
C38 N35 1.336 . S
C38 C37 1.346 . S
C38 H45 0.929 . S
C39 O29 1.282 . S
C39 O40 1.216 . S
O40 C39 1.216 . S
H41 C36 0.930 . S
H42 C37 0.930 . S
O43 Cu23 1.959 . S
O43 C30 1.251 . S
H44 C27 0.930 . S
H45 C38 0.929 . S
Cu46 N47 1.999 . S
Cu46 O52 1.974 . S
Cu46 N57 1.985 . S
Cu46 O66 1.959 . S
N47 Cu46 1.999 . S
N47 C49 1.263 . S
N47 C51 1.389 . S
N48 C49 1.358 1_565 S
N48 C50 1.400 1_565 S
C49 N47 1.263 . S
C49 N48 1.358 1_545 S
C49 H55 0.930 . S
C50 N48 1.400 1_545 S
C50 C51 1.351 . S
C50 H67 0.930 1_554 S
C51 N47 1.389 . S
C51 C50 1.351 . S
C51 H56 0.930 . S
O52 Cu46 1.974 . S
O52 C62 1.282 . S
C53 O54 1.261 . S
C53 O66 1.251 . S
O54 C53 1.261 . S
H55 C49 0.930 . S
H56 C51 0.930 . S
N57 Cu46 1.985 . S
N57 C59 1.335 . S
N57 C60 1.390 . S
N58 C59 1.345 . S
N58 C61 1.336 . S
C59 N57 1.335 . S
C59 N58 1.345 . S
C59 H64 0.930 . S
C60 N57 1.390 . S
C60 C61 1.346 . S
C60 H65 0.930 . S
C61 N58 1.336 . S
C61 C60 1.346 . S
C61 H68 0.929 . S
C62 O52 1.282 . S
C62 O63 1.216 . S
O63 C62 1.216 . S
H64 C59 0.930 . S
H65 C60 0.930 . S
O66 Cu46 1.959 . S
O66 C53 1.251 . S
H67 C50 0.930 1_556 S
H68 C61 0.929 . S
Cu69 N70 1.999 . S
Cu69 O75 1.974 . S
Cu69 N80 1.985 . S
Cu69 O89 1.959 . S
N70 Cu69 1.999 . S
N70 C72 1.263 . S
N70 C74 1.389 . S
N71 C72 1.358 . S
N71 C73 1.400 1_554 S
C72 N70 1.263 . S
C72 N71 1.358 . S
C72 H78 0.930 . S
C73 N71 1.400 1_556 S
C73 C74 1.351 1_556 S
C73 H90 0.930 . S
C74 N70 1.389 . S
C74 C73 1.351 1_554 S
C74 H79 0.930 . S
O75 Cu69 1.974 . S
O75 C85 1.282 . S
C76 O77 1.261 . S
C76 O89 1.251 . S
O77 C76 1.261 . S
H78 C72 0.930 . S
H79 C74 0.930 . S
N80 Cu69 1.985 . S
N80 C82 1.335 1_455 S
N80 C83 1.390 . S
N81 C82 1.345 . S
N81 C84 1.336 1_655 S
C82 N80 1.335 1_655 S
C82 N81 1.345 . S
C82 H87 0.930 . S
C83 N80 1.390 . S
C83 C84 1.346 . S
C83 H88 0.930 . S
C84 N81 1.336 1_455 S
C84 C83 1.346 . S
C84 H91 0.929 . S
C85 O75 1.282 . S
C85 O86 1.216 . S
O86 C85 1.216 . S
H87 C82 0.930 . S
H88 C83 0.930 . S
O89 Cu69 1.959 . S
O89 C76 1.251 . S
H90 C73 0.930 . S
H91 C84 0.929 . S
Cu92 N93 1.999 1_554 S
Cu92 O98 1.974 . S
Cu92 N103 1.985 1_545 S
Cu92 O112 1.959 1_544 S
N93 Cu92 1.999 1_556 S
N93 C95 1.263 . S
N93 C97 1.389 . S
N94 C95 1.358 . S
N94 C96 1.400 . S
C95 N93 1.263 . S
C95 N94 1.358 . S
C95 H101 0.930 . S
C96 N94 1.400 . S
C96 C97 1.351 . S
C96 H113 0.930 . S
C97 N93 1.389 . S
C97 C96 1.351 . S
C97 H102 0.930 . S
O98 Cu92 1.974 . S
O98 C108 1.282 . S
C99 O100 1.261 . S
C99 O112 1.251 . S
O100 C99 1.261 . S
H101 C95 0.930 . S
H102 C97 0.930 . S
N103 Cu92 1.985 1_565 S
N103 C105 1.335 . S
N103 C106 1.390 . S
N104 C105 1.345 . S
N104 C107 1.336 . S
C105 N103 1.335 . S
C105 N104 1.345 . S
C105 H110 0.930 . S
C106 N103 1.390 . S
C106 C107 1.346 . S
C106 H111 0.930 . S
C107 N104 1.336 . S
C107 C106 1.346 . S
C107 H114 0.929 . S
C108 O98 1.282 . S
C108 O109 1.216 . S
O109 C108 1.216 . S
H110 C105 0.930 . S
H111 C106 0.930 . S
O112 Cu92 1.959 1_566 S
O112 C99 1.251 . S
H113 C96 0.930 . S
H114 C107 0.929 . S
Cu115 N116 1.999 1_454 S
Cu115 O121 1.974 1_455 S
Cu115 N126 1.985 . S
Cu115 O135 1.959 1_554 S
N116 Cu115 1.999 1_656 S
N116 C118 1.263 . S
N116 C120 1.390 1_655 S
N117 C118 1.358 . S
N117 C119 1.400 . S
C118 N116 1.263 . S
C118 N117 1.358 . S
C118 H124 0.924 1_556 S
C119 N117 1.400 . S
C119 C120 1.355 1_655 S
C119 H136 0.930 . S
C120 N116 1.390 1_455 S
C120 C119 1.355 1_455 S
C120 H125 0.925 . S
O121 Cu115 1.974 1_655 S
O121 C131 1.282 . S
C122 O123 1.261 . S
C122 O135 1.251 . S
O123 C122 1.261 . S
H124 C118 0.924 1_554 S
H125 C120 0.925 . S
N126 Cu115 1.985 . S
N126 C128 1.335 . S
N126 C129 1.390 . S
N127 C128 1.345 . S
N127 C130 1.336 . S
C128 N126 1.335 . S
C128 N127 1.345 . S
C128 H133 0.930 . S
C129 N126 1.390 . S
C129 C130 1.346 . S
C129 H134 0.930 . S
C130 N127 1.336 . S
C130 C129 1.346 . S
C130 H137 0.929 . S
C131 O121 1.282 . S
C131 O132 1.216 . S
O132 C131 1.216 . S
H133 C128 0.930 . S
H134 C129 0.930 . S
O135 Cu115 1.959 1_556 S
O135 C122 1.251 . S
H136 C119 0.930 . S
H137 C130 0.929 . S
Cu138 N139 1.999 . S
Cu138 O144 1.974 . S
Cu138 N149 1.985 . S
Cu138 O158 1.959 . S
N139 Cu138 1.999 . S
N139 C141 1.263 . S
N139 C143 1.389 . S
N140 C141 1.358 . S
N140 C142 1.400 . S
C141 N139 1.263 . S
C141 N140 1.358 . S
C141 H147 0.930 . S
C142 N140 1.400 . S
C142 C143 1.351 . S
C142 H159 0.930 . S
C143 N139 1.389 . S
C143 C142 1.351 . S
C143 H148 0.930 . S
O144 Cu138 1.974 . S
O144 C154 1.282 . S
C145 O146 1.261 . S
C145 O158 1.251 . S
O146 C145 1.261 . S
H147 C141 0.930 . S
H148 C143 0.930 . S
N149 Cu138 1.985 . S
N149 C151 1.335 . S
N149 C152 1.390 . S
N150 C151 1.345 . S
N150 C153 1.336 . S
C151 N149 1.335 . S
C151 N150 1.345 . S
C151 H156 0.930 . S
C152 N149 1.390 . S
C152 C153 1.346 . S
C152 H157 0.930 . S
C153 N150 1.336 . S
C153 C152 1.346 . S
C153 H160 0.929 . S
C154 O144 1.282 . S
C154 O155 1.216 . S
O155 C154 1.216 . S
H156 C151 0.930 . S
H157 C152 0.930 . S
O158 Cu138 1.959 . S
O158 C145 1.251 . S
H159 C142 0.930 . S
H160 C153 0.929 . S
Cu161 N162 1.999 . S
Cu161 O167 1.974 . S
Cu161 N172 1.985 . S
Cu161 O181 1.959 . S
N162 Cu161 1.999 . S
N162 C164 1.263 . S
N162 C166 1.389 . S
N163 C164 1.358 . S
N163 C165 1.400 . S
C164 N162 1.263 . S
C164 N163 1.358 . S
C164 H170 0.930 . S
C165 N163 1.400 . S
C165 C166 1.351 . S
C165 H182 0.930 . S
C166 N162 1.389 . S
C166 C165 1.351 . S
C166 H171 0.930 . S
O167 Cu161 1.974 . S
O167 C177 1.282 . S
C168 O169 1.261 . S
C168 O181 1.251 . S
O169 C168 1.261 . S
H170 C164 0.930 . S
H171 C166 0.930 . S
N172 Cu161 1.985 . S
N172 C174 1.335 . S
N172 C175 1.390 . S
N173 C174 1.345 . S
N173 C176 1.336 . S
C174 N172 1.335 . S
C174 N173 1.345 . S
C174 H179 0.930 . S
C175 N172 1.390 . S
C175 C176 1.346 . S
C175 H180 0.930 . S
C176 N173 1.336 . S
C176 C175 1.346 . S
C176 H183 0.929 . S
C177 O167 1.282 . S
C177 O178 1.216 . S
O178 C177 1.216 . S
H179 C174 0.930 . S
H180 C175 0.930 . S
O181 Cu161 1.959 . S
O181 C168 1.251 . S
H182 C165 0.930 . S
H183 C176 0.929 . S
Cu184 N185 1.999 . S
Cu184 O190 1.974 . S
Cu184 N195 1.985 . S
Cu184 O204 1.959 . S
N185 Cu184 1.999 . S
N185 C187 1.263 . S
N185 C189 1.389 . S
N186 C187 1.358 . S
N186 C188 1.400 . S
C187 N185 1.263 . S
C187 N186 1.358 . S
C187 H193 0.930 . S
C188 N186 1.400 . S
C188 C189 1.351 . S
C188 H205 0.930 . S
C189 N185 1.389 . S
C189 C188 1.351 . S
C189 H194 0.930 . S
O190 Cu184 1.974 . S
O190 C200 1.282 . S
C191 O192 1.261 . S
C191 O204 1.251 . S
O192 C191 1.261 . S
H193 C187 0.930 . S
H194 C189 0.930 . S
N195 Cu184 1.985 . S
N195 C197 1.335 . S
N195 C198 1.390 . S
N196 C197 1.345 . S
N196 C199 1.336 . S
C197 N195 1.335 . S
C197 N196 1.345 . S
C197 H202 0.930 . S
C198 N195 1.390 . S
C198 C199 1.346 . S
C198 H203 0.930 . S
C199 N196 1.336 . S
C199 C198 1.346 . S
C199 H206 0.929 . S
C200 O190 1.282 . S
C200 O201 1.216 . S
O201 C200 1.216 . S
H202 C197 0.930 . S
H203 C198 0.930 . S
O204 Cu184 1.959 . S
O204 C191 1.251 . S
H205 C188 0.930 . S
H206 C199 0.929 . S
Cu207 N208 1.999 . S
Cu207 O213 1.974 . S
Cu207 N218 1.985 . S
Cu207 O227 1.959 . S
N208 Cu207 1.999 . S
N208 C210 1.263 . S
N208 C212 1.389 . S
N209 C210 1.358 . S
N209 C211 1.400 . S
C210 N208 1.263 . S
C210 N209 1.358 . S
C210 H216 0.930 . S
C211 N209 1.400 . S
C211 C212 1.351 . S
C211 H228 0.930 . S
C212 N208 1.389 . S
C212 C211 1.351 . S
C212 H217 0.930 . S
O213 Cu207 1.974 . S
O213 C223 1.282 . S
C214 O215 1.261 . S
C214 O227 1.251 . S
O215 C214 1.261 . S
H216 C210 0.930 . S
H217 C212 0.930 . S
N218 Cu207 1.985 . S
N218 C220 1.335 . S
N218 C221 1.390 . S
N219 C220 1.345 . S
N219 C222 1.336 . S
C220 N218 1.335 . S
C220 N219 1.345 . S
C220 H225 0.930 . S
C221 N218 1.390 . S
C221 C222 1.346 . S
C221 H226 0.930 . S
C222 N219 1.336 . S
C222 C221 1.346 . S
C222 H229 0.929 . S
C223 O213 1.282 . S
C223 O224 1.216 . S
O224 C223 1.216 . S
H225 C220 0.930 . S
H226 C221 0.930 . S
O227 Cu207 1.959 . S
O227 C214 1.251 . S
H228 C211 0.930 . S
H229 C222 0.929 . S
Cu230 N231 1.999 . S
Cu230 O236 1.974 . S
Cu230 N241 1.985 . S
Cu230 O250 1.959 . S
N231 Cu230 1.999 . S
N231 C233 1.263 . S
N231 C235 1.389 . S
N232 C233 1.358 . S
N232 C234 1.400 . S
C233 N231 1.263 . S
C233 N232 1.358 . S
C233 H239 0.930 . S
C234 N232 1.400 . S
C234 C235 1.351 . S
C234 H251 0.930 . S
C235 N231 1.389 . S
C235 C234 1.351 . S
C235 H240 0.930 . S
O236 Cu230 1.974 . S
O236 C246 1.282 . S
C237 O238 1.261 . S
C237 O250 1.251 . S
O238 C237 1.261 . S
H239 C233 0.930 . S
H240 C235 0.930 . S
N241 Cu230 1.985 . S
N241 C243 1.335 . S
N241 C244 1.390 . S
N242 C243 1.345 . S
N242 C245 1.336 . S
C243 N241 1.335 . S
C243 N242 1.345 . S
C243 H248 0.930 . S
C244 N241 1.390 . S
C244 C245 1.346 . S
C244 H249 0.930 . S
C245 N242 1.336 . S
C245 C244 1.346 . S
C245 H252 0.929 . S
C246 O236 1.282 . S
C246 O247 1.216 . S
O247 C246 1.216 . S
H248 C243 0.930 . S
H249 C244 0.930 . S
O250 Cu230 1.959 . S
O250 C237 1.251 . S
H251 C234 0.930 . S
H252 C245 0.929 . S
Cu253 N254 1.999 . S
Cu253 O259 1.974 . S
Cu253 N264 1.985 . S
Cu253 O273 1.959 . S
N254 Cu253 1.999 . S
N254 C256 1.263 . S
N254 C258 1.389 . S
N255 C256 1.358 . S
N255 C257 1.400 . S
C256 N254 1.263 . S
C256 N255 1.358 . S
C256 H262 0.930 . S
C257 N255 1.400 . S
C257 C258 1.351 . S
C257 H274 0.930 . S
C258 N254 1.389 . S
C258 C257 1.351 . S
C258 H263 0.930 . S
O259 Cu253 1.974 . S
O259 C269 1.282 . S
C260 O261 1.261 . S
C260 O273 1.251 . S
O261 C260 1.261 . S
H262 C256 0.930 . S
H263 C258 0.930 . S
N264 Cu253 1.985 . S
N264 C266 1.335 . S
N264 C267 1.390 . S
N265 C266 1.345 . S
N265 C268 1.336 . S
C266 N264 1.335 . S
C266 N265 1.345 . S
C266 H271 0.930 . S
C267 N264 1.390 . S
C267 C268 1.346 . S
C267 H272 0.930 . S
C268 N265 1.336 . S
C268 C267 1.346 . S
C268 H275 0.929 . S
C269 O259 1.282 . S
C269 O270 1.216 . S
O270 C269 1.216 . S
H271 C266 0.930 . S
H272 C267 0.930 . S
O273 Cu253 1.959 . S
O273 C260 1.251 . S
H274 C257 0.930 . S
H275 C268 0.929 . S
La276 C278 2.928 . S
La276 O296 2.521 . S
La276 O297 2.628 . S
La276 O298 2.554 . S
La276 O299 2.757 . S
La276 O300 2.470 . S
La276 O305 2.482 . S
La276 O307 2.503 . S
La277 C287 2.928 . S
La277 O299 2.482 . S
La277 O301 2.503 . S
La277 O302 2.521 . S
La277 O303 2.628 . S
La277 O304 2.554 . S
La277 O305 2.757 . S
La277 O306 2.470 . S
C278 La276 2.928 . S
C278 C279 1.503 . S
C278 O296 1.261 . S
C278 O297 1.243 . S
C279 C278 1.503 . S
C279 C280 1.394 . S
C279 C284 1.373 . S
C280 C279 1.394 . S
C280 C281 1.380 . S
C280 H308 0.930 . S
C281 C280 1.380 . S
C281 C282 1.376 . S
C281 H309 0.930 . S
C282 C281 1.376 . S
C282 C283 1.370 . S
C283 C282 1.370 . S
C283 C284 1.396 . S
C283 H310 0.929 . S
C284 C279 1.373 . S
C284 C283 1.396 . S
C284 H311 0.929 . S
C285 O298 1.240 . S
C285 O299 1.289 . S
C286 O300 1.258 . S
C286 O301 1.256 . S
C287 La277 2.928 . S
C287 C288 1.503 . S
C287 O302 1.261 . S
C287 O303 1.243 . S
C288 C287 1.503 . S
C288 C289 1.394 . S
C288 C293 1.373 . S
C289 C288 1.394 . S
C289 C290 1.380 . S
C289 H312 0.930 . S
C290 C289 1.380 . S
C290 C291 1.376 . S
C290 H313 0.930 . S
C291 C290 1.376 . S
C291 C292 1.370 . S
C292 C291 1.370 . S
C292 C293 1.396 . S
C292 H314 0.929 . S
C293 C288 1.373 . S
C293 C292 1.396 . S
C293 H315 0.929 . S
C294 O304 1.240 . S
C294 O305 1.289 . S
C295 O306 1.258 . S
C295 O307 1.256 . S
O296 La276 2.521 . S
O296 C278 1.261 . S
O297 La276 2.628 . S
O297 C278 1.243 . S
O298 La276 2.554 . S
O298 C285 1.240 . S
O299 La276 2.757 . S
O299 La277 2.482 . S
O299 C285 1.289 . S
O300 La276 2.470 . S
O300 C286 1.258 . S
O301 La277 2.503 . S
O301 C286 1.256 . S
O302 La277 2.521 . S
O302 C287 1.261 . S
O303 La277 2.628 . S
O303 C287 1.243 . S
O304 La277 2.554 . S
O304 C294 1.240 . S
O305 La276 2.482 . S
O305 La277 2.757 . S
O305 C294 1.289 . S
O306 La277 2.470 . S
O306 C295 1.258 . S
O307 La276 2.503 . S
O307 C295 1.256 . S
H308 C280 0.930 . S
H309 C281 0.930 . S
H310 C283 0.929 . S
H311 C284 0.929 . S
H312 C289 0.930 . S
H313 C290 0.930 . S
H314 C292 0.929 . S
H315 C293 0.929 . S
La316 C318 2.928 . S
La316 O336 2.521 . S
La316 O337 2.628 . S
La316 O338 2.554 . S
La316 O339 2.757 . S
La316 O340 2.470 . S
La316 O345 2.482 . S
La316 O347 2.503 . S
La317 C327 2.928 . S
La317 O339 2.482 . S
La317 O341 2.503 . S
La317 O342 2.521 . S
La317 O343 2.628 . S
La317 O344 2.554 . S
La317 O345 2.757 . S
La317 O346 2.470 . S
C318 La316 2.928 . S
C318 C319 1.503 . S
C318 O336 1.261 . S
C318 O337 1.243 . S
C319 C318 1.503 . S
C319 C320 1.394 . S
C319 C324 1.373 . S
C320 C319 1.394 . S
C320 C321 1.380 . S
C320 H348 0.930 . S
C321 C320 1.380 . S
C321 C322 1.376 . S
C321 H349 0.930 . S
C322 C321 1.376 . S
C322 C323 1.370 . S
C323 C322 1.370 . S
C323 C324 1.396 . S
C323 H350 0.929 . S
C324 C319 1.373 . S
C324 C323 1.396 . S
C324 H351 0.929 . S
C325 O338 1.240 . S
C325 O339 1.289 . S
C326 O340 1.258 . S
C326 O341 1.256 . S
C327 La317 2.928 . S
C327 C328 1.503 . S
C327 O342 1.261 . S
C327 O343 1.243 . S
C328 C327 1.503 . S
C328 C329 1.394 . S
C328 C333 1.373 . S
C329 C328 1.394 . S
C329 C330 1.380 . S
C329 H352 0.930 . S
C330 C329 1.380 . S
C330 C331 1.376 . S
C330 H353 0.930 . S
C331 C330 1.376 . S
C331 C332 1.370 . S
C332 C331 1.370 . S
C332 C333 1.396 . S
C332 H354 0.929 . S
C333 C328 1.373 . S
C333 C332 1.396 . S
C333 H355 0.929 . S
C334 O344 1.240 . S
C334 O345 1.289 . S
C335 O346 1.258 . S
C335 O347 1.256 . S
O336 La316 2.521 . S
O336 C318 1.261 . S
O337 La316 2.628 . S
O337 C318 1.243 . S
O338 La316 2.554 . S
O338 C325 1.240 . S
O339 La316 2.757 . S
O339 La317 2.482 . S
O339 C325 1.289 . S
O340 La316 2.470 . S
O340 C326 1.258 . S
O341 La317 2.503 . S
O341 C326 1.256 . S
O342 La317 2.521 . S
O342 C327 1.261 . S
O343 La317 2.628 . S
O343 C327 1.243 . S
O344 La317 2.554 . S
O344 C334 1.240 . S
O345 La316 2.482 . S
O345 La317 2.757 . S
O345 C334 1.289 . S
O346 La317 2.470 . S
O346 C335 1.258 . S
O347 La316 2.503 . S
O347 C335 1.256 . S
H348 C320 0.930 . S
H349 C321 0.930 . S
H350 C323 0.929 . S
H351 C324 0.929 . S
H352 C329 0.930 . S
H353 C330 0.930 . S
H354 C332 0.929 . S
H355 C333 0.929 . S
La356 C358 2.928 . S
La356 O376 2.521 . S
La356 O377 2.628 . S
La356 O378 2.554 . S
La356 O379 2.757 . S
La356 O380 2.470 . S
La356 O385 2.482 . S
La356 O387 2.503 . S
La357 C367 2.928 . S
La357 O379 2.482 . S
La357 O381 2.503 . S
La357 O382 2.521 . S
La357 O383 2.628 . S
La357 O384 2.554 . S
La357 O385 2.757 . S
La357 O386 2.470 . S
C358 La356 2.928 . S
C358 C359 1.503 . S
C358 O376 1.261 . S
C358 O377 1.243 . S
C359 C358 1.503 . S
C359 C360 1.394 . S
C359 C364 1.373 . S
C360 C359 1.394 . S
C360 C361 1.380 . S
C360 H388 0.930 . S
C361 C360 1.380 . S
C361 C362 1.376 . S
C361 H389 0.930 . S
C362 C361 1.376 . S
C362 C363 1.370 . S
C363 C362 1.370 . S
C363 C364 1.396 . S
C363 H390 0.929 . S
C364 C359 1.373 . S
C364 C363 1.396 . S
C364 H391 0.929 . S
C365 O378 1.240 . S
C365 O379 1.289 . S
C366 O380 1.258 . S
C366 O381 1.256 . S
C367 La357 2.928 . S
C367 C368 1.503 . S
C367 O382 1.261 . S
C367 O383 1.243 . S
C368 C367 1.503 . S
C368 C369 1.394 . S
C368 C373 1.373 . S
C369 C368 1.394 . S
C369 C370 1.380 . S
C369 H392 0.930 . S
C370 C369 1.380 . S
C370 C371 1.376 . S
C370 H393 0.930 . S
C371 C370 1.376 . S
C371 C372 1.370 . S
C372 C371 1.370 . S
C372 C373 1.396 . S
C372 H394 0.929 . S
C373 C368 1.373 . S
C373 C372 1.396 . S
C373 H395 0.929 . S
C374 O384 1.240 . S
C374 O385 1.289 . S
C375 O386 1.258 . S
C375 O387 1.256 . S
O376 La356 2.521 . S
O376 C358 1.261 . S
O377 La356 2.628 . S
O377 C358 1.243 . S
O378 La356 2.554 . S
O378 C365 1.240 . S
O379 La356 2.757 . S
O379 La357 2.482 . S
O379 C365 1.289 . S
O380 La356 2.470 . S
O380 C366 1.258 . S
O381 La357 2.503 . S
O381 C366 1.256 . S
O382 La357 2.521 . S
O382 C367 1.261 . S
O383 La357 2.628 . S
O383 C367 1.243 . S
O384 La357 2.554 . S
O384 C374 1.240 . S
O385 La356 2.482 . S
O385 La357 2.757 . S
O385 C374 1.289 . S
O386 La357 2.470 . S
O386 C375 1.258 . S
O387 La356 2.503 . S
O387 C375 1.256 . S
H388 C360 0.930 . S
H389 C361 0.930 . S
H390 C363 0.929 . S
H391 C364 0.929 . S
H392 C369 0.930 . S
H393 C370 0.930 . S
H394 C372 0.929 . S
H395 C373 0.929 . S
La396 C398 2.928 . S
La396 O416 2.521 . S
La396 O417 2.628 . S
La396 O418 2.554 . S
La396 O419 2.757 . S
La396 O420 2.470 . S
La396 O425 2.482 . S
La396 O427 2.503 . S
La397 C407 2.928 . S
La397 O419 2.482 . S
La397 O421 2.503 . S
La397 O422 2.521 . S
La397 O423 2.628 . S
La397 O424 2.554 . S
La397 O425 2.757 . S
La397 O426 2.470 . S
C398 La396 2.928 . S
C398 C399 1.503 . S
C398 O416 1.261 . S
C398 O417 1.243 . S
C399 C398 1.503 . S
C399 C400 1.394 . S
C399 C404 1.373 . S
C400 C399 1.394 . S
C400 C401 1.380 . S
C400 H428 0.930 . S
C401 C400 1.380 . S
C401 C402 1.376 . S
C401 H429 0.930 . S
C402 C401 1.376 . S
C402 C403 1.370 . S
C403 C402 1.370 . S
C403 C404 1.396 . S
C403 H430 0.929 . S
C404 C399 1.373 . S
C404 C403 1.396 . S
C404 H431 0.929 . S
C405 O418 1.240 . S
C405 O419 1.289 . S
C406 O420 1.258 . S
C406 O421 1.256 . S
C407 La397 2.928 . S
C407 C408 1.503 . S
C407 O422 1.261 . S
C407 O423 1.243 . S
C408 C407 1.503 . S
C408 C409 1.394 . S
C408 C413 1.373 . S
C409 C408 1.394 . S
C409 C410 1.380 . S
C409 H432 0.930 . S
C410 C409 1.380 . S
C410 C411 1.376 . S
C410 H433 0.930 . S
C411 C410 1.376 . S
C411 C412 1.370 . S
C412 C411 1.370 . S
C412 C413 1.396 . S
C412 H434 0.929 . S
C413 C408 1.373 . S
C413 C412 1.396 . S
C413 H435 0.929 . S
C414 O424 1.240 . S
C414 O425 1.289 . S
C415 O426 1.258 . S
C415 O427 1.256 . S
O416 La396 2.521 . S
O416 C398 1.261 . S
O417 La396 2.628 . S
O417 C398 1.243 . S
O418 La396 2.554 . S
O418 C405 1.240 . S
O419 La396 2.757 . S
O419 La397 2.482 . S
O419 C405 1.289 . S
O420 La396 2.470 . S
O420 C406 1.258 . S
O421 La397 2.503 . S
O421 C406 1.256 . S
O422 La397 2.521 . S
O422 C407 1.261 . S
O423 La397 2.628 . S
O423 C407 1.243 . S
O424 La397 2.554 . S
O424 C414 1.240 . S
O425 La396 2.482 . S
O425 La397 2.757 . S
O425 C414 1.289 . S
O426 La397 2.470 . S
O426 C415 1.258 . S
O427 La396 2.503 . S
O427 C415 1.256 . S
H428 C400 0.930 . S
H429 C401 0.930 . S
H430 C403 0.929 . S
H431 C404 0.929 . S
H432 C409 0.930 . S
H433 C410 0.930 . S
H434 C412 0.929 . S
H435 C413 0.929 . S
La436 C438 2.928 . S
La436 O456 2.521 . S
La436 O457 2.628 . S
La436 O458 2.554 . S
La436 O459 2.757 . S
La436 O460 2.470 . S
La436 O465 2.482 . S
La436 O467 2.503 . S
La437 C447 2.928 . S
La437 O459 2.482 . S
La437 O461 2.503 . S
La437 O462 2.521 . S
La437 O463 2.628 . S
La437 O464 2.554 . S
La437 O465 2.757 . S
La437 O466 2.470 . S
C438 La436 2.928 . S
C438 C439 1.503 . S
C438 O456 1.261 . S
C438 O457 1.243 . S
C439 C438 1.503 . S
C439 C440 1.394 . S
C439 C444 1.373 . S
C440 C439 1.394 . S
C440 C441 1.380 . S
C440 H468 0.930 . S
C441 C440 1.380 . S
C441 C442 1.376 . S
C441 H469 0.930 . S
C442 C441 1.376 . S
C442 C443 1.370 . S
C443 C442 1.370 . S
C443 C444 1.396 . S
C443 H470 0.929 . S
C444 C439 1.373 . S
C444 C443 1.396 . S
C444 H471 0.929 . S
C445 O458 1.240 . S
C445 O459 1.289 . S
C446 O460 1.258 . S
C446 O461 1.256 . S
C447 La437 2.928 . S
C447 C448 1.503 . S
C447 O462 1.261 . S
C447 O463 1.243 . S
C448 C447 1.503 . S
C448 C449 1.394 . S
C448 C453 1.373 . S
C449 C448 1.394 . S
C449 C450 1.380 . S
C449 H472 0.930 . S
C450 C449 1.380 . S
C450 C451 1.376 . S
C450 H473 0.930 . S
C451 C450 1.376 . S
C451 C452 1.370 . S
C452 C451 1.370 . S
C452 C453 1.396 . S
C452 H474 0.929 . S
C453 C448 1.373 . S
C453 C452 1.396 . S
C453 H475 0.929 . S
C454 O464 1.240 . S
C454 O465 1.289 . S
C455 O466 1.258 . S
C455 O467 1.256 . S
O456 La436 2.521 . S
O456 C438 1.261 . S
O457 La436 2.628 . S
O457 C438 1.243 . S
O458 La436 2.554 . S
O458 C445 1.240 . S
O459 La436 2.757 . S
O459 La437 2.482 . S
O459 C445 1.289 . S
O460 La436 2.470 . S
O460 C446 1.258 . S
O461 La437 2.503 . S
O461 C446 1.256 . S
O462 La437 2.521 . S
O462 C447 1.261 . S
O463 La437 2.628 . S
O463 C447 1.243 . S
O464 La437 2.554 . S
O464 C454 1.240 . S
O465 La436 2.482 . S
O465 La437 2.757 . S
O465 C454 1.289 . S
O466 La437 2.470 . S
O466 C455 1.258 . S
O467 La436 2.503 . S
O467 C455 1.256 . S
H468 C440 0.930 . S
H469 C441 0.930 . S
H470 C443 0.929 . S
H471 C444 0.929 . S
H472 C449 0.930 . S
H473 C450 0.930 . S
H474 C452 0.929 . S
H475 C453 0.929 . S
La476 C478 2.928 . S
La476 O496 2.521 . S
La476 O497 2.628 . S
La476 O498 2.554 . S
La476 O499 2.757 . S
La476 O500 2.470 . S
La476 O505 2.482 . S
La476 O507 2.503 . S
La477 C487 2.928 . S
La477 O499 2.482 . S
La477 O501 2.503 . S
La477 O502 2.521 . S
La477 O503 2.628 . S
La477 O504 2.554 . S
La477 O505 2.757 . S
La477 O506 2.470 . S
C478 La476 2.928 . S
C478 C479 1.503 . S
C478 O496 1.261 . S
C478 O497 1.243 . S
C479 C478 1.503 . S
C479 C480 1.394 . S
C479 C484 1.373 . S
C480 C479 1.394 . S
C480 C481 1.380 . S
C480 H508 0.930 . S
C481 C480 1.380 . S
C481 C482 1.376 . S
C481 H509 0.930 . S
C482 C481 1.376 . S
C482 C483 1.370 . S
C483 C482 1.370 . S
C483 C484 1.396 . S
C483 H510 0.929 . S
C484 C479 1.373 . S
C484 C483 1.396 . S
C484 H511 0.929 . S
C485 O498 1.240 . S
C485 O499 1.289 . S
C486 O500 1.258 . S
C486 O501 1.256 . S
C487 La477 2.928 . S
C487 C488 1.503 . S
C487 O502 1.261 . S
C487 O503 1.243 . S
C488 C487 1.503 . S
C488 C489 1.394 . S
C488 C493 1.373 . S
C489 C488 1.394 . S
C489 C490 1.380 . S
C489 H512 0.930 . S
C490 C489 1.380 . S
C490 C491 1.376 . S
C490 H513 0.930 . S
C491 C490 1.376 . S
C491 C492 1.370 . S
C492 C491 1.370 . S
C492 C493 1.396 . S
C492 H514 0.929 . S
C493 C488 1.373 . S
C493 C492 1.396 . S
C493 H515 0.929 . S
C494 O504 1.240 . S
C494 O505 1.289 . S
C495 O506 1.258 . S
C495 O507 1.256 . S
O496 La476 2.521 . S
O496 C478 1.261 . S
O497 La476 2.628 . S
O497 C478 1.243 . S
O498 La476 2.554 . S
O498 C485 1.240 . S
O499 La476 2.757 . S
O499 La477 2.482 . S
O499 C485 1.289 . S
O500 La476 2.470 . S
O500 C486 1.258 . S
O501 La477 2.503 . S
O501 C486 1.256 . S
O502 La477 2.521 . S
O502 C487 1.261 . S
O503 La477 2.628 . S
O503 C487 1.243 . S
O504 La477 2.554 . S
O504 C494 1.240 . S
O505 La476 2.482 . S
O505 La477 2.757 . S
O505 C494 1.289 . S
O506 La477 2.470 . S
O506 C495 1.258 . S
O507 La476 2.503 . S
O507 C495 1.256 . S
H508 C480 0.930 . S
H509 C481 0.930 . S
H510 C483 0.929 . S
H511 C484 0.929 . S
H512 C489 0.930 . S
H513 C490 0.930 . S
H514 C492 0.929 . S
H515 C493 0.929 . S
La516 C518 2.928 . S
La516 O536 2.521 . S
La516 O537 2.628 . S
La516 O538 2.554 . S
La516 O539 2.757 . S
La516 O540 2.470 . S
La516 O545 2.482 . S
La516 O547 2.503 . S
La517 C527 2.928 . S
La517 O539 2.482 . S
La517 O541 2.503 . S
La517 O542 2.521 . S
La517 O543 2.628 . S
La517 O544 2.554 . S
La517 O545 2.757 . S
La517 O546 2.470 . S
C518 La516 2.928 . S
C518 C519 1.503 . S
C518 O536 1.261 . S
C518 O537 1.243 . S
C519 C518 1.503 . S
C519 C520 1.394 . S
C519 C524 1.373 . S
C520 C519 1.394 . S
C520 C521 1.380 . S
C520 H548 0.930 . S
C521 C520 1.380 . S
C521 C522 1.376 . S
C521 H549 0.930 . S
C522 C521 1.376 . S
C522 C523 1.370 . S
C523 C522 1.370 . S
C523 C524 1.396 . S
C523 H550 0.929 . S
C524 C519 1.373 . S
C524 C523 1.396 . S
C524 H551 0.929 . S
C525 O538 1.240 . S
C525 O539 1.289 . S
C526 O540 1.258 . S
C526 O541 1.256 . S
C527 La517 2.928 . S
C527 C528 1.503 . S
C527 O542 1.261 . S
C527 O543 1.243 . S
C528 C527 1.503 . S
C528 C529 1.394 . S
C528 C533 1.373 . S
C529 C528 1.394 . S
C529 C530 1.380 . S
C529 H552 0.930 . S
C530 C529 1.380 . S
C530 C531 1.376 . S
C530 H553 0.930 . S
C531 C530 1.376 . S
C531 C532 1.370 . S
C532 C531 1.370 . S
C532 C533 1.396 . S
C532 H554 0.929 . S
C533 C528 1.373 . S
C533 C532 1.396 . S
C533 H555 0.929 . S
C534 O544 1.240 . S
C534 O545 1.289 . S
C535 O546 1.258 . S
C535 O547 1.256 . S
O536 La516 2.521 . S
O536 C518 1.261 . S
O537 La516 2.628 . S
O537 C518 1.243 . S
O538 La516 2.554 . S
O538 C525 1.240 . S
O539 La516 2.757 . S
O539 La517 2.482 . S
O539 C525 1.289 . S
O540 La516 2.470 . S
O540 C526 1.258 . S
O541 La517 2.503 . S
O541 C526 1.256 . S
O542 La517 2.521 . S
O542 C527 1.261 . S
O543 La517 2.628 . S
O543 C527 1.243 . S
O544 La517 2.554 . S
O544 C534 1.240 . S
O545 La516 2.482 . S
O545 La517 2.757 . S
O545 C534 1.289 . S
O546 La517 2.470 . S
O546 C535 1.258 . S
O547 La516 2.503 . S
O547 C535 1.256 . S
H548 C520 0.930 . S
H549 C521 0.930 . S
H550 C523 0.929 . S
H551 C524 0.929 . S
H552 C529 0.930 . S
H553 C530 0.930 . S
H554 C532 0.929 . S
H555 C533 0.929 . S
La556 C558 2.928 . S
La556 O576 2.521 . S
La556 O577 2.628 . S
La556 O578 2.554 . S
La556 O579 2.757 . S
La556 O580 2.470 . S
La556 O585 2.482 . S
La556 O587 2.503 . S
La557 C567 2.928 . S
La557 O579 2.482 . S
La557 O581 2.503 . S
La557 O582 2.521 . S
La557 O583 2.628 . S
La557 O584 2.554 . S
La557 O585 2.757 . S
La557 O586 2.470 . S
C558 La556 2.928 . S
C558 C559 1.503 . S
C558 O576 1.261 . S
C558 O577 1.243 . S
C559 C558 1.503 . S
C559 C560 1.394 . S
C559 C564 1.373 . S
C560 C559 1.394 . S
C560 C561 1.380 . S
C560 H588 0.930 . S
C561 C560 1.380 . S
C561 C562 1.376 . S
C561 H589 0.930 . S
C562 C561 1.376 . S
C562 C563 1.370 . S
C563 C562 1.370 . S
C563 C564 1.396 . S
C563 H590 0.929 . S
C564 C559 1.373 . S
C564 C563 1.396 . S
C564 H591 0.929 . S
C565 O578 1.240 . S
C565 O579 1.289 . S
C566 O580 1.258 . S
C566 O581 1.256 . S
C567 La557 2.928 . S
C567 C568 1.503 . S
C567 O582 1.261 . S
C567 O583 1.243 . S
C568 C567 1.503 . S
C568 C569 1.394 . S
C568 C573 1.373 . S
C569 C568 1.394 . S
C569 C570 1.380 . S
C569 H592 0.930 . S
C570 C569 1.380 . S
C570 C571 1.376 . S
C570 H593 0.930 . S
C571 C570 1.376 . S
C571 C572 1.370 . S
C572 C571 1.370 . S
C572 C573 1.396 . S
C572 H594 0.929 . S
C573 C568 1.373 . S
C573 C572 1.396 . S
C573 H595 0.929 . S
C574 O584 1.240 . S
C574 O585 1.289 . S
C575 O586 1.258 . S
C575 O587 1.256 . S
O576 La556 2.521 . S
O576 C558 1.261 . S
O577 La556 2.628 . S
O577 C558 1.243 . S
O578 La556 2.554 . S
O578 C565 1.240 . S
O579 La556 2.757 . S
O579 La557 2.482 . S
O579 C565 1.289 . S
O580 La556 2.470 . S
O580 C566 1.258 . S
O581 La557 2.503 . S
O581 C566 1.256 . S
O582 La557 2.521 . S
O582 C567 1.261 . S
O583 La557 2.628 . S
O583 C567 1.243 . S
O584 La557 2.554 . S
O584 C574 1.240 . S
O585 La556 2.482 . S
O585 La557 2.757 . S
O585 C574 1.289 . S
O586 La557 2.470 . S
O586 C575 1.258 . S
O587 La556 2.503 . S
O587 C575 1.256 . S
H588 C560 0.930 . S
H589 C561 0.930 . S
H590 C563 0.929 . S
H591 C564 0.929 . S
H592 C569 0.930 . S
H593 C570 0.930 . S
H594 C572 0.929 . S
H595 C573 0.929 . S
C596 C597 1.391 . S
C596 C598 1.394 . S
C596 H612 0.931 . S
C597 C596 1.391 . S
C597 C601 1.376 . S
C598 C596 1.394 . S
C598 C599 1.369 . S
C598 C602 1.531 . S
C599 C598 1.369 . S
C599 C600 1.410 . S
C599 C607 1.503 . S
C600 C599 1.410 . S
C600 C601 1.392 . S
C600 C603 1.511 . S
C601 C597 1.376 . S
C601 C600 1.392 . S
C601 H613 0.929 . S
C602 C598 1.531 . S
C602 H614 0.960 . S
C602 H615 0.962 . S
C602 H616 0.960 . S
C603 C600 1.511 . S
C603 H617 0.961 . S
C603 H618 0.961 . S
C603 H619 0.961 . S
C604 C605 1.370 . S
C604 C606 1.363 . S
C604 H620 0.931 . S
C605 C604 1.370 . S
C605 C609 1.408 . S
C606 C604 1.363 . S
C606 C607 1.370 . S
C606 C610 1.524 . S
C607 C599 1.503 . S
C607 C606 1.370 . S
C607 C608 1.403 . S
C608 C607 1.403 . S
C608 C609 1.404 . S
C608 C611 1.539 . S
C609 C605 1.408 . S
C609 C608 1.404 . S
C609 H621 0.930 . S
C610 C606 1.524 . S
C610 H622 0.956 . S
C610 H623 0.961 . S
C610 H624 0.961 . S
C611 C608 1.539 . S
C611 H625 0.958 . S
C611 H626 0.961 . S
C611 H627 0.960 . S
H612 C596 0.931 . S
H613 C601 0.929 . S
H614 C602 0.960 . S
H615 C602 0.962 . S
H616 C602 0.960 . S
H617 C603 0.961 . S
H618 C603 0.961 . S
H619 C603 0.961 . S
H620 C604 0.931 . S
H621 C609 0.930 . S
H622 C610 0.956 . S
H623 C610 0.961 . S
H624 C610 0.961 . S
H625 C611 0.958 . S
H626 C611 0.961 . S
H627 C611 0.960 . S
C628 C629 1.391 . S
C628 C630 1.394 . S
C628 H644 0.931 . S
C629 C628 1.391 . S
C629 C633 1.376 . S
C630 C628 1.394 . S
C630 C631 1.369 . S
C630 C634 1.531 . S
C631 C630 1.369 . S
C631 C632 1.410 . S
C631 C639 1.503 . S
C632 C631 1.410 . S
C632 C633 1.392 . S
C632 C635 1.511 . S
C633 C629 1.376 . S
C633 C632 1.392 . S
C633 H645 0.929 . S
C634 C630 1.531 . S
C634 H646 0.960 . S
C634 H647 0.962 . S
C634 H648 0.960 . S
C635 C632 1.511 . S
C635 H649 0.961 . S
C635 H650 0.961 . S
C635 H651 0.961 . S
C636 C637 1.370 . S
C636 C638 1.363 . S
C636 H652 0.931 . S
C637 C636 1.370 . S
C637 C641 1.408 . S
C638 C636 1.363 . S
C638 C639 1.370 . S
C638 C642 1.524 . S
C639 C631 1.503 . S
C639 C638 1.370 . S
C639 C640 1.403 . S
C640 C639 1.403 . S
C640 C641 1.404 . S
C640 C643 1.539 . S
C641 C637 1.408 . S
C641 C640 1.404 . S
C641 H653 0.930 . S
C642 C638 1.524 . S
C642 H654 0.956 . S
C642 H655 0.961 . S
C642 H656 0.961 . S
C643 C640 1.539 . S
C643 H657 0.958 . S
C643 H658 0.961 . S
C643 H659 0.960 . S
H644 C628 0.931 . S
H645 C633 0.929 . S
H646 C634 0.960 . S
H647 C634 0.962 . S
H648 C634 0.960 . S
H649 C635 0.961 . S
H650 C635 0.961 . S
H651 C635 0.961 . S
H652 C636 0.931 . S
H653 C641 0.930 . S
H654 C642 0.956 . S
H655 C642 0.961 . S
H656 C642 0.961 . S
H657 C643 0.958 . S
H658 C643 0.961 . S
H659 C643 0.960 . S
C660 C661 1.391 . S
C660 C662 1.394 . S
C660 H676 0.931 . S
C661 C660 1.391 . S
C661 C665 1.376 . S
C662 C660 1.394 . S
C662 C663 1.369 . S
C662 C666 1.531 . S
C663 C662 1.369 . S
C663 C664 1.410 . S
C663 C671 1.503 . S
C664 C663 1.410 . S
C664 C665 1.392 . S
C664 C667 1.511 . S
C665 C661 1.376 . S
C665 C664 1.392 . S
C665 H677 0.929 . S
C666 C662 1.531 . S
C666 H678 0.960 . S
C666 H679 0.962 . S
C666 H680 0.960 . S
C667 C664 1.511 . S
C667 H681 0.961 . S
C667 H682 0.961 . S
C667 H683 0.961 . S
C668 C669 1.370 . S
C668 C670 1.363 . S
C668 H684 0.931 . S
C669 C668 1.370 . S
C669 C673 1.408 . S
C670 C668 1.363 . S
C670 C671 1.370 . S
C670 C674 1.524 . S
C671 C663 1.503 . S
C671 C670 1.370 . S
C671 C672 1.403 . S
C672 C671 1.403 . S
C672 C673 1.404 . S
C672 C675 1.539 . S
C673 C669 1.408 . S
C673 C672 1.404 . S
C673 H685 0.930 . S
C674 C670 1.524 . S
C674 H686 0.956 . S
C674 H687 0.961 . S
C674 H688 0.961 . S
C675 C672 1.539 . S
C675 H689 0.958 . S
C675 H690 0.961 . S
C675 H691 0.960 . S
H676 C660 0.931 . S
H677 C665 0.929 . S
H678 C666 0.960 . S
H679 C666 0.962 . S
H680 C666 0.960 . S
H681 C667 0.961 . S
H682 C667 0.961 . S
H683 C667 0.961 . S
H684 C668 0.931 . S
H685 C673 0.930 . S
H686 C674 0.956 . S
H687 C674 0.961 . S
H688 C674 0.961 . S
H689 C675 0.958 . S
H690 C675 0.961 . S
H691 C675 0.960 . S
C692 C693 1.391 . S
C692 C694 1.394 . S
C692 H708 0.931 . S
C693 C692 1.391 . S
C693 C697 1.376 . S
C694 C692 1.394 . S
C694 C695 1.369 . S
C694 C698 1.531 . S
C695 C694 1.369 . S
C695 C696 1.410 . S
C695 C703 1.503 . S
C696 C695 1.410 . S
C696 C697 1.392 . S
C696 C699 1.511 . S
C697 C693 1.376 . S
C697 C696 1.392 . S
C697 H709 0.929 . S
C698 C694 1.531 . S
C698 H710 0.960 . S
C698 H711 0.962 . S
C698 H712 0.960 . S
C699 C696 1.511 . S
C699 H713 0.961 . S
C699 H714 0.961 . S
C699 H715 0.961 . S
C700 C701 1.370 . S
C700 C702 1.363 . S
C700 H716 0.931 . S
C701 C700 1.370 . S
C701 C705 1.408 . S
C702 C700 1.363 . S
C702 C703 1.370 . S
C702 C706 1.524 . S
C703 C695 1.503 . S
C703 C702 1.370 . S
C703 C704 1.403 . S
C704 C703 1.403 . S
C704 C705 1.404 . S
C704 C707 1.539 . S
C705 C701 1.408 . S
C705 C704 1.404 . S
C705 H717 0.930 . S
C706 C702 1.524 . S
C706 H718 0.956 . S
C706 H719 0.961 . S
C706 H720 0.961 . S
C707 C704 1.539 . S
C707 H721 0.958 . S
C707 H722 0.961 . S
C707 H723 0.960 . S
H708 C692 0.931 . S
H709 C697 0.929 . S
H710 C698 0.960 . S
H711 C698 0.962 . S
H712 C698 0.960 . S
H713 C699 0.961 . S
H714 C699 0.961 . S
H715 C699 0.961 . S
H716 C700 0.931 . S
H717 C705 0.930 . S
H718 C706 0.956 . S
H719 C706 0.961 . S
H720 C706 0.961 . S
H721 C707 0.958 . S
H722 C707 0.961 . S
H723 C707 0.960 . S
C724 C725 1.391 . S
C724 C726 1.394 . S
C724 H740 0.931 . S
C725 C724 1.391 . S
C725 C729 1.376 . S
C726 C724 1.394 . S
C726 C727 1.369 . S
C726 C730 1.531 . S
C727 C726 1.369 . S
C727 C728 1.410 . S
C727 C735 1.503 . S
C728 C727 1.410 . S
C728 C729 1.392 . S
C728 C731 1.511 . S
C729 C725 1.376 . S
C729 C728 1.392 . S
C729 H741 0.929 . S
C730 C726 1.531 . S
C730 H742 0.960 . S
C730 H743 0.962 . S
C730 H744 0.960 . S
C731 C728 1.511 . S
C731 H745 0.961 . S
C731 H746 0.961 . S
C731 H747 0.961 . S
C732 C733 1.370 . S
C732 C734 1.363 . S
C732 H748 0.931 . S
C733 C732 1.370 . S
C733 C737 1.408 . S
C734 C732 1.363 . S
C734 C735 1.370 . S
C734 C738 1.524 . S
C735 C727 1.503 . S
C735 C734 1.370 . S
C735 C736 1.403 . S
C736 C735 1.403 . S
C736 C737 1.404 . S
C736 C739 1.539 . S
C737 C733 1.408 . S
C737 C736 1.404 . S
C737 H749 0.930 . S
C738 C734 1.524 . S
C738 H750 0.956 . S
C738 H751 0.961 . S
C738 H752 0.961 . S
C739 C736 1.539 . S
C739 H753 0.958 . S
C739 H754 0.961 . S
C739 H755 0.960 . S
H740 C724 0.931 . S
H741 C729 0.929 . S
H742 C730 0.960 . S
H743 C730 0.962 . S
H744 C730 0.960 . S
H745 C731 0.961 . S
H746 C731 0.961 . S
H747 C731 0.961 . S
H748 C732 0.931 . S
H749 C737 0.930 . S
H750 C738 0.956 . S
H751 C738 0.961 . S
H752 C738 0.961 . S
H753 C739 0.958 . S
H754 C739 0.961 . S
H755 C739 0.960 . S
C756 C757 1.391 . S
C756 C758 1.394 . S
C756 H772 0.931 . S
C757 C756 1.391 . S
C757 C761 1.376 . S
C758 C756 1.394 . S
C758 C759 1.369 . S
C758 C762 1.531 . S
C759 C758 1.369 . S
C759 C760 1.410 . S
C759 C767 1.503 . S
C760 C759 1.410 . S
C760 C761 1.392 . S
C760 C763 1.511 . S
C761 C757 1.376 . S
C761 C760 1.392 . S
C761 H773 0.929 . S
C762 C758 1.531 . S
C762 H774 0.960 . S
C762 H775 0.962 . S
C762 H776 0.960 . S
C763 C760 1.511 . S
C763 H777 0.961 . S
C763 H778 0.961 . S
C763 H779 0.961 . S
C764 C765 1.370 . S
C764 C766 1.363 . S
C764 H780 0.931 . S
C765 C764 1.370 . S
C765 C769 1.408 . S
C766 C764 1.363 . S
C766 C767 1.370 . S
C766 C770 1.524 . S
C767 C759 1.503 . S
C767 C766 1.370 . S
C767 C768 1.403 . S
C768 C767 1.403 . S
C768 C769 1.404 . S
C768 C771 1.539 . S
C769 C765 1.408 . S
C769 C768 1.404 . S
C769 H781 0.930 . S
C770 C766 1.524 . S
C770 H782 0.956 . S
C770 H783 0.961 . S
C770 H784 0.961 . S
C771 C768 1.539 . S
C771 H785 0.958 . S
C771 H786 0.961 . S
C771 H787 0.960 . S
H772 C756 0.931 . S
H773 C761 0.929 . S
H774 C762 0.960 . S
H775 C762 0.962 . S
H776 C762 0.960 . S
H777 C763 0.961 . S
H778 C763 0.961 . S
H779 C763 0.961 . S
H780 C764 0.931 . S
H781 C769 0.930 . S
H782 C770 0.956 . S
H783 C770 0.961 . S
H784 C770 0.961 . S
H785 C771 0.958 . S
H786 C771 0.961 . S
H787 C771 0.960 . S
C788 C789 1.391 . S
C788 C790 1.394 . S
C788 H804 0.931 . S
C789 C788 1.391 . S
C789 C793 1.376 . S
C790 C788 1.394 . S
C790 C791 1.369 . S
C790 C794 1.531 . S
C791 C790 1.369 . S
C791 C792 1.410 . S
C791 C799 1.503 . S
C792 C791 1.410 . S
C792 C793 1.392 . S
C792 C795 1.511 . S
C793 C789 1.376 . S
C793 C792 1.392 . S
C793 H805 0.929 . S
C794 C790 1.531 . S
C794 H806 0.960 . S
C794 H807 0.962 . S
C794 H808 0.960 . S
C795 C792 1.511 . S
C795 H809 0.961 . S
C795 H810 0.961 . S
C795 H811 0.961 . S
C796 C797 1.370 . S
C796 C798 1.363 . S
C796 H812 0.931 . S
C797 C796 1.370 . S
C797 C801 1.408 . S
C798 C796 1.363 . S
C798 C799 1.370 . S
C798 C802 1.524 . S
C799 C791 1.503 . S
C799 C798 1.370 . S
C799 C800 1.403 . S
C800 C799 1.403 . S
C800 C801 1.404 . S
C800 C803 1.539 . S
C801 C797 1.408 . S
C801 C800 1.404 . S
C801 H813 0.930 . S
C802 C798 1.524 . S
C802 H814 0.956 . S
C802 H815 0.961 . S
C802 H816 0.961 . S
C803 C800 1.539 . S
C803 H817 0.958 . S
C803 H818 0.961 . S
C803 H819 0.960 . S
H804 C788 0.931 . S
H805 C793 0.929 . S
H806 C794 0.960 . S
H807 C794 0.962 . S
H808 C794 0.960 . S
H809 C795 0.961 . S
H810 C795 0.961 . S
H811 C795 0.961 . S
H812 C796 0.931 . S
H813 C801 0.930 . S
H814 C802 0.956 . S
H815 C802 0.961 . S
H816 C802 0.961 . S
H817 C803 0.958 . S
H818 C803 0.961 . S
H819 C803 0.960 . S
C820 C821 1.391 1_545 S
C820 C822 1.394 1_545 S
C820 H836 0.931 . S
C821 C820 1.391 1_565 S
C821 C825 1.376 . S
C822 C820 1.394 1_565 S
C822 C823 1.369 . S
C822 C826 1.530 1_565 S
C823 C822 1.369 . S
C823 C824 1.410 . S
C823 C831 1.503 . S
C824 C823 1.410 . S
C824 C825 1.392 . S
C824 C827 1.511 . S
C825 C821 1.376 . S
C825 C824 1.392 . S
C825 H837 0.929 . S
C826 C822 1.530 1_545 S
C826 H838 0.946 1_545 S
C826 H839 0.969 . S
C826 H840 0.968 . S
C827 C824 1.511 . S
C827 H841 0.961 . S
C827 H842 0.961 . S
C827 H843 0.961 . S
C828 C829 1.370 . S
C828 C830 1.363 . S
C828 H844 0.931 . S
C829 C828 1.370 . S
C829 C833 1.408 . S
C830 C828 1.363 . S
C830 C831 1.370 . S
C830 C834 1.524 . S
C831 C823 1.503 . S
C831 C830 1.370 . S
C831 C832 1.403 . S
C832 C831 1.403 . S
C832 C833 1.404 . S
C832 C835 1.539 . S
C833 C829 1.408 . S
C833 C832 1.404 . S
C833 H845 0.930 . S
C834 C830 1.524 . S
C834 H846 0.956 . S
C834 H847 0.961 . S
C834 H848 0.961 . S
C835 C832 1.539 . S
C835 H849 0.958 . S
C835 H850 0.961 . S
C835 H851 0.960 . S
H836 C820 0.931 . S
H837 C825 0.929 . S
H838 C826 0.946 1_565 S
H839 C826 0.969 . S
H840 C826 0.968 . S
H841 C827 0.961 . S
H842 C827 0.961 . S
H843 C827 0.961 . S
H844 C828 0.931 . S
H845 C833 0.930 . S
H846 C834 0.956 . S
H847 C834 0.961 . S
H848 C834 0.961 . S
H849 C835 0.958 . S
H850 C835 0.961 . S
H851 C835 0.960 . S
C852 C853 1.391 . S
C852 C854 1.394 . S
C852 H868 0.931 . S
C853 C852 1.391 . S
C853 C857 1.376 . S
C854 C852 1.394 . S
C854 C855 1.369 . S
C854 C858 1.531 . S
C855 C854 1.369 . S
C855 C856 1.410 . S
C855 C863 1.503 . S
C856 C855 1.410 . S
C856 C857 1.392 . S
C856 C859 1.511 . S
C857 C853 1.376 . S
C857 C856 1.392 . S
C857 H869 0.929 . S
C858 C854 1.531 . S
C858 H870 0.960 . S
C858 H871 0.962 . S
C858 H872 0.960 . S
C859 C856 1.511 . S
C859 H873 0.961 . S
C859 H874 0.961 . S
C859 H875 0.961 . S
C860 C861 1.370 . S
C860 C862 1.363 . S
C860 H876 0.931 . S
C861 C860 1.370 . S
C861 C865 1.408 . S
C862 C860 1.363 . S
C862 C863 1.370 . S
C862 C866 1.524 . S
C863 C855 1.503 . S
C863 C862 1.370 . S
C863 C864 1.403 . S
C864 C863 1.403 . S
C864 C865 1.404 . S
C864 C867 1.539 . S
C865 C861 1.408 . S
C865 C864 1.404 . S
C865 H877 0.930 . S
C866 C862 1.524 . S
C866 H878 0.956 . S
C866 H879 0.961 . S
C866 H880 0.961 . S
C867 C864 1.539 . S
C867 H881 0.958 . S
C867 H882 0.961 . S
C867 H883 0.960 . S
H868 C852 0.931 . S
H869 C857 0.929 . S
H870 C858 0.960 . S
H871 C858 0.962 . S
H872 C858 0.960 . S
H873 C859 0.961 . S
H874 C859 0.961 . S
H875 C859 0.961 . S
H876 C860 0.931 . S
H877 C865 0.930 . S
H878 C866 0.956 . S
H879 C866 0.961 . S
H880 C866 0.961 . S
H881 C867 0.958 . S
H882 C867 0.961 . S
H883 C867 0.960 . S
C884 C885 1.391 . S
C884 C886 1.394 . S
C884 H900 0.931 . S
C885 C884 1.391 . S
C885 C889 1.376 . S
C886 C884 1.394 . S
C886 C887 1.369 . S
C886 C890 1.531 . S
C887 C886 1.369 . S
C887 C888 1.410 . S
C887 C895 1.503 . S
C888 C887 1.410 . S
C888 C889 1.392 . S
C888 C891 1.511 . S
C889 C885 1.376 . S
C889 C888 1.392 . S
C889 H901 0.929 . S
C890 C886 1.531 . S
C890 H902 0.960 . S
C890 H903 0.962 . S
C890 H904 0.960 . S
C891 C888 1.511 . S
C891 H905 0.961 . S
C891 H906 0.961 . S
C891 H907 0.961 . S
C892 C893 1.370 . S
C892 C894 1.363 . S
C892 H908 0.931 . S
C893 C892 1.370 . S
C893 C897 1.408 . S
C894 C892 1.363 . S
C894 C895 1.370 . S
C894 C898 1.524 . S
C895 C887 1.503 . S
C895 C894 1.370 . S
C895 C896 1.403 . S
C896 C895 1.403 . S
C896 C897 1.404 . S
C896 C899 1.539 . S
C897 C893 1.408 . S
C897 C896 1.404 . S
C897 H909 0.930 . S
C898 C894 1.524 . S
C898 H910 0.956 . S
C898 H911 0.961 . S
C898 H912 0.961 . S
C899 C896 1.539 . S
C899 H913 0.958 . S
C899 H914 0.961 . S
C899 H915 0.960 . S
H900 C884 0.931 . S
H901 C889 0.929 . S
H902 C890 0.960 . S
H903 C890 0.962 . S
H904 C890 0.960 . S
H905 C891 0.961 . S
H906 C891 0.961 . S
H907 C891 0.961 . S
H908 C892 0.931 . S
H909 C897 0.930 . S
H910 C898 0.956 . S
H911 C898 0.961 . S
H912 C898 0.961 . S
H913 C899 0.958 . S
H914 C899 0.961 . S
H915 C899 0.960 . S
C916 C917 1.391 . S
C916 C918 1.394 . S
C916 H932 0.931 . S
C917 C916 1.391 . S
C917 C921 1.376 . S
C918 C916 1.394 . S
C918 C919 1.369 . S
C918 C922 1.531 . S
C919 C918 1.369 . S
C919 C920 1.410 . S
C919 C927 1.503 . S
C920 C919 1.410 . S
C920 C921 1.392 . S
C920 C923 1.511 . S
C921 C917 1.376 . S
C921 C920 1.392 . S
C921 H933 0.929 . S
C922 C918 1.531 . S
C922 H934 0.960 . S
C922 H935 0.962 . S
C922 H936 0.960 . S
C923 C920 1.511 . S
C923 H937 0.961 . S
C923 H938 0.961 . S
C923 H939 0.961 . S
C924 C925 1.370 . S
C924 C926 1.363 . S
C924 H940 0.931 . S
C925 C924 1.370 . S
C925 C929 1.408 . S
C926 C924 1.363 . S
C926 C927 1.370 . S
C926 C930 1.524 . S
C927 C919 1.503 . S
C927 C926 1.370 . S
C927 C928 1.403 . S
C928 C927 1.403 . S
C928 C929 1.404 . S
C928 C931 1.539 . S
C929 C925 1.408 . S
C929 C928 1.404 . S
C929 H941 0.930 . S
C930 C926 1.524 . S
C930 H942 0.956 . S
C930 H943 0.961 . S
C930 H944 0.961 . S
C931 C928 1.539 . S
C931 H945 0.958 . S
C931 H946 0.961 . S
C931 H947 0.960 . S
H932 C916 0.931 . S
H933 C921 0.929 . S
H934 C922 0.960 . S
H935 C922 0.962 . S
H936 C922 0.960 . S
H937 C923 0.961 . S
H938 C923 0.961 . S
H939 C923 0.961 . S
H940 C924 0.931 . S
H941 C929 0.930 . S
H942 C930 0.956 . S
H943 C930 0.961 . S
H944 C930 0.961 . S
H945 C931 0.958 . S
H946 C931 0.961 . S
H947 C931 0.960 . S
C948 C949 1.391 . S
C948 C950 1.394 . S
C948 H964 0.931 . S
C949 C948 1.391 . S
C949 C953 1.376 . S
C950 C948 1.394 . S
C950 C951 1.369 . S
C950 C954 1.531 . S
C951 C950 1.369 . S
C951 C952 1.410 . S
C951 C959 1.503 . S
C952 C951 1.410 . S
C952 C953 1.392 . S
C952 C955 1.511 . S
C953 C949 1.376 . S
C953 C952 1.392 . S
C953 H965 0.929 . S
C954 C950 1.531 . S
C954 H966 0.960 . S
C954 H967 0.962 . S
C954 H968 0.960 . S
C955 C952 1.511 . S
C955 H969 0.961 . S
C955 H970 0.961 . S
C955 H971 0.961 . S
C956 C957 1.370 . S
C956 C958 1.363 . S
C956 H972 0.931 . S
C957 C956 1.370 . S
C957 C961 1.408 . S
C958 C956 1.363 . S
C958 C959 1.370 . S
C958 C962 1.524 . S
C959 C951 1.503 . S
C959 C958 1.370 . S
C959 C960 1.403 . S
C960 C959 1.403 . S
C960 C961 1.404 . S
C960 C963 1.539 . S
C961 C957 1.408 . S
C961 C960 1.404 . S
C961 H973 0.930 . S
C962 C958 1.524 . S
C962 H974 0.956 . S
C962 H975 0.961 . S
C962 H976 0.961 . S
C963 C960 1.539 . S
C963 H977 0.958 . S
C963 H978 0.961 . S
C963 H979 0.960 . S
H964 C948 0.931 . S
H965 C953 0.929 . S
H966 C954 0.960 . S
H967 C954 0.962 . S
H968 C954 0.960 . S
H969 C955 0.961 . S
H970 C955 0.961 . S
H971 C955 0.961 . S
H972 C956 0.931 . S
H973 C961 0.930 . S
H974 C962 0.956 . S
H975 C962 0.961 . S
H976 C962 0.961 . S
H977 C963 0.958 . S
H978 C963 0.961 . S
H979 C963 0.960 . S
C980 C981 1.391 . S
C980 C982 1.394 . S
C980 H996 0.931 . S
C981 C980 1.391 . S
C981 C985 1.376 . S
C982 C980 1.394 . S
C982 C983 1.369 . S
C982 C986 1.531 . S
C983 C982 1.369 . S
C983 C984 1.410 . S
C983 C991 1.503 1_554 S
C984 C983 1.410 . S
C984 C985 1.392 . S
C984 C987 1.511 1_554 S
C985 C981 1.376 . S
C985 C984 1.392 . S
C985 H997 0.929 1_565 S
C986 C982 1.531 . S
C986 H998 0.960 . S
C986 H999 0.962 . S
C986 H1000 0.960 . S
C987 C984 1.511 1_556 S
C987 H1001 0.961 1_565 S
C987 H1002 0.961 . S
C987 H1003 0.961 . S
C988 C989 1.370 . S
C988 C990 1.363 . S
C988 H1004 0.931 . S
C989 C988 1.370 . S
C989 C993 1.408 . S
C990 C988 1.363 . S
C990 C991 1.370 . S
C990 C994 1.524 . S
C991 C983 1.503 1_556 S
C991 C990 1.370 . S
C991 C992 1.403 1_556 S
C992 C991 1.403 1_554 S
C992 C993 1.404 1_554 S
C992 C995 1.539 . S
C993 C989 1.408 . S
C993 C992 1.404 1_556 S
C993 H1005 0.930 . S
C994 C990 1.524 . S
C994 H1006 0.956 . S
C994 H1007 0.961 . S
C994 H1008 0.961 . S
C995 C992 1.539 . S
C995 H1009 0.958 . S
C995 H1010 0.961 . S
C995 H1011 0.960 . S
H996 C980 0.931 . S
H997 C985 0.929 1_545 S
H998 C986 0.960 . S
H999 C986 0.962 . S
H1000 C986 0.960 . S
H1001 C987 0.961 1_545 S
H1002 C987 0.961 . S
H1003 C987 0.961 . S
H1004 C988 0.931 . S
H1005 C993 0.930 . S
H1006 C994 0.956 . S
H1007 C994 0.961 . S
H1008 C994 0.961 . S
H1009 C995 0.958 . S
H1010 C995 0.961 . S
H1011 C995 0.960 . S
C1012 C1013 1.391 . S
C1012 C1014 1.394 . S
C1012 H1028 0.931 . S
C1013 C1012 1.391 . S
C1013 C1017 1.376 . S
C1014 C1012 1.394 . S
C1014 C1015 1.369 . S
C1014 C1018 1.531 . S
C1015 C1014 1.369 . S
C1015 C1016 1.410 . S
C1015 C1023 1.503 . S
C1016 C1015 1.410 . S
C1016 C1017 1.392 . S
C1016 C1019 1.511 . S
C1017 C1013 1.376 . S
C1017 C1016 1.392 . S
C1017 H1029 0.929 . S
C1018 C1014 1.531 . S
C1018 H1030 0.960 . S
C1018 H1031 0.962 . S
C1018 H1032 0.960 . S
C1019 C1016 1.511 . S
C1019 H1033 0.961 . S
C1019 H1034 0.961 . S
C1019 H1035 0.961 . S
C1020 C1021 1.370 . S
C1020 C1022 1.363 . S
C1020 H1036 0.931 . S
C1021 C1020 1.370 . S
C1021 C1025 1.408 . S
C1022 C1020 1.363 . S
C1022 C1023 1.370 . S
C1022 C1026 1.524 . S
C1023 C1015 1.503 . S
C1023 C1022 1.370 . S
C1023 C1024 1.403 . S
C1024 C1023 1.403 . S
C1024 C1025 1.404 . S
C1024 C1027 1.539 . S
C1025 C1021 1.408 . S
C1025 C1024 1.404 . S
C1025 H1037 0.930 . S
C1026 C1022 1.524 . S
C1026 H1038 0.956 . S
C1026 H1039 0.961 . S
C1026 H1040 0.961 . S
C1027 C1024 1.539 . S
C1027 H1041 0.958 . S
C1027 H1042 0.961 . S
C1027 H1043 0.960 . S
H1028 C1012 0.931 . S
H1029 C1017 0.929 . S
H1030 C1018 0.960 . S
H1031 C1018 0.962 . S
H1032 C1018 0.960 . S
H1033 C1019 0.961 . S
H1034 C1019 0.961 . S
H1035 C1019 0.961 . S
H1036 C1020 0.931 . S
H1037 C1025 0.930 . S
H1038 C1026 0.956 . S
H1039 C1026 0.961 . S
H1040 C1026 0.961 . S
H1041 C1027 0.958 . S
H1042 C1027 0.961 . S
H1043 C1027 0.960 . S
C1044 C1045 1.391 . S
C1044 C1046 1.394 . S
C1044 H1060 0.931 . S
C1045 C1044 1.391 . S
C1045 C1049 1.376 . S
C1046 C1044 1.394 . S
C1046 C1047 1.369 . S
C1046 C1050 1.531 . S
C1047 C1046 1.369 . S
C1047 C1048 1.410 . S
C1047 C1055 1.503 . S
C1048 C1047 1.410 . S
C1048 C1049 1.392 . S
C1048 C1051 1.511 . S
C1049 C1045 1.376 . S
C1049 C1048 1.392 . S
C1049 H1061 0.929 . S
C1050 C1046 1.531 . S
C1050 H1062 0.960 . S
C1050 H1063 0.962 . S
C1050 H1064 0.960 . S
C1051 C1048 1.511 . S
C1051 H1065 0.961 . S
C1051 H1066 0.961 . S
C1051 H1067 0.961 . S
C1052 C1053 1.370 . S
C1052 C1054 1.363 . S
C1052 H1068 0.931 . S
C1053 C1052 1.370 . S
C1053 C1057 1.408 . S
C1054 C1052 1.363 . S
C1054 C1055 1.370 . S
C1054 C1058 1.524 . S
C1055 C1047 1.503 . S
C1055 C1054 1.370 . S
C1055 C1056 1.403 . S
C1056 C1055 1.403 . S
C1056 C1057 1.404 . S
C1056 C1059 1.539 . S
C1057 C1053 1.408 . S
C1057 C1056 1.404 . S
C1057 H1069 0.930 . S
C1058 C1054 1.524 . S
C1058 H1070 0.956 . S
C1058 H1071 0.961 . S
C1058 H1072 0.961 . S
C1059 C1056 1.539 . S
C1059 H1073 0.958 . S
C1059 H1074 0.961 . S
C1059 H1075 0.960 . S
H1060 C1044 0.931 . S
H1061 C1049 0.929 . S
H1062 C1050 0.960 . S
H1063 C1050 0.962 . S
H1064 C1050 0.960 . S
H1065 C1051 0.961 . S
H1066 C1051 0.961 . S
H1067 C1051 0.961 . S
H1068 C1052 0.931 . S
H1069 C1057 0.930 . S
H1070 C1058 0.956 . S
H1071 C1058 0.961 . S
H1072 C1058 0.961 . S
H1073 C1059 0.958 . S
H1074 C1059 0.961 . S
H1075 C1059 0.960 . S
C1076 C1077 1.391 . S
C1076 C1078 1.394 . S
C1076 H1092 0.931 . S
C1077 C1076 1.391 . S
C1077 C1081 1.376 . S
C1078 C1076 1.394 . S
C1078 C1079 1.369 . S
C1078 C1082 1.531 . S
C1079 C1078 1.369 . S
C1079 C1080 1.410 . S
C1079 C1087 1.503 . S
C1080 C1079 1.410 . S
C1080 C1081 1.392 . S
C1080 C1083 1.511 . S
C1081 C1077 1.376 . S
C1081 C1080 1.392 . S
C1081 H1093 0.929 . S
C1082 C1078 1.531 . S
C1082 H1094 0.960 . S
C1082 H1095 0.962 . S
C1082 H1096 0.960 . S
C1083 C1080 1.511 . S
C1083 H1097 0.961 . S
C1083 H1098 0.961 . S
C1083 H1099 0.961 . S
C1084 C1085 1.370 . S
C1084 C1086 1.363 . S
C1084 H1100 0.931 . S
C1085 C1084 1.370 . S
C1085 C1089 1.408 . S
C1086 C1084 1.363 . S
C1086 C1087 1.370 . S
C1086 C1090 1.524 . S
C1087 C1079 1.503 . S
C1087 C1086 1.370 . S
C1087 C1088 1.403 . S
C1088 C1087 1.403 . S
C1088 C1089 1.404 . S
C1088 C1091 1.539 . S
C1089 C1085 1.408 . S
C1089 C1088 1.404 . S
C1089 H1101 0.930 . S
C1090 C1086 1.524 . S
C1090 H1102 0.956 . S
C1090 H1103 0.961 . S
C1090 H1104 0.961 . S
C1091 C1088 1.539 . S
C1091 H1105 0.958 . S
C1091 H1106 0.961 . S
C1091 H1107 0.960 . S
H1092 C1076 0.931 . S
H1093 C1081 0.929 . S
H1094 C1082 0.960 . S
H1095 C1082 0.962 . S
H1096 C1082 0.960 . S
H1097 C1083 0.961 . S
H1098 C1083 0.961 . S
H1099 C1083 0.961 . S
H1100 C1084 0.931 . S
H1101 C1089 0.930 . S
H1102 C1090 0.956 . S
H1103 C1090 0.961 . S
H1104 C1090 0.961 . S
H1105 C1091 0.958 . S
H1106 C1091 0.961 . S
H1107 C1091 0.960 . S
C1108 C1109 1.391 . S
C1108 C1110 1.394 . S
C1108 H1124 0.931 . S
C1109 C1108 1.391 . S
C1109 C1113 1.376 . S
C1110 C1108 1.394 . S
C1110 C1111 1.369 . S
C1110 C1114 1.531 . S
C1111 C1110 1.369 . S
C1111 C1112 1.410 . S
C1111 C1119 1.503 . S
C1112 C1111 1.410 . S
C1112 C1113 1.392 . S
C1112 C1115 1.511 . S
C1113 C1109 1.376 . S
C1113 C1112 1.392 . S
C1113 H1125 0.929 . S
C1114 C1110 1.531 . S
C1114 H1126 0.960 . S
C1114 H1127 0.962 . S
C1114 H1128 0.960 . S
C1115 C1112 1.511 . S
C1115 H1129 0.961 . S
C1115 H1130 0.961 . S
C1115 H1131 0.961 . S
C1116 C1117 1.370 . S
C1116 C1118 1.363 . S
C1116 H1132 0.931 . S
C1117 C1116 1.370 . S
C1117 C1121 1.408 . S
C1118 C1116 1.363 . S
C1118 C1119 1.370 . S
C1118 C1122 1.524 . S
C1119 C1111 1.503 . S
C1119 C1118 1.370 . S
C1119 C1120 1.403 . S
C1120 C1119 1.403 . S
C1120 C1121 1.404 . S
C1120 C1123 1.539 . S
C1121 C1117 1.408 . S
C1121 C1120 1.404 . S
C1121 H1133 0.930 . S
C1122 C1118 1.524 . S
C1122 H1134 0.956 . S
C1122 H1135 0.961 . S
C1122 H1136 0.961 . S
C1123 C1120 1.539 . S
C1123 H1137 0.958 . S
C1123 H1138 0.961 . S
C1123 H1139 0.960 . S
H1124 C1108 0.931 . S
H1125 C1113 0.929 . S
H1126 C1114 0.960 . S
H1127 C1114 0.962 . S
H1128 C1114 0.960 . S
H1129 C1115 0.961 . S
H1130 C1115 0.961 . S
H1131 C1115 0.961 . S
H1132 C1116 0.931 . S
H1133 C1121 0.930 . S
H1134 C1122 0.956 . S
H1135 C1122 0.961 . S
H1136 C1122 0.961 . S
H1137 C1123 0.958 . S
H1138 C1123 0.961 . S
H1139 C1123 0.960 . S
C1140 C1141 1.391 . S
C1140 C1142 1.394 . S
C1140 H1156 0.931 . S
C1141 C1140 1.391 . S
C1141 C1145 1.376 . S
C1142 C1140 1.394 . S
C1142 C1143 1.369 . S
C1142 C1146 1.531 . S
C1143 C1142 1.369 . S
C1143 C1144 1.410 . S
C1143 C1151 1.503 . S
C1144 C1143 1.410 . S
C1144 C1145 1.392 . S
C1144 C1147 1.511 . S
C1145 C1141 1.376 . S
C1145 C1144 1.392 . S
C1145 H1157 0.929 . S
C1146 C1142 1.531 . S
C1146 H1158 0.960 . S
C1146 H1159 0.962 . S
C1146 H1160 0.960 . S
C1147 C1144 1.511 . S
C1147 H1161 0.961 . S
C1147 H1162 0.961 . S
C1147 H1163 0.961 . S
C1148 C1149 1.370 . S
C1148 C1150 1.363 . S
C1148 H1164 0.931 . S
C1149 C1148 1.370 . S
C1149 C1153 1.408 . S
C1150 C1148 1.363 . S
C1150 C1151 1.370 . S
C1150 C1154 1.524 . S
C1151 C1143 1.503 . S
C1151 C1150 1.370 . S
C1151 C1152 1.403 . S
C1152 C1151 1.403 . S
C1152 C1153 1.404 . S
C1152 C1155 1.539 . S
C1153 C1149 1.408 . S
C1153 C1152 1.404 . S
C1153 H1165 0.930 . S
C1154 C1150 1.524 . S
C1154 H1166 0.956 . S
C1154 H1167 0.961 . S
C1154 H1168 0.961 . S
C1155 C1152 1.539 . S
C1155 H1169 0.958 . S
C1155 H1170 0.961 . S
C1155 H1171 0.960 . S
H1156 C1140 0.931 . S
H1157 C1145 0.929 . S
H1158 C1146 0.960 . S
H1159 C1146 0.962 . S
H1160 C1146 0.960 . S
H1161 C1147 0.961 . S
H1162 C1147 0.961 . S
H1163 C1147 0.961 . S
H1164 C1148 0.931 . S
H1165 C1153 0.930 . S
H1166 C1154 0.956 . S
H1167 C1154 0.961 . S
H1168 C1154 0.961 . S
H1169 C1155 0.958 . S
H1170 C1155 0.961 . S
H1171 C1155 0.960 . S
C1172 C1173 1.391 1_556 S
C1172 C1174 1.394 . S
C1172 H1188 0.931 . S
C1173 C1172 1.391 1_554 S
C1173 C1177 1.376 . S
C1174 C1172 1.394 . S
C1174 C1175 1.369 . S
C1174 C1178 1.531 . S
C1175 C1174 1.369 . S
C1175 C1176 1.410 . S
C1175 C1183 1.503 . S
C1176 C1175 1.410 . S
C1176 C1177 1.392 1_556 S
C1176 C1179 1.511 . S
C1177 C1173 1.376 . S
C1177 C1176 1.392 1_554 S
C1177 H1189 0.929 . S
C1178 C1174 1.531 . S
C1178 H1190 0.960 . S
C1178 H1191 0.962 . S
C1178 H1192 0.960 . S
C1179 C1176 1.511 . S
C1179 H1193 0.961 . S
C1179 H1194 0.961 . S
C1179 H1195 0.961 . S
C1180 C1181 1.370 . S
C1180 C1182 1.363 . S
C1180 H1196 0.931 . S
C1181 C1180 1.370 . S
C1181 C1185 1.408 . S
C1182 C1180 1.363 . S
C1182 C1183 1.370 . S
C1182 C1186 1.524 . S
C1183 C1175 1.503 . S
C1183 C1182 1.370 . S
C1183 C1184 1.403 . S
C1184 C1183 1.403 . S
C1184 C1185 1.404 . S
C1184 C1187 1.539 . S
C1185 C1181 1.408 . S
C1185 C1184 1.404 . S
C1185 H1197 0.930 . S
C1186 C1182 1.524 . S
C1186 H1198 0.956 . S
C1186 H1199 0.961 . S
C1186 H1200 0.961 . S
C1187 C1184 1.539 . S
C1187 H1201 0.958 . S
C1187 H1202 0.961 . S
C1187 H1203 0.960 . S
H1188 C1172 0.931 . S
H1189 C1177 0.929 . S
H1190 C1178 0.960 . S
H1191 C1178 0.962 . S
H1192 C1178 0.960 . S
H1193 C1179 0.961 . S
H1194 C1179 0.961 . S
H1195 C1179 0.961 . S
H1196 C1180 0.931 . S
H1197 C1185 0.930 . S
H1198 C1186 0.956 . S
H1199 C1186 0.961 . S
H1200 C1186 0.961 . S
H1201 C1187 0.958 . S
H1202 C1187 0.961 . S
H1203 C1187 0.960 . S
C1204 C1205 1.391 1_556 S
C1204 C1206 1.394 . S
C1204 H1220 0.931 . S
C1205 C1204 1.391 1_554 S
C1205 C1209 1.376 . S
C1206 C1204 1.394 . S
C1206 C1207 1.369 . S
C1206 C1210 1.531 . S
C1207 C1206 1.369 . S
C1207 C1208 1.410 1_556 S
C1207 C1215 1.503 . S
C1208 C1207 1.410 1_554 S
C1208 C1209 1.392 . S
C1208 C1211 1.511 . S
C1209 C1205 1.376 . S
C1209 C1208 1.392 . S
C1209 H1221 0.929 1_655 S
C1210 C1206 1.531 . S
C1210 H1222 0.960 . S
C1210 H1223 0.962 . S
C1210 H1224 0.960 . S
C1211 C1208 1.511 . S
C1211 H1225 0.961 . S
C1211 H1226 0.961 . S
C1211 H1227 0.961 . S
C1212 C1213 1.370 . S
C1212 C1214 1.363 . S
C1212 H1228 0.931 . S
C1213 C1212 1.370 . S
C1213 C1217 1.408 . S
C1214 C1212 1.363 . S
C1214 C1215 1.370 . S
C1214 C1218 1.524 1_556 S
C1215 C1207 1.503 . S
C1215 C1214 1.370 . S
C1215 C1216 1.403 . S
C1216 C1215 1.403 . S
C1216 C1217 1.404 . S
C1216 C1219 1.539 . S
C1217 C1213 1.408 . S
C1217 C1216 1.404 . S
C1217 H1229 0.930 . S
C1218 C1214 1.524 1_554 S
C1218 H1230 0.956 . S
C1218 H1231 0.961 . S
C1218 H1232 0.961 . S
C1219 C1216 1.539 . S
C1219 H1233 0.958 . S
C1219 H1234 0.961 . S
C1219 H1235 0.960 . S
H1220 C1204 0.931 . S
H1221 C1209 0.929 1_455 S
H1222 C1210 0.960 . S
H1223 C1210 0.962 . S
H1224 C1210 0.960 . S
H1225 C1211 0.961 . S
H1226 C1211 0.961 . S
H1227 C1211 0.961 . S
H1228 C1212 0.931 . S
H1229 C1217 0.930 . S
H1230 C1218 0.956 . S
H1231 C1218 0.961 . S
H1232 C1218 0.961 . S
H1233 C1219 0.958 . S
H1234 C1219 0.961 . S
H1235 C1219 0.960 . S
C1236 C1237 1.391 . S
C1236 C1238 1.394 . S
C1236 H1252 0.931 . S
C1237 C1236 1.391 . S
C1237 C1241 1.376 . S
C1238 C1236 1.394 . S
C1238 C1239 1.369 . S
C1238 C1242 1.531 . S
C1239 C1238 1.369 . S
C1239 C1240 1.410 . S
C1239 C1247 1.503 . S
C1240 C1239 1.410 . S
C1240 C1241 1.392 . S
C1240 C1243 1.511 . S
C1241 C1237 1.376 . S
C1241 C1240 1.392 . S
C1241 H1253 0.929 . S
C1242 C1238 1.531 . S
C1242 H1254 0.960 . S
C1242 H1255 0.962 . S
C1242 H1256 0.960 . S
C1243 C1240 1.511 . S
C1243 H1257 0.961 . S
C1243 H1258 0.961 . S
C1243 H1259 0.961 . S
C1244 C1245 1.370 . S
C1244 C1246 1.363 . S
C1244 H1260 0.931 . S
C1245 C1244 1.370 . S
C1245 C1249 1.408 . S
C1246 C1244 1.363 . S
C1246 C1247 1.370 . S
C1246 C1250 1.524 . S
C1247 C1239 1.503 . S
C1247 C1246 1.370 . S
C1247 C1248 1.403 . S
C1248 C1247 1.403 . S
C1248 C1249 1.404 . S
C1248 C1251 1.539 . S
C1249 C1245 1.408 . S
C1249 C1248 1.404 . S
C1249 H1261 0.930 . S
C1250 C1246 1.524 . S
C1250 H1262 0.956 . S
C1250 H1263 0.961 . S
C1250 H1264 0.961 . S
C1251 C1248 1.539 . S
C1251 H1265 0.958 . S
C1251 H1266 0.961 . S
C1251 H1267 0.960 . S
H1252 C1236 0.931 . S
H1253 C1241 0.929 . S
H1254 C1242 0.960 . S
H1255 C1242 0.962 . S
H1256 C1242 0.960 . S
H1257 C1243 0.961 . S
H1258 C1243 0.961 . S
H1259 C1243 0.961 . S
H1260 C1244 0.931 . S
H1261 C1249 0.930 . S
H1262 C1250 0.956 . S
H1263 C1250 0.961 . S
H1264 C1250 0.961 . S
H1265 C1251 0.958 . S
H1266 C1251 0.961 . S
H1267 C1251 0.960 . S
C1268 C1269 1.391 . S
C1268 C1270 1.394 . S
C1268 H1284 0.931 . S
C1269 C1268 1.391 . S
C1269 C1273 1.376 . S
C1270 C1268 1.394 . S
C1270 C1271 1.369 . S
C1270 C1274 1.531 . S
C1271 C1270 1.369 . S
C1271 C1272 1.410 . S
C1271 C1279 1.503 . S
C1272 C1271 1.410 . S
C1272 C1273 1.392 . S
C1272 C1275 1.511 . S
C1273 C1269 1.376 . S
C1273 C1272 1.392 . S
C1273 H1285 0.929 . S
C1274 C1270 1.531 . S
C1274 H1286 0.960 . S
C1274 H1287 0.962 . S
C1274 H1288 0.960 . S
C1275 C1272 1.511 . S
C1275 H1289 0.961 . S
C1275 H1290 0.961 . S
C1275 H1291 0.961 . S
C1276 C1277 1.370 . S
C1276 C1278 1.363 . S
C1276 H1292 0.931 . S
C1277 C1276 1.370 . S
C1277 C1281 1.408 . S
C1278 C1276 1.363 . S
C1278 C1279 1.370 . S
C1278 C1282 1.524 . S
C1279 C1271 1.503 . S
C1279 C1278 1.370 . S
C1279 C1280 1.403 . S
C1280 C1279 1.403 . S
C1280 C1281 1.404 . S
C1280 C1283 1.539 . S
C1281 C1277 1.408 . S
C1281 C1280 1.404 . S
C1281 H1293 0.930 . S
C1282 C1278 1.524 . S
C1282 H1294 0.956 . S
C1282 H1295 0.961 . S
C1282 H1296 0.961 . S
C1283 C1280 1.539 . S
C1283 H1297 0.958 . S
C1283 H1298 0.961 . S
C1283 H1299 0.960 . S
H1284 C1268 0.931 . S
H1285 C1273 0.929 . S
H1286 C1274 0.960 . S
H1287 C1274 0.962 . S
H1288 C1274 0.960 . S
H1289 C1275 0.961 . S
H1290 C1275 0.961 . S
H1291 C1275 0.961 . S
H1292 C1276 0.931 . S
H1293 C1281 0.930 . S
H1294 C1282 0.956 . S
H1295 C1282 0.961 . S
H1296 C1282 0.961 . S
H1297 C1283 0.958 . S
H1298 C1283 0.961 . S
H1299 C1283 0.960 . S
C1300 C1301 1.391 . S
C1300 C1302 1.394 . S
C1300 H1316 0.931 . S
C1301 C1300 1.391 . S
C1301 C1305 1.376 . S
C1302 C1300 1.394 . S
C1302 C1303 1.369 . S
C1302 C1306 1.531 . S
C1303 C1302 1.369 . S
C1303 C1304 1.410 . S
C1303 C1311 1.503 . S
C1304 C1303 1.410 . S
C1304 C1305 1.392 . S
C1304 C1307 1.511 . S
C1305 C1301 1.376 . S
C1305 C1304 1.392 . S
C1305 H1317 0.929 . S
C1306 C1302 1.531 . S
C1306 H1318 0.960 . S
C1306 H1319 0.962 . S
C1306 H1320 0.960 . S
C1307 C1304 1.511 . S
C1307 H1321 0.961 . S
C1307 H1322 0.961 . S
C1307 H1323 0.961 . S
C1308 C1309 1.370 . S
C1308 C1310 1.363 . S
C1308 H1324 0.931 . S
C1309 C1308 1.370 . S
C1309 C1313 1.408 . S
C1310 C1308 1.363 . S
C1310 C1311 1.370 . S
C1310 C1314 1.524 . S
C1311 C1303 1.503 . S
C1311 C1310 1.370 . S
C1311 C1312 1.403 . S
C1312 C1311 1.403 . S
C1312 C1313 1.404 . S
C1312 C1315 1.539 . S
C1313 C1309 1.408 . S
C1313 C1312 1.404 . S
C1313 H1325 0.930 . S
C1314 C1310 1.524 . S
C1314 H1326 0.956 . S
C1314 H1327 0.961 . S
C1314 H1328 0.961 . S
C1315 C1312 1.539 . S
C1315 H1329 0.958 . S
C1315 H1330 0.961 . S
C1315 H1331 0.960 . S
H1316 C1300 0.931 . S
H1317 C1305 0.929 . S
H1318 C1306 0.960 . S
H1319 C1306 0.962 . S
H1320 C1306 0.960 . S
H1321 C1307 0.961 . S
H1322 C1307 0.961 . S
H1323 C1307 0.961 . S
H1324 C1308 0.931 . S
H1325 C1313 0.930 . S
H1326 C1314 0.956 . S
H1327 C1314 0.961 . S
H1328 C1314 0.961 . S
H1329 C1315 0.958 . S
H1330 C1315 0.961 . S
H1331 C1315 0.960 . S
C1332 C1333 1.391 . S
C1332 C1334 1.394 . S
C1332 H1348 0.931 . S
C1333 C1332 1.391 . S
C1333 C1337 1.376 . S
C1334 C1332 1.394 . S
C1334 C1335 1.369 . S
C1334 C1338 1.531 . S
C1335 C1334 1.369 . S
C1335 C1336 1.410 . S
C1335 C1343 1.503 . S
C1336 C1335 1.410 . S
C1336 C1337 1.392 . S
C1336 C1339 1.511 . S
C1337 C1333 1.376 . S
C1337 C1336 1.392 . S
C1337 H1349 0.929 . S
C1338 C1334 1.531 . S
C1338 H1350 0.960 . S
C1338 H1351 0.962 . S
C1338 H1352 0.960 . S
C1339 C1336 1.511 . S
C1339 H1353 0.961 . S
C1339 H1354 0.961 . S
C1339 H1355 0.961 . S
C1340 C1341 1.370 . S
C1340 C1342 1.363 . S
C1340 H1356 0.931 . S
C1341 C1340 1.370 . S
C1341 C1345 1.408 . S
C1342 C1340 1.363 . S
C1342 C1343 1.370 . S
C1342 C1346 1.524 . S
C1343 C1335 1.503 . S
C1343 C1342 1.370 . S
C1343 C1344 1.403 . S
C1344 C1343 1.403 . S
C1344 C1345 1.404 . S
C1344 C1347 1.539 . S
C1345 C1341 1.408 . S
C1345 C1344 1.404 . S
C1345 H1357 0.930 . S
C1346 C1342 1.524 . S
C1346 H1358 0.956 . S
C1346 H1359 0.961 . S
C1346 H1360 0.961 . S
C1347 C1344 1.539 . S
C1347 H1361 0.958 . S
C1347 H1362 0.961 . S
C1347 H1363 0.960 . S
H1348 C1332 0.931 . S
H1349 C1337 0.929 . S
H1350 C1338 0.960 . S
H1351 C1338 0.962 . S
H1352 C1338 0.960 . S
H1353 C1339 0.961 . S
H1354 C1339 0.961 . S
H1355 C1339 0.961 . S
H1356 C1340 0.931 . S
H1357 C1345 0.930 . S
H1358 C1346 0.956 . S
H1359 C1346 0.961 . S
H1360 C1346 0.961 . S
H1361 C1347 0.958 . S
H1362 C1347 0.961 . S
H1363 C1347 0.960 . S
C1364 C1365 1.391 . S
C1364 C1366 1.394 . S
C1364 H1380 0.931 . S
C1365 C1364 1.391 . S
C1365 C1369 1.376 . S
C1366 C1364 1.394 . S
C1366 C1367 1.369 . S
C1366 C1370 1.531 . S
C1367 C1366 1.369 . S
C1367 C1368 1.410 . S
C1367 C1375 1.503 . S
C1368 C1367 1.410 . S
C1368 C1369 1.392 . S
C1368 C1371 1.511 . S
C1369 C1365 1.376 . S
C1369 C1368 1.392 . S
C1369 H1381 0.929 . S
C1370 C1366 1.531 . S
C1370 H1382 0.960 . S
C1370 H1383 0.962 . S
C1370 H1384 0.960 . S
C1371 C1368 1.511 . S
C1371 H1385 0.961 . S
C1371 H1386 0.961 . S
C1371 H1387 0.961 . S
C1372 C1373 1.370 . S
C1372 C1374 1.363 . S
C1372 H1388 0.931 . S
C1373 C1372 1.370 . S
C1373 C1377 1.408 . S
C1374 C1372 1.363 . S
C1374 C1375 1.370 . S
C1374 C1378 1.524 . S
C1375 C1367 1.503 . S
C1375 C1374 1.370 . S
C1375 C1376 1.403 . S
C1376 C1375 1.403 . S
C1376 C1377 1.404 . S
C1376 C1379 1.539 . S
C1377 C1373 1.408 . S
C1377 C1376 1.404 . S
C1377 H1389 0.930 . S
C1378 C1374 1.524 . S
C1378 H1390 0.956 . S
C1378 H1391 0.961 . S
C1378 H1392 0.961 . S
C1379 C1376 1.539 . S
C1379 H1393 0.958 . S
C1379 H1394 0.961 . S
C1379 H1395 0.960 . S
H1380 C1364 0.931 . S
H1381 C1369 0.929 . S
H1382 C1370 0.960 . S
H1383 C1370 0.962 . S
H1384 C1370 0.960 . S
H1385 C1371 0.961 . S
H1386 C1371 0.961 . S
H1387 C1371 0.961 . S
H1388 C1372 0.931 . S
H1389 C1377 0.930 . S
H1390 C1378 0.956 . S
H1391 C1378 0.961 . S
H1392 C1378 0.961 . S
H1393 C1379 0.958 . S
H1394 C1379 0.961 . S
H1395 C1379 0.960 . S
C1396 C1397 1.391 . S
C1396 C1398 1.394 . S
C1396 H1412 0.931 . S
C1397 C1396 1.391 . S
C1397 C1401 1.376 . S
C1398 C1396 1.394 . S
C1398 C1399 1.369 . S
C1398 C1402 1.531 . S
C1399 C1398 1.369 . S
C1399 C1400 1.410 . S
C1399 C1407 1.503 . S
C1400 C1399 1.410 . S
C1400 C1401 1.392 . S
C1400 C1403 1.511 . S
C1401 C1397 1.376 . S
C1401 C1400 1.392 . S
C1401 H1413 0.929 . S
C1402 C1398 1.531 . S
C1402 H1414 0.960 . S
C1402 H1415 0.962 . S
C1402 H1416 0.960 . S
C1403 C1400 1.511 . S
C1403 H1417 0.961 . S
C1403 H1418 0.961 . S
C1403 H1419 0.961 . S
C1404 C1405 1.370 . S
C1404 C1406 1.363 . S
C1404 H1420 0.931 . S
C1405 C1404 1.370 . S
C1405 C1409 1.408 . S
C1406 C1404 1.363 . S
C1406 C1407 1.370 . S
C1406 C1410 1.524 . S
C1407 C1399 1.503 . S
C1407 C1406 1.370 . S
C1407 C1408 1.403 . S
C1408 C1407 1.403 . S
C1408 C1409 1.404 . S
C1408 C1411 1.539 . S
C1409 C1405 1.408 . S
C1409 C1408 1.404 . S
C1409 H1421 0.930 . S
C1410 C1406 1.524 . S
C1410 H1422 0.956 . S
C1410 H1423 0.961 . S
C1410 H1424 0.961 . S
C1411 C1408 1.539 . S
C1411 H1425 0.958 . S
C1411 H1426 0.961 . S
C1411 H1427 0.960 . S
H1412 C1396 0.931 . S
H1413 C1401 0.929 . S
H1414 C1402 0.960 . S
H1415 C1402 0.962 . S
H1416 C1402 0.960 . S
H1417 C1403 0.961 . S
H1418 C1403 0.961 . S
H1419 C1403 0.961 . S
H1420 C1404 0.931 . S
H1421 C1409 0.930 . S
H1422 C1410 0.956 . S
H1423 C1410 0.961 . S
H1424 C1410 0.961 . S
H1425 C1411 0.958 . S
H1426 C1411 0.961 . S
H1427 C1411 0.960 . S
C1428 C1429 1.391 . S
C1428 C1430 1.394 . S
C1428 H1444 0.931 . S
C1429 C1428 1.391 . S
C1429 C1433 1.376 . S
C1430 C1428 1.394 . S
C1430 C1431 1.369 . S
C1430 C1434 1.531 . S
C1431 C1430 1.369 . S
C1431 C1432 1.410 . S
C1431 C1439 1.503 . S
C1432 C1431 1.410 . S
C1432 C1433 1.392 . S
C1432 C1435 1.511 . S
C1433 C1429 1.376 . S
C1433 C1432 1.392 . S
C1433 H1445 0.929 . S
C1434 C1430 1.531 . S
C1434 H1446 0.960 . S
C1434 H1447 0.962 . S
C1434 H1448 0.960 . S
C1435 C1432 1.511 . S
C1435 H1449 0.961 . S
C1435 H1450 0.961 . S
C1435 H1451 0.961 . S
C1436 C1437 1.370 . S
C1436 C1438 1.363 . S
C1436 H1452 0.931 . S
C1437 C1436 1.370 . S
C1437 C1441 1.408 . S
C1438 C1436 1.363 . S
C1438 C1439 1.370 . S
C1438 C1442 1.524 . S
C1439 C1431 1.503 . S
C1439 C1438 1.370 . S
C1439 C1440 1.403 . S
C1440 C1439 1.403 . S
C1440 C1441 1.404 . S
C1440 C1443 1.539 . S
C1441 C1437 1.408 . S
C1441 C1440 1.404 . S
C1441 H1453 0.930 . S
C1442 C1438 1.524 . S
C1442 H1454 0.956 . S
C1442 H1455 0.961 . S
C1442 H1456 0.961 . S
C1443 C1440 1.539 . S
C1443 H1457 0.958 . S
C1443 H1458 0.961 . S
C1443 H1459 0.960 . S
H1444 C1428 0.931 . S
H1445 C1433 0.929 . S
H1446 C1434 0.960 . S
H1447 C1434 0.962 . S
H1448 C1434 0.960 . S
H1449 C1435 0.961 . S
H1450 C1435 0.961 . S
H1451 C1435 0.961 . S
H1452 C1436 0.931 . S
H1453 C1441 0.930 . S
H1454 C1442 0.956 . S
H1455 C1442 0.961 . S
H1456 C1442 0.961 . S
H1457 C1443 0.958 . S
H1458 C1443 0.961 . S
H1459 C1443 0.960 . S
C1460 C1461 1.391 . S
C1460 C1462 1.394 . S
C1460 H1476 0.931 . S
C1461 C1460 1.391 . S
C1461 C1465 1.376 . S
C1462 C1460 1.394 . S
C1462 C1463 1.369 . S
C1462 C1466 1.531 . S
C1463 C1462 1.369 . S
C1463 C1464 1.410 . S
C1463 C1471 1.503 . S
C1464 C1463 1.410 . S
C1464 C1465 1.392 . S
C1464 C1467 1.511 . S
C1465 C1461 1.376 . S
C1465 C1464 1.392 . S
C1465 H1477 0.929 . S
C1466 C1462 1.531 . S
C1466 H1478 0.960 . S
C1466 H1479 0.962 . S
C1466 H1480 0.960 . S
C1467 C1464 1.511 . S
C1467 H1481 0.961 . S
C1467 H1482 0.961 . S
C1467 H1483 0.961 . S
C1468 C1469 1.370 . S
C1468 C1470 1.363 . S
C1468 H1484 0.931 . S
C1469 C1468 1.370 . S
C1469 C1473 1.408 . S
C1470 C1468 1.363 . S
C1470 C1471 1.370 . S
C1470 C1474 1.524 . S
C1471 C1463 1.503 . S
C1471 C1470 1.370 . S
C1471 C1472 1.403 . S
C1472 C1471 1.403 . S
C1472 C1473 1.404 . S
C1472 C1475 1.539 . S
C1473 C1469 1.408 . S
C1473 C1472 1.404 . S
C1473 H1485 0.930 . S
C1474 C1470 1.524 . S
C1474 H1486 0.956 . S
C1474 H1487 0.961 . S
C1474 H1488 0.961 . S
C1475 C1472 1.539 . S
C1475 H1489 0.958 . S
C1475 H1490 0.961 . S
C1475 H1491 0.960 . S
H1476 C1460 0.931 . S
H1477 C1465 0.929 . S
H1478 C1466 0.960 . S
H1479 C1466 0.962 . S
H1480 C1466 0.960 . S
H1481 C1467 0.961 . S
H1482 C1467 0.961 . S
H1483 C1467 0.961 . S
H1484 C1468 0.931 . S
H1485 C1473 0.930 . S
H1486 C1474 0.956 . S
H1487 C1474 0.961 . S
H1488 C1474 0.961 . S
H1489 C1475 0.958 . S
H1490 C1475 0.961 . S
H1491 C1475 0.960 . S
C1492 C1493 1.391 . S
C1492 C1494 1.394 . S
C1492 H1508 0.931 . S
C1493 C1492 1.391 . S
C1493 C1497 1.376 . S
C1494 C1492 1.394 . S
C1494 C1495 1.369 . S
C1494 C1498 1.531 . S
C1495 C1494 1.369 . S
C1495 C1496 1.410 . S
C1495 C1503 1.503 . S
C1496 C1495 1.410 . S
C1496 C1497 1.392 . S
C1496 C1499 1.511 . S
C1497 C1493 1.376 . S
C1497 C1496 1.392 . S
C1497 H1509 0.929 . S
C1498 C1494 1.531 . S
C1498 H1510 0.960 . S
C1498 H1511 0.962 . S
C1498 H1512 0.960 . S
C1499 C1496 1.511 . S
C1499 H1513 0.961 . S
C1499 H1514 0.961 . S
C1499 H1515 0.961 . S
C1500 C1501 1.370 . S
C1500 C1502 1.363 . S
C1500 H1516 0.931 . S
C1501 C1500 1.370 . S
C1501 C1505 1.408 . S
C1502 C1500 1.363 . S
C1502 C1503 1.370 . S
C1502 C1506 1.524 . S
C1503 C1495 1.503 . S
C1503 C1502 1.370 . S
C1503 C1504 1.403 . S
C1504 C1503 1.403 . S
C1504 C1505 1.404 . S
C1504 C1507 1.539 . S
C1505 C1501 1.408 . S
C1505 C1504 1.404 . S
C1505 H1517 0.930 . S
C1506 C1502 1.524 . S
C1506 H1518 0.956 . S
C1506 H1519 0.961 . S
C1506 H1520 0.961 . S
C1507 C1504 1.539 . S
C1507 H1521 0.958 . S
C1507 H1522 0.961 . S
C1507 H1523 0.960 . S
H1508 C1492 0.931 . S
H1509 C1497 0.929 . S
H1510 C1498 0.960 . S
H1511 C1498 0.962 . S
H1512 C1498 0.960 . S
H1513 C1499 0.961 . S
H1514 C1499 0.961 . S
H1515 C1499 0.961 . S
H1516 C1500 0.931 . S
H1517 C1505 0.930 . S
H1518 C1506 0.956 . S
H1519 C1506 0.961 . S
H1520 C1506 0.961 . S
H1521 C1507 0.958 . S
H1522 C1507 0.961 . S
H1523 C1507 0.960 . S
C1524 C1525 1.391 . S
C1524 C1526 1.394 . S
C1524 H1540 0.931 . S
C1525 C1524 1.391 . S
C1525 C1529 1.376 . S
C1526 C1524 1.394 . S
C1526 C1527 1.369 . S
C1526 C1530 1.531 . S
C1527 C1526 1.369 . S
C1527 C1528 1.410 . S
C1527 C1535 1.503 . S
C1528 C1527 1.410 . S
C1528 C1529 1.392 . S
C1528 C1531 1.511 . S
C1529 C1525 1.376 . S
C1529 C1528 1.392 . S
C1529 H1541 0.929 . S
C1530 C1526 1.531 . S
C1530 H1542 0.960 . S
C1530 H1543 0.962 . S
C1530 H1544 0.960 . S
C1531 C1528 1.511 . S
C1531 H1545 0.961 . S
C1531 H1546 0.961 . S
C1531 H1547 0.961 . S
C1532 C1533 1.370 . S
C1532 C1534 1.363 . S
C1532 H1548 0.931 . S
C1533 C1532 1.370 . S
C1533 C1537 1.408 . S
C1534 C1532 1.363 . S
C1534 C1535 1.370 . S
C1534 C1538 1.524 . S
C1535 C1527 1.503 . S
C1535 C1534 1.370 . S
C1535 C1536 1.403 . S
C1536 C1535 1.403 . S
C1536 C1537 1.404 . S
C1536 C1539 1.539 . S
C1537 C1533 1.408 . S
C1537 C1536 1.404 . S
C1537 H1549 0.930 . S
C1538 C1534 1.524 . S
C1538 H1550 0.956 . S
C1538 H1551 0.961 . S
C1538 H1552 0.961 . S
C1539 C1536 1.539 . S
C1539 H1553 0.958 . S
C1539 H1554 0.961 . S
C1539 H1555 0.960 . S
H1540 C1524 0.931 . S
H1541 C1529 0.929 . S
H1542 C1530 0.960 . S
H1543 C1530 0.962 . S
H1544 C1530 0.960 . S
H1545 C1531 0.961 . S
H1546 C1531 0.961 . S
H1547 C1531 0.961 . S
H1548 C1532 0.931 . S
H1549 C1537 0.930 . S
H1550 C1538 0.956 . S
H1551 C1538 0.961 . S
H1552 C1538 0.961 . S
H1553 C1539 0.958 . S
H1554 C1539 0.961 . S
H1555 C1539 0.960 . S
C1556 C1557 1.391 . S
C1556 C1558 1.394 . S
C1556 H1572 0.931 . S
C1557 C1556 1.391 . S
C1557 C1561 1.376 . S
C1558 C1556 1.394 . S
C1558 C1559 1.369 . S
C1558 C1562 1.531 . S
C1559 C1558 1.369 . S
C1559 C1560 1.410 . S
C1559 C1567 1.503 . S
C1560 C1559 1.410 . S
C1560 C1561 1.392 . S
C1560 C1563 1.511 . S
C1561 C1557 1.376 . S
C1561 C1560 1.392 . S
C1561 H1573 0.929 . S
C1562 C1558 1.531 . S
C1562 H1574 0.960 . S
C1562 H1575 0.962 . S
C1562 H1576 0.960 . S
C1563 C1560 1.511 . S
C1563 H1577 0.961 . S
C1563 H1578 0.961 . S
C1563 H1579 0.961 . S
C1564 C1565 1.370 . S
C1564 C1566 1.363 . S
C1564 H1580 0.931 . S
C1565 C1564 1.370 . S
C1565 C1569 1.408 . S
C1566 C1564 1.363 . S
C1566 C1567 1.370 . S
C1566 C1570 1.524 . S
C1567 C1559 1.503 . S
C1567 C1566 1.370 . S
C1567 C1568 1.403 . S
C1568 C1567 1.403 . S
C1568 C1569 1.404 . S
C1568 C1571 1.539 . S
C1569 C1565 1.408 . S
C1569 C1568 1.404 . S
C1569 H1581 0.930 . S
C1570 C1566 1.524 . S
C1570 H1582 0.956 . S
C1570 H1583 0.961 . S
C1570 H1584 0.961 . S
C1571 C1568 1.539 . S
C1571 H1585 0.958 . S
C1571 H1586 0.961 . S
C1571 H1587 0.960 . S
H1572 C1556 0.931 . S
H1573 C1561 0.929 . S
H1574 C1562 0.960 . S
H1575 C1562 0.962 . S
H1576 C1562 0.960 . S
H1577 C1563 0.961 . S
H1578 C1563 0.961 . S
H1579 C1563 0.961 . S
H1580 C1564 0.931 . S
H1581 C1569 0.930 . S
H1582 C1570 0.956 . S
H1583 C1570 0.961 . S
H1584 C1570 0.961 . S
H1585 C1571 0.958 . S
H1586 C1571 0.961 . S
H1587 C1571 0.960 . S
C1588 C1589 1.391 . S
C1588 C1590 1.394 . S
C1588 H1604 0.931 . S
C1589 C1588 1.391 . S
C1589 C1593 1.376 . S
C1590 C1588 1.394 . S
C1590 C1591 1.369 . S
C1590 C1594 1.531 . S
C1591 C1590 1.369 . S
C1591 C1592 1.410 . S
C1591 C1599 1.503 . S
C1592 C1591 1.410 . S
C1592 C1593 1.392 . S
C1592 C1595 1.511 . S
C1593 C1589 1.376 . S
C1593 C1592 1.392 . S
C1593 H1605 0.929 . S
C1594 C1590 1.531 . S
C1594 H1606 0.960 . S
C1594 H1607 0.962 . S
C1594 H1608 0.960 . S
C1595 C1592 1.511 . S
C1595 H1609 0.961 . S
C1595 H1610 0.961 . S
C1595 H1611 0.961 . S
C1596 C1597 1.370 . S
C1596 C1598 1.363 . S
C1596 H1612 0.931 . S
C1597 C1596 1.370 . S
C1597 C1601 1.408 . S
C1598 C1596 1.363 . S
C1598 C1599 1.370 . S
C1598 C1602 1.524 . S
C1599 C1591 1.503 . S
C1599 C1598 1.370 . S
C1599 C1600 1.403 . S
C1600 C1599 1.403 . S
C1600 C1601 1.404 . S
C1600 C1603 1.539 . S
C1601 C1597 1.408 . S
C1601 C1600 1.404 . S
C1601 H1613 0.930 . S
C1602 C1598 1.524 . S
C1602 H1614 0.956 . S
C1602 H1615 0.961 . S
C1602 H1616 0.961 . S
C1603 C1600 1.539 . S
C1603 H1617 0.958 . S
C1603 H1618 0.961 . S
C1603 H1619 0.960 . S
H1604 C1588 0.931 . S
H1605 C1593 0.929 . S
H1606 C1594 0.960 . S
H1607 C1594 0.962 . S
H1608 C1594 0.960 . S
H1609 C1595 0.961 . S
H1610 C1595 0.961 . S
H1611 C1595 0.961 . S
H1612 C1596 0.931 . S
H1613 C1601 0.930 . S
H1614 C1602 0.956 . S
H1615 C1602 0.961 . S
H1616 C1602 0.961 . S
H1617 C1603 0.958 . S
H1618 C1603 0.961 . S
H1619 C1603 0.960 . S
C1620 C1621 1.391 . S
C1620 C1622 1.394 . S
C1620 H1636 0.931 . S
C1621 C1620 1.391 . S
C1621 C1625 1.376 . S
C1622 C1620 1.394 . S
C1622 C1623 1.369 . S
C1622 C1626 1.531 . S
C1623 C1622 1.369 . S
C1623 C1624 1.410 . S
C1623 C1631 1.503 . S
C1624 C1623 1.410 . S
C1624 C1625 1.392 . S
C1624 C1627 1.511 . S
C1625 C1621 1.376 . S
C1625 C1624 1.392 . S
C1625 H1637 0.929 . S
C1626 C1622 1.531 . S
C1626 H1638 0.960 . S
C1626 H1639 0.962 . S
C1626 H1640 0.960 . S
C1627 C1624 1.511 . S
C1627 H1641 0.961 . S
C1627 H1642 0.961 . S
C1627 H1643 0.961 . S
C1628 C1629 1.370 . S
C1628 C1630 1.363 . S
C1628 H1644 0.931 . S
C1629 C1628 1.370 . S
C1629 C1633 1.408 . S
C1630 C1628 1.363 . S
C1630 C1631 1.370 . S
C1630 C1634 1.524 . S
C1631 C1623 1.503 . S
C1631 C1630 1.370 . S
C1631 C1632 1.403 . S
C1632 C1631 1.403 . S
C1632 C1633 1.404 . S
C1632 C1635 1.539 . S
C1633 C1629 1.408 . S
C1633 C1632 1.404 . S
C1633 H1645 0.930 . S
C1634 C1630 1.524 . S
C1634 H1646 0.956 . S
C1634 H1647 0.961 . S
C1634 H1648 0.961 . S
C1635 C1632 1.539 . S
C1635 H1649 0.958 . S
C1635 H1650 0.961 . S
C1635 H1651 0.960 . S
H1636 C1620 0.931 . S
H1637 C1625 0.929 . S
H1638 C1626 0.960 . S
H1639 C1626 0.962 . S
H1640 C1626 0.960 . S
H1641 C1627 0.961 . S
H1642 C1627 0.961 . S
H1643 C1627 0.961 . S
H1644 C1628 0.931 . S
H1645 C1633 0.930 . S
H1646 C1634 0.956 . S
H1647 C1634 0.961 . S
H1648 C1634 0.961 . S
H1649 C1635 0.958 . S
H1650 C1635 0.961 . S
H1651 C1635 0.960 . S
C1652 C1653 1.391 . S
C1652 C1654 1.394 . S
C1652 H1668 0.931 . S
C1653 C1652 1.391 . S
C1653 C1657 1.376 . S
C1654 C1652 1.394 . S
C1654 C1655 1.369 . S
C1654 C1658 1.531 . S
C1655 C1654 1.369 . S
C1655 C1656 1.410 . S
C1655 C1663 1.503 . S
C1656 C1655 1.410 . S
C1656 C1657 1.392 . S
C1656 C1659 1.511 . S
C1657 C1653 1.376 . S
C1657 C1656 1.392 . S
C1657 H1669 0.929 . S
C1658 C1654 1.531 . S
C1658 H1670 0.960 . S
C1658 H1671 0.962 . S
C1658 H1672 0.960 . S
C1659 C1656 1.511 . S
C1659 H1673 0.961 . S
C1659 H1674 0.961 . S
C1659 H1675 0.961 . S
C1660 C1661 1.370 . S
C1660 C1662 1.363 . S
C1660 H1676 0.931 . S
C1661 C1660 1.370 . S
C1661 C1665 1.408 . S
C1662 C1660 1.363 . S
C1662 C1663 1.370 . S
C1662 C1666 1.524 . S
C1663 C1655 1.503 . S
C1663 C1662 1.370 . S
C1663 C1664 1.403 . S
C1664 C1663 1.403 . S
C1664 C1665 1.404 . S
C1664 C1667 1.539 . S
C1665 C1661 1.408 . S
C1665 C1664 1.404 . S
C1665 H1677 0.930 . S
C1666 C1662 1.524 . S
C1666 H1678 0.956 . S
C1666 H1679 0.961 . S
C1666 H1680 0.961 . S
C1667 C1664 1.539 . S
C1667 H1681 0.958 . S
C1667 H1682 0.961 . S
C1667 H1683 0.960 . S
H1668 C1652 0.931 . S
H1669 C1657 0.929 . S
H1670 C1658 0.960 . S
H1671 C1658 0.962 . S
H1672 C1658 0.960 . S
H1673 C1659 0.961 . S
H1674 C1659 0.961 . S
H1675 C1659 0.961 . S
H1676 C1660 0.931 . S
H1677 C1665 0.930 . S
H1678 C1666 0.956 . S
H1679 C1666 0.961 . S
H1680 C1666 0.961 . S
H1681 C1667 0.958 . S
H1682 C1667 0.961 . S
H1683 C1667 0.960 . S
C1684 C1685 1.391 . S
C1684 C1686 1.394 . S
C1684 H1700 0.931 . S
C1685 C1684 1.391 . S
C1685 C1689 1.376 . S
C1686 C1684 1.394 . S
C1686 C1687 1.369 . S
C1686 C1690 1.531 . S
C1687 C1686 1.369 . S
C1687 C1688 1.410 . S
C1687 C1695 1.503 . S
C1688 C1687 1.410 . S
C1688 C1689 1.392 . S
C1688 C1691 1.511 . S
C1689 C1685 1.376 . S
C1689 C1688 1.392 . S
C1689 H1701 0.929 . S
C1690 C1686 1.531 . S
C1690 H1702 0.960 . S
C1690 H1703 0.962 . S
C1690 H1704 0.960 . S
C1691 C1688 1.511 . S
C1691 H1705 0.961 . S
C1691 H1706 0.961 . S
C1691 H1707 0.961 . S
C1692 C1693 1.370 . S
C1692 C1694 1.363 . S
C1692 H1708 0.931 . S
C1693 C1692 1.370 . S
C1693 C1697 1.408 . S
C1694 C1692 1.363 . S
C1694 C1695 1.370 . S
C1694 C1698 1.524 . S
C1695 C1687 1.503 . S
C1695 C1694 1.370 . S
C1695 C1696 1.403 . S
C1696 C1695 1.403 . S
C1696 C1697 1.404 . S
C1696 C1699 1.539 . S
C1697 C1693 1.408 . S
C1697 C1696 1.404 . S
C1697 H1709 0.930 . S
C1698 C1694 1.524 . S
C1698 H1710 0.956 . S
C1698 H1711 0.961 . S
C1698 H1712 0.961 . S
C1699 C1696 1.539 . S
C1699 H1713 0.958 . S
C1699 H1714 0.961 . S
C1699 H1715 0.960 . S
H1700 C1684 0.931 . S
H1701 C1689 0.929 . S
H1702 C1690 0.960 . S
H1703 C1690 0.962 . S
H1704 C1690 0.960 . S
H1705 C1691 0.961 . S
H1706 C1691 0.961 . S
H1707 C1691 0.961 . S
H1708 C1692 0.931 . S
H1709 C1697 0.930 . S
H1710 C1698 0.956 . S
H1711 C1698 0.961 . S
H1712 C1698 0.961 . S
H1713 C1699 0.958 . S
H1714 C1699 0.961 . S
H1715 C1699 0.960 . S
C1716 C1717 1.391 . S
C1716 C1718 1.394 . S
C1716 H1732 0.931 . S
C1717 C1716 1.391 . S
C1717 C1721 1.376 . S
C1718 C1716 1.394 . S
C1718 C1719 1.369 . S
C1718 C1722 1.531 . S
C1719 C1718 1.369 . S
C1719 C1720 1.410 . S
C1719 C1727 1.503 . S
C1720 C1719 1.410 . S
C1720 C1721 1.392 . S
C1720 C1723 1.511 . S
C1721 C1717 1.376 . S
C1721 C1720 1.392 . S
C1721 H1733 0.929 . S
C1722 C1718 1.531 . S
C1722 H1734 0.960 . S
C1722 H1735 0.962 . S
C1722 H1736 0.960 . S
C1723 C1720 1.511 . S
C1723 H1737 0.961 . S
C1723 H1738 0.961 . S
C1723 H1739 0.961 . S
C1724 C1725 1.370 . S
C1724 C1726 1.363 . S
C1724 H1740 0.931 . S
C1725 C1724 1.370 . S
C1725 C1729 1.408 . S
C1726 C1724 1.363 . S
C1726 C1727 1.370 . S
C1726 C1730 1.524 . S
C1727 C1719 1.503 . S
C1727 C1726 1.370 . S
C1727 C1728 1.403 . S
C1728 C1727 1.403 . S
C1728 C1729 1.404 . S
C1728 C1731 1.539 . S
C1729 C1725 1.408 . S
C1729 C1728 1.404 . S
C1729 H1741 0.930 . S
C1730 C1726 1.524 . S
C1730 H1742 0.956 . S
C1730 H1743 0.961 . S
C1730 H1744 0.961 . S
C1731 C1728 1.539 . S
C1731 H1745 0.958 . S
C1731 H1746 0.961 . S
C1731 H1747 0.960 . S
H1732 C1716 0.931 . S
H1733 C1721 0.929 . S
H1734 C1722 0.960 . S
H1735 C1722 0.962 . S
H1736 C1722 0.960 . S
H1737 C1723 0.961 . S
H1738 C1723 0.961 . S
H1739 C1723 0.961 . S
H1740 C1724 0.931 . S
H1741 C1729 0.930 . S
H1742 C1730 0.956 . S
H1743 C1730 0.961 . S
H1744 C1730 0.961 . S
H1745 C1731 0.958 . S
H1746 C1731 0.961 . S
H1747 C1731 0.960 . S
C1748 C1749 1.391 . S
C1748 C1750 1.394 . S
C1748 H1764 0.931 . S
C1749 C1748 1.391 . S
C1749 C1753 1.376 . S
C1750 C1748 1.394 . S
C1750 C1751 1.369 . S
C1750 C1754 1.531 . S
C1751 C1750 1.369 . S
C1751 C1752 1.410 . S
C1751 C1759 1.503 . S
C1752 C1751 1.410 . S
C1752 C1753 1.392 . S
C1752 C1755 1.511 . S
C1753 C1749 1.376 . S
C1753 C1752 1.392 . S
C1753 H1765 0.929 . S
C1754 C1750 1.531 . S
C1754 H1766 0.960 . S
C1754 H1767 0.962 . S
C1754 H1768 0.960 . S
C1755 C1752 1.511 . S
C1755 H1769 0.961 . S
C1755 H1770 0.961 . S
C1755 H1771 0.961 . S
C1756 C1757 1.370 . S
C1756 C1758 1.363 . S
C1756 H1772 0.931 . S
C1757 C1756 1.370 . S
C1757 C1761 1.408 . S
C1758 C1756 1.363 . S
C1758 C1759 1.370 . S
C1758 C1762 1.524 . S
C1759 C1751 1.503 . S
C1759 C1758 1.370 . S
C1759 C1760 1.403 . S
C1760 C1759 1.403 . S
C1760 C1761 1.404 . S
C1760 C1763 1.539 . S
C1761 C1757 1.408 . S
C1761 C1760 1.404 . S
C1761 H1773 0.930 . S
C1762 C1758 1.524 . S
C1762 H1774 0.956 . S
C1762 H1775 0.961 . S
C1762 H1776 0.961 . S
C1763 C1760 1.539 . S
C1763 H1777 0.958 . S
C1763 H1778 0.961 . S
C1763 H1779 0.960 . S
H1764 C1748 0.931 . S
H1765 C1753 0.929 . S
H1766 C1754 0.960 . S
H1767 C1754 0.962 . S
H1768 C1754 0.960 . S
H1769 C1755 0.961 . S
H1770 C1755 0.961 . S
H1771 C1755 0.961 . S
H1772 C1756 0.931 . S
H1773 C1761 0.930 . S
H1774 C1762 0.956 . S
H1775 C1762 0.961 . S
H1776 C1762 0.961 . S
H1777 C1763 0.958 . S
H1778 C1763 0.961 . S
H1779 C1763 0.960 . S
C1780 C1781 1.391 . S
C1780 C1782 1.394 . S
C1780 H1796 0.931 . S
C1781 C1780 1.391 . S
C1781 C1785 1.376 . S
C1782 C1780 1.394 . S
C1782 C1783 1.369 . S
C1782 C1786 1.531 . S
C1783 C1782 1.369 . S
C1783 C1784 1.410 . S
C1783 C1791 1.503 . S
C1784 C1783 1.410 . S
C1784 C1785 1.392 . S
C1784 C1787 1.511 . S
C1785 C1781 1.376 . S
C1785 C1784 1.392 . S
C1785 H1797 0.929 . S
C1786 C1782 1.531 . S
C1786 H1798 0.960 . S
C1786 H1799 0.962 . S
C1786 H1800 0.960 . S
C1787 C1784 1.511 . S
C1787 H1801 0.961 . S
C1787 H1802 0.961 . S
C1787 H1803 0.961 . S
C1788 C1789 1.370 . S
C1788 C1790 1.363 . S
C1788 H1804 0.931 . S
C1789 C1788 1.370 . S
C1789 C1793 1.408 . S
C1790 C1788 1.363 . S
C1790 C1791 1.370 . S
C1790 C1794 1.524 . S
C1791 C1783 1.503 . S
C1791 C1790 1.370 . S
C1791 C1792 1.403 . S
C1792 C1791 1.403 . S
C1792 C1793 1.404 . S
C1792 C1795 1.539 . S
C1793 C1789 1.408 . S
C1793 C1792 1.404 . S
C1793 H1805 0.930 . S
C1794 C1790 1.524 . S
C1794 H1806 0.956 . S
C1794 H1807 0.961 . S
C1794 H1808 0.961 . S
C1795 C1792 1.539 . S
C1795 H1809 0.958 . S
C1795 H1810 0.961 . S
C1795 H1811 0.960 . S
H1796 C1780 0.931 . S
H1797 C1785 0.929 . S
H1798 C1786 0.960 . S
H1799 C1786 0.962 . S
H1800 C1786 0.960 . S
H1801 C1787 0.961 . S
H1802 C1787 0.961 . S
H1803 C1787 0.961 . S
H1804 C1788 0.931 . S
H1805 C1793 0.930 . S
H1806 C1794 0.956 . S
H1807 C1794 0.961 . S
H1808 C1794 0.961 . S
H1809 C1795 0.958 . S
H1810 C1795 0.961 . S
H1811 C1795 0.960 . S
C1812 C1813 1.391 . S
C1812 C1814 1.394 . S
C1812 H1828 0.931 . S
C1813 C1812 1.391 . S
C1813 C1817 1.376 . S
C1814 C1812 1.394 . S
C1814 C1815 1.369 . S
C1814 C1818 1.531 . S
C1815 C1814 1.369 . S
C1815 C1816 1.410 . S
C1815 C1823 1.503 . S
C1816 C1815 1.410 . S
C1816 C1817 1.392 . S
C1816 C1819 1.511 . S
C1817 C1813 1.376 . S
C1817 C1816 1.392 . S
C1817 H1829 0.929 . S
C1818 C1814 1.531 . S
C1818 H1830 0.960 . S
C1818 H1831 0.962 . S
C1818 H1832 0.960 . S
C1819 C1816 1.511 . S
C1819 H1833 0.961 . S
C1819 H1834 0.961 . S
C1819 H1835 0.961 . S
C1820 C1821 1.370 . S
C1820 C1822 1.363 . S
C1820 H1836 0.931 . S
C1821 C1820 1.370 . S
C1821 C1825 1.408 . S
C1822 C1820 1.363 . S
C1822 C1823 1.370 . S
C1822 C1826 1.524 . S
C1823 C1815 1.503 . S
C1823 C1822 1.370 . S
C1823 C1824 1.403 . S
C1824 C1823 1.403 . S
C1824 C1825 1.404 . S
C1824 C1827 1.539 . S
C1825 C1821 1.408 . S
C1825 C1824 1.404 . S
C1825 H1837 0.930 . S
C1826 C1822 1.524 . S
C1826 H1838 0.956 . S
C1826 H1839 0.961 . S
C1826 H1840 0.961 . S
C1827 C1824 1.539 . S
C1827 H1841 0.958 . S
C1827 H1842 0.961 . S
C1827 H1843 0.960 . S
H1828 C1812 0.931 . S
H1829 C1817 0.929 . S
H1830 C1818 0.960 . S
H1831 C1818 0.962 . S
H1832 C1818 0.960 . S
H1833 C1819 0.961 . S
H1834 C1819 0.961 . S
H1835 C1819 0.961 . S
H1836 C1820 0.931 . S
H1837 C1825 0.930 . S
H1838 C1826 0.956 . S
H1839 C1826 0.961 . S
H1840 C1826 0.961 . S
H1841 C1827 0.958 . S
H1842 C1827 0.961 . S
H1843 C1827 0.960 . S
C1844 C1845 1.391 . S
C1844 C1846 1.394 . S
C1844 H1860 0.931 . S
C1845 C1844 1.391 . S
C1845 C1849 1.376 . S
C1846 C1844 1.394 . S
C1846 C1847 1.369 . S
C1846 C1850 1.531 . S
C1847 C1846 1.369 . S
C1847 C1848 1.410 . S
C1847 C1855 1.503 . S
C1848 C1847 1.410 . S
C1848 C1849 1.392 . S
C1848 C1851 1.511 . S
C1849 C1845 1.376 . S
C1849 C1848 1.392 . S
C1849 H1861 0.929 . S
C1850 C1846 1.531 . S
C1850 H1862 0.960 . S
C1850 H1863 0.962 . S
C1850 H1864 0.960 . S
C1851 C1848 1.511 . S
C1851 H1865 0.961 . S
C1851 H1866 0.961 . S
C1851 H1867 0.961 . S
C1852 C1853 1.370 . S
C1852 C1854 1.363 . S
C1852 H1868 0.931 . S
C1853 C1852 1.370 . S
C1853 C1857 1.408 . S
C1854 C1852 1.363 . S
C1854 C1855 1.370 . S
C1854 C1858 1.524 . S
C1855 C1847 1.503 . S
C1855 C1854 1.370 . S
C1855 C1856 1.403 . S
C1856 C1855 1.403 . S
C1856 C1857 1.404 . S
C1856 C1859 1.539 . S
C1857 C1853 1.408 . S
C1857 C1856 1.404 . S
C1857 H1869 0.930 . S
C1858 C1854 1.524 . S
C1858 H1870 0.956 . S
C1858 H1871 0.961 . S
C1858 H1872 0.961 . S
C1859 C1856 1.539 . S
C1859 H1873 0.958 . S
C1859 H1874 0.961 . S
C1859 H1875 0.960 . S
H1860 C1844 0.931 . S
H1861 C1849 0.929 . S
H1862 C1850 0.960 . S
H1863 C1850 0.962 . S
H1864 C1850 0.960 . S
H1865 C1851 0.961 . S
H1866 C1851 0.961 . S
H1867 C1851 0.961 . S
H1868 C1852 0.931 . S
H1869 C1857 0.930 . S
H1870 C1858 0.956 . S
H1871 C1858 0.961 . S
H1872 C1858 0.961 . S
H1873 C1859 0.958 . S
H1874 C1859 0.961 . S
H1875 C1859 0.960 . S
C1876 C1877 1.391 . S
C1876 C1878 1.394 . S
C1876 H1892 0.931 . S
C1877 C1876 1.391 . S
C1877 C1881 1.376 . S
C1878 C1876 1.394 . S
C1878 C1879 1.369 . S
C1878 C1882 1.531 . S
C1879 C1878 1.369 . S
C1879 C1880 1.410 . S
C1879 C1887 1.503 . S
C1880 C1879 1.410 . S
C1880 C1881 1.392 . S
C1880 C1883 1.511 . S
C1881 C1877 1.376 . S
C1881 C1880 1.392 . S
C1881 H1893 0.929 . S
C1882 C1878 1.531 . S
C1882 H1894 0.960 . S
C1882 H1895 0.962 . S
C1882 H1896 0.960 . S
C1883 C1880 1.511 . S
C1883 H1897 0.961 . S
C1883 H1898 0.961 . S
C1883 H1899 0.961 . S
C1884 C1885 1.370 . S
C1884 C1886 1.363 . S
C1884 H1900 0.931 . S
C1885 C1884 1.370 . S
C1885 C1889 1.408 . S
C1886 C1884 1.363 . S
C1886 C1887 1.370 . S
C1886 C1890 1.524 . S
C1887 C1879 1.503 . S
C1887 C1886 1.370 . S
C1887 C1888 1.403 . S
C1888 C1887 1.403 . S
C1888 C1889 1.404 . S
C1888 C1891 1.539 . S
C1889 C1885 1.408 . S
C1889 C1888 1.404 . S
C1889 H1901 0.930 . S
C1890 C1886 1.524 . S
C1890 H1902 0.956 . S
C1890 H1903 0.961 . S
C1890 H1904 0.961 . S
C1891 C1888 1.539 . S
C1891 H1905 0.958 . S
C1891 H1906 0.961 . S
C1891 H1907 0.960 . S
H1892 C1876 0.931 . S
H1893 C1881 0.929 . S
H1894 C1882 0.960 . S
H1895 C1882 0.962 . S
H1896 C1882 0.960 . S
H1897 C1883 0.961 . S
H1898 C1883 0.961 . S
H1899 C1883 0.961 . S
H1900 C1884 0.931 . S
H1901 C1889 0.930 . S
H1902 C1890 0.956 . S
H1903 C1890 0.961 . S
H1904 C1890 0.961 . S
H1905 C1891 0.958 . S
H1906 C1891 0.961 . S
H1907 C1891 0.960 . S
C1908 C1909 1.391 . S
C1908 C1910 1.394 . S
C1908 H1924 0.931 . S
C1909 C1908 1.391 . S
C1909 C1913 1.376 . S
C1910 C1908 1.394 . S
C1910 C1911 1.369 . S
C1910 C1914 1.531 . S
C1911 C1910 1.369 . S
C1911 C1912 1.410 . S
C1911 C1919 1.503 . S
C1912 C1911 1.410 . S
C1912 C1913 1.392 . S
C1912 C1915 1.511 . S
C1913 C1909 1.376 . S
C1913 C1912 1.392 . S
C1913 H1925 0.929 . S
C1914 C1910 1.531 . S
C1914 H1926 0.960 . S
C1914 H1927 0.962 . S
C1914 H1928 0.960 . S
C1915 C1912 1.511 . S
C1915 H1929 0.961 . S
C1915 H1930 0.961 . S
C1915 H1931 0.961 . S
C1916 C1917 1.370 . S
C1916 C1918 1.363 . S
C1916 H1932 0.931 . S
C1917 C1916 1.370 . S
C1917 C1921 1.408 . S
C1918 C1916 1.363 . S
C1918 C1919 1.370 . S
C1918 C1922 1.524 . S
C1919 C1911 1.503 . S
C1919 C1918 1.370 . S
C1919 C1920 1.403 . S
C1920 C1919 1.403 . S
C1920 C1921 1.404 . S
C1920 C1923 1.539 . S
C1921 C1917 1.408 . S
C1921 C1920 1.404 . S
C1921 H1933 0.930 . S
C1922 C1918 1.524 . S
C1922 H1934 0.956 . S
C1922 H1935 0.961 . S
C1922 H1936 0.961 . S
C1923 C1920 1.539 . S
C1923 H1937 0.958 . S
C1923 H1938 0.961 . S
C1923 H1939 0.960 . S
H1924 C1908 0.931 . S
H1925 C1913 0.929 . S
H1926 C1914 0.960 . S
H1927 C1914 0.962 . S
H1928 C1914 0.960 . S
H1929 C1915 0.961 . S
H1930 C1915 0.961 . S
H1931 C1915 0.961 . S
H1932 C1916 0.931 . S
H1933 C1921 0.930 . S
H1934 C1922 0.956 . S
H1935 C1922 0.961 . S
H1936 C1922 0.961 . S
H1937 C1923 0.958 . S
H1938 C1923 0.961 . S
H1939 C1923 0.960 . S
C1940 C1941 1.391 . S
C1940 C1942 1.394 . S
C1940 H1956 0.931 . S
C1941 C1940 1.391 . S
C1941 C1945 1.376 . S
C1942 C1940 1.394 . S
C1942 C1943 1.369 . S
C1942 C1946 1.531 . S
C1943 C1942 1.369 . S
C1943 C1944 1.410 . S
C1943 C1951 1.503 . S
C1944 C1943 1.410 . S
C1944 C1945 1.392 . S
C1944 C1947 1.511 . S
C1945 C1941 1.376 . S
C1945 C1944 1.392 . S
C1945 H1957 0.929 . S
C1946 C1942 1.531 . S
C1946 H1958 0.960 . S
C1946 H1959 0.962 . S
C1946 H1960 0.960 . S
C1947 C1944 1.511 . S
C1947 H1961 0.961 . S
C1947 H1962 0.961 . S
C1947 H1963 0.961 . S
C1948 C1949 1.370 . S
C1948 C1950 1.363 . S
C1948 H1964 0.931 . S
C1949 C1948 1.370 . S
C1949 C1953 1.408 . S
C1950 C1948 1.363 . S
C1950 C1951 1.370 . S
C1950 C1954 1.524 . S
C1951 C1943 1.503 . S
C1951 C1950 1.370 . S
C1951 C1952 1.403 . S
C1952 C1951 1.403 . S
C1952 C1953 1.404 . S
C1952 C1955 1.539 . S
C1953 C1949 1.408 . S
C1953 C1952 1.404 . S
C1953 H1965 0.930 . S
C1954 C1950 1.524 . S
C1954 H1966 0.956 . S
C1954 H1967 0.961 . S
C1954 H1968 0.961 . S
C1955 C1952 1.539 . S
C1955 H1969 0.958 . S
C1955 H1970 0.961 . S
C1955 H1971 0.960 . S
H1956 C1940 0.931 . S
H1957 C1945 0.929 . S
H1958 C1946 0.960 . S
H1959 C1946 0.962 . S
H1960 C1946 0.960 . S
H1961 C1947 0.961 . S
H1962 C1947 0.961 . S
H1963 C1947 0.961 . S
H1964 C1948 0.931 . S
H1965 C1953 0.930 . S
H1966 C1954 0.956 . S
H1967 C1954 0.961 . S
H1968 C1954 0.961 . S
H1969 C1955 0.958 . S
H1970 C1955 0.961 . S
H1971 C1955 0.960 . S
C1972 C1973 1.391 . S
C1972 C1974 1.394 . S
C1972 H1988 0.931 . S
C1973 C1972 1.391 . S
C1973 C1977 1.376 . S
C1974 C1972 1.394 . S
C1974 C1975 1.369 . S
C1974 C1978 1.531 . S
C1975 C1974 1.369 . S
C1975 C1976 1.410 . S
C1975 C1983 1.503 . S
C1976 C1975 1.410 . S
C1976 C1977 1.392 . S
C1976 C1979 1.511 . S
C1977 C1973 1.376 . S
C1977 C1976 1.392 . S
C1977 H1989 0.929 . S
C1978 C1974 1.531 . S
C1978 H1990 0.960 . S
C1978 H1991 0.962 . S
C1978 H1992 0.960 . S
C1979 C1976 1.511 . S
C1979 H1993 0.961 . S
C1979 H1994 0.961 . S
C1979 H1995 0.961 . S
C1980 C1981 1.370 . S
C1980 C1982 1.363 . S
C1980 H1996 0.931 . S
C1981 C1980 1.370 . S
C1981 C1985 1.408 . S
C1982 C1980 1.363 . S
C1982 C1983 1.370 . S
C1982 C1986 1.524 . S
C1983 C1975 1.503 . S
C1983 C1982 1.370 . S
C1983 C1984 1.403 . S
C1984 C1983 1.403 . S
C1984 C1985 1.404 . S
C1984 C1987 1.539 . S
C1985 C1981 1.408 . S
C1985 C1984 1.404 . S
C1985 H1997 0.930 . S
C1986 C1982 1.524 . S
C1986 H1998 0.956 . S
C1986 H1999 0.961 . S
C1986 H2000 0.961 . S
C1987 C1984 1.539 . S
C1987 H2001 0.958 . S
C1987 H2002 0.961 . S
C1987 H2003 0.960 . S
H1988 C1972 0.931 . S
H1989 C1977 0.929 . S
H1990 C1978 0.960 . S
H1991 C1978 0.962 . S
H1992 C1978 0.960 . S
H1993 C1979 0.961 . S
H1994 C1979 0.961 . S
H1995 C1979 0.961 . S
H1996 C1980 0.931 . S
H1997 C1985 0.930 . S
H1998 C1986 0.956 . S
H1999 C1986 0.961 . S
H2000 C1986 0.961 . S
H2001 C1987 0.958 . S
H2002 C1987 0.961 . S
H2003 C1987 0.960 . S
C2004 C2005 1.391 . S
C2004 C2006 1.394 . S
C2004 H2020 0.931 . S
C2005 C2004 1.391 . S
C2005 C2009 1.376 . S
C2006 C2004 1.394 . S
C2006 C2007 1.369 . S
C2006 C2010 1.531 . S
C2007 C2006 1.369 . S
C2007 C2008 1.410 . S
C2007 C2015 1.503 . S
C2008 C2007 1.410 . S
C2008 C2009 1.392 . S
C2008 C2011 1.511 . S
C2009 C2005 1.376 . S
C2009 C2008 1.392 . S
C2009 H2021 0.929 . S
C2010 C2006 1.531 . S
C2010 H2022 0.960 . S
C2010 H2023 0.962 . S
C2010 H2024 0.960 . S
C2011 C2008 1.511 . S
C2011 H2025 0.961 . S
C2011 H2026 0.961 . S
C2011 H2027 0.961 . S
C2012 C2013 1.370 . S
C2012 C2014 1.363 . S
C2012 H2028 0.931 . S
C2013 C2012 1.370 . S
C2013 C2017 1.408 . S
C2014 C2012 1.363 . S
C2014 C2015 1.370 . S
C2014 C2018 1.524 . S
C2015 C2007 1.503 . S
C2015 C2014 1.370 . S
C2015 C2016 1.403 . S
C2016 C2015 1.403 . S
C2016 C2017 1.404 . S
C2016 C2019 1.539 . S
C2017 C2013 1.408 . S
C2017 C2016 1.404 . S
C2017 H2029 0.930 . S
C2018 C2014 1.524 . S
C2018 H2030 0.956 . S
C2018 H2031 0.961 . S
C2018 H2032 0.961 . S
C2019 C2016 1.539 . S
C2019 H2033 0.958 . S
C2019 H2034 0.961 . S
C2019 H2035 0.960 . S
H2020 C2004 0.931 . S
H2021 C2009 0.929 . S
H2022 C2010 0.960 . S
H2023 C2010 0.962 . S
H2024 C2010 0.960 . S
H2025 C2011 0.961 . S
H2026 C2011 0.961 . S
H2027 C2011 0.961 . S
H2028 C2012 0.931 . S
H2029 C2017 0.930 . S
H2030 C2018 0.956 . S
H2031 C2018 0.961 . S
H2032 C2018 0.961 . S
H2033 C2019 0.958 . S
H2034 C2019 0.961 . S
H2035 C2019 0.960 . S
C2036 C2037 1.391 . S
C2036 C2038 1.394 . S
C2036 H2052 0.931 . S
C2037 C2036 1.391 . S
C2037 C2041 1.376 . S
C2038 C2036 1.394 . S
C2038 C2039 1.369 . S
C2038 C2042 1.531 . S
C2039 C2038 1.369 . S
C2039 C2040 1.410 . S
C2039 C2047 1.503 . S
C2040 C2039 1.410 . S
C2040 C2041 1.392 . S
C2040 C2043 1.511 . S
C2041 C2037 1.376 . S
C2041 C2040 1.392 . S
C2041 H2053 0.929 . S
C2042 C2038 1.531 . S
C2042 H2054 0.960 . S
C2042 H2055 0.962 . S
C2042 H2056 0.960 . S
C2043 C2040 1.511 . S
C2043 H2057 0.961 . S
C2043 H2058 0.961 . S
C2043 H2059 0.961 . S
C2044 C2045 1.370 . S
C2044 C2046 1.363 . S
C2044 H2060 0.931 . S
C2045 C2044 1.370 . S
C2045 C2049 1.408 . S
C2046 C2044 1.363 . S
C2046 C2047 1.370 . S
C2046 C2050 1.524 . S
C2047 C2039 1.503 . S
C2047 C2046 1.370 . S
C2047 C2048 1.403 . S
C2048 C2047 1.403 . S
C2048 C2049 1.404 . S
C2048 C2051 1.539 . S
C2049 C2045 1.408 . S
C2049 C2048 1.404 . S
C2049 H2061 0.930 . S
C2050 C2046 1.524 . S
C2050 H2062 0.956 . S
C2050 H2063 0.961 . S
C2050 H2064 0.961 . S
C2051 C2048 1.539 . S
C2051 H2065 0.958 . S
C2051 H2066 0.961 . S
C2051 H2067 0.960 . S
H2052 C2036 0.931 . S
H2053 C2041 0.929 . S
H2054 C2042 0.960 . S
H2055 C2042 0.962 . S
H2056 C2042 0.960 . S
H2057 C2043 0.961 . S
H2058 C2043 0.961 . S
H2059 C2043 0.961 . S
H2060 C2044 0.931 . S
H2061 C2049 0.930 . S
H2062 C2050 0.956 . S
H2063 C2050 0.961 . S
H2064 C2050 0.961 . S
H2065 C2051 0.958 . S
H2066 C2051 0.961 . S
H2067 C2051 0.960 . S
C2068 C2069 1.391 . S
C2068 C2070 1.394 . S
C2068 H2084 0.931 . S
C2069 C2068 1.391 . S
C2069 C2073 1.376 . S
C2070 C2068 1.394 . S
C2070 C2071 1.369 . S
C2070 C2074 1.531 . S
C2071 C2070 1.369 . S
C2071 C2072 1.410 . S
C2071 C2079 1.503 . S
C2072 C2071 1.410 . S
C2072 C2073 1.392 . S
C2072 C2075 1.511 . S
C2073 C2069 1.376 . S
C2073 C2072 1.392 . S
C2073 H2085 0.929 . S
C2074 C2070 1.531 . S
C2074 H2086 0.960 . S
C2074 H2087 0.962 . S
C2074 H2088 0.960 . S
C2075 C2072 1.511 . S
C2075 H2089 0.961 . S
C2075 H2090 0.961 . S
C2075 H2091 0.961 . S
C2076 C2077 1.370 . S
C2076 C2078 1.363 . S
C2076 H2092 0.931 . S
C2077 C2076 1.370 . S
C2077 C2081 1.408 . S
C2078 C2076 1.363 . S
C2078 C2079 1.370 . S
C2078 C2082 1.524 . S
C2079 C2071 1.503 . S
C2079 C2078 1.370 . S
C2079 C2080 1.403 . S
C2080 C2079 1.403 . S
C2080 C2081 1.404 . S
C2080 C2083 1.539 . S
C2081 C2077 1.408 . S
C2081 C2080 1.404 . S
C2081 H2093 0.930 . S
C2082 C2078 1.524 . S
C2082 H2094 0.956 . S
C2082 H2095 0.961 . S
C2082 H2096 0.961 . S
C2083 C2080 1.539 . S
C2083 H2097 0.958 . S
C2083 H2098 0.961 . S
C2083 H2099 0.960 . S
H2084 C2068 0.931 . S
H2085 C2073 0.929 . S
H2086 C2074 0.960 . S
H2087 C2074 0.962 . S
H2088 C2074 0.960 . S
H2089 C2075 0.961 . S
H2090 C2075 0.961 . S
H2091 C2075 0.961 . S
H2092 C2076 0.931 . S
H2093 C2081 0.930 . S
H2094 C2082 0.956 . S
H2095 C2082 0.961 . S
H2096 C2082 0.961 . S
H2097 C2083 0.958 . S
H2098 C2083 0.961 . S
H2099 C2083 0.960 . S
C2100 C2101 1.391 . S
C2100 C2102 1.394 . S
C2100 H2116 0.931 . S
C2101 C2100 1.391 . S
C2101 C2105 1.376 . S
C2102 C2100 1.394 . S
C2102 C2103 1.369 . S
C2102 C2106 1.531 . S
C2103 C2102 1.369 . S
C2103 C2104 1.410 . S
C2103 C2111 1.503 . S
C2104 C2103 1.410 . S
C2104 C2105 1.392 . S
C2104 C2107 1.511 . S
C2105 C2101 1.376 . S
C2105 C2104 1.392 . S
C2105 H2117 0.929 . S
C2106 C2102 1.531 . S
C2106 H2118 0.960 . S
C2106 H2119 0.962 . S
C2106 H2120 0.960 . S
C2107 C2104 1.511 . S
C2107 H2121 0.961 . S
C2107 H2122 0.961 . S
C2107 H2123 0.961 . S
C2108 C2109 1.370 . S
C2108 C2110 1.363 . S
C2108 H2124 0.931 . S
C2109 C2108 1.370 . S
C2109 C2113 1.408 . S
C2110 C2108 1.363 . S
C2110 C2111 1.370 . S
C2110 C2114 1.524 . S
C2111 C2103 1.503 . S
C2111 C2110 1.370 . S
C2111 C2112 1.403 . S
C2112 C2111 1.403 . S
C2112 C2113 1.404 . S
C2112 C2115 1.539 . S
C2113 C2109 1.408 . S
C2113 C2112 1.404 . S
C2113 H2125 0.930 . S
C2114 C2110 1.524 . S
C2114 H2126 0.956 . S
C2114 H2127 0.961 . S
C2114 H2128 0.961 . S
C2115 C2112 1.539 . S
C2115 H2129 0.958 . S
C2115 H2130 0.961 . S
C2115 H2131 0.960 . S
H2116 C2100 0.931 . S
H2117 C2105 0.929 . S
H2118 C2106 0.960 . S
H2119 C2106 0.962 . S
H2120 C2106 0.960 . S
H2121 C2107 0.961 . S
H2122 C2107 0.961 . S
H2123 C2107 0.961 . S
H2124 C2108 0.931 . S
H2125 C2113 0.930 . S
H2126 C2114 0.956 . S
H2127 C2114 0.961 . S
H2128 C2114 0.961 . S
H2129 C2115 0.958 . S
H2130 C2115 0.961 . S
H2131 C2115 0.960 . S
C605 C282 1.335 . S
C597 N2 1.315 . S
C637 C325 2.628 . S
C629 C7 2.644 . S
C669 C371 1.742 . S
C661 N12 1.564 . S
C693 C16 1.843 . S
C701 C414 1.882 . S
C733 C454 2.725 . S
C725 C30 2.747 1_565 S
C765 C482 1.483 . S
C757 N35 1.478 . S
C789 C39 2.053 . S
C797 C525 2.022 . S
C829 C571 1.192 . S
C821 N25 1.163 1_565 S
C861 C286 1.232 . S
C853 N58 1.172 . S
C885 N81 1.978 . S
C893 C335 1.954 . S
C925 C365 1.410 . S
C917 N104 1.451 . S
C949 N127 1.212 . S
C957 C402 1.229 . S
C989 C442 0.917 . S
C981 N48 0.933 . S
C1021 C486 1.570 . S
C1013 N71 1.486 1_556 S
C1045 N94 1.329 . S
C1053 C535 1.288 . S
C1085 C565 1.926 . S
C1077 N117 1.950 . S
C1109 C85 2.553 . S
C1117 C294 2.462 . S
C1141 C122 2.453 . S
C1149 C446 2.404 . S
C1173 C53 2.089 . S
C1181 C494 2.012 . S
C1213 C531 1.388 . S
C1205 C76 1.430 1_655 S
C1245 C575 1.863 . S
C1237 C99 1.871 . S
C1277 C375 2.011 . S
C1269 C131 1.971 . S
C1309 C406 1.695 . S
C1301 C62 1.737 1_565 S
C1333 C108 1.138 . S
C1341 C331 1.125 . S
C1373 C562 1.399 . S
C1365 N140 1.370 . S
C1397 C145 2.636 . S
C1405 C445 2.610 . S
C1437 C491 1.614 . S
C1429 N150 1.462 . S
C1461 C154 1.868 . S
C1469 C534 1.887 . S
C1501 C334 2.731 . S
C1493 C168 2.757 . S
C1525 N173 1.336 . S
C1533 C362 1.361 . S
C1565 C405 2.011 . S
C1557 C177 2.086 . S
C1597 C291 1.258 . S
C1589 N163 1.234 . S
C1629 C566 1.690 . S
C1621 C200 1.670 . S
C1661 C455 2.226 . S
C1653 N219 2.240 . S
C1685 N242 1.681 . S
C1693 C485 1.665 . S
C1725 C522 1.438 . S
C1717 C269 1.501 . S
C1757 C322 1.180 . S
C1749 C191 1.204 . S
C1781 N209 1.767 . S
C1789 C366 1.824 . S
C1813 N232 1.642 . S
C1821 C415 1.600 . S
C1845 C260 2.496 . S
C1853 C285 2.447 . S
C1877 C223 2.248 . S
C1885 C574 2.178 . S
C1909 N255 1.995 . S
C1917 C326 1.981 . S
C1941 N186 1.624 . S
C1949 C374 1.541 . S
C1981 C411 1.104 . S
C1973 C214 1.140 . S
C2013 C295 1.553 . S
C2005 C237 1.529 . S
C2045 C495 1.587 . S
C2037 N265 1.508 . S
C2077 C526 1.320 . S
C2069 N196 1.332 . S
C2109 C451 0.850 . S
C2101 C246 0.828 . S
