# Generated by pormake.
# Topology pyr, (3,6)-cn, num edge types: 1
# Building blocks:
#     Node 0, Type 0, BuildingBlock: WUSLED_clean_sbu_0, # of connection points: 3
#     Node 1, Type 0, BuildingBlock: WUSLED_clean_sbu_0, # of connection points: 3
#     Node 2, Type 0, BuildingBlock: WUSLED_clean_sbu_0, # of connection points: 3
#     Node 3, Type 0, BuildingBlock: WUSLED_clean_sbu_0, # of connection points: 3
#     Node 4, Type 0, BuildingBlock: WUSLED_clean_sbu_0, # of connection points: 3
#     Node 5, Type 0, BuildingBlock: WUSLED_clean_sbu_0, # of connection points: 3
#     Node 6, Type 0, BuildingBlock: WUSLED_clean_sbu_0, # of connection points: 3
#     Node 7, Type 0, BuildingBlock: WUSLED_clean_sbu_0, # of connection points: 3
#     Node 8, Type 1, BuildingBlock: BETDEL_clean_sbu_0, # of connection points: 6
#     Node 9, Type 1, BuildingBlock: BETDEL_clean_sbu_0, # of connection points: 6
#     Node 10, Type 1, BuildingBlock: BETDEL_clean_sbu_0, # of connection points: 6
#     Node 11, Type 1, BuildingBlock: BETDEL_clean_sbu_0, # of connection points: 6
#     Edge 12, Type (0, 1), BuildingBlock: MIFKUJ_clean_linker_0, # of connection points: 2
#     Edge 13, Type (0, 1), BuildingBlock: MIFKUJ_clean_linker_0, # of connection points: 2
#     Edge 14, Type (0, 1), BuildingBlock: MIFKUJ_clean_linker_0, # of connection points: 2
#     Edge 15, Type (0, 1), BuildingBlock: MIFKUJ_clean_linker_0, # of connection points: 2
#     Edge 16, Type (0, 1), BuildingBlock: MIFKUJ_clean_linker_0, # of connection points: 2
#     Edge 17, Type (0, 1), BuildingBlock: MIFKUJ_clean_linker_0, # of connection points: 2
#     Edge 18, Type (0, 1), BuildingBlock: MIFKUJ_clean_linker_0, # of connection points: 2
#     Edge 19, Type (0, 1), BuildingBlock: MIFKUJ_clean_linker_0, # of connection points: 2
#     Edge 20, Type (0, 1), BuildingBlock: MIFKUJ_clean_linker_0, # of connection points: 2
#     Edge 21, Type (0, 1), BuildingBlock: MIFKUJ_clean_linker_0, # of connection points: 2
#     Edge 22, Type (0, 1), BuildingBlock: MIFKUJ_clean_linker_0, # of connection points: 2
#     Edge 23, Type (0, 1), BuildingBlock: MIFKUJ_clean_linker_0, # of connection points: 2
#     Edge 24, Type (0, 1), BuildingBlock: MIFKUJ_clean_linker_0, # of connection points: 2
#     Edge 25, Type (0, 1), BuildingBlock: MIFKUJ_clean_linker_0, # of connection points: 2
#     Edge 26, Type (0, 1), BuildingBlock: MIFKUJ_clean_linker_0, # of connection points: 2
#     Edge 27, Type (0, 1), BuildingBlock: MIFKUJ_clean_linker_0, # of connection points: 2
#     Edge 28, Type (0, 1), BuildingBlock: MIFKUJ_clean_linker_0, # of connection points: 2
#     Edge 29, Type (0, 1), BuildingBlock: MIFKUJ_clean_linker_0, # of connection points: 2
#     Edge 30, Type (0, 1), BuildingBlock: MIFKUJ_clean_linker_0, # of connection points: 2
#     Edge 31, Type (0, 1), BuildingBlock: MIFKUJ_clean_linker_0, # of connection points: 2
#     Edge 32, Type (0, 1), BuildingBlock: MIFKUJ_clean_linker_0, # of connection points: 2
#     Edge 33, Type (0, 1), BuildingBlock: MIFKUJ_clean_linker_0, # of connection points: 2
#     Edge 34, Type (0, 1), BuildingBlock: MIFKUJ_clean_linker_0, # of connection points: 2
#     Edge 35, Type (0, 1), BuildingBlock: MIFKUJ_clean_linker_0, # of connection points: 2
# Relax obj value: 0.024
# Max RMSD: 0.090
# Mean RMSD: 0.038
data_MOF--net-pyr--node1-WUSLED_clean_sbu_0--node2-BETDEL_clean_sbu_0--edge1-MIFKUJ_clean_linker_0
_symmetry_space_group_name_H-M    P1
_symmetry_Int_Tables_number       1
_symmetry_cell_setting            triclinic
loop_
_symmetry_equiv_pos_as_xyz
'x, y, z'
_cell_length_a     58.796752
_cell_length_b     60.681015
_cell_length_c     55.743288
_cell_angle_alpha  91.212434
_cell_angle_beta   89.334154
_cell_angle_gamma 94.512218
loop_
_atom_site_label
_atom_site_type_symbol
_atom_site_fract_x
_atom_site_fract_y
_atom_site_fract_z
_atom_type_partial_charge
C0 C 0.20155 0.25147 0.12714 0.0
C1 C 0.18759 0.26233 0.14336 0.0
C2 C 0.17635 0.28615 0.11165 0.0
C3 C 0.17521 0.27958 0.13574 0.0
C4 C 0.1905 0.27525 0.09551 0.0
C5 C 0.203 0.25808 0.10321 0.0
U6 U 0.20667 0.20459 0.16974 0.0
O7 O 0.2142 0.17008 0.16334 0.0
O8 O 0.23664 0.19179 0.18642 0.0
C9 C 0.23341 0.17249 0.17531 0.0
C10 C 0.21371 0.23259 0.13477 0.0
C11 C 0.25354 0.1645 0.16297 0.0
C12 C 0.27552 0.15814 0.12662 0.0
C13 C 0.2568 0.16677 0.13812 0.0
C14 C 0.28832 0.14553 0.16477 0.0
C15 C 0.29141 0.1473 0.13981 0.0
C16 C 0.26951 0.154 0.17622 0.0
C17 C 0.16179 0.1964 0.21934 0.0
C18 C 0.15952 0.16424 0.24469 0.0
C19 C 0.13306 0.19256 0.25088 0.0
C20 C 0.14345 0.20454 0.23203 0.0
C21 C 0.14085 0.17217 0.25731 0.0
C22 C 0.16991 0.17626 0.22585 0.0
C23 C 0.17179 0.20866 0.19888 0.0
O24 O 0.22396 0.23512 0.1556 0.0
O25 O 0.2023 0.21321 0.13201 0.0
O26 O 0.17022 0.198 0.17813 0.0
O27 O 0.192 0.21901 0.20246 0.0
H28 H 0.18612 0.25735 0.16191 0.0
H29 H 0.16477 0.28778 0.14874 0.0
H30 H 0.19153 0.27962 0.07677 0.0
H31 H 0.21352 0.24972 0.0904 0.0
H32 H 0.2776 0.15999 0.10742 0.0
H33 H 0.24476 0.17502 0.12758 0.0
H34 H 0.30014 0.13709 0.17538 0.0
H35 H 0.26728 0.15211 0.19541 0.0
H36 H 0.16578 0.1485 0.249 0.0
H37 H 0.11896 0.19929 0.26045 0.0
H38 H 0.13703 0.2201 0.22723 0.0
H39 H 0.18405 0.16972 0.21615 0.0
C40 C 0.26213 0.84754 0.61717 0.0
C41 C 0.25117 0.8605 0.6342 0.0
C42 C 0.22431 0.87046 0.60399 0.0
C43 C 0.23239 0.8718 0.6277 0.0
C44 C 0.23561 0.85762 0.58695 0.0
C45 C 0.2543 0.84625 0.59351 0.0
U46 U 0.31139 0.83938 0.65876 0.0
O47 O 0.32336 0.80912 0.67372 0.0
O48 O 0.34635 0.83045 0.65123 0.0
C49 C 0.34324 0.81169 0.66268 0.0
C50 C 0.28175 0.83537 0.62382 0.0
C51 C 0.3512 0.79174 0.65065 0.0
C52 C 0.36558 0.77227 0.61568 0.0
C53 C 0.35662 0.79102 0.62602 0.0
C54 C 0.36335 0.75458 0.65426 0.0
C55 C 0.36915 0.75387 0.62974 0.0
C56 C 0.35454 0.77332 0.66458 0.0
C57 C 0.32177 0.87833 0.71259 0.0
C58 C 0.35529 0.8775 0.73753 0.0
C59 C 0.32441 0.89949 0.75001 0.0
C60 C 0.31242 0.8927 0.72929 0.0
C61 C 0.34605 0.89204 0.75437 0.0
C62 C 0.34322 0.87066 0.71685 0.0
C63 C 0.30885 0.87126 0.69099 0.0
O64 O 0.30183 0.84635 0.62174 0.0
O65 O 0.27929 0.82429 0.64382 0.0
O66 O 0.29694 0.85208 0.69243 0.0
O67 O 0.32001 0.8738 0.67054 0.0
H68 H 0.25705 0.86179 0.65256 0.0
H69 H 0.22402 0.88131 0.64135 0.0
H70 H 0.2302 0.85655 0.56844 0.0
H71 H 0.26268 0.83647 0.58008 0.0
H72 H 0.36972 0.77215 0.59669 0.0
H73 H 0.3542 0.805 0.61481 0.0
H74 H 0.3662 0.74086 0.66568 0.0
H75 H 0.35068 0.77356 0.68364 0.0
H76 H 0.372 0.87164 0.74015 0.0
H77 H 0.3166 0.91038 0.76275 0.0
H78 H 0.29579 0.89864 0.72635 0.0
H79 H 0.35066 0.85946 0.70414 0.0
C80 C 0.63129 0.35497 0.79677 0.0
C81 C 0.64697 0.3622 0.77878 0.0
C82 C 0.61737 0.38046 0.75818 0.0
C83 C 0.64006 0.37473 0.75968 0.0
C84 C 0.60186 0.37349 0.77643 0.0
C85 C 0.60873 0.36086 0.79541 0.0
U86 U 0.66972 0.34001 0.84893 0.0
O87 O 0.66019 0.3259 0.88403 0.0
O88 O 0.68116 0.30767 0.8589 0.0
C89 C 0.67035 0.30767 0.87967 0.0
C90 C 0.63765 0.34055 0.81644 0.0
C91 C 0.65788 0.28665 0.88676 0.0
C92 C 0.623 0.26254 0.8914 0.0
C93 C 0.63438 0.28214 0.88293 0.0
C94 C 0.6585 0.25167 0.90726 0.0
C95 C 0.63489 0.24715 0.90395 0.0
C96 C 0.66981 0.27116 0.89878 0.0
C97 C 0.72252 0.37985 0.86516 0.0
C98 C 0.76057 0.37431 0.87977 0.0
C99 C 0.74467 0.40952 0.88657 0.0
C100 C 0.72474 0.40147 0.87476 0.0
C101 C 0.76303 0.39618 0.88894 0.0
C102 C 0.74055 0.36623 0.86801 0.0
C103 C 0.70194 0.37263 0.85102 0.0
O104 O 0.65627 0.33012 0.81329 0.0
O105 O 0.63543 0.34846 0.83841 0.0
O106 O 0.6822 0.37323 0.86222 0.0
O107 O 0.70305 0.3551 0.83689 0.0
H108 H 0.66453 0.35802 0.77932 0.0
H109 H 0.65254 0.38002 0.74612 0.0
H110 H 0.5842 0.37734 0.77575 0.0
H111 H 0.59626 0.3554 0.80893 0.0
H112 H 0.6048 0.25971 0.88865 0.0
H113 H 0.6248 0.29388 0.87373 0.0
H114 H 0.66832 0.24009 0.91641 0.0
H115 H 0.68795 0.27428 0.9019 0.0
H116 H 0.77437 0.3636 0.88104 0.0
H117 H 0.74569 0.42627 0.89377 0.0
H118 H 0.71113 0.41232 0.87281 0.0
H119 H 0.73939 0.34948 0.86077 0.0
C120 C 0.79466 0.63908 0.36333 0.0
C121 C 0.79023 0.6477 0.38634 0.0
C122 C 0.75489 0.62371 0.38904 0.0
C123 C 0.77054 0.64005 0.39911 0.0
C124 C 0.75945 0.61531 0.3659 0.0
C125 C 0.77909 0.62291 0.35323 0.0
U126 U 0.84727 0.67916 0.34812 0.0
O127 O 0.88199 0.67092 0.33782 0.0
O128 O 0.86142 0.68802 0.31262 0.0
C129 C 0.88037 0.67842 0.31601 0.0
C130 C 0.81553 0.6461 0.34963 0.0
C131 C 0.88784 0.66398 0.29622 0.0
C132 C 0.87984 0.6374 0.26344 0.0
C133 C 0.87227 0.64996 0.28297 0.0
C134 C 0.91862 0.65236 0.27055 0.0
C135 C 0.90311 0.63861 0.25681 0.0
C136 C 0.91104 0.6649 0.28998 0.0
C137 C 0.8596 0.73434 0.38371 0.0
C138 C 0.89388 0.75533 0.3985 0.0
C139 C 0.86054 0.77439 0.38923 0.0
C140 C 0.84894 0.75421 0.38247 0.0
C141 C 0.88309 0.7752 0.3976 0.0
C142 C 0.8823 0.73514 0.39161 0.0
C143 C 0.8462 0.71306 0.37824 0.0
O144 O 0.81432 0.66324 0.33582 0.0
O145 O 0.83489 0.64638 0.36123 0.0
O146 O 0.85561 0.69476 0.38325 0.0
O147 O 0.83521 0.71174 0.35778 0.0
H148 H 0.80202 0.66024 0.39445 0.0
H149 H 0.76748 0.64706 0.41677 0.0
H150 H 0.74805 0.60251 0.3577 0.0
H151 H 0.78225 0.61597 0.33555 0.0
H152 H 0.86737 0.62716 0.25321 0.0
H153 H 0.85426 0.64896 0.28749 0.0
H154 H 0.93669 0.65341 0.26635 0.0
H155 H 0.92335 0.67553 0.30002 0.0
H156 H 0.91131 0.75537 0.4046 0.0
H157 H 0.85159 0.78928 0.38858 0.0
H158 H 0.83139 0.75408 0.37671 0.0
H159 H 0.89106 0.72017 0.3928 0.0
C160 C 0.82304 0.77996 0.89891 0.0
C161 C 0.83763 0.76975 0.88279 0.0
C162 C 0.8474 0.74443 0.91371 0.0
C163 C 0.8496 0.75208 0.89007 0.0
C164 C 0.83253 0.7546 0.92971 0.0
C165 C 0.82046 0.77221 0.92235 0.0
U166 U 0.82077 0.82835 0.85803 0.0
O167 O 0.79223 0.84309 0.84091 0.0
O168 O 0.81461 0.86312 0.86559 0.0
C169 C 0.79601 0.86204 0.85263 0.0
C170 C 0.81165 0.79949 0.8918 0.0
C171 C 0.77603 0.87083 0.86435 0.0
C172 C 0.74349 0.86704 0.89164 0.0
C173 C 0.7623 0.85817 0.88052 0.0
C174 C 0.75211 0.9013 0.87062 0.0
C175 C 0.73825 0.88876 0.88688 0.0
C176 C 0.77081 0.89239 0.85946 0.0
C177 C 0.86726 0.83597 0.80999 0.0
C178 C 0.86977 0.86735 0.78352 0.0
C179 C 0.89843 0.84074 0.7812 0.0
C180 C 0.88718 0.82872 0.79952 0.0
C181 C 0.88993 0.86027 0.77307 0.0
C182 C 0.85853 0.85529 0.80185 0.0
C183 C 0.85618 0.82361 0.82982 0.0
O184 O 0.8236 0.81844 0.89554 0.0
O185 O 0.80186 0.798 0.87066 0.0
O186 O 0.83573 0.81416 0.82538 0.0
O187 O 0.85759 0.83375 0.85087 0.0
H188 H 0.83999 0.77562 0.86464 0.0
H189 H 0.86062 0.74447 0.87717 0.0
H190 H 0.83067 0.74938 0.94813 0.0
H191 H 0.80946 0.78006 0.9351 0.0
H192 H 0.73328 0.85705 0.90425 0.0
H193 H 0.76619 0.8415 0.88459 0.0
H194 H 0.74837 0.91795 0.86633 0.0
H195 H 0.78123 0.90237 0.847 0.0
H196 H 0.86263 0.88215 0.77746 0.0
H197 H 0.91406 0.835 0.77377 0.0
H198 H 0.89418 0.81388 0.80571 0.0
H199 H 0.84312 0.86109 0.80978 0.0
C200 C 0.66741 0.17708 0.32075 0.0
C201 C 0.68232 0.16459 0.30729 0.0
C202 C 0.65167 0.15282 0.2797 0.0
C203 C 0.67453 0.15263 0.28685 0.0
C204 C 0.6368 0.1652 0.29343 0.0
C205 C 0.64463 0.17725 0.31374 0.0
U206 U 0.7087 0.18902 0.37273 0.0
O207 O 0.72358 0.2209 0.38717 0.0
O208 O 0.70163 0.1991 0.41006 0.0
C209 C 0.71222 0.21883 0.40755 0.0
C210 C 0.67527 0.19005 0.34207 0.0
C211 C 0.69866 0.23747 0.41405 0.0
C212 C 0.66633 0.25901 0.40697 0.0
C213 C 0.67901 0.24106 0.40111 0.0
C214 C 0.69279 0.26999 0.43883 0.0
C215 C 0.67309 0.27375 0.42587 0.0
C216 C 0.70545 0.25199 0.43296 0.0
C217 C 0.75789 0.15107 0.37935 0.0
C218 C 0.78395 0.15176 0.41294 0.0
C219 C 0.78941 0.12749 0.37864 0.0
C220 C 0.77033 0.13514 0.36775 0.0
C221 C 0.79644 0.13563 0.40141 0.0
C222 C 0.76483 0.15945 0.40198 0.0
C223 C 0.73757 0.15828 0.36759 0.0
O224 O 0.67312 0.17966 0.36251 0.0
O225 O 0.69492 0.20176 0.33975 0.0
O226 O 0.74019 0.17741 0.35687 0.0
O227 O 0.71831 0.15549 0.37978 0.0
H228 H 0.69995 0.16413 0.31256 0.0
H229 H 0.68632 0.14304 0.2768 0.0
H230 H 0.61917 0.16586 0.28825 0.0
H231 H 0.6329 0.1868 0.32394 0.0
H232 H 0.65147 0.26157 0.39639 0.0
H233 H 0.67358 0.23006 0.38634 0.0
H234 H 0.69833 0.28087 0.45365 0.0
H235 H 0.72057 0.24944 0.44314 0.0
H236 H 0.78903 0.15854 0.43037 0.0
H237 H 0.79839 0.11484 0.3694 0.0
H238 H 0.76515 0.12844 0.35031 0.0
H239 H 0.75543 0.17182 0.41116 0.0
C240 C 0.30046 0.646 0.16966 0.0
C241 C 0.29379 0.65733 0.14953 0.0
C242 C 0.2604 0.63098 0.14454 0.0
C243 C 0.27391 0.6499 0.13709 0.0
C244 C 0.2672 0.61989 0.16487 0.0
C245 C 0.28699 0.62732 0.17725 0.0
U246 U 0.35439 0.68505 0.18266 0.0
O247 O 0.36848 0.69615 0.21781 0.0
O248 O 0.38847 0.6764 0.19323 0.0
C249 C 0.38681 0.68528 0.21485 0.0
C250 C 0.32135 0.65313 0.18306 0.0
C251 C 0.39289 0.6716 0.23522 0.0
C252 C 0.39681 0.6359 0.25344 0.0
C253 C 0.38997 0.64838 0.23424 0.0
C254 C 0.40913 0.66964 0.27507 0.0
C255 C 0.40656 0.64637 0.2741 0.0
C256 C 0.40242 0.68207 0.25585 0.0
C257 C 0.36709 0.7363 0.14194 0.0
C258 C 0.39757 0.76571 0.14603 0.0
C259 C 0.37146 0.76566 0.11278 0.0
C260 C 0.36 0.74618 0.12109 0.0
C261 C 0.39035 0.77581 0.12516 0.0
C262 C 0.38601 0.74614 0.15438 0.0
C263 C 0.35411 0.71596 0.15018 0.0
O264 O 0.34076 0.65161 0.17145 0.0
O265 O 0.3208 0.67151 0.19587 0.0
O266 O 0.34377 0.71717 0.17114 0.0
O267 O 0.36372 0.69731 0.14663 0.0
H268 H 0.304 0.6718 0.14339 0.0
H269 H 0.26932 0.65875 0.12141 0.0
H270 H 0.25709 0.60554 0.17143 0.0
H271 H 0.29179 0.61842 0.19282 0.0
H272 H 0.3943 0.61805 0.25216 0.0
H273 H 0.38253 0.63985 0.2186 0.0
H274 H 0.41681 0.6783 0.29051 0.0
H275 H 0.40493 0.69994 0.25701 0.0
H276 H 0.41192 0.77312 0.15615 0.0
H277 H 0.36562 0.77263 0.09644 0.0
H278 H 0.34549 0.7388 0.11117 0.0
H279 H 0.39174 0.73878 0.17055 0.0
C280 C 0.13904 0.30175 0.67377 0.0
C281 C 0.15012 0.29521 0.65264 0.0
C282 C 0.12473 0.26134 0.65012 0.0
C283 C 0.143 0.2752 0.64089 0.0
C284 C 0.11375 0.26811 0.6713 0.0
C285 C 0.12084 0.28806 0.68295 0.0
U286 U 0.17876 0.35477 0.6842 0.0
O287 O 0.16976 0.38829 0.69439 0.0
O288 O 0.19068 0.37025 0.71835 0.0
C289 C 0.17969 0.38802 0.71538 0.0
C290 C 0.14604 0.32267 0.68658 0.0
C291 C 0.16627 0.39528 0.73621 0.0
C292 C 0.13462 0.38995 0.76461 0.0
C293 C 0.14686 0.38266 0.74457 0.0
C294 C 0.16104 0.42252 0.76801 0.0
C295 C 0.14162 0.40996 0.77667 0.0
C296 C 0.1732 0.41524 0.74804 0.0
C297 C 0.23138 0.36638 0.64248 0.0
C298 C 0.25595 0.40058 0.64069 0.0
C299 C 0.26583 0.36828 0.61782 0.0
C300 C 0.24633 0.35634 0.62669 0.0
C301 C 0.27085 0.39062 0.6245 0.0
C302 C 0.23636 0.38856 0.64959 0.0
C303 C 0.21062 0.35334 0.65076 0.0
O304 O 0.16503 0.32294 0.69882 0.0
O305 O 0.14426 0.34088 0.67461 0.0
O306 O 0.19114 0.36208 0.64759 0.0
O307 O 0.21188 0.34395 0.67168 0.0
H308 H 0.16427 0.30555 0.64529 0.0
H309 H 0.15199 0.27045 0.62477 0.0
H310 H 0.09941 0.25811 0.67873 0.0
H311 H 0.11202 0.29286 0.69919 0.0
H312 H 0.11989 0.37975 0.77087 0.0
H313 H 0.14126 0.36716 0.73568 0.0
H314 H 0.16674 0.43816 0.77651 0.0
H315 H 0.18808 0.42525 0.74179 0.0
H316 H 0.25918 0.41777 0.64612 0.0
H317 H 0.27708 0.3599 0.60581 0.0
H318 H 0.24286 0.33921 0.62109 0.0
H319 H 0.22501 0.39662 0.6618 0.0
Dy320 Dy 0.0233 0.02437 0.49144 0.0
C321 C 1.00023 0.98712 0.58509 0.0
C322 C 0.03876 0.04563 0.45116 0.0
Dy323 Dy 1.00522 1.00903 0.54299 0.0
O324 O 0.05151 0.03876 0.46786 0.0
O325 O 0.01732 0.04083 0.45634 0.0
O326 O 0.04413 0.99495 0.49048 0.0
O327 O 0.03773 1.01077 0.52352 0.0
C328 C 0.04659 0.99461 0.51359 0.0
C329 C 0.97411 0.03154 0.52048 0.0
O330 O 0.02769 0.03925 0.553 0.0
O331 O 0.03127 0.05464 0.51498 0.0
O332 O 0.99724 1.00795 0.58249 0.0
O333 O 1.00634 0.97838 0.56474 0.0
O334 O 0.97072 0.02354 0.54179 0.0
O335 O 0.99346 0.02678 0.51342 0.0
O336 O 0.99767 0.99675 0.48078 0.0
O337 O 0.99482 0.98015 0.51827 0.0
C338 C 0.03383 0.05597 0.53867 0.0
C339 C 0.99102 0.9799 0.49475 0.0
Dy340 Dy 0.5266 0.01976 0.03628 0.0
C341 C 0.4663 0.97954 0.9625 0.0
C342 C 0.54976 0.04129 0.07307 0.0
Dy343 Dy 0.49537 1.00311 0.99292 0.0
O344 O 0.53076 0.02905 0.07522 0.0
O345 O 0.55624 0.04187 0.05067 0.0
O346 O 0.52714 0.98452 0.04749 0.0
O347 O 0.49806 0.99446 0.0307 0.0
C348 C 0.50723 0.97809 0.03887 0.0
C349 C 0.51945 0.04163 0.98198 0.0
O350 O 0.47035 0.01896 0.01687 0.0
O351 O 0.49646 0.04002 0.04071 0.0
O352 O 0.46522 1.00022 0.96852 0.0
O353 O 0.48312 0.97149 0.97348 0.0
O354 O 0.50545 0.03084 0.96729 0.0
O355 O 0.5196 0.0308 1.00093 0.0
O356 O 0.55251 1.00752 1.01074 0.0
O357 O 0.52713 0.98529 0.98705 0.0
C358 C 0.47538 0.03495 0.03299 0.0
C359 C 0.54814 0.99181 0.99414 0.0
Dy360 Dy 0.52026 0.4936 0.49882 0.0
C361 C 0.48739 0.56612 0.55152 0.0
C362 C 0.54418 0.46175 0.47697 0.0
Dy363 Dy 0.50809 0.53212 0.52958 0.0
O364 O 0.52215 0.46076 0.4795 0.0
O365 O 0.55306 0.48037 0.48585 0.0
O366 O 0.48349 0.48125 0.49599 0.0
O367 O 0.49512 0.49747 0.5277 0.0
C368 C 0.47765 0.48909 0.51685 0.0
C369 C 0.5507 0.53582 0.51136 0.0
O370 O 0.51999 0.5119 0.55943 0.0
O371 O 0.53641 0.4866 0.53423 0.0
O372 O 0.50675 0.56796 0.54011 0.0
O373 O 0.47943 0.54554 0.5514 0.0
O374 O 0.54542 0.54262 0.53282 0.0
O375 O 0.53293 0.52827 0.50052 0.0
O376 O 0.509 0.5147 0.46942 0.0
O377 O 0.48926 0.53694 0.49515 0.0
C378 C 0.53267 0.49495 0.55601 0.0
C379 C 0.49436 0.52999 0.47313 0.0
Dy380 Dy 0.01768 0.49416 0.02476 0.0
C381 C 0.98348 0.57499 0.99663 0.0
C382 C 0.03982 0.45736 0.03387 0.0
Dy383 Dy 1.00535 0.53795 1.00575 0.0
O384 O 0.02147 0.46287 0.04489 0.0
O385 O 0.04591 0.47182 0.01773 0.0
O386 O 0.99125 0.49585 0.05399 0.0
O387 O 1.00834 0.52515 0.04171 0.0
C388 C 0.99252 0.51731 0.05526 0.0
C389 C 0.03061 0.51472 0.97534 0.0
O390 O 0.03593 0.55049 0.02714 0.0
O391 O 0.04978 0.51617 0.03199 0.0
O392 O 1.00227 0.56975 0.98629 0.0
O393 O 0.97677 0.56011 0.01213 0.0
O394 O 0.03159 0.53618 0.97625 0.0
O395 O 0.01479 0.50699 0.98892 0.0
O396 O 0.98715 0.48147 1.00351 0.0
O397 O 0.97341 0.51578 0.99794 0.0
C398 C 0.05241 0.5381 0.03342 0.0
C399 C 0.9708 0.49382 0.99678 0.0
H400 H 0.16055 0.14926 0.29233 0.0
H401 H 0.14142 0.12709 0.32383 0.0
H402 H 0.076 0.14338 0.29816 0.0
H403 H 0.09499 0.16544 0.26647 0.0
H404 H 0.07813 0.14676 0.34662 0.0
H405 H 0.09457 0.0931 0.28589 0.0
H406 H 0.11871 0.07398 0.25703 0.0
H407 H 0.1605 0.05505 0.3146 0.0
H408 H 0.13679 0.07435 0.34379 0.0
H409 H 0.01471 0.06502 0.41669 0.0
H410 H 0.03037 0.08608 0.38227 0.0
H411 H 0.09858 0.07435 0.40372 0.0
H412 H 0.08309 0.05337 0.43792 0.0
H413 H 0.0928 0.06796 0.35567 0.0
H414 H 0.07799 0.12316 0.41593 0.0
H415 H 0.05431 0.14245 0.44512 0.0
H416 H 0.00979 0.15849 0.38862 0.0
H417 H 0.03305 0.13899 0.35912 0.0
C418 C 0.14208 0.14799 0.29326 0.0
C419 C 0.1293 0.15906 0.27682 0.0
C420 C 0.13117 0.13534 0.3113 0.0
C421 C 0.10726 0.13338 0.31317 0.0
C422 C 0.09446 0.14468 0.29705 0.0
C423 C 0.10536 0.15735 0.279 0.0
C424 C 0.09565 0.11956 0.33199 0.0
C425 C 0.08103 0.12943 0.34836 0.0
C426 C 0.09977 0.09705 0.33451 0.0
C427 C 0.11401 0.08534 0.31701 0.0
C428 C 0.10901 0.08501 0.29238 0.0
C429 C 0.1226 0.07411 0.27596 0.0
C430 C 0.14116 0.06335 0.28397 0.0
C431 C 0.14613 0.06342 0.30842 0.0
C432 C 0.13261 0.07431 0.32492 0.0
C433 C 0.03302 0.0669 0.41394 0.0
C434 C 0.04771 0.05765 0.42993 0.0
C435 C 0.04194 0.07896 0.39437 0.0
C436 C 0.06565 0.08189 0.39056 0.0
C437 C 0.08025 0.07227 0.40631 0.0
C438 C 0.07137 0.06035 0.42587 0.0
C439 C 0.07546 0.09521 0.37041 0.0
C440 C 0.08975 0.08524 0.35379 0.0
C441 C 0.07107 0.11761 0.3677 0.0
C442 C 0.0571 0.12939 0.38537 0.0
C443 C 0.06304 0.13063 0.40976 0.0
C444 C 0.04972 0.14163 0.42635 0.0
C445 C 0.03052 0.15163 0.41874 0.0
C446 C 0.02464 0.15069 0.3945 0.0
C447 C 0.0379 0.13968 0.37783 0.0
H448 H 0.02023 0.16015 0.43161 0.0
H449 H 0.15166 0.05492 0.27123 0.0
H450 H 0.34937 0.93338 0.77531 0.0
H451 H 0.37 0.94568 0.81147 0.0
H452 H 0.39336 0.88055 0.81881 0.0
H453 H 0.37185 0.86779 0.78314 0.0
H454 H 0.3807 0.89627 0.86135 0.0
H455 H 0.42908 0.92323 0.79761 0.0
H456 H 0.43954 0.94243 0.76005 0.0
H457 H 0.42089 1.0037 0.79159 0.0
H458 H 0.41002 0.98481 0.82926 0.0
H459 H 0.46753 0.93678 0.94615 0.0
H460 H 0.44697 0.91939 0.91166 0.0
H461 H 0.41368 0.97931 0.9014 0.0
H462 H 0.43403 0.99665 0.93572 0.0
H463 H 0.43393 0.96387 0.85997 0.0
H464 H 0.38426 0.93523 0.92367 0.0
H465 H 0.37559 0.91534 0.96122 0.0
H466 H 0.39918 0.85615 0.92935 0.0
H467 H 0.40829 0.87579 0.89169 0.0
C468 C 0.35867 0.92156 0.78473 0.0
C469 C 0.35893 0.89957 0.77627 0.0
C470 C 0.37069 0.9287 0.80528 0.0
C471 C 0.38352 0.91413 0.81768 0.0
C472 C 0.38367 0.89211 0.80947 0.0
C473 C 0.37154 0.88491 0.78894 0.0
C474 C 0.39663 0.92197 0.83927 0.0
C475 C 0.39261 0.91085 0.86096 0.0
C476 C 0.41205 0.9411 0.83885 0.0
C477 C 0.41854 0.95255 0.8162 0.0
C478 C 0.42703 0.94076 0.79648 0.0
C479 C 0.43307 0.9516 0.77518 0.0
C480 C 0.43083 0.97425 0.77342 0.0
C481 C 0.42259 0.98614 0.79298 0.0
C482 C 0.41651 0.97538 0.81432 0.0
C483 C 0.45557 0.94608 0.9367 0.0
C484 C 0.45236 0.96804 0.94353 0.0
C485 C 0.44385 0.93615 0.91705 0.0
C486 C 0.42883 0.9481 0.90398 0.0
C487 C 0.42525 0.96984 0.9112 0.0
C488 C 0.43681 0.97969 0.93086 0.0
C489 C 0.41759 0.93847 0.88207 0.0
C490 C 0.42208 0.94923 0.86029 0.0
C491 C 0.40285 0.91891 0.8824 0.0
C492 C 0.39719 0.90705 0.90495 0.0
C493 C 0.38777 0.91802 0.92473 0.0
C494 C 0.38275 0.90678 0.94602 0.0
C495 C 0.3869 0.88451 0.9477 0.0
C496 C 0.39601 0.87341 0.92804 0.0
C497 C 0.40109 0.88458 0.90671 0.0
H498 H 0.38301 0.87585 0.9642 0.0
H499 H 0.43552 0.98261 0.75692 0.0
H500 H 0.5892 0.4145 0.759 0.0
H501 H 0.57568 0.43451 0.72504 0.0
H502 H 0.61441 0.39536 0.67644 0.0
H503 H 0.62821 0.37546 0.7104 0.0
H504 H 0.61823 0.43634 0.66256 0.0
H505 H 0.55539 0.38575 0.68396 0.0
H506 H 0.52648 0.36716 0.71061 0.0
H507 H 0.49803 0.42909 0.72557 0.0
H508 H 0.527 0.44811 0.69926 0.0
H509 H 0.56081 0.461 0.55578 0.0
H510 H 0.57566 0.44256 0.59007 0.0
H511 H 0.54134 0.48576 0.63834 0.0
H512 H 0.52614 0.50423 0.60403 0.0
H513 H 0.53537 0.44297 0.6522 0.0
H514 H 0.59938 0.49296 0.62919 0.0
H515 H 0.62766 0.50973 0.60058 0.0
H516 H 0.6531 0.44627 0.58643 0.0
H517 H 0.62478 0.42907 0.61476 0.0
C518 C 0.59478 0.41006 0.74108 0.0
C519 C 0.60972 0.39324 0.73749 0.0
C520 C 0.587 0.42153 0.72162 0.0
C521 C 0.59367 0.41627 0.698 0.0
C522 C 0.60896 0.39979 0.69441 0.0
C523 C 0.61689 0.38842 0.71389 0.0
C524 C 0.58464 0.42784 0.67709 0.0
C525 C 0.60008 0.43753 0.6602 0.0
C526 C 0.56096 0.42976 0.67399 0.0
C527 C 0.54352 0.41839 0.68984 0.0
C528 C 0.54309 0.39544 0.69309 0.0
C529 C 0.52667 0.38482 0.70811 0.0
C530 C 0.51047 0.39695 0.71983 0.0
C531 C 0.51062 0.41972 0.71651 0.0
C532 C 0.52702 0.43043 0.70154 0.0
C533 C 0.55644 0.46671 0.57366 0.0
C534 C 0.54228 0.48422 0.57705 0.0
C535 C 0.56506 0.45615 0.59331 0.0
C536 C 0.55986 0.46288 0.61688 0.0
C537 C 0.54565 0.48028 0.62036 0.0
C538 C 0.53704 0.4909 0.60068 0.0
C539 C 0.56896 0.45154 0.63785 0.0
C540 C 0.55351 0.44184 0.65468 0.0
C541 C 0.59259 0.44936 0.64071 0.0
C542 C 0.60987 0.45972 0.62397 0.0
C543 C 0.61094 0.48257 0.61989 0.0
C544 C 0.62698 0.49215 0.60374 0.0
C545 C 0.64214 0.47906 0.59167 0.0
C546 C 0.64135 0.45638 0.5958 0.0
C547 C 0.62533 0.44671 0.61192 0.0
H548 H 0.65453 0.48651 0.57915 0.0
H549 H 0.49776 0.38869 0.73144 0.0
H550 H 0.88894 0.59632 0.24158 0.0
H551 H 0.9027 0.57572 0.20685 0.0
H552 H 0.94994 0.6312 0.18942 0.0
H553 H 0.93566 0.65219 0.22347 0.0
H554 H 0.93083 0.61442 0.1498 0.0
H555 H 0.96716 0.58478 0.21735 0.0
H556 H 0.96888 0.5676 0.25692 0.0
H557 H 0.92805 0.51051 0.23082 0.0
H558 H 0.92583 0.52749 0.19116 0.0
H559 H 1.00336 0.56022 0.06939 0.0
H560 H 0.98756 0.58025 0.10343 0.0
H561 H 0.94171 0.52322 0.11921 0.0
H562 H 0.95818 0.50283 0.0857 0.0
H563 H 0.95925 0.5403 0.15947 0.0
H564 H 0.92081 0.57148 0.09279 0.0
H565 H 0.92117 0.58789 0.05263 0.0
H566 H 0.96842 0.64097 0.07711 0.0
H567 H 0.96785 0.62515 0.11752 0.0
C568 C 0.90209 0.60425 0.23024 0.0
C569 C 0.91127 0.62592 0.23552 0.0
C570 C 0.91013 0.59234 0.21048 0.0
C571 C 0.92763 0.60175 0.19564 0.0
C572 C 0.93652 0.6235 0.20062 0.0
C573 C 0.92847 0.63542 0.2203 0.0
C574 C 0.93676 0.58901 0.17494 0.0
C575 C 0.9372 0.5983 0.15204 0.0
C576 C 0.94478 0.56777 0.17756 0.0
C577 C 0.94613 0.55751 0.20137 0.0
C578 C 0.9584 0.56864 0.22011 0.0
C579 C 0.95949 0.55892 0.24254 0.0
C580 C 0.94852 0.53801 0.2464 0.0
C581 C 0.9365 0.52673 0.22781 0.0
C582 C 0.93533 0.53638 0.20535 0.0
C583 C 0.98981 0.55201 0.08002 0.0
C584 C 0.98194 0.52999 0.07484 0.0
C585 C 0.98068 0.56352 0.09945 0.0
C586 C 0.96312 0.55342 0.11378 0.0
C587 C 0.9552 0.53142 0.10849 0.0
C588 C 0.96454 0.51981 0.08925 0.0
C589 C 0.95324 0.5657 0.13442 0.0
C590 C 0.95268 0.55634 0.15728 0.0
C591 C 0.94514 0.58686 0.13183 0.0
C592 C 0.94432 0.59715 0.10807 0.0
C593 C 0.93112 0.58675 0.08959 0.0
C594 C 0.93135 0.59594 0.06681 0.0
C595 C 0.94485 0.61543 0.0623 0.0
C596 C 0.95789 0.62593 0.08064 0.0
C597 C 0.95747 0.61697 0.10353 0.0
H598 H 0.94518 0.62241 0.04461 0.0
H599 H 0.94939 0.53051 0.26378 0.0
H600 H 0.33603 0.14928 0.15371 0.0
H601 H 0.36747 0.13124 0.13437 0.0
H602 H 0.32198 0.10466 0.07894 0.0
H603 H 0.29041 0.12241 0.09836 0.0
H604 H 0.34785 0.07329 0.09745 0.0
H605 H 0.36003 0.14675 0.06678 0.0
H606 H 0.36563 0.18742 0.06957 0.0
H607 H 0.42623 0.18284 0.11083 0.0
H608 H 0.42081 0.14211 0.10858 0.0
H609 H 0.43087 0.03311 0.01861 0.0
H610 H 0.40001 0.05323 0.0358 0.0
H611 H 0.4464 0.08477 0.08773 0.0
H612 H 0.47751 0.06511 0.07032 0.0
H613 H 0.41992 0.11392 0.07076 0.0
H614 H 0.40798 0.04128 0.10278 0.0
H615 H 0.40281 1.00056 0.10126 0.0
H616 H 0.3423 1.00339 0.05941 0.0
H617 H 0.34728 0.04416 0.0604 0.0
C618 C 0.33275 0.13959 0.1374 0.0
C619 C 0.31076 0.13727 0.12754 0.0
C620 C 0.35074 0.12943 0.12629 0.0
C621 C 0.34708 0.11673 0.10514 0.0
C622 C 0.32517 0.11443 0.09522 0.0
C623 C 0.30721 0.12471 0.10623 0.0
C624 C 0.36594 0.10531 0.09374 0.0
C625 C 0.36348 0.08219 0.09128 0.0
C626 C 0.38658 0.11689 0.08636 0.0
C627 C 0.38989 0.14138 0.08771 0.0
C628 C 0.37444 0.15441 0.07662 0.0
C629 C 0.37761 0.17747 0.07807 0.0
C630 C 0.39624 0.18771 0.09042 0.0
C631 C 0.41179 0.17489 0.1013 0.0
C632 C 0.40869 0.15182 0.09992 0.0
C633 C 0.43455 0.04433 0.03368 0.0
C634 C 0.45667 0.04739 0.04315 0.0
C635 C 0.41684 0.05577 0.04355 0.0
C636 C 0.4208 0.07028 0.0633 0.0
C637 C 0.44293 0.07365 0.07253 0.0
C638 C 0.4607 0.06233 0.06257 0.0
C639 C 0.40183 0.08186 0.0744 0.0
C640 C 0.40428 0.105 0.07687 0.0
C641 C 0.38124 0.07028 0.082 0.0
C642 C 0.37814 0.04577 0.08146 0.0
C643 C 0.39366 0.03322 0.0931 0.0
C644 C 0.39076 1.01013 0.09236 0.0
C645 C 0.37227 0.99939 0.08019 0.0
C646 C 0.35662 0.01173 0.0688 0.0
C647 C 0.35947 0.03483 0.06946 0.0
H648 H 0.37005 0.98151 0.07964 0.0
H649 H 0.39866 0.20556 0.09152 0.0
H650 H 0.18984 0.85619 0.5733 0.0
H651 H 0.15807 0.87647 0.56026 0.0
H652 H 0.18092 0.93172 0.6061 0.0
H653 H 0.21317 0.9118 0.61883 0.0
H654 H 0.13278 0.92143 0.60756 0.0
H655 H 0.19346 0.93471 0.54916 0.0
H656 H 0.22259 0.92358 0.5201 0.0
H657 H 0.17067 0.88731 0.47848 0.0
H658 H 0.14127 0.89797 0.50749 0.0
H659 H 0.0694 1.00291 0.55549 0.0
H660 H 0.0982 0.9811 0.57263 0.0
H661 H 0.08626 0.93175 0.51625 0.0
H662 H 0.05858 0.95437 0.49824 0.0
H663 H 0.12886 0.93873 0.52116 0.0
H664 H 0.06835 0.92285 0.57881 0.0
H665 H 0.03787 0.93433 0.60594 0.0
H666 H 0.08719 0.97413 0.6475 0.0
H667 H 0.11807 0.96263 0.62073 0.0
C668 C 0.18827 0.87272 0.58051 0.0
C669 C 0.20427 0.88241 0.59696 0.0
C670 C 0.16997 0.88422 0.57316 0.0
C671 C 0.16722 0.90565 0.5821 0.0
C672 C 0.18268 0.91515 0.59906 0.0
C673 C 0.20109 0.9037 0.60635 0.0
C674 C 0.14885 0.91848 0.57282 0.0
C675 C 0.132 0.92539 0.58871 0.0
C676 C 0.14755 0.92323 0.54816 0.0
C677 C 0.1652 0.91696 0.53061 0.0
C678 C 0.18828 0.92422 0.53391 0.0
C679 C 0.20484 0.91802 0.51743 0.0
C680 C 0.19849 0.9047 0.49749 0.0
C681 C 0.17557 0.8976 0.49395 0.0
C682 C 0.15895 0.90373 0.51039 0.0
C683 C 0.07278 0.98728 0.54696 0.0
C684 C 0.06185 0.98028 0.52557 0.0
C685 C 0.08915 0.97471 0.55684 0.0
C686 C 0.09427 0.95451 0.546 0.0
C687 C 0.08274 0.94726 0.52497 0.0
C688 C 0.06684 0.96012 0.51474 0.0
C689 C 0.11243 0.9415 0.55576 0.0
C690 C 0.12941 0.93463 0.53998 0.0
C691 C 0.11361 0.93651 0.58043 0.0
C692 C 0.09545 0.94207 0.59765 0.0
C693 C 0.07269 0.93399 0.59379 0.0
C694 C 0.05534 0.94055 0.60905 0.0
C695 C 0.06053 0.95527 0.62817 0.0
C696 C 0.08318 0.96288 0.63254 0.0
C697 C 0.10064 0.95623 0.61743 0.0
H698 H 0.04699 0.96072 0.63962 0.0
H699 H 0.21133 0.89992 0.48475 0.0
H700 H 0.79126 0.3753 0.91873 0.0
H701 H 0.82698 0.39043 0.93686 0.0
H702 H 0.81955 0.45305 0.9038 0.0
H703 H 0.78445 0.43779 0.88478 0.0
H704 H 0.86206 0.44343 0.89974 0.0
H705 H 0.80762 0.44406 0.96445 0.0
H706 H 0.77792 0.42832 0.99213 0.0
H707 H 0.82435 0.38342 0.01832 0.0
H708 H 0.85426 0.39871 0.99054 0.0
H709 H 0.93804 0.51294 0.97164 0.0
H710 H 0.90359 0.49489 0.95349 0.0
H711 H 0.92065 0.43209 0.97998 0.0
H712 H 0.95534 0.44999 0.99808 0.0
H713 H 0.8744 0.44022 0.98745 0.0
H714 H 0.92957 0.44186 0.92331 0.0
H715 H 0.95889 0.45914 0.89617 0.0
H716 H 0.91029 0.50156 0.86941 0.0
H717 H 0.88077 0.4848 0.89669 0.0
C718 C 0.7973 0.39223 0.91511 0.0
C719 C 0.78478 0.40532 0.90035 0.0
C720 C 0.81766 0.40095 0.92573 0.0
C721 C 0.8259 0.42302 0.92201 0.0
C722 C 0.81358 0.43602 0.90707 0.0
C723 C 0.79331 0.42731 0.89639 0.0
C724 C 0.84737 0.43262 0.93351 0.0
C725 C 0.8646 0.44292 0.91896 0.0
C726 C 0.85104 0.43161 0.95855 0.0
C727 C 0.83309 0.42236 0.97522 0.0
C728 C 0.81144 0.4307 0.97597 0.0
C729 C 0.79458 0.42189 0.9917 0.0
C730 C 0.79922 0.40484 1.00692 0.0
C731 C 0.82076 0.3966 1.00648 0.0
C732 C 0.83768 0.40534 0.99076 0.0
C733 C 0.93449 0.4953 0.97369 0.0
C734 C 0.94954 0.48292 0.98629 0.0
C735 C 0.9148 0.48498 0.96321 0.0
C736 C 0.90962 0.46211 0.96521 0.0
C737 C 0.92434 0.44976 0.97817 0.0
C738 C 0.9442 0.46002 0.98843 0.0
C739 C 0.88886 0.45115 0.95369 0.0
C740 C 0.87183 0.4406 0.96822 0.0
C741 C 0.88527 0.45211 0.92868 0.0
C742 C 0.90301 0.46221 0.91223 0.0
C743 C 0.92518 0.45502 0.9118 0.0
C744 C 0.94183 0.4647 0.89636 0.0
C745 C 0.93646 0.48147 0.88111 0.0
C746 C 0.91443 0.48858 0.88125 0.0
C747 C 0.89773 0.47899 0.89669 0.0
H748 H 0.94934 0.48891 0.86912 0.0
H749 H 0.78615 0.39804 0.0191 0.0
H750 H 0.75059 0.61428 0.43702 0.0
H751 H 0.71656 0.59918 0.45859 0.0
H752 H 0.67805 0.5981 0.39314 0.0
H753 H 0.71175 0.61385 0.37167 0.0
H754 H 0.65356 0.61306 0.4295 0.0
H755 H 0.69803 0.55073 0.41577 0.0
H756 H 0.73233 0.52992 0.41747 0.0
H757 H 0.73081 0.53429 0.49445 0.0
H758 H 0.69667 0.55541 0.4932 0.0
H759 H 0.55928 0.5387 0.46317 0.0
H760 H 0.59456 0.55356 0.44344 0.0
H761 H 0.62682 0.56327 0.51233 0.0
H762 H 0.59138 0.5489 0.53221 0.0
H763 H 0.65467 0.54406 0.47556 0.0
H764 H 0.6109 0.60617 0.48967 0.0
H765 H 0.57741 0.62813 0.48871 0.0
H766 H 0.57797 0.62455 0.4117 0.0
H767 H 0.61133 0.60227 0.4122 0.0
C768 C 0.73482 0.61108 0.42726 0.0
C769 C 0.73401 0.6152 0.40253 0.0
C770 C 0.71541 0.6022 0.43958 0.0
C771 C 0.69475 0.59715 0.42745 0.0
C772 C 0.69378 0.60171 0.40291 0.0
C773 C 0.71315 0.61057 0.39059 0.0
C774 C 0.67412 0.58718 0.44024 0.0
C775 C 0.65377 0.5978 0.43927 0.0
C776 C 0.67443 0.56756 0.45358 0.0
C777 C 0.69494 0.55485 0.45438 0.0
C778 C 0.70512 0.54741 0.43306 0.0
C779 C 0.72451 0.53553 0.43394 0.0
C780 C 0.73378 0.53084 0.45605 0.0
C781 C 0.72364 0.53797 0.47733 0.0
C782 C 0.70426 0.54988 0.47655 0.0
C783 C 0.57395 0.54382 0.47409 0.0
C784 C 0.57258 0.54274 0.49924 0.0
C785 C 0.59406 0.55238 0.46281 0.0
C786 C 0.61327 0.55966 0.47643 0.0
C787 C 0.6122 0.55777 0.50148 0.0
C788 C 0.59196 0.5496 0.51281 0.0
C789 C 0.63419 0.56985 0.46454 0.0
C790 C 0.65453 0.55929 0.46572 0.0
C791 C 0.63391 0.58952 0.45141 0.0
C792 C 0.61347 0.60235 0.45099 0.0
C793 C 0.60371 0.60982 0.47253 0.0
C794 C 0.58481 0.62239 0.47207 0.0
C795 C 0.57559 0.62775 0.45016 0.0
C796 C 0.58516 0.62041 0.42866 0.0
C797 C 0.60407 0.60781 0.42902 0.0
H798 H 0.56109 0.63766 0.44986 0.0
H799 H 0.74879 0.52163 0.4567 0.0
H800 H 0.13259 0.29383 0.12495 0.0
H801 H 0.10969 0.32279 0.11118 0.0
H802 H 0.16497 0.34705 0.06487 0.0
H803 H 0.18848 0.31877 0.07948 0.0
H804 H 0.14633 0.38052 0.08638 0.0
H805 H 0.11799 0.31536 0.04288 0.0
H806 H 0.10247 0.27662 0.03783 0.0
H807 H 0.04359 0.2904 0.08016 0.0
H808 H 0.05891 0.32918 0.08575 0.0
H809 H 0.0806 0.44688 0.01507 0.0
H810 H 0.10367 0.41727 0.02743 0.0
H811 H 0.05183 0.39617 0.07926 0.0
H812 H 0.02867 0.42577 0.06693 0.0
H813 H 0.06886 0.36113 0.05408 0.0
H814 H 0.09793 0.42648 0.09762 0.0
H815 H 0.11348 0.4653 0.10168 0.0
H816 H 0.1713 0.45102 0.05795 0.0
H817 H 0.15591 0.41216 0.05331 0.0
C818 C 0.14005 0.30549 0.11208 0.0
C819 C 0.16241 0.3039 0.10331 0.0
C820 C 0.12679 0.32189 0.10399 0.0
C821 C 0.13546 0.33688 0.08668 0.0
C822 C 0.15787 0.33558 0.07813 0.0
C823 C 0.17121 0.31926 0.08634 0.0
C824 C 0.12114 0.35393 0.07756 0.0
C825 C 0.12953 0.37623 0.07899 0.0
C826 C 0.09902 0.34841 0.06834 0.0
C827 C 0.0897 0.32513 0.06491 0.0
C828 C 0.10181 0.31009 0.05126 0.0
C829 C 0.09304 0.28813 0.04827 0.0
C830 C 0.07208 0.28104 0.05871 0.0
C831 C 0.05983 0.29591 0.07211 0.0
C832 C 0.06854 0.31789 0.07517 0.0
C833 C 0.07407 0.43581 0.02897 0.0
C834 C 0.05293 0.43861 0.04013 0.0
C835 C 0.08728 0.41898 0.03608 0.0
C836 C 0.07956 0.4047 0.05445 0.0
C837 C 0.0581 0.40705 0.06508 0.0
C838 C 0.04493 0.42396 0.05806 0.0
C839 C 0.09407 0.38761 0.06294 0.0
C840 C 0.08569 0.36535 0.06141 0.0
C841 C 0.11624 0.39315 0.07195 0.0
C842 C 0.12564 0.41646 0.07492 0.0
C843 C 0.11387 0.43165 0.08871 0.0
C844 C 0.12267 0.45366 0.09114 0.0
C845 C 0.14333 0.46064 0.08002 0.0
C846 C 0.15528 0.4456 0.06652 0.0
C847 C 0.14653 0.42357 0.064 0.0
H848 H 0.15011 0.47769 0.08192 0.0
H849 H 0.06532 0.26403 0.05638 0.0
H850 H 0.60117 0.21944 0.883 0.0
H851 H 0.58205 0.18558 0.89909 0.0
H852 H 0.62219 0.19428 0.96335 0.0
H853 H 0.64138 0.22813 0.94736 0.0
H854 H 0.62024 0.15231 0.94922 0.0
H855 H 0.56539 0.20526 0.96283 0.0
H856 H 0.54067 0.23458 0.95248 0.0
H857 H 0.50508 0.19066 0.9017 0.0
H858 H 0.52981 0.16116 0.91149 0.0
H859 H 0.55019 0.06696 1.01025 0.0
H860 H 0.57033 0.10278 1.00017 0.0
H861 H 0.53723 0.10014 0.93139 0.0
H862 H 0.51721 0.06478 0.94137 0.0
H863 H 0.53583 0.14038 0.95197 0.0
H864 H 0.59284 0.08823 0.93715 0.0
H865 H 0.61721 0.05896 0.94859 0.0
H866 H 0.64832 0.1018 1.00327 0.0
H867 H 0.62388 0.13123 0.99238 0.0
C868 C 0.60578 0.2143 0.90066 0.0
C869 C 0.62285 0.22661 0.91384 0.0
C870 C 0.59483 0.19487 0.90986 0.0
C871 C 0.60046 0.18739 0.93261 0.0
C872 C 0.61754 0.1996 0.94576 0.0
C873 C 0.62855 0.21897 0.93653 0.0
C874 C 0.58864 0.16679 0.94256 0.0
C875 C 0.60177 0.14988 0.95016 0.0
C876 C 0.56453 0.16337 0.94367 0.0
C877 C 0.54959 0.18106 0.93775 0.0
C878 C 0.55241 0.2019 0.94932 0.0
C879 C 0.53837 0.21855 0.94358 0.0
C880 C 0.52135 0.2145 0.9264 0.0
C881 C 0.51829 0.19378 0.91498 0.0
C882 C 0.5323 0.17708 0.92063 0.0
C883 C 0.54732 0.07407 0.99301 0.0
C884 C 0.53218 0.06305 0.97659 0.0
C885 C 0.55884 0.0945 0.98722 0.0
C886 C 0.55538 0.10419 0.96493 0.0
C887 C 0.54016 0.09313 0.94869 0.0
C888 C 0.52878 0.07283 0.95441 0.0
C889 C 0.56741 0.12579 0.95815 0.0
C890 C 0.5543 0.14291 0.95119 0.0
C891 C 0.5915 0.12941 0.95776 0.0
C892 C 0.60637 0.11184 0.96412 0.0
C893 C 0.60477 0.09135 0.95173 0.0
C894 C 0.61861 0.07474 0.95809 0.0
C895 C 0.63426 0.0785 0.97669 0.0
C896 C 0.63616 0.0989 0.9889 0.0
C897 C 0.62233 0.11556 0.98263 0.0
H898 H 0.64495 0.06562 0.9816 0.0
H899 H 0.5105 0.22741 0.92199 0.0
H900 H 0.90974 0.78283 0.43741 0.0
H901 H 0.92785 0.81806 0.45232 0.0
H902 H 0.90103 0.85137 0.39253 0.0
H903 H 0.88318 0.81607 0.37723 0.0
H904 H 0.94578 0.86594 0.40173 0.0
H905 H 0.87568 0.85446 0.44655 0.0
H906 H 0.84736 0.83369 0.4721 0.0
H907 H 0.89719 0.8312 0.52749 0.0
H908 H 0.92592 0.8517 0.50212 0.0
H909 H 0.96997 0.97485 0.45093 0.0
H910 H 0.95115 0.94099 0.43324 0.0
H911 H 0.96789 0.90485 0.49565 0.0
H912 H 0.98594 0.93865 0.51369 0.0
H913 H 0.92682 0.89235 0.48383 0.0
H914 H 0.99742 0.90201 0.43949 0.0
H915 H 0.0267 0.9219 0.41429 0.0
H916 H 0.97757 0.92689 0.35866 0.0
H917 H 0.94791 0.90726 0.38367 0.0
C918 C 0.90791 0.79758 0.42724 0.0
C919 C 0.89492 0.79658 0.40613 0.0
C920 C 0.91812 0.81777 0.43591 0.0
C921 C 0.9156 0.83745 0.42371 0.0
C922 C 0.90315 0.83644 0.40231 0.0
C923 C 0.89282 0.81626 0.39369 0.0
C924 C 0.9256 0.85907 0.43355 0.0
C925 C 0.94142 0.87188 0.41956 0.0
C926 C 0.92029 0.86665 0.457 0.0
C927 C 0.903 0.85444 0.47234 0.0
C928 C 0.88065 0.84934 0.46411 0.0
C929 C 0.86452 0.83764 0.47857 0.0
C930 C 0.87049 0.83108 0.50138 0.0
C931 C 0.8926 0.83627 0.5098 0.0
C932 C 0.9088 0.84795 0.4954 0.0
C933 C 0.96966 0.95967 0.46086 0.0
C934 C 0.97952 0.9595 0.48373 0.0
C935 C 0.95897 0.94026 0.45067 0.0
C936 C 0.95832 0.92015 0.4629 0.0
C937 C 0.96807 0.92006 0.48579 0.0
C938 C 0.97845 0.93946 0.4961 0.0
C939 C 0.94735 0.8992 0.45217 0.0
C940 C 0.93124 0.88651 0.46598 0.0
C941 C 0.95258 0.89165 0.42864 0.0
C942 C 0.97039 0.90337 0.41355 0.0
C943 C 0.99282 0.90748 0.42195 0.0
C944 C 1.00949 0.91869 0.40769 0.0
C945 C 1.00398 0.92571 0.38492 0.0
C946 C 0.9818 0.92147 0.37632 0.0
C947 C 0.96506 0.91029 0.39052 0.0
H948 H 0.01691 0.93438 0.37391 0.0
H949 H 0.85798 0.82202 0.51255 0.0
H950 H 0.35644 0.71022 0.6373 0.0
H951 H 0.37566 0.67808 0.62304 0.0
H952 H 0.42472 0.72083 0.5844 0.0
H953 H 0.40551 0.75311 0.59859 0.0
H954 H 0.41263 0.68387 0.55832 0.0
H955 H 0.43797 0.70092 0.63833 0.0
H956 H 0.4337 0.70879 0.68165 0.0
H957 H 0.39857 0.64474 0.69099 0.0
H958 H 0.40234 0.63661 0.64762 0.0
H959 H 0.49981 0.60979 0.54605 0.0
H960 H 0.47856 0.6412 0.55866 0.0
H961 H 0.4264 0.59659 0.59024 0.0
H962 H 0.44757 0.56496 0.57743 0.0
H963 H 0.43974 0.63405 0.61954 0.0
H964 H 0.41571 0.61711 0.53876 0.0
H965 H 0.42175 0.60953 0.49562 0.0
H966 H 0.45646 0.67397 0.48794 0.0
H967 H 0.45092 0.68183 0.53116 0.0
C968 C 0.37131 0.71279 0.62574 0.0
C969 C 0.37958 0.73424 0.61927 0.0
C970 C 0.38226 0.6944 0.61758 0.0
C971 C 0.40187 0.69706 0.60299 0.0
C972 C 0.40965 0.71838 0.59569 0.0
C973 C 0.39862 0.73681 0.60376 0.0
C974 C 0.4147 0.6777 0.59613 0.0
C975 C 0.41877 0.67314 0.57172 0.0
C976 C 0.42246 0.66346 0.61359 0.0
C977 C 0.42023 0.66825 0.63969 0.0
C978 C 0.42917 0.68858 0.64959 0.0
C979 C 0.42687 0.69308 0.67415 0.0
C980 C 0.41581 0.6773 0.68905 0.0
C981 C 0.40709 0.65696 0.67942 0.0
C982 C 0.40933 0.6524 0.65485 0.0
C983 C 0.48389 0.60668 0.55583 0.0
C984 C 0.47528 0.58497 0.56076 0.0
C985 C 0.47174 0.62462 0.56292 0.0
C986 C 0.45081 0.62118 0.57516 0.0
C987 C 0.4425 0.59955 0.58075 0.0
C988 C 0.45457 0.58154 0.57344 0.0
C989 C 0.43754 0.64022 0.58181 0.0
C990 C 0.43348 0.64475 0.60617 0.0
C991 C 0.42999 0.6545 0.56432 0.0
C992 C 0.43307 0.64998 0.53825 0.0
C993 C 0.42477 0.62961 0.52791 0.0
C994 C 0.42808 0.62527 0.50344 0.0
C995 C 0.43951 0.64124 0.48906 0.0
C996 C 0.44761 0.66161 0.49911 0.0
C997 C 0.44437 0.66603 0.5236 0.0
H998 H 0.44201 0.63785 0.47012 0.0
H999 H 0.41405 0.68081 0.70807 0.0
H1000 H 0.89795 0.90524 0.77125 0.0
H1001 H 0.91874 0.92679 0.74033 0.0
H1002 H 0.93108 0.86669 0.7013 0.0
H1003 H 0.91016 0.84499 0.7321 0.0
H1004 H 0.96925 0.89439 0.70353 0.0
H1005 H 0.89118 0.89935 0.68244 0.0
H1006 H 0.85093 0.90672 0.68907 0.0
H1007 H 0.87114 0.97459 0.70686 0.0
H1008 H 0.91158 0.96754 0.70066 0.0
H1009 H 0.99897 0.94257 0.5904 0.0
H1010 H 0.98366 0.92132 0.62455 0.0
H1011 H 0.97158 0.98195 0.66275 0.0
H1012 H 0.98684 1.00327 0.62853 0.0
H1013 H 0.9339 0.95408 0.6614 0.0
H1014 H 0.0121 0.94804 0.68577 0.0
H1015 H 0.05239 0.94011 0.68019 0.0
H1016 H 0.03139 0.87452 0.65456 0.0
H1017 H 0.99099 0.8819 0.66058 0.0
C1018 C 0.90485 0.89661 0.75595 0.0
C1019 C 0.90231 0.8734 0.75409 0.0
C1020 C 0.9168 0.90895 0.73833 0.0
C1021 C 0.9263 0.89835 0.7184 0.0
C1022 C 0.92394 0.87519 0.71656 0.0
C1023 C 0.91201 0.86283 0.73419 0.0
C1024 C 0.93877 0.91147 0.69955 0.0
C1025 C 0.96143 0.90727 0.69412 0.0
C1026 C 0.92874 0.92856 0.68759 0.0
C1027 C 0.90443 0.93286 0.69133 0.0
C1028 C 0.88706 0.9158 0.68797 0.0
C1029 C 0.86421 0.91993 0.69161 0.0
C1030 C 0.85848 0.94109 0.69845 0.0
C1031 C 0.87561 0.95819 0.7016 0.0
C1032 C 0.8985 0.95415 0.69801 0.0
C1033 C 0.99354 0.95136 0.60631 0.0
C1034 C 0.99409 0.97454 0.60687 0.0
C1035 C 0.98486 0.93921 0.62585 0.0
C1036 C 0.97657 0.95004 0.64628 0.0
C1037 C 0.9779 0.97325 0.64718 0.0
C1038 C 0.98665 0.98541 0.62766 0.0
C1039 C 0.96446 0.93717 0.66557 0.0
C1040 C 0.94178 0.94131 0.67095 0.0
C1041 C 0.97442 0.91999 0.67739 0.0
C1042 C 0.99859 0.91558 0.67343 0.0
C1043 C 0.01611 0.93196 0.67887 0.0
C1044 C 0.03894 0.92751 0.67578 0.0
C1045 C 0.04444 0.90689 0.66686 0.0
C1046 C 0.02711 0.89052 0.66138 0.0
C1047 C 1.00425 0.89476 0.66482 0.0
H1048 H 0.06213 0.90357 0.66426 0.0
H1049 H 0.84078 0.94426 0.70125 0.0
H1050 H 0.6117 0.12706 0.27445 0.0
H1051 H 0.59733 0.10745 0.23827 0.0
H1052 H 0.65835 0.13037 0.19964 0.0
H1053 H 0.67269 0.15039 0.23573 0.0
H1054 H 0.6195 0.1355 0.17416 0.0
H1055 H 0.65161 0.07772 0.21639 0.0
H1056 H 0.658 0.05447 0.25104 0.0
H1057 H 0.58688 0.03212 0.25266 0.0
H1058 H 0.57999 0.0555 0.21822 0.0
H1059 H 0.59102 0.06554 0.07217 0.0
H1060 H 0.61121 0.08381 0.10635 0.0
H1061 H 0.55601 0.06098 0.15357 0.0
H1062 H 0.53613 0.04237 0.11968 0.0
H1063 H 0.59556 0.05525 0.17347 0.0
H1064 H 0.56263 0.11488 0.13394 0.0
H1065 H 0.55542 0.13836 0.0997 0.0
H1066 H 0.6271 0.15743 0.09348 0.0
H1067 H 0.63477 0.13382 0.12752 0.0
C1068 C 0.62204 0.12798 0.25823 0.0
C1069 C 0.64333 0.14028 0.25794 0.0
C1070 C 0.61389 0.11662 0.23763 0.0
C1071 C 0.62687 0.11729 0.21632 0.0
C1072 C 0.64811 0.12958 0.21592 0.0
C1073 C 0.65634 0.14086 0.23659 0.0
C1074 C 0.61793 0.10555 0.19436 0.0
C1075 C 0.61463 0.11788 0.17384 0.0
C1076 C 0.61116 0.08264 0.19414 0.0
C1077 C 0.61526 0.06852 0.21483 0.0
C1078 C 0.63729 0.06799 0.22425 0.0
C1079 C 0.64101 0.05476 0.24383 0.0
C1080 C 0.62285 0.04187 0.25408 0.0
C1081 C 0.60093 0.04214 0.24472 0.0
C1082 C 0.59712 0.05536 0.22515 0.0
C1083 C 0.58325 0.06446 0.08987 0.0
C1084 C 0.56202 0.05261 0.09333 0.0
C1085 C 0.59474 0.07495 0.10936 0.0
C1086 C 0.58503 0.07393 0.13252 0.0
C1087 C 0.56386 0.06196 0.13591 0.0
C1088 C 0.55248 0.05141 0.11651 0.0
C1089 C 0.59676 0.08526 0.15336 0.0
C1090 C 0.6006 0.07284 0.17369 0.0
C1091 C 0.60389 0.1081 0.15345 0.0
C1092 C 0.5993 0.1224 0.13309 0.0
C1093 C 0.57687 0.12396 0.12516 0.0
C1094 C 0.5727 0.13731 0.10581 0.0
C1095 C 0.5908 0.14932 0.09437 0.0
C1096 C 0.6131 0.14808 0.10232 0.0
C1097 C 0.61737 0.13473 0.12165 0.0
H1098 H 0.58753 0.15965 0.07939 0.0
H1099 H 0.62577 0.03163 0.26924 0.0
H1100 H 0.42934 0.60851 0.27187 0.0
H1101 H 0.44319 0.58776 0.30513 0.0
H1102 H 0.41543 0.63356 0.35568 0.0
H1103 H 0.40169 0.65446 0.32249 0.0
H1104 H 0.45651 0.62571 0.36902 0.0
H1105 H 0.39019 0.57991 0.34499 0.0
H1106 H 0.36491 0.55801 0.3169 0.0
H1107 H 0.41795 0.51489 0.30149 0.0
H1108 H 0.44366 0.53671 0.32926 0.0
H1109 H 0.46585 0.56363 0.47395 0.0
H1110 H 0.4502 0.5819 0.43998 0.0
H1111 H 0.48371 0.53871 0.391 0.0
H1112 H 0.49941 0.52015 0.42501 0.0
H1113 H 0.44003 0.5447 0.37667 0.0
H1114 H 0.50602 0.59042 0.40111 0.0
H1115 H 0.53071 0.61153 0.43019 0.0
H1116 H 0.47778 0.6549 0.44519 0.0
H1117 H 0.45247 0.63361 0.41657 0.0
C1118 C 0.42592 0.61403 0.29006 0.0
C1119 C 0.41434 0.63319 0.29443 0.0
C1120 C 0.43388 0.60212 0.30912 0.0
C1121 C 0.4302 0.60888 0.33306 0.0
C1122 C 0.41858 0.62797 0.33744 0.0
C1123 C 0.41075 0.63995 0.3184 0.0
C1124 C 0.43889 0.59644 0.3535 0.0
C1125 C 0.45258 0.60805 0.37082 0.0
C1126 C 0.43434 0.57325 0.35571 0.0
C1127 C 0.41892 0.56009 0.33902 0.0
C1128 C 0.39652 0.56587 0.33546 0.0
C1129 C 0.38211 0.55345 0.31963 0.0
C1130 C 0.38984 0.53511 0.30737 0.0
C1131 C 0.41199 0.52912 0.31097 0.0
C1132 C 0.42649 0.54149 0.32677 0.0
C1133 C 0.46986 0.55787 0.45599 0.0
C1134 C 0.48404 0.54042 0.4523 0.0
C1135 C 0.46091 0.56843 0.43653 0.0
C1136 C 0.46595 0.56189 0.41285 0.0
C1137 C 0.47959 0.5441 0.40907 0.0
C1138 C 0.48863 0.53354 0.42857 0.0
C1139 C 0.45746 0.57403 0.39214 0.0
C1140 C 0.44387 0.56236 0.37481 0.0
C1141 C 0.46203 0.59718 0.38993 0.0
C1142 C 0.47728 0.61029 0.40685 0.0
C1143 C 0.49957 0.60436 0.41073 0.0
C1144 C 0.51369 0.61637 0.42714 0.0
C1145 C 0.50583 0.63455 0.43958 0.0
C1146 C 0.48383 0.64078 0.43557 0.0
C1147 C 0.46958 0.62873 0.41926 0.0
H1148 H 0.51678 0.64384 0.4523 0.0
H1149 H 0.37865 0.52551 0.29512 0.0
H1150 H 0.15913 0.42982 0.81788 0.0
H1151 H 0.1384 0.44439 0.85212 0.0
H1152 H 0.07451 0.42212 0.81903 0.0
H1153 H 0.09518 0.40815 0.78422 0.0
H1154 H 0.07213 0.4625 0.83651 0.0
H1155 H 0.09487 0.39525 0.86726 0.0
H1156 H 0.12119 0.36705 0.87679 0.0
H1157 H 0.15974 0.41396 0.92212 0.0
H1158 H 0.13383 0.44255 0.91259 0.0
H1159 H 0.02829 0.46971 0.96883 0.0
H1160 H 0.04535 0.44869 0.93602 0.0
H1161 H 0.07482 0.50953 0.90613 0.0
H1162 H 0.05803 0.53053 0.93886 0.0
H1163 H 0.09004 0.44552 0.9206 0.0
H1164 H 0.06947 0.50521 0.84495 0.0
H1165 H 0.04011 0.53063 0.83584 0.0
H1166 H 0.99183 0.49347 0.88061 0.0
H1167 H 0.02071 0.46761 0.8896 0.0
C1168 C 0.14066 0.4281 0.81776 0.0
C1169 C 0.12886 0.41784 0.79816 0.0
C1170 C 0.1288 0.43624 0.83754 0.0
C1171 C 0.10484 0.43419 0.83837 0.0
C1172 C 0.09298 0.42387 0.81889 0.0
C1173 C 0.10485 0.41571 0.79906 0.0
C1174 C 0.09226 0.44348 0.85919 0.0
C1175 C 0.07605 0.45872 0.85486 0.0
C1176 C 0.09688 0.43824 0.88323 0.0
C1177 C 0.11251 0.42109 0.88905 0.0
C1178 C 0.10906 0.3996 0.87912 0.0
C1179 C 0.12389 0.38354 0.88455 0.0
C1180 C 0.14215 0.38872 0.90001 0.0
C1181 C 0.14559 0.40997 0.91013 0.0
C1182 C 0.13083 0.42611 0.90474 0.0
C1183 C 0.03855 0.47856 0.95533 0.0
C1184 C 0.04175 0.50177 0.95635 0.0
C1185 C 0.04831 0.46653 0.93664 0.0
C1186 C 0.06117 0.47753 0.91846 0.0
C1187 C 0.06474 0.50069 0.91977 0.0
C1188 C 0.05519 0.51267 0.93854 0.0
C1189 C 0.07057 0.46501 0.89783 0.0
C1190 C 0.08613 0.4492 0.90221 0.0
C1191 C 0.06499 0.46935 0.87383 0.0
C1192 C 0.04736 0.48461 0.86813 0.0
C1193 C 0.05255 0.5024 0.85274 0.0
C1194 C 0.03598 0.51688 0.8476 0.0
C1195 C 0.01413 0.5137 0.85767 0.0
C1196 C 1.00876 0.49596 0.87284 0.0
C1197 C 0.02524 0.4814 0.87799 0.0
H1198 H 1.00134 0.52495 0.8537 0.0
H1199 H 0.15361 0.37626 0.9042 0.0
H1200 H 0.73664 0.93031 0.90644 0.0
H1201 H 0.70395 0.94666 0.92511 0.0
H1202 H 0.66261 0.88554 0.91347 0.0
H1203 H 0.69519 0.86917 0.89427 0.0
H1204 H 0.6407 0.92181 0.90053 0.0
H1205 H 0.68174 0.89926 0.96868 0.0
H1206 H 0.71556 0.89704 0.994 0.0
H1207 H 0.72121 0.96766 1.00349 0.0
H1208 H 0.68759 0.97033 0.97794 0.0
H1209 H 0.54701 0.95107 0.97225 0.0
H1210 H 0.57895 0.93262 0.95487 0.0
H1211 H 0.62474 0.98937 0.97344 0.0
H1212 H 0.59296 1.00752 0.99177 0.0
H1213 H 0.64416 0.95401 0.98309 0.0
H1214 H 0.60462 0.97737 0.91426 0.0
H1215 H 0.5714 0.98052 0.88829 0.0
H1216 H 0.56363 0.9099 0.87907 0.0
H1217 H 0.59664 0.90631 0.90525 0.0
C1218 C 0.72057 0.92037 0.90774 0.0
C1219 C 0.71851 0.89844 0.89885 0.0
C1220 C 0.70195 0.92968 0.9186 0.0
C1221 C 0.6809 0.91726 0.92087 0.0
C1222 C 0.67873 0.89539 0.91196 0.0
C1223 C 0.69739 0.88601 0.90117 0.0
C1224 C 0.6611 0.92726 0.93223 0.0
C1225 C 0.64129 0.92857 0.91871 0.0
C1226 C 0.66213 0.93658 0.95572 0.0
C1227 C 0.68226 0.935 0.97122 0.0
C1228 C 0.69029 0.91433 0.97602 0.0
C1229 C 0.70941 0.91299 0.99044 0.0
C1230 C 0.72056 0.9322 1.0003 0.0
C1231 C 0.71257 0.9528 0.99582 0.0
C1232 C 0.69347 0.95423 0.98139 0.0
C1233 C 0.56388 0.95965 0.97256 0.0
C1234 C 0.56746 0.98079 0.98329 0.0
C1235 C 0.58213 0.94911 0.96252 0.0
C1236 C 0.60425 0.95972 0.96243 0.0
C1237 C 0.60786 0.98082 0.97326 0.0
C1238 C 0.58967 0.99121 0.98369 0.0
C1239 C 0.6237 0.94877 0.95133 0.0
C1240 C 0.64347 0.94725 0.96491 0.0
C1241 C 0.6227 0.93943 0.9278 0.0
C1242 C 0.60297 0.94157 0.9119 0.0
C1243 C 0.59573 0.96251 0.90682 0.0
C1244 C 0.57696 0.96437 0.89205 0.0
C1245 C 0.56538 0.94542 0.88209 0.0
C1246 C 0.5726 0.92457 0.88682 0.0
C1247 C 0.59135 0.92261 0.90161 0.0
H1248 H 0.55084 0.9469 0.87067 0.0
H1249 H 0.73536 0.93113 1.01146 0.0
H1250 H 0.80078 0.12489 0.44855 0.0
H1251 H 0.83302 0.10924 0.46741 0.0
H1252 H 0.86943 0.11061 0.39977 0.0
H1253 H 0.83726 0.12634 0.38078 0.0
H1254 H 0.87248 0.07187 0.42094 0.0
H1255 H 0.88436 0.14795 0.44463 0.0
H1256 H 0.87407 0.18371 0.46165 0.0
H1257 H 0.86019 0.15386 0.52997 0.0
H1258 H 0.87008 0.11783 0.51326 0.0
H1259 H 0.9771 0.0457 0.47413 0.0
H1260 H 0.949 0.06543 0.45255 0.0
H1261 H 0.90585 0.06436 0.51573 0.0
H1262 H 0.93393 0.0449 0.53727 0.0
H1263 H 0.90859 0.10462 0.49484 0.0
H1264 H 0.89478 0.02808 0.47003 0.0
H1265 H 0.90601 0.99263 0.45304 0.0
H1266 H 0.92435 0.02394 0.38644 0.0
H1267 H 0.91358 0.05969 0.40319 0.0
C1268 C 0.81577 0.12217 0.43774 0.0
C1269 C 0.81643 0.12693 0.41315 0.0
C1270 C 0.83419 0.11317 0.44855 0.0
C1271 C 0.85377 0.10892 0.43506 0.0
C1272 C 0.85451 0.11369 0.41052 0.0
C1273 C 0.83607 0.12265 0.39969 0.0
C1274 C 0.87324 0.09908 0.44649 0.0
C1275 C 0.88062 0.07924 0.43687 0.0
C1276 C 0.88368 0.10848 0.46749 0.0
C1277 C 0.87777 0.13014 0.47763 0.0
C1278 C 0.87894 0.14897 0.46323 0.0
C1279 C 0.87321 0.16929 0.47283 0.0
C1280 C 0.86643 0.17104 0.49686 0.0
C1281 C 0.86542 0.15248 0.51135 0.0
C1282 C 0.87111 0.1321 0.50184 0.0
C1283 C 0.9617 0.04982 0.48337 0.0
C1284 C 0.95768 0.0438 0.50731 0.0
C1285 C 0.94561 0.061 0.47104 0.0
C1286 C 0.92524 0.06625 0.4825 0.0
C1287 C 0.92145 0.06053 0.50655 0.0
C1288 C 0.93746 0.04933 0.5188 0.0
C1289 C 0.90758 0.07733 0.46946 0.0
C1290 C 0.90054 0.09738 0.47879 0.0
C1291 C 0.89752 0.06816 0.44818 0.0
C1292 C 0.90361 0.0466 0.43795 0.0
C1293 C 0.90136 0.02744 0.45181 0.0
C1294 C 0.90762 1.00729 0.44223 0.0
C1295 C 0.91595 1.00605 0.4187 0.0
C1296 C 0.91794 0.02494 0.40468 0.0
C1297 C 0.91175 0.04515 0.41421 0.0
H1298 H 0.92082 0.99044 0.41132 0.0
H1299 H 0.862 0.18679 0.50426 0.0
H1300 H 0.24536 0.58796 0.13412 0.0
H1301 H 0.21037 0.57412 0.11392 0.0
H1302 H 0.19293 0.641 0.10393 0.0
H1303 H 0.22768 0.65502 0.12493 0.0
H1304 H 0.15631 0.61539 0.11886 0.0
H1305 H 0.21284 0.61006 0.05701 0.0
H1306 H 0.24889 0.59938 0.03882 0.0
H1307 H 0.22773 0.53085 0.04901 0.0
H1308 H 0.19166 0.54112 0.06757 0.0
H1309 H 0.065 0.5825 0.03913 0.0
H1310 H 0.10036 0.59979 0.05618 0.0
H1311 H 0.12389 0.53537 0.06792 0.0
H1312 H 0.08888 0.51799 0.05053 0.0
H1313 H 0.15754 0.56195 0.05036 0.0
H1314 H 0.10213 0.56717 0.11403 0.0
H1315 H 0.06599 0.57751 0.13232 0.0
H1316 H 0.08502 0.64594 0.11886 0.0
H1317 H 0.12116 0.63596 0.10018 0.0
C1318 C 0.23405 0.59979 0.12779 0.0
C1319 C 0.2394 0.62265 0.13125 0.0
C1320 C 0.21411 0.59182 0.11598 0.0
C1321 C 0.19905 0.60649 0.10711 0.0
C1322 C 0.20428 0.62934 0.11052 0.0
C1323 C 0.22428 0.63734 0.12236 0.0
C1324 C 0.17771 0.59787 0.09469 0.0
C1325 C 0.15662 0.604 0.10362 0.0
C1326 C 0.17797 0.58263 0.07509 0.0
C1327 C 0.19962 0.57638 0.06387 0.0
C1328 C 0.21594 0.59272 0.05553 0.0
C1329 C 0.23637 0.58674 0.04513 0.0
C1330 C 0.24062 0.56445 0.04281 0.0
C1331 C 0.22442 0.5481 0.05084 0.0
C1332 C 0.20397 0.55399 0.06128 0.0
C1333 C 0.07769 0.57199 0.04531 0.0
C1334 C 0.07398 0.54881 0.0435 0.0
C1335 C 0.09791 0.58192 0.05517 0.0
C1336 C 0.11476 0.56892 0.06364 0.0
C1337 C 0.1112 0.5458 0.06155 0.0
C1338 C 0.09107 0.53587 0.05163 0.0
C1339 C 0.13613 0.57926 0.0747 0.0
C1340 C 0.15724 0.57345 0.0655 0.0
C1341 C 0.13587 0.59475 0.09407 0.0
C1342 C 0.11424 0.60079 0.10548 0.0
C1343 C 0.09854 0.5844 0.11482 0.0
C1344 C 0.07806 0.5902 0.12527 0.0
C1345 C 0.07318 0.61236 0.12669 0.0
C1346 C 0.08881 0.62878 0.11772 0.0
C1347 C 0.1093 0.62306 0.10721 0.0
H1348 H 0.05732 0.61682 0.13478 0.0
H1349 H 0.25645 0.55986 0.03475 0.0
H1350 H 0.301 0.42096 0.6474 0.0
H1351 H 0.33567 0.44023 0.63078 0.0
H1352 H 0.32208 0.40819 0.56208 0.0
H1353 H 0.28746 0.38908 0.57844 0.0
H1354 H 0.36534 0.40535 0.57411 0.0
H1355 H 0.31401 0.46329 0.57256 0.0
H1356 H 0.28702 0.4886 0.58974 0.0
H1357 H 0.33859 0.51639 0.6379 0.0
H1358 H 0.36582 0.49101 0.62122 0.0
H1359 H 0.44102 0.46547 0.49723 0.0
H1360 H 0.40589 0.45134 0.51737 0.0
H1361 H 0.42904 0.48317 0.58356 0.0
H1362 H 0.46441 0.49747 0.56336 0.0
H1363 H 0.38251 0.48674 0.57582 0.0
H1364 H 0.43416 0.42973 0.57644 0.0
H1365 H 0.46129 0.40471 0.55899 0.0
H1366 H 0.40901 0.37514 0.51273 0.0
H1367 H 0.38163 0.40023 0.52967 0.0
C1368 C 0.30522 0.41824 0.62867 0.0
C1369 C 0.29145 0.40331 0.61433 0.0
C1370 C 0.32509 0.42926 0.61918 0.0
C1371 C 0.33153 0.42574 0.59511 0.0
C1372 C 0.31762 0.41111 0.58073 0.0
C1373 C 0.29783 0.4001 0.59016 0.0
C1374 C 0.35308 0.4366 0.58495 0.0
C1375 C 0.36892 0.42316 0.57427 0.0
C1376 C 0.35821 0.45983 0.58577 0.0
C1377 C 0.34187 0.47507 0.59583 0.0
C1378 C 0.31953 0.47466 0.58696 0.0
C1379 C 0.30421 0.48904 0.59658 0.0
C1380 C 0.31107 0.50404 0.61495 0.0
C1381 C 0.33329 0.50473 0.6237 0.0
C1382 C 0.34868 0.49036 0.61416 0.0
C1383 C 0.43858 0.46963 0.51602 0.0
C1384 C 0.45558 0.4824 0.52876 0.0
C1385 C 0.4185 0.46149 0.52754 0.0
C1386 C 0.41494 0.4659 0.55208 0.0
C1387 C 0.43144 0.47948 0.56464 0.0
C1388 C 0.45165 0.4876 0.5531 0.0
C1389 C 0.39443 0.45546 0.56462 0.0
C1390 C 0.3789 0.46893 0.57579 0.0
C1391 C 0.38954 0.43223 0.56431 0.0
C1392 C 0.4059 0.417 0.55418 0.0
C1393 C 0.42849 0.41801 0.56242 0.0
C1394 C 0.44391 0.4038 0.55264 0.0
C1395 C 0.43689 0.38838 0.53472 0.0
C1396 C 0.41442 0.38711 0.52659 0.0
C1397 C 0.39894 0.40131 0.53629 0.0
H1398 H 0.44885 0.37739 0.52717 0.0
H1399 H 0.29918 0.51517 0.62237 0.0
H1400 H 0.89184 0.73771 0.90231 0.0
H1401 H 0.91456 0.70865 0.91632 0.0
H1402 H 0.85719 0.68161 0.95808 0.0
H1403 H 0.8341 0.71037 0.94373 0.0
H1404 H 0.89693 0.68656 0.98391 0.0
H1405 H 0.87244 0.65544 0.90764 0.0
H1406 H 0.86705 0.65519 0.86383 0.0
H1407 H 0.93953 0.66493 0.85293 0.0
H1408 H 0.94534 0.66554 0.89671 0.0
H1409 H 0.94133 0.58436 0.01259 0.0
H1410 H 0.91889 0.61429 0.99988 0.0
H1411 H 0.97411 0.63804 0.95318 0.0
H1412 H 0.99654 0.60803 0.96583 0.0
H1413 H 0.93519 0.6348 0.92974 0.0
H1414 H 0.96052 0.66971 1.00363 0.0
H1415 H 0.96745 0.67569 0.04694 0.0
H1416 H 0.89604 0.66153 0.06186 0.0
H1417 H 0.88868 0.65566 0.01859 0.0
C1418 C 0.88387 0.72538 0.91413 0.0
C1419 C 0.86107 0.72638 0.92182 0.0
C1420 C 0.89694 0.70881 0.92219 0.0
C1421 C 0.88751 0.69287 0.93809 0.0
C1422 C 0.8648 0.69377 0.94582 0.0
C1423 C 0.85167 0.71029 0.93768 0.0
C1424 C 0.90162 0.67575 0.9473 0.0
C1425 C 0.90499 0.67496 0.97212 0.0
C1426 C 0.91276 0.66118 0.93181 0.0
C1427 C 0.9093 0.66074 0.90547 0.0
C1428 C 0.88722 0.65771 0.89591 0.0
C1429 C 0.88409 0.65747 0.87108 0.0
C1430 C 0.90293 0.6601 0.85561 0.0
C1431 C 0.92494 0.66292 0.86494 0.0
C1432 C 0.92817 0.66319 0.88976 0.0
C1433 C 0.94878 0.59618 0.99991 0.0
C1434 C 0.97067 0.59397 0.99027 0.0
C1435 C 0.93598 0.61332 0.99269 0.0
C1436 C 0.94487 0.62855 0.9757 0.0
C1437 C 0.96691 0.62651 0.96634 0.0
C1438 C 0.97972 0.6094 0.97359 0.0
C1439 C 0.93058 0.64559 0.96645 0.0
C1440 C 0.9271 0.64632 0.94159 0.0
C1441 C 0.91954 0.6603 0.98187 0.0
C1442 C 0.9241 0.66205 1.00794 0.0
C1443 C 0.94635 0.66763 0.01618 0.0
C1444 C 0.95031 0.67122 0.04069 0.0
C1445 C 0.93217 0.66911 0.05712 0.0
C1446 C 0.91005 0.66325 0.0491 0.0
C1447 C 0.90597 0.65986 0.02459 0.0
H1448 H 0.93528 0.67188 0.07608 0.0
H1449 H 0.90047 0.6599 0.83639 0.0
H1450 H 0.37135 0.8114 0.10609 0.0
H1451 H 0.39079 0.84506 0.09005 0.0
H1452 H 0.45582 0.8218 0.10785 0.0
H1453 H 0.43646 0.78796 0.12385 0.0
H1454 H 0.45456 0.86442 0.12025 0.0
H1455 H 0.43551 0.82026 0.0497 0.0
H1456 H 0.41035 0.79838 0.0215 0.0
H1457 H 0.37212 0.85471 1.01053 0.0
H1458 H 0.39678 0.87682 0.03902 0.0
H1459 H 0.52538 0.94181 0.05602 0.0
H1460 H 0.50526 0.90729 0.06907 0.0
H1461 H 0.44123 0.93111 0.04842 0.0
H1462 H 0.4615 0.96555 0.03464 0.0
H1463 H 0.44134 0.8885 0.0374 0.0
H1464 H 0.45903 0.93246 0.10801 0.0
H1465 H 0.48377 0.95502 0.13605 0.0
H1466 H 0.5236 0.89981 0.14704 0.0
H1467 H 0.49928 0.877 0.11881 0.0
C1468 C 0.38981 0.8133 0.10642 0.0
C1469 C 0.4023 0.79678 0.11615 0.0
C1470 C 0.40093 0.83262 0.09721 0.0
C1471 C 0.42484 0.83591 0.09734 0.0
C1472 C 0.43736 0.81968 0.10747 0.0
C1473 C 0.42624 0.80034 0.11672 0.0
C1474 C 0.43678 0.8564 0.08728 0.0
C1475 C 0.45188 0.86948 0.10201 0.0
C1476 C 0.43284 0.86349 0.0637 0.0
C1477 C 0.41785 0.85013 0.04673 0.0
C1478 C 0.42159 0.82792 0.04148 0.0
C1479 C 0.40744 0.81548 0.02541 0.0
C1480 C 0.3896 0.82512 0.01429 0.0
C1481 C 0.3859 0.84724 0.0192 0.0
C1482 C 0.39996 0.85973 0.03531 0.0
C1483 C 0.50702 0.93962 0.05406 0.0
C1484 C 0.495 0.95647 0.04452 0.0
C1485 C 0.4955 0.91991 0.06168 0.0
C1486 C 0.4716 0.91671 0.06033 0.0
C1487 C 0.45963 0.93319 0.04985 0.0
C1488 C 0.47122 0.95288 0.04199 0.0
C1489 C 0.4592 0.89642 0.07033 0.0
C1490 C 0.44399 0.88341 0.05563 0.0
C1491 C 0.4629 0.88945 0.094 0.0
C1492 C 0.47746 0.90308 0.11113 0.0
C1493 C 0.47316 0.92517 0.11629 0.0
C1494 C 0.4871 0.938 0.13223 0.0
C1495 C 0.50528 0.92887 0.14328 0.0
C1496 C 0.50953 0.90687 0.13845 0.0
C1497 C 0.49566 0.89397 0.1225 0.0
H1498 H 0.51605 0.93883 0.15561 0.0
H1499 H 0.37869 0.81548 1.00182 0.0
H1500 H 0.12045 0.25249 0.60169 0.0
H1501 H 0.10657 0.2177 0.58189 0.0
H1502 H 0.09697 0.18717 0.65082 0.0
H1503 H 0.11152 0.22162 0.67066 0.0
H1504 H 0.11525 0.15954 0.61962 0.0
H1505 H 0.05192 0.20507 0.61956 0.0
H1506 H 0.03217 0.23841 0.61119 0.0
H1507 H 0.04471 0.22937 0.53572 0.0
H1508 H 0.06482 0.19612 0.54367 0.0
H1509 H 0.04144 0.06598 0.58633 0.0
H1510 H 0.05796 0.10066 0.60408 0.0
H1511 H 0.06615 0.12849 0.53366 0.0
H1512 H 0.04931 0.09397 0.51574 0.0
H1513 H 0.04957 0.15765 0.56435 0.0
H1514 H 0.11189 0.11134 0.56436 0.0
H1515 H 0.13121 0.07777 0.57281 0.0
H1516 H 0.12041 0.0881 0.64839 0.0
H1517 H 0.10073 0.12158 0.64037 0.0
C1518 C 0.11565 0.23831 0.61264 0.0
C1519 C 0.11699 0.23997 0.63783 0.0
C1520 C 0.10749 0.21846 0.60129 0.0
C1521 C 0.10038 0.19983 0.61485 0.0
C1522 C 0.10223 0.20129 0.63993 0.0
C1523 C 0.11037 0.22111 0.65128 0.0
C1524 C 0.09082 0.17887 0.60302 0.0
C1525 C 0.10073 0.15911 0.60775 0.0
C1526 C 0.07219 0.17828 0.58705 0.0
C1527 C 0.06009 0.19825 0.58223 0.0
C1528 C 0.05063 0.2103 0.60119 0.0
C1529 C 0.03934 0.22916 0.59652 0.0
C1530 C 0.03724 0.23604 0.57294 0.0
C1531 C 0.04638 0.22404 0.55398 0.0
C1532 C 0.05772 0.20518 0.55855 0.0
C1533 C 0.04677 0.07942 0.57455 0.0
C1534 C 0.04406 0.07705 0.54954 0.0
C1535 C 0.05633 0.09927 0.58476 0.0
C1536 C 0.0636 0.11717 0.57022 0.0
C1537 C 0.06073 0.11494 0.54528 0.0
C1538 C 0.05114 0.09511 0.53505 0.0
C1539 C 0.07392 0.13829 0.58105 0.0
C1540 C 0.06416 0.15809 0.57614 0.0
C1541 C 0.09268 0.13891 0.59685 0.0
C1542 C 0.10465 0.11886 0.60174 0.0
C1543 C 0.11349 0.10637 0.58277 0.0
C1544 C 0.12453 0.08737 0.58748 0.0
C1545 C 0.12699 0.08077 0.61112 0.0
C1546 C 0.11847 0.09321 0.63009 0.0
C1547 C 0.10739 0.11222 0.62548 0.0
H1548 H 0.13553 0.06605 0.61473 0.0
H1549 H 0.02849 0.25064 0.56936 0.0
H1550 H 0.62661 0.27515 0.42759 0.0
H1551 H 0.60483 0.30723 0.4357 0.0
H1552 H 0.66748 0.34817 0.44573 0.0
H1553 H 0.68941 0.31616 0.43753 0.0
H1554 H 0.63601 0.35718 0.47969 0.0
H1555 H 0.63791 0.34913 0.39357 0.0
H1556 H 0.63236 0.32913 0.35484 0.0
H1557 H 0.56072 0.3176 0.37015 0.0
H1558 H 0.5659 0.33728 0.40913 0.0
H1559 H 0.59038 0.46121 0.47351 0.0
H1560 H 0.61227 0.42942 0.46393 0.0
H1561 H 0.54963 0.38862 0.45303 0.0
H1562 H 0.52767 0.42048 0.46225 0.0
H1563 H 0.58103 0.37951 0.41961 0.0
H1564 H 0.57841 0.3872 0.50521 0.0
H1565 H 0.58312 0.40709 0.5441 0.0
H1566 H 0.65505 0.41869 0.53051 0.0
H1567 H 0.6507 0.39918 0.49133 0.0
C1568 C 0.63578 0.291 0.43138 0.0
C1569 C 0.65978 0.29309 0.43175 0.0
C1570 C 0.62329 0.30933 0.43606 0.0
C1571 C 0.63452 0.33019 0.44102 0.0
C1572 C 0.65845 0.33225 0.44195 0.0
C1573 C 0.67096 0.31391 0.43732 0.0
C1574 C 0.62133 0.34991 0.44491 0.0
C1575 C 0.62422 0.36224 0.46641 0.0
C1576 C 0.60551 0.35621 0.42786 0.0
C1577 C 0.60234 0.3445 0.40436 0.0
C1578 C 0.621 0.34219 0.38875 0.0
C1579 C 0.61792 0.33093 0.36674 0.0
C1580 C 0.59621 0.32205 0.36007 0.0
C1581 C 0.57753 0.32446 0.37536 0.0
C1582 C 0.58053 0.33568 0.3974 0.0
C1583 C 0.5813 0.44552 0.46877 0.0
C1584 C 0.55735 0.44325 0.46869 0.0
C1585 C 0.59381 0.42734 0.46346 0.0
C1586 C 0.58259 0.40654 0.45817 0.0
C1587 C 0.55865 0.40448 0.45715 0.0
C1588 C 0.54613 0.42268 0.46242 0.0
C1589 C 0.59576 0.38681 0.45434 0.0
C1590 C 0.59284 0.37447 0.43287 0.0
C1591 C 0.61145 0.38043 0.4715 0.0
C1592 C 0.61419 0.39191 0.49521 0.0
C1593 C 0.59521 0.39413 0.51043 0.0
C1594 C 0.59781 0.40531 0.53254 0.0
C1595 C 0.61936 0.41419 0.53974 0.0
C1596 C 0.63836 0.41183 0.52488 0.0
C1597 C 0.63584 0.40069 0.50273 0.0
H1598 H 0.62133 0.42284 0.55686 0.0
H1599 H 0.59385 0.31334 0.34302 0.0
loop_
_geom_bond_atom_site_label_1
_geom_bond_atom_site_label_2
_geom_bond_distance
_geom_bond_site_symmetry_2
_ccdc_geom_bond_type
C0 C1 1.264 . S
C0 C5 1.479 . S
C0 C10 1.465 . S
C1 C0 1.264 . S
C1 C3 1.339 . S
C1 H28 0.931 . S
C2 C3 1.395 . S
C2 C4 1.320 . S
C3 C1 1.339 . S
C3 C2 1.395 . S
C3 H29 0.929 . S
C4 C2 1.320 . S
C4 C5 1.405 . S
C4 H30 0.930 . S
C5 C0 1.479 . S
C5 C4 1.405 . S
C5 H31 0.931 . S
U6 O7 2.454 . S
U6 O8 2.458 . S
U6 C9 2.984 . S
U6 C10 2.847 . S
U6 C23 2.882 . S
U6 O24 2.441 . S
U6 O25 2.420 . S
U6 O26 2.455 . S
U6 O27 2.449 . S
O7 U6 2.454 . S
O7 C9 1.353 . S
O8 U6 2.458 . S
O8 C9 1.286 . S
C9 U6 2.984 . S
C9 O7 1.353 . S
C9 O8 1.286 . S
C9 C11 1.363 . S
C10 C0 1.465 . S
C10 U6 2.847 . S
C10 O24 1.249 . S
C10 O25 1.202 . S
C11 C9 1.363 . S
C11 C13 1.408 . S
C11 C16 1.342 . S
C12 C13 1.310 . S
C12 C15 1.461 . S
C12 H32 0.932 . S
C13 C11 1.408 . S
C13 C12 1.310 . S
C13 H33 0.930 . S
C14 C15 1.474 . S
C14 C16 1.285 . S
C14 H34 0.929 . S
C15 C12 1.461 . S
C15 C14 1.474 . S
C16 C11 1.342 . S
C16 C14 1.285 . S
C16 H35 0.930 . S
C17 C20 1.424 . S
C17 C22 1.245 . S
C17 C23 1.428 . S
C18 C21 1.260 . S
C18 C22 1.477 . S
C18 H36 0.932 . S
C19 C20 1.384 . S
C19 C21 1.479 . S
C19 H37 0.929 . S
C20 C17 1.424 . S
C20 C19 1.384 . S
C20 H38 0.928 . S
C21 C18 1.260 . S
C21 C19 1.479 . S
C22 C17 1.245 . S
C22 C18 1.477 . S
C22 H39 0.932 . S
C23 U6 2.882 . S
C23 C17 1.428 . S
C23 O26 1.301 . S
C23 O27 1.282 . S
O24 U6 2.441 . S
O24 C10 1.249 . S
O25 U6 2.420 . S
O25 C10 1.202 . S
O26 U6 2.455 . S
O26 C23 1.301 . S
O27 U6 2.449 . S
O27 C23 1.282 . S
H28 C1 0.931 . S
H29 C3 0.929 . S
H30 C4 0.930 . S
H31 C5 0.931 . S
H32 C12 0.932 . S
H33 C13 0.930 . S
H34 C14 0.929 . S
H35 C16 0.930 . S
H36 C18 0.932 . S
H37 C19 0.929 . S
H38 C20 0.928 . S
H39 C22 0.932 . S
C40 C41 1.264 . S
C40 C45 1.479 . S
C40 C50 1.465 . S
C41 C40 1.264 . S
C41 C43 1.339 . S
C41 H68 0.931 . S
C42 C43 1.395 . S
C42 C44 1.320 . S
C43 C41 1.339 . S
C43 C42 1.395 . S
C43 H69 0.929 . S
C44 C42 1.320 . S
C44 C45 1.405 . S
C44 H70 0.930 . S
C45 C40 1.479 . S
C45 C44 1.405 . S
C45 H71 0.931 . S
U46 O47 2.454 . S
U46 O48 2.458 . S
U46 C49 2.984 . S
U46 C50 2.847 . S
U46 C63 2.882 . S
U46 O64 2.441 . S
U46 O65 2.420 . S
U46 O66 2.455 . S
U46 O67 2.449 . S
O47 U46 2.454 . S
O47 C49 1.353 . S
O48 U46 2.458 . S
O48 C49 1.286 . S
C49 U46 2.984 . S
C49 O47 1.353 . S
C49 O48 1.286 . S
C49 C51 1.363 . S
C50 C40 1.465 . S
C50 U46 2.847 . S
C50 O64 1.249 . S
C50 O65 1.202 . S
C51 C49 1.363 . S
C51 C53 1.408 . S
C51 C56 1.342 . S
C52 C53 1.310 . S
C52 C55 1.461 . S
C52 H72 0.932 . S
C53 C51 1.408 . S
C53 C52 1.310 . S
C53 H73 0.930 . S
C54 C55 1.474 . S
C54 C56 1.285 . S
C54 H74 0.929 . S
C55 C52 1.461 . S
C55 C54 1.474 . S
C56 C51 1.342 . S
C56 C54 1.285 . S
C56 H75 0.930 . S
C57 C60 1.424 . S
C57 C62 1.245 . S
C57 C63 1.428 . S
C58 C61 1.260 . S
C58 C62 1.477 . S
C58 H76 0.932 . S
C59 C60 1.384 . S
C59 C61 1.479 . S
C59 H77 0.929 . S
C60 C57 1.424 . S
C60 C59 1.384 . S
C60 H78 0.928 . S
C61 C58 1.260 . S
C61 C59 1.479 . S
C62 C57 1.245 . S
C62 C58 1.477 . S
C62 H79 0.932 . S
C63 U46 2.882 . S
C63 C57 1.428 . S
C63 O66 1.301 . S
C63 O67 1.282 . S
O64 U46 2.441 . S
O64 C50 1.249 . S
O65 U46 2.420 . S
O65 C50 1.202 . S
O66 U46 2.455 . S
O66 C63 1.301 . S
O67 U46 2.449 . S
O67 C63 1.282 . S
H68 C41 0.931 . S
H69 C43 0.929 . S
H70 C44 0.930 . S
H71 C45 0.931 . S
H72 C52 0.932 . S
H73 C53 0.930 . S
H74 C54 0.929 . S
H75 C56 0.930 . S
H76 C58 0.932 . S
H77 C59 0.929 . S
H78 C60 0.928 . S
H79 C62 0.932 . S
C80 C81 1.264 . S
C80 C85 1.479 . S
C80 C90 1.465 . S
C81 C80 1.264 . S
C81 C83 1.339 . S
C81 H108 0.931 . S
C82 C83 1.395 . S
C82 C84 1.320 . S
C83 C81 1.339 . S
C83 C82 1.395 . S
C83 H109 0.929 . S
C84 C82 1.320 . S
C84 C85 1.405 . S
C84 H110 0.930 . S
C85 C80 1.479 . S
C85 C84 1.405 . S
C85 H111 0.931 . S
U86 O87 2.454 . S
U86 O88 2.458 . S
U86 C89 2.984 . S
U86 C90 2.847 . S
U86 C103 2.882 . S
U86 O104 2.441 . S
U86 O105 2.420 . S
U86 O106 2.455 . S
U86 O107 2.449 . S
O87 U86 2.454 . S
O87 C89 1.353 . S
O88 U86 2.458 . S
O88 C89 1.286 . S
C89 U86 2.984 . S
C89 O87 1.353 . S
C89 O88 1.286 . S
C89 C91 1.363 . S
C90 C80 1.465 . S
C90 U86 2.847 . S
C90 O104 1.249 . S
C90 O105 1.202 . S
C91 C89 1.363 . S
C91 C93 1.408 . S
C91 C96 1.342 . S
C92 C93 1.310 . S
C92 C95 1.461 . S
C92 H112 0.932 . S
C93 C91 1.408 . S
C93 C92 1.310 . S
C93 H113 0.930 . S
C94 C95 1.474 . S
C94 C96 1.285 . S
C94 H114 0.929 . S
C95 C92 1.461 . S
C95 C94 1.474 . S
C96 C91 1.342 . S
C96 C94 1.285 . S
C96 H115 0.930 . S
C97 C100 1.424 . S
C97 C102 1.245 . S
C97 C103 1.428 . S
C98 C101 1.260 . S
C98 C102 1.477 . S
C98 H116 0.932 . S
C99 C100 1.384 . S
C99 C101 1.479 . S
C99 H117 0.929 . S
C100 C97 1.424 . S
C100 C99 1.384 . S
C100 H118 0.928 . S
C101 C98 1.260 . S
C101 C99 1.479 . S
C102 C97 1.245 . S
C102 C98 1.477 . S
C102 H119 0.932 . S
C103 U86 2.882 . S
C103 C97 1.428 . S
C103 O106 1.301 . S
C103 O107 1.282 . S
O104 U86 2.441 . S
O104 C90 1.249 . S
O105 U86 2.420 . S
O105 C90 1.202 . S
O106 U86 2.455 . S
O106 C103 1.301 . S
O107 U86 2.449 . S
O107 C103 1.282 . S
H108 C81 0.931 . S
H109 C83 0.929 . S
H110 C84 0.930 . S
H111 C85 0.931 . S
H112 C92 0.932 . S
H113 C93 0.930 . S
H114 C94 0.929 . S
H115 C96 0.930 . S
H116 C98 0.932 . S
H117 C99 0.929 . S
H118 C100 0.928 . S
H119 C102 0.932 . S
C120 C121 1.264 . S
C120 C125 1.479 . S
C120 C130 1.465 . S
C121 C120 1.264 . S
C121 C123 1.339 . S
C121 H148 0.931 . S
C122 C123 1.395 . S
C122 C124 1.320 . S
C123 C121 1.339 . S
C123 C122 1.395 . S
C123 H149 0.929 . S
C124 C122 1.320 . S
C124 C125 1.405 . S
C124 H150 0.930 . S
C125 C120 1.479 . S
C125 C124 1.405 . S
C125 H151 0.931 . S
U126 O127 2.454 . S
U126 O128 2.458 . S
U126 C129 2.984 . S
U126 C130 2.847 . S
U126 C143 2.882 . S
U126 O144 2.441 . S
U126 O145 2.420 . S
U126 O146 2.455 . S
U126 O147 2.449 . S
O127 U126 2.454 . S
O127 C129 1.353 . S
O128 U126 2.458 . S
O128 C129 1.286 . S
C129 U126 2.984 . S
C129 O127 1.353 . S
C129 O128 1.286 . S
C129 C131 1.363 . S
C130 C120 1.465 . S
C130 U126 2.847 . S
C130 O144 1.249 . S
C130 O145 1.202 . S
C131 C129 1.363 . S
C131 C133 1.408 . S
C131 C136 1.342 . S
C132 C133 1.310 . S
C132 C135 1.461 . S
C132 H152 0.932 . S
C133 C131 1.408 . S
C133 C132 1.310 . S
C133 H153 0.930 . S
C134 C135 1.474 . S
C134 C136 1.285 . S
C134 H154 0.929 . S
C135 C132 1.461 . S
C135 C134 1.474 . S
C136 C131 1.342 . S
C136 C134 1.285 . S
C136 H155 0.930 . S
C137 C140 1.424 . S
C137 C142 1.245 . S
C137 C143 1.428 . S
C138 C141 1.260 . S
C138 C142 1.477 . S
C138 H156 0.932 . S
C139 C140 1.384 . S
C139 C141 1.479 . S
C139 H157 0.929 . S
C140 C137 1.424 . S
C140 C139 1.384 . S
C140 H158 0.928 . S
C141 C138 1.260 . S
C141 C139 1.479 . S
C142 C137 1.245 . S
C142 C138 1.477 . S
C142 H159 0.932 . S
C143 U126 2.882 . S
C143 C137 1.428 . S
C143 O146 1.301 . S
C143 O147 1.282 . S
O144 U126 2.441 . S
O144 C130 1.249 . S
O145 U126 2.420 . S
O145 C130 1.202 . S
O146 U126 2.455 . S
O146 C143 1.301 . S
O147 U126 2.449 . S
O147 C143 1.282 . S
H148 C121 0.931 . S
H149 C123 0.929 . S
H150 C124 0.930 . S
H151 C125 0.931 . S
H152 C132 0.932 . S
H153 C133 0.930 . S
H154 C134 0.929 . S
H155 C136 0.930 . S
H156 C138 0.932 . S
H157 C139 0.929 . S
H158 C140 0.928 . S
H159 C142 0.932 . S
C160 C161 1.264 . S
C160 C165 1.479 . S
C160 C170 1.465 . S
C161 C160 1.264 . S
C161 C163 1.339 . S
C161 H188 0.931 . S
C162 C163 1.395 . S
C162 C164 1.320 . S
C163 C161 1.339 . S
C163 C162 1.395 . S
C163 H189 0.929 . S
C164 C162 1.320 . S
C164 C165 1.405 . S
C164 H190 0.930 . S
C165 C160 1.479 . S
C165 C164 1.405 . S
C165 H191 0.931 . S
U166 O167 2.454 . S
U166 O168 2.458 . S
U166 C169 2.984 . S
U166 C170 2.847 . S
U166 C183 2.882 . S
U166 O184 2.441 . S
U166 O185 2.420 . S
U166 O186 2.455 . S
U166 O187 2.449 . S
O167 U166 2.454 . S
O167 C169 1.353 . S
O168 U166 2.458 . S
O168 C169 1.286 . S
C169 U166 2.984 . S
C169 O167 1.353 . S
C169 O168 1.286 . S
C169 C171 1.363 . S
C170 C160 1.465 . S
C170 U166 2.847 . S
C170 O184 1.249 . S
C170 O185 1.202 . S
C171 C169 1.363 . S
C171 C173 1.408 . S
C171 C176 1.342 . S
C172 C173 1.310 . S
C172 C175 1.461 . S
C172 H192 0.932 . S
C173 C171 1.408 . S
C173 C172 1.310 . S
C173 H193 0.930 . S
C174 C175 1.474 . S
C174 C176 1.285 . S
C174 H194 0.929 . S
C175 C172 1.461 . S
C175 C174 1.474 . S
C176 C171 1.342 . S
C176 C174 1.285 . S
C176 H195 0.930 . S
C177 C180 1.424 . S
C177 C182 1.245 . S
C177 C183 1.428 . S
C178 C181 1.260 . S
C178 C182 1.477 . S
C178 H196 0.932 . S
C179 C180 1.384 . S
C179 C181 1.479 . S
C179 H197 0.929 . S
C180 C177 1.424 . S
C180 C179 1.384 . S
C180 H198 0.928 . S
C181 C178 1.260 . S
C181 C179 1.479 . S
C182 C177 1.245 . S
C182 C178 1.477 . S
C182 H199 0.932 . S
C183 U166 2.882 . S
C183 C177 1.428 . S
C183 O186 1.301 . S
C183 O187 1.282 . S
O184 U166 2.441 . S
O184 C170 1.249 . S
O185 U166 2.420 . S
O185 C170 1.202 . S
O186 U166 2.455 . S
O186 C183 1.301 . S
O187 U166 2.449 . S
O187 C183 1.282 . S
H188 C161 0.931 . S
H189 C163 0.929 . S
H190 C164 0.930 . S
H191 C165 0.931 . S
H192 C172 0.932 . S
H193 C173 0.930 . S
H194 C174 0.929 . S
H195 C176 0.930 . S
H196 C178 0.932 . S
H197 C179 0.929 . S
H198 C180 0.928 . S
H199 C182 0.932 . S
C200 C201 1.264 . S
C200 C205 1.479 . S
C200 C210 1.465 . S
C201 C200 1.264 . S
C201 C203 1.339 . S
C201 H228 0.931 . S
C202 C203 1.395 . S
C202 C204 1.320 . S
C203 C201 1.339 . S
C203 C202 1.395 . S
C203 H229 0.929 . S
C204 C202 1.320 . S
C204 C205 1.405 . S
C204 H230 0.930 . S
C205 C200 1.479 . S
C205 C204 1.405 . S
C205 H231 0.931 . S
U206 O207 2.454 . S
U206 O208 2.458 . S
U206 C209 2.984 . S
U206 C210 2.847 . S
U206 C223 2.882 . S
U206 O224 2.441 . S
U206 O225 2.420 . S
U206 O226 2.455 . S
U206 O227 2.449 . S
O207 U206 2.454 . S
O207 C209 1.353 . S
O208 U206 2.458 . S
O208 C209 1.286 . S
C209 U206 2.984 . S
C209 O207 1.353 . S
C209 O208 1.286 . S
C209 C211 1.363 . S
C210 C200 1.465 . S
C210 U206 2.847 . S
C210 O224 1.249 . S
C210 O225 1.202 . S
C211 C209 1.363 . S
C211 C213 1.408 . S
C211 C216 1.342 . S
C212 C213 1.310 . S
C212 C215 1.461 . S
C212 H232 0.932 . S
C213 C211 1.408 . S
C213 C212 1.310 . S
C213 H233 0.930 . S
C214 C215 1.474 . S
C214 C216 1.285 . S
C214 H234 0.929 . S
C215 C212 1.461 . S
C215 C214 1.474 . S
C216 C211 1.342 . S
C216 C214 1.285 . S
C216 H235 0.930 . S
C217 C220 1.424 . S
C217 C222 1.245 . S
C217 C223 1.428 . S
C218 C221 1.260 . S
C218 C222 1.477 . S
C218 H236 0.932 . S
C219 C220 1.384 . S
C219 C221 1.479 . S
C219 H237 0.929 . S
C220 C217 1.424 . S
C220 C219 1.384 . S
C220 H238 0.928 . S
C221 C218 1.260 . S
C221 C219 1.479 . S
C222 C217 1.245 . S
C222 C218 1.477 . S
C222 H239 0.932 . S
C223 U206 2.882 . S
C223 C217 1.428 . S
C223 O226 1.301 . S
C223 O227 1.282 . S
O224 U206 2.441 . S
O224 C210 1.249 . S
O225 U206 2.420 . S
O225 C210 1.202 . S
O226 U206 2.455 . S
O226 C223 1.301 . S
O227 U206 2.449 . S
O227 C223 1.282 . S
H228 C201 0.931 . S
H229 C203 0.929 . S
H230 C204 0.930 . S
H231 C205 0.931 . S
H232 C212 0.932 . S
H233 C213 0.930 . S
H234 C214 0.929 . S
H235 C216 0.930 . S
H236 C218 0.932 . S
H237 C219 0.929 . S
H238 C220 0.928 . S
H239 C222 0.932 . S
C240 C241 1.264 . S
C240 C245 1.479 . S
C240 C250 1.465 . S
C241 C240 1.264 . S
C241 C243 1.339 . S
C241 H268 0.931 . S
C242 C243 1.395 . S
C242 C244 1.320 . S
C243 C241 1.339 . S
C243 C242 1.395 . S
C243 H269 0.929 . S
C244 C242 1.320 . S
C244 C245 1.405 . S
C244 H270 0.930 . S
C245 C240 1.479 . S
C245 C244 1.405 . S
C245 H271 0.931 . S
U246 O247 2.454 . S
U246 O248 2.458 . S
U246 C249 2.984 . S
U246 C250 2.847 . S
U246 C263 2.882 . S
U246 O264 2.441 . S
U246 O265 2.420 . S
U246 O266 2.455 . S
U246 O267 2.449 . S
O247 U246 2.454 . S
O247 C249 1.353 . S
O248 U246 2.458 . S
O248 C249 1.286 . S
C249 U246 2.984 . S
C249 O247 1.353 . S
C249 O248 1.286 . S
C249 C251 1.363 . S
C250 C240 1.465 . S
C250 U246 2.847 . S
C250 O264 1.249 . S
C250 O265 1.202 . S
C251 C249 1.363 . S
C251 C253 1.408 . S
C251 C256 1.342 . S
C252 C253 1.310 . S
C252 C255 1.461 . S
C252 H272 0.932 . S
C253 C251 1.408 . S
C253 C252 1.310 . S
C253 H273 0.930 . S
C254 C255 1.474 . S
C254 C256 1.285 . S
C254 H274 0.929 . S
C255 C252 1.461 . S
C255 C254 1.474 . S
C256 C251 1.342 . S
C256 C254 1.285 . S
C256 H275 0.930 . S
C257 C260 1.424 . S
C257 C262 1.245 . S
C257 C263 1.428 . S
C258 C261 1.260 . S
C258 C262 1.477 . S
C258 H276 0.932 . S
C259 C260 1.384 . S
C259 C261 1.479 . S
C259 H277 0.929 . S
C260 C257 1.424 . S
C260 C259 1.384 . S
C260 H278 0.928 . S
C261 C258 1.260 . S
C261 C259 1.479 . S
C262 C257 1.245 . S
C262 C258 1.477 . S
C262 H279 0.932 . S
C263 U246 2.882 . S
C263 C257 1.428 . S
C263 O266 1.301 . S
C263 O267 1.282 . S
O264 U246 2.441 . S
O264 C250 1.249 . S
O265 U246 2.420 . S
O265 C250 1.202 . S
O266 U246 2.455 . S
O266 C263 1.301 . S
O267 U246 2.449 . S
O267 C263 1.282 . S
H268 C241 0.931 . S
H269 C243 0.929 . S
H270 C244 0.930 . S
H271 C245 0.931 . S
H272 C252 0.932 . S
H273 C253 0.930 . S
H274 C254 0.929 . S
H275 C256 0.930 . S
H276 C258 0.932 . S
H277 C259 0.929 . S
H278 C260 0.928 . S
H279 C262 0.932 . S
C280 C281 1.264 . S
C280 C285 1.479 . S
C280 C290 1.465 . S
C281 C280 1.264 . S
C281 C283 1.339 . S
C281 H308 0.931 . S
C282 C283 1.395 . S
C282 C284 1.320 . S
C283 C281 1.339 . S
C283 C282 1.395 . S
C283 H309 0.929 . S
C284 C282 1.320 . S
C284 C285 1.405 . S
C284 H310 0.930 . S
C285 C280 1.479 . S
C285 C284 1.405 . S
C285 H311 0.931 . S
U286 O287 2.454 . S
U286 O288 2.458 . S
U286 C289 2.984 . S
U286 C290 2.847 . S
U286 C303 2.882 . S
U286 O304 2.441 . S
U286 O305 2.420 . S
U286 O306 2.455 . S
U286 O307 2.449 . S
O287 U286 2.454 . S
O287 C289 1.353 . S
O288 U286 2.458 . S
O288 C289 1.286 . S
C289 U286 2.984 . S
C289 O287 1.353 . S
C289 O288 1.286 . S
C289 C291 1.363 . S
C290 C280 1.465 . S
C290 U286 2.847 . S
C290 O304 1.249 . S
C290 O305 1.202 . S
C291 C289 1.363 . S
C291 C293 1.408 . S
C291 C296 1.342 . S
C292 C293 1.310 . S
C292 C295 1.461 . S
C292 H312 0.932 . S
C293 C291 1.408 . S
C293 C292 1.310 . S
C293 H313 0.930 . S
C294 C295 1.474 . S
C294 C296 1.285 . S
C294 H314 0.929 . S
C295 C292 1.461 . S
C295 C294 1.474 . S
C296 C291 1.342 . S
C296 C294 1.285 . S
C296 H315 0.930 . S
C297 C300 1.424 . S
C297 C302 1.245 . S
C297 C303 1.428 . S
C298 C301 1.260 . S
C298 C302 1.477 . S
C298 H316 0.932 . S
C299 C300 1.384 . S
C299 C301 1.479 . S
C299 H317 0.929 . S
C300 C297 1.424 . S
C300 C299 1.384 . S
C300 H318 0.928 . S
C301 C298 1.260 . S
C301 C299 1.479 . S
C302 C297 1.245 . S
C302 C298 1.477 . S
C302 H319 0.932 . S
C303 U286 2.882 . S
C303 C297 1.428 . S
C303 O306 1.301 . S
C303 O307 1.282 . S
O304 U286 2.441 . S
O304 C290 1.249 . S
O305 U286 2.420 . S
O305 C290 1.202 . S
O306 U286 2.455 . S
O306 C303 1.301 . S
O307 U286 2.449 . S
O307 C303 1.282 . S
H308 C281 0.931 . S
H309 C283 0.929 . S
H310 C284 0.930 . S
H311 C285 0.931 . S
H312 C292 0.932 . S
H313 C293 0.930 . S
H314 C294 0.929 . S
H315 C296 0.930 . S
H316 C298 0.932 . S
H317 C299 0.929 . S
H318 C300 0.928 . S
H319 C302 0.932 . S
Dy320 O324 2.398 . S
Dy320 O325 2.491 . S
Dy320 O326 2.403 1_545 S
Dy320 O327 2.664 1_545 S
Dy320 O331 2.326 . S
Dy320 O335 2.310 1_455 S
Dy320 O336 2.351 1_445 S
C321 O332 1.185 . S
C321 O333 1.355 . S
C322 O324 1.185 . S
C322 O325 1.355 . S
Dy323 O327 2.310 1_655 S
Dy323 O330 2.351 1_665 S
Dy323 O332 2.398 . S
Dy323 O333 2.491 . S
Dy323 O334 2.403 1_565 S
Dy323 O335 2.664 1_565 S
Dy323 O337 2.326 . S
O324 Dy320 2.398 . S
O324 C322 1.185 . S
O325 Dy320 2.491 . S
O325 C322 1.355 . S
O326 Dy320 2.403 1_565 S
O326 C328 1.254 . S
O327 Dy320 2.664 1_565 S
O327 Dy323 2.310 1_455 S
O327 C328 1.268 . S
C328 O326 1.254 . S
C328 O327 1.268 . S
C329 O334 1.254 . S
C329 O335 1.268 . S
O330 Dy323 2.351 1_445 S
O330 C338 1.249 . S
O331 Dy320 2.326 . S
O331 C338 1.267 . S
O332 C321 1.185 . S
O332 Dy323 2.398 . S
O333 C321 1.355 . S
O333 Dy323 2.491 . S
O334 Dy323 2.403 1_545 S
O334 C329 1.254 . S
O335 Dy320 2.310 1_655 S
O335 Dy323 2.664 1_545 S
O335 C329 1.268 . S
O336 Dy320 2.351 1_665 S
O336 C339 1.249 . S
O337 Dy323 2.326 . S
O337 C339 1.267 . S
C338 O330 1.249 . S
C338 O331 1.267 . S
C339 O336 1.249 . S
C339 O337 1.267 . S
Dy340 O344 2.398 . S
Dy340 O345 2.491 . S
Dy340 O346 2.403 1_545 S
Dy340 O347 2.664 1_545 S
Dy340 O351 2.326 . S
Dy340 O355 2.293 1_554 S
Dy340 O356 2.351 1_544 S
C341 O352 1.185 . S
C341 O353 1.355 . S
C342 O344 1.185 . S
C342 O345 1.355 . S
Dy343 O347 2.317 1_556 S
Dy343 O350 2.345 1_566 S
Dy343 O352 2.399 . S
Dy343 O353 2.502 . S
Dy343 O354 2.393 1_565 S
Dy343 O355 2.669 1_565 S
Dy343 O357 2.331 . S
O344 Dy340 2.398 . S
O344 C342 1.185 . S
O345 Dy340 2.491 . S
O345 C342 1.355 . S
O346 Dy340 2.403 1_565 S
O346 C348 1.254 . S
O347 Dy340 2.664 1_565 S
O347 Dy343 2.317 1_554 S
O347 C348 1.268 . S
C348 O346 1.254 . S
C348 O347 1.268 . S
C349 O354 1.254 . S
C349 O355 1.285 . S
O350 Dy343 2.345 1_544 S
O350 C358 1.249 . S
O351 Dy340 2.326 . S
O351 C358 1.267 . S
O352 C341 1.185 . S
O352 Dy343 2.399 . S
O353 C341 1.355 . S
O353 Dy343 2.502 . S
O354 Dy343 2.393 1_545 S
O354 C349 1.254 . S
O355 Dy340 2.293 1_556 S
O355 Dy343 2.669 1_545 S
O355 C349 1.285 . S
O356 Dy340 2.351 1_566 S
O356 C359 1.249 . S
O357 Dy343 2.331 . S
O357 C359 1.267 . S
C358 O350 1.249 . S
C358 O351 1.267 . S
C359 O356 1.249 . S
C359 O357 1.267 . S
Dy360 O364 2.398 . S
Dy360 O365 2.491 . S
Dy360 O366 2.403 . S
Dy360 O367 2.664 . S
Dy360 O371 2.326 . S
Dy360 O375 2.310 . S
Dy360 O376 2.351 . S
C361 O372 1.185 . S
C361 O373 1.355 . S
C362 O364 1.185 . S
C362 O365 1.355 . S
Dy363 O367 2.310 . S
Dy363 O370 2.351 . S
Dy363 O372 2.398 . S
Dy363 O373 2.491 . S
Dy363 O374 2.403 . S
Dy363 O375 2.664 . S
Dy363 O377 2.326 . S
O364 Dy360 2.398 . S
O364 C362 1.185 . S
O365 Dy360 2.491 . S
O365 C362 1.355 . S
O366 Dy360 2.403 . S
O366 C368 1.254 . S
O367 Dy360 2.664 . S
O367 Dy363 2.310 . S
O367 C368 1.268 . S
C368 O366 1.254 . S
C368 O367 1.268 . S
C369 O374 1.254 . S
C369 O375 1.268 . S
O370 Dy363 2.351 . S
O370 C378 1.249 . S
O371 Dy360 2.326 . S
O371 C378 1.267 . S
O372 C361 1.185 . S
O372 Dy363 2.398 . S
O373 C361 1.355 . S
O373 Dy363 2.491 . S
O374 Dy363 2.403 . S
O374 C369 1.254 . S
O375 Dy360 2.310 . S
O375 Dy363 2.664 . S
O375 C369 1.268 . S
O376 Dy360 2.351 . S
O376 C379 1.249 . S
O377 Dy363 2.326 . S
O377 C379 1.267 . S
C378 O370 1.249 . S
C378 O371 1.267 . S
C379 O376 1.249 . S
C379 O377 1.267 . S
Dy380 O384 2.398 . S
Dy380 O385 2.491 . S
Dy380 O386 2.403 1_455 S
Dy380 O387 2.664 1_455 S
Dy380 O391 2.326 . S
Dy380 O395 2.310 1_554 S
Dy380 O396 2.351 1_454 S
C381 O392 1.185 . S
C381 O393 1.355 . S
C382 O384 1.185 . S
C382 O385 1.355 . S
Dy383 O387 2.306 1_456 S
Dy383 O390 2.366 1_556 S
Dy383 O392 2.389 1_455 S
Dy383 O393 2.476 1_455 S
Dy383 O394 2.411 . S
Dy383 O395 2.672 . S
Dy383 O397 2.316 1_455 S
O384 Dy380 2.398 . S
O384 C382 1.185 . S
O385 Dy380 2.491 . S
O385 C382 1.355 . S
O386 Dy380 2.403 1_655 S
O386 C388 1.254 . S
O387 Dy380 2.664 1_655 S
O387 Dy383 2.306 1_654 S
O387 C388 1.268 . S
C388 O386 1.254 . S
C388 O387 1.268 . S
C389 O394 1.254 . S
C389 O395 1.268 . S
O390 Dy383 2.366 1_554 S
O390 C398 1.249 . S
O391 Dy380 2.326 . S
O391 C398 1.267 . S
O392 C381 1.185 . S
O392 Dy383 2.389 1_655 S
O393 C381 1.355 . S
O393 Dy383 2.476 1_655 S
O394 Dy383 2.411 . S
O394 C389 1.254 . S
O395 Dy380 2.310 1_556 S
O395 Dy383 2.672 . S
O395 C389 1.268 . S
O396 Dy380 2.351 1_656 S
O396 C399 1.249 . S
O397 Dy383 2.316 1_655 S
O397 C399 1.267 . S
C398 O390 1.249 . S
C398 O391 1.267 . S
C399 O396 1.249 . S
C399 O397 1.267 . S
H400 C418 0.951 . S
H401 C420 0.951 . S
H402 C422 0.950 . S
H403 C423 0.950 . S
H404 C425 0.950 . S
H405 C428 0.950 . S
H406 C429 0.950 . S
H407 C431 0.950 . S
H408 C432 0.950 . S
H409 C433 0.951 . S
H410 C435 0.951 . S
H411 C437 0.950 . S
H412 C438 0.950 . S
H413 C440 0.950 . S
H414 C443 0.950 . S
H415 C444 0.950 . S
H416 C446 0.950 . S
H417 C447 0.950 . S
C418 H400 0.951 . S
C418 C419 1.366 . S
C418 C420 1.388 . S
C419 C418 1.366 . S
C419 C423 1.385 . S
C420 H401 0.951 . S
C420 C418 1.388 . S
C420 C421 1.366 . S
C421 C420 1.366 . S
C421 C422 1.414 . S
C421 C424 1.499 . S
C422 H402 0.950 . S
C422 C421 1.414 . S
C422 C423 1.374 . S
C423 H403 0.950 . S
C423 C419 1.385 . S
C423 C422 1.374 . S
C424 C421 1.499 . S
C424 C425 1.373 . S
C424 C426 1.389 . S
C425 H404 0.950 . S
C425 C424 1.373 . S
C425 C441 1.377 . S
C426 C424 1.389 . S
C426 C427 1.524 . S
C426 C440 1.377 . S
C427 C426 1.524 . S
C427 C428 1.397 . S
C427 C432 1.363 . S
C428 H405 0.950 . S
C428 C427 1.397 . S
C428 C429 1.334 . S
C429 H406 0.950 . S
C429 C428 1.334 . S
C429 C430 1.287 . S
C430 C429 1.287 . S
C430 C431 1.524 . S
C430 H449 0.913 . S
C431 H407 0.950 . S
C431 C430 1.524 . S
C431 C432 1.415 . S
C432 H408 0.950 . S
C432 C427 1.363 . S
C432 C431 1.415 . S
C433 H409 0.951 . S
C433 C434 1.366 . S
C433 C435 1.388 . S
C434 C433 1.366 . S
C434 C438 1.385 . S
C435 H410 0.951 . S
C435 C433 1.388 . S
C435 C436 1.366 . S
C436 C435 1.366 . S
C436 C437 1.414 . S
C436 C439 1.499 . S
C437 H411 0.950 . S
C437 C436 1.414 . S
C437 C438 1.374 . S
C438 H412 0.950 . S
C438 C434 1.385 . S
C438 C437 1.374 . S
C439 C436 1.499 . S
C439 C440 1.373 . S
C439 C441 1.389 . S
C440 H413 0.950 . S
C440 C426 1.377 . S
C440 C439 1.373 . S
C441 C425 1.377 . S
C441 C439 1.389 . S
C441 C442 1.524 . S
C442 C441 1.524 . S
C442 C443 1.397 . S
C442 C447 1.363 . S
C443 H414 0.950 . S
C443 C442 1.397 . S
C443 C444 1.334 . S
C444 H415 0.950 . S
C444 C443 1.334 . S
C444 C445 1.287 . S
C445 C444 1.287 . S
C445 C446 1.524 . S
C445 H448 0.999 . S
C446 H416 0.950 . S
C446 C445 1.524 . S
C446 C447 1.415 . S
C447 H417 0.950 . S
C447 C442 1.363 . S
C447 C446 1.415 . S
H448 C445 0.999 . S
H449 C430 0.913 . S
H450 C468 0.951 . S
H451 C470 0.951 . S
H452 C472 0.950 . S
H453 C473 0.950 . S
H454 C475 0.950 . S
H455 C478 0.950 . S
H456 C479 0.950 . S
H457 C481 0.950 . S
H458 C482 0.950 . S
H459 C483 0.951 . S
H460 C485 0.951 . S
H461 C487 0.950 . S
H462 C488 0.950 . S
H463 C490 0.950 . S
H464 C493 0.950 . S
H465 C494 0.950 . S
H466 C496 0.950 . S
H467 C497 0.950 . S
C468 H450 0.951 . S
C468 C469 1.366 . S
C468 C470 1.388 . S
C469 C468 1.366 . S
C469 C473 1.385 . S
C470 H451 0.951 . S
C470 C468 1.388 . S
C470 C471 1.366 . S
C471 C470 1.366 . S
C471 C472 1.414 . S
C471 C474 1.499 . S
C472 H452 0.950 . S
C472 C471 1.414 . S
C472 C473 1.374 . S
C473 H453 0.950 . S
C473 C469 1.385 . S
C473 C472 1.374 . S
C474 C471 1.499 . S
C474 C475 1.373 . S
C474 C476 1.389 . S
C475 H454 0.950 . S
C475 C474 1.373 . S
C475 C491 1.377 . S
C476 C474 1.389 . S
C476 C477 1.524 . S
C476 C490 1.377 . S
C477 C476 1.524 . S
C477 C478 1.397 . S
C477 C482 1.363 . S
C478 H455 0.950 . S
C478 C477 1.397 . S
C478 C479 1.334 . S
C479 H456 0.950 . S
C479 C478 1.334 . S
C479 C480 1.287 . S
C480 C479 1.287 . S
C480 C481 1.524 . S
C480 H499 0.913 . S
C481 H457 0.950 . S
C481 C480 1.524 . S
C481 C482 1.415 . S
C482 H458 0.950 . S
C482 C477 1.363 . S
C482 C481 1.415 . S
C483 H459 0.951 . S
C483 C484 1.366 . S
C483 C485 1.388 . S
C484 C483 1.366 . S
C484 C488 1.385 . S
C485 H460 0.951 . S
C485 C483 1.388 . S
C485 C486 1.366 . S
C486 C485 1.366 . S
C486 C487 1.414 . S
C486 C489 1.499 . S
C487 H461 0.950 . S
C487 C486 1.414 . S
C487 C488 1.374 . S
C488 H462 0.950 . S
C488 C484 1.385 . S
C488 C487 1.374 . S
C489 C486 1.499 . S
C489 C490 1.373 . S
C489 C491 1.389 . S
C490 H463 0.950 . S
C490 C476 1.377 . S
C490 C489 1.373 . S
C491 C475 1.377 . S
C491 C489 1.389 . S
C491 C492 1.524 . S
C492 C491 1.524 . S
C492 C493 1.397 . S
C492 C497 1.363 . S
C493 H464 0.950 . S
C493 C492 1.397 . S
C493 C494 1.334 . S
C494 H465 0.950 . S
C494 C493 1.334 . S
C494 C495 1.287 . S
C495 C494 1.287 . S
C495 C496 1.524 . S
C495 H498 0.999 . S
C496 H466 0.950 . S
C496 C495 1.524 . S
C496 C497 1.415 . S
C497 H467 0.950 . S
C497 C492 1.363 . S
C497 C496 1.415 . S
H498 C495 0.999 . S
H499 C480 0.913 . S
H500 C518 0.951 . S
H501 C520 0.951 . S
H502 C522 0.950 . S
H503 C523 0.950 . S
H504 C525 0.950 . S
H505 C528 0.950 . S
H506 C529 0.950 . S
H507 C531 0.950 . S
H508 C532 0.950 . S
H509 C533 0.951 . S
H510 C535 0.951 . S
H511 C537 0.950 . S
H512 C538 0.950 . S
H513 C540 0.950 . S
H514 C543 0.950 . S
H515 C544 0.950 . S
H516 C546 0.950 . S
H517 C547 0.950 . S
C518 H500 0.951 . S
C518 C519 1.366 . S
C518 C520 1.388 . S
C519 C518 1.366 . S
C519 C523 1.385 . S
C520 H501 0.951 . S
C520 C518 1.388 . S
C520 C521 1.366 . S
C521 C520 1.366 . S
C521 C522 1.414 . S
C521 C524 1.499 . S
C522 H502 0.950 . S
C522 C521 1.414 . S
C522 C523 1.374 . S
C523 H503 0.950 . S
C523 C519 1.385 . S
C523 C522 1.374 . S
C524 C521 1.499 . S
C524 C525 1.373 . S
C524 C526 1.389 . S
C525 H504 0.950 . S
C525 C524 1.373 . S
C525 C541 1.377 . S
C526 C524 1.389 . S
C526 C527 1.524 . S
C526 C540 1.377 . S
C527 C526 1.524 . S
C527 C528 1.397 . S
C527 C532 1.363 . S
C528 H505 0.950 . S
C528 C527 1.397 . S
C528 C529 1.334 . S
C529 H506 0.950 . S
C529 C528 1.334 . S
C529 C530 1.287 . S
C530 C529 1.287 . S
C530 C531 1.524 . S
C530 H549 0.913 . S
C531 H507 0.950 . S
C531 C530 1.524 . S
C531 C532 1.415 . S
C532 H508 0.950 . S
C532 C527 1.363 . S
C532 C531 1.415 . S
C533 H509 0.951 . S
C533 C534 1.366 . S
C533 C535 1.388 . S
C534 C533 1.366 . S
C534 C538 1.385 . S
C535 H510 0.951 . S
C535 C533 1.388 . S
C535 C536 1.366 . S
C536 C535 1.366 . S
C536 C537 1.414 . S
C536 C539 1.499 . S
C537 H511 0.950 . S
C537 C536 1.414 . S
C537 C538 1.374 . S
C538 H512 0.950 . S
C538 C534 1.385 . S
C538 C537 1.374 . S
C539 C536 1.499 . S
C539 C540 1.373 . S
C539 C541 1.389 . S
C540 H513 0.950 . S
C540 C526 1.377 . S
C540 C539 1.373 . S
C541 C525 1.377 . S
C541 C539 1.389 . S
C541 C542 1.524 . S
C542 C541 1.524 . S
C542 C543 1.397 . S
C542 C547 1.363 . S
C543 H514 0.950 . S
C543 C542 1.397 . S
C543 C544 1.334 . S
C544 H515 0.950 . S
C544 C543 1.334 . S
C544 C545 1.287 . S
C545 C544 1.287 . S
C545 C546 1.524 . S
C545 H548 0.999 . S
C546 H516 0.950 . S
C546 C545 1.524 . S
C546 C547 1.415 . S
C547 H517 0.950 . S
C547 C542 1.363 . S
C547 C546 1.415 . S
H548 C545 0.999 . S
H549 C530 0.913 . S
H550 C568 0.951 . S
H551 C570 0.951 . S
H552 C572 0.950 . S
H553 C573 0.950 . S
H554 C575 0.950 . S
H555 C578 0.950 . S
H556 C579 0.950 . S
H557 C581 0.950 . S
H558 C582 0.950 . S
H559 C583 0.951 . S
H560 C585 0.951 . S
H561 C587 0.950 . S
H562 C588 0.950 . S
H563 C590 0.950 . S
H564 C593 0.950 . S
H565 C594 0.950 . S
H566 C596 0.950 . S
H567 C597 0.950 . S
C568 H550 0.951 . S
C568 C569 1.366 . S
C568 C570 1.388 . S
C569 C568 1.366 . S
C569 C573 1.385 . S
C570 H551 0.951 . S
C570 C568 1.388 . S
C570 C571 1.366 . S
C571 C570 1.366 . S
C571 C572 1.414 . S
C571 C574 1.499 . S
C572 H552 0.950 . S
C572 C571 1.414 . S
C572 C573 1.374 . S
C573 H553 0.950 . S
C573 C569 1.385 . S
C573 C572 1.374 . S
C574 C571 1.499 . S
C574 C575 1.373 . S
C574 C576 1.389 . S
C575 H554 0.950 . S
C575 C574 1.373 . S
C575 C591 1.377 . S
C576 C574 1.389 . S
C576 C577 1.524 . S
C576 C590 1.377 . S
C577 C576 1.524 . S
C577 C578 1.397 . S
C577 C582 1.363 . S
C578 H555 0.950 . S
C578 C577 1.397 . S
C578 C579 1.334 . S
C579 H556 0.950 . S
C579 C578 1.334 . S
C579 C580 1.287 . S
C580 C579 1.287 . S
C580 C581 1.524 . S
C580 H599 0.913 . S
C581 H557 0.950 . S
C581 C580 1.524 . S
C581 C582 1.415 . S
C582 H558 0.950 . S
C582 C577 1.363 . S
C582 C581 1.415 . S
C583 H559 0.951 . S
C583 C584 1.366 . S
C583 C585 1.388 . S
C584 C583 1.366 . S
C584 C588 1.385 . S
C585 H560 0.951 . S
C585 C583 1.388 . S
C585 C586 1.366 . S
C586 C585 1.366 . S
C586 C587 1.414 . S
C586 C589 1.499 . S
C587 H561 0.950 . S
C587 C586 1.414 . S
C587 C588 1.374 . S
C588 H562 0.950 . S
C588 C584 1.385 . S
C588 C587 1.374 . S
C589 C586 1.499 . S
C589 C590 1.373 . S
C589 C591 1.389 . S
C590 H563 0.950 . S
C590 C576 1.377 . S
C590 C589 1.373 . S
C591 C575 1.377 . S
C591 C589 1.389 . S
C591 C592 1.524 . S
C592 C591 1.524 . S
C592 C593 1.397 . S
C592 C597 1.363 . S
C593 H564 0.950 . S
C593 C592 1.397 . S
C593 C594 1.334 . S
C594 H565 0.950 . S
C594 C593 1.334 . S
C594 C595 1.287 . S
C595 C594 1.287 . S
C595 C596 1.524 . S
C595 H598 0.999 . S
C596 H566 0.950 . S
C596 C595 1.524 . S
C596 C597 1.415 . S
C597 H567 0.950 . S
C597 C592 1.363 . S
C597 C596 1.415 . S
H598 C595 0.999 . S
H599 C580 0.913 . S
H600 C618 0.951 . S
H601 C620 0.951 . S
H602 C622 0.950 . S
H603 C623 0.950 . S
H604 C625 0.950 . S
H605 C628 0.950 . S
H606 C629 0.950 . S
H607 C631 0.950 . S
H608 C632 0.950 . S
H609 C633 0.951 . S
H610 C635 0.951 . S
H611 C637 0.950 . S
H612 C638 0.950 . S
H613 C640 0.950 . S
H614 C643 0.950 . S
H615 C644 0.950 . S
H616 C646 0.950 . S
H617 C647 0.950 . S
C618 H600 0.951 . S
C618 C619 1.366 . S
C618 C620 1.388 . S
C619 C618 1.366 . S
C619 C623 1.385 . S
C620 H601 0.951 . S
C620 C618 1.388 . S
C620 C621 1.366 . S
C621 C620 1.366 . S
C621 C622 1.414 . S
C621 C624 1.499 . S
C622 H602 0.950 . S
C622 C621 1.414 . S
C622 C623 1.374 . S
C623 H603 0.950 . S
C623 C619 1.385 . S
C623 C622 1.374 . S
C624 C621 1.499 . S
C624 C625 1.373 . S
C624 C626 1.389 . S
C625 H604 0.950 . S
C625 C624 1.373 . S
C625 C641 1.377 . S
C626 C624 1.389 . S
C626 C627 1.524 . S
C626 C640 1.377 . S
C627 C626 1.524 . S
C627 C628 1.397 . S
C627 C632 1.363 . S
C628 H605 0.950 . S
C628 C627 1.397 . S
C628 C629 1.334 . S
C629 H606 0.950 . S
C629 C628 1.334 . S
C629 C630 1.287 . S
C630 C629 1.287 . S
C630 C631 1.524 . S
C630 H649 0.913 . S
C631 H607 0.950 . S
C631 C630 1.524 . S
C631 C632 1.415 . S
C632 H608 0.950 . S
C632 C627 1.363 . S
C632 C631 1.415 . S
C633 H609 0.951 . S
C633 C634 1.366 . S
C633 C635 1.388 . S
C634 C633 1.366 . S
C634 C638 1.385 . S
C635 H610 0.951 . S
C635 C633 1.388 . S
C635 C636 1.366 . S
C636 C635 1.366 . S
C636 C637 1.414 . S
C636 C639 1.499 . S
C637 H611 0.950 . S
C637 C636 1.414 . S
C637 C638 1.374 . S
C638 H612 0.950 . S
C638 C634 1.385 . S
C638 C637 1.374 . S
C639 C636 1.499 . S
C639 C640 1.373 . S
C639 C641 1.389 . S
C640 H613 0.950 . S
C640 C626 1.377 . S
C640 C639 1.373 . S
C641 C625 1.377 . S
C641 C639 1.389 . S
C641 C642 1.524 . S
C642 C641 1.524 . S
C642 C643 1.397 . S
C642 C647 1.363 . S
C643 H614 0.950 . S
C643 C642 1.397 . S
C643 C644 1.334 . S
C644 H615 0.950 . S
C644 C643 1.334 . S
C644 C645 1.287 . S
C645 C644 1.287 . S
C645 C646 1.524 . S
C645 H648 0.999 . S
C646 H616 0.950 . S
C646 C645 1.524 . S
C646 C647 1.415 . S
C647 H617 0.950 . S
C647 C642 1.363 . S
C647 C646 1.415 . S
H648 C645 0.999 . S
H649 C630 0.913 . S
H650 C668 0.951 . S
H651 C670 0.951 . S
H652 C672 0.950 . S
H653 C673 0.950 . S
H654 C675 0.950 . S
H655 C678 0.950 . S
H656 C679 0.950 . S
H657 C681 0.950 . S
H658 C682 0.950 . S
H659 C683 0.951 1_545 S
H660 C685 0.951 . S
H661 C687 0.950 . S
H662 C688 0.950 . S
H663 C690 0.950 . S
H664 C693 0.950 . S
H665 C694 0.950 . S
H666 C696 0.950 . S
H667 C697 0.949 . S
C668 H650 0.951 . S
C668 C669 1.366 . S
C668 C670 1.388 . S
C669 C668 1.366 . S
C669 C673 1.385 . S
C670 H651 0.951 . S
C670 C668 1.388 . S
C670 C671 1.366 . S
C671 C670 1.366 . S
C671 C672 1.414 . S
C671 C674 1.499 . S
C672 H652 0.950 . S
C672 C671 1.414 . S
C672 C673 1.374 . S
C673 H653 0.950 . S
C673 C669 1.385 . S
C673 C672 1.374 . S
C674 C671 1.499 . S
C674 C675 1.373 . S
C674 C676 1.389 . S
C675 H654 0.950 . S
C675 C674 1.373 . S
C675 C691 1.377 . S
C676 C674 1.389 . S
C676 C677 1.524 . S
C676 C690 1.377 . S
C677 C676 1.524 . S
C677 C678 1.397 . S
C677 C682 1.363 . S
C678 H655 0.950 . S
C678 C677 1.397 . S
C678 C679 1.334 . S
C679 H656 0.950 . S
C679 C678 1.334 . S
C679 C680 1.287 . S
C680 C679 1.287 . S
C680 C681 1.524 . S
C680 H699 0.913 . S
C681 H657 0.950 . S
C681 C680 1.524 . S
C681 C682 1.415 . S
C682 H658 0.950 . S
C682 C677 1.363 . S
C682 C681 1.415 . S
C683 H659 0.951 1_565 S
C683 C684 1.366 . S
C683 C685 1.388 . S
C684 C683 1.366 . S
C684 C688 1.385 . S
C685 H660 0.951 . S
C685 C683 1.388 . S
C685 C686 1.366 . S
C686 C685 1.366 . S
C686 C687 1.414 . S
C686 C689 1.499 . S
C687 H661 0.950 . S
C687 C686 1.414 . S
C687 C688 1.374 . S
C688 H662 0.950 . S
C688 C684 1.385 . S
C688 C687 1.374 . S
C689 C686 1.499 . S
C689 C690 1.373 . S
C689 C691 1.389 . S
C690 H663 0.950 . S
C690 C676 1.377 . S
C690 C689 1.373 . S
C691 C675 1.377 . S
C691 C689 1.389 . S
C691 C692 1.524 . S
C692 C691 1.524 . S
C692 C693 1.397 . S
C692 C697 1.364 . S
C693 H664 0.950 . S
C693 C692 1.397 . S
C693 C694 1.334 . S
C694 H665 0.950 . S
C694 C693 1.334 . S
C694 C695 1.287 1_565 S
C695 C694 1.287 1_545 S
C695 C696 1.524 . S
C695 H698 0.999 . S
C696 H666 0.950 . S
C696 C695 1.524 . S
C696 C697 1.414 1_545 S
C697 H667 0.949 . S
C697 C692 1.364 . S
C697 C696 1.414 1_565 S
H698 C695 0.999 . S
H699 C680 0.913 . S
H700 C718 0.951 . S
H701 C720 0.951 . S
H702 C722 0.950 . S
H703 C723 0.950 . S
H704 C725 0.950 . S
H705 C728 0.950 . S
H706 C729 0.950 . S
H707 C731 0.950 . S
H708 C732 0.950 . S
H709 C733 0.951 . S
H710 C735 0.951 . S
H711 C737 0.950 . S
H712 C738 0.950 1_554 S
H713 C740 0.950 . S
H714 C743 0.950 . S
H715 C744 0.950 . S
H716 C746 0.950 . S
H717 C747 0.950 . S
C718 H700 0.951 . S
C718 C719 1.366 . S
C718 C720 1.388 . S
C719 C718 1.366 . S
C719 C723 1.385 . S
C720 H701 0.951 . S
C720 C718 1.388 . S
C720 C721 1.366 . S
C721 C720 1.366 . S
C721 C722 1.414 . S
C721 C724 1.499 . S
C722 H702 0.950 . S
C722 C721 1.414 . S
C722 C723 1.374 . S
C723 H703 0.950 . S
C723 C719 1.385 . S
C723 C722 1.374 . S
C724 C721 1.499 . S
C724 C725 1.373 . S
C724 C726 1.389 . S
C725 H704 0.950 . S
C725 C724 1.373 . S
C725 C741 1.377 . S
C726 C724 1.389 . S
C726 C727 1.524 . S
C726 C740 1.377 . S
C727 C726 1.524 . S
C727 C728 1.397 . S
C727 C732 1.363 . S
C728 H705 0.950 . S
C728 C727 1.397 . S
C728 C729 1.334 . S
C729 H706 0.950 . S
C729 C728 1.334 . S
C729 C730 1.287 . S
C730 C729 1.287 . S
C730 C731 1.524 1_556 S
C730 H749 0.913 . S
C731 H707 0.950 . S
C731 C730 1.524 1_554 S
C731 C732 1.415 1_554 S
C732 H708 0.950 . S
C732 C727 1.363 . S
C732 C731 1.415 1_556 S
C733 H709 0.951 . S
C733 C734 1.366 . S
C733 C735 1.388 . S
C734 C733 1.366 . S
C734 C738 1.385 . S
C735 H710 0.951 . S
C735 C733 1.388 . S
C735 C736 1.366 . S
C736 C735 1.366 . S
C736 C737 1.414 . S
C736 C739 1.499 . S
C737 H711 0.950 . S
C737 C736 1.414 . S
C737 C738 1.374 . S
C738 H712 0.950 1_556 S
C738 C734 1.385 . S
C738 C737 1.374 . S
C739 C736 1.499 . S
C739 C740 1.373 . S
C739 C741 1.389 . S
C740 H713 0.950 . S
C740 C726 1.377 . S
C740 C739 1.373 . S
C741 C725 1.377 . S
C741 C739 1.389 . S
C741 C742 1.524 . S
C742 C741 1.524 . S
C742 C743 1.397 . S
C742 C747 1.363 . S
C743 H714 0.950 . S
C743 C742 1.397 . S
C743 C744 1.334 . S
C744 H715 0.950 . S
C744 C743 1.334 . S
C744 C745 1.287 . S
C745 C744 1.287 . S
C745 C746 1.524 . S
C745 H748 0.999 . S
C746 H716 0.950 . S
C746 C745 1.524 . S
C746 C747 1.415 . S
C747 H717 0.950 . S
C747 C742 1.363 . S
C747 C746 1.415 . S
H748 C745 0.999 . S
H749 C730 0.913 . S
H750 C768 0.951 . S
H751 C770 0.951 . S
H752 C772 0.950 . S
H753 C773 0.950 . S
H754 C775 0.950 . S
H755 C778 0.950 . S
H756 C779 0.950 . S
H757 C781 0.950 . S
H758 C782 0.950 . S
H759 C783 0.951 . S
H760 C785 0.951 . S
H761 C787 0.950 . S
H762 C788 0.950 . S
H763 C790 0.950 . S
H764 C793 0.950 . S
H765 C794 0.950 . S
H766 C796 0.950 . S
H767 C797 0.950 . S
C768 H750 0.951 . S
C768 C769 1.366 . S
C768 C770 1.388 . S
C769 C768 1.366 . S
C769 C773 1.385 . S
C770 H751 0.951 . S
C770 C768 1.388 . S
C770 C771 1.366 . S
C771 C770 1.366 . S
C771 C772 1.414 . S
C771 C774 1.499 . S
C772 H752 0.950 . S
C772 C771 1.414 . S
C772 C773 1.374 . S
C773 H753 0.950 . S
C773 C769 1.385 . S
C773 C772 1.374 . S
C774 C771 1.499 . S
C774 C775 1.373 . S
C774 C776 1.389 . S
C775 H754 0.950 . S
C775 C774 1.373 . S
C775 C791 1.377 . S
C776 C774 1.389 . S
C776 C777 1.524 . S
C776 C790 1.377 . S
C777 C776 1.524 . S
C777 C778 1.397 . S
C777 C782 1.363 . S
C778 H755 0.950 . S
C778 C777 1.397 . S
C778 C779 1.334 . S
C779 H756 0.950 . S
C779 C778 1.334 . S
C779 C780 1.287 . S
C780 C779 1.287 . S
C780 C781 1.524 . S
C780 H799 0.913 . S
C781 H757 0.950 . S
C781 C780 1.524 . S
C781 C782 1.415 . S
C782 H758 0.950 . S
C782 C777 1.363 . S
C782 C781 1.415 . S
C783 H759 0.951 . S
C783 C784 1.366 . S
C783 C785 1.388 . S
C784 C783 1.366 . S
C784 C788 1.385 . S
C785 H760 0.951 . S
C785 C783 1.388 . S
C785 C786 1.366 . S
C786 C785 1.366 . S
C786 C787 1.414 . S
C786 C789 1.499 . S
C787 H761 0.950 . S
C787 C786 1.414 . S
C787 C788 1.374 . S
C788 H762 0.950 . S
C788 C784 1.385 . S
C788 C787 1.374 . S
C789 C786 1.499 . S
C789 C790 1.373 . S
C789 C791 1.389 . S
C790 H763 0.950 . S
C790 C776 1.377 . S
C790 C789 1.373 . S
C791 C775 1.377 . S
C791 C789 1.389 . S
C791 C792 1.524 . S
C792 C791 1.524 . S
C792 C793 1.397 . S
C792 C797 1.363 . S
C793 H764 0.950 . S
C793 C792 1.397 . S
C793 C794 1.334 . S
C794 H765 0.950 . S
C794 C793 1.334 . S
C794 C795 1.287 . S
C795 C794 1.287 . S
C795 C796 1.524 . S
C795 H798 0.999 . S
C796 H766 0.950 . S
C796 C795 1.524 . S
C796 C797 1.415 . S
C797 H767 0.950 . S
C797 C792 1.363 . S
C797 C796 1.415 . S
H798 C795 0.999 . S
H799 C780 0.913 . S
H800 C818 0.951 . S
H801 C820 0.951 . S
H802 C822 0.950 . S
H803 C823 0.950 . S
H804 C825 0.950 . S
H805 C828 0.950 . S
H806 C829 0.950 . S
H807 C831 0.950 . S
H808 C832 0.950 . S
H809 C833 0.951 . S
H810 C835 0.951 . S
H811 C837 0.950 . S
H812 C838 0.950 . S
H813 C840 0.950 . S
H814 C843 0.950 . S
H815 C844 0.950 . S
H816 C846 0.950 . S
H817 C847 0.950 . S
C818 H800 0.951 . S
C818 C819 1.366 . S
C818 C820 1.388 . S
C819 C818 1.366 . S
C819 C823 1.385 . S
C820 H801 0.951 . S
C820 C818 1.388 . S
C820 C821 1.366 . S
C821 C820 1.366 . S
C821 C822 1.414 . S
C821 C824 1.499 . S
C822 H802 0.950 . S
C822 C821 1.414 . S
C822 C823 1.374 . S
C823 H803 0.950 . S
C823 C819 1.385 . S
C823 C822 1.374 . S
C824 C821 1.499 . S
C824 C825 1.373 . S
C824 C826 1.389 . S
C825 H804 0.950 . S
C825 C824 1.373 . S
C825 C841 1.377 . S
C826 C824 1.389 . S
C826 C827 1.524 . S
C826 C840 1.377 . S
C827 C826 1.524 . S
C827 C828 1.397 . S
C827 C832 1.363 . S
C828 H805 0.950 . S
C828 C827 1.397 . S
C828 C829 1.334 . S
C829 H806 0.950 . S
C829 C828 1.334 . S
C829 C830 1.287 . S
C830 C829 1.287 . S
C830 C831 1.524 . S
C830 H849 0.913 . S
C831 H807 0.950 . S
C831 C830 1.524 . S
C831 C832 1.415 . S
C832 H808 0.950 . S
C832 C827 1.363 . S
C832 C831 1.415 . S
C833 H809 0.951 . S
C833 C834 1.366 . S
C833 C835 1.388 . S
C834 C833 1.366 . S
C834 C838 1.385 . S
C835 H810 0.951 . S
C835 C833 1.388 . S
C835 C836 1.366 . S
C836 C835 1.366 . S
C836 C837 1.414 . S
C836 C839 1.499 . S
C837 H811 0.950 . S
C837 C836 1.414 . S
C837 C838 1.374 . S
C838 H812 0.950 . S
C838 C834 1.385 . S
C838 C837 1.374 . S
C839 C836 1.499 . S
C839 C840 1.373 . S
C839 C841 1.389 . S
C840 H813 0.950 . S
C840 C826 1.377 . S
C840 C839 1.373 . S
C841 C825 1.377 . S
C841 C839 1.389 . S
C841 C842 1.524 . S
C842 C841 1.524 . S
C842 C843 1.397 . S
C842 C847 1.363 . S
C843 H814 0.950 . S
C843 C842 1.397 . S
C843 C844 1.334 . S
C844 H815 0.950 . S
C844 C843 1.334 . S
C844 C845 1.287 . S
C845 C844 1.287 . S
C845 C846 1.524 . S
C845 H848 0.999 . S
C846 H816 0.950 . S
C846 C845 1.524 . S
C846 C847 1.415 . S
C847 H817 0.950 . S
C847 C842 1.363 . S
C847 C846 1.415 . S
H848 C845 0.999 . S
H849 C830 0.913 . S
H850 C868 0.951 . S
H851 C870 0.951 . S
H852 C872 0.950 . S
H853 C873 0.950 . S
H854 C875 0.950 . S
H855 C878 0.950 . S
H856 C879 0.950 . S
H857 C881 0.950 . S
H858 C882 0.950 . S
H859 C883 0.951 1_554 S
H860 C885 0.951 . S
H861 C887 0.950 . S
H862 C888 0.950 . S
H863 C890 0.950 . S
H864 C893 0.950 . S
H865 C894 0.950 . S
H866 C896 0.950 . S
H867 C897 0.950 . S
C868 H850 0.951 . S
C868 C869 1.366 . S
C868 C870 1.388 . S
C869 C868 1.366 . S
C869 C873 1.385 . S
C870 H851 0.951 . S
C870 C868 1.388 . S
C870 C871 1.366 . S
C871 C870 1.366 . S
C871 C872 1.414 . S
C871 C874 1.499 . S
C872 H852 0.950 . S
C872 C871 1.414 . S
C872 C873 1.374 . S
C873 H853 0.950 . S
C873 C869 1.385 . S
C873 C872 1.374 . S
C874 C871 1.499 . S
C874 C875 1.373 . S
C874 C876 1.389 . S
C875 H854 0.950 . S
C875 C874 1.373 . S
C875 C891 1.377 . S
C876 C874 1.389 . S
C876 C877 1.524 . S
C876 C890 1.377 . S
C877 C876 1.524 . S
C877 C878 1.397 . S
C877 C882 1.363 . S
C878 H855 0.950 . S
C878 C877 1.397 . S
C878 C879 1.334 . S
C879 H856 0.950 . S
C879 C878 1.334 . S
C879 C880 1.287 . S
C880 C879 1.287 . S
C880 C881 1.524 . S
C880 H899 0.913 . S
C881 H857 0.950 . S
C881 C880 1.524 . S
C881 C882 1.415 . S
C882 H858 0.950 . S
C882 C877 1.363 . S
C882 C881 1.415 . S
C883 H859 0.951 1_556 S
C883 C884 1.366 . S
C883 C885 1.388 . S
C884 C883 1.366 . S
C884 C888 1.385 . S
C885 H860 0.951 . S
C885 C883 1.388 . S
C885 C886 1.366 . S
C886 C885 1.366 . S
C886 C887 1.414 . S
C886 C889 1.499 . S
C887 H861 0.950 . S
C887 C886 1.414 . S
C887 C888 1.374 . S
C888 H862 0.950 . S
C888 C884 1.385 . S
C888 C887 1.374 . S
C889 C886 1.499 . S
C889 C890 1.373 . S
C889 C891 1.389 . S
C890 H863 0.950 . S
C890 C876 1.377 . S
C890 C889 1.373 . S
C891 C875 1.377 . S
C891 C889 1.389 . S
C891 C892 1.524 . S
C892 C891 1.524 . S
C892 C893 1.397 . S
C892 C897 1.363 . S
C893 H864 0.950 . S
C893 C892 1.397 . S
C893 C894 1.334 . S
C894 H865 0.950 . S
C894 C893 1.334 . S
C894 C895 1.287 . S
C895 C894 1.287 . S
C895 C896 1.524 . S
C895 H898 0.999 . S
C896 H866 0.950 . S
C896 C895 1.524 . S
C896 C897 1.415 . S
C897 H867 0.950 . S
C897 C892 1.363 . S
C897 C896 1.415 . S
H898 C895 0.999 . S
H899 C880 0.913 . S
H900 C918 0.951 . S
H901 C920 0.951 . S
H902 C922 0.950 . S
H903 C923 0.950 . S
H904 C925 0.950 . S
H905 C928 0.950 . S
H906 C929 0.950 . S
H907 C931 0.950 . S
H908 C932 0.950 . S
H909 C933 0.951 . S
H910 C935 0.951 . S
H911 C937 0.950 . S
H912 C938 0.950 . S
H913 C940 0.950 . S
H914 C943 0.950 . S
H915 C944 0.950 1_455 S
H916 C946 0.950 . S
H917 C947 0.950 . S
C918 H900 0.951 . S
C918 C919 1.366 . S
C918 C920 1.388 . S
C919 C918 1.366 . S
C919 C923 1.385 . S
C920 H901 0.951 . S
C920 C918 1.388 . S
C920 C921 1.366 . S
C921 C920 1.366 . S
C921 C922 1.414 . S
C921 C924 1.499 . S
C922 H902 0.950 . S
C922 C921 1.414 . S
C922 C923 1.374 . S
C923 H903 0.950 . S
C923 C919 1.385 . S
C923 C922 1.374 . S
C924 C921 1.499 . S
C924 C925 1.373 . S
C924 C926 1.389 . S
C925 H904 0.950 . S
C925 C924 1.373 . S
C925 C941 1.377 . S
C926 C924 1.389 . S
C926 C927 1.524 . S
C926 C940 1.377 . S
C927 C926 1.524 . S
C927 C928 1.397 . S
C927 C932 1.363 . S
C928 H905 0.950 . S
C928 C927 1.397 . S
C928 C929 1.334 . S
C929 H906 0.950 . S
C929 C928 1.334 . S
C929 C930 1.287 . S
C930 C929 1.287 . S
C930 C931 1.524 . S
C930 H949 0.913 . S
C931 H907 0.950 . S
C931 C930 1.524 . S
C931 C932 1.415 . S
C932 H908 0.950 . S
C932 C927 1.363 . S
C932 C931 1.415 . S
C933 H909 0.951 . S
C933 C934 1.366 . S
C933 C935 1.388 . S
C934 C933 1.366 . S
C934 C938 1.385 . S
C935 H910 0.951 . S
C935 C933 1.388 . S
C935 C936 1.366 . S
C936 C935 1.366 . S
C936 C937 1.414 . S
C936 C939 1.499 . S
C937 H911 0.950 . S
C937 C936 1.414 . S
C937 C938 1.374 . S
C938 H912 0.950 . S
C938 C934 1.385 . S
C938 C937 1.374 . S
C939 C936 1.499 . S
C939 C940 1.373 . S
C939 C941 1.389 . S
C940 H913 0.950 . S
C940 C926 1.377 . S
C940 C939 1.373 . S
C941 C925 1.377 . S
C941 C939 1.389 . S
C941 C942 1.524 . S
C942 C941 1.524 . S
C942 C943 1.397 . S
C942 C947 1.363 . S
C943 H914 0.950 . S
C943 C942 1.397 . S
C943 C944 1.334 . S
C944 H915 0.950 1_655 S
C944 C943 1.334 . S
C944 C945 1.287 . S
C945 C944 1.287 . S
C945 C946 1.524 . S
C945 H948 0.999 . S
C946 H916 0.950 . S
C946 C945 1.524 . S
C946 C947 1.415 . S
C947 H917 0.950 . S
C947 C942 1.363 . S
C947 C946 1.415 . S
H948 C945 0.999 . S
H949 C930 0.913 . S
H950 C968 0.951 . S
H951 C970 0.951 . S
H952 C972 0.950 . S
H953 C973 0.950 . S
H954 C975 0.950 . S
H955 C978 0.950 . S
H956 C979 0.950 . S
H957 C981 0.950 . S
H958 C982 0.950 . S
H959 C983 0.951 . S
H960 C985 0.951 . S
H961 C987 0.950 . S
H962 C988 0.950 . S
H963 C990 0.950 . S
H964 C993 0.950 . S
H965 C994 0.950 . S
H966 C996 0.950 . S
H967 C997 0.950 . S
C968 H950 0.951 . S
C968 C969 1.366 . S
C968 C970 1.388 . S
C969 C968 1.366 . S
C969 C973 1.385 . S
C970 H951 0.951 . S
C970 C968 1.388 . S
C970 C971 1.366 . S
C971 C970 1.366 . S
C971 C972 1.414 . S
C971 C974 1.499 . S
C972 H952 0.950 . S
C972 C971 1.414 . S
C972 C973 1.374 . S
C973 H953 0.950 . S
C973 C969 1.385 . S
C973 C972 1.374 . S
C974 C971 1.499 . S
C974 C975 1.373 . S
C974 C976 1.389 . S
C975 H954 0.950 . S
C975 C974 1.373 . S
C975 C991 1.377 . S
C976 C974 1.389 . S
C976 C977 1.524 . S
C976 C990 1.377 . S
C977 C976 1.524 . S
C977 C978 1.397 . S
C977 C982 1.363 . S
C978 H955 0.950 . S
C978 C977 1.397 . S
C978 C979 1.334 . S
C979 H956 0.950 . S
C979 C978 1.334 . S
C979 C980 1.287 . S
C980 C979 1.287 . S
C980 C981 1.524 . S
C980 H999 0.913 . S
C981 H957 0.950 . S
C981 C980 1.524 . S
C981 C982 1.415 . S
C982 H958 0.950 . S
C982 C977 1.363 . S
C982 C981 1.415 . S
C983 H959 0.951 . S
C983 C984 1.366 . S
C983 C985 1.388 . S
C984 C983 1.366 . S
C984 C988 1.385 . S
C985 H960 0.951 . S
C985 C983 1.388 . S
C985 C986 1.366 . S
C986 C985 1.366 . S
C986 C987 1.414 . S
C986 C989 1.499 . S
C987 H961 0.950 . S
C987 C986 1.414 . S
C987 C988 1.374 . S
C988 H962 0.950 . S
C988 C984 1.385 . S
C988 C987 1.374 . S
C989 C986 1.499 . S
C989 C990 1.373 . S
C989 C991 1.389 . S
C990 H963 0.950 . S
C990 C976 1.377 . S
C990 C989 1.373 . S
C991 C975 1.377 . S
C991 C989 1.389 . S
C991 C992 1.524 . S
C992 C991 1.524 . S
C992 C993 1.397 . S
C992 C997 1.363 . S
C993 H964 0.950 . S
C993 C992 1.397 . S
C993 C994 1.334 . S
C994 H965 0.950 . S
C994 C993 1.334 . S
C994 C995 1.287 . S
C995 C994 1.287 . S
C995 C996 1.524 . S
C995 H998 0.999 . S
C996 H966 0.950 . S
C996 C995 1.524 . S
C996 C997 1.415 . S
C997 H967 0.950 . S
C997 C992 1.363 . S
C997 C996 1.415 . S
H998 C995 0.999 . S
H999 C980 0.913 . S
H1000 C1018 0.951 . S
H1001 C1020 0.951 . S
H1002 C1022 0.950 . S
H1003 C1023 0.950 . S
H1004 C1025 0.950 . S
H1005 C1028 0.950 . S
H1006 C1029 0.950 . S
H1007 C1031 0.950 . S
H1008 C1032 0.950 . S
H1009 C1033 0.951 . S
H1010 C1035 0.951 . S
H1011 C1037 0.950 . S
H1012 C1038 0.950 . S
H1013 C1040 0.950 . S
H1014 C1043 0.950 . S
H1015 C1044 0.950 . S
H1016 C1046 0.950 . S
H1017 C1047 0.950 . S
C1018 H1000 0.951 . S
C1018 C1019 1.366 . S
C1018 C1020 1.388 . S
C1019 C1018 1.366 . S
C1019 C1023 1.385 . S
C1020 H1001 0.951 . S
C1020 C1018 1.388 . S
C1020 C1021 1.366 . S
C1021 C1020 1.366 . S
C1021 C1022 1.414 . S
C1021 C1024 1.499 . S
C1022 H1002 0.950 . S
C1022 C1021 1.414 . S
C1022 C1023 1.374 . S
C1023 H1003 0.950 . S
C1023 C1019 1.385 . S
C1023 C1022 1.374 . S
C1024 C1021 1.499 . S
C1024 C1025 1.373 . S
C1024 C1026 1.389 . S
C1025 H1004 0.950 . S
C1025 C1024 1.373 . S
C1025 C1041 1.377 . S
C1026 C1024 1.389 . S
C1026 C1027 1.524 . S
C1026 C1040 1.377 . S
C1027 C1026 1.524 . S
C1027 C1028 1.397 . S
C1027 C1032 1.363 . S
C1028 H1005 0.950 . S
C1028 C1027 1.397 . S
C1028 C1029 1.334 . S
C1029 H1006 0.950 . S
C1029 C1028 1.334 . S
C1029 C1030 1.287 . S
C1030 C1029 1.287 . S
C1030 C1031 1.524 . S
C1030 H1049 0.913 . S
C1031 H1007 0.950 . S
C1031 C1030 1.524 . S
C1031 C1032 1.415 . S
C1032 H1008 0.950 . S
C1032 C1027 1.363 . S
C1032 C1031 1.415 . S
C1033 H1009 0.951 . S
C1033 C1034 1.366 . S
C1033 C1035 1.388 . S
C1034 C1033 1.366 . S
C1034 C1038 1.385 . S
C1035 H1010 0.951 . S
C1035 C1033 1.388 . S
C1035 C1036 1.366 . S
C1036 C1035 1.366 . S
C1036 C1037 1.414 . S
C1036 C1039 1.499 . S
C1037 H1011 0.950 . S
C1037 C1036 1.414 . S
C1037 C1038 1.374 . S
C1038 H1012 0.950 . S
C1038 C1034 1.385 . S
C1038 C1037 1.374 . S
C1039 C1036 1.499 . S
C1039 C1040 1.373 . S
C1039 C1041 1.389 . S
C1040 H1013 0.950 . S
C1040 C1026 1.377 . S
C1040 C1039 1.373 . S
C1041 C1025 1.377 . S
C1041 C1039 1.389 . S
C1041 C1042 1.524 . S
C1042 C1041 1.524 . S
C1042 C1043 1.397 . S
C1042 C1047 1.363 . S
C1043 H1014 0.950 . S
C1043 C1042 1.397 . S
C1043 C1044 1.334 . S
C1044 H1015 0.950 . S
C1044 C1043 1.334 . S
C1044 C1045 1.287 . S
C1045 C1044 1.287 . S
C1045 C1046 1.524 . S
C1045 H1048 0.999 . S
C1046 H1016 0.950 . S
C1046 C1045 1.524 . S
C1046 C1047 1.415 . S
C1047 H1017 0.950 . S
C1047 C1042 1.363 . S
C1047 C1046 1.415 . S
H1048 C1045 0.999 . S
H1049 C1030 0.913 . S
H1050 C1068 0.951 . S
H1051 C1070 0.951 . S
H1052 C1072 0.950 . S
H1053 C1073 0.950 . S
H1054 C1075 0.950 . S
H1055 C1078 0.950 . S
H1056 C1079 0.950 . S
H1057 C1081 0.950 . S
H1058 C1082 0.950 . S
H1059 C1083 0.951 . S
H1060 C1085 0.951 . S
H1061 C1087 0.950 . S
H1062 C1088 0.950 . S
H1063 C1090 0.950 . S
H1064 C1093 0.950 . S
H1065 C1094 0.950 . S
H1066 C1096 0.950 . S
H1067 C1097 0.950 . S
C1068 H1050 0.951 . S
C1068 C1069 1.366 . S
C1068 C1070 1.388 . S
C1069 C1068 1.366 . S
C1069 C1073 1.385 . S
C1070 H1051 0.951 . S
C1070 C1068 1.388 . S
C1070 C1071 1.366 . S
C1071 C1070 1.366 . S
C1071 C1072 1.414 . S
C1071 C1074 1.499 . S
C1072 H1052 0.950 . S
C1072 C1071 1.414 . S
C1072 C1073 1.374 . S
C1073 H1053 0.950 . S
C1073 C1069 1.385 . S
C1073 C1072 1.374 . S
C1074 C1071 1.499 . S
C1074 C1075 1.373 . S
C1074 C1076 1.389 . S
C1075 H1054 0.950 . S
C1075 C1074 1.373 . S
C1075 C1091 1.377 . S
C1076 C1074 1.389 . S
C1076 C1077 1.524 . S
C1076 C1090 1.377 . S
C1077 C1076 1.524 . S
C1077 C1078 1.397 . S
C1077 C1082 1.363 . S
C1078 H1055 0.950 . S
C1078 C1077 1.397 . S
C1078 C1079 1.334 . S
C1079 H1056 0.950 . S
C1079 C1078 1.334 . S
C1079 C1080 1.287 1_545 S
C1080 C1079 1.287 1_565 S
C1080 C1081 1.524 . S
C1080 H1099 0.913 . S
C1081 H1057 0.950 . S
C1081 C1080 1.524 . S
C1081 C1082 1.415 1_565 S
C1082 H1058 0.950 . S
C1082 C1077 1.363 . S
C1082 C1081 1.415 1_545 S
C1083 H1059 0.951 . S
C1083 C1084 1.366 . S
C1083 C1085 1.388 . S
C1084 C1083 1.366 . S
C1084 C1088 1.385 . S
C1085 H1060 0.951 . S
C1085 C1083 1.388 . S
C1085 C1086 1.366 . S
C1086 C1085 1.366 . S
C1086 C1087 1.414 . S
C1086 C1089 1.499 . S
C1087 H1061 0.950 . S
C1087 C1086 1.414 . S
C1087 C1088 1.374 . S
C1088 H1062 0.950 . S
C1088 C1084 1.385 . S
C1088 C1087 1.374 . S
C1089 C1086 1.499 . S
C1089 C1090 1.373 . S
C1089 C1091 1.389 . S
C1090 H1063 0.950 . S
C1090 C1076 1.377 . S
C1090 C1089 1.373 . S
C1091 C1075 1.377 . S
C1091 C1089 1.389 . S
C1091 C1092 1.524 . S
C1092 C1091 1.524 . S
C1092 C1093 1.397 . S
C1092 C1097 1.363 . S
C1093 H1064 0.950 . S
C1093 C1092 1.397 . S
C1093 C1094 1.334 . S
C1094 H1065 0.950 . S
C1094 C1093 1.334 . S
C1094 C1095 1.287 . S
C1095 C1094 1.287 . S
C1095 C1096 1.524 . S
C1095 H1098 0.999 . S
C1096 H1066 0.950 . S
C1096 C1095 1.524 . S
C1096 C1097 1.415 . S
C1097 H1067 0.950 . S
C1097 C1092 1.363 . S
C1097 C1096 1.415 . S
H1098 C1095 0.999 . S
H1099 C1080 0.913 . S
H1100 C1118 0.951 . S
H1101 C1120 0.951 . S
H1102 C1122 0.950 . S
H1103 C1123 0.950 . S
H1104 C1125 0.950 . S
H1105 C1128 0.950 . S
H1106 C1129 0.950 . S
H1107 C1131 0.950 . S
H1108 C1132 0.950 . S
H1109 C1133 0.951 . S
H1110 C1135 0.951 . S
H1111 C1137 0.950 . S
H1112 C1138 0.950 . S
H1113 C1140 0.950 . S
H1114 C1143 0.950 . S
H1115 C1144 0.950 . S
H1116 C1146 0.950 . S
H1117 C1147 0.950 . S
C1118 H1100 0.951 . S
C1118 C1119 1.366 . S
C1118 C1120 1.388 . S
C1119 C1118 1.366 . S
C1119 C1123 1.385 . S
C1120 H1101 0.951 . S
C1120 C1118 1.388 . S
C1120 C1121 1.366 . S
C1121 C1120 1.366 . S
C1121 C1122 1.414 . S
C1121 C1124 1.499 . S
C1122 H1102 0.950 . S
C1122 C1121 1.414 . S
C1122 C1123 1.374 . S
C1123 H1103 0.950 . S
C1123 C1119 1.385 . S
C1123 C1122 1.374 . S
C1124 C1121 1.499 . S
C1124 C1125 1.373 . S
C1124 C1126 1.389 . S
C1125 H1104 0.950 . S
C1125 C1124 1.373 . S
C1125 C1141 1.377 . S
C1126 C1124 1.389 . S
C1126 C1127 1.524 . S
C1126 C1140 1.377 . S
C1127 C1126 1.524 . S
C1127 C1128 1.397 . S
C1127 C1132 1.363 . S
C1128 H1105 0.950 . S
C1128 C1127 1.397 . S
C1128 C1129 1.334 . S
C1129 H1106 0.950 . S
C1129 C1128 1.334 . S
C1129 C1130 1.287 . S
C1130 C1129 1.287 . S
C1130 C1131 1.524 . S
C1130 H1149 0.913 . S
C1131 H1107 0.950 . S
C1131 C1130 1.524 . S
C1131 C1132 1.415 . S
C1132 H1108 0.950 . S
C1132 C1127 1.363 . S
C1132 C1131 1.415 . S
C1133 H1109 0.951 . S
C1133 C1134 1.366 . S
C1133 C1135 1.388 . S
C1134 C1133 1.366 . S
C1134 C1138 1.385 . S
C1135 H1110 0.951 . S
C1135 C1133 1.388 . S
C1135 C1136 1.366 . S
C1136 C1135 1.366 . S
C1136 C1137 1.414 . S
C1136 C1139 1.499 . S
C1137 H1111 0.950 . S
C1137 C1136 1.414 . S
C1137 C1138 1.374 . S
C1138 H1112 0.950 . S
C1138 C1134 1.385 . S
C1138 C1137 1.374 . S
C1139 C1136 1.499 . S
C1139 C1140 1.373 . S
C1139 C1141 1.389 . S
C1140 H1113 0.950 . S
C1140 C1126 1.377 . S
C1140 C1139 1.373 . S
C1141 C1125 1.377 . S
C1141 C1139 1.389 . S
C1141 C1142 1.524 . S
C1142 C1141 1.524 . S
C1142 C1143 1.397 . S
C1142 C1147 1.363 . S
C1143 H1114 0.950 . S
C1143 C1142 1.397 . S
C1143 C1144 1.334 . S
C1144 H1115 0.950 . S
C1144 C1143 1.334 . S
C1144 C1145 1.287 . S
C1145 C1144 1.287 . S
C1145 C1146 1.524 . S
C1145 H1148 0.999 . S
C1146 H1116 0.950 . S
C1146 C1145 1.524 . S
C1146 C1147 1.415 . S
C1147 H1117 0.950 . S
C1147 C1142 1.363 . S
C1147 C1146 1.415 . S
H1148 C1145 0.999 . S
H1149 C1130 0.913 . S
H1150 C1168 0.951 . S
H1151 C1170 0.951 . S
H1152 C1172 0.950 . S
H1153 C1173 0.950 . S
H1154 C1175 0.950 . S
H1155 C1178 0.950 . S
H1156 C1179 0.950 . S
H1157 C1181 0.950 . S
H1158 C1182 0.950 . S
H1159 C1183 0.951 . S
H1160 C1185 0.951 . S
H1161 C1187 0.950 . S
H1162 C1188 0.950 . S
H1163 C1190 0.950 . S
H1164 C1193 0.950 . S
H1165 C1194 0.950 . S
H1166 C1196 0.950 1_655 S
H1167 C1197 0.950 . S
C1168 H1150 0.951 . S
C1168 C1169 1.366 . S
C1168 C1170 1.388 . S
C1169 C1168 1.366 . S
C1169 C1173 1.385 . S
C1170 H1151 0.951 . S
C1170 C1168 1.388 . S
C1170 C1171 1.366 . S
C1171 C1170 1.366 . S
C1171 C1172 1.414 . S
C1171 C1174 1.499 . S
C1172 H1152 0.950 . S
C1172 C1171 1.414 . S
C1172 C1173 1.374 . S
C1173 H1153 0.950 . S
C1173 C1169 1.385 . S
C1173 C1172 1.374 . S
C1174 C1171 1.499 . S
C1174 C1175 1.373 . S
C1174 C1176 1.389 . S
C1175 H1154 0.950 . S
C1175 C1174 1.373 . S
C1175 C1191 1.377 . S
C1176 C1174 1.389 . S
C1176 C1177 1.524 . S
C1176 C1190 1.377 . S
C1177 C1176 1.524 . S
C1177 C1178 1.397 . S
C1177 C1182 1.363 . S
C1178 H1155 0.950 . S
C1178 C1177 1.397 . S
C1178 C1179 1.334 . S
C1179 H1156 0.950 . S
C1179 C1178 1.334 . S
C1179 C1180 1.287 . S
C1180 C1179 1.287 . S
C1180 C1181 1.524 . S
C1180 H1199 0.913 . S
C1181 H1157 0.950 . S
C1181 C1180 1.524 . S
C1181 C1182 1.415 . S
C1182 H1158 0.950 . S
C1182 C1177 1.363 . S
C1182 C1181 1.415 . S
C1183 H1159 0.951 . S
C1183 C1184 1.366 . S
C1183 C1185 1.388 . S
C1184 C1183 1.366 . S
C1184 C1188 1.385 . S
C1185 H1160 0.951 . S
C1185 C1183 1.388 . S
C1185 C1186 1.366 . S
C1186 C1185 1.366 . S
C1186 C1187 1.414 . S
C1186 C1189 1.499 . S
C1187 H1161 0.950 . S
C1187 C1186 1.414 . S
C1187 C1188 1.374 . S
C1188 H1162 0.950 . S
C1188 C1184 1.385 . S
C1188 C1187 1.374 . S
C1189 C1186 1.499 . S
C1189 C1190 1.373 . S
C1189 C1191 1.389 . S
C1190 H1163 0.950 . S
C1190 C1176 1.377 . S
C1190 C1189 1.373 . S
C1191 C1175 1.377 . S
C1191 C1189 1.389 . S
C1191 C1192 1.524 . S
C1192 C1191 1.524 . S
C1192 C1193 1.397 . S
C1192 C1197 1.363 . S
C1193 H1164 0.950 . S
C1193 C1192 1.397 . S
C1193 C1194 1.334 . S
C1194 H1165 0.950 . S
C1194 C1193 1.334 . S
C1194 C1195 1.287 . S
C1195 C1194 1.287 . S
C1195 C1196 1.524 . S
C1195 H1198 0.999 . S
C1196 H1166 0.950 1_455 S
C1196 C1195 1.524 . S
C1196 C1197 1.415 . S
C1197 H1167 0.950 . S
C1197 C1192 1.363 . S
C1197 C1196 1.415 . S
H1198 C1195 0.999 . S
H1199 C1180 0.913 . S
H1200 C1218 0.951 . S
H1201 C1220 0.951 . S
H1202 C1222 0.950 . S
H1203 C1223 0.950 . S
H1204 C1225 0.950 . S
H1205 C1228 0.950 . S
H1206 C1229 0.950 . S
H1207 C1231 0.950 . S
H1208 C1232 0.950 . S
H1209 C1233 0.951 . S
H1210 C1235 0.951 . S
H1211 C1237 0.950 . S
H1212 C1238 0.950 . S
H1213 C1240 0.950 . S
H1214 C1243 0.950 . S
H1215 C1244 0.950 . S
H1216 C1246 0.950 . S
H1217 C1247 0.950 . S
C1218 H1200 0.951 . S
C1218 C1219 1.366 . S
C1218 C1220 1.388 . S
C1219 C1218 1.366 . S
C1219 C1223 1.385 . S
C1220 H1201 0.951 . S
C1220 C1218 1.388 . S
C1220 C1221 1.366 . S
C1221 C1220 1.366 . S
C1221 C1222 1.414 . S
C1221 C1224 1.499 . S
C1222 H1202 0.950 . S
C1222 C1221 1.414 . S
C1222 C1223 1.374 . S
C1223 H1203 0.950 . S
C1223 C1219 1.385 . S
C1223 C1222 1.374 . S
C1224 C1221 1.499 . S
C1224 C1225 1.373 . S
C1224 C1226 1.389 . S
C1225 H1204 0.950 . S
C1225 C1224 1.373 . S
C1225 C1241 1.377 . S
C1226 C1224 1.389 . S
C1226 C1227 1.524 . S
C1226 C1240 1.377 . S
C1227 C1226 1.524 . S
C1227 C1228 1.397 . S
C1227 C1232 1.363 . S
C1228 H1205 0.950 . S
C1228 C1227 1.397 . S
C1228 C1229 1.334 . S
C1229 H1206 0.950 . S
C1229 C1228 1.334 . S
C1229 C1230 1.287 . S
C1230 C1229 1.287 . S
C1230 C1231 1.524 . S
C1230 H1249 0.913 . S
C1231 H1207 0.950 . S
C1231 C1230 1.524 . S
C1231 C1232 1.415 . S
C1232 H1208 0.950 . S
C1232 C1227 1.363 . S
C1232 C1231 1.415 . S
C1233 H1209 0.951 . S
C1233 C1234 1.366 . S
C1233 C1235 1.388 . S
C1234 C1233 1.366 . S
C1234 C1238 1.385 . S
C1235 H1210 0.951 . S
C1235 C1233 1.388 . S
C1235 C1236 1.366 . S
C1236 C1235 1.366 . S
C1236 C1237 1.414 . S
C1236 C1239 1.499 . S
C1237 H1211 0.950 . S
C1237 C1236 1.414 . S
C1237 C1238 1.374 . S
C1238 H1212 0.950 . S
C1238 C1234 1.385 . S
C1238 C1237 1.374 . S
C1239 C1236 1.499 . S
C1239 C1240 1.373 . S
C1239 C1241 1.389 . S
C1240 H1213 0.950 . S
C1240 C1226 1.377 . S
C1240 C1239 1.373 . S
C1241 C1225 1.377 . S
C1241 C1239 1.389 . S
C1241 C1242 1.524 . S
C1242 C1241 1.524 . S
C1242 C1243 1.397 . S
C1242 C1247 1.363 . S
C1243 H1214 0.950 . S
C1243 C1242 1.397 . S
C1243 C1244 1.334 . S
C1244 H1215 0.950 . S
C1244 C1243 1.334 . S
C1244 C1245 1.287 . S
C1245 C1244 1.287 . S
C1245 C1246 1.524 . S
C1245 H1248 0.999 . S
C1246 H1216 0.950 . S
C1246 C1245 1.524 . S
C1246 C1247 1.415 . S
C1247 H1217 0.950 . S
C1247 C1242 1.363 . S
C1247 C1246 1.415 . S
H1248 C1245 0.999 . S
H1249 C1230 0.913 . S
H1250 C1268 0.951 . S
H1251 C1270 0.951 . S
H1252 C1272 0.950 . S
H1253 C1273 0.950 . S
H1254 C1275 0.950 . S
H1255 C1278 0.950 . S
H1256 C1279 0.950 . S
H1257 C1281 0.950 . S
H1258 C1282 0.950 . S
H1259 C1283 0.951 . S
H1260 C1285 0.951 . S
H1261 C1287 0.950 . S
H1262 C1288 0.950 . S
H1263 C1290 0.950 . S
H1264 C1293 0.950 . S
H1265 C1294 0.950 . S
H1266 C1296 0.950 . S
H1267 C1297 0.950 . S
C1268 H1250 0.951 . S
C1268 C1269 1.366 . S
C1268 C1270 1.388 . S
C1269 C1268 1.366 . S
C1269 C1273 1.385 . S
C1270 H1251 0.951 . S
C1270 C1268 1.388 . S
C1270 C1271 1.366 . S
C1271 C1270 1.366 . S
C1271 C1272 1.414 . S
C1271 C1274 1.499 . S
C1272 H1252 0.950 . S
C1272 C1271 1.414 . S
C1272 C1273 1.374 . S
C1273 H1253 0.950 . S
C1273 C1269 1.385 . S
C1273 C1272 1.374 . S
C1274 C1271 1.499 . S
C1274 C1275 1.373 . S
C1274 C1276 1.389 . S
C1275 H1254 0.950 . S
C1275 C1274 1.373 . S
C1275 C1291 1.377 . S
C1276 C1274 1.389 . S
C1276 C1277 1.524 . S
C1276 C1290 1.377 . S
C1277 C1276 1.524 . S
C1277 C1278 1.397 . S
C1277 C1282 1.363 . S
C1278 H1255 0.950 . S
C1278 C1277 1.397 . S
C1278 C1279 1.334 . S
C1279 H1256 0.950 . S
C1279 C1278 1.334 . S
C1279 C1280 1.287 . S
C1280 C1279 1.287 . S
C1280 C1281 1.524 . S
C1280 H1299 0.913 . S
C1281 H1257 0.950 . S
C1281 C1280 1.524 . S
C1281 C1282 1.415 . S
C1282 H1258 0.950 . S
C1282 C1277 1.363 . S
C1282 C1281 1.415 . S
C1283 H1259 0.951 . S
C1283 C1284 1.366 . S
C1283 C1285 1.388 . S
C1284 C1283 1.366 . S
C1284 C1288 1.385 . S
C1285 H1260 0.951 . S
C1285 C1283 1.388 . S
C1285 C1286 1.366 . S
C1286 C1285 1.366 . S
C1286 C1287 1.414 . S
C1286 C1289 1.499 . S
C1287 H1261 0.950 . S
C1287 C1286 1.414 . S
C1287 C1288 1.374 . S
C1288 H1262 0.950 . S
C1288 C1284 1.385 . S
C1288 C1287 1.374 . S
C1289 C1286 1.499 . S
C1289 C1290 1.373 . S
C1289 C1291 1.389 . S
C1290 H1263 0.950 . S
C1290 C1276 1.377 . S
C1290 C1289 1.373 . S
C1291 C1275 1.377 . S
C1291 C1289 1.389 . S
C1291 C1292 1.524 . S
C1292 C1291 1.524 . S
C1292 C1293 1.397 . S
C1292 C1297 1.363 . S
C1293 H1264 0.950 . S
C1293 C1292 1.397 . S
C1293 C1294 1.334 1_545 S
C1294 H1265 0.950 . S
C1294 C1293 1.334 1_565 S
C1294 C1295 1.287 . S
C1295 C1294 1.287 . S
C1295 C1296 1.524 . S
C1295 H1298 0.999 . S
C1296 H1266 0.950 . S
C1296 C1295 1.524 . S
C1296 C1297 1.415 1_565 S
C1297 H1267 0.950 . S
C1297 C1292 1.363 . S
C1297 C1296 1.415 1_545 S
H1298 C1295 0.999 . S
H1299 C1280 0.913 . S
H1300 C1318 0.951 . S
H1301 C1320 0.951 . S
H1302 C1322 0.950 . S
H1303 C1323 0.950 . S
H1304 C1325 0.950 . S
H1305 C1328 0.950 . S
H1306 C1329 0.950 . S
H1307 C1331 0.950 . S
H1308 C1332 0.950 . S
H1309 C1333 0.951 . S
H1310 C1335 0.951 . S
H1311 C1337 0.950 . S
H1312 C1338 0.950 . S
H1313 C1340 0.950 . S
H1314 C1343 0.950 . S
H1315 C1344 0.950 . S
H1316 C1346 0.950 . S
H1317 C1347 0.950 . S
C1318 H1300 0.951 . S
C1318 C1319 1.366 . S
C1318 C1320 1.388 . S
C1319 C1318 1.366 . S
C1319 C1323 1.385 . S
C1320 H1301 0.951 . S
C1320 C1318 1.388 . S
C1320 C1321 1.366 . S
C1321 C1320 1.366 . S
C1321 C1322 1.414 . S
C1321 C1324 1.499 . S
C1322 H1302 0.950 . S
C1322 C1321 1.414 . S
C1322 C1323 1.374 . S
C1323 H1303 0.950 . S
C1323 C1319 1.385 . S
C1323 C1322 1.374 . S
C1324 C1321 1.499 . S
C1324 C1325 1.373 . S
C1324 C1326 1.389 . S
C1325 H1304 0.950 . S
C1325 C1324 1.373 . S
C1325 C1341 1.377 . S
C1326 C1324 1.389 . S
C1326 C1327 1.524 . S
C1326 C1340 1.377 . S
C1327 C1326 1.524 . S
C1327 C1328 1.397 . S
C1327 C1332 1.363 . S
C1328 H1305 0.950 . S
C1328 C1327 1.397 . S
C1328 C1329 1.334 . S
C1329 H1306 0.950 . S
C1329 C1328 1.334 . S
C1329 C1330 1.287 . S
C1330 C1329 1.287 . S
C1330 C1331 1.524 . S
C1330 H1349 0.913 . S
C1331 H1307 0.950 . S
C1331 C1330 1.524 . S
C1331 C1332 1.415 . S
C1332 H1308 0.950 . S
C1332 C1327 1.363 . S
C1332 C1331 1.415 . S
C1333 H1309 0.951 . S
C1333 C1334 1.366 . S
C1333 C1335 1.388 . S
C1334 C1333 1.366 . S
C1334 C1338 1.385 . S
C1335 H1310 0.951 . S
C1335 C1333 1.388 . S
C1335 C1336 1.366 . S
C1336 C1335 1.366 . S
C1336 C1337 1.414 . S
C1336 C1339 1.499 . S
C1337 H1311 0.950 . S
C1337 C1336 1.414 . S
C1337 C1338 1.374 . S
C1338 H1312 0.950 . S
C1338 C1334 1.385 . S
C1338 C1337 1.374 . S
C1339 C1336 1.499 . S
C1339 C1340 1.373 . S
C1339 C1341 1.389 . S
C1340 H1313 0.950 . S
C1340 C1326 1.377 . S
C1340 C1339 1.373 . S
C1341 C1325 1.377 . S
C1341 C1339 1.389 . S
C1341 C1342 1.524 . S
C1342 C1341 1.524 . S
C1342 C1343 1.397 . S
C1342 C1347 1.363 . S
C1343 H1314 0.950 . S
C1343 C1342 1.397 . S
C1343 C1344 1.334 . S
C1344 H1315 0.950 . S
C1344 C1343 1.334 . S
C1344 C1345 1.287 . S
C1345 C1344 1.287 . S
C1345 C1346 1.524 . S
C1345 H1348 0.999 . S
C1346 H1316 0.950 . S
C1346 C1345 1.524 . S
C1346 C1347 1.415 . S
C1347 H1317 0.950 . S
C1347 C1342 1.363 . S
C1347 C1346 1.415 . S
H1348 C1345 0.999 . S
H1349 C1330 0.913 . S
H1350 C1368 0.951 . S
H1351 C1370 0.951 . S
H1352 C1372 0.950 . S
H1353 C1373 0.950 . S
H1354 C1375 0.950 . S
H1355 C1378 0.950 . S
H1356 C1379 0.950 . S
H1357 C1381 0.950 . S
H1358 C1382 0.950 . S
H1359 C1383 0.951 . S
H1360 C1385 0.951 . S
H1361 C1387 0.950 . S
H1362 C1388 0.950 . S
H1363 C1390 0.950 . S
H1364 C1393 0.950 . S
H1365 C1394 0.950 . S
H1366 C1396 0.950 . S
H1367 C1397 0.950 . S
C1368 H1350 0.951 . S
C1368 C1369 1.366 . S
C1368 C1370 1.388 . S
C1369 C1368 1.366 . S
C1369 C1373 1.385 . S
C1370 H1351 0.951 . S
C1370 C1368 1.388 . S
C1370 C1371 1.366 . S
C1371 C1370 1.366 . S
C1371 C1372 1.414 . S
C1371 C1374 1.499 . S
C1372 H1352 0.950 . S
C1372 C1371 1.414 . S
C1372 C1373 1.374 . S
C1373 H1353 0.950 . S
C1373 C1369 1.385 . S
C1373 C1372 1.374 . S
C1374 C1371 1.499 . S
C1374 C1375 1.373 . S
C1374 C1376 1.389 . S
C1375 H1354 0.950 . S
C1375 C1374 1.373 . S
C1375 C1391 1.377 . S
C1376 C1374 1.389 . S
C1376 C1377 1.524 . S
C1376 C1390 1.377 . S
C1377 C1376 1.524 . S
C1377 C1378 1.397 . S
C1377 C1382 1.363 . S
C1378 H1355 0.950 . S
C1378 C1377 1.397 . S
C1378 C1379 1.334 . S
C1379 H1356 0.950 . S
C1379 C1378 1.334 . S
C1379 C1380 1.287 . S
C1380 C1379 1.287 . S
C1380 C1381 1.524 . S
C1380 H1399 0.913 . S
C1381 H1357 0.950 . S
C1381 C1380 1.524 . S
C1381 C1382 1.415 . S
C1382 H1358 0.950 . S
C1382 C1377 1.363 . S
C1382 C1381 1.415 . S
C1383 H1359 0.951 . S
C1383 C1384 1.366 . S
C1383 C1385 1.388 . S
C1384 C1383 1.366 . S
C1384 C1388 1.385 . S
C1385 H1360 0.951 . S
C1385 C1383 1.388 . S
C1385 C1386 1.366 . S
C1386 C1385 1.366 . S
C1386 C1387 1.414 . S
C1386 C1389 1.499 . S
C1387 H1361 0.950 . S
C1387 C1386 1.414 . S
C1387 C1388 1.374 . S
C1388 H1362 0.950 . S
C1388 C1384 1.385 . S
C1388 C1387 1.374 . S
C1389 C1386 1.499 . S
C1389 C1390 1.373 . S
C1389 C1391 1.389 . S
C1390 H1363 0.950 . S
C1390 C1376 1.377 . S
C1390 C1389 1.373 . S
C1391 C1375 1.377 . S
C1391 C1389 1.389 . S
C1391 C1392 1.524 . S
C1392 C1391 1.524 . S
C1392 C1393 1.397 . S
C1392 C1397 1.363 . S
C1393 H1364 0.950 . S
C1393 C1392 1.397 . S
C1393 C1394 1.334 . S
C1394 H1365 0.950 . S
C1394 C1393 1.334 . S
C1394 C1395 1.287 . S
C1395 C1394 1.287 . S
C1395 C1396 1.524 . S
C1395 H1398 0.999 . S
C1396 H1366 0.950 . S
C1396 C1395 1.524 . S
C1396 C1397 1.415 . S
C1397 H1367 0.950 . S
C1397 C1392 1.363 . S
C1397 C1396 1.415 . S
H1398 C1395 0.999 . S
H1399 C1380 0.913 . S
H1400 C1418 0.951 . S
H1401 C1420 0.951 . S
H1402 C1422 0.950 . S
H1403 C1423 0.950 . S
H1404 C1425 0.950 . S
H1405 C1428 0.950 . S
H1406 C1429 0.950 . S
H1407 C1431 0.950 . S
H1408 C1432 0.950 . S
H1409 C1433 0.951 . S
H1410 C1435 0.951 . S
H1411 C1437 0.950 . S
H1412 C1438 0.950 . S
H1413 C1440 0.950 . S
H1414 C1443 0.950 . S
H1415 C1444 0.950 . S
H1416 C1446 0.950 . S
H1417 C1447 0.950 . S
C1418 H1400 0.951 . S
C1418 C1419 1.366 . S
C1418 C1420 1.388 . S
C1419 C1418 1.366 . S
C1419 C1423 1.385 . S
C1420 H1401 0.951 . S
C1420 C1418 1.388 . S
C1420 C1421 1.366 . S
C1421 C1420 1.366 . S
C1421 C1422 1.414 . S
C1421 C1424 1.499 . S
C1422 H1402 0.950 . S
C1422 C1421 1.414 . S
C1422 C1423 1.374 . S
C1423 H1403 0.950 . S
C1423 C1419 1.385 . S
C1423 C1422 1.374 . S
C1424 C1421 1.499 . S
C1424 C1425 1.373 . S
C1424 C1426 1.389 . S
C1425 H1404 0.950 . S
C1425 C1424 1.373 . S
C1425 C1441 1.377 . S
C1426 C1424 1.389 . S
C1426 C1427 1.524 . S
C1426 C1440 1.377 . S
C1427 C1426 1.524 . S
C1427 C1428 1.397 . S
C1427 C1432 1.363 . S
C1428 H1405 0.950 . S
C1428 C1427 1.397 . S
C1428 C1429 1.334 . S
C1429 H1406 0.950 . S
C1429 C1428 1.334 . S
C1429 C1430 1.287 . S
C1430 C1429 1.287 . S
C1430 C1431 1.524 . S
C1430 H1449 0.913 . S
C1431 H1407 0.950 . S
C1431 C1430 1.524 . S
C1431 C1432 1.415 . S
C1432 H1408 0.950 . S
C1432 C1427 1.363 . S
C1432 C1431 1.415 . S
C1433 H1409 0.951 . S
C1433 C1434 1.366 . S
C1433 C1435 1.388 . S
C1434 C1433 1.366 . S
C1434 C1438 1.385 . S
C1435 H1410 0.951 . S
C1435 C1433 1.388 . S
C1435 C1436 1.366 . S
C1436 C1435 1.366 . S
C1436 C1437 1.414 . S
C1436 C1439 1.499 . S
C1437 H1411 0.950 . S
C1437 C1436 1.414 . S
C1437 C1438 1.374 . S
C1438 H1412 0.950 . S
C1438 C1434 1.385 . S
C1438 C1437 1.374 . S
C1439 C1436 1.499 . S
C1439 C1440 1.373 . S
C1439 C1441 1.389 . S
C1440 H1413 0.950 . S
C1440 C1426 1.377 . S
C1440 C1439 1.373 . S
C1441 C1425 1.377 . S
C1441 C1439 1.389 . S
C1441 C1442 1.524 . S
C1442 C1441 1.524 . S
C1442 C1443 1.397 . S
C1442 C1447 1.363 . S
C1443 H1414 0.950 . S
C1443 C1442 1.397 . S
C1443 C1444 1.334 . S
C1444 H1415 0.950 . S
C1444 C1443 1.334 . S
C1444 C1445 1.287 . S
C1445 C1444 1.287 . S
C1445 C1446 1.524 . S
C1445 H1448 0.999 1_556 S
C1446 H1416 0.950 . S
C1446 C1445 1.524 . S
C1446 C1447 1.415 . S
C1447 H1417 0.950 . S
C1447 C1442 1.363 . S
C1447 C1446 1.415 . S
H1448 C1445 0.999 1_554 S
H1449 C1430 0.913 . S
H1450 C1468 0.951 . S
H1451 C1470 0.951 . S
H1452 C1472 0.950 . S
H1453 C1473 0.950 . S
H1454 C1475 0.950 . S
H1455 C1478 0.950 . S
H1456 C1479 0.950 . S
H1457 C1481 0.950 . S
H1458 C1482 0.950 . S
H1459 C1483 0.951 . S
H1460 C1485 0.951 . S
H1461 C1487 0.950 . S
H1462 C1488 0.950 . S
H1463 C1490 0.950 . S
H1464 C1493 0.950 . S
H1465 C1494 0.950 . S
H1466 C1496 0.950 . S
H1467 C1497 0.950 . S
C1468 H1450 0.951 . S
C1468 C1469 1.366 . S
C1468 C1470 1.388 . S
C1469 C1468 1.366 . S
C1469 C1473 1.385 . S
C1470 H1451 0.951 . S
C1470 C1468 1.388 . S
C1470 C1471 1.366 . S
C1471 C1470 1.366 . S
C1471 C1472 1.414 . S
C1471 C1474 1.499 . S
C1472 H1452 0.950 . S
C1472 C1471 1.414 . S
C1472 C1473 1.374 . S
C1473 H1453 0.950 . S
C1473 C1469 1.385 . S
C1473 C1472 1.374 . S
C1474 C1471 1.499 . S
C1474 C1475 1.373 . S
C1474 C1476 1.389 . S
C1475 H1454 0.950 . S
C1475 C1474 1.373 . S
C1475 C1491 1.377 . S
C1476 C1474 1.389 . S
C1476 C1477 1.524 . S
C1476 C1490 1.377 . S
C1477 C1476 1.524 . S
C1477 C1478 1.397 . S
C1477 C1482 1.363 . S
C1478 H1455 0.950 . S
C1478 C1477 1.397 . S
C1478 C1479 1.334 . S
C1479 H1456 0.950 . S
C1479 C1478 1.334 . S
C1479 C1480 1.287 . S
C1480 C1479 1.287 . S
C1480 C1481 1.524 . S
C1480 H1499 0.913 . S
C1481 H1457 0.950 . S
C1481 C1480 1.524 . S
C1481 C1482 1.415 . S
C1482 H1458 0.950 . S
C1482 C1477 1.363 . S
C1482 C1481 1.415 . S
C1483 H1459 0.951 . S
C1483 C1484 1.366 . S
C1483 C1485 1.388 . S
C1484 C1483 1.366 . S
C1484 C1488 1.385 . S
C1485 H1460 0.951 . S
C1485 C1483 1.388 . S
C1485 C1486 1.366 . S
C1486 C1485 1.366 . S
C1486 C1487 1.414 . S
C1486 C1489 1.499 . S
C1487 H1461 0.950 . S
C1487 C1486 1.414 . S
C1487 C1488 1.374 . S
C1488 H1462 0.950 . S
C1488 C1484 1.385 . S
C1488 C1487 1.374 . S
C1489 C1486 1.499 . S
C1489 C1490 1.373 . S
C1489 C1491 1.389 . S
C1490 H1463 0.950 . S
C1490 C1476 1.377 . S
C1490 C1489 1.373 . S
C1491 C1475 1.377 . S
C1491 C1489 1.389 . S
C1491 C1492 1.524 . S
C1492 C1491 1.524 . S
C1492 C1493 1.397 . S
C1492 C1497 1.363 . S
C1493 H1464 0.950 . S
C1493 C1492 1.397 . S
C1493 C1494 1.334 . S
C1494 H1465 0.950 . S
C1494 C1493 1.334 . S
C1494 C1495 1.287 . S
C1495 C1494 1.287 . S
C1495 C1496 1.524 . S
C1495 H1498 0.999 . S
C1496 H1466 0.950 . S
C1496 C1495 1.524 . S
C1496 C1497 1.415 . S
C1497 H1467 0.950 . S
C1497 C1492 1.363 . S
C1497 C1496 1.415 . S
H1498 C1495 0.999 . S
H1499 C1480 0.913 . S
H1500 C1518 0.951 . S
H1501 C1520 0.951 . S
H1502 C1522 0.950 . S
H1503 C1523 0.950 . S
H1504 C1525 0.950 . S
H1505 C1528 0.950 . S
H1506 C1529 0.950 . S
H1507 C1531 0.950 1_655 S
H1508 C1532 0.950 . S
H1509 C1533 0.951 . S
H1510 C1535 0.951 . S
H1511 C1537 0.950 . S
H1512 C1538 0.950 . S
H1513 C1540 0.950 . S
H1514 C1543 0.950 . S
H1515 C1544 0.950 . S
H1516 C1546 0.950 . S
H1517 C1547 0.950 . S
C1518 H1500 0.951 . S
C1518 C1519 1.366 . S
C1518 C1520 1.388 . S
C1519 C1518 1.366 . S
C1519 C1523 1.385 . S
C1520 H1501 0.951 . S
C1520 C1518 1.388 . S
C1520 C1521 1.366 . S
C1521 C1520 1.366 . S
C1521 C1522 1.414 . S
C1521 C1524 1.499 . S
C1522 H1502 0.950 . S
C1522 C1521 1.414 . S
C1522 C1523 1.374 . S
C1523 H1503 0.950 . S
C1523 C1519 1.385 . S
C1523 C1522 1.374 . S
C1524 C1521 1.499 . S
C1524 C1525 1.373 . S
C1524 C1526 1.389 . S
C1525 H1504 0.950 . S
C1525 C1524 1.373 . S
C1525 C1541 1.377 . S
C1526 C1524 1.389 . S
C1526 C1527 1.524 . S
C1526 C1540 1.377 . S
C1527 C1526 1.524 . S
C1527 C1528 1.397 . S
C1527 C1532 1.363 . S
C1528 H1505 0.950 . S
C1528 C1527 1.397 . S
C1528 C1529 1.334 . S
C1529 H1506 0.950 . S
C1529 C1528 1.334 . S
C1529 C1530 1.287 . S
C1530 C1529 1.287 . S
C1530 C1531 1.524 . S
C1530 H1549 0.913 1_455 S
C1531 H1507 0.950 1_455 S
C1531 C1530 1.524 . S
C1531 C1532 1.415 . S
C1532 H1508 0.950 . S
C1532 C1527 1.363 . S
C1532 C1531 1.415 . S
C1533 H1509 0.951 . S
C1533 C1534 1.366 . S
C1533 C1535 1.388 . S
C1534 C1533 1.366 . S
C1534 C1538 1.385 . S
C1535 H1510 0.951 . S
C1535 C1533 1.388 . S
C1535 C1536 1.366 . S
C1536 C1535 1.366 . S
C1536 C1537 1.414 . S
C1536 C1539 1.499 . S
C1537 H1511 0.950 . S
C1537 C1536 1.414 . S
C1537 C1538 1.374 . S
C1538 H1512 0.950 . S
C1538 C1534 1.385 . S
C1538 C1537 1.374 . S
C1539 C1536 1.499 . S
C1539 C1540 1.373 . S
C1539 C1541 1.389 . S
C1540 H1513 0.950 . S
C1540 C1526 1.377 . S
C1540 C1539 1.373 . S
C1541 C1525 1.377 . S
C1541 C1539 1.389 . S
C1541 C1542 1.524 . S
C1542 C1541 1.524 . S
C1542 C1543 1.397 . S
C1542 C1547 1.363 . S
C1543 H1514 0.950 . S
C1543 C1542 1.397 . S
C1543 C1544 1.334 . S
C1544 H1515 0.950 . S
C1544 C1543 1.334 . S
C1544 C1545 1.287 . S
C1545 C1544 1.287 . S
C1545 C1546 1.524 . S
C1545 H1548 0.999 . S
C1546 H1516 0.950 . S
C1546 C1545 1.524 . S
C1546 C1547 1.415 . S
C1547 H1517 0.950 . S
C1547 C1542 1.363 . S
C1547 C1546 1.415 . S
H1548 C1545 0.999 . S
H1549 C1530 0.913 1_655 S
H1550 C1568 0.951 . S
H1551 C1570 0.951 . S
H1552 C1572 0.950 . S
H1553 C1573 0.950 . S
H1554 C1575 0.950 . S
H1555 C1578 0.950 . S
H1556 C1579 0.950 . S
H1557 C1581 0.950 . S
H1558 C1582 0.950 . S
H1559 C1583 0.951 . S
H1560 C1585 0.951 . S
H1561 C1587 0.950 . S
H1562 C1588 0.950 . S
H1563 C1590 0.950 . S
H1564 C1593 0.950 . S
H1565 C1594 0.950 . S
H1566 C1596 0.950 . S
H1567 C1597 0.950 . S
C1568 H1550 0.951 . S
C1568 C1569 1.366 . S
C1568 C1570 1.388 . S
C1569 C1568 1.366 . S
C1569 C1573 1.385 . S
C1570 H1551 0.951 . S
C1570 C1568 1.388 . S
C1570 C1571 1.366 . S
C1571 C1570 1.366 . S
C1571 C1572 1.414 . S
C1571 C1574 1.499 . S
C1572 H1552 0.950 . S
C1572 C1571 1.414 . S
C1572 C1573 1.374 . S
C1573 H1553 0.950 . S
C1573 C1569 1.385 . S
C1573 C1572 1.374 . S
C1574 C1571 1.499 . S
C1574 C1575 1.373 . S
C1574 C1576 1.389 . S
C1575 H1554 0.950 . S
C1575 C1574 1.373 . S
C1575 C1591 1.377 . S
C1576 C1574 1.389 . S
C1576 C1577 1.524 . S
C1576 C1590 1.377 . S
C1577 C1576 1.524 . S
C1577 C1578 1.397 . S
C1577 C1582 1.363 . S
C1578 H1555 0.950 . S
C1578 C1577 1.397 . S
C1578 C1579 1.334 . S
C1579 H1556 0.950 . S
C1579 C1578 1.334 . S
C1579 C1580 1.287 . S
C1580 C1579 1.287 . S
C1580 C1581 1.524 . S
C1580 H1599 0.913 . S
C1581 H1557 0.950 . S
C1581 C1580 1.524 . S
C1581 C1582 1.415 . S
C1582 H1558 0.950 . S
C1582 C1577 1.363 . S
C1582 C1581 1.415 . S
C1583 H1559 0.951 . S
C1583 C1584 1.366 . S
C1583 C1585 1.388 . S
C1584 C1583 1.366 . S
C1584 C1588 1.385 . S
C1585 H1560 0.951 . S
C1585 C1583 1.388 . S
C1585 C1586 1.366 . S
C1586 C1585 1.366 . S
C1586 C1587 1.414 . S
C1586 C1589 1.499 . S
C1587 H1561 0.950 . S
C1587 C1586 1.414 . S
C1587 C1588 1.374 . S
C1588 H1562 0.950 . S
C1588 C1584 1.385 . S
C1588 C1587 1.374 . S
C1589 C1586 1.499 . S
C1589 C1590 1.373 . S
C1589 C1591 1.389 . S
C1590 H1563 0.950 . S
C1590 C1576 1.377 . S
C1590 C1589 1.373 . S
C1591 C1575 1.377 . S
C1591 C1589 1.389 . S
C1591 C1592 1.524 . S
C1592 C1591 1.524 . S
C1592 C1593 1.397 . S
C1592 C1597 1.363 . S
C1593 H1564 0.950 . S
C1593 C1592 1.397 . S
C1593 C1594 1.334 . S
C1594 H1565 0.950 . S
C1594 C1593 1.334 . S
C1594 C1595 1.287 . S
C1595 C1594 1.287 . S
C1595 C1596 1.524 . S
C1595 H1598 0.999 . S
C1596 H1566 0.950 . S
C1596 C1595 1.524 . S
C1596 C1597 1.415 . S
C1597 H1567 0.950 . S
C1597 C1592 1.363 . S
C1597 C1596 1.415 . S
H1598 C1595 0.999 . S
H1599 C1580 0.913 . S
C419 C21 1.570 . S
C434 C322 1.635 . S
C469 C61 1.410 . S
C484 C341 1.407 . S
C534 C378 1.654 . S
C519 C82 1.671 . S
C569 C135 1.677 . S
C584 C388 1.623 . S
C634 C358 2.131 . S
C619 C15 2.089 . S
C684 C328 1.499 . S
C669 C42 1.540 . S
C734 C399 1.472 . S
C719 C101 1.484 . S
C784 C369 1.298 . S
C769 C122 1.322 . S
C819 C2 1.841 . S
C834 C382 1.905 . S
C884 C349 1.632 . S
C869 C95 1.681 . S
C919 C141 1.767 . S
C934 C339 1.762 . S
C969 C55 1.225 . S
C984 C361 1.221 . S
C1034 C321 1.650 . S
C1019 C181 1.663 . S
C1069 C202 1.383 . S
C1084 C342 1.387 . S
C1119 C255 1.705 . S
C1134 C379 1.681 . S
C1169 C295 1.653 . S
C1184 C389 1.601 . S
C1219 C175 2.081 . S
C1234 C359 2.113 . S
C1284 C329 1.517 . S
C1269 C221 1.551 . S
C1334 C398 1.407 . S
C1319 C242 1.414 . S
C1384 C368 1.367 . S
C1369 C301 1.397 . S
C1419 C162 1.877 . S
C1434 C381 1.869 . S
C1484 C348 1.669 . S
C1469 C261 1.704 . S
C1534 C338 1.743 . S
C1519 C282 1.742 . S
C1569 C215 1.272 . S
C1584 C362 1.268 . S
