# Generated by pormake.
# Topology iac, (4,6)-cn, num edge types: 1
# Building blocks:
#     Node 0, Type 0, BuildingBlock: GALJAG_clean_sbu_0, # of connection points: 4
#     Node 1, Type 0, BuildingBlock: GALJAG_clean_sbu_0, # of connection points: 4
#     Node 2, Type 0, BuildingBlock: GALJAG_clean_sbu_0, # of connection points: 4
#     Node 3, Type 0, BuildingBlock: GALJAG_clean_sbu_0, # of connection points: 4
#     Node 4, Type 0, BuildingBlock: GALJAG_clean_sbu_0, # of connection points: 4
#     Node 5, Type 0, BuildingBlock: GALJAG_clean_sbu_0, # of connection points: 4
#     Node 6, Type 0, BuildingBlock: GALJAG_clean_sbu_0, # of connection points: 4
#     Node 7, Type 0, BuildingBlock: GALJAG_clean_sbu_0, # of connection points: 4
#     Node 8, Type 0, BuildingBlock: GALJAG_clean_sbu_0, # of connection points: 4
#     Node 9, Type 0, BuildingBlock: GALJAG_clean_sbu_0, # of connection points: 4
#     Node 10, Type 0, BuildingBlock: GALJAG_clean_sbu_0, # of connection points: 4
#     Node 11, Type 0, BuildingBlock: GALJAG_clean_sbu_0, # of connection points: 4
#     Node 12, Type 0, BuildingBlock: GALJAG_clean_sbu_0, # of connection points: 4
#     Node 13, Type 0, BuildingBlock: GALJAG_clean_sbu_0, # of connection points: 4
#     Node 14, Type 0, BuildingBlock: GALJAG_clean_sbu_0, # of connection points: 4
#     Node 15, Type 0, BuildingBlock: GALJAG_clean_sbu_0, # of connection points: 4
#     Node 16, Type 0, BuildingBlock: GALJAG_clean_sbu_0, # of connection points: 4
#     Node 17, Type 0, BuildingBlock: GALJAG_clean_sbu_0, # of connection points: 4
#     Node 18, Type 0, BuildingBlock: GALJAG_clean_sbu_0, # of connection points: 4
#     Node 19, Type 0, BuildingBlock: GALJAG_clean_sbu_0, # of connection points: 4
#     Node 20, Type 0, BuildingBlock: GALJAG_clean_sbu_0, # of connection points: 4
#     Node 21, Type 0, BuildingBlock: GALJAG_clean_sbu_0, # of connection points: 4
#     Node 22, Type 0, BuildingBlock: GALJAG_clean_sbu_0, # of connection points: 4
#     Node 23, Type 0, BuildingBlock: GALJAG_clean_sbu_0, # of connection points: 4
#     Node 24, Type 1, BuildingBlock: JUFBIX_clean_sbu_0, # of connection points: 6
#     Node 25, Type 1, BuildingBlock: JUFBIX_clean_sbu_0, # of connection points: 6
#     Node 26, Type 1, BuildingBlock: JUFBIX_clean_sbu_0, # of connection points: 6
#     Node 27, Type 1, BuildingBlock: JUFBIX_clean_sbu_0, # of connection points: 6
#     Node 28, Type 1, BuildingBlock: JUFBIX_clean_sbu_0, # of connection points: 6
#     Node 29, Type 1, BuildingBlock: JUFBIX_clean_sbu_0, # of connection points: 6
#     Node 30, Type 1, BuildingBlock: JUFBIX_clean_sbu_0, # of connection points: 6
#     Node 31, Type 1, BuildingBlock: JUFBIX_clean_sbu_0, # of connection points: 6
#     Node 32, Type 1, BuildingBlock: JUFBIX_clean_sbu_0, # of connection points: 6
#     Node 33, Type 1, BuildingBlock: JUFBIX_clean_sbu_0, # of connection points: 6
#     Node 34, Type 1, BuildingBlock: JUFBIX_clean_sbu_0, # of connection points: 6
#     Node 35, Type 1, BuildingBlock: JUFBIX_clean_sbu_0, # of connection points: 6
#     Node 36, Type 1, BuildingBlock: JUFBIX_clean_sbu_0, # of connection points: 6
#     Node 37, Type 1, BuildingBlock: JUFBIX_clean_sbu_0, # of connection points: 6
#     Node 38, Type 1, BuildingBlock: JUFBIX_clean_sbu_0, # of connection points: 6
#     Node 39, Type 1, BuildingBlock: JUFBIX_clean_sbu_0, # of connection points: 6
#     Edge 40, Type (0, 1), BuildingBlock: XIVTED_clean_linker_0, # of connection points: 2
#     Edge 41, Type (0, 1), BuildingBlock: XIVTED_clean_linker_0, # of connection points: 2
#     Edge 42, Type (0, 1), BuildingBlock: XIVTED_clean_linker_0, # of connection points: 2
#     Edge 43, Type (0, 1), BuildingBlock: XIVTED_clean_linker_0, # of connection points: 2
#     Edge 44, Type (0, 1), BuildingBlock: XIVTED_clean_linker_0, # of connection points: 2
#     Edge 45, Type (0, 1), BuildingBlock: XIVTED_clean_linker_0, # of connection points: 2
#     Edge 46, Type (0, 1), BuildingBlock: XIVTED_clean_linker_0, # of connection points: 2
#     Edge 47, Type (0, 1), BuildingBlock: XIVTED_clean_linker_0, # of connection points: 2
#     Edge 48, Type (0, 1), BuildingBlock: XIVTED_clean_linker_0, # of connection points: 2
#     Edge 49, Type (0, 1), BuildingBlock: XIVTED_clean_linker_0, # of connection points: 2
#     Edge 50, Type (0, 1), BuildingBlock: XIVTED_clean_linker_0, # of connection points: 2
#     Edge 51, Type (0, 1), BuildingBlock: XIVTED_clean_linker_0, # of connection points: 2
#     Edge 52, Type (0, 1), BuildingBlock: XIVTED_clean_linker_0, # of connection points: 2
#     Edge 53, Type (0, 1), BuildingBlock: XIVTED_clean_linker_0, # of connection points: 2
#     Edge 54, Type (0, 1), BuildingBlock: XIVTED_clean_linker_0, # of connection points: 2
#     Edge 55, Type (0, 1), BuildingBlock: XIVTED_clean_linker_0, # of connection points: 2
#     Edge 56, Type (0, 1), BuildingBlock: XIVTED_clean_linker_0, # of connection points: 2
#     Edge 57, Type (0, 1), BuildingBlock: XIVTED_clean_linker_0, # of connection points: 2
#     Edge 58, Type (0, 1), BuildingBlock: XIVTED_clean_linker_0, # of connection points: 2
#     Edge 59, Type (0, 1), BuildingBlock: XIVTED_clean_linker_0, # of connection points: 2
#     Edge 60, Type (0, 1), BuildingBlock: XIVTED_clean_linker_0, # of connection points: 2
#     Edge 61, Type (0, 1), BuildingBlock: XIVTED_clean_linker_0, # of connection points: 2
#     Edge 62, Type (0, 1), BuildingBlock: XIVTED_clean_linker_0, # of connection points: 2
#     Edge 63, Type (0, 1), BuildingBlock: XIVTED_clean_linker_0, # of connection points: 2
#     Edge 64, Type (0, 1), BuildingBlock: XIVTED_clean_linker_0, # of connection points: 2
#     Edge 65, Type (0, 1), BuildingBlock: XIVTED_clean_linker_0, # of connection points: 2
#     Edge 66, Type (0, 1), BuildingBlock: XIVTED_clean_linker_0, # of connection points: 2
#     Edge 67, Type (0, 1), BuildingBlock: XIVTED_clean_linker_0, # of connection points: 2
#     Edge 68, Type (0, 1), BuildingBlock: XIVTED_clean_linker_0, # of connection points: 2
#     Edge 69, Type (0, 1), BuildingBlock: XIVTED_clean_linker_0, # of connection points: 2
#     Edge 70, Type (0, 1), BuildingBlock: XIVTED_clean_linker_0, # of connection points: 2
#     Edge 71, Type (0, 1), BuildingBlock: XIVTED_clean_linker_0, # of connection points: 2
#     Edge 72, Type (0, 1), BuildingBlock: XIVTED_clean_linker_0, # of connection points: 2
#     Edge 73, Type (0, 1), BuildingBlock: XIVTED_clean_linker_0, # of connection points: 2
#     Edge 74, Type (0, 1), BuildingBlock: XIVTED_clean_linker_0, # of connection points: 2
#     Edge 75, Type (0, 1), BuildingBlock: XIVTED_clean_linker_0, # of connection points: 2
#     Edge 76, Type (0, 1), BuildingBlock: XIVTED_clean_linker_0, # of connection points: 2
#     Edge 77, Type (0, 1), BuildingBlock: XIVTED_clean_linker_0, # of connection points: 2
#     Edge 78, Type (0, 1), BuildingBlock: XIVTED_clean_linker_0, # of connection points: 2
#     Edge 79, Type (0, 1), BuildingBlock: XIVTED_clean_linker_0, # of connection points: 2
#     Edge 80, Type (0, 1), BuildingBlock: XIVTED_clean_linker_0, # of connection points: 2
#     Edge 81, Type (0, 1), BuildingBlock: XIVTED_clean_linker_0, # of connection points: 2
#     Edge 82, Type (0, 1), BuildingBlock: XIVTED_clean_linker_0, # of connection points: 2
#     Edge 83, Type (0, 1), BuildingBlock: XIVTED_clean_linker_0, # of connection points: 2
#     Edge 84, Type (0, 1), BuildingBlock: XIVTED_clean_linker_0, # of connection points: 2
#     Edge 85, Type (0, 1), BuildingBlock: XIVTED_clean_linker_0, # of connection points: 2
#     Edge 86, Type (0, 1), BuildingBlock: XIVTED_clean_linker_0, # of connection points: 2
#     Edge 87, Type (0, 1), BuildingBlock: XIVTED_clean_linker_0, # of connection points: 2
#     Edge 88, Type (0, 1), BuildingBlock: XIVTED_clean_linker_0, # of connection points: 2
#     Edge 89, Type (0, 1), BuildingBlock: XIVTED_clean_linker_0, # of connection points: 2
#     Edge 90, Type (0, 1), BuildingBlock: XIVTED_clean_linker_0, # of connection points: 2
#     Edge 91, Type (0, 1), BuildingBlock: XIVTED_clean_linker_0, # of connection points: 2
#     Edge 92, Type (0, 1), BuildingBlock: XIVTED_clean_linker_0, # of connection points: 2
#     Edge 93, Type (0, 1), BuildingBlock: XIVTED_clean_linker_0, # of connection points: 2
#     Edge 94, Type (0, 1), BuildingBlock: XIVTED_clean_linker_0, # of connection points: 2
#     Edge 95, Type (0, 1), BuildingBlock: XIVTED_clean_linker_0, # of connection points: 2
#     Edge 96, Type (0, 1), BuildingBlock: XIVTED_clean_linker_0, # of connection points: 2
#     Edge 97, Type (0, 1), BuildingBlock: XIVTED_clean_linker_0, # of connection points: 2
#     Edge 98, Type (0, 1), BuildingBlock: XIVTED_clean_linker_0, # of connection points: 2
#     Edge 99, Type (0, 1), BuildingBlock: XIVTED_clean_linker_0, # of connection points: 2
#     Edge 100, Type (0, 1), BuildingBlock: XIVTED_clean_linker_0, # of connection points: 2
#     Edge 101, Type (0, 1), BuildingBlock: XIVTED_clean_linker_0, # of connection points: 2
#     Edge 102, Type (0, 1), BuildingBlock: XIVTED_clean_linker_0, # of connection points: 2
#     Edge 103, Type (0, 1), BuildingBlock: XIVTED_clean_linker_0, # of connection points: 2
#     Edge 104, Type (0, 1), BuildingBlock: XIVTED_clean_linker_0, # of connection points: 2
#     Edge 105, Type (0, 1), BuildingBlock: XIVTED_clean_linker_0, # of connection points: 2
#     Edge 106, Type (0, 1), BuildingBlock: XIVTED_clean_linker_0, # of connection points: 2
#     Edge 107, Type (0, 1), BuildingBlock: XIVTED_clean_linker_0, # of connection points: 2
#     Edge 108, Type (0, 1), BuildingBlock: XIVTED_clean_linker_0, # of connection points: 2
#     Edge 109, Type (0, 1), BuildingBlock: XIVTED_clean_linker_0, # of connection points: 2
#     Edge 110, Type (0, 1), BuildingBlock: XIVTED_clean_linker_0, # of connection points: 2
#     Edge 111, Type (0, 1), BuildingBlock: XIVTED_clean_linker_0, # of connection points: 2
#     Edge 112, Type (0, 1), BuildingBlock: XIVTED_clean_linker_0, # of connection points: 2
#     Edge 113, Type (0, 1), BuildingBlock: XIVTED_clean_linker_0, # of connection points: 2
#     Edge 114, Type (0, 1), BuildingBlock: XIVTED_clean_linker_0, # of connection points: 2
#     Edge 115, Type (0, 1), BuildingBlock: XIVTED_clean_linker_0, # of connection points: 2
#     Edge 116, Type (0, 1), BuildingBlock: XIVTED_clean_linker_0, # of connection points: 2
#     Edge 117, Type (0, 1), BuildingBlock: XIVTED_clean_linker_0, # of connection points: 2
#     Edge 118, Type (0, 1), BuildingBlock: XIVTED_clean_linker_0, # of connection points: 2
#     Edge 119, Type (0, 1), BuildingBlock: XIVTED_clean_linker_0, # of connection points: 2
#     Edge 120, Type (0, 1), BuildingBlock: XIVTED_clean_linker_0, # of connection points: 2
#     Edge 121, Type (0, 1), BuildingBlock: XIVTED_clean_linker_0, # of connection points: 2
#     Edge 122, Type (0, 1), BuildingBlock: XIVTED_clean_linker_0, # of connection points: 2
#     Edge 123, Type (0, 1), BuildingBlock: XIVTED_clean_linker_0, # of connection points: 2
#     Edge 124, Type (0, 1), BuildingBlock: XIVTED_clean_linker_0, # of connection points: 2
#     Edge 125, Type (0, 1), BuildingBlock: XIVTED_clean_linker_0, # of connection points: 2
#     Edge 126, Type (0, 1), BuildingBlock: XIVTED_clean_linker_0, # of connection points: 2
#     Edge 127, Type (0, 1), BuildingBlock: XIVTED_clean_linker_0, # of connection points: 2
#     Edge 128, Type (0, 1), BuildingBlock: XIVTED_clean_linker_0, # of connection points: 2
#     Edge 129, Type (0, 1), BuildingBlock: XIVTED_clean_linker_0, # of connection points: 2
#     Edge 130, Type (0, 1), BuildingBlock: XIVTED_clean_linker_0, # of connection points: 2
#     Edge 131, Type (0, 1), BuildingBlock: XIVTED_clean_linker_0, # of connection points: 2
#     Edge 132, Type (0, 1), BuildingBlock: XIVTED_clean_linker_0, # of connection points: 2
#     Edge 133, Type (0, 1), BuildingBlock: XIVTED_clean_linker_0, # of connection points: 2
#     Edge 134, Type (0, 1), BuildingBlock: XIVTED_clean_linker_0, # of connection points: 2
#     Edge 135, Type (0, 1), BuildingBlock: XIVTED_clean_linker_0, # of connection points: 2
# Relax obj value: 0.259
# Max RMSD: 0.236
# Mean RMSD: 0.155
data_MOF--net-iac--node1-GALJAG_clean_sbu_0--node2-JUFBIX_clean_sbu_0--edge1-XIVTED_clean_linker_0
_symmetry_space_group_name_H-M    P1
_symmetry_Int_Tables_number       1
_symmetry_cell_setting            triclinic
loop_
_symmetry_equiv_pos_as_xyz
'x, y, z'
_cell_length_a     54.650228
_cell_length_b     55.849033
_cell_length_c     55.448207
_cell_angle_alpha  89.233949
_cell_angle_beta   88.158734
_cell_angle_gamma 88.701349
loop_
_atom_site_label
_atom_site_type_symbol
_atom_site_fract_x
_atom_site_fract_y
_atom_site_fract_z
_atom_type_partial_charge
In0 In 0.02625 0.27357 0.14932 0.0
O1 O 0.02632 0.24978 0.11455 0.0
O2 O 0.02606 0.23214 0.14827 0.0
C3 C 0.02562 0.31746 0.12569 0.0
C4 C 0.98258 0.27401 0.17579 0.0
C5 C 0.0701 0.2752 0.17246 0.0
O6 O 0.01872 0.2984 0.11609 0.0
O7 O 0.03294 0.31435 0.14692 0.0
O8 O 0.0495 0.27589 0.18341 0.0
O9 O 0.06876 0.27367 0.14982 0.0
C10 C 0.0259 0.22992 0.12573 0.0
O11 O 1.00111 0.26171 0.1816 0.0
O12 O 0.98597 0.28636 0.15685 0.0
In13 In 0.05575 0.7676 0.40178 0.0
O14 O 0.08706 0.77277 0.37463 0.0
O15 O 0.09328 0.78085 0.4113 0.0
C16 C 0.02096 0.76864 0.36869 0.0
C17 C 0.06426 0.7232 0.41867 0.0
C18 C 0.03296 0.80124 0.42894 0.0
O19 O 0.04016 0.78068 0.36641 0.0
O20 O 0.01991 0.75505 0.38705 0.0
O21 O 0.03273 0.77941 0.43504 0.0
O22 O 0.04538 0.80589 0.41002 0.0
C23 C 0.10169 0.78009 0.38989 0.0
O24 O 0.06394 0.74139 0.43193 0.0
O25 O 0.06015 0.72736 0.3967 0.0
In26 In 0.52324 0.78103 0.64633 0.0
O27 O 0.50812 0.81968 0.64079 0.0
O28 O 0.53292 0.8068 0.6138 0.0
C29 C 0.52427 0.73709 0.62324 0.0
C30 C 0.56527 0.78282 0.67299 0.0
C31 C 0.47858 0.7816 0.67038 0.0
O32 O 0.52075 0.75682 0.61231 0.0
O33 O 0.52789 0.73955 0.64541 0.0
O34 O 0.48229 0.77217 0.64998 0.0
O35 O 0.49744 0.79054 0.67892 0.0
C36 C 0.51945 0.82412 0.62115 0.0
O37 O 0.56403 0.79066 0.6516 0.0
O38 O 0.5455 0.77405 0.68097 0.0
In39 In 0.55879 0.26225 0.90982 0.0
O40 O 0.58726 0.27222 0.88107 0.0
O41 O 0.59557 0.27907 0.9174 0.0
C42 C 0.52244 0.25752 0.8791 0.0
C43 C 0.56924 0.21749 0.9255 0.0
C44 C 0.53442 0.29509 0.93699 0.0
O45 O 0.54229 0.26748 0.87316 0.0
O46 O 0.52131 0.24905 0.90035 0.0
O47 O 0.54393 0.27646 0.94615 0.0
O48 O 0.53802 0.29747 0.91457 0.0
C49 C 0.60227 0.28027 0.89549 0.0
O50 O 0.56728 0.23517 0.93936 0.0
O51 O 0.56619 0.22236 0.90353 0.0
In52 In 0.15992 1.00046 0.29442 0.0
O53 O 0.1862 0.97649 0.31576 0.0
O54 O 0.19749 0.98841 0.28063 0.0
C55 C 0.17259 0.0455 0.30308 0.0
C56 C 0.14551 0.98701 0.25102 0.0
C57 C 0.11849 0.99693 0.32152 0.0
O58 O 0.17742 0.02839 0.31736 0.0
O59 O 0.16115 0.03988 0.28469 0.0
O60 O 0.12271 0.01419 0.30726 0.0
O61 O 0.13537 0.98111 0.32234 0.0
C62 C 0.20285 0.97677 0.29941 0.0
O63 O 0.14117 0.97463 0.26982 0.0
O64 O 0.15746 0.00569 0.25418 0.0
In65 In 0.25076 0.91356 0.55495 0.0
O66 O 0.22969 0.94458 0.53795 0.0
O67 O 0.21459 0.90993 0.53632 0.0
C68 C 0.2822 0.94029 0.57879 0.0
C69 C 0.22792 0.88922 0.59064 0.0
C70 C 0.28085 0.89298 0.52151 0.0
O71 O 0.26343 0.94911 0.56907 0.0
O72 O 0.28489 0.91792 0.57679 0.0
O73 O 0.27316 0.88195 0.5401 0.0
O74 O 0.273 0.9143 0.51952 0.0
C75 C 0.21221 0.93199 0.53161 0.0
O76 O 0.23647 0.87921 0.57184 0.0
O77 O 0.2308 0.91154 0.59132 0.0
In78 In 0.44369 0.0388 0.75162 0.0
O79 O 0.41462 0.06198 0.73365 0.0
O80 O 0.42965 0.07409 0.76631 0.0
C81 C 0.40948 0.00591 0.76042 0.0
C82 C 0.47582 0.0446 0.71482 0.0
C83 C 0.47694 0.02775 0.78434 0.0
O84 O 0.41552 0.02075 0.77601 0.0
O85 O 0.42056 0.0078 0.74012 0.0
O86 O 0.47051 0.01301 0.76889 0.0
O87 O 0.46612 0.04795 0.78366 0.0
C88 C 0.41502 0.07805 0.74946 0.0
O89 O 0.4705 0.06093 0.72962 0.0
O90 O 0.46405 0.02553 0.71785 0.0
In91 In 0.27244 0.15481 0.02155 0.0
O92 O 0.29741 0.12256 0.03208 0.0
O93 O 0.31122 0.14647 0.0055 0.0
C94 C 0.23055 0.12828 0.02172 0.0
C95 C 0.27485 0.17835 0.06516 0.0
C96 C 0.27139 0.18107 0.97898 0.0
O97 O 0.25008 0.12231 0.01035 0.0
O98 O 0.23195 0.14768 0.03302 0.0
O99 O 0.28568 0.18557 0.99576 0.0
O100 O 0.25693 0.16433 0.98416 0.0
C101 C 0.31508 0.12789 0.01802 0.0
O102 O 0.26833 0.18889 0.04598 0.0
O103 O 0.27992 0.15646 0.06226 0.0
In104 In 0.73845 0.40172 0.05835 0.0
O105 O 0.72781 0.36873 0.08013 0.0
O106 O 0.73876 0.39945 0.09913 0.0
C107 C 0.75752 0.37374 0.02324 0.0
C108 C 0.69358 0.42148 0.05404 0.0
C109 C 0.7752 0.43289 0.05447 0.0
O110 O 0.76159 0.36983 0.0452 0.0
O111 O 0.7429 0.39101 0.01913 0.0
O112 O 0.75678 0.43425 0.04139 0.0
O113 O 0.77453 0.41648 0.07033 0.0
C114 C 0.73168 0.37808 0.10021 0.0
O115 O 0.71052 0.43178 0.06447 0.0
O116 O 0.69927 0.40111 0.04571 0.0
In117 In 0.88073 0.54814 0.26124 0.0
O118 O 0.91534 0.55127 0.23806 0.0
O119 O 0.88113 0.54998 0.22064 0.0
C120 C 0.90534 0.53479 0.30026 0.0
C121 C 0.86623 0.59395 0.26207 0.0
C122 C 0.8487 0.51269 0.26174 0.0
O123 O 0.91184 0.52797 0.27937 0.0
O124 O 0.88667 0.54848 0.3013 0.0
O125 O 0.84534 0.53108 0.27451 0.0
O126 O 0.86792 0.51252 0.24854 0.0
C127 C 0.90404 0.55194 0.21854 0.0
O128 O 0.85217 0.57745 0.25644 0.0
O129 O 0.88727 0.58718 0.26831 0.0
In130 In 0.77389 0.6573 0.53076 0.0
O131 O 0.81577 0.65509 0.53605 0.0
O132 O 0.79984 0.62497 0.52099 0.0
C133 C 0.73036 0.63303 0.53097 0.0
C134 C 0.77151 0.67844 0.5757 0.0
C135 C 0.77459 0.68315 0.48779 0.0
O136 O 0.75047 0.62333 0.53675 0.0
O137 O 0.73201 0.65501 0.52562 0.0
O138 O 0.77788 0.69259 0.50798 0.0
O139 O 0.77103 0.66094 0.48925 0.0
C140 C 0.81918 0.63431 0.52788 0.0
O141 O 0.77145 0.6903 0.55612 0.0
O142 O 0.7721 0.65607 0.57269 0.0
In143 In 0.66475 0.49553 0.78751 0.0
O144 O 0.70364 0.48513 0.7759 0.0
O145 O 0.69119 0.47392 0.81084 0.0
C146 C 0.67283 0.54174 0.79618 0.0
C147 C 0.65226 0.48151 0.74359 0.0
C148 C 0.62309 0.48903 0.81351 0.0
O149 O 0.67676 0.52545 0.81162 0.0
O150 O 0.66479 0.53468 0.77652 0.0
O151 O 0.62631 0.50655 0.79928 0.0
O152 O 0.64098 0.47434 0.81457 0.0
C153 C 0.70862 0.47456 0.79538 0.0
O154 O 0.64703 0.46942 0.76238 0.0
O155 O 0.66439 0.5 0.74701 0.0
In156 In 0.0154 0.77816 0.9049 0.0
O157 O 0.04177 0.7872 0.87272 0.0
O158 O 0.05658 0.76729 0.90157 0.0
C159 C 0.97229 0.77793 0.88033 0.0
C160 C 0.01412 0.73379 0.92773 0.0
C161 C 0.0168 0.82241 0.9271 0.0
O162 O 0.99324 0.77682 0.87009 0.0
O163 O 0.97287 0.77909 0.90307 0.0
O164 O 0.01603 0.80291 0.93893 0.0
O165 O 0.01616 0.81955 0.90468 0.0
C166 C 0.06052 0.77727 0.88135 0.0
O167 O 0.01795 0.753 0.93877 0.0
O168 O 0.0107 0.73699 0.90546 0.0
In169 In 0.01867 0.28765 0.62378 0.0
O170 O 0.02543 0.32727 0.62874 0.0
O171 O 0.99803 0.31781 0.60457 0.0
C172 C 0.01887 0.26351 0.58222 0.0
C173 C 0.06098 0.27081 0.64107 0.0
C174 C 0.98621 0.27897 0.65994 0.0
O175 O 1.00098 0.26346 0.59718 0.0
O176 O 0.03649 0.27623 0.58797 0.0
O177 O 0.00407 0.29257 0.66217 0.0
O178 O 0.98473 0.2697 0.63943 0.0
C179 C 0.00921 0.33431 0.6145 0.0
O180 O 0.04112 0.25997 0.64429 0.0
O181 O 0.0595 0.29003 0.62891 0.0
In182 In 0.51718 0.28429 0.40352 0.0
O183 O 0.54332 0.28013 0.36997 0.0
O184 O 0.55892 0.28761 0.40346 0.0
C185 C 0.47759 0.2837 0.37377 0.0
C186 C 0.51431 0.24185 0.42992 0.0
C187 C 0.51895 0.32842 0.42544 0.0
O188 O 0.49586 0.26962 0.37145 0.0
O189 O 0.47926 0.29821 0.39082 0.0
O190 O 0.51676 0.30898 0.43731 0.0
O191 O 0.51974 0.32558 0.40287 0.0
C192 C 0.56263 0.28347 0.38132 0.0
O193 O 0.49798 0.2582 0.43157 0.0
O194 O 0.53201 0.24735 0.41606 0.0
In195 In 0.51804 0.78127 0.12199 0.0
O196 O 0.53647 0.76871 0.08678 0.0
O197 O 0.50342 0.75218 0.09876 0.0
C198 C 0.50551 0.82693 0.11056 0.0
C199 C 0.48556 0.77217 0.15823 0.0
C200 C 0.56186 0.77109 0.14003 0.0
O201 O 0.49892 0.80943 0.09845 0.0
O202 O 0.51878 0.82143 0.12798 0.0
O203 O 0.55723 0.79051 0.12897 0.0
O204 O 0.54459 0.75642 0.14115 0.0
C205 C 0.52055 0.75329 0.083 0.0
O206 O 0.50622 0.78079 0.1616 0.0
O207 O 0.48131 0.76781 0.13653 0.0
In208 In 0.89536 0.06337 0.74848 0.0
O209 O 0.92752 0.07673 0.72495 0.0
O210 O 0.89681 0.06272 0.70772 0.0
C211 C 0.92886 0.06204 0.78285 0.0
C212 C 0.86018 0.09662 0.75859 0.0
C213 C 0.87474 0.02021 0.74774 0.0
O214 O 0.91945 0.0434 0.77499 0.0
O215 O 0.92183 0.08134 0.77293 0.0
O216 O 0.86534 0.03744 0.75952 0.0
O217 O 0.89451 0.02473 0.73647 0.0
C218 C 0.91801 0.07109 0.70543 0.0
O219 O 0.86974 0.08347 0.77447 0.0
O220 O 0.86842 0.09314 0.73738 0.0
In221 In 0.76913 0.16504 0.53562 0.0
O222 O 0.79201 0.13169 0.54298 0.0
O223 O 0.81066 0.1644 0.53746 0.0
C224 C 0.73034 0.13772 0.52885 0.0
C225 C 0.75716 0.1921 0.57428 0.0
C226 C 0.78066 0.18265 0.49154 0.0
O227 O 0.74891 0.13037 0.53986 0.0
O228 O 0.73073 0.15942 0.52217 0.0
O229 O 0.78193 0.19511 0.51028 0.0
O230 O 0.77307 0.16172 0.4951 0.0
C231 C 0.81221 0.14206 0.5409 0.0
O232 O 0.75333 0.19918 0.55304 0.0
O233 O 0.76677 0.17147 0.57592 0.0
In234 In 0.61631 0.01466 0.31437 0.0
O235 O 0.64402 0.99009 0.33302 0.0
O236 O 0.63356 0.98185 0.29736 0.0
C237 C 0.64089 0.05503 0.32105 0.0
C238 C 0.60075 0.02021 0.2694 0.0
C239 C 0.57689 0.00843 0.34383 0.0
O240 O 0.64897 0.03485 0.3281 0.0
O241 O 0.61988 0.05481 0.31237 0.0
O242 O 0.58601 0.0287 0.33997 0.0
O243 O 0.58861 0.99124 0.33422 0.0
C244 C 0.64615 0.97611 0.31529 0.0
O245 O 0.58753 0.01162 0.28626 0.0
O246 O 0.6222 0.02515 0.275 0.0
In247 In 0.77821 0.90397 0.02666 0.0
O248 O 0.75256 0.93694 0.03353 0.0
O249 O 0.7362 0.90416 0.02558 0.0
C250 C 0.82164 0.92779 0.02323 0.0
C251 C 0.77925 0.88233 0.07174 0.0
C252 C 0.77717 0.88213 0.9822 0.0
O253 O 0.80118 0.9377 0.01909 0.0
O254 O 0.82034 0.90577 0.02859 0.0
O255 O 0.77908 0.87047 0.00181 0.0
O256 O 0.77652 0.90452 0.98497 0.0
C257 C 0.73298 0.926 0.03043 0.0
O258 O 0.77656 0.8707 0.05262 0.0
O259 O 0.78159 0.9045 0.06809 0.0
In260 In 0.284 0.68414 0.02212 0.0
O261 O 0.27176 0.71698 0.04342 0.0
O262 O 0.29786 0.69296 0.05894 0.0
C263 C 0.28569 0.7069 0.97937 0.0
C264 C 0.32161 0.65408 0.01137 0.0
C265 C 0.24347 0.66015 0.034 0.0
O266 O 0.29587 0.715 0.99756 0.0
O267 O 0.27374 0.6881 0.98316 0.0
O268 O 0.26396 0.65507 0.04282 0.0
O269 O 0.24334 0.6776 0.01926 0.0
C270 C 0.28474 0.71173 0.06122 0.0
O271 O 0.29962 0.64785 0.01121 0.0
O272 O 0.32478 0.6753 0.01796 0.0
In273 In 0.15917 0.50449 0.79575 0.0
O274 O 0.19347 0.48083 0.79467 0.0
O275 O 0.16023 0.4659 0.78368 0.0
C276 C 0.17915 0.54722 0.80166 0.0
C277 C 0.13672 0.51579 0.75489 0.0
C278 C 0.1363 0.49463 0.83799 0.0
O279 O 0.19201 0.52843 0.79827 0.0
O280 O 0.15632 0.54424 0.80283 0.0
O281 O 0.1254 0.49523 0.81832 0.0
O282 O 0.15873 0.49938 0.83642 0.0
C283 C 0.18267 0.4627 0.78742 0.0
O284 O 0.12516 0.50983 0.77401 0.0
O285 O 0.15975 0.51542 0.75617 0.0
In286 In 0.28186 0.4003 0.51842 0.0
O287 O 0.29866 0.37027 0.54291 0.0
O288 O 0.26622 0.38754 0.55584 0.0
C289 C 0.28232 0.37797 0.474 0.0
C290 C 0.23742 0.42435 0.52097 0.0
C291 C 0.32268 0.42862 0.52023 0.0
O292 O 0.27712 0.36729 0.49365 0.0
O293 O 0.28812 0.39944 0.47677 0.0
O294 O 0.30291 0.43579 0.5111 0.0
O295 O 0.32185 0.40747 0.52836 0.0
C296 C 0.28278 0.37203 0.55989 0.0
O297 O 0.25621 0.43186 0.53099 0.0
O298 O 0.24103 0.40486 0.51004 0.0
In299 In 0.39956 0.56308 0.24683 0.0
O300 O 0.43023 0.5721 0.21949 0.0
O301 O 0.39452 0.5668 0.20661 0.0
C302 C 0.43498 0.56252 0.27942 0.0
C303 C 0.36659 0.59699 0.26101 0.0
C304 C 0.37809 0.52034 0.24534 0.0
O305 O 0.42496 0.54374 0.27269 0.0
O306 O 0.42775 0.58152 0.26905 0.0
O307 O 0.36887 0.53767 0.25707 0.0
O308 O 0.39822 0.52448 0.23456 0.0
C309 C 0.41667 0.57108 0.20153 0.0
O310 O 0.37377 0.58037 0.27482 0.0
O311 O 0.37602 0.59655 0.23996 0.0
Co312 Co 0.02393 0.03569 0.00594 0.0
C313 C 0.0194 0.06699 0.0461 0.0
Co314 Co 0.02959 0.0183 0.041 0.0
C315 C 0.00893 0.04628 0.95729 0.0
C316 C 0.03046 0.07371 0.97208 0.0
N317 N 0.02052 0.05231 0.97733 0.0
N318 N 0.01127 0.06315 0.93971 0.0
C319 C 0.02481 0.08042 0.94902 0.0
H320 H 0.99888 0.02992 0.95574 0.0
H321 H 0.0414 0.08369 0.98419 0.0
C322 C 0.03379 0.98685 0.0011 0.0
N323 N 0.0335 0.00152 0.06946 0.0
C324 C 0.04956 0.0053 0.08682 0.0
C325 C 0.02265 0.98081 0.07583 0.0
N326 N 0.04941 0.98761 0.10365 0.0
C327 C 0.03234 0.97226 0.09688 0.0
C328 C 0.98104 0.01653 0.02547 0.0
O329 O 0.02951 0.00585 0.98881 0.0
O330 O 0.03582 0.98875 0.02379 0.0
O331 O 0.99548 0.01108 0.0423 0.0
O332 O 0.98926 0.02883 0.00757 0.0
O333 O 0.02331 0.04784 0.05829 0.0
H334 H 0.00935 0.97192 0.06526 0.0
H335 H 0.06153 0.02047 0.08677 0.0
O336 O 0.01819 0.06537 0.02328 0.0
O337 O 0.05851 0.04235 0.00422 0.0
O338 O 0.06389 0.02581 0.03961 0.0
C339 C 0.07257 0.03739 0.0215 0.0
H340 H 0.03066 0.09655 0.9397 0.0
H341 H 0.02798 0.95547 0.10583 0.0
Co342 Co 0.31891 0.79854 0.31782 0.0
C343 C 0.30302 0.75474 0.3034 0.0
Co344 Co 0.29789 0.80077 0.2847 0.0
C345 C 0.33447 0.81374 0.36324 0.0
C346 C 0.35207 0.7804 0.35394 0.0
N347 N 0.33627 0.79732 0.34574 0.0
N348 N 0.34841 0.80789 0.38207 0.0
C349 C 0.3594 0.78677 0.37654 0.0
H350 H 0.32224 0.82925 0.36268 0.0
H351 H 0.35745 0.76426 0.34439 0.0
C352 C 0.31336 0.84458 0.2989 0.0
N353 N 0.28057 0.80202 0.25681 0.0
C354 C 0.28373 0.7868 0.23834 0.0
C355 C 0.26313 0.81785 0.24977 0.0
N356 N 0.26911 0.79241 0.21992 0.0
C357 C 0.25609 0.81202 0.22695 0.0
C358 C 0.26896 0.80628 0.32554 0.0
O359 O 0.32209 0.83247 0.31627 0.0
O360 O 0.30261 0.83387 0.28238 0.0
O361 O 0.26914 0.8063 0.30269 0.0
O362 O 0.28886 0.80257 0.33641 0.0
O363 O 0.29318 0.76737 0.287 0.0
H364 H 0.25624 0.83279 0.26041 0.0
H365 H 0.29716 0.77225 0.2382 0.0
O366 O 0.31537 0.76492 0.31917 0.0
O367 O 0.34869 0.79423 0.29903 0.0
O368 O 0.32665 0.79519 0.26669 0.0
C369 C 0.34725 0.79247 0.27627 0.0
H370 H 0.37148 0.77658 0.38811 0.0
H371 H 0.24254 0.82149 0.21641 0.0
Co372 Co 0.48786 0.03312 0.5246 0.0
C373 C 0.50654 0.07243 0.49888 0.0
Co374 Co 0.52594 0.02657 0.51184 0.0
C375 C 0.44524 0.02829 0.55617 0.0
C376 C 0.43886 0.0525 0.5267 0.0
N377 N 0.45631 0.03843 0.53661 0.0
N378 N 0.42148 0.03523 0.5587 0.0
C379 C 0.41749 0.0506 0.54022 0.0
H380 H 0.45423 0.01544 0.56788 0.0
H381 H 0.44115 0.06268 0.51008 0.0
C382 C 0.50801 0.98737 0.53785 0.0
N383 N 0.5574 0.02189 0.49978 0.0
C384 C 0.57409 0.03918 0.49815 0.0
C385 C 0.56948 0.0018 0.49242 0.0
N386 N 0.59609 0.03089 0.49016 0.0
C387 C 0.59353 0.00727 0.48674 0.0
C388 C 0.52307 0.0473 0.55597 0.0
O389 O 0.48875 1.00076 0.5392 0.0
O390 O 0.52675 0.99536 0.52649 0.0
O391 O 0.53829 0.03939 0.54016 0.0
O392 O 0.50025 0.04586 0.5528 0.0
O393 O 0.52507 0.0583 0.49702 0.0
H394 H 0.56154 0.98425 0.49193 0.0
H395 H 0.57054 0.05739 0.504 0.0
O396 O 0.48761 0.06498 0.51031 0.0
O397 O 0.47539 0.02056 0.49594 0.0
O398 O 0.51359 0.01355 0.48396 0.0
C399 C 0.49082 0.01231 0.48045 0.0
H400 H 0.39996 0.05859 0.53575 0.0
H401 H 0.60805 0.99489 0.48106 0.0
Co402 Co 0.3052 0.27413 0.76798 0.0
C403 C 0.29109 0.28234 0.72028 0.0
Co404 Co 0.27157 0.25561 0.75975 0.0
C405 C 0.35182 0.27864 0.78793 0.0
C406 C 0.34179 0.31076 0.76887 0.0
N407 N 0.3337 0.28887 0.77526 0.0
N408 N 0.371 0.29312 0.78975 0.0
C409 C 0.36487 0.31341 0.77773 0.0
H410 H 0.35118 0.26055 0.79512 0.0
H411 H 0.33169 0.3238 0.75829 0.0
C412 C 0.28488 0.24818 0.80772 0.0
N413 N 0.24344 0.24025 0.75249 0.0
C414 C 0.22584 0.24867 0.73805 0.0
C415 C 0.23671 0.21788 0.75877 0.0
N416 N 0.20849 0.23239 0.7347 0.0
C417 C 0.21511 0.213 0.74788 0.0
C418 C 0.3134 0.22817 0.75143 0.0
O419 O 0.30244 0.26157 0.80094 0.0
O420 O 0.26909 0.2431 0.79232 0.0
O421 O 0.29027 0.228 0.75017 0.0
O422 O 0.3235 0.24686 0.75859 0.0
O423 O 0.27392 0.26855 0.72717 0.0
H424 H 0.24717 0.2057 0.76999 0.0
H425 H 0.22592 0.26642 0.72998 0.0
O426 O 0.30761 0.28682 0.73518 0.0
O427 O 0.28702 0.30128 0.7773 0.0
O428 O 0.25302 0.28326 0.76928 0.0
C429 C 0.26388 0.3017 0.77628 0.0
H430 H 0.37615 0.32902 0.77559 0.0
H431 H 0.20552 0.19626 0.74892 0.0
Co432 Co 0.9983 0.01215 0.50778 0.0
C433 C 0.00467 0.03721 0.55 0.0
Co434 Co 0.01653 0.04666 0.50236 0.0
C435 C 0.98561 0.96372 0.49987 0.0
C436 C 0.96695 0.97719 0.5315 0.0
N437 N 0.98285 0.98343 0.51342 0.0
N438 N 0.97213 0.94554 0.50861 0.0
C439 C 0.96051 0.95366 0.5287 0.0
H440 H 0.9977 0.96246 0.48406 0.0
H441 H 0.96048 0.98894 0.5458 0.0
C442 C 0.00992 0.02173 0.46016 0.0
N443 N 0.03172 0.07538 0.49666 0.0
C444 C 0.02331 0.09707 0.50378 0.0
C445 C 0.05246 0.07969 0.48361 0.0
N446 N 0.03778 0.11481 0.49559 0.0
C447 C 0.05633 0.104 0.48305 0.0
C448 C 0.04871 0.00855 0.50875 0.0
O449 O 0.99955 0.0066 0.47409 0.0
O450 O 0.01838 0.04058 0.46893 0.0
O451 O 0.04719 0.03111 0.50586 0.0
O452 O 0.02926 0.99651 0.51027 0.0
O453 O 0.01439 0.05287 0.53613 0.0
H454 H 0.06382 0.06608 0.47481 0.0
H455 H 0.0069 0.09975 0.51496 0.0
O456 O 0.99736 0.01795 0.54107 0.0
O457 O 0.9674 0.02788 0.50544 0.0
O458 O 0.98586 0.06187 0.49895 0.0
C459 C 0.96624 0.05036 0.50176 0.0
H460 H 0.94815 0.94343 0.54024 0.0
H461 H 0.07134 0.11302 0.47385 0.0
Co462 Co 0.27196 0.8075 0.78353 0.0
C463 C 0.22779 0.7877 0.7996 0.0
Co464 Co 0.26691 0.77119 0.76984 0.0
C465 C 0.29747 0.85053 0.79355 0.0
C466 C 0.25884 0.85522 0.79947 0.0
N467 N 0.27632 0.83853 0.79396 0.0
N468 N 0.29389 0.87406 0.79784 0.0
C469 C 0.26961 0.87708 0.80193 0.0
H470 H 0.31516 0.84247 0.78897 0.0
H471 H 0.23937 0.85216 0.79998 0.0
C472 C 0.31112 0.79012 0.75363 0.0
N473 N 0.26251 0.74079 0.75891 0.0
C474 C 0.25547 0.72156 0.77204 0.0
C475 C 0.2638 0.73335 0.73583 0.0
N476 N 0.25198 0.70254 0.75805 0.0
C477 C 0.25706 0.70979 0.73523 0.0
C478 C 0.24789 0.80643 0.74056 0.0
O479 O 0.30346 0.80783 0.76619 0.0
O480 O 0.29759 0.77203 0.75245 0.0
O481 O 0.25081 0.78393 0.74275 0.0
O482 O 0.25642 0.82003 0.75621 0.0
O483 O 0.23604 0.77002 0.78735 0.0
H484 H 0.26858 0.74455 0.7204 0.0
H485 H 0.25177 0.72184 0.79134 0.0
O486 O 0.24059 0.80641 0.80046 0.0
O487 O 0.28717 0.79498 0.81111 0.0
O488 O 0.28278 0.75878 0.79718 0.0
C489 C 0.28991 0.77244 0.81356 0.0
H490 H 0.26012 0.89411 0.80456 0.0
H491 H 0.25548 0.69898 0.71932 0.0
Co492 Co 0.52115 0.017 0.00974 0.0
C493 C 0.56608 0.00708 0.03218 0.0
Co494 Co 0.52578 0.03551 0.04375 0.0
C495 C 0.52015 0.00735 0.95926 0.0
C496 C 0.52285 0.97527 0.98057 0.0
N497 N 0.51958 0.99926 0.98219 0.0
N498 N 0.52419 0.9895 0.94343 0.0
C499 C 0.52554 0.96919 0.95669 0.0
H500 H 0.51844 0.0261 0.95432 0.0
H501 H 0.52472 0.96311 0.99578 0.0
C502 C 0.48076 0.04519 0.0214 0.0
N503 N 0.52806 0.05259 0.07148 0.0
C504 C 0.5336 0.04353 0.09321 0.0
C505 C 0.52512 0.07642 0.07475 0.0
N506 N 0.53429 0.06065 0.10992 0.0
C507 C 0.52922 0.08149 0.0985 0.0
C508 C 0.54293 0.06062 0.00346 0.0
O509 O 0.48955 0.03177 0.00469 0.0
O510 O 0.49354 0.04878 0.03975 0.0
O511 O 0.53942 0.06128 0.02613 0.0
O512 O 0.5364 0.04238 0.99213 0.0
O513 O 0.55818 0.02209 0.04778 0.0
H514 H 0.52053 0.08926 0.06074 0.0
H515 H 0.53774 0.02475 0.09661 0.0
O516 O 0.55256 0.00233 0.01476 0.0
O517 O 0.50597 0.99204 0.02728 0.0
O518 O 0.51221 0.00941 0.06154 0.0
C519 C 0.50425 0.99186 0.05011 0.0
H520 H 0.52944 0.95145 0.94974 0.0
H521 H 0.52853 0.09896 0.10675 0.0
Co522 Co 0.27379 0.26453 0.27734 0.0
C523 C 0.32245 0.27976 0.2793 0.0
Co524 Co 0.28008 0.29883 0.25901 0.0
C525 C 0.25472 0.21819 0.28991 0.0
C526 C 0.27884 0.23125 0.31614 0.0
N527 N 0.26917 0.23664 0.29461 0.0
N528 N 0.25488 0.2015 0.30776 0.0
C529 C 0.27011 0.20968 0.32426 0.0
H530 H 0.24427 0.21716 0.27373 0.0
H531 H 0.29103 0.24258 0.3256 0.0
C532 C 0.23143 0.28374 0.25695 0.0
N533 N 0.2849 0.32694 0.24217 0.0
C534 C 0.29641 0.34647 0.24951 0.0
C535 C 0.27817 0.33219 0.21946 0.0
N536 N 0.29729 0.36363 0.23223 0.0
C537 C 0.28592 0.35475 0.21324 0.0
C538 C 0.28469 0.25859 0.22829 0.0
O539 O 0.23927 0.26647 0.27006 0.0
O540 O 0.24616 0.30023 0.25086 0.0
O541 O 0.28695 0.28117 0.22964 0.0
O542 O 0.27971 0.2469 0.24768 0.0
O543 O 0.31413 0.29751 0.26722 0.0
H544 H 0.26838 0.32031 0.20813 0.0
H545 H 0.3045 0.34786 0.267 0.0
O546 O 0.30817 0.26264 0.28446 0.0
O547 O 0.26783 0.28206 0.30686 0.0
O548 O 0.27323 0.31643 0.28853 0.0
C549 C 0.26921 0.3047 0.30806 0.0
H550 H 0.27417 0.20107 0.34131 0.0
H551 H 0.28327 0.36399 0.1962 0.0
Co552 Co 0.48853 0.50759 0.99693 0.0
C553 C 0.48481 0.53672 0.03706 0.0
Co554 Co 0.51007 0.54038 0.9935 0.0
C555 C 0.48024 0.45748 0.99962 0.0
C556 C 0.44664 0.47728 0.00524 0.0
N557 N 0.4709 0.47994 0.00093 0.0
N558 N 0.46292 0.44093 0.00292 0.0
C559 C 0.44161 0.45317 0.00615 0.0
H560 H 0.49931 0.45325 0.99538 0.0
H561 H 0.43342 0.49189 0.00723 0.0
C562 C 0.51326 0.51142 0.95327 0.0
N563 N 0.52757 0.56801 0.9895 0.0
C564 C 0.51958 0.59019 0.99536 0.0
C565 C 0.55047 0.57082 0.98025 0.0
N566 N 0.53649 0.60685 0.99021 0.0
C567 C 0.55608 0.59475 0.98079 0.0
C568 C 0.53631 0.50278 0.01257 0.0
O569 O 0.49956 0.49763 0.96575 0.0
O570 O 0.51972 0.53111 0.96201 0.0
O571 O 0.53773 0.52451 0.00587 0.0
O572 O 0.51629 0.49201 0.01051 0.0
O573 O 0.50002 0.54959 0.02528 0.0
H574 H 0.56234 0.5564 0.97369 0.0
H575 H 0.50184 0.59392 0.0039 0.0
O576 O 0.47756 0.51754 0.02785 0.0
O577 O 0.461 0.5236 0.98357 0.0
O578 O 0.48241 0.55627 0.9813 0.0
C579 C 0.46239 0.54578 0.97849 0.0
H580 H 0.4238 0.44526 0.00872 0.0
H581 H 0.5732 0.60258 0.97482 0.0
Co582 Co 0.78047 0.28462 0.29639 0.0
C583 C 0.73405 0.26793 0.30849 0.0
Co584 Co 0.7738 0.24985 0.28035 0.0
C585 C 0.79176 0.33389 0.29594 0.0
C586 C 0.78143 0.32193 0.33155 0.0
N587 N 0.78548 0.31429 0.30877 0.0
N588 N 0.79155 0.35363 0.30962 0.0
C589 C 0.78514 0.34621 0.33213 0.0
H590 H 0.79535 0.33378 0.27664 0.0
H591 H 0.77548 0.3107 0.34657 0.0
C592 C 0.81996 0.26717 0.26763 0.0
N593 N 0.76802 0.21998 0.26851 0.0
C594 C 0.75841 0.20187 0.28167 0.0
C595 C 0.76936 0.21203 0.24563 0.0
N596 N 0.75336 0.18303 0.26801 0.0
C597 C 0.76004 0.18928 0.24523 0.0
C598 C 0.75939 0.28716 0.25141 0.0
O599 O 0.81214 0.28492 0.2801 0.0
O600 O 0.8063 0.24913 0.26585 0.0
O601 O 0.76152 0.26449 0.25193 0.0
O602 O 0.76633 0.299 0.26918 0.0
O603 O 0.74104 0.25086 0.29474 0.0
H604 H 0.77557 0.22249 0.23015 0.0
H605 H 0.75358 0.2031 0.30071 0.0
O606 O 0.74895 0.28447 0.31231 0.0
O607 O 0.79434 0.27032 0.32367 0.0
O608 O 0.78604 0.2354 0.30897 0.0
C609 C 0.79427 0.24772 0.32585 0.0
H610 H 0.78305 0.3575 0.34781 0.0
H611 H 0.7575 0.17857 0.22942 0.0
Co612 Co 0.02541 0.52252 0.50771 0.0
C613 C 0.07234 0.51113 0.5243 0.0
Co614 Co 0.03388 0.54124 0.54083 0.0
C615 C 0.00467 0.51459 0.46228 0.0
C616 C 0.02457 0.4835 0.47434 0.0
N617 N 0.01838 0.50623 0.48035 0.0
N618 N 0.00176 0.49798 0.4453 0.0
C619 C 0.01441 0.47839 0.45262 0.0
H620 H 0.99685 0.53256 0.46164 0.0
H621 H 0.03532 0.4713 0.48527 0.0
C622 C 0.98694 0.5527 0.52452 0.0
N623 N 0.041 0.55747 0.56823 0.0
C624 C 0.0487 0.54755 0.58895 0.0
C625 C 0.04074 0.58133 0.57194 0.0
N626 N 0.05336 0.56417 0.60539 0.0
C627 C 0.04862 0.58553 0.59483 0.0
C628 C 0.047 0.56583 0.49892 0.0
O629 O 0.99328 0.53792 0.50807 0.0
O630 O 0.00213 0.5569 0.54078 0.0
O631 O 0.04696 0.5663 0.52177 0.0
O632 O 0.03815 0.54798 0.48859 0.0
O633 O 0.06577 0.52564 0.54093 0.0
H634 H 0.03552 0.59478 0.55874 0.0
H635 H 0.05164 0.52848 0.59168 0.0
O636 O 0.05741 0.50723 0.50772 0.0
O637 O 0.01265 0.49726 0.52652 0.0
O638 O 0.02072 0.51574 0.55982 0.0
C639 C 0.01225 0.49779 0.54936 0.0
H640 H 0.01554 0.46143 0.44338 0.0
H641 H 0.05073 0.6028 0.60306 0.0
Co642 Co 0.79265 0.80308 0.28916 0.0
C643 C 0.77692 0.81265 0.24204 0.0
Co644 Co 0.75918 0.78421 0.28079 0.0
C645 C 0.84115 0.8061 0.30475 0.0
C646 C 0.82964 0.83943 0.28891 0.0
N647 N 0.82162 0.81759 0.29551 0.0
N648 N 0.86139 0.81948 0.30367 0.0
C649 C 0.85414 0.84065 0.29393 0.0
H650 H 0.84056 0.7878 0.31132 0.0
H651 H 0.81877 0.85304 0.27988 0.0
C652 C 0.77521 0.77402 0.32765 0.0
N653 N 0.73076 0.76884 0.27417 0.0
C654 C 0.71346 0.77637 0.25891 0.0
C655 C 0.72397 0.74676 0.28143 0.0
N656 N 0.69628 0.75978 0.25599 0.0
C657 C 0.70276 0.74113 0.27029 0.0
C658 C 0.80018 0.75827 0.2687 0.0
O659 O 0.79193 0.78858 0.32131 0.0
O660 O 0.75877 0.76976 0.31264 0.0
O661 O 0.77705 0.75815 0.26884 0.0
O662 O 0.81089 0.77612 0.27703 0.0
O663 O 0.76006 0.79849 0.2488 0.0
H664 H 0.73426 0.73512 0.29334 0.0
H665 H 0.7142 0.79326 0.24919 0.0
O666 O 0.79326 0.81743 0.25703 0.0
O667 O 0.77422 0.82982 0.30108 0.0
O668 O 0.74098 0.81062 0.29266 0.0
C669 C 0.751 0.82907 0.3007 0.0
H670 H 0.86588 0.85554 0.28957 0.0
H671 H 0.69323 0.72441 0.27218 0.0
Co672 Co 0.81525 0.29563 0.81518 0.0
C673 C 0.79658 0.25351 0.79921 0.0
Co674 Co 0.79522 0.30013 0.78162 0.0
C675 C 0.82856 0.30786 0.86202 0.0
C676 C 0.84521 0.27417 0.85249 0.0
N677 N 0.83139 0.29243 0.84372 0.0
N678 N 0.83969 0.30003 0.88201 0.0
C679 C 0.85012 0.2787 0.87628 0.0
H680 H 0.81686 0.32375 0.86129 0.0
H681 H 0.85026 0.25809 0.84268 0.0
C682 C 0.81378 0.34221 0.79729 0.0
N683 N 0.77861 0.30333 0.7533 0.0
C684 C 0.77749 0.28651 0.73627 0.0
C685 C 0.76402 0.32152 0.74563 0.0
N686 N 0.76257 0.2932 0.71842 0.0
C687 C 0.75419 0.31536 0.72401 0.0
C688 C 0.76565 0.30641 0.82199 0.0
O689 O 0.82059 0.32922 0.8149 0.0
O690 O 0.80291 0.33272 0.7801 0.0
O691 O 0.76628 0.30764 0.79914 0.0
O692 O 0.78507 0.30075 0.83291 0.0
O693 O 0.78764 0.26731 0.78327 0.0
H694 H 0.76034 0.33792 0.75538 0.0
H695 H 0.78739 0.26952 0.73701 0.0
O696 O 0.80971 0.26226 0.81524 0.0
O697 O 0.84509 0.29039 0.79729 0.0
O698 O 0.82414 0.2925 0.76414 0.0
C699 C 0.84431 0.28893 0.77446 0.0
H700 H 0.85965 0.26686 0.88862 0.0
H701 H 0.74133 0.32596 0.71367 0.0
Co702 Co 0.76279 0.76602 0.78793 0.0
C703 C 0.81254 0.77751 0.79192 0.0
Co704 Co 0.77282 0.79913 0.76909 0.0
C705 C 0.74055 0.72107 0.79837 0.0
C706 C 0.76307 0.73204 0.82689 0.0
N707 N 0.75519 0.73869 0.80496 0.0
N708 N 0.739 0.7035 0.81527 0.0
C709 C 0.75319 0.71038 0.83327 0.0
H710 H 0.73115 0.72131 0.78149 0.0
H711 H 0.77535 0.74223 0.83748 0.0
C712 C 0.72301 0.78757 0.76499 0.0
N713 N 0.78033 0.82655 0.75208 0.0
C714 C 0.79255 0.84562 0.75951 0.0
C715 C 0.77469 0.83171 0.72904 0.0
N716 N 0.79488 0.8624 0.74196 0.0
C717 C 0.78376 0.85374 0.72272 0.0
C718 C 0.77587 0.7584 0.73934 0.0
O719 O 0.72904 0.77 0.77859 0.0
O720 O 0.73916 0.803 0.7596 0.0
O721 O 0.77944 0.78079 0.74028 0.0
O722 O 0.76926 0.74754 0.75875 0.0
O723 O 0.80659 0.79524 0.77848 0.0
H724 H 0.76459 0.82021 0.71759 0.0
H725 H 0.79989 0.84701 0.77733 0.0
O726 O 0.79637 0.76211 0.79724 0.0
O727 O 0.75645 0.78423 0.81688 0.0
O728 O 0.76631 0.8175 0.79826 0.0
C729 C 0.76015 0.80659 0.81779 0.0
H730 H 0.75669 0.7003 0.84964 0.0
H731 H 0.78199 0.86284 0.70548 0.0
Co732 Co 0.52203 0.54212 0.50576 0.0
C733 C 0.51756 0.57254 0.54645 0.0
Co734 Co 0.52844 0.52382 0.54026 0.0
C735 C 0.50827 0.55236 0.45668 0.0
C736 C 0.52713 0.58107 0.47254 0.0
N737 N 0.51836 0.55908 0.47732 0.0
N738 N 0.51047 0.56929 0.43915 0.0
C739 C 0.52231 0.5874 0.44915 0.0
H740 H 0.49957 0.53532 0.45461 0.0
H741 H 0.53695 0.59163 0.48511 0.0
C742 C 0.53272 0.49329 0.4998 0.0
N743 N 0.5325 0.50645 0.56844 0.0
C744 C 0.54942 0.50884 0.58534 0.0
C745 C 0.52085 0.4861 0.57459 0.0
N746 N 0.54896 0.49064 0.60164 0.0
C747 C 0.53085 0.47641 0.59499 0.0
C748 C 0.47952 0.52196 0.52487 0.0
O749 O 0.52866 0.51265 0.48799 0.0
O750 O 0.53432 0.49456 0.52258 0.0
O751 O 0.49405 0.51678 0.54174 0.0
O752 O 0.48762 0.53427 0.50694 0.0
O753 O 0.52253 0.55325 0.55808 0.0
H754 H 0.50683 0.4781 0.56419 0.0
H755 H 0.56226 0.5233 0.58525 0.0
O756 O 0.51533 0.57129 0.52369 0.0
O757 O 0.55634 0.54997 0.5046 0.0
O758 O 0.56296 0.53109 0.53857 0.0
C759 C 0.57097 0.54413 0.52118 0.0
H760 H 0.52774 0.6038 0.44008 0.0
H761 H 0.52599 0.45954 0.60347 0.0
Co762 Co 0.00238 0.5215 0.01813 0.0
C763 C 0.01811 0.56799 0.00683 0.0
Co764 Co 0.03623 0.52996 0.03617 0.0
C765 C 0.95439 0.50409 0.01643 0.0
C766 C 0.96541 0.51836 0.98189 0.0
N767 N 0.97333 0.51419 0.00437 0.0
N768 N 0.93482 0.50178 0.00258 0.0
C769 C 0.94161 0.51078 0.98075 0.0
H770 H 0.95476 0.49924 0.03538 0.0
H771 H 0.9761 0.52669 0.96745 0.0
C772 C 0.02051 0.4835 0.04745 0.0
N773 N 0.06481 0.53724 0.05073 0.0
C774 C 0.08249 0.55154 0.04182 0.0
C775 C 0.07162 0.53128 0.07323 0.0
N776 N 0.09995 0.55507 0.05794 0.0
C777 C 0.09331 0.54219 0.0777 0.0
C778 C 0.99538 0.54229 0.06299 0.0
O779 O 0.00336 0.48986 0.03353 0.0
O780 O 0.03712 0.49849 0.05122 0.0
O781 O 0.01854 0.54206 0.06287 0.0
O782 O 0.98458 0.53411 0.04507 0.0
O783 O 0.03502 0.56164 0.02104 0.0
H784 H 0.06106 0.52042 0.08587 0.0
H785 H 0.08231 0.55953 0.02394 0.0
O786 O 1.0016 0.55295 0.00269 0.0
O787 O 0.02023 0.50905 0.99147 0.0
O788 O 0.05415 0.51774 0.00932 0.0
C789 C 0.04346 0.5091 0.99149 0.0
H790 H 0.93024 0.51184 0.96513 0.0
H791 H 0.10284 0.54155 0.09452 0.0
H792 H 0.02641 0.18543 0.14729 0.0
H793 H 0.01436 0.11154 0.02458 0.0
H794 H 0.02265 0.21933 0.07719 0.0
H795 H 0.02283 0.07801 0.09441 0.0
H796 H 0.01573 0.1509 0.04346 0.0
H797 H 0.02388 0.14626 0.12835 0.0
C798 C 0.02508 0.18469 0.12787 0.0
C799 C 0.0248 0.20592 0.11389 0.0
C800 C 0.01718 0.13497 0.05471 0.0
C801 C 0.02174 0.16061 0.09187 0.0
C802 C 0.01629 0.11237 0.04393 0.0
C803 C 0.01837 0.09116 0.05784 0.0
C804 C 0.02016 0.13668 0.07973 0.0
C805 C 0.02103 0.09368 0.08286 0.0
C806 C 0.02362 0.1622 0.11703 0.0
C807 C 0.023 0.20358 0.08876 0.0
N808 N 0.02187 0.11588 0.0929 0.0
N809 N 0.02152 0.18145 0.07862 0.0
H810 H 0.14072 0.78526 0.41904 0.0
H811 H 0.2274 0.82639 0.30847 0.0
H812 H 0.11884 0.7923 0.34514 0.0
H813 H 0.25663 0.79259 0.37218 0.0
H814 H 0.18647 0.82443 0.32674 0.0
H815 H 0.18239 0.79685 0.40626 0.0
C816 C 0.14468 0.7894 0.4002 0.0
C817 C 0.12652 0.78764 0.38302 0.0
C818 C 0.20183 0.81764 0.33685 0.0
C819 C 0.17351 0.80123 0.36855 0.0
C820 C 0.22521 0.81879 0.32648 0.0
C821 C 0.2453 0.80912 0.33866 0.0
C822 C 0.19845 0.80664 0.35953 0.0
C823 C 0.2415 0.79999 0.36214 0.0
C824 C 0.16835 0.79598 0.39297 0.0
C825 C 0.13242 0.7932 0.35888 0.0
N826 N 0.21834 0.79861 0.37176 0.0
N827 N 0.15541 0.79977 0.35238 0.0
H828 H 0.48649 0.8609 0.63062 0.0
H829 H 0.54403 0.95254 0.5325 0.0
H830 H 0.54685 0.84177 0.58223 0.0
H831 H 0.47467 0.96594 0.56973 0.0
H832 H 0.54641 0.91296 0.55186 0.0
H833 H 0.48297 0.89993 0.61011 0.0
C834 C 0.49904 0.86486 0.61566 0.0
C835 C 0.51703 0.84783 0.60822 0.0
C836 C 0.53061 0.92448 0.55578 0.0
C837 C 0.51316 0.89299 0.58458 0.0
C838 C 0.52922 0.94721 0.54473 0.0
C839 C 0.50908 0.96284 0.54938 0.0
C840 C 0.51187 0.91708 0.57197 0.0
C841 C 0.49054 0.95464 0.56546 0.0
C842 C 0.49696 0.88722 0.60389 0.0
C843 C 0.53267 0.85418 0.58863 0.0
N844 N 0.49245 0.93249 0.57622 0.0
N845 N 0.53047 0.87618 0.57764 0.0
H846 H 0.47749 0.23834 0.88795 0.0
H847 H 0.41632 0.30977 0.77859 0.0
H848 H 0.51867 0.2801 0.83539 0.0
H849 H 0.37679 0.26325 0.82804 0.0
H850 H 0.45429 0.29862 0.79858 0.0
H851 H 0.44068 0.24572 0.86492 0.0
C852 C 0.47883 0.24878 0.87138 0.0
C853 C 0.50107 0.25874 0.86361 0.0
C854 C 0.4373 0.29079 0.80498 0.0
C855 C 0.45904 0.2676 0.8374 0.0
C856 C 0.41563 0.29732 0.79371 0.0
C857 C 0.3934 0.28739 0.80165 0.0
C858 C 0.43666 0.27435 0.82439 0.0
C859 C 0.39356 0.27108 0.82112 0.0
C860 C 0.45781 0.25309 0.85828 0.0
C861 C 0.50183 0.27214 0.84203 0.0
N862 N 0.41482 0.26512 0.83186 0.0
N863 N 0.48104 0.27639 0.82977 0.0
H864 H 0.01389 0.8005 0.4755 0.0
H865 H 0.96572 0.93589 0.46221 0.0
H866 H 0.01914 0.84436 0.41095 0.0
H867 H 0.97784 0.90274 0.53146 0.0
H868 H 0.9741 0.89749 0.44284 0.0
H869 H 0.99138 0.83357 0.496 0.0
C870 C 0.01015 0.81699 0.46566 0.0
C871 C 0.01868 0.81999 0.44171 0.0
C872 C 0.9746 0.89842 0.46232 0.0
C873 C 0.99274 0.85721 0.46458 0.0
C874 C 0.96971 0.92025 0.47329 0.0
C875 C 0.9715 0.92228 0.49826 0.0
C876 C 0.98183 0.87859 0.47642 0.0
C877 C 0.97643 0.90166 0.51208 0.0
C878 C 0.99731 0.83573 0.47729 0.0
C879 C 0.01327 0.8415 0.42959 0.0
N880 N 0.98197 0.88059 0.5009 0.0
N881 N 1.0007 0.85928 0.44117 0.0
H882 H 0.43718 0.75818 0.65862 0.0
H883 H 0.34893 0.8215 0.75852 0.0
H884 H 0.46361 0.80779 0.71017 0.0
H885 H 0.32962 0.75838 0.72003 0.0
H886 H 0.38973 0.81966 0.73857 0.0
H887 H 0.39656 0.76075 0.67852 0.0
C888 C 0.43446 0.76961 0.67415 0.0
C889 C 0.45393 0.78272 0.68275 0.0
C890 C 0.37654 0.80624 0.7345 0.0
C891 C 0.40717 0.78597 0.70558 0.0
C892 C 0.35318 0.80733 0.74581 0.0
C893 C 0.33571 0.79005 0.74103 0.0
C894 C 0.38247 0.7879 0.71801 0.0
C895 C 0.34241 0.77207 0.72439 0.0
C896 C 0.41123 0.77105 0.68554 0.0
C897 C 0.44921 0.79726 0.70297 0.0
N898 N 0.36512 0.77152 0.71349 0.0
N899 N 0.42634 0.79859 0.7136 0.0
H900 H 0.56532 0.17555 0.90103 0.0
H901 H 0.56498 0.09859 0.02309 0.0
H902 H 0.58028 0.20351 0.9711 0.0
H903 H 0.54469 0.0701 0.95471 0.0
H904 H 0.57788 0.13514 0.00257 0.0
H905 H 0.56485 0.13506 0.9186 0.0
C906 C 0.56889 0.17311 0.92002 0.0
C907 C 0.57249 0.19286 0.93476 0.0
C908 C 0.57082 0.12085 0.99196 0.0
C909 C 0.57189 0.14684 0.9549 0.0
C910 C 0.56341 0.09996 0.00369 0.0
C911 C 0.55336 0.08146 0.99062 0.0
C912 C 0.56793 0.12343 0.967 0.0
C913 C 0.55212 0.08406 0.96548 0.0
C914 C 0.56857 0.15004 0.93003 0.0
C915 C 0.57712 0.18877 0.95918 0.0
N916 N 0.55901 0.10486 0.95448 0.0
N917 N 0.57645 0.16624 0.96853 0.0
H918 H 0.11537 0.28705 0.15351 0.0
H919 H 0.19112 0.25735 0.27155 0.0
H920 H 0.07897 0.26625 0.22039 0.0
H921 H 0.21507 0.30878 0.2176 0.0
H922 H 0.15157 0.25542 0.25159 0.0
H923 H 0.15391 0.2898 0.17483 0.0
C924 C 0.11548 0.28296 0.17265 0.0
C925 C 0.0938 0.27646 0.18514 0.0
C926 C 0.16546 0.26723 0.24426 0.0
C927 C 0.13811 0.27926 0.20969 0.0
C928 C 0.18805 0.26836 0.25566 0.0
C929 C 0.20651 0.28342 0.24644 0.0
C930 C 0.16145 0.28075 0.22309 0.0
C931 C 0.20141 0.2971 0.2256 0.0
C932 C 0.13749 0.28463 0.18485 0.0
C933 C 0.09516 0.27143 0.21002 0.0
N934 N 0.1796 0.29525 0.21456 0.0
N935 N 0.1169 0.27273 0.22141 0.0
H936 H 0.11064 0.95448 0.24127 0.0
H937 H 0.09486 0.00557 0.10731 0.0
H938 H 0.15664 0.00806 0.20771 0.0
H939 H 0.04101 0.96253 0.14523 0.0
H940 H 0.12137 0.00127 0.14162 0.0
H941 H 0.08911 0.95115 0.20344 0.0
C942 C 0.11647 0.96521 0.22581 0.0
C943 C 0.13518 0.98178 0.2276 0.0
C944 C 0.10378 0.99268 0.14239 0.0
C945 C 0.11067 0.97824 0.18459 0.0
C946 C 0.08852 0.99532 0.12289 0.0
C947 C 0.06549 0.98469 0.12353 0.0
C948 C 0.09599 0.97933 0.16272 0.0
C949 C 0.05862 0.97099 0.14394 0.0
C950 C 0.10412 0.96341 0.20431 0.0
C951 C 0.14209 0.99526 0.20711 0.0
N952 N 0.07375 0.96883 0.16282 0.0
N953 N 0.12968 0.99335 0.18649 0.0
H954 H 0.30159 0.91373 0.48128 0.0
H955 H 0.3482 0.78883 0.42725 0.0
H956 H 0.2977 0.84657 0.52048 0.0
H957 H 0.34751 0.85566 0.38753 0.0
H958 H 0.33821 0.81078 0.46444 0.0
H959 H 0.32614 0.89389 0.44957 0.0
C960 C 0.30605 0.89482 0.48326 0.0
C961 C 0.29728 0.88165 0.50326 0.0
C962 C 0.34071 0.82069 0.44766 0.0
C963 C 0.32528 0.8588 0.4671 0.0
C964 C 0.3466 0.80819 0.42654 0.0
C965 C 0.34821 0.82052 0.4044 0.0
C966 C 0.33646 0.8456 0.44644 0.0
C967 C 0.3459 0.84555 0.40428 0.0
C968 C 0.32013 0.88351 0.46521 0.0
C969 C 0.30386 0.85729 0.50515 0.0
N970 N 0.33979 0.85726 0.42492 0.0
N971 N 0.31724 0.84655 0.48711 0.0
H972 H 0.4998 0.01004 0.68856 0.0
H973 H 0.50795 0.08684 0.5803 0.0
H974 H 0.4936 0.08664 0.69707 0.0
H975 H 0.5554 0.02438 0.58478 0.0
H976 H 0.50918 0.09095 0.62395 0.0
H977 H 0.52587 0.01617 0.65254 0.0
C978 C 0.50423 0.02813 0.68296 0.0
C979 C 0.49403 0.04789 0.69519 0.0
C980 C 0.52018 0.0769 0.61538 0.0
C981 C 0.52363 0.05506 0.65422 0.0
C982 C 0.51943 0.07459 0.5905 0.0
C983 C 0.53118 0.05501 0.57934 0.0
C984 C 0.53179 0.05883 0.62898 0.0
C985 C 0.5459 0.03957 0.59303 0.0
C986 C 0.51939 0.03164 0.66265 0.0
C987 C 0.50074 0.07097 0.6877 0.0
N988 N 0.54506 0.04124 0.61743 0.0
N989 N 0.51462 0.07398 0.66721 0.0
H990 H 0.30406 0.21457 0.96126 0.0
H991 H 0.24998 0.21842 0.82761 0.0
H992 H 0.24209 0.17412 0.94042 0.0
H993 H 0.31449 0.25626 0.84629 0.0
H994 H 0.24623 0.20326 0.86914 0.0
H995 H 0.30737 0.23135 0.92008 0.0
C996 C 0.29101 0.20935 0.94812 0.0
C997 C 0.27271 0.19289 0.9545 0.0
C998 C 0.26122 0.21488 0.86423 0.0
C999 C 0.27653 0.212 0.90698 0.0
C1000 C 0.2634 0.22359 0.8404 0.0
C1001 C 0.28261 0.23872 0.83319 0.0
C1002 C 0.27833 0.22127 0.88133 0.0
C1003 C 0.29937 0.24467 0.85084 0.0
C1004 C 0.29298 0.21889 0.92453 0.0
C1005 C 0.25647 0.18675 0.9365 0.0
N1006 N 0.29683 0.23599 0.87396 0.0
N1007 N 0.25877 0.19622 0.91373 0.0
H1008 H 0.10492 0.9629 0.35523 0.0
H1009 H 0.01658 0.0528 0.42252 0.0
H1010 H 0.08139 0.03014 0.32335 0.0
H1011 H 0.01815 0.9775 0.44089 0.0
H1012 H 0.03685 0.04366 0.3838 0.0
H1013 H 0.07067 0.96608 0.38473 0.0
C1014 C 0.09234 0.97812 0.35423 0.0
C1015 C 0.09623 0.99652 0.33719 0.0
C1016 C 0.03226 0.02903 0.39601 0.0
C1017 C 0.05727 1.00033 0.37075 0.0
C1018 C 0.02066 0.03426 0.41808 0.0
C1019 C 0.01597 0.01589 0.4349 0.0
C1020 C 0.03984 0.00534 0.39109 0.0
C1021 C 0.02154 0.99216 0.42834 0.0
C1022 C 0.07275 0.97988 0.37096 0.0
C1023 C 0.07928 0.01574 0.33647 0.0
N1024 N 0.03379 0.98758 0.40713 0.0
N1025 N 0.06079 0.01735 0.35328 0.0
H1026 H 0.22397 0.84071 0.59518 0.0
H1027 H 0.22928 0.85177 0.7359 0.0
H1028 H 0.21108 0.90657 0.63389 0.0
H1029 H 0.23728 0.78469 0.69836 0.0
H1030 H 0.213 0.87038 0.69969 0.0
H1031 H 0.21862 0.81831 0.63301 0.0
C1032 C 0.21945 0.85041 0.61158 0.0
C1033 C 0.2187 0.87551 0.61165 0.0
C1034 C 0.21796 0.85151 0.69941 0.0
C1035 C 0.21293 0.85015 0.65485 0.0
C1036 C 0.22742 0.84092 0.72004 0.0
C1037 C 0.23525 0.81686 0.71982 0.0
C1038 C 0.2168 0.83804 0.67829 0.0
C1039 C 0.23185 0.80344 0.69907 0.0
C1040 C 0.21642 0.83763 0.63317 0.0
C1041 C 0.21239 0.88721 0.63321 0.0
N1042 N 0.22332 0.81435 0.67891 0.0
N1043 N 0.21025 0.87444 0.65409 0.0
H1044 H 0.50015 0.05768 0.81388 0.0
H1045 H 0.51448 0.95675 0.90965 0.0
H1046 H 0.49302 0.983 0.79702 0.0
H1047 H 0.54201 0.02777 0.91869 0.0
H1048 H 0.51376 0.96402 0.86622 0.0
H1049 H 0.52266 0.0461 0.84957 0.0
C1050 C 0.50369 0.03884 0.81755 0.0
C1051 C 0.49421 0.02122 0.80304 0.0
C1052 C 0.52042 0.97786 0.87765 0.0
C1053 C 0.51948 0.0078 0.84383 0.0
C1054 C 0.52079 0.9737 0.90244 0.0
C1055 C 0.52741 0.99202 0.91779 0.0
C1056 C 0.52641 1.00058 0.86836 0.0
C1057 C 0.5357 0.01357 0.90755 0.0
C1058 C 0.51664 0.0322 0.83783 0.0
C1059 C 0.49968 0.99709 0.80815 0.0
N1060 N 0.5345 0.01745 0.88347 0.0
N1061 N 0.51149 0.99102 0.82854 0.0
H1062 H 0.2827 0.15712 0.10921 0.0
H1063 H 0.28743 0.27978 0.18319 0.0
H1064 H 0.27116 0.22664 0.0763 0.0
H1065 H 0.28273 0.2103 0.21768 0.0
H1066 H 0.28514 0.26073 0.14381 0.0
H1067 H 0.286 0.1762 0.14846 0.0
C1068 C 0.28085 0.17644 0.11018 0.0
C1069 C 0.27658 0.19021 0.08921 0.0
C1070 C 0.28471 0.2496 0.15995 0.0
C1071 C 0.2806 0.21239 0.13455 0.0
C1072 C 0.28618 0.26047 0.18256 0.0
C1073 C 0.28539 0.24671 0.20405 0.0
C1074 C 0.28263 0.22461 0.1585 0.0
C1075 C 0.28351 0.22174 0.20178 0.0
C1076 C 0.28272 0.18734 0.1327 0.0
C1077 C 0.27438 0.21521 0.09185 0.0
N1078 N 0.28225 0.21157 0.17954 0.0
N1079 N 0.2765 0.22544 0.11397 0.0
H1080 H 0.21712 0.09615 0.98781 0.0
H1081 H 0.09954 0.048 0.06074 0.0
H1082 H 0.19233 0.12721 0.05526 0.0
H1083 H 0.10221 0.05143 0.98298 0.0
H1084 H 0.13821 0.06962 0.06104 0.0
H1085 H 0.17958 0.07267 0.98761 0.0
C1086 C 0.20385 0.09796 0.00264 0.0
C1087 C 0.2079 0.11378 0.02154 0.0
C1088 C 0.13042 0.06544 0.04392 0.0
C1089 C 0.16508 0.08649 0.02167 0.0
C1090 C 0.10845 0.05289 0.04371 0.0
C1091 C 0.09756 0.04774 0.02178 0.0
C1092 C 0.14202 0.07246 0.02205 0.0
C1093 C 0.1099 0.05493 0.0003 0.0
C1094 C 0.1824 0.0846 0.00246 0.0
C1095 C 0.18995 0.11537 0.04025 0.0
N1096 N 0.13148 0.06674 0.00097 0.0
N1097 N 0.1695 0.10177 0.03996 0.0
H1098 H 0.67927 0.46706 0.06544 0.0
H1099 H 0.54336 0.45446 0.01893 0.0
H1100 H 0.65281 0.4017 0.03598 0.0
H1101 H 0.57856 0.52219 0.02722 0.0
H1102 H 0.58078 0.43378 0.03189 0.0
H1103 H 0.63961 0.48644 0.0583 0.0
C1104 C 0.66504 0.45676 0.0576 0.0
C1105 C 0.66932 0.43283 0.05108 0.0
C1106 C 0.58021 0.45317 0.03097 0.0
C1107 C 0.62401 0.45482 0.04295 0.0
C1108 C 0.55888 0.46497 0.02367 0.0
C1109 C 0.55798 0.49005 0.02185 0.0
C1110 C 0.60058 0.4666 0.0367 0.0
C1111 C 0.57857 0.50281 0.02819 0.0
C1112 C 0.64246 0.46783 0.05349 0.0
C1113 C 0.65026 0.42025 0.04108 0.0
N1114 N 0.59906 0.49093 0.03531 0.0
N1115 N 0.62838 0.43144 0.03724 0.0
H1116 H 0.84928 0.47379 0.2329 0.0
H1117 H 0.77454 0.39522 0.32969 0.0
H1118 H 0.81392 0.50338 0.29689 0.0
H1119 H 0.81859 0.36689 0.27015 0.0
H1120 H 0.78272 0.43577 0.31477 0.0
H1121 H 0.83049 0.4355 0.24216 0.0
C1122 C 0.83721 0.47229 0.2487 0.0
C1123 C 0.83345 0.49152 0.26443 0.0
C1124 C 0.79038 0.42061 0.30491 0.0
C1125 C 0.81234 0.44776 0.27542 0.0
C1126 C 0.78594 0.39749 0.31354 0.0
C1127 C 0.796 0.37762 0.30123 0.0
C1128 C 0.80498 0.42377 0.28386 0.0
C1129 C 0.81022 0.3816 0.28011 0.0
C1130 C 0.82656 0.45043 0.25405 0.0
C1131 C 0.81743 0.48882 0.28447 0.0
N1132 N 0.81436 0.40421 0.27218 0.0
N1133 N 0.80774 0.46712 0.28967 0.0
H1134 H 0.83267 0.5919 0.50575 0.0
H1135 H 0.97016 0.58989 0.55298 0.0
H1136 H 0.86186 0.64848 0.54761 0.0
H1137 H 0.94715 0.54344 0.49688 0.0
H1138 H 0.92969 0.60961 0.5535 0.0
H1139 H 0.8733 0.57206 0.50448 0.0
C1140 C 0.84759 0.60016 0.51469 0.0
C1141 C 0.84375 0.62195 0.52679 0.0
C1142 C 0.93346 0.59513 0.54105 0.0
C1143 C 0.89043 0.59916 0.52557 0.0
C1144 C 0.95662 0.58378 0.54077 0.0
C1145 C 0.96223 0.56489 0.52486 0.0
C1146 C 0.91545 0.58747 0.52549 0.0
C1147 C 0.94377 0.5579 0.50944 0.0
C1148 C 0.87083 0.58883 0.51391 0.0
C1149 C 0.86389 0.63176 0.53802 0.0
N1150 N 0.92126 0.56908 0.51023 0.0
N1151 N 0.8862 0.62029 0.53723 0.0
H1152 H 0.16129 0.08562 0.27692 0.0
H1153 H 0.26529 0.16163 0.33438 0.0
H1154 H 0.20369 0.06058 0.33697 0.0
H1155 H 0.21322 0.19159 0.28466 0.0
H1156 H 0.2424 0.12476 0.33618 0.0
H1157 H 0.1793 0.125 0.28014 0.0
C1158 C 0.17422 0.08852 0.29094 0.0
C1159 C 0.18122 0.06986 0.30658 0.0
C1160 C 0.2359 0.13947 0.32499 0.0
C1161 C 0.20203 0.11465 0.31021 0.0
C1162 C 0.24894 0.16058 0.32399 0.0
C1163 C 0.24129 0.17976 0.30923 0.0
C1164 C 0.21515 0.13741 0.31098 0.0
C1165 C 0.22012 0.17716 0.29591 0.0
C1166 C 0.18448 0.11098 0.29278 0.0
C1167 C 0.19791 0.07452 0.32449 0.0
N1168 N 0.20786 0.1563 0.297 0.0
N1169 N 0.20798 0.09643 0.32567 0.0
H1170 H 0.32611 0.92576 0.59683 0.0
H1171 H 0.37801 0.05517 0.57364 0.0
H1172 H 0.28176 0.98899 0.58263 0.0
H1173 H 0.42221 0.99038 0.57846 0.0
H1174 H 0.34293 0.03338 0.59025 0.0
H1175 H 0.36094 0.95119 0.60362 0.0
C1176 C 0.32356 0.94503 0.59567 0.0
C1177 C 0.30127 0.95531 0.5885 0.0
C1178 C 0.36045 0.02407 0.58815 0.0
C1179 C 0.34099 0.98442 0.59597 0.0
C1180 C 0.38044 0.03648 0.57859 0.0
C1181 C 0.40286 0.02441 0.57391 0.0
C1182 C 0.36289 0.99938 0.59287 0.0
C1183 C 0.40524 1.00038 0.58141 0.0
C1184 C 0.34345 0.95954 0.59953 0.0
C1185 C 0.29882 0.98034 0.58762 0.0
N1186 N 0.38533 0.98852 0.59003 0.0
N1187 N 0.31862 0.99405 0.59081 0.0
H1188 H 0.89224 0.63265 0.27502 0.0
H1189 H 0.78479 0.72367 0.2394 0.0
H1190 H 0.82445 0.61268 0.24365 0.0
H1191 H 0.84664 0.74422 0.28037 0.0
H1192 H 0.80407 0.68452 0.23302 0.0
H1193 H 0.8799 0.67487 0.27074 0.0
C1194 C 0.87477 0.63719 0.26725 0.0
C1195 C 0.85912 0.61928 0.25999 0.0
C1196 C 0.8136 0.69765 0.24318 0.0
C1197 C 0.84519 0.66718 0.25473 0.0
C1198 C 0.80263 0.71999 0.24677 0.0
C1199 C 0.81397 0.73687 0.26086 0.0
C1200 C 0.83587 0.69208 0.25406 0.0
C1201 C 0.83724 0.73149 0.26961 0.0
C1202 C 0.86784 0.66121 0.26469 0.0
C1203 C 0.83687 0.62597 0.24978 0.0
N1204 N 0.84731 0.70927 0.26644 0.0
N1205 N 0.83052 0.64943 0.24754 0.0
H1206 H 0.72472 0.45192 0.83613 0.0
H1207 H 0.81538 0.37477 0.7604 0.0
H1208 H 0.74706 0.47061 0.76307 0.0
H1209 H 0.80978 0.36896 0.83799 0.0
H1210 H 0.79868 0.4155 0.7627 0.0
H1211 H 0.76188 0.42713 0.83949 0.0
C1212 C 0.73765 0.45106 0.82093 0.0
C1213 C 0.73253 0.46268 0.79906 0.0
C1214 C 0.80178 0.40568 0.77933 0.0
C1215 C 0.77494 0.43438 0.80267 0.0
C1216 C 0.81143 0.38245 0.77798 0.0
C1217 C 0.81329 0.36841 0.79898 0.0
C1218 C 0.79323 0.41448 0.80176 0.0
C1219 C 0.80823 0.37916 0.82134 0.0
C1220 C 0.75896 0.43707 0.82289 0.0
C1221 C 0.75007 0.46143 0.78007 0.0
N1222 N 0.7976 0.40136 0.82213 0.0
N1223 N 0.77026 0.44708 0.78214 0.0
H1224 H 0.01692 0.86624 0.90417 0.0
H1225 H 0.03901 0.94272 0.02334 0.0
H1226 H 0.02256 0.83428 0.97501 0.0
H1227 H 0.02749 0.97488 0.95336 0.0
H1228 H 0.03502 0.90306 0.00578 0.0
H1229 H 0.02216 0.90577 0.92159 0.0
C1230 C 0.01919 0.86748 0.92344 0.0
C1231 C 0.0192 0.84669 0.93808 0.0
C1232 C 0.03349 0.91874 0.9942 0.0
C1233 C 0.02546 0.8924 0.95832 0.0
C1234 C 0.03591 0.94152 0.0042 0.0
C1235 C 0.03374 0.96245 0.98987 0.0
C1236 C 0.02884 0.91655 0.96953 0.0
C1237 C 0.02947 0.95944 0.96519 0.0
C1238 C 0.02222 0.89018 0.93339 0.0
C1239 C 0.02231 0.84968 0.96295 0.0
N1240 N 0.02715 0.93706 0.95589 0.0
N1241 N 0.02535 0.87199 0.97222 0.0
H1242 H 0.98672 0.29511 0.70618 0.0
H1243 H 0.84605 0.27076 0.72936 0.0
H1244 H 0.94348 0.25504 0.65767 0.0
H1245 H 0.89244 0.29324 0.78603 0.0
H1246 H 0.88218 0.26352 0.70353 0.0
H1247 H 0.95337 0.29312 0.73657 0.0
C1248 C 0.9703 0.28567 0.70205 0.0
C1249 C 0.96763 0.2755 0.67932 0.0
C1250 C 0.88455 0.26981 0.72168 0.0
C1251 C 0.92953 0.2733 0.71379 0.0
C1252 C 0.86392 0.27409 0.73639 0.0
C1253 C 0.86633 0.28293 0.75971 0.0
C1254 C 0.90777 0.27476 0.7302 0.0
C1255 C 0.88987 0.28657 0.76807 0.0
C1256 C 0.95133 0.28448 0.7194 0.0
C1257 C 0.94615 0.26331 0.67491 0.0
N1258 N 0.90976 0.28279 0.75315 0.0
N1259 N 0.92777 0.26281 0.6919 0.0
H1260 H 0.47609 0.22243 0.45737 0.0
H1261 H 0.54452 0.09396 0.47379 0.0
H1262 H 0.54873 0.20548 0.4291 0.0
H1263 H 0.47076 0.10833 0.50061 0.0
H1264 H 0.54625 0.13502 0.45804 0.0
H1265 H 0.47374 0.18149 0.47429 0.0
C1266 C 0.49161 0.21022 0.45485 0.0
C1267 C 0.51266 0.21759 0.44177 0.0
C1268 C 0.52963 0.12926 0.46733 0.0
C1269 C 0.51005 0.17045 0.46102 0.0
C1270 C 0.52861 0.10569 0.47634 0.0
C1271 C 0.50742 0.09743 0.48858 0.0
C1272 C 0.50935 0.14504 0.47051 0.0
C1273 C 0.48748 0.11374 0.49129 0.0
C1274 C 0.49023 0.18677 0.46445 0.0
C1275 C 0.53211 0.20077 0.43902 0.0
N1276 N 0.48894 0.13665 0.48239 0.0
N1277 N 0.53032 0.17818 0.44847 0.0
H1278 H 0.57701 0.73049 0.16375 0.0
H1279 H 0.67535 0.79979 0.23649 0.0
H1280 H 0.59731 0.80335 0.1476 0.0
H1281 H 0.67292 0.72252 0.23631 0.0
H1282 H 0.64481 0.80145 0.20557 0.0
H1283 H 0.61097 0.72686 0.19139 0.0
C1284 C 0.58885 0.74558 0.16576 0.0
C1285 C 0.58433 0.76729 0.15354 0.0
C1286 C 0.65105 0.78413 0.21224 0.0
C1287 C 0.6227 0.76343 0.18531 0.0
C1288 C 0.66853 0.78314 0.22991 0.0
C1289 C 0.67695 0.76096 0.23896 0.0
C1290 C 0.64163 0.7628 0.20369 0.0
C1291 C 0.66686 0.74002 0.2301 0.0
C1292 C 0.60815 0.74352 0.18155 0.0
C1293 C 0.60016 0.78631 0.15673 0.0
N1294 N 0.64968 0.74146 0.21295 0.0
N1295 N 0.61849 0.78403 0.17256 0.0
H1296 H 0.05884 0.25297 0.55307 0.0
H1297 H 0.99454 0.13876 0.50165 0.0
H1298 H 0.98241 0.23702 0.56453 0.0
H1299 H 0.0727 0.1481 0.49992 0.0
H1300 H 0.98868 0.17979 0.51553 0.0
H1301 H 0.06281 0.22008 0.52439 0.0
C1302 C 0.04278 0.24287 0.54915 0.0
C1303 C 0.02037 0.24735 0.56148 0.0
C1304 C 0.00712 0.173 0.51185 0.0
C1305 C 0.02481 0.20977 0.52896 0.0
C1306 C 0.01047 0.14955 0.50407 0.0
C1307 C 0.03417 0.13989 0.50024 0.0
C1308 C 0.02763 0.18686 0.51602 0.0
C1309 C 0.05415 0.15484 0.50286 0.0
C1310 C 0.04508 0.22407 0.53286 0.0
C1311 C 1.00012 0.23387 0.55567 0.0
N1312 N 0.05045 0.17752 0.511 0.0
N1313 N 0.0029 0.21546 0.54005 0.0
H1314 H 0.60532 0.2984 0.39991 0.0
H1315 H 0.69377 0.24231 0.29641 0.0
H1316 H 0.57734 0.26437 0.33745 0.0
H1317 H 0.71636 0.29663 0.34507 0.0
H1318 H 0.65184 0.24625 0.31351 0.0
H1319 H 0.64681 0.29427 0.38231 0.0
C1320 C 0.60789 0.2901 0.38244 0.0
C1321 C 0.58775 0.2818 0.37012 0.0
C1322 C 0.666 0.25728 0.32043 0.0
C1323 C 0.63547 0.27668 0.34993 0.0
C1324 C 0.68999 0.25495 0.31077 0.0
C1325 C 0.70871 0.26917 0.31928 0.0
C1326 C 0.66071 0.27368 0.33901 0.0
C1327 C 0.70259 0.28533 0.33786 0.0
C1328 C 0.63162 0.28776 0.37238 0.0
C1329 C 0.59229 0.27115 0.34753 0.0
N1330 N 0.67924 0.28705 0.34713 0.0
N1331 N 0.61565 0.26875 0.33824 0.0
H1332 H 0.47888 0.84347 0.07272 0.0
H1333 H 0.50932 0.97966 0.09773 0.0
H1334 H 0.51669 0.86706 0.13499 0.0
H1335 H 0.48055 0.9544 0.03129 0.0
H1336 H 0.50312 0.93998 0.11583 0.0
H1337 H 0.47099 0.88529 0.06135 0.0
C1338 C 0.48534 0.85747 0.08409 0.0
C1339 C 0.49883 0.85189 0.10456 0.0
C1340 C 0.49779 0.94327 0.09742 0.0
C1341 C 0.48988 0.89964 0.09175 0.0
C1342 C 0.50121 0.96593 0.08713 0.0
C1343 C 0.4959 0.97011 0.06285 0.0
C1344 C 0.48903 0.92482 0.08327 0.0
C1345 C 0.48531 0.95177 0.04996 0.0
C1346 C 0.48079 0.88132 0.07764 0.0
C1347 C 0.50653 0.87065 0.11884 0.0
N1348 N 0.48254 0.92981 0.06023 0.0
N1349 N 0.50217 0.89373 0.11203 0.0
H1350 H 0.96589 0.78809 0.83226 0.0
H1351 H 0.82544 0.75096 0.83166 0.0
H1352 H 0.92567 0.76747 0.89708 0.0
H1353 H 0.85522 0.80131 0.77954 0.0
H1354 H 0.86405 0.75112 0.8529 0.0
H1355 H 0.92767 0.78774 0.81005 0.0
C1356 C 0.94905 0.78343 0.84184 0.0
C1357 C 0.94908 0.77784 0.86666 0.0
C1358 C 0.8622 0.76204 0.83676 0.0
C1359 C 0.90518 0.77701 0.84112 0.0
C1360 C 0.84018 0.76184 0.82444 0.0
C1361 C 0.83693 0.77608 0.8036 0.0
C1362 C 0.88155 0.77624 0.82806 0.0
C1363 C 0.85679 0.79 0.79544 0.0
C1364 C 0.92721 0.78331 0.82913 0.0
C1365 C 0.92658 0.77199 0.87804 0.0
N1366 N 0.87822 0.78961 0.80756 0.0
N1367 N 0.90568 0.77153 0.86518 0.0
H1368 H 0.94512 0.02283 0.80806 0.0
H1369 H 1.00078 0.10157 0.91116 0.0
H1370 H 0.9488 0.09994 0.80501 0.0
H1371 H 0.99942 0.02431 0.91382 0.0
H1372 H 0.98416 0.10102 0.87102 0.0
H1373 H 0.96774 0.02266 0.84537 0.0
C1374 C 0.95095 0.0397 0.81512 0.0
C1375 C 0.94496 0.06146 0.8036 0.0
C1376 C 0.98758 0.08416 0.88032 0.0
C1377 C 0.97056 0.06141 0.84628 0.0
C1378 C 0.99719 0.08445 0.90325 0.0
C1379 C 1.00148 0.06294 0.91595 0.0
C1380 C 0.98212 0.0622 0.86998 0.0
C1381 C 0.99606 0.04133 0.90488 0.0
C1382 C 0.96379 0.0396 0.83643 0.0
C1383 C 0.95296 0.08279 0.81342 0.0
N1384 N 0.98658 0.04151 0.88253 0.0
N1385 N 0.96519 0.08224 0.83433 0.0
H1386 H 0.74429 0.2398 0.57544 0.0
H1387 H 0.75856 0.24517 0.71816 0.0
H1388 H 0.75922 0.17859 0.62141 0.0
H1389 H 0.75221 0.30838 0.67308 0.0
H1390 H 0.75222 0.22041 0.68327 0.0
H1391 H 0.74068 0.26505 0.6113 0.0
C1392 C 0.74651 0.23165 0.59309 0.0
C1393 C 0.75231 0.20716 0.59553 0.0
C1394 C 0.75208 0.23969 0.68093 0.0
C1395 C 0.74823 0.23577 0.63638 0.0
C1396 C 0.75583 0.25382 0.70084 0.0
C1397 C 0.7564 0.27881 0.69834 0.0
C1398 C 0.74903 0.25058 0.65823 0.0
C1399 C 0.752 0.28915 0.67566 0.0
C1400 C 0.7445 0.24605 0.6135 0.0
C1401 C 0.75496 0.19744 0.61874 0.0
N1402 N 0.74879 0.27495 0.65633 0.0
N1403 N 0.75305 0.2118 0.63824 0.0
H1404 H 0.55666 0.96637 0.35892 0.0
H1405 H 0.46806 0.03865 0.44626 0.0
H1406 H 0.54414 0.04294 0.35907 0.0
H1407 H 0.49915 0.96867 0.46102 0.0
H1408 H 0.47795 0.03325 0.40333 0.0
H1409 H 0.52017 0.96165 0.38518 0.0
C1410 C 0.54605 0.98215 0.36427 0.0
C1411 C 0.55383 0.00514 0.35767 0.0
C1412 C 0.48152 0.01858 0.4158 0.0
C1413 C 0.51202 0.99983 0.38707 0.0
C1414 C 0.47558 0.02154 0.44023 0.0
C1415 C 0.48345 0.00428 0.45694 0.0
C1416 C 0.49551 0.99836 0.40853 0.0
C1417 C 0.49327 0.98251 0.44847 0.0
C1418 C 0.52513 0.97942 0.37898 0.0
C1419 C 0.53917 0.02495 0.36448 0.0
N1420 N 0.49974 0.98039 0.4248 0.0
N1421 N 0.51914 0.02187 0.37916 0.0
H1422 H 0.76444 0.83733 0.08648 0.0
H1423 H 0.80399 0.85034 0.22396 0.0
H1424 H 0.79424 0.90206 0.11374 0.0
H1425 H 0.7516 0.79874 0.20256 0.0
H1426 H 0.80484 0.86695 0.18271 0.0
H1427 H 0.76385 0.8203 0.12767 0.0
C1428 C 0.77098 0.84793 0.10107 0.0
C1429 C 0.77938 0.87123 0.09652 0.0
C1430 C 0.79315 0.852 0.18704 0.0
C1431 C 0.77896 0.85168 0.14386 0.0
C1432 C 0.79269 0.84245 0.21063 0.0
C1433 C 0.77765 0.82308 0.21694 0.0
C1434 C 0.7788 0.84194 0.1693 0.0
C1435 C 0.76341 0.8137 0.19869 0.0
C1436 C 0.77054 0.83822 0.12462 0.0
C1437 C 0.78754 0.88409 0.11629 0.0
N1438 N 0.76445 0.82308 0.1758 0.0
N1439 N 0.78725 0.87415 0.13893 0.0
H1440 H 0.96219 0.09163 0.69355 0.0
H1441 H 0.9843 0.0069 0.58322 0.0
H1442 H 0.90567 0.04844 0.66487 0.0
H1443 H 0.0092 0.07949 0.57456 0.0
H1444 H 0.96464 0.01769 0.62163 0.0
H1445 H 0.98727 0.08457 0.65638 0.0
C1446 C 0.95496 0.08099 0.67934 0.0
C1447 C 0.93189 0.07052 0.68224 0.0
C1448 C 0.97471 0.03114 0.61143 0.0
C1449 C 0.96052 0.06189 0.64067 0.0
C1450 C 0.98607 0.02502 0.58958 0.0
C1451 C 0.99805 0.04245 0.57543 0.0
C1452 C 0.97559 0.05474 0.61945 0.0
C1453 C 0.99997 0.06557 0.58485 0.0
C1454 C 0.96924 0.07697 0.65831 0.0
C1455 C 0.92333 0.05685 0.6634 0.0
N1456 N 0.9886 0.07118 0.60633 0.0
N1457 N 0.93782 0.0526 0.6436 0.0
H1458 H 0.7974 0.22697 0.47864 0.0
H1459 H 0.79292 0.20014 0.33802 0.0
H1460 H 0.78031 0.15832 0.44939 0.0
H1461 H 0.80885 0.2694 0.36671 0.0
H1462 H 0.79494 0.18295 0.37859 0.0
H1463 H 0.80742 0.24153 0.43777 0.0
C1464 C 0.79585 0.21496 0.46361 0.0
C1465 C 0.7877 0.19155 0.46729 0.0
C1466 C 0.79834 0.20185 0.37597 0.0
C1467 C 0.7992 0.20794 0.42065 0.0
C1468 C 0.79729 0.21165 0.35278 0.0
C1469 C 0.80032 0.2363 0.34907 0.0
C1470 C 0.80226 0.21686 0.39555 0.0
C1471 C 0.8061 0.25034 0.36882 0.0
C1472 C 0.80165 0.22322 0.44032 0.0
C1473 C 0.78625 0.17661 0.44729 0.0
N1474 N 0.80652 0.24048 0.39129 0.0
N1475 N 0.79176 0.18512 0.4248 0.0
H1476 H 0.62106 0.04876 0.23434 0.0
H1477 H 0.51966 0.02488 0.13935 0.0
H1478 H 0.55823 0.00533 0.25105 0.0
H1479 H 0.56422 0.08757 0.13558 0.0
H1480 H 0.53533 0.01535 0.17924 0.0
H1481 H 0.6029 0.06068 0.19611 0.0
C1482 C 0.60355 0.04159 0.22982 0.0
C1483 C 0.59109 0.026 0.24568 0.0
C1484 C 0.54147 0.03135 0.16983 0.0
C1485 C 0.5703 0.03961 0.20241 0.0
C1486 C 0.53258 0.03673 0.14718 0.0
C1487 C 0.54083 0.05693 0.13441 0.0
C1488 C 0.55903 0.04609 0.17947 0.0
C1489 C 0.55742 0.07192 0.14511 0.0
C1490 C 0.59312 0.04858 0.2082 0.0
C1491 C 0.56839 0.01736 0.23921 0.0
N1492 N 0.5663 0.06602 0.16702 0.0
N1493 N 0.55873 0.02422 0.21795 0.0
H1494 H 0.77278 0.83427 0.97161 0.0
H1495 H 0.76781 0.85433 0.82753 0.0
H1496 H 0.77576 0.90395 0.93743 0.0
H1497 H 0.75365 0.78671 0.86317 0.0
H1498 H 0.77177 0.87273 0.86718 0.0
H1499 H 0.76739 0.81639 0.93194 0.0
C1500 C 0.77242 0.84583 0.95578 0.0
C1501 C 0.77479 0.87072 0.95803 0.0
C1502 C 0.76763 0.8539 0.86635 0.0
C1503 C 0.76854 0.85025 0.9122 0.0
C1504 C 0.76525 0.84337 0.84363 0.0
C1505 C 0.7602 0.81887 0.84178 0.0
C1506 C 0.76522 0.83988 0.88757 0.0
C1507 C 0.75737 0.80566 0.8635 0.0
C1508 C 0.76924 0.8356 0.93307 0.0
C1509 C 0.77405 0.88471 0.93671 0.0
N1510 N 0.76003 0.81624 0.88531 0.0
N1511 N 0.77106 0.87434 0.91483 0.0
H1512 H 0.86553 0.91354 0.04193 0.0
H1513 H 0.94256 0.02611 0.99503 0.0
H1514 H 0.83121 0.97252 0.00399 0.0
H1515 H 0.9628 0.98187 0.0559 0.0
H1516 H 0.9034 0.00513 0.99411 0.0
H1517 H 0.90338 0.93616 0.04278 0.0
C1518 C 0.86597 0.9312 0.03364 0.0
C1519 C 0.84507 0.9411 0.0229 0.0
C1520 C 0.9164 1.00019 0.00775 0.0
C1521 C 0.88863 0.9672 0.02367 0.0
C1522 C 0.93874 0.0122 0.00832 0.0
C1523 C 0.9561 0.00592 0.02565 0.0
C1524 C 0.91154 0.9814 0.02428 0.0
C1525 C 0.95008 0.98754 0.04228 0.0
C1526 C 0.88759 0.94418 0.03424 0.0
C1527 C 0.84683 0.96418 0.01252 0.0
N1528 N 0.92855 0.97586 0.04102 0.0
N1529 N 0.86821 0.97637 0.01303 0.0
H1530 H 0.36926 0.66561 0.00244 0.0
H1531 H 0.41459 0.53181 0.98101 0.0
H1532 H 0.31961 0.60669 0.00058 0.0
H1533 H 0.4597 0.59322 0.96662 0.0
H1534 H 0.37873 0.5586 0.98464 0.0
H1535 H 0.40232 0.63915 0.98744 0.0
C1536 C 0.36537 0.64707 0.99893 0.0
C1537 C 0.34182 0.6382 0.00297 0.0
C1538 C 0.39641 0.56615 0.98021 0.0
C1539 C 0.37939 0.60789 0.98565 0.0
C1540 C 0.41687 0.55085 0.97798 0.0
C1541 C 0.4402 0.56037 0.974 0.0
C1542 C 0.39949 0.59103 0.97865 0.0
C1543 C 0.44209 0.58515 0.97013 0.0
C1544 C 0.38416 0.63202 0.99015 0.0
C1545 C 0.33763 0.61414 0.99786 0.0
N1546 N 0.42205 0.59967 0.97301 0.0
N1547 N 0.35632 0.59972 0.98964 0.0
H1548 H 0.22651 0.55934 0.80901 0.0
H1549 H 0.21529 0.67986 0.73757 0.0
H1550 H 0.15576 0.58919 0.79105 0.0
H1551 H 0.26516 0.67523 0.79615 0.0
H1552 H 0.19659 0.64256 0.75197 0.0
H1553 H 0.24455 0.59866 0.8007 0.0
C1554 C 0.21477 0.57425 0.80369 0.0
C1555 C 0.18969 0.57114 0.80062 0.0
C1556 C 0.21162 0.64977 0.76165 0.0
C1557 C 0.21013 0.61541 0.79053 0.0
C1558 C 0.22237 0.67077 0.75334 0.0
C1559 C 0.24173 0.68029 0.76572 0.0
C1560 C 0.22076 0.63803 0.7821 0.0
C1561 C 0.2502 0.66823 0.78626 0.0
C1562 C 0.22503 0.59655 0.799 0.0
C1563 C 0.17518 0.59091 0.79367 0.0
N1564 N 0.23982 0.64742 0.79374 0.0
N1565 N 0.18572 0.61216 0.78839 0.0
H1566 H 0.19632 0.41349 0.49674 0.0
H1567 H 0.11089 0.51852 0.5541 0.0
H1568 H 0.22291 0.46455 0.54674 0.0
H1569 H 0.09011 0.47537 0.49447 0.0
H1570 H 0.15101 0.49782 0.55358 0.0
H1571 H 0.15658 0.43457 0.49763 0.0
C1572 C 0.19382 0.42914 0.50796 0.0
C1573 C 0.21311 0.43721 0.52167 0.0
C1574 C 0.13769 0.4929 0.54059 0.0
C1575 C 0.16727 0.46157 0.52286 0.0
C1576 C 0.11471 0.50471 0.54089 0.0
C1577 C 0.09695 0.49878 0.52427 0.0
C1578 C 0.14304 0.47481 0.52369 0.0
C1579 C 0.10312 0.48067 0.5076 0.0
C1580 C 0.17106 0.44123 0.50842 0.0
C1581 C 0.20864 0.45766 0.53584 0.0
N1582 N 0.12549 0.46935 0.5078 0.0
N1583 N 0.18623 0.46906 0.53612 0.0
H1584 H 0.88596 0.98392 0.71676 0.0
H1585 H 0.79593 0.891 0.78083 0.0
H1586 H 0.83808 0.00302 0.77723 0.0
H1587 H 0.82073 0.88496 0.70651 0.0
H1588 H 0.81599 0.92972 0.7828 0.0
H1589 H 0.86674 0.94484 0.71562 0.0
C1590 C 0.87144 0.97983 0.72983 0.0
C1591 C 0.86349 0.99663 0.74708 0.0
C1592 C 0.81699 0.91989 0.76607 0.0
C1593 C 0.84168 0.95213 0.74599 0.0
C1594 C 0.80573 0.89782 0.765 0.0
C1595 C 0.80672 0.88493 0.74346 0.0
C1596 C 0.82959 0.92885 0.74556 0.0
C1597 C 0.81938 0.89454 0.72334 0.0
C1598 C 0.86045 0.95762 0.72911 0.0
C1599 C 0.84461 0.99053 0.76358 0.0
N1600 N 0.83047 0.91592 0.7249 0.0
N1601 N 0.83437 0.96866 0.76271 0.0
H1602 H 0.72764 0.08996 0.53882 0.0
H1603 H 0.60065 0.07623 0.47429 0.0
H1604 H 0.68969 0.14824 0.50296 0.0
H1605 H 0.64074 0.01682 0.50544 0.0
H1606 H 0.63491 0.10222 0.48151 0.0
H1607 H 0.69711 0.06245 0.52507 0.0
C1608 C 0.71276 0.09698 0.52817 0.0
C1609 C 0.71103 0.12142 0.52214 0.0
C1610 C 0.63644 0.08345 0.48647 0.0
C1611 C 0.67627 0.09003 0.50611 0.0
C1612 C 0.61697 0.06865 0.48226 0.0
C1613 C 0.61796 0.04453 0.48949 0.0
C1614 C 0.65693 0.07407 0.49829 0.0
C1615 C 0.63943 0.03535 0.49956 0.0
C1616 C 0.69547 0.08124 0.52017 0.0
C1617 C 0.69156 0.12955 0.50815 0.0
N1618 N 0.65801 0.05026 0.50403 0.0
N1619 N 0.67488 0.11387 0.50064 0.0
H1620 H 0.23003 0.45089 0.79692 0.0
H1621 H 0.21547 0.31205 0.76862 0.0
H1622 H 0.16266 0.42088 0.77381 0.0
H1623 H 0.28157 0.34274 0.79415 0.0
H1624 H 0.19505 0.35136 0.77181 0.0
H1625 H 0.24903 0.41098 0.79628 0.0
C1626 C 0.21931 0.43588 0.79155 0.0
C1627 C 0.1948 0.4391 0.78537 0.0
C1628 C 0.21397 0.3494 0.77687 0.0
C1629 C 0.21626 0.39343 0.78483 0.0
C1630 C 0.22557 0.32697 0.77519 0.0
C1631 C 0.25027 0.32421 0.78098 0.0
C1632 C 0.22724 0.36908 0.78435 0.0
C1633 C 0.26254 0.3441 0.78933 0.0
C1634 C 0.2301 0.4131 0.79131 0.0
C1635 C 0.18166 0.41911 0.77866 0.0
N1636 N 0.25094 0.36574 0.79062 0.0
N1637 N 0.19257 0.39705 0.77858 0.0
H1638 H 0.34862 0.60474 0.30686 0.0
H1639 H 0.32054 0.72204 0.3361 0.0
H1640 H 0.3464 0.63318 0.23418 0.0
H1641 H 0.28685 0.72762 0.26679 0.0
H1642 H 0.32954 0.67982 0.32876 0.0
H1643 H 0.32512 0.63984 0.32114 0.0
C1644 C 0.34304 0.61831 0.2939 0.0
C1645 C 0.3499 0.6164 0.26939 0.0
C1646 C 0.3194 0.68999 0.31551 0.0
C1647 C 0.32352 0.65664 0.2856 0.0
C1648 C 0.3144 0.7142 0.31964 0.0
C1649 C 0.30327 0.72843 0.30188 0.0
C1650 C 0.31337 0.68007 0.29336 0.0
C1651 C 0.29567 0.71736 0.2809 0.0
C1652 C 0.3298 0.6384 0.30209 0.0
C1653 C 0.34186 0.63422 0.25329 0.0
N1654 N 0.30139 0.69394 0.27698 0.0
N1655 N 0.32925 0.65373 0.26173 0.0
H1656 H 0.51572 0.72659 0.57568 0.0
H1657 H 0.52419 0.58296 0.59448 0.0
H1658 H 0.53023 0.69229 0.64398 0.0
H1659 H 0.50953 0.61733 0.5262 0.0
H1660 H 0.52569 0.62257 0.61302 0.0
H1661 H 0.51309 0.68693 0.55738 0.0
C1662 C 0.51843 0.71076 0.58685 0.0
C1663 C 0.52327 0.71299 0.61149 0.0
C1664 C 0.52202 0.62148 0.594 0.0
C1665 C 0.52014 0.66711 0.59052 0.0
C1666 C 0.52105 0.59876 0.58338 0.0
C1667 C 0.51659 0.59653 0.55865 0.0
C1668 C 0.51859 0.6424 0.57991 0.0
C1669 C 0.5129 0.61792 0.54531 0.0
C1670 C 0.51688 0.68803 0.57637 0.0
C1671 C 0.52652 0.69163 0.62495 0.0
N1672 N 0.51404 0.63977 0.55603 0.0
N1673 N 0.52489 0.66976 0.61436 0.0
H1674 H 0.64288 0.28774 0.92191 0.0
H1675 H 0.72266 0.32318 0.80418 0.0
H1676 H 0.61531 0.29439 0.85002 0.0
H1677 H 0.7549 0.29715 0.86991 0.0
H1678 H 0.68245 0.32262 0.82429 0.0
H1679 H 0.68323 0.30024 0.90617 0.0
C1680 C 0.64528 0.29211 0.90291 0.0
C1681 C 0.62596 0.28976 0.88712 0.0
C1682 C 0.69833 0.31724 0.83441 0.0
C1683 C 0.67159 0.30418 0.86921 0.0
C1684 C 0.72131 0.31758 0.82296 0.0
C1685 C 0.74207 0.30969 0.83526 0.0
C1686 C 0.69604 0.30886 0.85831 0.0
C1687 C 0.73928 0.30306 0.85969 0.0
C1688 C 0.66823 0.29919 0.89397 0.0
C1689 C 0.62986 0.29567 0.86271 0.0
N1690 N 0.71656 0.30246 0.87038 0.0
N1691 N 0.65227 0.30252 0.85449 0.0
H1692 H 0.00362 0.33093 0.08323 0.0
H1693 H 0.05017 0.46668 0.08348 0.0
H1694 H 0.04579 0.35941 0.14016 0.0
H1695 H 0.99272 0.44406 0.03799 0.0
H1696 H 0.05143 0.42663 0.10211 0.0
H1697 H 0.00208 0.37097 0.06417 0.0
C1698 C 0.01264 0.34554 0.09171 0.0
C1699 C 0.02485 0.34163 0.11342 0.0
C1700 C 0.03852 0.43038 0.08807 0.0
C1701 C 0.02328 0.38776 0.09149 0.0
C1702 C 0.03781 0.45332 0.07734 0.0
C1703 C 0.02129 0.45898 0.05905 0.0
C1704 C 0.02281 0.41257 0.08038 0.0
C1705 C 0.00574 0.4407 0.05202 0.0
C1706 C 0.01168 0.36846 0.08083 0.0
C1707 C 0.03611 0.36143 0.1235 0.0
N1708 N 0.00697 0.41842 0.06255 0.0
N1709 N 0.03515 0.38345 0.11246 0.0
H1710 H 0.98051 0.7413 0.36509 0.0
H1711 H 0.90064 0.84732 0.31149 0.0
H1712 H 0.01277 0.80682 0.33871 0.0
H1713 H 0.87864 0.77354 0.30904 0.0
H1714 H 0.9415 0.83345 0.32273 0.0
H1715 H 0.94244 0.75295 0.34559 0.0
C1716 C 0.97968 0.75793 0.35482 0.0
C1717 C 0.9997 0.77317 0.35353 0.0
C1718 C 0.92767 0.82037 0.31955 0.0
C1719 C 0.9562 0.78686 0.33179 0.0
C1720 C 0.90431 0.82827 0.31315 0.0
C1721 C 0.88584 0.81169 0.30964 0.0
C1722 C 0.93251 0.79576 0.32275 0.0
C1723 C 0.89184 0.78716 0.3122 0.0
C1724 C 0.95799 0.76459 0.34374 0.0
C1725 C 0.99772 0.79455 0.34007 0.0
N1726 N 0.91454 0.77999 0.31883 0.0
N1727 N 0.97617 0.80098 0.33004 0.0
H1728 H 0.53659 0.30508 0.98507 0.0
H1729 H 0.43646 0.41114 0.97674 0.0
H1730 H 0.49832 0.32435 0.92054 0.0
H1731 H 0.4988 0.41384 0.02213 0.0
H1732 H 0.44942 0.3705 0.96462 0.0
H1733 H 0.51353 0.33698 0.00671 0.0
C1734 C 0.52311 0.31582 0.97561 0.0
C1735 C 0.51958 0.31254 0.95097 0.0
C1736 C 0.45988 0.37981 0.9777 0.0
C1737 C 0.49297 0.3482 0.97551 0.0
C1738 C 0.45241 0.4028 0.98471 0.0
C1739 C 0.46682 0.41569 0.00016 0.0
C1740 C 0.48167 0.36975 0.98653 0.0
C1741 C 0.48747 0.40438 0.00992 0.0
C1742 C 0.51 0.33388 0.98791 0.0
C1743 C 0.50185 0.3267 0.93946 0.0
N1744 N 0.49448 0.38206 0.00276 0.0
N1745 N 0.48923 0.344 0.95182 0.0
H1746 H 0.94493 0.30744 0.17574 0.0
H1747 H 0.84933 0.22936 0.2523 0.0
H1748 H 0.96585 0.23939 0.20738 0.0
H1749 H 0.84612 0.30657 0.25327 0.0
H1750 H 0.88916 0.2311 0.23051 0.0
H1751 H 0.90568 0.30601 0.19865 0.0
C1752 C 0.94126 0.29219 0.18747 0.0
C1753 C 0.95877 0.27354 0.18969 0.0
C1754 C 0.87974 0.24764 0.23556 0.0
C1755 C 0.91366 0.27159 0.2156 0.0
C1756 C 0.85698 0.24668 0.24793 0.0
C1757 C 0.84436 0.26785 0.25476 0.0
C1758 C 0.88976 0.26994 0.22935 0.0
C1759 C 0.85524 0.28978 0.24856 0.0
C1760 C 0.9189 0.29143 0.20059 0.0
C1761 C 0.95297 0.25422 0.2052 0.0
N1762 N 0.87713 0.29026 0.23603 0.0
N1763 N 0.93087 0.25363 0.21735 0.0
H1764 H 0.07944 0.71064 0.46337 0.0
H1765 H 0.04405 0.57416 0.45022 0.0
H1766 H 0.05724 0.68058 0.3964 0.0
H1767 H 0.06971 0.60493 0.51558 0.0
H1768 H 0.05389 0.61132 0.42852 0.0
H1769 H 0.08115 0.67056 0.48113 0.0
C1770 C 0.07511 0.69553 0.45235 0.0
C1771 C 0.06785 0.69888 0.42853 0.0
C1772 C 0.05765 0.60979 0.44754 0.0
C1773 C 0.06953 0.65296 0.44876 0.0
C1774 C 0.05206 0.5886 0.45992 0.0
C1775 C 0.05571 0.58664 0.4848 0.0
C1776 C 0.06687 0.62907 0.4602 0.0
C1777 C 0.06625 0.6058 0.49647 0.0
C1778 C 0.07613 0.67263 0.46247 0.0
C1779 C 0.06273 0.67871 0.41493 0.0
N1780 N 0.07121 0.6263 0.48411 0.0
N1781 N 0.06334 0.65656 0.42536 0.0
H1782 H 0.57483 0.76069 0.71653 0.0
H1783 H 0.70729 0.81855 0.7294 0.0
H1784 H 0.60762 0.80738 0.66272 0.0
H1785 H 0.68294 0.7587 0.77313 0.0
H1786 H 0.66901 0.8178 0.70769 0.0
H1787 H 0.61221 0.76251 0.73986 0.0
C1788 C 0.58984 0.77138 0.70961 0.0
C1789 C 0.58795 0.78386 0.6875 0.0
C1790 C 0.67193 0.8049 0.72211 0.0
C1791 C 0.63099 0.78623 0.71443 0.0
C1792 C 0.69381 0.8054 0.7347 0.0
C1793 C 0.69854 0.78871 0.75333 0.0
C1794 C 0.65427 0.7877 0.72815 0.0
C1795 C 0.68022 0.772 0.75904 0.0
C1796 C 0.61125 0.77238 0.72296 0.0
C1797 C 0.60816 0.79738 0.67956 0.0
N1798 N 0.65901 0.77195 0.74657 0.0
N1799 N 0.62866 0.79828 0.69299 0.0
H1800 H 0.66487 0.50182 0.70023 0.0
H1801 H 0.54098 0.46376 0.64214 0.0
H1802 H 0.61546 0.45118 0.73371 0.0
H1803 H 0.59534 0.50665 0.6048 0.0
H1804 H 0.56947 0.45626 0.67444 0.0
H1805 H 0.64178 0.50049 0.66339 0.0
C1806 C 0.64941 0.49007 0.69964 0.0
C1807 C 0.64182 0.47682 0.72007 0.0
C1808 C 0.57523 0.46718 0.65909 0.0
C1809 C 0.61504 0.47558 0.67823 0.0
C1810 C 0.55895 0.47147 0.64062 0.0
C1811 C 0.56564 0.48606 0.62079 0.0
C1812 C 0.59833 0.47767 0.65783 0.0
C1813 C 0.58913 0.49576 0.61995 0.0
C1814 C 0.63618 0.48937 0.67864 0.0
C1815 C 0.6218 0.46177 0.71835 0.0
N1816 N 0.60456 0.4915 0.63828 0.0
N1817 N 0.60881 0.46185 0.69788 0.0
H1818 H 0.7841 0.33164 0.02609 0.0
H1819 H 0.83823 0.34695 0.89187 0.0
H1820 H 0.76273 0.38793 0.97646 0.0
H1821 H 0.83155 0.27701 0.92488 0.0
H1822 H 0.82072 0.36491 0.92862 0.0
H1823 H 0.80966 0.3133 0.99363 0.0
C1824 C 0.78469 0.34001 0.00835 0.0
C1825 C 0.77119 0.36119 0.00379 0.0
C1826 C 0.82343 0.34565 0.92797 0.0
C1827 C 0.80075 0.34093 0.96726 0.0
C1828 C 0.83355 0.33546 0.90713 0.0
C1829 C 0.83588 0.31052 0.90531 0.0
C1830 C 0.81565 0.33078 0.94714 0.0
C1831 C 0.82994 0.29633 0.92565 0.0
C1832 C 0.7993 0.32964 0.98999 0.0
C1833 C 0.77265 0.37148 0.98064 0.0
N1834 N 0.81968 0.30666 0.94574 0.0
N1835 N 0.78731 0.36133 0.96329 0.0
H1836 H 0.8837 0.55259 0.17436 0.0
H1837 H 0.01305 0.55987 0.10448 0.0
H1838 H 0.95269 0.55868 0.20937 0.0
H1839 H 0.94575 0.5426 0.07046 0.0
H1840 H 0.98992 0.56745 0.14199 0.0
H1841 H 0.90511 0.55623 0.13522 0.0
C1842 C 0.90336 0.55477 0.17377 0.0
C1843 C 0.91658 0.55499 0.19501 0.0
C1844 C 0.98019 0.56223 0.12625 0.0
C1845 C 0.94105 0.55928 0.1505 0.0
C1846 C 0.99336 0.55795 0.10483 0.0
C1847 C 0.9813 0.55018 0.08451 0.0
C1848 C 0.95486 0.55865 0.1273 0.0
C1849 C 0.95577 0.54826 0.08584 0.0
C1850 C 0.91553 0.55692 0.15147 0.0
C1851 C 0.94192 0.55813 0.19335 0.0
N1852 N 0.94339 0.5522 0.10703 0.0
N1853 N 0.9534 0.56 0.1714 0.0
H1854 H 0.75877 0.66847 0.44403 0.0
H1855 H 0.80182 0.78412 0.36778 0.0
H1856 H 0.7905 0.72901 0.47774 0.0
H1857 H 0.74866 0.73505 0.34278 0.0
H1858 H 0.80163 0.76266 0.40684 0.0
H1859 H 0.75873 0.69079 0.40567 0.0
C1860 C 0.76579 0.68646 0.4434 0.0
C1861 C 0.77461 0.69682 0.4643 0.0
C1862 C 0.78996 0.75664 0.39282 0.0
C1863 C 0.77486 0.72258 0.42001 0.0
C1864 C 0.79009 0.76887 0.37045 0.0
C1865 C 0.77517 0.76153 0.35181 0.0
C1866 C 0.77514 0.73656 0.3966 0.0
C1867 C 0.7604 0.74155 0.35651 0.0
C1868 C 0.76569 0.69925 0.42143 0.0
C1869 C 0.78344 0.72028 0.46219 0.0
N1870 N 0.76089 0.72976 0.37823 0.0
N1871 N 0.78348 0.73226 0.4405 0.0
H1872 H 0.58318 0.51892 0.81384 0.0
H1873 H 0.52572 0.46652 0.93716 0.0
H1874 H 0.61287 0.45591 0.84927 0.0
H1875 H 0.52262 0.54086 0.91512 0.0
H1876 H 0.54759 0.4569 0.89885 0.0
H1877 H 0.55027 0.52083 0.84453 0.0
C1878 C 0.58255 0.50524 0.82787 0.0
C1879 C 0.60104 0.48752 0.82936 0.0
C1880 C 0.54167 0.4752 0.90232 0.0
C1881 C 0.56348 0.48968 0.86447 0.0
C1882 C 0.52916 0.48067 0.92401 0.0
C1883 C 0.52271 0.50453 0.92923 0.0
C1884 C 0.54715 0.49371 0.88577 0.0
C1885 C 0.52761 0.52229 0.91181 0.0
C1886 C 0.56378 0.50637 0.84536 0.0
C1887 C 0.59912 0.47005 0.84771 0.0
N1888 N 0.53963 0.51653 0.89087 0.0
N1889 N 0.58081 0.47176 0.86485 0.0
H1890 H 0.72354 0.33029 0.10661 0.0
H1891 H 0.74913 0.33487 0.24729 0.0
H1892 H 0.73584 0.39505 0.14565 0.0
H1893 H 0.74789 0.26897 0.2075 0.0
H1894 H 0.737 0.3569 0.21138 0.0
H1895 H 0.72525 0.30746 0.14453 0.0
C1896 C 0.7263 0.33972 0.12322 0.0
C1897 C 0.72985 0.36452 0.12305 0.0
C1898 C 0.73921 0.33761 0.21049 0.0
C1899 C 0.73185 0.33862 0.16627 0.0
C1900 C 0.74616 0.32499 0.231 0.0
C1901 C 0.74986 0.30007 0.23026 0.0
C1902 C 0.73605 0.32528 0.18898 0.0
C1903 C 0.74543 0.2882 0.20875 0.0
C1904 C 0.72733 0.32669 0.1448 0.0
C1905 C 0.73327 0.37591 0.14499 0.0
N1906 N 0.73897 0.30098 0.18882 0.0
N1907 N 0.73436 0.36283 0.16571 0.0
H1908 H 0.89406 0.54695 0.34662 0.0
H1909 H 0.00941 0.47734 0.40163 0.0
H1910 H 0.94634 0.50596 0.30308 0.0
H1911 H 0.96014 0.52446 0.44188 0.0
H1912 H 0.98471 0.48417 0.36588 0.0
H1913 H 0.9164 0.53563 0.38242 0.0
C1914 C 0.91026 0.53552 0.34463 0.0
C1915 C 0.91851 0.52749 0.32191 0.0
C1916 C 0.97932 0.49294 0.38258 0.0
C1917 C 0.94421 0.51445 0.36278 0.0
C1918 C 0.99331 0.48896 0.40294 0.0
C1919 C 0.98693 0.50062 0.42454 0.0
C1920 C 0.9588 0.50853 0.38406 0.0
C1921 C 0.96598 0.51556 0.4254 0.0
C1922 C 0.92302 0.52904 0.36507 0.0
C1923 C 0.9395 0.51261 0.32033 0.0
N1924 N 0.95272 0.51913 0.40543 0.0
N1925 N 0.95174 0.50661 0.34054 0.0
H1926 H 0.7689 0.65651 0.62053 0.0
H1927 H 0.78557 0.77795 0.69439 0.0
H1928 H 0.7753 0.72618 0.58685 0.0
H1929 H 0.76845 0.71059 0.7292 0.0
H1930 H 0.78448 0.75862 0.65516 0.0
H1931 H 0.77078 0.6752 0.66026 0.0
C1932 C 0.77064 0.67575 0.62144 0.0
C1933 C 0.77187 0.68973 0.60013 0.0
C1934 C 0.78106 0.74797 0.67133 0.0
C1935 C 0.77428 0.71137 0.6459 0.0
C1936 C 0.7818 0.75901 0.69389 0.0
C1937 C 0.7772 0.74597 0.71541 0.0
C1938 C 0.77574 0.72352 0.66994 0.0
C1939 C 0.77224 0.72145 0.71325 0.0
C1940 C 0.77173 0.68643 0.64421 0.0
C1941 C 0.77419 0.71461 0.60265 0.0
N1942 N 0.77165 0.71109 0.69104 0.0
N1943 N 0.77539 0.72454 0.62497 0.0
H1944 H 0.68756 0.6474 0.50991 0.0
H1945 H 0.60939 0.53321 0.55117 0.0
H1946 H 0.71971 0.58791 0.54884 0.0
H1947 H 0.5892 0.58061 0.49271 0.0
H1948 H 0.64839 0.55413 0.55354 0.0
H1949 H 0.64981 0.62488 0.50681 0.0
C1950 C 0.68668 0.62964 0.51792 0.0
C1951 C 0.70698 0.61962 0.52966 0.0
C1952 C 0.63549 0.55981 0.54008 0.0
C1953 C 0.66344 0.59359 0.52628 0.0
C1954 C 0.6132 0.54782 0.53866 0.0
C1955 C 0.59587 0.55494 0.52158 0.0
C1956 C 0.64043 0.57946 0.52463 0.0
C1957 C 0.60192 0.57424 0.50605 0.0
C1958 C 0.6651 0.61671 0.51604 0.0
C1959 C 0.70462 0.5964 0.53959 0.0
N1960 N 0.62344 0.58586 0.5081 0.0
N1961 N 0.68329 0.58428 0.53781 0.0
H1962 H 0.20304 0.97876 0.51967 0.0
H1963 H 0.05903 0.96046 0.51269 0.0
H1964 H 0.16951 0.90951 0.52332 0.0
H1965 H 0.09352 0.02917 0.5061 0.0
H1966 H 0.09952 0.94105 0.51376 0.0
H1967 H 0.16334 0.99712 0.51085 0.0
C1968 C 0.18736 0.96739 0.51826 0.0
C1969 C 0.18944 0.94264 0.52244 0.0
C1970 C 0.09821 0.96037 0.51198 0.0
C1971 C 0.14395 0.96351 0.51276 0.0
C1972 C 0.07511 0.97146 0.51149 0.0
C1973 C 0.07292 0.99648 0.50953 0.0
C1974 C 0.11921 0.97442 0.51058 0.0
C1975 C 0.09434 0.00984 0.50781 0.0
C1976 C 0.16468 0.97788 0.51331 0.0
C1977 C 0.16862 0.9287 0.52032 0.0
N1978 N 0.11659 0.99864 0.50849 0.0
N1979 N 0.14663 0.93938 0.5159 0.0
H1980 H 0.37912 0.00213 0.80027 0.0
H1981 H 0.33201 0.87354 0.7654 0.0
H1982 H 0.39933 0.96703 0.73344 0.0
H1983 H 0.29524 0.91713 0.81971 0.0
H1984 H 0.36003 0.90598 0.75643 0.0
H1985 H 0.35085 0.96981 0.81016 0.0
C1986 C 0.37753 0.98765 0.78764 0.0
C1987 C 0.39155 0.98719 0.766 0.0
C1988 C 0.34588 0.90846 0.77035 0.0
C1989 C 0.35955 0.95017 0.77731 0.0
C1990 C 0.33004 0.88984 0.7757 0.0
C1991 C 0.31136 0.89261 0.79348 0.0
C1992 C 0.34319 0.93 0.78297 0.0
C1993 C 0.30935 0.91436 0.80583 0.0
C1994 C 0.36139 0.96927 0.79329 0.0
C1995 C 0.3888 0.96808 0.75028 0.0
N1996 N 0.32515 0.93225 0.80039 0.0
N1997 N 0.37321 0.95023 0.75632 0.0
H1998 H 0.35089 0.12809 0.98215 0.0
H1999 H 0.45072 0.05919 0.05904 0.0
H2000 H 0.33336 0.0968 0.05191 0.0
H2001 H 0.45383 0.0564 0.98131 0.0
H2002 H 0.40986 0.07788 0.05749 0.0
H2003 H 0.39072 0.10665 0.98197 0.0
C2004 C 0.35538 0.11666 0.99738 0.0
C2005 C 0.33875 0.11421 0.01708 0.0
C2006 C 0.41943 0.07311 0.04077 0.0
C2007 C 0.38443 0.09005 0.01715 0.0
C2008 C 0.44282 0.06254 0.04161 0.0
C2009 C 0.45576 0.05619 0.02026 0.0
C2010 C 0.40898 0.07797 0.01839 0.0
C2011 C 0.44448 0.0609 0.99821 0.0
C2012 C 0.37806 0.10439 0.99722 0.0
C2013 C 0.34555 0.09914 0.03632 0.0
N2014 N 0.42184 0.07176 0.99782 0.0
N2015 N 0.36794 0.08788 0.03601 0.0
H2016 H 0.66899 0.57894 0.76426 0.0
H2017 H 0.725 0.67384 0.85231 0.0
H2018 H 0.68916 0.56171 0.83722 0.0
H2019 H 0.72301 0.68262 0.77482 0.0
H2020 H 0.70524 0.63535 0.84891 0.0
H2021 H 0.68157 0.62005 0.77 0.0
C2022 C 0.6759 0.58389 0.78156 0.0
C2023 C 0.67834 0.56693 0.80022 0.0
C2024 C 0.70904 0.64585 0.83272 0.0
C2025 C 0.69276 0.61378 0.80687 0.0
C2026 C 0.72045 0.66777 0.8346 0.0
C2027 C 0.72596 0.68151 0.8138 0.0
C2028 C 0.70296 0.6377 0.80991 0.0
C2029 C 0.71903 0.67289 0.7914 0.0
C2030 C 0.68311 0.60731 0.7848 0.0
C2031 C 0.68722 0.57426 0.82232 0.0
N2032 N 0.708 0.6515 0.79006 0.0
N2033 N 0.69428 0.59719 0.82501 0.0
H2034 H 0.78217 0.46697 0.01923 0.0
H2035 H 0.92606 0.4697 0.0387 0.0
H2036 H 0.81856 0.43031 0.07748 0.0
H2037 H 0.89017 0.51262 0.98439 0.0
H2038 H 0.88644 0.45585 0.05338 0.0
H2039 H 0.82091 0.48536 0.007 0.0
C2040 C 0.79824 0.46309 0.02967 0.0
C2041 C 0.79724 0.447 0.04931 0.0
C2042 C 0.88714 0.46836 0.0383 0.0
C2043 C 0.84158 0.46763 0.03522 0.0
C2044 C 0.90982 0.47636 0.02992 0.0
C2045 C 0.91147 0.49252 0.01037 0.0
C2046 C 0.86584 0.47643 0.027 0.0
C2047 C 0.88977 0.50002 0.99937 0.0
C2048 C 0.82035 0.4735 0.02261 0.0
C2049 C 0.81855 0.44256 0.06218 0.0
N2050 N 0.86781 0.49191 0.00785 0.0
N2051 N 0.8399 0.45266 0.05477 0.0
H2052 H 0.42117 0.11892 0.77416 0.0
H2053 H 0.29904 0.18472 0.7346 0.0
H2054 H 0.37521 0.08749 0.72178 0.0
H2055 H 0.36213 0.22205 0.75842 0.0
H2056 H 0.32422 0.14779 0.73196 0.0
H2057 H 0.39678 0.15589 0.77184 0.0
C2058 C 0.40589 0.11982 0.76219 0.0
C2059 C 0.40013 0.10021 0.74814 0.0
C2060 C 0.33249 0.1642 0.73748 0.0
C2061 C 0.37214 0.14236 0.74544 0.0
C2062 C 0.31819 0.18522 0.739 0.0
C2063 C 0.32848 0.20642 0.74691 0.0
C2064 C 0.357 0.16447 0.74429 0.0
C2065 C 0.35338 0.20611 0.75235 0.0
C2066 C 0.39208 0.14095 0.76075 0.0
C2067 C 0.38021 0.10232 0.73285 0.0
N2068 N 0.36669 0.18541 0.75121 0.0
N2069 N 0.36672 0.12305 0.73201 0.0
H2070 H 0.23958 0.97306 0.26524 0.0
H2071 H 0.30935 0.87153 0.3395 0.0
H2072 H 0.22004 0.95145 0.33824 0.0
H2073 H 0.30924 0.87666 0.2618 0.0
H2074 H 0.28922 0.91106 0.34179 0.0
H2075 H 0.2765 0.94772 0.26693 0.0
C2076 C 0.24322 0.96321 0.28175 0.0
C2077 C 0.22647 0.96383 0.30144 0.0
C2078 C 0.29434 0.90383 0.32426 0.0
C2079 C 0.26871 0.93508 0.30352 0.0
C2080 C 0.30605 0.88141 0.32293 0.0
C2081 C 0.31042 0.87071 0.3004 0.0
C2082 C 0.2873 0.91551 0.30293 0.0
C2083 C 0.30574 0.8842 0.27951 0.0
C2084 C 0.26434 0.94886 0.28271 0.0
C2085 C 0.23228 0.95106 0.3225 0.0
N2086 N 0.29399 0.90577 0.28126 0.0
N2087 N 0.25281 0.9369 0.32288 0.0
H2088 H 0.52164 0.33966 0.47372 0.0
H2089 H 0.52838 0.48259 0.45142 0.0
H2090 H 0.52147 0.37262 0.403 0.0
H2091 H 0.53674 0.44857 0.52103 0.0
H2092 H 0.52532 0.44284 0.43338 0.0
H2093 H 0.52615 0.37939 0.49138 0.0
C2094 C 0.52247 0.35522 0.46187 0.0
C2095 C 0.52112 0.3526 0.43676 0.0
C2096 C 0.52798 0.44405 0.45258 0.0
C2097 C 0.52635 0.39853 0.45699 0.0
C2098 C 0.52983 0.46683 0.46292 0.0
C2099 C 0.53299 0.46919 0.48787 0.0
C2100 C 0.52907 0.42324 0.46722 0.0
C2101 C 0.53447 0.44787 0.50173 0.0
C2102 C 0.52513 0.37798 0.47199 0.0
C2103 C 0.5224 0.37361 0.42243 0.0
N2104 N 0.5324 0.426 0.49131 0.0
N2105 N 0.52488 0.39552 0.43269 0.0
H2106 H 0.48998 0.78248 0.2059 0.0
H2107 H 0.3465 0.77535 0.23093 0.0
H2108 H 0.439 0.7564 0.15504 0.0
H2109 H 0.39632 0.79403 0.28624 0.0
H2110 H 0.38103 0.76552 0.20422 0.0
H2111 H 0.4571 0.78354 0.2369 0.0
C2112 C 0.47194 0.77667 0.20137 0.0
C2113 C 0.46703 0.76965 0.17783 0.0
C2114 C 0.38455 0.77165 0.2222 0.0
C2115 C 0.4295 0.77098 0.21302 0.0
C2116 C 0.3648 0.77745 0.23747 0.0
C2117 C 0.36859 0.78591 0.26073 0.0
C2118 C 0.40841 0.77457 0.23003 0.0
C2119 C 0.39267 0.78777 0.26834 0.0
C2120 C 0.45321 0.77729 0.21905 0.0
C2121 C 0.44348 0.76215 0.17291 0.0
N2122 N 0.41179 0.7824 0.25287 0.0
N2123 N 0.42551 0.76327 0.1903 0.0
H2124 H 0.99752 0.69157 0.90996 0.0
H2125 H 0.04471 0.60746 0.01838 0.0
H2126 H 0.03087 0.72005 0.97252 0.0
H2127 H 0.99048 0.58507 0.96911 0.0
H2128 H 0.04341 0.64761 0.99977 0.0
H2129 H 0.99819 0.65168 0.92912 0.0
C2130 C 0.00499 0.68949 0.92775 0.0
C2131 C 0.01408 0.7094 0.93959 0.0
C2132 C 0.03176 0.63394 0.99304 0.0
C2133 C 0.01523 0.66331 0.96167 0.0
C2134 C 0.03254 0.6109 0.00363 0.0
C2135 C 0.01763 0.59263 0.99544 0.0
C2136 C 0.01627 0.63891 0.97371 0.0
C2137 C 0.00226 0.59844 0.97619 0.0
C2138 C 0.00532 0.66663 0.93872 0.0
C2139 C 0.02354 0.70537 0.96267 0.0
N2140 N 0.0021 0.62087 0.96596 0.0
N2141 N 0.02402 0.68288 0.97282 0.0
H2142 H 0.10639 0.28929 0.63417 0.0
H2143 H 0.16494 0.21007 0.73922 0.0
H2144 H 0.06745 0.23348 0.67267 0.0
H2145 H 0.20523 0.26062 0.6948 0.0
H2146 H 0.12956 0.21663 0.71382 0.0
H2147 H 0.14347 0.27741 0.65497 0.0
C2148 C 0.10573 0.27441 0.64689 0.0
C2149 C 0.08386 0.26245 0.65189 0.0
C2150 C 0.14621 0.22618 0.70959 0.0
C2151 C 0.12608 0.24886 0.67589 0.0
C2152 C 0.1664 0.22238 0.72403 0.0
C2153 C 0.18792 0.23508 0.71933 0.0
C2154 C 0.14762 0.24279 0.69037 0.0
C2155 C 0.18882 0.25091 0.69948 0.0
C2156 C 0.12688 0.26761 0.65875 0.0
C2157 C 0.08397 0.24321 0.66841 0.0
N2158 N 0.1689 0.25441 0.68583 0.0
N2159 N 0.10475 0.23713 0.68001 0.0
H2160 H 0.56111 0.74236 0.05477 0.0
H2161 H 0.495 0.63421 0.99277 0.0
H2162 H 0.48475 0.72591 0.06567 0.0
H2163 H 0.57317 0.63665 0.00084 0.0
H2164 H 0.49081 0.67432 0.00949 0.0
H2165 H 0.56527 0.70999 0.02532 0.0
C2166 C 0.54514 0.73221 0.05062 0.0
C2167 C 0.52263 0.73648 0.06284 0.0
C2168 C 0.50891 0.66618 0.00733 0.0
C2169 C 0.52722 0.69979 0.02932 0.0
C2170 C 0.51131 0.64327 0.99789 0.0
C2171 C 0.53441 0.63184 0.99603 0.0
C2172 C 0.52975 0.67778 0.01494 0.0
C2173 C 0.55502 0.64473 0.00215 0.0
C2174 C 0.54755 0.71376 0.03392 0.0
C2175 C 0.5025 0.72293 0.05685 0.0
N2176 N 0.55217 0.66693 0.01171 0.0
N2177 N 0.50531 0.70506 0.04063 0.0
H2178 H 0.10005 0.74685 0.88765 0.0
H2179 H 0.1962 0.82481 0.81192 0.0
H2180 H 0.07739 0.80986 0.84775 0.0
H2181 H 0.20367 0.74785 0.81608 0.0
H2182 H 0.15534 0.82216 0.83158 0.0
H2183 H 0.14091 0.7492 0.8679 0.0
C2184 C 0.10367 0.76117 0.87476 0.0
C2185 C 0.08522 0.77811 0.86925 0.0
C2186 C 0.16598 0.80589 0.8282 0.0
C2187 C 0.13209 0.78122 0.84706 0.0
C2188 C 0.18934 0.80738 0.81712 0.0
C2189 C 0.20338 0.78652 0.81228 0.0
C2190 C 0.15682 0.78342 0.83512 0.0
C2191 C 0.19345 0.76439 0.81933 0.0
C2192 C 0.12695 0.76246 0.86347 0.0
C2193 C 0.09099 0.79632 0.8524 0.0
N2194 N 0.17092 0.76343 0.83057 0.0
N2195 N 0.11394 0.79755 0.84211 0.0
H2196 H 0.02886 0.37287 0.63582 0.0
H2197 H 0.98343 0.46223 0.53434 0.0
H2198 H 0.97828 0.35363 0.58149 0.0
H2199 H 0.02335 0.48498 0.59561 0.0
H2200 H 0.97691 0.42368 0.55426 0.0
H2201 H 0.02332 0.41496 0.62429 0.0
C2202 C 0.01643 0.37756 0.6216 0.0
C2203 C 0.00432 0.3598 0.60928 0.0
C2204 C 0.98675 0.43719 0.56357 0.0
C2205 C 0.99792 0.40777 0.59599 0.0
C2206 C 0.99049 0.4592 0.55219 0.0
C2207 C 0.00429 0.47659 0.56321 0.0
C2208 C 0.9973 0.4324 0.58593 0.0
C2209 C 0.01276 0.47193 0.58644 0.0
C2210 C 0.01318 0.40158 0.6151 0.0
C2211 C 0.98819 0.36679 0.59122 0.0
N2212 N 0.00953 0.45004 0.59687 0.0
N2213 N 0.98571 0.39024 0.58489 0.0
H2214 H 0.46288 0.24679 0.34567 0.0
H2215 H 0.35055 0.31886 0.28732 0.0
H2216 H 0.44251 0.31885 0.36625 0.0
H2217 H 0.35058 0.24207 0.29656 0.0
H2218 H 0.38882 0.31999 0.30928 0.0
H2219 H 0.42624 0.24557 0.32109 0.0
C2220 C 0.45081 0.26242 0.34491 0.0
C2221 C 0.45581 0.28295 0.35814 0.0
C2222 C 0.38055 0.30288 0.30631 0.0
C2223 C 0.41398 0.28178 0.32964 0.0
C2224 C 0.3588 0.30217 0.29357 0.0
C2225 C 0.34726 0.28031 0.28993 0.0
C2226 C 0.39129 0.28153 0.31515 0.0
C2227 C 0.35877 0.25933 0.29884 0.0
C2228 C 0.42985 0.26166 0.33093 0.0
C2229 C 0.43938 0.30262 0.35647 0.0
N2230 N 0.38012 0.26045 0.3109 0.0
N2231 N 0.41937 0.30161 0.3424 0.0
H2232 H 0.45165 0.52416 0.30571 0.0
H2233 H 0.50054 0.60676 0.40907 0.0
H2234 H 0.45502 0.60118 0.30021 0.0
H2235 H 0.50207 0.52947 0.41314 0.0
H2236 H 0.48666 0.60477 0.36794 0.0
H2237 H 0.47335 0.52535 0.34351 0.0
C2238 C 0.4573 0.54129 0.31228 0.0
C2239 C 0.45136 0.56263 0.29998 0.0
C2240 C 0.49015 0.58822 0.37777 0.0
C2241 C 0.47584 0.56417 0.34329 0.0
C2242 C 0.49817 0.58934 0.40129 0.0
C2243 C 0.50241 0.56825 0.41472 0.0
C2244 C 0.48617 0.56585 0.36754 0.0
C2245 C 0.49863 0.5462 0.40369 0.0
C2246 C 0.4696 0.54197 0.3339 0.0
C2247 C 0.45913 0.58432 0.30922 0.0
N2248 N 0.49062 0.54559 0.38077 0.0
N2249 N 0.47075 0.58456 0.33048 0.0
H2250 H 0.26009 0.75408 0.06997 0.0
H2251 H 0.28137 0.74604 0.21127 0.0
H2252 H 0.30522 0.69975 0.10389 0.0
H2253 H 0.25674 0.81143 0.17641 0.0
H2254 H 0.28547 0.7271 0.1721 0.0
H2255 H 0.25486 0.77421 0.10889 0.0
C2256 C 0.26904 0.74652 0.08556 0.0
C2257 C 0.2831 0.72525 0.0838 0.0
C2258 C 0.27919 0.74561 0.17299 0.0
C2259 C 0.2769 0.74785 0.12815 0.0
C2260 C 0.27688 0.75647 0.19536 0.0
C2261 C 0.2691 0.78051 0.19709 0.0
C2262 C 0.27349 0.75877 0.15214 0.0
C2263 C 0.26277 0.79287 0.1759 0.0
C2264 C 0.26601 0.75797 0.10771 0.0
C2265 C 0.29427 0.71614 0.10448 0.0
N2266 N 0.26521 0.78187 0.1542 0.0
N2267 N 0.29078 0.72741 0.12585 0.0
H2268 H 0.08856 0.48287 0.84554 0.0
H2269 H 0.09323 0.50518 0.98646 0.0
H2270 H 0.155 0.49567 0.88293 0.0
H2271 H 0.02667 0.49287 0.94896 0.0
H2272 H 0.11693 0.49493 0.94994 0.0
H2273 H 0.06646 0.47965 0.88433 0.0
C2274 C 0.09852 0.48478 0.86196 0.0
C2275 C 0.12348 0.48999 0.86114 0.0
C2276 C 0.09715 0.49421 0.94977 0.0
C2277 C 0.09841 0.48645 0.90543 0.0
C2278 C 0.08361 0.50011 0.97059 0.0
C2279 C 0.05795 0.50032 0.97055 0.0
C2280 C 0.08491 0.48869 0.92875 0.0
C2281 C 0.04643 0.49326 0.94965 0.0
C2282 C 0.08593 0.48289 0.88408 0.0
C2283 C 0.13565 0.49197 0.88285 0.0
N2284 N 0.06002 0.48802 0.92945 0.0
N2285 N 0.1229 0.4905 0.90417 0.0
H2286 H 0.24558 0.3633 0.59321 0.0
H2287 H 0.32911 0.30348 0.69434 0.0
H2288 H 0.32244 0.34835 0.57954 0.0
H2289 H 0.25222 0.2889 0.6904 0.0
H2290 H 0.32739 0.32426 0.65496 0.0
H2291 H 0.24781 0.34063 0.63141 0.0
C2292 C 0.26294 0.35525 0.59821 0.0
C2293 C 0.28382 0.35772 0.58296 0.0
C2294 C 0.31094 0.31641 0.66268 0.0
C2295 C 0.28662 0.332 0.62716 0.0
C2296 C 0.31189 0.30455 0.68521 0.0
C2297 C 0.29082 0.29422 0.6958 0.0
C2298 C 0.28861 0.31858 0.65077 0.0
C2299 C 0.269 0.29636 0.68299 0.0
C2300 C 0.26418 0.34224 0.62003 0.0
C2301 C 0.30582 0.34683 0.59056 0.0
N2302 N 0.26842 0.30844 0.66141 0.0
N2303 N 0.30669 0.33471 0.61214 0.0
H2304 H 0.46342 0.58053 0.18513 0.0
H2305 H 0.44239 0.52246 0.05892 0.0
H2306 H 0.39193 0.56251 0.1609 0.0
H2307 H 0.50363 0.56847 0.06866 0.0
H2308 H 0.42511 0.5349 0.0979 0.0
H2309 H 0.47996 0.57525 0.14379 0.0
C2310 C 0.45116 0.57583 0.17106 0.0
C2311 C 0.42633 0.57172 0.17643 0.0
C2312 C 0.44226 0.5424 0.09149 0.0
C2313 C 0.44512 0.5653 0.12954 0.0
C2314 C 0.45224 0.53515 0.06933 0.0
C2315 C 0.47455 0.54435 0.06067 0.0
C2316 C 0.45484 0.55865 0.10534 0.0
C2317 C 0.48639 0.56096 0.07478 0.0
C2318 C 0.4606 0.57283 0.14754 0.0
C2319 C 0.41121 0.56571 0.15758 0.0
N2320 N 0.47651 0.56742 0.09664 0.0
N2321 N 0.42092 0.56233 0.13505 0.0
H2322 H 0.30615 0.7497 0.96647 0.0
H2323 H 0.29403 0.72513 0.82591 0.0
H2324 H 0.27428 0.68685 0.93701 0.0
H2325 H 0.30262 0.79608 0.85413 0.0
H2326 H 0.29731 0.70863 0.86659 0.0
H2327 H 0.31356 0.76513 0.92526 0.0
C2328 C 0.30068 0.73922 0.95134 0.0
C2329 C 0.28935 0.71714 0.95504 0.0
C2330 C 0.29878 0.72779 0.86382 0.0
C2331 C 0.29825 0.73426 0.90826 0.0
C2332 C 0.29709 0.73721 0.84059 0.0
C2333 C 0.29756 0.76207 0.83673 0.0
C2334 C 0.30097 0.74331 0.88327 0.0
C2335 C 0.30182 0.77683 0.85639 0.0
C2336 C 0.30501 0.74794 0.92792 0.0
C2337 C 0.2828 0.7041 0.93493 0.0
N2338 N 0.30302 0.76724 0.87896 0.0
N2339 N 0.28737 0.71285 0.91238 0.0
H2340 H 0.1556 0.54111 0.71654 0.0
H2341 H 0.03956 0.52958 0.63673 0.0
H2342 H 0.0892 0.50883 0.74417 0.0
H2343 H 0.08939 0.58779 0.62646 0.0
H2344 H 0.05925 0.51878 0.67453 0.0
H2345 H 0.1337 0.55529 0.68102 0.0
C2346 C 0.13646 0.53692 0.71503 0.0
C2347 C 0.12414 0.52372 0.73313 0.0
C2348 C 0.0657 0.53408 0.66415 0.0
C2349 C 0.09918 0.53978 0.69286 0.0
C2350 C 0.05454 0.54016 0.64266 0.0
C2351 C 0.063 0.55952 0.62869 0.0
C2352 C 0.08576 0.54716 0.67133 0.0
C2353 C 0.08235 0.57285 0.63697 0.0
C2354 C 0.12396 0.54518 0.69494 0.0
C2355 C 0.09931 0.51895 0.73053 0.0
N2356 N 0.09339 0.56621 0.65769 0.0
N2357 N 0.08765 0.52682 0.71062 0.0
H2358 H 0.26977 0.33187 0.46309 0.0
H2359 H 0.27767 0.35204 0.31865 0.0
H2360 H 0.29018 0.39866 0.42911 0.0
H2361 H 0.26069 0.28444 0.353 0.0
H2362 H 0.28073 0.36987 0.35867 0.0
H2363 H 0.26536 0.31458 0.42304 0.0
C2364 C 0.27343 0.3429 0.44723 0.0
C2365 C 0.28046 0.3668 0.44965 0.0
C2366 C 0.27619 0.35117 0.35748 0.0
C2367 C 0.27521 0.34705 0.40335 0.0
C2368 C 0.27429 0.34098 0.33455 0.0
C2369 C 0.26877 0.31663 0.33223 0.0
C2370 C 0.27258 0.33702 0.37847 0.0
C2371 C 0.26488 0.30326 0.3537 0.0
C2372 C 0.27084 0.33301 0.42429 0.0
C2373 C 0.28481 0.38016 0.42827 0.0
N2374 N 0.26689 0.31356 0.37573 0.0
N2375 N 0.28211 0.37017 0.40616 0.0
H2376 H 0.36363 0.41973 0.54638 0.0
H2377 H 0.44215 0.52882 0.49253 0.0
H2378 H 0.333 0.4715 0.49683 0.0
H2379 H 0.46011 0.48953 0.55733 0.0
H2380 H 0.40332 0.50733 0.49165 0.0
H2381 H 0.40039 0.44376 0.5482 0.0
C2382 C 0.36461 0.43617 0.53585 0.0
C2383 C 0.34505 0.44354 0.52145 0.0
C2384 C 0.4157 0.50359 0.50616 0.0
C2385 C 0.38756 0.47129 0.52328 0.0
C2386 C 0.43789 0.51591 0.50671 0.0
C2387 C 0.45459 0.51115 0.52508 0.0
C2388 C 0.41024 0.48603 0.52387 0.0
C2389 C 0.44796 0.494 0.54283 0.0
C2390 C 0.38565 0.44997 0.53695 0.0
C2391 C 0.34753 0.46511 0.50824 0.0
N2392 N 0.42657 0.48202 0.54164 0.0
N2393 N 0.36839 0.47811 0.50934 0.0
H2394 H 0.81964 0.09391 0.54618 0.0
H2395 H 0.95797 0.09835 0.49563 0.0
H2396 H 0.8574 0.15941 0.52935 0.0
H2397 H 0.9214 0.0327 0.51492 0.0
H2398 H 0.92076 0.12089 0.50674 0.0
H2399 H 0.85692 0.0711 0.53541 0.0
C2400 C 0.83592 0.10349 0.54057 0.0
C2401 C 0.83549 0.12855 0.53857 0.0
C2402 C 0.9208 0.10155 0.5084 0.0
C2403 C 0.87795 0.10262 0.52579 0.0
C2404 C 0.94198 0.08863 0.50188 0.0
C2405 C 0.94278 0.0636 0.50443 0.0
C2406 C 0.90028 0.08936 0.51758 0.0
C2407 C 0.92156 0.05198 0.51264 0.0
C2408 C 0.85712 0.09047 0.53425 0.0
C2409 C 0.857 0.14009 0.53116 0.0
N2410 N 0.90118 0.065 0.51909 0.0
N2411 N 0.87735 0.127 0.52485 0.0
H2412 H 0.62984 0.09692 0.29805 0.0
H2413 H 0.75871 0.15718 0.30898 0.0
H2414 H 0.68762 0.06069 0.33654 0.0
H2415 H 0.71523 0.16427 0.24572 0.0
H2416 H 0.73079 0.12642 0.32501 0.0
H2417 H 0.65836 0.12803 0.28564 0.0
C2418 C 0.6484 0.09576 0.30432 0.0
C2419 C 0.65647 0.07611 0.31818 0.0
C2420 C 0.72756 0.1346 0.30754 0.0
C2421 C 0.68912 0.11153 0.30386 0.0
C2422 C 0.74342 0.15198 0.29841 0.0
C2423 C 0.73922 0.16298 0.27599 0.0
C2424 C 0.7071 0.12879 0.29437 0.0
C2425 C 0.71919 0.1559 0.26292 0.0
C2426 C 0.6647 0.11338 0.297 0.0
C2427 C 0.68074 0.07553 0.32577 0.0
N2428 N 0.70365 0.13942 0.27244 0.0
N2429 N 0.69634 0.09301 0.3184 0.0
H2430 H 0.68963 0.90778 0.01684 0.0
H2431 H 0.60514 0.01958 0.05949 0.0
H2432 H 0.7199 0.97086 0.04727 0.0
H2433 H 0.58314 0.96739 0.00824 0.0
H2434 H 0.64593 0.99995 0.06003 0.0
H2435 H 0.64911 0.92727 0.01843 0.0
C2436 C 0.68775 0.92573 0.02394 0.0
C2437 C 0.70826 0.93772 0.03185 0.0
C2438 C 0.63212 0.99284 0.04871 0.0
C2439 C 0.66168 0.96017 0.0339 0.0
C2440 C 0.60881 0.00395 0.04847 0.0
C2441 C 0.59066 0.99519 0.03375 0.0
C2442 C 0.63718 0.97257 0.03443 0.0
C2443 C 0.59653 0.9749 0.01979 0.0
C2444 C 0.66459 0.93688 0.02479 0.0
C2445 C 0.70463 0.96099 0.04088 0.0
N2446 N 0.61914 0.96429 0.02055 0.0
N2447 N 0.6818 0.97143 0.04173 0.0
H2448 H 0.34056 0.50371 0.274 0.0
H2449 H 0.32163 0.38729 0.19644 0.0
H2450 H 0.38814 0.48465 0.2133 0.0
H2451 H 0.29858 0.39176 0.27138 0.0
H2452 H 0.34146 0.426 0.19959 0.0
H2453 H 0.32033 0.46524 0.27079 0.0
C2454 C 0.34672 0.4914 0.26002 0.0
C2455 C 0.36603 0.49721 0.24391 0.0
C2456 C 0.33207 0.41846 0.21533 0.0
C2457 C 0.34291 0.4536 0.24 0.0
C2458 C 0.32065 0.39655 0.21349 0.0
C2459 C 0.30857 0.38645 0.2337 0.0
C2460 C 0.331 0.43044 0.23743 0.0
C2461 C 0.30797 0.39893 0.25548 0.0
C2462 C 0.33525 0.46951 0.25825 0.0
C2463 C 0.37337 0.48072 0.22613 0.0
N2464 N 0.31894 0.4204 0.25677 0.0
N2465 N 0.36167 0.45966 0.22453 0.0
H2466 H 0.23963 0.62201 0.06496 0.0
H2467 H 0.10236 0.59521 0.03004 0.0
H2468 H 0.19794 0.66577 0.01557 0.0
H2469 H 0.14347 0.55156 0.07997 0.0
H2470 H 0.13685 0.62188 0.02544 0.0
H2471 H 0.20407 0.5969 0.07206 0.0
C2472 C 0.22292 0.6264 0.05572 0.0
C2473 C 0.22169 0.6459 0.03958 0.0
C2474 C 0.13836 0.60648 0.03742 0.0
C2475 C 0.18105 0.61724 0.0475 0.0
C2476 C 0.11873 0.59112 0.0399 0.0
C2477 C 0.12016 0.57099 0.05525 0.0
C2478 C 0.15961 0.60169 0.05035 0.0
C2479 C 0.1416 0.56694 0.06806 0.0
C2480 C 0.20265 0.61206 0.05976 0.0
C2481 C 0.19964 0.65085 0.02812 0.0
N2482 N 0.16055 0.58212 0.06525 0.0
N2483 N 0.18018 0.63652 0.03222 0.0
H2484 H 0.64211 0.93773 0.28668 0.0
H2485 H 0.76482 0.87138 0.32066 0.0
H2486 H 0.68468 0.9647 0.34423 0.0
H2487 H 0.70187 0.83443 0.29594 0.0
H2488 H 0.73871 0.9073 0.32718 0.0
H2489 H 0.66729 0.90122 0.28644 0.0
C2490 C 0.65682 0.93593 0.29927 0.0
C2491 C 0.66141 0.95415 0.3155 0.0
C2492 C 0.73071 0.89115 0.32065 0.0
C2493 C 0.69033 0.91253 0.31523 0.0
C2494 C 0.74553 0.87073 0.31688 0.0
C2495 C 0.73554 0.84999 0.30752 0.0
C2496 C 0.70599 0.89076 0.31458 0.0
C2497 C 0.71043 0.85004 0.30301 0.0
C2498 C 0.67106 0.91505 0.29923 0.0
C2499 C 0.6806 0.95092 0.33151 0.0
N2500 N 0.69661 0.87021 0.30628 0.0
N2501 N 0.69464 0.93048 0.33083 0.0
H2502 H 0.83635 0.12712 0.72784 0.0
H2503 H 0.77438 0.22897 0.76387 0.0
H2504 H 0.84344 0.10973 0.8034 0.0
H2505 H 0.81584 0.21844 0.82833 0.0
H2506 H 0.78119 0.1868 0.7543 0.0
H2507 H 0.81166 0.16239 0.73888 0.0
C2508 C 0.83222 0.13047 0.74675 0.0
C2509 C 0.84221 0.11576 0.76474 0.0
C2510 C 0.78873 0.19369 0.77057 0.0
C2511 C 0.81365 0.15584 0.77761 0.0
C2512 C 0.7846 0.21771 0.77622 0.0
C2513 C 0.79522 0.22737 0.79656 0.0
C2514 C 0.80372 0.1794 0.78529 0.0
C2515 C 0.8078 0.21185 0.81217 0.0
C2516 C 0.81785 0.1505 0.75309 0.0
C2517 C 0.83628 0.12081 0.78897 0.0
N2518 N 0.81205 0.18867 0.80599 0.0
N2519 N 0.82277 0.14072 0.79471 0.0
loop_
_geom_bond_atom_site_label_1
_geom_bond_atom_site_label_2
_geom_bond_distance
_geom_bond_site_symmetry_2
_ccdc_geom_bond_type
In0 O1 2.294 . S
In0 O2 2.326 . S
In0 O6 2.266 . S
In0 O7 2.326 . S
In0 O8 2.266 . S
In0 O9 2.326 . S
In0 O11 2.294 1_455 S
In0 O12 2.326 1_455 S
O1 In0 2.294 . S
O1 C10 1.240 . S
O2 In0 2.326 . S
O2 C10 1.252 . S
C3 O6 1.252 . S
C3 O7 1.260 . S
C4 O11 1.240 . S
C4 O12 1.252 . S
C5 O8 1.252 . S
C5 O9 1.260 . S
O6 In0 2.266 . S
O6 C3 1.252 . S
O7 In0 2.326 . S
O7 C3 1.260 . S
O8 In0 2.266 . S
O8 C5 1.252 . S
O9 In0 2.326 . S
O9 C5 1.260 . S
C10 O1 1.240 . S
C10 O2 1.252 . S
O11 In0 2.294 1_655 S
O11 C4 1.240 . S
O12 In0 2.326 1_655 S
O12 C4 1.252 . S
In13 O14 2.294 . S
In13 O15 2.326 . S
In13 O19 2.266 . S
In13 O20 2.326 . S
In13 O21 2.266 . S
In13 O22 2.326 . S
In13 O24 2.294 . S
In13 O25 2.326 . S
O14 In13 2.294 . S
O14 C23 1.240 . S
O15 In13 2.326 . S
O15 C23 1.252 . S
C16 O19 1.252 . S
C16 O20 1.260 . S
C17 O24 1.240 . S
C17 O25 1.252 . S
C18 O21 1.252 . S
C18 O22 1.260 . S
O19 In13 2.266 . S
O19 C16 1.252 . S
O20 In13 2.326 . S
O20 C16 1.260 . S
O21 In13 2.266 . S
O21 C18 1.252 . S
O22 In13 2.326 . S
O22 C18 1.260 . S
C23 O14 1.240 . S
C23 O15 1.252 . S
O24 In13 2.294 . S
O24 C17 1.240 . S
O25 In13 2.326 . S
O25 C17 1.252 . S
In26 O27 2.294 . S
In26 O28 2.326 . S
In26 O32 2.266 . S
In26 O33 2.326 . S
In26 O34 2.266 . S
In26 O35 2.326 . S
In26 O37 2.294 . S
In26 O38 2.326 . S
O27 In26 2.294 . S
O27 C36 1.240 . S
O28 In26 2.326 . S
O28 C36 1.252 . S
C29 O32 1.252 . S
C29 O33 1.260 . S
C30 O37 1.240 . S
C30 O38 1.252 . S
C31 O34 1.252 . S
C31 O35 1.260 . S
O32 In26 2.266 . S
O32 C29 1.252 . S
O33 In26 2.326 . S
O33 C29 1.260 . S
O34 In26 2.266 . S
O34 C31 1.252 . S
O35 In26 2.326 . S
O35 C31 1.260 . S
C36 O27 1.240 . S
C36 O28 1.252 . S
O37 In26 2.294 . S
O37 C30 1.240 . S
O38 In26 2.326 . S
O38 C30 1.252 . S
In39 O40 2.294 . S
In39 O41 2.326 . S
In39 O45 2.266 . S
In39 O46 2.326 . S
In39 O47 2.266 . S
In39 O48 2.326 . S
In39 O50 2.294 . S
In39 O51 2.326 . S
O40 In39 2.294 . S
O40 C49 1.240 . S
O41 In39 2.326 . S
O41 C49 1.252 . S
C42 O45 1.252 . S
C42 O46 1.260 . S
C43 O50 1.240 . S
C43 O51 1.252 . S
C44 O47 1.252 . S
C44 O48 1.260 . S
O45 In39 2.266 . S
O45 C42 1.252 . S
O46 In39 2.326 . S
O46 C42 1.260 . S
O47 In39 2.266 . S
O47 C44 1.252 . S
O48 In39 2.326 . S
O48 C44 1.260 . S
C49 O40 1.240 . S
C49 O41 1.252 . S
O50 In39 2.294 . S
O50 C43 1.240 . S
O51 In39 2.326 . S
O51 C43 1.252 . S
In52 O53 2.294 1_545 S
In52 O54 2.326 1_545 S
In52 O58 2.266 . S
In52 O59 2.326 . S
In52 O60 2.266 . S
In52 O61 2.326 . S
In52 O63 2.294 . S
In52 O64 2.326 . S
O53 In52 2.294 1_565 S
O53 C62 1.240 . S
O54 In52 2.326 1_565 S
O54 C62 1.252 . S
C55 O58 1.252 . S
C55 O59 1.260 . S
C56 O63 1.240 . S
C56 O64 1.252 . S
C57 O60 1.252 . S
C57 O61 1.260 . S
O58 In52 2.266 . S
O58 C55 1.252 . S
O59 In52 2.326 . S
O59 C55 1.260 . S
O60 In52 2.266 . S
O60 C57 1.252 . S
O61 In52 2.326 . S
O61 C57 1.260 . S
C62 O53 1.240 . S
C62 O54 1.252 . S
O63 In52 2.294 . S
O63 C56 1.240 . S
O64 In52 2.326 . S
O64 C56 1.252 . S
In65 O66 2.294 . S
In65 O67 2.326 . S
In65 O71 2.266 . S
In65 O72 2.326 . S
In65 O73 2.266 . S
In65 O74 2.326 . S
In65 O76 2.294 . S
In65 O77 2.326 . S
O66 In65 2.294 . S
O66 C75 1.240 . S
O67 In65 2.326 . S
O67 C75 1.252 . S
C68 O71 1.252 . S
C68 O72 1.260 . S
C69 O76 1.240 . S
C69 O77 1.252 . S
C70 O73 1.252 . S
C70 O74 1.260 . S
O71 In65 2.266 . S
O71 C68 1.252 . S
O72 In65 2.326 . S
O72 C68 1.260 . S
O73 In65 2.266 . S
O73 C70 1.252 . S
O74 In65 2.326 . S
O74 C70 1.260 . S
C75 O66 1.240 . S
C75 O67 1.252 . S
O76 In65 2.294 . S
O76 C69 1.240 . S
O77 In65 2.326 . S
O77 C69 1.252 . S
In78 O79 2.294 . S
In78 O80 2.326 . S
In78 O84 2.266 . S
In78 O85 2.326 . S
In78 O86 2.266 . S
In78 O87 2.326 . S
In78 O89 2.294 . S
In78 O90 2.326 . S
O79 In78 2.294 . S
O79 C88 1.240 . S
O80 In78 2.326 . S
O80 C88 1.252 . S
C81 O84 1.252 . S
C81 O85 1.260 . S
C82 O89 1.240 . S
C82 O90 1.252 . S
C83 O86 1.252 . S
C83 O87 1.260 . S
O84 In78 2.266 . S
O84 C81 1.252 . S
O85 In78 2.326 . S
O85 C81 1.260 . S
O86 In78 2.266 . S
O86 C83 1.252 . S
O87 In78 2.326 . S
O87 C83 1.260 . S
C88 O79 1.240 . S
C88 O80 1.252 . S
O89 In78 2.294 . S
O89 C82 1.240 . S
O90 In78 2.326 . S
O90 C82 1.252 . S
In91 O92 2.294 . S
In91 O93 2.326 . S
In91 O97 2.266 . S
In91 O98 2.326 . S
In91 O99 2.266 . S
In91 O100 2.326 1_554 S
In91 O102 2.294 . S
In91 O103 2.326 . S
O92 In91 2.294 . S
O92 C101 1.240 . S
O93 In91 2.326 . S
O93 C101 1.252 . S
C94 O97 1.252 . S
C94 O98 1.260 . S
C95 O102 1.240 . S
C95 O103 1.252 . S
C96 O99 1.252 1_556 S
C96 O100 1.260 . S
O97 In91 2.266 . S
O97 C94 1.252 . S
O98 In91 2.326 . S
O98 C94 1.260 . S
O99 In91 2.266 . S
O99 C96 1.252 1_554 S
O100 In91 2.326 1_556 S
O100 C96 1.260 . S
C101 O92 1.240 . S
C101 O93 1.252 . S
O102 In91 2.294 . S
O102 C95 1.240 . S
O103 In91 2.326 . S
O103 C95 1.252 . S
In104 O105 2.294 . S
In104 O106 2.326 . S
In104 O110 2.266 . S
In104 O111 2.326 . S
In104 O112 2.266 . S
In104 O113 2.326 . S
In104 O115 2.294 . S
In104 O116 2.326 . S
O105 In104 2.294 . S
O105 C114 1.240 . S
O106 In104 2.326 . S
O106 C114 1.252 . S
C107 O110 1.252 . S
C107 O111 1.260 . S
C108 O115 1.240 . S
C108 O116 1.252 . S
C109 O112 1.252 . S
C109 O113 1.260 . S
O110 In104 2.266 . S
O110 C107 1.252 . S
O111 In104 2.326 . S
O111 C107 1.260 . S
O112 In104 2.266 . S
O112 C109 1.252 . S
O113 In104 2.326 . S
O113 C109 1.260 . S
C114 O105 1.240 . S
C114 O106 1.252 . S
O115 In104 2.294 . S
O115 C108 1.240 . S
O116 In104 2.326 . S
O116 C108 1.252 . S
In117 O118 2.294 . S
In117 O119 2.326 . S
In117 O123 2.266 . S
In117 O124 2.326 . S
In117 O125 2.266 . S
In117 O126 2.326 . S
In117 O128 2.294 . S
In117 O129 2.326 . S
O118 In117 2.294 . S
O118 C127 1.240 . S
O119 In117 2.326 . S
O119 C127 1.252 . S
C120 O123 1.252 . S
C120 O124 1.260 . S
C121 O128 1.240 . S
C121 O129 1.252 . S
C122 O125 1.252 . S
C122 O126 1.260 . S
O123 In117 2.266 . S
O123 C120 1.252 . S
O124 In117 2.326 . S
O124 C120 1.260 . S
O125 In117 2.266 . S
O125 C122 1.252 . S
O126 In117 2.326 . S
O126 C122 1.260 . S
C127 O118 1.240 . S
C127 O119 1.252 . S
O128 In117 2.294 . S
O128 C121 1.240 . S
O129 In117 2.326 . S
O129 C121 1.252 . S
In130 O131 2.294 . S
In130 O132 2.326 . S
In130 O136 2.266 . S
In130 O137 2.326 . S
In130 O138 2.266 . S
In130 O139 2.326 . S
In130 O141 2.294 . S
In130 O142 2.326 . S
O131 In130 2.294 . S
O131 C140 1.240 . S
O132 In130 2.326 . S
O132 C140 1.252 . S
C133 O136 1.252 . S
C133 O137 1.260 . S
C134 O141 1.240 . S
C134 O142 1.252 . S
C135 O138 1.252 . S
C135 O139 1.260 . S
O136 In130 2.266 . S
O136 C133 1.252 . S
O137 In130 2.326 . S
O137 C133 1.260 . S
O138 In130 2.266 . S
O138 C135 1.252 . S
O139 In130 2.326 . S
O139 C135 1.260 . S
C140 O131 1.240 . S
C140 O132 1.252 . S
O141 In130 2.294 . S
O141 C134 1.240 . S
O142 In130 2.326 . S
O142 C134 1.252 . S
In143 O144 2.294 . S
In143 O145 2.326 . S
In143 O149 2.266 . S
In143 O150 2.326 . S
In143 O151 2.266 . S
In143 O152 2.326 . S
In143 O154 2.294 . S
In143 O155 2.326 . S
O144 In143 2.294 . S
O144 C153 1.240 . S
O145 In143 2.326 . S
O145 C153 1.252 . S
C146 O149 1.252 . S
C146 O150 1.260 . S
C147 O154 1.240 . S
C147 O155 1.252 . S
C148 O151 1.252 . S
C148 O152 1.260 . S
O149 In143 2.266 . S
O149 C146 1.252 . S
O150 In143 2.326 . S
O150 C146 1.260 . S
O151 In143 2.266 . S
O151 C148 1.252 . S
O152 In143 2.326 . S
O152 C148 1.260 . S
C153 O144 1.240 . S
C153 O145 1.252 . S
O154 In143 2.294 . S
O154 C147 1.240 . S
O155 In143 2.326 . S
O155 C147 1.252 . S
In156 O157 2.294 . S
In156 O158 2.326 . S
In156 O162 2.266 1_455 S
In156 O163 2.326 1_455 S
In156 O164 2.266 . S
In156 O165 2.326 . S
In156 O167 2.294 . S
In156 O168 2.326 . S
O157 In156 2.294 . S
O157 C166 1.240 . S
O158 In156 2.326 . S
O158 C166 1.252 . S
C159 O162 1.252 . S
C159 O163 1.260 . S
C160 O167 1.240 . S
C160 O168 1.252 . S
C161 O164 1.252 . S
C161 O165 1.260 . S
O162 In156 2.266 1_655 S
O162 C159 1.252 . S
O163 In156 2.326 1_655 S
O163 C159 1.260 . S
O164 In156 2.266 . S
O164 C161 1.252 . S
O165 In156 2.326 . S
O165 C161 1.260 . S
C166 O157 1.240 . S
C166 O158 1.252 . S
O167 In156 2.294 . S
O167 C160 1.240 . S
O168 In156 2.326 . S
O168 C160 1.252 . S
In169 O170 2.294 . S
In169 O171 2.327 . S
In169 O175 2.266 1_455 S
In169 O176 2.325 1_455 S
In169 O177 2.264 1_455 S
In169 O178 2.322 1_455 S
In169 O180 2.296 . S
In169 O181 2.329 . S
O170 In169 2.294 . S
O170 C179 1.240 . S
O171 In169 2.327 . S
O171 C179 1.252 . S
C172 O175 1.252 . S
C172 O176 1.260 . S
C173 O180 1.240 . S
C173 O181 1.252 . S
C174 O177 1.252 . S
C174 O178 1.260 . S
O175 In169 2.266 1_655 S
O175 C172 1.252 . S
O176 In169 2.325 1_655 S
O176 C172 1.260 . S
O177 In169 2.264 1_655 S
O177 C174 1.252 . S
O178 In169 2.322 1_655 S
O178 C174 1.260 . S
C179 O170 1.240 . S
C179 O171 1.252 . S
O180 In169 2.296 . S
O180 C173 1.240 . S
O181 In169 2.329 . S
O181 C173 1.252 . S
In182 O183 2.294 . S
In182 O184 2.326 . S
In182 O188 2.266 . S
In182 O189 2.326 . S
In182 O190 2.266 . S
In182 O191 2.326 . S
In182 O193 2.294 . S
In182 O194 2.326 . S
O183 In182 2.294 . S
O183 C192 1.240 . S
O184 In182 2.326 . S
O184 C192 1.252 . S
C185 O188 1.252 . S
C185 O189 1.260 . S
C186 O193 1.240 . S
C186 O194 1.252 . S
C187 O190 1.252 . S
C187 O191 1.260 . S
O188 In182 2.266 . S
O188 C185 1.252 . S
O189 In182 2.326 . S
O189 C185 1.260 . S
O190 In182 2.266 . S
O190 C187 1.252 . S
O191 In182 2.326 . S
O191 C187 1.260 . S
C192 O183 1.240 . S
C192 O184 1.252 . S
O193 In182 2.294 . S
O193 C186 1.240 . S
O194 In182 2.326 . S
O194 C186 1.252 . S
In195 O196 2.294 . S
In195 O197 2.326 . S
In195 O201 2.266 . S
In195 O202 2.326 . S
In195 O203 2.266 . S
In195 O204 2.326 . S
In195 O206 2.294 . S
In195 O207 2.326 . S
O196 In195 2.294 . S
O196 C205 1.240 . S
O197 In195 2.326 . S
O197 C205 1.252 . S
C198 O201 1.252 . S
C198 O202 1.260 . S
C199 O206 1.240 . S
C199 O207 1.252 . S
C200 O203 1.252 . S
C200 O204 1.260 . S
O201 In195 2.266 . S
O201 C198 1.252 . S
O202 In195 2.326 . S
O202 C198 1.260 . S
O203 In195 2.266 . S
O203 C200 1.252 . S
O204 In195 2.326 . S
O204 C200 1.260 . S
C205 O196 1.240 . S
C205 O197 1.252 . S
O206 In195 2.294 . S
O206 C199 1.240 . S
O207 In195 2.326 . S
O207 C199 1.252 . S
In208 O209 2.294 . S
In208 O210 2.326 . S
In208 O214 2.266 . S
In208 O215 2.326 . S
In208 O216 2.266 . S
In208 O217 2.326 . S
In208 O219 2.294 . S
In208 O220 2.326 . S
O209 In208 2.294 . S
O209 C218 1.240 . S
O210 In208 2.326 . S
O210 C218 1.252 . S
C211 O214 1.252 . S
C211 O215 1.260 . S
C212 O219 1.240 . S
C212 O220 1.252 . S
C213 O216 1.252 . S
C213 O217 1.260 . S
O214 In208 2.266 . S
O214 C211 1.252 . S
O215 In208 2.326 . S
O215 C211 1.260 . S
O216 In208 2.266 . S
O216 C213 1.252 . S
O217 In208 2.326 . S
O217 C213 1.260 . S
C218 O209 1.240 . S
C218 O210 1.252 . S
O219 In208 2.294 . S
O219 C212 1.240 . S
O220 In208 2.326 . S
O220 C212 1.252 . S
In221 O222 2.294 . S
In221 O223 2.326 . S
In221 O227 2.266 . S
In221 O228 2.326 . S
In221 O229 2.266 . S
In221 O230 2.326 . S
In221 O232 2.294 . S
In221 O233 2.326 . S
O222 In221 2.294 . S
O222 C231 1.240 . S
O223 In221 2.326 . S
O223 C231 1.252 . S
C224 O227 1.252 . S
C224 O228 1.260 . S
C225 O232 1.240 . S
C225 O233 1.252 . S
C226 O229 1.252 . S
C226 O230 1.260 . S
O227 In221 2.266 . S
O227 C224 1.252 . S
O228 In221 2.326 . S
O228 C224 1.260 . S
O229 In221 2.266 . S
O229 C226 1.252 . S
O230 In221 2.326 . S
O230 C226 1.260 . S
C231 O222 1.240 . S
C231 O223 1.252 . S
O232 In221 2.294 . S
O232 C225 1.240 . S
O233 In221 2.326 . S
O233 C225 1.252 . S
In234 O235 2.294 1_545 S
In234 O236 2.326 1_545 S
In234 O240 2.266 . S
In234 O241 2.326 . S
In234 O242 2.266 . S
In234 O243 2.326 . S
In234 O245 2.294 . S
In234 O246 2.326 . S
O235 In234 2.294 1_565 S
O235 C244 1.240 . S
O236 In234 2.326 1_565 S
O236 C244 1.252 . S
C237 O240 1.252 . S
C237 O241 1.260 . S
C238 O245 1.240 . S
C238 O246 1.252 . S
C239 O242 1.252 . S
C239 O243 1.260 . S
O240 In234 2.266 . S
O240 C237 1.252 . S
O241 In234 2.326 . S
O241 C237 1.260 . S
O242 In234 2.266 . S
O242 C239 1.252 . S
O243 In234 2.326 . S
O243 C239 1.260 . S
C244 O235 1.240 . S
C244 O236 1.252 . S
O245 In234 2.294 . S
O245 C238 1.240 . S
O246 In234 2.326 . S
O246 C238 1.252 . S
In247 O248 2.294 . S
In247 O249 2.326 . S
In247 O253 2.266 . S
In247 O254 2.326 . S
In247 O255 2.266 1_554 S
In247 O256 2.326 1_554 S
In247 O258 2.294 . S
In247 O259 2.326 . S
O248 In247 2.294 . S
O248 C257 1.240 . S
O249 In247 2.326 . S
O249 C257 1.252 . S
C250 O253 1.252 . S
C250 O254 1.260 . S
C251 O258 1.240 . S
C251 O259 1.252 . S
C252 O255 1.252 . S
C252 O256 1.260 . S
O253 In247 2.266 . S
O253 C250 1.252 . S
O254 In247 2.326 . S
O254 C250 1.260 . S
O255 In247 2.266 1_556 S
O255 C252 1.252 . S
O256 In247 2.326 1_556 S
O256 C252 1.260 . S
C257 O248 1.240 . S
C257 O249 1.252 . S
O258 In247 2.294 . S
O258 C251 1.240 . S
O259 In247 2.326 . S
O259 C251 1.252 . S
In260 O261 2.296 . S
In260 O262 2.329 . S
In260 O266 2.264 1_554 S
In260 O267 2.322 1_554 S
In260 O268 2.266 1_554 S
In260 O269 2.325 1_554 S
In260 O271 2.294 . S
In260 O272 2.327 . S
O261 In260 2.296 . S
O261 C270 1.240 . S
O262 In260 2.329 . S
O262 C270 1.252 . S
C263 O266 1.252 . S
C263 O267 1.260 . S
C264 O271 1.240 . S
C264 O272 1.252 . S
C265 O268 1.252 . S
C265 O269 1.260 . S
O266 In260 2.264 1_556 S
O266 C263 1.252 . S
O267 In260 2.322 1_556 S
O267 C263 1.260 . S
O268 In260 2.266 1_556 S
O268 C265 1.252 . S
O269 In260 2.325 1_556 S
O269 C265 1.260 . S
C270 O261 1.240 . S
C270 O262 1.252 . S
O271 In260 2.294 . S
O271 C264 1.240 . S
O272 In260 2.327 . S
O272 C264 1.252 . S
In273 O274 2.294 . S
In273 O275 2.326 . S
In273 O279 2.266 . S
In273 O280 2.326 . S
In273 O281 2.266 . S
In273 O282 2.326 . S
In273 O284 2.294 . S
In273 O285 2.326 . S
O274 In273 2.294 . S
O274 C283 1.240 . S
O275 In273 2.326 . S
O275 C283 1.252 . S
C276 O279 1.252 . S
C276 O280 1.260 . S
C277 O284 1.240 . S
C277 O285 1.252 . S
C278 O281 1.252 . S
C278 O282 1.260 . S
O279 In273 2.266 . S
O279 C276 1.252 . S
O280 In273 2.326 . S
O280 C276 1.260 . S
O281 In273 2.266 . S
O281 C278 1.252 . S
O282 In273 2.326 . S
O282 C278 1.260 . S
C283 O274 1.240 . S
C283 O275 1.252 . S
O284 In273 2.294 . S
O284 C277 1.240 . S
O285 In273 2.326 . S
O285 C277 1.252 . S
In286 O287 2.294 . S
In286 O288 2.326 . S
In286 O292 2.266 . S
In286 O293 2.326 . S
In286 O294 2.266 . S
In286 O295 2.326 . S
In286 O297 2.294 . S
In286 O298 2.326 . S
O287 In286 2.294 . S
O287 C296 1.240 . S
O288 In286 2.326 . S
O288 C296 1.252 . S
C289 O292 1.252 . S
C289 O293 1.260 . S
C290 O297 1.240 . S
C290 O298 1.252 . S
C291 O294 1.252 . S
C291 O295 1.260 . S
O292 In286 2.266 . S
O292 C289 1.252 . S
O293 In286 2.326 . S
O293 C289 1.260 . S
O294 In286 2.266 . S
O294 C291 1.252 . S
O295 In286 2.326 . S
O295 C291 1.260 . S
C296 O287 1.240 . S
C296 O288 1.252 . S
O297 In286 2.294 . S
O297 C290 1.240 . S
O298 In286 2.326 . S
O298 C290 1.252 . S
In299 O300 2.294 . S
In299 O301 2.326 . S
In299 O305 2.266 . S
In299 O306 2.326 . S
In299 O307 2.266 . S
In299 O308 2.326 . S
In299 O310 2.294 . S
In299 O311 2.326 . S
O300 In299 2.294 . S
O300 C309 1.240 . S
O301 In299 2.326 . S
O301 C309 1.252 . S
C302 O305 1.252 . S
C302 O306 1.260 . S
C303 O310 1.240 . S
C303 O311 1.252 . S
C304 O307 1.252 . S
C304 O308 1.260 . S
O305 In299 2.266 . S
O305 C302 1.252 . S
O306 In299 2.326 . S
O306 C302 1.260 . S
O307 In299 2.266 . S
O307 C304 1.252 . S
O308 In299 2.326 . S
O308 C304 1.260 . S
C309 O300 1.240 . S
C309 O301 1.252 . S
O310 In299 2.294 . S
O310 C303 1.240 . S
O311 In299 2.326 . S
O311 C303 1.252 . S
Co312 N317 2.057 . S
Co312 O329 2.021 1_545 S
Co312 O332 2.062 1_456 S
Co312 O336 2.117 1_556 S
Co312 O337 2.020 . S
C313 O333 1.259 . S
C313 O336 1.258 . S
Co314 N323 2.057 . S
Co314 O330 2.117 1_545 S
Co314 O331 2.020 1_455 S
Co314 O333 2.021 . S
Co314 O338 2.062 . S
C315 N317 1.316 1_655 S
C315 N318 1.347 . S
C315 H320 0.933 . S
C316 N317 1.375 1_655 S
C316 C319 1.350 . S
C316 H321 0.930 . S
N317 Co312 2.057 . S
N317 C315 1.316 1_455 S
N317 C316 1.375 1_455 S
N318 C315 1.347 . S
N318 C319 1.373 . S
C319 C316 1.350 . S
C319 N318 1.373 . S
C319 H340 0.931 . S
H320 C315 0.933 . S
H321 C316 0.930 . S
C322 O329 1.259 1_554 S
C322 O330 1.258 . S
N323 Co314 2.057 . S
N323 C324 1.316 . S
N323 C325 1.375 1_545 S
C324 N323 1.316 . S
C324 N326 1.347 1_545 S
C324 H335 0.931 . S
C325 N323 1.375 1_565 S
C325 C327 1.350 . S
C325 H334 0.930 . S
N326 C324 1.347 1_565 S
N326 C327 1.373 . S
C327 C325 1.350 . S
C327 N326 1.373 . S
C327 H341 0.931 . S
C328 O331 1.256 . S
C328 O332 1.255 . S
O329 Co312 2.021 1_565 S
O329 C322 1.259 1_556 S
O330 Co314 2.117 1_565 S
O330 C322 1.258 . S
O331 Co314 2.020 1_655 S
O331 C328 1.256 . S
O332 Co312 2.062 1_654 S
O332 C328 1.255 . S
O333 C313 1.259 . S
O333 Co314 2.021 . S
H334 C325 0.930 . S
H335 C324 0.931 . S
O336 Co312 2.117 1_554 S
O336 C313 1.258 . S
O337 Co312 2.020 . S
O337 C339 1.256 1_556 S
O338 Co314 2.062 . S
O338 C339 1.255 . S
C339 O337 1.256 1_554 S
C339 O338 1.255 . S
H340 C319 0.931 . S
H341 C327 0.931 . S
Co342 N347 2.057 . S
Co342 O359 2.021 . S
Co342 O362 2.062 . S
Co342 O366 2.117 . S
Co342 O367 2.020 . S
C343 O363 1.259 . S
C343 O366 1.258 . S
Co344 N353 2.057 . S
Co344 O360 2.117 . S
Co344 O361 2.020 . S
Co344 O363 2.021 . S
Co344 O368 2.062 . S
C345 N347 1.316 . S
C345 N348 1.347 . S
C345 H350 0.931 . S
C346 N347 1.375 . S
C346 C349 1.350 . S
C346 H351 0.930 . S
N347 Co342 2.057 . S
N347 C345 1.316 . S
N347 C346 1.375 . S
N348 C345 1.347 . S
N348 C349 1.373 . S
C349 C346 1.350 . S
C349 N348 1.373 . S
C349 H370 0.931 . S
H350 C345 0.931 . S
H351 C346 0.930 . S
C352 O359 1.259 . S
C352 O360 1.258 . S
N353 Co344 2.057 . S
N353 C354 1.316 . S
N353 C355 1.375 . S
C354 N353 1.316 . S
C354 N356 1.347 . S
C354 H365 0.931 . S
C355 N353 1.375 . S
C355 C357 1.350 . S
C355 H364 0.930 . S
N356 C354 1.347 . S
N356 C357 1.373 . S
C357 C355 1.350 . S
C357 N356 1.373 . S
C357 H371 0.931 . S
C358 O361 1.256 . S
C358 O362 1.255 . S
O359 Co342 2.021 . S
O359 C352 1.259 . S
O360 Co344 2.117 . S
O360 C352 1.258 . S
O361 Co344 2.020 . S
O361 C358 1.256 . S
O362 Co342 2.062 . S
O362 C358 1.255 . S
O363 C343 1.259 . S
O363 Co344 2.021 . S
H364 C355 0.930 . S
H365 C354 0.931 . S
O366 Co342 2.117 . S
O366 C343 1.258 . S
O367 Co342 2.020 . S
O367 C369 1.256 . S
O368 Co344 2.062 . S
O368 C369 1.255 . S
C369 O367 1.256 . S
C369 O368 1.255 . S
H370 C349 0.931 . S
H371 C357 0.931 . S
Co372 N377 2.057 . S
Co372 O389 2.021 1_545 S
Co372 O392 2.062 . S
Co372 O396 2.117 . S
Co372 O397 2.020 . S
C373 O393 1.259 . S
C373 O396 1.258 . S
Co374 N383 2.057 . S
Co374 O390 2.117 . S
Co374 O391 2.020 . S
Co374 O393 2.021 . S
Co374 O398 2.062 . S
C375 N377 1.316 . S
C375 N378 1.347 . S
C375 H380 0.931 1_545 S
C376 N377 1.375 . S
C376 C379 1.350 . S
C376 H381 0.930 . S
N377 Co372 2.057 . S
N377 C375 1.316 . S
N377 C376 1.375 . S
N378 C375 1.347 . S
N378 C379 1.373 . S
C379 C376 1.350 . S
C379 N378 1.373 . S
C379 H400 0.931 . S
H380 C375 0.931 1_565 S
H381 C376 0.930 . S
C382 O389 1.259 . S
C382 O390 1.258 1_565 S
N383 Co374 2.057 . S
N383 C384 1.316 . S
N383 C385 1.375 . S
C384 N383 1.316 . S
C384 N386 1.347 . S
C384 H395 0.931 . S
C385 N383 1.375 . S
C385 C387 1.350 . S
C385 H394 0.930 . S
N386 C384 1.347 . S
N386 C387 1.373 . S
C387 C385 1.350 . S
C387 N386 1.373 . S
C387 H401 0.931 . S
C388 O391 1.256 . S
C388 O392 1.255 . S
O389 Co372 2.021 1_565 S
O389 C382 1.259 . S
O390 Co374 2.117 . S
O390 C382 1.258 1_545 S
O391 Co374 2.020 . S
O391 C388 1.256 . S
O392 Co372 2.062 . S
O392 C388 1.255 . S
O393 C373 1.259 . S
O393 Co374 2.021 . S
H394 C385 0.930 . S
H395 C384 0.931 . S
O396 Co372 2.117 . S
O396 C373 1.258 . S
O397 Co372 2.020 . S
O397 C399 1.256 . S
O398 Co374 2.062 . S
O398 C399 1.255 . S
C399 O397 1.256 . S
C399 O398 1.255 . S
H400 C379 0.931 . S
H401 C387 0.931 . S
Co402 N407 2.057 . S
Co402 O419 2.021 . S
Co402 O422 2.062 . S
Co402 O426 2.117 . S
Co402 O427 2.020 . S
C403 O423 1.259 . S
C403 O426 1.258 . S
Co404 N413 2.057 . S
Co404 O420 2.117 . S
Co404 O421 2.020 . S
Co404 O423 2.021 . S
Co404 O428 2.062 . S
C405 N407 1.316 . S
C405 N408 1.347 . S
C405 H410 0.931 . S
C406 N407 1.375 . S
C406 C409 1.350 . S
C406 H411 0.930 . S
N407 Co402 2.057 . S
N407 C405 1.316 . S
N407 C406 1.375 . S
N408 C405 1.347 . S
N408 C409 1.373 . S
C409 C406 1.350 . S
C409 N408 1.373 . S
C409 H430 0.931 . S
H410 C405 0.931 . S
H411 C406 0.930 . S
C412 O419 1.259 . S
C412 O420 1.258 . S
N413 Co404 2.057 . S
N413 C414 1.316 . S
N413 C415 1.375 . S
C414 N413 1.316 . S
C414 N416 1.347 . S
C414 H425 0.931 . S
C415 N413 1.375 . S
C415 C417 1.350 . S
C415 H424 0.930 . S
N416 C414 1.347 . S
N416 C417 1.373 . S
C417 C415 1.350 . S
C417 N416 1.373 . S
C417 H431 0.931 . S
C418 O421 1.256 . S
C418 O422 1.255 . S
O419 Co402 2.021 . S
O419 C412 1.259 . S
O420 Co404 2.117 . S
O420 C412 1.258 . S
O421 Co404 2.020 . S
O421 C418 1.256 . S
O422 Co402 2.062 . S
O422 C418 1.255 . S
O423 C403 1.259 . S
O423 Co404 2.021 . S
H424 C415 0.930 . S
H425 C414 0.931 . S
O426 Co402 2.117 . S
O426 C403 1.258 . S
O427 Co402 2.020 . S
O427 C429 1.256 . S
O428 Co404 2.062 . S
O428 C429 1.255 . S
C429 O427 1.256 . S
C429 O428 1.255 . S
H430 C409 0.931 . S
H431 C417 0.931 . S
Co432 N437 2.047 1_445 S
Co432 O449 2.021 . S
Co432 O452 2.068 . S
Co432 O456 2.117 1_455 S
Co432 O457 2.020 1_455 S
C433 O453 1.259 1_655 S
C433 O456 1.258 . S
Co434 N443 2.057 . S
Co434 O450 2.117 . S
Co434 O451 2.020 . S
Co434 O453 2.021 . S
Co434 O458 2.062 1_455 S
C435 N437 1.309 1_455 S
C435 N438 1.347 1_455 S
C435 H440 0.931 . S
C436 N437 1.392 . S
C436 C439 1.350 . S
C436 H441 0.930 . S
N437 Co432 2.047 1_665 S
N437 C435 1.309 1_655 S
N437 C436 1.392 . S
N438 C435 1.347 1_655 S
N438 C439 1.373 . S
C439 C436 1.350 . S
C439 N438 1.373 . S
C439 H460 0.931 . S
H440 C435 0.931 . S
H441 C436 0.930 . S
C442 O449 1.259 . S
C442 O450 1.258 . S
N443 Co434 2.057 . S
N443 C444 1.316 . S
N443 C445 1.375 . S
C444 N443 1.316 . S
C444 N446 1.347 . S
C444 H455 0.931 . S
C445 N443 1.375 . S
C445 C447 1.350 . S
C445 H454 0.930 . S
N446 C444 1.347 . S
N446 C447 1.373 . S
C447 C445 1.350 . S
C447 N446 1.373 . S
C447 H461 0.931 . S
C448 O451 1.256 . S
C448 O452 1.271 . S
O449 Co432 2.021 . S
O449 C442 1.259 . S
O450 Co434 2.117 . S
O450 C442 1.258 . S
O451 Co434 2.020 . S
O451 C448 1.256 . S
O452 Co432 2.068 . S
O452 C448 1.271 . S
O453 C433 1.259 1_455 S
O453 Co434 2.021 . S
H454 C445 0.930 . S
H455 C444 0.931 . S
O456 Co432 2.117 1_655 S
O456 C433 1.258 . S
O457 Co432 2.020 1_655 S
O457 C459 1.256 . S
O458 Co434 2.062 1_655 S
O458 C459 1.255 . S
C459 O457 1.256 . S
C459 O458 1.255 . S
H460 C439 0.931 . S
H461 C447 0.931 . S
Co462 N467 2.057 . S
Co462 O479 2.021 . S
Co462 O482 2.062 . S
Co462 O486 2.117 . S
Co462 O487 2.020 . S
C463 O483 1.259 . S
C463 O486 1.258 . S
Co464 N473 2.057 . S
Co464 O480 2.117 . S
Co464 O481 2.020 . S
Co464 O483 2.021 . S
Co464 O488 2.062 . S
C465 N467 1.316 . S
C465 N468 1.347 . S
C465 H470 0.931 . S
C466 N467 1.375 . S
C466 C469 1.350 . S
C466 H471 0.930 . S
N467 Co462 2.057 . S
N467 C465 1.316 . S
N467 C466 1.375 . S
N468 C465 1.347 . S
N468 C469 1.373 . S
C469 C466 1.350 . S
C469 N468 1.373 . S
C469 H490 0.931 . S
H470 C465 0.931 . S
H471 C466 0.930 . S
C472 O479 1.259 . S
C472 O480 1.258 . S
N473 Co464 2.057 . S
N473 C474 1.316 . S
N473 C475 1.375 . S
C474 N473 1.316 . S
C474 N476 1.347 . S
C474 H485 0.931 . S
C475 N473 1.375 . S
C475 C477 1.350 . S
C475 H484 0.930 . S
N476 C474 1.347 . S
N476 C477 1.373 . S
C477 C475 1.350 . S
C477 N476 1.373 . S
C477 H491 0.931 . S
C478 O481 1.256 . S
C478 O482 1.255 . S
O479 Co462 2.021 . S
O479 C472 1.259 . S
O480 Co464 2.117 . S
O480 C472 1.258 . S
O481 Co464 2.020 . S
O481 C478 1.256 . S
O482 Co462 2.062 . S
O482 C478 1.255 . S
O483 C463 1.259 . S
O483 Co464 2.021 . S
H484 C475 0.930 . S
H485 C474 0.931 . S
O486 Co462 2.117 . S
O486 C463 1.258 . S
O487 Co462 2.020 . S
O487 C489 1.256 . S
O488 Co464 2.062 . S
O488 C489 1.255 . S
C489 O487 1.256 . S
C489 O488 1.255 . S
H490 C469 0.931 . S
H491 C477 0.931 . S
Co492 N497 2.057 1_554 S
Co492 O509 2.021 . S
Co492 O512 2.062 1_554 S
Co492 O516 2.117 . S
Co492 O517 2.020 1_545 S
C493 O513 1.259 . S
C493 O516 1.258 . S
Co494 N503 2.057 . S
Co494 O510 2.117 . S
Co494 O511 2.020 . S
Co494 O513 2.021 . S
Co494 O518 2.062 1_545 S
C495 N497 1.316 . S
C495 N498 1.347 . S
C495 H500 0.931 . S
C496 N497 1.375 1_565 S
C496 C499 1.350 . S
C496 H501 0.930 . S
N497 Co492 2.057 1_556 S
N497 C495 1.316 . S
N497 C496 1.375 1_545 S
N498 C495 1.347 . S
N498 C499 1.373 1_545 S
C499 C496 1.350 . S
C499 N498 1.373 1_565 S
C499 H520 0.931 . S
H500 C495 0.931 . S
H501 C496 0.930 . S
C502 O509 1.259 . S
C502 O510 1.258 . S
N503 Co494 2.057 . S
N503 C504 1.316 . S
N503 C505 1.375 . S
C504 N503 1.316 . S
C504 N506 1.347 . S
C504 H515 0.931 . S
C505 N503 1.375 . S
C505 C507 1.350 . S
C505 H514 0.930 . S
N506 C504 1.347 . S
N506 C507 1.373 . S
C507 C505 1.350 . S
C507 N506 1.373 . S
C507 H521 0.931 . S
C508 O511 1.256 . S
C508 O512 1.255 1_554 S
O509 Co492 2.021 . S
O509 C502 1.259 . S
O510 Co494 2.117 . S
O510 C502 1.258 . S
O511 Co494 2.020 . S
O511 C508 1.256 . S
O512 Co492 2.062 1_556 S
O512 C508 1.255 1_556 S
O513 C493 1.259 . S
O513 Co494 2.021 . S
H514 C505 0.930 . S
H515 C504 0.931 . S
O516 Co492 2.117 . S
O516 C493 1.258 . S
O517 Co492 2.020 1_565 S
O517 C519 1.256 . S
O518 Co494 2.062 1_565 S
O518 C519 1.255 . S
C519 O517 1.256 . S
C519 O518 1.255 . S
H520 C499 0.931 . S
H521 C507 0.931 . S
Co522 N527 2.057 . S
Co522 O539 2.021 . S
Co522 O542 2.062 . S
Co522 O546 2.117 . S
Co522 O547 2.020 . S
C523 O543 1.259 . S
C523 O546 1.258 . S
Co524 N533 2.057 . S
Co524 O540 2.117 . S
Co524 O541 2.020 . S
Co524 O543 2.021 . S
Co524 O548 2.062 . S
C525 N527 1.316 . S
C525 N528 1.347 . S
C525 H530 0.931 . S
C526 N527 1.375 . S
C526 C529 1.350 . S
C526 H531 0.930 . S
N527 Co522 2.057 . S
N527 C525 1.316 . S
N527 C526 1.375 . S
N528 C525 1.347 . S
N528 C529 1.373 . S
C529 C526 1.350 . S
C529 N528 1.373 . S
C529 H550 0.931 . S
H530 C525 0.931 . S
H531 C526 0.930 . S
C532 O539 1.259 . S
C532 O540 1.258 . S
N533 Co524 2.057 . S
N533 C534 1.316 . S
N533 C535 1.375 . S
C534 N533 1.316 . S
C534 N536 1.347 . S
C534 H545 0.931 . S
C535 N533 1.375 . S
C535 C537 1.350 . S
C535 H544 0.930 . S
N536 C534 1.347 . S
N536 C537 1.373 . S
C537 C535 1.350 . S
C537 N536 1.373 . S
C537 H551 0.931 . S
C538 O541 1.256 . S
C538 O542 1.255 . S
O539 Co522 2.021 . S
O539 C532 1.259 . S
O540 Co524 2.117 . S
O540 C532 1.258 . S
O541 Co524 2.020 . S
O541 C538 1.256 . S
O542 Co522 2.062 . S
O542 C538 1.255 . S
O543 C523 1.259 . S
O543 Co524 2.021 . S
H544 C535 0.930 . S
H545 C534 0.931 . S
O546 Co522 2.117 . S
O546 C523 1.258 . S
O547 Co522 2.020 . S
O547 C549 1.256 . S
O548 Co524 2.062 . S
O548 C549 1.255 . S
C549 O547 1.256 . S
C549 O548 1.255 . S
H550 C529 0.931 . S
H551 C537 0.931 . S
Co552 N557 2.057 . S
Co552 O569 2.021 1_554 S
Co552 O572 2.062 . S
Co552 O576 2.117 . S
Co552 O577 2.020 . S
C553 O573 1.259 . S
C553 O576 1.258 . S
Co554 N563 2.057 . S
Co554 O570 2.117 . S
Co554 O571 2.020 . S
Co554 O573 2.021 . S
Co554 O578 2.062 . S
C555 N557 1.316 1_556 S
C555 N558 1.347 1_556 S
C555 H560 0.931 . S
C556 N557 1.375 . S
C556 C559 1.350 . S
C556 H561 0.930 . S
N557 Co552 2.057 . S
N557 C555 1.316 1_554 S
N557 C556 1.375 . S
N558 C555 1.347 1_554 S
N558 C559 1.373 . S
C559 C556 1.350 . S
C559 N558 1.373 . S
C559 H580 0.931 . S
H560 C555 0.931 . S
H561 C556 0.930 . S
C562 O569 1.259 . S
C562 O570 1.258 1_556 S
N563 Co554 2.057 . S
N563 C564 1.316 . S
N563 C565 1.375 . S
C564 N563 1.316 . S
C564 N566 1.347 . S
C564 H575 0.931 . S
C565 N563 1.375 . S
C565 C567 1.350 . S
C565 H574 0.930 . S
N566 C564 1.347 . S
N566 C567 1.373 . S
C567 C565 1.350 . S
C567 N566 1.373 . S
C567 H581 0.931 . S
C568 O571 1.256 . S
C568 O572 1.255 . S
O569 Co552 2.021 1_556 S
O569 C562 1.259 . S
O570 Co554 2.117 . S
O570 C562 1.258 1_554 S
O571 Co554 2.020 . S
O571 C568 1.256 . S
O572 Co552 2.062 . S
O572 C568 1.255 . S
O573 C553 1.259 . S
O573 Co554 2.021 . S
H574 C565 0.930 . S
H575 C564 0.931 . S
O576 Co552 2.117 . S
O576 C553 1.258 . S
O577 Co552 2.020 . S
O577 C579 1.256 . S
O578 Co554 2.062 . S
O578 C579 1.255 . S
C579 O577 1.256 . S
C579 O578 1.255 . S
H580 C559 0.931 . S
H581 C567 0.931 . S
Co582 N587 2.057 . S
Co582 O599 2.021 . S
Co582 O602 2.062 . S
Co582 O606 2.117 . S
Co582 O607 2.020 . S
C583 O603 1.259 . S
C583 O606 1.258 . S
Co584 N593 2.057 . S
Co584 O600 2.117 . S
Co584 O601 2.020 . S
Co584 O603 2.021 . S
Co584 O608 2.062 . S
C585 N587 1.316 . S
C585 N588 1.347 . S
C585 H590 0.931 . S
C586 N587 1.375 . S
C586 C589 1.350 . S
C586 H591 0.930 . S
N587 Co582 2.057 . S
N587 C585 1.316 . S
N587 C586 1.375 . S
N588 C585 1.347 . S
N588 C589 1.373 . S
C589 C586 1.350 . S
C589 N588 1.373 . S
C589 H610 0.931 . S
H590 C585 0.931 . S
H591 C586 0.930 . S
C592 O599 1.259 . S
C592 O600 1.258 . S
N593 Co584 2.057 . S
N593 C594 1.316 . S
N593 C595 1.375 . S
C594 N593 1.316 . S
C594 N596 1.347 . S
C594 H605 0.931 . S
C595 N593 1.375 . S
C595 C597 1.350 . S
C595 H604 0.930 . S
N596 C594 1.347 . S
N596 C597 1.373 . S
C597 C595 1.350 . S
C597 N596 1.373 . S
C597 H611 0.931 . S
C598 O601 1.256 . S
C598 O602 1.255 . S
O599 Co582 2.021 . S
O599 C592 1.259 . S
O600 Co584 2.117 . S
O600 C592 1.258 . S
O601 Co584 2.020 . S
O601 C598 1.256 . S
O602 Co582 2.062 . S
O602 C598 1.255 . S
O603 C583 1.259 . S
O603 Co584 2.021 . S
H604 C595 0.930 . S
H605 C594 0.931 . S
O606 Co582 2.117 . S
O606 C583 1.258 . S
O607 Co582 2.020 . S
O607 C609 1.256 . S
O608 Co584 2.062 . S
O608 C609 1.255 . S
C609 O607 1.256 . S
C609 O608 1.255 . S
H610 C589 0.931 . S
H611 C597 0.931 . S
Co612 N617 2.057 . S
Co612 O629 2.021 1_455 S
Co612 O632 2.062 . S
Co612 O636 2.117 . S
Co612 O637 2.020 . S
C613 O633 1.259 . S
C613 O636 1.258 . S
Co614 N623 2.057 . S
Co614 O630 2.163 . S
Co614 O631 2.020 . S
Co614 O633 2.021 . S
Co614 O638 2.062 . S
C615 N617 1.316 1_655 S
C615 N618 1.347 1_655 S
C615 H620 0.931 . S
C616 N617 1.375 . S
C616 C619 1.350 . S
C616 H621 0.930 . S
N617 Co612 2.057 . S
N617 C615 1.316 1_455 S
N617 C616 1.375 . S
N618 C615 1.347 1_455 S
N618 C619 1.369 . S
C619 C616 1.350 . S
C619 N618 1.369 . S
C619 H640 0.931 . S
H620 C615 0.931 . S
H621 C616 0.930 . S
C622 O629 1.259 . S
C622 O630 1.221 1_655 S
N623 Co614 2.057 . S
N623 C624 1.316 . S
N623 C625 1.375 . S
C624 N623 1.316 . S
C624 N626 1.347 . S
C624 H635 0.931 . S
C625 N623 1.375 . S
C625 C627 1.350 . S
C625 H634 0.930 . S
N626 C624 1.347 . S
N626 C627 1.373 . S
C627 C625 1.350 . S
C627 N626 1.373 . S
C627 H641 0.931 . S
C628 O631 1.256 . S
C628 O632 1.255 . S
O629 Co612 2.021 1_655 S
O629 C622 1.259 . S
O630 Co614 2.163 . S
O630 C622 1.221 1_455 S
O631 Co614 2.020 . S
O631 C628 1.256 . S
O632 Co612 2.062 . S
O632 C628 1.255 . S
O633 C613 1.259 . S
O633 Co614 2.021 . S
H634 C625 0.930 . S
H635 C624 0.931 . S
O636 Co612 2.117 . S
O636 C613 1.258 . S
O637 Co612 2.020 . S
O637 C639 1.256 . S
O638 Co614 2.062 . S
O638 C639 1.255 . S
C639 O637 1.256 . S
C639 O638 1.255 . S
H640 C619 0.931 . S
H641 C627 0.931 . S
Co642 N647 2.057 . S
Co642 O659 2.021 . S
Co642 O662 2.062 . S
Co642 O666 2.117 . S
Co642 O667 2.020 . S
C643 O663 1.259 . S
C643 O666 1.258 . S
Co644 N653 2.057 . S
Co644 O660 2.117 . S
Co644 O661 2.020 . S
Co644 O663 2.021 . S
Co644 O668 2.062 . S
C645 N647 1.316 . S
C645 N648 1.347 . S
C645 H650 0.931 . S
C646 N647 1.375 . S
C646 C649 1.350 . S
C646 H651 0.930 . S
N647 Co642 2.057 . S
N647 C645 1.316 . S
N647 C646 1.375 . S
N648 C645 1.347 . S
N648 C649 1.373 . S
C649 C646 1.350 . S
C649 N648 1.373 . S
C649 H670 0.931 . S
H650 C645 0.931 . S
H651 C646 0.930 . S
C652 O659 1.259 . S
C652 O660 1.258 . S
N653 Co644 2.057 . S
N653 C654 1.316 . S
N653 C655 1.375 . S
C654 N653 1.316 . S
C654 N656 1.347 . S
C654 H665 0.931 . S
C655 N653 1.375 . S
C655 C657 1.350 . S
C655 H664 0.930 . S
N656 C654 1.347 . S
N656 C657 1.373 . S
C657 C655 1.350 . S
C657 N656 1.373 . S
C657 H671 0.931 . S
C658 O661 1.256 . S
C658 O662 1.255 . S
O659 Co642 2.021 . S
O659 C652 1.259 . S
O660 Co644 2.117 . S
O660 C652 1.258 . S
O661 Co644 2.020 . S
O661 C658 1.256 . S
O662 Co642 2.062 . S
O662 C658 1.255 . S
O663 C643 1.259 . S
O663 Co644 2.021 . S
H664 C655 0.930 . S
H665 C654 0.931 . S
O666 Co642 2.117 . S
O666 C643 1.258 . S
O667 Co642 2.020 . S
O667 C669 1.256 . S
O668 Co644 2.062 . S
O668 C669 1.255 . S
C669 O667 1.256 . S
C669 O668 1.255 . S
H670 C649 0.931 . S
H671 C657 0.931 . S
Co672 N677 2.057 . S
Co672 O689 2.021 . S
Co672 O692 2.062 . S
Co672 O696 2.117 . S
Co672 O697 2.020 . S
C673 O693 1.259 . S
C673 O696 1.258 . S
Co674 N683 2.057 . S
Co674 O690 2.117 . S
Co674 O691 2.020 . S
Co674 O693 2.021 . S
Co674 O698 2.062 . S
C675 N677 1.316 . S
C675 N678 1.347 . S
C675 H680 0.931 . S
C676 N677 1.375 . S
C676 C679 1.350 . S
C676 H681 0.930 . S
N677 Co672 2.057 . S
N677 C675 1.316 . S
N677 C676 1.375 . S
N678 C675 1.347 . S
N678 C679 1.373 . S
C679 C676 1.350 . S
C679 N678 1.373 . S
C679 H700 0.931 . S
H680 C675 0.931 . S
H681 C676 0.930 . S
C682 O689 1.259 . S
C682 O690 1.258 . S
N683 Co674 2.057 . S
N683 C684 1.316 . S
N683 C685 1.375 . S
C684 N683 1.316 . S
C684 N686 1.347 . S
C684 H695 0.931 . S
C685 N683 1.375 . S
C685 C687 1.350 . S
C685 H694 0.930 . S
N686 C684 1.347 . S
N686 C687 1.373 . S
C687 C685 1.350 . S
C687 N686 1.373 . S
C687 H701 0.931 . S
C688 O691 1.256 . S
C688 O692 1.255 . S
O689 Co672 2.021 . S
O689 C682 1.259 . S
O690 Co674 2.117 . S
O690 C682 1.258 . S
O691 Co674 2.020 . S
O691 C688 1.256 . S
O692 Co672 2.062 . S
O692 C688 1.255 . S
O693 C673 1.259 . S
O693 Co674 2.021 . S
H694 C685 0.930 . S
H695 C684 0.931 . S
O696 Co672 2.117 . S
O696 C673 1.258 . S
O697 Co672 2.020 . S
O697 C699 1.256 . S
O698 Co674 2.062 . S
O698 C699 1.255 . S
C699 O697 1.256 . S
C699 O698 1.255 . S
H700 C679 0.931 . S
H701 C687 0.931 . S
Co702 N707 2.057 . S
Co702 O719 2.021 . S
Co702 O722 2.062 . S
Co702 O726 2.117 . S
Co702 O727 2.020 . S
C703 O723 1.259 . S
C703 O726 1.258 . S
Co704 N713 2.057 . S
Co704 O720 2.117 . S
Co704 O721 2.020 . S
Co704 O723 2.021 . S
Co704 O728 2.062 . S
C705 N707 1.316 . S
C705 N708 1.347 . S
C705 H710 0.931 . S
C706 N707 1.375 . S
C706 C709 1.350 . S
C706 H711 0.930 . S
N707 Co702 2.057 . S
N707 C705 1.316 . S
N707 C706 1.375 . S
N708 C705 1.347 . S
N708 C709 1.373 . S
C709 C706 1.350 . S
C709 N708 1.373 . S
C709 H730 0.931 . S
H710 C705 0.931 . S
H711 C706 0.930 . S
C712 O719 1.259 . S
C712 O720 1.258 . S
N713 Co704 2.057 . S
N713 C714 1.316 . S
N713 C715 1.375 . S
C714 N713 1.316 . S
C714 N716 1.347 . S
C714 H725 0.931 . S
C715 N713 1.375 . S
C715 C717 1.350 . S
C715 H724 0.930 . S
N716 C714 1.347 . S
N716 C717 1.373 . S
C717 C715 1.350 . S
C717 N716 1.373 . S
C717 H731 0.931 . S
C718 O721 1.256 . S
C718 O722 1.255 . S
O719 Co702 2.021 . S
O719 C712 1.259 . S
O720 Co704 2.117 . S
O720 C712 1.258 . S
O721 Co704 2.020 . S
O721 C718 1.256 . S
O722 Co702 2.062 . S
O722 C718 1.255 . S
O723 C703 1.259 . S
O723 Co704 2.021 . S
H724 C715 0.930 . S
H725 C714 0.931 . S
O726 Co702 2.117 . S
O726 C703 1.258 . S
O727 Co702 2.020 . S
O727 C729 1.256 . S
O728 Co704 2.062 . S
O728 C729 1.255 . S
C729 O727 1.256 . S
C729 O728 1.255 . S
H730 C709 0.931 . S
H731 C717 0.931 . S
Co732 N737 2.057 . S
Co732 O749 2.021 . S
Co732 O752 2.062 . S
Co732 O756 2.117 . S
Co732 O757 2.020 . S
C733 O753 1.259 . S
C733 O756 1.258 . S
Co734 N743 2.057 . S
Co734 O750 2.117 . S
Co734 O751 2.020 . S
Co734 O753 2.021 . S
Co734 O758 2.062 . S
C735 N737 1.316 . S
C735 N738 1.347 . S
C735 H740 0.931 . S
C736 N737 1.375 . S
C736 C739 1.350 . S
C736 H741 0.930 . S
N737 Co732 2.057 . S
N737 C735 1.316 . S
N737 C736 1.375 . S
N738 C735 1.347 . S
N738 C739 1.373 . S
C739 C736 1.350 . S
C739 N738 1.373 . S
C739 H760 0.931 . S
H740 C735 0.931 . S
H741 C736 0.930 . S
C742 O749 1.259 . S
C742 O750 1.258 . S
N743 Co734 2.057 . S
N743 C744 1.316 . S
N743 C745 1.375 . S
C744 N743 1.316 . S
C744 N746 1.347 . S
C744 H755 0.931 . S
C745 N743 1.375 . S
C745 C747 1.350 . S
C745 H754 0.930 . S
N746 C744 1.347 . S
N746 C747 1.373 . S
C747 C745 1.350 . S
C747 N746 1.373 . S
C747 H761 0.931 . S
C748 O751 1.256 . S
C748 O752 1.255 . S
O749 Co732 2.021 . S
O749 C742 1.259 . S
O750 Co734 2.117 . S
O750 C742 1.258 . S
O751 Co734 2.020 . S
O751 C748 1.256 . S
O752 Co732 2.062 . S
O752 C748 1.255 . S
O753 C733 1.259 . S
O753 Co734 2.021 . S
H754 C745 0.930 . S
H755 C744 0.931 . S
O756 Co732 2.117 . S
O756 C733 1.258 . S
O757 Co732 2.020 . S
O757 C759 1.256 . S
O758 Co734 2.062 . S
O758 C759 1.255 . S
C759 O757 1.256 . S
C759 O758 1.255 . S
H760 C739 0.931 . S
H761 C747 0.931 . S
Co762 N767 2.057 1_455 S
Co762 O779 2.021 . S
Co762 O782 2.062 1_455 S
Co762 O786 2.117 . S
Co762 O787 2.020 1_554 S
C763 O783 1.259 . S
C763 O786 1.258 . S
Co764 N773 2.057 . S
Co764 O780 2.117 . S
Co764 O781 2.020 . S
Co764 O783 2.021 . S
Co764 O788 2.062 1_554 S
C765 N767 1.316 . S
C765 N768 1.347 . S
C765 H770 0.931 . S
C766 N767 1.375 1_556 S
C766 C769 1.350 . S
C766 H771 0.930 . S
N767 Co762 2.057 1_655 S
N767 C765 1.316 . S
N767 C766 1.375 1_554 S
N768 C765 1.347 . S
N768 C769 1.373 1_554 S
C769 C766 1.350 . S
C769 N768 1.373 1_556 S
C769 H790 0.931 . S
H770 C765 0.931 . S
H771 C766 0.930 . S
C772 O779 1.259 . S
C772 O780 1.258 . S
N773 Co764 2.057 . S
N773 C774 1.316 . S
N773 C775 1.375 . S
C774 N773 1.316 . S
C774 N776 1.347 . S
C774 H785 0.931 . S
C775 N773 1.375 . S
C775 C777 1.350 . S
C775 H784 0.930 . S
N776 C774 1.347 . S
N776 C777 1.373 . S
C777 C775 1.350 . S
C777 N776 1.373 . S
C777 H791 0.931 . S
C778 O781 1.256 . S
C778 O782 1.255 1_455 S
O779 Co762 2.021 . S
O779 C772 1.259 . S
O780 Co764 2.117 . S
O780 C772 1.258 . S
O781 Co764 2.020 . S
O781 C778 1.256 . S
O782 Co762 2.062 1_655 S
O782 C778 1.255 1_655 S
O783 C763 1.259 . S
O783 Co764 2.021 . S
H784 C775 0.930 . S
H785 C774 0.931 . S
O786 Co762 2.117 . S
O786 C763 1.258 . S
O787 Co762 2.020 1_556 S
O787 C789 1.256 . S
O788 Co764 2.062 1_556 S
O788 C789 1.255 . S
C789 O787 1.256 . S
C789 O788 1.255 . S
H790 C769 0.931 . S
H791 C777 0.931 . S
H792 C798 0.930 1_655 S
H793 C802 0.930 . S
H794 C807 0.929 . S
H795 C805 0.929 . S
H796 C800 0.929 . S
H797 C806 0.917 1_655 S
C798 H792 0.930 1_455 S
C798 C799 1.367 . S
C798 C806 1.380 . S
C799 C798 1.367 . S
C799 C807 1.433 . S
C800 H796 0.929 . S
C800 C802 1.378 . S
C800 C804 1.350 . S
C801 C804 1.463 . S
C801 C806 1.360 . S
C801 N809 1.427 . S
C802 H793 0.930 . S
C802 C800 1.378 . S
C802 C803 1.367 . S
C803 C802 1.367 . S
C803 C805 1.433 1_455 S
C804 C800 1.350 . S
C804 C801 1.463 . S
C804 N808 1.427 1_455 S
C805 H795 0.929 . S
C805 C803 1.433 1_655 S
C805 N808 1.384 . S
C806 H797 0.917 1_455 S
C806 C798 1.380 . S
C806 C801 1.360 . S
C807 H794 0.929 . S
C807 C799 1.433 . S
C807 N809 1.384 . S
N808 C804 1.427 1_655 S
N808 C805 1.384 . S
N809 C801 1.427 . S
N809 C807 1.384 . S
H810 C816 0.930 . S
H811 C820 0.930 . S
H812 C825 0.929 . S
H813 C823 0.929 . S
H814 C818 0.929 . S
H815 C824 0.929 . S
C816 H810 0.930 . S
C816 C817 1.367 . S
C816 C824 1.378 . S
C817 C816 1.367 . S
C817 C825 1.433 . S
C818 H814 0.929 . S
C818 C820 1.378 . S
C818 C822 1.350 . S
C819 C822 1.463 . S
C819 C824 1.350 . S
C819 N827 1.427 . S
C820 H811 0.930 . S
C820 C818 1.378 . S
C820 C821 1.367 . S
C821 C820 1.367 . S
C821 C823 1.433 . S
C822 C818 1.350 . S
C822 C819 1.463 . S
C822 N826 1.427 . S
C823 H813 0.929 . S
C823 C821 1.433 . S
C823 N826 1.384 . S
C824 H815 0.929 . S
C824 C816 1.378 . S
C824 C819 1.350 . S
C825 H812 0.929 . S
C825 C817 1.433 . S
C825 N827 1.384 . S
N826 C822 1.427 . S
N826 C823 1.384 . S
N827 C819 1.427 . S
N827 C825 1.384 . S
H828 C834 0.930 . S
H829 C838 0.930 . S
H830 C843 0.929 . S
H831 C841 0.929 . S
H832 C836 0.929 . S
H833 C842 0.929 . S
C834 H828 0.930 . S
C834 C835 1.367 . S
C834 C842 1.378 . S
C835 C834 1.367 . S
C835 C843 1.433 . S
C836 H832 0.929 . S
C836 C838 1.378 . S
C836 C840 1.350 . S
C837 C840 1.463 . S
C837 C842 1.350 . S
C837 N845 1.427 . S
C838 H829 0.930 . S
C838 C836 1.378 . S
C838 C839 1.367 . S
C839 C838 1.367 . S
C839 C841 1.433 . S
C840 C836 1.350 . S
C840 C837 1.463 . S
C840 N844 1.427 . S
C841 H831 0.929 . S
C841 C839 1.433 . S
C841 N844 1.384 . S
C842 H833 0.929 . S
C842 C834 1.378 . S
C842 C837 1.350 . S
C843 H830 0.929 . S
C843 C835 1.433 . S
C843 N845 1.384 . S
N844 C840 1.427 . S
N844 C841 1.384 . S
N845 C837 1.427 . S
N845 C843 1.384 . S
H846 C852 0.930 . S
H847 C856 0.930 . S
H848 C861 0.929 . S
H849 C859 0.929 . S
H850 C854 0.929 . S
H851 C860 0.929 . S
C852 H846 0.930 . S
C852 C853 1.367 . S
C852 C860 1.378 . S
C853 C852 1.367 . S
C853 C861 1.433 . S
C854 H850 0.929 . S
C854 C856 1.378 . S
C854 C858 1.350 . S
C855 C858 1.463 . S
C855 C860 1.350 . S
C855 N863 1.427 . S
C856 H847 0.930 . S
C856 C854 1.378 . S
C856 C857 1.367 . S
C857 C856 1.367 . S
C857 C859 1.433 . S
C858 C854 1.350 . S
C858 C855 1.463 . S
C858 N862 1.427 . S
C859 H849 0.929 . S
C859 C857 1.433 . S
C859 N862 1.384 . S
C860 H851 0.929 . S
C860 C852 1.378 . S
C860 C855 1.350 . S
C861 H848 0.929 . S
C861 C853 1.433 . S
C861 N863 1.384 . S
N862 C858 1.427 . S
N862 C859 1.384 . S
N863 C855 1.427 . S
N863 C861 1.384 . S
H864 C870 0.930 . S
H865 C874 0.934 . S
H866 C879 0.929 . S
H867 C877 0.929 . S
H868 C872 0.929 . S
H869 C878 0.929 . S
C870 H864 0.930 . S
C870 C871 1.367 . S
C870 C878 1.378 . S
C871 C870 1.367 . S
C871 C879 1.433 . S
C872 H868 0.929 . S
C872 C874 1.376 1_455 S
C872 C876 1.350 . S
C873 C876 1.463 . S
C873 C878 1.350 . S
C873 N881 1.427 . S
C874 H865 0.934 . S
C874 C872 1.376 1_655 S
C874 C875 1.365 1_655 S
C875 C874 1.365 1_455 S
C875 C877 1.433 . S
C876 C872 1.350 . S
C876 C873 1.463 . S
C876 N880 1.427 . S
C877 H867 0.929 . S
C877 C875 1.433 . S
C877 N880 1.384 . S
C878 H869 0.929 . S
C878 C870 1.378 . S
C878 C873 1.350 . S
C879 H866 0.929 . S
C879 C871 1.433 . S
C879 N881 1.384 . S
N880 C876 1.427 . S
N880 C877 1.384 . S
N881 C873 1.427 . S
N881 C879 1.384 . S
H882 C888 0.930 . S
H883 C892 0.930 . S
H884 C897 0.929 . S
H885 C895 0.929 . S
H886 C890 0.929 . S
H887 C896 0.929 . S
C888 H882 0.930 . S
C888 C889 1.367 . S
C888 C896 1.378 . S
C889 C888 1.367 . S
C889 C897 1.433 . S
C890 H886 0.929 . S
C890 C892 1.378 . S
C890 C894 1.350 . S
C891 C894 1.463 . S
C891 C896 1.350 . S
C891 N899 1.427 . S
C892 H883 0.930 . S
C892 C890 1.378 . S
C892 C893 1.367 . S
C893 C892 1.367 . S
C893 C895 1.433 . S
C894 C890 1.350 . S
C894 C891 1.463 . S
C894 N898 1.427 . S
C895 H885 0.929 . S
C895 C893 1.433 . S
C895 N898 1.384 . S
C896 H887 0.929 . S
C896 C888 1.378 . S
C896 C891 1.350 . S
C897 H884 0.929 . S
C897 C889 1.433 . S
C897 N899 1.384 . S
N898 C894 1.427 . S
N898 C895 1.384 . S
N899 C891 1.427 . S
N899 C897 1.384 . S
H900 C906 0.930 . S
H901 C910 0.930 . S
H902 C915 0.929 . S
H903 C913 0.929 . S
H904 C908 0.929 . S
H905 C914 0.929 . S
C906 H900 0.930 . S
C906 C907 1.367 . S
C906 C914 1.378 . S
C907 C906 1.367 . S
C907 C915 1.433 . S
C908 H904 0.929 . S
C908 C910 1.378 1_556 S
C908 C912 1.350 . S
C909 C912 1.463 . S
C909 C914 1.350 . S
C909 N917 1.427 . S
C910 H901 0.930 . S
C910 C908 1.378 1_554 S
C910 C911 1.367 1_554 S
C911 C910 1.367 1_556 S
C911 C913 1.433 . S
C912 C908 1.350 . S
C912 C909 1.463 . S
C912 N916 1.427 . S
C913 H903 0.929 . S
C913 C911 1.433 . S
C913 N916 1.384 . S
C914 H905 0.929 . S
C914 C906 1.378 . S
C914 C909 1.350 . S
C915 H902 0.929 . S
C915 C907 1.433 . S
C915 N917 1.384 . S
N916 C912 1.427 . S
N916 C913 1.384 . S
N917 C909 1.427 . S
N917 C915 1.384 . S
H918 C924 0.930 . S
H919 C928 0.930 . S
H920 C933 0.929 . S
H921 C931 0.929 . S
H922 C926 0.929 . S
H923 C932 0.929 . S
C924 H918 0.930 . S
C924 C925 1.367 . S
C924 C932 1.378 . S
C925 C924 1.367 . S
C925 C933 1.433 . S
C926 H922 0.929 . S
C926 C928 1.378 . S
C926 C930 1.350 . S
C927 C930 1.463 . S
C927 C932 1.350 . S
C927 N935 1.427 . S
C928 H919 0.930 . S
C928 C926 1.378 . S
C928 C929 1.367 . S
C929 C928 1.367 . S
C929 C931 1.433 . S
C930 C926 1.350 . S
C930 C927 1.463 . S
C930 N934 1.427 . S
C931 H921 0.929 . S
C931 C929 1.433 . S
C931 N934 1.384 . S
C932 H923 0.929 . S
C932 C924 1.378 . S
C932 C927 1.350 . S
C933 H920 0.929 . S
C933 C925 1.433 . S
C933 N935 1.384 . S
N934 C930 1.427 . S
N934 C931 1.384 . S
N935 C927 1.427 . S
N935 C933 1.384 . S
H936 C942 0.930 . S
H937 C946 0.930 . S
H938 C951 0.929 . S
H939 C949 0.929 . S
H940 C944 0.929 . S
H941 C950 0.929 . S
C942 H936 0.930 . S
C942 C943 1.367 1_565 S
C942 C950 1.378 . S
C943 C942 1.367 1_545 S
C943 C951 1.433 . S
C944 H940 0.929 . S
C944 C946 1.378 . S
C944 C948 1.357 . S
C945 C948 1.463 1_565 S
C945 C950 1.363 . S
C945 N953 1.413 1_565 S
C946 H937 0.930 . S
C946 C944 1.378 . S
C946 C947 1.367 1_545 S
C947 C946 1.367 1_565 S
C947 C949 1.433 . S
C948 C944 1.357 . S
C948 C945 1.463 1_545 S
C948 N952 1.420 1_545 S
C949 H939 0.929 . S
C949 C947 1.433 . S
C949 N952 1.384 . S
C950 H941 0.929 . S
C950 C942 1.378 . S
C950 C945 1.363 . S
C951 H938 0.929 . S
C951 C943 1.433 . S
C951 N953 1.384 . S
N952 C948 1.420 1_565 S
N952 C949 1.384 . S
N953 C945 1.413 1_545 S
N953 C951 1.384 . S
H954 C960 0.930 . S
H955 C964 0.930 . S
H956 C969 0.929 . S
H957 C967 0.929 . S
H958 C962 0.929 . S
H959 C968 0.929 . S
C960 H954 0.930 . S
C960 C961 1.367 . S
C960 C968 1.378 . S
C961 C960 1.367 . S
C961 C969 1.433 . S
C962 H958 0.929 . S
C962 C964 1.378 . S
C962 C966 1.350 . S
C963 C966 1.463 . S
C963 C968 1.350 . S
C963 N971 1.427 . S
C964 H955 0.930 . S
C964 C962 1.378 . S
C964 C965 1.367 . S
C965 C964 1.367 . S
C965 C967 1.433 . S
C966 C962 1.350 . S
C966 C963 1.463 . S
C966 N970 1.427 . S
C967 H957 0.929 . S
C967 C965 1.433 . S
C967 N970 1.384 . S
C968 H959 0.929 . S
C968 C960 1.378 . S
C968 C963 1.350 . S
C969 H956 0.929 . S
C969 C961 1.433 . S
C969 N971 1.384 . S
N970 C966 1.427 . S
N970 C967 1.384 . S
N971 C963 1.427 . S
N971 C969 1.384 . S
H972 C978 0.930 . S
H973 C982 0.930 . S
H974 C987 0.929 . S
H975 C985 0.929 . S
H976 C980 0.929 . S
H977 C986 0.929 . S
C978 H972 0.930 . S
C978 C979 1.367 . S
C978 C986 1.378 . S
C979 C978 1.367 . S
C979 C987 1.433 . S
C980 H976 0.929 . S
C980 C982 1.378 . S
C980 C984 1.350 . S
C981 C984 1.463 . S
C981 C986 1.350 . S
C981 N989 1.427 . S
C982 H973 0.930 . S
C982 C980 1.378 . S
C982 C983 1.367 . S
C983 C982 1.367 . S
C983 C985 1.433 . S
C984 C980 1.350 . S
C984 C981 1.463 . S
C984 N988 1.427 . S
C985 H975 0.929 . S
C985 C983 1.433 . S
C985 N988 1.384 . S
C986 H977 0.929 . S
C986 C978 1.378 . S
C986 C981 1.350 . S
C987 H974 0.929 . S
C987 C979 1.433 . S
C987 N989 1.384 . S
N988 C984 1.427 . S
N988 C985 1.384 . S
N989 C981 1.427 . S
N989 C987 1.384 . S
H990 C996 0.930 . S
H991 C1000 0.930 . S
H992 C1005 0.929 . S
H993 C1003 0.929 . S
H994 C998 0.929 . S
H995 C1004 0.929 . S
C996 H990 0.930 . S
C996 C997 1.367 . S
C996 C1004 1.378 . S
C997 C996 1.367 . S
C997 C1005 1.433 . S
C998 H994 0.929 . S
C998 C1000 1.378 . S
C998 C1002 1.350 . S
C999 C1002 1.463 . S
C999 C1004 1.350 . S
C999 N1007 1.427 . S
C1000 H991 0.930 . S
C1000 C998 1.378 . S
C1000 C1001 1.367 . S
C1001 C1000 1.367 . S
C1001 C1003 1.433 . S
C1002 C998 1.350 . S
C1002 C999 1.463 . S
C1002 N1006 1.427 . S
C1003 H993 0.929 . S
C1003 C1001 1.433 . S
C1003 N1006 1.384 . S
C1004 H995 0.929 . S
C1004 C996 1.378 . S
C1004 C999 1.350 . S
C1005 H992 0.929 . S
C1005 C997 1.433 . S
C1005 N1007 1.384 . S
N1006 C1002 1.427 . S
N1006 C1003 1.384 . S
N1007 C999 1.427 . S
N1007 C1005 1.384 . S
H1008 C1014 0.930 . S
H1009 C1018 0.930 . S
H1010 C1023 0.929 . S
H1011 C1021 0.929 . S
H1012 C1016 0.929 . S
H1013 C1022 0.929 1_565 S
C1014 H1008 0.930 . S
C1014 C1015 1.367 1_565 S
C1014 C1022 1.378 1_565 S
C1015 C1014 1.367 1_545 S
C1015 C1023 1.433 . S
C1016 H1012 0.929 . S
C1016 C1018 1.378 . S
C1016 C1020 1.350 . S
C1017 C1020 1.463 . S
C1017 C1022 1.350 . S
C1017 N1025 1.427 . S
C1018 H1009 0.930 . S
C1018 C1016 1.378 . S
C1018 C1019 1.367 . S
C1019 C1018 1.367 . S
C1019 C1021 1.433 . S
C1020 C1016 1.350 . S
C1020 C1017 1.463 . S
C1020 N1024 1.427 . S
C1021 H1011 0.929 . S
C1021 C1019 1.433 . S
C1021 N1024 1.384 . S
C1022 H1013 0.929 1_545 S
C1022 C1014 1.378 1_545 S
C1022 C1017 1.350 . S
C1023 H1010 0.929 . S
C1023 C1015 1.433 . S
C1023 N1025 1.384 . S
N1024 C1020 1.427 . S
N1024 C1021 1.384 . S
N1025 C1017 1.427 . S
N1025 C1023 1.384 . S
H1026 C1032 0.930 . S
H1027 C1036 0.930 . S
H1028 C1041 0.929 . S
H1029 C1039 0.929 . S
H1030 C1034 0.929 . S
H1031 C1040 0.929 . S
C1032 H1026 0.930 . S
C1032 C1033 1.367 . S
C1032 C1040 1.378 . S
C1033 C1032 1.367 . S
C1033 C1041 1.433 . S
C1034 H1030 0.929 . S
C1034 C1036 1.378 . S
C1034 C1038 1.350 . S
C1035 C1038 1.463 . S
C1035 C1040 1.350 . S
C1035 N1043 1.427 . S
C1036 H1027 0.930 . S
C1036 C1034 1.378 . S
C1036 C1037 1.367 . S
C1037 C1036 1.367 . S
C1037 C1039 1.433 . S
C1038 C1034 1.350 . S
C1038 C1035 1.463 . S
C1038 N1042 1.427 . S
C1039 H1029 0.929 . S
C1039 C1037 1.433 . S
C1039 N1042 1.384 . S
C1040 H1031 0.929 . S
C1040 C1032 1.378 . S
C1040 C1035 1.350 . S
C1041 H1028 0.929 . S
C1041 C1033 1.433 . S
C1041 N1043 1.384 . S
N1042 C1038 1.427 . S
N1042 C1039 1.384 . S
N1043 C1035 1.427 . S
N1043 C1041 1.384 . S
H1044 C1050 0.930 . S
H1045 C1054 0.930 . S
H1046 C1059 0.929 . S
H1047 C1057 0.929 . S
H1048 C1052 0.899 1_565 S
H1049 C1058 0.929 . S
C1050 H1044 0.930 . S
C1050 C1051 1.367 . S
C1050 C1058 1.378 . S
C1051 C1050 1.367 . S
C1051 C1059 1.433 . S
C1052 H1048 0.899 1_545 S
C1052 C1054 1.368 1_545 S
C1052 C1056 1.391 . S
C1053 C1056 1.463 . S
C1053 C1058 1.350 . S
C1053 N1061 1.427 . S
C1054 H1045 0.930 . S
C1054 C1052 1.368 1_565 S
C1054 C1055 1.367 1_565 S
C1055 C1054 1.367 1_545 S
C1055 C1057 1.433 . S
C1056 C1052 1.391 . S
C1056 C1053 1.463 . S
C1056 N1060 1.427 . S
C1057 H1047 0.929 . S
C1057 C1055 1.433 . S
C1057 N1060 1.384 . S
C1058 H1049 0.929 . S
C1058 C1050 1.378 . S
C1058 C1053 1.350 . S
C1059 H1046 0.929 . S
C1059 C1051 1.433 . S
C1059 N1061 1.384 . S
N1060 C1056 1.427 . S
N1060 C1057 1.384 . S
N1061 C1053 1.427 . S
N1061 C1059 1.384 . S
H1062 C1068 0.930 . S
H1063 C1072 0.930 . S
H1064 C1077 0.929 . S
H1065 C1075 0.929 . S
H1066 C1070 0.929 . S
H1067 C1076 0.929 . S
C1068 H1062 0.930 . S
C1068 C1069 1.367 . S
C1068 C1076 1.378 . S
C1069 C1068 1.367 . S
C1069 C1077 1.433 . S
C1070 H1066 0.929 . S
C1070 C1072 1.378 . S
C1070 C1074 1.350 . S
C1071 C1074 1.463 . S
C1071 C1076 1.350 . S
C1071 N1079 1.427 . S
C1072 H1063 0.930 . S
C1072 C1070 1.378 . S
C1072 C1073 1.367 . S
C1073 C1072 1.367 . S
C1073 C1075 1.433 . S
C1074 C1070 1.350 . S
C1074 C1071 1.463 . S
C1074 N1078 1.427 . S
C1075 H1065 0.929 . S
C1075 C1073 1.433 . S
C1075 N1078 1.384 . S
C1076 H1067 0.929 . S
C1076 C1068 1.378 . S
C1076 C1071 1.350 . S
C1077 H1064 0.929 . S
C1077 C1069 1.433 . S
C1077 N1079 1.384 . S
N1078 C1074 1.427 . S
N1078 C1075 1.384 . S
N1079 C1071 1.427 . S
N1079 C1077 1.384 . S
H1080 C1086 0.933 . S
H1081 C1090 0.930 . S
H1082 C1095 0.929 . S
H1083 C1093 0.929 . S
H1084 C1088 0.929 . S
H1085 C1094 0.929 . S
C1086 H1080 0.933 . S
C1086 C1087 1.364 1_556 S
C1086 C1094 1.378 . S
C1087 C1086 1.364 1_554 S
C1087 C1095 1.433 . S
C1088 H1084 0.929 . S
C1088 C1090 1.378 . S
C1088 C1092 1.350 . S
C1089 C1092 1.463 . S
C1089 C1094 1.350 1_554 S
C1089 N1097 1.427 . S
C1090 H1081 0.930 . S
C1090 C1088 1.378 . S
C1090 C1091 1.367 . S
C1091 C1090 1.367 . S
C1091 C1093 1.433 1_554 S
C1092 C1088 1.350 . S
C1092 C1089 1.463 . S
C1092 N1096 1.427 1_554 S
C1093 H1083 0.929 . S
C1093 C1091 1.433 1_556 S
C1093 N1096 1.384 . S
C1094 H1085 0.929 . S
C1094 C1086 1.378 . S
C1094 C1089 1.350 1_556 S
C1095 H1082 0.929 . S
C1095 C1087 1.433 . S
C1095 N1097 1.384 . S
N1096 C1092 1.427 1_556 S
N1096 C1093 1.384 . S
N1097 C1089 1.427 . S
N1097 C1095 1.384 . S
H1098 C1104 0.930 . S
H1099 C1108 0.930 . S
H1100 C1113 0.929 . S
H1101 C1111 0.929 . S
H1102 C1106 0.929 . S
H1103 C1112 0.929 . S
C1104 H1098 0.930 . S
C1104 C1105 1.367 . S
C1104 C1112 1.378 . S
C1105 C1104 1.367 . S
C1105 C1113 1.433 . S
C1106 H1102 0.929 . S
C1106 C1108 1.378 . S
C1106 C1110 1.350 . S
C1107 C1110 1.463 . S
C1107 C1112 1.350 . S
C1107 N1115 1.427 . S
C1108 H1099 0.930 . S
C1108 C1106 1.378 . S
C1108 C1109 1.367 . S
C1109 C1108 1.367 . S
C1109 C1111 1.433 . S
C1110 C1106 1.350 . S
C1110 C1107 1.463 . S
C1110 N1114 1.427 . S
C1111 H1101 0.929 . S
C1111 C1109 1.433 . S
C1111 N1114 1.384 . S
C1112 H1103 0.929 . S
C1112 C1104 1.378 . S
C1112 C1107 1.350 . S
C1113 H1100 0.929 . S
C1113 C1105 1.433 . S
C1113 N1115 1.384 . S
N1114 C1110 1.427 . S
N1114 C1111 1.384 . S
N1115 C1107 1.427 . S
N1115 C1113 1.384 . S
H1116 C1122 0.930 . S
H1117 C1126 0.930 . S
H1118 C1131 0.929 . S
H1119 C1129 0.929 . S
H1120 C1124 0.929 . S
H1121 C1130 0.929 . S
C1122 H1116 0.930 . S
C1122 C1123 1.367 . S
C1122 C1130 1.378 . S
C1123 C1122 1.367 . S
C1123 C1131 1.433 . S
C1124 H1120 0.929 . S
C1124 C1126 1.378 . S
C1124 C1128 1.350 . S
C1125 C1128 1.463 . S
C1125 C1130 1.350 . S
C1125 N1133 1.427 . S
C1126 H1117 0.930 . S
C1126 C1124 1.378 . S
C1126 C1127 1.367 . S
C1127 C1126 1.367 . S
C1127 C1129 1.433 . S
C1128 C1124 1.350 . S
C1128 C1125 1.463 . S
C1128 N1132 1.427 . S
C1129 H1119 0.929 . S
C1129 C1127 1.433 . S
C1129 N1132 1.384 . S
C1130 H1121 0.929 . S
C1130 C1122 1.378 . S
C1130 C1125 1.350 . S
C1131 H1118 0.929 . S
C1131 C1123 1.433 . S
C1131 N1133 1.384 . S
N1132 C1128 1.427 . S
N1132 C1129 1.384 . S
N1133 C1125 1.427 . S
N1133 C1131 1.384 . S
H1134 C1140 0.930 . S
H1135 C1144 0.930 . S
H1136 C1149 0.929 . S
H1137 C1147 0.929 . S
H1138 C1142 0.929 . S
H1139 C1148 0.929 . S
C1140 H1134 0.930 . S
C1140 C1141 1.367 . S
C1140 C1148 1.378 . S
C1141 C1140 1.367 . S
C1141 C1149 1.433 . S
C1142 H1138 0.929 . S
C1142 C1144 1.378 . S
C1142 C1146 1.350 . S
C1143 C1146 1.463 . S
C1143 C1148 1.350 . S
C1143 N1151 1.427 . S
C1144 H1135 0.930 . S
C1144 C1142 1.378 . S
C1144 C1145 1.367 . S
C1145 C1144 1.367 . S
C1145 C1147 1.433 . S
C1146 C1142 1.350 . S
C1146 C1143 1.463 . S
C1146 N1150 1.427 . S
C1147 H1137 0.929 . S
C1147 C1145 1.433 . S
C1147 N1150 1.384 . S
C1148 H1139 0.929 . S
C1148 C1140 1.378 . S
C1148 C1143 1.350 . S
C1149 H1136 0.929 . S
C1149 C1141 1.433 . S
C1149 N1151 1.384 . S
N1150 C1146 1.427 . S
N1150 C1147 1.384 . S
N1151 C1143 1.427 . S
N1151 C1149 1.384 . S
H1152 C1158 0.930 . S
H1153 C1162 0.930 . S
H1154 C1167 0.929 . S
H1155 C1165 0.929 . S
H1156 C1160 0.929 . S
H1157 C1166 0.929 . S
C1158 H1152 0.930 . S
C1158 C1159 1.367 . S
C1158 C1166 1.378 . S
C1159 C1158 1.367 . S
C1159 C1167 1.433 . S
C1160 H1156 0.929 . S
C1160 C1162 1.378 . S
C1160 C1164 1.350 . S
C1161 C1164 1.463 . S
C1161 C1166 1.350 . S
C1161 N1169 1.427 . S
C1162 H1153 0.930 . S
C1162 C1160 1.378 . S
C1162 C1163 1.367 . S
C1163 C1162 1.367 . S
C1163 C1165 1.433 . S
C1164 C1160 1.350 . S
C1164 C1161 1.463 . S
C1164 N1168 1.427 . S
C1165 H1155 0.929 . S
C1165 C1163 1.433 . S
C1165 N1168 1.384 . S
C1166 H1157 0.929 . S
C1166 C1158 1.378 . S
C1166 C1161 1.350 . S
C1167 H1154 0.929 . S
C1167 C1159 1.433 . S
C1167 N1169 1.384 . S
N1168 C1164 1.427 . S
N1168 C1165 1.384 . S
N1169 C1161 1.427 . S
N1169 C1167 1.384 . S
H1170 C1176 0.930 . S
H1171 C1180 0.930 . S
H1172 C1185 0.929 . S
H1173 C1183 0.929 . S
H1174 C1178 0.929 . S
H1175 C1184 0.929 . S
C1176 H1170 0.930 . S
C1176 C1177 1.367 . S
C1176 C1184 1.378 . S
C1177 C1176 1.367 . S
C1177 C1185 1.433 . S
C1178 H1174 0.929 . S
C1178 C1180 1.378 . S
C1178 C1182 1.350 . S
C1179 C1182 1.463 . S
C1179 C1184 1.350 . S
C1179 N1187 1.427 . S
C1180 H1171 0.930 . S
C1180 C1178 1.378 . S
C1180 C1181 1.367 . S
C1181 C1180 1.367 . S
C1181 C1183 1.433 . S
C1182 C1178 1.350 . S
C1182 C1179 1.463 . S
C1182 N1186 1.427 . S
C1183 H1173 0.929 . S
C1183 C1181 1.433 . S
C1183 N1186 1.384 . S
C1184 H1175 0.929 . S
C1184 C1176 1.378 . S
C1184 C1179 1.350 . S
C1185 H1172 0.929 . S
C1185 C1177 1.433 . S
C1185 N1187 1.384 . S
N1186 C1182 1.427 . S
N1186 C1183 1.384 . S
N1187 C1179 1.427 . S
N1187 C1185 1.384 . S
H1188 C1194 0.930 . S
H1189 C1198 0.930 . S
H1190 C1203 0.929 . S
H1191 C1201 0.929 . S
H1192 C1196 0.929 . S
H1193 C1202 0.929 . S
C1194 H1188 0.930 . S
C1194 C1195 1.367 . S
C1194 C1202 1.378 . S
C1195 C1194 1.367 . S
C1195 C1203 1.433 . S
C1196 H1192 0.929 . S
C1196 C1198 1.378 . S
C1196 C1200 1.350 . S
C1197 C1200 1.463 . S
C1197 C1202 1.350 . S
C1197 N1205 1.427 . S
C1198 H1189 0.930 . S
C1198 C1196 1.378 . S
C1198 C1199 1.367 . S
C1199 C1198 1.367 . S
C1199 C1201 1.433 . S
C1200 C1196 1.350 . S
C1200 C1197 1.463 . S
C1200 N1204 1.427 . S
C1201 H1191 0.929 . S
C1201 C1199 1.433 . S
C1201 N1204 1.384 . S
C1202 H1193 0.929 . S
C1202 C1194 1.378 . S
C1202 C1197 1.350 . S
C1203 H1190 0.929 . S
C1203 C1195 1.433 . S
C1203 N1205 1.384 . S
N1204 C1200 1.427 . S
N1204 C1201 1.384 . S
N1205 C1197 1.427 . S
N1205 C1203 1.384 . S
H1206 C1212 0.930 . S
H1207 C1216 0.930 . S
H1208 C1221 0.929 . S
H1209 C1219 0.929 . S
H1210 C1214 0.929 . S
H1211 C1220 0.929 . S
C1212 H1206 0.930 . S
C1212 C1213 1.367 . S
C1212 C1220 1.378 . S
C1213 C1212 1.367 . S
C1213 C1221 1.433 . S
C1214 H1210 0.929 . S
C1214 C1216 1.378 . S
C1214 C1218 1.350 . S
C1215 C1218 1.463 . S
C1215 C1220 1.350 . S
C1215 N1223 1.427 . S
C1216 H1207 0.930 . S
C1216 C1214 1.378 . S
C1216 C1217 1.367 . S
C1217 C1216 1.367 . S
C1217 C1219 1.433 . S
C1218 C1214 1.350 . S
C1218 C1215 1.463 . S
C1218 N1222 1.427 . S
C1219 H1209 0.929 . S
C1219 C1217 1.433 . S
C1219 N1222 1.384 . S
C1220 H1211 0.929 . S
C1220 C1212 1.378 . S
C1220 C1215 1.350 . S
C1221 H1208 0.929 . S
C1221 C1213 1.433 . S
C1221 N1223 1.384 . S
N1222 C1218 1.427 . S
N1222 C1219 1.384 . S
N1223 C1215 1.427 . S
N1223 C1221 1.384 . S
H1224 C1230 0.930 . S
H1225 C1234 0.930 1_654 S
H1226 C1239 0.929 . S
H1227 C1237 0.929 . S
H1228 C1232 0.929 1_655 S
H1229 C1238 0.929 . S
C1230 H1224 0.930 . S
C1230 C1231 1.367 . S
C1230 C1238 1.378 . S
C1231 C1230 1.367 . S
C1231 C1239 1.433 1_455 S
C1232 H1228 0.929 1_455 S
C1232 C1234 1.378 . S
C1232 C1236 1.350 . S
C1233 C1236 1.463 . S
C1233 C1238 1.350 . S
C1233 N1241 1.439 . S
C1234 H1225 0.930 1_456 S
C1234 C1232 1.378 . S
C1234 C1235 1.367 . S
C1235 C1234 1.367 . S
C1235 C1237 1.433 . S
C1236 C1232 1.350 . S
C1236 C1233 1.463 . S
C1236 N1240 1.427 . S
C1237 H1227 0.929 . S
C1237 C1235 1.433 . S
C1237 N1240 1.384 . S
C1238 H1229 0.929 . S
C1238 C1230 1.378 . S
C1238 C1233 1.350 . S
C1239 H1226 0.929 . S
C1239 C1231 1.433 1_655 S
C1239 N1241 1.381 1_655 S
N1240 C1236 1.427 . S
N1240 C1237 1.384 . S
N1241 C1233 1.439 . S
N1241 C1239 1.381 1_455 S
H1242 C1248 0.930 . S
H1243 C1252 0.930 . S
H1244 C1257 0.929 . S
H1245 C1255 0.929 . S
H1246 C1250 0.929 . S
H1247 C1256 0.929 . S
C1248 H1242 0.930 . S
C1248 C1249 1.367 . S
C1248 C1256 1.378 . S
C1249 C1248 1.367 . S
C1249 C1257 1.433 . S
C1250 H1246 0.929 . S
C1250 C1252 1.378 . S
C1250 C1254 1.350 . S
C1251 C1254 1.463 . S
C1251 C1256 1.350 . S
C1251 N1259 1.427 . S
C1252 H1243 0.930 . S
C1252 C1250 1.378 . S
C1252 C1253 1.367 . S
C1253 C1252 1.367 . S
C1253 C1255 1.433 . S
C1254 C1250 1.350 . S
C1254 C1251 1.463 . S
C1254 N1258 1.427 . S
C1255 H1245 0.929 . S
C1255 C1253 1.433 . S
C1255 N1258 1.384 . S
C1256 H1247 0.929 . S
C1256 C1248 1.378 . S
C1256 C1251 1.350 . S
C1257 H1244 0.929 . S
C1257 C1249 1.433 . S
C1257 N1259 1.384 . S
N1258 C1254 1.427 . S
N1258 C1255 1.384 . S
N1259 C1251 1.427 . S
N1259 C1257 1.384 . S
H1260 C1266 0.930 . S
H1261 C1270 0.930 . S
H1262 C1275 0.929 . S
H1263 C1273 0.929 . S
H1264 C1268 0.929 . S
H1265 C1274 0.929 . S
C1266 H1260 0.930 . S
C1266 C1267 1.367 . S
C1266 C1274 1.378 . S
C1267 C1266 1.367 . S
C1267 C1275 1.433 . S
C1268 H1264 0.929 . S
C1268 C1270 1.378 . S
C1268 C1272 1.350 . S
C1269 C1272 1.463 . S
C1269 C1274 1.350 . S
C1269 N1277 1.427 . S
C1270 H1261 0.930 . S
C1270 C1268 1.378 . S
C1270 C1271 1.367 . S
C1271 C1270 1.367 . S
C1271 C1273 1.433 . S
C1272 C1268 1.350 . S
C1272 C1269 1.463 . S
C1272 N1276 1.427 . S
C1273 H1263 0.929 . S
C1273 C1271 1.433 . S
C1273 N1276 1.384 . S
C1274 H1265 0.929 . S
C1274 C1266 1.378 . S
C1274 C1269 1.350 . S
C1275 H1262 0.929 . S
C1275 C1267 1.433 . S
C1275 N1277 1.384 . S
N1276 C1272 1.427 . S
N1276 C1273 1.384 . S
N1277 C1269 1.427 . S
N1277 C1275 1.384 . S
H1278 C1284 0.930 . S
H1279 C1288 0.930 . S
H1280 C1293 0.929 . S
H1281 C1291 0.929 . S
H1282 C1286 0.929 . S
H1283 C1292 0.929 . S
C1284 H1278 0.930 . S
C1284 C1285 1.367 . S
C1284 C1292 1.378 . S
C1285 C1284 1.367 . S
C1285 C1293 1.433 . S
C1286 H1282 0.929 . S
C1286 C1288 1.378 . S
C1286 C1290 1.350 . S
C1287 C1290 1.463 . S
C1287 C1292 1.350 . S
C1287 N1295 1.427 . S
C1288 H1279 0.930 . S
C1288 C1286 1.378 . S
C1288 C1289 1.367 . S
C1289 C1288 1.367 . S
C1289 C1291 1.433 . S
C1290 C1286 1.350 . S
C1290 C1287 1.463 . S
C1290 N1294 1.427 . S
C1291 H1281 0.929 . S
C1291 C1289 1.433 . S
C1291 N1294 1.384 . S
C1292 H1283 0.929 . S
C1292 C1284 1.378 . S
C1292 C1287 1.350 . S
C1293 H1280 0.929 . S
C1293 C1285 1.433 . S
C1293 N1295 1.384 . S
N1294 C1290 1.427 . S
N1294 C1291 1.384 . S
N1295 C1287 1.427 . S
N1295 C1293 1.384 . S
H1296 C1302 0.930 . S
H1297 C1306 0.930 1_655 S
H1298 C1311 0.929 . S
H1299 C1309 0.929 . S
H1300 C1304 0.933 1_655 S
H1301 C1310 0.929 . S
C1302 H1296 0.930 . S
C1302 C1303 1.367 1_455 S
C1302 C1310 1.378 . S
C1303 C1302 1.367 1_655 S
C1303 C1311 1.433 . S
C1304 H1300 0.933 1_455 S
C1304 C1306 1.377 . S
C1304 C1308 1.347 . S
C1305 C1308 1.463 . S
C1305 C1310 1.350 . S
C1305 N1313 1.427 1_455 S
C1306 H1297 0.930 1_455 S
C1306 C1304 1.377 . S
C1306 C1307 1.367 . S
C1307 C1306 1.367 . S
C1307 C1309 1.433 . S
C1308 C1304 1.347 . S
C1308 C1305 1.463 . S
C1308 N1312 1.427 . S
C1309 H1299 0.929 . S
C1309 C1307 1.433 . S
C1309 N1312 1.384 . S
C1310 H1301 0.929 . S
C1310 C1302 1.378 . S
C1310 C1305 1.350 . S
C1311 H1298 0.929 . S
C1311 C1303 1.433 . S
C1311 N1313 1.384 . S
N1312 C1308 1.427 . S
N1312 C1309 1.384 . S
N1313 C1305 1.427 1_655 S
N1313 C1311 1.384 . S
H1314 C1320 0.930 . S
H1315 C1324 0.930 . S
H1316 C1329 0.929 . S
H1317 C1327 0.929 . S
H1318 C1322 0.929 . S
H1319 C1328 0.929 . S
C1320 H1314 0.930 . S
C1320 C1321 1.367 . S
C1320 C1328 1.378 . S
C1321 C1320 1.367 . S
C1321 C1329 1.433 . S
C1322 H1318 0.929 . S
C1322 C1324 1.378 . S
C1322 C1326 1.350 . S
C1323 C1326 1.463 . S
C1323 C1328 1.350 . S
C1323 N1331 1.427 . S
C1324 H1315 0.930 . S
C1324 C1322 1.378 . S
C1324 C1325 1.367 . S
C1325 C1324 1.367 . S
C1325 C1327 1.433 . S
C1326 C1322 1.350 . S
C1326 C1323 1.463 . S
C1326 N1330 1.427 . S
C1327 H1317 0.929 . S
C1327 C1325 1.433 . S
C1327 N1330 1.384 . S
C1328 H1319 0.929 . S
C1328 C1320 1.378 . S
C1328 C1323 1.350 . S
C1329 H1316 0.929 . S
C1329 C1321 1.433 . S
C1329 N1331 1.384 . S
N1330 C1326 1.427 . S
N1330 C1327 1.384 . S
N1331 C1323 1.427 . S
N1331 C1329 1.384 . S
H1332 C1338 0.930 . S
H1333 C1342 0.930 . S
H1334 C1347 0.929 . S
H1335 C1345 0.929 . S
H1336 C1340 0.929 . S
H1337 C1346 0.929 . S
C1338 H1332 0.930 . S
C1338 C1339 1.367 . S
C1338 C1346 1.378 . S
C1339 C1338 1.367 . S
C1339 C1347 1.433 . S
C1340 H1336 0.929 . S
C1340 C1342 1.378 . S
C1340 C1344 1.350 . S
C1341 C1344 1.463 . S
C1341 C1346 1.350 . S
C1341 N1349 1.427 . S
C1342 H1333 0.930 . S
C1342 C1340 1.378 . S
C1342 C1343 1.367 . S
C1343 C1342 1.367 . S
C1343 C1345 1.433 . S
C1344 C1340 1.350 . S
C1344 C1341 1.463 . S
C1344 N1348 1.427 . S
C1345 H1335 0.929 . S
C1345 C1343 1.433 . S
C1345 N1348 1.384 . S
C1346 H1337 0.929 . S
C1346 C1338 1.378 . S
C1346 C1341 1.350 . S
C1347 H1334 0.929 . S
C1347 C1339 1.433 . S
C1347 N1349 1.384 . S
N1348 C1344 1.427 . S
N1348 C1345 1.384 . S
N1349 C1341 1.427 . S
N1349 C1347 1.384 . S
H1350 C1356 0.930 . S
H1351 C1360 0.930 . S
H1352 C1365 0.929 . S
H1353 C1363 0.929 . S
H1354 C1358 0.929 . S
H1355 C1364 0.929 . S
C1356 H1350 0.930 . S
C1356 C1357 1.367 . S
C1356 C1364 1.378 . S
C1357 C1356 1.367 . S
C1357 C1365 1.433 . S
C1358 H1354 0.929 . S
C1358 C1360 1.378 . S
C1358 C1362 1.350 . S
C1359 C1362 1.463 . S
C1359 C1364 1.350 . S
C1359 N1367 1.427 . S
C1360 H1351 0.930 . S
C1360 C1358 1.378 . S
C1360 C1361 1.367 . S
C1361 C1360 1.367 . S
C1361 C1363 1.433 . S
C1362 C1358 1.350 . S
C1362 C1359 1.463 . S
C1362 N1366 1.427 . S
C1363 H1353 0.929 . S
C1363 C1361 1.433 . S
C1363 N1366 1.384 . S
C1364 H1355 0.929 . S
C1364 C1356 1.378 . S
C1364 C1359 1.350 . S
C1365 H1352 0.929 . S
C1365 C1357 1.433 . S
C1365 N1367 1.384 . S
N1366 C1362 1.427 . S
N1366 C1363 1.384 . S
N1367 C1359 1.427 . S
N1367 C1365 1.384 . S
H1368 C1374 0.930 . S
H1369 C1378 0.930 . S
H1370 C1383 0.929 . S
H1371 C1381 0.920 1_455 S
H1372 C1376 0.929 . S
H1373 C1382 0.929 . S
C1374 H1368 0.930 . S
C1374 C1375 1.367 . S
C1374 C1382 1.378 . S
C1375 C1374 1.367 . S
C1375 C1383 1.433 . S
C1376 H1372 0.929 . S
C1376 C1378 1.378 . S
C1376 C1380 1.350 . S
C1377 C1380 1.463 . S
C1377 C1382 1.350 . S
C1377 N1385 1.427 . S
C1378 H1369 0.930 . S
C1378 C1376 1.378 . S
C1378 C1379 1.367 . S
C1379 C1378 1.367 . S
C1379 C1381 1.433 . S
C1380 C1376 1.350 . S
C1380 C1377 1.463 . S
C1380 N1384 1.427 . S
C1381 H1371 0.920 1_655 S
C1381 C1379 1.433 . S
C1381 N1384 1.384 . S
C1382 H1373 0.929 . S
C1382 C1374 1.378 . S
C1382 C1377 1.350 . S
C1383 H1370 0.929 . S
C1383 C1375 1.433 . S
C1383 N1385 1.384 . S
N1384 C1380 1.427 . S
N1384 C1381 1.384 . S
N1385 C1377 1.427 . S
N1385 C1383 1.384 . S
H1386 C1392 0.930 . S
H1387 C1396 0.930 . S
H1388 C1401 0.929 . S
H1389 C1399 0.929 . S
H1390 C1394 0.929 . S
H1391 C1400 0.929 . S
C1392 H1386 0.930 . S
C1392 C1393 1.367 . S
C1392 C1400 1.378 . S
C1393 C1392 1.367 . S
C1393 C1401 1.433 . S
C1394 H1390 0.929 . S
C1394 C1396 1.378 . S
C1394 C1398 1.350 . S
C1395 C1398 1.463 . S
C1395 C1400 1.350 . S
C1395 N1403 1.427 . S
C1396 H1387 0.930 . S
C1396 C1394 1.378 . S
C1396 C1397 1.367 . S
C1397 C1396 1.367 . S
C1397 C1399 1.433 . S
C1398 C1394 1.350 . S
C1398 C1395 1.463 . S
C1398 N1402 1.427 . S
C1399 H1389 0.929 . S
C1399 C1397 1.433 . S
C1399 N1402 1.384 . S
C1400 H1391 0.929 . S
C1400 C1392 1.378 . S
C1400 C1395 1.350 . S
C1401 H1388 0.929 . S
C1401 C1393 1.433 . S
C1401 N1403 1.384 . S
N1402 C1398 1.427 . S
N1402 C1399 1.384 . S
N1403 C1395 1.427 . S
N1403 C1401 1.384 . S
H1404 C1410 0.930 . S
H1405 C1414 0.930 . S
H1406 C1419 0.929 . S
H1407 C1417 0.929 . S
H1408 C1412 0.929 . S
H1409 C1418 0.929 . S
C1410 H1404 0.930 . S
C1410 C1411 1.367 1_565 S
C1410 C1418 1.378 . S
C1411 C1410 1.367 1_545 S
C1411 C1419 1.433 . S
C1412 H1408 0.929 . S
C1412 C1414 1.378 . S
C1412 C1416 1.350 . S
C1413 C1416 1.463 . S
C1413 C1418 1.350 1_545 S
C1413 N1421 1.427 . S
C1414 H1405 0.930 . S
C1414 C1412 1.378 . S
C1414 C1415 1.367 . S
C1415 C1414 1.367 . S
C1415 C1417 1.433 1_545 S
C1416 C1412 1.350 . S
C1416 C1413 1.463 . S
C1416 N1420 1.427 1_545 S
C1417 H1407 0.929 . S
C1417 C1415 1.433 1_565 S
C1417 N1420 1.384 . S
C1418 H1409 0.929 . S
C1418 C1410 1.378 . S
C1418 C1413 1.350 1_565 S
C1419 H1406 0.929 . S
C1419 C1411 1.433 . S
C1419 N1421 1.384 . S
N1420 C1416 1.427 1_565 S
N1420 C1417 1.384 . S
N1421 C1413 1.427 . S
N1421 C1419 1.384 . S
H1422 C1428 0.930 . S
H1423 C1432 0.930 . S
H1424 C1437 0.929 . S
H1425 C1435 0.929 . S
H1426 C1430 0.929 . S
H1427 C1436 0.929 . S
C1428 H1422 0.930 . S
C1428 C1429 1.367 . S
C1428 C1436 1.378 . S
C1429 C1428 1.367 . S
C1429 C1437 1.433 . S
C1430 H1426 0.929 . S
C1430 C1432 1.378 . S
C1430 C1434 1.350 . S
C1431 C1434 1.463 . S
C1431 C1436 1.350 . S
C1431 N1439 1.427 . S
C1432 H1423 0.930 . S
C1432 C1430 1.378 . S
C1432 C1433 1.367 . S
C1433 C1432 1.367 . S
C1433 C1435 1.433 . S
C1434 C1430 1.350 . S
C1434 C1431 1.463 . S
C1434 N1438 1.427 . S
C1435 H1425 0.929 . S
C1435 C1433 1.433 . S
C1435 N1438 1.384 . S
C1436 H1427 0.929 . S
C1436 C1428 1.378 . S
C1436 C1431 1.350 . S
C1437 H1424 0.929 . S
C1437 C1429 1.433 . S
C1437 N1439 1.384 . S
N1438 C1434 1.427 . S
N1438 C1435 1.384 . S
N1439 C1431 1.427 . S
N1439 C1437 1.384 . S
H1440 C1446 0.930 . S
H1441 C1450 0.930 1_565 S
H1442 C1455 0.929 . S
H1443 C1453 0.929 . S
H1444 C1448 0.929 . S
H1445 C1454 0.929 . S
C1446 H1440 0.930 . S
C1446 C1447 1.367 . S
C1446 C1454 1.378 . S
C1447 C1446 1.367 . S
C1447 C1455 1.433 . S
C1448 H1444 0.929 . S
C1448 C1450 1.378 . S
C1448 C1452 1.350 . S
C1449 C1452 1.463 . S
C1449 C1454 1.350 . S
C1449 N1457 1.427 . S
C1450 H1441 0.930 1_545 S
C1450 C1448 1.378 . S
C1450 C1451 1.367 . S
C1451 C1450 1.367 . S
C1451 C1453 1.433 . S
C1452 C1448 1.350 . S
C1452 C1449 1.463 . S
C1452 N1456 1.427 . S
C1453 H1443 0.929 . S
C1453 C1451 1.433 . S
C1453 N1456 1.384 . S
C1454 H1445 0.929 . S
C1454 C1446 1.378 . S
C1454 C1449 1.350 . S
C1455 H1442 0.929 . S
C1455 C1447 1.433 . S
C1455 N1457 1.384 . S
N1456 C1452 1.427 . S
N1456 C1453 1.384 . S
N1457 C1449 1.427 . S
N1457 C1455 1.384 . S
H1458 C1464 0.930 . S
H1459 C1468 0.930 . S
H1460 C1473 0.929 . S
H1461 C1471 0.929 . S
H1462 C1466 0.929 . S
H1463 C1472 0.929 . S
C1464 H1458 0.930 . S
C1464 C1465 1.367 . S
C1464 C1472 1.378 . S
C1465 C1464 1.367 . S
C1465 C1473 1.433 . S
C1466 H1462 0.929 . S
C1466 C1468 1.378 . S
C1466 C1470 1.350 . S
C1467 C1470 1.463 . S
C1467 C1472 1.350 . S
C1467 N1475 1.427 . S
C1468 H1459 0.930 . S
C1468 C1466 1.378 . S
C1468 C1469 1.367 . S
C1469 C1468 1.367 . S
C1469 C1471 1.433 . S
C1470 C1466 1.350 . S
C1470 C1467 1.463 . S
C1470 N1474 1.427 . S
C1471 H1461 0.929 . S
C1471 C1469 1.433 . S
C1471 N1474 1.384 . S
C1472 H1463 0.929 . S
C1472 C1464 1.378 . S
C1472 C1467 1.350 . S
C1473 H1460 0.929 . S
C1473 C1465 1.433 . S
C1473 N1475 1.384 . S
N1474 C1470 1.427 . S
N1474 C1471 1.384 . S
N1475 C1467 1.427 . S
N1475 C1473 1.384 . S
H1476 C1482 0.930 . S
H1477 C1486 0.930 . S
H1478 C1491 0.929 . S
H1479 C1489 0.929 . S
H1480 C1484 0.929 1_565 S
H1481 C1490 0.929 . S
C1482 H1476 0.930 . S
C1482 C1483 1.367 . S
C1482 C1490 1.378 . S
C1483 C1482 1.367 . S
C1483 C1491 1.433 1_545 S
C1484 H1480 0.929 1_545 S
C1484 C1486 1.378 . S
C1484 C1488 1.350 . S
C1485 C1488 1.463 . S
C1485 C1490 1.350 . S
C1485 N1493 1.427 1_545 S
C1486 H1477 0.930 . S
C1486 C1484 1.378 . S
C1486 C1487 1.367 . S
C1487 C1486 1.367 . S
C1487 C1489 1.433 . S
C1488 C1484 1.350 . S
C1488 C1485 1.463 . S
C1488 N1492 1.427 . S
C1489 H1479 0.929 . S
C1489 C1487 1.433 . S
C1489 N1492 1.384 . S
C1490 H1481 0.929 . S
C1490 C1482 1.378 . S
C1490 C1485 1.350 . S
C1491 H1478 0.929 . S
C1491 C1483 1.433 1_565 S
C1491 N1493 1.384 . S
N1492 C1488 1.427 . S
N1492 C1489 1.384 . S
N1493 C1485 1.427 1_565 S
N1493 C1491 1.384 . S
H1494 C1500 0.930 . S
H1495 C1504 0.930 . S
H1496 C1509 0.929 . S
H1497 C1507 0.929 . S
H1498 C1502 0.929 . S
H1499 C1508 0.929 . S
C1500 H1494 0.930 . S
C1500 C1501 1.367 . S
C1500 C1508 1.378 . S
C1501 C1500 1.367 . S
C1501 C1509 1.433 . S
C1502 H1498 0.929 . S
C1502 C1504 1.378 . S
C1502 C1506 1.350 . S
C1503 C1506 1.463 . S
C1503 C1508 1.350 . S
C1503 N1511 1.427 . S
C1504 H1495 0.930 . S
C1504 C1502 1.378 . S
C1504 C1505 1.367 . S
C1505 C1504 1.367 . S
C1505 C1507 1.433 . S
C1506 C1502 1.350 . S
C1506 C1503 1.463 . S
C1506 N1510 1.427 . S
C1507 H1497 0.929 . S
C1507 C1505 1.433 . S
C1507 N1510 1.384 . S
C1508 H1499 0.929 . S
C1508 C1500 1.378 . S
C1508 C1503 1.350 . S
C1509 H1496 0.929 . S
C1509 C1501 1.433 . S
C1509 N1511 1.384 . S
N1510 C1506 1.427 . S
N1510 C1507 1.384 . S
N1511 C1503 1.427 . S
N1511 C1509 1.384 . S
H1512 C1518 0.930 . S
H1513 C1522 0.930 . S
H1514 C1527 0.929 . S
H1515 C1525 0.929 . S
H1516 C1520 0.929 1_545 S
H1517 C1526 0.929 . S
C1518 H1512 0.930 . S
C1518 C1519 1.367 . S
C1518 C1526 1.378 . S
C1519 C1518 1.367 . S
C1519 C1527 1.433 . S
C1520 H1516 0.929 1_565 S
C1520 C1522 1.378 1_565 S
C1520 C1524 1.350 . S
C1521 C1524 1.463 . S
C1521 C1526 1.350 . S
C1521 N1529 1.427 . S
C1522 H1513 0.930 . S
C1522 C1520 1.378 1_545 S
C1522 C1523 1.367 1_545 S
C1523 C1522 1.367 1_565 S
C1523 C1525 1.433 . S
C1524 C1520 1.350 . S
C1524 C1521 1.463 . S
C1524 N1528 1.427 . S
C1525 H1515 0.929 . S
C1525 C1523 1.433 . S
C1525 N1528 1.384 . S
C1526 H1517 0.929 . S
C1526 C1518 1.378 . S
C1526 C1521 1.350 . S
C1527 H1514 0.929 . S
C1527 C1519 1.433 . S
C1527 N1529 1.384 . S
N1528 C1524 1.427 . S
N1528 C1525 1.384 . S
N1529 C1521 1.427 . S
N1529 C1527 1.384 . S
H1530 C1536 0.930 . S
H1531 C1540 0.930 . S
H1532 C1545 0.929 . S
H1533 C1543 0.929 . S
H1534 C1538 0.929 . S
H1535 C1544 0.929 . S
C1536 H1530 0.930 . S
C1536 C1537 1.367 . S
C1536 C1544 1.378 . S
C1537 C1536 1.367 . S
C1537 C1545 1.433 1_554 S
C1538 H1534 0.929 . S
C1538 C1540 1.378 . S
C1538 C1542 1.350 1_556 S
C1539 C1542 1.463 . S
C1539 C1544 1.350 . S
C1539 N1547 1.427 1_554 S
C1540 H1531 0.930 . S
C1540 C1538 1.378 . S
C1540 C1541 1.367 1_556 S
C1541 C1540 1.367 1_554 S
C1541 C1543 1.433 . S
C1542 C1538 1.350 1_554 S
C1542 C1539 1.463 . S
C1542 N1546 1.427 . S
C1543 H1533 0.929 . S
C1543 C1541 1.433 . S
C1543 N1546 1.384 . S
C1544 H1535 0.929 . S
C1544 C1536 1.378 . S
C1544 C1539 1.350 . S
C1545 H1532 0.929 . S
C1545 C1537 1.433 1_556 S
C1545 N1547 1.384 . S
N1546 C1542 1.427 . S
N1546 C1543 1.384 . S
N1547 C1539 1.427 1_556 S
N1547 C1545 1.384 . S
H1548 C1554 0.930 . S
H1549 C1558 0.930 . S
H1550 C1563 0.929 . S
H1551 C1561 0.929 . S
H1552 C1556 0.929 . S
H1553 C1562 0.929 . S
C1554 H1548 0.930 . S
C1554 C1555 1.367 . S
C1554 C1562 1.378 . S
C1555 C1554 1.367 . S
C1555 C1563 1.433 . S
C1556 H1552 0.929 . S
C1556 C1558 1.378 . S
C1556 C1560 1.350 . S
C1557 C1560 1.463 . S
C1557 C1562 1.350 . S
C1557 N1565 1.427 . S
C1558 H1549 0.930 . S
C1558 C1556 1.378 . S
C1558 C1559 1.367 . S
C1559 C1558 1.367 . S
C1559 C1561 1.433 . S
C1560 C1556 1.350 . S
C1560 C1557 1.463 . S
C1560 N1564 1.427 . S
C1561 H1551 0.929 . S
C1561 C1559 1.433 . S
C1561 N1564 1.384 . S
C1562 H1553 0.929 . S
C1562 C1554 1.378 . S
C1562 C1557 1.350 . S
C1563 H1550 0.929 . S
C1563 C1555 1.433 . S
C1563 N1565 1.384 . S
N1564 C1560 1.427 . S
N1564 C1561 1.384 . S
N1565 C1557 1.427 . S
N1565 C1563 1.384 . S
H1566 C1572 0.930 . S
H1567 C1576 0.930 . S
H1568 C1581 0.929 . S
H1569 C1579 0.929 . S
H1570 C1574 0.929 . S
H1571 C1580 0.929 . S
C1572 H1566 0.930 . S
C1572 C1573 1.367 . S
C1572 C1580 1.378 . S
C1573 C1572 1.367 . S
C1573 C1581 1.433 . S
C1574 H1570 0.929 . S
C1574 C1576 1.378 . S
C1574 C1578 1.350 . S
C1575 C1578 1.463 . S
C1575 C1580 1.350 . S
C1575 N1583 1.427 . S
C1576 H1567 0.930 . S
C1576 C1574 1.378 . S
C1576 C1577 1.367 . S
C1577 C1576 1.367 . S
C1577 C1579 1.433 . S
C1578 C1574 1.350 . S
C1578 C1575 1.463 . S
C1578 N1582 1.427 . S
C1579 H1569 0.929 . S
C1579 C1577 1.433 . S
C1579 N1582 1.384 . S
C1580 H1571 0.929 . S
C1580 C1572 1.378 . S
C1580 C1575 1.350 . S
C1581 H1568 0.929 . S
C1581 C1573 1.433 . S
C1581 N1583 1.384 . S
N1582 C1578 1.427 . S
N1582 C1579 1.384 . S
N1583 C1575 1.427 . S
N1583 C1581 1.384 . S
H1584 C1590 0.930 . S
H1585 C1594 0.930 . S
H1586 C1599 0.929 1_545 S
H1587 C1597 0.929 . S
H1588 C1592 0.929 . S
H1589 C1598 0.929 . S
C1590 H1584 0.930 . S
C1590 C1591 1.367 . S
C1590 C1598 1.378 . S
C1591 C1590 1.367 . S
C1591 C1599 1.433 . S
C1592 H1588 0.929 . S
C1592 C1594 1.378 . S
C1592 C1596 1.350 . S
C1593 C1596 1.463 . S
C1593 C1598 1.350 . S
C1593 N1601 1.427 . S
C1594 H1585 0.930 . S
C1594 C1592 1.378 . S
C1594 C1595 1.367 . S
C1595 C1594 1.367 . S
C1595 C1597 1.433 . S
C1596 C1592 1.350 . S
C1596 C1593 1.463 . S
C1596 N1600 1.427 . S
C1597 H1587 0.929 . S
C1597 C1595 1.433 . S
C1597 N1600 1.384 . S
C1598 H1589 0.929 . S
C1598 C1590 1.378 . S
C1598 C1593 1.350 . S
C1599 H1586 0.929 1_565 S
C1599 C1591 1.433 . S
C1599 N1601 1.384 . S
N1600 C1596 1.427 . S
N1600 C1597 1.384 . S
N1601 C1593 1.427 . S
N1601 C1599 1.384 . S
H1602 C1608 0.930 . S
H1603 C1612 0.930 . S
H1604 C1617 0.929 . S
H1605 C1615 0.929 . S
H1606 C1610 0.929 . S
H1607 C1616 0.929 . S
C1608 H1602 0.930 . S
C1608 C1609 1.367 . S
C1608 C1616 1.378 . S
C1609 C1608 1.367 . S
C1609 C1617 1.433 . S
C1610 H1606 0.929 . S
C1610 C1612 1.378 . S
C1610 C1614 1.350 . S
C1611 C1614 1.463 . S
C1611 C1616 1.350 . S
C1611 N1619 1.427 . S
C1612 H1603 0.930 . S
C1612 C1610 1.378 . S
C1612 C1613 1.367 . S
C1613 C1612 1.367 . S
C1613 C1615 1.433 . S
C1614 C1610 1.350 . S
C1614 C1611 1.463 . S
C1614 N1618 1.427 . S
C1615 H1605 0.929 . S
C1615 C1613 1.433 . S
C1615 N1618 1.384 . S
C1616 H1607 0.929 . S
C1616 C1608 1.378 . S
C1616 C1611 1.350 . S
C1617 H1604 0.929 . S
C1617 C1609 1.433 . S
C1617 N1619 1.384 . S
N1618 C1614 1.427 . S
N1618 C1615 1.384 . S
N1619 C1611 1.427 . S
N1619 C1617 1.384 . S
H1620 C1626 0.930 . S
H1621 C1630 0.930 . S
H1622 C1635 0.929 . S
H1623 C1633 0.929 . S
H1624 C1628 0.929 . S
H1625 C1634 0.929 . S
C1626 H1620 0.930 . S
C1626 C1627 1.367 . S
C1626 C1634 1.378 . S
C1627 C1626 1.367 . S
C1627 C1635 1.433 . S
C1628 H1624 0.929 . S
C1628 C1630 1.378 . S
C1628 C1632 1.350 . S
C1629 C1632 1.463 . S
C1629 C1634 1.350 . S
C1629 N1637 1.427 . S
C1630 H1621 0.930 . S
C1630 C1628 1.378 . S
C1630 C1631 1.367 . S
C1631 C1630 1.367 . S
C1631 C1633 1.433 . S
C1632 C1628 1.350 . S
C1632 C1629 1.463 . S
C1632 N1636 1.427 . S
C1633 H1623 0.929 . S
C1633 C1631 1.433 . S
C1633 N1636 1.384 . S
C1634 H1625 0.929 . S
C1634 C1626 1.378 . S
C1634 C1629 1.350 . S
C1635 H1622 0.929 . S
C1635 C1627 1.433 . S
C1635 N1637 1.384 . S
N1636 C1632 1.427 . S
N1636 C1633 1.384 . S
N1637 C1629 1.427 . S
N1637 C1635 1.384 . S
H1638 C1644 0.930 . S
H1639 C1648 0.930 . S
H1640 C1653 0.929 . S
H1641 C1651 0.929 . S
H1642 C1646 0.929 . S
H1643 C1652 0.929 . S
C1644 H1638 0.930 . S
C1644 C1645 1.367 . S
C1644 C1652 1.378 . S
C1645 C1644 1.367 . S
C1645 C1653 1.433 . S
C1646 H1642 0.929 . S
C1646 C1648 1.378 . S
C1646 C1650 1.350 . S
C1647 C1650 1.463 . S
C1647 C1652 1.350 . S
C1647 N1655 1.427 . S
C1648 H1639 0.930 . S
C1648 C1646 1.378 . S
C1648 C1649 1.367 . S
C1649 C1648 1.367 . S
C1649 C1651 1.433 . S
C1650 C1646 1.350 . S
C1650 C1647 1.463 . S
C1650 N1654 1.427 . S
C1651 H1641 0.929 . S
C1651 C1649 1.433 . S
C1651 N1654 1.384 . S
C1652 H1643 0.929 . S
C1652 C1644 1.378 . S
C1652 C1647 1.350 . S
C1653 H1640 0.929 . S
C1653 C1645 1.433 . S
C1653 N1655 1.384 . S
N1654 C1650 1.427 . S
N1654 C1651 1.384 . S
N1655 C1647 1.427 . S
N1655 C1653 1.384 . S
H1656 C1662 0.930 . S
H1657 C1666 0.930 . S
H1658 C1671 0.929 . S
H1659 C1669 0.929 . S
H1660 C1664 0.929 . S
H1661 C1670 0.929 . S
C1662 H1656 0.930 . S
C1662 C1663 1.367 . S
C1662 C1670 1.378 . S
C1663 C1662 1.367 . S
C1663 C1671 1.433 . S
C1664 H1660 0.929 . S
C1664 C1666 1.378 . S
C1664 C1668 1.350 . S
C1665 C1668 1.463 . S
C1665 C1670 1.350 . S
C1665 N1673 1.427 . S
C1666 H1657 0.930 . S
C1666 C1664 1.378 . S
C1666 C1667 1.367 . S
C1667 C1666 1.367 . S
C1667 C1669 1.433 . S
C1668 C1664 1.350 . S
C1668 C1665 1.463 . S
C1668 N1672 1.427 . S
C1669 H1659 0.929 . S
C1669 C1667 1.433 . S
C1669 N1672 1.384 . S
C1670 H1661 0.929 . S
C1670 C1662 1.378 . S
C1670 C1665 1.350 . S
C1671 H1658 0.929 . S
C1671 C1663 1.433 . S
C1671 N1673 1.384 . S
N1672 C1668 1.427 . S
N1672 C1669 1.384 . S
N1673 C1665 1.427 . S
N1673 C1671 1.384 . S
H1674 C1680 0.930 . S
H1675 C1684 0.930 . S
H1676 C1689 0.929 . S
H1677 C1687 0.929 . S
H1678 C1682 0.929 . S
H1679 C1688 0.929 . S
C1680 H1674 0.930 . S
C1680 C1681 1.367 . S
C1680 C1688 1.378 . S
C1681 C1680 1.367 . S
C1681 C1689 1.433 . S
C1682 H1678 0.929 . S
C1682 C1684 1.378 . S
C1682 C1686 1.350 . S
C1683 C1686 1.463 . S
C1683 C1688 1.350 . S
C1683 N1691 1.427 . S
C1684 H1675 0.930 . S
C1684 C1682 1.378 . S
C1684 C1685 1.367 . S
C1685 C1684 1.367 . S
C1685 C1687 1.433 . S
C1686 C1682 1.350 . S
C1686 C1683 1.463 . S
C1686 N1690 1.427 . S
C1687 H1677 0.929 . S
C1687 C1685 1.433 . S
C1687 N1690 1.384 . S
C1688 H1679 0.929 . S
C1688 C1680 1.378 . S
C1688 C1683 1.350 . S
C1689 H1676 0.929 . S
C1689 C1681 1.433 . S
C1689 N1691 1.384 . S
N1690 C1686 1.427 . S
N1690 C1687 1.384 . S
N1691 C1683 1.427 . S
N1691 C1689 1.384 . S
H1692 C1698 0.930 . S
H1693 C1702 0.930 . S
H1694 C1707 0.929 . S
H1695 C1705 0.929 . S
H1696 C1700 0.929 . S
H1697 C1706 0.929 . S
C1698 H1692 0.930 . S
C1698 C1699 1.367 . S
C1698 C1706 1.378 . S
C1699 C1698 1.367 . S
C1699 C1707 1.433 . S
C1700 H1696 0.929 . S
C1700 C1702 1.378 . S
C1700 C1704 1.350 . S
C1701 C1704 1.463 . S
C1701 C1706 1.350 . S
C1701 N1709 1.427 . S
C1702 H1693 0.930 . S
C1702 C1700 1.378 . S
C1702 C1703 1.367 . S
C1703 C1702 1.367 . S
C1703 C1705 1.433 . S
C1704 C1700 1.350 . S
C1704 C1701 1.463 . S
C1704 N1708 1.427 . S
C1705 H1695 0.929 . S
C1705 C1703 1.433 . S
C1705 N1708 1.384 . S
C1706 H1697 0.929 . S
C1706 C1698 1.378 . S
C1706 C1701 1.350 . S
C1707 H1694 0.929 . S
C1707 C1699 1.433 . S
C1707 N1709 1.384 . S
N1708 C1704 1.427 . S
N1708 C1705 1.384 . S
N1709 C1701 1.427 . S
N1709 C1707 1.384 . S
H1710 C1716 0.930 . S
H1711 C1720 0.930 . S
H1712 C1725 0.947 . S
H1713 C1723 0.929 . S
H1714 C1718 0.929 . S
H1715 C1724 0.929 . S
C1716 H1710 0.930 . S
C1716 C1717 1.367 . S
C1716 C1724 1.378 . S
C1717 C1716 1.367 . S
C1717 C1725 1.433 . S
C1718 H1714 0.929 . S
C1718 C1720 1.378 . S
C1718 C1722 1.350 . S
C1719 C1722 1.463 . S
C1719 C1724 1.350 . S
C1719 N1727 1.427 . S
C1720 H1711 0.930 . S
C1720 C1718 1.378 . S
C1720 C1721 1.367 . S
C1721 C1720 1.367 . S
C1721 C1723 1.433 . S
C1722 C1718 1.350 . S
C1722 C1719 1.463 . S
C1722 N1726 1.427 . S
C1723 H1713 0.929 . S
C1723 C1721 1.433 . S
C1723 N1726 1.384 . S
C1724 H1715 0.929 . S
C1724 C1716 1.378 . S
C1724 C1719 1.350 . S
C1725 H1712 0.947 . S
C1725 C1717 1.433 . S
C1725 N1727 1.384 . S
N1726 C1722 1.427 . S
N1726 C1723 1.384 . S
N1727 C1719 1.427 . S
N1727 C1725 1.384 . S
H1728 C1734 0.930 . S
H1729 C1738 0.930 . S
H1730 C1743 0.929 . S
H1731 C1741 0.929 . S
H1732 C1736 0.929 . S
H1733 C1742 0.929 . S
C1734 H1728 0.930 . S
C1734 C1735 1.367 . S
C1734 C1742 1.378 . S
C1735 C1734 1.367 . S
C1735 C1743 1.433 . S
C1736 H1732 0.929 . S
C1736 C1738 1.378 . S
C1736 C1740 1.350 . S
C1737 C1740 1.463 . S
C1737 C1742 1.350 . S
C1737 N1745 1.427 . S
C1738 H1729 0.930 . S
C1738 C1736 1.378 . S
C1738 C1739 1.367 . S
C1739 C1738 1.367 . S
C1739 C1741 1.433 1_556 S
C1740 C1736 1.350 . S
C1740 C1737 1.463 . S
C1740 N1744 1.427 . S
C1741 H1731 0.929 . S
C1741 C1739 1.433 1_554 S
C1741 N1744 1.384 1_554 S
C1742 H1733 0.929 . S
C1742 C1734 1.378 . S
C1742 C1737 1.350 . S
C1743 H1730 0.929 . S
C1743 C1735 1.433 . S
C1743 N1745 1.384 . S
N1744 C1740 1.427 . S
N1744 C1741 1.384 1_556 S
N1745 C1737 1.427 . S
N1745 C1743 1.384 . S
H1746 C1752 0.930 . S
H1747 C1756 0.930 . S
H1748 C1761 0.929 . S
H1749 C1759 0.929 . S
H1750 C1754 0.929 . S
H1751 C1760 0.929 . S
C1752 H1746 0.930 . S
C1752 C1753 1.367 . S
C1752 C1760 1.378 . S
C1753 C1752 1.367 . S
C1753 C1761 1.433 . S
C1754 H1750 0.929 . S
C1754 C1756 1.378 . S
C1754 C1758 1.350 . S
C1755 C1758 1.463 . S
C1755 C1760 1.350 . S
C1755 N1763 1.427 . S
C1756 H1747 0.930 . S
C1756 C1754 1.378 . S
C1756 C1757 1.367 . S
C1757 C1756 1.367 . S
C1757 C1759 1.433 . S
C1758 C1754 1.350 . S
C1758 C1755 1.463 . S
C1758 N1762 1.427 . S
C1759 H1749 0.929 . S
C1759 C1757 1.433 . S
C1759 N1762 1.384 . S
C1760 H1751 0.929 . S
C1760 C1752 1.378 . S
C1760 C1755 1.350 . S
C1761 H1748 0.929 . S
C1761 C1753 1.433 . S
C1761 N1763 1.384 . S
N1762 C1758 1.427 . S
N1762 C1759 1.384 . S
N1763 C1755 1.427 . S
N1763 C1761 1.384 . S
H1764 C1770 0.930 . S
H1765 C1774 0.930 . S
H1766 C1779 0.929 . S
H1767 C1777 0.929 . S
H1768 C1772 0.929 . S
H1769 C1778 0.929 . S
C1770 H1764 0.930 . S
C1770 C1771 1.367 . S
C1770 C1778 1.378 . S
C1771 C1770 1.367 . S
C1771 C1779 1.433 . S
C1772 H1768 0.929 . S
C1772 C1774 1.378 . S
C1772 C1776 1.350 . S
C1773 C1776 1.463 . S
C1773 C1778 1.350 . S
C1773 N1781 1.427 . S
C1774 H1765 0.930 . S
C1774 C1772 1.378 . S
C1774 C1775 1.367 . S
C1775 C1774 1.367 . S
C1775 C1777 1.433 . S
C1776 C1772 1.350 . S
C1776 C1773 1.463 . S
C1776 N1780 1.427 . S
C1777 H1767 0.929 . S
C1777 C1775 1.433 . S
C1777 N1780 1.384 . S
C1778 H1769 0.929 . S
C1778 C1770 1.378 . S
C1778 C1773 1.350 . S
C1779 H1766 0.929 . S
C1779 C1771 1.433 . S
C1779 N1781 1.384 . S
N1780 C1776 1.427 . S
N1780 C1777 1.384 . S
N1781 C1773 1.427 . S
N1781 C1779 1.384 . S
H1782 C1788 0.930 . S
H1783 C1792 0.930 . S
H1784 C1797 0.929 . S
H1785 C1795 0.929 . S
H1786 C1790 0.929 . S
H1787 C1796 0.929 . S
C1788 H1782 0.930 . S
C1788 C1789 1.367 . S
C1788 C1796 1.378 . S
C1789 C1788 1.367 . S
C1789 C1797 1.433 . S
C1790 H1786 0.929 . S
C1790 C1792 1.378 . S
C1790 C1794 1.350 . S
C1791 C1794 1.463 . S
C1791 C1796 1.350 . S
C1791 N1799 1.427 . S
C1792 H1783 0.930 . S
C1792 C1790 1.378 . S
C1792 C1793 1.367 . S
C1793 C1792 1.367 . S
C1793 C1795 1.433 . S
C1794 C1790 1.350 . S
C1794 C1791 1.463 . S
C1794 N1798 1.427 . S
C1795 H1785 0.929 . S
C1795 C1793 1.433 . S
C1795 N1798 1.384 . S
C1796 H1787 0.929 . S
C1796 C1788 1.378 . S
C1796 C1791 1.350 . S
C1797 H1784 0.929 . S
C1797 C1789 1.433 . S
C1797 N1799 1.384 . S
N1798 C1794 1.427 . S
N1798 C1795 1.384 . S
N1799 C1791 1.427 . S
N1799 C1797 1.384 . S
H1800 C1806 0.930 . S
H1801 C1810 0.930 . S
H1802 C1815 0.929 . S
H1803 C1813 0.929 . S
H1804 C1808 0.929 . S
H1805 C1814 0.929 . S
C1806 H1800 0.930 . S
C1806 C1807 1.367 . S
C1806 C1814 1.378 . S
C1807 C1806 1.367 . S
C1807 C1815 1.433 . S
C1808 H1804 0.929 . S
C1808 C1810 1.378 . S
C1808 C1812 1.350 . S
C1809 C1812 1.463 . S
C1809 C1814 1.350 . S
C1809 N1817 1.427 . S
C1810 H1801 0.930 . S
C1810 C1808 1.378 . S
C1810 C1811 1.367 . S
C1811 C1810 1.367 . S
C1811 C1813 1.433 . S
C1812 C1808 1.350 . S
C1812 C1809 1.463 . S
C1812 N1816 1.427 . S
C1813 H1803 0.929 . S
C1813 C1811 1.433 . S
C1813 N1816 1.384 . S
C1814 H1805 0.929 . S
C1814 C1806 1.378 . S
C1814 C1809 1.350 . S
C1815 H1802 0.929 . S
C1815 C1807 1.433 . S
C1815 N1817 1.384 . S
N1816 C1812 1.427 . S
N1816 C1813 1.384 . S
N1817 C1809 1.427 . S
N1817 C1815 1.384 . S
H1818 C1824 0.930 1_554 S
H1819 C1828 0.930 . S
H1820 C1833 0.929 . S
H1821 C1831 0.929 . S
H1822 C1826 0.929 . S
H1823 C1832 0.929 . S
C1824 H1818 0.930 1_556 S
C1824 C1825 1.367 . S
C1824 C1832 1.378 . S
C1825 C1824 1.367 . S
C1825 C1833 1.433 . S
C1826 H1822 0.929 . S
C1826 C1828 1.378 . S
C1826 C1830 1.350 . S
C1827 C1830 1.463 . S
C1827 C1832 1.350 . S
C1827 N1835 1.427 . S
C1828 H1819 0.930 . S
C1828 C1826 1.378 . S
C1828 C1829 1.367 . S
C1829 C1828 1.367 . S
C1829 C1831 1.433 . S
C1830 C1826 1.350 . S
C1830 C1827 1.463 . S
C1830 N1834 1.427 . S
C1831 H1821 0.929 . S
C1831 C1829 1.433 . S
C1831 N1834 1.384 . S
C1832 H1823 0.929 . S
C1832 C1824 1.378 . S
C1832 C1827 1.350 . S
C1833 H1820 0.929 . S
C1833 C1825 1.433 . S
C1833 N1835 1.384 . S
N1834 C1830 1.427 . S
N1834 C1831 1.384 . S
N1835 C1827 1.427 . S
N1835 C1833 1.384 . S
H1836 C1842 0.930 . S
H1837 C1846 0.930 1_455 S
H1838 C1851 0.929 . S
H1839 C1849 0.929 . S
H1840 C1844 0.929 . S
H1841 C1850 0.929 . S
C1842 H1836 0.930 . S
C1842 C1843 1.367 . S
C1842 C1850 1.378 . S
C1843 C1842 1.367 . S
C1843 C1851 1.433 . S
C1844 H1840 0.929 . S
C1844 C1846 1.378 . S
C1844 C1848 1.350 . S
C1845 C1848 1.463 . S
C1845 C1850 1.350 . S
C1845 N1853 1.427 . S
C1846 H1837 0.930 1_655 S
C1846 C1844 1.378 . S
C1846 C1847 1.367 . S
C1847 C1846 1.367 . S
C1847 C1849 1.433 . S
C1848 C1844 1.350 . S
C1848 C1845 1.463 . S
C1848 N1852 1.427 . S
C1849 H1839 0.929 . S
C1849 C1847 1.433 . S
C1849 N1852 1.384 . S
C1850 H1841 0.929 . S
C1850 C1842 1.378 . S
C1850 C1845 1.350 . S
C1851 H1838 0.929 . S
C1851 C1843 1.433 . S
C1851 N1853 1.384 . S
N1852 C1848 1.427 . S
N1852 C1849 1.384 . S
N1853 C1845 1.427 . S
N1853 C1851 1.384 . S
H1854 C1860 0.930 . S
H1855 C1864 0.930 . S
H1856 C1869 0.929 . S
H1857 C1867 0.929 . S
H1858 C1862 0.929 . S
H1859 C1868 0.929 . S
C1860 H1854 0.930 . S
C1860 C1861 1.367 . S
C1860 C1868 1.378 . S
C1861 C1860 1.367 . S
C1861 C1869 1.433 . S
C1862 H1858 0.929 . S
C1862 C1864 1.378 . S
C1862 C1866 1.350 . S
C1863 C1866 1.463 . S
C1863 C1868 1.350 . S
C1863 N1871 1.427 . S
C1864 H1855 0.930 . S
C1864 C1862 1.378 . S
C1864 C1865 1.367 . S
C1865 C1864 1.367 . S
C1865 C1867 1.433 . S
C1866 C1862 1.350 . S
C1866 C1863 1.463 . S
C1866 N1870 1.427 . S
C1867 H1857 0.929 . S
C1867 C1865 1.433 . S
C1867 N1870 1.384 . S
C1868 H1859 0.929 . S
C1868 C1860 1.378 . S
C1868 C1863 1.350 . S
C1869 H1856 0.929 . S
C1869 C1861 1.433 . S
C1869 N1871 1.384 . S
N1870 C1866 1.427 . S
N1870 C1867 1.384 . S
N1871 C1863 1.427 . S
N1871 C1869 1.384 . S
H1872 C1878 0.930 . S
H1873 C1882 0.930 . S
H1874 C1887 0.929 . S
H1875 C1885 0.929 . S
H1876 C1880 0.929 . S
H1877 C1886 0.929 . S
C1878 H1872 0.930 . S
C1878 C1879 1.367 . S
C1878 C1886 1.378 . S
C1879 C1878 1.367 . S
C1879 C1887 1.433 . S
C1880 H1876 0.929 . S
C1880 C1882 1.378 . S
C1880 C1884 1.350 . S
C1881 C1884 1.463 . S
C1881 C1886 1.350 . S
C1881 N1889 1.427 . S
C1882 H1873 0.930 . S
C1882 C1880 1.378 . S
C1882 C1883 1.367 . S
C1883 C1882 1.367 . S
C1883 C1885 1.433 . S
C1884 C1880 1.350 . S
C1884 C1881 1.463 . S
C1884 N1888 1.427 . S
C1885 H1875 0.929 . S
C1885 C1883 1.433 . S
C1885 N1888 1.384 . S
C1886 H1877 0.929 . S
C1886 C1878 1.378 . S
C1886 C1881 1.350 . S
C1887 H1874 0.929 . S
C1887 C1879 1.433 . S
C1887 N1889 1.384 . S
N1888 C1884 1.427 . S
N1888 C1885 1.384 . S
N1889 C1881 1.427 . S
N1889 C1887 1.384 . S
H1890 C1896 0.930 . S
H1891 C1900 0.930 . S
H1892 C1905 0.929 . S
H1893 C1903 0.929 . S
H1894 C1898 0.929 . S
H1895 C1904 0.929 . S
C1896 H1890 0.930 . S
C1896 C1897 1.367 . S
C1896 C1904 1.378 . S
C1897 C1896 1.367 . S
C1897 C1905 1.433 . S
C1898 H1894 0.929 . S
C1898 C1900 1.378 . S
C1898 C1902 1.350 . S
C1899 C1902 1.463 . S
C1899 C1904 1.350 . S
C1899 N1907 1.427 . S
C1900 H1891 0.930 . S
C1900 C1898 1.378 . S
C1900 C1901 1.367 . S
C1901 C1900 1.367 . S
C1901 C1903 1.433 . S
C1902 C1898 1.350 . S
C1902 C1899 1.463 . S
C1902 N1906 1.427 . S
C1903 H1893 0.929 . S
C1903 C1901 1.433 . S
C1903 N1906 1.384 . S
C1904 H1895 0.929 . S
C1904 C1896 1.378 . S
C1904 C1899 1.350 . S
C1905 H1892 0.929 . S
C1905 C1897 1.433 . S
C1905 N1907 1.384 . S
N1906 C1902 1.427 . S
N1906 C1903 1.384 . S
N1907 C1899 1.427 . S
N1907 C1905 1.384 . S
H1908 C1914 0.930 . S
H1909 C1918 0.930 1_455 S
H1910 C1923 0.929 . S
H1911 C1921 0.929 . S
H1912 C1916 0.929 . S
H1913 C1922 0.929 . S
C1914 H1908 0.930 . S
C1914 C1915 1.367 . S
C1914 C1922 1.378 . S
C1915 C1914 1.367 . S
C1915 C1923 1.433 . S
C1916 H1912 0.929 . S
C1916 C1918 1.378 . S
C1916 C1920 1.350 . S
C1917 C1920 1.463 . S
C1917 C1922 1.350 . S
C1917 N1925 1.427 . S
C1918 H1909 0.930 1_655 S
C1918 C1916 1.378 . S
C1918 C1919 1.367 . S
C1919 C1918 1.367 . S
C1919 C1921 1.433 . S
C1920 C1916 1.350 . S
C1920 C1917 1.463 . S
C1920 N1924 1.427 . S
C1921 H1911 0.929 . S
C1921 C1919 1.433 . S
C1921 N1924 1.384 . S
C1922 H1913 0.929 . S
C1922 C1914 1.378 . S
C1922 C1917 1.350 . S
C1923 H1910 0.929 . S
C1923 C1915 1.433 . S
C1923 N1925 1.384 . S
N1924 C1920 1.427 . S
N1924 C1921 1.384 . S
N1925 C1917 1.427 . S
N1925 C1923 1.384 . S
H1926 C1932 0.930 . S
H1927 C1936 0.930 . S
H1928 C1941 0.929 . S
H1929 C1939 0.929 . S
H1930 C1934 0.929 . S
H1931 C1940 0.929 . S
C1932 H1926 0.930 . S
C1932 C1933 1.367 . S
C1932 C1940 1.378 . S
C1933 C1932 1.367 . S
C1933 C1941 1.433 . S
C1934 H1930 0.929 . S
C1934 C1936 1.378 . S
C1934 C1938 1.350 . S
C1935 C1938 1.463 . S
C1935 C1940 1.350 . S
C1935 N1943 1.427 . S
C1936 H1927 0.930 . S
C1936 C1934 1.378 . S
C1936 C1937 1.367 . S
C1937 C1936 1.367 . S
C1937 C1939 1.433 . S
C1938 C1934 1.350 . S
C1938 C1935 1.463 . S
C1938 N1942 1.427 . S
C1939 H1929 0.929 . S
C1939 C1937 1.433 . S
C1939 N1942 1.384 . S
C1940 H1931 0.929 . S
C1940 C1932 1.378 . S
C1940 C1935 1.350 . S
C1941 H1928 0.929 . S
C1941 C1933 1.433 . S
C1941 N1943 1.384 . S
N1942 C1938 1.427 . S
N1942 C1939 1.384 . S
N1943 C1935 1.427 . S
N1943 C1941 1.384 . S
H1944 C1950 0.930 . S
H1945 C1954 0.930 . S
H1946 C1959 0.929 . S
H1947 C1957 0.929 . S
H1948 C1952 0.929 . S
H1949 C1958 0.929 . S
C1950 H1944 0.930 . S
C1950 C1951 1.367 . S
C1950 C1958 1.378 . S
C1951 C1950 1.367 . S
C1951 C1959 1.433 . S
C1952 H1948 0.929 . S
C1952 C1954 1.378 . S
C1952 C1956 1.350 . S
C1953 C1956 1.463 . S
C1953 C1958 1.350 . S
C1953 N1961 1.427 . S
C1954 H1945 0.930 . S
C1954 C1952 1.378 . S
C1954 C1955 1.367 . S
C1955 C1954 1.367 . S
C1955 C1957 1.433 . S
C1956 C1952 1.350 . S
C1956 C1953 1.463 . S
C1956 N1960 1.427 . S
C1957 H1947 0.929 . S
C1957 C1955 1.433 . S
C1957 N1960 1.384 . S
C1958 H1949 0.929 . S
C1958 C1950 1.378 . S
C1958 C1953 1.350 . S
C1959 H1946 0.929 . S
C1959 C1951 1.433 . S
C1959 N1961 1.384 . S
N1960 C1956 1.427 . S
N1960 C1957 1.384 . S
N1961 C1953 1.427 . S
N1961 C1959 1.384 . S
H1962 C1968 0.930 . S
H1963 C1972 0.930 . S
H1964 C1977 0.929 . S
H1965 C1975 0.929 . S
H1966 C1970 0.929 . S
H1967 C1976 0.929 . S
C1968 H1962 0.930 . S
C1968 C1969 1.367 . S
C1968 C1976 1.378 . S
C1969 C1968 1.367 . S
C1969 C1977 1.433 . S
C1970 H1966 0.929 . S
C1970 C1972 1.378 . S
C1970 C1974 1.350 . S
C1971 C1974 1.463 . S
C1971 C1976 1.350 . S
C1971 N1979 1.427 . S
C1972 H1963 0.930 . S
C1972 C1970 1.378 . S
C1972 C1973 1.367 1_565 S
C1973 C1972 1.367 1_545 S
C1973 C1975 1.433 . S
C1974 C1970 1.350 . S
C1974 C1971 1.463 . S
C1974 N1978 1.427 . S
C1975 H1965 0.929 . S
C1975 C1973 1.433 . S
C1975 N1978 1.384 1_545 S
C1976 H1967 0.929 . S
C1976 C1968 1.378 . S
C1976 C1971 1.350 . S
C1977 H1964 0.929 . S
C1977 C1969 1.433 . S
C1977 N1979 1.384 . S
N1978 C1974 1.427 . S
N1978 C1975 1.384 1_565 S
N1979 C1971 1.427 . S
N1979 C1977 1.384 . S
H1980 C1986 0.930 1_545 S
H1981 C1990 0.930 . S
H1982 C1995 0.929 . S
H1983 C1993 0.929 . S
H1984 C1988 0.929 . S
H1985 C1994 0.929 . S
C1986 H1980 0.930 1_565 S
C1986 C1987 1.367 . S
C1986 C1994 1.378 . S
C1987 C1986 1.367 . S
C1987 C1995 1.433 . S
C1988 H1984 0.929 . S
C1988 C1990 1.378 . S
C1988 C1992 1.350 . S
C1989 C1992 1.463 . S
C1989 C1994 1.350 . S
C1989 N1997 1.427 . S
C1990 H1981 0.930 . S
C1990 C1988 1.378 . S
C1990 C1991 1.367 . S
C1991 C1990 1.367 . S
C1991 C1993 1.433 . S
C1992 C1988 1.350 . S
C1992 C1989 1.463 . S
C1992 N1996 1.427 . S
C1993 H1983 0.929 . S
C1993 C1991 1.433 . S
C1993 N1996 1.384 . S
C1994 H1985 0.929 . S
C1994 C1986 1.378 . S
C1994 C1989 1.350 . S
C1995 H1982 0.929 . S
C1995 C1987 1.433 . S
C1995 N1997 1.384 . S
N1996 C1992 1.427 . S
N1996 C1993 1.384 . S
N1997 C1989 1.427 . S
N1997 C1995 1.384 . S
H1998 C2004 0.930 1_556 S
H1999 C2008 0.930 . S
H2000 C2013 0.929 . S
H2001 C2011 0.929 . S
H2002 C2006 0.929 . S
H2003 C2012 0.914 1_556 S
C2004 H1998 0.930 1_554 S
C2004 C2005 1.367 . S
C2004 C2012 1.378 . S
C2005 C2004 1.367 . S
C2005 C2013 1.433 . S
C2006 H2002 0.929 . S
C2006 C2008 1.378 . S
C2006 C2010 1.350 . S
C2007 C2010 1.463 . S
C2007 C2012 1.350 . S
C2007 N2015 1.427 . S
C2008 H1999 0.930 . S
C2008 C2006 1.378 . S
C2008 C2009 1.367 . S
C2009 C2008 1.367 . S
C2009 C2011 1.433 . S
C2010 C2006 1.350 . S
C2010 C2007 1.463 . S
C2010 N2014 1.427 . S
C2011 H2001 0.929 . S
C2011 C2009 1.433 . S
C2011 N2014 1.384 . S
C2012 H2003 0.914 1_554 S
C2012 C2004 1.378 . S
C2012 C2007 1.350 . S
C2013 H2000 0.929 . S
C2013 C2005 1.433 . S
C2013 N2015 1.384 . S
N2014 C2010 1.427 . S
N2014 C2011 1.384 . S
N2015 C2007 1.427 . S
N2015 C2013 1.384 . S
H2016 C2022 0.930 . S
H2017 C2026 0.930 . S
H2018 C2031 0.929 . S
H2019 C2029 0.929 . S
H2020 C2024 0.929 . S
H2021 C2030 0.929 . S
C2022 H2016 0.930 . S
C2022 C2023 1.367 . S
C2022 C2030 1.378 . S
C2023 C2022 1.367 . S
C2023 C2031 1.433 . S
C2024 H2020 0.929 . S
C2024 C2026 1.378 . S
C2024 C2028 1.350 . S
C2025 C2028 1.463 . S
C2025 C2030 1.350 . S
C2025 N2033 1.427 . S
C2026 H2017 0.930 . S
C2026 C2024 1.378 . S
C2026 C2027 1.367 . S
C2027 C2026 1.367 . S
C2027 C2029 1.433 . S
C2028 C2024 1.350 . S
C2028 C2025 1.463 . S
C2028 N2032 1.427 . S
C2029 H2019 0.929 . S
C2029 C2027 1.433 . S
C2029 N2032 1.384 . S
C2030 H2021 0.929 . S
C2030 C2022 1.378 . S
C2030 C2025 1.350 . S
C2031 H2018 0.929 . S
C2031 C2023 1.433 . S
C2031 N2033 1.384 . S
N2032 C2028 1.427 . S
N2032 C2029 1.384 . S
N2033 C2025 1.427 . S
N2033 C2031 1.384 . S
H2034 C2040 0.930 . S
H2035 C2044 0.930 . S
H2036 C2049 0.929 . S
H2037 C2047 0.929 . S
H2038 C2042 0.929 . S
H2039 C2048 0.929 . S
C2040 H2034 0.930 . S
C2040 C2041 1.367 . S
C2040 C2048 1.378 . S
C2041 C2040 1.367 . S
C2041 C2049 1.433 . S
C2042 H2038 0.929 . S
C2042 C2044 1.378 . S
C2042 C2046 1.350 . S
C2043 C2046 1.463 . S
C2043 C2048 1.350 . S
C2043 N2051 1.427 . S
C2044 H2035 0.930 . S
C2044 C2042 1.378 . S
C2044 C2045 1.367 . S
C2045 C2044 1.367 . S
C2045 C2047 1.433 . S
C2046 C2042 1.350 . S
C2046 C2043 1.463 . S
C2046 N2050 1.427 . S
C2047 H2037 0.929 . S
C2047 C2045 1.433 . S
C2047 N2050 1.384 . S
C2048 H2039 0.929 . S
C2048 C2040 1.378 . S
C2048 C2043 1.350 . S
C2049 H2036 0.929 . S
C2049 C2041 1.433 . S
C2049 N2051 1.384 . S
N2050 C2046 1.427 . S
N2050 C2047 1.384 . S
N2051 C2043 1.427 . S
N2051 C2049 1.384 . S
H2052 C2058 0.930 . S
H2053 C2062 0.930 . S
H2054 C2067 0.929 . S
H2055 C2065 0.929 . S
H2056 C2060 0.929 . S
H2057 C2066 0.929 . S
C2058 H2052 0.930 . S
C2058 C2059 1.367 . S
C2058 C2066 1.378 . S
C2059 C2058 1.367 . S
C2059 C2067 1.433 . S
C2060 H2056 0.929 . S
C2060 C2062 1.378 . S
C2060 C2064 1.350 . S
C2061 C2064 1.463 . S
C2061 C2066 1.350 . S
C2061 N2069 1.427 . S
C2062 H2053 0.930 . S
C2062 C2060 1.378 . S
C2062 C2063 1.367 . S
C2063 C2062 1.367 . S
C2063 C2065 1.433 . S
C2064 C2060 1.350 . S
C2064 C2061 1.463 . S
C2064 N2068 1.427 . S
C2065 H2055 0.929 . S
C2065 C2063 1.433 . S
C2065 N2068 1.384 . S
C2066 H2057 0.929 . S
C2066 C2058 1.378 . S
C2066 C2061 1.350 . S
C2067 H2054 0.929 . S
C2067 C2059 1.433 . S
C2067 N2069 1.384 . S
N2068 C2064 1.427 . S
N2068 C2065 1.384 . S
N2069 C2061 1.427 . S
N2069 C2067 1.384 . S
H2070 C2076 0.930 . S
H2071 C2080 0.930 . S
H2072 C2085 0.929 . S
H2073 C2083 0.929 . S
H2074 C2078 0.929 . S
H2075 C2084 0.929 . S
C2076 H2070 0.930 . S
C2076 C2077 1.367 . S
C2076 C2084 1.378 . S
C2077 C2076 1.367 . S
C2077 C2085 1.433 . S
C2078 H2074 0.929 . S
C2078 C2080 1.378 . S
C2078 C2082 1.350 . S
C2079 C2082 1.463 . S
C2079 C2084 1.350 . S
C2079 N2087 1.427 . S
C2080 H2071 0.930 . S
C2080 C2078 1.378 . S
C2080 C2081 1.367 . S
C2081 C2080 1.367 . S
C2081 C2083 1.433 . S
C2082 C2078 1.350 . S
C2082 C2079 1.463 . S
C2082 N2086 1.427 . S
C2083 H2073 0.929 . S
C2083 C2081 1.433 . S
C2083 N2086 1.384 . S
C2084 H2075 0.929 . S
C2084 C2076 1.378 . S
C2084 C2079 1.350 . S
C2085 H2072 0.929 . S
C2085 C2077 1.433 . S
C2085 N2087 1.384 . S
N2086 C2082 1.427 . S
N2086 C2083 1.384 . S
N2087 C2079 1.427 . S
N2087 C2085 1.384 . S
H2088 C2094 0.930 . S
H2089 C2098 0.930 . S
H2090 C2103 0.929 . S
H2091 C2101 0.929 . S
H2092 C2096 0.929 . S
H2093 C2102 0.929 . S
C2094 H2088 0.930 . S
C2094 C2095 1.367 . S
C2094 C2102 1.378 . S
C2095 C2094 1.367 . S
C2095 C2103 1.433 . S
C2096 H2092 0.929 . S
C2096 C2098 1.378 . S
C2096 C2100 1.350 . S
C2097 C2100 1.463 . S
C2097 C2102 1.350 . S
C2097 N2105 1.427 . S
C2098 H2089 0.930 . S
C2098 C2096 1.378 . S
C2098 C2099 1.367 . S
C2099 C2098 1.367 . S
C2099 C2101 1.433 . S
C2100 C2096 1.350 . S
C2100 C2097 1.463 . S
C2100 N2104 1.427 . S
C2101 H2091 0.929 . S
C2101 C2099 1.433 . S
C2101 N2104 1.384 . S
C2102 H2093 0.929 . S
C2102 C2094 1.378 . S
C2102 C2097 1.350 . S
C2103 H2090 0.929 . S
C2103 C2095 1.433 . S
C2103 N2105 1.384 . S
N2104 C2100 1.427 . S
N2104 C2101 1.384 . S
N2105 C2097 1.427 . S
N2105 C2103 1.384 . S
H2106 C2112 0.930 . S
H2107 C2116 0.930 . S
H2108 C2121 0.929 . S
H2109 C2119 0.929 . S
H2110 C2114 0.929 . S
H2111 C2120 0.929 . S
C2112 H2106 0.930 . S
C2112 C2113 1.367 . S
C2112 C2120 1.378 . S
C2113 C2112 1.367 . S
C2113 C2121 1.433 . S
C2114 H2110 0.929 . S
C2114 C2116 1.378 . S
C2114 C2118 1.350 . S
C2115 C2118 1.463 . S
C2115 C2120 1.350 . S
C2115 N2123 1.427 . S
C2116 H2107 0.930 . S
C2116 C2114 1.378 . S
C2116 C2117 1.367 . S
C2117 C2116 1.367 . S
C2117 C2119 1.433 . S
C2118 C2114 1.350 . S
C2118 C2115 1.463 . S
C2118 N2122 1.427 . S
C2119 H2109 0.929 . S
C2119 C2117 1.433 . S
C2119 N2122 1.384 . S
C2120 H2111 0.929 . S
C2120 C2112 1.378 . S
C2120 C2115 1.350 . S
C2121 H2108 0.929 . S
C2121 C2113 1.433 . S
C2121 N2123 1.384 . S
N2122 C2118 1.427 . S
N2122 C2119 1.384 . S
N2123 C2115 1.427 . S
N2123 C2121 1.384 . S
H2124 C2130 0.930 . S
H2125 C2134 0.930 . S
H2126 C2139 0.929 . S
H2127 C2137 0.929 . S
H2128 C2132 0.903 1_554 S
H2129 C2138 0.929 . S
C2130 H2124 0.930 . S
C2130 C2131 1.367 . S
C2130 C2138 1.378 . S
C2131 C2130 1.367 . S
C2131 C2139 1.433 . S
C2132 H2128 0.903 1_556 S
C2132 C2134 1.378 1_556 S
C2132 C2136 1.350 . S
C2133 C2136 1.463 . S
C2133 C2138 1.350 . S
C2133 N2141 1.427 . S
C2134 H2125 0.930 . S
C2134 C2132 1.378 1_554 S
C2134 C2135 1.367 1_554 S
C2135 C2134 1.367 1_556 S
C2135 C2137 1.433 . S
C2136 C2132 1.350 . S
C2136 C2133 1.463 . S
C2136 N2140 1.427 . S
C2137 H2127 0.929 . S
C2137 C2135 1.433 . S
C2137 N2140 1.384 . S
C2138 H2129 0.929 . S
C2138 C2130 1.378 . S
C2138 C2133 1.350 . S
C2139 H2126 0.929 . S
C2139 C2131 1.433 . S
C2139 N2141 1.384 . S
N2140 C2136 1.427 . S
N2140 C2137 1.384 . S
N2141 C2133 1.427 . S
N2141 C2139 1.384 . S
H2142 C2148 0.930 . S
H2143 C2152 0.930 . S
H2144 C2157 0.929 . S
H2145 C2155 0.929 . S
H2146 C2150 0.929 . S
H2147 C2156 0.929 . S
C2148 H2142 0.930 . S
C2148 C2149 1.367 . S
C2148 C2156 1.378 . S
C2149 C2148 1.367 . S
C2149 C2157 1.433 . S
C2150 H2146 0.929 . S
C2150 C2152 1.378 . S
C2150 C2154 1.350 . S
C2151 C2154 1.463 . S
C2151 C2156 1.350 . S
C2151 N2159 1.427 . S
C2152 H2143 0.930 . S
C2152 C2150 1.378 . S
C2152 C2153 1.367 . S
C2153 C2152 1.367 . S
C2153 C2155 1.433 . S
C2154 C2150 1.350 . S
C2154 C2151 1.463 . S
C2154 N2158 1.427 . S
C2155 H2145 0.929 . S
C2155 C2153 1.433 . S
C2155 N2158 1.384 . S
C2156 H2147 0.929 . S
C2156 C2148 1.378 . S
C2156 C2151 1.350 . S
C2157 H2144 0.929 . S
C2157 C2149 1.433 . S
C2157 N2159 1.384 . S
N2158 C2154 1.427 . S
N2158 C2155 1.384 . S
N2159 C2151 1.427 . S
N2159 C2157 1.384 . S
H2160 C2166 0.930 . S
H2161 C2170 0.930 . S
H2162 C2175 0.929 . S
H2163 C2173 0.929 . S
H2164 C2168 0.929 . S
H2165 C2174 0.929 . S
C2166 H2160 0.930 . S
C2166 C2167 1.367 . S
C2166 C2174 1.378 . S
C2167 C2166 1.367 . S
C2167 C2175 1.433 . S
C2168 H2164 0.929 . S
C2168 C2170 1.378 . S
C2168 C2172 1.350 . S
C2169 C2172 1.463 . S
C2169 C2174 1.350 . S
C2169 N2177 1.427 . S
C2170 H2161 0.930 . S
C2170 C2168 1.378 . S
C2170 C2171 1.367 . S
C2171 C2170 1.367 . S
C2171 C2173 1.433 . S
C2172 C2168 1.350 . S
C2172 C2169 1.463 . S
C2172 N2176 1.427 . S
C2173 H2163 0.929 . S
C2173 C2171 1.433 . S
C2173 N2176 1.384 . S
C2174 H2165 0.929 . S
C2174 C2166 1.378 . S
C2174 C2169 1.350 . S
C2175 H2162 0.929 . S
C2175 C2167 1.433 . S
C2175 N2177 1.384 . S
N2176 C2172 1.427 . S
N2176 C2173 1.384 . S
N2177 C2169 1.427 . S
N2177 C2175 1.384 . S
H2178 C2184 0.930 . S
H2179 C2188 0.930 . S
H2180 C2193 0.929 . S
H2181 C2191 0.929 . S
H2182 C2186 0.929 . S
H2183 C2192 0.929 . S
C2184 H2178 0.930 . S
C2184 C2185 1.367 . S
C2184 C2192 1.378 . S
C2185 C2184 1.367 . S
C2185 C2193 1.433 . S
C2186 H2182 0.929 . S
C2186 C2188 1.378 . S
C2186 C2190 1.350 . S
C2187 C2190 1.463 . S
C2187 C2192 1.350 . S
C2187 N2195 1.427 . S
C2188 H2179 0.930 . S
C2188 C2186 1.378 . S
C2188 C2189 1.367 . S
C2189 C2188 1.367 . S
C2189 C2191 1.433 . S
C2190 C2186 1.350 . S
C2190 C2187 1.463 . S
C2190 N2194 1.427 . S
C2191 H2181 0.929 . S
C2191 C2189 1.433 . S
C2191 N2194 1.384 . S
C2192 H2183 0.929 . S
C2192 C2184 1.378 . S
C2192 C2187 1.350 . S
C2193 H2180 0.929 . S
C2193 C2185 1.433 . S
C2193 N2195 1.384 . S
N2194 C2190 1.427 . S
N2194 C2191 1.384 . S
N2195 C2187 1.427 . S
N2195 C2193 1.384 . S
H2196 C2202 0.930 . S
H2197 C2206 0.930 . S
H2198 C2211 0.929 . S
H2199 C2209 0.929 . S
H2200 C2204 0.929 . S
H2201 C2210 0.929 . S
C2202 H2196 0.930 . S
C2202 C2203 1.367 . S
C2202 C2210 1.378 . S
C2203 C2202 1.367 . S
C2203 C2211 1.433 1_455 S
C2204 H2200 0.929 . S
C2204 C2206 1.378 . S
C2204 C2208 1.350 1_655 S
C2205 C2208 1.463 . S
C2205 C2210 1.350 . S
C2205 N2213 1.427 1_455 S
C2206 H2197 0.930 . S
C2206 C2204 1.378 . S
C2206 C2207 1.367 1_655 S
C2207 C2206 1.367 1_455 S
C2207 C2209 1.433 . S
C2208 C2204 1.350 1_455 S
C2208 C2205 1.463 . S
C2208 N2212 1.427 . S
C2209 H2199 0.929 . S
C2209 C2207 1.433 . S
C2209 N2212 1.384 . S
C2210 H2201 0.929 . S
C2210 C2202 1.378 . S
C2210 C2205 1.350 . S
C2211 H2198 0.929 . S
C2211 C2203 1.433 1_655 S
C2211 N2213 1.384 . S
N2212 C2208 1.427 . S
N2212 C2209 1.384 . S
N2213 C2205 1.427 1_655 S
N2213 C2211 1.384 . S
H2214 C2220 0.930 . S
H2215 C2224 0.930 . S
H2216 C2229 0.929 . S
H2217 C2227 0.929 . S
H2218 C2222 0.929 . S
H2219 C2228 0.929 . S
C2220 H2214 0.930 . S
C2220 C2221 1.367 . S
C2220 C2228 1.378 . S
C2221 C2220 1.367 . S
C2221 C2229 1.433 . S
C2222 H2218 0.929 . S
C2222 C2224 1.378 . S
C2222 C2226 1.350 . S
C2223 C2226 1.463 . S
C2223 C2228 1.350 . S
C2223 N2231 1.427 . S
C2224 H2215 0.930 . S
C2224 C2222 1.378 . S
C2224 C2225 1.367 . S
C2225 C2224 1.367 . S
C2225 C2227 1.433 . S
C2226 C2222 1.350 . S
C2226 C2223 1.463 . S
C2226 N2230 1.427 . S
C2227 H2217 0.929 . S
C2227 C2225 1.433 . S
C2227 N2230 1.384 . S
C2228 H2219 0.929 . S
C2228 C2220 1.378 . S
C2228 C2223 1.350 . S
C2229 H2216 0.929 . S
C2229 C2221 1.433 . S
C2229 N2231 1.384 . S
N2230 C2226 1.427 . S
N2230 C2227 1.384 . S
N2231 C2223 1.427 . S
N2231 C2229 1.384 . S
H2232 C2238 0.930 . S
H2233 C2242 0.930 . S
H2234 C2247 0.929 . S
H2235 C2245 0.929 . S
H2236 C2240 0.929 . S
H2237 C2246 0.929 . S
C2238 H2232 0.930 . S
C2238 C2239 1.367 . S
C2238 C2246 1.378 . S
C2239 C2238 1.367 . S
C2239 C2247 1.433 . S
C2240 H2236 0.929 . S
C2240 C2242 1.378 . S
C2240 C2244 1.350 . S
C2241 C2244 1.463 . S
C2241 C2246 1.350 . S
C2241 N2249 1.427 . S
C2242 H2233 0.930 . S
C2242 C2240 1.378 . S
C2242 C2243 1.367 . S
C2243 C2242 1.367 . S
C2243 C2245 1.433 . S
C2244 C2240 1.350 . S
C2244 C2241 1.463 . S
C2244 N2248 1.427 . S
C2245 H2235 0.929 . S
C2245 C2243 1.433 . S
C2245 N2248 1.384 . S
C2246 H2237 0.929 . S
C2246 C2238 1.378 . S
C2246 C2241 1.350 . S
C2247 H2234 0.929 . S
C2247 C2239 1.433 . S
C2247 N2249 1.384 . S
N2248 C2244 1.427 . S
N2248 C2245 1.384 . S
N2249 C2241 1.427 . S
N2249 C2247 1.384 . S
H2250 C2256 0.930 . S
H2251 C2260 0.930 . S
H2252 C2265 0.929 . S
H2253 C2263 0.929 . S
H2254 C2258 0.929 . S
H2255 C2264 0.929 . S
C2256 H2250 0.930 . S
C2256 C2257 1.367 . S
C2256 C2264 1.378 . S
C2257 C2256 1.367 . S
C2257 C2265 1.433 . S
C2258 H2254 0.929 . S
C2258 C2260 1.378 . S
C2258 C2262 1.350 . S
C2259 C2262 1.463 . S
C2259 C2264 1.350 . S
C2259 N2267 1.427 . S
C2260 H2251 0.930 . S
C2260 C2258 1.378 . S
C2260 C2261 1.367 . S
C2261 C2260 1.367 . S
C2261 C2263 1.433 . S
C2262 C2258 1.350 . S
C2262 C2259 1.463 . S
C2262 N2266 1.427 . S
C2263 H2253 0.929 . S
C2263 C2261 1.433 . S
C2263 N2266 1.384 . S
C2264 H2255 0.929 . S
C2264 C2256 1.378 . S
C2264 C2259 1.350 . S
C2265 H2252 0.929 . S
C2265 C2257 1.433 . S
C2265 N2267 1.384 . S
N2266 C2262 1.427 . S
N2266 C2263 1.384 . S
N2267 C2259 1.427 . S
N2267 C2265 1.384 . S
H2268 C2274 0.930 . S
H2269 C2278 0.930 . S
H2270 C2283 0.929 . S
H2271 C2281 0.929 . S
H2272 C2276 0.929 . S
H2273 C2282 0.929 . S
C2274 H2268 0.930 . S
C2274 C2275 1.367 . S
C2274 C2282 1.378 . S
C2275 C2274 1.367 . S
C2275 C2283 1.433 . S
C2276 H2272 0.929 . S
C2276 C2278 1.378 . S
C2276 C2280 1.350 . S
C2277 C2280 1.463 . S
C2277 C2282 1.350 . S
C2277 N2285 1.427 . S
C2278 H2269 0.930 . S
C2278 C2276 1.378 . S
C2278 C2279 1.367 . S
C2279 C2278 1.367 . S
C2279 C2281 1.433 . S
C2280 C2276 1.350 . S
C2280 C2277 1.463 . S
C2280 N2284 1.427 . S
C2281 H2271 0.929 . S
C2281 C2279 1.433 . S
C2281 N2284 1.384 . S
C2282 H2273 0.929 . S
C2282 C2274 1.378 . S
C2282 C2277 1.350 . S
C2283 H2270 0.929 . S
C2283 C2275 1.433 . S
C2283 N2285 1.384 . S
N2284 C2280 1.427 . S
N2284 C2281 1.384 . S
N2285 C2277 1.427 . S
N2285 C2283 1.384 . S
H2286 C2292 0.930 . S
H2287 C2296 0.930 . S
H2288 C2301 0.929 . S
H2289 C2299 0.929 . S
H2290 C2294 0.929 . S
H2291 C2300 0.929 . S
C2292 H2286 0.930 . S
C2292 C2293 1.367 . S
C2292 C2300 1.378 . S
C2293 C2292 1.367 . S
C2293 C2301 1.433 . S
C2294 H2290 0.929 . S
C2294 C2296 1.378 . S
C2294 C2298 1.350 . S
C2295 C2298 1.463 . S
C2295 C2300 1.350 . S
C2295 N2303 1.427 . S
C2296 H2287 0.930 . S
C2296 C2294 1.378 . S
C2296 C2297 1.367 . S
C2297 C2296 1.367 . S
C2297 C2299 1.433 . S
C2298 C2294 1.350 . S
C2298 C2295 1.463 . S
C2298 N2302 1.427 . S
C2299 H2289 0.929 . S
C2299 C2297 1.433 . S
C2299 N2302 1.384 . S
C2300 H2291 0.929 . S
C2300 C2292 1.378 . S
C2300 C2295 1.350 . S
C2301 H2288 0.929 . S
C2301 C2293 1.433 . S
C2301 N2303 1.384 . S
N2302 C2298 1.427 . S
N2302 C2299 1.384 . S
N2303 C2295 1.427 . S
N2303 C2301 1.384 . S
H2304 C2310 0.930 . S
H2305 C2314 0.930 . S
H2306 C2319 0.929 . S
H2307 C2317 0.929 . S
H2308 C2312 0.929 . S
H2309 C2318 0.929 . S
C2310 H2304 0.930 . S
C2310 C2311 1.367 . S
C2310 C2318 1.378 . S
C2311 C2310 1.367 . S
C2311 C2319 1.433 . S
C2312 H2308 0.929 . S
C2312 C2314 1.378 . S
C2312 C2316 1.350 . S
C2313 C2316 1.463 . S
C2313 C2318 1.350 . S
C2313 N2321 1.427 . S
C2314 H2305 0.930 . S
C2314 C2312 1.378 . S
C2314 C2315 1.367 . S
C2315 C2314 1.367 . S
C2315 C2317 1.433 . S
C2316 C2312 1.350 . S
C2316 C2313 1.463 . S
C2316 N2320 1.427 . S
C2317 H2307 0.929 . S
C2317 C2315 1.433 . S
C2317 N2320 1.384 . S
C2318 H2309 0.929 . S
C2318 C2310 1.378 . S
C2318 C2313 1.350 . S
C2319 H2306 0.929 . S
C2319 C2311 1.433 . S
C2319 N2321 1.384 . S
N2320 C2316 1.427 . S
N2320 C2317 1.384 . S
N2321 C2313 1.427 . S
N2321 C2319 1.384 . S
H2322 C2328 0.930 . S
H2323 C2332 0.930 . S
H2324 C2337 0.929 . S
H2325 C2335 0.929 . S
H2326 C2330 0.929 . S
H2327 C2336 0.929 . S
C2328 H2322 0.930 . S
C2328 C2329 1.367 . S
C2328 C2336 1.378 . S
C2329 C2328 1.367 . S
C2329 C2337 1.433 . S
C2330 H2326 0.929 . S
C2330 C2332 1.378 . S
C2330 C2334 1.350 . S
C2331 C2334 1.463 . S
C2331 C2336 1.350 . S
C2331 N2339 1.427 . S
C2332 H2323 0.930 . S
C2332 C2330 1.378 . S
C2332 C2333 1.367 . S
C2333 C2332 1.367 . S
C2333 C2335 1.433 . S
C2334 C2330 1.350 . S
C2334 C2331 1.463 . S
C2334 N2338 1.427 . S
C2335 H2325 0.929 . S
C2335 C2333 1.433 . S
C2335 N2338 1.384 . S
C2336 H2327 0.929 . S
C2336 C2328 1.378 . S
C2336 C2331 1.350 . S
C2337 H2324 0.929 . S
C2337 C2329 1.433 . S
C2337 N2339 1.384 . S
N2338 C2334 1.427 . S
N2338 C2335 1.384 . S
N2339 C2331 1.427 . S
N2339 C2337 1.384 . S
H2340 C2346 0.930 . S
H2341 C2350 0.930 . S
H2342 C2355 0.929 . S
H2343 C2353 0.929 . S
H2344 C2348 0.929 . S
H2345 C2354 0.929 . S
C2346 H2340 0.930 . S
C2346 C2347 1.367 . S
C2346 C2354 1.378 . S
C2347 C2346 1.367 . S
C2347 C2355 1.433 . S
C2348 H2344 0.929 . S
C2348 C2350 1.378 . S
C2348 C2352 1.350 . S
C2349 C2352 1.463 . S
C2349 C2354 1.350 . S
C2349 N2357 1.427 . S
C2350 H2341 0.930 . S
C2350 C2348 1.378 . S
C2350 C2351 1.367 . S
C2351 C2350 1.367 . S
C2351 C2353 1.433 . S
C2352 C2348 1.350 . S
C2352 C2349 1.463 . S
C2352 N2356 1.427 . S
C2353 H2343 0.929 . S
C2353 C2351 1.433 . S
C2353 N2356 1.384 . S
C2354 H2345 0.929 . S
C2354 C2346 1.378 . S
C2354 C2349 1.350 . S
C2355 H2342 0.929 . S
C2355 C2347 1.433 . S
C2355 N2357 1.384 . S
N2356 C2352 1.427 . S
N2356 C2353 1.384 . S
N2357 C2349 1.427 . S
N2357 C2355 1.384 . S
H2358 C2364 0.930 . S
H2359 C2368 0.930 . S
H2360 C2373 0.929 . S
H2361 C2371 0.929 . S
H2362 C2366 0.929 . S
H2363 C2372 0.929 . S
C2364 H2358 0.930 . S
C2364 C2365 1.367 . S
C2364 C2372 1.378 . S
C2365 C2364 1.367 . S
C2365 C2373 1.433 . S
C2366 H2362 0.929 . S
C2366 C2368 1.378 . S
C2366 C2370 1.350 . S
C2367 C2370 1.463 . S
C2367 C2372 1.350 . S
C2367 N2375 1.427 . S
C2368 H2359 0.930 . S
C2368 C2366 1.378 . S
C2368 C2369 1.367 . S
C2369 C2368 1.367 . S
C2369 C2371 1.433 . S
C2370 C2366 1.350 . S
C2370 C2367 1.463 . S
C2370 N2374 1.427 . S
C2371 H2361 0.929 . S
C2371 C2369 1.433 . S
C2371 N2374 1.384 . S
C2372 H2363 0.929 . S
C2372 C2364 1.378 . S
C2372 C2367 1.350 . S
C2373 H2360 0.929 . S
C2373 C2365 1.433 . S
C2373 N2375 1.384 . S
N2374 C2370 1.427 . S
N2374 C2371 1.384 . S
N2375 C2367 1.427 . S
N2375 C2373 1.384 . S
H2376 C2382 0.930 . S
H2377 C2386 0.930 . S
H2378 C2391 0.929 . S
H2379 C2389 0.929 . S
H2380 C2384 0.929 . S
H2381 C2390 0.929 . S
C2382 H2376 0.930 . S
C2382 C2383 1.367 . S
C2382 C2390 1.378 . S
C2383 C2382 1.367 . S
C2383 C2391 1.433 . S
C2384 H2380 0.929 . S
C2384 C2386 1.378 . S
C2384 C2388 1.350 . S
C2385 C2388 1.463 . S
C2385 C2390 1.350 . S
C2385 N2393 1.427 . S
C2386 H2377 0.930 . S
C2386 C2384 1.378 . S
C2386 C2387 1.367 . S
C2387 C2386 1.367 . S
C2387 C2389 1.433 . S
C2388 C2384 1.350 . S
C2388 C2385 1.463 . S
C2388 N2392 1.427 . S
C2389 H2379 0.929 . S
C2389 C2387 1.433 . S
C2389 N2392 1.384 . S
C2390 H2381 0.929 . S
C2390 C2382 1.378 . S
C2390 C2385 1.350 . S
C2391 H2378 0.929 . S
C2391 C2383 1.433 . S
C2391 N2393 1.384 . S
N2392 C2388 1.427 . S
N2392 C2389 1.384 . S
N2393 C2385 1.427 . S
N2393 C2391 1.384 . S
H2394 C2400 0.930 . S
H2395 C2404 0.930 . S
H2396 C2409 0.929 . S
H2397 C2407 0.929 . S
H2398 C2402 0.929 . S
H2399 C2408 0.929 . S
C2400 H2394 0.930 . S
C2400 C2401 1.367 . S
C2400 C2408 1.378 . S
C2401 C2400 1.367 . S
C2401 C2409 1.433 . S
C2402 H2398 0.929 . S
C2402 C2404 1.378 . S
C2402 C2406 1.350 . S
C2403 C2406 1.463 . S
C2403 C2408 1.350 . S
C2403 N2411 1.427 . S
C2404 H2395 0.930 . S
C2404 C2402 1.378 . S
C2404 C2405 1.367 . S
C2405 C2404 1.367 . S
C2405 C2407 1.433 . S
C2406 C2402 1.350 . S
C2406 C2403 1.463 . S
C2406 N2410 1.427 . S
C2407 H2397 0.929 . S
C2407 C2405 1.433 . S
C2407 N2410 1.384 . S
C2408 H2399 0.929 . S
C2408 C2400 1.378 . S
C2408 C2403 1.350 . S
C2409 H2396 0.929 . S
C2409 C2401 1.433 . S
C2409 N2411 1.384 . S
N2410 C2406 1.427 . S
N2410 C2407 1.384 . S
N2411 C2403 1.427 . S
N2411 C2409 1.384 . S
H2412 C2418 0.930 . S
H2413 C2422 0.930 . S
H2414 C2427 0.929 . S
H2415 C2425 0.929 . S
H2416 C2420 0.929 . S
H2417 C2426 0.929 . S
C2418 H2412 0.930 . S
C2418 C2419 1.367 . S
C2418 C2426 1.378 . S
C2419 C2418 1.367 . S
C2419 C2427 1.433 . S
C2420 H2416 0.929 . S
C2420 C2422 1.378 . S
C2420 C2424 1.350 . S
C2421 C2424 1.463 . S
C2421 C2426 1.350 . S
C2421 N2429 1.427 . S
C2422 H2413 0.930 . S
C2422 C2420 1.378 . S
C2422 C2423 1.367 . S
C2423 C2422 1.367 . S
C2423 C2425 1.433 . S
C2424 C2420 1.350 . S
C2424 C2421 1.463 . S
C2424 N2428 1.427 . S
C2425 H2415 0.929 . S
C2425 C2423 1.433 . S
C2425 N2428 1.384 . S
C2426 H2417 0.929 . S
C2426 C2418 1.378 . S
C2426 C2421 1.350 . S
C2427 H2414 0.929 . S
C2427 C2419 1.433 . S
C2427 N2429 1.384 . S
N2428 C2424 1.427 . S
N2428 C2425 1.384 . S
N2429 C2421 1.427 . S
N2429 C2427 1.384 . S
H2430 C2436 0.930 1_556 S
H2431 C2440 0.940 . S
H2432 C2445 0.929 . S
H2433 C2443 0.929 . S
H2434 C2438 0.929 . S
H2435 C2444 0.929 1_556 S
C2436 H2430 0.930 1_554 S
C2436 C2437 1.367 . S
C2436 C2444 1.378 . S
C2437 C2436 1.367 . S
C2437 C2445 1.433 . S
C2438 H2434 0.929 . S
C2438 C2440 1.378 . S
C2438 C2442 1.350 . S
C2439 C2442 1.463 . S
C2439 C2444 1.350 . S
C2439 N2447 1.427 . S
C2440 H2431 0.940 . S
C2440 C2438 1.378 . S
C2440 C2441 1.367 . S
C2441 C2440 1.367 . S
C2441 C2443 1.433 1_554 S
C2442 C2438 1.350 . S
C2442 C2439 1.463 . S
C2442 N2446 1.427 1_554 S
C2443 H2433 0.929 . S
C2443 C2441 1.433 1_556 S
C2443 N2446 1.384 . S
C2444 H2435 0.929 1_554 S
C2444 C2436 1.378 . S
C2444 C2439 1.350 . S
C2445 H2432 0.929 . S
C2445 C2437 1.433 . S
C2445 N2447 1.384 . S
N2446 C2442 1.427 1_556 S
N2446 C2443 1.384 . S
N2447 C2439 1.427 . S
N2447 C2445 1.384 . S
H2448 C2454 0.930 . S
H2449 C2458 0.930 . S
H2450 C2463 0.929 . S
H2451 C2461 0.929 . S
H2452 C2456 0.929 . S
H2453 C2462 0.929 . S
C2454 H2448 0.930 . S
C2454 C2455 1.367 . S
C2454 C2462 1.378 . S
C2455 C2454 1.367 . S
C2455 C2463 1.433 . S
C2456 H2452 0.929 . S
C2456 C2458 1.378 . S
C2456 C2460 1.350 . S
C2457 C2460 1.463 . S
C2457 C2462 1.350 . S
C2457 N2465 1.427 . S
C2458 H2449 0.930 . S
C2458 C2456 1.378 . S
C2458 C2459 1.367 . S
C2459 C2458 1.367 . S
C2459 C2461 1.433 . S
C2460 C2456 1.350 . S
C2460 C2457 1.463 . S
C2460 N2464 1.427 . S
C2461 H2451 0.929 . S
C2461 C2459 1.433 . S
C2461 N2464 1.384 . S
C2462 H2453 0.929 . S
C2462 C2454 1.378 . S
C2462 C2457 1.350 . S
C2463 H2450 0.929 . S
C2463 C2455 1.433 . S
C2463 N2465 1.384 . S
N2464 C2460 1.427 . S
N2464 C2461 1.384 . S
N2465 C2457 1.427 . S
N2465 C2463 1.384 . S
H2466 C2472 0.930 . S
H2467 C2476 0.930 . S
H2468 C2481 0.929 . S
H2469 C2479 0.929 . S
H2470 C2474 0.929 . S
H2471 C2480 0.929 . S
C2472 H2466 0.930 . S
C2472 C2473 1.367 . S
C2472 C2480 1.378 . S
C2473 C2472 1.367 . S
C2473 C2481 1.433 1_556 S
C2474 H2470 0.929 . S
C2474 C2476 1.378 . S
C2474 C2478 1.350 . S
C2475 C2478 1.463 . S
C2475 C2480 1.350 1_554 S
C2475 N2483 1.427 . S
C2476 H2467 0.930 . S
C2476 C2474 1.378 . S
C2476 C2477 1.367 . S
C2477 C2476 1.367 . S
C2477 C2479 1.433 . S
C2478 C2474 1.350 . S
C2478 C2475 1.463 . S
C2478 N2482 1.427 . S
C2479 H2469 0.929 . S
C2479 C2477 1.433 . S
C2479 N2482 1.384 . S
C2480 H2471 0.929 . S
C2480 C2472 1.378 . S
C2480 C2475 1.350 1_556 S
C2481 H2468 0.929 . S
C2481 C2473 1.433 1_554 S
C2481 N2483 1.384 . S
N2482 C2478 1.427 . S
N2482 C2479 1.384 . S
N2483 C2475 1.427 . S
N2483 C2481 1.384 . S
H2484 C2490 0.930 . S
H2485 C2494 0.930 . S
H2486 C2499 0.929 . S
H2487 C2497 0.929 . S
H2488 C2492 0.929 . S
H2489 C2498 0.929 . S
C2490 H2484 0.930 . S
C2490 C2491 1.367 . S
C2490 C2498 1.378 . S
C2491 C2490 1.367 . S
C2491 C2499 1.433 . S
C2492 H2488 0.929 . S
C2492 C2494 1.378 . S
C2492 C2496 1.350 . S
C2493 C2496 1.463 . S
C2493 C2498 1.350 . S
C2493 N2501 1.427 . S
C2494 H2485 0.930 . S
C2494 C2492 1.378 . S
C2494 C2495 1.367 . S
C2495 C2494 1.367 . S
C2495 C2497 1.433 . S
C2496 C2492 1.350 . S
C2496 C2493 1.463 . S
C2496 N2500 1.427 . S
C2497 H2487 0.929 . S
C2497 C2495 1.433 . S
C2497 N2500 1.384 . S
C2498 H2489 0.929 . S
C2498 C2490 1.378 . S
C2498 C2493 1.350 . S
C2499 H2486 0.929 . S
C2499 C2491 1.433 . S
C2499 N2501 1.384 . S
N2500 C2496 1.427 . S
N2500 C2497 1.384 . S
N2501 C2493 1.427 . S
N2501 C2499 1.384 . S
H2502 C2508 0.930 . S
H2503 C2512 0.930 . S
H2504 C2517 0.929 . S
H2505 C2515 0.929 . S
H2506 C2510 0.929 . S
H2507 C2516 0.929 . S
C2508 H2502 0.930 . S
C2508 C2509 1.367 . S
C2508 C2516 1.378 . S
C2509 C2508 1.367 . S
C2509 C2517 1.433 . S
C2510 H2506 0.929 . S
C2510 C2512 1.378 . S
C2510 C2514 1.350 . S
C2511 C2514 1.463 . S
C2511 C2516 1.350 . S
C2511 N2519 1.427 . S
C2512 H2503 0.930 . S
C2512 C2510 1.378 . S
C2512 C2513 1.367 . S
C2513 C2512 1.367 . S
C2513 C2515 1.433 . S
C2514 C2510 1.350 . S
C2514 C2511 1.463 . S
C2514 N2518 1.427 . S
C2515 H2505 0.929 . S
C2515 C2513 1.433 . S
C2515 N2518 1.384 . S
C2516 H2507 0.929 . S
C2516 C2508 1.378 . S
C2516 C2511 1.350 . S
C2517 H2504 0.929 . S
C2517 C2509 1.433 . S
C2517 N2519 1.384 . S
N2518 C2514 1.427 . S
N2518 C2515 1.384 . S
N2519 C2511 1.427 . S
N2519 C2517 1.384 . S
C803 C313 1.946 . S
C799 C10 1.980 . S
C817 C23 1.202 . S
C821 C358 1.201 . S
C835 C36 1.894 . S
C839 C382 1.871 . S
C857 N408 1.176 . S
C853 C42 1.172 . S
C871 C18 1.237 . S
C875 N438 1.245 1_455 S
C893 C472 1.784 . S
C889 C31 1.812 . S
C911 C508 1.348 1_556 S
C907 C43 1.353 . S
C925 C5 1.954 . S
C929 C532 1.923 . S
C943 C56 1.098 . S
C947 N326 1.100 . S
C961 C70 1.255 . S
C965 N348 1.260 . S
C983 C388 1.238 . S
C979 C82 1.234 . S
C1001 C412 1.964 . S
C997 C96 1.989 . S
C1015 C57 1.424 . S
C1019 C442 1.399 . S
C1037 C478 1.307 . S
C1033 C69 1.304 . S
C1055 N498 1.232 . S
C1051 C83 1.227 . S
C1073 C538 1.908 . S
C1069 C95 1.927 . S
C1091 C339 1.838 . S
C1087 C94 1.862 . S
C1109 C568 1.193 . S
C1105 C108 1.199 . S
C1123 C122 1.237 . S
C1127 N588 1.240 . S
C1145 C622 1.767 . S
C1141 C140 1.791 . S
C1159 C55 1.066 . S
C1163 N528 1.062 . S
C1181 N378 1.199 1_565 S
C1177 C68 1.194 . S
C1195 C121 1.287 . S
C1199 C658 1.290 . S
C1217 C682 1.265 . S
C1213 C153 1.286 . S
C1231 C161 1.663 . S
C1235 C322 1.636 1_556 S
C1253 C699 0.886 . S
C1249 C174 0.889 . S
C1267 C186 1.555 . S
C1271 C373 1.526 . S
C1285 C200 0.955 . S
C1289 N656 0.971 . S
C1307 N446 1.013 . S
C1303 C172 0.995 . S
C1325 C583 1.450 . S
C1321 C192 1.480 . S
C1343 C519 1.016 . S
C1339 C198 1.023 . S
C1361 C703 1.627 . S
C1357 C159 1.649 . S
C1379 N318 0.911 . S
C1375 C211 0.915 . S
C1393 C225 1.002 . S
C1397 N686 1.018 . S
C1415 C399 0.902 . S
C1411 C239 0.909 . S
C1429 C251 1.667 . S
C1433 C643 1.638 . S
C1447 C218 1.095 . S
C1451 C433 1.079 . S
C1465 C226 0.972 . S
C1469 C609 0.966 . S
C1487 N506 1.001 . S
C1483 C238 0.988 . S
C1501 C252 1.614 . S
C1505 C729 1.601 . S
C1519 C250 1.559 . S
C1523 C328 1.547 1_565 S
C1537 C264 0.877 . S
C1541 C579 0.879 . S
C1555 C276 1.015 . S
C1559 N476 1.022 . S
C1573 C290 1.468 . S
C1577 C613 1.436 . S
C1595 N716 0.871 . S
C1591 C213 0.870 1_565 S
C1613 N386 0.993 . S
C1609 C224 0.974 . S
C1631 C429 0.955 . S
C1627 C283 0.954 . S
C1649 C343 0.918 . S
C1645 C303 0.933 . S
C1663 C29 1.986 . S
C1667 C733 1.950 . S
C1685 C688 1.201 . S
C1681 C49 1.198 . S
C1703 C772 1.876 . S
C1699 C3 1.900 . S
C1717 C16 1.173 1_655 S
C1721 N648 1.175 . S
C1735 C44 1.239 . S
C1739 N558 1.246 1_556 S
C1757 C592 1.785 . S
C1753 C4 1.806 . S
C1775 C628 1.345 . S
C1771 C17 1.349 . S
C1793 C712 1.922 . S
C1789 C30 1.945 . S
C1811 N746 1.098 . S
C1807 C147 1.102 . S
C1825 C107 1.253 1_556 S
C1829 N678 1.261 . S
C1843 C127 1.238 . S
C1847 C778 1.241 1_655 S
C1865 C652 1.963 . S
C1861 C135 1.994 . S
C1883 C562 1.386 . S
C1879 C148 1.415 . S
C1897 C114 1.303 . S
C1901 C598 1.304 . S
C1919 N618 1.231 1_655 S
C1915 C120 1.225 . S
C1933 C134 1.926 . S
C1937 C718 1.910 . S
C1955 C759 1.843 . S
C1951 C133 1.865 . S
C1973 C448 1.201 . S
C1969 C75 1.197 . S
C1991 N468 1.241 . S
C1987 C81 1.232 1_565 S
C2005 C101 1.792 . S
C2009 C502 1.771 . S
C2027 N708 1.061 . S
C2023 C146 1.065 . S
C2041 C109 1.189 . S
C2045 N768 1.198 . S
C2063 C418 1.287 . S
C2059 C88 1.285 . S
C2081 C352 1.253 . S
C2077 C62 1.282 . S
C2095 C187 1.664 . S
C2099 C742 1.635 . S
C2117 C369 0.869 . S
C2113 C199 0.877 . S
C2135 C763 1.527 1_556 S
C2131 C160 1.558 . S
C2149 C173 0.951 . S
C2153 N416 0.956 . S
C2167 C205 0.987 . S
C2171 N566 1.003 . S
C2185 C166 1.483 . S
C2189 C463 1.459 . S
C2203 C179 1.015 . S
C2207 C639 1.015 . S
C2221 C185 1.646 . S
C2225 C523 1.619 . S
C2243 N738 0.912 . S
C2239 C302 0.918 . S
C2257 C270 1.016 . S
C2261 N356 1.020 . S
C2279 C789 0.909 . S
C2275 C278 0.908 . S
C2293 C296 1.674 . S
C2297 C403 1.644 . S
C2311 C309 1.098 . S
C2315 C553 1.083 . S
C2333 C489 0.969 . S
C2329 C263 0.978 . S
C2347 C277 0.992 . S
C2351 N626 1.006 . S
C2369 C549 1.601 . S
C2365 C289 1.614 . S
C2387 C748 1.543 . S
C2383 C291 1.556 . S
C2405 C459 0.875 . S
C2401 C231 0.871 . S
C2419 C237 1.003 . S
C2423 N596 1.020 . S
C2441 C493 1.433 1_565 S
C2437 C257 1.465 . S
C2459 N536 0.868 . S
C2455 C304 0.874 . S
C2473 C265 0.983 . S
C2477 N776 0.993 . S
C2495 C669 0.948 . S
C2491 C244 0.956 . S
C2513 C673 0.916 . S
C2509 C212 0.935 . S
