# Generated by pormake.
# Topology ocu, (6,8)-cn, num edge types: 1
# Building blocks:
#     Node 0, Type 0, BuildingBlock: FUNLAD_clean_sbu_0, # of connection points: 6
#     Node 1, Type 0, BuildingBlock: FUNLAD_clean_sbu_0, # of connection points: 6
#     Node 2, Type 0, BuildingBlock: FUNLAD_clean_sbu_0, # of connection points: 6
#     Node 3, Type 0, BuildingBlock: FUNLAD_clean_sbu_0, # of connection points: 6
#     Node 4, Type 0, BuildingBlock: FUNLAD_clean_sbu_0, # of connection points: 6
#     Node 5, Type 0, BuildingBlock: FUNLAD_clean_sbu_0, # of connection points: 6
#     Node 6, Type 0, BuildingBlock: FUNLAD_clean_sbu_0, # of connection points: 6
#     Node 7, Type 0, BuildingBlock: FUNLAD_clean_sbu_0, # of connection points: 6
#     Node 8, Type 1, BuildingBlock: GIZVER_clean_sbu_0, # of connection points: 8
#     Node 9, Type 1, BuildingBlock: GIZVER_clean_sbu_0, # of connection points: 8
#     Node 10, Type 1, BuildingBlock: GIZVER_clean_sbu_0, # of connection points: 8
#     Node 11, Type 1, BuildingBlock: GIZVER_clean_sbu_0, # of connection points: 8
#     Node 12, Type 1, BuildingBlock: GIZVER_clean_sbu_0, # of connection points: 8
#     Node 13, Type 1, BuildingBlock: GIZVER_clean_sbu_0, # of connection points: 8
#     Edge 14, Type (0, 1), BuildingBlock: UVAHIK_clean_linker_0, # of connection points: 2
#     Edge 15, Type (0, 1), BuildingBlock: UVAHIK_clean_linker_0, # of connection points: 2
#     Edge 16, Type (0, 1), BuildingBlock: UVAHIK_clean_linker_0, # of connection points: 2
#     Edge 17, Type (0, 1), BuildingBlock: UVAHIK_clean_linker_0, # of connection points: 2
#     Edge 18, Type (0, 1), BuildingBlock: UVAHIK_clean_linker_0, # of connection points: 2
#     Edge 19, Type (0, 1), BuildingBlock: UVAHIK_clean_linker_0, # of connection points: 2
#     Edge 20, Type (0, 1), BuildingBlock: UVAHIK_clean_linker_0, # of connection points: 2
#     Edge 21, Type (0, 1), BuildingBlock: UVAHIK_clean_linker_0, # of connection points: 2
#     Edge 22, Type (0, 1), BuildingBlock: UVAHIK_clean_linker_0, # of connection points: 2
#     Edge 23, Type (0, 1), BuildingBlock: UVAHIK_clean_linker_0, # of connection points: 2
#     Edge 24, Type (0, 1), BuildingBlock: UVAHIK_clean_linker_0, # of connection points: 2
#     Edge 25, Type (0, 1), BuildingBlock: UVAHIK_clean_linker_0, # of connection points: 2
#     Edge 26, Type (0, 1), BuildingBlock: UVAHIK_clean_linker_0, # of connection points: 2
#     Edge 27, Type (0, 1), BuildingBlock: UVAHIK_clean_linker_0, # of connection points: 2
#     Edge 28, Type (0, 1), BuildingBlock: UVAHIK_clean_linker_0, # of connection points: 2
#     Edge 29, Type (0, 1), BuildingBlock: UVAHIK_clean_linker_0, # of connection points: 2
#     Edge 30, Type (0, 1), BuildingBlock: UVAHIK_clean_linker_0, # of connection points: 2
#     Edge 31, Type (0, 1), BuildingBlock: UVAHIK_clean_linker_0, # of connection points: 2
#     Edge 32, Type (0, 1), BuildingBlock: UVAHIK_clean_linker_0, # of connection points: 2
#     Edge 33, Type (0, 1), BuildingBlock: UVAHIK_clean_linker_0, # of connection points: 2
#     Edge 34, Type (0, 1), BuildingBlock: UVAHIK_clean_linker_0, # of connection points: 2
#     Edge 35, Type (0, 1), BuildingBlock: UVAHIK_clean_linker_0, # of connection points: 2
#     Edge 36, Type (0, 1), BuildingBlock: UVAHIK_clean_linker_0, # of connection points: 2
#     Edge 37, Type (0, 1), BuildingBlock: UVAHIK_clean_linker_0, # of connection points: 2
#     Edge 38, Type (0, 1), BuildingBlock: UVAHIK_clean_linker_0, # of connection points: 2
#     Edge 39, Type (0, 1), BuildingBlock: UVAHIK_clean_linker_0, # of connection points: 2
#     Edge 40, Type (0, 1), BuildingBlock: UVAHIK_clean_linker_0, # of connection points: 2
#     Edge 41, Type (0, 1), BuildingBlock: UVAHIK_clean_linker_0, # of connection points: 2
#     Edge 42, Type (0, 1), BuildingBlock: UVAHIK_clean_linker_0, # of connection points: 2
#     Edge 43, Type (0, 1), BuildingBlock: UVAHIK_clean_linker_0, # of connection points: 2
#     Edge 44, Type (0, 1), BuildingBlock: UVAHIK_clean_linker_0, # of connection points: 2
#     Edge 45, Type (0, 1), BuildingBlock: UVAHIK_clean_linker_0, # of connection points: 2
#     Edge 46, Type (0, 1), BuildingBlock: UVAHIK_clean_linker_0, # of connection points: 2
#     Edge 47, Type (0, 1), BuildingBlock: UVAHIK_clean_linker_0, # of connection points: 2
#     Edge 48, Type (0, 1), BuildingBlock: UVAHIK_clean_linker_0, # of connection points: 2
#     Edge 49, Type (0, 1), BuildingBlock: UVAHIK_clean_linker_0, # of connection points: 2
#     Edge 50, Type (0, 1), BuildingBlock: UVAHIK_clean_linker_0, # of connection points: 2
#     Edge 51, Type (0, 1), BuildingBlock: UVAHIK_clean_linker_0, # of connection points: 2
#     Edge 52, Type (0, 1), BuildingBlock: UVAHIK_clean_linker_0, # of connection points: 2
#     Edge 53, Type (0, 1), BuildingBlock: UVAHIK_clean_linker_0, # of connection points: 2
#     Edge 54, Type (0, 1), BuildingBlock: UVAHIK_clean_linker_0, # of connection points: 2
#     Edge 55, Type (0, 1), BuildingBlock: UVAHIK_clean_linker_0, # of connection points: 2
#     Edge 56, Type (0, 1), BuildingBlock: UVAHIK_clean_linker_0, # of connection points: 2
#     Edge 57, Type (0, 1), BuildingBlock: UVAHIK_clean_linker_0, # of connection points: 2
#     Edge 58, Type (0, 1), BuildingBlock: UVAHIK_clean_linker_0, # of connection points: 2
#     Edge 59, Type (0, 1), BuildingBlock: UVAHIK_clean_linker_0, # of connection points: 2
#     Edge 60, Type (0, 1), BuildingBlock: UVAHIK_clean_linker_0, # of connection points: 2
#     Edge 61, Type (0, 1), BuildingBlock: UVAHIK_clean_linker_0, # of connection points: 2
# Relax obj value: 0.230
# Max RMSD: 0.287
# Mean RMSD: 0.223
data_MOF--net-ocu--node1-FUNLAD_clean_sbu_0--node2-GIZVER_clean_sbu_0--edge1-UVAHIK_clean_linker_0
_symmetry_space_group_name_H-M    P1
_symmetry_Int_Tables_number       1
_symmetry_cell_setting            triclinic
loop_
_symmetry_equiv_pos_as_xyz
'x, y, z'
_cell_length_a     52.853604
_cell_length_b     54.921514
_cell_length_c     39.733768
_cell_angle_alpha  84.752376
_cell_angle_beta   85.968823
_cell_angle_gamma 93.540648
loop_
_atom_site_label
_atom_site_type_symbol
_atom_site_fract_x
_atom_site_fract_y
_atom_site_fract_z
_atom_type_partial_charge
C0 C 0.22631 0.28157 0.29524 0.0
N1 N 0.21162 0.21541 0.25266 0.0
C2 C 0.19778 0.20666 0.28188 0.0
C3 C 0.17927 0.18744 0.28178 0.0
C4 C 0.17546 0.17699 0.25148 0.0
C5 C 0.18972 0.18644 0.22168 0.0
C6 C 0.20761 0.20602 0.22276 0.0
Zn7 Zn 0.2399 0.24215 0.25284 0.0
C8 C 0.23477 0.28262 0.19798 0.0
N9 N 0.29986 0.29742 0.24908 0.0
C10 C 0.30552 0.30547 0.27926 0.0
C11 C 0.31337 0.30617 0.21964 0.0
C12 C 0.33372 0.32352 0.21993 0.0
C13 C 0.34011 0.33197 0.25078 0.0
C14 C 0.32561 0.32292 0.28068 0.0
Zn15 Zn 0.27129 0.27104 0.24897 0.0
O16 O 0.21743 0.26118 0.28672 0.0
C17 C 0.27666 0.23108 0.30405 0.0
O18 O 0.24855 0.28976 0.28365 0.0
H19 H 0.30845 0.29955 0.19597 0.0
H20 H 0.20139 0.21434 0.30534 0.0
H21 H 0.29461 0.29813 0.3024 0.0
O22 O 0.25582 0.22235 0.29435 0.0
O23 O 0.28678 0.25116 0.28938 0.0
H24 H 0.21858 0.21345 0.19973 0.0
O25 O 0.29369 0.25187 0.21395 0.0
O26 O 0.26242 0.22345 0.21911 0.0
O27 O 0.25548 0.29094 0.20844 0.0
O28 O 0.22444 0.26224 0.21162 0.0
C29 C 0.28437 0.23136 0.20632 0.0
H30 H 0.16858 0.18031 0.30525 0.0
H31 H 0.18709 0.17872 0.19793 0.0
H32 H 0.34426 0.33038 0.19624 0.0
H33 H 0.33007 0.32891 0.30495 0.0
C34 C 0.71913 0.28764 0.22942 0.0
N35 N 0.7416 0.22314 0.19051 0.0
C36 C 0.71633 0.22241 0.18551 0.0
C37 C 0.70639 0.2084 0.16159 0.0
C38 C 0.72229 0.19425 0.14303 0.0
C39 C 0.74825 0.19479 0.14868 0.0
C40 C 0.75766 0.20973 0.17256 0.0
Zn41 Zn 0.75174 0.24334 0.22941 0.0
C42 C 0.79172 0.28245 0.21314 0.0
N43 N 0.76334 0.28461 0.31339 0.0
C44 C 0.7475 0.29743 0.33253 0.0
C45 C 0.78872 0.28539 0.31743 0.0
C46 C 0.79919 0.29945 0.34087 0.0
C47 C 0.78361 0.31319 0.36069 0.0
C48 C 0.75734 0.31204 0.35647 0.0
Zn49 Zn 0.75304 0.26507 0.27419 0.0
O50 O 0.72579 0.26938 0.21437 0.0
C51 C 0.713 0.22622 0.2905 0.0
O52 O 0.72834 0.29175 0.25722 0.0
H53 H 0.80129 0.27572 0.30157 0.0
H54 H 0.70348 0.23216 0.20081 0.0
H55 H 0.72742 0.2968 0.3287 0.0
O56 O 0.72222 0.22232 0.26117 0.0
O57 O 0.7221 0.24457 0.30429 0.0
H58 H 0.77759 0.21016 0.17727 0.0
O59 O 0.7772 0.23801 0.29055 0.0
O60 O 0.7781 0.21759 0.24567 0.0
O61 O 0.78365 0.28514 0.24339 0.0
O62 O 0.78148 0.26523 0.19816 0.0
C63 C 0.78523 0.22047 0.27505 0.0
H64 H 0.68617 0.20797 0.15841 0.0
H65 H 0.76096 0.18381 0.13494 0.0
H66 H 0.81961 0.30029 0.34235 0.0
H67 H 0.74466 0.32247 0.37117 0.0
C68 C 0.77201 0.72977 0.30476 0.0
N69 N 0.80013 0.79743 0.25785 0.0
C70 C 0.80136 0.80258 0.29057 0.0
C71 C 0.82111 0.8178 0.29966 0.0
C72 C 0.84006 0.82761 0.27504 0.0
C73 C 0.83866 0.82225 0.24138 0.0
C74 C 0.81818 0.80698 0.23319 0.0
Zn75 Zn 0.77105 0.77289 0.25025 0.0
C76 C 0.7855 0.73458 0.20775 0.0
N77 N 0.71007 0.71986 0.24459 0.0
C78 C 0.69273 0.70828 0.26873 0.0
C79 C 0.70899 0.71607 0.21135 0.0
C80 C 0.6904 0.70008 0.20118 0.0
C81 C 0.67239 0.68768 0.22526 0.0
C82 C 0.6734 0.69204 0.25948 0.0
Zn83 Zn 0.73885 0.74467 0.25294 0.0
O84 O 0.78268 0.74986 0.29084 0.0
C85 C 0.72382 0.78259 0.29537 0.0
O86 O 0.75119 0.72163 0.29425 0.0
H87 H 0.7225 0.72569 0.1923 0.0
H88 H 0.78729 0.79441 0.31003 0.0
H89 H 0.6938 0.71173 0.29498 0.0
O90 O 0.74624 0.79055 0.28418 0.0
O91 O 0.7148 0.76232 0.28661 0.0
H92 H 0.81694 0.80243 0.20742 0.0
O93 O 0.72715 0.76836 0.21189 0.0
O94 O 0.75928 0.79582 0.20965 0.0
O95 O 0.76318 0.72716 0.21963 0.0
O96 O 0.79511 0.75481 0.21595 0.0
C97 C 0.73844 0.78842 0.19864 0.0
H98 H 0.8219 0.82149 0.32592 0.0
H99 H 0.85322 0.82958 0.22192 0.0
H100 H 0.6899 0.69775 0.17444 0.0
H101 H 0.65964 0.68288 0.27872 0.0
C102 C 0.22189 0.7885 0.26872 0.0
N103 N 0.28573 0.77012 0.32028 0.0
C104 C 0.2861 0.79479 0.32211 0.0
C105 C 0.29925 0.80578 0.34643 0.0
C106 C 0.3129 0.79151 0.36881 0.0
C107 C 0.31257 0.76611 0.36649 0.0
C108 C 0.29851 0.75565 0.34204 0.0
Zn109 Zn 0.26741 0.75772 0.28023 0.0
C110 C 0.22648 0.71924 0.29709 0.0
N111 N 0.2293 0.73982 0.19344 0.0
C112 C 0.21744 0.75376 0.17003 0.0
C113 C 0.22828 0.71497 0.19366 0.0
C114 C 0.21496 0.70318 0.17029 0.0
C115 C 0.2022 0.71683 0.14612 0.0
C116 C 0.20358 0.74254 0.146 0.0
Zn117 Zn 0.24734 0.75263 0.2333 0.0
O118 O 0.23963 0.78319 0.28747 0.0
C119 C 0.28804 0.79123 0.21631 0.0
O120 O 0.2193 0.77772 0.24208 0.0
H121 H 0.23708 0.70394 0.21284 0.0
H122 H 0.27683 0.8063 0.30394 0.0
H123 H 0.21819 0.77346 0.17048 0.0
O124 O 0.29035 0.7847 0.24745 0.0
O125 O 0.2704 0.78065 0.20146 0.0
H126 H 0.29835 0.73615 0.33993 0.0
O127 O 0.27552 0.72764 0.22548 0.0
O128 O 0.29505 0.73197 0.27175 0.0
O129 O 0.22492 0.72536 0.26573 0.0
O130 O 0.24352 0.73021 0.31252 0.0
C131 C 0.29285 0.72175 0.24458 0.0
H132 H 0.29957 0.8255 0.34682 0.0
H133 H 0.32313 0.75457 0.3832 0.0
H134 H 0.21386 0.68333 0.17217 0.0
H135 H 0.19388 0.75376 0.12785 0.0
C136 C 0.22188 0.78944 0.73817 0.0
N137 N 0.24074 0.72482 0.69731 0.0
C138 C 0.21531 0.72475 0.69368 0.0
C139 C 0.20368 0.70881 0.67352 0.0
C140 C 0.21802 0.69209 0.65732 0.0
C141 C 0.24447 0.69323 0.65972 0.0
C142 C 0.25556 0.70987 0.68017 0.0
Zn143 Zn 0.25242 0.74449 0.7357 0.0
C144 C 0.29412 0.78186 0.71859 0.0
N145 N 0.26802 0.78462 0.8202 0.0
C146 C 0.25228 0.79864 0.8376 0.0
C147 C 0.29312 0.78443 0.82591 0.0
C148 C 0.30324 0.79833 0.84988 0.0
C149 C 0.28768 0.81326 0.86766 0.0
C150 C 0.26188 0.81347 0.86139 0.0
Zn151 Zn 0.257 0.7652 0.78109 0.0
O152 O 0.22761 0.77159 0.72172 0.0
C153 C 0.21548 0.72717 0.79794 0.0
O154 O 0.23182 0.79228 0.76588 0.0
H155 H 0.30572 0.7741 0.81107 0.0
H156 H 0.20345 0.73596 0.70813 0.0
H157 H 0.23247 0.79884 0.83241 0.0
O158 O 0.22277 0.72443 0.76747 0.0
O159 O 0.22656 0.7441 0.81262 0.0
H160 H 0.27566 0.70992 0.68372 0.0
O161 O 0.28179 0.7382 0.7951 0.0
O162 O 0.27769 0.71756 0.75079 0.0
O163 O 0.28727 0.78505 0.74916 0.0
O164 O 0.28241 0.76519 0.70417 0.0
C165 C 0.28759 0.72042 0.77852 0.0
H166 H 0.18329 0.70881 0.67191 0.0
H167 H 0.25616 0.68055 0.64755 0.0
H168 H 0.32336 0.79816 0.85354 0.0
H169 H 0.24943 0.82504 0.87453 0.0
C170 C 0.27216 0.22452 0.8007 0.0
N171 N 0.29972 0.29342 0.7548 0.0
C172 C 0.3037 0.29629 0.78772 0.0
C173 C 0.3247 0.31034 0.79586 0.0
C174 C 0.34177 0.3218 0.76996 0.0
C175 C 0.33712 0.31936 0.73607 0.0
C176 C 0.31577 0.30476 0.72896 0.0
Zn177 Zn 0.26979 0.26935 0.74854 0.0
C178 C 0.28223 0.23191 0.70336 0.0
N179 N 0.20752 0.21718 0.7459 0.0
C180 C 0.19182 0.20519 0.77163 0.0
C181 C 0.20353 0.2146 0.71291 0.0
C182 C 0.18295 0.20009 0.7046 0.0
C183 C 0.16635 0.18779 0.73038 0.0
C184 C 0.17093 0.19004 0.76433 0.0
Zn185 Zn 0.23745 0.2412 0.75225 0.0
O186 O 0.28288 0.24493 0.7878 0.0
C187 C 0.22531 0.2788 0.7975 0.0
O188 O 0.25093 0.21722 0.79065 0.0
H189 H 0.21619 0.2241 0.69274 0.0
H190 H 0.29083 0.28719 0.80797 0.0
H191 H 0.19535 0.20755 0.79767 0.0
O192 O 0.24724 0.28667 0.78442 0.0
O193 O 0.21546 0.25869 0.78916 0.0
H194 H 0.3123 0.30212 0.70299 0.0
O195 O 0.22426 0.26539 0.71402 0.0
O196 O 0.25614 0.29322 0.70893 0.0
O197 O 0.26003 0.22407 0.71554 0.0
O198 O 0.29202 0.25174 0.71254 0.0
C199 C 0.23466 0.28553 0.6999 0.0
H200 H 0.32775 0.31207 0.82225 0.0
H201 H 0.35006 0.32814 0.71556 0.0
H202 H 0.18002 0.19844 0.67815 0.0
H203 H 0.15841 0.18052 0.78474 0.0
C204 C 0.71731 0.28805 0.7609 0.0
N205 N 0.78385 0.26742 0.80412 0.0
C206 C 0.78397 0.29187 0.80763 0.0
C207 C 0.79875 0.3024 0.8307 0.0
C208 C 0.81433 0.28793 0.84997 0.0
C209 C 0.8142 0.26274 0.84602 0.0
C210 C 0.79847 0.25272 0.82298 0.0
Zn211 Zn 0.76328 0.25636 0.76527 0.0
C212 C 0.72253 0.21843 0.78362 0.0
N213 N 0.71978 0.24272 0.68129 0.0
C214 C 0.70621 0.25759 0.66109 0.0
C215 C 0.71922 0.21816 0.67843 0.0
C216 C 0.70522 0.20772 0.65448 0.0
C217 C 0.69087 0.2224 0.63359 0.0
C218 C 0.69126 0.24766 0.63708 0.0
Zn219 Zn 0.74027 0.25386 0.72027 0.0
O220 O 0.73552 0.28103 0.77775 0.0
C221 C 0.78104 0.29207 0.70246 0.0
O222 O 0.71353 0.27932 0.73301 0.0
H223 H 0.72911 0.20629 0.69541 0.0
H224 H 0.77336 0.30368 0.79152 0.0
H225 H 0.70654 0.27698 0.66404 0.0
O226 O 0.78422 0.2847 0.73303 0.0
O227 O 0.76296 0.282 0.68785 0.0
H228 H 0.79853 0.23342 0.81944 0.0
O229 O 0.76754 0.22878 0.70834 0.0
O230 O 0.79051 0.23154 0.75181 0.0
O231 O 0.71824 0.22635 0.7536 0.0
O232 O 0.74178 0.22746 0.79698 0.0
C233 C 0.78635 0.22235 0.72437 0.0
H234 H 0.79885 0.322 0.83231 0.0
H235 H 0.82627 0.25109 0.86029 0.0
H236 H 0.70487 0.18808 0.65318 0.0
H237 H 0.68013 0.25949 0.62157 0.0
C238 C 0.72899 0.78072 0.7981 0.0
N239 N 0.71117 0.71468 0.75645 0.0
C240 C 0.69887 0.70599 0.78675 0.0
C241 C 0.6782 0.6888 0.78802 0.0
C242 C 0.67021 0.68046 0.75782 0.0
C243 C 0.68353 0.68941 0.72699 0.0
C244 C 0.70401 0.70668 0.72687 0.0
Zn245 Zn 0.74008 0.74097 0.75448 0.0
C246 C 0.73307 0.78103 0.70047 0.0
N247 N 0.80016 0.79647 0.74727 0.0
C248 C 0.80752 0.80409 0.77697 0.0
C249 C 0.81013 0.80758 0.71685 0.0
C250 C 0.82776 0.82767 0.71555 0.0
C251 C 0.83523 0.83625 0.74583 0.0
C252 C 0.82524 0.82398 0.77683 0.0
Zn253 Zn 0.77179 0.7696 0.74921 0.0
O254 O 0.71927 0.76027 0.7908 0.0
C255 C 0.77843 0.7293 0.80331 0.0
O256 O 0.75071 0.78857 0.78434 0.0
H257 H 0.80401 0.80117 0.6936 0.0
H258 H 0.70497 0.71257 0.80991 0.0
H259 H 0.79915 0.79512 0.80088 0.0
O260 O 0.75741 0.72091 0.79381 0.0
O261 O 0.7885 0.74965 0.78925 0.0
H262 H 0.71399 0.71396 0.70304 0.0
O263 O 0.79297 0.75035 0.71396 0.0
O264 O 0.76128 0.72224 0.71835 0.0
O265 O 0.75445 0.78928 0.70904 0.0
O266 O 0.72298 0.761 0.71536 0.0
C267 C 0.78336 0.73014 0.7057 0.0
H268 H 0.66864 0.68202 0.81238 0.0
H269 H 0.67784 0.68353 0.70318 0.0
H270 H 0.83538 0.83647 0.69112 0.0
H271 H 0.83045 0.83017 0.80068 0.0
Co272 Co 0.04132 0.95429 0.4888 0.0
Co273 Co 0.05341 0.98189 0.53438 0.0
Co274 Co 0.00757 1.00415 0.50044 0.0
O275 O 0.04 0.98835 0.4938 0.0
H276 H 0.05225 0.99834 0.4784 0.0
O277 O 0.9751 0.01994 0.50719 0.0
Co278 Co 0.97336 0.05362 0.51441 0.0
Co279 Co 0.96126 0.02758 0.46709 0.0
H280 H 0.96282 0.00956 0.52205 0.0
O281 O 0.0871 0.97849 0.53716 0.0
O282 O 0.056 0.94852 0.53403 0.0
O283 O 0.03366 0.98896 0.5745 0.0
O284 O 0.99834 0.98768 0.54747 0.0
O285 O 0.02637 0.03094 0.51983 0.0
O286 O 0.96862 0.08395 0.52441 0.0
O287 O 0.94212 0.04996 0.5355 0.0
O288 O 0.00715 0.06146 0.49497 0.0
O289 O 0.01678 0.0205 0.45333 0.0
O290 O 0.98114 0.02201 0.42665 0.0
O291 O 0.95907 0.06081 0.46928 0.0
O292 O 0.92737 0.03185 0.46473 0.0
C293 C 0.06636 0.93364 0.46527 0.0
C294 C 0.98945 0.95472 0.49149 0.0
C295 C 0.00963 0.9875 0.57487 0.0
C296 C 0.079 0.95547 0.54122 0.0
C297 C 0.94747 0.07309 0.53872 0.0
C298 C 0.0253 0.05372 0.51154 0.0
C299 C 0.00514 0.02212 0.42618 0.0
C300 C 0.93588 0.05473 0.46214 0.0
O301 O 0.04526 0.92358 0.48073 0.0
O302 O 0.07258 0.95679 0.46734 0.0
O303 O 0.98882 0.97726 0.4813 0.0
O304 O 0.00749 0.94736 0.50862 0.0
Co305 Co 0.53932 0.95541 0.99406 0.0
Co306 Co 0.53518 0.97187 0.05254 0.0
Co307 Co 0.50492 0.0054 1.0009 0.0
O308 O 0.53577 0.98729 0.00925 0.0
H309 H 0.55119 0.99778 0.00445 0.0
O310 O 0.47421 0.02365 0.9924 0.0
Co311 Co 0.4713 0.05599 0.00642 0.0
Co312 Co 0.47486 0.03829 0.94856 0.0
H313 H 0.45867 0.01336 0.99771 0.0
O314 O 0.56544 0.96888 0.07147 0.0
O315 O 0.54519 0.94195 0.04099 0.0
O316 O 0.503 0.96637 0.07822 0.0
O317 O 0.48171 0.98622 0.03899 0.0
O318 O 0.51705 0.02996 0.03128 0.0
O319 O 0.46617 0.08499 0.0202 0.0
O320 O 0.43704 0.05379 0.01704 0.0
O321 O 0.5071 0.06256 0.99921 0.0
O322 O 0.52808 0.0245 0.96284 0.0
O323 O 0.50685 0.04232 0.92187 0.0
O324 O 0.46574 0.06885 0.95897 0.0
O325 O 0.44459 0.04162 0.92986 0.0
C326 C 0.56834 0.93611 0.97511 0.0
C327 C 0.48835 0.95841 0.98243 0.0
C328 C 0.48224 0.97235 0.06671 0.0
C329 C 0.56449 0.94818 0.05799 0.0
C330 C 0.44273 0.07604 0.02473 0.0
C331 C 0.52168 0.05238 0.01971 0.0
C332 C 0.52758 0.0371 0.93412 0.0
C333 C 0.44624 0.06273 0.94222 0.0
O334 O 0.54501 0.9268 0.97929 0.0
O335 O 0.57359 0.95832 0.98327 0.0
O336 O 0.49274 0.9808 0.97061 0.0
O337 O 0.50373 0.94815 1.00165 0.0
Co338 Co 0.03874 0.45514 0.99616 0.0
Co339 Co 0.03598 0.47286 0.05435 0.0
Co340 Co 1.00347 0.50435 0.0034 0.0
O341 O 0.03532 0.48731 0.01029 0.0
H342 H 0.05043 0.49806 0.00419 0.0
O343 O 0.97156 0.52153 0.99653 0.0
Co344 Co 0.96836 0.55378 0.01101 0.0
Co345 Co 0.9708 0.53613 0.9524 0.0
H346 H 0.95641 0.51082 0.00272 0.0
O347 O 0.067 0.46915 0.07179 0.0
O348 O 0.04497 0.44246 0.04307 0.0
O349 O 0.00425 0.46689 0.08155 0.0
O350 O 0.9816 0.48354 0.04132 0.0
O351 O 0.01545 0.52873 0.0345 0.0
O352 O 0.96339 0.58261 0.02503 0.0
O353 O 0.93402 0.55157 0.02223 0.0
O354 O 1.00345 0.56054 0.00286 0.0
O355 O 0.02528 0.52526 0.96558 0.0
O356 O 1.0026 0.54179 0.92526 0.0
O357 O 0.96286 0.56678 0.96415 0.0
O358 O 0.93976 0.54139 0.93497 0.0
C359 C 0.06736 0.43541 0.97709 0.0
C360 C 0.98903 0.45696 0.98325 0.0
C361 C 0.98304 0.47058 0.06958 0.0
C362 C 0.06487 0.4482 0.05912 0.0
C363 C 0.93993 0.57383 0.02984 0.0
C364 C 0.01768 0.55162 0.02461 0.0
C365 C 0.02381 0.53822 0.93732 0.0
C366 C 0.94283 0.56216 0.94786 0.0
O367 O 0.04403 0.42624 0.98227 0.0
O368 O 0.07294 0.45777 0.98449 0.0
O369 O 0.9917 0.47971 0.97239 0.0
O370 O 1.00353 0.44814 0.00481 0.0
Co371 Co 0.53693 0.45577 0.98245 0.0
Co372 Co 0.55036 0.48084 0.03024 0.0
Co373 Co 0.503 0.504 0.0032 0.0
O374 O 0.5355 0.48934 0.99117 0.0
H375 H 0.54702 0.5003 0.97597 0.0
O376 O 0.47047 0.51871 0.01535 0.0
Co377 Co 0.46963 0.55246 0.02385 0.0
Co378 Co 0.45563 0.52735 0.97637 0.0
H379 H 0.45897 0.50787 0.03071 0.0
O380 O 0.58413 0.47671 0.03061 0.0
O381 O 0.55222 0.44769 0.02676 0.0
O382 O 0.53211 0.48615 0.07248 0.0
O383 O 0.49586 0.48353 0.0479 0.0
O384 O 0.52214 0.5289 0.02595 0.0
O385 O 0.46664 0.58266 0.03487 0.0
O386 O 0.43899 0.54959 0.04726 0.0
O387 O 0.5026 0.55937 0.00245 0.0
O388 O 0.51021 0.52445 0.95849 0.0
O389 O 0.47393 0.52275 0.93381 0.0
O390 O 0.45334 0.56041 0.98027 0.0
O391 O 0.42182 0.53091 0.97666 0.0
C392 C 0.56197 0.43633 0.95655 0.0
C393 C 0.48561 0.45619 0.98571 0.0
C394 C 0.50807 0.48332 0.07453 0.0
C395 C 0.57554 0.45383 0.03351 0.0
C396 C 0.44576 0.57244 0.05073 0.0
C397 C 0.52003 0.55178 0.02044 0.0
C398 C 0.49798 0.5255 0.93187 0.0
C399 C 0.42999 0.55391 0.97402 0.0
O400 O 0.54084 0.42571 0.97115 0.0
O401 O 0.56802 0.45925 0.96041 0.0
O402 O 0.48379 0.47915 0.98044 0.0
O403 O 0.50346 0.44815 0.00261 0.0
Co404 Co 0.05407 0.47117 0.49953 0.0
Co405 Co 0.03354 0.47721 0.44264 0.0
Co406 Co 1.00285 0.50561 0.49807 0.0
O407 O 0.01996 0.47541 0.48726 0.0
H408 H 0.0089 0.46069 0.49265 0.0
O409 O 0.98584 0.53592 0.50894 0.0
Co410 Co 0.95192 0.5408 0.49641 0.0
Co411 Co 0.97229 0.53425 0.55365 0.0
H412 H 0.99707 0.55055 0.50372 0.0
O413 O 0.03638 0.44863 0.42222 0.0
O414 O 0.06553 0.46745 0.4516 0.0
O415 O 0.039 0.50916 0.41814 0.0
O416 O 0.02287 0.52856 0.46074 0.0
O417 O 0.97578 0.49642 0.46781 0.0
O418 O 0.92163 0.54727 0.48417 0.0
O419 O 0.95491 0.5742 0.48802 0.0
O420 O 0.94412 0.50688 0.50184 0.0
O421 O 0.98278 0.48275 0.53534 0.0
O422 O 0.96699 0.50228 0.57807 0.0
O423 O 0.94025 0.54378 0.54444 0.0
O424 O 0.96885 0.56288 0.57423 0.0
C425 C 0.07504 0.44273 0.51589 0.0
C426 C 0.0531 0.51796 0.51617 0.0
C427 C 0.03543 0.52875 0.43189 0.0
C428 C 0.05872 0.44957 0.43395 0.0
C429 C 0.93135 0.56971 0.48092 0.0
C430 C 0.9524 0.49404 0.47895 0.0
C431 C 0.97041 0.48266 0.56431 0.0
C432 C 0.9466 0.56168 0.56231 0.0
O433 O 0.08459 0.46524 0.51169 0.0
O434 O 0.05149 0.43786 0.50903 0.0
O435 O 0.02998 0.51457 0.52832 0.0
O436 O 0.06142 0.50527 0.49309 0.0
Co437 Co 0.55538 0.97316 0.50794 0.0
Co438 Co 0.53657 0.97959 0.45036 0.0
Co439 Co 0.50242 0.00554 0.50458 0.0
O440 O 0.52164 0.97677 0.49403 0.0
H441 H 0.51111 0.96161 0.49824 0.0
O442 O 0.4833 0.03446 0.51486 0.0
Co443 Co 0.45007 0.0385 0.49939 0.0
Co444 Co 0.46767 0.03234 0.55789 0.0
H445 H 0.49402 0.0495 0.51089 0.0
O446 O 0.53952 0.95174 0.42928 0.0
O447 O 0.5684 0.97006 0.45995 0.0
O448 O 0.54068 0.0115 0.42616 0.0
O449 O 0.52134 0.02976 0.46766 0.0
O450 O 0.47669 0.99526 0.47351 0.0
O451 O 0.42033 0.04489 0.48442 0.0
O452 O 0.45317 0.07165 0.49122 0.0
O453 O 0.44251 1.00384 0.50436 0.0
O454 O 0.48332 0.98138 0.54174 0.0
O455 O 0.46305 1.00056 0.58166 0.0
O456 O 0.4361 0.04172 0.54668 0.0
O457 O 0.46372 0.06051 0.57848 0.0
C458 C 0.57626 0.94471 0.52393 0.0
C459 C 0.55114 0.02151 0.52339 0.0
C460 C 0.5347 0.03074 0.43928 0.0
C461 C 0.56173 0.95251 0.44147 0.0
C462 C 0.4301 0.06734 0.4823 0.0
C463 C 0.45374 0.98983 0.48514 0.0
C464 C 0.46927 0.98101 0.56957 0.0
C465 C 0.44199 0.05953 0.56506 0.0
O466 O 0.58563 0.96729 0.52143 0.0
O467 O 0.55298 0.93993 0.51606 0.0
O468 O 0.52832 0.01573 0.53547 0.0
O469 O 0.56221 0.00796 0.50325 0.0
C470 C 0.13165 0.1572 0.2609 0.0
C471 C 0.15747 0.15551 0.25149 0.0
C472 C 0.11512 0.13618 0.26506 0.0
C473 C 0.08359 0.08728 0.26306 0.0
H474 H 0.10481 0.04932 0.3419 0.0
C475 C 0.04328 0.01664 0.38804 0.0
C476 C 0.02027 0.02754 0.39368 0.0
C477 C 0.05947 0.02437 0.35927 0.0
C478 C 0.09862 0.05889 0.31923 0.0
H479 H 0.18639 0.13122 0.23764 0.0
H480 H 0.15751 0.09402 0.24648 0.0
H481 H 0.13498 0.07839 0.30879 0.0
H482 H 0.99521 0.05387 0.37318 0.0
H483 H 0.02398 0.06871 0.32446 0.0
H484 H 0.04707 0.06814 0.27368 0.0
C485 C 0.15001 0.11165 0.24971 0.0
C486 C 0.11605 0.07571 0.3003 0.0
C487 C 0.16643 0.13279 0.24481 0.0
C488 C 0.01292 0.04521 0.36927 0.0
C489 C 0.02942 0.05351 0.34107 0.0
C490 C 0.06625 0.06995 0.28148 0.0
C491 C 0.12436 0.11317 0.26058 0.0
C492 C 0.10828 0.09093 0.27326 0.0
C493 C 0.05337 0.04384 0.33631 0.0
C494 C 0.07311 0.05663 0.31109 0.0
H495 H 0.12448 0.17464 0.26614 0.0
H496 H 0.09549 0.1377 0.27402 0.0
H497 H 0.07733 0.09876 0.24203 0.0
H498 H 0.04906 1.0026 0.40635 0.0
H499 H 0.07729 0.01586 0.35597 0.0
C500 C 0.80657 0.20621 0.32642 0.0
C501 C 0.80191 0.20352 0.29247 0.0
C502 C 0.8213 0.19008 0.34413 0.0
C503 C 0.87102 0.14771 0.3357 0.0
H504 H 0.84383 0.12085 0.42567 0.0
C505 C 0.93131 0.096 0.43153 0.0
C506 C 0.92012 0.07341 0.44672 0.0
C507 C 0.91694 0.11215 0.41281 0.0
C508 C 0.85164 0.12815 0.40058 0.0
H509 H 0.80968 0.18203 0.25026 0.0
H510 H 0.83599 0.1537 0.28151 0.0
H511 H 0.81863 0.14757 0.391 0.0
H512 H 0.88488 0.05055 0.45559 0.0
H513 H 0.85979 0.07892 0.42352 0.0
H514 H 0.90415 0.12832 0.3455 0.0
C515 C 0.82795 0.16841 0.29419 0.0
C516 C 0.83729 0.1435 0.3808 0.0
C517 C 0.81287 0.18452 0.27639 0.0
C518 C 0.89407 0.0678 0.44412 0.0
C519 C 0.87968 0.08405 0.42579 0.0
C520 C 0.88555 0.13252 0.35569 0.0
C521 C 0.83197 0.1709 0.32838 0.0
C522 C 0.84685 0.15352 0.34824 0.0
C523 C 0.89107 0.10616 0.4094 0.0
C524 C 0.87599 0.12263 0.38835 0.0
H525 H 0.79857 0.22067 0.33967 0.0
H526 H 0.8244 0.19265 0.37028 0.0
H527 H 0.87888 0.15533 0.31077 0.0
H528 H 0.95136 0.10081 0.43299 0.0
H529 H 0.92611 0.12924 0.40077 0.0
C530 C 0.88283 0.83147 0.29655 0.0
C531 C 0.86121 0.84271 0.28607 0.0
C532 C 0.89884 0.84298 0.31771 0.0
C533 C 0.89241 0.8845 0.38367 0.0
H534 H 0.96588 0.88622 0.38277 0.0
C535 C 0.94988 0.94536 0.4638 0.0
C536 C 0.97221 0.93715 0.47678 0.0
C537 C 0.93596 0.9311 0.44347 0.0
C538 C 0.94532 0.88542 0.38366 0.0
H539 H 0.84005 0.87511 0.28714 0.0
H540 H 0.8684 0.89566 0.32329 0.0
H541 H 0.94446 0.86888 0.33683 0.0
H542 H 0.99648 0.90674 0.48075 0.0
H543 H 0.972 0.88165 0.44492 0.0
H544 H 0.8931 0.90104 0.43026 0.0
C545 C 0.87286 0.87788 0.31566 0.0
C546 C 0.93311 0.8757 0.35725 0.0
C547 C 0.85688 0.86636 0.29461 0.0
C548 C 0.9794 0.91359 0.47097 0.0
C549 C 0.96554 0.89933 0.45024 0.0
C550 C 0.90454 0.89409 0.41003 0.0
C551 C 0.89323 0.86577 0.32878 0.0
C552 C 0.90657 0.87562 0.35669 0.0
C553 C 0.94408 0.90829 0.43555 0.0
C554 C 0.93114 0.89509 0.41001 0.0
H555 H 0.8861 0.81298 0.29073 0.0
H556 H 0.91437 0.83322 0.32749 0.0
H557 H 0.87185 0.88399 0.38446 0.0
H558 H 0.94379 0.96339 0.46801 0.0
H559 H 0.91962 0.9386 0.4324 0.0
C560 C 0.21413 0.82659 0.2955 0.0
C561 C 0.20454 0.80682 0.27906 0.0
C562 C 0.1977 0.84217 0.31019 0.0
C563 C 0.13631 0.83976 0.35416 0.0
H564 H 0.14552 0.91071 0.34659 0.0
C565 C 0.07165 0.89735 0.43292 0.0
C566 C 0.08228 0.91899 0.44405 0.0
C567 C 0.08562 0.88436 0.41042 0.0
C568 C 0.14291 0.8909 0.34938 0.0
H569 H 0.1705 0.7882 0.26385 0.0
H570 H 0.14139 0.81525 0.29071 0.0
H571 H 0.17098 0.88764 0.30865 0.0
H572 H 0.11612 0.94367 0.44115 0.0
H573 H 0.14109 0.92033 0.40304 0.0
H574 H 0.10941 0.84262 0.39599 0.0
C575 C 0.16171 0.81877 0.29169 0.0
C576 C 0.15728 0.87777 0.32736 0.0
C577 C 0.17827 0.80345 0.27624 0.0
C578 C 0.10742 0.92708 0.43288 0.0
C579 C 0.12161 0.91382 0.41076 0.0
C580 C 0.12226 0.85283 0.37656 0.0
C581 C 0.17133 0.83796 0.30931 0.0
C582 C 0.15418 0.85209 0.32972 0.0
C583 C 0.11076 0.89243 0.39892 0.0
C584 C 0.12548 0.87858 0.37463 0.0
H585 H 0.23436 0.82956 0.29791 0.0
H586 H 0.20555 0.8567 0.32385 0.0
H587 H 0.13397 0.81993 0.35689 0.0
H588 H 0.05217 0.89081 0.44071 0.0
H589 H 0.0764 0.86829 0.40145 0.0
C590 C 0.18614 0.79833 0.70267 0.0
C591 C 0.20423 0.80668 0.724 0.0
C592 C 0.17123 0.81472 0.68565 0.0
C593 C 0.17412 0.87706 0.64809 0.0
H594 H 0.10152 0.86551 0.64203 0.0
C595 C 0.11586 0.94646 0.57512 0.0
C596 C 0.09478 0.9378 0.55887 0.0
C597 C 0.12911 0.93042 0.59539 0.0
C598 C 0.12186 0.8688 0.64298 0.0
H599 H 0.22044 0.83854 0.7452 0.0
H600 H 0.19457 0.86756 0.71455 0.0
H601 H 0.12365 0.83818 0.68007 0.0
H602 H 0.07185 0.90529 0.54982 0.0
H603 H 0.09567 0.877 0.58428 0.0
H604 H 0.17276 0.907 0.61016 0.0
C605 C 0.19191 0.84822 0.71135 0.0
C606 C 0.13444 0.85329 0.66505 0.0
C607 C 0.20655 0.83167 0.72898 0.0
C608 C 0.08791 0.91254 0.5622 0.0
C609 C 0.10143 0.89638 0.58222 0.0
C610 C 0.16164 0.89236 0.62566 0.0
C611 C 0.1744 0.83988 0.68917 0.0
C612 C 0.16067 0.8573 0.66779 0.0
C613 C 0.12192 0.90521 0.59959 0.0
C614 C 0.13533 0.88846 0.62281 0.0
H615 H 0.18389 0.77912 0.69851 0.0
H616 H 0.158 0.80785 0.66856 0.0
H617 H 0.19446 0.88024 0.64928 0.0
H618 H 0.12161 0.96584 0.57333 0.0
H619 H 0.14448 0.93801 0.6087 0.0
C620 C 0.12531 0.18376 0.70435 0.0
C621 C 0.14494 0.17244 0.72039 0.0
C622 C 0.10968 0.17059 0.68452 0.0
C623 C 0.11652 0.12199 0.62986 0.0
H624 H 0.04427 0.12512 0.62035 0.0
C625 C 0.06256 0.0618 0.54466 0.0
C626 C 0.0417 0.07075 0.52858 0.0
C627 C 0.0753 0.07567 0.56661 0.0
C628 C 0.06455 0.12445 0.62233 0.0
H629 H 0.16283 0.13846 0.73038 0.0
H630 H 0.13531 0.11518 0.69588 0.0
H631 H 0.0636 0.14444 0.66631 0.0
H632 H 0.01904 0.10212 0.52096 0.0
H633 H 0.04174 0.12671 0.55908 0.0
H634 H 0.1178 0.10256 0.58569 0.0
C635 C 0.13201 0.13421 0.69857 0.0
C636 C 0.07552 0.13528 0.64884 0.0
C637 C 0.1475 0.14735 0.71863 0.0
C638 C 0.03496 0.09466 0.53311 0.0
C639 C 0.04777 0.10862 0.55522 0.0
C640 C 0.10565 0.1114 0.60326 0.0
C641 C 0.11377 0.14602 0.6801 0.0
C642 C 0.10156 0.13387 0.65306 0.0
C643 C 0.06763 0.09897 0.57292 0.0
C644 C 0.07949 0.11225 0.59937 0.0
H645 H 0.12342 0.20325 0.70498 0.0
H646 H 0.09587 0.18017 0.67045 0.0
H647 H 0.1368 0.12124 0.63192 0.0
H648 H 0.06835 0.04349 0.54158 0.0
H649 H 0.09035 0.06755 0.57995 0.0
C650 C 0.82484 0.1975 0.72567 0.0
C651 C 0.80293 0.20447 0.71026 0.0
C652 C 0.84052 0.18103 0.71103 0.0
C653 C 0.84083 0.13473 0.64844 0.0
H654 H 0.91369 0.15002 0.63962 0.0
C655 C 0.9097 0.07449 0.57996 0.0
C656 C 0.93004 0.08682 0.55929 0.0
C657 C 0.89441 0.08726 0.60135 0.0
C658 C 0.89336 0.14558 0.64173 0.0
H659 H 0.78014 0.19938 0.66764 0.0
H660 H 0.80742 0.17129 0.64219 0.0
H661 H 0.88644 0.17484 0.67252 0.0
H662 H 0.94995 0.12231 0.54422 0.0
H663 H 0.92284 0.14468 0.58074 0.0
H664 H 0.84751 0.10627 0.61636 0.0
C665 C 0.81241 0.17809 0.66578 0.0
C666 C 0.87779 0.15958 0.66101 0.0
C667 C 0.79686 0.19443 0.68029 0.0
C668 C 0.93448 0.11225 0.55995 0.0
C669 C 0.91909 0.12504 0.58116 0.0
C670 C 0.85635 0.12083 0.62904 0.0
C671 C 0.83444 0.17121 0.68085 0.0
C672 C 0.8513 0.15461 0.66399 0.0
C673 C 0.89903 0.11267 0.60236 0.0
C674 C 0.88275 0.12636 0.62495 0.0
H675 H 0.82998 0.2049 0.7488 0.0
H676 H 0.85733 0.17594 0.72333 0.0
H677 H 0.8205 0.1302 0.65068 0.0
H678 H 0.90592 0.05486 0.58021 0.0
H679 H 0.87926 0.07713 0.61757 0.0
C680 C 0.87372 0.85832 0.76523 0.0
C681 C 0.853 0.85821 0.74492 0.0
C682 C 0.89164 0.87838 0.76199 0.0
C683 C 0.90477 0.9424 0.72215 0.0
H684 H 0.97156 0.92073 0.69852 0.0
C685 C 0.96781 0.98364 0.60865 0.0
C686 C 0.99429 0.9823 0.60753 0.0
C687 C 0.95269 0.97533 0.63807 0.0
C688 C 0.95333 0.92739 0.70597 0.0
H689 H 0.83365 0.87952 0.70728 0.0
H690 H 0.86501 0.91423 0.70114 0.0
H691 H 0.93944 0.89205 0.72914 0.0
H692 H 0.02593 0.97329 0.63727 0.0
H693 H 0.99935 0.9585 0.68877 0.0
H694 H 0.91825 0.97732 0.69672 0.0
C695 C 0.86745 0.89903 0.71973 0.0
C696 C 0.93485 0.91087 0.72356 0.0
C697 C 0.8497 0.87898 0.7228 0.0
C698 C 0.00553 0.97427 0.63724 0.0
C699 C 0.99034 0.96582 0.66672 0.0
C700 C 0.92328 0.95895 0.70459 0.0
C701 C 0.88896 0.8987 0.73863 0.0
C702 C 0.90997 0.91783 0.72999 0.0
C703 C 0.96371 0.96544 0.66701 0.0
C704 C 0.94725 0.95114 0.69454 0.0
H705 H 0.87665 0.84252 0.78254 0.0
H706 H 0.908 0.87767 0.77691 0.0
H707 H 0.88586 0.94837 0.72747 0.0
H708 H 0.95859 0.99009 0.58633 0.0
H709 H 0.93224 0.97507 0.63724 0.0
C710 C 0.28809 0.19311 0.17711 0.0
C711 C 0.29878 0.21615 0.1837 0.0
C712 C 0.30167 0.17804 0.15703 0.0
C713 C 0.35555 0.17833 0.09255 0.0
H714 H 0.35551 0.10936 0.12411 0.0
C715 C 0.42999 0.11647 0.04143 0.0
C716 C 0.42319 0.09169 0.03808 0.0
C717 C 0.41269 0.13138 0.0559 0.0
C718 C 0.35537 0.12845 0.11455 0.0
H719 H 0.33208 0.24154 0.17376 0.0
H720 H 0.35592 0.21513 0.13857 0.0
H721 H 0.33002 0.13618 0.15607 0.0
H722 H 0.3924 0.06338 0.0463 0.0
H723 H 0.36184 0.08962 0.07167 0.0
H724 H 0.38103 0.17068 0.05117 0.0
C725 C 0.33688 0.20884 0.14889 0.0
C726 C 0.34082 0.14388 0.13297 0.0
C727 C 0.32329 0.22393 0.16917 0.0
C728 C 0.39827 0.08235 0.04868 0.0
C729 C 0.38084 0.09735 0.06336 0.0
C730 C 0.37001 0.1629 0.07406 0.0
C731 C 0.3263 0.18561 0.14285 0.0
C732 C 0.341 0.16907 0.12244 0.0
C733 C 0.38798 0.12202 0.06745 0.0
C734 C 0.37044 0.13783 0.08511 0.0
H735 H 0.2692 0.18651 0.18772 0.0
H736 H 0.29281 0.16045 0.1525 0.0
H737 H 0.35574 0.19754 0.08339 0.0
H738 H 0.44897 0.12441 0.03338 0.0
H739 H 0.41905 0.15011 0.05902 0.0
C740 C 0.82868 0.3127 0.21604 0.0
C741 C 0.8122 0.3002 0.19615 0.0
C742 C 0.84635 0.33135 0.20137 0.0
C743 C 0.87761 0.36055 0.11828 0.0
H744 H 0.89311 0.41376 0.17295 0.0
C745 C 0.94001 0.44903 0.06564 0.0
C746 C 0.96006 0.45549 0.0854 0.0
C747 C 0.92076 0.43112 0.07838 0.0
C748 C 0.88907 0.39901 0.15737 0.0
H749 H 0.80176 0.29733 0.1449 0.0
H750 H 0.83213 0.33048 0.11915 0.0
H751 H 0.86243 0.38042 0.19549 0.0
H752 H 0.97474 0.44877 0.13473 0.0
H753 H 0.94066 0.41834 0.15737 0.0
H754 H 0.90398 0.37983 0.07982 0.0
C755 C 0.83181 0.32552 0.14618 0.0
C756 C 0.87155 0.37967 0.17039 0.0
C757 C 0.81432 0.30645 0.16091 0.0
C758 C 0.95958 0.44442 0.11884 0.0
C759 C 0.94004 0.42691 0.13181 0.0
C760 C 0.89489 0.38016 0.10506 0.0
C761 C 0.84787 0.33857 0.1663 0.0
C762 C 0.86579 0.35984 0.15134 0.0
C763 C 0.9207 0.41959 0.11151 0.0
C764 C 0.9011 0.39948 0.12463 0.0
H765 H 0.82777 0.30821 0.24325 0.0
H766 H 0.85879 0.34016 0.21781 0.0
H767 H 0.87405 0.34567 0.10279 0.0
H768 H 0.93984 0.45693 0.03966 0.0
H769 H 0.90606 0.42607 0.06215 0.0
C770 C 0.73426 0.82867 0.1649 0.0
C771 C 0.72584 0.80395 0.17327 0.0
C772 C 0.71987 0.84426 0.14533 0.0
C773 C 0.66651 0.84686 0.0894 0.0
H774 H 0.65331 0.90592 0.13217 0.0
C775 C 0.58196 0.90647 0.05986 0.0
C776 C 0.58531 0.93172 0.06299 0.0
C777 C 0.60126 0.89098 0.06786 0.0
C778 C 0.6571 0.88982 0.11933 0.0
H779 H 0.69669 0.7758 0.16563 0.0
H780 H 0.67169 0.80301 0.13151 0.0
H781 H 0.68409 0.87903 0.15441 0.0
H782 H 0.61223 0.96083 0.07396 0.0
H783 H 0.6459 0.9342 0.0867 0.0
H784 H 0.63925 0.85769 0.05439 0.0
C785 C 0.68936 0.81035 0.14006 0.0
C786 C 0.6748 0.87435 0.13219 0.0
C787 C 0.70363 0.7948 0.15981 0.0
C788 C 0.6088 0.94136 0.07214 0.0
C789 C 0.62811 0.92603 0.0796 0.0
C790 C 0.64888 0.86252 0.07626 0.0
C791 C 0.69689 0.83541 0.13354 0.0
C792 C 0.67959 0.85261 0.11759 0.0
C793 C 0.62435 0.90055 0.07869 0.0
C794 C 0.64383 0.88415 0.09123 0.0
H795 H 0.75131 0.83627 0.17475 0.0
H796 H 0.72632 0.86344 0.14031 0.0
H797 H 0.66989 0.83024 0.07756 0.0
H798 H 0.56413 0.89857 0.05252 0.0
H799 H 0.59764 0.87145 0.06689 0.0
C800 C 0.19454 0.68217 0.11041 0.0
C801 C 0.18621 0.70357 0.12338 0.0
C802 C 0.1778 0.66656 0.09543 0.0
C803 C 0.1177 0.66059 0.05597 0.0
H804 H 0.11186 0.59443 0.1007 0.0
C805 C 0.03387 0.59319 0.0363 0.0
C806 C 0.03764 0.56811 0.03637 0.0
C807 C 0.05292 0.60955 0.04518 0.0
C808 C 0.1135 0.61263 0.0874 0.0
H809 H 0.15428 0.72629 0.12817 0.0
H810 H 0.12518 0.69926 0.10082 0.0
H811 H 0.14399 0.6242 0.11631 0.0
H812 H 0.06436 0.54039 0.04567 0.0
H813 H 0.09824 0.56913 0.06014 0.0
H814 H 0.08772 0.64907 0.02644 0.0
C815 C 0.14464 0.69452 0.10284 0.0
C816 C 0.13187 0.62972 0.09649 0.0
C817 C 0.16134 0.71005 0.11831 0.0
C818 C 0.06087 0.55961 0.0458 0.0
C819 C 0.08024 0.57613 0.05411 0.0
C820 C 0.09961 0.64338 0.0464 0.0
C821 C 0.1525 0.6722 0.09246 0.0
C822 C 0.13393 0.65392 0.08115 0.0
C823 C 0.07654 0.60138 0.05371 0.0
C824 C 0.09697 0.61924 0.06238 0.0
H825 H 0.21375 0.67692 0.11321 0.0
H826 H 0.18444 0.64967 0.08705 0.0
H827 H 0.11909 0.67907 0.04355 0.0
H828 H 0.01605 0.60025 0.02943 0.0
H829 H 0.04896 0.62864 0.0455 0.0
C830 C 0.31302 0.81944 0.91702 0.0
C831 C 0.29947 0.82953 0.89064 0.0
C832 C 0.32937 0.83438 0.93364 0.0
C833 C 0.3517 0.89922 0.94266 0.0
H834 H 0.41628 0.87037 0.9521 0.0
C835 C 0.44693 0.95539 0.95501 0.0
C836 C 0.46409 0.94493 0.97669 0.0
C837 C 0.42442 0.9422 0.94906 0.0
C838 C 0.39828 0.87863 0.95019 0.0
H839 H 0.29116 0.86314 0.86205 0.0
H840 H 0.32019 0.88939 0.89056 0.0
H841 H 0.38052 0.84589 0.93506 0.0
H842 H 0.47036 0.91286 0.01045 0.0
H843 H 0.43119 0.89004 1.00022 0.0
H844 H 0.37007 0.9323 0.95688 0.0
C845 C 0.31788 0.87001 0.89898 0.0
C846 C 0.37767 0.86453 0.94049 0.0
C847 C 0.30122 0.85503 0.88264 0.0
C848 C 0.45782 0.92134 0.99313 0.0
C849 C 0.43535 0.90822 0.98726 0.0
C850 C 0.37247 0.91342 0.95229 0.0
C851 C 0.33293 0.8597 0.92374 0.0
C852 C 0.35411 0.87462 0.93645 0.0
C853 C 0.4186 0.9183 0.96469 0.0
C854 C 0.39603 0.90327 0.956 0.0
H855 H 0.31191 0.7998 0.9236 0.0
H856 H 0.34012 0.8259 0.9532 0.0
H857 H 0.33381 0.90753 0.94003 0.0
H858 H 0.45107 0.97361 0.94216 0.0
H859 H 0.412 0.95042 0.93137 0.0
C860 C 0.22256 0.31644 0.82833 0.0
C861 C 0.21133 0.29385 0.82082 0.0
C862 C 0.20916 0.33163 0.84845 0.0
C863 C 0.15424 0.33232 0.91115 0.0
H864 H 0.15628 0.40149 0.8799 0.0
C865 C 0.07989 0.39512 0.95963 0.0
C866 C 0.08689 0.41976 0.96363 0.0
C867 C 0.09725 0.38009 0.94557 0.0
C868 C 0.15586 0.38234 0.88939 0.0
H869 H 0.17729 0.26932 0.82934 0.0
H870 H 0.15382 0.2959 0.86463 0.0
H871 H 0.18193 0.37428 0.84882 0.0
H872 H 0.11806 0.44771 0.95684 0.0
H873 H 0.14874 0.42123 0.93217 0.0
H874 H 0.12806 0.34029 0.95158 0.0
C875 C 0.17312 0.30176 0.85498 0.0
C876 C 0.1705 0.36669 0.87148 0.0
C877 C 0.18652 0.28656 0.83466 0.0
C878 C 0.11203 0.42886 0.95393 0.0
C879 C 0.12954 0.41371 0.93967 0.0
C880 C 0.13971 0.34797 0.92915 0.0
C881 C 0.18419 0.32462 0.86176 0.0
C882 C 0.16958 0.34142 0.88185 0.0
C883 C 0.12225 0.38916 0.93511 0.0
C884 C 0.13995 0.37312 0.91816 0.0
H885 H 0.24169 0.32265 0.81828 0.0
H886 H 0.21839 0.34892 0.85357 0.0
H887 H 0.15346 0.31306 0.92019 0.0
H888 H 0.06075 0.38734 0.96692 0.0
H889 H 0.09076 0.36148 0.94201 0.0
C890 C 0.71288 0.17899 0.82138 0.0
C891 C 0.70448 0.19935 0.8024 0.0
C892 C 0.69543 0.15984 0.83579 0.0
C893 C 0.62726 0.1359 0.83087 0.0
H894 H 0.64105 0.09352 0.90976 0.0
C895 C 0.55405 0.05681 0.88262 0.0
C896 C 0.55157 0.04979 0.91762 0.0
C897 C 0.57472 0.07239 0.86802 0.0
C898 C 0.63652 0.10531 0.888 0.0
H899 H 0.67128 0.21636 0.78517 0.0
H900 H 0.64089 0.18443 0.81215 0.0
H901 H 0.67165 0.12688 0.88802 0.0
H902 H 0.56942 0.05303 0.96456 0.0
H903 H 0.60416 0.08142 0.93999 0.0
H904 H 0.5914 0.11586 0.83224 0.0
C905 C 0.66088 0.18208 0.81455 0.0
C906 C 0.65451 0.12437 0.87501 0.0
C907 C 0.67832 0.20072 0.79936 0.0
C908 C 0.57077 0.05801 0.93747 0.0
C909 C 0.59095 0.07431 0.92313 0.0
C910 C 0.60904 0.11736 0.84437 0.0
C911 C 0.66907 0.16091 0.83228 0.0
C912 C 0.65016 0.14013 0.84625 0.0
C913 C 0.59305 0.08226 0.88818 0.0
C914 C 0.61324 0.10163 0.87319 0.0
H915 H 0.73301 0.17738 0.82386 0.0
H916 H 0.70281 0.14393 0.84879 0.0
H917 H 0.62316 0.14689 0.80816 0.0
H918 H 0.53969 0.05064 0.86657 0.0
H919 H 0.57587 0.07699 0.84088 0.0
C920 C 0.78501 0.68975 0.83718 0.0
C921 C 0.79215 0.71471 0.82844 0.0
C922 C 0.79982 0.67524 0.85761 0.0
C923 C 0.86585 0.67357 0.88256 0.0
H924 H 0.83777 0.61613 0.94029 0.0
C925 C 0.92971 0.6053 0.94904 0.0
C926 C 0.92415 0.58088 0.94251 0.0
C927 C 0.91258 0.62316 0.94177 0.0
C928 C 0.84586 0.63217 0.92434 0.0
H929 H 0.81956 0.74438 0.83601 0.0
H930 H 0.84495 0.71928 0.87246 0.0
H931 H 0.80925 0.64519 0.91609 0.0
H932 H 0.89572 0.55584 0.9249 0.0
H933 H 0.86592 0.58691 0.91238 0.0
H934 H 0.90243 0.66034 0.8906 0.0
C935 C 0.82835 0.71069 0.86273 0.0
C936 C 0.82954 0.64877 0.91032 0.0
C937 C 0.81369 0.72513 0.84199 0.0
C938 C 0.9007 0.57452 0.92993 0.0
C939 C 0.8835 0.59228 0.92304 0.0
C940 C 0.88215 0.65711 0.89688 0.0
C941 C 0.82199 0.68541 0.8701 0.0
C942 C 0.8393 0.66937 0.88853 0.0
C943 C 0.88944 0.61686 0.92829 0.0
C944 C 0.8723 0.63594 0.91722 0.0
H945 H 0.76857 0.68114 0.82707 0.0
H946 H 0.79445 0.65582 0.8623 0.0
H947 H 0.87413 0.68897 0.86554 0.0
H948 H 0.94755 0.61075 0.95897 0.0
H949 H 0.91754 0.64194 0.94631 0.0
C950 C 0.198 0.28899 0.16223 0.0
C951 C 0.22139 0.29773 0.17301 0.0
C952 C 0.18343 0.3046 0.14295 0.0
C953 C 0.17171 0.36919 0.13287 0.0
H954 H 0.13313 0.35301 0.05749 0.0
C955 C 0.10884 0.43922 0.07273 0.0
C956 C 0.08472 0.4307 0.06433 0.0
C957 C 0.12722 0.42284 0.0803 0.0
C958 C 0.1436 0.35772 0.07872 0.0
H959 H 0.24856 0.32928 0.17005 0.0
H960 H 0.2231 0.35644 0.13658 0.0
H961 H 0.16255 0.32416 0.08053 0.0
H962 H 0.06136 0.39843 0.05545 0.0
H963 H 0.09318 0.36956 0.07009 0.0
H964 H 0.15229 0.40204 0.13246 0.0
C965 C 0.21594 0.33759 0.14334 0.0
C966 C 0.16052 0.34124 0.09177 0.0
C967 C 0.23057 0.32198 0.16239 0.0
C968 C 0.07974 0.40549 0.06216 0.0
C969 C 0.09807 0.38898 0.07031 0.0
C970 C 0.15468 0.38544 0.12018 0.0
C971 C 0.1919 0.32927 0.13428 0.0
C972 C 0.17477 0.34687 0.11895 0.0
C973 C 0.12185 0.39743 0.08032 0.0
C974 C 0.14041 0.38002 0.09288 0.0
H975 H 0.19042 0.27038 0.16987 0.0
H976 H 0.16494 0.29771 0.13644 0.0
H977 H 0.18196 0.37379 0.15435 0.0
H978 H 0.11347 0.4586 0.07384 0.0
H979 H 0.14557 0.43015 0.08674 0.0
C980 C 0.19282 0.70356 0.85053 0.0
C981 C 0.19471 0.70993 0.81528 0.0
C982 C 0.17475 0.68505 0.86544 0.0
C983 C 0.11391 0.65173 0.85083 0.0
H984 H 0.13536 0.59882 0.91132 0.0
C985 C 0.04706 0.56504 0.88861 0.0
C986 C 0.04665 0.55369 0.92185 0.0
C987 C 0.06608 0.58324 0.87623 0.0
C988 C 0.12884 0.61356 0.89485 0.0
H989 H 0.1785 0.70233 0.76836 0.0
H990 H 0.14691 0.67085 0.79426 0.0
H991 H 0.16541 0.63351 0.89077 0.0
H992 H 0.06662 0.55229 0.96777 0.0
H993 H 0.09925 0.58432 0.94665 0.0
H994 H 0.07733 0.63238 0.85515 0.0
C995 C 0.15938 0.6799 0.81047 0.0
C996 C 0.14616 0.6335 0.88307 0.0
C997 C 0.1776 0.69796 0.79559 0.0
C998 C 0.06644 0.56036 0.94188 0.0
C999 C 0.08525 0.57886 0.92968 0.0
C1000 C 0.09655 0.63202 0.86287 0.0
C1001 C 0.15787 0.67292 0.8455 0.0
C1002 C 0.13901 0.65269 0.86052 0.0
C1003 C 0.08505 0.59105 0.8969 0.0
C1004 C 0.10376 0.61237 0.8847 0.0
H1005 H 0.20583 0.71226 0.86636 0.0
H1006 H 0.17399 0.6802 0.89255 0.0
H1007 H 0.10762 0.66634 0.83389 0.0
H1008 H 0.0322 0.56038 0.87241 0.0
H1009 H 0.06555 0.59151 0.85051 0.0
C1010 C 0.27779 0.18382 0.83261 0.0
C1011 C 0.28571 0.2087 0.82473 0.0
C1012 C 0.29275 0.16821 0.85127 0.0
C1013 C 0.34661 0.16595 0.90646 0.0
H1014 H 0.35934 0.10648 0.86447 0.0
C1015 C 0.42993 0.10504 0.93849 0.0
C1016 C 0.42599 0.07973 0.93609 0.0
C1017 C 0.41117 0.12092 0.92948 0.0
C1018 C 0.35571 0.12273 0.87705 0.0
H1019 H 0.31476 0.23701 0.83209 0.0
H1020 H 0.34072 0.2098 0.86466 0.0
H1021 H 0.32873 0.13348 0.8419 0.0
H1022 H 0.39854 0.05105 0.92518 0.0
H1023 H 0.36586 0.07836 0.91066 0.0
H1024 H 0.37379 0.15512 0.94161 0.0
C1025 C 0.323 0.20233 0.85642 0.0
C1026 C 0.33811 0.13825 0.86401 0.0
C1027 C 0.30816 0.2179 0.83757 0.0
C1028 C 0.40245 0.07052 0.9265 0.0
C1029 C 0.3837 0.08625 0.918 0.0
C1030 C 0.36415 0.15024 0.91977 0.0
C1031 C 0.31583 0.17718 0.86268 0.0
C1032 C 0.3334 0.1601 0.8784 0.0
C1033 C 0.38803 0.11173 0.9183 0.0
C1034 C 0.36899 0.12844 0.90514 0.0
H1035 H 0.26058 0.17616 0.82319 0.0
H1036 H 0.28656 0.14895 0.85608 0.0
H1037 H 0.34331 0.18263 0.91818 0.0
H1038 H 0.4478 0.11265 0.9461 0.0
H1039 H 0.41522 0.14044 0.93003 0.0
C1040 C 0.8582 0.29865 0.86636 0.0
C1041 C 0.83183 0.30013 0.87172 0.0
C1042 C 0.87495 0.31439 0.8814 0.0
C1043 C 0.87973 0.35657 0.94849 0.0
H1044 H 0.93307 0.39102 0.88682 0.0
C1045 C 0.96094 0.4184 0.99222 0.0
C1046 C 0.96852 0.44054 0.97241 0.0
C1047 C 0.94305 0.40169 0.98139 0.0
C1048 C 0.91814 0.38169 0.90425 0.0
H1049 H 0.80221 0.31797 0.89849 0.0
H1050 H 0.83136 0.3451 0.92524 0.0
H1051 H 0.90522 0.35909 0.86688 0.0
H1052 H 0.96273 0.4628 0.92607 0.0
H1053 H 0.9315 0.43325 0.90673 0.0
H1054 H 0.8926 0.37926 0.98583 0.0
C1055 C 0.83918 0.33196 0.90936 0.0
C1056 C 0.90244 0.36317 0.89299 0.0
C1057 C 0.82249 0.31645 0.89406 0.0
C1058 C 0.95728 0.44589 0.94183 0.0
C1059 C 0.93956 0.42893 0.93071 0.0
C1060 C 0.89559 0.37494 0.95984 0.0
C1061 C 0.86558 0.33165 0.90235 0.0
C1062 C 0.88304 0.35042 0.91497 0.0
C1063 C 0.93248 0.40653 0.95024 0.0
C1064 C 0.91494 0.38774 0.93783 0.0
H1065 H 0.86586 0.2864 0.84897 0.0
H1066 H 0.89522 0.31354 0.87588 0.0
H1067 H 0.86497 0.34706 0.96601 0.0
H1068 H 0.96906 0.41379 0.01609 0.0
H1069 H 0.93812 0.38457 0.99693 0.0
C1070 C 0.6906 0.78836 0.83596 0.0
C1071 C 0.71505 0.79601 0.8211 0.0
C1072 C 0.67716 0.80362 0.85612 0.0
C1073 C 0.67325 0.86879 0.87077 0.0
H1074 H 0.632 0.84247 0.95196 0.0
C1075 C 0.61328 0.93038 0.95233 0.0
C1076 C 0.58829 0.92078 0.96201 0.0
C1077 C 0.63124 0.91554 0.9384 0.0
C1078 C 0.64334 0.85012 0.92925 0.0
H1079 H 0.74473 0.82555 0.81648 0.0
H1080 H 0.72137 0.85195 0.85158 0.0
H1081 H 0.65805 0.81548 0.92105 0.0
H1082 H 0.56292 0.88781 0.96574 0.0
H1083 H 0.59377 0.86242 0.94146 0.0
H1084 H 0.65807 0.9033 0.87852 0.0
C1085 C 0.71245 0.83431 0.84738 0.0
C1086 C 0.65823 0.83461 0.91151 0.0
C1087 C 0.72589 0.81907 0.82738 0.0
C1088 C 0.58192 0.89596 0.9584 0.0
C1089 C 0.59975 0.88122 0.94472 0.0
C1090 C 0.65827 0.8843 0.88847 0.0
C1091 C 0.68783 0.8269 0.86176 0.0
C1092 C 0.67309 0.84367 0.88176 0.0
C1093 C 0.62458 0.8908 0.93422 0.0
C1094 C 0.64277 0.87506 0.9176 0.0
H1095 H 0.68167 0.77076 0.83161 0.0
H1096 H 0.65813 0.79743 0.86656 0.0
H1097 H 0.68429 0.87634 0.84778 0.0
H1098 H 0.61882 0.94938 0.95496 0.0
H1099 H 0.65029 0.92344 0.93083 0.0
C1100 C 0.78852 0.69626 0.17865 0.0
C1101 C 0.79983 0.71898 0.1856 0.0
C1102 C 0.80185 0.68071 0.15912 0.0
C1103 C 0.85605 0.67901 0.09603 0.0
H1104 H 0.85347 0.61 0.12838 0.0
C1105 C 0.92811 0.61465 0.04589 0.0
C1106 C 0.92073 0.5899 0.04306 0.0
C1107 C 0.91128 0.63008 0.06009 0.0
C1108 C 0.85403 0.6291 0.11859 0.0
H1109 H 0.83401 0.74328 0.17677 0.0
H1110 H 0.85742 0.716 0.14234 0.0
H1111 H 0.82893 0.63788 0.15976 0.0
H1112 H 0.88936 0.56224 0.05189 0.0
H1113 H 0.85955 0.58949 0.07677 0.0
H1114 H 0.88114 0.67031 0.05489 0.0
C1115 C 0.83809 0.71035 0.15209 0.0
C1116 C 0.84005 0.64513 0.13669 0.0
C1117 C 0.82474 0.72594 0.17191 0.0
C1118 C 0.89567 0.58116 0.05389 0.0
C1119 C 0.87868 0.59674 0.06829 0.0
C1120 C 0.86989 0.66297 0.0778 0.0
C1121 C 0.82685 0.68744 0.14577 0.0
C1122 C 0.84116 0.67033 0.12587 0.0
C1123 C 0.88642 0.62137 0.07184 0.0
C1124 C 0.86941 0.63786 0.08914 0.0
H1125 H 0.76931 0.69027 0.18859 0.0
H1126 H 0.79249 0.66339 0.15433 0.0
H1127 H 0.85693 0.69822 0.08666 0.0
H1128 H 0.9472 0.62218 0.03763 0.0
H1129 H 0.91814 0.64874 0.06281 0.0
C1130 C 0.30293 0.82118 0.16519 0.0
C1131 C 0.30584 0.81124 0.19852 0.0
C1132 C 0.31963 0.84059 0.14963 0.0
C1133 C 0.3667 0.88951 0.17112 0.0
H1134 H 0.39161 0.89182 0.0767 0.0
C1135 C 0.45751 0.94754 0.1159 0.0
C1136 C 0.45819 0.95942 0.08291 0.0
C1137 C 0.43656 0.9319 0.12922 0.0
C1138 C 0.38457 0.89165 0.103 0.0
H1139 H 0.32909 0.81378 0.24117 0.0
H1140 H 0.35806 0.8468 0.21415 0.0
H1141 H 0.35982 0.85945 0.10066 0.0
H1142 H 0.43682 0.96447 0.03841 0.0
H1143 H 0.40033 0.93697 0.06163 0.0
H1144 H 0.39186 0.92128 0.17372 0.0
C1145 C 0.34262 0.8402 0.20012 0.0
C1146 C 0.3663 0.87306 0.11676 0.0
C1147 C 0.32601 0.82099 0.21559 0.0
C1148 C 0.43691 0.95583 0.06402 0.0
C1149 C 0.41608 0.93984 0.07719 0.0
C1150 C 0.38501 0.90793 0.15745 0.0
C1151 C 0.33961 0.85052 0.16704 0.0
C1152 C 0.35745 0.87143 0.15124 0.0
C1153 C 0.41578 0.9274 0.10982 0.0
C1154 C 0.39454 0.90905 0.12336 0.0
H1155 H 0.28761 0.81418 0.15129 0.0
H1156 H 0.31659 0.8481 0.12419 0.0
H1157 H 0.35992 0.88936 0.1975 0.0
H1158 H 0.47356 0.94972 0.13112 0.0
H1159 H 0.43714 0.9225 0.15431 0.0
C1160 C 0.70835 0.15274 0.12745 0.0
C1161 C 0.71066 0.17825 0.11956 0.0
C1162 C 0.69138 0.13815 0.11097 0.0
C1163 C 0.63166 0.1449 0.06971 0.0
H1164 H 0.63843 0.0775 0.05083 0.0
C1165 C 0.55142 0.09016 0.01329 0.0
C1166 C 0.54532 0.06598 0.02766 0.0
C1167 C 0.57357 0.10313 0.0208 0.0
C1168 C 0.63623 0.09627 0.05618 0.0
H1169 H 0.69879 0.20839 0.08681 0.0
H1170 H 0.67 0.18296 0.05706 0.0
H1171 H 0.6749 0.10136 0.06877 0.0
H1172 H 0.55817 0.03627 0.06063 0.0
H1173 H 0.59661 0.05912 0.07426 0.0
H1174 H 0.59302 0.13984 0.05781 0.0
C1175 C 0.68063 0.17417 0.07653 0.0
C1176 C 0.65713 0.10995 0.0664 0.0
C1177 C 0.69734 0.18872 0.0932 0.0
C1178 C 0.56218 0.05492 0.04928 0.0
C1179 C 0.58436 0.06794 0.05685 0.0
C1180 C 0.61087 0.1313 0.05949 0.0
C1181 C 0.67654 0.14887 0.08627 0.0
C1182 C 0.65507 0.13444 0.07338 0.0
C1183 C 0.59018 0.0923 0.04298 0.0
C1184 C 0.61281 0.10679 0.05272 0.0
H1185 H 0.71817 0.14435 0.14807 0.0
H1186 H 0.68865 0.11876 0.11924 0.0
H1187 H 0.62909 0.16347 0.07572 0.0
H1188 H 0.53906 0.09916 0.99619 0.0
H1189 H 0.57769 0.1217 0.0092 0.0
C1190 C 0.64885 0.64221 0.73977 0.0
C1191 C 0.648 0.6626 0.75869 0.0
C1192 C 0.62865 0.62426 0.74321 0.0
C1193 C 0.56225 0.61033 0.78156 0.0
H1194 H 0.58573 0.54616 0.80658 0.0
C1195 C 0.49917 0.54078 0.87022 0.0
C1196 C 0.512 0.53309 0.89874 0.0
C1197 C 0.51285 0.55106 0.84035 0.0
C1198 C 0.57877 0.56387 0.79925 0.0
H1199 H 0.62475 0.68114 0.79405 0.0
H1200 H 0.58992 0.64974 0.80074 0.0
H1201 H 0.61508 0.5778 0.77607 0.0
H1202 H 0.54914 0.52811 0.91734 0.0
H1203 H 0.57281 0.54633 0.86594 0.0
H1204 H 0.52669 0.59718 0.8077 0.0
C1205 C 0.60594 0.64757 0.78297 0.0
C1206 C 0.59553 0.58196 0.78143 0.0
C1207 C 0.62609 0.66539 0.77962 0.0
C1208 C 0.53867 0.53418 0.89599 0.0
C1209 C 0.55228 0.54434 0.86624 0.0
C1210 C 0.54556 0.5923 0.79961 0.0
C1211 C 0.60722 0.6265 0.76545 0.0
C1212 C 0.58784 0.60581 0.7743 0.0
C1213 C 0.53955 0.55368 0.83847 0.0
C1214 C 0.55415 0.56939 0.81047 0.0
H1215 H 0.66555 0.63962 0.72342 0.0
H1216 H 0.63013 0.60828 0.72929 0.0
H1217 H 0.55564 0.62839 0.77564 0.0
H1218 H 0.4786 0.53993 0.87142 0.0
H1219 H 0.50253 0.55788 0.81925 0.0
C1220 C 0.3021 0.67807 0.78926 0.0
C1221 C 0.30527 0.70326 0.79264 0.0
C1222 C 0.31658 0.66168 0.80739 0.0
C1223 C 0.37462 0.65625 0.85193 0.0
H1224 H 0.33519 0.60603 0.91199 0.0
C1225 C 0.42178 0.59723 0.95412 0.0
C1226 C 0.41384 0.57219 0.95844 0.0
C1227 C 0.40813 0.61378 0.93495 0.0
C1228 C 0.34658 0.6197 0.89508 0.0
H1229 H 0.32693 0.73132 0.81558 0.0
H1230 H 0.35264 0.70279 0.84634 0.0
H1231 H 0.31377 0.63245 0.87209 0.0
H1232 H 0.38471 0.54507 0.94725 0.0
H1233 H 0.36157 0.57353 0.91337 0.0
H1234 H 0.40752 0.64329 0.8742 0.0
C1235 C 0.33885 0.69567 0.83017 0.0
C1236 C 0.33427 0.63478 0.87222 0.0
C1237 C 0.32408 0.71194 0.8127 0.0
C1238 C 0.3914 0.56424 0.94453 0.0
C1239 C 0.37798 0.58066 0.92513 0.0
C1240 C 0.38702 0.64091 0.87443 0.0
C1241 C 0.33476 0.67037 0.82842 0.0
C1242 C 0.34817 0.65323 0.85056 0.0
C1243 C 0.3864 0.60556 0.91952 0.0
C1244 C 0.37314 0.62248 0.8964 0.0
H1245 H 0.28761 0.67099 0.77406 0.0
H1246 H 0.31323 0.64219 0.80559 0.0
H1247 H 0.38571 0.67039 0.83542 0.0
H1248 H 0.4389 0.60395 0.96474 0.0
H1249 H 0.41485 0.63294 0.93181 0.0
C1250 C 0.38317 0.32326 0.79544 0.0
C1251 C 0.36427 0.33583 0.77958 0.0
C1252 C 0.40079 0.33578 0.81331 0.0
C1253 C 0.42488 0.39766 0.83273 0.0
H1254 H 0.43031 0.36452 0.92224 0.0
C1255 C 0.45344 0.44998 0.94375 0.0
C1256 C 0.47145 0.44007 0.96458 0.0
C1257 C 0.44256 0.43628 0.92002 0.0
C1258 C 0.4293 0.37388 0.89721 0.0
H1259 H 0.3494 0.37118 0.76827 0.0
H1260 H 0.38009 0.39325 0.79968 0.0
H1261 H 0.40946 0.34296 0.87976 0.0
H1262 H 0.49095 0.40737 0.97811 0.0
H1263 H 0.47179 0.38331 0.93644 0.0
H1264 H 0.4441 0.42883 0.85064 0.0
C1265 C 0.38172 0.37385 0.79792 0.0
C1266 C 0.41745 0.36151 0.87277 0.0
C1267 C 0.36418 0.3613 0.77985 0.0
C1268 C 0.4773 0.41562 0.96231 0.0
C1269 C 0.46632 0.40183 0.93847 0.0
C1270 C 0.43666 0.41004 0.85721 0.0
C1271 C 0.39957 0.36103 0.81598 0.0
C1272 C 0.41474 0.37338 0.8404 0.0
C1273 C 0.4493 0.41226 0.91655 0.0
C1274 C 0.43858 0.39842 0.8899 0.0
H1275 H 0.38331 0.30352 0.79574 0.0
H1276 H 0.41459 0.32547 0.82639 0.0
H1277 H 0.42342 0.4072 0.80793 0.0
H1278 H 0.44823 0.46866 0.94505 0.0
H1279 H 0.42899 0.44459 0.90412 0.0
C1280 C 0.71259 0.32484 0.7918 0.0
C1281 C 0.70133 0.30649 0.77428 0.0
C1282 C 0.69769 0.34088 0.80819 0.0
C1283 C 0.63212 0.36205 0.8185 0.0
H1284 H 0.65474 0.37866 0.90491 0.0
C1285 C 0.56839 0.40138 0.92178 0.0
C1286 C 0.57855 0.42241 0.9351 0.0
C1287 C 0.5835 0.38857 0.90028 0.0
C1288 C 0.64835 0.37436 0.88068 0.0
H1289 H 0.66584 0.29085 0.75906 0.0
H1290 H 0.63938 0.31827 0.78907 0.0
H1291 H 0.68036 0.35374 0.8703 0.0
H1292 H 0.61251 0.44635 0.93676 0.0
H1293 H 0.63925 0.42337 0.89979 0.0
H1294 H 0.59942 0.38192 0.8301 0.0
C1295 C 0.65983 0.32074 0.78945 0.0
C1296 C 0.66306 0.36018 0.86066 0.0
C1297 C 0.67491 0.30497 0.77232 0.0
C1298 C 0.60421 0.43022 0.92683 0.0
C1299 C 0.61948 0.41709 0.90578 0.0
C1300 C 0.61717 0.37592 0.83886 0.0
C1301 C 0.67105 0.33856 0.80824 0.0
C1302 C 0.65523 0.3539 0.8292 0.0
C1303 C 0.60916 0.39627 0.89215 0.0
C1304 C 0.62521 0.38221 0.87008 0.0
H1305 H 0.73301 0.32662 0.79322 0.0
H1306 H 0.70713 0.35484 0.82132 0.0
H1307 H 0.62562 0.35789 0.79429 0.0
H1308 H 0.54861 0.39502 0.92752 0.0
H1309 H 0.5752 0.37243 0.89035 0.0
C1310 C 0.70244 0.32903 0.21744 0.0
C1311 C 0.70126 0.30388 0.21355 0.0
C1312 C 0.68751 0.34459 0.19864 0.0
C1313 C 0.65222 0.34657 0.12066 0.0
H1314 H 0.62722 0.40538 0.15417 0.0
C1315 C 0.58353 0.41018 0.05203 0.0
C1316 C 0.59115 0.4353 0.0496 0.0
C1317 C 0.59672 0.39321 0.0712 0.0
C1318 C 0.63417 0.38901 0.14452 0.0
H1319 H 0.68247 0.27493 0.18889 0.0
H1320 H 0.65564 0.30168 0.15754 0.0
H1321 H 0.64926 0.37746 0.19144 0.0
H1322 H 0.61922 0.46215 0.06431 0.0
H1323 H 0.64183 0.43262 0.0979 0.0
H1324 H 0.63652 0.35808 0.07393 0.0
C1325 C 0.66878 0.30974 0.17379 0.0
C1326 C 0.64691 0.37308 0.16577 0.0
C1327 C 0.684 0.29435 0.19201 0.0
C1328 C 0.61276 0.44296 0.06564 0.0
C1329 C 0.62564 0.42611 0.08513 0.0
C1330 C 0.63912 0.36233 0.09961 0.0
C1331 C 0.67081 0.33516 0.17609 0.0
C1332 C 0.65632 0.35174 0.15404 0.0
C1333 C 0.61747 0.40118 0.08861 0.0
C1334 C 0.63026 0.38381 0.11125 0.0
H1335 H 0.71573 0.33682 0.23375 0.0
H1336 H 0.6898 0.36408 0.20088 0.0
H1337 H 0.65962 0.33062 0.1104 0.0
H1338 H 0.56702 0.40372 0.03986 0.0
H1339 H 0.59015 0.37401 0.07348 0.0
C1340 C 0.62663 0.67343 0.22181 0.0
C1341 C 0.65257 0.67101 0.21339 0.0
C1342 C 0.60813 0.66145 0.20439 0.0
C1343 C 0.60045 0.64343 0.12102 0.0
H1344 H 0.54766 0.59425 0.15822 0.0
C1345 C 0.53173 0.59369 0.03783 0.0
C1346 C 0.53224 0.56807 0.04311 0.0
C1347 C 0.54258 0.60864 0.06047 0.0
C1348 C 0.56212 0.60822 0.14762 0.0
H1349 H 0.67947 0.6525 0.18269 0.0
H1350 H 0.6473 0.63202 0.15211 0.0
H1351 H 0.5742 0.61521 0.19656 0.0
H1352 H 0.54428 0.5381 0.07659 0.0
H1353 H 0.56284 0.56409 0.1158 0.0
H1354 H 0.58903 0.63605 0.07211 0.0
C1355 C 0.64128 0.64337 0.17171 0.0
C1356 C 0.57716 0.62019 0.16949 0.0
C1357 C 0.65961 0.65502 0.18925 0.0
C1358 C 0.54361 0.55775 0.07156 0.0
C1359 C 0.55401 0.57261 0.09433 0.0
C1360 C 0.5852 0.63178 0.09923 0.0
C1361 C 0.61551 0.64716 0.1783 0.0
C1362 C 0.59694 0.63728 0.15621 0.0
C1363 C 0.55365 0.59815 0.08903 0.0
C1364 C 0.56645 0.61352 0.11227 0.0
H1365 H 0.62074 0.68573 0.24023 0.0
H1366 H 0.58826 0.66443 0.20994 0.0
H1367 H 0.61558 0.6567 0.11035 0.0
H1368 H 0.52303 0.60214 0.01621 0.0
H1369 H 0.54222 0.62836 0.05581 0.0
C1370 C 0.33599 0.7053 0.23869 0.0
C1371 C 0.30985 0.70306 0.23436 0.0
C1372 C 0.3523 0.68941 0.22392 0.0
C1373 C 0.35505 0.63024 0.18796 0.0
H1374 H 0.40698 0.66332 0.12306 0.0
C1375 C 0.40502 0.57959 0.08363 0.0
C1376 C 0.43056 0.58671 0.07342 0.0
C1377 C 0.39121 0.59302 0.10598 0.0
C1378 C 0.39298 0.65364 0.1415 0.0
H1379 H 0.27996 0.68174 0.21335 0.0
H1380 H 0.30824 0.65366 0.18859 0.0
H1381 H 0.38246 0.68707 0.16076 0.0
H1382 H 0.46189 0.61306 0.07917 0.0
H1383 H 0.43831 0.63579 0.11886 0.0
H1384 H 0.36556 0.59676 0.16907 0.0
C1385 C 0.31622 0.66774 0.20291 0.0
C1386 C 0.37894 0.66732 0.1631 0.0
C1387 C 0.30008 0.68388 0.21692 0.0
C1388 C 0.44208 0.60733 0.08615 0.0
C1389 C 0.42848 0.62045 0.10888 0.0
C1390 C 0.36938 0.61646 0.16675 0.0
C1391 C 0.34253 0.67075 0.20547 0.0
C1392 C 0.35959 0.6558 0.18613 0.0
C1393 C 0.40282 0.61359 0.11904 0.0
C1394 C 0.38828 0.62802 0.14282 0.0
H1395 H 0.34392 0.72005 0.25188 0.0
H1396 H 0.37256 0.69202 0.22621 0.0
H1397 H 0.34022 0.62095 0.2056 0.0
H1398 H 0.39565 0.56379 0.07412 0.0
H1399 H 0.37137 0.5874 0.11268 0.0
C1400 C 0.38473 0.3475 0.23259 0.0
C1401 C 0.36183 0.35015 0.25153 0.0
C1402 C 0.40437 0.36579 0.23016 0.0
C1403 C 0.41166 0.43164 0.2283 0.0
H1404 H 0.48163 0.4182 0.20563 0.0
C1405 C 0.46744 0.47483 0.11063 0.0
C1406 C 0.49412 0.4769 0.10798 0.0
C1407 C 0.45408 0.46605 0.1412 0.0
C1408 C 0.46242 0.42266 0.21271 0.0
H1409 H 0.342 0.37324 0.28453 0.0
H1410 H 0.37653 0.40546 0.28018 0.0
H1411 H 0.45349 0.38728 0.23956 0.0
H1412 H 0.5277 0.47338 0.13607 0.0
H1413 H 0.50421 0.45781 0.18964 0.0
H1414 H 0.42031 0.4666 0.20016 0.0
C1415 C 0.37918 0.38923 0.26714 0.0
C1416 C 0.44621 0.40479 0.23188 0.0
C1417 C 0.35949 0.37079 0.26968 0.0
C1418 C 0.50713 0.47164 0.13719 0.0
C1419 C 0.4937 0.46277 0.16788 0.0
C1420 C 0.42794 0.4496 0.20941 0.0
C1421 C 0.40157 0.3872 0.24659 0.0
C1422 C 0.42025 0.40845 0.23768 0.0
C1423 C 0.46706 0.45914 0.16989 0.0
C1424 C 0.45295 0.44456 0.19933 0.0
H1425 H 0.38718 0.33156 0.21882 0.0
H1426 H 0.42116 0.36375 0.21367 0.0
H1427 H 0.39181 0.43515 0.23254 0.0
H1428 H 0.45682 0.47905 0.08874 0.0
H1429 H 0.4336 0.46317 0.1416 0.0
C1430 C 0.82458 0.72029 0.67633 0.0
C1431 C 0.79829 0.71505 0.68349 0.0
C1432 C 0.83908 0.70471 0.65812 0.0
C1433 C 0.83749 0.64059 0.63471 0.0
H1434 H 0.8981 0.66506 0.5781 0.0
C1435 C 0.90246 0.57669 0.56468 0.0
C1436 C 0.92836 0.58021 0.57029 0.0
C1437 C 0.88528 0.59383 0.57394 0.0
C1438 C 0.88121 0.65797 0.59383 0.0
H1439 H 0.76644 0.68987 0.6758 0.0
H1440 H 0.79152 0.66317 0.64316 0.0
H1441 H 0.87025 0.69394 0.60202 0.0
H1442 H 0.95664 0.605 0.58872 0.0
H1443 H 0.92682 0.63481 0.60451 0.0
H1444 H 0.84858 0.6046 0.62637 0.0
C1445 C 0.80115 0.67891 0.65242 0.0
C1446 C 0.86528 0.67451 0.60773 0.0
C1447 C 0.78669 0.69435 0.67095 0.0
C1448 C 0.9368 0.60159 0.58428 0.0
C1449 C 0.91974 0.61881 0.59311 0.0
C1450 C 0.85327 0.62407 0.62049 0.0
C1451 C 0.82764 0.68361 0.64625 0.0
C1452 C 0.84344 0.66607 0.62894 0.0
C1453 C 0.89374 0.615 0.58848 0.0
C1454 C 0.87556 0.63256 0.60043 0.0
H1455 H 0.83415 0.736 0.68578 0.0
H1456 H 0.85944 0.70882 0.65441 0.0
H1457 H 0.82111 0.63328 0.65128 0.0
H1458 H 0.89536 0.56049 0.55375 0.0
H1459 H 0.86537 0.59051 0.56982 0.0
C1460 C 0.33596 0.8055 0.71882 0.0
C1461 C 0.31555 0.7978 0.7007 0.0
C1462 C 0.35528 0.82229 0.7035 0.0
C1463 C 0.38073 0.85662 0.61984 0.0
H1464 H 0.41086 0.89978 0.6801 0.0
C1465 C 0.45751 0.93545 0.57022 0.0
C1466 C 0.45659 0.95738 0.58596 0.0
C1467 C 0.4425 0.91427 0.58377 0.0
C1468 C 0.40253 0.88818 0.66262 0.0
H1469 H 0.29955 0.80139 0.65201 0.0
H1470 H 0.33243 0.83186 0.62559 0.0
H1471 H 0.38001 0.86739 0.70302 0.0
H1472 H 0.43917 0.97381 0.62874 0.0
H1473 H 0.41294 0.93779 0.65141 0.0
H1474 H 0.40214 0.87888 0.5791 0.0
C1475 C 0.33419 0.82433 0.65138 0.0
C1476 C 0.38501 0.86902 0.676 0.0
C1477 C 0.31517 0.80689 0.66653 0.0
C1478 C 0.44071 0.95732 0.61593 0.0
C1479 C 0.42563 0.93639 0.62918 0.0
C1480 C 0.39796 0.87621 0.60631 0.0
C1481 C 0.35439 0.83267 0.66982 0.0
C1482 C 0.37371 0.85283 0.65495 0.0
C1483 C 0.42608 0.9145 0.61333 0.0
C1484 C 0.40897 0.89248 0.6275 0.0
H1485 H 0.33695 0.79857 0.74509 0.0
H1486 H 0.37079 0.82727 0.71846 0.0
H1487 H 0.37292 0.84451 0.6026 0.0
H1488 H 0.46926 0.9348 0.5469 0.0
H1489 H 0.4437 0.89779 0.57091 0.0
C1490 C 0.22881 0.32385 0.66163 0.0
C1491 C 0.22058 0.29979 0.67466 0.0
C1492 C 0.21377 0.33752 0.64019 0.0
C1493 C 0.14689 0.34144 0.62084 0.0
H1494 H 0.1745 0.38314 0.54118 0.0
C1495 C 0.08206 0.39917 0.53801 0.0
C1496 C 0.09156 0.42341 0.52811 0.0
C1497 C 0.09796 0.38197 0.55201 0.0
C1498 C 0.16647 0.37171 0.5635 0.0
H1499 H 0.19058 0.27093 0.67407 0.0
H1500 H 0.16472 0.29463 0.63707 0.0
H1501 H 0.20265 0.35816 0.57367 0.0
H1502 H 0.12555 0.44822 0.52376 0.0
H1503 H 0.15268 0.41879 0.5484 0.0
H1504 H 0.11089 0.35544 0.61145 0.0
C1505 C 0.18251 0.30311 0.64372 0.0
C1506 C 0.18265 0.35742 0.5821 0.0
C1507 C 0.19748 0.2895 0.66487 0.0
C1508 C 0.11742 0.42977 0.53131 0.0
C1509 C 0.13318 0.41274 0.54519 0.0
C1510 C 0.13075 0.35586 0.60242 0.0
C1511 C 0.1902 0.32741 0.63158 0.0
C1512 C 0.17308 0.34226 0.61115 0.0
C1513 C 0.12367 0.38869 0.5562 0.0
C1514 C 0.14035 0.37144 0.57372 0.0
H1515 H 0.24648 0.33231 0.66867 0.0
H1516 H 0.22017 0.35627 0.6313 0.0
H1517 H 0.13895 0.33014 0.64333 0.0
H1518 H 0.06228 0.39364 0.53569 0.0
H1519 H 0.09006 0.36349 0.55982 0.0
C1520 C 0.68492 0.1942 0.58854 0.0
C1521 C 0.6745 0.21038 0.61029 0.0
C1522 C 0.66914 0.17833 0.57244 0.0
C1523 C 0.60726 0.14515 0.58916 0.0
H1524 H 0.62155 0.12305 0.50029 0.0
C1525 C 0.54964 0.06243 0.54659 0.0
C1526 C 0.56335 0.04569 0.52915 0.0
C1527 C 0.56101 0.08526 0.552 0.0
C1528 C 0.61742 0.12888 0.52528 0.0
H1529 H 0.63952 0.22374 0.63073 0.0
H1530 H 0.61175 0.1959 0.60254 0.0
H1531 H 0.64514 0.15942 0.51615 0.0
H1532 H 0.59967 0.04015 0.50308 0.0
H1533 H 0.61976 0.07963 0.51338 0.0
H1534 H 0.58046 0.11417 0.59909 0.0
C1535 C 0.63216 0.19548 0.59802 0.0
C1536 C 0.63083 0.14981 0.53426 0.0
C1537 C 0.64801 0.21158 0.61386 0.0
C1538 C 0.5886 0.05253 0.51677 0.0
C1539 C 0.60004 0.07533 0.52238 0.0
C1540 C 0.59402 0.12415 0.58032 0.0
C1541 C 0.64257 0.17811 0.57806 0.0
C1542 C 0.62617 0.15797 0.56652 0.0
C1543 C 0.58648 0.09191 0.54037 0.0
C1544 C 0.59919 0.11547 0.54847 0.0
H1545 H 0.70531 0.1929 0.58548 0.0
H1546 H 0.67779 0.1651 0.55746 0.0
H1547 H 0.60352 0.15065 0.61443 0.0
H1548 H 0.53003 0.05796 0.55608 0.0
H1549 H 0.54979 0.09769 0.56535 0.0
C1550 C 0.7891 0.35427 0.38357 0.0
C1551 C 0.79569 0.32986 0.38329 0.0
C1552 C 0.80431 0.37129 0.39874 0.0
C1553 C 0.87002 0.38474 0.40884 0.0
H1554 H 0.85003 0.42781 0.47645 0.0
C1555 C 0.94328 0.45289 0.45808 0.0
C1556 C 0.93479 0.47518 0.46746 0.0
C1557 C 0.92586 0.43447 0.44996 0.0
C1558 C 0.8559 0.41625 0.45709 0.0
H1559 H 0.82183 0.30366 0.40178 0.0
H1560 H 0.84872 0.33357 0.42716 0.0
H1561 H 0.81892 0.39723 0.45997 0.0
H1562 H 0.90175 0.49615 0.47457 0.0
H1563 H 0.8717 0.46489 0.45849 0.0
H1564 H 0.90649 0.40422 0.40435 0.0
C1565 C 0.83195 0.33949 0.41543 0.0
C1566 C 0.83807 0.39862 0.44795 0.0
C1567 C 0.81658 0.32245 0.40084 0.0
C1568 C 0.90878 0.47901 0.46768 0.0
C1569 C 0.89149 0.46092 0.45882 0.0
C1570 C 0.88769 0.40268 0.41737 0.0
C1571 C 0.82642 0.36418 0.41352 0.0
C1572 C 0.84505 0.38269 0.42385 0.0
C1573 C 0.89967 0.43822 0.45029 0.0
C1574 C 0.88092 0.41873 0.44163 0.0
H1575 H 0.77324 0.36059 0.37014 0.0
H1576 H 0.79973 0.3903 0.39703 0.0
H1577 H 0.87571 0.37278 0.38986 0.0
H1578 H 0.96322 0.44939 0.45816 0.0
H1579 H 0.93293 0.41715 0.44412 0.0
C1580 C 0.68178 0.79208 0.32294 0.0
C1581 C 0.70808 0.7977 0.3166 0.0
C1582 C 0.66661 0.80769 0.34017 0.0
C1583 C 0.66758 0.85791 0.39636 0.0
H1584 H 0.60646 0.87478 0.35374 0.0
C1585 C 0.60571 0.93689 0.43574 0.0
C1586 C 0.57938 0.9336 0.43288 0.0
C1587 C 0.62207 0.91955 0.42455 0.0
C1588 C 0.6232 0.87002 0.36645 0.0
H1589 H 0.73922 0.82363 0.32474 0.0
H1590 H 0.71274 0.85072 0.35499 0.0
H1591 H 0.63326 0.8454 0.32977 0.0
H1592 H 0.54945 0.90863 0.41855 0.0
H1593 H 0.57754 0.87843 0.40025 0.0
H1594 H 0.65732 0.88249 0.43326 0.0
C1595 C 0.70386 0.83426 0.34659 0.0
C1596 C 0.63861 0.85316 0.35257 0.0
C1597 C 0.719 0.81878 0.32908 0.0
C1598 C 0.56969 0.91207 0.42039 0.0
C1599 C 0.58588 0.89474 0.40967 0.0
C1600 C 0.65196 0.87469 0.41052 0.0
C1601 C 0.67742 0.82916 0.35174 0.0
C1602 C 0.66095 0.84682 0.36734 0.0
C1603 C 0.61236 0.8985 0.41063 0.0
C1604 C 0.62946 0.88089 0.39581 0.0
H1605 H 0.67275 0.77599 0.31376 0.0
H1606 H 0.64633 0.80309 0.3441 0.0
H1607 H 0.68466 0.85334 0.40839 0.0
H1608 H 0.61373 0.95319 0.44554 0.0
H1609 H 0.64235 0.9231 0.42574 0.0
C1610 C 0.19574 0.68315 0.29449 0.0
C1611 C 0.20823 0.69943 0.31428 0.0
C1612 C 0.17739 0.66522 0.30925 0.0
C1613 C 0.13057 0.64996 0.38188 0.0
H1614 H 0.13096 0.58456 0.3526 0.0
C1615 C 0.05755 0.56982 0.43846 0.0
C1616 C 0.05069 0.55156 0.41744 0.0
C1617 C 0.07616 0.58868 0.42702 0.0
C1618 C 0.13019 0.6028 0.36072 0.0
H1619 H 0.21112 0.70941 0.36542 0.0
H1620 H 0.1785 0.67799 0.39142 0.0
H1621 H 0.16525 0.61496 0.33207 0.0
H1622 H 0.05699 0.53991 0.36707 0.0
H1623 H 0.0883 0.57329 0.34658 0.0
H1624 H 0.09513 0.63798 0.40993 0.0
C1625 C 0.18317 0.67924 0.36431 0.0
C1626 C 0.15006 0.62023 0.34909 0.0
C1627 C 0.20197 0.6971 0.3495 0.0
C1628 C 0.06183 0.55355 0.38403 0.0
C1629 C 0.08013 0.57258 0.37244 0.0
C1630 C 0.11046 0.63254 0.39332 0.0
C1631 C 0.17066 0.66307 0.34428 0.0
C1632 C 0.15042 0.64412 0.35918 0.0
C1633 C 0.08822 0.59002 0.39405 0.0
C1634 C 0.10979 0.60874 0.38258 0.0
H1635 H 0.20004 0.68432 0.2673 0.0
H1636 H 0.16802 0.65331 0.29298 0.0
H1637 H 0.13013 0.66826 0.38992 0.0
H1638 H 0.04964 0.56878 0.46449 0.0
H1639 H 0.08187 0.60152 0.44463 0.0
C1640 C 0.31309 0.22797 0.34071 0.0
C1641 C 0.29025 0.21752 0.3304 0.0
C1642 C 0.32762 0.21449 0.36271 0.0
C1643 C 0.3263 0.15911 0.4235 0.0
H1644 H 0.39817 0.16047 0.39513 0.0
C1645 C 0.38873 0.08199 0.4653 0.0
C1646 C 0.41435 0.08745 0.47089 0.0
C1647 C 0.37366 0.10032 0.45329 0.0
C1648 C 0.37827 0.16022 0.40387 0.0
H1649 H 0.26426 0.18505 0.33632 0.0
H1650 H 0.28976 0.16141 0.37474 0.0
H1651 H 0.37111 0.18781 0.36477 0.0
H1652 H 0.44399 0.1167 0.46941 0.0
H1653 H 0.41749 0.14898 0.44819 0.0
H1654 H 0.33339 0.13116 0.46219 0.0
C1655 C 0.29631 0.18012 0.36589 0.0
C1656 C 0.36271 0.17586 0.38641 0.0
C1657 C 0.28174 0.19362 0.34377 0.0
C1658 C 0.42438 0.11188 0.46508 0.0
C1659 C 0.40923 0.13033 0.45286 0.0
C1660 C 0.34187 0.14353 0.44104 0.0
C1661 C 0.31969 0.19025 0.37502 0.0
C1662 C 0.33646 0.17515 0.39559 0.0
C1663 C 0.38374 0.12467 0.44653 0.0
C1664 C 0.36794 0.1435 0.43095 0.0
H1665 H 0.32014 0.24642 0.33115 0.0
H1666 H 0.34531 0.22297 0.3697 0.0
H1667 H 0.30624 0.15843 0.43156 0.0
H1668 H 0.38026 0.06341 0.46974 0.0
H1669 H 0.35427 0.09519 0.44826 0.0
C1670 C 0.69429 0.78699 0.66874 0.0
C1671 C 0.719 0.7953 0.67537 0.0
C1672 C 0.67977 0.80153 0.64795 0.0
C1673 C 0.67439 0.86639 0.6185 0.0
H1674 H 0.62661 0.84036 0.55883 0.0
C1675 C 0.61896 0.93054 0.53501 0.0
C1676 C 0.59263 0.92506 0.53505 0.0
C1677 C 0.63466 0.91326 0.54835 0.0
C1678 C 0.63975 0.84783 0.57558 0.0
H1679 H 0.7483 0.82488 0.66391 0.0
H1680 H 0.72315 0.85008 0.62711 0.0
H1681 H 0.65447 0.81291 0.5882 0.0
H1682 H 0.56231 0.89658 0.54732 0.0
H1683 H 0.58994 0.86616 0.57127 0.0
H1684 H 0.65969 0.90117 0.60622 0.0
C1685 C 0.71477 0.83253 0.63862 0.0
C1686 C 0.65572 0.83214 0.59239 0.0
C1687 C 0.72927 0.81801 0.65953 0.0
C1688 C 0.58251 0.90136 0.54716 0.0
C1689 C 0.59833 0.88396 0.56074 0.0
C1690 C 0.65855 0.882 0.60169 0.0
C1691 C 0.68963 0.8247 0.63319 0.0
C1692 C 0.67325 0.84127 0.61405 0.0
C1693 C 0.62449 0.89001 0.56226 0.0
C1694 C 0.64108 0.87296 0.57998 0.0
H1695 H 0.68577 0.76955 0.68049 0.0
H1696 H 0.66044 0.795 0.64461 0.0
H1697 H 0.68714 0.87397 0.63562 0.0
H1698 H 0.6275 0.94845 0.52518 0.0
H1699 H 0.65481 0.91829 0.54832 0.0
C1700 C 0.68175 0.2115 0.34082 0.0
C1701 C 0.69206 0.20905 0.30775 0.0
C1702 C 0.66224 0.19476 0.35647 0.0
C1703 C 0.61296 0.14767 0.33589 0.0
H1704 H 0.61413 0.1221 0.42993 0.0
C1705 C 0.55837 0.05685 0.39042 0.0
C1706 C 0.54698 0.05471 0.42373 0.0
C1707 C 0.57332 0.07798 0.37732 0.0
C1708 C 0.61328 0.1293 0.40376 0.0
H1709 H 0.68977 0.18685 0.26541 0.0
H1710 H 0.65644 0.15793 0.29249 0.0
H1711 H 0.64566 0.15462 0.40567 0.0
H1712 H 0.54202 0.07367 0.46906 0.0
H1713 H 0.56832 0.11051 0.44622 0.0
H1714 H 0.58103 0.12204 0.33367 0.0
C1715 C 0.66295 0.17291 0.30633 0.0
C1716 C 0.63139 0.14799 0.38983 0.0
C1717 C 0.68233 0.18951 0.29082 0.0
C1718 C 0.55033 0.07468 0.44324 0.0
C1719 C 0.56564 0.09574 0.43026 0.0
C1720 C 0.59499 0.12899 0.34973 0.0
C1721 C 0.6525 0.17526 0.33933 0.0
C1722 C 0.63182 0.15708 0.35545 0.0
C1723 C 0.57757 0.09755 0.39722 0.0
C1724 C 0.59518 0.11918 0.38366 0.0
H1725 H 0.68877 0.2263 0.35464 0.0
H1726 H 0.6546 0.19726 0.38183 0.0
H1727 H 0.61219 0.15458 0.30959 0.0
H1728 H 0.55635 0.04185 0.37469 0.0
H1729 H 0.58239 0.07855 0.35193 0.0
C1730 C 0.80744 0.72659 0.34288 0.0
C1731 C 0.78533 0.71576 0.33104 0.0
C1732 C 0.82231 0.713 0.36421 0.0
C1733 C 0.8233 0.65678 0.42203 0.0
H1734 H 0.89535 0.66145 0.39368 0.0
C1735 C 0.88919 0.58315 0.46549 0.0
C1736 C 0.91489 0.5894 0.46991 0.0
C1737 C 0.87337 0.60072 0.4533 0.0
C1738 C 0.87541 0.66027 0.40247 0.0
H1739 H 0.76088 0.68238 0.33381 0.0
H1740 H 0.78695 0.65849 0.37152 0.0
H1741 H 0.86699 0.68758 0.36368 0.0
H1742 H 0.9438 0.61944 0.46626 0.0
H1743 H 0.91587 0.65054 0.44501 0.0
H1744 H 0.83165 0.62941 0.46075 0.0
C1745 C 0.79268 0.67761 0.36409 0.0
C1746 C 0.8591 0.67518 0.38513 0.0
C1747 C 0.77776 0.69125 0.34248 0.0
C1748 C 0.92417 0.614 0.46287 0.0
C1749 C 0.90818 0.63175 0.45058 0.0
C1750 C 0.83964 0.64202 0.43957 0.0
C1751 C 0.81545 0.68823 0.37447 0.0
C1752 C 0.8328 0.67331 0.39435 0.0
C1753 C 0.88263 0.62521 0.44529 0.0
C1754 C 0.86585 0.64319 0.42956 0.0
H1755 H 0.81376 0.74552 0.33493 0.0
H1756 H 0.83946 0.72183 0.37226 0.0
H1757 H 0.8032 0.65522 0.43006 0.0
H1758 H 0.88122 0.56443 0.47081 0.0
H1759 H 0.85402 0.59481 0.44906 0.0
C1760 C 0.35498 0.80175 0.39127 0.0
C1761 C 0.32862 0.80398 0.39243 0.0
C1762 C 0.37056 0.81765 0.40778 0.0
C1763 C 0.37068 0.86408 0.47031 0.0
H1764 H 0.42507 0.8972 0.40923 0.0
C1765 C 0.41537 0.96002 0.48957 0.0
C1766 C 0.44118 0.96584 0.47924 0.0
C1767 C 0.40349 0.93755 0.48342 0.0
C1768 C 0.41035 0.8879 0.427 0.0
H1769 H 0.29764 0.82321 0.41363 0.0
H1770 H 0.32469 0.8507 0.44281 0.0
H1771 H 0.40147 0.86144 0.39254 0.0
H1772 H 0.47501 0.95209 0.45557 0.0
H1773 H 0.45447 0.91285 0.44546 0.0
H1774 H 0.37937 0.89076 0.50463 0.0
C1775 C 0.33343 0.8368 0.42917 0.0
C1776 C 0.3968 0.86733 0.41738 0.0
C1777 C 0.31793 0.82113 0.41238 0.0
C1778 C 0.455 0.94838 0.46345 0.0
C1779 C 0.44318 0.92586 0.45755 0.0
C1780 C 0.3844 0.88456 0.48009 0.0
C1781 C 0.35999 0.83585 0.42605 0.0
C1782 C 0.37648 0.85548 0.4386 0.0
C1783 C 0.41717 0.92025 0.46701 0.0
C1784 C 0.40408 0.89706 0.45824 0.0
H1785 H 0.36369 0.78881 0.37584 0.0
H1786 H 0.39095 0.81634 0.40519 0.0
H1787 H 0.35527 0.85518 0.48734 0.0
H1788 H 0.40419 0.973 0.50191 0.0
H1789 H 0.38337 0.93406 0.4907 0.0
C1790 C 0.22048 0.31825 0.32778 0.0
C1791 C 0.21026 0.29653 0.31623 0.0
C1792 C 0.20476 0.33357 0.3447 0.0
C1793 C 0.13907 0.35063 0.34893 0.0
H1794 H 0.1552 0.38121 0.42969 0.0
C1795 C 0.06747 0.40929 0.41269 0.0
C1796 C 0.07661 0.43086 0.42556 0.0
C1797 C 0.08412 0.39207 0.40275 0.0
C1798 C 0.15055 0.37306 0.4069 0.0
H1799 H 0.1756 0.27348 0.31453 0.0
H1800 H 0.14823 0.30032 0.34371 0.0
H1801 H 0.18391 0.35258 0.40633 0.0
H1802 H 0.1104 0.45079 0.43941 0.0
H1803 H 0.13974 0.42104 0.42095 0.0
H1804 H 0.10633 0.37144 0.34844 0.0
C1805 C 0.16839 0.30552 0.33955 0.0
C1806 C 0.16696 0.35659 0.39363 0.0
C1807 C 0.18412 0.29009 0.32299 0.0
C1808 C 0.10279 0.43442 0.42935 0.0
C1809 C 0.11958 0.41726 0.41896 0.0
C1810 C 0.12289 0.36723 0.36187 0.0
C1811 C 0.17845 0.32764 0.35007 0.0
C1812 C 0.16126 0.34507 0.36463 0.0
C1813 C 0.11049 0.39606 0.4049 0.0
C1814 C 0.12823 0.37856 0.39122 0.0
H1815 H 0.24056 0.32372 0.32306 0.0
H1816 H 0.21303 0.35054 0.35237 0.0
H1817 H 0.13443 0.34246 0.32613 0.0
H1818 H 0.04736 0.4057 0.41006 0.0
H1819 H 0.07624 0.37565 0.39312 0.0
C1820 C 0.32342 0.22136 0.6745 0.0
C1821 C 0.29696 0.21698 0.68071 0.0
C1822 C 0.33758 0.20558 0.65614 0.0
C1823 C 0.33392 0.14187 0.63131 0.0
H1824 H 0.39613 0.16458 0.57701 0.0
C1825 C 0.3983 0.07569 0.56465 0.0
C1826 C 0.42399 0.07857 0.57159 0.0
C1827 C 0.38142 0.09342 0.57269 0.0
C1828 C 0.37876 0.15797 0.59206 0.0
H1829 H 0.26446 0.19325 0.67102 0.0
H1830 H 0.28895 0.16625 0.63821 0.0
H1831 H 0.36907 0.19432 0.60037 0.0
H1832 H 0.45226 0.10289 0.59097 0.0
H1833 H 0.42303 0.13361 0.60469 0.0
H1834 H 0.34381 0.10549 0.62304 0.0
C1835 C 0.29896 0.18142 0.64832 0.0
C1836 C 0.3633 0.17501 0.60564 0.0
C1837 C 0.28486 0.19704 0.66695 0.0
C1838 C 0.43257 0.09993 0.58557 0.0
C1839 C 0.41584 0.1177 0.59317 0.0
C1840 C 0.34927 0.12486 0.61745 0.0
C1841 C 0.32559 0.18515 0.64321 0.0
C1842 C 0.34091 0.16719 0.62607 0.0
C1843 C 0.39002 0.11453 0.5873 0.0
C1844 C 0.37214 0.13269 0.59827 0.0
H1845 H 0.33335 0.23646 0.68489 0.0
H1846 H 0.35805 0.20893 0.6532 0.0
H1847 H 0.31707 0.13503 0.64727 0.0
H1848 H 0.39114 0.05955 0.55366 0.0
H1849 H 0.36164 0.09059 0.56764 0.0
C1850 C 0.81198 0.32797 0.70485 0.0
C1851 C 0.79876 0.3122 0.68512 0.0
C1852 C 0.83009 0.34603 0.68982 0.0
C1853 C 0.87533 0.36181 0.61594 0.0
H1854 H 0.87611 0.42693 0.6463 0.0
C1855 C 0.948 0.44172 0.55815 0.0
C1856 C 0.95531 0.45988 0.57906 0.0
C1857 C 0.92949 0.42288 0.57002 0.0
C1858 C 0.87656 0.40875 0.63787 0.0
H1859 H 0.79422 0.30321 0.63384 0.0
H1860 H 0.82646 0.33482 0.60734 0.0
H1861 H 0.8419 0.39661 0.6675 0.0
H1862 H 0.95001 0.47139 0.62964 0.0
H1863 H 0.91891 0.43802 0.65087 0.0
H1864 H 0.91039 0.37371 0.587 0.0
C1865 C 0.82254 0.3331 0.6346 0.0
C1866 C 0.85672 0.3914 0.64987 0.0
C1867 C 0.80396 0.31516 0.64971 0.0
C1868 C 0.94478 0.45782 0.61276 0.0
C1869 C 0.9266 0.4388 0.62479 0.0
C1870 C 0.89541 0.37914 0.60416 0.0
C1871 C 0.83583 0.34873 0.65457 0.0
C1872 C 0.85594 0.36763 0.63936 0.0
C1873 C 0.91801 0.42148 0.60331 0.0
C1874 C 0.8965 0.40284 0.61526 0.0
H1875 H 0.80847 0.32627 0.7322 0.0
H1876 H 0.84009 0.35755 0.70599 0.0
H1877 H 0.87542 0.34359 0.60759 0.0
H1878 H 0.95547 0.44281 0.53193 0.0
H1879 H 0.9234 0.41012 0.55251 0.0
C1880 C 0.2123 0.667 0.60792 0.0
C1881 C 0.20449 0.67258 0.64071 0.0
C1882 C 0.19727 0.65053 0.59147 0.0
C1883 C 0.13081 0.62753 0.59148 0.0
H1884 H 0.15609 0.57263 0.54785 0.0
C1885 C 0.06382 0.54866 0.55683 0.0
C1886 C 0.07013 0.53756 0.52721 0.0
C1887 C 0.0807 0.5663 0.56789 0.0
C1888 C 0.14877 0.58813 0.55942 0.0
H1889 H 0.17615 0.66385 0.68302 0.0
H1890 H 0.15005 0.63553 0.65436 0.0
H1891 H 0.18585 0.60093 0.57185 0.0
H1892 H 0.09857 0.53698 0.48514 0.0
H1893 H 0.12764 0.56809 0.50402 0.0
H1894 H 0.09381 0.61498 0.57921 0.0
C1895 C 0.16731 0.64423 0.64101 0.0
C1896 C 0.16584 0.60426 0.57318 0.0
C1897 C 0.18228 0.66042 0.65738 0.0
C1898 C 0.0933 0.54494 0.50838 0.0
C1899 C 0.11004 0.56271 0.51925 0.0
C1900 C 0.11381 0.61157 0.57754 0.0
C1901 C 0.17428 0.63956 0.60763 0.0
C1902 C 0.15691 0.6238 0.58995 0.0
C1903 C 0.10411 0.57339 0.54937 0.0
C1904 C 0.12249 0.59139 0.56192 0.0
H1905 H 0.22937 0.67608 0.59458 0.0
H1906 H 0.20308 0.64708 0.56575 0.0
H1907 H 0.12349 0.64273 0.6038 0.0
H1908 H 0.04614 0.54332 0.57189 0.0
H1909 H 0.07565 0.57392 0.59144 0.0
loop_
_geom_bond_atom_site_label_1
_geom_bond_atom_site_label_2
_geom_bond_distance
_geom_bond_site_symmetry_2
_ccdc_geom_bond_type
C0 O16 1.251 . S
C0 O18 1.254 . S
N1 C2 1.333 . S
N1 C6 1.307 . S
N1 Zn7 2.020 . S
C2 N1 1.333 . S
C2 C3 1.379 . S
C2 H20 0.952 . S
C3 C2 1.379 . S
C3 C4 1.390 . S
C3 H30 0.949 . S
C4 C3 1.390 . S
C4 C5 1.357 . S
C5 C4 1.357 . S
C5 C6 1.370 . S
C5 H31 0.950 . S
C6 N1 1.307 . S
C6 C5 1.370 . S
C6 H24 0.948 . S
Zn7 N1 2.020 . S
Zn7 O16 2.039 . S
Zn7 O22 2.034 . S
Zn7 O26 2.025 . S
Zn7 O28 2.024 . S
C8 O27 1.246 . S
C8 O28 1.249 . S
N9 C10 1.307 . S
N9 C11 1.333 . S
N9 Zn15 2.020 . S
C10 N9 1.307 . S
C10 C14 1.370 . S
C10 H21 0.948 . S
C11 N9 1.333 . S
C11 C12 1.379 . S
C11 H19 0.952 . S
C12 C11 1.379 . S
C12 C13 1.390 . S
C12 H32 0.949 . S
C13 C12 1.390 . S
C13 C14 1.357 . S
C14 C10 1.370 . S
C14 C13 1.357 . S
C14 H33 0.950 . S
Zn15 N9 2.020 . S
Zn15 O18 2.025 . S
Zn15 O23 2.024 . S
Zn15 O25 2.039 . S
Zn15 O27 2.034 . S
O16 C0 1.251 . S
O16 Zn7 2.039 . S
C17 O22 1.246 . S
C17 O23 1.249 . S
O18 C0 1.254 . S
O18 Zn15 2.025 . S
H19 C11 0.952 . S
H20 C2 0.952 . S
H21 C10 0.948 . S
O22 Zn7 2.034 . S
O22 C17 1.246 . S
O23 Zn15 2.024 . S
O23 C17 1.249 . S
H24 C6 0.948 . S
O25 Zn15 2.039 . S
O25 C29 1.251 . S
O26 Zn7 2.025 . S
O26 C29 1.254 . S
O27 C8 1.246 . S
O27 Zn15 2.034 . S
O28 Zn7 2.024 . S
O28 C8 1.249 . S
C29 O25 1.251 . S
C29 O26 1.254 . S
H30 C3 0.949 . S
H31 C5 0.950 . S
H32 C12 0.949 . S
H33 C14 0.950 . S
C34 O50 1.251 . S
C34 O52 1.254 . S
N35 C36 1.333 . S
N35 C40 1.307 . S
N35 Zn41 2.020 . S
C36 N35 1.333 . S
C36 C37 1.379 . S
C36 H54 0.952 . S
C37 C36 1.379 . S
C37 C38 1.390 . S
C37 H64 0.949 . S
C38 C37 1.390 . S
C38 C39 1.357 . S
C39 C38 1.357 . S
C39 C40 1.370 . S
C39 H65 0.950 . S
C40 N35 1.307 . S
C40 C39 1.370 . S
C40 H58 0.948 . S
Zn41 N35 2.020 . S
Zn41 O50 2.039 . S
Zn41 O56 2.034 . S
Zn41 O60 2.025 . S
Zn41 O62 2.024 . S
C42 O61 1.246 . S
C42 O62 1.249 . S
N43 C44 1.307 . S
N43 C45 1.333 . S
N43 Zn49 2.020 . S
C44 N43 1.307 . S
C44 C48 1.370 . S
C44 H55 0.948 . S
C45 N43 1.333 . S
C45 C46 1.379 . S
C45 H53 0.952 . S
C46 C45 1.379 . S
C46 C47 1.390 . S
C46 H66 0.949 . S
C47 C46 1.390 . S
C47 C48 1.357 . S
C48 C44 1.370 . S
C48 C47 1.357 . S
C48 H67 0.950 . S
Zn49 N43 2.020 . S
Zn49 O52 2.025 . S
Zn49 O57 2.024 . S
Zn49 O59 2.039 . S
Zn49 O61 2.034 . S
O50 C34 1.251 . S
O50 Zn41 2.039 . S
C51 O56 1.246 . S
C51 O57 1.249 . S
O52 C34 1.254 . S
O52 Zn49 2.025 . S
H53 C45 0.952 . S
H54 C36 0.952 . S
H55 C44 0.948 . S
O56 Zn41 2.034 . S
O56 C51 1.246 . S
O57 Zn49 2.024 . S
O57 C51 1.249 . S
H58 C40 0.948 . S
O59 Zn49 2.039 . S
O59 C63 1.251 . S
O60 Zn41 2.025 . S
O60 C63 1.254 . S
O61 C42 1.246 . S
O61 Zn49 2.034 . S
O62 Zn41 2.024 . S
O62 C42 1.249 . S
C63 O59 1.251 . S
C63 O60 1.254 . S
H64 C37 0.949 . S
H65 C39 0.950 . S
H66 C46 0.949 . S
H67 C48 0.950 . S
C68 O84 1.251 . S
C68 O86 1.254 . S
N69 C70 1.333 . S
N69 C74 1.307 . S
N69 Zn75 2.020 . S
C70 N69 1.333 . S
C70 C71 1.379 . S
C70 H88 0.952 . S
C71 C70 1.379 . S
C71 C72 1.390 . S
C71 H98 0.949 . S
C72 C71 1.390 . S
C72 C73 1.357 . S
C73 C72 1.357 . S
C73 C74 1.370 . S
C73 H99 0.950 . S
C74 N69 1.307 . S
C74 C73 1.370 . S
C74 H92 0.948 . S
Zn75 N69 2.020 . S
Zn75 O84 2.039 . S
Zn75 O90 2.034 . S
Zn75 O94 2.025 . S
Zn75 O96 2.024 . S
C76 O95 1.246 . S
C76 O96 1.249 . S
N77 C78 1.307 . S
N77 C79 1.333 . S
N77 Zn83 2.020 . S
C78 N77 1.307 . S
C78 C82 1.370 . S
C78 H89 0.948 . S
C79 N77 1.333 . S
C79 C80 1.379 . S
C79 H87 0.952 . S
C80 C79 1.379 . S
C80 C81 1.390 . S
C80 H100 0.949 . S
C81 C80 1.390 . S
C81 C82 1.357 . S
C82 C78 1.370 . S
C82 C81 1.357 . S
C82 H101 0.950 . S
Zn83 N77 2.020 . S
Zn83 O86 2.025 . S
Zn83 O91 2.024 . S
Zn83 O93 2.039 . S
Zn83 O95 2.034 . S
O84 C68 1.251 . S
O84 Zn75 2.039 . S
C85 O90 1.246 . S
C85 O91 1.249 . S
O86 C68 1.254 . S
O86 Zn83 2.025 . S
H87 C79 0.952 . S
H88 C70 0.952 . S
H89 C78 0.948 . S
O90 Zn75 2.034 . S
O90 C85 1.246 . S
O91 Zn83 2.024 . S
O91 C85 1.249 . S
H92 C74 0.948 . S
O93 Zn83 2.039 . S
O93 C97 1.251 . S
O94 Zn75 2.025 . S
O94 C97 1.254 . S
O95 C76 1.246 . S
O95 Zn83 2.034 . S
O96 Zn75 2.024 . S
O96 C76 1.249 . S
C97 O93 1.251 . S
C97 O94 1.254 . S
H98 C71 0.949 . S
H99 C73 0.950 . S
H100 C80 0.949 . S
H101 C82 0.950 . S
C102 O118 1.251 . S
C102 O120 1.254 . S
N103 C104 1.333 . S
N103 C108 1.307 . S
N103 Zn109 2.020 . S
C104 N103 1.333 . S
C104 C105 1.379 . S
C104 H122 0.952 . S
C105 C104 1.379 . S
C105 C106 1.390 . S
C105 H132 0.949 . S
C106 C105 1.390 . S
C106 C107 1.357 . S
C107 C106 1.357 . S
C107 C108 1.370 . S
C107 H133 0.950 . S
C108 N103 1.307 . S
C108 C107 1.370 . S
C108 H126 0.948 . S
Zn109 N103 2.020 . S
Zn109 O118 2.039 . S
Zn109 O124 2.034 . S
Zn109 O128 2.025 . S
Zn109 O130 2.024 . S
C110 O129 1.246 . S
C110 O130 1.249 . S
N111 C112 1.307 . S
N111 C113 1.333 . S
N111 Zn117 2.020 . S
C112 N111 1.307 . S
C112 C116 1.370 . S
C112 H123 0.948 . S
C113 N111 1.333 . S
C113 C114 1.379 . S
C113 H121 0.952 . S
C114 C113 1.379 . S
C114 C115 1.390 . S
C114 H134 0.949 . S
C115 C114 1.390 . S
C115 C116 1.357 . S
C116 C112 1.370 . S
C116 C115 1.357 . S
C116 H135 0.950 . S
Zn117 N111 2.020 . S
Zn117 O120 2.025 . S
Zn117 O125 2.024 . S
Zn117 O127 2.039 . S
Zn117 O129 2.034 . S
O118 C102 1.251 . S
O118 Zn109 2.039 . S
C119 O124 1.246 . S
C119 O125 1.249 . S
O120 C102 1.254 . S
O120 Zn117 2.025 . S
H121 C113 0.952 . S
H122 C104 0.952 . S
H123 C112 0.948 . S
O124 Zn109 2.034 . S
O124 C119 1.246 . S
O125 Zn117 2.024 . S
O125 C119 1.249 . S
H126 C108 0.948 . S
O127 Zn117 2.039 . S
O127 C131 1.251 . S
O128 Zn109 2.025 . S
O128 C131 1.254 . S
O129 C110 1.246 . S
O129 Zn117 2.034 . S
O130 Zn109 2.024 . S
O130 C110 1.249 . S
C131 O127 1.251 . S
C131 O128 1.254 . S
H132 C105 0.949 . S
H133 C107 0.950 . S
H134 C114 0.949 . S
H135 C116 0.950 . S
C136 O152 1.251 . S
C136 O154 1.254 . S
N137 C138 1.333 . S
N137 C142 1.307 . S
N137 Zn143 2.020 . S
C138 N137 1.333 . S
C138 C139 1.379 . S
C138 H156 0.952 . S
C139 C138 1.379 . S
C139 C140 1.390 . S
C139 H166 0.949 . S
C140 C139 1.390 . S
C140 C141 1.357 . S
C141 C140 1.357 . S
C141 C142 1.370 . S
C141 H167 0.950 . S
C142 N137 1.307 . S
C142 C141 1.370 . S
C142 H160 0.948 . S
Zn143 N137 2.020 . S
Zn143 O152 2.039 . S
Zn143 O158 2.034 . S
Zn143 O162 2.025 . S
Zn143 O164 2.024 . S
C144 O163 1.246 . S
C144 O164 1.249 . S
N145 C146 1.307 . S
N145 C147 1.333 . S
N145 Zn151 2.020 . S
C146 N145 1.307 . S
C146 C150 1.370 . S
C146 H157 0.948 . S
C147 N145 1.333 . S
C147 C148 1.379 . S
C147 H155 0.952 . S
C148 C147 1.379 . S
C148 C149 1.390 . S
C148 H168 0.949 . S
C149 C148 1.390 . S
C149 C150 1.357 . S
C150 C146 1.370 . S
C150 C149 1.357 . S
C150 H169 0.950 . S
Zn151 N145 2.020 . S
Zn151 O154 2.025 . S
Zn151 O159 2.024 . S
Zn151 O161 2.039 . S
Zn151 O163 2.034 . S
O152 C136 1.251 . S
O152 Zn143 2.039 . S
C153 O158 1.246 . S
C153 O159 1.249 . S
O154 C136 1.254 . S
O154 Zn151 2.025 . S
H155 C147 0.952 . S
H156 C138 0.952 . S
H157 C146 0.948 . S
O158 Zn143 2.034 . S
O158 C153 1.246 . S
O159 Zn151 2.024 . S
O159 C153 1.249 . S
H160 C142 0.948 . S
O161 Zn151 2.039 . S
O161 C165 1.251 . S
O162 Zn143 2.025 . S
O162 C165 1.254 . S
O163 C144 1.246 . S
O163 Zn151 2.034 . S
O164 Zn143 2.024 . S
O164 C144 1.249 . S
C165 O161 1.251 . S
C165 O162 1.254 . S
H166 C139 0.949 . S
H167 C141 0.950 . S
H168 C148 0.949 . S
H169 C150 0.950 . S
C170 O186 1.251 . S
C170 O188 1.254 . S
N171 C172 1.333 . S
N171 C176 1.307 . S
N171 Zn177 2.020 . S
C172 N171 1.333 . S
C172 C173 1.379 . S
C172 H190 0.952 . S
C173 C172 1.379 . S
C173 C174 1.390 . S
C173 H200 0.949 . S
C174 C173 1.390 . S
C174 C175 1.357 . S
C175 C174 1.357 . S
C175 C176 1.370 . S
C175 H201 0.950 . S
C176 N171 1.307 . S
C176 C175 1.370 . S
C176 H194 0.948 . S
Zn177 N171 2.020 . S
Zn177 O186 2.039 . S
Zn177 O192 2.034 . S
Zn177 O196 2.025 . S
Zn177 O198 2.024 . S
C178 O197 1.246 . S
C178 O198 1.249 . S
N179 C180 1.307 . S
N179 C181 1.333 . S
N179 Zn185 2.020 . S
C180 N179 1.307 . S
C180 C184 1.370 . S
C180 H191 0.948 . S
C181 N179 1.333 . S
C181 C182 1.379 . S
C181 H189 0.952 . S
C182 C181 1.379 . S
C182 C183 1.390 . S
C182 H202 0.949 . S
C183 C182 1.390 . S
C183 C184 1.357 . S
C184 C180 1.370 . S
C184 C183 1.357 . S
C184 H203 0.950 . S
Zn185 N179 2.020 . S
Zn185 O188 2.025 . S
Zn185 O193 2.024 . S
Zn185 O195 2.039 . S
Zn185 O197 2.034 . S
O186 C170 1.251 . S
O186 Zn177 2.039 . S
C187 O192 1.246 . S
C187 O193 1.249 . S
O188 C170 1.254 . S
O188 Zn185 2.025 . S
H189 C181 0.952 . S
H190 C172 0.952 . S
H191 C180 0.948 . S
O192 Zn177 2.034 . S
O192 C187 1.246 . S
O193 Zn185 2.024 . S
O193 C187 1.249 . S
H194 C176 0.948 . S
O195 Zn185 2.039 . S
O195 C199 1.251 . S
O196 Zn177 2.025 . S
O196 C199 1.254 . S
O197 C178 1.246 . S
O197 Zn185 2.034 . S
O198 Zn177 2.024 . S
O198 C178 1.249 . S
C199 O195 1.251 . S
C199 O196 1.254 . S
H200 C173 0.949 . S
H201 C175 0.950 . S
H202 C182 0.949 . S
H203 C184 0.950 . S
C204 O220 1.251 . S
C204 O222 1.254 . S
N205 C206 1.333 . S
N205 C210 1.307 . S
N205 Zn211 2.020 . S
C206 N205 1.333 . S
C206 C207 1.379 . S
C206 H224 0.952 . S
C207 C206 1.379 . S
C207 C208 1.390 . S
C207 H234 0.949 . S
C208 C207 1.390 . S
C208 C209 1.357 . S
C209 C208 1.357 . S
C209 C210 1.370 . S
C209 H235 0.950 . S
C210 N205 1.307 . S
C210 C209 1.370 . S
C210 H228 0.948 . S
Zn211 N205 2.020 . S
Zn211 O220 2.039 . S
Zn211 O226 2.034 . S
Zn211 O230 2.025 . S
Zn211 O232 2.024 . S
C212 O231 1.246 . S
C212 O232 1.249 . S
N213 C214 1.307 . S
N213 C215 1.333 . S
N213 Zn219 2.020 . S
C214 N213 1.307 . S
C214 C218 1.370 . S
C214 H225 0.948 . S
C215 N213 1.333 . S
C215 C216 1.379 . S
C215 H223 0.952 . S
C216 C215 1.379 . S
C216 C217 1.390 . S
C216 H236 0.949 . S
C217 C216 1.390 . S
C217 C218 1.357 . S
C218 C214 1.370 . S
C218 C217 1.357 . S
C218 H237 0.950 . S
Zn219 N213 2.020 . S
Zn219 O222 2.025 . S
Zn219 O227 2.024 . S
Zn219 O229 2.039 . S
Zn219 O231 2.034 . S
O220 C204 1.251 . S
O220 Zn211 2.039 . S
C221 O226 1.246 . S
C221 O227 1.249 . S
O222 C204 1.254 . S
O222 Zn219 2.025 . S
H223 C215 0.952 . S
H224 C206 0.952 . S
H225 C214 0.948 . S
O226 Zn211 2.034 . S
O226 C221 1.246 . S
O227 Zn219 2.024 . S
O227 C221 1.249 . S
H228 C210 0.948 . S
O229 Zn219 2.039 . S
O229 C233 1.251 . S
O230 Zn211 2.025 . S
O230 C233 1.254 . S
O231 C212 1.246 . S
O231 Zn219 2.034 . S
O232 Zn211 2.024 . S
O232 C212 1.249 . S
C233 O229 1.251 . S
C233 O230 1.254 . S
H234 C207 0.949 . S
H235 C209 0.950 . S
H236 C216 0.949 . S
H237 C218 0.950 . S
C238 O254 1.251 . S
C238 O256 1.254 . S
N239 C240 1.333 . S
N239 C244 1.307 . S
N239 Zn245 2.020 . S
C240 N239 1.333 . S
C240 C241 1.379 . S
C240 H258 0.952 . S
C241 C240 1.379 . S
C241 C242 1.390 . S
C241 H268 0.949 . S
C242 C241 1.390 . S
C242 C243 1.357 . S
C243 C242 1.357 . S
C243 C244 1.370 . S
C243 H269 0.950 . S
C244 N239 1.307 . S
C244 C243 1.370 . S
C244 H262 0.948 . S
Zn245 N239 2.020 . S
Zn245 O254 2.039 . S
Zn245 O260 2.034 . S
Zn245 O264 2.025 . S
Zn245 O266 2.024 . S
C246 O265 1.246 . S
C246 O266 1.249 . S
N247 C248 1.307 . S
N247 C249 1.333 . S
N247 Zn253 2.020 . S
C248 N247 1.307 . S
C248 C252 1.370 . S
C248 H259 0.948 . S
C249 N247 1.333 . S
C249 C250 1.379 . S
C249 H257 0.952 . S
C250 C249 1.379 . S
C250 C251 1.390 . S
C250 H270 0.949 . S
C251 C250 1.390 . S
C251 C252 1.357 . S
C252 C248 1.370 . S
C252 C251 1.357 . S
C252 H271 0.950 . S
Zn253 N247 2.020 . S
Zn253 O256 2.025 . S
Zn253 O261 2.024 . S
Zn253 O263 2.039 . S
Zn253 O265 2.034 . S
O254 C238 1.251 . S
O254 Zn245 2.039 . S
C255 O260 1.246 . S
C255 O261 1.249 . S
O256 C238 1.254 . S
O256 Zn253 2.025 . S
H257 C249 0.952 . S
H258 C240 0.952 . S
H259 C248 0.948 . S
O260 Zn245 2.034 . S
O260 C255 1.246 . S
O261 Zn253 2.024 . S
O261 C255 1.249 . S
H262 C244 0.948 . S
O263 Zn253 2.039 . S
O263 C267 1.251 . S
O264 Zn245 2.025 . S
O264 C267 1.254 . S
O265 C246 1.246 . S
O265 Zn253 2.034 . S
O266 Zn245 2.024 . S
O266 C246 1.249 . S
C267 O263 1.251 . S
C267 O264 1.254 . S
H268 C241 0.949 . S
H269 C243 0.950 . S
H270 C250 0.949 . S
H271 C252 0.950 . S
Co272 O275 2.042 . S
Co272 O282 2.264 . S
Co272 O301 2.286 . S
Co272 O302 2.069 . S
Co272 O304 2.015 1_455 S
Co273 O275 2.122 . S
Co273 O281 2.073 . S
Co273 O282 2.327 . S
Co273 O283 1.976 1_455 S
Co274 O275 2.082 1_545 S
Co274 O277 2.092 1_455 S
Co274 O284 2.109 1_445 S
Co274 O285 2.148 . S
Co274 O289 2.114 . S
Co274 O303 2.139 1_445 S
O275 Co272 2.042 . S
O275 Co273 2.122 . S
O275 Co274 2.082 1_565 S
O275 H276 0.980 . S
H276 O275 0.980 . S
O277 Co274 2.092 1_655 S
O277 Co278 2.042 . S
O277 Co279 2.122 . S
O277 H280 0.980 . S
Co278 O277 2.042 . S
Co278 O286 2.286 . S
Co278 O287 2.069 . S
Co278 O288 2.015 1_655 S
Co278 O291 2.264 . S
Co279 O277 2.122 . S
Co279 O290 1.976 1_655 S
Co279 O291 2.327 . S
Co279 O292 2.073 . S
H280 O277 0.980 . S
O281 Co273 2.073 . S
O281 C296 1.245 . S
O282 Co272 2.264 . S
O282 Co273 2.327 . S
O282 C296 1.257 . S
O283 Co273 1.976 1_655 S
O283 C295 1.251 . S
O284 Co274 2.109 1_665 S
O284 C295 1.274 . S
O285 Co274 2.148 . S
O285 C298 1.246 . S
O286 Co278 2.286 . S
O286 C297 1.259 . S
O287 Co278 2.069 . S
O287 C297 1.289 . S
O288 Co278 2.015 1_455 S
O288 C298 1.257 . S
O289 Co274 2.114 . S
O289 C299 1.274 . S
O290 Co279 1.976 1_455 S
O290 C299 1.251 . S
O291 Co278 2.264 . S
O291 Co279 2.327 . S
O291 C300 1.257 . S
O292 Co279 2.073 . S
O292 C300 1.245 . S
C293 O301 1.259 . S
C293 O302 1.289 . S
C294 O303 1.246 . S
C294 O304 1.257 . S
C295 O283 1.251 . S
C295 O284 1.274 . S
C296 O281 1.245 . S
C296 O282 1.257 . S
C297 O286 1.259 . S
C297 O287 1.289 . S
C298 O285 1.246 . S
C298 O288 1.257 . S
C299 O289 1.274 . S
C299 O290 1.251 . S
C300 O291 1.257 . S
C300 O292 1.245 . S
O301 Co272 2.286 . S
O301 C293 1.259 . S
O302 Co272 2.069 . S
O302 C293 1.289 . S
O303 Co274 2.139 1_665 S
O303 C294 1.246 . S
O304 Co272 2.015 1_655 S
O304 C294 1.257 . S
Co305 O308 2.042 1_556 S
Co305 O315 2.264 1_556 S
Co305 O334 2.286 . S
Co305 O335 2.069 . S
Co305 O337 2.015 . S
Co306 O308 2.122 . S
Co306 O314 2.073 . S
Co306 O315 2.327 . S
Co306 O316 1.976 . S
Co307 O308 2.082 1_545 S
Co307 O310 2.092 1_554 S
Co307 O317 2.109 1_545 S
Co307 O318 2.148 . S
Co307 O322 2.114 1_554 S
Co307 O336 2.139 1_544 S
O308 Co305 2.042 1_554 S
O308 Co306 2.122 . S
O308 Co307 2.082 1_565 S
O308 H309 0.980 . S
H309 O308 0.980 . S
O310 Co307 2.092 1_556 S
O310 Co311 2.042 1_556 S
O310 Co312 2.122 . S
O310 H313 0.980 . S
Co311 O310 2.042 1_554 S
Co311 O319 2.286 . S
Co311 O320 2.069 . S
Co311 O321 2.015 . S
Co311 O324 2.264 1_554 S
Co312 O310 2.122 . S
Co312 O323 1.976 . S
Co312 O324 2.327 . S
Co312 O325 2.073 . S
H313 O310 0.980 . S
O314 Co306 2.073 . S
O314 C329 1.245 . S
O315 Co305 2.264 1_554 S
O315 Co306 2.327 . S
O315 C329 1.257 . S
O316 Co306 1.976 . S
O316 C328 1.251 . S
O317 Co307 2.109 1_565 S
O317 C328 1.274 . S
O318 Co307 2.148 . S
O318 C331 1.246 . S
O319 Co311 2.286 . S
O319 C330 1.259 . S
O320 Co311 2.069 . S
O320 C330 1.289 . S
O321 Co311 2.015 . S
O321 C331 1.257 . S
O322 Co307 2.114 1_556 S
O322 C332 1.274 . S
O323 Co312 1.976 . S
O323 C332 1.251 . S
O324 Co311 2.264 1_556 S
O324 Co312 2.327 . S
O324 C333 1.257 . S
O325 Co312 2.073 . S
O325 C333 1.245 . S
C326 O334 1.259 . S
C326 O335 1.289 . S
C327 O336 1.246 . S
C327 O337 1.257 . S
C328 O316 1.251 . S
C328 O317 1.274 . S
C329 O314 1.245 . S
C329 O315 1.257 . S
C330 O319 1.259 . S
C330 O320 1.289 . S
C331 O318 1.246 . S
C331 O321 1.257 . S
C332 O322 1.274 . S
C332 O323 1.251 . S
C333 O324 1.257 . S
C333 O325 1.245 . S
O334 Co305 2.286 . S
O334 C326 1.259 . S
O335 Co305 2.069 . S
O335 C326 1.289 . S
O336 Co307 2.139 1_566 S
O336 C327 1.246 . S
O337 Co305 2.015 . S
O337 C327 1.257 . S
Co338 O341 2.042 1_556 S
Co338 O348 2.264 1_556 S
Co338 O367 2.286 . S
Co338 O368 2.069 . S
Co338 O370 2.015 1_455 S
Co339 O341 2.122 . S
Co339 O347 2.073 . S
Co339 O348 2.327 . S
Co339 O349 1.976 1_455 S
Co340 O341 2.087 . S
Co340 O343 2.087 1_454 S
Co340 O350 2.111 1_455 S
Co340 O351 2.143 . S
Co340 O355 2.111 1_554 S
Co340 O369 2.143 1_454 S
O341 Co338 2.042 1_554 S
O341 Co339 2.122 . S
O341 Co340 2.087 . S
O341 H342 0.980 . S
H342 O341 0.980 . S
O343 Co340 2.087 1_656 S
O343 Co344 2.042 1_556 S
O343 Co345 2.122 . S
O343 H346 0.980 . S
Co344 O343 2.042 1_554 S
Co344 O352 2.286 . S
Co344 O353 2.069 . S
Co344 O354 2.015 1_655 S
Co344 O357 2.264 1_554 S
Co345 O343 2.122 . S
Co345 O356 1.976 1_655 S
Co345 O357 2.327 . S
Co345 O358 2.073 . S
H346 O343 0.980 . S
O347 Co339 2.073 . S
O347 C362 1.245 . S
O348 Co338 2.264 1_554 S
O348 Co339 2.327 . S
O348 C362 1.257 . S
O349 Co339 1.976 1_655 S
O349 C361 1.251 . S
O350 Co340 2.111 1_655 S
O350 C361 1.274 . S
O351 Co340 2.143 . S
O351 C364 1.246 . S
O352 Co344 2.286 . S
O352 C363 1.259 . S
O353 Co344 2.069 . S
O353 C363 1.289 . S
O354 Co344 2.015 1_455 S
O354 C364 1.257 . S
O355 Co340 2.111 1_556 S
O355 C365 1.274 . S
O356 Co345 1.976 1_455 S
O356 C365 1.251 . S
O357 Co344 2.264 1_556 S
O357 Co345 2.327 . S
O357 C366 1.257 . S
O358 Co345 2.073 . S
O358 C366 1.245 . S
C359 O367 1.259 . S
C359 O368 1.289 . S
C360 O369 1.246 . S
C360 O370 1.257 . S
C361 O349 1.251 . S
C361 O350 1.274 . S
C362 O347 1.245 . S
C362 O348 1.257 . S
C363 O352 1.259 . S
C363 O353 1.289 . S
C364 O351 1.246 . S
C364 O354 1.257 . S
C365 O355 1.274 . S
C365 O356 1.251 . S
C366 O357 1.257 . S
C366 O358 1.245 . S
O367 Co338 2.286 . S
O367 C359 1.259 . S
O368 Co338 2.069 . S
O368 C359 1.289 . S
O369 Co340 2.143 1_656 S
O369 C360 1.246 . S
O370 Co338 2.015 1_655 S
O370 C360 1.257 . S
Co371 O374 2.042 1_556 S
Co371 O381 2.264 1_556 S
Co371 O400 2.286 . S
Co371 O401 2.069 . S
Co371 O403 2.015 . S
Co372 O374 2.122 . S
Co372 O380 2.073 . S
Co372 O381 2.327 . S
Co372 O382 1.976 . S
Co373 O374 2.087 . S
Co373 O376 2.087 1_554 S
Co373 O383 2.111 . S
Co373 O384 2.143 . S
Co373 O388 2.111 1_554 S
Co373 O402 2.143 1_554 S
O374 Co371 2.042 1_554 S
O374 Co372 2.122 . S
O374 Co373 2.087 . S
O374 H375 0.980 . S
H375 O374 0.980 . S
O376 Co373 2.087 1_556 S
O376 Co377 2.042 1_556 S
O376 Co378 2.122 . S
O376 H379 0.980 . S
Co377 O376 2.042 1_554 S
Co377 O385 2.286 . S
Co377 O386 2.069 . S
Co377 O387 2.015 . S
Co377 O390 2.264 1_554 S
Co378 O376 2.122 . S
Co378 O389 1.976 . S
Co378 O390 2.327 . S
Co378 O391 2.073 . S
H379 O376 0.980 . S
O380 Co372 2.073 . S
O380 C395 1.245 . S
O381 Co371 2.264 1_554 S
O381 Co372 2.327 . S
O381 C395 1.257 . S
O382 Co372 1.976 . S
O382 C394 1.251 . S
O383 Co373 2.111 . S
O383 C394 1.274 . S
O384 Co373 2.143 . S
O384 C397 1.246 . S
O385 Co377 2.286 . S
O385 C396 1.259 . S
O386 Co377 2.069 . S
O386 C396 1.289 . S
O387 Co377 2.015 . S
O387 C397 1.257 . S
O388 Co373 2.111 1_556 S
O388 C398 1.274 . S
O389 Co378 1.976 . S
O389 C398 1.251 . S
O390 Co377 2.264 1_556 S
O390 Co378 2.327 . S
O390 C399 1.257 . S
O391 Co378 2.073 . S
O391 C399 1.245 . S
C392 O400 1.259 . S
C392 O401 1.289 . S
C393 O402 1.246 . S
C393 O403 1.257 . S
C394 O382 1.251 . S
C394 O383 1.274 . S
C395 O380 1.245 . S
C395 O381 1.257 . S
C396 O385 1.259 . S
C396 O386 1.289 . S
C397 O384 1.246 . S
C397 O387 1.257 . S
C398 O388 1.274 . S
C398 O389 1.251 . S
C399 O390 1.257 . S
C399 O391 1.245 . S
O400 Co371 2.286 . S
O400 C392 1.259 . S
O401 Co371 2.069 . S
O401 C392 1.289 . S
O402 Co373 2.143 1_556 S
O402 C393 1.246 . S
O403 Co371 2.015 . S
O403 C393 1.257 . S
Co404 O407 2.042 . S
Co404 O414 2.264 . S
Co404 O433 2.286 . S
Co404 O434 2.069 . S
Co404 O436 2.015 . S
Co405 O407 2.122 . S
Co405 O413 2.073 . S
Co405 O414 2.327 . S
Co405 O415 1.976 . S
Co406 O407 2.087 . S
Co406 O409 2.087 1_455 S
Co406 O416 2.111 . S
Co406 O417 2.143 1_455 S
Co406 O421 2.111 1_455 S
Co406 O435 2.143 . S
O407 Co404 2.042 . S
O407 Co405 2.122 . S
O407 Co406 2.087 . S
O407 H408 0.980 . S
H408 O407 0.980 . S
O409 Co406 2.087 1_655 S
O409 Co410 2.042 . S
O409 Co411 2.122 . S
O409 H412 0.980 . S
Co410 O409 2.042 . S
Co410 O418 2.286 . S
Co410 O419 2.069 . S
Co410 O420 2.015 . S
Co410 O423 2.264 . S
Co411 O409 2.122 . S
Co411 O422 1.976 . S
Co411 O423 2.327 . S
Co411 O424 2.073 . S
H412 O409 0.980 . S
O413 Co405 2.073 . S
O413 C428 1.245 . S
O414 Co404 2.264 . S
O414 Co405 2.327 . S
O414 C428 1.257 . S
O415 Co405 1.976 . S
O415 C427 1.251 . S
O416 Co406 2.111 . S
O416 C427 1.274 . S
O417 Co406 2.143 1_655 S
O417 C430 1.246 . S
O418 Co410 2.286 . S
O418 C429 1.259 . S
O419 Co410 2.069 . S
O419 C429 1.289 . S
O420 Co410 2.015 . S
O420 C430 1.257 . S
O421 Co406 2.111 1_655 S
O421 C431 1.274 . S
O422 Co411 1.976 . S
O422 C431 1.251 . S
O423 Co410 2.264 . S
O423 Co411 2.327 . S
O423 C432 1.257 . S
O424 Co411 2.073 . S
O424 C432 1.245 . S
C425 O433 1.259 . S
C425 O434 1.289 . S
C426 O435 1.246 . S
C426 O436 1.257 . S
C427 O415 1.251 . S
C427 O416 1.274 . S
C428 O413 1.245 . S
C428 O414 1.257 . S
C429 O418 1.259 . S
C429 O419 1.289 . S
C430 O417 1.246 . S
C430 O420 1.257 . S
C431 O421 1.274 . S
C431 O422 1.251 . S
C432 O423 1.257 . S
C432 O424 1.245 . S
O433 Co404 2.286 . S
O433 C425 1.259 . S
O434 Co404 2.069 . S
O434 C425 1.289 . S
O435 Co406 2.143 . S
O435 C426 1.246 . S
O436 Co404 2.015 . S
O436 C426 1.257 . S
Co437 O440 2.042 . S
Co437 O447 2.264 . S
Co437 O466 2.286 . S
Co437 O467 2.069 . S
Co437 O469 2.015 1_565 S
Co438 O440 2.122 . S
Co438 O446 2.073 . S
Co438 O447 2.327 . S
Co438 O448 1.976 1_565 S
Co439 O440 2.082 1_545 S
Co439 O442 2.092 . S
Co439 O449 2.116 . S
Co439 O450 2.140 1_545 S
Co439 O454 2.107 1_545 S
Co439 O468 2.147 . S
O440 Co437 2.042 . S
O440 Co438 2.122 . S
O440 Co439 2.082 1_565 S
O440 H441 0.980 . S
H441 O440 0.980 . S
O442 Co439 2.092 . S
O442 Co443 2.042 . S
O442 Co444 2.122 . S
O442 H445 0.980 . S
Co443 O442 2.042 . S
Co443 O451 2.286 . S
Co443 O452 2.069 . S
Co443 O453 2.015 1_545 S
Co443 O456 2.264 . S
Co444 O442 2.122 . S
Co444 O455 1.976 1_545 S
Co444 O456 2.327 . S
Co444 O457 2.073 . S
H445 O442 0.980 . S
O446 Co438 2.073 . S
O446 C461 1.245 . S
O447 Co437 2.264 . S
O447 Co438 2.327 . S
O447 C461 1.257 . S
O448 Co438 1.976 1_545 S
O448 C460 1.251 . S
O449 Co439 2.116 . S
O449 C460 1.274 . S
O450 Co439 2.140 1_565 S
O450 C463 1.246 . S
O451 Co443 2.286 . S
O451 C462 1.259 . S
O452 Co443 2.069 . S
O452 C462 1.289 . S
O453 Co443 2.015 1_565 S
O453 C463 1.257 . S
O454 Co439 2.107 1_565 S
O454 C464 1.274 . S
O455 Co444 1.976 1_565 S
O455 C464 1.251 . S
O456 Co443 2.264 . S
O456 Co444 2.327 . S
O456 C465 1.257 . S
O457 Co444 2.073 . S
O457 C465 1.245 . S
C458 O466 1.259 . S
C458 O467 1.289 . S
C459 O468 1.246 . S
C459 O469 1.257 . S
C460 O448 1.251 . S
C460 O449 1.274 . S
C461 O446 1.245 . S
C461 O447 1.257 . S
C462 O451 1.259 . S
C462 O452 1.289 . S
C463 O450 1.246 . S
C463 O453 1.257 . S
C464 O454 1.274 . S
C464 O455 1.251 . S
C465 O456 1.257 . S
C465 O457 1.245 . S
O466 Co437 2.286 . S
O466 C458 1.259 . S
O467 Co437 2.069 . S
O467 C458 1.289 . S
O468 Co439 2.147 . S
O468 C459 1.246 . S
O469 Co437 2.015 1_545 S
O469 C459 1.257 . S
C470 C471 1.349 . S
C470 C472 1.327 . S
C470 H495 0.950 . S
C471 C470 1.349 . S
C471 C487 1.349 . S
C472 C470 1.327 . S
C472 C491 1.429 . S
C472 H496 0.950 . S
C473 C490 1.574 . S
C473 C492 1.368 . S
C473 H497 0.949 . S
H474 C478 0.949 . S
C475 C476 1.349 . S
C475 C477 1.327 . S
C475 H498 0.950 . S
C476 C475 1.349 . S
C476 C488 1.349 . S
C477 C475 1.327 . S
C477 C493 1.429 . S
C477 H499 0.950 . S
C478 H474 0.949 . S
C478 C486 1.574 . S
C478 C494 1.368 . S
H479 C487 0.950 . S
H480 C485 0.950 . S
H481 C486 0.949 . S
H482 C488 0.950 . S
H483 C489 0.950 . S
H484 C490 0.949 . S
C485 H480 0.950 . S
C485 C487 1.327 . S
C485 C491 1.429 . S
C486 C478 1.574 . S
C486 H481 0.949 . S
C486 C492 1.368 . S
C487 C471 1.349 . S
C487 H479 0.950 . S
C487 C485 1.327 . S
C488 C476 1.349 . S
C488 H482 0.950 . S
C488 C489 1.327 . S
C489 H483 0.950 . S
C489 C488 1.327 . S
C489 C493 1.429 . S
C490 C473 1.574 . S
C490 H484 0.949 . S
C490 C494 1.368 . S
C491 C472 1.429 . S
C491 C485 1.429 . S
C491 C492 1.523 . S
C492 C473 1.368 . S
C492 C486 1.368 . S
C492 C491 1.523 . S
C493 C477 1.429 . S
C493 C489 1.429 . S
C493 C494 1.523 . S
C494 C478 1.368 . S
C494 C490 1.368 . S
C494 C493 1.523 . S
H495 C470 0.950 . S
H496 C472 0.950 . S
H497 C473 0.949 . S
H498 C475 0.950 . S
H499 C477 0.950 . S
C500 C501 1.349 . S
C500 C502 1.327 . S
C500 H525 0.950 . S
C501 C500 1.349 . S
C501 C517 1.349 . S
C502 C500 1.327 . S
C502 C521 1.429 . S
C502 H526 0.950 . S
C503 C520 1.574 . S
C503 C522 1.368 . S
C503 H527 0.949 . S
H504 C508 0.949 . S
C505 C506 1.349 . S
C505 C507 1.327 . S
C505 H528 0.950 . S
C506 C505 1.349 . S
C506 C518 1.349 . S
C507 C505 1.327 . S
C507 C523 1.429 . S
C507 H529 0.950 . S
C508 H504 0.949 . S
C508 C516 1.574 . S
C508 C524 1.368 . S
H509 C517 0.950 . S
H510 C515 0.950 . S
H511 C516 0.949 . S
H512 C518 0.950 . S
H513 C519 0.950 . S
H514 C520 0.949 . S
C515 H510 0.950 . S
C515 C517 1.327 . S
C515 C521 1.429 . S
C516 C508 1.574 . S
C516 H511 0.949 . S
C516 C522 1.368 . S
C517 C501 1.349 . S
C517 H509 0.950 . S
C517 C515 1.327 . S
C518 C506 1.349 . S
C518 H512 0.950 . S
C518 C519 1.327 . S
C519 H513 0.950 . S
C519 C518 1.327 . S
C519 C523 1.429 . S
C520 C503 1.574 . S
C520 H514 0.949 . S
C520 C524 1.368 . S
C521 C502 1.429 . S
C521 C515 1.429 . S
C521 C522 1.523 . S
C522 C503 1.368 . S
C522 C516 1.368 . S
C522 C521 1.523 . S
C523 C507 1.429 . S
C523 C519 1.429 . S
C523 C524 1.523 . S
C524 C508 1.368 . S
C524 C520 1.368 . S
C524 C523 1.523 . S
H525 C500 0.950 . S
H526 C502 0.950 . S
H527 C503 0.949 . S
H528 C505 0.950 . S
H529 C507 0.950 . S
C530 C531 1.349 . S
C530 C532 1.327 . S
C530 H555 0.950 . S
C531 C530 1.349 . S
C531 C547 1.349 . S
C532 C530 1.327 . S
C532 C551 1.429 . S
C532 H556 0.950 . S
C533 C550 1.574 . S
C533 C552 1.368 . S
C533 H557 0.949 . S
H534 C538 0.949 . S
C535 C536 1.349 . S
C535 C537 1.327 . S
C535 H558 0.950 . S
C536 C535 1.349 . S
C536 C548 1.349 . S
C537 C535 1.327 . S
C537 C553 1.429 . S
C537 H559 0.950 . S
C538 H534 0.949 . S
C538 C546 1.574 . S
C538 C554 1.368 . S
H539 C547 0.950 . S
H540 C545 0.950 . S
H541 C546 0.949 . S
H542 C548 0.950 . S
H543 C549 0.950 . S
H544 C550 0.949 . S
C545 H540 0.950 . S
C545 C547 1.327 . S
C545 C551 1.429 . S
C546 C538 1.574 . S
C546 H541 0.949 . S
C546 C552 1.368 . S
C547 C531 1.349 . S
C547 H539 0.950 . S
C547 C545 1.327 . S
C548 C536 1.349 . S
C548 H542 0.950 . S
C548 C549 1.327 . S
C549 H543 0.950 . S
C549 C548 1.327 . S
C549 C553 1.429 . S
C550 C533 1.574 . S
C550 H544 0.949 . S
C550 C554 1.368 . S
C551 C532 1.429 . S
C551 C545 1.429 . S
C551 C552 1.523 . S
C552 C533 1.368 . S
C552 C546 1.368 . S
C552 C551 1.523 . S
C553 C537 1.429 . S
C553 C549 1.429 . S
C553 C554 1.523 . S
C554 C538 1.368 . S
C554 C550 1.368 . S
C554 C553 1.523 . S
H555 C530 0.950 . S
H556 C532 0.950 . S
H557 C533 0.949 . S
H558 C535 0.950 . S
H559 C537 0.950 . S
C560 C561 1.349 . S
C560 C562 1.327 . S
C560 H585 0.950 . S
C561 C560 1.349 . S
C561 C577 1.349 . S
C562 C560 1.327 . S
C562 C581 1.429 . S
C562 H586 0.950 . S
C563 C580 1.574 . S
C563 C582 1.368 . S
C563 H587 0.949 . S
H564 C568 0.949 . S
C565 C566 1.349 . S
C565 C567 1.327 . S
C565 H588 0.950 . S
C566 C565 1.349 . S
C566 C578 1.349 . S
C567 C565 1.327 . S
C567 C583 1.429 . S
C567 H589 0.950 . S
C568 H564 0.949 . S
C568 C576 1.574 . S
C568 C584 1.368 . S
H569 C577 0.950 . S
H570 C575 0.950 . S
H571 C576 0.949 . S
H572 C578 0.950 . S
H573 C579 0.950 . S
H574 C580 0.949 . S
C575 H570 0.950 . S
C575 C577 1.327 . S
C575 C581 1.429 . S
C576 C568 1.574 . S
C576 H571 0.949 . S
C576 C582 1.368 . S
C577 C561 1.349 . S
C577 H569 0.950 . S
C577 C575 1.327 . S
C578 C566 1.349 . S
C578 H572 0.950 . S
C578 C579 1.327 . S
C579 H573 0.950 . S
C579 C578 1.327 . S
C579 C583 1.429 . S
C580 C563 1.574 . S
C580 H574 0.949 . S
C580 C584 1.368 . S
C581 C562 1.429 . S
C581 C575 1.429 . S
C581 C582 1.523 . S
C582 C563 1.368 . S
C582 C576 1.368 . S
C582 C581 1.523 . S
C583 C567 1.429 . S
C583 C579 1.429 . S
C583 C584 1.523 . S
C584 C568 1.368 . S
C584 C580 1.368 . S
C584 C583 1.523 . S
H585 C560 0.950 . S
H586 C562 0.950 . S
H587 C563 0.949 . S
H588 C565 0.950 . S
H589 C567 0.950 . S
C590 C591 1.349 . S
C590 C592 1.327 . S
C590 H615 0.950 . S
C591 C590 1.349 . S
C591 C607 1.349 . S
C592 C590 1.327 . S
C592 C611 1.429 . S
C592 H616 0.950 . S
C593 C610 1.574 . S
C593 C612 1.368 . S
C593 H617 0.949 . S
H594 C598 0.949 . S
C595 C596 1.349 . S
C595 C597 1.327 . S
C595 H618 0.950 . S
C596 C595 1.349 . S
C596 C608 1.349 . S
C597 C595 1.327 . S
C597 C613 1.429 . S
C597 H619 0.950 . S
C598 H594 0.949 . S
C598 C606 1.574 . S
C598 C614 1.368 . S
H599 C607 0.950 . S
H600 C605 0.950 . S
H601 C606 0.949 . S
H602 C608 0.950 . S
H603 C609 0.950 . S
H604 C610 0.949 . S
C605 H600 0.950 . S
C605 C607 1.327 . S
C605 C611 1.429 . S
C606 C598 1.574 . S
C606 H601 0.949 . S
C606 C612 1.368 . S
C607 C591 1.349 . S
C607 H599 0.950 . S
C607 C605 1.327 . S
C608 C596 1.349 . S
C608 H602 0.950 . S
C608 C609 1.327 . S
C609 H603 0.950 . S
C609 C608 1.327 . S
C609 C613 1.429 . S
C610 C593 1.574 . S
C610 H604 0.949 . S
C610 C614 1.368 . S
C611 C592 1.429 . S
C611 C605 1.429 . S
C611 C612 1.523 . S
C612 C593 1.368 . S
C612 C606 1.368 . S
C612 C611 1.523 . S
C613 C597 1.429 . S
C613 C609 1.429 . S
C613 C614 1.523 . S
C614 C598 1.368 . S
C614 C610 1.368 . S
C614 C613 1.523 . S
H615 C590 0.950 . S
H616 C592 0.950 . S
H617 C593 0.949 . S
H618 C595 0.950 . S
H619 C597 0.950 . S
C620 C621 1.349 . S
C620 C622 1.327 . S
C620 H645 0.950 . S
C621 C620 1.349 . S
C621 C637 1.349 . S
C622 C620 1.327 . S
C622 C641 1.429 . S
C622 H646 0.950 . S
C623 C640 1.574 . S
C623 C642 1.368 . S
C623 H647 0.949 . S
H624 C628 0.949 . S
C625 C626 1.349 . S
C625 C627 1.327 . S
C625 H648 0.950 . S
C626 C625 1.349 . S
C626 C638 1.349 . S
C627 C625 1.327 . S
C627 C643 1.429 . S
C627 H649 0.950 . S
C628 H624 0.949 . S
C628 C636 1.574 . S
C628 C644 1.368 . S
H629 C637 0.950 . S
H630 C635 0.950 . S
H631 C636 0.949 . S
H632 C638 0.950 . S
H633 C639 0.950 . S
H634 C640 0.949 . S
C635 H630 0.950 . S
C635 C637 1.327 . S
C635 C641 1.429 . S
C636 C628 1.574 . S
C636 H631 0.949 . S
C636 C642 1.368 . S
C637 C621 1.349 . S
C637 H629 0.950 . S
C637 C635 1.327 . S
C638 C626 1.349 . S
C638 H632 0.950 . S
C638 C639 1.327 . S
C639 H633 0.950 . S
C639 C638 1.327 . S
C639 C643 1.429 . S
C640 C623 1.574 . S
C640 H634 0.949 . S
C640 C644 1.368 . S
C641 C622 1.429 . S
C641 C635 1.429 . S
C641 C642 1.523 . S
C642 C623 1.368 . S
C642 C636 1.368 . S
C642 C641 1.523 . S
C643 C627 1.429 . S
C643 C639 1.429 . S
C643 C644 1.523 . S
C644 C628 1.368 . S
C644 C640 1.368 . S
C644 C643 1.523 . S
H645 C620 0.950 . S
H646 C622 0.950 . S
H647 C623 0.949 . S
H648 C625 0.950 . S
H649 C627 0.950 . S
C650 C651 1.349 . S
C650 C652 1.327 . S
C650 H675 0.950 . S
C651 C650 1.349 . S
C651 C667 1.349 . S
C652 C650 1.327 . S
C652 C671 1.429 . S
C652 H676 0.950 . S
C653 C670 1.574 . S
C653 C672 1.368 . S
C653 H677 0.949 . S
H654 C658 0.949 . S
C655 C656 1.349 . S
C655 C657 1.327 . S
C655 H678 0.950 . S
C656 C655 1.349 . S
C656 C668 1.349 . S
C657 C655 1.327 . S
C657 C673 1.429 . S
C657 H679 0.950 . S
C658 H654 0.949 . S
C658 C666 1.574 . S
C658 C674 1.368 . S
H659 C667 0.950 . S
H660 C665 0.950 . S
H661 C666 0.949 . S
H662 C668 0.950 . S
H663 C669 0.950 . S
H664 C670 0.949 . S
C665 H660 0.950 . S
C665 C667 1.327 . S
C665 C671 1.429 . S
C666 C658 1.574 . S
C666 H661 0.949 . S
C666 C672 1.368 . S
C667 C651 1.349 . S
C667 H659 0.950 . S
C667 C665 1.327 . S
C668 C656 1.349 . S
C668 H662 0.950 . S
C668 C669 1.327 . S
C669 H663 0.950 . S
C669 C668 1.327 . S
C669 C673 1.429 . S
C670 C653 1.574 . S
C670 H664 0.949 . S
C670 C674 1.368 . S
C671 C652 1.429 . S
C671 C665 1.429 . S
C671 C672 1.523 . S
C672 C653 1.368 . S
C672 C666 1.368 . S
C672 C671 1.523 . S
C673 C657 1.429 . S
C673 C669 1.429 . S
C673 C674 1.523 . S
C674 C658 1.368 . S
C674 C670 1.368 . S
C674 C673 1.523 . S
H675 C650 0.950 . S
H676 C652 0.950 . S
H677 C653 0.949 . S
H678 C655 0.950 . S
H679 C657 0.950 . S
C680 C681 1.349 . S
C680 C682 1.327 . S
C680 H705 0.950 . S
C681 C680 1.349 . S
C681 C697 1.349 . S
C682 C680 1.327 . S
C682 C701 1.429 . S
C682 H706 0.950 . S
C683 C700 1.574 . S
C683 C702 1.368 . S
C683 H707 0.949 . S
H684 C688 0.949 . S
C685 C686 1.349 . S
C685 C687 1.327 . S
C685 H708 0.950 . S
C686 C685 1.349 . S
C686 C698 1.349 . S
C687 C685 1.327 . S
C687 C703 1.429 . S
C687 H709 0.950 . S
C688 H684 0.949 . S
C688 C696 1.574 . S
C688 C704 1.368 . S
H689 C697 0.950 . S
H690 C695 0.950 . S
H691 C696 0.949 . S
H692 C698 0.950 . S
H693 C699 0.950 . S
H694 C700 0.949 . S
C695 H690 0.950 . S
C695 C697 1.327 . S
C695 C701 1.429 . S
C696 C688 1.574 . S
C696 H691 0.949 . S
C696 C702 1.368 . S
C697 C681 1.349 . S
C697 H689 0.950 . S
C697 C695 1.327 . S
C698 C686 1.349 . S
C698 H692 0.950 . S
C698 C699 1.327 . S
C699 H693 0.950 . S
C699 C698 1.327 . S
C699 C703 1.429 . S
C700 C683 1.574 . S
C700 H694 0.949 . S
C700 C704 1.368 . S
C701 C682 1.429 . S
C701 C695 1.429 . S
C701 C702 1.523 . S
C702 C683 1.368 . S
C702 C696 1.368 . S
C702 C701 1.523 . S
C703 C687 1.429 . S
C703 C699 1.429 . S
C703 C704 1.523 . S
C704 C688 1.368 . S
C704 C700 1.368 . S
C704 C703 1.523 . S
H705 C680 0.950 . S
H706 C682 0.950 . S
H707 C683 0.949 . S
H708 C685 0.950 . S
H709 C687 0.950 . S
C710 C711 1.349 . S
C710 C712 1.327 . S
C710 H735 0.950 . S
C711 C710 1.349 . S
C711 C727 1.349 . S
C712 C710 1.327 . S
C712 C731 1.429 . S
C712 H736 0.950 . S
C713 C730 1.574 . S
C713 C732 1.368 . S
C713 H737 0.949 . S
H714 C718 0.949 . S
C715 C716 1.349 . S
C715 C717 1.327 . S
C715 H738 0.950 . S
C716 C715 1.349 . S
C716 C728 1.349 . S
C717 C715 1.327 . S
C717 C733 1.429 . S
C717 H739 0.950 . S
C718 H714 0.949 . S
C718 C726 1.574 . S
C718 C734 1.368 . S
H719 C727 0.950 . S
H720 C725 0.950 . S
H721 C726 0.949 . S
H722 C728 0.950 . S
H723 C729 0.950 . S
H724 C730 0.949 . S
C725 H720 0.950 . S
C725 C727 1.327 . S
C725 C731 1.429 . S
C726 C718 1.574 . S
C726 H721 0.949 . S
C726 C732 1.368 . S
C727 C711 1.349 . S
C727 H719 0.950 . S
C727 C725 1.327 . S
C728 C716 1.349 . S
C728 H722 0.950 . S
C728 C729 1.327 . S
C729 H723 0.950 . S
C729 C728 1.327 . S
C729 C733 1.429 . S
C730 C713 1.574 . S
C730 H724 0.949 . S
C730 C734 1.368 . S
C731 C712 1.429 . S
C731 C725 1.429 . S
C731 C732 1.523 . S
C732 C713 1.368 . S
C732 C726 1.368 . S
C732 C731 1.523 . S
C733 C717 1.429 . S
C733 C729 1.429 . S
C733 C734 1.523 . S
C734 C718 1.368 . S
C734 C730 1.368 . S
C734 C733 1.523 . S
H735 C710 0.950 . S
H736 C712 0.950 . S
H737 C713 0.949 . S
H738 C715 0.950 . S
H739 C717 0.950 . S
C740 C741 1.349 . S
C740 C742 1.327 . S
C740 H765 0.950 . S
C741 C740 1.349 . S
C741 C757 1.349 . S
C742 C740 1.327 . S
C742 C761 1.429 . S
C742 H766 0.950 . S
C743 C760 1.574 . S
C743 C762 1.368 . S
C743 H767 0.949 . S
H744 C748 0.949 . S
C745 C746 1.349 . S
C745 C747 1.327 . S
C745 H768 0.950 . S
C746 C745 1.349 . S
C746 C758 1.349 . S
C747 C745 1.327 . S
C747 C763 1.429 . S
C747 H769 0.950 . S
C748 H744 0.949 . S
C748 C756 1.574 . S
C748 C764 1.368 . S
H749 C757 0.950 . S
H750 C755 0.950 . S
H751 C756 0.949 . S
H752 C758 0.950 . S
H753 C759 0.950 . S
H754 C760 0.949 . S
C755 H750 0.950 . S
C755 C757 1.327 . S
C755 C761 1.429 . S
C756 C748 1.574 . S
C756 H751 0.949 . S
C756 C762 1.368 . S
C757 C741 1.349 . S
C757 H749 0.950 . S
C757 C755 1.327 . S
C758 C746 1.349 . S
C758 H752 0.950 . S
C758 C759 1.327 . S
C759 H753 0.950 . S
C759 C758 1.327 . S
C759 C763 1.429 . S
C760 C743 1.574 . S
C760 H754 0.949 . S
C760 C764 1.368 . S
C761 C742 1.429 . S
C761 C755 1.429 . S
C761 C762 1.523 . S
C762 C743 1.368 . S
C762 C756 1.368 . S
C762 C761 1.523 . S
C763 C747 1.429 . S
C763 C759 1.429 . S
C763 C764 1.523 . S
C764 C748 1.368 . S
C764 C760 1.368 . S
C764 C763 1.523 . S
H765 C740 0.950 . S
H766 C742 0.950 . S
H767 C743 0.949 . S
H768 C745 0.950 . S
H769 C747 0.950 . S
C770 C771 1.349 . S
C770 C772 1.327 . S
C770 H795 0.950 . S
C771 C770 1.349 . S
C771 C787 1.349 . S
C772 C770 1.327 . S
C772 C791 1.429 . S
C772 H796 0.950 . S
C773 C790 1.574 . S
C773 C792 1.368 . S
C773 H797 0.949 . S
H774 C778 0.949 . S
C775 C776 1.349 . S
C775 C777 1.327 . S
C775 H798 0.950 . S
C776 C775 1.349 . S
C776 C788 1.349 . S
C777 C775 1.327 . S
C777 C793 1.429 . S
C777 H799 0.950 . S
C778 H774 0.949 . S
C778 C786 1.574 . S
C778 C794 1.368 . S
H779 C787 0.950 . S
H780 C785 0.950 . S
H781 C786 0.949 . S
H782 C788 0.950 . S
H783 C789 0.950 . S
H784 C790 0.949 . S
C785 H780 0.950 . S
C785 C787 1.327 . S
C785 C791 1.429 . S
C786 C778 1.574 . S
C786 H781 0.949 . S
C786 C792 1.368 . S
C787 C771 1.349 . S
C787 H779 0.950 . S
C787 C785 1.327 . S
C788 C776 1.349 . S
C788 H782 0.950 . S
C788 C789 1.327 . S
C789 H783 0.950 . S
C789 C788 1.327 . S
C789 C793 1.429 . S
C790 C773 1.574 . S
C790 H784 0.949 . S
C790 C794 1.368 . S
C791 C772 1.429 . S
C791 C785 1.429 . S
C791 C792 1.523 . S
C792 C773 1.368 . S
C792 C786 1.368 . S
C792 C791 1.523 . S
C793 C777 1.429 . S
C793 C789 1.429 . S
C793 C794 1.523 . S
C794 C778 1.368 . S
C794 C790 1.368 . S
C794 C793 1.523 . S
H795 C770 0.950 . S
H796 C772 0.950 . S
H797 C773 0.949 . S
H798 C775 0.950 . S
H799 C777 0.950 . S
C800 C801 1.349 . S
C800 C802 1.327 . S
C800 H825 0.950 . S
C801 C800 1.349 . S
C801 C817 1.349 . S
C802 C800 1.327 . S
C802 C821 1.429 . S
C802 H826 0.950 . S
C803 C820 1.574 . S
C803 C822 1.368 . S
C803 H827 0.949 . S
H804 C808 0.949 . S
C805 C806 1.349 . S
C805 C807 1.327 . S
C805 H828 0.950 . S
C806 C805 1.349 . S
C806 C818 1.349 . S
C807 C805 1.327 . S
C807 C823 1.429 . S
C807 H829 0.950 . S
C808 H804 0.949 . S
C808 C816 1.574 . S
C808 C824 1.368 . S
H809 C817 0.950 . S
H810 C815 0.950 . S
H811 C816 0.949 . S
H812 C818 0.950 . S
H813 C819 0.950 . S
H814 C820 0.949 . S
C815 H810 0.950 . S
C815 C817 1.327 . S
C815 C821 1.429 . S
C816 C808 1.574 . S
C816 H811 0.949 . S
C816 C822 1.368 . S
C817 C801 1.349 . S
C817 H809 0.950 . S
C817 C815 1.327 . S
C818 C806 1.349 . S
C818 H812 0.950 . S
C818 C819 1.327 . S
C819 H813 0.950 . S
C819 C818 1.327 . S
C819 C823 1.429 . S
C820 C803 1.574 . S
C820 H814 0.949 . S
C820 C824 1.368 . S
C821 C802 1.429 . S
C821 C815 1.429 . S
C821 C822 1.523 . S
C822 C803 1.368 . S
C822 C816 1.368 . S
C822 C821 1.523 . S
C823 C807 1.429 . S
C823 C819 1.429 . S
C823 C824 1.523 . S
C824 C808 1.368 . S
C824 C820 1.368 . S
C824 C823 1.523 . S
H825 C800 0.950 . S
H826 C802 0.950 . S
H827 C803 0.949 . S
H828 C805 0.950 . S
H829 C807 0.950 . S
C830 C831 1.349 . S
C830 C832 1.327 . S
C830 H855 0.950 . S
C831 C830 1.349 . S
C831 C847 1.349 . S
C832 C830 1.327 . S
C832 C851 1.429 . S
C832 H856 0.950 . S
C833 C850 1.574 . S
C833 C852 1.368 . S
C833 H857 0.949 . S
H834 C838 0.949 . S
C835 C836 1.349 . S
C835 C837 1.327 . S
C835 H858 0.950 . S
C836 C835 1.349 . S
C836 C848 1.349 . S
C837 C835 1.327 . S
C837 C853 1.429 . S
C837 H859 0.950 . S
C838 H834 0.949 . S
C838 C846 1.574 . S
C838 C854 1.368 . S
H839 C847 0.950 . S
H840 C845 0.950 . S
H841 C846 0.949 . S
H842 C848 0.950 . S
H843 C849 0.950 . S
H844 C850 0.949 . S
C845 H840 0.950 . S
C845 C847 1.327 . S
C845 C851 1.429 . S
C846 C838 1.574 . S
C846 H841 0.949 . S
C846 C852 1.368 . S
C847 C831 1.349 . S
C847 H839 0.950 . S
C847 C845 1.327 . S
C848 C836 1.349 . S
C848 H842 0.950 . S
C848 C849 1.327 . S
C849 H843 0.950 . S
C849 C848 1.327 . S
C849 C853 1.429 . S
C850 C833 1.574 . S
C850 H844 0.949 . S
C850 C854 1.368 . S
C851 C832 1.429 . S
C851 C845 1.429 . S
C851 C852 1.523 . S
C852 C833 1.368 . S
C852 C846 1.368 . S
C852 C851 1.523 . S
C853 C837 1.429 . S
C853 C849 1.429 . S
C853 C854 1.523 . S
C854 C838 1.368 . S
C854 C850 1.368 . S
C854 C853 1.523 . S
H855 C830 0.950 . S
H856 C832 0.950 . S
H857 C833 0.949 . S
H858 C835 0.950 . S
H859 C837 0.950 . S
C860 C861 1.349 . S
C860 C862 1.327 . S
C860 H885 0.950 . S
C861 C860 1.349 . S
C861 C877 1.349 . S
C862 C860 1.327 . S
C862 C881 1.429 . S
C862 H886 0.950 . S
C863 C880 1.574 . S
C863 C882 1.368 . S
C863 H887 0.949 . S
H864 C868 0.949 . S
C865 C866 1.349 . S
C865 C867 1.327 . S
C865 H888 0.950 . S
C866 C865 1.349 . S
C866 C878 1.349 . S
C867 C865 1.327 . S
C867 C883 1.429 . S
C867 H889 0.950 . S
C868 H864 0.949 . S
C868 C876 1.574 . S
C868 C884 1.368 . S
H869 C877 0.950 . S
H870 C875 0.950 . S
H871 C876 0.949 . S
H872 C878 0.950 . S
H873 C879 0.950 . S
H874 C880 0.949 . S
C875 H870 0.950 . S
C875 C877 1.327 . S
C875 C881 1.429 . S
C876 C868 1.574 . S
C876 H871 0.949 . S
C876 C882 1.368 . S
C877 C861 1.349 . S
C877 H869 0.950 . S
C877 C875 1.327 . S
C878 C866 1.349 . S
C878 H872 0.950 . S
C878 C879 1.327 . S
C879 H873 0.950 . S
C879 C878 1.327 . S
C879 C883 1.429 . S
C880 C863 1.574 . S
C880 H874 0.949 . S
C880 C884 1.368 . S
C881 C862 1.429 . S
C881 C875 1.429 . S
C881 C882 1.523 . S
C882 C863 1.368 . S
C882 C876 1.368 . S
C882 C881 1.523 . S
C883 C867 1.429 . S
C883 C879 1.429 . S
C883 C884 1.523 . S
C884 C868 1.368 . S
C884 C880 1.368 . S
C884 C883 1.523 . S
H885 C860 0.950 . S
H886 C862 0.950 . S
H887 C863 0.949 . S
H888 C865 0.950 . S
H889 C867 0.950 . S
C890 C891 1.349 . S
C890 C892 1.327 . S
C890 H915 0.950 . S
C891 C890 1.349 . S
C891 C907 1.349 . S
C892 C890 1.327 . S
C892 C911 1.429 . S
C892 H916 0.950 . S
C893 C910 1.574 . S
C893 C912 1.368 . S
C893 H917 0.949 . S
H894 C898 0.949 . S
C895 C896 1.349 . S
C895 C897 1.327 . S
C895 H918 0.950 . S
C896 C895 1.349 . S
C896 C908 1.349 . S
C897 C895 1.327 . S
C897 C913 1.429 . S
C897 H919 0.950 . S
C898 H894 0.949 . S
C898 C906 1.574 . S
C898 C914 1.368 . S
H899 C907 0.950 . S
H900 C905 0.950 . S
H901 C906 0.949 . S
H902 C908 0.950 . S
H903 C909 0.950 . S
H904 C910 0.949 . S
C905 H900 0.950 . S
C905 C907 1.327 . S
C905 C911 1.429 . S
C906 C898 1.574 . S
C906 H901 0.949 . S
C906 C912 1.368 . S
C907 C891 1.349 . S
C907 H899 0.950 . S
C907 C905 1.327 . S
C908 C896 1.349 . S
C908 H902 0.950 . S
C908 C909 1.327 . S
C909 H903 0.950 . S
C909 C908 1.327 . S
C909 C913 1.429 . S
C910 C893 1.574 . S
C910 H904 0.949 . S
C910 C914 1.368 . S
C911 C892 1.429 . S
C911 C905 1.429 . S
C911 C912 1.523 . S
C912 C893 1.368 . S
C912 C906 1.368 . S
C912 C911 1.523 . S
C913 C897 1.429 . S
C913 C909 1.429 . S
C913 C914 1.523 . S
C914 C898 1.368 . S
C914 C910 1.368 . S
C914 C913 1.523 . S
H915 C890 0.950 . S
H916 C892 0.950 . S
H917 C893 0.949 . S
H918 C895 0.950 . S
H919 C897 0.950 . S
C920 C921 1.349 . S
C920 C922 1.327 . S
C920 H945 0.950 . S
C921 C920 1.349 . S
C921 C937 1.349 . S
C922 C920 1.327 . S
C922 C941 1.429 . S
C922 H946 0.950 . S
C923 C940 1.574 . S
C923 C942 1.368 . S
C923 H947 0.949 . S
H924 C928 0.949 . S
C925 C926 1.349 . S
C925 C927 1.327 . S
C925 H948 0.950 . S
C926 C925 1.349 . S
C926 C938 1.349 . S
C927 C925 1.327 . S
C927 C943 1.429 . S
C927 H949 0.950 . S
C928 H924 0.949 . S
C928 C936 1.574 . S
C928 C944 1.368 . S
H929 C937 0.950 . S
H930 C935 0.950 . S
H931 C936 0.949 . S
H932 C938 0.950 . S
H933 C939 0.950 . S
H934 C940 0.949 . S
C935 H930 0.950 . S
C935 C937 1.327 . S
C935 C941 1.429 . S
C936 C928 1.574 . S
C936 H931 0.949 . S
C936 C942 1.368 . S
C937 C921 1.349 . S
C937 H929 0.950 . S
C937 C935 1.327 . S
C938 C926 1.349 . S
C938 H932 0.950 . S
C938 C939 1.327 . S
C939 H933 0.950 . S
C939 C938 1.327 . S
C939 C943 1.429 . S
C940 C923 1.574 . S
C940 H934 0.949 . S
C940 C944 1.368 . S
C941 C922 1.429 . S
C941 C935 1.429 . S
C941 C942 1.523 . S
C942 C923 1.368 . S
C942 C936 1.368 . S
C942 C941 1.523 . S
C943 C927 1.429 . S
C943 C939 1.429 . S
C943 C944 1.523 . S
C944 C928 1.368 . S
C944 C940 1.368 . S
C944 C943 1.523 . S
H945 C920 0.950 . S
H946 C922 0.950 . S
H947 C923 0.949 . S
H948 C925 0.950 . S
H949 C927 0.950 . S
C950 C951 1.349 . S
C950 C952 1.327 . S
C950 H975 0.950 . S
C951 C950 1.349 . S
C951 C967 1.349 . S
C952 C950 1.327 . S
C952 C971 1.429 . S
C952 H976 0.950 . S
C953 C970 1.574 . S
C953 C972 1.368 . S
C953 H977 0.949 . S
H954 C958 0.949 . S
C955 C956 1.349 . S
C955 C957 1.327 . S
C955 H978 0.950 . S
C956 C955 1.349 . S
C956 C968 1.349 . S
C957 C955 1.327 . S
C957 C973 1.429 . S
C957 H979 0.950 . S
C958 H954 0.949 . S
C958 C966 1.574 . S
C958 C974 1.368 . S
H959 C967 0.950 . S
H960 C965 0.950 . S
H961 C966 0.949 . S
H962 C968 0.950 . S
H963 C969 0.950 . S
H964 C970 0.949 . S
C965 H960 0.950 . S
C965 C967 1.327 . S
C965 C971 1.429 . S
C966 C958 1.574 . S
C966 H961 0.949 . S
C966 C972 1.368 . S
C967 C951 1.349 . S
C967 H959 0.950 . S
C967 C965 1.327 . S
C968 C956 1.349 . S
C968 H962 0.950 . S
C968 C969 1.327 . S
C969 H963 0.950 . S
C969 C968 1.327 . S
C969 C973 1.429 . S
C970 C953 1.574 . S
C970 H964 0.949 . S
C970 C974 1.368 . S
C971 C952 1.429 . S
C971 C965 1.429 . S
C971 C972 1.523 . S
C972 C953 1.368 . S
C972 C966 1.368 . S
C972 C971 1.523 . S
C973 C957 1.429 . S
C973 C969 1.429 . S
C973 C974 1.523 . S
C974 C958 1.368 . S
C974 C970 1.368 . S
C974 C973 1.523 . S
H975 C950 0.950 . S
H976 C952 0.950 . S
H977 C953 0.949 . S
H978 C955 0.950 . S
H979 C957 0.950 . S
C980 C981 1.349 . S
C980 C982 1.327 . S
C980 H1005 0.950 . S
C981 C980 1.349 . S
C981 C997 1.349 . S
C982 C980 1.327 . S
C982 C1001 1.429 . S
C982 H1006 0.950 . S
C983 C1000 1.574 . S
C983 C1002 1.368 . S
C983 H1007 0.949 . S
H984 C988 0.949 . S
C985 C986 1.349 . S
C985 C987 1.327 . S
C985 H1008 0.950 . S
C986 C985 1.349 . S
C986 C998 1.349 . S
C987 C985 1.327 . S
C987 C1003 1.429 . S
C987 H1009 0.950 . S
C988 H984 0.949 . S
C988 C996 1.574 . S
C988 C1004 1.368 . S
H989 C997 0.950 . S
H990 C995 0.950 . S
H991 C996 0.949 . S
H992 C998 0.950 . S
H993 C999 0.950 . S
H994 C1000 0.949 . S
C995 H990 0.950 . S
C995 C997 1.327 . S
C995 C1001 1.429 . S
C996 C988 1.574 . S
C996 H991 0.949 . S
C996 C1002 1.368 . S
C997 C981 1.349 . S
C997 H989 0.950 . S
C997 C995 1.327 . S
C998 C986 1.349 . S
C998 H992 0.950 . S
C998 C999 1.327 . S
C999 H993 0.950 . S
C999 C998 1.327 . S
C999 C1003 1.429 . S
C1000 C983 1.574 . S
C1000 H994 0.949 . S
C1000 C1004 1.368 . S
C1001 C982 1.429 . S
C1001 C995 1.429 . S
C1001 C1002 1.523 . S
C1002 C983 1.368 . S
C1002 C996 1.368 . S
C1002 C1001 1.523 . S
C1003 C987 1.429 . S
C1003 C999 1.429 . S
C1003 C1004 1.523 . S
C1004 C988 1.368 . S
C1004 C1000 1.368 . S
C1004 C1003 1.523 . S
H1005 C980 0.950 . S
H1006 C982 0.950 . S
H1007 C983 0.949 . S
H1008 C985 0.950 . S
H1009 C987 0.950 . S
C1010 C1011 1.349 . S
C1010 C1012 1.327 . S
C1010 H1035 0.950 . S
C1011 C1010 1.349 . S
C1011 C1027 1.349 . S
C1012 C1010 1.327 . S
C1012 C1031 1.429 . S
C1012 H1036 0.950 . S
C1013 C1030 1.574 . S
C1013 C1032 1.368 . S
C1013 H1037 0.949 . S
H1014 C1018 0.949 . S
C1015 C1016 1.349 . S
C1015 C1017 1.327 . S
C1015 H1038 0.950 . S
C1016 C1015 1.349 . S
C1016 C1028 1.349 . S
C1017 C1015 1.327 . S
C1017 C1033 1.429 . S
C1017 H1039 0.950 . S
C1018 H1014 0.949 . S
C1018 C1026 1.574 . S
C1018 C1034 1.368 . S
H1019 C1027 0.950 . S
H1020 C1025 0.950 . S
H1021 C1026 0.949 . S
H1022 C1028 0.950 . S
H1023 C1029 0.950 . S
H1024 C1030 0.949 . S
C1025 H1020 0.950 . S
C1025 C1027 1.327 . S
C1025 C1031 1.429 . S
C1026 C1018 1.574 . S
C1026 H1021 0.949 . S
C1026 C1032 1.368 . S
C1027 C1011 1.349 . S
C1027 H1019 0.950 . S
C1027 C1025 1.327 . S
C1028 C1016 1.349 . S
C1028 H1022 0.950 . S
C1028 C1029 1.327 . S
C1029 H1023 0.950 . S
C1029 C1028 1.327 . S
C1029 C1033 1.429 . S
C1030 C1013 1.574 . S
C1030 H1024 0.949 . S
C1030 C1034 1.368 . S
C1031 C1012 1.429 . S
C1031 C1025 1.429 . S
C1031 C1032 1.523 . S
C1032 C1013 1.368 . S
C1032 C1026 1.368 . S
C1032 C1031 1.523 . S
C1033 C1017 1.429 . S
C1033 C1029 1.429 . S
C1033 C1034 1.523 . S
C1034 C1018 1.368 . S
C1034 C1030 1.368 . S
C1034 C1033 1.523 . S
H1035 C1010 0.950 . S
H1036 C1012 0.950 . S
H1037 C1013 0.949 . S
H1038 C1015 0.950 . S
H1039 C1017 0.950 . S
C1040 C1041 1.349 . S
C1040 C1042 1.327 . S
C1040 H1065 0.950 . S
C1041 C1040 1.349 . S
C1041 C1057 1.349 . S
C1042 C1040 1.327 . S
C1042 C1061 1.429 . S
C1042 H1066 0.950 . S
C1043 C1060 1.574 . S
C1043 C1062 1.368 . S
C1043 H1067 0.949 . S
H1044 C1048 0.949 . S
C1045 C1046 1.349 . S
C1045 C1047 1.327 . S
C1045 H1068 0.950 1_556 S
C1046 C1045 1.349 . S
C1046 C1058 1.349 . S
C1047 C1045 1.327 . S
C1047 C1063 1.429 . S
C1047 H1069 0.950 . S
C1048 H1044 0.949 . S
C1048 C1056 1.574 . S
C1048 C1064 1.368 . S
H1049 C1057 0.950 . S
H1050 C1055 0.950 . S
H1051 C1056 0.949 . S
H1052 C1058 0.950 . S
H1053 C1059 0.950 . S
H1054 C1060 0.949 . S
C1055 H1050 0.950 . S
C1055 C1057 1.327 . S
C1055 C1061 1.429 . S
C1056 C1048 1.574 . S
C1056 H1051 0.949 . S
C1056 C1062 1.368 . S
C1057 C1041 1.349 . S
C1057 H1049 0.950 . S
C1057 C1055 1.327 . S
C1058 C1046 1.349 . S
C1058 H1052 0.950 . S
C1058 C1059 1.327 . S
C1059 H1053 0.950 . S
C1059 C1058 1.327 . S
C1059 C1063 1.429 . S
C1060 C1043 1.574 . S
C1060 H1054 0.949 . S
C1060 C1064 1.368 . S
C1061 C1042 1.429 . S
C1061 C1055 1.429 . S
C1061 C1062 1.523 . S
C1062 C1043 1.368 . S
C1062 C1056 1.368 . S
C1062 C1061 1.523 . S
C1063 C1047 1.429 . S
C1063 C1059 1.429 . S
C1063 C1064 1.523 . S
C1064 C1048 1.368 . S
C1064 C1060 1.368 . S
C1064 C1063 1.523 . S
H1065 C1040 0.950 . S
H1066 C1042 0.950 . S
H1067 C1043 0.949 . S
H1068 C1045 0.950 1_554 S
H1069 C1047 0.950 . S
C1070 C1071 1.349 . S
C1070 C1072 1.327 . S
C1070 H1095 0.950 . S
C1071 C1070 1.349 . S
C1071 C1087 1.349 . S
C1072 C1070 1.327 . S
C1072 C1091 1.429 . S
C1072 H1096 0.950 . S
C1073 C1090 1.574 . S
C1073 C1092 1.368 . S
C1073 H1097 0.949 . S
H1074 C1078 0.949 . S
C1075 C1076 1.349 . S
C1075 C1077 1.327 . S
C1075 H1098 0.950 . S
C1076 C1075 1.349 . S
C1076 C1088 1.349 . S
C1077 C1075 1.327 . S
C1077 C1093 1.429 . S
C1077 H1099 0.950 . S
C1078 H1074 0.949 . S
C1078 C1086 1.574 . S
C1078 C1094 1.368 . S
H1079 C1087 0.950 . S
H1080 C1085 0.950 . S
H1081 C1086 0.949 . S
H1082 C1088 0.950 . S
H1083 C1089 0.950 . S
H1084 C1090 0.949 . S
C1085 H1080 0.950 . S
C1085 C1087 1.327 . S
C1085 C1091 1.429 . S
C1086 C1078 1.574 . S
C1086 H1081 0.949 . S
C1086 C1092 1.368 . S
C1087 C1071 1.349 . S
C1087 H1079 0.950 . S
C1087 C1085 1.327 . S
C1088 C1076 1.349 . S
C1088 H1082 0.950 . S
C1088 C1089 1.327 . S
C1089 H1083 0.950 . S
C1089 C1088 1.327 . S
C1089 C1093 1.429 . S
C1090 C1073 1.574 . S
C1090 H1084 0.949 . S
C1090 C1094 1.368 . S
C1091 C1072 1.429 . S
C1091 C1085 1.429 . S
C1091 C1092 1.523 . S
C1092 C1073 1.368 . S
C1092 C1086 1.368 . S
C1092 C1091 1.523 . S
C1093 C1077 1.429 . S
C1093 C1089 1.429 . S
C1093 C1094 1.523 . S
C1094 C1078 1.368 . S
C1094 C1090 1.368 . S
C1094 C1093 1.523 . S
H1095 C1070 0.950 . S
H1096 C1072 0.950 . S
H1097 C1073 0.949 . S
H1098 C1075 0.950 . S
H1099 C1077 0.950 . S
C1100 C1101 1.349 . S
C1100 C1102 1.327 . S
C1100 H1125 0.950 . S
C1101 C1100 1.349 . S
C1101 C1117 1.349 . S
C1102 C1100 1.327 . S
C1102 C1121 1.429 . S
C1102 H1126 0.950 . S
C1103 C1120 1.574 . S
C1103 C1122 1.368 . S
C1103 H1127 0.949 . S
H1104 C1108 0.949 . S
C1105 C1106 1.349 . S
C1105 C1107 1.327 . S
C1105 H1128 0.950 . S
C1106 C1105 1.349 . S
C1106 C1118 1.349 . S
C1107 C1105 1.327 . S
C1107 C1123 1.429 . S
C1107 H1129 0.950 . S
C1108 H1104 0.949 . S
C1108 C1116 1.574 . S
C1108 C1124 1.368 . S
H1109 C1117 0.950 . S
H1110 C1115 0.950 . S
H1111 C1116 0.949 . S
H1112 C1118 0.950 . S
H1113 C1119 0.950 . S
H1114 C1120 0.949 . S
C1115 H1110 0.950 . S
C1115 C1117 1.327 . S
C1115 C1121 1.429 . S
C1116 C1108 1.574 . S
C1116 H1111 0.949 . S
C1116 C1122 1.368 . S
C1117 C1101 1.349 . S
C1117 H1109 0.950 . S
C1117 C1115 1.327 . S
C1118 C1106 1.349 . S
C1118 H1112 0.950 . S
C1118 C1119 1.327 . S
C1119 H1113 0.950 . S
C1119 C1118 1.327 . S
C1119 C1123 1.429 . S
C1120 C1103 1.574 . S
C1120 H1114 0.949 . S
C1120 C1124 1.368 . S
C1121 C1102 1.429 . S
C1121 C1115 1.429 . S
C1121 C1122 1.523 . S
C1122 C1103 1.368 . S
C1122 C1116 1.368 . S
C1122 C1121 1.523 . S
C1123 C1107 1.429 . S
C1123 C1119 1.429 . S
C1123 C1124 1.523 . S
C1124 C1108 1.368 . S
C1124 C1120 1.368 . S
C1124 C1123 1.523 . S
H1125 C1100 0.950 . S
H1126 C1102 0.950 . S
H1127 C1103 0.949 . S
H1128 C1105 0.950 . S
H1129 C1107 0.950 . S
C1130 C1131 1.349 . S
C1130 C1132 1.327 . S
C1130 H1155 0.950 . S
C1131 C1130 1.349 . S
C1131 C1147 1.349 . S
C1132 C1130 1.327 . S
C1132 C1151 1.429 . S
C1132 H1156 0.950 . S
C1133 C1150 1.574 . S
C1133 C1152 1.368 . S
C1133 H1157 0.949 . S
H1134 C1138 0.949 . S
C1135 C1136 1.349 . S
C1135 C1137 1.327 . S
C1135 H1158 0.950 . S
C1136 C1135 1.349 . S
C1136 C1148 1.349 . S
C1137 C1135 1.327 . S
C1137 C1153 1.429 . S
C1137 H1159 0.950 . S
C1138 H1134 0.949 . S
C1138 C1146 1.574 . S
C1138 C1154 1.368 . S
H1139 C1147 0.950 . S
H1140 C1145 0.950 . S
H1141 C1146 0.949 . S
H1142 C1148 0.950 . S
H1143 C1149 0.950 . S
H1144 C1150 0.949 . S
C1145 H1140 0.950 . S
C1145 C1147 1.327 . S
C1145 C1151 1.429 . S
C1146 C1138 1.574 . S
C1146 H1141 0.949 . S
C1146 C1152 1.368 . S
C1147 C1131 1.349 . S
C1147 H1139 0.950 . S
C1147 C1145 1.327 . S
C1148 C1136 1.349 . S
C1148 H1142 0.950 . S
C1148 C1149 1.327 . S
C1149 H1143 0.950 . S
C1149 C1148 1.327 . S
C1149 C1153 1.429 . S
C1150 C1133 1.574 . S
C1150 H1144 0.949 . S
C1150 C1154 1.368 . S
C1151 C1132 1.429 . S
C1151 C1145 1.429 . S
C1151 C1152 1.523 . S
C1152 C1133 1.368 . S
C1152 C1146 1.368 . S
C1152 C1151 1.523 . S
C1153 C1137 1.429 . S
C1153 C1149 1.429 . S
C1153 C1154 1.523 . S
C1154 C1138 1.368 . S
C1154 C1150 1.368 . S
C1154 C1153 1.523 . S
H1155 C1130 0.950 . S
H1156 C1132 0.950 . S
H1157 C1133 0.949 . S
H1158 C1135 0.950 . S
H1159 C1137 0.950 . S
C1160 C1161 1.349 . S
C1160 C1162 1.327 . S
C1160 H1185 0.950 . S
C1161 C1160 1.349 . S
C1161 C1177 1.349 . S
C1162 C1160 1.327 . S
C1162 C1181 1.429 . S
C1162 H1186 0.950 . S
C1163 C1180 1.574 . S
C1163 C1182 1.368 . S
C1163 H1187 0.949 . S
H1164 C1168 0.949 . S
C1165 C1166 1.349 . S
C1165 C1167 1.327 . S
C1165 H1188 0.950 . S
C1166 C1165 1.349 . S
C1166 C1178 1.349 . S
C1167 C1165 1.327 . S
C1167 C1183 1.429 . S
C1167 H1189 0.950 . S
C1168 H1164 0.949 . S
C1168 C1176 1.574 . S
C1168 C1184 1.368 . S
H1169 C1177 0.950 . S
H1170 C1175 0.950 . S
H1171 C1176 0.949 . S
H1172 C1178 0.950 . S
H1173 C1179 0.950 . S
H1174 C1180 0.949 . S
C1175 H1170 0.950 . S
C1175 C1177 1.327 . S
C1175 C1181 1.429 . S
C1176 C1168 1.574 . S
C1176 H1171 0.949 . S
C1176 C1182 1.368 . S
C1177 C1161 1.349 . S
C1177 H1169 0.950 . S
C1177 C1175 1.327 . S
C1178 C1166 1.349 . S
C1178 H1172 0.950 . S
C1178 C1179 1.327 . S
C1179 H1173 0.950 . S
C1179 C1178 1.327 . S
C1179 C1183 1.429 . S
C1180 C1163 1.574 . S
C1180 H1174 0.949 . S
C1180 C1184 1.368 . S
C1181 C1162 1.429 . S
C1181 C1175 1.429 . S
C1181 C1182 1.523 . S
C1182 C1163 1.368 . S
C1182 C1176 1.368 . S
C1182 C1181 1.523 . S
C1183 C1167 1.429 . S
C1183 C1179 1.429 . S
C1183 C1184 1.523 . S
C1184 C1168 1.368 . S
C1184 C1180 1.368 . S
C1184 C1183 1.523 . S
H1185 C1160 0.950 . S
H1186 C1162 0.950 . S
H1187 C1163 0.949 . S
H1188 C1165 0.950 . S
H1189 C1167 0.950 . S
C1190 C1191 1.349 . S
C1190 C1192 1.327 . S
C1190 H1215 0.950 . S
C1191 C1190 1.349 . S
C1191 C1207 1.349 . S
C1192 C1190 1.327 . S
C1192 C1211 1.429 . S
C1192 H1216 0.950 . S
C1193 C1210 1.574 . S
C1193 C1212 1.368 . S
C1193 H1217 0.949 . S
H1194 C1198 0.949 . S
C1195 C1196 1.349 . S
C1195 C1197 1.327 . S
C1195 H1218 0.950 . S
C1196 C1195 1.349 . S
C1196 C1208 1.349 . S
C1197 C1195 1.327 . S
C1197 C1213 1.429 . S
C1197 H1219 0.950 . S
C1198 H1194 0.949 . S
C1198 C1206 1.574 . S
C1198 C1214 1.368 . S
H1199 C1207 0.950 . S
H1200 C1205 0.950 . S
H1201 C1206 0.949 . S
H1202 C1208 0.950 . S
H1203 C1209 0.950 . S
H1204 C1210 0.949 . S
C1205 H1200 0.950 . S
C1205 C1207 1.327 . S
C1205 C1211 1.429 . S
C1206 C1198 1.574 . S
C1206 H1201 0.949 . S
C1206 C1212 1.368 . S
C1207 C1191 1.349 . S
C1207 H1199 0.950 . S
C1207 C1205 1.327 . S
C1208 C1196 1.349 . S
C1208 H1202 0.950 . S
C1208 C1209 1.327 . S
C1209 H1203 0.950 . S
C1209 C1208 1.327 . S
C1209 C1213 1.429 . S
C1210 C1193 1.574 . S
C1210 H1204 0.949 . S
C1210 C1214 1.368 . S
C1211 C1192 1.429 . S
C1211 C1205 1.429 . S
C1211 C1212 1.523 . S
C1212 C1193 1.368 . S
C1212 C1206 1.368 . S
C1212 C1211 1.523 . S
C1213 C1197 1.429 . S
C1213 C1209 1.429 . S
C1213 C1214 1.523 . S
C1214 C1198 1.368 . S
C1214 C1210 1.368 . S
C1214 C1213 1.523 . S
H1215 C1190 0.950 . S
H1216 C1192 0.950 . S
H1217 C1193 0.949 . S
H1218 C1195 0.950 . S
H1219 C1197 0.950 . S
C1220 C1221 1.349 . S
C1220 C1222 1.327 . S
C1220 H1245 0.950 . S
C1221 C1220 1.349 . S
C1221 C1237 1.349 . S
C1222 C1220 1.327 . S
C1222 C1241 1.429 . S
C1222 H1246 0.950 . S
C1223 C1240 1.574 . S
C1223 C1242 1.368 . S
C1223 H1247 0.949 . S
H1224 C1228 0.949 . S
C1225 C1226 1.349 . S
C1225 C1227 1.327 . S
C1225 H1248 0.950 . S
C1226 C1225 1.349 . S
C1226 C1238 1.349 . S
C1227 C1225 1.327 . S
C1227 C1243 1.429 . S
C1227 H1249 0.950 . S
C1228 H1224 0.949 . S
C1228 C1236 1.574 . S
C1228 C1244 1.368 . S
H1229 C1237 0.950 . S
H1230 C1235 0.950 . S
H1231 C1236 0.949 . S
H1232 C1238 0.950 . S
H1233 C1239 0.950 . S
H1234 C1240 0.949 . S
C1235 H1230 0.950 . S
C1235 C1237 1.327 . S
C1235 C1241 1.429 . S
C1236 C1228 1.574 . S
C1236 H1231 0.949 . S
C1236 C1242 1.368 . S
C1237 C1221 1.349 . S
C1237 H1229 0.950 . S
C1237 C1235 1.327 . S
C1238 C1226 1.349 . S
C1238 H1232 0.950 . S
C1238 C1239 1.327 . S
C1239 H1233 0.950 . S
C1239 C1238 1.327 . S
C1239 C1243 1.429 . S
C1240 C1223 1.574 . S
C1240 H1234 0.949 . S
C1240 C1244 1.368 . S
C1241 C1222 1.429 . S
C1241 C1235 1.429 . S
C1241 C1242 1.523 . S
C1242 C1223 1.368 . S
C1242 C1236 1.368 . S
C1242 C1241 1.523 . S
C1243 C1227 1.429 . S
C1243 C1239 1.429 . S
C1243 C1244 1.523 . S
C1244 C1228 1.368 . S
C1244 C1240 1.368 . S
C1244 C1243 1.523 . S
H1245 C1220 0.950 . S
H1246 C1222 0.950 . S
H1247 C1223 0.949 . S
H1248 C1225 0.950 . S
H1249 C1227 0.950 . S
C1250 C1251 1.349 . S
C1250 C1252 1.327 . S
C1250 H1275 0.950 . S
C1251 C1250 1.349 . S
C1251 C1267 1.349 . S
C1252 C1250 1.327 . S
C1252 C1271 1.429 . S
C1252 H1276 0.950 . S
C1253 C1270 1.574 . S
C1253 C1272 1.368 . S
C1253 H1277 0.949 . S
H1254 C1258 0.949 . S
C1255 C1256 1.349 . S
C1255 C1257 1.327 . S
C1255 H1278 0.950 . S
C1256 C1255 1.349 . S
C1256 C1268 1.349 . S
C1257 C1255 1.327 . S
C1257 C1273 1.429 . S
C1257 H1279 0.950 . S
C1258 H1254 0.949 . S
C1258 C1266 1.574 . S
C1258 C1274 1.368 . S
H1259 C1267 0.950 . S
H1260 C1265 0.950 . S
H1261 C1266 0.949 . S
H1262 C1268 0.950 . S
H1263 C1269 0.950 . S
H1264 C1270 0.949 . S
C1265 H1260 0.950 . S
C1265 C1267 1.327 . S
C1265 C1271 1.429 . S
C1266 C1258 1.574 . S
C1266 H1261 0.949 . S
C1266 C1272 1.368 . S
C1267 C1251 1.349 . S
C1267 H1259 0.950 . S
C1267 C1265 1.327 . S
C1268 C1256 1.349 . S
C1268 H1262 0.950 . S
C1268 C1269 1.327 . S
C1269 H1263 0.950 . S
C1269 C1268 1.327 . S
C1269 C1273 1.429 . S
C1270 C1253 1.574 . S
C1270 H1264 0.949 . S
C1270 C1274 1.368 . S
C1271 C1252 1.429 . S
C1271 C1265 1.429 . S
C1271 C1272 1.523 . S
C1272 C1253 1.368 . S
C1272 C1266 1.368 . S
C1272 C1271 1.523 . S
C1273 C1257 1.429 . S
C1273 C1269 1.429 . S
C1273 C1274 1.523 . S
C1274 C1258 1.368 . S
C1274 C1270 1.368 . S
C1274 C1273 1.523 . S
H1275 C1250 0.950 . S
H1276 C1252 0.950 . S
H1277 C1253 0.949 . S
H1278 C1255 0.950 . S
H1279 C1257 0.950 . S
C1280 C1281 1.349 . S
C1280 C1282 1.327 . S
C1280 H1305 0.950 . S
C1281 C1280 1.349 . S
C1281 C1297 1.349 . S
C1282 C1280 1.327 . S
C1282 C1301 1.429 . S
C1282 H1306 0.950 . S
C1283 C1300 1.574 . S
C1283 C1302 1.368 . S
C1283 H1307 0.949 . S
H1284 C1288 0.949 . S
C1285 C1286 1.349 . S
C1285 C1287 1.327 . S
C1285 H1308 0.950 . S
C1286 C1285 1.349 . S
C1286 C1298 1.349 . S
C1287 C1285 1.327 . S
C1287 C1303 1.429 . S
C1287 H1309 0.950 . S
C1288 H1284 0.949 . S
C1288 C1296 1.574 . S
C1288 C1304 1.368 . S
H1289 C1297 0.950 . S
H1290 C1295 0.950 . S
H1291 C1296 0.949 . S
H1292 C1298 0.950 . S
H1293 C1299 0.950 . S
H1294 C1300 0.949 . S
C1295 H1290 0.950 . S
C1295 C1297 1.327 . S
C1295 C1301 1.429 . S
C1296 C1288 1.574 . S
C1296 H1291 0.949 . S
C1296 C1302 1.368 . S
C1297 C1281 1.349 . S
C1297 H1289 0.950 . S
C1297 C1295 1.327 . S
C1298 C1286 1.349 . S
C1298 H1292 0.950 . S
C1298 C1299 1.327 . S
C1299 H1293 0.950 . S
C1299 C1298 1.327 . S
C1299 C1303 1.429 . S
C1300 C1283 1.574 . S
C1300 H1294 0.949 . S
C1300 C1304 1.368 . S
C1301 C1282 1.429 . S
C1301 C1295 1.429 . S
C1301 C1302 1.523 . S
C1302 C1283 1.368 . S
C1302 C1296 1.368 . S
C1302 C1301 1.523 . S
C1303 C1287 1.429 . S
C1303 C1299 1.429 . S
C1303 C1304 1.523 . S
C1304 C1288 1.368 . S
C1304 C1300 1.368 . S
C1304 C1303 1.523 . S
H1305 C1280 0.950 . S
H1306 C1282 0.950 . S
H1307 C1283 0.949 . S
H1308 C1285 0.950 . S
H1309 C1287 0.950 . S
C1310 C1311 1.349 . S
C1310 C1312 1.327 . S
C1310 H1335 0.950 . S
C1311 C1310 1.349 . S
C1311 C1327 1.349 . S
C1312 C1310 1.327 . S
C1312 C1331 1.429 . S
C1312 H1336 0.950 . S
C1313 C1330 1.574 . S
C1313 C1332 1.368 . S
C1313 H1337 0.949 . S
H1314 C1318 0.949 . S
C1315 C1316 1.349 . S
C1315 C1317 1.327 . S
C1315 H1338 0.950 . S
C1316 C1315 1.349 . S
C1316 C1328 1.349 . S
C1317 C1315 1.327 . S
C1317 C1333 1.429 . S
C1317 H1339 0.950 . S
C1318 H1314 0.949 . S
C1318 C1326 1.574 . S
C1318 C1334 1.368 . S
H1319 C1327 0.950 . S
H1320 C1325 0.950 . S
H1321 C1326 0.949 . S
H1322 C1328 0.950 . S
H1323 C1329 0.950 . S
H1324 C1330 0.949 . S
C1325 H1320 0.950 . S
C1325 C1327 1.327 . S
C1325 C1331 1.429 . S
C1326 C1318 1.574 . S
C1326 H1321 0.949 . S
C1326 C1332 1.368 . S
C1327 C1311 1.349 . S
C1327 H1319 0.950 . S
C1327 C1325 1.327 . S
C1328 C1316 1.349 . S
C1328 H1322 0.950 . S
C1328 C1329 1.327 . S
C1329 H1323 0.950 . S
C1329 C1328 1.327 . S
C1329 C1333 1.429 . S
C1330 C1313 1.574 . S
C1330 H1324 0.949 . S
C1330 C1334 1.368 . S
C1331 C1312 1.429 . S
C1331 C1325 1.429 . S
C1331 C1332 1.523 . S
C1332 C1313 1.368 . S
C1332 C1326 1.368 . S
C1332 C1331 1.523 . S
C1333 C1317 1.429 . S
C1333 C1329 1.429 . S
C1333 C1334 1.523 . S
C1334 C1318 1.368 . S
C1334 C1330 1.368 . S
C1334 C1333 1.523 . S
H1335 C1310 0.950 . S
H1336 C1312 0.950 . S
H1337 C1313 0.949 . S
H1338 C1315 0.950 . S
H1339 C1317 0.950 . S
C1340 C1341 1.349 . S
C1340 C1342 1.327 . S
C1340 H1365 0.950 . S
C1341 C1340 1.349 . S
C1341 C1357 1.349 . S
C1342 C1340 1.327 . S
C1342 C1361 1.429 . S
C1342 H1366 0.950 . S
C1343 C1360 1.574 . S
C1343 C1362 1.368 . S
C1343 H1367 0.949 . S
H1344 C1348 0.949 . S
C1345 C1346 1.349 . S
C1345 C1347 1.327 . S
C1345 H1368 0.950 . S
C1346 C1345 1.349 . S
C1346 C1358 1.349 . S
C1347 C1345 1.327 . S
C1347 C1363 1.429 . S
C1347 H1369 0.950 . S
C1348 H1344 0.949 . S
C1348 C1356 1.574 . S
C1348 C1364 1.368 . S
H1349 C1357 0.950 . S
H1350 C1355 0.950 . S
H1351 C1356 0.949 . S
H1352 C1358 0.950 . S
H1353 C1359 0.950 . S
H1354 C1360 0.949 . S
C1355 H1350 0.950 . S
C1355 C1357 1.327 . S
C1355 C1361 1.429 . S
C1356 C1348 1.574 . S
C1356 H1351 0.949 . S
C1356 C1362 1.368 . S
C1357 C1341 1.349 . S
C1357 H1349 0.950 . S
C1357 C1355 1.327 . S
C1358 C1346 1.349 . S
C1358 H1352 0.950 . S
C1358 C1359 1.327 . S
C1359 H1353 0.950 . S
C1359 C1358 1.327 . S
C1359 C1363 1.429 . S
C1360 C1343 1.574 . S
C1360 H1354 0.949 . S
C1360 C1364 1.368 . S
C1361 C1342 1.429 . S
C1361 C1355 1.429 . S
C1361 C1362 1.523 . S
C1362 C1343 1.368 . S
C1362 C1356 1.368 . S
C1362 C1361 1.523 . S
C1363 C1347 1.429 . S
C1363 C1359 1.429 . S
C1363 C1364 1.523 . S
C1364 C1348 1.368 . S
C1364 C1360 1.368 . S
C1364 C1363 1.523 . S
H1365 C1340 0.950 . S
H1366 C1342 0.950 . S
H1367 C1343 0.949 . S
H1368 C1345 0.950 . S
H1369 C1347 0.950 . S
C1370 C1371 1.349 . S
C1370 C1372 1.327 . S
C1370 H1395 0.950 . S
C1371 C1370 1.349 . S
C1371 C1387 1.349 . S
C1372 C1370 1.327 . S
C1372 C1391 1.429 . S
C1372 H1396 0.950 . S
C1373 C1390 1.574 . S
C1373 C1392 1.368 . S
C1373 H1397 0.949 . S
H1374 C1378 0.949 . S
C1375 C1376 1.349 . S
C1375 C1377 1.327 . S
C1375 H1398 0.950 . S
C1376 C1375 1.349 . S
C1376 C1388 1.349 . S
C1377 C1375 1.327 . S
C1377 C1393 1.429 . S
C1377 H1399 0.950 . S
C1378 H1374 0.949 . S
C1378 C1386 1.574 . S
C1378 C1394 1.368 . S
H1379 C1387 0.950 . S
H1380 C1385 0.950 . S
H1381 C1386 0.949 . S
H1382 C1388 0.950 . S
H1383 C1389 0.950 . S
H1384 C1390 0.949 . S
C1385 H1380 0.950 . S
C1385 C1387 1.327 . S
C1385 C1391 1.429 . S
C1386 C1378 1.574 . S
C1386 H1381 0.949 . S
C1386 C1392 1.368 . S
C1387 C1371 1.349 . S
C1387 H1379 0.950 . S
C1387 C1385 1.327 . S
C1388 C1376 1.349 . S
C1388 H1382 0.950 . S
C1388 C1389 1.327 . S
C1389 H1383 0.950 . S
C1389 C1388 1.327 . S
C1389 C1393 1.429 . S
C1390 C1373 1.574 . S
C1390 H1384 0.949 . S
C1390 C1394 1.368 . S
C1391 C1372 1.429 . S
C1391 C1385 1.429 . S
C1391 C1392 1.523 . S
C1392 C1373 1.368 . S
C1392 C1386 1.368 . S
C1392 C1391 1.523 . S
C1393 C1377 1.429 . S
C1393 C1389 1.429 . S
C1393 C1394 1.523 . S
C1394 C1378 1.368 . S
C1394 C1390 1.368 . S
C1394 C1393 1.523 . S
H1395 C1370 0.950 . S
H1396 C1372 0.950 . S
H1397 C1373 0.949 . S
H1398 C1375 0.950 . S
H1399 C1377 0.950 . S
C1400 C1401 1.349 . S
C1400 C1402 1.327 . S
C1400 H1425 0.950 . S
C1401 C1400 1.349 . S
C1401 C1417 1.349 . S
C1402 C1400 1.327 . S
C1402 C1421 1.429 . S
C1402 H1426 0.950 . S
C1403 C1420 1.574 . S
C1403 C1422 1.368 . S
C1403 H1427 0.949 . S
H1404 C1408 0.949 . S
C1405 C1406 1.349 . S
C1405 C1407 1.327 . S
C1405 H1428 0.950 1_554 S
C1406 C1405 1.349 . S
C1406 C1418 1.349 . S
C1407 C1405 1.327 . S
C1407 C1423 1.429 . S
C1407 H1429 0.950 . S
C1408 H1404 0.949 . S
C1408 C1416 1.574 . S
C1408 C1424 1.368 . S
H1409 C1417 0.950 . S
H1410 C1415 0.950 . S
H1411 C1416 0.949 . S
H1412 C1418 0.950 . S
H1413 C1419 0.950 . S
H1414 C1420 0.949 . S
C1415 H1410 0.950 . S
C1415 C1417 1.327 . S
C1415 C1421 1.429 . S
C1416 C1408 1.574 . S
C1416 H1411 0.949 . S
C1416 C1422 1.368 . S
C1417 C1401 1.349 . S
C1417 H1409 0.950 . S
C1417 C1415 1.327 . S
C1418 C1406 1.349 . S
C1418 H1412 0.950 . S
C1418 C1419 1.327 . S
C1419 H1413 0.950 . S
C1419 C1418 1.327 . S
C1419 C1423 1.429 . S
C1420 C1403 1.574 . S
C1420 H1414 0.949 . S
C1420 C1424 1.368 . S
C1421 C1402 1.429 . S
C1421 C1415 1.429 . S
C1421 C1422 1.523 . S
C1422 C1403 1.368 . S
C1422 C1416 1.368 . S
C1422 C1421 1.523 . S
C1423 C1407 1.429 . S
C1423 C1419 1.429 . S
C1423 C1424 1.523 . S
C1424 C1408 1.368 . S
C1424 C1420 1.368 . S
C1424 C1423 1.523 . S
H1425 C1400 0.950 . S
H1426 C1402 0.950 . S
H1427 C1403 0.949 . S
H1428 C1405 0.950 1_556 S
H1429 C1407 0.950 . S
C1430 C1431 1.349 . S
C1430 C1432 1.327 . S
C1430 H1455 0.950 . S
C1431 C1430 1.349 . S
C1431 C1447 1.349 . S
C1432 C1430 1.327 . S
C1432 C1451 1.429 . S
C1432 H1456 0.950 . S
C1433 C1450 1.574 . S
C1433 C1452 1.368 . S
C1433 H1457 0.949 . S
H1434 C1438 0.949 . S
C1435 C1436 1.349 . S
C1435 C1437 1.327 . S
C1435 H1458 0.950 . S
C1436 C1435 1.349 . S
C1436 C1448 1.349 . S
C1437 C1435 1.327 . S
C1437 C1453 1.429 . S
C1437 H1459 0.950 . S
C1438 H1434 0.949 . S
C1438 C1446 1.574 . S
C1438 C1454 1.368 . S
H1439 C1447 0.950 . S
H1440 C1445 0.950 . S
H1441 C1446 0.949 . S
H1442 C1448 0.950 . S
H1443 C1449 0.950 . S
H1444 C1450 0.949 . S
C1445 H1440 0.950 . S
C1445 C1447 1.327 . S
C1445 C1451 1.429 . S
C1446 C1438 1.574 . S
C1446 H1441 0.949 . S
C1446 C1452 1.368 . S
C1447 C1431 1.349 . S
C1447 H1439 0.950 . S
C1447 C1445 1.327 . S
C1448 C1436 1.349 . S
C1448 H1442 0.950 . S
C1448 C1449 1.327 . S
C1449 H1443 0.950 . S
C1449 C1448 1.327 . S
C1449 C1453 1.429 . S
C1450 C1433 1.574 . S
C1450 H1444 0.949 . S
C1450 C1454 1.368 . S
C1451 C1432 1.429 . S
C1451 C1445 1.429 . S
C1451 C1452 1.523 . S
C1452 C1433 1.368 . S
C1452 C1446 1.368 . S
C1452 C1451 1.523 . S
C1453 C1437 1.429 . S
C1453 C1449 1.429 . S
C1453 C1454 1.523 . S
C1454 C1438 1.368 . S
C1454 C1450 1.368 . S
C1454 C1453 1.523 . S
H1455 C1430 0.950 . S
H1456 C1432 0.950 . S
H1457 C1433 0.949 . S
H1458 C1435 0.950 . S
H1459 C1437 0.950 . S
C1460 C1461 1.349 . S
C1460 C1462 1.327 . S
C1460 H1485 0.950 . S
C1461 C1460 1.349 . S
C1461 C1477 1.349 . S
C1462 C1460 1.327 . S
C1462 C1481 1.429 . S
C1462 H1486 0.950 . S
C1463 C1480 1.574 . S
C1463 C1482 1.368 . S
C1463 H1487 0.949 . S
H1464 C1468 0.949 . S
C1465 C1466 1.349 . S
C1465 C1467 1.327 . S
C1465 H1488 0.950 . S
C1466 C1465 1.349 . S
C1466 C1478 1.349 . S
C1467 C1465 1.327 . S
C1467 C1483 1.429 . S
C1467 H1489 0.950 . S
C1468 H1464 0.949 . S
C1468 C1476 1.574 . S
C1468 C1484 1.368 . S
H1469 C1477 0.950 . S
H1470 C1475 0.950 . S
H1471 C1476 0.949 . S
H1472 C1478 0.950 . S
H1473 C1479 0.950 . S
H1474 C1480 0.949 . S
C1475 H1470 0.950 . S
C1475 C1477 1.327 . S
C1475 C1481 1.429 . S
C1476 C1468 1.574 . S
C1476 H1471 0.949 . S
C1476 C1482 1.368 . S
C1477 C1461 1.349 . S
C1477 H1469 0.950 . S
C1477 C1475 1.327 . S
C1478 C1466 1.349 . S
C1478 H1472 0.950 . S
C1478 C1479 1.327 . S
C1479 H1473 0.950 . S
C1479 C1478 1.327 . S
C1479 C1483 1.429 . S
C1480 C1463 1.574 . S
C1480 H1474 0.949 . S
C1480 C1484 1.368 . S
C1481 C1462 1.429 . S
C1481 C1475 1.429 . S
C1481 C1482 1.523 . S
C1482 C1463 1.368 . S
C1482 C1476 1.368 . S
C1482 C1481 1.523 . S
C1483 C1467 1.429 . S
C1483 C1479 1.429 . S
C1483 C1484 1.523 . S
C1484 C1468 1.368 . S
C1484 C1480 1.368 . S
C1484 C1483 1.523 . S
H1485 C1460 0.950 . S
H1486 C1462 0.950 . S
H1487 C1463 0.949 . S
H1488 C1465 0.950 . S
H1489 C1467 0.950 . S
C1490 C1491 1.349 . S
C1490 C1492 1.327 . S
C1490 H1515 0.950 . S
C1491 C1490 1.349 . S
C1491 C1507 1.349 . S
C1492 C1490 1.327 . S
C1492 C1511 1.429 . S
C1492 H1516 0.950 . S
C1493 C1510 1.574 . S
C1493 C1512 1.368 . S
C1493 H1517 0.949 . S
H1494 C1498 0.949 . S
C1495 C1496 1.349 . S
C1495 C1497 1.327 . S
C1495 H1518 0.950 . S
C1496 C1495 1.349 . S
C1496 C1508 1.349 . S
C1497 C1495 1.327 . S
C1497 C1513 1.429 . S
C1497 H1519 0.950 . S
C1498 H1494 0.949 . S
C1498 C1506 1.574 . S
C1498 C1514 1.368 . S
H1499 C1507 0.950 . S
H1500 C1505 0.950 . S
H1501 C1506 0.949 . S
H1502 C1508 0.950 . S
H1503 C1509 0.950 . S
H1504 C1510 0.949 . S
C1505 H1500 0.950 . S
C1505 C1507 1.327 . S
C1505 C1511 1.429 . S
C1506 C1498 1.574 . S
C1506 H1501 0.949 . S
C1506 C1512 1.368 . S
C1507 C1491 1.349 . S
C1507 H1499 0.950 . S
C1507 C1505 1.327 . S
C1508 C1496 1.349 . S
C1508 H1502 0.950 . S
C1508 C1509 1.327 . S
C1509 H1503 0.950 . S
C1509 C1508 1.327 . S
C1509 C1513 1.429 . S
C1510 C1493 1.574 . S
C1510 H1504 0.949 . S
C1510 C1514 1.368 . S
C1511 C1492 1.429 . S
C1511 C1505 1.429 . S
C1511 C1512 1.523 . S
C1512 C1493 1.368 . S
C1512 C1506 1.368 . S
C1512 C1511 1.523 . S
C1513 C1497 1.429 . S
C1513 C1509 1.429 . S
C1513 C1514 1.523 . S
C1514 C1498 1.368 . S
C1514 C1510 1.368 . S
C1514 C1513 1.523 . S
H1515 C1490 0.950 . S
H1516 C1492 0.950 . S
H1517 C1493 0.949 . S
H1518 C1495 0.950 . S
H1519 C1497 0.950 . S
C1520 C1521 1.349 . S
C1520 C1522 1.327 . S
C1520 H1545 0.950 . S
C1521 C1520 1.349 . S
C1521 C1537 1.349 . S
C1522 C1520 1.327 . S
C1522 C1541 1.429 . S
C1522 H1546 0.950 . S
C1523 C1540 1.574 . S
C1523 C1542 1.368 . S
C1523 H1547 0.949 . S
H1524 C1528 0.949 . S
C1525 C1526 1.349 . S
C1525 C1527 1.327 . S
C1525 H1548 0.950 . S
C1526 C1525 1.349 . S
C1526 C1538 1.349 . S
C1527 C1525 1.327 . S
C1527 C1543 1.429 . S
C1527 H1549 0.950 . S
C1528 H1524 0.949 . S
C1528 C1536 1.574 . S
C1528 C1544 1.368 . S
H1529 C1537 0.950 . S
H1530 C1535 0.950 . S
H1531 C1536 0.949 . S
H1532 C1538 0.950 . S
H1533 C1539 0.950 . S
H1534 C1540 0.949 . S
C1535 H1530 0.950 . S
C1535 C1537 1.327 . S
C1535 C1541 1.429 . S
C1536 C1528 1.574 . S
C1536 H1531 0.949 . S
C1536 C1542 1.368 . S
C1537 C1521 1.349 . S
C1537 H1529 0.950 . S
C1537 C1535 1.327 . S
C1538 C1526 1.349 . S
C1538 H1532 0.950 . S
C1538 C1539 1.327 . S
C1539 H1533 0.950 . S
C1539 C1538 1.327 . S
C1539 C1543 1.429 . S
C1540 C1523 1.574 . S
C1540 H1534 0.949 . S
C1540 C1544 1.368 . S
C1541 C1522 1.429 . S
C1541 C1535 1.429 . S
C1541 C1542 1.523 . S
C1542 C1523 1.368 . S
C1542 C1536 1.368 . S
C1542 C1541 1.523 . S
C1543 C1527 1.429 . S
C1543 C1539 1.429 . S
C1543 C1544 1.523 . S
C1544 C1528 1.368 . S
C1544 C1540 1.368 . S
C1544 C1543 1.523 . S
H1545 C1520 0.950 . S
H1546 C1522 0.950 . S
H1547 C1523 0.949 . S
H1548 C1525 0.950 . S
H1549 C1527 0.950 . S
C1550 C1551 1.349 . S
C1550 C1552 1.327 . S
C1550 H1575 0.950 . S
C1551 C1550 1.349 . S
C1551 C1567 1.349 . S
C1552 C1550 1.327 . S
C1552 C1571 1.429 . S
C1552 H1576 0.950 . S
C1553 C1570 1.574 . S
C1553 C1572 1.368 . S
C1553 H1577 0.949 . S
H1554 C1558 0.949 . S
C1555 C1556 1.349 . S
C1555 C1557 1.327 . S
C1555 H1578 0.950 . S
C1556 C1555 1.349 . S
C1556 C1568 1.349 . S
C1557 C1555 1.327 . S
C1557 C1573 1.429 . S
C1557 H1579 0.950 . S
C1558 H1554 0.949 . S
C1558 C1566 1.574 . S
C1558 C1574 1.368 . S
H1559 C1567 0.950 . S
H1560 C1565 0.950 . S
H1561 C1566 0.949 . S
H1562 C1568 0.950 . S
H1563 C1569 0.950 . S
H1564 C1570 0.949 . S
C1565 H1560 0.950 . S
C1565 C1567 1.327 . S
C1565 C1571 1.429 . S
C1566 C1558 1.574 . S
C1566 H1561 0.949 . S
C1566 C1572 1.368 . S
C1567 C1551 1.349 . S
C1567 H1559 0.950 . S
C1567 C1565 1.327 . S
C1568 C1556 1.349 . S
C1568 H1562 0.950 . S
C1568 C1569 1.327 . S
C1569 H1563 0.950 . S
C1569 C1568 1.327 . S
C1569 C1573 1.429 . S
C1570 C1553 1.574 . S
C1570 H1564 0.949 . S
C1570 C1574 1.368 . S
C1571 C1552 1.429 . S
C1571 C1565 1.429 . S
C1571 C1572 1.523 . S
C1572 C1553 1.368 . S
C1572 C1566 1.368 . S
C1572 C1571 1.523 . S
C1573 C1557 1.429 . S
C1573 C1569 1.429 . S
C1573 C1574 1.523 . S
C1574 C1558 1.368 . S
C1574 C1570 1.368 . S
C1574 C1573 1.523 . S
H1575 C1550 0.950 . S
H1576 C1552 0.950 . S
H1577 C1553 0.949 . S
H1578 C1555 0.950 . S
H1579 C1557 0.950 . S
C1580 C1581 1.349 . S
C1580 C1582 1.327 . S
C1580 H1605 0.950 . S
C1581 C1580 1.349 . S
C1581 C1597 1.349 . S
C1582 C1580 1.327 . S
C1582 C1601 1.429 . S
C1582 H1606 0.950 . S
C1583 C1600 1.574 . S
C1583 C1602 1.368 . S
C1583 H1607 0.949 . S
H1584 C1588 0.949 . S
C1585 C1586 1.349 . S
C1585 C1587 1.327 . S
C1585 H1608 0.950 . S
C1586 C1585 1.349 . S
C1586 C1598 1.349 . S
C1587 C1585 1.327 . S
C1587 C1603 1.429 . S
C1587 H1609 0.950 . S
C1588 H1584 0.949 . S
C1588 C1596 1.574 . S
C1588 C1604 1.368 . S
H1589 C1597 0.950 . S
H1590 C1595 0.950 . S
H1591 C1596 0.949 . S
H1592 C1598 0.950 . S
H1593 C1599 0.950 . S
H1594 C1600 0.949 . S
C1595 H1590 0.950 . S
C1595 C1597 1.327 . S
C1595 C1601 1.429 . S
C1596 C1588 1.574 . S
C1596 H1591 0.949 . S
C1596 C1602 1.368 . S
C1597 C1581 1.349 . S
C1597 H1589 0.950 . S
C1597 C1595 1.327 . S
C1598 C1586 1.349 . S
C1598 H1592 0.950 . S
C1598 C1599 1.327 . S
C1599 H1593 0.950 . S
C1599 C1598 1.327 . S
C1599 C1603 1.429 . S
C1600 C1583 1.574 . S
C1600 H1594 0.949 . S
C1600 C1604 1.368 . S
C1601 C1582 1.429 . S
C1601 C1595 1.429 . S
C1601 C1602 1.523 . S
C1602 C1583 1.368 . S
C1602 C1596 1.368 . S
C1602 C1601 1.523 . S
C1603 C1587 1.429 . S
C1603 C1599 1.429 . S
C1603 C1604 1.523 . S
C1604 C1588 1.368 . S
C1604 C1600 1.368 . S
C1604 C1603 1.523 . S
H1605 C1580 0.950 . S
H1606 C1582 0.950 . S
H1607 C1583 0.949 . S
H1608 C1585 0.950 . S
H1609 C1587 0.950 . S
C1610 C1611 1.349 . S
C1610 C1612 1.327 . S
C1610 H1635 0.950 . S
C1611 C1610 1.349 . S
C1611 C1627 1.349 . S
C1612 C1610 1.327 . S
C1612 C1631 1.429 . S
C1612 H1636 0.950 . S
C1613 C1630 1.574 . S
C1613 C1632 1.368 . S
C1613 H1637 0.949 . S
H1614 C1618 0.949 . S
C1615 C1616 1.349 . S
C1615 C1617 1.327 . S
C1615 H1638 0.950 . S
C1616 C1615 1.349 . S
C1616 C1628 1.349 . S
C1617 C1615 1.327 . S
C1617 C1633 1.429 . S
C1617 H1639 0.950 . S
C1618 H1614 0.949 . S
C1618 C1626 1.574 . S
C1618 C1634 1.368 . S
H1619 C1627 0.950 . S
H1620 C1625 0.950 . S
H1621 C1626 0.949 . S
H1622 C1628 0.950 . S
H1623 C1629 0.950 . S
H1624 C1630 0.949 . S
C1625 H1620 0.950 . S
C1625 C1627 1.327 . S
C1625 C1631 1.429 . S
C1626 C1618 1.574 . S
C1626 H1621 0.949 . S
C1626 C1632 1.368 . S
C1627 C1611 1.349 . S
C1627 H1619 0.950 . S
C1627 C1625 1.327 . S
C1628 C1616 1.349 . S
C1628 H1622 0.950 . S
C1628 C1629 1.327 . S
C1629 H1623 0.950 . S
C1629 C1628 1.327 . S
C1629 C1633 1.429 . S
C1630 C1613 1.574 . S
C1630 H1624 0.949 . S
C1630 C1634 1.368 . S
C1631 C1612 1.429 . S
C1631 C1625 1.429 . S
C1631 C1632 1.523 . S
C1632 C1613 1.368 . S
C1632 C1626 1.368 . S
C1632 C1631 1.523 . S
C1633 C1617 1.429 . S
C1633 C1629 1.429 . S
C1633 C1634 1.523 . S
C1634 C1618 1.368 . S
C1634 C1630 1.368 . S
C1634 C1633 1.523 . S
H1635 C1610 0.950 . S
H1636 C1612 0.950 . S
H1637 C1613 0.949 . S
H1638 C1615 0.950 . S
H1639 C1617 0.950 . S
C1640 C1641 1.349 . S
C1640 C1642 1.327 . S
C1640 H1665 0.950 . S
C1641 C1640 1.349 . S
C1641 C1657 1.349 . S
C1642 C1640 1.327 . S
C1642 C1661 1.429 . S
C1642 H1666 0.950 . S
C1643 C1660 1.574 . S
C1643 C1662 1.368 . S
C1643 H1667 0.949 . S
H1644 C1648 0.949 . S
C1645 C1646 1.349 . S
C1645 C1647 1.327 . S
C1645 H1668 0.950 . S
C1646 C1645 1.349 . S
C1646 C1658 1.349 . S
C1647 C1645 1.327 . S
C1647 C1663 1.429 . S
C1647 H1669 0.950 . S
C1648 H1644 0.949 . S
C1648 C1656 1.574 . S
C1648 C1664 1.368 . S
H1649 C1657 0.950 . S
H1650 C1655 0.950 . S
H1651 C1656 0.949 . S
H1652 C1658 0.950 . S
H1653 C1659 0.950 . S
H1654 C1660 0.949 . S
C1655 H1650 0.950 . S
C1655 C1657 1.327 . S
C1655 C1661 1.429 . S
C1656 C1648 1.574 . S
C1656 H1651 0.949 . S
C1656 C1662 1.368 . S
C1657 C1641 1.349 . S
C1657 H1649 0.950 . S
C1657 C1655 1.327 . S
C1658 C1646 1.349 . S
C1658 H1652 0.950 . S
C1658 C1659 1.327 . S
C1659 H1653 0.950 . S
C1659 C1658 1.327 . S
C1659 C1663 1.429 . S
C1660 C1643 1.574 . S
C1660 H1654 0.949 . S
C1660 C1664 1.368 . S
C1661 C1642 1.429 . S
C1661 C1655 1.429 . S
C1661 C1662 1.523 . S
C1662 C1643 1.368 . S
C1662 C1656 1.368 . S
C1662 C1661 1.523 . S
C1663 C1647 1.429 . S
C1663 C1659 1.429 . S
C1663 C1664 1.523 . S
C1664 C1648 1.368 . S
C1664 C1660 1.368 . S
C1664 C1663 1.523 . S
H1665 C1640 0.950 . S
H1666 C1642 0.950 . S
H1667 C1643 0.949 . S
H1668 C1645 0.950 . S
H1669 C1647 0.950 . S
C1670 C1671 1.349 . S
C1670 C1672 1.327 . S
C1670 H1695 0.950 . S
C1671 C1670 1.349 . S
C1671 C1687 1.349 . S
C1672 C1670 1.327 . S
C1672 C1691 1.429 . S
C1672 H1696 0.950 . S
C1673 C1690 1.574 . S
C1673 C1692 1.368 . S
C1673 H1697 0.949 . S
H1674 C1678 0.949 . S
C1675 C1676 1.349 . S
C1675 C1677 1.327 . S
C1675 H1698 0.950 . S
C1676 C1675 1.349 . S
C1676 C1688 1.349 . S
C1677 C1675 1.327 . S
C1677 C1693 1.429 . S
C1677 H1699 0.950 . S
C1678 H1674 0.949 . S
C1678 C1686 1.574 . S
C1678 C1694 1.368 . S
H1679 C1687 0.950 . S
H1680 C1685 0.950 . S
H1681 C1686 0.949 . S
H1682 C1688 0.950 . S
H1683 C1689 0.950 . S
H1684 C1690 0.949 . S
C1685 H1680 0.950 . S
C1685 C1687 1.327 . S
C1685 C1691 1.429 . S
C1686 C1678 1.574 . S
C1686 H1681 0.949 . S
C1686 C1692 1.368 . S
C1687 C1671 1.349 . S
C1687 H1679 0.950 . S
C1687 C1685 1.327 . S
C1688 C1676 1.349 . S
C1688 H1682 0.950 . S
C1688 C1689 1.327 . S
C1689 H1683 0.950 . S
C1689 C1688 1.327 . S
C1689 C1693 1.429 . S
C1690 C1673 1.574 . S
C1690 H1684 0.949 . S
C1690 C1694 1.368 . S
C1691 C1672 1.429 . S
C1691 C1685 1.429 . S
C1691 C1692 1.523 . S
C1692 C1673 1.368 . S
C1692 C1686 1.368 . S
C1692 C1691 1.523 . S
C1693 C1677 1.429 . S
C1693 C1689 1.429 . S
C1693 C1694 1.523 . S
C1694 C1678 1.368 . S
C1694 C1690 1.368 . S
C1694 C1693 1.523 . S
H1695 C1670 0.950 . S
H1696 C1672 0.950 . S
H1697 C1673 0.949 . S
H1698 C1675 0.950 . S
H1699 C1677 0.950 . S
C1700 C1701 1.349 . S
C1700 C1702 1.327 . S
C1700 H1725 0.950 . S
C1701 C1700 1.349 . S
C1701 C1717 1.349 . S
C1702 C1700 1.327 . S
C1702 C1721 1.429 . S
C1702 H1726 0.950 . S
C1703 C1720 1.574 . S
C1703 C1722 1.368 . S
C1703 H1727 0.949 . S
H1704 C1708 0.949 . S
C1705 C1706 1.349 . S
C1705 C1707 1.327 . S
C1705 H1728 0.950 . S
C1706 C1705 1.349 . S
C1706 C1718 1.349 . S
C1707 C1705 1.327 . S
C1707 C1723 1.429 . S
C1707 H1729 0.950 . S
C1708 H1704 0.949 . S
C1708 C1716 1.574 . S
C1708 C1724 1.368 . S
H1709 C1717 0.950 . S
H1710 C1715 0.950 . S
H1711 C1716 0.949 . S
H1712 C1718 0.950 . S
H1713 C1719 0.950 . S
H1714 C1720 0.949 . S
C1715 H1710 0.950 . S
C1715 C1717 1.327 . S
C1715 C1721 1.429 . S
C1716 C1708 1.574 . S
C1716 H1711 0.949 . S
C1716 C1722 1.368 . S
C1717 C1701 1.349 . S
C1717 H1709 0.950 . S
C1717 C1715 1.327 . S
C1718 C1706 1.349 . S
C1718 H1712 0.950 . S
C1718 C1719 1.327 . S
C1719 H1713 0.950 . S
C1719 C1718 1.327 . S
C1719 C1723 1.429 . S
C1720 C1703 1.574 . S
C1720 H1714 0.949 . S
C1720 C1724 1.368 . S
C1721 C1702 1.429 . S
C1721 C1715 1.429 . S
C1721 C1722 1.523 . S
C1722 C1703 1.368 . S
C1722 C1716 1.368 . S
C1722 C1721 1.523 . S
C1723 C1707 1.429 . S
C1723 C1719 1.429 . S
C1723 C1724 1.523 . S
C1724 C1708 1.368 . S
C1724 C1720 1.368 . S
C1724 C1723 1.523 . S
H1725 C1700 0.950 . S
H1726 C1702 0.950 . S
H1727 C1703 0.949 . S
H1728 C1705 0.950 . S
H1729 C1707 0.950 . S
C1730 C1731 1.349 . S
C1730 C1732 1.327 . S
C1730 H1755 0.950 . S
C1731 C1730 1.349 . S
C1731 C1747 1.349 . S
C1732 C1730 1.327 . S
C1732 C1751 1.429 . S
C1732 H1756 0.950 . S
C1733 C1750 1.574 . S
C1733 C1752 1.368 . S
C1733 H1757 0.949 . S
H1734 C1738 0.949 . S
C1735 C1736 1.349 . S
C1735 C1737 1.327 . S
C1735 H1758 0.950 . S
C1736 C1735 1.349 . S
C1736 C1748 1.349 . S
C1737 C1735 1.327 . S
C1737 C1753 1.429 . S
C1737 H1759 0.950 . S
C1738 H1734 0.949 . S
C1738 C1746 1.574 . S
C1738 C1754 1.368 . S
H1739 C1747 0.950 . S
H1740 C1745 0.950 . S
H1741 C1746 0.949 . S
H1742 C1748 0.950 . S
H1743 C1749 0.950 . S
H1744 C1750 0.949 . S
C1745 H1740 0.950 . S
C1745 C1747 1.327 . S
C1745 C1751 1.429 . S
C1746 C1738 1.574 . S
C1746 H1741 0.949 . S
C1746 C1752 1.368 . S
C1747 C1731 1.349 . S
C1747 H1739 0.950 . S
C1747 C1745 1.327 . S
C1748 C1736 1.349 . S
C1748 H1742 0.950 . S
C1748 C1749 1.327 . S
C1749 H1743 0.950 . S
C1749 C1748 1.327 . S
C1749 C1753 1.429 . S
C1750 C1733 1.574 . S
C1750 H1744 0.949 . S
C1750 C1754 1.368 . S
C1751 C1732 1.429 . S
C1751 C1745 1.429 . S
C1751 C1752 1.523 . S
C1752 C1733 1.368 . S
C1752 C1746 1.368 . S
C1752 C1751 1.523 . S
C1753 C1737 1.429 . S
C1753 C1749 1.429 . S
C1753 C1754 1.523 . S
C1754 C1738 1.368 . S
C1754 C1750 1.368 . S
C1754 C1753 1.523 . S
H1755 C1730 0.950 . S
H1756 C1732 0.950 . S
H1757 C1733 0.949 . S
H1758 C1735 0.950 . S
H1759 C1737 0.950 . S
C1760 C1761 1.349 . S
C1760 C1762 1.327 . S
C1760 H1785 0.950 . S
C1761 C1760 1.349 . S
C1761 C1777 1.349 . S
C1762 C1760 1.327 . S
C1762 C1781 1.429 . S
C1762 H1786 0.950 . S
C1763 C1780 1.574 . S
C1763 C1782 1.368 . S
C1763 H1787 0.949 . S
H1764 C1768 0.949 . S
C1765 C1766 1.349 . S
C1765 C1767 1.327 . S
C1765 H1788 0.950 . S
C1766 C1765 1.349 . S
C1766 C1778 1.349 . S
C1767 C1765 1.327 . S
C1767 C1783 1.429 . S
C1767 H1789 0.950 . S
C1768 H1764 0.949 . S
C1768 C1776 1.574 . S
C1768 C1784 1.368 . S
H1769 C1777 0.950 . S
H1770 C1775 0.950 . S
H1771 C1776 0.949 . S
H1772 C1778 0.950 . S
H1773 C1779 0.950 . S
H1774 C1780 0.949 . S
C1775 H1770 0.950 . S
C1775 C1777 1.327 . S
C1775 C1781 1.429 . S
C1776 C1768 1.574 . S
C1776 H1771 0.949 . S
C1776 C1782 1.368 . S
C1777 C1761 1.349 . S
C1777 H1769 0.950 . S
C1777 C1775 1.327 . S
C1778 C1766 1.349 . S
C1778 H1772 0.950 . S
C1778 C1779 1.327 . S
C1779 H1773 0.950 . S
C1779 C1778 1.327 . S
C1779 C1783 1.429 . S
C1780 C1763 1.574 . S
C1780 H1774 0.949 . S
C1780 C1784 1.368 . S
C1781 C1762 1.429 . S
C1781 C1775 1.429 . S
C1781 C1782 1.523 . S
C1782 C1763 1.368 . S
C1782 C1776 1.368 . S
C1782 C1781 1.523 . S
C1783 C1767 1.429 . S
C1783 C1779 1.429 . S
C1783 C1784 1.523 . S
C1784 C1768 1.368 . S
C1784 C1780 1.368 . S
C1784 C1783 1.523 . S
H1785 C1760 0.950 . S
H1786 C1762 0.950 . S
H1787 C1763 0.949 . S
H1788 C1765 0.950 . S
H1789 C1767 0.950 . S
C1790 C1791 1.349 . S
C1790 C1792 1.327 . S
C1790 H1815 0.950 . S
C1791 C1790 1.349 . S
C1791 C1807 1.349 . S
C1792 C1790 1.327 . S
C1792 C1811 1.429 . S
C1792 H1816 0.950 . S
C1793 C1810 1.574 . S
C1793 C1812 1.368 . S
C1793 H1817 0.949 . S
H1794 C1798 0.949 . S
C1795 C1796 1.349 . S
C1795 C1797 1.327 . S
C1795 H1818 0.950 . S
C1796 C1795 1.349 . S
C1796 C1808 1.349 . S
C1797 C1795 1.327 . S
C1797 C1813 1.429 . S
C1797 H1819 0.950 . S
C1798 H1794 0.949 . S
C1798 C1806 1.574 . S
C1798 C1814 1.368 . S
H1799 C1807 0.950 . S
H1800 C1805 0.950 . S
H1801 C1806 0.949 . S
H1802 C1808 0.950 . S
H1803 C1809 0.950 . S
H1804 C1810 0.949 . S
C1805 H1800 0.950 . S
C1805 C1807 1.327 . S
C1805 C1811 1.429 . S
C1806 C1798 1.574 . S
C1806 H1801 0.949 . S
C1806 C1812 1.368 . S
C1807 C1791 1.349 . S
C1807 H1799 0.950 . S
C1807 C1805 1.327 . S
C1808 C1796 1.349 . S
C1808 H1802 0.950 . S
C1808 C1809 1.327 . S
C1809 H1803 0.950 . S
C1809 C1808 1.327 . S
C1809 C1813 1.429 . S
C1810 C1793 1.574 . S
C1810 H1804 0.949 . S
C1810 C1814 1.368 . S
C1811 C1792 1.429 . S
C1811 C1805 1.429 . S
C1811 C1812 1.523 . S
C1812 C1793 1.368 . S
C1812 C1806 1.368 . S
C1812 C1811 1.523 . S
C1813 C1797 1.429 . S
C1813 C1809 1.429 . S
C1813 C1814 1.523 . S
C1814 C1798 1.368 . S
C1814 C1810 1.368 . S
C1814 C1813 1.523 . S
H1815 C1790 0.950 . S
H1816 C1792 0.950 . S
H1817 C1793 0.949 . S
H1818 C1795 0.950 . S
H1819 C1797 0.950 . S
C1820 C1821 1.349 . S
C1820 C1822 1.327 . S
C1820 H1845 0.950 . S
C1821 C1820 1.349 . S
C1821 C1837 1.349 . S
C1822 C1820 1.327 . S
C1822 C1841 1.429 . S
C1822 H1846 0.950 . S
C1823 C1840 1.574 . S
C1823 C1842 1.368 . S
C1823 H1847 0.949 . S
H1824 C1828 0.949 . S
C1825 C1826 1.349 . S
C1825 C1827 1.327 . S
C1825 H1848 0.950 . S
C1826 C1825 1.349 . S
C1826 C1838 1.349 . S
C1827 C1825 1.327 . S
C1827 C1843 1.429 . S
C1827 H1849 0.950 . S
C1828 H1824 0.949 . S
C1828 C1836 1.574 . S
C1828 C1844 1.368 . S
H1829 C1837 0.950 . S
H1830 C1835 0.950 . S
H1831 C1836 0.949 . S
H1832 C1838 0.950 . S
H1833 C1839 0.950 . S
H1834 C1840 0.949 . S
C1835 H1830 0.950 . S
C1835 C1837 1.327 . S
C1835 C1841 1.429 . S
C1836 C1828 1.574 . S
C1836 H1831 0.949 . S
C1836 C1842 1.368 . S
C1837 C1821 1.349 . S
C1837 H1829 0.950 . S
C1837 C1835 1.327 . S
C1838 C1826 1.349 . S
C1838 H1832 0.950 . S
C1838 C1839 1.327 . S
C1839 H1833 0.950 . S
C1839 C1838 1.327 . S
C1839 C1843 1.429 . S
C1840 C1823 1.574 . S
C1840 H1834 0.949 . S
C1840 C1844 1.368 . S
C1841 C1822 1.429 . S
C1841 C1835 1.429 . S
C1841 C1842 1.523 . S
C1842 C1823 1.368 . S
C1842 C1836 1.368 . S
C1842 C1841 1.523 . S
C1843 C1827 1.429 . S
C1843 C1839 1.429 . S
C1843 C1844 1.523 . S
C1844 C1828 1.368 . S
C1844 C1840 1.368 . S
C1844 C1843 1.523 . S
H1845 C1820 0.950 . S
H1846 C1822 0.950 . S
H1847 C1823 0.949 . S
H1848 C1825 0.950 . S
H1849 C1827 0.950 . S
C1850 C1851 1.349 . S
C1850 C1852 1.327 . S
C1850 H1875 0.950 . S
C1851 C1850 1.349 . S
C1851 C1867 1.349 . S
C1852 C1850 1.327 . S
C1852 C1871 1.429 . S
C1852 H1876 0.950 . S
C1853 C1870 1.574 . S
C1853 C1872 1.368 . S
C1853 H1877 0.949 . S
H1854 C1858 0.949 . S
C1855 C1856 1.349 . S
C1855 C1857 1.327 . S
C1855 H1878 0.950 . S
C1856 C1855 1.349 . S
C1856 C1868 1.349 . S
C1857 C1855 1.327 . S
C1857 C1873 1.429 . S
C1857 H1879 0.950 . S
C1858 H1854 0.949 . S
C1858 C1866 1.574 . S
C1858 C1874 1.368 . S
H1859 C1867 0.950 . S
H1860 C1865 0.950 . S
H1861 C1866 0.949 . S
H1862 C1868 0.950 . S
H1863 C1869 0.950 . S
H1864 C1870 0.949 . S
C1865 H1860 0.950 . S
C1865 C1867 1.327 . S
C1865 C1871 1.429 . S
C1866 C1858 1.574 . S
C1866 H1861 0.949 . S
C1866 C1872 1.368 . S
C1867 C1851 1.349 . S
C1867 H1859 0.950 . S
C1867 C1865 1.327 . S
C1868 C1856 1.349 . S
C1868 H1862 0.950 . S
C1868 C1869 1.327 . S
C1869 H1863 0.950 . S
C1869 C1868 1.327 . S
C1869 C1873 1.429 . S
C1870 C1853 1.574 . S
C1870 H1864 0.949 . S
C1870 C1874 1.368 . S
C1871 C1852 1.429 . S
C1871 C1865 1.429 . S
C1871 C1872 1.523 . S
C1872 C1853 1.368 . S
C1872 C1866 1.368 . S
C1872 C1871 1.523 . S
C1873 C1857 1.429 . S
C1873 C1869 1.429 . S
C1873 C1874 1.523 . S
C1874 C1858 1.368 . S
C1874 C1870 1.368 . S
C1874 C1873 1.523 . S
H1875 C1850 0.950 . S
H1876 C1852 0.950 . S
H1877 C1853 0.949 . S
H1878 C1855 0.950 . S
H1879 C1857 0.950 . S
C1880 C1881 1.349 . S
C1880 C1882 1.327 . S
C1880 H1905 0.950 . S
C1881 C1880 1.349 . S
C1881 C1897 1.349 . S
C1882 C1880 1.327 . S
C1882 C1901 1.429 . S
C1882 H1906 0.950 . S
C1883 C1900 1.574 . S
C1883 C1902 1.368 . S
C1883 H1907 0.949 . S
H1884 C1888 0.949 . S
C1885 C1886 1.349 . S
C1885 C1887 1.327 . S
C1885 H1908 0.950 . S
C1886 C1885 1.349 . S
C1886 C1898 1.349 . S
C1887 C1885 1.327 . S
C1887 C1903 1.429 . S
C1887 H1909 0.950 . S
C1888 H1884 0.949 . S
C1888 C1896 1.574 . S
C1888 C1904 1.368 . S
H1889 C1897 0.950 . S
H1890 C1895 0.950 . S
H1891 C1896 0.949 . S
H1892 C1898 0.950 . S
H1893 C1899 0.950 . S
H1894 C1900 0.949 . S
C1895 H1890 0.950 . S
C1895 C1897 1.327 . S
C1895 C1901 1.429 . S
C1896 C1888 1.574 . S
C1896 H1891 0.949 . S
C1896 C1902 1.368 . S
C1897 C1881 1.349 . S
C1897 H1889 0.950 . S
C1897 C1895 1.327 . S
C1898 C1886 1.349 . S
C1898 H1892 0.950 . S
C1898 C1899 1.327 . S
C1899 H1893 0.950 . S
C1899 C1898 1.327 . S
C1899 C1903 1.429 . S
C1900 C1883 1.574 . S
C1900 H1894 0.949 . S
C1900 C1904 1.368 . S
C1901 C1882 1.429 . S
C1901 C1895 1.429 . S
C1901 C1902 1.523 . S
C1902 C1883 1.368 . S
C1902 C1896 1.368 . S
C1902 C1901 1.523 . S
C1903 C1887 1.429 . S
C1903 C1899 1.429 . S
C1903 C1904 1.523 . S
C1904 C1888 1.368 . S
C1904 C1900 1.368 . S
C1904 C1903 1.523 . S
H1905 C1880 0.950 . S
H1906 C1882 0.950 . S
H1907 C1883 0.949 . S
H1908 C1885 0.950 . S
H1909 C1887 0.950 . S
C476 C299 0.562 . S
C471 C4 0.162 . S
C506 C300 1.827 . S
C501 C63 1.941 . S
C536 C294 0.920 . S
C531 C72 0.937 . S
C561 C102 1.102 . S
C566 C293 1.092 . S
C591 C136 1.939 . S
C596 C296 1.825 . S
C626 C298 0.920 . S
C621 C183 0.934 . S
C651 C233 1.102 . S
C656 C297 1.096 . S
C681 C251 0.164 . S
C686 C295 0.563 . S
C716 C330 1.552 . S
C711 C29 1.551 . S
C741 C42 2.052 . S
C746 C361 1.977 . S
C776 C329 1.433 . S
C771 C97 1.481 . S
C806 C364 1.012 . S
C801 C115 1.016 . S
C831 C149 1.165 . S
C836 C327 1.167 . S
C866 C359 1.550 . S
C861 C187 1.563 . S
C891 C212 1.775 . S
C896 C332 1.737 . S
C921 C255 1.476 . S
C926 C366 1.408 . S
C951 C8 1.476 . S
C956 C362 1.403 . S
C981 C153 2.052 . S
C986 C365 1.974 . S
C1016 C333 1.433 . S
C1011 C170 1.484 . S
C1046 C360 1.012 . S
C1041 C208 1.023 . S
C1071 C238 1.553 . S
C1076 C326 1.553 . S
C1101 C76 1.563 . S
C1106 C363 1.551 . S
C1136 C328 1.736 . S
C1131 C119 1.774 . S
C1161 C38 1.165 . S
C1166 C331 1.165 . S
C1191 C242 0.146 . S
C1196 C398 0.564 . S
C1221 C165 1.295 . S
C1226 C399 1.217 . S
C1256 C393 0.916 . S
C1251 C174 0.931 . S
C1286 C392 1.720 . S
C1281 C204 1.742 . S
C1311 C34 1.295 . S
C1316 C395 1.215 . S
C1346 C397 0.916 . S
C1341 C81 0.929 . S
C1371 C131 1.741 . S
C1376 C396 1.719 . S
C1401 C13 0.146 . S
C1406 C394 0.569 . S
C1431 C267 1.703 . S
C1436 C432 1.632 . S
C1466 C464 1.747 . S
C1461 C144 1.782 . S
C1491 C199 1.331 . S
C1496 C425 1.328 . S
C1521 C217 1.201 . S
C1526 C459 1.212 . S
C1556 C430 0.993 . S
C1551 C47 0.994 . S
C1581 C85 1.801 . S
C1586 C461 1.733 . S
C1616 C427 1.987 . S
C1611 C110 2.055 . S
C1646 C462 1.343 . S
C1641 C17 1.345 . S
C1676 C458 1.343 . S
C1671 C246 1.345 . S
C1701 C51 1.782 . S
C1706 C460 1.747 . S
C1731 C68 1.331 . S
C1736 C429 1.331 . S
C1766 C463 1.212 . S
C1761 C106 1.201 . S
C1791 C0 1.703 . S
C1796 C428 1.628 . S
C1821 C178 1.801 . S
C1826 C465 1.733 . S
C1856 C431 1.987 . S
C1851 C221 2.058 . S
C1886 C426 0.993 . S
C1881 C140 0.991 . S
