# Generated by pormake.
# Topology zzz, (3,6)-cn, num edge types: 1
# Building blocks:
#     Node 0, Type 0, BuildingBlock: OLANEW_clean_sbu_2, # of connection points: 3
#     Node 1, Type 0, BuildingBlock: OLANEW_clean_sbu_2, # of connection points: 3
#     Node 2, Type 0, BuildingBlock: OLANEW_clean_sbu_2, # of connection points: 3
#     Node 3, Type 0, BuildingBlock: OLANEW_clean_sbu_2, # of connection points: 3
#     Node 4, Type 0, BuildingBlock: OLANEW_clean_sbu_2, # of connection points: 3
#     Node 5, Type 0, BuildingBlock: OLANEW_clean_sbu_2, # of connection points: 3
#     Node 6, Type 0, BuildingBlock: OLANEW_clean_sbu_2, # of connection points: 3
#     Node 7, Type 0, BuildingBlock: OLANEW_clean_sbu_2, # of connection points: 3
#     Node 8, Type 1, BuildingBlock: BETDAH_clean_sbu_0, # of connection points: 6
#     Node 9, Type 1, BuildingBlock: BETDAH_clean_sbu_0, # of connection points: 6
#     Node 10, Type 1, BuildingBlock: BETDAH_clean_sbu_0, # of connection points: 6
#     Node 11, Type 1, BuildingBlock: BETDAH_clean_sbu_0, # of connection points: 6
#     Edge 12, Type (0, 1), BuildingBlock: XUDNAN_clean_linker_2, # of connection points: 2
#     Edge 13, Type (0, 1), BuildingBlock: XUDNAN_clean_linker_2, # of connection points: 2
#     Edge 14, Type (0, 1), BuildingBlock: XUDNAN_clean_linker_2, # of connection points: 2
#     Edge 15, Type (0, 1), BuildingBlock: XUDNAN_clean_linker_2, # of connection points: 2
#     Edge 16, Type (0, 1), BuildingBlock: XUDNAN_clean_linker_2, # of connection points: 2
#     Edge 17, Type (0, 1), BuildingBlock: XUDNAN_clean_linker_2, # of connection points: 2
#     Edge 18, Type (0, 1), BuildingBlock: XUDNAN_clean_linker_2, # of connection points: 2
#     Edge 19, Type (0, 1), BuildingBlock: XUDNAN_clean_linker_2, # of connection points: 2
#     Edge 20, Type (0, 1), BuildingBlock: XUDNAN_clean_linker_2, # of connection points: 2
#     Edge 21, Type (0, 1), BuildingBlock: XUDNAN_clean_linker_2, # of connection points: 2
#     Edge 22, Type (0, 1), BuildingBlock: XUDNAN_clean_linker_2, # of connection points: 2
#     Edge 23, Type (0, 1), BuildingBlock: XUDNAN_clean_linker_2, # of connection points: 2
#     Edge 24, Type (0, 1), BuildingBlock: XUDNAN_clean_linker_2, # of connection points: 2
#     Edge 25, Type (0, 1), BuildingBlock: XUDNAN_clean_linker_2, # of connection points: 2
#     Edge 26, Type (0, 1), BuildingBlock: XUDNAN_clean_linker_2, # of connection points: 2
#     Edge 27, Type (0, 1), BuildingBlock: XUDNAN_clean_linker_2, # of connection points: 2
#     Edge 28, Type (0, 1), BuildingBlock: XUDNAN_clean_linker_2, # of connection points: 2
#     Edge 29, Type (0, 1), BuildingBlock: XUDNAN_clean_linker_2, # of connection points: 2
#     Edge 30, Type (0, 1), BuildingBlock: XUDNAN_clean_linker_2, # of connection points: 2
#     Edge 31, Type (0, 1), BuildingBlock: XUDNAN_clean_linker_2, # of connection points: 2
#     Edge 32, Type (0, 1), BuildingBlock: XUDNAN_clean_linker_2, # of connection points: 2
#     Edge 33, Type (0, 1), BuildingBlock: XUDNAN_clean_linker_2, # of connection points: 2
#     Edge 34, Type (0, 1), BuildingBlock: XUDNAN_clean_linker_2, # of connection points: 2
#     Edge 35, Type (0, 1), BuildingBlock: XUDNAN_clean_linker_2, # of connection points: 2
# Relax obj value: 0.249
# Max RMSD: 0.191
# Mean RMSD: 0.174
data_MOF--net-zzz--node1-OLANEW_clean_sbu_2--node2-BETDAH_clean_sbu_0--edge1-XUDNAN_clean_linker_2
_symmetry_space_group_name_H-M    P1
_symmetry_Int_Tables_number       1
_symmetry_cell_setting            triclinic
loop_
_symmetry_equiv_pos_as_xyz
'x, y, z'
_cell_length_a     56.490814
_cell_length_b     56.459571
_cell_length_c     14.994426
_cell_angle_alpha  89.930167
_cell_angle_beta   90.017634
_cell_angle_gamma 90.016558
loop_
_atom_site_label
_atom_site_type_symbol
_atom_site_fract_x
_atom_site_fract_y
_atom_site_fract_z
_atom_type_partial_charge
O0 O 0.73279 0.5382 0.17054 0.0
Cd1 Cd 0.69361 0.53727 0.24067 0.0
O2 O 0.74377 0.51888 0.29001 0.0
Cd3 Cd 0.7717 0.5083 0.38075 0.0
O4 O 0.8021 0.50999 0.4687 0.0
C5 C 0.82009 0.52159 0.44277 0.0
O6 O 0.81976 0.532 0.36447 0.0
C7 C 0.74909 0.52866 0.21644 0.0
C8 C 0.65613 0.5387 0.12045 0.0
O9 O 0.66658 0.5577 0.14559 0.0
O10 O 0.66352 0.51889 0.15174 0.0
O11 O 0.92776 0.73544 0.14719 0.0
Cd12 Cd 0.90754 0.69735 0.16343 0.0
O13 O 0.94426 0.72803 0.2764 0.0
Cd14 Cd 0.96652 0.73521 0.39359 0.0
O15 O 0.98001 0.76257 0.48301 0.0
C16 C 0.97291 0.76589 0.56248 0.0
O17 O 0.95835 0.75057 0.59911 0.0
C18 C 0.94112 0.74205 0.21058 0.0
C19 C 0.93553 0.65897 0.11342 0.0
O20 O 0.92215 0.66956 0.05699 0.0
O21 O 0.93579 0.66662 0.19387 0.0
O22 O 0.78545 0.98565 0.32181 0.0
Cd23 Cd 0.82261 0.97614 0.39792 0.0
O24 O 0.78853 0.022 0.37168 0.0
Cd25 Cd 0.77192 0.05591 0.40098 0.0
O26 O 0.73433 0.06095 0.42167 0.0
C27 C 0.72559 0.0515 0.49112 0.0
O28 O 0.73993 0.04226 0.55077 0.0
C29 C 0.77717 0.00651 0.32722 0.0
C30 C 0.85803 0.96674 0.27392 0.0
O31 O 0.84413 0.95036 0.30157 0.0
O32 O 0.85544 0.9876 0.30617 0.0
O33 O 0.48402 0.76001 0.23229 0.0
Cd34 Cd 0.47185 0.80136 0.24943 0.0
O35 O 0.47881 0.7554 0.37542 0.0
Cd36 Cd 0.47365 0.739 0.50605 0.0
O37 O 0.46483 0.73775 0.64808 0.0
C38 C 0.46392 0.72003 0.7004 0.0
O39 O 0.45936 0.72379 0.78515 0.0
C40 C 0.4837 0.74641 0.2999 0.0
C41 C 0.48752 0.83124 0.11371 0.0
O42 O 0.4973 0.83178 0.19077 0.0
O43 O 0.47062 0.81653 0.10053 0.0
O44 O 0.27793 0.50351 0.02852 0.0
Cd45 Cd 0.31658 0.48804 0.98515 0.0
O46 O 0.26731 0.46631 0.03736 0.0
Cd47 Cd 0.24309 0.43679 0.06342 0.0
O48 O 0.22438 0.40265 0.10503 0.0
C49 C 0.20211 0.39858 0.09959 0.0
O50 O 0.22486 0.40194 0.10639 0.0
C51 C 0.26238 0.48811 0.04805 0.0
C52 C 0.34387 0.48103 0.13819 0.0
O53 O 0.34546 0.50022 0.09276 0.0
O54 O 0.32966 0.46496 0.11043 0.0
O55 O 0.94379 0.24414 0.32139 0.0
Cd56 Cd 0.92649 0.2837 0.3283 0.0
O57 O 0.95331 0.24773 0.17983 0.0
Cd58 Cd 0.96429 0.23106 0.05507 0.0
O59 O 0.97499 0.19987 0.97973 0.0
C60 C 0.97625 0.19876 0.89529 0.0
O61 O 0.97118 0.21761 0.84749 0.0
C62 C 0.95245 0.23532 0.25065 0.0
C63 C 0.95576 0.31925 0.39503 0.0
O64 O 0.94417 0.30566 0.44786 0.0
O65 O 0.954 0.31557 0.31092 0.0
O66 O 0.23349 0.02329 0.16594 0.0
Cd67 Cd 0.19648 0.03796 0.10269 0.0
O68 O 0.25383 0.0455 0.07367 0.0
Cd69 Cd 0.28544 0.0601 0.00857 0.0
O70 O 0.29738 0.08589 0.90908 0.0
C71 C 0.31518 0.0871 0.8573 0.0
O72 O 0.31617 0.10479 0.80033 0.0
C73 C 0.25333 0.03085 0.13803 0.0
C74 C 0.15848 0.0231 0.20711 0.0
O75 O 0.16516 0.01113 0.13903 0.0
O76 O 0.1696 0.04229 0.22517 0.0
O77 O 0.51982 0.24187 0.11293 0.0
Cd78 Cd 0.52573 0.19917 0.09528 0.0
O79 O 0.50651 0.2446 0.97609 0.0
Cd80 Cd 0.49072 0.26045 0.85598 0.0
O81 O 0.47431 0.26096 0.72322 0.0
C82 C 0.46933 0.27814 0.67145 0.0
O83 O 0.46066 0.27334 0.59217 0.0
C84 C 0.51211 0.25459 0.04919 0.0
C85 C 0.52532 0.17413 0.25617 0.0
O86 O 0.54391 0.18506 0.22965 0.0
O87 O 0.50675 0.17519 0.20717 0.0
Ho88 Ho 0.01102 0.98157 0.8076 0.0
Ho89 Ho 0.98978 0.98437 0.61696 0.0
C90 C 0.99555 0.93384 0.70018 0.0
C91 C 0.01888 0.96891 0.97 0.0
C92 C 0.01212 0.94694 0.01653 0.0
C93 C 0.99062 0.93565 0.99609 0.0
C94 C 0.98557 0.91325 0.03051 0.0
C95 C 0.00188 0.9017 0.08621 0.0
C96 C 0.02302 0.91336 0.10933 0.0
C97 C 0.02815 0.93578 0.07429 0.0
C98 C 0.04203 0.98564 0.6722 0.0
C99 C 0.00216 0.03286 0.73147 0.0
C100 C 0.98196 0.99553 0.45244 0.0
C101 C 0.97738 0.01865 0.41073 0.0
C102 C 0.98266 0.02258 0.32056 0.0
C103 C 0.98045 0.04533 0.28392 0.0
C104 C 0.97309 0.06449 0.33732 0.0
C105 C 0.96742 0.0602 0.42727 0.0
C106 C 0.96941 0.03754 0.4633 0.0
C107 C 0.95844 0.97882 0.74981 0.0
O108 O 0.9971 0.94485 0.77786 0.0
O109 O 0.99653 0.94549 0.62365 0.0
O110 O 0.03443 0.96617 0.90617 0.0
O111 O 0.00146 0.98298 0.94709 0.0
O112 O 0.04519 0.99572 0.74921 0.0
O113 O 0.02356 0.97329 0.67315 0.0
O114 O 0.99772 0.0226 0.65356 0.0
O115 O 0.00599 0.02058 0.80514 0.0
O116 O 0.96545 0.98779 0.50638 0.0
O117 O 0.00323 0.99302 0.48576 0.0
O118 O 0.9556 0.96979 0.6709 0.0
O119 O 0.97671 0.99156 0.75151 0.0
H120 H 0.97799 0.9438 0.95132 0.0
H121 H 0.96896 0.90485 0.0129 0.0
H122 H 0.03588 0.90484 0.1523 0.0
H123 H 0.0449 0.9441 0.09026 0.0
H124 H 0.98888 0.00818 0.27901 0.0
H125 H 0.98468 0.04795 0.21417 0.0
H126 H 0.96219 0.0745 0.4711 0.0
H127 H 0.9653 0.03492 0.53316 0.0
Ho128 Ho 0.52577 0.01133 0.80531 0.0
Ho129 Ho 0.50657 0.00428 0.61572 0.0
C130 C 0.5622 0.00754 0.63373 0.0
C131 C 0.54784 0.00431 0.9546 0.0
C132 C 0.57184 0.00787 0.99048 0.0
C133 C 0.57755 0.99897 0.07511 0.0
C134 C 0.60028 0.00216 0.11038 0.0
C135 C 0.61773 0.01435 0.06153 0.0
C136 C 0.61189 0.02313 0.97632 0.0
C137 C 0.58916 0.01991 0.94108 0.0
C138 C 0.51765 0.05183 0.71517 0.0
C139 C 0.47015 0.01478 0.77824 0.0
C140 C 0.48356 0.00633 0.46714 0.0
C141 C 0.45826 0.00667 0.44543 0.0
C142 C 0.45049 0.01837 0.36846 0.0
C143 C 0.42642 0.01885 0.34728 0.0
C144 C 0.40982 0.00755 0.40277 0.0
C145 C 0.41765 0.99614 0.48063 0.0
C146 C 0.44169 0.99585 0.50218 0.0
C147 C 0.51483 0.96439 0.70994 0.0
O148 O 0.55925 0.00635 0.72171 0.0
O149 O 0.54412 0.00922 0.5785 0.0
O150 O 0.53571 0.02349 0.93684 0.0
O151 O 0.54579 0.98821 0.89233 0.0
O152 O 0.5171 0.05029 0.80156 0.0
O153 O 0.52562 0.03282 0.68329 0.0
O154 O 0.47468 0.01622 0.69206 0.0
O155 O 0.48681 0.00929 0.83696 0.0
O156 O 0.49164 0.9866 0.5011 0.0
O157 O 0.49145 0.02504 0.50866 0.0
O158 O 0.51868 0.96643 0.62509 0.0
O159 O 0.50577 0.98318 0.73942 0.0
H160 H 0.56438 0.98961 0.11413 0.0
H161 H 0.60406 0.9954 0.17649 0.0
H162 H 0.62497 0.0323 0.93644 0.0
H163 H 0.5851 0.0268 0.87537 0.0
H164 H 0.46305 0.027 0.32452 0.0
H165 H 0.42086 0.0276 0.28644 0.0
H166 H 0.40518 0.98757 0.52504 0.0
H167 H 0.44734 0.98709 0.56289 0.0
Ho168 Ho 0.48277 0.50319 0.77439 0.0
Ho169 Ho 0.49569 0.49658 0.57446 0.0
C170 C 0.4864 0.54891 0.64008 0.0
C171 C 0.48177 0.51658 0.93933 0.0
C172 C 0.48333 0.5391 0.98943 0.0
C173 C 0.50122 0.54208 0.0535 0.0
C174 C 0.50303 0.56321 0.10183 0.0
C175 C 0.48685 0.58177 0.0875 0.0
C176 C 0.46877 0.57858 0.02394 0.0
C177 C 0.46711 0.55757 0.97511 0.0
C178 C 0.44675 0.49322 0.66265 0.0
C179 C 0.48944 0.4507 0.70739 0.0
C180 C 0.49906 0.48399 0.40925 0.0
C181 C 0.49935 0.46169 0.35864 0.0
C182 C 0.48542 0.44225 0.38426 0.0
C183 C 0.48654 0.42104 0.33634 0.0
C184 C 0.50175 0.41883 0.26242 0.0
C185 C 0.5156 0.43843 0.2371 0.0
C186 C 0.51436 0.45965 0.28468 0.0
C187 C 0.53129 0.50884 0.68357 0.0
O188 O 0.48799 0.54057 0.72274 0.0
O189 O 0.48573 0.5348 0.56977 0.0
O190 O 0.46272 0.51306 0.89128 0.0
O191 O 0.5011 0.50967 0.89891 0.0
O192 O 0.44766 0.48533 0.74407 0.0
O193 O 0.464 0.50662 0.64765 0.0
O194 O 0.48921 0.45922 0.62479 0.0
O195 O 0.49021 0.46456 0.7782 0.0
O196 O 0.51741 0.48773 0.46052 0.0
O197 O 0.47904 0.48983 0.44729 0.0
O198 O 0.52934 0.51636 0.60215 0.0
O199 O 0.51505 0.49426 0.70124 0.0
H200 H 0.51391 0.52807 0.06589 0.0
H201 H 0.51733 0.56511 0.14938 0.0
H202 H 0.4557 0.59226 0.01228 0.0
H203 H 0.45306 0.55584 0.92637 0.0
H204 H 0.47372 0.44341 0.44135 0.0
H205 H 0.47536 0.40645 0.35679 0.0
H206 H 0.52778 0.43728 0.18151 0.0
H207 H 0.52534 0.47443 0.26427 0.0
Ho208 Ho 0.01057 0.48763 0.87019 0.0
Ho209 Ho 0.03066 0.50167 0.68363 0.0
C210 C 0.97611 0.50982 0.71865 0.0
C211 C 0.98839 0.48768 0.02115 0.0
C212 C 0.96563 0.49767 0.05092 0.0
C213 C 0.95619 0.51796 0.01008 0.0
C214 C 0.93334 0.52562 0.03108 0.0
C215 C 0.91954 0.51335 0.09432 0.0
C216 C 0.92957 0.49366 0.138 0.0
C217 C 0.95233 0.48582 0.11601 0.0
C218 C 0.01211 0.45286 0.74666 0.0
C219 C 0.06582 0.48019 0.83967 0.0
C220 C 0.04947 0.50131 0.52645 0.0
C221 C 0.07232 0.50402 0.47985 0.0
C222 C 0.08167 0.48458 0.43354 0.0
C223 C 0.10241 0.48689 0.3838 0.0
C224 C 0.11416 0.50879 0.37872 0.0
C225 C 0.10485 0.52829 0.42508 0.0
C226 C 0.08412 0.52594 0.47539 0.0
C227 C 0.02688 0.53721 0.80191 0.0
O228 O 0.98125 0.50841 0.80457 0.0
O229 O 0.99168 0.50382 0.65676 0.0
O230 O 0.98678 0.47048 0.96319 0.0
O231 O 0.00503 0.50287 0.00082 0.0
O232 O 0.01507 0.44914 0.83148 0.0
O233 O 0.00696 0.47421 0.73353 0.0
O234 O 0.06275 0.48663 0.75511 0.0
O235 O 0.04858 0.48059 0.89936 0.0
O236 O 0.04003 0.52019 0.56259 0.0
O237 O 0.04687 0.48228 0.57554 0.0
O238 O 0.02518 0.54008 0.71624 0.0
O239 O 0.03289 0.51619 0.81863 0.0
H240 H 0.96617 0.52749 0.95988 0.0
H241 H 0.92621 0.54065 0.99517 0.0
H242 H 0.91976 0.48409 0.18854 0.0
H243 H 0.95936 0.47019 0.14856 0.0
H244 H 0.07271 0.4676 0.43466 0.0
H245 H 0.10896 0.47164 0.34762 0.0
H246 H 0.11365 0.54533 0.42273 0.0
H247 H 0.07725 0.54132 0.50985 0.0
H248 H 0.14479 0.04051 0.37 0.0
H249 H 0.128 0.98653 0.1738 0.0
H250 H 0.09604 0.97162 0.27099 0.0
H251 H 0.13593 0.00421 0.56173 0.0
H252 H 0.12308 0.02743 0.62841 0.0
H253 H 0.14396 0.03467 0.54182 0.0
H254 H 0.11338 0.06307 0.46971 0.0
H255 H 0.09244 0.05598 0.55634 0.0
H256 H 0.0844 0.05206 0.44096 0.0
H257 H 0.06643 0.96221 0.38944 0.0
H258 H 0.04121 0.95851 0.52303 0.0
H259 H 0.07766 0.01795 0.64455 0.0
C260 C 0.13427 0.02567 0.34713 0.0
C261 C 0.13884 0.01471 0.26416 0.0
C262 C 0.12482 0.9952 0.23706 0.0
C263 C 0.10661 0.98662 0.29173 0.0
C264 C 0.10272 0.9977 0.37338 0.0
C265 C 0.11613 0.01678 0.40115 0.0
C266 C 0.10866 0.02504 0.4931 0.0
C267 C 0.12913 0.02269 0.56021 0.0
C268 C 0.09915 0.05055 0.48979 0.0
C269 C 0.08908 0.0075 0.51295 0.0
C270 C 0.08586 0.992 0.44264 0.0
C271 C 0.06877 0.97424 0.44488 0.0
C272 C 0.05455 0.97229 0.52097 0.0
C273 C 0.05756 0.98795 0.59381 0.0
C274 C 0.0751 0.00571 0.58983 0.0
H275 H 0.49607 0.13738 0.3024 0.0
H276 H 0.55563 0.17888 0.39696 0.0
H277 H 0.55752 0.15424 0.5331 0.0
H278 H 0.46865 0.12562 0.52067 0.0
H279 H 0.46071 0.09569 0.49146 0.0
H280 H 0.4623 0.11818 0.40624 0.0
H281 H 0.49205 0.0924 0.31731 0.0
H282 H 0.49037 0.0699 0.40213 0.0
H283 H 0.51868 0.08216 0.37133 0.0
H284 H 0.55425 0.12389 0.65535 0.0
H285 H 0.54784 0.08818 0.74871 0.0
H286 H 0.49129 0.06594 0.57287 0.0
C287 C 0.50921 0.14155 0.35258 0.0
C288 C 0.52556 0.16018 0.33969 0.0
C289 C 0.54289 0.16473 0.40575 0.0
C290 C 0.54403 0.15091 0.48342 0.0
C291 C 0.52783 0.13249 0.4937 0.0
C292 C 0.51082 0.12768 0.42985 0.0
C293 C 0.49679 0.10567 0.45358 0.0
C294 C 0.47056 0.11166 0.46892 0.0
C295 C 0.49966 0.0864 0.38184 0.0
C296 C 0.50883 0.09866 0.53986 0.0
C297 C 0.52643 0.11456 0.56266 0.0
C298 C 0.54042 0.11141 0.63845 0.0
C299 C 0.53663 0.09121 0.69119 0.0
C300 C 0.51924 0.07441 0.66699 0.0
C301 C 0.50493 0.07839 0.59154 0.0
H302 H 0.38047 0.50836 0.19909 0.0
H303 H 0.33816 0.44666 0.26577 0.0
H304 H 0.35986 0.44267 0.40831 0.0
H305 H 0.4357 0.48627 0.29375 0.0
H306 H 0.44461 0.51522 0.33154 0.0
H307 H 0.42613 0.51235 0.2343 0.0
H308 H 0.39527 0.54038 0.30749 0.0
H309 H 0.41361 0.54288 0.40521 0.0
H310 H 0.38339 0.53302 0.41562 0.0
H311 H 0.38547 0.44658 0.54742 0.0
H312 H 0.41417 0.45707 0.6666 0.0
H313 H 0.43934 0.51573 0.50562 0.0
C314 C 0.37582 0.49393 0.2434 0.0
C315 C 0.35759 0.47786 0.22145 0.0
C316 C 0.35212 0.45915 0.28115 0.0
C317 C 0.36431 0.45677 0.36232 0.0
C318 C 0.38205 0.47309 0.38232 0.0
C319 C 0.38792 0.49117 0.32405 0.0
C320 C 0.40764 0.5064 0.3609 0.0
C321 C 0.42983 0.50496 0.30159 0.0
C322 C 0.39948 0.53219 0.37303 0.0
C323 C 0.41165 0.49436 0.44969 0.0
C324 C 0.39681 0.47514 0.46112 0.0
C325 C 0.39726 0.46152 0.53894 0.0
C326 C 0.41347 0.46763 0.60632 0.0
C327 C 0.42895 0.48709 0.59479 0.0
C328 C 0.42784 0.50062 0.51578 0.0
H329 H 0.97054 0.32707 0.56713 0.0
H330 H 0.97099 0.35782 0.30166 0.0
H331 H 0.98909 0.3942 0.36182 0.0
H332 H 0.95499 0.37763 0.68327 0.0
H333 H 0.97388 0.37254 0.77829 0.0
H334 H 0.96336 0.34787 0.71363 0.0
H335 H 0.00651 0.334 0.68738 0.0
H336 H 0.01719 0.35859 0.75258 0.0
H337 H 0.02773 0.35433 0.64028 0.0
H338 H 0.00033 0.42911 0.45305 0.0
H339 H 0.00863 0.45913 0.56763 0.0
H340 H 0.00538 0.40515 0.77316 0.0
C341 C 0.97491 0.34128 0.52145 0.0
C342 C 0.96933 0.33965 0.42971 0.0
C343 C 0.97522 0.35863 0.37204 0.0
C344 C 0.98549 0.37938 0.4056 0.0
C345 C 0.99023 0.38065 0.49664 0.0
C346 C 0.9856 0.36197 0.55361 0.0
C347 C 0.99161 0.36835 0.64925 0.0
C348 C 0.96965 0.36649 0.70962 0.0
C349 C 0.01197 0.3529 0.68443 0.0
C350 C 0.99938 0.39386 0.63751 0.0
C351 C 0.9984 0.40055 0.54884 0.0
C352 C 0.00207 0.42389 0.52221 0.0
C353 C 0.00692 0.44082 0.5878 0.0
C354 C 0.00864 0.4343 0.67873 0.0
C355 C 0.00501 0.41045 0.70373 0.0
H356 H 0.89362 0.99596 0.21461 0.0
H357 H 0.86147 0.92708 0.17098 0.0
H358 H 0.88706 0.92105 0.03995 0.0
H359 H 0.89687 0.01349 0.99695 0.0
H360 H 0.92538 0.02776 0.00291 0.0
H361 H 0.90734 0.02543 0.10128 0.0
H362 H 0.94149 0.00421 0.18489 0.0
H363 H 0.95977 0.00682 0.08684 0.0
H364 H 0.9548 0.97819 0.1366 0.0
H365 H 0.91098 0.92503 0.90213 0.0
H366 H 0.93431 0.93765 0.77111 0.0
H367 H 0.9527 0.00301 0.90597 0.0
C368 C 0.89237 0.97938 0.17867 0.0
C369 C 0.87551 0.96201 0.20282 0.0
C370 C 0.8743 0.9406 0.15392 0.0
C371 C 0.88879 0.93699 0.07944 0.0
C372 C 0.90472 0.95473 0.0558 0.0
C373 C 0.90697 0.97534 0.1048 0.0
C374 C 0.92448 0.9922 0.06167 0.0
C375 C 0.91281 0.01612 0.03937 0.0
C376 C 0.94643 0.99554 0.12104 0.0
C377 C 0.93053 0.97845 0.97806 0.0
C378 C 0.91917 0.95675 0.97667 0.0
C379 C 0.92036 0.94174 0.90313 0.0
C380 C 0.93342 0.94914 0.82882 0.0
C381 C 0.94519 0.97124 0.82907 0.0
C382 C 0.94403 0.9859 0.90499 0.0
H383 H 0.4961 0.87863 0.12738 0.0
H384 H 0.49461 0.82045 0.93923 0.0
H385 H 0.50521 0.84801 0.81701 0.0
H386 H 0.46726 0.91903 0.98409 0.0
H387 H 0.48348 0.94469 0.02121 0.0
H388 H 0.47911 0.92005 0.09567 0.0
H389 H 0.52446 0.91689 0.1191 0.0
H390 H 0.52897 0.94153 0.04443 0.0
H391 H 0.5436 0.91371 0.02367 0.0
H392 H 0.5151 0.88191 0.71549 0.0
H393 H 0.51897 0.92034 0.63792 0.0
H394 H 0.50959 0.95703 0.88947 0.0
C395 C 0.49853 0.87171 0.06065 0.0
C396 C 0.49504 0.84746 0.04233 0.0
C397 C 0.49748 0.839 0.95413 0.0
C398 C 0.50358 0.85448 0.88464 0.0
C399 C 0.50668 0.8784 0.90449 0.0
C400 C 0.50392 0.88706 0.9901 0.0
C401 C 0.5057 0.91385 0.99176 0.0
C402 C 0.48251 0.92505 0.02513 0.0
C403 C 0.52695 0.92196 0.04808 0.0
C404 C 0.50967 0.91888 0.89369 0.0
C405 C 0.51073 0.89816 0.84489 0.0
C406 C 0.51429 0.89826 0.75296 0.0
C407 C 0.51649 0.92015 0.70954 0.0
C408 C 0.51459 0.94159 0.75783 0.0
C409 C 0.51127 0.94089 0.85109 0.0
H410 H 0.62276 0.50446 0.0872 0.0
H411 H 0.64506 0.57499 0.00786 0.0
H412 H 0.61351 0.57596 0.89411 0.0
H413 H 0.60956 0.48254 0.8749 0.0
H414 H 0.58359 0.46618 0.90784 0.0
H415 H 0.60681 0.47158 0.98742 0.0
H416 H 0.57653 0.49104 0.0943 0.0
H417 H 0.55313 0.48588 0.01489 0.0
H418 H 0.55869 0.51541 0.05531 0.0
H419 H 0.5827 0.56776 0.77971 0.0
H420 H 0.55263 0.55174 0.67652 0.0
H421 H 0.54834 0.48752 0.8347 0.0
C422 C 0.62085 0.52018 0.04637 0.0
C423 C 0.63641 0.53962 0.05591 0.0
C424 C 0.6333 0.55993 0.00172 0.0
C425 C 0.61543 0.56065 0.93702 0.0
C426 C 0.60055 0.54111 0.9286 0.0
C427 C 0.6028 0.52137 0.98251 0.0
C428 C 0.58474 0.50258 0.95823 0.0
C429 C 0.59691 0.47936 0.93042 0.0
C430 C 0.56723 0.49849 0.03527 0.0
C431 C 0.57269 0.51445 0.87978 0.0
C432 C 0.58203 0.53673 0.86426 0.0
C433 C 0.57497 0.55052 0.79196 0.0
C434 C 0.55802 0.54124 0.73354 0.0
C435 C 0.54823 0.51851 0.74831 0.0
C436 C 0.55539 0.5051 0.82296 0.0
H437 H 0.93823 0.63884 0.948 0.0
H438 H 0.96648 0.63326 0.21646 0.0
H439 H 0.99218 0.60021 0.1681 0.0
H440 H 0.9387 0.57532 0.89903 0.0
H441 H 0.94693 0.5799 0.78427 0.0
H442 H 0.92964 0.60191 0.84185 0.0
H443 H 0.96104 0.63386 0.80293 0.0
H444 H 0.97842 0.61197 0.74549 0.0
H445 H 0.9915 0.6291 0.83412 0.0
H446 H 0.01594 0.56845 0.0876 0.0
H447 H 0.0359 0.54139 0.98086 0.0
H448 H 0.99223 0.56901 0.767 0.0
C449 C 0.94966 0.63058 0.99696 0.0
C450 C 0.95036 0.63865 0.08599 0.0
C451 C 0.96564 0.62736 0.14783 0.0
C452 C 0.98026 0.60855 0.12106 0.0
C453 C 0.97929 0.6012 0.03242 0.0
C454 C 0.9643 0.61184 0.97147 0.0
C455 C 0.96713 0.60131 0.87947 0.0
C456 C 0.94424 0.58887 0.84941 0.0
C457 C 0.975 0.62019 0.81154 0.0
C458 C 0.98657 0.58358 0.89746 0.0
C459 C 0.99315 0.58343 0.98622 0.0
C460 C 0.01087 0.56839 0.01801 0.0
C461 C 0.0221 0.55314 0.95723 0.0
C462 C 0.01563 0.55331 0.86617 0.0
C463 C 0.99769 0.56873 0.83626 0.0
H464 H 0.93041 0.19875 0.3344 0.0
H465 H 0.99078 0.21525 0.16712 0.0
H466 H 0.00098 0.17263 0.16003 0.0
H467 H 0.95905 0.15384 0.46344 0.0
H468 H 0.93294 0.13565 0.47232 0.0
H469 H 0.93009 0.16723 0.46017 0.0
H470 H 0.90348 0.16103 0.321 0.0
H471 H 0.90644 0.1294 0.3324 0.0
H472 H 0.91438 0.14364 0.22899 0.0
H473 H 0.0052 0.12808 0.17674 0.0
H474 H 0.00422 0.08593 0.22101 0.0
H475 H 0.94048 0.09906 0.375 0.0
C476 C 0.94579 0.19337 0.29635 0.0
C477 C 0.95948 0.21013 0.2494 0.0
C478 C 0.97959 0.20252 0.20098 0.0
C479 C 0.98561 0.17841 0.19715 0.0
C480 C 0.97141 0.16223 0.24278 0.0
C481 C 0.952 0.16945 0.2919 0.0
C482 C 0.94002 0.14873 0.33721 0.0
C483 C 0.94057 0.15154 0.43931 0.0
C484 C 0.91457 0.14552 0.30281 0.0
C485 C 0.95585 0.12873 0.30683 0.0
C486 C 0.9738 0.13678 0.25211 0.0
C487 C 0.99109 0.12155 0.21887 0.0
C488 C 0.99028 0.09758 0.24391 0.0
C489 C 0.97231 0.0891 0.30182 0.0
C490 C 0.95463 0.10493 0.33161 0.0
H491 H 0.29215 0.05749 0.17926 0.0
H492 H 0.26318 0.98655 0.1985 0.0
H493 H 0.29931 0.97323 0.27735 0.0
H494 H 0.35207 0.04267 0.14361 0.0
H495 H 0.36383 0.06592 0.21271 0.0
H496 H 0.33553 0.06968 0.15935 0.0
H497 H 0.31635 0.07775 0.31347 0.0
H498 H 0.34462 0.07368 0.36713 0.0
H499 H 0.31953 0.05619 0.40147 0.0
H500 H 0.33917 0.96736 0.34752 0.0
H501 H 0.38034 0.96922 0.40289 0.0
H502 H 0.38252 0.04443 0.34384 0.0
C503 C 0.2936 0.03911 0.19928 0.0
C504 C 0.27522 0.02286 0.18165 0.0
C505 C 0.27726 0.99914 0.21107 0.0
C506 C 0.29761 0.99147 0.25607 0.0
C507 C 0.31542 0.00794 0.27287 0.0
C508 C 0.31353 0.03132 0.24617 0.0
C509 C 0.33508 0.04548 0.27365 0.0
C510 C 0.34735 0.05662 0.19241 0.0
C511 C 0.32849 0.06439 0.34306 0.0
C512 C 0.34999 0.02611 0.31495 0.0
C513 C 0.33814 0.00469 0.31551 0.0
C514 C 0.34855 0.98407 0.34822 0.0
C515 C 0.37188 0.98531 0.37975 0.0
C516 C 0.38453 0.00695 0.3774 0.0
C517 C 0.37326 0.02763 0.34582 0.0
H518 H 0.50567 0.27826 0.20566 0.0
H519 H 0.51564 0.28949 0.9219 0.0
H520 H 0.51387 0.33272 0.94528 0.0
H521 H 0.46538 0.32596 0.24964 0.0
H522 H 0.4789 0.33357 0.35466 0.0
H523 H 0.48021 0.30355 0.31472 0.0
H524 H 0.5257 0.30452 0.32926 0.0
H525 H 0.52522 0.33487 0.36585 0.0
H526 H 0.54244 0.3267 0.26993 0.0
H527 H 0.51015 0.37478 0.99965 0.0
H528 H 0.50638 0.41251 0.08135 0.0
H529 H 0.50104 0.37358 0.33059 0.0
C530 C 0.50707 0.2898 0.14815 0.0
C531 C 0.50995 0.28047 0.06145 0.0
C532 C 0.51231 0.29616 0.98826 0.0
C533 C 0.51152 0.32077 0.00101 0.0
C534 C 0.50824 0.32936 0.08719 0.0
C535 C 0.50622 0.31435 0.15959 0.0
C536 C 0.50414 0.32806 0.24591 0.0
C537 C 0.48076 0.32244 0.29402 0.0
C538 C 0.52563 0.32324 0.30631 0.0
C539 C 0.50446 0.35316 0.21049 0.0
C540 C 0.50706 0.35355 0.1189 0.0
C541 C 0.508 0.37472 0.0713 0.0
C542 C 0.50605 0.39606 0.11851 0.0
C543 C 0.50341 0.3961 0.21261 0.0
C544 C 0.50267 0.37425 0.25872 0.0
H545 H 0.23717 0.46583 0.1786 0.0
H546 H 0.23683 0.5278 0.00764 0.0
H547 H 0.19913 0.54087 0.07648 0.0
H548 H 0.17432 0.45512 0.17419 0.0
H549 H 0.17344 0.44537 0.28852 0.0
H550 H 0.20002 0.44139 0.22387 0.0
H551 H 0.22359 0.46476 0.34411 0.0
H552 H 0.19689 0.46922 0.4075 0.0
H553 H 0.21435 0.49434 0.37295 0.0
H554 H 0.16094 0.54653 0.1636 0.0
H555 H 0.12547 0.54411 0.26027 0.0
H556 H 0.1518 0.47851 0.37376 0.0
C557 C 0.22889 0.48183 0.15403 0.0
C558 C 0.2395 0.49551 0.08622 0.0
C559 C 0.22875 0.51698 0.059 0.0
C560 C 0.20741 0.52453 0.09773 0.0
C561 C 0.19733 0.51053 0.16437 0.0
C562 C 0.20779 0.48968 0.1924 0.0
C563 C 0.19363 0.47797 0.26571 0.0
C564 C 0.18485 0.45346 0.23637 0.0
C565 C 0.20798 0.4765 0.35272 0.0
C566 C 0.17335 0.49524 0.27376 0.0
C567 C 0.17579 0.514 0.21521 0.0
C568 C 0.15891 0.53196 0.20991 0.0
C569 C 0.1389 0.5305 0.26524 0.0
C570 C 0.13593 0.51112 0.32433 0.0
C571 C 0.15352 0.49344 0.32879 0.0
H572 H 0.95241 0.76887 0.06272 0.0
H573 H 0.95148 0.77095 0.35121 0.0
H574 H 0.97201 0.80926 0.34844 0.0
H575 H 0.00732 0.80076 0.02247 0.0
H576 H 0.99616 0.81886 0.93308 0.0
H577 H 0.98416 0.78962 0.95113 0.0
H578 H 0.94194 0.8059 0.96562 0.0
H579 H 0.95258 0.83546 0.94497 0.0
H580 H 0.93578 0.82923 0.04431 0.0
H581 H 0.99519 0.84617 0.31491 0.0
H582 H 0.00612 0.88564 0.25737 0.0
H583 H 0.98649 0.86323 0.99099 0.0
C584 C 0.95705 0.77717 0.1254 0.0
C585 C 0.95233 0.7658 0.20781 0.0
C586 C 0.95731 0.77794 0.288 0.0
C587 C 0.96859 0.79999 0.28705 0.0
C588 C 0.97405 0.81021 0.20528 0.0
C589 C 0.96766 0.79967 0.12575 0.0
C590 C 0.97234 0.81619 0.04776 0.0
C591 C 0.99109 0.80572 0.98486 0.0
C592 C 0.94929 0.82203 0.99772 0.0
C593 C 0.98192 0.8377 0.09649 0.0
C594 C 0.98356 0.83348 0.18684 0.0
C595 C 0.99292 0.85018 0.24528 0.0
C596 C 0.99946 0.87237 0.21164 0.0
C597 C 0.99667 0.8776 0.12005 0.0
C598 C 0.98823 0.85984 0.06163 0.0
H599 H 0.73804 0.97802 0.311 0.0
H600 H 0.76491 0.04772 0.24371 0.0
H601 H 0.72657 0.05786 0.17423 0.0
H602 H 0.70544 0.96968 0.10702 0.0
H603 H 0.68134 0.95411 0.15974 0.0
H604 H 0.71061 0.95271 0.20707 0.0
H605 H 0.69408 0.96773 0.35736 0.0
H606 H 0.66475 0.96968 0.31069 0.0
H607 H 0.67814 0.9953 0.36132 0.0
H608 H 0.68562 0.06021 0.10988 0.0
H609 H 0.64518 0.05435 0.05175 0.0
H610 H 0.64504 0.98266 0.15686 0.0
C611 C 0.73577 0.99544 0.2819 0.0
C612 C 0.75421 0.01236 0.2849 0.0
C613 C 0.75074 0.03482 0.24497 0.0
C614 C 0.7291 0.04065 0.20464 0.0
C615 C 0.71114 0.02373 0.20406 0.0
C616 C 0.71424 0.00154 0.24129 0.0
C617 C 0.69229 0.9864 0.22935 0.0
C618 C 0.69775 0.96443 0.17239 0.0
C619 C 0.68169 0.97937 0.32006 0.0
C620 C 0.67635 0.00357 0.17982 0.0
C621 C 0.68758 0.025 0.16598 0.0
C622 C 0.67666 0.04348 0.12015 0.0
C623 C 0.65372 0.03993 0.08684 0.0
C624 C 0.64188 0.01802 0.09927 0.0
C625 C 0.65343 0.99972 0.14707 0.0
H626 H 0.47697 0.72148 0.14733 0.0
H627 H 0.49849 0.71292 0.42322 0.0
H628 H 0.50229 0.6697 0.39967 0.0
H629 H 0.44219 0.66944 0.13213 0.0
H630 H 0.45085 0.66284 0.01928 0.0
H631 H 0.45054 0.69305 0.05736 0.0
H632 H 0.49455 0.69811 0.01291 0.0
H633 H 0.49493 0.66808 0.97321 0.0
H634 H 0.51626 0.67753 0.0551 0.0
H635 H 0.50198 0.62668 0.34513 0.0
H636 H 0.49899 0.58862 0.26418 0.0
H637 H 0.47942 0.62665 0.02364 0.0
C638 C 0.48259 0.71059 0.20296 0.0
C639 C 0.48705 0.72058 0.28759 0.0
C640 C 0.49432 0.70564 0.35848 0.0
C641 C 0.49669 0.68107 0.34549 0.0
C642 C 0.49168 0.67178 0.26137 0.0
C643 C 0.48492 0.68618 0.1913 0.0
C644 C 0.48039 0.67207 0.10744 0.0
C645 C 0.45446 0.6745 0.07732 0.0
C646 C 0.49758 0.67939 0.03281 0.0
C647 C 0.48559 0.64737 0.14098 0.0
C648 C 0.49203 0.64745 0.22989 0.0
C649 C 0.49711 0.62648 0.27533 0.0
C650 C 0.49551 0.60495 0.22857 0.0
C651 C 0.48894 0.60455 0.1372 0.0
C652 C 0.48412 0.62618 0.09344 0.0
H653 H 0.782 0.49337 0.20273 0.0
H654 H 0.77234 0.56903 0.17084 0.0
H655 H 0.81508 0.57356 0.13769 0.0
H656 H 0.83998 0.49274 0.30199 0.0
H657 H 0.84918 0.46737 0.23895 0.0
H658 H 0.8183 0.47158 0.26403 0.0
H659 H 0.81012 0.46822 0.09247 0.0
H660 H 0.84137 0.46549 0.07076 0.0
H661 H 0.82453 0.4886 0.0174 0.0
H662 H 0.85927 0.57006 0.1196 0.0
H663 H 0.901 0.55847 0.09944 0.0
H664 H 0.88118 0.48449 0.12872 0.0
C665 C 0.78896 0.51082 0.1882 0.0
C666 C 0.7741 0.53093 0.18977 0.0
C667 C 0.78356 0.55348 0.16958 0.0
C668 C 0.80777 0.5562 0.15112 0.0
C669 C 0.82208 0.53608 0.15106 0.0
C670 C 0.81297 0.51374 0.1672 0.0
C671 C 0.832 0.49493 0.15902 0.0
C672 C 0.83499 0.48085 0.24621 0.0
C673 C 0.82669 0.47833 0.08022 0.0
C674 C 0.85342 0.5103 0.14021 0.0
C675 C 0.84733 0.53395 0.13586 0.0
C676 C 0.8642 0.55154 0.12141 0.0
C677 C 0.88789 0.54475 0.10967 0.0
C678 C 0.89454 0.52052 0.11172 0.0
C679 C 0.87692 0.50317 0.1277 0.0
H680 H 0.987 0.15674 0.97698 0.0
H681 H 0.97894 0.18921 0.71597 0.0
H682 H 0.9872 0.15059 0.64495 0.0
H683 H 0.03465 0.11583 0.91634 0.0
H684 H 0.02323 0.09277 0.98762 0.0
H685 H 0.01845 0.12341 0.01579 0.0
H686 H 0.97315 0.11553 0.02231 0.0
H687 H 0.97807 0.08503 0.99323 0.0
H688 H 0.95851 0.103 0.92648 0.0
H689 H 0.99438 0.10793 0.60296 0.0
H690 H 0.99944 0.06461 0.59319 0.0
H691 H 0.0024 0.06037 0.88222 0.0
C692 C 0.98721 0.15586 0.90482 0.0
C693 C 0.98236 0.17603 0.85197 0.0
C694 C 0.98267 0.17401 0.75781 0.0
C695 C 0.98738 0.15217 0.71688 0.0
C696 C 0.99186 0.13259 0.77109 0.0
C697 C 0.99187 0.13427 0.86302 0.0
C698 C 0.99627 0.11044 0.90638 0.0
C699 C 0.01954 0.11063 0.95966 0.0
C700 C 0.97524 0.10307 0.96554 0.0
C701 C 0.99824 0.09496 0.82442 0.0
C702 C 0.99586 0.10808 0.74702 0.0
C703 C 0.99639 0.09751 0.66312 0.0
C704 C 0.99918 0.07286 0.65829 0.0
C705 C 0.00123 0.05903 0.73688 0.0
C706 C 0.00105 0.07039 0.8208 0.0
H707 H 0.34552 0.07679 0.72269 0.0
H708 H 0.32972 0.05885 0.99744 0.0
H709 H 0.36655 0.03477 0.00421 0.0
H710 H 0.37318 0.01874 0.66223 0.0
H711 H 0.39429 0.03334 0.59076 0.0
H712 H 0.36522 0.04579 0.60562 0.0
H713 H 0.38473 0.0854 0.65437 0.0
H714 H 0.41367 0.07264 0.64164 0.0
H715 H 0.40514 0.08546 0.74687 0.0
H716 H 0.40853 0.01855 0.98834 0.0
H717 H 0.44935 0.00747 0.94331 0.0
H718 H 0.43558 0.03511 0.67802 0.0
C719 C 0.34951 0.06745 0.78402 0.0
C720 C 0.33482 0.06974 0.85971 0.0
C721 C 0.34064 0.05722 0.93856 0.0
C722 C 0.36154 0.04366 0.94326 0.0
C723 C 0.37612 0.04258 0.86835 0.0
C724 C 0.37001 0.05372 0.7895 0.0
C725 C 0.38903 0.05082 0.71947 0.0
C726 C 0.37987 0.0363 0.63987 0.0
C727 C 0.39871 0.07501 0.68888 0.0
C728 C 0.40727 0.03716 0.77235 0.0
C729 C 0.39962 0.03244 0.85802 0.0
C730 C 0.41447 0.02169 0.92074 0.0
C731 C 0.43766 0.01558 0.89486 0.0
C732 C 0.44565 0.0202 0.80704 0.0
C733 C 0.43002 0.03093 0.74536 0.0
H734 H 0.47682 0.31553 0.56009 0.0
H735 H 0.46951 0.29742 0.84003 0.0
H736 H 0.47436 0.33963 0.87989 0.0
H737 H 0.521 0.36101 0.58422 0.0
H738 H 0.5083 0.37959 0.4988 0.0
H739 H 0.50454 0.34793 0.49389 0.0
H740 H 0.45911 0.3535 0.48607 0.0
H741 H 0.46266 0.38514 0.49271 0.0
H742 H 0.44434 0.36994 0.57267 0.0
H743 H 0.48028 0.38387 0.88874 0.0
H744 H 0.4856 0.42681 0.86628 0.0
H745 H 0.48848 0.4158 0.57972 0.0
C746 C 0.47653 0.32038 0.62997 0.0
C747 C 0.47334 0.3031 0.69719 0.0
C748 C 0.47275 0.3102 0.78767 0.0
C749 C 0.47536 0.33416 0.81089 0.0
C750 C 0.4788 0.35068 0.74295 0.0
C751 C 0.4793 0.34411 0.65429 0.0
C752 C 0.48251 0.36537 0.59381 0.0
C753 C 0.50547 0.36337 0.53947 0.0
C754 C 0.46087 0.36867 0.5327 0.0
C755 C 0.48408 0.38494 0.6623 0.0
C756 C 0.48181 0.37614 0.74791 0.0
C757 C 0.48236 0.39092 0.82212 0.0
C758 C 0.48536 0.41532 0.80851 0.0
C759 C 0.48759 0.42476 0.72116 0.0
C760 C 0.48697 0.40923 0.64736 0.0
H761 H 0.15607 0.40523 0.13364 0.0
H762 H 0.21208 0.42781 0.95534 0.0
H763 H 0.18364 0.45318 0.8738 0.0
H764 H 0.10982 0.40191 0.9805 0.0
H765 H 0.08759 0.41407 0.05348 0.0
H766 H 0.11267 0.39876 0.09972 0.0
H767 H 0.12305 0.43563 0.1955 0.0
H768 H 0.09785 0.45101 0.14988 0.0
H769 H 0.12695 0.46393 0.14188 0.0
H770 H 0.14778 0.4727 0.80271 0.0
H771 H 0.10847 0.48748 0.75595 0.0
H772 H 0.07679 0.45431 0.98839 0.0
C773 C 0.16233 0.4157 0.07781 0.0
C774 C 0.18624 0.41493 0.05166 0.0
C775 C 0.19395 0.42874 0.97821 0.0
C776 C 0.17787 0.44305 0.93113 0.0
C777 C 0.15434 0.44357 0.95929 0.0
C778 C 0.14671 0.43057 0.03199 0.0
C779 C 0.12063 0.43439 0.04964 0.0
C780 C 0.10688 0.41088 0.04554 0.0
C781 C 0.1169 0.44699 0.13952 0.0
C782 C 0.1144 0.45046 0.97233 0.0
C783 C 0.13407 0.45568 0.92114 0.0
C784 C 0.13234 0.46906 0.84316 0.0
C785 C 0.10992 0.47727 0.8169 0.0
C786 C 0.08957 0.4722 0.86881 0.0
C787 C 0.09202 0.4588 0.94791 0.0
H788 H 0.98965 0.80588 0.48373 0.0
H789 H 0.96588 0.77831 0.73838 0.0
H790 H 0.97013 0.81836 0.80407 0.0
H791 H 0.03084 0.84955 0.55024 0.0
H792 H 0.02074 0.87053 0.4679 0.0
H793 H 0.01766 0.83922 0.44816 0.0
H794 H 0.96966 0.84502 0.4299 0.0
H795 H 0.97682 0.87607 0.43964 0.0
H796 H 0.95536 0.8626 0.51271 0.0
H797 H 0.9764 0.86217 0.83932 0.0
H798 H 0.9828 0.90548 0.84062 0.0
H799 H -0.00032 0.90364 0.55853 0.0
C800 C 0.98552 0.80811 0.55351 0.0
C801 C 0.97761 0.78893 0.60594 0.0
C802 C 0.97222 0.79273 0.69707 0.0
C803 C 0.9746 0.81539 0.73495 0.0
C804 C 0.98203 0.83401 0.68041 0.0
C805 C 0.98699 0.83059 0.59129 0.0
C806 C 0.99228 0.85367 0.54435 0.0
C807 C 0.01682 0.85322 0.5 0.0
C808 C 0.97245 0.85971 0.47755 0.0
C809 C 0.99149 0.87049 0.62212 0.0
C810 C 0.98502 0.85899 0.69984 0.0
C811 C 0.98182 0.87127 0.7793 0.0
C812 C 0.9855 0.89586 0.77923 0.0
C813 C 0.99209 0.90791 0.69995 0.0
C814 C 0.99496 0.89496 0.62049 0.0
H815 H 0.6999 0.03965 0.63955 0.0
H816 H 0.69345 0.05293 0.35527 0.0
H817 H 0.65166 0.0405 0.36046 0.0
H818 H 0.66287 0.98875 0.65254 0.0
H819 H 0.64924 0.99692 0.75679 0.0
H820 H 0.67883 0.00676 0.73154 0.0
H821 H 0.6661 0.05024 0.75667 0.0
H822 H 0.63642 0.04071 0.78182 0.0
H823 H 0.64143 0.06212 0.69477 0.0
H824 H 0.61174 0.02442 0.39427 0.0
H825 H 0.57361 0.01223 0.45785 0.0
H826 H 0.60481 0.01154 0.72299 0.0
C827 C 0.68962 0.04011 0.57861 0.0
C828 C 0.69993 0.04706 0.49685 0.0
C829 C 0.6859 0.04768 0.41861 0.0
C830 C 0.66218 0.04053 0.4208 0.0
C831 C 0.65275 0.03312 0.50199 0.0
C832 C 0.6658 0.0334 0.57988 0.0
C833 C 0.65096 0.02568 0.65897 0.0
C834 C 0.66109 0.00319 0.70249 0.0
C835 C 0.64859 0.0459 0.72707 0.0
C836 C 0.62762 0.0207 0.61301 0.0
C837 C 0.62922 0.02483 0.52232 0.0
C838 C 0.61016 0.02137 0.46531 0.0
C839 C 0.58857 0.01433 0.50232 0.0
C840 C 0.5861 0.01109 0.59577 0.0
C841 C 0.60609 0.01384 0.65145 0.0
H842 H 0.47907 0.68273 0.79988 0.0
H843 H 0.457 0.70159 0.53194 0.0
H844 H 0.46309 0.66024 0.48385 0.0
H845 H 0.52369 0.63823 0.74157 0.0
H846 H 0.51533 0.61971 0.8344 0.0
H847 H 0.51182 0.65135 0.84127 0.0
H848 H 0.46695 0.64459 0.87939 0.0
H849 H 0.47105 0.61307 0.86919 0.0
H850 H 0.4489 0.62786 0.80319 0.0
H851 H 0.47041 0.61609 0.46695 0.0
H852 H 0.4761 0.57292 0.4851 0.0
H853 H 0.49167 0.58345 0.76597 0.0
C854 C 0.47589 0.67829 0.73064 0.0
C855 C 0.46832 0.69561 0.66896 0.0
C856 C 0.46385 0.68894 0.57947 0.0
C857 C 0.46706 0.66541 0.5517 0.0
C858 C 0.47474 0.64882 0.61423 0.0
C859 C 0.47898 0.65498 0.70195 0.0
C860 C 0.48538 0.63362 0.75779 0.0
C861 C 0.51054 0.63587 0.79603 0.0
C862 C 0.46698 0.62956 0.83182 0.0
C863 C 0.48407 0.61443 0.68803 0.0
C864 C 0.47806 0.62347 0.60542 0.0
C865 C 0.47527 0.60886 0.53127 0.0
C866 C 0.47854 0.58437 0.54229 0.0
C867 C 0.48431 0.57478 0.62701 0.0
C868 C 0.48728 0.59015 0.7003 0.0
H869 H 0.86618 0.52374 0.38838 0.0
H870 H 0.82162 0.52164 0.6239 0.0
H871 H 0.8572 0.52267 0.71968 0.0
H872 H 0.90894 0.48405 0.47181 0.0
H873 H 0.9339 0.4985 0.42028 0.0
H874 H 0.90504 0.50071 0.37018 0.0
H875 H 0.90787 0.54641 0.37437 0.0
H876 H 0.93677 0.54443 0.42483 0.0
H877 H 0.91368 0.56117 0.47872 0.0
H878 H 0.89694 0.52259 0.7892 0.0
H879 H 0.93859 0.5168 0.82991 0.0
H880 H 0.95796 0.51615 0.54954 0.0
C881 C 0.86399 0.52391 0.46016 0.0
C882 C 0.84128 0.52291 0.49927 0.0
C883 C 0.83895 0.5225 0.59312 0.0
C884 C 0.859 0.52323 0.64786 0.0
C885 C 0.88118 0.52404 0.60742 0.0
C886 C 0.88386 0.52408 0.5158 0.0
C887 C 0.90973 0.52262 0.48966 0.0
C888 C 0.91468 0.50013 0.43479 0.0
C889 C 0.91746 0.545 0.43891 0.0
C890 C 0.92113 0.52138 0.58109 0.0
C891 C 0.90431 0.52276 0.64783 0.0
C892 C 0.9103 0.52155 0.73765 0.0
C893 C 0.93409 0.51828 0.76008 0.0
C894 C 0.9516 0.51592 0.69302 0.0
C895 C 0.94502 0.5179 0.60234 0.0
loop_
_geom_bond_atom_site_label_1
_geom_bond_atom_site_label_2
_geom_bond_distance
_geom_bond_site_symmetry_2
_ccdc_geom_bond_type
O0 Cd1 2.300 . S
O0 C7 1.275 . S
Cd1 O0 2.300 . S
Cd1 O9 2.381 . S
Cd1 O10 2.378 . S
O2 Cd3 2.385 . S
O2 C7 1.255 . S
Cd3 O2 2.385 . S
Cd3 O4 2.317 . S
O4 Cd3 2.317 . S
O4 C5 1.232 . S
C5 O4 1.232 . S
C5 O6 1.218 . S
O6 C5 1.218 . S
C7 O0 1.275 . S
C7 O2 1.255 . S
C8 O9 1.258 . S
C8 O10 1.256 . S
O9 Cd1 2.381 . S
O9 C8 1.258 . S
O10 Cd1 2.378 . S
O10 C8 1.256 . S
O11 Cd12 2.300 1_655 S
O11 C18 1.275 1_655 S
Cd12 O11 2.300 1_455 S
Cd12 O20 2.381 1_455 S
Cd12 O21 2.378 . S
O13 Cd14 2.385 . S
O13 C18 1.255 . S
Cd14 O13 2.385 . S
Cd14 O15 2.317 . S
O15 Cd14 2.317 . S
O15 C16 1.232 . S
C16 O15 1.232 . S
C16 O17 1.218 . S
O17 C16 1.218 . S
C18 O11 1.275 1_455 S
C18 O13 1.255 . S
C19 O20 1.258 1_455 S
C19 O21 1.256 . S
O20 Cd12 2.381 1_655 S
O20 C19 1.258 1_655 S
O21 Cd12 2.378 . S
O21 C19 1.256 . S
O22 Cd23 2.300 1_565 S
O22 C29 1.275 1_565 S
Cd23 O22 2.300 1_545 S
Cd23 O31 2.381 1_545 S
Cd23 O32 2.378 . S
O24 Cd25 2.385 . S
O24 C29 1.255 . S
Cd25 O24 2.385 . S
Cd25 O26 2.317 . S
O26 Cd25 2.317 . S
O26 C27 1.232 . S
C27 O26 1.232 . S
C27 O28 1.218 . S
O28 C27 1.218 . S
C29 O22 1.275 1_545 S
C29 O24 1.255 . S
C30 O31 1.258 1_545 S
C30 O32 1.256 . S
O31 Cd23 2.381 1_565 S
O31 C30 1.258 1_565 S
O32 Cd23 2.378 . S
O32 C30 1.256 . S
O33 Cd34 2.300 . S
O33 C40 1.275 . S
Cd34 O33 2.300 . S
Cd34 O42 2.381 . S
Cd34 O43 2.378 . S
O35 Cd36 2.385 . S
O35 C40 1.255 . S
Cd36 O35 2.385 . S
Cd36 O37 2.317 . S
O37 Cd36 2.317 . S
O37 C38 1.232 . S
C38 O37 1.232 . S
C38 O39 1.218 . S
O39 C38 1.218 . S
C40 O33 1.275 . S
C40 O35 1.255 . S
C41 O42 1.258 . S
C41 O43 1.256 . S
O42 Cd34 2.381 . S
O42 C41 1.258 . S
O43 Cd34 2.378 . S
O43 C41 1.256 . S
O44 Cd45 2.300 . S
O44 C51 1.275 . S
Cd45 O44 2.300 . S
Cd45 O53 2.381 . S
Cd45 O54 2.378 . S
O46 Cd47 2.385 1_554 S
O46 C51 1.255 . S
Cd47 O46 2.385 1_556 S
Cd47 O48 2.317 . S
O48 Cd47 2.317 . S
O48 C49 1.232 . S
C49 O48 1.232 . S
C49 O50 1.218 . S
O50 C49 1.218 . S
C51 O44 1.275 . S
C51 O46 1.255 . S
C52 O53 1.258 . S
C52 O54 1.256 . S
O53 Cd45 2.381 . S
O53 C52 1.258 . S
O54 Cd45 2.378 . S
O54 C52 1.256 . S
O55 Cd56 2.300 1_655 S
O55 C62 1.275 1_655 S
Cd56 O55 2.300 1_455 S
Cd56 O64 2.381 1_455 S
Cd56 O65 2.378 . S
O57 Cd58 2.385 1_554 S
O57 C62 1.255 . S
Cd58 O57 2.385 1_556 S
Cd58 O59 2.317 . S
O59 Cd58 2.317 . S
O59 C60 1.232 . S
C60 O59 1.232 . S
C60 O61 1.218 . S
O61 C60 1.218 . S
C62 O55 1.275 1_455 S
C62 O57 1.255 . S
C63 O64 1.258 1_455 S
C63 O65 1.256 . S
O64 Cd56 2.381 1_655 S
O64 C63 1.258 1_655 S
O65 Cd56 2.378 . S
O65 C63 1.256 . S
O66 Cd67 2.300 1_565 S
O66 C73 1.275 1_565 S
Cd67 O66 2.300 1_545 S
Cd67 O75 2.381 1_545 S
Cd67 O76 2.378 . S
O68 Cd69 2.385 1_554 S
O68 C73 1.255 . S
Cd69 O68 2.385 1_556 S
Cd69 O70 2.317 . S
O70 Cd69 2.317 . S
O70 C71 1.232 . S
C71 O70 1.232 . S
C71 O72 1.218 . S
O72 C71 1.218 . S
C73 O66 1.275 1_545 S
C73 O68 1.255 . S
C74 O75 1.258 1_545 S
C74 O76 1.256 . S
O75 Cd67 2.381 1_565 S
O75 C74 1.258 1_565 S
O76 Cd67 2.378 . S
O76 C74 1.256 . S
O77 Cd78 2.300 . S
O77 C84 1.275 . S
Cd78 O77 2.300 . S
Cd78 O86 2.381 . S
Cd78 O87 2.378 . S
O79 Cd80 2.385 1_554 S
O79 C84 1.255 . S
Cd80 O79 2.385 1_556 S
Cd80 O81 2.317 . S
O81 Cd80 2.317 . S
O81 C82 1.232 . S
C82 O81 1.232 . S
C82 O83 1.218 . S
O83 C82 1.218 . S
C84 O77 1.275 . S
C84 O79 1.255 . S
C85 O86 1.258 . S
C85 O87 1.256 . S
O86 Cd78 2.381 . S
O86 C85 1.258 . S
O87 Cd78 2.378 . S
O87 C85 1.256 . S
Ho88 C91 2.811 . S
Ho88 O108 2.322 . S
Ho88 O110 2.378 . S
Ho88 O111 2.522 . S
Ho88 O112 2.381 . S
Ho88 O113 2.669 1_565 S
Ho88 O115 2.346 1_565 S
Ho88 O119 2.305 1_455 S
Ho89 C100 2.811 . S
Ho89 O109 2.346 1_545 S
Ho89 O113 2.305 1_655 S
Ho89 O114 2.322 . S
Ho89 O116 2.378 . S
Ho89 O117 2.522 1_655 S
Ho89 O118 2.381 . S
Ho89 O119 2.669 1_545 S
C90 O108 1.259 1_655 S
C90 O109 1.268 . S
C91 Ho88 2.811 . S
C91 C92 1.488 . S
C91 O110 1.215 . S
C91 O111 1.286 . S
C92 C91 1.488 . S
C92 C93 1.348 . S
C92 C97 1.413 . S
C93 C92 1.348 . S
C93 C94 1.442 1_556 S
C93 H120 0.930 1_455 S
C94 C93 1.442 1_554 S
C94 C95 1.381 . S
C94 H121 0.931 1_455 S
C95 C94 1.381 . S
C95 C96 1.321 1_554 S
C96 C95 1.321 1_556 S
C96 C97 1.403 . S
C96 H122 0.934 1_556 S
C97 C92 1.413 . S
C97 C96 1.403 . S
C97 H123 0.930 . S
C98 O112 1.293 . S
C98 O113 1.246 1_565 S
C99 O114 1.259 1_455 S
C99 O115 1.268 . S
C100 Ho89 2.811 . S
C100 C101 1.488 . S
C100 O116 1.215 . S
C100 O117 1.286 1_655 S
C101 C100 1.488 . S
C101 C102 1.348 . S
C101 C106 1.413 . S
C102 C101 1.348 . S
C102 C103 1.442 . S
C102 H124 0.930 1_655 S
C103 C102 1.442 . S
C103 C104 1.381 . S
C103 H125 0.931 1_655 S
C104 C103 1.381 . S
C104 C105 1.321 . S
C105 C104 1.321 . S
C105 C106 1.403 . S
C105 H126 0.934 . S
C106 C101 1.413 . S
C106 C105 1.403 . S
C106 H127 0.930 . S
C107 O118 1.275 . S
C107 O119 1.256 1_545 S
O108 Ho88 2.322 . S
O108 C90 1.259 1_455 S
O109 Ho89 2.346 1_565 S
O109 C90 1.268 . S
O110 Ho88 2.378 . S
O110 C91 1.215 . S
O111 Ho88 2.522 . S
O111 C91 1.286 . S
O112 Ho88 2.381 . S
O112 C98 1.293 . S
O113 Ho88 2.669 1_545 S
O113 Ho89 2.305 1_455 S
O113 C98 1.246 1_545 S
O114 Ho89 2.322 . S
O114 C99 1.259 1_655 S
O115 Ho88 2.346 1_545 S
O115 C99 1.268 . S
O116 Ho89 2.378 . S
O116 C100 1.215 . S
O117 Ho89 2.522 1_455 S
O117 C100 1.286 1_455 S
O118 Ho89 2.381 . S
O118 C107 1.275 . S
O119 Ho88 2.305 1_655 S
O119 Ho89 2.669 1_565 S
O119 C107 1.256 1_565 S
H120 C93 0.930 1_655 S
H121 C94 0.931 1_655 S
H122 C96 0.934 1_554 S
H123 C97 0.930 . S
H124 C102 0.930 1_455 S
H125 C103 0.931 1_455 S
H126 C105 0.934 . S
H127 C106 0.930 . S
Ho128 C131 2.811 . S
Ho128 O148 2.322 . S
Ho128 O150 2.378 . S
Ho128 O151 2.523 . S
Ho128 O152 2.381 . S
Ho128 O153 2.669 . S
Ho128 O155 2.346 . S
Ho128 O159 2.305 1_545 S
Ho129 C140 2.811 . S
Ho129 O149 2.346 . S
Ho129 O153 2.305 1_565 S
Ho129 O154 2.322 . S
Ho129 O156 2.378 . S
Ho129 O157 2.521 1_565 S
Ho129 O158 2.381 . S
Ho129 O159 2.669 . S
C130 O148 1.259 1_565 S
C130 O149 1.268 . S
C131 Ho128 2.811 . S
C131 C132 1.488 . S
C131 O150 1.215 . S
C131 O151 1.288 . S
C132 C131 1.488 . S
C132 C133 1.348 . S
C132 C137 1.413 . S
C133 C132 1.348 . S
C133 C134 1.442 1_556 S
C133 H160 0.930 1_545 S
C134 C133 1.442 1_554 S
C134 C135 1.381 . S
C134 H161 0.931 1_545 S
C135 C134 1.381 . S
C135 C136 1.321 1_554 S
C136 C135 1.321 1_556 S
C136 C137 1.403 . S
C136 H162 0.934 1_556 S
C137 C132 1.413 . S
C137 C136 1.403 . S
C137 H163 0.930 . S
C138 O152 1.275 . S
C138 O153 1.256 . S
C139 O154 1.259 1_545 S
C139 O155 1.268 . S
C140 Ho129 2.811 . S
C140 C141 1.488 . S
C140 O156 1.215 . S
C140 O157 1.283 1_565 S
C141 C140 1.488 . S
C141 C142 1.348 . S
C141 C146 1.413 . S
C142 C141 1.348 . S
C142 C143 1.442 . S
C142 H164 0.930 1_565 S
C143 C142 1.442 . S
C143 C144 1.381 . S
C143 H165 0.931 1_565 S
C144 C143 1.381 . S
C144 C145 1.321 . S
C145 C144 1.321 . S
C145 C146 1.403 . S
C145 H166 0.934 . S
C146 C141 1.413 . S
C146 C145 1.403 . S
C146 H167 0.930 . S
C147 O158 1.275 . S
C147 O159 1.256 . S
O148 Ho128 2.322 . S
O148 C130 1.259 1_545 S
O149 Ho129 2.346 . S
O149 C130 1.268 . S
O150 Ho128 2.378 . S
O150 C131 1.215 . S
O151 Ho128 2.523 . S
O151 C131 1.288 . S
O152 Ho128 2.381 . S
O152 C138 1.275 . S
O153 Ho128 2.669 . S
O153 Ho129 2.305 1_545 S
O153 C138 1.256 . S
O154 Ho129 2.322 . S
O154 C139 1.259 1_565 S
O155 Ho128 2.346 . S
O155 C139 1.268 . S
O156 Ho129 2.378 . S
O156 C140 1.215 . S
O157 Ho129 2.521 1_545 S
O157 C140 1.283 1_545 S
O158 Ho129 2.381 . S
O158 C147 1.275 . S
O159 Ho128 2.305 1_565 S
O159 Ho129 2.669 . S
O159 C147 1.256 . S
H160 C133 0.930 1_565 S
H161 C134 0.931 1_565 S
H162 C136 0.934 1_554 S
H163 C137 0.930 . S
H164 C142 0.930 1_545 S
H165 C143 0.931 1_545 S
H166 C145 0.934 . S
H167 C146 0.930 . S
Ho168 C171 2.811 . S
Ho168 O188 2.322 . S
Ho168 O190 2.378 . S
Ho168 O191 2.524 . S
Ho168 O192 2.381 . S
Ho168 O193 2.669 . S
Ho168 O195 2.346 . S
Ho168 O199 2.305 . S
Ho169 C180 2.811 . S
Ho169 O189 2.346 . S
Ho169 O193 2.305 . S
Ho169 O194 2.322 . S
Ho169 O196 2.378 . S
Ho169 O197 2.524 . S
Ho169 O198 2.381 . S
Ho169 O199 2.669 . S
C170 O188 1.259 . S
C170 O189 1.268 . S
C171 Ho168 2.811 . S
C171 C172 1.488 . S
C171 O190 1.215 . S
C171 O191 1.289 . S
C172 C171 1.488 . S
C172 C173 1.348 . S
C172 C177 1.413 . S
C173 C172 1.348 . S
C173 C174 1.442 1_556 S
C173 H200 0.930 . S
C174 C173 1.442 1_554 S
C174 C175 1.381 . S
C174 H201 0.931 . S
C175 C174 1.381 . S
C175 C176 1.321 1_554 S
C176 C175 1.321 1_556 S
C176 C177 1.403 . S
C176 H202 0.934 1_556 S
C177 C172 1.413 . S
C177 C176 1.403 . S
C177 H203 0.930 . S
C178 O192 1.275 . S
C178 O193 1.256 . S
C179 O194 1.259 . S
C179 O195 1.268 . S
C180 Ho169 2.811 . S
C180 C181 1.488 . S
C180 O196 1.215 . S
C180 O197 1.289 . S
C181 C180 1.488 . S
C181 C182 1.348 . S
C181 C186 1.413 . S
C182 C181 1.348 . S
C182 C183 1.442 . S
C182 H204 0.930 . S
C183 C182 1.442 . S
C183 C184 1.381 . S
C183 H205 0.931 . S
C184 C183 1.381 . S
C184 C185 1.321 . S
C185 C184 1.321 . S
C185 C186 1.403 . S
C185 H206 0.934 . S
C186 C181 1.413 . S
C186 C185 1.403 . S
C186 H207 0.930 . S
C187 O198 1.275 . S
C187 O199 1.256 . S
O188 Ho168 2.322 . S
O188 C170 1.259 . S
O189 Ho169 2.346 . S
O189 C170 1.268 . S
O190 Ho168 2.378 . S
O190 C171 1.215 . S
O191 Ho168 2.524 . S
O191 C171 1.289 . S
O192 Ho168 2.381 . S
O192 C178 1.275 . S
O193 Ho168 2.669 . S
O193 Ho169 2.305 . S
O193 C178 1.256 . S
O194 Ho169 2.322 . S
O194 C179 1.259 . S
O195 Ho168 2.346 . S
O195 C179 1.268 . S
O196 Ho169 2.378 . S
O196 C180 1.215 . S
O197 Ho169 2.524 . S
O197 C180 1.289 . S
O198 Ho169 2.381 . S
O198 C187 1.275 . S
O199 Ho168 2.305 . S
O199 Ho169 2.669 . S
O199 C187 1.256 . S
H200 C173 0.930 . S
H201 C174 0.931 . S
H202 C176 0.934 1_554 S
H203 C177 0.930 . S
H204 C182 0.930 . S
H205 C183 0.931 . S
H206 C185 0.934 . S
H207 C186 0.930 . S
Ho208 C211 2.811 . S
Ho208 O228 2.322 . S
Ho208 O230 2.378 . S
Ho208 O231 2.524 . S
Ho208 O232 2.381 . S
Ho208 O233 2.669 1_655 S
Ho208 O235 2.346 1_655 S
Ho208 O239 2.305 . S
Ho209 C220 2.811 . S
Ho209 O229 2.346 1_455 S
Ho209 O233 2.305 . S
Ho209 O234 2.322 . S
Ho209 O236 2.378 . S
Ho209 O237 2.524 . S
Ho209 O238 2.381 . S
Ho209 O239 2.669 1_455 S
C210 O228 1.259 . S
C210 O229 1.268 . S
C211 Ho208 2.811 . S
C211 C212 1.488 . S
C211 O230 1.215 . S
C211 O231 1.289 . S
C212 C211 1.488 . S
C212 C213 1.348 . S
C212 C217 1.413 . S
C213 C212 1.348 . S
C213 C214 1.442 1_556 S
C213 H240 0.930 . S
C214 C213 1.442 1_554 S
C214 C215 1.381 . S
C214 H241 0.931 . S
C215 C214 1.381 . S
C215 C216 1.321 1_554 S
C216 C215 1.321 1_556 S
C216 C217 1.403 . S
C216 H242 0.934 1_556 S
C217 C212 1.413 . S
C217 C216 1.403 . S
C217 H243 0.930 . S
C218 O232 1.295 . S
C218 O233 1.245 1_655 S
C219 O234 1.259 . S
C219 O235 1.268 . S
C220 Ho209 2.811 . S
C220 C221 1.488 . S
C220 O236 1.215 . S
C220 O237 1.289 . S
C221 C220 1.488 . S
C221 C222 1.348 . S
C221 C226 1.413 . S
C222 C221 1.348 . S
C222 C223 1.442 . S
C222 H244 0.930 . S
C223 C222 1.442 . S
C223 C224 1.381 . S
C223 H245 0.931 . S
C224 C223 1.381 . S
C224 C225 1.321 . S
C225 C224 1.321 . S
C225 C226 1.403 . S
C225 H246 0.934 . S
C226 C221 1.413 . S
C226 C225 1.403 . S
C226 H247 0.930 . S
C227 O238 1.275 . S
C227 O239 1.256 1_455 S
O228 Ho208 2.322 . S
O228 C210 1.259 . S
O229 Ho209 2.346 1_655 S
O229 C210 1.268 . S
O230 Ho208 2.378 . S
O230 C211 1.215 . S
O231 Ho208 2.524 . S
O231 C211 1.289 . S
O232 Ho208 2.381 . S
O232 C218 1.295 . S
O233 Ho208 2.669 1_455 S
O233 Ho209 2.305 . S
O233 C218 1.245 1_455 S
O234 Ho209 2.322 . S
O234 C219 1.259 . S
O235 Ho208 2.346 1_455 S
O235 C219 1.268 . S
O236 Ho209 2.378 . S
O236 C220 1.215 . S
O237 Ho209 2.524 . S
O237 C220 1.289 . S
O238 Ho209 2.381 . S
O238 C227 1.275 . S
O239 Ho208 2.305 . S
O239 Ho209 2.669 1_655 S
O239 C227 1.256 1_655 S
H240 C213 0.930 . S
H241 C214 0.931 . S
H242 C216 0.934 1_554 S
H243 C217 0.930 . S
H244 C222 0.930 . S
H245 C223 0.931 . S
H246 C225 0.934 . S
H247 C226 0.930 . S
H248 C260 0.930 . S
H249 C262 0.930 . S
H250 C263 0.930 . S
H251 C267 0.959 . S
H252 C267 0.959 . S
H253 C267 0.961 . S
H254 C268 0.960 . S
H255 C268 0.961 . S
H256 C268 0.959 . S
H257 C271 0.929 . S
H258 C272 0.931 . S
H259 C274 0.930 . S
C260 H248 0.930 . S
C260 C261 1.363 1_545 S
C260 C265 1.399 . S
C261 C260 1.363 1_565 S
C261 C262 1.421 . S
C262 H249 0.930 . S
C262 C261 1.421 . S
C262 C263 1.388 . S
C263 H250 0.930 . S
C263 C262 1.388 . S
C263 C264 1.390 . S
C264 C263 1.390 . S
C264 C265 1.394 1_565 S
C264 C270 1.465 . S
C265 C260 1.399 . S
C265 C264 1.394 1_545 S
C265 C266 1.516 . S
C266 C265 1.516 . S
C266 C267 1.502 . S
C266 C268 1.561 . S
C266 C269 1.526 . S
C267 H251 0.959 . S
C267 H252 0.959 . S
C267 H253 0.961 . S
C267 C266 1.502 . S
C268 H254 0.960 . S
C268 H255 0.961 . S
C268 H256 0.959 . S
C268 C266 1.561 . S
C269 C266 1.526 . S
C269 C270 1.396 1_545 S
C269 C274 1.390 . S
C270 C264 1.465 . S
C270 C269 1.396 1_565 S
C270 C271 1.399 . S
C271 H257 0.929 . S
C271 C270 1.399 . S
C271 C272 1.385 . S
C272 H258 0.931 . S
C272 C271 1.385 . S
C272 C273 1.410 . S
C273 C272 1.410 . S
C273 C274 1.370 1_565 S
C274 H259 0.930 . S
C274 C269 1.390 . S
C274 C273 1.370 1_545 S
H275 C287 0.930 . S
H276 C289 0.930 . S
H277 C290 0.930 . S
H278 C294 0.959 . S
H279 C294 0.959 . S
H280 C294 0.961 . S
H281 C295 0.960 . S
H282 C295 0.961 . S
H283 C295 0.959 . S
H284 C298 0.929 . S
H285 C299 0.931 . S
H286 C301 0.930 . S
C287 H275 0.930 . S
C287 C288 1.399 . S
C287 C292 1.399 . S
C288 C287 1.399 . S
C288 C289 1.376 . S
C289 H276 0.930 . S
C289 C288 1.376 . S
C289 C290 1.388 . S
C290 H277 0.930 . S
C290 C289 1.388 . S
C290 C291 1.390 . S
C291 C290 1.390 . S
C291 C292 1.394 . S
C291 C297 1.465 . S
C292 C287 1.399 . S
C292 C291 1.394 . S
C292 C293 1.516 . S
C293 C292 1.516 . S
C293 C294 1.502 . S
C293 C295 1.561 . S
C293 C296 1.526 . S
C294 H278 0.959 . S
C294 H279 0.959 . S
C294 H280 0.961 . S
C294 C293 1.502 . S
C295 H281 0.960 . S
C295 H282 0.961 . S
C295 H283 0.959 . S
C295 C293 1.561 . S
C296 C293 1.526 . S
C296 C297 1.396 . S
C296 C301 1.390 . S
C297 C291 1.465 . S
C297 C296 1.396 . S
C297 C298 1.399 . S
C298 H284 0.929 . S
C298 C297 1.399 . S
C298 C299 1.385 . S
C299 H285 0.931 . S
C299 C298 1.385 . S
C299 C300 1.389 . S
C300 C299 1.389 . S
C300 C301 1.387 . S
C301 H286 0.930 . S
C301 C296 1.390 . S
C301 C300 1.387 . S
H302 C314 0.930 . S
H303 C316 0.930 . S
H304 C317 0.930 . S
H305 C321 0.959 . S
H306 C321 0.959 . S
H307 C321 0.961 . S
H308 C322 0.960 . S
H309 C322 0.961 . S
H310 C322 0.959 . S
H311 C325 0.929 . S
H312 C326 0.931 . S
H313 C328 0.930 . S
C314 H302 0.930 . S
C314 C315 1.399 . S
C314 C319 1.399 . S
C315 C314 1.399 . S
C315 C316 1.376 . S
C316 H303 0.930 . S
C316 C315 1.376 . S
C316 C317 1.388 . S
C317 H304 0.930 . S
C317 C316 1.388 . S
C317 C318 1.390 . S
C318 C317 1.390 . S
C318 C319 1.394 . S
C318 C324 1.465 . S
C319 C314 1.399 . S
C319 C318 1.394 . S
C319 C320 1.516 . S
C320 C319 1.516 . S
C320 C321 1.502 . S
C320 C322 1.561 . S
C320 C323 1.526 . S
C321 H305 0.959 . S
C321 H306 0.959 . S
C321 H307 0.961 . S
C321 C320 1.502 . S
C322 H308 0.960 . S
C322 H309 0.961 . S
C322 H310 0.959 . S
C322 C320 1.561 . S
C323 C320 1.526 . S
C323 C324 1.396 . S
C323 C328 1.390 . S
C324 C318 1.465 . S
C324 C323 1.396 . S
C324 C325 1.399 . S
C325 H311 0.929 . S
C325 C324 1.399 . S
C325 C326 1.385 . S
C326 H312 0.931 . S
C326 C325 1.385 . S
C326 C327 1.389 . S
C327 C326 1.389 . S
C327 C328 1.387 . S
C328 H313 0.930 . S
C328 C323 1.390 . S
C328 C327 1.387 . S
H329 C341 0.930 . S
H330 C343 0.930 . S
H331 C344 0.930 . S
H332 C348 0.959 . S
H333 C348 0.959 . S
H334 C348 0.961 . S
H335 C349 0.960 . S
H336 C349 0.961 . S
H337 C349 0.959 . S
H338 C352 0.929 . S
H339 C353 0.931 . S
H340 C355 0.930 . S
C341 H329 0.930 . S
C341 C342 1.399 1_655 S
C341 C346 1.399 . S
C342 C341 1.399 1_455 S
C342 C343 1.376 . S
C343 H330 0.930 . S
C343 C342 1.376 . S
C343 C344 1.388 . S
C344 H331 0.930 . S
C344 C343 1.388 . S
C344 C345 1.390 . S
C345 C344 1.390 . S
C345 C346 1.394 1_455 S
C345 C351 1.465 . S
C346 C341 1.399 . S
C346 C345 1.394 1_655 S
C346 C347 1.516 . S
C347 C346 1.516 . S
C347 C348 1.502 . S
C347 C349 1.561 1_655 S
C347 C350 1.525 1_655 S
C348 H332 0.959 . S
C348 H333 0.959 . S
C348 H334 0.961 . S
C348 C347 1.502 . S
C349 H335 0.960 . S
C349 H336 0.961 . S
C349 H337 0.959 . S
C349 C347 1.561 1_455 S
C350 C347 1.525 1_455 S
C350 C351 1.397 . S
C350 C355 1.389 1_455 S
C351 C345 1.465 . S
C351 C350 1.397 . S
C351 C352 1.399 . S
C352 H338 0.929 . S
C352 C351 1.399 . S
C352 C353 1.385 . S
C353 H339 0.931 . S
C353 C352 1.385 . S
C353 C354 1.389 . S
C354 C353 1.389 . S
C354 C355 1.387 1_455 S
C355 H340 0.930 . S
C355 C350 1.389 1_655 S
C355 C354 1.387 1_655 S
H356 C368 0.930 . S
H357 C370 0.930 . S
H358 C371 0.930 . S
H359 C375 0.959 . S
H360 C375 0.959 . S
H361 C375 0.961 . S
H362 C376 0.960 . S
H363 C376 0.961 . S
H364 C376 0.959 1_565 S
H365 C379 0.929 . S
H366 C380 0.931 . S
H367 C382 0.930 . S
C368 H356 0.930 . S
C368 C369 1.399 1_545 S
C368 C373 1.399 . S
C369 C368 1.399 1_565 S
C369 C370 1.376 . S
C370 H357 0.930 . S
C370 C369 1.376 . S
C370 C371 1.388 . S
C371 H358 0.930 . S
C371 C370 1.388 . S
C371 C372 1.390 . S
C372 C371 1.390 . S
C372 C373 1.394 1_565 S
C372 C378 1.470 . S
C373 C368 1.399 . S
C373 C372 1.394 1_545 S
C373 C374 1.516 . S
C374 C373 1.516 . S
C374 C375 1.502 . S
C374 C376 1.561 . S
C374 C377 1.526 . S
C375 H359 0.959 . S
C375 H360 0.959 . S
C375 H361 0.961 . S
C375 C374 1.502 . S
C376 H362 0.960 . S
C376 H363 0.961 . S
C376 H364 0.959 1_545 S
C376 C374 1.561 . S
C377 C374 1.526 . S
C377 C378 1.397 1_545 S
C377 C382 1.390 1_554 S
C378 C372 1.470 . S
C378 C377 1.397 1_565 S
C378 C379 1.394 1_554 S
C379 H365 0.929 . S
C379 C378 1.394 1_556 S
C379 C380 1.385 . S
C380 H366 0.931 . S
C380 C379 1.385 . S
C380 C381 1.389 . S
C381 C380 1.389 . S
C381 C382 1.387 1_565 S
C382 H367 0.930 . S
C382 C377 1.390 1_556 S
C382 C381 1.387 1_545 S
H383 C395 0.930 . S
H384 C397 0.930 . S
H385 C398 0.930 . S
H386 C402 0.959 . S
H387 C402 0.959 . S
H388 C402 0.961 . S
H389 C403 0.960 . S
H390 C403 0.961 . S
H391 C403 0.959 . S
H392 C406 0.929 . S
H393 C407 0.931 . S
H394 C409 0.930 . S
C395 H383 0.930 . S
C395 C396 1.399 . S
C395 C400 1.399 . S
C396 C395 1.399 . S
C396 C397 1.376 . S
C397 H384 0.930 . S
C397 C396 1.376 . S
C397 C398 1.388 . S
C398 H385 0.930 . S
C398 C397 1.388 . S
C398 C399 1.390 . S
C399 C398 1.390 . S
C399 C400 1.394 . S
C399 C405 1.465 1_554 S
C400 C395 1.399 . S
C400 C399 1.394 . S
C400 C401 1.516 . S
C401 C400 1.516 . S
C401 C402 1.502 . S
C401 C403 1.561 . S
C401 C404 1.526 . S
C402 H386 0.959 . S
C402 H387 0.959 . S
C402 H388 0.961 . S
C402 C401 1.502 . S
C403 H389 0.960 . S
C403 H390 0.961 . S
C403 H391 0.959 . S
C403 C401 1.561 . S
C404 C401 1.526 . S
C404 C405 1.396 1_554 S
C404 C409 1.390 1_554 S
C405 C399 1.465 1_556 S
C405 C404 1.396 1_556 S
C405 C406 1.399 . S
C406 H392 0.929 . S
C406 C405 1.399 . S
C406 C407 1.385 . S
C407 H393 0.931 . S
C407 C406 1.385 . S
C407 C408 1.389 . S
C408 C407 1.389 . S
C408 C409 1.387 . S
C409 H394 0.930 . S
C409 C404 1.390 1_556 S
C409 C408 1.387 . S
H410 C422 0.930 . S
H411 C424 0.930 . S
H412 C425 0.930 . S
H413 C429 0.959 . S
H414 C429 0.959 . S
H415 C429 0.961 1_554 S
H416 C430 0.960 . S
H417 C430 0.961 . S
H418 C430 0.959 . S
H419 C433 0.929 1_554 S
H420 C434 0.931 . S
H421 C436 0.930 . S
C422 H410 0.930 . S
C422 C423 1.399 . S
C422 C427 1.399 . S
C423 C422 1.399 . S
C423 C424 1.376 . S
C424 H411 0.930 . S
C424 C423 1.376 . S
C424 C425 1.388 . S
C425 H412 0.930 . S
C425 C424 1.388 . S
C425 C426 1.390 . S
C426 C425 1.390 . S
C426 C427 1.394 . S
C426 C432 1.465 . S
C427 C422 1.399 . S
C427 C426 1.394 . S
C427 C428 1.516 . S
C428 C427 1.516 . S
C428 C429 1.502 1_554 S
C428 C430 1.561 . S
C428 C431 1.526 1_554 S
C429 H413 0.959 . S
C429 H414 0.959 . S
C429 H415 0.961 1_556 S
C429 C428 1.502 1_556 S
C430 H416 0.960 . S
C430 H417 0.961 . S
C430 H418 0.959 . S
C430 C428 1.561 . S
C431 C428 1.526 1_556 S
C431 C432 1.396 1_556 S
C431 C436 1.390 . S
C432 C426 1.465 . S
C432 C431 1.396 1_554 S
C432 C433 1.399 1_554 S
C433 H419 0.929 1_556 S
C433 C432 1.399 1_556 S
C433 C434 1.385 . S
C434 H420 0.931 . S
C434 C433 1.385 . S
C434 C435 1.389 . S
C435 C434 1.389 . S
C435 C436 1.387 . S
C436 H421 0.930 . S
C436 C431 1.390 . S
C436 C435 1.387 . S
H437 C449 0.930 . S
H438 C451 0.930 . S
H439 C452 0.930 . S
H440 C456 0.959 . S
H441 C456 0.959 . S
H442 C456 0.961 . S
H443 C457 0.960 . S
H444 C457 0.961 . S
H445 C457 0.959 1_556 S
H446 C460 0.929 . S
H447 C461 0.931 . S
H448 C463 0.930 . S
C449 H437 0.930 . S
C449 C450 1.399 1_655 S
C449 C454 1.399 . S
C450 C449 1.399 1_455 S
C450 C451 1.376 . S
C451 H438 0.930 . S
C451 C450 1.376 . S
C451 C452 1.388 . S
C452 H439 0.930 . S
C452 C451 1.388 . S
C452 C453 1.390 . S
C453 C452 1.390 . S
C453 C454 1.394 1_455 S
C453 C459 1.465 1_554 S
C454 C449 1.399 . S
C454 C453 1.394 1_655 S
C454 C455 1.516 . S
C455 C454 1.516 . S
C455 C456 1.502 . S
C455 C457 1.561 . S
C455 C458 1.526 1_554 S
C456 H440 0.959 . S
C456 H441 0.959 . S
C456 H442 0.961 . S
C456 C455 1.502 . S
C457 H443 0.960 . S
C457 H444 0.961 . S
C457 H445 0.959 1_554 S
C457 C455 1.561 . S
C458 C455 1.526 1_556 S
C458 C459 1.396 1_655 S
C458 C463 1.390 . S
C459 C453 1.465 1_556 S
C459 C458 1.396 1_455 S
C459 C460 1.399 . S
C460 H446 0.929 . S
C460 C459 1.399 . S
C460 C461 1.385 . S
C461 H447 0.931 . S
C461 C460 1.385 . S
C461 C462 1.415 . S
C462 C461 1.415 . S
C462 C463 1.366 1_455 S
C463 H448 0.930 . S
C463 C458 1.390 . S
C463 C462 1.366 1_655 S
H464 C476 0.930 . S
H465 C478 0.930 . S
H466 C479 0.930 . S
H467 C483 0.959 . S
H468 C483 0.959 . S
H469 C483 0.961 . S
H470 C484 0.960 . S
H471 C484 0.961 . S
H472 C484 0.959 . S
H473 C487 0.955 . S
H474 C488 0.931 . S
H475 C490 0.930 . S
C476 H464 0.930 . S
C476 C477 1.399 1_655 S
C476 C481 1.399 . S
C477 C476 1.399 1_455 S
C477 C478 1.376 . S
C478 H465 0.930 . S
C478 C477 1.376 . S
C478 C479 1.388 . S
C479 H466 0.930 . S
C479 C478 1.388 . S
C479 C480 1.390 1_455 S
C480 C479 1.390 1_655 S
C480 C481 1.394 . S
C480 C486 1.465 . S
C481 C476 1.399 . S
C481 C480 1.394 . S
C481 C482 1.516 . S
C482 C481 1.516 . S
C482 C483 1.502 . S
C482 C484 1.561 . S
C482 C485 1.526 . S
C483 H467 0.959 . S
C483 H468 0.959 . S
C483 H469 0.961 . S
C483 C482 1.502 . S
C484 H470 0.960 . S
C484 H471 0.961 . S
C484 H472 0.959 . S
C484 C482 1.561 . S
C485 C482 1.526 . S
C485 C486 1.396 . S
C485 C490 1.390 . S
C486 C480 1.465 . S
C486 C485 1.396 . S
C486 C487 1.387 1_655 S
C487 H473 0.955 . S
C487 C486 1.387 1_455 S
C487 C488 1.371 1_455 S
C488 H474 0.931 . S
C488 C487 1.371 1_655 S
C488 C489 1.389 . S
C489 C488 1.389 . S
C489 C490 1.387 . S
C490 H475 0.930 . S
C490 C485 1.390 . S
C490 C489 1.387 . S
H491 C503 0.930 . S
H492 C505 0.930 . S
H493 C506 0.930 . S
H494 C510 0.959 . S
H495 C510 0.959 . S
H496 C510 0.961 . S
H497 C511 0.960 . S
H498 C511 0.961 . S
H499 C511 0.959 1_565 S
H500 C514 0.929 . S
H501 C515 0.931 . S
H502 C517 0.930 . S
C503 H491 0.930 . S
C503 C504 1.376 1_545 S
C503 C508 1.394 1_545 S
C504 C503 1.376 1_565 S
C504 C505 1.421 . S
C505 H492 0.930 . S
C505 C504 1.421 . S
C505 C506 1.388 . S
C506 H493 0.930 . S
C506 C505 1.388 . S
C506 C507 1.390 . S
C507 C506 1.390 . S
C507 C508 1.403 . S
C507 C513 1.465 . S
C508 C503 1.394 1_565 S
C508 C507 1.403 . S
C508 C509 1.513 1_565 S
C509 C508 1.513 1_545 S
C509 C510 1.502 . S
C509 C511 1.561 . S
C509 C512 1.526 1_545 S
C510 H494 0.959 . S
C510 H495 0.959 . S
C510 H496 0.961 . S
C510 C509 1.502 . S
C511 H497 0.960 . S
C511 H498 0.961 . S
C511 H499 0.959 1_545 S
C511 C509 1.561 . S
C512 C509 1.526 1_565 S
C512 C513 1.396 . S
C512 C517 1.390 . S
C513 C507 1.465 . S
C513 C512 1.396 . S
C513 C514 1.399 . S
C514 H500 0.929 . S
C514 C513 1.399 . S
C514 C515 1.385 . S
C515 H501 0.931 . S
C515 C514 1.385 . S
C515 C516 1.389 . S
C516 C515 1.389 . S
C516 C517 1.387 . S
C517 H502 0.930 . S
C517 C512 1.390 . S
C517 C516 1.387 . S
H518 C530 0.930 . S
H519 C532 0.930 . S
H520 C533 0.930 . S
H521 C537 0.959 . S
H522 C537 0.959 . S
H523 C537 0.961 . S
H524 C538 0.960 . S
H525 C538 0.961 . S
H526 C538 0.959 . S
H527 C541 0.929 . S
H528 C542 0.931 . S
H529 C544 0.930 . S
C530 H518 0.930 . S
C530 C531 1.399 . S
C530 C535 1.399 . S
C531 C530 1.399 . S
C531 C532 1.376 . S
C532 H519 0.930 . S
C532 C531 1.376 . S
C532 C533 1.388 . S
C533 H520 0.930 . S
C533 C532 1.388 . S
C533 C534 1.390 . S
C534 C533 1.390 . S
C534 C535 1.394 . S
C534 C540 1.465 . S
C535 C530 1.399 . S
C535 C534 1.394 . S
C535 C536 1.516 . S
C536 C535 1.516 . S
C536 C537 1.502 . S
C536 C538 1.561 . S
C536 C539 1.526 . S
C537 H521 0.959 . S
C537 H522 0.959 . S
C537 H523 0.961 . S
C537 C536 1.502 . S
C538 H524 0.960 . S
C538 H525 0.961 . S
C538 H526 0.959 . S
C538 C536 1.561 . S
C539 C536 1.526 . S
C539 C540 1.396 . S
C539 C544 1.390 . S
C540 C534 1.465 . S
C540 C539 1.396 . S
C540 C541 1.399 . S
C541 H527 0.929 . S
C541 C540 1.399 . S
C541 C542 1.385 . S
C542 H528 0.931 . S
C542 C541 1.385 . S
C542 C543 1.389 . S
C543 C542 1.389 . S
C543 C544 1.387 . S
C544 H529 0.930 . S
C544 C539 1.390 . S
C544 C543 1.387 . S
H545 C557 0.930 . S
H546 C559 0.930 . S
H547 C560 0.930 . S
H548 C564 0.959 . S
H549 C564 0.959 . S
H550 C564 0.961 . S
H551 C565 0.960 . S
H552 C565 0.961 . S
H553 C565 0.959 . S
H554 C568 0.929 . S
H555 C569 0.931 . S
H556 C571 0.930 . S
C557 H545 0.930 . S
C557 C558 1.399 . S
C557 C562 1.399 . S
C558 C557 1.399 . S
C558 C559 1.376 . S
C559 H546 0.930 . S
C559 C558 1.376 . S
C559 C560 1.388 . S
C560 H547 0.930 . S
C560 C559 1.388 . S
C560 C561 1.390 . S
C561 C560 1.390 . S
C561 C562 1.394 . S
C561 C567 1.465 . S
C562 C557 1.399 . S
C562 C561 1.394 . S
C562 C563 1.516 . S
C563 C562 1.516 . S
C563 C564 1.502 . S
C563 C565 1.561 . S
C563 C566 1.526 . S
C564 H548 0.959 . S
C564 H549 0.959 . S
C564 H550 0.961 . S
C564 C563 1.502 . S
C565 H551 0.960 . S
C565 H552 0.961 . S
C565 H553 0.959 . S
C565 C563 1.561 . S
C566 C563 1.526 . S
C566 C567 1.396 . S
C566 C571 1.390 . S
C567 C561 1.465 . S
C567 C566 1.396 . S
C567 C568 1.399 . S
C568 H554 0.929 . S
C568 C567 1.399 . S
C568 C569 1.385 . S
C569 H555 0.931 . S
C569 C568 1.385 . S
C569 C570 1.389 . S
C570 C569 1.389 . S
C570 C571 1.387 . S
C571 H556 0.930 . S
C571 C566 1.390 . S
C571 C570 1.387 . S
H572 C584 0.930 . S
H573 C586 0.930 . S
H574 C587 0.930 . S
H575 C591 0.959 . S
H576 C591 0.959 1_556 S
H577 C591 0.961 . S
H578 C592 0.960 . S
H579 C592 0.961 . S
H580 C592 0.959 1_655 S
H581 C595 0.929 . S
H582 C596 0.931 . S
H583 C598 0.930 1_556 S
C584 H572 0.930 . S
C584 C585 1.399 1_455 S
C584 C589 1.399 . S
C585 C584 1.399 1_655 S
C585 C586 1.376 . S
C586 H573 0.930 . S
C586 C585 1.376 . S
C586 C587 1.388 . S
C587 H574 0.930 . S
C587 C586 1.388 . S
C587 C588 1.390 1_655 S
C588 C587 1.390 1_455 S
C588 C589 1.394 . S
C588 C594 1.465 . S
C589 C584 1.399 . S
C589 C588 1.394 . S
C589 C590 1.516 . S
C590 C589 1.516 . S
C590 C591 1.502 . S
C590 C592 1.561 1_554 S
C590 C593 1.526 . S
C591 H575 0.959 . S
C591 H576 0.959 1_554 S
C591 H577 0.961 . S
C591 C590 1.502 . S
C592 H578 0.960 . S
C592 H579 0.961 . S
C592 H580 0.959 1_455 S
C592 C590 1.561 1_556 S
C593 C590 1.526 . S
C593 C594 1.396 . S
C593 C598 1.390 . S
C594 C588 1.465 . S
C594 C593 1.396 . S
C594 C595 1.399 . S
C595 H581 0.929 . S
C595 C594 1.399 . S
C595 C596 1.385 . S
C596 H582 0.931 . S
C596 C595 1.385 . S
C596 C597 1.389 . S
C597 C596 1.389 . S
C597 C598 1.387 . S
C598 H583 0.930 1_554 S
C598 C593 1.390 . S
C598 C597 1.387 . S
H599 C611 0.930 . S
H600 C613 0.930 . S
H601 C614 0.930 . S
H602 C618 0.959 1_556 S
H603 C618 0.959 1_556 S
H604 C618 0.961 . S
H605 C619 0.960 . S
H606 C619 0.961 . S
H607 C619 0.959 . S
H608 C622 0.929 . S
H609 C623 0.931 . S
H610 C625 0.930 . S
C611 H599 0.930 . S
C611 C612 1.391 1_565 S
C611 C616 1.410 . S
C612 C611 1.391 1_545 S
C612 C613 1.392 . S
C613 H600 0.930 . S
C613 C612 1.392 . S
C613 C614 1.388 . S
C614 H601 0.930 . S
C614 C613 1.388 . S
C614 C615 1.390 . S
C615 C614 1.390 . S
C615 C616 1.370 1_545 S
C615 C621 1.465 . S
C616 C611 1.410 . S
C616 C615 1.370 1_565 S
C616 C617 1.525 . S
C617 C616 1.525 . S
C617 C618 1.502 . S
C617 C619 1.561 . S
C617 C620 1.526 1_565 S
C618 H602 0.959 1_554 S
C618 H603 0.959 1_554 S
C618 H604 0.961 . S
C618 C617 1.502 . S
C619 H605 0.960 . S
C619 H606 0.961 . S
C619 H607 0.959 . S
C619 C617 1.561 . S
C620 C617 1.526 1_545 S
C620 C621 1.396 . S
C620 C625 1.390 . S
C621 C615 1.465 . S
C621 C620 1.396 . S
C621 C622 1.399 . S
C622 H608 0.929 . S
C622 C621 1.399 . S
C622 C623 1.385 . S
C623 H609 0.931 . S
C623 C622 1.385 . S
C623 C624 1.389 . S
C624 C623 1.389 . S
C624 C625 1.387 . S
C625 H610 0.930 . S
C625 C620 1.390 . S
C625 C624 1.387 . S
H626 C638 0.930 . S
H627 C640 0.930 . S
H628 C641 0.930 . S
H629 C645 0.959 . S
H630 C645 0.959 1_556 S
H631 C645 0.961 . S
H632 C646 0.960 . S
H633 C646 0.961 . S
H634 C646 0.959 . S
H635 C649 0.929 . S
H636 C650 0.931 . S
H637 C652 0.930 1_556 S
C638 H626 0.930 . S
C638 C639 1.399 . S
C638 C643 1.399 . S
C639 C638 1.399 . S
C639 C640 1.376 . S
C640 H627 0.930 . S
C640 C639 1.376 . S
C640 C641 1.388 . S
C641 H628 0.930 . S
C641 C640 1.388 . S
C641 C642 1.390 . S
C642 C641 1.390 . S
C642 C643 1.394 . S
C642 C648 1.465 . S
C643 C638 1.399 . S
C643 C642 1.394 . S
C643 C644 1.516 . S
C644 C643 1.516 . S
C644 C645 1.502 . S
C644 C646 1.561 1_554 S
C644 C647 1.526 . S
C645 H629 0.959 . S
C645 H630 0.959 1_554 S
C645 H631 0.961 . S
C645 C644 1.502 . S
C646 H632 0.960 . S
C646 H633 0.961 . S
C646 H634 0.959 . S
C646 C644 1.561 1_556 S
C647 C644 1.526 . S
C647 C648 1.396 . S
C647 C652 1.390 . S
C648 C642 1.465 . S
C648 C647 1.396 . S
C648 C649 1.399 . S
C649 H635 0.929 . S
C649 C648 1.399 . S
C649 C650 1.385 . S
C650 H636 0.931 . S
C650 C649 1.385 . S
C650 C651 1.389 . S
C651 C650 1.389 . S
C651 C652 1.387 . S
C652 H637 0.930 1_554 S
C652 C647 1.390 . S
C652 C651 1.387 . S
H653 C665 0.930 . S
H654 C667 0.930 . S
H655 C668 0.930 . S
H656 C672 0.959 . S
H657 C672 0.959 . S
H658 C672 0.961 . S
H659 C673 0.960 . S
H660 C673 0.961 . S
H661 C673 0.959 . S
H662 C676 0.929 . S
H663 C677 0.931 . S
H664 C679 0.930 . S
C665 H653 0.930 . S
C665 C666 1.399 . S
C665 C670 1.399 . S
C666 C665 1.399 . S
C666 C667 1.376 . S
C667 H654 0.930 . S
C667 C666 1.376 . S
C667 C668 1.388 . S
C668 H655 0.930 . S
C668 C667 1.388 . S
C668 C669 1.390 . S
C669 C668 1.390 . S
C669 C670 1.394 . S
C669 C675 1.465 . S
C670 C665 1.399 . S
C670 C669 1.394 . S
C670 C671 1.516 . S
C671 C670 1.516 . S
C671 C672 1.502 . S
C671 C673 1.561 . S
C671 C674 1.526 . S
C672 H656 0.959 . S
C672 H657 0.959 . S
C672 H658 0.961 . S
C672 C671 1.502 . S
C673 H659 0.960 . S
C673 H660 0.961 . S
C673 H661 0.959 . S
C673 C671 1.561 . S
C674 C671 1.526 . S
C674 C675 1.396 . S
C674 C679 1.390 . S
C675 C669 1.465 . S
C675 C674 1.396 . S
C675 C676 1.399 . S
C676 H662 0.929 . S
C676 C675 1.399 . S
C676 C677 1.385 . S
C677 H663 0.931 . S
C677 C676 1.385 . S
C677 C678 1.389 . S
C678 C677 1.389 . S
C678 C679 1.387 . S
C679 H664 0.930 . S
C679 C674 1.390 . S
C679 C678 1.387 . S
H680 C692 0.930 . S
H681 C694 0.930 . S
H682 C695 0.930 . S
H683 C699 0.959 . S
H684 C699 0.959 . S
H685 C699 0.961 . S
H686 C700 0.960 1_554 S
H687 C700 0.961 1_554 S
H688 C700 0.959 . S
H689 C703 0.940 . S
H690 C704 0.931 . S
H691 C706 0.930 . S
C692 H680 0.930 . S
C692 C693 1.407 . S
C692 C697 1.399 . S
C693 C692 1.407 . S
C693 C694 1.368 1_455 S
C694 H681 0.930 . S
C694 C693 1.368 1_655 S
C694 C695 1.388 . S
C695 H682 0.930 . S
C695 C694 1.388 . S
C695 C696 1.389 1_655 S
C696 C695 1.389 1_455 S
C696 C697 1.394 . S
C696 C702 1.465 . S
C697 C692 1.399 . S
C697 C696 1.394 . S
C697 C698 1.516 . S
C698 C697 1.516 . S
C698 C699 1.502 . S
C698 C700 1.561 1_455 S
C698 C701 1.526 . S
C699 H683 0.959 . S
C699 H684 0.959 . S
C699 H685 0.961 . S
C699 C698 1.502 . S
C700 H686 0.960 1_556 S
C700 H687 0.961 1_556 S
C700 H688 0.959 . S
C700 C698 1.561 1_655 S
C701 C698 1.526 . S
C701 C702 1.396 . S
C701 C706 1.390 . S
C702 C696 1.465 . S
C702 C701 1.396 . S
C702 C703 1.395 1_455 S
C703 H689 0.940 . S
C703 C702 1.395 1_655 S
C703 C704 1.380 1_655 S
C704 H690 0.931 . S
C704 C703 1.380 1_455 S
C704 C705 1.389 . S
C705 C704 1.389 . S
C705 C706 1.387 . S
C706 H691 0.930 . S
C706 C701 1.390 . S
C706 C705 1.387 . S
H707 C719 0.931 . S
H708 C721 0.930 . S
H709 C722 0.930 . S
H710 C726 0.959 . S
H711 C726 0.959 . S
H712 C726 0.961 . S
H713 C727 0.960 . S
H714 C727 0.961 . S
H715 C727 0.959 . S
H716 C730 0.929 . S
H717 C731 0.931 . S
H718 C733 0.930 . S
C719 H707 0.931 . S
C719 C720 1.399 . S
C719 C724 1.399 . S
C720 C719 1.399 . S
C720 C721 1.376 . S
C721 H708 0.930 . S
C721 C720 1.376 . S
C721 C722 1.388 . S
C722 H709 0.930 . S
C722 C721 1.388 . S
C722 C723 1.390 . S
C723 C722 1.390 . S
C723 C724 1.394 . S
C723 C729 1.465 . S
C724 C719 1.399 . S
C724 C723 1.394 . S
C724 C725 1.516 . S
C725 C724 1.516 . S
C725 C726 1.502 1_545 S
C725 C727 1.561 . S
C725 C728 1.526 . S
C726 H710 0.959 . S
C726 H711 0.959 . S
C726 H712 0.961 . S
C726 C725 1.502 1_565 S
C727 H713 0.960 . S
C727 H714 0.961 . S
C727 H715 0.959 . S
C727 C725 1.561 . S
C728 C725 1.526 . S
C728 C729 1.396 . S
C728 C733 1.390 . S
C729 C723 1.465 . S
C729 C728 1.396 . S
C729 C730 1.399 . S
C730 H716 0.929 . S
C730 C729 1.399 . S
C730 C731 1.385 . S
C731 H717 0.931 . S
C731 C730 1.385 . S
C731 C732 1.389 . S
C732 C731 1.389 . S
C732 C733 1.387 . S
C733 H718 0.930 . S
C733 C728 1.390 . S
C733 C732 1.387 . S
H734 C746 0.930 . S
H735 C748 0.930 . S
H736 C749 0.930 . S
H737 C753 0.959 . S
H738 C753 0.959 . S
H739 C753 0.961 . S
H740 C754 0.960 . S
H741 C754 0.961 . S
H742 C754 0.959 . S
H743 C757 0.929 . S
H744 C758 0.931 . S
H745 C760 0.930 . S
C746 H734 0.930 . S
C746 C747 1.399 . S
C746 C751 1.399 . S
C747 C746 1.399 . S
C747 C748 1.376 . S
C748 H735 0.930 . S
C748 C747 1.376 . S
C748 C749 1.388 . S
C749 H736 0.930 . S
C749 C748 1.388 . S
C749 C750 1.390 . S
C750 C749 1.390 . S
C750 C751 1.394 . S
C750 C756 1.465 . S
C751 C746 1.399 . S
C751 C750 1.394 . S
C751 C752 1.516 . S
C752 C751 1.516 . S
C752 C753 1.502 . S
C752 C754 1.561 . S
C752 C755 1.526 . S
C753 H737 0.959 . S
C753 H738 0.959 . S
C753 H739 0.961 . S
C753 C752 1.502 . S
C754 H740 0.960 . S
C754 H741 0.961 . S
C754 H742 0.959 . S
C754 C752 1.561 . S
C755 C752 1.526 . S
C755 C756 1.396 . S
C755 C760 1.390 . S
C756 C750 1.465 . S
C756 C755 1.396 . S
C756 C757 1.399 . S
C757 H743 0.929 . S
C757 C756 1.399 . S
C757 C758 1.385 . S
C758 H744 0.931 . S
C758 C757 1.385 . S
C758 C759 1.389 . S
C759 C758 1.389 . S
C759 C760 1.387 . S
C760 H745 0.930 . S
C760 C755 1.390 . S
C760 C759 1.387 . S
H761 C773 0.930 . S
H762 C775 0.930 . S
H763 C776 0.930 . S
H764 C780 0.959 . S
H765 C780 0.959 . S
H766 C780 0.961 . S
H767 C781 0.960 . S
H768 C781 0.961 . S
H769 C781 0.959 . S
H770 C784 0.929 . S
H771 C785 0.931 . S
H772 C787 0.930 . S
C773 H761 0.930 . S
C773 C774 1.399 . S
C773 C778 1.399 . S
C774 C773 1.399 . S
C774 C775 1.376 . S
C775 H762 0.930 . S
C775 C774 1.376 . S
C775 C776 1.388 . S
C776 H763 0.930 . S
C776 C775 1.388 . S
C776 C777 1.390 . S
C777 C776 1.390 . S
C777 C778 1.394 . S
C777 C783 1.465 . S
C778 C773 1.399 . S
C778 C777 1.394 . S
C778 C779 1.516 . S
C779 C778 1.516 . S
C779 C780 1.502 . S
C779 C781 1.561 . S
C779 C782 1.526 . S
C780 H764 0.959 . S
C780 H765 0.959 . S
C780 H766 0.961 . S
C780 C779 1.502 . S
C781 H767 0.960 . S
C781 H768 0.961 . S
C781 H769 0.959 . S
C781 C779 1.561 . S
C782 C779 1.526 . S
C782 C783 1.396 . S
C782 C787 1.390 . S
C783 C777 1.465 . S
C783 C782 1.396 . S
C783 C784 1.399 . S
C784 H770 0.929 . S
C784 C783 1.399 . S
C784 C785 1.385 . S
C785 H771 0.931 . S
C785 C784 1.385 . S
C785 C786 1.389 . S
C786 C785 1.389 . S
C786 C787 1.387 . S
C787 H772 0.930 . S
C787 C782 1.390 . S
C787 C786 1.387 . S
H788 C800 0.930 . S
H789 C802 0.930 . S
H790 C803 0.930 . S
H791 C807 0.959 . S
H792 C807 0.959 . S
H793 C807 0.961 . S
H794 C808 0.960 . S
H795 C808 0.961 . S
H796 C808 0.959 . S
H797 C811 0.929 . S
H798 C812 0.931 . S
H799 C814 0.930 1_455 S
C800 H788 0.930 . S
C800 C801 1.399 1_455 S
C800 C805 1.399 1_455 S
C801 C800 1.399 1_655 S
C801 C802 1.376 . S
C802 H789 0.930 . S
C802 C801 1.376 . S
C802 C803 1.388 . S
C803 H790 0.930 . S
C803 C802 1.388 . S
C803 C804 1.390 . S
C804 C803 1.390 . S
C804 C805 1.394 . S
C804 C810 1.465 . S
C805 C800 1.399 1_655 S
C805 C804 1.394 . S
C805 C806 1.516 1_655 S
C806 C805 1.516 1_455 S
C806 C807 1.502 . S
C806 C808 1.561 1_455 S
C806 C809 1.526 1_455 S
C807 H791 0.959 . S
C807 H792 0.959 . S
C807 H793 0.961 . S
C807 C806 1.502 . S
C808 H794 0.960 . S
C808 H795 0.961 . S
C808 H796 0.959 . S
C808 C806 1.561 1_655 S
C809 C806 1.526 1_655 S
C809 C810 1.396 . S
C809 C814 1.390 . S
C810 C804 1.465 . S
C810 C809 1.396 . S
C810 C811 1.399 . S
C811 H797 0.929 . S
C811 C810 1.399 . S
C811 C812 1.385 . S
C812 H798 0.931 . S
C812 C811 1.385 . S
C812 C813 1.389 . S
C813 C812 1.389 . S
C813 C814 1.387 . S
C814 H799 0.930 1_655 S
C814 C809 1.390 . S
C814 C813 1.387 . S
H815 C827 0.930 . S
H816 C829 0.930 . S
H817 C830 0.930 . S
H818 C834 0.959 1_565 S
H819 C834 0.959 . S
H820 C834 0.961 . S
H821 C835 0.960 . S
H822 C835 0.961 . S
H823 C835 0.959 . S
H824 C838 0.929 . S
H825 C839 0.931 . S
H826 C841 0.930 . S
C827 H815 0.930 . S
C827 C828 1.399 1_545 S
C827 C832 1.399 . S
C828 C827 1.399 1_565 S
C828 C829 1.376 . S
C829 H816 0.930 . S
C829 C828 1.376 . S
C829 C830 1.388 . S
C830 H817 0.930 . S
C830 C829 1.388 . S
C830 C831 1.390 . S
C831 C830 1.390 . S
C831 C832 1.394 1_565 S
C831 C837 1.465 . S
C832 C827 1.399 . S
C832 C831 1.394 1_545 S
C832 C833 1.516 . S
C833 C832 1.516 . S
C833 C834 1.502 . S
C833 C835 1.561 . S
C833 C836 1.526 . S
C834 H818 0.959 1_545 S
C834 H819 0.959 . S
C834 H820 0.961 . S
C834 C833 1.502 . S
C835 H821 0.960 . S
C835 H822 0.961 . S
C835 H823 0.959 . S
C835 C833 1.561 . S
C836 C833 1.526 . S
C836 C837 1.396 1_545 S
C836 C841 1.390 . S
C837 C831 1.465 . S
C837 C836 1.396 1_565 S
C837 C838 1.399 . S
C838 H824 0.929 . S
C838 C837 1.399 . S
C838 C839 1.385 . S
C839 H825 0.931 . S
C839 C838 1.385 . S
C839 C840 1.389 . S
C840 C839 1.389 . S
C840 C841 1.387 1_565 S
C841 H826 0.930 . S
C841 C836 1.390 . S
C841 C840 1.387 1_545 S
H842 C854 0.930 . S
H843 C856 0.930 . S
H844 C857 0.930 . S
H845 C861 0.959 . S
H846 C861 0.959 . S
H847 C861 0.961 . S
H848 C862 0.960 . S
H849 C862 0.961 . S
H850 C862 0.959 . S
H851 C865 0.929 . S
H852 C866 0.931 . S
H853 C868 0.930 . S
C854 H842 0.930 . S
C854 C855 1.399 . S
C854 C859 1.399 . S
C855 C854 1.399 . S
C855 C856 1.376 . S
C856 H843 0.930 . S
C856 C855 1.376 . S
C856 C857 1.388 . S
C857 H844 0.930 . S
C857 C856 1.388 . S
C857 C858 1.390 . S
C858 C857 1.390 . S
C858 C859 1.394 . S
C858 C864 1.465 . S
C859 C854 1.399 . S
C859 C858 1.394 . S
C859 C860 1.516 . S
C860 C859 1.516 . S
C860 C861 1.502 . S
C860 C862 1.561 . S
C860 C863 1.526 . S
C861 H845 0.959 . S
C861 H846 0.959 . S
C861 H847 0.961 . S
C861 C860 1.502 . S
C862 H848 0.960 . S
C862 H849 0.961 . S
C862 H850 0.959 . S
C862 C860 1.561 . S
C863 C860 1.526 . S
C863 C864 1.396 . S
C863 C868 1.390 . S
C864 C858 1.465 . S
C864 C863 1.396 . S
C864 C865 1.399 . S
C865 H851 0.929 . S
C865 C864 1.399 . S
C865 C866 1.385 . S
C866 H852 0.931 . S
C866 C865 1.385 . S
C866 C867 1.389 . S
C867 C866 1.389 . S
C867 C868 1.387 . S
C868 H853 0.930 . S
C868 C863 1.390 . S
C868 C867 1.387 . S
H869 C881 0.930 . S
H870 C883 0.930 . S
H871 C884 0.930 . S
H872 C888 0.959 . S
H873 C888 0.959 . S
H874 C888 0.961 . S
H875 C889 0.960 . S
H876 C889 0.961 . S
H877 C889 0.959 . S
H878 C892 0.929 . S
H879 C893 0.931 . S
H880 C895 0.930 . S
C881 H869 0.930 . S
C881 C882 1.399 . S
C881 C886 1.399 . S
C882 C881 1.399 . S
C882 C883 1.376 . S
C883 H870 0.930 . S
C883 C882 1.376 . S
C883 C884 1.388 . S
C884 H871 0.930 . S
C884 C883 1.388 . S
C884 C885 1.390 . S
C885 C884 1.390 . S
C885 C886 1.394 . S
C885 C891 1.465 . S
C886 C881 1.399 . S
C886 C885 1.394 . S
C886 C887 1.516 . S
C887 C886 1.516 . S
C887 C888 1.502 . S
C887 C889 1.561 . S
C887 C890 1.526 . S
C888 H872 0.959 . S
C888 H873 0.959 . S
C888 H874 0.961 . S
C888 C887 1.502 . S
C889 H875 0.960 . S
C889 H876 0.961 . S
C889 H877 0.959 . S
C889 C887 1.561 . S
C890 C887 1.526 . S
C890 C891 1.396 . S
C890 C895 1.390 . S
C891 C885 1.465 . S
C891 C890 1.396 . S
C891 C892 1.399 . S
C892 H878 0.929 . S
C892 C891 1.399 . S
C892 C893 1.385 . S
C893 H879 0.931 . S
C893 C892 1.385 . S
C893 C894 1.389 . S
C894 C893 1.389 . S
C894 C895 1.387 . S
C895 H880 0.930 . S
C895 C890 1.390 . S
C895 C894 1.387 . S
C261 C74 1.801 1_565 S
C273 C98 1.859 . S
C300 C138 1.864 . S
C288 C85 1.759 . S
C327 C178 1.882 . S
C315 C52 1.738 . S
C354 C218 1.873 1_455 S
C342 C63 1.792 . S
C381 C107 1.882 1_565 S
C369 C30 1.781 1_565 S
C396 C41 1.739 . S
C408 C147 1.868 . S
C423 C8 1.807 . S
C435 C187 1.883 . S
C450 C19 1.737 . S
C462 C227 1.861 . S
C489 C104 0.551 . S
C477 C62 0.586 . S
C516 C144 0.686 . S
C504 C73 0.582 1_565 S
C543 C184 0.629 . S
C531 C84 0.629 . S
C558 C51 0.609 . S
C570 C224 0.683 . S
C585 C18 0.722 1_655 S
C597 C95 0.580 . S
C624 C135 0.677 . S
C612 C29 0.597 . S
C651 C175 0.579 . S
C639 C40 0.724 . S
C666 C7 0.717 . S
C678 C215 0.540 . S
C693 C60 1.779 . S
C705 C99 2.228 . S
C720 C71 1.646 . S
C732 C139 2.241 . S
C759 C179 2.248 . S
C747 C82 1.641 . S
C786 C219 2.218 . S
C774 C49 1.755 . S
C801 C16 1.837 1_655 S
C813 C90 2.245 . S
C840 C130 2.248 . S
C828 C27 1.754 1_565 S
C867 C170 2.228 . S
C855 C38 1.714 . S
C882 C5 1.816 . S
C894 C210 2.233 . S
