# Generated by pormake.
# Topology rtl, (3,6)-cn, num edge types: 1
# Building blocks:
#     Node 0, Type 0, BuildingBlock: WUSLED_clean_sbu_0, # of connection points: 3
#     Node 1, Type 0, BuildingBlock: WUSLED_clean_sbu_0, # of connection points: 3
#     Node 2, Type 0, BuildingBlock: WUSLED_clean_sbu_0, # of connection points: 3
#     Node 3, Type 0, BuildingBlock: WUSLED_clean_sbu_0, # of connection points: 3
#     Node 4, Type 1, BuildingBlock: VOLQOD_clean_sbu_1, # of connection points: 6
#     Node 5, Type 1, BuildingBlock: VOLQOD_clean_sbu_1, # of connection points: 6
#     Edge 6, Type (0, 1), BuildingBlock: TEMPAE_clean_linker_10, # of connection points: 2
#     Edge 7, Type (0, 1), BuildingBlock: TEMPAE_clean_linker_10, # of connection points: 2
#     Edge 8, Type (0, 1), BuildingBlock: TEMPAE_clean_linker_10, # of connection points: 2
#     Edge 9, Type (0, 1), BuildingBlock: TEMPAE_clean_linker_10, # of connection points: 2
#     Edge 10, Type (0, 1), BuildingBlock: TEMPAE_clean_linker_10, # of connection points: 2
#     Edge 11, Type (0, 1), BuildingBlock: TEMPAE_clean_linker_10, # of connection points: 2
#     Edge 12, Type (0, 1), BuildingBlock: TEMPAE_clean_linker_10, # of connection points: 2
#     Edge 13, Type (0, 1), BuildingBlock: TEMPAE_clean_linker_10, # of connection points: 2
#     Edge 14, Type (0, 1), BuildingBlock: TEMPAE_clean_linker_10, # of connection points: 2
#     Edge 15, Type (0, 1), BuildingBlock: TEMPAE_clean_linker_10, # of connection points: 2
#     Edge 16, Type (0, 1), BuildingBlock: TEMPAE_clean_linker_10, # of connection points: 2
#     Edge 17, Type (0, 1), BuildingBlock: TEMPAE_clean_linker_10, # of connection points: 2
# Relax obj value: 0.076
# Max RMSD: 0.155
# Mean RMSD: 0.086
data_MOF--net-rtl--node1-WUSLED_clean_sbu_0--node2-VOLQOD_clean_sbu_1--edge1-TEMPAE_clean_linker_10
_symmetry_space_group_name_H-M    P1
_symmetry_Int_Tables_number       1
_symmetry_cell_setting            triclinic
loop_
_symmetry_equiv_pos_as_xyz
'x, y, z'
_cell_length_a     48.483669
_cell_length_b     42.18507
_cell_length_c     31.187061
_cell_angle_alpha  90.347619
_cell_angle_beta   90.663755
_cell_angle_gamma 89.981357
loop_
_atom_site_label
_atom_site_type_symbol
_atom_site_fract_x
_atom_site_fract_y
_atom_site_fract_z
_atom_type_partial_charge
C0 C 0.14817 0.77869 0.14222 0.0
C1 C 0.16231 0.80216 0.16581 0.0
C2 C 0.1221 0.81088 0.21048 0.0
C3 C 0.1494 0.81819 0.19939 0.0
C4 C 0.10825 0.78669 0.18769 0.0
C5 C 0.1211 0.77079 0.15391 0.0
U6 U 0.15437 0.76644 0.02173 0.0
O7 O 0.19072 0.76499 0.98046 0.0
O8 O 0.16326 0.72369 0.98337 0.0
C9 C 0.18682 0.73511 0.96983 0.0
C10 C 0.16167 0.76346 0.10503 0.0
C11 C 0.21088 0.71438 0.97588 0.0
C12 C 0.25015 0.69682 0.01859 0.0
C13 C 0.22669 0.7158 0.01383 0.0
C14 C 0.24175 0.67409 0.94807 0.0
C15 C 0.25801 0.6759 0.98564 0.0
C16 C 0.2184 0.69326 0.94321 0.0
C17 C 0.1049 0.81233 0.94876 0.0
C18 C 0.10619 0.80865 0.87106 0.0
C19 C 0.07746 0.84819 0.90532 0.0
C20 C 0.08607 0.83736 0.94551 0.0
C21 C 0.08752 0.83412 0.86758 0.0
C22 C 0.11486 0.79788 0.91138 0.0
C23 C 0.11492 0.80279 0.99132 0.0
O24 O 0.14694 0.74263 0.08309 0.0
O25 O 0.17576 0.78264 0.08044 0.0
O26 O 0.13958 0.81336 0.00178 0.0
O27 O 0.11112 0.7729 0.00142 0.0
H28 H 0.18324 0.80861 0.15771 0.0
H29 H 0.16061 0.83691 0.21589 0.0
H30 H 0.08739 0.78007 0.19588 0.0
H31 H 0.10966 0.75261 0.13671 0.0
H32 H 0.26211 0.69843 0.04808 0.0
H33 H 0.22103 0.73179 0.03959 0.0
H34 H 0.24744 0.65838 0.92203 0.0
H35 H 0.20639 0.69185 0.91375 0.0
H36 H 0.11414 0.79713 0.84265 0.0
H37 H 0.06348 0.8682 0.90388 0.0
H38 H 0.07839 0.84894 0.9741 0.0
H39 H 0.12955 0.77857 0.91343 0.0
C40 C 0.64703 0.73012 0.63597 0.0
C41 C 0.62791 0.7062 0.62585 0.0
C42 C 0.62016 0.69718 0.70172 0.0
C43 C 0.61462 0.68983 0.65843 0.0
C44 C 0.63887 0.72171 0.71169 0.0
C45 C 0.65228 0.738 0.67899 0.0
U46 U 0.65808 0.74154 0.51789 0.0
O47 O 0.66788 0.78397 0.48009 0.0
O48 O 0.69586 0.74301 0.4799 0.0
C49 C 0.69195 0.77264 0.46849 0.0
C50 C 0.66208 0.74594 0.6016 0.0
C51 C 0.71565 0.79387 0.4754 0.0
C52 C 0.75517 0.81132 0.51792 0.0
C53 C 0.73193 0.79199 0.51279 0.0
C54 C 0.74555 0.83535 0.44896 0.0
C55 C 0.76241 0.83307 0.48588 0.0
C56 C 0.72244 0.81585 0.44376 0.0
C57 C 0.61188 0.69374 0.44051 0.0
C58 C 0.62225 0.66961 0.37155 0.0
C59 C 0.57498 0.68225 0.38932 0.0
C60 C 0.58381 0.69418 0.42908 0.0
C61 C 0.59408 0.66936 0.36049 0.0
C62 C 0.63111 0.68184 0.4111 0.0
C63 C 0.62039 0.70425 0.48388 0.0
O64 O 0.67757 0.72696 0.57855 0.0
O65 O 0.6474 0.76572 0.57824 0.0
O66 O 0.6157 0.73417 0.49335 0.0
O67 O 0.64454 0.69411 0.49766 0.0
H68 H 0.62355 0.69992 0.59271 0.0
H69 H 0.60004 0.67137 0.64976 0.0
H70 H 0.64367 0.72772 0.74476 0.0
H71 H 0.66703 0.7564 0.68728 0.0
H72 H 0.76781 0.80867 0.54652 0.0
H73 H 0.72693 0.77523 0.53772 0.0
H74 H 0.75021 0.85221 0.42403 0.0
H75 H 0.70997 0.81776 0.41483 0.0
H76 H 0.63742 0.66012 0.34969 0.0
H77 H 0.55312 0.68213 0.38172 0.0
H78 H 0.56864 0.70319 0.4513 0.0
H79 H 0.65294 0.68143 0.4189 0.0
C80 C 0.8571 0.23101 0.14337 0.0
C81 C 0.88608 0.22932 0.14497 0.0
C82 C 0.8841 0.19707 0.20927 0.0
C83 C 0.89944 0.21267 0.17781 0.0
C84 C 0.85518 0.19924 0.20803 0.0
C85 C 0.84183 0.21619 0.1755 0.0
U86 U 0.84545 0.24021 0.02374 0.0
O87 O 0.80701 0.2422 0.98575 0.0
O88 O 0.83641 0.28174 0.98371 0.0
C89 C 0.81184 0.27115 0.97248 0.0
C90 C 0.84241 0.24619 0.1072 0.0
C91 C 0.78889 0.29349 0.97772 0.0
C92 C 0.76313 0.33132 0.02055 0.0
C93 C 0.78562 0.31085 0.01585 0.0
C94 C 0.74695 0.31706 0.94918 0.0
C95 C 0.74345 0.33458 0.98729 0.0
C96 C 0.76949 0.29677 0.94446 0.0
C97 C 0.88918 0.18918 0.94795 0.0
C98 C 0.91959 0.19078 0.88638 0.0
C99 C 0.88345 0.15129 0.88933 0.0
C100 C 0.87527 0.1633 0.92901 0.0
C101 C 0.90584 0.16471 0.86773 0.0
C102 C 0.91143 0.20279 0.92616 0.0
C103 C 0.88153 0.20073 0.99119 0.0
O104 O 0.85692 0.26546 0.08327 0.0
O105 O 0.82632 0.22714 0.08473 0.0
O106 O 0.85725 0.19187 0.00512 0.0
O107 O 0.88733 0.2305 0.00036 0.0
H108 H 0.89842 0.24025 0.1204 0.0
H109 H 0.92175 0.21115 0.17783 0.0
H110 H 0.84289 0.18767 0.23214 0.0
H111 H 0.8195 0.21714 0.17488 0.0
H112 H 0.76121 0.34467 0.05013 0.0
H113 H 0.80038 0.30846 0.04199 0.0
H114 H 0.73196 0.31852 0.92325 0.0
H115 H 0.77159 0.28332 0.91497 0.0
H116 H 0.93716 0.20135 0.87078 0.0
H117 H 0.87228 0.13137 0.8756 0.0
H118 H 0.85822 0.15199 0.94502 0.0
H119 H 0.92284 0.22244 0.94014 0.0
C120 C 0.36078 0.27306 0.36915 0.0
C121 C 0.34539 0.29186 0.34066 0.0
C122 C 0.38669 0.30363 0.29998 0.0
C123 C 0.35819 0.30711 0.30661 0.0
C124 C 0.40196 0.28406 0.32789 0.0
C125 C 0.38917 0.26902 0.36221 0.0
U126 U 0.35264 0.26381 0.48988 0.0
O127 O 0.31534 0.26393 0.5291 0.0
O128 O 0.34227 0.22206 0.52862 0.0
C129 C 0.31857 0.2342 0.54053 0.0
C130 C 0.34693 0.2589 0.40641 0.0
C131 C 0.29436 0.21373 0.53373 0.0
C132 C 0.25458 0.19736 0.49099 0.0
C133 C 0.27811 0.21618 0.49634 0.0
C134 C 0.26384 0.17266 0.55964 0.0
C135 C 0.24713 0.17554 0.52271 0.0
C136 C 0.28723 0.19169 0.56513 0.0
C137 C 0.40039 0.31055 0.56564 0.0
C138 C 0.39009 0.33327 0.63549 0.0
C139 C 0.4375 0.32317 0.61592 0.0
C140 C 0.42856 0.31129 0.57617 0.0
C141 C 0.4184 0.33483 0.64581 0.0
C142 C 0.38117 0.32111 0.59594 0.0
C143 C 0.39158 0.3001 0.52239 0.0
O144 O 0.36136 0.23866 0.42951 0.0
O145 O 0.33259 0.27886 0.42978 0.0
O146 O 0.36761 0.31094 0.50884 0.0
O147 O 0.39547 0.26998 0.51317 0.0
H148 H 0.32348 0.29533 0.34531 0.0
H149 H 0.34583 0.32235 0.28623 0.0
H150 H 0.42385 0.28044 0.32335 0.0
H151 H 0.40163 0.25458 0.38352 0.0
H152 H 0.24225 0.19981 0.46201 0.0
H153 H 0.28346 0.23285 0.47148 0.0
H154 H 0.25845 0.15622 0.58475 0.0
H155 H 0.29959 0.18944 0.59412 0.0
H156 H 0.3748 0.34236 0.6574 0.0
H157 H 0.45941 0.32343 0.62306 0.0
H158 H 0.44371 0.3031 0.55336 0.0
H159 H 0.35926 0.32065 0.58875 0.0
O160 O 0.93802 0.98994 0.51355 0.0
Zn161 Zn 0.96728 0.02383 0.51678 0.0
O162 O 0.00422 0.0051 0.51545 0.0
Zn163 Zn 0.02507 0.01965 0.56569 0.0
Zn164 Zn 0.00143 0.9587 0.51646 0.0
Zn165 Zn 0.02316 0.01846 0.46339 0.0
O166 O 0.05919 0.04334 0.54907 0.0
O167 O 0.05814 0.04254 0.47791 0.0
O168 O 0.96126 0.04938 0.57086 0.0
O169 O 0.00235 0.04836 0.60275 0.0
O170 O 0.03623 0.98306 0.60296 0.0
O171 O 0.01879 0.94061 0.57026 0.0
O172 O 0.0205 0.93916 0.46551 0.0
O173 O 0.96124 0.05276 0.46652 0.0
O174 O 0.03422 0.98063 0.42783 0.0
O175 O 0.99882 0.04695 0.42718 0.0
C176 C 0.93876 0.95975 0.51304 0.0
C177 C 0.06972 0.05056 0.51322 0.0
C178 C 0.03206 0.95328 0.60142 0.0
C179 C 0.97735 0.05752 0.60157 0.0
C180 C 0.03226 0.95076 0.43282 0.0
C181 C 0.97508 0.05907 0.43319 0.0
O182 O 0.96161 0.94483 0.51429 0.0
O183 O 0.5675 0.49115 0.01062 0.0
Zn184 Zn 0.53757 0.52445 0.01005 0.0
O185 O 0.50094 0.5051 0.00399 0.0
Zn186 Zn 0.48268 0.52126 0.95228 0.0
Zn187 Zn 0.50471 0.4589 0.99966 0.0
Zn188 Zn 0.47871 0.5159 0.05395 0.0
O189 O 0.44759 0.54436 0.96643 0.0
O190 O 0.44436 0.54005 0.03706 0.0
O191 O 0.54535 0.55379 0.96089 0.0
O192 O 0.50723 0.55166 0.9209 0.0
O193 O 0.47299 0.48564 0.91148 0.0
O194 O 0.48894 0.44245 0.94367 0.0
O195 O 0.48511 0.43687 0.04801 0.0
O196 O 0.54084 0.54969 0.06496 0.0
O197 O 0.46681 0.47665 0.08487 0.0
O198 O 0.50036 0.54272 0.09612 0.0
C199 C 0.56721 0.46107 0.00673 0.0
C200 C 0.43486 0.54975 0.00122 0.0
C201 C 0.47691 0.45578 0.91204 0.0
C202 C 0.53146 0.56227 0.92799 0.0
C203 C 0.47087 0.4471 0.07927 0.0
C204 C 0.52456 0.5545 0.09609 0.0
O205 O 0.54464 0.44594 0.00208 0.0
C206 C 0.22172 0.12397 0.5269 0.0
C207 C 0.22155 0.15649 0.51795 0.0
C208 C 0.1974 0.10599 0.52415 0.0
C209 C 0.17228 0.12103 0.51267 0.0
C210 C 0.17207 0.15378 0.50302 0.0
C211 C 0.19674 0.17109 0.50559 0.0
C212 C 0.19849 0.07104 0.53416 0.0
C213 C 0.14565 0.17071 0.49111 0.0
C214 C 0.11126 0.07111 0.47504 0.0
C215 C 0.09594 0.06862 0.51279 0.0
C216 C 0.13628 0.08787 0.47456 0.0
C217 C 0.14602 0.10282 0.51257 0.0
C218 C 0.13058 0.10056 0.55067 0.0
C219 C 0.10584 0.08335 0.55038 0.0
C220 C 0.15235 0.08949 0.43345 0.0
C221 C 0.14014 0.11646 0.59175 0.0
H222 H 0.24094 0.11256 0.53599 0.0
H223 H 0.19649 0.1963 0.49909 0.0
H224 H 0.1859 0.06605 0.56281 0.0
H225 H 0.18955 0.05711 0.50709 0.0
H226 H 0.21988 0.06263 0.54038 0.0
H227 H 0.14916 0.19601 0.48312 0.0
H228 H 0.13561 0.15887 0.46318 0.0
H229 H 0.13103 0.16955 0.51816 0.0
H230 H 0.10385 0.05966 0.44591 0.0
H231 H 0.09409 0.0817 0.57965 0.0
H232 H 0.17334 0.07963 0.43856 0.0
H233 H 0.15484 0.11455 0.42364 0.0
H234 H 0.14214 0.07623 0.4068 0.0
H235 H 0.16067 0.10717 0.60147 0.0
H236 H 0.12558 0.11271 0.6185 0.0
H237 H 0.14244 0.14233 0.58663 0.0
C238 C 0.30808 0.6707 0.00466 0.0
C239 C 0.2835 0.65665 0.98997 0.0
C240 C 0.33261 0.65315 0.0075 0.0
C241 C 0.3325 0.62069 0.9957 0.0
C242 C 0.30764 0.60623 0.98151 0.0
C243 C 0.28345 0.62443 0.97861 0.0
C244 C 0.35876 0.66949 0.02238 0.0
C245 C 0.30665 0.57159 0.96909 0.0
C246 C 0.40021 0.58326 0.96223 0.0
C247 C 0.40855 0.56769 0.99985 0.0
C248 C 0.37551 0.60056 0.96047 0.0
C249 C 0.35857 0.60212 0.99709 0.0
C250 C 0.36671 0.58626 0.03506 0.0
C251 C 0.39167 0.56937 0.03607 0.0
C252 C 0.36764 0.61739 0.91951 0.0
C253 C 0.34905 0.58716 0.07462 0.0
H254 H 0.30827 0.69569 0.01299 0.0
H255 H 0.26441 0.61342 0.96768 0.0
H256 H 0.36765 0.65706 0.05057 0.0
H257 H 0.37434 0.66848 0.99661 0.0
H258 H 0.35524 0.69471 0.0312 0.0
H259 H 0.28549 0.56369 0.96012 0.0
H260 H 0.32043 0.56715 0.94154 0.0
H261 H 0.31427 0.55684 0.99608 0.0
H262 H 0.41313 0.58221 0.93412 0.0
H263 H 0.39786 0.55731 0.06521 0.0
H264 H 0.36547 0.64318 0.92577 0.0
H265 H 0.34736 0.60867 0.90756 0.0
H266 H 0.3831 0.61387 0.8939 0.0
H267 H 0.3465 0.612 0.08574 0.0
H268 H 0.35804 0.57305 0.1013 0.0
H269 H 0.32817 0.57784 0.06693 0.0
C270 C 0.79541 0.86585 0.53032 0.0
C271 C 0.78779 0.8527 0.49046 0.0
C272 C 0.81972 0.88366 0.53519 0.0
C273 C 0.83672 0.88866 0.49927 0.0
C274 C 0.82903 0.8758 0.45887 0.0
C275 C 0.80476 0.85786 0.455 0.0
C276 C 0.8273 0.89694 0.57883 0.0
C277 C 0.84657 0.88073 0.41977 0.0
C278 C 0.88754 0.95722 0.50156 0.0
C279 C 0.91255 0.94166 0.51046 0.0
C280 C 0.86269 0.94029 0.49806 0.0
C281 C 0.86277 0.90705 0.50396 0.0
C282 C 0.88784 0.89126 0.51352 0.0
C283 C 0.91244 0.90872 0.51646 0.0
C284 C 0.83639 0.95792 0.48746 0.0
C285 C 0.88871 0.85586 0.52041 0.0
H286 H 0.78225 0.86239 0.55775 0.0
H287 H 0.79932 0.84738 0.42424 0.0
H288 H 0.8477 0.88763 0.58921 0.0
H289 H 0.82912 0.92312 0.5772 0.0
H290 H 0.81187 0.89089 0.60352 0.0
H291 H 0.83727 0.86993 0.39041 0.0
H292 H 0.84955 0.90644 0.41418 0.0
H293 H 0.86729 0.87019 0.42508 0.0
H294 H 0.8874 0.98264 0.49675 0.0
H295 H 0.93161 0.8965 0.52357 0.0
H296 H 0.82088 0.95383 0.51271 0.0
H297 H 0.82749 0.94881 0.45685 0.0
H298 H 0.83975 0.98386 0.48443 0.0
H299 H 0.87453 0.84924 0.54655 0.0
H300 H 0.90976 0.84729 0.52874 0.0
H301 H 0.88153 0.84336 0.49095 0.0
C302 C 0.70477 0.3565 0.03141 0.0
C303 C 0.71898 0.35551 0.99248 0.0
C304 C 0.68077 0.3748 0.03591 0.0
C305 C 0.6706 0.39231 0.00052 0.0
C306 C 0.68515 0.39197 0.96144 0.0
C307 C 0.70922 0.37371 0.95797 0.0
C308 C 0.66589 0.37474 0.07818 0.0
C309 C 0.67495 0.41031 0.92296 0.0
C310 C 0.5941 0.41118 0.99483 0.0
C311 C 0.59365 0.44335 0.00656 0.0
C312 C 0.61899 0.39429 0.99305 0.0
C313 C 0.64405 0.40982 0.00364 0.0
C314 C 0.64375 0.44211 0.0162 0.0
C315 C 0.61856 0.45854 0.01732 0.0
C316 C 0.6185 0.35992 0.97917 0.0
C317 C 0.67005 0.45936 0.02813 0.0
H318 H 0.71195 0.34226 0.0581 0.0
H319 H 0.72035 0.37356 0.92803 0.0
H320 H 0.66248 0.3994 0.08949 0.0
H321 H 0.64531 0.36359 0.07395 0.0
H322 H 0.67747 0.36163 0.1034 0.0
H323 H 0.68913 0.40835 0.89534 0.0
H324 H 0.65435 0.40138 0.9128 0.0
H325 H 0.67253 0.43573 0.93142 0.0
H326 H 0.57501 0.39922 0.98632 0.0
H327 H 0.61842 0.48334 0.02662 0.0
H328 H 0.628 0.3449 0.0044 0.0
H329 H 0.63088 0.3568 0.94974 0.0
H330 H 0.59724 0.35121 0.97256 0.0
H331 H 0.68095 0.4467 0.0544 0.0
H332 H 0.66619 0.48418 0.03858 0.0
H333 H 0.68407 0.45972 0.00028 0.0
C334 C 0.08028 0.83844 0.23933 0.0
C335 C 0.10791 0.82917 0.24472 0.0
C336 C 0.06701 0.85702 0.27036 0.0
C337 C 0.08178 0.86682 0.30754 0.0
C338 C 0.1095 0.85713 0.31357 0.0
C339 C 0.12219 0.83833 0.28219 0.0
C340 C 0.03738 0.86678 0.26287 0.0
C341 C 0.12592 0.86712 0.3528 0.0
C342 C 0.0584 0.94154 0.36503 0.0
C343 C 0.04436 0.92917 0.40032 0.0
C344 C 0.07054 0.92149 0.33455 0.0
C345 C 0.06857 0.88823 0.33934 0.0
C346 C 0.05425 0.87553 0.3746 0.0
C347 C 0.04234 0.89614 0.40469 0.0
C348 C 0.08568 0.93593 0.29739 0.0
C349 C 0.05164 0.84017 0.38063 0.0
H350 H 0.06918 0.83188 0.21025 0.0
H351 H 0.14339 0.83085 0.28697 0.0
H352 H 0.02465 0.86007 0.29072 0.0
H353 H 0.0361 0.89292 0.25973 0.0
H354 H 0.02834 0.85573 0.2335 0.0
H355 H 0.14702 0.85684 0.35326 0.0
H356 H 0.12768 0.89334 0.3539 0.0
H357 H 0.11514 0.85973 0.38228 0.0
H358 H 0.06011 0.96699 0.36129 0.0
H359 H 0.03153 0.88631 0.43177 0.0
H360 H 0.07644 0.92762 0.26661 0.0
H361 H 0.10753 0.92813 0.29793 0.0
H362 H 0.08514 0.96226 0.2981 0.0
H363 H 0.04158 0.82927 0.35202 0.0
H364 H 0.03947 0.83409 0.4094 0.0
H365 H 0.07242 0.82938 0.3839 0.0
C366 C 0.59568 0.69384 0.77201 0.0
C367 C 0.607 0.67861 0.7362 0.0
C368 C 0.583 0.67637 0.80453 0.0
C369 C 0.58183 0.64289 0.80122 0.0
C370 C 0.59341 0.62741 0.76528 0.0
C371 C 0.60579 0.64546 0.73319 0.0
C372 C 0.57069 0.69369 0.84224 0.0
C373 C 0.59278 0.59175 0.76076 0.0
C374 C 0.57185 0.59298 0.90077 0.0
C375 C 0.54399 0.58427 0.89678 0.0
C376 C 0.5843 0.61256 0.87035 0.0
C377 C 0.56848 0.62389 0.83522 0.0
C378 C 0.54021 0.61586 0.83154 0.0
C379 C 0.52832 0.59608 0.86227 0.0
C380 C 0.61455 0.62051 0.87525 0.0
C381 C 0.52264 0.62765 0.79465 0.0
H382 H 0.59636 0.71948 0.77426 0.0
H383 H 0.61488 0.63356 0.70587 0.0
H384 H 0.54833 0.68835 0.84418 0.0
H385 H 0.58045 0.68542 0.87252 0.0
H386 H 0.57336 0.71978 0.84006 0.0
H387 H 0.60287 0.58338 0.73095 0.0
H388 H 0.60337 0.58071 0.78864 0.0
H389 H 0.57113 0.58323 0.76052 0.0
H390 H 0.58415 0.58401 0.92729 0.0
H391 H 0.50675 0.58967 0.859 0.0
H392 H 0.6175 0.64658 0.87516 0.0
H393 H 0.62608 0.61071 0.84764 0.0
H394 H 0.62368 0.61087 0.90529 0.0
H395 H 0.5238 0.65387 0.79278 0.0
H396 H 0.50066 0.62064 0.79764 0.0
H397 H 0.53056 0.61801 0.76399 0.0
C398 C 0.88904 0.1467 0.25038 0.0
C399 C 0.89816 0.1776 0.24237 0.0
C400 C 0.90229 0.12769 0.28108 0.0
C401 C 0.925 0.14005 0.30472 0.0
C402 C 0.93426 0.1713 0.29687 0.0
C403 C 0.92083 0.18964 0.26552 0.0
C404 C 0.89204 0.09434 0.28811 0.0
C405 C 0.95815 0.18544 0.32188 0.0
C406 C 0.94074 0.10031 0.41112 0.0
C407 C 0.96306 0.08066 0.40064 0.0
C408 C 0.9286 0.12031 0.38047 0.0
C409 C 0.93875 0.12033 0.3381 0.0
C410 C 0.96141 0.10077 0.32735 0.0
C411 C 0.97344 0.08134 0.35885 0.0
C412 C 0.90472 0.14117 0.39331 0.0
C413 C 0.97257 0.09986 0.28236 0.0
H414 H 0.87175 0.1372 0.23208 0.0
H415 H 0.92779 0.21362 0.25953 0.0
H416 H 0.90902 0.07715 0.2829 0.0
H417 H 0.88522 0.09163 0.32171 0.0
H418 H 0.87456 0.08807 0.26633 0.0
H419 H 0.9628 0.21008 0.31188 0.0
H420 H 0.95346 0.18556 0.35662 0.0
H421 H 0.97689 0.17073 0.31753 0.0
H422 H 0.93273 0.10014 0.44343 0.0
H423 H 0.99061 0.06615 0.35045 0.0
H424 H 0.88595 0.13431 0.37482 0.0
H425 H 0.90925 0.16626 0.3856 0.0
H426 H 0.90016 0.13949 0.42805 0.0
H427 H 0.95622 0.09168 0.25967 0.0
H428 H 0.99065 0.08384 0.27942 0.0
H429 H 0.97874 0.124 0.27235 0.0
C430 C 0.45133 0.36949 0.68745 0.0
C431 C 0.42794 0.34988 0.68671 0.0
C432 C 0.45974 0.38527 0.72511 0.0
C433 C 0.44418 0.38175 0.7629 0.0
C434 C 0.42083 0.36162 0.76268 0.0
C435 C 0.41309 0.34578 0.72468 0.0
C436 C 0.48491 0.40632 0.72417 0.0
C437 C 0.40365 0.35739 0.80231 0.0
C438 C 0.47774 0.40535 0.86913 0.0
C439 C 0.46778 0.43632 0.87477 0.0
C440 C 0.4701 0.38718 0.83303 0.0
C441 C 0.45177 0.40015 0.80213 0.0
C442 C 0.44119 0.43113 0.80808 0.0
C443 C 0.44946 0.44891 0.84415 0.0
C444 C 0.48205 0.35438 0.82752 0.0
C445 C 0.42132 0.44563 0.7761 0.0
H446 H 0.46272 0.37327 0.65823 0.0
H447 H 0.39528 0.33028 0.72469 0.0
H448 H 0.47881 0.4313 0.73003 0.0
H449 H 0.4996 0.39958 0.75009 0.0
H450 H 0.49573 0.40496 0.693 0.0
H451 H 0.38654 0.34023 0.79717 0.0
H452 H 0.41677 0.34901 0.82932 0.0
H453 H 0.39474 0.38052 0.81212 0.0
H454 H 0.492 0.39548 0.89252 0.0
H455 H 0.4415 0.47273 0.84838 0.0
H456 H 0.49432 0.35332 0.79773 0.0
H457 H 0.46524 0.33668 0.82408 0.0
H458 H 0.49553 0.34746 0.85495 0.0
H459 H 0.43135 0.44773 0.74446 0.0
H460 H 0.41417 0.46951 0.78627 0.0
H461 H 0.40306 0.43006 0.77167 0.0
C462 C 0.56534 0.66964 0.29317 0.0
C463 C 0.58449 0.6543 0.31991 0.0
C464 C 0.55551 0.65503 0.2554 0.0
C465 C 0.56477 0.62419 0.2446 0.0
C466 C 0.58422 0.60869 0.27142 0.0
C467 C 0.59397 0.62402 0.30863 0.0
C468 C 0.53509 0.67246 0.22725 0.0
C469 C 0.59433 0.57564 0.2613 0.0
C470 C 0.52004 0.57218 0.17244 0.0
C471 C 0.53418 0.57349 0.13349 0.0
C472 C 0.52961 0.58886 0.20871 0.0
C473 C 0.55367 0.60768 0.20583 0.0
C474 C 0.56766 0.60976 0.16635 0.0
C475 C 0.55786 0.59245 0.13074 0.0
C476 C 0.51432 0.58575 0.2504 0.0
C477 C 0.59317 0.62995 0.1619 0.0
H478 H 0.55817 0.69316 0.30171 0.0
H479 H 0.60851 0.61196 0.32956 0.0
H480 H 0.54305 0.67409 0.19412 0.0
H481 H 0.51538 0.65916 0.22547 0.0
H482 H 0.53081 0.69679 0.23929 0.0
H483 H 0.6097 0.56705 0.28523 0.0
H484 H 0.57665 0.55893 0.26042 0.0
H485 H 0.60385 0.57506 0.22914 0.0
H486 H 0.50179 0.5575 0.17492 0.0
H487 H 0.5688 0.59379 0.10068 0.0
H488 H 0.50804 0.60948 0.2623 0.0
H489 H 0.52812 0.57523 0.27514 0.0
H490 H 0.49562 0.57068 0.24708 0.0
H491 H 0.58881 0.65463 0.1723 0.0
H492 H 0.60077 0.63037 0.12845 0.0
H493 H 0.60986 0.62077 0.18305 0.0
C494 C 0.91756 0.11775 0.82212 0.0
C495 C 0.91541 0.15074 0.82669 0.0
C496 C 0.9271 0.10403 0.78402 0.0
C497 C 0.93471 0.12379 0.7496 0.0
C498 C 0.93239 0.15712 0.7538 0.0
C499 C 0.9228 0.17022 0.79237 0.0
C500 C 0.92944 0.06839 0.78086 0.0
C501 C 0.94024 0.1789 0.71771 0.0
C502 C 0.98449 0.08709 0.67063 0.0
C503 C 0.96662 0.07678 0.63766 0.0
C504 C 0.97446 0.10334 0.70658 0.0
C505 C 0.94585 0.1094 0.70976 0.0
C506 C 0.92779 0.09998 0.67605 0.0
C507 C 0.93839 0.08381 0.64036 0.0
C508 C 0.99441 0.11314 0.74179 0.0
C509 C 0.89715 0.10605 0.67835 0.0
H510 H 0.91229 0.10259 0.84874 0.0
H511 H 0.92091 0.19572 0.7956 0.0
H512 H 0.91736 0.05951 0.75285 0.0
H513 H 0.95127 0.06156 0.77578 0.0
H514 H 0.92198 0.05636 0.81012 0.0
H515 H 0.9366 0.20425 0.72572 0.0
H516 H 0.96237 0.17573 0.71009 0.0
H517 H 0.92822 0.17281 0.68832 0.0
H518 H 0.00636 0.08199 0.66878 0.0
H519 H 0.92441 0.07602 0.61505 0.0
H520 H 0.9897 0.10005 0.77157 0.0
H521 H 0.99212 0.13878 0.74903 0.0
H522 H 0.01621 0.10841 0.73321 0.0
H523 H 0.88831 0.09238 0.70519 0.0
H524 H 0.88616 0.09918 0.64825 0.0
H525 H 0.89315 0.1315 0.68496 0.0
C526 C 0.42639 0.33549 0.27243 0.0
C527 C 0.4005 0.32142 0.26517 0.0
C528 C 0.43882 0.35416 0.24098 0.0
C529 C 0.4249 0.35923 0.20146 0.0
C530 C 0.39913 0.34448 0.19345 0.0
C531 C 0.38731 0.32563 0.22529 0.0
C532 C 0.46644 0.36932 0.2506 0.0
C533 C 0.38362 0.3494 0.15174 0.0
C534 C 0.44124 0.43515 0.14235 0.0
C535 C 0.4589 0.42435 0.11003 0.0
C536 C 0.42994 0.41415 0.17205 0.0
C537 C 0.43653 0.38151 0.16961 0.0
C538 C 0.45426 0.37036 0.13709 0.0
C539 C 0.46519 0.3919 0.10759 0.0
C540 C 0.41098 0.42694 0.20616 0.0
C541 C 0.46186 0.33573 0.13368 0.0
H542 H 0.43661 0.33277 0.30327 0.0
H543 H 0.36756 0.31439 0.21906 0.0
H544 H 0.48112 0.36403 0.2245 0.0
H545 H 0.46405 0.39545 0.25227 0.0
H546 H 0.47553 0.36103 0.28142 0.0
H547 H 0.36444 0.33504 0.14969 0.0
H548 H 0.37804 0.37479 0.14842 0.0
H549 H 0.39689 0.34312 0.12423 0.0
H550 H 0.43617 0.46013 0.1445 0.0
H551 H 0.47884 0.38331 0.08283 0.0
H552 H 0.41976 0.42199 0.23844 0.0
H553 H 0.39069 0.41485 0.20398 0.0
H554 H 0.40762 0.45289 0.20329 0.0
H555 H 0.47224 0.32797 0.16373 0.0
H556 H 0.47577 0.33083 0.10637 0.0
H557 H 0.44297 0.32114 0.12964 0.0
C558 C 0.09899 0.851 0.7928 0.0
C559 C 0.07932 0.84699 0.82499 0.0
C560 C 0.09203 0.86579 0.75393 0.0
C561 C 0.06481 0.87703 0.74724 0.0
C562 C 0.04463 0.87201 0.77892 0.0
C563 C 0.0521 0.85694 0.8173 0.0
C564 C 0.11407 0.87053 0.72077 0.0
C565 C 0.01538 0.88365 0.773 0.0
C566 C 0.05325 0.94762 0.6745 0.0
C567 C 0.04186 0.93335 0.63757 0.0
C568 C 0.06119 0.92946 0.71005 0.0
C569 C 0.05787 0.89614 0.70867 0.0
C570 C 0.04706 0.88144 0.67118 0.0
C571 C 0.03908 0.90023 0.6361 0.0
C572 C 0.07253 0.94607 0.74953 0.0
C573 C 0.04348 0.84593 0.66842 0.0
H574 H 0.12012 0.84367 0.79858 0.0
H575 H 0.03666 0.85338 0.84166 0.0
H576 H 0.10665 0.86227 0.68883 0.0
H577 H 0.11882 0.89616 0.71804 0.0
H578 H 0.13343 0.85773 0.72901 0.0
H579 H 0.00179 0.87623 0.79956 0.0
H580 H 0.01524 0.90992 0.77134 0.0
H581 H 0.00657 0.87457 0.74232 0.0
H582 H 0.05549 0.97316 0.67606 0.0
H583 H 0.03041 0.88895 0.60768 0.0
H584 H 0.09311 0.93634 0.75809 0.0
H585 H 0.05879 0.94176 0.77711 0.0
H586 H 0.07449 0.97207 0.74502 0.0
H587 H 0.0633 0.83391 0.67586 0.0
H588 H 0.03615 0.83803 0.63621 0.0
H589 H 0.02838 0.83808 0.6926 0.0
loop_
_geom_bond_atom_site_label_1
_geom_bond_atom_site_label_2
_geom_bond_distance
_geom_bond_site_symmetry_2
_ccdc_geom_bond_type
C0 C1 1.264 . S
C0 C5 1.479 . S
C0 C10 1.465 . S
C1 C0 1.264 . S
C1 C3 1.339 . S
C1 H28 0.931 . S
C2 C3 1.395 . S
C2 C4 1.320 . S
C3 C1 1.339 . S
C3 C2 1.395 . S
C3 H29 0.929 . S
C4 C2 1.320 . S
C4 C5 1.405 . S
C4 H30 0.930 . S
C5 C0 1.479 . S
C5 C4 1.405 . S
C5 H31 0.931 . S
U6 O7 2.454 . S
U6 O8 2.458 1_554 S
U6 C9 2.984 . S
U6 C10 2.847 . S
U6 C23 2.882 1_554 S
U6 O24 2.441 . S
U6 O25 2.420 . S
U6 O26 2.455 1_554 S
U6 O27 2.449 1_554 S
O7 U6 2.454 . S
O7 C9 1.353 . S
O8 U6 2.458 1_556 S
O8 C9 1.286 1_556 S
C9 U6 2.984 . S
C9 O7 1.353 . S
C9 O8 1.286 1_554 S
C9 C11 1.363 . S
C10 C0 1.465 . S
C10 U6 2.847 . S
C10 O24 1.249 . S
C10 O25 1.202 . S
C11 C9 1.363 . S
C11 C13 1.408 . S
C11 C16 1.342 1_554 S
C12 C13 1.310 . S
C12 C15 1.461 . S
C12 H32 0.932 . S
C13 C11 1.408 . S
C13 C12 1.310 . S
C13 H33 0.930 . S
C14 C15 1.474 1_556 S
C14 C16 1.285 . S
C14 H34 0.929 . S
C15 C12 1.461 . S
C15 C14 1.474 1_554 S
C16 C11 1.342 1_556 S
C16 C14 1.285 . S
C16 H35 0.930 . S
C17 C20 1.424 . S
C17 C22 1.245 . S
C17 C23 1.428 . S
C18 C21 1.260 . S
C18 C22 1.477 . S
C18 H36 0.932 . S
C19 C20 1.384 . S
C19 C21 1.479 . S
C19 H37 0.929 . S
C20 C17 1.424 . S
C20 C19 1.384 . S
C20 H38 0.928 . S
C21 C18 1.260 . S
C21 C19 1.479 . S
C22 C17 1.245 . S
C22 C18 1.477 . S
C22 H39 0.932 . S
C23 U6 2.882 1_556 S
C23 C17 1.428 . S
C23 O26 1.301 . S
C23 O27 1.282 . S
O24 U6 2.441 . S
O24 C10 1.249 . S
O25 U6 2.420 . S
O25 C10 1.202 . S
O26 U6 2.455 1_556 S
O26 C23 1.301 . S
O27 U6 2.449 1_556 S
O27 C23 1.282 . S
H28 C1 0.931 . S
H29 C3 0.929 . S
H30 C4 0.930 . S
H31 C5 0.931 . S
H32 C12 0.932 . S
H33 C13 0.930 . S
H34 C14 0.929 . S
H35 C16 0.930 . S
H36 C18 0.932 . S
H37 C19 0.929 . S
H38 C20 0.928 . S
H39 C22 0.932 . S
C40 C41 1.264 . S
C40 C45 1.479 . S
C40 C50 1.465 . S
C41 C40 1.264 . S
C41 C43 1.339 . S
C41 H68 0.931 . S
C42 C43 1.395 . S
C42 C44 1.320 . S
C43 C41 1.339 . S
C43 C42 1.395 . S
C43 H69 0.929 . S
C44 C42 1.320 . S
C44 C45 1.405 . S
C44 H70 0.930 . S
C45 C40 1.479 . S
C45 C44 1.405 . S
C45 H71 0.931 . S
U46 O47 2.454 . S
U46 O48 2.458 . S
U46 C49 2.984 . S
U46 C50 2.847 . S
U46 C63 2.882 . S
U46 O64 2.441 . S
U46 O65 2.420 . S
U46 O66 2.455 . S
U46 O67 2.449 . S
O47 U46 2.454 . S
O47 C49 1.353 . S
O48 U46 2.458 . S
O48 C49 1.286 . S
C49 U46 2.984 . S
C49 O47 1.353 . S
C49 O48 1.286 . S
C49 C51 1.363 . S
C50 C40 1.465 . S
C50 U46 2.847 . S
C50 O64 1.249 . S
C50 O65 1.202 . S
C51 C49 1.363 . S
C51 C53 1.408 . S
C51 C56 1.342 . S
C52 C53 1.310 . S
C52 C55 1.461 . S
C52 H72 0.932 . S
C53 C51 1.408 . S
C53 C52 1.310 . S
C53 H73 0.930 . S
C54 C55 1.474 . S
C54 C56 1.285 . S
C54 H74 0.929 . S
C55 C52 1.461 . S
C55 C54 1.474 . S
C56 C51 1.342 . S
C56 C54 1.285 . S
C56 H75 0.930 . S
C57 C60 1.424 . S
C57 C62 1.245 . S
C57 C63 1.428 . S
C58 C61 1.260 . S
C58 C62 1.477 . S
C58 H76 0.932 . S
C59 C60 1.384 . S
C59 C61 1.479 . S
C59 H77 0.929 . S
C60 C57 1.424 . S
C60 C59 1.384 . S
C60 H78 0.928 . S
C61 C58 1.260 . S
C61 C59 1.479 . S
C62 C57 1.245 . S
C62 C58 1.477 . S
C62 H79 0.932 . S
C63 U46 2.882 . S
C63 C57 1.428 . S
C63 O66 1.301 . S
C63 O67 1.282 . S
O64 U46 2.441 . S
O64 C50 1.249 . S
O65 U46 2.420 . S
O65 C50 1.202 . S
O66 U46 2.455 . S
O66 C63 1.301 . S
O67 U46 2.449 . S
O67 C63 1.282 . S
H68 C41 0.931 . S
H69 C43 0.929 . S
H70 C44 0.930 . S
H71 C45 0.931 . S
H72 C52 0.932 . S
H73 C53 0.930 . S
H74 C54 0.929 . S
H75 C56 0.930 . S
H76 C58 0.932 . S
H77 C59 0.929 . S
H78 C60 0.928 . S
H79 C62 0.932 . S
C80 C81 1.264 . S
C80 C85 1.479 . S
C80 C90 1.465 . S
C81 C80 1.264 . S
C81 C83 1.339 . S
C81 H108 0.931 . S
C82 C83 1.395 . S
C82 C84 1.320 . S
C83 C81 1.339 . S
C83 C82 1.395 . S
C83 H109 0.929 . S
C84 C82 1.320 . S
C84 C85 1.405 . S
C84 H110 0.930 . S
C85 C80 1.479 . S
C85 C84 1.405 . S
C85 H111 0.931 . S
U86 O87 2.454 . S
U86 O88 2.458 1_554 S
U86 C89 2.984 . S
U86 C90 2.847 . S
U86 C103 2.882 1_554 S
U86 O104 2.441 . S
U86 O105 2.420 . S
U86 O106 2.455 1_554 S
U86 O107 2.449 1_554 S
O87 U86 2.454 . S
O87 C89 1.353 . S
O88 U86 2.458 1_556 S
O88 C89 1.286 1_556 S
C89 U86 2.984 . S
C89 O87 1.353 . S
C89 O88 1.286 1_554 S
C89 C91 1.363 . S
C90 C80 1.465 . S
C90 U86 2.847 . S
C90 O104 1.249 . S
C90 O105 1.202 . S
C91 C89 1.363 . S
C91 C93 1.408 . S
C91 C96 1.342 1_554 S
C92 C93 1.310 . S
C92 C95 1.461 . S
C92 H112 0.932 . S
C93 C91 1.408 . S
C93 C92 1.310 . S
C93 H113 0.930 . S
C94 C95 1.474 1_556 S
C94 C96 1.285 . S
C94 H114 0.929 . S
C95 C92 1.461 . S
C95 C94 1.474 1_554 S
C96 C91 1.342 1_556 S
C96 C94 1.285 . S
C96 H115 0.930 . S
C97 C100 1.424 . S
C97 C102 1.245 . S
C97 C103 1.428 . S
C98 C101 1.260 . S
C98 C102 1.477 . S
C98 H116 0.932 . S
C99 C100 1.384 . S
C99 C101 1.479 . S
C99 H117 0.929 . S
C100 C97 1.424 . S
C100 C99 1.384 . S
C100 H118 0.928 . S
C101 C98 1.260 . S
C101 C99 1.479 . S
C102 C97 1.245 . S
C102 C98 1.477 . S
C102 H119 0.932 . S
C103 U86 2.882 1_556 S
C103 C97 1.428 . S
C103 O106 1.301 . S
C103 O107 1.282 . S
O104 U86 2.441 . S
O104 C90 1.249 . S
O105 U86 2.420 . S
O105 C90 1.202 . S
O106 U86 2.455 1_556 S
O106 C103 1.301 . S
O107 U86 2.449 1_556 S
O107 C103 1.282 . S
H108 C81 0.931 . S
H109 C83 0.929 . S
H110 C84 0.930 . S
H111 C85 0.931 . S
H112 C92 0.932 . S
H113 C93 0.930 . S
H114 C94 0.929 . S
H115 C96 0.930 . S
H116 C98 0.932 . S
H117 C99 0.929 . S
H118 C100 0.928 . S
H119 C102 0.932 . S
C120 C121 1.264 . S
C120 C125 1.479 . S
C120 C130 1.465 . S
C121 C120 1.264 . S
C121 C123 1.339 . S
C121 H148 0.931 . S
C122 C123 1.395 . S
C122 C124 1.320 . S
C123 C121 1.339 . S
C123 C122 1.395 . S
C123 H149 0.929 . S
C124 C122 1.320 . S
C124 C125 1.405 . S
C124 H150 0.930 . S
C125 C120 1.479 . S
C125 C124 1.405 . S
C125 H151 0.931 . S
U126 O127 2.454 . S
U126 O128 2.458 . S
U126 C129 2.984 . S
U126 C130 2.847 . S
U126 C143 2.882 . S
U126 O144 2.441 . S
U126 O145 2.420 . S
U126 O146 2.455 . S
U126 O147 2.449 . S
O127 U126 2.454 . S
O127 C129 1.353 . S
O128 U126 2.458 . S
O128 C129 1.286 . S
C129 U126 2.984 . S
C129 O127 1.353 . S
C129 O128 1.286 . S
C129 C131 1.363 . S
C130 C120 1.465 . S
C130 U126 2.847 . S
C130 O144 1.249 . S
C130 O145 1.202 . S
C131 C129 1.363 . S
C131 C133 1.408 . S
C131 C136 1.342 . S
C132 C133 1.310 . S
C132 C135 1.461 . S
C132 H152 0.932 . S
C133 C131 1.408 . S
C133 C132 1.310 . S
C133 H153 0.930 . S
C134 C135 1.474 . S
C134 C136 1.285 . S
C134 H154 0.929 . S
C135 C132 1.461 . S
C135 C134 1.474 . S
C136 C131 1.342 . S
C136 C134 1.285 . S
C136 H155 0.930 . S
C137 C140 1.424 . S
C137 C142 1.245 . S
C137 C143 1.428 . S
C138 C141 1.260 . S
C138 C142 1.477 . S
C138 H156 0.932 . S
C139 C140 1.384 . S
C139 C141 1.479 . S
C139 H157 0.929 . S
C140 C137 1.424 . S
C140 C139 1.384 . S
C140 H158 0.928 . S
C141 C138 1.260 . S
C141 C139 1.479 . S
C142 C137 1.245 . S
C142 C138 1.477 . S
C142 H159 0.932 . S
C143 U126 2.882 . S
C143 C137 1.428 . S
C143 O146 1.301 . S
C143 O147 1.282 . S
O144 U126 2.441 . S
O144 C130 1.249 . S
O145 U126 2.420 . S
O145 C130 1.202 . S
O146 U126 2.455 . S
O146 C143 1.301 . S
O147 U126 2.449 . S
O147 C143 1.282 . S
H148 C121 0.931 . S
H149 C123 0.929 . S
H150 C124 0.930 . S
H151 C125 0.931 . S
H152 C132 0.932 . S
H153 C133 0.930 . S
H154 C134 0.929 . S
H155 C136 0.930 . S
H156 C138 0.932 . S
H157 C139 0.929 . S
H158 C140 0.928 . S
H159 C142 0.932 . S
O160 Zn161 1.953 1_565 S
O160 C176 1.225 . S
Zn161 O160 1.953 1_545 S
Zn161 O162 1.949 1_655 S
Zn161 O168 1.919 . S
Zn161 O173 1.924 . S
O162 Zn161 1.949 1_455 S
O162 Zn163 1.923 . S
O162 Zn164 1.950 1_445 S
O162 Zn165 1.945 . S
Zn163 O162 1.923 . S
Zn163 O166 1.933 . S
Zn163 O169 1.941 . S
Zn163 O170 1.965 1_545 S
Zn164 O162 1.950 1_665 S
Zn164 O171 1.938 1_655 S
Zn164 O172 1.906 1_655 S
Zn164 O182 1.953 . S
Zn165 O162 1.945 . S
Zn165 O167 1.932 . S
Zn165 O174 1.977 1_545 S
Zn165 O175 1.910 1_455 S
O166 Zn163 1.933 . S
O166 C177 1.226 . S
O167 Zn165 1.932 . S
O167 C177 1.307 . S
O168 Zn161 1.919 . S
O168 C179 1.253 . S
O169 Zn163 1.941 . S
O169 C179 1.283 1_455 S
O170 Zn163 1.965 1_565 S
O170 C178 1.303 . S
O171 Zn164 1.938 1_455 S
O171 C178 1.247 . S
O172 Zn164 1.906 1_455 S
O172 C180 1.304 . S
O173 Zn161 1.924 . S
O173 C181 1.311 . S
O174 Zn165 1.977 1_565 S
O174 C180 1.272 . S
O175 Zn165 1.910 1_655 S
O175 C181 1.231 . S
C176 O160 1.225 . S
C176 O182 1.298 . S
C177 O166 1.226 . S
C177 O167 1.307 . S
C178 O170 1.303 . S
C178 O171 1.247 . S
C179 O168 1.253 . S
C179 O169 1.283 1_655 S
C180 O172 1.304 . S
C180 O174 1.272 . S
C181 O173 1.311 . S
C181 O175 1.231 . S
O182 Zn164 1.953 . S
O182 C176 1.298 . S
O183 Zn184 1.953 . S
O183 C199 1.225 1_556 S
Zn184 O183 1.953 . S
Zn184 O185 1.949 1_556 S
Zn184 O191 1.916 . S
Zn184 O196 1.927 1_556 S
O185 Zn184 1.949 1_554 S
O185 Zn186 1.923 1_554 S
O185 Zn187 1.950 . S
O185 Zn188 1.945 . S
Zn186 O185 1.923 1_556 S
Zn186 O189 1.933 . S
Zn186 O192 1.941 . S
Zn186 O193 1.965 . S
Zn187 O185 1.950 . S
Zn187 O194 1.938 1_554 S
Zn187 O195 1.906 . S
Zn187 O205 1.953 . S
Zn188 O185 1.945 . S
Zn188 O190 1.932 . S
Zn188 O197 1.977 . S
Zn188 O198 1.910 . S
O189 Zn186 1.933 . S
O189 C200 1.226 1_556 S
O190 Zn188 1.932 . S
O190 C200 1.307 . S
O191 Zn184 1.916 . S
O191 C202 1.253 . S
O192 Zn186 1.941 . S
O192 C202 1.283 . S
O193 Zn186 1.965 . S
O193 C201 1.303 . S
O194 Zn187 1.938 1_556 S
O194 C201 1.247 . S
O195 Zn187 1.906 . S
O195 C203 1.304 . S
O196 Zn184 1.927 1_554 S
O196 C204 1.311 . S
O197 Zn188 1.977 . S
O197 C203 1.272 . S
O198 Zn188 1.910 . S
O198 C204 1.231 . S
C199 O183 1.225 1_554 S
C199 O205 1.298 . S
C200 O189 1.226 1_554 S
C200 O190 1.307 . S
C201 O193 1.303 . S
C201 O194 1.247 . S
C202 O191 1.253 . S
C202 O192 1.283 . S
C203 O195 1.304 . S
C203 O197 1.272 . S
C204 O196 1.311 . S
C204 O198 1.231 . S
O205 Zn187 1.953 . S
O205 C199 1.298 . S
C206 C207 1.391 . S
C206 C208 1.394 . S
C206 H222 0.931 . S
C207 C206 1.391 . S
C207 C211 1.376 . S
C208 C206 1.394 . S
C208 C209 1.369 . S
C208 C212 1.531 . S
C209 C208 1.369 . S
C209 C210 1.410 . S
C209 C217 1.503 . S
C210 C209 1.410 . S
C210 C211 1.392 . S
C210 C213 1.511 . S
C211 C207 1.376 . S
C211 C210 1.392 . S
C211 H223 0.929 . S
C212 C208 1.531 . S
C212 H224 0.960 . S
C212 H225 0.962 . S
C212 H226 0.960 . S
C213 C210 1.511 . S
C213 H227 0.961 . S
C213 H228 0.961 . S
C213 H229 0.961 . S
C214 C215 1.370 . S
C214 C216 1.363 . S
C214 H230 0.931 . S
C215 C214 1.370 . S
C215 C219 1.408 . S
C216 C214 1.363 . S
C216 C217 1.370 . S
C216 C220 1.524 . S
C217 C209 1.503 . S
C217 C216 1.370 . S
C217 C218 1.403 . S
C218 C217 1.403 . S
C218 C219 1.404 . S
C218 C221 1.539 . S
C219 C215 1.408 . S
C219 C218 1.404 . S
C219 H231 0.930 . S
C220 C216 1.524 . S
C220 H232 0.956 . S
C220 H233 0.961 . S
C220 H234 0.961 . S
C221 C218 1.539 . S
C221 H235 0.958 . S
C221 H236 0.961 . S
C221 H237 0.960 . S
H222 C206 0.931 . S
H223 C211 0.929 . S
H224 C212 0.960 . S
H225 C212 0.962 . S
H226 C212 0.960 . S
H227 C213 0.961 . S
H228 C213 0.961 . S
H229 C213 0.961 . S
H230 C214 0.931 . S
H231 C219 0.930 . S
H232 C220 0.956 . S
H233 C220 0.961 . S
H234 C220 0.961 . S
H235 C221 0.958 . S
H236 C221 0.961 . S
H237 C221 0.960 . S
C238 C239 1.391 . S
C238 C240 1.394 . S
C238 H254 0.931 . S
C239 C238 1.391 . S
C239 C243 1.376 1_554 S
C240 C238 1.394 . S
C240 C241 1.369 . S
C240 C244 1.531 . S
C241 C240 1.369 . S
C241 C242 1.410 1_554 S
C241 C249 1.503 . S
C242 C241 1.410 1_556 S
C242 C243 1.392 . S
C242 C245 1.511 . S
C243 C239 1.376 1_556 S
C243 C242 1.392 . S
C243 H255 0.929 . S
C244 C240 1.531 . S
C244 H256 0.960 . S
C244 H257 0.962 . S
C244 H258 0.960 . S
C245 C242 1.511 . S
C245 H259 0.961 . S
C245 H260 0.961 . S
C245 H261 0.961 . S
C246 C247 1.370 1_556 S
C246 C248 1.363 . S
C246 H262 0.931 . S
C247 C246 1.370 1_554 S
C247 C251 1.408 . S
C248 C246 1.363 . S
C248 C249 1.370 1_556 S
C248 C252 1.524 . S
C249 C241 1.503 . S
C249 C248 1.370 1_554 S
C249 C250 1.403 . S
C250 C249 1.403 . S
C250 C251 1.404 . S
C250 C253 1.539 . S
C251 C247 1.408 . S
C251 C250 1.404 . S
C251 H263 0.930 . S
C252 C248 1.524 . S
C252 H264 0.956 . S
C252 H265 0.961 . S
C252 H266 0.961 . S
C253 C250 1.539 . S
C253 H267 0.958 . S
C253 H268 0.961 . S
C253 H269 0.960 . S
H254 C238 0.931 . S
H255 C243 0.929 . S
H256 C244 0.960 . S
H257 C244 0.962 . S
H258 C244 0.960 . S
H259 C245 0.961 . S
H260 C245 0.961 . S
H261 C245 0.961 . S
H262 C246 0.931 . S
H263 C251 0.930 . S
H264 C252 0.956 . S
H265 C252 0.961 . S
H266 C252 0.961 . S
H267 C253 0.958 . S
H268 C253 0.961 . S
H269 C253 0.960 . S
C270 C271 1.391 . S
C270 C272 1.394 . S
C270 H286 0.931 . S
C271 C270 1.391 . S
C271 C275 1.376 . S
C272 C270 1.394 . S
C272 C273 1.369 . S
C272 C276 1.531 . S
C273 C272 1.369 . S
C273 C274 1.410 . S
C273 C281 1.503 . S
C274 C273 1.410 . S
C274 C275 1.392 . S
C274 C277 1.511 . S
C275 C271 1.376 . S
C275 C274 1.392 . S
C275 H287 0.929 . S
C276 C272 1.531 . S
C276 H288 0.960 . S
C276 H289 0.962 . S
C276 H290 0.960 . S
C277 C274 1.511 . S
C277 H291 0.961 . S
C277 H292 0.961 . S
C277 H293 0.961 . S
C278 C279 1.370 . S
C278 C280 1.363 . S
C278 H294 0.931 . S
C279 C278 1.370 . S
C279 C283 1.408 . S
C280 C278 1.363 . S
C280 C281 1.370 . S
C280 C284 1.524 . S
C281 C273 1.503 . S
C281 C280 1.370 . S
C281 C282 1.403 . S
C282 C281 1.403 . S
C282 C283 1.404 . S
C282 C285 1.539 . S
C283 C279 1.408 . S
C283 C282 1.404 . S
C283 H295 0.930 . S
C284 C280 1.524 . S
C284 H296 0.956 . S
C284 H297 0.961 . S
C284 H298 0.961 . S
C285 C282 1.539 . S
C285 H299 0.958 . S
C285 H300 0.961 . S
C285 H301 0.960 . S
H286 C270 0.931 . S
H287 C275 0.929 . S
H288 C276 0.960 . S
H289 C276 0.962 . S
H290 C276 0.960 . S
H291 C277 0.961 . S
H292 C277 0.961 . S
H293 C277 0.961 . S
H294 C278 0.931 . S
H295 C283 0.930 . S
H296 C284 0.956 . S
H297 C284 0.961 . S
H298 C284 0.961 . S
H299 C285 0.958 . S
H300 C285 0.961 . S
H301 C285 0.960 . S
C302 C303 1.391 . S
C302 C304 1.394 . S
C302 H318 0.931 . S
C303 C302 1.391 . S
C303 C307 1.376 1_554 S
C304 C302 1.394 . S
C304 C305 1.369 . S
C304 C308 1.531 . S
C305 C304 1.369 . S
C305 C306 1.410 . S
C305 C313 1.503 . S
C306 C305 1.410 . S
C306 C307 1.392 1_554 S
C306 C309 1.511 1_554 S
C307 C303 1.376 1_556 S
C307 C306 1.392 1_556 S
C307 H319 0.929 . S
C308 C304 1.531 . S
C308 H320 0.960 . S
C308 H321 0.962 . S
C308 H322 0.960 . S
C309 C306 1.511 1_556 S
C309 H323 0.961 . S
C309 H324 0.961 . S
C309 H325 0.961 1_556 S
C310 C311 1.370 1_556 S
C310 C312 1.363 . S
C310 H326 0.931 . S
C311 C310 1.370 1_554 S
C311 C315 1.408 . S
C312 C310 1.363 . S
C312 C313 1.370 1_556 S
C312 C316 1.524 . S
C313 C305 1.503 . S
C313 C312 1.370 1_554 S
C313 C314 1.403 . S
C314 C313 1.403 . S
C314 C315 1.404 . S
C314 C317 1.539 . S
C315 C311 1.408 . S
C315 C314 1.404 . S
C315 H327 0.930 . S
C316 C312 1.524 . S
C316 H328 0.956 . S
C316 H329 0.961 . S
C316 H330 0.961 . S
C317 C314 1.539 . S
C317 H331 0.958 . S
C317 H332 0.961 . S
C317 H333 0.960 . S
H318 C302 0.931 . S
H319 C307 0.929 . S
H320 C308 0.960 . S
H321 C308 0.962 . S
H322 C308 0.960 . S
H323 C309 0.961 . S
H324 C309 0.961 . S
H325 C309 0.961 1_554 S
H326 C310 0.931 . S
H327 C315 0.930 . S
H328 C316 0.956 . S
H329 C316 0.961 . S
H330 C316 0.961 . S
H331 C317 0.958 . S
H332 C317 0.961 . S
H333 C317 0.960 . S
C334 C335 1.391 . S
C334 C336 1.394 . S
C334 H350 0.931 . S
C335 C334 1.391 . S
C335 C339 1.376 . S
C336 C334 1.394 . S
C336 C337 1.369 . S
C336 C340 1.531 . S
C337 C336 1.369 . S
C337 C338 1.410 . S
C337 C345 1.503 . S
C338 C337 1.410 . S
C338 C339 1.392 . S
C338 C341 1.511 . S
C339 C335 1.376 . S
C339 C338 1.392 . S
C339 H351 0.929 . S
C340 C336 1.531 . S
C340 H352 0.960 . S
C340 H353 0.936 1_455 S
C340 H354 0.960 . S
C341 C338 1.511 . S
C341 H355 0.961 . S
C341 H356 0.961 . S
C341 H357 0.961 . S
C342 C343 1.370 . S
C342 C344 1.363 . S
C342 H358 0.931 . S
C343 C342 1.370 . S
C343 C347 1.408 . S
C344 C342 1.363 . S
C344 C345 1.370 . S
C344 C348 1.524 . S
C345 C337 1.503 . S
C345 C344 1.370 . S
C345 C346 1.403 . S
C346 C345 1.403 . S
C346 C347 1.404 . S
C346 C349 1.539 . S
C347 C343 1.408 . S
C347 C346 1.404 . S
C347 H359 0.930 . S
C348 C344 1.524 . S
C348 H360 0.956 . S
C348 H361 0.961 . S
C348 H362 0.961 . S
C349 C346 1.539 . S
C349 H363 0.958 . S
C349 H364 0.961 . S
C349 H365 0.960 . S
H350 C334 0.931 . S
H351 C339 0.929 . S
H352 C340 0.960 . S
H353 C340 0.936 1_655 S
H354 C340 0.960 . S
H355 C341 0.961 . S
H356 C341 0.961 . S
H357 C341 0.961 . S
H358 C342 0.931 . S
H359 C347 0.930 . S
H360 C348 0.956 . S
H361 C348 0.961 . S
H362 C348 0.961 . S
H363 C349 0.958 . S
H364 C349 0.961 . S
H365 C349 0.960 . S
C366 C367 1.391 . S
C366 C368 1.394 . S
C366 H382 0.931 . S
C367 C366 1.391 . S
C367 C371 1.376 . S
C368 C366 1.394 . S
C368 C369 1.369 . S
C368 C372 1.531 . S
C369 C368 1.369 . S
C369 C370 1.410 . S
C369 C377 1.503 . S
C370 C369 1.410 . S
C370 C371 1.392 . S
C370 C373 1.511 . S
C371 C367 1.376 . S
C371 C370 1.392 . S
C371 H383 0.929 . S
C372 C368 1.531 . S
C372 H384 0.960 . S
C372 H385 0.962 . S
C372 H386 0.960 . S
C373 C370 1.511 . S
C373 H387 0.961 . S
C373 H388 0.961 . S
C373 H389 0.961 . S
C374 C375 1.370 . S
C374 C376 1.363 . S
C374 H390 0.931 . S
C375 C374 1.370 . S
C375 C379 1.408 . S
C376 C374 1.363 . S
C376 C377 1.370 . S
C376 C380 1.524 . S
C377 C369 1.503 . S
C377 C376 1.370 . S
C377 C378 1.403 . S
C378 C377 1.403 . S
C378 C379 1.404 . S
C378 C381 1.539 . S
C379 C375 1.408 . S
C379 C378 1.404 . S
C379 H391 0.930 . S
C380 C376 1.524 . S
C380 H392 0.956 . S
C380 H393 0.961 . S
C380 H394 0.961 . S
C381 C378 1.539 . S
C381 H395 0.958 . S
C381 H396 0.961 . S
C381 H397 0.960 . S
H382 C366 0.931 . S
H383 C371 0.929 . S
H384 C372 0.960 . S
H385 C372 0.962 . S
H386 C372 0.960 . S
H387 C373 0.961 . S
H388 C373 0.961 . S
H389 C373 0.961 . S
H390 C374 0.931 . S
H391 C379 0.930 . S
H392 C380 0.956 . S
H393 C380 0.961 . S
H394 C380 0.961 . S
H395 C381 0.958 . S
H396 C381 0.961 . S
H397 C381 0.960 . S
C398 C399 1.391 . S
C398 C400 1.394 . S
C398 H414 0.931 . S
C399 C398 1.391 . S
C399 C403 1.376 . S
C400 C398 1.394 . S
C400 C401 1.369 . S
C400 C404 1.531 . S
C401 C400 1.369 . S
C401 C402 1.410 . S
C401 C409 1.503 . S
C402 C401 1.410 . S
C402 C403 1.392 . S
C402 C405 1.511 1_655 S
C403 C399 1.376 . S
C403 C402 1.392 . S
C403 H415 0.929 . S
C404 C400 1.531 . S
C404 H416 0.960 . S
C404 H417 0.962 . S
C404 H418 0.960 . S
C405 C402 1.511 1_455 S
C405 H419 0.961 . S
C405 H420 0.961 . S
C405 H421 0.961 . S
C406 C407 1.370 . S
C406 C408 1.363 . S
C406 H422 0.931 . S
C407 C406 1.370 . S
C407 C411 1.408 . S
C408 C406 1.363 . S
C408 C409 1.370 . S
C408 C412 1.524 . S
C409 C401 1.503 . S
C409 C408 1.370 . S
C409 C410 1.403 . S
C410 C409 1.403 . S
C410 C411 1.404 . S
C410 C413 1.539 . S
C411 C407 1.408 . S
C411 C410 1.404 . S
C411 H423 0.930 . S
C412 C408 1.524 . S
C412 H424 0.956 . S
C412 H425 0.961 . S
C412 H426 0.961 . S
C413 C410 1.539 . S
C413 H427 0.958 . S
C413 H428 0.961 . S
C413 H429 0.960 . S
H414 C398 0.931 . S
H415 C403 0.929 . S
H416 C404 0.960 . S
H417 C404 0.962 . S
H418 C404 0.960 . S
H419 C405 0.961 . S
H420 C405 0.961 . S
H421 C405 0.961 . S
H422 C406 0.931 . S
H423 C411 0.930 . S
H424 C412 0.956 . S
H425 C412 0.961 . S
H426 C412 0.961 . S
H427 C413 0.958 . S
H428 C413 0.961 . S
H429 C413 0.960 . S
C430 C431 1.391 . S
C430 C432 1.394 . S
C430 H446 0.931 . S
C431 C430 1.391 . S
C431 C435 1.376 . S
C432 C430 1.394 . S
C432 C433 1.369 . S
C432 C436 1.531 . S
C433 C432 1.369 . S
C433 C434 1.410 . S
C433 C441 1.503 . S
C434 C433 1.410 . S
C434 C435 1.392 . S
C434 C437 1.511 . S
C435 C431 1.376 . S
C435 C434 1.392 . S
C435 H447 0.929 . S
C436 C432 1.531 . S
C436 H448 0.960 . S
C436 H449 0.962 . S
C436 H450 0.960 . S
C437 C434 1.511 . S
C437 H451 0.961 . S
C437 H452 0.961 . S
C437 H453 0.961 . S
C438 C439 1.370 . S
C438 C440 1.363 . S
C438 H454 0.931 . S
C439 C438 1.370 . S
C439 C443 1.408 . S
C440 C438 1.363 . S
C440 C441 1.370 . S
C440 C444 1.524 . S
C441 C433 1.503 . S
C441 C440 1.370 . S
C441 C442 1.403 . S
C442 C441 1.403 . S
C442 C443 1.404 . S
C442 C445 1.539 . S
C443 C439 1.408 . S
C443 C442 1.404 . S
C443 H455 0.930 . S
C444 C440 1.524 . S
C444 H456 0.956 . S
C444 H457 0.961 . S
C444 H458 0.961 . S
C445 C442 1.539 . S
C445 H459 0.958 . S
C445 H460 0.961 . S
C445 H461 0.960 . S
H446 C430 0.931 . S
H447 C435 0.929 . S
H448 C436 0.960 . S
H449 C436 0.962 . S
H450 C436 0.960 . S
H451 C437 0.961 . S
H452 C437 0.961 . S
H453 C437 0.961 . S
H454 C438 0.931 . S
H455 C443 0.930 . S
H456 C444 0.956 . S
H457 C444 0.961 . S
H458 C444 0.961 . S
H459 C445 0.958 . S
H460 C445 0.961 . S
H461 C445 0.960 . S
C462 C463 1.391 . S
C462 C464 1.394 . S
C462 H478 0.931 . S
C463 C462 1.391 . S
C463 C467 1.376 . S
C464 C462 1.394 . S
C464 C465 1.369 . S
C464 C468 1.531 . S
C465 C464 1.369 . S
C465 C466 1.410 . S
C465 C473 1.503 . S
C466 C465 1.410 . S
C466 C467 1.392 . S
C466 C469 1.511 . S
C467 C463 1.376 . S
C467 C466 1.392 . S
C467 H479 0.929 . S
C468 C464 1.531 . S
C468 H480 0.960 . S
C468 H481 0.962 . S
C468 H482 0.960 . S
C469 C466 1.511 . S
C469 H483 0.961 . S
C469 H484 0.961 . S
C469 H485 0.961 . S
C470 C471 1.370 . S
C470 C472 1.363 . S
C470 H486 0.931 . S
C471 C470 1.370 . S
C471 C475 1.408 . S
C472 C470 1.363 . S
C472 C473 1.370 . S
C472 C476 1.524 . S
C473 C465 1.503 . S
C473 C472 1.370 . S
C473 C474 1.403 . S
C474 C473 1.403 . S
C474 C475 1.404 . S
C474 C477 1.539 . S
C475 C471 1.408 . S
C475 C474 1.404 . S
C475 H487 0.930 . S
C476 C472 1.524 . S
C476 H488 0.956 . S
C476 H489 0.961 . S
C476 H490 0.961 . S
C477 C474 1.539 . S
C477 H491 0.958 . S
C477 H492 0.961 . S
C477 H493 0.960 . S
H478 C462 0.931 . S
H479 C467 0.929 . S
H480 C468 0.960 . S
H481 C468 0.962 . S
H482 C468 0.960 . S
H483 C469 0.961 . S
H484 C469 0.961 . S
H485 C469 0.961 . S
H486 C470 0.931 . S
H487 C475 0.930 . S
H488 C476 0.956 . S
H489 C476 0.961 . S
H490 C476 0.961 . S
H491 C477 0.958 . S
H492 C477 0.961 . S
H493 C477 0.960 . S
C494 C495 1.391 . S
C494 C496 1.394 . S
C494 H510 0.931 . S
C495 C494 1.391 . S
C495 C499 1.376 . S
C496 C494 1.394 . S
C496 C497 1.369 . S
C496 C500 1.531 . S
C497 C496 1.369 . S
C497 C498 1.410 . S
C497 C505 1.503 . S
C498 C497 1.410 . S
C498 C499 1.392 . S
C498 C501 1.511 . S
C499 C495 1.376 . S
C499 C498 1.392 . S
C499 H511 0.929 . S
C500 C496 1.531 . S
C500 H512 0.960 . S
C500 H513 0.962 1_655 S
C500 H514 0.960 . S
C501 C498 1.511 . S
C501 H515 0.961 . S
C501 H516 0.961 . S
C501 H517 0.961 . S
C502 C503 1.370 . S
C502 C504 1.363 . S
C502 H518 0.931 1_655 S
C503 C502 1.370 . S
C503 C507 1.408 . S
C504 C502 1.363 . S
C504 C505 1.370 . S
C504 C508 1.524 1_655 S
C505 C497 1.503 . S
C505 C504 1.370 . S
C505 C506 1.403 . S
C506 C505 1.403 . S
C506 C507 1.404 . S
C506 C509 1.539 . S
C507 C503 1.408 . S
C507 C506 1.404 . S
C507 H519 0.930 . S
C508 C504 1.524 1_455 S
C508 H520 0.956 . S
C508 H521 0.961 1_455 S
C508 H522 0.961 . S
C509 C506 1.539 . S
C509 H523 0.958 . S
C509 H524 0.961 . S
C509 H525 0.960 . S
H510 C494 0.931 . S
H511 C499 0.929 . S
H512 C500 0.960 . S
H513 C500 0.962 1_455 S
H514 C500 0.960 . S
H515 C501 0.961 . S
H516 C501 0.961 . S
H517 C501 0.961 . S
H518 C502 0.931 1_455 S
H519 C507 0.930 . S
H520 C508 0.956 . S
H521 C508 0.961 1_655 S
H522 C508 0.961 . S
H523 C509 0.958 . S
H524 C509 0.961 . S
H525 C509 0.960 . S
C526 C527 1.391 . S
C526 C528 1.394 . S
C526 H542 0.931 . S
C527 C526 1.391 . S
C527 C531 1.376 . S
C528 C526 1.394 . S
C528 C529 1.369 . S
C528 C532 1.531 . S
C529 C528 1.369 . S
C529 C530 1.410 . S
C529 C537 1.503 . S
C530 C529 1.410 . S
C530 C531 1.392 . S
C530 C533 1.511 . S
C531 C527 1.376 . S
C531 C530 1.392 . S
C531 H543 0.929 . S
C532 C528 1.531 . S
C532 H544 0.960 . S
C532 H545 0.962 . S
C532 H546 0.960 . S
C533 C530 1.511 . S
C533 H547 0.961 . S
C533 H548 0.961 . S
C533 H549 0.961 . S
C534 C535 1.370 . S
C534 C536 1.363 . S
C534 H550 0.931 . S
C535 C534 1.370 . S
C535 C539 1.408 . S
C536 C534 1.363 . S
C536 C537 1.370 . S
C536 C540 1.524 . S
C537 C529 1.503 . S
C537 C536 1.370 . S
C537 C538 1.403 . S
C538 C537 1.403 . S
C538 C539 1.404 . S
C538 C541 1.539 . S
C539 C535 1.408 . S
C539 C538 1.404 . S
C539 H551 0.930 . S
C540 C536 1.524 . S
C540 H552 0.956 . S
C540 H553 0.961 . S
C540 H554 0.961 . S
C541 C538 1.539 . S
C541 H555 0.958 . S
C541 H556 0.961 . S
C541 H557 0.960 . S
H542 C526 0.931 . S
H543 C531 0.929 . S
H544 C532 0.960 . S
H545 C532 0.962 . S
H546 C532 0.960 . S
H547 C533 0.961 . S
H548 C533 0.961 . S
H549 C533 0.961 . S
H550 C534 0.931 . S
H551 C539 0.930 . S
H552 C540 0.956 . S
H553 C540 0.961 . S
H554 C540 0.961 . S
H555 C541 0.958 . S
H556 C541 0.961 . S
H557 C541 0.960 . S
C558 C559 1.391 . S
C558 C560 1.394 . S
C558 H574 0.931 . S
C559 C558 1.391 . S
C559 C563 1.376 . S
C560 C558 1.394 . S
C560 C561 1.369 . S
C560 C564 1.531 . S
C561 C560 1.369 . S
C561 C562 1.410 . S
C561 C569 1.503 . S
C562 C561 1.410 . S
C562 C563 1.392 . S
C562 C565 1.516 . S
C563 C559 1.376 . S
C563 C562 1.392 . S
C563 H575 0.929 . S
C564 C560 1.531 . S
C564 H576 0.960 . S
C564 H577 0.962 . S
C564 H578 0.960 . S
C565 C562 1.516 . S
C565 H579 0.960 1_455 S
C565 H580 0.962 . S
C565 H581 0.955 1_455 S
C566 C567 1.370 . S
C566 C568 1.363 . S
C566 H582 0.931 . S
C567 C566 1.370 . S
C567 C571 1.408 . S
C568 C566 1.363 . S
C568 C569 1.370 . S
C568 C572 1.524 . S
C569 C561 1.503 . S
C569 C568 1.370 . S
C569 C570 1.403 . S
C570 C569 1.403 . S
C570 C571 1.404 . S
C570 C573 1.539 1_455 S
C571 C567 1.408 . S
C571 C570 1.404 . S
C571 H583 0.930 1_455 S
C572 C568 1.524 . S
C572 H584 0.956 . S
C572 H585 0.961 . S
C572 H586 0.961 . S
C573 C570 1.539 1_655 S
C573 H587 0.958 1_655 S
C573 H588 0.961 . S
C573 H589 0.960 . S
H574 C558 0.931 . S
H575 C563 0.929 . S
H576 C564 0.960 . S
H577 C564 0.962 . S
H578 C564 0.960 . S
H579 C565 0.960 1_655 S
H580 C565 0.962 . S
H581 C565 0.955 1_655 S
H582 C566 0.931 . S
H583 C571 0.930 1_655 S
H584 C572 0.956 . S
H585 C572 0.961 . S
H586 C572 0.961 . S
H587 C573 0.958 1_455 S
H588 C573 0.961 . S
H589 C573 0.960 . S
C215 C177 1.695 . S
C207 C135 1.630 . S
C239 C15 1.676 . S
C247 C200 1.685 . S
C271 C55 1.671 . S
C279 C176 1.712 . S
C303 C95 1.677 . S
C311 C199 1.704 . S
C343 C180 1.660 . S
C335 C2 1.617 . S
C375 C202 1.665 . S
C367 C42 1.681 . S
C399 C82 1.612 . S
C407 C181 1.653 . S
C431 C141 1.564 . S
C439 C201 1.619 . S
C471 C204 1.687 . S
C463 C61 1.762 . S
C503 C179 1.690 . S
C495 C101 1.599 . S
C535 C203 1.690 . S
C527 C122 1.648 . S
C559 C21 1.643 . S
C567 C178 1.663 . S
