# Generated by pormake.
# Topology pyr, (3,6)-cn, num edge types: 1
# Building blocks:
#     Node 0, Type 0, BuildingBlock: WUSLED_clean_sbu_0, # of connection points: 3
#     Node 1, Type 0, BuildingBlock: WUSLED_clean_sbu_0, # of connection points: 3
#     Node 2, Type 0, BuildingBlock: WUSLED_clean_sbu_0, # of connection points: 3
#     Node 3, Type 0, BuildingBlock: WUSLED_clean_sbu_0, # of connection points: 3
#     Node 4, Type 0, BuildingBlock: WUSLED_clean_sbu_0, # of connection points: 3
#     Node 5, Type 0, BuildingBlock: WUSLED_clean_sbu_0, # of connection points: 3
#     Node 6, Type 0, BuildingBlock: WUSLED_clean_sbu_0, # of connection points: 3
#     Node 7, Type 0, BuildingBlock: WUSLED_clean_sbu_0, # of connection points: 3
#     Node 8, Type 1, BuildingBlock: BETFAJ_clean_sbu_0, # of connection points: 6
#     Node 9, Type 1, BuildingBlock: BETFAJ_clean_sbu_0, # of connection points: 6
#     Node 10, Type 1, BuildingBlock: BETFAJ_clean_sbu_0, # of connection points: 6
#     Node 11, Type 1, BuildingBlock: BETFAJ_clean_sbu_0, # of connection points: 6
#     Edge 12, Type (0, 1), BuildingBlock: MIFKUJ_clean_linker_0, # of connection points: 2
#     Edge 13, Type (0, 1), BuildingBlock: MIFKUJ_clean_linker_0, # of connection points: 2
#     Edge 14, Type (0, 1), BuildingBlock: MIFKUJ_clean_linker_0, # of connection points: 2
#     Edge 15, Type (0, 1), BuildingBlock: MIFKUJ_clean_linker_0, # of connection points: 2
#     Edge 16, Type (0, 1), BuildingBlock: MIFKUJ_clean_linker_0, # of connection points: 2
#     Edge 17, Type (0, 1), BuildingBlock: MIFKUJ_clean_linker_0, # of connection points: 2
#     Edge 18, Type (0, 1), BuildingBlock: MIFKUJ_clean_linker_0, # of connection points: 2
#     Edge 19, Type (0, 1), BuildingBlock: MIFKUJ_clean_linker_0, # of connection points: 2
#     Edge 20, Type (0, 1), BuildingBlock: MIFKUJ_clean_linker_0, # of connection points: 2
#     Edge 21, Type (0, 1), BuildingBlock: MIFKUJ_clean_linker_0, # of connection points: 2
#     Edge 22, Type (0, 1), BuildingBlock: MIFKUJ_clean_linker_0, # of connection points: 2
#     Edge 23, Type (0, 1), BuildingBlock: MIFKUJ_clean_linker_0, # of connection points: 2
#     Edge 24, Type (0, 1), BuildingBlock: MIFKUJ_clean_linker_0, # of connection points: 2
#     Edge 25, Type (0, 1), BuildingBlock: MIFKUJ_clean_linker_0, # of connection points: 2
#     Edge 26, Type (0, 1), BuildingBlock: MIFKUJ_clean_linker_0, # of connection points: 2
#     Edge 27, Type (0, 1), BuildingBlock: MIFKUJ_clean_linker_0, # of connection points: 2
#     Edge 28, Type (0, 1), BuildingBlock: MIFKUJ_clean_linker_0, # of connection points: 2
#     Edge 29, Type (0, 1), BuildingBlock: MIFKUJ_clean_linker_0, # of connection points: 2
#     Edge 30, Type (0, 1), BuildingBlock: MIFKUJ_clean_linker_0, # of connection points: 2
#     Edge 31, Type (0, 1), BuildingBlock: MIFKUJ_clean_linker_0, # of connection points: 2
#     Edge 32, Type (0, 1), BuildingBlock: MIFKUJ_clean_linker_0, # of connection points: 2
#     Edge 33, Type (0, 1), BuildingBlock: MIFKUJ_clean_linker_0, # of connection points: 2
#     Edge 34, Type (0, 1), BuildingBlock: MIFKUJ_clean_linker_0, # of connection points: 2
#     Edge 35, Type (0, 1), BuildingBlock: MIFKUJ_clean_linker_0, # of connection points: 2
# Relax obj value: 0.066
# Max RMSD: 0.117
# Mean RMSD: 0.052
data_MOF--net-pyr--node1-WUSLED_clean_sbu_0--node2-BETFAJ_clean_sbu_0--edge1-MIFKUJ_clean_linker_0
_symmetry_space_group_name_H-M    P1
_symmetry_Int_Tables_number       1
_symmetry_cell_setting            triclinic
loop_
_symmetry_equiv_pos_as_xyz
'x, y, z'
_cell_length_a     60.068356
_cell_length_b     64.040393
_cell_length_c     58.42968
_cell_angle_alpha  91.384966
_cell_angle_beta   88.872198
_cell_angle_gamma 98.993522
loop_
_atom_site_label
_atom_site_type_symbol
_atom_site_fract_x
_atom_site_fract_y
_atom_site_fract_z
_atom_type_partial_charge
C0 C 0.29124 0.29777 0.16334 0.0
C1 C 0.27218 0.30046 0.1767 0.0
C2 C 0.26316 0.3267 0.15053 0.0
C3 C 0.25821 0.3147 0.17029 0.0
C4 C 0.2828 0.32467 0.13767 0.0
C5 C 0.2967 0.31016 0.14398 0.0
U6 U 0.30103 0.25792 0.20576 0.0
O7 O 0.30254 0.22393 0.20236 0.0
O8 O 0.33091 0.24541 0.21739 0.0
C9 C 0.3231 0.22603 0.21029 0.0
C10 C 0.30435 0.28114 0.16921 0.0
C11 C 0.3387 0.21449 0.19722 0.0
C12 C 0.37049 0.21307 0.17108 0.0
C13 C 0.35606 0.22479 0.18316 0.0
C14 C 0.35019 0.18078 0.18684 0.0
C15 C 0.3676 0.19091 0.17272 0.0
C16 C 0.33594 0.19246 0.19897 0.0
C17 C 0.26301 0.25675 0.25927 0.0
C18 C 0.25711 0.22741 0.28539 0.0
C19 C 0.23619 0.25666 0.29081 0.0
C20 C 0.24733 0.26655 0.27186 0.0
C21 C 0.24054 0.23674 0.29743 0.0
C22 C 0.26824 0.23734 0.26637 0.0
C23 C 0.27208 0.26604 0.2377 0.0
O24 O 0.31777 0.28556 0.18678 0.0
O25 O 0.29234 0.26216 0.17004 0.0
O26 O 0.2664 0.25433 0.21935 0.0
O27 O 0.29339 0.27479 0.23759 0.0
H28 H 0.26777 0.29111 0.1918 0.0
H29 H 0.24333 0.31613 0.18063 0.0
H30 H 0.28692 0.33372 0.12231 0.0
H31 H 0.31135 0.30827 0.13349 0.0
H32 H 0.38367 0.22128 0.16021 0.0
H33 H 0.35842 0.2418 0.18147 0.0
H34 H 0.34773 0.16378 0.18874 0.0
H35 H 0.3227 0.18424 0.20979 0.0
H36 H 0.26068 0.212 0.28998 0.0
H37 H 0.22375 0.26435 0.29995 0.0
H38 H 0.24313 0.28155 0.26657 0.0
H39 H 0.28028 0.22954 0.25672 0.0
C40 C 0.2734 0.88621 0.5708 0.0
C41 C 0.2715 0.90586 0.58118 0.0
C42 C 0.23514 0.90532 0.56365 0.0
C43 C 0.25261 0.91538 0.57753 0.0
C44 C 0.23697 0.88555 0.55338 0.0
C45 C 0.25606 0.87607 0.5569 0.0
U46 U 0.31895 0.88115 0.61144 0.0
O47 O 0.3326 0.8539 0.62431 0.0
O48 O 0.35495 0.87914 0.60663 0.0
C49 C 0.35274 0.86023 0.61548 0.0
C50 C 0.29283 0.87592 0.57587 0.0
C51 C 0.36196 0.84426 0.60154 0.0
C52 C 0.36007 0.82054 0.56838 0.0
C53 C 0.35199 0.8368 0.58079 0.0
C54 C 0.38842 0.81952 0.59715 0.0
C55 C 0.37822 0.81158 0.57658 0.0
C56 C 0.38033 0.83573 0.60952 0.0
C57 C 0.32116 0.91322 0.66644 0.0
C58 C 0.35359 0.91583 0.69105 0.0
C59 C 0.31762 0.92259 0.70666 0.0
C60 C 0.30807 0.91873 0.68506 0.0
C61 C 0.34044 0.92107 0.70985 0.0
C62 C 0.34398 0.91179 0.66954 0.0
C63 C 0.31052 0.90738 0.64435 0.0
O64 O 0.31232 0.88857 0.57596 0.0
O65 O 0.28981 0.86341 0.59353 0.0
O66 O 0.3003 0.88772 0.64284 0.0
O67 O 0.32281 0.91342 0.62611 0.0
H68 H 0.28452 0.91374 0.59236 0.0
H69 H 0.25145 0.93043 0.58597 0.0
H70 H 0.22372 0.87753 0.54256 0.0
H71 H 0.25719 0.86079 0.549 0.0
H72 H 0.35199 0.81485 0.55252 0.0
H73 H 0.33775 0.8433 0.57444 0.0
H74 H 0.40217 0.8127 0.60413 0.0
H75 H 0.38811 0.8413 0.62558 0.0
H76 H 0.37114 0.91432 0.69311 0.0
H77 H 0.30719 0.92676 0.72086 0.0
H78 H 0.29038 0.9197 0.68298 0.0
H79 H 0.35427 0.90718 0.65542 0.0
C80 C 0.64014 0.37689 0.79452 0.0
C81 C 0.65575 0.38498 0.77737 0.0
C82 C 0.62654 0.40005 0.7568 0.0
C83 C 0.64909 0.39643 0.7589 0.0
C84 C 0.61114 0.39201 0.77422 0.0
C85 C 0.61783 0.38074 0.79265 0.0
U86 U 0.67342 0.35593 0.84601 0.0
O87 O 0.6583 0.34031 0.8774 0.0
O88 O 0.67627 0.32251 0.85264 0.0
C89 C 0.66509 0.3222 0.87225 0.0
C90 C 0.64554 0.36257 0.81308 0.0
C91 C 0.65113 0.30197 0.88012 0.0
C92 C 0.63416 0.26476 0.87435 0.0
C93 C 0.64453 0.28436 0.86549 0.0
C94 C 0.63675 0.27985 0.91258 0.0
C95 C 0.6303 0.26199 0.89817 0.0
C96 C 0.64685 0.29937 0.90372 0.0
C97 C 0.73065 0.38902 0.86897 0.0
C98 C 0.74884 0.40572 0.90356 0.0
C99 C 0.7719 0.39599 0.87203 0.0
C100 C 0.75232 0.38811 0.8597 0.0
C101 C 0.77058 0.40525 0.89408 0.0
C102 C 0.72925 0.39782 0.89121 0.0
C103 C 0.71024 0.3837 0.85411 0.0
O104 O 0.66257 0.3521 0.80993 0.0
O105 O 0.64326 0.36864 0.83455 0.0
O106 O 0.69032 0.38509 0.86323 0.0
O107 O 0.7096 0.36781 0.83932 0.0
H108 H 0.67306 0.38224 0.77803 0.0
H109 H 0.66174 0.40245 0.74627 0.0
H110 H 0.59356 0.3938 0.7734 0.0
H111 H 0.60522 0.37446 0.80524 0.0
H112 H 0.62927 0.25176 0.8624 0.0
H113 H 0.64774 0.2856 0.84723 0.0
H114 H 0.63477 0.27871 0.93097 0.0
H115 H 0.65211 0.31239 0.91559 0.0
H116 H 0.74687 0.41237 0.92055 0.0
H117 H 0.78812 0.39551 0.86381 0.0
H118 H 0.75421 0.38193 0.84247 0.0
H119 H 0.71298 0.39913 0.89895 0.0
C120 C 0.80424 0.64967 0.36942 0.0
C121 C 0.79185 0.66381 0.38084 0.0
C122 C 0.76396 0.63432 0.39498 0.0
C123 C 0.77203 0.65624 0.39347 0.0
C124 C 0.77666 0.62035 0.38357 0.0
C125 C 0.7964 0.6279 0.3711 0.0
U126 U 0.85908 0.68702 0.34703 0.0
O127 O 0.8902 0.67669 0.33307 0.0
O128 O 0.86966 0.69269 0.31082 0.0
C129 C 0.88759 0.6834 0.31234 0.0
C130 C 0.82441 0.6567 0.35445 0.0
C131 C 0.89383 0.67027 0.29226 0.0
C132 C 0.89605 0.63649 0.27218 0.0
C133 C 0.88836 0.64808 0.29089 0.0
C134 C 0.91479 0.66896 0.25591 0.0
C135 C 0.90955 0.6467 0.25431 0.0
C136 C 0.90703 0.68045 0.27444 0.0
C137 C 0.87632 0.74205 0.38217 0.0
C138 C 0.90874 0.77057 0.38292 0.0
C139 C 0.8759 0.77373 0.40643 0.0
C140 C 0.86543 0.75393 0.39813 0.0
C141 C 0.89775 0.78258 0.399 0.0
C142 C 0.89817 0.75056 0.37462 0.0
C143 C 0.86422 0.72079 0.37478 0.0
O144 O 0.82373 0.67269 0.34093 0.0
O145 O 0.84446 0.65685 0.36313 0.0
O146 O 0.87364 0.70393 0.37813 0.0
O147 O 0.85228 0.71928 0.35603 0.0
H148 H 0.79737 0.6807 0.37985 0.0
H149 H 0.7631 0.66764 0.40215 0.0
H150 H 0.77109 0.60344 0.38372 0.0
H151 H 0.8054 0.61659 0.3623 0.0
H152 H 0.89125 0.61948 0.27174 0.0
H153 H 0.8783 0.63969 0.30435 0.0
H154 H 0.92545 0.67767 0.2431 0.0
H155 H 0.9118 0.69749 0.27506 0.0
H156 H 0.92545 0.77671 0.3765 0.0
H157 H 0.86686 0.78191 0.4191 0.0
H158 H 0.84868 0.74773 0.40447 0.0
H159 H 0.90706 0.74178 0.36238 0.0
C160 C 0.7418 0.74762 0.87704 0.0
C161 C 0.75973 0.74358 0.86272 0.0
C162 C 0.77026 0.71905 0.89025 0.0
C163 C 0.77384 0.72948 0.86927 0.0
C164 C 0.75175 0.72265 0.90419 0.0
C165 C 0.73768 0.73688 0.89765 0.0
U166 U 0.73192 0.78857 0.83545 0.0
O167 O 0.70135 0.79983 0.82357 0.0
O168 O 0.72818 0.82194 0.84017 0.0
C169 C 0.70782 0.81912 0.83166 0.0
C170 C 0.72859 0.76412 0.87104 0.0
C171 C 0.69093 0.8287 0.84506 0.0
C172 C 0.67314 0.83637 0.88135 0.0
C173 C 0.68795 0.82556 0.86867 0.0
C174 C 0.66368 0.85298 0.84678 0.0
C175 C 0.66104 0.85042 0.87058 0.0
C176 C 0.6785 0.84223 0.83418 0.0
C177 C 0.77068 0.79364 0.78242 0.0
C178 C 0.78259 0.82572 0.7612 0.0
C179 C 0.79063 0.79209 0.74605 0.0
C180 C 0.77979 0.78194 0.76505 0.0
C181 C 0.79272 0.81419 0.74421 0.0
C182 C 0.77158 0.81552 0.78009 0.0
C183 C 0.76191 0.78309 0.80354 0.0
O184 O 0.74021 0.78328 0.87106 0.0
O185 O 0.71582 0.75987 0.85297 0.0
O186 O 0.741 0.77326 0.80308 0.0
O187 O 0.7668 0.79405 0.82257 0.0
H188 H 0.76322 0.75185 0.84678 0.0
H189 H 0.78807 0.7274 0.85825 0.0
H190 H 0.7483 0.71467 0.92031 0.0
H191 H 0.7239 0.73983 0.90889 0.0
H192 H 0.6713 0.83387 0.8996 0.0
H193 H 0.69741 0.81511 0.87735 0.0
H194 H 0.65488 0.86388 0.83799 0.0
H195 H 0.68068 0.84491 0.81597 0.0
H196 H 0.78404 0.84276 0.76051 0.0
H197 H 0.79785 0.78267 0.73308 0.0
H198 H 0.77911 0.76501 0.76651 0.0
H199 H 0.76454 0.82484 0.79329 0.0
C200 C 0.67579 0.18561 0.38183 0.0
C201 C 0.69055 0.17979 0.36477 0.0
C202 C 0.65946 0.17165 0.33841 0.0
C203 C 0.68248 0.17299 0.3432 0.0
C204 C 0.6447 0.17747 0.35555 0.0
C205 C 0.65285 0.18448 0.37711 0.0
U206 U 0.71853 0.18349 0.42769 0.0
O207 O 0.73633 0.2084 0.45018 0.0
O208 O 0.71485 0.18102 0.4651 0.0
C209 C 0.72613 0.20011 0.46869 0.0
C210 C 0.68412 0.19199 0.40478 0.0
C211 C 0.7141 0.21464 0.48208 0.0
C212 C 0.68049 0.23082 0.4881 0.0
C213 C 0.6912 0.215 0.47813 0.0
C214 C 0.71524 0.24586 0.5067 0.0
C215 C 0.69252 0.24673 0.50204 0.0
C216 C 0.72595 0.22989 0.49678 0.0
C217 C 0.76522 0.151 0.41666 0.0
C218 C 0.79617 0.15281 0.44303 0.0
C219 C 0.7907 0.12518 0.41363 0.0
C220 C 0.77199 0.13324 0.40581 0.0
C221 C 0.80291 0.13485 0.43237 0.0
C222 C 0.7774 0.16077 0.43529 0.0
C223 C 0.74501 0.15879 0.40901 0.0
O224 O 0.68249 0.17657 0.41946 0.0
O225 O 0.70369 0.20447 0.40528 0.0
O226 O 0.74748 0.17923 0.40549 0.0
O227 O 0.72644 0.15158 0.42042 0.0
H228 H 0.70829 0.18027 0.36822 0.0
H229 H 0.69415 0.16826 0.33045 0.0
H230 H 0.6269 0.17663 0.35225 0.0
H231 H 0.64123 0.18879 0.39015 0.0
H232 H 0.66311 0.23126 0.4838 0.0
H233 H 0.68183 0.2036 0.4665 0.0
H234 H 0.72488 0.25787 0.51745 0.0
H235 H 0.74369 0.22994 0.49984 0.0
H236 H 0.80508 0.1604 0.4577 0.0
H237 H 0.79564 0.11141 0.40502 0.0
H238 H 0.76269 0.12551 0.39145 0.0
H239 H 0.77221 0.1744 0.444 0.0
C240 C 0.31161 0.6635 0.17607 0.0
C241 C 0.29527 0.6767 0.17291 0.0
C242 C 0.27113 0.64854 0.15126 0.0
C243 C 0.27542 0.66938 0.16058 0.0
C244 C 0.28776 0.63559 0.15436 0.0
C245 C 0.30756 0.64295 0.16644 0.0
U246 U 0.36842 0.69496 0.20394 0.0
O247 O 0.37627 0.69535 0.2409 0.0
O248 O 0.39638 0.67954 0.2164 0.0
C249 C 0.39291 0.68436 0.23804 0.0
C250 C 0.3314 0.66922 0.19157 0.0
C251 C 0.39714 0.66903 0.25613 0.0
C252 C 0.39102 0.65484 0.29493 0.0
C253 C 0.38435 0.66648 0.27667 0.0
C254 C 0.42333 0.64778 0.2727 0.0
C255 C 0.41088 0.64549 0.2935 0.0
C256 C 0.41661 0.6593 0.25447 0.0
C257 C 0.39006 0.75132 0.17092 0.0
C258 C 0.40302 0.78962 0.17318 0.0
C259 C 0.40254 0.77149 0.13652 0.0
C260 C 0.39432 0.75217 0.14717 0.0
C261 C 0.40732 0.7907 0.14929 0.0
C262 C 0.39438 0.77038 0.18371 0.0
C263 C 0.38219 0.73066 0.18251 0.0
O264 O 0.35164 0.66763 0.18341 0.0
O265 O 0.33148 0.68481 0.20668 0.0
O266 O 0.3689 0.72944 0.20076 0.0
O267 O 0.38763 0.71246 0.17536 0.0
H268 H 0.29761 0.69255 0.18027 0.0
H269 H 0.26342 0.68011 0.15847 0.0
H270 H 0.28528 0.61936 0.14814 0.0
H271 H 0.31949 0.63218 0.16893 0.0
H272 H 0.38058 0.65335 0.31029 0.0
H273 H 0.36945 0.67393 0.27891 0.0
H274 H 0.43889 0.64136 0.27066 0.0
H275 H 0.42727 0.66128 0.23926 0.0
H276 H 0.40676 0.80357 0.18408 0.0
H277 H 0.40494 0.77121 0.11813 0.0
H278 H 0.39117 0.73785 0.13672 0.0
H279 H 0.3916 0.77035 0.20208 0.0
C280 C 0.14094 0.30891 0.68123 0.0
C281 C 0.14388 0.30742 0.6573 0.0
C282 C 0.12669 0.2698 0.65674 0.0
C283 C 0.1369 0.28816 0.64525 0.0
C284 C 0.12399 0.2715 0.68073 0.0
C285 C 0.13101 0.29064 0.69269 0.0
U286 U 0.17588 0.36436 0.7002 0.0
O287 O 0.16234 0.39284 0.71284 0.0
O288 O 0.18211 0.37661 0.7357 0.0
C289 C 0.17043 0.39216 0.73353 0.0
C290 C 0.14634 0.32926 0.69474 0.0
C291 C 0.15681 0.39826 0.75386 0.0
C292 C 0.12282 0.40941 0.77122 0.0
C293 C 0.13402 0.40093 0.75247 0.0
C294 C 0.15676 0.41265 0.79322 0.0
C295 C 0.13404 0.4157 0.79193 0.0
C296 C 0.16785 0.4041 0.7746 0.0
C297 C 0.23363 0.38346 0.66548 0.0
C298 C 0.2572 0.41668 0.65461 0.0
C299 C 0.27161 0.38374 0.64931 0.0
C300 C 0.25139 0.3728 0.65837 0.0
C301 C 0.275 0.40592 0.64714 0.0
C302 C 0.23677 0.40561 0.66355 0.0
C303 C 0.2117 0.37049 0.67249 0.0
O304 O 0.16331 0.33106 0.70888 0.0
O305 O 0.14488 0.34709 0.68457 0.0
O306 O 0.19275 0.37755 0.66851 0.0
O307 O 0.21093 0.35989 0.69154 0.0
H308 H 0.15139 0.32118 0.64786 0.0
H309 H 0.13963 0.28768 0.6269 0.0
H310 H 0.11588 0.25813 0.6904 0.0
H311 H 0.12821 0.29127 0.71105 0.0
H312 H 0.1053 0.41107 0.76935 0.0
H313 H 0.12493 0.39685 0.73677 0.0
H314 H 0.16641 0.41753 0.8084 0.0
H315 H 0.1855 0.40271 0.77621 0.0
H316 H 0.25899 0.43371 0.65359 0.0
H317 H 0.28434 0.37456 0.64339 0.0
H318 H 0.2494 0.35572 0.65921 0.0
H319 H 0.22339 0.41434 0.66869 0.0
Sm320 Sm 0.02118 0.03637 0.49912 0.0
Sm321 Sm 1.01186 1.01889 0.5461 0.0
C322 C 0.02608 0.05948 0.46196 0.0
C323 C 0.04462 0.07477 0.45221 0.0
C324 C 0.04182 0.09592 0.44963 0.0
C325 C 0.05929 0.11058 0.44061 0.0
C326 C 0.07999 0.10436 0.43407 0.0
C327 C 0.08282 0.0832 0.4368 0.0
C328 C 0.06535 0.06857 0.44577 0.0
C329 C 0.05546 1.01736 0.51499 0.0
C330 C 0.03682 0.06735 0.54466 0.0
C331 C 1.00643 0.99656 0.58386 0.0
C332 C 0.98918 0.97986 0.59335 0.0
C333 C 0.98515 0.95938 0.58349 0.0
C334 C 0.96816 0.94413 0.59238 0.0
C335 C 0.95479 0.94913 0.61111 0.0
C336 C 0.95897 0.96953 0.62104 0.0
C337 C 0.97607 0.98468 0.61234 0.0
C338 C 0.97824 0.03853 0.52919 0.0
C339 C 0.99666 0.9874 0.5009 0.0
O340 O 1.01639 0.06541 0.48076 0.0
O341 O 0.02919 0.03973 0.46215 0.0
O342 O 0.04441 0.02886 0.52697 0.0
O343 O 0.05004 1.01716 0.49367 0.0
O344 O 0.03025 0.06637 0.52305 0.0
O345 O 0.03492 0.04988 0.55665 0.0
O346 O 0.01846 0.99154 0.56621 0.0
O347 O 1.00041 1.01522 0.58226 0.0
O348 O 0.98885 0.02612 0.51811 0.0
O349 O 0.98421 0.0401 0.55041 0.0
O350 O 1.00218 0.98867 0.52281 0.0
O351 O 0.9993 1.00464 0.48842 0.0
H352 H 0.02615 0.10114 0.45475 0.0
H353 H 0.05668 0.12683 0.43899 0.0
H354 H 0.09844 0.07783 0.43165 0.0
H355 H 0.06816 0.0524 0.44762 0.0
H356 H 0.99494 0.95517 0.56881 0.0
H357 H 0.96523 0.92853 0.58437 0.0
H358 H 0.94915 0.9737 0.63572 0.0
H359 H 0.97893 1.00028 0.62037 0.0
Sm360 Sm 0.53876 0.0276 0.0387 0.0
Sm361 Sm 0.50373 0.02337 1.00787 0.0
C362 C 0.57662 0.03364 0.06225 0.0
C363 C 0.58538 0.04649 0.08228 0.0
C364 C 0.58552 0.06847 0.08346 0.0
C365 C 0.59207 0.07992 0.10353 0.0
C366 C 0.59823 0.06952 0.12277 0.0
C367 C 0.59858 0.04766 0.12135 0.0
C368 C 0.59233 0.03628 0.10123 0.0
C369 C 0.50527 0.99423 0.05064 0.0
C370 C 0.4996 0.05249 0.05393 0.0
C371 C 0.46549 1.01776 0.98498 0.0
C372 C 0.45593 1.0057 0.96475 0.0
C373 C 0.45298 0.98347 0.96365 0.0
C374 C 0.44436 0.97256 0.94393 0.0
C375 C 0.43883 0.98371 0.925 0.0
C376 C 0.44162 1.00589 0.92623 0.0
C377 C 0.44998 1.01676 0.94597 0.0
C378 C 0.5372 0.05669 0.99587 0.0
C379 C 0.54272 0.99805 0.99267 0.0
O380 O 0.57412 0.04346 0.04335 0.0
O381 O 0.55984 1.01865 0.06648 0.0
O382 O 0.51322 0.99782 0.03058 0.0
O383 O 0.51393 1.00921 0.06463 0.0
O384 O 0.52147 0.05344 0.05547 0.0
O385 O 0.48838 0.03934 0.03904 0.0
O386 O 0.46854 1.00721 1.00321 0.0
O387 O 0.48208 0.03301 0.98097 0.0
O388 O 0.52923 0.05315 1.01594 0.0
O389 O 0.52854 0.04167 0.98193 0.0
O390 O 0.52104 0.99798 0.99035 0.0
O391 O 0.55397 1.01049 1.0082 0.0
H392 H 0.58009 0.07672 0.06913 0.0
H393 H 0.59156 0.09676 0.10429 0.0
H394 H 0.60351 0.03935 0.13588 0.0
H395 H 0.59236 1.01935 0.10066 0.0
H396 H 0.45748 0.97452 0.97788 0.0
H397 H 0.44241 0.95545 0.94332 0.0
H398 H 0.43715 1.01483 0.91198 0.0
H399 H 0.45196 0.03388 0.9465 0.0
Sm400 Sm 0.52655 0.50335 0.50735 0.0
Sm401 Sm 0.5136 0.54188 0.54164 0.0
C402 C 0.54973 0.48079 0.48035 0.0
C403 C 0.56137 0.46234 0.48326 0.0
C404 C 0.58176 0.46442 0.49517 0.0
C405 C 0.59222 0.44683 0.49868 0.0
C406 C 0.58256 0.42677 0.49036 0.0
C407 C 0.56239 0.42471 0.47813 0.0
C408 C 0.55194 0.44236 0.47453 0.0
C409 C 0.48618 0.49155 0.53201 0.0
C410 C 0.53999 0.50409 0.56268 0.0
C411 C 0.49049 0.56476 0.56819 0.0
C412 C 0.48267 0.5851 0.56554 0.0
C413 C 0.46179 0.5881 0.57504 0.0
C414 C 0.45275 0.60628 0.57027 0.0
C415 C 0.46452 0.62174 0.55598 0.0
C416 C 0.48568 0.6189 0.54688 0.0
C417 C 0.49462 0.60062 0.55149 0.0
C418 C 0.55392 0.55401 0.51724 0.0
C419 C 0.49992 0.54089 0.48615 0.0
O420 O 0.55864 0.49841 0.49072 0.0
O421 O 0.52761 0.47739 0.48153 0.0
O422 O 0.49912 0.50902 0.53171 0.0
O423 O 0.495 0.47864 0.51826 0.0
O424 O 0.54347 0.49689 0.54152 0.0
O425 O 0.52795 0.51964 0.56695 0.0
O426 O 0.48097 0.54966 0.55442 0.0
O427 O 0.51232 0.56522 0.57013 0.0
O428 O 0.54108 0.53643 0.51721 0.0
O429 O 0.54504 0.56669 0.53121 0.0
O430 O 0.49755 0.54888 0.50718 0.0
O431 O 0.51091 0.52458 0.48198 0.0
H432 H 0.58958 0.47959 0.50208 0.0
H433 H 0.60764 0.44886 0.50833 0.0
H434 H 0.55474 0.40948 0.47123 0.0
H435 H 0.53637 0.44034 0.4651 0.0
H436 H 0.45223 0.57613 0.58567 0.0
H437 H 0.43651 0.60823 0.57771 0.0
H438 H 0.495 0.63051 0.53568 0.0
H439 H 0.51058 0.59835 0.54361 0.0
Sm440 Sm 0.02585 0.5057 0.03406 0.0
Sm441 Sm 1.01349 0.55068 1.01442 0.0
C442 C 0.04399 0.47097 0.03815 0.0
C443 C 0.06125 0.46276 0.05163 0.0
C444 C 0.08433 0.47029 0.04823 0.0
C445 C 0.10061 0.46111 0.05938 0.0
C446 C 0.09427 0.44423 0.0743 0.0
C447 C 0.07114 0.43714 0.07823 0.0
C448 C 0.05483 0.44624 0.06692 0.0
C449 C 1.00681 0.52957 0.06811 0.0
C450 C 0.06185 0.55058 0.04184 0.0
C451 C 0.99456 0.58512 1.01213 0.0
C452 C 0.97717 0.59404 0.99958 0.0
C453 C 0.95631 0.5952 1.01043 0.0
C454 C 0.9398 0.6042 0.99951 0.0
C455 C 0.94381 0.61257 0.97752 0.0
C456 C 0.96463 0.61126 0.96652 0.0
C457 C 0.98118 0.60212 0.97746 0.0
C458 C 0.03226 0.52693 0.98013 0.0
C459 C 0.9777 0.50572 1.00637 0.0
O460 O 0.0513 0.48589 0.02366 0.0
O461 O 0.02502 0.47365 0.04854 0.0
O462 O 1.01138 0.53374 0.0474 0.0
O463 O 1.01234 0.51105 0.07154 0.0
O464 O 0.05843 0.52953 0.04139 0.0
O465 O 0.04679 0.5619 0.03423 0.0
O466 O 0.98709 0.56925 0.02539 0.0
O467 O 1.01375 0.58323 1.00166 0.0
O468 O 0.02844 0.52282 1.00101 0.0
O469 O 0.02573 0.54505 0.97658 0.0
O470 O 0.98101 0.52675 1.00708 0.0
O471 O 0.99283 0.49441 1.01384 0.0
H472 H 0.08994 0.48293 0.03648 0.0
H473 H 0.11821 0.4668 0.05562 0.0
H474 H 0.06561 0.42439 0.08986 0.0
H475 H 0.03718 0.44008 0.06981 0.0
H476 H 0.95276 0.58925 0.02754 0.0
H477 H 0.92386 0.60459 1.00836 0.0
H478 H 0.96837 0.61776 0.94969 0.0
H479 H 0.99715 0.60161 0.9687 0.0
H480 H 0.25421 0.21414 0.33251 0.0
H481 H 0.23023 0.19341 0.361 0.0
H482 H 0.17127 0.2118 0.3311 0.0
H483 H 0.19503 0.23259 0.30295 0.0
H484 H 0.16783 0.21338 0.37623 0.0
H485 H 0.1888 0.16319 0.31905 0.0
H486 H 0.21583 0.14543 0.2965 0.0
H487 H 0.24238 0.12505 0.35842 0.0
H488 H 0.21567 0.14293 0.38134 0.0
H489 H 0.07653 0.13436 0.40243 0.0
H490 H 0.10697 0.15864 0.38463 0.0
H491 H 0.15566 0.13323 0.42464 0.0
H492 H 0.12521 0.1089 0.44266 0.0
H493 H 0.16853 0.1362 0.38033 0.0
H494 H 0.14351 0.18216 0.43717 0.0
H495 H 0.1159 0.19937 0.45944 0.0
H496 H 0.09667 0.22755 0.3984 0.0
H497 H 0.12395 0.21026 0.37569 0.0
C498 C 0.23614 0.21378 0.33212 0.0
C499 C 0.2265 0.22502 0.31555 0.0
C500 C 0.22247 0.20194 0.34837 0.0
C501 C 0.19893 0.20091 0.34805 0.0
C502 C 0.18939 0.21245 0.33178 0.0
C503 C 0.203 0.22438 0.31571 0.0
C504 C 0.18391 0.18734 0.36403 0.0
C505 C 0.16791 0.19649 0.37706 0.0
C506 C 0.18449 0.16541 0.36569 0.0
C507 C 0.20044 0.1546 0.3519 0.0
C508 C 0.20052 0.15505 0.32785 0.0
C509 C 0.21576 0.14494 0.31501 0.0
C510 C 0.23086 0.13417 0.32602 0.0
C511 C 0.23071 0.13343 0.34991 0.0
C512 C 0.21552 0.14354 0.36283 0.0
C513 C 0.09367 0.13416 0.40773 0.0
C514 C 0.09844 0.11973 0.42399 0.0
C515 C 0.11106 0.14804 0.39752 0.0
C516 C 0.13357 0.1479 0.4035 0.0
C517 C 0.13841 0.1336 0.4198 0.0
C518 C 0.121 0.11967 0.43001 0.0
C519 C 0.15199 0.16215 0.39194 0.0
C520 C 0.16866 0.15314 0.37981 0.0
C521 C 0.15201 0.18421 0.39108 0.0
C522 C 0.1357 0.19479 0.4047 0.0
C523 C 0.1333 0.19191 0.42847 0.0
C524 C 0.11771 0.2017 0.44117 0.0
C525 C 0.10451 0.21452 0.43034 0.0
C526 C 0.10691 0.21762 0.40677 0.0
C527 C 0.12245 0.20785 0.39398 0.0
H528 H 0.09245 0.22208 0.4402 0.0
H529 H 0.24265 0.12636 0.31605 0.0
H530 H 0.32309 0.9048 0.75029 0.0
H531 H 0.33988 0.91042 0.78821 0.0
H532 H 0.39705 0.9509 0.75896 0.0
H533 H 0.38051 0.94499 0.72099 0.0
H534 H 0.41069 0.92544 0.78886 0.0
H535 H 0.35382 0.97092 0.7877 0.0
H536 H 0.31545 0.97926 0.78315 0.0
H537 H 0.29107 0.9372 0.8374 0.0
H538 H 0.32927 0.92841 0.84206 0.0
H539 H 0.45289 0.99215 0.88123 0.0
H540 H 0.4363 0.9757 0.84605 0.0
H541 H 0.38839 0.93353 0.88594 0.0
H542 H 0.40492 0.95009 0.92132 0.0
H543 H 0.36868 0.95466 0.85286 0.0
H544 H 0.428 0.91342 0.857 0.0
H545 H 0.46707 0.90705 0.86159 0.0
H546 H 0.48772 0.94311 0.80172 0.0
H547 H 0.44883 0.94998 0.79695 0.0
C548 C 0.33918 0.91497 0.75203 0.0
C549 C 0.35047 0.92457 0.73279 0.0
C550 C 0.34877 0.91814 0.77365 0.0
C551 C 0.3696 0.93126 0.77643 0.0
C552 C 0.381 0.94066 0.75718 0.0
C553 C 0.37153 0.93732 0.73554 0.0
C554 C 0.37943 0.93558 0.79942 0.0
C555 C 0.40157 0.93195 0.80282 0.0
C556 C 0.36728 0.94353 0.8178 0.0
C557 C 0.34433 0.94882 0.81503 0.0
C558 C 0.34023 0.96332 0.79853 0.0
C559 C 0.31853 0.96815 0.79595 0.0
C560 C 0.30082 0.95871 0.80993 0.0
C561 C 0.30479 0.94447 0.82655 0.0
C562 C 0.32647 0.93956 0.82917 0.0
C563 C 0.43893 0.97926 0.88247 0.0
C564 C 0.43007 0.97243 0.90391 0.0
C565 C 0.4296 0.96978 0.86241 0.0
C566 C 0.41124 0.95333 0.86346 0.0
C567 C 0.40264 0.94615 0.88485 0.0
C568 C 0.41212 0.95552 0.90497 0.0
C569 C 0.40006 0.94492 0.84213 0.0
C570 C 0.37767 0.9478 0.83902 0.0
C571 C 0.41207 0.93651 0.82398 0.0
C572 C 0.43549 0.93233 0.82671 0.0
C573 C 0.4409 0.92014 0.84491 0.0
C574 C 0.46301 0.91641 0.84752 0.0
C575 C 0.47988 0.9247 0.83198 0.0
C576 C 0.47464 0.9367 0.81375 0.0
C577 C 0.45255 0.94049 0.81106 0.0
H578 H 0.49699 0.92179 0.83403 0.0
H579 H 0.28403 0.96248 0.80792 0.0
H580 H 0.6427 0.40181 0.71166 0.0
H581 H 0.62946 0.41963 0.67918 0.0
H582 H 0.57912 0.44216 0.72257 0.0
H583 H 0.59258 0.42499 0.75525 0.0
H584 H 0.56052 0.42742 0.68277 0.0
H585 H 0.62735 0.47522 0.70335 0.0
H586 H 0.66776 0.48554 0.71144 0.0
H587 H 0.68489 0.46555 0.64354 0.0
H588 H 0.64456 0.45485 0.63515 0.0
H589 H 0.52771 0.50466 0.60857 0.0
H590 H 0.54282 0.48719 0.64042 0.0
H591 H 0.58977 0.46297 0.5941 0.0
H592 H 0.57444 0.48005 0.56209 0.0
H593 H 0.61064 0.478 0.63447 0.0
H594 H 0.54516 0.43128 0.61284 0.0
H595 H 0.50528 0.41886 0.60404 0.0
H596 H 0.4861 0.43422 0.67285 0.0
H597 H 0.52577 0.44741 0.68184 0.0
C598 C 0.62905 0.41081 0.71458 0.0
C599 C 0.61888 0.41165 0.73656 0.0
C600 C 0.62136 0.42102 0.69575 0.0
C601 C 0.60319 0.4325 0.6981 0.0
C602 C 0.59303 0.4334 0.71995 0.0
C603 C 0.60079 0.42335 0.7388 0.0
C604 C 0.59452 0.44327 0.67792 0.0
C605 C 0.57149 0.43874 0.6725 0.0
C606 C 0.60872 0.4576 0.66372 0.0
C607 C 0.63295 0.46403 0.66871 0.0
C608 C 0.63974 0.47286 0.69021 0.0
C609 C 0.66263 0.47881 0.69484 0.0
C610 C 0.67888 0.47615 0.67804 0.0
C611 C 0.67228 0.46758 0.65655 0.0
C612 C 0.64941 0.46158 0.65185 0.0
C613 C 0.54131 0.49569 0.60508 0.0
C614 C 0.54974 0.4939 0.58251 0.0
C615 C 0.54993 0.48557 0.62342 0.0
C616 C 0.56754 0.47355 0.61994 0.0
C617 C 0.57628 0.47209 0.5975 0.0
C618 C 0.56738 0.48187 0.57908 0.0
C619 C 0.57657 0.46238 0.63957 0.0
C620 C 0.59965 0.46677 0.64482 0.0
C621 C 0.56246 0.44777 0.65352 0.0
C622 C 0.53845 0.44063 0.64793 0.0
C623 C 0.53241 0.43238 0.62599 0.0
C624 C 0.50982 0.42516 0.62096 0.0
C625 C 0.49314 0.42583 0.63782 0.0
C626 C 0.499 0.43381 0.65973 0.0
C627 C 0.52153 0.44122 0.66479 0.0
H628 H 0.4757 0.42003 0.63393 0.0
H629 H 0.6966 0.48077 0.68165 0.0
H630 H 0.92131 0.6063 0.25337 0.0
H631 H 0.93665 0.58731 0.22157 0.0
H632 H 0.93497 0.64035 0.178 0.0
H633 H 0.9183 0.65891 0.20924 0.0
H634 H 0.92463 0.60755 0.15274 0.0
H635 H 0.98561 0.62751 0.20361 0.0
H636 H 1.00591 0.63064 0.24011 0.0
H637 H 0.99877 0.56299 0.24331 0.0
H638 H 0.97815 0.55945 0.20696 0.0
H639 H 0.99965 0.57146 0.06701 0.0
H640 H 0.98299 0.59188 0.0972 0.0
H641 H 0.97519 0.5378 0.1408 0.0
H642 H 0.99151 0.51745 0.11068 0.0
H643 H 0.99125 0.57249 0.1651 0.0
H644 H 0.92958 0.55409 0.11252 0.0
H645 H 0.91248 0.55304 0.07438 0.0
H646 H 0.92449 0.62088 0.07301 0.0
H647 H 0.94189 0.62232 0.11105 0.0
C648 C 0.92383 0.61394 0.237 0.0
C649 C 0.91854 0.63448 0.23438 0.0
C650 C 0.93303 0.60307 0.21871 0.0
C651 C 0.93767 0.61237 0.19713 0.0
C652 C 0.93189 0.63263 0.19429 0.0
C653 C 0.92251 0.64344 0.21249 0.0
C654 C 0.94855 0.60115 0.17767 0.0
C655 C 0.93937 0.60015 0.15554 0.0
C656 C 0.96782 0.59118 0.18079 0.0
C657 C 0.98012 0.59322 0.20269 0.0
C658 C 0.98821 0.6133 0.21219 0.0
C659 C 0.9998 0.61514 0.23284 0.0
C660 C 1.00357 0.59702 0.24406 0.0
C661 C 0.9958 0.57702 0.23462 0.0
C662 C 0.98417 0.57508 0.21399 0.0
C663 C 0.99397 0.5638 0.08282 0.0
C664 C 0.99654 0.54259 0.08606 0.0
C665 C 0.98451 0.57556 0.10025 0.0
C666 C 0.97742 0.56646 0.12148 0.0
C667 C 0.98036 0.54537 0.12476 0.0
C668 C 0.98969 0.53366 0.10737 0.0
C669 C 0.96714 0.57869 0.14041 0.0
C670 C 0.97649 0.5799 0.1624 0.0
C671 C 0.94831 0.58914 0.13705 0.0
C672 C 0.9372 0.5883 0.11454 0.0
C673 C 0.92863 0.56878 0.10405 0.0
C674 C 0.91889 0.56811 0.08245 0.0
C675 C 0.91745 0.58688 0.07125 0.0
C676 C 0.92563 0.60635 0.0817 0.0
C677 C 0.9354 0.60711 0.10329 0.0
H678 H 0.90998 0.58633 0.0545 0.0
H679 H 1.01256 0.59849 0.26003 0.0
H680 H 0.41365 0.19886 0.16807 0.0
H681 H 0.43821 0.17642 0.14895 0.0
H682 H 0.37982 0.13189 0.12933 0.0
H683 H 0.35531 0.1541 0.14852 0.0
H684 H 0.41043 0.11176 0.14658 0.0
H685 H 0.41046 0.16576 0.09068 0.0
H686 H 0.41583 0.20221 0.07655 0.0
H687 H 0.48572 0.21041 0.09435 0.0
H688 H 0.48069 0.17408 0.10888 0.0
H689 H 0.45414 0.05094 0.05916 0.0
H690 H 0.43417 0.07542 0.08104 0.0
H691 H 0.4976 0.111 0.10239 0.0
H692 H 0.51782 0.0865 0.08049 0.0
H693 H 0.46753 0.13644 0.08668 0.0
H694 H 0.46748 0.08104 0.14013 0.0
H695 H 0.46167 0.04414 0.15289 0.0
H696 H 0.39111 0.03828 0.13855 0.0
H697 H 0.39655 0.07507 0.12537 0.0
C698 C 0.40608 0.18441 0.15942 0.0
C699 C 0.38256 0.17819 0.15988 0.0
C700 C 0.42012 0.1716 0.14852 0.0
C701 C 0.41086 0.15248 0.13763 0.0
C702 C 0.38737 0.14648 0.13775 0.0
C703 C 0.37337 0.15918 0.14873 0.0
C704 C 0.42552 0.13832 0.12663 0.0
C705 C 0.42275 0.11714 0.13332 0.0
C706 C 0.44208 0.14544 0.1098 0.0
C707 C 0.44513 0.16729 0.10112 0.0
C708 C 0.42692 0.1754 0.09177 0.0
C709 C 0.42992 0.19602 0.08365 0.0
C710 C 0.45108 0.20864 0.08462 0.0
C711 C 0.46932 0.20064 0.09366 0.0
C712 C 0.46641 0.18003 0.10182 0.0
C713 C 0.46388 0.06389 0.0686 0.0
C714 C 0.48757 0.06675 0.06813 0.0
C715 C 0.45243 0.07784 0.08114 0.0
C716 C 0.46441 0.09495 0.09344 0.0
C717 C 0.48806 0.09788 0.09303 0.0
C718 C 0.49956 0.08381 0.08061 0.0
C719 C 0.45207 0.10988 0.10636 0.0
C720 C 0.45532 0.13117 0.10008 0.0
C721 C 0.43585 0.10286 0.12348 0.0
C722 C 0.43246 0.08077 0.13159 0.0
C723 C 0.45075 0.07184 0.13953 0.0
C724 C 0.44752 0.05095 0.14687 0.0
C725 C 0.42604 0.03886 0.14648 0.0
C726 C 0.40774 0.04766 0.13882 0.0
C727 C 0.41088 0.06854 0.13144 0.0
H728 H 0.42358 1.02269 0.15216 0.0
H729 H 0.45337 0.2246 0.07832 0.0
H730 H 0.23426 0.94629 0.5531 0.0
H731 H 0.20129 0.96386 0.54964 0.0
H732 H 0.15771 0.90516 0.56353 0.0
H733 H 0.19082 0.88738 0.56673 0.0
H734 H 0.14172 0.92432 0.52985 0.0
H735 H 0.16626 0.94437 0.60463 0.0
H736 H 0.19306 0.95756 0.63504 0.0
H737 H 0.2069 1.01802 0.60315 0.0
H738 H 0.18044 1.0051 0.57234 0.0
H739 H 0.06422 1.00884 0.55922 0.0
H740 H 0.09284 0.98841 0.57215 0.0
H741 H 0.11749 0.98407 0.50257 0.0
H742 H 0.08839 1.00339 0.48955 0.0
H743 H 0.13752 0.99226 0.57126 0.0
H744 H 0.13023 0.93615 0.49063 0.0
H745 H 0.10146 0.92336 0.46191 0.0
H746 H 0.04901 0.93262 0.51035 0.0
H747 H 0.07736 0.94457 0.53963 0.0
C748 C 0.21765 0.93715 0.55548 0.0
C749 C 0.21505 0.91553 0.56031 0.0
C750 C 0.19884 0.94721 0.55361 0.0
C751 C 0.17708 0.93591 0.55683 0.0
C752 C 0.17438 0.91418 0.56113 0.0
C753 C 0.19325 0.90404 0.56284 0.0
C754 C 0.15724 0.94685 0.55501 0.0
C755 C 0.14069 0.93906 0.53905 0.0
C756 C 0.15556 0.96577 0.56752 0.0
C757 C 0.17144 0.97371 0.58609 0.0
C758 C 0.17513 0.96044 0.60401 0.0
C759 C 0.19025 0.96787 0.62133 0.0
C760 C 0.2017 0.98861 0.62101 0.0
C761 C 0.19802 1.00196 0.60338 0.0
C762 C 0.18293 0.9946 0.58599 0.0
C763 C 0.07584 1.00353 0.54679 0.0
C764 C 0.07394 1.00727 0.52339 0.0
C765 C 0.09219 0.99198 0.55417 0.0
C766 C 0.10691 0.98431 0.53823 0.0
C767 C 0.10589 0.98933 0.51506 0.0
C768 C 0.08932 1.00042 0.50766 0.0
C769 C 0.12272 0.97023 0.54533 0.0
C770 C 0.1384 0.97735 0.56234 0.0
C771 C 0.12325 0.95039 0.53424 0.0
C772 C 0.10599 0.94144 0.51729 0.0
C773 C 0.11255 0.93512 0.49528 0.0
C774 C 0.0963 0.92801 0.47889 0.0
C775 C 0.07342 0.9272 0.48427 0.0
C776 C 0.06673 0.9332 0.50618 0.0
C777 C 0.08288 0.94005 0.52272 0.0
H778 H 0.06087 0.92191 0.47148 0.0
H779 H 0.2134 0.99434 0.63444 0.0
H780 H 0.7772 0.44087 0.92251 0.0
H781 H 0.81135 0.45682 0.94227 0.0
H782 H 0.84669 0.40841 0.91377 0.0
H783 H 0.81232 0.39186 0.8946 0.0
H784 H 0.85823 0.41605 0.95751 0.0
H785 H 0.8543 0.46113 0.89246 0.0
H786 H 0.83558 0.4839 0.86811 0.0
H787 H 0.82736 0.52482 0.92596 0.0
H788 H 0.8461 0.50233 0.9506 0.0
H789 H 0.96935 0.46602 0.98592 0.0
H790 H 0.93493 0.44881 0.96736 0.0
H791 H 0.90224 0.50236 0.98578 0.0
H792 H 0.9371 0.52009 1.00304 0.0
H793 H 0.88886 0.49175 0.94711 0.0
H794 H 0.89194 0.44896 1.01257 0.0
H795 H 0.90845 0.42657 0.03925 0.0
H796 H 0.91514 0.38161 0.9848 0.0
H797 H 0.89891 0.40387 0.95774 0.0
C798 C 0.79208 0.43336 0.92058 0.0
C799 C 0.79167 0.41493 0.90671 0.0
C800 C 0.81185 0.44274 0.93175 0.0
C801 C 0.83202 0.43417 0.92936 0.0
C802 C 0.83157 0.41556 0.91592 0.0
C803 C 0.8118 0.40616 0.90473 0.0
C804 C 0.85348 0.44454 0.94079 0.0
C805 C 0.86507 0.43254 0.95497 0.0
C806 C 0.8623 0.46627 0.9383 0.0
C807 C 0.85146 0.47999 0.92337 0.0
C808 C 0.84847 0.47497 0.89997 0.0
C809 C 0.83791 0.48786 0.88611 0.0
C810 C 0.83032 0.50582 0.89546 0.0
C811 C 0.83334 0.51097 0.91869 0.0
C812 C 0.84399 0.4982 0.93259 0.0
C813 C 0.95479 0.47409 0.98617 0.0
C814 C 0.95614 0.49448 0.99617 0.0
C815 C 0.93488 0.46411 0.97561 0.0
C816 C 0.91536 0.47387 0.97534 0.0
C817 C 0.91676 0.49423 0.98551 0.0
C818 C 0.93682 0.50441 0.99555 0.0
C819 C 0.89378 0.46331 0.96405 0.0
C820 C 0.88214 0.47526 0.94979 0.0
C821 C 0.88468 0.44162 0.96687 0.0
C822 C 0.89443 0.42819 0.98309 0.0
C823 C 0.89707 0.43437 1.00626 0.0
C824 C 0.90636 0.42169 0.02145 0.0
C825 C 0.9129 0.40271 1.01371 0.0
C826 C 0.9101 0.39634 0.99077 0.0
C827 C 0.90084 0.40897 0.9755 0.0
H828 H 0.92008 0.39291 0.0255 0.0
H829 H 0.8221 0.51575 0.88473 0.0
H830 H 0.72478 0.65204 0.40046 0.0
H831 H 0.68981 0.63792 0.42064 0.0
H832 H 0.71836 0.58305 0.43879 0.0
H833 H 0.75355 0.59721 0.41917 0.0
H834 H 0.67536 0.57127 0.42467 0.0
H835 H 0.71245 0.62279 0.47833 0.0
H836 H 0.7311 0.65813 0.49098 0.0
H837 H 0.6716 0.68432 0.47585 0.0
H838 H 0.65269 0.64917 0.46283 0.0
H839 H 0.58797 0.53114 0.50523 0.0
H840 H 0.6235 0.54372 0.48491 0.0
H841 H 0.60227 0.60441 0.47661 0.0
H842 H 0.56756 0.59215 0.49807 0.0
H843 H 0.6425 0.61267 0.48575 0.0
H844 H 0.60527 0.5623 0.43094 0.0
H845 H 0.58594 0.52733 0.41786 0.0
H846 H 0.64431 0.49959 0.43352 0.0
H847 H 0.66389 0.53436 0.44695 0.0
C848 C 0.72389 0.63711 0.40899 0.0
C849 C 0.74239 0.62593 0.40796 0.0
C850 C 0.70367 0.62894 0.42051 0.0
C851 C 0.70121 0.60933 0.43149 0.0
C852 C 0.71956 0.59811 0.43044 0.0
C853 C 0.7398 0.60629 0.41903 0.0
C854 C 0.67965 0.60058 0.44407 0.0
C855 C 0.66831 0.58027 0.43819 0.0
C856 C 0.66993 0.61228 0.46146 0.0
C857 C 0.68123 0.63339 0.46941 0.0
C858 C 0.7034 0.63612 0.47755 0.0
C859 C 0.71401 0.65611 0.48481 0.0
C860 C 0.70256 0.67347 0.48416 0.0
C861 C 0.68046 0.67087 0.47632 0.0
C862 C 0.66978 0.65091 0.46901 0.0
C863 C 0.59074 0.54701 0.49866 0.0
C864 C 0.5747 0.56049 0.50294 0.0
C865 C 0.61117 0.55429 0.48695 0.0
C866 C 0.61584 0.57508 0.47856 0.0
C867 C 0.59952 0.58837 0.48274 0.0
C868 C 0.57946 0.58128 0.49493 0.0
C869 C 0.63778 0.58338 0.46616 0.0
C870 C 0.64933 0.60362 0.47214 0.0
C871 C 0.64752 0.5717 0.44866 0.0
C872 C 0.63596 0.55089 0.44014 0.0
C873 C 0.61395 0.54872 0.43167 0.0
C874 C 0.60294 0.52894 0.4242 0.0
C875 C 0.61386 0.51124 0.42492 0.0
C876 C 0.63586 0.51331 0.433 0.0
C877 C 0.64693 0.53305 0.44052 0.0
H878 H 0.6053 0.49593 0.41917 0.0
H879 H 0.71081 0.68894 0.48979 0.0
H880 H 0.21802 0.31569 0.14545 0.0
H881 H 0.19101 0.33779 0.13294 0.0
H882 H 0.24472 0.39053 0.12593 0.0
H883 H 0.27203 0.36828 0.13826 0.0
H884 H 0.20285 0.399 0.15047 0.0
H885 H 0.2282 0.36961 0.07989 0.0
H886 H 0.23707 0.34079 0.05424 0.0
H887 H 0.16816 0.31044 0.05834 0.0
H888 H 0.15895 0.33894 0.08432 0.0
H889 H 0.13579 0.46194 0.09058 0.0
H890 H 0.16562 0.44364 0.10403 0.0
H891 H 0.12199 0.38377 0.0958 0.0
H892 H 0.09258 0.40181 0.08108 0.0
H893 H 0.16131 0.38066 0.07834 0.0
H894 H 0.13538 0.40784 0.14946 0.0
H895 H 0.12538 0.43503 0.17669 0.0
H896 H 0.19337 0.46785 0.17353 0.0
H897 H 0.20371 0.44098 0.14602 0.0
C898 C 0.22406 0.33202 0.14133 0.0
C899 C 0.24708 0.34032 0.14283 0.0
C900 C 0.20865 0.34458 0.13415 0.0
C901 C 0.21592 0.36574 0.12852 0.0
C902 C 0.23885 0.37422 0.13025 0.0
C903 C 0.25439 0.36151 0.13712 0.0
C904 C 0.19939 0.3787 0.12045 0.0
C905 C 0.194 0.39531 0.13451 0.0
C906 C 0.18749 0.37339 0.09997 0.0
C907 C 0.19293 0.35631 0.08421 0.0
C908 C 0.21498 0.3567 0.07548 0.0
C909 C 0.22006 0.34044 0.06085 0.0
C910 C 0.2032 0.32377 0.0547 0.0
C911 C 0.1812 0.32336 0.06313 0.0
C912 C 0.17604 0.33957 0.07779 0.0
C913 C 0.13254 0.44486 0.09154 0.0
C914 C 0.11173 0.43338 0.08465 0.0
C915 C 0.14956 0.43443 0.09951 0.0
C916 C 0.14603 0.41231 0.10112 0.0
C917 C 0.12513 0.40085 0.09473 0.0
C918 C 0.1082 0.41124 0.08655 0.0
C919 C 0.16438 0.40096 0.10848 0.0
C920 C 0.17017 0.38457 0.09426 0.0
C921 C 0.17642 0.40634 0.12896 0.0
C922 C 0.17025 0.42252 0.14548 0.0
C923 C 0.14815 0.42095 0.15442 0.0
C924 C 0.14243 0.43629 0.16993 0.0
C925 C 0.15871 0.45319 0.17678 0.0
C926 C 0.18077 0.45476 0.16817 0.0
C927 C 0.18657 0.43948 0.15264 0.0
H928 H 0.15426 0.46505 0.1888 0.0
H929 H 0.20717 0.3112 0.04337 0.0
H930 H 0.63319 0.22129 0.88156 0.0
H931 H 0.61776 0.18733 0.89822 0.0
H932 H 0.58982 0.21958 0.95475 0.0
H933 H 0.6043 0.25358 0.93787 0.0
H934 H 0.61064 0.18701 0.96995 0.0
H935 H 0.55603 0.19524 0.91312 0.0
H936 H 0.54312 0.20123 0.87437 0.0
H937 H 0.56896 0.14612 0.84897 0.0
H938 H 0.58231 0.13996 0.88753 0.0
H939 H 0.54203 0.09593 1.0179 0.0
H940 H 0.5575 0.13046 1.00216 0.0
H941 H 0.57394 0.09985 0.93886 0.0
H942 H 0.55753 0.06557 0.95422 0.0
H943 H 0.55909 0.13226 0.92734 0.0
H944 H 0.61454 0.12368 0.98267 0.0
H945 H 0.6287 0.11721 0.02079 0.0
H946 H 0.60367 0.17205 0.04818 0.0
H947 H 0.58909 0.17868 1.01028 0.0
C948 C 0.62346 0.22137 0.89733 0.0
C949 C 0.62025 0.2407 0.90812 0.0
C950 C 0.61471 0.20172 0.907 0.0
C951 C 0.60249 0.20059 0.9279 0.0
C952 C 0.59928 0.21977 0.93876 0.0
C953 C 0.60779 0.2394 0.929 0.0
C954 C 0.59303 0.17956 0.93837 0.0
C955 C 0.59915 0.17515 0.96069 0.0
C956 C 0.57843 0.16363 0.92634 0.0
C957 C 0.57037 0.16727 0.90316 0.0
C958 C 0.55912 0.18449 0.89923 0.0
C959 C 0.55169 0.1879 0.87731 0.0
C960 C 0.55527 0.1741 0.8592 0.0
C961 C 0.56623 0.15682 0.863 0.0
C962 C 0.57372 0.15335 0.88489 0.0
C963 C 0.54914 0.09654 1.00071 0.0
C964 C 0.54855 0.07781 0.98742 0.0
C965 C 0.55815 0.11642 0.99165 0.0
C966 C 0.56738 0.11819 0.96919 0.0
C967 C 0.567 0.09934 0.95613 0.0
C968 C 0.55769 0.07957 0.96503 0.0
C969 C 0.57682 0.13946 0.95898 0.0
C970 C 0.57064 0.14399 0.93667 0.0
C971 C 0.59162 0.15539 0.97094 0.0
C972 C 0.60052 0.15155 0.99369 0.0
C973 C 0.61193 0.13428 0.99686 0.0
C974 C 0.62005 0.13059 1.01842 0.0
C975 C 0.61703 0.14417 0.03691 0.0
C976 C 0.60596 0.16152 0.03385 0.0
C977 C 0.59778 0.16526 1.01233 0.0
H978 H 0.62331 0.14128 0.05359 0.0
H979 H 0.5495 0.17676 0.84224 0.0
H980 H 0.8777 0.81742 0.4114 0.0
H981 H 0.89475 0.8511 0.42835 0.0
H982 H 0.96008 0.83133 0.42395 0.0
H983 H 0.94291 0.79699 0.408 0.0
H984 H 0.95738 0.85091 0.46295 0.0
H985 H 0.94187 0.86892 0.38645 0.0
H986 H 0.91854 0.87073 0.3525 0.0
H987 H 0.87522 0.90596 0.39162 0.0
H988 H 0.89814 0.90414 0.42589 0.0
H989 H 0.99315 0.97587 0.45518 0.0
H990 H 0.97825 0.94143 0.43803 0.0
H991 H 0.96201 0.91668 0.50537 0.0
H992 H 0.97813 0.95074 0.52251 0.0
H993 H 0.9414 0.919 0.43383 0.0
H994 H 0.95425 0.86681 0.5085 0.0
H995 H 0.98092 0.86346 0.53933 0.0
H996 H 0.03543 0.89502 0.49834 0.0
H997 H 1.00897 0.89932 0.46761 0.0
C998 C 0.89569 0.81998 0.41417 0.0
C999 C 0.90873 0.80403 0.40824 0.0
C1000 C 0.90555 0.83958 0.42367 0.0
C1001 C 0.92892 0.84424 0.42733 0.0
C1002 C 0.94204 0.82842 0.42138 0.0
C1003 C 0.93216 0.80872 0.41195 0.0
C1004 C 0.93953 0.86534 0.43763 0.0
C1005 C 0.95384 0.86576 0.45647 0.0
C1006 C 0.93536 0.88504 0.42936 0.0
C1007 C 0.92161 0.88623 0.40878 0.0
C1008 C 0.92728 0.87694 0.38785 0.0
C1009 C 0.91415 0.87798 0.36854 0.0
C1010 C 0.89538 0.88841 0.36992 0.0
C1011 C 0.88975 0.89787 0.39059 0.0
C1012 C 0.90282 0.89686 0.40995 0.0
C1013 C 0.98655 0.96306 0.46638 0.0
C1014 C 0.98703 0.96627 0.49033 0.0
C1015 C 0.97791 0.94321 0.45651 0.0
C1016 C 0.96916 0.92584 0.47016 0.0
C1017 C 0.96926 0.92922 0.49414 0.0
C1018 C 0.97832 0.94896 0.50403 0.0
C1019 C 0.95934 0.90467 0.45924 0.0
C1020 C 0.94503 0.9042 0.44031 0.0
C1021 C 0.96383 0.88493 0.46716 0.0
C1022 C 0.97964 0.88356 0.48593 0.0
C1023 C 0.97191 0.87324 0.50621 0.0
C1024 C 0.98696 0.8713 0.52369 0.0
C1025 C 1.00984 0.87929 0.5209 0.0
C1026 C 0.01767 0.88929 0.50065 0.0
C1027 C 1.00264 0.89161 0.48326 0.0
H1028 H 0.02152 0.87759 0.53435 0.0
H1029 H 0.88523 0.8892 0.35495 0.0
H1030 H 0.42135 0.80413 0.56894 0.0
H1031 H 0.43317 0.77118 0.55542 0.0
H1032 H 0.36379 0.74431 0.54352 0.0
H1033 H 0.35178 0.77699 0.55791 0.0
H1034 H 0.38316 0.71976 0.56946 0.0
H1035 H 0.40208 0.75313 0.49864 0.0
H1036 H 0.41867 0.78138 0.47268 0.0
H1037 H 0.48489 0.77613 0.49593 0.0
H1038 H 0.46869 0.74805 0.52229 0.0
H1039 H 0.42173 0.62336 0.54224 0.0
H1040 H 0.40461 0.65495 0.53584 0.0
H1041 H 0.46782 0.69436 0.55124 0.0
H1042 H 0.4851 0.66281 0.55725 0.0
H1043 H 0.4468 0.71042 0.51676 0.0
H1044 H 0.42666 0.68256 0.59239 0.0
H1045 H 0.41032 0.65485 0.61914 0.0
H1046 H 0.34614 0.65056 0.58678 0.0
H1047 H 0.36221 0.67808 0.55964 0.0
C1048 C 0.40864 0.79129 0.56319 0.0
C1049 C 0.38563 0.79307 0.56472 0.0
C1050 C 0.41543 0.77255 0.55517 0.0
C1051 C 0.39936 0.75532 0.54831 0.0
C1052 C 0.37646 0.75745 0.54866 0.0
C1053 C 0.36964 0.77618 0.55675 0.0
C1054 C 0.40632 0.73441 0.54376 0.0
C1055 C 0.39666 0.71757 0.55746 0.0
C1056 C 0.42425 0.73169 0.52846 0.0
C1057 C 0.43413 0.74853 0.51255 0.0
C1058 C 0.42017 0.75809 0.49834 0.0
C1059 C 0.42951 0.77406 0.48353 0.0
C1060 C 0.45281 0.78056 0.48268 0.0
C1061 C 0.46683 0.77107 0.49661 0.0
C1062 C 0.45758 0.7551 0.51146 0.0
C1063 C 0.43196 0.63878 0.54413 0.0
C1064 C 0.45463 0.64072 0.55054 0.0
C1065 C 0.42221 0.65677 0.54039 0.0
C1066 C 0.43488 0.67697 0.54339 0.0
C1067 C 0.45778 0.6789 0.5488 0.0
C1068 C 0.4676 0.66091 0.5523 0.0
C1069 C 0.42395 0.69611 0.54284 0.0
C1070 C 0.43291 0.71256 0.52828 0.0
C1071 C 0.40539 0.69856 0.55739 0.0
C1072 C 0.39569 0.68218 0.57384 0.0
C1073 C 0.4091 0.6756 0.5909 0.0
C1074 C 0.39989 0.65995 0.60613 0.0
C1075 C 0.37722 0.6509 0.60462 0.0
C1076 C 0.36371 0.65755 0.5879 0.0
C1077 C 0.37285 0.67317 0.5726 0.0
H1078 H 0.37012 0.63878 0.61643 0.0
H1079 H 0.46001 0.79294 0.47121 0.0
H1080 H 0.83273 0.80506 0.72667 0.0
H1081 H 0.85822 0.82549 0.69965 0.0
H1082 H 0.8116 0.86988 0.694 0.0
H1083 H 0.78535 0.84889 0.72028 0.0
H1084 H 0.83168 0.86364 0.65312 0.0
H1085 H 0.85518 0.88032 0.73002 0.0
H1086 H 0.86575 0.87282 0.7692 0.0
H1087 H 0.92163 0.84491 0.74245 0.0
H1088 H 0.91118 0.85197 0.70306 0.0
H1089 H 0.91159 0.95413 0.62221 0.0
H1090 H 0.88246 0.92858 0.64052 0.0
H1091 H 0.92796 0.8827 0.63983 0.0
H1092 H 0.95721 0.90823 0.62155 0.0
H1093 H 0.90833 0.88889 0.68263 0.0
H1094 H 0.88503 0.87523 0.60486 0.0
H1095 H 0.87398 0.88471 0.56653 0.0
H1096 H 0.81729 0.90965 0.59594 0.0
H1097 H 0.8282 0.90061 0.63452 0.0
C1098 C 0.82753 0.81883 0.71925 0.0
C1099 C 0.80701 0.8254 0.72582 0.0
C1100 C 0.84228 0.83063 0.70397 0.0
C1101 C 0.83701 0.84943 0.69518 0.0
C1102 C 0.81606 0.85549 0.70072 0.0
C1103 C 0.80119 0.84359 0.71591 0.0
C1104 C 0.85399 0.86341 0.68149 0.0
C1105 C 0.84838 0.86933 0.65963 0.0
C1106 C 0.87585 0.87066 0.68992 0.0
C1107 C 0.88225 0.86647 0.71359 0.0
C1108 C 0.86961 0.87243 0.73249 0.0
C1109 C 0.8756 0.86828 0.75473 0.0
C1110 C 0.89431 0.85834 0.75831 0.0
C1111 C 0.90711 0.85258 0.73965 0.0
C1112 C 0.90118 0.85666 0.71736 0.0
C1113 C 0.91531 0.93854 0.62585 0.0
C1114 C 0.93666 0.93316 0.62057 0.0
C1115 C 0.89863 0.92393 0.63613 0.0
C1116 C 0.90305 0.90374 0.6414 0.0
C1117 C 0.92422 0.89819 0.6358 0.0
C1118 C 0.94085 0.91273 0.6253 0.0
C1119 C 0.88611 0.88897 0.65418 0.0
C1120 C 0.89171 0.88304 0.67601 0.0
C1121 C 0.8642 0.88202 0.64581 0.0
C1122 C 0.85756 0.88741 0.62262 0.0
C1123 C 0.87032 0.88291 0.60319 0.0
C1124 C 0.86406 0.88816 0.5814 0.0
C1125 C 0.84498 0.89782 0.5788 0.0
C1126 C 0.83208 0.90219 0.59799 0.0
C1127 C 0.83828 0.89698 0.61981 0.0
H1128 H 0.84015 0.90188 0.56192 0.0
H1129 H 0.89892 0.85515 0.77555 0.0
H1130 H 0.62264 0.14197 0.32979 0.0
H1131 H 0.61045 0.12616 0.29263 0.0
H1132 H 0.66499 0.16659 0.25913 0.0
H1133 H 0.67717 0.18259 0.29622 0.0
H1134 H 0.62365 0.16255 0.23585 0.0
H1135 H 0.67202 0.11849 0.26961 0.0
H1136 H 0.68405 0.09702 0.30017 0.0
H1137 H 0.62076 0.05536 0.29707 0.0
H1138 H 0.60822 0.07678 0.2667 0.0
H1139 H 0.62705 0.10646 0.12973 0.0
H1140 H 0.63603 0.12521 0.16624 0.0
H1141 H 0.58941 0.07787 0.20128 0.0
H1142 H 0.58099 0.05881 0.16496 0.0
H1143 H 0.62614 0.08593 0.22417 0.0
H1144 H 0.57732 0.12858 0.19046 0.0
H1145 H 0.56403 0.14982 0.16041 0.0
H1146 H 0.62574 0.19376 0.1639 0.0
H1147 H 0.63953 0.17261 0.19376 0.0
C1148 C 0.63179 0.14772 0.31445 0.0
C1149 C 0.65091 0.16341 0.31585 0.0
C1150 C 0.6249 0.13861 0.2933 0.0
C1151 C 0.63698 0.14511 0.27324 0.0
C1152 C 0.65551 0.16137 0.27446 0.0
C1153 C 0.66251 0.17037 0.29563 0.0
C1154 C 0.631 0.1342 0.25112 0.0
C1155 C 0.62437 0.14584 0.23314 0.0
C1156 C 0.63151 0.11233 0.2479 0.0
C1157 C 0.63909 0.09937 0.26606 0.0
C1158 C 0.66059 0.10486 0.27558 0.0
C1159 C 0.66752 0.09268 0.29284 0.0
C1160 C 0.65315 0.07487 0.3006 0.0
C1161 C 0.63185 0.06917 0.29106 0.0
C1162 C 0.62483 0.08132 0.27382 0.0
C1163 C 0.61869 0.10018 0.14525 0.0
C1164 C 0.6034 0.08121 0.14462 0.0
C1165 C 0.62373 0.11091 0.16607 0.0
C1166 C 0.61317 0.10309 0.18648 0.0
C1167 C 0.5978 0.08418 0.18578 0.0
C1168 C 0.59301 0.07331 0.16505 0.0
C1169 C 0.61859 0.11421 0.20872 0.0
C1170 C 0.62523 0.10261 0.22678 0.0
C1171 C 0.61785 0.13607 0.21205 0.0
C1172 C 0.60954 0.1489 0.1942 0.0
C1173 C 0.58812 0.14269 0.1847 0.0
C1174 C 0.58049 0.15473 0.16772 0.0
C1175 C 0.59405 0.1731 0.16021 0.0
C1176 C 0.61526 0.17951 0.16971 0.0
C1177 C 0.62298 0.16752 0.18669 0.0
H1178 H 0.58812 0.1824 0.14705 0.0
H1179 H 0.65855 0.06546 0.31396 0.0
H1180 H 0.40555 0.65295 0.34031 0.0
H1181 H 0.41921 0.63502 0.37234 0.0
H1182 H 0.44951 0.59458 0.32515 0.0
H1183 H 0.43483 0.6116 0.29302 0.0
H1184 H 0.43307 0.57153 0.35871 0.0
H1185 H 0.48018 0.63946 0.35698 0.0
H1186 H 0.4885 0.67842 0.35724 0.0
H1187 H 0.4555 0.68107 0.42287 0.0
H1188 H 0.44674 0.64212 0.42288 0.0
H1189 H 0.50376 0.5324 0.4396 0.0
H1190 H 0.48864 0.54955 0.40767 0.0
H1191 H 0.45829 0.58963 0.4553 0.0
H1192 H 0.47387 0.57293 0.48726 0.0
H1193 H 0.47451 0.61284 0.42169 0.0
H1194 H 0.42754 0.54507 0.42364 0.0
H1195 H 0.41909 0.50612 0.42355 0.0
H1196 H 0.45163 0.50316 0.35772 0.0
H1197 H 0.46051 0.5421 0.35754 0.0
C1198 C 0.41483 0.64006 0.33654 0.0
C1199 C 0.41899 0.63405 0.3136 0.0
C1200 C 0.42303 0.62992 0.35511 0.0
C1201 C 0.436 0.61352 0.35156 0.0
C1202 C 0.43979 0.6072 0.32873 0.0
C1203 C 0.43148 0.61723 0.31016 0.0
C1204 C 0.44549 0.60293 0.37144 0.0
C1205 C 0.44239 0.58067 0.37227 0.0
C1206 C 0.4573 0.61449 0.38976 0.0
C1207 C 0.46261 0.63789 0.38982 0.0
C1208 C 0.47457 0.64836 0.3714 0.0
C1209 C 0.47938 0.67044 0.3715 0.0
C1210 C 0.47248 0.68221 0.39003 0.0
C1211 C 0.4608 0.67193 0.40852 0.0
C1212 C 0.45593 0.64986 0.40848 0.0
C1213 C 0.49379 0.54479 0.4434 0.0
C1214 C 0.49007 0.55103 0.46632 0.0
C1215 C 0.48496 0.55461 0.42496 0.0
C1216 C 0.47182 0.57087 0.42869 0.0
C1217 C 0.46824 0.5772 0.45159 0.0
C1218 C 0.47716 0.56748 0.47002 0.0
C1219 C 0.46211 0.58145 0.40894 0.0
C1220 C 0.46518 0.6037 0.40814 0.0
C1221 C 0.45026 0.56989 0.39065 0.0
C1222 C 0.44488 0.54649 0.39069 0.0
C1223 C 0.43302 0.53611 0.40922 0.0
C1224 C 0.42814 0.51404 0.4092 0.0
C1225 C 0.43487 0.50217 0.39067 0.0
C1226 C 0.44645 0.51237 0.37208 0.0
C1227 C 0.4514 0.53444 0.37201 0.0
H1228 H 0.43108 0.48509 0.39069 0.0
H1229 H 0.47622 0.69931 0.39008 0.0
H1230 H 0.14104 0.4136 0.83871 0.0
H1231 H 0.12421 0.43151 0.87032 0.0
H1232 H 0.08307 0.45832 0.82288 0.0
H1233 H 0.10082 0.44145 0.79095 0.0
H1234 H 0.09715 0.48742 0.85269 0.0
H1235 H 0.06292 0.41482 0.86123 0.0
H1236 H 0.06253 0.37655 0.86564 0.0
H1237 H 0.09974 0.38869 0.92781 0.0
H1238 H 0.10059 0.42706 0.92363 0.0
H1239 H 0.02403 0.52602 0.93443 0.0
H1240 H 0.04 0.50624 0.90363 0.0
H1241 H 0.07904 0.47896 0.9528 0.0
H1242 H 0.06231 0.49834 0.98379 0.0
H1243 H 0.06662 0.44996 0.92254 0.0
H1244 H 0.10127 0.52213 0.91434 0.0
H1245 H 0.10242 0.56053 0.91021 0.0
H1246 H 0.06559 0.54942 0.8477 0.0
H1247 H 0.06398 0.51094 0.85161 0.0
C1248 C 0.12858 0.42343 0.83476 0.0
C1249 C 0.12254 0.42587 0.81181 0.0
C1250 C 0.11861 0.43352 0.85313 0.0
C1251 C 0.10189 0.4462 0.84941 0.0
C1252 C 0.09578 0.44865 0.82656 0.0
C1253 C 0.10586 0.43868 0.80815 0.0
C1254 C 0.09122 0.45729 0.8691 0.0
C1255 C 0.09019 0.47905 0.86777 0.0
C1256 C 0.08261 0.44687 0.8894 0.0
C1257 C 0.08199 0.42381 0.892 0.0
C1258 C 0.07114 0.40933 0.87576 0.0
C1259 C 0.07082 0.38762 0.87823 0.0
C1260 C 0.08115 0.3802 0.89696 0.0
C1261 C 0.09177 0.39447 0.9133 0.0
C1262 C 0.09216 0.41619 0.9109 0.0
C1263 C 0.03592 0.5157 0.93876 0.0
C1264 C 0.04165 0.51369 0.96178 0.0
C1265 C 0.04529 0.50446 0.92098 0.0
C1266 C 0.06135 0.49125 0.92543 0.0
C1267 C 0.06679 0.48893 0.94855 0.0
C1268 C 0.05707 0.49996 0.96644 0.0
C1269 C 0.07241 0.48007 0.90605 0.0
C1270 C 0.07356 0.45832 0.90746 0.0
C1271 C 0.08125 0.49052 0.88585 0.0
C1272 C 0.08234 0.51365 0.88338 0.0
C1273 C 0.09331 0.52788 0.89978 0.0
C1274 C 0.09405 0.54966 0.89747 0.0
C1275 C 0.08404 0.55741 0.87873 0.0
C1276 C 0.07332 0.5434 0.86222 0.0
C1277 C 0.07251 0.5216 0.86446 0.0
H1278 H 0.08463 0.57427 0.87698 0.0
H1279 H 0.08089 0.36339 0.89884 0.0
H1280 H 0.61947 0.85953 0.85968 0.0
H1281 H 0.59749 0.88328 0.88029 0.0
H1282 H 0.64796 0.89414 0.93256 0.0
H1283 H 0.67007 0.87049 0.91202 0.0
H1284 H 0.60601 0.8899 0.95117 0.0
H1285 H 0.64676 0.92954 0.89048 0.0
H1286 H 0.65899 0.93668 0.85052 0.0
H1287 H 0.59036 0.93713 0.83154 0.0
H1288 H 0.57769 0.92968 0.87136 0.0
H1289 H 0.58417 0.98717 0.99976 0.0
H1290 H 0.60208 0.96065 0.97866 0.0
H1291 H 0.54544 0.94857 0.93342 0.0
H1292 H 0.52722 0.97496 0.9546 0.0
H1293 H 0.58821 0.95242 0.91076 0.0
H1294 H 0.54777 0.91464 0.97211 0.0
H1295 H 0.53586 0.90812 1.01226 0.0
H1296 H 0.60415 0.90463 0.03016 0.0
H1297 H 0.61654 0.9115 0.99016 0.0
C1298 C 0.62588 0.86695 0.87558 0.0
C1299 C 0.64661 0.86323 0.88411 0.0
C1300 C 0.61329 0.8805 0.88735 0.0
C1301 C 0.62125 0.89073 0.90779 0.0
C1302 C 0.64149 0.88642 0.91681 0.0
C1303 C 0.65408 0.87283 0.90508 0.0
C1304 C 0.60894 0.90652 0.91936 0.0
C1305 C 0.60232 0.90367 0.94239 0.0
C1306 C 0.60367 0.92426 0.90777 0.0
C1307 C 0.61126 0.92882 0.88384 0.0
C1308 C 0.63426 0.93099 0.87775 0.0
C1309 C 0.64127 0.93512 0.85513 0.0
C1310 C 0.62545 0.9373 0.83849 0.0
C1311 C 0.60259 0.9354 0.84444 0.0
C1312 C 0.59549 0.93124 0.86704 0.0
C1313 C 0.57557 0.97901 0.98522 0.0
C1314 C 0.55425 0.98313 0.97888 0.0
C1315 C 0.58579 0.96379 0.97326 0.0
C1316 C 0.57497 0.95254 0.95464 0.0
C1317 C 0.55401 0.95706 0.9478 0.0
C1318 C 0.54363 0.9721 0.95993 0.0
C1319 C 0.5855 0.93587 0.94256 0.0
C1320 C 0.59179 0.93857 0.91946 0.0
C1321 C 0.59051 0.91804 0.9541 0.0
C1322 C 0.58312 0.9138 0.97817 0.0
C1323 C 0.56029 0.91268 0.98464 0.0
C1324 C 0.55344 0.90888 1.00737 0.0
C1325 C 0.56925 0.90601 0.02376 0.0
C1326 C 0.59193 0.90688 1.01744 0.0
C1327 C 0.59887 0.91072 0.99474 0.0
H1328 H 0.56391 0.90306 0.04135 0.0
H1329 H 0.63092 0.9405 0.82098 0.0
H1330 H 0.80517 0.09341 0.44008 0.0
H1331 H 0.83639 0.07873 0.45648 0.0
H1332 H 0.87513 0.14129 0.46165 0.0
H1333 H 0.84406 0.15606 0.44491 0.0
H1334 H 0.90046 0.11164 0.44532 0.0
H1335 H 0.85021 0.12063 0.50807 0.0
H1336 H 0.81359 0.11684 0.52858 0.0
H1337 H 0.80929 0.04926 0.52586 0.0
H1338 H 0.84576 0.05265 0.50501 0.0
H1339 H 0.95509 0.06687 0.55058 0.0
H1340 H 0.92689 0.08553 0.53396 0.0
H1341 H 0.93456 0.05354 0.46907 0.0
H1342 H 0.9631 0.03522 0.48548 0.0
H1343 H 0.88711 0.07095 0.51684 0.0
H1344 H 0.92544 0.08512 0.4257 0.0
H1345 H 0.96272 0.09185 0.40646 0.0
H1346 H 0.99262 0.11799 0.46908 0.0
H1347 H 0.95552 0.11157 0.48863 0.0
C1348 C 0.82045 0.10399 0.44444 0.0
C1349 C 0.82219 0.12588 0.4413 0.0
C1350 C 0.83817 0.09562 0.45395 0.0
C1351 C 0.85792 0.10898 0.46046 0.0
C1352 C 0.85997 0.13076 0.45678 0.0
C1353 C 0.84219 0.13917 0.44739 0.0
C1354 C 0.87623 0.10022 0.47155 0.0
C1355 C 0.89759 0.10273 0.46095 0.0
C1356 C 0.87251 0.08899 0.49217 0.0
C1357 C 0.85062 0.08689 0.50479 0.0
C1358 C 0.84137 0.10496 0.51168 0.0
C1359 C 0.82066 0.10288 0.52339 0.0
C1360 C 0.80909 0.08282 0.52847 0.0
C1361 C 0.81825 0.06479 0.52189 0.0
C1362 C 0.83895 0.06678 0.51014 0.0
C1363 C 0.95077 0.06389 0.53276 0.0
C1364 C 0.96118 0.04962 0.5193 0.0
C1365 C 0.93468 0.07452 0.5233 0.0
C1366 C 0.92879 0.07107 0.50023 0.0
C1367 C 0.93913 0.05672 0.4868 0.0
C1368 C 0.9553 0.04616 0.49622 0.0
C1369 C 0.91134 0.08201 0.49041 0.0
C1370 C 0.89006 0.07987 0.50122 0.0
C1371 C 0.91528 0.09388 0.4702 0.0
C1372 C 0.93772 0.0977 0.45866 0.0
C1373 C 0.93997 0.09233 0.43535 0.0
C1374 C 0.96107 0.09607 0.42439 0.0
C1375 C 0.98003 0.10529 0.43654 0.0
C1376 C 0.97795 0.11076 0.4597 0.0
C1377 C 0.95689 0.10703 0.47074 0.0
H1378 H 0.99632 0.10826 0.42797 0.0
H1379 H 0.79306 0.08125 0.53755 0.0
H1380 H 0.26413 0.61848 0.11601 0.0
H1381 H 0.22908 0.60315 0.09794 0.0
H1382 H 0.19321 0.64441 0.13871 0.0
H1383 H 0.22808 0.65882 0.15819 0.0
H1384 H 0.16746 0.6092 0.13649 0.0
H1385 H 0.20678 0.65067 0.07792 0.0
H1386 H 0.23827 0.66425 0.05191 0.0
H1387 H 0.23655 0.60226 0.02165 0.0
H1388 H 0.20523 0.58823 0.0477 0.0
H1389 H 0.07029 0.59047 0.06186 0.0
H1390 H 0.10511 0.60798 0.07997 0.0
H1391 H 0.13741 0.55411 0.06262 0.0
H1392 H 0.1025 0.53623 0.04516 0.0
H1393 H 0.16382 0.59717 0.05239 0.0
H1394 H 0.12317 0.55701 0.11352 0.0
H1395 H 0.08994 0.54634 0.13843 0.0
H1396 H 0.0925 0.61056 0.16245 0.0
H1397 H 0.12557 0.62167 0.13737 0.0
C1398 C 0.24886 0.62426 0.1215 0.0
C1399 C 0.24941 0.64005 0.1389 0.0
C1400 C 0.22864 0.61561 0.11072 0.0
C1401 C 0.20813 0.62271 0.11643 0.0
C1402 C 0.20857 0.63852 0.13371 0.0
C1403 C 0.2288 0.64702 0.14473 0.0
C1404 C 0.18636 0.61337 0.10473 0.0
C1405 C 0.16676 0.60694 0.11806 0.0
C1406 C 0.18492 0.61004 0.08059 0.0
C1407 C 0.20381 0.61836 0.06493 0.0
C1408 C 0.21324 0.63989 0.06585 0.0
C1409 C 0.23103 0.64768 0.05107 0.0
C1410 C 0.23945 0.63411 0.03518 0.0
C1411 C 0.23004 0.61274 0.03399 0.0
C1412 C 0.21225 0.60487 0.04875 0.0
C1413 C 0.08482 0.58235 0.06178 0.0
C1414 C 0.08344 0.56187 0.05194 0.0
C1415 C 0.10476 0.5924 0.07224 0.0
C1416 C 0.12406 0.58245 0.07274 0.0
C1417 C 0.12288 0.56221 0.06249 0.0
C1418 C 0.1028 0.55196 0.05253 0.0
C1419 C 0.14532 0.59295 0.0842 0.0
C1420 C 0.16471 0.59957 0.07081 0.0
C1421 C 0.14642 0.59689 0.10817 0.0
C1422 C 0.12668 0.5902 0.12337 0.0
C1423 C 0.11652 0.56889 0.12394 0.0
C1424 C 0.09774 0.56275 0.13813 0.0
C1425 C 0.08907 0.57777 0.15196 0.0
C1426 C 0.09921 0.59895 0.15169 0.0
C1427 C 0.11798 0.60517 0.13751 0.0
H1428 H 0.07452 0.57299 0.16293 0.0
H1429 H 0.25322 0.64017 0.02375 0.0
H1430 H 0.28201 0.44232 0.62115 0.0
H1431 H 0.31705 0.45983 0.6036 0.0
H1432 H 0.35262 0.41261 0.63059 0.0
H1433 H 0.31816 0.39593 0.64945 0.0
H1434 H 0.37882 0.44734 0.63392 0.0
H1435 H 0.33461 0.41484 0.57098 0.0
H1436 H 0.30137 0.40777 0.5462 0.0
H1437 H 0.30913 0.47355 0.52985 0.0
H1438 H 0.34227 0.48105 0.55475 0.0
H1439 H 0.47146 0.45389 0.55216 0.0
H1440 H 0.43604 0.44281 0.57334 0.0
H1441 H 0.41685 0.50399 0.56351 0.0
H1442 H 0.45273 0.51534 0.54286 0.0
H1443 H 0.38226 0.46581 0.55189 0.0
H1444 H 0.43073 0.49624 0.61153 0.0
H1445 H 0.46414 0.50174 0.63599 0.0
H1446 H 0.44805 0.43794 0.65913 0.0
H1447 H 0.41534 0.43166 0.63383 0.0
C1448 C 0.29729 0.43575 0.62372 0.0
C1449 C 0.29678 0.41737 0.63674 0.0
C1450 C 0.31744 0.44568 0.61327 0.0
C1451 C 0.33776 0.43744 0.61513 0.0
C1452 C 0.33738 0.41941 0.62855 0.0
C1453 C 0.31736 0.40963 0.63919 0.0
C1454 C 0.35942 0.44739 0.60335 0.0
C1455 C 0.3795 0.45108 0.61589 0.0
C1456 C 0.36063 0.45302 0.5799 0.0
C1457 C 0.34075 0.44854 0.56492 0.0
C1458 C 0.32912 0.42782 0.56222 0.0
C1459 C 0.31032 0.42373 0.54814 0.0
C1460 C 0.30311 0.44021 0.53651 0.0
C1461 C 0.31472 0.46081 0.5389 0.0
C1462 C 0.33351 0.46499 0.55298 0.0
C1463 C 0.45984 0.4651 0.55476 0.0
C1464 C 0.46515 0.48565 0.54612 0.0
C1465 C 0.43953 0.45872 0.56687 0.0
C1466 C 0.42362 0.4725 0.57015 0.0
C1467 C 0.42879 0.49302 0.56134 0.0
C1468 C 0.44944 0.49961 0.54974 0.0
C1469 C 0.40156 0.46522 0.5824 0.0
C1470 C 0.38148 0.46207 0.56993 0.0
C1471 C 0.40041 0.45982 0.60584 0.0
C1472 C 0.42071 0.46336 0.62042 0.0
C1473 C 0.43461 0.4832 0.62138 0.0
C1474 C 0.45346 0.48647 0.63542 0.0
C1475 C 0.45838 0.47014 0.64895 0.0
C1476 C 0.44445 0.45052 0.64844 0.0
C1477 C 0.4258 0.44706 0.63415 0.0
H1478 H 0.47289 0.47275 0.65995 0.0
H1479 H 0.28855 0.43702 0.52562 0.0
H1480 H 0.78592 0.71632 0.93361 0.0
H1481 H 0.81504 0.69669 0.94591 0.0
H1482 H 0.82196 0.67265 0.87697 0.0
H1483 H 0.79197 0.69148 0.86468 0.0
H1484 H 0.82537 0.64261 0.9069 0.0
H1485 H 0.85923 0.71418 0.89723 0.0
H1486 H 0.86344 0.75295 0.90199 0.0
H1487 H 0.87006 0.74758 0.97456 0.0
H1488 H 0.86555 0.70873 0.97028 0.0
H1489 H 0.93143 0.61048 0.9323 0.0
H1490 H 0.90257 0.62774 0.91476 0.0
H1491 H 0.88766 0.65501 0.98044 0.0
H1492 H 0.91702 0.63869 0.99782 0.0
H1493 H 0.89003 0.68356 0.94805 0.0
H1494 H 0.8542 0.61027 0.95604 0.0
H1495 H 0.85168 0.57183 0.94898 0.0
H1496 H 0.85096 0.58111 0.87649 0.0
H1497 H 0.85375 0.61962 0.8831 0.0
C1498 C 0.79323 0.70651 0.92111 0.0
C1499 C 0.78665 0.70562 0.8981 0.0
C1500 C 0.81012 0.69548 0.92813 0.0
C1501 C 0.82104 0.68356 0.91227 0.0
C1502 C 0.81391 0.6819 0.88948 0.0
C1503 C 0.79689 0.69283 0.88245 0.0
C1504 C 0.84036 0.67344 0.91941 0.0
C1505 C 0.83965 0.65161 0.91565 0.0
C1506 C 0.85904 0.68515 0.93079 0.0
C1507 C 0.86186 0.70853 0.93345 0.0
C1508 C 0.86142 0.72125 0.91423 0.0
C1509 C 0.86388 0.74325 0.91683 0.0
C1510 C 0.86696 0.75272 0.93857 0.0
C1511 C 0.86764 0.74021 0.95774 0.0
C1512 C 0.86516 0.71821 0.95523 0.0
C1513 C 0.92216 0.62033 0.94295 0.0
C1514 C 0.92645 0.62306 0.96652 0.0
C1515 C 0.90549 0.63 0.93294 0.0
C1516 C 0.8927 0.64243 0.94635 0.0
C1517 C 0.89721 0.6454 0.96977 0.0
C1518 C 0.91388 0.63587 0.97973 0.0
C1519 C 0.87472 0.65262 0.93621 0.0
C1520 C 0.87577 0.67456 0.93928 0.0
C1521 C 0.85656 0.64103 0.92394 0.0
C1522 C 0.85442 0.61784 0.92006 0.0
C1523 C 0.85362 0.60412 0.9386 0.0
C1524 C 0.85213 0.58232 0.93468 0.0
C1525 C 0.85125 0.57405 0.9123 0.0
C1526 C 0.85169 0.58754 0.89381 0.0
C1527 C 0.85321 0.60935 0.89763 0.0
H1528 H 0.85024 0.55721 0.90926 0.0
H1529 H 0.86887 0.76975 0.94055 0.0
H1530 H 0.43277 0.7976 0.10883 0.0
H1531 H 0.44734 0.83076 0.09063 0.0
H1532 H 0.42028 0.8652 0.14608 0.0
H1533 H 0.40373 0.83208 0.16331 0.0
H1534 H 0.4153 0.88545 0.1115 0.0
H1535 H 0.48083 0.85898 0.13646 0.0
H1536 H 0.50727 0.83342 0.1399 0.0
H1537 H 0.51831 0.83353 0.06706 0.0
H1538 H 0.49171 0.85889 0.06316 0.0
H1539 H 0.48521 0.98518 0.09242 0.0
H1540 H 0.46796 0.95086 0.10724 0.0
H1541 H 0.48188 0.92081 0.0429 0.0
H1542 H 0.499 0.95534 0.02785 0.0
H1543 H 0.49347 0.89841 0.0803 0.0
H1544 H 0.42847 0.92739 0.0572 0.0
H1545 H 0.40372 0.95463 0.05603 0.0
H1546 H 0.39378 0.95148 0.12892 0.0
H1547 H 0.41873 0.9244 0.13057 0.0
C1548 C 0.42942 0.81207 0.11717 0.0
C1549 C 0.41686 0.81154 0.13795 0.0
C1550 C 0.43831 0.83134 0.10679 0.0
C1551 C 0.43565 0.851 0.11703 0.0
C1552 C 0.42294 0.85055 0.1376 0.0
C1553 C 0.41365 0.83129 0.14776 0.0
C1554 C 0.44574 0.87189 0.10632 0.0
C1555 C 0.43253 0.8882 0.10503 0.0
C1556 C 0.46814 0.87593 0.09721 0.0
C1557 C 0.48408 0.86065 0.0995 0.0
C1558 C 0.48877 0.85343 0.12116 0.0
C1559 C 0.5038 0.83899 0.1232 0.0
C1560 C 0.51441 0.8318 0.10371 0.0
C1561 C 0.51005 0.83908 0.08214 0.0
C1562 C 0.49501 0.85349 0.08001 0.0
C1563 C 0.48444 0.97132 0.08129 0.0
C1564 C 0.49346 0.97319 0.05884 0.0
C1565 C 0.4745 0.9516 0.08982 0.0
C1566 C 0.47337 0.93297 0.07628 0.0
C1567 C 0.48242 0.93478 0.05382 0.0
C1568 C 0.49212 0.95462 0.04514 0.0
C1569 C 0.46308 0.91176 0.08576 0.0
C1570 C 0.47625 0.89548 0.08679 0.0
C1571 C 0.44082 0.90789 0.09501 0.0
C1572 C 0.42562 0.92399 0.09403 0.0
C1573 C 0.42113 0.9326 0.073 0.0
C1574 C 0.40704 0.948 0.07225 0.0
C1575 C 0.39723 0.95482 0.0924 0.0
C1576 C 0.40142 0.9462 0.11333 0.0
C1577 C 0.41551 0.93081 0.11418 0.0
H1578 H 0.38634 0.96675 0.09178 0.0
H1579 H 0.52605 0.82063 0.10532 0.0
H1580 H 0.1089 0.26332 0.61309 0.0
H1581 H 0.09497 0.22993 0.59326 0.0
H1582 H 0.11082 0.19554 0.65171 0.0
H1583 H 0.12588 0.22873 0.67114 0.0
H1584 H 0.12107 0.17489 0.61582 0.0
H1585 H 0.0546 0.20399 0.63744 0.0
H1586 H 0.02939 0.23093 0.63948 0.0
H1587 H 0.02547 0.22965 0.56614 0.0
H1588 H 0.0509 0.20289 0.56366 0.0
H1589 H 0.05427 0.07543 0.58789 0.0
H1590 H 0.06984 0.10947 0.6056 0.0
H1591 H 0.05743 0.1412 0.54401 0.0
H1592 H 0.04164 0.10717 0.52623 0.0
H1593 H 0.04571 0.1634 0.58037 0.0
H1594 H 0.11151 0.13324 0.55922 0.0
H1595 H 0.13622 0.10588 0.55772 0.0
H1596 H 0.14084 0.10874 0.63101 0.0
H1597 H 0.11589 0.13593 0.63297 0.0
C1598 C 0.10976 0.24871 0.62173 0.0
C1599 C 0.11852 0.24912 0.64402 0.0
C1600 C 0.10141 0.22945 0.61039 0.0
C1601 C 0.10126 0.20986 0.62098 0.0
C1602 C 0.11045 0.21021 0.643 0.0
C1603 C 0.11891 0.22942 0.65428 0.0
C1604 C 0.09167 0.18908 0.60928 0.0
C1605 C 0.10445 0.17239 0.60837 0.0
C1606 C 0.07015 0.18555 0.59891 0.0
C1607 C 0.05484 0.20161 0.60036 0.0
C1608 C 0.04849 0.20957 0.62174 0.0
C1609 C 0.03414 0.22479 0.62298 0.0
C1610 C 0.02589 0.23204 0.60295 0.0
C1611 C 0.03191 0.22405 0.58164 0.0
C1612 C 0.04628 0.20884 0.58031 0.0
C1613 C 0.05487 0.0896 0.578 0.0
C1614 C 0.04668 0.08831 0.55547 0.0
C1615 C 0.06393 0.10918 0.58819 0.0
C1616 C 0.0652 0.12819 0.5762 0.0
C1617 C 0.0568 0.12696 0.55378 0.0
C1618 C 0.04779 0.10735 0.54354 0.0
C1619 C 0.07507 0.14924 0.58707 0.0
C1620 C 0.06234 0.16594 0.58781 0.0
C1621 C 0.09659 0.15275 0.59738 0.0
C1622 C 0.11166 0.13648 0.59625 0.0
C1623 C 0.11766 0.12793 0.57503 0.0
C1624 C 0.13173 0.11247 0.5741 0.0
C1625 C 0.14004 0.10554 0.59426 0.0
C1626 C 0.13436 0.1141 0.6154 0.0
C1627 C 0.12027 0.12955 0.61644 0.0
H1628 H 0.15093 0.09357 0.5935 0.0
H1629 H 1.01478 0.24382 0.60394 0.0
H1630 H 0.71107 0.28836 0.50051 0.0
H1631 H 0.69157 0.31887 0.50538 0.0
H1632 H 0.63031 0.27769 0.52391 0.0
H1633 H 0.6498 0.247 0.51916 0.0
H1634 H 0.62408 0.30245 0.48907 0.0
H1635 H 0.65733 0.31285 0.56292 0.0
H1636 H 0.68803 0.31668 0.59084 0.0
H1637 H 0.72134 0.37176 0.55656 0.0
H1638 H 0.691 0.3681 0.52823 0.0
H1639 H 0.56237 0.38778 0.50409 0.0
H1640 H 0.58044 0.35698 0.51152 0.0
H1641 H 0.64527 0.39276 0.49409 0.0
H1642 H 0.62732 0.42361 0.48669 0.0
H1643 H 0.64773 0.36989 0.53181 0.0
H1644 H 0.61765 0.35765 0.45615 0.0
H1645 H 0.58812 0.35399 0.42696 0.0
H1646 H 0.55022 0.30241 0.46344 0.0
H1647 H 0.57941 0.30596 0.49304 0.0
C1648 C 0.69365 0.28583 0.50637 0.0
C1649 C 0.68192 0.26527 0.50933 0.0
C1650 C 0.6825 0.3033 0.50911 0.0
C1651 C 0.65949 0.30054 0.51502 0.0
C1652 C 0.64806 0.28014 0.51927 0.0
C1653 C 0.6592 0.26265 0.51651 0.0
C1654 C 0.64686 0.31858 0.51413 0.0
C1655 C 0.62893 0.31704 0.49882 0.0
C1656 C 0.65368 0.33781 0.52629 0.0
C1657 C 0.67195 0.3401 0.54334 0.0
C1658 C 0.67129 0.32569 0.56122 0.0
C1659 C 0.68861 0.32785 0.57715 0.0
C1660 C 0.70664 0.34443 0.57545 0.0
C1661 C 0.70736 0.35892 0.55785 0.0
C1662 C 0.69009 0.35683 0.54187 0.0
C1663 C 0.58045 0.38901 0.50168 0.0
C1664 C 0.59343 0.40805 0.49469 0.0
C1665 C 0.59075 0.37145 0.50602 0.0
C1666 C 0.61417 0.37256 0.50319 0.0
C1667 C 0.62719 0.39161 0.49647 0.0
C1668 C 0.61692 0.4092 0.49224 0.0
C1669 C 0.62507 0.35372 0.5067 0.0
C1670 C 0.64271 0.35517 0.52236 0.0
C1671 C 0.61813 0.33442 0.49473 0.0
C1672 C 0.60058 0.33223 0.47694 0.0
C1673 C 0.60293 0.34565 0.45805 0.0
C1674 C 0.58627 0.34357 0.44141 0.0
C1675 C 0.56727 0.32802 0.44338 0.0
C1676 C 0.56493 0.31447 0.46197 0.0
C1677 C 0.58153 0.3165 0.47867 0.0
H1678 H 0.5544 0.32643 0.43048 0.0
H1679 H 0.72004 0.34607 0.58779 0.0
loop_
_geom_bond_atom_site_label_1
_geom_bond_atom_site_label_2
_geom_bond_distance
_geom_bond_site_symmetry_2
_ccdc_geom_bond_type
C0 C1 1.264 . S
C0 C5 1.479 . S
C0 C10 1.465 . S
C1 C0 1.264 . S
C1 C3 1.339 . S
C1 H28 0.931 . S
C2 C3 1.395 . S
C2 C4 1.320 . S
C3 C1 1.339 . S
C3 C2 1.395 . S
C3 H29 0.929 . S
C4 C2 1.320 . S
C4 C5 1.405 . S
C4 H30 0.930 . S
C5 C0 1.479 . S
C5 C4 1.405 . S
C5 H31 0.931 . S
U6 O7 2.454 . S
U6 O8 2.458 . S
U6 C9 2.984 . S
U6 C10 2.847 . S
U6 C23 2.882 . S
U6 O24 2.441 . S
U6 O25 2.420 . S
U6 O26 2.455 . S
U6 O27 2.449 . S
O7 U6 2.454 . S
O7 C9 1.353 . S
O8 U6 2.458 . S
O8 C9 1.286 . S
C9 U6 2.984 . S
C9 O7 1.353 . S
C9 O8 1.286 . S
C9 C11 1.363 . S
C10 C0 1.465 . S
C10 U6 2.847 . S
C10 O24 1.249 . S
C10 O25 1.202 . S
C11 C9 1.363 . S
C11 C13 1.408 . S
C11 C16 1.342 . S
C12 C13 1.310 . S
C12 C15 1.461 . S
C12 H32 0.932 . S
C13 C11 1.408 . S
C13 C12 1.310 . S
C13 H33 0.930 . S
C14 C15 1.474 . S
C14 C16 1.285 . S
C14 H34 0.929 . S
C15 C12 1.461 . S
C15 C14 1.474 . S
C16 C11 1.342 . S
C16 C14 1.285 . S
C16 H35 0.930 . S
C17 C20 1.424 . S
C17 C22 1.245 . S
C17 C23 1.428 . S
C18 C21 1.260 . S
C18 C22 1.477 . S
C18 H36 0.932 . S
C19 C20 1.384 . S
C19 C21 1.479 . S
C19 H37 0.929 . S
C20 C17 1.424 . S
C20 C19 1.384 . S
C20 H38 0.928 . S
C21 C18 1.260 . S
C21 C19 1.479 . S
C22 C17 1.245 . S
C22 C18 1.477 . S
C22 H39 0.932 . S
C23 U6 2.882 . S
C23 C17 1.428 . S
C23 O26 1.301 . S
C23 O27 1.282 . S
O24 U6 2.441 . S
O24 C10 1.249 . S
O25 U6 2.420 . S
O25 C10 1.202 . S
O26 U6 2.455 . S
O26 C23 1.301 . S
O27 U6 2.449 . S
O27 C23 1.282 . S
H28 C1 0.931 . S
H29 C3 0.929 . S
H30 C4 0.930 . S
H31 C5 0.931 . S
H32 C12 0.932 . S
H33 C13 0.930 . S
H34 C14 0.929 . S
H35 C16 0.930 . S
H36 C18 0.932 . S
H37 C19 0.929 . S
H38 C20 0.928 . S
H39 C22 0.932 . S
C40 C41 1.264 . S
C40 C45 1.479 . S
C40 C50 1.465 . S
C41 C40 1.264 . S
C41 C43 1.339 . S
C41 H68 0.931 . S
C42 C43 1.395 . S
C42 C44 1.320 . S
C43 C41 1.339 . S
C43 C42 1.395 . S
C43 H69 0.929 . S
C44 C42 1.320 . S
C44 C45 1.405 . S
C44 H70 0.930 . S
C45 C40 1.479 . S
C45 C44 1.405 . S
C45 H71 0.931 . S
U46 O47 2.454 . S
U46 O48 2.458 . S
U46 C49 2.984 . S
U46 C50 2.847 . S
U46 C63 2.882 . S
U46 O64 2.441 . S
U46 O65 2.420 . S
U46 O66 2.455 . S
U46 O67 2.449 . S
O47 U46 2.454 . S
O47 C49 1.353 . S
O48 U46 2.458 . S
O48 C49 1.286 . S
C49 U46 2.984 . S
C49 O47 1.353 . S
C49 O48 1.286 . S
C49 C51 1.363 . S
C50 C40 1.465 . S
C50 U46 2.847 . S
C50 O64 1.249 . S
C50 O65 1.202 . S
C51 C49 1.363 . S
C51 C53 1.408 . S
C51 C56 1.342 . S
C52 C53 1.310 . S
C52 C55 1.461 . S
C52 H72 0.932 . S
C53 C51 1.408 . S
C53 C52 1.310 . S
C53 H73 0.930 . S
C54 C55 1.474 . S
C54 C56 1.285 . S
C54 H74 0.929 . S
C55 C52 1.461 . S
C55 C54 1.474 . S
C56 C51 1.342 . S
C56 C54 1.285 . S
C56 H75 0.930 . S
C57 C60 1.424 . S
C57 C62 1.245 . S
C57 C63 1.428 . S
C58 C61 1.260 . S
C58 C62 1.477 . S
C58 H76 0.932 . S
C59 C60 1.384 . S
C59 C61 1.479 . S
C59 H77 0.929 . S
C60 C57 1.424 . S
C60 C59 1.384 . S
C60 H78 0.928 . S
C61 C58 1.260 . S
C61 C59 1.479 . S
C62 C57 1.245 . S
C62 C58 1.477 . S
C62 H79 0.932 . S
C63 U46 2.882 . S
C63 C57 1.428 . S
C63 O66 1.301 . S
C63 O67 1.282 . S
O64 U46 2.441 . S
O64 C50 1.249 . S
O65 U46 2.420 . S
O65 C50 1.202 . S
O66 U46 2.455 . S
O66 C63 1.301 . S
O67 U46 2.449 . S
O67 C63 1.282 . S
H68 C41 0.931 . S
H69 C43 0.929 . S
H70 C44 0.930 . S
H71 C45 0.931 . S
H72 C52 0.932 . S
H73 C53 0.930 . S
H74 C54 0.929 . S
H75 C56 0.930 . S
H76 C58 0.932 . S
H77 C59 0.929 . S
H78 C60 0.928 . S
H79 C62 0.932 . S
C80 C81 1.264 . S
C80 C85 1.479 . S
C80 C90 1.465 . S
C81 C80 1.264 . S
C81 C83 1.339 . S
C81 H108 0.931 . S
C82 C83 1.395 . S
C82 C84 1.320 . S
C83 C81 1.339 . S
C83 C82 1.395 . S
C83 H109 0.929 . S
C84 C82 1.320 . S
C84 C85 1.405 . S
C84 H110 0.930 . S
C85 C80 1.479 . S
C85 C84 1.405 . S
C85 H111 0.931 . S
U86 O87 2.454 . S
U86 O88 2.458 . S
U86 C89 2.984 . S
U86 C90 2.847 . S
U86 C103 2.882 . S
U86 O104 2.441 . S
U86 O105 2.420 . S
U86 O106 2.455 . S
U86 O107 2.449 . S
O87 U86 2.454 . S
O87 C89 1.353 . S
O88 U86 2.458 . S
O88 C89 1.286 . S
C89 U86 2.984 . S
C89 O87 1.353 . S
C89 O88 1.286 . S
C89 C91 1.363 . S
C90 C80 1.465 . S
C90 U86 2.847 . S
C90 O104 1.249 . S
C90 O105 1.202 . S
C91 C89 1.363 . S
C91 C93 1.408 . S
C91 C96 1.342 . S
C92 C93 1.310 . S
C92 C95 1.461 . S
C92 H112 0.932 . S
C93 C91 1.408 . S
C93 C92 1.310 . S
C93 H113 0.930 . S
C94 C95 1.474 . S
C94 C96 1.285 . S
C94 H114 0.929 . S
C95 C92 1.461 . S
C95 C94 1.474 . S
C96 C91 1.342 . S
C96 C94 1.285 . S
C96 H115 0.930 . S
C97 C100 1.424 . S
C97 C102 1.245 . S
C97 C103 1.428 . S
C98 C101 1.260 . S
C98 C102 1.477 . S
C98 H116 0.932 . S
C99 C100 1.384 . S
C99 C101 1.479 . S
C99 H117 0.929 . S
C100 C97 1.424 . S
C100 C99 1.384 . S
C100 H118 0.928 . S
C101 C98 1.260 . S
C101 C99 1.479 . S
C102 C97 1.245 . S
C102 C98 1.477 . S
C102 H119 0.932 . S
C103 U86 2.882 . S
C103 C97 1.428 . S
C103 O106 1.301 . S
C103 O107 1.282 . S
O104 U86 2.441 . S
O104 C90 1.249 . S
O105 U86 2.420 . S
O105 C90 1.202 . S
O106 U86 2.455 . S
O106 C103 1.301 . S
O107 U86 2.449 . S
O107 C103 1.282 . S
H108 C81 0.931 . S
H109 C83 0.929 . S
H110 C84 0.930 . S
H111 C85 0.931 . S
H112 C92 0.932 . S
H113 C93 0.930 . S
H114 C94 0.929 . S
H115 C96 0.930 . S
H116 C98 0.932 . S
H117 C99 0.929 . S
H118 C100 0.928 . S
H119 C102 0.932 . S
C120 C121 1.264 . S
C120 C125 1.479 . S
C120 C130 1.465 . S
C121 C120 1.264 . S
C121 C123 1.339 . S
C121 H148 0.931 . S
C122 C123 1.395 . S
C122 C124 1.320 . S
C123 C121 1.339 . S
C123 C122 1.395 . S
C123 H149 0.929 . S
C124 C122 1.320 . S
C124 C125 1.405 . S
C124 H150 0.930 . S
C125 C120 1.479 . S
C125 C124 1.405 . S
C125 H151 0.931 . S
U126 O127 2.454 . S
U126 O128 2.458 . S
U126 C129 2.984 . S
U126 C130 2.847 . S
U126 C143 2.882 . S
U126 O144 2.441 . S
U126 O145 2.420 . S
U126 O146 2.455 . S
U126 O147 2.449 . S
O127 U126 2.454 . S
O127 C129 1.353 . S
O128 U126 2.458 . S
O128 C129 1.286 . S
C129 U126 2.984 . S
C129 O127 1.353 . S
C129 O128 1.286 . S
C129 C131 1.363 . S
C130 C120 1.465 . S
C130 U126 2.847 . S
C130 O144 1.249 . S
C130 O145 1.202 . S
C131 C129 1.363 . S
C131 C133 1.408 . S
C131 C136 1.342 . S
C132 C133 1.310 . S
C132 C135 1.461 . S
C132 H152 0.932 . S
C133 C131 1.408 . S
C133 C132 1.310 . S
C133 H153 0.930 . S
C134 C135 1.474 . S
C134 C136 1.285 . S
C134 H154 0.929 . S
C135 C132 1.461 . S
C135 C134 1.474 . S
C136 C131 1.342 . S
C136 C134 1.285 . S
C136 H155 0.930 . S
C137 C140 1.424 . S
C137 C142 1.245 . S
C137 C143 1.428 . S
C138 C141 1.260 . S
C138 C142 1.477 . S
C138 H156 0.932 . S
C139 C140 1.384 . S
C139 C141 1.479 . S
C139 H157 0.929 . S
C140 C137 1.424 . S
C140 C139 1.384 . S
C140 H158 0.928 . S
C141 C138 1.260 . S
C141 C139 1.479 . S
C142 C137 1.245 . S
C142 C138 1.477 . S
C142 H159 0.932 . S
C143 U126 2.882 . S
C143 C137 1.428 . S
C143 O146 1.301 . S
C143 O147 1.282 . S
O144 U126 2.441 . S
O144 C130 1.249 . S
O145 U126 2.420 . S
O145 C130 1.202 . S
O146 U126 2.455 . S
O146 C143 1.301 . S
O147 U126 2.449 . S
O147 C143 1.282 . S
H148 C121 0.931 . S
H149 C123 0.929 . S
H150 C124 0.930 . S
H151 C125 0.931 . S
H152 C132 0.932 . S
H153 C133 0.930 . S
H154 C134 0.929 . S
H155 C136 0.930 . S
H156 C138 0.932 . S
H157 C139 0.929 . S
H158 C140 0.928 . S
H159 C142 0.932 . S
C160 C161 1.264 . S
C160 C165 1.479 . S
C160 C170 1.465 . S
C161 C160 1.264 . S
C161 C163 1.339 . S
C161 H188 0.931 . S
C162 C163 1.395 . S
C162 C164 1.320 . S
C163 C161 1.339 . S
C163 C162 1.395 . S
C163 H189 0.929 . S
C164 C162 1.320 . S
C164 C165 1.405 . S
C164 H190 0.930 . S
C165 C160 1.479 . S
C165 C164 1.405 . S
C165 H191 0.931 . S
U166 O167 2.454 . S
U166 O168 2.458 . S
U166 C169 2.984 . S
U166 C170 2.847 . S
U166 C183 2.882 . S
U166 O184 2.441 . S
U166 O185 2.420 . S
U166 O186 2.455 . S
U166 O187 2.449 . S
O167 U166 2.454 . S
O167 C169 1.353 . S
O168 U166 2.458 . S
O168 C169 1.286 . S
C169 U166 2.984 . S
C169 O167 1.353 . S
C169 O168 1.286 . S
C169 C171 1.363 . S
C170 C160 1.465 . S
C170 U166 2.847 . S
C170 O184 1.249 . S
C170 O185 1.202 . S
C171 C169 1.363 . S
C171 C173 1.408 . S
C171 C176 1.342 . S
C172 C173 1.310 . S
C172 C175 1.461 . S
C172 H192 0.932 . S
C173 C171 1.408 . S
C173 C172 1.310 . S
C173 H193 0.930 . S
C174 C175 1.474 . S
C174 C176 1.285 . S
C174 H194 0.929 . S
C175 C172 1.461 . S
C175 C174 1.474 . S
C176 C171 1.342 . S
C176 C174 1.285 . S
C176 H195 0.930 . S
C177 C180 1.424 . S
C177 C182 1.245 . S
C177 C183 1.428 . S
C178 C181 1.260 . S
C178 C182 1.477 . S
C178 H196 0.932 . S
C179 C180 1.384 . S
C179 C181 1.479 . S
C179 H197 0.929 . S
C180 C177 1.424 . S
C180 C179 1.384 . S
C180 H198 0.928 . S
C181 C178 1.260 . S
C181 C179 1.479 . S
C182 C177 1.245 . S
C182 C178 1.477 . S
C182 H199 0.932 . S
C183 U166 2.882 . S
C183 C177 1.428 . S
C183 O186 1.301 . S
C183 O187 1.282 . S
O184 U166 2.441 . S
O184 C170 1.249 . S
O185 U166 2.420 . S
O185 C170 1.202 . S
O186 U166 2.455 . S
O186 C183 1.301 . S
O187 U166 2.449 . S
O187 C183 1.282 . S
H188 C161 0.931 . S
H189 C163 0.929 . S
H190 C164 0.930 . S
H191 C165 0.931 . S
H192 C172 0.932 . S
H193 C173 0.930 . S
H194 C174 0.929 . S
H195 C176 0.930 . S
H196 C178 0.932 . S
H197 C179 0.929 . S
H198 C180 0.928 . S
H199 C182 0.932 . S
C200 C201 1.264 . S
C200 C205 1.479 . S
C200 C210 1.465 . S
C201 C200 1.264 . S
C201 C203 1.339 . S
C201 H228 0.931 . S
C202 C203 1.395 . S
C202 C204 1.320 . S
C203 C201 1.339 . S
C203 C202 1.395 . S
C203 H229 0.929 . S
C204 C202 1.320 . S
C204 C205 1.405 . S
C204 H230 0.930 . S
C205 C200 1.479 . S
C205 C204 1.405 . S
C205 H231 0.931 . S
U206 O207 2.454 . S
U206 O208 2.458 . S
U206 C209 2.984 . S
U206 C210 2.847 . S
U206 C223 2.882 . S
U206 O224 2.441 . S
U206 O225 2.420 . S
U206 O226 2.455 . S
U206 O227 2.449 . S
O207 U206 2.454 . S
O207 C209 1.353 . S
O208 U206 2.458 . S
O208 C209 1.286 . S
C209 U206 2.984 . S
C209 O207 1.353 . S
C209 O208 1.286 . S
C209 C211 1.363 . S
C210 C200 1.465 . S
C210 U206 2.847 . S
C210 O224 1.249 . S
C210 O225 1.202 . S
C211 C209 1.363 . S
C211 C213 1.408 . S
C211 C216 1.342 . S
C212 C213 1.310 . S
C212 C215 1.461 . S
C212 H232 0.932 . S
C213 C211 1.408 . S
C213 C212 1.310 . S
C213 H233 0.930 . S
C214 C215 1.474 . S
C214 C216 1.285 . S
C214 H234 0.929 . S
C215 C212 1.461 . S
C215 C214 1.474 . S
C216 C211 1.342 . S
C216 C214 1.285 . S
C216 H235 0.930 . S
C217 C220 1.424 . S
C217 C222 1.245 . S
C217 C223 1.428 . S
C218 C221 1.260 . S
C218 C222 1.477 . S
C218 H236 0.932 . S
C219 C220 1.384 . S
C219 C221 1.479 . S
C219 H237 0.929 . S
C220 C217 1.424 . S
C220 C219 1.384 . S
C220 H238 0.928 . S
C221 C218 1.260 . S
C221 C219 1.479 . S
C222 C217 1.245 . S
C222 C218 1.477 . S
C222 H239 0.932 . S
C223 U206 2.882 . S
C223 C217 1.428 . S
C223 O226 1.301 . S
C223 O227 1.282 . S
O224 U206 2.441 . S
O224 C210 1.249 . S
O225 U206 2.420 . S
O225 C210 1.202 . S
O226 U206 2.455 . S
O226 C223 1.301 . S
O227 U206 2.449 . S
O227 C223 1.282 . S
H228 C201 0.931 . S
H229 C203 0.929 . S
H230 C204 0.930 . S
H231 C205 0.931 . S
H232 C212 0.932 . S
H233 C213 0.930 . S
H234 C214 0.929 . S
H235 C216 0.930 . S
H236 C218 0.932 . S
H237 C219 0.929 . S
H238 C220 0.928 . S
H239 C222 0.932 . S
C240 C241 1.264 . S
C240 C245 1.479 . S
C240 C250 1.465 . S
C241 C240 1.264 . S
C241 C243 1.339 . S
C241 H268 0.931 . S
C242 C243 1.395 . S
C242 C244 1.320 . S
C243 C241 1.339 . S
C243 C242 1.395 . S
C243 H269 0.929 . S
C244 C242 1.320 . S
C244 C245 1.405 . S
C244 H270 0.930 . S
C245 C240 1.479 . S
C245 C244 1.405 . S
C245 H271 0.931 . S
U246 O247 2.454 . S
U246 O248 2.458 . S
U246 C249 2.984 . S
U246 C250 2.847 . S
U246 C263 2.882 . S
U246 O264 2.441 . S
U246 O265 2.420 . S
U246 O266 2.455 . S
U246 O267 2.449 . S
O247 U246 2.454 . S
O247 C249 1.353 . S
O248 U246 2.458 . S
O248 C249 1.286 . S
C249 U246 2.984 . S
C249 O247 1.353 . S
C249 O248 1.286 . S
C249 C251 1.363 . S
C250 C240 1.465 . S
C250 U246 2.847 . S
C250 O264 1.249 . S
C250 O265 1.202 . S
C251 C249 1.363 . S
C251 C253 1.408 . S
C251 C256 1.342 . S
C252 C253 1.310 . S
C252 C255 1.461 . S
C252 H272 0.932 . S
C253 C251 1.408 . S
C253 C252 1.310 . S
C253 H273 0.930 . S
C254 C255 1.474 . S
C254 C256 1.285 . S
C254 H274 0.929 . S
C255 C252 1.461 . S
C255 C254 1.474 . S
C256 C251 1.342 . S
C256 C254 1.285 . S
C256 H275 0.930 . S
C257 C260 1.424 . S
C257 C262 1.245 . S
C257 C263 1.428 . S
C258 C261 1.260 . S
C258 C262 1.477 . S
C258 H276 0.932 . S
C259 C260 1.384 . S
C259 C261 1.479 . S
C259 H277 0.929 . S
C260 C257 1.424 . S
C260 C259 1.384 . S
C260 H278 0.928 . S
C261 C258 1.260 . S
C261 C259 1.479 . S
C262 C257 1.245 . S
C262 C258 1.477 . S
C262 H279 0.932 . S
C263 U246 2.882 . S
C263 C257 1.428 . S
C263 O266 1.301 . S
C263 O267 1.282 . S
O264 U246 2.441 . S
O264 C250 1.249 . S
O265 U246 2.420 . S
O265 C250 1.202 . S
O266 U246 2.455 . S
O266 C263 1.301 . S
O267 U246 2.449 . S
O267 C263 1.282 . S
H268 C241 0.931 . S
H269 C243 0.929 . S
H270 C244 0.930 . S
H271 C245 0.931 . S
H272 C252 0.932 . S
H273 C253 0.930 . S
H274 C254 0.929 . S
H275 C256 0.930 . S
H276 C258 0.932 . S
H277 C259 0.929 . S
H278 C260 0.928 . S
H279 C262 0.932 . S
C280 C281 1.264 . S
C280 C285 1.479 . S
C280 C290 1.465 . S
C281 C280 1.264 . S
C281 C283 1.339 . S
C281 H308 0.931 . S
C282 C283 1.395 . S
C282 C284 1.320 . S
C283 C281 1.339 . S
C283 C282 1.395 . S
C283 H309 0.929 . S
C284 C282 1.320 . S
C284 C285 1.405 . S
C284 H310 0.930 . S
C285 C280 1.479 . S
C285 C284 1.405 . S
C285 H311 0.931 . S
U286 O287 2.454 . S
U286 O288 2.458 . S
U286 C289 2.984 . S
U286 C290 2.847 . S
U286 C303 2.882 . S
U286 O304 2.441 . S
U286 O305 2.420 . S
U286 O306 2.455 . S
U286 O307 2.449 . S
O287 U286 2.454 . S
O287 C289 1.353 . S
O288 U286 2.458 . S
O288 C289 1.286 . S
C289 U286 2.984 . S
C289 O287 1.353 . S
C289 O288 1.286 . S
C289 C291 1.363 . S
C290 C280 1.465 . S
C290 U286 2.847 . S
C290 O304 1.249 . S
C290 O305 1.202 . S
C291 C289 1.363 . S
C291 C293 1.408 . S
C291 C296 1.342 . S
C292 C293 1.310 . S
C292 C295 1.461 . S
C292 H312 0.932 . S
C293 C291 1.408 . S
C293 C292 1.310 . S
C293 H313 0.930 . S
C294 C295 1.474 . S
C294 C296 1.285 . S
C294 H314 0.929 . S
C295 C292 1.461 . S
C295 C294 1.474 . S
C296 C291 1.342 . S
C296 C294 1.285 . S
C296 H315 0.930 . S
C297 C300 1.424 . S
C297 C302 1.245 . S
C297 C303 1.428 . S
C298 C301 1.260 . S
C298 C302 1.477 . S
C298 H316 0.932 . S
C299 C300 1.384 . S
C299 C301 1.479 . S
C299 H317 0.929 . S
C300 C297 1.424 . S
C300 C299 1.384 . S
C300 H318 0.928 . S
C301 C298 1.260 . S
C301 C299 1.479 . S
C302 C297 1.245 . S
C302 C298 1.477 . S
C302 H319 0.932 . S
C303 U286 2.882 . S
C303 C297 1.428 . S
C303 O306 1.301 . S
C303 O307 1.282 . S
O304 U286 2.441 . S
O304 C290 1.249 . S
O305 U286 2.420 . S
O305 C290 1.202 . S
O306 U286 2.455 . S
O306 C303 1.301 . S
O307 U286 2.449 . S
O307 C303 1.282 . S
H308 C281 0.931 . S
H309 C283 0.929 . S
H310 C284 0.930 . S
H311 C285 0.931 . S
H312 C292 0.932 . S
H313 C293 0.930 . S
H314 C294 0.929 . S
H315 C296 0.930 . S
H316 C298 0.932 . S
H317 C299 0.929 . S
H318 C300 0.928 . S
H319 C302 0.932 . S
Sm320 C322 2.846 . S
Sm320 O340 2.543 . S
Sm320 O341 2.450 . S
Sm320 O342 2.681 1_545 S
Sm320 O343 2.464 1_545 S
Sm320 O344 2.396 . S
Sm320 O348 2.386 1_455 S
Sm320 O351 2.408 1_445 S
Sm321 C331 2.814 1_545 S
Sm321 O342 2.369 1_645 S
Sm321 O345 2.444 1_655 S
Sm321 O346 2.501 1_545 S
Sm321 O347 2.433 1_545 S
Sm321 O348 2.702 . S
Sm321 O349 2.488 . S
Sm321 O350 2.368 1_545 S
C322 Sm320 2.846 . S
C322 C323 1.506 . S
C322 O340 1.261 . S
C322 O341 1.242 . S
C323 C322 1.506 . S
C323 C324 1.358 . S
C323 C328 1.382 . S
C324 C323 1.358 . S
C324 C325 1.385 . S
C324 H352 0.930 . S
C325 C324 1.385 . S
C325 C326 1.395 . S
C325 H353 0.929 . S
C326 C325 1.395 . S
C326 C327 1.335 . S
C327 C326 1.335 . S
C327 C328 1.398 . S
C327 H354 0.930 . S
C328 C323 1.382 . S
C328 C327 1.398 . S
C328 H355 0.929 . S
C329 O342 1.271 . S
C329 O343 1.251 . S
C330 O344 1.252 . S
C330 O345 1.272 . S
C331 Sm321 2.814 1_565 S
C331 C332 1.506 . S
C331 O346 1.261 . S
C331 O347 1.242 . S
C332 C331 1.506 . S
C332 C333 1.358 . S
C332 C337 1.382 . S
C333 C332 1.358 . S
C333 C334 1.385 . S
C333 H356 0.930 . S
C334 C333 1.385 . S
C334 C335 1.395 . S
C334 H357 0.929 . S
C335 C334 1.395 . S
C335 C336 1.335 . S
C336 C335 1.335 . S
C336 C337 1.398 . S
C336 H358 0.930 . S
C337 C332 1.382 . S
C337 C336 1.398 . S
C337 H359 0.929 . S
C338 O348 1.271 . S
C338 O349 1.251 . S
C339 O350 1.252 . S
C339 O351 1.272 . S
O340 Sm320 2.543 . S
O340 C322 1.261 . S
O341 Sm320 2.450 . S
O341 C322 1.242 . S
O342 Sm320 2.681 1_565 S
O342 Sm321 2.369 1_465 S
O342 C329 1.271 . S
O343 Sm320 2.464 1_565 S
O343 C329 1.251 . S
O344 Sm320 2.396 . S
O344 C330 1.252 . S
O345 Sm321 2.444 1_455 S
O345 C330 1.272 . S
O346 Sm321 2.501 1_565 S
O346 C331 1.261 . S
O347 Sm321 2.433 1_565 S
O347 C331 1.242 . S
O348 Sm320 2.386 1_655 S
O348 Sm321 2.702 . S
O348 C338 1.271 . S
O349 Sm321 2.488 . S
O349 C338 1.251 . S
O350 Sm321 2.368 1_565 S
O350 C339 1.252 . S
O351 Sm320 2.408 1_665 S
O351 C339 1.272 . S
H352 C324 0.930 . S
H353 C325 0.929 . S
H354 C327 0.930 . S
H355 C328 0.929 . S
H356 C333 0.930 . S
H357 C334 0.929 . S
H358 C336 0.930 . S
H359 C337 0.929 . S
Sm360 C362 2.846 . S
Sm360 O380 2.543 . S
Sm360 O381 2.450 . S
Sm360 O382 2.681 1_545 S
Sm360 O383 2.464 1_545 S
Sm360 O384 2.396 . S
Sm360 O388 2.386 1_554 S
Sm360 O391 2.408 1_544 S
Sm361 C371 2.846 1_545 S
Sm361 O382 2.386 1_546 S
Sm361 O385 2.408 1_556 S
Sm361 O386 2.543 1_545 S
Sm361 O387 2.450 1_545 S
Sm361 O388 2.681 . S
Sm361 O389 2.464 . S
Sm361 O390 2.396 1_545 S
C362 Sm360 2.846 . S
C362 C363 1.506 . S
C362 O380 1.261 . S
C362 O381 1.242 . S
C363 C362 1.506 . S
C363 C364 1.358 . S
C363 C368 1.382 . S
C364 C363 1.358 . S
C364 C365 1.385 . S
C364 H392 0.930 . S
C365 C364 1.385 . S
C365 C366 1.395 . S
C365 H393 0.929 . S
C366 C365 1.395 . S
C366 C367 1.335 . S
C367 C366 1.335 . S
C367 C368 1.398 . S
C367 H394 0.930 . S
C368 C363 1.382 . S
C368 C367 1.398 . S
C368 H395 0.929 . S
C369 O382 1.271 . S
C369 O383 1.251 . S
C370 O384 1.252 . S
C370 O385 1.272 . S
C371 Sm361 2.846 1_565 S
C371 C372 1.506 . S
C371 O386 1.261 . S
C371 O387 1.242 . S
C372 C371 1.506 . S
C372 C373 1.358 . S
C372 C377 1.382 . S
C373 C372 1.358 . S
C373 C374 1.385 . S
C373 H396 0.930 . S
C374 C373 1.385 . S
C374 C375 1.395 . S
C374 H397 0.929 . S
C375 C374 1.395 . S
C375 C376 1.335 . S
C376 C375 1.335 . S
C376 C377 1.398 . S
C376 H398 0.930 . S
C377 C372 1.382 . S
C377 C376 1.398 . S
C377 H399 0.929 . S
C378 O388 1.271 . S
C378 O389 1.251 . S
C379 O390 1.252 . S
C379 O391 1.272 . S
O380 Sm360 2.543 . S
O380 C362 1.261 . S
O381 Sm360 2.450 . S
O381 C362 1.242 . S
O382 Sm360 2.681 1_565 S
O382 Sm361 2.386 1_564 S
O382 C369 1.271 . S
O383 Sm360 2.464 1_565 S
O383 C369 1.251 . S
O384 Sm360 2.396 . S
O384 C370 1.252 . S
O385 Sm361 2.408 1_554 S
O385 C370 1.272 . S
O386 Sm361 2.543 1_565 S
O386 C371 1.261 . S
O387 Sm361 2.450 1_565 S
O387 C371 1.242 . S
O388 Sm360 2.386 1_556 S
O388 Sm361 2.681 . S
O388 C378 1.271 . S
O389 Sm361 2.464 . S
O389 C378 1.251 . S
O390 Sm361 2.396 1_565 S
O390 C379 1.252 . S
O391 Sm360 2.408 1_566 S
O391 C379 1.272 . S
H392 C364 0.930 . S
H393 C365 0.929 . S
H394 C367 0.930 . S
H395 C368 0.929 . S
H396 C373 0.930 . S
H397 C374 0.929 . S
H398 C376 0.930 . S
H399 C377 0.929 . S
Sm400 C402 2.846 . S
Sm400 O420 2.543 . S
Sm400 O421 2.450 . S
Sm400 O422 2.681 . S
Sm400 O423 2.464 . S
Sm400 O424 2.396 . S
Sm400 O428 2.386 . S
Sm400 O431 2.408 . S
Sm401 C411 2.846 . S
Sm401 O422 2.386 . S
Sm401 O425 2.408 . S
Sm401 O426 2.543 . S
Sm401 O427 2.450 . S
Sm401 O428 2.681 . S
Sm401 O429 2.464 . S
Sm401 O430 2.396 . S
C402 Sm400 2.846 . S
C402 C403 1.506 . S
C402 O420 1.261 . S
C402 O421 1.242 . S
C403 C402 1.506 . S
C403 C404 1.358 . S
C403 C408 1.382 . S
C404 C403 1.358 . S
C404 C405 1.385 . S
C404 H432 0.930 . S
C405 C404 1.385 . S
C405 C406 1.395 . S
C405 H433 0.929 . S
C406 C405 1.395 . S
C406 C407 1.335 . S
C407 C406 1.335 . S
C407 C408 1.398 . S
C407 H434 0.930 . S
C408 C403 1.382 . S
C408 C407 1.398 . S
C408 H435 0.929 . S
C409 O422 1.271 . S
C409 O423 1.251 . S
C410 O424 1.252 . S
C410 O425 1.272 . S
C411 Sm401 2.846 . S
C411 C412 1.506 . S
C411 O426 1.261 . S
C411 O427 1.242 . S
C412 C411 1.506 . S
C412 C413 1.358 . S
C412 C417 1.382 . S
C413 C412 1.358 . S
C413 C414 1.385 . S
C413 H436 0.930 . S
C414 C413 1.385 . S
C414 C415 1.395 . S
C414 H437 0.929 . S
C415 C414 1.395 . S
C415 C416 1.335 . S
C416 C415 1.335 . S
C416 C417 1.398 . S
C416 H438 0.930 . S
C417 C412 1.382 . S
C417 C416 1.398 . S
C417 H439 0.929 . S
C418 O428 1.271 . S
C418 O429 1.251 . S
C419 O430 1.252 . S
C419 O431 1.272 . S
O420 Sm400 2.543 . S
O420 C402 1.261 . S
O421 Sm400 2.450 . S
O421 C402 1.242 . S
O422 Sm400 2.681 . S
O422 Sm401 2.386 . S
O422 C409 1.271 . S
O423 Sm400 2.464 . S
O423 C409 1.251 . S
O424 Sm400 2.396 . S
O424 C410 1.252 . S
O425 Sm401 2.408 . S
O425 C410 1.272 . S
O426 Sm401 2.543 . S
O426 C411 1.261 . S
O427 Sm401 2.450 . S
O427 C411 1.242 . S
O428 Sm400 2.386 . S
O428 Sm401 2.681 . S
O428 C418 1.271 . S
O429 Sm401 2.464 . S
O429 C418 1.251 . S
O430 Sm401 2.396 . S
O430 C419 1.252 . S
O431 Sm400 2.408 . S
O431 C419 1.272 . S
H432 C404 0.930 . S
H433 C405 0.929 . S
H434 C407 0.930 . S
H435 C408 0.929 . S
H436 C413 0.930 . S
H437 C414 0.929 . S
H438 C416 0.930 . S
H439 C417 0.929 . S
Sm440 C442 2.846 . S
Sm440 O460 2.543 . S
Sm440 O461 2.450 . S
Sm440 O462 2.681 1_455 S
Sm440 O463 2.464 1_455 S
Sm440 O464 2.396 . S
Sm440 O468 2.386 1_554 S
Sm440 O471 2.408 1_454 S
Sm441 C451 2.834 1_455 S
Sm441 O462 2.382 1_456 S
Sm441 O465 2.421 1_556 S
Sm441 O466 2.528 1_455 S
Sm441 O467 2.442 1_455 S
Sm441 O468 2.689 . S
Sm441 O469 2.471 . S
Sm441 O470 2.387 1_455 S
C442 Sm440 2.846 . S
C442 C443 1.506 . S
C442 O460 1.261 . S
C442 O461 1.242 . S
C443 C442 1.506 . S
C443 C444 1.358 . S
C443 C448 1.382 . S
C444 C443 1.358 . S
C444 C445 1.385 . S
C444 H472 0.930 . S
C445 C444 1.385 . S
C445 C446 1.395 . S
C445 H473 0.929 . S
C446 C445 1.395 . S
C446 C447 1.335 . S
C447 C446 1.335 . S
C447 C448 1.398 . S
C447 H474 0.930 . S
C448 C443 1.382 . S
C448 C447 1.398 . S
C448 H475 0.929 . S
C449 O462 1.271 . S
C449 O463 1.251 . S
C450 O464 1.252 . S
C450 O465 1.272 . S
C451 Sm441 2.834 1_655 S
C451 C452 1.506 . S
C451 O466 1.261 . S
C451 O467 1.242 . S
C452 C451 1.506 . S
C452 C453 1.358 . S
C452 C457 1.382 . S
C453 C452 1.358 . S
C453 C454 1.385 . S
C453 H476 0.930 . S
C454 C453 1.385 . S
C454 C455 1.395 . S
C454 H477 0.929 . S
C455 C454 1.395 . S
C455 C456 1.335 . S
C456 C455 1.335 . S
C456 C457 1.398 . S
C456 H478 0.930 . S
C457 C452 1.382 . S
C457 C456 1.398 . S
C457 H479 0.929 . S
C458 O468 1.271 . S
C458 O469 1.251 . S
C459 O470 1.252 . S
C459 O471 1.272 . S
O460 Sm440 2.543 . S
O460 C442 1.261 . S
O461 Sm440 2.450 . S
O461 C442 1.242 . S
O462 Sm440 2.681 1_655 S
O462 Sm441 2.382 1_654 S
O462 C449 1.271 . S
O463 Sm440 2.464 1_655 S
O463 C449 1.251 . S
O464 Sm440 2.396 . S
O464 C450 1.252 . S
O465 Sm441 2.421 1_554 S
O465 C450 1.272 . S
O466 Sm441 2.528 1_655 S
O466 C451 1.261 . S
O467 Sm441 2.442 1_655 S
O467 C451 1.242 . S
O468 Sm440 2.386 1_556 S
O468 Sm441 2.689 . S
O468 C458 1.271 . S
O469 Sm441 2.471 . S
O469 C458 1.251 . S
O470 Sm441 2.387 1_655 S
O470 C459 1.252 . S
O471 Sm440 2.408 1_656 S
O471 C459 1.272 . S
H472 C444 0.930 . S
H473 C445 0.929 . S
H474 C447 0.930 . S
H475 C448 0.929 . S
H476 C453 0.930 . S
H477 C454 0.929 . S
H478 C456 0.930 . S
H479 C457 0.929 . S
H480 C498 0.951 . S
H481 C500 0.951 . S
H482 C502 0.950 . S
H483 C503 0.950 . S
H484 C505 0.950 . S
H485 C508 0.950 . S
H486 C509 0.950 . S
H487 C511 0.950 . S
H488 C512 0.950 . S
H489 C513 0.951 . S
H490 C515 0.951 . S
H491 C517 0.950 . S
H492 C518 0.950 . S
H493 C520 0.950 . S
H494 C523 0.950 . S
H495 C524 0.950 . S
H496 C526 0.950 . S
H497 C527 0.950 . S
C498 H480 0.951 . S
C498 C499 1.366 . S
C498 C500 1.388 . S
C499 C498 1.366 . S
C499 C503 1.385 . S
C500 H481 0.951 . S
C500 C498 1.388 . S
C500 C501 1.366 . S
C501 C500 1.366 . S
C501 C502 1.414 . S
C501 C504 1.499 . S
C502 H482 0.950 . S
C502 C501 1.414 . S
C502 C503 1.374 . S
C503 H483 0.950 . S
C503 C499 1.385 . S
C503 C502 1.374 . S
C504 C501 1.499 . S
C504 C505 1.373 . S
C504 C506 1.389 . S
C505 H484 0.950 . S
C505 C504 1.373 . S
C505 C521 1.377 . S
C506 C504 1.389 . S
C506 C507 1.524 . S
C506 C520 1.377 . S
C507 C506 1.524 . S
C507 C508 1.397 . S
C507 C512 1.363 . S
C508 H485 0.950 . S
C508 C507 1.397 . S
C508 C509 1.334 . S
C509 H486 0.950 . S
C509 C508 1.334 . S
C509 C510 1.287 . S
C510 C509 1.287 . S
C510 C511 1.524 . S
C510 H529 0.913 . S
C511 H487 0.950 . S
C511 C510 1.524 . S
C511 C512 1.415 . S
C512 H488 0.950 . S
C512 C507 1.363 . S
C512 C511 1.415 . S
C513 H489 0.951 . S
C513 C514 1.366 . S
C513 C515 1.388 . S
C514 C513 1.366 . S
C514 C518 1.385 . S
C515 H490 0.951 . S
C515 C513 1.388 . S
C515 C516 1.366 . S
C516 C515 1.366 . S
C516 C517 1.414 . S
C516 C519 1.499 . S
C517 H491 0.950 . S
C517 C516 1.414 . S
C517 C518 1.374 . S
C518 H492 0.950 . S
C518 C514 1.385 . S
C518 C517 1.374 . S
C519 C516 1.499 . S
C519 C520 1.373 . S
C519 C521 1.389 . S
C520 H493 0.950 . S
C520 C506 1.377 . S
C520 C519 1.373 . S
C521 C505 1.377 . S
C521 C519 1.389 . S
C521 C522 1.524 . S
C522 C521 1.524 . S
C522 C523 1.397 . S
C522 C527 1.363 . S
C523 H494 0.950 . S
C523 C522 1.397 . S
C523 C524 1.334 . S
C524 H495 0.950 . S
C524 C523 1.334 . S
C524 C525 1.287 . S
C525 C524 1.287 . S
C525 C526 1.524 . S
C525 H528 0.999 . S
C526 H496 0.950 . S
C526 C525 1.524 . S
C526 C527 1.415 . S
C527 H497 0.950 . S
C527 C522 1.363 . S
C527 C526 1.415 . S
H528 C525 0.999 . S
H529 C510 0.913 . S
H530 C548 0.951 . S
H531 C550 0.951 . S
H532 C552 0.950 . S
H533 C553 0.950 . S
H534 C555 0.950 . S
H535 C558 0.950 . S
H536 C559 0.950 . S
H537 C561 0.950 . S
H538 C562 0.950 . S
H539 C563 0.951 . S
H540 C565 0.951 . S
H541 C567 0.950 . S
H542 C568 0.950 . S
H543 C570 0.950 . S
H544 C573 0.950 . S
H545 C574 0.950 . S
H546 C576 0.950 . S
H547 C577 0.950 . S
C548 H530 0.951 . S
C548 C549 1.366 . S
C548 C550 1.388 . S
C549 C548 1.366 . S
C549 C553 1.385 . S
C550 H531 0.951 . S
C550 C548 1.388 . S
C550 C551 1.366 . S
C551 C550 1.366 . S
C551 C552 1.414 . S
C551 C554 1.499 . S
C552 H532 0.950 . S
C552 C551 1.414 . S
C552 C553 1.374 . S
C553 H533 0.950 . S
C553 C549 1.385 . S
C553 C552 1.374 . S
C554 C551 1.499 . S
C554 C555 1.373 . S
C554 C556 1.389 . S
C555 H534 0.950 . S
C555 C554 1.373 . S
C555 C571 1.377 . S
C556 C554 1.389 . S
C556 C557 1.524 . S
C556 C570 1.377 . S
C557 C556 1.524 . S
C557 C558 1.397 . S
C557 C562 1.363 . S
C558 H535 0.950 . S
C558 C557 1.397 . S
C558 C559 1.334 . S
C559 H536 0.950 . S
C559 C558 1.334 . S
C559 C560 1.287 . S
C560 C559 1.287 . S
C560 C561 1.524 . S
C560 H579 0.913 . S
C561 H537 0.950 . S
C561 C560 1.524 . S
C561 C562 1.415 . S
C562 H538 0.950 . S
C562 C557 1.363 . S
C562 C561 1.415 . S
C563 H539 0.951 . S
C563 C564 1.366 . S
C563 C565 1.388 . S
C564 C563 1.366 . S
C564 C568 1.385 . S
C565 H540 0.951 . S
C565 C563 1.388 . S
C565 C566 1.366 . S
C566 C565 1.366 . S
C566 C567 1.414 . S
C566 C569 1.499 . S
C567 H541 0.950 . S
C567 C566 1.414 . S
C567 C568 1.374 . S
C568 H542 0.950 . S
C568 C564 1.385 . S
C568 C567 1.374 . S
C569 C566 1.499 . S
C569 C570 1.373 . S
C569 C571 1.389 . S
C570 H543 0.950 . S
C570 C556 1.377 . S
C570 C569 1.373 . S
C571 C555 1.377 . S
C571 C569 1.389 . S
C571 C572 1.524 . S
C572 C571 1.524 . S
C572 C573 1.397 . S
C572 C577 1.363 . S
C573 H544 0.950 . S
C573 C572 1.397 . S
C573 C574 1.334 . S
C574 H545 0.950 . S
C574 C573 1.334 . S
C574 C575 1.287 . S
C575 C574 1.287 . S
C575 C576 1.524 . S
C575 H578 0.999 . S
C576 H546 0.950 . S
C576 C575 1.524 . S
C576 C577 1.415 . S
C577 H547 0.950 . S
C577 C572 1.363 . S
C577 C576 1.415 . S
H578 C575 0.999 . S
H579 C560 0.913 . S
H580 C598 0.951 . S
H581 C600 0.951 . S
H582 C602 0.950 . S
H583 C603 0.950 . S
H584 C605 0.950 . S
H585 C608 0.950 . S
H586 C609 0.950 . S
H587 C611 0.950 . S
H588 C612 0.950 . S
H589 C613 0.951 . S
H590 C615 0.951 . S
H591 C617 0.950 . S
H592 C618 0.950 . S
H593 C620 0.950 . S
H594 C623 0.950 . S
H595 C624 0.950 . S
H596 C626 0.950 . S
H597 C627 0.950 . S
C598 H580 0.951 . S
C598 C599 1.366 . S
C598 C600 1.388 . S
C599 C598 1.366 . S
C599 C603 1.385 . S
C600 H581 0.951 . S
C600 C598 1.388 . S
C600 C601 1.366 . S
C601 C600 1.366 . S
C601 C602 1.414 . S
C601 C604 1.499 . S
C602 H582 0.950 . S
C602 C601 1.414 . S
C602 C603 1.374 . S
C603 H583 0.950 . S
C603 C599 1.385 . S
C603 C602 1.374 . S
C604 C601 1.499 . S
C604 C605 1.373 . S
C604 C606 1.389 . S
C605 H584 0.950 . S
C605 C604 1.373 . S
C605 C621 1.377 . S
C606 C604 1.389 . S
C606 C607 1.524 . S
C606 C620 1.377 . S
C607 C606 1.524 . S
C607 C608 1.397 . S
C607 C612 1.363 . S
C608 H585 0.950 . S
C608 C607 1.397 . S
C608 C609 1.334 . S
C609 H586 0.950 . S
C609 C608 1.334 . S
C609 C610 1.287 . S
C610 C609 1.287 . S
C610 C611 1.524 . S
C610 H629 0.913 . S
C611 H587 0.950 . S
C611 C610 1.524 . S
C611 C612 1.415 . S
C612 H588 0.950 . S
C612 C607 1.363 . S
C612 C611 1.415 . S
C613 H589 0.951 . S
C613 C614 1.366 . S
C613 C615 1.388 . S
C614 C613 1.366 . S
C614 C618 1.385 . S
C615 H590 0.951 . S
C615 C613 1.388 . S
C615 C616 1.366 . S
C616 C615 1.366 . S
C616 C617 1.414 . S
C616 C619 1.499 . S
C617 H591 0.950 . S
C617 C616 1.414 . S
C617 C618 1.374 . S
C618 H592 0.950 . S
C618 C614 1.385 . S
C618 C617 1.374 . S
C619 C616 1.499 . S
C619 C620 1.373 . S
C619 C621 1.389 . S
C620 H593 0.950 . S
C620 C606 1.377 . S
C620 C619 1.373 . S
C621 C605 1.377 . S
C621 C619 1.389 . S
C621 C622 1.524 . S
C622 C621 1.524 . S
C622 C623 1.397 . S
C622 C627 1.363 . S
C623 H594 0.950 . S
C623 C622 1.397 . S
C623 C624 1.334 . S
C624 H595 0.950 . S
C624 C623 1.334 . S
C624 C625 1.287 . S
C625 C624 1.287 . S
C625 C626 1.524 . S
C625 H628 0.999 . S
C626 H596 0.950 . S
C626 C625 1.524 . S
C626 C627 1.415 . S
C627 H597 0.950 . S
C627 C622 1.363 . S
C627 C626 1.415 . S
H628 C625 0.999 . S
H629 C610 0.913 . S
H630 C648 0.951 . S
H631 C650 0.951 . S
H632 C652 0.950 . S
H633 C653 0.950 . S
H634 C655 0.950 . S
H635 C658 0.950 . S
H636 C659 0.950 . S
H637 C661 0.950 . S
H638 C662 0.950 . S
H639 C663 0.951 . S
H640 C665 0.951 . S
H641 C667 0.950 . S
H642 C668 0.950 . S
H643 C670 0.950 . S
H644 C673 0.950 . S
H645 C674 0.950 . S
H646 C676 0.950 . S
H647 C677 0.950 . S
C648 H630 0.951 . S
C648 C649 1.366 . S
C648 C650 1.388 . S
C649 C648 1.366 . S
C649 C653 1.385 . S
C650 H631 0.951 . S
C650 C648 1.388 . S
C650 C651 1.366 . S
C651 C650 1.366 . S
C651 C652 1.414 . S
C651 C654 1.499 . S
C652 H632 0.950 . S
C652 C651 1.414 . S
C652 C653 1.374 . S
C653 H633 0.950 . S
C653 C649 1.385 . S
C653 C652 1.374 . S
C654 C651 1.499 . S
C654 C655 1.373 . S
C654 C656 1.389 . S
C655 H634 0.950 . S
C655 C654 1.373 . S
C655 C671 1.377 . S
C656 C654 1.389 . S
C656 C657 1.524 . S
C656 C670 1.377 . S
C657 C656 1.524 . S
C657 C658 1.397 . S
C657 C662 1.363 . S
C658 H635 0.950 . S
C658 C657 1.397 . S
C658 C659 1.334 . S
C659 H636 0.950 . S
C659 C658 1.334 . S
C659 C660 1.287 . S
C660 C659 1.287 . S
C660 C661 1.524 . S
C660 H679 0.913 1_655 S
C661 H637 0.950 . S
C661 C660 1.524 . S
C661 C662 1.415 . S
C662 H638 0.950 . S
C662 C657 1.363 . S
C662 C661 1.415 . S
C663 H639 0.951 . S
C663 C664 1.366 . S
C663 C665 1.388 . S
C664 C663 1.366 . S
C664 C668 1.385 . S
C665 H640 0.951 . S
C665 C663 1.388 . S
C665 C666 1.366 . S
C666 C665 1.366 . S
C666 C667 1.414 . S
C666 C669 1.499 . S
C667 H641 0.950 . S
C667 C666 1.414 . S
C667 C668 1.374 . S
C668 H642 0.950 . S
C668 C664 1.385 . S
C668 C667 1.374 . S
C669 C666 1.499 . S
C669 C670 1.373 . S
C669 C671 1.389 . S
C670 H643 0.950 . S
C670 C656 1.377 . S
C670 C669 1.373 . S
C671 C655 1.377 . S
C671 C669 1.389 . S
C671 C672 1.524 . S
C672 C671 1.524 . S
C672 C673 1.397 . S
C672 C677 1.363 . S
C673 H644 0.950 . S
C673 C672 1.397 . S
C673 C674 1.334 . S
C674 H645 0.950 . S
C674 C673 1.334 . S
C674 C675 1.287 . S
C675 C674 1.287 . S
C675 C676 1.524 . S
C675 H678 0.999 . S
C676 H646 0.950 . S
C676 C675 1.524 . S
C676 C677 1.415 . S
C677 H647 0.950 . S
C677 C672 1.363 . S
C677 C676 1.415 . S
H678 C675 0.999 . S
H679 C660 0.913 1_455 S
H680 C698 0.951 . S
H681 C700 0.951 . S
H682 C702 0.950 . S
H683 C703 0.950 . S
H684 C705 0.950 . S
H685 C708 0.950 . S
H686 C709 0.950 . S
H687 C711 0.950 . S
H688 C712 0.950 . S
H689 C713 0.951 . S
H690 C715 0.951 . S
H691 C717 0.950 . S
H692 C718 0.950 . S
H693 C720 0.950 . S
H694 C723 0.950 . S
H695 C724 0.950 . S
H696 C726 0.950 . S
H697 C727 0.950 . S
C698 H680 0.951 . S
C698 C699 1.366 . S
C698 C700 1.388 . S
C699 C698 1.366 . S
C699 C703 1.385 . S
C700 H681 0.951 . S
C700 C698 1.388 . S
C700 C701 1.366 . S
C701 C700 1.366 . S
C701 C702 1.414 . S
C701 C704 1.499 . S
C702 H682 0.950 . S
C702 C701 1.414 . S
C702 C703 1.374 . S
C703 H683 0.950 . S
C703 C699 1.385 . S
C703 C702 1.374 . S
C704 C701 1.499 . S
C704 C705 1.373 . S
C704 C706 1.389 . S
C705 H684 0.950 . S
C705 C704 1.373 . S
C705 C721 1.377 . S
C706 C704 1.389 . S
C706 C707 1.524 . S
C706 C720 1.377 . S
C707 C706 1.524 . S
C707 C708 1.397 . S
C707 C712 1.363 . S
C708 H685 0.950 . S
C708 C707 1.397 . S
C708 C709 1.334 . S
C709 H686 0.950 . S
C709 C708 1.334 . S
C709 C710 1.287 . S
C710 C709 1.287 . S
C710 C711 1.524 . S
C710 H729 0.913 . S
C711 H687 0.950 . S
C711 C710 1.524 . S
C711 C712 1.415 . S
C712 H688 0.950 . S
C712 C707 1.363 . S
C712 C711 1.415 . S
C713 H689 0.951 . S
C713 C714 1.366 . S
C713 C715 1.388 . S
C714 C713 1.366 . S
C714 C718 1.385 . S
C715 H690 0.951 . S
C715 C713 1.388 . S
C715 C716 1.366 . S
C716 C715 1.366 . S
C716 C717 1.414 . S
C716 C719 1.499 . S
C717 H691 0.950 . S
C717 C716 1.414 . S
C717 C718 1.374 . S
C718 H692 0.950 . S
C718 C714 1.385 . S
C718 C717 1.374 . S
C719 C716 1.499 . S
C719 C720 1.373 . S
C719 C721 1.389 . S
C720 H693 0.950 . S
C720 C706 1.377 . S
C720 C719 1.373 . S
C721 C705 1.377 . S
C721 C719 1.389 . S
C721 C722 1.524 . S
C722 C721 1.524 . S
C722 C723 1.397 . S
C722 C727 1.363 . S
C723 H694 0.950 . S
C723 C722 1.397 . S
C723 C724 1.334 . S
C724 H695 0.950 . S
C724 C723 1.334 . S
C724 C725 1.287 . S
C725 C724 1.287 . S
C725 C726 1.524 . S
C725 H728 0.999 . S
C726 H696 0.950 . S
C726 C725 1.524 . S
C726 C727 1.415 . S
C727 H697 0.950 . S
C727 C722 1.363 . S
C727 C726 1.415 . S
H728 C725 0.999 . S
H729 C710 0.913 . S
H730 C748 0.951 . S
H731 C750 0.951 . S
H732 C752 0.950 . S
H733 C753 0.950 . S
H734 C755 0.950 . S
H735 C758 0.950 . S
H736 C759 0.950 . S
H737 C761 0.950 1_545 S
H738 C762 0.950 . S
H739 C763 0.951 . S
H740 C765 0.951 . S
H741 C767 0.950 . S
H742 C768 0.950 . S
H743 C770 0.950 . S
H744 C773 0.950 . S
H745 C774 0.950 . S
H746 C776 0.950 . S
H747 C777 0.950 . S
C748 H730 0.951 . S
C748 C749 1.366 . S
C748 C750 1.388 . S
C749 C748 1.366 . S
C749 C753 1.385 . S
C750 H731 0.951 . S
C750 C748 1.388 . S
C750 C751 1.366 . S
C751 C750 1.366 . S
C751 C752 1.414 . S
C751 C754 1.499 . S
C752 H732 0.950 . S
C752 C751 1.414 . S
C752 C753 1.374 . S
C753 H733 0.950 . S
C753 C749 1.385 . S
C753 C752 1.374 . S
C754 C751 1.499 . S
C754 C755 1.373 . S
C754 C756 1.389 . S
C755 H734 0.950 . S
C755 C754 1.373 . S
C755 C771 1.377 . S
C756 C754 1.389 . S
C756 C757 1.524 . S
C756 C770 1.377 . S
C757 C756 1.524 . S
C757 C758 1.397 . S
C757 C762 1.363 . S
C758 H735 0.950 . S
C758 C757 1.397 . S
C758 C759 1.334 . S
C759 H736 0.950 . S
C759 C758 1.334 . S
C759 C760 1.287 . S
C760 C759 1.287 . S
C760 C761 1.524 . S
C760 H779 0.913 . S
C761 H737 0.950 1_565 S
C761 C760 1.524 . S
C761 C762 1.415 . S
C762 H738 0.950 . S
C762 C757 1.363 . S
C762 C761 1.415 . S
C763 H739 0.951 . S
C763 C764 1.366 . S
C763 C765 1.388 . S
C764 C763 1.366 . S
C764 C768 1.385 . S
C765 H740 0.951 . S
C765 C763 1.388 . S
C765 C766 1.366 . S
C766 C765 1.366 . S
C766 C767 1.414 . S
C766 C769 1.499 . S
C767 H741 0.950 . S
C767 C766 1.414 . S
C767 C768 1.374 . S
C768 H742 0.950 . S
C768 C764 1.385 . S
C768 C767 1.374 . S
C769 C766 1.499 . S
C769 C770 1.373 . S
C769 C771 1.389 . S
C770 H743 0.950 . S
C770 C756 1.377 . S
C770 C769 1.373 . S
C771 C755 1.377 . S
C771 C769 1.389 . S
C771 C772 1.524 . S
C772 C771 1.524 . S
C772 C773 1.397 . S
C772 C777 1.363 . S
C773 H744 0.950 . S
C773 C772 1.397 . S
C773 C774 1.334 . S
C774 H745 0.950 . S
C774 C773 1.334 . S
C774 C775 1.287 . S
C775 C774 1.287 . S
C775 C776 1.524 . S
C775 H778 0.999 . S
C776 H746 0.950 . S
C776 C775 1.524 . S
C776 C777 1.415 . S
C777 H747 0.950 . S
C777 C772 1.363 . S
C777 C776 1.415 . S
H778 C775 0.999 . S
H779 C760 0.913 . S
H780 C798 0.951 . S
H781 C800 0.951 . S
H782 C802 0.950 . S
H783 C803 0.950 . S
H784 C805 0.950 . S
H785 C808 0.950 . S
H786 C809 0.950 . S
H787 C811 0.950 . S
H788 C812 0.950 . S
H789 C813 0.951 . S
H790 C815 0.951 . S
H791 C817 0.950 . S
H792 C818 0.950 . S
H793 C820 0.950 . S
H794 C823 0.950 . S
H795 C824 0.950 . S
H796 C826 0.950 . S
H797 C827 0.950 . S
C798 H780 0.951 . S
C798 C799 1.366 . S
C798 C800 1.388 . S
C799 C798 1.366 . S
C799 C803 1.385 . S
C800 H781 0.951 . S
C800 C798 1.388 . S
C800 C801 1.366 . S
C801 C800 1.366 . S
C801 C802 1.414 . S
C801 C804 1.499 . S
C802 H782 0.950 . S
C802 C801 1.414 . S
C802 C803 1.374 . S
C803 H783 0.950 . S
C803 C799 1.385 . S
C803 C802 1.374 . S
C804 C801 1.499 . S
C804 C805 1.373 . S
C804 C806 1.389 . S
C805 H784 0.950 . S
C805 C804 1.373 . S
C805 C821 1.377 . S
C806 C804 1.389 . S
C806 C807 1.524 . S
C806 C820 1.377 . S
C807 C806 1.524 . S
C807 C808 1.397 . S
C807 C812 1.363 . S
C808 H785 0.950 . S
C808 C807 1.397 . S
C808 C809 1.334 . S
C809 H786 0.950 . S
C809 C808 1.334 . S
C809 C810 1.287 . S
C810 C809 1.287 . S
C810 C811 1.524 . S
C810 H829 0.913 . S
C811 H787 0.950 . S
C811 C810 1.524 . S
C811 C812 1.415 . S
C812 H788 0.950 . S
C812 C807 1.363 . S
C812 C811 1.415 . S
C813 H789 0.951 . S
C813 C814 1.366 . S
C813 C815 1.388 . S
C814 C813 1.366 . S
C814 C818 1.385 . S
C815 H790 0.951 . S
C815 C813 1.388 . S
C815 C816 1.366 . S
C816 C815 1.366 . S
C816 C817 1.414 . S
C816 C819 1.499 . S
C817 H791 0.950 . S
C817 C816 1.414 . S
C817 C818 1.374 . S
C818 H792 0.950 . S
C818 C814 1.385 . S
C818 C817 1.374 . S
C819 C816 1.499 . S
C819 C820 1.373 . S
C819 C821 1.389 . S
C820 H793 0.950 . S
C820 C806 1.377 . S
C820 C819 1.373 . S
C821 C805 1.377 . S
C821 C819 1.389 . S
C821 C822 1.524 . S
C822 C821 1.524 . S
C822 C823 1.397 . S
C822 C827 1.363 . S
C823 H794 0.950 . S
C823 C822 1.397 . S
C823 C824 1.334 . S
C824 H795 0.950 . S
C824 C823 1.334 . S
C824 C825 1.287 . S
C825 C824 1.287 . S
C825 C826 1.524 . S
C825 H828 0.999 . S
C826 H796 0.950 . S
C826 C825 1.524 . S
C826 C827 1.415 . S
C827 H797 0.950 . S
C827 C822 1.363 . S
C827 C826 1.415 . S
H828 C825 0.999 . S
H829 C810 0.913 . S
H830 C848 0.951 . S
H831 C850 0.951 . S
H832 C852 0.950 . S
H833 C853 0.950 . S
H834 C855 0.950 . S
H835 C858 0.950 . S
H836 C859 0.950 . S
H837 C861 0.950 . S
H838 C862 0.950 . S
H839 C863 0.951 . S
H840 C865 0.951 . S
H841 C867 0.950 . S
H842 C868 0.950 . S
H843 C870 0.950 . S
H844 C873 0.950 . S
H845 C874 0.950 . S
H846 C876 0.950 . S
H847 C877 0.950 . S
C848 H830 0.951 . S
C848 C849 1.366 . S
C848 C850 1.388 . S
C849 C848 1.366 . S
C849 C853 1.385 . S
C850 H831 0.951 . S
C850 C848 1.388 . S
C850 C851 1.366 . S
C851 C850 1.366 . S
C851 C852 1.414 . S
C851 C854 1.499 . S
C852 H832 0.950 . S
C852 C851 1.414 . S
C852 C853 1.374 . S
C853 H833 0.950 . S
C853 C849 1.385 . S
C853 C852 1.374 . S
C854 C851 1.499 . S
C854 C855 1.373 . S
C854 C856 1.389 . S
C855 H834 0.950 . S
C855 C854 1.373 . S
C855 C871 1.377 . S
C856 C854 1.389 . S
C856 C857 1.524 . S
C856 C870 1.377 . S
C857 C856 1.524 . S
C857 C858 1.397 . S
C857 C862 1.363 . S
C858 H835 0.950 . S
C858 C857 1.397 . S
C858 C859 1.334 . S
C859 H836 0.950 . S
C859 C858 1.334 . S
C859 C860 1.287 . S
C860 C859 1.287 . S
C860 C861 1.524 . S
C860 H879 0.913 . S
C861 H837 0.950 . S
C861 C860 1.524 . S
C861 C862 1.415 . S
C862 H838 0.950 . S
C862 C857 1.363 . S
C862 C861 1.415 . S
C863 H839 0.951 . S
C863 C864 1.366 . S
C863 C865 1.388 . S
C864 C863 1.366 . S
C864 C868 1.385 . S
C865 H840 0.951 . S
C865 C863 1.388 . S
C865 C866 1.366 . S
C866 C865 1.366 . S
C866 C867 1.414 . S
C866 C869 1.499 . S
C867 H841 0.950 . S
C867 C866 1.414 . S
C867 C868 1.374 . S
C868 H842 0.950 . S
C868 C864 1.385 . S
C868 C867 1.374 . S
C869 C866 1.499 . S
C869 C870 1.373 . S
C869 C871 1.389 . S
C870 H843 0.950 . S
C870 C856 1.377 . S
C870 C869 1.373 . S
C871 C855 1.377 . S
C871 C869 1.389 . S
C871 C872 1.524 . S
C872 C871 1.524 . S
C872 C873 1.397 . S
C872 C877 1.363 . S
C873 H844 0.950 . S
C873 C872 1.397 . S
C873 C874 1.334 . S
C874 H845 0.950 . S
C874 C873 1.334 . S
C874 C875 1.287 . S
C875 C874 1.287 . S
C875 C876 1.524 . S
C875 H878 0.999 . S
C876 H846 0.950 . S
C876 C875 1.524 . S
C876 C877 1.415 . S
C877 H847 0.950 . S
C877 C872 1.363 . S
C877 C876 1.415 . S
H878 C875 0.999 . S
H879 C860 0.913 . S
H880 C898 0.951 . S
H881 C900 0.951 . S
H882 C902 0.950 . S
H883 C903 0.950 . S
H884 C905 0.950 . S
H885 C908 0.950 . S
H886 C909 0.950 . S
H887 C911 0.950 . S
H888 C912 0.950 . S
H889 C913 0.951 . S
H890 C915 0.951 . S
H891 C917 0.950 . S
H892 C918 0.950 . S
H893 C920 0.950 . S
H894 C923 0.950 . S
H895 C924 0.950 . S
H896 C926 0.950 . S
H897 C927 0.950 . S
C898 H880 0.951 . S
C898 C899 1.366 . S
C898 C900 1.388 . S
C899 C898 1.366 . S
C899 C903 1.385 . S
C900 H881 0.951 . S
C900 C898 1.388 . S
C900 C901 1.366 . S
C901 C900 1.366 . S
C901 C902 1.414 . S
C901 C904 1.499 . S
C902 H882 0.950 . S
C902 C901 1.414 . S
C902 C903 1.374 . S
C903 H883 0.950 . S
C903 C899 1.385 . S
C903 C902 1.374 . S
C904 C901 1.499 . S
C904 C905 1.373 . S
C904 C906 1.389 . S
C905 H884 0.950 . S
C905 C904 1.373 . S
C905 C921 1.377 . S
C906 C904 1.389 . S
C906 C907 1.524 . S
C906 C920 1.377 . S
C907 C906 1.524 . S
C907 C908 1.397 . S
C907 C912 1.363 . S
C908 H885 0.950 . S
C908 C907 1.397 . S
C908 C909 1.334 . S
C909 H886 0.950 . S
C909 C908 1.334 . S
C909 C910 1.287 . S
C910 C909 1.287 . S
C910 C911 1.524 . S
C910 H929 0.913 . S
C911 H887 0.950 . S
C911 C910 1.524 . S
C911 C912 1.415 . S
C912 H888 0.950 . S
C912 C907 1.363 . S
C912 C911 1.415 . S
C913 H889 0.951 . S
C913 C914 1.366 . S
C913 C915 1.388 . S
C914 C913 1.366 . S
C914 C918 1.385 . S
C915 H890 0.951 . S
C915 C913 1.388 . S
C915 C916 1.366 . S
C916 C915 1.366 . S
C916 C917 1.414 . S
C916 C919 1.499 . S
C917 H891 0.950 . S
C917 C916 1.414 . S
C917 C918 1.374 . S
C918 H892 0.950 . S
C918 C914 1.385 . S
C918 C917 1.374 . S
C919 C916 1.499 . S
C919 C920 1.373 . S
C919 C921 1.389 . S
C920 H893 0.950 . S
C920 C906 1.377 . S
C920 C919 1.373 . S
C921 C905 1.377 . S
C921 C919 1.389 . S
C921 C922 1.524 . S
C922 C921 1.524 . S
C922 C923 1.397 . S
C922 C927 1.363 . S
C923 H894 0.950 . S
C923 C922 1.397 . S
C923 C924 1.334 . S
C924 H895 0.950 . S
C924 C923 1.334 . S
C924 C925 1.287 . S
C925 C924 1.287 . S
C925 C926 1.524 . S
C925 H928 0.999 . S
C926 H896 0.950 . S
C926 C925 1.524 . S
C926 C927 1.415 . S
C927 H897 0.950 . S
C927 C922 1.363 . S
C927 C926 1.415 . S
H928 C925 0.999 . S
H929 C910 0.913 . S
H930 C948 0.951 . S
H931 C950 0.951 . S
H932 C952 0.950 . S
H933 C953 0.950 . S
H934 C955 0.950 . S
H935 C958 0.950 . S
H936 C959 0.950 . S
H937 C961 0.950 . S
H938 C962 0.950 . S
H939 C963 0.951 . S
H940 C965 0.951 . S
H941 C967 0.950 . S
H942 C968 0.950 . S
H943 C970 0.950 . S
H944 C973 0.950 . S
H945 C974 0.950 . S
H946 C976 0.950 . S
H947 C977 0.950 . S
C948 H930 0.951 . S
C948 C949 1.366 . S
C948 C950 1.388 . S
C949 C948 1.366 . S
C949 C953 1.385 . S
C950 H931 0.951 . S
C950 C948 1.388 . S
C950 C951 1.366 . S
C951 C950 1.366 . S
C951 C952 1.414 . S
C951 C954 1.499 . S
C952 H932 0.950 . S
C952 C951 1.414 . S
C952 C953 1.374 . S
C953 H933 0.950 . S
C953 C949 1.385 . S
C953 C952 1.374 . S
C954 C951 1.499 . S
C954 C955 1.373 . S
C954 C956 1.389 . S
C955 H934 0.950 . S
C955 C954 1.373 . S
C955 C971 1.377 . S
C956 C954 1.389 . S
C956 C957 1.524 . S
C956 C970 1.377 . S
C957 C956 1.524 . S
C957 C958 1.397 . S
C957 C962 1.363 . S
C958 H935 0.950 . S
C958 C957 1.397 . S
C958 C959 1.334 . S
C959 H936 0.950 . S
C959 C958 1.334 . S
C959 C960 1.287 . S
C960 C959 1.287 . S
C960 C961 1.524 . S
C960 H979 0.913 . S
C961 H937 0.950 . S
C961 C960 1.524 . S
C961 C962 1.415 . S
C962 H938 0.950 . S
C962 C957 1.363 . S
C962 C961 1.415 . S
C963 H939 0.951 . S
C963 C964 1.366 . S
C963 C965 1.388 . S
C964 C963 1.366 . S
C964 C968 1.385 . S
C965 H940 0.951 . S
C965 C963 1.388 . S
C965 C966 1.366 . S
C966 C965 1.366 . S
C966 C967 1.414 . S
C966 C969 1.499 . S
C967 H941 0.950 . S
C967 C966 1.414 . S
C967 C968 1.374 . S
C968 H942 0.950 . S
C968 C964 1.385 . S
C968 C967 1.374 . S
C969 C966 1.499 . S
C969 C970 1.373 . S
C969 C971 1.389 . S
C970 H943 0.950 . S
C970 C956 1.377 . S
C970 C969 1.373 . S
C971 C955 1.377 . S
C971 C969 1.389 . S
C971 C972 1.524 . S
C972 C971 1.524 . S
C972 C973 1.397 . S
C972 C977 1.363 . S
C973 H944 0.950 . S
C973 C972 1.397 . S
C973 C974 1.334 . S
C974 H945 0.950 . S
C974 C973 1.334 . S
C974 C975 1.287 1_556 S
C975 C974 1.287 1_554 S
C975 C976 1.524 . S
C975 H978 0.999 . S
C976 H946 0.950 . S
C976 C975 1.524 . S
C976 C977 1.415 1_554 S
C977 H947 0.950 . S
C977 C972 1.363 . S
C977 C976 1.415 1_556 S
H978 C975 0.999 . S
H979 C960 0.913 . S
H980 C998 0.951 . S
H981 C1000 0.951 . S
H982 C1002 0.950 . S
H983 C1003 0.950 . S
H984 C1005 0.950 . S
H985 C1008 0.950 . S
H986 C1009 0.950 . S
H987 C1011 0.950 . S
H988 C1012 0.950 . S
H989 C1013 0.951 . S
H990 C1015 0.951 . S
H991 C1017 0.950 . S
H992 C1018 0.950 . S
H993 C1020 0.950 . S
H994 C1023 0.950 . S
H995 C1024 0.950 . S
H996 C1026 0.950 . S
H997 C1027 0.950 . S
C998 H980 0.951 . S
C998 C999 1.366 . S
C998 C1000 1.388 . S
C999 C998 1.366 . S
C999 C1003 1.385 . S
C1000 H981 0.951 . S
C1000 C998 1.388 . S
C1000 C1001 1.366 . S
C1001 C1000 1.366 . S
C1001 C1002 1.414 . S
C1001 C1004 1.499 . S
C1002 H982 0.950 . S
C1002 C1001 1.414 . S
C1002 C1003 1.374 . S
C1003 H983 0.950 . S
C1003 C999 1.385 . S
C1003 C1002 1.374 . S
C1004 C1001 1.499 . S
C1004 C1005 1.373 . S
C1004 C1006 1.389 . S
C1005 H984 0.950 . S
C1005 C1004 1.373 . S
C1005 C1021 1.377 . S
C1006 C1004 1.389 . S
C1006 C1007 1.524 . S
C1006 C1020 1.377 . S
C1007 C1006 1.524 . S
C1007 C1008 1.397 . S
C1007 C1012 1.363 . S
C1008 H985 0.950 . S
C1008 C1007 1.397 . S
C1008 C1009 1.334 . S
C1009 H986 0.950 . S
C1009 C1008 1.334 . S
C1009 C1010 1.287 . S
C1010 C1009 1.287 . S
C1010 C1011 1.524 . S
C1010 H1029 0.913 . S
C1011 H987 0.950 . S
C1011 C1010 1.524 . S
C1011 C1012 1.415 . S
C1012 H988 0.950 . S
C1012 C1007 1.363 . S
C1012 C1011 1.415 . S
C1013 H989 0.951 . S
C1013 C1014 1.366 . S
C1013 C1015 1.388 . S
C1014 C1013 1.366 . S
C1014 C1018 1.385 . S
C1015 H990 0.951 . S
C1015 C1013 1.388 . S
C1015 C1016 1.366 . S
C1016 C1015 1.366 . S
C1016 C1017 1.414 . S
C1016 C1019 1.499 . S
C1017 H991 0.950 . S
C1017 C1016 1.414 . S
C1017 C1018 1.374 . S
C1018 H992 0.950 . S
C1018 C1014 1.385 . S
C1018 C1017 1.374 . S
C1019 C1016 1.499 . S
C1019 C1020 1.373 . S
C1019 C1021 1.389 . S
C1020 H993 0.950 . S
C1020 C1006 1.377 . S
C1020 C1019 1.373 . S
C1021 C1005 1.377 . S
C1021 C1019 1.389 . S
C1021 C1022 1.524 . S
C1022 C1021 1.524 . S
C1022 C1023 1.397 . S
C1022 C1027 1.363 . S
C1023 H994 0.950 . S
C1023 C1022 1.397 . S
C1023 C1024 1.334 . S
C1024 H995 0.950 . S
C1024 C1023 1.334 . S
C1024 C1025 1.287 1_655 S
C1025 C1024 1.287 1_455 S
C1025 C1026 1.524 . S
C1025 H1028 0.999 . S
C1026 H996 0.950 . S
C1026 C1025 1.524 . S
C1026 C1027 1.415 1_455 S
C1027 H997 0.950 . S
C1027 C1022 1.363 . S
C1027 C1026 1.415 1_655 S
H1028 C1025 0.999 . S
H1029 C1010 0.913 . S
H1030 C1048 0.951 . S
H1031 C1050 0.951 . S
H1032 C1052 0.950 . S
H1033 C1053 0.950 . S
H1034 C1055 0.950 . S
H1035 C1058 0.950 . S
H1036 C1059 0.950 . S
H1037 C1061 0.950 . S
H1038 C1062 0.950 . S
H1039 C1063 0.951 . S
H1040 C1065 0.951 . S
H1041 C1067 0.950 . S
H1042 C1068 0.950 . S
H1043 C1070 0.950 . S
H1044 C1073 0.950 . S
H1045 C1074 0.950 . S
H1046 C1076 0.950 . S
H1047 C1077 0.950 . S
C1048 H1030 0.951 . S
C1048 C1049 1.366 . S
C1048 C1050 1.388 . S
C1049 C1048 1.366 . S
C1049 C1053 1.385 . S
C1050 H1031 0.951 . S
C1050 C1048 1.388 . S
C1050 C1051 1.366 . S
C1051 C1050 1.366 . S
C1051 C1052 1.414 . S
C1051 C1054 1.499 . S
C1052 H1032 0.950 . S
C1052 C1051 1.414 . S
C1052 C1053 1.374 . S
C1053 H1033 0.950 . S
C1053 C1049 1.385 . S
C1053 C1052 1.374 . S
C1054 C1051 1.499 . S
C1054 C1055 1.373 . S
C1054 C1056 1.389 . S
C1055 H1034 0.950 . S
C1055 C1054 1.373 . S
C1055 C1071 1.377 . S
C1056 C1054 1.389 . S
C1056 C1057 1.524 . S
C1056 C1070 1.377 . S
C1057 C1056 1.524 . S
C1057 C1058 1.397 . S
C1057 C1062 1.363 . S
C1058 H1035 0.950 . S
C1058 C1057 1.397 . S
C1058 C1059 1.334 . S
C1059 H1036 0.950 . S
C1059 C1058 1.334 . S
C1059 C1060 1.287 . S
C1060 C1059 1.287 . S
C1060 C1061 1.524 . S
C1060 H1079 0.913 . S
C1061 H1037 0.950 . S
C1061 C1060 1.524 . S
C1061 C1062 1.415 . S
C1062 H1038 0.950 . S
C1062 C1057 1.363 . S
C1062 C1061 1.415 . S
C1063 H1039 0.951 . S
C1063 C1064 1.366 . S
C1063 C1065 1.388 . S
C1064 C1063 1.366 . S
C1064 C1068 1.385 . S
C1065 H1040 0.951 . S
C1065 C1063 1.388 . S
C1065 C1066 1.366 . S
C1066 C1065 1.366 . S
C1066 C1067 1.414 . S
C1066 C1069 1.499 . S
C1067 H1041 0.950 . S
C1067 C1066 1.414 . S
C1067 C1068 1.374 . S
C1068 H1042 0.950 . S
C1068 C1064 1.385 . S
C1068 C1067 1.374 . S
C1069 C1066 1.499 . S
C1069 C1070 1.373 . S
C1069 C1071 1.389 . S
C1070 H1043 0.950 . S
C1070 C1056 1.377 . S
C1070 C1069 1.373 . S
C1071 C1055 1.377 . S
C1071 C1069 1.389 . S
C1071 C1072 1.524 . S
C1072 C1071 1.524 . S
C1072 C1073 1.397 . S
C1072 C1077 1.363 . S
C1073 H1044 0.950 . S
C1073 C1072 1.397 . S
C1073 C1074 1.334 . S
C1074 H1045 0.950 . S
C1074 C1073 1.334 . S
C1074 C1075 1.287 . S
C1075 C1074 1.287 . S
C1075 C1076 1.524 . S
C1075 H1078 0.999 . S
C1076 H1046 0.950 . S
C1076 C1075 1.524 . S
C1076 C1077 1.415 . S
C1077 H1047 0.950 . S
C1077 C1072 1.363 . S
C1077 C1076 1.415 . S
H1078 C1075 0.999 . S
H1079 C1060 0.913 . S
H1080 C1098 0.951 . S
H1081 C1100 0.951 . S
H1082 C1102 0.950 . S
H1083 C1103 0.950 . S
H1084 C1105 0.950 . S
H1085 C1108 0.950 . S
H1086 C1109 0.950 . S
H1087 C1111 0.950 . S
H1088 C1112 0.950 . S
H1089 C1113 0.951 . S
H1090 C1115 0.951 . S
H1091 C1117 0.950 . S
H1092 C1118 0.950 . S
H1093 C1120 0.950 . S
H1094 C1123 0.950 . S
H1095 C1124 0.950 . S
H1096 C1126 0.950 . S
H1097 C1127 0.950 . S
C1098 H1080 0.951 . S
C1098 C1099 1.366 . S
C1098 C1100 1.388 . S
C1099 C1098 1.366 . S
C1099 C1103 1.385 . S
C1100 H1081 0.951 . S
C1100 C1098 1.388 . S
C1100 C1101 1.366 . S
C1101 C1100 1.366 . S
C1101 C1102 1.414 . S
C1101 C1104 1.499 . S
C1102 H1082 0.950 . S
C1102 C1101 1.414 . S
C1102 C1103 1.374 . S
C1103 H1083 0.950 . S
C1103 C1099 1.385 . S
C1103 C1102 1.374 . S
C1104 C1101 1.499 . S
C1104 C1105 1.373 . S
C1104 C1106 1.389 . S
C1105 H1084 0.950 . S
C1105 C1104 1.373 . S
C1105 C1121 1.377 . S
C1106 C1104 1.389 . S
C1106 C1107 1.524 . S
C1106 C1120 1.377 . S
C1107 C1106 1.524 . S
C1107 C1108 1.397 . S
C1107 C1112 1.363 . S
C1108 H1085 0.950 . S
C1108 C1107 1.397 . S
C1108 C1109 1.334 . S
C1109 H1086 0.950 . S
C1109 C1108 1.334 . S
C1109 C1110 1.287 . S
C1110 C1109 1.287 . S
C1110 C1111 1.524 . S
C1110 H1129 0.913 . S
C1111 H1087 0.950 . S
C1111 C1110 1.524 . S
C1111 C1112 1.415 . S
C1112 H1088 0.950 . S
C1112 C1107 1.363 . S
C1112 C1111 1.415 . S
C1113 H1089 0.951 . S
C1113 C1114 1.366 . S
C1113 C1115 1.388 . S
C1114 C1113 1.366 . S
C1114 C1118 1.385 . S
C1115 H1090 0.951 . S
C1115 C1113 1.388 . S
C1115 C1116 1.366 . S
C1116 C1115 1.366 . S
C1116 C1117 1.414 . S
C1116 C1119 1.499 . S
C1117 H1091 0.950 . S
C1117 C1116 1.414 . S
C1117 C1118 1.374 . S
C1118 H1092 0.950 . S
C1118 C1114 1.385 . S
C1118 C1117 1.374 . S
C1119 C1116 1.499 . S
C1119 C1120 1.373 . S
C1119 C1121 1.389 . S
C1120 H1093 0.950 . S
C1120 C1106 1.377 . S
C1120 C1119 1.373 . S
C1121 C1105 1.377 . S
C1121 C1119 1.389 . S
C1121 C1122 1.524 . S
C1122 C1121 1.524 . S
C1122 C1123 1.397 . S
C1122 C1127 1.363 . S
C1123 H1094 0.950 . S
C1123 C1122 1.397 . S
C1123 C1124 1.334 . S
C1124 H1095 0.950 . S
C1124 C1123 1.334 . S
C1124 C1125 1.287 . S
C1125 C1124 1.287 . S
C1125 C1126 1.524 . S
C1125 H1128 0.999 . S
C1126 H1096 0.950 . S
C1126 C1125 1.524 . S
C1126 C1127 1.415 . S
C1127 H1097 0.950 . S
C1127 C1122 1.363 . S
C1127 C1126 1.415 . S
H1128 C1125 0.999 . S
H1129 C1110 0.913 . S
H1130 C1148 0.951 . S
H1131 C1150 0.951 . S
H1132 C1152 0.950 . S
H1133 C1153 0.950 . S
H1134 C1155 0.950 . S
H1135 C1158 0.950 . S
H1136 C1159 0.950 . S
H1137 C1161 0.950 . S
H1138 C1162 0.950 . S
H1139 C1163 0.951 . S
H1140 C1165 0.951 . S
H1141 C1167 0.950 . S
H1142 C1168 0.950 . S
H1143 C1170 0.950 . S
H1144 C1173 0.950 . S
H1145 C1174 0.950 . S
H1146 C1176 0.950 . S
H1147 C1177 0.950 . S
C1148 H1130 0.951 . S
C1148 C1149 1.366 . S
C1148 C1150 1.388 . S
C1149 C1148 1.366 . S
C1149 C1153 1.385 . S
C1150 H1131 0.951 . S
C1150 C1148 1.388 . S
C1150 C1151 1.366 . S
C1151 C1150 1.366 . S
C1151 C1152 1.414 . S
C1151 C1154 1.499 . S
C1152 H1132 0.950 . S
C1152 C1151 1.414 . S
C1152 C1153 1.374 . S
C1153 H1133 0.950 . S
C1153 C1149 1.385 . S
C1153 C1152 1.374 . S
C1154 C1151 1.499 . S
C1154 C1155 1.373 . S
C1154 C1156 1.389 . S
C1155 H1134 0.950 . S
C1155 C1154 1.373 . S
C1155 C1171 1.377 . S
C1156 C1154 1.389 . S
C1156 C1157 1.524 . S
C1156 C1170 1.377 . S
C1157 C1156 1.524 . S
C1157 C1158 1.397 . S
C1157 C1162 1.363 . S
C1158 H1135 0.950 . S
C1158 C1157 1.397 . S
C1158 C1159 1.334 . S
C1159 H1136 0.950 . S
C1159 C1158 1.334 . S
C1159 C1160 1.287 . S
C1160 C1159 1.287 . S
C1160 C1161 1.524 . S
C1160 H1179 0.913 . S
C1161 H1137 0.950 . S
C1161 C1160 1.524 . S
C1161 C1162 1.415 . S
C1162 H1138 0.950 . S
C1162 C1157 1.363 . S
C1162 C1161 1.415 . S
C1163 H1139 0.951 . S
C1163 C1164 1.366 . S
C1163 C1165 1.388 . S
C1164 C1163 1.366 . S
C1164 C1168 1.385 . S
C1165 H1140 0.951 . S
C1165 C1163 1.388 . S
C1165 C1166 1.366 . S
C1166 C1165 1.366 . S
C1166 C1167 1.414 . S
C1166 C1169 1.499 . S
C1167 H1141 0.950 . S
C1167 C1166 1.414 . S
C1167 C1168 1.374 . S
C1168 H1142 0.950 . S
C1168 C1164 1.385 . S
C1168 C1167 1.374 . S
C1169 C1166 1.499 . S
C1169 C1170 1.373 . S
C1169 C1171 1.389 . S
C1170 H1143 0.950 . S
C1170 C1156 1.377 . S
C1170 C1169 1.373 . S
C1171 C1155 1.377 . S
C1171 C1169 1.389 . S
C1171 C1172 1.524 . S
C1172 C1171 1.524 . S
C1172 C1173 1.397 . S
C1172 C1177 1.363 . S
C1173 H1144 0.950 . S
C1173 C1172 1.397 . S
C1173 C1174 1.334 . S
C1174 H1145 0.950 . S
C1174 C1173 1.334 . S
C1174 C1175 1.287 . S
C1175 C1174 1.287 . S
C1175 C1176 1.524 . S
C1175 H1178 0.999 . S
C1176 H1146 0.950 . S
C1176 C1175 1.524 . S
C1176 C1177 1.415 . S
C1177 H1147 0.950 . S
C1177 C1172 1.363 . S
C1177 C1176 1.415 . S
H1178 C1175 0.999 . S
H1179 C1160 0.913 . S
H1180 C1198 0.951 . S
H1181 C1200 0.951 . S
H1182 C1202 0.950 . S
H1183 C1203 0.950 . S
H1184 C1205 0.950 . S
H1185 C1208 0.950 . S
H1186 C1209 0.950 . S
H1187 C1211 0.950 . S
H1188 C1212 0.950 . S
H1189 C1213 0.951 . S
H1190 C1215 0.951 . S
H1191 C1217 0.950 . S
H1192 C1218 0.950 . S
H1193 C1220 0.950 . S
H1194 C1223 0.950 . S
H1195 C1224 0.950 . S
H1196 C1226 0.950 . S
H1197 C1227 0.950 . S
C1198 H1180 0.951 . S
C1198 C1199 1.366 . S
C1198 C1200 1.388 . S
C1199 C1198 1.366 . S
C1199 C1203 1.385 . S
C1200 H1181 0.951 . S
C1200 C1198 1.388 . S
C1200 C1201 1.366 . S
C1201 C1200 1.366 . S
C1201 C1202 1.414 . S
C1201 C1204 1.499 . S
C1202 H1182 0.950 . S
C1202 C1201 1.414 . S
C1202 C1203 1.374 . S
C1203 H1183 0.950 . S
C1203 C1199 1.385 . S
C1203 C1202 1.374 . S
C1204 C1201 1.499 . S
C1204 C1205 1.373 . S
C1204 C1206 1.389 . S
C1205 H1184 0.950 . S
C1205 C1204 1.373 . S
C1205 C1221 1.377 . S
C1206 C1204 1.389 . S
C1206 C1207 1.524 . S
C1206 C1220 1.377 . S
C1207 C1206 1.524 . S
C1207 C1208 1.397 . S
C1207 C1212 1.363 . S
C1208 H1185 0.950 . S
C1208 C1207 1.397 . S
C1208 C1209 1.334 . S
C1209 H1186 0.950 . S
C1209 C1208 1.334 . S
C1209 C1210 1.287 . S
C1210 C1209 1.287 . S
C1210 C1211 1.524 . S
C1210 H1229 0.913 . S
C1211 H1187 0.950 . S
C1211 C1210 1.524 . S
C1211 C1212 1.415 . S
C1212 H1188 0.950 . S
C1212 C1207 1.363 . S
C1212 C1211 1.415 . S
C1213 H1189 0.951 . S
C1213 C1214 1.366 . S
C1213 C1215 1.388 . S
C1214 C1213 1.366 . S
C1214 C1218 1.385 . S
C1215 H1190 0.951 . S
C1215 C1213 1.388 . S
C1215 C1216 1.366 . S
C1216 C1215 1.366 . S
C1216 C1217 1.414 . S
C1216 C1219 1.499 . S
C1217 H1191 0.950 . S
C1217 C1216 1.414 . S
C1217 C1218 1.374 . S
C1218 H1192 0.950 . S
C1218 C1214 1.385 . S
C1218 C1217 1.374 . S
C1219 C1216 1.499 . S
C1219 C1220 1.373 . S
C1219 C1221 1.389 . S
C1220 H1193 0.950 . S
C1220 C1206 1.377 . S
C1220 C1219 1.373 . S
C1221 C1205 1.377 . S
C1221 C1219 1.389 . S
C1221 C1222 1.524 . S
C1222 C1221 1.524 . S
C1222 C1223 1.397 . S
C1222 C1227 1.363 . S
C1223 H1194 0.950 . S
C1223 C1222 1.397 . S
C1223 C1224 1.334 . S
C1224 H1195 0.950 . S
C1224 C1223 1.334 . S
C1224 C1225 1.287 . S
C1225 C1224 1.287 . S
C1225 C1226 1.524 . S
C1225 H1228 0.999 . S
C1226 H1196 0.950 . S
C1226 C1225 1.524 . S
C1226 C1227 1.415 . S
C1227 H1197 0.950 . S
C1227 C1222 1.363 . S
C1227 C1226 1.415 . S
H1228 C1225 0.999 . S
H1229 C1210 0.913 . S
H1230 C1248 0.951 . S
H1231 C1250 0.951 . S
H1232 C1252 0.950 . S
H1233 C1253 0.950 . S
H1234 C1255 0.950 . S
H1235 C1258 0.950 . S
H1236 C1259 0.950 . S
H1237 C1261 0.950 . S
H1238 C1262 0.950 . S
H1239 C1263 0.951 . S
H1240 C1265 0.951 . S
H1241 C1267 0.950 . S
H1242 C1268 0.950 . S
H1243 C1270 0.950 . S
H1244 C1273 0.950 . S
H1245 C1274 0.950 . S
H1246 C1276 0.950 1_655 S
H1247 C1277 0.950 . S
C1248 H1230 0.951 . S
C1248 C1249 1.366 . S
C1248 C1250 1.388 . S
C1249 C1248 1.366 . S
C1249 C1253 1.385 . S
C1250 H1231 0.951 . S
C1250 C1248 1.388 . S
C1250 C1251 1.366 . S
C1251 C1250 1.366 . S
C1251 C1252 1.414 . S
C1251 C1254 1.499 . S
C1252 H1232 0.950 . S
C1252 C1251 1.414 . S
C1252 C1253 1.374 . S
C1253 H1233 0.950 . S
C1253 C1249 1.385 . S
C1253 C1252 1.374 . S
C1254 C1251 1.499 . S
C1254 C1255 1.373 . S
C1254 C1256 1.389 . S
C1255 H1234 0.950 . S
C1255 C1254 1.373 . S
C1255 C1271 1.377 . S
C1256 C1254 1.389 . S
C1256 C1257 1.524 . S
C1256 C1270 1.377 . S
C1257 C1256 1.524 . S
C1257 C1258 1.397 . S
C1257 C1262 1.363 . S
C1258 H1235 0.950 . S
C1258 C1257 1.397 . S
C1258 C1259 1.334 . S
C1259 H1236 0.950 . S
C1259 C1258 1.334 . S
C1259 C1260 1.287 . S
C1260 C1259 1.287 . S
C1260 C1261 1.524 . S
C1260 H1279 0.913 . S
C1261 H1237 0.950 . S
C1261 C1260 1.524 . S
C1261 C1262 1.415 . S
C1262 H1238 0.950 . S
C1262 C1257 1.363 . S
C1262 C1261 1.415 . S
C1263 H1239 0.951 . S
C1263 C1264 1.366 . S
C1263 C1265 1.388 . S
C1264 C1263 1.366 . S
C1264 C1268 1.385 . S
C1265 H1240 0.951 . S
C1265 C1263 1.388 . S
C1265 C1266 1.366 . S
C1266 C1265 1.366 . S
C1266 C1267 1.414 . S
C1266 C1269 1.499 . S
C1267 H1241 0.950 . S
C1267 C1266 1.414 . S
C1267 C1268 1.374 . S
C1268 H1242 0.950 . S
C1268 C1264 1.385 . S
C1268 C1267 1.374 . S
C1269 C1266 1.499 . S
C1269 C1270 1.373 . S
C1269 C1271 1.389 . S
C1270 H1243 0.950 . S
C1270 C1256 1.377 . S
C1270 C1269 1.373 . S
C1271 C1255 1.377 . S
C1271 C1269 1.389 . S
C1271 C1272 1.524 . S
C1272 C1271 1.524 . S
C1272 C1273 1.397 . S
C1272 C1277 1.363 . S
C1273 H1244 0.950 . S
C1273 C1272 1.397 . S
C1273 C1274 1.334 . S
C1274 H1245 0.950 . S
C1274 C1273 1.334 . S
C1274 C1275 1.287 . S
C1275 C1274 1.287 . S
C1275 C1276 1.524 . S
C1275 H1278 0.999 . S
C1276 H1246 0.950 1_455 S
C1276 C1275 1.524 . S
C1276 C1277 1.415 . S
C1277 H1247 0.950 . S
C1277 C1272 1.363 . S
C1277 C1276 1.415 . S
H1278 C1275 0.999 . S
H1279 C1260 0.913 . S
H1280 C1298 0.951 . S
H1281 C1300 0.951 . S
H1282 C1302 0.950 . S
H1283 C1303 0.950 . S
H1284 C1305 0.950 . S
H1285 C1308 0.950 . S
H1286 C1309 0.950 . S
H1287 C1311 0.950 . S
H1288 C1312 0.950 . S
H1289 C1313 0.951 . S
H1290 C1315 0.951 . S
H1291 C1317 0.950 . S
H1292 C1318 0.950 . S
H1293 C1320 0.950 . S
H1294 C1323 0.950 . S
H1295 C1324 0.950 . S
H1296 C1326 0.950 . S
H1297 C1327 0.950 . S
C1298 H1280 0.951 . S
C1298 C1299 1.366 . S
C1298 C1300 1.388 . S
C1299 C1298 1.366 . S
C1299 C1303 1.385 . S
C1300 H1281 0.951 . S
C1300 C1298 1.388 . S
C1300 C1301 1.366 . S
C1301 C1300 1.366 . S
C1301 C1302 1.414 . S
C1301 C1304 1.499 . S
C1302 H1282 0.950 . S
C1302 C1301 1.414 . S
C1302 C1303 1.374 . S
C1303 H1283 0.950 . S
C1303 C1299 1.385 . S
C1303 C1302 1.374 . S
C1304 C1301 1.499 . S
C1304 C1305 1.373 . S
C1304 C1306 1.389 . S
C1305 H1284 0.950 . S
C1305 C1304 1.373 . S
C1305 C1321 1.377 . S
C1306 C1304 1.389 . S
C1306 C1307 1.524 . S
C1306 C1320 1.377 . S
C1307 C1306 1.524 . S
C1307 C1308 1.397 . S
C1307 C1312 1.363 . S
C1308 H1285 0.950 . S
C1308 C1307 1.397 . S
C1308 C1309 1.334 . S
C1309 H1286 0.950 . S
C1309 C1308 1.334 . S
C1309 C1310 1.287 . S
C1310 C1309 1.287 . S
C1310 C1311 1.524 . S
C1310 H1329 0.913 . S
C1311 H1287 0.950 . S
C1311 C1310 1.524 . S
C1311 C1312 1.415 . S
C1312 H1288 0.950 . S
C1312 C1307 1.363 . S
C1312 C1311 1.415 . S
C1313 H1289 0.951 . S
C1313 C1314 1.366 . S
C1313 C1315 1.388 . S
C1314 C1313 1.366 . S
C1314 C1318 1.385 . S
C1315 H1290 0.951 . S
C1315 C1313 1.388 . S
C1315 C1316 1.366 . S
C1316 C1315 1.366 . S
C1316 C1317 1.414 . S
C1316 C1319 1.499 . S
C1317 H1291 0.950 . S
C1317 C1316 1.414 . S
C1317 C1318 1.374 . S
C1318 H1292 0.950 . S
C1318 C1314 1.385 . S
C1318 C1317 1.374 . S
C1319 C1316 1.499 . S
C1319 C1320 1.373 . S
C1319 C1321 1.389 . S
C1320 H1293 0.950 . S
C1320 C1306 1.377 . S
C1320 C1319 1.373 . S
C1321 C1305 1.377 . S
C1321 C1319 1.389 . S
C1321 C1322 1.524 . S
C1322 C1321 1.524 . S
C1322 C1323 1.397 . S
C1322 C1327 1.363 . S
C1323 H1294 0.950 . S
C1323 C1322 1.397 . S
C1323 C1324 1.334 . S
C1324 H1295 0.950 . S
C1324 C1323 1.334 . S
C1324 C1325 1.287 . S
C1325 C1324 1.287 . S
C1325 C1326 1.524 . S
C1325 H1328 0.999 . S
C1326 H1296 0.950 . S
C1326 C1325 1.524 . S
C1326 C1327 1.415 . S
C1327 H1297 0.950 . S
C1327 C1322 1.363 . S
C1327 C1326 1.415 . S
H1328 C1325 0.999 . S
H1329 C1310 0.913 . S
H1330 C1348 0.951 . S
H1331 C1350 0.951 . S
H1332 C1352 0.950 . S
H1333 C1353 0.950 . S
H1334 C1355 0.950 . S
H1335 C1358 0.950 . S
H1336 C1359 0.950 . S
H1337 C1361 0.950 . S
H1338 C1362 0.950 . S
H1339 C1363 0.951 . S
H1340 C1365 0.951 . S
H1341 C1367 0.950 . S
H1342 C1368 0.950 . S
H1343 C1370 0.950 . S
H1344 C1373 0.950 . S
H1345 C1374 0.950 . S
H1346 C1376 0.950 . S
H1347 C1377 0.950 . S
C1348 H1330 0.951 . S
C1348 C1349 1.366 . S
C1348 C1350 1.388 . S
C1349 C1348 1.366 . S
C1349 C1353 1.385 . S
C1350 H1331 0.951 . S
C1350 C1348 1.388 . S
C1350 C1351 1.366 . S
C1351 C1350 1.366 . S
C1351 C1352 1.414 . S
C1351 C1354 1.499 . S
C1352 H1332 0.950 . S
C1352 C1351 1.414 . S
C1352 C1353 1.374 . S
C1353 H1333 0.950 . S
C1353 C1349 1.385 . S
C1353 C1352 1.374 . S
C1354 C1351 1.499 . S
C1354 C1355 1.373 . S
C1354 C1356 1.389 . S
C1355 H1334 0.950 . S
C1355 C1354 1.373 . S
C1355 C1371 1.377 . S
C1356 C1354 1.389 . S
C1356 C1357 1.524 . S
C1356 C1370 1.377 . S
C1357 C1356 1.524 . S
C1357 C1358 1.397 . S
C1357 C1362 1.363 . S
C1358 H1335 0.950 . S
C1358 C1357 1.397 . S
C1358 C1359 1.334 . S
C1359 H1336 0.950 . S
C1359 C1358 1.334 . S
C1359 C1360 1.287 . S
C1360 C1359 1.287 . S
C1360 C1361 1.524 . S
C1360 H1379 0.913 . S
C1361 H1337 0.950 . S
C1361 C1360 1.524 . S
C1361 C1362 1.415 . S
C1362 H1338 0.950 . S
C1362 C1357 1.363 . S
C1362 C1361 1.415 . S
C1363 H1339 0.951 . S
C1363 C1364 1.366 . S
C1363 C1365 1.388 . S
C1364 C1363 1.366 . S
C1364 C1368 1.385 . S
C1365 H1340 0.951 . S
C1365 C1363 1.388 . S
C1365 C1366 1.366 . S
C1366 C1365 1.366 . S
C1366 C1367 1.414 . S
C1366 C1369 1.499 . S
C1367 H1341 0.950 . S
C1367 C1366 1.414 . S
C1367 C1368 1.374 . S
C1368 H1342 0.950 . S
C1368 C1364 1.385 . S
C1368 C1367 1.374 . S
C1369 C1366 1.499 . S
C1369 C1370 1.373 . S
C1369 C1371 1.389 . S
C1370 H1343 0.950 . S
C1370 C1356 1.377 . S
C1370 C1369 1.373 . S
C1371 C1355 1.377 . S
C1371 C1369 1.389 . S
C1371 C1372 1.524 . S
C1372 C1371 1.524 . S
C1372 C1373 1.397 . S
C1372 C1377 1.363 . S
C1373 H1344 0.950 . S
C1373 C1372 1.397 . S
C1373 C1374 1.334 . S
C1374 H1345 0.950 . S
C1374 C1373 1.334 . S
C1374 C1375 1.287 . S
C1375 C1374 1.287 . S
C1375 C1376 1.524 . S
C1375 H1378 0.999 . S
C1376 H1346 0.950 . S
C1376 C1375 1.524 . S
C1376 C1377 1.415 . S
C1377 H1347 0.950 . S
C1377 C1372 1.363 . S
C1377 C1376 1.415 . S
H1378 C1375 0.999 . S
H1379 C1360 0.913 . S
H1380 C1398 0.951 . S
H1381 C1400 0.951 . S
H1382 C1402 0.950 . S
H1383 C1403 0.950 . S
H1384 C1405 0.950 . S
H1385 C1408 0.950 . S
H1386 C1409 0.950 . S
H1387 C1411 0.964 . S
H1388 C1412 0.950 . S
H1389 C1413 0.951 . S
H1390 C1415 0.951 . S
H1391 C1417 0.950 . S
H1392 C1418 0.950 . S
H1393 C1420 0.950 . S
H1394 C1423 0.950 . S
H1395 C1424 0.950 . S
H1396 C1426 0.950 . S
H1397 C1427 0.950 . S
C1398 H1380 0.951 . S
C1398 C1399 1.366 . S
C1398 C1400 1.388 . S
C1399 C1398 1.366 . S
C1399 C1403 1.385 . S
C1400 H1381 0.951 . S
C1400 C1398 1.388 . S
C1400 C1401 1.366 . S
C1401 C1400 1.366 . S
C1401 C1402 1.414 . S
C1401 C1404 1.499 . S
C1402 H1382 0.950 . S
C1402 C1401 1.414 . S
C1402 C1403 1.374 . S
C1403 H1383 0.950 . S
C1403 C1399 1.385 . S
C1403 C1402 1.374 . S
C1404 C1401 1.499 . S
C1404 C1405 1.373 . S
C1404 C1406 1.389 . S
C1405 H1384 0.950 . S
C1405 C1404 1.373 . S
C1405 C1421 1.377 . S
C1406 C1404 1.389 . S
C1406 C1407 1.524 . S
C1406 C1420 1.377 . S
C1407 C1406 1.524 . S
C1407 C1408 1.397 . S
C1407 C1412 1.363 . S
C1408 H1385 0.950 . S
C1408 C1407 1.397 . S
C1408 C1409 1.334 . S
C1409 H1386 0.950 . S
C1409 C1408 1.334 . S
C1409 C1410 1.287 . S
C1410 C1409 1.287 . S
C1410 C1411 1.524 . S
C1410 H1429 0.913 . S
C1411 H1387 0.964 . S
C1411 C1410 1.524 . S
C1411 C1412 1.415 . S
C1412 H1388 0.950 . S
C1412 C1407 1.363 . S
C1412 C1411 1.415 . S
C1413 H1389 0.951 . S
C1413 C1414 1.366 . S
C1413 C1415 1.388 . S
C1414 C1413 1.366 . S
C1414 C1418 1.385 . S
C1415 H1390 0.951 . S
C1415 C1413 1.388 . S
C1415 C1416 1.366 . S
C1416 C1415 1.366 . S
C1416 C1417 1.414 . S
C1416 C1419 1.499 . S
C1417 H1391 0.950 . S
C1417 C1416 1.414 . S
C1417 C1418 1.374 . S
C1418 H1392 0.950 . S
C1418 C1414 1.385 . S
C1418 C1417 1.374 . S
C1419 C1416 1.499 . S
C1419 C1420 1.373 . S
C1419 C1421 1.389 . S
C1420 H1393 0.950 . S
C1420 C1406 1.377 . S
C1420 C1419 1.373 . S
C1421 C1405 1.377 . S
C1421 C1419 1.389 . S
C1421 C1422 1.524 . S
C1422 C1421 1.524 . S
C1422 C1423 1.397 . S
C1422 C1427 1.363 . S
C1423 H1394 0.950 . S
C1423 C1422 1.397 . S
C1423 C1424 1.334 . S
C1424 H1395 0.950 . S
C1424 C1423 1.334 . S
C1424 C1425 1.287 . S
C1425 C1424 1.287 . S
C1425 C1426 1.524 . S
C1425 H1428 0.999 . S
C1426 H1396 0.950 . S
C1426 C1425 1.524 . S
C1426 C1427 1.415 . S
C1427 H1397 0.950 . S
C1427 C1422 1.363 . S
C1427 C1426 1.415 . S
H1428 C1425 0.999 . S
H1429 C1410 0.913 . S
H1430 C1448 0.951 . S
H1431 C1450 0.951 . S
H1432 C1452 0.950 . S
H1433 C1453 0.950 . S
H1434 C1455 0.950 . S
H1435 C1458 0.950 . S
H1436 C1459 0.950 . S
H1437 C1461 0.950 . S
H1438 C1462 0.950 . S
H1439 C1463 0.951 . S
H1440 C1465 0.951 . S
H1441 C1467 0.950 . S
H1442 C1468 0.950 . S
H1443 C1470 0.950 . S
H1444 C1473 0.950 . S
H1445 C1474 0.950 . S
H1446 C1476 0.950 . S
H1447 C1477 0.950 . S
C1448 H1430 0.951 . S
C1448 C1449 1.366 . S
C1448 C1450 1.388 . S
C1449 C1448 1.366 . S
C1449 C1453 1.385 . S
C1450 H1431 0.951 . S
C1450 C1448 1.388 . S
C1450 C1451 1.366 . S
C1451 C1450 1.366 . S
C1451 C1452 1.414 . S
C1451 C1454 1.499 . S
C1452 H1432 0.950 . S
C1452 C1451 1.414 . S
C1452 C1453 1.374 . S
C1453 H1433 0.950 . S
C1453 C1449 1.385 . S
C1453 C1452 1.374 . S
C1454 C1451 1.499 . S
C1454 C1455 1.373 . S
C1454 C1456 1.389 . S
C1455 H1434 0.950 . S
C1455 C1454 1.373 . S
C1455 C1471 1.377 . S
C1456 C1454 1.389 . S
C1456 C1457 1.524 . S
C1456 C1470 1.377 . S
C1457 C1456 1.524 . S
C1457 C1458 1.397 . S
C1457 C1462 1.363 . S
C1458 H1435 0.950 . S
C1458 C1457 1.397 . S
C1458 C1459 1.334 . S
C1459 H1436 0.950 . S
C1459 C1458 1.334 . S
C1459 C1460 1.287 . S
C1460 C1459 1.287 . S
C1460 C1461 1.524 . S
C1460 H1479 0.913 . S
C1461 H1437 0.950 . S
C1461 C1460 1.524 . S
C1461 C1462 1.415 . S
C1462 H1438 0.950 . S
C1462 C1457 1.363 . S
C1462 C1461 1.415 . S
C1463 H1439 0.951 . S
C1463 C1464 1.366 . S
C1463 C1465 1.388 . S
C1464 C1463 1.366 . S
C1464 C1468 1.385 . S
C1465 H1440 0.951 . S
C1465 C1463 1.388 . S
C1465 C1466 1.366 . S
C1466 C1465 1.366 . S
C1466 C1467 1.414 . S
C1466 C1469 1.499 . S
C1467 H1441 0.950 . S
C1467 C1466 1.414 . S
C1467 C1468 1.374 . S
C1468 H1442 0.950 . S
C1468 C1464 1.385 . S
C1468 C1467 1.374 . S
C1469 C1466 1.499 . S
C1469 C1470 1.373 . S
C1469 C1471 1.389 . S
C1470 H1443 0.950 . S
C1470 C1456 1.377 . S
C1470 C1469 1.373 . S
C1471 C1455 1.377 . S
C1471 C1469 1.389 . S
C1471 C1472 1.524 . S
C1472 C1471 1.524 . S
C1472 C1473 1.397 . S
C1472 C1477 1.363 . S
C1473 H1444 0.950 . S
C1473 C1472 1.397 . S
C1473 C1474 1.334 . S
C1474 H1445 0.950 . S
C1474 C1473 1.334 . S
C1474 C1475 1.287 . S
C1475 C1474 1.287 . S
C1475 C1476 1.524 . S
C1475 H1478 0.999 . S
C1476 H1446 0.950 . S
C1476 C1475 1.524 . S
C1476 C1477 1.415 . S
C1477 H1447 0.950 . S
C1477 C1472 1.363 . S
C1477 C1476 1.415 . S
H1478 C1475 0.999 . S
H1479 C1460 0.913 . S
H1480 C1498 0.951 . S
H1481 C1500 0.951 . S
H1482 C1502 0.950 . S
H1483 C1503 0.950 . S
H1484 C1505 0.950 . S
H1485 C1508 0.950 . S
H1486 C1509 0.950 . S
H1487 C1511 0.950 . S
H1488 C1512 0.950 . S
H1489 C1513 0.951 . S
H1490 C1515 0.951 . S
H1491 C1517 0.950 . S
H1492 C1518 0.950 . S
H1493 C1520 0.950 . S
H1494 C1523 0.950 . S
H1495 C1524 0.950 . S
H1496 C1526 0.950 . S
H1497 C1527 0.950 . S
C1498 H1480 0.951 . S
C1498 C1499 1.366 . S
C1498 C1500 1.388 . S
C1499 C1498 1.366 . S
C1499 C1503 1.385 . S
C1500 H1481 0.951 . S
C1500 C1498 1.388 . S
C1500 C1501 1.366 . S
C1501 C1500 1.366 . S
C1501 C1502 1.414 . S
C1501 C1504 1.499 . S
C1502 H1482 0.950 . S
C1502 C1501 1.414 . S
C1502 C1503 1.374 . S
C1503 H1483 0.950 . S
C1503 C1499 1.385 . S
C1503 C1502 1.374 . S
C1504 C1501 1.499 . S
C1504 C1505 1.373 . S
C1504 C1506 1.389 . S
C1505 H1484 0.950 . S
C1505 C1504 1.373 . S
C1505 C1521 1.377 . S
C1506 C1504 1.389 . S
C1506 C1507 1.524 . S
C1506 C1520 1.377 . S
C1507 C1506 1.524 . S
C1507 C1508 1.397 . S
C1507 C1512 1.363 . S
C1508 H1485 0.950 . S
C1508 C1507 1.397 . S
C1508 C1509 1.334 . S
C1509 H1486 0.950 . S
C1509 C1508 1.334 . S
C1509 C1510 1.287 . S
C1510 C1509 1.287 . S
C1510 C1511 1.524 . S
C1510 H1529 0.913 . S
C1511 H1487 0.950 . S
C1511 C1510 1.524 . S
C1511 C1512 1.415 . S
C1512 H1488 0.950 . S
C1512 C1507 1.363 . S
C1512 C1511 1.415 . S
C1513 H1489 0.951 . S
C1513 C1514 1.366 . S
C1513 C1515 1.388 . S
C1514 C1513 1.366 . S
C1514 C1518 1.385 . S
C1515 H1490 0.951 . S
C1515 C1513 1.388 . S
C1515 C1516 1.366 . S
C1516 C1515 1.366 . S
C1516 C1517 1.414 . S
C1516 C1519 1.499 . S
C1517 H1491 0.950 . S
C1517 C1516 1.414 . S
C1517 C1518 1.374 . S
C1518 H1492 0.950 . S
C1518 C1514 1.385 . S
C1518 C1517 1.374 . S
C1519 C1516 1.499 . S
C1519 C1520 1.373 . S
C1519 C1521 1.389 . S
C1520 H1493 0.950 . S
C1520 C1506 1.377 . S
C1520 C1519 1.373 . S
C1521 C1505 1.377 . S
C1521 C1519 1.389 . S
C1521 C1522 1.524 . S
C1522 C1521 1.524 . S
C1522 C1523 1.397 . S
C1522 C1527 1.363 . S
C1523 H1494 0.950 . S
C1523 C1522 1.397 . S
C1523 C1524 1.334 . S
C1524 H1495 0.950 . S
C1524 C1523 1.334 . S
C1524 C1525 1.287 . S
C1525 C1524 1.287 . S
C1525 C1526 1.524 . S
C1525 H1528 0.999 . S
C1526 H1496 0.950 . S
C1526 C1525 1.524 . S
C1526 C1527 1.415 . S
C1527 H1497 0.950 . S
C1527 C1522 1.363 . S
C1527 C1526 1.415 . S
H1528 C1525 0.999 . S
H1529 C1510 0.913 . S
H1530 C1548 0.951 . S
H1531 C1550 0.951 . S
H1532 C1552 0.950 . S
H1533 C1553 0.950 . S
H1534 C1555 0.950 . S
H1535 C1558 0.950 . S
H1536 C1559 0.950 . S
H1537 C1561 0.950 . S
H1538 C1562 0.950 . S
H1539 C1563 0.951 . S
H1540 C1565 0.951 . S
H1541 C1567 0.950 . S
H1542 C1568 0.950 . S
H1543 C1570 0.950 . S
H1544 C1573 0.950 . S
H1545 C1574 0.950 . S
H1546 C1576 0.950 . S
H1547 C1577 0.950 . S
C1548 H1530 0.951 . S
C1548 C1549 1.366 . S
C1548 C1550 1.388 . S
C1549 C1548 1.366 . S
C1549 C1553 1.385 . S
C1550 H1531 0.951 . S
C1550 C1548 1.388 . S
C1550 C1551 1.366 . S
C1551 C1550 1.366 . S
C1551 C1552 1.414 . S
C1551 C1554 1.499 . S
C1552 H1532 0.950 . S
C1552 C1551 1.414 . S
C1552 C1553 1.374 . S
C1553 H1533 0.950 . S
C1553 C1549 1.385 . S
C1553 C1552 1.374 . S
C1554 C1551 1.499 . S
C1554 C1555 1.373 . S
C1554 C1556 1.389 . S
C1555 H1534 0.950 . S
C1555 C1554 1.373 . S
C1555 C1571 1.377 . S
C1556 C1554 1.389 . S
C1556 C1557 1.524 . S
C1556 C1570 1.377 . S
C1557 C1556 1.524 . S
C1557 C1558 1.397 . S
C1557 C1562 1.363 . S
C1558 H1535 0.950 . S
C1558 C1557 1.397 . S
C1558 C1559 1.334 . S
C1559 H1536 0.950 . S
C1559 C1558 1.334 . S
C1559 C1560 1.287 . S
C1560 C1559 1.287 . S
C1560 C1561 1.524 . S
C1560 H1579 0.913 . S
C1561 H1537 0.950 . S
C1561 C1560 1.524 . S
C1561 C1562 1.415 . S
C1562 H1538 0.950 . S
C1562 C1557 1.363 . S
C1562 C1561 1.415 . S
C1563 H1539 0.951 . S
C1563 C1564 1.366 . S
C1563 C1565 1.388 . S
C1564 C1563 1.366 . S
C1564 C1568 1.385 . S
C1565 H1540 0.951 . S
C1565 C1563 1.388 . S
C1565 C1566 1.366 . S
C1566 C1565 1.366 . S
C1566 C1567 1.414 . S
C1566 C1569 1.499 . S
C1567 H1541 0.950 . S
C1567 C1566 1.414 . S
C1567 C1568 1.374 . S
C1568 H1542 0.950 . S
C1568 C1564 1.385 . S
C1568 C1567 1.374 . S
C1569 C1566 1.499 . S
C1569 C1570 1.373 . S
C1569 C1571 1.389 . S
C1570 H1543 0.950 . S
C1570 C1556 1.377 . S
C1570 C1569 1.373 . S
C1571 C1555 1.377 . S
C1571 C1569 1.389 . S
C1571 C1572 1.524 . S
C1572 C1571 1.524 . S
C1572 C1573 1.397 . S
C1572 C1577 1.363 . S
C1573 H1544 0.950 . S
C1573 C1572 1.397 . S
C1573 C1574 1.334 . S
C1574 H1545 0.950 . S
C1574 C1573 1.334 . S
C1574 C1575 1.287 . S
C1575 C1574 1.287 . S
C1575 C1576 1.524 . S
C1575 H1578 0.999 . S
C1576 H1546 0.950 . S
C1576 C1575 1.524 . S
C1576 C1577 1.415 . S
C1577 H1547 0.950 . S
C1577 C1572 1.363 . S
C1577 C1576 1.415 . S
H1578 C1575 0.999 . S
H1579 C1560 0.913 . S
H1580 C1598 0.951 . S
H1581 C1600 0.951 . S
H1582 C1602 0.950 . S
H1583 C1603 0.950 . S
H1584 C1605 0.950 . S
H1585 C1608 0.950 . S
H1586 C1609 0.950 . S
H1587 C1611 0.950 . S
H1588 C1612 0.950 . S
H1589 C1613 0.951 . S
H1590 C1615 0.951 . S
H1591 C1617 0.950 . S
H1592 C1618 0.950 . S
H1593 C1620 0.950 . S
H1594 C1623 0.950 . S
H1595 C1624 0.950 . S
H1596 C1626 0.950 . S
H1597 C1627 0.950 . S
C1598 H1580 0.951 . S
C1598 C1599 1.366 . S
C1598 C1600 1.388 . S
C1599 C1598 1.366 . S
C1599 C1603 1.385 . S
C1600 H1581 0.951 . S
C1600 C1598 1.388 . S
C1600 C1601 1.366 . S
C1601 C1600 1.366 . S
C1601 C1602 1.414 . S
C1601 C1604 1.499 . S
C1602 H1582 0.950 . S
C1602 C1601 1.414 . S
C1602 C1603 1.374 . S
C1603 H1583 0.950 . S
C1603 C1599 1.385 . S
C1603 C1602 1.374 . S
C1604 C1601 1.499 . S
C1604 C1605 1.373 . S
C1604 C1606 1.389 . S
C1605 H1584 0.950 . S
C1605 C1604 1.373 . S
C1605 C1621 1.377 . S
C1606 C1604 1.389 . S
C1606 C1607 1.524 . S
C1606 C1620 1.377 . S
C1607 C1606 1.524 . S
C1607 C1608 1.397 . S
C1607 C1612 1.363 . S
C1608 H1585 0.950 . S
C1608 C1607 1.397 . S
C1608 C1609 1.334 . S
C1609 H1586 0.950 . S
C1609 C1608 1.334 . S
C1609 C1610 1.287 . S
C1610 C1609 1.287 . S
C1610 C1611 1.524 . S
C1610 H1629 0.922 . S
C1611 H1587 0.950 . S
C1611 C1610 1.524 . S
C1611 C1612 1.415 . S
C1612 H1588 0.950 . S
C1612 C1607 1.363 . S
C1612 C1611 1.415 . S
C1613 H1589 0.951 . S
C1613 C1614 1.366 . S
C1613 C1615 1.388 . S
C1614 C1613 1.366 . S
C1614 C1618 1.385 . S
C1615 H1590 0.951 . S
C1615 C1613 1.388 . S
C1615 C1616 1.366 . S
C1616 C1615 1.366 . S
C1616 C1617 1.414 . S
C1616 C1619 1.499 . S
C1617 H1591 0.950 . S
C1617 C1616 1.414 . S
C1617 C1618 1.374 . S
C1618 H1592 0.950 . S
C1618 C1614 1.385 . S
C1618 C1617 1.374 . S
C1619 C1616 1.499 . S
C1619 C1620 1.373 . S
C1619 C1621 1.389 . S
C1620 H1593 0.950 . S
C1620 C1606 1.377 . S
C1620 C1619 1.373 . S
C1621 C1605 1.377 . S
C1621 C1619 1.389 . S
C1621 C1622 1.524 . S
C1622 C1621 1.524 . S
C1622 C1623 1.397 . S
C1622 C1627 1.363 . S
C1623 H1594 0.950 . S
C1623 C1622 1.397 . S
C1623 C1624 1.334 . S
C1624 H1595 0.950 . S
C1624 C1623 1.334 . S
C1624 C1625 1.287 . S
C1625 C1624 1.287 . S
C1625 C1626 1.524 . S
C1625 H1628 0.999 . S
C1626 H1596 0.950 . S
C1626 C1625 1.524 . S
C1626 C1627 1.415 . S
C1627 H1597 0.950 . S
C1627 C1622 1.363 . S
C1627 C1626 1.415 . S
H1628 C1625 0.999 . S
H1629 C1610 0.922 . S
H1630 C1648 0.951 . S
H1631 C1650 0.951 . S
H1632 C1652 0.950 . S
H1633 C1653 0.950 . S
H1634 C1655 0.950 . S
H1635 C1658 0.950 . S
H1636 C1659 0.950 . S
H1637 C1661 0.950 . S
H1638 C1662 0.950 . S
H1639 C1663 0.951 . S
H1640 C1665 0.951 . S
H1641 C1667 0.950 . S
H1642 C1668 0.950 . S
H1643 C1670 0.950 . S
H1644 C1673 0.950 . S
H1645 C1674 0.950 . S
H1646 C1676 0.950 . S
H1647 C1677 0.950 . S
C1648 H1630 0.951 . S
C1648 C1649 1.366 . S
C1648 C1650 1.388 . S
C1649 C1648 1.366 . S
C1649 C1653 1.385 . S
C1650 H1631 0.951 . S
C1650 C1648 1.388 . S
C1650 C1651 1.366 . S
C1651 C1650 1.366 . S
C1651 C1652 1.414 . S
C1651 C1654 1.499 . S
C1652 H1632 0.950 . S
C1652 C1651 1.414 . S
C1652 C1653 1.374 . S
C1653 H1633 0.950 . S
C1653 C1649 1.385 . S
C1653 C1652 1.374 . S
C1654 C1651 1.499 . S
C1654 C1655 1.373 . S
C1654 C1656 1.389 . S
C1655 H1634 0.950 . S
C1655 C1654 1.373 . S
C1655 C1671 1.377 . S
C1656 C1654 1.389 . S
C1656 C1657 1.524 . S
C1656 C1670 1.377 . S
C1657 C1656 1.524 . S
C1657 C1658 1.397 . S
C1657 C1662 1.363 . S
C1658 H1635 0.950 . S
C1658 C1657 1.397 . S
C1658 C1659 1.334 . S
C1659 H1636 0.950 . S
C1659 C1658 1.334 . S
C1659 C1660 1.287 . S
C1660 C1659 1.287 . S
C1660 C1661 1.524 . S
C1660 H1679 0.913 . S
C1661 H1637 0.950 . S
C1661 C1660 1.524 . S
C1661 C1662 1.415 . S
C1662 H1638 0.950 . S
C1662 C1657 1.363 . S
C1662 C1661 1.415 . S
C1663 H1639 0.951 . S
C1663 C1664 1.366 . S
C1663 C1665 1.388 . S
C1664 C1663 1.366 . S
C1664 C1668 1.385 . S
C1665 H1640 0.951 . S
C1665 C1663 1.388 . S
C1665 C1666 1.366 . S
C1666 C1665 1.366 . S
C1666 C1667 1.414 . S
C1666 C1669 1.499 . S
C1667 H1641 0.950 . S
C1667 C1666 1.414 . S
C1667 C1668 1.374 . S
C1668 H1642 0.950 . S
C1668 C1664 1.385 . S
C1668 C1667 1.374 . S
C1669 C1666 1.499 . S
C1669 C1670 1.373 . S
C1669 C1671 1.389 . S
C1670 H1643 0.950 . S
C1670 C1656 1.377 . S
C1670 C1669 1.373 . S
C1671 C1655 1.377 . S
C1671 C1669 1.389 . S
C1671 C1672 1.524 . S
C1672 C1671 1.524 . S
C1672 C1673 1.397 . S
C1672 C1677 1.363 . S
C1673 H1644 0.950 . S
C1673 C1672 1.397 . S
C1673 C1674 1.334 . S
C1674 H1645 0.950 . S
C1674 C1673 1.334 . S
C1674 C1675 1.287 . S
C1675 C1674 1.287 . S
C1675 C1676 1.524 . S
C1675 H1678 0.999 . S
C1676 H1646 0.950 . S
C1676 C1675 1.524 . S
C1676 C1677 1.415 . S
C1677 H1647 0.950 . S
C1677 C1672 1.363 . S
C1677 C1676 1.415 . S
H1678 C1675 0.999 . S
H1679 C1660 0.913 . S
C499 C21 1.265 . S
C514 C326 1.356 . S
C549 C61 0.976 . S
C564 C375 0.980 . S
C614 C410 2.363 . S
C599 C82 2.385 . S
C649 C135 2.320 . S
C664 C449 2.257 . S
C714 C370 2.641 . S
C699 C15 2.539 . S
C764 C329 0.955 . S
C749 C42 0.983 . S
C814 C459 1.870 . S
C799 C101 1.889 . S
C864 C418 1.454 . S
C849 C122 1.480 . S
C899 C2 1.766 . S
C914 C446 1.872 . S
C964 C378 2.237 . S
C949 C95 2.313 . S
C999 C141 2.369 . S
C1014 C339 2.364 . S
C1049 C55 0.723 . S
C1064 C415 0.722 . S
C1114 C335 1.368 . S
C1099 C181 1.363 . S
C1149 C202 0.942 . S
C1164 C366 0.954 . S
C1199 C255 2.431 . S
C1214 C419 2.393 . S
C1249 C295 2.295 . S
C1264 C458 2.233 . S
C1299 C175 2.528 . S
C1314 C379 2.616 . S
C1364 C338 0.970 . S
C1349 C221 0.993 . S
C1414 C450 1.798 . S
C1399 C242 1.830 . S
C1464 C409 1.528 . S
C1449 C301 1.557 . S
C1499 C162 1.833 . S
C1514 C455 1.846 . S
C1564 C369 2.279 . S
C1549 C261 2.345 . S
C1614 C330 2.341 . S
C1599 C282 2.343 . S
C1649 C215 0.761 . S
C1664 C406 0.763 . S
