# Generated by pormake.
# Topology zzz, (3,6)-cn, num edge types: 1
# Building blocks:
#     Node 0, Type 0, BuildingBlock: WUSLED_clean_sbu_0, # of connection points: 3
#     Node 1, Type 0, BuildingBlock: WUSLED_clean_sbu_0, # of connection points: 3
#     Node 2, Type 0, BuildingBlock: WUSLED_clean_sbu_0, # of connection points: 3
#     Node 3, Type 0, BuildingBlock: WUSLED_clean_sbu_0, # of connection points: 3
#     Node 4, Type 0, BuildingBlock: WUSLED_clean_sbu_0, # of connection points: 3
#     Node 5, Type 0, BuildingBlock: WUSLED_clean_sbu_0, # of connection points: 3
#     Node 6, Type 0, BuildingBlock: WUSLED_clean_sbu_0, # of connection points: 3
#     Node 7, Type 0, BuildingBlock: WUSLED_clean_sbu_0, # of connection points: 3
#     Node 8, Type 1, BuildingBlock: GEDQOX_clean_sbu_0, # of connection points: 6
#     Node 9, Type 1, BuildingBlock: GEDQOX_clean_sbu_0, # of connection points: 6
#     Node 10, Type 1, BuildingBlock: GEDQOX_clean_sbu_0, # of connection points: 6
#     Node 11, Type 1, BuildingBlock: GEDQOX_clean_sbu_0, # of connection points: 6
#     Edge 12, Type (0, 1), BuildingBlock: TEMPAE_clean_linker_10, # of connection points: 2
#     Edge 13, Type (0, 1), BuildingBlock: TEMPAE_clean_linker_10, # of connection points: 2
#     Edge 14, Type (0, 1), BuildingBlock: TEMPAE_clean_linker_10, # of connection points: 2
#     Edge 15, Type (0, 1), BuildingBlock: TEMPAE_clean_linker_10, # of connection points: 2
#     Edge 16, Type (0, 1), BuildingBlock: TEMPAE_clean_linker_10, # of connection points: 2
#     Edge 17, Type (0, 1), BuildingBlock: TEMPAE_clean_linker_10, # of connection points: 2
#     Edge 18, Type (0, 1), BuildingBlock: TEMPAE_clean_linker_10, # of connection points: 2
#     Edge 19, Type (0, 1), BuildingBlock: TEMPAE_clean_linker_10, # of connection points: 2
#     Edge 20, Type (0, 1), BuildingBlock: TEMPAE_clean_linker_10, # of connection points: 2
#     Edge 21, Type (0, 1), BuildingBlock: TEMPAE_clean_linker_10, # of connection points: 2
#     Edge 22, Type (0, 1), BuildingBlock: TEMPAE_clean_linker_10, # of connection points: 2
#     Edge 23, Type (0, 1), BuildingBlock: TEMPAE_clean_linker_10, # of connection points: 2
#     Edge 24, Type (0, 1), BuildingBlock: TEMPAE_clean_linker_10, # of connection points: 2
#     Edge 25, Type (0, 1), BuildingBlock: TEMPAE_clean_linker_10, # of connection points: 2
#     Edge 26, Type (0, 1), BuildingBlock: TEMPAE_clean_linker_10, # of connection points: 2
#     Edge 27, Type (0, 1), BuildingBlock: TEMPAE_clean_linker_10, # of connection points: 2
#     Edge 28, Type (0, 1), BuildingBlock: TEMPAE_clean_linker_10, # of connection points: 2
#     Edge 29, Type (0, 1), BuildingBlock: TEMPAE_clean_linker_10, # of connection points: 2
#     Edge 30, Type (0, 1), BuildingBlock: TEMPAE_clean_linker_10, # of connection points: 2
#     Edge 31, Type (0, 1), BuildingBlock: TEMPAE_clean_linker_10, # of connection points: 2
#     Edge 32, Type (0, 1), BuildingBlock: TEMPAE_clean_linker_10, # of connection points: 2
#     Edge 33, Type (0, 1), BuildingBlock: TEMPAE_clean_linker_10, # of connection points: 2
#     Edge 34, Type (0, 1), BuildingBlock: TEMPAE_clean_linker_10, # of connection points: 2
#     Edge 35, Type (0, 1), BuildingBlock: TEMPAE_clean_linker_10, # of connection points: 2
# Relax obj value: 0.291
# Max RMSD: 0.258
# Mean RMSD: 0.194
data_MOF--net-zzz--node1-WUSLED_clean_sbu_0--node2-GEDQOX_clean_sbu_0--edge1-TEMPAE_clean_linker_10
_symmetry_space_group_name_H-M    P1
_symmetry_Int_Tables_number       1
_symmetry_cell_setting            triclinic
loop_
_symmetry_equiv_pos_as_xyz
'x, y, z'
_cell_length_a     67.634586
_cell_length_b     63.484236
_cell_length_c     23.447458
_cell_angle_alpha  82.837899
_cell_angle_beta   91.06312
_cell_angle_gamma 101.84207
loop_
_atom_site_label
_atom_site_type_symbol
_atom_site_fract_x
_atom_site_fract_y
_atom_site_fract_z
_atom_type_partial_charge
C0 C 0.79665 0.4764 0.28483 0.0
C1 C 0.80647 0.45918 0.30218 0.0
C2 C 0.83314 0.48365 0.34675 0.0
C3 C 0.82457 0.46279 0.33291 0.0
C4 C 0.82351 0.50087 0.32815 0.0
C5 C 0.80547 0.49726 0.2978 0.0
U6 U 0.75856 0.46521 0.16054 0.0
O7 O 0.7266 0.44786 0.16379 0.0
O8 O 0.73447 0.48323 0.14122 0.0
C9 C 0.72008 0.46571 0.14614 0.0
C10 C 0.77643 0.47294 0.25828 0.0
C11 C 0.70443 0.46467 0.1012 0.0
C12 C 0.66926 0.45218 0.07644 0.0
C13 C 0.68573 0.45044 0.11238 0.0
C14 C 0.69023 0.4817 0.01578 0.0
C15 C 0.67119 0.46839 0.02906 0.0
C16 C 0.70674 0.4798 0.05134 0.0
C17 C 0.80233 0.45872 0.06574 0.0
C18 C 0.83565 0.47643 0.02763 0.0
C19 C 0.82921 0.43835 0.06509 0.0
C20 C 0.80929 0.43922 0.07797 0.0
C21 C 0.84259 0.45693 0.03958 0.0
C22 C 0.81576 0.47729 0.04034 0.0
C23 C 0.7809 0.45947 0.07572 0.0
O24 O 0.77347 0.48825 0.21786 0.0
O25 O 0.76809 0.45328 0.247 0.0
O26 O 0.77037 0.44337 0.11047 0.0
O27 O 0.7771 0.47846 0.08322 0.0
H28 H 0.79998 0.44287 0.29324 0.0
H29 H 0.83172 0.44923 0.34646 0.0
H30 H 0.82948 0.51704 0.33903 0.0
H31 H 0.79807 0.51077 0.28591 0.0
H32 H 0.65471 0.44181 0.08787 0.0
H33 H 0.68354 0.43875 0.15072 0.0
H34 H 0.69214 0.49418 0.97916 0.0
H35 H 0.721 0.49095 0.04133 0.0
H36 H 0.84546 0.49094 0.00697 0.0
H37 H 0.83413 0.42312 0.07506 0.0
H38 H 0.7993 0.42452 0.09688 0.0
H39 H 0.81082 0.49246 0.02934 0.0
C40 C 0.94151 0.76044 0.34949 0.0
C41 C 0.95706 0.77778 0.32849 0.0
C42 C 0.94632 0.80059 0.39316 0.0
C43 C 0.95943 0.79772 0.35011 0.0
C44 C 0.93047 0.78326 0.41284 0.0
C45 C 0.92811 0.76339 0.39115 0.0
U46 U 0.95496 0.72144 0.25099 0.0
O47 O 0.96138 0.6891 0.27711 0.0
O48 O 0.93545 0.69262 0.22172 0.0
C49 C 0.94704 0.67961 0.2447 0.0
C50 C 0.93979 0.73881 0.33147 0.0
C51 C 0.95347 0.6659 0.20562 0.0
C52 C 0.94905 0.63124 0.16854 0.0
C53 C 0.94269 0.64463 0.20435 0.0
C54 C 0.97692 0.66041 0.13438 0.0
C55 C 0.96635 0.63892 0.13365 0.0
C56 C 0.97047 0.67383 0.16991 0.0
C57 C 0.98667 0.77061 0.15855 0.0
C58 C 0.98117 0.80753 0.14435 0.0
C59 C 0.01216 0.79962 0.11041 0.0
C60 C 0.00561 0.77779 0.13181 0.0
C61 C 0.9998 0.81465 0.11513 0.0
C62 C 0.97467 0.78569 0.16593 0.0
C63 C 0.97906 0.7472 0.17388 0.0
O64 O 0.93072 0.73568 0.28225 0.0
O65 O 0.95619 0.73072 0.33821 0.0
O66 O 0.98566 0.73832 0.22225 0.0
O67 O 0.95964 0.74032 0.1658 0.0
H68 H 0.9676 0.77573 0.2964 0.0
H69 H 0.97165 0.81081 0.33359 0.0
H70 H 0.9203 0.78478 0.4465 0.0
H71 H 0.91611 0.75011 0.40806 0.0
H72 H 0.94074 0.61469 0.16931 0.0
H73 H 0.92951 0.6383 0.23158 0.0
H74 H 0.99018 0.66681 0.10753 0.0
H75 H 0.97887 0.69031 0.17 0.0
H76 H 0.97119 0.8186 0.14831 0.0
H77 H 0.02674 0.80465 0.08906 0.0
H78 H 0.0151 0.76638 0.12592 0.0
H79 H 0.95997 0.78048 0.1865 0.0
C80 C 0.76352 1.00415 0.34797 0.0
C81 C 0.74851 0.01662 0.34192 0.0
C82 C 0.73243 0.9979 0.43134 0.0
C83 C 0.73323 0.0136 0.38307 0.0
C84 C 0.74771 0.98567 0.43807 0.0
C85 C 0.76312 0.98878 0.39668 0.0
U86 U 0.76938 0.01274 0.19072 0.0
O87 O 0.79226 0.03194 0.12887 0.0
O88 O 0.78243 0.99682 0.12678 0.0
C89 C 0.79488 0.0148 0.10594 0.0
C90 C 0.77765 1.00538 0.2997 0.0
C91 C 0.81602 0.0135 0.09391 0.0
C92 C 0.84799 0.03016 0.04546 0.0
C93 C 0.82869 0.03147 0.06316 0.0
C94 C 0.84252 0.99285 0.08945 0.0
C95 C 0.85508 0.01076 0.05774 0.0
C96 C 0.8232 0.99419 0.10735 0.0
C97 C 0.71704 0.02118 0.12764 0.0
C98 C 0.70666 0.03725 0.03527 0.0
C99 C 0.68154 0.01605 0.1034 0.0
C100 C 0.69676 0.01244 0.14181 0.0
C101 C 0.68625 0.02845 0.04964 0.0
C102 C 0.72201 0.0336 0.07408 0.0
C103 C 0.73216 0.01766 0.17151 0.0
O104 O 0.77261 0.9897 0.26719 0.0
O105 O 0.78299 0.02464 0.26973 0.0
O106 O 0.74729 0.03391 0.17744 0.0
O107 O 0.73739 0.99871 0.17677 0.0
H108 H 0.74811 0.02824 0.30413 0.0
H109 H 0.72153 0.02297 0.37568 0.0
H110 H 0.74758 0.97351 0.47488 0.0
H111 H 0.77435 0.97874 0.40181 0.0
H112 H 0.85711 0.04417 0.02048 0.0
H113 H 0.82345 0.04644 0.05141 0.0
H114 H 0.8476 0.97775 0.10021 0.0
H115 H 0.81379 0.97998 0.1307 0.0
H116 H 0.71074 0.04678 0.99403 0.0
H117 H 0.66599 0.00942 0.11635 0.0
H118 H 0.69265 1.00301 0.18323 0.0
H119 H 0.73763 0.04053 0.06251 0.0
C120 C 0.5697 0.74292 0.51186 0.0
C121 C 0.5864 0.73287 0.52054 0.0
C122 C 0.56492 0.70005 0.56826 0.0
C123 C 0.58403 0.71165 0.54835 0.0
C124 C 0.54837 0.71036 0.56121 0.0
C125 C 0.55072 0.73152 0.53351 0.0
U126 U 0.56397 0.77903 0.37322 0.0
O127 O 0.55302 0.80947 0.36059 0.0
O128 O 0.58349 0.80887 0.33075 0.0
C129 C 0.56933 0.82023 0.33229 0.0
C130 C 0.57201 0.76494 0.47934 0.0
C131 C 0.56588 0.83376 0.27877 0.0
C132 C 0.57426 0.8685 0.21893 0.0
C133 C 0.57847 0.85421 0.26568 0.0
C134 C 0.5451 0.84174 0.19628 0.0
C135 C 0.55724 0.86266 0.18444 0.0
C136 C 0.5494 0.8274 0.24301 0.0
C137 C 0.54234 0.74577 0.24732 0.0
C138 C 0.51425 0.73356 0.18495 0.0
C139 C 0.54815 0.73121 0.15931 0.0
C140 C 0.55558 0.74061 0.20822 0.0
C141 C 0.52729 0.72663 0.14862 0.0
C142 C 0.52168 0.74295 0.23396 0.0
C143 C 0.54932 0.74954 0.30607 0.0
O144 O 0.58572 0.76989 0.43811 0.0
O145 O 0.55516 0.77136 0.46434 0.0
O146 O 0.53789 0.75778 0.33838 0.0
O147 O 0.56877 0.75669 0.31301 0.0
H148 H 0.60126 0.74128 0.50494 0.0
H149 H 0.59708 0.70415 0.55298 0.0
H150 H 0.53353 0.70204 0.57715 0.0
H151 H 0.53755 0.73881 0.52853 0.0
H152 H 0.58415 0.8843 0.21039 0.0
H153 H 0.5913 0.85939 0.29263 0.0
H154 H 0.53182 0.83675 0.17088 0.0
H155 H 0.53949 0.81163 0.25227 0.0
H156 H 0.49812 0.73052 0.17738 0.0
H157 H 0.55861 0.7259 0.1326 0.0
H158 H 0.57155 0.74232 0.21746 0.0
H159 H 0.51103 0.74663 0.26328 0.0
C160 C 0.2685 0.542 0.34055 0.0
C161 C 0.25503 0.55558 0.32209 0.0
C162 C 0.24051 0.53135 0.25272 0.0
C163 C 0.24127 0.55038 0.2783 0.0
C164 C 0.25453 0.51825 0.26963 0.0
C165 C 0.26846 0.52358 0.31304 0.0
U166 U 0.27085 0.55452 0.49307 0.0
O167 O 0.28181 0.53795 0.57144 0.0
O168 O 0.29449 0.57242 0.54486 0.0
C169 C 0.29558 0.55503 0.58068 0.0
C170 C 0.28056 0.54514 0.39304 0.0
C171 C 0.31596 0.55094 0.59183 0.0
C172 C 0.34512 0.53772 0.56379 0.0
C173 C 0.32607 0.54242 0.55133 0.0
C174 C 0.34421 0.55039 0.65687 0.0
C175 C 0.35435 0.54154 0.61687 0.0
C176 C 0.32516 0.55502 0.64442 0.0
C177 C 0.2216 0.56459 0.55357 0.0
C178 C 0.20376 0.55117 0.64405 0.0
C179 C 0.19619 0.58274 0.58551 0.0
C180 C 0.21075 0.58135 0.54527 0.0
C181 C 0.19214 0.5672 0.63416 0.0
C182 C 0.21848 0.54996 0.60435 0.0
C183 C 0.23433 0.56121 0.50647 0.0
O184 O 0.28484 0.56497 0.40737 0.0
O185 O 0.27444 0.53031 0.43681 0.0
O186 O 0.23859 0.54182 0.50918 0.0
O187 O 0.24973 0.57699 0.48988 0.0
H188 H 0.25449 0.5697 0.34316 0.0
H189 H 0.23048 0.56063 0.26667 0.0
H190 H 0.25434 0.50356 0.2504 0.0
H191 H 0.2786 0.5128 0.32692 0.0
H192 H 0.35266 0.53116 0.53185 0.0
H193 H 0.31915 0.53922 0.5104 0.0
H194 H 0.3508 0.55328 0.69836 0.0
H195 H 0.31749 0.56153 0.6762 0.0
H196 H 0.20089 0.53907 0.68147 0.0
H197 H 0.18727 0.59513 0.5769 0.0
H198 H 0.21289 0.59277 0.5064 0.0
H199 H 0.22674 0.53698 0.61226 0.0
C200 C 0.08424 0.25872 0.31401 0.0
C201 C 0.06856 0.24077 0.32974 0.0
C202 C 0.08117 0.22054 0.26154 0.0
C203 C 0.06709 0.22178 0.30384 0.0
C204 C 0.09715 0.23837 0.24734 0.0
C205 C 0.09866 0.25725 0.27337 0.0
U206 U 0.07425 0.29549 0.42575 0.0
O207 O 0.09415 0.3254 0.44789 0.0
O208 O 0.06497 0.32679 0.40669 0.0
C209 C 0.08063 0.33722 0.43291 0.0
C210 C 0.08523 0.27964 0.33593 0.0
C211 C 0.07582 0.35008 0.4768 0.0
C212 C 0.08247 0.38354 0.52037 0.0
C213 C 0.08726 0.37096 0.47979 0.0
C214 C 0.05484 0.35433 0.55591 0.0
C215 C 0.06605 0.37545 0.55838 0.0
C216 C 0.05976 0.3417 0.51568 0.0
C217 C 0.04977 0.2458 0.53169 0.0
C218 C 0.03289 0.21728 0.60341 0.0
C219 C 0.05138 0.20833 0.52529 0.0
C220 C 0.0564 0.2303 0.50335 0.0
C221 C 0.03978 0.2016 0.57607 0.0
C222 C 0.03782 0.23915 0.58131 0.0
C223 C 0.05611 0.26908 0.51287 0.0
O224 O 0.06794 0.28581 0.33958 0.0
O225 O 0.09712 0.28353 0.38003 0.0
O226 O 0.07573 0.27654 0.50999 0.0
O227 O 0.04628 0.27706 0.46928 0.0
H228 H 0.0572 0.24165 0.3608 0.0
H229 H 0.05455 0.20836 0.31544 0.0
H230 H 0.10841 0.23779 0.21561 0.0
H231 H 0.11086 0.27093 0.26071 0.0
H232 H 0.09124 0.39983 0.52094 0.0
H233 H 0.09976 0.37764 0.45027 0.0
H234 H 0.04225 0.34762 0.58503 0.0
H235 H 0.05089 0.32547 0.51449 0.0
H236 H 0.02424 0.21276 0.64305 0.0
H237 H 0.05674 0.19665 0.50285 0.0
H238 H 0.06577 0.23524 0.46513 0.0
H239 H 0.03273 0.25097 0.6039 0.0
C240 C 0.2722 0.01348 0.30487 0.0
C241 C 0.27745 0.99589 0.28194 0.0
C242 C 0.30382 0.02036 0.22261 0.0
C243 C 0.29301 0.9993 0.2413 0.0
C244 C 0.29768 0.03804 0.24261 0.0
C245 C 0.28202 0.03463 0.28319 0.0
U246 U 0.26666 0.99333 0.4604 0.0
O247 O 0.25702 0.00629 0.53599 0.0
O248 O 0.24249 0.97363 0.51709 0.0
C249 C 0.24278 0.989 0.55013 0.0
C250 C 0.25898 0.00986 0.35667 0.0
C251 C 0.22305 0.99272 0.56805 0.0
C252 C 0.18652 0.98817 0.55888 0.0
C253 C 0.20527 0.9867 0.53685 0.0
C254 C 0.20313 1.0023 0.64254 0.0
C255 C 0.18518 0.99562 0.61257 0.0
C256 C 0.22181 1.00083 0.62056 0.0
C257 C 0.3158 0.97351 0.51115 0.0
C258 C 0.32947 0.96896 0.60739 0.0
C259 C 0.34837 0.96346 0.52555 0.0
C260 C 0.3328 0.96781 0.48914 0.0
C261 C 0.34711 0.96462 0.5847 0.0
C262 C 0.31389 0.97353 0.57066 0.0
C263 C 0.30184 0.98189 0.47004 0.0
O264 O 0.25166 0.9895 0.37701 0.0
O265 O 0.26591 0.02192 0.39727 0.0
O266 O 0.29929 1.00156 0.47471 0.0
O267 O 0.2851 0.96847 0.45879 0.0
H268 H 0.27021 0.97935 0.29723 0.0
H269 H 0.29701 0.98534 0.22581 0.0
H270 H 0.30567 0.05448 0.22932 0.0
H271 H 0.27834 0.04851 0.29996 0.0
H272 H 0.173 0.98276 0.5348 0.0
H273 H 0.20578 0.98034 0.49626 0.0
H274 H 0.20274 0.00848 0.68344 0.0
H275 H 0.23531 1.00554 0.64542 0.0
H276 H 0.32828 0.97009 0.65287 0.0
H277 H 0.3618 0.96007 0.50719 0.0
H278 H 0.33452 0.96778 0.44327 0.0
H279 H 0.30086 0.97802 0.58823 0.0
C280 C 0.46416 0.26072 0.09694 0.0
C281 C 0.44763 0.2711 0.09612 0.0
C282 C 0.46719 0.30334 0.04028 0.0
C283 C 0.44913 0.29218 0.06801 0.0
C284 C 0.48348 0.29274 0.0397 0.0
C285 C 0.48194 0.27167 0.06735 0.0
U286 U 0.46926 0.22452 0.23646 0.0
O287 O 0.45233 0.19228 0.27201 0.0
O288 O 0.48457 0.19694 0.25065 0.0
C289 C 0.46846 0.18362 0.27379 0.0
C290 C 0.46322 0.23881 0.12895 0.0
C291 C 0.47192 0.17028 0.32755 0.0
C292 C 0.48185 0.13773 0.3739 0.0
C293 C 0.4782 0.1508 0.32408 0.0
C294 C 0.47298 0.16348 0.4319 0.0
C295 C 0.47919 0.14378 0.42854 0.0
C296 C 0.46942 0.17666 0.38175 0.0
C297 C 0.48306 0.25634 0.36913 0.0
C298 C 0.5088 0.26387 0.44186 0.0
C299 C 0.47593 0.2724 0.4533 0.0
C300 C 0.46961 0.26404 0.40216 0.0
C301 C 0.4959 0.27337 0.47221 0.0
C302 C 0.50246 0.25545 0.39069 0.0
C303 C 0.47793 0.2534 0.30871 0.0
O304 O 0.4806 0.23469 0.14807 0.0
O305 O 0.44843 0.23163 0.16658 0.0
O306 O 0.45932 0.24377 0.29811 0.0
O307 O 0.4916 0.24817 0.27704 0.0
H308 H 0.43361 0.26308 0.11786 0.0
H309 H 0.43633 0.29996 0.0692 0.0
H310 H 0.49746 0.30077 0.01774 0.0
H311 H 0.49484 0.26404 0.06616 0.0
H312 H 0.48707 0.12298 0.36948 0.0
H313 H 0.4804 0.14572 0.28261 0.0
H314 H 0.47069 0.1686 0.47321 0.0
H315 H 0.46471 0.19176 0.38526 0.0
H316 H 0.5242 0.26417 0.45581 0.0
H317 H 0.46566 0.27977 0.47529 0.0
H318 H 0.45465 0.2651 0.38636 0.0
H319 H 0.5132 0.24958 0.36634 0.0
Nd320 Nd 0.00795 0.99685 0.79138 0.0
Nd321 Nd 0.03432 0.01535 0.88293 0.0
C322 C 0.98052 0.98308 0.71523 0.0
C323 C 0.9758 0.9642 0.68337 0.0
C324 C 0.96291 0.96445 0.63595 0.0
C325 C 0.95924 0.94708 0.60331 0.0
C326 C 0.96843 0.92916 0.61764 0.0
C327 C 0.9812 0.92892 0.6657 0.0
C328 C 0.98489 0.94632 0.69821 0.0
C329 C 0.04753 0.9928 0.77992 0.0
C330 C 0.02005 0.96431 0.89483 0.0
C331 C 0.06229 0.03595 0.94873 0.0
C332 C 0.06496 0.05537 0.97861 0.0
C333 C 0.07746 0.0569 0.02684 0.0
C334 C 0.07927 0.07464 0.05783 0.0
C335 C 0.06858 0.09121 0.04107 0.0
C336 C 0.05619 0.08967 0.99219 0.0
C337 C 0.05434 0.07186 0.9614 0.0
C338 C 0.99382 0.00621 0.9116 0.0
C339 C 0.02071 0.04967 0.78289 0.0
O340 O 0.9773 0.97933 0.77084 0.0
O341 O 0.99764 0.99645 0.70133 0.0
O342 O 0.03201 0.97796 0.77041 0.0
O343 O 0.04191 0.00921 0.79391 0.0
O344 O 0.00458 0.96857 0.86373 0.0
O345 O 0.0364 0.97952 0.89811 0.0
O346 O 0.06294 0.03903 0.89261 0.0
O347 O 0.04785 0.0199 0.96855 0.0
O348 O 0.00804 1.00278 0.94699 0.0
O349 O 1.00112 0.01489 0.86313 0.0
O350 O 0.02921 0.04725 0.83369 0.0
O351 O 0.01188 0.03287 0.75738 0.0
H352 H 0.95585 0.9782 0.62383 0.0
H353 H 0.94917 0.94763 0.56696 0.0
H354 H 0.9887 0.91549 0.67743 0.0
H355 H 0.99505 0.94598 0.73444 0.0
H356 H 0.0856 0.04419 0.04108 0.0
H357 H 0.0887 0.07512 0.09566 0.0
H358 H 0.04796 0.10226 0.9776 0.0
H359 H 0.04447 0.07088 0.92451 0.0
Nd360 Nd 0.52628 0.9965 0.77779 0.0
Nd361 Nd 0.5086 0.01934 0.8646 0.0
C362 C 0.54106 0.97113 0.71568 0.0
C363 C 0.56133 0.97141 0.69326 0.0
C364 C 0.56363 0.95873 0.65 0.0
C365 C 0.58273 0.95984 0.62635 0.0
C366 C 0.5999 0.9737 0.64552 0.0
C367 C 0.59752 0.98614 0.68964 0.0
C368 C 0.57842 0.98503 0.71317 0.0
C369 C 0.52099 0.03738 0.73607 0.0
C370 C 0.55782 0.02945 0.84558 0.0
C371 C 0.4937 0.04417 0.92816 0.0
C372 C 0.47353 0.04318 0.95241 0.0
C373 C 0.46882 0.06149 0.97228 0.0
C374 C 0.44982 0.06043 0.99661 0.0
C375 C 0.43517 0.04097 1.00167 0.0
C376 C 0.43995 0.02273 0.98079 0.0
C377 C 0.45889 0.02386 0.95625 0.0
C378 C 0.51422 0.97845 0.90523 0.0
C379 C 0.47701 0.98672 0.79597 0.0
O380 O 0.53872 0.96714 0.77154 0.0
O381 O 0.53255 0.98693 0.69319 0.0
O382 O 0.53657 0.02964 0.72438 0.0
O383 O 0.50866 0.02344 0.76794 0.0
O384 O 0.55542 0.01249 0.81725 0.0
O385 O 0.54226 0.03673 0.86311 0.0
O386 O 0.49537 0.04818 0.87217 0.0
O387 O 0.50296 0.02883 0.9496 0.0
O388 O 0.49838 0.98576 0.91698 0.0
O389 O 0.52642 0.99272 0.87412 0.0
O390 O 0.47948 1.00383 0.82382 0.0
O391 O 0.4926 0.97916 0.77988 0.0
H392 H 0.55062 0.94814 0.63406 0.0
H393 H 0.58406 0.94985 0.59295 0.0
H394 H 0.61033 0.99719 0.70496 0.0
H395 H 0.57694 0.99505 0.74631 0.0
H396 H 0.47987 0.07659 0.96925 0.0
H397 H 0.44659 0.07488 0.01129 0.0
H398 H 0.42923 0.0074 0.98455 0.0
H399 H 0.46222 0.00954 0.94089 0.0
Nd400 Nd 0.50197 0.50916 0.84741 0.0
Nd401 Nd 0.5254 0.49359 0.75638 0.0
C402 C 0.48021 0.5312 0.89966 0.0
C403 C 0.48448 0.55367 0.91299 0.0
C404 C 0.46879 0.56336 0.92789 0.0
C405 C 0.47307 0.58465 0.94171 0.0
C406 C 0.49312 0.59645 0.94092 0.0
C407 C 0.5087 0.58682 0.92429 0.0
C408 C 0.50441 0.56563 0.91035 0.0
C409 C 0.53889 0.50128 0.88241 0.0
C410 C 0.5322 0.54486 0.75418 0.0
C411 C 0.54663 0.47119 0.70372 0.0
C412 C 0.54171 0.44862 0.69121 0.0
C413 C 0.55709 0.43752 0.68261 0.0
C414 C 0.55222 0.41593 0.67133 0.0
C415 C 0.53191 0.40525 0.66831 0.0
C416 C 0.51658 0.41631 0.67842 0.0
C417 C 0.52144 0.43777 0.69003 0.0
C418 C 0.48844 0.50156 0.72201 0.0
C419 C 0.49546 0.45787 0.85027 0.0
O420 O 0.47841 0.52894 0.845 0.0
O421 O 0.49114 0.51849 0.92723 0.0
O422 O 0.52329 0.49762 0.91635 0.0
O423 O 0.53513 0.51033 0.83366 0.0
O424 O 0.51644 0.54052 0.78944 0.0
O425 O 0.5408 0.52936 0.73991 0.0
O426 O 0.54874 0.47357 0.75822 0.0
O427 O 0.53594 0.4842 0.67624 0.0
O428 O 0.50406 0.50566 0.68808 0.0
O429 O 0.49231 0.49228 0.77032 0.0
O430 O 0.51106 0.46222 0.81447 0.0
O431 O 0.48687 0.47333 0.86482 0.0
H432 H 0.45331 0.55439 0.92963 0.0
H433 H 0.4608 0.59163 0.95478 0.0
H434 H 0.52424 0.59563 0.92259 0.0
H435 H 0.51669 0.55847 0.89816 0.0
H436 H 0.57281 0.44559 0.6842 0.0
H437 H 0.5643 0.40778 0.66334 0.0
H438 H 0.50082 0.40836 0.67702 0.0
H439 H 0.50936 0.44595 0.6978 0.0
Nd440 Nd 0.01352 0.52191 0.81247 0.0
Nd441 Nd 0.03009 0.49293 0.90313 0.0
C442 C 0.99121 0.54476 0.7472 0.0
C443 C 0.97467 0.53786 0.70796 0.0
C444 C 0.96385 0.55275 0.68045 0.0
C445 C 0.94864 0.5461 0.64136 0.0
C446 C 0.94417 0.52448 0.62909 0.0
C447 C 0.95492 0.50957 0.6575 0.0
C448 C 0.96999 0.5162 0.69672 0.0
C449 C 0.02699 0.48877 0.77083 0.0
C450 C 0.98265 0.48095 0.88714 0.0
C451 C 0.0536 0.46955 0.96127 0.0
C452 C 0.07379 0.47582 0.98591 0.0
C453 C 0.08645 0.46082 0.99568 0.0
C454 C 0.10569 0.46695 0.01899 0.0
C455 C 0.11242 0.48813 0.03316 0.0
C456 C 0.0998 0.50318 0.02228 0.0
C457 C 0.08071 0.49712 0.99854 0.0
C458 C 0.01605 0.52556 0.94507 0.0
C459 C 0.06033 0.53586 0.83428 0.0
O460 O 0.98745 0.53832 0.8018 0.0
O461 O 0.0089 0.54218 0.73146 0.0
O462 O 0.02908 0.50817 0.74408 0.0
O463 O 0.01697 0.48683 0.81665 0.0
O464 O 0.98518 0.50027 0.85681 0.0
O465 O 0.99817 0.47224 0.90443 0.0
O466 O 0.05282 0.4721 0.90513 0.0
O467 O 0.03909 0.47628 0.98511 0.0
O468 O 0.01439 0.5062 0.97229 0.0
O469 O 0.02622 0.52779 0.89937 0.0
O470 O 0.05838 0.5161 0.86176 0.0
O471 O 0.0444 0.54399 0.8182 0.0
H472 H 0.96731 0.56953 0.68869 0.0
H473 H 0.94068 0.55796 0.61982 0.0
H474 H 0.95161 0.49277 0.64954 0.0
H475 H 0.97817 0.50446 0.71792 0.0
H476 H 0.08142 0.44438 0.98558 0.0
H477 H 0.11512 0.45504 0.02715 0.0
H478 H 0.10474 0.51968 0.03205 0.0
H479 H 0.07129 0.50906 0.99029 0.0
C480 C 0.16143 0.98872 0.69717 0.0
C481 C 0.16518 0.99568 0.63839 0.0
C482 C 0.14264 0.98836 0.72226 0.0
C483 C 0.12711 0.9951 0.68785 0.0
C484 C 0.13079 1.00223 0.62857 0.0
C485 C 0.14974 1.00241 0.60456 0.0
C486 C 0.13933 0.98053 0.78552 0.0
C487 C 0.11466 0.00962 0.59042 0.0
C488 C 0.07241 0.97494 0.73719 0.0
C489 C 0.06821 0.99302 0.7597 0.0
C490 C 0.09154 0.97534 0.71419 0.0
C491 C 0.10689 0.99428 0.71365 0.0
C492 C 0.10283 0.01244 0.73737 0.0
C493 C 0.08355 0.01158 0.7602 0.0
C494 C 0.09525 0.95559 0.68968 0.0
C495 C 0.11877 0.03291 0.73782 0.0
H496 H 0.17312 0.98314 0.72353 0.0
H497 H 0.15255 0.00803 0.5593 0.0
H498 H 0.13471 0.99322 0.80772 0.0
H499 H 0.12689 0.96601 0.79143 0.0
H500 H 0.15308 0.97631 0.80663 0.0
H501 H 0.11998 0.01498 0.54539 0.0
H502 H 0.10124 0.99621 0.59033 0.0
H503 H 0.10968 0.02324 0.60743 0.0
H504 H 0.06062 0.96053 0.73682 0.0
H505 H 0.08038 0.02559 0.77761 0.0
H506 H 0.10829 0.94997 0.71136 0.0
H507 H 0.09912 0.95979 0.64332 0.0
H508 H 0.08189 0.94198 0.69453 0.0
H509 H 0.13239 0.02919 0.76066 0.0
H510 H 0.11336 0.04544 0.75889 0.0
H511 H 0.12345 0.03977 0.6931 0.0
C512 C 0.49335 0.1385 0.52831 0.0
C513 C 0.48324 0.1296 0.48127 0.0
C514 C 0.4988 0.1251 0.57588 0.0
C515 C 0.49424 0.1023 0.5761 0.0
C516 C 0.48334 0.09322 0.52984 0.0
C517 C 0.47785 0.10695 0.48334 0.0
C518 C 0.5101 0.13537 0.62486 0.0
C519 C 0.47816 0.06899 0.52827 0.0
C520 C 0.52767 0.067 0.65414 0.0
C521 C 0.51526 0.05604 0.70023 0.0
C522 C 0.52132 0.08273 0.61472 0.0
C523 C 0.50218 0.08787 0.62203 0.0
C524 C 0.49008 0.07776 0.67044 0.0
C525 C 0.49671 0.06183 0.70883 0.0
C526 C 0.53464 0.09299 0.56351 0.0
C527 C 0.46976 0.08306 0.68035 0.0
H528 H 0.49768 0.15595 0.52713 0.0
H529 H 0.46958 0.09989 0.44796 0.0
H530 H 0.50313 0.12747 0.66664 0.0
H531 H 0.52591 0.13302 0.62505 0.0
H532 H 0.51037 0.15304 0.62149 0.0
H533 H 0.46887 0.06449 0.4904 0.0
H534 H 0.49227 0.06269 0.52688 0.0
H535 H 0.4698 0.06077 0.56781 0.0
H536 H 0.54207 0.06265 0.64742 0.0
H537 H 0.48711 0.05347 0.74462 0.0
H538 H 0.53708 0.11091 0.56007 0.0
H539 H 0.52706 0.088 0.52351 0.0
H540 H 0.54958 0.08824 0.56597 0.0
H541 H 0.47091 0.10088 0.67551 0.0
H542 H 0.4635 0.07607 0.72367 0.0
H543 H 0.45894 0.07649 0.64766 0.0
C544 C 0.38913 0.55002 0.65828 0.0
C545 C 0.37428 0.53589 0.63112 0.0
C546 C 0.40783 0.54464 0.67319 0.0
C547 C 0.41176 0.52463 0.66069 0.0
C548 C 0.39686 0.51033 0.63308 0.0
C549 C 0.37831 0.51615 0.61859 0.0
C550 C 0.42339 0.56034 0.70234 0.0
C551 C 0.40047 0.48881 0.61929 0.0
C552 C 0.4663 0.51857 0.65232 0.0
C553 C 0.46879 0.50719 0.70622 0.0
C554 C 0.44782 0.52438 0.63695 0.0
C555 C 0.43146 0.51863 0.67648 0.0
C556 C 0.4339 0.50711 0.73101 0.0
C557 C 0.45257 0.50151 0.74523 0.0
C558 C 0.4458 0.53672 0.57848 0.0
C559 C 0.41682 0.50072 0.77434 0.0
H560 H 0.38619 0.56541 0.66748 0.0
H561 H 0.36679 0.50503 0.59835 0.0
H562 H 0.42737 0.55244 0.74467 0.0
H563 H 0.43744 0.56512 0.6761 0.0
H564 H 0.41797 0.57524 0.70907 0.0
H565 H 0.38739 0.47961 0.59736 0.0
H566 H 0.41401 0.49141 0.59126 0.0
H567 H 0.4035 0.47876 0.65942 0.0
H568 H 0.47886 0.52304 0.62216 0.0
H569 H 0.45447 0.49271 0.78699 0.0
H570 H 0.44161 0.55241 0.58331 0.0
H571 H 0.43352 0.52739 0.55415 0.0
H572 H 0.45998 0.54 0.5528 0.0
H573 H 0.41185 0.5154 0.78483 0.0
H574 H 0.42119 0.49178 0.81481 0.0
H575 H 0.40365 0.49036 0.75582 0.0
C576 C 0.07465 0.40179 0.63075 0.0
C577 C 0.06007 0.38943 0.59842 0.0
C578 C 0.06936 0.41643 0.66502 0.0
C579 C 0.04906 0.41897 0.66625 0.0
C580 C 0.03416 0.40595 0.63531 0.0
C581 C 0.03984 0.39126 0.60198 0.0
C582 C 0.08562 0.42981 0.69803 0.0
C583 C 0.0124 0.40837 0.63489 0.0
C584 C 0.03122 0.45023 0.77699 0.0
C585 C 0.03282 0.47078 0.74549 0.0
C586 C 0.03678 0.43319 0.75222 0.0
C587 C 0.04379 0.43683 0.69453 0.0
C588 C 0.04544 0.4576 0.6628 0.0
C589 C 0.04009 0.47433 0.68882 0.0
C590 C 0.03512 0.41134 0.78758 0.0
C591 C 0.05266 0.46212 0.60101 0.0
H592 H 0.09027 0.40019 0.62865 0.0
H593 H 0.02855 0.38187 0.57666 0.0
H594 H 0.08831 0.44702 0.67864 0.0
H595 H 0.08075 0.42922 0.74322 0.0
H596 H 0.10012 0.42416 0.69787 0.0
H597 H 1.0024 0.39578 0.61275 0.0
H598 H 0.00674 0.40738 0.67944 0.0
H599 H 0.01131 0.42457 0.61261 0.0
H600 H 0.02571 0.44751 0.82096 0.0
H601 H 0.04137 0.49022 0.66434 0.0
H602 H 0.04993 0.40636 0.78863 0.0
H603 H 0.02418 0.39892 0.76752 0.0
H604 H 0.03014 0.4114 0.83244 0.0
H605 H 0.06807 0.45884 0.59801 0.0
H606 H 0.05298 0.47915 0.58232 0.0
H607 H 0.04261 0.45116 0.57448 0.0
C608 C 0.8778 0.99072 0.01195 0.0
C609 C 0.87527 0.00917 0.03608 0.0
C610 C 0.89661 0.98931 0.98979 0.0
C611 C 0.91335 0.00675 0.99185 0.0
C612 C 0.91092 0.02537 0.0163 0.0
C613 C 0.89195 0.02635 0.03806 0.0
C614 C 0.89857 0.96919 0.96402 0.0
C615 C 0.92839 0.04426 0.01974 0.0
C616 C 0.96684 0.99679 0.98704 0.0
C617 C 0.9728 1.00512 0.93034 0.0
C618 C 0.94743 0.99681 0.0072 0.0
C619 C 0.93357 1.00538 0.96975 0.0
C620 C 0.93933 0.01331 0.91195 0.0
C621 C 0.95889 0.01307 0.89289 0.0
C622 C 0.94191 0.98811 0.06901 0.0
C623 C 0.92498 0.02252 0.87062 0.0
H624 H 0.86495 0.97749 0.00944 0.0
H625 H 0.89021 0.04056 0.05721 0.0
H626 H 0.90373 0.97359 0.91866 0.0
H627 H 0.91013 0.96146 0.98755 0.0
H628 H 0.88409 0.95711 0.96532 0.0
H629 H 0.92395 0.05769 0.03924 0.0
H630 H 0.9407 0.03879 0.04574 0.0
H631 H 0.93464 0.05063 0.97611 0.0
H632 H 0.97751 0.99051 0.0161 0.0
H633 H 0.96341 0.01947 0.84896 0.0
H634 H 0.92795 0.97531 0.07105 0.0
H635 H 0.93875 1.00129 0.09213 0.0
H636 H 0.95411 0.98121 0.09191 0.0
H637 H 0.9106 0.01052 0.86881 0.0
H638 H 0.93141 0.0271 0.82648 0.0
H639 H 0.9213 0.03711 0.88598 0.0
C640 C 0.55311 0.9004 0.1488 0.0
C641 C 0.55157 0.87879 0.13863 0.0
C642 C 0.54722 0.91576 0.10725 0.0
C643 C 0.53945 0.90941 0.05413 0.0
C644 C 0.53802 0.8877 0.04321 0.0
C645 C 0.54409 0.87265 0.0856 0.0
C646 C 0.54898 0.93874 0.12068 0.0
C647 C 0.52988 0.88035 0.98701 0.0
C648 C 0.50627 0.9454 0.97729 0.0
C649 C 0.51996 0.95926 0.93835 0.0
C650 C 0.51219 0.9285 0.0136 0.0
C651 C 0.53232 0.92547 0.01101 0.0
C652 C 0.54598 0.9389 0.97009 0.0
C653 C 0.53961 0.9556 0.93408 0.0
C654 C 0.49714 0.91447 0.0564 0.0
C655 C 0.56758 0.93628 0.96606 0.0
H656 H 0.55851 0.90524 0.18997 0.0
H657 H 0.54304 0.85606 0.07713 0.0
H658 H 0.55824 0.95028 0.08723 0.0
H659 H 0.53379 0.94281 0.12028 0.0
H660 H 0.55593 0.94122 0.16326 0.0
H661 H 0.53021 0.86306 0.98459 0.0
H662 H 0.51406 0.88254 0.98143 0.0
H663 H 0.53883 0.89046 0.95059 0.0
H664 H 0.49104 0.94811 0.98048 0.0
H665 H 0.55024 0.96627 0.90391 0.0
H666 H 0.502 0.91739 0.10069 0.0
H667 H 0.49651 0.89706 0.05311 0.0
H668 H 0.48171 0.9178 0.04993 0.0
H669 H 0.57573 0.94063 0.00581 0.0
H670 H 0.57574 0.94671 0.92867 0.0
H671 H 0.56809 0.91914 0.96254 0.0
C672 C 0.64946 0.49426 0.99178 0.0
C673 C 0.65296 0.47308 0.99817 0.0
C674 C 0.63128 0.49881 0.96898 0.0
C675 C 0.61635 0.48182 0.95134 0.0
C676 C 0.62016 0.46056 0.9553 0.0
C677 C 0.63837 0.45638 0.97933 0.0
C678 C 0.62767 0.52162 0.9664 0.0
C679 C 0.60477 0.44213 0.93577 0.0
C680 C 0.56193 0.48841 0.9567 0.0
C681 C 0.55864 0.49616 0.89949 0.0
C682 C 0.58061 0.48354 0.97398 0.0
C683 C 0.59624 0.48609 0.93275 0.0
C684 C 0.59286 0.49354 0.87463 0.0
C685 C 0.57416 0.49878 0.85883 0.0
C686 C 0.58373 0.47601 0.03657 0.0
C687 C 0.60902 0.49608 0.82928 0.0
H688 H 0.6606 0.50713 0.00711 0.0
H689 H 0.64112 0.44002 0.98404 0.0
H690 H 0.6233 0.52745 0.92235 0.0
H691 H 0.61498 0.52176 0.99557 0.0
H692 H 0.64121 0.53319 0.97911 0.0
H693 H 0.61084 0.42711 0.93641 0.0
H694 H 0.59128 0.43853 0.96427 0.0
H695 H 0.59969 0.44676 0.89157 0.0
H696 H 0.54996 0.48639 0.98823 0.0
H697 H 0.57166 0.50485 0.81457 0.0
H698 H 0.59641 0.48742 0.05394 0.0
H699 H 0.5879 0.45987 0.04108 0.0
H700 H 0.57004 0.47485 0.06315 0.0
H701 H 0.62216 0.50876 0.83868 0.0
H702 H 0.60352 0.50063 0.78544 0.0
H703 H 0.61446 0.48072 0.82982 0.0
C704 C 0.96043 0.61057 0.06627 0.0
C705 C 0.97385 0.62422 0.09866 0.0
C706 C 0.96717 0.59553 0.03629 0.0
C707 C 0.98775 0.59398 0.03935 0.0
C708 C 1.00147 0.60815 0.07064 0.0
C709 C 0.99435 0.62315 0.09976 0.0
C710 C 0.95214 0.58085 1.00285 0.0
C711 C 0.02349 0.60683 0.07545 0.0
C712 C 1.00053 0.53958 0.02379 0.0
C713 C 0.00873 0.54313 0.96818 0.0
C714 C 0.99358 0.55599 0.04724 0.0
C715 C 0.99465 0.57639 0.01395 0.0
C716 C 1.00264 0.57998 0.95732 0.0
C717 C 0.0097 0.56329 0.93513 0.0
C718 C 0.98529 0.55154 0.10792 0.0
C719 C 0.00376 0.60144 0.92035 0.0
H720 H 0.94461 0.61155 0.06477 0.0
H721 H 0.00473 0.63351 0.12523 0.0
H722 H 0.9578 0.58134 0.9585 0.0
H723 H 0.95022 0.56385 0.02352 0.0
H724 H 0.93711 0.58541 1.0005 0.0
H725 H 0.03242 0.61994 0.09818 0.0
H726 H 0.02488 0.59096 0.09923 0.0
H727 H 0.03018 0.60783 0.03212 0.0
H728 H 0.9997 0.52396 0.04936 0.0
H729 H 0.0159 0.56599 0.8919 0.0
H730 H 0.9695 0.55394 0.10814 0.0
H731 H 0.99428 0.56316 0.13489 0.0
H732 H 0.98552 0.53479 0.12801 0.0
H733 H 0.98854 0.60543 0.91638 0.0
H734 H 0.00975 0.60137 0.87659 0.0
H735 H 0.01363 0.61454 0.94092 0.0
C736 C 0.05093 0.16647 0.60443 0.0
C737 C 0.03569 0.17857 0.6024 0.0
C738 C 0.04778 0.14525 0.63281 0.0
C739 C 0.02899 0.13595 0.66021 0.0
C740 C 0.01341 0.14788 0.65745 0.0
C741 C 0.01691 0.16901 0.62833 0.0
C742 C 0.06471 0.13294 0.63449 0.0
C743 C 0.99318 0.13849 0.68615 0.0
C744 C 0.01589 0.07468 0.69491 0.0
C745 C 0.02161 0.07178 0.75275 0.0
C746 C 0.01798 0.09549 0.66444 0.0
C747 C 0.0258 0.11385 0.69261 0.0
C748 C 0.03112 0.11108 0.75137 0.0
C749 C 0.02903 0.09007 0.78069 0.0
C750 C 0.01227 0.0978 0.60172 0.0
C751 C 0.03932 0.1303 0.78303 0.0
H752 H 0.06557 0.17382 0.58527 0.0
H753 H 0.00495 0.17812 0.62618 0.0
H754 H 0.06945 0.12932 0.67959 0.0
H755 H 0.05941 0.11718 0.61763 0.0
H756 H 0.07809 0.14213 0.60896 0.0
H757 H 0.98253 0.14975 0.67914 0.0
H758 H 0.98622 0.12307 0.66955 0.0
H759 H 0.99525 0.13467 0.73309 0.0
H760 H 0.01021 0.06066 0.67285 0.0
H761 H 0.03341 0.088 0.82541 0.0
H762 H 0.02582 0.10563 0.57515 0.0
H763 H 1.00111 0.10842 0.59416 0.0
H764 H 0.00577 0.08193 0.58667 0.0
H765 H 0.04198 0.12541 0.82924 0.0
H766 H 0.02865 0.14153 0.77966 0.0
H767 H 0.0538 0.13945 0.76306 0.0
C768 C 0.38329 0.97853 0.60403 0.0
C769 C 0.36521 0.96407 0.62073 0.0
C770 C 0.40064 0.97914 0.63768 0.0
C771 C 0.40001 0.96461 0.68893 0.0
C772 C 0.38187 0.94962 0.70553 0.0
C773 C 0.36452 0.94972 0.67148 0.0
C774 C 0.41953 0.99572 0.619 0.0
C775 C 0.38077 0.93366 0.75931 0.0
C776 C 0.45294 0.96163 0.7397 0.0
C777 C 0.45633 0.97752 0.77731 0.0
C778 C 0.43397 0.95578 0.71409 0.0
C779 C 0.41819 0.96625 0.72599 0.0
C780 C 0.42109 0.98101 0.76734 0.0
C781 C 0.44007 0.98634 0.79274 0.0
C782 C 0.43129 0.93959 0.67117 0.0
C783 C 0.40474 0.99265 0.78114 0.0
H784 H 0.3837 0.98981 0.5651 0.0
H785 H 0.3505 0.9385 0.68414 0.0
H786 H 0.4239 0.00669 0.6525 0.0
H787 H 0.43225 0.98752 0.61382 0.0
H788 H 0.4175 0.00574 0.5778 0.0
H789 H 0.36596 0.92214 0.76417 0.0
H790 H 0.39291 0.92429 0.75866 0.0
H791 H 0.38327 0.94248 0.79763 0.0
H792 H 0.46532 0.95452 0.72803 0.0
H793 H 0.44239 0.99838 0.82249 0.0
H794 H 0.43152 0.94828 0.62702 0.0
H795 H 0.41649 0.92816 0.67756 0.0
H796 H 0.44349 0.93015 0.67433 0.0
H797 H 0.40284 1.00472 0.74399 0.0
H798 H 0.40841 1.0013 0.81959 0.0
H799 H 0.39006 0.98113 0.78867 0.0
C800 C 0.49252 0.28815 0.56529 0.0
C801 C 0.504 0.28761 0.51647 0.0
C802 C 0.49792 0.30492 0.59997 0.0
C803 C 0.51501 0.32162 0.58487 0.0
C804 C 0.52755 0.32015 0.53847 0.0
C805 C 0.52192 0.30312 0.50497 0.0
C806 C 0.48444 0.30565 0.64995 0.0
C807 C 0.54585 0.33766 0.52066 0.0
C808 C 0.51283 0.3792 0.60606 0.0
C809 C 0.52662 0.38321 0.65065 0.0
C810 C 0.50851 0.35898 0.58559 0.0
C811 C 0.51802 0.34222 0.61087 0.0
C812 C 0.53138 0.34589 0.65747 0.0
C813 C 0.53571 0.36648 0.67647 0.0
C814 C 0.49433 0.35585 0.53536 0.0
C815 C 0.54144 0.32826 0.68623 0.0
H816 H 0.47878 0.27603 0.57476 0.0
H817 H 0.53077 0.30299 0.467 0.0
H818 H 0.49355 0.31062 0.68766 0.0
H819 H 0.47498 0.31784 0.63776 0.0
H820 H 0.47425 0.28971 0.6627 0.0
H821 H 0.55536 0.33278 0.48854 0.0
H822 H 0.54086 0.35257 0.50148 0.0
H823 H 0.55528 0.3418 0.55845 0.0
H824 H 0.50594 0.39219 0.58573 0.0
H825 H 0.54622 0.36954 0.7114 0.0
H826 H 0.48183 0.34169 0.54663 0.0
H827 H 0.50257 0.35245 0.49817 0.0
H828 H 0.48772 0.37031 0.52183 0.0
H829 H 0.53007 0.31306 0.69747 0.0
H830 H 0.54955 0.33291 0.72586 0.0
H831 H 0.55244 0.32473 0.65613 0.0
C832 C 0.1592 0.5469 0.67503 0.0
C833 C 0.17417 0.56587 0.6703 0.0
C834 C 0.1414 0.54533 0.70613 0.0
C835 C 0.1387 0.56302 0.73434 0.0
C836 C 0.15399 0.5821 0.73077 0.0
C837 C 0.1715 0.58343 0.6979 0.0
C838 C 0.12532 0.52483 0.70782 0.0
C839 C 0.15182 0.60102 0.76152 0.0
C840 C 0.08339 0.56054 0.76214 0.0
C841 C 0.0807 0.54766 0.81552 0.0
C842 C 0.10264 0.56724 0.73673 0.0
C843 C 0.11954 0.56131 0.76622 0.0
C844 C 0.1171 0.55029 0.82277 0.0
C845 C 0.09763 0.54331 0.84646 0.0
C846 C 0.10449 0.57865 0.67601 0.0
C847 C 0.13479 0.54422 0.85638 0.0
H848 H 0.16123 0.53345 0.65296 0.0
H849 H 0.18315 0.59808 0.69411 0.0
H850 H 0.12247 0.51715 0.75284 0.0
H851 H 0.11092 0.52876 0.69078 0.0
H852 H 0.12962 0.51282 0.6823 0.0
H853 H 0.1655 0.61424 0.75672 0.0
H854 H 0.13866 0.60768 0.74446 0.0
H855 H 0.14891 0.59554 0.80797 0.0
H856 H 0.07029 0.56383 0.73804 0.0
H857 H 0.09557 0.53352 0.8881 0.0
H858 H 0.10685 0.56708 0.64622 0.0
H859 H 0.11772 0.59235 0.67147 0.0
H860 H 0.09073 0.58491 0.66246 0.0
H861 H 0.13916 0.53028 0.83933 0.0
H862 H 0.13108 0.53952 0.9028 0.0
H863 H 0.14807 0.55788 0.85176 0.0
C864 C 1.00168 0.85472 0.11223 0.0
C865 C 0.00557 0.83726 0.08609 0.0
C866 C 0.00537 0.87583 0.08287 0.0
C867 C 0.01322 0.87957 0.02611 0.0
C868 C 0.01787 0.86218 1.00026 0.0
C869 C 0.01393 0.84124 0.03046 0.0
C870 C 1.00025 0.89399 0.11187 0.0
C871 C 0.02626 0.86553 0.93982 0.0
C872 C 1.00071 0.92688 0.9268 0.0
C873 C 0.01864 0.94253 0.92753 0.0
C874 C 0.99878 0.90638 0.95879 0.0
C875 C 0.01521 0.90133 0.99224 0.0
C876 C 0.03342 0.91697 0.99288 0.0
C877 C 0.03492 0.93742 0.96055 0.0
C878 C 0.9791 0.89013 0.95698 0.0
C879 C 0.05128 0.91209 0.0278 0.0
H880 H 0.99549 0.85183 0.15548 0.0
H881 H 0.01671 0.82783 0.00954 0.0
H882 H 0.01346 0.90768 0.11058 0.0
H883 H 0.98782 0.90023 0.08841 0.0
H884 H 0.99548 0.88867 0.15737 0.0
H885 H 0.03061 0.85072 0.92772 0.0
H886 H 0.01478 0.87013 0.90896 0.0
H887 H 0.0397 0.879 0.93522 0.0
H888 H 0.98804 0.93066 0.90149 0.0
H889 H 0.04884 0.94941 0.96133 0.0
H890 H 0.97263 0.88533 1.00096 0.0
H891 H 0.9818 0.87524 0.94097 0.0
H892 H 0.96776 0.89663 0.92892 0.0
H893 H 0.04696 0.90796 0.07387 0.0
H894 H 0.0644 0.92598 0.02353 0.0
H895 H 0.05603 0.89779 0.01393 0.0
C896 C 0.65323 0.01509 0.00371 0.0
C897 C 0.66964 0.03217 0.00979 0.0
C898 C 0.63628 0.01856 0.97171 0.0
C899 C 0.63578 0.03961 0.9442 0.0
C900 C 0.65265 0.05676 0.94788 0.0
C901 C 0.6694 0.05286 0.98091 0.0
C902 C 0.61866 0.99973 0.96861 0.0
C903 C 0.65277 0.07931 0.91833 0.0
C904 C 0.595 0.03586 0.83218 0.0
C905 C 0.57848 0.03827 0.86424 0.0
C906 C 0.61441 0.03847 0.85571 0.0
C907 C 0.61724 0.04332 0.91293 0.0
C908 C 0.601 0.04786 0.94337 0.0
C909 C 0.58175 0.04541 0.9184 0.0
C910 C 0.63138 0.03394 0.82126 0.0
C911 C 0.6034 0.05306 0.0045 0.0
H912 H 0.65352 0.99897 0.02489 0.0
H913 H 0.68199 0.06614 0.98568 0.0
H914 H 0.6049 1.0034 0.98685 0.0
H915 H 0.61543 0.99715 0.92316 0.0
H916 H 0.6215 0.98439 0.99239 0.0
H917 H 0.66779 0.09025 0.92035 0.0
H918 H 0.64842 0.07874 0.8726 0.0
H919 H 0.64145 0.08636 0.93903 0.0
H920 H 0.59254 0.03064 0.78984 0.0
H921 H 0.569 0.04725 0.94331 0.0
H922 H 0.634 0.0175 0.8367 0.0
H923 H 0.64563 0.04572 0.82691 0.0
H924 H 0.6278 0.03459 0.77471 0.0
H925 H 0.60442 0.0381 0.03346 0.0
H926 H 0.59045 0.05944 0.01881 0.0
H927 H 0.61753 0.06513 0.00927 0.0
C928 C 0.52884 0.7129 0.05303 0.0
C929 C 0.51912 0.71161 0.10608 0.0
C930 C 0.52364 0.69624 0.01791 0.0
C931 C 0.50851 0.67782 0.03665 0.0
C932 C 0.49771 0.67716 0.08819 0.0
C933 C 0.50313 0.69407 0.12219 0.0
C934 C 0.53525 0.69769 0.96273 0.0
C935 C 0.48153 0.65778 0.10992 0.0
C936 C 0.48673 0.63396 0.94301 0.0
C937 C 0.49796 0.61811 0.96128 0.0
C938 C 0.49057 0.65399 0.96512 0.0
C939 C 0.50575 0.65801 0.0071 0.0
C940 C 0.51744 0.64224 0.02453 0.0
C941 C 0.51346 0.62255 1.00122 0.0
C942 C 0.47806 0.67057 0.94481 0.0
C943 C 0.53364 0.64579 0.06961 0.0
H944 H 0.54105 0.72654 0.04003 0.0
H945 H 0.4957 0.69275 0.16343 0.0
H946 H 0.54592 0.68646 0.96859 0.0
H947 H 0.52487 0.69269 0.92744 0.0
H948 H 0.54405 0.71435 0.94959 0.0
H949 H 0.4731 0.66081 0.14726 0.0
H950 H 0.47063 0.65333 0.07537 0.0
H951 H 0.48859 0.64364 0.12325 0.0
H952 H 0.47488 0.63064 0.91165 0.0
H953 H 0.52202 0.61024 0.01592 0.0
H954 H 0.488 0.68664 0.93206 0.0
H955 H 0.46823 0.67243 0.98043 0.0
H956 H 0.46835 0.66591 0.90781 0.0
H957 H 0.54467 0.66112 0.05692 0.0
H958 H 0.54195 0.6323 0.07655 0.0
H959 H 0.52672 0.6473 0.11106 0.0
C960 C 0.86729 0.43877 0.99591 0.0
C961 C 0.86353 0.45599 0.0234 0.0
C962 C 0.8867 0.43884 0.9754 0.0
C963 C 0.90269 0.45657 0.98246 0.0
C964 C 0.89917 0.47348 0.01256 0.0
C965 C 0.87966 0.47297 0.03266 0.0
C966 C 0.88987 0.42049 0.94376 0.0
C967 C 0.91583 0.49265 0.02132 0.0
C968 C 0.95833 0.45736 0.95935 0.0
C969 C 0.96189 0.47043 0.90631 0.0
C970 C 0.93879 0.45149 0.98353 0.0
C971 C 0.92256 0.45879 0.95364 0.0
C972 C 0.92589 0.47049 0.89803 0.0
C973 C 0.94551 0.47621 0.87517 0.0
C974 C 0.93581 0.43885 0.04271 0.0
C975 C 0.90901 0.47837 0.86428 0.0
H976 H 0.85488 0.42565 0.98827 0.0
H977 H 0.87693 0.48611 0.05484 0.0
H978 H 0.89226 0.42639 0.89734 0.0
H979 H 0.90357 0.41461 0.95958 0.0
H980 H 0.87672 0.40664 0.94848 0.0
H981 H 0.91099 0.50359 0.04928 0.0
H982 H 0.92919 0.48702 0.04087 0.0
H983 H 0.92067 0.50214 0.97913 0.0
H984 H 0.97097 0.45293 0.98368 0.0
H985 H 0.94818 0.48612 0.83381 0.0
H986 H 0.92204 0.42581 0.04427 0.0
H987 H 0.93368 0.44986 0.07428 0.0
H988 H 0.94898 0.4315 0.05617 0.0
H989 H 0.91365 0.48522 0.81946 0.0
H990 H 0.90421 0.49114 0.88574 0.0
H991 H 0.89569 0.46493 0.863 0.0
C992 C 0.07427 0.18015 0.26034 0.0
C993 C 0.07888 0.20114 0.23052 0.0
C994 C 0.07236 0.1618 0.23113 0.0
C995 C 0.07496 0.16453 0.17065 0.0
C996 C 0.0794 0.18568 0.14031 0.0
C997 C 0.08133 0.2037 0.17059 0.0
C998 C 0.06774 0.13951 0.265 0.0
C999 C 0.0821 0.18929 0.07578 0.0
C1000 C 0.08885 0.11946 0.09686 0.0
C1001 C 0.07018 0.10987 0.07485 0.0
C1002 C 0.09055 0.13703 0.12887 0.0
C1003 C 0.0732 0.14532 0.13889 0.0
C1004 C 0.0543 0.13568 0.11704 0.0
C1005 C 0.053 0.11805 0.08544 0.0
C1006 C 0.11099 0.14687 0.15141 0.0
C1007 C 0.03545 0.14409 0.12669 0.0
H1008 H 0.07251 0.17809 0.30668 0.0
H1009 H 0.08456 0.21987 0.14718 0.0
H1010 H 0.05364 0.12981 0.24906 0.0
H1011 H 0.08007 0.13084 0.25882 0.0
H1012 H 0.06597 0.14014 0.31172 0.0
H1013 H 0.08533 0.20677 0.05859 0.0
H1014 H 0.09471 0.182 0.06336 0.0
H1015 H 0.06825 0.18112 0.05496 0.0
H1016 H 0.10224 0.11345 0.08831 0.0
H1017 H 0.03846 0.11053 0.06947 0.0
H1018 H 0.11018 0.14684 0.19863 0.0
H1019 H 0.11559 0.16402 0.13206 0.0
H1020 H 0.12285 0.13803 0.14172 0.0
H1021 H 0.03272 0.1435 0.17342 0.0
H1022 H 0.02187 0.13462 0.10747 0.0
H1023 H 0.03748 0.1613 0.10769 0.0
C1024 C 0.33607 0.00989 0.19716 0.0
C1025 C 0.3223 0.02369 0.18599 0.0
C1026 C 0.35399 0.01315 0.16504 0.0
C1027 C 0.35841 0.03072 0.1206 0.0
C1028 C 0.34454 0.04465 0.1087 0.0
C1029 C 0.32667 0.04098 0.14153 0.0
C1030 C 0.36836 0.99794 0.1793 0.0
C1031 C 0.3487 0.06355 0.06168 0.0
C1032 C 0.41394 0.04976 0.07903 0.0
C1033 C 0.41522 0.03945 0.02998 0.0
C1034 C 0.39545 0.0476 0.10785 0.0
C1035 C 0.37776 0.03465 0.08756 0.0
C1036 C 0.37883 0.02455 0.03748 0.0
C1037 C 0.39749 0.02713 0.00922 0.0
C1038 C 0.39498 0.0587 0.16099 0.0
C1039 C 0.36035 0.01059 0.01447 0.0
H1040 H 0.33309 0.99676 0.23211 0.0
H1041 H 0.31607 0.05163 0.13226 0.0
H1042 H 0.37126 0.99058 0.14057 0.0
H1043 H 0.38309 0.00711 0.19302 0.0
H1044 H 0.36246 0.98471 0.2141 0.0
H1045 H 0.33624 0.07264 0.05707 0.0
H1046 H 0.36287 0.07488 0.07093 0.0
H1047 H 0.35091 0.05774 0.02002 0.0
H1048 H 0.42752 0.05907 0.09601 0.0
H1049 H 0.39819 0.01941 0.97083 0.0
H1050 H 0.39094 0.04635 0.19901 0.0
H1051 H 0.38322 0.06867 0.15686 0.0
H1052 H 0.40973 0.0693 0.16908 0.0
H1053 H 0.35464 0.99637 0.04667 0.0
H1054 H 0.3635 1.00465 0.97366 0.0
H1055 H 0.3481 0.01984 0.00697 0.0
C1056 C 0.45421 0.33246 0.97704 0.0
C1057 C 0.46933 0.32613 0.01295 0.0
C1058 C 0.45655 0.35382 0.9495 0.0
C1059 C 0.47432 0.36923 0.95859 0.0
C1060 C 0.48941 0.36301 0.9958 0.0
C1061 C 0.48676 0.34155 0.02232 0.0
C1062 C 0.44022 0.35979 0.90971 0.0
C1063 C 0.50851 0.37897 0.0071 0.0
C1064 C 0.49347 0.41821 0.84934 0.0
C1065 C 0.48804 0.43503 0.8751 0.0
C1066 C 0.4883 0.3966 0.87477 0.0
C1067 C 0.47765 0.39167 0.92775 0.0
C1068 C 0.47151 0.40846 0.95303 0.0
C1069 C 0.47667 0.42995 0.92617 0.0
C1070 C 0.49491 0.37918 0.84589 0.0
C1071 C 0.46027 0.40387 0.0097 0.0
H1072 H 0.44077 0.32056 0.96937 0.0
H1073 H 0.49834 0.33682 0.05075 0.0
H1074 H 0.43505 0.37395 0.92301 0.0
H1075 H 0.44637 0.36459 0.86538 0.0
H1076 H 0.42698 0.34619 0.90897 0.0
H1077 H 0.51838 0.37178 0.03898 0.0
H1078 H 0.51717 0.38474 0.96646 0.0
H1079 H 0.5047 0.39337 0.02319 0.0
H1080 H 0.50209 0.42195 0.80955 0.0
H1081 H 0.47248 0.44287 0.94639 0.0
H1082 H 0.48191 0.36562 0.84169 0.0
H1083 H 0.50638 0.37245 0.87269 0.0
H1084 H 0.50152 0.38541 0.80251 0.0
H1085 H 0.44685 0.39057 0.00806 0.0
H1086 H 0.45525 0.41838 0.02147 0.0
H1087 H 0.47019 0.39841 0.04422 0.0
C1088 C 0.21236 0.50307 0.22188 0.0
C1089 C 0.22389 0.52425 0.21276 0.0
C1090 C 0.19507 0.49673 0.18917 0.0
C1091 C 0.18929 0.51187 0.14585 0.0
C1092 C 0.20141 0.53299 0.13465 0.0
C1093 C 0.21849 0.53898 0.16857 0.0
C1094 C 0.18243 0.47415 0.20295 0.0
C1095 C 0.19591 0.54949 0.08827 0.0
C1096 C 0.14982 0.49005 0.03845 0.0
C1097 C 0.13224 0.49439 0.06109 0.0
C1098 C 0.16861 0.49599 0.06492 0.0
C1099 C 0.16973 0.50616 0.11568 0.0
C1100 C 0.15198 0.5105 0.1387 0.0
C1101 C 0.13349 0.5047 0.1109 0.0
C1102 C 0.18726 0.49141 0.03868 0.0
C1103 C 0.15245 0.52103 0.19319 0.0
H1104 H 0.21632 0.49172 0.25649 0.0
H1105 H 0.22747 0.55532 0.16116 0.0
H1106 H 0.16751 0.47513 0.22013 0.0
H1107 H 0.17962 0.46608 0.16342 0.0
H1108 H 0.18972 0.46387 0.23515 0.0
H1109 H 0.20792 0.5644 0.08118 0.0
H1110 H 0.1931 0.54244 0.04716 0.0
H1111 H 0.18174 0.5541 0.10038 0.0
H1112 H 0.14888 0.48225 0.99963 0.0
H1113 H 0.11986 0.50785 0.12877 0.0
H1114 H 0.19408 0.48026 0.0695 0.0
H1115 H 0.19873 0.50666 0.02955 0.0
H1116 H 0.18393 0.48402 0.99814 0.0
H1117 H 0.15827 0.51093 0.22911 0.0
H1118 H 0.1373 0.52326 0.20543 0.0
H1119 H 0.16288 0.5371 0.18776 0.0
C1120 C 0.96925 0.83119 0.43444 0.0
C1121 C 0.94968 0.82108 0.41988 0.0
C1122 C 0.97252 0.84949 0.46404 0.0
C1123 C 0.9558 0.85787 0.47963 0.0
C1124 C 0.93607 0.84813 0.46366 0.0
C1125 C 0.93326 0.82989 0.4339 0.0
C1126 C 0.99379 0.85946 0.48018 0.0
C1127 C 0.91788 0.85665 0.47929 0.0
C1128 C 0.96159 0.88938 0.60851 0.0
C1129 C 0.96494 0.9109 0.58217 0.0
C1130 C 0.95854 0.87199 0.57561 0.0
C1131 C 0.95888 0.87621 0.51485 0.0
C1132 C 0.9622 0.89789 0.48795 0.0
C1133 C 0.96517 0.91497 0.52194 0.0
C1134 C 0.95494 0.84909 0.6059 0.0
C1135 C 0.96277 0.90302 0.42329 0.0
H1136 H 0.98201 0.82434 0.42445 0.0
H1137 H 0.91812 0.82238 0.42203 0.0
H1138 H 0.99722 0.87709 0.46501 0.0
H1139 H 0.99527 0.8576 0.52766 0.0
H1140 H 0.00523 0.85185 0.46183 0.0
H1141 H 0.90365 0.84783 0.46156 0.0
H1142 H 0.91634 0.85509 0.52675 0.0
H1143 H 0.91986 0.87414 0.46308 0.0
H1144 H 0.96114 0.88612 0.65501 0.0
H1145 H 0.96803 0.93157 0.5013 0.0
H1146 H 0.96672 0.84073 0.59304 0.0
H1147 H 0.94014 0.83982 0.59299 0.0
H1148 H 0.95509 0.84857 0.65344 0.0
H1149 H 0.97501 0.89652 0.4053 0.0
H1150 H 0.96529 0.92073 0.40907 0.0
H1151 H 0.94835 0.89503 0.40485 0.0
C1152 C 0.70515 0.9723 0.49163 0.0
C1153 C 0.71493 0.99363 0.47197 0.0
C1154 C 0.68716 0.96808 0.52408 0.0
C1155 C 0.67869 0.98559 0.537 0.0
C1156 C 0.68895 0.00714 0.51937 0.0
C1157 C 0.70694 0.01089 0.48734 0.0
C1158 C 0.67678 0.94486 0.54238 0.0
C1159 C 0.6805 0.02629 0.53237 0.0
C1160 C 0.62184 0.97691 0.55836 0.0
C1161 C 0.62008 0.97578 0.61825 0.0
C1162 C 0.64077 0.97973 0.53161 0.0
C1163 C 0.65846 0.98146 0.56548 0.0
C1164 C 0.6568 0.98001 0.62603 0.0
C1165 C 0.63764 0.97723 0.65167 0.0
C1166 C 0.64187 0.98132 0.46689 0.0
C1167 C 0.67527 0.98164 0.66366 0.0
H1168 H 0.71107 0.95884 0.47959 0.0
H1169 H 0.71456 0.02742 0.47322 0.0
H1170 H 0.67304 0.94243 0.58892 0.0
H1171 H 0.66234 0.9411 0.51886 0.0
H1172 H 0.68621 0.93318 0.53374 0.0
H1173 H 0.69089 0.04201 0.51868 0.0
H1174 H 0.6659 0.02621 0.50987 0.0
H1175 H 0.67743 0.02512 0.57909 0.0
H1176 H 0.60841 0.97613 0.53209 0.0
H1177 H 0.63641 0.97611 0.69802 0.0
H1178 H 0.6498 0.96896 0.45413 0.0
H1179 H 0.65071 0.99746 0.44923 0.0
H1180 H 0.62668 0.97899 0.44688 0.0
H1181 H 0.6839 0.96921 0.65548 0.0
H1182 H 0.67137 0.97944 0.71013 0.0
H1183 H 0.68539 0.99773 0.65298 0.0
C1184 C 0.54523 0.66176 0.58099 0.0
C1185 C 0.56203 0.67712 0.59531 0.0
C1186 C 0.54184 0.6402 0.60708 0.0
C1187 C 0.55561 0.63377 0.64859 0.0
C1188 C 0.57281 0.64907 0.66257 0.0
C1189 C 0.57584 0.67057 0.6357 0.0
C1190 C 0.52336 0.62437 0.59076 0.0
C1191 C 0.58777 0.64284 0.7068 0.0
C1192 C 0.53347 0.58449 0.75364 0.0
C1193 C 0.53989 0.56775 0.72998 0.0
C1194 C 0.53916 0.60613 0.7289 0.0
C1195 C 0.55142 0.61122 0.67881 0.0
C1196 C 0.5585 0.59451 0.6557 0.0
C1197 C 0.55272 0.57296 0.68174 0.0
C1198 C 0.53145 0.62345 0.75534 0.0
C1199 C 0.57154 0.59929 0.60224 0.0
H1200 H 0.53469 0.6666 0.54906 0.0
H1201 H 0.58877 0.68238 0.6473 0.0
H1202 H 0.52785 0.6101 0.57588 0.0
H1203 H 0.51341 0.61836 0.62893 0.0
H1204 H 0.51451 0.63177 0.55628 0.0
H1205 H 0.60086 0.65635 0.71086 0.0
H1206 H 0.58019 0.63789 0.74933 0.0
H1207 H 0.59346 0.62871 0.69531 0.0
H1208 H 0.5237 0.58067 0.79121 0.0
H1209 H 0.55771 0.56013 0.66315 0.0
H1210 H 0.52091 0.63037 0.72523 0.0
H1211 H 0.54415 0.63691 0.76291 0.0
H1212 H 0.52339 0.61707 0.79676 0.0
H1213 H 0.56279 0.60502 0.5651 0.0
H1214 H 0.57699 0.58481 0.59209 0.0
H1215 H 0.5848 0.61246 0.60732 0.0
C1216 C 0.85278 0.47335 0.4338 0.0
C1217 C 0.85131 0.48748 0.38362 0.0
C1218 C 0.86857 0.47823 0.47278 0.0
C1219 C 0.88322 0.49769 0.46125 0.0
C1220 C 0.88232 0.51152 0.40946 0.0
C1221 C 0.86638 0.50624 0.37126 0.0
C1222 C 0.86908 0.46304 0.52747 0.0
C1223 C 0.89775 0.53233 0.39538 0.0
C1224 C 0.90976 0.5236 0.58696 0.0
C1225 C 0.92851 0.51749 0.58633 0.0
C1226 C 0.89483 0.51707 0.54681 0.0
C1227 C 0.89881 0.50424 0.50477 0.0
C1228 C 0.91771 0.49801 0.50391 0.0
C1229 C 0.93233 0.50467 0.54482 0.0
C1230 C 0.87478 0.52391 0.54934 0.0
C1231 C 0.92256 0.48449 0.4595 0.0
H1232 H 0.84108 0.45894 0.44389 0.0
H1233 H 0.86548 0.51705 0.33211 0.0
H1234 H 0.8842 0.45885 0.53308 0.0
H1235 H 0.86636 0.47118 0.56492 0.0
H1236 H 0.85752 0.4478 0.52795 0.0
H1237 H 0.89568 0.54055 0.35166 0.0
H1238 H 0.89656 0.54361 0.4271 0.0
H1239 H 0.91324 0.52903 0.39841 0.0
H1240 H 0.90668 0.53329 0.61939 0.0
H1241 H 0.9469 0.50011 0.54379 0.0
H1242 H 0.86233 0.50939 0.55472 0.0
H1243 H 0.87217 0.53371 0.50837 0.0
H1244 H 0.87399 0.53361 0.58522 0.0
H1245 H 0.91128 0.46901 0.46188 0.0
H1246 H 0.93786 0.48074 0.46523 0.0
H1247 H 0.92165 0.49319 0.41576 0.0
loop_
_geom_bond_atom_site_label_1
_geom_bond_atom_site_label_2
_geom_bond_distance
_geom_bond_site_symmetry_2
_ccdc_geom_bond_type
C0 C1 1.264 . S
C0 C5 1.479 . S
C0 C10 1.465 . S
C1 C0 1.264 . S
C1 C3 1.339 . S
C1 H28 0.931 . S
C2 C3 1.395 . S
C2 C4 1.320 . S
C3 C1 1.339 . S
C3 C2 1.395 . S
C3 H29 0.929 . S
C4 C2 1.320 . S
C4 C5 1.405 . S
C4 H30 0.930 . S
C5 C0 1.479 . S
C5 C4 1.405 . S
C5 H31 0.931 . S
U6 O7 2.454 . S
U6 O8 2.463 . S
U6 C9 2.984 . S
U6 C10 2.847 . S
U6 C23 2.882 1_554 S
U6 O24 2.441 . S
U6 O25 2.420 . S
U6 O26 2.455 1_554 S
U6 O27 2.449 . S
O7 U6 2.454 . S
O7 C9 1.353 . S
O8 U6 2.463 . S
O8 C9 1.292 . S
C9 U6 2.984 . S
C9 O7 1.353 . S
C9 O8 1.292 . S
C9 C11 1.363 . S
C10 C0 1.465 . S
C10 U6 2.847 . S
C10 O24 1.249 . S
C10 O25 1.202 . S
C11 C9 1.363 . S
C11 C13 1.408 . S
C11 C16 1.342 1_554 S
C12 C13 1.310 . S
C12 C15 1.461 1_554 S
C12 H32 0.932 . S
C13 C11 1.408 . S
C13 C12 1.310 . S
C13 H33 0.930 . S
C14 C15 1.474 . S
C14 C16 1.285 . S
C14 H34 0.929 . S
C15 C12 1.461 1_556 S
C15 C14 1.474 . S
C16 C11 1.342 1_556 S
C16 C14 1.285 . S
C16 H35 0.930 . S
C17 C20 1.424 . S
C17 C22 1.245 . S
C17 C23 1.428 . S
C18 C21 1.260 . S
C18 C22 1.477 . S
C18 H36 0.932 . S
C19 C20 1.384 . S
C19 C21 1.479 . S
C19 H37 0.929 . S
C20 C17 1.424 . S
C20 C19 1.384 . S
C20 H38 0.928 . S
C21 C18 1.260 . S
C21 C19 1.479 . S
C22 C17 1.245 . S
C22 C18 1.477 . S
C22 H39 0.932 . S
C23 U6 2.882 1_556 S
C23 C17 1.428 . S
C23 O26 1.301 . S
C23 O27 1.282 1_556 S
O24 U6 2.441 . S
O24 C10 1.249 . S
O25 U6 2.420 . S
O25 C10 1.202 . S
O26 U6 2.455 1_556 S
O26 C23 1.301 . S
O27 U6 2.449 . S
O27 C23 1.282 1_554 S
H28 C1 0.931 . S
H29 C3 0.929 . S
H30 C4 0.930 . S
H31 C5 0.931 . S
H32 C12 0.932 . S
H33 C13 0.930 . S
H34 C14 0.929 . S
H35 C16 0.930 . S
H36 C18 0.932 . S
H37 C19 0.929 . S
H38 C20 0.928 . S
H39 C22 0.932 . S
C40 C41 1.264 . S
C40 C45 1.479 . S
C40 C50 1.465 . S
C41 C40 1.264 . S
C41 C43 1.339 . S
C41 H68 0.931 . S
C42 C43 1.395 . S
C42 C44 1.320 . S
C43 C41 1.339 . S
C43 C42 1.395 . S
C43 H69 0.929 . S
C44 C42 1.320 . S
C44 C45 1.405 . S
C44 H70 0.930 . S
C45 C40 1.479 . S
C45 C44 1.405 . S
C45 H71 0.931 . S
U46 O47 2.454 . S
U46 O48 2.458 . S
U46 C49 2.984 . S
U46 C50 2.847 . S
U46 C63 2.882 1_554 S
U46 O64 2.441 . S
U46 O65 2.420 . S
U46 O66 2.455 1_554 S
U46 O67 2.449 . S
O47 U46 2.454 . S
O47 C49 1.353 . S
O48 U46 2.458 . S
O48 C49 1.286 . S
C49 U46 2.984 . S
C49 O47 1.353 . S
C49 O48 1.286 . S
C49 C51 1.363 . S
C50 C40 1.465 . S
C50 U46 2.847 . S
C50 O64 1.249 . S
C50 O65 1.202 . S
C51 C49 1.363 . S
C51 C53 1.408 . S
C51 C56 1.342 1_554 S
C52 C53 1.310 . S
C52 C55 1.461 . S
C52 H72 0.932 . S
C53 C51 1.408 . S
C53 C52 1.310 . S
C53 H73 0.930 . S
C54 C55 1.474 1_556 S
C54 C56 1.285 . S
C54 H74 0.929 . S
C55 C52 1.461 . S
C55 C54 1.474 1_554 S
C56 C51 1.342 1_556 S
C56 C54 1.285 . S
C56 H75 0.930 . S
C57 C60 1.424 . S
C57 C62 1.245 . S
C57 C63 1.428 . S
C58 C61 1.260 . S
C58 C62 1.477 . S
C58 H76 0.932 . S
C59 C60 1.384 . S
C59 C61 1.479 . S
C59 H77 0.929 . S
C60 C57 1.424 . S
C60 C59 1.384 . S
C60 H78 0.928 . S
C61 C58 1.260 . S
C61 C59 1.479 . S
C62 C57 1.245 . S
C62 C58 1.477 . S
C62 H79 0.932 . S
C63 U46 2.882 1_556 S
C63 C57 1.428 . S
C63 O66 1.301 . S
C63 O67 1.282 1_556 S
O64 U46 2.441 . S
O64 C50 1.249 . S
O65 U46 2.420 . S
O65 C50 1.202 . S
O66 U46 2.455 1_556 S
O66 C63 1.301 . S
O67 U46 2.449 . S
O67 C63 1.282 1_554 S
H68 C41 0.931 . S
H69 C43 0.929 . S
H70 C44 0.930 . S
H71 C45 0.931 . S
H72 C52 0.932 . S
H73 C53 0.930 . S
H74 C54 0.929 . S
H75 C56 0.930 . S
H76 C58 0.932 . S
H77 C59 0.929 . S
H78 C60 0.928 . S
H79 C62 0.932 . S
C80 C81 1.264 . S
C80 C85 1.479 . S
C80 C90 1.465 . S
C81 C80 1.264 . S
C81 C83 1.339 . S
C81 H108 0.931 . S
C82 C83 1.395 . S
C82 C84 1.320 . S
C83 C81 1.339 . S
C83 C82 1.395 . S
C83 H109 0.929 . S
C84 C82 1.320 . S
C84 C85 1.405 . S
C84 H110 0.920 1_545 S
C85 C80 1.479 . S
C85 C84 1.405 . S
C85 H111 0.931 . S
U86 O87 2.458 . S
U86 O88 2.444 1_554 S
U86 C89 2.979 1_554 S
U86 C90 2.867 . S
U86 C103 2.867 1_554 S
U86 O104 2.462 . S
U86 O105 2.436 . S
U86 O106 2.435 1_554 S
U86 O107 2.442 1_554 S
O87 U86 2.458 . S
O87 C89 1.353 1_554 S
O88 U86 2.444 1_556 S
O88 C89 1.286 . S
C89 U86 2.979 1_556 S
C89 O87 1.353 1_556 S
C89 O88 1.286 . S
C89 C91 1.363 . S
C90 C80 1.465 . S
C90 U86 2.867 . S
C90 O104 1.249 . S
C90 O105 1.202 . S
C91 C89 1.363 . S
C91 C93 1.408 1_556 S
C91 C96 1.342 . S
C92 C93 1.310 1_556 S
C92 C95 1.462 . S
C92 H112 0.932 1_556 S
C93 C91 1.408 1_554 S
C93 C92 1.310 1_554 S
C93 H113 0.930 . S
C94 C95 1.475 1_565 S
C94 C96 1.282 1_565 S
C94 H114 0.932 . S
C95 C92 1.462 . S
C95 C94 1.475 1_545 S
C96 C91 1.342 . S
C96 C94 1.282 1_545 S
C96 H115 0.930 . S
C97 C100 1.424 . S
C97 C102 1.245 . S
C97 C103 1.428 . S
C98 C101 1.260 . S
C98 C102 1.477 . S
C98 H116 0.932 . S
C99 C100 1.384 . S
C99 C101 1.479 . S
C99 H117 0.929 . S
C100 C97 1.424 . S
C100 C99 1.384 . S
C100 H118 0.928 . S
C101 C98 1.260 . S
C101 C99 1.479 . S
C102 C97 1.245 . S
C102 C98 1.477 . S
C102 H119 0.932 . S
C103 U86 2.867 1_556 S
C103 C97 1.428 . S
C103 O106 1.301 . S
C103 O107 1.282 . S
O104 U86 2.462 . S
O104 C90 1.249 . S
O105 U86 2.436 . S
O105 C90 1.202 . S
O106 U86 2.435 1_556 S
O106 C103 1.301 . S
O107 U86 2.442 1_556 S
O107 C103 1.282 . S
H108 C81 0.931 . S
H109 C83 0.929 . S
H110 C84 0.920 1_565 S
H111 C85 0.931 . S
H112 C92 0.932 1_554 S
H113 C93 0.930 . S
H114 C94 0.932 . S
H115 C96 0.930 . S
H116 C98 0.932 . S
H117 C99 0.929 . S
H118 C100 0.928 . S
H119 C102 0.932 . S
C120 C121 1.264 . S
C120 C125 1.479 . S
C120 C130 1.465 . S
C121 C120 1.264 . S
C121 C123 1.339 . S
C121 H148 0.931 . S
C122 C123 1.395 . S
C122 C124 1.320 . S
C123 C121 1.339 . S
C123 C122 1.395 . S
C123 H149 0.929 . S
C124 C122 1.320 . S
C124 C125 1.405 . S
C124 H150 0.930 . S
C125 C120 1.479 . S
C125 C124 1.405 . S
C125 H151 0.931 . S
U126 O127 2.454 . S
U126 O128 2.458 . S
U126 C129 2.984 . S
U126 C130 2.847 . S
U126 C143 2.882 . S
U126 O144 2.441 . S
U126 O145 2.420 . S
U126 O146 2.455 . S
U126 O147 2.449 . S
O127 U126 2.454 . S
O127 C129 1.353 . S
O128 U126 2.458 . S
O128 C129 1.286 . S
C129 U126 2.984 . S
C129 O127 1.353 . S
C129 O128 1.286 . S
C129 C131 1.363 . S
C130 C120 1.465 . S
C130 U126 2.847 . S
C130 O144 1.249 . S
C130 O145 1.202 . S
C131 C129 1.363 . S
C131 C133 1.408 . S
C131 C136 1.342 . S
C132 C133 1.310 . S
C132 C135 1.461 . S
C132 H152 0.932 . S
C133 C131 1.408 . S
C133 C132 1.310 . S
C133 H153 0.930 . S
C134 C135 1.474 . S
C134 C136 1.285 . S
C134 H154 0.929 . S
C135 C132 1.461 . S
C135 C134 1.474 . S
C136 C131 1.342 . S
C136 C134 1.285 . S
C136 H155 0.930 . S
C137 C140 1.424 . S
C137 C142 1.245 . S
C137 C143 1.428 . S
C138 C141 1.260 . S
C138 C142 1.477 . S
C138 H156 0.932 . S
C139 C140 1.384 . S
C139 C141 1.479 . S
C139 H157 0.929 . S
C140 C137 1.424 . S
C140 C139 1.384 . S
C140 H158 0.928 . S
C141 C138 1.260 . S
C141 C139 1.479 . S
C142 C137 1.245 . S
C142 C138 1.477 . S
C142 H159 0.932 . S
C143 U126 2.882 . S
C143 C137 1.428 . S
C143 O146 1.301 . S
C143 O147 1.282 . S
O144 U126 2.441 . S
O144 C130 1.249 . S
O145 U126 2.420 . S
O145 C130 1.202 . S
O146 U126 2.455 . S
O146 C143 1.301 . S
O147 U126 2.449 . S
O147 C143 1.282 . S
H148 C121 0.931 . S
H149 C123 0.929 . S
H150 C124 0.930 . S
H151 C125 0.931 . S
H152 C132 0.932 . S
H153 C133 0.930 . S
H154 C134 0.929 . S
H155 C136 0.930 . S
H156 C138 0.932 . S
H157 C139 0.929 . S
H158 C140 0.928 . S
H159 C142 0.932 . S
C160 C161 1.264 . S
C160 C165 1.479 . S
C160 C170 1.465 . S
C161 C160 1.264 . S
C161 C163 1.339 . S
C161 H188 0.931 . S
C162 C163 1.395 . S
C162 C164 1.320 . S
C163 C161 1.339 . S
C163 C162 1.395 . S
C163 H189 0.929 . S
C164 C162 1.320 . S
C164 C165 1.405 . S
C164 H190 0.930 . S
C165 C160 1.479 . S
C165 C164 1.405 . S
C165 H191 0.931 . S
U166 O167 2.454 . S
U166 O168 2.458 . S
U166 C169 2.984 . S
U166 C170 2.847 . S
U166 C183 2.882 . S
U166 O184 2.441 . S
U166 O185 2.420 . S
U166 O186 2.455 . S
U166 O187 2.449 . S
O167 U166 2.454 . S
O167 C169 1.353 . S
O168 U166 2.458 . S
O168 C169 1.286 . S
C169 U166 2.984 . S
C169 O167 1.353 . S
C169 O168 1.286 . S
C169 C171 1.363 . S
C170 C160 1.465 . S
C170 U166 2.847 . S
C170 O184 1.249 . S
C170 O185 1.202 . S
C171 C169 1.363 . S
C171 C173 1.408 . S
C171 C176 1.342 . S
C172 C173 1.310 . S
C172 C175 1.461 . S
C172 H192 0.932 . S
C173 C171 1.408 . S
C173 C172 1.310 . S
C173 H193 0.930 . S
C174 C175 1.474 . S
C174 C176 1.285 . S
C174 H194 0.929 . S
C175 C172 1.461 . S
C175 C174 1.474 . S
C176 C171 1.342 . S
C176 C174 1.285 . S
C176 H195 0.930 . S
C177 C180 1.424 . S
C177 C182 1.245 . S
C177 C183 1.428 . S
C178 C181 1.260 . S
C178 C182 1.477 . S
C178 H196 0.932 . S
C179 C180 1.384 . S
C179 C181 1.479 . S
C179 H197 0.929 . S
C180 C177 1.424 . S
C180 C179 1.384 . S
C180 H198 0.928 . S
C181 C178 1.260 . S
C181 C179 1.479 . S
C182 C177 1.245 . S
C182 C178 1.477 . S
C182 H199 0.932 . S
C183 U166 2.882 . S
C183 C177 1.428 . S
C183 O186 1.301 . S
C183 O187 1.282 . S
O184 U166 2.441 . S
O184 C170 1.249 . S
O185 U166 2.420 . S
O185 C170 1.202 . S
O186 U166 2.455 . S
O186 C183 1.301 . S
O187 U166 2.449 . S
O187 C183 1.282 . S
H188 C161 0.931 . S
H189 C163 0.929 . S
H190 C164 0.930 . S
H191 C165 0.931 . S
H192 C172 0.932 . S
H193 C173 0.930 . S
H194 C174 0.929 . S
H195 C176 0.930 . S
H196 C178 0.932 . S
H197 C179 0.929 . S
H198 C180 0.928 . S
H199 C182 0.932 . S
C200 C201 1.264 . S
C200 C205 1.479 . S
C200 C210 1.465 . S
C201 C200 1.264 . S
C201 C203 1.339 . S
C201 H228 0.931 . S
C202 C203 1.395 . S
C202 C204 1.320 . S
C203 C201 1.339 . S
C203 C202 1.395 . S
C203 H229 0.929 . S
C204 C202 1.320 . S
C204 C205 1.405 . S
C204 H230 0.930 . S
C205 C200 1.479 . S
C205 C204 1.405 . S
C205 H231 0.931 . S
U206 O207 2.454 . S
U206 O208 2.458 . S
U206 C209 2.984 . S
U206 C210 2.847 . S
U206 C223 2.882 . S
U206 O224 2.441 . S
U206 O225 2.420 . S
U206 O226 2.455 . S
U206 O227 2.449 . S
O207 U206 2.454 . S
O207 C209 1.353 . S
O208 U206 2.458 . S
O208 C209 1.286 . S
C209 U206 2.984 . S
C209 O207 1.353 . S
C209 O208 1.286 . S
C209 C211 1.363 . S
C210 C200 1.465 . S
C210 U206 2.847 . S
C210 O224 1.249 . S
C210 O225 1.202 . S
C211 C209 1.363 . S
C211 C213 1.408 . S
C211 C216 1.342 . S
C212 C213 1.310 . S
C212 C215 1.461 . S
C212 H232 0.932 . S
C213 C211 1.408 . S
C213 C212 1.310 . S
C213 H233 0.930 . S
C214 C215 1.474 . S
C214 C216 1.285 . S
C214 H234 0.929 . S
C215 C212 1.461 . S
C215 C214 1.474 . S
C216 C211 1.342 . S
C216 C214 1.285 . S
C216 H235 0.930 . S
C217 C220 1.424 . S
C217 C222 1.245 . S
C217 C223 1.428 . S
C218 C221 1.260 . S
C218 C222 1.477 . S
C218 H236 0.932 . S
C219 C220 1.384 . S
C219 C221 1.479 . S
C219 H237 0.929 . S
C220 C217 1.424 . S
C220 C219 1.384 . S
C220 H238 0.928 . S
C221 C218 1.260 . S
C221 C219 1.479 . S
C222 C217 1.245 . S
C222 C218 1.477 . S
C222 H239 0.932 . S
C223 U206 2.882 . S
C223 C217 1.428 . S
C223 O226 1.301 . S
C223 O227 1.282 . S
O224 U206 2.441 . S
O224 C210 1.249 . S
O225 U206 2.420 . S
O225 C210 1.202 . S
O226 U206 2.455 . S
O226 C223 1.301 . S
O227 U206 2.449 . S
O227 C223 1.282 . S
H228 C201 0.931 . S
H229 C203 0.929 . S
H230 C204 0.930 . S
H231 C205 0.931 . S
H232 C212 0.932 . S
H233 C213 0.930 . S
H234 C214 0.929 . S
H235 C216 0.930 . S
H236 C218 0.932 . S
H237 C219 0.929 . S
H238 C220 0.928 . S
H239 C222 0.932 . S
C240 C241 1.264 . S
C240 C245 1.479 . S
C240 C250 1.465 . S
C241 C240 1.264 . S
C241 C243 1.339 . S
C241 H268 0.931 . S
C242 C243 1.395 . S
C242 C244 1.320 . S
C243 C241 1.339 . S
C243 C242 1.395 . S
C243 H269 0.929 . S
C244 C242 1.320 . S
C244 C245 1.405 . S
C244 H270 0.924 1_545 S
C245 C240 1.479 . S
C245 C244 1.405 . S
C245 H271 0.931 . S
U246 O247 2.454 . S
U246 O248 2.458 . S
U246 C249 2.984 . S
U246 C250 2.847 . S
U246 C263 2.882 . S
U246 O264 2.441 . S
U246 O265 2.420 . S
U246 O266 2.455 . S
U246 O267 2.449 . S
O247 U246 2.454 . S
O247 C249 1.353 . S
O248 U246 2.458 . S
O248 C249 1.286 . S
C249 U246 2.984 . S
C249 O247 1.353 . S
C249 O248 1.286 . S
C249 C251 1.363 . S
C250 C240 1.465 . S
C250 U246 2.847 . S
C250 O264 1.249 . S
C250 O265 1.202 . S
C251 C249 1.363 . S
C251 C253 1.408 . S
C251 C256 1.342 . S
C252 C253 1.310 . S
C252 C255 1.459 . S
C252 H272 0.932 . S
C253 C251 1.408 . S
C253 C252 1.310 . S
C253 H273 0.930 . S
C254 C255 1.473 1_565 S
C254 C256 1.285 1_565 S
C254 H274 0.930 . S
C255 C252 1.459 . S
C255 C254 1.473 1_545 S
C256 C251 1.342 . S
C256 C254 1.285 1_545 S
C256 H275 0.937 . S
C257 C260 1.424 . S
C257 C262 1.245 . S
C257 C263 1.428 . S
C258 C261 1.260 . S
C258 C262 1.477 . S
C258 H276 0.932 . S
C259 C260 1.384 . S
C259 C261 1.479 . S
C259 H277 0.929 . S
C260 C257 1.424 . S
C260 C259 1.384 . S
C260 H278 0.928 . S
C261 C258 1.260 . S
C261 C259 1.479 . S
C262 C257 1.245 . S
C262 C258 1.477 . S
C262 H279 0.932 . S
C263 U246 2.882 . S
C263 C257 1.428 . S
C263 O266 1.301 . S
C263 O267 1.282 . S
O264 U246 2.441 . S
O264 C250 1.249 . S
O265 U246 2.420 . S
O265 C250 1.202 . S
O266 U246 2.455 . S
O266 C263 1.301 . S
O267 U246 2.449 . S
O267 C263 1.282 . S
H268 C241 0.931 . S
H269 C243 0.929 . S
H270 C244 0.924 1_565 S
H271 C245 0.931 . S
H272 C252 0.932 . S
H273 C253 0.930 . S
H274 C254 0.930 . S
H275 C256 0.937 . S
H276 C258 0.932 . S
H277 C259 0.929 . S
H278 C260 0.928 . S
H279 C262 0.932 . S
C280 C281 1.264 . S
C280 C285 1.479 . S
C280 C290 1.465 . S
C281 C280 1.264 . S
C281 C283 1.339 . S
C281 H308 0.931 . S
C282 C283 1.395 . S
C282 C284 1.320 . S
C283 C281 1.339 . S
C283 C282 1.395 . S
C283 H309 0.929 . S
C284 C282 1.320 . S
C284 C285 1.405 . S
C284 H310 0.930 1_554 S
C285 C280 1.479 . S
C285 C284 1.405 . S
C285 H311 0.931 . S
U286 O287 2.454 . S
U286 O288 2.458 . S
U286 C289 2.984 . S
U286 C290 2.847 . S
U286 C303 2.882 . S
U286 O304 2.441 . S
U286 O305 2.420 . S
U286 O306 2.455 . S
U286 O307 2.449 . S
O287 U286 2.454 . S
O287 C289 1.353 . S
O288 U286 2.458 . S
O288 C289 1.286 . S
C289 U286 2.984 . S
C289 O287 1.353 . S
C289 O288 1.286 . S
C289 C291 1.363 . S
C290 C280 1.465 . S
C290 U286 2.847 . S
C290 O304 1.249 . S
C290 O305 1.202 . S
C291 C289 1.363 . S
C291 C293 1.408 . S
C291 C296 1.342 . S
C292 C293 1.310 . S
C292 C295 1.461 . S
C292 H312 0.932 . S
C293 C291 1.408 . S
C293 C292 1.310 . S
C293 H313 0.930 . S
C294 C295 1.474 . S
C294 C296 1.285 . S
C294 H314 0.929 . S
C295 C292 1.461 . S
C295 C294 1.474 . S
C296 C291 1.342 . S
C296 C294 1.285 . S
C296 H315 0.930 . S
C297 C300 1.424 . S
C297 C302 1.245 . S
C297 C303 1.428 . S
C298 C301 1.260 . S
C298 C302 1.477 . S
C298 H316 0.932 . S
C299 C300 1.384 . S
C299 C301 1.479 . S
C299 H317 0.929 . S
C300 C297 1.424 . S
C300 C299 1.384 . S
C300 H318 0.928 . S
C301 C298 1.260 . S
C301 C299 1.479 . S
C302 C297 1.245 . S
C302 C298 1.477 . S
C302 H319 0.932 . S
C303 U286 2.882 . S
C303 C297 1.428 . S
C303 O306 1.301 . S
C303 O307 1.282 . S
O304 U286 2.441 . S
O304 C290 1.249 . S
O305 U286 2.420 . S
O305 C290 1.202 . S
O306 U286 2.455 . S
O306 C303 1.301 . S
O307 U286 2.449 . S
O307 C303 1.282 . S
H308 C281 0.931 . S
H309 C283 0.929 . S
H310 C284 0.930 1_556 S
H311 C285 0.931 . S
H312 C292 0.932 . S
H313 C293 0.930 . S
H314 C294 0.929 . S
H315 C296 0.930 . S
H316 C298 0.932 . S
H317 C299 0.929 . S
H318 C300 0.928 . S
H319 C302 0.932 . S
Nd320 C322 2.836 1_455 S
Nd320 O340 2.500 1_455 S
Nd320 O341 2.492 . S
Nd320 O342 2.487 . S
Nd320 O343 2.682 1_565 S
Nd320 O344 2.410 . S
Nd320 O349 2.431 1_455 S
Nd320 O351 2.424 1_565 S
Nd321 C331 2.836 . S
Nd321 O343 2.414 . S
Nd321 O345 2.424 1_545 S
Nd321 O346 2.500 . S
Nd321 O347 2.492 . S
Nd321 O348 2.487 1_455 S
Nd321 O349 2.678 1_445 S
Nd321 O350 2.410 . S
C322 Nd320 2.836 1_655 S
C322 C323 1.498 . S
C322 O340 1.258 . S
C322 O341 1.239 1_655 S
C323 C322 1.498 . S
C323 C324 1.366 . S
C323 C328 1.407 . S
C324 C323 1.366 . S
C324 C325 1.392 . S
C324 H352 0.930 . S
C325 C324 1.392 . S
C325 C326 1.398 . S
C325 H353 0.929 . S
C326 C325 1.398 . S
C326 C327 1.352 . S
C327 C326 1.352 . S
C327 C328 1.384 . S
C327 H354 0.930 . S
C328 C323 1.407 . S
C328 C327 1.384 . S
C328 H355 0.929 1_655 S
C329 O342 1.241 . S
C329 O343 1.273 1_565 S
C330 O344 1.251 . S
C330 O345 1.268 . S
C331 Nd321 2.836 . S
C331 C332 1.498 . S
C331 O346 1.258 . S
C331 O347 1.239 . S
C332 C331 1.498 . S
C332 C333 1.366 . S
C332 C337 1.407 1_556 S
C333 C332 1.366 . S
C333 C334 1.392 1_556 S
C333 H356 0.930 . S
C334 C333 1.392 1_554 S
C334 C335 1.398 . S
C334 H357 0.927 1_554 S
C335 C334 1.398 . S
C335 C336 1.352 . S
C336 C335 1.352 . S
C336 C337 1.384 . S
C336 H358 0.930 . S
C337 C332 1.407 1_554 S
C337 C336 1.384 . S
C337 H359 0.929 . S
C338 O348 1.241 . S
C338 O349 1.249 1_545 S
C339 O350 1.251 . S
C339 O351 1.268 . S
O340 Nd320 2.500 1_655 S
O340 C322 1.258 . S
O341 Nd320 2.492 . S
O341 C322 1.239 1_455 S
O342 Nd320 2.487 . S
O342 C329 1.241 . S
O343 Nd320 2.682 1_545 S
O343 Nd321 2.414 . S
O343 C329 1.273 1_545 S
O344 Nd320 2.410 . S
O344 C330 1.251 . S
O345 Nd321 2.424 1_565 S
O345 C330 1.268 . S
O346 Nd321 2.500 . S
O346 C331 1.258 . S
O347 Nd321 2.492 . S
O347 C331 1.239 . S
O348 Nd321 2.487 1_655 S
O348 C338 1.241 . S
O349 Nd320 2.431 1_655 S
O349 Nd321 2.678 1_665 S
O349 C338 1.249 1_565 S
O350 Nd321 2.410 . S
O350 C339 1.251 . S
O351 Nd320 2.424 1_545 S
O351 C339 1.268 . S
H352 C324 0.930 . S
H353 C325 0.929 . S
H354 C327 0.930 . S
H355 C328 0.929 1_455 S
H356 C333 0.930 . S
H357 C334 0.927 1_556 S
H358 C336 0.930 . S
H359 C337 0.929 . S
Nd360 C362 2.836 . S
Nd360 O380 2.500 . S
Nd360 O381 2.492 . S
Nd360 O382 2.487 1_565 S
Nd360 O383 2.682 1_565 S
Nd360 O384 2.410 1_565 S
Nd360 O389 2.414 . S
Nd360 O391 2.424 . S
Nd361 C371 2.836 . S
Nd361 O383 2.414 . S
Nd361 O385 2.424 . S
Nd361 O386 2.500 . S
Nd361 O387 2.492 . S
Nd361 O388 2.487 1_545 S
Nd361 O389 2.682 1_545 S
Nd361 O390 2.410 1_545 S
C362 Nd360 2.836 . S
C362 C363 1.498 . S
C362 O380 1.258 . S
C362 O381 1.246 . S
C363 C362 1.498 . S
C363 C364 1.366 . S
C363 C368 1.407 . S
C364 C363 1.366 . S
C364 C365 1.392 . S
C364 H392 0.930 . S
C365 C364 1.392 . S
C365 C366 1.398 . S
C365 H393 0.929 . S
C366 C365 1.398 . S
C366 C367 1.352 . S
C367 C366 1.352 . S
C367 C368 1.384 . S
C367 H394 0.948 . S
C368 C363 1.407 . S
C368 C367 1.384 . S
C368 H395 0.929 1_565 S
C369 O382 1.241 . S
C369 O383 1.273 . S
C370 O384 1.251 . S
C370 O385 1.268 . S
C371 Nd361 2.836 . S
C371 C372 1.498 . S
C371 O386 1.258 . S
C371 O387 1.256 . S
C372 C371 1.498 . S
C372 C373 1.366 . S
C372 C377 1.407 1_556 S
C373 C372 1.366 . S
C373 C374 1.381 1_556 S
C373 H396 0.930 . S
C374 C373 1.381 1_554 S
C374 C375 1.416 . S
C374 H397 0.923 1_554 S
C375 C374 1.416 . S
C375 C376 1.352 . S
C376 C375 1.352 . S
C376 C377 1.384 . S
C376 H398 0.930 . S
C377 C372 1.407 1_554 S
C377 C376 1.384 . S
C377 H399 0.929 1_545 S
C378 O388 1.241 . S
C378 O389 1.273 . S
C379 O390 1.251 . S
C379 O391 1.268 . S
O380 Nd360 2.500 . S
O380 C362 1.258 . S
O381 Nd360 2.492 . S
O381 C362 1.246 . S
O382 Nd360 2.487 1_545 S
O382 C369 1.241 . S
O383 Nd360 2.682 1_545 S
O383 Nd361 2.414 . S
O383 C369 1.273 . S
O384 Nd360 2.410 1_545 S
O384 C370 1.251 . S
O385 Nd361 2.424 . S
O385 C370 1.268 . S
O386 Nd361 2.500 . S
O386 C371 1.258 . S
O387 Nd361 2.492 . S
O387 C371 1.256 . S
O388 Nd361 2.487 1_565 S
O388 C378 1.241 . S
O389 Nd360 2.414 . S
O389 Nd361 2.682 1_565 S
O389 C378 1.273 . S
O390 Nd361 2.410 1_565 S
O390 C379 1.251 . S
O391 Nd360 2.424 . S
O391 C379 1.268 . S
H392 C364 0.930 . S
H393 C365 0.929 . S
H394 C367 0.948 . S
H395 C368 0.929 1_545 S
H396 C373 0.930 . S
H397 C374 0.923 1_556 S
H398 C376 0.930 . S
H399 C377 0.929 1_565 S
Nd400 C402 2.836 . S
Nd400 O420 2.500 . S
Nd400 O421 2.492 . S
Nd400 O422 2.487 . S
Nd400 O423 2.682 . S
Nd400 O424 2.410 . S
Nd400 O429 2.414 . S
Nd400 O431 2.424 . S
Nd401 C411 2.836 . S
Nd401 O423 2.414 . S
Nd401 O425 2.424 . S
Nd401 O426 2.500 . S
Nd401 O427 2.492 . S
Nd401 O428 2.487 . S
Nd401 O429 2.682 . S
Nd401 O430 2.410 . S
C402 Nd400 2.836 . S
C402 C403 1.498 . S
C402 O420 1.258 . S
C402 O421 1.239 . S
C403 C402 1.498 . S
C403 C404 1.366 . S
C403 C408 1.407 . S
C404 C403 1.366 . S
C404 C405 1.392 . S
C404 H432 0.930 . S
C405 C404 1.392 . S
C405 C406 1.398 . S
C405 H433 0.929 . S
C406 C405 1.398 . S
C406 C407 1.352 . S
C407 C406 1.352 . S
C407 C408 1.384 . S
C407 H434 0.930 1_556 S
C408 C403 1.407 . S
C408 C407 1.384 . S
C408 H435 0.929 . S
C409 O422 1.241 . S
C409 O423 1.273 . S
C410 O424 1.251 . S
C410 O425 1.268 . S
C411 Nd401 2.836 . S
C411 C412 1.498 . S
C411 O426 1.258 . S
C411 O427 1.239 . S
C412 C411 1.498 . S
C412 C413 1.366 . S
C412 C417 1.407 . S
C413 C412 1.366 . S
C413 C414 1.392 . S
C413 H436 0.930 . S
C414 C413 1.392 . S
C414 C415 1.398 . S
C414 H437 0.929 . S
C415 C414 1.398 . S
C415 C416 1.352 . S
C416 C415 1.352 . S
C416 C417 1.384 . S
C416 H438 0.930 . S
C417 C412 1.407 . S
C417 C416 1.384 . S
C417 H439 0.929 . S
C418 O428 1.241 . S
C418 O429 1.273 . S
C419 O430 1.251 . S
C419 O431 1.268 . S
O420 Nd400 2.500 . S
O420 C402 1.258 . S
O421 Nd400 2.492 . S
O421 C402 1.239 . S
O422 Nd400 2.487 . S
O422 C409 1.241 . S
O423 Nd400 2.682 . S
O423 Nd401 2.414 . S
O423 C409 1.273 . S
O424 Nd400 2.410 . S
O424 C410 1.251 . S
O425 Nd401 2.424 . S
O425 C410 1.268 . S
O426 Nd401 2.500 . S
O426 C411 1.258 . S
O427 Nd401 2.492 . S
O427 C411 1.239 . S
O428 Nd401 2.487 . S
O428 C418 1.241 . S
O429 Nd400 2.414 . S
O429 Nd401 2.682 . S
O429 C418 1.273 . S
O430 Nd401 2.410 . S
O430 C419 1.251 . S
O431 Nd400 2.424 . S
O431 C419 1.268 . S
H432 C404 0.930 . S
H433 C405 0.929 . S
H434 C407 0.930 1_554 S
H435 C408 0.929 . S
H436 C413 0.930 . S
H437 C414 0.929 . S
H438 C416 0.930 . S
H439 C417 0.929 . S
Nd440 C442 2.836 1_455 S
Nd440 O460 2.500 1_455 S
Nd440 O461 2.492 1_455 S
Nd440 O462 2.487 . S
Nd440 O463 2.682 . S
Nd440 O464 2.410 1_455 S
Nd440 O469 2.414 . S
Nd440 O471 2.424 . S
Nd441 C451 2.836 . S
Nd441 O463 2.414 . S
Nd441 O465 2.424 1_455 S
Nd441 O466 2.500 . S
Nd441 O467 2.492 . S
Nd441 O468 2.487 . S
Nd441 O469 2.682 . S
Nd441 O470 2.410 . S
C442 Nd440 2.836 1_655 S
C442 C443 1.498 . S
C442 O460 1.258 . S
C442 O461 1.239 . S
C443 C442 1.498 . S
C443 C444 1.366 . S
C443 C448 1.407 . S
C444 C443 1.366 . S
C444 C445 1.392 . S
C444 H472 0.930 . S
C445 C444 1.392 . S
C445 C446 1.398 . S
C445 H473 0.929 . S
C446 C445 1.398 . S
C446 C447 1.352 . S
C447 C446 1.352 . S
C447 C448 1.384 . S
C447 H474 0.930 . S
C448 C443 1.407 . S
C448 C447 1.384 . S
C448 H475 0.929 . S
C449 O462 1.241 . S
C449 O463 1.273 . S
C450 O464 1.251 . S
C450 O465 1.268 . S
C451 Nd441 2.836 . S
C451 C452 1.498 . S
C451 O466 1.258 . S
C451 O467 1.239 . S
C452 C451 1.498 . S
C452 C453 1.366 . S
C452 C457 1.407 1_556 S
C453 C452 1.366 . S
C453 C454 1.392 1_556 S
C453 H476 0.930 . S
C454 C453 1.392 1_554 S
C454 C455 1.398 . S
C454 H477 0.929 . S
C455 C454 1.398 . S
C455 C456 1.352 . S
C456 C455 1.352 . S
C456 C457 1.384 . S
C456 H478 0.930 . S
C457 C452 1.407 1_554 S
C457 C456 1.384 . S
C457 H479 0.929 . S
C458 O468 1.241 . S
C458 O469 1.273 . S
C459 O470 1.251 . S
C459 O471 1.268 . S
O460 Nd440 2.500 1_655 S
O460 C442 1.258 . S
O461 Nd440 2.492 1_655 S
O461 C442 1.239 . S
O462 Nd440 2.487 . S
O462 C449 1.241 . S
O463 Nd440 2.682 . S
O463 Nd441 2.414 . S
O463 C449 1.273 . S
O464 Nd440 2.410 1_655 S
O464 C450 1.251 . S
O465 Nd441 2.424 1_655 S
O465 C450 1.268 . S
O466 Nd441 2.500 . S
O466 C451 1.258 . S
O467 Nd441 2.492 . S
O467 C451 1.239 . S
O468 Nd441 2.487 . S
O468 C458 1.241 . S
O469 Nd440 2.414 . S
O469 Nd441 2.682 . S
O469 C458 1.273 . S
O470 Nd441 2.410 . S
O470 C459 1.251 . S
O471 Nd440 2.424 . S
O471 C459 1.268 . S
H472 C444 0.930 . S
H473 C445 0.929 . S
H474 C447 0.930 . S
H475 C448 0.929 . S
H476 C453 0.930 . S
H477 C454 0.929 . S
H478 C456 0.930 . S
H479 C457 0.929 . S
C480 C481 1.390 1_565 S
C480 C482 1.394 . S
C480 H496 0.931 . S
C481 C480 1.390 1_545 S
C481 C485 1.377 . S
C482 C480 1.394 . S
C482 C483 1.369 . S
C482 C486 1.531 . S
C483 C482 1.369 . S
C483 C484 1.410 1_565 S
C483 C491 1.503 . S
C484 C483 1.410 1_545 S
C484 C485 1.392 . S
C484 C487 1.511 . S
C485 C481 1.377 . S
C485 C484 1.392 . S
C485 H497 0.929 . S
C486 C482 1.531 . S
C486 H498 0.960 . S
C486 H499 0.962 . S
C486 H500 0.960 . S
C487 C484 1.511 . S
C487 H501 0.961 . S
C487 H502 0.961 . S
C487 H503 0.961 . S
C488 C489 1.370 . S
C488 C490 1.363 . S
C488 H504 0.931 . S
C489 C488 1.370 . S
C489 C493 1.408 . S
C490 C488 1.363 . S
C490 C491 1.370 . S
C490 C494 1.524 . S
C491 C483 1.503 . S
C491 C490 1.370 . S
C491 C492 1.403 . S
C492 C491 1.403 . S
C492 C493 1.404 . S
C492 C495 1.537 1_565 S
C493 C489 1.408 . S
C493 C492 1.404 . S
C493 H505 0.930 . S
C494 C490 1.524 . S
C494 H506 0.956 . S
C494 H507 0.961 1_565 S
C494 H508 0.961 . S
C495 C492 1.537 1_545 S
C495 H509 0.920 1_545 S
C495 H510 0.992 . S
C495 H511 0.972 . S
H496 C480 0.931 . S
H497 C485 0.929 . S
H498 C486 0.960 . S
H499 C486 0.962 . S
H500 C486 0.960 . S
H501 C487 0.961 . S
H502 C487 0.961 . S
H503 C487 0.961 . S
H504 C488 0.931 . S
H505 C493 0.930 . S
H506 C494 0.956 . S
H507 C494 0.961 1_545 S
H508 C494 0.961 . S
H509 C495 0.920 1_565 S
H510 C495 0.992 . S
H511 C495 0.972 . S
C512 C513 1.391 . S
C512 C514 1.394 . S
C512 H528 0.931 . S
C513 C512 1.391 . S
C513 C517 1.376 . S
C514 C512 1.394 . S
C514 C515 1.369 . S
C514 C518 1.531 . S
C515 C514 1.369 . S
C515 C516 1.410 . S
C515 C523 1.503 . S
C516 C515 1.410 . S
C516 C517 1.392 . S
C516 C519 1.511 . S
C517 C513 1.376 . S
C517 C516 1.392 . S
C517 H529 0.929 . S
C518 C514 1.531 . S
C518 H530 0.960 . S
C518 H531 0.962 . S
C518 H532 0.960 . S
C519 C516 1.511 . S
C519 H533 0.961 . S
C519 H534 0.961 . S
C519 H535 0.961 . S
C520 C521 1.370 . S
C520 C522 1.363 . S
C520 H536 0.931 . S
C521 C520 1.370 . S
C521 C525 1.408 . S
C522 C520 1.363 . S
C522 C523 1.370 . S
C522 C526 1.524 . S
C523 C515 1.503 . S
C523 C522 1.370 . S
C523 C524 1.403 . S
C524 C523 1.403 . S
C524 C525 1.404 . S
C524 C527 1.539 . S
C525 C521 1.408 . S
C525 C524 1.404 . S
C525 H537 0.930 . S
C526 C522 1.524 . S
C526 H538 0.956 . S
C526 H539 0.961 . S
C526 H540 0.961 . S
C527 C524 1.539 . S
C527 H541 0.958 . S
C527 H542 0.961 . S
C527 H543 0.960 . S
H528 C512 0.931 . S
H529 C517 0.929 . S
H530 C518 0.960 . S
H531 C518 0.962 . S
H532 C518 0.960 . S
H533 C519 0.961 . S
H534 C519 0.961 . S
H535 C519 0.961 . S
H536 C520 0.931 . S
H537 C525 0.930 . S
H538 C526 0.956 . S
H539 C526 0.961 . S
H540 C526 0.961 . S
H541 C527 0.958 . S
H542 C527 0.961 . S
H543 C527 0.960 . S
C544 C545 1.391 . S
C544 C546 1.394 . S
C544 H560 0.931 . S
C545 C544 1.391 . S
C545 C549 1.376 . S
C546 C544 1.394 . S
C546 C547 1.369 . S
C546 C550 1.531 . S
C547 C546 1.369 . S
C547 C548 1.410 . S
C547 C555 1.503 . S
C548 C547 1.410 . S
C548 C549 1.392 . S
C548 C551 1.511 . S
C549 C545 1.376 . S
C549 C548 1.392 . S
C549 H561 0.929 . S
C550 C546 1.531 . S
C550 H562 0.960 . S
C550 H563 0.962 . S
C550 H564 0.960 . S
C551 C548 1.511 . S
C551 H565 0.961 . S
C551 H566 0.961 . S
C551 H567 0.961 . S
C552 C553 1.370 . S
C552 C554 1.363 . S
C552 H568 0.931 . S
C553 C552 1.370 . S
C553 C557 1.408 . S
C554 C552 1.363 . S
C554 C555 1.370 . S
C554 C558 1.524 . S
C555 C547 1.503 . S
C555 C554 1.370 . S
C555 C556 1.403 . S
C556 C555 1.403 . S
C556 C557 1.404 . S
C556 C559 1.539 . S
C557 C553 1.408 . S
C557 C556 1.404 . S
C557 H569 0.930 . S
C558 C554 1.524 . S
C558 H570 0.956 . S
C558 H571 0.961 . S
C558 H572 0.961 . S
C559 C556 1.539 . S
C559 H573 0.958 . S
C559 H574 0.961 . S
C559 H575 0.960 . S
H560 C544 0.931 . S
H561 C549 0.929 . S
H562 C550 0.960 . S
H563 C550 0.962 . S
H564 C550 0.960 . S
H565 C551 0.961 . S
H566 C551 0.961 . S
H567 C551 0.961 . S
H568 C552 0.931 . S
H569 C557 0.930 . S
H570 C558 0.956 . S
H571 C558 0.961 . S
H572 C558 0.961 . S
H573 C559 0.958 . S
H574 C559 0.961 . S
H575 C559 0.960 . S
C576 C577 1.391 . S
C576 C578 1.394 . S
C576 H592 0.931 . S
C577 C576 1.391 . S
C577 C581 1.376 . S
C578 C576 1.394 . S
C578 C579 1.369 . S
C578 C582 1.531 . S
C579 C578 1.369 . S
C579 C580 1.410 . S
C579 C587 1.503 . S
C580 C579 1.410 . S
C580 C581 1.392 . S
C580 C583 1.511 . S
C581 C577 1.376 . S
C581 C580 1.392 . S
C581 H593 0.929 . S
C582 C578 1.531 . S
C582 H594 0.960 . S
C582 H595 0.962 . S
C582 H596 0.960 . S
C583 C580 1.511 . S
C583 H597 0.961 . S
C583 H598 0.961 . S
C583 H599 0.961 . S
C584 C585 1.370 . S
C584 C586 1.363 . S
C584 H600 0.931 . S
C585 C584 1.370 . S
C585 C589 1.408 . S
C586 C584 1.363 . S
C586 C587 1.370 . S
C586 C590 1.524 . S
C587 C579 1.503 . S
C587 C586 1.370 . S
C587 C588 1.403 . S
C588 C587 1.403 . S
C588 C589 1.404 . S
C588 C591 1.539 . S
C589 C585 1.408 . S
C589 C588 1.404 . S
C589 H601 0.930 . S
C590 C586 1.524 . S
C590 H602 0.956 . S
C590 H603 0.961 . S
C590 H604 0.961 . S
C591 C588 1.539 . S
C591 H605 0.958 . S
C591 H606 0.961 . S
C591 H607 0.960 . S
H592 C576 0.931 . S
H593 C581 0.929 . S
H594 C582 0.960 . S
H595 C582 0.962 . S
H596 C582 0.960 . S
H597 C583 0.961 . S
H598 C583 0.961 . S
H599 C583 0.961 . S
H600 C584 0.931 . S
H601 C589 0.930 . S
H602 C590 0.956 . S
H603 C590 0.961 . S
H604 C590 0.961 . S
H605 C591 0.958 . S
H606 C591 0.961 . S
H607 C591 0.960 . S
C608 C609 1.391 . S
C608 C610 1.394 . S
C608 H624 0.931 . S
C609 C608 1.391 . S
C609 C613 1.376 . S
C610 C608 1.394 . S
C610 C611 1.369 . S
C610 C614 1.531 . S
C611 C610 1.369 . S
C611 C612 1.410 . S
C611 C619 1.503 . S
C612 C611 1.410 . S
C612 C613 1.392 . S
C612 C615 1.511 . S
C613 C609 1.376 . S
C613 C612 1.392 . S
C613 H625 0.922 1_556 S
C614 C610 1.531 . S
C614 H626 0.960 . S
C614 H627 0.962 1_545 S
C614 H628 0.960 . S
C615 C612 1.511 . S
C615 H629 0.961 1_546 S
C615 H630 0.961 1_545 S
C615 H631 0.956 1_556 S
C616 C617 1.370 1_565 S
C616 C618 1.363 . S
C616 H632 0.931 . S
C617 C616 1.370 1_545 S
C617 C621 1.408 . S
C618 C616 1.363 . S
C618 C619 1.370 1_565 S
C618 C622 1.524 . S
C619 C611 1.503 . S
C619 C618 1.370 1_545 S
C619 C620 1.403 . S
C620 C619 1.403 . S
C620 C621 1.404 . S
C620 C623 1.539 . S
C621 C617 1.408 . S
C621 C620 1.404 . S
C621 H633 0.930 . S
C622 C618 1.524 . S
C622 H634 0.956 . S
C622 H635 0.961 . S
C622 H636 0.961 . S
C623 C620 1.539 . S
C623 H637 0.958 . S
C623 H638 0.961 . S
C623 H639 0.960 . S
H624 C608 0.931 . S
H625 C613 0.922 1_554 S
H626 C614 0.960 . S
H627 C614 0.962 1_565 S
H628 C614 0.960 . S
H629 C615 0.961 1_564 S
H630 C615 0.961 1_565 S
H631 C615 0.956 1_554 S
H632 C616 0.931 . S
H633 C621 0.930 . S
H634 C622 0.956 . S
H635 C622 0.961 . S
H636 C622 0.961 . S
H637 C623 0.958 . S
H638 C623 0.961 . S
H639 C623 0.960 . S
C640 C641 1.391 . S
C640 C642 1.394 . S
C640 H656 0.931 . S
C641 C640 1.391 . S
C641 C645 1.376 . S
C642 C640 1.394 . S
C642 C643 1.369 . S
C642 C646 1.531 . S
C643 C642 1.369 . S
C643 C644 1.410 . S
C643 C651 1.503 . S
C644 C643 1.410 . S
C644 C645 1.392 . S
C644 C647 1.511 . S
C645 C641 1.376 . S
C645 C644 1.392 . S
C645 H657 0.929 . S
C646 C642 1.531 . S
C646 H658 0.960 . S
C646 H659 0.962 . S
C646 H660 0.960 . S
C647 C644 1.511 . S
C647 H661 0.961 . S
C647 H662 0.961 1_554 S
C647 H663 0.961 . S
C648 C649 1.370 . S
C648 C650 1.363 1_556 S
C648 H664 0.931 . S
C649 C648 1.370 . S
C649 C653 1.408 . S
C650 C648 1.363 1_554 S
C650 C651 1.370 . S
C650 C654 1.524 . S
C651 C643 1.503 . S
C651 C650 1.370 . S
C651 C652 1.403 . S
C652 C651 1.403 . S
C652 C653 1.404 1_554 S
C652 C655 1.539 . S
C653 C649 1.408 . S
C653 C652 1.404 1_556 S
C653 H665 0.930 . S
C654 C650 1.524 . S
C654 H666 0.956 . S
C654 H667 0.961 . S
C654 H668 0.961 . S
C655 C652 1.539 . S
C655 H669 0.958 . S
C655 H670 0.977 . S
C655 H671 0.960 . S
H656 C640 0.931 . S
H657 C645 0.929 . S
H658 C646 0.960 . S
H659 C646 0.962 . S
H660 C646 0.960 . S
H661 C647 0.961 . S
H662 C647 0.961 1_556 S
H663 C647 0.961 . S
H664 C648 0.931 . S
H665 C653 0.930 . S
H666 C654 0.956 . S
H667 C654 0.961 . S
H668 C654 0.961 . S
H669 C655 0.958 . S
H670 C655 0.977 . S
H671 C655 0.960 . S
C672 C673 1.391 . S
C672 C674 1.394 . S
C672 H688 0.931 . S
C673 C672 1.391 . S
C673 C677 1.376 . S
C674 C672 1.394 . S
C674 C675 1.369 . S
C674 C678 1.531 . S
C675 C674 1.369 . S
C675 C676 1.410 . S
C675 C683 1.503 . S
C676 C675 1.410 . S
C676 C677 1.392 . S
C676 C679 1.511 . S
C677 C673 1.376 . S
C677 C676 1.392 . S
C677 H689 0.930 . S
C678 C674 1.531 . S
C678 H690 0.960 . S
C678 H691 0.962 . S
C678 H692 0.960 . S
C679 C676 1.511 . S
C679 H693 0.961 1_556 S
C679 H694 0.961 . S
C679 H695 0.961 . S
C680 C681 1.370 . S
C680 C682 1.363 . S
C680 H696 0.931 . S
C681 C680 1.370 . S
C681 C685 1.408 . S
C682 C680 1.363 . S
C682 C683 1.370 . S
C682 C686 1.524 . S
C683 C675 1.503 . S
C683 C682 1.370 . S
C683 C684 1.403 . S
C684 C683 1.403 . S
C684 C685 1.404 . S
C684 C687 1.539 . S
C685 C681 1.408 . S
C685 C684 1.404 . S
C685 H697 0.930 . S
C686 C682 1.524 . S
C686 H698 0.956 . S
C686 H699 0.961 1_556 S
C686 H700 0.961 1_556 S
C687 C684 1.539 . S
C687 H701 0.958 . S
C687 H702 0.961 . S
C687 H703 0.960 . S
H688 C672 0.931 . S
H689 C677 0.930 . S
H690 C678 0.960 . S
H691 C678 0.962 . S
H692 C678 0.960 . S
H693 C679 0.961 1_554 S
H694 C679 0.961 . S
H695 C679 0.961 . S
H696 C680 0.931 . S
H697 C685 0.930 . S
H698 C686 0.956 . S
H699 C686 0.961 1_554 S
H700 C686 0.961 1_554 S
H701 C687 0.958 . S
H702 C687 0.961 . S
H703 C687 0.960 . S
C704 C705 1.391 1_554 S
C704 C706 1.394 1_554 S
C704 H720 0.931 . S
C705 C704 1.391 1_556 S
C705 C709 1.376 . S
C706 C704 1.394 1_556 S
C706 C707 1.369 . S
C706 C710 1.531 1_556 S
C707 C706 1.369 . S
C707 C708 1.410 . S
C707 C715 1.503 . S
C708 C707 1.410 . S
C708 C709 1.392 . S
C708 C711 1.511 . S
C709 C705 1.376 . S
C709 C708 1.392 . S
C709 H721 0.929 . S
C710 C706 1.531 1_554 S
C710 H722 0.960 . S
C710 H723 0.962 . S
C710 H724 0.960 . S
C711 C708 1.511 . S
C711 H725 0.961 . S
C711 H726 0.961 . S
C711 H727 0.961 . S
C712 C713 1.370 . S
C712 C714 1.363 . S
C712 H728 0.942 . S
C713 C712 1.370 . S
C713 C717 1.408 . S
C714 C712 1.363 . S
C714 C715 1.370 . S
C714 C718 1.524 . S
C715 C707 1.503 . S
C715 C714 1.370 . S
C715 C716 1.403 . S
C716 C715 1.403 . S
C716 C717 1.404 . S
C716 C719 1.539 . S
C717 C713 1.408 . S
C717 C716 1.404 . S
C717 H729 0.930 . S
C718 C714 1.524 . S
C718 H730 0.956 . S
C718 H731 0.961 . S
C718 H732 0.961 . S
C719 C716 1.539 . S
C719 H733 0.958 . S
C719 H734 0.961 . S
C719 H735 0.960 . S
H720 C704 0.931 . S
H721 C709 0.929 . S
H722 C710 0.960 . S
H723 C710 0.962 . S
H724 C710 0.960 . S
H725 C711 0.961 . S
H726 C711 0.961 . S
H727 C711 0.961 . S
H728 C712 0.942 . S
H729 C717 0.930 . S
H730 C718 0.956 . S
H731 C718 0.961 . S
H732 C718 0.961 . S
H733 C719 0.958 . S
H734 C719 0.961 . S
H735 C719 0.960 . S
C736 C737 1.391 . S
C736 C738 1.394 . S
C736 H752 0.931 . S
C737 C736 1.391 . S
C737 C741 1.376 . S
C738 C736 1.394 . S
C738 C739 1.369 . S
C738 C742 1.531 . S
C739 C738 1.369 . S
C739 C740 1.410 . S
C739 C747 1.503 . S
C740 C739 1.410 . S
C740 C741 1.392 . S
C740 C743 1.511 . S
C741 C737 1.376 . S
C741 C740 1.392 . S
C741 H753 0.929 . S
C742 C738 1.531 . S
C742 H754 0.960 . S
C742 H755 0.962 . S
C742 H756 0.960 . S
C743 C740 1.511 . S
C743 H757 0.961 . S
C743 H758 0.961 . S
C743 H759 0.961 . S
C744 C745 1.370 . S
C744 C746 1.363 . S
C744 H760 0.931 . S
C745 C744 1.370 . S
C745 C749 1.408 . S
C746 C744 1.363 . S
C746 C747 1.370 . S
C746 C750 1.524 . S
C747 C739 1.503 . S
C747 C746 1.370 . S
C747 C748 1.403 . S
C748 C747 1.403 . S
C748 C749 1.404 . S
C748 C751 1.539 . S
C749 C745 1.408 . S
C749 C748 1.404 . S
C749 H761 0.930 . S
C750 C746 1.524 . S
C750 H762 0.956 . S
C750 H763 0.961 . S
C750 H764 0.961 . S
C751 C748 1.539 . S
C751 H765 0.958 . S
C751 H766 0.961 . S
C751 H767 0.960 . S
H752 C736 0.931 . S
H753 C741 0.929 . S
H754 C742 0.960 . S
H755 C742 0.962 . S
H756 C742 0.960 . S
H757 C743 0.961 . S
H758 C743 0.961 . S
H759 C743 0.961 . S
H760 C744 0.931 . S
H761 C749 0.930 . S
H762 C750 0.956 . S
H763 C750 0.961 . S
H764 C750 0.961 . S
H765 C751 0.958 . S
H766 C751 0.961 . S
H767 C751 0.960 . S
C768 C769 1.391 1_545 S
C768 C770 1.382 1_545 S
C768 H784 0.931 . S
C769 C768 1.391 1_565 S
C769 C773 1.376 . S
C770 C768 1.382 1_565 S
C770 C771 1.386 . S
C770 C774 1.525 1_565 S
C771 C770 1.386 . S
C771 C772 1.410 . S
C771 C779 1.503 . S
C772 C771 1.410 . S
C772 C773 1.392 . S
C772 C775 1.511 . S
C773 C769 1.376 . S
C773 C772 1.392 . S
C773 H785 0.929 . S
C774 C770 1.525 1_545 S
C774 H786 0.960 1_545 S
C774 H787 0.962 . S
C774 H788 0.960 . S
C775 C772 1.511 . S
C775 H789 0.961 . S
C775 H790 0.961 . S
C775 H791 0.961 . S
C776 C777 1.370 1_545 S
C776 C778 1.363 . S
C776 H792 0.931 . S
C777 C776 1.370 1_565 S
C777 C781 1.408 . S
C778 C776 1.363 . S
C778 C779 1.370 1_545 S
C778 C782 1.524 . S
C779 C771 1.503 . S
C779 C778 1.370 1_565 S
C779 C780 1.403 . S
C780 C779 1.403 . S
C780 C781 1.404 . S
C780 C783 1.539 . S
C781 C777 1.408 . S
C781 C780 1.404 . S
C781 H793 0.930 . S
C782 C778 1.524 . S
C782 H794 0.956 . S
C782 H795 0.961 . S
C782 H796 0.961 . S
C783 C780 1.539 . S
C783 H797 0.958 . S
C783 H798 0.961 . S
C783 H799 0.960 . S
H784 C768 0.931 . S
H785 C773 0.929 . S
H786 C774 0.960 1_565 S
H787 C774 0.962 . S
H788 C774 0.960 . S
H789 C775 0.961 . S
H790 C775 0.961 . S
H791 C775 0.961 . S
H792 C776 0.931 . S
H793 C781 0.930 . S
H794 C782 0.956 . S
H795 C782 0.961 . S
H796 C782 0.961 . S
H797 C783 0.958 . S
H798 C783 0.961 . S
H799 C783 0.960 . S
C800 C801 1.391 . S
C800 C802 1.394 . S
C800 H816 0.931 . S
C801 C800 1.391 . S
C801 C805 1.376 . S
C802 C800 1.394 . S
C802 C803 1.369 . S
C802 C806 1.531 . S
C803 C802 1.369 . S
C803 C804 1.410 . S
C803 C811 1.503 . S
C804 C803 1.410 . S
C804 C805 1.392 . S
C804 C807 1.511 . S
C805 C801 1.376 . S
C805 C804 1.392 . S
C805 H817 0.929 . S
C806 C802 1.531 . S
C806 H818 0.960 . S
C806 H819 0.962 . S
C806 H820 0.960 . S
C807 C804 1.511 . S
C807 H821 0.961 . S
C807 H822 0.961 . S
C807 H823 0.961 . S
C808 C809 1.370 . S
C808 C810 1.363 . S
C808 H824 0.931 . S
C809 C808 1.370 . S
C809 C813 1.408 . S
C810 C808 1.363 . S
C810 C811 1.370 . S
C810 C814 1.524 . S
C811 C803 1.503 . S
C811 C810 1.370 . S
C811 C812 1.403 . S
C812 C811 1.403 . S
C812 C813 1.404 . S
C812 C815 1.539 . S
C813 C809 1.408 . S
C813 C812 1.404 . S
C813 H825 0.930 . S
C814 C810 1.524 . S
C814 H826 0.956 . S
C814 H827 0.961 . S
C814 H828 0.961 . S
C815 C812 1.539 . S
C815 H829 0.958 . S
C815 H830 0.961 . S
C815 H831 0.960 . S
H816 C800 0.931 . S
H817 C805 0.929 . S
H818 C806 0.960 . S
H819 C806 0.962 . S
H820 C806 0.960 . S
H821 C807 0.961 . S
H822 C807 0.961 . S
H823 C807 0.961 . S
H824 C808 0.931 . S
H825 C813 0.930 . S
H826 C814 0.956 . S
H827 C814 0.961 . S
H828 C814 0.961 . S
H829 C815 0.958 . S
H830 C815 0.961 . S
H831 C815 0.960 . S
C832 C833 1.391 . S
C832 C834 1.394 . S
C832 H848 0.931 . S
C833 C832 1.391 . S
C833 C837 1.376 . S
C834 C832 1.394 . S
C834 C835 1.369 . S
C834 C838 1.531 . S
C835 C834 1.369 . S
C835 C836 1.410 . S
C835 C843 1.503 . S
C836 C835 1.410 . S
C836 C837 1.392 . S
C836 C839 1.511 . S
C837 C833 1.376 . S
C837 C836 1.392 . S
C837 H849 0.929 . S
C838 C834 1.531 . S
C838 H850 0.960 . S
C838 H851 0.962 . S
C838 H852 0.960 . S
C839 C836 1.511 . S
C839 H853 0.961 . S
C839 H854 0.961 . S
C839 H855 0.961 . S
C840 C841 1.370 . S
C840 C842 1.363 . S
C840 H856 0.931 . S
C841 C840 1.370 . S
C841 C845 1.408 . S
C842 C840 1.363 . S
C842 C843 1.370 . S
C842 C846 1.524 . S
C843 C835 1.503 . S
C843 C842 1.370 . S
C843 C844 1.403 . S
C844 C843 1.403 . S
C844 C845 1.404 . S
C844 C847 1.539 . S
C845 C841 1.408 . S
C845 C844 1.404 . S
C845 H857 0.930 . S
C846 C842 1.524 . S
C846 H858 0.956 . S
C846 H859 0.961 . S
C846 H860 0.961 . S
C847 C844 1.539 . S
C847 H861 0.958 . S
C847 H862 0.961 . S
C847 H863 0.960 . S
H848 C832 0.931 . S
H849 C837 0.929 . S
H850 C838 0.960 . S
H851 C838 0.962 . S
H852 C838 0.960 . S
H853 C839 0.961 . S
H854 C839 0.961 . S
H855 C839 0.961 . S
H856 C840 0.931 . S
H857 C845 0.930 . S
H858 C846 0.956 . S
H859 C846 0.961 . S
H860 C846 0.961 . S
H861 C847 0.958 . S
H862 C847 0.961 . S
H863 C847 0.960 . S
C864 C865 1.391 . S
C864 C866 1.394 . S
C864 H880 0.931 . S
C865 C864 1.391 . S
C865 C869 1.376 . S
C866 C864 1.394 . S
C866 C867 1.369 . S
C866 C870 1.531 . S
C867 C866 1.369 . S
C867 C868 1.410 . S
C867 C875 1.503 . S
C868 C867 1.410 . S
C868 C869 1.392 . S
C868 C871 1.511 . S
C869 C865 1.376 . S
C869 C868 1.392 . S
C869 H881 0.929 . S
C870 C866 1.531 . S
C870 H882 0.960 . S
C870 H883 0.962 . S
C870 H884 0.960 . S
C871 C868 1.511 . S
C871 H885 0.961 . S
C871 H886 0.961 . S
C871 H887 0.961 . S
C872 C873 1.370 . S
C872 C874 1.363 . S
C872 H888 0.931 . S
C873 C872 1.370 . S
C873 C877 1.408 . S
C874 C872 1.363 . S
C874 C875 1.370 . S
C874 C878 1.524 . S
C875 C867 1.503 . S
C875 C874 1.370 . S
C875 C876 1.403 . S
C876 C875 1.403 . S
C876 C877 1.404 . S
C876 C879 1.539 . S
C877 C873 1.408 . S
C877 C876 1.404 . S
C877 H889 0.930 . S
C878 C874 1.524 . S
C878 H890 0.956 . S
C878 H891 0.961 . S
C878 H892 0.961 . S
C879 C876 1.539 . S
C879 H893 0.958 . S
C879 H894 0.961 . S
C879 H895 0.960 . S
H880 C864 0.931 . S
H881 C869 0.929 . S
H882 C870 0.960 . S
H883 C870 0.962 . S
H884 C870 0.960 . S
H885 C871 0.961 . S
H886 C871 0.961 . S
H887 C871 0.961 . S
H888 C872 0.931 . S
H889 C877 0.930 . S
H890 C878 0.956 . S
H891 C878 0.961 . S
H892 C878 0.961 . S
H893 C879 0.958 . S
H894 C879 0.961 . S
H895 C879 0.960 . S
C896 C897 1.409 . S
C896 C898 1.394 . S
C896 H912 0.931 . S
C897 C896 1.409 . S
C897 C901 1.348 1_565 S
C898 C896 1.394 . S
C898 C899 1.369 1_565 S
C898 C902 1.531 . S
C899 C898 1.369 1_545 S
C899 C900 1.410 . S
C899 C907 1.503 . S
C900 C899 1.410 . S
C900 C901 1.392 . S
C900 C903 1.511 . S
C901 C897 1.348 1_545 S
C901 C900 1.392 . S
C901 H913 0.929 . S
C902 C898 1.531 . S
C902 H914 0.960 . S
C902 H915 0.962 . S
C902 H916 0.960 . S
C903 C900 1.511 . S
C903 H917 0.961 . S
C903 H918 0.961 . S
C903 H919 0.961 . S
C904 C905 1.370 . S
C904 C906 1.363 . S
C904 H920 0.931 . S
C905 C904 1.370 . S
C905 C909 1.408 1_545 S
C906 C904 1.363 . S
C906 C907 1.370 . S
C906 C910 1.524 . S
C907 C899 1.503 . S
C907 C906 1.370 . S
C907 C908 1.403 1_545 S
C908 C907 1.403 1_565 S
C908 C909 1.404 . S
C908 C911 1.539 . S
C909 C905 1.408 1_565 S
C909 C908 1.404 . S
C909 H921 0.930 . S
C910 C906 1.524 . S
C910 H922 0.956 . S
C910 H923 0.961 . S
C910 H924 0.961 . S
C911 C908 1.539 . S
C911 H925 0.958 . S
C911 H926 0.961 . S
C911 H927 0.960 . S
H912 C896 0.931 . S
H913 C901 0.929 . S
H914 C902 0.960 . S
H915 C902 0.962 . S
H916 C902 0.960 . S
H917 C903 0.961 . S
H918 C903 0.961 . S
H919 C903 0.961 . S
H920 C904 0.931 . S
H921 C909 0.930 . S
H922 C910 0.956 . S
H923 C910 0.961 . S
H924 C910 0.961 . S
H925 C911 0.958 . S
H926 C911 0.961 . S
H927 C911 0.960 . S
C928 C929 1.391 . S
C928 C930 1.394 . S
C928 H944 0.931 . S
C929 C928 1.391 . S
C929 C933 1.376 . S
C930 C928 1.394 . S
C930 C931 1.369 . S
C930 C934 1.531 . S
C931 C930 1.369 . S
C931 C932 1.410 . S
C931 C939 1.503 . S
C932 C931 1.410 . S
C932 C933 1.392 . S
C932 C935 1.511 . S
C933 C929 1.376 . S
C933 C932 1.392 . S
C933 H945 0.929 . S
C934 C930 1.531 . S
C934 H946 0.960 . S
C934 H947 0.962 . S
C934 H948 0.960 . S
C935 C932 1.511 . S
C935 H949 0.961 . S
C935 H950 0.961 . S
C935 H951 0.961 . S
C936 C937 1.370 . S
C936 C938 1.363 . S
C936 H952 0.931 . S
C937 C936 1.370 . S
C937 C941 1.408 1_556 S
C938 C936 1.363 . S
C938 C939 1.370 1_556 S
C938 C942 1.524 . S
C939 C931 1.503 . S
C939 C938 1.370 1_554 S
C939 C940 1.403 . S
C940 C939 1.403 . S
C940 C941 1.404 . S
C940 C943 1.539 . S
C941 C937 1.408 1_554 S
C941 C940 1.404 . S
C941 H953 0.930 . S
C942 C938 1.524 . S
C942 H954 0.956 . S
C942 H955 0.961 . S
C942 H956 0.961 . S
C943 C940 1.539 . S
C943 H957 0.958 . S
C943 H958 0.961 . S
C943 H959 0.960 . S
H944 C928 0.931 . S
H945 C933 0.929 . S
H946 C934 0.960 . S
H947 C934 0.962 . S
H948 C934 0.960 . S
H949 C935 0.961 . S
H950 C935 0.961 . S
H951 C935 0.961 . S
H952 C936 0.931 . S
H953 C941 0.930 . S
H954 C942 0.956 . S
H955 C942 0.961 . S
H956 C942 0.961 . S
H957 C943 0.958 . S
H958 C943 0.961 . S
H959 C943 0.960 . S
C960 C961 1.391 . S
C960 C962 1.394 . S
C960 H976 0.931 . S
C961 C960 1.391 . S
C961 C965 1.376 . S
C962 C960 1.394 . S
C962 C963 1.369 . S
C962 C966 1.531 . S
C963 C962 1.369 . S
C963 C964 1.410 . S
C963 C971 1.503 . S
C964 C963 1.410 . S
C964 C965 1.392 . S
C964 C967 1.511 . S
C965 C961 1.376 . S
C965 C964 1.392 . S
C965 H977 0.929 . S
C966 C962 1.531 . S
C966 H978 0.960 . S
C966 H979 0.962 . S
C966 H980 0.960 . S
C967 C964 1.511 . S
C967 H981 0.961 . S
C967 H982 0.961 . S
C967 H983 0.961 . S
C968 C969 1.370 . S
C968 C970 1.363 . S
C968 H984 0.931 . S
C969 C968 1.370 . S
C969 C973 1.408 . S
C970 C968 1.363 . S
C970 C971 1.370 . S
C970 C974 1.524 . S
C971 C963 1.503 . S
C971 C970 1.370 . S
C971 C972 1.403 . S
C972 C971 1.403 . S
C972 C973 1.404 . S
C972 C975 1.539 . S
C973 C969 1.408 . S
C973 C972 1.404 . S
C973 H985 0.930 . S
C974 C970 1.524 . S
C974 H986 0.956 . S
C974 H987 0.961 . S
C974 H988 0.961 . S
C975 C972 1.539 . S
C975 H989 0.958 . S
C975 H990 0.961 . S
C975 H991 0.960 . S
H976 C960 0.931 . S
H977 C965 0.929 . S
H978 C966 0.960 . S
H979 C966 0.962 . S
H980 C966 0.960 . S
H981 C967 0.961 . S
H982 C967 0.961 . S
H983 C967 0.961 . S
H984 C968 0.931 . S
H985 C973 0.930 . S
H986 C974 0.956 . S
H987 C974 0.961 . S
H988 C974 0.961 . S
H989 C975 0.958 . S
H990 C975 0.961 . S
H991 C975 0.960 . S
C992 C993 1.391 . S
C992 C994 1.394 . S
C992 H1008 0.931 . S
C993 C992 1.391 . S
C993 C997 1.376 . S
C994 C992 1.394 . S
C994 C995 1.369 . S
C994 C998 1.531 . S
C995 C994 1.369 . S
C995 C996 1.410 . S
C995 C1003 1.503 . S
C996 C995 1.410 . S
C996 C997 1.392 . S
C996 C999 1.511 . S
C997 C993 1.376 . S
C997 C996 1.392 . S
C997 H1009 0.929 . S
C998 C994 1.531 . S
C998 H1010 0.960 . S
C998 H1011 0.962 . S
C998 H1012 0.960 . S
C999 C996 1.511 . S
C999 H1013 0.961 . S
C999 H1014 0.961 . S
C999 H1015 0.961 . S
C1000 C1001 1.370 . S
C1000 C1002 1.363 . S
C1000 H1016 0.931 . S
C1001 C1000 1.370 . S
C1001 C1005 1.408 . S
C1002 C1000 1.363 . S
C1002 C1003 1.370 . S
C1002 C1006 1.524 . S
C1003 C995 1.503 . S
C1003 C1002 1.370 . S
C1003 C1004 1.403 . S
C1004 C1003 1.403 . S
C1004 C1005 1.404 . S
C1004 C1007 1.539 . S
C1005 C1001 1.408 . S
C1005 C1004 1.404 . S
C1005 H1017 0.930 . S
C1006 C1002 1.524 . S
C1006 H1018 0.956 . S
C1006 H1019 0.961 . S
C1006 H1020 0.961 . S
C1007 C1004 1.539 . S
C1007 H1021 0.958 . S
C1007 H1022 0.961 . S
C1007 H1023 0.960 . S
H1008 C992 0.931 . S
H1009 C997 0.929 . S
H1010 C998 0.960 . S
H1011 C998 0.962 . S
H1012 C998 0.960 . S
H1013 C999 0.961 . S
H1014 C999 0.961 . S
H1015 C999 0.961 . S
H1016 C1000 0.931 . S
H1017 C1005 0.930 . S
H1018 C1006 0.956 . S
H1019 C1006 0.961 . S
H1020 C1006 0.961 . S
H1021 C1007 0.958 . S
H1022 C1007 0.961 . S
H1023 C1007 0.960 . S
C1024 C1025 1.396 . S
C1024 C1026 1.394 . S
C1024 H1040 0.931 . S
C1025 C1024 1.396 . S
C1025 C1029 1.364 1_545 S
C1026 C1024 1.394 . S
C1026 C1027 1.369 . S
C1026 C1030 1.531 . S
C1027 C1026 1.369 . S
C1027 C1028 1.410 1_545 S
C1027 C1035 1.503 . S
C1028 C1027 1.410 1_565 S
C1028 C1029 1.392 . S
C1028 C1031 1.511 . S
C1029 C1025 1.364 1_565 S
C1029 C1028 1.392 . S
C1029 H1041 0.929 . S
C1030 C1026 1.531 . S
C1030 H1042 0.960 . S
C1030 H1043 0.962 . S
C1030 H1044 0.960 . S
C1031 C1028 1.511 . S
C1031 H1045 0.961 . S
C1031 H1046 0.961 1_565 S
C1031 H1047 0.961 . S
C1032 C1033 1.370 . S
C1032 C1034 1.363 . S
C1032 H1048 0.931 . S
C1033 C1032 1.370 . S
C1033 C1037 1.408 1_545 S
C1034 C1032 1.363 . S
C1034 C1035 1.370 . S
C1034 C1038 1.524 . S
C1035 C1027 1.503 . S
C1035 C1034 1.370 . S
C1035 C1036 1.403 1_545 S
C1036 C1035 1.403 1_565 S
C1036 C1037 1.404 . S
C1036 C1039 1.539 . S
C1037 C1033 1.408 1_565 S
C1037 C1036 1.404 . S
C1037 H1049 0.930 . S
C1038 C1034 1.524 . S
C1038 H1050 0.956 . S
C1038 H1051 0.961 . S
C1038 H1052 0.961 . S
C1039 C1036 1.539 . S
C1039 H1053 0.958 . S
C1039 H1054 0.961 . S
C1039 H1055 0.960 . S
H1040 C1024 0.931 . S
H1041 C1029 0.929 . S
H1042 C1030 0.960 . S
H1043 C1030 0.962 . S
H1044 C1030 0.960 . S
H1045 C1031 0.961 . S
H1046 C1031 0.961 1_545 S
H1047 C1031 0.961 . S
H1048 C1032 0.931 . S
H1049 C1037 0.930 . S
H1050 C1038 0.956 . S
H1051 C1038 0.961 . S
H1052 C1038 0.961 . S
H1053 C1039 0.958 . S
H1054 C1039 0.961 . S
H1055 C1039 0.960 . S
C1056 C1057 1.391 . S
C1056 C1058 1.394 . S
C1056 H1072 0.931 1_556 S
C1057 C1056 1.391 . S
C1057 C1061 1.376 . S
C1058 C1056 1.394 . S
C1058 C1059 1.369 . S
C1058 C1062 1.531 1_556 S
C1059 C1058 1.369 . S
C1059 C1060 1.410 . S
C1059 C1067 1.503 . S
C1060 C1059 1.410 . S
C1060 C1061 1.392 . S
C1060 C1063 1.511 . S
C1061 C1057 1.376 . S
C1061 C1060 1.392 . S
C1061 H1073 0.929 . S
C1062 C1058 1.531 1_554 S
C1062 H1074 0.960 . S
C1062 H1075 0.962 1_554 S
C1062 H1076 0.960 . S
C1063 C1060 1.511 . S
C1063 H1077 0.961 . S
C1063 H1078 0.961 . S
C1063 H1079 0.961 . S
C1064 C1065 1.370 . S
C1064 C1066 1.363 . S
C1064 H1080 0.931 . S
C1065 C1064 1.370 . S
C1065 C1069 1.408 . S
C1066 C1064 1.363 . S
C1066 C1067 1.370 . S
C1066 C1070 1.524 . S
C1067 C1059 1.503 . S
C1067 C1066 1.370 . S
C1067 C1068 1.403 . S
C1068 C1067 1.403 . S
C1068 C1069 1.404 . S
C1068 C1071 1.539 1_556 S
C1069 C1065 1.408 . S
C1069 C1068 1.404 . S
C1069 H1081 0.930 . S
C1070 C1066 1.524 . S
C1070 H1082 0.956 . S
C1070 H1083 0.961 . S
C1070 H1084 0.961 . S
C1071 C1068 1.539 1_554 S
C1071 H1085 0.958 . S
C1071 H1086 0.961 . S
C1071 H1087 0.960 . S
H1072 C1056 0.931 1_554 S
H1073 C1061 0.929 . S
H1074 C1062 0.960 . S
H1075 C1062 0.962 1_556 S
H1076 C1062 0.960 . S
H1077 C1063 0.961 . S
H1078 C1063 0.961 . S
H1079 C1063 0.961 . S
H1080 C1064 0.931 . S
H1081 C1069 0.930 . S
H1082 C1070 0.956 . S
H1083 C1070 0.961 . S
H1084 C1070 0.961 . S
H1085 C1071 0.958 . S
H1086 C1071 0.961 . S
H1087 C1071 0.960 . S
C1088 C1089 1.391 . S
C1088 C1090 1.394 . S
C1088 H1104 0.931 . S
C1089 C1088 1.391 . S
C1089 C1093 1.376 . S
C1090 C1088 1.394 . S
C1090 C1091 1.369 . S
C1090 C1094 1.531 . S
C1091 C1090 1.369 . S
C1091 C1092 1.410 . S
C1091 C1099 1.503 . S
C1092 C1091 1.410 . S
C1092 C1093 1.392 . S
C1092 C1095 1.511 . S
C1093 C1089 1.376 . S
C1093 C1092 1.392 . S
C1093 H1105 0.929 . S
C1094 C1090 1.531 . S
C1094 H1106 0.960 . S
C1094 H1107 0.962 . S
C1094 H1108 0.960 . S
C1095 C1092 1.511 . S
C1095 H1109 0.961 . S
C1095 H1110 0.961 . S
C1095 H1111 0.961 . S
C1096 C1097 1.370 . S
C1096 C1098 1.363 . S
C1096 H1112 0.931 . S
C1097 C1096 1.370 . S
C1097 C1101 1.408 . S
C1098 C1096 1.363 . S
C1098 C1099 1.370 . S
C1098 C1102 1.524 . S
C1099 C1091 1.503 . S
C1099 C1098 1.370 . S
C1099 C1100 1.403 . S
C1100 C1099 1.403 . S
C1100 C1101 1.404 . S
C1100 C1103 1.539 . S
C1101 C1097 1.408 . S
C1101 C1100 1.404 . S
C1101 H1113 0.930 . S
C1102 C1098 1.524 . S
C1102 H1114 0.956 . S
C1102 H1115 0.961 . S
C1102 H1116 0.961 . S
C1103 C1100 1.539 . S
C1103 H1117 0.958 . S
C1103 H1118 0.961 . S
C1103 H1119 0.960 . S
H1104 C1088 0.931 . S
H1105 C1093 0.929 . S
H1106 C1094 0.960 . S
H1107 C1094 0.962 . S
H1108 C1094 0.960 . S
H1109 C1095 0.961 . S
H1110 C1095 0.961 . S
H1111 C1095 0.961 . S
H1112 C1096 0.931 . S
H1113 C1101 0.930 . S
H1114 C1102 0.956 . S
H1115 C1102 0.961 . S
H1116 C1102 0.961 . S
H1117 C1103 0.958 . S
H1118 C1103 0.961 . S
H1119 C1103 0.960 . S
C1120 C1121 1.391 . S
C1120 C1122 1.394 . S
C1120 H1136 0.931 . S
C1121 C1120 1.391 . S
C1121 C1125 1.376 . S
C1122 C1120 1.394 . S
C1122 C1123 1.369 . S
C1122 C1126 1.531 . S
C1123 C1122 1.369 . S
C1123 C1124 1.410 . S
C1123 C1131 1.503 . S
C1124 C1123 1.410 . S
C1124 C1125 1.392 . S
C1124 C1127 1.511 . S
C1125 C1121 1.376 . S
C1125 C1124 1.392 . S
C1125 H1137 0.929 . S
C1126 C1122 1.531 . S
C1126 H1138 0.960 . S
C1126 H1139 0.962 . S
C1126 H1140 0.960 . S
C1127 C1124 1.511 . S
C1127 H1141 0.961 . S
C1127 H1142 0.961 . S
C1127 H1143 0.961 . S
C1128 C1129 1.370 . S
C1128 C1130 1.363 . S
C1128 H1144 0.931 . S
C1129 C1128 1.370 . S
C1129 C1133 1.408 . S
C1130 C1128 1.363 . S
C1130 C1131 1.370 . S
C1130 C1134 1.524 . S
C1131 C1123 1.503 . S
C1131 C1130 1.370 . S
C1131 C1132 1.403 . S
C1132 C1131 1.403 . S
C1132 C1133 1.404 . S
C1132 C1135 1.539 . S
C1133 C1129 1.408 . S
C1133 C1132 1.404 . S
C1133 H1145 0.930 . S
C1134 C1130 1.524 . S
C1134 H1146 0.956 . S
C1134 H1147 0.961 . S
C1134 H1148 0.961 . S
C1135 C1132 1.539 . S
C1135 H1149 0.958 . S
C1135 H1150 0.961 . S
C1135 H1151 0.960 . S
H1136 C1120 0.931 . S
H1137 C1125 0.929 . S
H1138 C1126 0.960 . S
H1139 C1126 0.962 . S
H1140 C1126 0.960 . S
H1141 C1127 0.961 . S
H1142 C1127 0.961 . S
H1143 C1127 0.961 . S
H1144 C1128 0.931 . S
H1145 C1133 0.930 . S
H1146 C1134 0.956 . S
H1147 C1134 0.961 . S
H1148 C1134 0.961 . S
H1149 C1135 0.958 . S
H1150 C1135 0.961 . S
H1151 C1135 0.960 . S
C1152 C1153 1.396 . S
C1152 C1154 1.394 . S
C1152 H1168 0.931 . S
C1153 C1152 1.396 . S
C1153 C1157 1.366 1_565 S
C1154 C1152 1.394 . S
C1154 C1155 1.369 . S
C1154 C1158 1.531 . S
C1155 C1154 1.369 . S
C1155 C1156 1.410 1_565 S
C1155 C1163 1.503 . S
C1156 C1155 1.410 1_545 S
C1156 C1157 1.392 . S
C1156 C1159 1.511 . S
C1157 C1153 1.366 1_545 S
C1157 C1156 1.392 . S
C1157 H1169 0.929 . S
C1158 C1154 1.531 . S
C1158 H1170 0.960 . S
C1158 H1171 0.962 . S
C1158 H1172 0.960 . S
C1159 C1156 1.511 . S
C1159 H1173 0.961 . S
C1159 H1174 0.961 1_545 S
C1159 H1175 0.961 . S
C1160 C1161 1.370 . S
C1160 C1162 1.363 . S
C1160 H1176 0.931 . S
C1161 C1160 1.370 . S
C1161 C1165 1.408 1_565 S
C1162 C1160 1.363 . S
C1162 C1163 1.370 . S
C1162 C1166 1.524 . S
C1163 C1155 1.503 . S
C1163 C1162 1.370 . S
C1163 C1164 1.403 1_565 S
C1164 C1163 1.403 1_545 S
C1164 C1165 1.404 . S
C1164 C1167 1.539 . S
C1165 C1161 1.408 1_545 S
C1165 C1164 1.404 . S
C1165 H1177 0.930 . S
C1166 C1162 1.524 . S
C1166 H1178 0.956 . S
C1166 H1179 0.961 . S
C1166 H1180 0.961 . S
C1167 C1164 1.539 . S
C1167 H1181 0.958 . S
C1167 H1182 0.961 . S
C1167 H1183 0.960 . S
H1168 C1152 0.931 . S
H1169 C1157 0.929 . S
H1170 C1158 0.960 . S
H1171 C1158 0.962 . S
H1172 C1158 0.960 . S
H1173 C1159 0.961 . S
H1174 C1159 0.961 1_565 S
H1175 C1159 0.961 . S
H1176 C1160 0.931 . S
H1177 C1165 0.930 . S
H1178 C1166 0.956 . S
H1179 C1166 0.961 . S
H1180 C1166 0.961 . S
H1181 C1167 0.958 . S
H1182 C1167 0.961 . S
H1183 C1167 0.960 . S
C1184 C1185 1.391 . S
C1184 C1186 1.394 . S
C1184 H1200 0.931 . S
C1185 C1184 1.391 . S
C1185 C1189 1.376 . S
C1186 C1184 1.394 . S
C1186 C1187 1.369 . S
C1186 C1190 1.531 . S
C1187 C1186 1.369 . S
C1187 C1188 1.410 . S
C1187 C1195 1.503 . S
C1188 C1187 1.410 . S
C1188 C1189 1.392 . S
C1188 C1191 1.511 . S
C1189 C1185 1.376 . S
C1189 C1188 1.392 . S
C1189 H1201 0.929 . S
C1190 C1186 1.531 . S
C1190 H1202 0.960 . S
C1190 H1203 0.962 . S
C1190 H1204 0.960 . S
C1191 C1188 1.511 . S
C1191 H1205 0.961 . S
C1191 H1206 0.961 . S
C1191 H1207 0.961 . S
C1192 C1193 1.370 . S
C1192 C1194 1.363 . S
C1192 H1208 0.931 . S
C1193 C1192 1.370 . S
C1193 C1197 1.408 . S
C1194 C1192 1.363 . S
C1194 C1195 1.370 . S
C1194 C1198 1.524 . S
C1195 C1187 1.503 . S
C1195 C1194 1.370 . S
C1195 C1196 1.403 . S
C1196 C1195 1.403 . S
C1196 C1197 1.404 . S
C1196 C1199 1.539 . S
C1197 C1193 1.408 . S
C1197 C1196 1.404 . S
C1197 H1209 0.930 . S
C1198 C1194 1.524 . S
C1198 H1210 0.956 . S
C1198 H1211 0.961 . S
C1198 H1212 0.961 . S
C1199 C1196 1.539 . S
C1199 H1213 0.958 . S
C1199 H1214 0.961 . S
C1199 H1215 0.960 . S
H1200 C1184 0.931 . S
H1201 C1189 0.929 . S
H1202 C1190 0.960 . S
H1203 C1190 0.962 . S
H1204 C1190 0.960 . S
H1205 C1191 0.961 . S
H1206 C1191 0.961 . S
H1207 C1191 0.961 . S
H1208 C1192 0.931 . S
H1209 C1197 0.930 . S
H1210 C1198 0.956 . S
H1211 C1198 0.961 . S
H1212 C1198 0.961 . S
H1213 C1199 0.958 . S
H1214 C1199 0.961 . S
H1215 C1199 0.960 . S
C1216 C1217 1.391 . S
C1216 C1218 1.394 . S
C1216 H1232 0.931 . S
C1217 C1216 1.391 . S
C1217 C1221 1.376 . S
C1218 C1216 1.394 . S
C1218 C1219 1.369 . S
C1218 C1222 1.531 . S
C1219 C1218 1.369 . S
C1219 C1220 1.410 . S
C1219 C1227 1.503 . S
C1220 C1219 1.410 . S
C1220 C1221 1.392 . S
C1220 C1223 1.511 . S
C1221 C1217 1.376 . S
C1221 C1220 1.392 . S
C1221 H1233 0.929 . S
C1222 C1218 1.531 . S
C1222 H1234 0.960 . S
C1222 H1235 0.962 . S
C1222 H1236 0.960 . S
C1223 C1220 1.511 . S
C1223 H1237 0.961 . S
C1223 H1238 0.961 . S
C1223 H1239 0.961 . S
C1224 C1225 1.370 . S
C1224 C1226 1.363 . S
C1224 H1240 0.931 . S
C1225 C1224 1.370 . S
C1225 C1229 1.408 . S
C1226 C1224 1.363 . S
C1226 C1227 1.370 . S
C1226 C1230 1.524 . S
C1227 C1219 1.503 . S
C1227 C1226 1.370 . S
C1227 C1228 1.403 . S
C1228 C1227 1.403 . S
C1228 C1229 1.404 . S
C1228 C1231 1.539 . S
C1229 C1225 1.408 . S
C1229 C1228 1.404 . S
C1229 H1241 0.930 . S
C1230 C1226 1.524 . S
C1230 H1242 0.956 . S
C1230 H1243 0.961 . S
C1230 H1244 0.961 . S
C1231 C1228 1.539 . S
C1231 H1245 0.958 . S
C1231 H1246 0.961 . S
C1231 H1247 0.960 . S
H1232 C1216 0.931 . S
H1233 C1221 0.929 . S
H1234 C1222 0.960 . S
H1235 C1222 0.962 . S
H1236 C1222 0.960 . S
H1237 C1223 0.961 . S
H1238 C1223 0.961 . S
H1239 C1223 0.961 . S
H1240 C1224 0.931 . S
H1241 C1229 0.930 . S
H1242 C1230 0.956 . S
H1243 C1230 0.961 . S
H1244 C1230 0.961 . S
H1245 C1231 0.958 . S
H1246 C1231 0.961 . S
H1247 C1231 0.960 . S
C481 C255 0.922 . S
C489 C329 0.921 . S
C521 C369 2.104 . S
C513 C295 2.098 . S
C553 C418 1.773 . S
C545 C175 1.730 . S
C585 C449 2.293 . S
C577 C215 2.283 . S
C617 C338 0.891 . S
C609 C95 0.915 . S
C641 C135 2.154 . S
C649 C378 2.081 . S
C673 C15 1.763 . S
C681 C409 1.770 . S
C705 C55 2.304 1_556 S
C713 C458 2.301 1_655 S
C745 C339 1.712 . S
C737 C221 1.566 . S
C777 C379 1.053 . S
C769 C261 0.993 1_565 S
C809 C415 0.692 . S
C801 C301 0.695 . S
C833 C181 1.461 . S
C841 C459 1.734 . S
C865 C61 1.314 . S
C873 C330 1.727 1_655 S
C905 C370 1.054 . S
C897 C101 0.891 1_565 S
C937 C406 0.678 . S
C929 C141 0.632 . S
C961 C21 1.606 . S
C969 C450 1.733 . S
C993 C202 2.256 . S
C1001 C335 2.353 . S
C1025 C242 1.771 . S
C1033 C375 1.791 . S
C1065 C419 3.187 . S
C1057 C282 2.936 1_556 S
C1097 C455 1.927 . S
C1089 C162 1.760 . S
C1121 C42 2.169 . S
C1129 C326 2.364 . S
C1161 C366 1.791 . S
C1153 C82 1.779 1_565 S
C1193 C410 3.186 . S
C1185 C122 2.820 . S
C1217 C2 1.877 . S
C1225 C446 1.928 . S
