# Generated by pormake.
# Topology gar, (4,6)-cn, num edge types: 1
# Building blocks:
#     Node 0, Type 0, BuildingBlock: QUQFOY_clean_sbu_1, # of connection points: 4
#     Node 1, Type 0, BuildingBlock: QUQFOY_clean_sbu_1, # of connection points: 4
#     Node 2, Type 0, BuildingBlock: QUQFOY_clean_sbu_1, # of connection points: 4
#     Node 3, Type 0, BuildingBlock: QUQFOY_clean_sbu_1, # of connection points: 4
#     Node 4, Type 0, BuildingBlock: QUQFOY_clean_sbu_1, # of connection points: 4
#     Node 5, Type 0, BuildingBlock: QUQFOY_clean_sbu_1, # of connection points: 4
#     Node 6, Type 0, BuildingBlock: QUQFOY_clean_sbu_1, # of connection points: 4
#     Node 7, Type 0, BuildingBlock: QUQFOY_clean_sbu_1, # of connection points: 4
#     Node 8, Type 0, BuildingBlock: QUQFOY_clean_sbu_1, # of connection points: 4
#     Node 9, Type 0, BuildingBlock: QUQFOY_clean_sbu_1, # of connection points: 4
#     Node 10, Type 0, BuildingBlock: QUQFOY_clean_sbu_1, # of connection points: 4
#     Node 11, Type 0, BuildingBlock: QUQFOY_clean_sbu_1, # of connection points: 4
#     Node 12, Type 0, BuildingBlock: QUQFOY_clean_sbu_1, # of connection points: 4
#     Node 13, Type 0, BuildingBlock: QUQFOY_clean_sbu_1, # of connection points: 4
#     Node 14, Type 0, BuildingBlock: QUQFOY_clean_sbu_1, # of connection points: 4
#     Node 15, Type 0, BuildingBlock: QUQFOY_clean_sbu_1, # of connection points: 4
#     Node 16, Type 0, BuildingBlock: QUQFOY_clean_sbu_1, # of connection points: 4
#     Node 17, Type 0, BuildingBlock: QUQFOY_clean_sbu_1, # of connection points: 4
#     Node 18, Type 0, BuildingBlock: QUQFOY_clean_sbu_1, # of connection points: 4
#     Node 19, Type 0, BuildingBlock: QUQFOY_clean_sbu_1, # of connection points: 4
#     Node 20, Type 0, BuildingBlock: QUQFOY_clean_sbu_1, # of connection points: 4
#     Node 21, Type 0, BuildingBlock: QUQFOY_clean_sbu_1, # of connection points: 4
#     Node 22, Type 0, BuildingBlock: QUQFOY_clean_sbu_1, # of connection points: 4
#     Node 23, Type 0, BuildingBlock: QUQFOY_clean_sbu_1, # of connection points: 4
#     Node 24, Type 1, BuildingBlock: BETDIP_clean_sbu_0, # of connection points: 6
#     Node 25, Type 1, BuildingBlock: BETDIP_clean_sbu_0, # of connection points: 6
#     Node 26, Type 1, BuildingBlock: BETDIP_clean_sbu_0, # of connection points: 6
#     Node 27, Type 1, BuildingBlock: BETDIP_clean_sbu_0, # of connection points: 6
#     Node 28, Type 1, BuildingBlock: BETDIP_clean_sbu_0, # of connection points: 6
#     Node 29, Type 1, BuildingBlock: BETDIP_clean_sbu_0, # of connection points: 6
#     Node 30, Type 1, BuildingBlock: BETDIP_clean_sbu_0, # of connection points: 6
#     Node 31, Type 1, BuildingBlock: BETDIP_clean_sbu_0, # of connection points: 6
#     Node 32, Type 1, BuildingBlock: BETDIP_clean_sbu_0, # of connection points: 6
#     Node 33, Type 1, BuildingBlock: BETDIP_clean_sbu_0, # of connection points: 6
#     Node 34, Type 1, BuildingBlock: BETDIP_clean_sbu_0, # of connection points: 6
#     Node 35, Type 1, BuildingBlock: BETDIP_clean_sbu_0, # of connection points: 6
#     Node 36, Type 1, BuildingBlock: BETDIP_clean_sbu_0, # of connection points: 6
#     Node 37, Type 1, BuildingBlock: BETDIP_clean_sbu_0, # of connection points: 6
#     Node 38, Type 1, BuildingBlock: BETDIP_clean_sbu_0, # of connection points: 6
#     Node 39, Type 1, BuildingBlock: BETDIP_clean_sbu_0, # of connection points: 6
#     Edge 40, Type (0, 1), BuildingBlock: AJUNOK_clean_linker_0, # of connection points: 2
#     Edge 41, Type (0, 1), BuildingBlock: AJUNOK_clean_linker_0, # of connection points: 2
#     Edge 42, Type (0, 1), BuildingBlock: AJUNOK_clean_linker_0, # of connection points: 2
#     Edge 43, Type (0, 1), BuildingBlock: AJUNOK_clean_linker_0, # of connection points: 2
#     Edge 44, Type (0, 1), BuildingBlock: AJUNOK_clean_linker_0, # of connection points: 2
#     Edge 45, Type (0, 1), BuildingBlock: AJUNOK_clean_linker_0, # of connection points: 2
#     Edge 46, Type (0, 1), BuildingBlock: AJUNOK_clean_linker_0, # of connection points: 2
#     Edge 47, Type (0, 1), BuildingBlock: AJUNOK_clean_linker_0, # of connection points: 2
#     Edge 48, Type (0, 1), BuildingBlock: AJUNOK_clean_linker_0, # of connection points: 2
#     Edge 49, Type (0, 1), BuildingBlock: AJUNOK_clean_linker_0, # of connection points: 2
#     Edge 50, Type (0, 1), BuildingBlock: AJUNOK_clean_linker_0, # of connection points: 2
#     Edge 51, Type (0, 1), BuildingBlock: AJUNOK_clean_linker_0, # of connection points: 2
#     Edge 52, Type (0, 1), BuildingBlock: AJUNOK_clean_linker_0, # of connection points: 2
#     Edge 53, Type (0, 1), BuildingBlock: AJUNOK_clean_linker_0, # of connection points: 2
#     Edge 54, Type (0, 1), BuildingBlock: AJUNOK_clean_linker_0, # of connection points: 2
#     Edge 55, Type (0, 1), BuildingBlock: AJUNOK_clean_linker_0, # of connection points: 2
#     Edge 56, Type (0, 1), BuildingBlock: AJUNOK_clean_linker_0, # of connection points: 2
#     Edge 57, Type (0, 1), BuildingBlock: AJUNOK_clean_linker_0, # of connection points: 2
#     Edge 58, Type (0, 1), BuildingBlock: AJUNOK_clean_linker_0, # of connection points: 2
#     Edge 59, Type (0, 1), BuildingBlock: AJUNOK_clean_linker_0, # of connection points: 2
#     Edge 60, Type (0, 1), BuildingBlock: AJUNOK_clean_linker_0, # of connection points: 2
#     Edge 61, Type (0, 1), BuildingBlock: AJUNOK_clean_linker_0, # of connection points: 2
#     Edge 62, Type (0, 1), BuildingBlock: AJUNOK_clean_linker_0, # of connection points: 2
#     Edge 63, Type (0, 1), BuildingBlock: AJUNOK_clean_linker_0, # of connection points: 2
#     Edge 64, Type (0, 1), BuildingBlock: AJUNOK_clean_linker_0, # of connection points: 2
#     Edge 65, Type (0, 1), BuildingBlock: AJUNOK_clean_linker_0, # of connection points: 2
#     Edge 66, Type (0, 1), BuildingBlock: AJUNOK_clean_linker_0, # of connection points: 2
#     Edge 67, Type (0, 1), BuildingBlock: AJUNOK_clean_linker_0, # of connection points: 2
#     Edge 68, Type (0, 1), BuildingBlock: AJUNOK_clean_linker_0, # of connection points: 2
#     Edge 69, Type (0, 1), BuildingBlock: AJUNOK_clean_linker_0, # of connection points: 2
#     Edge 70, Type (0, 1), BuildingBlock: AJUNOK_clean_linker_0, # of connection points: 2
#     Edge 71, Type (0, 1), BuildingBlock: AJUNOK_clean_linker_0, # of connection points: 2
#     Edge 72, Type (0, 1), BuildingBlock: AJUNOK_clean_linker_0, # of connection points: 2
#     Edge 73, Type (0, 1), BuildingBlock: AJUNOK_clean_linker_0, # of connection points: 2
#     Edge 74, Type (0, 1), BuildingBlock: AJUNOK_clean_linker_0, # of connection points: 2
#     Edge 75, Type (0, 1), BuildingBlock: AJUNOK_clean_linker_0, # of connection points: 2
#     Edge 76, Type (0, 1), BuildingBlock: AJUNOK_clean_linker_0, # of connection points: 2
#     Edge 77, Type (0, 1), BuildingBlock: AJUNOK_clean_linker_0, # of connection points: 2
#     Edge 78, Type (0, 1), BuildingBlock: AJUNOK_clean_linker_0, # of connection points: 2
#     Edge 79, Type (0, 1), BuildingBlock: AJUNOK_clean_linker_0, # of connection points: 2
#     Edge 80, Type (0, 1), BuildingBlock: AJUNOK_clean_linker_0, # of connection points: 2
#     Edge 81, Type (0, 1), BuildingBlock: AJUNOK_clean_linker_0, # of connection points: 2
#     Edge 82, Type (0, 1), BuildingBlock: AJUNOK_clean_linker_0, # of connection points: 2
#     Edge 83, Type (0, 1), BuildingBlock: AJUNOK_clean_linker_0, # of connection points: 2
#     Edge 84, Type (0, 1), BuildingBlock: AJUNOK_clean_linker_0, # of connection points: 2
#     Edge 85, Type (0, 1), BuildingBlock: AJUNOK_clean_linker_0, # of connection points: 2
#     Edge 86, Type (0, 1), BuildingBlock: AJUNOK_clean_linker_0, # of connection points: 2
#     Edge 87, Type (0, 1), BuildingBlock: AJUNOK_clean_linker_0, # of connection points: 2
#     Edge 88, Type (0, 1), BuildingBlock: AJUNOK_clean_linker_0, # of connection points: 2
#     Edge 89, Type (0, 1), BuildingBlock: AJUNOK_clean_linker_0, # of connection points: 2
#     Edge 90, Type (0, 1), BuildingBlock: AJUNOK_clean_linker_0, # of connection points: 2
#     Edge 91, Type (0, 1), BuildingBlock: AJUNOK_clean_linker_0, # of connection points: 2
#     Edge 92, Type (0, 1), BuildingBlock: AJUNOK_clean_linker_0, # of connection points: 2
#     Edge 93, Type (0, 1), BuildingBlock: AJUNOK_clean_linker_0, # of connection points: 2
#     Edge 94, Type (0, 1), BuildingBlock: AJUNOK_clean_linker_0, # of connection points: 2
#     Edge 95, Type (0, 1), BuildingBlock: AJUNOK_clean_linker_0, # of connection points: 2
#     Edge 96, Type (0, 1), BuildingBlock: AJUNOK_clean_linker_0, # of connection points: 2
#     Edge 97, Type (0, 1), BuildingBlock: AJUNOK_clean_linker_0, # of connection points: 2
#     Edge 98, Type (0, 1), BuildingBlock: AJUNOK_clean_linker_0, # of connection points: 2
#     Edge 99, Type (0, 1), BuildingBlock: AJUNOK_clean_linker_0, # of connection points: 2
#     Edge 100, Type (0, 1), BuildingBlock: AJUNOK_clean_linker_0, # of connection points: 2
#     Edge 101, Type (0, 1), BuildingBlock: AJUNOK_clean_linker_0, # of connection points: 2
#     Edge 102, Type (0, 1), BuildingBlock: AJUNOK_clean_linker_0, # of connection points: 2
#     Edge 103, Type (0, 1), BuildingBlock: AJUNOK_clean_linker_0, # of connection points: 2
#     Edge 104, Type (0, 1), BuildingBlock: AJUNOK_clean_linker_0, # of connection points: 2
#     Edge 105, Type (0, 1), BuildingBlock: AJUNOK_clean_linker_0, # of connection points: 2
#     Edge 106, Type (0, 1), BuildingBlock: AJUNOK_clean_linker_0, # of connection points: 2
#     Edge 107, Type (0, 1), BuildingBlock: AJUNOK_clean_linker_0, # of connection points: 2
#     Edge 108, Type (0, 1), BuildingBlock: AJUNOK_clean_linker_0, # of connection points: 2
#     Edge 109, Type (0, 1), BuildingBlock: AJUNOK_clean_linker_0, # of connection points: 2
#     Edge 110, Type (0, 1), BuildingBlock: AJUNOK_clean_linker_0, # of connection points: 2
#     Edge 111, Type (0, 1), BuildingBlock: AJUNOK_clean_linker_0, # of connection points: 2
#     Edge 112, Type (0, 1), BuildingBlock: AJUNOK_clean_linker_0, # of connection points: 2
#     Edge 113, Type (0, 1), BuildingBlock: AJUNOK_clean_linker_0, # of connection points: 2
#     Edge 114, Type (0, 1), BuildingBlock: AJUNOK_clean_linker_0, # of connection points: 2
#     Edge 115, Type (0, 1), BuildingBlock: AJUNOK_clean_linker_0, # of connection points: 2
#     Edge 116, Type (0, 1), BuildingBlock: AJUNOK_clean_linker_0, # of connection points: 2
#     Edge 117, Type (0, 1), BuildingBlock: AJUNOK_clean_linker_0, # of connection points: 2
#     Edge 118, Type (0, 1), BuildingBlock: AJUNOK_clean_linker_0, # of connection points: 2
#     Edge 119, Type (0, 1), BuildingBlock: AJUNOK_clean_linker_0, # of connection points: 2
#     Edge 120, Type (0, 1), BuildingBlock: AJUNOK_clean_linker_0, # of connection points: 2
#     Edge 121, Type (0, 1), BuildingBlock: AJUNOK_clean_linker_0, # of connection points: 2
#     Edge 122, Type (0, 1), BuildingBlock: AJUNOK_clean_linker_0, # of connection points: 2
#     Edge 123, Type (0, 1), BuildingBlock: AJUNOK_clean_linker_0, # of connection points: 2
#     Edge 124, Type (0, 1), BuildingBlock: AJUNOK_clean_linker_0, # of connection points: 2
#     Edge 125, Type (0, 1), BuildingBlock: AJUNOK_clean_linker_0, # of connection points: 2
#     Edge 126, Type (0, 1), BuildingBlock: AJUNOK_clean_linker_0, # of connection points: 2
#     Edge 127, Type (0, 1), BuildingBlock: AJUNOK_clean_linker_0, # of connection points: 2
#     Edge 128, Type (0, 1), BuildingBlock: AJUNOK_clean_linker_0, # of connection points: 2
#     Edge 129, Type (0, 1), BuildingBlock: AJUNOK_clean_linker_0, # of connection points: 2
#     Edge 130, Type (0, 1), BuildingBlock: AJUNOK_clean_linker_0, # of connection points: 2
#     Edge 131, Type (0, 1), BuildingBlock: AJUNOK_clean_linker_0, # of connection points: 2
#     Edge 132, Type (0, 1), BuildingBlock: AJUNOK_clean_linker_0, # of connection points: 2
#     Edge 133, Type (0, 1), BuildingBlock: AJUNOK_clean_linker_0, # of connection points: 2
#     Edge 134, Type (0, 1), BuildingBlock: AJUNOK_clean_linker_0, # of connection points: 2
#     Edge 135, Type (0, 1), BuildingBlock: AJUNOK_clean_linker_0, # of connection points: 2
# Relax obj value: 0.255
# Max RMSD: 0.375
# Mean RMSD: 0.190
data_MOF--net-gar--node1-QUQFOY_clean_sbu_1--node2-BETDIP_clean_sbu_0--edge1-AJUNOK_clean_linker_0
_symmetry_space_group_name_H-M    P1
_symmetry_Int_Tables_number       1
_symmetry_cell_setting            triclinic
loop_
_symmetry_equiv_pos_as_xyz
'x, y, z'
_cell_length_a     50.605172
_cell_length_b     43.655618
_cell_length_c     41.304472
_cell_angle_alpha  98.132439
_cell_angle_beta   99.9499
_cell_angle_gamma 105.13122
loop_
_atom_site_label
_atom_site_type_symbol
_atom_site_fract_x
_atom_site_fract_y
_atom_site_fract_z
_atom_type_partial_charge
O0 O 1.02699 0.29594 0.435 0.0
Cd1 Cd 0.03731 0.33092 0.40881 0.0
Cd2 Cd 0.03792 0.3689 0.467 0.0
O3 O 0.04628 0.33023 0.4828 0.0
O4 O 0.05175 0.31101 0.37313 0.0
O5 O 0.07706 0.35314 0.41349 0.0
C6 C 0.07566 0.33166 0.38771 0.0
C7 C 0.05208 0.41417 0.50913 0.0
C8 C 0.03587 0.30158 0.46636 0.0
C9 C 0.99142 0.35598 0.40576 0.0
O10 O 0.99957 0.36271 0.4374 0.0
O11 O 1.00639 0.34652 0.3874 0.0
O12 O 0.03213 0.38939 0.51001 0.0
O13 O 0.06416 0.41363 0.4841 0.0
O14 O 0.07352 0.72735 0.76423 0.0
Cd15 Cd 0.09001 0.76608 0.80288 0.0
Cd16 Cd 0.0993 0.7854 0.75231 0.0
O17 O 0.06038 0.75769 0.73116 0.0
O18 O 0.06863 0.76626 0.83832 0.0
O19 O 0.06914 0.79795 0.80047 0.0
C20 C 0.05934 0.78765 0.82505 0.0
C21 C 0.11266 0.83595 0.74473 0.0
C22 C 0.06163 0.73012 0.73551 0.0
C23 C 0.14352 0.77075 0.79123 0.0
O24 O 0.12928 0.76354 0.76156 0.0
O25 O 0.13316 0.78086 0.8151 0.0
O26 O 0.11119 0.81233 0.7212 0.0
O27 O 0.10671 0.83067 0.77292 0.0
O28 O 0.58899 0.85328 0.93233 0.0
Cd29 Cd 0.55751 0.84878 0.95691 0.0
Cd30 Cd 0.53804 0.87574 0.91505 0.0
O31 O 0.56405 0.86003 0.88646 0.0
O32 O 0.57368 0.82796 0.98915 0.0
O33 O 0.5324 0.80438 0.95454 0.0
C34 C 0.55212 0.80323 0.9783 0.0
C35 C 0.48981 0.8588 0.90009 0.0
C36 C 0.58573 0.85426 0.9016 0.0
C37 C 0.55726 0.9129 0.98446 0.0
O38 O 0.55258 0.91624 0.95409 0.0
O39 O 0.55739 0.88576 0.9912 0.0
O40 O 0.5045 0.88048 0.88683 0.0
O41 O 0.50283 0.84441 0.91986 0.0
O42 O 0.57921 0.21517 0.259 0.0
Cd43 Cd 0.59192 0.24944 0.30213 0.0
Cd44 Cd 0.60306 0.28398 0.25692 0.0
O45 O 0.57239 0.24848 0.22516 0.0
O46 O 0.56446 0.24821 0.33156 0.0
O47 O 0.57542 0.28512 0.30051 0.0
C48 C 0.56025 0.27311 0.32019 0.0
C49 C 0.61314 0.33495 0.24743 0.0
C50 C 0.57075 0.22017 0.23002 0.0
C51 C 0.64768 0.26378 0.29801 0.0
O52 O 0.6374 0.27184 0.27173 0.0
O53 O 0.63397 0.25933 0.32081 0.0
O54 O 0.61805 0.31251 0.2278 0.0
O55 O 0.60133 0.3282 0.27174 0.0
O56 O 0.09794 0.78266 0.20331 0.0
Cd57 Cd 0.10172 0.82332 0.23589 0.0
Cd58 Cd 0.12408 0.85154 0.18421 0.0
O59 O 0.10999 0.80084 0.15902 0.0
O60 O 0.08014 0.80523 0.26904 0.0
O61 O 0.06646 0.83677 0.23651 0.0
C62 C 0.06158 0.81885 0.25835 0.0
C63 C 0.1098 0.89738 0.16306 0.0
C64 C 0.10168 0.7771 0.17378 0.0
C65 C 0.16445 0.85135 0.25126 0.0
O66 O 0.16196 0.85758 0.22154 0.0
O67 O 0.14256 0.84194 0.26287 0.0
O68 O 0.12931 0.88655 0.15365 0.0
O69 O 0.098 0.88261 0.18422 0.0
O70 O 0.58615 0.80489 0.5005 0.0
Cd71 Cd 0.56592 0.79782 0.53978 0.0
Cd72 Cd 0.52472 0.82124 0.47514 0.0
O73 O 0.55966 0.81499 0.45613 0.0
O74 O 0.59136 0.77847 0.57117 0.0
O75 O 0.54788 0.75135 0.54702 0.0
C76 C 0.57133 0.75178 0.56565 0.0
C77 C 0.47923 0.81946 0.44182 0.0
C78 C 0.5827 0.81104 0.47098 0.0
C79 C 0.55076 0.86299 0.54911 0.0
O80 O 0.53788 0.8562 0.51844 0.0
O81 O 0.56146 0.84299 0.56293 0.0
O82 O 0.50193 0.8418 0.44273 0.0
O83 O 0.48236 0.79695 0.45801 0.0
O84 O 0.60763 0.27814 0.70724 0.0
Cd85 Cd 0.61285 0.31657 0.74364 0.0
Cd86 Cd 0.63416 0.34779 0.69225 0.0
O87 O 0.61943 0.29846 0.66405 0.0
O88 O 0.58707 0.29393 0.77073 0.0
O89 O 0.57957 0.33388 0.74684 0.0
C90 C 0.57074 0.31118 0.76275 0.0
C91 C 0.61933 0.39352 0.67204 0.0
C92 C 0.61062 0.2739 0.67732 0.0
C93 C 0.67568 0.34399 0.75858 0.0
O94 O 0.67181 0.35278 0.72997 0.0
O95 O 0.65447 0.33216 0.7707 0.0
O96 O 0.63846 0.38266 0.6616 0.0
O97 O 0.60856 0.37893 0.69397 0.0
O98 O 0.04444 0.24659 1.00843 0.0
Cd99 Cd 0.04111 0.28155 0.97746 0.0
Cd100 Cd 1.02244 0.308 0.03398 0.0
O101 O 0.03459 0.26918 0.05427 0.0
O102 O 0.06224 0.2708 0.94209 0.0
O103 O 0.07909 0.31508 0.9808 0.0
C104 C 0.08276 0.29642 0.95583 0.0
C105 C 0.04005 0.36404 0.06013 0.0
C106 C 0.04244 0.24655 0.03892 0.0
C107 C 0.982 0.29529 0.96589 0.0
O108 O 0.98498 0.30005 0.99769 0.0
O109 O 1.00182 0.28889 0.95297 0.0
O110 O 1.0216 0.34377 0.07073 0.0
O111 O 0.05023 0.35213 0.03634 0.0
O112 O 0.45224 0.0895 0.28037 0.0
Cd113 Cd 0.41827 0.09586 0.31051 0.0
Cd114 Cd 0.47365 0.06484 0.36 0.0
O115 O 0.48546 0.0731 0.31181 0.0
O116 O 0.38561 0.11915 0.292 0.0
O117 O 0.41641 0.1434 0.33662 0.0
C118 C 0.39433 0.14447 0.31603 0.0
C119 C 0.50346 0.06806 0.41766 0.0
C120 C 0.47532 0.08033 0.28357 0.0
C121 C 0.40792 1.02451 0.33541 0.0
O122 O 0.43397 0.02985 0.34871 0.0
O123 O 0.39885 0.04672 0.32278 0.0
O124 O 0.50129 0.04646 0.39166 0.0
O125 O 0.49039 0.08905 0.41119 0.0
O126 O 0.31036 0.21648 0.63835 0.0
Cd127 Cd 0.3049 0.18062 0.59893 0.0
Cd128 Cd 0.27912 0.22741 0.56833 0.0
O129 O 0.29354 0.2539 0.61891 0.0
O130 O 0.32599 0.15187 0.6207 0.0
O131 O 0.34117 0.1791 0.58352 0.0
C132 C 0.34549 0.16103 0.60481 0.0
C133 C 0.29286 0.24888 0.5197 0.0
C134 C 0.30416 0.24278 0.64355 0.0
C135 C 0.23971 0.16247 0.57706 0.0
O136 O 0.24205 0.18909 0.56638 0.0
O137 O 0.26178 0.15394 0.58691 0.0
O138 O 0.27284 0.25539 0.53236 0.0
O139 O 0.30499 0.23013 0.53415 0.0
O140 O 0.15694 0.09213 0.82436 0.0
Cd141 Cd 0.18637 0.09285 0.86356 0.0
Cd142 Cd 0.153 0.1254 0.89312 0.0
O143 O 0.12655 0.11302 0.84433 0.0
O144 O 0.20562 0.07059 0.83461 0.0
O145 O 0.18842 0.05062 0.87538 0.0
C146 C 0.20006 0.04718 0.85022 0.0
C147 C 0.1364 0.10745 0.94056 0.0
C148 C 0.13443 0.09974 0.81962 0.0
C149 C 0.21362 0.16171 0.89063 0.0
O150 O 0.19027 0.16349 0.89741 0.0
O151 O 0.21705 0.13478 0.87986 0.0
O152 O 0.13269 0.1332 0.93084 0.0
O153 O 0.14983 0.09196 0.9237 0.0
O154 O 0.25783 0.87513 0.0746 0.0
Cd155 Cd 0.24715 0.89465 0.03543 0.0
Cd156 Cd 0.25599 0.84245 0.01721 0.0
O157 O 0.24589 0.82328 0.056 0.0
O158 O 0.2135 0.91071 0.03561 0.0
O159 O 0.25595 0.93574 0.06613 0.0
C160 C 0.23 0.93402 0.05891 0.0
C161 C 0.23686 0.82938 0.9629 0.0
C162 C 0.25704 0.84732 0.07988 0.0
C163 C 0.30086 0.90047 0.02276 0.0
O164 O 0.29623 0.87216 0.02887 0.0
O165 O 0.28034 0.9114 0.01414 0.0
O166 O 0.24989 0.81125 0.97721 0.0
O167 O 0.23137 0.85278 0.98077 0.0
O168 O 0.35545 0.42746 0.18816 0.0
Cd169 Cd 0.35905 0.45548 0.15041 0.0
Cd170 Cd 0.37444 0.40354 0.12218 0.0
O171 O 0.35699 0.38206 0.15847 0.0
O172 O 0.33943 0.48958 0.16066 0.0
O173 O 0.32178 0.44929 0.11736 0.0
C174 C 0.31917 0.47469 0.13522 0.0
C175 C 0.35981 0.37979 0.06565 0.0
C176 C 0.35278 0.3972 0.18482 0.0
C177 C 0.41929 0.46588 0.13688 0.0
O178 O 0.41456 0.43543 0.13367 0.0
O179 O 0.39945 0.47834 0.14095 0.0
O180 O 0.37461 0.36794 0.08631 0.0
O181 O 0.35197 0.40423 0.07735 0.0
O182 O 0.92513 0.26422 0.23895 0.0
Cd183 Cd 0.89833 0.2348 0.19547 0.0
Cd184 Cd 0.87376 0.2887 0.19113 0.0
O185 O 0.91602 0.29812 0.21043 0.0
O186 O 0.91178 0.19814 0.18906 0.0
O187 O 0.91156 0.23191 0.15313 0.0
C188 C 0.91523 0.20528 0.16054 0.0
C189 C 0.86172 0.29953 0.14226 0.0
C190 C 0.91991 0.29086 0.2389 0.0
C191 C 0.83505 0.22372 0.18944 0.0
O192 O 0.83875 0.254 0.19601 0.0
O193 O 0.85559 0.21252 0.18764 0.0
O194 O 0.86115 0.31958 0.1682 0.0
O195 O 0.8718 0.27558 0.14507 0.0
O196 O 0.19055 0.54216 0.3171 0.0
Cd197 Cd 0.23005 0.54417 0.35307 0.0
Cd198 Cd 0.18107 0.58463 0.39702 0.0
O199 O 0.16234 0.56564 0.34316 0.0
O200 O 0.25826 0.51683 0.33464 0.0
O201 O 0.23801 0.50201 0.37335 0.0
C202 C 0.25474 0.4961 0.35434 0.0
C203 C 0.15527 0.58598 0.44691 0.0
C204 C 0.16828 0.55229 0.31612 0.0
C205 C 0.2414 0.62427 0.38214 0.0
O206 O 0.21888 0.62109 0.39403 0.0
O207 O 0.24858 0.59901 0.36956 0.0
O208 O 0.15515 0.60525 0.42577 0.0
O209 O 0.16947 0.566 0.44036 0.0
O210 O 0.85785 0.92848 0.69201 0.0
Cd211 Cd 0.86225 0.956 0.65347 0.0
Cd212 Cd 0.88047 0.9054 0.6293 0.0
O213 O 0.86374 0.88383 0.66623 0.0
O214 O 0.8405 0.98798 0.6628 0.0
O215 O 0.82606 0.9488 0.61824 0.0
C216 C 0.82153 0.97282 0.63622 0.0
C217 C 0.86268 0.8822 0.57293 0.0
C218 C 0.85697 0.8988 0.69073 0.0
C219 C 0.9229 0.96918 0.63935 0.0
O220 O 0.92007 0.93924 0.6386 0.0
O221 O 0.9021 0.9801 0.64293 0.0
O222 O 0.87949 0.87084 0.59153 0.0
O223 O 0.85495 0.90595 0.58656 0.0
O224 O 0.98123 0.03175 0.26184 0.0
Cd225 Cd 0.95498 1.02355 0.29401 0.0
Cd226 Cd 0.99752 1.00945 0.33302 0.0
O227 O 1.0182 1.02507 0.2936 0.0
O228 O 0.9287 0.04778 0.2811 0.0
O229 O 0.9587 0.06052 0.33037 0.0
C230 C 0.93913 0.06657 0.31006 0.0
C231 C 1.0185 0.03014 0.39067 0.0
C232 C 1.00696 0.03318 0.26708 0.0
C233 C 0.93698 0.96122 0.31426 0.0
O234 O 0.9627 0.96812 0.32927 0.0
O235 O 0.92932 0.97959 0.29591 0.0
O236 O 1.02573 1.00793 0.37332 0.0
O237 O 1.001 0.04258 0.37464 0.0
O238 O 0.43154 0.76931 0.72834 0.0
Cd239 Cd 0.40248 0.73094 0.69551 0.0
Cd240 Cd 0.37959 0.77981 0.66427 0.0
O241 O 0.42027 0.79331 0.68938 0.0
O242 O 0.41687 0.69532 0.68569 0.0
O243 O 0.40831 0.7279 0.65002 0.0
C244 C 0.41607 0.70305 0.65651 0.0
C245 C 0.36432 0.79293 0.6168 0.0
C246 C 0.42466 0.79344 0.72045 0.0
C247 C 0.34121 0.72326 0.68528 0.0
O248 O 0.34547 0.75016 0.67586 0.0
O249 O 0.36109 0.71195 0.69536 0.0
O250 O 0.36766 0.81279 0.64451 0.0
O251 O 0.37367 0.768 0.61619 0.0
O252 O 0.48306 0.53369 0.77073 0.0
Cd253 Cd 0.45732 0.5301 0.80412 0.0
Cd254 Cd 0.49849 0.50969 0.84123 0.0
O255 O 0.5194 0.52736 0.80436 0.0
O256 O 0.42805 0.54809 0.78454 0.0
O257 O 0.45749 0.57051 0.83363 0.0
C258 C 0.43624 0.57037 0.81115 0.0
C259 C 0.51857 0.52869 0.89865 0.0
C260 C 0.50868 0.53453 0.77719 0.0
C261 C 0.43974 0.46508 0.82372 0.0
O262 O 0.46546 0.46666 0.83304 0.0
O263 O 0.43307 0.48796 0.81209 0.0
O264 O 0.52664 0.50757 0.88083 0.0
O265 O 0.50023 0.54053 0.88331 0.0
O266 O 0.69112 0.04151 0.81234 0.0
Cd267 Cd 0.72807 0.04313 0.85131 0.0
Cd268 Cd 0.68165 0.08253 0.89136 0.0
O269 O 0.66223 0.06398 0.8374 0.0
O270 O 0.75536 1.01482 0.83511 0.0
O271 O 0.73403 1.00185 0.87388 0.0
C272 C 0.75086 0.99499 0.85555 0.0
C273 C 0.65673 0.08244 0.94127 0.0
C274 C 0.66886 0.05149 0.81051 0.0
C275 C 0.74224 0.12254 0.88017 0.0
O276 O 0.71935 0.12023 0.89095 0.0
O277 O 0.74857 0.09681 0.86766 0.0
O278 O 0.65309 0.09902 0.91814 0.0
O279 O 0.6739 0.06571 0.93667 0.0
O280 O 0.80622 0.7183 0.14724 0.0
Cd281 Cd 0.80243 0.68296 0.10773 0.0
Cd282 Cd 0.77928 0.73139 0.07667 0.0
O283 O 0.79388 0.75797 0.12696 0.0
O284 O 0.82461 0.6559 0.1305 0.0
O285 O 0.83838 0.68167 0.09172 0.0
C286 C 0.84367 0.66471 0.11387 0.0
C287 C 0.79043 0.75426 0.02766 0.0
C288 C 0.80173 0.74564 0.15196 0.0
C289 C 0.73852 0.66577 0.08334 0.0
O290 O 0.74204 0.69381 0.07552 0.0
O291 O 0.75964 0.65535 0.09227 0.0
O292 O 0.77343 0.76281 0.04458 0.0
O293 O 0.80111 0.73255 0.03792 0.0
O294 O 0.95314 0.59566 0.79105 0.0
Cd295 Cd 0.91762 0.59949 0.81868 0.0
Cd296 Cd 0.97265 0.56756 0.86803 0.0
O297 O 0.98471 0.57498 0.81982 0.0
O298 O 0.88909 0.62636 0.79667 0.0
O299 O 0.91084 0.64286 0.84779 0.0
C300 C 0.89327 0.64779 0.82369 0.0
C301 C 1.00224 0.57138 0.92567 0.0
C302 C 0.97523 0.58475 0.79296 0.0
C303 C 0.90705 0.52713 0.84208 0.0
O304 O 0.9327 0.53323 0.85737 0.0
O305 O 0.89817 0.54869 0.82776 0.0
O306 O 0.99779 0.54764 0.90089 0.0
O307 O 0.99176 0.5941 0.91791 0.0
O308 O 0.77406 0.38585 0.59403 0.0
Cd309 Cd 0.75656 0.39443 0.55016 0.0
Cd310 Cd 0.76171 0.34226 0.54089 0.0
O311 O 0.75081 0.33485 0.58386 0.0
O312 O 0.75807 0.4378 0.56843 0.0
O313 O 0.71821 0.39793 0.54671 0.0
C314 C 0.73128 0.42698 0.56296 0.0
C315 C 0.74925 0.31803 0.4901 0.0
C316 C 0.76834 0.35922 0.60364 0.0
C317 C 0.80565 0.39725 0.53346 0.0
O318 O 0.80189 0.37231 0.54662 0.0
O319 O 0.78438 0.4052 0.52075 0.0
O320 O 0.75803 0.3028 0.51252 0.0
O321 O 0.73868 0.34138 0.4981 0.0
O322 O 0.66442 0.58779 0.33333 0.0
Cd323 Cd 0.69122 0.58974 0.37587 0.0
Cd324 Cd 0.65591 0.62248 0.39933 0.0
O325 O 0.63094 0.6051 0.34951 0.0
O326 O 0.71612 0.57271 0.35133 0.0
O327 O 0.69391 0.54644 0.38526 0.0
C328 C 0.70994 0.54747 0.36413 0.0
C329 C 0.63988 0.60807 0.44858 0.0
C330 C 0.64097 0.59298 0.32614 0.0
C331 C 0.71592 0.66024 0.39884 0.0
O332 O 0.69159 0.66219 0.4016 0.0
O333 O 0.72043 0.63291 0.39465 0.0
O334 O 0.63285 0.63013 0.43424 0.0
O335 O 0.65599 0.59399 0.43507 0.0
Tb336 Tb 0.04937 0.05701 0.08858 0.0
Tb337 Tb 0.10343 0.09458 0.12947 0.0
C338 C 0.99784 0.04409 0.0705 0.0
C339 C 0.98363 0.06896 0.07634 0.0
C340 C 0.99272 0.0912 0.10706 0.0
C341 C 0.98081 0.11597 0.11281 0.0
C342 C 0.95956 0.11896 0.08806 0.0
C343 C 0.95106 0.09788 0.05687 0.0
C344 C 0.96334 0.07301 0.05088 0.0
C345 C 0.08869 0.06529 0.05339 0.0
C346 C 0.06853 0.13695 0.09885 0.0
C347 C 0.15508 0.10859 0.14747 0.0
C348 C 0.16948 0.08473 0.13824 0.0
C349 C 0.15995 0.06495 0.10607 0.0
C350 C 0.16931 0.03843 0.09819 0.0
C351 C 0.18848 0.03102 0.12224 0.0
C352 C 0.19841 0.05085 0.15433 0.0
C353 C 0.18876 0.07753 0.16238 0.0
C354 C 0.06391 0.08421 0.16463 0.0
C355 C 0.08488 1.01462 0.11786 0.0
O356 O 1.00978 0.03663 0.09778 0.0
O357 O 1.01421 0.04849 0.04926 0.0
O358 O 0.08599 0.08546 0.07688 0.0
O359 O 0.06796 0.03888 0.04849 0.0
O360 O 0.04836 0.10872 0.08999 0.0
O361 O 0.09373 0.13788 0.11516 0.0
O362 O 0.14291 0.11853 0.12215 0.0
O363 O 0.13865 0.10096 0.1681 0.0
O364 O 0.06719 0.06509 0.14084 0.0
O365 O 0.0843 0.11104 0.17012 0.0
O366 O 0.10489 0.04305 0.12618 0.0
O367 O 0.05939 1.01349 0.10204 0.0
H368 H 1.00897 0.0894 0.12687 0.0
H369 H 0.98703 0.13172 0.13733 0.0
H370 H 0.93419 0.09978 0.03793 0.0
H371 H 0.95671 0.05668 0.02676 0.0
H372 H 0.14447 0.06926 0.08707 0.0
H373 H 0.16173 1.02391 0.07306 0.0
H374 H 0.21297 0.04522 0.17341 0.0
H375 H 0.19558 0.09181 0.1876 0.0
Tb376 Tb 0.32351 0.80969 0.31876 0.0
Tb377 Tb 0.31184 0.83907 0.38019 0.0
C378 C 0.32099 0.7889 0.25928 0.0
C379 C 0.3294 0.8085 0.23564 0.0
C380 C 0.32333 0.83806 0.23636 0.0
C381 C 0.32946 0.85551 0.21195 0.0
C382 C 0.34051 0.84252 0.18609 0.0
C383 C 0.35193 0.81692 0.18971 0.0
C384 C 0.34578 0.79935 0.2143 0.0
C385 C 0.36829 0.81596 0.36622 0.0
C386 C 0.3441 0.88815 0.33993 0.0
C387 C 0.31448 0.85844 0.43992 0.0
C388 C 0.30275 0.83774 0.46123 0.0
C389 C 0.30529 0.80624 0.4583 0.0
C390 C 0.2949 0.78686 0.47961 0.0
C391 C 0.28558 0.80088 0.50634 0.0
C392 C 0.27707 0.82875 0.5044 0.0
C393 C 0.28641 0.84782 0.4821 0.0
C394 C 0.26824 0.83789 0.33356 0.0
C395 C 0.29224 0.76033 0.3602 0.0
O396 O 0.29887 0.79215 0.27023 0.0
O397 O 0.34194 0.79005 0.28301 0.0
O398 O 0.34638 0.82399 0.36964 0.0
O399 O 0.36513 0.804 0.3351 0.0
O400 O 0.34117 0.86216 0.31667 0.0
O401 O 0.33503 0.8845 0.36772 0.0
O402 O 0.3359 0.85254 0.42922 0.0
O403 O 0.29542 0.86175 0.41632 0.0
O404 O 0.28883 0.82735 0.32795 0.0
O405 O 0.27245 0.84808 0.36519 0.0
O406 O 0.29409 0.7866 0.38235 0.0
O407 O 0.30163 0.76382 0.33253 0.0
H408 H 0.31205 0.84649 0.25408 0.0
H409 H 0.32089 0.87569 0.21019 0.0
H410 H 0.36115 0.80727 0.17032 0.0
H411 H 0.35212 0.77757 0.21524 0.0
H412 H 0.31714 0.79747 0.4416 0.0
H413 H 0.30056 0.76457 0.48008 0.0
H414 H 0.26868 0.839 0.52432 0.0
H415 H 0.28277 0.87127 0.4829 0.0
Tb416 Tb 0.61219 0.0724 0.60926 0.0
Tb417 Tb 0.55681 0.06351 0.62924 0.0
C418 C 0.66252 0.07217 0.61252 0.0
C419 C 0.67938 0.04911 0.60881 0.0
C420 C 0.68057 0.027 0.63035 0.0
C421 C 0.70066 1.0101 0.63098 0.0
C422 C 0.72002 1.01479 0.61009 0.0
C423 C 0.71751 0.03522 0.58697 0.0
C424 C 0.69741 0.05215 0.58635 0.0
C425 C 0.57289 0.0692 0.55335 0.0
C426 C 0.57054 1.00103 0.60015 0.0
C427 C 0.50948 0.06803 0.63756 0.0
C428 C 0.49078 0.08936 0.63594 0.0
C429 C 0.4857 0.10483 0.60878 0.0
C430 C 0.46457 0.12053 0.606 0.0
C431 C 0.44795 0.12064 0.63006 0.0
C432 C 0.45411 0.10667 0.65796 0.0
C433 C 0.47538 0.09146 0.66095 0.0
C434 C 0.59737 0.05548 0.67705 0.0
C435 C 0.59607 0.13539 0.63139 0.0
O436 O 0.65066 0.07291 0.63819 0.0
O437 O 0.64635 0.07518 0.58561 0.0
O438 O 0.56972 0.06748 0.58319 0.0
O439 O 0.59934 0.07274 0.555 0.0
O440 O 0.59642 1.0198 0.60351 0.0
O441 O 0.54996 1.01304 0.60596 0.0
O442 O 0.5137 0.05415 0.60942 0.0
O443 O 0.53212 0.07725 0.66155 0.0
O444 O 0.60019 0.07638 0.65783 0.0
O445 O 0.57089 0.03955 0.66948 0.0
O446 O 0.57141 0.11557 0.63154 0.0
O447 O 0.61679 0.12422 0.62425 0.0
H448 H 0.66689 1.02383 0.64787 0.0
H449 H 0.70178 0.99427 0.64882 0.0
H450 H 0.73221 0.03978 0.57078 0.0
H451 H 0.69701 0.06902 0.56953 0.0
H452 H 0.49727 0.10375 0.58915 0.0
H453 H 0.46026 0.1311 0.5842 0.0
H454 H 0.44181 0.10659 0.67698 0.0
H455 H 0.47893 0.07994 0.68221 0.0
Tb456 Tb 0.30164 0.32246 0.85136 0.0
Tb457 Tb 0.35264 0.29801 0.85803 0.0
C458 C 0.25501 0.33068 0.85674 0.0
C459 C 0.23544 0.32913 0.87978 0.0
C460 C 0.22751 0.30233 0.89504 0.0
C461 C 0.2051 0.29879 0.91141 0.0
C462 C 0.1901 0.32183 0.9127 0.0
C463 C 0.19952 0.34976 0.89965 0.0
C464 C 0.2219 0.35329 0.8833 0.0
C465 C 0.34667 0.36203 0.8399 0.0
C466 C 0.34099 0.33074 0.92337 0.0
C467 C 0.39725 0.28392 0.85401 0.0
C468 C 0.41689 0.28194 0.83188 0.0
C469 C 0.41973 0.30036 0.80674 0.0
C470 C 0.4421 0.30216 0.79051 0.0
C471 C 0.46163 0.28514 0.79882 0.0
C472 C 0.45739 0.26502 0.82236 0.0
C473 C 0.43522 0.26344 0.83863 0.0
C474 C 0.3073 0.25968 0.8702 0.0
C475 C 0.31612 0.29534 0.78529 0.0
O476 O 0.25807 0.30324 0.84292 0.0
O477 O 0.27863 0.35415 0.86516 0.0
O478 O 0.3462 0.34432 0.86145 0.0
O479 O 0.32109 0.36095 0.82694 0.0
O480 O 0.31561 0.32744 0.90576 0.0
O481 O 0.36085 0.32376 0.90943 0.0
O482 O 0.39643 0.3129 0.86641 0.0
O483 O 0.37242 0.26263 0.84535 0.0
O484 O 0.30831 0.27616 0.84759 0.0
O485 O 0.33257 0.26292 0.88609 0.0
O486 O 0.34036 0.29559 0.80383 0.0
O487 O 0.29581 0.30203 0.79855 0.0
H488 H 0.23776 0.28343 0.89309 0.0
H489 H 0.19877 0.27735 0.92191 0.0
H490 H 0.18851 0.36797 0.90031 0.0
H491 H 0.22769 0.3742 0.87184 0.0
H492 H 0.40527 0.31401 0.80032 0.0
H493 H 0.44457 0.3175 0.77213 0.0
H494 H 0.47215 0.25192 0.82977 0.0
H495 H 0.43324 0.24892 0.85779 0.0
Tb496 Tb 0.07204 0.10117 0.61041 0.0
Tb497 Tb 0.08549 0.03667 0.60112 0.0
C498 C 0.07776 0.15921 0.61283 0.0
C499 C 0.06596 0.17385 0.58673 0.0
C500 C 0.0819 0.18446 0.56368 0.0
C501 C 0.07071 0.19777 0.53823 0.0
C502 C 0.04368 0.20078 0.53594 0.0
C503 C 1.02695 0.18828 0.55731 0.0
C504 C 0.03808 0.17486 0.5828 0.0
C505 C 1.02671 0.05463 0.61422 0.0
C506 C 0.05777 0.05888 0.53698 0.0
C507 C 0.08268 0.97879 0.59604 0.0
C508 C 0.09 0.96271 0.6229 0.0
C509 C 0.08053 0.96809 0.65251 0.0
C510 C 0.08971 0.95516 0.67935 0.0
C511 C 0.10859 0.93694 0.67709 0.0
C512 C 0.11883 0.9326 0.64777 0.0
C513 C 0.10976 0.94578 0.6209 0.0
C514 C 0.13105 0.08342 0.59792 0.0
C515 C 0.09587 0.0778 0.67493 0.0
O516 O 0.09665 0.14555 0.60525 0.0
O517 O 0.05968 0.14152 0.62691 0.0
O518 O 0.05034 0.05203 0.60958 0.0
O519 O 1.0282 0.08484 0.61538 0.0
O520 O 0.05823 0.08642 0.55576 0.0
O521 O 0.06664 0.03629 0.54965 0.0
O522 O 0.06062 0.98916 0.59618 0.0
O523 O 0.10422 1.00029 0.59129 0.0
O524 O 0.10731 0.08589 0.60225 0.0
O525 O 0.1293 0.05327 0.59654 0.0
O526 O 0.09374 0.04959 0.65598 0.0
O527 O 0.09092 0.10218 0.66195 0.0
H528 H 0.10323 0.18323 0.56576 0.0
H529 H 0.08389 0.2079 0.52197 0.0
H530 H 1.00607 0.19094 0.55564 0.0
H531 H 1.02512 0.16609 0.59979 0.0
H532 H 0.06612 0.98231 0.65509 0.0
H533 H 0.08135 0.95865 0.70158 0.0
H534 H 0.1326 0.91766 0.64473 0.0
H535 H 0.11794 0.94259 0.59847 0.0
Tb536 Tb 0.31477 0.7761 0.82666 0.0
Tb537 Tb 0.31913 0.84744 0.8329 0.0
C538 C 0.32179 0.72198 0.81126 0.0
C539 C 0.34424 0.7067 0.81654 0.0
C540 C 0.35929 0.70273 0.79152 0.0
C541 C 0.37792 0.68438 0.79449 0.0
C542 C 0.38127 0.66952 0.82218 0.0
C543 C 0.36726 0.67445 0.84786 0.0
C544 C 0.34882 0.69303 0.8451 0.0
C545 C 0.28994 0.79691 0.87021 0.0
C546 C 0.36912 0.83098 0.8729 0.0
C547 C 0.31162 0.9017 0.83872 0.0
C548 C 0.28751 0.91338 0.82996 0.0
C549 C 0.26253 0.90126 0.84037 0.0
C550 C 0.24094 0.91526 0.83411 0.0
C551 C 0.24474 0.9423 0.8187 0.0
C552 C 0.2689 0.95255 0.80601 0.0
C553 C 0.29 0.93786 0.8113 0.0
C554 C 0.34333 0.82506 0.78865 0.0
C555 C 0.26113 0.79401 0.7982 0.0
O556 O 0.3239 0.74314 0.79152 0.0
O557 O 0.31286 0.73088 0.83794 0.0
O558 O 0.31255 0.81294 0.86415 0.0
O559 O 0.28274 0.76702 0.85476 0.0
O560 O 0.35601 0.79986 0.86054 0.0
O561 O 0.35698 0.8539 0.86906 0.0
O562 O 0.31192 0.88555 0.86316 0.0
O563 O 0.31955 0.8887 0.81298 0.0
O564 O 0.32038 0.81001 0.79464 0.0
O565 O 0.35259 0.85401 0.80629 0.0
O566 O 0.27543 0.82464 0.80988 0.0
O567 O 0.27289 0.77036 0.79839 0.0
H568 H 0.35597 0.71283 0.76917 0.0
H569 H 0.38846 0.68017 0.7743 0.0
H570 H 0.36927 0.66232 0.86891 0.0
H571 H 0.33717 0.69529 0.86454 0.0
H572 H 0.26028 0.88232 0.85487 0.0
H573 H 0.22235 0.90682 0.84384 0.0
H574 H 0.2728 0.97374 0.7947 0.0
H575 H 0.30907 0.947 0.80267 0.0
Tb576 Tb 0.53999 0.06839 0.08688 0.0
Tb577 Tb 0.59126 0.06723 0.13455 0.0
C578 C 0.49186 0.04972 0.05041 0.0
C579 C 0.46505 0.02923 0.05424 0.0
C580 C 0.46026 0.99564 0.05143 0.0
C581 C 0.43401 0.97594 0.05182 0.0
C582 C 0.41221 0.98947 0.05548 0.0
C583 C 0.41731 1.02313 0.06008 0.0
C584 C 0.4436 0.04291 0.05937 0.0
C585 C 0.57081 0.12474 0.12146 0.0
C586 C 0.53587 0.06204 0.16582 0.0
C587 C 0.6408 0.08781 0.16761 0.0
C588 C 0.66791 0.10232 0.15911 0.0
C589 C 0.67273 0.13145 0.14703 0.0
C590 C 0.69971 0.14816 0.14496 0.0
C591 C 0.7222 0.13585 0.15445 0.0
C592 C 0.71709 0.10544 0.16355 0.0
C593 C 0.69005 0.08876 0.16591 0.0
C594 C 0.56178 1.01046 0.09685 0.0
C595 C 0.59545 0.07909 0.05725 0.0
O596 O 0.51103 0.03515 0.04775 0.0
O597 O 0.50202 0.07836 0.06994 0.0
O598 O 0.56594 0.09808 0.13066 0.0
O599 O 0.55696 0.12018 0.09067 0.0
O600 O 0.52264 0.0588 0.13361 0.0
O601 O 0.56359 0.06554 0.17223 0.0
O602 O 0.62327 0.1052 0.16609 0.0
O603 O 0.62833 0.05697 0.15545 0.0
O604 O 0.56603 0.03789 0.08936 0.0
O605 O 0.57567 1.0143 0.12761 0.0
O606 O 0.60826 0.07916 0.08868 0.0
O607 O 0.56784 0.07498 0.05041 0.0
H608 H 0.47636 0.98422 0.04767 0.0
H609 H 0.43043 0.94997 0.04747 0.0
H610 H 0.40068 0.03397 0.06304 0.0
H611 H 0.44693 0.06875 0.06185 0.0
H612 H 0.65604 0.14238 0.14102 0.0
H613 H 0.70338 0.17181 0.13826 0.0
H614 H 0.73434 0.09584 0.17134 0.0
H615 H 0.68679 0.06623 0.17493 0.0
Tb616 Tb 0.29265 0.29712 0.33037 0.0
Tb617 Tb 0.35139 0.33865 0.3614 0.0
C618 C 0.24133 0.27304 0.32588 0.0
C619 C 0.21944 0.28692 0.33515 0.0
C620 C 0.21978 0.29828 0.3689 0.0
C621 C 0.1978 0.30906 0.37738 0.0
C622 C 0.17537 0.30923 0.35224 0.0
C623 C 0.17577 0.29946 0.31846 0.0
C624 C 0.19754 0.28825 0.31001 0.0
C625 C 0.32016 0.32334 0.28768 0.0
C626 C 0.30456 0.37796 0.35503 0.0
C627 C 0.40018 0.36037 0.35442 0.0
C628 C 0.42296 0.34553 0.35193 0.0
C629 C 0.42507 0.3318 0.31986 0.0
C630 C 0.4462 0.31781 0.31602 0.0
C631 C 0.46638 0.31825 0.344 0.0
C632 C 0.46382 0.33056 0.37625 0.0
C633 C 0.4421 0.34408 0.38024 0.0
C634 C 0.33062 0.31007 0.40873 0.0
C635 C 0.34066 0.25931 0.33359 0.0
O636 O 0.26067 0.27159 0.35066 0.0
O637 O 0.25169 0.28252 0.30083 0.0
O638 O 0.32109 0.33563 0.31759 0.0
O639 O 0.30225 0.29449 0.28031 0.0
O640 O 0.28645 0.34772 0.34401 0.0
O641 O 0.33218 0.38061 0.36387 0.0
O642 O 0.37835 0.34722 0.32971 0.0
O643 O 0.39331 0.36643 0.38355 0.0
O644 O 0.31903 0.30764 0.37829 0.0
O645 O 0.3551 0.33129 0.4138 0.0
O646 O 0.3581 0.28921 0.34635 0.0
O647 O 0.31297 0.25616 0.32581 0.0
H648 H 0.23653 0.29803 0.38891 0.0
H649 H 0.19787 0.31595 0.40364 0.0
H650 H 0.15883 0.29971 0.29858 0.0
H651 H 0.19697 0.28 0.28383 0.0
H652 H 0.41051 0.33209 0.29742 0.0
H653 H 0.44729 0.30755 0.29098 0.0
H654 H 0.47917 0.33077 0.39816 0.0
H655 H 0.44064 0.35391 0.40523 0.0
Tb656 Tb 0.57213 0.59732 0.11832 0.0
Tb657 Tb 0.58728 0.53474 0.10678 0.0
C658 C 0.57323 0.65408 0.11972 0.0
C659 C 0.56492 0.66677 0.09038 0.0
C660 C 0.57872 0.66499 0.06373 0.0
C661 C 0.57033 0.677 0.03574 0.0
C662 C 0.54846 0.69112 0.03467 0.0
C663 C 0.53247 0.68917 0.05911 0.0
C664 C 0.54084 0.67716 0.08713 0.0
C665 C 0.52738 0.55042 0.12177 0.0
C666 C 0.55875 0.55615 0.04404 0.0
C667 C 0.58783 0.47799 0.10383 0.0
C668 C 0.59787 0.46484 0.13196 0.0
C669 C 0.59248 0.47465 0.16338 0.0
C670 C 0.6037 0.46385 0.19087 0.0
C671 C 0.61961 0.44233 0.18693 0.0
C672 C 0.62662 0.43437 0.156 0.0
C673 C 0.61599 0.44597 0.12863 0.0
C674 C 0.63146 0.58229 0.10183 0.0
C675 C 0.59873 0.57486 0.18151 0.0
O676 O 0.59597 0.64487 0.12141 0.0
O677 O 0.55252 0.63315 0.1268 0.0
O678 O 0.55077 0.54727 0.11635 0.0
O679 O 0.52942 0.58077 0.12503 0.0
O680 O 0.56012 0.58379 0.06332 0.0
O681 O 0.56668 0.53285 0.05605 0.0
O682 O 0.5651 0.4867 0.10466 0.0
O683 O 0.60758 0.49981 0.09636 0.0
O684 O 0.60816 0.58461 0.10812 0.0
O685 O 0.62973 0.55203 0.09841 0.0
O686 O 0.59846 0.54811 0.16155 0.0
O687 O 0.59063 0.59829 0.16993 0.0
H688 H 0.59664 0.65565 0.06497 0.0
H689 H 0.58298 0.67893 0.01702 0.0
H690 H 0.51565 0.70034 0.05845 0.0
H691 H 0.52919 0.67714 0.10683 0.0
H692 H 0.57909 0.49001 0.16668 0.0
H693 H 0.59818 0.47026 0.21461 0.0
H694 H 0.63841 0.41724 0.15216 0.0
H695 H 0.62117 0.43947 0.10471 0.0
Tb696 Tb 0.818 0.26802 0.34197 0.0
Tb697 Tb 0.81613 0.33672 0.33155 0.0
C698 C 0.82694 0.21545 0.34571 0.0
C699 C 0.84967 0.20113 0.34522 0.0
C700 C 0.86791 0.20781 0.32351 0.0
C701 C 0.88747 0.1909 0.32123 0.0
C702 C 0.88906 0.16762 0.34106 0.0
C703 C 0.87198 0.16258 0.36431 0.0
C704 C 0.85239 0.17939 0.36639 0.0
C705 C 0.79897 0.30117 0.38391 0.0
C706 C 0.87427 0.32621 0.35782 0.0
C707 C 0.81497 0.39348 0.34105 0.0
C708 C 0.79203 0.40784 0.33485 0.0
C709 C 0.77492 0.40899 0.35812 0.0
C710 C 0.75525 0.42577 0.35439 0.0
C711 C 0.75285 0.4421 0.32776 0.0
C712 C 0.76809 0.43874 0.30288 0.0
C713 C 0.78772 0.42165 0.30645 0.0
C714 C 0.8216 0.29791 0.28016 0.0
C715 C 0.76219 0.27801 0.31033 0.0
O716 O 0.81582 0.22217 0.31726 0.0
O717 O 0.83077 0.23803 0.37215 0.0
O718 O 0.81915 0.3121 0.37144 0.0
O719 O 0.79051 0.26999 0.37634 0.0
O720 O 0.86237 0.29459 0.3533 0.0
O721 O 0.86048 0.34735 0.35188 0.0
O722 O 0.81398 0.376 0.36441 0.0
O723 O 0.82203 0.38034 0.31449 0.0
O724 O 0.82973 0.2996 0.31055 0.0
O725 O 0.80931 0.32041 0.27718 0.0
O726 O 0.77254 0.30955 0.32156 0.0
O727 O 0.77736 0.2577 0.3098 0.0
H728 H 0.86645 0.22518 0.30774 0.0
H729 H 0.90053 0.195 0.30313 0.0
H730 H 0.87255 0.14428 0.37937 0.0
H731 H 0.83856 0.17445 0.38356 0.0
H732 H 0.77776 0.39864 0.38032 0.0
H733 H 0.74388 0.42858 0.37406 0.0
H734 H 0.76642 0.45147 0.28227 0.0
H735 H 0.80049 0.42075 0.28802 0.0
Tb736 Tb 0.04027 0.57831 0.59597 0.0
Tb737 Tb 0.09333 0.58369 0.64509 0.0
C738 C 0.99242 0.55245 0.55988 0.0
C739 C 0.96556 0.53335 0.56498 0.0
C740 C 0.96121 0.50034 0.56582 0.0
C741 C 0.93499 0.48106 0.56658 0.0
C742 C 0.91265 0.49434 0.56671 0.0
C743 C 0.91707 0.52754 0.56743 0.0
C744 C 0.94351 0.54702 0.56659 0.0
C745 C 0.06765 0.63652 0.62818 0.0
C746 C 0.03756 0.57588 0.67637 0.0
C747 C 0.14287 0.60957 0.67674 0.0
C748 C 0.17024 0.62059 0.66771 0.0
C749 C 0.17715 0.64939 0.65522 0.0
C750 C 0.20442 0.66321 0.65232 0.0
C751 C 0.22531 0.64867 0.662 0.0
C752 C 0.21809 0.61849 0.67152 0.0
C753 C 0.19065 0.60456 0.67454 0.0
C754 C 0.06712 0.52554 0.61064 0.0
C755 C 0.09537 0.58916 0.56497 0.0
O756 O 1.01229 0.53842 0.56323 0.0
O757 O 1.00135 0.58335 0.57359 0.0
O758 O 0.06481 0.61064 0.63887 0.0
O759 O 0.05313 0.63019 0.59743 0.0
O760 O 1.02394 0.57031 0.64389 0.0
O761 O 0.06571 0.58273 0.68309 0.0
O762 O 0.12529 0.6254 0.66726 0.0
O763 O 0.13069 0.57833 0.67243 0.0
O764 O 0.06948 0.55197 0.60133 0.0
O765 O 0.08121 0.53116 0.64157 0.0
O766 O 0.1087 0.5899 0.59651 0.0
O767 O 0.06772 0.58521 0.55872 0.0
H768 H 0.97768 0.48889 0.56448 0.0
H769 H 0.93186 0.45534 0.56518 0.0
H770 H 0.89992 0.53806 0.56746 0.0
H771 H 0.94645 0.57241 0.56601 0.0
H772 H 0.16196 0.66239 0.64937 0.0
H773 H 0.2096 0.68638 0.64459 0.0
H774 H 0.23406 0.60692 0.67896 0.0
H775 H 0.18579 0.58225 0.6839 0.0
Tb776 Tb 0.79658 0.83207 0.35773 0.0
Tb777 Tb 0.84963 0.80626 0.36348 0.0
C778 C 0.75034 0.84138 0.36246 0.0
C779 C 0.72879 0.83701 0.38307 0.0
C780 C 0.7087 0.80679 0.3789 0.0
C781 C 0.68602 0.80358 0.39452 0.0
C782 C 0.68253 0.83056 0.41422 0.0
C783 C 0.70298 0.86064 0.41941 0.0
C784 C 0.72584 0.86386 0.40382 0.0
C785 C 0.84198 0.86946 0.34411 0.0
C786 C 0.83605 0.83647 0.42945 0.0
C787 C 0.8976 0.80082 0.36305 0.0
C788 C 0.91544 0.79747 0.33906 0.0
C789 C 0.92198 0.82012 0.31846 0.0
C790 C 0.9428 0.81935 0.30039 0.0
C791 C 0.9571 0.79595 0.30269 0.0
C792 C 0.94909 0.77191 0.32119 0.0
C793 C 0.92826 0.77261 0.33917 0.0
C794 C 0.80433 0.76242 0.37146 0.0
C795 C 0.81029 0.79931 0.29228 0.0
O796 O 0.75289 0.81508 0.34505 0.0
O797 O 0.77459 0.8635 0.37507 0.0
O798 O 0.84107 0.85184 0.36574 0.0
O799 O 0.81653 0.86876 0.33105 0.0
O800 O 0.81142 0.83674 0.41207 0.0
O801 O 0.85536 0.82774 0.41567 0.0
O802 O 0.89256 0.82874 0.36977 0.0
O803 O 0.87554 0.77613 0.36008 0.0
O804 O 0.80691 0.79016 0.36529 0.0
O805 O 0.82878 0.75802 0.37298 0.0
O806 O 0.83551 0.80136 0.30956 0.0
O807 O 0.79017 0.80571 0.30642 0.0
H808 H 0.71012 0.78557 0.36302 0.0
H809 H 0.67081 0.78001 0.39067 0.0
H810 H 0.7007 0.88184 0.43444 0.0
H811 H 0.74064 0.88759 0.40703 0.0
H812 H 0.91213 0.83935 0.31767 0.0
H813 H 0.94901 0.83823 0.2864 0.0
H814 H 0.96011 0.75384 0.32336 0.0
H815 H 0.92329 0.75478 0.3547 0.0
Tb816 Tb 0.83826 0.30958 0.83349 0.0
Tb817 Tb 0.8238 0.33509 0.88262 0.0
C818 C 0.85366 0.29486 0.78067 0.0
C819 C 0.853 0.31144 0.75311 0.0
C820 C 0.8353 0.33112 0.75053 0.0
C821 C 0.83403 0.3476 0.72474 0.0
C822 C 0.85018 0.34431 0.70077 0.0
C823 C 0.86923 0.32612 0.70445 0.0
C824 C 0.87071 0.30967 0.73092 0.0
C825 C 0.87407 0.30613 0.8884 0.0
C826 C 0.85523 0.38824 0.85067 0.0
C827 C 0.8123 0.35005 0.93779 0.0
C828 C 0.80637 0.33021 0.96193 0.0
C829 C 0.81359 0.30122 0.9599 0.0
C830 C 0.80878 0.28245 0.98356 0.0
C831 C 0.80241 0.29613 0.0127 0.0
C832 C 0.79228 0.32327 0.01326 0.0
C833 C 0.79387 0.3401 0.98732 0.0
C834 C 0.78766 0.33851 0.82812 0.0
C835 C 0.80111 0.257 0.86206 0.0
O836 O 0.82896 0.28099 0.7856 0.0
O837 O 0.87078 0.31253 0.80798 0.0
O838 O 0.86593 0.33059 0.88285 0.0
O839 O 0.8596 0.28245 0.86445 0.0
O840 O 0.8489 0.36212 0.82646 0.0
O841 O 0.84968 0.38276 0.87944 0.0
O842 O 0.83793 0.35604 0.93345 0.0
O843 O 0.79365 0.34046 0.90977 0.0
O844 O 0.79644 0.3143 0.833 0.0
O845 O 0.80014 0.36143 0.85367 0.0
O846 O 0.808 0.28261 0.88647 0.0
O847 O 0.80873 0.26235 0.83407 0.0
H848 H 0.82162 0.3328 0.76776 0.0
H849 H 0.81863 0.36079 0.72216 0.0
H850 H 0.88161 0.32321 0.68594 0.0
H851 H 0.8849 0.29496 0.73353 0.0
H852 H 0.82563 0.29462 0.94251 0.0
H853 H 0.81587 0.261 0.98247 0.0
H854 H 0.78677 0.33402 0.03545 0.0
H855 H 0.78793 0.36229 0.9887 0.0
Tb856 Tb 0.79282 0.80036 0.83773 0.0
Tb857 Tb 0.84729 0.84011 0.86883 0.0
C858 C 0.7414 0.7761 0.83395 0.0
C859 C 0.71921 0.79069 0.84154 0.0
C860 C 0.7197 0.80437 0.87475 0.0
C861 C 0.69818 0.81679 0.88204 0.0
C862 C 0.67588 0.81639 0.85633 0.0
C863 C 0.67549 0.80313 0.82314 0.0
C864 C 0.69698 0.79044 0.81582 0.0
C865 C 0.81989 0.82711 0.7942 0.0
C866 C 0.80094 0.87899 0.86198 0.0
C867 C 0.89903 0.86513 0.87752 0.0
C868 C 0.92109 0.85025 0.87152 0.0
C869 C 0.91904 0.83166 0.83986 0.0
C870 C 0.94078 0.81938 0.83366 0.0
C871 C 0.96482 0.82524 0.85898 0.0
C872 C 0.96641 0.84258 0.89095 0.0
C873 C 0.94462 0.85495 0.89718 0.0
C874 C 0.8199 0.81549 0.91313 0.0
C875 C 0.83945 0.76227 0.83813 0.0
O876 O 0.76099 0.77737 0.85971 0.0
O877 O 0.75166 0.78248 0.80782 0.0
O878 O 0.82016 0.83994 0.82368 0.0
O879 O 0.80268 0.79785 0.78755 0.0
O880 O 0.78367 0.84866 0.85261 0.0
O881 O 0.82852 0.8821 0.86882 0.0
O882 O 0.88094 0.86435 0.85065 0.0
O883 O 0.88699 0.85783 0.90213 0.0
O884 O 0.82001 0.80095 0.8842 0.0
O885 O 0.83573 0.84517 0.91765 0.0
O886 O 0.85644 0.79246 0.85057 0.0
O887 O 0.8118 0.7587 0.83154 0.0
H888 H 0.73646 0.80509 0.89534 0.0
H889 H 0.69873 0.82604 0.90798 0.0
H890 H 0.65853 0.80254 0.80286 0.0
H891 H 0.6961 0.78017 0.79007 0.0
H892 H 0.90091 0.82706 0.81958 0.0
H893 H 0.93905 0.80579 0.80891 0.0
H894 H 0.98495 0.84763 0.91074 0.0
H895 H 0.94643 0.86886 0.92178 0.0
Tb896 Tb 0.55656 0.55436 0.60159 0.0
Tb897 Tb 0.61318 0.58742 0.64554 0.0
C898 C 0.50534 0.54715 0.58995 0.0
C899 C 0.49318 0.5742 0.59021 0.0
C900 C 0.50129 0.59923 0.61883 0.0
C901 C 0.48971 0.62463 0.6196 0.0
C902 C 0.46995 0.62552 0.59189 0.0
C903 C 0.46278 0.60176 0.56276 0.0
C904 C 0.47461 0.57623 0.5618 0.0
C905 C 0.59073 0.56604 0.56034 0.0
C906 C 0.58336 0.63275 0.61305 0.0
C907 C 0.66363 0.59831 0.67064 0.0
C908 C 0.67735 0.57535 0.65776 0.0
C909 C 0.66532 0.55813 0.62495 0.0
C910 C 0.67234 0.53115 0.61285 0.0
C911 C 0.69305 0.5219 0.63242 0.0
C912 C 0.70541 0.53872 0.66548 0.0
C913 C 0.69709 0.56525 0.67843 0.0
C914 C 0.57145 0.5788 0.67753 0.0
C915 C 0.59027 0.50786 0.62651 0.0
O916 O 0.51975 0.54656 0.61895 0.0
O917 O 0.51822 0.54177 0.56581 0.0
O918 O 0.59773 0.57304 0.59236 0.0
O919 O 0.56463 0.54887 0.55138 0.0
O920 O 0.56075 0.6072 0.60587 0.0
O921 O 0.6079 0.63059 0.62765 0.0
O922 O 0.65486 0.61433 0.64862 0.0
O923 O 0.64407 0.58559 0.68575 0.0
O924 O 0.57462 0.56015 0.65333 0.0
O925 O 0.59286 0.60464 0.6846 0.0
O926 O 0.61146 0.53499 0.63756 0.0
O927 O 0.56511 0.50883 0.61117 0.0
H928 H 0.51601 0.59892 0.64112 0.0
H929 H 0.49453 0.64223 0.64273 0.0
H930 H 0.44691 0.60201 0.54162 0.0
H931 H 0.4686 0.5576 0.53939 0.0
H932 H 0.64901 0.56445 0.60917 0.0
H933 H 0.66185 0.51765 0.58779 0.0
H934 H 0.72153 0.53166 0.6809 0.0
H935 H 0.70567 0.5775 0.70429 0.0
Tb936 Tb 0.10944 0.57579 0.11708 0.0
Tb937 Tb 0.05475 0.56722 0.13825 0.0
C938 C 0.15928 0.57277 0.12301 0.0
C939 C 0.1761 0.5498 0.1172 0.0
C940 C 0.1823 0.53158 0.14157 0.0
C941 C 0.20283 0.51547 0.14018 0.0
C942 C 0.21766 0.51708 0.11442 0.0
C943 C 0.21045 0.53362 0.089 0.0
C944 C 0.18985 0.54977 0.09034 0.0
C945 C 0.07004 0.57287 0.06176 0.0
C946 C 0.06572 0.50471 0.10463 0.0
C947 C 1.00893 0.57347 0.15034 0.0
C948 C 0.99023 0.59468 0.14667 0.0
C949 C 0.98 0.60167 0.11551 0.0
C950 C 0.95884 0.61716 0.11192 0.0
C951 C 0.94746 0.62615 0.13938 0.0
C952 C 0.95892 0.62074 0.17087 0.0
C953 C 0.98004 0.60528 0.17444 0.0
C954 C 0.09612 0.55939 0.18501 0.0
C955 C 0.09277 0.63862 0.13688 0.0
O956 O 0.14467 0.56874 0.14606 0.0
O957 O 0.14609 0.58166 0.09746 0.0
O958 O 0.06686 0.57084 0.09158 0.0
O959 O 0.09673 0.57789 0.06333 0.0
O960 O 0.09161 0.52278 0.1064 0.0
O961 O 0.04628 0.51728 0.11335 0.0
O962 O 1.01093 0.55553 0.12314 0.0
O963 O 0.03301 0.58538 0.1719 0.0
O964 O 0.09818 0.58039 0.16597 0.0
O965 O 0.06989 0.5427 0.17779 0.0
O966 O 0.06788 0.61844 0.1355 0.0
O967 O 0.11427 0.6277 0.13244 0.0
H968 H 0.17247 0.53121 0.16287 0.0
H969 H 0.20828 0.5033 0.16033 0.0
H970 H 0.22182 0.53552 0.06909 0.0
H971 H 0.18584 0.56373 0.07134 0.0
H972 H 0.98747 0.594 0.0936 0.0
H973 H 0.9504 0.62054 0.0872 0.0
H974 H 0.95099 0.62768 0.19265 0.0
H975 H 0.98763 0.6004 0.19879 0.0
C976 C 0.06814 0.20329 0.04489 0.0
C977 C 0.04991 0.21998 0.05629 0.0
C978 C 0.07498 0.17804 0.05974 0.0
C979 C 0.06334 0.1668 0.08621 0.0
H980 H 0.07752 0.20994 0.02426 0.0
H981 H 0.08934 0.16708 0.04982 0.0
S982 S 1.01771 0.20459 0.12906 0.0
N983 N 1.02291 0.22514 0.0989 0.0
N984 N 0.03475 0.1772 0.1253 0.0
C985 C 0.0459 0.18391 0.09862 0.0
C986 C 0.0395 0.21037 0.08416 0.0
C987 C 0.21444 0.8452 0.25697 0.0
C988 C 0.19225 0.85057 0.27174 0.0
C989 C 0.23879 0.83999 0.27597 0.0
C990 C 0.24196 0.83979 0.31062 0.0
H991 H 0.21274 0.84433 0.23034 0.0
H992 H 0.25524 0.83648 0.26354 0.0
S993 S 0.19008 0.85236 0.36153 0.0
N994 N 0.17592 0.85556 0.3236 0.0
N995 N 0.21992 0.845 0.35833 0.0
C996 C 0.21974 0.84497 0.32533 0.0
C997 C 0.19549 0.85055 0.3063 0.0
C998 C 0.54631 0.90845 0.592 0.0
C999 C 0.55797 0.89778 0.56546 0.0
C1000 C 0.54973 0.94186 0.60295 0.0
C1001 C 0.56512 0.96561 0.5879 0.0
H1002 H 0.53384 0.89092 0.60365 0.0
H1003 H 0.54051 0.94914 0.62345 0.0
S1004 S 0.59859 0.9501 0.51662 0.0
N1005 N 0.58465 0.9138 0.52394 0.0
N1006 N 0.59123 0.97573 0.54455 0.0
C1007 C 0.57677 0.95505 0.56148 0.0
C1008 C 0.57314 0.92142 0.55027 0.0
C1009 C 0.53051 0.32902 0.77843 0.0
C1010 C 0.54223 0.3039 0.77008 0.0
C1011 C 0.50397 0.32262 0.78648 0.0
C1012 C 0.48789 0.29079 0.78588 0.0
H1013 H 0.54229 0.35391 0.77976 0.0
H1014 H 0.49645 0.34292 0.79436 0.0
S1015 S 0.50662 0.21592 0.75901 0.0
N1016 N 0.5342 0.24559 0.75771 0.0
N1017 N 0.48405 0.2336 0.77169 0.0
C1018 C 0.49862 0.2653 0.77549 0.0
C1019 C 0.52582 0.27183 0.76787 0.0
C1020 C 0.0906 0.87619 0.73046 0.0
C1021 C 0.11516 0.86714 0.73663 0.0
C1022 C 0.08939 0.90081 0.71314 0.0
C1023 C 0.11301 0.91747 0.70231 0.0
H1024 H 0.07149 0.86225 0.73629 0.0
H1025 H 0.06911 0.90475 0.70586 0.0
S1026 S 0.18348 0.90501 0.71772 0.0
N1027 N 0.16401 0.87705 0.73378 0.0
N1028 N 0.16279 0.92602 0.70331 0.0
C1029 C 0.13854 0.91042 0.71131 0.0
C1030 C 0.13936 0.88442 0.72798 0.0
C1031 C 0.4422 0.82524 0.90346 0.0
C1032 C 0.45907 0.85263 0.89477 0.0
C1033 C 0.41301 0.81924 0.89833 0.0
C1034 C 0.39983 0.84074 0.88499 0.0
H1035 H 0.45146 0.80786 0.91345 0.0
H1036 H 0.40058 0.7971 0.90381 0.0
S1037 S 0.43488 0.91709 0.8601 0.0
N1038 N 0.46057 0.90223 0.87365 0.0
N1039 N 0.40606 0.89116 0.86426 0.0
C1040 C 0.41665 0.8689 0.8775 0.0
C1041 C 0.44617 0.87473 0.88224 0.0
C1042 C 0.59493 0.19726 0.19073 0.0
C1043 C 0.56991 0.19638 0.20155 0.0
C1044 C 0.5951 0.17479 0.16319 0.0
C1045 C 0.57011 0.1517 0.14568 0.0
H1046 H 0.61448 0.21512 0.20397 0.0
H1047 H 0.61479 0.17496 0.15611 0.0
S1048 S 0.49972 0.13935 0.16539 0.0
N1049 N 0.52026 0.17055 0.19415 0.0
N1050 N 0.52004 0.1284 0.14154 0.0
C1051 C 0.54503 0.15073 0.15645 0.0
C1052 C 0.54505 0.1732 0.18472 0.0
C1053 C 0.09946 0.30155 0.35276 0.0
C1054 C 0.1011 0.32855 0.37691 0.0
C1055 C 0.12363 0.29583 0.34481 0.0
C1056 C 0.15032 0.31666 0.36096 0.0
H1057 H 0.07944 0.28416 0.34043 0.0
H1058 H 0.12141 0.27438 0.32656 0.0
S1059 S 0.16579 0.39097 0.42581 0.0
N1060 N 0.13129 0.37713 0.41582 0.0
N1061 N 0.1767 0.36482 0.40278 0.0
C1062 C 0.15213 0.34359 0.38525 0.0
C1063 C 0.12751 0.35003 0.39263 0.0
C1064 C 0.04224 0.03316 0.22968 0.0
C1065 C 1.02342 0.04739 0.24292 0.0
C1066 C 0.0552 0.04506 0.2043 0.0
C1067 C 0.05055 0.07228 0.19193 0.0
H1068 H 0.04625 1.01208 0.23811 0.0
H1069 H 0.06904 0.03289 0.19433 0.0
S1070 S 1.00412 0.11905 0.21881 0.0
N1071 N 1.00099 0.09038 0.24131 0.0
N1072 N 1.0266 0.11345 0.19563 0.0
C1073 C 0.03254 0.08719 0.20563 0.0
C1074 C 1.01866 0.07457 0.23052 0.0
C1075 C 0.34824 0.82291 0.57585 0.0
C1076 C 0.3443 0.79449 0.58845 0.0
C1077 C 0.32752 0.82582 0.55078 0.0
C1078 C 0.30223 0.80054 0.53837 0.0
H1079 H 0.3675 0.84262 0.58504 0.0
H1080 H 0.3319 0.84725 0.53982 0.0
S1081 S 0.28118 0.72311 0.56646 0.0
N1082 N 0.31296 0.74194 0.5896 0.0
N1083 N 0.27389 0.74746 0.54133 0.0
C1084 C 0.29778 0.77259 0.55166 0.0
C1085 C 0.31893 0.76954 0.57713 0.0
C1086 C 0.66018 0.07586 0.75668 0.0
C1087 C 0.65139 0.05165 0.77564 0.0
C1088 C 0.64357 0.07729 0.7251 0.0
C1089 C 0.617 0.05443 0.71023 0.0
H1090 H 0.68007 0.09436 0.76662 0.0
H1091 H 0.65155 0.09674 0.71254 0.0
S1092 S 0.5844 0.98529 0.74819 0.0
N1093 N 0.61409 1.00405 0.77576 0.0
N1094 N 0.58378 1.00601 0.71774 0.0
C1095 C 0.60842 0.02995 0.72885 0.0
C1096 C 0.62514 0.02874 0.76089 0.0
C1097 C 0.36113 0.38811 1.00735 0.0
C1098 C 0.35394 0.36705 0.02936 0.0
C1099 C 0.35775 0.3761 0.97299 0.0
C1100 C 0.34692 0.34275 0.95975 0.0
H1101 H 0.36988 0.41392 0.01685 0.0
H1102 H 0.36337 0.39295 0.95667 0.0
S1103 S 0.32386 0.27797 1.00649 0.0
N1104 N 0.33494 0.31155 0.03534 0.0
N1105 N 0.32864 0.28923 0.9709 0.0
C1106 C 0.33959 0.32167 0.98146 0.0
C1107 C 0.34313 0.33375 0.01631 0.0
C1108 C 0.04907 0.02626 0.44392 0.0
C1109 C 1.02879 0.03929 0.428 0.0
C1110 C 0.05816 0.03272 0.47897 0.0
C1111 C 0.04761 0.05278 0.49987 0.0
H1112 H 0.05796 1.01065 0.42921 0.0
H1113 H 0.07382 1.02202 0.48975 0.0
S1114 S 0.99264 0.09101 0.47166 0.0
N1115 N 0.9973 0.07198 0.43653 0.0
N1116 N 1.01472 0.08425 0.50229 0.0
C1117 C 1.02718 0.06576 0.48452 0.0
C1118 C 1.0177 0.05901 0.44871 0.0
C1119 C 0.38664 0.81998 0.72541 0.0
C1120 C 0.40468 0.80304 0.73886 0.0
C1121 C 0.36447 0.82389 0.73992 0.0
C1122 C 0.36032 0.81192 0.76892 0.0
H1123 H 0.38992 0.83065 0.70389 0.0
H1124 H 0.35134 0.83766 0.72935 0.0
S1125 S 0.40683 0.77493 0.81952 0.0
N1126 N 0.42041 0.78066 0.78671 0.0
N1127 N 0.37862 0.78726 0.81324 0.0
C1128 C 0.3793 0.797 0.78373 0.0
C1129 C 0.40182 0.79321 0.76922 0.0
C1130 C 0.61304 0.0816 0.96763 0.0
C1131 C 0.6417 0.08236 0.97147 0.0
C1132 C 0.59866 0.08067 0.99482 0.0
C1133 C 0.61191 0.08127 0.02838 0.0
H1134 H 0.60122 0.08105 0.94295 0.0
H1135 H 0.57665 0.07937 0.98926 0.0
S1136 S 0.6875 0.08623 0.05396 0.0
N1137 N 0.6829 0.08509 0.01315 0.0
N1138 N 0.65674 0.0844 0.06329 0.0
C1139 C 0.64078 0.08285 0.03275 0.0
C1140 C 0.65527 0.08313 1.0049 0.0
C1141 C 0.32661 0.3472 0.20289 0.0
C1142 C 0.34461 0.37918 0.21154 0.0
C1143 C 0.31896 0.32946 0.22755 0.0
C1144 C 0.329 0.34281 0.26205 0.0
H1145 H 0.31813 0.33583 0.17674 0.0
H1146 H 0.30488 0.30509 0.21944 0.0
S1147 S 0.37745 0.42552 0.29795 0.0
N1148 N 0.37304 0.42306 0.25702 0.0
N1149 N 0.35774 0.39076 0.30321 0.0
C1150 C 0.34677 0.37502 0.27095 0.0
C1151 C 0.3548 0.39289 0.2458 0.0
C1152 C 0.19087 0.95213 0.07521 0.0
C1153 C 0.21979 0.95754 0.078 0.0
C1154 C 0.18078 0.97495 0.09227 0.0
C1155 C 0.19934 1.00401 0.1121 0.0
H1156 H 0.17592 0.93051 0.05934 0.0
H1157 H 0.15827 0.97055 0.08867 0.0
S1158 S 0.27703 0.02772 0.1308 0.0
N1159 N 0.26701 0.99222 0.10517 0.0
N1160 N 0.24778 0.03573 0.13595 0.0
C1161 C 0.22829 1.00869 0.11682 0.0
C1162 C 0.23861 0.98532 0.0999 0.0
C1163 C 0.69882 0.61344 0.07075 0.0
C1164 C 0.70969 0.64635 0.08588 0.0
C1165 C 0.67298 0.59421 0.07508 0.0
C1166 C 0.65661 0.60644 0.09529 0.0
H1167 H 0.71052 0.60226 0.0556 0.0
H1168 H 0.66604 0.56895 0.06286 0.0
S1169 S 0.67754 0.69036 0.14426 0.0
N1170 N 0.70288 0.69008 0.12386 0.0
N1171 N 0.65501 0.65368 0.13283 0.0
C1172 C 0.66743 0.63932 0.11104 0.0
C1173 C 0.69372 0.65919 0.10619 0.0
C1174 C 0.70312 0.48864 0.3474 0.0
C1175 C 0.7206 0.52061 0.35377 0.0
C1176 C 0.71298 0.46286 0.3363 0.0
C1177 C 0.74048 0.46863 0.33142 0.0
H1178 H 0.68182 0.48358 0.35099 0.0
H1179 H 0.69947 0.4383 0.3326 0.0
S1180 S 0.79458 0.54794 0.34606 0.0
N1181 N 0.76644 0.55673 0.35469 0.0
N1182 N 0.78526 0.50817 0.33471 0.0
C1183 C 0.75796 0.50051 0.33729 0.0
C1184 C 0.74791 0.52661 0.34831 0.0
C1185 C 0.83844 0.44707 0.52456 0.0
C1186 C 0.83328 0.42161 0.54219 0.0
C1187 C 0.86369 0.47196 0.53403 0.0
C1188 C 0.88436 0.47228 0.56163 0.0
H1189 H 0.823 0.44758 0.50307 0.0
H1190 H 0.8675 0.49032 0.51888 0.0
S1191 S 0.87979 0.41427 0.61915 0.0
N1192 N 0.85009 0.40009 0.59064 0.0
N1193 N 0.89733 0.44746 0.60854 0.0
C1194 C 0.87897 0.44807 0.58055 0.0
C1195 C 0.85351 0.42249 0.57074 0.0
C1196 C 0.39533 0.20628 0.33446 0.0
C1197 C 0.37989 0.1733 0.31992 0.0
C1198 C 0.38284 0.23275 0.33815 0.0
C1199 C 0.3534 0.22916 0.32844 0.0
H1200 H 0.41785 0.2121 0.34292 0.0
H1201 H 0.39684 0.25673 0.34915 0.0
S1202 S 0.30177 0.14804 0.29088 0.0
N1203 N 0.33203 0.13955 0.29652 0.0
N1204 N 0.3092 0.18749 0.30421 0.0
C1205 C 0.33756 0.19617 0.31433 0.0
C1206 C 0.35039 0.16924 0.30996 0.0
C1207 C 0.37104 0.11956 0.61429 0.0
C1208 C 0.37205 0.1516 0.6115 0.0
C1209 C 0.39567 0.10998 0.62048 0.0
C1210 C 0.42241 0.13209 0.62454 0.0
H1211 H 0.35098 0.10158 0.61112 0.0
H1212 H 0.39376 0.08489 0.62171 0.0
S1213 S 0.43714 0.22008 0.62629 0.0
N1214 N 0.40249 0.20633 0.61756 0.0
N1215 N 0.44862 0.18826 0.62946 0.0
C1216 C 0.42389 0.1645 0.6234 0.0
C1217 C 0.39878 0.17426 0.61686 0.0
C1218 C 0.75619 0.68107 0.37277 0.0
C1219 C 0.73776 0.68796 0.39289 0.0
C1220 C 0.77663 0.70563 0.3651 0.0
C1221 C 0.77958 0.73835 0.37675 0.0
H1222 H 0.75485 0.65631 0.36255 0.0
H1223 H 0.79052 0.69884 0.35006 0.0
S1224 S 0.73823 0.76984 0.43201 0.0
N1225 N 0.72462 0.73016 0.42535 0.0
N1226 N 0.76302 0.7767 0.4103 0.0
C1227 C 0.76124 0.74594 0.3965 0.0
C1228 C 0.74036 0.72066 0.4047 0.0
C1229 C 0.88154 0.48311 0.87046 0.0
C1230 C 0.8885 0.49252 0.84083 0.0
C1231 C 0.87048 0.45006 0.87287 0.0
C1232 C 0.86612 0.42368 0.84606 0.0
H1233 H 0.88556 0.5016 0.89265 0.0
H1234 H 0.86594 0.44521 0.89663 0.0
S1235 S 0.88199 0.43377 0.76297 0.0
N1236 N 0.89067 0.47142 0.78399 0.0
N1237 N 0.87019 0.41026 0.78852 0.0
C1238 C 0.87282 0.43264 0.81617 0.0
C1239 C 0.88396 0.46645 0.81364 0.0
C1240 C 0.07779 0.92501 0.12894 0.0
C1241 C 0.10289 0.92709 0.15182 0.0
C1242 C 0.07211 0.95281 0.11787 0.0
C1243 C 0.09113 0.98446 0.12909 0.0
H1244 H 0.06244 0.90158 0.11916 0.0
H1245 H 0.05257 0.94935 0.10027 0.0
S1246 S 0.15755 1.00394 0.19348 0.0
N1247 N 0.14542 0.96418 0.18747 0.0
N1248 N 0.13484 1.01558 0.168 0.0
C1249 C 0.11569 0.98675 0.153 0.0
C1250 C 0.1215 0.95852 0.16391 0.0
C1251 C 0.93038 0.27249 0.93502 0.0
C1252 C 0.95537 0.29845 0.9444 0.0
C1253 C 0.90472 0.27573 0.91756 0.0
C1254 C 0.90209 0.30533 0.90907 0.0
H1255 H 0.93058 0.24931 0.94136 0.0
H1256 H 0.88649 0.25461 0.91079 0.0
S1257 S 0.96153 0.38086 0.92649 0.0
N1258 N 0.97587 0.35487 0.94263 0.0
N1259 N 0.92806 0.36108 0.91066 0.0
C1260 C 0.92703 0.33155 0.91813 0.0
C1261 C 0.95336 0.32808 0.93552 0.0
C1262 C 0.62164 0.22861 0.64027 0.0
C1263 C 0.60454 0.23916 0.66036 0.0
C1264 C 0.61926 0.19518 0.63091 0.0
C1265 C 0.59965 0.17106 0.64122 0.0
H1266 H 0.63772 0.24628 0.63294 0.0
H1267 H 0.63294 0.18823 0.6157 0.0
S1268 S 0.5503 0.18599 0.69459 0.0
N1269 N 0.56704 0.22224 0.68963 0.0
N1270 N 0.56347 0.16087 0.6736 0.0
C1271 C 0.58245 0.18155 0.66111 0.0
C1272 C 0.5846 0.21508 0.67016 0.0
C1273 C 0.63489 0.82935 0.4762 0.0
C1274 C 0.60764 0.81666 0.45542 0.0
C1275 C 0.65903 0.8348 0.46277 0.0
C1276 C 0.65691 0.82718 0.42807 0.0
H1277 H 0.63764 0.83531 0.50317 0.0
H1278 H 0.67947 0.84428 0.47968 0.0
S1279 S 0.59109 0.79504 0.36264 0.0
N1280 N 0.58037 0.79817 0.39821 0.0
N1281 N 0.62572 0.80766 0.37307 0.0
C1282 C 0.62998 0.81509 0.407 0.0
C1283 C 0.60537 0.81008 0.42061 0.0
C1284 C 0.0345 0.24481 0.46621 0.0
C1285 C 0.03458 0.27487 0.48374 0.0
C1286 C 0.0356 0.21959 0.48296 0.0
C1287 C 0.03629 0.22391 0.5173 0.0
H1288 H 0.03482 0.24118 0.4398 0.0
H1289 H 0.03708 0.19716 0.46944 0.0
S1290 S 0.03589 0.29734 0.5742 0.0
N1291 N 0.03435 0.30717 0.53692 0.0
N1292 N 0.03672 0.25946 0.56849 0.0
C1293 C 0.0354 0.25334 0.53491 0.0
C1294 C 0.03449 0.27904 0.51804 0.0
C1295 C 0.69248 0.26129 0.33131 0.0
C1296 C 0.67544 0.25941 0.30017 0.0
C1297 C 0.72074 0.2636 0.33377 0.0
C1298 C 0.73239 0.26486 0.30536 0.0
H1299 H 0.68449 0.26311 0.354 0.0
H1300 H 0.73395 0.26686 0.35834 0.0
S1301 S 0.69563 0.25379 0.2174 0.0
N1302 N 0.67111 0.25219 0.23929 0.0
N1303 N 0.72503 0.25985 0.24519 0.0
C1304 C 0.7153 0.26005 0.27387 0.0
C1305 C 0.68645 0.25653 0.27098 0.0
C1306 C 0.53925 0.95482 1.01188 0.0
C1307 C 0.55995 0.93897 0.01241 0.0
C1308 C 0.5389 0.97603 0.04042 0.0
C1309 C 0.55942 0.98273 0.07027 0.0
H1310 H 0.52267 0.94994 0.98969 0.0
H1311 H 0.52224 0.98699 0.03892 0.0
S1312 S 0.61885 0.9477 0.08358 0.0
N1313 N 0.60143 0.93062 0.04482 0.0
N1314 N 0.6017 0.97218 0.09794 0.0
C1315 C 0.58037 0.96698 0.07093 0.0
C1316 C 0.58041 0.94476 0.04208 0.0
C1317 C 1.02246 0.8153 0.81543 0.0
C1318 C 0.03631 0.79824 0.83553 0.0
C1319 C 0.99917 0.82363 0.8231 0.0
C1320 C 0.98899 0.81534 0.8512 0.0
H1321 H 1.02931 0.82189 0.79325 0.0
H1322 H 0.98918 0.83689 0.80706 0.0
S1323 S 1.01724 0.77033 0.91143 0.0
N1324 N 0.03804 0.77324 0.88462 0.0
N1325 N 0.99383 0.78874 0.89876 0.0
C1326 C 1.00254 0.79836 0.87151 0.0
C1327 C 1.02631 0.78983 0.86372 0.0
C1328 C 0.1181 0.11763 0.99328 0.0
C1329 C 0.12532 0.09614 0.96989 0.0
C1330 C 0.10745 0.10765 0.02072 0.0
C1331 C 0.10243 0.07556 0.02563 0.0
H1332 H 0.1209 0.14253 0.9906 0.0
H1333 H 0.10264 0.12504 0.0381 0.0
S1334 S 0.11818 1.00965 0.97276 0.0
N1335 N 0.12759 0.04109 0.95478 0.0
N1336 N 0.10618 1.02245 1.00524 0.0
C1337 C 0.10954 0.05383 1.00266 0.0
C1338 C 0.12126 0.06409 0.97519 0.0
C1339 C 0.80887 0.38253 0.65051 0.0
C1340 C 0.7918 0.35523 0.62664 0.0
C1341 C 0.83363 0.38169 0.67036 0.0
C1342 C 0.84063 0.35259 0.66883 0.0
H1343 H 0.80281 0.40462 0.65419 0.0
H1344 H 0.84477 0.40212 0.69057 0.0
S1345 S 0.80905 0.27872 0.6027 0.0
N1346 N 0.78863 0.30206 0.59539 0.0
N1347 N 0.83373 0.29916 0.636 0.0
C1348 C 0.82628 0.32684 0.64195 0.0
C1349 C 0.80163 0.32811 0.62064 0.0
C1350 C 0.53664 0.04707 0.45829 0.0
C1351 C 0.51978 0.06808 0.45332 0.0
C1352 C 0.55239 0.04685 0.49051 0.0
C1353 C 0.55185 0.06682 0.5205 0.0
H1354 H 0.53827 0.03087 0.43681 0.0
H1355 H 0.56555 0.03087 0.49185 0.0
S1356 S 0.5115 0.12672 0.52312 0.0
N1357 N 0.5041 0.10999 0.48288 0.0
N1358 N 0.53276 0.10876 0.54246 0.0
C1359 C 0.53471 0.08753 0.51625 0.0
C1360 C 0.51905 0.08831 0.48324 0.0
C1361 C 0.80494 0.79299 0.19809 0.0
C1362 C 0.80224 0.75995 0.18739 0.0
C1363 C 0.80616 0.80577 0.23198 0.0
C1364 C 0.80423 0.7858 0.256 0.0
H1365 H 0.80689 0.80918 0.18047 0.0
H1366 H 0.80948 0.83151 0.23964 0.0
S1367 S 0.7943 0.6976 0.24112 0.0
N1368 N 0.79559 0.70737 0.20417 0.0
N1369 N 0.79813 0.73173 0.26688 0.0
C1370 C 0.80054 0.75284 0.24552 0.0
C1371 C 0.79942 0.73983 0.21149 0.0
C1372 C 0.11003 0.11531 0.76857 0.0
C1373 C 0.11873 0.09196 0.78421 0.0
C1374 C 0.10237 0.1105 0.73325 0.0
C1375 C 0.10342 0.0823 0.71234 0.0
H1376 H 0.11062 0.13806 0.78352 0.0
H1377 H 0.09626 0.12943 0.72234 0.0
S1378 S 0.12614 1.01486 0.74177 0.0
N1379 N 0.12772 0.03975 0.77639 0.0
N1380 N 0.11478 0.03148 0.7108 0.0
C1381 C 0.11181 0.05883 0.72803 0.0
C1382 C 0.11901 0.06344 0.76366 0.0
C1383 C 0.79079 0.31643 0.4682 0.0
C1384 C 0.76338 0.31948 0.46251 0.0
C1385 C 0.80512 0.3163 0.44271 0.0
C1386 C 0.79222 0.31895 0.41115 0.0
H1387 H 0.80099 0.31294 0.49214 0.0
H1388 H 0.82489 0.31051 0.44669 0.0
S1389 S 0.72612 0.33938 0.38677 0.0
N1390 N 0.72749 0.33409 0.42581 0.0
N1391 N 0.7549 0.33328 0.37702 0.0
C1392 C 0.76709 0.32703 0.40631 0.0
C1393 C 0.75238 0.32734 0.4324 0.0
C1394 C 0.47875 0.07486 0.21904 0.0
C1395 C 0.49079 0.07587 0.2533 0.0
C1396 C 0.49249 0.06925 0.19156 0.0
C1397 C 0.51991 0.06504 0.19568 0.0
H1398 H 0.45808 0.07804 0.21305 0.0
H1399 H 0.48138 0.06866 0.16651 0.0
S1400 S 0.56084 0.0624 0.27901 0.0
N1401 N 0.5321 0.06922 0.28805 0.0
N1402 N 0.55743 0.06053 0.23825 0.0
C1403 C 0.53193 0.06541 0.22964 0.0
C1404 C 0.51774 0.07031 0.25747 0.0
C1405 C 0.80047 0.75143 0.9684 0.0
C1406 C 0.79794 0.76969 0.99832 0.0
C1407 C 0.80678 0.76588 0.94069 0.0
C1408 C 0.81171 0.79951 0.94184 0.0
H1409 H 0.79711 0.72561 0.96614 0.0
H1410 H 0.80823 0.75061 0.9184 0.0
S1411 S 0.80979 0.85864 0.0149 0.0
N1412 N 0.80181 0.82358 0.02714 0.0
N1413 N 0.81464 0.85055 0.97647 0.0
C1414 C 0.80986 0.81797 0.97186 0.0
C1415 C 0.80276 0.80321 0.99958 0.0
C1416 C 0.93774 0.19269 0.11332 0.0
C1417 C 0.92217 0.18229 0.13685 0.0
C1418 C 0.94797 0.17104 0.09437 0.0
C1419 C 0.9425 0.13886 0.09865 0.0
H1420 H 0.94347 0.21789 0.11107 0.0
H1421 H 0.96162 0.17989 0.07809 0.0
S1422 S 0.89933 0.09901 0.1531 0.0
N1423 N 0.8987 0.13692 0.15999 0.0
N1424 N 0.91862 0.09678 0.12497 0.0
C1425 C 0.92509 0.12776 0.11994 0.0
C1426 C 0.91473 0.14945 0.13902 0.0
C1427 C 0.45063 0.51789 0.12726 0.0
C1428 C 0.44747 0.48642 0.13346 0.0
C1429 C 0.47625 0.53714 0.12262 0.0
C1430 C 0.50046 0.52638 0.12408 0.0
H1431 H 0.43304 0.52781 0.12566 0.0
H1432 H 0.47701 0.56114 0.11799 0.0
S1433 S 0.50413 0.4462 0.14087 0.0
N1434 N 0.47133 0.44532 0.14111 0.0
N1435 N 0.51939 0.48201 0.13332 0.0
C1436 C 0.49774 0.49499 0.13033 0.0
C1437 C 0.4714 0.47504 0.1348 0.0
C1438 C 0.43512 0.62496 0.83717 0.0
C1439 C 0.42149 0.59494 0.81541 0.0
C1440 C 0.42188 0.6493 0.83984 0.0
C1441 C 0.39479 0.644 0.82089 0.0
H1442 H 0.45633 0.62994 0.85155 0.0
H1443 H 0.43295 0.67247 0.85623 0.0
S1444 S 0.34876 0.56887 0.76376 0.0
N1445 N 0.37835 0.56058 0.77694 0.0
N1446 N 0.35374 0.60665 0.78215 0.0
C1447 C 0.3805 0.6139 0.8002 0.0
C1448 C 0.39383 0.5892 0.79739 0.0
C1449 C 0.30197 0.67374 0.65782 0.0
C1450 C 0.31225 0.7035 0.68073 0.0
C1451 C 0.27356 0.65587 0.65137 0.0
C1452 C 0.25493 0.66753 0.66761 0.0
H1453 H 0.31581 0.66466 0.64436 0.0
H1454 H 0.26607 0.63315 0.63345 0.0
S1455 S 0.2719 0.7449 0.72765 0.0
N1456 N 0.30198 0.74446 0.71787 0.0
N1457 N 0.24871 0.71068 0.70686 0.0
C1458 C 0.26513 0.69739 0.69015 0.0
C1459 C 0.2938 0.71551 0.69635 0.0
C1460 C 0.75423 0.93974 0.87429 0.0
C1461 C 0.76419 0.96575 0.85773 0.0
C1462 C 0.76573 0.91258 0.87558 0.0
C1463 C 0.789 0.90937 0.8615 0.0
H1464 H 0.73677 0.93993 0.88613 0.0
H1465 H 0.75625 0.89385 0.88819 0.0
S1466 S 0.82339 0.96934 0.81427 0.0
N1467 N 0.79903 0.98452 0.82579 0.0
N1468 N 0.82072 0.9359 0.82948 0.0
C1469 C 0.79928 0.93533 0.84522 0.0
C1470 C 0.78708 0.96244 0.84305 0.0
C1471 C 0.78492 0.99615 0.65438 0.0
C1472 C 0.79494 0.98192 0.62812 0.0
C1473 C 0.76033 1.00559 0.64822 0.0
C1474 C 0.74469 1.00171 0.61544 0.0
H1475 H 0.79619 1.00003 0.68012 0.0
H1476 H 0.75396 1.01692 0.66943 0.0
S1477 S 0.76101 0.9646 0.53761 0.0
N1478 N 0.78654 0.9633 0.56785 0.0
N1479 N 0.74053 0.98154 0.55626 0.0
C1480 C 0.75415 0.98707 0.58885 0.0
C1481 C 0.7791 0.97697 0.59518 0.0
C1482 C 0.41832 0.40672 0.82713 0.0
C1483 C 0.41695 0.43874 0.82983 0.0
C1484 C 0.39582 0.3819 0.83156 0.0
C1485 C 0.37137 0.38834 0.83864 0.0
H1486 H 0.43648 0.4007 0.82076 0.0
H1487 H 0.39715 0.35747 0.82851 0.0
S1488 S 0.3595 0.46868 0.85461 0.0
N1489 N 0.39045 0.47593 0.84459 0.0
N1490 N 0.34854 0.42922 0.85238 0.0
C1491 C 0.37041 0.42034 0.84314 0.0
C1492 C 0.39311 0.44554 0.83885 0.0
C1493 C 0.24036 0.67473 0.35642 0.0
C1494 C 0.25587 0.65878 0.37675 0.0
C1495 C 0.25197 0.70682 0.35112 0.0
C1496 C 0.27978 0.72586 0.36657 0.0
H1497 H 0.21877 0.66204 0.34405 0.0
H1498 H 0.23881 0.71692 0.33484 0.0
S1499 S 0.32987 0.69754 0.42321 0.0
N1500 N 0.30131 0.66613 0.41267 0.0
N1501 N 0.32243 0.72577 0.40365 0.0
C1502 C 0.29551 0.71051 0.38718 0.0
C1503 C 0.28386 0.67749 0.39205 0.0
C1504 C 0.59148 0.70386 0.56584 0.0
C1505 C 0.57532 0.72236 0.57919 0.0
C1506 C 0.59441 0.67544 0.57731 0.0
C1507 C 0.58121 0.66403 0.60259 0.0
H1508 H 0.60163 0.71111 0.54595 0.0
H1509 H 0.60669 0.66194 0.56582 0.0
S1510 S 0.54051 0.70614 0.64958 0.0
N1511 N 0.54866 0.7287 0.62176 0.0
N1512 N 0.55378 0.67563 0.64277 0.0
C1513 C 0.56586 0.68287 0.61685 0.0
C1514 C 0.56303 0.71184 0.60533 0.0
C1515 C 0.70848 0.33125 0.80629 0.0
C1516 C 0.70476 0.34357 0.77632 0.0
C1517 C 0.73479 0.32829 0.82203 0.0
C1518 C 0.75891 0.33712 0.80857 0.0
H1519 H 0.69084 0.3237 0.81788 0.0
H1520 H 0.73634 0.31947 0.84531 0.0
S1521 S 0.76163 0.37103 0.73137 0.0
N1522 N 0.72856 0.36466 0.73429 0.0
N1523 N 0.77735 0.35956 0.76399 0.0
C1524 C 0.75564 0.34958 0.77896 0.0
C1525 C 0.7289 0.35257 0.76284 0.0
C1526 C 0.06207 0.42204 0.05553 0.0
C1527 C 0.04753 0.39996 0.07293 0.0
C1528 C 0.06778 0.45579 0.06579 0.0
C1529 C 0.05886 0.46897 0.09361 0.0
H1530 H 0.06883 0.41322 0.03347 0.0
H1531 H 0.07894 0.47171 0.05154 0.0
S1532 S 1.02219 0.42266 0.14961 0.0
N1533 N 1.02587 0.39457 0.1209 0.0
N1534 N 0.0362 0.45763 0.13949 0.0
C1535 C 0.04462 0.44741 0.11144 0.0
C1536 C 0.03909 0.41309 0.10132 0.0
C1537 C 1.0094 0.79663 0.24707 0.0
C1538 C 0.03506 0.81289 0.26987 0.0
C1539 C 0.98394 0.79039 0.25775 0.0
C1540 C 0.98362 0.80043 0.29144 0.0
H1541 H 1.00907 0.78852 0.22093 0.0
H1542 H 0.96449 0.77794 0.23967 0.0
S1543 S 0.04481 0.84399 0.36061 0.0
N1544 N 0.05845 0.83852 0.32743 0.0
N1545 N 1.0106 0.82736 0.34735 0.0
C1546 C 1.00906 0.81638 0.3144 0.0
C1547 C 0.03486 0.82244 0.30365 0.0
C1548 C 0.59511 0.37914 0.23495 0.0
C1549 C 0.6179 0.36668 0.23977 0.0
C1550 C 0.59688 0.4061 0.22052 0.0
C1551 C 0.62172 0.42151 0.21118 0.0
H1552 H 0.57513 0.36645 0.23971 0.0
H1553 H 0.57787 0.41304 0.21404 0.0
S1554 S 0.68874 0.40103 0.22502 0.0
N1555 N 0.66679 0.37287 0.23827 0.0
N1556 N 0.67071 0.42534 0.21233 0.0
C1557 C 0.6455 0.41096 0.21894 0.0
C1558 C 0.64342 0.3829 0.23291 0.0
C1559 C 0.94914 0.33162 0.36062 0.0
C1560 C 0.96256 0.35361 0.39094 0.0
C1561 C 0.92025 0.32352 0.34944 0.0
C1562 C 0.90434 0.33789 0.36771 0.0
H1563 H 0.96064 0.31897 0.34656 0.0
H1564 H 0.91019 0.30513 0.32711 0.0
S1565 S 0.92929 0.39794 0.44717 0.0
N1566 N 0.95784 0.39038 0.43835 0.0
N1567 N 0.90319 0.37575 0.41607 0.0
C1568 C 0.91742 0.36117 0.39683 0.0
C1569 C 0.94676 0.36892 0.40879 0.0
C1570 C 0.08274 0.69002 0.71143 0.0
C1571 C 0.06357 0.70794 0.7066 0.0
C1572 C 0.08565 0.66898 0.68493 0.0
C1573 C 0.07031 0.66562 0.65225 0.0
H1574 H 0.09501 0.69123 0.73609 0.0
H1575 H 0.09844 0.65361 0.69104 0.0
S1576 S 1.01945 0.70961 0.62578 0.0
N1577 N 1.0303 0.72295 0.66668 0.0
N1578 N 0.03653 0.6834 0.61597 0.0
C1579 C 0.05239 0.68489 0.64656 0.0
C1580 C 0.04889 0.70609 0.67395 0.0
C1581 C 0.60227 0.81941 0.86154 0.0
C1582 C 0.60758 0.84827 0.88473 0.0
C1583 C 0.62448 0.80975 0.85149 0.0
C1584 C 0.65258 0.82866 0.86444 0.0
H1585 H 0.58108 0.80336 0.85267 0.0
H1586 H 0.61971 0.78663 0.83473 0.0
S1587 S 0.67671 0.90736 0.92432 0.0
N1588 N 0.64227 0.89605 0.91953 0.0
N1589 N 0.684 0.87871 0.89995 0.0
C1590 C 0.65783 0.85819 0.88668 0.0
C1591 C 0.6353 0.86776 0.89702 0.0
C1592 C 0.54697 0.57425 0.76006 0.0
C1593 C 0.52578 0.54447 0.75263 0.0
C1594 C 0.56124 0.5854 0.73553 0.0
C1595 C 0.55536 0.56682 0.70286 0.0
H1596 H 0.55198 0.58946 0.78471 0.0
H1597 H 0.57711 0.60869 0.74234 0.0
S1598 S 0.50212 0.4861 0.67186 0.0
N1599 N 0.49912 0.49692 0.71065 0.0
N1600 N 0.52783 0.5155 0.66599 0.0
C1601 C 0.53479 0.53633 0.69585 0.0
C1602 C 0.51948 0.52582 0.72031 0.0
C1603 C 0.8188 0.29716 0.10397 0.0
C1604 C 0.84757 0.30053 0.10973 0.0
C1605 C 0.80341 0.29233 0.07153 0.0
C1606 C 0.81672 0.29161 0.04451 0.0
H1607 H 0.80809 0.29747 0.12454 0.0
H1608 H 0.78126 0.29048 0.0676 0.0
S1609 S 0.89233 0.29838 0.04835 0.0
N1610 N 0.88882 0.30083 0.08749 0.0
N1611 N 0.86082 0.29437 0.02604 0.0
C1612 C 0.84574 0.29434 0.05033 0.0
C1613 C 0.86101 0.29836 0.08326 0.0
C1614 C 0.12983 0.527 0.26101 0.0
C1615 C 0.15102 0.5539 0.28177 0.0
C1616 C 0.11311 0.52928 0.23013 0.0
C1617 C 0.11666 0.55834 0.21726 0.0
H1618 H 0.12565 0.50395 0.26897 0.0
H1619 H 0.09691 0.50771 0.2161 0.0
S1620 S 0.16925 0.63635 0.26163 0.0
N1621 N 0.17418 0.61105 0.2867 0.0
N1622 N 0.14387 0.61498 0.22926 0.0
C1623 C 0.13813 0.58533 0.23758 0.0
C1624 C 0.15481 0.58316 0.26937 0.0
C1625 C 0.87049 0.88715 0.51599 0.0
C1626 C 0.85491 0.87042 0.53647 0.0
C1627 C 0.86456 0.87568 0.48124 0.0
C1628 C 0.84259 0.84745 0.46601 0.0
H1629 H 0.88754 0.90903 0.52697 0.0
H1630 H 0.87698 0.88915 0.46615 0.0
S1631 S 0.79679 0.79412 0.50886 0.0
N1632 N 0.81753 0.82369 0.53939 0.0
N1633 N 0.80618 0.8024 0.47396 0.0
C1634 C 0.82709 0.83046 0.48626 0.0
C1635 C 0.83332 0.84189 0.52162 0.0
C1636 C 0.55153 0.52715 0.95089 0.0
C1637 C 0.52914 0.53756 0.93576 0.0
C1638 C 0.56099 0.53347 0.98585 0.0
C1639 C 0.54868 0.55077 1.0072 0.0
H1640 H 0.56178 0.51376 0.93567 0.0
H1641 H 0.57821 0.52481 0.99624 0.0
S1642 S 0.48801 0.58096 0.981 0.0
N1643 N 0.49386 0.56444 0.94542 0.0
N1644 N 0.51206 0.57658 1.01106 0.0
C1645 C 0.52624 0.56114 0.99263 0.0
C1646 C 0.51638 0.55448 0.95697 0.0
C1647 C 0.87951 0.26782 0.26255 0.0
C1648 C 0.89812 0.29527 0.2564 0.0
C1649 C 0.85288 0.26805 0.26613 0.0
C1650 C 0.84362 0.29532 0.26318 0.0
H1651 H 0.88476 0.2453 0.26253 0.0
H1652 H 0.83956 0.24688 0.27209 0.0
S1653 S 0.88689 0.37574 0.25577 0.0
N1654 N 0.90762 0.35226 0.2536 0.0
N1655 N 0.85676 0.3524 0.25997 0.0
C1656 C 0.86268 0.32372 0.25951 0.0
C1657 C 0.89023 0.32384 0.25679 0.0
C1658 C 0.12795 0.61173 0.48725 0.0
C1659 C 0.13995 0.58667 0.47724 0.0
C1660 C 0.11392 0.61254 0.51492 0.0
C1661 C 0.11105 0.58865 0.53529 0.0
H1662 H 0.12939 0.63124 0.47351 0.0
H1663 H 0.10539 0.63248 0.52058 0.0
S1664 S 0.13561 0.51575 0.51923 0.0
N1665 N 0.14555 0.53586 0.49025 0.0
N1666 N 0.12024 0.53774 0.54108 0.0
C1667 C 0.12251 0.56329 0.52535 0.0
C1668 C 0.13653 0.56226 0.49705 0.0
C1669 C 0.83064 0.84867 0.70913 0.0
C1670 C 0.84754 0.88123 0.71746 0.0
C1671 C 0.82177 0.83153 0.73387 0.0
C1672 C 0.82957 0.84598 0.76823 0.0
H1673 H 0.82397 0.83635 0.68313 0.0
H1674 H 0.80866 0.80669 0.72591 0.0
S1675 S 0.87574 0.92996 0.80354 0.0
N1676 N 0.87281 0.92666 0.76271 0.0
N1677 N 0.85618 0.89511 0.80887 0.0
C1678 C 0.84654 0.87859 0.77677 0.0
C1679 C 0.85547 0.896 0.75157 0.0
C1680 C 0.71584 0.47484 0.56563 0.0
C1681 C 0.71697 0.4472 0.57828 0.0
C1682 C 0.70896 0.49935 0.58423 0.0
C1683 C 0.70286 0.49669 0.61588 0.0
H1684 H 0.72138 0.47805 0.54186 0.0
H1685 H 0.70853 0.52071 0.57384 0.0
S1686 S 0.70566 0.42964 0.66078 0.0
N1687 N 0.71395 0.41882 0.62476 0.0
N1688 N 0.69943 0.46486 0.65964 0.0
C1689 C 0.70428 0.46918 0.62902 0.0
C1690 C 0.71162 0.44425 0.61006 0.0
C1691 C 0.18571 0.1491 0.56983 0.0
C1692 C 0.21149 0.14318 0.58266 0.0
C1693 C 0.15961 0.13172 0.57633 0.0
C1694 C 0.15812 0.10791 0.59643 0.0
H1695 H 0.18556 0.16695 0.55414 0.0
H1696 H 0.14047 0.13607 0.56448 0.0
S1697 S 0.21916 0.08568 0.6397 0.0
N1698 N 0.23311 0.1131 0.619 0.0
N1699 N 0.18521 0.08149 0.6311 0.0
C1700 C 0.1838 0.10295 0.61046 0.0
C1701 C 0.21003 0.12019 0.6037 0.0
C1702 C 0.21264 0.99883 0.8635 0.0
C1703 C 0.20739 1.01766 0.8398 0.0
C1704 C 0.22281 0.97273 0.85549 0.0
C1705 C 0.22762 0.96431 0.82332 0.0
H1706 H 0.21038 1.00533 0.88897 0.0
H1707 H 0.22867 0.96047 0.87541 0.0
S1708 S 0.21267 1.00287 0.75065 0.0
N1709 N 0.20463 1.02429 0.78174 0.0
N1710 N 0.22333 0.9744 0.76652 0.0
C1711 C 0.22049 0.98152 0.79863 0.0
C1712 C 0.21047 1.00846 0.80691 0.0
C1713 C 0.33551 0.95031 0.01738 0.0
C1714 C 0.32956 0.92242 0.03129 0.0
C1715 C 0.36213 0.97264 0.02644 0.0
C1716 C 0.38355 0.96802 0.05008 0.0
H1717 H 0.31958 0.95473 0.99902 0.0
H1718 H 0.3662 0.99316 0.01409 0.0
S1719 S 0.3781 0.90094 0.09667 0.0
N1720 N 0.34689 0.89238 0.07154 0.0
N1721 N 0.3968 0.93525 0.08927 0.0
C1722 C 0.37768 0.94096 0.0652 0.0
C1723 C 0.35071 0.91788 0.0556 0.0
C1724 C 0.87577 0.69617 0.80233 0.0
C1725 C 0.8787 0.67652 0.82702 0.0
C1726 C 0.86349 0.72294 0.80574 0.0
C1727 C 0.85202 0.73214 0.83367 0.0
H1728 H 0.88371 0.69135 0.78004 0.0
H1729 H 0.86302 0.73666 0.78588 0.0
S1730 S 0.85129 0.68829 0.90489 0.0
N1731 N 0.86715 0.66922 0.88061 0.0
N1732 N 0.8438 0.71686 0.88596 0.0
C1733 C 0.85405 0.71219 0.85799 0.0
C1734 C 0.8672 0.68555 0.85499 0.0
C1735 C 0.87411 0.63395 0.14171 0.0
C1736 C 0.87086 0.65631 0.12088 0.0
C1737 C 0.89912 0.62516 0.14834 0.0
C1738 C 0.92219 0.6384 0.13459 0.0
H1739 H 0.857 0.62263 0.15264 0.0
H1740 H 0.90004 0.60709 0.16363 0.0
S1741 S 0.92674 0.70215 0.08343 0.0
N1742 N 0.8945 0.69426 0.08979 0.0
N1743 N 0.94134 0.67798 0.10258 0.0
C1744 C 0.91983 0.66201 0.11522 0.0
C1745 C 0.89432 0.6709 0.10833 0.0
C1746 C 0.25678 0.20841 0.9133 0.0
C1747 C 0.23463 0.19049 0.88653 0.0
C1748 C 0.2801 0.231 0.90766 0.0
C1749 C 0.28173 0.23707 0.8754 0.0
H1750 H 0.2568 0.20372 0.93836 0.0
H1751 H 0.29734 0.24301 0.92855 0.0
S1752 S 0.23048 0.19346 0.79651 0.0
N1753 N 0.21676 0.17792 0.8262 0.0
N1754 N 0.25992 0.22163 0.81602 0.0
C1755 C 0.25958 0.21937 0.84844 0.0
C1756 C 0.23621 0.19577 0.85398 0.0
C1757 C 0.40019 0.96311 0.32718 0.0
C1758 C 0.38915 0.98973 0.3332 0.0
C1759 C 0.38528 0.93068 0.32791 0.0
C1760 C 0.35855 0.9226 0.33574 0.0
H1761 H 0.42098 0.96741 0.32205 0.0
H1762 H 0.39535 0.9119 0.32347 0.0
S1763 S 0.31911 0.98189 0.35311 0.0
N1764 N 0.34856 1.0044 0.34612 0.0
N1765 N 0.32145 0.94453 0.34917 0.0
C1766 C 0.34708 0.94876 0.34166 0.0
C1767 C 0.36195 0.98176 0.33989 0.0
C1768 C 0.62263 0.43698 0.63518 0.0
C1769 C 0.61035 0.42166 0.65935 0.0
C1770 C 0.61538 0.46372 0.62381 0.0
C1771 C 0.59503 0.47656 0.63535 0.0
H1772 H 0.63842 0.42852 0.62513 0.0
H1773 H 0.62599 0.47454 0.6058 0.0
S1774 S 0.55694 0.44711 0.69945 0.0
N1775 N 0.57674 0.42282 0.69475 0.0
N1776 N 0.56345 0.4722 0.67346 0.0
C1777 C 0.58244 0.46147 0.65925 0.0
C1778 C 0.58993 0.43443 0.6711 0.0
C1779 C 0.42593 0.79603 0.42457 0.0
C1780 C 0.45057 0.82035 0.42417 0.0
C1781 C 0.39894 0.79623 0.40823 0.0
C1782 C 0.39511 0.821 0.3911 0.0
H1783 H 0.42748 0.77616 0.43704 0.0
H1784 H 0.381 0.77605 0.40781 0.0
S1785 S 0.452 0.89009 0.38131 0.0
N1786 N 0.46867 0.87002 0.40437 0.0
N1787 N 0.41835 0.86998 0.37386 0.0
C1788 C 0.41938 0.84551 0.3906 0.0
C1789 C 0.44687 0.84536 0.40711 0.0
C1790 C 0.11557 0.73146 0.14099 0.0
C1791 C 0.09727 0.74199 0.1592 0.0
C1792 C 0.11464 0.69822 0.13396 0.0
C1793 C 0.09533 0.67425 0.14483 0.0
H1794 H 0.13143 0.74909 0.13328 0.0
H1795 H 0.12912 0.69132 0.12001 0.0
S1796 S 0.04343 0.68917 0.19428 0.0
N1797 N 0.05922 0.72511 0.18767 0.0
N1798 N 0.05823 0.66423 0.17587 0.0
C1799 C 0.07704 0.68471 0.163 0.0
C1800 C 0.07777 0.71801 0.16972 0.0
C1801 C 0.13164 0.33237 0.95745 0.0
C1802 C 0.10998 0.30307 0.9443 0.0
C1803 C 0.15753 0.33841 0.94738 0.0
C1804 C 0.16305 0.31517 0.92422 0.0
H1805 H 0.1286 0.35085 0.97564 0.0
H1806 H 0.17343 0.36131 0.95802 0.0
S1807 S 0.11367 0.23508 0.8815 0.0
N1808 N 0.09621 0.2509 0.90615 0.0
N1809 N 0.14446 0.26234 0.88762 0.0
C1810 C 0.14167 0.28598 0.91085 0.0
C1811 C 0.11532 0.27992 0.92076 0.0
C1812 C 0.5283 0.74625 0.98002 0.0
C1813 C 0.5511 0.77437 0.99239 0.0
C1814 C 0.52769 0.71833 0.99296 0.0
C1815 C 0.55005 0.71809 0.01793 0.0
H1816 H 0.51086 0.74584 0.96047 0.0
H1817 H 0.50969 0.69706 0.9838 0.0
S1818 S 0.61345 0.78567 0.06064 0.0
N1819 N 0.59588 0.80046 0.03248 0.0
N1820 N 0.5945 0.74779 0.0563 0.0
C1821 C 0.57273 0.74597 0.03082 0.0
C1822 C 0.57331 0.77427 0.01811 0.0
C1823 C 0.19234 0.80277 0.81345 0.0
C1824 C 0.17313 0.77376 0.79556 0.0
C1825 C 0.22043 0.80924 0.81232 0.0
C1826 C 0.23058 0.7866 0.79418 0.0
H1827 H 0.18552 0.82116 0.82734 0.0
H1828 H 0.23437 0.83191 0.82697 0.0
S1829 S 0.18765 0.70631 0.74354 0.0
N1830 N 0.16493 0.72221 0.7585 0.0
N1831 N 0.2187 0.73324 0.75873 0.0
C1832 C 0.21144 0.75694 0.77684 0.0
C1833 C 0.18246 0.75083 0.77698 0.0
C1834 C 0.04957 0.46916 0.52676 0.0
C1835 C 0.05876 0.44313 0.53478 0.0
C1836 C 0.05228 0.49552 0.55172 0.0
C1837 C 0.06345 0.49629 0.58568 0.0
H1838 H 0.03988 0.46894 0.50114 0.0
H1839 H 0.04613 0.51566 0.54394 0.0
S1840 S 0.09478 0.43578 0.61794 0.0
N1841 N 0.08232 0.42061 0.5775 0.0
N1842 N 0.08718 0.47036 0.62496 0.0
C1843 C 0.07382 0.47082 0.59363 0.0
C1844 C 0.07136 0.44406 0.56801 0.0
C1845 C 0.52189 0.27454 0.35046 0.0
C1846 C 0.53749 0.28636 0.32745 0.0
C1847 C 0.49906 0.28528 0.35619 0.0
C1848 C 0.49106 0.30801 0.33892 0.0
H1849 H 0.52711 0.25656 0.36387 0.0
H1850 H 0.48723 0.27525 0.37367 0.0
S1851 S 0.52504 0.3472 0.27656 0.0
N1852 N 0.54325 0.32253 0.28743 0.0
N1853 N 0.50068 0.34293 0.2988 0.0
C1854 C 0.50663 0.32042 0.31621 0.0
C1855 C 0.52979 0.30956 0.31032 0.0
C1856 C 0.60543 0.60698 0.48675 0.0
C1857 C 0.6292 0.59892 0.47899 0.0
C1858 C 0.59411 0.5974 0.51398 0.0
C1859 C 0.60631 0.57998 0.53544 0.0
H1860 H 0.5949 0.62003 0.47105 0.0
H1861 H 0.57522 0.60324 0.51793 0.0
S1862 S 0.6685 0.55248 0.52663 0.0
N1863 N 0.66455 0.57231 0.49577 0.0
N1864 N 0.64301 0.55432 0.54626 0.0
C1865 C 0.63015 0.57208 0.52831 0.0
C1866 C 0.64163 0.58154 0.50038 0.0
C1867 C 0.28419 0.81673 0.11048 0.0
C1868 C 0.28029 0.84653 0.106 0.0
C1869 C 0.30724 0.81552 0.13343 0.0
C1870 C 0.32708 0.84415 0.15261 0.0
H1871 H 0.26896 0.79419 0.09692 0.0
H1872 H 0.30791 0.792 0.13846 0.0
S1873 S 0.32974 0.92832 0.1465 0.0
N1874 N 0.3007 0.90581 0.11983 0.0
N1875 N 0.34404 0.9025 0.16274 0.0
C1876 C 0.32515 0.87394 0.14601 0.0
C1877 C 0.30152 0.87545 0.12317 0.0
C1878 C 0.03628 0.60067 0.98294 0.0
C1879 C 1.01784 0.57189 0.96165 0.0
C1880 C 0.05178 0.60099 0.01558 0.0
C1881 C 0.049 0.57292 0.02991 0.0
H1882 H 0.03965 0.62314 0.97383 0.0
H1883 H 0.06662 0.62359 0.02958 0.0
S1884 S 1.00204 0.49143 0.98653 0.0
N1885 N 0.99728 0.51447 0.95886 0.0
N1886 N 1.02502 0.51547 0.01967 0.0
C1887 C 1.02984 0.54427 1.00947 0.0
C1888 C 1.0147 0.5437 0.97583 0.0
C1889 C 0.30689 0.28934 0.69041 0.0
C1890 C 0.30615 0.25694 0.6795 0.0
C1891 C 0.30921 0.30188 0.72469 0.0
C1892 C 0.31073 0.28234 0.74895 0.0
H1893 H 0.3062 0.3052 0.67256 0.0
H1894 H 0.31051 0.3271 0.73236 0.0
S1895 S 0.30623 0.19541 0.73383 0.0
N1896 N 0.30455 0.20509 0.69652 0.0
N1897 N 0.30934 0.22908 0.75989 0.0
C1898 C 0.30904 0.24995 0.73836 0.0
C1899 C 0.30662 0.23714 0.70394 0.0
C1900 C 0.60901 0.60249 0.27643 0.0
C1901 C 0.62733 0.58579 0.28967 0.0
C1902 C 0.59983 0.59902 0.24143 0.0
C1903 C 0.6085 0.57857 0.21842 0.0
H1904 H 0.60249 0.61913 0.2931 0.0
H1905 H 0.58592 0.61255 0.23237 0.0
S1906 S 0.65675 0.52994 0.23994 0.0
N1907 N 0.65341 0.54756 0.27641 0.0
N1908 N 0.63705 0.54232 0.21158 0.0
C1909 C 0.6266 0.56168 0.23138 0.0
C1910 C 0.63572 0.56491 0.26668 0.0
C1911 C 0.26453 0.85207 0.92646 0.0
C1912 C 0.23906 0.83078 0.92881 0.0
C1913 C 0.28094 0.84144 0.90619 0.0
C1914 C 0.27103 0.81048 0.88607 0.0
H1915 H 0.27427 0.87433 0.94488 0.0
H1916 H 0.30235 0.85609 0.90898 0.0
S1917 S 0.20105 0.7512 0.87472 0.0
N1918 N 0.20175 0.78137 0.9042 0.0
N1919 N 0.2314 0.76196 0.86356 0.0
C1920 C 0.24339 0.7916 0.88378 0.0
C1921 C 0.22724 0.8021 0.90524 0.0
C1922 C 0.99226 0.55252 0.74495 0.0
C1923 C 0.99038 0.58229 0.76257 0.0
C1924 C 1.00673 0.5504 0.71759 0.0
C1925 C 1.02122 0.57793 0.70593 0.0
H1926 H 0.98214 0.53024 0.75216 0.0
H1927 H 1.00671 0.52668 0.70561 0.0
S1928 S 1.02356 0.66163 0.74356 0.0
N1929 N 1.00494 0.63969 0.76553 0.0
N1930 N 0.03197 0.63637 0.7162 0.0
C1931 C 1.01957 0.60767 0.72373 0.0
C1932 C 1.00444 0.60964 0.75107 0.0
C1933 C 0.28336 0.27191 0.46617 0.0
C1934 C 0.30208 0.26305 0.4903 0.0
C1935 C 0.29201 0.2857 0.439 0.0
C1936 C 0.32 0.29222 0.43512 0.0
H1937 H 0.26174 0.26811 0.46822 0.0
H1938 H 0.27691 0.29233 0.42165 0.0
S1939 S 0.3775 0.27395 0.49074 0.0
N1940 N 0.35006 0.26161 0.50728 0.0
N1941 N 0.36622 0.28828 0.45782 0.0
C1942 C 0.33878 0.28346 0.45896 0.0
C1943 C 0.3299 0.26874 0.48597 0.0
C1944 C 0.41511 0.65027 0.62717 0.0
C1945 C 0.42496 0.68397 0.63165 0.0
C1946 C 0.42817 0.63106 0.61009 0.0
C1947 C 0.45163 0.64525 0.5978 0.0
H1948 H 0.39843 0.63888 0.63875 0.0
H1949 H 0.42157 0.60519 0.60925 0.0
S1950 S 0.48338 0.73242 0.60083 0.0
N1951 N 0.45729 0.73094 0.62025 0.0
N1952 N 0.48292 0.69445 0.58888 0.0
C1953 C 0.46052 0.67883 0.60026 0.0
C1954 C 0.44674 0.6984 0.61704 0.0
C1955 C 0.97604 0.98507 0.64225 0.0
C1956 C 0.94956 0.99045 0.63259 0.0
C1957 C 1.00096 1.00446 0.63509 0.0
C1958 C 1.00047 0.02982 0.61742 0.0
H1959 H 0.97765 0.9661 0.6561 0.0
H1960 H 1.02078 1.00021 0.64439 0.0
S1961 S 0.93627 0.05091 0.58203 0.0
N1962 N 0.92461 1.02136 0.60156 0.0
N1963 N 0.97048 0.05692 0.5879 0.0
C1964 C 0.97394 0.03437 0.60651 0.0
C1965 C 0.94885 1.01503 0.61407 0.0
C1966 C 0.91164 0.10315 0.29358 0.0
C1967 C 0.92873 0.09428 0.319 0.0
C1968 C 0.89998 0.12809 0.30088 0.0
C1969 C 0.90503 0.14502 0.33386 0.0
H1970 H 0.90676 0.09043 0.26779 0.0
H1971 H 0.88603 0.13329 0.28075 0.0
S1972 S 0.94934 0.13284 0.40928 0.0
N1973 N 0.95104 0.10536 0.37841 0.0
N1974 N 0.92894 0.15279 0.39197 0.0
C1975 C 0.92265 0.13725 0.35945 0.0
C1976 C 0.93463 0.11175 0.35205 0.0
C1977 C 0.79765 0.1768 0.15162 0.0
C1978 C 0.80631 0.20123 0.1808 0.0
C1979 C 0.77021 0.15549 0.14259 0.0
C1980 C 0.75094 0.15792 0.16277 0.0
H1981 H 0.81203 0.17449 0.13545 0.0
H1982 H 0.76404 0.13719 0.11987 0.0
S1983 S 0.76381 0.21518 0.24245 0.0
N1984 N 0.7934 0.22566 0.2297 0.0
N1985 N 0.7425 0.18468 0.21368 0.0
C1986 C 0.75946 0.18173 0.19201 0.0
C1987 C 0.78698 0.20371 0.20076 0.0
C1988 C 0.29358 0.46522 0.34376 0.0
C1989 C 0.26838 0.46648 0.35482 0.0
C1990 C 0.30558 0.43813 0.34472 0.0
C1991 C 0.2931 0.40908 0.3558 0.0
H1992 H 0.30457 0.48572 0.33442 0.0
H1993 H 0.32473 0.43985 0.33583 0.0
S1994 S 0.22844 0.39874 0.38846 0.0
N1995 N 0.23286 0.43473 0.37868 0.0
N1996 N 0.25393 0.38507 0.37864 0.0
C1997 C 0.26816 0.41013 0.3666 0.0
C1998 C 0.25645 0.43794 0.36664 0.0
C1999 C 0.26734 0.46439 0.10998 0.0
C2000 C 0.29355 0.48599 0.12777 0.0
C2001 C 0.24274 0.4744 0.10516 0.0
C2002 C 0.24355 0.50647 0.11746 0.0
H2003 H 0.26566 0.43936 0.10053 0.0
H2004 H 0.22296 0.45691 0.09211 0.0
S2005 S 0.30646 0.57293 0.16362 0.0
N2006 N 0.31834 0.54136 0.15646 0.0
N2007 N 0.27248 0.55986 0.1469 0.0
C2008 C 0.26951 0.52834 0.13439 0.0
C2009 C 0.29437 0.5182 0.13965 0.0
C2010 C 0.88974 0.91941 0.29706 0.0
C2011 C 0.91485 0.93439 0.32133 0.0
C2012 C 0.86672 0.89772 0.30449 0.0
C2013 C 0.8677 0.89012 0.33655 0.0
H2014 H 0.88759 0.9251 0.27222 0.0
H2015 H 0.84777 0.88721 0.28507 0.0
S2016 S 0.9273 0.92465 0.41007 0.0
N2017 N 0.93854 0.94114 0.37949 0.0
N2018 N 0.89539 0.90022 0.39328 0.0
C2019 C 0.89265 0.90457 0.36107 0.0
C2020 C 0.91616 0.92676 0.35352 0.0
C2021 C 0.78161 0.17814 0.89969 0.0
C2022 C 0.75847 0.15641 0.87549 0.0
C2023 C 0.79495 0.21027 0.89551 0.0
C2024 C 0.78632 0.22261 0.86668 0.0
H2025 H 0.78935 0.17044 0.92233 0.0
H2026 H 0.8125 0.22553 0.91502 0.0
S2027 S 0.72519 0.17731 0.79734 0.0
N2028 N 0.72651 0.15147 0.82276 0.0
N2029 N 0.75165 0.21012 0.81455 0.0
C2030 C 0.76309 0.20122 0.84263 0.0
C2031 C 0.74925 0.1689 0.84716 0.0
loop_
_geom_bond_atom_site_label_1
_geom_bond_atom_site_label_2
_geom_bond_distance
_geom_bond_site_symmetry_2
_ccdc_geom_bond_type
O0 Cd1 2.223 1_655 S
O0 C8 1.315 . S
Cd1 O0 2.223 1_455 S
Cd1 O4 2.297 . S
Cd1 O5 2.439 . S
Cd1 O11 2.240 1_455 S
Cd2 O3 2.240 1_655 S
Cd2 O10 2.223 . S
Cd2 O12 2.297 . S
Cd2 O13 2.439 1_655 S
O3 Cd2 2.240 1_455 S
O3 C8 1.279 1_455 S
O4 Cd1 2.297 . S
O4 C6 1.247 . S
O5 Cd1 2.439 . S
O5 C6 1.208 . S
C6 O4 1.247 . S
C6 O5 1.208 . S
C7 O12 1.247 1_455 S
C7 O13 1.208 . S
C8 O0 1.315 . S
C8 O3 1.279 1_655 S
C9 O10 1.315 . S
C9 O11 1.279 . S
O10 Cd2 2.223 . S
O10 C9 1.315 . S
O11 Cd1 2.240 1_655 S
O11 C9 1.279 . S
O12 Cd2 2.297 . S
O12 C7 1.247 1_655 S
O13 Cd2 2.439 1_455 S
O13 C7 1.208 . S
O14 Cd15 2.223 . S
O14 C22 1.315 . S
Cd15 O14 2.223 . S
Cd15 O18 2.297 . S
Cd15 O19 2.439 . S
Cd15 O25 2.240 . S
Cd16 O17 2.240 . S
Cd16 O24 2.223 . S
Cd16 O26 2.297 . S
Cd16 O27 2.439 . S
O17 Cd16 2.240 . S
O17 C22 1.279 . S
O18 Cd15 2.297 . S
O18 C20 1.247 . S
O19 Cd15 2.439 . S
O19 C20 1.208 . S
C20 O18 1.247 . S
C20 O19 1.208 . S
C21 O26 1.247 . S
C21 O27 1.208 . S
C22 O14 1.315 . S
C22 O17 1.279 . S
C23 O24 1.315 . S
C23 O25 1.279 . S
O24 Cd16 2.223 . S
O24 C23 1.315 . S
O25 Cd15 2.240 . S
O25 C23 1.279 . S
O26 Cd16 2.297 . S
O26 C21 1.247 . S
O27 Cd16 2.439 . S
O27 C21 1.208 . S
O28 Cd29 2.223 . S
O28 C36 1.315 . S
Cd29 O28 2.223 . S
Cd29 O32 2.297 . S
Cd29 O33 2.439 . S
Cd29 O39 2.240 . S
Cd30 O31 2.240 . S
Cd30 O38 2.223 . S
Cd30 O40 2.297 . S
Cd30 O41 2.439 . S
O31 Cd30 2.240 . S
O31 C36 1.279 . S
O32 Cd29 2.297 . S
O32 C34 1.247 . S
O33 Cd29 2.439 . S
O33 C34 1.208 . S
C34 O32 1.247 . S
C34 O33 1.208 . S
C35 O40 1.247 . S
C35 O41 1.208 . S
C36 O28 1.315 . S
C36 O31 1.279 . S
C37 O38 1.315 . S
C37 O39 1.279 . S
O38 Cd30 2.223 . S
O38 C37 1.315 . S
O39 Cd29 2.240 . S
O39 C37 1.279 . S
O40 Cd30 2.297 . S
O40 C35 1.247 . S
O41 Cd30 2.439 . S
O41 C35 1.208 . S
O42 Cd43 2.223 . S
O42 C50 1.315 . S
Cd43 O42 2.223 . S
Cd43 O46 2.297 . S
Cd43 O47 2.439 . S
Cd43 O53 2.240 . S
Cd44 O45 2.240 . S
Cd44 O52 2.223 . S
Cd44 O54 2.297 . S
Cd44 O55 2.439 . S
O45 Cd44 2.240 . S
O45 C50 1.279 . S
O46 Cd43 2.297 . S
O46 C48 1.247 . S
O47 Cd43 2.439 . S
O47 C48 1.208 . S
C48 O46 1.247 . S
C48 O47 1.208 . S
C49 O54 1.247 . S
C49 O55 1.208 . S
C50 O42 1.315 . S
C50 O45 1.279 . S
C51 O52 1.315 . S
C51 O53 1.279 . S
O52 Cd44 2.223 . S
O52 C51 1.315 . S
O53 Cd43 2.240 . S
O53 C51 1.279 . S
O54 Cd44 2.297 . S
O54 C49 1.247 . S
O55 Cd44 2.439 . S
O55 C49 1.208 . S
O56 Cd57 2.223 . S
O56 C64 1.315 . S
Cd57 O56 2.223 . S
Cd57 O60 2.297 . S
Cd57 O61 2.439 . S
Cd57 O67 2.240 . S
Cd58 O59 2.240 . S
Cd58 O66 2.223 . S
Cd58 O68 2.297 . S
Cd58 O69 2.439 . S
O59 Cd58 2.240 . S
O59 C64 1.279 . S
O60 Cd57 2.297 . S
O60 C62 1.247 . S
O61 Cd57 2.439 . S
O61 C62 1.208 . S
C62 O60 1.247 . S
C62 O61 1.208 . S
C63 O68 1.247 . S
C63 O69 1.208 . S
C64 O56 1.315 . S
C64 O59 1.279 . S
C65 O66 1.315 . S
C65 O67 1.279 . S
O66 Cd58 2.223 . S
O66 C65 1.315 . S
O67 Cd57 2.240 . S
O67 C65 1.279 . S
O68 Cd58 2.297 . S
O68 C63 1.247 . S
O69 Cd58 2.439 . S
O69 C63 1.208 . S
O70 Cd71 2.223 . S
O70 C78 1.315 . S
Cd71 O70 2.223 . S
Cd71 O74 2.297 . S
Cd71 O75 2.439 . S
Cd71 O81 2.240 . S
Cd72 O73 2.240 . S
Cd72 O80 2.223 . S
Cd72 O82 2.297 . S
Cd72 O83 2.439 . S
O73 Cd72 2.240 . S
O73 C78 1.279 . S
O74 Cd71 2.297 . S
O74 C76 1.247 . S
O75 Cd71 2.439 . S
O75 C76 1.208 . S
C76 O74 1.247 . S
C76 O75 1.208 . S
C77 O82 1.247 . S
C77 O83 1.208 . S
C78 O70 1.315 . S
C78 O73 1.279 . S
C79 O80 1.315 . S
C79 O81 1.279 . S
O80 Cd72 2.223 . S
O80 C79 1.315 . S
O81 Cd71 2.240 . S
O81 C79 1.279 . S
O82 Cd72 2.297 . S
O82 C77 1.247 . S
O83 Cd72 2.439 . S
O83 C77 1.208 . S
O84 Cd85 2.223 . S
O84 C92 1.315 . S
Cd85 O84 2.223 . S
Cd85 O88 2.297 . S
Cd85 O89 2.439 . S
Cd85 O95 2.240 . S
Cd86 O87 2.240 . S
Cd86 O94 2.223 . S
Cd86 O96 2.297 . S
Cd86 O97 2.439 . S
O87 Cd86 2.240 . S
O87 C92 1.279 . S
O88 Cd85 2.297 . S
O88 C90 1.247 . S
O89 Cd85 2.439 . S
O89 C90 1.208 . S
C90 O88 1.247 . S
C90 O89 1.208 . S
C91 O96 1.247 . S
C91 O97 1.208 . S
C92 O84 1.315 . S
C92 O87 1.279 . S
C93 O94 1.315 . S
C93 O95 1.279 . S
O94 Cd86 2.223 . S
O94 C93 1.315 . S
O95 Cd85 2.240 . S
O95 C93 1.279 . S
O96 Cd86 2.297 . S
O96 C91 1.247 . S
O97 Cd86 2.439 . S
O97 C91 1.208 . S
O98 Cd99 2.223 1_655 S
O98 C106 1.315 1_655 S
Cd99 O98 2.223 1_455 S
Cd99 O102 2.297 . S
Cd99 O103 2.439 . S
Cd99 O109 2.240 1_455 S
Cd100 O101 2.240 . S
Cd100 O108 2.223 1_455 S
Cd100 O110 2.285 1_455 S
Cd100 O111 2.439 . S
O101 Cd100 2.240 . S
O101 C106 1.279 1_554 S
O102 Cd99 2.297 . S
O102 C104 1.247 . S
O103 Cd99 2.439 . S
O103 C104 1.208 . S
C104 O102 1.247 . S
C104 O103 1.208 . S
C105 O110 1.226 1_455 S
C105 O111 1.208 . S
C106 O98 1.315 1_455 S
C106 O101 1.279 1_556 S
C107 O108 1.315 1_556 S
C107 O109 1.279 . S
O108 Cd100 2.223 1_655 S
O108 C107 1.315 1_554 S
O109 Cd99 2.240 1_655 S
O109 C107 1.279 . S
O110 Cd100 2.285 1_655 S
O110 C105 1.226 1_655 S
O111 Cd100 2.439 . S
O111 C105 1.208 . S
O112 Cd113 2.223 . S
O112 C120 1.315 . S
Cd113 O112 2.223 . S
Cd113 O116 2.297 . S
Cd113 O117 2.439 . S
Cd113 O123 2.240 . S
Cd114 O115 2.240 . S
Cd114 O122 2.223 1_545 S
Cd114 O124 2.297 . S
Cd114 O125 2.439 . S
O115 Cd114 2.240 . S
O115 C120 1.279 . S
O116 Cd113 2.297 . S
O116 C118 1.247 . S
O117 Cd113 2.439 . S
O117 C118 1.208 . S
C118 O116 1.247 . S
C118 O117 1.208 . S
C119 O124 1.247 . S
C119 O125 1.208 . S
C120 O112 1.315 . S
C120 O115 1.279 . S
C121 O122 1.315 . S
C121 O123 1.279 1_565 S
O122 Cd114 2.223 1_565 S
O122 C121 1.315 . S
O123 Cd113 2.240 . S
O123 C121 1.279 1_545 S
O124 Cd114 2.297 . S
O124 C119 1.247 . S
O125 Cd114 2.439 . S
O125 C119 1.208 . S
O126 Cd127 2.223 . S
O126 C134 1.315 . S
Cd127 O126 2.223 . S
Cd127 O130 2.297 . S
Cd127 O131 2.439 . S
Cd127 O137 2.240 . S
Cd128 O129 2.240 . S
Cd128 O136 2.223 . S
Cd128 O138 2.297 . S
Cd128 O139 2.439 . S
O129 Cd128 2.240 . S
O129 C134 1.279 . S
O130 Cd127 2.297 . S
O130 C132 1.247 . S
O131 Cd127 2.439 . S
O131 C132 1.208 . S
C132 O130 1.247 . S
C132 O131 1.208 . S
C133 O138 1.247 . S
C133 O139 1.208 . S
C134 O126 1.315 . S
C134 O129 1.279 . S
C135 O136 1.315 . S
C135 O137 1.279 . S
O136 Cd128 2.223 . S
O136 C135 1.315 . S
O137 Cd127 2.240 . S
O137 C135 1.279 . S
O138 Cd128 2.297 . S
O138 C133 1.247 . S
O139 Cd128 2.439 . S
O139 C133 1.208 . S
O140 Cd141 2.223 . S
O140 C148 1.315 . S
Cd141 O140 2.223 . S
Cd141 O144 2.297 . S
Cd141 O145 2.439 . S
Cd141 O151 2.240 . S
Cd142 O143 2.240 . S
Cd142 O150 2.223 . S
Cd142 O152 2.297 . S
Cd142 O153 2.439 . S
O143 Cd142 2.240 . S
O143 C148 1.279 . S
O144 Cd141 2.297 . S
O144 C146 1.247 . S
O145 Cd141 2.439 . S
O145 C146 1.208 . S
C146 O144 1.247 . S
C146 O145 1.208 . S
C147 O152 1.247 . S
C147 O153 1.208 . S
C148 O140 1.315 . S
C148 O143 1.279 . S
C149 O150 1.315 . S
C149 O151 1.279 . S
O150 Cd142 2.223 . S
O150 C149 1.315 . S
O151 Cd141 2.240 . S
O151 C149 1.279 . S
O152 Cd142 2.297 . S
O152 C147 1.247 . S
O153 Cd142 2.439 . S
O153 C147 1.208 . S
O154 Cd155 2.223 . S
O154 C162 1.315 . S
Cd155 O154 2.223 . S
Cd155 O158 2.297 . S
Cd155 O159 2.439 1_554 S
Cd155 O165 2.242 . S
Cd156 O157 2.240 1_556 S
Cd156 O164 2.223 1_556 S
Cd156 O166 2.297 . S
Cd156 O167 2.439 . S
O157 Cd156 2.240 1_554 S
O157 C162 1.279 . S
O158 Cd155 2.297 . S
O158 C160 1.247 . S
O159 Cd155 2.439 1_556 S
O159 C160 1.208 1_556 S
C160 O158 1.247 . S
C160 O159 1.208 1_554 S
C161 O166 1.247 . S
C161 O167 1.208 . S
C162 O154 1.315 . S
C162 O157 1.279 . S
C163 O164 1.315 . S
C163 O165 1.280 . S
O164 Cd156 2.223 1_554 S
O164 C163 1.315 . S
O165 Cd155 2.242 . S
O165 C163 1.280 . S
O166 Cd156 2.297 . S
O166 C161 1.247 . S
O167 Cd156 2.439 . S
O167 C161 1.208 . S
O168 Cd169 2.223 . S
O168 C176 1.315 . S
Cd169 O168 2.223 . S
Cd169 O172 2.297 . S
Cd169 O173 2.439 . S
Cd169 O179 2.240 . S
Cd170 O171 2.240 . S
Cd170 O178 2.223 . S
Cd170 O180 2.297 . S
Cd170 O181 2.439 . S
O171 Cd170 2.240 . S
O171 C176 1.279 . S
O172 Cd169 2.297 . S
O172 C174 1.247 . S
O173 Cd169 2.439 . S
O173 C174 1.208 . S
C174 O172 1.247 . S
C174 O173 1.208 . S
C175 O180 1.247 . S
C175 O181 1.208 . S
C176 O168 1.315 . S
C176 O171 1.279 . S
C177 O178 1.315 . S
C177 O179 1.279 . S
O178 Cd170 2.223 . S
O178 C177 1.315 . S
O179 Cd169 2.240 . S
O179 C177 1.279 . S
O180 Cd170 2.297 . S
O180 C175 1.247 . S
O181 Cd170 2.439 . S
O181 C175 1.208 . S
O182 Cd183 2.223 . S
O182 C190 1.315 . S
Cd183 O182 2.223 . S
Cd183 O186 2.297 . S
Cd183 O187 2.439 . S
Cd183 O193 2.240 . S
Cd184 O185 2.240 . S
Cd184 O192 2.223 . S
Cd184 O194 2.297 . S
Cd184 O195 2.439 . S
O185 Cd184 2.240 . S
O185 C190 1.279 . S
O186 Cd183 2.297 . S
O186 C188 1.247 . S
O187 Cd183 2.439 . S
O187 C188 1.208 . S
C188 O186 1.247 . S
C188 O187 1.208 . S
C189 O194 1.247 . S
C189 O195 1.208 . S
C190 O182 1.315 . S
C190 O185 1.279 . S
C191 O192 1.315 . S
C191 O193 1.279 . S
O192 Cd184 2.223 . S
O192 C191 1.315 . S
O193 Cd183 2.240 . S
O193 C191 1.279 . S
O194 Cd184 2.297 . S
O194 C189 1.247 . S
O195 Cd184 2.439 . S
O195 C189 1.208 . S
O196 Cd197 2.223 . S
O196 C204 1.315 . S
Cd197 O196 2.223 . S
Cd197 O200 2.297 . S
Cd197 O201 2.439 . S
Cd197 O207 2.240 . S
Cd198 O199 2.240 . S
Cd198 O206 2.223 . S
Cd198 O208 2.297 . S
Cd198 O209 2.439 . S
O199 Cd198 2.240 . S
O199 C204 1.279 . S
O200 Cd197 2.297 . S
O200 C202 1.247 . S
O201 Cd197 2.439 . S
O201 C202 1.208 . S
C202 O200 1.247 . S
C202 O201 1.208 . S
C203 O208 1.247 . S
C203 O209 1.208 . S
C204 O196 1.315 . S
C204 O199 1.279 . S
C205 O206 1.315 . S
C205 O207 1.279 . S
O206 Cd198 2.223 . S
O206 C205 1.315 . S
O207 Cd197 2.240 . S
O207 C205 1.279 . S
O208 Cd198 2.297 . S
O208 C203 1.247 . S
O209 Cd198 2.439 . S
O209 C203 1.208 . S
O210 Cd211 2.223 . S
O210 C218 1.315 . S
Cd211 O210 2.223 . S
Cd211 O214 2.297 . S
Cd211 O215 2.439 . S
Cd211 O221 2.240 . S
Cd212 O213 2.240 . S
Cd212 O220 2.223 . S
Cd212 O222 2.297 . S
Cd212 O223 2.439 . S
O213 Cd212 2.240 . S
O213 C218 1.279 . S
O214 Cd211 2.297 . S
O214 C216 1.247 . S
O215 Cd211 2.439 . S
O215 C216 1.208 . S
C216 O214 1.247 . S
C216 O215 1.208 . S
C217 O222 1.247 . S
C217 O223 1.208 . S
C218 O210 1.315 . S
C218 O213 1.279 . S
C219 O220 1.315 . S
C219 O221 1.279 . S
O220 Cd212 2.223 . S
O220 C219 1.315 . S
O221 Cd211 2.240 . S
O221 C219 1.279 . S
O222 Cd212 2.297 . S
O222 C217 1.247 . S
O223 Cd212 2.439 . S
O223 C217 1.208 . S
O224 Cd225 2.223 . S
O224 C232 1.315 . S
Cd225 O224 2.223 . S
Cd225 O228 2.297 1_565 S
Cd225 O229 2.439 1_565 S
Cd225 O235 2.240 . S
Cd226 O227 2.240 1_565 S
Cd226 O234 2.223 . S
Cd226 O236 2.297 . S
Cd226 O237 2.439 1_565 S
O227 Cd226 2.240 1_545 S
O227 C232 1.279 1_545 S
O228 Cd225 2.297 1_545 S
O228 C230 1.247 . S
O229 Cd225 2.439 1_545 S
O229 C230 1.208 . S
C230 O228 1.247 . S
C230 O229 1.208 . S
C231 O236 1.247 1_545 S
C231 O237 1.208 . S
C232 O224 1.315 . S
C232 O227 1.279 1_565 S
C233 O234 1.315 . S
C233 O235 1.279 . S
O234 Cd226 2.223 . S
O234 C233 1.315 . S
O235 Cd225 2.240 . S
O235 C233 1.279 . S
O236 Cd226 2.297 . S
O236 C231 1.247 1_565 S
O237 Cd226 2.439 1_545 S
O237 C231 1.208 . S
O238 Cd239 2.223 . S
O238 C246 1.315 . S
Cd239 O238 2.223 . S
Cd239 O242 2.297 . S
Cd239 O243 2.439 . S
Cd239 O249 2.240 . S
Cd240 O241 2.240 . S
Cd240 O248 2.223 . S
Cd240 O250 2.297 . S
Cd240 O251 2.439 . S
O241 Cd240 2.240 . S
O241 C246 1.279 . S
O242 Cd239 2.297 . S
O242 C244 1.247 . S
O243 Cd239 2.439 . S
O243 C244 1.208 . S
C244 O242 1.247 . S
C244 O243 1.208 . S
C245 O250 1.247 . S
C245 O251 1.208 . S
C246 O238 1.315 . S
C246 O241 1.279 . S
C247 O248 1.315 . S
C247 O249 1.279 . S
O248 Cd240 2.223 . S
O248 C247 1.315 . S
O249 Cd239 2.240 . S
O249 C247 1.279 . S
O250 Cd240 2.297 . S
O250 C245 1.247 . S
O251 Cd240 2.439 . S
O251 C245 1.208 . S
O252 Cd253 2.223 . S
O252 C260 1.315 . S
Cd253 O252 2.223 . S
Cd253 O256 2.297 . S
Cd253 O257 2.439 . S
Cd253 O263 2.240 . S
Cd254 O255 2.240 . S
Cd254 O262 2.223 . S
Cd254 O264 2.297 . S
Cd254 O265 2.439 . S
O255 Cd254 2.240 . S
O255 C260 1.279 . S
O256 Cd253 2.297 . S
O256 C258 1.247 . S
O257 Cd253 2.439 . S
O257 C258 1.208 . S
C258 O256 1.247 . S
C258 O257 1.208 . S
C259 O264 1.247 . S
C259 O265 1.208 . S
C260 O252 1.315 . S
C260 O255 1.279 . S
C261 O262 1.315 . S
C261 O263 1.279 . S
O262 Cd254 2.223 . S
O262 C261 1.315 . S
O263 Cd253 2.240 . S
O263 C261 1.279 . S
O264 Cd254 2.297 . S
O264 C259 1.247 . S
O265 Cd254 2.439 . S
O265 C259 1.208 . S
O266 Cd267 2.223 . S
O266 C274 1.315 . S
Cd267 O266 2.223 . S
Cd267 O270 2.297 1_545 S
Cd267 O271 2.439 1_545 S
Cd267 O277 2.240 . S
Cd268 O269 2.240 . S
Cd268 O276 2.223 . S
Cd268 O278 2.297 . S
Cd268 O279 2.439 . S
O269 Cd268 2.240 . S
O269 C274 1.279 . S
O270 Cd267 2.297 1_565 S
O270 C272 1.247 . S
O271 Cd267 2.439 1_565 S
O271 C272 1.208 . S
C272 O270 1.247 . S
C272 O271 1.208 . S
C273 O278 1.247 . S
C273 O279 1.208 . S
C274 O266 1.315 . S
C274 O269 1.279 . S
C275 O276 1.315 . S
C275 O277 1.279 . S
O276 Cd268 2.223 . S
O276 C275 1.315 . S
O277 Cd267 2.240 . S
O277 C275 1.279 . S
O278 Cd268 2.297 . S
O278 C273 1.247 . S
O279 Cd268 2.439 . S
O279 C273 1.208 . S
O280 Cd281 2.223 . S
O280 C288 1.315 . S
Cd281 O280 2.223 . S
Cd281 O284 2.297 . S
Cd281 O285 2.439 . S
Cd281 O291 2.240 . S
Cd282 O283 2.240 . S
Cd282 O290 2.223 . S
Cd282 O292 2.297 . S
Cd282 O293 2.439 . S
O283 Cd282 2.240 . S
O283 C288 1.279 . S
O284 Cd281 2.297 . S
O284 C286 1.247 . S
O285 Cd281 2.439 . S
O285 C286 1.208 . S
C286 O284 1.247 . S
C286 O285 1.208 . S
C287 O292 1.247 . S
C287 O293 1.208 . S
C288 O280 1.315 . S
C288 O283 1.279 . S
C289 O290 1.315 . S
C289 O291 1.279 . S
O290 Cd282 2.223 . S
O290 C289 1.315 . S
O291 Cd281 2.240 . S
O291 C289 1.279 . S
O292 Cd282 2.297 . S
O292 C287 1.247 . S
O293 Cd282 2.439 . S
O293 C287 1.208 . S
O294 Cd295 2.223 . S
O294 C302 1.315 . S
Cd295 O294 2.223 . S
Cd295 O298 2.297 . S
Cd295 O299 2.439 . S
Cd295 O305 2.240 . S
Cd296 O297 2.240 . S
Cd296 O304 2.223 . S
Cd296 O306 2.297 . S
Cd296 O307 2.439 . S
O297 Cd296 2.240 . S
O297 C302 1.279 . S
O298 Cd295 2.297 . S
O298 C300 1.247 . S
O299 Cd295 2.439 . S
O299 C300 1.208 . S
C300 O298 1.247 . S
C300 O299 1.208 . S
C301 O306 1.247 . S
C301 O307 1.208 . S
C302 O294 1.315 . S
C302 O297 1.279 . S
C303 O304 1.315 . S
C303 O305 1.279 . S
O304 Cd296 2.223 . S
O304 C303 1.315 . S
O305 Cd295 2.240 . S
O305 C303 1.279 . S
O306 Cd296 2.297 . S
O306 C301 1.247 . S
O307 Cd296 2.439 . S
O307 C301 1.208 . S
O308 Cd309 2.223 . S
O308 C316 1.315 . S
Cd309 O308 2.223 . S
Cd309 O312 2.297 . S
Cd309 O313 2.439 . S
Cd309 O319 2.240 . S
Cd310 O311 2.240 . S
Cd310 O318 2.223 . S
Cd310 O320 2.297 . S
Cd310 O321 2.439 . S
O311 Cd310 2.240 . S
O311 C316 1.279 . S
O312 Cd309 2.297 . S
O312 C314 1.247 . S
O313 Cd309 2.439 . S
O313 C314 1.208 . S
C314 O312 1.247 . S
C314 O313 1.208 . S
C315 O320 1.247 . S
C315 O321 1.208 . S
C316 O308 1.315 . S
C316 O311 1.279 . S
C317 O318 1.315 . S
C317 O319 1.279 . S
O318 Cd310 2.223 . S
O318 C317 1.315 . S
O319 Cd309 2.240 . S
O319 C317 1.279 . S
O320 Cd310 2.297 . S
O320 C315 1.247 . S
O321 Cd310 2.439 . S
O321 C315 1.208 . S
O322 Cd323 2.223 . S
O322 C330 1.315 . S
Cd323 O322 2.223 . S
Cd323 O326 2.297 . S
Cd323 O327 2.439 . S
Cd323 O333 2.240 . S
Cd324 O325 2.240 . S
Cd324 O332 2.223 . S
Cd324 O334 2.297 . S
Cd324 O335 2.439 . S
O325 Cd324 2.240 . S
O325 C330 1.279 . S
O326 Cd323 2.297 . S
O326 C328 1.247 . S
O327 Cd323 2.439 . S
O327 C328 1.208 . S
C328 O326 1.247 . S
C328 O327 1.208 . S
C329 O334 1.247 . S
C329 O335 1.208 . S
C330 O322 1.315 . S
C330 O325 1.279 . S
C331 O332 1.315 . S
C331 O333 1.279 . S
O332 Cd324 2.223 . S
O332 C331 1.315 . S
O333 Cd323 2.240 . S
O333 C331 1.279 . S
O334 Cd324 2.297 . S
O334 C329 1.247 . S
O335 Cd324 2.439 . S
O335 C329 1.208 . S
Tb336 C338 2.809 1_455 S
Tb336 O356 2.484 1_455 S
Tb336 O357 2.440 1_455 S
Tb336 O358 2.658 . S
Tb336 O359 2.409 . S
Tb336 O360 2.378 . S
Tb336 O364 2.325 . S
Tb336 O367 2.341 1_545 S
Tb337 C347 2.809 . S
Tb337 O358 2.325 . S
Tb337 O361 2.341 . S
Tb337 O362 2.484 . S
Tb337 O363 2.440 . S
Tb337 O364 2.658 . S
Tb337 O365 2.409 . S
Tb337 O366 2.378 . S
C338 Tb336 2.809 1_655 S
C338 C339 1.514 . S
C338 O356 1.248 . S
C338 O357 1.266 . S
C339 C338 1.514 . S
C339 C340 1.359 . S
C339 C344 1.348 . S
C340 C339 1.359 . S
C340 C341 1.380 . S
C340 H368 0.929 . S
C341 C340 1.380 . S
C341 C342 1.347 . S
C341 H369 0.931 . S
C342 C341 1.347 . S
C342 C343 1.369 . S
C343 C342 1.369 . S
C343 C344 1.408 . S
C343 H370 0.930 . S
C344 C339 1.348 . S
C344 C343 1.408 . S
C344 H371 0.930 . S
C345 O358 1.281 . S
C345 O359 1.254 . S
C346 O360 1.236 . S
C346 O361 1.266 . S
C347 Tb337 2.809 . S
C347 C348 1.514 . S
C347 O362 1.248 . S
C347 O363 1.266 . S
C348 C347 1.514 . S
C348 C349 1.357 1_545 S
C348 C353 1.348 . S
C349 C348 1.357 1_565 S
C349 C350 1.384 . S
C349 H372 0.935 . S
C350 C349 1.384 . S
C350 C351 1.347 . S
C350 H373 0.931 . S
C351 C350 1.347 . S
C351 C352 1.363 1_565 S
C352 C351 1.363 1_545 S
C352 C353 1.419 . S
C352 H374 0.926 . S
C353 C348 1.348 . S
C353 C352 1.419 . S
C353 H375 0.930 . S
C354 O364 1.281 . S
C354 O365 1.254 . S
C355 O366 1.236 1_565 S
C355 O367 1.266 . S
O356 Tb336 2.484 1_655 S
O356 C338 1.248 . S
O357 Tb336 2.440 1_655 S
O357 C338 1.266 . S
O358 Tb336 2.658 . S
O358 Tb337 2.325 . S
O358 C345 1.281 . S
O359 Tb336 2.409 . S
O359 C345 1.254 . S
O360 Tb336 2.378 . S
O360 C346 1.236 . S
O361 Tb337 2.341 . S
O361 C346 1.266 . S
O362 Tb337 2.484 . S
O362 C347 1.248 . S
O363 Tb337 2.440 . S
O363 C347 1.266 . S
O364 Tb336 2.325 . S
O364 Tb337 2.658 . S
O364 C354 1.281 . S
O365 Tb337 2.409 . S
O365 C354 1.254 . S
O366 Tb337 2.378 . S
O366 C355 1.236 1_545 S
O367 Tb336 2.341 1_565 S
O367 C355 1.266 . S
H368 C340 0.929 . S
H369 C341 0.931 . S
H370 C343 0.930 . S
H371 C344 0.930 . S
H372 C349 0.935 . S
H373 C350 0.931 . S
H374 C352 0.926 . S
H375 C353 0.930 . S
Tb376 C378 2.809 . S
Tb376 O396 2.484 . S
Tb376 O397 2.440 . S
Tb376 O398 2.658 . S
Tb376 O399 2.409 . S
Tb376 O400 2.378 . S
Tb376 O404 2.325 . S
Tb376 O407 2.341 . S
Tb377 C387 2.809 . S
Tb377 O398 2.325 . S
Tb377 O401 2.341 . S
Tb377 O402 2.484 . S
Tb377 O403 2.440 . S
Tb377 O404 2.658 . S
Tb377 O405 2.409 . S
Tb377 O406 2.378 . S
C378 Tb376 2.809 . S
C378 C379 1.514 . S
C378 O396 1.248 . S
C378 O397 1.266 . S
C379 C378 1.514 . S
C379 C380 1.359 . S
C379 C384 1.348 . S
C380 C379 1.359 . S
C380 C381 1.380 . S
C380 H408 0.929 . S
C381 C380 1.380 . S
C381 C382 1.347 . S
C381 H409 0.931 . S
C382 C381 1.347 . S
C382 C383 1.369 . S
C383 C382 1.369 . S
C383 C384 1.408 . S
C383 H410 0.930 . S
C384 C379 1.348 . S
C384 C383 1.408 . S
C384 H411 0.930 . S
C385 O398 1.281 . S
C385 O399 1.254 . S
C386 O400 1.236 . S
C386 O401 1.266 . S
C387 Tb377 2.809 . S
C387 C388 1.514 . S
C387 O402 1.248 . S
C387 O403 1.266 . S
C388 C387 1.514 . S
C388 C389 1.359 . S
C388 C393 1.348 . S
C389 C388 1.359 . S
C389 C390 1.380 . S
C389 H412 0.929 . S
C390 C389 1.380 . S
C390 C391 1.347 . S
C390 H413 0.931 . S
C391 C390 1.347 . S
C391 C392 1.369 . S
C392 C391 1.369 . S
C392 C393 1.408 . S
C392 H414 0.930 . S
C393 C388 1.348 . S
C393 C392 1.408 . S
C393 H415 0.930 . S
C394 O404 1.281 . S
C394 O405 1.254 . S
C395 O406 1.236 . S
C395 O407 1.266 . S
O396 Tb376 2.484 . S
O396 C378 1.248 . S
O397 Tb376 2.440 . S
O397 C378 1.266 . S
O398 Tb376 2.658 . S
O398 Tb377 2.325 . S
O398 C385 1.281 . S
O399 Tb376 2.409 . S
O399 C385 1.254 . S
O400 Tb376 2.378 . S
O400 C386 1.236 . S
O401 Tb377 2.341 . S
O401 C386 1.266 . S
O402 Tb377 2.484 . S
O402 C387 1.248 . S
O403 Tb377 2.440 . S
O403 C387 1.266 . S
O404 Tb376 2.325 . S
O404 Tb377 2.658 . S
O404 C394 1.281 . S
O405 Tb377 2.409 . S
O405 C394 1.254 . S
O406 Tb377 2.378 . S
O406 C395 1.236 . S
O407 Tb376 2.341 . S
O407 C395 1.266 . S
H408 C380 0.929 . S
H409 C381 0.931 . S
H410 C383 0.930 . S
H411 C384 0.930 . S
H412 C389 0.929 . S
H413 C390 0.931 . S
H414 C392 0.930 . S
H415 C393 0.930 . S
Tb416 C418 2.809 . S
Tb416 O436 2.484 . S
Tb416 O437 2.440 . S
Tb416 O438 2.658 . S
Tb416 O439 2.409 . S
Tb416 O440 2.378 . S
Tb416 O444 2.325 . S
Tb416 O447 2.341 . S
Tb417 C427 2.809 . S
Tb417 O438 2.325 . S
Tb417 O441 2.341 1_545 S
Tb417 O442 2.484 . S
Tb417 O443 2.440 . S
Tb417 O444 2.658 . S
Tb417 O445 2.409 . S
Tb417 O446 2.378 . S
C418 Tb416 2.809 . S
C418 C419 1.514 . S
C418 O436 1.248 . S
C418 O437 1.266 . S
C419 C418 1.514 . S
C419 C420 1.359 1_545 S
C419 C424 1.348 1_545 S
C420 C419 1.359 1_565 S
C420 C421 1.380 . S
C420 H448 0.929 . S
C421 C420 1.380 . S
C421 C422 1.347 . S
C421 H449 0.931 . S
C422 C421 1.347 . S
C422 C423 1.369 . S
C423 C422 1.369 . S
C423 C424 1.432 . S
C423 H450 0.930 . S
C424 C419 1.348 1_565 S
C424 C423 1.432 . S
C424 H451 0.908 1_565 S
C425 O438 1.281 . S
C425 O439 1.254 . S
C426 O440 1.236 1_565 S
C426 O441 1.266 . S
C427 Tb417 2.809 . S
C427 C428 1.514 . S
C427 O442 1.248 . S
C427 O443 1.266 . S
C428 C427 1.514 . S
C428 C429 1.359 . S
C428 C433 1.348 . S
C429 C428 1.359 . S
C429 C430 1.380 . S
C429 H452 0.929 . S
C430 C429 1.380 . S
C430 C431 1.347 . S
C430 H453 0.931 . S
C431 C430 1.347 . S
C431 C432 1.369 . S
C432 C431 1.369 . S
C432 C433 1.408 . S
C432 H454 0.930 . S
C433 C428 1.348 . S
C433 C432 1.408 . S
C433 H455 0.930 . S
C434 O444 1.281 . S
C434 O445 1.254 . S
C435 O446 1.236 . S
C435 O447 1.266 . S
O436 Tb416 2.484 . S
O436 C418 1.248 . S
O437 Tb416 2.440 . S
O437 C418 1.266 . S
O438 Tb416 2.658 . S
O438 Tb417 2.325 . S
O438 C425 1.281 . S
O439 Tb416 2.409 . S
O439 C425 1.254 . S
O440 Tb416 2.378 . S
O440 C426 1.236 1_545 S
O441 Tb417 2.341 1_565 S
O441 C426 1.266 . S
O442 Tb417 2.484 . S
O442 C427 1.248 . S
O443 Tb417 2.440 . S
O443 C427 1.266 . S
O444 Tb416 2.325 . S
O444 Tb417 2.658 . S
O444 C434 1.281 . S
O445 Tb417 2.409 . S
O445 C434 1.254 . S
O446 Tb417 2.378 . S
O446 C435 1.236 . S
O447 Tb416 2.341 . S
O447 C435 1.266 . S
H448 C420 0.929 . S
H449 C421 0.931 . S
H450 C423 0.930 . S
H451 C424 0.908 1_545 S
H452 C429 0.929 . S
H453 C430 0.931 . S
H454 C432 0.930 . S
H455 C433 0.930 . S
Tb456 C458 2.809 . S
Tb456 O476 2.484 . S
Tb456 O477 2.440 . S
Tb456 O478 2.658 . S
Tb456 O479 2.409 . S
Tb456 O480 2.378 . S
Tb456 O484 2.325 . S
Tb456 O487 2.341 . S
Tb457 C467 2.809 . S
Tb457 O478 2.325 . S
Tb457 O481 2.341 . S
Tb457 O482 2.484 . S
Tb457 O483 2.440 . S
Tb457 O484 2.658 . S
Tb457 O485 2.409 . S
Tb457 O486 2.378 . S
C458 Tb456 2.809 . S
C458 C459 1.514 . S
C458 O476 1.248 . S
C458 O477 1.266 . S
C459 C458 1.514 . S
C459 C460 1.359 . S
C459 C464 1.348 . S
C460 C459 1.359 . S
C460 C461 1.380 . S
C460 H488 0.929 . S
C461 C460 1.380 . S
C461 C462 1.347 . S
C461 H489 0.931 . S
C462 C461 1.347 . S
C462 C463 1.369 . S
C463 C462 1.369 . S
C463 C464 1.408 . S
C463 H490 0.930 . S
C464 C459 1.348 . S
C464 C463 1.408 . S
C464 H491 0.930 . S
C465 O478 1.281 . S
C465 O479 1.254 . S
C466 O480 1.236 . S
C466 O481 1.266 . S
C467 Tb457 2.809 . S
C467 C468 1.514 . S
C467 O482 1.248 . S
C467 O483 1.266 . S
C468 C467 1.514 . S
C468 C469 1.359 . S
C468 C473 1.348 . S
C469 C468 1.359 . S
C469 C470 1.380 . S
C469 H492 0.929 . S
C470 C469 1.380 . S
C470 C471 1.347 . S
C470 H493 0.931 . S
C471 C470 1.347 . S
C471 C472 1.369 . S
C472 C471 1.369 . S
C472 C473 1.408 . S
C472 H494 0.930 . S
C473 C468 1.348 . S
C473 C472 1.408 . S
C473 H495 0.930 . S
C474 O484 1.281 . S
C474 O485 1.254 . S
C475 O486 1.236 . S
C475 O487 1.266 . S
O476 Tb456 2.484 . S
O476 C458 1.248 . S
O477 Tb456 2.440 . S
O477 C458 1.266 . S
O478 Tb456 2.658 . S
O478 Tb457 2.325 . S
O478 C465 1.281 . S
O479 Tb456 2.409 . S
O479 C465 1.254 . S
O480 Tb456 2.378 . S
O480 C466 1.236 . S
O481 Tb457 2.341 . S
O481 C466 1.266 . S
O482 Tb457 2.484 . S
O482 C467 1.248 . S
O483 Tb457 2.440 . S
O483 C467 1.266 . S
O484 Tb456 2.325 . S
O484 Tb457 2.658 . S
O484 C474 1.281 . S
O485 Tb457 2.409 . S
O485 C474 1.254 . S
O486 Tb457 2.378 . S
O486 C475 1.236 . S
O487 Tb456 2.341 . S
O487 C475 1.266 . S
H488 C460 0.929 . S
H489 C461 0.931 . S
H490 C463 0.930 . S
H491 C464 0.930 . S
H492 C469 0.929 . S
H493 C470 0.931 . S
H494 C472 0.930 . S
H495 C473 0.930 . S
Tb496 C498 2.809 . S
Tb496 O516 2.484 . S
Tb496 O517 2.440 . S
Tb496 O518 2.658 . S
Tb496 O519 2.376 1_455 S
Tb496 O520 2.378 . S
Tb496 O524 2.325 . S
Tb496 O527 2.341 . S
Tb497 C507 2.809 1_545 S
Tb497 O518 2.325 . S
Tb497 O521 2.341 . S
Tb497 O522 2.484 1_545 S
Tb497 O523 2.440 1_545 S
Tb497 O524 2.658 . S
Tb497 O525 2.409 . S
Tb497 O526 2.378 . S
C498 Tb496 2.809 . S
C498 C499 1.514 . S
C498 O516 1.248 . S
C498 O517 1.266 . S
C499 C498 1.514 . S
C499 C500 1.359 . S
C499 C504 1.348 . S
C500 C499 1.359 . S
C500 C501 1.380 . S
C500 H528 0.929 . S
C501 C500 1.380 . S
C501 C502 1.347 . S
C501 H529 0.931 . S
C502 C501 1.347 . S
C502 C503 1.369 1_455 S
C503 C502 1.369 1_655 S
C503 C504 1.408 1_655 S
C503 H530 0.930 . S
C504 C499 1.348 . S
C504 C503 1.408 1_455 S
C504 H531 0.930 1_455 S
C505 O518 1.281 . S
C505 O519 1.237 1_455 S
C506 O520 1.236 . S
C506 O521 1.266 . S
C507 Tb497 2.809 1_565 S
C507 C508 1.514 . S
C507 O522 1.248 . S
C507 O523 1.266 . S
C508 C507 1.514 . S
C508 C509 1.359 . S
C508 C513 1.348 . S
C509 C508 1.359 . S
C509 C510 1.380 . S
C509 H532 0.929 . S
C510 C509 1.380 . S
C510 C511 1.347 . S
C510 H533 0.931 . S
C511 C510 1.347 . S
C511 C512 1.369 . S
C512 C511 1.369 . S
C512 C513 1.408 . S
C512 H534 0.930 . S
C513 C508 1.348 . S
C513 C512 1.408 . S
C513 H535 0.930 . S
C514 O524 1.281 . S
C514 O525 1.254 . S
C515 O526 1.236 . S
C515 O527 1.266 . S
O516 Tb496 2.484 . S
O516 C498 1.248 . S
O517 Tb496 2.440 . S
O517 C498 1.266 . S
O518 Tb496 2.658 . S
O518 Tb497 2.325 . S
O518 C505 1.281 . S
O519 Tb496 2.376 1_655 S
O519 C505 1.237 1_655 S
O520 Tb496 2.378 . S
O520 C506 1.236 . S
O521 Tb497 2.341 . S
O521 C506 1.266 . S
O522 Tb497 2.484 1_565 S
O522 C507 1.248 . S
O523 Tb497 2.440 1_565 S
O523 C507 1.266 . S
O524 Tb496 2.325 . S
O524 Tb497 2.658 . S
O524 C514 1.281 . S
O525 Tb497 2.409 . S
O525 C514 1.254 . S
O526 Tb497 2.378 . S
O526 C515 1.236 . S
O527 Tb496 2.341 . S
O527 C515 1.266 . S
H528 C500 0.929 . S
H529 C501 0.931 . S
H530 C503 0.930 . S
H531 C504 0.930 1_655 S
H532 C509 0.929 . S
H533 C510 0.931 . S
H534 C512 0.930 . S
H535 C513 0.930 . S
Tb536 C538 2.809 . S
Tb536 O556 2.484 . S
Tb536 O557 2.440 . S
Tb536 O558 2.658 . S
Tb536 O559 2.409 . S
Tb536 O560 2.378 . S
Tb536 O564 2.325 . S
Tb536 O567 2.341 . S
Tb537 C547 2.809 . S
Tb537 O558 2.325 . S
Tb537 O561 2.341 . S
Tb537 O562 2.484 . S
Tb537 O563 2.440 . S
Tb537 O564 2.658 . S
Tb537 O565 2.409 . S
Tb537 O566 2.378 . S
C538 Tb536 2.809 . S
C538 C539 1.514 . S
C538 O556 1.248 . S
C538 O557 1.266 . S
C539 C538 1.514 . S
C539 C540 1.359 . S
C539 C544 1.348 . S
C540 C539 1.359 . S
C540 C541 1.380 . S
C540 H568 0.929 . S
C541 C540 1.380 . S
C541 C542 1.347 . S
C541 H569 0.931 . S
C542 C541 1.347 . S
C542 C543 1.369 . S
C543 C542 1.369 . S
C543 C544 1.408 . S
C543 H570 0.930 . S
C544 C539 1.348 . S
C544 C543 1.408 . S
C544 H571 0.930 . S
C545 O558 1.281 . S
C545 O559 1.254 . S
C546 O560 1.236 . S
C546 O561 1.266 . S
C547 Tb537 2.809 . S
C547 C548 1.514 . S
C547 O562 1.248 . S
C547 O563 1.266 . S
C548 C547 1.514 . S
C548 C549 1.359 . S
C548 C553 1.348 . S
C549 C548 1.359 . S
C549 C550 1.380 . S
C549 H572 0.929 . S
C550 C549 1.380 . S
C550 C551 1.347 . S
C550 H573 0.931 . S
C551 C550 1.347 . S
C551 C552 1.369 . S
C552 C551 1.369 . S
C552 C553 1.408 . S
C552 H574 0.930 . S
C553 C548 1.348 . S
C553 C552 1.408 . S
C553 H575 0.930 . S
C554 O564 1.281 . S
C554 O565 1.254 . S
C555 O566 1.236 . S
C555 O567 1.266 . S
O556 Tb536 2.484 . S
O556 C538 1.248 . S
O557 Tb536 2.440 . S
O557 C538 1.266 . S
O558 Tb536 2.658 . S
O558 Tb537 2.325 . S
O558 C545 1.281 . S
O559 Tb536 2.409 . S
O559 C545 1.254 . S
O560 Tb536 2.378 . S
O560 C546 1.236 . S
O561 Tb537 2.341 . S
O561 C546 1.266 . S
O562 Tb537 2.484 . S
O562 C547 1.248 . S
O563 Tb537 2.440 . S
O563 C547 1.266 . S
O564 Tb536 2.325 . S
O564 Tb537 2.658 . S
O564 C554 1.281 . S
O565 Tb537 2.409 . S
O565 C554 1.254 . S
O566 Tb537 2.378 . S
O566 C555 1.236 . S
O567 Tb536 2.341 . S
O567 C555 1.266 . S
H568 C540 0.929 . S
H569 C541 0.931 . S
H570 C543 0.930 . S
H571 C544 0.930 . S
H572 C549 0.929 . S
H573 C550 0.931 . S
H574 C552 0.930 . S
H575 C553 0.930 . S
Tb576 C578 2.809 . S
Tb576 O596 2.484 1_545 S
Tb576 O597 2.440 . S
Tb576 O598 2.658 . S
Tb576 O599 2.409 . S
Tb576 O600 2.378 . S
Tb576 O604 2.325 . S
Tb576 O607 2.341 . S
Tb577 C587 2.809 . S
Tb577 O598 2.325 . S
Tb577 O601 2.341 . S
Tb577 O602 2.484 . S
Tb577 O603 2.440 . S
Tb577 O604 2.658 . S
Tb577 O605 2.409 1_545 S
Tb577 O606 2.378 . S
C578 Tb576 2.809 . S
C578 C579 1.514 1_545 S
C578 O596 1.248 1_545 S
C578 O597 1.266 . S
C579 C578 1.514 1_565 S
C579 C580 1.359 . S
C579 C584 1.348 1_565 S
C580 C579 1.359 . S
C580 C581 1.380 . S
C580 H608 0.929 . S
C581 C580 1.380 . S
C581 C582 1.347 . S
C581 H609 0.931 . S
C582 C581 1.347 . S
C582 C583 1.369 1_565 S
C583 C582 1.369 1_545 S
C583 C584 1.408 . S
C583 H610 0.930 . S
C584 C579 1.348 1_545 S
C584 C583 1.408 . S
C584 H611 0.930 . S
C585 O598 1.281 . S
C585 O599 1.254 . S
C586 O600 1.236 . S
C586 O601 1.266 . S
C587 Tb577 2.809 . S
C587 C588 1.514 . S
C587 O602 1.248 . S
C587 O603 1.266 . S
C588 C587 1.514 . S
C588 C589 1.359 . S
C588 C593 1.348 . S
C589 C588 1.359 . S
C589 C590 1.380 . S
C589 H612 0.929 . S
C590 C589 1.380 . S
C590 C591 1.347 . S
C590 H613 0.931 . S
C591 C590 1.347 . S
C591 C592 1.369 . S
C592 C591 1.369 . S
C592 C593 1.408 . S
C592 H614 0.930 . S
C593 C588 1.348 . S
C593 C592 1.408 . S
C593 H615 0.930 . S
C594 O604 1.281 1_565 S
C594 O605 1.254 . S
C595 O606 1.236 . S
C595 O607 1.266 . S
O596 Tb576 2.484 1_565 S
O596 C578 1.248 1_565 S
O597 Tb576 2.440 . S
O597 C578 1.266 . S
O598 Tb576 2.658 . S
O598 Tb577 2.325 . S
O598 C585 1.281 . S
O599 Tb576 2.409 . S
O599 C585 1.254 . S
O600 Tb576 2.378 . S
O600 C586 1.236 . S
O601 Tb577 2.341 . S
O601 C586 1.266 . S
O602 Tb577 2.484 . S
O602 C587 1.248 . S
O603 Tb577 2.440 . S
O603 C587 1.266 . S
O604 Tb576 2.325 . S
O604 Tb577 2.658 . S
O604 C594 1.281 1_545 S
O605 Tb577 2.409 1_565 S
O605 C594 1.254 . S
O606 Tb577 2.378 . S
O606 C595 1.236 . S
O607 Tb576 2.341 . S
O607 C595 1.266 . S
H608 C580 0.929 . S
H609 C581 0.931 . S
H610 C583 0.930 . S
H611 C584 0.930 . S
H612 C589 0.929 . S
H613 C590 0.931 . S
H614 C592 0.930 . S
H615 C593 0.930 . S
Tb616 C618 2.809 . S
Tb616 O636 2.484 . S
Tb616 O637 2.440 . S
Tb616 O638 2.658 . S
Tb616 O639 2.409 . S
Tb616 O640 2.378 . S
Tb616 O644 2.325 . S
Tb616 O647 2.341 . S
Tb617 C627 2.809 . S
Tb617 O638 2.325 . S
Tb617 O641 2.341 . S
Tb617 O642 2.484 . S
Tb617 O643 2.440 . S
Tb617 O644 2.658 . S
Tb617 O645 2.409 . S
Tb617 O646 2.378 . S
C618 Tb616 2.809 . S
C618 C619 1.514 . S
C618 O636 1.248 . S
C618 O637 1.266 . S
C619 C618 1.514 . S
C619 C620 1.359 . S
C619 C624 1.348 . S
C620 C619 1.359 . S
C620 C621 1.380 . S
C620 H648 0.929 . S
C621 C620 1.380 . S
C621 C622 1.347 . S
C621 H649 0.931 . S
C622 C621 1.347 . S
C622 C623 1.369 . S
C623 C622 1.369 . S
C623 C624 1.408 . S
C623 H650 0.930 . S
C624 C619 1.348 . S
C624 C623 1.408 . S
C624 H651 0.930 . S
C625 O638 1.281 . S
C625 O639 1.254 . S
C626 O640 1.236 . S
C626 O641 1.266 . S
C627 Tb617 2.809 . S
C627 C628 1.514 . S
C627 O642 1.248 . S
C627 O643 1.266 . S
C628 C627 1.514 . S
C628 C629 1.359 . S
C628 C633 1.348 . S
C629 C628 1.359 . S
C629 C630 1.380 . S
C629 H652 0.929 . S
C630 C629 1.380 . S
C630 C631 1.347 . S
C630 H653 0.931 . S
C631 C630 1.347 . S
C631 C632 1.369 . S
C632 C631 1.369 . S
C632 C633 1.408 . S
C632 H654 0.930 . S
C633 C628 1.348 . S
C633 C632 1.408 . S
C633 H655 0.930 . S
C634 O644 1.281 . S
C634 O645 1.254 . S
C635 O646 1.236 . S
C635 O647 1.266 . S
O636 Tb616 2.484 . S
O636 C618 1.248 . S
O637 Tb616 2.440 . S
O637 C618 1.266 . S
O638 Tb616 2.658 . S
O638 Tb617 2.325 . S
O638 C625 1.281 . S
O639 Tb616 2.409 . S
O639 C625 1.254 . S
O640 Tb616 2.378 . S
O640 C626 1.236 . S
O641 Tb617 2.341 . S
O641 C626 1.266 . S
O642 Tb617 2.484 . S
O642 C627 1.248 . S
O643 Tb617 2.440 . S
O643 C627 1.266 . S
O644 Tb616 2.325 . S
O644 Tb617 2.658 . S
O644 C634 1.281 . S
O645 Tb617 2.409 . S
O645 C634 1.254 . S
O646 Tb617 2.378 . S
O646 C635 1.236 . S
O647 Tb616 2.341 . S
O647 C635 1.266 . S
H648 C620 0.929 . S
H649 C621 0.931 . S
H650 C623 0.930 . S
H651 C624 0.930 . S
H652 C629 0.929 . S
H653 C630 0.931 . S
H654 C632 0.930 . S
H655 C633 0.930 . S
Tb656 C658 2.809 . S
Tb656 O676 2.484 . S
Tb656 O677 2.440 . S
Tb656 O678 2.658 . S
Tb656 O679 2.409 . S
Tb656 O680 2.378 . S
Tb656 O684 2.325 . S
Tb656 O687 2.341 . S
Tb657 C667 2.809 . S
Tb657 O678 2.325 . S
Tb657 O681 2.341 . S
Tb657 O682 2.484 . S
Tb657 O683 2.440 . S
Tb657 O684 2.658 . S
Tb657 O685 2.409 . S
Tb657 O686 2.378 . S
C658 Tb656 2.809 . S
C658 C659 1.514 . S
C658 O676 1.248 . S
C658 O677 1.266 . S
C659 C658 1.514 . S
C659 C660 1.359 . S
C659 C664 1.348 . S
C660 C659 1.359 . S
C660 C661 1.380 . S
C660 H688 0.929 . S
C661 C660 1.380 . S
C661 C662 1.347 . S
C661 H689 0.931 . S
C662 C661 1.347 . S
C662 C663 1.369 . S
C663 C662 1.369 . S
C663 C664 1.408 . S
C663 H690 0.930 . S
C664 C659 1.348 . S
C664 C663 1.408 . S
C664 H691 0.930 . S
C665 O678 1.281 . S
C665 O679 1.254 . S
C666 O680 1.236 . S
C666 O681 1.266 . S
C667 Tb657 2.809 . S
C667 C668 1.514 . S
C667 O682 1.248 . S
C667 O683 1.266 . S
C668 C667 1.514 . S
C668 C669 1.359 . S
C668 C673 1.348 . S
C669 C668 1.359 . S
C669 C670 1.380 . S
C669 H692 0.929 . S
C670 C669 1.380 . S
C670 C671 1.347 . S
C670 H693 0.931 . S
C671 C670 1.347 . S
C671 C672 1.369 . S
C672 C671 1.369 . S
C672 C673 1.408 . S
C672 H694 0.930 . S
C673 C668 1.348 . S
C673 C672 1.408 . S
C673 H695 0.930 . S
C674 O684 1.281 . S
C674 O685 1.254 . S
C675 O686 1.236 . S
C675 O687 1.266 . S
O676 Tb656 2.484 . S
O676 C658 1.248 . S
O677 Tb656 2.440 . S
O677 C658 1.266 . S
O678 Tb656 2.658 . S
O678 Tb657 2.325 . S
O678 C665 1.281 . S
O679 Tb656 2.409 . S
O679 C665 1.254 . S
O680 Tb656 2.378 . S
O680 C666 1.236 . S
O681 Tb657 2.341 . S
O681 C666 1.266 . S
O682 Tb657 2.484 . S
O682 C667 1.248 . S
O683 Tb657 2.440 . S
O683 C667 1.266 . S
O684 Tb656 2.325 . S
O684 Tb657 2.658 . S
O684 C674 1.281 . S
O685 Tb657 2.409 . S
O685 C674 1.254 . S
O686 Tb657 2.378 . S
O686 C675 1.236 . S
O687 Tb656 2.341 . S
O687 C675 1.266 . S
H688 C660 0.929 . S
H689 C661 0.931 . S
H690 C663 0.930 . S
H691 C664 0.930 . S
H692 C669 0.929 . S
H693 C670 0.931 . S
H694 C672 0.930 . S
H695 C673 0.930 . S
Tb696 C698 2.809 . S
Tb696 O716 2.484 . S
Tb696 O717 2.440 . S
Tb696 O718 2.658 . S
Tb696 O719 2.409 . S
Tb696 O720 2.378 . S
Tb696 O724 2.325 . S
Tb696 O727 2.341 . S
Tb697 C707 2.809 . S
Tb697 O718 2.325 . S
Tb697 O721 2.341 . S
Tb697 O722 2.484 . S
Tb697 O723 2.440 . S
Tb697 O724 2.658 . S
Tb697 O725 2.409 . S
Tb697 O726 2.378 . S
C698 Tb696 2.809 . S
C698 C699 1.514 . S
C698 O716 1.248 . S
C698 O717 1.266 . S
C699 C698 1.514 . S
C699 C700 1.359 . S
C699 C704 1.348 . S
C700 C699 1.359 . S
C700 C701 1.380 . S
C700 H728 0.929 . S
C701 C700 1.380 . S
C701 C702 1.347 . S
C701 H729 0.931 . S
C702 C701 1.347 . S
C702 C703 1.369 . S
C703 C702 1.369 . S
C703 C704 1.408 . S
C703 H730 0.930 . S
C704 C699 1.348 . S
C704 C703 1.408 . S
C704 H731 0.930 . S
C705 O718 1.281 . S
C705 O719 1.254 . S
C706 O720 1.236 . S
C706 O721 1.266 . S
C707 Tb697 2.809 . S
C707 C708 1.514 . S
C707 O722 1.248 . S
C707 O723 1.266 . S
C708 C707 1.514 . S
C708 C709 1.359 . S
C708 C713 1.348 . S
C709 C708 1.359 . S
C709 C710 1.380 . S
C709 H732 0.929 . S
C710 C709 1.380 . S
C710 C711 1.347 . S
C710 H733 0.931 . S
C711 C710 1.347 . S
C711 C712 1.369 . S
C712 C711 1.369 . S
C712 C713 1.408 . S
C712 H734 0.930 . S
C713 C708 1.348 . S
C713 C712 1.408 . S
C713 H735 0.930 . S
C714 O724 1.281 . S
C714 O725 1.254 . S
C715 O726 1.236 . S
C715 O727 1.266 . S
O716 Tb696 2.484 . S
O716 C698 1.248 . S
O717 Tb696 2.440 . S
O717 C698 1.266 . S
O718 Tb696 2.658 . S
O718 Tb697 2.325 . S
O718 C705 1.281 . S
O719 Tb696 2.409 . S
O719 C705 1.254 . S
O720 Tb696 2.378 . S
O720 C706 1.236 . S
O721 Tb697 2.341 . S
O721 C706 1.266 . S
O722 Tb697 2.484 . S
O722 C707 1.248 . S
O723 Tb697 2.440 . S
O723 C707 1.266 . S
O724 Tb696 2.325 . S
O724 Tb697 2.658 . S
O724 C714 1.281 . S
O725 Tb697 2.409 . S
O725 C714 1.254 . S
O726 Tb697 2.378 . S
O726 C715 1.236 . S
O727 Tb696 2.341 . S
O727 C715 1.266 . S
H728 C700 0.929 . S
H729 C701 0.931 . S
H730 C703 0.930 . S
H731 C704 0.930 . S
H732 C709 0.929 . S
H733 C710 0.931 . S
H734 C712 0.930 . S
H735 C713 0.930 . S
Tb736 C738 2.809 1_455 S
Tb736 O756 2.484 1_455 S
Tb736 O757 2.440 1_455 S
Tb736 O758 2.658 . S
Tb736 O759 2.409 . S
Tb736 O760 2.378 1_455 S
Tb736 O764 2.325 . S
Tb736 O767 2.341 . S
Tb737 C747 2.809 . S
Tb737 O758 2.325 . S
Tb737 O761 2.341 . S
Tb737 O762 2.484 . S
Tb737 O763 2.440 . S
Tb737 O764 2.658 . S
Tb737 O765 2.409 . S
Tb737 O766 2.378 . S
C738 Tb736 2.809 1_655 S
C738 C739 1.514 . S
C738 O756 1.248 . S
C738 O757 1.266 . S
C739 C738 1.514 . S
C739 C740 1.359 . S
C739 C744 1.348 . S
C740 C739 1.359 . S
C740 C741 1.380 . S
C740 H768 0.929 . S
C741 C740 1.380 . S
C741 C742 1.347 . S
C741 H769 0.931 . S
C742 C741 1.347 . S
C742 C743 1.369 . S
C743 C742 1.369 . S
C743 C744 1.408 . S
C743 H770 0.930 . S
C744 C739 1.348 . S
C744 C743 1.408 . S
C744 H771 0.930 . S
C745 O758 1.281 . S
C745 O759 1.254 . S
C746 O760 1.236 1_455 S
C746 O761 1.266 . S
C747 Tb737 2.809 . S
C747 C748 1.514 . S
C747 O762 1.248 . S
C747 O763 1.266 . S
C748 C747 1.514 . S
C748 C749 1.359 . S
C748 C753 1.348 . S
C749 C748 1.359 . S
C749 C750 1.380 . S
C749 H772 0.929 . S
C750 C749 1.380 . S
C750 C751 1.347 . S
C750 H773 0.931 . S
C751 C750 1.347 . S
C751 C752 1.369 . S
C752 C751 1.369 . S
C752 C753 1.408 . S
C752 H774 0.930 . S
C753 C748 1.348 . S
C753 C752 1.408 . S
C753 H775 0.930 . S
C754 O764 1.281 . S
C754 O765 1.254 . S
C755 O766 1.236 . S
C755 O767 1.266 . S
O756 Tb736 2.484 1_655 S
O756 C738 1.248 . S
O757 Tb736 2.440 1_655 S
O757 C738 1.266 . S
O758 Tb736 2.658 . S
O758 Tb737 2.325 . S
O758 C745 1.281 . S
O759 Tb736 2.409 . S
O759 C745 1.254 . S
O760 Tb736 2.378 1_655 S
O760 C746 1.236 1_655 S
O761 Tb737 2.341 . S
O761 C746 1.266 . S
O762 Tb737 2.484 . S
O762 C747 1.248 . S
O763 Tb737 2.440 . S
O763 C747 1.266 . S
O764 Tb736 2.325 . S
O764 Tb737 2.658 . S
O764 C754 1.281 . S
O765 Tb737 2.409 . S
O765 C754 1.254 . S
O766 Tb737 2.378 . S
O766 C755 1.236 . S
O767 Tb736 2.341 . S
O767 C755 1.266 . S
H768 C740 0.929 . S
H769 C741 0.931 . S
H770 C743 0.930 . S
H771 C744 0.930 . S
H772 C749 0.929 . S
H773 C750 0.931 . S
H774 C752 0.930 . S
H775 C753 0.930 . S
Tb776 C778 2.809 . S
Tb776 O796 2.484 . S
Tb776 O797 2.440 . S
Tb776 O798 2.658 . S
Tb776 O799 2.409 . S
Tb776 O800 2.378 . S
Tb776 O804 2.325 . S
Tb776 O807 2.341 . S
Tb777 C787 2.809 . S
Tb777 O798 2.325 . S
Tb777 O801 2.341 . S
Tb777 O802 2.484 . S
Tb777 O803 2.440 . S
Tb777 O804 2.658 . S
Tb777 O805 2.409 . S
Tb777 O806 2.378 . S
C778 Tb776 2.809 . S
C778 C779 1.514 . S
C778 O796 1.248 . S
C778 O797 1.266 . S
C779 C778 1.514 . S
C779 C780 1.359 . S
C779 C784 1.348 . S
C780 C779 1.359 . S
C780 C781 1.380 . S
C780 H808 0.929 . S
C781 C780 1.380 . S
C781 C782 1.347 . S
C781 H809 0.931 . S
C782 C781 1.347 . S
C782 C783 1.369 . S
C783 C782 1.369 . S
C783 C784 1.408 . S
C783 H810 0.930 . S
C784 C779 1.348 . S
C784 C783 1.408 . S
C784 H811 0.930 . S
C785 O798 1.281 . S
C785 O799 1.254 . S
C786 O800 1.236 . S
C786 O801 1.266 . S
C787 Tb777 2.809 . S
C787 C788 1.514 . S
C787 O802 1.248 . S
C787 O803 1.266 . S
C788 C787 1.514 . S
C788 C789 1.359 . S
C788 C793 1.348 . S
C789 C788 1.359 . S
C789 C790 1.380 . S
C789 H812 0.929 . S
C790 C789 1.380 . S
C790 C791 1.347 . S
C790 H813 0.931 . S
C791 C790 1.347 . S
C791 C792 1.369 . S
C792 C791 1.369 . S
C792 C793 1.408 . S
C792 H814 0.930 . S
C793 C788 1.348 . S
C793 C792 1.408 . S
C793 H815 0.930 . S
C794 O804 1.281 . S
C794 O805 1.254 . S
C795 O806 1.236 . S
C795 O807 1.266 . S
O796 Tb776 2.484 . S
O796 C778 1.248 . S
O797 Tb776 2.440 . S
O797 C778 1.266 . S
O798 Tb776 2.658 . S
O798 Tb777 2.325 . S
O798 C785 1.281 . S
O799 Tb776 2.409 . S
O799 C785 1.254 . S
O800 Tb776 2.378 . S
O800 C786 1.236 . S
O801 Tb777 2.341 . S
O801 C786 1.266 . S
O802 Tb777 2.484 . S
O802 C787 1.248 . S
O803 Tb777 2.440 . S
O803 C787 1.266 . S
O804 Tb776 2.325 . S
O804 Tb777 2.658 . S
O804 C794 1.281 . S
O805 Tb777 2.409 . S
O805 C794 1.254 . S
O806 Tb777 2.378 . S
O806 C795 1.236 . S
O807 Tb776 2.341 . S
O807 C795 1.266 . S
H808 C780 0.929 . S
H809 C781 0.931 . S
H810 C783 0.930 . S
H811 C784 0.930 . S
H812 C789 0.929 . S
H813 C790 0.931 . S
H814 C792 0.930 . S
H815 C793 0.930 . S
Tb816 C818 2.809 . S
Tb816 O836 2.484 . S
Tb816 O837 2.440 . S
Tb816 O838 2.658 . S
Tb816 O839 2.409 . S
Tb816 O840 2.378 . S
Tb816 O844 2.325 . S
Tb816 O847 2.341 . S
Tb817 C827 2.809 . S
Tb817 O838 2.325 . S
Tb817 O841 2.341 . S
Tb817 O842 2.484 . S
Tb817 O843 2.440 . S
Tb817 O844 2.658 . S
Tb817 O845 2.409 . S
Tb817 O846 2.378 . S
C818 Tb816 2.809 . S
C818 C819 1.514 . S
C818 O836 1.248 . S
C818 O837 1.266 . S
C819 C818 1.514 . S
C819 C820 1.359 . S
C819 C824 1.348 . S
C820 C819 1.359 . S
C820 C821 1.380 . S
C820 H848 0.929 . S
C821 C820 1.380 . S
C821 C822 1.347 . S
C821 H849 0.931 . S
C822 C821 1.347 . S
C822 C823 1.369 . S
C823 C822 1.369 . S
C823 C824 1.408 . S
C823 H850 0.930 . S
C824 C819 1.348 . S
C824 C823 1.408 . S
C824 H851 0.930 . S
C825 O838 1.281 . S
C825 O839 1.254 . S
C826 O840 1.236 . S
C826 O841 1.266 . S
C827 Tb817 2.809 . S
C827 C828 1.514 . S
C827 O842 1.248 . S
C827 O843 1.266 . S
C828 C827 1.514 . S
C828 C829 1.359 . S
C828 C833 1.348 . S
C829 C828 1.359 . S
C829 C830 1.380 1_556 S
C829 H852 0.929 . S
C830 C829 1.380 1_554 S
C830 C831 1.347 . S
C830 H853 0.931 . S
C831 C830 1.347 . S
C831 C832 1.369 . S
C832 C831 1.369 . S
C832 C833 1.408 1_554 S
C832 H854 0.930 . S
C833 C828 1.348 . S
C833 C832 1.408 1_556 S
C833 H855 0.930 . S
C834 O844 1.281 . S
C834 O845 1.254 . S
C835 O846 1.236 . S
C835 O847 1.266 . S
O836 Tb816 2.484 . S
O836 C818 1.248 . S
O837 Tb816 2.440 . S
O837 C818 1.266 . S
O838 Tb816 2.658 . S
O838 Tb817 2.325 . S
O838 C825 1.281 . S
O839 Tb816 2.409 . S
O839 C825 1.254 . S
O840 Tb816 2.378 . S
O840 C826 1.236 . S
O841 Tb817 2.341 . S
O841 C826 1.266 . S
O842 Tb817 2.484 . S
O842 C827 1.248 . S
O843 Tb817 2.440 . S
O843 C827 1.266 . S
O844 Tb816 2.325 . S
O844 Tb817 2.658 . S
O844 C834 1.281 . S
O845 Tb817 2.409 . S
O845 C834 1.254 . S
O846 Tb817 2.378 . S
O846 C835 1.236 . S
O847 Tb816 2.341 . S
O847 C835 1.266 . S
H848 C820 0.929 . S
H849 C821 0.931 . S
H850 C823 0.930 . S
H851 C824 0.930 . S
H852 C829 0.929 . S
H853 C830 0.931 . S
H854 C832 0.930 . S
H855 C833 0.930 . S
Tb856 C858 2.809 . S
Tb856 O876 2.484 . S
Tb856 O877 2.440 . S
Tb856 O878 2.658 . S
Tb856 O879 2.409 . S
Tb856 O880 2.378 . S
Tb856 O884 2.325 . S
Tb856 O887 2.341 . S
Tb857 C867 2.809 . S
Tb857 O878 2.325 . S
Tb857 O881 2.341 . S
Tb857 O882 2.484 . S
Tb857 O883 2.440 . S
Tb857 O884 2.658 . S
Tb857 O885 2.409 . S
Tb857 O886 2.378 . S
C858 Tb856 2.809 . S
C858 C859 1.514 . S
C858 O876 1.248 . S
C858 O877 1.266 . S
C859 C858 1.514 . S
C859 C860 1.359 . S
C859 C864 1.348 . S
C860 C859 1.359 . S
C860 C861 1.380 . S
C860 H888 0.929 . S
C861 C860 1.380 . S
C861 C862 1.347 . S
C861 H889 0.931 . S
C862 C861 1.347 . S
C862 C863 1.369 . S
C863 C862 1.369 . S
C863 C864 1.408 . S
C863 H890 0.930 . S
C864 C859 1.348 . S
C864 C863 1.408 . S
C864 H891 0.930 . S
C865 O878 1.281 . S
C865 O879 1.254 . S
C866 O880 1.236 . S
C866 O881 1.266 . S
C867 Tb857 2.809 . S
C867 C868 1.514 . S
C867 O882 1.248 . S
C867 O883 1.266 . S
C868 C867 1.514 . S
C868 C869 1.359 . S
C868 C873 1.348 . S
C869 C868 1.359 . S
C869 C870 1.380 . S
C869 H892 0.929 . S
C870 C869 1.380 . S
C870 C871 1.347 . S
C870 H893 0.931 . S
C871 C870 1.347 . S
C871 C872 1.369 . S
C872 C871 1.369 . S
C872 C873 1.408 . S
C872 H894 0.930 . S
C873 C868 1.348 . S
C873 C872 1.408 . S
C873 H895 0.930 . S
C874 O884 1.281 . S
C874 O885 1.254 . S
C875 O886 1.236 . S
C875 O887 1.266 . S
O876 Tb856 2.484 . S
O876 C858 1.248 . S
O877 Tb856 2.440 . S
O877 C858 1.266 . S
O878 Tb856 2.658 . S
O878 Tb857 2.325 . S
O878 C865 1.281 . S
O879 Tb856 2.409 . S
O879 C865 1.254 . S
O880 Tb856 2.378 . S
O880 C866 1.236 . S
O881 Tb857 2.341 . S
O881 C866 1.266 . S
O882 Tb857 2.484 . S
O882 C867 1.248 . S
O883 Tb857 2.440 . S
O883 C867 1.266 . S
O884 Tb856 2.325 . S
O884 Tb857 2.658 . S
O884 C874 1.281 . S
O885 Tb857 2.409 . S
O885 C874 1.254 . S
O886 Tb857 2.378 . S
O886 C875 1.236 . S
O887 Tb856 2.341 . S
O887 C875 1.266 . S
H888 C860 0.929 . S
H889 C861 0.931 . S
H890 C863 0.930 . S
H891 C864 0.930 . S
H892 C869 0.929 . S
H893 C870 0.931 . S
H894 C872 0.930 . S
H895 C873 0.930 . S
Tb896 C898 2.809 . S
Tb896 O916 2.484 . S
Tb896 O917 2.440 . S
Tb896 O918 2.658 . S
Tb896 O919 2.409 . S
Tb896 O920 2.378 . S
Tb896 O924 2.325 . S
Tb896 O927 2.341 . S
Tb897 C907 2.809 . S
Tb897 O918 2.325 . S
Tb897 O921 2.341 . S
Tb897 O922 2.484 . S
Tb897 O923 2.440 . S
Tb897 O924 2.658 . S
Tb897 O925 2.409 . S
Tb897 O926 2.378 . S
C898 Tb896 2.809 . S
C898 C899 1.514 . S
C898 O916 1.248 . S
C898 O917 1.266 . S
C899 C898 1.514 . S
C899 C900 1.359 . S
C899 C904 1.348 . S
C900 C899 1.359 . S
C900 C901 1.380 . S
C900 H928 0.929 . S
C901 C900 1.380 . S
C901 C902 1.347 . S
C901 H929 0.931 . S
C902 C901 1.347 . S
C902 C903 1.369 . S
C903 C902 1.369 . S
C903 C904 1.408 . S
C903 H930 0.930 . S
C904 C899 1.348 . S
C904 C903 1.408 . S
C904 H931 0.930 . S
C905 O918 1.281 . S
C905 O919 1.254 . S
C906 O920 1.236 . S
C906 O921 1.266 . S
C907 Tb897 2.809 . S
C907 C908 1.514 . S
C907 O922 1.248 . S
C907 O923 1.266 . S
C908 C907 1.514 . S
C908 C909 1.359 . S
C908 C913 1.348 . S
C909 C908 1.359 . S
C909 C910 1.380 . S
C909 H932 0.929 . S
C910 C909 1.380 . S
C910 C911 1.347 . S
C910 H933 0.931 . S
C911 C910 1.347 . S
C911 C912 1.369 . S
C912 C911 1.369 . S
C912 C913 1.408 . S
C912 H934 0.930 . S
C913 C908 1.348 . S
C913 C912 1.408 . S
C913 H935 0.930 . S
C914 O924 1.281 . S
C914 O925 1.254 . S
C915 O926 1.236 . S
C915 O927 1.266 . S
O916 Tb896 2.484 . S
O916 C898 1.248 . S
O917 Tb896 2.440 . S
O917 C898 1.266 . S
O918 Tb896 2.658 . S
O918 Tb897 2.325 . S
O918 C905 1.281 . S
O919 Tb896 2.409 . S
O919 C905 1.254 . S
O920 Tb896 2.378 . S
O920 C906 1.236 . S
O921 Tb897 2.341 . S
O921 C906 1.266 . S
O922 Tb897 2.484 . S
O922 C907 1.248 . S
O923 Tb897 2.440 . S
O923 C907 1.266 . S
O924 Tb896 2.325 . S
O924 Tb897 2.658 . S
O924 C914 1.281 . S
O925 Tb897 2.409 . S
O925 C914 1.254 . S
O926 Tb897 2.378 . S
O926 C915 1.236 . S
O927 Tb896 2.341 . S
O927 C915 1.266 . S
H928 C900 0.929 . S
H929 C901 0.931 . S
H930 C903 0.930 . S
H931 C904 0.930 . S
H932 C909 0.929 . S
H933 C910 0.931 . S
H934 C912 0.930 . S
H935 C913 0.930 . S
Tb936 C938 2.809 . S
Tb936 O956 2.484 . S
Tb936 O957 2.440 . S
Tb936 O958 2.658 . S
Tb936 O959 2.409 . S
Tb936 O960 2.378 . S
Tb936 O964 2.325 . S
Tb936 O967 2.341 . S
Tb937 C947 2.809 1_455 S
Tb937 O958 2.325 . S
Tb937 O961 2.341 . S
Tb937 O962 2.484 1_455 S
Tb937 O963 2.440 1_455 S
Tb937 O964 2.658 . S
Tb937 O965 2.409 . S
Tb937 O966 2.378 . S
C938 Tb936 2.809 . S
C938 C939 1.514 . S
C938 O956 1.248 . S
C938 O957 1.266 . S
C939 C938 1.514 . S
C939 C940 1.359 . S
C939 C944 1.348 . S
C940 C939 1.359 . S
C940 C941 1.380 . S
C940 H968 0.929 . S
C941 C940 1.380 . S
C941 C942 1.347 . S
C941 H969 0.931 . S
C942 C941 1.347 . S
C942 C943 1.369 . S
C943 C942 1.369 . S
C943 C944 1.408 . S
C943 H970 0.930 . S
C944 C939 1.348 . S
C944 C943 1.408 . S
C944 H971 0.930 . S
C945 O958 1.281 . S
C945 O959 1.254 . S
C946 O960 1.236 . S
C946 O961 1.266 . S
C947 Tb937 2.809 1_655 S
C947 C948 1.514 . S
C947 O962 1.248 . S
C947 O963 1.266 . S
C948 C947 1.514 . S
C948 C949 1.359 . S
C948 C953 1.348 . S
C949 C948 1.359 . S
C949 C950 1.380 . S
C949 H972 0.929 . S
C950 C949 1.380 . S
C950 C951 1.347 . S
C950 H973 0.931 . S
C951 C950 1.347 . S
C951 C952 1.369 . S
C952 C951 1.369 . S
C952 C953 1.408 . S
C952 H974 0.930 . S
C953 C948 1.348 . S
C953 C952 1.408 . S
C953 H975 0.930 . S
C954 O964 1.281 . S
C954 O965 1.254 . S
C955 O966 1.236 . S
C955 O967 1.266 . S
O956 Tb936 2.484 . S
O956 C938 1.248 . S
O957 Tb936 2.440 . S
O957 C938 1.266 . S
O958 Tb936 2.658 . S
O958 Tb937 2.325 . S
O958 C945 1.281 . S
O959 Tb936 2.409 . S
O959 C945 1.254 . S
O960 Tb936 2.378 . S
O960 C946 1.236 . S
O961 Tb937 2.341 . S
O961 C946 1.266 . S
O962 Tb937 2.484 1_655 S
O962 C947 1.248 . S
O963 Tb937 2.440 1_655 S
O963 C947 1.266 . S
O964 Tb936 2.325 . S
O964 Tb937 2.658 . S
O964 C954 1.281 . S
O965 Tb937 2.409 . S
O965 C954 1.254 . S
O966 Tb937 2.378 . S
O966 C955 1.236 . S
O967 Tb936 2.341 . S
O967 C955 1.266 . S
H968 C940 0.929 . S
H969 C941 0.931 . S
H970 C943 0.930 . S
H971 C944 0.930 . S
H972 C949 0.929 . S
H973 C950 0.931 . S
H974 C952 0.930 . S
H975 C953 0.930 . S
C976 C977 1.369 . S
C976 C978 1.419 . S
C976 H980 0.930 . S
C977 C976 1.369 . S
C977 C986 1.433 . S
C978 C976 1.419 . S
C978 C979 1.363 . S
C978 H981 0.929 . S
C979 C978 1.363 . S
C979 C985 1.428 . S
H980 C976 0.930 . S
H981 C978 0.929 . S
S982 N983 1.613 . S
S982 N984 1.610 . S
N983 S982 1.613 . S
N983 C986 1.342 1_655 S
N984 S982 1.610 . S
N984 C985 1.351 1_655 S
C985 C979 1.428 . S
C985 N984 1.351 1_455 S
C985 C986 1.437 . S
C986 C977 1.433 . S
C986 N983 1.342 1_455 S
C986 C985 1.437 . S
C987 C988 1.369 . S
C987 C989 1.419 . S
C987 H991 0.930 . S
C988 C987 1.369 . S
C988 C997 1.429 . S
C989 C987 1.419 . S
C989 C990 1.363 . S
C989 H992 0.929 . S
C990 C989 1.363 . S
C990 C996 1.428 . S
H991 C987 0.930 . S
H992 C989 0.929 . S
S993 N994 1.613 . S
S993 N995 1.610 . S
N994 S993 1.613 . S
N994 C997 1.350 . S
N995 S993 1.610 . S
N995 C996 1.351 . S
C996 C990 1.428 . S
C996 N995 1.351 . S
C996 C997 1.434 . S
C997 C988 1.429 . S
C997 N994 1.350 . S
C997 C996 1.434 . S
C998 C999 1.369 . S
C998 C1000 1.419 . S
C998 H1002 0.930 . S
C999 C998 1.369 . S
C999 C1008 1.429 . S
C1000 C998 1.419 . S
C1000 C1001 1.363 . S
C1000 H1003 0.929 . S
C1001 C1000 1.363 . S
C1001 C1007 1.428 . S
H1002 C998 0.930 . S
H1003 C1000 0.929 . S
S1004 N1005 1.613 . S
S1004 N1006 1.610 . S
N1005 S1004 1.613 . S
N1005 C1008 1.350 . S
N1006 S1004 1.610 . S
N1006 C1007 1.351 . S
C1007 C1001 1.428 . S
C1007 N1006 1.351 . S
C1007 C1008 1.434 . S
C1008 C999 1.429 . S
C1008 N1005 1.350 . S
C1008 C1007 1.434 . S
C1009 C1010 1.369 . S
C1009 C1011 1.419 . S
C1009 H1013 0.930 . S
C1010 C1009 1.369 . S
C1010 C1019 1.429 . S
C1011 C1009 1.419 . S
C1011 C1012 1.363 . S
C1011 H1014 0.929 . S
C1012 C1011 1.363 . S
C1012 C1018 1.428 . S
H1013 C1009 0.930 . S
H1014 C1011 0.929 . S
S1015 N1016 1.613 . S
S1015 N1017 1.610 . S
N1016 S1015 1.613 . S
N1016 C1019 1.350 . S
N1017 S1015 1.610 . S
N1017 C1018 1.351 . S
C1018 C1012 1.428 . S
C1018 N1017 1.351 . S
C1018 C1019 1.434 . S
C1019 C1010 1.429 . S
C1019 N1016 1.350 . S
C1019 C1018 1.434 . S
C1020 C1021 1.369 . S
C1020 C1022 1.419 . S
C1020 H1024 0.930 . S
C1021 C1020 1.369 . S
C1021 C1030 1.429 . S
C1022 C1020 1.419 . S
C1022 C1023 1.363 . S
C1022 H1025 0.929 . S
C1023 C1022 1.363 . S
C1023 C1029 1.428 . S
H1024 C1020 0.930 . S
H1025 C1022 0.929 . S
S1026 N1027 1.613 . S
S1026 N1028 1.610 . S
N1027 S1026 1.613 . S
N1027 C1030 1.350 . S
N1028 S1026 1.610 . S
N1028 C1029 1.351 . S
C1029 C1023 1.428 . S
C1029 N1028 1.351 . S
C1029 C1030 1.434 . S
C1030 C1021 1.429 . S
C1030 N1027 1.350 . S
C1030 C1029 1.434 . S
C1031 C1032 1.369 . S
C1031 C1033 1.419 . S
C1031 H1035 0.930 . S
C1032 C1031 1.369 . S
C1032 C1041 1.429 . S
C1033 C1031 1.419 . S
C1033 C1034 1.363 . S
C1033 H1036 0.929 . S
C1034 C1033 1.363 . S
C1034 C1040 1.428 . S
H1035 C1031 0.930 . S
H1036 C1033 0.929 . S
S1037 N1038 1.613 . S
S1037 N1039 1.610 . S
N1038 S1037 1.613 . S
N1038 C1041 1.350 . S
N1039 S1037 1.610 . S
N1039 C1040 1.351 . S
C1040 C1034 1.428 . S
C1040 N1039 1.351 . S
C1040 C1041 1.434 . S
C1041 C1032 1.429 . S
C1041 N1038 1.350 . S
C1041 C1040 1.434 . S
C1042 C1043 1.369 . S
C1042 C1044 1.419 . S
C1042 H1046 0.930 . S
C1043 C1042 1.369 . S
C1043 C1052 1.429 . S
C1044 C1042 1.419 . S
C1044 C1045 1.363 . S
C1044 H1047 0.929 . S
C1045 C1044 1.363 . S
C1045 C1051 1.428 . S
H1046 C1042 0.930 . S
H1047 C1044 0.929 . S
S1048 N1049 1.613 . S
S1048 N1050 1.610 . S
N1049 S1048 1.613 . S
N1049 C1052 1.350 . S
N1050 S1048 1.610 . S
N1050 C1051 1.351 . S
C1051 C1045 1.428 . S
C1051 N1050 1.351 . S
C1051 C1052 1.434 . S
C1052 C1043 1.429 . S
C1052 N1049 1.350 . S
C1052 C1051 1.434 . S
C1053 C1054 1.369 . S
C1053 C1055 1.419 . S
C1053 H1057 0.930 . S
C1054 C1053 1.369 . S
C1054 C1063 1.429 . S
C1055 C1053 1.419 . S
C1055 C1056 1.363 . S
C1055 H1058 0.929 . S
C1056 C1055 1.363 . S
C1056 C1062 1.428 . S
H1057 C1053 0.930 . S
H1058 C1055 0.929 . S
S1059 N1060 1.613 . S
S1059 N1061 1.610 . S
N1060 S1059 1.613 . S
N1060 C1063 1.350 . S
N1061 S1059 1.610 . S
N1061 C1062 1.351 . S
C1062 C1056 1.428 . S
C1062 N1061 1.351 . S
C1062 C1063 1.434 . S
C1063 C1054 1.429 . S
C1063 N1060 1.350 . S
C1063 C1062 1.434 . S
C1064 C1065 1.360 1_565 S
C1064 C1066 1.412 1_665 S
C1064 H1068 0.956 . S
C1065 C1064 1.360 1_545 S
C1065 C1074 1.429 . S
C1066 C1064 1.412 1_445 S
C1066 C1067 1.363 . S
C1066 H1069 0.929 . S
C1067 C1066 1.363 . S
C1067 C1073 1.428 1_455 S
H1068 C1064 0.956 . S
H1069 C1066 0.929 . S
S1070 N1071 1.613 . S
S1070 N1072 1.610 . S
N1071 S1070 1.613 . S
N1071 C1074 1.350 . S
N1072 S1070 1.610 . S
N1072 C1073 1.351 . S
C1073 C1067 1.428 1_655 S
C1073 N1072 1.351 . S
C1073 C1074 1.434 . S
C1074 C1065 1.429 . S
C1074 N1071 1.350 . S
C1074 C1073 1.434 . S
C1075 C1076 1.369 . S
C1075 C1077 1.419 . S
C1075 H1079 0.930 . S
C1076 C1075 1.369 . S
C1076 C1085 1.429 . S
C1077 C1075 1.419 . S
C1077 C1078 1.363 . S
C1077 H1080 0.929 . S
C1078 C1077 1.363 . S
C1078 C1084 1.428 . S
H1079 C1075 0.930 . S
H1080 C1077 0.929 . S
S1081 N1082 1.613 . S
S1081 N1083 1.610 . S
N1082 S1081 1.613 . S
N1082 C1085 1.350 . S
N1083 S1081 1.610 . S
N1083 C1084 1.351 . S
C1084 C1078 1.428 . S
C1084 N1083 1.351 . S
C1084 C1085 1.434 . S
C1085 C1076 1.429 . S
C1085 N1082 1.350 . S
C1085 C1084 1.434 . S
C1086 C1087 1.369 . S
C1086 C1088 1.419 . S
C1086 H1090 0.930 . S
C1087 C1086 1.369 . S
C1087 C1096 1.429 . S
C1088 C1086 1.419 . S
C1088 C1089 1.363 . S
C1088 H1091 0.929 . S
C1089 C1088 1.363 . S
C1089 C1095 1.428 . S
H1090 C1086 0.930 . S
H1091 C1088 0.929 . S
S1092 N1093 1.613 . S
S1092 N1094 1.610 . S
N1093 S1092 1.613 . S
N1093 C1096 1.350 1_565 S
N1094 S1092 1.610 . S
N1094 C1095 1.351 1_565 S
C1095 C1089 1.428 . S
C1095 N1094 1.351 1_545 S
C1095 C1096 1.434 . S
C1096 C1087 1.429 . S
C1096 N1093 1.350 1_545 S
C1096 C1095 1.434 . S
C1097 C1098 1.369 . S
C1097 C1099 1.419 . S
C1097 H1101 0.930 . S
C1098 C1097 1.369 . S
C1098 C1107 1.429 . S
C1099 C1097 1.419 . S
C1099 C1100 1.363 . S
C1099 H1102 0.929 . S
C1100 C1099 1.363 . S
C1100 C1106 1.428 . S
H1101 C1097 0.930 . S
H1102 C1099 0.929 . S
S1103 N1104 1.613 1_556 S
S1103 N1105 1.610 . S
N1104 S1103 1.613 1_554 S
N1104 C1107 1.350 1_554 S
N1105 S1103 1.610 . S
N1105 C1106 1.351 . S
C1106 C1100 1.428 . S
C1106 N1105 1.351 . S
C1106 C1107 1.434 . S
C1107 C1098 1.429 . S
C1107 N1104 1.350 1_556 S
C1107 C1106 1.434 . S
C1108 C1109 1.369 1_455 S
C1108 C1110 1.419 . S
C1108 H1112 0.930 1_545 S
C1109 C1108 1.369 1_655 S
C1109 C1118 1.429 . S
C1110 C1108 1.419 . S
C1110 C1111 1.363 . S
C1110 H1113 0.929 . S
C1111 C1110 1.363 . S
C1111 C1117 1.428 1_455 S
H1112 C1108 0.930 1_565 S
H1113 C1110 0.929 . S
S1114 N1115 1.613 . S
S1114 N1116 1.610 . S
N1115 S1114 1.613 . S
N1115 C1118 1.350 . S
N1116 S1114 1.610 . S
N1116 C1117 1.351 . S
C1117 C1111 1.428 1_655 S
C1117 N1116 1.351 . S
C1117 C1118 1.434 . S
C1118 C1109 1.429 . S
C1118 N1115 1.350 . S
C1118 C1117 1.434 . S
C1119 C1120 1.369 . S
C1119 C1121 1.419 . S
C1119 H1123 0.930 . S
C1120 C1119 1.369 . S
C1120 C1129 1.429 . S
C1121 C1119 1.419 . S
C1121 C1122 1.363 . S
C1121 H1124 0.929 . S
C1122 C1121 1.363 . S
C1122 C1128 1.428 . S
H1123 C1119 0.930 . S
H1124 C1121 0.929 . S
S1125 N1126 1.613 . S
S1125 N1127 1.610 . S
N1126 S1125 1.613 . S
N1126 C1129 1.350 . S
N1127 S1125 1.610 . S
N1127 C1128 1.351 . S
C1128 C1122 1.428 . S
C1128 N1127 1.351 . S
C1128 C1129 1.434 . S
C1129 C1120 1.429 . S
C1129 N1126 1.350 . S
C1129 C1128 1.434 . S
C1130 C1131 1.369 . S
C1130 C1132 1.419 . S
C1130 H1134 0.930 . S
C1131 C1130 1.369 . S
C1131 C1140 1.429 1_556 S
C1132 C1130 1.419 . S
C1132 C1133 1.363 1_556 S
C1132 H1135 0.929 . S
C1133 C1132 1.363 1_554 S
C1133 C1139 1.428 . S
H1134 C1130 0.930 . S
H1135 C1132 0.929 . S
S1136 N1137 1.613 . S
S1136 N1138 1.610 . S
N1137 S1136 1.613 . S
N1137 C1140 1.350 . S
N1138 S1136 1.610 . S
N1138 C1139 1.351 . S
C1139 C1133 1.428 . S
C1139 N1138 1.351 . S
C1139 C1140 1.434 . S
C1140 C1131 1.429 1_554 S
C1140 N1137 1.350 . S
C1140 C1139 1.434 . S
C1141 C1142 1.369 . S
C1141 C1143 1.419 . S
C1141 H1145 0.930 . S
C1142 C1141 1.369 . S
C1142 C1151 1.429 . S
C1143 C1141 1.419 . S
C1143 C1144 1.363 . S
C1143 H1146 0.929 . S
C1144 C1143 1.363 . S
C1144 C1150 1.428 . S
H1145 C1141 0.930 . S
H1146 C1143 0.929 . S
S1147 N1148 1.613 . S
S1147 N1149 1.610 . S
N1148 S1147 1.613 . S
N1148 C1151 1.350 . S
N1149 S1147 1.610 . S
N1149 C1150 1.351 . S
C1150 C1144 1.428 . S
C1150 N1149 1.351 . S
C1150 C1151 1.434 . S
C1151 C1142 1.429 . S
C1151 N1148 1.350 . S
C1151 C1150 1.434 . S
C1152 C1153 1.369 . S
C1152 C1154 1.419 . S
C1152 H1156 0.930 . S
C1153 C1152 1.369 . S
C1153 C1162 1.429 . S
C1154 C1152 1.419 . S
C1154 C1155 1.363 . S
C1154 H1157 0.929 . S
C1155 C1154 1.363 . S
C1155 C1161 1.428 . S
H1156 C1152 0.930 . S
H1157 C1154 0.929 . S
S1158 N1159 1.613 . S
S1158 N1160 1.610 . S
N1159 S1158 1.613 . S
N1159 C1162 1.350 . S
N1160 S1158 1.610 . S
N1160 C1161 1.351 . S
C1161 C1155 1.428 . S
C1161 N1160 1.351 . S
C1161 C1162 1.434 . S
C1162 C1153 1.429 . S
C1162 N1159 1.350 . S
C1162 C1161 1.434 . S
C1163 C1164 1.369 . S
C1163 C1165 1.419 . S
C1163 H1167 0.930 . S
C1164 C1163 1.369 . S
C1164 C1173 1.429 . S
C1165 C1163 1.419 . S
C1165 C1166 1.363 . S
C1165 H1168 0.929 . S
C1166 C1165 1.363 . S
C1166 C1172 1.428 . S
H1167 C1163 0.930 . S
H1168 C1165 0.929 . S
S1169 N1170 1.613 . S
S1169 N1171 1.610 . S
N1170 S1169 1.613 . S
N1170 C1173 1.350 . S
N1171 S1169 1.610 . S
N1171 C1172 1.351 . S
C1172 C1166 1.428 . S
C1172 N1171 1.351 . S
C1172 C1173 1.434 . S
C1173 C1164 1.429 . S
C1173 N1170 1.350 . S
C1173 C1172 1.434 . S
C1174 C1175 1.369 . S
C1174 C1176 1.419 . S
C1174 H1178 0.930 . S
C1175 C1174 1.369 . S
C1175 C1184 1.429 . S
C1176 C1174 1.419 . S
C1176 C1177 1.363 . S
C1176 H1179 0.929 . S
C1177 C1176 1.363 . S
C1177 C1183 1.428 . S
H1178 C1174 0.930 . S
H1179 C1176 0.929 . S
S1180 N1181 1.613 . S
S1180 N1182 1.610 . S
N1181 S1180 1.613 . S
N1181 C1184 1.350 . S
N1182 S1180 1.610 . S
N1182 C1183 1.351 . S
C1183 C1177 1.428 . S
C1183 N1182 1.351 . S
C1183 C1184 1.434 . S
C1184 C1175 1.429 . S
C1184 N1181 1.350 . S
C1184 C1183 1.434 . S
C1185 C1186 1.369 . S
C1185 C1187 1.419 . S
C1185 H1189 0.930 . S
C1186 C1185 1.369 . S
C1186 C1195 1.429 . S
C1187 C1185 1.419 . S
C1187 C1188 1.363 . S
C1187 H1190 0.929 . S
C1188 C1187 1.363 . S
C1188 C1194 1.428 . S
H1189 C1185 0.930 . S
H1190 C1187 0.929 . S
S1191 N1192 1.613 . S
S1191 N1193 1.610 . S
N1192 S1191 1.613 . S
N1192 C1195 1.350 . S
N1193 S1191 1.610 . S
N1193 C1194 1.351 . S
C1194 C1188 1.428 . S
C1194 N1193 1.351 . S
C1194 C1195 1.434 . S
C1195 C1186 1.429 . S
C1195 N1192 1.350 . S
C1195 C1194 1.434 . S
C1196 C1197 1.369 . S
C1196 C1198 1.419 . S
C1196 H1200 0.930 . S
C1197 C1196 1.369 . S
C1197 C1206 1.429 . S
C1198 C1196 1.419 . S
C1198 C1199 1.363 . S
C1198 H1201 0.929 . S
C1199 C1198 1.363 . S
C1199 C1205 1.428 . S
H1200 C1196 0.930 . S
H1201 C1198 0.929 . S
S1202 N1203 1.613 . S
S1202 N1204 1.610 . S
N1203 S1202 1.613 . S
N1203 C1206 1.350 . S
N1204 S1202 1.610 . S
N1204 C1205 1.351 . S
C1205 C1199 1.428 . S
C1205 N1204 1.351 . S
C1205 C1206 1.434 . S
C1206 C1197 1.429 . S
C1206 N1203 1.350 . S
C1206 C1205 1.434 . S
C1207 C1208 1.369 . S
C1207 C1209 1.419 . S
C1207 H1211 0.930 . S
C1208 C1207 1.369 . S
C1208 C1217 1.429 . S
C1209 C1207 1.419 . S
C1209 C1210 1.363 . S
C1209 H1212 0.929 . S
C1210 C1209 1.363 . S
C1210 C1216 1.428 . S
H1211 C1207 0.930 . S
H1212 C1209 0.929 . S
S1213 N1214 1.613 . S
S1213 N1215 1.610 . S
N1214 S1213 1.613 . S
N1214 C1217 1.350 . S
N1215 S1213 1.610 . S
N1215 C1216 1.351 . S
C1216 C1210 1.428 . S
C1216 N1215 1.351 . S
C1216 C1217 1.434 . S
C1217 C1208 1.429 . S
C1217 N1214 1.350 . S
C1217 C1216 1.434 . S
C1218 C1219 1.369 . S
C1218 C1220 1.419 . S
C1218 H1222 0.930 . S
C1219 C1218 1.369 . S
C1219 C1228 1.429 . S
C1220 C1218 1.419 . S
C1220 C1221 1.363 . S
C1220 H1223 0.929 . S
C1221 C1220 1.363 . S
C1221 C1227 1.428 . S
H1222 C1218 0.930 . S
H1223 C1220 0.929 . S
S1224 N1225 1.613 . S
S1224 N1226 1.610 . S
N1225 S1224 1.613 . S
N1225 C1228 1.350 . S
N1226 S1224 1.610 . S
N1226 C1227 1.351 . S
C1227 C1221 1.428 . S
C1227 N1226 1.351 . S
C1227 C1228 1.434 . S
C1228 C1219 1.429 . S
C1228 N1225 1.350 . S
C1228 C1227 1.434 . S
C1229 C1230 1.369 . S
C1229 C1231 1.419 . S
C1229 H1233 0.930 . S
C1230 C1229 1.369 . S
C1230 C1239 1.429 . S
C1231 C1229 1.419 . S
C1231 C1232 1.363 . S
C1231 H1234 0.929 . S
C1232 C1231 1.363 . S
C1232 C1238 1.428 . S
H1233 C1229 0.930 . S
H1234 C1231 0.929 . S
S1235 N1236 1.613 . S
S1235 N1237 1.610 . S
N1236 S1235 1.613 . S
N1236 C1239 1.350 . S
N1237 S1235 1.610 . S
N1237 C1238 1.351 . S
C1238 C1232 1.428 . S
C1238 N1237 1.351 . S
C1238 C1239 1.434 . S
C1239 C1230 1.429 . S
C1239 N1236 1.350 . S
C1239 C1238 1.434 . S
C1240 C1241 1.369 . S
C1240 C1242 1.419 . S
C1240 H1244 0.930 . S
C1241 C1240 1.369 . S
C1241 C1250 1.429 . S
C1242 C1240 1.419 . S
C1242 C1243 1.363 . S
C1242 H1245 0.929 . S
C1243 C1242 1.363 . S
C1243 C1249 1.428 . S
H1244 C1240 0.930 . S
H1245 C1242 0.929 . S
S1246 N1247 1.613 . S
S1246 N1248 1.610 . S
N1247 S1246 1.613 . S
N1247 C1250 1.350 . S
N1248 S1246 1.610 . S
N1248 C1249 1.351 . S
C1249 C1243 1.428 . S
C1249 N1248 1.351 . S
C1249 C1250 1.434 . S
C1250 C1241 1.429 . S
C1250 N1247 1.350 . S
C1250 C1249 1.434 . S
C1251 C1252 1.369 . S
C1251 C1253 1.419 . S
C1251 H1255 0.930 . S
C1252 C1251 1.369 . S
C1252 C1261 1.429 . S
C1253 C1251 1.419 . S
C1253 C1254 1.363 . S
C1253 H1256 0.929 . S
C1254 C1253 1.363 . S
C1254 C1260 1.428 . S
H1255 C1251 0.930 . S
H1256 C1253 0.929 . S
S1257 N1258 1.613 . S
S1257 N1259 1.610 . S
N1258 S1257 1.613 . S
N1258 C1261 1.350 . S
N1259 S1257 1.610 . S
N1259 C1260 1.351 . S
C1260 C1254 1.428 . S
C1260 N1259 1.351 . S
C1260 C1261 1.434 . S
C1261 C1252 1.429 . S
C1261 N1258 1.350 . S
C1261 C1260 1.434 . S
C1262 C1263 1.369 . S
C1262 C1264 1.419 . S
C1262 H1266 0.930 . S
C1263 C1262 1.369 . S
C1263 C1272 1.429 . S
C1264 C1262 1.419 . S
C1264 C1265 1.363 . S
C1264 H1267 0.929 . S
C1265 C1264 1.363 . S
C1265 C1271 1.428 . S
H1266 C1262 0.930 . S
H1267 C1264 0.929 . S
S1268 N1269 1.613 . S
S1268 N1270 1.610 . S
N1269 S1268 1.613 . S
N1269 C1272 1.350 . S
N1270 S1268 1.610 . S
N1270 C1271 1.351 . S
C1271 C1265 1.428 . S
C1271 N1270 1.351 . S
C1271 C1272 1.434 . S
C1272 C1263 1.429 . S
C1272 N1269 1.350 . S
C1272 C1271 1.434 . S
C1273 C1274 1.369 . S
C1273 C1275 1.419 . S
C1273 H1277 0.930 . S
C1274 C1273 1.369 . S
C1274 C1283 1.429 . S
C1275 C1273 1.419 . S
C1275 C1276 1.363 . S
C1275 H1278 0.929 . S
C1276 C1275 1.363 . S
C1276 C1282 1.428 . S
H1277 C1273 0.930 . S
H1278 C1275 0.929 . S
S1279 N1280 1.613 . S
S1279 N1281 1.610 . S
N1280 S1279 1.613 . S
N1280 C1283 1.350 . S
N1281 S1279 1.610 . S
N1281 C1282 1.351 . S
C1282 C1276 1.428 . S
C1282 N1281 1.351 . S
C1282 C1283 1.434 . S
C1283 C1274 1.429 . S
C1283 N1280 1.350 . S
C1283 C1282 1.434 . S
C1284 C1285 1.376 . S
C1284 C1286 1.414 1_655 S
C1284 H1288 0.928 . S
C1285 C1284 1.376 . S
C1285 C1294 1.428 1_655 S
C1286 C1284 1.414 1_455 S
C1286 C1287 1.363 . S
C1286 H1289 0.929 . S
C1287 C1286 1.363 . S
C1287 C1293 1.428 . S
H1288 C1284 0.928 . S
H1289 C1286 0.929 . S
S1290 N1291 1.611 1_455 S
S1290 N1292 1.610 . S
N1291 S1290 1.611 1_655 S
N1291 C1294 1.338 1_655 S
N1292 S1290 1.610 . S
N1292 C1293 1.351 . S
C1293 C1287 1.428 . S
C1293 N1292 1.351 . S
C1293 C1294 1.433 . S
C1294 C1285 1.428 1_455 S
C1294 N1291 1.338 1_455 S
C1294 C1293 1.433 . S
C1295 C1296 1.369 . S
C1295 C1297 1.419 . S
C1295 H1299 0.930 . S
C1296 C1295 1.369 . S
C1296 C1305 1.429 . S
C1297 C1295 1.419 . S
C1297 C1298 1.363 . S
C1297 H1300 0.929 . S
C1298 C1297 1.363 . S
C1298 C1304 1.428 . S
H1299 C1295 0.930 . S
H1300 C1297 0.929 . S
S1301 N1302 1.613 . S
S1301 N1303 1.610 . S
N1302 S1301 1.613 . S
N1302 C1305 1.350 . S
N1303 S1301 1.610 . S
N1303 C1304 1.351 . S
C1304 C1298 1.428 . S
C1304 N1303 1.351 . S
C1304 C1305 1.434 . S
C1305 C1296 1.429 . S
C1305 N1302 1.350 . S
C1305 C1304 1.434 . S
C1306 C1307 1.369 . S
C1306 C1308 1.419 1_556 S
C1306 H1310 0.930 . S
C1307 C1306 1.369 . S
C1307 C1316 1.429 1_556 S
C1308 C1306 1.419 1_554 S
C1308 C1309 1.363 . S
C1308 H1311 0.929 . S
C1309 C1308 1.363 . S
C1309 C1315 1.428 . S
H1310 C1306 0.930 . S
H1311 C1308 0.929 . S
S1312 N1313 1.613 . S
S1312 N1314 1.610 . S
N1313 S1312 1.613 . S
N1313 C1316 1.350 . S
N1314 S1312 1.610 . S
N1314 C1315 1.351 . S
C1315 C1309 1.428 . S
C1315 N1314 1.351 . S
C1315 C1316 1.434 . S
C1316 C1307 1.429 1_554 S
C1316 N1313 1.350 . S
C1316 C1315 1.434 . S
C1317 C1318 1.375 . S
C1317 C1319 1.419 . S
C1317 H1321 0.930 . S
C1318 C1317 1.375 . S
C1318 C1327 1.429 . S
C1319 C1317 1.419 . S
C1319 C1320 1.363 . S
C1319 H1322 0.929 . S
C1320 C1319 1.363 . S
C1320 C1326 1.428 . S
H1321 C1317 0.930 . S
H1322 C1319 0.929 . S
S1323 N1324 1.613 . S
S1323 N1325 1.610 1_455 S
N1324 S1323 1.613 . S
N1324 C1327 1.347 1_455 S
N1325 S1323 1.610 1_655 S
N1325 C1326 1.351 . S
C1326 C1320 1.428 . S
C1326 N1325 1.351 . S
C1326 C1327 1.439 . S
C1327 C1318 1.429 . S
C1327 N1324 1.347 1_655 S
C1327 C1326 1.439 . S
C1328 C1329 1.369 . S
C1328 C1330 1.419 1_556 S
C1328 H1332 0.930 . S
C1329 C1328 1.369 . S
C1329 C1338 1.429 . S
C1330 C1328 1.419 1_554 S
C1330 C1331 1.363 . S
C1330 H1333 0.929 . S
C1331 C1330 1.363 . S
C1331 C1337 1.428 1_554 S
H1332 C1328 0.930 . S
H1333 C1330 0.929 . S
S1334 N1335 1.613 1_565 S
S1334 N1336 1.610 1_565 S
N1335 S1334 1.613 1_545 S
N1335 C1338 1.350 . S
N1336 S1334 1.610 1_545 S
N1336 C1337 1.351 . S
C1337 C1331 1.428 1_556 S
C1337 N1336 1.351 . S
C1337 C1338 1.434 . S
C1338 C1329 1.429 . S
C1338 N1335 1.350 . S
C1338 C1337 1.434 . S
C1339 C1340 1.369 . S
C1339 C1341 1.419 . S
C1339 H1343 0.930 . S
C1340 C1339 1.369 . S
C1340 C1349 1.429 . S
C1341 C1339 1.419 . S
C1341 C1342 1.363 . S
C1341 H1344 0.929 . S
C1342 C1341 1.363 . S
C1342 C1348 1.428 . S
H1343 C1339 0.930 . S
H1344 C1341 0.929 . S
S1345 N1346 1.613 . S
S1345 N1347 1.610 . S
N1346 S1345 1.613 . S
N1346 C1349 1.350 . S
N1347 S1345 1.610 . S
N1347 C1348 1.351 . S
C1348 C1342 1.428 . S
C1348 N1347 1.351 . S
C1348 C1349 1.434 . S
C1349 C1340 1.429 . S
C1349 N1346 1.350 . S
C1349 C1348 1.434 . S
C1350 C1351 1.369 . S
C1350 C1352 1.419 . S
C1350 H1354 0.930 . S
C1351 C1350 1.369 . S
C1351 C1360 1.429 . S
C1352 C1350 1.419 . S
C1352 C1353 1.363 . S
C1352 H1355 0.929 . S
C1353 C1352 1.363 . S
C1353 C1359 1.428 . S
H1354 C1350 0.930 . S
H1355 C1352 0.929 . S
S1356 N1357 1.613 . S
S1356 N1358 1.610 . S
N1357 S1356 1.613 . S
N1357 C1360 1.350 . S
N1358 S1356 1.610 . S
N1358 C1359 1.351 . S
C1359 C1353 1.428 . S
C1359 N1358 1.351 . S
C1359 C1360 1.434 . S
C1360 C1351 1.429 . S
C1360 N1357 1.350 . S
C1360 C1359 1.434 . S
C1361 C1362 1.369 . S
C1361 C1363 1.419 . S
C1361 H1365 0.930 . S
C1362 C1361 1.369 . S
C1362 C1371 1.429 . S
C1363 C1361 1.419 . S
C1363 C1364 1.363 . S
C1363 H1366 0.929 . S
C1364 C1363 1.363 . S
C1364 C1370 1.428 . S
H1365 C1361 0.930 . S
H1366 C1363 0.929 . S
S1367 N1368 1.613 . S
S1367 N1369 1.610 . S
N1368 S1367 1.613 . S
N1368 C1371 1.350 . S
N1369 S1367 1.610 . S
N1369 C1370 1.351 . S
C1370 C1364 1.428 . S
C1370 N1369 1.351 . S
C1370 C1371 1.434 . S
C1371 C1362 1.429 . S
C1371 N1368 1.350 . S
C1371 C1370 1.434 . S
C1372 C1373 1.369 . S
C1372 C1374 1.419 . S
C1372 H1376 0.930 . S
C1373 C1372 1.369 . S
C1373 C1382 1.429 . S
C1374 C1372 1.419 . S
C1374 C1375 1.363 . S
C1374 H1377 0.929 . S
C1375 C1374 1.363 . S
C1375 C1381 1.428 . S
H1376 C1372 0.930 . S
H1377 C1374 0.929 . S
S1378 N1379 1.613 1_565 S
S1378 N1380 1.587 1_565 S
N1379 S1378 1.613 1_545 S
N1379 C1382 1.350 . S
N1380 S1378 1.587 1_545 S
N1380 C1381 1.379 . S
C1381 C1375 1.428 . S
C1381 N1380 1.379 . S
C1381 C1382 1.434 . S
C1382 C1373 1.429 . S
C1382 N1379 1.350 . S
C1382 C1381 1.434 . S
C1383 C1384 1.369 . S
C1383 C1385 1.419 . S
C1383 H1387 0.930 . S
C1384 C1383 1.369 . S
C1384 C1393 1.429 . S
C1385 C1383 1.419 . S
C1385 C1386 1.363 . S
C1385 H1388 0.929 . S
C1386 C1385 1.363 . S
C1386 C1392 1.428 . S
H1387 C1383 0.930 . S
H1388 C1385 0.929 . S
S1389 N1390 1.613 . S
S1389 N1391 1.610 . S
N1390 S1389 1.613 . S
N1390 C1393 1.350 . S
N1391 S1389 1.610 . S
N1391 C1392 1.351 . S
C1392 C1386 1.428 . S
C1392 N1391 1.351 . S
C1392 C1393 1.434 . S
C1393 C1384 1.429 . S
C1393 N1390 1.350 . S
C1393 C1392 1.434 . S
C1394 C1395 1.369 . S
C1394 C1396 1.419 . S
C1394 H1398 0.930 . S
C1395 C1394 1.369 . S
C1395 C1404 1.429 . S
C1396 C1394 1.419 . S
C1396 C1397 1.363 . S
C1396 H1399 0.929 . S
C1397 C1396 1.363 . S
C1397 C1403 1.428 . S
H1398 C1394 0.930 . S
H1399 C1396 0.929 . S
S1400 N1401 1.613 . S
S1400 N1402 1.610 . S
N1401 S1400 1.613 . S
N1401 C1404 1.350 . S
N1402 S1400 1.610 . S
N1402 C1403 1.351 . S
C1403 C1397 1.428 . S
C1403 N1402 1.351 . S
C1403 C1404 1.434 . S
C1404 C1395 1.429 . S
C1404 N1401 1.350 . S
C1404 C1403 1.434 . S
C1405 C1406 1.369 . S
C1405 C1407 1.419 . S
C1405 H1409 0.930 . S
C1406 C1405 1.369 . S
C1406 C1415 1.429 . S
C1407 C1405 1.419 . S
C1407 C1408 1.363 . S
C1407 H1410 0.929 . S
C1408 C1407 1.363 . S
C1408 C1414 1.428 . S
H1409 C1405 0.930 . S
H1410 C1407 0.929 . S
S1411 N1412 1.613 . S
S1411 N1413 1.610 1_554 S
N1412 S1411 1.613 . S
N1412 C1415 1.350 1_554 S
N1413 S1411 1.610 1_556 S
N1413 C1414 1.351 . S
C1414 C1408 1.428 . S
C1414 N1413 1.351 . S
C1414 C1415 1.434 . S
C1415 C1406 1.429 . S
C1415 N1412 1.350 1_556 S
C1415 C1414 1.434 . S
C1416 C1417 1.369 . S
C1416 C1418 1.419 . S
C1416 H1420 0.930 . S
C1417 C1416 1.369 . S
C1417 C1426 1.429 . S
C1418 C1416 1.419 . S
C1418 C1419 1.363 . S
C1418 H1421 0.929 . S
C1419 C1418 1.363 . S
C1419 C1425 1.428 . S
H1420 C1416 0.930 . S
H1421 C1418 0.929 . S
S1422 N1423 1.613 . S
S1422 N1424 1.610 . S
N1423 S1422 1.613 . S
N1423 C1426 1.350 . S
N1424 S1422 1.610 . S
N1424 C1425 1.351 . S
C1425 C1419 1.428 . S
C1425 N1424 1.351 . S
C1425 C1426 1.434 . S
C1426 C1417 1.429 . S
C1426 N1423 1.350 . S
C1426 C1425 1.434 . S
C1427 C1428 1.369 . S
C1427 C1429 1.419 . S
C1427 H1431 0.930 . S
C1428 C1427 1.369 . S
C1428 C1437 1.429 . S
C1429 C1427 1.419 . S
C1429 C1430 1.363 . S
C1429 H1432 0.929 . S
C1430 C1429 1.363 . S
C1430 C1436 1.428 . S
H1431 C1427 0.930 . S
H1432 C1429 0.929 . S
S1433 N1434 1.613 . S
S1433 N1435 1.610 . S
N1434 S1433 1.613 . S
N1434 C1437 1.350 . S
N1435 S1433 1.610 . S
N1435 C1436 1.351 . S
C1436 C1430 1.428 . S
C1436 N1435 1.351 . S
C1436 C1437 1.434 . S
C1437 C1428 1.429 . S
C1437 N1434 1.350 . S
C1437 C1436 1.434 . S
C1438 C1439 1.369 . S
C1438 C1440 1.419 . S
C1438 H1442 0.930 . S
C1439 C1438 1.369 . S
C1439 C1448 1.429 . S
C1440 C1438 1.419 . S
C1440 C1441 1.363 . S
C1440 H1443 0.929 . S
C1441 C1440 1.363 . S
C1441 C1447 1.428 . S
H1442 C1438 0.930 . S
H1443 C1440 0.929 . S
S1444 N1445 1.613 . S
S1444 N1446 1.610 . S
N1445 S1444 1.613 . S
N1445 C1448 1.350 . S
N1446 S1444 1.610 . S
N1446 C1447 1.351 . S
C1447 C1441 1.428 . S
C1447 N1446 1.351 . S
C1447 C1448 1.434 . S
C1448 C1439 1.429 . S
C1448 N1445 1.350 . S
C1448 C1447 1.434 . S
C1449 C1450 1.369 . S
C1449 C1451 1.419 . S
C1449 H1453 0.930 . S
C1450 C1449 1.369 . S
C1450 C1459 1.429 . S
C1451 C1449 1.419 . S
C1451 C1452 1.363 . S
C1451 H1454 0.929 . S
C1452 C1451 1.363 . S
C1452 C1458 1.428 . S
H1453 C1449 0.930 . S
H1454 C1451 0.929 . S
S1455 N1456 1.613 . S
S1455 N1457 1.610 . S
N1456 S1455 1.613 . S
N1456 C1459 1.350 . S
N1457 S1455 1.610 . S
N1457 C1458 1.351 . S
C1458 C1452 1.428 . S
C1458 N1457 1.351 . S
C1458 C1459 1.434 . S
C1459 C1450 1.429 . S
C1459 N1456 1.350 . S
C1459 C1458 1.434 . S
C1460 C1461 1.369 . S
C1460 C1462 1.419 . S
C1460 H1464 0.930 . S
C1461 C1460 1.369 . S
C1461 C1470 1.429 . S
C1462 C1460 1.419 . S
C1462 C1463 1.363 . S
C1462 H1465 0.929 . S
C1463 C1462 1.363 . S
C1463 C1469 1.428 . S
H1464 C1460 0.930 . S
H1465 C1462 0.929 . S
S1466 N1467 1.613 . S
S1466 N1468 1.610 . S
N1467 S1466 1.613 . S
N1467 C1470 1.350 . S
N1468 S1466 1.610 . S
N1468 C1469 1.351 . S
C1469 C1463 1.428 . S
C1469 N1468 1.351 . S
C1469 C1470 1.434 . S
C1470 C1461 1.429 . S
C1470 N1467 1.350 . S
C1470 C1469 1.434 . S
C1471 C1472 1.369 . S
C1471 C1473 1.419 . S
C1471 H1475 0.930 . S
C1472 C1471 1.369 . S
C1472 C1481 1.429 . S
C1473 C1471 1.419 . S
C1473 C1474 1.363 . S
C1473 H1476 0.929 . S
C1474 C1473 1.363 . S
C1474 C1480 1.428 . S
H1475 C1471 0.930 . S
H1476 C1473 0.929 . S
S1477 N1478 1.613 . S
S1477 N1479 1.610 . S
N1478 S1477 1.613 . S
N1478 C1481 1.350 . S
N1479 S1477 1.610 . S
N1479 C1480 1.351 . S
C1480 C1474 1.428 . S
C1480 N1479 1.351 . S
C1480 C1481 1.434 . S
C1481 C1472 1.429 . S
C1481 N1478 1.350 . S
C1481 C1480 1.434 . S
C1482 C1483 1.369 . S
C1482 C1484 1.419 . S
C1482 H1486 0.930 . S
C1483 C1482 1.369 . S
C1483 C1492 1.429 . S
C1484 C1482 1.419 . S
C1484 C1485 1.363 . S
C1484 H1487 0.929 . S
C1485 C1484 1.363 . S
C1485 C1491 1.428 . S
H1486 C1482 0.930 . S
H1487 C1484 0.929 . S
S1488 N1489 1.613 . S
S1488 N1490 1.610 . S
N1489 S1488 1.613 . S
N1489 C1492 1.350 . S
N1490 S1488 1.610 . S
N1490 C1491 1.351 . S
C1491 C1485 1.428 . S
C1491 N1490 1.351 . S
C1491 C1492 1.434 . S
C1492 C1483 1.429 . S
C1492 N1489 1.350 . S
C1492 C1491 1.434 . S
C1493 C1494 1.369 . S
C1493 C1495 1.419 . S
C1493 H1497 0.930 . S
C1494 C1493 1.369 . S
C1494 C1503 1.429 . S
C1495 C1493 1.419 . S
C1495 C1496 1.363 . S
C1495 H1498 0.929 . S
C1496 C1495 1.363 . S
C1496 C1502 1.428 . S
H1497 C1493 0.930 . S
H1498 C1495 0.929 . S
S1499 N1500 1.613 . S
S1499 N1501 1.610 . S
N1500 S1499 1.613 . S
N1500 C1503 1.350 . S
N1501 S1499 1.610 . S
N1501 C1502 1.351 . S
C1502 C1496 1.428 . S
C1502 N1501 1.351 . S
C1502 C1503 1.434 . S
C1503 C1494 1.429 . S
C1503 N1500 1.350 . S
C1503 C1502 1.434 . S
C1504 C1505 1.369 . S
C1504 C1506 1.419 . S
C1504 H1508 0.930 . S
C1505 C1504 1.369 . S
C1505 C1514 1.429 . S
C1506 C1504 1.419 . S
C1506 C1507 1.363 . S
C1506 H1509 0.929 . S
C1507 C1506 1.363 . S
C1507 C1513 1.428 . S
H1508 C1504 0.930 . S
H1509 C1506 0.929 . S
S1510 N1511 1.613 . S
S1510 N1512 1.610 . S
N1511 S1510 1.613 . S
N1511 C1514 1.350 . S
N1512 S1510 1.610 . S
N1512 C1513 1.351 . S
C1513 C1507 1.428 . S
C1513 N1512 1.351 . S
C1513 C1514 1.434 . S
C1514 C1505 1.429 . S
C1514 N1511 1.350 . S
C1514 C1513 1.434 . S
C1515 C1516 1.369 . S
C1515 C1517 1.419 . S
C1515 H1519 0.930 . S
C1516 C1515 1.369 . S
C1516 C1525 1.429 . S
C1517 C1515 1.419 . S
C1517 C1518 1.363 . S
C1517 H1520 0.929 . S
C1518 C1517 1.363 . S
C1518 C1524 1.428 . S
H1519 C1515 0.930 . S
H1520 C1517 0.929 . S
S1521 N1522 1.613 . S
S1521 N1523 1.610 . S
N1522 S1521 1.613 . S
N1522 C1525 1.350 . S
N1523 S1521 1.610 . S
N1523 C1524 1.351 . S
C1524 C1518 1.428 . S
C1524 N1523 1.351 . S
C1524 C1525 1.434 . S
C1525 C1516 1.429 . S
C1525 N1522 1.350 . S
C1525 C1524 1.434 . S
C1526 C1527 1.369 . S
C1526 C1528 1.419 . S
C1526 H1530 0.930 . S
C1527 C1526 1.369 . S
C1527 C1536 1.429 . S
C1528 C1526 1.419 . S
C1528 C1529 1.363 . S
C1528 H1531 0.929 . S
C1529 C1528 1.363 . S
C1529 C1535 1.428 . S
H1530 C1526 0.930 . S
H1531 C1528 0.929 . S
S1532 N1533 1.613 . S
S1532 N1534 1.610 . S
N1533 S1532 1.613 . S
N1533 C1536 1.350 . S
N1534 S1532 1.610 . S
N1534 C1535 1.351 . S
C1535 C1529 1.428 . S
C1535 N1534 1.351 . S
C1535 C1536 1.434 . S
C1536 C1527 1.429 . S
C1536 N1533 1.350 . S
C1536 C1535 1.434 . S
C1537 C1538 1.369 . S
C1537 C1539 1.419 . S
C1537 H1541 0.930 . S
C1538 C1537 1.369 . S
C1538 C1547 1.429 . S
C1539 C1537 1.419 . S
C1539 C1540 1.363 . S
C1539 H1542 0.929 . S
C1540 C1539 1.363 . S
C1540 C1546 1.428 . S
H1541 C1537 0.930 . S
H1542 C1539 0.929 . S
S1543 N1544 1.613 1_655 S
S1543 N1545 1.610 . S
N1544 S1543 1.613 1_455 S
N1544 C1547 1.350 1_455 S
N1545 S1543 1.610 . S
N1545 C1546 1.351 . S
C1546 C1540 1.428 . S
C1546 N1545 1.351 . S
C1546 C1547 1.434 . S
C1547 C1538 1.429 . S
C1547 N1544 1.350 1_655 S
C1547 C1546 1.434 . S
C1548 C1549 1.369 . S
C1548 C1550 1.419 . S
C1548 H1552 0.930 . S
C1549 C1548 1.369 . S
C1549 C1558 1.429 . S
C1550 C1548 1.419 . S
C1550 C1551 1.363 . S
C1550 H1553 0.929 . S
C1551 C1550 1.363 . S
C1551 C1557 1.428 . S
H1552 C1548 0.930 . S
H1553 C1550 0.929 . S
S1554 N1555 1.613 . S
S1554 N1556 1.610 . S
N1555 S1554 1.613 . S
N1555 C1558 1.350 . S
N1556 S1554 1.610 . S
N1556 C1557 1.351 . S
C1557 C1551 1.428 . S
C1557 N1556 1.351 . S
C1557 C1558 1.434 . S
C1558 C1549 1.429 . S
C1558 N1555 1.350 . S
C1558 C1557 1.434 . S
C1559 C1560 1.369 . S
C1559 C1561 1.419 . S
C1559 H1563 0.930 . S
C1560 C1559 1.369 . S
C1560 C1569 1.429 . S
C1561 C1559 1.419 . S
C1561 C1562 1.363 . S
C1561 H1564 0.929 . S
C1562 C1561 1.363 . S
C1562 C1568 1.428 . S
H1563 C1559 0.930 . S
H1564 C1561 0.929 . S
S1565 N1566 1.613 . S
S1565 N1567 1.610 . S
N1566 S1565 1.613 . S
N1566 C1569 1.350 . S
N1567 S1565 1.610 . S
N1567 C1568 1.351 . S
C1568 C1562 1.428 . S
C1568 N1567 1.351 . S
C1568 C1569 1.434 . S
C1569 C1560 1.429 . S
C1569 N1566 1.350 . S
C1569 C1568 1.434 . S
C1570 C1571 1.369 . S
C1570 C1572 1.419 . S
C1570 H1574 0.930 . S
C1571 C1570 1.369 . S
C1571 C1580 1.429 . S
C1572 C1570 1.419 . S
C1572 C1573 1.363 . S
C1572 H1575 0.929 . S
C1573 C1572 1.363 . S
C1573 C1579 1.428 . S
H1574 C1570 0.930 . S
H1575 C1572 0.929 . S
S1576 N1577 1.613 . S
S1576 N1578 1.610 . S
N1577 S1576 1.613 . S
N1577 C1580 1.350 . S
N1578 S1576 1.610 . S
N1578 C1579 1.351 . S
C1579 C1573 1.428 . S
C1579 N1578 1.351 . S
C1579 C1580 1.434 . S
C1580 C1571 1.429 . S
C1580 N1577 1.350 . S
C1580 C1579 1.434 . S
C1581 C1582 1.369 . S
C1581 C1583 1.419 . S
C1581 H1585 0.930 . S
C1582 C1581 1.369 . S
C1582 C1591 1.429 . S
C1583 C1581 1.419 . S
C1583 C1584 1.363 . S
C1583 H1586 0.929 . S
C1584 C1583 1.363 . S
C1584 C1590 1.428 . S
H1585 C1581 0.930 . S
H1586 C1583 0.929 . S
S1587 N1588 1.613 . S
S1587 N1589 1.610 . S
N1588 S1587 1.613 . S
N1588 C1591 1.350 . S
N1589 S1587 1.610 . S
N1589 C1590 1.351 . S
C1590 C1584 1.428 . S
C1590 N1589 1.351 . S
C1590 C1591 1.434 . S
C1591 C1582 1.429 . S
C1591 N1588 1.350 . S
C1591 C1590 1.434 . S
C1592 C1593 1.369 . S
C1592 C1594 1.419 . S
C1592 H1596 0.930 . S
C1593 C1592 1.369 . S
C1593 C1602 1.429 . S
C1594 C1592 1.419 . S
C1594 C1595 1.363 . S
C1594 H1597 0.929 . S
C1595 C1594 1.363 . S
C1595 C1601 1.428 . S
H1596 C1592 0.930 . S
H1597 C1594 0.929 . S
S1598 N1599 1.613 . S
S1598 N1600 1.610 . S
N1599 S1598 1.613 . S
N1599 C1602 1.350 . S
N1600 S1598 1.610 . S
N1600 C1601 1.351 . S
C1601 C1595 1.428 . S
C1601 N1600 1.351 . S
C1601 C1602 1.434 . S
C1602 C1593 1.429 . S
C1602 N1599 1.350 . S
C1602 C1601 1.434 . S
C1603 C1604 1.369 . S
C1603 C1605 1.419 . S
C1603 H1607 0.930 . S
C1604 C1603 1.369 . S
C1604 C1613 1.429 . S
C1605 C1603 1.419 . S
C1605 C1606 1.363 . S
C1605 H1608 0.929 . S
C1606 C1605 1.363 . S
C1606 C1612 1.428 . S
H1607 C1603 0.930 . S
H1608 C1605 0.929 . S
S1609 N1610 1.613 . S
S1609 N1611 1.609 . S
N1610 S1609 1.613 . S
N1610 C1613 1.350 . S
N1611 S1609 1.609 . S
N1611 C1612 1.358 . S
C1612 C1606 1.428 . S
C1612 N1611 1.358 . S
C1612 C1613 1.434 . S
C1613 C1604 1.429 . S
C1613 N1610 1.350 . S
C1613 C1612 1.434 . S
C1614 C1615 1.369 . S
C1614 C1616 1.419 . S
C1614 H1618 0.930 . S
C1615 C1614 1.369 . S
C1615 C1624 1.429 . S
C1616 C1614 1.419 . S
C1616 C1617 1.363 . S
C1616 H1619 0.929 . S
C1617 C1616 1.363 . S
C1617 C1623 1.428 . S
H1618 C1614 0.930 . S
H1619 C1616 0.929 . S
S1620 N1621 1.613 . S
S1620 N1622 1.610 . S
N1621 S1620 1.613 . S
N1621 C1624 1.350 . S
N1622 S1620 1.610 . S
N1622 C1623 1.351 . S
C1623 C1617 1.428 . S
C1623 N1622 1.351 . S
C1623 C1624 1.434 . S
C1624 C1615 1.429 . S
C1624 N1621 1.350 . S
C1624 C1623 1.434 . S
C1625 C1626 1.369 . S
C1625 C1627 1.419 . S
C1625 H1629 0.930 . S
C1626 C1625 1.369 . S
C1626 C1635 1.429 . S
C1627 C1625 1.419 . S
C1627 C1628 1.363 . S
C1627 H1630 0.929 . S
C1628 C1627 1.363 . S
C1628 C1634 1.428 . S
H1629 C1625 0.930 . S
H1630 C1627 0.929 . S
S1631 N1632 1.613 . S
S1631 N1633 1.610 . S
N1632 S1631 1.613 . S
N1632 C1635 1.350 . S
N1633 S1631 1.610 . S
N1633 C1634 1.351 . S
C1634 C1628 1.428 . S
C1634 N1633 1.351 . S
C1634 C1635 1.434 . S
C1635 C1626 1.429 . S
C1635 N1632 1.350 . S
C1635 C1634 1.434 . S
C1636 C1637 1.369 . S
C1636 C1638 1.419 . S
C1636 H1640 0.930 . S
C1637 C1636 1.369 . S
C1637 C1646 1.429 . S
C1638 C1636 1.419 . S
C1638 C1639 1.363 1_556 S
C1638 H1641 0.929 . S
C1639 C1638 1.363 1_554 S
C1639 C1645 1.428 1_554 S
H1640 C1636 0.930 . S
H1641 C1638 0.929 . S
S1642 N1643 1.613 1_554 S
S1642 N1644 1.610 . S
N1643 S1642 1.613 1_556 S
N1643 C1646 1.350 . S
N1644 S1642 1.610 . S
N1644 C1645 1.351 1_554 S
C1645 C1639 1.428 1_556 S
C1645 N1644 1.351 1_556 S
C1645 C1646 1.434 . S
C1646 C1637 1.429 . S
C1646 N1643 1.350 . S
C1646 C1645 1.434 . S
C1647 C1648 1.369 . S
C1647 C1649 1.419 . S
C1647 H1651 0.930 . S
C1648 C1647 1.369 . S
C1648 C1657 1.429 . S
C1649 C1647 1.419 . S
C1649 C1650 1.363 . S
C1649 H1652 0.929 . S
C1650 C1649 1.363 . S
C1650 C1656 1.428 . S
H1651 C1647 0.930 . S
H1652 C1649 0.929 . S
S1653 N1654 1.613 . S
S1653 N1655 1.610 . S
N1654 S1653 1.613 . S
N1654 C1657 1.350 . S
N1655 S1653 1.610 . S
N1655 C1656 1.351 . S
C1656 C1650 1.428 . S
C1656 N1655 1.351 . S
C1656 C1657 1.434 . S
C1657 C1648 1.429 . S
C1657 N1654 1.350 . S
C1657 C1656 1.434 . S
C1658 C1659 1.369 . S
C1658 C1660 1.419 . S
C1658 H1662 0.930 . S
C1659 C1658 1.369 . S
C1659 C1668 1.429 . S
C1660 C1658 1.419 . S
C1660 C1661 1.363 . S
C1660 H1663 0.929 . S
C1661 C1660 1.363 . S
C1661 C1667 1.428 . S
H1662 C1658 0.930 . S
H1663 C1660 0.929 . S
S1664 N1665 1.613 . S
S1664 N1666 1.610 . S
N1665 S1664 1.613 . S
N1665 C1668 1.350 . S
N1666 S1664 1.610 . S
N1666 C1667 1.351 . S
C1667 C1661 1.428 . S
C1667 N1666 1.351 . S
C1667 C1668 1.434 . S
C1668 C1659 1.429 . S
C1668 N1665 1.350 . S
C1668 C1667 1.434 . S
C1669 C1670 1.369 . S
C1669 C1671 1.419 . S
C1669 H1673 0.930 . S
C1670 C1669 1.369 . S
C1670 C1679 1.429 . S
C1671 C1669 1.419 . S
C1671 C1672 1.363 . S
C1671 H1674 0.929 . S
C1672 C1671 1.363 . S
C1672 C1678 1.428 . S
H1673 C1669 0.930 . S
H1674 C1671 0.929 . S
S1675 N1676 1.613 . S
S1675 N1677 1.610 . S
N1676 S1675 1.613 . S
N1676 C1679 1.350 . S
N1677 S1675 1.610 . S
N1677 C1678 1.351 . S
C1678 C1672 1.428 . S
C1678 N1677 1.351 . S
C1678 C1679 1.434 . S
C1679 C1670 1.429 . S
C1679 N1676 1.350 . S
C1679 C1678 1.434 . S
C1680 C1681 1.369 . S
C1680 C1682 1.419 . S
C1680 H1684 0.930 . S
C1681 C1680 1.369 . S
C1681 C1690 1.429 . S
C1682 C1680 1.419 . S
C1682 C1683 1.363 . S
C1682 H1685 0.929 . S
C1683 C1682 1.363 . S
C1683 C1689 1.428 . S
H1684 C1680 0.930 . S
H1685 C1682 0.929 . S
S1686 N1687 1.613 . S
S1686 N1688 1.610 . S
N1687 S1686 1.613 . S
N1687 C1690 1.350 . S
N1688 S1686 1.610 . S
N1688 C1689 1.351 . S
C1689 C1683 1.428 . S
C1689 N1688 1.351 . S
C1689 C1690 1.434 . S
C1690 C1681 1.429 . S
C1690 N1687 1.350 . S
C1690 C1689 1.434 . S
C1691 C1692 1.369 . S
C1691 C1693 1.419 . S
C1691 H1695 0.930 . S
C1692 C1691 1.369 . S
C1692 C1701 1.429 . S
C1693 C1691 1.419 . S
C1693 C1694 1.363 . S
C1693 H1696 0.929 . S
C1694 C1693 1.363 . S
C1694 C1700 1.428 . S
H1695 C1691 0.930 . S
H1696 C1693 0.929 . S
S1697 N1698 1.613 . S
S1697 N1699 1.610 . S
N1698 S1697 1.613 . S
N1698 C1701 1.350 . S
N1699 S1697 1.610 . S
N1699 C1700 1.351 . S
C1700 C1694 1.428 . S
C1700 N1699 1.351 . S
C1700 C1701 1.434 . S
C1701 C1692 1.429 . S
C1701 N1698 1.350 . S
C1701 C1700 1.434 . S
C1702 C1703 1.369 . S
C1702 C1704 1.419 . S
C1702 H1706 0.930 . S
C1703 C1702 1.369 . S
C1703 C1712 1.429 . S
C1704 C1702 1.419 . S
C1704 C1705 1.363 . S
C1704 H1707 0.929 . S
C1705 C1704 1.363 . S
C1705 C1711 1.428 . S
H1706 C1702 0.930 . S
H1707 C1704 0.929 . S
S1708 N1709 1.613 . S
S1708 N1710 1.610 1_545 S
N1709 S1708 1.613 . S
N1709 C1712 1.350 1_545 S
N1710 S1708 1.610 1_565 S
N1710 C1711 1.351 . S
C1711 C1705 1.428 . S
C1711 N1710 1.351 . S
C1711 C1712 1.434 . S
C1712 C1703 1.429 . S
C1712 N1709 1.350 1_565 S
C1712 C1711 1.434 . S
C1713 C1714 1.369 . S
C1713 C1715 1.419 . S
C1713 H1717 0.930 1_554 S
C1714 C1713 1.369 . S
C1714 C1723 1.429 . S
C1715 C1713 1.419 . S
C1715 C1716 1.363 . S
C1715 H1718 0.929 . S
C1716 C1715 1.363 . S
C1716 C1722 1.428 . S
H1717 C1713 0.930 1_556 S
H1718 C1715 0.929 . S
S1719 N1720 1.613 . S
S1719 N1721 1.610 . S
N1720 S1719 1.613 . S
N1720 C1723 1.350 . S
N1721 S1719 1.610 . S
N1721 C1722 1.351 . S
C1722 C1716 1.428 . S
C1722 N1721 1.351 . S
C1722 C1723 1.434 . S
C1723 C1714 1.429 . S
C1723 N1720 1.350 . S
C1723 C1722 1.434 . S
C1724 C1725 1.369 . S
C1724 C1726 1.419 . S
C1724 H1728 0.930 . S
C1725 C1724 1.369 . S
C1725 C1734 1.429 . S
C1726 C1724 1.419 . S
C1726 C1727 1.363 . S
C1726 H1729 0.929 . S
C1727 C1726 1.363 . S
C1727 C1733 1.428 . S
H1728 C1724 0.930 . S
H1729 C1726 0.929 . S
S1730 N1731 1.613 . S
S1730 N1732 1.610 . S
N1731 S1730 1.613 . S
N1731 C1734 1.350 . S
N1732 S1730 1.610 . S
N1732 C1733 1.351 . S
C1733 C1727 1.428 . S
C1733 N1732 1.351 . S
C1733 C1734 1.434 . S
C1734 C1725 1.429 . S
C1734 N1731 1.350 . S
C1734 C1733 1.434 . S
C1735 C1736 1.369 . S
C1735 C1737 1.419 . S
C1735 H1739 0.930 . S
C1736 C1735 1.369 . S
C1736 C1745 1.429 . S
C1737 C1735 1.419 . S
C1737 C1738 1.363 . S
C1737 H1740 0.929 . S
C1738 C1737 1.363 . S
C1738 C1744 1.428 . S
H1739 C1735 0.930 . S
H1740 C1737 0.929 . S
S1741 N1742 1.613 . S
S1741 N1743 1.610 . S
N1742 S1741 1.613 . S
N1742 C1745 1.350 . S
N1743 S1741 1.610 . S
N1743 C1744 1.351 . S
C1744 C1738 1.428 . S
C1744 N1743 1.351 . S
C1744 C1745 1.434 . S
C1745 C1736 1.429 . S
C1745 N1742 1.350 . S
C1745 C1744 1.434 . S
C1746 C1747 1.369 . S
C1746 C1748 1.419 . S
C1746 H1750 0.930 . S
C1747 C1746 1.369 . S
C1747 C1756 1.429 . S
C1748 C1746 1.419 . S
C1748 C1749 1.363 . S
C1748 H1751 0.929 . S
C1749 C1748 1.363 . S
C1749 C1755 1.428 . S
H1750 C1746 0.930 . S
H1751 C1748 0.929 . S
S1752 N1753 1.613 . S
S1752 N1754 1.610 . S
N1753 S1752 1.613 . S
N1753 C1756 1.350 . S
N1754 S1752 1.610 . S
N1754 C1755 1.351 . S
C1755 C1749 1.428 . S
C1755 N1754 1.351 . S
C1755 C1756 1.434 . S
C1756 C1747 1.429 . S
C1756 N1753 1.350 . S
C1756 C1755 1.434 . S
C1757 C1758 1.369 . S
C1757 C1759 1.419 . S
C1757 H1761 0.930 . S
C1758 C1757 1.369 . S
C1758 C1767 1.429 . S
C1759 C1757 1.419 . S
C1759 C1760 1.363 . S
C1759 H1762 0.929 . S
C1760 C1759 1.363 . S
C1760 C1766 1.428 . S
H1761 C1757 0.930 . S
H1762 C1759 0.929 . S
S1763 N1764 1.613 . S
S1763 N1765 1.610 . S
N1764 S1763 1.613 . S
N1764 C1767 1.350 . S
N1765 S1763 1.610 . S
N1765 C1766 1.351 . S
C1766 C1760 1.428 . S
C1766 N1765 1.351 . S
C1766 C1767 1.434 . S
C1767 C1758 1.429 . S
C1767 N1764 1.350 . S
C1767 C1766 1.434 . S
C1768 C1769 1.369 . S
C1768 C1770 1.419 . S
C1768 H1772 0.930 . S
C1769 C1768 1.369 . S
C1769 C1778 1.429 . S
C1770 C1768 1.419 . S
C1770 C1771 1.363 . S
C1770 H1773 0.929 . S
C1771 C1770 1.363 . S
C1771 C1777 1.428 . S
H1772 C1768 0.930 . S
H1773 C1770 0.929 . S
S1774 N1775 1.613 . S
S1774 N1776 1.610 . S
N1775 S1774 1.613 . S
N1775 C1778 1.350 . S
N1776 S1774 1.610 . S
N1776 C1777 1.351 . S
C1777 C1771 1.428 . S
C1777 N1776 1.351 . S
C1777 C1778 1.434 . S
C1778 C1769 1.429 . S
C1778 N1775 1.350 . S
C1778 C1777 1.434 . S
C1779 C1780 1.369 . S
C1779 C1781 1.419 . S
C1779 H1783 0.930 . S
C1780 C1779 1.369 . S
C1780 C1789 1.429 . S
C1781 C1779 1.419 . S
C1781 C1782 1.363 . S
C1781 H1784 0.929 . S
C1782 C1781 1.363 . S
C1782 C1788 1.428 . S
H1783 C1779 0.930 . S
H1784 C1781 0.929 . S
S1785 N1786 1.613 . S
S1785 N1787 1.610 . S
N1786 S1785 1.613 . S
N1786 C1789 1.350 . S
N1787 S1785 1.610 . S
N1787 C1788 1.351 . S
C1788 C1782 1.428 . S
C1788 N1787 1.351 . S
C1788 C1789 1.434 . S
C1789 C1780 1.429 . S
C1789 N1786 1.350 . S
C1789 C1788 1.434 . S
C1790 C1791 1.369 . S
C1790 C1792 1.419 . S
C1790 H1794 0.930 . S
C1791 C1790 1.369 . S
C1791 C1800 1.429 . S
C1792 C1790 1.419 . S
C1792 C1793 1.363 . S
C1792 H1795 0.929 . S
C1793 C1792 1.363 . S
C1793 C1799 1.428 . S
H1794 C1790 0.930 . S
H1795 C1792 0.929 . S
S1796 N1797 1.613 . S
S1796 N1798 1.610 . S
N1797 S1796 1.613 . S
N1797 C1800 1.350 . S
N1798 S1796 1.610 . S
N1798 C1799 1.351 . S
C1799 C1793 1.428 . S
C1799 N1798 1.351 . S
C1799 C1800 1.434 . S
C1800 C1791 1.429 . S
C1800 N1797 1.350 . S
C1800 C1799 1.434 . S
C1801 C1802 1.369 . S
C1801 C1803 1.419 . S
C1801 H1805 0.930 . S
C1802 C1801 1.369 . S
C1802 C1811 1.429 . S
C1803 C1801 1.419 . S
C1803 C1804 1.363 . S
C1803 H1806 0.929 . S
C1804 C1803 1.363 . S
C1804 C1810 1.428 . S
H1805 C1801 0.930 . S
H1806 C1803 0.929 . S
S1807 N1808 1.613 . S
S1807 N1809 1.610 . S
N1808 S1807 1.613 . S
N1808 C1811 1.350 . S
N1809 S1807 1.610 . S
N1809 C1810 1.351 . S
C1810 C1804 1.428 . S
C1810 N1809 1.351 . S
C1810 C1811 1.434 . S
C1811 C1802 1.429 . S
C1811 N1808 1.350 . S
C1811 C1810 1.434 . S
C1812 C1813 1.369 . S
C1812 C1814 1.419 . S
C1812 H1816 0.930 . S
C1813 C1812 1.369 . S
C1813 C1822 1.429 . S
C1814 C1812 1.419 . S
C1814 C1815 1.363 1_556 S
C1814 H1817 0.929 . S
C1815 C1814 1.363 1_554 S
C1815 C1821 1.428 . S
H1816 C1812 0.930 . S
H1817 C1814 0.929 . S
S1818 N1819 1.613 . S
S1818 N1820 1.610 . S
N1819 S1818 1.613 . S
N1819 C1822 1.350 1_554 S
N1820 S1818 1.610 . S
N1820 C1821 1.351 . S
C1821 C1815 1.428 . S
C1821 N1820 1.351 . S
C1821 C1822 1.434 1_554 S
C1822 C1813 1.429 . S
C1822 N1819 1.350 1_556 S
C1822 C1821 1.434 1_556 S
C1823 C1824 1.369 . S
C1823 C1825 1.419 . S
C1823 H1827 0.930 . S
C1824 C1823 1.369 . S
C1824 C1833 1.429 . S
C1825 C1823 1.419 . S
C1825 C1826 1.363 . S
C1825 H1828 0.929 . S
C1826 C1825 1.363 . S
C1826 C1832 1.428 . S
H1827 C1823 0.930 . S
H1828 C1825 0.929 . S
S1829 N1830 1.613 . S
S1829 N1831 1.610 . S
N1830 S1829 1.613 . S
N1830 C1833 1.350 . S
N1831 S1829 1.610 . S
N1831 C1832 1.351 . S
C1832 C1826 1.428 . S
C1832 N1831 1.351 . S
C1832 C1833 1.434 . S
C1833 C1824 1.429 . S
C1833 N1830 1.350 . S
C1833 C1832 1.434 . S
C1834 C1835 1.369 . S
C1834 C1836 1.419 . S
C1834 H1838 0.930 1_455 S
C1835 C1834 1.369 . S
C1835 C1844 1.429 . S
C1836 C1834 1.419 . S
C1836 C1837 1.363 . S
C1836 H1839 0.929 . S
C1837 C1836 1.363 . S
C1837 C1843 1.428 . S
H1838 C1834 0.930 1_655 S
H1839 C1836 0.929 . S
S1840 N1841 1.613 . S
S1840 N1842 1.610 . S
N1841 S1840 1.613 . S
N1841 C1844 1.350 . S
N1842 S1840 1.610 . S
N1842 C1843 1.351 . S
C1843 C1837 1.428 . S
C1843 N1842 1.351 . S
C1843 C1844 1.434 . S
C1844 C1835 1.429 . S
C1844 N1841 1.350 . S
C1844 C1843 1.434 . S
C1845 C1846 1.369 . S
C1845 C1847 1.419 . S
C1845 H1849 0.930 . S
C1846 C1845 1.369 . S
C1846 C1855 1.429 . S
C1847 C1845 1.419 . S
C1847 C1848 1.363 . S
C1847 H1850 0.929 . S
C1848 C1847 1.363 . S
C1848 C1854 1.428 . S
H1849 C1845 0.930 . S
H1850 C1847 0.929 . S
S1851 N1852 1.613 . S
S1851 N1853 1.610 . S
N1852 S1851 1.613 . S
N1852 C1855 1.350 . S
N1853 S1851 1.610 . S
N1853 C1854 1.351 . S
C1854 C1848 1.428 . S
C1854 N1853 1.351 . S
C1854 C1855 1.434 . S
C1855 C1846 1.429 . S
C1855 N1852 1.350 . S
C1855 C1854 1.434 . S
C1856 C1857 1.369 . S
C1856 C1858 1.419 . S
C1856 H1860 0.930 . S
C1857 C1856 1.369 . S
C1857 C1866 1.429 . S
C1858 C1856 1.419 . S
C1858 C1859 1.363 . S
C1858 H1861 0.929 . S
C1859 C1858 1.363 . S
C1859 C1865 1.428 . S
H1860 C1856 0.930 . S
H1861 C1858 0.929 . S
S1862 N1863 1.613 . S
S1862 N1864 1.610 . S
N1863 S1862 1.613 . S
N1863 C1866 1.350 . S
N1864 S1862 1.610 . S
N1864 C1865 1.351 . S
C1865 C1859 1.428 . S
C1865 N1864 1.351 . S
C1865 C1866 1.434 . S
C1866 C1857 1.429 . S
C1866 N1863 1.350 . S
C1866 C1865 1.434 . S
C1867 C1868 1.369 . S
C1867 C1869 1.419 . S
C1867 H1871 0.930 . S
C1868 C1867 1.369 . S
C1868 C1877 1.429 . S
C1869 C1867 1.419 . S
C1869 C1870 1.363 . S
C1869 H1872 0.929 . S
C1870 C1869 1.363 . S
C1870 C1876 1.428 . S
H1871 C1867 0.930 . S
H1872 C1869 0.929 . S
S1873 N1874 1.613 . S
S1873 N1875 1.610 . S
N1874 S1873 1.613 . S
N1874 C1877 1.350 . S
N1875 S1873 1.610 . S
N1875 C1876 1.351 . S
C1876 C1870 1.428 . S
C1876 N1875 1.351 . S
C1876 C1877 1.434 . S
C1877 C1868 1.429 . S
C1877 N1874 1.350 . S
C1877 C1876 1.434 . S
C1878 C1879 1.369 . S
C1878 C1880 1.419 1_656 S
C1878 H1882 0.930 . S
C1879 C1878 1.369 . S
C1879 C1888 1.429 . S
C1880 C1878 1.419 1_454 S
C1880 C1881 1.363 . S
C1880 H1883 0.929 . S
C1881 C1880 1.363 . S
C1881 C1887 1.428 1_454 S
H1882 C1878 0.930 . S
H1883 C1880 0.929 . S
S1884 N1885 1.613 . S
S1884 N1886 1.610 . S
N1885 S1884 1.613 . S
N1885 C1888 1.350 . S
N1886 S1884 1.610 . S
N1886 C1887 1.351 . S
C1887 C1881 1.428 1_656 S
C1887 N1886 1.351 . S
C1887 C1888 1.434 . S
C1888 C1879 1.429 . S
C1888 N1885 1.350 . S
C1888 C1887 1.434 . S
C1889 C1890 1.369 . S
C1889 C1891 1.419 . S
C1889 H1893 0.930 . S
C1890 C1889 1.369 . S
C1890 C1899 1.429 . S
C1891 C1889 1.419 . S
C1891 C1892 1.363 . S
C1891 H1894 0.929 . S
C1892 C1891 1.363 . S
C1892 C1898 1.428 . S
H1893 C1889 0.930 . S
H1894 C1891 0.929 . S
S1895 N1896 1.613 . S
S1895 N1897 1.610 . S
N1896 S1895 1.613 . S
N1896 C1899 1.350 . S
N1897 S1895 1.610 . S
N1897 C1898 1.351 . S
C1898 C1892 1.428 . S
C1898 N1897 1.351 . S
C1898 C1899 1.434 . S
C1899 C1890 1.429 . S
C1899 N1896 1.350 . S
C1899 C1898 1.434 . S
C1900 C1901 1.369 . S
C1900 C1902 1.419 . S
C1900 H1904 0.930 . S
C1901 C1900 1.369 . S
C1901 C1910 1.429 . S
C1902 C1900 1.419 . S
C1902 C1903 1.363 . S
C1902 H1905 0.929 . S
C1903 C1902 1.363 . S
C1903 C1909 1.428 . S
H1904 C1900 0.930 . S
H1905 C1902 0.929 . S
S1906 N1907 1.613 . S
S1906 N1908 1.610 . S
N1907 S1906 1.613 . S
N1907 C1910 1.350 . S
N1908 S1906 1.610 . S
N1908 C1909 1.351 . S
C1909 C1903 1.428 . S
C1909 N1908 1.351 . S
C1909 C1910 1.434 . S
C1910 C1901 1.429 . S
C1910 N1907 1.350 . S
C1910 C1909 1.434 . S
C1911 C1912 1.369 . S
C1911 C1913 1.419 . S
C1911 H1915 0.930 . S
C1912 C1911 1.369 . S
C1912 C1921 1.429 . S
C1913 C1911 1.419 . S
C1913 C1914 1.363 . S
C1913 H1916 0.929 . S
C1914 C1913 1.363 . S
C1914 C1920 1.428 . S
H1915 C1911 0.930 . S
H1916 C1913 0.929 . S
S1917 N1918 1.613 . S
S1917 N1919 1.610 . S
N1918 S1917 1.613 . S
N1918 C1921 1.350 . S
N1919 S1917 1.610 . S
N1919 C1920 1.351 . S
C1920 C1914 1.428 . S
C1920 N1919 1.351 . S
C1920 C1921 1.434 . S
C1921 C1912 1.429 . S
C1921 N1918 1.350 . S
C1921 C1920 1.434 . S
C1922 C1923 1.369 . S
C1922 C1924 1.419 . S
C1922 H1926 0.930 . S
C1923 C1922 1.369 . S
C1923 C1932 1.429 . S
C1924 C1922 1.419 . S
C1924 C1925 1.363 . S
C1924 H1927 0.929 . S
C1925 C1924 1.363 . S
C1925 C1931 1.428 . S
H1926 C1922 0.930 . S
H1927 C1924 0.929 . S
S1928 N1929 1.613 . S
S1928 N1930 1.605 1_655 S
N1929 S1928 1.613 . S
N1929 C1932 1.350 . S
N1930 S1928 1.605 1_455 S
N1930 C1931 1.347 1_455 S
C1931 C1925 1.428 . S
C1931 N1930 1.347 1_655 S
C1931 C1932 1.434 . S
C1932 C1923 1.429 . S
C1932 N1929 1.350 . S
C1932 C1931 1.434 . S
C1933 C1934 1.369 . S
C1933 C1935 1.419 . S
C1933 H1937 0.930 . S
C1934 C1933 1.369 . S
C1934 C1943 1.429 . S
C1935 C1933 1.419 . S
C1935 C1936 1.363 . S
C1935 H1938 0.929 . S
C1936 C1935 1.363 . S
C1936 C1942 1.428 . S
H1937 C1933 0.930 . S
H1938 C1935 0.929 . S
S1939 N1940 1.613 . S
S1939 N1941 1.610 . S
N1940 S1939 1.613 . S
N1940 C1943 1.350 . S
N1941 S1939 1.610 . S
N1941 C1942 1.351 . S
C1942 C1936 1.428 . S
C1942 N1941 1.351 . S
C1942 C1943 1.434 . S
C1943 C1934 1.429 . S
C1943 N1940 1.350 . S
C1943 C1942 1.434 . S
C1944 C1945 1.369 . S
C1944 C1946 1.419 . S
C1944 H1948 0.930 . S
C1945 C1944 1.369 . S
C1945 C1954 1.429 . S
C1946 C1944 1.419 . S
C1946 C1947 1.363 . S
C1946 H1949 0.929 . S
C1947 C1946 1.363 . S
C1947 C1953 1.428 . S
H1948 C1944 0.930 . S
H1949 C1946 0.929 . S
S1950 N1951 1.613 . S
S1950 N1952 1.610 . S
N1951 S1950 1.613 . S
N1951 C1954 1.350 . S
N1952 S1950 1.610 . S
N1952 C1953 1.351 . S
C1953 C1947 1.428 . S
C1953 N1952 1.351 . S
C1953 C1954 1.434 . S
C1954 C1945 1.429 . S
C1954 N1951 1.350 . S
C1954 C1953 1.434 . S
C1955 C1956 1.369 . S
C1955 C1957 1.419 . S
C1955 H1959 0.930 . S
C1956 C1955 1.369 . S
C1956 C1965 1.429 . S
C1957 C1955 1.419 . S
C1957 C1958 1.363 . S
C1957 H1960 0.929 . S
C1958 C1957 1.363 . S
C1958 C1964 1.428 . S
H1959 C1955 0.930 . S
H1960 C1957 0.929 . S
S1961 N1962 1.630 . S
S1961 N1963 1.613 1_565 S
N1962 S1961 1.630 . S
N1962 C1965 1.350 . S
N1963 S1961 1.613 1_545 S
N1963 C1964 1.351 1_545 S
C1964 C1958 1.428 . S
C1964 N1963 1.351 1_565 S
C1964 C1965 1.434 . S
C1965 C1956 1.429 . S
C1965 N1962 1.350 . S
C1965 C1964 1.434 . S
C1966 C1967 1.369 . S
C1966 C1968 1.419 . S
C1966 H1970 0.930 . S
C1967 C1966 1.369 . S
C1967 C1976 1.429 . S
C1968 C1966 1.419 . S
C1968 C1969 1.363 . S
C1968 H1971 0.929 . S
C1969 C1968 1.363 . S
C1969 C1975 1.428 . S
H1970 C1966 0.930 . S
H1971 C1968 0.929 . S
S1972 N1973 1.613 . S
S1972 N1974 1.610 . S
N1973 S1972 1.613 . S
N1973 C1976 1.350 . S
N1974 S1972 1.610 . S
N1974 C1975 1.351 . S
C1975 C1969 1.428 . S
C1975 N1974 1.351 . S
C1975 C1976 1.434 . S
C1976 C1967 1.429 . S
C1976 N1973 1.350 . S
C1976 C1975 1.434 . S
C1977 C1978 1.369 . S
C1977 C1979 1.419 . S
C1977 H1981 0.930 . S
C1978 C1977 1.369 . S
C1978 C1987 1.429 . S
C1979 C1977 1.419 . S
C1979 C1980 1.363 . S
C1979 H1982 0.929 . S
C1980 C1979 1.363 . S
C1980 C1986 1.428 . S
H1981 C1977 0.930 . S
H1982 C1979 0.929 . S
S1983 N1984 1.613 . S
S1983 N1985 1.610 . S
N1984 S1983 1.613 . S
N1984 C1987 1.350 . S
N1985 S1983 1.610 . S
N1985 C1986 1.351 . S
C1986 C1980 1.428 . S
C1986 N1985 1.351 . S
C1986 C1987 1.434 . S
C1987 C1978 1.429 . S
C1987 N1984 1.350 . S
C1987 C1986 1.434 . S
C1988 C1989 1.369 . S
C1988 C1990 1.419 . S
C1988 H1992 0.930 . S
C1989 C1988 1.369 . S
C1989 C1998 1.429 . S
C1990 C1988 1.419 . S
C1990 C1991 1.363 . S
C1990 H1993 0.929 . S
C1991 C1990 1.363 . S
C1991 C1997 1.428 . S
H1992 C1988 0.930 . S
H1993 C1990 0.929 . S
S1994 N1995 1.613 . S
S1994 N1996 1.610 . S
N1995 S1994 1.613 . S
N1995 C1998 1.350 . S
N1996 S1994 1.610 . S
N1996 C1997 1.351 . S
C1997 C1991 1.428 . S
C1997 N1996 1.351 . S
C1997 C1998 1.434 . S
C1998 C1989 1.429 . S
C1998 N1995 1.350 . S
C1998 C1997 1.434 . S
C1999 C2000 1.369 . S
C1999 C2001 1.419 . S
C1999 H2003 0.930 . S
C2000 C1999 1.369 . S
C2000 C2009 1.429 . S
C2001 C1999 1.419 . S
C2001 C2002 1.363 . S
C2001 H2004 0.929 . S
C2002 C2001 1.363 . S
C2002 C2008 1.428 . S
H2003 C1999 0.930 . S
H2004 C2001 0.929 . S
S2005 N2006 1.613 . S
S2005 N2007 1.610 . S
N2006 S2005 1.613 . S
N2006 C2009 1.350 . S
N2007 S2005 1.610 . S
N2007 C2008 1.351 . S
C2008 C2002 1.428 . S
C2008 N2007 1.351 . S
C2008 C2009 1.434 . S
C2009 C2000 1.429 . S
C2009 N2006 1.350 . S
C2009 C2008 1.434 . S
C2010 C2011 1.369 . S
C2010 C2012 1.419 . S
C2010 H2014 0.930 . S
C2011 C2010 1.369 . S
C2011 C2020 1.429 . S
C2012 C2010 1.419 . S
C2012 C2013 1.363 . S
C2012 H2015 0.929 . S
C2013 C2012 1.363 . S
C2013 C2019 1.428 . S
H2014 C2010 0.930 . S
H2015 C2012 0.929 . S
S2016 N2017 1.613 . S
S2016 N2018 1.610 . S
N2017 S2016 1.613 . S
N2017 C2020 1.350 . S
N2018 S2016 1.610 . S
N2018 C2019 1.351 . S
C2019 C2013 1.428 . S
C2019 N2018 1.351 . S
C2019 C2020 1.434 . S
C2020 C2011 1.429 . S
C2020 N2017 1.350 . S
C2020 C2019 1.434 . S
C2021 C2022 1.369 . S
C2021 C2023 1.419 . S
C2021 H2025 0.930 . S
C2022 C2021 1.369 . S
C2022 C2031 1.429 . S
C2023 C2021 1.419 . S
C2023 C2024 1.363 . S
C2023 H2026 0.929 . S
C2024 C2023 1.363 . S
C2024 C2030 1.428 . S
H2025 C2021 0.930 . S
H2026 C2023 0.929 . S
S2027 N2028 1.613 . S
S2027 N2029 1.610 . S
N2028 S2027 1.613 . S
N2028 C2031 1.350 . S
N2029 S2027 1.610 . S
N2029 C2030 1.351 . S
C2030 C2024 1.428 . S
C2030 N2029 1.351 . S
C2030 C2031 1.434 . S
C2031 C2022 1.429 . S
C2031 N2028 1.350 . S
C2031 C2030 1.434 . S
C977 C106 2.776 1_554 S
C979 C346 2.669 . S
C988 C65 2.032 . S
C990 C394 2.014 . S
C999 C79 1.772 . S
C1001 C426 1.751 . S
C1012 C471 1.519 . S
C1010 C90 1.563 . S
C1021 C21 0.788 . S
C1023 C511 0.792 . S
C1034 C546 1.227 . S
C1032 C35 1.232 . S
C1045 C585 1.441 . S
C1043 C50 1.440 . S
C1054 C6 1.330 . S
C1056 C622 1.374 . S
C1067 C354 2.542 . S
C1065 C232 2.470 1_545 S
C1076 C245 0.757 . S
C1078 C391 0.778 . S
C1089 C434 2.406 . S
C1087 C274 2.422 . S
C1100 C466 1.175 . S
C1098 C175 1.161 1_556 S
C1109 C231 1.312 . S
C1111 C506 1.296 . S
C1122 C554 0.739 . S
C1120 C246 0.759 . S
C1133 C595 2.078 . S
C1131 C273 2.035 . S
C1144 C625 2.328 . S
C1142 C176 2.279 . S
C1155 C351 2.180 . S
C1153 C160 2.038 . S
C1164 C289 2.131 . S
C1166 C674 2.120 . S
C1177 C711 1.365 . S
C1175 C328 1.311 . S
C1188 C742 1.372 . S
C1186 C317 1.510 . S
C1197 C118 2.637 . S
C1199 C635 2.693 . S
C1208 C132 1.461 . S
C1210 C431 1.455 . S
C1219 C331 1.832 . S
C1221 C794 1.840 . S
C1232 C826 2.017 . S
C1230 C303 1.985 . S
C1243 C355 2.229 . S
C1241 C63 2.293 . S
C1254 C825 2.472 . S
C1252 C107 2.414 . S
C1263 C92 1.571 . S
C1265 C435 1.593 . S
C1274 C78 1.834 . S
C1276 C782 1.775 . S
C1287 C502 1.198 . S
C1285 C8 1.167 . S
C1296 C51 1.221 . S
C1298 C715 1.301 . S
C1309 C594 1.660 . S
C1307 C37 1.664 . S
C1320 C871 1.392 . S
C1318 C20 1.374 1_655 S
C1331 C345 2.205 . S
C1329 C147 2.125 . S
C1342 C822 0.907 . S
C1340 C316 0.951 . S
C1351 C119 2.249 . S
C1353 C425 2.335 . S
C1362 C288 1.274 . S
C1364 C795 1.281 . S
C1373 C148 1.561 . S
C1375 C515 1.566 . S
C1386 C705 0.639 . S
C1384 C315 0.720 . S
C1395 C120 2.491 . S
C1397 C586 2.356 . S
C1406 C287 1.989 1_556 S
C1408 C874 2.024 . S
C1417 C188 1.951 . S
C1419 C342 1.979 . S
C1428 C177 2.449 . S
C1430 C665 2.476 . S
C1439 C258 1.239 . S
C1441 C542 1.301 . S
C1450 C247 1.275 . S
C1452 C751 1.192 . S
C1463 C866 2.607 . S
C1461 C272 2.608 . S
C1472 C216 1.439 . S
C1474 C422 1.415 . S
C1485 C465 2.086 . S
C1483 C261 1.998 . S
C1496 C395 2.180 . S
C1494 C205 2.185 . S
C1505 C76 2.360 . S
C1507 C906 2.313 . S
C1518 C834 2.077 . S
C1516 C93 2.092 . S
C1527 C105 1.415 . S
C1529 C946 1.410 . S
C1538 C62 1.562 1_655 S
C1540 C791 1.519 . S
C1549 C49 0.777 . S
C1551 C671 0.780 . S
C1562 C706 1.515 . S
C1560 C9 1.514 . S
C1573 C745 1.375 . S
C1571 C22 1.369 . S
C1584 C862 1.653 . S
C1582 C36 1.649 . S
C1595 C914 2.480 . S
C1593 C260 2.422 . S
C1604 C189 0.730 . S
C1606 C831 0.709 . S
C1617 C954 2.352 . S
C1615 C204 2.364 . S
C1628 C786 1.024 . S
C1626 C217 1.020 . S
C1639 C666 1.414 . S
C1637 C259 1.421 . S
C1648 C190 0.743 . S
C1650 C714 0.711 . S
C1661 C755 2.255 . S
C1659 C203 2.207 . S
C1670 C218 2.347 . S
C1672 C865 2.406 . S
C1683 C911 2.200 . S
C1681 C314 2.060 . S
C1692 C135 2.188 . S
C1694 C514 2.165 . S
C1705 C551 1.379 . S
C1703 C146 1.317 1_565 S
C1716 C582 1.289 . S
C1714 C163 1.394 . S
C1727 C875 2.731 . S
C1725 C300 2.687 . S
C1736 C286 1.431 . S
C1738 C951 1.427 . S
C1749 C474 1.827 . S
C1747 C149 1.802 . S
C1760 C386 1.974 . S
C1758 C121 1.953 . S
C1769 C91 2.265 . S
C1771 C915 2.221 . S
C1782 C385 2.043 . S
C1780 C77 1.946 . S
C1791 C64 1.553 . S
C1793 C955 1.587 . S
C1802 C104 1.657 . S
C1804 C462 1.591 . S
C1813 C34 0.887 . S
C1815 C662 0.911 . S
C1826 C555 1.308 . S
C1824 C23 1.214 . S
C1835 C7 1.178 . S
C1837 C754 1.314 . S
C1846 C48 1.367 . S
C1848 C631 1.390 . S
C1859 C905 2.138 . S
C1857 C329 2.068 . S
C1868 C162 0.901 . S
C1870 C382 0.900 . S
C1881 C945 2.314 . S
C1879 C301 2.236 . S
C1890 C134 1.286 . S
C1892 C475 1.301 . S
C1901 C330 1.569 . S
C1903 C675 1.574 . S
C1914 C545 0.641 . S
C1912 C161 0.706 . S
C1923 C302 2.431 . S
C1925 C746 2.311 1_655 S
C1936 C634 1.980 . S
C1934 C133 1.955 . S
C1947 C902 2.046 . S
C1945 C244 2.007 . S
C1958 C505 2.471 1_665 S
C1956 C219 2.424 . S
C1967 C230 1.138 . S
C1969 C702 1.182 . S
C1980 C591 1.312 . S
C1978 C191 1.420 . S
C1989 C202 2.808 . S
C1991 C626 2.820 . S
C2000 C174 1.544 . S
C2002 C942 1.526 . S
C2013 C785 2.116 . S
C2011 C233 2.014 . S
C2024 C835 2.124 . S
C2022 C275 2.148 . S
