# Generated by pormake.
# Topology zzz, (3,6)-cn, num edge types: 1
# Building blocks:
#     Node 0, Type 0, BuildingBlock: OLANEW_clean_sbu_2, # of connection points: 3
#     Node 1, Type 0, BuildingBlock: OLANEW_clean_sbu_2, # of connection points: 3
#     Node 2, Type 0, BuildingBlock: OLANEW_clean_sbu_2, # of connection points: 3
#     Node 3, Type 0, BuildingBlock: OLANEW_clean_sbu_2, # of connection points: 3
#     Node 4, Type 0, BuildingBlock: OLANEW_clean_sbu_2, # of connection points: 3
#     Node 5, Type 0, BuildingBlock: OLANEW_clean_sbu_2, # of connection points: 3
#     Node 6, Type 0, BuildingBlock: OLANEW_clean_sbu_2, # of connection points: 3
#     Node 7, Type 0, BuildingBlock: OLANEW_clean_sbu_2, # of connection points: 3
#     Node 8, Type 1, BuildingBlock: BETGAK_clean_sbu_0, # of connection points: 6
#     Node 9, Type 1, BuildingBlock: BETGAK_clean_sbu_0, # of connection points: 6
#     Node 10, Type 1, BuildingBlock: BETGAK_clean_sbu_0, # of connection points: 6
#     Node 11, Type 1, BuildingBlock: BETGAK_clean_sbu_0, # of connection points: 6
#     Edge 12, Type (0, 1), BuildingBlock: TEMPAE_clean_linker_10, # of connection points: 2
#     Edge 13, Type (0, 1), BuildingBlock: TEMPAE_clean_linker_10, # of connection points: 2
#     Edge 14, Type (0, 1), BuildingBlock: TEMPAE_clean_linker_10, # of connection points: 2
#     Edge 15, Type (0, 1), BuildingBlock: TEMPAE_clean_linker_10, # of connection points: 2
#     Edge 16, Type (0, 1), BuildingBlock: TEMPAE_clean_linker_10, # of connection points: 2
#     Edge 17, Type (0, 1), BuildingBlock: TEMPAE_clean_linker_10, # of connection points: 2
#     Edge 18, Type (0, 1), BuildingBlock: TEMPAE_clean_linker_10, # of connection points: 2
#     Edge 19, Type (0, 1), BuildingBlock: TEMPAE_clean_linker_10, # of connection points: 2
#     Edge 20, Type (0, 1), BuildingBlock: TEMPAE_clean_linker_10, # of connection points: 2
#     Edge 21, Type (0, 1), BuildingBlock: TEMPAE_clean_linker_10, # of connection points: 2
#     Edge 22, Type (0, 1), BuildingBlock: TEMPAE_clean_linker_10, # of connection points: 2
#     Edge 23, Type (0, 1), BuildingBlock: TEMPAE_clean_linker_10, # of connection points: 2
#     Edge 24, Type (0, 1), BuildingBlock: TEMPAE_clean_linker_10, # of connection points: 2
#     Edge 25, Type (0, 1), BuildingBlock: TEMPAE_clean_linker_10, # of connection points: 2
#     Edge 26, Type (0, 1), BuildingBlock: TEMPAE_clean_linker_10, # of connection points: 2
#     Edge 27, Type (0, 1), BuildingBlock: TEMPAE_clean_linker_10, # of connection points: 2
#     Edge 28, Type (0, 1), BuildingBlock: TEMPAE_clean_linker_10, # of connection points: 2
#     Edge 29, Type (0, 1), BuildingBlock: TEMPAE_clean_linker_10, # of connection points: 2
#     Edge 30, Type (0, 1), BuildingBlock: TEMPAE_clean_linker_10, # of connection points: 2
#     Edge 31, Type (0, 1), BuildingBlock: TEMPAE_clean_linker_10, # of connection points: 2
#     Edge 32, Type (0, 1), BuildingBlock: TEMPAE_clean_linker_10, # of connection points: 2
#     Edge 33, Type (0, 1), BuildingBlock: TEMPAE_clean_linker_10, # of connection points: 2
#     Edge 34, Type (0, 1), BuildingBlock: TEMPAE_clean_linker_10, # of connection points: 2
#     Edge 35, Type (0, 1), BuildingBlock: TEMPAE_clean_linker_10, # of connection points: 2
# Relax obj value: 0.254
# Max RMSD: 0.193
# Mean RMSD: 0.172
data_MOF--net-zzz--node1-OLANEW_clean_sbu_2--node2-BETGAK_clean_sbu_0--edge1-TEMPAE_clean_linker_10
_symmetry_space_group_name_H-M    P1
_symmetry_Int_Tables_number       1
_symmetry_cell_setting            triclinic
loop_
_symmetry_equiv_pos_as_xyz
'x, y, z'
_cell_length_a     56.729707
_cell_length_b     56.710467
_cell_length_c     15.357213
_cell_angle_alpha  90.270656
_cell_angle_beta   90.357928
_cell_angle_gamma 89.994902
loop_
_atom_site_label
_atom_site_type_symbol
_atom_site_fract_x
_atom_site_fract_y
_atom_site_fract_z
_atom_type_partial_charge
O0 O 0.7318 0.4948 0.3327 0.0
Cd1 Cd 0.69127 0.49319 0.38569 0.0
O2 O 0.74076 0.52256 0.42669 0.0
Cd3 Cd 0.76214 0.54854 0.49783 0.0
O4 O 0.77293 0.58358 0.56117 0.0
C5 C 0.79283 0.59152 0.58885 0.0
O6 O 0.77243 0.58397 0.56138 0.0
C7 C 0.74694 0.50898 0.36465 0.0
C8 C 0.65836 0.49666 0.25027 0.0
O9 O 0.66508 0.51501 0.29269 0.0
O10 O 0.66721 0.47671 0.27191 0.0
O11 O 0.02104 0.73941 0.27407 0.0
Cd12 Cd 0.02699 0.69955 0.3317 0.0
O13 O 0.00547 0.74991 0.3981 0.0
Cd14 Cd 0.9868 0.76976 0.50002 0.0
O15 O 0.96175 0.76868 0.61638 0.0
C16 C 0.95273 0.78515 0.66308 0.0
O17 O 0.96156 0.76801 0.61702 0.0
C18 C 0.01173 0.75534 0.32122 0.0
C19 C 0.01946 0.66365 0.20903 0.0
O20 O 1.00275 0.67077 0.25843 0.0
O21 O 0.03962 0.67366 0.21711 0.0
O22 O 0.77278 0.94307 0.26556 0.0
Cd23 Cd 0.81117 0.93976 0.33709 0.0
O24 O 0.77442 0.97917 0.31634 0.0
Cd25 Cd 0.75579 0.01109 0.35459 0.0
O26 O 0.72144 0.01508 0.41423 0.0
C27 C 0.71385 0.99587 0.44586 0.0
O28 O 0.72737 0.97708 0.44212 0.0
C29 C 0.76342 0.9633 0.27365 0.0
C30 C 0.84578 0.95569 0.22476 0.0
O31 O 0.84232 0.93355 0.23523 0.0
O32 O 0.83324 0.97023 0.26862 0.0
O33 O 0.57393 0.78105 0.22097 0.0
Cd34 Cd 0.5829 0.81879 0.29069 0.0
O35 O 0.54274 0.78318 0.30346 0.0
Cd36 Cd 0.51426 0.76562 0.37128 0.0
O37 O 0.51166 0.73318 0.44427 0.0
C38 C 0.49512 0.71827 0.43604 0.0
O39 O 0.47721 0.72297 0.38432 0.0
C40 C 0.55478 0.77203 0.24709 0.0
C41 C 0.56267 0.85502 0.19514 0.0
O42 O 0.58462 0.85013 0.18772 0.0
O43 O 0.55037 0.84306 0.24889 0.0
O44 O 0.26333 0.57308 0.17052 0.0
Cd45 Cd 0.30349 0.57685 0.11679 0.0
O46 O 0.26101 0.53979 0.09767 0.0
Cd47 Cd 0.24123 0.50831 0.06077 0.0
O48 O 0.20855 0.49005 0.03041 0.0
C49 C 0.20538 0.4777 0.96215 0.0
O50 O 0.22314 0.47419 0.90912 0.0
C51 C 0.25147 0.55519 0.14654 0.0
C52 C 0.33584 0.56009 0.23854 0.0
O53 O 0.32946 0.58177 0.23829 0.0
O54 O 0.32697 0.54631 0.1806 0.0
O55 O 0.0384 0.26319 0.12742 0.0
Cd56 Cd 0.04143 0.30369 0.07364 0.0
O57 O 0.02031 0.25687 0.0042 0.0
Cd58 Cd 1.00141 0.24174 0.89254 0.0
O59 O 0.98103 0.24423 0.76382 0.0
C60 C 0.97332 0.22782 0.71339 0.0
O61 O 0.98087 0.24495 0.76295 0.0
C62 C 0.02771 0.24892 0.0768 0.0
C63 C 0.02876 0.3378 0.19628 0.0
O64 O 0.01306 0.327 0.15091 0.0
O65 O 0.05043 0.33235 0.1842 0.0
O66 O 0.22478 0.94271 0.17831 0.0
Cd67 Cd 0.18514 0.93875 0.1188 0.0
O68 O 0.22611 0.97343 0.09308 0.0
Cd69 Cd 0.24581 1.00016 0.02356 0.0
O70 O 0.27984 0.00708 0.96643 0.0
C71 C 0.29069 0.02663 0.96937 0.0
O72 O 0.28062 0.04499 0.00604 0.0
C73 C 0.23608 0.96027 0.14922 0.0
C74 C 0.15328 0.95794 0.2357 0.0
O75 O 0.15713 0.93567 0.2332 0.0
O76 O 0.16424 0.97111 0.18182 0.0
O77 O 0.58417 0.23789 0.20307 0.0
Cd78 Cd 0.59335 0.19883 0.14623 0.0
O79 O 0.55823 0.24001 0.09738 0.0
Cd80 Cd 0.53047 0.25757 0.02386 0.0
O81 O 0.51673 0.2884 0.95794 0.0
C82 C 0.49679 0.29755 0.97385 0.0
O83 O 0.48264 0.28726 0.02942 0.0
C84 C 0.56832 0.24943 0.16308 0.0
C85 C 0.57143 0.16499 0.24788 0.0
O86 O 0.59255 0.17179 0.26436 0.0
O87 O 0.56077 0.17399 0.18215 0.0
La88 La 0.00514 1.00268 0.80275 0.0
La89 La 0.98553 0.00987 0.61964 0.0
C90 C 0.01008 0.98851 0.95708 0.0
C91 C 0.01039 0.96499 0.99777 0.0
C92 C 0.02594 0.94728 0.96946 0.0
C93 C 0.02509 0.92478 0.00596 0.0
C94 C 0.00854 0.91947 0.07074 0.0
C95 C 0.99297 0.93717 0.09879 0.0
C96 C 0.99397 0.95975 0.06289 0.0
C97 C 0.03704 0.00944 0.68217 0.0
C98 C 0.99142 0.95817 0.68078 0.0
C99 C 0.97712 0.02477 0.46814 0.0
C100 C 0.9831 0.04675 0.42217 0.0
C101 C 0.98437 0.0683 0.46743 0.0
C102 C 0.98962 0.08913 0.42365 0.0
C103 C 0.9935 0.089 0.33325 0.0
C104 C 0.99251 0.06732 0.28815 0.0
C105 C 0.98739 0.04639 0.33235 0.0
C106 C 0.95427 1.003 0.74207 0.0
C107 C 1.00076 0.0536 0.73893 0.0
O108 O 0.02778 0.99402 0.90673 0.0
O109 O 0.98988 0.99473 0.92308 0.0
O110 O 0.03988 0.01528 0.76336 0.0
O111 O 0.01807 0.99807 0.67344 0.0
O112 O 0.99608 0.96684 0.75941 0.0
O113 O 0.98874 0.97183 0.61171 0.0
O114 O 0.96254 0.02699 0.53338 0.0
O115 O 0.99469 0.0107 0.48689 0.0
O116 O 0.95186 0.99533 0.66295 0.0
O117 O 0.97291 0.01485 0.74844 0.0
O118 O 0.99975 0.04437 0.65958 0.0
O119 O 0.99964 0.04038 0.80934 0.0
H120 H 0.03855 0.95067 0.91838 0.0
H121 H 0.03709 0.91138 0.98231 0.0
H122 H 0.98014 0.93361 0.149 0.0
H123 H 0.98171 0.97309 0.08529 0.0
H124 H 0.98106 0.06916 0.53665 0.0
H125 H 0.99066 0.10537 0.46088 0.0
H126 H 0.99522 0.06659 0.21845 0.0
H127 H 0.98651 0.02995 0.29621 0.0
La128 La 0.51202 0.01591 0.79017 0.0
La129 La 0.49246 0.99635 0.61944 0.0
C130 C 0.53396 0.02212 0.93189 0.0
C131 C 0.55681 0.01457 0.9681 0.0
C132 C 0.56846 0.0291 0.02851 0.0
C133 C 0.59047 0.02262 0.06206 0.0
C134 C 0.60131 1.00143 0.03577 0.0
C135 C 0.58953 0.98693 0.97482 0.0
C136 C 0.56746 0.9934 0.94152 0.0
C137 C 0.50652 0.04647 0.66274 0.0
C138 C 0.54625 0.99257 0.65079 0.0
C139 C 0.47253 0.99156 0.47312 0.0
C140 C 0.44836 0.99026 0.43769 0.0
C141 C 0.44337 0.97432 0.37004 0.0
C142 C 0.42054 0.97252 0.33586 0.0
C143 C 0.40224 0.98663 0.36893 0.0
C144 C 0.40735 1.00272 0.4365 0.0
C145 C 0.43022 1.00455 0.4704 0.0
C146 C 0.49881 0.96522 0.74324 0.0
C147 C 0.45788 0.01928 0.76283 0.0
O148 O 0.53495 0.03671 0.86636 0.0
O149 O 0.5182 0.00561 0.9193 0.0
O150 O 0.50354 0.05154 0.74441 0.0
O151 O 0.51351 0.02556 0.65649 0.0
O152 O 0.54172 0.99631 0.73425 0.0
O153 O 0.52976 0.99515 0.59032 0.0
O154 O 0.47923 0.97384 0.52162 0.0
O155 O 0.47933 0.0119 0.5054 0.0
O156 O 0.501 0.9605 0.661 0.0
O157 O 0.49166 0.98607 0.75249 0.0
O158 O 0.46117 0.01191 0.68149 0.0
O159 O 0.47519 0.02031 0.82075 0.0
H160 H 0.56059 0.04559 0.04928 0.0
H161 H 0.59918 0.03446 0.10747 0.0
H162 H 0.59723 0.97044 0.95348 0.0
H163 H 0.55875 0.98187 0.89499 0.0
H164 H 0.45713 0.96313 0.34394 0.0
H165 H 0.41714 0.95975 0.28464 0.0
H166 H 0.39371 0.01402 0.46271 0.0
H167 H 0.43374 0.01716 0.52192 0.0
La168 La 0.48768 0.51882 0.81302 0.0
La169 La 0.50596 0.49979 0.64084 0.0
C170 C 0.48463 0.54041 0.95654 0.0
C171 C 0.49188 0.56395 0.98775 0.0
C172 C 0.47921 0.57508 0.05438 0.0
C173 C 0.48562 0.59766 0.08324 0.0
C174 C 0.50472 0.60956 0.04533 0.0
C175 C 0.51742 0.59827 0.97871 0.0
C176 C 0.51113 0.57566 0.95051 0.0
C177 C 0.456 0.51363 0.68857 0.0
C178 C 0.50826 0.55371 0.66983 0.0
C179 C 0.51023 0.4798 0.49473 0.0
C180 C 0.51527 0.45609 0.45981 0.0
C181 C 0.53024 0.45387 0.38794 0.0
C182 C 0.53544 0.43165 0.35336 0.0
C183 C 0.52564 0.41121 0.38981 0.0
C184 C 0.51051 0.41347 0.46162 0.0
C185 C 0.50545 0.43572 0.49659 0.0
C186 C 0.53769 0.50442 0.76594 0.0
C187 C 0.48373 0.46476 0.7833 0.0
O188 O 0.46777 0.54002 0.89802 0.0
O189 O 0.5017 0.52582 0.9371 0.0
O190 O 0.45151 0.51093 0.77078 0.0
O191 O 0.47686 0.52057 0.68021 0.0
O192 O 0.50543 0.54922 0.75367 0.0
O193 O 0.50561 0.53701 0.61034 0.0
O194 O 0.5276 0.49029 0.53582 0.0
O195 O 0.49001 0.48279 0.53413 0.0
O196 O 0.54234 0.50675 0.68397 0.0
O197 O 0.51672 0.49783 0.77356 0.0
O198 O 0.49057 0.46834 0.70182 0.0
O199 O 0.4833 0.48183 0.84234 0.0
H200 H 0.46427 0.56635 0.08382 0.0
H201 H 0.47539 0.60596 0.13418 0.0
H202 H 0.5324 0.60683 0.949 0.0
H203 H 0.52136 0.56736 0.89962 0.0
H204 H 0.53794 0.46937 0.35849 0.0
H205 H 0.54696 0.43047 0.29753 0.0
H206 H 0.50291 0.39801 0.49163 0.0
H207 H 0.49394 0.43697 0.55235 0.0
La208 La 0.98593 0.48559 0.79683 0.0
La209 La 1.00111 0.50591 0.62452 0.0
C210 C 0.96903 0.47903 0.94607 0.0
C211 C 0.94809 0.48618 0.99514 0.0
C212 C 0.93978 0.47138 0.0608 0.0
C213 C 0.91936 0.47717 0.10631 0.0
C214 C 0.90688 0.49798 0.08715 0.0
C215 C 0.91548 0.51296 0.02172 0.0
C216 C 0.93592 0.50709 0.97595 0.0
C217 C 0.99031 0.45487 0.66974 0.0
C218 C 0.9483 0.50912 0.66913 0.0
C219 C 0.01883 0.51177 0.47577 0.0
C220 C 0.04238 0.51653 0.43991 0.0
C221 C 0.04443 0.53023 0.36457 0.0
C222 C 0.0666 0.53496 0.32932 0.0
C223 C 0.08714 0.52597 0.36875 0.0
C224 C 0.08501 0.51226 0.44442 0.0
C225 C 0.06286 0.50763 0.4798 0.0
C226 C 0.99792 0.53662 0.75326 0.0
C227 C 0.03934 0.48294 0.75494 0.0
O228 O 0.96517 0.46498 0.87965 0.0
O229 O 0.98427 0.49565 0.92818 0.0
O230 O 0.99476 0.4503 0.75074 0.0
O231 O 0.98214 0.47545 0.66299 0.0
O232 O 0.95472 0.50482 0.7506 0.0
O233 O 0.96325 0.50657 0.60405 0.0
O234 O 0.0094 0.52878 0.52164 0.0
O235 O 0.01577 0.49113 0.51177 0.0
O236 O 0.99377 0.54159 0.67234 0.0
O237 O 0.0054 0.51579 0.75812 0.0
O238 O 0.03448 0.49236 0.67803 0.0
O239 O 0.02326 0.47996 0.81563 0.0
H240 H 0.94891 0.45511 0.07603 0.0
H241 H 0.91303 0.46499 0.15496 0.0
H242 H 0.90641 0.5292 0.00581 0.0
H243 H 0.9421 0.51875 0.92531 0.0
H244 H 0.02883 0.53724 0.33281 0.0
H245 H 0.06765 0.54539 0.27057 0.0
H246 H 0.10053 0.50534 0.47691 0.0
H247 H 0.06177 0.49709 0.5382 0.0
C248 C 0.13891 0.99187 0.32509 0.0
C249 C 0.13694 0.96813 0.30003 0.0
C250 C 0.12403 1.00148 0.38874 0.0
C251 C 0.1065 0.9871 0.4265 0.0
C252 C 0.10418 0.96324 0.40017 0.0
C253 C 0.11962 0.95397 0.33792 0.0
C254 C 0.12725 0.02686 0.41641 0.0
C255 C 0.08535 0.94749 0.43762 0.0
C256 C 0.07849 0.99953 0.64522 0.0
C257 C 0.05635 0.00788 0.61925 0.0
C258 C 0.09568 0.99396 0.58304 0.0
C259 C 0.09037 0.99679 0.49339 0.0
C260 C 0.06859 0.00683 0.46775 0.0
C261 C 0.05194 0.01246 0.53144 0.0
C262 C 0.1189 0.98373 0.61295 0.0
C263 C 0.06225 0.01029 0.373 0.0
H264 H 0.15243 1.0028 0.2963 0.0
H265 H 0.11797 0.93566 0.31821 0.0
H266 H 0.11067 0.03685 0.4058 0.0
H267 H 0.13133 0.02775 0.4871 0.0
H268 H 0.14165 0.0357 0.38032 0.0
H269 H 0.08555 0.92951 0.40856 0.0
H270 H 0.08784 0.94592 0.50906 0.0
H271 H 0.06769 0.95537 0.42632 0.0
H272 H 0.08192 0.99616 0.71358 0.0
H273 H 0.0353 0.02011 0.51248 0.0
H274 H 0.13377 0.99257 0.57974 0.0
H275 H 0.11962 0.96474 0.59542 0.0
H276 H 0.12143 0.98546 0.68449 0.0
H277 H 0.07651 0.01982 0.33887 0.0
H278 H 0.04552 0.02025 0.3646 0.0
H279 H 0.06026 0.99284 0.34082 0.0
C280 C 0.53585 0.14169 0.29061 0.0
C281 C 0.55964 0.14755 0.30414 0.0
C282 C 0.52442 0.12553 0.34501 0.0
C283 C 0.53713 0.11498 0.41416 0.0
C284 C 0.56116 0.12073 0.42776 0.0
C285 C 0.5721 0.13698 0.37272 0.0
C286 C 0.49879 0.11976 0.32861 0.0
C287 C 0.57536 0.10966 0.50042 0.0
C288 C 0.50792 0.08818 0.61174 0.0
C289 C 0.51056 0.06408 0.59424 0.0
C290 C 0.51532 0.10509 0.55129 0.0
C291 C 0.52561 0.0976 0.472 0.0
C292 C 0.52699 0.07326 0.45203 0.0
C293 C 0.5194 0.05679 0.51343 0.0
C294 C 0.51339 0.13091 0.57442 0.0
C295 C 0.53783 0.06454 0.36824 0.0
H296 H 0.5261 0.14983 0.23781 0.0
H297 H 0.59048 0.14138 0.3835 0.0
H298 H 0.49674 0.1006 0.31571 0.0
H299 H 0.48828 0.12396 0.38735 0.0
H300 H 0.49136 0.12964 0.27249 0.0
H301 H 0.59385 0.11613 0.50241 0.0
H302 H 0.56704 0.11355 0.56408 0.0
H303 H 0.57562 0.09021 0.49232 0.0
H304 H 0.50098 0.09382 0.67406 0.0
H305 H 0.52141 0.03815 0.49956 0.0
H306 H 0.50542 0.14089 0.51969 0.0
H307 H 0.53127 0.13825 0.58615 0.0
H308 H 0.50265 0.13388 0.63371 0.0
H309 H 0.53021 0.074 0.31163 0.0
H310 H 0.53518 0.04529 0.35843 0.0
H311 H 0.55705 0.06816 0.36925 0.0
C312 C 0.36258 0.56671 0.36618 0.0
C313 C 0.35294 0.55127 0.30389 0.0
C314 C 0.37894 0.55875 0.42821 0.0
C315 C 0.38582 0.53475 0.42804 0.0
C316 C 0.37608 0.51902 0.36573 0.0
C317 C 0.35974 0.52748 0.30431 0.0
C318 C 0.38904 0.5761 0.49344 0.0
C319 C 0.38309 0.49334 0.36347 0.0
C320 C 0.44482 0.52292 0.5358 0.0
C321 C 0.43801 0.51606 0.61952 0.0
C322 C 0.42798 0.52812 0.47163 0.0
C323 C 0.40374 0.52644 0.49182 0.0
C324 C 0.39676 0.51849 0.5751 0.0
C325 C 0.41404 0.51336 0.63814 0.0
C326 C 0.43617 0.53647 0.38356 0.0
C327 C 0.37107 0.5164 0.59879 0.0
H328 H 0.35743 0.58511 0.36635 0.0
H329 H 0.35235 0.51543 0.25641 0.0
H330 H 0.38564 0.56993 0.56066 0.0
H331 H 0.40843 0.57726 0.48566 0.0
H332 H 0.38145 0.59404 0.48603 0.0
H333 H 0.37345 0.48328 0.31222 0.0
H334 H 0.40228 0.49178 0.35128 0.0
H335 H 0.37962 0.48508 0.42746 0.0
H336 H 0.46337 0.52497 0.5211 0.0
H337 H 0.40876 0.508 0.70281 0.0
H338 H 0.43121 0.55523 0.37473 0.0
H339 H 0.42739 0.52622 0.3309 0.0
H340 H 0.45556 0.53484 0.37589 0.0
H341 H 0.36293 0.53419 0.60012 0.0
H342 H 0.36857 0.50808 0.66344 0.0
H343 H 0.36146 0.50585 0.54898 0.0
C344 C 0.03862 0.37271 0.28957 0.0
C345 C 0.02207 0.35597 0.261 0.0
C346 C 0.03264 0.38983 0.35197 0.0
C347 C 0.00974 0.38983 0.38814 0.0
C348 C 0.9929 0.37309 0.35899 0.0
C349 C 0.9992 0.35651 0.29501 0.0
C350 C 0.05093 0.4077 0.38012 0.0
C351 C 0.96846 0.37222 0.39729 0.0
C352 C 1.00443 0.41614 0.61466 0.0
C353 C 0.99435 0.43818 0.59735 0.0
C354 C 0.00909 0.4001 0.54725 0.0
C355 C 1.0039 0.40643 0.46016 0.0
C356 C 0.99353 0.42863 0.44229 0.0
C357 C 0.98854 0.44413 0.51143 0.0
C358 C 0.01973 0.37642 0.56926 0.0
C359 C 0.98809 0.43615 0.35017 0.0
H360 H 0.05625 0.37251 0.26279 0.0
H361 H 0.98637 0.34356 0.27329 0.0
H362 H 0.04373 0.42581 0.37407 0.0
H363 H 0.05556 0.405 0.44966 0.0
H364 H 0.0673 0.40643 0.34106 0.0
H365 H 0.95719 0.35863 0.36547 0.0
H366 H 0.96967 0.36827 0.46788 0.0
H367 H 0.95971 0.38961 0.39083 0.0
H368 H 0.0088 0.41142 0.68117 0.0
H369 H 0.98034 0.46101 0.49814 0.0
H370 H 0.03735 0.37477 0.53898 0.0
H371 H 0.00856 0.36204 0.54237 0.0
H372 H 0.02169 0.37382 0.64059 0.0
H373 H 0.00448 0.43604 0.31111 0.0
H374 H 0.98021 0.45407 0.3473 0.0
H375 H 0.97571 0.42348 0.3191 0.0
C376 C 0.85803 0.98469 0.11304 0.0
C377 C 0.86288 0.96421 0.16046 0.0
C378 C 0.87301 0.99201 0.04612 0.0
C379 C 0.89372 0.97894 0.02857 0.0
C380 C 0.89925 0.95883 0.07909 0.0
C381 C 0.88347 0.95142 0.14345 0.0
C382 C 0.86619 0.01315 0.99205 0.0
C383 C 0.92162 0.94496 0.06427 0.0
C384 C 0.92027 0.98101 0.80281 0.0
C385 C 0.93818 0.99771 0.81422 0.0
C386 C 0.90539 0.97504 0.87183 0.0
C387 C 0.90897 0.98564 0.95455 0.0
C388 C 0.92695 1.00268 0.96611 0.0
C389 C 0.94094 0.00898 0.89496 0.0
C390 C 0.88591 0.95733 0.85629 0.0
C391 C 0.93175 0.01386 0.05388 0.0
H392 H 0.84198 0.99446 0.12585 0.0
H393 H 0.88728 0.93567 0.18078 0.0
H394 H 0.88051 0.02646 0.99341 0.0
H395 H 0.86366 0.00767 0.92315 0.0
H396 H 0.8497 0.02161 0.01517 0.0
H397 H 0.92447 0.93127 0.11478 0.0
H398 H 0.92087 0.93617 0.99964 0.0
H399 H 0.93707 0.95696 0.0641 0.0
H400 H 0.91795 0.97248 0.74 0.0
H401 H 0.95434 0.02245 0.90298 0.0
H402 H 0.86871 0.96498 0.87575 0.0
H403 H 0.88894 0.9415 0.89698 0.0
H404 H 0.88472 0.95168 0.78703 0.0
H405 H 0.91591 0.02346 0.07678 0.0
H406 H 0.94682 0.02637 0.05225 0.0
H407 H 0.9357 0.99996 0.10247 0.0
C408 C 0.52797 0.87088 0.11431 0.0
C409 C 0.55163 0.87313 0.13978 0.0
C410 C 0.51791 0.88651 0.05411 0.0
C411 C 0.5317 0.90516 0.02073 0.0
C412 C 0.55521 0.90826 0.05011 0.0
C413 C 0.56503 0.89196 0.10834 0.0
C414 C 0.49295 0.88234 0.02294 0.0
C415 C 0.57012 0.92848 0.01851 0.0
C416 C 0.51846 0.92873 0.79523 0.0
C417 C 0.50597 0.94937 0.81428 0.0
C418 C 0.52649 0.91395 0.86197 0.0
C419 C 0.52225 0.92024 0.94985 0.0
C420 C 0.50934 0.94094 0.96937 0.0
C421 C 0.50091 0.95502 0.90102 0.0
C422 C 0.53977 0.89175 0.83844 0.0
C423 C 0.50484 0.94844 0.06224 0.0
H424 H 0.51764 0.85623 0.13834 0.0
H425 H 0.58325 0.89386 0.12892 0.0
H426 H 0.48234 0.89867 0.02961 0.0
H427 H 0.49307 0.87755 0.95279 0.0
H428 H 0.48412 0.86799 0.05939 0.0
H429 H 0.58754 0.9293 0.0519 0.0
H430 H 0.57306 0.92676 0.94741 0.0
H431 H 0.56075 0.94538 0.02959 0.0
H432 H 0.52221 0.92423 0.72802 0.0
H433 H 0.49051 0.97055 0.91547 0.0
H434 H 0.53137 0.87624 0.86921 0.0
H435 H 0.5581 0.89285 0.86375 0.0
H436 H 0.54043 0.88875 0.76696 0.0
H437 H 0.49535 0.93435 0.09746 0.0
H438 H 0.49435 0.96496 0.06621 0.0
H439 H 0.52188 0.95129 0.09659 0.0
C440 C 0.62809 0.5193 0.16556 0.0
C441 C 0.64084 0.4984 0.17861 0.0
C442 C 0.61119 0.52102 0.09866 0.0
C443 C 0.60717 0.50148 0.04282 0.0
C444 C 0.62014 0.48041 0.05515 0.0
C445 C 0.63671 0.47908 0.1232 0.0
C446 C 0.59746 0.54366 0.08824 0.0
C447 C 0.6165 0.45926 0.99645 0.0
C448 C 0.54912 0.49624 0.91985 0.0
C449 C 0.5553 0.50434 0.83701 0.0
C450 C 0.56572 0.49563 0.98788 0.0
C451 C 0.58917 0.50291 0.97214 0.0
C452 C 0.59552 0.51105 0.88841 0.0
C453 C 0.57845 0.51175 0.82183 0.0
C454 C 0.55819 0.48698 0.07633 0.0
C455 C 0.62041 0.51873 0.86891 0.0
H456 H 0.63111 0.53427 0.20833 0.0
H457 H 0.64655 0.4629 0.13264 0.0
H458 H 0.60021 0.55095 0.02218 0.0
H459 H 0.57832 0.54012 0.09487 0.0
H460 H 0.60267 0.55723 0.13711 0.0
H461 H 0.6284 0.4444 0.01344 0.0
H462 H 0.598 0.45306 1.00085 0.0
H463 H 0.61962 0.46424 0.92768 0.0
H464 H 0.53134 0.49005 0.93133 0.0
H465 H 0.58326 0.51793 0.75765 0.0
H466 H 0.56228 0.50047 0.12677 0.0
H467 H 0.56818 0.47082 0.09353 0.0
H468 H 0.53905 0.48291 0.07872 0.0
H469 H 0.62572 0.53326 0.91345 0.0
H470 H 0.62243 0.52479 0.80068 0.0
H471 H 0.63276 0.50386 0.88037 0.0
C472 C 0.03322 0.63873 0.08429 0.0
C473 C 0.01566 0.64438 0.14482 0.0
C474 C 0.02986 0.62066 0.02263 0.0
C475 C 0.00848 0.60777 0.02184 0.0
C476 C 0.99079 0.61317 0.08342 0.0
C477 C 0.99454 0.63148 0.14391 0.0
C478 C 0.0491 0.61555 0.95767 0.0
C479 C 0.96786 0.59965 0.08516 0.0
C480 C 0.99162 0.57741 0.80934 0.0
C481 C 0.99936 0.5543 0.82399 0.0
C482 C 0.99412 0.59488 0.87376 0.0
C483 C 1.00448 0.58905 0.955 0.0
C484 C 0.01181 0.56557 0.97088 0.0
C485 C 0.00928 0.54849 0.90489 0.0
C486 C 0.98617 0.61972 0.85412 0.0
C487 C 0.02278 0.5586 0.05683 0.0
H488 H 0.04959 0.64859 0.08447 0.0
H489 H 0.98093 0.63563 0.19076 0.0
H490 H 0.05474 0.59688 0.96288 0.0
H491 H 0.04229 0.61815 0.89051 0.0
H492 H 0.06476 0.62703 0.96748 0.0
H493 H 0.95618 0.60554 0.13883 0.0
H494 H 0.95833 0.60188 0.02245 0.0
H495 H 0.97142 0.58053 0.09287 0.0
H496 H 0.98393 0.58194 0.74682 0.0
H497 H 0.01553 0.5307 0.91608 0.0
H498 H 1.0015 0.63186 0.85716 0.0
H499 H 0.97338 0.62577 0.9038 0.0
H500 H 0.97781 0.6212 0.78876 0.0
H501 H 0.02618 0.53934 0.06076 0.0
H502 H 0.0111 0.56379 0.11133 0.0
H503 H 0.03973 0.56806 0.06624 0.0
C504 C 0.00707 0.2097 0.06272 0.0
C505 C 0.02386 0.22411 0.10415 0.0
C506 C 1.00245 0.18679 0.09263 0.0
C507 C 0.0147 0.17813 0.16645 0.0
C508 C 0.03206 0.19235 0.20734 0.0
C509 C 0.03643 0.2151 0.17573 0.0
C510 C 0.98382 0.17221 0.04711 0.0
C511 C 0.04554 0.1838 0.28625 0.0
C512 C 0.98595 0.13209 0.30975 0.0
C513 C 0.99822 0.11151 0.28675 0.0
C514 C 0.99085 0.15373 0.2699 0.0
C515 C 0.00835 0.15489 0.20477 0.0
C516 C 0.02035 0.1341 0.1793 0.0
C517 C 0.0152 0.11266 0.22076 0.0
C518 C 0.97755 0.17546 0.29873 0.0
C519 C 0.03901 0.1346 0.10969 0.0
H520 H 0.99686 0.2165 0.00889 0.0
H521 H 0.04951 0.22601 0.20819 0.0
H522 H 0.99032 0.15403 0.03566 0.0
H523 H 0.96804 0.17093 0.08909 0.0
H524 H 0.97843 0.17999 0.98378 0.0
H525 H 0.05934 0.19649 0.3077 0.0
H526 H 0.03319 0.18098 0.34099 0.0
H527 H 0.05404 0.16661 0.27197 0.0
H528 H 0.97244 0.13131 0.35924 0.0
H529 H 0.0249 0.09692 0.20295 0.0
H530 H 0.96872 0.18377 0.24201 0.0
H531 H 0.99004 0.18859 0.32641 0.0
H532 H 0.96403 0.17145 0.34856 0.0
H533 H 0.032 0.14311 0.05001 0.0
H534 H 0.0454 0.11667 0.09255 0.0
H535 H 0.05423 0.1453 0.13257 0.0
C536 C 0.27541 0.94584 0.20023 0.0
C537 C 0.26065 0.96471 0.17787 0.0
C538 C 0.29865 0.94978 0.22879 0.0
C539 C 0.30727 0.97316 0.2357 0.0
C540 C 0.29242 0.99229 0.21325 0.0
C541 C 0.26922 0.98782 0.18544 0.0
C542 C 0.31395 0.92892 0.25206 0.0
C543 C 0.30094 0.01747 0.21968 0.0
C544 C 0.35861 0.98359 0.39122 0.0
C545 C 0.37782 0.98416 0.33422 0.0
C546 C 0.33554 0.98035 0.35986 0.0
C547 C 0.33156 0.97759 0.26925 0.0
C548 C 0.35082 0.97856 0.21119 0.0
C549 C 0.37372 0.98182 0.24436 0.0
C550 C 0.31546 0.97952 0.42388 0.0
C551 C 0.34724 0.97597 0.11412 0.0
H552 H 0.26879 0.92795 0.19494 0.0
H553 H 0.2576 1.00251 0.17181 0.0
H554 H 0.33024 0.92909 0.2125 0.0
H555 H 0.3194 0.93011 0.32145 0.0
H556 H 0.30476 0.91184 0.24134 0.0
H557 H 0.28723 0.03032 0.19923 0.0
H558 H 0.30633 0.02155 0.28767 0.0
H559 H 0.31667 0.01991 0.17813 0.0
H560 H 0.36167 0.98514 0.46076 0.0
H561 H 0.38845 0.98262 0.19983 0.0
H562 H 0.30675 0.96202 0.42057 0.0
H563 H 0.30199 0.99294 0.40674 0.0
H564 H 0.32143 0.98273 0.49195 0.0
H565 H 0.33936 0.95851 0.09903 0.0
H566 H 0.36398 0.9777 0.07755 0.0
H567 H 0.33472 0.98956 0.0906 0.0
C568 C 0.56088 0.27806 0.2834 0.0
C569 C 0.56161 0.27322 0.19392 0.0
C570 C 0.55454 0.30049 0.31437 0.0
C571 C 0.54906 0.31859 0.25431 0.0
C572 C 0.55008 0.31388 0.16375 0.0
C573 C 0.5564 0.29123 0.13468 0.0
C574 C 0.55375 0.30484 0.4114 0.0
C575 C 0.5445 0.33271 0.09756 0.0
C576 C 0.51372 0.37086 0.33828 0.0
C577 C 0.53149 0.3876 0.35362 0.0
C578 C 0.51912 0.34846 0.30448 0.0
C579 C 0.54287 0.34259 0.28655 0.0
C580 C 0.56084 0.35948 0.3014 0.0
C581 C 0.55492 0.3818 0.3345 0.0
C582 C 0.49944 0.33103 0.28821 0.0
C583 C 0.58637 0.35391 0.28297 0.0
H584 H 0.56503 0.26417 0.32929 0.0
H585 H 0.55785 0.2878 0.0655 0.0
H586 H 0.56629 0.31908 0.42953 0.0
H587 H 0.53589 0.31085 0.43042 0.0
H588 H 0.55825 0.28882 0.44942 0.0
H589 H 0.52542 0.33696 0.0998 0.0
H590 H 0.55429 0.34918 0.11273 0.0
H591 H 0.54895 0.32706 0.03033 0.0
H592 H 0.49555 0.3754 0.35191 0.0
H593 H 0.56873 0.39462 0.34694 0.0
H594 H 0.50246 0.31489 0.32728 0.0
H595 H 0.49923 0.32564 0.21866 0.0
H596 H 0.48189 0.33839 0.30495 0.0
H597 H 0.5922 0.33881 0.32344 0.0
H598 H 0.59816 0.36914 0.29653 0.0
H599 H 0.58843 0.34861 0.2138 0.0
C600 C 0.20916 0.54621 0.1165 0.0
C601 C 0.22698 0.5522 0.17609 0.0
C602 C 0.18582 0.54294 0.14395 0.0
C603 C 0.18034 0.54541 0.23343 0.0
C604 C 0.19828 0.55188 0.29357 0.0
C605 C 0.22137 0.55547 0.26391 0.0
C606 C 0.16708 0.53743 0.07667 0.0
C607 C 0.19317 0.55461 0.38945 0.0
C608 C 0.11667 0.55368 0.30392 0.0
C609 C 0.11074 0.53088 0.33137 0.0
C610 C 0.13916 0.55865 0.27092 0.0
C611 C 0.15609 0.54038 0.265 0.0
C612 C 0.15001 0.51723 0.2907 0.0
C613 C 0.12746 0.51278 0.32389 0.0
C614 C 0.1449 0.58348 0.24317 0.0
C615 C 0.16737 0.49715 0.28305 0.0
H616 H 0.21343 0.54436 0.04808 0.0
H617 H 0.23519 0.56026 0.30977 0.0
H618 H 0.1541 0.52452 0.10143 0.0
H619 H 0.15734 0.55383 0.06091 0.0
H620 H 0.1748 0.53048 0.01539 0.0
H621 H 0.20892 0.56037 0.42729 0.0
H622 H 0.17887 0.56769 0.39929 0.0
H623 H 0.18693 0.53757 0.41606 0.0
H624 H 0.10385 0.56776 0.30994 0.0
H625 H 0.12283 0.49504 0.34345 0.0
H626 H 0.15021 0.58356 0.17378 0.0
H627 H 0.16003 0.59032 0.2818 0.0
H628 H 0.12973 0.59567 0.25146 0.0
H629 H 0.17326 0.49537 0.21455 0.0
H630 H 0.15975 0.48007 0.30408 0.0
H631 H 0.18322 0.50094 0.32342 0.0
C632 C 0.00942 0.78298 0.19515 0.0
C633 C 0.00842 0.77939 0.28549 0.0
C634 C 0.00802 0.8057 0.15968 0.0
C635 C 0.00545 0.82538 0.21578 0.0
C636 C 1.00368 0.82184 0.30668 0.0
C637 C 0.00554 0.79895 0.34052 0.0
C638 C 0.00989 0.80871 0.0623 0.0
C639 C 1.00078 0.84218 0.36924 0.0
C640 C 0.02842 0.88419 0.13507 0.0
C641 C 0.0076 0.8955 0.10885 0.0
C642 C 0.02791 0.86148 0.17076 0.0
C643 C 0.00607 0.84968 0.17963 0.0
C644 C 0.98496 0.86107 0.15377 0.0
C645 C 0.98597 0.88389 0.11887 0.0
C646 C 0.05074 0.85013 0.19938 0.0
C647 C 0.96133 0.84917 0.16345 0.0
H648 H 0.01164 0.76798 0.15192 0.0
H649 H 0.00557 0.79663 0.41029 0.0
H650 H 0.99464 0.81896 0.03732 0.0
H651 H 0.02606 0.81883 0.04681 0.0
H652 H 0.01056 0.79155 0.02724 0.0
H653 H 0.99194 0.83632 0.42966 0.0
H654 H 0.01843 0.84919 0.38698 0.0
H655 H 0.99033 0.85676 0.34053 0.0
H656 H 0.04514 0.89327 0.12862 0.0
H657 H 0.96985 0.89255 0.0982 0.0
H658 H 0.05334 0.83325 0.16394 0.0
H659 H 0.04998 0.846 0.26986 0.0
H660 H 0.06624 0.86164 0.18778 0.0
H661 H 0.96113 0.83229 0.12657 0.0
H662 H 0.94656 0.86036 0.13988 0.0
H663 H 0.9583 0.84488 0.23294 0.0
C664 C 0.73463 0.98997 0.20038 0.0
C665 C 0.73965 0.96805 0.23788 0.0
C666 C 0.7121 0.99505 0.16719 0.0
C667 C 0.69412 0.97779 0.17185 0.0
C668 C 0.69911 0.95559 0.20967 0.0
C669 C 0.72193 0.95088 0.24142 0.0
C670 C 0.70749 0.01897 0.12781 0.0
C671 C 0.68027 0.93695 0.2176 0.0
C672 C 0.63065 0.99915 0.15884 0.0
C673 C 0.62488 0.99467 0.07126 0.0
C674 C 0.65309 0.99379 0.19228 0.0
C675 C 0.67007 0.98314 0.13762 0.0
C676 C 0.66428 0.9782 0.0496 0.0
C677 C 0.64182 0.98411 0.0174 0.0
C678 C 0.65855 0.99947 0.28628 0.0
C679 C 0.68195 0.96701 0.989 0.0
H680 H 0.74845 1.0031 0.19616 0.0
H681 H 0.72578 0.93396 0.2708 0.0
H682 H 0.70112 0.01693 0.05973 0.0
H683 H 0.69343 0.02815 0.16473 0.0
H684 H 0.72347 0.03029 0.12792 0.0
H685 H 0.68717 0.92034 0.24611 0.0
H686 H 0.66582 0.94362 0.25942 0.0
H687 H 0.67253 0.93298 0.15265 0.0
H688 H 0.61757 0.00683 0.20163 0.0
H689 H 0.63772 0.98086 0.94942 0.0
H690 H 0.676 0.00814 0.29275 0.0
H691 H 0.65924 0.98285 0.32396 0.0
H692 H 0.6451 0.01123 0.31568 0.0
H693 H 0.67453 0.96383 0.92286 0.0
H694 H 0.68808 0.94995 0.01607 0.0
H695 H 0.69763 0.97857 0.98318 0.0
C696 C 0.52333 0.74345 0.20318 0.0
C697 C 0.54729 0.7484 0.21651 0.0
C698 C 0.51587 0.72106 0.17502 0.0
C699 C 0.5328 0.70319 0.15983 0.0
C700 C 0.55703 0.70809 0.17327 0.0
C701 C 0.56402 0.73075 0.2005 0.0
C702 C 0.48987 0.71641 0.16254 0.0
C703 C 0.57551 0.68928 0.16037 0.0
C704 C 0.51257 0.6392 0.16395 0.0
C705 C 0.51143 0.63366 0.07489 0.0
C706 C 0.51926 0.66179 0.19262 0.0
C707 C 0.5251 0.67927 0.13073 0.0
C708 C 0.52368 0.67387 0.04071 0.0
C709 C 0.51693 0.65114 0.01392 0.0
C710 C 0.52064 0.66646 0.28935 0.0
C711 C 0.52928 0.69212 0.97262 0.0
H712 H 0.5104 0.75722 0.21373 0.0
H713 H 0.58256 0.73453 0.21106 0.0
H714 H 0.48636 0.71041 0.0948 0.0
H715 H 0.48422 0.70204 0.2066 0.0
H716 H 0.47897 0.73227 0.176 0.0
H717 H 0.59363 0.69594 0.17306 0.0
H718 H 0.57203 0.67431 0.20482 0.0
H719 H 0.5746 0.68232 0.09279 0.0
H720 H 0.50865 0.62571 0.21154 0.0
H721 H 0.51575 0.64707 0.94499 0.0
H722 H 0.51791 0.68529 0.3058 0.0
H723 H 0.53834 0.66123 0.31359 0.0
H724 H 0.50731 0.6559 0.32459 0.0
H725 H 0.51778 0.70778 0.98139 0.0
H726 H 0.52684 0.68525 0.90529 0.0
H727 H 0.54778 0.69815 0.98045 0.0
C728 C 0.77995 0.48877 0.28852 0.0
C729 C 0.77121 0.50907 0.32963 0.0
C730 C 0.8025 0.48843 0.25174 0.0
C731 C 0.81676 0.50887 0.25648 0.0
C732 C 0.80821 0.52935 0.29891 0.0
C733 C 0.78537 0.52932 0.33373 0.0
C734 C 0.81098 0.46622 0.20719 0.0
C735 C 0.82294 0.55145 0.30598 0.0
C736 C 0.88207 0.49834 0.22188 0.0
C737 C 0.88445 0.50329 0.13288 0.0
C738 C 0.86031 0.50084 0.26372 0.0
C739 C 0.84047 0.50872 0.21574 0.0
C740 C 0.84298 0.51481 0.12698 0.0
C741 C 0.86491 0.51193 0.0865 0.0
C742 C 0.85835 0.49398 0.3582 0.0
C743 C 0.82224 0.52335 0.07369 0.0
H744 H 0.76909 0.47306 0.28487 0.0
H745 H 0.77845 0.54541 0.36145 0.0
H746 H 0.81506 0.46994 0.13803 0.0
H747 H 0.82749 0.45997 0.23852 0.0
H748 H 0.79775 0.4518 0.20946 0.0
H749 H 0.81535 0.56438 0.35263 0.0
H750 H 0.84116 0.54717 0.32713 0.0
H751 H 0.82407 0.55988 0.2411 0.0
H752 H 0.89717 0.49207 0.25868 0.0
H753 H 0.86648 0.51557 0.01756 0.0
H754 H 0.84964 0.47652 0.36276 0.0
H755 H 0.8473 0.50682 0.39407 0.0
H756 H 0.87587 0.4928 0.3906 0.0
H757 H 0.80899 0.50904 0.06744 0.0
H758 H 0.82748 0.52896 0.00734 0.0
H759 H 0.81356 0.53841 0.1069 0.0
C760 C 0.99816 0.19532 0.77959 0.0
C761 C 0.97898 0.20277 0.72847 0.0
C762 C 1.00327 0.17121 0.7888 0.0
C763 C 0.98916 0.15433 0.74466 0.0
C764 C 0.96971 0.16182 0.69374 0.0
C765 C 0.965 0.18597 0.6858 0.0
C766 C 0.02384 0.16378 0.84503 0.0
C767 C 0.95381 0.1443 0.64784 0.0
C768 C 0.01103 0.09342 0.68306 0.0
C769 C 1.00075 0.07947 0.74752 0.0
C770 C 0.0085 0.11802 0.68436 0.0
C771 C 0.99477 0.12878 0.75027 0.0
C772 C 0.98492 0.11474 0.81696 0.0
C773 C 0.98836 0.09026 0.81539 0.0
C774 C 0.01974 0.13238 0.61321 0.0
C775 C 0.96936 0.12483 0.88722 0.0
H776 H 0.00957 0.20817 0.8103 0.0
H777 H 0.95028 0.19177 0.64591 0.0
H778 H 0.01791 0.15082 0.89419 0.0
H779 H 0.0373 0.15493 0.80412 0.0
H780 H 0.03218 0.17894 0.87942 0.0
H781 H 0.9389 0.15299 0.61344 0.0
H782 H 0.96406 0.13396 0.59963 0.0
H783 H 0.94657 0.13167 0.69574 0.0
H784 H 0.02071 0.08504 0.63068 0.0
H785 H 0.9801 0.07946 0.86472 0.0
H786 H 0.03012 0.1471 0.64204 0.0
H787 H 0.00586 0.14028 0.57136 0.0
H788 H 0.03151 0.12159 0.57141 0.0
H789 H 0.97437 0.11735 0.95145 0.0
H790 H 0.95085 0.11952 0.87392 0.0
H791 H 0.97002 0.14431 0.89155 0.0
C792 C 0.32711 0.00714 0.91533 0.0
C793 C 0.31501 0.02798 0.93598 0.0
C794 C 0.35046 0.00769 0.88678 0.0
C795 C 0.36188 0.02966 0.8768 0.0
C796 C 0.3497 0.05083 0.89598 0.0
C797 C 0.3264 0.04973 0.92616 0.0
C798 C 0.36298 0.98469 0.8683 0.0
C799 C 0.36132 0.07456 0.88494 0.0
C800 C 0.4285 0.02619 0.8808 0.0
C801 C 0.43363 0.02462 0.7917 0.0
C802 C 0.40523 0.02884 0.90947 0.0
C803 C 0.38673 0.03018 0.84747 0.0
C804 C 0.3919 0.02975 0.75746 0.0
C805 C 0.4153 0.02689 0.73069 0.0
C806 C 0.40035 0.02894 0.00609 0.0
C807 C 0.37263 0.03128 0.6894 0.0
H808 H 0.31849 0.99023 0.92323 0.0
H809 H 0.3171 0.06589 0.94169 0.0
H810 H 0.36852 0.98404 0.79919 0.0
H811 H 0.37915 0.98339 0.90897 0.0
H812 H 0.35171 0.9691 0.88148 0.0
H813 H 0.3492 0.08939 0.90018 0.0
H814 H 0.377 0.07589 0.92818 0.0
H815 H 0.36758 0.07652 0.81704 0.0
H816 H 0.44254 0.02445 0.92851 0.0
H817 H 0.41913 0.02599 0.66184 0.0
H818 H 0.39061 0.0127 0.02372 0.0
H819 H 0.38905 0.04417 0.02375 0.0
H820 H 0.41679 0.02975 0.04567 0.0
H821 H 0.36169 0.01507 0.69117 0.0
H822 H 0.37978 0.03321 0.62262 0.0
H823 H 0.36084 0.04643 0.7033 0.0
C824 C 0.46853 0.33084 0.94802 0.0
C825 C 0.49101 0.32097 0.93762 0.0
C826 C 0.46369 0.35387 0.9197 0.0
C827 C 0.48193 0.3674 0.88214 0.0
C828 C 0.50447 0.3573 0.8697 0.0
C829 C 0.50862 0.33413 0.89648 0.0
C830 C 0.43929 0.36392 0.93185 0.0
C831 C 0.52452 0.37127 0.83117 0.0
C832 C 0.47335 0.42291 0.75003 0.0
C833 C 0.47941 0.44031 0.81128 0.0
C834 C 0.47246 0.39907 0.7736 0.0
C835 C 0.47816 0.39256 0.86005 0.0
C836 C 0.4831 0.41019 0.92318 0.0
C837 C 0.48344 0.43391 0.89813 0.0
C838 C 0.46669 0.38081 0.70488 0.0
C839 C 0.48967 0.40391 0.01572 0.0
H840 H 0.45479 0.32068 0.97913 0.0
H841 H 0.52602 0.32663 0.88784 0.0
H842 H 0.43988 0.37836 0.98081 0.0
H843 H 0.43275 0.37163 0.86995 0.0
H844 H 0.42652 0.3504 0.954 0.0
H845 H 0.54089 0.36066 0.82479 0.0
H846 H 0.51949 0.37794 0.76588 0.0
H847 H 0.52841 0.38683 0.87295 0.0
H848 H 0.46987 0.42787 0.68311 0.0
H849 H 0.48822 0.4473 0.94566 0.0
H850 H 0.4539 0.36776 0.73021 0.0
H851 H 0.48293 0.37106 0.68713 0.0
H852 H 0.45927 0.38888 0.64488 0.0
H853 H 0.47642 0.3918 0.04375 0.0
H854 H 0.49115 0.41973 0.05838 0.0
H855 H 0.50686 0.39455 0.01629 0.0
C856 C 0.17651 0.46083 0.85436 0.0
C857 C 0.18107 0.47129 0.93568 0.0
C858 C 0.15333 0.45864 0.82273 0.0
C859 C 0.13446 0.4677 0.8727 0.0
C860 C 0.13886 0.47677 0.95726 0.0
C861 C 0.16208 0.478 0.98827 0.0
C862 C 0.14917 0.44781 0.73398 0.0
C863 C 0.11937 0.48698 0.01249 0.0
C864 C 0.08168 0.49374 0.75555 0.0
C865 C 0.06399 0.47764 0.7769 0.0
C866 C 0.10487 0.49043 0.78498 0.0
C867 C 0.11056 0.47003 0.8338 0.0
C868 C 0.09297 0.45299 0.85074 0.0
C869 C 0.06969 0.45728 0.82371 0.0
C870 C 0.12296 0.50934 0.76758 0.0
C871 C 0.09858 0.43061 0.89949 0.0
H872 H 0.19107 0.45518 0.8139 0.0
H873 H 0.16542 0.48544 0.05221 0.0
H874 H 0.13385 0.43565 0.73529 0.0
H875 H 0.14507 0.4619 0.68637 0.0
H876 H 0.16485 0.43796 0.71057 0.0
H877 H 0.12519 0.49028 0.0807 0.0
H878 H 0.11352 0.50397 0.984 0.0
H879 H 0.10388 0.47509 0.01354 0.0
H880 H 0.07712 0.50954 0.71967 0.0
H881 H 0.05592 0.44475 0.83928 0.0
H882 H 0.13832 0.50172 0.73315 0.0
H883 H 0.12952 0.51673 0.83029 0.0
H884 H 0.1157 0.52398 0.72777 0.0
H885 H 0.11454 0.42209 0.87211 0.0
H886 H 0.08376 0.41782 0.89692 0.0
H887 H 0.10243 0.43481 0.96873 0.0
C888 C 0.98246 0.81666 0.6246 0.0
C889 C 0.96024 0.80996 0.6556 0.0
C890 C 0.98939 0.8405 0.62575 0.0
C891 C 0.97361 0.85788 0.65744 0.0
C892 C 0.95115 0.85108 0.68805 0.0
C893 C 0.94489 0.82718 0.68753 0.0
C894 C 0.01382 0.84699 0.59579 0.0
C895 C 0.93381 0.86901 0.72258 0.0
C896 C 0.99474 0.91737 0.74101 0.0
C897 C 0.98874 0.93228 0.67151 0.0
C898 C 0.99079 0.89298 0.73603 0.0
C899 C 0.98045 0.88323 0.65987 0.0
C900 C 0.97498 0.89807 0.58856 0.0
C901 C 0.97925 0.9224 0.59513 0.0
C902 C 0.99691 0.87782 0.81359 0.0
C903 C 0.96362 0.88843 0.50671 0.0
H904 H 0.9947 0.80331 0.60235 0.0
H905 H 0.92785 0.82189 0.71253 0.0
H906 H 0.01317 0.86239 0.55156 0.0
H907 H 0.02475 0.8521 0.65298 0.0
H908 H 0.02266 0.83211 0.5618 0.0
H909 H 0.91686 0.86084 0.74214 0.0
H910 H 0.94148 0.87826 0.77991 0.0
H911 H 0.93013 0.88253 0.67233 0.0
H912 H 1.00223 0.92479 0.80019 0.0
H913 H 0.97449 0.93376 0.54124 0.0
H914 H 0.00779 0.86255 0.79304 0.0
H915 H 0.98053 0.87069 0.84251 0.0
H916 H 0.00664 0.88779 0.86486 0.0
H917 H 0.97277 0.87221 0.48498 0.0
H918 H 0.96376 0.90141 0.45276 0.0
H919 H 0.94506 0.88361 0.5204 0.0
C920 C 0.68046 0.97195 0.50266 0.0
C921 C 0.6898 0.9941 0.48155 0.0
C922 C 0.65723 0.96968 0.53196 0.0
C923 C 0.64305 0.99004 0.54057 0.0
C924 C 0.65243 0.01248 0.52039 0.0
C925 C 0.67575 0.01426 0.49128 0.0
C926 C 0.64768 0.94545 0.55169 0.0
C927 C 0.63769 0.03456 0.52799 0.0
C928 C 0.57639 0.98581 0.53564 0.0
C929 C 0.57091 0.9887 0.62392 0.0
C930 C 0.59986 0.98526 0.50779 0.0
C931 C 0.61826 0.98792 0.56977 0.0
C932 C 0.61288 0.98975 0.65941 0.0
C933 C 0.58925 0.99002 0.68547 0.0
C934 C 0.60471 0.98313 0.41152 0.0
C935 C 0.63204 0.99239 0.72753 0.0
H936 H 0.69116 0.95626 0.49472 0.0
H937 H 0.68284 0.0314 0.47481 0.0
H938 H 0.64084 0.94492 0.61917 0.0
H939 H 0.6327 0.94141 0.50725 0.0
H940 H 0.66123 0.93145 0.54421 0.0
H941 H 0.64784 0.05073 0.51236 0.0
H942 H 0.62236 0.03339 0.48297 0.0
H943 H 0.63068 0.03629 0.59501 0.0
H944 H 0.56234 0.98469 0.48762 0.0
H945 H 0.5852 0.99217 0.7539 0.0
H946 H 0.62041 0.97201 0.39887 0.0
H947 H 0.60816 1.00094 0.385 0.0
H948 H 0.58944 0.97554 0.37547 0.0
H949 H 0.64486 0.9777 0.72207 0.0
H950 H 0.6249 0.99267 0.79473 0.0
H951 H 0.64186 0.00903 0.71666 0.0
C952 C 0.51929 0.68801 0.51291 0.0
C953 C 0.49749 0.69492 0.47755 0.0
C954 C 0.52257 0.66536 0.54682 0.0
C955 C 0.50349 0.64935 0.54663 0.0
C956 C 0.48128 0.65634 0.51279 0.0
C957 C 0.47859 0.67903 0.47801 0.0
C958 C 0.54661 0.65838 0.58077 0.0
C959 C 0.46047 0.63973 0.51235 0.0
C960 C 0.51473 0.58353 0.5537 0.0
C961 C 0.51015 0.57844 0.64118 0.0
C962 C 0.51329 0.60666 0.52255 0.0
C963 C 0.50687 0.62509 0.5802 0.0
C964 C 0.50307 0.62021 0.66933 0.0
C965 C 0.50491 0.59693 0.6989 0.0
C966 C 0.5179 0.61121 0.42737 0.0
C967 C 0.49619 0.63941 0.73277 0.0
H968 H 0.53408 0.70011 0.51197 0.0
H969 H 0.46173 0.68426 0.45072 0.0
H970 H 0.54532 0.65227 0.64907 0.0
H971 H 0.55356 0.64345 0.54167 0.0
H972 H 0.55946 0.67313 0.5782 0.0
H973 H 0.44415 0.64824 0.4874 0.0
H974 H 0.46438 0.62414 0.47102 0.0
H975 H 0.45717 0.63323 0.57921 0.0
H976 H 0.5189 0.56933 0.50887 0.0
H977 H 0.50122 0.59314 0.76654 0.0
H978 H 0.53084 0.62571 0.42013 0.0
H979 H 0.50131 0.61677 0.39483 0.0
H980 H 0.52471 0.59535 0.39309 0.0
H981 H 0.50964 0.65361 0.73327 0.0
H982 H 0.49421 0.6327 0.8002 0.0
H983 H 0.47925 0.64747 0.71197 0.0
C984 C 0.81443 0.55232 0.58044 0.0
C985 C 0.8144 0.57691 0.59124 0.0
C986 C 0.83546 0.53934 0.5883 0.0
C987 C 0.85681 0.55121 0.60861 0.0
C988 C 0.85678 0.57603 0.6189 0.0
C989 C 0.83558 0.5885 0.61007 0.0
C990 C 0.83438 0.51287 0.5783 0.0
C991 C 0.87906 0.58939 0.64128 0.0
C992 C 0.90785 0.51996 0.71975 0.0
C993 C 0.92406 0.51776 0.65152 0.0
C994 C 0.88551 0.52995 0.70587 0.0
C995 C 0.87919 0.53794 0.62171 0.0
C996 C 0.89509 0.53487 0.55178 0.0
C997 C 0.91735 0.52486 0.56755 0.0
C998 C 0.86902 0.53273 0.78205 0.0
C999 C 0.88918 0.54316 0.46098 0.0
H1000 H 0.79811 0.54305 0.56842 0.0
H1001 H 0.83552 0.60749 0.61911 0.0
H1002 H 0.85124 0.50538 0.55457 0.0
H1003 H 0.83059 0.50494 0.64261 0.0
H1004 H 0.82 0.50757 0.5328 0.0
H1005 H 0.87603 0.60869 0.64691 0.0
H1006 H 0.88641 0.58294 0.70395 0.0
H1007 H 0.89256 0.58622 0.5906 0.0
H1008 H 0.91275 0.51435 0.78475 0.0
H1009 H 0.92969 0.52321 0.51428 0.0
H1010 H 0.85188 0.52417 0.76699 0.0
H1011 H 0.86549 0.55172 0.79391 0.0
H1012 H 0.87629 0.52493 0.84278 0.0
H1013 H 0.87021 0.54076 0.44586 0.0
H1014 H 0.89972 0.53369 0.41108 0.0
H1015 H 0.8932 0.56225 0.456 0.0
loop_
_geom_bond_atom_site_label_1
_geom_bond_atom_site_label_2
_geom_bond_distance
_geom_bond_site_symmetry_2
_ccdc_geom_bond_type
O0 Cd1 2.300 . S
O0 C7 1.275 . S
Cd1 O0 2.300 . S
Cd1 O9 2.381 . S
Cd1 O10 2.378 . S
O2 Cd3 2.385 . S
O2 C7 1.255 . S
Cd3 O2 2.385 . S
Cd3 O4 2.317 . S
O4 Cd3 2.317 . S
O4 C5 1.232 . S
C5 O4 1.232 . S
C5 O6 1.218 . S
O6 C5 1.218 . S
C7 O0 1.275 . S
C7 O2 1.255 . S
C8 O9 1.258 . S
C8 O10 1.256 . S
O9 Cd1 2.381 . S
O9 C8 1.258 . S
O10 Cd1 2.378 . S
O10 C8 1.256 . S
O11 Cd12 2.300 1_655 S
O11 C18 1.275 1_655 S
Cd12 O11 2.300 1_455 S
Cd12 O20 2.381 1_455 S
Cd12 O21 2.378 . S
O13 Cd14 2.385 . S
O13 C18 1.255 . S
Cd14 O13 2.385 . S
Cd14 O15 2.317 . S
O15 Cd14 2.317 . S
O15 C16 1.232 . S
C16 O15 1.232 . S
C16 O17 1.218 . S
O17 C16 1.218 . S
C18 O11 1.275 1_455 S
C18 O13 1.255 . S
C19 O20 1.258 1_455 S
C19 O21 1.256 . S
O20 Cd12 2.381 1_655 S
O20 C19 1.258 1_655 S
O21 Cd12 2.378 . S
O21 C19 1.256 . S
O22 Cd23 2.300 1_565 S
O22 C29 1.275 1_565 S
Cd23 O22 2.300 1_545 S
Cd23 O31 2.381 1_545 S
Cd23 O32 2.378 . S
O24 Cd25 2.385 . S
O24 C29 1.255 . S
Cd25 O24 2.385 . S
Cd25 O26 2.317 . S
O26 Cd25 2.317 . S
O26 C27 1.232 . S
C27 O26 1.232 . S
C27 O28 1.218 . S
O28 C27 1.218 . S
C29 O22 1.275 1_545 S
C29 O24 1.255 . S
C30 O31 1.258 1_545 S
C30 O32 1.256 . S
O31 Cd23 2.381 1_565 S
O31 C30 1.258 1_565 S
O32 Cd23 2.378 . S
O32 C30 1.256 . S
O33 Cd34 2.300 . S
O33 C40 1.275 . S
Cd34 O33 2.300 . S
Cd34 O42 2.381 . S
Cd34 O43 2.378 . S
O35 Cd36 2.385 . S
O35 C40 1.255 . S
Cd36 O35 2.385 . S
Cd36 O37 2.317 . S
O37 Cd36 2.317 . S
O37 C38 1.232 . S
C38 O37 1.232 . S
C38 O39 1.218 . S
O39 C38 1.218 . S
C40 O33 1.275 . S
C40 O35 1.255 . S
C41 O42 1.258 . S
C41 O43 1.256 . S
O42 Cd34 2.381 . S
O42 C41 1.258 . S
O43 Cd34 2.378 . S
O43 C41 1.256 . S
O44 Cd45 2.300 . S
O44 C51 1.275 . S
Cd45 O44 2.300 . S
Cd45 O53 2.381 . S
Cd45 O54 2.378 . S
O46 Cd47 2.385 1_554 S
O46 C51 1.255 . S
Cd47 O46 2.385 1_556 S
Cd47 O48 2.317 . S
O48 Cd47 2.317 . S
O48 C49 1.232 . S
C49 O48 1.232 . S
C49 O50 1.218 . S
O50 C49 1.218 . S
C51 O44 1.275 . S
C51 O46 1.255 . S
C52 O53 1.258 . S
C52 O54 1.256 . S
O53 Cd45 2.381 . S
O53 C52 1.258 . S
O54 Cd45 2.378 . S
O54 C52 1.256 . S
O55 Cd56 2.300 1_655 S
O55 C62 1.275 1_655 S
Cd56 O55 2.300 1_455 S
Cd56 O64 2.381 1_455 S
Cd56 O65 2.378 . S
O57 Cd58 2.385 1_554 S
O57 C62 1.255 . S
Cd58 O57 2.385 1_556 S
Cd58 O59 2.317 . S
O59 Cd58 2.317 . S
O59 C60 1.232 . S
C60 O59 1.232 . S
C60 O61 1.218 . S
O61 C60 1.218 . S
C62 O55 1.275 1_455 S
C62 O57 1.255 . S
C63 O64 1.258 1_455 S
C63 O65 1.256 . S
O64 Cd56 2.381 1_655 S
O64 C63 1.258 1_655 S
O65 Cd56 2.378 . S
O65 C63 1.256 . S
O66 Cd67 2.300 1_565 S
O66 C73 1.275 1_565 S
Cd67 O66 2.300 1_545 S
Cd67 O75 2.381 1_545 S
Cd67 O76 2.378 . S
O68 Cd69 2.385 1_554 S
O68 C73 1.255 . S
Cd69 O68 2.385 1_556 S
Cd69 O70 2.317 . S
O70 Cd69 2.317 . S
O70 C71 1.232 . S
C71 O70 1.232 . S
C71 O72 1.218 . S
O72 C71 1.218 . S
C73 O66 1.275 1_545 S
C73 O68 1.255 . S
C74 O75 1.258 1_545 S
C74 O76 1.256 . S
O75 Cd67 2.381 1_565 S
O75 C74 1.258 1_565 S
O76 Cd67 2.378 . S
O76 C74 1.256 . S
O77 Cd78 2.300 . S
O77 C84 1.275 . S
Cd78 O77 2.300 . S
Cd78 O86 2.381 . S
Cd78 O87 2.378 . S
O79 Cd80 2.385 1_554 S
O79 C84 1.255 . S
Cd80 O79 2.385 1_556 S
Cd80 O81 2.317 . S
O81 Cd80 2.317 . S
O81 C82 1.232 . S
C82 O81 1.232 . S
C82 O83 1.218 . S
O83 C82 1.218 . S
C84 O77 1.275 . S
C84 O79 1.255 . S
C85 O86 1.258 . S
C85 O87 1.256 . S
O86 Cd78 2.381 . S
O86 C85 1.258 . S
O87 Cd78 2.378 . S
O87 C85 1.256 . S
La88 C90 2.928 . S
La88 O108 2.521 . S
La88 O109 2.628 . S
La88 O110 2.554 . S
La88 O111 2.757 1_565 S
La88 O112 2.470 . S
La88 O117 2.482 1_455 S
La88 O119 2.503 1_565 S
La89 C99 2.928 . S
La89 O111 2.482 1_655 S
La89 O113 2.503 1_545 S
La89 O114 2.521 . S
La89 O115 2.628 . S
La89 O116 2.554 . S
La89 O117 2.757 1_545 S
La89 O118 2.470 . S
C90 La88 2.928 . S
C90 C91 1.503 . S
C90 O108 1.261 . S
C90 O109 1.243 . S
C91 C90 1.503 . S
C91 C92 1.394 . S
C91 C96 1.373 . S
C92 C91 1.394 . S
C92 C93 1.380 . S
C92 H120 0.930 . S
C93 C92 1.380 . S
C93 C94 1.376 1_556 S
C93 H121 0.930 1_556 S
C94 C93 1.376 1_554 S
C94 C95 1.370 . S
C95 C94 1.370 . S
C95 C96 1.396 1_554 S
C95 H122 0.929 1_455 S
C96 C91 1.373 . S
C96 C95 1.396 1_556 S
C96 H123 0.929 1_455 S
C97 O110 1.267 . S
C97 O111 1.273 1_565 S
C98 O112 1.258 1_655 S
C98 O113 1.256 . S
C99 La89 2.928 . S
C99 C100 1.503 . S
C99 O114 1.261 . S
C99 O115 1.243 . S
C100 C99 1.503 . S
C100 C101 1.394 . S
C100 C105 1.373 . S
C101 C100 1.394 . S
C101 C102 1.380 . S
C101 H124 0.930 . S
C102 C101 1.380 . S
C102 C103 1.376 . S
C102 H125 0.930 . S
C103 C102 1.376 . S
C103 C104 1.370 . S
C104 C103 1.370 . S
C104 C105 1.396 . S
C104 H126 0.929 1_655 S
C105 C100 1.373 . S
C105 C104 1.396 . S
C105 H127 0.929 1_655 S
C106 O116 1.240 . S
C106 O117 1.289 1_545 S
C107 O118 1.258 1_455 S
C107 O119 1.256 . S
O108 La88 2.521 . S
O108 C90 1.261 . S
O109 La88 2.628 . S
O109 C90 1.243 . S
O110 La88 2.554 . S
O110 C97 1.267 . S
O111 La88 2.757 1_545 S
O111 La89 2.482 1_455 S
O111 C97 1.273 1_545 S
O112 La88 2.470 . S
O112 C98 1.258 1_455 S
O113 La89 2.503 1_565 S
O113 C98 1.256 . S
O114 La89 2.521 . S
O114 C99 1.261 . S
O115 La89 2.628 . S
O115 C99 1.243 . S
O116 La89 2.554 . S
O116 C106 1.240 . S
O117 La88 2.482 1_655 S
O117 La89 2.757 1_565 S
O117 C106 1.289 1_565 S
O118 La89 2.470 . S
O118 C107 1.258 1_655 S
O119 La88 2.503 1_545 S
O119 C107 1.256 . S
H120 C92 0.930 . S
H121 C93 0.930 1_554 S
H122 C95 0.929 1_655 S
H123 C96 0.929 1_655 S
H124 C101 0.930 . S
H125 C102 0.930 . S
H126 C104 0.929 1_455 S
H127 C105 0.929 1_455 S
La128 C130 2.928 . S
La128 O148 2.521 . S
La128 O149 2.628 . S
La128 O150 2.554 . S
La128 O151 2.757 . S
La128 O152 2.470 . S
La128 O157 2.482 1_545 S
La128 O159 2.503 . S
La129 C139 2.928 . S
La129 O151 2.482 1_565 S
La129 O153 2.503 . S
La129 O154 2.521 . S
La129 O155 2.628 . S
La129 O156 2.554 . S
La129 O157 2.757 . S
La129 O158 2.470 . S
C130 La128 2.928 . S
C130 C131 1.503 . S
C130 O148 1.261 . S
C130 O149 1.243 . S
C131 C130 1.503 . S
C131 C132 1.394 . S
C131 C136 1.373 . S
C132 C131 1.394 . S
C132 C133 1.380 . S
C132 H160 0.930 . S
C133 C132 1.380 . S
C133 C134 1.376 1_556 S
C133 H161 0.930 1_556 S
C134 C133 1.376 1_554 S
C134 C135 1.370 . S
C135 C134 1.370 . S
C135 C136 1.396 1_554 S
C135 H162 0.929 1_545 S
C136 C131 1.373 . S
C136 C135 1.396 1_556 S
C136 H163 0.929 1_545 S
C137 O150 1.240 . S
C137 O151 1.289 . S
C138 O152 1.258 1_565 S
C138 O153 1.256 . S
C139 La129 2.928 . S
C139 C140 1.503 . S
C139 O154 1.261 . S
C139 O155 1.243 . S
C140 C139 1.503 . S
C140 C141 1.394 . S
C140 C145 1.373 . S
C141 C140 1.394 . S
C141 C142 1.380 . S
C141 H164 0.930 . S
C142 C141 1.380 . S
C142 C143 1.376 . S
C142 H165 0.930 . S
C143 C142 1.376 . S
C143 C144 1.370 . S
C144 C143 1.370 . S
C144 C145 1.396 . S
C144 H166 0.929 1_565 S
C145 C140 1.373 . S
C145 C144 1.396 . S
C145 H167 0.929 1_565 S
C146 O156 1.240 . S
C146 O157 1.289 . S
C147 O158 1.258 1_545 S
C147 O159 1.256 . S
O148 La128 2.521 . S
O148 C130 1.261 . S
O149 La128 2.628 . S
O149 C130 1.243 . S
O150 La128 2.554 . S
O150 C137 1.240 . S
O151 La128 2.757 . S
O151 La129 2.482 1_545 S
O151 C137 1.289 . S
O152 La128 2.470 . S
O152 C138 1.258 1_545 S
O153 La129 2.503 . S
O153 C138 1.256 . S
O154 La129 2.521 . S
O154 C139 1.261 . S
O155 La129 2.628 . S
O155 C139 1.243 . S
O156 La129 2.554 . S
O156 C146 1.240 . S
O157 La128 2.482 1_565 S
O157 La129 2.757 . S
O157 C146 1.289 . S
O158 La129 2.470 . S
O158 C147 1.258 1_565 S
O159 La128 2.503 . S
O159 C147 1.256 . S
H160 C132 0.930 . S
H161 C133 0.930 1_554 S
H162 C135 0.929 1_565 S
H163 C136 0.929 1_565 S
H164 C141 0.930 . S
H165 C142 0.930 . S
H166 C144 0.929 1_545 S
H167 C145 0.929 1_545 S
La168 C170 2.928 . S
La168 O188 2.521 . S
La168 O189 2.628 . S
La168 O190 2.554 . S
La168 O191 2.757 . S
La168 O192 2.470 . S
La168 O197 2.482 . S
La168 O199 2.503 . S
La169 C179 2.928 . S
La169 O191 2.482 . S
La169 O193 2.503 . S
La169 O194 2.521 . S
La169 O195 2.628 . S
La169 O196 2.554 . S
La169 O197 2.757 . S
La169 O198 2.470 . S
C170 La168 2.928 . S
C170 C171 1.503 . S
C170 O188 1.261 . S
C170 O189 1.243 . S
C171 C170 1.503 . S
C171 C172 1.394 . S
C171 C176 1.373 . S
C172 C171 1.394 . S
C172 C173 1.380 . S
C172 H200 0.930 . S
C173 C172 1.380 . S
C173 C174 1.376 1_556 S
C173 H201 0.930 1_556 S
C174 C173 1.376 1_554 S
C174 C175 1.370 . S
C175 C174 1.370 . S
C175 C176 1.396 1_554 S
C175 H202 0.929 . S
C176 C171 1.373 . S
C176 C175 1.396 1_556 S
C176 H203 0.929 . S
C177 O190 1.240 . S
C177 O191 1.289 . S
C178 O192 1.258 . S
C178 O193 1.256 . S
C179 La169 2.928 . S
C179 C180 1.503 . S
C179 O194 1.261 . S
C179 O195 1.243 . S
C180 C179 1.503 . S
C180 C181 1.394 . S
C180 C185 1.373 . S
C181 C180 1.394 . S
C181 C182 1.380 . S
C181 H204 0.930 . S
C182 C181 1.380 . S
C182 C183 1.376 . S
C182 H205 0.930 . S
C183 C182 1.376 . S
C183 C184 1.370 . S
C184 C183 1.370 . S
C184 C185 1.396 . S
C184 H206 0.929 . S
C185 C180 1.373 . S
C185 C184 1.396 . S
C185 H207 0.929 . S
C186 O196 1.240 . S
C186 O197 1.289 . S
C187 O198 1.258 . S
C187 O199 1.256 . S
O188 La168 2.521 . S
O188 C170 1.261 . S
O189 La168 2.628 . S
O189 C170 1.243 . S
O190 La168 2.554 . S
O190 C177 1.240 . S
O191 La168 2.757 . S
O191 La169 2.482 . S
O191 C177 1.289 . S
O192 La168 2.470 . S
O192 C178 1.258 . S
O193 La169 2.503 . S
O193 C178 1.256 . S
O194 La169 2.521 . S
O194 C179 1.261 . S
O195 La169 2.628 . S
O195 C179 1.243 . S
O196 La169 2.554 . S
O196 C186 1.240 . S
O197 La168 2.482 . S
O197 La169 2.757 . S
O197 C186 1.289 . S
O198 La169 2.470 . S
O198 C187 1.258 . S
O199 La168 2.503 . S
O199 C187 1.256 . S
H200 C172 0.930 . S
H201 C173 0.930 1_554 S
H202 C175 0.929 . S
H203 C176 0.929 . S
H204 C181 0.930 . S
H205 C182 0.930 . S
H206 C184 0.929 . S
H207 C185 0.929 . S
La208 C210 2.928 . S
La208 O228 2.521 . S
La208 O229 2.628 . S
La208 O230 2.554 . S
La208 O231 2.757 1_655 S
La208 O232 2.470 . S
La208 O237 2.482 . S
La208 O239 2.503 1_655 S
La209 C219 2.928 . S
La209 O231 2.482 . S
La209 O233 2.503 1_455 S
La209 O234 2.521 . S
La209 O235 2.628 . S
La209 O236 2.554 . S
La209 O237 2.757 1_455 S
La209 O238 2.470 . S
C210 La208 2.928 . S
C210 C211 1.503 . S
C210 O228 1.261 . S
C210 O229 1.243 . S
C211 C210 1.503 . S
C211 C212 1.394 . S
C211 C216 1.373 . S
C212 C211 1.394 . S
C212 C213 1.380 . S
C212 H240 0.930 . S
C213 C212 1.380 . S
C213 C214 1.376 1_556 S
C213 H241 0.930 1_556 S
C214 C213 1.376 1_554 S
C214 C215 1.370 . S
C215 C214 1.370 . S
C215 C216 1.396 1_554 S
C215 H242 0.929 . S
C216 C211 1.373 . S
C216 C215 1.396 1_556 S
C216 H243 0.929 . S
C217 O230 1.263 . S
C217 O231 1.276 1_655 S
C218 O232 1.258 . S
C218 O233 1.256 . S
C219 La209 2.928 . S
C219 C220 1.503 . S
C219 O234 1.261 . S
C219 O235 1.243 . S
C220 C219 1.503 . S
C220 C221 1.394 . S
C220 C225 1.373 . S
C221 C220 1.394 . S
C221 C222 1.380 . S
C221 H244 0.930 . S
C222 C221 1.380 . S
C222 C223 1.376 . S
C222 H245 0.930 . S
C223 C222 1.376 . S
C223 C224 1.370 . S
C224 C223 1.370 . S
C224 C225 1.396 . S
C224 H246 0.929 . S
C225 C220 1.373 . S
C225 C224 1.396 . S
C225 H247 0.929 . S
C226 O236 1.240 . S
C226 O237 1.289 1_455 S
C227 O238 1.258 . S
C227 O239 1.256 . S
O228 La208 2.521 . S
O228 C210 1.261 . S
O229 La208 2.628 . S
O229 C210 1.243 . S
O230 La208 2.554 . S
O230 C217 1.263 . S
O231 La208 2.757 1_455 S
O231 La209 2.482 . S
O231 C217 1.276 1_455 S
O232 La208 2.470 . S
O232 C218 1.258 . S
O233 La209 2.503 1_655 S
O233 C218 1.256 . S
O234 La209 2.521 . S
O234 C219 1.261 . S
O235 La209 2.628 . S
O235 C219 1.243 . S
O236 La209 2.554 . S
O236 C226 1.240 . S
O237 La208 2.482 . S
O237 La209 2.757 1_655 S
O237 C226 1.289 1_655 S
O238 La209 2.470 . S
O238 C227 1.258 . S
O239 La208 2.503 1_455 S
O239 C227 1.256 . S
H240 C212 0.930 . S
H241 C213 0.930 1_554 S
H242 C215 0.929 . S
H243 C216 0.929 . S
H244 C221 0.930 . S
H245 C222 0.930 . S
H246 C224 0.929 . S
H247 C225 0.929 . S
C248 C249 1.391 . S
C248 C250 1.394 . S
C248 H264 0.931 . S
C249 C248 1.391 . S
C249 C253 1.376 1_545 S
C250 C248 1.394 . S
C250 C251 1.369 . S
C250 C254 1.531 . S
C251 C250 1.369 . S
C251 C252 1.410 1_545 S
C251 C259 1.503 . S
C252 C251 1.410 1_565 S
C252 C253 1.392 . S
C252 C255 1.511 . S
C253 C249 1.376 1_565 S
C253 C252 1.392 . S
C253 H265 0.929 . S
C254 C250 1.531 . S
C254 H266 0.960 . S
C254 H267 0.962 . S
C254 H268 0.960 . S
C255 C252 1.511 . S
C255 H269 0.961 . S
C255 H270 0.961 . S
C255 H271 0.961 . S
C256 C257 1.370 1_565 S
C256 C258 1.363 . S
C256 H272 0.931 . S
C257 C256 1.370 1_545 S
C257 C261 1.408 . S
C258 C256 1.363 . S
C258 C259 1.370 1_565 S
C258 C262 1.524 . S
C259 C251 1.503 . S
C259 C258 1.370 1_545 S
C259 C260 1.403 . S
C260 C259 1.403 . S
C260 C261 1.404 . S
C260 C263 1.539 . S
C261 C257 1.408 . S
C261 C260 1.404 . S
C261 H273 0.930 . S
C262 C258 1.524 . S
C262 H274 0.956 . S
C262 H275 0.961 . S
C262 H276 0.961 . S
C263 C260 1.539 . S
C263 H277 0.958 . S
C263 H278 0.961 . S
C263 H279 0.960 . S
H264 C248 0.931 . S
H265 C253 0.929 . S
H266 C254 0.960 . S
H267 C254 0.962 . S
H268 C254 0.960 . S
H269 C255 0.961 . S
H270 C255 0.961 . S
H271 C255 0.961 . S
H272 C256 0.931 . S
H273 C261 0.930 . S
H274 C262 0.956 . S
H275 C262 0.961 . S
H276 C262 0.961 . S
H277 C263 0.958 . S
H278 C263 0.961 . S
H279 C263 0.960 . S
C280 C281 1.391 . S
C280 C282 1.394 . S
C280 H296 0.931 . S
C281 C280 1.391 . S
C281 C285 1.376 . S
C282 C280 1.394 . S
C282 C283 1.369 . S
C282 C286 1.531 . S
C283 C282 1.369 . S
C283 C284 1.410 . S
C283 C291 1.503 . S
C284 C283 1.410 . S
C284 C285 1.392 . S
C284 C287 1.511 . S
C285 C281 1.376 . S
C285 C284 1.392 . S
C285 H297 0.929 . S
C286 C282 1.531 . S
C286 H298 0.960 . S
C286 H299 0.962 . S
C286 H300 0.960 . S
C287 C284 1.511 . S
C287 H301 0.961 . S
C287 H302 0.961 . S
C287 H303 0.961 . S
C288 C289 1.370 . S
C288 C290 1.363 . S
C288 H304 0.931 . S
C289 C288 1.370 . S
C289 C293 1.408 . S
C290 C288 1.363 . S
C290 C291 1.370 . S
C290 C294 1.524 . S
C291 C283 1.503 . S
C291 C290 1.370 . S
C291 C292 1.403 . S
C292 C291 1.403 . S
C292 C293 1.404 . S
C292 C295 1.539 . S
C293 C289 1.408 . S
C293 C292 1.404 . S
C293 H305 0.930 . S
C294 C290 1.524 . S
C294 H306 0.956 . S
C294 H307 0.961 . S
C294 H308 0.961 . S
C295 C292 1.539 . S
C295 H309 0.958 . S
C295 H310 0.961 . S
C295 H311 0.960 . S
H296 C280 0.931 . S
H297 C285 0.929 . S
H298 C286 0.960 . S
H299 C286 0.962 . S
H300 C286 0.960 . S
H301 C287 0.961 . S
H302 C287 0.961 . S
H303 C287 0.961 . S
H304 C288 0.931 . S
H305 C293 0.930 . S
H306 C294 0.956 . S
H307 C294 0.961 . S
H308 C294 0.961 . S
H309 C295 0.958 . S
H310 C295 0.961 . S
H311 C295 0.960 . S
C312 C313 1.391 . S
C312 C314 1.394 . S
C312 H328 0.931 . S
C313 C312 1.391 . S
C313 C317 1.376 . S
C314 C312 1.394 . S
C314 C315 1.369 . S
C314 C318 1.531 . S
C315 C314 1.369 . S
C315 C316 1.410 . S
C315 C323 1.503 . S
C316 C315 1.410 . S
C316 C317 1.392 . S
C316 C319 1.511 . S
C317 C313 1.376 . S
C317 C316 1.392 . S
C317 H329 0.929 . S
C318 C314 1.531 . S
C318 H330 0.960 . S
C318 H331 0.962 . S
C318 H332 0.960 . S
C319 C316 1.511 . S
C319 H333 0.961 . S
C319 H334 0.961 . S
C319 H335 0.961 . S
C320 C321 1.370 . S
C320 C322 1.363 . S
C320 H336 0.931 . S
C321 C320 1.370 . S
C321 C325 1.408 . S
C322 C320 1.363 . S
C322 C323 1.370 . S
C322 C326 1.524 . S
C323 C315 1.503 . S
C323 C322 1.370 . S
C323 C324 1.403 . S
C324 C323 1.403 . S
C324 C325 1.404 . S
C324 C327 1.539 . S
C325 C321 1.408 . S
C325 C324 1.404 . S
C325 H337 0.930 . S
C326 C322 1.524 . S
C326 H338 0.956 . S
C326 H339 0.961 . S
C326 H340 0.961 . S
C327 C324 1.539 . S
C327 H341 0.958 . S
C327 H342 0.961 . S
C327 H343 0.960 . S
H328 C312 0.931 . S
H329 C317 0.929 . S
H330 C318 0.960 . S
H331 C318 0.962 . S
H332 C318 0.960 . S
H333 C319 0.961 . S
H334 C319 0.961 . S
H335 C319 0.961 . S
H336 C320 0.931 . S
H337 C325 0.930 . S
H338 C326 0.956 . S
H339 C326 0.961 . S
H340 C326 0.961 . S
H341 C327 0.958 . S
H342 C327 0.961 . S
H343 C327 0.960 . S
C344 C345 1.391 . S
C344 C346 1.394 . S
C344 H360 0.931 . S
C345 C344 1.391 . S
C345 C349 1.376 . S
C346 C344 1.394 . S
C346 C347 1.369 . S
C346 C350 1.531 . S
C347 C346 1.369 . S
C347 C348 1.410 . S
C347 C355 1.503 . S
C348 C347 1.410 . S
C348 C349 1.392 . S
C348 C351 1.511 . S
C349 C345 1.376 . S
C349 C348 1.392 . S
C349 H361 0.929 . S
C350 C346 1.531 . S
C350 H362 0.960 . S
C350 H363 0.962 1_655 S
C350 H364 0.960 . S
C351 C348 1.511 . S
C351 H365 0.949 1_655 S
C351 H366 0.940 1_655 S
C351 H367 0.961 . S
C352 C353 1.397 . S
C352 C354 1.363 . S
C352 H368 0.931 . S
C353 C352 1.397 . S
C353 C357 1.379 1_455 S
C354 C352 1.363 . S
C354 C355 1.370 1_455 S
C354 C358 1.524 . S
C355 C347 1.503 . S
C355 C354 1.370 1_655 S
C355 C356 1.403 . S
C356 C355 1.403 . S
C356 C357 1.404 . S
C356 C359 1.539 . S
C357 C353 1.379 1_655 S
C357 C356 1.404 . S
C357 H369 0.930 . S
C358 C354 1.524 . S
C358 H370 0.956 . S
C358 H371 0.961 . S
C358 H372 0.961 . S
C359 C356 1.539 . S
C359 H373 0.958 . S
C359 H374 0.961 . S
C359 H375 0.960 . S
H360 C344 0.931 . S
H361 C349 0.929 . S
H362 C350 0.960 . S
H363 C350 0.962 1_455 S
H364 C350 0.960 . S
H365 C351 0.949 1_455 S
H366 C351 0.940 1_455 S
H367 C351 0.961 . S
H368 C352 0.931 . S
H369 C357 0.930 . S
H370 C358 0.956 . S
H371 C358 0.961 . S
H372 C358 0.961 . S
H373 C359 0.958 . S
H374 C359 0.961 . S
H375 C359 0.960 . S
C376 C377 1.391 . S
C376 C378 1.394 . S
C376 H392 0.931 . S
C377 C376 1.391 . S
C377 C381 1.376 1_545 S
C378 C376 1.394 . S
C378 C379 1.369 . S
C378 C382 1.531 . S
C379 C378 1.369 . S
C379 C380 1.410 1_545 S
C379 C387 1.503 . S
C380 C379 1.410 1_565 S
C380 C381 1.392 . S
C380 C383 1.511 . S
C381 C377 1.376 1_565 S
C381 C380 1.392 . S
C381 H393 0.929 . S
C382 C378 1.531 . S
C382 H394 0.960 1_554 S
C382 H395 0.962 1_554 S
C382 H396 0.960 . S
C383 C380 1.511 . S
C383 H397 0.961 . S
C383 H398 0.961 . S
C383 H399 0.961 . S
C384 C385 1.387 . S
C384 C386 1.363 . S
C384 H400 0.931 . S
C385 C384 1.387 . S
C385 C389 1.390 1_565 S
C386 C384 1.363 . S
C386 C387 1.370 1_566 S
C386 C390 1.524 . S
C387 C379 1.503 . S
C387 C386 1.370 1_544 S
C387 C388 1.404 . S
C388 C387 1.404 . S
C388 C389 1.398 1_554 S
C388 C391 1.544 . S
C389 C385 1.390 1_545 S
C389 C388 1.398 1_556 S
C389 H401 0.930 . S
C390 C386 1.524 . S
C390 H402 0.956 . S
C390 H403 0.961 1_556 S
C390 H404 0.961 . S
C391 C388 1.544 . S
C391 H405 0.958 . S
C391 H406 0.961 . S
C391 H407 0.960 . S
H392 C376 0.931 . S
H393 C381 0.929 . S
H394 C382 0.960 1_556 S
H395 C382 0.962 1_556 S
H396 C382 0.960 . S
H397 C383 0.961 . S
H398 C383 0.961 . S
H399 C383 0.961 . S
H400 C384 0.931 . S
H401 C389 0.930 . S
H402 C390 0.956 . S
H403 C390 0.961 1_554 S
H404 C390 0.961 . S
H405 C391 0.958 . S
H406 C391 0.961 . S
H407 C391 0.960 . S
C408 C409 1.391 . S
C408 C410 1.394 . S
C408 H424 0.931 . S
C409 C408 1.391 . S
C409 C413 1.376 . S
C410 C408 1.394 . S
C410 C411 1.369 . S
C410 C414 1.531 . S
C411 C410 1.369 . S
C411 C412 1.410 . S
C411 C419 1.503 . S
C412 C411 1.410 . S
C412 C413 1.392 . S
C412 C415 1.511 . S
C413 C409 1.376 . S
C413 C412 1.392 . S
C413 H425 0.929 . S
C414 C410 1.531 . S
C414 H426 0.960 . S
C414 H427 0.962 . S
C414 H428 0.960 . S
C415 C412 1.511 . S
C415 H429 0.961 . S
C415 H430 0.961 1_554 S
C415 H431 0.961 . S
C416 C417 1.370 . S
C416 C418 1.363 . S
C416 H432 0.931 . S
C417 C416 1.370 . S
C417 C421 1.408 . S
C418 C416 1.363 . S
C418 C419 1.370 1_556 S
C418 C422 1.524 . S
C419 C411 1.503 . S
C419 C418 1.370 1_554 S
C419 C420 1.403 . S
C420 C419 1.403 . S
C420 C421 1.404 1_554 S
C420 C423 1.539 . S
C421 C417 1.408 . S
C421 C420 1.404 1_556 S
C421 H433 0.930 . S
C422 C418 1.524 . S
C422 H434 0.956 1_556 S
C422 H435 0.961 . S
C422 H436 0.961 . S
C423 C420 1.539 . S
C423 H437 0.958 . S
C423 H438 0.961 . S
C423 H439 0.960 . S
H424 C408 0.931 . S
H425 C413 0.929 . S
H426 C414 0.960 . S
H427 C414 0.962 . S
H428 C414 0.960 . S
H429 C415 0.961 . S
H430 C415 0.961 1_556 S
H431 C415 0.961 . S
H432 C416 0.931 . S
H433 C421 0.930 . S
H434 C422 0.956 1_554 S
H435 C422 0.961 . S
H436 C422 0.961 . S
H437 C423 0.958 . S
H438 C423 0.961 . S
H439 C423 0.960 . S
C440 C441 1.391 . S
C440 C442 1.394 . S
C440 H456 0.931 . S
C441 C440 1.391 . S
C441 C445 1.376 . S
C442 C440 1.394 . S
C442 C443 1.369 . S
C442 C446 1.531 . S
C443 C442 1.369 . S
C443 C444 1.410 . S
C443 C451 1.503 . S
C444 C443 1.410 . S
C444 C445 1.392 . S
C444 C447 1.511 . S
C445 C441 1.376 . S
C445 C444 1.392 . S
C445 H457 0.929 . S
C446 C442 1.531 . S
C446 H458 0.960 . S
C446 H459 0.962 . S
C446 H460 0.960 . S
C447 C444 1.511 . S
C447 H461 0.961 . S
C447 H462 0.961 1_554 S
C447 H463 0.961 1_554 S
C448 C449 1.370 . S
C448 C450 1.363 1_556 S
C448 H464 0.931 . S
C449 C448 1.370 . S
C449 C453 1.408 . S
C450 C448 1.363 1_554 S
C450 C451 1.370 . S
C450 C454 1.524 . S
C451 C443 1.503 . S
C451 C450 1.370 . S
C451 C452 1.403 1_554 S
C452 C451 1.403 1_556 S
C452 C453 1.404 . S
C452 C455 1.539 . S
C453 C449 1.408 . S
C453 C452 1.404 . S
C453 H465 0.930 . S
C454 C450 1.524 . S
C454 H466 0.956 . S
C454 H467 0.961 . S
C454 H468 0.961 . S
C455 C452 1.539 . S
C455 H469 0.958 . S
C455 H470 0.961 . S
C455 H471 0.960 . S
H456 C440 0.931 . S
H457 C445 0.929 . S
H458 C446 0.960 . S
H459 C446 0.962 . S
H460 C446 0.960 . S
H461 C447 0.961 . S
H462 C447 0.961 1_556 S
H463 C447 0.961 1_556 S
H464 C448 0.931 . S
H465 C453 0.930 . S
H466 C454 0.956 . S
H467 C454 0.961 . S
H468 C454 0.961 . S
H469 C455 0.958 . S
H470 C455 0.961 . S
H471 C455 0.960 . S
C472 C473 1.391 1_455 S
C472 C474 1.394 . S
C472 H488 0.931 . S
C473 C472 1.391 1_655 S
C473 C477 1.376 . S
C474 C472 1.394 . S
C474 C475 1.369 1_455 S
C474 C478 1.531 . S
C475 C474 1.369 1_655 S
C475 C476 1.410 . S
C475 C483 1.503 . S
C476 C475 1.410 . S
C476 C477 1.392 . S
C476 C479 1.511 . S
C477 C473 1.376 . S
C477 C476 1.392 . S
C477 H489 0.929 . S
C478 C474 1.531 . S
C478 H490 0.960 . S
C478 H491 0.962 . S
C478 H492 0.960 . S
C479 C476 1.511 . S
C479 H493 0.961 . S
C479 H494 0.961 1_554 S
C479 H495 0.961 . S
C480 C481 1.370 1_455 S
C480 C482 1.363 . S
C480 H496 0.931 . S
C481 C480 1.370 1_655 S
C481 C485 1.408 . S
C482 C480 1.363 . S
C482 C483 1.370 1_456 S
C482 C486 1.524 . S
C483 C475 1.503 . S
C483 C482 1.370 1_654 S
C483 C484 1.403 . S
C484 C483 1.403 . S
C484 C485 1.404 1_554 S
C484 C487 1.539 . S
C485 C481 1.408 . S
C485 C484 1.404 1_556 S
C485 H497 0.930 . S
C486 C482 1.524 . S
C486 H498 0.956 1_556 S
C486 H499 0.961 . S
C486 H500 0.961 . S
C487 C484 1.539 . S
C487 H501 0.958 . S
C487 H502 0.961 . S
C487 H503 0.960 . S
H488 C472 0.931 . S
H489 C477 0.929 . S
H490 C478 0.960 . S
H491 C478 0.962 . S
H492 C478 0.960 . S
H493 C479 0.961 . S
H494 C479 0.961 1_556 S
H495 C479 0.961 . S
H496 C480 0.931 . S
H497 C485 0.930 . S
H498 C486 0.956 1_554 S
H499 C486 0.961 . S
H500 C486 0.961 . S
H501 C487 0.958 . S
H502 C487 0.961 . S
H503 C487 0.960 . S
C504 C505 1.391 . S
C504 C506 1.394 1_455 S
C504 H520 0.931 . S
C505 C504 1.391 . S
C505 C509 1.369 1_455 S
C506 C504 1.394 1_655 S
C506 C507 1.369 . S
C506 C510 1.531 . S
C507 C506 1.369 . S
C507 C508 1.410 . S
C507 C515 1.503 . S
C508 C507 1.410 . S
C508 C509 1.402 . S
C508 C511 1.511 . S
C509 C505 1.369 1_655 S
C509 C508 1.402 . S
C509 H521 0.928 . S
C510 C506 1.531 . S
C510 H522 0.960 1_655 S
C510 H523 0.962 . S
C510 H524 0.960 1_655 S
C511 C508 1.511 . S
C511 H525 0.961 . S
C511 H526 0.961 . S
C511 H527 0.961 1_655 S
C512 C513 1.370 . S
C512 C514 1.363 . S
C512 H528 0.931 . S
C513 C512 1.370 . S
C513 C517 1.408 . S
C514 C512 1.363 . S
C514 C515 1.370 . S
C514 C518 1.524 . S
C515 C507 1.503 . S
C515 C514 1.370 . S
C515 C516 1.431 . S
C516 C515 1.431 . S
C516 C517 1.419 . S
C516 C519 1.496 1_655 S
C517 C513 1.408 . S
C517 C516 1.419 . S
C517 H529 0.901 1_655 S
C518 C514 1.524 . S
C518 H530 0.956 . S
C518 H531 0.961 . S
C518 H532 0.961 . S
C519 C516 1.496 1_455 S
C519 H533 0.958 . S
C519 H534 0.961 . S
C519 H535 0.960 . S
H520 C504 0.931 . S
H521 C509 0.928 . S
H522 C510 0.960 1_455 S
H523 C510 0.962 . S
H524 C510 0.960 1_455 S
H525 C511 0.961 . S
H526 C511 0.961 . S
H527 C511 0.961 1_455 S
H528 C512 0.931 . S
H529 C517 0.901 1_455 S
H530 C518 0.956 . S
H531 C518 0.961 . S
H532 C518 0.961 . S
H533 C519 0.958 . S
H534 C519 0.961 . S
H535 C519 0.960 . S
C536 C537 1.404 . S
C536 C538 1.394 . S
C536 H552 0.931 . S
C537 C536 1.404 . S
C537 C541 1.369 1_565 S
C538 C536 1.394 . S
C538 C539 1.369 . S
C538 C542 1.531 . S
C539 C538 1.369 . S
C539 C540 1.395 1_565 S
C539 C547 1.503 . S
C540 C539 1.395 1_545 S
C540 C541 1.399 . S
C540 C543 1.519 . S
C541 C537 1.369 1_545 S
C541 C540 1.399 . S
C541 H553 0.929 . S
C542 C538 1.531 . S
C542 H554 0.960 . S
C542 H555 0.962 . S
C542 H556 0.960 . S
C543 C540 1.519 . S
C543 H557 0.961 . S
C543 H558 0.961 . S
C543 H559 0.961 . S
C544 C545 1.370 . S
C544 C546 1.363 . S
C544 H560 0.931 . S
C545 C544 1.370 . S
C545 C549 1.408 . S
C546 C544 1.363 . S
C546 C547 1.370 . S
C546 C550 1.524 1_565 S
C547 C539 1.503 . S
C547 C546 1.370 . S
C547 C548 1.403 . S
C548 C547 1.403 . S
C548 C549 1.404 . S
C548 C551 1.539 . S
C549 C545 1.408 . S
C549 C548 1.404 . S
C549 H561 0.930 . S
C550 C546 1.524 1_545 S
C550 H562 0.956 . S
C550 H563 0.961 . S
C550 H564 0.961 . S
C551 C548 1.539 . S
C551 H565 0.958 . S
C551 H566 0.961 . S
C551 H567 0.960 . S
H552 C536 0.931 . S
H553 C541 0.929 . S
H554 C542 0.960 . S
H555 C542 0.962 . S
H556 C542 0.960 . S
H557 C543 0.961 . S
H558 C543 0.961 . S
H559 C543 0.961 . S
H560 C544 0.931 . S
H561 C549 0.930 . S
H562 C550 0.956 . S
H563 C550 0.961 . S
H564 C550 0.961 . S
H565 C551 0.958 . S
H566 C551 0.961 . S
H567 C551 0.960 . S
C568 C569 1.391 . S
C568 C570 1.394 . S
C568 H584 0.931 . S
C569 C568 1.391 . S
C569 C573 1.376 . S
C570 C568 1.394 . S
C570 C571 1.369 . S
C570 C574 1.531 . S
C571 C570 1.369 . S
C571 C572 1.410 . S
C571 C579 1.503 . S
C572 C571 1.410 . S
C572 C573 1.392 . S
C572 C575 1.511 . S
C573 C569 1.376 . S
C573 C572 1.392 . S
C573 H585 0.929 . S
C574 C570 1.531 . S
C574 H586 0.960 . S
C574 H587 0.962 . S
C574 H588 0.960 . S
C575 C572 1.511 . S
C575 H589 0.961 . S
C575 H590 0.961 . S
C575 H591 0.961 . S
C576 C577 1.370 . S
C576 C578 1.363 . S
C576 H592 0.931 . S
C577 C576 1.370 . S
C577 C581 1.408 . S
C578 C576 1.363 . S
C578 C579 1.370 . S
C578 C582 1.524 . S
C579 C571 1.503 . S
C579 C578 1.370 . S
C579 C580 1.403 . S
C580 C579 1.403 . S
C580 C581 1.404 . S
C580 C583 1.539 . S
C581 C577 1.408 . S
C581 C580 1.404 . S
C581 H593 0.930 . S
C582 C578 1.524 . S
C582 H594 0.956 . S
C582 H595 0.961 . S
C582 H596 0.961 . S
C583 C580 1.539 . S
C583 H597 0.958 . S
C583 H598 0.961 . S
C583 H599 0.960 . S
H584 C568 0.931 . S
H585 C573 0.929 . S
H586 C574 0.960 . S
H587 C574 0.962 . S
H588 C574 0.960 . S
H589 C575 0.961 . S
H590 C575 0.961 . S
H591 C575 0.961 . S
H592 C576 0.931 . S
H593 C581 0.930 . S
H594 C582 0.956 . S
H595 C582 0.961 . S
H596 C582 0.961 . S
H597 C583 0.958 . S
H598 C583 0.961 . S
H599 C583 0.960 . S
C600 C601 1.391 . S
C600 C602 1.394 . S
C600 H616 0.931 . S
C601 C600 1.391 . S
C601 C605 1.376 . S
C602 C600 1.394 . S
C602 C603 1.369 . S
C602 C606 1.531 . S
C603 C602 1.369 . S
C603 C604 1.410 . S
C603 C611 1.503 . S
C604 C603 1.410 . S
C604 C605 1.392 . S
C604 C607 1.511 . S
C605 C601 1.376 . S
C605 C604 1.392 . S
C605 H617 0.929 . S
C606 C602 1.531 . S
C606 H618 0.960 . S
C606 H619 0.962 . S
C606 H620 0.960 . S
C607 C604 1.511 . S
C607 H621 0.961 . S
C607 H622 0.961 . S
C607 H623 0.961 . S
C608 C609 1.370 . S
C608 C610 1.363 . S
C608 H624 0.931 . S
C609 C608 1.370 . S
C609 C613 1.408 . S
C610 C608 1.363 . S
C610 C611 1.370 . S
C610 C614 1.524 . S
C611 C603 1.503 . S
C611 C610 1.370 . S
C611 C612 1.403 . S
C612 C611 1.403 . S
C612 C613 1.404 . S
C612 C615 1.539 . S
C613 C609 1.408 . S
C613 C612 1.404 . S
C613 H625 0.930 . S
C614 C610 1.524 . S
C614 H626 0.956 . S
C614 H627 0.961 . S
C614 H628 0.961 . S
C615 C612 1.539 . S
C615 H629 0.958 . S
C615 H630 0.961 . S
C615 H631 0.960 . S
H616 C600 0.931 . S
H617 C605 0.929 . S
H618 C606 0.960 . S
H619 C606 0.962 . S
H620 C606 0.960 . S
H621 C607 0.961 . S
H622 C607 0.961 . S
H623 C607 0.961 . S
H624 C608 0.931 . S
H625 C613 0.930 . S
H626 C614 0.956 . S
H627 C614 0.961 . S
H628 C614 0.961 . S
H629 C615 0.958 . S
H630 C615 0.961 . S
H631 C615 0.960 . S
C632 C633 1.387 1_455 S
C632 C634 1.401 . S
C632 H648 0.928 1_455 S
C633 C632 1.387 1_655 S
C633 C637 1.376 . S
C634 C632 1.401 . S
C634 C635 1.369 . S
C634 C638 1.531 . S
C635 C634 1.369 . S
C635 C636 1.410 . S
C635 C643 1.503 . S
C636 C635 1.410 . S
C636 C637 1.392 1_455 S
C636 C639 1.511 . S
C637 C633 1.376 . S
C637 C636 1.392 1_655 S
C637 H649 0.929 . S
C638 C634 1.531 . S
C638 H650 0.960 . S
C638 H651 0.962 . S
C638 H652 0.960 . S
C639 C636 1.511 . S
C639 H653 0.961 . S
C639 H654 0.961 . S
C639 H655 0.961 1_455 S
C640 C641 1.370 . S
C640 C642 1.363 . S
C640 H656 0.931 . S
C641 C640 1.370 . S
C641 C645 1.408 . S
C642 C640 1.363 . S
C642 C643 1.370 . S
C642 C646 1.524 . S
C643 C635 1.503 . S
C643 C642 1.370 . S
C643 C644 1.433 . S
C644 C643 1.433 . S
C644 C645 1.420 . S
C644 C647 1.493 1_455 S
C645 C641 1.408 . S
C645 C644 1.420 . S
C645 H657 0.900 1_455 S
C646 C642 1.524 . S
C646 H658 0.956 . S
C646 H659 0.961 . S
C646 H660 0.961 . S
C647 C644 1.493 1_655 S
C647 H661 0.958 . S
C647 H662 0.961 . S
C647 H663 0.960 . S
H648 C632 0.928 1_655 S
H649 C637 0.929 . S
H650 C638 0.960 . S
H651 C638 0.962 . S
H652 C638 0.960 . S
H653 C639 0.961 . S
H654 C639 0.961 . S
H655 C639 0.961 1_655 S
H656 C640 0.931 . S
H657 C645 0.900 1_655 S
H658 C646 0.956 . S
H659 C646 0.961 . S
H660 C646 0.961 . S
H661 C647 0.958 . S
H662 C647 0.961 . S
H663 C647 0.960 . S
C664 C665 1.391 1_545 S
C664 C666 1.394 . S
C664 H680 0.931 . S
C665 C664 1.391 1_565 S
C665 C669 1.376 . S
C666 C664 1.394 . S
C666 C667 1.369 . S
C666 C670 1.531 . S
C667 C666 1.369 . S
C667 C668 1.410 1_545 S
C667 C675 1.503 . S
C668 C667 1.410 1_565 S
C668 C669 1.392 . S
C668 C671 1.511 . S
C669 C665 1.376 . S
C669 C668 1.392 . S
C669 H681 0.929 . S
C670 C666 1.531 . S
C670 H682 0.960 . S
C670 H683 0.962 . S
C670 H684 0.960 . S
C671 C668 1.511 . S
C671 H685 0.961 . S
C671 H686 0.961 . S
C671 H687 0.961 . S
C672 C673 1.370 . S
C672 C674 1.363 . S
C672 H688 0.931 . S
C673 C672 1.370 . S
C673 C677 1.408 1_554 S
C674 C672 1.363 . S
C674 C675 1.370 . S
C674 C678 1.524 . S
C675 C667 1.503 . S
C675 C674 1.370 . S
C675 C676 1.403 . S
C676 C675 1.403 . S
C676 C677 1.404 1_554 S
C676 C679 1.539 1_544 S
C677 C673 1.408 1_556 S
C677 C676 1.404 1_556 S
C677 H689 0.930 . S
C678 C674 1.524 . S
C678 H690 0.956 . S
C678 H691 0.961 . S
C678 H692 0.961 . S
C679 C676 1.539 1_566 S
C679 H693 0.958 1_565 S
C679 H694 0.961 . S
C679 H695 0.960 1_556 S
H680 C664 0.931 . S
H681 C669 0.929 . S
H682 C670 0.960 . S
H683 C670 0.962 . S
H684 C670 0.960 . S
H685 C671 0.961 . S
H686 C671 0.961 . S
H687 C671 0.961 . S
H688 C672 0.931 . S
H689 C677 0.930 . S
H690 C678 0.956 . S
H691 C678 0.961 . S
H692 C678 0.961 . S
H693 C679 0.958 1_545 S
H694 C679 0.961 . S
H695 C679 0.960 1_554 S
C696 C697 1.391 . S
C696 C698 1.394 . S
C696 H712 0.931 . S
C697 C696 1.391 . S
C697 C701 1.376 . S
C698 C696 1.394 . S
C698 C699 1.369 . S
C698 C702 1.531 . S
C699 C698 1.369 . S
C699 C700 1.410 . S
C699 C707 1.503 . S
C700 C699 1.410 . S
C700 C701 1.392 . S
C700 C703 1.511 . S
C701 C697 1.376 . S
C701 C700 1.392 . S
C701 H713 0.929 . S
C702 C698 1.531 . S
C702 H714 0.960 . S
C702 H715 0.962 . S
C702 H716 0.960 . S
C703 C700 1.511 . S
C703 H717 0.961 . S
C703 H718 0.961 . S
C703 H719 0.961 . S
C704 C705 1.370 . S
C704 C706 1.363 . S
C704 H720 0.931 . S
C705 C704 1.370 . S
C705 C709 1.408 1_554 S
C706 C704 1.363 . S
C706 C707 1.370 . S
C706 C710 1.524 . S
C707 C699 1.503 . S
C707 C706 1.370 . S
C707 C708 1.403 . S
C708 C707 1.403 . S
C708 C709 1.404 1_554 S
C708 C711 1.539 1_554 S
C709 C705 1.408 1_556 S
C709 C708 1.404 1_556 S
C709 H721 0.930 . S
C710 C706 1.524 . S
C710 H722 0.956 . S
C710 H723 0.961 . S
C710 H724 0.961 . S
C711 C708 1.539 1_556 S
C711 H725 0.958 . S
C711 H726 0.961 . S
C711 H727 0.960 . S
H712 C696 0.931 . S
H713 C701 0.929 . S
H714 C702 0.960 . S
H715 C702 0.962 . S
H716 C702 0.960 . S
H717 C703 0.961 . S
H718 C703 0.961 . S
H719 C703 0.961 . S
H720 C704 0.931 . S
H721 C709 0.930 . S
H722 C710 0.956 . S
H723 C710 0.961 . S
H724 C710 0.961 . S
H725 C711 0.958 . S
H726 C711 0.961 . S
H727 C711 0.960 . S
C728 C729 1.391 . S
C728 C730 1.394 . S
C728 H744 0.931 . S
C729 C728 1.391 . S
C729 C733 1.376 . S
C730 C728 1.394 . S
C730 C731 1.369 . S
C730 C734 1.531 . S
C731 C730 1.369 . S
C731 C732 1.410 . S
C731 C739 1.503 . S
C732 C731 1.410 . S
C732 C733 1.392 . S
C732 C735 1.511 . S
C733 C729 1.376 . S
C733 C732 1.392 . S
C733 H745 0.929 . S
C734 C730 1.531 . S
C734 H746 0.960 . S
C734 H747 0.962 . S
C734 H748 0.960 . S
C735 C732 1.511 . S
C735 H749 0.961 . S
C735 H750 0.961 . S
C735 H751 0.961 . S
C736 C737 1.370 . S
C736 C738 1.363 . S
C736 H752 0.931 . S
C737 C736 1.370 . S
C737 C741 1.408 . S
C738 C736 1.363 . S
C738 C739 1.370 . S
C738 C742 1.524 . S
C739 C731 1.503 . S
C739 C738 1.370 . S
C739 C740 1.403 . S
C740 C739 1.403 . S
C740 C741 1.404 . S
C740 C743 1.539 . S
C741 C737 1.408 . S
C741 C740 1.404 . S
C741 H753 0.930 1_554 S
C742 C738 1.524 . S
C742 H754 0.956 . S
C742 H755 0.961 . S
C742 H756 0.961 . S
C743 C740 1.539 . S
C743 H757 0.958 1_554 S
C743 H758 0.961 1_554 S
C743 H759 0.960 . S
H744 C728 0.931 . S
H745 C733 0.929 . S
H746 C734 0.960 . S
H747 C734 0.962 . S
H748 C734 0.960 . S
H749 C735 0.961 . S
H750 C735 0.961 . S
H751 C735 0.961 . S
H752 C736 0.931 . S
H753 C741 0.930 1_556 S
H754 C742 0.956 . S
H755 C742 0.961 . S
H756 C742 0.961 . S
H757 C743 0.958 1_556 S
H758 C743 0.961 1_556 S
H759 C743 0.960 . S
C760 C761 1.391 . S
C760 C762 1.394 . S
C760 H776 0.931 . S
C761 C760 1.391 . S
C761 C765 1.376 1_455 S
C762 C760 1.394 . S
C762 C763 1.369 . S
C762 C766 1.531 . S
C763 C762 1.369 . S
C763 C764 1.410 1_455 S
C763 C771 1.503 . S
C764 C763 1.410 1_655 S
C764 C765 1.392 . S
C764 C767 1.511 . S
C765 C761 1.376 1_655 S
C765 C764 1.392 . S
C765 H777 0.929 . S
C766 C762 1.531 . S
C766 H778 0.960 . S
C766 H779 0.962 . S
C766 H780 0.960 . S
C767 C764 1.511 . S
C767 H781 0.961 . S
C767 H782 0.961 . S
C767 H783 0.961 . S
C768 C769 1.370 . S
C768 C770 1.363 . S
C768 H784 0.931 . S
C769 C768 1.370 . S
C769 C773 1.408 . S
C770 C768 1.363 . S
C770 C771 1.370 . S
C770 C774 1.524 . S
C771 C763 1.503 . S
C771 C770 1.370 . S
C771 C772 1.414 . S
C772 C771 1.414 . S
C772 C773 1.408 . S
C772 C775 1.522 1_455 S
C773 C769 1.408 . S
C773 C772 1.408 . S
C773 H785 0.923 1_455 S
C774 C770 1.524 . S
C774 H786 0.956 . S
C774 H787 0.961 . S
C774 H788 0.961 . S
C775 C772 1.522 1_655 S
C775 H789 0.958 1_656 S
C775 H790 0.961 . S
C775 H791 0.960 . S
H776 C760 0.931 . S
H777 C765 0.929 . S
H778 C766 0.960 . S
H779 C766 0.962 . S
H780 C766 0.960 . S
H781 C767 0.961 . S
H782 C767 0.961 . S
H783 C767 0.961 . S
H784 C768 0.931 . S
H785 C773 0.923 1_655 S
H786 C774 0.956 . S
H787 C774 0.961 . S
H788 C774 0.961 . S
H789 C775 0.958 1_454 S
H790 C775 0.961 . S
H791 C775 0.960 . S
C792 C793 1.388 1_565 S
C792 C794 1.394 . S
C792 H808 0.931 . S
C793 C792 1.388 1_545 S
C793 C797 1.378 . S
C794 C792 1.394 . S
C794 C795 1.360 1_565 S
C794 C798 1.531 . S
C795 C794 1.360 1_545 S
C795 C796 1.418 . S
C795 C803 1.506 . S
C796 C795 1.418 . S
C796 C797 1.392 . S
C796 C799 1.511 . S
C797 C793 1.378 . S
C797 C796 1.392 . S
C797 H809 0.929 . S
C798 C794 1.531 . S
C798 H810 0.960 . S
C798 H811 0.962 . S
C798 H812 0.960 . S
C799 C796 1.511 . S
C799 H813 0.961 . S
C799 H814 0.961 . S
C799 H815 0.961 . S
C800 C801 1.370 . S
C800 C802 1.363 . S
C800 H816 0.931 . S
C801 C800 1.370 . S
C801 C805 1.408 1_545 S
C802 C800 1.363 . S
C802 C803 1.370 . S
C802 C806 1.524 . S
C803 C795 1.506 . S
C803 C802 1.370 . S
C803 C804 1.403 1_545 S
C804 C803 1.403 1_565 S
C804 C805 1.404 . S
C804 C807 1.539 . S
C805 C801 1.408 1_565 S
C805 C804 1.404 . S
C805 H817 0.930 . S
C806 C802 1.524 . S
C806 H818 0.956 . S
C806 H819 0.961 . S
C806 H820 0.961 . S
C807 C804 1.539 . S
C807 H821 0.958 . S
C807 H822 0.961 . S
C807 H823 0.960 . S
H808 C792 0.931 . S
H809 C797 0.929 . S
H810 C798 0.960 . S
H811 C798 0.962 . S
H812 C798 0.960 . S
H813 C799 0.961 . S
H814 C799 0.961 . S
H815 C799 0.961 . S
H816 C800 0.931 . S
H817 C805 0.930 . S
H818 C806 0.956 . S
H819 C806 0.961 . S
H820 C806 0.961 . S
H821 C807 0.958 . S
H822 C807 0.961 . S
H823 C807 0.960 . S
C824 C825 1.391 . S
C824 C826 1.394 . S
C824 H840 0.931 . S
C825 C824 1.391 . S
C825 C829 1.376 . S
C826 C824 1.394 . S
C826 C827 1.369 . S
C826 C830 1.531 . S
C827 C826 1.369 . S
C827 C828 1.410 . S
C827 C835 1.503 . S
C828 C827 1.410 . S
C828 C829 1.392 . S
C828 C831 1.511 . S
C829 C825 1.376 . S
C829 C828 1.392 . S
C829 H841 0.929 . S
C830 C826 1.531 . S
C830 H842 0.960 . S
C830 H843 0.962 . S
C830 H844 0.960 . S
C831 C828 1.511 . S
C831 H845 0.961 . S
C831 H846 0.961 . S
C831 H847 0.961 1_556 S
C832 C833 1.370 . S
C832 C834 1.363 . S
C832 H848 0.931 . S
C833 C832 1.370 . S
C833 C837 1.408 . S
C834 C832 1.363 . S
C834 C835 1.370 . S
C834 C838 1.524 . S
C835 C827 1.503 . S
C835 C834 1.370 . S
C835 C836 1.403 . S
C836 C835 1.403 . S
C836 C837 1.404 . S
C836 C839 1.539 . S
C837 C833 1.408 . S
C837 C836 1.404 . S
C837 H849 0.930 . S
C838 C834 1.524 . S
C838 H850 0.956 . S
C838 H851 0.961 . S
C838 H852 0.961 . S
C839 C836 1.539 . S
C839 H853 0.958 . S
C839 H854 0.961 . S
C839 H855 0.960 . S
H840 C824 0.931 . S
H841 C829 0.929 . S
H842 C830 0.960 . S
H843 C830 0.962 . S
H844 C830 0.960 . S
H845 C831 0.961 . S
H846 C831 0.961 . S
H847 C831 0.961 1_554 S
H848 C832 0.931 . S
H849 C837 0.930 . S
H850 C838 0.956 . S
H851 C838 0.961 . S
H852 C838 0.961 . S
H853 C839 0.958 . S
H854 C839 0.961 . S
H855 C839 0.960 . S
C856 C857 1.391 . S
C856 C858 1.394 . S
C856 H872 0.931 . S
C857 C856 1.391 . S
C857 C861 1.376 . S
C858 C856 1.394 . S
C858 C859 1.369 . S
C858 C862 1.531 . S
C859 C858 1.369 . S
C859 C860 1.410 . S
C859 C867 1.503 . S
C860 C859 1.410 . S
C860 C861 1.392 . S
C860 C863 1.511 . S
C861 C857 1.376 . S
C861 C860 1.392 . S
C861 H873 0.929 . S
C862 C858 1.531 . S
C862 H874 0.960 . S
C862 H875 0.962 . S
C862 H876 0.960 . S
C863 C860 1.511 . S
C863 H877 0.961 1_556 S
C863 H878 0.961 . S
C863 H879 0.961 . S
C864 C865 1.370 . S
C864 C866 1.363 . S
C864 H880 0.931 . S
C865 C864 1.370 . S
C865 C869 1.408 . S
C866 C864 1.363 . S
C866 C867 1.370 . S
C866 C870 1.524 . S
C867 C859 1.503 . S
C867 C866 1.370 . S
C867 C868 1.403 . S
C868 C867 1.403 . S
C868 C869 1.404 . S
C868 C871 1.539 . S
C869 C865 1.408 . S
C869 C868 1.404 . S
C869 H881 0.930 . S
C870 C866 1.524 . S
C870 H882 0.956 . S
C870 H883 0.961 . S
C870 H884 0.961 . S
C871 C868 1.539 . S
C871 H885 0.958 . S
C871 H886 0.961 . S
C871 H887 0.960 . S
H872 C856 0.931 . S
H873 C861 0.929 . S
H874 C862 0.960 . S
H875 C862 0.962 . S
H876 C862 0.960 . S
H877 C863 0.961 1_554 S
H878 C863 0.961 . S
H879 C863 0.961 . S
H880 C864 0.931 . S
H881 C869 0.930 . S
H882 C870 0.956 . S
H883 C870 0.961 . S
H884 C870 0.961 . S
H885 C871 0.958 . S
H886 C871 0.961 . S
H887 C871 0.960 . S
C888 C889 1.391 1_455 S
C888 C890 1.394 . S
C888 H904 0.931 . S
C889 C888 1.391 1_655 S
C889 C893 1.376 . S
C890 C888 1.394 . S
C890 C891 1.369 1_455 S
C890 C894 1.531 . S
C891 C890 1.369 1_655 S
C891 C892 1.410 . S
C891 C899 1.503 . S
C892 C891 1.410 . S
C892 C893 1.392 . S
C892 C895 1.511 . S
C893 C889 1.376 . S
C893 C892 1.392 . S
C893 H905 0.929 . S
C894 C890 1.531 . S
C894 H906 0.960 . S
C894 H907 0.962 . S
C894 H908 0.960 . S
C895 C892 1.511 . S
C895 H909 0.961 . S
C895 H910 0.961 . S
C895 H911 0.961 . S
C896 C897 1.370 1_455 S
C896 C898 1.363 . S
C896 H912 0.931 . S
C897 C896 1.370 1_655 S
C897 C901 1.408 . S
C898 C896 1.363 . S
C898 C899 1.370 1_455 S
C898 C902 1.524 . S
C899 C891 1.503 . S
C899 C898 1.370 1_655 S
C899 C900 1.403 . S
C900 C899 1.403 . S
C900 C901 1.404 . S
C900 C903 1.539 . S
C901 C897 1.408 . S
C901 C900 1.404 . S
C901 H913 0.930 . S
C902 C898 1.524 . S
C902 H914 0.956 . S
C902 H915 0.961 . S
C902 H916 0.961 . S
C903 C900 1.539 . S
C903 H917 0.958 . S
C903 H918 0.961 . S
C903 H919 0.960 . S
H904 C888 0.931 . S
H905 C893 0.929 . S
H906 C894 0.960 . S
H907 C894 0.962 . S
H908 C894 0.960 . S
H909 C895 0.961 . S
H910 C895 0.961 . S
H911 C895 0.961 . S
H912 C896 0.931 . S
H913 C901 0.930 . S
H914 C902 0.956 . S
H915 C902 0.961 . S
H916 C902 0.961 . S
H917 C903 0.958 . S
H918 C903 0.961 . S
H919 C903 0.960 . S
C920 C921 1.391 1_565 S
C920 C922 1.394 . S
C920 H936 0.931 . S
C921 C920 1.391 1_545 S
C921 C925 1.376 . S
C922 C920 1.394 . S
C922 C923 1.374 . S
C922 C926 1.531 . S
C923 C922 1.374 . S
C923 C924 1.404 1_565 S
C923 C931 1.505 . S
C924 C923 1.404 1_545 S
C924 C925 1.392 . S
C924 C927 1.511 . S
C925 C921 1.376 . S
C925 C924 1.392 . S
C925 H937 0.929 . S
C926 C922 1.531 . S
C926 H938 0.960 . S
C926 H939 0.962 . S
C926 H940 0.960 . S
C927 C924 1.511 . S
C927 H941 0.961 . S
C927 H942 0.961 . S
C927 H943 0.961 . S
C928 C929 1.370 . S
C928 C930 1.363 . S
C928 H944 0.931 . S
C929 C928 1.370 . S
C929 C933 1.408 1_565 S
C930 C928 1.363 . S
C930 C931 1.370 . S
C930 C934 1.524 . S
C931 C923 1.505 . S
C931 C930 1.370 . S
C931 C932 1.403 1_565 S
C932 C931 1.403 1_545 S
C932 C933 1.404 . S
C932 C935 1.539 . S
C933 C929 1.408 1_545 S
C933 C932 1.404 . S
C933 H945 0.930 . S
C934 C930 1.524 . S
C934 H946 0.956 . S
C934 H947 0.961 . S
C934 H948 0.961 . S
C935 C932 1.539 . S
C935 H949 0.958 . S
C935 H950 0.961 . S
C935 H951 0.960 . S
H936 C920 0.931 . S
H937 C925 0.929 . S
H938 C926 0.960 . S
H939 C926 0.962 . S
H940 C926 0.960 . S
H941 C927 0.961 . S
H942 C927 0.961 . S
H943 C927 0.961 . S
H944 C928 0.931 . S
H945 C933 0.930 . S
H946 C934 0.956 . S
H947 C934 0.961 . S
H948 C934 0.961 . S
H949 C935 0.958 . S
H950 C935 0.961 . S
H951 C935 0.960 . S
C952 C953 1.391 . S
C952 C954 1.394 . S
C952 H968 0.931 . S
C953 C952 1.391 . S
C953 C957 1.376 . S
C954 C952 1.394 . S
C954 C955 1.369 . S
C954 C958 1.531 . S
C955 C954 1.369 . S
C955 C956 1.410 . S
C955 C963 1.503 . S
C956 C955 1.410 . S
C956 C957 1.392 . S
C956 C959 1.511 . S
C957 C953 1.376 . S
C957 C956 1.392 . S
C957 H969 0.929 . S
C958 C954 1.531 . S
C958 H970 0.960 . S
C958 H971 0.962 . S
C958 H972 0.960 . S
C959 C956 1.511 . S
C959 H973 0.961 . S
C959 H974 0.961 . S
C959 H975 0.961 . S
C960 C961 1.370 . S
C960 C962 1.363 . S
C960 H976 0.931 . S
C961 C960 1.370 . S
C961 C965 1.408 . S
C962 C960 1.363 . S
C962 C963 1.370 . S
C962 C966 1.524 . S
C963 C955 1.503 . S
C963 C962 1.370 . S
C963 C964 1.403 . S
C964 C963 1.403 . S
C964 C965 1.404 . S
C964 C967 1.539 . S
C965 C961 1.408 . S
C965 C964 1.404 . S
C965 H977 0.930 . S
C966 C962 1.524 . S
C966 H978 0.956 . S
C966 H979 0.961 . S
C966 H980 0.961 . S
C967 C964 1.539 . S
C967 H981 0.958 . S
C967 H982 0.961 . S
C967 H983 0.960 . S
H968 C952 0.931 . S
H969 C957 0.929 . S
H970 C958 0.960 . S
H971 C958 0.962 . S
H972 C958 0.960 . S
H973 C959 0.961 . S
H974 C959 0.961 . S
H975 C959 0.961 . S
H976 C960 0.931 . S
H977 C965 0.930 . S
H978 C966 0.956 . S
H979 C966 0.961 . S
H980 C966 0.961 . S
H981 C967 0.958 . S
H982 C967 0.961 . S
H983 C967 0.960 . S
C984 C985 1.391 . S
C984 C986 1.394 . S
C984 H1000 0.931 . S
C985 C984 1.391 . S
C985 C989 1.376 . S
C986 C984 1.394 . S
C986 C987 1.369 . S
C986 C990 1.531 . S
C987 C986 1.369 . S
C987 C988 1.410 . S
C987 C995 1.503 . S
C988 C987 1.410 . S
C988 C989 1.392 . S
C988 C991 1.511 . S
C989 C985 1.376 . S
C989 C988 1.392 . S
C989 H1001 0.929 . S
C990 C986 1.531 . S
C990 H1002 0.960 . S
C990 H1003 0.962 . S
C990 H1004 0.960 . S
C991 C988 1.511 . S
C991 H1005 0.961 . S
C991 H1006 0.961 . S
C991 H1007 0.961 . S
C992 C993 1.370 . S
C992 C994 1.363 . S
C992 H1008 0.931 . S
C993 C992 1.370 . S
C993 C997 1.408 . S
C994 C992 1.363 . S
C994 C995 1.370 . S
C994 C998 1.524 . S
C995 C987 1.503 . S
C995 C994 1.370 . S
C995 C996 1.403 . S
C996 C995 1.403 . S
C996 C997 1.404 . S
C996 C999 1.539 . S
C997 C993 1.408 . S
C997 C996 1.404 . S
C997 H1009 0.930 . S
C998 C994 1.524 . S
C998 H1010 0.956 . S
C998 H1011 0.961 . S
C998 H1012 0.961 . S
C999 C996 1.539 . S
C999 H1013 0.958 . S
C999 H1014 0.961 . S
C999 H1015 0.960 . S
H1000 C984 0.931 . S
H1001 C989 0.929 . S
H1002 C990 0.960 . S
H1003 C990 0.962 . S
H1004 C990 0.960 . S
H1005 C991 0.961 . S
H1006 C991 0.961 . S
H1007 C991 0.961 . S
H1008 C992 0.931 . S
H1009 C997 0.930 . S
H1010 C998 0.956 . S
H1011 C998 0.961 . S
H1012 C998 0.961 . S
H1013 C999 0.958 . S
H1014 C999 0.961 . S
H1015 C999 0.960 . S
C249 C74 1.786 . S
C257 C97 1.880 1_545 S
C289 C137 1.885 . S
C281 C85 1.810 . S
C321 C177 1.884 . S
C313 C52 1.762 . S
C353 C217 1.878 1_455 S
C345 C63 1.793 1_655 S
C385 C106 1.881 1_565 S
C377 C30 1.792 . S
C409 C41 1.814 . S
C417 C146 1.893 . S
C441 C8 1.773 . S
C449 C186 1.887 . S
C473 C19 1.810 1_655 S
C481 C226 1.890 1_655 S
C513 C103 0.564 . S
C505 C62 0.558 . S
C545 C143 0.610 . S
C537 C73 0.587 1_565 S
C577 C183 0.620 . S
C569 C84 0.583 . S
C601 C51 0.573 . S
C609 C223 0.560 . S
C633 C18 0.695 1_655 S
C641 C94 0.565 . S
C673 C134 0.574 . S
C665 C29 0.640 1_565 S
C705 C174 0.593 . S
C697 C40 0.587 . S
C729 C7 0.670 . S
C737 C214 0.570 . S
C761 C60 1.699 . S
C769 C107 2.229 . S
C793 C71 1.762 . S
C801 C147 2.227 . S
C833 C187 2.235 . S
C825 C82 1.651 . S
C865 C227 2.243 . S
C857 C49 1.662 . S
C889 C16 1.792 1_655 S
C897 C98 2.251 . S
C929 C138 2.226 . S
C921 C27 1.756 . S
C961 C178 2.236 . S
C953 C38 1.823 . S
C985 C5 1.791 . S
C993 C218 2.245 . S
