# Generated by pormake.
# Topology ocu, (6,8)-cn, num edge types: 1
# Building blocks:
#     Node 0, Type 0, BuildingBlock: BETDEL_clean_sbu_0, # of connection points: 6
#     Node 1, Type 0, BuildingBlock: BETDEL_clean_sbu_0, # of connection points: 6
#     Node 2, Type 0, BuildingBlock: BETDEL_clean_sbu_0, # of connection points: 6
#     Node 3, Type 0, BuildingBlock: BETDEL_clean_sbu_0, # of connection points: 6
#     Node 4, Type 0, BuildingBlock: BETDEL_clean_sbu_0, # of connection points: 6
#     Node 5, Type 0, BuildingBlock: BETDEL_clean_sbu_0, # of connection points: 6
#     Node 6, Type 0, BuildingBlock: BETDEL_clean_sbu_0, # of connection points: 6
#     Node 7, Type 0, BuildingBlock: BETDEL_clean_sbu_0, # of connection points: 6
#     Node 8, Type 1, BuildingBlock: AJUNOK_clean_sbu_0, # of connection points: 8
#     Node 9, Type 1, BuildingBlock: AJUNOK_clean_sbu_0, # of connection points: 8
#     Node 10, Type 1, BuildingBlock: AJUNOK_clean_sbu_0, # of connection points: 8
#     Node 11, Type 1, BuildingBlock: AJUNOK_clean_sbu_0, # of connection points: 8
#     Node 12, Type 1, BuildingBlock: AJUNOK_clean_sbu_0, # of connection points: 8
#     Node 13, Type 1, BuildingBlock: AJUNOK_clean_sbu_0, # of connection points: 8
#     Edge 14, Type (0, 1), BuildingBlock: XUDNAN_clean_linker_2, # of connection points: 2
#     Edge 15, Type (0, 1), BuildingBlock: XUDNAN_clean_linker_2, # of connection points: 2
#     Edge 16, Type (0, 1), BuildingBlock: XUDNAN_clean_linker_2, # of connection points: 2
#     Edge 17, Type (0, 1), BuildingBlock: XUDNAN_clean_linker_2, # of connection points: 2
#     Edge 18, Type (0, 1), BuildingBlock: XUDNAN_clean_linker_2, # of connection points: 2
#     Edge 19, Type (0, 1), BuildingBlock: XUDNAN_clean_linker_2, # of connection points: 2
#     Edge 20, Type (0, 1), BuildingBlock: XUDNAN_clean_linker_2, # of connection points: 2
#     Edge 21, Type (0, 1), BuildingBlock: XUDNAN_clean_linker_2, # of connection points: 2
#     Edge 22, Type (0, 1), BuildingBlock: XUDNAN_clean_linker_2, # of connection points: 2
#     Edge 23, Type (0, 1), BuildingBlock: XUDNAN_clean_linker_2, # of connection points: 2
#     Edge 24, Type (0, 1), BuildingBlock: XUDNAN_clean_linker_2, # of connection points: 2
#     Edge 25, Type (0, 1), BuildingBlock: XUDNAN_clean_linker_2, # of connection points: 2
#     Edge 26, Type (0, 1), BuildingBlock: XUDNAN_clean_linker_2, # of connection points: 2
#     Edge 27, Type (0, 1), BuildingBlock: XUDNAN_clean_linker_2, # of connection points: 2
#     Edge 28, Type (0, 1), BuildingBlock: XUDNAN_clean_linker_2, # of connection points: 2
#     Edge 29, Type (0, 1), BuildingBlock: XUDNAN_clean_linker_2, # of connection points: 2
#     Edge 30, Type (0, 1), BuildingBlock: XUDNAN_clean_linker_2, # of connection points: 2
#     Edge 31, Type (0, 1), BuildingBlock: XUDNAN_clean_linker_2, # of connection points: 2
#     Edge 32, Type (0, 1), BuildingBlock: XUDNAN_clean_linker_2, # of connection points: 2
#     Edge 33, Type (0, 1), BuildingBlock: XUDNAN_clean_linker_2, # of connection points: 2
#     Edge 34, Type (0, 1), BuildingBlock: XUDNAN_clean_linker_2, # of connection points: 2
#     Edge 35, Type (0, 1), BuildingBlock: XUDNAN_clean_linker_2, # of connection points: 2
#     Edge 36, Type (0, 1), BuildingBlock: XUDNAN_clean_linker_2, # of connection points: 2
#     Edge 37, Type (0, 1), BuildingBlock: XUDNAN_clean_linker_2, # of connection points: 2
#     Edge 38, Type (0, 1), BuildingBlock: XUDNAN_clean_linker_2, # of connection points: 2
#     Edge 39, Type (0, 1), BuildingBlock: XUDNAN_clean_linker_2, # of connection points: 2
#     Edge 40, Type (0, 1), BuildingBlock: XUDNAN_clean_linker_2, # of connection points: 2
#     Edge 41, Type (0, 1), BuildingBlock: XUDNAN_clean_linker_2, # of connection points: 2
#     Edge 42, Type (0, 1), BuildingBlock: XUDNAN_clean_linker_2, # of connection points: 2
#     Edge 43, Type (0, 1), BuildingBlock: XUDNAN_clean_linker_2, # of connection points: 2
#     Edge 44, Type (0, 1), BuildingBlock: XUDNAN_clean_linker_2, # of connection points: 2
#     Edge 45, Type (0, 1), BuildingBlock: XUDNAN_clean_linker_2, # of connection points: 2
#     Edge 46, Type (0, 1), BuildingBlock: XUDNAN_clean_linker_2, # of connection points: 2
#     Edge 47, Type (0, 1), BuildingBlock: XUDNAN_clean_linker_2, # of connection points: 2
#     Edge 48, Type (0, 1), BuildingBlock: XUDNAN_clean_linker_2, # of connection points: 2
#     Edge 49, Type (0, 1), BuildingBlock: XUDNAN_clean_linker_2, # of connection points: 2
#     Edge 50, Type (0, 1), BuildingBlock: XUDNAN_clean_linker_2, # of connection points: 2
#     Edge 51, Type (0, 1), BuildingBlock: XUDNAN_clean_linker_2, # of connection points: 2
#     Edge 52, Type (0, 1), BuildingBlock: XUDNAN_clean_linker_2, # of connection points: 2
#     Edge 53, Type (0, 1), BuildingBlock: XUDNAN_clean_linker_2, # of connection points: 2
#     Edge 54, Type (0, 1), BuildingBlock: XUDNAN_clean_linker_2, # of connection points: 2
#     Edge 55, Type (0, 1), BuildingBlock: XUDNAN_clean_linker_2, # of connection points: 2
#     Edge 56, Type (0, 1), BuildingBlock: XUDNAN_clean_linker_2, # of connection points: 2
#     Edge 57, Type (0, 1), BuildingBlock: XUDNAN_clean_linker_2, # of connection points: 2
#     Edge 58, Type (0, 1), BuildingBlock: XUDNAN_clean_linker_2, # of connection points: 2
#     Edge 59, Type (0, 1), BuildingBlock: XUDNAN_clean_linker_2, # of connection points: 2
#     Edge 60, Type (0, 1), BuildingBlock: XUDNAN_clean_linker_2, # of connection points: 2
#     Edge 61, Type (0, 1), BuildingBlock: XUDNAN_clean_linker_2, # of connection points: 2
# Relax obj value: 0.128
# Max RMSD: 0.249
# Mean RMSD: 0.191
data_MOF--net-ocu--node1-BETDEL_clean_sbu_0--node2-AJUNOK_clean_sbu_0--edge1-XUDNAN_clean_linker_2
_symmetry_space_group_name_H-M    P1
_symmetry_Int_Tables_number       1
_symmetry_cell_setting            triclinic
loop_
_symmetry_equiv_pos_as_xyz
'x, y, z'
_cell_length_a     41.665887
_cell_length_b     42.580367
_cell_length_c     34.648045
_cell_angle_alpha  98.705217
_cell_angle_beta   98.980618
_cell_angle_gamma 105.82851
loop_
_atom_site_label
_atom_site_type_symbol
_atom_site_fract_x
_atom_site_fract_y
_atom_site_fract_z
_atom_type_partial_charge
Dy0 Dy 0.28522 0.24719 0.29148 0.0
C1 C 0.19625 0.25342 0.14935 0.0
C2 C 0.31247 0.22207 0.35251 0.0
Dy3 Dy 0.23252 0.23646 0.21145 0.0
O4 O 0.32902 0.24839 0.34065 0.0
O5 O 0.28142 0.21103 0.33218 0.0
O6 O 0.31993 0.29281 0.27582 0.0
O7 O 0.28699 0.25325 0.23143 0.0
C8 C 0.30714 0.28215 0.23757 0.0
C9 C 0.21072 0.1998 0.26313 0.0
O10 O 0.26104 0.20157 0.18881 0.0
O11 O 0.28926 0.20118 0.25231 0.0
O12 O 0.18756 0.22527 0.1612 0.0
O13 O 0.22615 0.27129 0.17032 0.0
O14 O 0.19922 0.18989 0.22471 0.0
O15 O 0.23026 0.22928 0.27107 0.0
O16 O 0.25875 0.28386 0.31404 0.0
O17 O 0.22397 0.27984 0.2524 0.0
C18 C 0.28033 0.18928 0.21306 0.0
C19 C 0.23558 0.29326 0.2913 0.0
Dy20 Dy 0.78172 0.21778 0.2611 0.0
C21 C 0.70929 0.29458 0.18239 0.0
C22 C 0.80622 0.18217 0.31012 0.0
Dy23 Dy 0.74362 0.26356 0.22866 0.0
O24 O 0.77574 0.17295 0.28837 0.0
O25 O 0.82426 0.21031 0.30372 0.0
O26 O 0.76915 0.18342 0.20207 0.0
O27 O 0.73507 0.2097 0.21735 0.0
C28 C 0.74189 0.19129 0.18953 0.0
C29 C 0.78696 0.28964 0.29931 0.0
O30 O 0.7056 0.23751 0.25997 0.0
O31 O 0.74501 0.22206 0.30138 0.0
O32 O 0.74203 0.30486 0.19586 0.0
O33 O 0.69534 0.2678 0.19465 0.0
O34 O 0.75992 0.29863 0.28937 0.0
O35 O 0.79073 0.27085 0.27004 0.0
O36 O 0.81857 0.24165 0.2257 0.0
O37 O 0.77763 0.25762 0.18625 0.0
C38 C 0.71434 0.22545 0.29148 0.0
C39 C 0.80769 0.25238 0.19357 0.0
Dy40 Dy 0.74256 0.75563 0.28435 0.0
C41 C 0.77327 0.68186 0.14723 0.0
C42 C 0.73372 0.79127 0.35161 0.0
Dy43 Dy 0.76139 0.7256 0.20509 0.0
O44 O 0.72665 0.75896 0.34328 0.0
O45 O 0.74777 0.80403 0.32424 0.0
O46 O 0.68786 0.724 0.26246 0.0
O47 O 0.72694 0.70841 0.2431 0.0
C48 C 0.69534 0.70262 0.23747 0.0
C49 C 0.79846 0.78783 0.24036 0.0
O50 O 0.72081 0.74739 0.1806 0.0
O51 O 0.72501 0.78404 0.23967 0.0
O52 O 0.79476 0.71049 0.16558 0.0
O53 O 0.74483 0.67798 0.15954 0.0
O54 O 0.79363 0.77655 0.20215 0.0
O55 O 0.78627 0.76437 0.25689 0.0
O56 O 0.77945 0.73032 0.31056 0.0
O57 O 0.78848 0.70355 0.25087 0.0
C58 C 0.71406 0.77339 0.20045 0.0
C59 C 0.79299 0.70959 0.29056 0.0
Dy60 Dy 0.2785 0.72273 0.23427 0.0
C61 C 0.19687 0.78876 0.31197 0.0
C62 C 0.30633 0.68932 0.18315 0.0
Dy63 Dy 0.23476 0.76329 0.26688 0.0
O64 O 0.30089 0.68183 0.21703 0.0
O65 O 0.29728 0.71534 0.17768 0.0
O66 O 0.31065 0.72865 0.29526 0.0
O67 O 0.28763 0.7648 0.2828 0.0
C68 C 0.30249 0.7545 0.31037 0.0
C69 C 0.21162 0.73141 0.19045 0.0
O70 O 0.26664 0.80291 0.24155 0.0
O71 O 0.28916 0.76661 0.20502 0.0
O72 O 0.18591 0.76068 0.28651 0.0
O73 O 0.22861 0.80379 0.31222 0.0
O74 O 0.20533 0.75857 0.20493 0.0
O75 O 0.22582 0.72122 0.21856 0.0
O76 O 0.23574 0.68357 0.24593 0.0
O77 O 0.22772 0.71962 0.29733 0.0
C78 C 0.28367 0.79579 0.21392 0.0
C79 C 0.22295 0.68893 0.27797 0.0
Dy80 Dy 0.29531 0.71894 0.74889 0.0
C81 C 0.1901 0.77871 0.70939 0.0
C82 C 0.33979 0.69019 0.78364 0.0
Dy83 Dy 0.24023 0.7545 0.73897 0.0
O84 O 0.30741 0.67565 0.77036 0.0
O85 O 0.34828 0.71964 0.7752 0.0
O86 O 0.27802 0.69306 0.68404 0.0
O87 O 0.24314 0.70543 0.71649 0.0
C88 C 0.24713 0.69475 0.68233 0.0
C89 C 0.28701 0.77942 0.80671 0.0
O90 O 0.2147 0.71299 0.76554 0.0
O91 O 0.26606 0.70895 0.79732 0.0
O92 O 0.20391 0.78363 0.74688 0.0
O93 O 0.20343 0.76018 0.68771 0.0
O94 O 0.25647 0.7822 0.80292 0.0
O95 O 0.29201 0.76788 0.7732 0.0
O96 O 0.32232 0.75871 0.71994 0.0
O97 O 0.27557 0.77753 0.70172 0.0
C98 C 0.23284 0.70364 0.79381 0.0
C99 C 0.30707 0.77706 0.7007 0.0
Dy100 Dy 0.24536 0.25318 0.78534 0.0
C101 C 0.29516 0.21174 0.64427 0.0
C102 C 0.22225 0.28273 0.84605 0.0
Dy103 Dy 0.26975 0.24125 0.70393 0.0
O104 O 0.20351 0.26014 0.8155 0.0
O105 O 0.25438 0.28836 0.84467 0.0
O106 O 0.21394 0.19955 0.77389 0.0
O107 O 0.22397 0.22359 0.72615 0.0
C108 C 0.21264 0.196 0.73567 0.0
C109 C 0.30197 0.29836 0.75453 0.0
O110 O 0.22978 0.26487 0.68274 0.0
O111 O 0.2283 0.28773 0.74789 0.0
O112 O 0.31109 0.23919 0.67018 0.0
O113 O 0.26394 0.20204 0.64938 0.0
O114 O 0.29809 0.29579 0.71605 0.0
O115 O 0.29136 0.27039 0.76339 0.0
O116 O 0.28235 0.22602 0.80587 0.0
O117 O 0.28707 0.2069 0.74087 0.0
C118 C 0.22043 0.28551 0.70848 0.0
C119 C 0.29253 0.2065 0.77971 0.0
Dy120 Dy 0.76037 0.21317 0.71575 0.0
C121 C 0.72434 0.31935 0.80587 0.0
C122 C 0.77015 0.16037 0.67056 0.0
Dy123 Dy 0.73401 0.26751 0.75828 0.0
O124 O 0.78763 0.19122 0.67376 0.0
O125 O 0.7475 0.15803 0.69272 0.0
O126 O 0.81456 0.24612 0.74018 0.0
O127 O 0.77677 0.24859 0.7721 0.0
C128 C 0.80737 0.26151 0.77132 0.0
C129 C 0.68768 0.21652 0.70596 0.0
O130 O 0.76211 0.29292 0.71533 0.0
O131 O 0.75402 0.24412 0.67057 0.0
O132 O 0.70434 0.30277 0.77206 0.0
O133 O 0.75014 0.30807 0.81275 0.0
O134 O 0.68102 0.23115 0.73814 0.0
O135 O 0.71719 0.23129 0.70284 0.0
O136 O 0.73531 0.18662 0.75987 0.0
O137 O 0.73014 0.2329 0.80087 0.0
C138 C 0.76468 0.27703 0.68043 0.0
C139 C 0.72803 0.20086 0.79287 0.0
Dy140 Dy 0.78066 0.74768 0.78509 0.0
C141 C 0.69167 0.76474 0.65218 0.0
C142 C 0.81754 0.72464 0.84077 0.0
Dy143 Dy 0.72599 0.74011 0.70794 0.0
O144 O 0.82765 0.75379 0.83155 0.0
O145 O 0.78678 0.70934 0.8207 0.0
O146 O 0.81311 0.79622 0.77432 0.0
O147 O 0.78082 0.75934 0.72644 0.0
C148 C 0.79985 0.78897 0.73621 0.0
C149 C 0.70661 0.69855 0.75656 0.0
O150 O 0.75754 0.70972 0.68099 0.0
O151 O 0.78482 0.70409 0.74231 0.0
O152 O 0.68892 0.73319 0.64962 0.0
O153 O 0.71304 0.78227 0.68448 0.0
O154 O 0.69258 0.69154 0.71862 0.0
O155 O 0.7259 0.72802 0.76574 0.0
O156 O 0.75073 0.77804 0.81338 0.0
O157 O 0.71799 0.78068 0.75351 0.0
C158 C 0.77682 0.69562 0.70276 0.0
C159 C 0.72825 0.78985 0.79316 0.0
Cd160 Cd 0.97572 0.95969 0.53453 0.0
Cd161 Cd 0.02586 0.02039 0.44719 0.0
C162 C 0.04925 0.95017 0.55893 0.0
N163 N 0.01683 0.93307 0.5393 0.0
C164 C 0.0273 0.88107 0.54213 0.0
C165 C 0.05969 0.89839 0.56568 0.0
C166 C 0.07148 0.93316 0.57178 0.0
C167 C 0.00597 0.89922 0.52907 0.0
H168 H 0.05744 0.97693 0.56724 0.0
H169 H 0.97981 0.88639 0.51403 0.0
C170 C 0.97369 0.95117 0.42904 0.0
C171 C 0.95 0.0253 0.42429 0.0
C172 C 0.92301 0.03835 0.42624 0.0
C173 C 0.92724 0.06648 0.45573 0.0
C174 C 0.95803 0.07999 0.48385 0.0
C175 C 0.98426 0.06586 0.48106 0.0
N176 N 0.97992 0.03947 0.45119 0.0
H177 H 0.94734 0.00461 0.40053 0.0
H178 H 0.00849 0.07651 0.50191 0.0
C179 C 0.05556 0.96839 0.40323 0.0
N180 N 0.05518 0.9823 0.44105 0.0
C181 C 0.08243 0.94568 0.46802 0.0
C182 C 0.08107 0.92969 0.42923 0.0
C183 C 0.06817 0.94151 0.39653 0.0
C184 C 0.069 0.97223 0.47328 0.0
H185 H 0.04462 0.97729 0.37826 0.0
H186 H 0.06884 0.98433 0.5028 0.0
C187 C 0.03204 0.02642 0.55082 0.0
C188 C 0.9291 0.91434 0.56635 0.0
N189 N 0.94591 -0.00301 0.54224 0.0
C190 C 0.94851 0.01243 0.58039 0.0
C191 C 0.92551 0.02918 0.58927 0.0
C192 C 0.89935 0.02924 0.55868 0.0
C193 C 0.89798 0.01443 0.51929 0.0
C194 C 0.92185 -0.00187 0.51161 0.0
C195 C 0.06994 0.07022 0.4194 0.0
O196 O 0.97937 0.96305 0.46599 0.0
O197 O 0.98671 0.9696 0.40642 0.0
O198 O 0.02171 0.0146 0.514 0.0
O199 O 0.01839 0.00998 0.57472 0.0
O200 O 0.9234 0.91428 0.5291 0.0
O201 O 0.95677 0.93449 0.5876 0.0
O202 O 0.0746 0.06921 0.45634 0.0
O203 O 0.04393 0.04885 0.39623 0.0
H204 H 0.96686 0.00969 0.60437 0.0
H205 H 0.91975 0.98441 0.48191 0.0
H206 H 0.01741 0.85418 0.53749 0.0
H207 H 0.09643 0.94711 0.58993 0.0
H208 H 0.89985 0.0278 0.40348 0.0
H209 H 0.96214 0.10191 0.50667 0.0
H210 H 0.0929 0.93717 0.49365 0.0
H211 H 0.06738 0.92972 0.36625 0.0
H212 H 0.9267 0.04003 0.62005 0.0
H213 H 0.87737 0.01339 0.49544 0.0
Cd214 Cd 0.49136 0.9799 0.0651 0.0
Cd215 Cd 0.51876 0.00796 0.93111 0.0
C216 C 0.5572 0.96197 0.1178 0.0
N217 N 0.53172 0.95136 0.08451 0.0
C218 C 0.54726 0.90147 0.06756 0.0
C219 C 0.57408 0.91163 0.10144 0.0
C220 C 0.57872 0.94244 0.12684 0.0
C221 C 0.52656 0.92168 0.05967 0.0
H222 H 0.56085 0.98553 0.13743 0.0
H223 H 0.50594 0.91348 0.03367 0.0
C224 C 0.46689 0.94712 0.95954 0.0
C225 C 0.44397 0.01341 0.88534 0.0
C226 C 0.42001 0.02873 0.87064 0.0
C227 C 0.42869 0.06383 0.87632 0.0
C228 C 0.46164 0.08243 0.89796 0.0
C229 C 0.4848 0.06609 0.91217 0.0
N230 N 0.4759 0.03214 0.9054 0.0
H231 H 0.43705 0.98651 0.88051 0.0
H232 H 0.51019 0.08065 0.92838 0.0
C233 C 0.53745 0.94507 0.87552 0.0
N234 N 0.54605 0.96674 0.91143 0.0
C235 C 0.5947 0.94833 0.93057 0.0
C236 C 0.58672 0.92547 0.89394 0.0
C237 C 0.55738 0.92406 0.86622 0.0
C238 C 0.57395 0.96834 0.93872 0.0
H239 H 0.51538 0.94428 0.85385 0.0
H240 H 0.58049 0.98577 0.9668 0.0
C241 C 0.54709 0.03777 0.03816 0.0
C242 C 0.43772 0.93583 0.08705 0.0
N243 N 0.46545 0.02131 0.08645 0.0
C244 C 0.47201 0.03523 0.12596 0.0
C245 C 0.45178 0.05367 0.14085 0.0
C246 C 0.42432 0.05791 0.115 0.0
C247 C 0.41933 0.04481 0.07399 0.0
C248 C 0.4401 0.02629 0.06035 0.0
C249 C 0.57466 0.05451 0.91545 0.0
O250 O 0.48124 0.96756 0.99217 0.0
O251 O 0.47445 0.9549 0.92731 0.0
O252 O 0.52891 0.01999 0.0051 0.0
O253 O 0.53939 0.03029 0.07047 0.0
O254 O 0.43884 0.93576 0.05049 0.0
O255 O 0.4626 0.95587 0.11345 0.0
O256 O 0.56795 0.05639 0.95013 0.0
O257 O 0.55421 0.03146 0.88753 0.0
H258 H 0.49179 0.03049 0.14633 0.0
H259 H 0.43476 0.01434 0.02919 0.0
H260 H 0.54182 0.87776 0.04737 0.0
H261 H 0.59903 0.95164 0.15317 0.0
H262 H 0.39484 0.01308 0.85488 0.0
H263 H 0.4699 0.10939 0.90295 0.0
H264 H 0.61728 0.95145 0.95279 0.0
H265 H 0.54971 0.90684 0.8377 0.0
H266 H 0.45682 0.06348 0.17265 0.0
H267 H 0.39832 0.04708 0.05301 0.0
Cd268 Cd 0.98253 0.46472 0.04566 0.0
Cd269 Cd 0.03727 0.51993 0.96127 0.0
C270 C 0.04961 0.44882 0.08428 0.0
N271 N 0.02486 0.4391 0.05055 0.0
C272 C 0.03979 0.38945 0.03153 0.0
C273 C 0.06396 0.398 0.06742 0.0
C274 C 0.06982 0.42868 0.09309 0.0
C275 C 0.02014 0.41054 0.02372 0.0
H276 H 0.05205 0.47084 0.10593 0.0
H277 H 0.99955 0.40305 -0.00226 0.0
C278 C 0.97062 0.45911 0.93549 0.0
C279 C 0.96645 0.54011 0.94689 0.0
C280 C 0.94605 0.55986 0.93679 0.0
C281 C 0.96112 0.59397 0.93945 0.0
C282 C 0.99615 0.60807 0.95514 0.0
C283 C 0.01572 0.58728 0.96486 0.0
N284 N 1.00083 0.55374 0.95913 0.0
H285 H 0.95472 0.51373 0.94256 0.0
H286 H 0.04307 0.59767 0.97459 0.0
C287 C 0.06542 0.46426 0.91807 0.0
N288 N 0.0626 0.47737 0.95519 0.0
C289 C 0.09426 0.4446 0.9843 0.0
C290 C 0.0984 0.43123 0.94642 0.0
C291 C 0.08325 0.44103 0.91295 0.0
C292 C 0.07628 0.46783 0.98802 0.0
H293 H 0.05462 0.4726 0.89252 0.0
H294 H 0.07386 0.47871 0.01721 0.0
C295 C 0.04146 0.52709 0.06141 0.0
C296 C 0.93666 0.41184 0.0679 0.0
N297 N 0.95497 0.50366 0.05982 0.0
C298 C 0.95742 0.51623 0.09896 0.0
C299 C 0.93783 0.53644 0.1099 0.0
C300 C 0.91532 0.54337 0.08021 0.0
C301 C 0.91444 0.53138 0.03992 0.0
C302 C 0.93446 0.51106 0.03032 0.0
C303 C 0.08879 0.56578 0.93795 0.0
O304 O 0.97792 0.46351 0.97336 0.0
O305 O 0.99059 0.47739 0.91794 0.0
O306 O 0.02923 0.51228 0.02564 0.0
O307 O 0.02754 0.51457 0.08772 0.0
O308 O 0.93194 0.41707 0.03262 0.0
O309 O 0.96201 0.43218 0.09309 0.0
O310 O 0.0904 0.56445 0.97457 0.0
O311 O 0.06343 0.54535 0.91278 0.0
H312 H 0.97353 0.50935 0.12171 0.0
H313 H 0.9324 0.49979 -0.00042 0.0
H314 H 0.03435 0.36567 0.01145 0.0
H315 H 0.08813 0.4358 0.12119 0.0
H316 H 0.91903 0.54824 0.92459 0.0
H317 H 0.00858 0.63433 0.95708 0.0
H318 H 0.1051 0.43749 0.01087 0.0
H319 H 0.08619 0.43186 0.88322 0.0
H320 H 0.93914 0.54539 0.14126 0.0
H321 H 0.89697 0.53592 0.01634 0.0
Cd322 Cd 0.46279 0.45155 0.02226 0.0
Cd323 Cd 0.53897 0.51592 0.95481 0.0
C324 C 0.50813 0.41725 0.0697 0.0
N325 N 0.49888 0.4206 0.03156 0.0
C326 C 0.53606 0.39149 0.00947 0.0
C327 C 0.54717 0.3891 0.04891 0.0
C328 C 0.53252 0.4015 0.07916 0.0
C329 C 0.51145 0.40745 0.00131 0.0
H330 H 0.49731 0.42783 0.09296 0.0
H331 H 0.50268 0.40984 0.97118 0.0
C332 C 0.46861 0.46467 0.9265 0.0
C333 C 0.48793 0.54996 0.9221 0.0
C334 C 0.46464 0.56756 0.91796 0.0
C335 C 0.45648 0.58303 0.95205 0.0
C336 C 0.47172 0.58018 0.98989 0.0
C337 C 0.49434 0.56122 0.99261 0.0
N338 N 0.50183 0.54672 0.95879 0.0
H339 H 0.49529 0.53904 0.89593 0.0
H340 H 0.5063 0.55862 0.02147 0.0
C341 C 0.54891 0.44443 0.93017 0.0
N342 N 0.56116 0.47308 0.95827 0.0
C343 C 0.60953 0.45785 0.985 0.0
C344 C 0.59803 0.42866 0.95553 0.0
C345 C 0.567 0.42141 0.92853 0.0
C346 C 0.59035 0.4799 0.98597 0.0
H347 H 0.52612 0.4402 0.90787 0.0
H348 H 0.59975 0.50346 0.00711 0.0
C349 C 0.5376 0.50792 0.06072 0.0
C350 C 0.41214 0.40945 0.05233 0.0
N351 N 0.44039 0.49486 0.02601 0.0
C352 C 0.44998 0.51663 0.06164 0.0
C353 C 0.43396 0.54078 0.06889 0.0
C354 C 0.40747 0.54203 0.03943 0.0
C355 C 0.39895 0.52032 0.00222 0.0
C356 C 0.41576 0.49638 -0.00377 0.0
C357 C 0.58921 0.55808 0.92248 0.0
O358 O 0.48017 0.46558 0.96269 0.0
O359 O 0.48876 0.47988 0.9069 0.0
O360 O 0.53816 0.51072 0.02474 0.0
O361 O 0.51215 0.48786 0.06903 0.0
O362 O 0.4132 0.40246 0.01544 0.0
O363 O 0.43343 0.43623 0.07332 0.0
O364 O 0.58959 0.56358 0.95973 0.0
O365 O 0.56592 0.53295 0.90097 0.0
H366 H 0.46881 0.51422 0.08524 0.0
H367 H 0.40793 0.47801 0.96878 0.0
H368 H 0.54637 0.38127 0.98551 0.0
H369 H 0.54067 0.4 0.10991 0.0
H370 H 0.45413 0.57022 0.8884 0.0
H371 H 0.46636 0.59258 0.01672 0.0
H372 H 0.63391 0.4643 0.00546 0.0
H373 H 0.55813 0.39937 0.90484 0.0
H374 H 0.44116 0.55738 0.0979 0.0
H375 H 0.37835 0.52063 0.97909 0.0
Cd376 Cd 0.98664 0.47949 0.56036 0.0
Cd377 Cd 0.01392 0.50177 0.4267 0.0
C378 C 0.04865 0.46584 0.6216 0.0
N379 N 0.03089 0.45539 0.58318 0.0
C380 C 0.05924 0.41321 0.57286 0.0
C381 C 0.07814 0.42353 0.61247 0.0
C382 C 0.07217 0.45027 0.6368 0.0
C383 C 0.03573 0.42943 0.55888 0.0
H384 H 0.04403 0.48591 0.64087 0.0
H385 H 0.02101 0.42096 0.52859 0.0
C386 C 0.96361 0.44483 0.45691 0.0
C387 C 0.94611 0.51929 0.37837 0.0
C388 C 0.92533 0.53948 0.36913 0.0
C389 C 0.93031 0.57033 0.39464 0.0
C390 C 0.95637 0.57952 0.42926 0.0
C391 C 0.97634 0.55865 0.43737 0.0
N392 N 0.97113 0.52914 0.4121 0.0
H393 H 0.94277 0.49616 0.35803 0.0
H394 H 0.99693 0.5666 0.46337 0.0
C395 C 0.03979 0.44115 0.37967 0.0
N396 N 0.04884 0.46539 0.41348 0.0
C397 C 0.10313 0.45531 0.42887 0.0
C398 C 0.09517 0.43087 0.39343 0.0
C399 C 0.06246 0.42355 0.36918 0.0
C400 C 0.07981 0.4723 0.43814 0.0
H401 H 0.01536 0.4362 0.35992 0.0
H402 H 0.08691 0.49179 0.46464 0.0
C403 C 0.04234 0.54038 0.53468 0.0
C404 C 0.93814 0.42994 0.58283 0.0
N405 N 0.9597 0.52015 0.58398 0.0
C406 C 0.95987 0.52764 0.62363 0.0
C407 C 0.93972 0.54666 0.63758 0.0
C408 C 0.91878 0.55823 0.61069 0.0
C409 C 0.92039 0.55147 0.57011 0.0
C410 C 0.94088 0.53216 0.55735 0.0
C411 C 0.04944 0.54073 0.38054 0.0
O412 O 0.97912 0.46716 0.48774 0.0
O413 O 0.96967 0.44988 0.42314 0.0
O414 O 0.02818 0.52215 0.50032 0.0
O415 O 0.03219 0.53126 0.56526 0.0
O416 O 0.93217 0.43701 0.54856 0.0
O417 O 0.96633 0.44631 0.6065 0.0
O418 O 0.05748 0.54797 0.41853 0.0
O419 O 0.02432 0.51496 0.36405 0.0
H420 H 0.97462 0.51769 0.64437 0.0
H421 H 0.94059 0.52559 0.52585 0.0
H422 H 0.06274 0.39301 0.55261 0.0
H423 H 0.08509 0.45891 0.66781 0.0
H424 H 0.90561 0.53094 0.34224 0.0
H425 H 0.96215 0.60322 0.44958 0.0
H426 H 0.12744 0.4617 0.44936 0.0
H427 H 0.0548 0.40534 0.34143 0.0
H428 H 0.93978 0.55146 0.6692 0.0
H429 H 0.9046 0.55947 0.54814 0.0
Cd430 Cd 0.4724 0.96785 0.51794 0.0
Cd431 Cd 0.52279 0.00922 0.42614 0.0
C432 C 0.52143 0.93475 0.56828 0.0
N433 N 0.50799 0.93467 0.52989 0.0
C434 C 0.53614 0.89604 0.50581 0.0
C435 C 0.55096 0.89586 0.54524 0.0
C436 C 0.5434 0.91593 0.57665 0.0
C437 C 0.51501 0.91596 0.49884 0.0
H438 H 0.51549 0.94995 0.59247 0.0
H439 H 0.5041 0.91643 0.46865 0.0
C440 C 0.45974 0.95474 0.41993 0.0
C441 C 0.45578 0.03143 0.4085 0.0
C442 C 0.43332 0.05031 0.40949 0.0
C443 C 0.44033 0.07799 0.44049 0.0
C444 C 0.46969 0.08563 0.47062 0.0
C445 C 0.49127 0.06544 0.46894 0.0
N446 N 0.48391 0.0389 0.4381 0.0
H447 H 0.45133 0.01156 0.38307 0.0
H448 H 0.51438 0.07158 0.49145 0.0
C449 C 0.53278 0.93501 0.39746 0.0
N450 N 0.548 0.96618 0.42038 0.0
C451 C 0.59932 0.95254 0.43982 0.0
C452 C 0.58415 0.9203 0.41663 0.0
C453 C 0.55034 0.91139 0.39568 0.0
C454 C 0.58064 0.97515 0.44138 0.0
H455 H 0.50733 0.92828 0.37985 0.0
H456 H 0.59239 0.00015 0.4589 0.0
C457 C 0.55214 0.01758 0.53583 0.0
C458 C 0.42158 0.932 0.55161 0.0
N459 N 0.45551 0.01582 0.52979 0.0
C460 C 0.47351 0.04132 0.56081 0.0
C461 C 0.45953 0.06628 0.57374 0.0
C462 C 0.42649 0.06467 0.55506 0.0
C463 C 0.40949 0.03936 0.52139 0.0
C464 C 0.42453 0.01492 0.50932 0.0
C465 C 0.56202 0.05603 0.38874 0.0
O466 O 0.47559 0.97266 0.4532 0.0
O467 O 0.47099 0.96234 0.38971 0.0
O468 O 0.54938 0.01962 0.49911 0.0
O469 O 0.52736 0.00113 0.5488 0.0
O470 O 0.42192 0.92131 0.51528 0.0
O471 O 0.44451 0.95857 0.57044 0.0
O472 O 0.57259 0.05358 0.42408 0.0
O473 O 0.53389 0.03525 0.36963 0.0
H474 H 0.49779 0.04129 0.57719 0.0
H475 H 0.41053 -0.00595 0.48527 0.0
H476 H 0.54031 0.88068 0.4804 0.0
H477 H 0.55456 0.91757 0.60752 0.0
H478 H 0.41131 0.04412 0.3853 0.0
H479 H 0.47589 0.10696 0.49492 0.0
H480 H 0.6254 0.96019 0.45645 0.0
H481 H 0.53803 0.88679 0.37711 0.0
H482 H 0.47364 0.08561 0.59959 0.0
H483 H 0.38388 0.03705 0.50639 0.0
H484 H 0.15827 0.14191 0.25005 0.0
H485 H 0.22652 0.22266 0.34361 0.0
H486 H 0.19973 0.19673 0.39419 0.0
H487 H 0.08537 0.13892 0.29291 0.0
H488 H 0.06667 0.09437 0.27741 0.0
H489 H 0.09366 0.11705 0.24862 0.0
H490 H 0.13255 0.07911 0.25551 0.0
H491 H 0.10554 0.05615 0.28408 0.0
H492 H 0.15054 0.07472 0.30448 0.0
H493 H 0.1651 0.16281 0.43447 0.0
H494 H 0.1225 0.12439 0.46159 0.0
H495 H 0.07346 0.06887 0.34129 0.0
C496 C 0.16789 0.15378 0.28125 0.0
C497 C 0.1953 0.18356 0.29315 0.0
C498 C 0.20647 0.19908 0.33404 0.0
C499 C 0.19122 0.18473 0.36297 0.0
C500 C 0.16421 0.15539 0.35032 0.0
C501 C 0.15233 0.14026 0.31043 0.0
C502 C 0.12116 0.11036 0.3046 0.0
C503 C 0.08987 0.1155 0.2794 0.0
C504 C 0.12787 0.07818 0.28609 0.0
C505 C 0.11765 0.11095 0.34748 0.0
C506 C 0.14287 0.13696 0.37339 0.0
C507 C 0.14509 0.14241 0.41453 0.0
C508 C 0.12081 0.12056 0.42962 0.0
C509 C 0.0946 0.09395 0.4035 0.0
C510 C 0.09302 0.08924 0.36194 0.0
H511 H 0.86895 0.19811 0.35845 0.0
H512 H 0.76734 0.12744 0.33043 0.0
H513 H 0.78533 0.09685 0.38038 0.0
H514 H 0.91155 0.14167 0.36234 0.0
H515 H 0.94626 0.16607 0.40292 0.0
H516 H 0.92339 0.18658 0.37233 0.0
H517 H 0.91014 0.21765 0.43543 0.0
H518 H 0.93288 0.1968 0.46622 0.0
H519 H 0.8893 0.19409 0.46844 0.0
H520 H 0.81599 0.06813 0.42145 0.0
H521 H 0.85813 0.04158 0.44731 0.0
H522 H 0.93986 0.13114 0.4515 0.0
C523 C 0.85042 0.17662 0.36361 0.0
C524 C 0.81694 0.16492 0.34078 0.0
C525 C 0.79325 0.13661 0.34771 0.0
C526 C 0.80308 0.11936 0.37635 0.0
C527 C 0.83655 0.13105 0.39803 0.0
C528 C 0.85989 0.1591 0.3921 0.0
C529 C 0.89541 0.16354 0.41476 0.0
C530 C 0.92059 0.16447 0.38639 0.0
C531 C 0.90764 0.19489 0.44821 0.0
C532 C 0.8888 0.13223 0.43176 0.0
C533 C 0.85449 0.11439 0.42285 0.0
C534 C 0.84276 0.08228 0.4299 0.0
C535 C 0.86681 0.06738 0.44466 0.0
C536 C 0.90202 0.08472 0.45218 0.0
C537 C 0.91297 0.11799 0.44746 0.0
H538 H 0.80231 0.83493 0.30351 0.0
H539 H 0.86247 0.79587 0.22873 0.0
H540 H 0.91457 0.82457 0.28056 0.0
H541 H 0.86235 0.91538 0.34188 0.0
H542 H 0.85172 0.91792 0.39053 0.0
H543 H 0.82033 0.89308 0.34735 0.0
H544 H 0.813 0.84285 0.38277 0.0
H545 H 0.84624 0.86715 0.4249 0.0
H546 H 0.84916 0.82873 0.39785 0.0
H547 H 0.95887 0.85668 0.33841 0.0
H548 H 0.99588 0.90494 0.38948 0.0
H549 H 0.90744 0.92264 0.42841 0.0
C550 C 0.82663 0.83313 0.29794 0.0
C551 C 0.82886 0.81371 0.26249 0.0
C552 C 0.86076 0.8115 0.2556 0.0
C553 C 0.89015 0.82681 0.28525 0.0
C554 C 0.88678 0.84397 0.32119 0.0
C555 C 0.8561 0.84824 0.32715 0.0
C556 C 0.85999 0.87058 0.36689 0.0
C557 C 0.84792 0.90105 0.3613 0.0
C558 C 0.84097 0.85115 0.39474 0.0
C559 C 0.89819 0.87999 0.38122 0.0
C560 C 0.9128 0.86296 0.35521 0.0
C561 C 0.94789 0.86995 0.35926 0.0
C562 C 0.96867 0.89724 0.38828 0.0
C563 C 0.954 0.91687 0.4122 0.0
C564 C 0.91877 0.90706 0.41077 0.0
H565 H 0.21562 0.84714 0.36656 0.0
H566 H 0.13051 0.75877 0.31136 0.0
H567 H 0.0928 0.78204 0.34704 0.0
H568 H 0.18695 0.86346 0.46474 0.0
H569 H 0.20173 0.90788 0.468 0.0
H570 H 0.22362 0.88151 0.44481 0.0
H571 H 0.21558 0.90551 0.38074 0.0
H572 H 0.19367 0.93174 0.40357 0.0
H573 H 0.17323 0.90338 0.35653 0.0
H574 H 0.06268 0.81835 0.37673 0.0
H575 H 0.04229 0.86573 0.40052 0.0
H576 H 0.14656 0.92991 0.43901 0.0
C577 C 0.18925 0.83243 0.36296 0.0
C578 C 0.17575 0.80138 0.33637 0.0
C579 C 0.14116 0.78273 0.33174 0.0
C580 C 0.11965 0.79559 0.35209 0.0
C581 C 0.13339 0.82678 0.37734 0.0
C582 C 0.16748 0.84486 0.38327 0.0
C583 C 0.17489 0.87932 0.40828 0.0
C584 C 0.19818 0.88326 0.44887 0.0
C585 C 0.19021 0.90656 0.38592 0.0
C586 C 0.13927 0.87855 0.41302 0.0
C587 C 0.11581 0.84774 0.39571 0.0
C588 C 0.0808 0.84222 0.39168 0.0
C589 C 0.06944 0.8691 0.40508 0.0
C590 C 0.09314 0.90072 0.42221 0.0
C591 C 0.12834 0.90541 0.42717 0.0
H592 H 0.16088 0.7741 0.63124 0.0
H593 H 0.16679 0.82218 0.75314 0.0
H594 H 0.13205 0.85605 0.72845 0.0
H595 H 0.16814 0.84542 0.58923 0.0
H596 H 0.1379 0.82463 0.54324 0.0
H597 H 0.16115 0.80179 0.56986 0.0
H598 H 0.10436 0.75865 0.57224 0.0
H599 H 0.08093 0.78127 0.54534 0.0
H600 H 0.07236 0.77279 0.59275 0.0
H601 H 0.10209 0.88757 0.69253 0.0
H602 H 0.07345 0.91406 0.64549 0.0
H603 H 0.08437 0.84561 0.54558 0.0
C604 C 0.15423 0.79134 0.65258 0.0
C605 C 0.16625 0.79562 0.69402 0.0
C606 C 0.15755 0.81851 0.72128 0.0
C607 C 0.13791 0.83786 0.70759 0.0
C608 C 0.12699 0.83365 0.66664 0.0
C609 C 0.13436 0.81081 0.63937 0.0
C610 C 0.12002 0.8123 0.59689 0.0
C611 C 0.14851 0.8216 0.57345 0.0
C612 C 0.09279 0.77929 0.57555 0.0
C613 C 0.1043 0.84016 0.60485 0.0
C614 C 0.10874 0.85191 0.64538 0.0
C615 C 0.09806 0.87847 0.66071 0.0
C616 C 0.08214 0.89346 0.63385 0.0
C617 C 0.07715 0.88186 0.59224 0.0
C618 C 0.08799 0.85469 0.57738 0.0
H619 H 0.14465 0.17203 0.72531 0.0
H620 H 0.2318 0.15709 0.68047 0.0
H621 H 0.19331 0.11833 0.61999 0.0
H622 H 0.09153 0.08749 0.69444 0.0
H623 H 0.05314 0.09899 0.68249 0.0
H624 H 0.08843 0.12633 0.72019 0.0
H625 H 0.08761 0.17393 0.68146 0.0
H626 H 0.05338 0.14607 0.64258 0.0
H627 H 0.09263 0.16844 0.63038 0.0
H628 H 0.1456 0.0831 0.56454 0.0
H629 H 0.09196 0.04174 0.52591 0.0
H630 H 0.03654 0.07698 0.61013 0.0
C631 C 0.15538 0.15994 0.70302 0.0
C632 C 0.19072 0.16739 0.70641 0.0
C633 C 0.2045 0.15184 0.6771 0.0
C634 C 0.18296 0.13012 0.64287 0.0
C635 C 0.14801 0.12456 0.63912 0.0
C636 C 0.13427 0.13821 0.66891 0.0
C637 C 0.09588 0.12644 0.65893 0.0
C638 C 0.08142 0.10874 0.69089 0.0
C639 C 0.08154 0.15545 0.65299 0.0
C640 C 0.09017 0.10255 0.61991 0.0
C641 C 0.12048 0.10299 0.60808 0.0
C642 C 0.12169 0.08238 0.57346 0.0
C643 C 0.09122 0.05911 0.55172 0.0
C644 C 0.06077 0.05628 0.56587 0.0
C645 C 0.05985 0.07901 0.59917 0.0
H646 H 0.80609 0.16248 0.61191 0.0
H647 H 0.75246 0.09608 0.68013 0.0
H648 H 0.77426 0.05159 0.65046 0.0
H649 H 0.79565 0.09521 0.52075 0.0
H650 H 0.8374 0.11605 0.51328 0.0
H651 H 0.81227 0.14006 0.53394 0.0
H652 H 0.86238 0.16805 0.59475 0.0
H653 H 0.88716 0.14365 0.57454 0.0
H654 H 0.87914 0.14228 0.62401 0.0
H655 H 0.80987 0.01933 0.62441 0.0
H656 H 0.854 -0.00131 0.59871 0.0
H657 H 0.88283 0.08475 0.5446 0.0
C658 C 0.79813 0.13818 0.61953 0.0
C659 C 0.77774 0.13236 0.64811 0.0
C660 C 0.7679 0.10064 0.65795 0.0
C661 C 0.7801 0.07533 0.64124 0.0
C662 C 0.80125 0.08217 0.61413 0.0
C663 C 0.80963 0.11258 0.60262 0.0
C664 C 0.83514 0.11451 0.57567 0.0
C665 C 0.81914 0.11657 0.5334 0.0
C666 C 0.86788 0.14384 0.59334 0.0
C667 C 0.8415 0.08127 0.57601 0.0
C668 C 0.82128 0.06285 0.5979 0.0
C669 C 0.82501 0.03291 0.60611 0.0
C670 C 0.8501 0.0215 0.59163 0.0
C671 C 0.87094 0.04004 0.56933 0.0
C672 C 0.86636 0.06994 0.56078 0.0
H673 H 0.86167 0.83626 0.74473 0.0
H674 H 0.7673 0.78233 0.66004 0.0
H675 H 0.78867 0.81091 0.60824 0.0
H676 H 0.88202 0.91433 0.70946 0.0
H677 H 0.92677 0.91823 0.71513 0.0
H678 H 0.90227 0.8969 0.74707 0.0
H679 H 0.92104 0.8448 0.72563 0.0
H680 H 0.94524 0.8658 0.69322 0.0
H681 H 0.91301 0.82618 0.67338 0.0
H682 H 0.82125 0.84306 0.5646 0.0
H683 H 0.86352 0.87602 0.53182 0.0
H684 H 0.93841 0.90545 0.64326 0.0
C685 C 0.84527 0.8312 0.71556 0.0
C686 C 0.81229 0.80811 0.7067 0.0
C687 C 0.79208 0.80089 0.66777 0.0
C688 C 0.80414 0.81678 0.63805 0.0
C689 C 0.83693 0.83908 0.64744 0.0
C690 C 0.8574 0.84606 0.68511 0.0
C691 C 0.89286 0.86833 0.68613 0.0
C692 C 0.90146 0.90142 0.71622 0.0
C693 C 0.91961 0.85019 0.69512 0.0
C694 C 0.88875 0.87344 0.64353 0.0
C695 C 0.85635 0.85629 0.62167 0.0
C696 C 0.84674 0.85665 0.58138 0.0
C697 C 0.87092 0.87527 0.56297 0.0
C698 C 0.9042 0.8932 0.58495 0.0
C699 C 0.91313 0.89207 0.62568 0.0
H700 H 0.30775 0.18084 0.14479 0.0
H701 H 0.28711 0.13848 0.2479 0.0
H702 H 0.31855 0.09886 0.23115 0.0
H703 H 0.30375 0.1006 0.07864 0.0
H704 H 0.3384 0.12039 0.05664 0.0
H705 H 0.31094 0.14334 0.07351 0.0
H706 H 0.36351 0.1891 0.11806 0.0
H707 H 0.3911 0.16624 0.10157 0.0
H708 H 0.39221 0.1778 0.15412 0.0
H709 H 0.35606 0.06751 0.20833 0.0
H710 H 0.39637 0.04388 0.17858 0.0
H711 H 0.39484 0.10483 0.08896 0.0
C712 C 0.30899 0.16247 0.16297 0.0
C713 C 0.29449 0.16248 0.19747 0.0
C714 C 0.29769 0.1388 0.22126 0.0
C715 C 0.31557 0.11616 0.21199 0.0
C716 C 0.33038 0.11729 0.17869 0.0
C717 C 0.32717 0.13953 0.15418 0.0
C718 C 0.34754 0.13629 0.12155 0.0
C719 C 0.32373 0.12445 0.08012 0.0
C720 C 0.37523 0.16933 0.12399 0.0
C721 C 0.36324 0.10948 0.13239 0.0
C722 C 0.35265 0.0989 0.16536 0.0
C723 C 0.36438 0.07541 0.18233 0.0
C724 C 0.38759 0.06232 0.16537 0.0
C725 C 0.3992 0.0726 0.13162 0.0
C726 C 0.38641 0.09631 0.11463 0.0
H727 H 0.87469 0.28896 0.20965 0.0
H728 H 0.78735 0.23783 0.11364 0.0
H729 H 0.81483 0.26959 0.06768 0.0
H730 H 0.88545 0.36388 0.19268 0.0
H731 H 0.93134 0.37939 0.20211 0.0
H732 H 0.91097 0.34642 0.22507 0.0
H733 H 0.94307 0.30802 0.19438 0.0
H734 H 0.96487 0.34139 0.17254 0.0
H735 H 0.94165 0.30113 0.14142 0.0
H736 H 0.84284 0.31644 0.0388 0.0
H737 H 0.87663 0.36875 0.02378 0.0
H738 H 0.94758 0.38867 0.13667 0.0
C739 C 0.86254 0.28302 0.17834 0.0
C740 C 0.82924 0.26097 0.16487 0.0
C741 C 0.81312 0.25456 0.12417 0.0
C742 C 0.82846 0.27253 0.09791 0.0
C743 C 0.86013 0.2963 0.11279 0.0
C744 C 0.87767 0.30083 0.15165 0.0
C745 C 0.9094 0.3307 0.16126 0.0
C746 C 0.90923 0.35661 0.1974 0.0
C747 C 0.94166 0.31964 0.16778 0.0
C748 C 0.9054 0.3436 0.12302 0.0
C749 C 0.87706 0.32317 0.09528 0.0
C750 C 0.866 0.33183 0.05947 0.0
C751 C 0.88523 0.36157 0.05117 0.0
C752 C 0.91515 0.3821 0.0784 0.0
C753 C 0.9251 0.37312 0.11495 0.0
H754 H 0.68606 0.82115 0.23138 0.0
H755 H 0.69609 0.76741 0.1192 0.0
H756 H 0.66331 0.79802 0.08258 0.0
H757 H 0.59988 0.82114 0.19769 0.0
H758 H 0.60624 0.86227 0.22611 0.0
H759 H 0.63142 0.83698 0.24359 0.0
H760 H 0.68665 0.88401 0.24618 0.0
H761 H 0.66167 0.90948 0.22868 0.0
H762 H 0.69305 0.9005 0.20206 0.0
H763 H 0.62998 0.83504 0.05791 0.0
H764 H 0.59599 0.87301 0.04652 0.0
H765 H 0.60463 0.90141 0.17443 0.0
C766 C 0.68152 0.81584 0.19909 0.0
C767 C 0.69395 0.79178 0.17827 0.0
C768 C 0.68699 0.78558 0.13598 0.0
C769 C 0.66842 0.80297 0.11487 0.0
C770 C 0.65664 0.82648 0.13629 0.0
C771 C 0.66273 0.83281 0.17747 0.0
C772 C 0.64635 0.85868 0.1932 0.0
C773 C 0.61936 0.84387 0.21651 0.0
C774 C 0.67356 0.89003 0.21906 0.0
C775 C 0.63003 0.86589 0.15439 0.0
C776 C 0.63655 0.84717 0.122 0.0
C777 C 0.62445 0.84954 0.08307 0.0
C778 C 0.60482 0.87113 0.07691 0.0
C779 C 0.59684 0.89014 0.10939 0.0
C780 C 0.61016 0.88756 0.14877 0.0
H781 H 0.14313 0.71191 0.17261 0.0
H782 H 0.2317 0.69469 0.13365 0.0
H783 H 0.19503 0.64253 0.08782 0.0
H784 H 0.11034 0.63464 0.18398 0.0
H785 H 0.06578 0.63044 0.1683 0.0
H786 H 0.09592 0.67104 0.18818 0.0
H787 H 0.07736 0.69173 0.12417 0.0
H788 H 0.04613 0.65146 0.10438 0.0
H789 H 0.07709 0.66841 0.07607 0.0
H790 H 0.15139 0.58807 0.05731 0.0
H791 H 0.10319 0.53603 0.04141 0.0
H792 H 0.04377 0.58683 0.10439 0.0
C793 C 0.15431 0.6981 0.15252 0.0
C794 C 0.1898 0.70749 0.15528 0.0
C795 C 0.2043 0.68806 0.13077 0.0
C796 C 0.18369 0.65844 0.10486 0.0
C797 C 0.14884 0.64867 0.10447 0.0
C798 C 0.13416 0.6681 0.12738 0.0
C799 C 0.09749 0.64954 0.12698 0.0
C800 C 0.09211 0.64622 0.16937 0.0
C801 C 0.07308 0.66628 0.10668 0.0
C802 C 0.09427 0.6162 0.10179 0.0
C803 C 0.12391 0.61643 0.0884 0.0
C804 C 0.12782 0.58782 0.06686 0.0
C805 C 0.10047 0.55839 0.05819 0.0
C806 C 0.07001 0.55784 0.07149 0.0
C807 C 0.06691 0.58694 0.09375 0.0
H808 H 0.29017 0.82854 0.86885 0.0
H809 H 0.34413 0.76176 0.82593 0.0
H810 H 0.39339 0.79006 0.88075 0.0
H811 H 0.35004 0.89706 0.88275 0.0
H812 H 0.3441 0.91905 0.92856 0.0
H813 H 0.30916 0.88629 0.89695 0.0
H814 H 0.3018 0.85623 0.95588 0.0
H815 H 0.3373 0.8889 0.98794 0.0
H816 H 0.33722 0.84605 0.98208 0.0
H817 H 0.44058 0.83344 0.92381 0.0
H818 H 0.48209 0.88943 0.94748 0.0
H819 H 0.40047 0.93109 0.96463 0.0
C820 C 0.31191 0.81917 0.87228 0.0
C821 C 0.31368 0.79302 0.84326 0.0
C822 C 0.34257 0.78177 0.84775 0.0
C823 C 0.37045 0.7975 0.87927 0.0
C824 C 0.36901 0.82461 0.90629 0.0
C825 C 0.34027 0.83524 0.90343 0.0
C826 C 0.34767 0.86881 0.93083 0.0
C827 C 0.33717 0.89426 0.90838 0.0
C828 C 0.32997 0.86477 0.96631 0.0
C829 C 0.38605 0.87765 0.94432 0.0
C830 C 0.39743 0.85082 0.93204 0.0
C831 C 0.43204 0.85425 0.93489 0.0
C832 C 0.45546 0.88611 0.94817 0.0
C833 C 0.44412 0.91396 0.95831 0.0
C834 C 0.40939 0.90963 0.95821 0.0
H835 H 0.15927 0.28954 0.83023 0.0
H836 H 0.25404 0.32517 0.91842 0.0
H837 H 0.2304 0.36407 0.95756 0.0
H838 H 0.14966 0.369 0.83041 0.0
H839 H 0.10377 0.35474 0.82175 0.0
H840 H 0.1265 0.32705 0.80398 0.0
H841 H 0.09718 0.28384 0.84282 0.0
H842 H 0.07422 0.31138 0.86054 0.0
H843 H 0.10001 0.29632 0.89566 0.0
H844 H 0.19679 0.40095 0.9847 0.0
H845 H 0.15876 0.43545 0.99521 0.0
H846 H 0.08721 0.37644 0.88692 0.0
C847 C 0.17477 0.30489 0.85834 0.0
C848 C 0.20815 0.30388 0.87198 0.0
C849 C 0.22818 0.32526 0.90798 0.0
C850 C 0.21494 0.34735 0.93028 0.0
C851 C 0.18194 0.34798 0.91565 0.0
C852 C 0.16231 0.32746 0.88026 0.0
C853 C 0.12915 0.33514 0.86865 0.0
C854 C 0.12718 0.3472 0.82886 0.0
C855 C 0.09832 0.30486 0.86684 0.0
C856 C 0.13291 0.36306 0.90325 0.0
C857 C 0.16335 0.36997 0.93023 0.0
C858 C 0.17282 0.39557 0.96388 0.0
C859 C 0.15089 0.4149 0.96973 0.0
C860 C 0.11991 0.4087 0.94192 0.0
C861 C 0.11077 0.38205 0.9086 0.0
H862 H 0.69534 0.13369 0.77839 0.0
H863 H 0.73212 0.22289 0.87192 0.0
H864 H 0.70348 0.19172 0.91766 0.0
H865 H 0.61742 0.10903 0.79199 0.0
H866 H 0.6093 0.06454 0.78609 0.0
H867 H 0.64034 0.08781 0.76252 0.0
H868 H 0.68857 0.06917 0.79561 0.0
H869 H 0.65829 0.0424 0.81762 0.0
H870 H 0.69663 0.07182 0.84883 0.0
H871 H 0.66372 0.15428 0.94949 0.0
H872 H 0.61513 0.11312 0.96439 0.0
H873 H 0.60271 0.04876 0.84981 0.0
C874 C 0.69849 0.14623 0.80899 0.0
C875 C 0.71605 0.1806 0.82172 0.0
C876 C 0.71876 0.19653 0.86158 0.0
C877 C 0.7028 0.17898 0.8879 0.0
C878 C 0.68441 0.14547 0.87401 0.0
C879 C 0.6825 0.12906 0.83564 0.0
C880 C 0.65761 0.0942 0.82667 0.0
C881 C 0.62943 0.08867 0.78968 0.0
C882 C 0.67641 0.06784 0.82192 0.0
C883 C 0.64377 0.09479 0.86448 0.0
C884 C 0.66046 0.12405 0.89205 0.0
C885 C 0.65082 0.13103 0.92838 0.0
C886 C 0.6231 0.10763 0.93649 0.0
C887 C 0.60504 0.07803 0.90798 0.0
C888 C 0.61597 0.07134 0.87196 0.0
H889 H 0.85543 0.72437 0.91416 0.0
H890 H 0.83147 0.68099 0.78759 0.0
H891 H 0.86766 0.64499 0.79936 0.0
H892 H 0.94433 0.72293 0.93302 0.0
H893 H 0.94293 0.7115 0.98089 0.0
H894 H 0.91649 0.73557 0.96287 0.0
H895 H 0.8627 0.69118 0.9712 0.0
H896 H 0.88933 0.6675 0.98962 0.0
H897 H 0.85426 0.6482 0.94755 0.0
H898 H 0.90302 0.61199 0.82376 0.0
H899 H 0.93752 0.58301 0.86051 0.0
H900 H 0.9405 0.64666 0.97211 0.0
C901 C 0.85834 0.70755 0.88913 0.0
C902 C 0.84101 0.70539 0.84996 0.0
C903 C 0.84473 0.68289 0.81776 0.0
C904 C 0.86523 0.66241 0.82411 0.0
C905 C 0.8818 0.6647 0.86295 0.0
C906 C 0.87876 0.68659 0.89504 0.0
C907 C 0.89863 0.68275 0.93381 0.0
C908 C 0.9273 0.71512 0.95382 0.0
C909 C 0.87479 0.67174 0.9622 0.0
C910 C 0.91291 0.6552 0.91833 0.0
C911 C 0.90277 0.64533 0.8773 0.0
C912 C 0.91139 0.61958 0.85585 0.0
C913 C 0.93084 0.60325 0.87689 0.0
C914 C 0.94155 0.61281 0.91885 0.0
C915 C 0.93278 0.63927 0.93992 0.0
H916 H 0.18364 0.2794 0.08157 0.0
H917 H 0.15269 0.26571 0.19332 0.0
H918 H 0.11324 0.29861 0.18193 0.0
H919 H 0.18246 0.36194 0.08588 0.0
H920 H 0.16379 0.35725 0.03396 0.0
H921 H 0.18824 0.33054 0.04872 0.0
H922 H 0.137 0.27857 0.01425 0.0
H923 H 0.11253 0.3053 -0.0007 0.0
H924 H 0.09613 0.27452 0.02753 0.0
H925 H 0.08184 0.33611 0.16303 0.0
H926 H 0.0565 0.37573 0.13498 0.0
H927 H 0.10382 0.36442 0.0328 0.0
C928 C 0.16784 0.28279 0.10291 0.0
C929 C 0.17046 0.26963 0.13792 0.0
C930 C 0.15022 0.27501 0.1659 0.0
C931 C 0.12789 0.29373 0.15978 0.0
C932 C 0.12568 0.30643 0.12515 0.0
C933 C 0.14459 0.30097 0.09676 0.0
C934 C 0.13728 0.31831 0.0626 0.0
C935 C 0.1699 0.34351 0.05754 0.0
C936 C 0.11969 0.29265 0.02361 0.0
C937 C 0.11287 0.33568 0.07756 0.0
C938 C 0.10644 0.32804 0.11353 0.0
C939 C 0.08622 0.342 0.13462 0.0
C940 C 0.07216 0.36459 0.11863 0.0
C941 C 0.07842 0.37303 0.08198 0.0
C942 C 0.09859 0.35806 0.06077 0.0
H943 H 0.16955 0.65987 0.77949 0.0
H944 H 0.2586 0.71228 0.8731 0.0
H945 H 0.23 0.6849 0.92215 0.0
H946 H 0.10466 0.65938 0.83832 0.0
H947 H 0.07912 0.61763 0.81359 0.0
H948 H 0.10549 0.64386 0.7872 0.0
H949 H 0.13497 0.59853 0.77134 0.0
H950 H 0.10894 0.57224 0.7979 0.0
H951 H 0.15474 0.58338 0.81166 0.0
H952 H 0.19199 0.65056 0.96007 0.0
H953 H 0.14867 0.60949 0.98339 0.0
H954 H 0.0868 0.57789 0.86316 0.0
C955 C 0.18276 0.66583 0.81044 0.0
C956 C 0.21598 0.68803 0.82292 0.0
C957 C 0.23304 0.69501 0.8633 0.0
C958 C 0.21699 0.67981 0.89125 0.0
C959 C 0.18425 0.65754 0.87791 0.0
C960 C 0.16746 0.65039 0.8384 0.0
C961 C 0.13363 0.62365 0.83094 0.0
C962 C 0.10398 0.63695 0.81669 0.0
C963 C 0.13306 0.59262 0.80122 0.0
C964 C 0.13393 0.61692 0.87246 0.0
C965 C 0.16311 0.63688 0.89928 0.0
C966 C 0.16902 0.63476 0.93938 0.0
C967 C 0.14439 0.6114 0.95229 0.0
C968 C 0.11462 0.59049 0.92495 0.0
C969 C 0.10941 0.59346 0.88469 0.0
H970 H 0.33709 0.20804 0.85086 0.0
H971 H 0.28344 0.14599 0.73501 0.0
H972 H 0.31086 0.10351 0.7484 0.0
H973 H 0.41587 0.18922 0.84954 0.0
H974 H 0.42534 0.18787 0.90172 0.0
H975 H 0.40004 0.21336 0.8851 0.0
H976 H 0.35168 0.18324 0.91741 0.0
H977 H 0.37693 0.15776 0.93434 0.0
H978 H 0.33458 0.13842 0.90431 0.0
H979 H 0.34494 0.06823 0.77158 0.0
H980 H 0.38439 0.04181 0.80373 0.0
H981 H 0.41791 0.12452 0.90592 0.0
C982 C 0.33076 0.18526 0.82871 0.0
C983 C 0.30794 0.18056 0.79173 0.0
C984 C 0.30087 0.15051 0.76337 0.0
C985 C 0.31628 0.12602 0.77073 0.0
C986 C 0.33902 0.13152 0.80679 0.0
C987 C 0.34634 0.16025 0.83551 0.0
C988 C 0.37292 0.15981 0.87107 0.0
C989 C 0.40547 0.18932 0.87721 0.0
C990 C 0.35814 0.15981 0.90903 0.0
C991 C 0.37942 0.12664 0.8574 0.0
C992 C 0.35927 0.11081 0.82031 0.0
C993 C 0.36063 0.08021 0.80086 0.0
C994 C 0.38309 0.06521 0.81964 0.0
C995 C 0.40428 0.08055 0.85779 0.0
C996 C 0.40229 0.11192 0.87677 0.0
H997 H 0.8346 0.28191 0.85084 0.0
H998 H 0.82598 0.3163 0.73946 0.0
H999 H 0.85441 0.37404 0.77537 0.0
H1000 H 0.83397 0.35834 0.91964 0.0
H1001 H 0.8681 0.35611 0.95692 0.0
H1002 H 0.83883 0.31838 0.92543 0.0
H1003 H 0.88917 0.3012 0.9032 0.0
H1004 H 0.91846 0.33827 0.93565 0.0
H1005 H 0.91952 0.32993 0.88334 0.0
H1006 H 0.88742 0.42593 0.82026 0.0
H1007 H 0.93581 0.46736 0.86747 0.0
H1008 H 0.93235 0.39987 0.94998 0.0
C1009 C 0.83828 0.30189 0.83442 0.0
C1010 C 0.82691 0.29522 0.79272 0.0
C1011 C 0.83325 0.32129 0.77155 0.0
C1012 C 0.84926 0.35416 0.79179 0.0
C1013 C 0.86005 0.36021 0.83304 0.0
C1014 C 0.856 0.33475 0.85403 0.0
C1015 C 0.87654 0.34712 0.89642 0.0
C1016 C 0.85288 0.34483 0.92635 0.0
C1017 C 0.90246 0.328 0.90513 0.0
C1018 C 0.89405 0.38312 0.89525 0.0
C1019 C 0.88268 0.39029 0.85888 0.0
C1020 C 0.89655 0.42077 0.84889 0.0
C1021 C 0.9242 0.44398 0.87575 0.0
C1022 C 0.938 0.43638 0.91186 0.0
C1023 C 0.92192 0.40621 0.92263 0.0
H1024 H 0.68372 0.82246 0.76306 0.0
H1025 H 0.73289 0.80484 0.87426 0.0
H1026 H 0.70159 0.83635 0.91117 0.0
H1027 H 0.68389 0.90764 0.80326 0.0
H1028 H 0.64345 0.90148 0.77079 0.0
H1029 H 0.67186 0.87884 0.75607 0.0
H1030 H 0.62089 0.82227 0.74737 0.0
H1031 H 0.59497 0.84776 0.76221 0.0
H1032 H 0.60075 0.81587 0.78894 0.0
H1033 H 0.66264 0.86748 0.93588 0.0
H1034 H 0.62304 0.89954 0.94756 0.0
H1035 H 0.60105 0.90059 0.82098 0.0
C1036 C 0.68814 0.82538 0.79522 0.0
C1037 C 0.71103 0.81103 0.81561 0.0
C1038 C 0.71581 0.81558 0.85776 0.0
C1039 C 0.69795 0.83338 0.87906 0.0
C1040 C 0.67539 0.84681 0.85801 0.0
C1041 C 0.67067 0.84333 0.81708 0.0
C1042 C 0.64515 0.86056 0.80178 0.0
C1043 C 0.66204 0.88879 0.78176 0.0
C1044 C 0.61358 0.83516 0.77336 0.0
C1045 C 0.63623 0.87434 0.84048 0.0
C1046 C 0.65378 0.86579 0.87245 0.0
C1047 C 0.64923 0.87476 0.91109 0.0
C1048 C 0.62671 0.89338 0.91743 0.0
C1049 C 0.60904 0.90364 0.8855 0.0
C1050 C 0.61382 0.89341 0.84631 0.0
H1051 H 0.81498 0.67867 0.09365 0.0
H1052 H 0.75939 0.62313 0.17018 0.0
H1053 H 0.78906 0.58085 0.15966 0.0
H1054 H 0.81198 0.60064 0.02261 0.0
H1055 H 0.85347 0.61871 0.0127 0.0
H1056 H 0.82683 0.64466 0.02313 0.0
H1057 H 0.87409 0.68368 0.08106 0.0
H1058 H 0.90165 0.65887 0.07086 0.0
H1059 H 0.89275 0.66649 0.12012 0.0
H1060 H 0.82995 0.54997 0.14969 0.0
H1061 H 0.87371 0.52528 0.13083 0.0
H1062 H 0.89977 0.59677 0.05509 0.0
C1063 C 0.80829 0.65691 0.10686 0.0
C1064 C 0.78472 0.6537 0.13224 0.0
C1065 C 0.77684 0.62545 0.14988 0.0
C1066 C 0.79375 0.6015 0.14438 0.0
C1067 C 0.81751 0.60568 0.12004 0.0
C1068 C 0.82401 0.63196 0.10038 0.0
C1069 C 0.85065 0.63 0.07561 0.0
C1070 C 0.83479 0.62312 0.03086 0.0
C1071 C 0.88161 0.66164 0.08768 0.0
C1072 C 0.85973 0.59999 0.08685 0.0
C1073 C 0.84014 0.5864 0.11243 0.0
C1074 C 0.84495 0.55982 0.12896 0.0
C1075 C 0.87005 0.54622 0.11842 0.0
C1076 C 0.8899 0.55917 0.09155 0.0
C1077 C 0.88461 0.58631 0.07541 0.0
H1078 H 0.32671 0.85984 0.23616 0.0
H1079 H 0.26696 0.78251 0.1343 0.0
H1080 H 0.29544 0.81451 0.08912 0.0
H1081 H 0.33421 0.93298 0.18017 0.0
H1082 H 0.37727 0.95336 0.20768 0.0
H1083 H 0.34624 0.92901 0.23107 0.0
H1084 H 0.3867 0.89417 0.24788 0.0
H1085 H 0.41743 0.91766 0.22375 0.0
H1086 H 0.40113 0.87292 0.20814 0.0
H1087 H 0.33728 0.84743 0.05717 0.0
H1088 H 0.38761 0.88322 0.03884 0.0
H1089 H 0.42134 0.93985 0.16071 0.0
C1090 C 0.31858 0.85073 0.20419 0.0
C1091 C 0.29449 0.8192 0.18832 0.0
C1092 C 0.28519 0.80696 0.14661 0.0
C1093 C 0.30115 0.82493 0.12079 0.0
C1094 C 0.32622 0.85516 0.13726 0.0
C1095 C 0.33453 0.86844 0.17788 0.0
C1096 C 0.36527 0.89936 0.18801 0.0
C1097 C 0.35513 0.93052 0.20259 0.0
C1098 C 0.39433 0.89577 0.21874 0.0
C1099 C 0.37436 0.89962 0.14738 0.0
C1100 C 0.35099 0.8744 0.11842 0.0
C1101 C 0.35525 0.86795 0.07923 0.0
C1102 C 0.38393 0.88824 0.06915 0.0
C1103 C 0.40804 0.91436 0.09826 0.0
C1104 C 0.40314 0.92011 0.13782 0.0
H1105 H 0.67916 0.19702 0.16158 0.0
H1106 H 0.75385 0.14965 0.13018 0.0
H1107 H 0.71218 0.11399 0.07108 0.0
H1108 H 0.61545 0.13418 0.1496 0.0
H1109 H 0.58155 0.14773 0.12533 0.0
H1110 H 0.61954 0.17801 0.15485 0.0
H1111 H 0.6286 0.20634 0.09474 0.0
H1112 H 0.59013 0.17606 0.06478 0.0
H1113 H 0.62975 0.18201 0.04794 0.0
H1114 H 0.66085 0.07275 0.0324 0.0
H1115 H 0.60444 0.03076 0.01617 0.0
H1116 H 0.56065 0.10352 0.06861 0.0
C1117 C 0.68696 0.18015 0.14107 0.0
C1118 C 0.71933 0.17568 0.15038 0.0
C1119 C 0.72897 0.15323 0.12355 0.0
C1120 C 0.70557 0.13314 0.08959 0.0
C1121 C 0.67288 0.13634 0.08244 0.0
C1122 C 0.66376 0.15997 0.10681 0.0
C1123 C 0.62567 0.15446 0.0966 0.0
C1124 C 0.60967 0.15348 0.13381 0.0
C1125 C 0.61809 0.18131 0.07472 0.0
C1126 C 0.6144 0.12085 0.06829 0.0
C1127 C 0.64216 0.11197 0.05846 0.0
C1128 C 0.63881 0.07998 0.03819 0.0
C1129 C 0.60666 0.05618 0.02902 0.0
C1130 C 0.57834 0.06449 0.03991 0.0
C1131 C 0.582 0.09729 0.05882 0.0
H1132 H 0.65844 0.63681 0.74483 0.0
H1133 H 0.72949 0.71718 0.83666 0.0
H1134 H 0.71089 0.6873 0.88845 0.0
H1135 H 0.59136 0.62356 0.79702 0.0
H1136 H 0.57625 0.57885 0.78065 0.0
H1137 H 0.59783 0.60441 0.74996 0.0
H1138 H 0.64162 0.5714 0.74945 0.0
H1139 H 0.62015 0.54568 0.78017 0.0
H1140 H 0.66503 0.56782 0.7961 0.0
H1141 H 0.68206 0.65157 0.93085 0.0
H1142 H 0.64352 0.61211 0.96119 0.0
H1143 H 0.58986 0.55497 0.84294 0.0
C1144 C 0.67042 0.64773 0.77581 0.0
C1145 C 0.69592 0.67901 0.78666 0.0
C1146 C 0.71048 0.69292 0.82754 0.0
C1147 C 0.70003 0.67618 0.85729 0.0
C1148 C 0.67472 0.64557 0.84581 0.0
C1149 C 0.66 0.63139 0.80612 0.0
C1150 C 0.63158 0.5993 0.80234 0.0
C1151 C 0.59723 0.6017 0.78126 0.0
C1152 C 0.64012 0.56927 0.78074 0.0
C1153 C 0.63222 0.59826 0.84605 0.0
C1154 C 0.65757 0.625 0.87055 0.0
C1155 C 0.66229 0.6303 0.91203 0.0
C1156 C 0.64024 0.60781 0.929 0.0
C1157 C 0.61376 0.58045 0.9045 0.0
C1158 C 0.61005 0.5755 0.8625 0.0
H1159 H 0.32771 0.62852 0.80151 0.0
H1160 H 0.39636 0.7296 0.83772 0.0
H1161 H 0.42563 0.71462 0.8966 0.0
H1162 H 0.32361 0.61182 0.90307 0.0
H1163 H 0.32386 0.56943 0.88857 0.0
H1164 H 0.30489 0.58913 0.85261 0.0
H1165 H 0.34417 0.57641 0.805 0.0
H1166 H 0.36234 0.556 0.84038 0.0
H1167 H 0.38967 0.58957 0.82356 0.0
H1168 H 0.44994 0.6882 0.94804 0.0
H1169 H 0.47538 0.64977 0.97927 0.0
H1170 H 0.39206 0.56566 0.90919 0.0
C1171 C 0.34893 0.64741 0.82191 0.0
C1172 C 0.36004 0.68007 0.81518 0.0
C1173 C 0.38785 0.70427 0.84223 0.0
C1174 C 0.40415 0.69618 0.87611 0.0
C1175 C 0.39223 0.66384 0.88238 0.0
C1176 C 0.36568 0.63966 0.85562 0.0
C1177 C 0.36074 0.60578 0.86631 0.0
C1178 C 0.32622 0.59333 0.87835 0.0
C1179 C 0.36449 0.58048 0.83179 0.0
C1180 C 0.38991 0.61438 0.90195 0.0
C1181 C 0.40686 0.64824 0.91179 0.0
C1182 C 0.4366 0.66174 0.9412 0.0
C1183 C 0.45072 0.63984 0.95907 0.0
C1184 C 0.43531 0.60507 0.94668 0.0
C1185 C 0.40367 0.59231 0.91955 0.0
H1186 H 0.32424 0.30681 0.83359 0.0
H1187 H 0.30453 0.35979 0.73981 0.0
H1188 H 0.33036 0.41322 0.78764 0.0
H1189 H 0.32414 0.3774 0.92358 0.0
H1190 H 0.35837 0.36793 0.95343 0.0
H1191 H 0.32521 0.33498 0.91845 0.0
H1192 H 0.37104 0.3173 0.88576 0.0
H1193 H 0.40397 0.35008 0.92007 0.0
H1194 H 0.40092 0.34757 0.8671 0.0
H1195 H 0.37304 0.45715 0.8341 0.0
H1196 H 0.43068 0.48719 0.87316 0.0
H1197 H 0.42642 0.40829 0.93938 0.0
C1198 C 0.32414 0.32982 0.82392 0.0
C1199 C 0.31264 0.32969 0.78354 0.0
C1200 C 0.31341 0.35974 0.7709 0.0
C1201 C 0.32752 0.3901 0.79804 0.0
C1202 C 0.34086 0.38979 0.83748 0.0
C1203 C 0.33896 0.36028 0.85062 0.0
C1204 C 0.36222 0.36633 0.89094 0.0
C1205 C 0.34124 0.3614 0.92353 0.0
C1206 C 0.38594 0.34405 0.89086 0.0
C1207 C 0.38154 0.40273 0.8951 0.0
C1208 C 0.3672 0.41628 0.86537 0.0
C1209 C 0.38392 0.44726 0.85817 0.0
C1210 C 0.41685 0.46389 0.87997 0.0
C1211 C 0.43255 0.44948 0.90859 0.0
C1212 C 0.41422 0.41962 0.91785 0.0
H1213 H 0.72564 0.38386 0.83032 0.0
H1214 H 0.69125 0.28397 0.85262 0.0
H1215 H 0.66151 0.30341 0.90326 0.0
H1216 H 0.73599 0.42896 0.93644 0.0
H1217 H 0.72064 0.46133 0.91975 0.0
H1218 H 0.7438 0.44074 0.89012 0.0
H1219 H 0.69349 0.42526 0.82912 0.0
H1220 H 0.67034 0.44573 0.85855 0.0
H1221 H 0.65135 0.40263 0.83382 0.0
H1222 H 0.62712 0.33044 0.94034 0.0
H1223 H 0.59263 0.36499 0.96497 0.0
H1224 H 0.65273 0.44854 0.92389 0.0
C1225 C 0.71266 0.36656 0.84691 0.0
C1226 C 0.71068 0.33274 0.83842 0.0
C1227 C 0.69303 0.31017 0.85953 0.0
C1228 C 0.67628 0.32095 0.8883 0.0
C1229 C 0.67806 0.35446 0.89582 0.0
C1230 C 0.69614 0.37708 0.87618 0.0
C1231 C 0.69125 0.41091 0.88713 0.0
C1232 C 0.72493 0.43703 0.90972 0.0
C1233 C 0.67567 0.42173 0.84995 0.0
C1234 C 0.66636 0.40325 0.91433 0.0
C1235 C 0.65925 0.37061 0.91922 0.0
C1236 C 0.63337 0.35643 0.93821 0.0
C1237 C 0.61395 0.37609 0.9521 0.0
C1238 C 0.6212 0.40948 0.94747 0.0
C1239 C 0.64801 0.42339 0.92915 0.0
H1240 H 0.64102 0.28333 0.16639 0.0
H1241 H 0.73536 0.34194 0.14125 0.0
H1242 H 0.70288 0.36911 0.09824 0.0
H1243 H 0.58623 0.27186 0.06941 0.0
H1244 H 0.55065 0.27667 0.09079 0.0
H1245 H 0.58108 0.25976 0.11628 0.0
H1246 H 0.59173 0.3054 0.17969 0.0
H1247 H 0.5614 0.32241 0.15441 0.0
H1248 H 0.60431 0.34869 0.17612 0.0
H1249 H 0.66043 0.39146 0.06094 0.0
H1250 H 0.61145 0.41049 0.03615 0.0
H1251 H 0.54567 0.33803 0.0874 0.0
C1252 C 0.65475 0.3016 0.15141 0.0
C1253 C 0.69047 0.31058 0.15665 0.0
C1254 C 0.70786 0.33489 0.13733 0.0
C1255 C 0.68966 0.35023 0.11277 0.0
C1256 C 0.65432 0.34093 0.10831 0.0
C1257 C 0.6371 0.31739 0.12737 0.0
C1258 C 0.59948 0.31376 0.12042 0.0
C1259 C 0.57811 0.27841 0.09787 0.0
C1260 C 0.58861 0.32314 0.16 0.0
C1261 C 0.59822 0.33912 0.09464 0.0
C1262 C 0.63 0.35424 0.08754 0.0
C1263 C 0.63535 0.37953 0.06585 0.0
C1264 C 0.60749 0.38999 0.05165 0.0
C1265 C 0.57504 0.37515 0.05934 0.0
C1266 C 0.57029 0.34928 0.08074 0.0
H1267 H 0.68345 0.67406 0.15978 0.0
H1268 H 0.65535 0.6588 0.27216 0.0
H1269 H 0.61921 0.60135 0.24003 0.0
H1270 H 0.60534 0.63507 0.09943 0.0
H1271 H 0.62022 0.61627 0.05835 0.0
H1272 H 0.64761 0.65376 0.09173 0.0
H1273 H 0.69375 0.62434 0.10543 0.0
H1274 H 0.66616 0.58625 0.0729 0.0
H1275 H 0.68367 0.58621 0.12386 0.0
H1276 H 0.58328 0.54898 0.19556 0.0
H1277 H 0.5429 0.50732 0.13988 0.0
H1278 H 0.59429 0.55661 0.05556 0.0
C1279 C 0.67038 0.6581 0.1776 0.0
C1280 C 0.67214 0.67002 0.21814 0.0
C1281 C 0.65381 0.6496 0.2408 0.0
C1282 C 0.63387 0.61696 0.22304 0.0
C1283 C 0.63299 0.60553 0.18289 0.0
C1284 C 0.65051 0.62554 0.16031 0.0
C1285 C 0.64205 0.60867 0.11679 0.0
C1286 C 0.62794 0.62969 0.09003 0.0
C1287 C 0.67326 0.6009 0.10402 0.0
C1288 C 0.61502 0.57711 0.11797 0.0
C1289 C 0.61127 0.57524 0.15662 0.0
C1290 C 0.58616 0.54985 0.1652 0.0
C1291 C 0.56325 0.52644 0.13332 0.0
C1292 C 0.56532 0.52909 0.09346 0.0
C1293 C 0.59227 0.55398 0.08576 0.0
H1294 H 0.3219 0.63239 0.18935 0.0
H1295 H 0.3179 0.70231 0.11108 0.0
H1296 H 0.33819 0.66853 0.06129 0.0
H1297 H 0.3977 0.61886 0.17157 0.0
H1298 H 0.38453 0.57522 0.17345 0.0
H1299 H 0.36694 0.60341 0.20084 0.0
H1300 H 0.30585 0.56659 0.16483 0.0
H1301 H 0.32334 0.53831 0.13719 0.0
H1302 H 0.29487 0.55691 0.11105 0.0
H1303 H 0.36213 0.62882 0.02221 0.0
H1304 H 0.39093 0.5878 -0.00099 0.0
H1305 H 0.37821 0.54478 0.10328 0.0
C1306 C 0.32508 0.64042 0.16161 0.0
C1307 C 0.31853 0.66974 0.15379 0.0
C1308 C 0.32296 0.67975 0.11737 0.0
C1309 C 0.3342 0.66069 0.08891 0.0
C1310 C 0.34049 0.63176 0.09751 0.0
C1311 C 0.33611 0.62172 0.133 0.0
C1312 C 0.34652 0.59086 0.13623 0.0
C1313 C 0.37566 0.59751 0.17266 0.0
C1314 C 0.3158 0.56143 0.13737 0.0
C1315 C 0.35846 0.5857 0.09756 0.0
C1316 C 0.35435 0.60914 0.07524 0.0
C1317 C 0.36521 0.61013 0.03922 0.0
C1318 C 0.38145 0.5869 0.02624 0.0
C1319 C 0.3869 0.56372 0.04968 0.0
C1320 C 0.37447 0.56258 0.08509 0.0
H1321 H 0.34473 0.34728 0.2394 0.0
H1322 H 0.29708 0.25016 0.16109 0.0
H1323 H 0.31591 0.27274 0.10462 0.0
H1324 H 0.32306 0.39475 0.1653 0.0
H1325 H 0.36263 0.42817 0.18155 0.0
H1326 H 0.34525 0.40478 0.2167 0.0
H1327 H 0.40157 0.39042 0.23499 0.0
H1328 H 0.41923 0.4141 0.20031 0.0
H1329 H 0.41817 0.37108 0.19595 0.0
H1330 H 0.34063 0.30492 0.0564 0.0
H1331 H 0.37202 0.34507 0.02044 0.0
H1332 H 0.40257 0.4217 0.12864 0.0
C1333 C 0.33831 0.33091 0.21035 0.0
C1334 C 0.31933 0.29701 0.20468 0.0
C1335 C 0.31134 0.27629 0.16619 0.0
C1336 C 0.32192 0.28886 0.13378 0.0
C1337 C 0.34023 0.32237 0.14006 0.0
C1338 C 0.34842 0.3432 0.17728 0.0
C1339 C 0.36859 0.37824 0.17555 0.0
C1340 C 0.34869 0.40294 0.18536 0.0
C1341 C 0.40399 0.38908 0.20334 0.0
C1342 C 0.37109 0.37343 0.13195 0.0
C1343 C 0.35427 0.3411 0.11192 0.0
C1344 C 0.35372 0.33045 0.07162 0.0
C1345 C 0.37146 0.35342 0.05138 0.0
C1346 C 0.38958 0.38648 0.07163 0.0
C1347 C 0.38881 0.39661 0.11224 0.0
H1348 H 0.81516 0.69406 0.64264 0.0
H1349 H 0.77027 0.63709 0.72497 0.0
H1350 H 0.79945 0.59556 0.70773 0.0
H1351 H 0.81342 0.61989 0.56655 0.0
H1352 H 0.85403 0.64043 0.55592 0.0
H1353 H 0.82696 0.66451 0.57107 0.0
H1354 H 0.87617 0.70119 0.62888 0.0
H1355 H 0.9033 0.6771 0.61413 0.0
H1356 H 0.89612 0.68176 0.66437 0.0
H1357 H 0.83651 0.56267 0.68735 0.0
H1358 H 0.87794 0.53805 0.662 0.0
H1359 H 0.90104 0.61403 0.59119 0.0
C1360 C 0.81058 0.67217 0.6558 0.0
C1361 C 0.78965 0.66848 0.68462 0.0
C1362 C 0.78555 0.64019 0.7024 0.0
C1363 C 0.80219 0.61646 0.69291 0.0
C1364 C 0.82318 0.62104 0.66536 0.0
C1365 C 0.82732 0.64789 0.64659 0.0
C1366 C 0.85299 0.64711 0.61957 0.0
C1367 C 0.83582 0.64272 0.57566 0.0
C1368 C 0.88398 0.67867 0.63252 0.0
C1369 C 0.86296 0.61616 0.62696 0.0
C1370 C 0.84519 0.60166 0.65345 0.0
C1371 C 0.85043 0.57368 0.66638 0.0
C1372 C 0.87437 0.55999 0.652 0.0
C1373 C 0.89324 0.57404 0.62478 0.0
C1374 C 0.88704 0.60247 0.61179 0.0
H1375 H 0.32763 0.7718 0.62908 0.0
H1376 H 0.32929 0.84132 0.7352 0.0
H1377 H 0.35349 0.88861 0.70448 0.0
H1378 H 0.40777 0.82091 0.60838 0.0
H1379 H 0.39252 0.8098 0.55502 0.0
H1380 H 0.37595 0.78147 0.58588 0.0
H1381 H 0.31477 0.78054 0.555 0.0
H1382 H 0.33138 0.80979 0.52509 0.0
H1383 H 0.30436 0.81913 0.55817 0.0
H1384 H 0.37444 0.9275 0.66306 0.0
H1385 H 0.40236 0.95813 0.61667 0.0
H1386 H 0.38884 0.86461 0.53626 0.0
C1387 C 0.33393 0.79705 0.64589 0.0
C1388 C 0.32721 0.80343 0.68444 0.0
C1389 C 0.33483 0.83644 0.70572 0.0
C1390 C 0.34815 0.86329 0.68841 0.0
C1391 C 0.35347 0.85645 0.64983 0.0
C1392 C 0.34742 0.82433 0.62898 0.0
C1393 C 0.35651 0.82448 0.58827 0.0
C1394 C 0.38488 0.80821 0.58417 0.0
C1395 C 0.32486 0.80747 0.55465 0.0
C1396 C 0.36908 0.86171 0.59004 0.0
C1397 C 0.3663 0.87944 0.62558 0.0
C1398 C 0.37694 0.91404 0.63514 0.0
C1399 C 0.39265 0.93117 0.60858 0.0
C1400 C 0.39781 0.91361 0.5732 0.0
C1401 C 0.38475 0.8785 0.56296 0.0
H1402 H 0.16355 0.27611 0.64752 0.0
H1403 H 0.24022 0.35125 0.73978 0.0
H1404 H 0.21399 0.39391 0.72261 0.0
H1405 H 0.15297 0.32991 0.57536 0.0
H1406 H 0.10732 0.3118 0.56096 0.0
H1407 H 0.13351 0.28706 0.57766 0.0
H1408 H 0.09862 0.27374 0.63181 0.0
H1409 H 0.07235 0.29846 0.61538 0.0
H1410 H 0.09424 0.30746 0.66681 0.0
H1411 H 0.18016 0.42878 0.69677 0.0
H1412 H 0.1384 0.45373 0.66699 0.0
H1413 H 0.07864 0.35676 0.59406 0.0
C1414 C 0.17507 0.3017 0.66347 0.0
C1415 C 0.20452 0.31045 0.6946 0.0
C1416 C 0.21811 0.34399 0.71559 0.0
C1417 C 0.20332 0.36846 0.70603 0.0
C1418 C 0.1743 0.3592 0.67568 0.0
C1419 C 0.15997 0.32663 0.65483 0.0
C1420 C 0.12723 0.32349 0.62547 0.0
C1421 C 0.13046 0.31241 0.5823 0.0
C1422 C 0.09628 0.29936 0.63547 0.0
C1423 C 0.12564 0.35933 0.63319 0.0
C1424 C 0.15337 0.37935 0.66205 0.0
C1425 C 0.15812 0.41327 0.67444 0.0
C1426 C 0.13383 0.42722 0.65746 0.0
C1427 C 0.10437 0.40748 0.62849 0.0
C1428 C 0.10065 0.3729 0.61597 0.0
H1429 H 0.68646 0.18766 0.63057 0.0
H1430 H 0.6522 0.16732 0.73864 0.0
H1431 H 0.62887 0.10756 0.70742 0.0
H1432 H 0.61427 0.13952 0.56771 0.0
H1433 H 0.63334 0.12456 0.52827 0.0
H1434 H 0.65561 0.16348 0.56202 0.0
H1435 H 0.70757 0.14166 0.57931 0.0
H1436 H 0.68462 0.10236 0.54577 0.0
H1437 H 0.7017 0.10331 0.59717 0.0
H1438 H 0.60812 0.05221 0.66696 0.0
H1439 H 0.5676 0.01034 0.61229 0.0
H1440 H 0.60739 0.06676 0.5266 0.0
C1441 C 0.67476 0.17027 0.64787 0.0
C1442 C 0.67135 0.18159 0.68694 0.0
C1443 C 0.65513 0.15884 0.70867 0.0
C1444 C 0.64298 0.12482 0.69183 0.0
C1445 C 0.64749 0.1141 0.65357 0.0
C1446 C 0.66186 0.13626 0.6312 0.0
C1447 C 0.65582 0.11946 0.5878 0.0
C1448 C 0.6387 0.13783 0.55985 0.0
C1449 C 0.68942 0.11652 0.57687 0.0
C1450 C 0.63229 0.08553 0.5886 0.0
C1451 C 0.63066 0.08223 0.62746 0.0
C1452 C 0.60899 0.05446 0.63641 0.0
C1453 C 0.58582 0.03096 0.60503 0.0
C1454 C 0.58357 0.0362 0.56541 0.0
C1455 C 0.60857 0.06246 0.55672 0.0
H1456 H 0.78783 0.33596 0.36418 0.0
H1457 H 0.84319 0.27119 0.31905 0.0
H1458 H 0.88809 0.293 0.37897 0.0
H1459 H 0.84777 0.40252 0.38623 0.0
H1460 H 0.84133 0.42259 0.43291 0.0
H1461 H 0.80635 0.39156 0.39912 0.0
H1462 H 0.79679 0.35836 0.45526 0.0
H1463 H 0.83257 0.38939 0.48918 0.0
H1464 H 0.83123 0.34624 0.48063 0.0
H1465 H 0.93367 0.33137 0.42746 0.0
H1466 H 0.97688 0.38625 0.45037 0.0
H1467 H 0.898 0.43247 0.46412 0.0
C1468 C 0.80877 0.32552 0.36823 0.0
C1469 C 0.81145 0.30093 0.33783 0.0
C1470 C 0.83974 0.28868 0.34284 0.0
C1471 C 0.8655 0.30105 0.37705 0.0
C1472 C 0.86325 0.32646 0.40594 0.0
C1473 C 0.83547 0.33866 0.40203 0.0
C1474 C 0.8433 0.37137 0.4314 0.0
C1475 C 0.83422 0.39858 0.41113 0.0
C1476 C 0.82488 0.36601 0.46616 0.0
C1477 C 0.88143 0.37876 0.44576 0.0
C1478 C 0.89161 0.35103 0.43393 0.0
C1479 C 0.92598 0.35291 0.43793 0.0
C1480 C 0.95044 0.38417 0.45084 0.0
C1481 C 0.94032 0.41298 0.45927 0.0
C1482 C 0.90584 0.41023 0.45893 0.0
H1483 H 0.73676 0.85678 0.3619 0.0
H1484 H 0.68841 0.76378 0.39512 0.0
H1485 H 0.64582 0.78796 0.41903 0.0
H1486 H 0.72021 0.9139 0.4448 0.0
H1487 H 0.71227 0.94141 0.41223 0.0
H1488 H 0.74192 0.91847 0.4039 0.0
H1489 H 0.70779 0.89406 0.33122 0.0
H1490 H 0.67755 0.91615 0.33957 0.0
H1491 H 0.66305 0.87153 0.32254 0.0
H1492 H 0.60191 0.81773 0.42516 0.0
H1493 H 0.56655 0.85596 0.42742 0.0
H1494 H 0.64576 0.93091 0.39541 0.0
C1495 C 0.71813 0.84203 0.37585 0.0
C1496 C 0.71591 0.80852 0.37691 0.0
C1497 C 0.69073 0.78965 0.39447 0.0
C1498 C 0.66626 0.80307 0.40779 0.0
C1499 C 0.66779 0.8355 0.40391 0.0
C1500 C 0.69365 0.8551 0.38945 0.0
C1501 C 0.68825 0.88837 0.38591 0.0
C1502 C 0.7174 0.91724 0.41336 0.0
C1503 C 0.6839 0.89276 0.34224 0.0
C1504 C 0.65519 0.88427 0.40028 0.0
C1505 C 0.64343 0.85338 0.4098 0.0
C1506 C 0.61143 0.84245 0.41923 0.0
C1507 C 0.59147 0.86417 0.42022 0.0
C1508 C 0.60415 0.89667 0.41313 0.0
C1509 C 0.63618 0.90661 0.40253 0.0
H1510 H 0.20466 0.68365 0.3493 0.0
H1511 H 0.18087 0.63402 0.22471 0.0
H1512 H 0.13109 0.59233 0.23641 0.0
H1513 H 0.18216 0.60825 0.38852 0.0
H1514 H 0.16507 0.62683 0.42759 0.0
H1515 H 0.19869 0.65244 0.40882 0.0
H1516 H 0.161 0.69035 0.39342 0.0
H1517 H 0.127 0.66434 0.41131 0.0
H1518 H 0.11926 0.67222 0.36154 0.0
H1519 H 0.0832 0.5572 0.26131 0.0
H1520 H 0.04437 0.52682 0.29967 0.0
H1521 H 0.10066 0.59906 0.40798 0.0
C1522 C 0.18918 0.66372 0.32468 0.0
C1523 C 0.19658 0.66172 0.2863 0.0
C1524 C 0.17586 0.63551 0.25458 0.0
C1525 C 0.14735 0.61199 0.26079 0.0
C1526 C 0.14035 0.615 0.29892 0.0
C1527 C 0.16097 0.63983 0.33047 0.0
C1528 C 0.14845 0.63691 0.36876 0.0
C1529 C 0.17518 0.63073 0.40027 0.0
C1530 C 0.13832 0.66779 0.38467 0.0
C1531 C 0.11763 0.60648 0.3538 0.0
C1532 C 0.1131 0.59445 0.31336 0.0
C1533 C 0.08652 0.56625 0.29303 0.0
C1534 C 0.06461 0.54926 0.315 0.0
C1535 C 0.06979 0.56052 0.35674 0.0
C1536 C 0.09619 0.58984 0.37609 0.0
H1537 H 0.38043 0.22996 0.38318 0.0
H1538 H 0.27725 0.16829 0.37729 0.0
H1539 H 0.29966 0.1279 0.40752 0.0
H1540 H 0.41393 0.16708 0.35594 0.0
H1541 H 0.45485 0.1844 0.38971 0.0
H1542 H 0.43145 0.21156 0.37381 0.0
H1543 H 0.43384 0.23676 0.44755 0.0
H1544 H 0.45759 0.20978 0.46369 0.0
H1545 H 0.41861 0.2095 0.48022 0.0
H1546 H 0.33167 0.08963 0.42622 0.0
H1547 H 0.37245 0.05792 0.43863 0.0
H1548 H 0.45586 0.14424 0.43675 0.0
C1549 C 0.36271 0.20858 0.38969 0.0
C1550 C 0.3271 0.20241 0.37813 0.0
C1551 C 0.30462 0.17369 0.38614 0.0
C1552 C 0.31709 0.15053 0.40332 0.0
C1553 C 0.35221 0.15658 0.41301 0.0
C1554 C 0.37483 0.18517 0.40731 0.0
C1555 C 0.4113 0.18424 0.41802 0.0
C1556 C 0.42889 0.18697 0.38223 0.0
C1557 C 0.43154 0.21171 0.45454 0.0
C1558 C 0.40537 0.14993 0.42827 0.0
C1559 C 0.37104 0.13461 0.42549 0.0
C1560 C 0.35871 0.10169 0.4297 0.0
C1561 C 0.38198 0.08385 0.43666 0.0
C1562 C 0.41723 0.09895 0.43964 0.0
C1563 C 0.42913 0.13259 0.43602 0.0
H1564 H 0.64561 0.79387 0.67418 0.0
H1565 H 0.69084 0.76902 0.57398 0.0
H1566 H 0.65973 0.80007 0.53487 0.0
H1567 H 0.56187 0.78489 0.61618 0.0
H1568 H 0.55609 0.8191 0.64901 0.0
H1569 H 0.58197 0.7951 0.66839 0.0
H1570 H 0.63368 0.84908 0.6951 0.0
H1571 H 0.60668 0.87264 0.67734 0.0
H1572 H 0.64669 0.87636 0.66185 0.0
H1573 H 0.62892 0.8403 0.51094 0.0
H1574 H 0.594 0.87761 0.49951 0.0
H1575 H 0.56184 0.86764 0.61144 0.0
C1576 C 0.64837 0.79449 0.64369 0.0
C1577 C 0.67012 0.7789 0.62664 0.0
C1578 C 0.67373 0.78045 0.58705 0.0
C1579 C 0.65641 0.79821 0.56489 0.0
C1580 C 0.63528 0.81368 0.58273 0.0
C1581 C 0.63068 0.81133 0.62097 0.0
C1582 C 0.60631 0.82971 0.63324 0.0
C1583 C 0.57467 0.80576 0.64221 0.0
C1584 C 0.62439 0.85869 0.66899 0.0
C1585 C 0.59761 0.84262 0.59591 0.0
C1586 C 0.61525 0.83395 0.56751 0.0
C1587 C 0.61397 0.84608 0.53234 0.0
C1588 C 0.59359 0.86695 0.52579 0.0
C1589 C 0.57375 0.87476 0.55348 0.0
C1590 C 0.5762 0.86234 0.58917 0.0
H1591 H 0.72057 0.19114 0.35146 0.0
H1592 H 0.64787 0.22524 0.27798 0.0
H1593 H 0.60089 0.18838 0.3002 0.0
H1594 H 0.6765 0.1104 0.32862 0.0
H1595 H 0.68609 0.10042 0.377 0.0
H1596 H 0.71519 0.13478 0.36379 0.0
H1597 H 0.71198 0.17546 0.42545 0.0
H1598 H 0.68384 0.14105 0.44006 0.0
H1599 H 0.67099 0.17749 0.43423 0.0
H1600 H 0.56207 0.13961 0.31697 0.0
H1601 H 0.53316 0.08846 0.33862 0.0
H1602 H 0.6305 0.08724 0.4036 0.0
C1603 C 0.69491 0.1919 0.34128 0.0
C1604 C 0.68782 0.21081 0.3127 0.0
C1605 C 0.65389 0.21084 0.29975 0.0
C1606 C 0.627 0.18998 0.31219 0.0
C1607 C 0.63464 0.16981 0.33807 0.0
C1608 C 0.66781 0.1713 0.35352 0.0
C1609 C 0.66888 0.14478 0.37788 0.0
C1610 C 0.68777 0.12122 0.36077 0.0
C1611 C 0.68485 0.16065 0.42203 0.0
C1612 C 0.63113 0.12717 0.37198 0.0
C1613 C 0.61188 0.14203 0.34894 0.0
C1614 C 0.5767 0.12827 0.33599 0.0
C1615 C 0.56061 0.09902 0.34788 0.0
C1616 C 0.57973 0.08423 0.37272 0.0
C1617 C 0.61538 0.09844 0.3849 0.0
H1618 H 0.82274 0.66262 0.26087 0.0
H1619 H 0.81088 0.71651 0.37198 0.0
H1620 H 0.84395 0.6868 0.40962 0.0
H1621 H 0.81484 0.58418 0.2911 0.0
H1622 H 0.84645 0.57438 0.26547 0.0
H1623 H 0.82234 0.60021 0.24696 0.0
H1624 H 0.8782 0.64652 0.25021 0.0
H1625 H 0.90263 0.62092 0.26861 0.0
H1626 H 0.90925 0.66229 0.29652 0.0
H1627 H 0.877 0.65009 0.43556 0.0
H1628 H 0.90923 0.61094 0.44831 0.0
H1629 H 0.90199 0.58131 0.32082 0.0
C1630 C 0.82715 0.66834 0.29315 0.0
C1631 C 0.81392 0.69209 0.3133 0.0
C1632 C 0.82046 0.69853 0.35561 0.0
C1633 C 0.83929 0.6817 0.37735 0.0
C1634 C 0.85164 0.65835 0.35658 0.0
C1635 C 0.84598 0.65173 0.31541 0.0
C1636 C 0.86213 0.62539 0.30048 0.0
C1637 C 0.83481 0.59419 0.27447 0.0
C1638 C 0.8897 0.63964 0.27761 0.0
C1639 C 0.87771 0.61816 0.33972 0.0
C1640 C 0.87121 0.63747 0.37161 0.0
C1641 C 0.8825 0.63512 0.41079 0.0
C1642 C 0.90114 0.61281 0.41773 0.0
C1643 C 0.90891 0.59296 0.38581 0.0
C1644 C 0.89658 0.59572 0.34613 0.0
H1645 H 0.36782 0.7671 0.34919 0.0
H1646 H 0.27497 0.79186 0.357 0.0
H1647 H 0.30753 0.84415 0.40435 0.0
H1648 H 0.4177 0.82196 0.461 0.0
H1649 H 0.45646 0.832 0.44229 0.0
H1650 H 0.42615 0.79081 0.42611 0.0
H1651 H 0.4246 0.79694 0.3528 0.0
H1652 H 0.45384 0.83812 0.3684 0.0
H1653 H 0.41293 0.83143 0.33658 0.0
H1654 H 0.34844 0.89953 0.42495 0.0
H1655 H 0.39521 0.95074 0.42783 0.0
H1656 H 0.46266 0.89161 0.40736 0.0
C1657 C 0.35442 0.78256 0.36328 0.0
C1658 C 0.31927 0.77632 0.34928 0.0
C1659 C 0.30211 0.79702 0.36705 0.0
C1660 C 0.32042 0.82652 0.39435 0.0
C1661 C 0.35579 0.83437 0.40411 0.0
C1662 C 0.37269 0.81224 0.39067 0.0
C1663 C 0.41085 0.82916 0.39911 0.0
C1664 C 0.42885 0.81781 0.43421 0.0
C1665 C 0.42638 0.8236 0.36198 0.0
C1666 C 0.41172 0.865 0.41143 0.0
C1667 C 0.38013 0.86734 0.41664 0.0
C1668 C 0.3736 0.89799 0.42269 0.0
C1669 C 0.40001 0.92685 0.42369 0.0
C1670 C 0.43207 0.9246 0.41777 0.0
C1671 C 0.43818 0.89356 0.41214 0.0
H1672 H 0.16741 0.28763 0.28816 0.0
H1673 H 0.26919 0.35493 0.33798 0.0
H1674 H 0.24454 0.3971 0.36824 0.0
H1675 H 0.12466 0.34703 0.26618 0.0
H1676 H 0.08648 0.32748 0.2826 0.0
H1677 H 0.11186 0.30273 0.26429 0.0
H1678 H 0.11735 0.28091 0.33 0.0
H1679 H 0.09174 0.30536 0.34845 0.0
H1680 H 0.13347 0.31026 0.37699 0.0
H1681 H 0.20851 0.43314 0.39045 0.0
H1682 H 0.16512 0.45855 0.40819 0.0
H1683 H 0.0856 0.3664 0.34976 0.0
C1684 C 0.18444 0.31133 0.30536 0.0
C1685 C 0.22037 0.31818 0.31026 0.0
C1686 C 0.24174 0.34917 0.33369 0.0
C1687 C 0.22789 0.3733 0.35092 0.0
C1688 C 0.19245 0.36589 0.34547 0.0
C1689 C 0.17098 0.33539 0.32388 0.0
C1690 C 0.13386 0.3332 0.32441 0.0
C1691 C 0.11299 0.32727 0.28184 0.0
C1692 C 0.11818 0.3058 0.34625 0.0
C1693 C 0.13768 0.3677 0.34825 0.0
C1694 C 0.17175 0.38604 0.36013 0.0
C1695 C 0.18182 0.41871 0.38186 0.0
C1696 C 0.15672 0.43291 0.39218 0.0
C1697 C 0.12142 0.41466 0.38135 0.0
C1698 C 0.11207 0.38145 0.35871 0.0
H1699 H 0.30628 0.18403 0.57097 0.0
H1700 H 0.32617 0.18547 0.698 0.0
H1701 H 0.3601 0.14713 0.68823 0.0
H1702 H 0.30106 0.09586 0.53842 0.0
H1703 H 0.32275 0.10308 0.49803 0.0
H1704 H 0.29792 0.12948 0.5135 0.0
H1705 H 0.35016 0.1812 0.52376 0.0
H1706 H 0.37613 0.15565 0.50954 0.0
H1707 H 0.3892 0.18413 0.55709 0.0
H1708 H 0.39402 0.11188 0.66685 0.0
H1709 H 0.42528 0.07837 0.63374 0.0
H1710 H 0.38563 0.09851 0.51966 0.0
C1711 C 0.31754 0.17584 0.59641 0.0
C1712 C 0.31353 0.18742 0.63527 0.0
C1713 C 0.32881 0.17661 0.66806 0.0
C1714 C 0.34819 0.1549 0.66283 0.0
C1715 C 0.35226 0.14423 0.6245 0.0
C1716 C 0.33737 0.15403 0.59169 0.0
C1717 C 0.34703 0.13916 0.55406 0.0
C1718 C 0.3153 0.11549 0.52424 0.0
C1719 C 0.36678 0.16669 0.535 0.0
C1720 C 0.36991 0.12008 0.57123 0.0
C1721 C 0.37237 0.12347 0.61193 0.0
C1722 C 0.39235 0.10896 0.63496 0.0
C1723 C 0.4103 0.09024 0.6159 0.0
C1724 C 0.40827 0.08615 0.57417 0.0
C1725 C 0.38763 0.10119 0.55154 0.0
H1726 H 0.76869 0.33303 0.64706 0.0
H1727 H 0.81914 0.25874 0.66848 0.0
H1728 H 0.86806 0.28896 0.64357 0.0
H1729 H 0.80002 0.34252 0.55128 0.0
H1730 H 0.80374 0.38627 0.55895 0.0
H1731 H 0.77148 0.3582 0.57719 0.0
H1732 H 0.79475 0.39503 0.6483 0.0
H1733 H 0.82724 0.42297 0.6304 0.0
H1734 H 0.83905 0.40393 0.67125 0.0
H1735 H 0.91445 0.33064 0.62721 0.0
H1736 H 0.95311 0.3776 0.60695 0.0
H1737 H 0.87101 0.42115 0.58495 0.0
C1738 C 0.78983 0.32302 0.64567 0.0
C1739 C 0.79047 0.29382 0.6599 0.0
C1740 C 0.8183 0.28111 0.65765 0.0
C1741 C 0.84623 0.29808 0.64363 0.0
C1742 C 0.84531 0.32704 0.6304 0.0
C1743 C 0.8175 0.33892 0.62981 0.0
C1744 C 0.82323 0.37022 0.61258 0.0
C1745 C 0.79812 0.36392 0.57263 0.0
C1746 C 0.82094 0.39978 0.64243 0.0
C1747 C 0.85933 0.37502 0.60624 0.0
C1748 C 0.87148 0.34978 0.61695 0.0
C1749 C 0.90504 0.35007 0.61749 0.0
C1750 C 0.92679 0.37678 0.60623 0.0
C1751 C 0.91457 0.40224 0.5939 0.0
C1752 C 0.88044 0.40134 0.5935 0.0
H1753 H 0.18044 0.68623 0.68175 0.0
H1754 H 0.24988 0.67054 0.60523 0.0
H1755 H 0.20064 0.63959 0.55005 0.0
H1756 H 0.12907 0.60904 0.65821 0.0
H1757 H 0.08967 0.61845 0.66042 0.0
H1758 H 0.12914 0.64736 0.68868 0.0
H1759 H 0.11654 0.69403 0.65438 0.0
H1760 H 0.07676 0.66504 0.6258 0.0
H1761 H 0.10749 0.68765 0.6007 0.0
H1762 H 0.14549 0.60033 0.50959 0.0
H1763 H 0.09139 0.55419 0.49023 0.0
H1764 H 0.05797 0.59495 0.59343 0.0
C1765 C 0.18527 0.6773 0.65291 0.0
C1766 C 0.21875 0.68066 0.6475 0.0
C1767 C 0.22426 0.66815 0.60977 0.0
C1768 C 0.19645 0.65084 0.57824 0.0
C1769 C 0.1635 0.64655 0.58507 0.0
C1770 C 0.1579 0.65969 0.62158 0.0
C1771 C 0.12091 0.6468 0.62422 0.0
C1772 C 0.11701 0.62938 0.65995 0.0
C1773 C 0.10445 0.67506 0.62638 0.0
C1774 C 0.107 0.62227 0.58478 0.0
C1775 C 0.13153 0.62336 0.56185 0.0
C1776 C 0.1258 0.59989 0.52669 0.0
C1777 C 0.09494 0.57382 0.51574 0.0
C1778 C 0.07058 0.57134 0.54019 0.0
C1779 C 0.07615 0.59661 0.57406 0.0
loop_
_geom_bond_atom_site_label_1
_geom_bond_atom_site_label_2
_geom_bond_distance
_geom_bond_site_symmetry_2
_ccdc_geom_bond_type
Dy0 O4 2.398 . S
Dy0 O5 2.491 . S
Dy0 O6 2.403 . S
Dy0 O7 2.664 . S
Dy0 O11 2.326 . S
Dy0 O15 2.310 . S
Dy0 O16 2.351 . S
C1 O12 1.185 . S
C1 O13 1.355 . S
C2 O4 1.185 . S
C2 O5 1.355 . S
Dy3 O7 2.310 . S
Dy3 O10 2.351 . S
Dy3 O12 2.398 . S
Dy3 O13 2.491 . S
Dy3 O14 2.403 . S
Dy3 O15 2.664 . S
Dy3 O17 2.326 . S
O4 Dy0 2.398 . S
O4 C2 1.185 . S
O5 Dy0 2.491 . S
O5 C2 1.355 . S
O6 Dy0 2.403 . S
O6 C8 1.254 . S
O7 Dy0 2.664 . S
O7 Dy3 2.310 . S
O7 C8 1.268 . S
C8 O6 1.254 . S
C8 O7 1.268 . S
C9 O14 1.254 . S
C9 O15 1.268 . S
O10 Dy3 2.351 . S
O10 C18 1.249 . S
O11 Dy0 2.326 . S
O11 C18 1.267 . S
O12 C1 1.185 . S
O12 Dy3 2.398 . S
O13 C1 1.355 . S
O13 Dy3 2.491 . S
O14 Dy3 2.403 . S
O14 C9 1.254 . S
O15 Dy0 2.310 . S
O15 Dy3 2.664 . S
O15 C9 1.268 . S
O16 Dy0 2.351 . S
O16 C19 1.249 . S
O17 Dy3 2.326 . S
O17 C19 1.267 . S
C18 O10 1.249 . S
C18 O11 1.267 . S
C19 O16 1.249 . S
C19 O17 1.267 . S
Dy20 O24 2.398 . S
Dy20 O25 2.491 . S
Dy20 O26 2.403 . S
Dy20 O27 2.664 . S
Dy20 O31 2.326 . S
Dy20 O35 2.310 . S
Dy20 O36 2.351 . S
C21 O32 1.185 . S
C21 O33 1.355 . S
C22 O24 1.185 . S
C22 O25 1.355 . S
Dy23 O27 2.310 . S
Dy23 O30 2.351 . S
Dy23 O32 2.398 . S
Dy23 O33 2.491 . S
Dy23 O34 2.403 . S
Dy23 O35 2.664 . S
Dy23 O37 2.326 . S
O24 Dy20 2.398 . S
O24 C22 1.185 . S
O25 Dy20 2.491 . S
O25 C22 1.355 . S
O26 Dy20 2.403 . S
O26 C28 1.254 . S
O27 Dy20 2.664 . S
O27 Dy23 2.310 . S
O27 C28 1.268 . S
C28 O26 1.254 . S
C28 O27 1.268 . S
C29 O34 1.254 . S
C29 O35 1.268 . S
O30 Dy23 2.351 . S
O30 C38 1.249 . S
O31 Dy20 2.326 . S
O31 C38 1.267 . S
O32 C21 1.185 . S
O32 Dy23 2.398 . S
O33 C21 1.355 . S
O33 Dy23 2.491 . S
O34 Dy23 2.403 . S
O34 C29 1.254 . S
O35 Dy20 2.310 . S
O35 Dy23 2.664 . S
O35 C29 1.268 . S
O36 Dy20 2.351 . S
O36 C39 1.249 . S
O37 Dy23 2.326 . S
O37 C39 1.267 . S
C38 O30 1.249 . S
C38 O31 1.267 . S
C39 O36 1.249 . S
C39 O37 1.267 . S
Dy40 O44 2.398 . S
Dy40 O45 2.491 . S
Dy40 O46 2.403 . S
Dy40 O47 2.664 . S
Dy40 O51 2.326 . S
Dy40 O55 2.310 . S
Dy40 O56 2.351 . S
C41 O52 1.185 . S
C41 O53 1.355 . S
C42 O44 1.185 . S
C42 O45 1.355 . S
Dy43 O47 2.310 . S
Dy43 O50 2.351 . S
Dy43 O52 2.398 . S
Dy43 O53 2.491 . S
Dy43 O54 2.403 . S
Dy43 O55 2.664 . S
Dy43 O57 2.326 . S
O44 Dy40 2.398 . S
O44 C42 1.185 . S
O45 Dy40 2.491 . S
O45 C42 1.355 . S
O46 Dy40 2.403 . S
O46 C48 1.254 . S
O47 Dy40 2.664 . S
O47 Dy43 2.310 . S
O47 C48 1.268 . S
C48 O46 1.254 . S
C48 O47 1.268 . S
C49 O54 1.254 . S
C49 O55 1.268 . S
O50 Dy43 2.351 . S
O50 C58 1.249 . S
O51 Dy40 2.326 . S
O51 C58 1.267 . S
O52 C41 1.185 . S
O52 Dy43 2.398 . S
O53 C41 1.355 . S
O53 Dy43 2.491 . S
O54 Dy43 2.403 . S
O54 C49 1.254 . S
O55 Dy40 2.310 . S
O55 Dy43 2.664 . S
O55 C49 1.268 . S
O56 Dy40 2.351 . S
O56 C59 1.249 . S
O57 Dy43 2.326 . S
O57 C59 1.267 . S
C58 O50 1.249 . S
C58 O51 1.267 . S
C59 O56 1.249 . S
C59 O57 1.267 . S
Dy60 O64 2.398 . S
Dy60 O65 2.491 . S
Dy60 O66 2.403 . S
Dy60 O67 2.664 . S
Dy60 O71 2.326 . S
Dy60 O75 2.310 . S
Dy60 O76 2.351 . S
C61 O72 1.185 . S
C61 O73 1.355 . S
C62 O64 1.185 . S
C62 O65 1.355 . S
Dy63 O67 2.310 . S
Dy63 O70 2.351 . S
Dy63 O72 2.398 . S
Dy63 O73 2.491 . S
Dy63 O74 2.403 . S
Dy63 O75 2.664 . S
Dy63 O77 2.326 . S
O64 Dy60 2.398 . S
O64 C62 1.185 . S
O65 Dy60 2.491 . S
O65 C62 1.355 . S
O66 Dy60 2.403 . S
O66 C68 1.254 . S
O67 Dy60 2.664 . S
O67 Dy63 2.310 . S
O67 C68 1.268 . S
C68 O66 1.254 . S
C68 O67 1.268 . S
C69 O74 1.254 . S
C69 O75 1.268 . S
O70 Dy63 2.351 . S
O70 C78 1.249 . S
O71 Dy60 2.326 . S
O71 C78 1.267 . S
O72 C61 1.185 . S
O72 Dy63 2.398 . S
O73 C61 1.355 . S
O73 Dy63 2.491 . S
O74 Dy63 2.403 . S
O74 C69 1.254 . S
O75 Dy60 2.310 . S
O75 Dy63 2.664 . S
O75 C69 1.268 . S
O76 Dy60 2.351 . S
O76 C79 1.249 . S
O77 Dy63 2.326 . S
O77 C79 1.267 . S
C78 O70 1.249 . S
C78 O71 1.267 . S
C79 O76 1.249 . S
C79 O77 1.267 . S
Dy80 O84 2.398 . S
Dy80 O85 2.491 . S
Dy80 O86 2.403 . S
Dy80 O87 2.664 . S
Dy80 O91 2.326 . S
Dy80 O95 2.310 . S
Dy80 O96 2.351 . S
C81 O92 1.185 . S
C81 O93 1.355 . S
C82 O84 1.185 . S
C82 O85 1.355 . S
Dy83 O87 2.310 . S
Dy83 O90 2.351 . S
Dy83 O92 2.398 . S
Dy83 O93 2.491 . S
Dy83 O94 2.403 . S
Dy83 O95 2.664 . S
Dy83 O97 2.326 . S
O84 Dy80 2.398 . S
O84 C82 1.185 . S
O85 Dy80 2.491 . S
O85 C82 1.355 . S
O86 Dy80 2.403 . S
O86 C88 1.254 . S
O87 Dy80 2.664 . S
O87 Dy83 2.310 . S
O87 C88 1.268 . S
C88 O86 1.254 . S
C88 O87 1.268 . S
C89 O94 1.254 . S
C89 O95 1.268 . S
O90 Dy83 2.351 . S
O90 C98 1.249 . S
O91 Dy80 2.326 . S
O91 C98 1.267 . S
O92 C81 1.185 . S
O92 Dy83 2.398 . S
O93 C81 1.355 . S
O93 Dy83 2.491 . S
O94 Dy83 2.403 . S
O94 C89 1.254 . S
O95 Dy80 2.310 . S
O95 Dy83 2.664 . S
O95 C89 1.268 . S
O96 Dy80 2.351 . S
O96 C99 1.249 . S
O97 Dy83 2.326 . S
O97 C99 1.267 . S
C98 O90 1.249 . S
C98 O91 1.267 . S
C99 O96 1.249 . S
C99 O97 1.267 . S
Dy100 O104 2.398 . S
Dy100 O105 2.491 . S
Dy100 O106 2.403 . S
Dy100 O107 2.664 . S
Dy100 O111 2.326 . S
Dy100 O115 2.310 . S
Dy100 O116 2.351 . S
C101 O112 1.185 . S
C101 O113 1.355 . S
C102 O104 1.185 . S
C102 O105 1.355 . S
Dy103 O107 2.310 . S
Dy103 O110 2.351 . S
Dy103 O112 2.398 . S
Dy103 O113 2.491 . S
Dy103 O114 2.403 . S
Dy103 O115 2.664 . S
Dy103 O117 2.326 . S
O104 Dy100 2.398 . S
O104 C102 1.185 . S
O105 Dy100 2.491 . S
O105 C102 1.355 . S
O106 Dy100 2.403 . S
O106 C108 1.254 . S
O107 Dy100 2.664 . S
O107 Dy103 2.310 . S
O107 C108 1.268 . S
C108 O106 1.254 . S
C108 O107 1.268 . S
C109 O114 1.254 . S
C109 O115 1.268 . S
O110 Dy103 2.351 . S
O110 C118 1.249 . S
O111 Dy100 2.326 . S
O111 C118 1.267 . S
O112 C101 1.185 . S
O112 Dy103 2.398 . S
O113 C101 1.355 . S
O113 Dy103 2.491 . S
O114 Dy103 2.403 . S
O114 C109 1.254 . S
O115 Dy100 2.310 . S
O115 Dy103 2.664 . S
O115 C109 1.268 . S
O116 Dy100 2.351 . S
O116 C119 1.249 . S
O117 Dy103 2.326 . S
O117 C119 1.267 . S
C118 O110 1.249 . S
C118 O111 1.267 . S
C119 O116 1.249 . S
C119 O117 1.267 . S
Dy120 O124 2.398 . S
Dy120 O125 2.491 . S
Dy120 O126 2.403 . S
Dy120 O127 2.664 . S
Dy120 O131 2.326 . S
Dy120 O135 2.310 . S
Dy120 O136 2.351 . S
C121 O132 1.185 . S
C121 O133 1.355 . S
C122 O124 1.185 . S
C122 O125 1.355 . S
Dy123 O127 2.310 . S
Dy123 O130 2.351 . S
Dy123 O132 2.398 . S
Dy123 O133 2.491 . S
Dy123 O134 2.403 . S
Dy123 O135 2.664 . S
Dy123 O137 2.326 . S
O124 Dy120 2.398 . S
O124 C122 1.185 . S
O125 Dy120 2.491 . S
O125 C122 1.355 . S
O126 Dy120 2.403 . S
O126 C128 1.254 . S
O127 Dy120 2.664 . S
O127 Dy123 2.310 . S
O127 C128 1.268 . S
C128 O126 1.254 . S
C128 O127 1.268 . S
C129 O134 1.254 . S
C129 O135 1.268 . S
O130 Dy123 2.351 . S
O130 C138 1.249 . S
O131 Dy120 2.326 . S
O131 C138 1.267 . S
O132 C121 1.185 . S
O132 Dy123 2.398 . S
O133 C121 1.355 . S
O133 Dy123 2.491 . S
O134 Dy123 2.403 . S
O134 C129 1.254 . S
O135 Dy120 2.310 . S
O135 Dy123 2.664 . S
O135 C129 1.268 . S
O136 Dy120 2.351 . S
O136 C139 1.249 . S
O137 Dy123 2.326 . S
O137 C139 1.267 . S
C138 O130 1.249 . S
C138 O131 1.267 . S
C139 O136 1.249 . S
C139 O137 1.267 . S
Dy140 O144 2.398 . S
Dy140 O145 2.491 . S
Dy140 O146 2.403 . S
Dy140 O147 2.664 . S
Dy140 O151 2.326 . S
Dy140 O155 2.310 . S
Dy140 O156 2.351 . S
C141 O152 1.185 . S
C141 O153 1.355 . S
C142 O144 1.185 . S
C142 O145 1.355 . S
Dy143 O147 2.310 . S
Dy143 O150 2.351 . S
Dy143 O152 2.398 . S
Dy143 O153 2.491 . S
Dy143 O154 2.403 . S
Dy143 O155 2.664 . S
Dy143 O157 2.326 . S
O144 Dy140 2.398 . S
O144 C142 1.185 . S
O145 Dy140 2.491 . S
O145 C142 1.355 . S
O146 Dy140 2.403 . S
O146 C148 1.254 . S
O147 Dy140 2.664 . S
O147 Dy143 2.310 . S
O147 C148 1.268 . S
C148 O146 1.254 . S
C148 O147 1.268 . S
C149 O154 1.254 . S
C149 O155 1.268 . S
O150 Dy143 2.351 . S
O150 C158 1.249 . S
O151 Dy140 2.326 . S
O151 C158 1.267 . S
O152 C141 1.185 . S
O152 Dy143 2.398 . S
O153 C141 1.355 . S
O153 Dy143 2.491 . S
O154 Dy143 2.403 . S
O154 C149 1.254 . S
O155 Dy140 2.310 . S
O155 Dy143 2.664 . S
O155 C149 1.268 . S
O156 Dy140 2.351 . S
O156 C159 1.249 . S
O157 Dy143 2.326 . S
O157 C159 1.267 . S
C158 O150 1.249 . S
C158 O151 1.267 . S
C159 O156 1.249 . S
C159 O157 1.267 . S
Cd160 N163 2.334 1_655 S
Cd160 N189 2.304 1_565 S
Cd160 O196 2.268 . S
Cd160 O199 2.273 1_665 S
Cd160 O200 2.417 . S
Cd160 O201 2.330 . S
Cd161 N176 2.304 1_455 S
Cd161 N180 2.334 1_545 S
Cd161 O197 2.273 1_445 S
Cd161 O198 2.268 . S
Cd161 O202 2.417 . S
Cd161 O203 2.330 . S
C162 N163 1.332 . S
C162 C166 1.381 . S
C162 H168 0.931 . S
N163 Cd160 2.334 1_455 S
N163 C162 1.332 . S
N163 C167 1.328 . S
C164 C165 1.396 . S
C164 C167 1.378 . S
C164 H206 0.931 . S
C165 C164 1.396 . S
C165 C166 1.382 . S
C166 C162 1.381 . S
C166 C165 1.382 . S
C166 H207 0.930 . S
C167 N163 1.328 . S
C167 C164 1.378 . S
C167 H169 0.930 1_455 S
H168 C162 0.931 . S
H169 C167 0.930 1_655 S
C170 O196 1.238 . S
C170 O197 1.253 . S
C171 C172 1.379 . S
C171 N176 1.337 . S
C171 H177 0.929 . S
C172 C171 1.379 . S
C172 C173 1.380 . S
C172 H208 0.929 . S
C173 C172 1.380 . S
C173 C174 1.399 . S
C174 C173 1.399 . S
C174 C175 1.376 . S
C174 H209 0.931 . S
C175 C174 1.376 . S
C175 N176 1.338 . S
C175 H178 0.930 1_655 S
N176 Cd161 2.304 1_655 S
N176 C171 1.337 . S
N176 C175 1.338 . S
H177 C171 0.929 . S
H178 C175 0.930 1_455 S
C179 N180 1.332 . S
C179 C183 1.381 . S
C179 H185 0.931 . S
N180 Cd161 2.334 1_565 S
N180 C179 1.332 . S
N180 C184 1.328 . S
C181 C182 1.396 . S
C181 C184 1.378 . S
C181 H210 0.931 . S
C182 C181 1.396 . S
C182 C183 1.382 . S
C183 C179 1.381 . S
C183 C182 1.382 . S
C183 H211 0.930 . S
C184 N180 1.328 . S
C184 C181 1.378 . S
C184 H186 0.930 1_565 S
H185 C179 0.931 . S
H186 C184 0.930 1_545 S
C187 O198 1.238 . S
C187 O199 1.253 . S
C188 O200 1.239 . S
C188 O201 1.230 . S
N189 Cd160 2.304 1_545 S
N189 C190 1.337 . S
N189 C194 1.338 . S
C190 N189 1.337 . S
C190 C191 1.379 . S
C190 H204 0.929 . S
C191 C190 1.379 . S
C191 C192 1.380 . S
C191 H212 0.929 . S
C192 C191 1.380 . S
C192 C193 1.399 . S
C193 C192 1.399 . S
C193 C194 1.376 . S
C193 H213 0.931 . S
C194 N189 1.338 . S
C194 C193 1.376 . S
C194 H205 0.930 1_545 S
C195 O202 1.239 . S
C195 O203 1.230 . S
O196 Cd160 2.268 . S
O196 C170 1.238 . S
O197 Cd161 2.273 1_665 S
O197 C170 1.253 . S
O198 Cd161 2.268 . S
O198 C187 1.238 . S
O199 Cd160 2.273 1_445 S
O199 C187 1.253 . S
O200 Cd160 2.417 . S
O200 C188 1.239 . S
O201 Cd160 2.330 . S
O201 C188 1.230 . S
O202 Cd161 2.417 . S
O202 C195 1.239 . S
O203 Cd161 2.330 . S
O203 C195 1.230 . S
H204 C190 0.929 . S
H205 C194 0.930 1_565 S
H206 C164 0.931 . S
H207 C166 0.930 . S
H208 C172 0.929 . S
H209 C174 0.931 . S
H210 C181 0.931 . S
H211 C183 0.930 . S
H212 C191 0.929 . S
H213 C193 0.931 . S
Cd214 N217 2.334 . S
Cd214 N243 2.304 1_565 S
Cd214 O250 2.268 1_554 S
Cd214 O253 2.273 1_565 S
Cd214 O254 2.417 . S
Cd214 O255 2.330 . S
Cd215 N230 2.304 . S
Cd215 N234 2.334 1_545 S
Cd215 O251 2.273 1_545 S
Cd215 O252 2.268 1_556 S
Cd215 O256 2.417 . S
Cd215 O257 2.330 . S
C216 N217 1.332 . S
C216 C220 1.381 . S
C216 H222 0.931 . S
N217 Cd214 2.334 . S
N217 C216 1.332 . S
N217 C221 1.328 . S
C218 C219 1.396 . S
C218 C221 1.378 . S
C218 H260 0.931 1_554 S
C219 C218 1.396 . S
C219 C220 1.382 . S
C220 C216 1.381 . S
C220 C219 1.382 . S
C220 H261 0.930 . S
C221 N217 1.328 . S
C221 C218 1.378 . S
C221 H223 0.930 1_554 S
H222 C216 0.931 . S
H223 C221 0.930 1_556 S
C224 O250 1.238 . S
C224 O251 1.253 . S
C225 C226 1.379 . S
C225 N230 1.337 . S
C225 H231 0.929 . S
C226 C225 1.379 . S
C226 C227 1.380 . S
C226 H262 0.929 . S
C227 C226 1.380 . S
C227 C228 1.399 . S
C228 C227 1.399 . S
C228 C229 1.376 . S
C228 H263 0.931 1_556 S
C229 C228 1.376 . S
C229 N230 1.338 . S
C229 H232 0.930 1_556 S
N230 Cd215 2.304 . S
N230 C225 1.337 . S
N230 C229 1.338 . S
H231 C225 0.929 . S
H232 C229 0.930 1_554 S
C233 N234 1.332 . S
C233 C237 1.381 . S
C233 H239 0.931 . S
N234 Cd215 2.334 1_565 S
N234 C233 1.332 . S
N234 C238 1.328 . S
C235 C236 1.396 . S
C235 C238 1.378 . S
C235 H264 0.931 1_556 S
C236 C235 1.396 . S
C236 C237 1.382 . S
C237 C233 1.381 . S
C237 C236 1.382 . S
C237 H265 0.930 . S
C238 N234 1.328 . S
C238 C235 1.378 . S
C238 H240 0.930 1_566 S
H239 C233 0.931 . S
H240 C238 0.930 1_544 S
C241 O252 1.238 . S
C241 O253 1.253 . S
C242 O254 1.239 . S
C242 O255 1.230 . S
N243 Cd214 2.304 1_545 S
N243 C244 1.337 . S
N243 C248 1.338 . S
C244 N243 1.337 . S
C244 C245 1.379 . S
C244 H258 0.929 . S
C245 C244 1.379 . S
C245 C246 1.380 . S
C245 H266 0.929 . S
C246 C245 1.380 . S
C246 C247 1.399 . S
C247 C246 1.399 . S
C247 C248 1.376 . S
C247 H267 0.931 1_554 S
C248 N243 1.338 . S
C248 C247 1.376 . S
C248 H259 0.930 1_544 S
C249 O256 1.239 . S
C249 O257 1.230 . S
O250 Cd214 2.268 1_556 S
O250 C224 1.238 . S
O251 Cd215 2.273 1_565 S
O251 C224 1.253 . S
O252 Cd215 2.268 1_554 S
O252 C241 1.238 . S
O253 Cd214 2.273 1_545 S
O253 C241 1.253 . S
O254 Cd214 2.417 . S
O254 C242 1.239 . S
O255 Cd214 2.330 . S
O255 C242 1.230 . S
O256 Cd215 2.417 . S
O256 C249 1.239 . S
O257 Cd215 2.330 . S
O257 C249 1.230 . S
H258 C244 0.929 . S
H259 C248 0.930 1_566 S
H260 C218 0.931 1_556 S
H261 C220 0.930 . S
H262 C226 0.929 . S
H263 C228 0.931 1_554 S
H264 C235 0.931 1_554 S
H265 C237 0.930 . S
H266 C245 0.929 . S
H267 C247 0.931 1_556 S
Cd268 N271 2.334 1_655 S
Cd268 N297 2.304 . S
Cd268 O304 2.268 1_554 S
Cd268 O307 2.273 1_655 S
Cd268 O308 2.417 . S
Cd268 O309 2.330 . S
Cd269 N284 2.304 1_455 S
Cd269 N288 2.334 . S
Cd269 O305 2.273 1_455 S
Cd269 O306 2.268 1_556 S
Cd269 O310 2.417 . S
Cd269 O311 2.330 . S
C270 N271 1.332 . S
C270 C274 1.381 . S
C270 H276 0.931 . S
N271 Cd268 2.334 1_455 S
N271 C270 1.332 . S
N271 C275 1.328 . S
C272 C273 1.396 . S
C272 C275 1.378 . S
C272 H314 0.931 1_554 S
C273 C272 1.396 . S
C273 C274 1.382 . S
C274 C270 1.381 . S
C274 C273 1.382 . S
C274 H315 0.930 . S
C275 N271 1.328 . S
C275 C272 1.378 . S
C275 H277 0.930 1_454 S
H276 C270 0.931 . S
H277 C275 0.930 1_656 S
C278 O304 1.238 . S
C278 O305 1.253 . S
C279 C280 1.379 . S
C279 N284 1.337 . S
C279 H285 0.929 . S
C280 C279 1.379 . S
C280 C281 1.380 . S
C280 H316 0.929 . S
C281 C280 1.380 . S
C281 C282 1.399 . S
C282 C281 1.399 . S
C282 C283 1.376 . S
C282 H317 0.931 1_556 S
C283 C282 1.376 . S
C283 N284 1.338 . S
C283 H286 0.930 1_656 S
N284 Cd269 2.304 1_655 S
N284 C279 1.337 . S
N284 C283 1.338 . S
H285 C279 0.929 . S
H286 C283 0.930 1_454 S
C287 N288 1.332 . S
C287 C291 1.381 . S
C287 H293 0.931 . S
N288 Cd269 2.334 . S
N288 C287 1.332 . S
N288 C292 1.328 . S
C289 C290 1.396 . S
C289 C292 1.378 . S
C289 H318 0.931 1_556 S
C290 C289 1.396 . S
C290 C291 1.382 . S
C291 C287 1.381 . S
C291 C290 1.382 . S
C291 H319 0.930 . S
C292 N288 1.328 . S
C292 C289 1.378 . S
C292 H294 0.930 1_556 S
H293 C287 0.931 . S
H294 C292 0.930 1_554 S
C295 O306 1.238 . S
C295 O307 1.253 . S
C296 O308 1.239 . S
C296 O309 1.230 . S
N297 Cd268 2.304 . S
N297 C298 1.337 . S
N297 C302 1.338 . S
C298 N297 1.337 . S
C298 C299 1.379 . S
C298 H312 0.929 . S
C299 C298 1.379 . S
C299 C300 1.380 . S
C299 H320 0.929 . S
C300 C299 1.380 . S
C300 C301 1.399 . S
C301 C300 1.399 . S
C301 C302 1.376 . S
C301 H321 0.931 1_554 S
C302 N297 1.338 . S
C302 C301 1.376 . S
C302 H313 0.930 1_554 S
C303 O310 1.239 . S
C303 O311 1.230 . S
O304 Cd268 2.268 1_556 S
O304 C278 1.238 . S
O305 Cd269 2.273 1_655 S
O305 C278 1.253 . S
O306 Cd269 2.268 1_554 S
O306 C295 1.238 . S
O307 Cd268 2.273 1_455 S
O307 C295 1.253 . S
O308 Cd268 2.417 . S
O308 C296 1.239 . S
O309 Cd268 2.330 . S
O309 C296 1.230 . S
O310 Cd269 2.417 . S
O310 C303 1.239 . S
O311 Cd269 2.330 . S
O311 C303 1.230 . S
H312 C298 0.929 . S
H313 C302 0.930 1_556 S
H314 C272 0.931 1_556 S
H315 C274 0.930 . S
H316 C280 0.929 . S
H317 C282 0.931 1_554 S
H318 C289 0.931 1_554 S
H319 C291 0.930 . S
H320 C299 0.929 . S
H321 C301 0.931 1_556 S
Cd322 N325 2.334 . S
Cd322 N351 2.304 . S
Cd322 O358 2.268 1_554 S
Cd322 O361 2.273 . S
Cd322 O362 2.417 . S
Cd322 O363 2.330 . S
Cd323 N338 2.304 . S
Cd323 N342 2.334 . S
Cd323 O359 2.273 . S
Cd323 O360 2.268 1_556 S
Cd323 O364 2.417 . S
Cd323 O365 2.330 . S
C324 N325 1.332 . S
C324 C328 1.381 . S
C324 H330 0.931 . S
N325 Cd322 2.334 . S
N325 C324 1.332 . S
N325 C329 1.328 . S
C326 C327 1.396 . S
C326 C329 1.378 . S
C326 H368 0.931 1_554 S
C327 C326 1.396 . S
C327 C328 1.382 . S
C328 C324 1.381 . S
C328 C327 1.382 . S
C328 H369 0.930 . S
C329 N325 1.328 . S
C329 C326 1.378 . S
C329 H331 0.930 1_554 S
H330 C324 0.931 . S
H331 C329 0.930 1_556 S
C332 O358 1.238 . S
C332 O359 1.253 . S
C333 C334 1.379 . S
C333 N338 1.337 . S
C333 H339 0.929 . S
C334 C333 1.379 . S
C334 C335 1.380 . S
C334 H370 0.929 . S
C335 C334 1.380 . S
C335 C336 1.399 . S
C336 C335 1.399 . S
C336 C337 1.376 . S
C336 H371 0.931 1_556 S
C337 C336 1.376 . S
C337 N338 1.338 . S
C337 H340 0.930 1_556 S
N338 Cd323 2.304 . S
N338 C333 1.337 . S
N338 C337 1.338 . S
H339 C333 0.929 . S
H340 C337 0.930 1_554 S
C341 N342 1.332 . S
C341 C345 1.381 . S
C341 H347 0.931 . S
N342 Cd323 2.334 . S
N342 C341 1.332 . S
N342 C346 1.328 . S
C343 C344 1.396 . S
C343 C346 1.378 . S
C343 H372 0.931 1_556 S
C344 C343 1.396 . S
C344 C345 1.382 . S
C345 C341 1.381 . S
C345 C344 1.382 . S
C345 H373 0.930 . S
C346 N342 1.328 . S
C346 C343 1.378 . S
C346 H348 0.930 1_556 S
H347 C341 0.931 . S
H348 C346 0.930 1_554 S
C349 O360 1.238 . S
C349 O361 1.253 . S
C350 O362 1.239 . S
C350 O363 1.230 . S
N351 Cd322 2.304 . S
N351 C352 1.337 . S
N351 C356 1.338 . S
C352 N351 1.337 . S
C352 C353 1.379 . S
C352 H366 0.929 . S
C353 C352 1.379 . S
C353 C354 1.380 . S
C353 H374 0.929 . S
C354 C353 1.380 . S
C354 C355 1.399 . S
C355 C354 1.399 . S
C355 C356 1.376 . S
C355 H375 0.931 1_554 S
C356 N351 1.338 . S
C356 C355 1.376 . S
C356 H367 0.930 1_554 S
C357 O364 1.239 . S
C357 O365 1.230 . S
O358 Cd322 2.268 1_556 S
O358 C332 1.238 . S
O359 Cd323 2.273 . S
O359 C332 1.253 . S
O360 Cd323 2.268 1_554 S
O360 C349 1.238 . S
O361 Cd322 2.273 . S
O361 C349 1.253 . S
O362 Cd322 2.417 . S
O362 C350 1.239 . S
O363 Cd322 2.330 . S
O363 C350 1.230 . S
O364 Cd323 2.417 . S
O364 C357 1.239 . S
O365 Cd323 2.330 . S
O365 C357 1.230 . S
H366 C352 0.929 . S
H367 C356 0.930 1_556 S
H368 C326 0.931 1_556 S
H369 C328 0.930 . S
H370 C334 0.929 . S
H371 C336 0.931 1_554 S
H372 C343 0.931 1_554 S
H373 C345 0.930 . S
H374 C353 0.929 . S
H375 C355 0.931 1_556 S
Cd376 N379 2.334 1_655 S
Cd376 N405 2.304 . S
Cd376 O412 2.268 . S
Cd376 O415 2.273 1_655 S
Cd376 O416 2.417 . S
Cd376 O417 2.330 . S
Cd377 N392 2.304 1_455 S
Cd377 N396 2.334 . S
Cd377 O413 2.273 1_455 S
Cd377 O414 2.268 . S
Cd377 O418 2.417 . S
Cd377 O419 2.330 . S
C378 N379 1.332 . S
C378 C382 1.381 . S
C378 H384 0.931 . S
N379 Cd376 2.334 1_455 S
N379 C378 1.332 . S
N379 C383 1.328 . S
C380 C381 1.396 . S
C380 C383 1.378 . S
C380 H422 0.931 . S
C381 C380 1.396 . S
C381 C382 1.382 . S
C382 C378 1.381 . S
C382 C381 1.382 . S
C382 H423 0.930 . S
C383 N379 1.328 . S
C383 C380 1.378 . S
C383 H385 0.930 1_455 S
H384 C378 0.931 . S
H385 C383 0.930 1_655 S
C386 O412 1.238 . S
C386 O413 1.253 . S
C387 C388 1.379 . S
C387 N392 1.337 . S
C387 H393 0.929 . S
C388 C387 1.379 . S
C388 C389 1.380 . S
C388 H424 0.929 . S
C389 C388 1.380 . S
C389 C390 1.399 . S
C390 C389 1.399 . S
C390 C391 1.376 . S
C390 H425 0.931 . S
C391 C390 1.376 . S
C391 N392 1.338 . S
C391 H394 0.930 1_655 S
N392 Cd377 2.304 1_655 S
N392 C387 1.337 . S
N392 C391 1.338 . S
H393 C387 0.929 . S
H394 C391 0.930 1_455 S
C395 N396 1.332 . S
C395 C399 1.381 . S
C395 H401 0.931 . S
N396 Cd377 2.334 . S
N396 C395 1.332 . S
N396 C400 1.328 . S
C397 C398 1.396 . S
C397 C400 1.378 . S
C397 H426 0.931 . S
C398 C397 1.396 . S
C398 C399 1.382 . S
C399 C395 1.381 . S
C399 C398 1.382 . S
C399 H427 0.930 . S
C400 N396 1.328 . S
C400 C397 1.378 . S
C400 H402 0.930 . S
H401 C395 0.931 . S
H402 C400 0.930 . S
C403 O414 1.238 . S
C403 O415 1.253 . S
C404 O416 1.239 . S
C404 O417 1.230 . S
N405 Cd376 2.304 . S
N405 C406 1.337 . S
N405 C410 1.338 . S
C406 N405 1.337 . S
C406 C407 1.379 . S
C406 H420 0.929 . S
C407 C406 1.379 . S
C407 C408 1.380 . S
C407 H428 0.929 . S
C408 C407 1.380 . S
C408 C409 1.399 . S
C409 C408 1.399 . S
C409 C410 1.376 . S
C409 H429 0.931 . S
C410 N405 1.338 . S
C410 C409 1.376 . S
C410 H421 0.930 . S
C411 O418 1.239 . S
C411 O419 1.230 . S
O412 Cd376 2.268 . S
O412 C386 1.238 . S
O413 Cd377 2.273 1_655 S
O413 C386 1.253 . S
O414 Cd377 2.268 . S
O414 C403 1.238 . S
O415 Cd376 2.273 1_455 S
O415 C403 1.253 . S
O416 Cd376 2.417 . S
O416 C404 1.239 . S
O417 Cd376 2.330 . S
O417 C404 1.230 . S
O418 Cd377 2.417 . S
O418 C411 1.239 . S
O419 Cd377 2.330 . S
O419 C411 1.230 . S
H420 C406 0.929 . S
H421 C410 0.930 . S
H422 C380 0.931 . S
H423 C382 0.930 . S
H424 C388 0.929 . S
H425 C390 0.931 . S
H426 C397 0.931 . S
H427 C399 0.930 . S
H428 C407 0.929 . S
H429 C409 0.931 . S
Cd430 N433 2.334 . S
Cd430 N459 2.304 1_565 S
Cd430 O466 2.268 . S
Cd430 O469 2.273 1_565 S
Cd430 O470 2.417 . S
Cd430 O471 2.330 . S
Cd431 N446 2.304 . S
Cd431 N450 2.334 1_545 S
Cd431 O467 2.273 1_545 S
Cd431 O468 2.268 . S
Cd431 O472 2.417 . S
Cd431 O473 2.330 . S
C432 N433 1.332 . S
C432 C436 1.381 . S
C432 H438 0.931 . S
N433 Cd430 2.334 . S
N433 C432 1.332 . S
N433 C437 1.328 . S
C434 C435 1.396 . S
C434 C437 1.378 . S
C434 H476 0.931 . S
C435 C434 1.396 . S
C435 C436 1.382 . S
C436 C432 1.381 . S
C436 C435 1.382 . S
C436 H477 0.930 . S
C437 N433 1.328 . S
C437 C434 1.378 . S
C437 H439 0.930 . S
H438 C432 0.931 . S
H439 C437 0.930 . S
C440 O466 1.238 . S
C440 O467 1.253 . S
C441 C442 1.379 . S
C441 N446 1.337 . S
C441 H447 0.929 . S
C442 C441 1.379 . S
C442 C443 1.380 . S
C442 H478 0.929 . S
C443 C442 1.380 . S
C443 C444 1.399 . S
C444 C443 1.399 . S
C444 C445 1.376 . S
C444 H479 0.931 . S
C445 C444 1.376 . S
C445 N446 1.338 . S
C445 H448 0.930 . S
N446 Cd431 2.304 . S
N446 C441 1.337 . S
N446 C445 1.338 . S
H447 C441 0.929 . S
H448 C445 0.930 . S
C449 N450 1.332 . S
C449 C453 1.381 . S
C449 H455 0.931 . S
N450 Cd431 2.334 1_565 S
N450 C449 1.332 . S
N450 C454 1.328 . S
C451 C452 1.396 . S
C451 C454 1.378 . S
C451 H480 0.931 . S
C452 C451 1.396 . S
C452 C453 1.382 . S
C453 C449 1.381 . S
C453 C452 1.382 . S
C453 H481 0.930 . S
C454 N450 1.328 . S
C454 C451 1.378 . S
C454 H456 0.930 1_565 S
H455 C449 0.931 . S
H456 C454 0.930 1_545 S
C457 O468 1.238 . S
C457 O469 1.253 . S
C458 O470 1.239 . S
C458 O471 1.230 . S
N459 Cd430 2.304 1_545 S
N459 C460 1.337 . S
N459 C464 1.338 . S
C460 N459 1.337 . S
C460 C461 1.379 . S
C460 H474 0.929 . S
C461 C460 1.379 . S
C461 C462 1.380 . S
C461 H482 0.929 . S
C462 C461 1.380 . S
C462 C463 1.399 . S
C463 C462 1.399 . S
C463 C464 1.376 . S
C463 H483 0.931 . S
C464 N459 1.338 . S
C464 C463 1.376 . S
C464 H475 0.930 1_545 S
C465 O472 1.239 . S
C465 O473 1.230 . S
O466 Cd430 2.268 . S
O466 C440 1.238 . S
O467 Cd431 2.273 1_565 S
O467 C440 1.253 . S
O468 Cd431 2.268 . S
O468 C457 1.238 . S
O469 Cd430 2.273 1_545 S
O469 C457 1.253 . S
O470 Cd430 2.417 . S
O470 C458 1.239 . S
O471 Cd430 2.330 . S
O471 C458 1.230 . S
O472 Cd431 2.417 . S
O472 C465 1.239 . S
O473 Cd431 2.330 . S
O473 C465 1.230 . S
H474 C460 0.929 . S
H475 C464 0.930 1_565 S
H476 C434 0.931 . S
H477 C436 0.930 . S
H478 C442 0.929 . S
H479 C444 0.931 . S
H480 C451 0.931 . S
H481 C453 0.930 . S
H482 C461 0.929 . S
H483 C463 0.931 . S
H484 C496 0.930 . S
H485 C498 0.930 . S
H486 C499 0.930 . S
H487 C503 0.959 . S
H488 C503 0.959 . S
H489 C503 0.961 . S
H490 C504 0.960 . S
H491 C504 0.961 . S
H492 C504 0.959 . S
H493 C507 0.929 . S
H494 C508 0.931 . S
H495 C510 0.930 . S
C496 H484 0.930 . S
C496 C497 1.399 . S
C496 C501 1.399 . S
C497 C496 1.399 . S
C497 C498 1.376 . S
C498 H485 0.930 . S
C498 C497 1.376 . S
C498 C499 1.388 . S
C499 H486 0.930 . S
C499 C498 1.388 . S
C499 C500 1.390 . S
C500 C499 1.390 . S
C500 C501 1.394 . S
C500 C506 1.465 . S
C501 C496 1.399 . S
C501 C500 1.394 . S
C501 C502 1.516 . S
C502 C501 1.516 . S
C502 C503 1.502 . S
C502 C504 1.561 . S
C502 C505 1.526 . S
C503 H487 0.959 . S
C503 H488 0.959 . S
C503 H489 0.961 . S
C503 C502 1.502 . S
C504 H490 0.960 . S
C504 H491 0.961 . S
C504 H492 0.959 . S
C504 C502 1.561 . S
C505 C502 1.526 . S
C505 C506 1.396 . S
C505 C510 1.390 . S
C506 C500 1.465 . S
C506 C505 1.396 . S
C506 C507 1.399 . S
C507 H493 0.929 . S
C507 C506 1.399 . S
C507 C508 1.385 . S
C508 H494 0.931 . S
C508 C507 1.385 . S
C508 C509 1.389 . S
C509 C508 1.389 . S
C509 C510 1.387 . S
C510 H495 0.930 . S
C510 C505 1.390 . S
C510 C509 1.387 . S
H511 C523 0.930 . S
H512 C525 0.930 . S
H513 C526 0.930 . S
H514 C530 0.959 . S
H515 C530 0.959 . S
H516 C530 0.961 . S
H517 C531 0.960 . S
H518 C531 0.961 . S
H519 C531 0.959 . S
H520 C534 0.929 . S
H521 C535 0.931 . S
H522 C537 0.930 . S
C523 H511 0.930 . S
C523 C524 1.399 . S
C523 C528 1.399 . S
C524 C523 1.399 . S
C524 C525 1.376 . S
C525 H512 0.930 . S
C525 C524 1.376 . S
C525 C526 1.388 . S
C526 H513 0.930 . S
C526 C525 1.388 . S
C526 C527 1.390 . S
C527 C526 1.390 . S
C527 C528 1.394 . S
C527 C533 1.465 . S
C528 C523 1.399 . S
C528 C527 1.394 . S
C528 C529 1.516 . S
C529 C528 1.516 . S
C529 C530 1.502 . S
C529 C531 1.561 . S
C529 C532 1.526 . S
C530 H514 0.959 . S
C530 H515 0.959 . S
C530 H516 0.961 . S
C530 C529 1.502 . S
C531 H517 0.960 . S
C531 H518 0.961 . S
C531 H519 0.959 . S
C531 C529 1.561 . S
C532 C529 1.526 . S
C532 C533 1.396 . S
C532 C537 1.390 . S
C533 C527 1.465 . S
C533 C532 1.396 . S
C533 C534 1.399 . S
C534 H520 0.929 . S
C534 C533 1.399 . S
C534 C535 1.385 . S
C535 H521 0.931 . S
C535 C534 1.385 . S
C535 C536 1.389 . S
C536 C535 1.389 . S
C536 C537 1.387 . S
C537 H522 0.930 . S
C537 C532 1.390 . S
C537 C536 1.387 . S
H538 C550 0.930 . S
H539 C552 0.930 . S
H540 C553 0.930 . S
H541 C557 0.959 . S
H542 C557 0.959 . S
H543 C557 0.961 . S
H544 C558 0.960 . S
H545 C558 0.961 . S
H546 C558 0.959 . S
H547 C561 0.929 . S
H548 C562 0.931 . S
H549 C564 0.930 . S
C550 H538 0.930 . S
C550 C551 1.399 . S
C550 C555 1.399 . S
C551 C550 1.399 . S
C551 C552 1.376 . S
C552 H539 0.930 . S
C552 C551 1.376 . S
C552 C553 1.388 . S
C553 H540 0.930 . S
C553 C552 1.388 . S
C553 C554 1.390 . S
C554 C553 1.390 . S
C554 C555 1.394 . S
C554 C560 1.465 . S
C555 C550 1.399 . S
C555 C554 1.394 . S
C555 C556 1.516 . S
C556 C555 1.516 . S
C556 C557 1.502 . S
C556 C558 1.561 . S
C556 C559 1.526 . S
C557 H541 0.959 . S
C557 H542 0.959 . S
C557 H543 0.961 . S
C557 C556 1.502 . S
C558 H544 0.960 . S
C558 H545 0.961 . S
C558 H546 0.959 . S
C558 C556 1.561 . S
C559 C556 1.526 . S
C559 C560 1.396 . S
C559 C564 1.390 . S
C560 C554 1.465 . S
C560 C559 1.396 . S
C560 C561 1.399 . S
C561 H547 0.929 . S
C561 C560 1.399 . S
C561 C562 1.385 . S
C562 H548 0.931 . S
C562 C561 1.385 . S
C562 C563 1.389 . S
C563 C562 1.389 . S
C563 C564 1.387 . S
C564 H549 0.930 . S
C564 C559 1.390 . S
C564 C563 1.387 . S
H565 C577 0.930 . S
H566 C579 0.930 . S
H567 C580 0.930 . S
H568 C584 0.959 . S
H569 C584 0.959 . S
H570 C584 0.961 . S
H571 C585 0.960 . S
H572 C585 0.961 . S
H573 C585 0.959 . S
H574 C588 0.929 . S
H575 C589 0.931 . S
H576 C591 0.930 . S
C577 H565 0.930 . S
C577 C578 1.399 . S
C577 C582 1.399 . S
C578 C577 1.399 . S
C578 C579 1.376 . S
C579 H566 0.930 . S
C579 C578 1.376 . S
C579 C580 1.388 . S
C580 H567 0.930 . S
C580 C579 1.388 . S
C580 C581 1.390 . S
C581 C580 1.390 . S
C581 C582 1.394 . S
C581 C587 1.465 . S
C582 C577 1.399 . S
C582 C581 1.394 . S
C582 C583 1.516 . S
C583 C582 1.516 . S
C583 C584 1.502 . S
C583 C585 1.561 . S
C583 C586 1.526 . S
C584 H568 0.959 . S
C584 H569 0.959 . S
C584 H570 0.961 . S
C584 C583 1.502 . S
C585 H571 0.960 . S
C585 H572 0.961 . S
C585 H573 0.959 . S
C585 C583 1.561 . S
C586 C583 1.526 . S
C586 C587 1.396 . S
C586 C591 1.390 . S
C587 C581 1.465 . S
C587 C586 1.396 . S
C587 C588 1.399 . S
C588 H574 0.929 . S
C588 C587 1.399 . S
C588 C589 1.385 . S
C589 H575 0.931 . S
C589 C588 1.385 . S
C589 C590 1.389 . S
C590 C589 1.389 . S
C590 C591 1.387 . S
C591 H576 0.930 . S
C591 C586 1.390 . S
C591 C590 1.387 . S
H592 C604 0.930 . S
H593 C606 0.930 . S
H594 C607 0.930 . S
H595 C611 0.959 . S
H596 C611 0.959 . S
H597 C611 0.961 . S
H598 C612 0.960 . S
H599 C612 0.961 . S
H600 C612 0.959 . S
H601 C615 0.929 . S
H602 C616 0.931 . S
H603 C618 0.930 . S
C604 H592 0.930 . S
C604 C605 1.399 . S
C604 C609 1.399 . S
C605 C604 1.399 . S
C605 C606 1.376 . S
C606 H593 0.930 . S
C606 C605 1.376 . S
C606 C607 1.388 . S
C607 H594 0.930 . S
C607 C606 1.388 . S
C607 C608 1.390 . S
C608 C607 1.390 . S
C608 C609 1.394 . S
C608 C614 1.465 . S
C609 C604 1.399 . S
C609 C608 1.394 . S
C609 C610 1.516 . S
C610 C609 1.516 . S
C610 C611 1.502 . S
C610 C612 1.561 . S
C610 C613 1.526 . S
C611 H595 0.959 . S
C611 H596 0.959 . S
C611 H597 0.961 . S
C611 C610 1.502 . S
C612 H598 0.960 . S
C612 H599 0.961 . S
C612 H600 0.959 . S
C612 C610 1.561 . S
C613 C610 1.526 . S
C613 C614 1.396 . S
C613 C618 1.390 . S
C614 C608 1.465 . S
C614 C613 1.396 . S
C614 C615 1.399 . S
C615 H601 0.929 . S
C615 C614 1.399 . S
C615 C616 1.385 . S
C616 H602 0.931 . S
C616 C615 1.385 . S
C616 C617 1.389 . S
C617 C616 1.389 . S
C617 C618 1.387 . S
C618 H603 0.930 . S
C618 C613 1.390 . S
C618 C617 1.387 . S
H619 C631 0.930 . S
H620 C633 0.930 . S
H621 C634 0.930 . S
H622 C638 0.959 . S
H623 C638 0.959 . S
H624 C638 0.961 . S
H625 C639 0.960 . S
H626 C639 0.961 . S
H627 C639 0.959 . S
H628 C642 0.929 . S
H629 C643 0.931 . S
H630 C645 0.930 . S
C631 H619 0.930 . S
C631 C632 1.399 . S
C631 C636 1.399 . S
C632 C631 1.399 . S
C632 C633 1.376 . S
C633 H620 0.930 . S
C633 C632 1.376 . S
C633 C634 1.388 . S
C634 H621 0.930 . S
C634 C633 1.388 . S
C634 C635 1.390 . S
C635 C634 1.390 . S
C635 C636 1.394 . S
C635 C641 1.465 . S
C636 C631 1.399 . S
C636 C635 1.394 . S
C636 C637 1.516 . S
C637 C636 1.516 . S
C637 C638 1.502 . S
C637 C639 1.561 . S
C637 C640 1.526 . S
C638 H622 0.959 . S
C638 H623 0.959 . S
C638 H624 0.961 . S
C638 C637 1.502 . S
C639 H625 0.960 . S
C639 H626 0.961 . S
C639 H627 0.959 . S
C639 C637 1.561 . S
C640 C637 1.526 . S
C640 C641 1.396 . S
C640 C645 1.390 . S
C641 C635 1.465 . S
C641 C640 1.396 . S
C641 C642 1.399 . S
C642 H628 0.929 . S
C642 C641 1.399 . S
C642 C643 1.385 . S
C643 H629 0.931 . S
C643 C642 1.385 . S
C643 C644 1.389 . S
C644 C643 1.389 . S
C644 C645 1.387 . S
C645 H630 0.930 . S
C645 C640 1.390 . S
C645 C644 1.387 . S
H646 C658 0.930 . S
H647 C660 0.930 . S
H648 C661 0.930 . S
H649 C665 0.959 . S
H650 C665 0.959 . S
H651 C665 0.961 . S
H652 C666 0.960 . S
H653 C666 0.961 . S
H654 C666 0.959 . S
H655 C669 0.929 . S
H656 C670 0.931 . S
H657 C672 0.930 . S
C658 H646 0.930 . S
C658 C659 1.399 . S
C658 C663 1.399 . S
C659 C658 1.399 . S
C659 C660 1.376 . S
C660 H647 0.930 . S
C660 C659 1.376 . S
C660 C661 1.388 . S
C661 H648 0.930 . S
C661 C660 1.388 . S
C661 C662 1.390 . S
C662 C661 1.390 . S
C662 C663 1.394 . S
C662 C668 1.465 . S
C663 C658 1.399 . S
C663 C662 1.394 . S
C663 C664 1.516 . S
C664 C663 1.516 . S
C664 C665 1.502 . S
C664 C666 1.561 . S
C664 C667 1.526 . S
C665 H649 0.959 . S
C665 H650 0.959 . S
C665 H651 0.961 . S
C665 C664 1.502 . S
C666 H652 0.960 . S
C666 H653 0.961 . S
C666 H654 0.959 . S
C666 C664 1.561 . S
C667 C664 1.526 . S
C667 C668 1.396 . S
C667 C672 1.390 . S
C668 C662 1.465 . S
C668 C667 1.396 . S
C668 C669 1.399 . S
C669 H655 0.929 . S
C669 C668 1.399 . S
C669 C670 1.385 . S
C670 H656 0.931 . S
C670 C669 1.385 . S
C670 C671 1.389 . S
C671 C670 1.389 . S
C671 C672 1.387 . S
C672 H657 0.930 . S
C672 C667 1.390 . S
C672 C671 1.387 . S
H673 C685 0.930 . S
H674 C687 0.930 . S
H675 C688 0.930 . S
H676 C692 0.959 . S
H677 C692 0.959 . S
H678 C692 0.961 . S
H679 C693 0.960 . S
H680 C693 0.961 . S
H681 C693 0.959 . S
H682 C696 0.929 . S
H683 C697 0.931 . S
H684 C699 0.930 . S
C685 H673 0.930 . S
C685 C686 1.399 . S
C685 C690 1.399 . S
C686 C685 1.399 . S
C686 C687 1.376 . S
C687 H674 0.930 . S
C687 C686 1.376 . S
C687 C688 1.388 . S
C688 H675 0.930 . S
C688 C687 1.388 . S
C688 C689 1.390 . S
C689 C688 1.390 . S
C689 C690 1.394 . S
C689 C695 1.465 . S
C690 C685 1.399 . S
C690 C689 1.394 . S
C690 C691 1.516 . S
C691 C690 1.516 . S
C691 C692 1.502 . S
C691 C693 1.561 . S
C691 C694 1.526 . S
C692 H676 0.959 . S
C692 H677 0.959 . S
C692 H678 0.961 . S
C692 C691 1.502 . S
C693 H679 0.960 . S
C693 H680 0.961 . S
C693 H681 0.959 . S
C693 C691 1.561 . S
C694 C691 1.526 . S
C694 C695 1.396 . S
C694 C699 1.390 . S
C695 C689 1.465 . S
C695 C694 1.396 . S
C695 C696 1.399 . S
C696 H682 0.929 . S
C696 C695 1.399 . S
C696 C697 1.385 . S
C697 H683 0.931 . S
C697 C696 1.385 . S
C697 C698 1.389 . S
C698 C697 1.389 . S
C698 C699 1.387 . S
C699 H684 0.930 . S
C699 C694 1.390 . S
C699 C698 1.387 . S
H700 C712 0.930 . S
H701 C714 0.930 . S
H702 C715 0.930 . S
H703 C719 0.959 . S
H704 C719 0.959 . S
H705 C719 0.961 . S
H706 C720 0.960 . S
H707 C720 0.961 . S
H708 C720 0.959 . S
H709 C723 0.929 . S
H710 C724 0.931 . S
H711 C726 0.930 . S
C712 H700 0.930 . S
C712 C713 1.399 . S
C712 C717 1.399 . S
C713 C712 1.399 . S
C713 C714 1.376 . S
C714 H701 0.930 . S
C714 C713 1.376 . S
C714 C715 1.388 . S
C715 H702 0.930 . S
C715 C714 1.388 . S
C715 C716 1.390 . S
C716 C715 1.390 . S
C716 C717 1.394 . S
C716 C722 1.465 . S
C717 C712 1.399 . S
C717 C716 1.394 . S
C717 C718 1.516 . S
C718 C717 1.516 . S
C718 C719 1.502 . S
C718 C720 1.561 . S
C718 C721 1.526 . S
C719 H703 0.959 . S
C719 H704 0.959 . S
C719 H705 0.961 . S
C719 C718 1.502 . S
C720 H706 0.960 . S
C720 H707 0.961 . S
C720 H708 0.959 . S
C720 C718 1.561 . S
C721 C718 1.526 . S
C721 C722 1.396 . S
C721 C726 1.390 . S
C722 C716 1.465 . S
C722 C721 1.396 . S
C722 C723 1.399 . S
C723 H709 0.929 . S
C723 C722 1.399 . S
C723 C724 1.385 . S
C724 H710 0.931 . S
C724 C723 1.385 . S
C724 C725 1.389 . S
C725 C724 1.389 . S
C725 C726 1.387 . S
C726 H711 0.930 . S
C726 C721 1.390 . S
C726 C725 1.387 . S
H727 C739 0.930 . S
H728 C741 0.930 . S
H729 C742 0.930 . S
H730 C746 0.959 . S
H731 C746 0.959 . S
H732 C746 0.961 . S
H733 C747 0.960 . S
H734 C747 0.961 . S
H735 C747 0.959 . S
H736 C750 0.929 . S
H737 C751 0.931 . S
H738 C753 0.930 . S
C739 H727 0.930 . S
C739 C740 1.399 . S
C739 C744 1.399 . S
C740 C739 1.399 . S
C740 C741 1.376 . S
C741 H728 0.930 . S
C741 C740 1.376 . S
C741 C742 1.388 . S
C742 H729 0.930 . S
C742 C741 1.388 . S
C742 C743 1.390 . S
C743 C742 1.390 . S
C743 C744 1.394 . S
C743 C749 1.465 . S
C744 C739 1.399 . S
C744 C743 1.394 . S
C744 C745 1.516 . S
C745 C744 1.516 . S
C745 C746 1.502 . S
C745 C747 1.561 . S
C745 C748 1.526 . S
C746 H730 0.959 . S
C746 H731 0.959 . S
C746 H732 0.961 . S
C746 C745 1.502 . S
C747 H733 0.960 . S
C747 H734 0.961 . S
C747 H735 0.959 . S
C747 C745 1.561 . S
C748 C745 1.526 . S
C748 C749 1.396 . S
C748 C753 1.390 . S
C749 C743 1.465 . S
C749 C748 1.396 . S
C749 C750 1.399 . S
C750 H736 0.929 . S
C750 C749 1.399 . S
C750 C751 1.385 . S
C751 H737 0.931 . S
C751 C750 1.385 . S
C751 C752 1.389 . S
C752 C751 1.389 . S
C752 C753 1.387 . S
C753 H738 0.930 . S
C753 C748 1.390 . S
C753 C752 1.387 . S
H754 C766 0.930 . S
H755 C768 0.930 . S
H756 C769 0.930 . S
H757 C773 0.959 . S
H758 C773 0.959 . S
H759 C773 0.961 . S
H760 C774 0.960 . S
H761 C774 0.961 . S
H762 C774 0.959 . S
H763 C777 0.929 . S
H764 C778 0.931 . S
H765 C780 0.930 . S
C766 H754 0.930 . S
C766 C767 1.399 . S
C766 C771 1.399 . S
C767 C766 1.399 . S
C767 C768 1.376 . S
C768 H755 0.930 . S
C768 C767 1.376 . S
C768 C769 1.388 . S
C769 H756 0.930 . S
C769 C768 1.388 . S
C769 C770 1.390 . S
C770 C769 1.390 . S
C770 C771 1.394 . S
C770 C776 1.465 . S
C771 C766 1.399 . S
C771 C770 1.394 . S
C771 C772 1.516 . S
C772 C771 1.516 . S
C772 C773 1.502 . S
C772 C774 1.561 . S
C772 C775 1.526 . S
C773 H757 0.959 . S
C773 H758 0.959 . S
C773 H759 0.961 . S
C773 C772 1.502 . S
C774 H760 0.960 . S
C774 H761 0.961 . S
C774 H762 0.959 . S
C774 C772 1.561 . S
C775 C772 1.526 . S
C775 C776 1.396 . S
C775 C780 1.390 . S
C776 C770 1.465 . S
C776 C775 1.396 . S
C776 C777 1.399 . S
C777 H763 0.929 . S
C777 C776 1.399 . S
C777 C778 1.385 . S
C778 H764 0.931 . S
C778 C777 1.385 . S
C778 C779 1.389 . S
C779 C778 1.389 . S
C779 C780 1.387 . S
C780 H765 0.930 . S
C780 C775 1.390 . S
C780 C779 1.387 . S
H781 C793 0.930 . S
H782 C795 0.930 . S
H783 C796 0.930 . S
H784 C800 0.959 . S
H785 C800 0.959 . S
H786 C800 0.961 . S
H787 C801 0.960 . S
H788 C801 0.961 . S
H789 C801 0.959 . S
H790 C804 0.929 . S
H791 C805 0.931 . S
H792 C807 0.930 . S
C793 H781 0.930 . S
C793 C794 1.399 . S
C793 C798 1.399 . S
C794 C793 1.399 . S
C794 C795 1.376 . S
C795 H782 0.930 . S
C795 C794 1.376 . S
C795 C796 1.388 . S
C796 H783 0.930 . S
C796 C795 1.388 . S
C796 C797 1.390 . S
C797 C796 1.390 . S
C797 C798 1.394 . S
C797 C803 1.465 . S
C798 C793 1.399 . S
C798 C797 1.394 . S
C798 C799 1.516 . S
C799 C798 1.516 . S
C799 C800 1.502 . S
C799 C801 1.561 . S
C799 C802 1.526 . S
C800 H784 0.959 . S
C800 H785 0.959 . S
C800 H786 0.961 . S
C800 C799 1.502 . S
C801 H787 0.960 . S
C801 H788 0.961 . S
C801 H789 0.959 . S
C801 C799 1.561 . S
C802 C799 1.526 . S
C802 C803 1.396 . S
C802 C807 1.390 . S
C803 C797 1.465 . S
C803 C802 1.396 . S
C803 C804 1.399 . S
C804 H790 0.929 . S
C804 C803 1.399 . S
C804 C805 1.385 . S
C805 H791 0.931 . S
C805 C804 1.385 . S
C805 C806 1.389 . S
C806 C805 1.389 . S
C806 C807 1.387 . S
C807 H792 0.930 . S
C807 C802 1.390 . S
C807 C806 1.387 . S
H808 C820 0.930 . S
H809 C822 0.930 . S
H810 C823 0.930 . S
H811 C827 0.959 . S
H812 C827 0.959 . S
H813 C827 0.961 . S
H814 C828 0.960 . S
H815 C828 0.961 . S
H816 C828 0.959 . S
H817 C831 0.929 . S
H818 C832 0.931 . S
H819 C834 0.930 . S
C820 H808 0.930 . S
C820 C821 1.399 . S
C820 C825 1.399 . S
C821 C820 1.399 . S
C821 C822 1.376 . S
C822 H809 0.930 . S
C822 C821 1.376 . S
C822 C823 1.388 . S
C823 H810 0.930 . S
C823 C822 1.388 . S
C823 C824 1.390 . S
C824 C823 1.390 . S
C824 C825 1.394 . S
C824 C830 1.465 . S
C825 C820 1.399 . S
C825 C824 1.394 . S
C825 C826 1.516 . S
C826 C825 1.516 . S
C826 C827 1.502 . S
C826 C828 1.561 . S
C826 C829 1.526 . S
C827 H811 0.959 . S
C827 H812 0.959 . S
C827 H813 0.961 . S
C827 C826 1.502 . S
C828 H814 0.960 . S
C828 H815 0.961 . S
C828 H816 0.959 . S
C828 C826 1.561 . S
C829 C826 1.526 . S
C829 C830 1.396 . S
C829 C834 1.390 . S
C830 C824 1.465 . S
C830 C829 1.396 . S
C830 C831 1.399 . S
C831 H817 0.929 . S
C831 C830 1.399 . S
C831 C832 1.385 . S
C832 H818 0.931 . S
C832 C831 1.385 . S
C832 C833 1.389 . S
C833 C832 1.389 . S
C833 C834 1.387 . S
C834 H819 0.930 . S
C834 C829 1.390 . S
C834 C833 1.387 . S
H835 C847 0.930 . S
H836 C849 0.930 . S
H837 C850 0.930 . S
H838 C854 0.959 . S
H839 C854 0.959 . S
H840 C854 0.961 . S
H841 C855 0.960 . S
H842 C855 0.961 . S
H843 C855 0.959 . S
H844 C858 0.929 . S
H845 C859 0.908 1_554 S
H846 C861 0.930 . S
C847 H835 0.930 . S
C847 C848 1.399 . S
C847 C852 1.399 . S
C848 C847 1.399 . S
C848 C849 1.376 . S
C849 H836 0.930 . S
C849 C848 1.376 . S
C849 C850 1.388 . S
C850 H837 0.930 . S
C850 C849 1.388 . S
C850 C851 1.390 . S
C851 C850 1.390 . S
C851 C852 1.394 . S
C851 C857 1.465 . S
C852 C847 1.399 . S
C852 C851 1.394 . S
C852 C853 1.516 . S
C853 C852 1.516 . S
C853 C854 1.502 . S
C853 C855 1.561 . S
C853 C856 1.526 . S
C854 H838 0.959 . S
C854 H839 0.959 . S
C854 H840 0.961 . S
C854 C853 1.502 . S
C855 H841 0.960 . S
C855 H842 0.961 . S
C855 H843 0.959 . S
C855 C853 1.561 . S
C856 C853 1.526 . S
C856 C857 1.396 . S
C856 C861 1.390 . S
C857 C851 1.465 . S
C857 C856 1.396 . S
C857 C858 1.399 . S
C858 H844 0.929 . S
C858 C857 1.399 . S
C858 C859 1.385 . S
C859 H845 0.908 1_556 S
C859 C858 1.385 . S
C859 C860 1.389 . S
C860 C859 1.389 . S
C860 C861 1.387 . S
C861 H846 0.930 . S
C861 C856 1.390 . S
C861 C860 1.387 . S
H862 C874 0.930 . S
H863 C876 0.930 . S
H864 C877 0.930 . S
H865 C881 0.959 . S
H866 C881 0.959 . S
H867 C881 0.961 . S
H868 C882 0.960 . S
H869 C882 0.961 . S
H870 C882 0.959 . S
H871 C885 0.929 . S
H872 C886 0.931 . S
H873 C888 0.930 . S
C874 H862 0.930 . S
C874 C875 1.399 . S
C874 C879 1.399 . S
C875 C874 1.399 . S
C875 C876 1.376 . S
C876 H863 0.930 . S
C876 C875 1.376 . S
C876 C877 1.388 . S
C877 H864 0.930 . S
C877 C876 1.388 . S
C877 C878 1.390 . S
C878 C877 1.390 . S
C878 C879 1.394 . S
C878 C884 1.465 . S
C879 C874 1.399 . S
C879 C878 1.394 . S
C879 C880 1.516 . S
C880 C879 1.516 . S
C880 C881 1.502 . S
C880 C882 1.561 . S
C880 C883 1.526 . S
C881 H865 0.959 . S
C881 H866 0.959 . S
C881 H867 0.961 . S
C881 C880 1.502 . S
C882 H868 0.960 . S
C882 H869 0.961 . S
C882 H870 0.959 . S
C882 C880 1.561 . S
C883 C880 1.526 . S
C883 C884 1.396 . S
C883 C888 1.390 . S
C884 C878 1.465 . S
C884 C883 1.396 . S
C884 C885 1.399 . S
C885 H871 0.929 . S
C885 C884 1.399 . S
C885 C886 1.385 . S
C886 H872 0.931 . S
C886 C885 1.385 . S
C886 C887 1.389 . S
C887 C886 1.389 . S
C887 C888 1.387 . S
C888 H873 0.930 . S
C888 C883 1.390 . S
C888 C887 1.387 . S
H889 C901 0.930 . S
H890 C903 0.930 . S
H891 C904 0.930 . S
H892 C908 0.959 . S
H893 C908 0.959 . S
H894 C908 0.961 . S
H895 C909 0.960 . S
H896 C909 0.961 . S
H897 C909 0.959 . S
H898 C912 0.929 . S
H899 C913 0.931 . S
H900 C915 0.930 . S
C901 H889 0.930 . S
C901 C902 1.399 . S
C901 C906 1.399 . S
C902 C901 1.399 . S
C902 C903 1.376 . S
C903 H890 0.930 . S
C903 C902 1.376 . S
C903 C904 1.388 . S
C904 H891 0.930 . S
C904 C903 1.388 . S
C904 C905 1.390 . S
C905 C904 1.390 . S
C905 C906 1.394 . S
C905 C911 1.465 . S
C906 C901 1.399 . S
C906 C905 1.394 . S
C906 C907 1.516 . S
C907 C906 1.516 . S
C907 C908 1.502 . S
C907 C909 1.561 . S
C907 C910 1.526 . S
C908 H892 0.959 . S
C908 H893 0.959 . S
C908 H894 0.961 . S
C908 C907 1.502 . S
C909 H895 0.960 . S
C909 H896 0.961 . S
C909 H897 0.959 . S
C909 C907 1.561 . S
C910 C907 1.526 . S
C910 C911 1.396 . S
C910 C915 1.390 . S
C911 C905 1.465 . S
C911 C910 1.396 . S
C911 C912 1.399 . S
C912 H898 0.929 . S
C912 C911 1.399 . S
C912 C913 1.385 . S
C913 H899 0.931 . S
C913 C912 1.385 . S
C913 C914 1.389 . S
C914 C913 1.389 . S
C914 C915 1.387 . S
C915 H900 0.930 . S
C915 C910 1.390 . S
C915 C914 1.387 . S
H916 C928 0.930 . S
H917 C930 0.930 . S
H918 C931 0.930 . S
H919 C935 0.959 . S
H920 C935 0.959 . S
H921 C935 0.961 . S
H922 C936 0.960 . S
H923 C936 0.961 . S
H924 C936 0.959 . S
H925 C939 0.929 . S
H926 C940 0.931 . S
H927 C942 0.930 . S
C928 H916 0.930 . S
C928 C929 1.399 . S
C928 C933 1.399 . S
C929 C928 1.399 . S
C929 C930 1.376 . S
C930 H917 0.930 . S
C930 C929 1.376 . S
C930 C931 1.388 . S
C931 H918 0.930 . S
C931 C930 1.388 . S
C931 C932 1.390 . S
C932 C931 1.390 . S
C932 C933 1.394 . S
C932 C938 1.465 . S
C933 C928 1.399 . S
C933 C932 1.394 . S
C933 C934 1.516 . S
C934 C933 1.516 . S
C934 C935 1.502 . S
C934 C936 1.561 . S
C934 C937 1.526 . S
C935 H919 0.959 . S
C935 H920 0.959 . S
C935 H921 0.961 . S
C935 C934 1.502 . S
C936 H922 0.960 . S
C936 H923 0.961 . S
C936 H924 0.959 . S
C936 C934 1.561 . S
C937 C934 1.526 . S
C937 C938 1.396 . S
C937 C942 1.390 . S
C938 C932 1.465 . S
C938 C937 1.396 . S
C938 C939 1.399 . S
C939 H925 0.929 . S
C939 C938 1.399 . S
C939 C940 1.385 . S
C940 H926 0.931 . S
C940 C939 1.385 . S
C940 C941 1.389 . S
C941 C940 1.389 . S
C941 C942 1.387 . S
C942 H927 0.930 . S
C942 C937 1.390 . S
C942 C941 1.387 . S
H943 C955 0.930 . S
H944 C957 0.930 . S
H945 C958 0.930 . S
H946 C962 0.959 . S
H947 C962 0.959 . S
H948 C962 0.961 . S
H949 C963 0.960 . S
H950 C963 0.961 . S
H951 C963 0.959 . S
H952 C966 0.929 . S
H953 C967 0.931 . S
H954 C969 0.930 . S
C955 H943 0.930 . S
C955 C956 1.399 . S
C955 C960 1.399 . S
C956 C955 1.399 . S
C956 C957 1.376 . S
C957 H944 0.930 . S
C957 C956 1.376 . S
C957 C958 1.388 . S
C958 H945 0.930 . S
C958 C957 1.388 . S
C958 C959 1.390 . S
C959 C958 1.390 . S
C959 C960 1.394 . S
C959 C965 1.465 . S
C960 C955 1.399 . S
C960 C959 1.394 . S
C960 C961 1.516 . S
C961 C960 1.516 . S
C961 C962 1.502 . S
C961 C963 1.561 . S
C961 C964 1.526 . S
C962 H946 0.959 . S
C962 H947 0.959 . S
C962 H948 0.961 . S
C962 C961 1.502 . S
C963 H949 0.960 . S
C963 H950 0.961 . S
C963 H951 0.959 . S
C963 C961 1.561 . S
C964 C961 1.526 . S
C964 C965 1.396 . S
C964 C969 1.390 . S
C965 C959 1.465 . S
C965 C964 1.396 . S
C965 C966 1.399 . S
C966 H952 0.929 . S
C966 C965 1.399 . S
C966 C967 1.385 . S
C967 H953 0.931 . S
C967 C966 1.385 . S
C967 C968 1.389 . S
C968 C967 1.389 . S
C968 C969 1.387 . S
C969 H954 0.930 . S
C969 C964 1.390 . S
C969 C968 1.387 . S
H970 C982 0.930 . S
H971 C984 0.930 . S
H972 C985 0.930 . S
H973 C989 0.959 . S
H974 C989 0.959 . S
H975 C989 0.961 . S
H976 C990 0.960 . S
H977 C990 0.961 . S
H978 C990 0.959 . S
H979 C993 0.929 . S
H980 C994 0.931 . S
H981 C996 0.930 . S
C982 H970 0.930 . S
C982 C983 1.399 . S
C982 C987 1.399 . S
C983 C982 1.399 . S
C983 C984 1.376 . S
C984 H971 0.930 . S
C984 C983 1.376 . S
C984 C985 1.388 . S
C985 H972 0.930 . S
C985 C984 1.388 . S
C985 C986 1.390 . S
C986 C985 1.390 . S
C986 C987 1.394 . S
C986 C992 1.465 . S
C987 C982 1.399 . S
C987 C986 1.394 . S
C987 C988 1.516 . S
C988 C987 1.516 . S
C988 C989 1.502 . S
C988 C990 1.561 . S
C988 C991 1.526 . S
C989 H973 0.959 . S
C989 H974 0.959 . S
C989 H975 0.961 . S
C989 C988 1.502 . S
C990 H976 0.960 . S
C990 H977 0.961 . S
C990 H978 0.959 . S
C990 C988 1.561 . S
C991 C988 1.526 . S
C991 C992 1.396 . S
C991 C996 1.390 . S
C992 C986 1.465 . S
C992 C991 1.396 . S
C992 C993 1.399 . S
C993 H979 0.929 . S
C993 C992 1.399 . S
C993 C994 1.385 . S
C994 H980 0.931 . S
C994 C993 1.385 . S
C994 C995 1.389 . S
C995 C994 1.389 . S
C995 C996 1.387 . S
C996 H981 0.930 . S
C996 C991 1.390 . S
C996 C995 1.387 . S
H997 C1009 0.930 . S
H998 C1011 0.930 . S
H999 C1012 0.930 . S
H1000 C1016 0.959 . S
H1001 C1016 0.959 . S
H1002 C1016 0.961 . S
H1003 C1017 0.960 . S
H1004 C1017 0.961 . S
H1005 C1017 0.959 . S
H1006 C1020 0.929 . S
H1007 C1021 0.931 . S
H1008 C1023 0.930 . S
C1009 H997 0.930 . S
C1009 C1010 1.399 . S
C1009 C1014 1.399 . S
C1010 C1009 1.399 . S
C1010 C1011 1.376 . S
C1011 H998 0.930 . S
C1011 C1010 1.376 . S
C1011 C1012 1.388 . S
C1012 H999 0.930 . S
C1012 C1011 1.388 . S
C1012 C1013 1.390 . S
C1013 C1012 1.390 . S
C1013 C1014 1.394 . S
C1013 C1019 1.465 . S
C1014 C1009 1.399 . S
C1014 C1013 1.394 . S
C1014 C1015 1.516 . S
C1015 C1014 1.516 . S
C1015 C1016 1.502 . S
C1015 C1017 1.561 . S
C1015 C1018 1.526 . S
C1016 H1000 0.959 . S
C1016 H1001 0.959 . S
C1016 H1002 0.961 . S
C1016 C1015 1.502 . S
C1017 H1003 0.960 . S
C1017 H1004 0.961 . S
C1017 H1005 0.959 . S
C1017 C1015 1.561 . S
C1018 C1015 1.526 . S
C1018 C1019 1.396 . S
C1018 C1023 1.390 . S
C1019 C1013 1.465 . S
C1019 C1018 1.396 . S
C1019 C1020 1.399 . S
C1020 H1006 0.929 . S
C1020 C1019 1.399 . S
C1020 C1021 1.385 . S
C1021 H1007 0.931 . S
C1021 C1020 1.385 . S
C1021 C1022 1.389 . S
C1022 C1021 1.389 . S
C1022 C1023 1.387 . S
C1023 H1008 0.930 . S
C1023 C1018 1.390 . S
C1023 C1022 1.387 . S
H1024 C1036 0.930 . S
H1025 C1038 0.930 . S
H1026 C1039 0.930 . S
H1027 C1043 0.959 . S
H1028 C1043 0.959 . S
H1029 C1043 0.961 . S
H1030 C1044 0.960 . S
H1031 C1044 0.961 . S
H1032 C1044 0.959 . S
H1033 C1047 0.929 . S
H1034 C1048 0.931 . S
H1035 C1050 0.930 . S
C1036 H1024 0.930 . S
C1036 C1037 1.399 . S
C1036 C1041 1.399 . S
C1037 C1036 1.399 . S
C1037 C1038 1.376 . S
C1038 H1025 0.930 . S
C1038 C1037 1.376 . S
C1038 C1039 1.388 . S
C1039 H1026 0.930 . S
C1039 C1038 1.388 . S
C1039 C1040 1.390 . S
C1040 C1039 1.390 . S
C1040 C1041 1.394 . S
C1040 C1046 1.465 . S
C1041 C1036 1.399 . S
C1041 C1040 1.394 . S
C1041 C1042 1.516 . S
C1042 C1041 1.516 . S
C1042 C1043 1.502 . S
C1042 C1044 1.561 . S
C1042 C1045 1.526 . S
C1043 H1027 0.959 . S
C1043 H1028 0.959 . S
C1043 H1029 0.961 . S
C1043 C1042 1.502 . S
C1044 H1030 0.960 . S
C1044 H1031 0.961 . S
C1044 H1032 0.959 . S
C1044 C1042 1.561 . S
C1045 C1042 1.526 . S
C1045 C1046 1.396 . S
C1045 C1050 1.390 . S
C1046 C1040 1.465 . S
C1046 C1045 1.396 . S
C1046 C1047 1.399 . S
C1047 H1033 0.929 . S
C1047 C1046 1.399 . S
C1047 C1048 1.385 . S
C1048 H1034 0.931 . S
C1048 C1047 1.385 . S
C1048 C1049 1.389 . S
C1049 C1048 1.389 . S
C1049 C1050 1.387 . S
C1050 H1035 0.930 . S
C1050 C1045 1.390 . S
C1050 C1049 1.387 . S
H1051 C1063 0.930 . S
H1052 C1065 0.930 . S
H1053 C1066 0.930 . S
H1054 C1070 0.959 . S
H1055 C1070 0.959 . S
H1056 C1070 0.961 . S
H1057 C1071 0.960 . S
H1058 C1071 0.961 . S
H1059 C1071 0.959 . S
H1060 C1074 0.929 . S
H1061 C1075 0.931 . S
H1062 C1077 0.930 . S
C1063 H1051 0.930 . S
C1063 C1064 1.399 . S
C1063 C1068 1.399 . S
C1064 C1063 1.399 . S
C1064 C1065 1.376 . S
C1065 H1052 0.930 . S
C1065 C1064 1.376 . S
C1065 C1066 1.388 . S
C1066 H1053 0.930 . S
C1066 C1065 1.388 . S
C1066 C1067 1.390 . S
C1067 C1066 1.390 . S
C1067 C1068 1.394 . S
C1067 C1073 1.465 . S
C1068 C1063 1.399 . S
C1068 C1067 1.394 . S
C1068 C1069 1.516 . S
C1069 C1068 1.516 . S
C1069 C1070 1.502 . S
C1069 C1071 1.561 . S
C1069 C1072 1.526 . S
C1070 H1054 0.959 . S
C1070 H1055 0.959 . S
C1070 H1056 0.961 . S
C1070 C1069 1.502 . S
C1071 H1057 0.960 . S
C1071 H1058 0.961 . S
C1071 H1059 0.959 . S
C1071 C1069 1.561 . S
C1072 C1069 1.526 . S
C1072 C1073 1.396 . S
C1072 C1077 1.390 . S
C1073 C1067 1.465 . S
C1073 C1072 1.396 . S
C1073 C1074 1.399 . S
C1074 H1060 0.929 . S
C1074 C1073 1.399 . S
C1074 C1075 1.385 . S
C1075 H1061 0.931 . S
C1075 C1074 1.385 . S
C1075 C1076 1.389 . S
C1076 C1075 1.389 . S
C1076 C1077 1.387 . S
C1077 H1062 0.930 . S
C1077 C1072 1.390 . S
C1077 C1076 1.387 . S
H1078 C1090 0.930 . S
H1079 C1092 0.930 . S
H1080 C1093 0.930 . S
H1081 C1097 0.959 . S
H1082 C1097 0.959 . S
H1083 C1097 0.961 . S
H1084 C1098 0.960 . S
H1085 C1098 0.961 . S
H1086 C1098 0.959 . S
H1087 C1101 0.929 . S
H1088 C1102 0.931 . S
H1089 C1104 0.930 . S
C1090 H1078 0.930 . S
C1090 C1091 1.399 . S
C1090 C1095 1.399 . S
C1091 C1090 1.399 . S
C1091 C1092 1.376 . S
C1092 H1079 0.930 . S
C1092 C1091 1.376 . S
C1092 C1093 1.388 . S
C1093 H1080 0.930 . S
C1093 C1092 1.388 . S
C1093 C1094 1.390 . S
C1094 C1093 1.390 . S
C1094 C1095 1.394 . S
C1094 C1100 1.465 . S
C1095 C1090 1.399 . S
C1095 C1094 1.394 . S
C1095 C1096 1.516 . S
C1096 C1095 1.516 . S
C1096 C1097 1.502 . S
C1096 C1098 1.561 . S
C1096 C1099 1.526 . S
C1097 H1081 0.959 . S
C1097 H1082 0.959 . S
C1097 H1083 0.961 . S
C1097 C1096 1.502 . S
C1098 H1084 0.960 . S
C1098 H1085 0.961 . S
C1098 H1086 0.959 . S
C1098 C1096 1.561 . S
C1099 C1096 1.526 . S
C1099 C1100 1.396 . S
C1099 C1104 1.390 . S
C1100 C1094 1.465 . S
C1100 C1099 1.396 . S
C1100 C1101 1.399 . S
C1101 H1087 0.929 . S
C1101 C1100 1.399 . S
C1101 C1102 1.385 . S
C1102 H1088 0.931 . S
C1102 C1101 1.385 . S
C1102 C1103 1.389 . S
C1103 C1102 1.389 . S
C1103 C1104 1.387 . S
C1104 H1089 0.930 . S
C1104 C1099 1.390 . S
C1104 C1103 1.387 . S
H1105 C1117 0.930 . S
H1106 C1119 0.930 . S
H1107 C1120 0.930 . S
H1108 C1124 0.959 . S
H1109 C1124 0.959 . S
H1110 C1124 0.961 . S
H1111 C1125 0.960 . S
H1112 C1125 0.961 . S
H1113 C1125 0.959 . S
H1114 C1128 0.929 . S
H1115 C1129 0.931 . S
H1116 C1131 0.930 . S
C1117 H1105 0.930 . S
C1117 C1118 1.399 . S
C1117 C1122 1.399 . S
C1118 C1117 1.399 . S
C1118 C1119 1.376 . S
C1119 H1106 0.930 . S
C1119 C1118 1.376 . S
C1119 C1120 1.388 . S
C1120 H1107 0.930 . S
C1120 C1119 1.388 . S
C1120 C1121 1.390 . S
C1121 C1120 1.390 . S
C1121 C1122 1.394 . S
C1121 C1127 1.465 . S
C1122 C1117 1.399 . S
C1122 C1121 1.394 . S
C1122 C1123 1.516 . S
C1123 C1122 1.516 . S
C1123 C1124 1.502 . S
C1123 C1125 1.561 . S
C1123 C1126 1.526 . S
C1124 H1108 0.959 . S
C1124 H1109 0.959 . S
C1124 H1110 0.961 . S
C1124 C1123 1.502 . S
C1125 H1111 0.960 . S
C1125 H1112 0.961 . S
C1125 H1113 0.959 . S
C1125 C1123 1.561 . S
C1126 C1123 1.526 . S
C1126 C1127 1.396 . S
C1126 C1131 1.390 . S
C1127 C1121 1.465 . S
C1127 C1126 1.396 . S
C1127 C1128 1.399 . S
C1128 H1114 0.929 . S
C1128 C1127 1.399 . S
C1128 C1129 1.385 . S
C1129 H1115 0.931 . S
C1129 C1128 1.385 . S
C1129 C1130 1.389 . S
C1130 C1129 1.389 . S
C1130 C1131 1.387 . S
C1131 H1116 0.930 . S
C1131 C1126 1.390 . S
C1131 C1130 1.387 . S
H1132 C1144 0.930 . S
H1133 C1146 0.930 . S
H1134 C1147 0.930 . S
H1135 C1151 0.959 . S
H1136 C1151 0.959 . S
H1137 C1151 0.961 . S
H1138 C1152 0.960 . S
H1139 C1152 0.961 . S
H1140 C1152 0.959 . S
H1141 C1155 0.929 . S
H1142 C1156 0.931 . S
H1143 C1158 0.930 . S
C1144 H1132 0.930 . S
C1144 C1145 1.399 . S
C1144 C1149 1.399 . S
C1145 C1144 1.399 . S
C1145 C1146 1.376 . S
C1146 H1133 0.930 . S
C1146 C1145 1.376 . S
C1146 C1147 1.388 . S
C1147 H1134 0.930 . S
C1147 C1146 1.388 . S
C1147 C1148 1.390 . S
C1148 C1147 1.390 . S
C1148 C1149 1.394 . S
C1148 C1154 1.465 . S
C1149 C1144 1.399 . S
C1149 C1148 1.394 . S
C1149 C1150 1.516 . S
C1150 C1149 1.516 . S
C1150 C1151 1.502 . S
C1150 C1152 1.561 . S
C1150 C1153 1.526 . S
C1151 H1135 0.959 . S
C1151 H1136 0.959 . S
C1151 H1137 0.961 . S
C1151 C1150 1.502 . S
C1152 H1138 0.960 . S
C1152 H1139 0.961 . S
C1152 H1140 0.959 . S
C1152 C1150 1.561 . S
C1153 C1150 1.526 . S
C1153 C1154 1.396 . S
C1153 C1158 1.390 . S
C1154 C1148 1.465 . S
C1154 C1153 1.396 . S
C1154 C1155 1.399 . S
C1155 H1141 0.929 . S
C1155 C1154 1.399 . S
C1155 C1156 1.385 . S
C1156 H1142 0.931 . S
C1156 C1155 1.385 . S
C1156 C1157 1.389 . S
C1157 C1156 1.389 . S
C1157 C1158 1.387 . S
C1158 H1143 0.930 . S
C1158 C1153 1.390 . S
C1158 C1157 1.387 . S
H1159 C1171 0.930 . S
H1160 C1173 0.930 . S
H1161 C1174 0.930 . S
H1162 C1178 0.959 . S
H1163 C1178 0.959 . S
H1164 C1178 0.961 . S
H1165 C1179 0.960 . S
H1166 C1179 0.961 . S
H1167 C1179 0.959 . S
H1168 C1182 0.929 . S
H1169 C1183 0.931 . S
H1170 C1185 0.930 . S
C1171 H1159 0.930 . S
C1171 C1172 1.399 . S
C1171 C1176 1.399 . S
C1172 C1171 1.399 . S
C1172 C1173 1.376 . S
C1173 H1160 0.930 . S
C1173 C1172 1.376 . S
C1173 C1174 1.388 . S
C1174 H1161 0.930 . S
C1174 C1173 1.388 . S
C1174 C1175 1.390 . S
C1175 C1174 1.390 . S
C1175 C1176 1.394 . S
C1175 C1181 1.465 . S
C1176 C1171 1.399 . S
C1176 C1175 1.394 . S
C1176 C1177 1.516 . S
C1177 C1176 1.516 . S
C1177 C1178 1.502 . S
C1177 C1179 1.561 . S
C1177 C1180 1.526 . S
C1178 H1162 0.959 . S
C1178 H1163 0.959 . S
C1178 H1164 0.961 . S
C1178 C1177 1.502 . S
C1179 H1165 0.960 . S
C1179 H1166 0.961 . S
C1179 H1167 0.959 . S
C1179 C1177 1.561 . S
C1180 C1177 1.526 . S
C1180 C1181 1.396 . S
C1180 C1185 1.390 . S
C1181 C1175 1.465 . S
C1181 C1180 1.396 . S
C1181 C1182 1.399 . S
C1182 H1168 0.929 . S
C1182 C1181 1.399 . S
C1182 C1183 1.385 . S
C1183 H1169 0.931 . S
C1183 C1182 1.385 . S
C1183 C1184 1.389 . S
C1184 C1183 1.389 . S
C1184 C1185 1.387 . S
C1185 H1170 0.930 . S
C1185 C1180 1.390 . S
C1185 C1184 1.387 . S
H1186 C1198 0.930 . S
H1187 C1200 0.930 . S
H1188 C1201 0.930 . S
H1189 C1205 0.959 . S
H1190 C1205 0.959 . S
H1191 C1205 0.961 . S
H1192 C1206 0.960 . S
H1193 C1206 0.961 . S
H1194 C1206 0.959 . S
H1195 C1209 0.929 . S
H1196 C1210 0.931 . S
H1197 C1212 0.930 . S
C1198 H1186 0.930 . S
C1198 C1199 1.399 . S
C1198 C1203 1.399 . S
C1199 C1198 1.399 . S
C1199 C1200 1.376 . S
C1200 H1187 0.930 . S
C1200 C1199 1.376 . S
C1200 C1201 1.388 . S
C1201 H1188 0.930 . S
C1201 C1200 1.388 . S
C1201 C1202 1.390 . S
C1202 C1201 1.390 . S
C1202 C1203 1.394 . S
C1202 C1208 1.465 . S
C1203 C1198 1.399 . S
C1203 C1202 1.394 . S
C1203 C1204 1.516 . S
C1204 C1203 1.516 . S
C1204 C1205 1.502 . S
C1204 C1206 1.561 . S
C1204 C1207 1.526 . S
C1205 H1189 0.959 . S
C1205 H1190 0.959 . S
C1205 H1191 0.961 . S
C1205 C1204 1.502 . S
C1206 H1192 0.960 . S
C1206 H1193 0.961 . S
C1206 H1194 0.959 . S
C1206 C1204 1.561 . S
C1207 C1204 1.526 . S
C1207 C1208 1.396 . S
C1207 C1212 1.390 . S
C1208 C1202 1.465 . S
C1208 C1207 1.396 . S
C1208 C1209 1.399 . S
C1209 H1195 0.929 . S
C1209 C1208 1.399 . S
C1209 C1210 1.385 . S
C1210 H1196 0.931 . S
C1210 C1209 1.385 . S
C1210 C1211 1.389 . S
C1211 C1210 1.389 . S
C1211 C1212 1.387 . S
C1212 H1197 0.930 . S
C1212 C1207 1.390 . S
C1212 C1211 1.387 . S
H1213 C1225 0.930 . S
H1214 C1227 0.930 . S
H1215 C1228 0.930 . S
H1216 C1232 0.959 . S
H1217 C1232 0.959 . S
H1218 C1232 0.961 . S
H1219 C1233 0.960 . S
H1220 C1233 0.961 . S
H1221 C1233 0.959 . S
H1222 C1236 0.929 . S
H1223 C1237 0.931 . S
H1224 C1239 0.930 . S
C1225 H1213 0.930 . S
C1225 C1226 1.399 . S
C1225 C1230 1.399 . S
C1226 C1225 1.399 . S
C1226 C1227 1.376 . S
C1227 H1214 0.930 . S
C1227 C1226 1.376 . S
C1227 C1228 1.388 . S
C1228 H1215 0.930 . S
C1228 C1227 1.388 . S
C1228 C1229 1.390 . S
C1229 C1228 1.390 . S
C1229 C1230 1.394 . S
C1229 C1235 1.465 . S
C1230 C1225 1.399 . S
C1230 C1229 1.394 . S
C1230 C1231 1.516 . S
C1231 C1230 1.516 . S
C1231 C1232 1.502 . S
C1231 C1233 1.561 . S
C1231 C1234 1.526 . S
C1232 H1216 0.959 . S
C1232 H1217 0.959 . S
C1232 H1218 0.961 . S
C1232 C1231 1.502 . S
C1233 H1219 0.960 . S
C1233 H1220 0.961 . S
C1233 H1221 0.959 . S
C1233 C1231 1.561 . S
C1234 C1231 1.526 . S
C1234 C1235 1.396 . S
C1234 C1239 1.390 . S
C1235 C1229 1.465 . S
C1235 C1234 1.396 . S
C1235 C1236 1.399 . S
C1236 H1222 0.929 . S
C1236 C1235 1.399 . S
C1236 C1237 1.385 . S
C1237 H1223 0.931 . S
C1237 C1236 1.385 . S
C1237 C1238 1.389 . S
C1238 C1237 1.389 . S
C1238 C1239 1.387 . S
C1239 H1224 0.930 . S
C1239 C1234 1.390 . S
C1239 C1238 1.387 . S
H1240 C1252 0.930 . S
H1241 C1254 0.930 . S
H1242 C1255 0.930 . S
H1243 C1259 0.959 . S
H1244 C1259 0.959 . S
H1245 C1259 0.961 . S
H1246 C1260 0.960 . S
H1247 C1260 0.961 . S
H1248 C1260 0.959 . S
H1249 C1263 0.929 . S
H1250 C1264 0.931 . S
H1251 C1266 0.930 . S
C1252 H1240 0.930 . S
C1252 C1253 1.399 . S
C1252 C1257 1.399 . S
C1253 C1252 1.399 . S
C1253 C1254 1.376 . S
C1254 H1241 0.930 . S
C1254 C1253 1.376 . S
C1254 C1255 1.388 . S
C1255 H1242 0.930 . S
C1255 C1254 1.388 . S
C1255 C1256 1.390 . S
C1256 C1255 1.390 . S
C1256 C1257 1.394 . S
C1256 C1262 1.465 . S
C1257 C1252 1.399 . S
C1257 C1256 1.394 . S
C1257 C1258 1.516 . S
C1258 C1257 1.516 . S
C1258 C1259 1.502 . S
C1258 C1260 1.561 . S
C1258 C1261 1.526 . S
C1259 H1243 0.959 . S
C1259 H1244 0.959 . S
C1259 H1245 0.961 . S
C1259 C1258 1.502 . S
C1260 H1246 0.960 . S
C1260 H1247 0.961 . S
C1260 H1248 0.959 . S
C1260 C1258 1.561 . S
C1261 C1258 1.526 . S
C1261 C1262 1.396 . S
C1261 C1266 1.390 . S
C1262 C1256 1.465 . S
C1262 C1261 1.396 . S
C1262 C1263 1.399 . S
C1263 H1249 0.929 . S
C1263 C1262 1.399 . S
C1263 C1264 1.385 . S
C1264 H1250 0.931 . S
C1264 C1263 1.385 . S
C1264 C1265 1.389 . S
C1265 C1264 1.389 . S
C1265 C1266 1.387 . S
C1266 H1251 0.930 . S
C1266 C1261 1.390 . S
C1266 C1265 1.387 . S
H1267 C1279 0.930 . S
H1268 C1281 0.930 . S
H1269 C1282 0.930 . S
H1270 C1286 0.959 . S
H1271 C1286 0.959 . S
H1272 C1286 0.961 . S
H1273 C1287 0.960 . S
H1274 C1287 0.961 . S
H1275 C1287 0.959 . S
H1276 C1290 0.929 . S
H1277 C1291 0.931 . S
H1278 C1293 0.930 . S
C1279 H1267 0.930 . S
C1279 C1280 1.399 . S
C1279 C1284 1.399 . S
C1280 C1279 1.399 . S
C1280 C1281 1.376 . S
C1281 H1268 0.930 . S
C1281 C1280 1.376 . S
C1281 C1282 1.388 . S
C1282 H1269 0.930 . S
C1282 C1281 1.388 . S
C1282 C1283 1.390 . S
C1283 C1282 1.390 . S
C1283 C1284 1.394 . S
C1283 C1289 1.465 . S
C1284 C1279 1.399 . S
C1284 C1283 1.394 . S
C1284 C1285 1.516 . S
C1285 C1284 1.516 . S
C1285 C1286 1.502 . S
C1285 C1287 1.561 . S
C1285 C1288 1.526 . S
C1286 H1270 0.959 . S
C1286 H1271 0.959 . S
C1286 H1272 0.961 . S
C1286 C1285 1.502 . S
C1287 H1273 0.960 . S
C1287 H1274 0.961 . S
C1287 H1275 0.959 . S
C1287 C1285 1.561 . S
C1288 C1285 1.526 . S
C1288 C1289 1.396 . S
C1288 C1293 1.390 . S
C1289 C1283 1.465 . S
C1289 C1288 1.396 . S
C1289 C1290 1.399 . S
C1290 H1276 0.929 . S
C1290 C1289 1.399 . S
C1290 C1291 1.385 . S
C1291 H1277 0.931 . S
C1291 C1290 1.385 . S
C1291 C1292 1.389 . S
C1292 C1291 1.389 . S
C1292 C1293 1.387 . S
C1293 H1278 0.930 . S
C1293 C1288 1.390 . S
C1293 C1292 1.387 . S
H1294 C1306 0.930 . S
H1295 C1308 0.930 . S
H1296 C1309 0.930 . S
H1297 C1313 0.959 . S
H1298 C1313 0.959 . S
H1299 C1313 0.961 . S
H1300 C1314 0.960 . S
H1301 C1314 0.961 . S
H1302 C1314 0.959 . S
H1303 C1317 0.929 . S
H1304 C1318 0.931 . S
H1305 C1320 0.930 . S
C1306 H1294 0.930 . S
C1306 C1307 1.399 . S
C1306 C1311 1.399 . S
C1307 C1306 1.399 . S
C1307 C1308 1.376 . S
C1308 H1295 0.930 . S
C1308 C1307 1.376 . S
C1308 C1309 1.388 . S
C1309 H1296 0.930 . S
C1309 C1308 1.388 . S
C1309 C1310 1.390 . S
C1310 C1309 1.390 . S
C1310 C1311 1.394 . S
C1310 C1316 1.465 . S
C1311 C1306 1.399 . S
C1311 C1310 1.394 . S
C1311 C1312 1.516 . S
C1312 C1311 1.516 . S
C1312 C1313 1.502 . S
C1312 C1314 1.561 . S
C1312 C1315 1.526 . S
C1313 H1297 0.959 . S
C1313 H1298 0.959 . S
C1313 H1299 0.961 . S
C1313 C1312 1.502 . S
C1314 H1300 0.960 . S
C1314 H1301 0.961 . S
C1314 H1302 0.959 . S
C1314 C1312 1.561 . S
C1315 C1312 1.526 . S
C1315 C1316 1.396 . S
C1315 C1320 1.390 . S
C1316 C1310 1.465 . S
C1316 C1315 1.396 . S
C1316 C1317 1.399 . S
C1317 H1303 0.929 . S
C1317 C1316 1.399 . S
C1317 C1318 1.385 . S
C1318 H1304 0.931 . S
C1318 C1317 1.385 . S
C1318 C1319 1.389 . S
C1319 C1318 1.389 . S
C1319 C1320 1.387 . S
C1320 H1305 0.930 . S
C1320 C1315 1.390 . S
C1320 C1319 1.387 . S
H1321 C1333 0.930 . S
H1322 C1335 0.930 . S
H1323 C1336 0.930 . S
H1324 C1340 0.959 . S
H1325 C1340 0.959 . S
H1326 C1340 0.961 . S
H1327 C1341 0.960 . S
H1328 C1341 0.961 . S
H1329 C1341 0.959 . S
H1330 C1344 0.929 . S
H1331 C1345 0.931 . S
H1332 C1347 0.930 . S
C1333 H1321 0.930 . S
C1333 C1334 1.399 . S
C1333 C1338 1.399 . S
C1334 C1333 1.399 . S
C1334 C1335 1.376 . S
C1335 H1322 0.930 . S
C1335 C1334 1.376 . S
C1335 C1336 1.388 . S
C1336 H1323 0.930 . S
C1336 C1335 1.388 . S
C1336 C1337 1.390 . S
C1337 C1336 1.390 . S
C1337 C1338 1.394 . S
C1337 C1343 1.465 . S
C1338 C1333 1.399 . S
C1338 C1337 1.394 . S
C1338 C1339 1.516 . S
C1339 C1338 1.516 . S
C1339 C1340 1.502 . S
C1339 C1341 1.561 . S
C1339 C1342 1.526 . S
C1340 H1324 0.959 . S
C1340 H1325 0.959 . S
C1340 H1326 0.961 . S
C1340 C1339 1.502 . S
C1341 H1327 0.960 . S
C1341 H1328 0.961 . S
C1341 H1329 0.959 . S
C1341 C1339 1.561 . S
C1342 C1339 1.526 . S
C1342 C1343 1.396 . S
C1342 C1347 1.390 . S
C1343 C1337 1.465 . S
C1343 C1342 1.396 . S
C1343 C1344 1.399 . S
C1344 H1330 0.929 . S
C1344 C1343 1.399 . S
C1344 C1345 1.385 . S
C1345 H1331 0.931 . S
C1345 C1344 1.385 . S
C1345 C1346 1.389 . S
C1346 C1345 1.389 . S
C1346 C1347 1.387 . S
C1347 H1332 0.930 . S
C1347 C1342 1.390 . S
C1347 C1346 1.387 . S
H1348 C1360 0.930 . S
H1349 C1362 0.930 . S
H1350 C1363 0.930 . S
H1351 C1367 0.959 . S
H1352 C1367 0.959 . S
H1353 C1367 0.961 . S
H1354 C1368 0.960 . S
H1355 C1368 0.961 . S
H1356 C1368 0.959 . S
H1357 C1371 0.929 . S
H1358 C1372 0.931 . S
H1359 C1374 0.930 . S
C1360 H1348 0.930 . S
C1360 C1361 1.399 . S
C1360 C1365 1.399 . S
C1361 C1360 1.399 . S
C1361 C1362 1.376 . S
C1362 H1349 0.930 . S
C1362 C1361 1.376 . S
C1362 C1363 1.388 . S
C1363 H1350 0.930 . S
C1363 C1362 1.388 . S
C1363 C1364 1.390 . S
C1364 C1363 1.390 . S
C1364 C1365 1.394 . S
C1364 C1370 1.465 . S
C1365 C1360 1.399 . S
C1365 C1364 1.394 . S
C1365 C1366 1.516 . S
C1366 C1365 1.516 . S
C1366 C1367 1.502 . S
C1366 C1368 1.561 . S
C1366 C1369 1.526 . S
C1367 H1351 0.959 . S
C1367 H1352 0.959 . S
C1367 H1353 0.961 . S
C1367 C1366 1.502 . S
C1368 H1354 0.960 . S
C1368 H1355 0.961 . S
C1368 H1356 0.959 . S
C1368 C1366 1.561 . S
C1369 C1366 1.526 . S
C1369 C1370 1.396 . S
C1369 C1374 1.390 . S
C1370 C1364 1.465 . S
C1370 C1369 1.396 . S
C1370 C1371 1.399 . S
C1371 H1357 0.929 . S
C1371 C1370 1.399 . S
C1371 C1372 1.385 . S
C1372 H1358 0.931 . S
C1372 C1371 1.385 . S
C1372 C1373 1.389 . S
C1373 C1372 1.389 . S
C1373 C1374 1.387 . S
C1374 H1359 0.930 . S
C1374 C1369 1.390 . S
C1374 C1373 1.387 . S
H1375 C1387 0.930 . S
H1376 C1389 0.930 . S
H1377 C1390 0.930 . S
H1378 C1394 0.959 . S
H1379 C1394 0.959 . S
H1380 C1394 0.961 . S
H1381 C1395 0.960 . S
H1382 C1395 0.961 . S
H1383 C1395 0.959 . S
H1384 C1398 0.929 . S
H1385 C1399 0.931 . S
H1386 C1401 0.930 . S
C1387 H1375 0.930 . S
C1387 C1388 1.399 . S
C1387 C1392 1.399 . S
C1388 C1387 1.399 . S
C1388 C1389 1.376 . S
C1389 H1376 0.930 . S
C1389 C1388 1.376 . S
C1389 C1390 1.388 . S
C1390 H1377 0.930 . S
C1390 C1389 1.388 . S
C1390 C1391 1.390 . S
C1391 C1390 1.390 . S
C1391 C1392 1.394 . S
C1391 C1397 1.465 . S
C1392 C1387 1.399 . S
C1392 C1391 1.394 . S
C1392 C1393 1.516 . S
C1393 C1392 1.516 . S
C1393 C1394 1.502 . S
C1393 C1395 1.561 . S
C1393 C1396 1.526 . S
C1394 H1378 0.959 . S
C1394 H1379 0.959 . S
C1394 H1380 0.961 . S
C1394 C1393 1.502 . S
C1395 H1381 0.960 . S
C1395 H1382 0.961 . S
C1395 H1383 0.959 . S
C1395 C1393 1.561 . S
C1396 C1393 1.526 . S
C1396 C1397 1.396 . S
C1396 C1401 1.390 . S
C1397 C1391 1.465 . S
C1397 C1396 1.396 . S
C1397 C1398 1.399 . S
C1398 H1384 0.929 . S
C1398 C1397 1.399 . S
C1398 C1399 1.385 . S
C1399 H1385 0.931 . S
C1399 C1398 1.385 . S
C1399 C1400 1.389 . S
C1400 C1399 1.389 . S
C1400 C1401 1.387 . S
C1401 H1386 0.930 . S
C1401 C1396 1.390 . S
C1401 C1400 1.387 . S
H1402 C1414 0.930 . S
H1403 C1416 0.930 . S
H1404 C1417 0.930 . S
H1405 C1421 0.959 . S
H1406 C1421 0.959 . S
H1407 C1421 0.961 . S
H1408 C1422 0.960 . S
H1409 C1422 0.961 . S
H1410 C1422 0.959 . S
H1411 C1425 0.929 . S
H1412 C1426 0.931 . S
H1413 C1428 0.930 . S
C1414 H1402 0.930 . S
C1414 C1415 1.399 . S
C1414 C1419 1.399 . S
C1415 C1414 1.399 . S
C1415 C1416 1.376 . S
C1416 H1403 0.930 . S
C1416 C1415 1.376 . S
C1416 C1417 1.388 . S
C1417 H1404 0.930 . S
C1417 C1416 1.388 . S
C1417 C1418 1.390 . S
C1418 C1417 1.390 . S
C1418 C1419 1.394 . S
C1418 C1424 1.465 . S
C1419 C1414 1.399 . S
C1419 C1418 1.394 . S
C1419 C1420 1.516 . S
C1420 C1419 1.516 . S
C1420 C1421 1.502 . S
C1420 C1422 1.561 . S
C1420 C1423 1.526 . S
C1421 H1405 0.959 . S
C1421 H1406 0.959 . S
C1421 H1407 0.961 . S
C1421 C1420 1.502 . S
C1422 H1408 0.960 . S
C1422 H1409 0.961 . S
C1422 H1410 0.959 . S
C1422 C1420 1.561 . S
C1423 C1420 1.526 . S
C1423 C1424 1.396 . S
C1423 C1428 1.390 . S
C1424 C1418 1.465 . S
C1424 C1423 1.396 . S
C1424 C1425 1.399 . S
C1425 H1411 0.929 . S
C1425 C1424 1.399 . S
C1425 C1426 1.385 . S
C1426 H1412 0.931 . S
C1426 C1425 1.385 . S
C1426 C1427 1.389 . S
C1427 C1426 1.389 . S
C1427 C1428 1.387 . S
C1428 H1413 0.930 . S
C1428 C1423 1.390 . S
C1428 C1427 1.387 . S
H1429 C1441 0.930 . S
H1430 C1443 0.930 . S
H1431 C1444 0.930 . S
H1432 C1448 0.959 . S
H1433 C1448 0.959 . S
H1434 C1448 0.961 . S
H1435 C1449 0.960 . S
H1436 C1449 0.961 . S
H1437 C1449 0.959 . S
H1438 C1452 0.929 . S
H1439 C1453 0.931 . S
H1440 C1455 0.930 . S
C1441 H1429 0.930 . S
C1441 C1442 1.399 . S
C1441 C1446 1.399 . S
C1442 C1441 1.399 . S
C1442 C1443 1.376 . S
C1443 H1430 0.930 . S
C1443 C1442 1.376 . S
C1443 C1444 1.388 . S
C1444 H1431 0.930 . S
C1444 C1443 1.388 . S
C1444 C1445 1.390 . S
C1445 C1444 1.390 . S
C1445 C1446 1.394 . S
C1445 C1451 1.465 . S
C1446 C1441 1.399 . S
C1446 C1445 1.394 . S
C1446 C1447 1.516 . S
C1447 C1446 1.516 . S
C1447 C1448 1.502 . S
C1447 C1449 1.561 . S
C1447 C1450 1.526 . S
C1448 H1432 0.959 . S
C1448 H1433 0.959 . S
C1448 H1434 0.961 . S
C1448 C1447 1.502 . S
C1449 H1435 0.960 . S
C1449 H1436 0.961 . S
C1449 H1437 0.959 . S
C1449 C1447 1.561 . S
C1450 C1447 1.526 . S
C1450 C1451 1.396 . S
C1450 C1455 1.390 . S
C1451 C1445 1.465 . S
C1451 C1450 1.396 . S
C1451 C1452 1.399 . S
C1452 H1438 0.929 . S
C1452 C1451 1.399 . S
C1452 C1453 1.385 . S
C1453 H1439 0.931 . S
C1453 C1452 1.385 . S
C1453 C1454 1.389 . S
C1454 C1453 1.389 . S
C1454 C1455 1.387 . S
C1455 H1440 0.930 . S
C1455 C1450 1.390 . S
C1455 C1454 1.387 . S
H1456 C1468 0.930 . S
H1457 C1470 0.930 . S
H1458 C1471 0.930 . S
H1459 C1475 0.959 . S
H1460 C1475 0.959 . S
H1461 C1475 0.961 . S
H1462 C1476 0.960 . S
H1463 C1476 0.961 . S
H1464 C1476 0.959 . S
H1465 C1479 0.929 . S
H1466 C1480 0.931 . S
H1467 C1482 0.930 . S
C1468 H1456 0.930 . S
C1468 C1469 1.399 . S
C1468 C1473 1.399 . S
C1469 C1468 1.399 . S
C1469 C1470 1.376 . S
C1470 H1457 0.930 . S
C1470 C1469 1.376 . S
C1470 C1471 1.388 . S
C1471 H1458 0.930 . S
C1471 C1470 1.388 . S
C1471 C1472 1.390 . S
C1472 C1471 1.390 . S
C1472 C1473 1.394 . S
C1472 C1478 1.465 . S
C1473 C1468 1.399 . S
C1473 C1472 1.394 . S
C1473 C1474 1.516 . S
C1474 C1473 1.516 . S
C1474 C1475 1.502 . S
C1474 C1476 1.561 . S
C1474 C1477 1.526 . S
C1475 H1459 0.959 . S
C1475 H1460 0.959 . S
C1475 H1461 0.961 . S
C1475 C1474 1.502 . S
C1476 H1462 0.960 . S
C1476 H1463 0.961 . S
C1476 H1464 0.959 . S
C1476 C1474 1.561 . S
C1477 C1474 1.526 . S
C1477 C1478 1.396 . S
C1477 C1482 1.390 . S
C1478 C1472 1.465 . S
C1478 C1477 1.396 . S
C1478 C1479 1.399 . S
C1479 H1465 0.929 . S
C1479 C1478 1.399 . S
C1479 C1480 1.385 . S
C1480 H1466 0.931 . S
C1480 C1479 1.385 . S
C1480 C1481 1.389 . S
C1481 C1480 1.389 . S
C1481 C1482 1.387 . S
C1482 H1467 0.930 . S
C1482 C1477 1.390 . S
C1482 C1481 1.387 . S
H1483 C1495 0.930 . S
H1484 C1497 0.930 . S
H1485 C1498 0.930 . S
H1486 C1502 0.959 . S
H1487 C1502 0.959 . S
H1488 C1502 0.961 . S
H1489 C1503 0.960 . S
H1490 C1503 0.961 . S
H1491 C1503 0.959 . S
H1492 C1506 0.929 . S
H1493 C1507 0.931 . S
H1494 C1509 0.930 . S
C1495 H1483 0.930 . S
C1495 C1496 1.399 . S
C1495 C1500 1.399 . S
C1496 C1495 1.399 . S
C1496 C1497 1.376 . S
C1497 H1484 0.930 . S
C1497 C1496 1.376 . S
C1497 C1498 1.388 . S
C1498 H1485 0.930 . S
C1498 C1497 1.388 . S
C1498 C1499 1.390 . S
C1499 C1498 1.390 . S
C1499 C1500 1.394 . S
C1499 C1505 1.465 . S
C1500 C1495 1.399 . S
C1500 C1499 1.394 . S
C1500 C1501 1.516 . S
C1501 C1500 1.516 . S
C1501 C1502 1.502 . S
C1501 C1503 1.561 . S
C1501 C1504 1.526 . S
C1502 H1486 0.959 . S
C1502 H1487 0.959 . S
C1502 H1488 0.961 . S
C1502 C1501 1.502 . S
C1503 H1489 0.960 . S
C1503 H1490 0.961 . S
C1503 H1491 0.959 . S
C1503 C1501 1.561 . S
C1504 C1501 1.526 . S
C1504 C1505 1.396 . S
C1504 C1509 1.390 . S
C1505 C1499 1.465 . S
C1505 C1504 1.396 . S
C1505 C1506 1.399 . S
C1506 H1492 0.929 . S
C1506 C1505 1.399 . S
C1506 C1507 1.385 . S
C1507 H1493 0.931 . S
C1507 C1506 1.385 . S
C1507 C1508 1.389 . S
C1508 C1507 1.389 . S
C1508 C1509 1.387 . S
C1509 H1494 0.930 . S
C1509 C1504 1.390 . S
C1509 C1508 1.387 . S
H1510 C1522 0.930 . S
H1511 C1524 0.930 . S
H1512 C1525 0.930 . S
H1513 C1529 0.959 . S
H1514 C1529 0.959 . S
H1515 C1529 0.961 . S
H1516 C1530 0.960 . S
H1517 C1530 0.961 . S
H1518 C1530 0.959 . S
H1519 C1533 0.929 . S
H1520 C1534 0.931 . S
H1521 C1536 0.930 . S
C1522 H1510 0.930 . S
C1522 C1523 1.399 . S
C1522 C1527 1.399 . S
C1523 C1522 1.399 . S
C1523 C1524 1.376 . S
C1524 H1511 0.930 . S
C1524 C1523 1.376 . S
C1524 C1525 1.388 . S
C1525 H1512 0.930 . S
C1525 C1524 1.388 . S
C1525 C1526 1.390 . S
C1526 C1525 1.390 . S
C1526 C1527 1.394 . S
C1526 C1532 1.465 . S
C1527 C1522 1.399 . S
C1527 C1526 1.394 . S
C1527 C1528 1.516 . S
C1528 C1527 1.516 . S
C1528 C1529 1.502 . S
C1528 C1530 1.561 . S
C1528 C1531 1.526 . S
C1529 H1513 0.959 . S
C1529 H1514 0.959 . S
C1529 H1515 0.961 . S
C1529 C1528 1.502 . S
C1530 H1516 0.960 . S
C1530 H1517 0.961 . S
C1530 H1518 0.959 . S
C1530 C1528 1.561 . S
C1531 C1528 1.526 . S
C1531 C1532 1.396 . S
C1531 C1536 1.390 . S
C1532 C1526 1.465 . S
C1532 C1531 1.396 . S
C1532 C1533 1.399 . S
C1533 H1519 0.929 . S
C1533 C1532 1.399 . S
C1533 C1534 1.385 . S
C1534 H1520 0.931 . S
C1534 C1533 1.385 . S
C1534 C1535 1.389 . S
C1535 C1534 1.389 . S
C1535 C1536 1.387 . S
C1536 H1521 0.930 . S
C1536 C1531 1.390 . S
C1536 C1535 1.387 . S
H1537 C1549 0.930 . S
H1538 C1551 0.930 . S
H1539 C1552 0.930 . S
H1540 C1556 0.959 . S
H1541 C1556 0.959 . S
H1542 C1556 0.961 . S
H1543 C1557 0.960 . S
H1544 C1557 0.961 . S
H1545 C1557 0.959 . S
H1546 C1560 0.929 . S
H1547 C1561 0.931 . S
H1548 C1563 0.930 . S
C1549 H1537 0.930 . S
C1549 C1550 1.399 . S
C1549 C1554 1.399 . S
C1550 C1549 1.399 . S
C1550 C1551 1.376 . S
C1551 H1538 0.930 . S
C1551 C1550 1.376 . S
C1551 C1552 1.388 . S
C1552 H1539 0.930 . S
C1552 C1551 1.388 . S
C1552 C1553 1.390 . S
C1553 C1552 1.390 . S
C1553 C1554 1.394 . S
C1553 C1559 1.465 . S
C1554 C1549 1.399 . S
C1554 C1553 1.394 . S
C1554 C1555 1.516 . S
C1555 C1554 1.516 . S
C1555 C1556 1.502 . S
C1555 C1557 1.561 . S
C1555 C1558 1.526 . S
C1556 H1540 0.959 . S
C1556 H1541 0.959 . S
C1556 H1542 0.961 . S
C1556 C1555 1.502 . S
C1557 H1543 0.960 . S
C1557 H1544 0.961 . S
C1557 H1545 0.959 . S
C1557 C1555 1.561 . S
C1558 C1555 1.526 . S
C1558 C1559 1.396 . S
C1558 C1563 1.390 . S
C1559 C1553 1.465 . S
C1559 C1558 1.396 . S
C1559 C1560 1.399 . S
C1560 H1546 0.929 . S
C1560 C1559 1.399 . S
C1560 C1561 1.385 . S
C1561 H1547 0.931 . S
C1561 C1560 1.385 . S
C1561 C1562 1.389 . S
C1562 C1561 1.389 . S
C1562 C1563 1.387 . S
C1563 H1548 0.930 . S
C1563 C1558 1.390 . S
C1563 C1562 1.387 . S
H1564 C1576 0.930 . S
H1565 C1578 0.930 . S
H1566 C1579 0.930 . S
H1567 C1583 0.959 . S
H1568 C1583 0.959 . S
H1569 C1583 0.961 . S
H1570 C1584 0.960 . S
H1571 C1584 0.961 . S
H1572 C1584 0.959 . S
H1573 C1587 0.929 . S
H1574 C1588 0.931 . S
H1575 C1590 0.930 . S
C1576 H1564 0.930 . S
C1576 C1577 1.399 . S
C1576 C1581 1.399 . S
C1577 C1576 1.399 . S
C1577 C1578 1.376 . S
C1578 H1565 0.930 . S
C1578 C1577 1.376 . S
C1578 C1579 1.388 . S
C1579 H1566 0.930 . S
C1579 C1578 1.388 . S
C1579 C1580 1.390 . S
C1580 C1579 1.390 . S
C1580 C1581 1.394 . S
C1580 C1586 1.465 . S
C1581 C1576 1.399 . S
C1581 C1580 1.394 . S
C1581 C1582 1.516 . S
C1582 C1581 1.516 . S
C1582 C1583 1.502 . S
C1582 C1584 1.561 . S
C1582 C1585 1.526 . S
C1583 H1567 0.959 . S
C1583 H1568 0.959 . S
C1583 H1569 0.961 . S
C1583 C1582 1.502 . S
C1584 H1570 0.960 . S
C1584 H1571 0.961 . S
C1584 H1572 0.959 . S
C1584 C1582 1.561 . S
C1585 C1582 1.526 . S
C1585 C1586 1.396 . S
C1585 C1590 1.390 . S
C1586 C1580 1.465 . S
C1586 C1585 1.396 . S
C1586 C1587 1.399 . S
C1587 H1573 0.929 . S
C1587 C1586 1.399 . S
C1587 C1588 1.385 . S
C1588 H1574 0.931 . S
C1588 C1587 1.385 . S
C1588 C1589 1.389 . S
C1589 C1588 1.389 . S
C1589 C1590 1.387 . S
C1590 H1575 0.930 . S
C1590 C1585 1.390 . S
C1590 C1589 1.387 . S
H1591 C1603 0.930 . S
H1592 C1605 0.930 . S
H1593 C1606 0.930 . S
H1594 C1610 0.959 . S
H1595 C1610 0.959 . S
H1596 C1610 0.961 . S
H1597 C1611 0.960 . S
H1598 C1611 0.961 . S
H1599 C1611 0.959 . S
H1600 C1614 0.929 . S
H1601 C1615 0.931 . S
H1602 C1617 0.930 . S
C1603 H1591 0.930 . S
C1603 C1604 1.399 . S
C1603 C1608 1.399 . S
C1604 C1603 1.399 . S
C1604 C1605 1.376 . S
C1605 H1592 0.930 . S
C1605 C1604 1.376 . S
C1605 C1606 1.388 . S
C1606 H1593 0.930 . S
C1606 C1605 1.388 . S
C1606 C1607 1.390 . S
C1607 C1606 1.390 . S
C1607 C1608 1.394 . S
C1607 C1613 1.465 . S
C1608 C1603 1.399 . S
C1608 C1607 1.394 . S
C1608 C1609 1.516 . S
C1609 C1608 1.516 . S
C1609 C1610 1.502 . S
C1609 C1611 1.561 . S
C1609 C1612 1.526 . S
C1610 H1594 0.959 . S
C1610 H1595 0.959 . S
C1610 H1596 0.961 . S
C1610 C1609 1.502 . S
C1611 H1597 0.960 . S
C1611 H1598 0.961 . S
C1611 H1599 0.959 . S
C1611 C1609 1.561 . S
C1612 C1609 1.526 . S
C1612 C1613 1.396 . S
C1612 C1617 1.390 . S
C1613 C1607 1.465 . S
C1613 C1612 1.396 . S
C1613 C1614 1.399 . S
C1614 H1600 0.929 . S
C1614 C1613 1.399 . S
C1614 C1615 1.385 . S
C1615 H1601 0.931 . S
C1615 C1614 1.385 . S
C1615 C1616 1.389 . S
C1616 C1615 1.389 . S
C1616 C1617 1.387 . S
C1617 H1602 0.930 . S
C1617 C1612 1.390 . S
C1617 C1616 1.387 . S
H1618 C1630 0.930 . S
H1619 C1632 0.930 . S
H1620 C1633 0.930 . S
H1621 C1637 0.959 . S
H1622 C1637 0.959 . S
H1623 C1637 0.961 . S
H1624 C1638 0.960 . S
H1625 C1638 0.961 . S
H1626 C1638 0.959 . S
H1627 C1641 0.929 . S
H1628 C1642 0.931 . S
H1629 C1644 0.930 . S
C1630 H1618 0.930 . S
C1630 C1631 1.399 . S
C1630 C1635 1.399 . S
C1631 C1630 1.399 . S
C1631 C1632 1.376 . S
C1632 H1619 0.930 . S
C1632 C1631 1.376 . S
C1632 C1633 1.388 . S
C1633 H1620 0.930 . S
C1633 C1632 1.388 . S
C1633 C1634 1.390 . S
C1634 C1633 1.390 . S
C1634 C1635 1.394 . S
C1634 C1640 1.465 . S
C1635 C1630 1.399 . S
C1635 C1634 1.394 . S
C1635 C1636 1.516 . S
C1636 C1635 1.516 . S
C1636 C1637 1.502 . S
C1636 C1638 1.561 . S
C1636 C1639 1.526 . S
C1637 H1621 0.959 . S
C1637 H1622 0.959 . S
C1637 H1623 0.961 . S
C1637 C1636 1.502 . S
C1638 H1624 0.960 . S
C1638 H1625 0.961 . S
C1638 H1626 0.959 . S
C1638 C1636 1.561 . S
C1639 C1636 1.526 . S
C1639 C1640 1.396 . S
C1639 C1644 1.390 . S
C1640 C1634 1.465 . S
C1640 C1639 1.396 . S
C1640 C1641 1.399 . S
C1641 H1627 0.929 . S
C1641 C1640 1.399 . S
C1641 C1642 1.385 . S
C1642 H1628 0.931 . S
C1642 C1641 1.385 . S
C1642 C1643 1.389 . S
C1643 C1642 1.389 . S
C1643 C1644 1.387 . S
C1644 H1629 0.930 . S
C1644 C1639 1.390 . S
C1644 C1643 1.387 . S
H1645 C1657 0.930 . S
H1646 C1659 0.930 . S
H1647 C1660 0.930 . S
H1648 C1664 0.959 . S
H1649 C1664 0.959 . S
H1650 C1664 0.961 . S
H1651 C1665 0.960 . S
H1652 C1665 0.961 . S
H1653 C1665 0.959 . S
H1654 C1668 0.929 . S
H1655 C1669 0.931 . S
H1656 C1671 0.930 . S
C1657 H1645 0.930 . S
C1657 C1658 1.399 . S
C1657 C1662 1.399 . S
C1658 C1657 1.399 . S
C1658 C1659 1.376 . S
C1659 H1646 0.930 . S
C1659 C1658 1.376 . S
C1659 C1660 1.388 . S
C1660 H1647 0.930 . S
C1660 C1659 1.388 . S
C1660 C1661 1.390 . S
C1661 C1660 1.390 . S
C1661 C1662 1.394 . S
C1661 C1667 1.465 . S
C1662 C1657 1.399 . S
C1662 C1661 1.394 . S
C1662 C1663 1.516 . S
C1663 C1662 1.516 . S
C1663 C1664 1.502 . S
C1663 C1665 1.561 . S
C1663 C1666 1.526 . S
C1664 H1648 0.959 . S
C1664 H1649 0.959 . S
C1664 H1650 0.961 . S
C1664 C1663 1.502 . S
C1665 H1651 0.960 . S
C1665 H1652 0.961 . S
C1665 H1653 0.959 . S
C1665 C1663 1.561 . S
C1666 C1663 1.526 . S
C1666 C1667 1.396 . S
C1666 C1671 1.390 . S
C1667 C1661 1.465 . S
C1667 C1666 1.396 . S
C1667 C1668 1.399 . S
C1668 H1654 0.929 . S
C1668 C1667 1.399 . S
C1668 C1669 1.385 . S
C1669 H1655 0.931 . S
C1669 C1668 1.385 . S
C1669 C1670 1.389 . S
C1670 C1669 1.389 . S
C1670 C1671 1.387 . S
C1671 H1656 0.930 . S
C1671 C1666 1.390 . S
C1671 C1670 1.387 . S
H1672 C1684 0.930 . S
H1673 C1686 0.930 . S
H1674 C1687 0.930 . S
H1675 C1691 0.959 . S
H1676 C1691 0.959 . S
H1677 C1691 0.961 . S
H1678 C1692 0.960 . S
H1679 C1692 0.961 . S
H1680 C1692 0.959 . S
H1681 C1695 0.929 . S
H1682 C1696 0.931 . S
H1683 C1698 0.930 . S
C1684 H1672 0.930 . S
C1684 C1685 1.399 . S
C1684 C1689 1.399 . S
C1685 C1684 1.399 . S
C1685 C1686 1.376 . S
C1686 H1673 0.930 . S
C1686 C1685 1.376 . S
C1686 C1687 1.388 . S
C1687 H1674 0.930 . S
C1687 C1686 1.388 . S
C1687 C1688 1.390 . S
C1688 C1687 1.390 . S
C1688 C1689 1.394 . S
C1688 C1694 1.465 . S
C1689 C1684 1.399 . S
C1689 C1688 1.394 . S
C1689 C1690 1.516 . S
C1690 C1689 1.516 . S
C1690 C1691 1.502 . S
C1690 C1692 1.561 . S
C1690 C1693 1.526 . S
C1691 H1675 0.959 . S
C1691 H1676 0.959 . S
C1691 H1677 0.961 . S
C1691 C1690 1.502 . S
C1692 H1678 0.960 . S
C1692 H1679 0.961 . S
C1692 H1680 0.959 . S
C1692 C1690 1.561 . S
C1693 C1690 1.526 . S
C1693 C1694 1.396 . S
C1693 C1698 1.390 . S
C1694 C1688 1.465 . S
C1694 C1693 1.396 . S
C1694 C1695 1.399 . S
C1695 H1681 0.929 . S
C1695 C1694 1.399 . S
C1695 C1696 1.385 . S
C1696 H1682 0.931 . S
C1696 C1695 1.385 . S
C1696 C1697 1.389 . S
C1697 C1696 1.389 . S
C1697 C1698 1.387 . S
C1698 H1683 0.930 . S
C1698 C1693 1.390 . S
C1698 C1697 1.387 . S
H1699 C1711 0.930 . S
H1700 C1713 0.930 . S
H1701 C1714 0.930 . S
H1702 C1718 0.959 . S
H1703 C1718 0.959 . S
H1704 C1718 0.961 . S
H1705 C1719 0.960 . S
H1706 C1719 0.961 . S
H1707 C1719 0.959 . S
H1708 C1722 0.929 . S
H1709 C1723 0.931 . S
H1710 C1725 0.930 . S
C1711 H1699 0.930 . S
C1711 C1712 1.399 . S
C1711 C1716 1.399 . S
C1712 C1711 1.399 . S
C1712 C1713 1.376 . S
C1713 H1700 0.930 . S
C1713 C1712 1.376 . S
C1713 C1714 1.388 . S
C1714 H1701 0.930 . S
C1714 C1713 1.388 . S
C1714 C1715 1.390 . S
C1715 C1714 1.390 . S
C1715 C1716 1.394 . S
C1715 C1721 1.465 . S
C1716 C1711 1.399 . S
C1716 C1715 1.394 . S
C1716 C1717 1.516 . S
C1717 C1716 1.516 . S
C1717 C1718 1.502 . S
C1717 C1719 1.561 . S
C1717 C1720 1.526 . S
C1718 H1702 0.959 . S
C1718 H1703 0.959 . S
C1718 H1704 0.961 . S
C1718 C1717 1.502 . S
C1719 H1705 0.960 . S
C1719 H1706 0.961 . S
C1719 H1707 0.959 . S
C1719 C1717 1.561 . S
C1720 C1717 1.526 . S
C1720 C1721 1.396 . S
C1720 C1725 1.390 . S
C1721 C1715 1.465 . S
C1721 C1720 1.396 . S
C1721 C1722 1.399 . S
C1722 H1708 0.929 . S
C1722 C1721 1.399 . S
C1722 C1723 1.385 . S
C1723 H1709 0.931 . S
C1723 C1722 1.385 . S
C1723 C1724 1.389 . S
C1724 C1723 1.389 . S
C1724 C1725 1.387 . S
C1725 H1710 0.930 . S
C1725 C1720 1.390 . S
C1725 C1724 1.387 . S
H1726 C1738 0.930 . S
H1727 C1740 0.930 . S
H1728 C1741 0.930 . S
H1729 C1745 0.959 . S
H1730 C1745 0.959 . S
H1731 C1745 0.961 . S
H1732 C1746 0.960 . S
H1733 C1746 0.961 . S
H1734 C1746 0.959 . S
H1735 C1749 0.929 . S
H1736 C1750 0.931 . S
H1737 C1752 0.930 . S
C1738 H1726 0.930 . S
C1738 C1739 1.399 . S
C1738 C1743 1.399 . S
C1739 C1738 1.399 . S
C1739 C1740 1.376 . S
C1740 H1727 0.930 . S
C1740 C1739 1.376 . S
C1740 C1741 1.388 . S
C1741 H1728 0.930 . S
C1741 C1740 1.388 . S
C1741 C1742 1.390 . S
C1742 C1741 1.390 . S
C1742 C1743 1.394 . S
C1742 C1748 1.465 . S
C1743 C1738 1.399 . S
C1743 C1742 1.394 . S
C1743 C1744 1.516 . S
C1744 C1743 1.516 . S
C1744 C1745 1.502 . S
C1744 C1746 1.561 . S
C1744 C1747 1.526 . S
C1745 H1729 0.959 . S
C1745 H1730 0.959 . S
C1745 H1731 0.961 . S
C1745 C1744 1.502 . S
C1746 H1732 0.960 . S
C1746 H1733 0.961 . S
C1746 H1734 0.959 . S
C1746 C1744 1.561 . S
C1747 C1744 1.526 . S
C1747 C1748 1.396 . S
C1747 C1752 1.390 . S
C1748 C1742 1.465 . S
C1748 C1747 1.396 . S
C1748 C1749 1.399 . S
C1749 H1735 0.929 . S
C1749 C1748 1.399 . S
C1749 C1750 1.385 . S
C1750 H1736 0.931 . S
C1750 C1749 1.385 . S
C1750 C1751 1.389 . S
C1751 C1750 1.389 . S
C1751 C1752 1.387 . S
C1752 H1737 0.930 . S
C1752 C1747 1.390 . S
C1752 C1751 1.387 . S
H1753 C1765 0.930 . S
H1754 C1767 0.930 . S
H1755 C1768 0.930 . S
H1756 C1772 0.959 . S
H1757 C1772 0.959 . S
H1758 C1772 0.961 . S
H1759 C1773 0.960 . S
H1760 C1773 0.961 . S
H1761 C1773 0.959 . S
H1762 C1776 0.929 . S
H1763 C1777 0.931 . S
H1764 C1779 0.930 . S
C1765 H1753 0.930 . S
C1765 C1766 1.399 . S
C1765 C1770 1.399 . S
C1766 C1765 1.399 . S
C1766 C1767 1.376 . S
C1767 H1754 0.930 . S
C1767 C1766 1.376 . S
C1767 C1768 1.388 . S
C1768 H1755 0.930 . S
C1768 C1767 1.388 . S
C1768 C1769 1.390 . S
C1769 C1768 1.390 . S
C1769 C1770 1.394 . S
C1769 C1775 1.465 . S
C1770 C1765 1.399 . S
C1770 C1769 1.394 . S
C1770 C1771 1.516 . S
C1771 C1770 1.516 . S
C1771 C1772 1.502 . S
C1771 C1773 1.561 . S
C1771 C1774 1.526 . S
C1772 H1756 0.959 . S
C1772 H1757 0.959 . S
C1772 H1758 0.961 . S
C1772 C1771 1.502 . S
C1773 H1759 0.960 . S
C1773 H1760 0.961 . S
C1773 H1761 0.959 . S
C1773 C1771 1.561 . S
C1774 C1771 1.526 . S
C1774 C1775 1.396 . S
C1774 C1779 1.390 . S
C1775 C1769 1.465 . S
C1775 C1774 1.396 . S
C1775 C1776 1.399 . S
C1776 H1762 0.929 . S
C1776 C1775 1.399 . S
C1776 C1777 1.385 . S
C1777 H1763 0.931 . S
C1777 C1776 1.385 . S
C1777 C1778 1.389 . S
C1778 C1777 1.389 . S
C1778 C1779 1.387 . S
C1779 H1764 0.930 . S
C1779 C1774 1.390 . S
C1779 C1778 1.387 . S
C509 C195 1.324 . S
C497 C9 1.347 . S
C536 C173 1.464 . S
C524 C22 1.538 . S
C563 C170 0.559 . S
C551 C49 0.535 . S
C578 C61 1.519 . S
C590 C182 1.447 . S
C605 C81 1.496 . S
C617 C165 1.427 . S
C644 C187 0.614 . S
C632 C108 0.648 . S
C659 C122 1.528 . S
C671 C192 1.452 . S
C686 C148 1.347 . S
C698 C188 1.325 . S
C725 C246 2.310 . S
C713 C18 2.357 . S
C740 C39 1.314 . S
C752 C296 1.297 . S
C779 C219 2.345 . S
C767 C58 2.337 . S
C806 C295 0.629 . S
C794 C69 0.669 . S
C821 C89 0.671 . S
C833 C224 0.599 . S
C860 C290 1.508 . S
C848 C102 1.489 . S
C875 C139 1.319 . S
C887 C249 1.293 . S
C902 C142 1.540 . S
C914 C281 1.449 . S
C929 C1 1.555 . S
C941 C273 1.445 . S
C956 C98 1.322 . S
C968 C303 1.294 . S
C995 C227 2.318 . S
C983 C119 2.374 . S
C1022 C278 0.603 . S
C1010 C128 0.583 . S
C1037 C159 2.332 . S
C1049 C236 2.360 . S
C1064 C41 1.548 . S
C1076 C300 1.446 . S
C1103 C242 1.308 . S
C1091 C78 1.301 . S
C1118 C28 0.563 . S
C1130 C241 0.606 . S
C1145 C149 1.344 . S
C1157 C357 1.321 . S
C1172 C82 1.482 . S
C1184 C335 1.485 . S
C1211 C332 0.551 . S
C1199 C109 0.573 . S
C1238 C344 1.495 . S
C1226 C121 1.549 . S
C1253 C21 1.535 . S
C1265 C327 1.478 . S
C1292 C349 0.531 . S
C1280 C48 0.541 . S
C1307 C62 1.539 . S
C1319 C354 1.526 . S
C1334 C8 1.306 . S
C1346 C350 1.325 . S
C1361 C158 2.365 . S
C1373 C408 2.312 . S
C1400 C458 1.337 . S
C1388 C99 1.248 . S
C1415 C118 2.359 . S
C1427 C381 2.301 . S
C1442 C129 0.598 . S
C1454 C457 0.589 . S
C1481 C386 0.593 . S
C1469 C29 0.649 . S
C1496 C42 1.512 . S
C1508 C452 1.483 . S
C1535 C411 1.350 . S
C1523 C79 1.227 . S
C1562 C443 1.475 . S
C1550 C2 1.521 . S
C1589 C435 1.524 . S
C1577 C141 1.510 . S
C1604 C38 1.260 . S
C1616 C465 1.335 . S
C1631 C59 2.331 . S
C1643 C389 2.358 . S
C1670 C440 0.623 . S
C1658 C68 0.655 . S
C1685 C19 2.368 . S
C1697 C398 2.332 . S
C1712 C101 1.548 . S
C1724 C462 1.445 . S
C1751 C404 1.346 . S
C1739 C138 1.230 . S
C1778 C403 0.636 . S
C1766 C88 0.695 . S
