# Generated by pormake.
# Topology gar, (4,6)-cn, num edge types: 1
# Building blocks:
#     Node 0, Type 0, BuildingBlock: QUQFOY_clean_sbu_3, # of connection points: 4
#     Node 1, Type 0, BuildingBlock: QUQFOY_clean_sbu_3, # of connection points: 4
#     Node 2, Type 0, BuildingBlock: QUQFOY_clean_sbu_3, # of connection points: 4
#     Node 3, Type 0, BuildingBlock: QUQFOY_clean_sbu_3, # of connection points: 4
#     Node 4, Type 0, BuildingBlock: QUQFOY_clean_sbu_3, # of connection points: 4
#     Node 5, Type 0, BuildingBlock: QUQFOY_clean_sbu_3, # of connection points: 4
#     Node 6, Type 0, BuildingBlock: QUQFOY_clean_sbu_3, # of connection points: 4
#     Node 7, Type 0, BuildingBlock: QUQFOY_clean_sbu_3, # of connection points: 4
#     Node 8, Type 0, BuildingBlock: QUQFOY_clean_sbu_3, # of connection points: 4
#     Node 9, Type 0, BuildingBlock: QUQFOY_clean_sbu_3, # of connection points: 4
#     Node 10, Type 0, BuildingBlock: QUQFOY_clean_sbu_3, # of connection points: 4
#     Node 11, Type 0, BuildingBlock: QUQFOY_clean_sbu_3, # of connection points: 4
#     Node 12, Type 0, BuildingBlock: QUQFOY_clean_sbu_3, # of connection points: 4
#     Node 13, Type 0, BuildingBlock: QUQFOY_clean_sbu_3, # of connection points: 4
#     Node 14, Type 0, BuildingBlock: QUQFOY_clean_sbu_3, # of connection points: 4
#     Node 15, Type 0, BuildingBlock: QUQFOY_clean_sbu_3, # of connection points: 4
#     Node 16, Type 0, BuildingBlock: QUQFOY_clean_sbu_3, # of connection points: 4
#     Node 17, Type 0, BuildingBlock: QUQFOY_clean_sbu_3, # of connection points: 4
#     Node 18, Type 0, BuildingBlock: QUQFOY_clean_sbu_3, # of connection points: 4
#     Node 19, Type 0, BuildingBlock: QUQFOY_clean_sbu_3, # of connection points: 4
#     Node 20, Type 0, BuildingBlock: QUQFOY_clean_sbu_3, # of connection points: 4
#     Node 21, Type 0, BuildingBlock: QUQFOY_clean_sbu_3, # of connection points: 4
#     Node 22, Type 0, BuildingBlock: QUQFOY_clean_sbu_3, # of connection points: 4
#     Node 23, Type 0, BuildingBlock: QUQFOY_clean_sbu_3, # of connection points: 4
#     Node 24, Type 1, BuildingBlock: BETDAH_clean_sbu_0, # of connection points: 6
#     Node 25, Type 1, BuildingBlock: BETDAH_clean_sbu_0, # of connection points: 6
#     Node 26, Type 1, BuildingBlock: BETDAH_clean_sbu_0, # of connection points: 6
#     Node 27, Type 1, BuildingBlock: BETDAH_clean_sbu_0, # of connection points: 6
#     Node 28, Type 1, BuildingBlock: BETDAH_clean_sbu_0, # of connection points: 6
#     Node 29, Type 1, BuildingBlock: BETDAH_clean_sbu_0, # of connection points: 6
#     Node 30, Type 1, BuildingBlock: BETDAH_clean_sbu_0, # of connection points: 6
#     Node 31, Type 1, BuildingBlock: BETDAH_clean_sbu_0, # of connection points: 6
#     Node 32, Type 1, BuildingBlock: BETDAH_clean_sbu_0, # of connection points: 6
#     Node 33, Type 1, BuildingBlock: BETDAH_clean_sbu_0, # of connection points: 6
#     Node 34, Type 1, BuildingBlock: BETDAH_clean_sbu_0, # of connection points: 6
#     Node 35, Type 1, BuildingBlock: BETDAH_clean_sbu_0, # of connection points: 6
#     Node 36, Type 1, BuildingBlock: BETDAH_clean_sbu_0, # of connection points: 6
#     Node 37, Type 1, BuildingBlock: BETDAH_clean_sbu_0, # of connection points: 6
#     Node 38, Type 1, BuildingBlock: BETDAH_clean_sbu_0, # of connection points: 6
#     Node 39, Type 1, BuildingBlock: BETDAH_clean_sbu_0, # of connection points: 6
#     Edge 40, Type (0, 1), None
#     Edge 41, Type (0, 1), None
#     Edge 42, Type (0, 1), None
#     Edge 43, Type (0, 1), None
#     Edge 44, Type (0, 1), None
#     Edge 45, Type (0, 1), None
#     Edge 46, Type (0, 1), None
#     Edge 47, Type (0, 1), None
#     Edge 48, Type (0, 1), None
#     Edge 49, Type (0, 1), None
#     Edge 50, Type (0, 1), None
#     Edge 51, Type (0, 1), None
#     Edge 52, Type (0, 1), None
#     Edge 53, Type (0, 1), None
#     Edge 54, Type (0, 1), None
#     Edge 55, Type (0, 1), None
#     Edge 56, Type (0, 1), None
#     Edge 57, Type (0, 1), None
#     Edge 58, Type (0, 1), None
#     Edge 59, Type (0, 1), None
#     Edge 60, Type (0, 1), None
#     Edge 61, Type (0, 1), None
#     Edge 62, Type (0, 1), None
#     Edge 63, Type (0, 1), None
#     Edge 64, Type (0, 1), None
#     Edge 65, Type (0, 1), None
#     Edge 66, Type (0, 1), None
#     Edge 67, Type (0, 1), None
#     Edge 68, Type (0, 1), None
#     Edge 69, Type (0, 1), None
#     Edge 70, Type (0, 1), None
#     Edge 71, Type (0, 1), None
#     Edge 72, Type (0, 1), None
#     Edge 73, Type (0, 1), None
#     Edge 74, Type (0, 1), None
#     Edge 75, Type (0, 1), None
#     Edge 76, Type (0, 1), None
#     Edge 77, Type (0, 1), None
#     Edge 78, Type (0, 1), None
#     Edge 79, Type (0, 1), None
#     Edge 80, Type (0, 1), None
#     Edge 81, Type (0, 1), None
#     Edge 82, Type (0, 1), None
#     Edge 83, Type (0, 1), None
#     Edge 84, Type (0, 1), None
#     Edge 85, Type (0, 1), None
#     Edge 86, Type (0, 1), None
#     Edge 87, Type (0, 1), None
#     Edge 88, Type (0, 1), None
#     Edge 89, Type (0, 1), None
#     Edge 90, Type (0, 1), None
#     Edge 91, Type (0, 1), None
#     Edge 92, Type (0, 1), None
#     Edge 93, Type (0, 1), None
#     Edge 94, Type (0, 1), None
#     Edge 95, Type (0, 1), None
#     Edge 96, Type (0, 1), None
#     Edge 97, Type (0, 1), None
#     Edge 98, Type (0, 1), None
#     Edge 99, Type (0, 1), None
#     Edge 100, Type (0, 1), None
#     Edge 101, Type (0, 1), None
#     Edge 102, Type (0, 1), None
#     Edge 103, Type (0, 1), None
#     Edge 104, Type (0, 1), None
#     Edge 105, Type (0, 1), None
#     Edge 106, Type (0, 1), None
#     Edge 107, Type (0, 1), None
#     Edge 108, Type (0, 1), None
#     Edge 109, Type (0, 1), None
#     Edge 110, Type (0, 1), None
#     Edge 111, Type (0, 1), None
#     Edge 112, Type (0, 1), None
#     Edge 113, Type (0, 1), None
#     Edge 114, Type (0, 1), None
#     Edge 115, Type (0, 1), None
#     Edge 116, Type (0, 1), None
#     Edge 117, Type (0, 1), None
#     Edge 118, Type (0, 1), None
#     Edge 119, Type (0, 1), None
#     Edge 120, Type (0, 1), None
#     Edge 121, Type (0, 1), None
#     Edge 122, Type (0, 1), None
#     Edge 123, Type (0, 1), None
#     Edge 124, Type (0, 1), None
#     Edge 125, Type (0, 1), None
#     Edge 126, Type (0, 1), None
#     Edge 127, Type (0, 1), None
#     Edge 128, Type (0, 1), None
#     Edge 129, Type (0, 1), None
#     Edge 130, Type (0, 1), None
#     Edge 131, Type (0, 1), None
#     Edge 132, Type (0, 1), None
#     Edge 133, Type (0, 1), None
#     Edge 134, Type (0, 1), None
#     Edge 135, Type (0, 1), None
# Relax obj value: 0.410
# Max RMSD: 0.435
# Mean RMSD: 0.209
data_MOF--net-gar--node1-QUQFOY_clean_sbu_3--node2-BETDAH_clean_sbu_0--edge1-none
_symmetry_space_group_name_H-M    P1
_symmetry_Int_Tables_number       1
_symmetry_cell_setting            triclinic
loop_
_symmetry_equiv_pos_as_xyz
'x, y, z'
_cell_length_a     33.194034
_cell_length_b     28.131221
_cell_length_c     27.660881
_cell_angle_alpha  103.91061
_cell_angle_beta   97.029773
_cell_angle_gamma 104.61114
loop_
_atom_site_label
_atom_site_type_symbol
_atom_site_fract_x
_atom_site_fract_y
_atom_site_fract_z
_atom_type_partial_charge
C0 C 0.15281 0.41433 0.32203 0.0
O1 O 0.18258 0.43741 0.30378 0.0
Cd2 Cd 0.24139 0.48573 0.37147 0.0
O3 O 0.16081 0.40683 0.36484 0.0
Cd4 Cd 0.22166 0.41092 0.41594 0.0
C5 C 0.1994 0.51366 0.47098 0.0
O6 O 0.28611 0.43016 0.38433 0.0
O7 O 0.24103 0.3541 0.35025 0.0
O8 O 0.1774 0.33945 0.43112 0.0
C9 C 0.27671 0.38549 0.35313 0.0
O10 O 0.19949 0.52432 0.42918 0.0
C11 C 0.19646 0.35158 0.47695 0.0
O12 O 0.21832 0.48233 0.48039 0.0
O13 O 0.23105 0.38764 0.49222 0.0
C14 C 0.97349 0.78359 0.74471 0.0
O15 O 0.97549 0.7385 0.74156 0.0
Cd16 Cd 0.03019 0.73289 0.69282 0.0
O17 O 0.99376 0.80889 0.71851 0.0
Cd18 Cd 0.04433 0.77816 0.67142 0.0
C19 C 0.05952 0.67051 0.61522 0.0
O20 O 0.08934 0.7846 0.75348 0.0
O21 O 0.11787 0.80306 0.69182 0.0
O22 O 0.06851 0.85867 0.65593 0.0
C23 C 0.12246 0.80082 0.73709 0.0
O24 O 0.06647 0.66965 0.66084 0.0
C25 C 0.06474 0.83886 0.60859 0.0
O26 O 0.03825 0.69925 0.60395 0.0
O27 O 0.04594 0.79149 0.59005 0.0
C28 C 0.65283 0.91441 0.8221 0.0
O29 O 0.68263 0.9375 0.80389 0.0
Cd30 Cd 0.74132 0.98573 0.87175 0.0
O31 O 0.66081 0.90688 0.86491 0.0
Cd32 Cd 0.72167 0.91096 0.91602 0.0
C33 C 0.69925 1.01349 0.97122 0.0
O34 O 0.78615 0.93021 0.88444 0.0
O35 O 0.74107 0.85416 0.85035 0.0
O36 O 0.6774 0.83945 0.93113 0.0
C37 C 0.77676 0.88554 0.85326 0.0
O38 O 0.69927 1.02412 0.92941 0.0
C39 C 0.69645 0.85155 0.97696 0.0
O40 O 0.71832 0.98228 0.98064 0.0
O41 O 0.73104 0.88762 0.99226 0.0
C42 C 0.47341 0.28354 0.24475 0.0
O43 O 0.47546 0.23848 0.24164 0.0
Cd44 Cd 0.53016 0.23298 0.19291 0.0
O45 O 0.49367 0.30883 0.21853 0.0
Cd46 Cd 0.54428 0.27815 0.17143 0.0
C47 C 0.55936 0.17032 0.11544 0.0
O48 O 0.58933 0.28473 0.25351 0.0
O49 O 0.61783 0.30299 0.19176 0.0
O50 O 0.56843 0.35864 0.15586 0.0
C51 C 0.62244 0.30086 0.23706 0.0
O52 O 0.56631 0.16956 0.16108 0.0
C53 C 0.56471 0.3388 0.10853 0.0
O54 O 0.53816 0.19911 0.1041 0.0
O55 O 0.54595 0.29142 0.09002 0.0
C56 C 0.12302 0.84157 0.1931 0.0
O57 O 0.1474 0.82645 0.2209 0.0
Cd58 Cd 0.22104 0.8389 0.2307 0.0
O59 O 0.13698 0.86914 0.1652 0.0
Cd60 Cd 0.20426 0.89711 0.13823 0.0
C61 C 0.19084 0.76441 0.1115 0.0
O62 O 0.25484 0.9191 0.22187 0.0
O63 O 0.28348 0.89501 0.15913 0.0
O64 O 0.19063 0.98405 0.14115 0.0
C65 C 0.28748 0.90926 0.20736 0.0
O66 O 0.21698 0.77544 0.15296 0.0
C67 C 0.17549 0.97616 0.0943 0.0
O68 O 0.17777 0.79915 0.09729 0.0
O69 O 0.17719 0.93399 0.06561 0.0
C70 C 0.46887 0.81145 0.36278 0.0
O71 O 0.49521 0.83061 0.33798 0.0
Cd72 Cd 0.57109 0.85501 0.35507 0.0
O73 O 0.48278 0.79817 0.40236 0.0
Cd74 Cd 0.56324 0.80249 0.45468 0.0
C75 C 0.58995 0.93626 0.47673 0.0
O76 O 0.60059 0.79704 0.38458 0.0
O77 O 0.63881 0.83958 0.45846 0.0
O78 O 0.5619 0.71146 0.45978 0.0
C79 C 0.63728 0.82041 0.41177 0.0
O80 O 0.58967 0.92728 0.42942 0.0
C81 C 0.58433 0.72288 0.5041 0.0
O82 O 0.5797 0.89967 0.49763 0.0
O83 O 0.59299 0.76984 0.52899 0.0
C84 C 0.62351 0.34182 0.69404 0.0
O85 O 0.64809 0.32644 0.72129 0.0
Cd86 Cd 0.72173 0.33883 0.73027 0.0
O87 O 0.63723 0.3695 0.66611 0.0
Cd88 Cd 0.70431 0.39707 0.63842 0.0
C89 C 0.69102 0.26424 0.61135 0.0
O90 O 0.75507 0.41948 0.722 0.0
O91 O 0.78345 0.39481 0.65923 0.0
O92 O 0.69087 0.48407 0.6412 0.0
C93 C 0.78761 0.40943 0.70746 0.0
O94 O 0.71764 0.27531 0.65245 0.0
C95 C 0.67565 0.47611 0.59437 0.0
O96 O 0.67772 0.29901 0.59752 0.0
O97 O 0.67721 0.43385 0.56571 0.0
C98 C 0.9686 0.31124 0.86263 0.0
O99 O 0.99494 0.33072 0.838 0.0
Cd100 Cd 0.07089 0.35524 0.85504 0.0
O101 O 0.98258 0.29787 0.90212 0.0
Cd102 Cd 0.06323 0.30263 0.9545 0.0
C103 C 0.09016 0.43649 0.97667 0.0
O104 O 0.10063 0.2973 0.88431 0.0
O105 O 0.13886 0.33971 0.9582 0.0
O106 O 0.06192 0.21161 0.95967 0.0
C107 C 0.13733 0.3207 0.91148 0.0
O108 O 0.08978 0.42756 0.92935 0.0
C109 C 0.0843 0.22302 1.00402 0.0
O110 O 0.07981 0.39987 0.99751 0.0
O111 O 0.09294 0.26998 0.02889 0.0
C112 C 0.59201 0.08465 0.42617 0.0
O113 O 0.58735 0.03711 0.40944 0.0
Cd114 Cd 0.54978 0.95945 0.35178 0.0
O115 O 0.56583 0.10672 0.41056 0.0
Cd116 Cd 0.49845 0.05949 0.35098 0.0
C117 C 0.46165 0.96377 0.38369 0.0
O118 O 0.53509 1.01289 0.30467 0.0
O119 O 0.47563 1.00794 0.26171 0.0
O120 O 0.48004 0.12931 0.32902 0.0
C121 C 0.50973 0.9959 0.26307 0.0
O122 O 0.48272 0.93236 0.37207 0.0
C123 C 0.44054 0.10625 0.32278 0.0
O124 O 0.4806 1.01045 0.40495 0.0
O125 O 0.42917 0.06513 0.33557 0.0
C126 C 0.39305 0.19623 0.54645 0.0
O127 O 0.36462 0.17266 0.56597 0.0
Cd128 Cd 0.29302 0.1683 0.55904 0.0
O129 O 0.38523 0.22308 0.5178 0.0
Cd130 Cd 0.32451 0.2527 0.50028 0.0
C131 C 0.33073 0.28784 0.63274 0.0
O132 O 0.26856 0.16571 0.47406 0.0
O133 O 0.2488 0.22576 0.5189 0.0
O134 O 0.33832 0.25915 0.41049 0.0
C135 C 0.24005 0.17805 0.49673 0.0
O136 O 0.30154 0.24611 0.62482 0.0
C137 C 0.35817 0.30669 0.423 0.0
O138 O 0.34817 0.29914 0.59635 0.0
O139 O 0.35821 0.33038 0.46857 0.0
C140 C 0.1878 0.0897 0.91258 0.0
O141 O 0.18744 0.1303 0.90011 0.0
Cd142 Cd 0.22256 0.13552 0.82416 0.0
O143 O 0.20692 0.06037 0.88435 0.0
Cd144 Cd 0.25431 0.06203 0.79434 0.0
C145 C 0.30719 0.2085 0.8101 0.0
O146 O 0.18844 0.08064 0.73577 0.0
O147 O 0.23557 0.06065 0.69654 0.0
O148 O 0.26476 0.96055 0.7779 0.0
C149 C 0.2023 0.07546 0.69402 0.0
O150 O 0.27302 0.21598 0.82169 0.0
C151 C 0.30516 0.96893 0.78262 0.0
O152 O 0.31014 0.16167 0.80277 0.0
O153 O 0.32245 1.01733 0.79189 0.0
C154 C 0.50646 0.03873 0.99577 0.0
O155 O 0.4845 0.0315 0.95264 0.0
Cd156 Cd 0.41793 0.05418 0.95348 0.0
O157 O 0.49399 0.05902 0.03475 0.0
Cd158 Cd 0.42162 1.02525 0.01963 0.0
C159 C 0.39096 0.93913 0.91561 0.0
O160 O 0.3946 0.09777 0.02912 0.0
O161 O 0.3523 1.02604 0.03244 0.0
O162 O 0.45022 1.02471 0.09991 0.0
C163 C 0.36043 0.0741 0.04003 0.0
O164 O 0.37298 0.97119 0.90488 0.0
C165 C 0.43493 0.9762 0.08552 0.0
O166 O 0.41827 0.95232 0.95525 0.0
O167 O 0.40814 0.95375 0.04453 0.0
C168 C 0.5221 0.52976 0.07703 0.0
O169 O 0.49794 0.55194 0.05847 0.0
Cd170 Cd 0.4236 0.52728 0.03805 0.0
O171 O 0.50624 0.4889 0.09101 0.0
Cd172 Cd 0.42585 0.42671 0.08913 0.0
C173 C 0.41205 0.40648 0.95703 0.0
O174 O 0.39284 0.49272 0.09832 0.0
O175 O 0.35311 0.41824 0.05237 0.0
O176 O 0.41773 0.41844 0.18066 0.0
C177 C 0.35634 0.46423 0.07457 0.0
O178 O 0.4112 0.45272 0.96735 0.0
C179 C 0.3941 0.37224 0.16661 0.0
O180 O 0.41835 0.38496 0.99239 0.0
O181 O 0.38984 0.35 0.11952 0.0
C182 C 0.89244 0.10608 0.04853 0.0
O183 O 0.85911 0.07859 0.05678 0.0
Cd184 Cd 0.84491 0.13899 0.12771 0.0
O185 O 0.90013 0.15398 0.06415 0.0
Cd186 Cd 0.83455 0.17343 0.07116 0.0
C187 C 0.87272 0.26311 0.16335 0.0
O188 O 0.77875 0.15354 0.11801 0.0
O189 O 0.76592 0.12525 0.03484 0.0
O190 O 0.82072 0.17577 0.98683 0.0
C191 C 0.75421 0.14329 0.07571 0.0
O192 O 0.88422 0.22659 0.17476 0.0
C193 C 0.82087 0.22224 1.0033 0.0
O194 O 0.84882 0.25528 0.12206 0.0
O195 O 0.83129 0.2449 0.05031 0.0
C196 C 0.23316 0.71839 0.30779 0.0
O197 O 0.21732 0.74351 0.28214 0.0
Cd198 Cd 0.19845 0.70641 0.1952 0.0
O199 O 0.24679 0.68217 0.28654 0.0
Cd200 Cd 0.26607 0.62693 0.22113 0.0
C201 C 0.29444 0.70742 0.19435 0.0
O202 O 0.19467 0.62605 0.20723 0.0
O203 O 0.20882 0.5648 0.15509 0.0
O204 O 0.27977 0.55729 0.24602 0.0
C205 C 0.18258 0.58918 0.16759 0.0
O206 O 0.26199 0.70489 0.1635 0.0
C207 C 0.31234 0.58497 0.27964 0.0
O208 O 0.31425 0.67527 0.18047 0.0
O209 O 0.32187 0.63303 0.28744 0.0
C210 C 0.02207 0.0298 0.57702 0.0
O211 O 0.99791 0.05193 0.55838 0.0
Cd212 Cd 0.92357 1.02699 0.53769 0.0
O213 O 1.0062 0.98894 0.591 0.0
Cd214 Cd 0.92578 0.92673 0.58905 0.0
C215 C 0.91149 0.9059 0.45656 0.0
O216 O 0.89281 0.99284 0.59825 0.0
O217 O 0.85305 0.91835 0.55241 0.0
O218 O 0.91771 0.91851 0.68066 0.0
C219 C 0.85629 0.96435 0.57459 0.0
O220 O 0.91087 0.95225 0.46671 0.0
C221 C 0.89407 0.8723 0.66664 0.0
O222 O 0.91798 0.88469 0.49214 0.0
O223 O 0.8898 0.85007 0.61954 0.0
C224 C 0.07584 0.10527 0.39167 0.0
O225 O 0.08228 0.07272 0.3553 0.0
Cd226 Cd 0.04306 0.06 0.27211 0.0
O227 O 0.05257 0.13364 0.37905 0.0
Cd228 Cd 1.0084 0.1356 0.27884 0.0
C229 C 0.94829 0.99355 0.2746 0.0
O230 O 0.07713 0.12405 0.22793 0.0
O231 O 0.024 0.12094 0.17744 0.0
O232 O 1.00035 0.23836 0.30214 0.0
C233 C 0.06288 0.12073 0.18157 0.0
O234 O 0.98167 0.98276 0.26396 0.0
C235 C 0.95996 0.23071 0.29243 0.0
O236 O 0.9486 0.04131 0.2804 0.0
O237 O 0.9418 0.18224 0.27667 0.0
C238 C 0.39261 0.60589 0.54884 0.0
O239 O 0.35916 0.57837 0.55681 0.0
Cd240 Cd 0.345 0.63878 0.62783 0.0
O241 O 0.4004 0.65377 0.56477 0.0
Cd242 Cd 0.33473 0.67304 0.57145 0.0
C243 C 0.37266 0.76292 0.66346 0.0
O244 O 0.2788 0.65327 0.61816 0.0
O245 O 0.26607 0.62516 0.53497 0.0
O246 O 0.32117 0.67521 0.48696 0.0
C247 C 0.25434 0.64321 0.57584 0.0
O248 O 0.38423 0.72646 0.67491 0.0
C249 C 0.32157 0.72177 0.50339 0.0
O250 O 0.34873 0.75497 0.62217 0.0
O251 O 0.33195 0.74442 0.55041 0.0
C252 C 0.57586 0.60526 0.89169 0.0
O253 O 0.58231 0.57271 0.85533 0.0
Cd254 Cd 0.54313 0.56004 0.77215 0.0
O255 O 0.55259 0.63362 0.87907 0.0
Cd256 Cd 0.5084 0.63559 0.77886 0.0
C257 C 0.44802 0.49351 0.77414 0.0
O258 O 0.5772 0.62407 0.72799 0.0
O259 O 0.52408 0.62093 0.67748 0.0
O260 O 0.5004 0.73838 0.80215 0.0
C261 C 0.56295 0.62072 0.68163 0.0
O262 O 0.48155 0.48292 0.76378 0.0
C263 C 0.46001 0.73074 0.79247 0.0
O264 O 0.44831 0.54127 0.7801 0.0
O265 O 0.44184 0.68227 0.77674 0.0
C266 C 0.73201 0.21736 0.80711 0.0
O267 O 0.71611 0.24231 0.7813 0.0
Cd268 Cd 0.69827 0.20581 0.69433 0.0
O269 O 0.74597 0.18135 0.7861 0.0
Cd270 Cd 0.7658 0.12627 0.72105 0.0
C271 C 0.79442 0.20638 0.69423 0.0
O272 O 0.6945 0.12565 0.70692 0.0
O273 O 0.70848 0.06414 0.65495 0.0
O274 O 0.77955 0.0567 0.74598 0.0
C275 C 0.68233 0.08871 0.66737 0.0
O276 O 0.7619 0.20337 0.66323 0.0
C277 C 0.81187 0.08446 0.77995 0.0
O278 O 0.81451 0.17447 0.68068 0.0
O279 O 0.82113 0.13254 0.78805 0.0
C280 C 0.89308 0.69624 0.04655 0.0
O281 O 0.86464 0.67268 0.06607 0.0
Cd282 Cd 0.79307 0.66855 0.0593 0.0
O283 O 0.88527 0.72312 0.01793 0.0
Cd284 Cd 0.82453 0.75265 1.00024 0.0
C285 C 0.83059 0.78837 0.13279 0.0
O286 O 0.76862 0.66565 0.97415 0.0
O287 O 0.7488 0.72572 0.01883 0.0
O288 O 0.83868 0.75891 0.91045 0.0
C289 C 0.74008 0.678 0.99673 0.0
O290 O 0.80164 0.74649 0.12519 0.0
C291 C 0.85821 0.80654 0.9229 0.0
O292 O 0.84797 0.79937 0.09625 0.0
O293 O 0.85797 0.83026 0.96835 0.0
C294 C 0.09283 0.58476 0.92637 0.0
O295 O 0.08891 0.53747 0.90928 0.0
Cd296 Cd 0.0519 0.46151 0.84972 0.0
O297 O 0.06627 0.60638 0.91084 0.0
Cd298 Cd 0.99907 0.55951 0.85087 0.0
C299 C 0.96181 0.46332 0.88277 0.0
O300 O 0.03682 0.51536 0.8037 0.0
O301 O 0.97589 0.50743 0.76192 0.0
O302 O 0.9806 0.6302 0.83023 0.0
C303 C 1.01063 0.49698 0.76271 0.0
O304 O 0.98408 0.43449 0.86702 0.0
C305 C 0.94109 0.60648 0.82241 0.0
O306 O 0.97881 0.51039 0.90442 0.0
O307 O 0.92967 0.56448 0.83354 0.0
C308 C 1.00662 0.53914 0.49539 0.0
O309 O 0.9846 0.53173 0.45226 0.0
Cd310 Cd 0.91786 0.55408 0.45306 0.0
O311 O 0.99413 0.5594 0.53437 0.0
Cd312 Cd 0.92172 0.52567 0.51903 0.0
C313 C 0.89093 0.43908 0.41554 0.0
O314 O 0.89459 0.59809 0.52851 0.0
O315 O 0.85234 0.52629 0.53171 0.0
O316 O 0.94971 0.52507 0.59948 0.0
C317 C 0.86046 0.57436 0.53946 0.0
O318 O 0.87272 0.47097 0.40487 0.0
C319 C 0.9344 0.47656 0.58506 0.0
O320 O 0.91859 0.45258 0.4549 0.0
O321 O 0.90802 0.45407 0.54375 0.0
C322 C 0.68779 0.58959 0.4126 0.0
O323 O 0.68743 0.63017 0.40004 0.0
Cd324 Cd 0.72211 0.6356 0.3236 0.0
O325 O 0.70683 0.56016 0.38438 0.0
Cd326 Cd 0.75404 0.56169 0.29446 0.0
C327 C 0.80718 0.70783 0.31063 0.0
O328 O 0.68824 0.58021 0.23562 0.0
O329 O 0.73569 0.56086 0.19666 0.0
O330 O 0.7647 0.46041 0.27798 0.0
C331 C 0.70228 0.5754 0.19401 0.0
O332 O 0.77238 0.7156 0.31948 0.0
C333 C 0.8051 0.46886 0.28262 0.0
O334 O 0.81011 0.66125 0.30531 0.0
O335 O 0.82234 0.51727 0.29188 0.0
Ho336 Ho 0.10063 0.06548 0.0177 0.0
Ho337 Ho 0.15671 0.13178 0.07971 0.0
C338 C 0.10037 0.18346 0.02368 0.0
C339 C 0.02108 1.01944 0.97981 0.0
C340 C 0.98692 0.04064 0.9954 0.0
C341 C 0.99782 0.09089 0.02723 0.0
C342 C 0.96676 0.11272 0.04238 0.0
C343 C 0.92405 0.08383 0.02791 0.0
C344 C 0.91275 0.03298 0.99749 0.0
C345 C 0.94424 1.01128 0.98199 0.0
C346 C 0.1651 0.07927 0.95923 0.0
C347 C 0.15778 1.01514 0.07546 0.0
C348 C 0.23791 0.17255 0.11178 0.0
C349 C 0.27027 0.14873 0.09341 0.0
C350 C 0.25751 0.09708 0.06484 0.0
C351 C 0.28702 0.07277 0.04855 0.0
C352 C 0.32998 0.10038 0.05821 0.0
C353 C 0.34291 0.15279 0.08418 0.0
C354 C 0.31306 0.17687 0.10125 0.0
C355 C 0.09131 0.12478 0.13762 0.0
O356 O 0.08534 0.13474 0.99803 0.0
O357 O 0.13099 0.19548 0.06354 0.0
O358 O 0.04613 0.04566 0.95672 0.0
O359 O 0.0425 1.00745 0.01521 0.0
O360 O 0.13961 0.0354 0.95911 0.0
O361 O 0.155 0.11333 0.99276 0.0
O362 O 0.17023 0.06328 0.10266 0.0
O363 O 0.12928 1.00345 0.03367 0.0
O364 O 0.21342 0.14834 0.13691 0.0
O365 O 0.21593 0.18588 0.07798 0.0
O366 O 0.12124 0.16611 0.13953 0.0
O367 O 0.09879 0.08774 0.10423 0.0
H368 H 0.03041 0.11285 0.04239 0.0
H369 H 0.97641 0.15147 0.06738 0.0
H370 H 0.87984 1.00985 0.98661 0.0
H371 H 0.93537 0.97138 0.96097 0.0
H372 H 0.22456 0.07558 0.05362 0.0
H373 H 0.27598 0.03265 0.02714 0.0
H374 H 0.37597 0.17497 0.09147 0.0
H375 H 0.32336 0.21735 0.12014 0.0
Ho376 Ho 0.39614 0.84729 0.26638 0.0
Ho377 Ho 0.34543 0.85536 0.31728 0.0
C378 C 0.41998 0.94875 0.35257 0.0
C379 C 0.45201 0.85374 0.21095 0.0
C380 C 0.44851 0.88207 0.17547 0.0
C381 C 0.41827 0.90901 0.18026 0.0
C382 C 0.41583 0.94229 0.15234 0.0
C383 C 0.44243 0.9469 0.11802 0.0
C384 C 0.47089 0.91776 0.10999 0.0
C385 C 0.47437 0.88514 0.13972 0.0
C386 C 0.42234 0.80562 0.34173 0.0
C387 C 0.31902 0.75751 0.22731 0.0
C388 C 0.29604 0.84527 0.37966 0.0
C389 C 0.29956 0.81212 0.41055 0.0
C390 C 0.3221 0.77652 0.39632 0.0
C391 C 0.32699 0.74432 0.42524 0.0
C392 C 0.31158 0.75001 0.46998 0.0
C393 C 0.29046 0.7868 0.48556 0.0
C394 C 0.28436 0.81807 0.4555 0.0
C395 C 0.32127 0.90049 0.24422 0.0
O396 O 0.41673 0.93265 0.30325 0.0
O397 O 0.39283 0.92102 0.3713 0.0
O398 O 0.45935 0.8826 0.25737 0.0
O399 O 0.41986 0.81316 0.2015 0.0
O400 O 0.40905 0.78182 0.29411 0.0
O401 O 0.40953 0.84537 0.34673 0.0
O402 O 0.32191 0.77037 0.27651 0.0
O403 O 0.34269 0.79001 0.20898 0.0
O404 O 0.28429 0.82188 0.33149 0.0
O405 O 0.32967 0.88405 0.38992 0.0
O406 O 0.32489 0.91799 0.29247 0.0
O407 O 0.33431 0.86091 0.23641 0.0
H408 H 0.3975 0.90569 0.20705 0.0
H409 H 0.39279 0.96361 0.15679 0.0
H410 H 0.49037 0.92078 0.08151 0.0
H411 H 0.4972 0.86361 0.13574 0.0
H412 H 0.33648 0.77392 0.36337 0.0
H413 H 0.34441 0.71695 0.41404 0.0
H414 H 0.27917 0.79157 0.52106 0.0
H415 H 0.26844 0.84688 0.46731 0.0
Ho416 Ho 0.68299 0.09699 0.53402 0.0
Ho417 Ho 0.59674 0.10307 0.55684 0.0
C418 C 0.60641 0.99073 0.50622 0.0
C419 C 0.75865 0.09194 0.53383 0.0
C420 C 0.77901 0.05309 0.53976 0.0
C421 C 0.77161 0.02816 0.5774 0.0
C422 C 0.79526 0.99623 0.58719 0.0
C423 C 0.82516 0.98751 0.5577 0.0
C424 C 0.82895 1.00723 0.51594 0.0
C425 C 0.80614 0.04054 0.50729 0.0
C426 C 0.6322 0.11277 0.45902 0.0
C427 C 0.67263 0.20891 0.58432 0.0
C428 C 0.52005 0.10214 0.55768 0.0
C429 C 0.49628 0.13897 0.5591 0.0
C430 C 0.488 0.15761 0.5173 0.0
C431 C 0.45698 0.18266 0.51527 0.0
C432 C 0.43452 0.18852 0.55492 0.0
C433 C 0.44744 0.17679 0.59963 0.0
C434 C 0.47806 0.15167 0.60155 0.0
C435 C 0.64748 0.08758 0.63035 0.0
O436 O 0.64818 1.01216 0.51756 0.0
O437 O 0.58012 1.01916 0.51199 0.0
O438 O 0.73006 0.0784 0.49227 0.0
O439 O 0.74714 0.11583 0.57432 0.0
O440 O 0.66285 0.09263 0.45275 0.0
O441 O 0.63514 0.13003 0.50573 0.0
O442 O 0.63071 0.18815 0.5713 0.0
O443 O 0.69854 0.17982 0.58023 0.0
O444 O 0.54784 0.1111 0.59905 0.0
O445 O 0.5333 0.08661 0.51554 0.0
O446 O 0.6232 0.11687 0.63921 0.0
O447 O 0.64324 0.0681 0.58381 0.0
H448 H 0.74884 0.03464 0.60031 0.0
H449 H 0.79153 0.98025 0.61892 0.0
H450 H 0.851 0.99907 0.49171 0.0
H451 H 0.81072 0.05775 0.47652 0.0
H452 H 0.50291 0.14951 0.48477 0.0
H453 H 0.44773 0.19249 0.48086 0.0
H454 H 0.43111 0.1827 0.6312 0.0
H455 H 0.48505 0.13872 0.63465 0.0
Ho456 Ho 0.34252 0.37423 0.7974 0.0
Ho457 Ho 0.40961 0.32803 0.79019 0.0
C458 C 0.3993 0.37846 0.90246 0.0
C459 C 0.27215 0.39279 0.81228 0.0
C460 C 0.23977 0.376 0.84105 0.0
C461 C 0.23997 0.33601 0.86325 0.0
C462 C 0.2068 0.31832 0.88724 0.0
C463 C 0.17328 0.34028 0.88873 0.0
C464 C 0.17447 0.38198 0.86901 0.0
C465 C 0.20755 0.3997 0.84527 0.0
C466 C 0.41005 0.45027 0.78043 0.0
C467 C 0.34775 0.31765 0.68666 0.0
C468 C 0.47962 0.30875 0.77818 0.0
C469 C 0.50856 0.31409 0.74306 0.0
C470 C 0.52263 0.35938 0.72892 0.0
C471 C 0.55793 0.36653 0.70573 0.0
C472 C 0.57889 0.32864 0.69766 0.0
C473 C 0.56042 0.28068 0.7044 0.0
C474 C 0.52524 0.27345 0.72695 0.0
C475 C 0.3408 0.25287 0.79974 0.0
O476 O 0.36306 0.38094 0.87962 0.0
O477 O 0.42644 0.36348 0.8757 0.0
O478 O 0.30917 0.4214 0.83945 0.0
O479 O 0.27486 0.35775 0.77297 0.0
O480 O 0.37297 0.45426 0.78666 0.0
O481 O 0.40907 0.40532 0.78411 0.0
O482 O 0.38692 0.32208 0.70732 0.0
O483 O 0.32108 0.32791 0.71593 0.0
O484 O 0.44262 0.2756 0.75814 0.0
O485 O 0.47806 0.3504 0.8105 0.0
O486 O 0.37303 0.24551 0.78081 0.0
O487 O 0.34861 0.30197 0.81852 0.0
H488 H 0.26522 0.31802 0.86118 0.0
H489 H 0.20681 0.28696 0.90358 0.0
H490 H 0.14962 0.40053 0.87148 0.0
H491 H 0.20755 0.4313 0.8293 0.0
H492 H 0.50866 0.39037 0.73925 0.0
H493 H 0.5714 0.40333 0.69944 0.0
H494 H 0.57556 0.25046 0.69678 0.0
H495 H 0.51339 0.2376 0.73585 0.0
Ho496 Ho 0.13095 0.13679 0.57244 0.0
Ho497 Ho 0.14546 0.05609 0.51924 0.0
C498 C 0.09516 0.10358 0.44587 0.0
C499 C 0.13449 0.23115 0.60334 0.0
C500 C 0.14849 0.26426 0.57204 0.0
C501 C 0.16118 0.24221 0.52763 0.0
C502 C 0.1759 0.27074 0.49612 0.0
C503 C 0.17999 0.32264 0.51 0.0
C504 C 0.16736 0.34576 0.55424 0.0
C505 C 0.15113 0.31618 0.58533 0.0
C506 C 0.06874 0.05393 0.58009 0.0
C507 C 0.18019 0.08424 0.64424 0.0
C508 C 0.14007 0.96129 0.48947 0.0
C509 C 0.12355 0.92844 0.51991 0.0
C510 C 0.11014 0.95094 0.56364 0.0
C511 C 0.09104 0.92172 0.59252 0.0
C512 C 0.08409 0.86899 0.57727 0.0
C513 C 0.09792 0.84594 0.53381 0.0
C514 C 0.11773 0.87586 0.505 0.0
C515 C 0.20284 0.13762 0.50397 0.0
O516 O 0.09754 0.13655 0.49064 0.0
O517 O 0.11177 0.06588 0.44736 0.0
O518 O 0.09876 0.19536 0.58256 0.0
O519 O 0.16418 0.21315 0.62033 0.0
O520 O 0.08899 0.09452 0.61691 0.0
O521 O 0.08315 0.0607 0.5407 0.0
O522 O 0.17981 0.05541 0.59839 0.0
O523 O 0.16232 0.12166 0.64522 0.0
O524 O 0.17613 0.99611 0.5114 0.0
O525 O 0.11172 0.98027 0.47101 0.0
O526 O 0.18532 0.09383 0.47045 0.0
O527 O 0.19188 0.13454 0.54621 0.0
H528 H 0.16079 0.20299 0.5179 0.0
H529 H 0.18543 0.25269 0.46188 0.0
H530 H 0.16975 0.38618 0.56429 0.0
H531 H 0.14136 0.3336 0.61952 0.0
H532 H 0.11344 0.99111 0.5749 0.0
H533 H 0.08096 0.94024 0.62607 0.0
H534 H 0.09369 0.80509 0.52242 0.0
H535 H 0.12781 0.85816 0.47115 0.0
Ho536 Ho 0.41998 0.88899 0.7794 0.0
Ho537 Ho 0.34648 0.81255 0.80059 0.0
C538 C 0.43479 0.77412 0.79782 0.0
C539 C 0.49381 0.9498 0.7943 0.0
C540 C 0.53318 0.93587 0.79677 0.0
C541 C 0.54186 0.90719 0.82966 0.0
C542 C 0.57885 0.89342 0.8321 0.0
C543 C 0.6088 0.91012 0.80344 0.0
C544 C 0.59849 0.93439 0.76703 0.0
C545 C 0.56052 0.94712 0.76362 0.0
C546 C 0.37942 0.81006 0.70159 0.0
C547 C 0.33133 0.92652 0.77958 0.0
C548 C 0.27252 0.75205 0.78689 0.0
C549 C 0.23424 0.76741 0.77825 0.0
C550 C 0.23212 0.79834 0.74558 0.0
C551 C 0.19784 0.81669 0.73894 0.0
C552 C 0.16352 0.80125 0.76182 0.0
C553 C 0.16629 0.77308 0.79708 0.0
C554 C 0.20199 0.75648 0.80562 0.0
C555 C 0.38745 0.89249 0.87803 0.0
O556 O 0.4517 0.82256 0.794 0.0
O557 O 0.39332 0.76151 0.80083 0.0
O558 O 0.46886 0.93252 0.7493 0.0
O559 O 0.47389 0.94407 0.83174 0.0
O560 O 0.39379 0.85544 0.69549 0.0
O561 O 0.3876 0.81063 0.74664 0.0
O562 O 0.31474 0.87826 0.7839 0.0
O563 O 0.37298 0.93968 0.77767 0.0
O564 O 0.29607 0.77371 0.83249 0.0
O565 O 0.2942 0.75245 0.75028 0.0
O566 O 0.37391 0.84699 0.88427 0.0
O567 O 0.37858 0.89123 0.83288 0.0
H568 H 0.52074 0.89633 0.85463 0.0
H569 H 0.58548 0.87369 0.85997 0.0
H570 H 0.6209 0.94683 0.74402 0.0
H571 H 0.55321 0.96725 0.73647 0.0
H572 H 0.25647 0.80758 0.72383 0.0
H573 H 0.19647 0.83867 0.7118 0.0
H574 H 0.13982 0.76068 0.81498 0.0
H575 H 0.20381 0.7339 0.83205 0.0
Ho576 Ho 0.6356 0.0704 0.08151 0.0
Ho577 Ho 0.62149 0.1205 1.00193 0.0
C578 C 0.54866 0.03271 1.00156 0.0
C579 C 0.63587 0.03903 0.15941 0.0
C580 C 0.60038 1.02421 0.182 0.0
C581 C 0.56643 0.04466 0.17514 0.0
C582 C 0.53082 1.02769 0.19437 0.0
C583 C 0.52944 0.99021 0.21998 0.0
C584 C 0.56122 0.96558 0.22096 0.0
C585 C 0.59705 0.9831 0.20232 0.0
C586 C 0.67422 0.03161 1.00747 0.0
C587 C 0.71232 0.14832 0.07383 0.0
C588 C 0.62741 0.16724 0.9352 0.0
C589 C 0.66271 0.18608 0.91336 0.0
C590 C 0.69222 0.15893 0.90305 0.0
C591 C 0.7216 0.17486 0.87449 0.0
C592 C 0.72028 0.21694 0.8558 0.0
C593 C 0.69568 0.24842 0.87417 0.0
C594 C 0.66669 0.23268 0.90285 0.0
C595 C 0.57854 0.14391 0.07656 0.0
O596 O 0.56632 0.03844 0.04868 0.0
O597 O 0.5718 0.04706 0.96983 0.0
O598 O 0.63054 1.00847 0.11391 0.0
O599 O 0.64927 0.08798 0.16283 0.0
O600 O 0.67331 1.01925 0.04905 0.0
O601 O 0.6545 0.06416 1.0067 0.0
O602 O 0.69166 0.14499 0.0289 0.0
O603 O 0.69267 0.13542 0.10858 0.0
O604 O 0.63235 0.19119 0.98331 0.0
O605 O 0.61193 0.11716 0.9232 0.0
O606 O 0.56585 0.13995 0.02956 0.0
O607 O 0.61599 0.14026 0.08309 0.0
H608 H 0.56806 0.07462 0.15649 0.0
H609 H 0.50694 0.04783 0.19439 0.0
H610 H 0.56062 0.93726 0.24161 0.0
H611 H 0.62256 0.96564 0.2049 0.0
H612 H 0.69062 0.12394 0.91375 0.0
H613 H 0.74144 0.15082 0.86212 0.0
H614 H 0.69522 0.28192 0.86162 0.0
H615 H 0.64516 0.25488 0.91349 0.0
Ho616 Ho 0.41116 0.39381 0.32714 0.0
Ho617 Ho 0.34243 0.28369 0.26213 0.0
C618 C 0.30783 0.36872 0.32601 0.0
C619 C 0.43504 0.48868 0.33287 0.0
C620 C 0.40325 0.51512 0.32523 0.0
C621 C 0.36301 0.4858 0.2961 0.0
C622 C 0.33184 0.50848 0.28662 0.0
C623 C 0.34134 0.56167 0.30238 0.0
C624 C 0.38136 0.59158 0.33227 0.0
C625 C 0.41209 0.56806 0.34449 0.0
C626 C 0.38238 0.33349 0.38858 0.0
C627 C 0.44486 0.30467 0.27331 0.0
C628 C 0.31477 0.18764 0.24496 0.0
C629 C 0.34266 0.16164 0.26602 0.0
C630 C 0.36813 0.18632 0.31462 0.0
C631 C 0.40061 0.16869 0.33273 0.0
C632 C 0.40852 0.1264 0.30216 0.0
C633 C 0.38422 0.10189 0.25303 0.0
C634 C 0.35156 0.11991 0.23473 0.0
C635 C 0.37091 0.34486 0.20121 0.0
O636 O 0.34666 0.40072 0.33869 0.0
O637 O 0.29682 0.32181 0.29463 0.0
O638 O 0.43634 0.47257 0.37337 0.0
O639 O 0.43475 0.45341 0.29224 0.0
O640 O 0.41211 0.37764 0.40495 0.0
O641 O 0.37543 0.32336 0.34026 0.0
O642 O 0.40765 0.27286 0.27209 0.0
O643 O 0.4558 0.35462 0.2948 0.0
O644 O 0.3294 0.20834 0.21083 0.0
O645 O 0.30113 0.21859 0.27823 0.0
O646 O 0.34112 0.30125 0.18489 0.0
O647 O 0.37798 0.35379 0.24922 0.0
H648 H 0.35617 0.44544 0.27757 0.0
H649 H 0.30155 0.48449 0.26313 0.0
H650 H 0.38954 0.63299 0.34419 0.0
H651 H 0.44308 0.59113 0.36665 0.0
H652 H 0.36446 0.221 0.33774 0.0
H653 H 0.41954 0.18805 0.3705 0.0
H654 H 0.39082 0.06938 0.22884 0.0
H655 H 0.33418 0.10241 0.196 0.0
Ho656 Ho 0.63097 0.63676 0.07245 0.0
Ho657 Ho 0.64548 0.55605 0.01923 0.0
C658 C 0.59518 0.60356 0.94588 0.0
C659 C 0.63451 0.73112 0.10336 0.0
C660 C 0.6485 0.76423 0.07205 0.0
C661 C 0.66119 0.74219 0.02765 0.0
C662 C 0.6759 0.77072 0.99613 0.0
C663 C 0.67997 0.82261 1.01 0.0
C664 C 0.66734 0.84573 0.05424 0.0
C665 C 0.65111 0.81614 0.08534 0.0
C666 C 0.56877 0.55389 0.08008 0.0
C667 C 0.68021 0.58421 0.14423 0.0
C668 C 0.64009 0.46126 0.98946 0.0
C669 C 0.62356 0.4284 0.01988 0.0
C670 C 0.61014 0.45088 0.06361 0.0
C671 C 0.59103 0.42166 0.09247 0.0
C672 C 0.58407 0.36893 0.07722 0.0
C673 C 0.5979 0.34589 0.03376 0.0
C674 C 0.61773 0.37581 1.00496 0.0
C675 C 0.70285 0.63758 1.00397 0.0
O676 O 0.59757 0.63653 0.99065 0.0
O677 O 0.61178 0.56586 0.94737 0.0
O678 O 0.59877 0.69533 0.08258 0.0
O679 O 0.6642 0.71312 0.12034 0.0
O680 O 0.58901 0.59448 0.1169 0.0
O681 O 0.58318 0.56067 0.0407 0.0
O682 O 0.67983 0.55538 0.09838 0.0
O683 O 0.66234 0.62162 0.14522 0.0
O684 O 0.67615 0.49608 1.01141 0.0
O685 O 0.61175 0.48024 0.971 0.0
O686 O 0.68534 0.5938 0.97046 0.0
O687 O 0.6919 0.63451 0.04621 0.0
H688 H 0.66082 0.70297 0.01793 0.0
H689 H 0.68544 0.75267 0.9619 0.0
H690 H 0.66971 0.88614 0.06428 0.0
H691 H 0.64134 0.83356 0.11952 0.0
H692 H 0.61345 0.49106 0.07488 0.0
H693 H 0.58094 0.44018 0.12602 0.0
H694 H 0.59368 0.30504 0.02237 0.0
H695 H 0.62781 0.35811 0.97111 0.0
Ho696 Ho 0.91999 0.38902 0.27943 0.0
Ho697 Ho 0.84643 0.31251 0.30048 0.0
C698 C 0.93474 0.27409 0.29776 0.0
C699 C 0.99382 0.44983 0.29439 0.0
C700 C 0.03318 0.43587 0.29683 0.0
C701 C 0.04187 0.40718 0.3297 0.0
C702 C 0.07884 0.39337 0.33209 0.0
C703 C 0.10877 0.41006 0.3034 0.0
C704 C 0.09845 0.43434 0.26701 0.0
C705 C 0.0605 0.44711 0.26365 0.0
C706 C 0.87947 0.3102 0.20154 0.0
C707 C 0.83131 0.4265 0.27956 0.0
C708 C 0.77247 0.25199 0.2867 0.0
C709 C 0.73419 0.26736 0.2781 0.0
C710 C 0.73208 0.29833 0.24547 0.0
C711 C 0.69782 0.31673 0.23888 0.0
C712 C 0.6635 0.30128 0.26178 0.0
C713 C 0.66628 0.27307 0.297 0.0
C714 C 0.70196 0.25643 0.30549 0.0
C715 C 0.88739 0.39242 0.37798 0.0
O716 O 0.95167 0.32255 0.294 0.0
O717 O 0.89327 0.26146 0.30073 0.0
O718 O 0.96888 0.43261 0.2494 0.0
O719 O 0.97389 0.44406 0.33182 0.0
O720 O 0.89385 0.3556 0.19551 0.0
O721 O 0.88762 0.31068 0.24658 0.0
O722 O 0.81472 0.37822 0.28381 0.0
O723 O 0.87298 0.4397 0.27772 0.0
O724 O 0.79601 0.27359 0.33231 0.0
O725 O 0.79417 0.25244 0.2501 0.0
O726 O 0.87379 0.34691 0.38419 0.0
O727 O 0.87853 0.39116 0.33283 0.0
H728 H 0.02076 0.39632 0.35468 0.0
H729 H 0.08548 0.37363 0.35995 0.0
H730 H 0.12084 0.44676 0.24397 0.0
H731 H 0.05318 0.46725 0.23651 0.0
H732 H 0.75642 0.30757 0.22371 0.0
H733 H 0.69644 0.33873 0.21177 0.0
H734 H 0.63981 0.26067 0.31491 0.0
H735 H 0.70378 0.23381 0.33188 0.0
Ho736 Ho 0.13574 0.57065 0.58119 0.0
Ho737 Ho 0.12184 0.62095 0.50178 0.0
C738 C 0.04884 0.53319 0.5012 0.0
C739 C 0.13583 0.53898 0.65887 0.0
C740 C 0.10015 0.52395 0.68107 0.0
C741 C 0.06626 0.5445 0.67415 0.0
C742 C 0.03055 0.52747 0.69317 0.0
C743 C 0.02911 0.49 0.71876 0.0
C744 C 0.06064 0.46499 0.7194 0.0
C745 C 0.09657 0.48255 0.70098 0.0
C746 C 0.17441 0.53189 0.50722 0.0
C747 C 0.21254 0.64855 0.57391 0.0
C748 C 0.12812 0.66788 0.43523 0.0
C749 C 0.1636 0.6868 0.41367 0.0
C750 C 0.19301 0.65951 0.40326 0.0
C751 C 0.22253 0.67553 0.37489 0.0
C752 C 0.22143 0.71784 0.35647 0.0
C753 C 0.19699 0.74944 0.37505 0.0
C754 C 0.16786 0.73361 0.40353 0.0
C755 C 0.07879 0.64427 0.57633 0.0
O756 O 0.06648 0.5388 0.54829 0.0
O757 O 0.072 0.54764 0.46952 0.0
O758 O 0.13075 0.50857 0.61336 0.0
O759 O 0.14921 0.58798 0.66251 0.0
O760 O 0.17343 0.51949 0.54877 0.0
O761 O 0.15476 0.5645 0.50644 0.0
O762 O 0.19199 0.64531 0.52895 0.0
O763 O 0.19275 0.63569 0.60857 0.0
O764 O 0.13283 0.69173 0.48332 0.0
O765 O 0.1126 0.6178 0.42309 0.0
O766 O 0.06618 0.64043 0.52933 0.0
O767 O 0.11623 0.64058 0.5829 0.0
H768 H 0.06805 0.57465 0.65572 0.0
H769 H 1.0068 0.54782 0.69343 0.0
H770 H 0.05993 0.43659 0.73998 0.0
H771 H 0.12202 0.46498 0.70353 0.0
H772 H 0.19121 0.62435 0.4137 0.0
H773 H 0.24227 0.6514 0.3624 0.0
H774 H 0.19674 0.78313 0.36274 0.0
H775 H 0.14643 0.75591 0.41428 0.0
Ho776 Ho 0.842 0.87615 0.29772 0.0
Ho777 Ho 0.9099 0.82751 0.29021 0.0
C778 C 0.89861 0.87743 0.40192 0.0
C779 C 0.77164 0.89388 0.31306 0.0
C780 C 0.73921 0.8761 0.34118 0.0
C781 C 0.73971 0.83607 0.36326 0.0
C782 C 0.70668 0.81821 0.38735 0.0
C783 C 0.6731 0.84008 0.38901 0.0
C784 C 0.67406 0.88177 0.36937 0.0
C785 C 0.70695 0.89962 0.34555 0.0
C786 C 0.91041 0.95077 0.28155 0.0
C787 C 0.848 0.81836 0.18657 0.0
C788 C 0.97931 0.80815 0.27615 0.0
C789 C 1.00819 0.81367 0.24133 0.0
C790 C 0.02241 0.85922 0.22778 0.0
C791 C 0.05765 0.86642 0.20462 0.0
C792 C 0.07836 0.82832 0.19612 0.0
C793 C 0.05974 0.78018 0.20238 0.0
C794 C 0.02465 0.77293 0.22497 0.0
C795 C 0.84343 0.75237 0.30515 0.0
O796 O 0.86195 0.87885 0.37916 0.0
O797 O 0.92641 0.86455 0.37518 0.0
O798 O 0.80852 0.92206 0.34087 0.0
O799 O 0.77447 0.85983 0.273 0.0
O800 O 0.87332 0.95544 0.28689 0.0
O801 O 0.90872 0.90539 0.28493 0.0
O802 O 0.88651 0.81992 0.20718 0.0
O803 O 0.82176 0.83182 0.21536 0.0
O804 O 0.94213 0.77538 0.25566 0.0
O805 O 0.97829 0.84983 0.30906 0.0
O806 O 0.88067 0.7486 0.3002 0.0
O807 O 0.84328 0.79756 0.30229 0.0
H808 H 0.76509 0.81829 0.36112 0.0
H809 H 0.70686 0.78688 0.40368 0.0
H810 H 0.64919 0.90027 0.37201 0.0
H811 H 0.70684 0.9313 0.32973 0.0
H812 H 1.00863 0.89032 0.23859 0.0
H813 H 0.07132 0.9034 0.1988 0.0
H814 H 0.07479 0.74989 0.19452 0.0
H815 H 1.0127 0.73699 0.23368 0.0
Ho816 Ho 0.89535 0.34691 0.76644 0.0
Ho817 Ho 0.84451 0.35421 0.81699 0.0
C818 C 0.91919 0.44628 0.85413 0.0
C819 C 0.95137 0.35477 0.71125 0.0
C820 C 0.94786 0.38309 0.67578 0.0
C821 C 0.91795 0.41051 0.6808 0.0
C822 C 0.91549 0.44349 0.6525 0.0
C823 C 0.94167 0.44724 0.61763 0.0
C824 C 0.96966 0.4175 0.60934 0.0
C825 C 0.97316 0.38519 0.63938 0.0
C826 C 0.92198 0.3049 0.84134 0.0
C827 C 0.81861 0.25658 0.72724 0.0
C828 C 0.79411 0.34425 0.87825 0.0
C829 C 0.79828 0.31194 0.90995 0.0
C830 C 0.82132 0.2768 0.89621 0.0
C831 C 0.82637 0.24484 0.92528 0.0
C832 C 0.81076 0.2504 0.96986 0.0
C833 C 0.78929 0.28688 0.98514 0.0
C834 C 0.78288 0.31783 0.95478 0.0
C835 C 0.82118 0.40025 0.74422 0.0
O836 O 0.91429 0.43199 0.80449 0.0
O837 O 0.89413 0.41599 0.87281 0.0
O838 O 0.95833 0.38343 0.75769 0.0
O839 O 0.91947 0.31388 0.70148 0.0
O840 O 0.909 0.28148 0.7936 0.0
O841 O 0.9087 0.34432 0.84668 0.0
O842 O 0.82161 0.26923 0.77642 0.0
O843 O 0.84203 0.28938 0.70899 0.0
O844 O 0.78325 0.31996 0.83026 0.0
O845 O 0.82697 0.384 0.88835 0.0
O846 O 0.82514 0.41783 0.79254 0.0
O847 O 0.83367 0.36032 0.73632 0.0
H848 H 0.89752 0.40781 0.70803 0.0
H849 H 0.89279 0.46527 0.65714 0.0
H850 H 0.98879 0.41986 0.58045 0.0
H851 H 0.99562 0.36316 0.63514 0.0
H852 H 0.8359 0.2743 0.86344 0.0
H853 H 0.84409 0.21775 0.91432 0.0
H854 H 0.77786 0.29155 0.02055 0.0
H855 H 0.76652 0.34625 0.96622 0.0
Ho856 Ho 0.91123 0.89383 0.82718 0.0
Ho857 Ho 0.84242 0.78373 0.76215 0.0
C858 C 0.80788 0.86876 0.82613 0.0
C859 C 0.93505 0.98869 0.8329 0.0
C860 C 0.90318 1.01502 0.82528 0.0
C861 C 0.86296 0.98559 0.79615 0.0
C862 C 0.83166 1.00812 0.78682 0.0
C863 C 0.84099 0.06129 0.80269 0.0
C864 C 0.881 0.09131 0.83255 0.0
C865 C 0.91187 0.06794 0.84465 0.0
C866 C 0.88244 0.83343 0.88854 0.0
C867 C 0.94492 0.80471 0.77323 0.0
C868 C 0.81488 0.68771 0.74522 0.0
C869 C 0.84297 0.66194 0.76626 0.0
C870 C 0.86928 0.68737 0.81427 0.0
C871 C 0.90197 0.66986 0.83207 0.0
C872 C 0.90907 0.62675 0.8019 0.0
C873 C 0.88378 0.60137 0.75341 0.0
C874 C 0.85107 0.61941 0.73531 0.0
C875 C 0.8709 0.84491 0.70125 0.0
O876 O 0.84674 0.90072 0.83884 0.0
O877 O 0.79685 0.82187 0.79468 0.0
O878 O 0.93642 0.97258 0.87341 0.0
O879 O 0.9348 0.95343 0.79227 0.0
O880 O 0.91216 0.8776 0.90497 0.0
O881 O 0.87552 0.82337 0.84023 0.0
O882 O 0.90764 0.77289 0.77174 0.0
O883 O 0.95588 0.85464 0.79486 0.0
O884 O 0.82927 0.70831 0.7109 0.0
O885 O 0.80132 0.71868 0.77856 0.0
O886 O 0.84107 0.80132 0.68492 0.0
O887 O 0.878 0.85383 0.74926 0.0
H888 H 0.85624 0.94526 0.77756 0.0
H889 H 0.80138 0.98404 0.76335 0.0
H890 H 0.88906 0.13271 0.84453 0.0
H891 H 0.94284 0.09109 0.86681 0.0
H892 H 0.86605 0.72247 0.83713 0.0
H893 H 0.92157 0.68983 0.86937 0.0
H894 H 0.88969 0.56817 0.72952 0.0
H895 H 0.83296 0.60122 0.69699 0.0
Ho896 Ho 0.60073 0.56538 0.5178 0.0
Ho897 Ho 0.65681 0.63172 0.57978 0.0
C898 C 0.60042 0.68333 0.52375 0.0
C899 C 0.52119 0.51927 0.47994 0.0
C900 C 0.48703 0.54049 0.4955 0.0
C901 C 0.49795 0.59071 0.52738 0.0
C902 C 0.4669 0.61254 0.54258 0.0
C903 C 0.42419 0.58365 0.52812 0.0
C904 C 0.41288 0.53283 0.49761 0.0
C905 C 0.44435 0.51115 0.48205 0.0
C906 C 0.66515 0.57921 0.45929 0.0
C907 C 0.65794 0.51509 0.57552 0.0
C908 C 0.738 0.67256 0.61186 0.0
C909 C 0.77036 0.64879 0.59344 0.0
C910 C 0.75761 0.59716 0.56482 0.0
C911 C 0.7871 0.57292 0.54835 0.0
C912 C 0.83004 0.60058 0.55787 0.0
C913 C 0.84297 0.65296 0.58394 0.0
C914 C 0.81314 0.67698 0.60121 0.0
C915 C 0.5914 0.62473 0.63768 0.0
O916 O 0.5854 0.63461 0.49811 0.0
O917 O 0.63105 0.69538 0.56359 0.0
O918 O 0.54623 0.54545 0.4568 0.0
O919 O 0.54263 0.50736 0.51539 0.0
O920 O 0.63971 0.53533 0.45922 0.0
O921 O 0.65506 0.61327 0.49282 0.0
O922 O 0.67037 0.56323 0.60272 0.0
O923 O 0.62943 0.50338 0.53375 0.0
O924 O 0.71353 0.6483 0.63697 0.0
O925 O 0.71599 0.6859 0.57808 0.0
O926 O 0.62132 0.66607 0.63957 0.0
O927 O 0.5989 0.58769 0.60433 0.0
H928 H 0.53054 0.61266 0.54254 0.0
H929 H 0.47658 0.65126 0.56761 0.0
H930 H 0.37996 0.50972 0.48672 0.0
H931 H 0.43548 0.47126 0.46098 0.0
H932 H 0.72467 0.57563 0.55368 0.0
H933 H 0.77605 0.53281 0.5269 0.0
H934 H 0.87602 0.67517 0.59116 0.0
H935 H 0.82344 0.71743 0.62017 0.0
Ho936 Ho 0.18335 0.59735 0.03441 0.0
Ho937 Ho 0.09683 0.60316 0.05698 0.0
C938 C 0.10666 0.49096 1.00622 0.0
C939 C 0.259 0.59227 0.03441 0.0
C940 C 0.27927 0.5533 0.04018 0.0
C941 C 0.27182 0.52823 0.07771 0.0
C942 C 0.29537 0.49615 0.08732 0.0
C943 C 0.3252 0.4874 0.05773 0.0
C944 C 0.32901 0.50723 0.01606 0.0
C945 C 0.30631 0.5407 1.00759 0.0
C946 C 0.13278 0.61333 0.95944 0.0
C947 C 0.17262 0.70911 0.08445 0.0
C948 C 0.02012 0.60217 0.05769 0.0
C949 C 0.99633 0.63897 0.05914 0.0
C950 C 0.98806 0.65766 0.01737 0.0
C951 C 0.95703 0.6827 0.01537 0.0
C952 C 0.93455 0.6885 0.055 0.0
C953 C 0.94745 0.67672 0.09968 0.0
C954 C 0.97808 0.6516 0.10158 0.0
C955 C 0.14764 0.58787 0.13057 0.0
O956 O 0.14843 0.51244 0.01741 0.0
O957 O 0.08031 0.5193 1.01217 0.0
O958 O 0.23052 0.57892 0.99279 0.0
O959 O 0.24741 0.61602 0.07492 0.0
O960 O 0.16376 0.59377 0.95327 0.0
O961 O 0.13543 0.63021 1.00612 0.0
O962 O 0.13071 0.68824 0.0713 0.0
O963 O 0.19864 0.68014 0.08056 0.0
O964 O 0.04787 0.61108 0.0991 0.0
O965 O 0.03343 0.58672 0.01557 0.0
O966 O 0.12326 0.61703 0.13939 0.0
O967 O 0.14344 0.56838 0.08402 0.0
H968 H 0.2491 0.53472 0.10069 0.0
H969 H 0.29163 0.4801 0.11899 0.0
H970 H 0.35103 0.49907 0.99177 0.0
H971 H 0.31091 0.55801 0.97689 0.0
H972 H 1.00299 0.64962 0.98485 0.0
H973 H 0.94779 0.69258 0.98098 0.0
H974 H 0.93111 0.68258 0.13125 0.0
H975 H 0.98505 0.63861 0.13465 0.0
loop_
_geom_bond_atom_site_label_1
_geom_bond_atom_site_label_2
_geom_bond_distance
_geom_bond_site_symmetry_2
_ccdc_geom_bond_type
C0 O1 1.306 . S
C0 O3 1.160 . S
O1 C0 1.306 . S
O1 Cd2 2.228 . S
Cd2 O1 2.228 . S
Cd2 O6 2.273 . S
Cd2 O10 2.277 . S
O3 C0 1.160 . S
O3 Cd4 2.203 . S
Cd4 O3 2.203 . S
Cd4 O6 2.411 . S
Cd4 O7 2.333 . S
Cd4 O8 2.352 . S
Cd4 O12 2.277 . S
Cd4 O13 2.356 . S
C5 O10 1.209 . S
C5 O12 1.226 . S
O6 Cd2 2.273 . S
O6 Cd4 2.411 . S
O6 C9 1.320 . S
O7 Cd4 2.333 . S
O7 C9 1.214 . S
O8 Cd4 2.352 . S
O8 C11 1.258 . S
C9 O6 1.320 . S
C9 O7 1.214 . S
O10 Cd2 2.277 . S
O10 C5 1.209 . S
C11 O8 1.258 . S
C11 O13 1.282 . S
O12 Cd4 2.277 . S
O12 C5 1.226 . S
O13 Cd4 2.356 . S
O13 C11 1.282 . S
C14 O15 1.306 . S
C14 O17 1.160 . S
O15 C14 1.306 . S
O15 Cd16 2.228 1_655 S
Cd16 O15 2.228 1_455 S
Cd16 O20 2.273 . S
Cd16 O24 2.277 1_455 S
O17 C14 1.160 . S
O17 Cd18 2.203 1_655 S
Cd18 O17 2.203 1_455 S
Cd18 O20 2.411 . S
Cd18 O21 2.333 . S
Cd18 O22 2.352 . S
Cd18 O26 2.277 1_455 S
Cd18 O27 2.356 . S
C19 O24 1.209 . S
C19 O26 1.226 . S
O20 Cd16 2.273 . S
O20 Cd18 2.411 . S
O20 C23 1.320 . S
O21 Cd18 2.333 . S
O21 C23 1.214 . S
O22 Cd18 2.352 . S
O22 C25 1.258 . S
C23 O20 1.320 . S
C23 O21 1.214 . S
O24 Cd16 2.277 1_655 S
O24 C19 1.209 . S
C25 O22 1.258 . S
C25 O27 1.282 . S
O26 Cd18 2.277 1_655 S
O26 C19 1.226 . S
O27 Cd18 2.356 . S
O27 C25 1.282 . S
C28 O29 1.306 . S
C28 O31 1.160 . S
O29 C28 1.306 . S
O29 Cd30 2.228 . S
Cd30 O29 2.228 . S
Cd30 O34 2.273 . S
Cd30 O38 2.277 1_565 S
O31 C28 1.160 . S
O31 Cd32 2.203 . S
Cd32 O31 2.203 . S
Cd32 O34 2.411 . S
Cd32 O35 2.333 . S
Cd32 O36 2.352 . S
Cd32 O40 2.277 1_565 S
Cd32 O41 2.356 . S
C33 O38 1.209 . S
C33 O40 1.226 . S
O34 Cd30 2.273 . S
O34 Cd32 2.411 . S
O34 C37 1.320 . S
O35 Cd32 2.333 . S
O35 C37 1.214 . S
O36 Cd32 2.352 . S
O36 C39 1.258 . S
C37 O34 1.320 . S
C37 O35 1.214 . S
O38 Cd30 2.277 1_545 S
O38 C33 1.209 . S
C39 O36 1.258 . S
C39 O41 1.282 . S
O40 Cd32 2.277 1_545 S
O40 C33 1.226 . S
O41 Cd32 2.356 . S
O41 C39 1.282 . S
C42 O43 1.306 . S
C42 O45 1.160 . S
O43 C42 1.306 . S
O43 Cd44 2.228 . S
Cd44 O43 2.228 . S
Cd44 O48 2.273 . S
Cd44 O52 2.277 . S
O45 C42 1.160 . S
O45 Cd46 2.203 . S
Cd46 O45 2.203 . S
Cd46 O48 2.411 . S
Cd46 O49 2.333 . S
Cd46 O50 2.352 . S
Cd46 O54 2.277 . S
Cd46 O55 2.356 . S
C47 O52 1.209 . S
C47 O54 1.226 . S
O48 Cd44 2.273 . S
O48 Cd46 2.411 . S
O48 C51 1.320 . S
O49 Cd46 2.333 . S
O49 C51 1.214 . S
O50 Cd46 2.352 . S
O50 C53 1.258 . S
C51 O48 1.320 . S
C51 O49 1.214 . S
O52 Cd44 2.277 . S
O52 C47 1.209 . S
C53 O50 1.258 . S
C53 O55 1.282 . S
O54 Cd46 2.277 . S
O54 C47 1.226 . S
O55 Cd46 2.356 . S
O55 C53 1.282 . S
C56 O57 1.306 . S
C56 O59 1.160 . S
O57 C56 1.306 . S
O57 Cd58 2.228 . S
Cd58 O57 2.228 . S
Cd58 O62 2.273 . S
Cd58 O66 2.277 . S
O59 C56 1.160 . S
O59 Cd60 2.203 . S
Cd60 O59 2.203 . S
Cd60 O62 2.411 . S
Cd60 O63 2.333 . S
Cd60 O64 2.352 . S
Cd60 O68 2.277 . S
Cd60 O69 2.356 . S
C61 O66 1.209 . S
C61 O68 1.226 . S
O62 Cd58 2.273 . S
O62 Cd60 2.411 . S
O62 C65 1.320 . S
O63 Cd60 2.333 . S
O63 C65 1.214 . S
O64 Cd60 2.352 . S
O64 C67 1.258 . S
C65 O62 1.320 . S
C65 O63 1.214 . S
O66 Cd58 2.277 . S
O66 C61 1.209 . S
C67 O64 1.258 . S
C67 O69 1.282 . S
O68 Cd60 2.277 . S
O68 C61 1.226 . S
O69 Cd60 2.356 . S
O69 C67 1.282 . S
C70 O71 1.306 . S
C70 O73 1.160 . S
O71 C70 1.306 . S
O71 Cd72 2.228 . S
Cd72 O71 2.228 . S
Cd72 O76 2.273 . S
Cd72 O80 2.277 . S
O73 C70 1.160 . S
O73 Cd74 2.203 . S
Cd74 O73 2.203 . S
Cd74 O76 2.411 . S
Cd74 O77 2.333 . S
Cd74 O78 2.352 . S
Cd74 O82 2.277 . S
Cd74 O83 2.356 . S
C75 O80 1.209 . S
C75 O82 1.226 . S
O76 Cd72 2.273 . S
O76 Cd74 2.411 . S
O76 C79 1.320 . S
O77 Cd74 2.333 . S
O77 C79 1.214 . S
O78 Cd74 2.352 . S
O78 C81 1.258 . S
C79 O76 1.320 . S
C79 O77 1.214 . S
O80 Cd72 2.277 . S
O80 C75 1.209 . S
C81 O78 1.258 . S
C81 O83 1.282 . S
O82 Cd74 2.277 . S
O82 C75 1.226 . S
O83 Cd74 2.356 . S
O83 C81 1.282 . S
C84 O85 1.306 . S
C84 O87 1.160 . S
O85 C84 1.306 . S
O85 Cd86 2.228 . S
Cd86 O85 2.228 . S
Cd86 O90 2.273 . S
Cd86 O94 2.277 . S
O87 C84 1.160 . S
O87 Cd88 2.203 . S
Cd88 O87 2.203 . S
Cd88 O90 2.411 . S
Cd88 O91 2.333 . S
Cd88 O92 2.352 . S
Cd88 O96 2.277 . S
Cd88 O97 2.356 . S
C89 O94 1.209 . S
C89 O96 1.226 . S
O90 Cd86 2.273 . S
O90 Cd88 2.411 . S
O90 C93 1.320 . S
O91 Cd88 2.333 . S
O91 C93 1.214 . S
O92 Cd88 2.352 . S
O92 C95 1.258 . S
C93 O90 1.320 . S
C93 O91 1.214 . S
O94 Cd86 2.277 . S
O94 C89 1.209 . S
C95 O92 1.258 . S
C95 O97 1.282 . S
O96 Cd88 2.277 . S
O96 C89 1.226 . S
O97 Cd88 2.356 . S
O97 C95 1.282 . S
C98 O99 1.306 . S
C98 O101 1.160 . S
O99 C98 1.306 . S
O99 Cd100 2.228 1_655 S
Cd100 O99 2.228 1_455 S
Cd100 O104 2.273 . S
Cd100 O108 2.277 . S
O101 C98 1.160 . S
O101 Cd102 2.203 1_655 S
Cd102 O101 2.203 1_455 S
Cd102 O104 2.411 . S
Cd102 O105 2.333 . S
Cd102 O106 2.352 . S
Cd102 O110 2.277 1_556 S
Cd102 O111 2.356 1_556 S
C103 O108 1.209 1_554 S
C103 O110 1.226 . S
O104 Cd100 2.273 . S
O104 Cd102 2.411 . S
O104 C107 1.320 . S
O105 Cd102 2.333 . S
O105 C107 1.214 . S
O106 Cd102 2.352 . S
O106 C109 1.258 . S
C107 O104 1.320 . S
C107 O105 1.214 . S
O108 Cd100 2.277 . S
O108 C103 1.209 1_556 S
C109 O106 1.258 . S
C109 O111 1.282 1_556 S
O110 Cd102 2.277 1_554 S
O110 C103 1.226 . S
O111 Cd102 2.356 1_554 S
O111 C109 1.282 1_554 S
C112 O113 1.308 . S
C112 O115 1.160 . S
O113 C112 1.308 . S
O113 Cd114 2.226 1_545 S
Cd114 O113 2.226 1_565 S
Cd114 O118 2.273 1_565 S
Cd114 O122 2.277 . S
O115 C112 1.160 . S
O115 Cd116 2.203 . S
Cd116 O115 2.203 . S
Cd116 O118 2.411 . S
Cd116 O119 2.333 1_545 S
Cd116 O120 2.352 . S
Cd116 O124 2.277 1_545 S
Cd116 O125 2.356 . S
C117 O122 1.209 . S
C117 O124 1.226 . S
O118 Cd114 2.273 1_545 S
O118 Cd116 2.411 . S
O118 C121 1.320 1_545 S
O119 Cd116 2.333 1_565 S
O119 C121 1.214 . S
O120 Cd116 2.352 . S
O120 C123 1.258 . S
C121 O118 1.320 1_565 S
C121 O119 1.214 . S
O122 Cd114 2.277 . S
O122 C117 1.209 . S
C123 O120 1.258 . S
C123 O125 1.282 . S
O124 Cd116 2.277 1_565 S
O124 C117 1.226 . S
O125 Cd116 2.356 . S
O125 C123 1.282 . S
C126 O127 1.306 . S
C126 O129 1.160 . S
O127 C126 1.306 . S
O127 Cd128 2.228 . S
Cd128 O127 2.228 . S
Cd128 O132 2.273 . S
Cd128 O136 2.277 . S
O129 C126 1.160 . S
O129 Cd130 2.203 . S
Cd130 O129 2.203 . S
Cd130 O132 2.411 . S
Cd130 O133 2.333 . S
Cd130 O134 2.352 . S
Cd130 O138 2.277 . S
Cd130 O139 2.356 . S
C131 O136 1.209 . S
C131 O138 1.226 . S
O132 Cd128 2.273 . S
O132 Cd130 2.411 . S
O132 C135 1.320 . S
O133 Cd130 2.333 . S
O133 C135 1.214 . S
O134 Cd130 2.352 . S
O134 C137 1.258 . S
C135 O132 1.320 . S
C135 O133 1.214 . S
O136 Cd128 2.277 . S
O136 C131 1.209 . S
C137 O134 1.258 . S
C137 O139 1.282 . S
O138 Cd130 2.277 . S
O138 C131 1.226 . S
O139 Cd130 2.356 . S
O139 C137 1.282 . S
C140 O141 1.306 . S
C140 O143 1.160 . S
O141 C140 1.306 . S
O141 Cd142 2.228 . S
Cd142 O141 2.228 . S
Cd142 O146 2.273 . S
Cd142 O150 2.277 . S
O143 C140 1.160 . S
O143 Cd144 2.203 . S
Cd144 O143 2.203 . S
Cd144 O146 2.411 . S
Cd144 O147 2.333 . S
Cd144 O148 2.352 1_545 S
Cd144 O152 2.277 . S
Cd144 O153 2.356 1_545 S
C145 O150 1.209 . S
C145 O152 1.226 . S
O146 Cd142 2.273 . S
O146 Cd144 2.411 . S
O146 C149 1.320 . S
O147 Cd144 2.333 . S
O147 C149 1.214 . S
O148 Cd144 2.352 1_565 S
O148 C151 1.258 . S
C149 O146 1.320 . S
C149 O147 1.214 . S
O150 Cd142 2.277 . S
O150 C145 1.209 . S
C151 O148 1.258 . S
C151 O153 1.282 . S
O152 Cd144 2.277 . S
O152 C145 1.226 . S
O153 Cd144 2.356 1_565 S
O153 C151 1.282 . S
C154 O155 1.306 1_554 S
C154 O157 1.160 . S
O155 C154 1.306 1_556 S
O155 Cd156 2.228 . S
Cd156 O155 2.228 . S
Cd156 O160 2.273 1_556 S
Cd156 O164 2.277 1_545 S
O157 C154 1.160 . S
O157 Cd158 2.203 1_545 S
Cd158 O157 2.203 1_565 S
Cd158 O160 2.411 1_565 S
Cd158 O161 2.333 1_554 S
Cd158 O162 2.352 1_565 S
Cd158 O166 2.277 1_554 S
Cd158 O167 2.356 . S
C159 O164 1.209 . S
C159 O166 1.226 . S
O160 Cd156 2.273 1_554 S
O160 Cd158 2.411 1_545 S
O160 C163 1.317 . S
O161 Cd158 2.333 1_556 S
O161 C163 1.218 1_566 S
O162 Cd158 2.352 1_545 S
O162 C165 1.258 1_545 S
C163 O160 1.317 . S
C163 O161 1.218 1_544 S
O164 Cd156 2.277 1_565 S
O164 C159 1.209 . S
C165 O162 1.258 1_565 S
C165 O167 1.282 . S
O166 Cd158 2.277 1_556 S
O166 C159 1.226 . S
O167 Cd158 2.356 . S
O167 C165 1.282 . S
C168 O169 1.306 . S
C168 O171 1.160 . S
O169 C168 1.306 . S
O169 Cd170 2.240 . S
Cd170 O169 2.240 . S
Cd170 O174 2.295 . S
Cd170 O178 2.274 1_554 S
O171 C168 1.160 . S
O171 Cd172 2.203 . S
Cd172 O171 2.203 . S
Cd172 O174 2.411 . S
Cd172 O175 2.333 . S
Cd172 O176 2.352 . S
Cd172 O180 2.277 1_554 S
Cd172 O181 2.356 . S
C173 O178 1.209 . S
C173 O180 1.226 . S
O174 Cd170 2.295 . S
O174 Cd172 2.411 . S
O174 C177 1.320 . S
O175 Cd172 2.333 . S
O175 C177 1.214 . S
O176 Cd172 2.352 . S
O176 C179 1.258 . S
C177 O174 1.320 . S
C177 O175 1.214 . S
O178 Cd170 2.274 1_556 S
O178 C173 1.209 . S
C179 O176 1.258 . S
C179 O181 1.282 . S
O180 Cd172 2.277 1_556 S
O180 C173 1.226 . S
O181 Cd172 2.356 . S
O181 C179 1.282 . S
C182 O183 1.306 . S
C182 O185 1.160 . S
O183 C182 1.306 . S
O183 Cd184 2.228 . S
Cd184 O183 2.228 . S
Cd184 O188 2.273 . S
Cd184 O192 2.277 . S
O185 C182 1.160 . S
O185 Cd186 2.203 . S
Cd186 O185 2.203 . S
Cd186 O188 2.411 . S
Cd186 O189 2.333 . S
Cd186 O190 2.352 1_554 S
Cd186 O194 2.277 . S
Cd186 O195 2.356 . S
C187 O192 1.209 . S
C187 O194 1.226 . S
O188 Cd184 2.273 . S
O188 Cd186 2.411 . S
O188 C191 1.320 . S
O189 Cd186 2.333 . S
O189 C191 1.214 . S
O190 Cd186 2.352 1_556 S
O190 C193 1.258 . S
C191 O188 1.320 . S
C191 O189 1.214 . S
O192 Cd184 2.277 . S
O192 C187 1.209 . S
C193 O190 1.258 . S
C193 O195 1.282 1_556 S
O194 Cd186 2.277 . S
O194 C187 1.226 . S
O195 Cd186 2.356 . S
O195 C193 1.282 1_554 S
C196 O197 1.306 . S
C196 O199 1.160 . S
O197 C196 1.306 . S
O197 Cd198 2.228 . S
Cd198 O197 2.228 . S
Cd198 O202 2.273 . S
Cd198 O206 2.277 . S
O199 C196 1.160 . S
O199 Cd200 2.203 . S
Cd200 O199 2.203 . S
Cd200 O202 2.411 . S
Cd200 O203 2.333 . S
Cd200 O204 2.352 . S
Cd200 O208 2.277 . S
Cd200 O209 2.356 . S
C201 O206 1.209 . S
C201 O208 1.226 . S
O202 Cd198 2.273 . S
O202 Cd200 2.411 . S
O202 C205 1.320 . S
O203 Cd200 2.333 . S
O203 C205 1.214 . S
O204 Cd200 2.352 . S
O204 C207 1.258 . S
C205 O202 1.320 . S
C205 O203 1.214 . S
O206 Cd198 2.277 . S
O206 C201 1.209 . S
C207 O204 1.258 . S
C207 O209 1.282 . S
O208 Cd200 2.277 . S
O208 C201 1.226 . S
O209 Cd200 2.356 . S
O209 C207 1.282 . S
C210 O211 1.306 . S
C210 O213 1.160 . S
O211 C210 1.306 . S
O211 Cd212 2.228 . S
Cd212 O211 2.228 . S
Cd212 O216 2.273 . S
Cd212 O220 2.277 . S
O213 C210 1.160 . S
O213 Cd214 2.203 . S
Cd214 O213 2.203 . S
Cd214 O216 2.411 . S
Cd214 O217 2.333 . S
Cd214 O218 2.352 . S
Cd214 O222 2.277 . S
Cd214 O223 2.356 . S
C215 O220 1.209 . S
C215 O222 1.226 . S
O216 Cd212 2.273 . S
O216 Cd214 2.411 . S
O216 C219 1.320 . S
O217 Cd214 2.333 . S
O217 C219 1.214 . S
O218 Cd214 2.352 . S
O218 C221 1.258 . S
C219 O216 1.320 . S
C219 O217 1.214 . S
O220 Cd212 2.277 . S
O220 C215 1.209 . S
C221 O218 1.258 . S
C221 O223 1.282 . S
O222 Cd214 2.277 . S
O222 C215 1.226 . S
O223 Cd214 2.356 . S
O223 C221 1.282 . S
C224 O225 1.306 . S
C224 O227 1.160 . S
O225 C224 1.306 . S
O225 Cd226 2.228 . S
Cd226 O225 2.228 . S
Cd226 O230 2.273 . S
Cd226 O234 2.277 1_455 S
O227 C224 1.160 . S
O227 Cd228 2.203 1_455 S
Cd228 O227 2.203 1_655 S
Cd228 O230 2.411 1_655 S
Cd228 O231 2.333 . S
Cd228 O232 2.352 1_655 S
Cd228 O236 2.277 . S
Cd228 O237 2.356 . S
C229 O234 1.209 1_565 S
C229 O236 1.226 1_565 S
O230 Cd226 2.273 . S
O230 Cd228 2.411 1_455 S
O230 C233 1.320 . S
O231 Cd228 2.333 . S
O231 C233 1.214 1_655 S
O232 Cd228 2.352 1_455 S
O232 C235 1.258 1_455 S
C233 O230 1.320 . S
C233 O231 1.214 1_455 S
O234 Cd226 2.277 1_655 S
O234 C229 1.209 1_545 S
C235 O232 1.258 1_655 S
C235 O237 1.282 . S
O236 Cd228 2.277 . S
O236 C229 1.226 1_545 S
O237 Cd228 2.356 . S
O237 C235 1.282 . S
C238 O239 1.306 . S
C238 O241 1.160 . S
O239 C238 1.306 . S
O239 Cd240 2.228 . S
Cd240 O239 2.228 . S
Cd240 O244 2.273 . S
Cd240 O248 2.277 . S
O241 C238 1.160 . S
O241 Cd242 2.203 . S
Cd242 O241 2.203 . S
Cd242 O244 2.411 . S
Cd242 O245 2.333 . S
Cd242 O246 2.352 . S
Cd242 O250 2.277 . S
Cd242 O251 2.356 . S
C243 O248 1.209 . S
C243 O250 1.226 . S
O244 Cd240 2.273 . S
O244 Cd242 2.411 . S
O244 C247 1.320 . S
O245 Cd242 2.333 . S
O245 C247 1.214 . S
O246 Cd242 2.352 . S
O246 C249 1.258 . S
C247 O244 1.320 . S
C247 O245 1.214 . S
O248 Cd240 2.277 . S
O248 C243 1.209 . S
C249 O246 1.258 . S
C249 O251 1.282 . S
O250 Cd242 2.277 . S
O250 C243 1.226 . S
O251 Cd242 2.356 . S
O251 C249 1.282 . S
C252 O253 1.306 . S
C252 O255 1.160 . S
O253 C252 1.306 . S
O253 Cd254 2.228 . S
Cd254 O253 2.228 . S
Cd254 O258 2.273 . S
Cd254 O262 2.277 . S
O255 C252 1.160 . S
O255 Cd256 2.203 . S
Cd256 O255 2.203 . S
Cd256 O258 2.411 . S
Cd256 O259 2.333 . S
Cd256 O260 2.352 . S
Cd256 O264 2.277 . S
Cd256 O265 2.356 . S
C257 O262 1.209 . S
C257 O264 1.226 . S
O258 Cd254 2.273 . S
O258 Cd256 2.411 . S
O258 C261 1.320 . S
O259 Cd256 2.333 . S
O259 C261 1.214 . S
O260 Cd256 2.352 . S
O260 C263 1.258 . S
C261 O258 1.320 . S
C261 O259 1.214 . S
O262 Cd254 2.277 . S
O262 C257 1.209 . S
C263 O260 1.258 . S
C263 O265 1.282 . S
O264 Cd256 2.277 . S
O264 C257 1.226 . S
O265 Cd256 2.356 . S
O265 C263 1.282 . S
C266 O267 1.306 . S
C266 O269 1.160 . S
O267 C266 1.306 . S
O267 Cd268 2.228 . S
Cd268 O267 2.228 . S
Cd268 O272 2.273 . S
Cd268 O276 2.277 . S
O269 C266 1.160 . S
O269 Cd270 2.203 . S
Cd270 O269 2.203 . S
Cd270 O272 2.411 . S
Cd270 O273 2.333 . S
Cd270 O274 2.352 . S
Cd270 O278 2.277 . S
Cd270 O279 2.356 . S
C271 O276 1.209 . S
C271 O278 1.226 . S
O272 Cd268 2.273 . S
O272 Cd270 2.411 . S
O272 C275 1.320 . S
O273 Cd270 2.333 . S
O273 C275 1.214 . S
O274 Cd270 2.352 . S
O274 C277 1.258 . S
C275 O272 1.320 . S
C275 O273 1.214 . S
O276 Cd268 2.277 . S
O276 C271 1.209 . S
C277 O274 1.258 . S
C277 O279 1.282 . S
O278 Cd270 2.277 . S
O278 C271 1.226 . S
O279 Cd270 2.356 . S
O279 C277 1.282 . S
C280 O281 1.306 . S
C280 O283 1.160 . S
O281 C280 1.306 . S
O281 Cd282 2.228 . S
Cd282 O281 2.228 . S
Cd282 O286 2.273 1_554 S
Cd282 O290 2.277 . S
O283 C280 1.160 . S
O283 Cd284 2.203 . S
Cd284 O283 2.203 . S
Cd284 O286 2.411 1_554 S
Cd284 O287 2.333 1_554 S
Cd284 O288 2.352 1_554 S
Cd284 O292 2.277 . S
Cd284 O293 2.356 1_554 S
C285 O290 1.209 . S
C285 O292 1.226 . S
O286 Cd282 2.273 1_556 S
O286 Cd284 2.411 1_556 S
O286 C289 1.320 . S
O287 Cd284 2.333 1_556 S
O287 C289 1.214 . S
O288 Cd284 2.352 1_556 S
O288 C291 1.258 . S
C289 O286 1.320 . S
C289 O287 1.214 . S
O290 Cd282 2.277 . S
O290 C285 1.209 . S
C291 O288 1.258 . S
C291 O293 1.282 . S
O292 Cd284 2.277 . S
O292 C285 1.226 . S
O293 Cd284 2.356 1_556 S
O293 C291 1.282 . S
C294 O295 1.306 . S
C294 O297 1.160 . S
O295 C294 1.306 . S
O295 Cd296 2.228 . S
Cd296 O295 2.228 . S
Cd296 O300 2.273 . S
Cd296 O304 2.277 1_455 S
O297 C294 1.160 . S
O297 Cd298 2.203 1_455 S
Cd298 O297 2.203 1_655 S
Cd298 O300 2.411 1_655 S
Cd298 O301 2.333 . S
Cd298 O302 2.352 1_655 S
Cd298 O306 2.277 . S
Cd298 O307 2.356 . S
C299 O304 1.209 . S
C299 O306 1.226 . S
O300 Cd296 2.273 . S
O300 Cd298 2.411 1_455 S
O300 C303 1.320 . S
O301 Cd298 2.333 . S
O301 C303 1.214 1_655 S
O302 Cd298 2.352 1_455 S
O302 C305 1.258 1_455 S
C303 O300 1.320 . S
C303 O301 1.214 1_455 S
O304 Cd296 2.277 1_655 S
O304 C299 1.209 . S
C305 O302 1.258 1_655 S
C305 O307 1.282 . S
O306 Cd298 2.277 . S
O306 C299 1.226 . S
O307 Cd298 2.356 . S
O307 C305 1.282 . S
C308 O309 1.306 . S
C308 O311 1.160 . S
O309 C308 1.306 . S
O309 Cd310 2.228 1_455 S
Cd310 O309 2.228 1_655 S
Cd310 O314 2.273 . S
Cd310 O318 2.277 . S
O311 C308 1.160 . S
O311 Cd312 2.203 1_455 S
Cd312 O311 2.203 1_655 S
Cd312 O314 2.411 . S
Cd312 O315 2.333 . S
Cd312 O316 2.352 . S
Cd312 O320 2.277 . S
Cd312 O321 2.356 . S
C313 O318 1.209 . S
C313 O320 1.226 . S
O314 Cd310 2.273 . S
O314 Cd312 2.411 . S
O314 C317 1.320 . S
O315 Cd312 2.333 . S
O315 C317 1.214 . S
O316 Cd312 2.352 . S
O316 C319 1.258 . S
C317 O314 1.320 . S
C317 O315 1.214 . S
O318 Cd310 2.277 . S
O318 C313 1.209 . S
C319 O316 1.258 . S
C319 O321 1.282 . S
O320 Cd312 2.277 . S
O320 C313 1.226 . S
O321 Cd312 2.356 . S
O321 C319 1.282 . S
C322 O323 1.306 . S
C322 O325 1.160 . S
O323 C322 1.306 . S
O323 Cd324 2.228 . S
Cd324 O323 2.228 . S
Cd324 O328 2.273 . S
Cd324 O332 2.277 . S
O325 C322 1.160 . S
O325 Cd326 2.203 . S
Cd326 O325 2.203 . S
Cd326 O328 2.411 . S
Cd326 O329 2.333 . S
Cd326 O330 2.352 . S
Cd326 O334 2.277 . S
Cd326 O335 2.356 . S
C327 O332 1.209 . S
C327 O334 1.226 . S
O328 Cd324 2.273 . S
O328 Cd326 2.411 . S
O328 C331 1.320 . S
O329 Cd326 2.333 . S
O329 C331 1.214 . S
O330 Cd326 2.352 . S
O330 C333 1.258 . S
C331 O328 1.320 . S
C331 O329 1.214 . S
O332 Cd324 2.277 . S
O332 C327 1.209 . S
C333 O330 1.258 . S
C333 O335 1.282 . S
O334 Cd326 2.277 . S
O334 C327 1.226 . S
O335 Cd326 2.356 . S
O335 C333 1.282 . S
Ho336 C339 2.813 1_455 S
Ho336 O356 2.329 . S
Ho336 O358 2.386 1_455 S
Ho336 O359 2.519 1_456 S
Ho336 O360 2.398 . S
Ho336 O361 2.676 . S
Ho336 O363 2.340 1_546 S
Ho336 O367 2.292 1_556 S
Ho337 C348 2.811 . S
Ho337 O357 2.346 . S
Ho337 O361 2.305 1_554 S
Ho337 O362 2.322 . S
Ho337 O364 2.378 . S
Ho337 O365 2.524 . S
Ho337 O366 2.381 . S
Ho337 O367 2.669 . S
C338 O356 1.259 1_554 S
C338 O357 1.268 . S
C339 Ho336 2.813 1_655 S
C339 C340 1.488 . S
C339 O358 1.215 . S
C339 O359 1.289 1_556 S
C340 C339 1.488 . S
C340 C341 1.348 1_556 S
C340 C345 1.413 . S
C341 C340 1.348 1_554 S
C341 C342 1.442 1_554 S
C341 H368 0.930 . S
C342 C341 1.442 1_556 S
C342 C343 1.381 . S
C342 H369 0.931 1_556 S
C343 C342 1.381 . S
C343 C344 1.321 . S
C344 C343 1.321 . S
C344 C345 1.403 . S
C344 H370 0.934 . S
C345 C340 1.413 . S
C345 C344 1.403 . S
C345 H371 0.930 . S
C346 O360 1.275 . S
C346 O361 1.256 . S
C347 O362 1.259 1_565 S
C347 O363 1.268 . S
C348 Ho337 2.811 . S
C348 C349 1.488 . S
C348 O364 1.215 . S
C348 O365 1.289 . S
C349 C348 1.488 . S
C349 C350 1.348 . S
C349 C354 1.413 . S
C350 C349 1.348 . S
C350 C351 1.442 . S
C350 H372 0.930 . S
C351 C350 1.442 . S
C351 C352 1.381 . S
C351 H373 0.931 . S
C352 C351 1.381 . S
C352 C353 1.321 . S
C353 C352 1.321 . S
C353 C354 1.403 . S
C353 H374 0.934 . S
C354 C349 1.413 . S
C354 C353 1.403 . S
C354 H375 0.930 . S
C355 O366 1.275 . S
C355 O367 1.256 . S
O356 Ho336 2.329 . S
O356 C338 1.259 1_556 S
O357 Ho337 2.346 . S
O357 C338 1.268 . S
O358 Ho336 2.386 1_655 S
O358 C339 1.215 . S
O359 Ho336 2.519 1_654 S
O359 C339 1.289 1_554 S
O360 Ho336 2.398 . S
O360 C346 1.275 . S
O361 Ho336 2.676 . S
O361 Ho337 2.305 1_556 S
O361 C346 1.256 . S
O362 Ho337 2.322 . S
O362 C347 1.259 1_545 S
O363 Ho336 2.340 1_564 S
O363 C347 1.268 . S
O364 Ho337 2.378 . S
O364 C348 1.215 . S
O365 Ho337 2.524 . S
O365 C348 1.289 . S
O366 Ho337 2.381 . S
O366 C355 1.275 . S
O367 Ho336 2.292 1_554 S
O367 Ho337 2.669 . S
O367 C355 1.256 . S
H368 C341 0.930 . S
H369 C342 0.931 1_554 S
H370 C344 0.934 . S
H371 C345 0.930 . S
H372 C350 0.930 . S
H373 C351 0.931 . S
H374 C353 0.934 . S
H375 C354 0.930 . S
Ho376 C379 2.811 . S
Ho376 O396 2.322 . S
Ho376 O398 2.378 . S
Ho376 O399 2.524 . S
Ho376 O400 2.381 . S
Ho376 O401 2.669 . S
Ho376 O403 2.346 . S
Ho376 O407 2.305 . S
Ho377 C388 2.811 . S
Ho377 O397 2.346 . S
Ho377 O401 2.305 . S
Ho377 O402 2.322 . S
Ho377 O404 2.378 . S
Ho377 O405 2.524 . S
Ho377 O406 2.381 . S
Ho377 O407 2.669 . S
C378 O396 1.259 . S
C378 O397 1.268 . S
C379 Ho376 2.811 . S
C379 C380 1.488 . S
C379 O398 1.215 . S
C379 O399 1.289 . S
C380 C379 1.488 . S
C380 C381 1.348 . S
C380 C385 1.413 . S
C381 C380 1.348 . S
C381 C382 1.442 . S
C381 H408 0.930 . S
C382 C381 1.442 . S
C382 C383 1.381 . S
C382 H409 0.931 . S
C383 C382 1.381 . S
C383 C384 1.321 . S
C384 C383 1.321 . S
C384 C385 1.403 . S
C384 H410 0.934 . S
C385 C380 1.413 . S
C385 C384 1.403 . S
C385 H411 0.930 . S
C386 O400 1.275 . S
C386 O401 1.256 . S
C387 O402 1.259 . S
C387 O403 1.268 . S
C388 Ho377 2.811 . S
C388 C389 1.488 . S
C388 O404 1.215 . S
C388 O405 1.289 . S
C389 C388 1.488 . S
C389 C390 1.348 . S
C389 C394 1.413 . S
C390 C389 1.348 . S
C390 C391 1.442 . S
C390 H412 0.930 . S
C391 C390 1.442 . S
C391 C392 1.381 . S
C391 H413 0.931 . S
C392 C391 1.381 . S
C392 C393 1.321 . S
C393 C392 1.321 . S
C393 C394 1.403 . S
C393 H414 0.934 . S
C394 C389 1.413 . S
C394 C393 1.403 . S
C394 H415 0.930 . S
C395 O406 1.275 . S
C395 O407 1.256 . S
O396 Ho376 2.322 . S
O396 C378 1.259 . S
O397 Ho377 2.346 . S
O397 C378 1.268 . S
O398 Ho376 2.378 . S
O398 C379 1.215 . S
O399 Ho376 2.524 . S
O399 C379 1.289 . S
O400 Ho376 2.381 . S
O400 C386 1.275 . S
O401 Ho376 2.669 . S
O401 Ho377 2.305 . S
O401 C386 1.256 . S
O402 Ho377 2.322 . S
O402 C387 1.259 . S
O403 Ho376 2.346 . S
O403 C387 1.268 . S
O404 Ho377 2.378 . S
O404 C388 1.215 . S
O405 Ho377 2.524 . S
O405 C388 1.289 . S
O406 Ho377 2.381 . S
O406 C395 1.275 . S
O407 Ho376 2.305 . S
O407 Ho377 2.669 . S
O407 C395 1.256 . S
H408 C381 0.930 . S
H409 C382 0.931 . S
H410 C384 0.934 . S
H411 C385 0.930 . S
H412 C390 0.930 . S
H413 C391 0.931 . S
H414 C393 0.934 . S
H415 C394 0.930 . S
Ho416 C419 2.811 . S
Ho416 O436 2.322 1_545 S
Ho416 O438 2.378 . S
Ho416 O439 2.524 . S
Ho416 O440 2.381 . S
Ho416 O441 2.669 . S
Ho416 O443 2.346 . S
Ho416 O447 2.305 . S
Ho417 C428 2.811 . S
Ho417 O437 2.346 1_545 S
Ho417 O441 2.305 . S
Ho417 O442 2.322 . S
Ho417 O444 2.378 . S
Ho417 O445 2.524 . S
Ho417 O446 2.381 . S
Ho417 O447 2.669 . S
C418 O436 1.259 . S
C418 O437 1.268 . S
C419 Ho416 2.811 . S
C419 C420 1.488 1_545 S
C419 O438 1.215 . S
C419 O439 1.289 . S
C420 C419 1.488 1_565 S
C420 C421 1.348 . S
C420 C425 1.413 . S
C421 C420 1.348 . S
C421 C422 1.442 . S
C421 H448 0.930 . S
C422 C421 1.442 . S
C422 C423 1.381 . S
C422 H449 0.931 . S
C423 C422 1.381 . S
C423 C424 1.321 . S
C424 C423 1.321 . S
C424 C425 1.403 . S
C424 H450 0.934 . S
C425 C420 1.413 . S
C425 C424 1.403 . S
C425 H451 0.930 . S
C426 O440 1.275 . S
C426 O441 1.256 . S
C427 O442 1.259 . S
C427 O443 1.268 . S
C428 Ho417 2.811 . S
C428 C429 1.488 . S
C428 O444 1.215 . S
C428 O445 1.289 . S
C429 C428 1.488 . S
C429 C430 1.348 . S
C429 C434 1.413 . S
C430 C429 1.348 . S
C430 C431 1.442 . S
C430 H452 0.930 . S
C431 C430 1.442 . S
C431 C432 1.381 . S
C431 H453 0.931 . S
C432 C431 1.381 . S
C432 C433 1.321 . S
C433 C432 1.321 . S
C433 C434 1.403 . S
C433 H454 0.934 . S
C434 C429 1.413 . S
C434 C433 1.403 . S
C434 H455 0.930 . S
C435 O446 1.275 . S
C435 O447 1.256 . S
O436 Ho416 2.322 1_565 S
O436 C418 1.259 . S
O437 Ho417 2.346 1_565 S
O437 C418 1.268 . S
O438 Ho416 2.378 . S
O438 C419 1.215 . S
O439 Ho416 2.524 . S
O439 C419 1.289 . S
O440 Ho416 2.381 . S
O440 C426 1.275 . S
O441 Ho416 2.669 . S
O441 Ho417 2.305 . S
O441 C426 1.256 . S
O442 Ho417 2.322 . S
O442 C427 1.259 . S
O443 Ho416 2.346 . S
O443 C427 1.268 . S
O444 Ho417 2.378 . S
O444 C428 1.215 . S
O445 Ho417 2.524 . S
O445 C428 1.289 . S
O446 Ho417 2.381 . S
O446 C435 1.275 . S
O447 Ho416 2.305 . S
O447 Ho417 2.669 . S
O447 C435 1.256 . S
H448 C421 0.930 . S
H449 C422 0.931 . S
H450 C424 0.934 . S
H451 C425 0.930 . S
H452 C430 0.930 . S
H453 C431 0.931 . S
H454 C433 0.934 . S
H455 C434 0.930 . S
Ho456 C459 2.811 . S
Ho456 O476 2.322 . S
Ho456 O478 2.378 . S
Ho456 O479 2.524 . S
Ho456 O480 2.381 . S
Ho456 O481 2.669 . S
Ho456 O483 2.346 . S
Ho456 O487 2.305 . S
Ho457 C468 2.811 . S
Ho457 O477 2.346 . S
Ho457 O481 2.305 . S
Ho457 O482 2.322 . S
Ho457 O484 2.378 . S
Ho457 O485 2.524 . S
Ho457 O486 2.381 . S
Ho457 O487 2.669 . S
C458 O476 1.259 . S
C458 O477 1.268 . S
C459 Ho456 2.811 . S
C459 C460 1.488 . S
C459 O478 1.215 . S
C459 O479 1.289 . S
C460 C459 1.488 . S
C460 C461 1.348 . S
C460 C465 1.413 . S
C461 C460 1.348 . S
C461 C462 1.442 . S
C461 H488 0.930 . S
C462 C461 1.442 . S
C462 C463 1.381 . S
C462 H489 0.931 . S
C463 C462 1.381 . S
C463 C464 1.321 . S
C464 C463 1.321 . S
C464 C465 1.403 . S
C464 H490 0.934 . S
C465 C460 1.413 . S
C465 C464 1.403 . S
C465 H491 0.930 . S
C466 O480 1.275 . S
C466 O481 1.256 . S
C467 O482 1.259 . S
C467 O483 1.268 . S
C468 Ho457 2.811 . S
C468 C469 1.488 . S
C468 O484 1.215 . S
C468 O485 1.289 . S
C469 C468 1.488 . S
C469 C470 1.348 . S
C469 C474 1.413 . S
C470 C469 1.348 . S
C470 C471 1.442 . S
C470 H492 0.930 . S
C471 C470 1.442 . S
C471 C472 1.381 . S
C471 H493 0.931 . S
C472 C471 1.381 . S
C472 C473 1.321 . S
C473 C472 1.321 . S
C473 C474 1.403 . S
C473 H494 0.934 . S
C474 C469 1.413 . S
C474 C473 1.403 . S
C474 H495 0.930 . S
C475 O486 1.275 . S
C475 O487 1.256 . S
O476 Ho456 2.322 . S
O476 C458 1.259 . S
O477 Ho457 2.346 . S
O477 C458 1.268 . S
O478 Ho456 2.378 . S
O478 C459 1.215 . S
O479 Ho456 2.524 . S
O479 C459 1.289 . S
O480 Ho456 2.381 . S
O480 C466 1.275 . S
O481 Ho456 2.669 . S
O481 Ho457 2.305 . S
O481 C466 1.256 . S
O482 Ho457 2.322 . S
O482 C467 1.259 . S
O483 Ho456 2.346 . S
O483 C467 1.268 . S
O484 Ho457 2.378 . S
O484 C468 1.215 . S
O485 Ho457 2.524 . S
O485 C468 1.289 . S
O486 Ho457 2.381 . S
O486 C475 1.275 . S
O487 Ho456 2.305 . S
O487 Ho457 2.669 . S
O487 C475 1.256 . S
H488 C461 0.930 . S
H489 C462 0.931 . S
H490 C464 0.934 . S
H491 C465 0.930 . S
H492 C470 0.930 . S
H493 C471 0.931 . S
H494 C473 0.934 . S
H495 C474 0.930 . S
Ho496 C499 2.811 . S
Ho496 O516 2.322 . S
Ho496 O518 2.378 . S
Ho496 O519 2.524 . S
Ho496 O520 2.381 . S
Ho496 O521 2.669 . S
Ho496 O523 2.346 . S
Ho496 O527 2.305 . S
Ho497 C508 2.833 . S
Ho497 O517 2.329 1_565 S
Ho497 O521 2.292 1_565 S
Ho497 O522 2.322 1_565 S
Ho497 O524 2.400 . S
Ho497 O525 2.541 . S
Ho497 O526 2.377 1_565 S
Ho497 O527 2.650 1_565 S
C498 O516 1.259 . S
C498 O517 1.268 . S
C499 Ho496 2.811 . S
C499 C500 1.488 . S
C499 O518 1.215 . S
C499 O519 1.289 . S
C500 C499 1.488 . S
C500 C501 1.348 . S
C500 C505 1.413 . S
C501 C500 1.348 . S
C501 C502 1.442 . S
C501 H528 0.930 . S
C502 C501 1.442 . S
C502 C503 1.381 . S
C502 H529 0.931 . S
C503 C502 1.381 . S
C503 C504 1.321 . S
C504 C503 1.321 . S
C504 C505 1.403 . S
C504 H530 0.934 . S
C505 C500 1.413 . S
C505 C504 1.403 . S
C505 H531 0.930 . S
C506 O520 1.275 . S
C506 O521 1.256 . S
C507 O522 1.259 . S
C507 O523 1.268 . S
C508 Ho497 2.833 . S
C508 C509 1.488 . S
C508 O524 1.215 . S
C508 O525 1.289 . S
C509 C508 1.488 . S
C509 C510 1.348 . S
C509 C514 1.413 . S
C510 C509 1.348 . S
C510 C511 1.442 . S
C510 H532 0.930 . S
C511 C510 1.442 . S
C511 C512 1.381 . S
C511 H533 0.931 . S
C512 C511 1.381 . S
C512 C513 1.321 . S
C513 C512 1.321 . S
C513 C514 1.403 . S
C513 H534 0.934 . S
C514 C509 1.413 . S
C514 C513 1.403 . S
C514 H535 0.930 . S
C515 O526 1.275 . S
C515 O527 1.256 . S
O516 Ho496 2.322 . S
O516 C498 1.259 . S
O517 Ho497 2.329 1_545 S
O517 C498 1.268 . S
O518 Ho496 2.378 . S
O518 C499 1.215 . S
O519 Ho496 2.524 . S
O519 C499 1.289 . S
O520 Ho496 2.381 . S
O520 C506 1.275 . S
O521 Ho496 2.669 . S
O521 Ho497 2.292 1_545 S
O521 C506 1.256 . S
O522 Ho497 2.322 1_545 S
O522 C507 1.259 . S
O523 Ho496 2.346 . S
O523 C507 1.268 . S
O524 Ho497 2.400 . S
O524 C508 1.215 . S
O525 Ho497 2.541 . S
O525 C508 1.289 . S
O526 Ho497 2.377 1_545 S
O526 C515 1.275 . S
O527 Ho496 2.305 . S
O527 Ho497 2.650 1_545 S
O527 C515 1.256 . S
H528 C501 0.930 . S
H529 C502 0.931 . S
H530 C504 0.934 . S
H531 C505 0.930 . S
H532 C510 0.930 . S
H533 C511 0.931 . S
H534 C513 0.934 . S
H535 C514 0.930 . S
Ho536 C539 2.811 . S
Ho536 O556 2.322 . S
Ho536 O558 2.378 . S
Ho536 O559 2.524 . S
Ho536 O560 2.381 . S
Ho536 O561 2.669 . S
Ho536 O563 2.346 . S
Ho536 O567 2.305 . S
Ho537 C548 2.811 . S
Ho537 O557 2.346 . S
Ho537 O561 2.305 . S
Ho537 O562 2.322 . S
Ho537 O564 2.378 . S
Ho537 O565 2.524 . S
Ho537 O566 2.381 . S
Ho537 O567 2.669 . S
C538 O556 1.259 . S
C538 O557 1.268 . S
C539 Ho536 2.811 . S
C539 C540 1.488 . S
C539 O558 1.215 . S
C539 O559 1.289 . S
C540 C539 1.488 . S
C540 C541 1.348 . S
C540 C545 1.413 . S
C541 C540 1.348 . S
C541 C542 1.442 . S
C541 H568 0.930 . S
C542 C541 1.442 . S
C542 C543 1.381 . S
C542 H569 0.931 . S
C543 C542 1.381 . S
C543 C544 1.321 . S
C544 C543 1.321 . S
C544 C545 1.403 . S
C544 H570 0.934 . S
C545 C540 1.413 . S
C545 C544 1.403 . S
C545 H571 0.930 . S
C546 O560 1.275 . S
C546 O561 1.256 . S
C547 O562 1.259 . S
C547 O563 1.268 . S
C548 Ho537 2.811 . S
C548 C549 1.488 . S
C548 O564 1.215 . S
C548 O565 1.289 . S
C549 C548 1.488 . S
C549 C550 1.348 . S
C549 C554 1.413 . S
C550 C549 1.348 . S
C550 C551 1.442 . S
C550 H572 0.930 . S
C551 C550 1.442 . S
C551 C552 1.381 . S
C551 H573 0.931 . S
C552 C551 1.381 . S
C552 C553 1.321 . S
C553 C552 1.321 . S
C553 C554 1.403 . S
C553 H574 0.934 . S
C554 C549 1.413 . S
C554 C553 1.403 . S
C554 H575 0.930 . S
C555 O566 1.275 . S
C555 O567 1.256 . S
O556 Ho536 2.322 . S
O556 C538 1.259 . S
O557 Ho537 2.346 . S
O557 C538 1.268 . S
O558 Ho536 2.378 . S
O558 C539 1.215 . S
O559 Ho536 2.524 . S
O559 C539 1.289 . S
O560 Ho536 2.381 . S
O560 C546 1.275 . S
O561 Ho536 2.669 . S
O561 Ho537 2.305 . S
O561 C546 1.256 . S
O562 Ho537 2.322 . S
O562 C547 1.259 . S
O563 Ho536 2.346 . S
O563 C547 1.268 . S
O564 Ho537 2.378 . S
O564 C548 1.215 . S
O565 Ho537 2.524 . S
O565 C548 1.289 . S
O566 Ho537 2.381 . S
O566 C555 1.275 . S
O567 Ho536 2.305 . S
O567 Ho537 2.669 . S
O567 C555 1.256 . S
H568 C541 0.930 . S
H569 C542 0.931 . S
H570 C544 0.934 . S
H571 C545 0.930 . S
H572 C550 0.930 . S
H573 C551 0.931 . S
H574 C553 0.934 . S
H575 C554 0.930 . S
Ho576 C579 2.811 . S
Ho576 O596 2.322 . S
Ho576 O598 2.378 . S
Ho576 O599 2.524 . S
Ho576 O600 2.381 1_545 S
Ho576 O601 2.682 . S
Ho576 O603 2.346 . S
Ho576 O607 2.305 . S
Ho577 C588 2.811 . S
Ho577 O597 2.346 . S
Ho577 O601 2.298 1_556 S
Ho577 O602 2.322 1_556 S
Ho577 O604 2.378 . S
Ho577 O605 2.524 . S
Ho577 O606 2.381 1_556 S
Ho577 O607 2.669 1_556 S
C578 O596 1.259 . S
C578 O597 1.268 1_554 S
C579 Ho576 2.811 . S
C579 C580 1.488 . S
C579 O598 1.215 . S
C579 O599 1.289 . S
C580 C579 1.488 . S
C580 C581 1.348 . S
C580 C585 1.413 1_545 S
C581 C580 1.348 . S
C581 C582 1.451 . S
C581 H608 0.930 . S
C582 C581 1.451 . S
C582 C583 1.361 1_545 S
C582 H609 0.942 . S
C583 C582 1.361 1_565 S
C583 C584 1.321 . S
C584 C583 1.321 . S
C584 C585 1.403 . S
C584 H610 0.934 . S
C585 C580 1.413 1_565 S
C585 C584 1.403 . S
C585 H611 0.930 . S
C586 O600 1.275 . S
C586 O601 1.261 1_565 S
C587 O602 1.259 . S
C587 O603 1.268 . S
C588 Ho577 2.811 . S
C588 C589 1.488 . S
C588 O604 1.215 . S
C588 O605 1.289 . S
C589 C588 1.488 . S
C589 C590 1.348 . S
C589 C594 1.413 . S
C590 C589 1.348 . S
C590 C591 1.442 . S
C590 H612 0.930 . S
C591 C590 1.442 . S
C591 C592 1.381 . S
C591 H613 0.931 . S
C592 C591 1.381 . S
C592 C593 1.321 . S
C593 C592 1.321 . S
C593 C594 1.403 . S
C593 H614 0.934 . S
C594 C589 1.413 . S
C594 C593 1.403 . S
C594 H615 0.930 . S
C595 O606 1.275 . S
C595 O607 1.256 . S
O596 Ho576 2.322 . S
O596 C578 1.259 . S
O597 Ho577 2.346 . S
O597 C578 1.268 1_556 S
O598 Ho576 2.378 . S
O598 C579 1.215 . S
O599 Ho576 2.524 . S
O599 C579 1.289 . S
O600 Ho576 2.381 1_565 S
O600 C586 1.275 . S
O601 Ho576 2.682 . S
O601 Ho577 2.298 1_554 S
O601 C586 1.261 1_545 S
O602 Ho577 2.322 1_554 S
O602 C587 1.259 . S
O603 Ho576 2.346 . S
O603 C587 1.268 . S
O604 Ho577 2.378 . S
O604 C588 1.215 . S
O605 Ho577 2.524 . S
O605 C588 1.289 . S
O606 Ho577 2.381 1_554 S
O606 C595 1.275 . S
O607 Ho576 2.305 . S
O607 Ho577 2.669 1_554 S
O607 C595 1.256 . S
H608 C581 0.930 . S
H609 C582 0.942 . S
H610 C584 0.934 . S
H611 C585 0.930 . S
H612 C590 0.930 . S
H613 C591 0.931 . S
H614 C593 0.934 . S
H615 C594 0.930 . S
Ho616 C619 2.811 . S
Ho616 O636 2.322 . S
Ho616 O638 2.378 . S
Ho616 O639 2.524 . S
Ho616 O640 2.381 . S
Ho616 O641 2.669 . S
Ho616 O643 2.346 . S
Ho616 O647 2.305 . S
Ho617 C628 2.811 . S
Ho617 O637 2.346 . S
Ho617 O641 2.305 . S
Ho617 O642 2.322 . S
Ho617 O644 2.378 . S
Ho617 O645 2.524 . S
Ho617 O646 2.381 . S
Ho617 O647 2.669 . S
C618 O636 1.259 . S
C618 O637 1.268 . S
C619 Ho616 2.811 . S
C619 C620 1.488 . S
C619 O638 1.215 . S
C619 O639 1.289 . S
C620 C619 1.488 . S
C620 C621 1.348 . S
C620 C625 1.413 . S
C621 C620 1.348 . S
C621 C622 1.442 . S
C621 H648 0.930 . S
C622 C621 1.442 . S
C622 C623 1.381 . S
C622 H649 0.931 . S
C623 C622 1.381 . S
C623 C624 1.321 . S
C624 C623 1.321 . S
C624 C625 1.403 . S
C624 H650 0.934 . S
C625 C620 1.413 . S
C625 C624 1.403 . S
C625 H651 0.930 . S
C626 O640 1.275 . S
C626 O641 1.256 . S
C627 O642 1.259 . S
C627 O643 1.268 . S
C628 Ho617 2.811 . S
C628 C629 1.488 . S
C628 O644 1.215 . S
C628 O645 1.289 . S
C629 C628 1.488 . S
C629 C630 1.348 . S
C629 C634 1.413 . S
C630 C629 1.348 . S
C630 C631 1.442 . S
C630 H652 0.930 . S
C631 C630 1.442 . S
C631 C632 1.381 . S
C631 H653 0.931 . S
C632 C631 1.381 . S
C632 C633 1.321 . S
C633 C632 1.321 . S
C633 C634 1.403 . S
C633 H654 0.934 . S
C634 C629 1.413 . S
C634 C633 1.403 . S
C634 H655 0.930 . S
C635 O646 1.275 . S
C635 O647 1.256 . S
O636 Ho616 2.322 . S
O636 C618 1.259 . S
O637 Ho617 2.346 . S
O637 C618 1.268 . S
O638 Ho616 2.378 . S
O638 C619 1.215 . S
O639 Ho616 2.524 . S
O639 C619 1.289 . S
O640 Ho616 2.381 . S
O640 C626 1.275 . S
O641 Ho616 2.669 . S
O641 Ho617 2.305 . S
O641 C626 1.256 . S
O642 Ho617 2.322 . S
O642 C627 1.259 . S
O643 Ho616 2.346 . S
O643 C627 1.268 . S
O644 Ho617 2.378 . S
O644 C628 1.215 . S
O645 Ho617 2.524 . S
O645 C628 1.289 . S
O646 Ho617 2.381 . S
O646 C635 1.275 . S
O647 Ho616 2.305 . S
O647 Ho617 2.669 . S
O647 C635 1.256 . S
H648 C621 0.930 . S
H649 C622 0.931 . S
H650 C624 0.934 . S
H651 C625 0.930 . S
H652 C630 0.930 . S
H653 C631 0.931 . S
H654 C633 0.934 . S
H655 C634 0.930 . S
Ho656 C659 2.811 . S
Ho656 O676 2.322 1_554 S
Ho656 O678 2.378 . S
Ho656 O679 2.524 . S
Ho656 O680 2.381 . S
Ho656 O681 2.669 . S
Ho656 O683 2.346 . S
Ho656 O687 2.305 . S
Ho657 C668 2.811 1_556 S
Ho657 O677 2.346 . S
Ho657 O681 2.305 1_556 S
Ho657 O682 2.322 1_556 S
Ho657 O684 2.378 1_556 S
Ho657 O685 2.524 1_556 S
Ho657 O686 2.381 . S
Ho657 O687 2.669 1_556 S
C658 O676 1.259 . S
C658 O677 1.268 . S
C659 Ho656 2.811 . S
C659 C660 1.488 . S
C659 O678 1.215 . S
C659 O679 1.289 . S
C660 C659 1.488 . S
C660 C661 1.348 1_554 S
C660 C665 1.413 . S
C661 C660 1.348 1_556 S
C661 C662 1.442 . S
C661 H688 0.930 . S
C662 C661 1.442 . S
C662 C663 1.381 . S
C662 H689 0.931 . S
C663 C662 1.381 . S
C663 C664 1.321 1_556 S
C664 C663 1.321 1_554 S
C664 C665 1.403 . S
C664 H690 0.934 . S
C665 C660 1.413 . S
C665 C664 1.403 . S
C665 H691 0.930 . S
C666 O680 1.275 . S
C666 O681 1.256 . S
C667 O682 1.259 . S
C667 O683 1.268 . S
C668 Ho657 2.811 1_554 S
C668 C669 1.488 . S
C668 O684 1.215 . S
C668 O685 1.289 . S
C669 C668 1.488 . S
C669 C670 1.348 . S
C669 C674 1.413 . S
C670 C669 1.348 . S
C670 C671 1.442 . S
C670 H692 0.930 . S
C671 C670 1.442 . S
C671 C672 1.381 . S
C671 H693 0.931 . S
C672 C671 1.381 . S
C672 C673 1.321 . S
C673 C672 1.321 . S
C673 C674 1.403 . S
C673 H694 0.934 . S
C674 C669 1.413 . S
C674 C673 1.403 . S
C674 H695 0.930 . S
C675 O686 1.275 1_554 S
C675 O687 1.256 . S
O676 Ho656 2.322 1_556 S
O676 C658 1.259 . S
O677 Ho657 2.346 . S
O677 C658 1.268 . S
O678 Ho656 2.378 . S
O678 C659 1.215 . S
O679 Ho656 2.524 . S
O679 C659 1.289 . S
O680 Ho656 2.381 . S
O680 C666 1.275 . S
O681 Ho656 2.669 . S
O681 Ho657 2.305 1_554 S
O681 C666 1.256 . S
O682 Ho657 2.322 1_554 S
O682 C667 1.259 . S
O683 Ho656 2.346 . S
O683 C667 1.268 . S
O684 Ho657 2.378 1_554 S
O684 C668 1.215 . S
O685 Ho657 2.524 1_554 S
O685 C668 1.289 . S
O686 Ho657 2.381 . S
O686 C675 1.275 1_556 S
O687 Ho656 2.305 . S
O687 Ho657 2.669 1_554 S
O687 C675 1.256 . S
H688 C661 0.930 . S
H689 C662 0.931 . S
H690 C664 0.934 . S
H691 C665 0.930 . S
H692 C670 0.930 . S
H693 C671 0.931 . S
H694 C673 0.934 . S
H695 C674 0.930 . S
Ho696 C699 2.821 . S
Ho696 O716 2.322 . S
Ho696 O718 2.378 . S
Ho696 O719 2.524 . S
Ho696 O720 2.381 . S
Ho696 O721 2.669 . S
Ho696 O723 2.346 . S
Ho696 O727 2.305 . S
Ho697 C708 2.811 . S
Ho697 O717 2.346 . S
Ho697 O721 2.305 . S
Ho697 O722 2.322 . S
Ho697 O724 2.378 . S
Ho697 O725 2.524 . S
Ho697 O726 2.381 . S
Ho697 O727 2.669 . S
C698 O716 1.259 . S
C698 O717 1.268 . S
C699 Ho696 2.821 . S
C699 C700 1.478 1_655 S
C699 O718 1.219 . S
C699 O719 1.296 . S
C700 C699 1.478 1_455 S
C700 C701 1.348 . S
C700 C705 1.413 . S
C701 C700 1.348 . S
C701 C702 1.442 . S
C701 H728 0.930 . S
C702 C701 1.442 . S
C702 C703 1.381 . S
C702 H729 0.931 . S
C703 C702 1.381 . S
C703 C704 1.321 . S
C704 C703 1.321 . S
C704 C705 1.403 . S
C704 H730 0.934 . S
C705 C700 1.413 . S
C705 C704 1.403 . S
C705 H731 0.930 . S
C706 O720 1.275 . S
C706 O721 1.256 . S
C707 O722 1.259 . S
C707 O723 1.268 . S
C708 Ho697 2.811 . S
C708 C709 1.488 . S
C708 O724 1.215 . S
C708 O725 1.289 . S
C709 C708 1.488 . S
C709 C710 1.348 . S
C709 C714 1.413 . S
C710 C709 1.348 . S
C710 C711 1.442 . S
C710 H732 0.930 . S
C711 C710 1.442 . S
C711 C712 1.381 . S
C711 H733 0.931 . S
C712 C711 1.381 . S
C712 C713 1.321 . S
C713 C712 1.321 . S
C713 C714 1.403 . S
C713 H734 0.934 . S
C714 C709 1.413 . S
C714 C713 1.403 . S
C714 H735 0.930 . S
C715 O726 1.275 . S
C715 O727 1.256 . S
O716 Ho696 2.322 . S
O716 C698 1.259 . S
O717 Ho697 2.346 . S
O717 C698 1.268 . S
O718 Ho696 2.378 . S
O718 C699 1.219 . S
O719 Ho696 2.524 . S
O719 C699 1.296 . S
O720 Ho696 2.381 . S
O720 C706 1.275 . S
O721 Ho696 2.669 . S
O721 Ho697 2.305 . S
O721 C706 1.256 . S
O722 Ho697 2.322 . S
O722 C707 1.259 . S
O723 Ho696 2.346 . S
O723 C707 1.268 . S
O724 Ho697 2.378 . S
O724 C708 1.215 . S
O725 Ho697 2.524 . S
O725 C708 1.289 . S
O726 Ho697 2.381 . S
O726 C715 1.275 . S
O727 Ho696 2.305 . S
O727 Ho697 2.669 . S
O727 C715 1.256 . S
H728 C701 0.930 . S
H729 C702 0.931 . S
H730 C704 0.934 . S
H731 C705 0.930 . S
H732 C710 0.930 . S
H733 C711 0.931 . S
H734 C713 0.934 . S
H735 C714 0.930 . S
Ho736 C739 2.811 . S
Ho736 O756 2.322 . S
Ho736 O758 2.378 . S
Ho736 O759 2.524 . S
Ho736 O760 2.381 . S
Ho736 O761 2.669 . S
Ho736 O763 2.346 . S
Ho736 O767 2.305 . S
Ho737 C748 2.811 . S
Ho737 O757 2.346 . S
Ho737 O761 2.305 . S
Ho737 O762 2.322 . S
Ho737 O764 2.378 . S
Ho737 O765 2.524 . S
Ho737 O766 2.381 . S
Ho737 O767 2.669 . S
C738 O756 1.259 . S
C738 O757 1.268 . S
C739 Ho736 2.811 . S
C739 C740 1.488 . S
C739 O758 1.215 . S
C739 O759 1.289 . S
C740 C739 1.488 . S
C740 C741 1.348 . S
C740 C745 1.413 . S
C741 C740 1.348 . S
C741 C742 1.442 1_455 S
C741 H768 0.930 . S
C742 C741 1.442 1_655 S
C742 C743 1.381 . S
C742 H769 0.931 . S
C743 C742 1.381 . S
C743 C744 1.321 1_655 S
C744 C743 1.321 1_455 S
C744 C745 1.403 . S
C744 H770 0.934 . S
C745 C740 1.413 . S
C745 C744 1.403 . S
C745 H771 0.930 . S
C746 O760 1.275 . S
C746 O761 1.256 . S
C747 O762 1.259 . S
C747 O763 1.268 . S
C748 Ho737 2.811 . S
C748 C749 1.488 . S
C748 O764 1.215 . S
C748 O765 1.289 . S
C749 C748 1.488 . S
C749 C750 1.348 . S
C749 C754 1.413 . S
C750 C749 1.348 . S
C750 C751 1.442 . S
C750 H772 0.930 . S
C751 C750 1.442 . S
C751 C752 1.381 . S
C751 H773 0.931 . S
C752 C751 1.381 . S
C752 C753 1.321 . S
C753 C752 1.321 . S
C753 C754 1.403 . S
C753 H774 0.934 . S
C754 C749 1.413 . S
C754 C753 1.403 . S
C754 H775 0.930 . S
C755 O766 1.275 . S
C755 O767 1.256 . S
O756 Ho736 2.322 . S
O756 C738 1.259 . S
O757 Ho737 2.346 . S
O757 C738 1.268 . S
O758 Ho736 2.378 . S
O758 C739 1.215 . S
O759 Ho736 2.524 . S
O759 C739 1.289 . S
O760 Ho736 2.381 . S
O760 C746 1.275 . S
O761 Ho736 2.669 . S
O761 Ho737 2.305 . S
O761 C746 1.256 . S
O762 Ho737 2.322 . S
O762 C747 1.259 . S
O763 Ho736 2.346 . S
O763 C747 1.268 . S
O764 Ho737 2.378 . S
O764 C748 1.215 . S
O765 Ho737 2.524 . S
O765 C748 1.289 . S
O766 Ho737 2.381 . S
O766 C755 1.275 . S
O767 Ho736 2.305 . S
O767 Ho737 2.669 . S
O767 C755 1.256 . S
H768 C741 0.930 . S
H769 C742 0.931 . S
H770 C744 0.934 . S
H771 C745 0.930 . S
H772 C750 0.930 . S
H773 C751 0.931 . S
H774 C753 0.934 . S
H775 C754 0.930 . S
Ho776 C779 2.811 . S
Ho776 O796 2.322 . S
Ho776 O798 2.378 . S
Ho776 O799 2.524 . S
Ho776 O800 2.381 . S
Ho776 O801 2.669 . S
Ho776 O803 2.346 . S
Ho776 O807 2.305 . S
Ho777 C788 2.811 . S
Ho777 O797 2.346 . S
Ho777 O801 2.305 . S
Ho777 O802 2.322 . S
Ho777 O804 2.378 . S
Ho777 O805 2.524 . S
Ho777 O806 2.381 . S
Ho777 O807 2.669 . S
C778 O796 1.259 . S
C778 O797 1.268 . S
C779 Ho776 2.811 . S
C779 C780 1.488 . S
C779 O798 1.215 . S
C779 O799 1.289 . S
C780 C779 1.488 . S
C780 C781 1.348 . S
C780 C785 1.413 . S
C781 C780 1.348 . S
C781 C782 1.442 . S
C781 H808 0.930 . S
C782 C781 1.442 . S
C782 C783 1.381 . S
C782 H809 0.931 . S
C783 C782 1.381 . S
C783 C784 1.321 . S
C784 C783 1.321 . S
C784 C785 1.403 . S
C784 H810 0.934 . S
C785 C780 1.413 . S
C785 C784 1.403 . S
C785 H811 0.930 . S
C786 O800 1.275 . S
C786 O801 1.256 . S
C787 O802 1.259 . S
C787 O803 1.268 . S
C788 Ho777 2.811 . S
C788 C789 1.488 . S
C788 O804 1.215 . S
C788 O805 1.289 . S
C789 C788 1.488 . S
C789 C790 1.348 1_655 S
C789 C794 1.413 1_655 S
C790 C789 1.348 1_455 S
C790 C791 1.442 . S
C790 H812 0.930 . S
C791 C790 1.442 . S
C791 C792 1.381 . S
C791 H813 0.931 . S
C792 C791 1.381 . S
C792 C793 1.321 . S
C793 C792 1.321 . S
C793 C794 1.403 . S
C793 H814 0.934 . S
C794 C789 1.413 1_455 S
C794 C793 1.403 . S
C794 H815 0.930 1_455 S
C795 O806 1.275 . S
C795 O807 1.256 . S
O796 Ho776 2.322 . S
O796 C778 1.259 . S
O797 Ho777 2.346 . S
O797 C778 1.268 . S
O798 Ho776 2.378 . S
O798 C779 1.215 . S
O799 Ho776 2.524 . S
O799 C779 1.289 . S
O800 Ho776 2.381 . S
O800 C786 1.275 . S
O801 Ho776 2.669 . S
O801 Ho777 2.305 . S
O801 C786 1.256 . S
O802 Ho777 2.322 . S
O802 C787 1.259 . S
O803 Ho776 2.346 . S
O803 C787 1.268 . S
O804 Ho777 2.378 . S
O804 C788 1.215 . S
O805 Ho777 2.524 . S
O805 C788 1.289 . S
O806 Ho777 2.381 . S
O806 C795 1.275 . S
O807 Ho776 2.305 . S
O807 Ho777 2.669 . S
O807 C795 1.256 . S
H808 C781 0.930 . S
H809 C782 0.931 . S
H810 C784 0.934 . S
H811 C785 0.930 . S
H812 C790 0.930 . S
H813 C791 0.931 . S
H814 C793 0.934 . S
H815 C794 0.930 1_655 S
Ho816 C819 2.811 . S
Ho816 O836 2.322 . S
Ho816 O838 2.378 . S
Ho816 O839 2.524 . S
Ho816 O840 2.381 . S
Ho816 O841 2.669 . S
Ho816 O843 2.346 . S
Ho816 O847 2.305 . S
Ho817 C828 2.811 . S
Ho817 O837 2.346 . S
Ho817 O841 2.305 . S
Ho817 O842 2.322 . S
Ho817 O844 2.378 . S
Ho817 O845 2.524 . S
Ho817 O846 2.381 . S
Ho817 O847 2.669 . S
C818 O836 1.259 . S
C818 O837 1.268 . S
C819 Ho816 2.811 . S
C819 C820 1.488 . S
C819 O838 1.215 . S
C819 O839 1.289 . S
C820 C819 1.488 . S
C820 C821 1.348 . S
C820 C825 1.413 . S
C821 C820 1.348 . S
C821 C822 1.442 . S
C821 H848 0.930 . S
C822 C821 1.442 . S
C822 C823 1.381 . S
C822 H849 0.931 . S
C823 C822 1.381 . S
C823 C824 1.321 . S
C824 C823 1.321 . S
C824 C825 1.403 . S
C824 H850 0.934 1_655 S
C825 C820 1.413 . S
C825 C824 1.403 . S
C825 H851 0.930 . S
C826 O840 1.275 . S
C826 O841 1.256 . S
C827 O842 1.259 . S
C827 O843 1.268 . S
C828 Ho817 2.811 . S
C828 C829 1.488 . S
C828 O844 1.215 . S
C828 O845 1.289 . S
C829 C828 1.488 . S
C829 C830 1.348 . S
C829 C834 1.413 . S
C830 C829 1.348 . S
C830 C831 1.442 . S
C830 H852 0.930 . S
C831 C830 1.442 . S
C831 C832 1.381 . S
C831 H853 0.931 . S
C832 C831 1.381 . S
C832 C833 1.321 . S
C833 C832 1.321 . S
C833 C834 1.403 . S
C833 H854 0.934 . S
C834 C829 1.413 . S
C834 C833 1.403 . S
C834 H855 0.930 . S
C835 O846 1.275 . S
C835 O847 1.256 . S
O836 Ho816 2.322 . S
O836 C818 1.259 . S
O837 Ho817 2.346 . S
O837 C818 1.268 . S
O838 Ho816 2.378 . S
O838 C819 1.215 . S
O839 Ho816 2.524 . S
O839 C819 1.289 . S
O840 Ho816 2.381 . S
O840 C826 1.275 . S
O841 Ho816 2.669 . S
O841 Ho817 2.305 . S
O841 C826 1.256 . S
O842 Ho817 2.322 . S
O842 C827 1.259 . S
O843 Ho816 2.346 . S
O843 C827 1.268 . S
O844 Ho817 2.378 . S
O844 C828 1.215 . S
O845 Ho817 2.524 . S
O845 C828 1.289 . S
O846 Ho817 2.381 . S
O846 C835 1.275 . S
O847 Ho816 2.305 . S
O847 Ho817 2.669 . S
O847 C835 1.256 . S
H848 C821 0.930 . S
H849 C822 0.931 . S
H850 C824 0.934 1_455 S
H851 C825 0.930 . S
H852 C830 0.930 . S
H853 C831 0.931 . S
H854 C833 0.934 . S
H855 C834 0.930 . S
Ho856 C859 2.811 . S
Ho856 O876 2.322 . S
Ho856 O878 2.378 . S
Ho856 O879 2.524 . S
Ho856 O880 2.381 . S
Ho856 O881 2.669 . S
Ho856 O883 2.346 . S
Ho856 O887 2.305 . S
Ho857 C868 2.811 . S
Ho857 O877 2.346 . S
Ho857 O881 2.305 . S
Ho857 O882 2.322 . S
Ho857 O884 2.378 . S
Ho857 O885 2.524 . S
Ho857 O886 2.381 . S
Ho857 O887 2.669 . S
C858 O876 1.259 . S
C858 O877 1.268 . S
C859 Ho856 2.811 . S
C859 C860 1.488 1_565 S
C859 O878 1.215 . S
C859 O879 1.289 . S
C860 C859 1.488 1_545 S
C860 C861 1.348 . S
C860 C865 1.413 . S
C861 C860 1.348 . S
C861 C862 1.442 . S
C861 H888 0.930 . S
C862 C861 1.442 . S
C862 C863 1.381 . S
C862 H889 0.931 . S
C863 C862 1.381 . S
C863 C864 1.321 . S
C864 C863 1.321 . S
C864 C865 1.403 . S
C864 H890 0.934 . S
C865 C860 1.413 . S
C865 C864 1.403 . S
C865 H891 0.930 . S
C866 O880 1.275 . S
C866 O881 1.256 . S
C867 O882 1.259 . S
C867 O883 1.268 . S
C868 Ho857 2.811 . S
C868 C869 1.488 . S
C868 O884 1.215 . S
C868 O885 1.289 . S
C869 C868 1.488 . S
C869 C870 1.348 . S
C869 C874 1.413 . S
C870 C869 1.348 . S
C870 C871 1.442 . S
C870 H892 0.930 . S
C871 C870 1.442 . S
C871 C872 1.381 . S
C871 H893 0.931 . S
C872 C871 1.381 . S
C872 C873 1.321 . S
C873 C872 1.321 . S
C873 C874 1.403 . S
C873 H894 0.934 . S
C874 C869 1.413 . S
C874 C873 1.403 . S
C874 H895 0.930 . S
C875 O886 1.275 . S
C875 O887 1.256 . S
O876 Ho856 2.322 . S
O876 C858 1.259 . S
O877 Ho857 2.346 . S
O877 C858 1.268 . S
O878 Ho856 2.378 . S
O878 C859 1.215 . S
O879 Ho856 2.524 . S
O879 C859 1.289 . S
O880 Ho856 2.381 . S
O880 C866 1.275 . S
O881 Ho856 2.669 . S
O881 Ho857 2.305 . S
O881 C866 1.256 . S
O882 Ho857 2.322 . S
O882 C867 1.259 . S
O883 Ho856 2.346 . S
O883 C867 1.268 . S
O884 Ho857 2.378 . S
O884 C868 1.215 . S
O885 Ho857 2.524 . S
O885 C868 1.289 . S
O886 Ho857 2.381 . S
O886 C875 1.275 . S
O887 Ho856 2.305 . S
O887 Ho857 2.669 . S
O887 C875 1.256 . S
H888 C861 0.930 . S
H889 C862 0.931 . S
H890 C864 0.934 . S
H891 C865 0.930 . S
H892 C870 0.930 . S
H893 C871 0.931 . S
H894 C873 0.934 . S
H895 C874 0.930 . S
Ho896 C899 2.811 . S
Ho896 O916 2.322 . S
Ho896 O918 2.378 . S
Ho896 O919 2.524 . S
Ho896 O920 2.381 . S
Ho896 O921 2.669 . S
Ho896 O923 2.346 . S
Ho896 O927 2.305 . S
Ho897 C908 2.811 . S
Ho897 O917 2.346 . S
Ho897 O921 2.305 . S
Ho897 O922 2.322 . S
Ho897 O924 2.378 . S
Ho897 O925 2.524 . S
Ho897 O926 2.381 . S
Ho897 O927 2.669 . S
C898 O916 1.259 . S
C898 O917 1.268 . S
C899 Ho896 2.811 . S
C899 C900 1.488 . S
C899 O918 1.215 . S
C899 O919 1.289 . S
C900 C899 1.488 . S
C900 C901 1.348 . S
C900 C905 1.413 . S
C901 C900 1.348 . S
C901 C902 1.442 . S
C901 H928 0.930 . S
C902 C901 1.442 . S
C902 C903 1.381 . S
C902 H929 0.931 . S
C903 C902 1.381 . S
C903 C904 1.321 . S
C904 C903 1.321 . S
C904 C905 1.403 . S
C904 H930 0.934 . S
C905 C900 1.413 . S
C905 C904 1.403 . S
C905 H931 0.930 . S
C906 O920 1.275 . S
C906 O921 1.256 . S
C907 O922 1.259 . S
C907 O923 1.268 . S
C908 Ho897 2.811 . S
C908 C909 1.488 . S
C908 O924 1.215 . S
C908 O925 1.289 . S
C909 C908 1.488 . S
C909 C910 1.348 . S
C909 C914 1.413 . S
C910 C909 1.348 . S
C910 C911 1.442 . S
C910 H932 0.930 . S
C911 C910 1.442 . S
C911 C912 1.381 . S
C911 H933 0.931 . S
C912 C911 1.381 . S
C912 C913 1.321 . S
C913 C912 1.321 . S
C913 C914 1.403 . S
C913 H934 0.934 . S
C914 C909 1.413 . S
C914 C913 1.403 . S
C914 H935 0.930 . S
C915 O926 1.275 . S
C915 O927 1.256 . S
O916 Ho896 2.322 . S
O916 C898 1.259 . S
O917 Ho897 2.346 . S
O917 C898 1.268 . S
O918 Ho896 2.378 . S
O918 C899 1.215 . S
O919 Ho896 2.524 . S
O919 C899 1.289 . S
O920 Ho896 2.381 . S
O920 C906 1.275 . S
O921 Ho896 2.669 . S
O921 Ho897 2.305 . S
O921 C906 1.256 . S
O922 Ho897 2.322 . S
O922 C907 1.259 . S
O923 Ho896 2.346 . S
O923 C907 1.268 . S
O924 Ho897 2.378 . S
O924 C908 1.215 . S
O925 Ho897 2.524 . S
O925 C908 1.289 . S
O926 Ho897 2.381 . S
O926 C915 1.275 . S
O927 Ho896 2.305 . S
O927 Ho897 2.669 . S
O927 C915 1.256 . S
H928 C901 0.930 . S
H929 C902 0.931 . S
H930 C904 0.934 . S
H931 C905 0.930 . S
H932 C910 0.930 . S
H933 C911 0.931 . S
H934 C913 0.934 . S
H935 C914 0.930 . S
Ho936 C939 2.811 1_554 S
Ho936 O956 2.322 1_554 S
Ho936 O958 2.378 1_554 S
Ho936 O959 2.524 . S
Ho936 O960 2.381 1_554 S
Ho936 O961 2.669 1_554 S
Ho936 O963 2.346 . S
Ho936 O967 2.305 . S
Ho937 C948 2.811 . S
Ho937 O957 2.346 . S
Ho937 O961 2.305 1_554 S
Ho937 O962 2.322 . S
Ho937 O964 2.378 . S
Ho937 O965 2.524 . S
Ho937 O966 2.381 . S
Ho937 O967 2.669 . S
C938 O956 1.259 1_554 S
C938 O957 1.268 . S
C939 Ho936 2.811 1_556 S
C939 C940 1.488 . S
C939 O958 1.215 . S
C939 O959 1.289 1_556 S
C940 C939 1.488 . S
C940 C941 1.348 1_556 S
C940 C945 1.413 . S
C941 C940 1.348 1_554 S
C941 C942 1.442 . S
C941 H968 0.930 . S
C942 C941 1.442 . S
C942 C943 1.381 1_554 S
C942 H969 0.931 . S
C943 C942 1.381 1_556 S
C943 C944 1.321 . S
C944 C943 1.321 . S
C944 C945 1.403 . S
C944 H970 0.934 . S
C945 C940 1.413 . S
C945 C944 1.403 . S
C945 H971 0.930 . S
C946 O960 1.275 . S
C946 O961 1.256 . S
C947 O962 1.259 . S
C947 O963 1.268 . S
C948 Ho937 2.811 . S
C948 C949 1.488 1_455 S
C948 O964 1.215 . S
C948 O965 1.289 . S
C949 C948 1.488 1_655 S
C949 C950 1.348 . S
C949 C954 1.413 . S
C950 C949 1.348 . S
C950 C951 1.442 . S
C950 H972 0.930 . S
C951 C950 1.442 . S
C951 C952 1.381 . S
C951 H973 0.931 . S
C952 C951 1.381 . S
C952 C953 1.321 . S
C953 C952 1.321 . S
C953 C954 1.403 . S
C953 H974 0.934 . S
C954 C949 1.413 . S
C954 C953 1.403 . S
C954 H975 0.930 . S
C955 O966 1.275 . S
C955 O967 1.256 . S
O956 Ho936 2.322 1_556 S
O956 C938 1.259 1_556 S
O957 Ho937 2.346 . S
O957 C938 1.268 . S
O958 Ho936 2.378 1_556 S
O958 C939 1.215 . S
O959 Ho936 2.524 . S
O959 C939 1.289 1_554 S
O960 Ho936 2.381 1_556 S
O960 C946 1.275 . S
O961 Ho936 2.669 1_556 S
O961 Ho937 2.305 1_556 S
O961 C946 1.256 . S
O962 Ho937 2.322 . S
O962 C947 1.259 . S
O963 Ho936 2.346 . S
O963 C947 1.268 . S
O964 Ho937 2.378 . S
O964 C948 1.215 . S
O965 Ho937 2.524 . S
O965 C948 1.289 . S
O966 Ho937 2.381 . S
O966 C955 1.275 . S
O967 Ho936 2.305 . S
O967 Ho937 2.669 . S
O967 C955 1.256 . S
H968 C941 0.930 . S
H969 C942 0.931 . S
H970 C944 0.934 . S
H971 C945 0.930 . S
H972 C950 0.930 . S
H973 C951 0.931 . S
H974 C953 0.934 . S
H975 C954 0.930 . S
C109 C338 3.408 1_556 S
C65 C395 3.418 . S
C75 C418 1.655 . S
C472 C84 1.733 . S
C25 C512 3.733 . S
C543 C28 1.647 . S
C595 C47 3.725 . S
C9 C618 3.688 . S
C355 C233 3.934 . S
C249 C392 1.909 . S
C435 C275 1.546 . S
C458 C173 1.991 . S
C224 C498 2.943 . S
C546 C243 2.346 . S
C592 C266 1.104 . S
C635 C179 3.344 . S
C352 C163 3.459 . S
C289 C675 2.865 1_556 S
C707 C333 3.872 . S
C738 C308 1.348 . S
C123 C632 4.770 . S
C126 C432 2.622 . S
C327 C795 3.133 . S
C818 C299 1.615 . S
C347 C67 3.478 . S
C826 C98 3.250 . S
C89 C427 1.718 . S
C79 C783 1.861 . S
C503 C11 3.774 . S
C51 C712 1.649 . S
C586 C33 3.723 1_564 S
C867 C14 3.609 . S
C346 C140 3.828 . S
C823 C319 1.876 . S
C112 C426 1.414 . S
C285 C787 2.004 . S
C149 C507 3.070 . S
C715 C313 2.288 . S
C121 C583 0.913 . S
C291 C866 3.402 . S
C182 C343 3.578 1_554 S
C168 C666 2.656 . S
C263 C538 3.933 . S
C247 C747 1.330 . S
C863 C277 4.798 . S
C219 C423 2.680 . S
C466 C257 3.185 . S
C387 C201 1.410 . S
C81 C898 3.408 . S
C835 C93 3.418 . S
C103 C938 1.655 . S
C56 C792 1.733 . S
C53 C672 3.734 . S
C703 C0 1.647 . S
C755 C19 3.724 1_455 S
C858 C37 3.689 . S
C915 C261 3.934 . S
C193 C832 1.909 . S
C955 C205 1.548 . S
C778 C215 1.991 . S
C658 C252 2.943 . S
C187 C706 2.345 . S
C752 C196 1.105 . S
C221 C875 3.344 . S
C912 C317 3.446 . S
C135 C515 2.865 . S
C547 C151 3.872 . S
C578 C154 1.349 . S
C872 C305 4.768 . S
C280 C952 2.622 . S
C475 C145 3.133 . S
C378 C117 1.615 . S
C95 C907 3.478 . S
C386 C70 3.249 . S
C61 C947 1.718 . S
C107 C463 1.862 . S
C39 C663 3.773 . S
C552 C23 1.649 . S
C5 C746 3.722 . S
C42 C627 3.610 . S
C906 C322 3.828 . S
C165 C383 1.876 . S
C946 C294 1.416 . S
C131 C467 2.004 . S
C331 C667 3.070 . S
C555 C159 2.290 . S
C303 C743 0.913 1_455 S
C626 C137 3.402 . S
C903 C238 3.578 . S
C506 C210 2.656 1_445 S
C235 C698 3.932 . S
C587 C191 1.330 . S
C207 C623 4.797 . S
C177 C943 2.680 1_554 S
C786 C229 3.184 . S
C827 C271 1.411 . S
