# Generated by pormake.
# Topology pth, (4,4)-cn, num edge types: 1
# Building blocks:
#     Node 0, Type 0, BuildingBlock: QUQFOY_clean_sbu_1, # of connection points: 4
#     Node 1, Type 0, BuildingBlock: QUQFOY_clean_sbu_1, # of connection points: 4
#     Node 2, Type 0, BuildingBlock: QUQFOY_clean_sbu_1, # of connection points: 4
#     Node 3, Type 1, BuildingBlock: KOZSID_clean_sbu_0, # of connection points: 4
#     Node 4, Type 1, BuildingBlock: KOZSID_clean_sbu_0, # of connection points: 4
#     Node 5, Type 1, BuildingBlock: KOZSID_clean_sbu_0, # of connection points: 4
#     Edge 6, Type (0, 1), BuildingBlock: UVAHIK_clean_linker_0, # of connection points: 2
#     Edge 7, Type (0, 1), BuildingBlock: UVAHIK_clean_linker_0, # of connection points: 2
#     Edge 8, Type (0, 1), BuildingBlock: UVAHIK_clean_linker_0, # of connection points: 2
#     Edge 9, Type (0, 1), BuildingBlock: UVAHIK_clean_linker_0, # of connection points: 2
#     Edge 10, Type (0, 1), BuildingBlock: UVAHIK_clean_linker_0, # of connection points: 2
#     Edge 11, Type (0, 1), BuildingBlock: UVAHIK_clean_linker_0, # of connection points: 2
#     Edge 12, Type (0, 1), BuildingBlock: UVAHIK_clean_linker_0, # of connection points: 2
#     Edge 13, Type (0, 1), BuildingBlock: UVAHIK_clean_linker_0, # of connection points: 2
#     Edge 14, Type (0, 1), BuildingBlock: UVAHIK_clean_linker_0, # of connection points: 2
#     Edge 15, Type (0, 1), BuildingBlock: UVAHIK_clean_linker_0, # of connection points: 2
#     Edge 16, Type (0, 1), BuildingBlock: UVAHIK_clean_linker_0, # of connection points: 2
#     Edge 17, Type (0, 1), BuildingBlock: UVAHIK_clean_linker_0, # of connection points: 2
# Relax obj value: 0.021
# Max RMSD: 0.124
# Mean RMSD: 0.073
data_MOF--net-pth--node1-QUQFOY_clean_sbu_1--node2-KOZSID_clean_sbu_0--edge1-UVAHIK_clean_linker_0
_symmetry_space_group_name_H-M    P1
_symmetry_Int_Tables_number       1
_symmetry_cell_setting            triclinic
loop_
_symmetry_equiv_pos_as_xyz
'x, y, z'
_cell_length_a     32.467223
_cell_length_b     35.181514
_cell_length_c     79.049471
_cell_angle_alpha  87.890817
_cell_angle_beta   87.848093
_cell_angle_gamma 120.07637
loop_
_atom_site_label
_atom_site_type_symbol
_atom_site_fract_x
_atom_site_fract_y
_atom_site_fract_z
_atom_type_partial_charge
O0 O 0.08207 0.10768 0.0312 0.0
Cd1 Cd 0.02438 0.06668 0.04751 0.0
Cd2 Cd 0.07221 0.0214 0.04882 0.0
O3 O 0.12696 0.07852 0.03643 0.0
O4 O 0.99619 0.10346 0.05382 0.0
O5 O 0.02953 0.07987 0.07217 0.0
C6 C 0.00979 0.10317 0.06891 0.0
C7 C 0.08675 0.98337 0.07045 0.0
C8 C 0.12155 0.10854 0.02924 0.0
C9 C 0.97689 0.97949 0.0329 0.0
O10 O 0.01555 0.97975 0.03519 0.0
O11 O 0.97094 0.01035 0.038 0.0
O12 O 0.10052 0.98435 0.05486 0.0
O13 O 0.067 0.0064 0.074 0.0
O14 O 0.00082 0.08919 0.38405 0.0
Cd15 Cd 0.06094 0.10319 0.36911 0.0
Cd16 Cd 0.01639 0.01305 0.37252 0.0
O17 O 0.96038 0.01674 0.3838 0.0
O18 O 0.08782 0.16675 0.36242 0.0
O19 O 0.05987 0.11522 0.34399 0.0
C20 C 0.07727 0.15609 0.34711 0.0
C21 C 0.00563 0.96396 0.35175 0.0
C22 C 0.96336 0.05247 0.38805 0.0
C23 C 0.11079 0.06428 0.38796 0.0
O24 O 0.07274 0.02754 0.38714 0.0
O25 O 0.11544 0.0989 0.38038 0.0
O26 O 0.99127 0.95053 0.36739 0.0
O27 O 0.02431 0.00552 0.34768 0.0
O28 O 0.98548 0.02435 0.70155 0.0
Cd29 Cd 0.02859 0.00705 0.71408 0.0
Cd30 Cd 0.08512 0.09637 0.71417 0.0
O31 O 0.02864 0.0964 0.70278 0.0
O32 O 0.98595 0.94356 0.72089 0.0
O33 O 0.01742 0.99466 0.73944 0.0
C34 C 0.98979 0.95386 0.73647 0.0
C35 C 0.12154 0.1409 0.73642 0.0
C36 C 0.99147 0.06251 0.69838 0.0
C37 C 0.12449 0.04695 0.69553 0.0
O38 O 0.1303 0.0839 0.69952 0.0
O39 O 0.08642 0.01144 0.70035 0.0
O40 O 0.12704 0.15724 0.72108 0.0
O41 O 0.09321 0.09902 0.73933 0.0
C42 C 0.09135 0.62905 0.18212 0.0
C43 C 0.13574 0.66132 0.17505 0.0
C44 C 0.16889 0.65525 0.18286 0.0
C45 C 0.14311 0.6199 0.19424 0.0
N46 N 0.09538 0.60267 0.19408 0.0
Co47 Co 0.04496 0.55177 0.20894 0.0
N48 N 0.09417 0.54671 0.2219 0.0
C49 C 0.14204 0.57338 0.21989 0.0
C50 C 0.16684 0.56143 0.23036 0.0
C51 C 0.13288 0.52464 0.23953 0.0
C52 C 0.08903 0.51629 0.23412 0.0
N53 N 0.99457 0.49964 0.22333 0.0
C54 C 0.99891 0.47264 0.23493 0.0
C55 C 0.95474 0.43855 0.2413 0.0
C56 C 0.92125 0.44361 0.2332 0.0
C57 C 0.94676 0.48036 0.2224 0.0
N58 N 0.99577 0.55811 0.19646 0.0
C59 C 0.94781 0.53327 0.19918 0.0
C60 C 0.92326 0.54702 0.18936 0.0
C61 C 0.95755 0.58338 0.18003 0.0
C62 C 0.0012 0.58972 0.18474 0.0
N63 N 0.04505 0.51046 0.19244 0.0
C64 C 0.04298 0.44653 0.17138 0.0
C65 C 0.00161 0.44785 0.17561 0.0
C66 C 0.00343 0.47975 0.18604 0.0
C67 C 0.08575 0.47858 0.17749 0.0
C68 C 0.08605 0.5102 0.18781 0.0
N69 N 0.04459 0.59295 0.22544 0.0
C70 C 1.00065 0.61532 0.24397 0.0
C71 C 0.04211 0.65465 0.24666 0.0
C72 C 0.08512 0.66208 0.23889 0.0
C73 C 0.08562 0.63088 0.22853 0.0
C74 C 0.00267 0.58525 0.23343 0.0
H75 H 0.11952 0.6384 0.223 0.0
H76 H 0.96961 0.55637 0.23175 0.0
H77 H 0.97043 0.47828 0.18895 0.0
H78 H 0.11977 0.53376 0.19204 0.0
C79 C 0.16276 0.60591 0.20667 0.0
C80 C 0.04675 0.62674 0.17797 0.0
C81 C 0.04388 0.47745 0.24007 0.0
C82 C 0.92698 0.49746 0.21118 0.0
H83 H 0.14368 0.68764 0.16567 0.0
H84 H 0.2073 0.67553 0.18104 0.0
H85 H 0.20515 0.57645 0.23072 0.0
H86 H 0.13991 0.50536 0.2487 0.0
H87 H 0.94755 0.41243 0.25069 0.0
H88 H 0.88289 0.42266 0.23482 0.0
H89 H 0.885 0.53271 0.18919 0.0
H90 H 0.95122 0.60336 0.17093 0.0
H91 H 0.96751 0.42359 0.17129 0.0
H92 H 0.11893 0.47939 0.17429 0.0
H93 H 0.96637 0.60813 0.24961 0.0
H94 H 0.11835 0.69177 0.24085 0.0
C95 C 0.47223 0.02362 0.56908 0.0
C96 C 0.43925 0.98258 0.57671 0.0
C97 C 0.44519 0.95226 0.5684 0.0
C98 C 0.48166 0.97634 0.55638 0.0
N99 N 0.49955 0.02029 0.55648 0.0
Co100 Co 0.55552 0.0673 0.5421 0.0
N101 N 0.56265 0.02234 0.5294 0.0
C102 C 0.53421 0.97808 0.53133 0.0
C103 C 0.54567 0.95567 0.52008 0.0
C104 C 0.58384 0.98745 0.51034 0.0
C105 C 0.59395 0.02762 0.51642 0.0
N106 N 0.61261 0.11429 0.52812 0.0
C107 C 0.6413 0.11087 0.51607 0.0
C108 C 0.67922 0.1519 0.51041 0.0
C109 C 0.67395 0.1823 0.51897 0.0
C110 C 0.63362 0.15828 0.52947 0.0
N111 N 0.5471 0.11224 0.55436 0.0
C112 C 0.57334 0.15652 0.55155 0.0
C113 C 0.5574 0.17887 0.56106 0.0
C114 C 0.51848 0.14703 0.5705 0.0
C115 C 0.51324 0.10686 0.56635 0.0
N116 N 0.59871 0.0674 0.55931 0.0
C117 C 0.66145 0.06848 0.58335 0.0
C118 C 0.6606 0.10666 0.57852 0.0
C119 C 0.62952 0.10544 0.56656 0.0
C120 C 0.62988 0.02956 0.57603 0.0
C121 C 0.59896 0.02972 0.5642 0.0
N122 N 0.51253 0.0674 0.52492 0.0
C123 C 0.49015 0.10731 0.50531 0.0
C124 C 0.45137 0.06819 0.50075 0.0
C125 C 0.44373 0.02857 0.50839 0.0
C126 C 0.47429 0.02894 0.52048 0.0
C127 C 0.52026 0.10616 0.5172 0.0
H128 H 0.46615 0.99777 0.52611 0.0
H129 H 0.54955 0.1371 0.51992 0.0
H130 H 0.63125 0.13586 0.56342 0.0
H131 H 0.57582 0.99898 0.55914 0.0
C132 C 0.49817 0.95848 0.54428 0.0
C133 C 0.47561 0.06459 0.5741 0.0
C134 C 0.63424 0.06968 0.5097 0.0
C135 C 0.61361 0.17614 0.54023 0.0
H136 H 0.41332 0.97517 0.58715 0.0
H137 H 0.42502 0.91684 0.57074 0.0
H138 H 0.52849 0.92041 0.51913 0.0
H139 H 0.60225 0.98154 0.49999 0.0
H140 H 0.70788 0.15926 0.50108 0.0
H141 H 0.69674 0.21772 0.51766 0.0
H142 H 0.57228 0.21412 0.56111 0.0
H143 H 0.49646 0.15288 0.57941 0.0
H144 H 0.68355 0.13754 0.58402 0.0
H145 H 0.62938 0.99911 0.57916 0.0
H146 H 0.49766 0.13875 0.49955 0.0
H147 H 0.41378 0.99746 0.5053 0.0
C148 C 0.64672 0.58203 0.86099 0.0
C149 C 0.6845 0.57739 0.85483 0.0
C150 C 0.68131 0.54195 0.86369 0.0
C151 C 0.64205 0.52705 0.87474 0.0
N152 N 0.61967 0.55064 0.87341 0.0
Co153 Co 0.56158 0.54061 0.88725 0.0
N154 N 0.5601 0.49143 0.90144 0.0
C155 C 0.59206 0.4775 0.90053 0.0
C156 C 0.58196 0.44339 0.91203 0.0
C157 C 0.54087 0.43477 0.92077 0.0
C158 C 0.52821 0.46416 0.91399 0.0
N159 N 0.50236 0.52943 0.90068 0.0
C160 C 0.47509 0.49756 0.91292 0.0
C161 C 0.43533 0.49998 0.91831 0.0
C162 C 0.43731 0.53443 0.90906 0.0
C163 C 0.47787 0.55087 0.89855 0.0
N164 N 0.56427 0.59103 0.8735 0.0
C165 C 0.53408 0.60687 0.87516 0.0
C166 C 0.54631 0.64309 0.86451 0.0
C167 C 0.58721 0.65138 0.8557 0.0
C168 C 0.5976 0.61962 0.86153 0.0
N169 N 0.52045 0.4982 0.87091 0.0
C170 C 0.45587 0.43382 0.85025 0.0
C171 C 0.45246 0.47083 0.85368 0.0
C172 C 0.48487 0.50234 0.86386 0.0
C173 C 0.49337 0.43043 0.85681 0.0
C174 C 0.52507 0.46279 0.86701 0.0
N175 N 0.60236 0.58294 0.90366 0.0
C176 C 0.6178 0.64151 0.92203 0.0
C177 C 0.66153 0.6459 0.92593 0.0
C178 C 0.67467 0.61749 0.91871 0.0
C179 C 0.64468 0.58635 0.90778 0.0
C180 C 0.58927 0.61038 0.91092 0.0
H181 H 0.65672 0.5657 0.9027 0.0
H182 H 0.55687 0.60943 0.90838 0.0
H183 H 0.47991 0.52946 0.866 0.0
H184 H 0.55255 0.45809 0.87182 0.0
C185 C 0.6286 0.49435 0.88773 0.0
C186 C 0.63979 0.61831 0.8554 0.0
C187 C 0.48458 0.46361 0.91944 0.0
C188 C 0.49439 0.58683 0.88676 0.0
H189 H 0.71244 0.59822 0.84529 0.0
H190 H 0.70584 0.52963 0.86269 0.0
H191 H 0.60136 0.426 0.91353 0.0
H192 H 0.5218 0.40915 0.93077 0.0
H193 H 0.40752 0.47875 0.92783 0.0
H194 H 0.41203 0.54592 0.90981 0.0
H195 H 0.52788 0.66147 0.86339 0.0
H196 H 0.60735 0.67801 0.84615 0.0
H197 H 0.42485 0.47562 0.8485 0.0
H198 H 0.49763 0.40241 0.85447 0.0
H199 H 0.60524 0.66186 0.92756 0.0
H200 H 0.70833 0.61967 0.92118 0.0
C201 C 0.03172 0.14073 0.09628 0.0
C202 C 0.00664 0.13201 0.08146 0.0
C203 C 0.03413 0.17288 0.10681 0.0
C204 C 0.02381 0.27294 0.10478 0.0
H205 H 0.0221 0.26269 0.15383 0.0
C206 C 0.0128 0.39834 0.14687 0.0
C207 C 0.04102 0.41142 0.16092 0.0
C208 C 0.00916 0.36404 0.13746 0.0
C209 C 0.02317 0.26622 0.14013 0.0
H210 H 0.96215 0.14838 0.06662 0.0
H211 H 0.96545 0.20347 0.0851 0.0
H212 H 0.01231 0.20147 0.13742 0.0
H213 H 0.08759 0.39867 0.17609 0.0
H214 H 0.08167 0.33902 0.1595 0.0
H215 H 0.03454 0.33753 0.10745 0.0
C216 C 0.98435 0.18643 0.08839 0.0
C217 C 0.01751 0.23112 0.13072 0.0
C218 C 0.98213 0.15453 0.07786 0.0
C219 C 0.06591 0.38965 0.16524 0.0
C220 C 0.06207 0.35515 0.15586 0.0
C221 C 0.02935 0.3079 0.11417 0.0
C222 C 0.0114 0.19686 0.10275 0.0
C223 C 0.01747 0.23396 0.11293 0.0
C224 C 0.03353 0.34186 0.14189 0.0
C225 C 0.02887 0.30492 0.13196 0.0
H226 H 0.05114 0.12406 0.09937 0.0
H227 H 0.05545 0.18018 0.11772 0.0
H228 H 0.02513 0.27675 0.09108 0.0
H229 H 0.9935 0.41467 0.14311 0.0
H230 H 0.98653 0.3544 0.12687 0.0
C231 C 0.89615 0.01639 0.41036 0.0
C232 C 0.9243 0.0517 0.39851 0.0
C233 C 0.8627 0.018 0.42153 0.0
C234 C 0.83217 0.09872 0.43907 0.0
H235 H 0.71921 0.99257 0.45775 0.0
C236 C 0.67351 0.08943 0.48024 0.0
C237 C 0.66859 0.07012 0.4966 0.0
C238 C 0.7043 0.088 0.46775 0.0
C239 C 0.75068 0.02238 0.45258 0.0
H240 H 0.93791 0.11524 0.38834 0.0
H241 H 0.87771 0.11702 0.40702 0.0
H242 H 0.77118 0.98736 0.43597 0.0
H243 H 0.69173 0.03453 0.51289 0.0
H244 H 0.74434 0.03052 0.49077 0.0
H245 H 0.81005 0.13355 0.45538 0.0
C246 C 0.88273 0.08891 0.40836 0.0
C247 C 0.78074 0.01951 0.44021 0.0
C248 C 0.91697 0.08775 0.3975 0.0
C249 C 0.69497 0.04951 0.50032 0.0
C250 C 0.72482 0.04714 0.48773 0.0
C251 C 0.80147 0.1016 0.45115 0.0
C252 C 0.85586 0.05455 0.42082 0.0
C253 C 0.82228 0.05761 0.4334 0.0
C254 C 0.72961 0.06632 0.47138 0.0
C255 C 0.76087 0.06343 0.45811 0.0
H256 H 0.90143 0.98836 0.41149 0.0
H257 H 0.84347 0.99117 0.43107 0.0
H258 H 0.86421 0.12877 0.43452 0.0
H259 H 0.6532 0.10521 0.47711 0.0
H260 H 0.70758 0.10294 0.45517 0.0
C261 C 0.95967 0.93149 0.76703 0.0
C262 C 0.96086 0.92002 0.75025 0.0
C263 C 0.92867 0.89976 0.7796 0.0
C264 C 0.85344 0.77882 0.78903 0.0
H265 H 0.77995 0.81016 0.81931 0.0
C266 C 0.68249 0.6477 0.8268 0.0
C267 C 0.67668 0.65468 0.84384 0.0
C268 C 0.71911 0.68108 0.81617 0.0
C269 C 0.80057 0.80103 0.81108 0.0
H270 H 0.93144 0.86602 0.73362 0.0
H271 H 0.87747 0.81116 0.75536 0.0
H272 H 0.84255 0.86656 0.79972 0.0
H273 H 0.70304 0.70166 0.86321 0.0
H274 H 0.76724 0.76056 0.84458 0.0
H275 H 0.81087 0.71316 0.80015 0.0
C276 C 0.90069 0.8444 0.75894 0.0
C277 C 0.83656 0.83337 0.79989 0.0
C278 C 0.93152 0.876 0.74642 0.0
C279 C 0.70709 0.69582 0.85005 0.0
C280 C 0.7436 0.72937 0.8394 0.0
C281 C 0.81739 0.74652 0.80016 0.0
C282 C 0.89839 0.85593 0.77564 0.0
C283 C 0.86299 0.82252 0.78856 0.0
C284 C 0.75038 0.72218 0.82239 0.0
C285 C 0.79011 0.75711 0.81114 0.0
H286 H 0.98185 0.96513 0.77039 0.0
H287 H 0.92819 0.90961 0.79239 0.0
H288 H 0.87371 0.76948 0.78072 0.0
H289 H 0.6591 0.61616 0.8218 0.0
H290 H 0.72289 0.67477 0.80306 0.0
C291 C 0.07094 0.94875 0.10016 0.0
C292 C 0.08977 0.95346 0.08341 0.0
C293 C 0.0688 0.91647 0.11169 0.0
C294 C 0.11477 0.83897 0.11815 0.0
H295 H 0.99859 0.77112 0.14695 0.0
C296 C 0.06275 0.67006 0.15023 0.0
C297 C 0.04807 0.66336 0.16752 0.0
C298 C 0.06798 0.70671 0.14075 0.0
C299 C 0.03141 0.79003 0.13909 0.0
H300 H 0.12244 0.92884 0.06581 0.0
H301 H 0.118 0.87254 0.08565 0.0
H302 H 0.01009 0.8348 0.12946 0.0
H303 H 0.02541 0.68804 0.18841 0.0
H304 H 0.03373 0.75206 0.17173 0.0
H305 H 0.13538 0.79339 0.12744 0.0
C306 C 0.10554 0.89402 0.09008 0.0
C307 C 0.03817 0.8267 0.12912 0.0
C308 C 0.10787 0.92629 0.07863 0.0
C309 C 0.03681 0.69277 0.17506 0.0
C310 C 0.04155 0.72924 0.16553 0.0
C311 C 0.10779 0.80214 0.12797 0.0
C312 C 0.08534 0.88817 0.1067 0.0
C313 C 0.07973 0.85135 0.11836 0.0
C314 C 0.05801 0.737 0.14834 0.0
C315 C 0.06582 0.77698 0.1384 0.0
H316 H 0.05672 0.96919 0.10424 0.0
H317 H 0.05369 0.91339 0.12446 0.0
H318 H 0.14766 0.85765 0.11031 0.0
H319 H 0.07123 0.64747 0.14418 0.0
H320 H 0.07999 0.71146 0.12746 0.0
C321 C 0.13896 0.03095 0.40979 0.0
C322 C 0.14896 0.06635 0.39827 0.0
C323 C 0.1741 0.03246 0.41983 0.0
C324 C 0.29123 0.1097 0.43613 0.0
H325 H 0.28958 1.00104 0.44805 0.0
C326 C 0.40064 0.09731 0.48968 0.0
C327 C 0.41905 0.06892 0.48818 0.0
C328 C 0.37004 0.09804 0.47787 0.0
C329 C 0.2912 0.03189 0.44469 0.0
H330 H 0.20403 0.13104 0.38814 0.0
H331 H 0.26611 0.13318 0.40532 0.0
H332 H 0.234 1.00081 0.42837 0.0
H333 H 0.42094 0.0198 0.47299 0.0
H334 H 0.36883 0.02197 0.45201 0.0
H335 H 0.34973 0.14108 0.45196 0.0
C336 C 0.23065 0.10459 0.40687 0.0
C337 C 0.25863 0.03162 0.43358 0.0
C338 C 0.19516 0.1033 0.39694 0.0
C339 C 0.40672 0.04159 0.47454 0.0
C340 C 0.3767 0.04279 0.46257 0.0
C341 C 0.32428 0.11009 0.44708 0.0
C342 C 0.22052 0.06915 0.41847 0.0
C343 C 0.25762 0.07034 0.42936 0.0
C344 C 0.35768 0.07085 0.46412 0.0
C345 C 0.32427 0.07105 0.45171 0.0
H346 H 0.1036 0.00215 0.41129 0.0
H347 H 0.16445 0.005 0.42888 0.0
H348 H 0.29139 0.14012 0.43331 0.0
H349 H 0.40924 0.11841 0.50019 0.0
H350 H 0.35542 0.11939 0.47974 0.0
C351 C 0.17939 0.21474 0.74621 0.0
C352 C 0.14994 0.16917 0.74983 0.0
C353 C 0.21055 0.24114 0.758 0.0
C354 C 0.23734 0.24616 0.80316 0.0
H355 H 0.36431 0.33421 0.78516 0.0
C356 C 0.43445 0.37975 0.82756 0.0
C357 C 0.42024 0.39918 0.83998 0.0
C358 C 0.40097 0.34878 0.81738 0.0
C359 C 0.32922 0.30949 0.79044 0.0
H360 H 0.12889 0.11583 0.76895 0.0
H361 H 0.18362 0.16208 0.78959 0.0
H362 H 0.30606 0.28612 0.76604 0.0
H363 H 0.35937 0.39986 0.85192 0.0
H364 H 0.30127 0.34659 0.83401 0.0
H365 H 0.26084 0.26941 0.82763 0.0
C366 C 0.18236 0.17736 0.77763 0.0
C367 C 0.29557 0.2823 0.77944 0.0
C368 C 0.15104 0.15085 0.76579 0.0
C369 C 0.37163 0.38604 0.84229 0.0
C370 C 0.33819 0.35505 0.83216 0.0
C371 C 0.27104 0.27349 0.81419 0.0
C372 C 0.21318 0.22268 0.77371 0.0
C373 C 0.24908 0.25059 0.78563 0.0
C374 C 0.35251 0.33642 0.81945 0.0
C375 C 0.31729 0.3057 0.80794 0.0
H376 H 0.17923 0.23001 0.73408 0.0
H377 H 0.23301 0.27607 0.75472 0.0
H378 H 0.20182 0.22217 0.80833 0.0
H379 H 0.47162 0.38927 0.82541 0.0
H380 H 0.4131 0.33467 0.80783 0.0
C381 C 0.9105 0.03016 0.6871 0.0
C382 C 0.95578 0.06707 0.68875 0.0
C383 C 0.87797 0.03314 0.67687 0.0
C384 C 0.87365 0.09411 0.63944 0.0
H385 H 0.73922 0.04061 0.65323 0.0
C386 C 0.74127 0.10637 0.59604 0.0
C387 C 0.69515 0.06953 0.59587 0.0
C388 C 0.77272 0.10786 0.60793 0.0
C389 C 0.77653 0.05523 0.64908 0.0
H390 H 0.00196 0.13636 0.68127 0.0
H391 H 0.94509 0.14138 0.66318 0.0
H392 H 0.79439 0.04079 0.67339 0.0
H393 H 0.64617 0.00528 0.60821 0.0
H394 H 0.70165 0.00706 0.62845 0.0
H395 H 0.85594 0.10734 0.615 0.0
C396 C 0.93496 0.11018 0.66985 0.0
C397 C 0.80814 0.05554 0.66068 0.0
C398 C 0.96735 0.10736 0.68028 0.0
C399 C 0.68153 0.034 0.60782 0.0
C400 C 0.71317 0.03533 0.61963 0.0
C401 C 0.84201 0.0934 0.62778 0.0
C402 C 0.89016 0.07296 0.66791 0.0
C403 C 0.85698 0.07483 0.65596 0.0
C404 C 0.75915 0.07234 0.61987 0.0
C405 C 0.79297 0.07379 0.63242 0.0
H406 H 0.9004 0.99867 0.6935 0.0
H407 H 0.84385 0.00384 0.67552 0.0
H408 H 0.91101 0.1086 0.63537 0.0
H409 H 0.75339 0.1341 0.58688 0.0
H410 H 0.80757 0.13715 0.60783 0.0
C411 C 0.94045 0.90438 0.02192 0.0
C412 C 0.93966 0.94364 0.02368 0.0
C413 C 0.90739 0.87145 0.01232 0.0
C414 C 0.83487 0.85579 0.97648 0.0
H415 H 0.76806 0.73266 0.99244 0.0
C416 C 0.69578 0.72131 0.93699 0.0
C417 C 0.69299 0.68006 0.93735 0.0
C418 C 0.72424 0.75309 0.94794 0.0
C419 C 0.78692 0.76681 0.98767 0.0
H420 H 0.90309 0.97887 0.01695 0.0
H421 H 0.84564 0.92138 0.99988 0.0
H422 H 0.81962 0.78848 0.01116 0.0
H423 H 0.71854 0.64026 0.94959 0.0
H424 H 0.76986 0.69637 0.96812 0.0
H425 H 0.80378 0.83442 0.95283 0.0
C426 C 0.87186 0.91622 0.00603 0.0
C427 C 0.8162 0.79876 0.99846 0.0
C428 C 0.90453 0.94895 0.01586 0.0
C429 C 0.72008 0.67174 0.94881 0.0
C430 C 0.749 0.70376 0.95965 0.0
C431 C 0.8061 0.82384 0.96562 0.0
C432 C 0.87324 0.87731 0.00408 0.0
C433 C 0.8405 0.84354 0.99295 0.0
C434 C 0.75128 0.7448 0.95942 0.0
C435 C 0.78177 0.77888 0.97105 0.0
H436 H 0.96697 0.89922 0.02783 0.0
H437 H 0.90947 0.84193 0.01094 0.0
H438 H 0.85378 0.89005 0.97183 0.0
H439 H 0.67614 0.72931 0.92815 0.0
H440 H 0.72454 0.78403 0.9475 0.0
C441 C 0.02966 0.94803 0.32347 0.0
C442 C 0.00395 0.93279 0.33931 0.0
C443 C 0.03283 0.91865 0.31274 0.0
C444 C 0.02261 0.80893 0.31471 0.0
H445 H 0.02227 0.8194 0.26573 0.0
C446 C 0.01116 0.6743 0.2725 0.0
C447 C 0.04003 0.68774 0.25729 0.0
C448 C 0.00757 0.70506 0.28218 0.0
C449 C 0.02295 0.81636 0.27939 0.0
H450 H 0.95925 0.8745 0.35589 0.0
H451 H 0.96382 0.82339 0.33709 0.0
H452 H 0.01234 0.87109 0.28284 0.0
H453 H 0.08776 0.74413 0.24034 0.0
H454 H 0.08187 0.79804 0.25738 0.0
H455 H 0.03295 0.75417 0.31131 0.0
C456 C 0.98268 0.8581 0.33311 0.0
C457 C 0.01723 0.84596 0.2892 0.0
C458 C 0.97973 0.88741 0.34384 0.0
C459 C 0.06557 0.73278 0.25207 0.0
C460 C 0.06177 0.76358 0.26173 0.0
C461 C 0.02816 0.77934 0.30494 0.0
C462 C 0.0102 0.87342 0.31761 0.0
C463 C 0.01667 0.84241 0.307 0.0
C464 C 0.03264 0.75005 0.27688 0.0
C465 C 0.02813 0.78251 0.28717 0.0
H466 H 0.04887 0.98284 0.31964 0.0
H467 H 0.05453 0.93163 0.30093 0.0
H468 H 0.02353 0.80582 0.32835 0.0
H469 H 0.99133 0.6399 0.27694 0.0
H470 H 0.98448 0.69347 0.2937 0.0
C471 C 0.14989 0.01213 0.67355 0.0
C472 C 0.1618 0.04583 0.68466 0.0
C473 C 0.18473 0.01326 0.66225 0.0
C474 C 0.30707 0.09116 0.6428 0.0
H475 H 0.29766 0.98392 0.62731 0.0
C476 C 0.45526 0.08168 0.60271 0.0
C477 C 0.44041 0.06299 0.58711 0.0
C478 C 0.42197 0.07957 0.615 0.0
C479 C 0.30054 0.01405 0.63156 0.0
H480 H 0.21971 0.10594 0.6933 0.0
H481 H 0.28096 0.10673 0.67438 0.0
H482 H 0.23919 0.97932 0.64885 0.0
H483 H 0.37965 0.02725 0.57208 0.0
H484 H 0.32093 0.02202 0.59393 0.0
H485 H 0.3697 0.12558 0.62585 0.0
C486 C 0.24449 0.08038 0.67373 0.0
C487 C 0.26691 0.01154 0.6438 0.0
C488 C 0.20946 0.07978 0.68472 0.0
C489 C 0.39176 0.04179 0.58405 0.0
C490 C 0.35835 0.03875 0.59649 0.0
C491 C 0.34126 0.09358 0.63086 0.0
C492 C 0.23253 0.04764 0.66207 0.0
C493 C 0.2694 0.05009 0.6495 0.0
C494 C 0.37325 0.05776 0.61202 0.0
C495 C 0.33797 0.05507 0.62505 0.0
H496 H 0.1133 0.98574 0.67315 0.0
H497 H 0.17373 0.98781 0.65334 0.0
H498 H 0.30981 0.12163 0.64648 0.0
H499 H 0.4926 0.09784 0.60535 0.0
H500 H 0.4341 0.09432 0.62693 0.0
C501 C 0.15304 0.17552 0.00938 0.0
C502 C 0.16079 0.14452 0.01827 0.0
C503 C 0.18923 0.20904 0.99873 0.0
C504 C 0.31915 0.27271 0.9901 0.0
H505 H 0.28656 0.30024 0.94639 0.0
C506 C 0.44524 0.43104 0.94825 0.0
C507 C 0.44827 0.42651 0.93079 0.0
C508 C 0.41138 0.39562 0.95894 0.0
C509 C 0.29635 0.29276 0.95849 0.0
H510 H 0.21307 0.12486 0.02303 0.0
H511 H 0.27657 0.18375 0.00435 0.0
H512 H 0.22551 0.23964 0.96493 0.0
H513 H 0.41961 0.38232 0.91061 0.0
H514 H 0.36009 0.3201 0.92925 0.0
H515 H 0.39013 0.32588 0.98358 0.0
C516 C 0.24233 0.18199 0.00573 0.0
C517 C 0.26127 0.25833 0.96918 0.0
C518 C 0.20591 0.14817 0.01637 0.0
C519 C 0.41736 0.38629 0.92408 0.0
C520 C 0.38338 0.35093 0.93473 0.0
C521 C 0.35425 0.30738 0.97942 0.0
C522 C 0.2342 0.21257 0.99671 0.0
C523 C 0.27218 0.24809 0.98515 0.0
C524 C 0.37996 0.35521 0.95228 0.0
C525 C 0.34315 0.31788 0.96353 0.0
H526 H 0.11882 0.17386 0.01056 0.0
H527 H 0.18209 0.23248 0.99216 0.0
H528 H 0.32855 0.26576 0.00237 0.0
H529 H 0.46906 0.46196 0.95358 0.0
H530 H 0.40927 0.40007 0.97236 0.0
C531 C 0.06476 0.17743 0.31783 0.0
C532 C 0.08109 0.18931 0.33409 0.0
C533 C 0.06317 0.208 0.30639 0.0
C534 C 0.10723 0.328 0.29863 0.0
H535 H 0.99427 0.28769 0.27323 0.0
C536 C 0.05717 0.44849 0.2675 0.0
C537 C 0.04415 0.44186 0.25069 0.0
C538 C 0.06167 0.41661 0.27699 0.0
C539 C 0.02621 0.29935 0.28013 0.0
H540 H 0.10995 0.24304 0.35085 0.0
H541 H 0.10656 0.29572 0.33116 0.0
H542 H 0.00493 0.23455 0.29045 0.0
H543 H 0.02376 0.3966 0.23071 0.0
H544 H 0.03092 0.34019 0.2474 0.0
H545 H 0.12787 0.39291 0.28862 0.0
C546 C 0.09559 0.26315 0.32705 0.0
C547 C 0.03249 0.26889 0.28993 0.0
C548 C 0.09732 0.23275 0.33842 0.0
C549 C 0.03383 0.4022 0.24369 0.0
C550 C 0.0379 0.37006 0.25323 0.0
C551 C 0.10075 0.35842 0.28895 0.0
C552 C 0.07784 0.25107 0.31097 0.0
C553 C 0.07285 0.28289 0.29947 0.0
C554 C 0.0527 0.37728 0.26989 0.0
C555 C 0.05995 0.34452 0.27973 0.0
H556 H 0.052 0.14422 0.3141 0.0
H557 H 0.04997 0.19774 0.29402 0.0
H558 H 0.13922 0.33994 0.3055 0.0
H559 H 0.06498 0.47884 0.27312 0.0
H560 H 0.07237 0.42279 0.28988 0.0
loop_
_geom_bond_atom_site_label_1
_geom_bond_atom_site_label_2
_geom_bond_distance
_geom_bond_site_symmetry_2
_ccdc_geom_bond_type
O0 Cd1 2.223 . S
O0 C8 1.315 . S
Cd1 O0 2.223 . S
Cd1 O4 2.297 . S
Cd1 O5 2.439 . S
Cd1 O11 2.240 . S
Cd2 O3 2.240 . S
Cd2 O10 2.223 1_545 S
Cd2 O12 2.297 1_545 S
Cd2 O13 2.439 1_545 S
O3 Cd2 2.240 . S
O3 C8 1.279 . S
O4 Cd1 2.297 . S
O4 C6 1.247 . S
O5 Cd1 2.439 . S
O5 C6 1.208 . S
C6 O4 1.247 . S
C6 O5 1.208 . S
C7 O12 1.247 . S
C7 O13 1.208 . S
C8 O0 1.315 . S
C8 O3 1.279 . S
C9 O10 1.315 . S
C9 O11 1.279 1_565 S
O10 Cd2 2.223 1_565 S
O10 C9 1.315 . S
O11 Cd1 2.240 . S
O11 C9 1.279 1_545 S
O12 Cd2 2.297 1_565 S
O12 C7 1.247 . S
O13 Cd2 2.439 1_565 S
O13 C7 1.208 . S
O14 Cd15 2.223 . S
O14 C22 1.315 1_455 S
Cd15 O14 2.223 . S
Cd15 O18 2.297 . S
Cd15 O19 2.439 . S
Cd15 O25 2.240 . S
Cd16 O17 2.238 . S
Cd16 O24 2.223 1_655 S
Cd16 O26 2.299 1_645 S
Cd16 O27 2.439 1_655 S
O17 Cd16 2.238 . S
O17 C22 1.279 . S
O18 Cd15 2.297 . S
O18 C20 1.247 . S
O19 Cd15 2.439 . S
O19 C20 1.208 . S
C20 O18 1.247 . S
C20 O19 1.208 . S
C21 O26 1.247 . S
C21 O27 1.208 1_565 S
C22 O14 1.315 1_655 S
C22 O17 1.279 . S
C23 O24 1.315 . S
C23 O25 1.279 . S
O24 Cd16 2.223 1_455 S
O24 C23 1.315 . S
O25 Cd15 2.240 . S
O25 C23 1.279 . S
O26 Cd16 2.299 1_465 S
O26 C21 1.247 . S
O27 Cd16 2.439 1_455 S
O27 C21 1.208 1_545 S
O28 Cd29 2.223 1_655 S
O28 C36 1.315 1_565 S
Cd29 O28 2.223 1_455 S
Cd29 O32 2.297 1_455 S
Cd29 O33 2.442 . S
Cd29 O39 2.240 1_565 S
Cd30 O31 2.240 . S
Cd30 O38 2.223 . S
Cd30 O40 2.297 . S
Cd30 O41 2.439 . S
O31 Cd30 2.240 . S
O31 C36 1.279 1_455 S
O32 Cd29 2.297 1_655 S
O32 C34 1.247 . S
O33 Cd29 2.442 . S
O33 C34 1.205 1_455 S
C34 O32 1.247 . S
C34 O33 1.205 1_655 S
C35 O40 1.247 . S
C35 O41 1.208 . S
C36 O28 1.315 1_545 S
C36 O31 1.279 1_655 S
C37 O38 1.315 . S
C37 O39 1.279 . S
O38 Cd30 2.223 . S
O38 C37 1.315 . S
O39 Cd29 2.240 1_545 S
O39 C37 1.279 . S
O40 Cd30 2.297 . S
O40 C35 1.247 . S
O41 Cd30 2.439 . S
O41 C35 1.208 . S
C42 C43 1.443 . S
C42 N46 1.376 . S
C42 C80 1.389 . S
C43 C42 1.443 . S
C43 C44 1.340 . S
C43 H83 0.951 . S
C44 C43 1.340 . S
C44 C45 1.439 . S
C44 H84 0.950 . S
C45 C44 1.439 . S
C45 N46 1.374 . S
C45 C79 1.395 . S
N46 C42 1.376 . S
N46 C45 1.374 . S
N46 Co47 2.008 . S
Co47 N46 2.008 . S
Co47 N48 1.995 . S
Co47 N53 2.008 1_455 S
Co47 N58 1.995 1_455 S
Co47 N63 2.282 . S
Co47 N69 2.282 . S
N48 Co47 1.995 . S
N48 C49 1.376 . S
N48 C52 1.383 . S
C49 N48 1.376 . S
C49 C50 1.446 . S
C49 C79 1.391 . S
C50 C49 1.446 . S
C50 C51 1.339 . S
C50 H85 0.949 . S
C51 C50 1.339 . S
C51 C52 1.439 . S
C51 H86 0.950 . S
C52 N48 1.383 . S
C52 C51 1.439 . S
C52 C81 1.392 . S
N53 Co47 2.008 1_655 S
N53 C54 1.376 . S
N53 C57 1.374 . S
C54 N53 1.376 . S
C54 C55 1.443 . S
C54 C81 1.389 1_655 S
C55 C54 1.443 . S
C55 C56 1.340 . S
C55 H87 0.951 . S
C56 C55 1.340 . S
C56 C57 1.439 . S
C56 H88 0.950 . S
C57 N53 1.374 . S
C57 C56 1.439 . S
C57 C82 1.395 . S
N58 Co47 1.995 1_655 S
N58 C59 1.376 . S
N58 C62 1.383 . S
C59 N58 1.376 . S
C59 C60 1.446 . S
C59 C82 1.391 . S
C60 C59 1.446 . S
C60 C61 1.339 . S
C60 H89 0.949 . S
C61 C60 1.339 . S
C61 C62 1.439 . S
C61 H90 0.950 . S
C62 N58 1.383 . S
C62 C61 1.439 . S
C62 C80 1.392 1_655 S
N63 Co47 2.282 . S
N63 C66 1.332 . S
N63 C68 1.332 . S
C64 C65 1.386 . S
C64 C67 1.388 . S
C65 C64 1.386 . S
C65 C66 1.382 . S
C65 H91 0.950 1_455 S
C66 N63 1.332 . S
C66 C65 1.382 . S
C66 H77 0.952 1_455 S
C67 C64 1.388 . S
C67 C68 1.382 . S
C67 H92 0.950 . S
C68 N63 1.332 . S
C68 C67 1.382 . S
C68 H78 0.948 . S
N69 Co47 2.282 . S
N69 C73 1.332 . S
N69 C74 1.332 1_455 S
C70 C71 1.388 1_655 S
C70 C74 1.382 . S
C70 H93 0.950 . S
C71 C70 1.388 1_455 S
C71 C72 1.386 . S
C72 C71 1.386 . S
C72 C73 1.382 . S
C72 H94 0.950 . S
C73 N69 1.332 . S
C73 C72 1.382 . S
C73 H75 0.952 . S
C74 N69 1.332 1_655 S
C74 C70 1.382 . S
C74 H76 0.948 . S
H75 C73 0.952 . S
H76 C74 0.948 . S
H77 C66 0.952 1_655 S
H78 C68 0.948 . S
C79 C45 1.395 . S
C79 C49 1.391 . S
C80 C42 1.389 . S
C80 C62 1.392 1_455 S
C81 C52 1.392 . S
C81 C54 1.389 1_455 S
C82 C57 1.395 . S
C82 C59 1.391 . S
H83 C43 0.951 . S
H84 C44 0.950 . S
H85 C50 0.949 . S
H86 C51 0.950 . S
H87 C55 0.951 . S
H88 C56 0.950 . S
H89 C60 0.949 . S
H90 C61 0.950 . S
H91 C65 0.950 1_655 S
H92 C67 0.950 . S
H93 C70 0.950 . S
H94 C72 0.950 . S
C95 C96 1.443 1_545 S
C95 N99 1.376 . S
C95 C133 1.389 . S
C96 C95 1.443 1_565 S
C96 C97 1.340 . S
C96 H136 0.951 . S
C97 C96 1.340 . S
C97 C98 1.439 . S
C97 H137 0.950 . S
C98 C97 1.439 . S
C98 N99 1.374 1_565 S
C98 C132 1.395 . S
N99 C95 1.376 . S
N99 C98 1.374 1_545 S
N99 Co100 2.008 . S
Co100 N99 2.008 . S
Co100 N101 1.995 . S
Co100 N106 2.008 . S
Co100 N111 1.995 . S
Co100 N116 2.282 . S
Co100 N122 2.282 . S
N101 Co100 1.995 . S
N101 C102 1.376 1_545 S
N101 C105 1.383 . S
C102 N101 1.376 1_565 S
C102 C103 1.446 . S
C102 C132 1.391 . S
C103 C102 1.446 . S
C103 C104 1.339 . S
C103 H138 0.949 . S
C104 C103 1.339 . S
C104 C105 1.439 1_565 S
C104 H139 0.950 . S
C105 N101 1.383 . S
C105 C104 1.439 1_545 S
C105 C134 1.392 . S
N106 Co100 2.008 . S
N106 C107 1.376 . S
N106 C110 1.374 . S
C107 N106 1.376 . S
C107 C108 1.443 . S
C107 C134 1.389 . S
C108 C107 1.443 . S
C108 C109 1.340 . S
C108 H140 0.951 . S
C109 C108 1.340 . S
C109 C110 1.439 . S
C109 H141 0.950 . S
C110 N106 1.374 . S
C110 C109 1.439 . S
C110 C135 1.395 . S
N111 Co100 1.995 . S
N111 C112 1.376 . S
N111 C115 1.383 . S
C112 N111 1.376 . S
C112 C113 1.446 . S
C112 C135 1.391 . S
C113 C112 1.446 . S
C113 C114 1.339 . S
C113 H142 0.949 . S
C114 C113 1.339 . S
C114 C115 1.439 . S
C114 H143 0.950 . S
C115 N111 1.383 . S
C115 C114 1.439 . S
C115 C133 1.392 . S
N116 Co100 2.282 . S
N116 C119 1.332 . S
N116 C121 1.332 . S
C117 C118 1.386 . S
C117 C120 1.388 . S
C118 C117 1.386 . S
C118 C119 1.382 . S
C118 H144 0.950 . S
C119 N116 1.332 . S
C119 C118 1.382 . S
C119 H130 0.952 . S
C120 C117 1.388 . S
C120 C121 1.382 . S
C120 H145 0.950 1_545 S
C121 N116 1.332 . S
C121 C120 1.382 . S
C121 H131 0.948 1_545 S
N122 Co100 2.282 . S
N122 C126 1.332 . S
N122 C127 1.332 . S
C123 C124 1.388 . S
C123 C127 1.382 . S
C123 H146 0.950 . S
C124 C123 1.388 . S
C124 C125 1.386 . S
C125 C124 1.386 . S
C125 C126 1.382 . S
C125 H147 0.950 . S
C126 N122 1.332 . S
C126 C125 1.382 . S
C126 H128 0.952 . S
C127 N122 1.332 . S
C127 C123 1.382 . S
C127 H129 0.948 . S
H128 C126 0.952 . S
H129 C127 0.948 . S
H130 C119 0.952 . S
H131 C121 0.948 1_565 S
C132 C98 1.395 . S
C132 C102 1.391 . S
C133 C95 1.389 . S
C133 C115 1.392 . S
C134 C105 1.392 . S
C134 C107 1.389 . S
C135 C110 1.395 . S
C135 C112 1.391 . S
H136 C96 0.951 . S
H137 C97 0.950 . S
H138 C103 0.949 . S
H139 C104 0.950 . S
H140 C108 0.951 . S
H141 C109 0.950 . S
H142 C113 0.949 . S
H143 C114 0.950 . S
H144 C118 0.950 . S
H145 C120 0.950 1_565 S
H146 C123 0.950 . S
H147 C125 0.950 . S
C148 C149 1.443 . S
C148 N152 1.376 . S
C148 C186 1.389 . S
C149 C148 1.443 . S
C149 C150 1.340 . S
C149 H189 0.951 . S
C150 C149 1.340 . S
C150 C151 1.439 . S
C150 H190 0.950 . S
C151 C150 1.439 . S
C151 N152 1.374 . S
C151 C185 1.395 . S
N152 C148 1.376 . S
N152 C151 1.374 . S
N152 Co153 2.008 . S
Co153 N152 2.008 . S
Co153 N154 1.995 . S
Co153 N159 2.008 . S
Co153 N164 1.995 . S
Co153 N169 2.282 . S
Co153 N175 2.282 . S
N154 Co153 1.995 . S
N154 C155 1.376 . S
N154 C158 1.383 . S
C155 N154 1.376 . S
C155 C156 1.446 . S
C155 C185 1.391 . S
C156 C155 1.446 . S
C156 C157 1.339 . S
C156 H191 0.949 . S
C157 C156 1.339 . S
C157 C158 1.439 . S
C157 H192 0.950 . S
C158 N154 1.383 . S
C158 C157 1.439 . S
C158 C187 1.392 . S
N159 Co153 2.008 . S
N159 C160 1.376 . S
N159 C163 1.374 . S
C160 N159 1.376 . S
C160 C161 1.443 . S
C160 C187 1.389 . S
C161 C160 1.443 . S
C161 C162 1.340 . S
C161 H193 0.951 . S
C162 C161 1.340 . S
C162 C163 1.439 . S
C162 H194 0.950 . S
C163 N159 1.374 . S
C163 C162 1.439 . S
C163 C188 1.395 . S
N164 Co153 1.995 . S
N164 C165 1.376 . S
N164 C168 1.383 . S
C165 N164 1.376 . S
C165 C166 1.446 . S
C165 C188 1.391 . S
C166 C165 1.446 . S
C166 C167 1.339 . S
C166 H195 0.949 . S
C167 C166 1.339 . S
C167 C168 1.439 . S
C167 H196 0.950 . S
C168 N164 1.383 . S
C168 C167 1.439 . S
C168 C186 1.392 . S
N169 Co153 2.282 . S
N169 C172 1.332 . S
N169 C174 1.332 . S
C170 C171 1.386 . S
C170 C173 1.388 . S
C171 C170 1.386 . S
C171 C172 1.382 . S
C171 H197 0.950 . S
C172 N169 1.332 . S
C172 C171 1.382 . S
C172 H183 0.952 . S
C173 C170 1.388 . S
C173 C174 1.382 . S
C173 H198 0.950 . S
C174 N169 1.332 . S
C174 C173 1.382 . S
C174 H184 0.948 . S
N175 Co153 2.282 . S
N175 C179 1.332 . S
N175 C180 1.332 . S
C176 C177 1.388 . S
C176 C180 1.382 . S
C176 H199 0.950 . S
C177 C176 1.388 . S
C177 C178 1.386 . S
C178 C177 1.386 . S
C178 C179 1.382 . S
C178 H200 0.950 . S
C179 N175 1.332 . S
C179 C178 1.382 . S
C179 H181 0.952 . S
C180 N175 1.332 . S
C180 C176 1.382 . S
C180 H182 0.948 . S
H181 C179 0.952 . S
H182 C180 0.948 . S
H183 C172 0.952 . S
H184 C174 0.948 . S
C185 C151 1.395 . S
C185 C155 1.391 . S
C186 C148 1.389 . S
C186 C168 1.392 . S
C187 C158 1.392 . S
C187 C160 1.389 . S
C188 C163 1.395 . S
C188 C165 1.391 . S
H189 C149 0.951 . S
H190 C150 0.950 . S
H191 C156 0.949 . S
H192 C157 0.950 . S
H193 C161 0.951 . S
H194 C162 0.950 . S
H195 C166 0.949 . S
H196 C167 0.950 . S
H197 C171 0.950 . S
H198 C173 0.950 . S
H199 C176 0.950 . S
H200 C178 0.950 . S
C201 C202 1.349 . S
C201 C203 1.327 . S
C201 H226 0.950 . S
C202 C201 1.349 . S
C202 C218 1.349 . S
C203 C201 1.327 . S
C203 C222 1.429 . S
C203 H227 0.950 . S
C204 C221 1.574 . S
C204 C223 1.368 . S
C204 H228 0.949 . S
H205 C209 0.949 . S
C206 C207 1.349 . S
C206 C208 1.327 . S
C206 H229 0.950 . S
C207 C206 1.349 . S
C207 C219 1.349 . S
C208 C206 1.327 . S
C208 C224 1.429 . S
C208 H230 0.950 . S
C209 H205 0.949 . S
C209 C217 1.574 . S
C209 C225 1.368 . S
H210 C218 0.950 . S
H211 C216 0.950 . S
H212 C217 0.949 . S
H213 C219 0.950 . S
H214 C220 0.950 . S
H215 C221 0.949 . S
C216 H211 0.950 . S
C216 C218 1.327 . S
C216 C222 1.429 . S
C217 C209 1.574 . S
C217 H212 0.949 . S
C217 C223 1.368 . S
C218 C202 1.349 . S
C218 H210 0.950 . S
C218 C216 1.327 . S
C219 C207 1.349 . S
C219 H213 0.950 . S
C219 C220 1.327 . S
C220 H214 0.950 . S
C220 C219 1.327 . S
C220 C224 1.429 . S
C221 C204 1.574 . S
C221 H215 0.949 . S
C221 C225 1.368 . S
C222 C203 1.429 . S
C222 C216 1.429 . S
C222 C223 1.523 . S
C223 C204 1.368 . S
C223 C217 1.368 . S
C223 C222 1.523 . S
C224 C208 1.429 . S
C224 C220 1.429 . S
C224 C225 1.523 . S
C225 C209 1.368 . S
C225 C221 1.368 . S
C225 C224 1.523 . S
H226 C201 0.950 . S
H227 C203 0.950 . S
H228 C204 0.949 . S
H229 C206 0.950 . S
H230 C208 0.950 . S
C231 C232 1.349 . S
C231 C233 1.327 . S
C231 H256 0.950 . S
C232 C231 1.349 . S
C232 C248 1.349 . S
C233 C231 1.327 . S
C233 C252 1.429 . S
C233 H257 0.950 . S
C234 C251 1.574 . S
C234 C253 1.368 . S
C234 H258 0.949 . S
H235 C239 0.949 . S
C236 C237 1.349 . S
C236 C238 1.327 . S
C236 H259 0.950 . S
C237 C236 1.349 . S
C237 C249 1.349 . S
C238 C236 1.327 . S
C238 C254 1.429 . S
C238 H260 0.950 . S
C239 H235 0.949 . S
C239 C247 1.574 . S
C239 C255 1.368 . S
H240 C248 0.950 . S
H241 C246 0.950 . S
H242 C247 0.949 . S
H243 C249 0.950 . S
H244 C250 0.950 . S
H245 C251 0.949 . S
C246 H241 0.950 . S
C246 C248 1.327 . S
C246 C252 1.429 . S
C247 C239 1.574 . S
C247 H242 0.949 . S
C247 C253 1.368 . S
C248 C232 1.349 . S
C248 H240 0.950 . S
C248 C246 1.327 . S
C249 C237 1.349 . S
C249 H243 0.950 . S
C249 C250 1.327 . S
C250 H244 0.950 . S
C250 C249 1.327 . S
C250 C254 1.429 . S
C251 C234 1.574 . S
C251 H245 0.949 . S
C251 C255 1.368 . S
C252 C233 1.429 . S
C252 C246 1.429 . S
C252 C253 1.523 . S
C253 C234 1.368 . S
C253 C247 1.368 . S
C253 C252 1.523 . S
C254 C238 1.429 . S
C254 C250 1.429 . S
C254 C255 1.523 . S
C255 C239 1.368 . S
C255 C251 1.368 . S
C255 C254 1.523 . S
H256 C231 0.950 . S
H257 C233 0.950 . S
H258 C234 0.949 . S
H259 C236 0.950 . S
H260 C238 0.950 . S
C261 C262 1.349 . S
C261 C263 1.327 . S
C261 H286 0.950 . S
C262 C261 1.349 . S
C262 C278 1.349 . S
C263 C261 1.327 . S
C263 C282 1.429 . S
C263 H287 0.950 . S
C264 C281 1.574 . S
C264 C283 1.368 . S
C264 H288 0.949 . S
H265 C269 0.949 . S
C266 C267 1.349 . S
C266 C268 1.327 . S
C266 H289 0.950 . S
C267 C266 1.349 . S
C267 C279 1.349 . S
C268 C266 1.327 . S
C268 C284 1.429 . S
C268 H290 0.950 . S
C269 H265 0.949 . S
C269 C277 1.574 . S
C269 C285 1.368 . S
H270 C278 0.950 . S
H271 C276 0.950 . S
H272 C277 0.949 . S
H273 C279 0.950 . S
H274 C280 0.950 . S
H275 C281 0.949 . S
C276 H271 0.950 . S
C276 C278 1.327 . S
C276 C282 1.429 . S
C277 C269 1.574 . S
C277 H272 0.949 . S
C277 C283 1.368 . S
C278 C262 1.349 . S
C278 H270 0.950 . S
C278 C276 1.327 . S
C279 C267 1.349 . S
C279 H273 0.950 . S
C279 C280 1.327 . S
C280 H274 0.950 . S
C280 C279 1.327 . S
C280 C284 1.429 . S
C281 C264 1.574 . S
C281 H275 0.949 . S
C281 C285 1.368 . S
C282 C263 1.429 . S
C282 C276 1.429 . S
C282 C283 1.523 . S
C283 C264 1.368 . S
C283 C277 1.368 . S
C283 C282 1.523 . S
C284 C268 1.429 . S
C284 C280 1.429 . S
C284 C285 1.523 . S
C285 C269 1.368 . S
C285 C281 1.368 . S
C285 C284 1.523 . S
H286 C261 0.950 . S
H287 C263 0.950 . S
H288 C264 0.949 . S
H289 C266 0.950 . S
H290 C268 0.950 . S
C291 C292 1.349 . S
C291 C293 1.327 . S
C291 H316 0.950 . S
C292 C291 1.349 . S
C292 C308 1.349 . S
C293 C291 1.327 . S
C293 C312 1.429 . S
C293 H317 0.950 . S
C294 C311 1.574 . S
C294 C313 1.368 . S
C294 H318 0.949 . S
H295 C299 0.949 . S
C296 C297 1.349 . S
C296 C298 1.327 . S
C296 H319 0.950 . S
C297 C296 1.349 . S
C297 C309 1.349 . S
C298 C296 1.327 . S
C298 C314 1.429 . S
C298 H320 0.950 . S
C299 H295 0.949 . S
C299 C307 1.574 . S
C299 C315 1.368 . S
H300 C308 0.950 . S
H301 C306 0.950 . S
H302 C307 0.949 . S
H303 C309 0.950 . S
H304 C310 0.950 . S
H305 C311 0.949 . S
C306 H301 0.950 . S
C306 C308 1.327 . S
C306 C312 1.429 . S
C307 C299 1.574 . S
C307 H302 0.949 . S
C307 C313 1.368 . S
C308 C292 1.349 . S
C308 H300 0.950 . S
C308 C306 1.327 . S
C309 C297 1.349 . S
C309 H303 0.950 . S
C309 C310 1.327 . S
C310 H304 0.950 . S
C310 C309 1.327 . S
C310 C314 1.429 . S
C311 C294 1.574 . S
C311 H305 0.949 . S
C311 C315 1.368 . S
C312 C293 1.429 . S
C312 C306 1.429 . S
C312 C313 1.523 . S
C313 C294 1.368 . S
C313 C307 1.368 . S
C313 C312 1.523 . S
C314 C298 1.429 . S
C314 C310 1.429 . S
C314 C315 1.523 . S
C315 C299 1.368 . S
C315 C311 1.368 . S
C315 C314 1.523 . S
H316 C291 0.950 . S
H317 C293 0.950 . S
H318 C294 0.949 . S
H319 C296 0.950 . S
H320 C298 0.950 . S
C321 C322 1.349 . S
C321 C323 1.327 . S
C321 H346 0.950 . S
C322 C321 1.349 . S
C322 C338 1.349 . S
C323 C321 1.327 . S
C323 C342 1.429 . S
C323 H347 0.950 . S
C324 C341 1.574 . S
C324 C343 1.368 . S
C324 H348 0.949 . S
H325 C329 0.949 . S
C326 C327 1.349 . S
C326 C328 1.327 . S
C326 H349 0.950 . S
C327 C326 1.349 . S
C327 C339 1.349 . S
C328 C326 1.327 . S
C328 C344 1.429 . S
C328 H350 0.950 . S
C329 H325 0.949 . S
C329 C337 1.574 . S
C329 C345 1.368 . S
H330 C338 0.950 . S
H331 C336 0.950 . S
H332 C337 0.949 . S
H333 C339 0.950 . S
H334 C340 0.950 . S
H335 C341 0.949 . S
C336 H331 0.950 . S
C336 C338 1.327 . S
C336 C342 1.429 . S
C337 C329 1.574 . S
C337 H332 0.949 . S
C337 C343 1.368 . S
C338 C322 1.349 . S
C338 H330 0.950 . S
C338 C336 1.327 . S
C339 C327 1.349 . S
C339 H333 0.950 . S
C339 C340 1.327 . S
C340 H334 0.950 . S
C340 C339 1.327 . S
C340 C344 1.429 . S
C341 C324 1.574 . S
C341 H335 0.949 . S
C341 C345 1.368 . S
C342 C323 1.429 . S
C342 C336 1.429 . S
C342 C343 1.523 . S
C343 C324 1.368 . S
C343 C337 1.368 . S
C343 C342 1.523 . S
C344 C328 1.429 . S
C344 C340 1.429 . S
C344 C345 1.523 . S
C345 C329 1.368 . S
C345 C341 1.368 . S
C345 C344 1.523 . S
H346 C321 0.950 . S
H347 C323 0.950 . S
H348 C324 0.949 . S
H349 C326 0.950 . S
H350 C328 0.950 . S
C351 C352 1.349 . S
C351 C353 1.327 . S
C351 H376 0.950 . S
C352 C351 1.349 . S
C352 C368 1.349 . S
C353 C351 1.327 . S
C353 C372 1.429 . S
C353 H377 0.950 . S
C354 C371 1.574 . S
C354 C373 1.368 . S
C354 H378 0.949 . S
H355 C359 0.949 . S
C356 C357 1.349 . S
C356 C358 1.327 . S
C356 H379 0.950 . S
C357 C356 1.349 . S
C357 C369 1.349 . S
C358 C356 1.327 . S
C358 C374 1.429 . S
C358 H380 0.950 . S
C359 H355 0.949 . S
C359 C367 1.574 . S
C359 C375 1.368 . S
H360 C368 0.950 . S
H361 C366 0.950 . S
H362 C367 0.949 . S
H363 C369 0.950 . S
H364 C370 0.950 . S
H365 C371 0.949 . S
C366 H361 0.950 . S
C366 C368 1.327 . S
C366 C372 1.429 . S
C367 C359 1.574 . S
C367 H362 0.949 . S
C367 C373 1.368 . S
C368 C352 1.349 . S
C368 H360 0.950 . S
C368 C366 1.327 . S
C369 C357 1.349 . S
C369 H363 0.950 . S
C369 C370 1.327 . S
C370 H364 0.950 . S
C370 C369 1.327 . S
C370 C374 1.429 . S
C371 C354 1.574 . S
C371 H365 0.949 . S
C371 C375 1.368 . S
C372 C353 1.429 . S
C372 C366 1.429 . S
C372 C373 1.523 . S
C373 C354 1.368 . S
C373 C367 1.368 . S
C373 C372 1.523 . S
C374 C358 1.429 . S
C374 C370 1.429 . S
C374 C375 1.523 . S
C375 C359 1.368 . S
C375 C371 1.368 . S
C375 C374 1.523 . S
H376 C351 0.950 . S
H377 C353 0.950 . S
H378 C354 0.949 . S
H379 C356 0.950 . S
H380 C358 0.950 . S
C381 C382 1.349 . S
C381 C383 1.327 . S
C381 H406 0.950 1_545 S
C382 C381 1.349 . S
C382 C398 1.349 . S
C383 C381 1.327 . S
C383 C402 1.429 . S
C383 H407 0.950 1_545 S
C384 C401 1.574 . S
C384 C403 1.368 . S
C384 H408 0.949 . S
H385 C389 0.949 1_565 S
C386 C387 1.349 . S
C386 C388 1.327 . S
C386 H409 0.950 . S
C387 C386 1.349 . S
C387 C399 1.349 . S
C388 C386 1.327 . S
C388 C404 1.429 . S
C388 H410 0.950 . S
C389 H385 0.949 1_545 S
C389 C397 1.574 . S
C389 C405 1.368 . S
H390 C398 0.950 1_455 S
H391 C396 0.950 . S
H392 C397 0.949 1_565 S
H393 C399 0.950 . S
H394 C400 0.957 . S
H395 C401 0.949 . S
C396 H391 0.950 . S
C396 C398 1.327 . S
C396 C402 1.429 . S
C397 C389 1.574 . S
C397 H392 0.949 1_545 S
C397 C403 1.368 . S
C398 C382 1.349 . S
C398 H390 0.950 1_655 S
C398 C396 1.327 . S
C399 C387 1.349 . S
C399 H393 0.950 . S
C399 C400 1.327 . S
C400 H394 0.957 . S
C400 C399 1.327 . S
C400 C404 1.429 . S
C401 C384 1.574 . S
C401 H395 0.949 . S
C401 C405 1.368 . S
C402 C383 1.429 . S
C402 C396 1.429 . S
C402 C403 1.523 . S
C403 C384 1.368 . S
C403 C397 1.368 . S
C403 C402 1.523 . S
C404 C388 1.429 . S
C404 C400 1.429 . S
C404 C405 1.523 . S
C405 C389 1.368 . S
C405 C401 1.368 . S
C405 C404 1.523 . S
H406 C381 0.950 1_565 S
H407 C383 0.950 1_565 S
H408 C384 0.949 . S
H409 C386 0.950 . S
H410 C388 0.950 . S
C411 C412 1.349 . S
C411 C413 1.327 . S
C411 H436 0.950 . S
C412 C411 1.349 . S
C412 C428 1.349 1_554 S
C413 C411 1.327 . S
C413 C432 1.429 1_554 S
C413 H437 0.950 . S
C414 C431 1.574 . S
C414 C433 1.368 . S
C414 H438 0.949 . S
H415 C419 0.949 . S
C416 C417 1.349 . S
C416 C418 1.327 . S
C416 H439 0.950 . S
C417 C416 1.349 . S
C417 C429 1.349 . S
C418 C416 1.327 . S
C418 C434 1.429 . S
C418 H440 0.950 . S
C419 H415 0.949 . S
C419 C427 1.574 . S
C419 C435 1.368 . S
H420 C428 0.950 . S
H421 C426 0.950 . S
H422 C427 0.949 1_554 S
H423 C429 0.950 . S
H424 C430 0.950 . S
H425 C431 0.949 . S
C426 H421 0.950 . S
C426 C428 1.327 . S
C426 C432 1.429 . S
C427 C419 1.574 . S
C427 H422 0.949 1_556 S
C427 C433 1.368 . S
C428 C412 1.349 1_556 S
C428 H420 0.950 . S
C428 C426 1.327 . S
C429 C417 1.349 . S
C429 H423 0.950 . S
C429 C430 1.327 . S
C430 H424 0.950 . S
C430 C429 1.327 . S
C430 C434 1.429 . S
C431 C414 1.574 . S
C431 H425 0.949 . S
C431 C435 1.368 . S
C432 C413 1.429 1_556 S
C432 C426 1.429 . S
C432 C433 1.523 . S
C433 C414 1.368 . S
C433 C427 1.368 . S
C433 C432 1.523 . S
C434 C418 1.429 . S
C434 C430 1.429 . S
C434 C435 1.523 . S
C435 C419 1.368 . S
C435 C431 1.368 . S
C435 C434 1.523 . S
H436 C411 0.950 . S
H437 C413 0.950 . S
H438 C414 0.949 . S
H439 C416 0.950 . S
H440 C418 0.950 . S
C441 C442 1.349 . S
C441 C443 1.327 . S
C441 H466 0.950 . S
C442 C441 1.349 . S
C442 C458 1.349 . S
C443 C441 1.327 . S
C443 C462 1.429 . S
C443 H467 0.950 . S
C444 C461 1.574 . S
C444 C463 1.368 . S
C444 H468 0.949 1_455 S
H445 C449 0.949 . S
C446 C447 1.349 . S
C446 C448 1.327 . S
C446 H469 0.950 1_455 S
C447 C446 1.349 . S
C447 C459 1.349 . S
C448 C446 1.327 . S
C448 C464 1.429 . S
C448 H470 0.950 1_455 S
C449 H445 0.949 . S
C449 C457 1.574 . S
C449 C465 1.368 . S
H450 C458 0.950 1_655 S
H451 C456 0.950 1_655 S
H452 C457 0.949 . S
H453 C459 0.950 . S
H454 C460 0.950 . S
H455 C461 0.949 1_655 S
C456 H451 0.950 1_455 S
C456 C458 1.327 . S
C456 C462 1.429 . S
C457 C449 1.574 . S
C457 H452 0.949 . S
C457 C463 1.368 . S
C458 C442 1.349 . S
C458 H450 0.950 1_455 S
C458 C456 1.327 . S
C459 C447 1.349 . S
C459 H453 0.950 . S
C459 C460 1.327 . S
C460 H454 0.950 . S
C460 C459 1.327 . S
C460 C464 1.429 . S
C461 C444 1.574 . S
C461 H455 0.949 1_455 S
C461 C465 1.368 . S
C462 C443 1.429 . S
C462 C456 1.429 . S
C462 C463 1.523 . S
C463 C444 1.368 . S
C463 C457 1.368 . S
C463 C462 1.523 . S
C464 C448 1.429 . S
C464 C460 1.429 . S
C464 C465 1.523 . S
C465 C449 1.368 . S
C465 C461 1.368 . S
C465 C464 1.523 . S
H466 C441 0.950 . S
H467 C443 0.950 . S
H468 C444 0.949 1_655 S
H469 C446 0.950 1_655 S
H470 C448 0.950 1_655 S
C471 C472 1.349 . S
C471 C473 1.327 . S
C471 H496 0.953 . S
C472 C471 1.349 . S
C472 C488 1.349 . S
C473 C471 1.327 . S
C473 C492 1.429 . S
C473 H497 0.952 . S
C474 C491 1.574 . S
C474 C493 1.368 . S
C474 H498 0.949 . S
H475 C479 0.949 . S
C476 C477 1.349 . S
C476 C478 1.327 . S
C476 H499 0.950 . S
C477 C476 1.349 . S
C477 C489 1.349 . S
C478 C476 1.327 . S
C478 C494 1.429 . S
C478 H500 0.950 . S
C479 H475 0.949 . S
C479 C487 1.574 . S
C479 C495 1.368 . S
H480 C488 0.950 . S
H481 C486 0.950 . S
H482 C487 0.955 . S
H483 C489 0.950 . S
H484 C490 0.950 . S
H485 C491 0.949 . S
C486 H481 0.950 . S
C486 C488 1.327 . S
C486 C492 1.429 . S
C487 C479 1.574 . S
C487 H482 0.955 . S
C487 C493 1.368 . S
C488 C472 1.349 . S
C488 H480 0.950 . S
C488 C486 1.327 . S
C489 C477 1.349 . S
C489 H483 0.950 . S
C489 C490 1.327 . S
C490 H484 0.950 . S
C490 C489 1.327 . S
C490 C494 1.429 . S
C491 C474 1.574 . S
C491 H485 0.949 . S
C491 C495 1.368 . S
C492 C473 1.429 . S
C492 C486 1.429 . S
C492 C493 1.523 . S
C493 C474 1.368 . S
C493 C487 1.368 . S
C493 C492 1.523 . S
C494 C478 1.429 . S
C494 C490 1.429 . S
C494 C495 1.523 . S
C495 C479 1.368 . S
C495 C491 1.368 . S
C495 C494 1.523 . S
H496 C471 0.953 . S
H497 C473 0.952 . S
H498 C474 0.949 . S
H499 C476 0.950 . S
H500 C478 0.950 . S
C501 C502 1.349 1_556 S
C501 C503 1.327 . S
C501 H526 0.950 . S
C502 C501 1.349 1_554 S
C502 C518 1.349 . S
C503 C501 1.327 . S
C503 C522 1.429 . S
C503 H527 0.950 . S
C504 C521 1.574 . S
C504 C523 1.368 . S
C504 H528 0.949 . S
H505 C509 0.949 . S
C506 C507 1.349 . S
C506 C508 1.327 . S
C506 H529 0.950 . S
C507 C506 1.349 . S
C507 C519 1.349 . S
C508 C506 1.327 . S
C508 C524 1.429 . S
C508 H530 0.950 . S
C509 H505 0.949 . S
C509 C517 1.574 . S
C509 C525 1.368 . S
H510 C518 0.950 . S
H511 C516 0.950 . S
H512 C517 0.949 . S
H513 C519 0.950 . S
H514 C520 0.950 . S
H515 C521 0.949 . S
C516 H511 0.950 . S
C516 C518 1.327 . S
C516 C522 1.429 1_554 S
C517 C509 1.574 . S
C517 H512 0.949 . S
C517 C523 1.368 . S
C518 C502 1.349 . S
C518 H510 0.950 . S
C518 C516 1.327 . S
C519 C507 1.349 . S
C519 H513 0.950 . S
C519 C520 1.327 . S
C520 H514 0.950 . S
C520 C519 1.327 . S
C520 C524 1.429 . S
C521 C504 1.574 . S
C521 H515 0.949 . S
C521 C525 1.368 . S
C522 C503 1.429 . S
C522 C516 1.429 1_556 S
C522 C523 1.523 . S
C523 C504 1.368 . S
C523 C517 1.368 . S
C523 C522 1.523 . S
C524 C508 1.429 . S
C524 C520 1.429 . S
C524 C525 1.523 . S
C525 C509 1.368 . S
C525 C521 1.368 . S
C525 C524 1.523 . S
H526 C501 0.950 . S
H527 C503 0.950 . S
H528 C504 0.949 . S
H529 C506 0.950 . S
H530 C508 0.950 . S
C531 C532 1.349 1_655 S
C531 C533 1.327 . S
C531 H556 0.950 . S
C532 C531 1.349 1_455 S
C532 C548 1.349 . S
C533 C531 1.327 . S
C533 C552 1.429 1_655 S
C533 H557 0.950 . S
C534 C551 1.574 . S
C534 C553 1.368 . S
C534 H558 0.949 . S
H535 C539 0.949 . S
C536 C537 1.349 . S
C536 C538 1.327 . S
C536 H559 0.950 . S
C537 C536 1.349 . S
C537 C549 1.349 . S
C538 C536 1.327 . S
C538 C554 1.429 . S
C538 H560 0.950 . S
C539 H535 0.949 . S
C539 C547 1.574 . S
C539 C555 1.368 1_655 S
H540 C548 0.950 . S
H541 C546 0.950 . S
H542 C547 0.949 . S
H543 C549 0.950 1_655 S
H544 C550 0.944 1_655 S
H545 C551 0.949 . S
C546 H541 0.950 . S
C546 C548 1.327 . S
C546 C552 1.429 . S
C547 C539 1.574 . S
C547 H542 0.949 . S
C547 C553 1.368 1_655 S
C548 C532 1.349 . S
C548 H540 0.950 . S
C548 C546 1.327 . S
C549 C537 1.349 . S
C549 H543 0.950 1_455 S
C549 C550 1.319 . S
C550 H544 0.944 1_455 S
C550 C549 1.319 . S
C550 C554 1.443 . S
C551 C534 1.574 . S
C551 H545 0.949 . S
C551 C555 1.368 . S
C552 C533 1.429 1_455 S
C552 C546 1.429 . S
C552 C553 1.523 . S
C553 C534 1.368 . S
C553 C547 1.368 1_455 S
C553 C552 1.523 . S
C554 C538 1.429 . S
C554 C550 1.443 . S
C554 C555 1.523 . S
C555 C539 1.368 1_455 S
C555 C551 1.368 . S
C555 C554 1.523 . S
H556 C531 0.950 . S
H557 C533 0.950 . S
H558 C534 0.949 . S
H559 C536 0.950 . S
H560 C538 0.950 . S
C207 C64 1.484 . S
C202 C6 1.463 . S
C232 C22 1.585 . S
C237 C134 1.609 . S
C262 C34 1.220 . S
C267 C186 1.241 . S
C292 C7 1.464 . S
C297 C80 1.485 . S
C327 C124 1.603 . S
C322 C23 1.581 . S
C352 C35 1.232 . S
C357 C170 1.249 . S
C387 C117 1.602 . S
C382 C36 1.585 . S
C412 C9 1.809 1_655 S
C417 C177 1.845 . S
C447 C71 1.482 . S
C442 C21 1.457 . S
C477 C133 1.608 . S
C472 C37 1.590 . S
C507 C187 1.873 . S
C502 C8 1.840 . S
C532 C20 1.458 . S
C537 C81 1.482 . S
