# Generated by pormake.
# Topology ftw, (4,12)-cn, num edge types: 1
# Building blocks:
#     Node 0, Type 0, BuildingBlock: ESEHIV_clean_sbu_0, # of connection points: 4
#     Node 1, Type 0, BuildingBlock: ESEHIV_clean_sbu_0, # of connection points: 4
#     Node 2, Type 0, BuildingBlock: ESEHIV_clean_sbu_0, # of connection points: 4
#     Node 3, Type 1, BuildingBlock: QEWDON_clean_sbu_0, # of connection points: 12
#     Edge 4, Type (0, 1), BuildingBlock: ZUJKAS_clean_linker_0, # of connection points: 2
#     Edge 5, Type (0, 1), BuildingBlock: ZUJKAS_clean_linker_0, # of connection points: 2
#     Edge 6, Type (0, 1), BuildingBlock: ZUJKAS_clean_linker_0, # of connection points: 2
#     Edge 7, Type (0, 1), BuildingBlock: ZUJKAS_clean_linker_0, # of connection points: 2
#     Edge 8, Type (0, 1), BuildingBlock: ZUJKAS_clean_linker_0, # of connection points: 2
#     Edge 9, Type (0, 1), BuildingBlock: ZUJKAS_clean_linker_0, # of connection points: 2
#     Edge 10, Type (0, 1), BuildingBlock: ZUJKAS_clean_linker_0, # of connection points: 2
#     Edge 11, Type (0, 1), BuildingBlock: ZUJKAS_clean_linker_0, # of connection points: 2
#     Edge 12, Type (0, 1), BuildingBlock: ZUJKAS_clean_linker_0, # of connection points: 2
#     Edge 13, Type (0, 1), BuildingBlock: ZUJKAS_clean_linker_0, # of connection points: 2
#     Edge 14, Type (0, 1), BuildingBlock: ZUJKAS_clean_linker_0, # of connection points: 2
#     Edge 15, Type (0, 1), BuildingBlock: ZUJKAS_clean_linker_0, # of connection points: 2
# Relax obj value: 0.056
# Max RMSD: 0.169
# Mean RMSD: 0.145
data_MOF--net-ftw--node1-ESEHIV_clean_sbu_0--node2-QEWDON_clean_sbu_0--edge1-ZUJKAS_clean_linker_0
_symmetry_space_group_name_H-M    P1
_symmetry_Int_Tables_number       1
_symmetry_cell_setting            triclinic
loop_
_symmetry_equiv_pos_as_xyz
'x, y, z'
_cell_length_a     31.965088
_cell_length_b     30.925245
_cell_length_c     30.978038
_cell_angle_alpha  87.303731
_cell_angle_beta   87.485813
_cell_angle_gamma 92.847521
loop_
_atom_site_label
_atom_site_type_symbol
_atom_site_fract_x
_atom_site_fract_y
_atom_site_fract_z
_atom_type_partial_charge
Cu0 Cu 0.03797 0.49562 0.47068 0.0
N1 N 0.07034 0.46265 0.43415 0.0
N2 N 0.0879 0.41354 0.38666 0.0
C3 C 0.05796 0.42632 0.41483 0.0
C4 C 0.12029 0.44303 0.38849 0.0
C5 C 0.10929 0.4733 0.41757 0.0
O6 O 1.00089 0.45715 0.50861 0.0
C7 C 0.98023 0.55972 0.4409 0.0
O8 O 0.96279 0.55838 0.48017 0.0
H9 H 0.02689 0.41084 0.41984 0.0
H10 H 0.12786 0.50196 0.42497 0.0
N11 N 0.07311 0.52715 0.50593 0.0
N12 N 0.09604 0.5747 0.55301 0.0
C13 C 0.06422 0.56231 0.52812 0.0
C14 C 0.11159 0.51678 0.51739 0.0
C15 C 0.12585 0.54603 0.54616 0.0
C16 C 0.01856 0.42691 0.52912 0.0
O17 O 0.05896 0.42301 0.52179 0.0
H18 H 0.0348 0.578 0.5265 0.0
H19 H 0.12762 0.48894 0.50673 0.0
O20 O 0.01009 0.53533 0.43234 0.0
H21 H 0.14958 0.44326 0.36959 0.0
H22 H 0.15523 0.54504 0.56217 0.0
Cu23 Cu 0.50261 0.0286 0.49414 0.0
N24 N 0.52864 0.06398 0.53353 0.0
N25 N 0.57126 0.08015 0.58675 0.0
C26 C 0.56165 0.05212 0.55601 0.0
C27 C 0.54306 0.11115 0.58302 0.0
C28 C 0.5167 0.10097 0.55033 0.0
O29 O 0.54717 0.00615 0.45754 0.0
C30 C 0.43323 0.00215 0.54563 0.0
O31 O 0.42522 0.04234 0.53468 0.0
H32 H 0.57745 0.02265 0.55038 0.0
H33 H 0.48968 0.11822 0.54089 0.0
N34 N 0.46826 0.0579 0.45627 0.0
N35 N 0.41921 0.0668 0.40751 0.0
C36 C 0.4385 0.03835 0.43339 0.0
C37 C 0.46815 0.10029 0.44449 0.0
C38 C 0.43791 0.1059 0.4145 0.0
C39 C 0.57223 0.03577 0.43953 0.0
O40 O 0.56621 0.07626 0.44812 0.0
H41 H 0.43108 0.00379 0.43615 0.0
H42 H 0.48895 0.12523 0.45637 0.0
O43 O 0.4668 0.9868 0.53022 0.0
H44 H 0.54024 0.13821 0.60367 0.0
H45 H 0.43099 0.1364 0.39852 0.0
Cu46 Cu 0.49212 0.48173 0.15971 0.0
N47 N 0.47399 0.52938 0.1884 0.0
N48 N 0.45071 0.59555 0.19604 0.0
C49 C 0.4623 0.56578 0.16803 0.0
C50 C 0.45527 0.57697 0.23578 0.0
C51 C 0.46995 0.5361 0.23094 0.0
O52 O 0.44888 0.46123 0.12231 0.0
C53 C 0.57454 0.51231 0.15017 0.0
O54 O 0.56983 0.50868 0.19257 0.0
H55 H 0.46138 0.56976 0.13319 0.0
H56 H 0.47705 0.51298 0.25652 0.0
N57 N 0.50305 0.43564 0.1976 0.0
N58 N 0.53093 0.37395 0.21912 0.0
C59 C 0.53392 0.40853 0.19078 0.0
C60 C 0.47944 0.41772 0.23147 0.0
C61 C 0.49661 0.37946 0.24485 0.0
C62 C 0.41075 0.4602 0.1363 0.0
O63 O 0.4019 0.47489 0.17457 0.0
H64 H 0.55646 0.41265 0.1636 0.0
H65 H 0.45068 0.43039 0.24406 0.0
O66 O 0.54376 0.501 0.12775 0.0
H67 H 0.44865 0.59184 0.2661 0.0
H68 H 0.48407 0.35683 0.27045 0.0
Zn69 Zn 0.11945 0.05471 0.96497 0.0
Zn70 Zn 0.05608 0.08143 0.0387 0.0
O71 O 0.06345 0.0353 0.99566 0.0
H72 H 0.04169 0.01628 0.98511 0.0
C73 C 0.85859 0.15468 0.8938 0.0
O74 O 0.81988 0.15269 0.91015 0.0
Zn75 Zn 0.93646 0.90268 0.06103 0.0
Zn76 Zn 0.90532 0.90999 0.96264 0.0
O77 O 0.93645 0.9429 1.00793 0.0
H78 H 0.95398 0.96915 1.00268 0.0
Zn79 Zn 0.87208 0.09453 0.9695 0.0
O80 O 0.91879 0.06451 0.99978 0.0
Zn81 Zn 0.89966 0.05474 0.06207 0.0
H82 H 0.9435 0.0534 0.98606 0.0
Zn83 Zn 0.12253 0.91891 0.96966 0.0
O84 O 0.07042 0.92479 1.00921 0.0
H85 H 0.0418 0.92621 1.00062 0.0
Zn86 Zn 0.09157 0.93481 0.06798 0.0
C87 C 0.13577 0.8552 0.90494 0.0
O88 O 0.15981 0.84099 0.9353 0.0
O89 O 0.13761 0.11864 0.97364 0.0
O90 O 0.08486 0.1391 0.01602 0.0
O91 O 0.88748 0.84699 0.98263 0.0
O92 O 0.91291 0.84194 0.04838 0.0
O93 O 0.8214 0.10611 1.01046 0.0
O94 O 0.84014 0.07409 0.07217 0.0
C95 C 0.09834 0.02907 0.1021 0.0
O96 O 0.17513 0.90561 1.00361 0.0
O97 O 0.15151 0.91622 0.07068 0.0
O98 O 0.87168 0.94046 0.91413 0.0
C99 C 0.11898 0.14793 0.9935 0.0
O100 O 0.14594 0.02313 0.91268 0.0
C101 C 0.88691 0.96399 0.10703 0.0
O102 O 0.88599 0.13323 0.91283 0.0
C103 C 0.89356 0.82509 0.0175 0.0
O104 O 0.11578 0.88908 0.91106 0.0
C105 C 0.97711 0.09762 0.08981 0.0
O106 O 0.08679 0.06677 0.09211 0.0
O107 O 0.08705 0.9985 0.07829 0.0
C108 C 0.81378 0.09455 0.05025 0.0
O109 O 0.89696 0.92477 0.10652 0.0
O110 O 0.90436 0.99117 0.07881 0.0
C111 C 0.01709 0.88811 0.11247 0.0
O112 O 0.93805 0.09013 0.0983 0.0
O113 O 0.99398 0.08301 0.0558 0.0
C114 C 0.18053 0.90584 0.04412 0.0
O115 O 0.05623 0.89811 0.11269 0.0
O116 O 0.99642 0.90342 0.08141 0.0
C117 C 0.85659 0.97771 0.91591 0.0
O118 O 0.86264 0.00037 0.95011 0.0
C119 C 0.17604 0.99824 0.918 0.0
O120 O 0.18923 0.9913 0.95717 0.0
H121 H 0.12812 0.40855 0.30816 0.0
H122 H 0.1199 0.3507 0.2577 0.0
H123 H 0.03142 0.28111 0.34788 0.0
H124 H 0.03995 0.33868 0.39909 0.0
H125 H 0.09818 0.22971 0.3032 0.0
H126 H 0.00676 0.33275 0.19347 0.0
H127 H 0.05571 0.356 0.21042 0.0
H128 H 0.01305 0.34433 0.24948 0.0
C129 C 0.10739 0.38071 0.31768 0.0
C130 C 0.08453 0.3784 0.3577 0.0
C131 C 0.10257 0.34778 0.28863 0.0
C132 C 0.07489 0.31185 0.29899 0.0
C133 C 0.05292 0.30868 0.33932 0.0
H134 H 0.97196 0.08988 0.17746 0.0
H135 H 1.00301 0.13957 0.22781 0.0
C136 C 0.05755 0.34174 0.36836 0.0
C137 C 0.06723 0.27874 0.26682 0.0
H138 H 0.02016 0.26288 0.17171 0.0
C139 C 0.08125 0.23687 0.27435 0.0
C140 C 0.04545 0.28839 0.22912 0.0
C141 C 0.02905 0.33268 0.22 0.0
C142 C 0.07387 0.20424 0.24504 0.0
C143 C 0.05105 0.2136 0.2079 0.0
C144 C 0.0378 0.25576 0.20008 0.0
C145 C 0.03786 0.17977 0.17811 0.0
C146 C 0.09087 0.1602 0.25388 0.0
C147 C 0.047 0.18578 0.13338 0.0
C148 C 0.02895 0.15755 0.1046 0.0
C149 C 1.00167 0.12282 0.12004 0.0
C150 C 0.99351 0.11606 0.16483 0.0
C151 C 0.01149 0.14424 0.19362 0.0
H152 H 0.11816 0.16216 0.27486 0.0
H153 H 0.0661 0.1386 0.27098 0.0
H154 H 0.10057 0.14524 0.22336 0.0
H155 H 0.06661 0.21344 0.12064 0.0
H156 H 0.03385 0.16471 0.07026 0.0
H157 H 0.58628 0.95992 0.39866 0.0
H158 H 0.64114 0.94868 0.34255 0.0
H159 H 0.68976 0.08017 0.3526 0.0
H160 H 0.63586 0.09154 0.40825 0.0
H161 H 0.65501 0.99857 0.26142 0.0
H162 H 0.79476 0.00892 0.36144 0.0
H163 H 0.7422 -0.00114 0.38475 0.0
H164 H 0.76048 0.05285 0.36667 0.0
C165 C 0.60903 0.98617 0.38928 0.0
C166 C 0.60666 0.02657 0.40802 0.0
C167 C 0.64023 0.9798 0.35714 0.0
C168 C 0.66985 0.01348 0.34374 0.0
C169 C 0.66777 0.0535 0.36288 0.0
H170 H 0.87905 0.04049 0.14852 0.0
H171 H 0.82574 0.05541 0.20505 0.0
C172 C 0.63666 0.05996 0.39461 0.0
C173 C 0.70185 0.00789 0.3084 0.0
H174 H 0.80757 0.01023 0.28533 0.0
C175 C 0.68835 0.00084 0.26669 0.0
C176 C 0.74538 0.01158 0.31516 0.0
C177 C 0.76171 0.01812 0.35947 0.0
C178 C 0.71717 0.99758 0.23153 0.0
C179 C 0.76073 0.00059 0.2384 0.0
C180 C 0.77423 0.00816 0.28002 0.0
C181 C 0.79257 0.99275 0.20355 0.0
C182 C 0.70059 0.99133 0.18727 0.0
C183 C 0.792 0.95254 0.18447 0.0
C184 C 0.82234 0.944 0.15269 0.0
C185 C 0.85393 0.97554 0.13893 0.0
C186 C 0.85464 0.01593 0.15791 0.0
C187 C 0.82445 0.02427 0.19042 0.0
H188 H 0.66907 0.00455 0.1845 0.0
H189 H 0.72198 0.00714 0.16138 0.0
H190 H 0.69758 0.95614 0.18176 0.0
H191 H 0.76842 0.92734 0.19473 0.0
H192 H 0.82112 0.91242 0.13893 0.0
H193 H 0.01474 0.57386 0.35902 0.0
H194 H 1.00055 0.63096 0.30577 0.0
H195 H 0.90368 0.67556 0.39154 0.0
H196 H 0.9186 0.61883 0.446 0.0
H197 H 0.93208 0.65326 0.26192 0.0
H198 H 0.97961 0.78373 0.37046 0.0
H199 H 0.98811 0.72749 0.38326 0.0
H200 H 0.93658 0.74758 0.39018 0.0
C201 C 0.9902 0.59556 0.36669 0.0
C202 C 0.96819 0.59201 0.40716 0.0
C203 C 0.98199 0.62818 0.33599 0.0
C204 C 0.9515 0.65808 0.34479 0.0
C205 C 0.92799 0.65347 0.38433 0.0
H206 H 0.93518 0.85306 0.12507 0.0
H207 H 0.90817 0.80001 0.18228 0.0
C208 C 0.93641 0.62087 0.41536 0.0
C209 C 0.94683 0.69521 0.31324 0.0
H210 H 0.96682 0.80461 0.29905 0.0
C211 C 0.93893 0.6865 0.27011 0.0
C212 C 0.95578 0.7386 0.32399 0.0
C213 C 0.96581 0.75014 0.36935 0.0
C214 C 0.94235 0.71949 0.23706 0.0
C215 C 0.95333 0.7625 0.24756 0.0
C216 C 0.95834 0.77163 0.2911 0.0
C217 C 0.96717 0.79669 0.2138 0.0
C218 C 0.93712 0.70753 0.19085 0.0
C219 C 0.00872 0.81346 0.21311 0.0
C220 C 0.02397 0.84372 0.18082 0.0
C221 C 0.99816 0.85823 0.14798 0.0
C222 C 0.95604 0.84242 0.14933 0.0
C223 C 0.94062 0.81189 0.18202 0.0
H224 H 0.93433 0.67188 0.18768 0.0
H225 H 0.90831 0.72154 0.17872 0.0
H226 H 0.96414 0.72103 0.16984 0.0
H227 H 0.02988 0.80234 0.23718 0.0
H228 H 0.05653 0.85511 0.18135 0.0
H229 H 0.36505 0.12291 0.37325 0.0
H230 H 0.31031 0.10696 0.32296 0.0
H231 H 0.34233 0.97322 0.32494 0.0
H232 H 0.39779 0.98884 0.37453 0.0
H233 H 0.32274 0.07019 0.23908 0.0
H234 H 0.21248 0.968 0.34991 0.0
H235 H 0.25252 0.00434 0.36964 0.0
H236 H 0.26654 0.95418 0.34756 0.0
C237 C 0.3608 0.09011 0.36297 0.0
C238 C 0.38615 0.05726 0.37828 0.0
C239 C 0.3292 0.08099 0.33435 0.0
C240 C 0.32187 0.03879 0.32063 0.0
C241 C 0.34689 0.00585 0.33576 0.0
H242 H 0.13236 0.95461 0.13665 0.0
H243 H 0.18823 0.95144 0.18892 0.0
C244 C 0.37867 0.01494 0.36424 0.0
C245 C 0.28921 0.02998 0.28902 0.0
H246 H 0.19278 0.9796 0.27791 0.0
C247 C 0.29446 0.05016 0.24751 0.0
C248 C 0.25258 0.00336 0.29987 0.0
C249 C 0.24529 0.98132 0.34421 0.0
C250 C 0.26372 0.04527 0.21687 0.0
C251 C 0.22619 0.02032 0.2283 0.0
C252 C 0.22153 0.99873 0.26925 0.0
C253 C 0.19022 0.02021 0.19947 0.0
C254 C 0.27152 0.06735 0.17255 0.0
C255 C 0.17174 0.05933 0.1895 0.0
C256 C 0.1408 0.06127 0.1593 0.0
C257 C 0.12717 0.024 0.13828 0.0
C258 C 0.14344 0.98409 0.15068 0.0
C259 C 0.17497 0.98221 0.18094 0.0
H260 H 0.30557 0.07379 0.16464 0.0
H261 H 0.25797 0.04745 0.14717 0.0
H262 H 0.25649 0.09895 0.17175 0.0
H263 H 0.1821 0.08881 0.20432 0.0
H264 H 0.12847 0.09257 0.15157 0.0
H265 H 0.1651 0.6167 0.58183 0.0
H266 H 0.16751 0.66937 0.63801 0.0
H267 H 0.03241 0.66481 0.64827 0.0
H268 H 0.02967 0.61081 0.59309 0.0
H269 H 0.13541 0.75102 0.64478 0.0
H270 H 0.06418 0.63367 0.77195 0.0
H271 H 0.08302 0.61712 0.71984 0.0
H272 H 0.03343 0.64173 0.72536 0.0
C273 C 0.13584 0.62663 0.59612 0.0
C274 C 0.09719 0.60887 0.58328 0.0
C275 C 0.13729 0.6571 0.628 0.0
C276 C 0.10018 0.6705 0.64786 0.0
C277 C 0.06147 0.65434 0.63392 0.0
H278 H 0.09197 0.87711 0.83343 0.0
H279 H 0.08215 0.83476 0.7693 0.0
C280 C 0.05997 0.62374 0.60201 0.0
C281 C 0.10238 0.70002 0.68425 0.0
H282 H 0.08015 0.7047 0.79276 0.0
C283 C 0.12307 0.74107 0.67709 0.0
C284 C 0.08674 0.68671 0.72651 0.0
C285 C 0.06591 0.6423 0.73667 0.0
C286 C 0.12877 0.76903 0.71111 0.0
C287 C 0.11297 0.75571 0.75324 0.0
C288 C 0.09196 0.71489 0.76032 0.0
C289 C 0.11986 0.78249 0.79103 0.0
C290 C 0.15285 0.81195 0.70209 0.0
C291 C 0.14403 0.767 0.82458 0.0
C292 C 0.14968 0.791 0.86115 0.0
C293 C 0.13091 0.83089 0.86516 0.0
C294 C 0.10686 0.84652 0.83135 0.0
C295 C 0.10138 0.82249 0.7946 0.0
H296 H 0.16968 0.81384 0.66985 0.0
H297 H 0.13072 0.83846 0.70294 0.0
H298 H 0.17598 0.81758 0.72723 0.0
H299 H 0.15849 0.73616 0.82249 0.0
H300 H 0.16835 0.77794 0.88653 0.0
H301 H 0.45368 0.94376 0.61021 0.0
H302 H 0.40912 0.91972 0.67459 0.0
H303 H 0.30595 0.98597 0.62157 0.0
H304 H 0.34988 0.00965 0.55786 0.0
H305 H 0.37676 0.97879 0.72861 0.0
H306 H 0.24598 0.87575 0.67286 0.0
H307 H 0.29454 0.88635 0.64114 0.0
H308 H 0.25401 0.92479 0.63966 0.0
C309 C 0.42105 0.95171 0.6117 0.0
C310 C 0.40521 0.97853 0.57906 0.0
C311 C 0.39567 0.93819 0.64856 0.0
C312 C 0.35395 0.95061 0.6528 0.0
C313 C 0.33759 0.97506 0.61881 0.0
H314 H 0.16413 0.0154 0.83193 0.0
H315 H 0.20777 0.99474 0.77022 0.0
C316 C 0.3629 0.98887 0.58244 0.0
C317 C 0.32927 0.94428 0.69472 0.0
H318 H 0.2311 0.91464 0.73772 0.0
C319 C 0.34531 0.96375 0.731 0.0
C320 C 0.2881 0.92489 0.6978 0.0
C321 C 0.26984 0.90138 0.66085 0.0
C322 C 0.32041 0.96708 0.76912 0.0
C323 C 0.27847 0.94972 0.77137 0.0
C324 C 0.26313 0.92818 0.73593 0.0
C325 C 0.2492 0.95718 0.80865 0.0
C326 C 0.33839 0.99164 0.80562 0.0
C327 C 0.25702 0.94166 0.8507 0.0
C328 C 0.23221 0.95363 0.88616 0.0
C329 C 0.19894 0.98116 0.88019 0.0
C330 C 0.18967 0.99446 0.83777 0.0
C331 C 0.21456 0.98258 0.8024 0.0
H332 H 0.36822 0.01004 0.79552 0.0
H333 H 0.31574 0.01469 0.81804 0.0
H334 H 0.34482 0.9684 0.8326 0.0
H335 H 0.28302 0.92126 0.85623 0.0
H336 H 0.23987 0.94225 0.91832 0.0
H337 H 0.93721 0.43088 0.56215 0.0
H338 H 0.90313 0.38617 0.62289 0.0
H339 H 0.01433 0.31376 0.63315 0.0
H340 H 0.04839 0.35775 0.57317 0.0
H341 H 0.89087 0.28943 0.63534 0.0
H342 H 0.99292 0.36426 0.75477 0.0
H343 H 0.98597 0.38934 0.70189 0.0
H344 H 0.02058 0.34562 0.70802 0.0
C345 C 0.9542 0.40517 0.57714 0.0
C346 C 0.99569 0.39821 0.56303 0.0
C347 C 0.93472 0.37971 0.6118 0.0
C348 C 0.95651 0.34714 0.6329 0.0
C349 C 0.99722 0.33917 0.61778 0.0
H350 H 0.93501 0.16377 0.84997 0.0
H351 H 0.95496 0.21072 0.78597 0.0
C352 C 0.0166 0.36439 0.58334 0.0
C353 C 0.9378 0.32195 0.67159 0.0
H354 H 0.95363 0.29957 0.77845 0.0
C355 C 0.90413 0.29193 0.66682 0.0
C356 C 0.95526 0.32531 0.71254 0.0
C357 C 0.99045 0.35812 0.7199 0.0
C358 C 0.88866 0.2638 0.70159 0.0
C359 C 0.90695 0.26639 0.74229 0.0
C360 C 0.9398 0.29736 0.74722 0.0
C361 C 0.89366 0.23651 0.77998 0.0
C362 C 0.85408 0.2304 0.69399 0.0
C363 C 0.85253 0.23537 0.79805 0.0
C364 C 0.84096 0.20837 0.83466 0.0
C365 C 0.87041 0.18228 0.85418 0.0
C366 C 0.91153 0.18343 0.83587 0.0
C367 C 0.923 0.21029 0.79925 0.0
H368 H 0.85057 0.22569 0.65897 0.0
H369 H 0.86005 0.1987 0.7103 0.0
H370 H 0.82394 0.24135 0.70761 0.0
H371 H 0.82956 0.25594 0.78436 0.0
H372 H 0.80907 0.20844 0.84799 0.0
H373 H 0.61013 0.00687 0.61113 0.0
H374 H 0.662 -0.00091 0.66565 0.0
H375 H 0.65561 0.13417 0.69206 0.0
H376 H 0.60409 0.14287 0.63649 0.0
H377 H 0.743 0.04898 0.67025 0.0
H378 H 0.63283 0.0654 0.81225 0.0
H379 H 0.61469 0.05181 0.75992 0.0
H380 H 0.63326 0.1062 0.76879 0.0
C381 C 0.61986 0.03529 0.62785 0.0
C382 C 0.60256 0.07564 0.61896 0.0
C383 C 0.64953 0.0306 0.65935 0.0
C384 C 0.66242 0.06591 0.68315 0.0
C385 C 0.64566 0.10633 0.67441 0.0
H386 H 0.82241 0.05719 0.90716 0.0
H387 H 0.77871 0.08359 0.84944 0.0
C388 C 0.61608 0.11118 0.64263 0.0
C389 C 0.69337 0.0599 0.71705 0.0
H390 H 0.7026 0.05141 0.82655 0.0
C391 C 0.73431 0.04983 0.70444 0.0
C392 C 0.68205 0.06141 0.76157 0.0
C393 C 0.6383 0.07154 0.77678 0.0
C394 C 0.76406 0.0405 0.73518 0.0
C395 C 0.75223 0.04002 0.77982 0.0
C396 C 0.71166 0.05158 0.79239 0.0
C397 C 0.78051 0.02509 0.81382 0.0
C398 C 0.80795 0.03139 0.71946 0.0
C399 C 0.79593 0.98337 0.81326 0.0
C400 C 0.82114 0.96835 0.84596 0.0
C401 C 0.83109 0.9945 0.88041 0.0
C402 C 0.81551 0.03627 0.88105 0.0
C403 C 0.79045 0.05139 0.8481 0.0
H404 H 0.81574 0.047 0.68687 0.0
H405 H 0.83156 0.04304 0.74208 0.0
H406 H 0.81032 0.99592 0.71695 0.0
H407 H 0.78783 0.96198 0.78788 0.0
H408 H 0.83224 0.9359 0.84456 0.0
H409 H 0.32644 0.46218 0.15258 0.0
H410 H 0.27094 0.41968 0.11975 0.0
H411 H 0.36272 0.36622 0.03411 0.0
H412 H 0.41864 0.40934 0.06636 0.0
H413 H 0.28616 0.38639 0.99435 0.0
H414 H 0.25812 0.2887 0.1491 0.0
H415 H 0.25426 0.34604 0.15359 0.0
H416 H 0.30385 0.32481 0.13844 0.0
C417 C 0.33487 0.44178 0.12641 0.0
C418 C 0.37704 0.43868 0.11247 0.0
C419 C 0.30308 0.41744 0.10777 0.0
C420 C 0.31283 0.38916 0.07515 0.0
C421 C 0.35459 0.38773 0.05944 0.0
H422 H 0.19301 0.17759 0.95212 0.0
H423 H 0.23575 0.24194 0.96757 0.0
C424 C 0.38649 0.41234 0.07792 0.0
C425 C 0.27991 0.35897 0.05964 0.0
H426 H 0.21307 0.27328 0.09316 0.0
C427 C 0.27004 0.36171 0.01591 0.0
C428 C 0.25895 0.32681 0.08788 0.0
C429 C 0.26948 0.321 0.13478 0.0
C430 C 0.2396 0.33314 0.99969 0.0
C431 C 0.21905 0.30069 0.02786 0.0
C432 C 0.22854 0.29845 0.07168 0.0
C433 C 0.18996 0.26644 0.01247 0.0
C434 C 0.22956 0.33811 0.95266 0.0
C435 C 0.14962 0.25901 0.03207 0.0
C436 C 0.12506 0.22197 0.02349 0.0
C437 C 0.14061 0.19136 0.9955 0.0
C438 C 0.17998 0.20035 0.9739 0.0
C439 C 0.20445 0.2374 0.98246 0.0
H440 H 0.23748 0.37163 0.93928 0.0
H441 H 0.2484 0.31574 0.93381 0.0
H442 H 0.19586 0.33002 0.94805 0.0
H443 H 0.13787 0.28094 0.05547 0.0
H444 H 0.09489 0.21626 0.04057 0.0
H445 H 0.46827 0.64531 0.12267 0.0
H446 H 0.43303 0.70998 0.09913 0.0
H447 H 0.36094 0.70511 0.22034 0.0
H448 H 0.39566 0.63981 0.24396 0.0
H449 H 0.34369 0.70518 0.0936 0.0
H450 H 0.39818 0.8362 0.19778 0.0
H451 H 0.42765 0.78876 0.18886 0.0
H452 H 0.38223 0.78511 0.22527 0.0
C453 C 0.44517 0.65813 0.14451 0.0
C454 C 0.43431 0.637 0.18495 0.0
C455 C 0.42537 0.69532 0.13114 0.0
C456 C 0.39464 0.71242 0.1581 0.0
C457 C 0.38514 0.6928 0.19938 0.0
H458 H 0.19653 0.88593 0.12857 0.0
H459 H 0.25363 0.84404 0.15508 0.0
C460 C 0.40494 0.65544 0.21279 0.0
C461 C 0.3688 0.74699 0.14075 0.0
H462 H 0.34011 0.85047 0.15471 0.0
C463 C 0.34322 0.73715 0.10658 0.0
C464 C 0.36808 0.78835 0.15817 0.0
C465 C 0.3957 0.80058 0.19436 0.0
C466 C 0.31591 0.76715 0.09002 0.0
C467 C 0.31512 0.80872 0.10729 0.0
C468 C 0.3411 0.81877 0.14125 0.0
C469 C 0.28532 0.84075 0.09224 0.0
C470 C 0.28686 0.75324 0.05548 0.0
C471 C 0.2854 0.85473 0.04846 0.0
C472 C 0.25244 0.87818 0.03301 0.0
C473 C 0.21922 0.88863 0.06128 0.0
C474 C 0.22136 0.87804 0.1058 0.0
C475 C 0.25406 0.85415 0.12109 0.0
H476 H 0.28417 0.71741 0.05367 0.0
H477 H 0.25498 0.76503 0.06151 0.0
H478 H 0.29934 0.76708 0.02352 0.0
H479 H 0.3099 0.84572 0.02587 0.0
H480 H 0.25211 0.88648 0.99866 0.0
H481 H 0.6126 0.37354 0.19398 0.0
H482 H 0.65242 0.3102 0.17907 0.0
H483 H 0.54658 0.22615 0.22534 0.0
H484 H 0.50602 0.28982 0.23933 0.0
H485 H 0.67434 0.23737 0.22974 0.0
H486 H 0.56801 0.19313 0.09907 0.0
H487 H 0.56703 0.24496 0.12339 0.0
H488 H 0.54479 0.19716 0.15257 0.0
C489 C 0.59789 0.34158 0.20126 0.0
C490 C 0.55601 0.33664 0.21715 0.0
C491 C 0.62074 0.30542 0.19302 0.0
C492 C 0.6022 0.26353 0.20045 0.0
C493 C 0.56122 0.25827 0.2188 0.0
H494 H 0.77845 0.06472 0.12879 0.0
H495 H 0.7213 0.09583 0.17027 0.0
C496 C 0.53824 0.29462 0.22714 0.0
C497 C 0.62532 0.22624 0.18559 0.0
H498 H 0.63013 0.15661 0.10341 0.0
C499 C 0.6644 0.21894 0.20272 0.0
C500 C 0.61217 0.20254 0.15019 0.0
C501 C 0.57085 0.20979 0.12989 0.0
C502 C 0.69188 0.19052 0.18373 0.0
C503 C 0.67953 0.16835 0.14702 0.0
C504 C 0.63938 0.17362 0.13159 0.0
C505 C 0.70986 0.14485 0.12059 0.0
C506 C 0.73498 0.18689 0.20125 0.0
C507 C 0.72083 0.16052 0.07813 0.0
C508 C 0.7532 0.14262 0.05436 0.0
C509 C 0.7754 0.1088 0.07273 0.0
C510 C 0.76261 0.09139 0.11426 0.0
C511 C 0.72998 0.10914 0.13797 0.0
H512 H 0.7419 0.2117 0.22509 0.0
H513 H 0.7371 0.15444 0.21763 0.0
H514 H 0.75947 0.19045 0.17459 0.0
H515 H 0.70557 0.18796 0.06401 0.0
H516 H 0.76208 0.15672 0.0224 0.0
H517 H 0.59245 0.5345 0.06417 0.0
H518 H 0.65505 0.57528 0.03256 0.0
H519 H 0.70717 0.57809 0.15854 0.0
H520 H 0.64547 0.53699 0.19009 0.0
H521 H 0.67858 0.65672 0.05446 0.0
H522 H 0.80841 0.54913 0.08452 0.0
H523 H 0.75409 0.52966 0.0879 0.0
H524 H 0.77665 0.55603 0.13264 0.0
C525 C 0.61764 0.54306 0.08495 0.0
C526 C 0.61388 0.53265 0.12968 0.0
C527 C 0.65338 0.56632 0.06685 0.0
C528 C 0.68609 0.5792 0.09307 0.0
C529 C 0.6829 0.56762 0.13745 0.0
H530 H 0.88381 0.77476 0.093 0.0
H531 H 0.83703 0.71008 0.10675 0.0
C532 C 0.64729 0.54444 0.15553 0.0
C533 C 0.72114 0.60905 0.07542 0.0
H534 H 0.82786 0.62517 0.07129 0.0
C535 C 0.71124 0.6495 0.05735 0.0
C536 C 0.76373 0.5997 0.07957 0.0
C537 C 0.77638 0.55608 0.09683 0.0
C538 C 0.7426 0.68159 0.04513 0.0
C539 C 0.78514 0.6727 0.05037 0.0
C540 C 0.79522 0.63186 0.06735 0.0
C541 C 0.81909 0.70654 0.04041 0.0
C542 C 0.72977 0.72548 0.02858 0.0
C543 C 0.82607 0.7246 0.99819 0.0
C544 C 0.85256 0.76167 0.99022 0.0
C545 C 0.87282 0.78118 0.02434 0.0
C546 C 0.86851 0.76078 0.06601 0.0
C547 C 0.84179 0.72378 0.07396 0.0
H548 H 0.69582 0.72985 0.03514 0.0
H549 H 0.74798 0.75186 0.0436 0.0
H550 H 0.73621 0.72888 0.99306 0.0
H551 H 0.80945 0.71122 0.97173 0.0
H552 H 0.85558 0.77615 0.95764 0.0
loop_
_geom_bond_atom_site_label_1
_geom_bond_atom_site_label_2
_geom_bond_distance
_geom_bond_site_symmetry_2
_ccdc_geom_bond_type
Cu0 N1 1.999 . S
Cu0 O6 1.974 . S
Cu0 N11 1.985 . S
Cu0 O20 1.959 . S
N1 Cu0 1.999 . S
N1 C3 1.263 . S
N1 C5 1.389 . S
N2 C3 1.358 . S
N2 C4 1.400 . S
C3 N1 1.263 . S
C3 N2 1.358 . S
C3 H9 0.930 1_455 S
C4 N2 1.400 . S
C4 C5 1.351 . S
C4 H21 0.930 . S
C5 N1 1.389 . S
C5 C4 1.351 . S
C5 H10 0.930 . S
O6 Cu0 1.974 . S
O6 C16 1.282 1_455 S
C7 O8 1.261 . S
C7 O20 1.251 1_655 S
O8 C7 1.261 . S
H9 C3 0.930 1_655 S
H10 C5 0.930 . S
N11 Cu0 1.985 . S
N11 C13 1.335 . S
N11 C14 1.390 1_455 S
N12 C13 1.345 . S
N12 C15 1.336 1_455 S
C13 N11 1.335 . S
C13 N12 1.345 . S
C13 H18 0.930 . S
C14 N11 1.390 1_655 S
C14 C15 1.346 . S
C14 H19 0.930 . S
C15 N12 1.336 1_655 S
C15 C14 1.346 . S
C15 H22 0.929 . S
C16 O6 1.282 1_655 S
C16 O17 1.216 . S
O17 C16 1.216 . S
H18 C13 0.930 . S
H19 C14 0.930 . S
O20 Cu0 1.959 . S
O20 C7 1.251 1_455 S
H21 C4 0.930 . S
H22 C15 0.929 . S
Cu23 N24 1.999 . S
Cu23 O29 1.974 . S
Cu23 N34 1.985 . S
Cu23 O43 1.959 . S
N24 Cu23 1.999 . S
N24 C26 1.263 . S
N24 C28 1.389 . S
N25 C26 1.358 . S
N25 C27 1.400 . S
C26 N24 1.263 . S
C26 N25 1.358 . S
C26 H32 0.930 1_565 S
C27 N25 1.400 . S
C27 C28 1.351 . S
C27 H44 0.930 . S
C28 N24 1.389 . S
C28 C27 1.351 . S
C28 H33 0.930 . S
O29 Cu23 1.974 . S
O29 C39 1.282 1_565 S
C30 O31 1.261 . S
C30 O43 1.251 1_545 S
O31 C30 1.261 . S
H32 C26 0.930 1_545 S
H33 C28 0.930 . S
N34 Cu23 1.985 . S
N34 C36 1.335 . S
N34 C37 1.390 1_565 S
N35 C36 1.345 . S
N35 C38 1.336 1_565 S
C36 N34 1.335 . S
C36 N35 1.345 . S
C36 H41 0.930 . S
C37 N34 1.390 1_545 S
C37 C38 1.346 . S
C37 H42 0.930 . S
C38 N35 1.336 1_545 S
C38 C37 1.346 . S
C38 H45 0.929 . S
C39 O29 1.282 1_545 S
C39 O40 1.216 . S
O40 C39 1.216 . S
H41 C36 0.930 . S
H42 C37 0.930 . S
O43 Cu23 1.959 . S
O43 C30 1.251 1_565 S
H44 C27 0.930 . S
H45 C38 0.929 . S
Cu46 N47 1.999 1_554 S
Cu46 O52 1.974 . S
Cu46 N57 1.985 . S
Cu46 O66 1.959 . S
N47 Cu46 1.999 1_556 S
N47 C49 1.263 1_556 S
N47 C51 1.389 . S
N48 C49 1.358 . S
N48 C50 1.400 1_554 S
C49 N47 1.263 1_554 S
C49 N48 1.358 . S
C49 H55 0.930 . S
C50 N48 1.400 1_556 S
C50 C51 1.351 . S
C50 H67 0.930 . S
C51 N47 1.389 . S
C51 C50 1.351 . S
C51 H56 0.930 . S
O52 Cu46 1.974 . S
O52 C62 1.282 . S
C53 O54 1.261 . S
C53 O66 1.262 . S
O54 C53 1.261 . S
H55 C49 0.930 . S
H56 C51 0.930 . S
N57 Cu46 1.985 . S
N57 C59 1.335 . S
N57 C60 1.390 . S
N58 C59 1.345 . S
N58 C61 1.336 . S
C59 N57 1.335 . S
C59 N58 1.345 . S
C59 H64 0.930 1_554 S
C60 N57 1.390 . S
C60 C61 1.346 . S
C60 H65 0.930 . S
C61 N58 1.336 . S
C61 C60 1.346 . S
C61 H68 0.929 . S
C62 O52 1.282 . S
C62 O63 1.216 . S
O63 C62 1.216 . S
H64 C59 0.930 1_556 S
H65 C60 0.930 . S
O66 Cu46 1.959 . S
O66 C53 1.262 . S
H67 C50 0.930 . S
H68 C61 0.929 . S
Zn69 O71 1.933 1_556 S
Zn69 O89 1.985 . S
Zn69 O100 1.955 . S
Zn70 O71 1.911 . S
Zn70 O90 1.970 . S
Zn70 O106 1.945 . S
Zn70 O113 1.981 . S
O71 Zn69 1.933 1_554 S
O71 Zn70 1.911 . S
O71 H72 0.841 . S
H72 O71 0.841 . S
C73 O74 1.246 . S
C73 O102 1.276 1_455 S
O74 C73 1.246 . S
Zn75 O77 1.911 . S
Zn75 O92 1.970 . S
Zn75 O109 1.945 . S
Zn75 O116 1.981 . S
Zn76 O77 1.933 1_556 S
Zn76 O91 1.985 . S
Zn76 O98 1.955 . S
O77 Zn75 1.911 . S
O77 Zn76 1.933 1_554 S
O77 H78 0.841 . S
H78 O77 0.841 . S
Zn79 O80 1.933 1_556 S
Zn79 O93 1.985 . S
Zn79 O102 1.955 . S
O80 Zn79 1.933 1_554 S
O80 Zn81 1.911 . S
O80 H82 0.841 . S
Zn81 O80 1.911 . S
Zn81 O94 1.970 . S
Zn81 O110 1.981 . S
Zn81 O112 1.945 . S
H82 O80 0.841 . S
Zn83 O84 1.933 1_556 S
Zn83 O96 1.985 . S
Zn83 O104 1.955 . S
O84 Zn83 1.933 1_554 S
O84 H85 0.841 . S
O84 Zn86 1.911 . S
H85 O84 0.841 . S
Zn86 O84 1.911 . S
Zn86 O97 1.970 . S
Zn86 O107 1.981 . S
Zn86 O115 1.945 . S
C87 O88 1.246 . S
C87 O104 1.276 1_655 S
O88 C87 1.246 . S
O89 Zn69 1.985 . S
O89 C99 1.245 1_556 S
O90 Zn70 1.970 . S
O90 C99 1.263 . S
O91 Zn76 1.985 . S
O91 C103 1.245 1_556 S
O92 Zn75 1.970 . S
O92 C103 1.263 . S
O93 Zn79 1.985 . S
O93 C108 1.245 1_556 S
O94 Zn81 1.970 . S
O94 C108 1.263 . S
C95 O106 1.262 . S
C95 O107 1.245 1_545 S
O96 Zn83 1.985 . S
O96 C114 1.245 1_556 S
O97 Zn86 1.970 . S
O97 C114 1.263 . S
O98 Zn76 1.955 . S
O98 C117 1.276 1_565 S
C99 O89 1.245 1_554 S
C99 O90 1.263 . S
O100 Zn69 1.955 . S
O100 C119 1.276 . S
C101 O109 1.262 . S
C101 O110 1.245 1_565 S
O102 C73 1.276 1_655 S
O102 Zn79 1.955 . S
C103 O91 1.245 1_554 S
C103 O92 1.263 . S
O104 Zn83 1.955 . S
O104 C87 1.276 1_455 S
C105 O112 1.262 1_455 S
C105 O113 1.245 . S
O106 Zn70 1.945 . S
O106 C95 1.262 . S
O107 Zn86 1.981 . S
O107 C95 1.245 1_565 S
C108 O93 1.245 1_554 S
C108 O94 1.263 . S
O109 Zn75 1.945 . S
O109 C101 1.262 . S
O110 Zn81 1.981 . S
O110 C101 1.245 1_545 S
C111 O115 1.262 1_655 S
C111 O116 1.245 . S
O112 Zn81 1.945 . S
O112 C105 1.262 1_655 S
O113 Zn70 1.981 . S
O113 C105 1.245 . S
C114 O96 1.245 1_554 S
C114 O97 1.263 . S
O115 Zn86 1.945 . S
O115 C111 1.262 1_455 S
O116 Zn75 1.981 . S
O116 C111 1.245 . S
C117 O98 1.276 1_545 S
C117 O118 1.246 . S
O118 C117 1.246 . S
C119 O100 1.276 . S
C119 O120 1.246 1_545 S
O120 C119 1.246 1_565 S
H121 C129 0.929 . S
H122 C131 0.930 . S
H123 C133 0.930 . S
H124 C136 0.929 . S
H125 C139 0.930 . S
H126 C141 0.960 . S
H127 C141 0.960 . S
H128 C141 0.960 . S
C129 H121 0.929 . S
C129 C130 1.377 . S
C129 C131 1.384 . S
C130 C129 1.377 . S
C130 C136 1.390 1_455 S
C131 H122 0.930 . S
C131 C129 1.384 . S
C131 C132 1.372 . S
C132 C131 1.372 . S
C132 C133 1.400 1_455 S
C132 C137 1.490 . S
C133 H123 0.930 . S
C133 C132 1.400 1_655 S
C133 C136 1.386 . S
H134 C150 0.930 1_655 S
H135 C151 0.931 1_655 S
C136 H124 0.929 . S
C136 C130 1.390 1_655 S
C136 C133 1.386 . S
C137 C132 1.490 . S
C137 C139 1.395 . S
C137 C140 1.403 1_455 S
H138 C144 0.930 . S
C139 H125 0.930 . S
C139 C137 1.395 . S
C139 C142 1.403 . S
C140 C137 1.403 1_655 S
C140 C141 1.524 . S
C140 C144 1.400 . S
C141 H126 0.960 . S
C141 H127 0.960 . S
C141 H128 0.960 . S
C141 C140 1.524 . S
C142 C139 1.403 . S
C142 C143 1.392 . S
C142 C146 1.495 . S
C143 C142 1.392 . S
C143 C144 1.385 1_455 S
C143 C145 1.478 . S
C144 H138 0.930 . S
C144 C140 1.400 . S
C144 C143 1.385 1_655 S
C145 C143 1.478 . S
C145 C147 1.381 . S
C145 C151 1.383 . S
C146 C142 1.495 . S
C146 H152 0.959 . S
C146 H153 0.961 . S
C146 H154 0.960 . S
C147 C145 1.381 . S
C147 C148 1.394 . S
C147 H155 0.930 . S
C148 C147 1.394 . S
C148 C149 1.383 . S
C148 H156 0.929 . S
C149 C148 1.383 . S
C149 C150 1.377 . S
C150 H134 0.930 1_455 S
C150 C149 1.377 . S
C150 C151 1.379 . S
C151 H135 0.931 1_455 S
C151 C145 1.383 . S
C151 C150 1.379 . S
H152 C146 0.959 . S
H153 C146 0.961 . S
H154 C146 0.960 . S
H155 C147 0.930 . S
H156 C148 0.929 . S
H157 C165 0.929 . S
H158 C167 0.930 . S
H159 C169 0.930 . S
H160 C172 0.929 . S
H161 C175 0.930 . S
H162 C177 0.960 . S
H163 C177 0.960 . S
H164 C177 0.960 . S
C165 H157 0.929 . S
C165 C166 1.377 1_565 S
C165 C167 1.384 . S
C166 C165 1.377 1_545 S
C166 C172 1.390 . S
C167 H158 0.930 . S
C167 C165 1.384 . S
C167 C168 1.372 1_565 S
C168 C167 1.372 1_545 S
C168 C169 1.400 . S
C168 C173 1.490 . S
C169 H159 0.930 . S
C169 C168 1.400 . S
C169 C172 1.386 . S
H170 C186 0.930 . S
H171 C187 0.931 . S
C172 H160 0.929 . S
C172 C166 1.390 . S
C172 C169 1.386 . S
C173 C168 1.490 . S
C173 C175 1.395 1_545 S
C173 C176 1.403 . S
H174 C180 0.930 . S
C175 H161 0.930 . S
C175 C173 1.395 1_565 S
C175 C178 1.403 . S
C176 C173 1.403 . S
C176 C177 1.524 . S
C176 C180 1.400 . S
C177 H162 0.960 . S
C177 H163 0.960 . S
C177 H164 0.960 . S
C177 C176 1.524 . S
C178 C175 1.403 . S
C178 C179 1.392 1_565 S
C178 C182 1.495 . S
C179 C178 1.392 1_545 S
C179 C180 1.385 . S
C179 C181 1.478 . S
C180 H174 0.930 . S
C180 C176 1.400 . S
C180 C179 1.385 . S
C181 C179 1.478 . S
C181 C183 1.381 1_545 S
C181 C187 1.383 . S
C182 C178 1.495 . S
C182 H188 0.959 . S
C182 H189 0.961 . S
C182 H190 0.960 . S
C183 C181 1.381 1_565 S
C183 C184 1.394 . S
C183 H191 0.930 . S
C184 C183 1.394 . S
C184 C185 1.383 1_565 S
C184 H192 0.929 . S
C185 C184 1.383 1_545 S
C185 C186 1.377 . S
C186 H170 0.930 . S
C186 C185 1.377 . S
C186 C187 1.379 . S
C187 H171 0.931 . S
C187 C181 1.383 . S
C187 C186 1.379 . S
H188 C182 0.959 . S
H189 C182 0.961 . S
H190 C182 0.960 . S
H191 C183 0.930 . S
H192 C184 0.929 . S
H193 C201 0.929 . S
H194 C203 0.930 . S
H195 C205 0.930 . S
H196 C208 0.929 . S
H197 C211 0.930 1_455 S
H198 C213 0.960 . S
H199 C213 0.960 1_455 S
H200 C213 0.960 . S
C201 H193 0.929 . S
C201 C202 1.377 1_455 S
C201 C203 1.384 . S
C202 C201 1.377 1_655 S
C202 C208 1.390 . S
C203 H194 0.930 . S
C203 C201 1.384 . S
C203 C204 1.372 1_455 S
C204 C203 1.372 1_655 S
C204 C205 1.400 . S
C204 C209 1.490 . S
C205 H195 0.930 . S
C205 C204 1.400 . S
C205 C208 1.386 . S
H206 C222 0.930 . S
H207 C223 0.931 . S
C208 H196 0.929 . S
C208 C202 1.390 . S
C208 C205 1.386 . S
C209 C204 1.490 . S
C209 C211 1.395 . S
C209 C212 1.403 . S
H210 C216 0.930 . S
C211 H197 0.930 1_655 S
C211 C209 1.395 . S
C211 C214 1.403 . S
C212 C209 1.403 . S
C212 C213 1.524 . S
C212 C216 1.400 . S
C213 H198 0.960 . S
C213 H199 0.960 1_655 S
C213 H200 0.960 . S
C213 C212 1.524 . S
C214 C211 1.403 . S
C214 C215 1.392 . S
C214 C218 1.495 1_655 S
C215 C214 1.392 . S
C215 C216 1.385 . S
C215 C217 1.478 . S
C216 H210 0.930 . S
C216 C212 1.400 . S
C216 C215 1.385 . S
C217 C215 1.478 . S
C217 C219 1.381 1_655 S
C217 C223 1.383 . S
C218 C214 1.495 1_455 S
C218 H224 0.959 . S
C218 H225 0.961 1_455 S
C218 H226 0.960 . S
C219 C217 1.381 1_455 S
C219 C220 1.394 . S
C219 H227 0.930 . S
C220 C219 1.394 . S
C220 C221 1.383 1_455 S
C220 H228 0.929 . S
C221 C220 1.383 1_655 S
C221 C222 1.377 . S
C222 H206 0.930 . S
C222 C221 1.377 . S
C222 C223 1.379 . S
C223 H207 0.931 . S
C223 C217 1.383 . S
C223 C222 1.379 . S
H224 C218 0.959 . S
H225 C218 0.961 1_655 S
H226 C218 0.960 . S
H227 C219 0.930 . S
H228 C220 0.929 . S
H229 C237 0.929 . S
H230 C239 0.930 . S
H231 C241 0.930 . S
H232 C244 0.929 . S
H233 C247 0.930 . S
H234 C249 0.960 . S
H235 C249 0.960 . S
H236 C249 0.960 . S
C237 H229 0.929 . S
C237 C238 1.377 1_545 S
C237 C239 1.384 . S
C238 C237 1.377 1_565 S
C238 C244 1.390 . S
C239 H230 0.930 . S
C239 C237 1.384 . S
C239 C240 1.372 1_545 S
C240 C239 1.372 1_565 S
C240 C241 1.400 . S
C240 C245 1.490 . S
C241 H231 0.930 . S
C241 C240 1.400 . S
C241 C244 1.386 . S
H242 C258 0.930 . S
H243 C259 0.931 . S
C244 H232 0.929 . S
C244 C238 1.390 . S
C244 C241 1.386 . S
C245 C240 1.490 . S
C245 C247 1.395 1_565 S
C245 C248 1.403 . S
H246 C252 0.930 . S
C247 H233 0.930 . S
C247 C245 1.395 1_545 S
C247 C250 1.403 . S
C248 C245 1.403 . S
C248 C249 1.524 . S
C248 C252 1.400 . S
C249 H234 0.960 . S
C249 H235 0.960 . S
C249 H236 0.960 . S
C249 C248 1.524 . S
C250 C247 1.403 . S
C250 C251 1.392 1_545 S
C250 C254 1.495 . S
C251 C250 1.392 1_565 S
C251 C252 1.385 . S
C251 C253 1.478 . S
C252 H246 0.930 . S
C252 C248 1.400 . S
C252 C251 1.385 . S
C253 C251 1.478 . S
C253 C255 1.381 1_565 S
C253 C259 1.383 . S
C254 C250 1.495 . S
C254 H260 0.959 . S
C254 H261 0.961 . S
C254 H262 0.960 . S
C255 C253 1.381 1_545 S
C255 C256 1.394 . S
C255 H263 0.930 . S
C256 C255 1.394 . S
C256 C257 1.383 1_545 S
C256 H264 0.929 . S
C257 C256 1.383 1_565 S
C257 C258 1.377 . S
C258 H242 0.930 . S
C258 C257 1.377 . S
C258 C259 1.379 . S
C259 H243 0.931 . S
C259 C253 1.383 . S
C259 C258 1.379 . S
H260 C254 0.959 . S
H261 C254 0.961 . S
H262 C254 0.960 . S
H263 C255 0.930 . S
H264 C256 0.929 . S
H265 C273 0.929 . S
H266 C275 0.930 . S
H267 C277 0.930 . S
H268 C280 0.929 . S
H269 C283 0.930 . S
H270 C285 0.960 . S
H271 C285 0.960 . S
H272 C285 0.960 . S
C273 H265 0.929 . S
C273 C274 1.377 . S
C273 C275 1.384 . S
C274 C273 1.377 . S
C274 C280 1.390 1_455 S
C275 H266 0.930 . S
C275 C273 1.384 . S
C275 C276 1.372 . S
C276 C275 1.372 . S
C276 C277 1.400 1_455 S
C276 C281 1.490 . S
C277 H267 0.930 . S
C277 C276 1.400 1_655 S
C277 C280 1.386 . S
H278 C294 0.930 . S
H279 C295 0.931 . S
C280 H268 0.929 . S
C280 C274 1.390 1_655 S
C280 C277 1.386 . S
C281 C276 1.490 . S
C281 C283 1.395 . S
C281 C284 1.403 1_455 S
H282 C288 0.930 . S
C283 H269 0.930 . S
C283 C281 1.395 . S
C283 C286 1.403 . S
C284 C281 1.403 1_655 S
C284 C285 1.524 . S
C284 C288 1.400 . S
C285 H270 0.960 . S
C285 H271 0.960 . S
C285 H272 0.960 . S
C285 C284 1.524 . S
C286 C283 1.403 . S
C286 C287 1.392 . S
C286 C290 1.495 . S
C287 C286 1.392 . S
C287 C288 1.385 1_455 S
C287 C289 1.478 . S
C288 H282 0.930 . S
C288 C284 1.400 . S
C288 C287 1.385 1_655 S
C289 C287 1.478 . S
C289 C291 1.381 . S
C289 C295 1.383 1_455 S
C290 C286 1.495 . S
C290 H296 0.959 . S
C290 H297 0.961 . S
C290 H298 0.960 . S
C291 C289 1.381 . S
C291 C292 1.394 . S
C291 H299 0.930 . S
C292 C291 1.394 . S
C292 C293 1.383 1_455 S
C292 H300 0.929 . S
C293 C292 1.383 1_655 S
C293 C294 1.377 . S
C294 H278 0.930 . S
C294 C293 1.377 . S
C294 C295 1.379 . S
C295 H279 0.931 . S
C295 C289 1.383 1_655 S
C295 C294 1.379 . S
H296 C290 0.959 . S
H297 C290 0.961 . S
H298 C290 0.960 . S
H299 C291 0.930 . S
H300 C292 0.929 . S
H301 C309 0.929 . S
H302 C311 0.930 . S
H303 C313 0.930 . S
H304 C316 0.929 . S
H305 C319 0.930 . S
H306 C321 0.960 . S
H307 C321 0.960 . S
H308 C321 0.960 1_545 S
C309 H301 0.929 . S
C309 C310 1.377 1_565 S
C309 C311 1.384 . S
C310 C309 1.377 1_545 S
C310 C316 1.390 . S
C311 H302 0.930 . S
C311 C309 1.384 . S
C311 C312 1.372 1_565 S
C312 C311 1.372 1_545 S
C312 C313 1.400 . S
C312 C317 1.490 . S
C313 H303 0.930 . S
C313 C312 1.400 . S
C313 C316 1.386 . S
H314 C330 0.930 . S
H315 C331 0.931 . S
C316 H304 0.929 . S
C316 C310 1.390 . S
C316 C313 1.386 . S
C317 C312 1.490 . S
C317 C319 1.395 . S
C317 C320 1.403 1_545 S
H318 C324 0.930 . S
C319 H305 0.930 . S
C319 C317 1.395 . S
C319 C322 1.403 . S
C320 C317 1.403 1_565 S
C320 C321 1.524 . S
C320 C324 1.400 . S
C321 H306 0.960 . S
C321 H307 0.960 . S
C321 H308 0.960 1_565 S
C321 C320 1.524 . S
C322 C319 1.403 . S
C322 C323 1.392 . S
C322 C326 1.495 . S
C323 C322 1.392 . S
C323 C324 1.386 1_545 S
C323 C325 1.477 1_545 S
C324 H318 0.930 . S
C324 C320 1.400 . S
C324 C323 1.386 1_565 S
C325 C323 1.477 1_565 S
C325 C327 1.381 . S
C325 C331 1.383 1_565 S
C326 C322 1.495 . S
C326 H332 0.959 . S
C326 H333 0.961 . S
C326 H334 0.960 1_545 S
C327 C325 1.381 . S
C327 C328 1.394 . S
C327 H335 0.930 . S
C328 C327 1.394 . S
C328 C329 1.383 . S
C328 H336 0.929 . S
C329 C328 1.383 . S
C329 C330 1.377 1_565 S
C330 H314 0.930 . S
C330 C329 1.377 1_545 S
C330 C331 1.379 . S
C331 H315 0.931 . S
C331 C325 1.383 1_545 S
C331 C330 1.379 . S
H332 C326 0.959 . S
H333 C326 0.961 . S
H334 C326 0.960 1_565 S
H335 C327 0.930 . S
H336 C328 0.929 . S
H337 C345 0.929 . S
H338 C347 0.930 . S
H339 C349 0.930 . S
H340 C352 0.929 . S
H341 C355 0.930 . S
H342 C357 0.960 . S
H343 C357 0.960 . S
H344 C357 0.960 . S
C345 H337 0.929 . S
C345 C346 1.377 1_455 S
C345 C347 1.384 . S
C346 C345 1.377 1_655 S
C346 C352 1.390 . S
C347 H338 0.930 . S
C347 C345 1.384 . S
C347 C348 1.375 . S
C348 C347 1.375 . S
C348 C349 1.396 1_455 S
C348 C353 1.491 . S
C349 H339 0.930 . S
C349 C348 1.396 1_655 S
C349 C352 1.386 . S
H350 C366 0.930 . S
H351 C367 0.931 . S
C352 H340 0.929 . S
C352 C346 1.390 . S
C352 C349 1.386 . S
C353 C348 1.491 . S
C353 C355 1.395 1_455 S
C353 C356 1.403 . S
H354 C360 0.930 . S
C355 H341 0.930 . S
C355 C353 1.395 1_655 S
C355 C358 1.403 . S
C356 C353 1.403 . S
C356 C357 1.524 . S
C356 C360 1.400 . S
C357 H342 0.960 . S
C357 H343 0.960 . S
C357 H344 0.960 . S
C357 C356 1.524 . S
C358 C355 1.403 . S
C358 C359 1.392 1_655 S
C358 C362 1.495 . S
C359 C358 1.392 1_455 S
C359 C360 1.385 . S
C359 C361 1.478 . S
C360 H354 0.930 . S
C360 C356 1.400 . S
C360 C359 1.385 . S
C361 C359 1.478 . S
C361 C363 1.381 . S
C361 C367 1.383 1_455 S
C362 C358 1.495 . S
C362 H368 0.959 . S
C362 H369 0.961 . S
C362 H370 0.959 . S
C363 C361 1.381 . S
C363 C364 1.394 . S
C363 H371 0.930 . S
C364 C363 1.394 . S
C364 C365 1.383 . S
C364 H372 0.929 . S
C365 C364 1.383 . S
C365 C366 1.377 1_455 S
C366 H350 0.930 . S
C366 C365 1.377 1_655 S
C366 C367 1.379 . S
C367 H351 0.931 . S
C367 C361 1.383 1_655 S
C367 C366 1.379 . S
H368 C362 0.959 . S
H369 C362 0.961 . S
H370 C362 0.959 . S
H371 C363 0.930 . S
H372 C364 0.929 . S
H373 C381 0.929 . S
H374 C383 0.930 . S
H375 C385 0.930 . S
H376 C388 0.929 . S
H377 C391 0.930 . S
H378 C393 0.960 . S
H379 C393 0.960 1_565 S
H380 C393 0.960 . S
C381 H373 0.929 . S
C381 C382 1.377 . S
C381 C383 1.384 . S
C382 C381 1.377 . S
C382 C388 1.390 1_565 S
C383 H374 0.930 . S
C383 C381 1.384 . S
C383 C384 1.372 . S
C384 C383 1.372 . S
C384 C385 1.400 1_565 S
C384 C389 1.490 . S
C385 H375 0.930 . S
C385 C384 1.400 1_545 S
C385 C388 1.386 . S
H386 C402 0.930 . S
H387 C403 0.931 . S
C388 H376 0.929 . S
C388 C382 1.390 1_545 S
C388 C385 1.386 . S
C389 C384 1.490 . S
C389 C391 1.395 . S
C389 C392 1.403 1_565 S
H390 C396 0.930 . S
C391 H377 0.930 . S
C391 C389 1.395 . S
C391 C394 1.403 . S
C392 C389 1.403 1_545 S
C392 C393 1.524 . S
C392 C396 1.400 . S
C393 H378 0.960 . S
C393 H379 0.960 1_545 S
C393 H380 0.960 . S
C393 C392 1.524 . S
C394 C391 1.403 . S
C394 C395 1.392 1_565 S
C394 C398 1.495 . S
C395 C394 1.392 1_545 S
C395 C396 1.385 . S
C395 C397 1.478 . S
C396 H390 0.930 . S
C396 C392 1.400 . S
C396 C395 1.385 . S
C397 C395 1.478 . S
C397 C399 1.381 1_545 S
C397 C403 1.383 . S
C398 C394 1.495 . S
C398 H404 0.959 . S
C398 H405 0.961 1_565 S
C398 H406 0.960 . S
C399 C397 1.381 1_565 S
C399 C400 1.394 . S
C399 H407 0.930 . S
C400 C399 1.394 . S
C400 C401 1.383 1_565 S
C400 H408 0.929 . S
C401 C400 1.383 1_545 S
C401 C402 1.377 . S
C402 H386 0.930 . S
C402 C401 1.377 . S
C402 C403 1.379 . S
C403 H387 0.931 . S
C403 C397 1.383 . S
C403 C402 1.379 . S
H404 C398 0.959 . S
H405 C398 0.961 1_545 S
H406 C398 0.960 . S
H407 C399 0.930 . S
H408 C400 0.929 . S
H409 C417 0.929 . S
H410 C419 0.930 . S
H411 C421 0.930 1_556 S
H412 C424 0.929 1_556 S
H413 C427 0.930 . S
H414 C429 0.960 . S
H415 C429 0.960 . S
H416 C429 0.960 . S
C417 H409 0.929 . S
C417 C418 1.377 . S
C417 C419 1.384 . S
C418 C417 1.377 . S
C418 C424 1.390 . S
C419 H410 0.930 . S
C419 C417 1.384 . S
C419 C420 1.372 . S
C420 C419 1.372 . S
C420 C421 1.400 . S
C420 C425 1.490 . S
C421 H411 0.930 1_554 S
C421 C420 1.400 . S
C421 C424 1.386 . S
H422 C438 0.930 . S
H423 C439 0.931 . S
C424 H412 0.929 1_554 S
C424 C418 1.390 . S
C424 C421 1.386 . S
C425 C420 1.490 . S
C425 C427 1.395 . S
C425 C428 1.403 . S
H426 C432 0.930 . S
C427 H413 0.930 . S
C427 C425 1.395 . S
C427 C430 1.403 . S
C428 C425 1.403 . S
C428 C429 1.524 . S
C428 C432 1.400 . S
C429 H414 0.960 . S
C429 H415 0.960 . S
C429 H416 0.960 . S
C429 C428 1.524 . S
C430 C427 1.403 . S
C430 C431 1.392 . S
C430 C434 1.493 1_554 S
C431 C430 1.392 . S
C431 C432 1.385 . S
C431 C433 1.478 . S
C432 H426 0.930 . S
C432 C428 1.400 . S
C432 C431 1.385 . S
C433 C431 1.478 . S
C433 C435 1.381 . S
C433 C439 1.383 1_554 S
C434 C430 1.493 1_556 S
C434 H440 0.960 . S
C434 H441 0.966 . S
C434 H442 0.956 1_556 S
C435 C433 1.381 . S
C435 C436 1.394 . S
C435 H443 0.930 . S
C436 C435 1.394 . S
C436 C437 1.383 . S
C436 H444 0.929 . S
C437 C436 1.383 . S
C437 C438 1.377 1_554 S
C438 H422 0.930 . S
C438 C437 1.377 1_556 S
C438 C439 1.379 . S
C439 H423 0.931 . S
C439 C433 1.383 1_556 S
C439 C438 1.379 . S
H440 C434 0.960 . S
H441 C434 0.966 . S
H442 C434 0.956 1_554 S
H443 C435 0.930 . S
H444 C436 0.929 . S
H445 C453 0.929 . S
H446 C455 0.930 . S
H447 C457 0.930 . S
H448 C460 0.929 . S
H449 C463 0.930 . S
H450 C465 0.960 . S
H451 C465 0.960 . S
H452 C465 0.960 . S
C453 H445 0.929 . S
C453 C454 1.377 1_556 S
C453 C455 1.384 . S
C454 C453 1.377 1_554 S
C454 C460 1.390 . S
C455 H446 0.930 . S
C455 C453 1.384 . S
C455 C456 1.372 1_556 S
C456 C455 1.372 1_554 S
C456 C457 1.400 . S
C456 C461 1.490 . S
C457 H447 0.930 . S
C457 C456 1.400 . S
C457 C460 1.386 . S
H458 C474 0.930 . S
H459 C475 0.931 . S
C460 H448 0.929 . S
C460 C454 1.390 . S
C460 C457 1.386 . S
C461 C456 1.490 . S
C461 C463 1.395 1_554 S
C461 C464 1.403 . S
H462 C468 0.930 . S
C463 H449 0.930 . S
C463 C461 1.395 1_556 S
C463 C466 1.403 . S
C464 C461 1.403 . S
C464 C465 1.524 . S
C464 C468 1.400 . S
C465 H450 0.960 . S
C465 H451 0.960 . S
C465 H452 0.960 . S
C465 C464 1.524 . S
C466 C463 1.403 . S
C466 C467 1.392 1_556 S
C466 C470 1.495 . S
C467 C466 1.392 1_554 S
C467 C468 1.385 . S
C467 C469 1.478 . S
C468 H462 0.930 . S
C468 C464 1.400 . S
C468 C467 1.385 . S
C469 C467 1.478 . S
C469 C471 1.381 1_554 S
C469 C475 1.383 . S
C470 C466 1.495 . S
C470 H476 0.959 . S
C470 H477 0.961 1_556 S
C470 H478 0.960 . S
C471 C469 1.381 1_556 S
C471 C472 1.394 . S
C471 H479 0.930 . S
C472 C471 1.394 . S
C472 C473 1.383 1_556 S
C472 H480 0.929 . S
C473 C472 1.383 1_554 S
C473 C474 1.377 . S
C474 H458 0.930 . S
C474 C473 1.377 . S
C474 C475 1.379 . S
C475 H459 0.931 . S
C475 C469 1.383 . S
C475 C474 1.379 . S
H476 C470 0.959 . S
H477 C470 0.961 1_554 S
H478 C470 0.960 . S
H479 C471 0.930 . S
H480 C472 0.929 . S
H481 C489 0.929 1_556 S
H482 C491 0.927 1_556 S
H483 C493 0.930 . S
H484 C496 0.929 . S
H485 C499 0.930 . S
H486 C501 0.960 . S
H487 C501 0.960 . S
H488 C501 0.960 . S
C489 H481 0.929 1_554 S
C489 C490 1.377 . S
C489 C491 1.384 . S
C490 C489 1.377 . S
C490 C496 1.390 . S
C491 H482 0.927 1_554 S
C491 C489 1.384 . S
C491 C492 1.372 . S
C492 C491 1.372 . S
C492 C493 1.400 . S
C492 C497 1.490 . S
C493 H483 0.930 . S
C493 C492 1.400 . S
C493 C496 1.386 . S
H494 C510 0.930 . S
H495 C511 0.931 . S
C496 H484 0.929 . S
C496 C490 1.390 . S
C496 C493 1.386 . S
C497 C492 1.490 . S
C497 C499 1.395 . S
C497 C500 1.403 1_554 S
H498 C504 0.930 . S
C499 H485 0.930 . S
C499 C497 1.395 . S
C499 C502 1.403 . S
C500 C497 1.403 1_556 S
C500 C501 1.524 . S
C500 C504 1.400 . S
C501 H486 0.960 . S
C501 H487 0.960 . S
C501 H488 0.960 . S
C501 C500 1.524 . S
C502 C499 1.403 . S
C502 C503 1.392 . S
C502 C506 1.495 . S
C503 C502 1.392 . S
C503 C504 1.385 1_554 S
C503 C505 1.478 . S
C504 H498 0.930 . S
C504 C500 1.400 . S
C504 C503 1.385 1_556 S
C505 C503 1.478 . S
C505 C507 1.381 . S
C505 C511 1.383 . S
C506 C502 1.495 . S
C506 H512 0.959 . S
C506 H513 0.961 . S
C506 H514 0.960 . S
C507 C505 1.381 . S
C507 C508 1.394 . S
C507 H515 0.930 . S
C508 C507 1.394 . S
C508 C509 1.383 . S
C508 H516 0.929 . S
C509 C508 1.383 . S
C509 C510 1.377 . S
C510 H494 0.930 . S
C510 C509 1.377 . S
C510 C511 1.379 . S
C511 H495 0.931 . S
C511 C505 1.383 . S
C511 C510 1.379 . S
H512 C506 0.959 . S
H513 C506 0.961 . S
H514 C506 0.960 . S
H515 C507 0.930 . S
H516 C508 0.929 . S
H517 C525 0.927 1_556 S
H518 C527 0.930 . S
H519 C529 0.930 . S
H520 C532 0.929 . S
H521 C535 0.930 . S
H522 C537 0.960 . S
H523 C537 0.960 . S
H524 C537 0.960 . S
C525 H517 0.927 1_554 S
C525 C526 1.379 . S
C525 C527 1.384 1_554 S
C526 C525 1.379 . S
C526 C532 1.390 . S
C527 H518 0.930 . S
C527 C525 1.384 1_556 S
C527 C528 1.372 1_556 S
C528 C527 1.372 1_554 S
C528 C529 1.400 . S
C528 C533 1.490 . S
C529 H519 0.930 . S
C529 C528 1.400 . S
C529 C532 1.386 . S
H530 C546 0.930 . S
H531 C547 0.931 . S
C532 H520 0.929 . S
C532 C526 1.390 . S
C532 C529 1.386 . S
C533 C528 1.490 . S
C533 C535 1.395 . S
C533 C536 1.403 . S
H534 C540 0.930 . S
C535 H521 0.930 . S
C535 C533 1.395 . S
C535 C538 1.403 . S
C536 C533 1.403 . S
C536 C537 1.524 . S
C536 C540 1.400 . S
C537 H522 0.960 . S
C537 H523 0.960 . S
C537 H524 0.960 . S
C537 C536 1.524 . S
C538 C535 1.403 . S
C538 C539 1.392 . S
C538 C542 1.495 . S
C539 C538 1.392 . S
C539 C540 1.385 . S
C539 C541 1.478 . S
C540 H534 0.930 . S
C540 C536 1.400 . S
C540 C539 1.385 . S
C541 C539 1.478 . S
C541 C543 1.381 1_554 S
C541 C547 1.383 . S
C542 C538 1.495 . S
C542 H548 0.959 . S
C542 H549 0.961 . S
C542 H550 0.960 . S
C543 C541 1.381 1_556 S
C543 C544 1.394 . S
C543 H551 0.930 . S
C544 C543 1.394 . S
C544 C545 1.383 1_556 S
C544 H552 0.929 . S
C545 C544 1.383 1_554 S
C545 C546 1.377 . S
C546 H530 0.930 . S
C546 C545 1.377 . S
C546 C547 1.379 . S
C547 H531 0.931 . S
C547 C541 1.383 . S
C547 C546 1.379 . S
H548 C542 0.959 . S
H549 C542 0.961 . S
H550 C542 0.960 . S
H551 C543 0.930 . S
H552 C544 0.929 . S
C149 C105 1.343 . S
C130 N2 1.328 . S
C185 C101 1.702 1_545 S
C166 C39 1.798 . S
C221 C111 1.517 . S
C202 C7 1.619 . S
C257 C95 1.490 1_565 S
C238 N35 1.544 . S
C274 N12 1.423 . S
C293 C87 1.398 . S
C329 C119 1.852 1_565 S
C310 C30 1.986 . S
C346 C16 1.729 . S
C365 C73 1.594 . S
C382 N25 1.713 . S
C401 C117 1.671 . S
C418 C62 1.272 . S
C437 C99 1.274 . S
C454 N48 1.034 . S
C473 C114 1.026 . S
C509 C108 1.011 . S
C490 N58 1.016 . S
C545 C103 1.262 . S
C526 C53 1.318 . S
