# Generated by pormake.
# Topology csq, (4,8)-cn, num edge types: 1
# Building blocks:
#     Node 0, Type 0, BuildingBlock: KOZSID_clean_sbu_0, # of connection points: 4
#     Node 1, Type 0, BuildingBlock: KOZSID_clean_sbu_0, # of connection points: 4
#     Node 2, Type 0, BuildingBlock: KOZSID_clean_sbu_0, # of connection points: 4
#     Node 3, Type 0, BuildingBlock: KOZSID_clean_sbu_0, # of connection points: 4
#     Node 4, Type 0, BuildingBlock: KOZSID_clean_sbu_0, # of connection points: 4
#     Node 5, Type 0, BuildingBlock: KOZSID_clean_sbu_0, # of connection points: 4
#     Node 6, Type 1, BuildingBlock: TAGTUT_clean_sbu_1, # of connection points: 8
#     Node 7, Type 1, BuildingBlock: TAGTUT_clean_sbu_1, # of connection points: 8
#     Node 8, Type 1, BuildingBlock: TAGTUT_clean_sbu_1, # of connection points: 8
#     Edge 9, Type (0, 1), BuildingBlock: KIFKEQ_clean_linker_1, # of connection points: 2
#     Edge 10, Type (0, 1), BuildingBlock: KIFKEQ_clean_linker_1, # of connection points: 2
#     Edge 11, Type (0, 1), BuildingBlock: KIFKEQ_clean_linker_1, # of connection points: 2
#     Edge 12, Type (0, 1), BuildingBlock: KIFKEQ_clean_linker_1, # of connection points: 2
#     Edge 13, Type (0, 1), BuildingBlock: KIFKEQ_clean_linker_1, # of connection points: 2
#     Edge 14, Type (0, 1), BuildingBlock: KIFKEQ_clean_linker_1, # of connection points: 2
#     Edge 15, Type (0, 1), BuildingBlock: KIFKEQ_clean_linker_1, # of connection points: 2
#     Edge 16, Type (0, 1), BuildingBlock: KIFKEQ_clean_linker_1, # of connection points: 2
#     Edge 17, Type (0, 1), BuildingBlock: KIFKEQ_clean_linker_1, # of connection points: 2
#     Edge 18, Type (0, 1), BuildingBlock: KIFKEQ_clean_linker_1, # of connection points: 2
#     Edge 19, Type (0, 1), BuildingBlock: KIFKEQ_clean_linker_1, # of connection points: 2
#     Edge 20, Type (0, 1), BuildingBlock: KIFKEQ_clean_linker_1, # of connection points: 2
#     Edge 21, Type (0, 1), BuildingBlock: KIFKEQ_clean_linker_1, # of connection points: 2
#     Edge 22, Type (0, 1), BuildingBlock: KIFKEQ_clean_linker_1, # of connection points: 2
#     Edge 23, Type (0, 1), BuildingBlock: KIFKEQ_clean_linker_1, # of connection points: 2
#     Edge 24, Type (0, 1), BuildingBlock: KIFKEQ_clean_linker_1, # of connection points: 2
#     Edge 25, Type (0, 1), BuildingBlock: KIFKEQ_clean_linker_1, # of connection points: 2
#     Edge 26, Type (0, 1), BuildingBlock: KIFKEQ_clean_linker_1, # of connection points: 2
#     Edge 27, Type (0, 1), BuildingBlock: KIFKEQ_clean_linker_1, # of connection points: 2
#     Edge 28, Type (0, 1), BuildingBlock: KIFKEQ_clean_linker_1, # of connection points: 2
#     Edge 29, Type (0, 1), BuildingBlock: KIFKEQ_clean_linker_1, # of connection points: 2
#     Edge 30, Type (0, 1), BuildingBlock: KIFKEQ_clean_linker_1, # of connection points: 2
#     Edge 31, Type (0, 1), BuildingBlock: KIFKEQ_clean_linker_1, # of connection points: 2
#     Edge 32, Type (0, 1), BuildingBlock: KIFKEQ_clean_linker_1, # of connection points: 2
# Relax obj value: 0.035
# Max RMSD: 0.132
# Mean RMSD: 0.041
data_MOF--net-csq--node1-KOZSID_clean_sbu_0--node2-TAGTUT_clean_sbu_1--edge1-KIFKEQ_clean_linker_1
_symmetry_space_group_name_H-M    P1
_symmetry_Int_Tables_number       1
_symmetry_cell_setting            triclinic
loop_
_symmetry_equiv_pos_as_xyz
'x, y, z'
_cell_length_a     57.529688
_cell_length_b     56.861392
_cell_length_c     21.078592
_cell_angle_alpha  87.998341
_cell_angle_beta   96.68664
_cell_angle_gamma 119.91304
loop_
_atom_site_label
_atom_site_type_symbol
_atom_site_fract_x
_atom_site_fract_y
_atom_site_fract_z
_atom_type_partial_charge
C0 C 0.29344 0.51333 0.30914 0.0
C1 C 0.31377 0.53745 0.33898 0.0
C2 C 0.31363 0.55802 0.30419 0.0
C3 C 0.29346 0.54543 0.25516 0.0
N4 N 0.28069 0.51801 0.25623 0.0
Co5 Co 0.24993 0.49188 0.19423 0.0
N6 N 0.25135 0.52226 0.14051 0.0
C7 C 0.26907 0.54909 0.15007 0.0
C8 C 0.26655 0.56495 0.10247 0.0
C9 C 0.24611 0.54719 0.05947 0.0
C10 C 0.23717 0.52144 0.08387 0.0
N11 N 0.21848 0.4658 0.13374 0.0
C12 C 0.20639 0.47044 0.07959 0.0
C13 C 0.18443 0.44656 0.05296 0.0
C14 C 0.18291 0.42608 0.09103 0.0
C15 C 0.20375 0.43856 0.13878 0.0
N16 N 0.24933 0.46144 0.24632 0.0
C17 C 0.2324 0.43454 0.23516 0.0
C18 C 0.23683 0.41849 0.27918 0.0
C19 C 0.25804 0.43617 0.32075 0.0
C20 C 0.26537 0.46208 0.29938 0.0
N21 N 0.22417 0.49381 0.24789 0.0
C22 C 0.18848 0.4969 0.32624 0.0
C23 C 0.18648 0.47206 0.31182 0.0
C24 C 0.20416 0.47096 0.27274 0.0
C25 C 0.20871 0.52014 0.30028 0.0
C26 C 0.22614 0.51819 0.26199 0.0
N27 N 0.27555 0.49003 0.14035 0.0
C28 C 0.28533 0.46553 0.06508 0.0
C29 C 0.3098 0.48873 0.05439 0.0
C30 C 0.31699 0.51233 0.08971 0.0
C31 C 0.2998 0.51257 0.13162 0.0
C32 C 0.26889 0.46654 0.10814 0.0
H33 H 0.30649 0.53137 0.15607 0.0
H34 H 0.25061 0.4481 0.11394 0.0
H35 H 0.20113 0.45129 0.2633 0.0
H36 H 0.24117 0.53678 0.24455 0.0
C37 C 0.28771 0.55877 0.20445 0.0
C38 C 0.28781 0.48656 0.33105 0.0
C39 C 0.21499 0.49694 0.05169 0.0
C40 C 0.21139 0.42507 0.1856 0.0
H41 H 0.32774 0.54013 0.38079 0.0
H42 H 0.32715 0.57959 0.3126 0.0
H43 H 0.2783 0.58679 0.09922 0.0
H44 H 0.23867 0.55257 0.01503 0.0
H45 H 0.171 0.44405 0.0101 0.0
H46 H 0.16868 0.4046 0.08395 0.0
H47 H 0.22569 0.39658 0.28136 0.0
H48 H 0.26702 0.43066 0.36237 0.0
H49 H 0.17099 0.45335 0.32969 0.0
H50 H 0.21144 0.53998 0.31021 0.0
H51 H 0.27836 0.44662 0.03937 0.0
H52 H 0.33594 0.53077 0.08552 0.0
C53 C 0.82802 0.2698 0.07655 0.0
C54 C 0.85008 0.26647 0.07164 0.0
C55 C 0.84551 0.24353 0.10352 0.0
C56 C 0.82105 0.2342 0.12593 0.0
N57 N 0.80939 0.24945 0.10921 0.0
Co58 Co 0.77476 0.24435 0.13584 0.0
N59 N 0.77013 0.21319 0.19133 0.0
C60 C 0.78621 0.20197 0.19773 0.0
C61 C 0.77884 0.18167 0.241 0.0
C62 C 0.75669 0.17966 0.26363 0.0
C63 C 0.75153 0.19876 0.23219 0.0
N64 N 0.74056 0.23978 0.16409 0.0
C65 C 0.72447 0.22267 0.20686 0.0
C66 C 0.70252 0.22623 0.21154 0.0
C67 C 0.7051 0.24658 0.17157 0.0
C68 C 0.72826 0.25421 0.14439 0.0
N69 N 0.77934 0.27538 0.07997 0.0
C70 C 0.76192 0.28485 0.06798 0.0
C71 C 0.77108 0.3071 0.03001 0.0
C72 C 0.79603 0.31243 0.01782 0.0
C73 C 0.80067 0.29304 0.04919 0.0
N74 N 0.75377 0.21851 0.0624 0.0
C75 C 0.72431 0.18264 0.9568 0.0
C76 C 0.71737 0.20136 0.97604 0.0
C77 C 0.73226 0.21895 0.02804 0.0
C78 C 0.74643 0.18233 0.99117 0.0
C79 C 0.76058 0.20011 0.04355 0.0
N80 N 0.79582 0.27027 0.20756 0.0
C81 C 0.81105 0.31386 0.2571 0.0
C82 C 0.83357 0.3136 0.28896 0.0
C83 C 0.83556 0.29024 0.28388 0.0
C84 C 0.81638 0.26879 0.24368 0.0
C85 C 0.79237 0.29196 0.21726 0.0
H86 H 0.81926 0.25178 0.24017 0.0
H87 H 0.77592 0.2935 0.19274 0.0
H88 H 0.72563 0.23245 0.03957 0.0
H89 H 0.77682 0.19835 0.068 0.0
C90 C 0.80945 0.21247 0.16673 0.0
C91 C 0.82616 0.29309 0.05132 0.0
C92 C 0.72889 0.20255 0.24342 0.0
C93 C 0.73882 0.27462 0.09961 0.0
H94 H 0.86792 0.27965 0.04872 0.0
H95 H 0.85888 0.23519 0.11138 0.0
H96 H 0.78887 0.17022 0.25579 0.0
H97 H 0.74591 0.16593 0.30003 0.0
H98 H 0.68619 0.2152 0.24059 0.0
H99 H 0.69163 0.25478 0.16317 0.0
H100 H 0.76135 0.31884 0.0155 0.0
H101 H 0.80965 0.3292 0.99071 0.0
H102 H 0.69998 0.20205 0.95237 0.0
H103 H 0.75279 0.16833 0.97815 0.0
H104 H 0.8082 0.33116 0.26151 0.0
H105 H 0.85254 0.28896 0.30816 0.0
C106 C 0.55903 0.7491 0.15594 0.0
C107 C 0.58373 0.75321 0.18511 0.0
C108 C 0.60317 0.77549 0.15821 0.0
C109 C 0.58933 0.7836 0.11406 0.0
N110 N 0.56218 0.76831 0.11217 0.0
Co111 Co 0.53465 0.77106 0.04907 0.0
N112 N 0.56328 0.80294 0.00683 0.0
C113 C 0.59023 0.81535 0.02426 0.0
C114 C 0.60476 0.83848 0.99162 0.0
C115 C 0.58595 0.84152 0.95209 0.0
C116 C 0.5609 0.81982 0.96251 0.0
N117 N 0.50723 0.7729 0.98404 0.0
C118 C 0.51019 0.79192 0.93995 0.0
C119 C 0.48569 0.78573 0.90539 0.0
C120 C 0.46648 0.76245 0.92985 0.0
C121 C 0.48028 0.75565 0.97748 0.0
N122 N 0.50595 0.7402 0.09333 0.0
C123 C 0.47896 0.72931 0.07926 0.0
C124 C 0.46424 0.70792 0.11673 0.0
C125 C 0.48292 0.7047 0.15643 0.0
C126 C 0.50807 0.72428 0.14057 0.0
N127 N 0.53303 0.7971 0.10526 0.0
C128 C 0.53417 0.8412 0.16319 0.0
C129 C 0.51012 0.82057 0.1321 0.0
C130 C 0.50989 0.7985 0.10453 0.0
C131 C 0.55704 0.83839 0.16913 0.0
C132 C 0.55599 0.81625 0.14034 0.0
N133 N 0.53651 0.74503 0.99317 0.0
C134 C 0.51681 0.69856 0.95687 0.0
C135 C 0.54225 0.70278 0.9479 0.0
C136 C 0.56424 0.72907 0.95515 0.0
C137 C 0.56086 0.74986 0.97701 0.0
C138 C 0.51434 0.72003 0.97826 0.0
H139 H 0.57851 0.76933 0.98322 0.0
H140 H 0.4945 0.71564 0.98498 0.0
H141 H 0.49102 0.78332 0.08112 0.0
H142 H 0.57433 0.81574 0.14503 0.0
C143 C 0.60116 0.8053 0.0732 0.0
C144 C 0.53323 0.72584 0.16885 0.0
C145 C 0.53537 0.81697 0.93212 0.0
C146 C 0.46826 0.73656 0.02407 0.0
H147 H 0.58736 0.74097 0.22096 0.0
H148 H 0.62482 0.78431 0.16848 0.0
H149 H 0.62638 0.85205 0.99749 0.0
H150 H 0.59023 0.85831 0.92069 0.0
H151 H 0.48198 0.79748 0.86827 0.0
H152 H 0.44485 0.75267 0.91721 0.0
H153 H 0.44251 0.69518 0.11312 0.0
H154 H 0.47855 0.68904 0.19135 0.0
H155 H 0.49173 0.82164 0.1283 0.0
H156 H 0.57608 0.85384 0.19343 0.0
H157 H 0.499 0.6787 0.94867 0.0
H158 H 0.58423 0.7334 0.94699 0.0
C159 C 0.8136 0.55774 0.20644 0.0
C160 C 0.83099 0.58372 0.23205 0.0
C161 C 0.82643 0.6011 0.19354 0.0
C162 C 0.80641 0.58487 0.14719 0.0
N163 N 0.79789 0.55811 0.15348 0.0
Co164 Co 0.76749 0.5274 0.09946 0.0
N165 N 0.76031 0.5531 0.04401 0.0
C166 C 0.7742 0.58053 0.04856 0.0
C167 C 0.76469 0.59275 0.00405 0.0
C168 C 0.7434 0.5719 0.96882 0.0
C169 C 0.7412 0.54805 0.99393 0.0
N170 N 0.73671 0.49665 0.04651 0.0
C171 C 0.71957 0.49693 0.9969 0.0
C172 C 0.7009 0.47088 0.97368 0.0
C173 C 0.70616 0.4535 0.01042 0.0
C174 C 0.7277 0.46984 0.05363 0.0
N175 N 0.77506 0.50173 0.15395 0.0
C176 C 0.7624 0.4744 0.14642 0.0
C177 C 0.77263 0.46223 0.18904 0.0
C178 C 0.793 0.48296 0.22642 0.0
C179 C 0.79382 0.50672 0.20484 0.0
N180 N 0.74192 0.52536 0.15854 0.0
C181 C 0.70593 0.5226 0.24359 0.0
C182 C 0.70726 0.49959 0.22795 0.0
C183 C 0.72504 0.50136 0.18547 0.0
C184 C 0.72302 0.547 0.21541 0.0
C185 C 0.74074 0.54794 0.17386 0.0
N186 N 0.79307 0.52943 0.04016 0.0
C187 C 0.80926 0.50737 0.9754 0.0
C188 C 0.82933 0.53234 0.95566 0.0
C189 C 0.83065 0.55582 0.97874 0.0
C190 C 0.81265 0.55393 0.02071 0.0
C191 C 0.79152 0.5064 0.01693 0.0
H192 H 0.81507 0.57262 0.03687 0.0
H193 H 0.77686 0.48671 0.02984 0.0
H194 H 0.72483 0.48302 0.17526 0.0
H195 H 0.75323 0.5672 0.15457 0.0
C196 C 0.79503 0.59416 0.09759 0.0
C197 C 0.81268 0.53343 0.23451 0.0
C198 C 0.71996 0.52116 0.97033 0.0
C199 C 0.74038 0.46065 0.10014 0.0
H200 H 0.84537 0.58958 0.27452 0.0
H201 H 0.83633 0.62297 0.1991 0.0
H202 H 0.77201 0.61424 0.99872 0.0
H203 H 0.73069 0.57406 0.92975 0.0
H204 H 0.6851 0.46504 0.93417 0.0
H205 H 0.69564 0.43158 0.00595 0.0
H206 H 0.76597 0.4408 0.19272 0.0
H207 H 0.80573 0.4807 0.26524 0.0
H208 H 0.69485 0.48021 0.24877 0.0
H209 H 0.72257 0.56539 0.22444 0.0
H210 H 0.80752 0.48851 0.96022 0.0
H211 H 0.8455 0.57573 0.96455 0.0
C212 C 0.28213 0.82542 0.1844 0.0
C213 C 0.28056 0.84885 0.18949 0.0
C214 C 0.25828 0.84498 0.15012 0.0
C215 C 0.2476 0.81957 0.12312 0.0
N216 N 0.26168 0.80693 0.14295 0.0
Co217 Co 0.25362 0.77015 0.1136 0.0
N218 N 0.21871 0.7628 0.06331 0.0
C219 C 0.20816 0.77947 0.05878 0.0
C220 C 0.18323 0.76847 0.02404 0.0
C221 C 0.1772 0.74299 0.00647 0.0
C222 C 0.19888 0.73988 0.03174 0.0
N223 N 0.24639 0.73404 0.08141 0.0
C224 C 0.22446 0.71416 0.04604 0.0
C225 C 0.22768 0.69197 0.03604 0.0
C226 C 0.25248 0.69812 0.06568 0.0
C227 C 0.26295 0.7235 0.09243 0.0
N228 N 0.28747 0.77658 0.16776 0.0
C229 C 0.29754 0.75953 0.17411 0.0
C230 C 0.32026 0.76863 0.21704 0.0
C231 C 0.32488 0.79289 0.2401 0.0
C232 C 0.30469 0.79724 0.20947 0.0
N233 N 0.23304 0.75293 0.18661 0.0
C234 C 0.19333 0.72128 0.26635 0.0
C235 C 0.21096 0.71298 0.24898 0.0
C236 C 0.23094 0.72932 0.21039 0.0
C237 C 0.19804 0.7471 0.24889 0.0
C238 C 0.21779 0.76244 0.20911 0.0
N239 N 0.27389 0.78731 0.03905 0.0
C240 C 0.31094 0.79841 0.97751 0.0
C241 C 0.30218 0.81191 0.93285 0.0
C242 C 0.27879 0.81242 0.94176 0.0
C243 C 0.26525 0.80033 0.99468 0.0
C244 C 0.29658 0.78628 0.0297 0.0
H245 H 0.2479 0.80201 0.99832 0.0
H246 H 0.30442 0.77642 0.06194 0.0
H247 H 0.24361 0.72187 0.19773 0.0
H248 H 0.21946 0.78136 0.19489 0.0
C249 C 0.22268 0.80571 0.08574 0.0
C250 C 0.30311 0.82155 0.22078 0.0
C251 C 0.19968 0.7148 0.02435 0.0
C252 C 0.28588 0.73576 0.13682 0.0
H253 H 0.29388 0.86668 0.21948 0.0
H254 H 0.25029 0.85868 0.14366 0.0
H255 H 0.17091 0.77784 0.01285 0.0
H256 H 0.15887 0.72835 0.97829 0.0
H257 H 0.21328 0.67283 0.01204 0.0
H258 H 0.26115 0.68498 0.07037 0.0
H259 H 0.33214 0.75888 0.22973 0.0
H260 H 0.34134 0.806 0.27523 0.0
H261 H 0.20858 0.69338 0.26197 0.0
H262 H 0.18589 0.75511 0.26372 0.0
H263 H 0.32917 0.7977 0.97323 0.0
H264 H 0.27084 0.8222 0.90805 0.0
C265 C 0.50808 0.22273 0.28315 0.0
C266 C 0.53422 0.23059 0.30981 0.0
C267 C 0.55105 0.25216 0.27608 0.0
C268 C 0.53436 0.25618 0.23075 0.0
N269 N 0.50782 0.2389 0.23463 0.0
Co270 Co 0.47659 0.23597 0.17516 0.0
N271 N 0.50139 0.26347 0.11746 0.0
C272 C 0.5286 0.27546 0.12269 0.0
C273 C 0.54001 0.29439 0.07711 0.0
C274 C 0.51886 0.29495 0.04167 0.0
C275 C 0.49577 0.27633 0.06803 0.0
N276 N 0.44535 0.23375 0.11689 0.0
C277 C 0.44532 0.25013 0.06868 0.0
C278 C 0.41932 0.2436 0.04403 0.0
C279 C 0.40225 0.2227 0.07901 0.0
C280 C 0.41877 0.2178 0.12294 0.0
N281 N 0.45177 0.20776 0.23169 0.0
C282 C 0.42447 0.19461 0.2246 0.0
C283 C 0.4131 0.17486 0.26848 0.0
C284 C 0.4344 0.17477 0.30436 0.0
C285 C 0.45754 0.19451 0.27998 0.0
N286 N 0.47713 0.26548 0.22461 0.0
C287 C 0.47604 0.30925 0.28105 0.0
C288 C 0.45308 0.28349 0.27378 0.0
C289 C 0.45407 0.26214 0.24583 0.0
C290 C 0.49987 0.31241 0.26174 0.0
C291 C 0.50001 0.29042 0.23433 0.0
N292 N 0.47595 0.20646 0.12558 0.0
C293 C 0.45085 0.16252 0.07121 0.0
C294 C 0.47464 0.16243 0.06414 0.0
C295 C 0.49914 0.18494 0.08741 0.0
C296 C 0.49935 0.20669 0.11711 0.0
C297 C 0.45195 0.18447 0.10197 0.0
H298 H 0.51869 0.22335 0.13333 0.0
H299 H 0.43306 0.18296 0.10683 0.0
H300 H 0.43573 0.24324 0.24107 0.0
H301 H 0.51876 0.29425 0.22018 0.0
C302 C 0.54291 0.27206 0.17704 0.0
C303 C 0.48425 0.19811 0.29993 0.0
C304 C 0.4694 0.27356 0.04912 0.0
C305 C 0.41013 0.19998 0.1735 0.0
H306 H 0.54071 0.22096 0.34723 0.0
H307 H 0.57288 0.26229 0.28083 0.0
H308 H 0.56128 0.30753 0.0729 0.0
H309 H 0.52032 0.3085 0.00301 0.0
H310 H 0.41334 0.25362 0.00646 0.0
H311 H 0.38047 0.21312 0.07491 0.0
H312 H 0.39186 0.16131 0.27205 0.0
H313 H 0.43309 0.16096 0.34227 0.0
H314 H 0.43428 0.27966 0.28965 0.0
H315 H 0.51827 0.33191 0.26626 0.0
H316 H 0.43136 0.14545 0.05412 0.0
H317 H 0.51812 0.18595 0.08205 0.0
C318 C 0.98374 0.43798 0.84088 0.0
C319 C 0.06417 0.48579 0.76806 0.0
C320 C 0.04403 0.56752 0.75487 0.0
Mg321 Mg 0.00581 0.4535 0.70875 0.0
O322 O 1.00103 0.48307 0.72444 0.0
Mg323 Mg 0.02033 0.50507 0.8049 0.0
Mg324 Mg 0.01154 0.51279 0.66238 0.0
O325 O 0.02137 0.54239 0.60017 0.0
Mg326 Mg 0.01531 0.5711 0.61696 0.0
Mg327 Mg 1.00181 0.51987 0.51999 0.0
C328 C 0.97989 0.4586 0.57018 0.0
C329 C 0.05213 0.50983 0.56684 0.0
O330 O 0.99606 0.46342 0.85715 0.0
O331 O 0.98491 0.42978 0.78607 0.0
O332 O 0.05643 0.499 0.79922 0.0
O333 O 0.04815 0.46716 0.7271 0.0
O334 O 0.98684 0.44508 0.61045 0.0
O335 O 0.98386 0.48226 0.58359 0.0
C336 C 0.97215 0.51758 0.75718 0.0
O337 O 0.97717 0.51836 0.69887 0.0
O338 O 0.98552 0.51253 0.80299 0.0
O339 O 0.024 0.56051 0.46823 0.0
O340 O 0.03539 0.59465 0.53836 0.0
O341 O 0.96501 0.52561 0.52225 0.0
C342 C 0.03582 0.58593 0.48344 0.0
O343 O 0.97277 0.55751 0.59364 0.0
O344 O 0.03591 0.58045 0.71534 0.0
C345 C 0.95716 0.5394 0.55092 0.0
O346 O 0.03951 0.54352 0.74182 0.0
O347 O 0.0464 0.50768 0.62496 0.0
O348 O 0.03836 0.51444 0.52121 0.0
C349 C 0.47241 0.01904 0.79729 0.0
C350 C 0.43671 0.94597 0.67708 0.0
C351 C 0.53735 0.96862 0.65847 0.0
Mg352 Mg 0.46087 0.00633 0.65069 0.0
O353 O 0.4961 0.01186 0.66766 0.0
Mg354 Mg 0.50237 0.98845 0.73248 0.0
Mg355 Mg 0.512 0.00612 0.59541 0.0
O356 O 0.52815 0.0011 0.52258 0.0
Mg357 Mg 0.56322 0.00632 0.53857 0.0
Mg358 Mg 0.52216 0.02558 0.4595 0.0
C359 C 0.48701 0.04345 0.53278 0.0
C360 C 0.46335 0.97343 0.48035 0.0
O361 O 0.48766 0.00825 0.80344 0.0
O362 O 0.46023 0.02021 0.74336 0.0
O363 O 0.45919 0.95273 0.71073 0.0
O364 O 0.433 0.96323 0.64367 0.0
O365 O 0.46753 0.03267 0.56796 0.0
O366 O 0.50679 0.03874 0.54029 0.0
C367 C 0.56078 0.03922 0.70856 0.0
O368 O 0.55326 0.03723 0.64829 0.0
O369 O 0.54495 0.0235 0.74813 0.0
O370 O 0.53647 0.00736 0.38676 0.0
O371 O 0.56258 0.99308 0.4443 0.0
O372 O 0.5662 0.06124 0.47793 0.0
C373 C 0.55115 0.99607 0.39107 0.0
O374 O 0.59262 0.04931 0.53983 0.0
O375 O 0.55627 0.97926 0.62143 0.0
C376 C 0.5893 0.06694 0.50679 0.0
O377 O 0.51782 0.97385 0.6527 0.0
O378 O 0.47048 0.97443 0.5408 0.0
O379 O 0.47934 0.99037 0.44268 0.0
C380 C 0.53425 0.57758 0.45193 0.0
C381 C 0.57027 0.52659 0.50322 0.0
C382 C 0.46982 0.44875 0.54233 0.0
Mg383 Mg 0.55458 0.56057 0.58063 0.0
O384 O 0.51843 0.5327 0.57125 0.0
Mg385 Mg 0.50431 0.51062 0.48951 0.0
Mg386 Mg 0.50427 0.50317 0.63486 0.0
O387 O 0.48883 0.47361 0.69751 0.0
Mg388 Mg 0.45164 0.44806 0.68279 0.0
Mg389 Mg 0.50138 0.49597 0.77856 0.0
C390 C 0.53963 0.55686 0.72568 0.0
C391 C 0.55365 0.50066 0.72028 0.0
O392 O 0.51788 0.55225 0.43743 0.0
O393 O 0.54973 0.58534 0.50506 0.0
O394 O 0.5456 0.51422 0.47852 0.0
O395 O 0.57842 0.54428 0.54849 0.0
O396 O 0.55562 0.56915 0.68262 0.0
O397 O 0.51765 0.53408 0.71447 0.0
C398 C 0.45283 0.50319 0.55509 0.0
O399 O 0.46378 0.50136 0.60991 0.0
O400 O 0.46411 0.50678 0.50407 0.0
O401 O 0.48487 0.4543 0.82964 0.0
O402 O 0.45321 0.42255 0.75873 0.0
O403 O 0.46048 0.49439 0.78633 0.0
C404 C 0.46759 0.42941 0.81327 0.0
O405 O 0.42778 0.46472 0.71553 0.0
O406 O 0.45249 0.43715 0.58307 0.0
C407 C 0.43583 0.48224 0.76136 0.0
O408 O 0.49091 0.47228 0.55379 0.0
O409 O 0.54521 0.50438 0.66368 0.0
O410 O 0.54047 0.49698 0.76804 0.0
H411 H 0.16462 0.52853 0.30971 0.0
H412 H 0.16893 0.46897 0.43544 0.0
H413 H 0.13403 0.53158 0.37482 0.0
H414 H 0.13863 0.47244 0.50206 0.0
H415 H 0.06044 0.46612 0.56712 0.0
H416 H 0.09405 0.46265 0.5123 0.0
H417 H 0.13053 0.54793 0.47025 0.0
H418 H 0.0963 0.55072 0.52216 0.0
C419 C 0.15936 0.51632 0.35186 0.0
C420 C 0.16953 0.49861 0.36712 0.0
C421 C 0.14176 0.51814 0.38973 0.0
C422 C 0.13383 0.50253 0.44486 0.0
C423 C 0.14389 0.48466 0.45996 0.0
C424 C 0.16138 0.48268 0.42162 0.0
C425 C 0.07616 0.48421 0.54763 0.0
C426 C 0.07596 0.50878 0.5497 0.0
C427 C 0.09543 0.48226 0.51577 0.0
C428 C 0.11499 0.50489 0.48527 0.0
C429 C 0.11551 0.52979 0.4911 0.0
C430 C 0.09615 0.53158 0.52204 0.0
H431 H 0.6966 0.14739 0.23677 0.0
H432 H 0.71721 0.21766 0.35244 0.0
H433 H 0.66595 0.11794 0.31288 0.0
H434 H 0.68538 0.18816 0.42719 0.0
H435 H 0.5921 0.11417 0.46247 0.0
H436 H 0.62789 0.14958 0.40534 0.0
H437 H 0.67562 0.11061 0.44618 0.0
H438 H 0.64043 0.07571 0.50495 0.0
C439 C 0.69453 0.1565 0.2785 0.0
C440 C 0.70947 0.18477 0.28904 0.0
C441 C 0.67705 0.13969 0.322 0.0
C442 C 0.6735 0.1508 0.3761 0.0
C443 C 0.68786 0.17911 0.38597 0.0
C444 C 0.70595 0.19592 0.34324 0.0
C445 C 0.61064 0.11368 0.46129 0.0
C446 C 0.61334 0.09205 0.48842 0.0
C447 C 0.63106 0.13391 0.42837 0.0
C448 C 0.65432 0.13259 0.4208 0.0
C449 C 0.6578 0.11199 0.45114 0.0
C450 C 0.63771 0.09215 0.48533 0.0
H451 H 0.54275 0.72587 0.29867 0.0
H452 H 0.52233 0.67575 0.12999 0.0
H453 H 0.54266 0.68972 0.36536 0.0
H454 H 0.52284 0.63958 0.196 0.0
H455 H 0.56853 0.63261 0.46169 0.0
H456 H 0.56808 0.66755 0.39266 0.0
H457 H 0.49979 0.60606 0.27269 0.0
H458 H 0.50066 0.5709 0.34116 0.0
C459 C 0.53831 0.70704 0.27606 0.0
C460 C 0.53262 0.70352 0.20945 0.0
C461 C 0.53844 0.68636 0.31405 0.0
C462 C 0.53293 0.66163 0.2863 0.0
C463 C 0.5269 0.65812 0.21934 0.0
C464 C 0.52673 0.67884 0.1814 0.0
C465 C 0.55344 0.62641 0.42048 0.0
C466 C 0.53459 0.59877 0.40736 0.0
C467 C 0.55305 0.64658 0.38098 0.0
C468 C 0.53374 0.63982 0.32713 0.0
C469 C 0.51515 0.61214 0.31329 0.0
C470 C 0.51558 0.5919 0.3528 0.0
H471 H 0.8012 0.51248 0.35306 0.0
H472 H 0.86755 0.55945 0.24244 0.0
H473 H 0.83311 0.51345 0.44306 0.0
H474 H 0.89941 0.56151 0.33323 0.0
H475 H 0.94476 0.57991 0.54173 0.0
H476 H 0.90726 0.57949 0.47239 0.0
H477 H 0.8738 0.49425 0.43042 0.0
H478 H 0.9117 0.4947 0.49799 0.0
C479 C 0.82262 0.52333 0.34854 0.0
C480 C 0.83202 0.53589 0.29104 0.0
C481 C 0.84076 0.52393 0.39982 0.0
C482 C 0.86857 0.53776 0.39486 0.0
C483 C 0.87802 0.55101 0.33818 0.0
C484 C 0.85988 0.54983 0.28645 0.0
C485 C 0.92893 0.56087 0.51954 0.0
C486 C 0.93117 0.53734 0.52511 0.0
C487 C 0.90762 0.56071 0.47963 0.0
C488 C 0.88786 0.53686 0.44627 0.0
C489 C 0.8888 0.51281 0.45607 0.0
C490 C 0.91042 0.51309 0.49471 0.0
H491 H 0.30486 0.83093 0.34814 0.0
H492 H 0.35067 0.8619 0.18749 0.0
H493 H 0.34162 0.8679 0.41695 0.0
H494 H 0.38751 0.89843 0.25542 0.0
H495 H 0.43665 0.97561 0.36772 0.0
H496 H 0.39655 0.93921 0.30946 0.0
H497 H 0.38902 0.88557 0.46575 0.0
H498 H 0.42939 0.92267 0.52542 0.0
C499 C 0.32286 0.84574 0.32783 0.0
C500 C 0.32507 0.84392 0.26277 0.0
C501 C 0.34392 0.86675 0.36709 0.0
C502 C 0.36746 0.88632 0.3417 0.0
C503 C 0.36951 0.8841 0.27643 0.0
C504 C 0.34854 0.86316 0.23747 0.0
C505 C 0.42639 0.95615 0.39018 0.0
C506 C 0.43654 0.95194 0.45085 0.0
C507 C 0.40341 0.93518 0.35646 0.0
C508 C 0.38991 0.90922 0.38205 0.0
C509 C 0.39901 0.90531 0.44449 0.0
C510 C 0.42212 0.92654 0.47871 0.0
H511 H 0.51487 0.35017 0.36233 0.0
H512 H 0.43491 0.32101 0.26309 0.0
H513 H 0.51224 0.38667 0.41197 0.0
H514 H 0.43214 0.3573 0.31396 0.0
H515 H 0.42753 0.39953 0.49731 0.0
H516 H 0.42887 0.36797 0.42457 0.0
H517 H 0.50964 0.42858 0.38995 0.0
H518 H 0.50848 0.46011 0.46307 0.0
C519 C 0.49689 0.35173 0.35028 0.0
C520 C 0.47503 0.33243 0.309 0.0
C521 C 0.49539 0.37272 0.37875 0.0
C522 C 0.47196 0.37489 0.36693 0.0
C523 C 0.45034 0.356 0.32458 0.0
C524 C 0.4519 0.33511 0.29574 0.0
C525 C 0.44535 0.4064 0.47305 0.0
C526 C 0.46801 0.4323 0.4868 0.0
C527 C 0.44609 0.38829 0.43119 0.0
C528 C 0.46955 0.39561 0.40234 0.0
C529 C 0.49146 0.42217 0.41237 0.0
C530 C 0.49065 0.44036 0.45386 0.0
H531 H 0.51603 0.84998 0.96149 0.0
H532 H 0.55336 0.83403 0.81573 0.0
H533 H 0.5164 0.88758 0.89968 0.0
H534 H 0.55362 0.87126 0.75343 0.0
H535 H 0.57734 0.95611 0.68975 0.0
H536 H 0.57638 0.92021 0.75723 0.0
H537 H 0.49677 0.89859 0.80126 0.0
H538 H 0.49784 0.93499 0.7339 0.0
C539 C 0.52421 0.85454 0.91601 0.0
C540 C 0.53495 0.83939 0.89356 0.0
C541 C 0.52434 0.87597 0.88046 0.0
C542 C 0.53529 0.88275 0.82168 0.0
C543 C 0.54555 0.86709 0.79899 0.0
C544 C 0.54531 0.84566 0.83439 0.0
C545 C 0.55964 0.94392 0.71411 0.0
C546 C 0.5376 0.94852 0.70582 0.0
C547 C 0.55902 0.92309 0.75257 0.0
C548 C 0.53634 0.90609 0.78412 0.0
C549 C 0.51464 0.91128 0.77794 0.0
C550 C 0.51525 0.9322 0.73921 0.0
H551 H 0.66895 0.50282 0.9964 0.0
H552 H 0.71909 0.53261 0.84289 0.0
H553 H 0.62996 0.49615 0.92295 0.0
H554 H 0.67985 0.52596 0.76832 0.0
H555 H 0.60439 0.53975 0.69595 0.0
H556 H 0.64682 0.54429 0.74974 0.0
H557 H 0.60194 0.46538 0.83085 0.0
H558 H 0.56 0.46129 0.77873 0.0
C559 C 0.67148 0.5079 0.9467 0.0
C560 C 0.69679 0.51815 0.92498 0.0
C561 C 0.64922 0.50394 0.90452 0.0
C562 C 0.65177 0.51018 0.83958 0.0
C563 C 0.6773 0.52096 0.81802 0.0
C564 C 0.69964 0.52474 0.86042 0.0
C565 C 0.60388 0.52305 0.72336 0.0
C566 C 0.57909 0.50023 0.73362 0.0
C567 C 0.62807 0.52567 0.75439 0.0
C568 C 0.62757 0.50546 0.79578 0.0
C569 C 0.6029 0.48157 0.80057 0.0
C570 C 0.57893 0.47908 0.77021 0.0
H571 H 0.14993 0.68485 0.06559 0.0
H572 H 0.19529 0.69018 0.91132 0.0
H573 H 0.10997 0.64522 0.01178 0.0
H574 H 0.15585 0.65007 0.85887 0.0
H575 H 0.0874 0.56406 0.81062 0.0
H576 H 0.12473 0.59761 0.88427 0.0
H577 H 0.08077 0.63999 0.89909 0.0
H578 H 0.04377 0.60689 0.82436 0.0
C579 C 0.15134 0.67732 0.02049 0.0
C580 C 0.17564 0.69034 0.99265 0.0
C581 C 0.12861 0.6547 0.98994 0.0
C582 C 0.12998 0.6444 0.9317 0.0
C583 C 0.1544 0.65729 0.90432 0.0
C584 C 0.17689 0.68024 0.93409 0.0
C585 C 0.08535 0.58003 0.83121 0.0
C586 C 0.06274 0.58293 0.8116 0.0
C587 C 0.1068 0.59935 0.87283 0.0
C588 C 0.10569 0.6215 0.89677 0.0
C589 C 0.08211 0.62309 0.88143 0.0
C590 C 0.06095 0.60415 0.83872 0.0
H591 H 0.50222 0.13564 0.10266 0.0
H592 H 0.44516 0.13682 0.95223 0.0
H593 H 0.50015 0.09702 0.04918 0.0
H594 H 0.44368 0.09911 0.89771 0.0
H595 H 0.42861 0.02067 0.82687 0.0
H596 H 0.4281 0.05258 0.89992 0.0
H597 H 0.51321 0.0845 0.95935 0.0
H598 H 0.51314 0.05137 0.88842 0.0
C599 C 0.48938 0.12773 0.05791 0.0
C600 C 0.47376 0.13916 0.03171 0.0
C601 C 0.48819 0.10561 0.0272 0.0
C602 C 0.47154 0.09462 0.96925 0.0
C603 C 0.45614 0.10636 0.94309 0.0
C604 C 0.4571 0.12818 0.9741 0.0
C605 C 0.447 0.03401 0.85699 0.0
C606 C 0.47092 0.03362 0.85192 0.0
C607 C 0.44685 0.05259 0.89827 0.0
C608 C 0.4708 0.07176 0.93439 0.0
C609 C 0.49434 0.07007 0.93255 0.0
C610 C 0.49434 0.05103 0.89199 0.0
H611 H 0.31628 0.44602 0.01824 0.0
H612 H 0.34394 0.53067 0.98127 0.0
H613 H 0.34459 0.44563 0.94139 0.0
H614 H 0.37305 0.53033 0.90655 0.0
H615 H 0.44537 0.52385 0.84185 0.0
H616 H 0.41432 0.52583 0.90843 0.0
H617 H 0.3499 0.44984 0.82386 0.0
H618 H 0.38093 0.44794 0.75667 0.0
C619 C 0.3281 0.46454 0.99364 0.0
C620 C 0.32751 0.4884 0.00697 0.0
C621 C 0.3445 0.46429 0.9494 0.0
C622 C 0.3612 0.48794 0.91746 0.0
C623 C 0.36072 0.51178 0.93062 0.0
C624 C 0.34404 0.51196 0.97414 0.0
C625 C 0.42446 0.50779 0.83641 0.0
C626 C 0.41577 0.48575 0.79349 0.0
C627 C 0.4066 0.50893 0.87476 0.0
C628 C 0.37957 0.48786 0.87223 0.0
C629 C 0.37063 0.46627 0.82779 0.0
C630 C 0.3884 0.46534 0.78863 0.0
H631 H 0.87034 0.33575 0.11525 0.0
H632 H 0.83501 0.3008 0.92649 0.0
H633 H 0.91067 0.37138 0.07084 0.0
H634 H 0.87496 0.33627 0.88162 0.0
H635 H 0.96377 0.44596 0.9461 0.0
H636 H 0.92623 0.41158 1.00038 0.0
H637 H 0.92241 0.34881 0.88285 0.0
H638 H 0.95952 0.38283 0.8287 0.0
C639 C 0.87121 0.33596 0.06414 0.0
C640 C 0.84971 0.31578 0.024 0.0
C641 C 0.89419 0.3563 0.0387 0.0
C642 C 0.89619 0.35659 0.97271 0.0
C643 C 0.87433 0.33644 0.93275 0.0
C644 C 0.85136 0.31627 0.95815 0.0
C645 C 0.95529 0.42478 0.93275 0.0
C646 C 0.96461 0.41729 0.88248 0.0
C647 C 0.9337 0.40506 0.96378 0.0
C648 C 0.92092 0.37746 0.94507 0.0
C649 C 0.93129 0.36992 0.89739 0.0
C650 C 0.9528 0.3895 0.86665 0.0
H651 H 0.82166 0.4975 0.85705 0.0
H652 H 0.88305 0.57064 0.96019 0.0
H653 H 0.85603 0.49717 0.79964 0.0
H654 H 0.9168 0.57106 0.90041 0.0
H655 H 0.97127 0.53639 0.87195 0.0
H656 H 0.93663 0.54251 0.90949 0.0
H657 H 0.89092 0.51925 0.72262 0.0
H658 H 0.92622 0.51258 0.68438 0.0
C659 C 0.84236 0.51368 0.86709 0.0
C660 C 0.8495 0.53385 0.91433 0.0
C661 C 0.86201 0.5137 0.83331 0.0
C662 C 0.88926 0.5339 0.84585 0.0
C663 C 0.89607 0.55492 0.89021 0.0
C664 C 0.87656 0.55482 0.92416 0.0
C665 C 0.95397 0.53265 0.8383 0.0
C666 C 0.95144 0.52366 0.77521 0.0
C667 C 0.93413 0.53649 0.85986 0.0
C668 C 0.91096 0.53152 0.81917 0.0
C669 C 0.9085 0.52313 0.7553 0.0
C670 C 0.92874 0.51946 0.73327 0.0
H671 H 0.32887 0.79651 0.85845 0.0
H672 H 0.31141 0.86084 0.88624 0.0
H673 H 0.35733 0.82273 0.77577 0.0
H674 H 0.33924 0.88655 0.8038 0.0
H675 H 0.38285 0.9281 0.64438 0.0
H676 H 0.34572 0.88965 0.69022 0.0
H677 H 0.40113 0.86475 0.78005 0.0
H678 H 0.43801 0.90265 0.7334 0.0
C679 C 0.33093 0.8161 0.84669 0.0
C680 C 0.3179 0.82658 0.8792 0.0
C681 C 0.34705 0.831 0.79905 0.0
C682 C 0.35037 0.85662 0.78281 0.0
C683 C 0.33661 0.86661 0.81388 0.0
C684 C 0.32067 0.85185 0.86151 0.0
C685 C 0.38695 0.91388 0.67199 0.0
C686 C 0.4135 0.91887 0.68678 0.0
C687 C 0.3657 0.89196 0.69864 0.0
C688 C 0.37064 0.87463 0.74019 0.0
C689 C 0.39661 0.87775 0.74849 0.0
C690 C 0.41784 0.89964 0.72198 0.0
H691 H 0.45406 0.27709 0.92394 0.0
H692 H 0.48121 0.3211 0.1045 0.0
H693 H 0.45232 0.31539 0.87174 0.0
H694 H 0.47905 0.35944 0.05308 0.0
H695 H 0.50272 0.43247 0.91691 0.0
H696 H 0.50207 0.39472 0.9772 0.0
H697 H 0.42685 0.33889 0.86706 0.0
H698 H 0.42775 0.37635 0.80612 0.0
C699 C 0.45939 0.29498 0.95227 0.0
C700 C 0.4676 0.29636 0.01783 0.0
C701 C 0.45828 0.31682 0.92275 0.0
C702 C 0.46538 0.34042 0.95838 0.0
C703 C 0.47366 0.34167 0.02424 0.0
C704 C 0.47477 0.31979 0.0537 0.0
C705 C 0.48585 0.41219 0.90625 0.0
C706 C 0.46546 0.4074 0.85622 0.0
C707 C 0.48546 0.39055 0.94085 0.0
C708 C 0.4646 0.36374 0.92626 0.0
C709 C 0.44354 0.35921 0.87846 0.0
C710 C 0.44398 0.38074 0.84379 0.0
H711 H 0.20845 0.48002 0.92789 0.0
H712 H 0.18329 0.51915 0.05371 0.0
H713 H 0.17701 0.4812 0.83965 0.0
H714 H 0.15232 0.52063 0.9667 0.0
H715 H 0.08298 0.45023 0.76633 0.0
H716 H 0.1257 0.45701 0.82201 0.0
H717 H 0.15074 0.54094 0.86102 0.0
H718 H 0.10794 0.53398 0.80698 0.0
C719 C 0.19643 0.4892 0.93602 0.0
C720 C 0.198 0.4995 0.99686 0.0
C721 C 0.17859 0.4899 0.88594 0.0
C722 C 0.16252 0.50127 0.89625 0.0
C723 C 0.1649 0.5123 0.95692 0.0
C724 C 0.18241 0.51131 0.00682 0.0
C725 C 0.09803 0.47031 0.78498 0.0
C726 C 0.09201 0.4914 0.7842 0.0
C727 C 0.12249 0.47423 0.81658 0.0
C728 C 0.14114 0.49933 0.84703 0.0
C729 C 0.13639 0.52124 0.83914 0.0
C730 C 0.11193 0.51725 0.80832 0.0
H731 H 0.71116 0.12931 0.94988 0.0
H732 H 0.69821 0.18953 0.84611 0.0
H733 H 0.67658 0.09418 0.87643 0.0
H734 H 0.66214 0.15394 0.77544 0.0
H735 H 0.59926 0.0827 0.64805 0.0
H736 H 0.64433 0.11705 0.69539 0.0
H737 H 0.62906 0.07596 0.87511 0.0
H738 H 0.5851 0.0418 0.82817 0.0
C739 C 0.7014 0.13523 0.91069 0.0
C740 C 0.70706 0.16223 0.90502 0.0
C741 C 0.68131 0.11498 0.86893 0.0
C742 C 0.66609 0.12117 0.82127 0.0
C743 C 0.67339 0.14845 0.81182 0.0
C744 C 0.69379 0.16881 0.85308 0.0
C745 C 0.6058 0.08089 0.69734 0.0
C746 C 0.58852 0.05963 0.7344 0.0
C747 C 0.63153 0.10057 0.72447 0.0
C748 C 0.64038 0.09913 0.78889 0.0
C749 C 0.62324 0.07743 0.82503 0.0
C750 C 0.59774 0.05797 0.79819 0.0
H751 H 0.57181 0.70098 0.85838 0.0
H752 H 0.52122 0.65315 0.00234 0.0
H753 H 0.57608 0.66264 0.82823 0.0
H754 H 0.52568 0.61452 0.97254 0.0
H755 H 0.50289 0.55014 0.80543 0.0
H756 H 0.50782 0.58451 0.87924 0.0
H757 H 0.5928 0.63185 0.85696 0.0
H758 H 0.58761 0.59777 0.78102 0.0
C759 C 0.56203 0.68237 0.88437 0.0
C760 C 0.5459 0.67986 0.93197 0.0
C761 C 0.56467 0.66044 0.86762 0.0
C762 C 0.55134 0.63554 0.89835 0.0
C763 C 0.53603 0.63337 0.94778 0.0
C764 C 0.53331 0.65536 0.96441 0.0
C765 C 0.52285 0.56736 0.81808 0.0
C766 C 0.54469 0.57182 0.78589 0.0
C767 C 0.52571 0.58709 0.86067 0.0
C768 C 0.55053 0.61132 0.87212 0.0
C769 C 0.57323 0.61375 0.84728 0.0
C770 C 0.5703 0.59421 0.80407 0.0
H771 H 0.50692 0.19537 0.41936 0.0
H772 H 0.46571 0.14866 0.2446 0.0
H773 H 0.50955 0.1565 0.46606 0.0
H774 H 0.46711 0.10929 0.29254 0.0
H775 H 0.44391 0.04513 0.46871 0.0
H776 H 0.44481 0.08227 0.40454 0.0
H777 H 0.53187 0.12476 0.4298 0.0
H778 H 0.53112 0.08729 0.49241 0.0
C779 C 0.4988 0.1769 0.39082 0.0
C780 C 0.48659 0.17502 0.3282 0.0
C781 C 0.50023 0.15474 0.41742 0.0
C782 C 0.48875 0.13016 0.38243 0.0
C783 C 0.47623 0.12815 0.32007 0.0
C784 C 0.47539 0.15052 0.29291 0.0
C785 C 0.46322 0.06212 0.45934 0.0
C786 C 0.48744 0.06342 0.48566 0.0
C787 C 0.46371 0.08326 0.42263 0.0
C788 C 0.4884 0.10627 0.4129 0.0
C789 C 0.51262 0.10715 0.43699 0.0
C790 C 0.51215 0.0857 0.47239 0.0
H791 H 0.31991 0.4664 0.30971 0.0
H792 H 0.29991 0.50145 0.45789 0.0
H793 H 0.35584 0.46627 0.38355 0.0
H794 H 0.3368 0.50233 0.53181 0.0
H795 H 0.43567 0.53972 0.55708 0.0
H796 H 0.39018 0.53122 0.51794 0.0
H797 H 0.36301 0.4459 0.49426 0.0
H798 H 0.40836 0.45447 0.53409 0.0
C799 C 0.32305 0.47367 0.35853 0.0
C800 C 0.30757 0.48418 0.37839 0.0
C801 C 0.34342 0.4735 0.40075 0.0
C802 C 0.34889 0.48422 0.4632 0.0
C803 C 0.33281 0.49393 0.48384 0.0
C804 C 0.31193 0.49351 0.44182 0.0
C805 C 0.41959 0.51908 0.54588 0.0
C806 C 0.42507 0.49767 0.5483 0.0
C807 C 0.39368 0.51419 0.52379 0.0
C808 C 0.37332 0.48794 0.50299 0.0
C809 C 0.37846 0.46627 0.51014 0.0
C810 C 0.40424 0.47113 0.53285 0.0
H811 H 0.85498 0.3666 0.25427 0.0
H812 H 0.86214 0.31554 0.40315 0.0
H813 H 0.89387 0.40641 0.30917 0.0
H814 H 0.90117 0.35504 0.45656 0.0
H815 H 0.94079 0.46513 0.49893 0.0
H816 H 0.90602 0.43212 0.41994 0.0
H817 H 0.94893 0.38759 0.42735 0.0
H818 H 0.9834 0.42024 0.50633 0.0
C819 C 0.86465 0.36392 0.29897 0.0
C820 C 0.85563 0.33794 0.32436 0.0
C821 C 0.88697 0.38664 0.32989 0.0
C822 C 0.90073 0.38359 0.38608 0.0
C823 C 0.89129 0.35776 0.41223 0.0
C824 C 0.86893 0.33519 0.3818 0.0
C825 C 0.94327 0.44886 0.48179 0.0
C826 C 0.96431 0.44474 0.50963 0.0
C827 C 0.92338 0.42998 0.4368 0.0
C828 C 0.92457 0.40704 0.4193 0.0
C829 C 0.94733 0.40483 0.44147 0.0
C830 C 0.96705 0.42353 0.48638 0.0
H831 H 0.51496 0.87232 0.1023 0.0
H832 H 0.5579 0.86621 0.27864 0.0
H833 H 0.52183 0.9159 0.14019 0.0
H834 H 0.56476 0.90933 0.31616 0.0
H835 H 0.59357 0.9924 0.36014 0.0
H836 H 0.59068 0.95776 0.2896 0.0
H837 H 0.50713 0.93275 0.22791 0.0
H838 H 0.51037 0.96812 0.29697 0.0
C839 C 0.5256 0.8802 0.14932 0.0
C840 C 0.53603 0.8661 0.18762 0.0
C841 C 0.52972 0.90513 0.17061 0.0
C842 C 0.54441 0.91625 0.23027 0.0
C843 C 0.55416 0.9017 0.26898 0.0
C844 C 0.55004 0.87691 0.24786 0.0
C845 C 0.57495 0.98019 0.32952 0.0
C846 C 0.55204 0.9824 0.3346 0.0
C847 C 0.57322 0.96032 0.28955 0.0
C848 C 0.54843 0.94208 0.25516 0.0
C849 C 0.52644 0.94648 0.25423 0.0
C850 C 0.5283 0.96672 0.29365 0.0
H851 H 0.71287 0.56169 0.32953 0.0
H852 H 0.6551 0.48023 0.25907 0.0
H853 H 0.68054 0.56053 0.39579 0.0
H854 H 0.62362 0.47829 0.32916 0.0
H855 H 0.56132 0.49675 0.39505 0.0
H856 H 0.59426 0.4946 0.33742 0.0
H857 H 0.65748 0.54374 0.48623 0.0
H858 H 0.6244 0.54691 0.54278 0.0
C859 C 0.69335 0.54344 0.32821 0.0
C860 C 0.68669 0.52118 0.28793 0.0
C861 C 0.67487 0.54259 0.36736 0.0
C862 C 0.64924 0.51934 0.36813 0.0
C863 C 0.6429 0.49678 0.32932 0.0
C864 C 0.66124 0.49775 0.28959 0.0
C865 C 0.58219 0.50691 0.41606 0.0
C866 C 0.59015 0.52222 0.4735 0.0
C867 C 0.6012 0.50553 0.38295 0.0
C868 C 0.62878 0.51913 0.40657 0.0
C869 C 0.63657 0.53346 0.4656 0.0
C870 C 0.61753 0.53508 0.49848 0.0
H871 H 0.14327 0.71675 0.24857 0.0
H872 H 0.18812 0.68277 0.35513 0.0
H873 H 0.10287 0.68448 0.29616 0.0
H874 H 0.14707 0.64953 0.39929 0.0
H875 H 0.06062 0.57614 0.39401 0.0
H876 H 0.09815 0.60983 0.33943 0.0
H877 H 0.09081 0.67393 0.42164 0.0
H878 H 0.05351 0.6403 0.47778 0.0
C879 C 0.14472 0.70272 0.28264 0.0
C880 C 0.16914 0.70252 0.29811 0.0
C881 C 0.12146 0.6841 0.30921 0.0
C882 C 0.122 0.66454 0.35057 0.0
C883 C 0.14624 0.66431 0.36663 0.0
C884 C 0.16966 0.68328 0.34114 0.0
C885 C 0.06652 0.59734 0.3993 0.0
C886 C 0.05421 0.60563 0.44033 0.0
C887 C 0.08813 0.61656 0.36857 0.0
C888 C 0.09736 0.64429 0.37724 0.0
C889 C 0.08395 0.65257 0.41457 0.0
C890 C 0.06266 0.63337 0.44646 0.0
loop_
_geom_bond_atom_site_label_1
_geom_bond_atom_site_label_2
_geom_bond_distance
_geom_bond_site_symmetry_2
_ccdc_geom_bond_type
C0 C1 1.443 . S
C0 N4 1.376 . S
C0 C38 1.389 . S
C1 C0 1.443 . S
C1 C2 1.340 . S
C1 H41 0.951 . S
C2 C1 1.340 . S
C2 C3 1.439 . S
C2 H42 0.950 . S
C3 C2 1.439 . S
C3 N4 1.374 . S
C3 C37 1.395 . S
N4 C0 1.376 . S
N4 C3 1.374 . S
N4 Co5 2.008 . S
Co5 N4 2.008 . S
Co5 N6 1.995 . S
Co5 N11 2.008 . S
Co5 N16 1.995 . S
Co5 N21 2.282 . S
Co5 N27 2.282 . S
N6 Co5 1.995 . S
N6 C7 1.376 . S
N6 C10 1.383 . S
C7 N6 1.376 . S
C7 C8 1.446 . S
C7 C37 1.391 . S
C8 C7 1.446 . S
C8 C9 1.339 . S
C8 H43 0.949 . S
C9 C8 1.339 . S
C9 C10 1.439 . S
C9 H44 0.950 . S
C10 N6 1.383 . S
C10 C9 1.439 . S
C10 C39 1.392 . S
N11 Co5 2.008 . S
N11 C12 1.376 . S
N11 C15 1.374 . S
C12 N11 1.376 . S
C12 C13 1.443 . S
C12 C39 1.389 . S
C13 C12 1.443 . S
C13 C14 1.340 . S
C13 H45 0.951 . S
C14 C13 1.340 . S
C14 C15 1.439 . S
C14 H46 0.950 . S
C15 N11 1.374 . S
C15 C14 1.439 . S
C15 C40 1.395 . S
N16 Co5 1.995 . S
N16 C17 1.376 . S
N16 C20 1.383 . S
C17 N16 1.376 . S
C17 C18 1.446 . S
C17 C40 1.391 . S
C18 C17 1.446 . S
C18 C19 1.339 . S
C18 H47 0.949 . S
C19 C18 1.339 . S
C19 C20 1.439 . S
C19 H48 0.950 . S
C20 N16 1.383 . S
C20 C19 1.439 . S
C20 C38 1.392 . S
N21 Co5 2.282 . S
N21 C24 1.332 . S
N21 C26 1.332 . S
C22 C23 1.386 . S
C22 C25 1.388 . S
C23 C22 1.386 . S
C23 C24 1.382 . S
C23 H49 0.950 . S
C24 N21 1.332 . S
C24 C23 1.382 . S
C24 H35 0.952 . S
C25 C22 1.388 . S
C25 C26 1.382 . S
C25 H50 0.950 . S
C26 N21 1.332 . S
C26 C25 1.382 . S
C26 H36 0.948 . S
N27 Co5 2.282 . S
N27 C31 1.332 . S
N27 C32 1.332 . S
C28 C29 1.388 . S
C28 C32 1.382 . S
C28 H51 0.950 . S
C29 C28 1.388 . S
C29 C30 1.386 . S
C30 C29 1.386 . S
C30 C31 1.382 . S
C30 H52 0.950 . S
C31 N27 1.332 . S
C31 C30 1.382 . S
C31 H33 0.952 . S
C32 N27 1.332 . S
C32 C28 1.382 . S
C32 H34 0.948 . S
H33 C31 0.952 . S
H34 C32 0.948 . S
H35 C24 0.952 . S
H36 C26 0.948 . S
C37 C3 1.395 . S
C37 C7 1.391 . S
C38 C0 1.389 . S
C38 C20 1.392 . S
C39 C10 1.392 . S
C39 C12 1.389 . S
C40 C15 1.395 . S
C40 C17 1.391 . S
H41 C1 0.951 . S
H42 C2 0.950 . S
H43 C8 0.949 . S
H44 C9 0.950 . S
H45 C13 0.951 . S
H46 C14 0.950 . S
H47 C18 0.949 . S
H48 C19 0.950 . S
H49 C23 0.950 . S
H50 C25 0.950 . S
H51 C28 0.950 . S
H52 C30 0.950 . S
C53 C54 1.443 . S
C53 N57 1.376 . S
C53 C91 1.389 . S
C54 C53 1.443 . S
C54 C55 1.340 . S
C54 H94 0.951 . S
C55 C54 1.340 . S
C55 C56 1.439 . S
C55 H95 0.950 . S
C56 C55 1.439 . S
C56 N57 1.374 . S
C56 C90 1.395 . S
N57 C53 1.376 . S
N57 C56 1.374 . S
N57 Co58 2.008 . S
Co58 N57 2.008 . S
Co58 N59 1.995 . S
Co58 N64 2.008 . S
Co58 N69 1.995 . S
Co58 N74 2.282 . S
Co58 N80 2.282 . S
N59 Co58 1.995 . S
N59 C60 1.376 . S
N59 C63 1.383 . S
C60 N59 1.376 . S
C60 C61 1.446 . S
C60 C90 1.391 . S
C61 C60 1.446 . S
C61 C62 1.339 . S
C61 H96 0.949 . S
C62 C61 1.339 . S
C62 C63 1.439 . S
C62 H97 0.950 . S
C63 N59 1.383 . S
C63 C62 1.439 . S
C63 C92 1.392 . S
N64 Co58 2.008 . S
N64 C65 1.376 . S
N64 C68 1.374 . S
C65 N64 1.376 . S
C65 C66 1.443 . S
C65 C92 1.389 . S
C66 C65 1.443 . S
C66 C67 1.340 . S
C66 H98 0.951 . S
C67 C66 1.340 . S
C67 C68 1.439 . S
C67 H99 0.950 . S
C68 N64 1.374 . S
C68 C67 1.439 . S
C68 C93 1.395 . S
N69 Co58 1.995 . S
N69 C70 1.376 . S
N69 C73 1.383 . S
C70 N69 1.376 . S
C70 C71 1.446 . S
C70 C93 1.391 . S
C71 C70 1.446 . S
C71 C72 1.339 . S
C71 H100 0.949 . S
C72 C71 1.339 . S
C72 C73 1.439 . S
C72 H101 0.950 . S
C73 N69 1.383 . S
C73 C72 1.439 . S
C73 C91 1.392 . S
N74 Co58 2.282 . S
N74 C77 1.332 . S
N74 C79 1.332 . S
C75 C76 1.386 . S
C75 C78 1.388 . S
C76 C75 1.386 . S
C76 C77 1.382 . S
C76 H102 0.950 1_554 S
C77 N74 1.332 . S
C77 C76 1.382 . S
C77 H88 0.952 . S
C78 C75 1.388 . S
C78 C79 1.382 . S
C78 H103 0.950 . S
C79 N74 1.332 . S
C79 C78 1.382 . S
C79 H89 0.948 . S
N80 Co58 2.282 . S
N80 C84 1.332 . S
N80 C85 1.332 . S
C81 C82 1.388 . S
C81 C85 1.382 . S
C81 H104 0.950 . S
C82 C81 1.388 . S
C82 C83 1.386 . S
C83 C82 1.386 . S
C83 C84 1.382 . S
C83 H105 0.950 . S
C84 N80 1.332 . S
C84 C83 1.382 . S
C84 H86 0.952 . S
C85 N80 1.332 . S
C85 C81 1.382 . S
C85 H87 0.948 . S
H86 C84 0.952 . S
H87 C85 0.948 . S
H88 C77 0.952 . S
H89 C79 0.948 . S
C90 C56 1.395 . S
C90 C60 1.391 . S
C91 C53 1.389 . S
C91 C73 1.392 . S
C92 C63 1.392 . S
C92 C65 1.389 . S
C93 C68 1.395 . S
C93 C70 1.391 . S
H94 C54 0.951 . S
H95 C55 0.950 . S
H96 C61 0.949 . S
H97 C62 0.950 . S
H98 C66 0.951 . S
H99 C67 0.950 . S
H100 C71 0.949 . S
H101 C72 0.950 . S
H102 C76 0.950 1_556 S
H103 C78 0.950 . S
H104 C81 0.950 . S
H105 C83 0.950 . S
C106 C107 1.443 . S
C106 N110 1.376 . S
C106 C144 1.389 . S
C107 C106 1.443 . S
C107 C108 1.340 . S
C107 H147 0.951 . S
C108 C107 1.340 . S
C108 C109 1.439 . S
C108 H148 0.950 . S
C109 C108 1.439 . S
C109 N110 1.374 . S
C109 C143 1.395 . S
N110 C106 1.376 . S
N110 C109 1.374 . S
N110 Co111 2.008 . S
Co111 N110 2.008 . S
Co111 N112 1.995 1_554 S
Co111 N117 2.008 1_554 S
Co111 N122 1.995 . S
Co111 N127 2.282 . S
Co111 N133 2.282 1_554 S
N112 Co111 1.995 1_556 S
N112 C113 1.376 . S
N112 C116 1.383 . S
C113 N112 1.376 . S
C113 C114 1.446 . S
C113 C143 1.391 1_556 S
C114 C113 1.446 . S
C114 C115 1.339 . S
C114 H149 0.949 . S
C115 C114 1.339 . S
C115 C116 1.439 . S
C115 H150 0.950 . S
C116 N112 1.383 . S
C116 C115 1.439 . S
C116 C145 1.392 . S
N117 Co111 2.008 1_556 S
N117 C118 1.376 . S
N117 C121 1.374 . S
C118 N117 1.376 . S
C118 C119 1.443 . S
C118 C145 1.389 . S
C119 C118 1.443 . S
C119 C120 1.340 . S
C119 H151 0.951 . S
C120 C119 1.340 . S
C120 C121 1.439 . S
C120 H152 0.950 . S
C121 N117 1.374 . S
C121 C120 1.439 . S
C121 C146 1.395 1_556 S
N122 Co111 1.995 . S
N122 C123 1.376 . S
N122 C126 1.383 . S
C123 N122 1.376 . S
C123 C124 1.446 . S
C123 C146 1.391 . S
C124 C123 1.446 . S
C124 C125 1.339 . S
C124 H153 0.949 . S
C125 C124 1.339 . S
C125 C126 1.439 . S
C125 H154 0.950 . S
C126 N122 1.383 . S
C126 C125 1.439 . S
C126 C144 1.392 . S
N127 Co111 2.282 . S
N127 C130 1.332 . S
N127 C132 1.332 . S
C128 C129 1.386 . S
C128 C131 1.388 . S
C129 C128 1.386 . S
C129 C130 1.382 . S
C129 H155 0.950 . S
C130 N127 1.332 . S
C130 C129 1.382 . S
C130 H141 0.952 . S
C131 C128 1.388 . S
C131 C132 1.382 . S
C131 H156 0.950 . S
C132 N127 1.332 . S
C132 C131 1.382 . S
C132 H142 0.948 . S
N133 Co111 2.282 1_556 S
N133 C137 1.332 . S
N133 C138 1.332 . S
C134 C135 1.388 . S
C134 C138 1.382 . S
C134 H157 0.950 . S
C135 C134 1.388 . S
C135 C136 1.386 . S
C136 C135 1.386 . S
C136 C137 1.382 . S
C136 H158 0.950 . S
C137 N133 1.332 . S
C137 C136 1.382 . S
C137 H139 0.952 . S
C138 N133 1.332 . S
C138 C134 1.382 . S
C138 H140 0.948 . S
H139 C137 0.952 . S
H140 C138 0.948 . S
H141 C130 0.952 . S
H142 C132 0.948 . S
C143 C109 1.395 . S
C143 C113 1.391 1_554 S
C144 C106 1.389 . S
C144 C126 1.392 . S
C145 C116 1.392 . S
C145 C118 1.389 . S
C146 C121 1.395 1_554 S
C146 C123 1.391 . S
H147 C107 0.951 . S
H148 C108 0.950 . S
H149 C114 0.949 . S
H150 C115 0.950 . S
H151 C119 0.951 . S
H152 C120 0.950 . S
H153 C124 0.949 . S
H154 C125 0.950 . S
H155 C129 0.950 . S
H156 C131 0.950 . S
H157 C134 0.950 . S
H158 C136 0.950 . S
C159 C160 1.443 . S
C159 N163 1.376 . S
C159 C197 1.389 . S
C160 C159 1.443 . S
C160 C161 1.340 . S
C160 H200 0.951 . S
C161 C160 1.340 . S
C161 C162 1.439 . S
C161 H201 0.950 . S
C162 C161 1.439 . S
C162 N163 1.374 . S
C162 C196 1.395 . S
N163 C159 1.376 . S
N163 C162 1.374 . S
N163 Co164 2.008 . S
Co164 N163 2.008 . S
Co164 N165 1.995 . S
Co164 N170 2.008 . S
Co164 N175 1.995 . S
Co164 N180 2.282 . S
Co164 N186 2.282 . S
N165 Co164 1.995 . S
N165 C166 1.376 . S
N165 C169 1.383 1_554 S
C166 N165 1.376 . S
C166 C167 1.446 1_554 S
C166 C196 1.391 . S
C167 C166 1.446 1_556 S
C167 C168 1.339 . S
C167 H202 0.949 . S
C168 C167 1.339 . S
C168 C169 1.439 . S
C168 H203 0.950 . S
C169 N165 1.383 1_556 S
C169 C168 1.439 . S
C169 C198 1.392 . S
N170 Co164 2.008 . S
N170 C171 1.376 1_554 S
N170 C174 1.374 . S
C171 N170 1.376 1_556 S
C171 C172 1.443 . S
C171 C198 1.389 . S
C172 C171 1.443 . S
C172 C173 1.340 1_556 S
C172 H204 0.951 . S
C173 C172 1.340 1_554 S
C173 C174 1.439 . S
C173 H205 0.950 . S
C174 N170 1.374 . S
C174 C173 1.439 . S
C174 C199 1.395 . S
N175 Co164 1.995 . S
N175 C176 1.376 . S
N175 C179 1.383 . S
C176 N175 1.376 . S
C176 C177 1.446 . S
C176 C199 1.391 . S
C177 C176 1.446 . S
C177 C178 1.339 . S
C177 H206 0.949 . S
C178 C177 1.339 . S
C178 C179 1.439 . S
C178 H207 0.950 . S
C179 N175 1.383 . S
C179 C178 1.439 . S
C179 C197 1.392 . S
N180 Co164 2.282 . S
N180 C183 1.332 . S
N180 C185 1.332 . S
C181 C182 1.386 . S
C181 C184 1.388 . S
C182 C181 1.386 . S
C182 C183 1.382 . S
C182 H208 0.950 . S
C183 N180 1.332 . S
C183 C182 1.382 . S
C183 H194 0.952 . S
C184 C181 1.388 . S
C184 C185 1.382 . S
C184 H209 0.950 . S
C185 N180 1.332 . S
C185 C184 1.382 . S
C185 H195 0.948 . S
N186 Co164 2.282 . S
N186 C190 1.332 1_554 S
N186 C191 1.332 . S
C187 C188 1.388 . S
C187 C191 1.382 1_556 S
C187 H210 0.950 . S
C188 C187 1.388 . S
C188 C189 1.386 . S
C189 C188 1.386 . S
C189 C190 1.382 . S
C189 H211 0.950 . S
C190 N186 1.332 1_556 S
C190 C189 1.382 . S
C190 H192 0.952 . S
C191 N186 1.332 . S
C191 C187 1.382 1_554 S
C191 H193 0.948 . S
H192 C190 0.952 . S
H193 C191 0.948 . S
H194 C183 0.952 . S
H195 C185 0.948 . S
C196 C162 1.395 . S
C196 C166 1.391 . S
C197 C159 1.389 . S
C197 C179 1.392 . S
C198 C169 1.392 . S
C198 C171 1.389 . S
C199 C174 1.395 . S
C199 C176 1.391 . S
H200 C160 0.951 . S
H201 C161 0.950 . S
H202 C167 0.949 . S
H203 C168 0.950 . S
H204 C172 0.951 . S
H205 C173 0.950 . S
H206 C177 0.949 . S
H207 C178 0.950 . S
H208 C182 0.950 . S
H209 C184 0.950 . S
H210 C187 0.950 . S
H211 C189 0.950 . S
C212 C213 1.443 . S
C212 N216 1.376 . S
C212 C250 1.389 . S
C213 C212 1.443 . S
C213 C214 1.340 . S
C213 H253 0.951 . S
C214 C213 1.340 . S
C214 C215 1.439 . S
C214 H254 0.950 . S
C215 C214 1.439 . S
C215 N216 1.374 . S
C215 C249 1.395 . S
N216 C212 1.376 . S
N216 C215 1.374 . S
N216 Co217 2.008 . S
Co217 N216 2.008 . S
Co217 N218 1.995 . S
Co217 N223 2.008 . S
Co217 N228 1.995 . S
Co217 N233 2.282 . S
Co217 N239 2.282 . S
N218 Co217 1.995 . S
N218 C219 1.376 . S
N218 C222 1.383 1_554 S
C219 N218 1.376 . S
C219 C220 1.446 1_554 S
C219 C249 1.391 . S
C220 C219 1.446 1_556 S
C220 C221 1.339 . S
C220 H255 0.949 . S
C221 C220 1.339 . S
C221 C222 1.439 . S
C221 H256 0.950 . S
C222 N218 1.383 1_556 S
C222 C221 1.439 . S
C222 C251 1.392 . S
N223 Co217 2.008 . S
N223 C224 1.376 . S
N223 C227 1.374 . S
C224 N223 1.376 . S
C224 C225 1.443 . S
C224 C251 1.389 1_554 S
C225 C224 1.443 . S
C225 C226 1.340 . S
C225 H257 0.951 1_554 S
C226 C225 1.340 . S
C226 C227 1.439 . S
C226 H258 0.950 . S
C227 N223 1.374 . S
C227 C226 1.439 . S
C227 C252 1.395 . S
N228 Co217 1.995 . S
N228 C229 1.376 . S
N228 C232 1.383 . S
C229 N228 1.376 . S
C229 C230 1.446 . S
C229 C252 1.391 . S
C230 C229 1.446 . S
C230 C231 1.339 . S
C230 H259 0.949 . S
C231 C230 1.339 . S
C231 C232 1.439 . S
C231 H260 0.950 . S
C232 N228 1.383 . S
C232 C231 1.439 . S
C232 C250 1.392 . S
N233 Co217 2.282 . S
N233 C236 1.332 . S
N233 C238 1.332 . S
C234 C235 1.386 . S
C234 C237 1.388 . S
C235 C234 1.386 . S
C235 C236 1.382 . S
C235 H261 0.950 . S
C236 N233 1.332 . S
C236 C235 1.382 . S
C236 H247 0.952 . S
C237 C234 1.388 . S
C237 C238 1.382 . S
C237 H262 0.950 . S
C238 N233 1.332 . S
C238 C237 1.382 . S
C238 H248 0.948 . S
N239 Co217 2.282 . S
N239 C243 1.332 1_554 S
N239 C244 1.332 . S
C240 C241 1.388 . S
C240 C244 1.382 1_556 S
C240 H263 0.950 . S
C241 C240 1.388 . S
C241 C242 1.386 . S
C242 C241 1.386 . S
C242 C243 1.382 . S
C242 H264 0.950 . S
C243 N239 1.332 1_556 S
C243 C242 1.382 . S
C243 H245 0.952 . S
C244 N239 1.332 . S
C244 C240 1.382 1_554 S
C244 H246 0.948 . S
H245 C243 0.952 . S
H246 C244 0.948 . S
H247 C236 0.952 . S
H248 C238 0.948 . S
C249 C215 1.395 . S
C249 C219 1.391 . S
C250 C212 1.389 . S
C250 C232 1.392 . S
C251 C222 1.392 . S
C251 C224 1.389 1_556 S
C252 C227 1.395 . S
C252 C229 1.391 . S
H253 C213 0.951 . S
H254 C214 0.950 . S
H255 C220 0.949 . S
H256 C221 0.950 . S
H257 C225 0.951 1_556 S
H258 C226 0.950 . S
H259 C230 0.949 . S
H260 C231 0.950 . S
H261 C235 0.950 . S
H262 C237 0.950 . S
H263 C240 0.950 . S
H264 C242 0.950 . S
C265 C266 1.443 . S
C265 N269 1.376 . S
C265 C303 1.389 . S
C266 C265 1.443 . S
C266 C267 1.340 . S
C266 H306 0.951 . S
C267 C266 1.340 . S
C267 C268 1.439 . S
C267 H307 0.950 . S
C268 C267 1.439 . S
C268 N269 1.374 . S
C268 C302 1.395 . S
N269 C265 1.376 . S
N269 C268 1.374 . S
N269 Co270 2.008 . S
Co270 N269 2.008 . S
Co270 N271 1.995 . S
Co270 N276 2.008 . S
Co270 N281 1.995 . S
Co270 N286 2.282 . S
Co270 N292 2.282 . S
N271 Co270 1.995 . S
N271 C272 1.376 . S
N271 C275 1.383 . S
C272 N271 1.376 . S
C272 C273 1.446 . S
C272 C302 1.391 . S
C273 C272 1.446 . S
C273 C274 1.339 . S
C273 H308 0.949 . S
C274 C273 1.339 . S
C274 C275 1.439 . S
C274 H309 0.950 . S
C275 N271 1.383 . S
C275 C274 1.439 . S
C275 C304 1.392 . S
N276 Co270 2.008 . S
N276 C277 1.376 . S
N276 C280 1.374 . S
C277 N276 1.376 . S
C277 C278 1.443 . S
C277 C304 1.389 . S
C278 C277 1.443 . S
C278 C279 1.340 . S
C278 H310 0.951 . S
C279 C278 1.340 . S
C279 C280 1.439 . S
C279 H311 0.950 . S
C280 N276 1.374 . S
C280 C279 1.439 . S
C280 C305 1.395 . S
N281 Co270 1.995 . S
N281 C282 1.376 . S
N281 C285 1.383 . S
C282 N281 1.376 . S
C282 C283 1.446 . S
C282 C305 1.391 . S
C283 C282 1.446 . S
C283 C284 1.339 . S
C283 H312 0.949 . S
C284 C283 1.339 . S
C284 C285 1.439 . S
C284 H313 0.950 . S
C285 N281 1.383 . S
C285 C284 1.439 . S
C285 C303 1.392 . S
N286 Co270 2.282 . S
N286 C289 1.332 . S
N286 C291 1.332 . S
C287 C288 1.386 . S
C287 C290 1.388 . S
C288 C287 1.386 . S
C288 C289 1.382 . S
C288 H314 0.950 . S
C289 N286 1.332 . S
C289 C288 1.382 . S
C289 H300 0.952 . S
C290 C287 1.388 . S
C290 C291 1.382 . S
C290 H315 0.950 . S
C291 N286 1.332 . S
C291 C290 1.382 . S
C291 H301 0.948 . S
N292 Co270 2.282 . S
N292 C296 1.332 . S
N292 C297 1.332 . S
C293 C294 1.388 . S
C293 C297 1.382 . S
C293 H316 0.950 . S
C294 C293 1.388 . S
C294 C295 1.386 . S
C295 C294 1.386 . S
C295 C296 1.382 . S
C295 H317 0.950 . S
C296 N292 1.332 . S
C296 C295 1.382 . S
C296 H298 0.952 . S
C297 N292 1.332 . S
C297 C293 1.382 . S
C297 H299 0.948 . S
H298 C296 0.952 . S
H299 C297 0.948 . S
H300 C289 0.952 . S
H301 C291 0.948 . S
C302 C268 1.395 . S
C302 C272 1.391 . S
C303 C265 1.389 . S
C303 C285 1.392 . S
C304 C275 1.392 . S
C304 C277 1.389 . S
C305 C280 1.395 . S
C305 C282 1.391 . S
H306 C266 0.951 . S
H307 C267 0.950 . S
H308 C273 0.949 . S
H309 C274 0.950 . S
H310 C278 0.951 . S
H311 C279 0.950 . S
H312 C283 0.949 . S
H313 C284 0.950 . S
H314 C288 0.950 . S
H315 C290 0.950 . S
H316 C293 0.950 . S
H317 C295 0.950 . S
C318 O330 1.241 . S
C318 O331 1.280 . S
C319 O332 1.277 . S
C319 O333 1.245 . S
C320 O344 1.247 . S
C320 O346 1.289 . S
Mg321 O322 1.934 1_655 S
Mg321 O331 1.984 . S
Mg321 O333 1.988 1_655 S
Mg321 O334 2.061 . S
O322 Mg321 1.934 1_455 S
O322 Mg323 1.985 . S
O322 Mg324 1.916 . S
Mg323 O322 1.985 . S
Mg323 O330 2.042 1_455 S
Mg323 O332 2.041 . S
Mg323 O338 2.038 1_455 S
Mg323 O346 2.238 . S
Mg324 O322 1.916 . S
Mg324 O325 1.917 . S
Mg324 O335 2.106 1_455 S
Mg324 O337 2.079 1_455 S
Mg324 O346 2.106 . S
Mg324 O347 2.079 . S
O325 Mg324 1.917 . S
O325 Mg326 1.926 . S
O325 Mg327 1.986 . S
Mg326 O325 1.926 . S
Mg326 O340 1.984 . S
Mg326 O343 1.988 1_455 S
Mg326 O344 2.061 . S
Mg327 O325 1.986 . S
Mg327 O335 2.238 1_455 S
Mg327 O339 2.042 . S
Mg327 O341 2.041 1_455 S
Mg327 O348 2.038 . S
C328 O334 1.247 . S
C328 O335 1.289 . S
C329 O347 1.245 . S
C329 O348 1.274 . S
O330 C318 1.241 . S
O330 Mg323 2.042 1_655 S
O331 C318 1.280 . S
O331 Mg321 1.984 . S
O332 C319 1.277 . S
O332 Mg323 2.041 . S
O333 C319 1.245 . S
O333 Mg321 1.988 1_455 S
O334 Mg321 2.061 . S
O334 C328 1.247 . S
O335 Mg324 2.106 1_655 S
O335 Mg327 2.238 1_655 S
O335 C328 1.289 . S
C336 O337 1.245 . S
C336 O338 1.274 . S
O337 Mg324 2.079 1_655 S
O337 C336 1.245 . S
O338 Mg323 2.038 1_655 S
O338 C336 1.274 . S
O339 Mg327 2.042 . S
O339 C342 1.241 . S
O340 Mg326 1.984 . S
O340 C342 1.280 . S
O341 Mg327 2.041 1_655 S
O341 C345 1.277 . S
C342 O339 1.241 . S
C342 O340 1.280 . S
O343 Mg326 1.988 1_655 S
O343 C345 1.245 . S
O344 C320 1.247 . S
O344 Mg326 2.061 . S
C345 O341 1.277 . S
C345 O343 1.245 . S
O346 C320 1.289 . S
O346 Mg323 2.238 . S
O346 Mg324 2.106 . S
O347 Mg324 2.079 . S
O347 C329 1.245 . S
O348 Mg327 2.038 . S
O348 C329 1.274 . S
C349 O361 1.241 . S
C349 O362 1.280 . S
C350 O363 1.277 . S
C350 O364 1.245 . S
C351 O375 1.247 . S
C351 O377 1.289 . S
Mg352 O353 1.926 . S
Mg352 O362 1.984 . S
Mg352 O364 1.988 1_545 S
Mg352 O365 2.061 . S
O353 Mg352 1.926 . S
O353 Mg354 1.986 . S
O353 Mg355 1.917 . S
Mg354 O353 1.986 . S
Mg354 O361 2.042 . S
Mg354 O363 2.041 1_545 S
Mg354 O369 2.038 . S
Mg354 O377 2.238 1_545 S
Mg355 O353 1.917 . S
Mg355 O356 1.917 1_545 S
Mg355 O366 2.106 . S
Mg355 O368 2.079 . S
Mg355 O377 2.106 1_545 S
Mg355 O378 2.079 1_545 S
O356 Mg355 1.917 1_565 S
O356 Mg357 1.926 . S
O356 Mg358 1.986 1_565 S
Mg357 O356 1.926 . S
Mg357 O371 1.984 . S
Mg357 O374 1.988 1_565 S
Mg357 O375 2.061 . S
Mg358 O356 1.986 1_545 S
Mg358 O366 2.238 . S
Mg358 O370 2.042 1_545 S
Mg358 O372 2.041 . S
Mg358 O379 2.038 1_545 S
C359 O365 1.247 . S
C359 O366 1.289 . S
C360 O378 1.245 . S
C360 O379 1.274 . S
O361 C349 1.241 . S
O361 Mg354 2.042 . S
O362 C349 1.280 . S
O362 Mg352 1.984 . S
O363 C350 1.277 . S
O363 Mg354 2.041 1_565 S
O364 C350 1.245 . S
O364 Mg352 1.988 1_565 S
O365 Mg352 2.061 . S
O365 C359 1.247 . S
O366 Mg355 2.106 . S
O366 Mg358 2.238 . S
O366 C359 1.289 . S
C367 O368 1.245 . S
C367 O369 1.274 . S
O368 Mg355 2.079 . S
O368 C367 1.245 . S
O369 Mg354 2.038 . S
O369 C367 1.274 . S
O370 Mg358 2.042 1_565 S
O370 C373 1.241 . S
O371 Mg357 1.984 . S
O371 C373 1.280 . S
O372 Mg358 2.041 . S
O372 C376 1.277 . S
C373 O370 1.241 . S
C373 O371 1.280 . S
O374 Mg357 1.988 1_545 S
O374 C376 1.245 . S
O375 C351 1.247 . S
O375 Mg357 2.061 . S
C376 O372 1.277 . S
C376 O374 1.245 . S
O377 C351 1.289 . S
O377 Mg354 2.238 1_565 S
O377 Mg355 2.106 1_565 S
O378 Mg355 2.079 1_565 S
O378 C360 1.245 . S
O379 Mg358 2.038 1_565 S
O379 C360 1.274 . S
C380 O392 1.241 . S
C380 O393 1.280 . S
C381 O394 1.277 . S
C381 O395 1.245 . S
C382 O406 1.247 . S
C382 O408 1.289 . S
Mg383 O384 1.926 . S
Mg383 O393 1.984 . S
Mg383 O395 1.988 . S
Mg383 O396 2.061 . S
O384 Mg383 1.926 . S
O384 Mg385 1.986 . S
O384 Mg386 1.917 . S
Mg385 O384 1.986 . S
Mg385 O392 2.042 . S
Mg385 O394 2.041 . S
Mg385 O400 2.038 . S
Mg385 O408 2.238 . S
Mg386 O384 1.917 . S
Mg386 O387 1.917 . S
Mg386 O397 2.106 . S
Mg386 O399 2.079 . S
Mg386 O408 2.106 . S
Mg386 O409 2.079 . S
O387 Mg386 1.917 . S
O387 Mg388 1.926 . S
O387 Mg389 1.986 . S
Mg388 O387 1.926 . S
Mg388 O402 1.984 . S
Mg388 O405 1.988 . S
Mg388 O406 2.061 . S
Mg389 O387 1.986 . S
Mg389 O397 2.238 . S
Mg389 O401 2.042 . S
Mg389 O403 2.041 . S
Mg389 O410 2.038 . S
C390 O396 1.247 . S
C390 O397 1.289 . S
C391 O409 1.245 . S
C391 O410 1.274 . S
O392 C380 1.241 . S
O392 Mg385 2.042 . S
O393 C380 1.280 . S
O393 Mg383 1.984 . S
O394 C381 1.277 . S
O394 Mg385 2.041 . S
O395 C381 1.245 . S
O395 Mg383 1.988 . S
O396 Mg383 2.061 . S
O396 C390 1.247 . S
O397 Mg386 2.106 . S
O397 Mg389 2.238 . S
O397 C390 1.289 . S
C398 O399 1.245 . S
C398 O400 1.274 . S
O399 Mg386 2.079 . S
O399 C398 1.245 . S
O400 Mg385 2.038 . S
O400 C398 1.274 . S
O401 Mg389 2.042 . S
O401 C404 1.241 . S
O402 Mg388 1.984 . S
O402 C404 1.280 . S
O403 Mg389 2.041 . S
O403 C407 1.277 . S
C404 O401 1.241 . S
C404 O402 1.280 . S
O405 Mg388 1.988 . S
O405 C407 1.245 . S
O406 C382 1.247 . S
O406 Mg388 2.061 . S
C407 O403 1.277 . S
C407 O405 1.245 . S
O408 C382 1.289 . S
O408 Mg385 2.238 . S
O408 Mg386 2.106 . S
O409 Mg386 2.079 . S
O409 C391 1.245 . S
O410 Mg389 2.038 . S
O410 C391 1.274 . S
H411 C419 0.950 . S
H412 C424 0.950 . S
H413 C421 0.950 . S
H414 C423 0.950 . S
H415 C425 0.950 . S
H416 C427 0.950 . S
H417 C429 0.950 . S
H418 C430 0.950 . S
C419 H411 0.950 . S
C419 C420 1.386 . S
C419 C421 1.391 . S
C420 C419 1.386 . S
C420 C424 1.393 . S
C421 H413 0.950 . S
C421 C419 1.391 . S
C421 C422 1.400 . S
C422 C421 1.400 . S
C422 C423 1.398 . S
C422 C428 1.491 . S
C423 H414 0.950 . S
C423 C422 1.398 . S
C423 C424 1.391 . S
C424 H412 0.950 . S
C424 C420 1.393 . S
C424 C423 1.391 . S
C425 H415 0.950 . S
C425 C426 1.386 . S
C425 C427 1.391 . S
C426 C425 1.386 . S
C426 C430 1.393 . S
C427 H416 0.950 . S
C427 C425 1.391 . S
C427 C428 1.400 . S
C428 C422 1.491 . S
C428 C427 1.400 . S
C428 C429 1.398 . S
C429 H417 0.950 . S
C429 C428 1.398 . S
C429 C430 1.391 . S
C430 H418 0.950 . S
C430 C426 1.393 . S
C430 C429 1.391 . S
H431 C439 0.950 . S
H432 C444 0.950 . S
H433 C441 0.950 . S
H434 C443 0.950 . S
H435 C445 0.950 . S
H436 C447 0.950 . S
H437 C449 0.950 . S
H438 C450 0.950 . S
C439 H431 0.950 . S
C439 C440 1.386 . S
C439 C441 1.391 . S
C440 C439 1.386 . S
C440 C444 1.393 . S
C441 H433 0.950 . S
C441 C439 1.391 . S
C441 C442 1.400 . S
C442 C441 1.400 . S
C442 C443 1.398 . S
C442 C448 1.491 . S
C443 H434 0.950 . S
C443 C442 1.398 . S
C443 C444 1.391 . S
C444 H432 0.950 . S
C444 C440 1.393 . S
C444 C443 1.391 . S
C445 H435 0.950 . S
C445 C446 1.386 . S
C445 C447 1.391 . S
C446 C445 1.386 . S
C446 C450 1.393 . S
C447 H436 0.950 . S
C447 C445 1.391 . S
C447 C448 1.400 . S
C448 C442 1.491 . S
C448 C447 1.400 . S
C448 C449 1.398 . S
C449 H437 0.950 . S
C449 C448 1.398 . S
C449 C450 1.391 . S
C450 H438 0.950 . S
C450 C446 1.393 . S
C450 C449 1.391 . S
H451 C459 0.950 . S
H452 C464 0.950 . S
H453 C461 0.950 . S
H454 C463 0.950 . S
H455 C465 0.950 . S
H456 C467 0.950 . S
H457 C469 0.950 . S
H458 C470 0.950 . S
C459 H451 0.950 . S
C459 C460 1.386 . S
C459 C461 1.391 . S
C460 C459 1.386 . S
C460 C464 1.393 . S
C461 H453 0.950 . S
C461 C459 1.391 . S
C461 C462 1.400 . S
C462 C461 1.400 . S
C462 C463 1.398 . S
C462 C468 1.491 . S
C463 H454 0.950 . S
C463 C462 1.398 . S
C463 C464 1.391 . S
C464 H452 0.950 . S
C464 C460 1.393 . S
C464 C463 1.391 . S
C465 H455 0.950 . S
C465 C466 1.386 . S
C465 C467 1.391 . S
C466 C465 1.386 . S
C466 C470 1.393 . S
C467 H456 0.950 . S
C467 C465 1.391 . S
C467 C468 1.400 . S
C468 C462 1.491 . S
C468 C467 1.400 . S
C468 C469 1.398 . S
C469 H457 0.950 . S
C469 C468 1.398 . S
C469 C470 1.391 . S
C470 H458 0.950 . S
C470 C466 1.393 . S
C470 C469 1.391 . S
H471 C479 0.950 . S
H472 C484 0.950 . S
H473 C481 0.950 . S
H474 C483 0.950 . S
H475 C485 0.950 . S
H476 C487 0.950 . S
H477 C489 0.950 . S
H478 C490 0.950 . S
C479 H471 0.950 . S
C479 C480 1.386 . S
C479 C481 1.391 . S
C480 C479 1.386 . S
C480 C484 1.393 . S
C481 H473 0.950 . S
C481 C479 1.391 . S
C481 C482 1.400 . S
C482 C481 1.400 . S
C482 C483 1.398 . S
C482 C488 1.491 . S
C483 H474 0.950 . S
C483 C482 1.398 . S
C483 C484 1.391 . S
C484 H472 0.950 . S
C484 C480 1.393 . S
C484 C483 1.391 . S
C485 H475 0.950 . S
C485 C486 1.386 . S
C485 C487 1.391 . S
C486 C485 1.386 . S
C486 C490 1.393 . S
C487 H476 0.950 . S
C487 C485 1.391 . S
C487 C488 1.400 . S
C488 C482 1.491 . S
C488 C487 1.400 . S
C488 C489 1.398 . S
C489 H477 0.950 . S
C489 C488 1.398 . S
C489 C490 1.391 . S
C490 H478 0.950 . S
C490 C486 1.393 . S
C490 C489 1.391 . S
H491 C499 0.950 . S
H492 C504 0.950 . S
H493 C501 0.950 . S
H494 C503 0.950 . S
H495 C505 0.950 . S
H496 C507 0.950 . S
H497 C509 0.950 . S
H498 C510 0.950 . S
C499 H491 0.950 . S
C499 C500 1.386 . S
C499 C501 1.391 . S
C500 C499 1.386 . S
C500 C504 1.393 . S
C501 H493 0.950 . S
C501 C499 1.391 . S
C501 C502 1.400 . S
C502 C501 1.400 . S
C502 C503 1.398 . S
C502 C508 1.491 . S
C503 H494 0.950 . S
C503 C502 1.398 . S
C503 C504 1.391 . S
C504 H492 0.950 . S
C504 C500 1.393 . S
C504 C503 1.391 . S
C505 H495 0.950 . S
C505 C506 1.386 . S
C505 C507 1.391 . S
C506 C505 1.386 . S
C506 C510 1.393 . S
C507 H496 0.950 . S
C507 C505 1.391 . S
C507 C508 1.400 . S
C508 C502 1.491 . S
C508 C507 1.400 . S
C508 C509 1.398 . S
C509 H497 0.950 . S
C509 C508 1.398 . S
C509 C510 1.391 . S
C510 H498 0.950 . S
C510 C506 1.393 . S
C510 C509 1.391 . S
H511 C519 0.950 . S
H512 C524 0.950 . S
H513 C521 0.950 . S
H514 C523 0.950 . S
H515 C525 0.950 . S
H516 C527 0.950 . S
H517 C529 0.950 . S
H518 C530 0.950 . S
C519 H511 0.950 . S
C519 C520 1.386 . S
C519 C521 1.391 . S
C520 C519 1.386 . S
C520 C524 1.393 . S
C521 H513 0.950 . S
C521 C519 1.391 . S
C521 C522 1.400 . S
C522 C521 1.400 . S
C522 C523 1.398 . S
C522 C528 1.491 . S
C523 H514 0.950 . S
C523 C522 1.398 . S
C523 C524 1.391 . S
C524 H512 0.950 . S
C524 C520 1.393 . S
C524 C523 1.391 . S
C525 H515 0.950 . S
C525 C526 1.386 . S
C525 C527 1.391 . S
C526 C525 1.386 . S
C526 C530 1.393 . S
C527 H516 0.950 . S
C527 C525 1.391 . S
C527 C528 1.400 . S
C528 C522 1.491 . S
C528 C527 1.400 . S
C528 C529 1.398 . S
C529 H517 0.950 . S
C529 C528 1.398 . S
C529 C530 1.391 . S
C530 H518 0.950 . S
C530 C526 1.393 . S
C530 C529 1.391 . S
H531 C539 0.950 . S
H532 C544 0.950 . S
H533 C541 0.950 . S
H534 C543 0.950 . S
H535 C545 0.950 . S
H536 C547 0.950 . S
H537 C549 0.950 . S
H538 C550 0.950 . S
C539 H531 0.950 . S
C539 C540 1.386 . S
C539 C541 1.391 . S
C540 C539 1.386 . S
C540 C544 1.393 . S
C541 H533 0.950 . S
C541 C539 1.391 . S
C541 C542 1.400 . S
C542 C541 1.400 . S
C542 C543 1.398 . S
C542 C548 1.491 . S
C543 H534 0.950 . S
C543 C542 1.398 . S
C543 C544 1.391 . S
C544 H532 0.950 . S
C544 C540 1.393 . S
C544 C543 1.391 . S
C545 H535 0.950 . S
C545 C546 1.386 . S
C545 C547 1.391 . S
C546 C545 1.386 . S
C546 C550 1.393 . S
C547 H536 0.950 . S
C547 C545 1.391 . S
C547 C548 1.400 . S
C548 C542 1.491 . S
C548 C547 1.400 . S
C548 C549 1.398 . S
C549 H537 0.950 . S
C549 C548 1.398 . S
C549 C550 1.391 . S
C550 H538 0.950 . S
C550 C546 1.393 . S
C550 C549 1.391 . S
H551 C559 0.950 . S
H552 C564 0.950 . S
H553 C561 0.950 . S
H554 C563 0.950 . S
H555 C565 0.950 . S
H556 C567 0.950 . S
H557 C569 0.950 . S
H558 C570 0.950 . S
C559 H551 0.950 . S
C559 C560 1.386 . S
C559 C561 1.391 . S
C560 C559 1.386 . S
C560 C564 1.393 . S
C561 H553 0.950 . S
C561 C559 1.391 . S
C561 C562 1.400 . S
C562 C561 1.400 . S
C562 C563 1.398 . S
C562 C568 1.491 . S
C563 H554 0.950 . S
C563 C562 1.398 . S
C563 C564 1.391 . S
C564 H552 0.950 . S
C564 C560 1.393 . S
C564 C563 1.391 . S
C565 H555 0.950 . S
C565 C566 1.386 . S
C565 C567 1.391 . S
C566 C565 1.386 . S
C566 C570 1.393 . S
C567 H556 0.950 . S
C567 C565 1.391 . S
C567 C568 1.400 . S
C568 C562 1.491 . S
C568 C567 1.400 . S
C568 C569 1.398 . S
C569 H557 0.950 . S
C569 C568 1.398 . S
C569 C570 1.391 . S
C570 H558 0.950 . S
C570 C566 1.393 . S
C570 C569 1.391 . S
H571 C579 0.950 1_554 S
H572 C584 0.950 . S
H573 C581 0.950 . S
H574 C583 0.950 . S
H575 C585 0.950 . S
H576 C587 0.950 . S
H577 C589 0.950 . S
H578 C590 0.950 . S
C579 H571 0.950 1_556 S
C579 C580 1.386 . S
C579 C581 1.391 . S
C580 C579 1.386 . S
C580 C584 1.393 . S
C581 H573 0.950 . S
C581 C579 1.391 . S
C581 C582 1.400 . S
C582 C581 1.400 . S
C582 C583 1.398 . S
C582 C588 1.491 . S
C583 H574 0.950 . S
C583 C582 1.398 . S
C583 C584 1.391 . S
C584 H572 0.950 . S
C584 C580 1.393 . S
C584 C583 1.391 . S
C585 H575 0.950 . S
C585 C586 1.386 . S
C585 C587 1.391 . S
C586 C585 1.386 . S
C586 C590 1.393 . S
C587 H576 0.950 . S
C587 C585 1.391 . S
C587 C588 1.400 . S
C588 C582 1.491 . S
C588 C587 1.400 . S
C588 C589 1.398 . S
C589 H577 0.950 . S
C589 C588 1.398 . S
C589 C590 1.391 . S
C590 H578 0.950 . S
C590 C586 1.393 . S
C590 C589 1.391 . S
H591 C599 0.950 . S
H592 C604 0.950 . S
H593 C601 0.950 . S
H594 C603 0.950 . S
H595 C605 0.950 . S
H596 C607 0.950 . S
H597 C609 0.950 . S
H598 C610 0.950 . S
C599 H591 0.950 . S
C599 C600 1.386 . S
C599 C601 1.391 1_554 S
C600 C599 1.386 . S
C600 C604 1.393 1_554 S
C601 H593 0.950 . S
C601 C599 1.391 1_556 S
C601 C602 1.400 . S
C602 C601 1.400 . S
C602 C603 1.398 . S
C602 C608 1.491 . S
C603 H594 0.950 . S
C603 C602 1.398 . S
C603 C604 1.391 . S
C604 H592 0.950 . S
C604 C600 1.393 1_556 S
C604 C603 1.391 . S
C605 H595 0.950 . S
C605 C606 1.386 . S
C605 C607 1.391 . S
C606 C605 1.386 . S
C606 C610 1.393 . S
C607 H596 0.950 . S
C607 C605 1.391 . S
C607 C608 1.400 . S
C608 C602 1.491 . S
C608 C607 1.400 . S
C608 C609 1.398 . S
C609 H597 0.950 . S
C609 C608 1.398 . S
C609 C610 1.391 . S
C610 H598 0.950 . S
C610 C606 1.393 . S
C610 C609 1.391 . S
H611 C619 0.950 1_554 S
H612 C624 0.950 . S
H613 C621 0.950 . S
H614 C623 0.950 . S
H615 C625 0.950 . S
H616 C627 0.950 . S
H617 C629 0.950 . S
H618 C630 0.950 . S
C619 H611 0.950 1_556 S
C619 C620 1.386 1_556 S
C619 C621 1.391 . S
C620 C619 1.386 1_554 S
C620 C624 1.393 1_554 S
C621 H613 0.950 . S
C621 C619 1.391 . S
C621 C622 1.400 . S
C622 C621 1.400 . S
C622 C623 1.398 . S
C622 C628 1.491 . S
C623 H614 0.950 . S
C623 C622 1.398 . S
C623 C624 1.391 . S
C624 H612 0.950 . S
C624 C620 1.393 1_556 S
C624 C623 1.391 . S
C625 H615 0.950 . S
C625 C626 1.386 . S
C625 C627 1.391 . S
C626 C625 1.386 . S
C626 C630 1.393 . S
C627 H616 0.950 . S
C627 C625 1.391 . S
C627 C628 1.400 . S
C628 C622 1.491 . S
C628 C627 1.400 . S
C628 C629 1.398 . S
C629 H617 0.950 . S
C629 C628 1.398 . S
C629 C630 1.391 . S
C630 H618 0.950 . S
C630 C626 1.393 . S
C630 C629 1.391 . S
H631 C639 0.950 . S
H632 C644 0.950 . S
H633 C641 0.950 . S
H634 C643 0.950 . S
H635 C645 0.950 . S
H636 C647 0.950 . S
H637 C649 0.950 . S
H638 C650 0.950 . S
C639 H631 0.950 . S
C639 C640 1.386 . S
C639 C641 1.391 . S
C640 C639 1.386 . S
C640 C644 1.393 1_554 S
C641 H633 0.950 . S
C641 C639 1.391 . S
C641 C642 1.400 1_554 S
C642 C641 1.400 1_556 S
C642 C643 1.398 . S
C642 C648 1.491 . S
C643 H634 0.950 . S
C643 C642 1.398 . S
C643 C644 1.391 . S
C644 H632 0.950 . S
C644 C640 1.393 1_556 S
C644 C643 1.391 . S
C645 H635 0.950 . S
C645 C646 1.386 . S
C645 C647 1.391 . S
C646 C645 1.386 . S
C646 C650 1.393 . S
C647 H636 0.950 . S
C647 C645 1.391 . S
C647 C648 1.400 . S
C648 C642 1.491 . S
C648 C647 1.400 . S
C648 C649 1.398 . S
C649 H637 0.950 . S
C649 C648 1.398 . S
C649 C650 1.391 . S
C650 H638 0.950 . S
C650 C646 1.393 . S
C650 C649 1.391 . S
H651 C659 0.950 . S
H652 C664 0.950 . S
H653 C661 0.950 . S
H654 C663 0.950 . S
H655 C665 0.950 . S
H656 C667 0.950 . S
H657 C669 0.950 . S
H658 C670 0.950 . S
C659 H651 0.950 . S
C659 C660 1.386 . S
C659 C661 1.391 . S
C660 C659 1.386 . S
C660 C664 1.393 . S
C661 H653 0.950 . S
C661 C659 1.391 . S
C661 C662 1.400 . S
C662 C661 1.400 . S
C662 C663 1.398 . S
C662 C668 1.491 . S
C663 H654 0.950 . S
C663 C662 1.398 . S
C663 C664 1.391 . S
C664 H652 0.950 . S
C664 C660 1.393 . S
C664 C663 1.391 . S
C665 H655 0.950 . S
C665 C666 1.386 . S
C665 C667 1.391 . S
C666 C665 1.386 . S
C666 C670 1.393 . S
C667 H656 0.950 . S
C667 C665 1.391 . S
C667 C668 1.400 . S
C668 C662 1.491 . S
C668 C667 1.400 . S
C668 C669 1.398 . S
C669 H657 0.950 . S
C669 C668 1.398 . S
C669 C670 1.391 . S
C670 H658 0.950 . S
C670 C666 1.393 . S
C670 C669 1.391 . S
H671 C679 0.950 . S
H672 C684 0.950 . S
H673 C681 0.950 . S
H674 C683 0.950 . S
H675 C685 0.950 . S
H676 C687 0.950 . S
H677 C689 0.950 . S
H678 C690 0.950 . S
C679 H671 0.950 . S
C679 C680 1.386 . S
C679 C681 1.391 . S
C680 C679 1.386 . S
C680 C684 1.393 . S
C681 H673 0.950 . S
C681 C679 1.391 . S
C681 C682 1.400 . S
C682 C681 1.400 . S
C682 C683 1.398 . S
C682 C688 1.491 . S
C683 H674 0.950 . S
C683 C682 1.398 . S
C683 C684 1.391 . S
C684 H672 0.950 . S
C684 C680 1.393 . S
C684 C683 1.391 . S
C685 H675 0.950 . S
C685 C686 1.386 . S
C685 C687 1.391 . S
C686 C685 1.386 . S
C686 C690 1.393 . S
C687 H676 0.950 . S
C687 C685 1.391 . S
C687 C688 1.400 . S
C688 C682 1.491 . S
C688 C687 1.400 . S
C688 C689 1.398 . S
C689 H677 0.950 . S
C689 C688 1.398 . S
C689 C690 1.391 . S
C690 H678 0.950 . S
C690 C686 1.393 . S
C690 C689 1.391 . S
H691 C699 0.950 1_556 S
H692 C704 0.950 . S
H693 C701 0.950 . S
H694 C703 0.950 . S
H695 C705 0.950 . S
H696 C707 0.950 . S
H697 C709 0.950 . S
H698 C710 0.950 . S
C699 H691 0.950 1_554 S
C699 C700 1.386 . S
C699 C701 1.391 1_554 S
C700 C699 1.386 . S
C700 C704 1.393 . S
C701 H693 0.950 . S
C701 C699 1.391 1_556 S
C701 C702 1.400 . S
C702 C701 1.400 . S
C702 C703 1.398 1_556 S
C702 C708 1.491 . S
C703 H694 0.950 . S
C703 C702 1.398 1_554 S
C703 C704 1.391 . S
C704 H692 0.950 . S
C704 C700 1.393 . S
C704 C703 1.391 . S
C705 H695 0.950 . S
C705 C706 1.386 . S
C705 C707 1.391 . S
C706 C705 1.386 . S
C706 C710 1.393 . S
C707 H696 0.950 . S
C707 C705 1.391 . S
C707 C708 1.400 . S
C708 C702 1.491 . S
C708 C707 1.400 . S
C708 C709 1.398 . S
C709 H697 0.950 . S
C709 C708 1.398 . S
C709 C710 1.391 . S
C710 H698 0.950 . S
C710 C706 1.393 . S
C710 C709 1.391 . S
H711 C719 0.950 . S
H712 C724 0.950 . S
H713 C721 0.950 . S
H714 C723 0.950 . S
H715 C725 0.950 . S
H716 C727 0.950 . S
H717 C729 0.950 . S
H718 C730 0.950 . S
C719 H711 0.950 . S
C719 C720 1.386 1_556 S
C719 C721 1.391 . S
C720 C719 1.386 1_554 S
C720 C724 1.393 . S
C721 H713 0.950 . S
C721 C719 1.391 . S
C721 C722 1.400 . S
C722 C721 1.400 . S
C722 C723 1.398 1_556 S
C722 C728 1.491 . S
C723 H714 0.950 . S
C723 C722 1.398 1_554 S
C723 C724 1.391 . S
C724 H712 0.950 . S
C724 C720 1.393 . S
C724 C723 1.391 . S
C725 H715 0.950 . S
C725 C726 1.386 . S
C725 C727 1.391 . S
C726 C725 1.386 . S
C726 C730 1.393 . S
C727 H716 0.950 . S
C727 C725 1.391 . S
C727 C728 1.400 . S
C728 C722 1.491 . S
C728 C727 1.400 . S
C728 C729 1.398 . S
C729 H717 0.950 . S
C729 C728 1.398 . S
C729 C730 1.391 . S
C730 H718 0.950 . S
C730 C726 1.393 . S
C730 C729 1.391 . S
H731 C739 0.950 1_554 S
H732 C744 0.950 . S
H733 C741 0.950 . S
H734 C743 0.950 . S
H735 C745 0.950 . S
H736 C747 0.950 . S
H737 C749 0.950 . S
H738 C750 0.950 . S
C739 H731 0.950 1_556 S
C739 C740 1.386 . S
C739 C741 1.391 . S
C740 C739 1.386 . S
C740 C744 1.393 . S
C741 H733 0.950 . S
C741 C739 1.391 . S
C741 C742 1.400 . S
C742 C741 1.400 . S
C742 C743 1.398 . S
C742 C748 1.491 . S
C743 H734 0.950 . S
C743 C742 1.398 . S
C743 C744 1.391 . S
C744 H732 0.950 . S
C744 C740 1.393 . S
C744 C743 1.391 . S
C745 H735 0.950 . S
C745 C746 1.386 . S
C745 C747 1.391 . S
C746 C745 1.386 . S
C746 C750 1.393 . S
C747 H736 0.950 . S
C747 C745 1.391 . S
C747 C748 1.400 . S
C748 C742 1.491 . S
C748 C747 1.400 . S
C748 C749 1.398 . S
C749 H737 0.950 . S
C749 C748 1.398 . S
C749 C750 1.391 . S
C750 H738 0.950 . S
C750 C746 1.393 . S
C750 C749 1.391 . S
H751 C759 0.950 . S
H752 C764 0.950 . S
H753 C761 0.950 . S
H754 C763 0.950 . S
H755 C765 0.950 . S
H756 C767 0.950 . S
H757 C769 0.950 . S
H758 C770 0.950 . S
C759 H751 0.950 . S
C759 C760 1.386 . S
C759 C761 1.391 . S
C760 C759 1.386 . S
C760 C764 1.393 . S
C761 H753 0.950 . S
C761 C759 1.391 . S
C761 C762 1.400 . S
C762 C761 1.400 . S
C762 C763 1.398 . S
C762 C768 1.491 . S
C763 H754 0.950 . S
C763 C762 1.398 . S
C763 C764 1.391 . S
C764 H752 0.950 . S
C764 C760 1.393 . S
C764 C763 1.391 . S
C765 H755 0.950 . S
C765 C766 1.386 . S
C765 C767 1.391 . S
C766 C765 1.386 . S
C766 C770 1.393 . S
C767 H756 0.950 . S
C767 C765 1.391 . S
C767 C768 1.400 . S
C768 C762 1.491 . S
C768 C767 1.400 . S
C768 C769 1.398 . S
C769 H757 0.950 . S
C769 C768 1.398 . S
C769 C770 1.391 . S
C770 H758 0.950 . S
C770 C766 1.393 . S
C770 C769 1.391 . S
H771 C779 0.950 . S
H772 C784 0.950 . S
H773 C781 0.950 . S
H774 C783 0.950 . S
H775 C785 0.950 . S
H776 C787 0.950 . S
H777 C789 0.950 . S
H778 C790 0.950 . S
C779 H771 0.950 . S
C779 C780 1.386 . S
C779 C781 1.391 . S
C780 C779 1.386 . S
C780 C784 1.393 . S
C781 H773 0.950 . S
C781 C779 1.391 . S
C781 C782 1.400 . S
C782 C781 1.400 . S
C782 C783 1.398 . S
C782 C788 1.491 . S
C783 H774 0.950 . S
C783 C782 1.398 . S
C783 C784 1.391 . S
C784 H772 0.950 . S
C784 C780 1.393 . S
C784 C783 1.391 . S
C785 H775 0.950 . S
C785 C786 1.386 . S
C785 C787 1.391 . S
C786 C785 1.386 . S
C786 C790 1.393 . S
C787 H776 0.950 . S
C787 C785 1.391 . S
C787 C788 1.400 . S
C788 C782 1.491 . S
C788 C787 1.400 . S
C788 C789 1.398 . S
C789 H777 0.950 . S
C789 C788 1.398 . S
C789 C790 1.391 . S
C790 H778 0.950 . S
C790 C786 1.393 . S
C790 C789 1.391 . S
H791 C799 0.950 . S
H792 C804 0.950 . S
H793 C801 0.950 . S
H794 C803 0.950 . S
H795 C805 0.950 . S
H796 C807 0.950 . S
H797 C809 0.950 . S
H798 C810 0.950 . S
C799 H791 0.950 . S
C799 C800 1.386 . S
C799 C801 1.391 . S
C800 C799 1.386 . S
C800 C804 1.393 . S
C801 H793 0.950 . S
C801 C799 1.391 . S
C801 C802 1.400 . S
C802 C801 1.400 . S
C802 C803 1.398 . S
C802 C808 1.491 . S
C803 H794 0.950 . S
C803 C802 1.398 . S
C803 C804 1.391 . S
C804 H792 0.950 . S
C804 C800 1.393 . S
C804 C803 1.391 . S
C805 H795 0.950 . S
C805 C806 1.386 . S
C805 C807 1.391 . S
C806 C805 1.386 . S
C806 C810 1.393 . S
C807 H796 0.950 . S
C807 C805 1.391 . S
C807 C808 1.400 . S
C808 C802 1.491 . S
C808 C807 1.400 . S
C808 C809 1.398 . S
C809 H797 0.950 . S
C809 C808 1.398 . S
C809 C810 1.391 . S
C810 H798 0.950 . S
C810 C806 1.393 . S
C810 C809 1.391 . S
H811 C819 0.950 . S
H812 C824 0.950 . S
H813 C821 0.950 . S
H814 C823 0.950 . S
H815 C825 0.950 . S
H816 C827 0.950 . S
H817 C829 0.950 . S
H818 C830 0.950 . S
C819 H811 0.950 . S
C819 C820 1.386 . S
C819 C821 1.391 . S
C820 C819 1.386 . S
C820 C824 1.393 . S
C821 H813 0.950 . S
C821 C819 1.391 . S
C821 C822 1.400 . S
C822 C821 1.400 . S
C822 C823 1.398 . S
C822 C828 1.491 . S
C823 H814 0.950 . S
C823 C822 1.398 . S
C823 C824 1.391 . S
C824 H812 0.950 . S
C824 C820 1.393 . S
C824 C823 1.391 . S
C825 H815 0.950 . S
C825 C826 1.386 . S
C825 C827 1.391 . S
C826 C825 1.386 . S
C826 C830 1.393 . S
C827 H816 0.950 . S
C827 C825 1.391 . S
C827 C828 1.400 . S
C828 C822 1.491 . S
C828 C827 1.400 . S
C828 C829 1.398 . S
C829 H817 0.950 . S
C829 C828 1.398 . S
C829 C830 1.391 . S
C830 H818 0.950 . S
C830 C826 1.393 . S
C830 C829 1.391 . S
H831 C839 0.950 . S
H832 C844 0.950 . S
H833 C841 0.950 . S
H834 C843 0.950 . S
H835 C845 0.950 . S
H836 C847 0.950 . S
H837 C849 0.950 . S
H838 C850 0.950 . S
C839 H831 0.950 . S
C839 C840 1.386 . S
C839 C841 1.391 . S
C840 C839 1.386 . S
C840 C844 1.393 . S
C841 H833 0.950 . S
C841 C839 1.391 . S
C841 C842 1.400 . S
C842 C841 1.400 . S
C842 C843 1.398 . S
C842 C848 1.491 . S
C843 H834 0.950 . S
C843 C842 1.398 . S
C843 C844 1.391 . S
C844 H832 0.950 . S
C844 C840 1.393 . S
C844 C843 1.391 . S
C845 H835 0.950 . S
C845 C846 1.386 . S
C845 C847 1.391 . S
C846 C845 1.386 . S
C846 C850 1.393 . S
C847 H836 0.950 . S
C847 C845 1.391 . S
C847 C848 1.400 . S
C848 C842 1.491 . S
C848 C847 1.400 . S
C848 C849 1.398 . S
C849 H837 0.950 . S
C849 C848 1.398 . S
C849 C850 1.391 . S
C850 H838 0.950 . S
C850 C846 1.393 . S
C850 C849 1.391 . S
H851 C859 0.950 . S
H852 C864 0.950 . S
H853 C861 0.950 . S
H854 C863 0.950 . S
H855 C865 0.950 . S
H856 C867 0.950 . S
H857 C869 0.950 . S
H858 C870 0.950 . S
C859 H851 0.950 . S
C859 C860 1.386 . S
C859 C861 1.391 . S
C860 C859 1.386 . S
C860 C864 1.393 . S
C861 H853 0.950 . S
C861 C859 1.391 . S
C861 C862 1.400 . S
C862 C861 1.400 . S
C862 C863 1.398 . S
C862 C868 1.491 . S
C863 H854 0.950 . S
C863 C862 1.398 . S
C863 C864 1.391 . S
C864 H852 0.950 . S
C864 C860 1.393 . S
C864 C863 1.391 . S
C865 H855 0.950 . S
C865 C866 1.386 . S
C865 C867 1.391 . S
C866 C865 1.386 . S
C866 C870 1.393 . S
C867 H856 0.950 . S
C867 C865 1.391 . S
C867 C868 1.400 . S
C868 C862 1.491 . S
C868 C867 1.400 . S
C868 C869 1.398 . S
C869 H857 0.950 . S
C869 C868 1.398 . S
C869 C870 1.391 . S
C870 H858 0.950 . S
C870 C866 1.393 . S
C870 C869 1.391 . S
H871 C879 0.950 . S
H872 C884 0.950 . S
H873 C881 0.950 . S
H874 C883 0.950 . S
H875 C885 0.950 . S
H876 C887 0.950 . S
H877 C889 0.950 . S
H878 C890 0.950 . S
C879 H871 0.950 . S
C879 C880 1.386 . S
C879 C881 1.391 . S
C880 C879 1.386 . S
C880 C884 1.393 . S
C881 H873 0.950 . S
C881 C879 1.391 . S
C881 C882 1.400 . S
C882 C881 1.400 . S
C882 C883 1.398 . S
C882 C888 1.491 . S
C883 H874 0.950 . S
C883 C882 1.398 . S
C883 C884 1.391 . S
C884 H872 0.950 . S
C884 C880 1.393 . S
C884 C883 1.391 . S
C885 H875 0.950 . S
C885 C886 1.386 . S
C885 C887 1.391 . S
C886 C885 1.386 . S
C886 C890 1.393 . S
C887 H876 0.950 . S
C887 C885 1.391 . S
C887 C888 1.400 . S
C888 C882 1.491 . S
C888 C887 1.400 . S
C888 C889 1.398 . S
C889 H877 0.950 . S
C889 C888 1.398 . S
C889 C890 1.391 . S
C890 H878 0.950 . S
C890 C886 1.393 . S
C890 C889 1.391 . S
C420 C22 1.887 . S
C426 C329 1.811 . S
C440 C92 1.839 . S
C446 C376 1.800 . S
C466 C380 1.934 . S
C460 C144 2.003 . S
C486 C345 1.655 . S
C480 C197 1.694 . S
C500 C250 1.998 . S
C506 C360 1.937 . S
C526 C382 1.086 . S
C520 C287 1.118 . S
C546 C351 1.582 . S
C540 C145 1.636 . S
C560 C198 1.564 . S
C566 C391 1.524 . S
C586 C320 1.537 . S
C580 C251 1.600 . S
C600 C294 1.479 . S
C606 C349 1.435 . S
C620 C29 1.935 . S
C626 C407 1.876 . S
C646 C318 1.746 . S
C640 C91 1.786 . S
C666 C336 1.645 . S
C660 C188 1.703 . S
C686 C350 1.341 . S
C680 C241 1.384 . S
C706 C404 1.775 . S
C700 C304 1.838 . S
C726 C319 1.491 . S
C720 C39 1.519 . S
C746 C367 1.472 . S
C740 C75 1.550 1_556 S
C760 C135 0.927 . S
C766 C390 0.909 . S
C786 C359 1.395 . S
C780 C303 1.442 . S
C806 C398 1.329 . S
C800 C38 1.360 . S
C826 C328 1.108 . S
C820 C82 1.166 . S
C846 C373 1.264 . S
C840 C128 1.304 . S
C860 C181 1.764 . S
C866 C381 1.726 . S
C880 C234 1.326 . S
C886 C342 1.286 . S
