# Generated by pormake.
# Topology zzz, (3,6)-cn, num edge types: 1
# Building blocks:
#     Node 0, Type 0, BuildingBlock: WUSLED_clean_sbu_0, # of connection points: 3
#     Node 1, Type 0, BuildingBlock: WUSLED_clean_sbu_0, # of connection points: 3
#     Node 2, Type 0, BuildingBlock: WUSLED_clean_sbu_0, # of connection points: 3
#     Node 3, Type 0, BuildingBlock: WUSLED_clean_sbu_0, # of connection points: 3
#     Node 4, Type 0, BuildingBlock: WUSLED_clean_sbu_0, # of connection points: 3
#     Node 5, Type 0, BuildingBlock: WUSLED_clean_sbu_0, # of connection points: 3
#     Node 6, Type 0, BuildingBlock: WUSLED_clean_sbu_0, # of connection points: 3
#     Node 7, Type 0, BuildingBlock: WUSLED_clean_sbu_0, # of connection points: 3
#     Node 8, Type 1, BuildingBlock: KUMBUR_clean_sbu_1, # of connection points: 6
#     Node 9, Type 1, BuildingBlock: KUMBUR_clean_sbu_1, # of connection points: 6
#     Node 10, Type 1, BuildingBlock: KUMBUR_clean_sbu_1, # of connection points: 6
#     Node 11, Type 1, BuildingBlock: KUMBUR_clean_sbu_1, # of connection points: 6
#     Edge 12, Type (0, 1), BuildingBlock: MIFKUJ_clean_linker_0, # of connection points: 2
#     Edge 13, Type (0, 1), BuildingBlock: MIFKUJ_clean_linker_0, # of connection points: 2
#     Edge 14, Type (0, 1), BuildingBlock: MIFKUJ_clean_linker_0, # of connection points: 2
#     Edge 15, Type (0, 1), BuildingBlock: MIFKUJ_clean_linker_0, # of connection points: 2
#     Edge 16, Type (0, 1), BuildingBlock: MIFKUJ_clean_linker_0, # of connection points: 2
#     Edge 17, Type (0, 1), BuildingBlock: MIFKUJ_clean_linker_0, # of connection points: 2
#     Edge 18, Type (0, 1), BuildingBlock: MIFKUJ_clean_linker_0, # of connection points: 2
#     Edge 19, Type (0, 1), BuildingBlock: MIFKUJ_clean_linker_0, # of connection points: 2
#     Edge 20, Type (0, 1), BuildingBlock: MIFKUJ_clean_linker_0, # of connection points: 2
#     Edge 21, Type (0, 1), BuildingBlock: MIFKUJ_clean_linker_0, # of connection points: 2
#     Edge 22, Type (0, 1), BuildingBlock: MIFKUJ_clean_linker_0, # of connection points: 2
#     Edge 23, Type (0, 1), BuildingBlock: MIFKUJ_clean_linker_0, # of connection points: 2
#     Edge 24, Type (0, 1), BuildingBlock: MIFKUJ_clean_linker_0, # of connection points: 2
#     Edge 25, Type (0, 1), BuildingBlock: MIFKUJ_clean_linker_0, # of connection points: 2
#     Edge 26, Type (0, 1), BuildingBlock: MIFKUJ_clean_linker_0, # of connection points: 2
#     Edge 27, Type (0, 1), BuildingBlock: MIFKUJ_clean_linker_0, # of connection points: 2
#     Edge 28, Type (0, 1), BuildingBlock: MIFKUJ_clean_linker_0, # of connection points: 2
#     Edge 29, Type (0, 1), BuildingBlock: MIFKUJ_clean_linker_0, # of connection points: 2
#     Edge 30, Type (0, 1), BuildingBlock: MIFKUJ_clean_linker_0, # of connection points: 2
#     Edge 31, Type (0, 1), BuildingBlock: MIFKUJ_clean_linker_0, # of connection points: 2
#     Edge 32, Type (0, 1), BuildingBlock: MIFKUJ_clean_linker_0, # of connection points: 2
#     Edge 33, Type (0, 1), BuildingBlock: MIFKUJ_clean_linker_0, # of connection points: 2
#     Edge 34, Type (0, 1), BuildingBlock: MIFKUJ_clean_linker_0, # of connection points: 2
#     Edge 35, Type (0, 1), BuildingBlock: MIFKUJ_clean_linker_0, # of connection points: 2
# Relax obj value: 0.267
# Max RMSD: 0.201
# Mean RMSD: 0.173
data_MOF--net-zzz--node1-WUSLED_clean_sbu_0--node2-KUMBUR_clean_sbu_1--edge1-MIFKUJ_clean_linker_0
_symmetry_space_group_name_H-M    P1
_symmetry_Int_Tables_number       1
_symmetry_cell_setting            triclinic
loop_
_symmetry_equiv_pos_as_xyz
'x, y, z'
_cell_length_a     75.005612
_cell_length_b     74.61127
_cell_length_c     27.63411
_cell_angle_alpha  89.925155
_cell_angle_beta   89.787131
_cell_angle_gamma 90.555757
loop_
_atom_site_label
_atom_site_type_symbol
_atom_site_fract_x
_atom_site_fract_y
_atom_site_fract_z
_atom_type_partial_charge
C0 C 0.76848 0.5525 0.32517 0.0
C1 C 0.7847 0.55138 0.2997 0.0
C2 C 0.80206 0.55163 0.37567 0.0
C3 C 0.80117 0.55097 0.32447 0.0
C4 C 0.7857 0.55285 0.40089 0.0
C5 C 0.76926 0.55329 0.37609 0.0
U6 U 0.7357 0.55358 0.21297 0.0
O7 O 0.71094 0.53793 0.20032 0.0
O8 O 0.70963 0.56706 0.20525 0.0
C9 C 0.70096 0.55217 0.19476 0.0
C10 C 0.75064 0.55235 0.30021 0.0
C11 C 0.68874 0.55249 0.15149 0.0
C12 C 0.65826 0.55396 0.11955 0.0
C13 C 0.6703 0.55445 0.15864 0.0
C14 C 0.68277 0.5499 0.06415 0.0
C15 C 0.66412 0.55141 0.07138 0.0
C16 C 0.69486 0.55041 0.10352 0.0
C17 C 0.7703 0.55829 0.10215 0.0
C18 C 0.78022 0.56544 0.02086 0.0
C19 C 0.80128 0.55439 0.08003 0.0
C20 C 0.78764 0.5533 0.11468 0.0
C21 C 0.79762 0.56035 0.03269 0.0
C22 C 0.76672 0.56443 0.05536 0.0
C23 C 0.7552 0.55664 0.13528 0.0
O24 O 0.74547 0.56725 0.27923 0.0
O25 O 0.74649 0.53809 0.27452 0.0
O26 O 0.75139 0.54103 0.15509 0.0
O27 O 0.74969 0.57067 0.15958 0.0
H28 H 0.78464 0.55066 0.26056 0.0
H29 H 0.81324 0.54976 0.30321 0.0
H30 H 0.78553 0.55365 0.44 0.0
H31 H 0.75704 0.55418 0.39696 0.0
H32 H 0.64423 0.55567 0.12742 0.0
H33 H 0.66509 0.55622 0.19491 0.0
H34 H 0.68808 0.54785 0.02814 0.0
H35 H 0.70899 0.54893 0.09648 0.0
H36 H 0.77703 0.57012 0.98483 0.0
H37 H 0.81455 0.55011 0.08979 0.0
H38 H 0.79053 0.54838 0.15068 0.0
H39 H 0.75332 0.56821 0.04523 0.0
C40 C 0.98062 0.77275 0.32468 0.0
C41 C 0.982 0.78854 0.29696 0.0
C42 C 0.98209 0.80739 0.37023 0.0
C43 C 0.98271 0.80553 0.31929 0.0
C44 C 0.98035 0.79148 0.39775 0.0
C45 C 0.97965 0.77448 0.37533 0.0
U46 U 0.97785 0.7429 0.21124 0.0
O47 O 0.99387 0.71959 0.18841 0.0
O48 O 0.96492 0.71668 0.19551 0.0
C49 C 0.97997 0.70885 0.18374 0.0
C50 C 0.98072 0.75456 0.30144 0.0
C51 C 0.98 0.69575 0.14241 0.0
C52 C 0.98563 0.66506 0.11478 0.0
C53 C 0.98487 0.67793 0.15188 0.0
C54 C 0.97624 0.68731 0.05707 0.0
C55 C 0.98153 0.66946 0.06646 0.0
C56 C 0.97555 0.70029 0.09448 0.0
C57 C 0.97085 0.77637 0.10051 0.0
C58 C 0.98195 0.78201 0.0193 0.0
C59 C 0.9604 0.80204 0.05544 0.0
C60 C 0.95996 0.79144 0.09687 0.0
C61 C 0.97183 0.79776 0.01698 0.0
C62 C 0.98144 0.7713 0.06094 0.0
C63 C 0.97315 0.7687 0.14881 0.0
O64 O 0.96563 0.74889 0.28251 0.0
O65 O 0.99445 0.75112 0.27338 0.0
O66 O 0.98898 0.76276 0.16083 0.0
O67 O 0.95975 0.76003 0.16916 0.0
H68 H 0.98266 0.78773 0.25786 0.0
H69 H 0.98367 0.81726 0.29632 0.0
H70 H 0.97998 0.79205 0.43687 0.0
H71 H 0.9786 0.7626 0.39779 0.0
H72 H 0.98941 0.65153 0.12421 0.0
H73 H 0.98822 0.67392 0.1884 0.0
H74 H 0.97305 0.69139 0.02053 0.0
H75 H 0.97171 0.71388 0.08584 0.0
H76 H 0.99087 0.77851 0.98995 0.0
H77 H 0.9528 0.81431 0.05501 0.0
H78 H 0.952 0.79575 0.12748 0.0
H79 H 0.99002 0.75974 0.06328 0.0
C80 C 0.76112 0.98509 0.32829 0.0
C81 C 0.74491 0.98339 0.30316 0.0
C82 C 0.72757 0.98649 0.37873 0.0
C83 C 0.72842 0.98402 0.32798 0.0
C84 C 0.74391 0.98807 0.40361 0.0
C85 C 0.76036 0.98734 0.37882 0.0
U86 U 0.79175 0.98386 0.21339 0.0
O87 O 0.81614 0.99965 0.19673 0.0
O88 O 0.81752 0.97044 0.1997 0.0
C89 C 0.82614 0.98548 0.19025 0.0
C90 C 0.77888 0.985 0.30298 0.0
C91 C 0.83876 0.98576 0.14786 0.0
C92 C 0.86953 0.98874 0.11808 0.0
C93 C 0.85713 0.98789 0.15644 0.0
C94 C 0.84555 0.98518 0.06086 0.0
C95 C 0.86406 0.9875 0.06938 0.0
C96 C 0.8331 0.98432 0.09949 0.0
C97 C 0.75618 0.97988 0.10379 0.0
C98 C 0.75023 0.9728 0.01978 0.0
C99 C 0.72623 0.98241 0.07253 0.0
C100 C 0.7382 0.98399 0.11078 0.0
C101 C 0.73212 0.97684 0.02661 0.0
C102 C 0.76217 0.9742 0.05832 0.0
C103 C 0.76853 0.98148 0.14423 0.0
O104 O 0.78357 0.97011 0.28117 0.0
O105 O 0.783 0.9993 0.27732 0.0
O106 O 0.77394 0.99708 0.161 0.0
O107 O 0.77575 0.96724 0.16382 0.0
H108 H 0.745 0.98171 0.26423 0.0
H109 H 0.71628 0.98296 0.30708 0.0
H110 H 0.74404 0.98971 0.44253 0.0
H111 H 0.77259 0.98864 0.39931 0.0
H112 H 0.88345 0.9908 0.12684 0.0
H113 H 0.86195 0.9891 0.19321 0.0
H114 H 0.84064 0.98388 0.02424 0.0
H115 H 0.81906 0.98259 0.09152 0.0
H116 H 0.7551 0.9685 0.98477 0.0
H117 H 0.71242 0.98593 0.07863 0.0
H118 H 0.73343 0.9884 0.14582 0.0
H119 H 0.77609 0.97102 0.05259 0.0
C120 C 0.54916 0.76623 0.3249 0.0
C121 C 0.54652 0.75039 0.29803 0.0
C122 C 0.54724 0.73196 0.37182 0.0
C123 C 0.54549 0.73351 0.32121 0.0
C124 C 0.55027 0.74775 0.39852 0.0
C125 C 0.55115 0.76463 0.37541 0.0
U126 U 0.55158 0.79755 0.21233 0.0
O127 O 0.53553 0.82125 0.19332 0.0
O128 O 0.56448 0.82399 0.19904 0.0
C129 C 0.54943 0.83195 0.18809 0.0
C130 C 0.54911 0.78445 0.30149 0.0
C131 C 0.54937 0.84469 0.14583 0.0
C132 C 0.54536 0.87544 0.11626 0.0
C133 C 0.54625 0.86296 0.15446 0.0
C134 C 0.55101 0.85177 0.05904 0.0
C135 C 0.54763 0.87018 0.06756 0.0
C136 C 0.55185 0.83923 0.09753 0.0
C137 C 0.55819 0.76203 0.1036 0.0
C138 C 0.55846 0.75707 0.017 0.0
C139 C 0.56277 0.7322 0.07228 0.0
C140 C 0.56124 0.7438 0.11136 0.0
C141 C 0.5613 0.73866 0.02469 0.0
C142 C 0.55692 0.76873 0.0564 0.0
C143 C 0.55592 0.7735 0.14571 0.0
O144 O 0.56415 0.79019 0.28207 0.0
O145 O 0.53528 0.78814 0.27428 0.0
O146 O 0.54003 0.77907 0.15868 0.0
O147 O 0.56955 0.78152 0.16647 0.0
H148 H 0.54499 0.75109 0.25911 0.0
H149 H 0.54323 0.72163 0.29955 0.0
H150 H 0.55164 0.74707 0.43749 0.0
H151 H 0.55316 0.77653 0.39723 0.0
H152 H 0.54243 0.88922 0.12519 0.0
H153 H 0.54423 0.86764 0.19116 0.0
H154 H 0.55315 0.84698 0.02256 0.0
H155 H 0.55434 0.82527 0.0895 0.0
H156 H 0.55721 0.76236 0.98067 0.0
H157 H 0.56442 0.71803 0.07946 0.0
H158 H 0.56206 0.73847 0.14779 0.0
H159 H 0.55454 0.78284 0.05013 0.0
C160 C 0.25771 0.47987 0.89278 0.0
C161 C 0.24141 0.47947 0.91813 0.0
C162 C 0.22432 0.48262 0.84219 0.0
C163 C 0.22499 0.4808 0.89325 0.0
C164 C 0.24079 0.4826 0.81721 0.0
C165 C 0.2571 0.48129 0.84204 0.0
U166 U 0.29294 0.47715 1.00071 0.0
O167 O 0.31709 0.49411 1.00755 0.0
O168 O 0.31984 0.46513 1.00096 0.0
C169 C 0.32794 0.48044 0.01041 0.0
C170 C 0.27556 0.47975 0.91732 0.0
C171 C 0.34072 0.48074 0.05207 0.0
C172 C 0.37083 0.48662 0.0829 0.0
C173 C 0.35873 0.48524 0.04414 0.0
C174 C 0.34726 0.47868 0.13885 0.0
C175 C 0.36536 0.4835 0.13121 0.0
C176 C 0.33515 0.47736 0.09994 0.0
C177 C 0.25952 0.47026 0.1103 0.0
C178 C 0.24624 0.46553 0.18932 0.0
C179 C 0.22808 0.47602 0.12278 0.0
C180 C 0.24296 0.47548 0.09198 0.0
C181 C 0.22978 0.47156 0.17209 0.0
C182 C 0.26095 0.46487 0.15863 0.0
C183 C 0.27609 0.47228 0.08282 0.0
O184 O 0.27968 0.49352 0.94488 0.0
O185 O 0.28146 0.46452 0.93491 0.0
O186 O 0.28123 0.4589 0.05538 0.0
O187 O 0.27958 0.4882 0.06449 0.0
H188 H 0.24136 0.47841 0.95721 0.0
H189 H 0.21284 0.48089 0.91445 0.0
H190 H 0.24119 0.48354 0.77814 0.0
H191 H 0.26939 0.4816 0.82132 0.0
H192 H 0.38442 0.49062 0.07482 0.0
H193 H 0.36345 0.48801 1.00776 0.0
H194 H 0.34238 0.47583 0.17497 0.0
H195 H 0.32135 0.47385 0.10735 0.0
H196 H 0.24786 0.46179 0.22694 0.0
H197 H 0.21553 0.48078 0.10869 0.0
H198 H 0.24171 0.47978 0.0547 0.0
H199 H 0.27371 0.46087 0.17328 0.0
C200 C 0.05554 0.26431 0.89166 0.0
C201 C 0.05371 0.24828 0.91815 0.0
C202 C 0.05203 0.23036 0.84313 0.0
C203 C 0.05202 0.23159 0.89429 0.0
C204 C 0.05435 0.24647 0.81694 0.0
C205 C 0.05604 0.2631 0.8408 0.0
U206 U 0.05864 0.30014 0.99828 0.0
O207 O 0.04174 0.32402 1.00635 0.0
O208 O 0.07052 0.32747 0.9985 0.0
C209 C 0.05532 0.33522 1.00914 0.0
C210 C 0.05569 0.28249 0.91508 0.0
C211 C 0.05521 0.34773 0.05167 0.0
C212 C 0.05181 0.37812 0.08399 0.0
C213 C 0.05307 0.36624 0.0445 0.0
C214 C 0.05516 0.35332 0.1392 0.0
C215 C 0.05265 0.37193 0.1323 0.0
C216 C 0.05638 0.34143 0.09958 0.0
C217 C 0.06592 0.26695 0.10791 0.0
C218 C 0.06825 0.254 0.18784 0.0
C219 C 0.0625 0.23486 0.11856 0.0
C220 C 0.06306 0.24988 0.08808 0.0
C221 C 0.06454 0.23696 0.16885 0.0
C222 C 0.06897 0.26885 0.15754 0.0
C223 C 0.06385 0.2834 0.08006 0.0
O224 O 0.04212 0.28646 0.94323 0.0
O225 O 0.0709 0.28887 0.93173 0.0
O226 O 0.07704 0.28866 0.05183 0.0
O227 O 0.04793 0.28653 0.0625 0.0
H228 H 0.05332 0.24868 0.9573 0.0
H229 H 0.05064 0.21961 0.91614 0.0
H230 H 0.05431 0.24635 0.77776 0.0
H231 H 0.05732 0.27518 0.81921 0.0
H232 H 0.04965 0.39216 0.07636 0.0
H233 H 0.05205 0.37153 1.00811 0.0
H234 H 0.05625 0.34783 0.17532 0.0
H235 H 0.05806 0.32725 0.10643 0.0
H236 H 0.07001 0.2559 0.22641 0.0
H237 H 0.05956 0.2218 0.10329 0.0
H238 H 0.0606 0.24829 0.04973 0.0
H239 H 0.07114 0.282 0.17327 0.0
C240 C 0.26858 0.05944 0.88147 0.0
C241 C 0.28361 0.06863 0.8997 0.0
C242 C 0.30282 0.05711 0.83391 0.0
C243 C 0.30039 0.06755 0.87626 0.0
C244 C 0.28756 0.0481 0.81588 0.0
C245 C 0.27083 0.04929 0.8391 0.0
U246 U 0.23861 0.0642 0.99575 0.0
O247 O 0.21188 0.07581 1.00967 0.0
O248 O 0.21608 0.04713 0.02061 0.0
C249 C 0.20473 0.06041 0.02328 0.0
C250 C 0.25064 0.05968 0.90626 0.0
C251 C 0.19142 0.06016 0.06428 0.0
C252 C 0.16065 0.05405 0.09103 0.0
C253 C 0.17358 0.05558 0.05407 0.0
C254 C 0.18286 0.06224 0.15008 0.0
C255 C 0.16501 0.05715 0.13993 0.0
C256 C 0.1959 0.06362 0.11287 0.0
C257 C 0.27253 0.07436 0.10391 0.0
C258 C 0.2763 0.06689 0.18857 0.0
C259 C 0.30044 0.08117 0.14386 0.0
C260 C 0.28972 0.0818 0.10296 0.0
C261 C 0.29407 0.07316 0.18667 0.0
C262 C 0.26559 0.06739 0.14721 0.0
C263 C 0.264 0.07123 0.05726 0.0
O264 O 0.24732 0.04643 0.93637 0.0
O265 O 0.2449 0.07511 0.92291 0.0
O266 O 0.25484 0.084 0.03634 0.0
O267 O 0.25852 0.05486 0.04731 0.0
H268 H 0.28243 0.07659 0.93229 0.0
H269 H 0.31144 0.07505 0.89148 0.0
H270 H 0.28849 0.03964 0.78423 0.0
H271 H 0.25959 0.04199 0.82409 0.0
H272 H 0.14713 0.05045 0.0811 0.0
H273 H 0.1696 0.05292 0.01709 0.0
H274 H 0.18691 0.06469 0.18706 0.0
H275 H 0.2095 0.06715 0.12218 0.0
H276 H 0.27099 0.06084 0.2213 0.0
H277 H 0.31412 0.08581 0.14075 0.0
H278 H 0.29536 0.08697 0.06948 0.0
H279 H 0.25233 0.06151 0.14833 0.0
C280 C 0.47283 0.27386 0.88138 0.0
C281 C 0.46511 0.28938 0.90114 0.0
C282 C 0.47509 0.30775 0.83149 0.0
C283 C 0.46615 0.30603 0.87651 0.0
C284 C 0.48252 0.29204 0.81174 0.0
C285 C 0.4814 0.27545 0.8362 0.0
U286 U 0.46882 0.24451 0.99765 0.0
O287 O 0.45742 0.21746 0.01303 0.0
O288 O 0.48601 0.22231 0.02215 0.0
C289 C 0.47285 0.21062 0.02559 0.0
C290 C 0.47274 0.25608 0.90734 0.0
C291 C 0.47345 0.197 0.06594 0.0
C292 C 0.4809 0.16636 0.0913 0.0
C293 C 0.4793 0.17958 0.05511 0.0
C294 C 0.47025 0.18736 0.15076 0.0
C295 C 0.47655 0.16997 0.13997 0.0
C296 C 0.46882 0.20072 0.11436 0.0
C297 C 0.45961 0.27799 0.10719 0.0
C298 C 0.4701 0.28224 0.18927 0.0
C299 C 0.45227 0.30512 0.15082 0.0
C300 C 0.45086 0.29448 0.1096 0.0
C301 C 0.46254 0.29942 0.19013 0.0
C302 C 0.46862 0.27153 0.14793 0.0
C303 C 0.46221 0.27021 0.05912 0.0
O304 O 0.4861 0.25327 0.93688 0.0
O305 O 0.4575 0.25019 0.92527 0.0
O306 O 0.44941 0.26062 0.03922 0.0
O307 O 0.4784 0.26514 0.04751 0.0
H308 H 0.45846 0.2887 0.93597 0.0
H309 H 0.46034 0.31767 0.89349 0.0
H310 H 0.48923 0.29248 0.77701 0.0
H311 H 0.48743 0.2638 0.81978 0.0
H312 H 0.48548 0.15319 0.08094 0.0
H313 H 0.48284 0.17616 0.01824 0.0
H314 H 0.46682 0.1908 0.18767 0.0
H315 H 0.46427 0.21397 0.12415 0.0
H316 H 0.47803 0.27761 0.21939 0.0
H317 H 0.44659 0.31842 0.15034 0.0
H318 H 0.44413 0.2998 0.07812 0.0
H319 H 0.47551 0.25885 0.14654 0.0
Tb320 Tb 0.99749 0.0303 0.56424 0.0
C321 C 0.065 0.03056 0.69741 0.0
N322 N 0.06174 0.02253 0.65412 0.0
C323 C 0.09248 0.02632 0.63154 0.0
C324 C 0.08233 0.03636 0.70992 0.0
C325 C 0.07515 0.02048 0.62098 0.0
C326 C 0.09613 0.03411 0.67637 0.0
C327 C 0.05381 0.0414 0.77445 0.0
C328 C 0.05087 0.03305 0.72931 0.0
C329 C 0.07115 0.04665 0.78761 0.0
C330 C 0.08537 0.04413 0.75545 0.0
Tb331 Tb 0.03393 1.01012 0.64718 0.0
N332 N 0.03427 0.02747 0.71584 0.0
C333 C 0.03927 0.04417 0.80521 0.0
C334 C 0.02012 0.03005 0.74627 0.0
C335 C 0.02234 0.03861 0.7908 0.0
H336 H 0.07284 1.01353 0.58736 0.0
H337 H 0.01099 0.0406 0.81443 0.0
H338 H 0.95732 0.02881 0.61527 0.0
H339 H 0.01996 1.00976 0.3862 0.0
H340 H 1.00711 0.0254 0.73765 0.0
H341 H 0.04098 0.05053 0.84014 0.0
H342 H 0.02193 0.02566 0.46287 0.0
H343 H 0.10311 0.02441 0.60555 0.0
H344 H 0.07368 0.05278 0.82248 0.0
H345 H 0.09865 0.04836 0.76603 0.0
H346 H 0.92768 0.01616 0.59714 0.0
H347 H 0.10964 0.03833 0.6847 0.0
H348 H 0.99213 0.99376 0.3646 0.0
N349 N 0.96959 0.01848 0.55207 0.0
C350 C 0.96706 1.00972 0.50952 0.0
C351 C 0.93869 0.01404 0.57243 0.0
C352 C 0.95016 1.00277 0.49675 0.0
C353 C 0.95564 0.02085 0.58327 0.0
C354 C 0.93593 1.00493 0.52901 0.0
N355 N 0.99728 0.01577 0.49086 0.0
C356 C 0.01061 0.01716 0.45719 0.0
C357 C 0.97904 1.00003 0.43237 0.0
C358 C 0.98136 1.00828 0.47792 0.0
C359 C 0.99338 0.99989 0.39997 0.0
C360 C 1.00915 1.00876 0.41218 0.0
H361 H 0.92272 0.9999 0.52037 0.0
H362 H 0.935 0.98893 0.44133 0.0
H363 H 0.96028 0.98658 0.38489 0.0
O364 O 1.0034 0.05234 0.51888 0.0
O365 O 0.99711 1.00046 0.56773 0.0
O366 O 0.02589 0.99227 0.5869 0.0
O367 O 0.97693 0.04874 0.55075 0.0
O368 O 0.02617 0.03507 0.54602 0.0
O369 O 0.04121 1.01 0.57016 0.0
O370 O 0.03161 0.99169 0.70427 0.0
O371 O 0.03417 0.03982 0.63864 0.0
O372 O 1.0045 0.04561 0.62992 0.0
O373 O 0.05498 0.99232 0.65903 0.0
O374 O 1.00581 1.0035 0.66625 0.0
O375 O 0.9888 0.02719 0.64024 0.0
C376 C 0.00982 0.98838 0.57026 0.0
C377 C 0.98107 0.07444 0.49784 0.0
C378 C 0.98799 0.10162 0.45198 0.0
C379 C 0.96963 0.10381 0.44343 0.0
C380 C 0.96284 0.07704 0.48965 0.0
C381 C 0.95718 0.09169 0.46256 0.0
C382 C 0.99355 0.08686 0.47958 0.0
C383 C 0.03966 0.02392 0.54137 0.0
C384 C 0.98715 0.05816 0.52234 0.0
C385 C 0.9479 0.99425 0.45188 0.0
C386 C 0.96231 0.99287 0.41979 0.0
C387 C 0.02075 0.05108 0.64049 0.0
C388 C 0.04715 0.96444 0.69429 0.0
C389 C 0.03667 0.93619 0.72842 0.0
C390 C 0.05068 0.92728 0.70517 0.0
C391 C 0.06116 0.95535 0.67126 0.0
C392 C 0.03481 0.95469 0.72248 0.0
C393 C 0.06285 0.93687 0.67671 0.0
C394 C 0.99102 1.01299 0.66818 0.0
C395 C 0.04675 0.98415 0.69416 0.0
H396 H 0.96482 0.11471 0.4213 0.0
H397 H 0.953 0.06753 0.50314 0.0
H398 H 0.94312 0.09348 0.45565 0.0
H399 H 1.00758 0.08499 0.48701 0.0
H400 H 0.05237 0.91297 0.70974 0.0
H401 H 0.07109 0.96257 0.65016 0.0
H402 H 0.02431 0.96156 0.74191 0.0
H403 H 0.07386 0.93001 0.65965 0.0
Tb404 Tb 0.52337 0.03849 0.64832 0.0
C405 C 0.50754 0.96076 0.54737 0.0
N406 N 0.51554 0.97561 0.5286 0.0
C407 C 0.533 0.95713 0.47553 0.0
C408 C 0.51187 0.94346 0.53065 0.0
C409 C 0.52806 0.97398 0.49271 0.0
C410 C 0.52486 0.94178 0.49456 0.0
C411 C 0.48588 0.94783 0.60286 0.0
C412 C 0.49478 0.96293 0.58308 0.0
C413 C 0.48999 0.9306 0.58598 0.0
C414 C 0.50298 0.92842 0.55004 0.0
Tb415 Tb 0.50532 1.00258 0.55689 0.0
N416 N 0.49118 0.97981 0.59861 0.0
C417 C 0.47307 0.95047 0.63889 0.0
C418 C 0.47852 0.98235 0.6336 0.0
C419 C 0.46941 0.96781 0.65439 0.0
H420 H 0.53351 0.98579 0.47527 0.0
H421 H 0.45947 0.97003 0.68218 0.0
H422 H 0.49185 0.05526 0.72027 0.0
H423 H 0.56859 0.07066 0.52065 0.0
H424 H 0.47527 0.99543 0.64615 0.0
H425 H 0.46591 0.93924 0.6549 0.0
H426 H 0.55228 0.04529 0.55557 0.0
H427 H 0.5428 0.95603 0.44687 0.0
H428 H 0.48321 0.91888 0.60053 0.0
H429 H 0.50602 0.91505 0.53736 0.0
H430 H 0.48243 0.08504 0.74804 0.0
H431 H 0.52854 0.92874 0.48074 0.0
H432 H 0.56281 0.1014 0.54955 0.0
N433 N 0.51179 0.06531 0.67241 0.0
C434 C 0.5203 0.08009 0.65487 0.0
C435 C 0.49302 0.08386 0.72156 0.0
C436 C 0.51581 0.0974 0.6711 0.0
C437 C 0.49809 0.06697 0.70485 0.0
C438 C 0.50203 0.09914 0.70497 0.0
N439 N 0.53709 0.06097 0.60477 0.0
C440 C 0.5495 0.05837 0.56918 0.0
C441 C 0.54262 0.0929 0.60109 0.0
C442 C 0.53349 0.07785 0.62027 0.0
C443 C 0.55549 0.0902 0.56518 0.0
C444 C 0.55879 0.07288 0.54882 0.0
H445 H 0.49823 0.11219 0.71847 0.0
H446 H 0.52215 0.12574 0.66566 0.0
H447 H 0.54565 0.12179 0.60437 0.0
O448 O 0.54847 0.03378 0.67917 0.0
O449 O 0.51013 0.04939 0.58293 0.0
O450 O 0.51786 0.02747 0.53035 0.0
O451 O 0.52762 0.04751 0.71977 0.0
O452 O 0.54422 0.02147 0.61424 0.0
O453 O 0.5339 1.00817 0.54359 0.0
O454 O 0.47968 1.00652 0.52745 0.0
O455 O 0.51744 0.99099 0.62306 0.0
O456 O 0.51223 1.01338 0.67753 0.0
O457 O 0.50172 0.99688 0.48321 0.0
O458 O 0.48533 0.02098 0.5904 0.0
O459 O 0.49595 0.02949 0.66511 0.0
C460 C 0.51124 0.04341 0.53821 0.0
C461 C 0.55578 0.04315 0.76094 0.0
C462 C 0.58249 0.03372 0.80262 0.0
C463 C 0.57745 0.04379 0.8432 0.0
C464 C 0.55086 0.05329 0.80157 0.0
C465 C 0.56175 0.05367 0.84243 0.0
C466 C 0.57178 0.0336 0.76138 0.0
C467 C 0.54697 1.01242 0.57368 0.0
C468 C 0.54376 0.04148 0.71948 0.0
C469 C 0.52522 0.11236 0.65311 0.0
C470 C 0.5386 0.11011 0.61822 0.0
C471 C 0.51777 0.9971 0.66789 0.0
C472 C 0.47356 1.00007 0.44257 0.0
C473 C 0.44559 1.0068 0.40355 0.0
C474 C 0.45131 0.99788 0.3617 0.0
C475 C 0.47932 0.99129 0.40042 0.0
C476 C 0.45673 1.00797 0.44377 0.0
C477 C 0.46819 0.99022 0.36015 0.0
C478 C 0.48265 0.02756 0.63433 0.0
C479 C 0.48509 1.00113 0.48506 0.0
H480 H 0.58567 0.04396 0.87538 0.0
H481 H 0.53853 0.06073 0.802 0.0
H482 H 0.5579 0.06142 0.87378 0.0
H483 H 0.57561 0.02552 0.7305 0.0
H484 H 0.44282 0.9971 0.33011 0.0
H485 H 0.49237 0.98521 0.39863 0.0
H486 H 0.45224 0.01498 0.47589 0.0
H487 H 0.47267 0.98349 0.32769 0.0
Tb488 Tb 0.53415 0.51015 0.55733 0.0
C489 C 0.46506 0.51328 0.701 0.0
N490 N 0.46777 0.52037 0.65636 0.0
C491 C 0.43715 0.51455 0.63642 0.0
C492 C 0.44844 0.5058 0.71455 0.0
C493 C 0.45383 0.52206 0.62518 0.0
C494 C 0.43456 0.50597 0.6809 0.0
C495 C 0.47524 0.511 0.78366 0.0
C496 C 0.47831 0.51562 0.73481 0.0
C497 C 0.45932 0.50212 0.79666 0.0
C498 C 0.44593 0.49948 0.76205 0.0
Tb499 Tb 0.49625 0.52982 0.63932 0.0
N500 N 0.49317 0.52475 0.72096 0.0
C501 C 0.4876 0.51667 0.81833 0.0
C502 C 0.50396 0.53227 0.75538 0.0
C503 C 0.50172 0.52787 0.80429 0.0
H504 H 0.45542 0.52969 0.59226 0.0
H505 H 0.51079 0.53325 0.83109 0.0
H506 H 0.57498 0.50965 0.60373 0.0
H507 H 0.50821 0.54654 0.4013 0.0
H508 H 0.51461 0.54138 0.74511 0.0
H509 H 0.48573 0.51347 0.85628 0.0
H510 H 0.50598 0.53311 0.48123 0.0
H511 H 0.42622 0.51568 0.61116 0.0
H512 H 0.45684 0.49816 0.83384 0.0
H513 H 0.43334 0.49346 0.77302 0.0
H514 H 0.60545 0.51662 0.57531 0.0
H515 H 0.42155 0.50044 0.68989 0.0
H516 H 0.53764 0.55027 0.36194 0.0
N517 N 0.56256 0.51888 0.53917 0.0
C518 C 0.56492 0.52613 0.49455 0.0
C519 C 0.59417 0.51939 0.55226 0.0
C520 C 0.58215 0.53004 0.47661 0.0
C521 C 0.57685 0.51563 0.56838 0.0
C522 C 0.59686 0.52647 0.50599 0.0
N523 N 0.53353 0.52669 0.48666 0.0
C524 C 0.51877 0.53337 0.46428 0.0
C525 C 0.55195 0.53846 0.42171 0.0
C526 C 0.54996 0.53011 0.46732 0.0
C527 C 0.53668 0.5438 0.397 0.0
C528 C 0.52006 0.54163 0.41896 0.0
H529 H 0.61031 0.52925 0.49346 0.0
H530 H 0.5973 0.54038 0.41557 0.0
H531 H 0.57084 0.54787 0.3676 0.0
O532 O 0.54036 0.49249 0.50044 0.0
O533 O 0.53646 0.53917 0.56976 0.0
O534 O 0.50678 0.54293 0.57324 0.0
O535 O 0.55071 0.48834 0.57223 0.0
O536 O 0.50688 0.5044 0.52965 0.0
O537 O 0.48591 0.52284 0.56696 0.0
O538 O 0.50613 0.55506 0.66093 0.0
O539 O 0.49393 0.50039 0.63364 0.0
O540 O 0.52296 0.49256 0.6154 0.0
O541 O 0.4781 0.55072 0.6448 0.0
O542 O 0.52102 0.52082 0.67624 0.0
O543 O 0.54485 0.52244 0.62361 0.0
C544 C 0.52286 0.55004 0.56912 0.0
C545 C 0.54753 0.46253 0.52334 0.0
C546 C 0.53493 0.43597 0.48445 0.0
C547 C 0.54599 0.42513 0.51266 0.0
C548 C 0.55859 0.45139 0.55091 0.0
C549 C 0.55778 0.43283 0.54564 0.0
C550 C 0.53568 0.45471 0.48969 0.0
C551 C 0.49059 0.51113 0.53332 0.0
C552 C 0.54974 0.48213 0.52829 0.0
C553 C 0.58416 0.5375 0.43023 0.0
C554 C 0.5691 0.54171 0.40286 0.0
C555 C 0.50658 0.48827 0.62973 0.0
C556 C 0.48494 0.57155 0.70626 0.0
C557 C 0.49197 0.59432 0.76608 0.0
C558 C 0.47471 0.59257 0.78544 0.0
C559 C 0.46772 0.56977 0.72631 0.0
C560 C 0.49708 0.58373 0.72675 0.0
C561 C 0.4627 0.58023 0.76578 0.0
C562 C 0.53818 0.52348 0.66759 0.0
C563 C 0.49003 0.56172 0.66229 0.0
H564 H 0.54558 0.41068 0.50883 0.0
H565 H 0.56806 0.45709 0.57627 0.0
H566 H 0.56641 0.42439 0.56695 0.0
H567 H 0.52717 0.46303 0.46762 0.0
H568 H 0.47051 0.60086 0.81549 0.0
H569 H 0.45802 0.56053 0.71117 0.0
H570 H 0.51025 0.5855 0.71097 0.0
H571 H 0.44937 0.57897 0.78067 0.0
Tb572 Tb 0.02385 0.53744 0.55928 0.0
C573 C 0.02581 0.47173 0.70311 0.0
N574 N 0.01746 0.47379 0.65992 0.0
C575 C 0.0232 0.44301 0.64038 0.0
C576 C 0.03351 0.45523 0.71618 0.0
C577 C 0.0157 0.45958 0.6292 0.0
C578 C 0.03225 0.44084 0.68396 0.0
C579 C 0.03487 0.48445 0.78003 0.0
C580 C 0.02653 0.48621 0.73454 0.0
C581 C 0.04268 0.46811 0.79296 0.0
C582 C 0.042 0.45354 0.76113 0.0
Tb583 Tb 1.00424 0.50094 0.64798 0.0
N584 N 0.01896 0.50191 0.72067 0.0
C585 C 0.03483 0.49908 0.81157 0.0
C586 C 0.01745 0.5155 0.75345 0.0
C587 C 0.02583 0.51458 0.79847 0.0
H588 H 1.00766 0.46066 0.59747 0.0
H589 H 0.02474 0.52559 0.82377 0.0
H590 H 0.02109 0.57653 0.61964 0.0
H591 H 0.99136 0.51455 0.39491 0.0
H592 H 1.00876 0.52648 0.74704 0.0
H593 H 0.04106 0.49827 0.84681 0.0
H594 H 1.00555 0.51035 0.47304 0.0
H595 H 0.02163 0.43181 0.61586 0.0
H596 H 0.0491 0.46654 0.82774 0.0
H597 H 0.04794 0.44097 0.77181 0.0
H598 H 0.01152 0.60713 0.60058 0.0
H599 H 0.03789 0.42794 0.69279 0.0
H600 H 0.98431 0.54505 0.36634 0.0
N601 N 0.0124 0.56555 0.55238 0.0
C602 C 1.00507 0.56903 0.50839 0.0
C603 C 1.00951 0.59649 0.5745 0.0
C604 C 1.00003 0.58654 0.49541 0.0
C605 C 0.01457 0.57897 0.5856 0.0
C606 C 1.00239 0.60033 0.52908 0.0
N607 N 1.00656 0.538 0.49114 0.0
C608 C 1.0026 0.52366 0.4623 0.0
C609 C 0.99434 0.55794 0.43106 0.0
C610 C 1.00236 0.55487 0.47644 0.0
C611 C 0.99055 0.54326 0.40131 0.0
C612 C 0.99446 0.52604 0.41736 0.0
H613 H 0.99873 0.61398 0.52039 0.0
H614 H 0.9891 0.60314 0.43854 0.0
H615 H 0.98404 0.5781 0.38236 0.0
O616 O 0.04247 0.5344 0.50264 0.0
O617 O 0.99414 0.53694 0.56534 0.0
O618 O 0.98601 0.5082 0.58872 0.0
O619 O 0.04121 0.55884 0.54357 0.0
O620 O 0.02952 0.50917 0.54216 0.0
O621 O 1.00627 0.49182 0.5718 0.0
O622 O 0.98504 0.50328 0.70285 0.0
O623 O 0.03395 0.50137 0.64227 0.0
O624 O 0.04263 0.5298 0.61706 0.0
O625 O 0.9863 0.47948 0.65951 0.0
O626 O 0.99911 0.52981 0.66213 0.0
O627 O 0.02423 0.54478 0.6362 0.0
C628 C 0.98197 0.52408 0.57091 0.0
C629 C 0.0688 0.55271 0.50634 0.0
C630 C 0.09799 0.54264 0.47869 0.0
C631 C 0.10511 0.55968 0.48975 0.0
C632 C 0.07625 0.5696 0.517 0.0
C633 C 0.09431 0.57298 0.50906 0.0
C634 C 0.07978 0.53922 0.48751 0.0
C635 C 0.01962 0.49448 0.54103 0.0
C636 C 0.0493 0.55034 0.50919 0.0
C637 C 0.99279 0.58973 0.44941 0.0
C638 C 0.98995 0.57547 0.41734 0.0
C639 C 0.04633 0.51397 0.63589 0.0
C640 C 0.95823 0.48652 0.69405 0.0
C641 C 0.92947 0.4979 0.72104 0.0
C642 C 0.92122 0.48216 0.7037 0.0
C643 C 0.94972 0.4709 0.67716 0.0
C644 C 0.948 0.49999 0.71596 0.0
C645 C 0.9313 0.46882 0.68177 0.0
C646 C 0.01044 0.5434 0.66546 0.0
C647 C 0.97785 0.48773 0.69382 0.0
H648 H 0.11892 0.56298 0.48206 0.0
H649 H 0.068 0.58038 0.53032 0.0
H650 H 0.09987 0.58611 0.51671 0.0
H651 H 0.07409 0.52622 0.47879 0.0
H652 H 0.90702 0.47993 0.70829 0.0
H653 H 0.95734 0.46012 0.66132 0.0
H654 H 0.95444 0.51199 0.72977 0.0
H655 H 0.92487 0.45665 0.66923 0.0
H656 H 0.1387 0.03102 0.14836 0.0
H657 H 0.11703 0.02621 0.21331 0.0
H658 H 0.13725 0.07307 0.28687 0.0
H659 H 0.1594 0.07751 0.22259 0.0
H660 H 0.13233 0.05116 0.35142 0.0
H661 H 0.09219 0.06769 0.22566 0.0
H662 H 0.0764 0.06735 0.1475 0.0
H663 H 0.05955 1.01297 0.17282 0.0
H664 H 0.07537 1.01292 0.25089 0.0
H665 H 0.05464 0.05603 0.51267 0.0
H666 H 0.07567 0.06183 0.44567 0.0
H667 H 0.07573 1.00553 0.4116 0.0
H668 H 0.05538 0.99959 0.48009 0.0
H669 H 0.06938 0.03251 0.32804 0.0
H670 H 0.1105 0.0175 0.45552 0.0
H671 H 0.12489 0.0201 0.53527 0.0
H672 H 0.13809 0.0752 0.50605 0.0
H673 H 0.12363 0.07296 0.4262 0.0
C674 C 0.13849 0.04046 0.17807 0.0
C675 C 0.15108 0.05466 0.1797 0.0
C676 C 0.12585 0.03774 0.21549 0.0
C677 C 0.12499 0.04933 0.25578 0.0
C678 C 0.1374 0.06371 0.25697 0.0
C679 C 0.15023 0.06627 0.2199 0.0
C680 C 0.11213 0.04589 0.29785 0.0
C681 C 0.1185 0.04741 0.34569 0.0
C682 C 0.09394 0.04054 0.29194 0.0
C683 C 0.0852 0.04022 0.24386 0.0
C684 C 0.08533 0.05557 0.21426 0.0
C685 C 0.07631 0.05547 0.17005 0.0
C686 C 0.06704 0.04013 0.15512 0.0
C687 C 0.06678 0.02483 0.18435 0.0
C688 C 0.07577 0.02486 0.22858 0.0
C689 C 0.0593 0.04485 0.49128 0.0
C690 C 0.05338 0.02731 0.50224 0.0
C691 C 0.07134 0.04819 0.45279 0.0
C692 C 0.07739 0.03417 0.42302 0.0
C693 C 0.07139 0.01664 0.43375 0.0
C694 C 0.05981 1.01322 0.47325 0.0
C695 C 0.08974 0.03786 0.38056 0.0
C696 C 0.08323 0.03637 0.33305 0.0
C697 C 0.10766 0.04358 0.38659 0.0
C698 C 0.11574 0.04514 0.43524 0.0
C699 C 0.11622 0.03025 0.46641 0.0
C700 C 0.12446 0.03164 0.51155 0.0
C701 C 0.13229 0.04784 0.52588 0.0
C702 C 0.13195 0.06268 0.49502 0.0
C703 C 0.12374 0.06135 0.4498 0.0
H704 H 0.13871 0.04886 0.56079 0.0
H705 H 0.06001 0.0401 0.12099 0.0
H706 H 0.45414 0.16076 0.2164 0.0
H707 H 0.45832 0.13793 0.27902 0.0
H708 H 0.50894 0.12405 0.21575 0.0
H709 H 0.50437 0.14629 0.15182 0.0
H710 H 0.4947 0.09443 0.24886 0.0
H711 H 0.50296 0.15308 0.32353 0.0
H712 H 0.49228 0.1836 0.34077 0.0
H713 H 0.44621 0.16167 0.41309 0.0
H714 H 0.45655 0.13102 0.39583 0.0
H715 H 0.52976 0.04743 0.45243 0.0
H716 H 0.52384 0.06793 0.38534 0.0
H717 H 0.47724 0.08718 0.46041 0.0
H718 H 0.48425 0.06779 0.52929 0.0
H719 H 0.48851 0.11363 0.41969 0.0
H720 H 0.47919 0.05538 0.34939 0.0
H721 H 0.48744 0.0244 0.32858 0.0
H722 H 0.53225 0.04404 0.2464 0.0
H723 H 0.52436 0.07514 0.26708 0.0
C724 C 0.46621 0.15292 0.21578 0.0
C725 C 0.47899 0.15574 0.17889 0.0
C726 C 0.46867 0.13977 0.252 0.0
C727 C 0.48428 0.12931 0.25384 0.0
C728 C 0.4968 0.13179 0.21615 0.0
C729 C 0.49417 0.14468 0.17936 0.0
C730 C 0.48793 0.11642 0.29558 0.0
C731 C 0.49349 0.09874 0.28618 0.0
C732 C 0.48601 0.12148 0.3449 0.0
C733 C 0.4805 0.13981 0.35834 0.0
C734 C 0.49061 0.1548 0.34336 0.0
C735 C 0.48459 0.1721 0.35298 0.0
C736 C 0.46857 0.17457 0.37799 0.0
C737 C 0.45862 0.15973 0.39379 0.0
C738 C 0.46458 0.14239 0.38421 0.0
C739 C 0.51824 0.05604 0.45461 0.0
C740 C 0.50746 0.05583 0.49645 0.0
C741 C 0.51466 0.06774 0.41562 0.0
C742 C 0.49964 0.07908 0.4159 0.0
C743 C 0.48892 0.0788 0.45811 0.0
C744 C 0.49289 0.06758 0.49781 0.0
C745 C 0.4953 0.09146 0.37336 0.0
C746 C 0.48965 0.10913 0.38254 0.0
C747 C 0.49685 0.08623 0.32387 0.0
C748 C 0.50126 0.06758 0.31008 0.0
C749 C 0.49081 0.05309 0.32693 0.0
C750 C 0.49543 0.0355 0.31519 0.0
C751 C 0.51038 0.03225 0.28628 0.0
C752 C 0.52068 0.04658 0.2688 0.0
C753 C 0.51612 0.06419 0.28043 0.0
H754 H 0.51397 0.01862 0.27738 0.0
H755 H 0.46387 0.18798 0.38512 0.0
H756 H 0.35878 0.49486 0.22529 0.0
H757 H 0.37974 0.49905 0.2916 0.0
H758 H 0.42289 0.48233 0.19924 0.0
H759 H 0.40183 0.47705 0.13351 0.0
H760 H 0.42994 0.46996 0.28239 0.0
H761 H 0.41514 0.52848 0.23168 0.0
H762 H 0.39555 0.55335 0.2083 0.0
H763 H 0.37245 0.55353 0.35071 0.0
H764 H 0.39183 0.52852 0.37483 0.0
H765 H 0.49827 0.50358 0.43769 0.0
H766 H 0.47791 0.5015 0.36937 0.0
H767 H 0.43307 0.50686 0.46579 0.0
H768 H 0.45347 0.50987 0.53386 0.0
H769 H 0.4278 0.52595 0.37897 0.0
H770 H 0.44165 0.46115 0.41576 0.0
H771 H 0.4665 0.44147 0.43929 0.0
H772 H 0.49677 0.45946 0.31601 0.0
H773 H 0.47188 0.47878 0.29099 0.0
C774 C 0.37265 0.49178 0.21889 0.0
C775 C 0.37835 0.4857 0.17304 0.0
C776 C 0.38481 0.49448 0.25707 0.0
C777 C 0.40322 0.49148 0.25087 0.0
C778 C 0.4089 0.48497 0.20557 0.0
C779 C 0.39673 0.48213 0.16745 0.0
C780 C 0.41645 0.49519 0.29127 0.0
C781 C 0.42941 0.48232 0.30288 0.0
C782 C 0.4163 0.51131 0.31878 0.0
C783 C 0.40481 0.52653 0.30492 0.0
C784 C 0.40582 0.53377 0.25795 0.0
C785 C 0.39477 0.5479 0.24457 0.0
C786 C 0.38273 0.55499 0.27796 0.0
C787 C 0.38178 0.54801 0.32488 0.0
C788 C 0.39282 0.53388 0.33846 0.0
C789 C 0.4841 0.50448 0.4447 0.0
C790 C 0.47776 0.50762 0.49203 0.0
C791 C 0.47233 0.50305 0.40522 0.0
C792 C 0.45369 0.50373 0.41175 0.0
C793 C 0.44729 0.50648 0.45903 0.0
C794 C 0.45911 0.50836 0.49836 0.0
C795 C 0.44094 0.50067 0.37 0.0
C796 C 0.42811 0.51361 0.35832 0.0
C797 C 0.44154 0.48497 0.34128 0.0
C798 C 0.45493 0.47118 0.35135 0.0
C799 C 0.45344 0.46052 0.39311 0.0
C800 C 0.46753 0.44952 0.40678 0.0
C801 C 0.48315 0.44933 0.37917 0.0
C802 C 0.48462 0.45969 0.33724 0.0
C803 C 0.47045 0.47044 0.32292 0.0
H804 H 0.4942 0.4413 0.39043 0.0
H805 H 0.37415 0.56591 0.26751 0.0
H806 H 0.06252 0.40793 0.13977 0.0
H807 H 0.05734 0.42871 0.20641 0.0
H808 H 0.03331 0.38603 0.29 0.0
H809 H 0.03751 0.36541 0.22258 0.0
H810 H 0.01388 0.41435 0.29995 0.0
H811 H 0.07876 0.40635 0.3064 0.0
H812 H 0.1094 0.40851 0.27386 0.0
H813 H 0.10307 0.46501 0.25068 0.0
H814 H 0.07233 0.46314 0.28236 0.0
H815 H 1.00365 0.46117 0.52053 0.0
H816 H 0.01108 0.44017 0.45703 0.0
H817 H 0.04745 0.47916 0.39498 0.0
H818 H 0.04269 0.49857 0.46398 0.0
H819 H 0.06099 0.45289 0.37121 0.0
H820 H 0.99854 0.46408 0.35412 0.0
H821 H 0.96693 0.46563 0.37867 0.0
H822 H 0.96637 0.40908 0.40801 0.0
H823 H 0.99802 0.40724 0.3842 0.0
C824 C 0.05599 0.40286 0.17204 0.0
C825 C 0.05045 0.38471 0.17485 0.0
C826 C 0.05326 0.41484 0.21084 0.0
C827 C 0.04512 0.40912 0.25435 0.0
C828 C 0.03969 0.391 0.25735 0.0
C829 C 0.0423 0.37905 0.21852 0.0
C830 C 0.04157 0.4219 0.29599 0.0
C831 C 0.02427 0.42264 0.31583 0.0
C832 C 0.05472 0.43359 0.31579 0.0
C833 C 0.07317 0.43455 0.29634 0.0
C834 C 0.08385 0.41919 0.29399 0.0
C835 C 0.10125 0.42038 0.27574 0.0
C836 C 0.10816 0.43687 0.2601 0.0
C837 C 0.0977 0.45223 0.2627 0.0
C838 C 0.08029 0.45111 0.2808 0.0
C839 C 0.01392 0.46499 0.49507 0.0
C840 C 0.02309 0.48147 0.4998 0.0
C841 C 0.01768 0.4531 0.45674 0.0
C842 C 0.02958 0.45784 0.41887 0.0
C843 C 0.03836 0.4746 0.42298 0.0
C844 C 0.03546 0.48595 0.4629 0.0
C845 C 0.03311 0.44554 0.37567 0.0
C846 C 0.05043 0.44481 0.35545 0.0
C847 C 0.01976 0.43449 0.35389 0.0
C848 C 1.00069 0.43556 0.3678 0.0
C849 C 0.99169 0.45199 0.36599 0.0
C850 C 0.97376 0.45292 0.3798 0.0
C851 C 0.96466 0.43747 0.39501 0.0
C852 C 0.97344 0.42105 0.3963 0.0
C853 C 0.99136 0.42005 0.38262 0.0
H854 H 0.95079 0.43822 0.40572 0.0
H855 H 0.12163 0.43776 0.24606 0.0
H856 H 0.89905 0.97549 0.0657 0.0
H857 H 0.9209 0.97856 1.00034 0.0
H858 H 0.88205 1.00579 0.91326 0.0
H859 H 0.86012 1.00278 0.97845 0.0
H860 H 0.89866 0.98392 0.85766 0.0
H861 H 0.91977 0.02658 0.97596 0.0
H862 H 0.9313 0.03739 0.05422 0.0
H863 H 0.97605 1.00222 0.04183 0.0
H864 H 0.96462 0.99094 0.96394 0.0
H865 H 0.96007 0.03101 0.6944 0.0
H866 H 0.93899 0.02401 0.75954 0.0
H867 H 0.97192 0.98026 0.80505 0.0
H868 H 0.99231 0.98611 0.73714 0.0
H869 H 0.95963 1.00843 0.88164 0.0
H870 H 0.93963 0.96595 0.76562 0.0
H871 H 0.92885 0.95419 0.68768 0.0
H872 H 0.88276 0.98771 0.69699 0.0
H873 H 0.8935 1.00003 0.77449 0.0
C874 C 0.89509 0.98233 0.03294 0.0
C875 C 0.87756 0.98894 0.0282 0.0
C876 C 0.90775 0.98411 0.99523 0.0
C877 C 0.90348 0.9927 0.95135 0.0
C878 C 0.88594 0.99909 0.94632 0.0
C879 C 0.87326 0.99727 0.98392 0.0
C880 C 0.91692 0.9947 0.91029 0.0
C881 C 0.91187 0.98956 0.86316 0.0
C882 C 0.93463 1.00136 0.91674 0.0
C883 C 0.94118 1.00773 0.96438 0.0
C884 C 0.93193 0.02097 0.99021 0.0
C885 C 0.93848 0.02722 0.03447 0.0
C886 C 0.95436 0.02045 0.05307 0.0
C887 C 0.96372 1.00741 0.02748 0.0
C888 C 0.9572 1.00107 0.9833 0.0
C889 C 0.96256 0.0194 0.71659 0.0
C890 C 0.97774 1.00876 0.70839 0.0
C891 C 0.95054 0.01559 0.75475 0.0
C892 C 0.95364 1.00148 0.78741 0.0
C893 C 0.96902 0.99113 0.78037 0.0
C894 C 0.98071 0.99452 0.74115 0.0
C895 C 0.94111 0.99802 0.82945 0.0
C896 C 0.94637 1.00285 0.8765 0.0
C897 C 0.92367 0.99095 0.82312 0.0
C898 C 0.91756 0.98419 0.77547 0.0
C899 C 0.92739 0.97111 0.7506 0.0
C900 C 0.92124 0.96427 0.70659 0.0
C901 C 0.90518 0.97027 0.68725 0.0
C902 C 0.89525 0.98314 0.71188 0.0
C903 C 0.90138 0.99008 0.75582 0.0
H904 H 0.90038 0.96488 0.65331 0.0
H905 H 0.95944 0.02536 0.08724 0.0
H906 H 0.53533 0.86506 0.97363 0.0
H907 H 0.53198 0.88701 0.90875 0.0
H908 H 0.55229 0.92858 1.00195 0.0
H909 H 0.55618 0.90665 0.06678 0.0
H910 H 0.52384 0.94107 0.95254 0.0
H911 H 0.57847 0.91423 0.90767 0.0
H912 H 0.59873 0.88888 0.89403 0.0
H913 H 0.56411 0.86855 0.78304 0.0
H914 H 0.5436 0.89381 0.79617 0.0
H915 H 0.52843 1.00555 0.7603 0.0
H916 H 0.53551 0.98549 0.82735 0.0
H917 H 0.52268 0.93983 0.73801 0.0
H918 H 0.5168 0.95992 0.66987 0.0
H919 H 0.54902 0.93053 0.78897 0.0
H920 H 0.49389 0.95987 0.83919 0.0
H921 H 0.47559 0.98635 0.8575 0.0
H922 H 0.51388 1.00369 0.96313 0.0
H923 H 0.53244 0.97737 0.94522 0.0
C924 C 0.53941 0.87876 0.98053 0.0
C925 C 0.54605 0.88375 0.02642 0.0
C926 C 0.53738 0.89145 0.94304 0.0
C927 C 0.54189 0.90968 0.94972 0.0
C928 C 0.54852 0.91475 0.99536 0.0
C929 C 0.55068 0.90205 0.03281 0.0
C930 C 0.53965 0.92327 0.90921 0.0
C931 C 0.52952 0.93881 0.91694 0.0
C932 C 0.54697 0.92067 0.86237 0.0
C933 C 0.55948 0.90582 0.85305 0.0
C934 C 0.57518 0.90433 0.88038 0.0
C935 C 0.5867 0.89 0.87274 0.0
C936 C 0.58269 0.87709 0.83775 0.0
C937 C 0.5672 0.87857 0.8101 0.0
C938 C 0.55565 0.89293 0.8175 0.0
C939 C 0.52704 0.99123 0.75484 0.0
C940 C 0.52177 0.98451 0.70933 0.0
C941 C 0.53098 0.97964 0.79371 0.0
C942 C 0.5292 0.96084 0.78923 0.0
C943 C 0.52415 0.95414 0.74343 0.0
C944 C 0.52065 0.96573 0.70416 0.0
C945 C 0.53266 0.94819 0.83156 0.0
C946 C 0.54319 0.93282 0.82435 0.0
C947 C 0.52593 0.95116 0.87918 0.0
C948 C 0.51457 0.96673 0.89066 0.0
C949 C 0.49839 0.96935 0.86626 0.0
C950 C 0.48799 0.98433 0.87657 0.0
C951 C 0.49358 0.99671 0.9114 0.0
C952 C 0.50956 0.9941 0.93617 0.0
C953 C 0.52 0.97913 0.92604 0.0
H954 H 0.48553 1.00832 0.91924 0.0
H955 H 0.59159 0.86595 0.83203 0.0
H956 H 0.66784 0.56156 0.97425 0.0
H957 H 0.64653 0.55802 0.90798 0.0
H958 H 0.60824 0.53485 1.00706 0.0
H959 H 0.62967 0.53747 0.07257 0.0
H960 H 0.60599 0.51637 0.93285 0.0
H961 H 0.60425 0.57971 0.95057 0.0
H962 H 0.61505 0.61099 0.95569 0.0
H963 H 0.63786 0.60688 0.81345 0.0
H964 H 0.62726 0.57554 0.80757 0.0
H965 H 0.53426 0.51344 0.76379 0.0
H966 H 0.55361 0.52023 0.83211 0.0
H967 H 0.59218 0.54407 0.73476 0.0
H968 H 0.57174 0.5391 0.66703 0.0
H969 H 0.59358 0.5629 0.80981 0.0
H970 H 0.59401 0.49709 0.79842 0.0
H971 H 0.57967 0.46715 0.79817 0.0
H972 H 0.55568 0.47794 0.93632 0.0
H973 H 0.56984 0.50792 0.93727 0.0
C974 C 0.65495 0.55559 0.98218 0.0
C975 C 0.65079 0.54987 0.02979 0.0
C976 C 0.64252 0.5538 0.94394 0.0
C977 C 0.62537 0.5463 0.95166 0.0
C978 C 0.6212 0.54069 0.99916 0.0
C979 C 0.63359 0.54241 0.03724 0.0
C980 C 0.61212 0.54339 0.91048 0.0
C981 C 0.60323 0.52673 0.90642 0.0
C982 C 0.60823 0.5566 0.87491 0.0
C983 C 0.61516 0.57521 0.8789 0.0
C984 C 0.61175 0.58542 0.92061 0.0
C985 C 0.61776 0.60318 0.92357 0.0
C986 C 0.62718 0.6109 0.88498 0.0
C987 C 0.63059 0.60088 0.84334 0.0
C988 C 0.62456 0.58312 0.84014 0.0
C989 C 0.54658 0.52064 0.75693 0.0
C990 C 0.55095 0.52618 0.70952 0.0
C991 C 0.55807 0.52409 0.7963 0.0
C992 C 0.57492 0.53241 0.78965 0.0
C993 C 0.57943 0.53766 0.74196 0.0
C994 C 0.5677 0.53463 0.70276 0.0
C995 C 0.58772 0.53575 0.83175 0.0
C996 C 0.59648 0.55252 0.83607 0.0
C997 C 0.59122 0.52279 0.86831 0.0
C998 C 0.58288 0.50474 0.86774 0.0
C999 C 0.58564 0.49306 0.82864 0.0
C1000 C 0.57756 0.47609 0.82841 0.0
C1001 C 0.56675 0.47066 0.86716 0.0
C1002 C 0.56405 0.48215 0.90633 0.0
C1003 C 0.57214 0.49911 0.90679 0.0
H1004 H 0.56048 0.45753 0.86687 0.0
H1005 H 0.63179 0.62467 0.88729 0.0
H1006 H 0.96016 0.66361 0.98558 0.0
H1007 H 0.96397 0.64145 0.92068 0.0
H1008 H 0.01082 0.62144 0.99147 0.0
H1009 H 1.00722 0.6435 0.05586 0.0
H1010 H 0.01763 0.62671 0.89805 0.0
H1011 H 0.97181 0.59593 0.98696 0.0
H1012 H 0.9426 0.59137 0.02667 0.0
H1013 H 0.91613 0.60185 0.89214 0.0
H1014 H 0.94512 0.60651 0.85183 0.0
H1015 H 0.03452 0.55535 0.73264 0.0
H1016 H 0.02932 0.57445 0.80266 0.0
H1017 H 0.97531 0.58314 0.75492 0.0
H1018 H 0.98003 0.56193 0.68856 0.0
H1019 H 0.97207 0.5834 0.84021 0.0
H1020 H 0.01904 0.61658 0.75257 0.0
H1021 H 0.04883 0.621 0.71579 0.0
H1022 H 0.07353 0.60633 0.84991 0.0
H1023 H 0.04392 0.60176 0.88732 0.0
C1024 C 0.97131 0.65452 0.98744 0.0
C1025 C 0.98338 0.65559 0.02651 0.0
C1026 C 0.97337 0.64164 0.95033 0.0
C1027 C 0.98769 0.62951 0.9507 0.0
C1028 C 0.99964 0.63049 0.98981 0.0
C1029 C 0.99747 0.64317 0.02706 0.0
C1030 C 0.99102 0.61664 0.90922 0.0
C1031 C 1.00765 0.61716 0.88566 0.0
C1032 C 0.9781 0.6042 0.89199 0.0
C1033 C 0.96063 0.60182 0.91653 0.0
C1034 C 0.95974 0.59745 0.96601 0.0
C1035 C 0.94322 0.59476 0.9886 0.0
C1036 C 0.92749 0.59638 0.96206 0.0
C1037 C 0.92827 0.60061 0.91281 0.0
C1038 C 0.94476 0.60325 0.89003 0.0
C1039 C 0.0216 0.56151 0.73686 0.0
C1040 C 1.00777 0.5572 0.70452 0.0
C1041 C 0.01861 0.57277 0.777 0.0
C1042 C 1.00201 0.58122 0.78453 0.0
C1043 C 0.9883 0.57709 0.75116 0.0
C1044 C 0.99103 0.56503 0.71252 0.0
C1045 C 0.99865 0.59376 0.82737 0.0
C1046 C 0.98202 0.5931 0.8517 0.0
C1047 C 0.01159 0.60618 0.84535 0.0
C1048 C 0.02931 0.60869 0.82251 0.0
C1049 C 0.03084 0.61422 0.77405 0.0
C1050 C 0.04769 0.61677 0.75315 0.0
C1051 C 0.06306 0.61391 0.78046 0.0
C1052 C 0.06163 0.60852 0.82877 0.0
C1053 C 0.04483 0.60598 0.84985 0.0
H1054 H 0.07608 0.6159 0.76422 0.0
H1055 H 0.91473 0.59432 0.97967 0.0
H1056 H 0.07926 0.20357 0.16692 0.0
H1057 H 0.07326 0.17876 0.22347 0.0
H1058 H 0.03607 0.21188 0.30153 0.0
H1059 H 0.04225 0.23661 0.24593 0.0
H1060 H 0.05579 0.19299 0.3634 0.0
H1061 H 0.02095 0.18195 0.22055 0.0
H1062 H 0.01596 0.17777 0.13311 0.0
H1063 H 0.05088 0.13249 0.1332 0.0
H1064 H 0.05622 0.13655 0.22067 0.0
H1065 H 0.98432 0.13782 0.43957 0.0
H1066 H 1.00557 0.15888 0.40425 0.0
H1067 H 0.04278 0.1161 0.38065 0.0
H1068 H 0.02168 0.09475 0.41682 0.0
H1069 H 0.03038 0.13664 0.29647 0.0
H1070 H 0.06623 0.15131 0.44435 0.0
H1071 H 0.06942 0.15807 0.53144 0.0
H1072 H 0.0278 0.19702 0.52145 0.0
H1073 H 0.0247 0.19073 0.43407 0.0
C1074 C 0.06986 0.20547 0.19629 0.0
C1075 C 0.06123 0.22191 0.20233 0.0
C1076 C 0.0665 0.19139 0.22855 0.0
C1077 C 0.05423 0.19354 0.26662 0.0
C1078 C 0.04575 0.21003 0.2728 0.0
C1079 C 0.04923 0.2241 0.24095 0.0
C1080 C 0.04925 0.17837 0.2984 0.0
C1081 C 0.05035 0.18062 0.34873 0.0
C1082 C 0.04232 0.16218 0.27934 0.0
C1083 C 0.03918 0.1597 0.22688 0.0
C1084 C 0.02768 0.1712 0.2018 0.0
C1085 C 0.02476 0.16883 0.15229 0.0
C1086 C 0.03315 0.15492 0.12757 0.0
C1087 C 0.04443 0.1433 0.15238 0.0
C1088 C 0.04741 0.14561 0.20191 0.0
C1089 C 0.99709 0.13281 0.42764 0.0
C1090 C 1.00128 0.11455 0.43175 0.0
C1091 C 1.00935 0.14497 0.40814 0.0
C1092 C 0.02587 0.13907 0.39105 0.0
C1093 C 0.03025 0.12092 0.39495 0.0
C1094 C 0.01811 0.10876 0.41552 0.0
C1095 C 0.03673 0.15136 0.36124 0.0
C1096 C 0.03654 0.14869 0.31107 0.0
C1097 C 0.04406 0.16731 0.38036 0.0
C1098 C 0.04517 0.17047 0.43304 0.0
C1099 C 0.05772 0.16124 0.4609 0.0
C1100 C 0.05962 0.1651 0.51014 0.0
C1101 C 0.04884 0.17799 0.53195 0.0
C1102 C 0.03617 0.18707 0.5045 0.0
C1103 C 0.03441 0.18344 0.4551 0.0
H1104 H 0.05025 0.18088 0.57013 0.0
H1105 H 0.03088 0.1531 0.08923 0.0
H1106 H 0.29684 0.04225 0.2387 0.0
H1107 H 0.32087 0.03388 0.29312 0.0
H1108 H 0.34465 0.08642 0.27656 0.0
H1109 H 0.3205 0.095 0.22226 0.0
H1110 H 0.36811 0.05982 0.25831 0.0
H1111 H 0.32529 0.07345 0.38369 0.0
H1112 H 0.29592 0.07112 0.42375 0.0
H1113 H 0.30282 0.01445 0.44209 0.0
H1114 H 0.33212 0.0164 0.40152 0.0
H1115 H 0.43907 0.04232 0.40897 0.0
H1116 H 0.41042 0.05688 0.3939 0.0
H1117 H 0.38459 1.00503 0.38569 0.0
H1118 H 0.41328 0.99048 0.39999 0.0
H1119 H 0.36225 0.03358 0.42296 0.0
H1120 H 0.40082 0.01777 0.29053 0.0
H1121 H 0.43026 0.01714 0.2508 0.0
H1122 H 0.43057 0.07458 0.24099 0.0
H1123 H 0.40132 0.07557 0.2822 0.0
C1124 C 0.30684 0.05225 0.24786 0.0
C1125 C 0.30674 0.06932 0.22626 0.0
C1126 C 0.32062 0.0474 0.27881 0.0
C1127 C 0.33446 0.05958 0.28902 0.0
C1128 C 0.33406 0.07685 0.26908 0.0
C1129 C 0.32027 0.08172 0.23813 0.0
C1130 C 0.35006 0.05378 0.31726 0.0
C1131 C 0.36686 0.0545 0.29475 0.0
C1132 C 0.3483 0.04618 0.36403 0.0
C1133 C 0.33086 0.04506 0.38935 0.0
C1134 C 0.32051 0.06048 0.39607 0.0
C1135 C 0.30387 0.05923 0.41888 0.0
C1136 C 0.2975 0.04265 0.4354 0.0
C1137 C 0.30778 0.02729 0.42929 0.0
C1138 C 0.32441 0.02846 0.40646 0.0
C1139 C 0.42712 0.03414 0.40538 0.0
C1140 C 0.42816 0.0154 0.40449 0.0
C1141 C 0.41084 0.04241 0.39718 0.0
C1142 C 0.39555 0.03195 0.38825 0.0
C1143 C 0.39629 1.01325 0.39259 0.0
C1144 C 0.41261 1.00498 0.40011 0.0
C1145 C 0.38012 0.03999 0.36425 0.0
C1146 C 0.36344 0.03939 0.38706 0.0
C1147 C 0.38185 0.04734 0.31725 0.0
C1148 C 0.39899 0.04677 0.29009 0.0
C1149 C 0.40721 0.03028 0.28026 0.0
C1150 C 0.42388 0.02985 0.25753 0.0
C1151 C 0.43232 0.04582 0.24354 0.0
C1152 C 0.42404 0.06223 0.25202 0.0
C1153 C 0.40743 0.06274 0.27515 0.0
H1154 H 0.44524 0.04547 0.226 0.0
H1155 H 0.28461 0.0417 0.45299 0.0
H1156 H 0.49606 0.30927 0.21384 0.0
H1157 H 0.5053 0.3343 0.26478 0.0
H1158 H 0.45024 0.34462 0.30043 0.0
H1159 H 0.44092 0.31999 0.247 0.0
H1160 H 0.46649 0.37452 0.27765 0.0
H1161 H 0.48162 0.32519 0.38368 0.0
H1162 H 0.49602 0.29646 0.40286 0.0
H1163 H 0.54728 0.31937 0.36859 0.0
H1164 H 0.53317 0.34815 0.34868 0.0
H1165 H 0.50372 0.41941 0.50491 0.0
H1166 H 0.48668 0.39927 0.45177 0.0
H1167 H 0.52292 0.4113 0.33442 0.0
H1168 H 0.53976 0.43177 0.38751 0.0
H1169 H 0.51408 0.37096 0.40122 0.0
H1170 H 0.49764 0.41305 0.26448 0.0
H1171 H 0.48267 0.43847 0.22487 0.0
H1172 H 0.43581 0.42888 0.31116 0.0
H1173 H 0.45045 0.40319 0.3506 0.0
C1174 C 0.48597 0.31661 0.23355 0.0
C1175 C 0.46782 0.31256 0.22735 0.0
C1176 C 0.49125 0.33091 0.26268 0.0
C1177 C 0.4785 0.34114 0.28734 0.0
C1178 C 0.46032 0.33685 0.282 0.0
C1179 C 0.45501 0.32274 0.25189 0.0
C1180 C 0.48415 0.35695 0.31618 0.0
C1181 C 0.47667 0.37365 0.30535 0.0
C1182 C 0.49783 0.35597 0.35124 0.0
C1183 C 0.50632 0.3388 0.36456 0.0
C1184 C 0.49596 0.32408 0.38016 0.0
C1185 C 0.50407 0.30778 0.39113 0.0
C1186 C 0.52255 0.30609 0.38691 0.0
C1187 C 0.53297 0.3207 0.37189 0.0
C1188 C 0.52493 0.33702 0.36086 0.0
C1189 C 0.5075 0.41831 0.4672 0.0
C1190 C 0.52275 0.42725 0.44983 0.0
C1191 C 0.49781 0.40687 0.43691 0.0
C1192 C 0.50335 0.40412 0.38896 0.0
C1193 C 0.51818 0.41365 0.37091 0.0
C1194 C 0.5278 0.42524 0.40118 0.0
C1195 C 0.49643 0.3884 0.3625 0.0
C1196 C 0.50369 0.3717 0.37405 0.0
C1197 C 0.48279 0.3894 0.32765 0.0
C1198 C 0.47525 0.40652 0.3111 0.0
C1199 C 0.48429 0.41662 0.27566 0.0
C1200 C 0.47575 0.43086 0.25266 0.0
C1201 C 0.45823 0.43516 0.26517 0.0
C1202 C 0.44933 0.42545 0.30132 0.0
C1203 C 0.45774 0.41107 0.32403 0.0
H1204 H 0.45163 0.44613 0.24717 0.0
H1205 H 0.5288 0.29345 0.39531 0.0
H1206 H 0.19469 0.46184 0.16216 0.0
H1207 H 0.1702 0.46786 0.21884 0.0
H1208 H 0.20711 0.49404 0.31576 0.0
H1209 H 0.23152 0.48806 0.25956 0.0
H1210 H 0.18272 0.47289 0.36512 0.0
H1211 H 0.18333 0.51926 0.24359 0.0
H1212 H 0.18344 0.5308 0.1599 0.0
H1213 H 0.1332 0.50458 0.1334 0.0
H1214 H 0.13291 0.49272 0.2169 0.0
H1215 H 0.13301 0.53545 0.49677 0.0
H1216 H 0.15303 0.51749 0.44803 0.0
H1217 H 0.10885 0.5001 0.35952 0.0
H1218 H 0.0889 0.51928 0.40582 0.0
H1219 H 0.13451 0.5121 0.30507 0.0
H1220 H 0.13278 0.4697 0.43645 0.0
H1221 H 0.13358 0.46146 0.52294 0.0
H1222 H 0.18676 0.48286 0.53399 0.0
H1223 H 0.18624 0.49129 0.44764 0.0
C1224 C 0.19753 0.46882 0.19564 0.0
C1225 C 0.21496 0.47447 0.20655 0.0
C1226 C 0.1836 0.47216 0.22803 0.0
C1227 C 0.18689 0.48138 0.27143 0.0
C1228 C 0.20434 0.4867 0.28276 0.0
C1229 C 0.21825 0.48331 0.25058 0.0
C1230 C 0.17203 0.48674 0.30338 0.0
C1231 C 0.17212 0.48141 0.35212 0.0
C1232 C 0.15817 0.49772 0.28618 0.0
C1233 C 0.15819 0.50496 0.23621 0.0
C1234 C 0.17237 0.51586 0.21978 0.0
C1235 C 0.17245 0.52248 0.17244 0.0
C1236 C 0.15836 0.51838 0.14131 0.0
C1237 C 0.14412 0.50771 0.15754 0.0
C1238 C 0.14398 0.50106 0.20488 0.0
C1239 C 0.1275 0.52777 0.46706 0.0
C1240 C 0.10939 0.52908 0.45479 0.0
C1241 C 0.13894 0.51721 0.43969 0.0
C1242 C 0.13243 0.50725 0.40037 0.0
C1243 C 0.11415 0.50764 0.38979 0.0
C1244 C 0.10273 0.5185 0.41664 0.0
C1245 C 0.14506 0.49827 0.36715 0.0
C1246 C 0.1447 0.50307 0.31803 0.0
C1247 C 0.15875 0.48699 0.38427 0.0
C1248 C 0.15946 0.48112 0.43557 0.0
C1249 C 0.14466 0.47261 0.45732 0.0
C1250 C 0.14506 0.46792 0.50631 0.0
C1251 C 0.16021 0.47164 0.53393 0.0
C1252 C 0.17505 0.47994 0.51252 0.0
C1253 C 0.17474 0.4846 0.46349 0.0
H1254 H 0.16045 0.4681 0.57193 0.0
H1255 H 0.15845 0.5235 0.10464 0.0
H1256 H 0.9472 0.81495 0.96159 0.0
H1257 H 0.95245 0.84169 0.91126 0.0
H1258 H 1.00882 0.8385 0.93981 0.0
H1259 H 1.00372 0.8117 0.98927 0.0
H1260 H 0.99065 0.87277 0.96362 0.0
H1261 H 0.99911 0.82883 0.83694 0.0
H1262 H 0.99041 0.80349 0.78467 0.0
H1263 H 0.94545 0.83309 0.73323 0.0
H1264 H 0.95375 0.85853 0.78587 0.0
H1265 H 0.04701 0.91803 0.80753 0.0
H1266 H 0.02862 0.8994 0.86072 0.0
H1267 H 0.98175 0.91382 0.77973 0.0
H1268 H 1.00037 0.9327 0.72613 0.0
H1269 H 0.98635 0.87792 0.78508 0.0
H1270 H 0.98313 0.92486 0.90002 0.0
H1271 H 0.99389 0.95012 0.94982 0.0
H1272 H 0.0306 0.91533 0.02177 0.0
H1273 H 0.02015 0.88989 0.97224 0.0
C1274 C 0.96074 0.81974 0.95596 0.0
C1275 C 0.97509 0.81128 0.97891 0.0
C1276 C 0.96368 0.83498 0.92756 0.0
C1277 C 0.98096 0.84205 0.92251 0.0
C1278 C 0.99538 0.83321 0.94369 0.0
C1279 C 0.99249 0.81782 0.97134 0.0
C1280 C 0.98407 0.85918 0.89726 0.0
C1281 C 0.98971 0.874 0.92459 0.0
C1282 C 0.98209 0.86083 0.84672 0.0
C1283 C 0.97684 0.84542 0.81601 0.0
C1284 C 0.98721 0.82982 0.81506 0.0
C1285 C 0.9824 0.81547 0.78522 0.0
C1286 C 0.96733 0.81664 0.75584 0.0
C1287 C 0.95707 0.83218 0.75617 0.0
C1288 C 0.96181 0.84656 0.78602 0.0
C1289 C 0.03275 0.91738 0.80157 0.0
C1290 C 0.02506 0.92641 0.76255 0.0
C1291 C 0.02221 0.90697 0.83231 0.0
C1292 C 1.00379 0.90538 0.82444 0.0
C1293 C 0.99592 0.91502 0.78656 0.0
C1294 C 1.00651 0.92568 0.75599 0.0
C1295 C 0.99372 0.89141 0.85111 0.0
C1296 C 0.98669 0.87706 0.82427 0.0
C1297 C 0.99453 0.89019 0.90213 0.0
C1298 C 1.00085 0.90545 0.93229 0.0
C1299 C 0.99355 0.9226 0.9263 0.0
C1300 C 0.99958 0.93695 0.95455 0.0
C1301 C 0.01292 0.93433 0.98892 0.0
C1302 C 0.02023 0.91734 0.99521 0.0
C1303 C 0.01421 0.90293 0.96717 0.0
H1304 H 0.0176 0.94546 0.01068 0.0
H1305 H 0.96365 0.80553 0.73266 0.0
H1306 H 0.69844 0.96278 0.02653 0.0
H1307 H 0.67576 0.96664 0.96446 0.0
H1308 H 0.71445 0.99307 0.87222 0.0
H1309 H 0.73709 0.98976 0.93503 0.0
H1310 H 0.68593 1.01342 0.89042 0.0
H1311 H 0.6944 0.95167 0.84087 0.0
H1312 H 0.69658 0.91912 0.85524 0.0
H1313 H 0.64354 0.91818 0.91426 0.0
H1314 H 0.64112 0.95072 0.90092 0.0
H1315 H 0.61286 0.03791 0.74959 0.0
H1316 H 0.64114 0.02218 0.762 0.0
H1317 H 0.61593 0.98909 0.87141 0.0
H1318 H 0.58785 1.0048 0.85899 0.0
H1319 H 0.64114 0.97067 0.82485 0.0
H1320 H 0.63359 0.02741 0.90067 0.0
H1321 H 0.62787 0.05982 0.90456 0.0
H1322 H 0.67539 0.07039 0.82176 0.0
H1323 H 0.68108 0.03791 0.816 0.0
C1324 C 0.70217 0.96914 0.99267 0.0
C1325 C 0.71944 0.97617 0.98579 0.0
C1326 C 0.68927 0.97111 0.95693 0.0
C1327 C 0.69347 0.97999 0.9135 0.0
C1328 C 0.711 0.98604 0.90534 0.0
C1329 C 0.72392 0.9841 0.94117 0.0
C1330 C 0.67898 0.98555 0.88076 0.0
C1331 C 0.67648 1.00403 0.8746 0.0
C1332 C 0.66616 0.97331 0.86244 0.0
C1333 C 0.6676 0.95367 0.86989 0.0
C1334 C 0.68323 0.94454 0.8571 0.0
C1335 C 0.68451 0.92608 0.86507 0.0
C1336 C 0.67021 0.91659 0.88565 0.0
C1337 C 0.6546 0.92553 0.89826 0.0
C1338 C 0.65326 0.94397 0.8904 0.0
C1339 C 0.61339 0.02699 0.77541 0.0
C1340 C 0.59854 0.02271 0.80431 0.0
C1341 C 0.62943 0.01799 0.78229 0.0
C1342 C 0.63063 1.00468 0.8181 0.0
C1343 C 0.61528 0.99935 0.8437 0.0
C1344 C 0.59935 1.00843 0.8371 0.0
C1345 C 0.64813 0.99843 0.83514 0.0
C1346 C 0.65108 0.97995 0.83877 0.0
C1347 C 0.66092 1.01065 0.85369 0.0
C1348 C 0.65755 0.0302 0.85695 0.0
C1349 C 0.64268 0.03661 0.88264 0.0
C1350 C 0.63945 0.055 0.88525 0.0
C1351 C 0.65121 0.06715 0.86319 0.0
C1352 C 0.66623 0.06094 0.83855 0.0
C1353 C 0.66943 0.04253 0.83544 0.0
H1354 H 0.64873 0.0814 0.86539 0.0
H1355 H 0.67123 0.90231 0.89182 0.0
H1356 H 0.58329 0.71015 1.00969 0.0
H1357 H 0.57753 0.68471 0.95597 0.0
H1358 H 0.53267 0.71244 0.89505 0.0
H1359 H 0.53801 0.73764 0.94942 0.0
H1360 H 0.52391 0.68039 0.93936 0.0
H1361 H 0.5682 0.70285 0.82505 0.0
H1362 H 0.59839 0.71327 0.80224 0.0
H1363 H 0.62006 0.66287 0.8471 0.0
H1364 H 0.58999 0.6522 0.87058 0.0
H1365 H 0.48561 0.62963 0.76843 0.0
H1366 H 0.50468 0.65335 0.80065 0.0
H1367 H 0.54384 0.61414 0.84143 0.0
H1368 H 0.52531 0.59038 0.80432 0.0
H1369 H 0.55912 0.64818 0.81489 0.0
H1370 H 0.51486 0.62483 0.92418 0.0
H1371 H 0.4845 0.61385 0.94315 0.0
H1372 H 0.46331 0.66569 0.91021 0.0
H1373 H 0.49351 0.67692 0.89043 0.0
C1374 C 0.57246 0.71097 0.98399 0.0
C1375 C 0.5609 0.72572 0.98423 0.0
C1376 C 0.56929 0.6965 0.95313 0.0
C1377 C 0.55461 0.6967 0.92197 0.0
C1378 C 0.54405 0.71209 0.91906 0.0
C1379 C 0.54719 0.72652 0.94991 0.0
C1380 C 0.54843 0.68006 0.89841 0.0
C1381 C 0.53158 0.67346 0.91188 0.0
C1382 C 0.55886 0.6705 0.86459 0.0
C1383 C 0.57689 0.67679 0.84994 0.0
C1384 C 0.57943 0.69403 0.83033 0.0
C1385 C 0.5965 0.69997 0.81721 0.0
C1386 C 0.61114 0.68876 0.82333 0.0
C1387 C 0.60871 0.67154 0.8424 0.0
C1388 C 0.59165 0.66553 0.85554 0.0
C1389 C 0.49852 0.62618 0.78295 0.0
C1390 C 0.50405 0.60835 0.78424 0.0
C1391 C 0.50938 0.63966 0.80137 0.0
C1392 C 0.52546 0.6354 0.82427 0.0
C1393 C 0.53147 0.61765 0.82386 0.0
C1394 C 0.52084 0.60415 0.80331 0.0
C1395 C 0.53426 0.64924 0.8541 0.0
C1396 C 0.55162 0.65507 0.84273 0.0
C1397 C 0.52445 0.65806 0.89064 0.0
C1398 C 0.50645 0.65172 0.9059 0.0
C1399 C 0.50373 0.6339 0.92118 0.0
C1400 C 0.48654 0.62762 0.93194 0.0
C1401 C 0.47199 0.63906 0.92791 0.0
C1402 C 0.4746 0.65685 0.91344 0.0
C1403 C 0.49175 0.6632 0.9026 0.0
H1404 H 0.45868 0.63415 0.93598 0.0
H1405 H 0.62436 0.69339 0.8132 0.0
H1406 H 0.83197 0.57255 0.03989 0.0
H1407 H 0.85594 0.56893 0.98041 0.0
H1408 H 0.81859 0.54496 0.88062 0.0
H1409 H 0.79476 0.54806 0.94026 0.0
H1410 H 0.84624 0.52342 0.90097 0.0
H1411 H 0.84002 0.58565 0.84621 0.0
H1412 H 0.83752 0.61814 0.86159 0.0
H1413 H 0.88689 0.61756 0.93983 0.0
H1414 H 0.88955 0.58503 0.92491 0.0
H1415 H 0.89682 0.51058 0.69611 0.0
H1416 H 0.87682 0.52834 0.74636 0.0
H1417 H 0.91788 0.53409 0.85409 0.0
H1418 H 0.9379 0.51581 0.80471 0.0
H1419 H 0.89044 0.56653 0.83229 0.0
H1420 H 0.89724 0.5053 0.88785 0.0
H1421 H 0.90015 0.47269 0.87625 0.0
H1422 H 0.84943 0.47091 0.80474 0.0
H1423 H 0.8464 0.50361 0.81519 0.0
C1424 C 0.82889 0.56667 1.00506 0.0
C1425 C 0.81162 0.56034 0.99492 0.0
C1426 C 0.8425 0.56487 0.97088 0.0
C1427 C 0.83899 0.55673 0.92614 0.0
C1428 C 0.82153 0.55134 0.91494 0.0
C1429 C 0.80794 0.55313 0.94902 0.0
C1430 C 0.85382 0.55127 0.89438 0.0
C1431 C 0.85571 0.53291 0.88541 0.0
C1432 C 0.8666 0.56355 0.87587 0.0
C1433 C 0.86505 0.58304 0.88428 0.0
C1434 C 0.85032 0.59249 0.86667 0.0
C1435 C 0.84887 0.61089 0.87528 0.0
C1436 C 0.86206 0.61992 0.9016 0.0
C1437 C 0.87672 0.61058 0.91929 0.0
C1438 C 0.87825 0.5922 0.91058 0.0
C1439 C 0.9017 0.51584 0.73015 0.0
C1440 C 0.91877 0.51148 0.74692 0.0
C1441 C 0.89036 0.52616 0.75845 0.0
C1442 C 0.89594 0.53242 0.80375 0.0
C1443 C 0.91347 0.52948 0.81891 0.0
C1444 C 0.92484 0.51899 0.79071 0.0
C1445 C 0.88241 0.53879 0.83818 0.0
C1446 C 0.88086 0.55716 0.84783 0.0
C1447 C 0.86996 0.52652 0.85813 0.0
C1448 C 0.87173 0.5069 0.85162 0.0
C1449 C 0.88682 0.49798 0.86909 0.0
C1450 C 0.88847 0.47949 0.86285 0.0
C1451 C 0.87501 0.46974 0.83958 0.0
C1452 C 0.85986 0.47848 0.82262 0.0
C1453 C 0.85818 0.49699 0.82868 0.0
H1454 H 0.8763 0.45542 0.83485 0.0
H1455 H 0.86089 0.63415 0.90833 0.0
H1456 H 0.02994 0.20221 0.86977 0.0
H1457 H 0.02535 0.17335 0.83013 0.0
H1458 H 0.06224 0.18867 0.71737 0.0
H1459 H 0.06692 0.21782 0.75695 0.0
H1460 H 0.03184 0.16907 0.68099 0.0
H1461 H 0.07734 0.15928 0.80189 0.0
H1462 H 0.08793 0.16611 0.88431 0.0
H1463 H 0.04105 0.14105 0.94448 0.0
H1464 H 0.03019 0.13411 0.86228 0.0
H1465 H 0.04523 0.07578 0.60695 0.0
H1466 H 0.05083 0.10657 0.63565 0.0
H1467 H 0.01018 0.09964 0.74472 0.0
H1468 H 1.004 0.06914 0.71452 0.0
H1469 H 0.04471 0.11519 0.78003 0.0
H1470 H 0.99582 0.13694 0.67391 0.0
H1471 H 0.97849 0.13853 0.59833 0.0
H1472 H 0.02694 0.14244 0.51576 0.0
H1473 H 0.04462 0.14124 0.59137 0.0
C1474 C 0.03728 0.19952 0.83682 0.0
C1475 C 0.04908 0.21254 0.81749 0.0
C1476 C 0.03454 0.18289 0.81383 0.0
C1477 C 0.04362 0.17843 0.77084 0.0
C1478 C 0.05501 0.19156 0.75042 0.0
C1479 C 0.05771 0.20833 0.77335 0.0
C1480 C 0.0418 0.15977 0.74938 0.0
C1481 C 0.03512 0.15735 0.70232 0.0
C1482 C 0.04548 0.1442 0.77703 0.0
C1483 C 0.05306 0.14602 0.82613 0.0
C1484 C 0.06946 0.15496 0.83279 0.0
C1485 C 0.07545 0.15895 0.8794 0.0
C1486 C 0.06519 0.15397 0.91962 0.0
C1487 C 0.04903 0.14479 0.9133 0.0
C1488 C 0.043 0.14072 0.86672 0.0
C1489 C 0.03739 0.08086 0.63686 0.0
C1490 C 0.02406 0.06994 0.65815 0.0
C1491 C 0.04059 0.09855 0.65326 0.0
C1492 C 0.03095 0.10571 0.69255 0.0
C1493 C 0.01781 0.09466 0.71433 0.0
C1494 C 0.01423 0.07717 0.69691 0.0
C1495 C 0.03481 0.12445 0.71134 0.0
C1496 C 0.04188 0.12688 0.75812 0.0
C1497 C 0.0314 0.14004 0.68355 0.0
C1498 C 0.02144 0.13891 0.63788 0.0
C1499 C 1.00276 0.13795 0.63953 0.0
C1500 C 0.99291 0.13891 0.59691 0.0
C1501 C 1.00164 0.14073 0.55252 0.0
C1502 C 0.02027 0.14119 0.55039 0.0
C1503 C 0.03021 0.14041 0.5931 0.0
H1504 H 0.99388 0.14196 0.52004 0.0
H1505 H 0.06973 0.15729 0.95567 0.0
H1506 H 0.33685 0.05949 0.8741 0.0
H1507 H 0.36581 0.05581 0.835 0.0
H1508 H 0.33999 0.04594 0.6987 0.0
H1509 H 0.31092 0.05045 0.73673 0.0
H1510 H 0.36706 0.02134 0.71424 0.0
H1511 H 0.36246 0.08412 0.7074 0.0
H1512 H 0.3553 0.11416 0.73854 0.0
H1513 H 0.39585 0.10915 0.84687 0.0
H1514 H 0.40321 0.07899 0.81639 0.0
H1515 H 0.45118 0.0272 0.58128 0.0
H1516 H 0.42055 0.03253 0.60937 0.0
H1517 H 0.43984 0.04089 0.75417 0.0
H1518 H 0.47016 0.03453 0.72711 0.0
H1519 H 0.41491 0.06744 0.72689 0.0
H1520 H 0.41861 1.00243 0.72487 0.0
H1521 H 0.423 0.9727 0.68804 0.0
H1522 H 0.38152 0.98327 0.58549 0.0
H1523 H 0.37703 1.01316 0.62137 0.0
C1524 C 0.33711 0.05687 0.83562 0.0
C1525 C 0.32103 0.05527 0.8093 0.0
C1526 C 0.35389 0.05462 0.81316 0.0
C1527 C 0.35538 0.05049 0.76354 0.0
C1528 C 0.33945 0.0489 0.73703 0.0
C1529 C 0.32265 0.05141 0.75928 0.0
C1530 C 0.3735 0.04782 0.73988 0.0
C1531 C 0.37741 0.03156 0.71649 0.0
C1532 C 0.38722 0.06101 0.74206 0.0
C1533 C 0.38331 0.07928 0.75985 0.0
C1534 C 0.36982 0.08942 0.73795 0.0
C1535 C 0.36573 0.10646 0.75543 0.0
C1536 C 0.37509 0.11355 0.79473 0.0
C1537 C 0.38863 0.10364 0.81641 0.0
C1538 C 0.39281 0.08659 0.79896 0.0
C1539 C 0.449 0.03018 0.61917 0.0
C1540 C 0.46361 0.03094 0.65135 0.0
C1541 C 0.43132 0.03324 0.63531 0.0
C1542 C 0.42758 0.03735 0.68416 0.0
C1543 C 0.44212 0.03805 0.71624 0.0
C1544 C 0.45969 0.03461 0.70038 0.0
C1545 C 0.4087 0.04071 0.70225 0.0
C1546 C 0.40459 0.0572 0.7245 0.0
C1547 C 0.39464 0.02787 0.69771 0.0
C1548 C 0.39765 1.01011 0.67541 0.0
C1549 C 0.41057 0.9985 0.6941 0.0
C1550 C 0.41304 0.98159 0.6735 0.0
C1551 C 0.40259 0.97612 0.63436 0.0
C1552 C 0.38963 0.98754 0.61574 0.0
C1553 C 0.38712 1.00446 0.6362 0.0
H1554 H 0.40448 0.96301 0.61855 0.0
H1555 H 0.37186 0.12672 0.80835 0.0
H1556 H 0.50393 0.32087 0.77914 0.0
H1557 H 0.50788 0.35001 0.73997 0.0
H1558 H 0.45533 0.36538 0.78612 0.0
H1559 H 0.45111 0.33598 0.82502 0.0
H1560 H 0.4641 0.37751 0.68836 0.0
H1561 H 0.48965 0.38084 0.84894 0.0
H1562 H 0.50846 0.36751 0.91226 0.0
H1563 H 0.55404 0.37107 0.81812 0.0
H1564 H 0.53541 0.38424 0.75398 0.0
H1565 H 0.47457 0.47304 0.66075 0.0
H1566 H 0.46865 0.44244 0.68947 0.0
H1567 H 0.52392 0.42935 0.66794 0.0
H1568 H 0.52992 0.45988 0.63906 0.0
H1569 H 0.51368 0.41524 0.75099 0.0
H1570 H 0.49003 0.4141 0.59261 0.0
H1571 H 0.47183 0.42254 0.52209 0.0
H1572 H 0.42399 0.41149 0.6027 0.0
H1573 H 0.44181 0.40343 0.67418 0.0
C1574 C 0.49302 0.33025 0.7806 0.0
C1575 C 0.47718 0.32577 0.80591 0.0
C1576 C 0.49536 0.34711 0.75815 0.0
C1577 C 0.48199 0.36024 0.75996 0.0
C1578 C 0.46594 0.35568 0.78387 0.0
C1579 C 0.46361 0.33881 0.80673 0.0
C1580 C 0.48538 0.379 0.74005 0.0
C1581 C 0.47473 0.3859 0.70264 0.0
C1582 C 0.49964 0.3899 0.75701 0.0
C1583 C 0.51117 0.38354 0.79677 0.0
C1584 C 0.50372 0.37889 0.84191 0.0
C1585 C 0.51432 0.3713 0.87785 0.0
C1586 C 0.53244 0.36845 0.86923 0.0
C1587 C 0.54001 0.37333 0.82477 0.0
C1588 C 0.52945 0.38091 0.78865 0.0
C1589 C 0.48553 0.4637 0.66194 0.0
C1590 C 0.5028 0.46927 0.64737 0.0
C1591 C 0.48207 0.44601 0.6783 0.0
C1592 C 0.49574 0.43315 0.68097 0.0
C1593 C 0.51301 0.43874 0.66665 0.0
C1594 C 0.51644 0.45636 0.64988 0.0
C1595 C 0.49217 0.41415 0.69946 0.0
C1596 C 0.50289 0.40709 0.73667 0.0
C1597 C 0.47808 0.40304 0.68165 0.0
C1598 C 0.46729 0.40841 0.63912 0.0
C1599 C 0.47563 0.41372 0.59561 0.0
C1600 C 0.46539 0.41838 0.55539 0.0
C1601 C 0.4468 0.41759 0.55797 0.0
C1602 C 0.4384 0.41215 0.60081 0.0
C1603 C 0.44856 0.40757 0.64123 0.0
H1604 H 0.43892 0.42113 0.52672 0.0
H1605 H 0.5406 0.36246 0.89698 0.0
H1606 H 0.21754 0.50128 0.75683 0.0
H1607 H 0.18942 0.50514 0.71442 0.0
H1608 H 0.16229 0.47393 0.82386 0.0
H1609 H 0.19061 0.46897 0.8649 0.0
H1610 H 0.14829 0.46594 0.74011 0.0
H1611 H 0.16384 0.52406 0.8134 0.0
H1612 H 0.18437 0.54987 0.82271 0.0
H1613 H 0.1815 0.5604 0.67014 0.0
H1614 H 0.16116 0.53451 0.65985 0.0
H1615 H 0.05869 0.48807 0.6991 0.0
H1616 H 0.08843 0.48311 0.72883 0.0
H1617 H 0.10847 0.52463 0.63374 0.0
H1618 H 0.07789 0.53107 0.60847 0.0
H1619 H 0.12796 0.5273 0.70164 0.0
H1620 H 0.11366 0.47292 0.62176 0.0
H1621 H 0.09714 0.44543 0.59937 0.0
H1622 H 0.10121 0.42601 0.74521 0.0
H1623 H 0.11753 0.45348 0.76866 0.0
C1624 C 0.20573 0.49494 0.7719 0.0
C1625 C 0.20673 0.48489 0.81527 0.0
C1626 C 0.1894 0.49744 0.74764 0.0
C1627 C 0.17326 0.49034 0.76619 0.0
C1628 C 0.17429 0.47986 0.8086 0.0
C1629 C 0.19065 0.47719 0.83262 0.0
C1630 C 0.15535 0.49388 0.74229 0.0
C1631 C 0.14376 0.4794 0.73239 0.0
C1632 C 0.14952 0.5113 0.72908 0.0
C1633 C 0.16106 0.52731 0.73586 0.0
C1634 C 0.16758 0.5319 0.78188 0.0
C1635 C 0.17921 0.54651 0.7873 0.0
C1636 C 0.18425 0.55675 0.74703 0.0
C1637 C 0.17759 0.55246 0.70129 0.0
C1638 C 0.166 0.53783 0.69566 0.0
C1639 C 0.06918 0.49646 0.68504 0.0
C1640 C 0.06534 0.51029 0.65199 0.0
C1641 C 0.08664 0.49326 0.70134 0.0
C1642 C 0.10142 0.50302 0.68311 0.0
C1643 C 0.09768 0.51673 0.64922 0.0
C1644 C 0.08001 0.52042 0.63442 0.0
C1645 C 0.1204 0.49932 0.70061 0.0
C1646 C 0.13229 0.51376 0.70919 0.0
C1647 C 0.12679 0.48175 0.71083 0.0
C1648 C 0.11665 0.46537 0.69707 0.0
C1649 C 0.11088 0.46287 0.64916 0.0
C1650 C 0.10157 0.44727 0.63627 0.0
C1651 C 0.09807 0.43401 0.67088 0.0
C1652 C 0.10389 0.43631 0.71846 0.0
C1653 C 0.11317 0.45188 0.73157 0.0
H1654 H 0.0909 0.42193 0.66081 0.0
H1655 H 0.1933 0.56803 0.75128 0.0
H1656 H 0.96639 0.81981 0.45546 0.0
H1657 H 0.96982 0.84918 0.49411 0.0
H1658 H 1.00451 0.86638 0.37807 0.0
H1659 H 1.00181 0.83697 0.34054 0.0
H1660 H 0.0182 0.87681 0.45985 0.0
H1661 H 0.95756 0.8792 0.39583 0.0
H1662 H 0.92665 0.86776 0.39089 0.0
H1663 H 0.91994 0.87561 0.54374 0.0
H1664 H 0.9509 0.88685 0.54973 0.0
H1665 H 0.02717 0.96987 0.4986 0.0
H1666 H 0.0211 0.93963 0.46837 0.0
H1667 H 0.97856 0.9335 0.57286 0.0
H1668 H 0.98378 0.96446 0.59999 0.0
H1669 H 0.96776 0.91574 0.50564 0.0
H1670 H 0.02486 0.91066 0.5773 0.0
H1671 H 0.05653 0.91591 0.59619 0.0
H1672 H 0.07047 0.90889 0.44677 0.0
H1673 H 0.03886 0.90327 0.42693 0.0
C1674 C 0.97486 0.82976 0.43812 0.0
C1675 C 0.98371 0.8257 0.3942 0.0
C1676 C 0.97664 0.84679 0.46017 0.0
C1677 C 0.98723 0.86046 0.43899 0.0
C1678 C 0.99613 0.85636 0.39546 0.0
C1679 C 0.99441 0.83939 0.37354 0.0
C1680 C 0.9897 0.87882 0.4621 0.0
C1681 C 1.00711 0.88541 0.469 0.0
C1682 C 0.9754 0.88989 0.47728 0.0
C1683 C 0.95659 0.88377 0.47325 0.0
C1684 C 0.94951 0.87846 0.4284 0.0
C1685 C 0.93198 0.87198 0.42542 0.0
C1686 C 0.92135 0.87093 0.46698 0.0
C1687 C 0.9282 0.87642 0.51158 0.0
C1688 C 0.94572 0.88287 0.51477 0.0
C1689 C 0.01652 0.96206 0.51512 0.0
C1690 C 1.00607 0.96967 0.552 0.0
C1691 C 0.01313 0.9445 0.49819 0.0
C1692 C 0.99965 0.93347 0.51891 0.0
C1693 C 0.98909 0.94126 0.55568 0.0
C1694 C 0.99212 0.95909 0.57151 0.0
C1695 C 0.99648 0.91417 0.50169 0.0
C1696 C 0.97893 0.9073 0.49626 0.0
C1697 C 0.01068 0.90246 0.48937 0.0
C1698 C 0.02949 0.90682 0.50056 0.0
C1699 C 0.03465 0.91047 0.54837 0.0
C1700 C 0.0526 0.91346 0.55928 0.0
C1701 C 0.0655 0.91298 0.52271 0.0
C1702 C 0.06047 0.90937 0.47506 0.0
C1703 C 0.04255 0.90621 0.46397 0.0
H1704 H 0.07939 0.91527 0.53136 0.0
H1705 H 0.90781 0.86587 0.46462 0.0
H1706 H 0.71818 1.008 0.45663 0.0
H1707 H 0.68909 1.01098 0.49605 0.0
H1708 H 0.66738 0.97038 0.4017 0.0
H1709 H 0.69633 0.96753 0.36188 0.0
H1710 H 0.64566 0.99548 0.40214 0.0
H1711 H 0.67481 0.96595 0.5326 0.0
H1712 H 0.69684 0.9603 0.59671 0.0
H1713 H 0.68377 1.0103 0.6642 0.0
H1714 H 0.66187 0.0164 0.60008 0.0
H1715 H 0.56002 0.98756 0.50832 0.0
H1716 H 0.59023 0.98268 0.48079 0.0
H1717 H 0.609 0.02405 0.57706 0.0
H1718 H 0.57834 0.02877 0.60545 0.0
H1719 H 0.63256 0.99912 0.57762 0.0
H1720 H 0.60464 0.02876 0.44166 0.0
H1721 H 0.58348 0.03379 0.37489 0.0
H1722 H 0.59489 0.98166 0.31752 0.0
H1723 H 0.616 0.97629 0.38407 0.0
C1724 C 0.70731 0.99949 0.44455 0.0
C1725 C 0.70983 0.98763 0.40528 0.0
C1726 C 0.69054 1.00117 0.4675 0.0
C1727 C 0.67567 0.9909 0.45247 0.0
C1728 C 0.67835 0.97868 0.41422 0.0
C1729 C 0.69504 0.9771 0.39108 0.0
C1730 C 0.6571 0.9938 0.47317 0.0
C1731 C 0.64289 0.99592 0.44067 0.0
C1732 C 0.65314 0.99506 0.52352 0.0
C1733 C 0.66685 0.99175 0.56103 0.0
C1734 C 0.67681 0.97587 0.56068 0.0
C1735 C 0.68924 0.97256 0.59715 0.0
C1736 C 0.69176 0.98497 0.63439 0.0
C1737 C 0.68186 1.00073 0.63524 0.0
C1738 C 0.66944 1.00412 0.59882 0.0
C1739 C 0.57029 0.99592 0.52324 0.0
C1740 C 0.56615 1.00893 0.55835 0.0
C1741 C 0.58789 0.99309 0.50726 0.0
C1742 C 0.60228 1.00333 0.52522 0.0
C1743 C 0.59837 0.01598 0.56168 0.0
C1744 C 0.58066 0.0187 0.57801 0.0
C1745 C 0.62118 1.00063 0.50637 0.0
C1746 C 0.63542 0.99861 0.53915 0.0
C1747 C 0.62526 0.99927 0.45619 0.0
C1748 C 0.61171 1.00206 0.41813 0.0
C1749 C 0.60243 0.01829 0.41517 0.0
C1750 C 0.59051 0.02122 0.37724 0.0
C1751 C 0.5878 1.00803 0.34207 0.0
C1752 C 0.59696 0.99185 0.34482 0.0
C1753 C 0.6089 0.98886 0.38261 0.0
H1754 H 0.57865 1.01037 0.3126 0.0
H1755 H 0.70133 0.98234 0.66268 0.0
H1756 H 0.57363 0.71005 0.40682 0.0
H1757 H 0.57043 0.68035 0.44496 0.0
H1758 H 0.51331 0.68365 0.43173 0.0
H1759 H 0.51658 0.71333 0.39367 0.0
H1760 H 0.52206 0.66891 0.51854 0.0
H1761 H 0.5392 0.65807 0.35178 0.0
H1762 H 0.55943 0.66398 0.28289 0.0
H1763 H 0.60345 0.64363 0.36454 0.0
H1764 H 0.58349 0.63781 0.43417 0.0
H1765 H 0.49785 0.57679 0.55611 0.0
H1766 H 0.50248 0.60758 0.52741 0.0
H1767 H 0.55895 0.59812 0.51579 0.0
H1768 H 0.55426 0.56724 0.54302 0.0
H1769 H 0.55204 0.61679 0.4441 0.0
H1770 H 0.53621 0.62629 0.60965 0.0
H1771 H 0.51904 0.62618 0.686 0.0
H1772 H 0.47546 0.65205 0.61481 0.0
H1773 H 0.49223 0.65208 0.53796 0.0
C1774 C 0.5604 0.70443 0.41215 0.0
C1775 C 0.54537 0.71402 0.39666 0.0
C1776 C 0.55854 0.68735 0.4339 0.0
C1777 C 0.54159 0.67932 0.44089 0.0
C1778 C 0.52657 0.68925 0.42678 0.0
C1779 C 0.52844 0.70625 0.40472 0.0
C1780 C 0.53944 0.66047 0.4613 0.0
C1781 C 0.52841 0.65747 0.50181 0.0
C1782 C 0.54818 0.64543 0.44109 0.0
C1783 C 0.55987 0.64753 0.39811 0.0
C1784 C 0.55318 0.65477 0.3549 0.0
C1785 C 0.5646 0.65816 0.31581 0.0
C1786 C 0.58272 0.65419 0.31935 0.0
C1787 C 0.58941 0.64667 0.36185 0.0
C1788 C 0.57804 0.64328 0.4011 0.0
C1789 C 0.51128 0.58123 0.54758 0.0
C1790 C 0.52563 0.56926 0.5523 0.0
C1791 C 0.514 0.59908 0.53143 0.0
C1792 C 0.5312 0.60577 0.51976 0.0
C1793 C 0.5455 0.59372 0.52429 0.0
C1794 C 0.54279 0.57588 0.54026 0.0
C1795 C 0.53426 0.62494 0.5015 0.0
C1796 C 0.54555 0.62807 0.46118 0.0
C1797 C 0.52594 0.64019 0.52252 0.0
C1798 C 0.51539 0.63898 0.56789 0.0
C1799 C 0.52285 0.63168 0.6101 0.0
C1800 C 0.51321 0.63171 0.65353 0.0
C1801 C 0.49615 0.63907 0.65513 0.0
C1802 C 0.48865 0.64631 0.61341 0.0
C1803 C 0.4982 0.6463 0.56995 0.0
H1804 H 0.48872 0.63928 0.68863 0.0
H1805 H 0.59157 0.65693 0.28916 0.0
H1806 H 0.81014 0.53611 0.46495 0.0
H1807 H 0.83919 0.53344 0.50444 0.0
H1808 H 0.8638 0.56277 0.38718 0.0
H1809 H 0.83492 0.56558 0.3478 0.0
H1810 H 0.88249 0.53513 0.40203 0.0
H1811 H 0.85833 0.57856 0.50964 0.0
H1812 H 0.83827 0.59235 0.56948 0.0
H1813 H 0.84849 0.54961 0.66945 0.0
H1814 H 0.86832 0.53532 0.60989 0.0
H1815 H 0.96948 0.54839 0.50326 0.0
H1816 H 0.93917 0.55314 0.47493 0.0
H1817 H 0.91973 0.51377 0.5767 0.0
H1818 H 0.9505 0.5081 0.60299 0.0
H1819 H 0.89826 0.54605 0.57345 0.0
H1820 H 0.92068 0.50211 0.4638 0.0
H1821 H 0.93996 0.48791 0.40276 0.0
H1822 H 0.93238 0.5325 0.30684 0.0
H1823 H 0.91327 0.5471 0.36765 0.0
C1824 C 0.82164 0.54227 0.44767 0.0
C1825 C 0.81986 0.55087 0.40223 0.0
C1826 C 0.83841 0.54074 0.47064 0.0
C1827 C 0.85408 0.54784 0.44926 0.0
C1828 C 0.8522 0.55692 0.40476 0.0
C1829 C 0.8355 0.55843 0.38184 0.0
C1830 C 0.87255 0.54463 0.47032 0.0
C1831 C 0.88586 0.53789 0.43943 0.0
C1832 C 0.87722 0.54751 0.51973 0.0
C1833 C 0.86462 0.55568 0.5548 0.0
C1834 C 0.85608 0.5719 0.54401 0.0
C1835 C 0.84479 0.57986 0.578 0.0
C1836 C 0.84204 0.57182 0.62314 0.0
C1837 C 0.85056 0.55579 0.63438 0.0
C1838 C 0.86181 0.54774 0.60047 0.0
C1839 C 0.95898 0.54045 0.51921 0.0
C1840 C 0.96292 0.52749 0.55476 0.0
C1841 C 0.94141 0.5433 0.50305 0.0
C1842 C 0.92685 0.53378 0.52309 0.0
C1843 C 0.93055 0.52129 0.56004 0.0
C1844 C 0.94828 0.51798 0.57501 0.0
C1845 C 0.908 0.53678 0.50478 0.0
C1846 C 0.89473 0.54342 0.5361 0.0
C1847 C 0.90325 0.53392 0.45571 0.0
C1848 C 0.91578 0.52583 0.42062 0.0
C1849 C 0.92341 0.50905 0.43009 0.0
C1850 C 0.93423 0.50088 0.39542 0.0
C1851 C 0.93746 0.50933 0.35103 0.0
C1852 C 0.92994 0.526 0.34131 0.0
C1853 C 0.91913 0.53424 0.37588 0.0
H1854 H 0.94573 0.50291 0.3241 0.0
H1855 H 0.83336 0.57804 0.64947 0.0
loop_
_geom_bond_atom_site_label_1
_geom_bond_atom_site_label_2
_geom_bond_distance
_geom_bond_site_symmetry_2
_ccdc_geom_bond_type
C0 C1 1.264 . S
C0 C5 1.479 . S
C0 C10 1.465 . S
C1 C0 1.264 . S
C1 C3 1.339 . S
C1 H28 0.931 . S
C2 C3 1.395 . S
C2 C4 1.320 . S
C3 C1 1.339 . S
C3 C2 1.395 . S
C3 H29 0.929 . S
C4 C2 1.320 . S
C4 C5 1.405 . S
C4 H30 0.930 . S
C5 C0 1.479 . S
C5 C4 1.405 . S
C5 H31 0.931 . S
U6 O7 2.454 . S
U6 O8 2.458 . S
U6 C9 2.984 . S
U6 C10 2.847 . S
U6 C23 2.882 . S
U6 O24 2.441 . S
U6 O25 2.420 . S
U6 O26 2.455 . S
U6 O27 2.449 . S
O7 U6 2.454 . S
O7 C9 1.353 . S
O8 U6 2.458 . S
O8 C9 1.286 . S
C9 U6 2.984 . S
C9 O7 1.353 . S
C9 O8 1.286 . S
C9 C11 1.363 . S
C10 C0 1.465 . S
C10 U6 2.847 . S
C10 O24 1.249 . S
C10 O25 1.202 . S
C11 C9 1.363 . S
C11 C13 1.408 . S
C11 C16 1.342 . S
C12 C13 1.310 . S
C12 C15 1.461 . S
C12 H32 0.932 . S
C13 C11 1.408 . S
C13 C12 1.310 . S
C13 H33 0.930 . S
C14 C15 1.474 . S
C14 C16 1.285 . S
C14 H34 0.929 . S
C15 C12 1.461 . S
C15 C14 1.474 . S
C16 C11 1.342 . S
C16 C14 1.285 . S
C16 H35 0.930 . S
C17 C20 1.424 . S
C17 C22 1.245 . S
C17 C23 1.428 . S
C18 C21 1.260 . S
C18 C22 1.477 1_556 S
C18 H36 0.932 . S
C19 C20 1.384 . S
C19 C21 1.479 1_554 S
C19 H37 0.929 . S
C20 C17 1.424 . S
C20 C19 1.384 . S
C20 H38 0.928 . S
C21 C18 1.260 . S
C21 C19 1.479 1_556 S
C22 C17 1.245 . S
C22 C18 1.477 1_554 S
C22 H39 0.932 1_554 S
C23 U6 2.882 . S
C23 C17 1.428 . S
C23 O26 1.301 . S
C23 O27 1.282 . S
O24 U6 2.441 . S
O24 C10 1.249 . S
O25 U6 2.420 . S
O25 C10 1.202 . S
O26 U6 2.455 . S
O26 C23 1.301 . S
O27 U6 2.449 . S
O27 C23 1.282 . S
H28 C1 0.931 . S
H29 C3 0.929 . S
H30 C4 0.930 . S
H31 C5 0.931 . S
H32 C12 0.932 . S
H33 C13 0.930 . S
H34 C14 0.929 . S
H35 C16 0.930 . S
H36 C18 0.932 . S
H37 C19 0.929 . S
H38 C20 0.928 . S
H39 C22 0.932 1_556 S
C40 C41 1.264 . S
C40 C45 1.479 . S
C40 C50 1.465 . S
C41 C40 1.264 . S
C41 C43 1.339 . S
C41 H68 0.931 . S
C42 C43 1.395 . S
C42 C44 1.320 . S
C43 C41 1.339 . S
C43 C42 1.395 . S
C43 H69 0.929 . S
C44 C42 1.320 . S
C44 C45 1.405 . S
C44 H70 0.930 . S
C45 C40 1.479 . S
C45 C44 1.405 . S
C45 H71 0.931 . S
U46 O47 2.454 . S
U46 O48 2.458 . S
U46 C49 2.984 . S
U46 C50 2.847 . S
U46 C63 2.882 . S
U46 O64 2.441 . S
U46 O65 2.420 . S
U46 O66 2.455 . S
U46 O67 2.449 . S
O47 U46 2.454 . S
O47 C49 1.353 . S
O48 U46 2.458 . S
O48 C49 1.286 . S
C49 U46 2.984 . S
C49 O47 1.353 . S
C49 O48 1.286 . S
C49 C51 1.363 . S
C50 C40 1.465 . S
C50 U46 2.847 . S
C50 O64 1.249 . S
C50 O65 1.202 . S
C51 C49 1.363 . S
C51 C53 1.408 . S
C51 C56 1.342 . S
C52 C53 1.310 . S
C52 C55 1.461 . S
C52 H72 0.932 . S
C53 C51 1.408 . S
C53 C52 1.310 . S
C53 H73 0.930 . S
C54 C55 1.474 . S
C54 C56 1.285 . S
C54 H74 0.929 . S
C55 C52 1.461 . S
C55 C54 1.474 . S
C56 C51 1.342 . S
C56 C54 1.285 . S
C56 H75 0.930 . S
C57 C60 1.424 . S
C57 C62 1.245 . S
C57 C63 1.428 . S
C58 C61 1.260 . S
C58 C62 1.477 1_556 S
C58 H76 0.932 . S
C59 C60 1.384 . S
C59 C61 1.479 1_554 S
C59 H77 0.929 . S
C60 C57 1.424 . S
C60 C59 1.384 . S
C60 H78 0.928 . S
C61 C58 1.260 . S
C61 C59 1.479 1_556 S
C62 C57 1.245 . S
C62 C58 1.477 1_554 S
C62 H79 0.932 1_554 S
C63 U46 2.882 . S
C63 C57 1.428 . S
C63 O66 1.301 . S
C63 O67 1.282 . S
O64 U46 2.441 . S
O64 C50 1.249 . S
O65 U46 2.420 . S
O65 C50 1.202 . S
O66 U46 2.455 . S
O66 C63 1.301 . S
O67 U46 2.449 . S
O67 C63 1.282 . S
H68 C41 0.931 . S
H69 C43 0.929 . S
H70 C44 0.930 . S
H71 C45 0.931 . S
H72 C52 0.932 . S
H73 C53 0.930 . S
H74 C54 0.929 . S
H75 C56 0.930 . S
H76 C58 0.932 . S
H77 C59 0.929 . S
H78 C60 0.928 . S
H79 C62 0.932 1_556 S
C80 C81 1.264 . S
C80 C85 1.479 . S
C80 C90 1.465 . S
C81 C80 1.264 . S
C81 C83 1.339 . S
C81 H108 0.931 . S
C82 C83 1.395 . S
C82 C84 1.320 . S
C83 C81 1.339 . S
C83 C82 1.395 . S
C83 H109 0.929 . S
C84 C82 1.320 . S
C84 C85 1.405 . S
C84 H110 0.930 . S
C85 C80 1.479 . S
C85 C84 1.405 . S
C85 H111 0.931 . S
U86 O87 2.454 . S
U86 O88 2.458 . S
U86 C89 2.984 . S
U86 C90 2.847 . S
U86 C103 2.882 . S
U86 O104 2.441 . S
U86 O105 2.420 . S
U86 O106 2.455 . S
U86 O107 2.449 . S
O87 U86 2.454 . S
O87 C89 1.353 . S
O88 U86 2.458 . S
O88 C89 1.286 . S
C89 U86 2.984 . S
C89 O87 1.353 . S
C89 O88 1.286 . S
C89 C91 1.363 . S
C90 C80 1.465 . S
C90 U86 2.847 . S
C90 O104 1.249 . S
C90 O105 1.202 . S
C91 C89 1.363 . S
C91 C93 1.408 . S
C91 C96 1.342 . S
C92 C93 1.310 . S
C92 C95 1.461 . S
C92 H112 0.932 . S
C93 C91 1.408 . S
C93 C92 1.310 . S
C93 H113 0.930 . S
C94 C95 1.474 . S
C94 C96 1.285 . S
C94 H114 0.929 . S
C95 C92 1.461 . S
C95 C94 1.474 . S
C96 C91 1.342 . S
C96 C94 1.285 . S
C96 H115 0.930 . S
C97 C100 1.424 . S
C97 C102 1.245 . S
C97 C103 1.428 . S
C98 C101 1.260 . S
C98 C102 1.477 1_556 S
C98 H116 0.932 . S
C99 C100 1.384 . S
C99 C101 1.479 1_554 S
C99 H117 0.929 . S
C100 C97 1.424 . S
C100 C99 1.384 . S
C100 H118 0.928 . S
C101 C98 1.260 . S
C101 C99 1.479 1_556 S
C102 C97 1.245 . S
C102 C98 1.477 1_554 S
C102 H119 0.932 1_554 S
C103 U86 2.882 . S
C103 C97 1.428 . S
C103 O106 1.301 . S
C103 O107 1.282 . S
O104 U86 2.441 . S
O104 C90 1.249 . S
O105 U86 2.420 . S
O105 C90 1.202 . S
O106 U86 2.455 . S
O106 C103 1.301 . S
O107 U86 2.449 . S
O107 C103 1.282 . S
H108 C81 0.931 . S
H109 C83 0.929 . S
H110 C84 0.930 . S
H111 C85 0.931 . S
H112 C92 0.932 . S
H113 C93 0.930 . S
H114 C94 0.929 . S
H115 C96 0.930 . S
H116 C98 0.932 . S
H117 C99 0.929 . S
H118 C100 0.928 . S
H119 C102 0.932 1_556 S
C120 C121 1.264 . S
C120 C125 1.479 . S
C120 C130 1.465 . S
C121 C120 1.264 . S
C121 C123 1.339 . S
C121 H148 0.931 . S
C122 C123 1.395 . S
C122 C124 1.320 . S
C123 C121 1.339 . S
C123 C122 1.395 . S
C123 H149 0.929 . S
C124 C122 1.320 . S
C124 C125 1.405 . S
C124 H150 0.930 . S
C125 C120 1.479 . S
C125 C124 1.405 . S
C125 H151 0.931 . S
U126 O127 2.454 . S
U126 O128 2.458 . S
U126 C129 2.984 . S
U126 C130 2.847 . S
U126 C143 2.882 . S
U126 O144 2.441 . S
U126 O145 2.420 . S
U126 O146 2.455 . S
U126 O147 2.449 . S
O127 U126 2.454 . S
O127 C129 1.353 . S
O128 U126 2.458 . S
O128 C129 1.286 . S
C129 U126 2.984 . S
C129 O127 1.353 . S
C129 O128 1.286 . S
C129 C131 1.363 . S
C130 C120 1.465 . S
C130 U126 2.847 . S
C130 O144 1.249 . S
C130 O145 1.202 . S
C131 C129 1.363 . S
C131 C133 1.408 . S
C131 C136 1.342 . S
C132 C133 1.310 . S
C132 C135 1.461 . S
C132 H152 0.932 . S
C133 C131 1.408 . S
C133 C132 1.310 . S
C133 H153 0.930 . S
C134 C135 1.474 . S
C134 C136 1.285 . S
C134 H154 0.929 . S
C135 C132 1.461 . S
C135 C134 1.474 . S
C136 C131 1.342 . S
C136 C134 1.285 . S
C136 H155 0.930 . S
C137 C140 1.424 . S
C137 C142 1.245 . S
C137 C143 1.428 . S
C138 C141 1.260 . S
C138 C142 1.477 1_556 S
C138 H156 0.932 . S
C139 C140 1.384 . S
C139 C141 1.479 1_554 S
C139 H157 0.929 . S
C140 C137 1.424 . S
C140 C139 1.384 . S
C140 H158 0.928 . S
C141 C138 1.260 . S
C141 C139 1.479 1_556 S
C142 C137 1.245 . S
C142 C138 1.477 1_554 S
C142 H159 0.927 1_554 S
C143 U126 2.882 . S
C143 C137 1.428 . S
C143 O146 1.301 . S
C143 O147 1.282 . S
O144 U126 2.441 . S
O144 C130 1.249 . S
O145 U126 2.420 . S
O145 C130 1.202 . S
O146 U126 2.455 . S
O146 C143 1.301 . S
O147 U126 2.449 . S
O147 C143 1.282 . S
H148 C121 0.931 . S
H149 C123 0.929 . S
H150 C124 0.930 . S
H151 C125 0.931 . S
H152 C132 0.932 . S
H153 C133 0.930 . S
H154 C134 0.929 . S
H155 C136 0.930 . S
H156 C138 0.932 . S
H157 C139 0.929 . S
H158 C140 0.928 . S
H159 C142 0.927 1_556 S
C160 C161 1.264 . S
C160 C165 1.479 . S
C160 C170 1.465 . S
C161 C160 1.264 . S
C161 C163 1.339 . S
C161 H188 0.931 . S
C162 C163 1.395 . S
C162 C164 1.320 . S
C163 C161 1.339 . S
C163 C162 1.395 . S
C163 H189 0.929 . S
C164 C162 1.320 . S
C164 C165 1.405 . S
C164 H190 0.930 . S
C165 C160 1.479 . S
C165 C164 1.405 . S
C165 H191 0.931 . S
U166 O167 2.454 . S
U166 O168 2.458 . S
U166 C169 2.984 . S
U166 C170 2.847 1_554 S
U166 C183 2.882 . S
U166 O184 2.441 1_554 S
U166 O185 2.420 1_554 S
U166 O186 2.455 . S
U166 O187 2.449 . S
O167 U166 2.454 . S
O167 C169 1.353 . S
O168 U166 2.458 . S
O168 C169 1.286 . S
C169 U166 2.984 . S
C169 O167 1.353 . S
C169 O168 1.286 . S
C169 C171 1.363 . S
C170 C160 1.465 . S
C170 U166 2.847 1_556 S
C170 O184 1.249 . S
C170 O185 1.202 . S
C171 C169 1.363 . S
C171 C173 1.408 . S
C171 C176 1.342 . S
C172 C173 1.310 . S
C172 C175 1.461 . S
C172 H192 0.932 . S
C173 C171 1.408 . S
C173 C172 1.310 . S
C173 H193 0.930 1_554 S
C174 C175 1.474 . S
C174 C176 1.285 . S
C174 H194 0.929 . S
C175 C172 1.461 . S
C175 C174 1.474 . S
C176 C171 1.342 . S
C176 C174 1.285 . S
C176 H195 0.930 . S
C177 C180 1.424 . S
C177 C182 1.245 . S
C177 C183 1.428 . S
C178 C181 1.260 . S
C178 C182 1.477 . S
C178 H196 0.932 . S
C179 C180 1.384 . S
C179 C181 1.479 . S
C179 H197 0.929 . S
C180 C177 1.424 . S
C180 C179 1.384 . S
C180 H198 0.928 . S
C181 C178 1.260 . S
C181 C179 1.479 . S
C182 C177 1.245 . S
C182 C178 1.477 . S
C182 H199 0.932 . S
C183 U166 2.882 . S
C183 C177 1.428 . S
C183 O186 1.301 . S
C183 O187 1.282 . S
O184 U166 2.441 1_556 S
O184 C170 1.249 . S
O185 U166 2.420 1_556 S
O185 C170 1.202 . S
O186 U166 2.455 . S
O186 C183 1.301 . S
O187 U166 2.449 . S
O187 C183 1.282 . S
H188 C161 0.931 . S
H189 C163 0.929 . S
H190 C164 0.930 . S
H191 C165 0.931 . S
H192 C172 0.932 . S
H193 C173 0.930 1_556 S
H194 C174 0.929 . S
H195 C176 0.930 . S
H196 C178 0.932 . S
H197 C179 0.929 . S
H198 C180 0.928 . S
H199 C182 0.932 . S
C200 C201 1.264 . S
C200 C205 1.479 . S
C200 C210 1.465 . S
C201 C200 1.264 . S
C201 C203 1.339 . S
C201 H228 0.931 . S
C202 C203 1.395 . S
C202 C204 1.320 . S
C203 C201 1.339 . S
C203 C202 1.395 . S
C203 H229 0.929 . S
C204 C202 1.320 . S
C204 C205 1.405 . S
C204 H230 0.930 . S
C205 C200 1.479 . S
C205 C204 1.405 . S
C205 H231 0.931 . S
U206 O207 2.454 . S
U206 O208 2.458 . S
U206 C209 2.984 . S
U206 C210 2.847 1_554 S
U206 C223 2.882 . S
U206 O224 2.441 1_554 S
U206 O225 2.420 1_554 S
U206 O226 2.455 . S
U206 O227 2.449 . S
O207 U206 2.454 . S
O207 C209 1.353 . S
O208 U206 2.458 . S
O208 C209 1.286 . S
C209 U206 2.984 . S
C209 O207 1.353 . S
C209 O208 1.286 . S
C209 C211 1.363 . S
C210 C200 1.465 . S
C210 U206 2.847 1_556 S
C210 O224 1.249 . S
C210 O225 1.202 . S
C211 C209 1.363 . S
C211 C213 1.408 . S
C211 C216 1.342 . S
C212 C213 1.310 . S
C212 C215 1.461 . S
C212 H232 0.932 . S
C213 C211 1.408 . S
C213 C212 1.310 . S
C213 H233 0.930 1_554 S
C214 C215 1.474 . S
C214 C216 1.285 . S
C214 H234 0.929 . S
C215 C212 1.461 . S
C215 C214 1.474 . S
C216 C211 1.342 . S
C216 C214 1.285 . S
C216 H235 0.930 . S
C217 C220 1.424 . S
C217 C222 1.245 . S
C217 C223 1.428 . S
C218 C221 1.260 . S
C218 C222 1.477 . S
C218 H236 0.932 . S
C219 C220 1.384 . S
C219 C221 1.479 . S
C219 H237 0.929 . S
C220 C217 1.424 . S
C220 C219 1.384 . S
C220 H238 0.928 . S
C221 C218 1.260 . S
C221 C219 1.479 . S
C222 C217 1.245 . S
C222 C218 1.477 . S
C222 H239 0.932 . S
C223 U206 2.882 . S
C223 C217 1.428 . S
C223 O226 1.301 . S
C223 O227 1.282 . S
O224 U206 2.441 1_556 S
O224 C210 1.249 . S
O225 U206 2.420 1_556 S
O225 C210 1.202 . S
O226 U206 2.455 . S
O226 C223 1.301 . S
O227 U206 2.449 . S
O227 C223 1.282 . S
H228 C201 0.931 . S
H229 C203 0.929 . S
H230 C204 0.930 . S
H231 C205 0.931 . S
H232 C212 0.932 . S
H233 C213 0.930 1_556 S
H234 C214 0.929 . S
H235 C216 0.930 . S
H236 C218 0.932 . S
H237 C219 0.929 . S
H238 C220 0.928 . S
H239 C222 0.932 . S
C240 C241 1.264 . S
C240 C245 1.479 . S
C240 C250 1.465 . S
C241 C240 1.264 . S
C241 C243 1.339 . S
C241 H268 0.931 . S
C242 C243 1.395 . S
C242 C244 1.320 . S
C243 C241 1.339 . S
C243 C242 1.395 . S
C243 H269 0.929 . S
C244 C242 1.320 . S
C244 C245 1.405 . S
C244 H270 0.930 . S
C245 C240 1.479 . S
C245 C244 1.405 . S
C245 H271 0.931 . S
U246 O247 2.454 . S
U246 O248 2.458 . S
U246 C249 2.984 . S
U246 C250 2.847 1_554 S
U246 C263 2.882 . S
U246 O264 2.441 1_554 S
U246 O265 2.420 1_554 S
U246 O266 2.455 . S
U246 O267 2.449 . S
O247 U246 2.454 . S
O247 C249 1.353 . S
O248 U246 2.458 . S
O248 C249 1.286 . S
C249 U246 2.984 . S
C249 O247 1.353 . S
C249 O248 1.286 . S
C249 C251 1.363 . S
C250 C240 1.465 . S
C250 U246 2.847 1_556 S
C250 O264 1.249 . S
C250 O265 1.202 . S
C251 C249 1.363 . S
C251 C253 1.408 . S
C251 C256 1.342 . S
C252 C253 1.310 . S
C252 C255 1.461 . S
C252 H272 0.932 . S
C253 C251 1.408 . S
C253 C252 1.310 . S
C253 H273 0.930 1_554 S
C254 C255 1.474 . S
C254 C256 1.285 . S
C254 H274 0.929 . S
C255 C252 1.461 . S
C255 C254 1.474 . S
C256 C251 1.342 . S
C256 C254 1.285 . S
C256 H275 0.930 . S
C257 C260 1.424 . S
C257 C262 1.245 . S
C257 C263 1.428 . S
C258 C261 1.260 . S
C258 C262 1.477 . S
C258 H276 0.932 . S
C259 C260 1.384 . S
C259 C261 1.479 . S
C259 H277 0.929 . S
C260 C257 1.424 . S
C260 C259 1.384 . S
C260 H278 0.928 . S
C261 C258 1.260 . S
C261 C259 1.479 . S
C262 C257 1.245 . S
C262 C258 1.477 . S
C262 H279 0.932 . S
C263 U246 2.882 . S
C263 C257 1.428 . S
C263 O266 1.301 . S
C263 O267 1.282 . S
O264 U246 2.441 1_556 S
O264 C250 1.249 . S
O265 U246 2.420 1_556 S
O265 C250 1.202 . S
O266 U246 2.455 . S
O266 C263 1.301 . S
O267 U246 2.449 . S
O267 C263 1.282 . S
H268 C241 0.931 . S
H269 C243 0.929 . S
H270 C244 0.930 . S
H271 C245 0.931 . S
H272 C252 0.932 . S
H273 C253 0.930 1_556 S
H274 C254 0.929 . S
H275 C256 0.930 . S
H276 C258 0.932 . S
H277 C259 0.929 . S
H278 C260 0.928 . S
H279 C262 0.932 . S
C280 C281 1.264 . S
C280 C285 1.479 . S
C280 C290 1.465 . S
C281 C280 1.264 . S
C281 C283 1.339 . S
C281 H308 0.931 . S
C282 C283 1.395 . S
C282 C284 1.320 . S
C283 C281 1.339 . S
C283 C282 1.395 . S
C283 H309 0.929 . S
C284 C282 1.320 . S
C284 C285 1.405 . S
C284 H310 0.930 . S
C285 C280 1.479 . S
C285 C284 1.405 . S
C285 H311 0.931 . S
U286 O287 2.454 . S
U286 O288 2.458 . S
U286 C289 2.984 . S
U286 C290 2.847 1_554 S
U286 C303 2.882 . S
U286 O304 2.441 1_554 S
U286 O305 2.420 1_554 S
U286 O306 2.455 . S
U286 O307 2.449 . S
O287 U286 2.454 . S
O287 C289 1.353 . S
O288 U286 2.458 . S
O288 C289 1.286 . S
C289 U286 2.984 . S
C289 O287 1.353 . S
C289 O288 1.286 . S
C289 C291 1.363 . S
C290 C280 1.465 . S
C290 U286 2.847 1_556 S
C290 O304 1.249 . S
C290 O305 1.202 . S
C291 C289 1.363 . S
C291 C293 1.408 . S
C291 C296 1.342 . S
C292 C293 1.310 . S
C292 C295 1.461 . S
C292 H312 0.932 . S
C293 C291 1.408 . S
C293 C292 1.310 . S
C293 H313 0.930 1_554 S
C294 C295 1.474 . S
C294 C296 1.285 . S
C294 H314 0.929 . S
C295 C292 1.461 . S
C295 C294 1.474 . S
C296 C291 1.342 . S
C296 C294 1.285 . S
C296 H315 0.930 . S
C297 C300 1.424 . S
C297 C302 1.245 . S
C297 C303 1.428 . S
C298 C301 1.260 . S
C298 C302 1.477 . S
C298 H316 0.932 . S
C299 C300 1.384 . S
C299 C301 1.479 . S
C299 H317 0.929 . S
C300 C297 1.424 . S
C300 C299 1.384 . S
C300 H318 0.928 . S
C301 C298 1.260 . S
C301 C299 1.479 . S
C302 C297 1.245 . S
C302 C298 1.477 . S
C302 H319 0.932 . S
C303 U286 2.882 . S
C303 C297 1.428 . S
C303 O306 1.301 . S
C303 O307 1.282 . S
O304 U286 2.441 1_556 S
O304 C290 1.249 . S
O305 U286 2.420 1_556 S
O305 C290 1.202 . S
O306 U286 2.455 . S
O306 C303 1.301 . S
O307 U286 2.449 . S
O307 C303 1.282 . S
H308 C281 0.931 . S
H309 C283 0.929 . S
H310 C284 0.930 . S
H311 C285 0.931 . S
H312 C292 0.932 . S
H313 C293 0.930 1_556 S
H314 C294 0.929 . S
H315 C296 0.930 . S
H316 C298 0.932 . S
H317 C299 0.929 . S
H318 C300 0.928 . S
H319 C302 0.932 . S
Tb320 N349 2.617 . S
Tb320 N355 2.572 . S
Tb320 O364 2.446 1_655 S
Tb320 O365 2.387 1_545 S
Tb320 O367 2.428 . S
Tb320 O368 2.308 1_655 S
Tb320 O372 2.349 1_655 S
Tb320 O375 2.393 . S
Tb320 C384 2.802 . S
C321 N322 1.358 1_545 S
C321 C324 1.416 . S
C321 C328 1.424 . S
N322 C321 1.358 1_565 S
N322 C325 1.341 . S
N322 Tb331 2.628 . S
C323 C325 1.390 1_545 S
C323 C326 1.339 . S
C323 H343 0.930 . S
C324 C321 1.416 . S
C324 C326 1.416 . S
C324 C330 1.448 . S
C325 N322 1.341 . S
C325 C323 1.390 1_565 S
C325 H336 0.930 . S
C326 C323 1.339 . S
C326 C324 1.416 . S
C326 H347 0.930 . S
C327 C328 1.413 . S
C327 C329 1.427 . S
C327 C333 1.416 . S
C328 C321 1.424 . S
C328 C327 1.413 . S
C328 N332 1.361 . S
C329 C327 1.427 . S
C329 C330 1.328 . S
C329 H344 0.929 . S
C330 C324 1.448 . S
C330 C329 1.328 . S
C330 H345 0.930 . S
Tb331 N322 2.628 . S
Tb331 N332 2.572 1_565 S
Tb331 O366 2.349 . S
Tb331 O369 2.393 . S
Tb331 O370 2.465 . S
Tb331 O371 2.387 1_565 S
Tb331 O373 2.428 . S
Tb331 O374 2.308 1_465 S
Tb331 C395 2.802 . S
N332 C328 1.361 . S
N332 Tb331 2.572 1_545 S
N332 C334 1.340 . S
C333 C327 1.416 . S
C333 C335 1.332 . S
C333 H341 0.931 . S
C334 N332 1.340 . S
C334 C335 1.407 . S
C334 H340 0.929 1_445 S
C335 C333 1.332 . S
C335 C334 1.407 . S
C335 H337 0.913 1_455 S
H336 C325 0.930 . S
H337 C335 0.913 1_655 S
H338 C353 0.930 . S
H339 C360 0.929 1_465 S
H340 C334 0.929 1_665 S
H341 C333 0.931 . S
H342 C356 0.958 . S
H343 C323 0.930 . S
H344 C329 0.929 . S
H345 C330 0.930 . S
H346 C351 0.930 . S
H347 C326 0.930 . S
H348 C359 0.931 . S
N349 Tb320 2.617 . S
N349 C350 1.379 . S
N349 C353 1.334 . S
C350 N349 1.379 . S
C350 C352 1.417 . S
C350 C358 1.424 . S
C351 H346 0.930 . S
C351 C353 1.390 . S
C351 C354 1.339 . S
C352 C350 1.417 . S
C352 C354 1.417 . S
C352 C385 1.447 1_545 S
C353 H338 0.930 . S
C353 N349 1.334 . S
C353 C351 1.390 . S
C354 C351 1.339 . S
C354 C352 1.417 . S
C354 H361 0.930 1_545 S
N355 Tb320 2.572 . S
N355 C356 1.314 1_655 S
N355 C358 1.361 . S
C356 H342 0.958 . S
C356 N355 1.314 1_455 S
C356 C360 1.426 1_455 S
C357 C358 1.413 1_565 S
C357 C359 1.416 . S
C357 C386 1.427 . S
C358 C350 1.424 . S
C358 N355 1.361 . S
C358 C357 1.413 1_545 S
C359 H348 0.931 . S
C359 C357 1.416 . S
C359 C360 1.315 1_565 S
C360 H339 0.929 1_645 S
C360 C356 1.426 1_655 S
C360 C359 1.315 1_545 S
H361 C354 0.930 1_565 S
H362 C385 0.930 . S
H363 C386 0.929 . S
O364 Tb320 2.446 1_455 S
O364 C384 1.218 1_455 S
O365 Tb320 2.387 1_565 S
O365 C376 1.264 . S
O366 Tb331 2.349 . S
O366 C376 1.243 1_455 S
O367 Tb320 2.428 . S
O367 C384 1.256 . S
O368 Tb320 2.308 1_455 S
O368 C383 1.266 . S
O369 Tb331 2.393 . S
O369 C383 1.248 1_565 S
O370 Tb331 2.465 . S
O370 C395 1.264 . S
O371 Tb331 2.387 1_545 S
O371 C387 1.264 . S
O372 Tb320 2.349 1_455 S
O372 C387 1.243 . S
O373 Tb331 2.428 . S
O373 C395 1.256 . S
O374 Tb331 2.308 1_645 S
O374 C394 1.266 . S
O375 Tb320 2.393 . S
O375 C394 1.248 . S
C376 O365 1.264 . S
C376 O366 1.243 1_655 S
C377 C380 1.399 . S
C377 C382 1.389 . S
C377 C384 1.496 . S
C378 C379 1.399 . S
C378 C382 1.390 . S
C379 C378 1.399 . S
C379 C381 1.380 . S
C379 H396 0.929 . S
C380 C377 1.399 . S
C380 C381 1.392 . S
C380 H397 0.929 . S
C381 C379 1.380 . S
C381 C380 1.392 . S
C381 H398 0.929 . S
C382 C377 1.389 . S
C382 C378 1.390 . S
C382 H399 0.924 1_655 S
C383 O368 1.266 . S
C383 O369 1.248 1_545 S
C384 Tb320 2.802 . S
C384 O364 1.218 1_655 S
C384 O367 1.256 . S
C384 C377 1.496 . S
C385 C352 1.447 1_565 S
C385 H362 0.930 . S
C385 C386 1.328 . S
C386 C357 1.427 . S
C386 H363 0.929 . S
C386 C385 1.328 . S
C387 O371 1.264 . S
C387 O372 1.243 . S
C388 C391 1.399 . S
C388 C392 1.383 . S
C388 C395 1.496 . S
C389 C390 1.399 . S
C389 C392 1.389 . S
C390 C389 1.399 . S
C390 C393 1.380 . S
C390 H400 0.929 . S
C391 C388 1.399 . S
C391 C393 1.392 . S
C391 H401 0.929 . S
C392 C388 1.383 . S
C392 C389 1.389 . S
C392 H402 0.897 1_455 S
C393 C390 1.380 . S
C393 C391 1.392 . S
C393 H403 0.929 . S
C394 O374 1.266 . S
C394 O375 1.248 . S
C395 Tb331 2.802 . S
C395 O370 1.264 . S
C395 O373 1.256 . S
C395 C388 1.496 . S
H396 C379 0.929 . S
H397 C380 0.929 . S
H398 C381 0.929 . S
H399 C382 0.924 1_455 S
H400 C390 0.929 . S
H401 C391 0.929 . S
H402 C392 0.897 1_655 S
H403 C393 0.929 . S
Tb404 N433 2.617 . S
Tb404 N439 2.572 . S
Tb404 O448 2.465 . S
Tb404 O449 2.387 . S
Tb404 O451 2.428 . S
Tb404 O452 2.308 . S
Tb404 O456 2.349 1_545 S
Tb404 O459 2.393 . S
Tb404 C468 2.802 . S
C405 N406 1.379 . S
C405 C408 1.416 . S
C405 C412 1.424 . S
N406 C405 1.379 . S
N406 C409 1.334 . S
N406 Tb415 2.617 . S
C407 C409 1.390 . S
C407 C410 1.339 . S
C407 H427 0.930 . S
C408 C405 1.416 . S
C408 C410 1.416 . S
C408 C414 1.448 . S
C409 N406 1.334 . S
C409 C407 1.390 . S
C409 H420 0.930 . S
C410 C407 1.339 . S
C410 C408 1.416 . S
C410 H431 0.930 . S
C411 C412 1.413 . S
C411 C413 1.427 . S
C411 C417 1.416 . S
C412 C405 1.424 . S
C412 C411 1.413 . S
C412 N416 1.361 . S
C413 C411 1.427 . S
C413 C414 1.328 . S
C413 H428 0.929 . S
C414 C408 1.448 . S
C414 C413 1.328 . S
C414 H429 0.930 . S
Tb415 N406 2.617 . S
Tb415 N416 2.572 . S
Tb415 O450 2.349 1_565 S
Tb415 O453 2.393 . S
Tb415 O454 2.465 . S
Tb415 O455 2.387 . S
Tb415 O457 2.428 . S
Tb415 O458 2.308 1_565 S
Tb415 C479 2.802 . S
N416 C412 1.361 . S
N416 Tb415 2.572 . S
N416 C418 1.340 . S
C417 C411 1.416 . S
C417 C419 1.332 . S
C417 H425 0.931 . S
C418 N416 1.340 . S
C418 C419 1.407 . S
C418 H424 0.930 . S
C419 C417 1.332 . S
C419 C418 1.407 . S
C419 H421 0.929 . S
H420 C409 0.930 . S
H421 C419 0.929 . S
H422 C437 0.930 . S
H423 C444 0.929 . S
H424 C418 0.930 . S
H425 C417 0.931 . S
H426 C440 0.930 . S
H427 C407 0.930 . S
H428 C413 0.929 . S
H429 C414 0.930 . S
H430 C435 0.930 . S
H431 C410 0.930 . S
H432 C443 0.931 . S
N433 Tb404 2.617 . S
N433 C434 1.379 . S
N433 C437 1.334 . S
C434 N433 1.379 . S
C434 C436 1.416 . S
C434 C442 1.424 . S
C435 H430 0.930 . S
C435 C437 1.390 . S
C435 C438 1.339 . S
C436 C434 1.416 . S
C436 C438 1.416 . S
C436 C469 1.448 . S
C437 H422 0.930 . S
C437 N433 1.334 . S
C437 C435 1.390 . S
C438 C435 1.339 . S
C438 C436 1.416 . S
C438 H445 0.930 . S
N439 Tb404 2.572 . S
N439 C440 1.340 . S
N439 C442 1.361 . S
C440 H426 0.930 . S
C440 N439 1.340 . S
C440 C444 1.407 . S
C441 C442 1.413 . S
C441 C443 1.416 . S
C441 C470 1.427 . S
C442 C434 1.424 . S
C442 N439 1.361 . S
C442 C441 1.413 . S
C443 H432 0.931 . S
C443 C441 1.416 . S
C443 C444 1.332 . S
C444 H423 0.929 . S
C444 C440 1.407 . S
C444 C443 1.332 . S
H445 C438 0.930 . S
H446 C469 0.930 . S
H447 C470 0.929 . S
O448 Tb404 2.465 . S
O448 C468 1.264 . S
O449 Tb404 2.387 . S
O449 C460 1.264 . S
O450 Tb415 2.349 1_545 S
O450 C460 1.243 . S
O451 Tb404 2.428 . S
O451 C468 1.256 . S
O452 Tb404 2.308 . S
O452 C467 1.230 1_545 S
O453 Tb415 2.393 . S
O453 C467 1.271 . S
O454 Tb415 2.465 . S
O454 C479 1.264 . S
O455 Tb415 2.387 . S
O455 C471 1.264 . S
O456 Tb404 2.349 1_565 S
O456 C471 1.243 . S
O457 Tb415 2.428 . S
O457 C479 1.256 . S
O458 Tb415 2.308 1_545 S
O458 C478 1.266 . S
O459 Tb404 2.393 . S
O459 C478 1.248 . S
C460 O449 1.264 . S
C460 O450 1.243 . S
C461 C464 1.399 . S
C461 C466 1.383 . S
C461 C468 1.496 . S
C462 C463 1.399 . S
C462 C466 1.389 . S
C463 C462 1.399 . S
C463 C465 1.380 . S
C463 H480 0.929 . S
C464 C461 1.399 . S
C464 C465 1.392 . S
C464 H481 0.929 . S
C465 C463 1.380 . S
C465 C464 1.392 . S
C465 H482 0.929 . S
C466 C461 1.383 . S
C466 C462 1.389 . S
C466 H483 0.931 . S
C467 O452 1.230 1_565 S
C467 O453 1.271 . S
C468 Tb404 2.802 . S
C468 O448 1.264 . S
C468 O451 1.256 . S
C468 C461 1.496 . S
C469 C436 1.448 . S
C469 H446 0.930 . S
C469 C470 1.328 . S
C470 C441 1.427 . S
C470 H447 0.929 . S
C470 C469 1.328 . S
C471 O455 1.264 . S
C471 O456 1.243 . S
C472 C475 1.399 . S
C472 C476 1.383 1_565 S
C472 C479 1.496 . S
C473 C474 1.389 1_545 S
C473 C476 1.389 . S
C474 C473 1.389 1_565 S
C474 C477 1.393 . S
C474 H484 0.928 . S
C475 C472 1.399 . S
C475 C477 1.392 . S
C475 H485 0.929 . S
C476 C472 1.383 1_545 S
C476 C473 1.389 . S
C476 H486 0.931 . S
C477 C474 1.393 . S
C477 C475 1.392 . S
C477 H487 0.929 . S
C478 O458 1.266 . S
C478 O459 1.248 . S
C479 Tb415 2.802 . S
C479 O454 1.264 . S
C479 O457 1.256 . S
C479 C472 1.496 . S
H480 C463 0.929 . S
H481 C464 0.929 . S
H482 C465 0.929 . S
H483 C466 0.931 . S
H484 C474 0.928 . S
H485 C475 0.929 . S
H486 C476 0.931 . S
H487 C477 0.929 . S
Tb488 N517 2.617 . S
Tb488 N523 2.572 . S
Tb488 O532 2.465 . S
Tb488 O533 2.387 . S
Tb488 O535 2.428 . S
Tb488 O536 2.308 . S
Tb488 O540 2.349 . S
Tb488 O543 2.393 . S
Tb488 C552 2.802 . S
C489 N490 1.379 . S
C489 C492 1.416 . S
C489 C496 1.424 . S
N490 C489 1.379 . S
N490 C493 1.334 . S
N490 Tb499 2.617 . S
C491 C493 1.390 . S
C491 C494 1.339 . S
C491 H511 0.930 . S
C492 C489 1.416 . S
C492 C494 1.416 . S
C492 C498 1.448 . S
C493 N490 1.334 . S
C493 C491 1.390 . S
C493 H504 0.930 . S
C494 C491 1.339 . S
C494 C492 1.416 . S
C494 H515 0.930 . S
C495 C496 1.413 . S
C495 C497 1.427 . S
C495 C501 1.416 . S
C496 C489 1.424 . S
C496 C495 1.413 . S
C496 N500 1.361 . S
C497 C495 1.427 . S
C497 C498 1.328 . S
C497 H512 0.929 . S
C498 C492 1.448 . S
C498 C497 1.328 . S
C498 H513 0.930 . S
Tb499 N490 2.617 . S
Tb499 N500 2.572 . S
Tb499 O534 2.349 . S
Tb499 O537 2.393 . S
Tb499 O538 2.465 . S
Tb499 O539 2.387 . S
Tb499 O541 2.428 . S
Tb499 O542 2.308 . S
Tb499 C563 2.802 . S
N500 C496 1.361 . S
N500 Tb499 2.572 . S
N500 C502 1.340 . S
C501 C495 1.416 . S
C501 C503 1.332 . S
C501 H509 0.931 . S
C502 N500 1.340 . S
C502 C503 1.407 . S
C502 H508 0.930 . S
C503 C501 1.332 . S
C503 C502 1.407 . S
C503 H505 0.929 . S
H504 C493 0.930 . S
H505 C503 0.929 . S
H506 C521 0.930 . S
H507 C528 0.929 . S
H508 C502 0.930 . S
H509 C501 0.931 . S
H510 C524 0.930 . S
H511 C491 0.930 . S
H512 C497 0.929 . S
H513 C498 0.930 . S
H514 C519 0.930 . S
H515 C494 0.930 . S
H516 C527 0.931 . S
N517 Tb488 2.617 . S
N517 C518 1.379 . S
N517 C521 1.334 . S
C518 N517 1.379 . S
C518 C520 1.416 . S
C518 C526 1.424 . S
C519 H514 0.930 . S
C519 C521 1.390 . S
C519 C522 1.339 . S
C520 C518 1.416 . S
C520 C522 1.416 . S
C520 C553 1.448 . S
C521 H506 0.930 . S
C521 N517 1.334 . S
C521 C519 1.390 . S
C522 C519 1.339 . S
C522 C520 1.416 . S
C522 H529 0.930 . S
N523 Tb488 2.572 . S
N523 C524 1.340 . S
N523 C526 1.361 . S
C524 H510 0.930 . S
C524 N523 1.340 . S
C524 C528 1.407 . S
C525 C526 1.413 . S
C525 C527 1.416 . S
C525 C554 1.427 . S
C526 C518 1.424 . S
C526 N523 1.361 . S
C526 C525 1.413 . S
C527 H516 0.931 . S
C527 C525 1.416 . S
C527 C528 1.332 . S
C528 H507 0.929 . S
C528 C524 1.407 . S
C528 C527 1.332 . S
H529 C522 0.930 . S
H530 C553 0.930 . S
H531 C554 0.929 . S
O532 Tb488 2.465 . S
O532 C552 1.264 . S
O533 Tb488 2.387 . S
O533 C544 1.264 . S
O534 Tb499 2.349 . S
O534 C544 1.243 . S
O535 Tb488 2.428 . S
O535 C552 1.256 . S
O536 Tb488 2.308 . S
O536 C551 1.266 . S
O537 Tb499 2.393 . S
O537 C551 1.248 . S
O538 Tb499 2.465 . S
O538 C563 1.264 . S
O539 Tb499 2.387 . S
O539 C555 1.264 . S
O540 Tb488 2.349 . S
O540 C555 1.243 . S
O541 Tb499 2.428 . S
O541 C563 1.256 . S
O542 Tb499 2.308 . S
O542 C562 1.266 . S
O543 Tb488 2.393 . S
O543 C562 1.248 . S
C544 O533 1.264 . S
C544 O534 1.243 . S
C545 C548 1.399 . S
C545 C550 1.383 . S
C545 C552 1.496 . S
C546 C547 1.399 . S
C546 C550 1.389 . S
C547 C546 1.399 . S
C547 C549 1.380 . S
C547 H564 0.929 . S
C548 C545 1.399 . S
C548 C549 1.392 . S
C548 H565 0.929 . S
C549 C547 1.380 . S
C549 C548 1.392 . S
C549 H566 0.929 . S
C550 C545 1.383 . S
C550 C546 1.389 . S
C550 H567 0.931 . S
C551 O536 1.266 . S
C551 O537 1.248 . S
C552 Tb488 2.802 . S
C552 O532 1.264 . S
C552 O535 1.256 . S
C552 C545 1.496 . S
C553 C520 1.448 . S
C553 H530 0.930 . S
C553 C554 1.328 . S
C554 C525 1.427 . S
C554 H531 0.929 . S
C554 C553 1.328 . S
C555 O539 1.264 . S
C555 O540 1.243 . S
C556 C559 1.399 . S
C556 C560 1.383 . S
C556 C563 1.496 . S
C557 C558 1.399 . S
C557 C560 1.389 . S
C558 C557 1.399 . S
C558 C561 1.380 . S
C558 H568 0.929 . S
C559 C556 1.399 . S
C559 C561 1.392 . S
C559 H569 0.929 . S
C560 C556 1.383 . S
C560 C557 1.389 . S
C560 H570 0.931 . S
C561 C558 1.380 . S
C561 C559 1.392 . S
C561 H571 0.929 . S
C562 O542 1.266 . S
C562 O543 1.248 . S
C563 Tb499 2.802 . S
C563 O538 1.264 . S
C563 O541 1.256 . S
C563 C556 1.496 . S
H564 C547 0.929 . S
H565 C548 0.929 . S
H566 C549 0.929 . S
H567 C550 0.931 . S
H568 C558 0.929 . S
H569 C559 0.929 . S
H570 C560 0.931 . S
H571 C561 0.929 . S
Tb572 N601 2.617 . S
Tb572 N607 2.572 . S
Tb572 O616 2.465 . S
Tb572 O617 2.387 1_455 S
Tb572 O619 2.428 . S
Tb572 O620 2.308 . S
Tb572 O624 2.349 . S
Tb572 O627 2.393 . S
Tb572 C636 2.802 . S
C573 N574 1.379 1_455 S
C573 C576 1.416 . S
C573 C580 1.424 . S
N574 C573 1.379 1_655 S
N574 C577 1.334 . S
N574 Tb583 2.617 . S
C575 C577 1.374 1_455 S
C575 C578 1.363 . S
C575 H595 0.922 1_455 S
C576 C573 1.416 . S
C576 C578 1.416 . S
C576 C582 1.448 . S
C577 N574 1.334 . S
C577 C575 1.374 1_655 S
C577 H588 0.930 . S
C578 C575 1.363 . S
C578 C576 1.416 . S
C578 H599 0.930 . S
C579 C580 1.413 . S
C579 C581 1.427 . S
C579 C585 1.416 . S
C580 C573 1.424 . S
C580 C579 1.413 . S
C580 N584 1.365 . S
C581 C579 1.427 . S
C581 C582 1.328 . S
C581 H596 0.929 . S
C582 C576 1.448 . S
C582 C581 1.328 . S
C582 H597 0.930 . S
Tb583 N574 2.617 . S
Tb583 N584 2.568 1_655 S
Tb583 O618 2.349 . S
Tb583 O621 2.393 . S
Tb583 O622 2.465 . S
Tb583 O623 2.387 1_655 S
Tb583 O625 2.428 . S
Tb583 O626 2.306 . S
Tb583 C647 2.802 . S
N584 C580 1.365 . S
N584 Tb583 2.568 1_455 S
N584 C586 1.341 . S
C585 C579 1.416 . S
C585 C587 1.332 . S
C585 H593 0.931 . S
C586 N584 1.341 . S
C586 C587 1.407 . S
C586 H592 0.930 1_455 S
C587 C585 1.332 . S
C587 C586 1.407 . S
C587 H589 0.929 . S
H588 C577 0.930 . S
H589 C587 0.929 . S
H590 C605 0.930 . S
H591 C612 0.931 . S
H592 C586 0.930 1_655 S
H593 C585 0.931 . S
H594 C608 0.930 . S
H595 C575 0.922 1_655 S
H596 C581 0.929 . S
H597 C582 0.930 . S
H598 C603 0.930 . S
H599 C578 0.930 . S
H600 C611 0.931 . S
N601 Tb572 2.617 . S
N601 C602 1.379 . S
N601 C605 1.334 . S
C602 N601 1.379 . S
C602 C604 1.414 1_455 S
C602 C610 1.424 . S
C603 H598 0.930 . S
C603 C605 1.390 . S
C603 C606 1.339 . S
C604 C602 1.414 1_655 S
C604 C606 1.416 1_655 S
C604 C637 1.450 . S
C605 H590 0.930 . S
C605 N601 1.334 . S
C605 C603 1.390 . S
C606 C603 1.339 . S
C606 C604 1.416 1_455 S
C606 H613 0.930 1_455 S
N607 Tb572 2.572 . S
N607 C608 1.340 . S
N607 C610 1.361 . S
C608 H594 0.930 . S
C608 N607 1.340 . S
C608 C612 1.400 1_455 S
C609 C610 1.413 1_655 S
C609 C611 1.416 . S
C609 C638 1.427 . S
C610 C602 1.424 . S
C610 N607 1.361 . S
C610 C609 1.413 1_455 S
C611 H600 0.931 . S
C611 C609 1.416 . S
C611 C612 1.338 . S
C612 H591 0.931 . S
C612 C608 1.400 1_655 S
C612 C611 1.338 . S
H613 C606 0.930 1_655 S
H614 C637 0.930 . S
H615 C638 0.929 . S
O616 Tb572 2.465 . S
O616 C636 1.264 . S
O617 Tb572 2.387 1_655 S
O617 C628 1.264 . S
O618 Tb583 2.349 . S
O618 C628 1.243 . S
O619 Tb572 2.428 . S
O619 C636 1.256 . S
O620 Tb572 2.308 . S
O620 C635 1.266 . S
O621 Tb583 2.393 . S
O621 C635 1.248 1_655 S
O622 Tb583 2.465 . S
O622 C647 1.264 . S
O623 Tb583 2.387 1_455 S
O623 C639 1.264 . S
O624 Tb572 2.349 . S
O624 C639 1.243 . S
O625 Tb583 2.428 . S
O625 C647 1.256 . S
O626 Tb583 2.306 . S
O626 C646 1.268 1_655 S
O627 Tb572 2.393 . S
O627 C646 1.248 . S
C628 O617 1.264 . S
C628 O618 1.243 . S
C629 C632 1.399 . S
C629 C634 1.383 . S
C629 C636 1.496 . S
C630 C631 1.399 . S
C630 C634 1.389 . S
C631 C630 1.399 . S
C631 C633 1.380 . S
C631 H648 0.929 . S
C632 C629 1.399 . S
C632 C633 1.392 . S
C632 H649 0.929 . S
C633 C631 1.380 . S
C633 C632 1.392 . S
C633 H650 0.929 . S
C634 C629 1.383 . S
C634 C630 1.389 . S
C634 H651 0.931 . S
C635 O620 1.266 . S
C635 O621 1.248 1_455 S
C636 Tb572 2.802 . S
C636 O616 1.264 . S
C636 O619 1.256 . S
C636 C629 1.496 . S
C637 C604 1.450 . S
C637 H614 0.930 . S
C637 C638 1.328 . S
C638 C609 1.427 . S
C638 H615 0.929 . S
C638 C637 1.328 . S
C639 O623 1.264 . S
C639 O624 1.243 . S
C640 C643 1.399 . S
C640 C644 1.383 . S
C640 C647 1.496 . S
C641 C642 1.399 . S
C641 C644 1.389 . S
C642 C641 1.399 . S
C642 C645 1.380 . S
C642 H652 0.929 . S
C643 C640 1.399 . S
C643 C645 1.392 . S
C643 H653 0.929 . S
C644 C640 1.383 . S
C644 C641 1.389 . S
C644 H654 0.931 . S
C645 C642 1.380 . S
C645 C643 1.392 . S
C645 H655 0.929 . S
C646 O626 1.268 1_455 S
C646 O627 1.248 . S
C647 Tb583 2.802 . S
C647 O622 1.264 . S
C647 O625 1.256 . S
C647 C640 1.496 . S
H648 C631 0.929 . S
H649 C632 0.929 . S
H650 C633 0.929 . S
H651 C634 0.931 . S
H652 C642 0.929 . S
H653 C643 0.929 . S
H654 C644 0.931 . S
H655 C645 0.929 . S
H656 C674 0.951 . S
H657 C676 0.951 . S
H658 C678 0.950 . S
H659 C679 0.950 . S
H660 C681 0.950 . S
H661 C684 0.950 . S
H662 C685 0.950 . S
H663 C687 0.969 . S
H664 C688 0.950 . S
H665 C689 0.951 . S
H666 C691 0.951 . S
H667 C693 0.950 1_565 S
H668 C694 0.950 1_565 S
H669 C696 0.950 . S
H670 C699 0.950 . S
H671 C700 0.950 . S
H672 C702 0.950 . S
H673 C703 0.950 . S
C674 H656 0.951 . S
C674 C675 1.366 . S
C674 C676 1.388 . S
C675 C674 1.366 . S
C675 C679 1.385 . S
C676 H657 0.951 . S
C676 C674 1.388 . S
C676 C677 1.366 . S
C677 C676 1.366 . S
C677 C678 1.414 . S
C677 C680 1.499 . S
C678 H658 0.950 . S
C678 C677 1.414 . S
C678 C679 1.374 . S
C679 H659 0.950 . S
C679 C675 1.385 . S
C679 C678 1.374 . S
C680 C677 1.499 . S
C680 C681 1.373 . S
C680 C682 1.389 . S
C681 H660 0.950 . S
C681 C680 1.373 . S
C681 C697 1.377 . S
C682 C680 1.389 . S
C682 C683 1.524 . S
C682 C696 1.377 . S
C683 C682 1.524 . S
C683 C684 1.397 . S
C683 C688 1.363 . S
C684 H661 0.950 . S
C684 C683 1.397 . S
C684 C685 1.334 . S
C685 H662 0.950 . S
C685 C684 1.334 . S
C685 C686 1.287 . S
C686 C685 1.287 . S
C686 C687 1.524 . S
C686 H705 0.913 . S
C687 H663 0.969 . S
C687 C686 1.524 . S
C687 C688 1.415 . S
C688 H664 0.950 . S
C688 C683 1.363 . S
C688 C687 1.415 . S
C689 H665 0.951 . S
C689 C690 1.366 . S
C689 C691 1.388 . S
C690 C689 1.366 . S
C690 C694 1.385 . S
C691 H666 0.951 . S
C691 C689 1.388 . S
C691 C692 1.366 . S
C692 C691 1.366 . S
C692 C693 1.414 . S
C692 C695 1.499 . S
C693 H667 0.950 1_545 S
C693 C692 1.414 . S
C693 C694 1.374 . S
C694 H668 0.950 1_545 S
C694 C690 1.385 . S
C694 C693 1.374 . S
C695 C692 1.499 . S
C695 C696 1.373 . S
C695 C697 1.389 . S
C696 H669 0.950 . S
C696 C682 1.377 . S
C696 C695 1.373 . S
C697 C681 1.377 . S
C697 C695 1.389 . S
C697 C698 1.524 . S
C698 C697 1.524 . S
C698 C699 1.397 . S
C698 C703 1.363 . S
C699 H670 0.950 . S
C699 C698 1.397 . S
C699 C700 1.334 . S
C700 H671 0.950 . S
C700 C699 1.334 . S
C700 C701 1.287 . S
C701 C700 1.287 . S
C701 C702 1.524 . S
C701 H704 0.999 . S
C702 H672 0.950 . S
C702 C701 1.524 . S
C702 C703 1.415 . S
C703 H673 0.950 . S
C703 C698 1.363 . S
C703 C702 1.415 . S
H704 C701 0.999 . S
H705 C686 0.913 . S
H706 C724 0.951 . S
H707 C726 0.951 . S
H708 C728 0.950 . S
H709 C729 0.950 . S
H710 C731 0.950 . S
H711 C734 0.950 . S
H712 C735 0.950 . S
H713 C737 0.950 . S
H714 C738 0.950 . S
H715 C739 0.951 . S
H716 C741 0.951 . S
H717 C743 0.950 . S
H718 C744 0.950 . S
H719 C746 0.950 . S
H720 C749 0.950 . S
H721 C750 0.950 . S
H722 C752 0.950 . S
H723 C753 0.950 . S
C724 H706 0.951 . S
C724 C725 1.366 . S
C724 C726 1.388 . S
C725 C724 1.366 . S
C725 C729 1.385 . S
C726 H707 0.951 . S
C726 C724 1.388 . S
C726 C727 1.366 . S
C727 C726 1.366 . S
C727 C728 1.414 . S
C727 C730 1.499 . S
C728 H708 0.950 . S
C728 C727 1.414 . S
C728 C729 1.374 . S
C729 H709 0.950 . S
C729 C725 1.385 . S
C729 C728 1.374 . S
C730 C727 1.499 . S
C730 C731 1.373 . S
C730 C732 1.389 . S
C731 H710 0.950 . S
C731 C730 1.373 . S
C731 C747 1.377 . S
C732 C730 1.389 . S
C732 C733 1.524 . S
C732 C746 1.377 . S
C733 C732 1.524 . S
C733 C734 1.397 . S
C733 C738 1.363 . S
C734 H711 0.950 . S
C734 C733 1.397 . S
C734 C735 1.334 . S
C735 H712 0.950 . S
C735 C734 1.334 . S
C735 C736 1.287 . S
C736 C735 1.287 . S
C736 C737 1.524 . S
C736 H755 0.913 . S
C737 H713 0.950 . S
C737 C736 1.524 . S
C737 C738 1.415 . S
C738 H714 0.950 . S
C738 C733 1.363 . S
C738 C737 1.415 . S
C739 H715 0.951 . S
C739 C740 1.366 . S
C739 C741 1.388 . S
C740 C739 1.366 . S
C740 C744 1.385 . S
C741 H716 0.951 . S
C741 C739 1.388 . S
C741 C742 1.366 . S
C742 C741 1.366 . S
C742 C743 1.414 . S
C742 C745 1.499 . S
C743 H717 0.950 . S
C743 C742 1.414 . S
C743 C744 1.374 . S
C744 H718 0.950 . S
C744 C740 1.385 . S
C744 C743 1.374 . S
C745 C742 1.499 . S
C745 C746 1.373 . S
C745 C747 1.389 . S
C746 H719 0.950 . S
C746 C732 1.377 . S
C746 C745 1.373 . S
C747 C731 1.377 . S
C747 C745 1.389 . S
C747 C748 1.524 . S
C748 C747 1.524 . S
C748 C749 1.397 . S
C748 C753 1.363 . S
C749 H720 0.950 . S
C749 C748 1.397 . S
C749 C750 1.334 . S
C750 H721 0.950 . S
C750 C749 1.334 . S
C750 C751 1.287 . S
C751 C750 1.287 . S
C751 C752 1.524 . S
C751 H754 0.999 . S
C752 H722 0.950 . S
C752 C751 1.524 . S
C752 C753 1.415 . S
C753 H723 0.950 . S
C753 C748 1.363 . S
C753 C752 1.415 . S
H754 C751 0.999 . S
H755 C736 0.913 . S
H756 C774 0.951 . S
H757 C776 0.951 . S
H758 C778 0.950 . S
H759 C779 0.950 . S
H760 C781 0.950 . S
H761 C784 0.950 . S
H762 C785 0.950 . S
H763 C787 0.950 . S
H764 C788 0.950 . S
H765 C789 0.951 . S
H766 C791 0.951 . S
H767 C793 0.950 . S
H768 C794 0.950 . S
H769 C796 0.950 . S
H770 C799 0.950 . S
H771 C800 0.950 . S
H772 C802 0.950 . S
H773 C803 0.950 . S
C774 H756 0.951 . S
C774 C775 1.366 . S
C774 C776 1.388 . S
C775 C774 1.366 . S
C775 C779 1.385 . S
C776 H757 0.951 . S
C776 C774 1.388 . S
C776 C777 1.366 . S
C777 C776 1.366 . S
C777 C778 1.414 . S
C777 C780 1.499 . S
C778 H758 0.950 . S
C778 C777 1.414 . S
C778 C779 1.374 . S
C779 H759 0.950 . S
C779 C775 1.385 . S
C779 C778 1.374 . S
C780 C777 1.499 . S
C780 C781 1.373 . S
C780 C782 1.389 . S
C781 H760 0.950 . S
C781 C780 1.373 . S
C781 C797 1.377 . S
C782 C780 1.389 . S
C782 C783 1.524 . S
C782 C796 1.377 . S
C783 C782 1.524 . S
C783 C784 1.397 . S
C783 C788 1.363 . S
C784 H761 0.950 . S
C784 C783 1.397 . S
C784 C785 1.334 . S
C785 H762 0.950 . S
C785 C784 1.334 . S
C785 C786 1.287 . S
C786 C785 1.287 . S
C786 C787 1.524 . S
C786 H805 0.913 . S
C787 H763 0.950 . S
C787 C786 1.524 . S
C787 C788 1.415 . S
C788 H764 0.950 . S
C788 C783 1.363 . S
C788 C787 1.415 . S
C789 H765 0.951 . S
C789 C790 1.366 . S
C789 C791 1.388 . S
C790 C789 1.366 . S
C790 C794 1.385 . S
C791 H766 0.951 . S
C791 C789 1.388 . S
C791 C792 1.366 . S
C792 C791 1.366 . S
C792 C793 1.414 . S
C792 C795 1.499 . S
C793 H767 0.950 . S
C793 C792 1.414 . S
C793 C794 1.374 . S
C794 H768 0.950 . S
C794 C790 1.385 . S
C794 C793 1.374 . S
C795 C792 1.499 . S
C795 C796 1.373 . S
C795 C797 1.389 . S
C796 H769 0.950 . S
C796 C782 1.377 . S
C796 C795 1.373 . S
C797 C781 1.377 . S
C797 C795 1.389 . S
C797 C798 1.524 . S
C798 C797 1.524 . S
C798 C799 1.397 . S
C798 C803 1.363 . S
C799 H770 0.950 . S
C799 C798 1.397 . S
C799 C800 1.334 . S
C800 H771 0.950 . S
C800 C799 1.334 . S
C800 C801 1.287 . S
C801 C800 1.287 . S
C801 C802 1.524 . S
C801 H804 0.999 . S
C802 H772 0.950 . S
C802 C801 1.524 . S
C802 C803 1.415 . S
C803 H773 0.950 . S
C803 C798 1.363 . S
C803 C802 1.415 . S
H804 C801 0.999 . S
H805 C786 0.913 . S
H806 C824 0.951 . S
H807 C826 0.951 . S
H808 C828 0.950 . S
H809 C829 0.950 . S
H810 C831 0.950 . S
H811 C834 0.950 . S
H812 C835 0.950 . S
H813 C837 0.950 . S
H814 C838 0.950 . S
H815 C839 0.951 . S
H816 C841 0.951 . S
H817 C843 0.950 . S
H818 C844 0.950 . S
H819 C846 0.950 . S
H820 C849 0.950 . S
H821 C850 0.950 . S
H822 C852 0.950 . S
H823 C853 0.950 . S
C824 H806 0.951 . S
C824 C825 1.366 . S
C824 C826 1.388 . S
C825 C824 1.366 . S
C825 C829 1.385 . S
C826 H807 0.951 . S
C826 C824 1.388 . S
C826 C827 1.366 . S
C827 C826 1.366 . S
C827 C828 1.414 . S
C827 C830 1.499 . S
C828 H808 0.950 . S
C828 C827 1.414 . S
C828 C829 1.374 . S
C829 H809 0.950 . S
C829 C825 1.385 . S
C829 C828 1.374 . S
C830 C827 1.499 . S
C830 C831 1.373 . S
C830 C832 1.389 . S
C831 H810 0.950 . S
C831 C830 1.373 . S
C831 C847 1.377 . S
C832 C830 1.389 . S
C832 C833 1.524 . S
C832 C846 1.377 . S
C833 C832 1.524 . S
C833 C834 1.397 . S
C833 C838 1.363 . S
C834 H811 0.950 . S
C834 C833 1.397 . S
C834 C835 1.334 . S
C835 H812 0.950 . S
C835 C834 1.334 . S
C835 C836 1.287 . S
C836 C835 1.287 . S
C836 C837 1.524 . S
C836 H855 0.913 . S
C837 H813 0.950 . S
C837 C836 1.524 . S
C837 C838 1.415 . S
C838 H814 0.950 . S
C838 C833 1.363 . S
C838 C837 1.415 . S
C839 H815 0.951 . S
C839 C840 1.366 . S
C839 C841 1.388 . S
C840 C839 1.366 . S
C840 C844 1.385 . S
C841 H816 0.951 . S
C841 C839 1.388 . S
C841 C842 1.366 . S
C842 C841 1.366 . S
C842 C843 1.414 . S
C842 C845 1.499 . S
C843 H817 0.950 . S
C843 C842 1.414 . S
C843 C844 1.374 . S
C844 H818 0.950 . S
C844 C840 1.385 . S
C844 C843 1.374 . S
C845 C842 1.499 . S
C845 C846 1.373 . S
C845 C847 1.389 . S
C846 H819 0.950 . S
C846 C832 1.377 . S
C846 C845 1.373 . S
C847 C831 1.377 . S
C847 C845 1.389 . S
C847 C848 1.524 1_455 S
C848 C847 1.524 1_655 S
C848 C849 1.397 . S
C848 C853 1.363 . S
C849 H820 0.950 . S
C849 C848 1.397 . S
C849 C850 1.334 . S
C850 H821 0.950 . S
C850 C849 1.334 . S
C850 C851 1.287 . S
C851 C850 1.287 . S
C851 C852 1.524 . S
C851 H854 0.999 . S
C852 H822 0.950 . S
C852 C851 1.524 . S
C852 C853 1.415 . S
C853 H823 0.950 . S
C853 C848 1.363 . S
C853 C852 1.415 . S
H854 C851 0.999 . S
H855 C836 0.913 . S
H856 C874 0.951 . S
H857 C876 0.951 . S
H858 C878 0.950 . S
H859 C879 0.950 . S
H860 C881 0.950 . S
H861 C884 0.950 . S
H862 C885 0.950 . S
H863 C887 0.950 . S
H864 C888 0.950 . S
H865 C889 0.951 . S
H866 C891 0.946 1_545 S
H867 C893 0.950 . S
H868 C894 0.950 . S
H869 C896 0.950 . S
H870 C899 0.950 . S
H871 C900 0.950 . S
H872 C902 0.950 . S
H873 C903 0.950 . S
C874 H856 0.951 . S
C874 C875 1.366 . S
C874 C876 1.388 1_554 S
C875 C874 1.366 . S
C875 C879 1.385 . S
C876 H857 0.951 . S
C876 C874 1.388 1_556 S
C876 C877 1.366 . S
C877 C876 1.366 . S
C877 C878 1.414 . S
C877 C880 1.499 . S
C878 H858 0.950 . S
C878 C877 1.414 . S
C878 C879 1.374 1_556 S
C879 H859 0.950 . S
C879 C875 1.385 . S
C879 C878 1.374 1_554 S
C880 C877 1.499 . S
C880 C881 1.373 . S
C880 C882 1.389 . S
C881 H860 0.950 . S
C881 C880 1.373 . S
C881 C897 1.377 . S
C882 C880 1.389 . S
C882 C883 1.524 . S
C882 C896 1.377 . S
C883 C882 1.524 . S
C883 C884 1.397 1_565 S
C883 C888 1.363 . S
C884 H861 0.950 . S
C884 C883 1.397 1_545 S
C884 C885 1.334 1_556 S
C885 H862 0.950 . S
C885 C884 1.334 1_554 S
C885 C886 1.287 . S
C886 C885 1.287 . S
C886 C887 1.524 1_545 S
C886 H905 0.913 . S
C887 H863 0.950 . S
C887 C886 1.524 1_565 S
C887 C888 1.415 1_554 S
C888 H864 0.950 . S
C888 C883 1.363 . S
C888 C887 1.415 1_556 S
C889 H865 0.951 . S
C889 C890 1.366 1_545 S
C889 C891 1.388 1_545 S
C890 C889 1.366 1_565 S
C890 C894 1.385 . S
C891 H866 0.946 1_565 S
C891 C889 1.388 1_565 S
C891 C892 1.366 . S
C892 C891 1.366 . S
C892 C893 1.414 . S
C892 C895 1.499 . S
C893 H867 0.950 . S
C893 C892 1.414 . S
C893 C894 1.374 . S
C894 H868 0.950 . S
C894 C890 1.385 . S
C894 C893 1.374 . S
C895 C892 1.499 . S
C895 C896 1.373 . S
C895 C897 1.389 . S
C896 H869 0.950 . S
C896 C882 1.377 . S
C896 C895 1.373 . S
C897 C881 1.377 . S
C897 C895 1.389 . S
C897 C898 1.524 . S
C898 C897 1.524 . S
C898 C899 1.397 . S
C898 C903 1.363 . S
C899 H870 0.950 . S
C899 C898 1.397 . S
C899 C900 1.334 . S
C900 H871 0.950 . S
C900 C899 1.334 . S
C900 C901 1.287 . S
C901 C900 1.287 . S
C901 C902 1.524 . S
C901 H904 0.999 . S
C902 H872 0.950 . S
C902 C901 1.524 . S
C902 C903 1.415 . S
C903 H873 0.950 . S
C903 C898 1.363 . S
C903 C902 1.415 . S
H904 C901 0.999 . S
H905 C886 0.913 . S
H906 C924 0.951 . S
H907 C926 0.951 . S
H908 C928 0.950 1_556 S
H909 C929 0.950 . S
H910 C931 0.950 . S
H911 C934 0.950 . S
H912 C935 0.950 . S
H913 C937 0.950 . S
H914 C938 0.950 . S
H915 C939 0.951 . S
H916 C941 0.951 . S
H917 C943 0.950 . S
H918 C944 0.950 . S
H919 C946 0.950 . S
H920 C949 0.950 . S
H921 C950 0.950 . S
H922 C952 0.950 . S
H923 C953 0.950 . S
C924 H906 0.951 . S
C924 C925 1.366 . S
C924 C926 1.388 1_554 S
C925 C924 1.366 . S
C925 C929 1.385 . S
C926 H907 0.951 . S
C926 C924 1.388 1_556 S
C926 C927 1.366 . S
C927 C926 1.366 . S
C927 C928 1.402 1_556 S
C927 C930 1.499 . S
C928 H908 0.950 1_554 S
C928 C927 1.402 1_554 S
C928 C929 1.386 . S
C929 H909 0.950 . S
C929 C925 1.385 . S
C929 C928 1.386 . S
C930 C927 1.499 . S
C930 C931 1.373 . S
C930 C932 1.389 . S
C931 H910 0.950 . S
C931 C930 1.373 . S
C931 C947 1.377 . S
C932 C930 1.389 . S
C932 C933 1.524 . S
C932 C946 1.377 . S
C933 C932 1.524 . S
C933 C934 1.397 . S
C933 C938 1.363 . S
C934 H911 0.950 . S
C934 C933 1.397 . S
C934 C935 1.334 . S
C935 H912 0.950 . S
C935 C934 1.334 . S
C935 C936 1.287 . S
C936 C935 1.287 . S
C936 C937 1.524 . S
C936 H955 0.913 . S
C937 H913 0.950 . S
C937 C936 1.524 . S
C937 C938 1.415 . S
C938 H914 0.950 . S
C938 C933 1.363 . S
C938 C937 1.415 . S
C939 H915 0.951 . S
C939 C940 1.366 . S
C939 C941 1.388 . S
C940 C939 1.366 . S
C940 C944 1.385 . S
C941 H916 0.951 . S
C941 C939 1.388 . S
C941 C942 1.366 . S
C942 C941 1.366 . S
C942 C943 1.414 . S
C942 C945 1.499 . S
C943 H917 0.950 . S
C943 C942 1.414 . S
C943 C944 1.374 . S
C944 H918 0.950 . S
C944 C940 1.385 . S
C944 C943 1.374 . S
C945 C942 1.499 . S
C945 C946 1.373 . S
C945 C947 1.389 . S
C946 H919 0.950 . S
C946 C932 1.377 . S
C946 C945 1.373 . S
C947 C931 1.377 . S
C947 C945 1.389 . S
C947 C948 1.524 . S
C948 C947 1.524 . S
C948 C949 1.397 . S
C948 C953 1.363 . S
C949 H920 0.950 . S
C949 C948 1.397 . S
C949 C950 1.334 . S
C950 H921 0.950 . S
C950 C949 1.334 . S
C950 C951 1.287 . S
C951 C950 1.287 . S
C951 C952 1.524 . S
C951 H954 0.999 . S
C952 H922 0.950 . S
C952 C951 1.524 . S
C952 C953 1.415 . S
C953 H923 0.950 . S
C953 C948 1.363 . S
C953 C952 1.415 . S
H954 C951 0.999 . S
H955 C936 0.913 . S
H956 C974 0.951 . S
H957 C976 0.951 . S
H958 C978 0.950 . S
H959 C979 0.950 . S
H960 C981 0.950 . S
H961 C984 0.950 . S
H962 C985 0.950 . S
H963 C987 0.950 . S
H964 C988 0.950 . S
H965 C989 0.951 . S
H966 C991 0.951 . S
H967 C993 0.950 . S
H968 C994 0.950 . S
H969 C996 0.950 . S
H970 C999 0.950 . S
H971 C1000 0.950 . S
H972 C1002 0.950 . S
H973 C1003 0.950 . S
C974 H956 0.951 . S
C974 C975 1.367 1_556 S
C974 C976 1.387 . S
C975 C974 1.367 1_554 S
C975 C979 1.385 . S
C976 H957 0.951 . S
C976 C974 1.387 . S
C976 C977 1.366 . S
C977 C976 1.366 . S
C977 C978 1.414 1_556 S
C977 C980 1.499 . S
C978 H958 0.950 . S
C978 C977 1.414 1_554 S
C978 C979 1.374 . S
C979 H959 0.950 . S
C979 C975 1.385 . S
C979 C978 1.374 . S
C980 C977 1.499 . S
C980 C981 1.373 . S
C980 C982 1.389 . S
C981 H960 0.950 . S
C981 C980 1.373 . S
C981 C997 1.377 . S
C982 C980 1.389 . S
C982 C983 1.524 . S
C982 C996 1.377 . S
C983 C982 1.524 . S
C983 C984 1.397 . S
C983 C988 1.363 . S
C984 H961 0.950 . S
C984 C983 1.397 . S
C984 C985 1.334 . S
C985 H962 0.950 . S
C985 C984 1.334 . S
C985 C986 1.287 . S
C986 C985 1.287 . S
C986 C987 1.524 . S
C986 H1005 0.913 . S
C987 H963 0.950 . S
C987 C986 1.524 . S
C987 C988 1.415 . S
C988 H964 0.950 . S
C988 C983 1.363 . S
C988 C987 1.415 . S
C989 H965 0.951 . S
C989 C990 1.366 . S
C989 C991 1.388 . S
C990 C989 1.366 . S
C990 C994 1.385 . S
C991 H966 0.951 . S
C991 C989 1.388 . S
C991 C992 1.366 . S
C992 C991 1.366 . S
C992 C993 1.414 . S
C992 C995 1.499 . S
C993 H967 0.950 . S
C993 C992 1.414 . S
C993 C994 1.374 . S
C994 H968 0.950 . S
C994 C990 1.385 . S
C994 C993 1.374 . S
C995 C992 1.499 . S
C995 C996 1.373 . S
C995 C997 1.389 . S
C996 H969 0.950 . S
C996 C982 1.377 . S
C996 C995 1.373 . S
C997 C981 1.377 . S
C997 C995 1.389 . S
C997 C998 1.524 . S
C998 C997 1.524 . S
C998 C999 1.397 . S
C998 C1003 1.363 . S
C999 H970 0.950 . S
C999 C998 1.397 . S
C999 C1000 1.334 . S
C1000 H971 0.950 . S
C1000 C999 1.334 . S
C1000 C1001 1.287 . S
C1001 C1000 1.287 . S
C1001 C1002 1.524 . S
C1001 H1004 0.999 . S
C1002 H972 0.950 . S
C1002 C1001 1.524 . S
C1002 C1003 1.415 . S
C1003 H973 0.950 . S
C1003 C998 1.363 . S
C1003 C1002 1.415 . S
H1004 C1001 0.999 . S
H1005 C986 0.913 . S
H1006 C1024 0.951 . S
H1007 C1026 0.951 . S
H1008 C1028 0.950 . S
H1009 C1029 0.950 . S
H1010 C1031 0.950 1_455 S
H1011 C1034 0.950 . S
H1012 C1035 0.950 1_554 S
H1013 C1037 0.950 . S
H1014 C1038 0.950 . S
H1015 C1039 0.951 . S
H1016 C1041 0.951 . S
H1017 C1043 0.950 . S
H1018 C1044 0.950 . S
H1019 C1046 0.950 . S
H1020 C1049 0.950 . S
H1021 C1050 0.950 . S
H1022 C1052 0.950 . S
H1023 C1053 0.950 . S
C1024 H1006 0.951 . S
C1024 C1025 1.366 . S
C1024 C1026 1.388 1_554 S
C1025 C1024 1.366 . S
C1025 C1029 1.385 . S
C1026 H1007 0.951 . S
C1026 C1024 1.388 1_556 S
C1026 C1027 1.366 . S
C1027 C1026 1.366 . S
C1027 C1028 1.412 . S
C1027 C1030 1.499 . S
C1028 H1008 0.950 . S
C1028 C1027 1.412 . S
C1028 C1029 1.376 1_556 S
C1029 H1009 0.950 . S
C1029 C1025 1.385 . S
C1029 C1028 1.376 1_554 S
C1030 C1027 1.499 . S
C1030 C1031 1.373 . S
C1030 C1032 1.389 . S
C1031 H1010 0.950 1_655 S
C1031 C1030 1.373 . S
C1031 C1047 1.377 . S
C1032 C1030 1.389 . S
C1032 C1033 1.524 . S
C1032 C1046 1.377 . S
C1033 C1032 1.524 . S
C1033 C1034 1.397 . S
C1033 C1038 1.363 . S
C1034 H1011 0.950 . S
C1034 C1033 1.397 . S
C1034 C1035 1.334 . S
C1035 H1012 0.950 1_556 S
C1035 C1034 1.334 . S
C1035 C1036 1.287 . S
C1036 C1035 1.287 . S
C1036 C1037 1.524 . S
C1036 H1055 0.913 . S
C1037 H1013 0.950 . S
C1037 C1036 1.524 . S
C1037 C1038 1.415 . S
C1038 H1014 0.950 . S
C1038 C1033 1.363 . S
C1038 C1037 1.415 . S
C1039 H1015 0.951 . S
C1039 C1040 1.366 1_455 S
C1039 C1041 1.388 . S
C1040 C1039 1.366 1_655 S
C1040 C1044 1.385 . S
C1041 H1016 0.951 . S
C1041 C1039 1.388 . S
C1041 C1042 1.366 1_455 S
C1042 C1041 1.366 1_655 S
C1042 C1043 1.414 . S
C1042 C1045 1.499 . S
C1043 H1017 0.950 . S
C1043 C1042 1.414 . S
C1043 C1044 1.374 . S
C1044 H1018 0.950 . S
C1044 C1040 1.385 . S
C1044 C1043 1.374 . S
C1045 C1042 1.499 . S
C1045 C1046 1.373 . S
C1045 C1047 1.389 . S
C1046 H1019 0.950 . S
C1046 C1032 1.377 . S
C1046 C1045 1.373 . S
C1047 C1031 1.377 . S
C1047 C1045 1.389 . S
C1047 C1048 1.524 1_655 S
C1048 C1047 1.524 1_455 S
C1048 C1049 1.397 . S
C1048 C1053 1.363 . S
C1049 H1020 0.950 . S
C1049 C1048 1.397 . S
C1049 C1050 1.334 . S
C1050 H1021 0.950 . S
C1050 C1049 1.334 . S
C1050 C1051 1.287 . S
C1051 C1050 1.287 . S
C1051 C1052 1.524 . S
C1051 H1054 0.999 . S
C1052 H1022 0.950 . S
C1052 C1051 1.524 . S
C1052 C1053 1.415 . S
C1053 H1023 0.950 . S
C1053 C1048 1.363 . S
C1053 C1052 1.415 . S
H1054 C1051 0.999 . S
H1055 C1036 0.913 . S
H1056 C1074 0.951 . S
H1057 C1076 0.951 . S
H1058 C1078 0.950 . S
H1059 C1079 0.950 . S
H1060 C1081 0.950 . S
H1061 C1084 0.950 . S
H1062 C1085 0.950 . S
H1063 C1087 0.950 . S
H1064 C1088 0.950 . S
H1065 C1089 0.951 . S
H1066 C1091 0.951 1_655 S
H1067 C1093 0.950 . S
H1068 C1094 0.950 . S
H1069 C1096 0.950 . S
H1070 C1099 0.950 . S
H1071 C1100 0.950 . S
H1072 C1102 0.950 . S
H1073 C1103 0.950 . S
C1074 H1056 0.951 . S
C1074 C1075 1.366 . S
C1074 C1076 1.388 . S
C1075 C1074 1.366 . S
C1075 C1079 1.385 . S
C1076 H1057 0.951 . S
C1076 C1074 1.388 . S
C1076 C1077 1.366 . S
C1077 C1076 1.366 . S
C1077 C1078 1.414 . S
C1077 C1080 1.499 . S
C1078 H1058 0.950 . S
C1078 C1077 1.414 . S
C1078 C1079 1.374 . S
C1079 H1059 0.950 . S
C1079 C1075 1.385 . S
C1079 C1078 1.374 . S
C1080 C1077 1.499 . S
C1080 C1081 1.373 . S
C1080 C1082 1.389 . S
C1081 H1060 0.950 . S
C1081 C1080 1.373 . S
C1081 C1097 1.377 . S
C1082 C1080 1.389 . S
C1082 C1083 1.524 . S
C1082 C1096 1.377 . S
C1083 C1082 1.524 . S
C1083 C1084 1.397 . S
C1083 C1088 1.363 . S
C1084 H1061 0.950 . S
C1084 C1083 1.397 . S
C1084 C1085 1.334 . S
C1085 H1062 0.950 . S
C1085 C1084 1.334 . S
C1085 C1086 1.287 . S
C1086 C1085 1.287 . S
C1086 C1087 1.524 . S
C1086 H1105 0.913 . S
C1087 H1063 0.950 . S
C1087 C1086 1.524 . S
C1087 C1088 1.415 . S
C1088 H1064 0.950 . S
C1088 C1083 1.363 . S
C1088 C1087 1.415 . S
C1089 H1065 0.951 . S
C1089 C1090 1.366 1_655 S
C1089 C1091 1.388 1_655 S
C1090 C1089 1.366 1_455 S
C1090 C1094 1.385 . S
C1091 H1066 0.951 1_455 S
C1091 C1089 1.388 1_455 S
C1091 C1092 1.366 . S
C1092 C1091 1.366 . S
C1092 C1093 1.414 . S
C1092 C1095 1.499 . S
C1093 H1067 0.950 . S
C1093 C1092 1.414 . S
C1093 C1094 1.374 . S
C1094 H1068 0.950 . S
C1094 C1090 1.385 . S
C1094 C1093 1.374 . S
C1095 C1092 1.499 . S
C1095 C1096 1.373 . S
C1095 C1097 1.389 . S
C1096 H1069 0.950 . S
C1096 C1082 1.377 . S
C1096 C1095 1.373 . S
C1097 C1081 1.377 . S
C1097 C1095 1.389 . S
C1097 C1098 1.524 . S
C1098 C1097 1.524 . S
C1098 C1099 1.397 . S
C1098 C1103 1.363 . S
C1099 H1070 0.950 . S
C1099 C1098 1.397 . S
C1099 C1100 1.334 . S
C1100 H1071 0.950 . S
C1100 C1099 1.334 . S
C1100 C1101 1.287 . S
C1101 C1100 1.287 . S
C1101 C1102 1.524 . S
C1101 H1104 0.999 . S
C1102 H1072 0.950 . S
C1102 C1101 1.524 . S
C1102 C1103 1.415 . S
C1103 H1073 0.950 . S
C1103 C1098 1.363 . S
C1103 C1102 1.415 . S
H1104 C1101 0.999 . S
H1105 C1086 0.913 . S
H1106 C1124 0.951 . S
H1107 C1126 0.951 . S
H1108 C1128 0.950 . S
H1109 C1129 0.950 . S
H1110 C1131 0.950 . S
H1111 C1134 0.950 . S
H1112 C1135 0.950 . S
H1113 C1137 0.944 . S
H1114 C1138 0.992 . S
H1115 C1139 0.951 . S
H1116 C1141 0.951 . S
H1117 C1143 0.963 . S
H1118 C1144 0.950 . S
H1119 C1146 0.950 . S
H1120 C1149 0.950 . S
H1121 C1150 0.950 . S
H1122 C1152 0.950 . S
H1123 C1153 0.950 . S
C1124 H1106 0.951 . S
C1124 C1125 1.366 . S
C1124 C1126 1.388 . S
C1125 C1124 1.366 . S
C1125 C1129 1.385 . S
C1126 H1107 0.951 . S
C1126 C1124 1.388 . S
C1126 C1127 1.366 . S
C1127 C1126 1.366 . S
C1127 C1128 1.414 . S
C1127 C1130 1.499 . S
C1128 H1108 0.950 . S
C1128 C1127 1.414 . S
C1128 C1129 1.374 . S
C1129 H1109 0.950 . S
C1129 C1125 1.385 . S
C1129 C1128 1.374 . S
C1130 C1127 1.499 . S
C1130 C1131 1.373 . S
C1130 C1132 1.389 . S
C1131 H1110 0.950 . S
C1131 C1130 1.373 . S
C1131 C1147 1.377 . S
C1132 C1130 1.389 . S
C1132 C1133 1.524 . S
C1132 C1146 1.377 . S
C1133 C1132 1.524 . S
C1133 C1134 1.397 . S
C1133 C1138 1.363 . S
C1134 H1111 0.950 . S
C1134 C1133 1.397 . S
C1134 C1135 1.334 . S
C1135 H1112 0.950 . S
C1135 C1134 1.334 . S
C1135 C1136 1.287 . S
C1136 C1135 1.287 . S
C1136 C1137 1.524 . S
C1136 H1155 0.913 . S
C1137 H1113 0.944 . S
C1137 C1136 1.524 . S
C1137 C1138 1.415 . S
C1138 H1114 0.992 . S
C1138 C1133 1.363 . S
C1138 C1137 1.415 . S
C1139 H1115 0.951 . S
C1139 C1140 1.366 . S
C1139 C1141 1.388 . S
C1140 C1139 1.366 . S
C1140 C1144 1.385 1_545 S
C1141 H1116 0.951 . S
C1141 C1139 1.388 . S
C1141 C1142 1.366 . S
C1142 C1141 1.366 . S
C1142 C1143 1.395 1_545 S
C1142 C1145 1.499 . S
C1143 H1117 0.963 . S
C1143 C1142 1.395 1_565 S
C1143 C1144 1.380 . S
C1144 H1118 0.950 . S
C1144 C1140 1.385 1_565 S
C1144 C1143 1.380 . S
C1145 C1142 1.499 . S
C1145 C1146 1.373 . S
C1145 C1147 1.389 . S
C1146 H1119 0.950 . S
C1146 C1132 1.377 . S
C1146 C1145 1.373 . S
C1147 C1131 1.377 . S
C1147 C1145 1.389 . S
C1147 C1148 1.524 . S
C1148 C1147 1.524 . S
C1148 C1149 1.397 . S
C1148 C1153 1.363 . S
C1149 H1120 0.950 . S
C1149 C1148 1.397 . S
C1149 C1150 1.334 . S
C1150 H1121 0.950 . S
C1150 C1149 1.334 . S
C1150 C1151 1.287 . S
C1151 C1150 1.287 . S
C1151 C1152 1.524 . S
C1151 H1154 0.999 . S
C1152 H1122 0.950 . S
C1152 C1151 1.524 . S
C1152 C1153 1.415 . S
C1153 H1123 0.950 . S
C1153 C1148 1.363 . S
C1153 C1152 1.415 . S
H1154 C1151 0.999 . S
H1155 C1136 0.913 . S
H1156 C1174 0.951 . S
H1157 C1176 0.951 . S
H1158 C1178 0.950 . S
H1159 C1179 0.950 . S
H1160 C1181 0.950 . S
H1161 C1184 0.950 . S
H1162 C1185 0.950 . S
H1163 C1187 0.950 . S
H1164 C1188 0.950 . S
H1165 C1189 0.951 . S
H1166 C1191 0.951 . S
H1167 C1193 0.950 . S
H1168 C1194 0.950 . S
H1169 C1196 0.950 . S
H1170 C1199 0.950 . S
H1171 C1200 0.950 . S
H1172 C1202 0.950 . S
H1173 C1203 0.950 . S
C1174 H1156 0.951 . S
C1174 C1175 1.366 . S
C1174 C1176 1.388 . S
C1175 C1174 1.366 . S
C1175 C1179 1.385 . S
C1176 H1157 0.951 . S
C1176 C1174 1.388 . S
C1176 C1177 1.366 . S
C1177 C1176 1.366 . S
C1177 C1178 1.414 . S
C1177 C1180 1.499 . S
C1178 H1158 0.950 . S
C1178 C1177 1.414 . S
C1178 C1179 1.374 . S
C1179 H1159 0.950 . S
C1179 C1175 1.385 . S
C1179 C1178 1.374 . S
C1180 C1177 1.499 . S
C1180 C1181 1.373 . S
C1180 C1182 1.389 . S
C1181 H1160 0.950 . S
C1181 C1180 1.373 . S
C1181 C1197 1.377 . S
C1182 C1180 1.389 . S
C1182 C1183 1.524 . S
C1182 C1196 1.377 . S
C1183 C1182 1.524 . S
C1183 C1184 1.397 . S
C1183 C1188 1.363 . S
C1184 H1161 0.950 . S
C1184 C1183 1.397 . S
C1184 C1185 1.334 . S
C1185 H1162 0.950 . S
C1185 C1184 1.334 . S
C1185 C1186 1.287 . S
C1186 C1185 1.287 . S
C1186 C1187 1.524 . S
C1186 H1205 0.913 . S
C1187 H1163 0.950 . S
C1187 C1186 1.524 . S
C1187 C1188 1.415 . S
C1188 H1164 0.950 . S
C1188 C1183 1.363 . S
C1188 C1187 1.415 . S
C1189 H1165 0.951 . S
C1189 C1190 1.366 . S
C1189 C1191 1.388 . S
C1190 C1189 1.366 . S
C1190 C1194 1.385 . S
C1191 H1166 0.951 . S
C1191 C1189 1.388 . S
C1191 C1192 1.366 . S
C1192 C1191 1.366 . S
C1192 C1193 1.414 . S
C1192 C1195 1.499 . S
C1193 H1167 0.950 . S
C1193 C1192 1.414 . S
C1193 C1194 1.374 . S
C1194 H1168 0.950 . S
C1194 C1190 1.385 . S
C1194 C1193 1.374 . S
C1195 C1192 1.499 . S
C1195 C1196 1.373 . S
C1195 C1197 1.389 . S
C1196 H1169 0.950 . S
C1196 C1182 1.377 . S
C1196 C1195 1.373 . S
C1197 C1181 1.377 . S
C1197 C1195 1.389 . S
C1197 C1198 1.524 . S
C1198 C1197 1.524 . S
C1198 C1199 1.397 . S
C1198 C1203 1.363 . S
C1199 H1170 0.950 . S
C1199 C1198 1.397 . S
C1199 C1200 1.334 . S
C1200 H1171 0.950 . S
C1200 C1199 1.334 . S
C1200 C1201 1.287 . S
C1201 C1200 1.287 . S
C1201 C1202 1.524 . S
C1201 H1204 0.999 . S
C1202 H1172 0.950 . S
C1202 C1201 1.524 . S
C1202 C1203 1.415 . S
C1203 H1173 0.950 . S
C1203 C1198 1.363 . S
C1203 C1202 1.415 . S
H1204 C1201 0.999 . S
H1205 C1186 0.913 . S
H1206 C1224 0.951 . S
H1207 C1226 0.951 . S
H1208 C1228 0.950 . S
H1209 C1229 0.950 . S
H1210 C1231 0.950 . S
H1211 C1234 0.950 . S
H1212 C1235 0.950 . S
H1213 C1237 0.950 . S
H1214 C1238 0.950 . S
H1215 C1239 0.951 . S
H1216 C1241 0.951 . S
H1217 C1243 0.950 . S
H1218 C1244 0.950 . S
H1219 C1246 0.950 . S
H1220 C1249 0.950 . S
H1221 C1250 0.950 . S
H1222 C1252 0.950 . S
H1223 C1253 0.950 . S
C1224 H1206 0.951 . S
C1224 C1225 1.366 . S
C1224 C1226 1.388 . S
C1225 C1224 1.366 . S
C1225 C1229 1.385 . S
C1226 H1207 0.951 . S
C1226 C1224 1.388 . S
C1226 C1227 1.366 . S
C1227 C1226 1.366 . S
C1227 C1228 1.414 . S
C1227 C1230 1.499 . S
C1228 H1208 0.950 . S
C1228 C1227 1.414 . S
C1228 C1229 1.374 . S
C1229 H1209 0.950 . S
C1229 C1225 1.385 . S
C1229 C1228 1.374 . S
C1230 C1227 1.499 . S
C1230 C1231 1.373 . S
C1230 C1232 1.389 . S
C1231 H1210 0.950 . S
C1231 C1230 1.373 . S
C1231 C1247 1.377 . S
C1232 C1230 1.389 . S
C1232 C1233 1.524 . S
C1232 C1246 1.377 . S
C1233 C1232 1.524 . S
C1233 C1234 1.397 . S
C1233 C1238 1.363 . S
C1234 H1211 0.950 . S
C1234 C1233 1.397 . S
C1234 C1235 1.334 . S
C1235 H1212 0.950 . S
C1235 C1234 1.334 . S
C1235 C1236 1.287 . S
C1236 C1235 1.287 . S
C1236 C1237 1.524 . S
C1236 H1255 0.913 . S
C1237 H1213 0.950 . S
C1237 C1236 1.524 . S
C1237 C1238 1.415 . S
C1238 H1214 0.950 . S
C1238 C1233 1.363 . S
C1238 C1237 1.415 . S
C1239 H1215 0.951 . S
C1239 C1240 1.366 . S
C1239 C1241 1.388 . S
C1240 C1239 1.366 . S
C1240 C1244 1.385 . S
C1241 H1216 0.951 . S
C1241 C1239 1.388 . S
C1241 C1242 1.366 . S
C1242 C1241 1.366 . S
C1242 C1243 1.414 . S
C1242 C1245 1.499 . S
C1243 H1217 0.950 . S
C1243 C1242 1.414 . S
C1243 C1244 1.374 . S
C1244 H1218 0.950 . S
C1244 C1240 1.385 . S
C1244 C1243 1.374 . S
C1245 C1242 1.499 . S
C1245 C1246 1.373 . S
C1245 C1247 1.389 . S
C1246 H1219 0.950 . S
C1246 C1232 1.377 . S
C1246 C1245 1.373 . S
C1247 C1231 1.377 . S
C1247 C1245 1.389 . S
C1247 C1248 1.524 . S
C1248 C1247 1.524 . S
C1248 C1249 1.397 . S
C1248 C1253 1.363 . S
C1249 H1220 0.950 . S
C1249 C1248 1.397 . S
C1249 C1250 1.334 . S
C1250 H1221 0.950 . S
C1250 C1249 1.334 . S
C1250 C1251 1.287 . S
C1251 C1250 1.287 . S
C1251 C1252 1.524 . S
C1251 H1254 0.999 . S
C1252 H1222 0.950 . S
C1252 C1251 1.524 . S
C1252 C1253 1.415 . S
C1253 H1223 0.950 . S
C1253 C1248 1.363 . S
C1253 C1252 1.415 . S
H1254 C1251 0.999 . S
H1255 C1236 0.913 . S
H1256 C1274 0.951 . S
H1257 C1276 0.951 . S
H1258 C1278 0.950 . S
H1259 C1279 0.950 . S
H1260 C1281 0.950 . S
H1261 C1284 0.950 . S
H1262 C1285 0.950 . S
H1263 C1287 0.950 . S
H1264 C1288 0.950 . S
H1265 C1289 0.951 . S
H1266 C1291 0.951 . S
H1267 C1293 0.950 . S
H1268 C1294 0.950 . S
H1269 C1296 0.950 . S
H1270 C1299 0.950 . S
H1271 C1300 0.950 . S
H1272 C1302 0.940 1_554 S
H1273 C1303 0.950 . S
C1274 H1256 0.951 . S
C1274 C1275 1.366 . S
C1274 C1276 1.388 . S
C1275 C1274 1.366 . S
C1275 C1279 1.385 . S
C1276 H1257 0.951 . S
C1276 C1274 1.388 . S
C1276 C1277 1.366 . S
C1277 C1276 1.366 . S
C1277 C1278 1.414 . S
C1277 C1280 1.499 . S
C1278 H1258 0.950 . S
C1278 C1277 1.414 . S
C1278 C1279 1.374 . S
C1279 H1259 0.950 . S
C1279 C1275 1.385 . S
C1279 C1278 1.374 . S
C1280 C1277 1.499 . S
C1280 C1281 1.373 . S
C1280 C1282 1.389 . S
C1281 H1260 0.950 . S
C1281 C1280 1.373 . S
C1281 C1297 1.377 . S
C1282 C1280 1.389 . S
C1282 C1283 1.524 . S
C1282 C1296 1.377 . S
C1283 C1282 1.524 . S
C1283 C1284 1.397 . S
C1283 C1288 1.363 . S
C1284 H1261 0.950 . S
C1284 C1283 1.397 . S
C1284 C1285 1.334 . S
C1285 H1262 0.950 . S
C1285 C1284 1.334 . S
C1285 C1286 1.287 . S
C1286 C1285 1.287 . S
C1286 C1287 1.524 . S
C1286 H1305 0.913 . S
C1287 H1263 0.950 . S
C1287 C1286 1.524 . S
C1287 C1288 1.415 . S
C1288 H1264 0.950 . S
C1288 C1283 1.363 . S
C1288 C1287 1.415 . S
C1289 H1265 0.951 . S
C1289 C1290 1.366 . S
C1289 C1291 1.388 . S
C1290 C1289 1.366 . S
C1290 C1294 1.385 1_455 S
C1291 H1266 0.951 . S
C1291 C1289 1.388 . S
C1291 C1292 1.366 1_455 S
C1292 C1291 1.366 1_655 S
C1292 C1293 1.414 . S
C1292 C1295 1.499 . S
C1293 H1267 0.950 . S
C1293 C1292 1.414 . S
C1293 C1294 1.374 . S
C1294 H1268 0.950 . S
C1294 C1290 1.385 1_655 S
C1294 C1293 1.374 . S
C1295 C1292 1.499 . S
C1295 C1296 1.373 . S
C1295 C1297 1.389 . S
C1296 H1269 0.950 . S
C1296 C1282 1.377 . S
C1296 C1295 1.373 . S
C1297 C1281 1.377 . S
C1297 C1295 1.389 . S
C1297 C1298 1.524 . S
C1298 C1297 1.524 . S
C1298 C1299 1.397 . S
C1298 C1303 1.363 1_655 S
C1299 H1270 0.950 . S
C1299 C1298 1.397 . S
C1299 C1300 1.334 . S
C1300 H1271 0.950 . S
C1300 C1299 1.334 . S
C1300 C1301 1.287 1_655 S
C1301 C1300 1.287 1_455 S
C1301 C1302 1.524 . S
C1301 H1304 0.999 . S
C1302 H1272 0.940 1_556 S
C1302 C1301 1.524 . S
C1302 C1303 1.415 . S
C1303 H1273 0.950 . S
C1303 C1298 1.363 1_455 S
C1303 C1302 1.415 . S
H1304 C1301 0.999 . S
H1305 C1286 0.913 . S
H1306 C1324 0.951 1_554 S
H1307 C1326 0.951 . S
H1308 C1328 0.950 . S
H1309 C1329 0.950 . S
H1310 C1331 0.950 1_545 S
H1311 C1334 0.950 . S
H1312 C1335 0.950 . S
H1313 C1337 0.950 . S
H1314 C1338 0.950 . S
H1315 C1339 0.951 . S
H1316 C1341 0.951 . S
H1317 C1343 0.950 . S
H1318 C1344 0.950 . S
H1319 C1346 0.950 . S
H1320 C1349 0.950 . S
H1321 C1350 0.950 . S
H1322 C1352 0.950 . S
H1323 C1353 0.950 . S
C1324 H1306 0.951 1_556 S
C1324 C1325 1.366 . S
C1324 C1326 1.388 . S
C1325 C1324 1.366 . S
C1325 C1329 1.385 . S
C1326 H1307 0.951 . S
C1326 C1324 1.388 . S
C1326 C1327 1.366 . S
C1327 C1326 1.366 . S
C1327 C1328 1.414 . S
C1327 C1330 1.499 . S
C1328 H1308 0.950 . S
C1328 C1327 1.414 . S
C1328 C1329 1.374 . S
C1329 H1309 0.950 . S
C1329 C1325 1.385 . S
C1329 C1328 1.374 . S
C1330 C1327 1.499 . S
C1330 C1331 1.373 . S
C1330 C1332 1.389 . S
C1331 H1310 0.950 1_565 S
C1331 C1330 1.373 . S
C1331 C1347 1.377 1_565 S
C1332 C1330 1.389 . S
C1332 C1333 1.524 . S
C1332 C1346 1.377 . S
C1333 C1332 1.524 . S
C1333 C1334 1.397 . S
C1333 C1338 1.363 . S
C1334 H1311 0.950 . S
C1334 C1333 1.397 . S
C1334 C1335 1.334 . S
C1335 H1312 0.950 . S
C1335 C1334 1.334 . S
C1335 C1336 1.287 . S
C1336 C1335 1.287 . S
C1336 C1337 1.524 . S
C1336 H1355 0.913 . S
C1337 H1313 0.950 . S
C1337 C1336 1.524 . S
C1337 C1338 1.415 . S
C1338 H1314 0.950 . S
C1338 C1333 1.363 . S
C1338 C1337 1.415 . S
C1339 H1315 0.951 . S
C1339 C1340 1.366 . S
C1339 C1341 1.388 . S
C1340 C1339 1.366 . S
C1340 C1344 1.385 1_545 S
C1341 H1316 0.951 . S
C1341 C1339 1.388 . S
C1341 C1342 1.366 1_545 S
C1342 C1341 1.366 1_565 S
C1342 C1343 1.414 . S
C1342 C1345 1.499 . S
C1343 H1317 0.950 . S
C1343 C1342 1.414 . S
C1343 C1344 1.374 . S
C1344 H1318 0.950 . S
C1344 C1340 1.385 1_565 S
C1344 C1343 1.374 . S
C1345 C1342 1.499 . S
C1345 C1346 1.373 . S
C1345 C1347 1.389 1_565 S
C1346 H1319 0.950 . S
C1346 C1332 1.377 . S
C1346 C1345 1.373 . S
C1347 C1331 1.377 1_545 S
C1347 C1345 1.389 1_545 S
C1347 C1348 1.524 . S
C1348 C1347 1.524 . S
C1348 C1349 1.397 . S
C1348 C1353 1.363 . S
C1349 H1320 0.950 . S
C1349 C1348 1.397 . S
C1349 C1350 1.334 . S
C1350 H1321 0.950 . S
C1350 C1349 1.334 . S
C1350 C1351 1.287 . S
C1351 C1350 1.287 . S
C1351 C1352 1.524 . S
C1351 H1354 0.999 . S
C1352 H1322 0.950 . S
C1352 C1351 1.524 . S
C1352 C1353 1.415 . S
C1353 H1323 0.950 . S
C1353 C1348 1.363 . S
C1353 C1352 1.415 . S
H1354 C1351 0.999 . S
H1355 C1336 0.913 . S
H1356 C1374 0.951 . S
H1357 C1376 0.951 . S
H1358 C1378 0.950 . S
H1359 C1379 0.950 . S
H1360 C1381 0.950 . S
H1361 C1384 0.950 . S
H1362 C1385 0.950 . S
H1363 C1387 0.950 . S
H1364 C1388 0.950 . S
H1365 C1389 0.951 . S
H1366 C1391 0.951 . S
H1367 C1393 0.950 . S
H1368 C1394 0.950 . S
H1369 C1396 0.950 . S
H1370 C1399 0.950 . S
H1371 C1400 0.950 . S
H1372 C1402 0.950 . S
H1373 C1403 0.950 . S
C1374 H1356 0.951 . S
C1374 C1375 1.366 . S
C1374 C1376 1.388 . S
C1375 C1374 1.366 . S
C1375 C1379 1.385 . S
C1376 H1357 0.951 . S
C1376 C1374 1.388 . S
C1376 C1377 1.366 . S
C1377 C1376 1.366 . S
C1377 C1378 1.414 . S
C1377 C1380 1.499 . S
C1378 H1358 0.950 . S
C1378 C1377 1.414 . S
C1378 C1379 1.374 . S
C1379 H1359 0.950 . S
C1379 C1375 1.385 . S
C1379 C1378 1.374 . S
C1380 C1377 1.499 . S
C1380 C1381 1.373 . S
C1380 C1382 1.389 . S
C1381 H1360 0.950 . S
C1381 C1380 1.373 . S
C1381 C1397 1.377 . S
C1382 C1380 1.389 . S
C1382 C1383 1.524 . S
C1382 C1396 1.377 . S
C1383 C1382 1.524 . S
C1383 C1384 1.397 . S
C1383 C1388 1.363 . S
C1384 H1361 0.950 . S
C1384 C1383 1.397 . S
C1384 C1385 1.334 . S
C1385 H1362 0.950 . S
C1385 C1384 1.334 . S
C1385 C1386 1.287 . S
C1386 C1385 1.287 . S
C1386 C1387 1.524 . S
C1386 H1405 0.913 . S
C1387 H1363 0.950 . S
C1387 C1386 1.524 . S
C1387 C1388 1.415 . S
C1388 H1364 0.950 . S
C1388 C1383 1.363 . S
C1388 C1387 1.415 . S
C1389 H1365 0.951 . S
C1389 C1390 1.366 . S
C1389 C1391 1.388 . S
C1390 C1389 1.366 . S
C1390 C1394 1.385 . S
C1391 H1366 0.951 . S
C1391 C1389 1.388 . S
C1391 C1392 1.366 . S
C1392 C1391 1.366 . S
C1392 C1393 1.414 . S
C1392 C1395 1.499 . S
C1393 H1367 0.950 . S
C1393 C1392 1.414 . S
C1393 C1394 1.374 . S
C1394 H1368 0.950 . S
C1394 C1390 1.385 . S
C1394 C1393 1.374 . S
C1395 C1392 1.499 . S
C1395 C1396 1.373 . S
C1395 C1397 1.389 . S
C1396 H1369 0.950 . S
C1396 C1382 1.377 . S
C1396 C1395 1.373 . S
C1397 C1381 1.377 . S
C1397 C1395 1.389 . S
C1397 C1398 1.524 . S
C1398 C1397 1.524 . S
C1398 C1399 1.397 . S
C1398 C1403 1.363 . S
C1399 H1370 0.950 . S
C1399 C1398 1.397 . S
C1399 C1400 1.334 . S
C1400 H1371 0.950 . S
C1400 C1399 1.334 . S
C1400 C1401 1.287 . S
C1401 C1400 1.287 . S
C1401 C1402 1.524 . S
C1401 H1404 0.999 . S
C1402 H1372 0.950 . S
C1402 C1401 1.524 . S
C1402 C1403 1.415 . S
C1403 H1373 0.950 . S
C1403 C1398 1.363 . S
C1403 C1402 1.415 . S
H1404 C1401 0.999 . S
H1405 C1386 0.913 . S
H1406 C1424 0.951 1_554 S
H1407 C1426 0.951 . S
H1408 C1428 0.950 . S
H1409 C1429 0.950 . S
H1410 C1431 0.950 . S
H1411 C1434 0.950 . S
H1412 C1435 0.950 . S
H1413 C1437 0.950 . S
H1414 C1438 0.950 . S
H1415 C1439 0.951 . S
H1416 C1441 0.951 . S
H1417 C1443 0.950 . S
H1418 C1444 0.950 . S
H1419 C1446 0.950 . S
H1420 C1449 0.950 . S
H1421 C1450 0.950 . S
H1422 C1452 0.950 . S
H1423 C1453 0.950 . S
C1424 H1406 0.951 1_556 S
C1424 C1425 1.366 . S
C1424 C1426 1.388 . S
C1425 C1424 1.366 . S
C1425 C1429 1.385 . S
C1426 H1407 0.951 . S
C1426 C1424 1.388 . S
C1426 C1427 1.366 . S
C1427 C1426 1.366 . S
C1427 C1428 1.414 . S
C1427 C1430 1.499 . S
C1428 H1408 0.950 . S
C1428 C1427 1.414 . S
C1428 C1429 1.374 . S
C1429 H1409 0.950 . S
C1429 C1425 1.385 . S
C1429 C1428 1.374 . S
C1430 C1427 1.499 . S
C1430 C1431 1.373 . S
C1430 C1432 1.389 . S
C1431 H1410 0.950 . S
C1431 C1430 1.373 . S
C1431 C1447 1.377 . S
C1432 C1430 1.389 . S
C1432 C1433 1.524 . S
C1432 C1446 1.377 . S
C1433 C1432 1.524 . S
C1433 C1434 1.397 . S
C1433 C1438 1.363 . S
C1434 H1411 0.950 . S
C1434 C1433 1.397 . S
C1434 C1435 1.334 . S
C1435 H1412 0.950 . S
C1435 C1434 1.334 . S
C1435 C1436 1.287 . S
C1436 C1435 1.287 . S
C1436 C1437 1.524 . S
C1436 H1455 0.913 . S
C1437 H1413 0.950 . S
C1437 C1436 1.524 . S
C1437 C1438 1.415 . S
C1438 H1414 0.950 . S
C1438 C1433 1.363 . S
C1438 C1437 1.415 . S
C1439 H1415 0.951 . S
C1439 C1440 1.366 . S
C1439 C1441 1.388 . S
C1440 C1439 1.366 . S
C1440 C1444 1.385 . S
C1441 H1416 0.951 . S
C1441 C1439 1.388 . S
C1441 C1442 1.366 . S
C1442 C1441 1.366 . S
C1442 C1443 1.414 . S
C1442 C1445 1.499 . S
C1443 H1417 0.950 . S
C1443 C1442 1.414 . S
C1443 C1444 1.374 . S
C1444 H1418 0.950 . S
C1444 C1440 1.385 . S
C1444 C1443 1.374 . S
C1445 C1442 1.499 . S
C1445 C1446 1.373 . S
C1445 C1447 1.389 . S
C1446 H1419 0.950 . S
C1446 C1432 1.377 . S
C1446 C1445 1.373 . S
C1447 C1431 1.377 . S
C1447 C1445 1.389 . S
C1447 C1448 1.524 . S
C1448 C1447 1.524 . S
C1448 C1449 1.397 . S
C1448 C1453 1.363 . S
C1449 H1420 0.950 . S
C1449 C1448 1.397 . S
C1449 C1450 1.334 . S
C1450 H1421 0.950 . S
C1450 C1449 1.334 . S
C1450 C1451 1.287 . S
C1451 C1450 1.287 . S
C1451 C1452 1.524 . S
C1451 H1454 0.999 . S
C1452 H1422 0.950 . S
C1452 C1451 1.524 . S
C1452 C1453 1.415 . S
C1453 H1423 0.950 . S
C1453 C1448 1.363 . S
C1453 C1452 1.415 . S
H1454 C1451 0.999 . S
H1455 C1436 0.913 . S
H1456 C1474 0.951 . S
H1457 C1476 0.951 . S
H1458 C1478 0.950 . S
H1459 C1479 0.950 . S
H1460 C1481 0.950 . S
H1461 C1484 0.950 . S
H1462 C1485 0.950 . S
H1463 C1487 0.950 . S
H1464 C1488 0.950 . S
H1465 C1489 0.951 . S
H1466 C1491 0.951 . S
H1467 C1493 0.950 . S
H1468 C1494 0.950 . S
H1469 C1496 0.950 . S
H1470 C1499 0.950 1_655 S
H1471 C1500 0.950 . S
H1472 C1502 0.950 . S
H1473 C1503 0.950 . S
C1474 H1456 0.951 . S
C1474 C1475 1.366 . S
C1474 C1476 1.388 . S
C1475 C1474 1.366 . S
C1475 C1479 1.385 . S
C1476 H1457 0.951 . S
C1476 C1474 1.388 . S
C1476 C1477 1.366 . S
C1477 C1476 1.366 . S
C1477 C1478 1.414 . S
C1477 C1480 1.499 . S
C1478 H1458 0.950 . S
C1478 C1477 1.414 . S
C1478 C1479 1.374 . S
C1479 H1459 0.950 . S
C1479 C1475 1.385 . S
C1479 C1478 1.374 . S
C1480 C1477 1.499 . S
C1480 C1481 1.373 . S
C1480 C1482 1.389 . S
C1481 H1460 0.950 . S
C1481 C1480 1.373 . S
C1481 C1497 1.377 . S
C1482 C1480 1.389 . S
C1482 C1483 1.524 . S
C1482 C1496 1.377 . S
C1483 C1482 1.524 . S
C1483 C1484 1.397 . S
C1483 C1488 1.363 . S
C1484 H1461 0.950 . S
C1484 C1483 1.397 . S
C1484 C1485 1.334 . S
C1485 H1462 0.950 . S
C1485 C1484 1.334 . S
C1485 C1486 1.287 . S
C1486 C1485 1.287 . S
C1486 C1487 1.524 . S
C1486 H1505 0.913 . S
C1487 H1463 0.950 . S
C1487 C1486 1.524 . S
C1487 C1488 1.415 . S
C1488 H1464 0.950 . S
C1488 C1483 1.363 . S
C1488 C1487 1.415 . S
C1489 H1465 0.951 . S
C1489 C1490 1.366 . S
C1489 C1491 1.388 . S
C1490 C1489 1.366 . S
C1490 C1494 1.385 . S
C1491 H1466 0.951 . S
C1491 C1489 1.388 . S
C1491 C1492 1.366 . S
C1492 C1491 1.366 . S
C1492 C1493 1.414 . S
C1492 C1495 1.499 . S
C1493 H1467 0.950 . S
C1493 C1492 1.414 . S
C1493 C1494 1.374 . S
C1494 H1468 0.950 . S
C1494 C1490 1.385 . S
C1494 C1493 1.374 . S
C1495 C1492 1.499 . S
C1495 C1496 1.373 . S
C1495 C1497 1.389 . S
C1496 H1469 0.950 . S
C1496 C1482 1.377 . S
C1496 C1495 1.373 . S
C1497 C1481 1.377 . S
C1497 C1495 1.389 . S
C1497 C1498 1.524 . S
C1498 C1497 1.524 . S
C1498 C1499 1.397 . S
C1498 C1503 1.363 . S
C1499 H1470 0.950 1_455 S
C1499 C1498 1.397 . S
C1499 C1500 1.334 1_455 S
C1500 H1471 0.950 . S
C1500 C1499 1.334 1_655 S
C1500 C1501 1.287 1_655 S
C1501 C1500 1.287 1_455 S
C1501 C1502 1.524 . S
C1501 H1504 0.999 . S
C1502 H1472 0.950 . S
C1502 C1501 1.524 . S
C1502 C1503 1.415 . S
C1503 H1473 0.950 . S
C1503 C1498 1.363 . S
C1503 C1502 1.415 . S
H1504 C1501 0.999 . S
H1505 C1486 0.913 . S
H1506 C1524 0.951 . S
H1507 C1526 0.951 . S
H1508 C1528 0.950 . S
H1509 C1529 0.950 . S
H1510 C1531 0.950 . S
H1511 C1534 0.950 . S
H1512 C1535 0.950 . S
H1513 C1537 0.950 . S
H1514 C1538 0.950 . S
H1515 C1539 0.951 . S
H1516 C1541 0.951 . S
H1517 C1543 0.950 . S
H1518 C1544 0.950 . S
H1519 C1546 0.950 . S
H1520 C1549 0.950 . S
H1521 C1550 0.950 . S
H1522 C1552 0.950 . S
H1523 C1553 0.915 1_545 S
C1524 H1506 0.951 . S
C1524 C1525 1.366 . S
C1524 C1526 1.388 . S
C1525 C1524 1.366 . S
C1525 C1529 1.385 . S
C1526 H1507 0.951 . S
C1526 C1524 1.388 . S
C1526 C1527 1.366 . S
C1527 C1526 1.366 . S
C1527 C1528 1.414 . S
C1527 C1530 1.499 . S
C1528 H1508 0.950 . S
C1528 C1527 1.414 . S
C1528 C1529 1.374 . S
C1529 H1509 0.950 . S
C1529 C1525 1.385 . S
C1529 C1528 1.374 . S
C1530 C1527 1.499 . S
C1530 C1531 1.373 . S
C1530 C1532 1.389 . S
C1531 H1510 0.950 . S
C1531 C1530 1.373 . S
C1531 C1547 1.377 . S
C1532 C1530 1.389 . S
C1532 C1533 1.524 . S
C1532 C1546 1.377 . S
C1533 C1532 1.524 . S
C1533 C1534 1.397 . S
C1533 C1538 1.363 . S
C1534 H1511 0.950 . S
C1534 C1533 1.397 . S
C1534 C1535 1.334 . S
C1535 H1512 0.950 . S
C1535 C1534 1.334 . S
C1535 C1536 1.287 . S
C1536 C1535 1.287 . S
C1536 C1537 1.524 . S
C1536 H1555 0.913 . S
C1537 H1513 0.950 . S
C1537 C1536 1.524 . S
C1537 C1538 1.415 . S
C1538 H1514 0.950 . S
C1538 C1533 1.363 . S
C1538 C1537 1.415 . S
C1539 H1515 0.951 . S
C1539 C1540 1.366 . S
C1539 C1541 1.388 . S
C1540 C1539 1.366 . S
C1540 C1544 1.385 . S
C1541 H1516 0.951 . S
C1541 C1539 1.388 . S
C1541 C1542 1.366 . S
C1542 C1541 1.366 . S
C1542 C1543 1.414 . S
C1542 C1545 1.499 . S
C1543 H1517 0.950 . S
C1543 C1542 1.414 . S
C1543 C1544 1.374 . S
C1544 H1518 0.950 . S
C1544 C1540 1.385 . S
C1544 C1543 1.374 . S
C1545 C1542 1.499 . S
C1545 C1546 1.373 . S
C1545 C1547 1.389 . S
C1546 H1519 0.950 . S
C1546 C1532 1.377 . S
C1546 C1545 1.373 . S
C1547 C1531 1.377 . S
C1547 C1545 1.389 . S
C1547 C1548 1.487 1_545 S
C1548 C1547 1.487 1_565 S
C1548 C1549 1.421 . S
C1548 C1553 1.377 . S
C1549 H1520 0.950 . S
C1549 C1548 1.421 . S
C1549 C1550 1.334 . S
C1550 H1521 0.950 . S
C1550 C1549 1.334 . S
C1550 C1551 1.287 . S
C1551 C1550 1.287 . S
C1551 C1552 1.524 . S
C1551 H1554 0.999 . S
C1552 H1522 0.950 . S
C1552 C1551 1.524 . S
C1552 C1553 1.415 . S
C1553 H1523 0.915 1_565 S
C1553 C1548 1.377 . S
C1553 C1552 1.415 . S
H1554 C1551 0.999 . S
H1555 C1536 0.913 . S
H1556 C1574 0.951 . S
H1557 C1576 0.951 . S
H1558 C1578 0.950 . S
H1559 C1579 0.950 . S
H1560 C1581 0.950 . S
H1561 C1584 0.950 . S
H1562 C1585 0.950 . S
H1563 C1587 0.950 . S
H1564 C1588 0.950 . S
H1565 C1589 0.951 . S
H1566 C1591 0.951 . S
H1567 C1593 0.950 . S
H1568 C1594 0.950 . S
H1569 C1596 0.950 . S
H1570 C1599 0.950 . S
H1571 C1600 0.950 . S
H1572 C1602 0.950 . S
H1573 C1603 0.950 . S
C1574 H1556 0.951 . S
C1574 C1575 1.366 . S
C1574 C1576 1.388 . S
C1575 C1574 1.366 . S
C1575 C1579 1.385 . S
C1576 H1557 0.951 . S
C1576 C1574 1.388 . S
C1576 C1577 1.366 . S
C1577 C1576 1.366 . S
C1577 C1578 1.414 . S
C1577 C1580 1.499 . S
C1578 H1558 0.950 . S
C1578 C1577 1.414 . S
C1578 C1579 1.374 . S
C1579 H1559 0.950 . S
C1579 C1575 1.385 . S
C1579 C1578 1.374 . S
C1580 C1577 1.499 . S
C1580 C1581 1.373 . S
C1580 C1582 1.389 . S
C1581 H1560 0.950 . S
C1581 C1580 1.373 . S
C1581 C1597 1.377 . S
C1582 C1580 1.389 . S
C1582 C1583 1.524 . S
C1582 C1596 1.377 . S
C1583 C1582 1.524 . S
C1583 C1584 1.397 . S
C1583 C1588 1.363 . S
C1584 H1561 0.950 . S
C1584 C1583 1.397 . S
C1584 C1585 1.334 . S
C1585 H1562 0.950 . S
C1585 C1584 1.334 . S
C1585 C1586 1.287 . S
C1586 C1585 1.287 . S
C1586 C1587 1.524 . S
C1586 H1605 0.913 . S
C1587 H1563 0.950 . S
C1587 C1586 1.524 . S
C1587 C1588 1.415 . S
C1588 H1564 0.950 . S
C1588 C1583 1.363 . S
C1588 C1587 1.415 . S
C1589 H1565 0.951 . S
C1589 C1590 1.366 . S
C1589 C1591 1.388 . S
C1590 C1589 1.366 . S
C1590 C1594 1.385 . S
C1591 H1566 0.951 . S
C1591 C1589 1.388 . S
C1591 C1592 1.366 . S
C1592 C1591 1.366 . S
C1592 C1593 1.414 . S
C1592 C1595 1.499 . S
C1593 H1567 0.950 . S
C1593 C1592 1.414 . S
C1593 C1594 1.374 . S
C1594 H1568 0.950 . S
C1594 C1590 1.385 . S
C1594 C1593 1.374 . S
C1595 C1592 1.499 . S
C1595 C1596 1.373 . S
C1595 C1597 1.389 . S
C1596 H1569 0.950 . S
C1596 C1582 1.377 . S
C1596 C1595 1.373 . S
C1597 C1581 1.377 . S
C1597 C1595 1.389 . S
C1597 C1598 1.524 . S
C1598 C1597 1.524 . S
C1598 C1599 1.397 . S
C1598 C1603 1.363 . S
C1599 H1570 0.950 . S
C1599 C1598 1.397 . S
C1599 C1600 1.334 . S
C1600 H1571 0.950 . S
C1600 C1599 1.334 . S
C1600 C1601 1.287 . S
C1601 C1600 1.287 . S
C1601 C1602 1.524 . S
C1601 H1604 0.999 . S
C1602 H1572 0.950 . S
C1602 C1601 1.524 . S
C1602 C1603 1.415 . S
C1603 H1573 0.950 . S
C1603 C1598 1.363 . S
C1603 C1602 1.415 . S
H1604 C1601 0.999 . S
H1605 C1586 0.913 . S
H1606 C1624 0.951 . S
H1607 C1626 0.951 . S
H1608 C1628 0.950 . S
H1609 C1629 0.950 . S
H1610 C1631 0.950 . S
H1611 C1634 0.950 . S
H1612 C1635 0.950 . S
H1613 C1637 0.950 . S
H1614 C1638 0.950 . S
H1615 C1639 0.951 . S
H1616 C1641 0.951 . S
H1617 C1643 0.950 . S
H1618 C1644 0.950 . S
H1619 C1646 0.950 . S
H1620 C1649 0.950 . S
H1621 C1650 0.950 . S
H1622 C1652 0.950 . S
H1623 C1653 0.950 . S
C1624 H1606 0.951 . S
C1624 C1625 1.366 . S
C1624 C1626 1.388 . S
C1625 C1624 1.366 . S
C1625 C1629 1.385 . S
C1626 H1607 0.951 . S
C1626 C1624 1.388 . S
C1626 C1627 1.366 . S
C1627 C1626 1.366 . S
C1627 C1628 1.414 . S
C1627 C1630 1.499 . S
C1628 H1608 0.950 . S
C1628 C1627 1.414 . S
C1628 C1629 1.374 . S
C1629 H1609 0.950 . S
C1629 C1625 1.385 . S
C1629 C1628 1.374 . S
C1630 C1627 1.499 . S
C1630 C1631 1.373 . S
C1630 C1632 1.389 . S
C1631 H1610 0.950 . S
C1631 C1630 1.373 . S
C1631 C1647 1.377 . S
C1632 C1630 1.389 . S
C1632 C1633 1.524 . S
C1632 C1646 1.377 . S
C1633 C1632 1.524 . S
C1633 C1634 1.397 . S
C1633 C1638 1.363 . S
C1634 H1611 0.950 . S
C1634 C1633 1.397 . S
C1634 C1635 1.334 . S
C1635 H1612 0.950 . S
C1635 C1634 1.334 . S
C1635 C1636 1.287 . S
C1636 C1635 1.287 . S
C1636 C1637 1.524 . S
C1636 H1655 0.913 . S
C1637 H1613 0.950 . S
C1637 C1636 1.524 . S
C1637 C1638 1.415 . S
C1638 H1614 0.950 . S
C1638 C1633 1.363 . S
C1638 C1637 1.415 . S
C1639 H1615 0.951 . S
C1639 C1640 1.366 . S
C1639 C1641 1.388 . S
C1640 C1639 1.366 . S
C1640 C1644 1.385 . S
C1641 H1616 0.951 . S
C1641 C1639 1.388 . S
C1641 C1642 1.366 . S
C1642 C1641 1.366 . S
C1642 C1643 1.414 . S
C1642 C1645 1.499 . S
C1643 H1617 0.950 . S
C1643 C1642 1.414 . S
C1643 C1644 1.374 . S
C1644 H1618 0.950 . S
C1644 C1640 1.385 . S
C1644 C1643 1.374 . S
C1645 C1642 1.499 . S
C1645 C1646 1.373 . S
C1645 C1647 1.389 . S
C1646 H1619 0.950 . S
C1646 C1632 1.377 . S
C1646 C1645 1.373 . S
C1647 C1631 1.377 . S
C1647 C1645 1.389 . S
C1647 C1648 1.524 . S
C1648 C1647 1.524 . S
C1648 C1649 1.397 . S
C1648 C1653 1.363 . S
C1649 H1620 0.950 . S
C1649 C1648 1.397 . S
C1649 C1650 1.334 . S
C1650 H1621 0.950 . S
C1650 C1649 1.334 . S
C1650 C1651 1.287 . S
C1651 C1650 1.287 . S
C1651 C1652 1.524 . S
C1651 H1654 0.999 . S
C1652 H1622 0.950 . S
C1652 C1651 1.524 . S
C1652 C1653 1.415 . S
C1653 H1623 0.950 . S
C1653 C1648 1.363 . S
C1653 C1652 1.415 . S
H1654 C1651 0.999 . S
H1655 C1636 0.913 . S
H1656 C1674 0.951 . S
H1657 C1676 0.951 . S
H1658 C1678 0.950 . S
H1659 C1679 0.950 . S
H1660 C1681 0.950 1_455 S
H1661 C1684 0.950 . S
H1662 C1685 0.950 . S
H1663 C1687 0.950 . S
H1664 C1688 0.950 . S
H1665 C1689 0.951 1_455 S
H1666 C1691 0.951 1_455 S
H1667 C1693 0.950 . S
H1668 C1694 0.950 . S
H1669 C1696 0.950 . S
H1670 C1699 0.950 . S
H1671 C1700 0.950 . S
H1672 C1702 0.950 . S
H1673 C1703 0.950 . S
C1674 H1656 0.951 . S
C1674 C1675 1.366 . S
C1674 C1676 1.388 . S
C1675 C1674 1.366 . S
C1675 C1679 1.385 . S
C1676 H1657 0.951 . S
C1676 C1674 1.388 . S
C1676 C1677 1.366 . S
C1677 C1676 1.366 . S
C1677 C1678 1.414 . S
C1677 C1680 1.499 . S
C1678 H1658 0.950 . S
C1678 C1677 1.414 . S
C1678 C1679 1.374 . S
C1679 H1659 0.950 . S
C1679 C1675 1.385 . S
C1679 C1678 1.374 . S
C1680 C1677 1.499 . S
C1680 C1681 1.373 . S
C1680 C1682 1.389 . S
C1681 H1660 0.950 1_655 S
C1681 C1680 1.373 . S
C1681 C1697 1.377 . S
C1682 C1680 1.389 . S
C1682 C1683 1.524 . S
C1682 C1696 1.377 . S
C1683 C1682 1.524 . S
C1683 C1684 1.397 . S
C1683 C1688 1.363 . S
C1684 H1661 0.950 . S
C1684 C1683 1.397 . S
C1684 C1685 1.334 . S
C1685 H1662 0.950 . S
C1685 C1684 1.334 . S
C1685 C1686 1.287 . S
C1686 C1685 1.287 . S
C1686 C1687 1.524 . S
C1686 H1705 0.913 . S
C1687 H1663 0.950 . S
C1687 C1686 1.524 . S
C1687 C1688 1.415 . S
C1688 H1664 0.950 . S
C1688 C1683 1.363 . S
C1688 C1687 1.415 . S
C1689 H1665 0.951 1_655 S
C1689 C1690 1.366 . S
C1689 C1691 1.388 . S
C1690 C1689 1.366 . S
C1690 C1694 1.385 . S
C1691 H1666 0.951 1_655 S
C1691 C1689 1.388 . S
C1691 C1692 1.366 . S
C1692 C1691 1.366 . S
C1692 C1693 1.414 . S
C1692 C1695 1.499 . S
C1693 H1667 0.950 . S
C1693 C1692 1.414 . S
C1693 C1694 1.374 . S
C1694 H1668 0.950 . S
C1694 C1690 1.385 . S
C1694 C1693 1.374 . S
C1695 C1692 1.499 . S
C1695 C1696 1.373 . S
C1695 C1697 1.389 . S
C1696 H1669 0.950 . S
C1696 C1682 1.377 . S
C1696 C1695 1.373 . S
C1697 C1681 1.377 . S
C1697 C1695 1.389 . S
C1697 C1698 1.524 1_655 S
C1698 C1697 1.524 1_455 S
C1698 C1699 1.397 . S
C1698 C1703 1.363 . S
C1699 H1670 0.950 . S
C1699 C1698 1.397 . S
C1699 C1700 1.334 . S
C1700 H1671 0.950 . S
C1700 C1699 1.334 . S
C1700 C1701 1.287 . S
C1701 C1700 1.287 . S
C1701 C1702 1.524 . S
C1701 H1704 0.999 . S
C1702 H1672 0.950 . S
C1702 C1701 1.524 . S
C1702 C1703 1.415 . S
C1703 H1673 0.950 . S
C1703 C1698 1.363 . S
C1703 C1702 1.415 . S
H1704 C1701 0.999 . S
H1705 C1686 0.913 . S
H1706 C1724 0.951 . S
H1707 C1726 0.951 . S
H1708 C1728 0.950 . S
H1709 C1729 0.950 . S
H1710 C1731 0.950 . S
H1711 C1734 0.950 . S
H1712 C1735 0.950 . S
H1713 C1737 0.950 . S
H1714 C1738 0.950 . S
H1715 C1739 0.951 . S
H1716 C1741 0.951 . S
H1717 C1743 0.950 1_545 S
H1718 C1744 0.950 . S
H1719 C1746 0.950 . S
H1720 C1749 0.906 1_545 S
H1721 C1750 0.950 . S
H1722 C1752 0.950 . S
H1723 C1753 0.950 . S
C1724 H1706 0.951 . S
C1724 C1725 1.366 . S
C1724 C1726 1.388 . S
C1725 C1724 1.366 . S
C1725 C1729 1.385 . S
C1726 H1707 0.951 . S
C1726 C1724 1.388 . S
C1726 C1727 1.366 . S
C1727 C1726 1.366 . S
C1727 C1728 1.414 . S
C1727 C1730 1.499 . S
C1728 H1708 0.950 . S
C1728 C1727 1.414 . S
C1728 C1729 1.374 . S
C1729 H1709 0.950 . S
C1729 C1725 1.385 . S
C1729 C1728 1.374 . S
C1730 C1727 1.499 . S
C1730 C1731 1.373 . S
C1730 C1732 1.389 . S
C1731 H1710 0.950 . S
C1731 C1730 1.373 . S
C1731 C1747 1.377 . S
C1732 C1730 1.389 . S
C1732 C1733 1.524 . S
C1732 C1746 1.377 . S
C1733 C1732 1.524 . S
C1733 C1734 1.397 . S
C1733 C1738 1.363 . S
C1734 H1711 0.950 . S
C1734 C1733 1.397 . S
C1734 C1735 1.334 . S
C1735 H1712 0.950 . S
C1735 C1734 1.334 . S
C1735 C1736 1.287 . S
C1736 C1735 1.287 . S
C1736 C1737 1.524 . S
C1736 H1755 0.913 . S
C1737 H1713 0.950 . S
C1737 C1736 1.524 . S
C1737 C1738 1.415 . S
C1738 H1714 0.950 . S
C1738 C1733 1.363 . S
C1738 C1737 1.415 . S
C1739 H1715 0.951 . S
C1739 C1740 1.366 . S
C1739 C1741 1.388 . S
C1740 C1739 1.366 . S
C1740 C1744 1.385 1_565 S
C1741 H1716 0.951 . S
C1741 C1739 1.388 . S
C1741 C1742 1.366 . S
C1742 C1741 1.366 . S
C1742 C1743 1.415 . S
C1742 C1745 1.499 . S
C1743 H1717 0.950 1_565 S
C1743 C1742 1.415 . S
C1743 C1744 1.374 1_565 S
C1744 H1718 0.950 . S
C1744 C1740 1.385 1_545 S
C1744 C1743 1.374 1_545 S
C1745 C1742 1.499 . S
C1745 C1746 1.373 . S
C1745 C1747 1.389 . S
C1746 H1719 0.950 . S
C1746 C1732 1.377 . S
C1746 C1745 1.373 . S
C1747 C1731 1.377 . S
C1747 C1745 1.389 . S
C1747 C1748 1.524 . S
C1748 C1747 1.524 . S
C1748 C1749 1.455 . S
C1748 C1753 1.363 . S
C1749 H1720 0.906 1_565 S
C1749 C1748 1.455 . S
C1749 C1750 1.322 1_565 S
C1750 H1721 0.950 . S
C1750 C1749 1.322 1_545 S
C1750 C1751 1.287 1_545 S
C1751 C1750 1.287 1_565 S
C1751 C1752 1.524 . S
C1751 H1754 0.999 . S
C1752 H1722 0.950 . S
C1752 C1751 1.524 . S
C1752 C1753 1.415 . S
C1753 H1723 0.950 . S
C1753 C1748 1.363 . S
C1753 C1752 1.415 . S
H1754 C1751 0.999 . S
H1755 C1736 0.913 . S
H1756 C1774 0.951 . S
H1757 C1776 0.951 . S
H1758 C1778 0.950 . S
H1759 C1779 0.950 . S
H1760 C1781 0.950 . S
H1761 C1784 0.950 . S
H1762 C1785 0.950 . S
H1763 C1787 0.950 . S
H1764 C1788 0.950 . S
H1765 C1789 0.951 . S
H1766 C1791 0.951 . S
H1767 C1793 0.950 . S
H1768 C1794 0.950 . S
H1769 C1796 0.950 . S
H1770 C1799 0.950 . S
H1771 C1800 0.950 . S
H1772 C1802 0.950 . S
H1773 C1803 0.950 . S
C1774 H1756 0.951 . S
C1774 C1775 1.366 . S
C1774 C1776 1.388 . S
C1775 C1774 1.366 . S
C1775 C1779 1.385 . S
C1776 H1757 0.951 . S
C1776 C1774 1.388 . S
C1776 C1777 1.366 . S
C1777 C1776 1.366 . S
C1777 C1778 1.414 . S
C1777 C1780 1.499 . S
C1778 H1758 0.950 . S
C1778 C1777 1.414 . S
C1778 C1779 1.374 . S
C1779 H1759 0.950 . S
C1779 C1775 1.385 . S
C1779 C1778 1.374 . S
C1780 C1777 1.499 . S
C1780 C1781 1.373 . S
C1780 C1782 1.389 . S
C1781 H1760 0.950 . S
C1781 C1780 1.373 . S
C1781 C1797 1.377 . S
C1782 C1780 1.389 . S
C1782 C1783 1.524 . S
C1782 C1796 1.377 . S
C1783 C1782 1.524 . S
C1783 C1784 1.397 . S
C1783 C1788 1.363 . S
C1784 H1761 0.950 . S
C1784 C1783 1.397 . S
C1784 C1785 1.334 . S
C1785 H1762 0.950 . S
C1785 C1784 1.334 . S
C1785 C1786 1.287 . S
C1786 C1785 1.287 . S
C1786 C1787 1.524 . S
C1786 H1805 0.913 . S
C1787 H1763 0.950 . S
C1787 C1786 1.524 . S
C1787 C1788 1.415 . S
C1788 H1764 0.950 . S
C1788 C1783 1.363 . S
C1788 C1787 1.415 . S
C1789 H1765 0.951 . S
C1789 C1790 1.366 . S
C1789 C1791 1.388 . S
C1790 C1789 1.366 . S
C1790 C1794 1.385 . S
C1791 H1766 0.951 . S
C1791 C1789 1.388 . S
C1791 C1792 1.366 . S
C1792 C1791 1.366 . S
C1792 C1793 1.414 . S
C1792 C1795 1.499 . S
C1793 H1767 0.950 . S
C1793 C1792 1.414 . S
C1793 C1794 1.374 . S
C1794 H1768 0.950 . S
C1794 C1790 1.385 . S
C1794 C1793 1.374 . S
C1795 C1792 1.499 . S
C1795 C1796 1.373 . S
C1795 C1797 1.389 . S
C1796 H1769 0.950 . S
C1796 C1782 1.377 . S
C1796 C1795 1.373 . S
C1797 C1781 1.377 . S
C1797 C1795 1.389 . S
C1797 C1798 1.524 . S
C1798 C1797 1.524 . S
C1798 C1799 1.397 . S
C1798 C1803 1.363 . S
C1799 H1770 0.950 . S
C1799 C1798 1.397 . S
C1799 C1800 1.334 . S
C1800 H1771 0.950 . S
C1800 C1799 1.334 . S
C1800 C1801 1.287 . S
C1801 C1800 1.287 . S
C1801 C1802 1.524 . S
C1801 H1804 0.999 . S
C1802 H1772 0.950 . S
C1802 C1801 1.524 . S
C1802 C1803 1.415 . S
C1803 H1773 0.950 . S
C1803 C1798 1.363 . S
C1803 C1802 1.415 . S
H1804 C1801 0.999 . S
H1805 C1786 0.913 . S
H1806 C1824 0.951 . S
H1807 C1826 0.951 . S
H1808 C1828 0.950 . S
H1809 C1829 0.950 . S
H1810 C1831 0.950 . S
H1811 C1834 0.950 . S
H1812 C1835 0.950 . S
H1813 C1837 0.950 . S
H1814 C1838 0.950 . S
H1815 C1839 0.951 . S
H1816 C1841 0.951 . S
H1817 C1843 0.950 . S
H1818 C1844 0.950 . S
H1819 C1846 0.950 . S
H1820 C1849 0.950 . S
H1821 C1850 0.950 . S
H1822 C1852 0.950 . S
H1823 C1853 0.950 . S
C1824 H1806 0.951 . S
C1824 C1825 1.366 . S
C1824 C1826 1.388 . S
C1825 C1824 1.366 . S
C1825 C1829 1.385 . S
C1826 H1807 0.951 . S
C1826 C1824 1.388 . S
C1826 C1827 1.366 . S
C1827 C1826 1.366 . S
C1827 C1828 1.414 . S
C1827 C1830 1.499 . S
C1828 H1808 0.950 . S
C1828 C1827 1.414 . S
C1828 C1829 1.374 . S
C1829 H1809 0.950 . S
C1829 C1825 1.385 . S
C1829 C1828 1.374 . S
C1830 C1827 1.499 . S
C1830 C1831 1.373 . S
C1830 C1832 1.389 . S
C1831 H1810 0.950 . S
C1831 C1830 1.373 . S
C1831 C1847 1.377 . S
C1832 C1830 1.389 . S
C1832 C1833 1.524 . S
C1832 C1846 1.377 . S
C1833 C1832 1.524 . S
C1833 C1834 1.397 . S
C1833 C1838 1.363 . S
C1834 H1811 0.950 . S
C1834 C1833 1.397 . S
C1834 C1835 1.334 . S
C1835 H1812 0.950 . S
C1835 C1834 1.334 . S
C1835 C1836 1.287 . S
C1836 C1835 1.287 . S
C1836 C1837 1.524 . S
C1836 H1855 0.913 . S
C1837 H1813 0.950 . S
C1837 C1836 1.524 . S
C1837 C1838 1.415 . S
C1838 H1814 0.950 . S
C1838 C1833 1.363 . S
C1838 C1837 1.415 . S
C1839 H1815 0.951 . S
C1839 C1840 1.366 . S
C1839 C1841 1.388 . S
C1840 C1839 1.366 . S
C1840 C1844 1.385 . S
C1841 H1816 0.951 . S
C1841 C1839 1.388 . S
C1841 C1842 1.366 . S
C1842 C1841 1.366 . S
C1842 C1843 1.414 . S
C1842 C1845 1.499 . S
C1843 H1817 0.950 . S
C1843 C1842 1.414 . S
C1843 C1844 1.374 . S
C1844 H1818 0.950 . S
C1844 C1840 1.385 . S
C1844 C1843 1.374 . S
C1845 C1842 1.499 . S
C1845 C1846 1.373 . S
C1845 C1847 1.389 . S
C1846 H1819 0.950 . S
C1846 C1832 1.377 . S
C1846 C1845 1.373 . S
C1847 C1831 1.377 . S
C1847 C1845 1.389 . S
C1847 C1848 1.524 . S
C1848 C1847 1.524 . S
C1848 C1849 1.397 . S
C1848 C1853 1.363 . S
C1849 H1820 0.950 . S
C1849 C1848 1.397 . S
C1849 C1850 1.334 . S
C1850 H1821 0.950 . S
C1850 C1849 1.334 . S
C1850 C1851 1.287 . S
C1851 C1850 1.287 . S
C1851 C1852 1.524 . S
C1851 H1854 0.999 . S
C1852 H1822 0.950 . S
C1852 C1851 1.524 . S
C1852 C1853 1.415 . S
C1853 H1823 0.950 . S
C1853 C1848 1.363 . S
C1853 C1852 1.415 . S
H1854 C1851 0.999 . S
H1855 C1836 0.913 . S
C675 C255 2.175 . S
C690 C383 2.292 . S
C740 C460 2.309 . S
C725 C295 2.196 . S
C790 C551 2.282 . S
C775 C175 2.165 . S
C840 C635 2.263 . S
C825 C215 2.147 . S
C890 C394 2.291 1_565 S
C875 C95 2.170 . S
C925 C135 2.191 . S
C940 C471 2.309 . S
C975 C15 2.161 . S
C990 C562 2.283 . S
C1025 C55 2.141 . S
C1040 C646 2.262 1_655 S
C1090 C378 0.432 1_455 S
C1075 C221 0.280 . S
C1140 C473 0.519 . S
C1125 C261 0.248 . S
C1190 C546 0.429 . S
C1175 C301 0.288 . S
C1225 C181 0.265 . S
C1240 C630 0.425 . S
C1275 C61 0.439 . S
C1290 C389 0.431 . S
C1340 C462 0.518 . S
C1325 C101 0.437 . S
C1390 C557 0.431 . S
C1375 C141 0.447 . S
C1425 C21 0.434 . S
C1440 C641 0.427 . S
C1475 C202 2.679 . S
C1490 C387 2.854 . S
C1525 C242 2.667 . S
C1540 C478 2.875 . S
C1590 C555 2.883 . S
C1575 C282 2.707 . S
C1640 C639 2.883 . S
C1625 C162 2.706 . S
C1675 C42 2.635 . S
C1690 C376 2.853 . S
C1740 C467 2.888 . S
C1725 C82 2.620 . S
C1790 C544 2.884 . S
C1775 C122 2.661 . S
C1825 C2 2.663 . S
C1840 C628 2.883 . S
