# Generated by pormake.
# Topology gar, (4,6)-cn, num edge types: 1
# Building blocks:
#     Node 0, Type 0, BuildingBlock: TATPOV_clean_sbu_0, # of connection points: 4
#     Node 1, Type 0, BuildingBlock: TATPOV_clean_sbu_0, # of connection points: 4
#     Node 2, Type 0, BuildingBlock: TATPOV_clean_sbu_0, # of connection points: 4
#     Node 3, Type 0, BuildingBlock: TATPOV_clean_sbu_0, # of connection points: 4
#     Node 4, Type 0, BuildingBlock: TATPOV_clean_sbu_0, # of connection points: 4
#     Node 5, Type 0, BuildingBlock: TATPOV_clean_sbu_0, # of connection points: 4
#     Node 6, Type 0, BuildingBlock: TATPOV_clean_sbu_0, # of connection points: 4
#     Node 7, Type 0, BuildingBlock: TATPOV_clean_sbu_0, # of connection points: 4
#     Node 8, Type 0, BuildingBlock: TATPOV_clean_sbu_0, # of connection points: 4
#     Node 9, Type 0, BuildingBlock: TATPOV_clean_sbu_0, # of connection points: 4
#     Node 10, Type 0, BuildingBlock: TATPOV_clean_sbu_0, # of connection points: 4
#     Node 11, Type 0, BuildingBlock: TATPOV_clean_sbu_0, # of connection points: 4
#     Node 12, Type 0, BuildingBlock: TATPOV_clean_sbu_0, # of connection points: 4
#     Node 13, Type 0, BuildingBlock: TATPOV_clean_sbu_0, # of connection points: 4
#     Node 14, Type 0, BuildingBlock: TATPOV_clean_sbu_0, # of connection points: 4
#     Node 15, Type 0, BuildingBlock: TATPOV_clean_sbu_0, # of connection points: 4
#     Node 16, Type 0, BuildingBlock: TATPOV_clean_sbu_0, # of connection points: 4
#     Node 17, Type 0, BuildingBlock: TATPOV_clean_sbu_0, # of connection points: 4
#     Node 18, Type 0, BuildingBlock: TATPOV_clean_sbu_0, # of connection points: 4
#     Node 19, Type 0, BuildingBlock: TATPOV_clean_sbu_0, # of connection points: 4
#     Node 20, Type 0, BuildingBlock: TATPOV_clean_sbu_0, # of connection points: 4
#     Node 21, Type 0, BuildingBlock: TATPOV_clean_sbu_0, # of connection points: 4
#     Node 22, Type 0, BuildingBlock: TATPOV_clean_sbu_0, # of connection points: 4
#     Node 23, Type 0, BuildingBlock: TATPOV_clean_sbu_0, # of connection points: 4
#     Node 24, Type 1, BuildingBlock: HISSIN_clean_sbu_0, # of connection points: 6
#     Node 25, Type 1, BuildingBlock: HISSIN_clean_sbu_0, # of connection points: 6
#     Node 26, Type 1, BuildingBlock: HISSIN_clean_sbu_0, # of connection points: 6
#     Node 27, Type 1, BuildingBlock: HISSIN_clean_sbu_0, # of connection points: 6
#     Node 28, Type 1, BuildingBlock: HISSIN_clean_sbu_0, # of connection points: 6
#     Node 29, Type 1, BuildingBlock: HISSIN_clean_sbu_0, # of connection points: 6
#     Node 30, Type 1, BuildingBlock: HISSIN_clean_sbu_0, # of connection points: 6
#     Node 31, Type 1, BuildingBlock: HISSIN_clean_sbu_0, # of connection points: 6
#     Node 32, Type 1, BuildingBlock: HISSIN_clean_sbu_0, # of connection points: 6
#     Node 33, Type 1, BuildingBlock: HISSIN_clean_sbu_0, # of connection points: 6
#     Node 34, Type 1, BuildingBlock: HISSIN_clean_sbu_0, # of connection points: 6
#     Node 35, Type 1, BuildingBlock: HISSIN_clean_sbu_0, # of connection points: 6
#     Node 36, Type 1, BuildingBlock: HISSIN_clean_sbu_0, # of connection points: 6
#     Node 37, Type 1, BuildingBlock: HISSIN_clean_sbu_0, # of connection points: 6
#     Node 38, Type 1, BuildingBlock: HISSIN_clean_sbu_0, # of connection points: 6
#     Node 39, Type 1, BuildingBlock: HISSIN_clean_sbu_0, # of connection points: 6
#     Edge 40, Type (0, 1), BuildingBlock: AJUNOK_clean_linker_0, # of connection points: 2
#     Edge 41, Type (0, 1), BuildingBlock: AJUNOK_clean_linker_0, # of connection points: 2
#     Edge 42, Type (0, 1), BuildingBlock: AJUNOK_clean_linker_0, # of connection points: 2
#     Edge 43, Type (0, 1), BuildingBlock: AJUNOK_clean_linker_0, # of connection points: 2
#     Edge 44, Type (0, 1), BuildingBlock: AJUNOK_clean_linker_0, # of connection points: 2
#     Edge 45, Type (0, 1), BuildingBlock: AJUNOK_clean_linker_0, # of connection points: 2
#     Edge 46, Type (0, 1), BuildingBlock: AJUNOK_clean_linker_0, # of connection points: 2
#     Edge 47, Type (0, 1), BuildingBlock: AJUNOK_clean_linker_0, # of connection points: 2
#     Edge 48, Type (0, 1), BuildingBlock: AJUNOK_clean_linker_0, # of connection points: 2
#     Edge 49, Type (0, 1), BuildingBlock: AJUNOK_clean_linker_0, # of connection points: 2
#     Edge 50, Type (0, 1), BuildingBlock: AJUNOK_clean_linker_0, # of connection points: 2
#     Edge 51, Type (0, 1), BuildingBlock: AJUNOK_clean_linker_0, # of connection points: 2
#     Edge 52, Type (0, 1), BuildingBlock: AJUNOK_clean_linker_0, # of connection points: 2
#     Edge 53, Type (0, 1), BuildingBlock: AJUNOK_clean_linker_0, # of connection points: 2
#     Edge 54, Type (0, 1), BuildingBlock: AJUNOK_clean_linker_0, # of connection points: 2
#     Edge 55, Type (0, 1), BuildingBlock: AJUNOK_clean_linker_0, # of connection points: 2
#     Edge 56, Type (0, 1), BuildingBlock: AJUNOK_clean_linker_0, # of connection points: 2
#     Edge 57, Type (0, 1), BuildingBlock: AJUNOK_clean_linker_0, # of connection points: 2
#     Edge 58, Type (0, 1), BuildingBlock: AJUNOK_clean_linker_0, # of connection points: 2
#     Edge 59, Type (0, 1), BuildingBlock: AJUNOK_clean_linker_0, # of connection points: 2
#     Edge 60, Type (0, 1), BuildingBlock: AJUNOK_clean_linker_0, # of connection points: 2
#     Edge 61, Type (0, 1), BuildingBlock: AJUNOK_clean_linker_0, # of connection points: 2
#     Edge 62, Type (0, 1), BuildingBlock: AJUNOK_clean_linker_0, # of connection points: 2
#     Edge 63, Type (0, 1), BuildingBlock: AJUNOK_clean_linker_0, # of connection points: 2
#     Edge 64, Type (0, 1), BuildingBlock: AJUNOK_clean_linker_0, # of connection points: 2
#     Edge 65, Type (0, 1), BuildingBlock: AJUNOK_clean_linker_0, # of connection points: 2
#     Edge 66, Type (0, 1), BuildingBlock: AJUNOK_clean_linker_0, # of connection points: 2
#     Edge 67, Type (0, 1), BuildingBlock: AJUNOK_clean_linker_0, # of connection points: 2
#     Edge 68, Type (0, 1), BuildingBlock: AJUNOK_clean_linker_0, # of connection points: 2
#     Edge 69, Type (0, 1), BuildingBlock: AJUNOK_clean_linker_0, # of connection points: 2
#     Edge 70, Type (0, 1), BuildingBlock: AJUNOK_clean_linker_0, # of connection points: 2
#     Edge 71, Type (0, 1), BuildingBlock: AJUNOK_clean_linker_0, # of connection points: 2
#     Edge 72, Type (0, 1), BuildingBlock: AJUNOK_clean_linker_0, # of connection points: 2
#     Edge 73, Type (0, 1), BuildingBlock: AJUNOK_clean_linker_0, # of connection points: 2
#     Edge 74, Type (0, 1), BuildingBlock: AJUNOK_clean_linker_0, # of connection points: 2
#     Edge 75, Type (0, 1), BuildingBlock: AJUNOK_clean_linker_0, # of connection points: 2
#     Edge 76, Type (0, 1), BuildingBlock: AJUNOK_clean_linker_0, # of connection points: 2
#     Edge 77, Type (0, 1), BuildingBlock: AJUNOK_clean_linker_0, # of connection points: 2
#     Edge 78, Type (0, 1), BuildingBlock: AJUNOK_clean_linker_0, # of connection points: 2
#     Edge 79, Type (0, 1), BuildingBlock: AJUNOK_clean_linker_0, # of connection points: 2
#     Edge 80, Type (0, 1), BuildingBlock: AJUNOK_clean_linker_0, # of connection points: 2
#     Edge 81, Type (0, 1), BuildingBlock: AJUNOK_clean_linker_0, # of connection points: 2
#     Edge 82, Type (0, 1), BuildingBlock: AJUNOK_clean_linker_0, # of connection points: 2
#     Edge 83, Type (0, 1), BuildingBlock: AJUNOK_clean_linker_0, # of connection points: 2
#     Edge 84, Type (0, 1), BuildingBlock: AJUNOK_clean_linker_0, # of connection points: 2
#     Edge 85, Type (0, 1), BuildingBlock: AJUNOK_clean_linker_0, # of connection points: 2
#     Edge 86, Type (0, 1), BuildingBlock: AJUNOK_clean_linker_0, # of connection points: 2
#     Edge 87, Type (0, 1), BuildingBlock: AJUNOK_clean_linker_0, # of connection points: 2
#     Edge 88, Type (0, 1), BuildingBlock: AJUNOK_clean_linker_0, # of connection points: 2
#     Edge 89, Type (0, 1), BuildingBlock: AJUNOK_clean_linker_0, # of connection points: 2
#     Edge 90, Type (0, 1), BuildingBlock: AJUNOK_clean_linker_0, # of connection points: 2
#     Edge 91, Type (0, 1), BuildingBlock: AJUNOK_clean_linker_0, # of connection points: 2
#     Edge 92, Type (0, 1), BuildingBlock: AJUNOK_clean_linker_0, # of connection points: 2
#     Edge 93, Type (0, 1), BuildingBlock: AJUNOK_clean_linker_0, # of connection points: 2
#     Edge 94, Type (0, 1), BuildingBlock: AJUNOK_clean_linker_0, # of connection points: 2
#     Edge 95, Type (0, 1), BuildingBlock: AJUNOK_clean_linker_0, # of connection points: 2
#     Edge 96, Type (0, 1), BuildingBlock: AJUNOK_clean_linker_0, # of connection points: 2
#     Edge 97, Type (0, 1), BuildingBlock: AJUNOK_clean_linker_0, # of connection points: 2
#     Edge 98, Type (0, 1), BuildingBlock: AJUNOK_clean_linker_0, # of connection points: 2
#     Edge 99, Type (0, 1), BuildingBlock: AJUNOK_clean_linker_0, # of connection points: 2
#     Edge 100, Type (0, 1), BuildingBlock: AJUNOK_clean_linker_0, # of connection points: 2
#     Edge 101, Type (0, 1), BuildingBlock: AJUNOK_clean_linker_0, # of connection points: 2
#     Edge 102, Type (0, 1), BuildingBlock: AJUNOK_clean_linker_0, # of connection points: 2
#     Edge 103, Type (0, 1), BuildingBlock: AJUNOK_clean_linker_0, # of connection points: 2
#     Edge 104, Type (0, 1), BuildingBlock: AJUNOK_clean_linker_0, # of connection points: 2
#     Edge 105, Type (0, 1), BuildingBlock: AJUNOK_clean_linker_0, # of connection points: 2
#     Edge 106, Type (0, 1), BuildingBlock: AJUNOK_clean_linker_0, # of connection points: 2
#     Edge 107, Type (0, 1), BuildingBlock: AJUNOK_clean_linker_0, # of connection points: 2
#     Edge 108, Type (0, 1), BuildingBlock: AJUNOK_clean_linker_0, # of connection points: 2
#     Edge 109, Type (0, 1), BuildingBlock: AJUNOK_clean_linker_0, # of connection points: 2
#     Edge 110, Type (0, 1), BuildingBlock: AJUNOK_clean_linker_0, # of connection points: 2
#     Edge 111, Type (0, 1), BuildingBlock: AJUNOK_clean_linker_0, # of connection points: 2
#     Edge 112, Type (0, 1), BuildingBlock: AJUNOK_clean_linker_0, # of connection points: 2
#     Edge 113, Type (0, 1), BuildingBlock: AJUNOK_clean_linker_0, # of connection points: 2
#     Edge 114, Type (0, 1), BuildingBlock: AJUNOK_clean_linker_0, # of connection points: 2
#     Edge 115, Type (0, 1), BuildingBlock: AJUNOK_clean_linker_0, # of connection points: 2
#     Edge 116, Type (0, 1), BuildingBlock: AJUNOK_clean_linker_0, # of connection points: 2
#     Edge 117, Type (0, 1), BuildingBlock: AJUNOK_clean_linker_0, # of connection points: 2
#     Edge 118, Type (0, 1), BuildingBlock: AJUNOK_clean_linker_0, # of connection points: 2
#     Edge 119, Type (0, 1), BuildingBlock: AJUNOK_clean_linker_0, # of connection points: 2
#     Edge 120, Type (0, 1), BuildingBlock: AJUNOK_clean_linker_0, # of connection points: 2
#     Edge 121, Type (0, 1), BuildingBlock: AJUNOK_clean_linker_0, # of connection points: 2
#     Edge 122, Type (0, 1), BuildingBlock: AJUNOK_clean_linker_0, # of connection points: 2
#     Edge 123, Type (0, 1), BuildingBlock: AJUNOK_clean_linker_0, # of connection points: 2
#     Edge 124, Type (0, 1), BuildingBlock: AJUNOK_clean_linker_0, # of connection points: 2
#     Edge 125, Type (0, 1), BuildingBlock: AJUNOK_clean_linker_0, # of connection points: 2
#     Edge 126, Type (0, 1), BuildingBlock: AJUNOK_clean_linker_0, # of connection points: 2
#     Edge 127, Type (0, 1), BuildingBlock: AJUNOK_clean_linker_0, # of connection points: 2
#     Edge 128, Type (0, 1), BuildingBlock: AJUNOK_clean_linker_0, # of connection points: 2
#     Edge 129, Type (0, 1), BuildingBlock: AJUNOK_clean_linker_0, # of connection points: 2
#     Edge 130, Type (0, 1), BuildingBlock: AJUNOK_clean_linker_0, # of connection points: 2
#     Edge 131, Type (0, 1), BuildingBlock: AJUNOK_clean_linker_0, # of connection points: 2
#     Edge 132, Type (0, 1), BuildingBlock: AJUNOK_clean_linker_0, # of connection points: 2
#     Edge 133, Type (0, 1), BuildingBlock: AJUNOK_clean_linker_0, # of connection points: 2
#     Edge 134, Type (0, 1), BuildingBlock: AJUNOK_clean_linker_0, # of connection points: 2
#     Edge 135, Type (0, 1), BuildingBlock: AJUNOK_clean_linker_0, # of connection points: 2
# Relax obj value: 0.263
# Max RMSD: 0.334
# Mean RMSD: 0.178
data_MOF--net-gar--node1-TATPOV_clean_sbu_0--node2-HISSIN_clean_sbu_0--edge1-AJUNOK_clean_linker_0
_symmetry_space_group_name_H-M    P1
_symmetry_Int_Tables_number       1
_symmetry_cell_setting            triclinic
loop_
_symmetry_equiv_pos_as_xyz
'x, y, z'
_cell_length_a     45.593302
_cell_length_b     45.481318
_cell_length_c     43.557892
_cell_angle_alpha  102.65095
_cell_angle_beta   93.526379
_cell_angle_gamma 103.49769
loop_
_atom_site_label
_atom_site_type_symbol
_atom_site_fract_x
_atom_site_fract_y
_atom_site_fract_z
_atom_type_partial_charge
Zn0 Zn 0.10228 0.3489 0.45076 0.0
Zn1 Zn 0.14826 0.34838 0.42477 0.0
O2 O 0.15378 0.39349 0.44767 0.0
O3 O 0.12462 0.38601 0.48473 0.0
O4 O 0.18506 0.34879 0.4037 0.0
O5 O 0.09825 0.30673 0.45696 0.0
O6 O 0.14709 0.31672 0.45204 0.0
C7 C 0.14383 0.40416 0.47324 0.0
C8 C 0.09257 0.34687 0.38615 0.0
O9 O 0.11667 0.33757 0.38617 0.0
O10 O 0.0824 0.35587 0.41193 0.0
C11 C 0.18317 0.32654 0.37976 0.0
O12 O 0.15892 0.30298 0.37332 0.0
C13 C 0.12358 0.30039 0.46013 0.0
Zn14 Zn 1.00943 0.73635 0.69678 0.0
Zn15 Zn 0.02238 0.77387 0.66716 0.0
O16 O 0.98269 0.77691 0.68708 0.0
O17 O 0.96563 0.7295 0.69295 0.0
O18 O 0.03222 0.8074 0.64313 0.0
O19 O 0.03608 0.76278 0.73592 0.0
O20 O 0.05783 0.78725 0.70203 0.0
C21 C 0.96229 0.75651 0.69514 0.0
C22 C 0.02907 0.7084 0.64409 0.0
O23 O 0.02589 0.73323 0.63678 0.0
O24 O 0.0247 0.70458 0.67136 0.0
C25 C 0.03156 0.80242 0.61319 0.0
O26 O 0.02141 0.7738 0.5958 0.0
C27 C 0.05849 0.78174 0.72945 0.0
Zn28 Zn 0.59141 0.83834 0.93143 0.0
Zn29 Zn 0.63977 0.83862 0.91834 0.0
O30 O 0.64557 0.88484 0.93972 0.0
O31 O 0.59752 0.88223 0.92752 0.0
O32 O 0.67711 0.83547 0.89868 0.0
O33 O 0.59959 0.8292 0.97293 0.0
O34 O 0.63341 0.80891 0.94867 0.0
C35 C 0.62449 0.8983 0.93629 0.0
C36 C 0.58269 0.80877 0.87212 0.0
O37 O 0.60996 0.82497 0.87777 0.0
O38 O 0.5685 0.80393 0.89525 0.0
C39 C 0.67975 0.84585 0.87385 0.0
O40 O 0.66099 0.86175 0.86623 0.0
C41 C 0.61668 0.81087 0.97106 0.0
Zn42 Zn 0.49679 0.22131 0.16727 0.0
Zn43 Zn 0.51736 0.27156 0.15719 0.0
O44 O 0.47707 0.27217 0.17745 0.0
O45 O 0.46134 0.22578 0.18662 0.0
O46 O 0.52772 0.30871 0.13765 0.0
O47 O 0.53518 0.22944 0.19633 0.0
O48 O 0.55044 0.27811 0.19294 0.0
C49 C 0.4583 0.25288 0.18881 0.0
C50 C 0.51121 0.2067 0.1111 0.0
O51 O 0.52362 0.23564 0.12161 0.0
O52 O 0.49101 0.19337 0.12547 0.0
C53 C 0.55059 0.31064 0.12216 0.0
O54 O 0.5665 0.2899 0.12152 0.0
C55 C 0.55395 0.25591 0.20501 0.0
Zn56 Zn 0.1951 0.81655 0.10264 0.0
Zn57 Zn 0.14428 0.81142 0.13566 0.0
O58 O 0.13618 0.83468 0.10449 0.0
O59 O 0.17498 0.83784 0.07631 0.0
O60 O 0.10814 0.80655 0.15817 0.0
O61 O 0.1833 0.76943 0.08984 0.0
O62 O 0.1426 0.76807 0.11476 0.0
C63 C 0.1494 0.84261 0.08175 0.0
C64 C 0.20659 0.84193 0.1702 0.0
O65 O 0.17834 0.83124 0.16988 0.0
O66 O 0.2185 0.84032 0.14457 0.0
C67 C 0.10449 0.82947 0.17863 0.0
O68 O 0.12481 0.85633 0.18401 0.0
C69 C 0.15893 0.75427 0.09737 0.0
Zn70 Zn 0.48004 0.80318 0.47158 0.0
Zn71 Zn 0.52394 0.80624 0.42991 0.0
O72 O 0.5327 0.84933 0.45611 0.0
O73 O 0.49704 0.84973 0.48812 0.0
O74 O 0.55859 0.80751 0.40553 0.0
O75 O 0.49843 0.77451 0.49085 0.0
O76 O 0.52943 0.77626 0.45428 0.0
C77 C 0.52043 0.86366 0.47787 0.0
C78 C 0.46018 0.7894 0.40333 0.0
O79 O 0.48781 0.79591 0.39879 0.0
O80 O 0.45237 0.78857 0.43064 0.0
C81 C 0.5687 0.83007 0.39327 0.0
O82 O 0.55397 0.85177 0.39387 0.0
C83 C 0.52025 0.76639 0.47784 0.0
Zn84 Zn 0.6981 0.31447 0.61166 0.0
Zn85 Zn 0.64194 0.305 0.63641 0.0
O86 O 0.63726 0.32871 0.60504 0.0
O87 O 0.68053 0.33839 0.58431 0.0
O88 O 0.60359 0.29979 0.65476 0.0
O89 O 0.68683 0.26688 0.59659 0.0
O90 O 0.64269 0.26281 0.61597 0.0
C91 C 0.65327 0.33992 0.58565 0.0
C92 C 0.70005 0.33549 0.67985 0.0
O93 O 0.67167 0.32439 0.67429 0.0
O94 O 0.71631 0.33506 0.65723 0.0
C95 C 0.59967 0.32364 0.67364 0.0
O96 O 0.62028 0.35023 0.67826 0.0
C97 C 0.66149 0.2507 0.60103 0.0
Zn98 Zn 0.97673 0.30262 0.96541 0.0
Zn99 Zn 0.02631 0.30565 0.9299 0.0
O100 O 0.03082 0.34809 0.95367 0.0
O101 O 0.99306 0.34992 0.98237 0.0
O102 O 0.06358 0.30931 0.91032 0.0
O103 O 0.99362 0.2744 0.98809 0.0
O104 O 0.02878 0.27686 0.9558 0.0
C105 C 1.01724 0.36343 0.973 0.0
C106 C 0.96662 0.28445 0.89452 0.0
O107 O 0.99494 0.29226 0.89438 0.0
O108 O 0.95465 0.28596 0.92021 0.0
C109 C 0.06849 0.32825 0.89272 0.0
O110 O 0.04797 0.34318 0.88752 0.0
C111 C 1.01675 0.26654 0.97791 0.0
Zn112 Zn 0.46795 1.00525 0.35187 0.0
Zn113 Zn 0.44107 0.04691 0.34059 0.0
O114 O 0.46802 0.07321 0.38021 0.0
O115 O 0.4971 0.0409 0.38141 0.0
O116 O 0.41931 0.07447 0.3262 0.0
O117 O 0.47816 0.99493 0.30789 0.0
O118 O 0.46395 0.03715 0.30367 0.0
C119 C 0.49201 0.06737 0.39076 0.0
C120 C 0.40573 0.98757 0.35571 0.0
O121 O 0.40685 1.0111 0.34431 0.0
O122 O 0.42998 0.98132 0.36469 0.0
C123 C 0.39384 0.07643 0.33517 0.0
O124 O 0.38371 0.06308 0.35764 0.0
C125 C 0.47588 1.01513 0.29272 0.0
Zn126 Zn 0.27338 0.26185 0.52485 0.0
Zn127 Zn 0.30965 0.22549 0.52081 0.0
O128 O 0.31754 0.24609 0.48307 0.0
O129 O 0.28922 0.27932 0.48732 0.0
O130 O 0.34071 0.20162 0.51821 0.0
O131 O 0.29051 0.28233 0.57136 0.0
O132 O 0.32018 0.25052 0.5679 0.0
C133 C 0.30811 0.26678 0.47274 0.0
C134 C 0.24272 0.19508 0.51454 0.0
O135 O 0.26965 0.19178 0.51453 0.0
O136 O 0.23839 0.22213 0.51756 0.0
C137 C 0.33881 0.18191 0.53496 0.0
O138 O 0.31574 0.17716 0.55149 0.0
C139 C 0.31 0.27179 0.58461 0.0
Zn140 Zn 0.17788 0.07554 0.80107 0.0
Zn141 Zn 0.21434 0.03868 0.79413 0.0
O142 O 0.18863 0.03982 0.84145 0.0
O143 O 0.1585 0.07121 0.84108 0.0
O144 O 0.24202 0.99609 0.78815 0.0
O145 O 0.15359 0.06272 0.75777 0.0
O146 O 0.18565 0.034 0.74492 0.0
C147 C 0.16872 0.05363 0.85535 0.0
C148 C 0.23793 0.1156 0.80129 0.0
O149 O 0.24556 0.08902 0.79807 0.0
O150 O 0.21042 0.11503 0.80446 0.0
C151 C 0.24043 0.97057 0.79915 0.0
O152 O 0.22011 0.96589 0.81883 0.0
C153 C 0.16389 0.04601 0.73599 0.0
Zn154 Zn 0.34875 0.95412 1.01531 0.0
Zn155 Zn 0.31803 0.98735 1.01331 0.0
O156 O 0.31003 0.95328 0.96885 0.0
O157 O 0.32156 0.91571 0.98718 0.0
O158 O 0.28129 1.01154 1.01697 0.0
O159 O 0.35259 0.95895 0.06154 0.0
O160 O 0.30818 0.96738 0.05143 0.0
C161 C 0.31091 0.92463 0.96444 0.0
C162 C 0.39027 1.00347 1.01128 0.0
O163 O 0.36734 1.01417 0.0206 0.0
O164 O 0.38589 0.97462 0.99989 0.0
C165 C 0.25384 0.99539 1.01714 0.0
O166 O 0.24953 0.96507 1.01238 0.0
C167 C 0.3272 0.96126 0.07011 0.0
Zn168 Zn 0.39807 0.35632 0.05777 0.0
Zn169 Zn 0.36343 0.3938 0.06228 0.0
O170 O 0.35358 0.36887 1.01476 0.0
O171 O 0.38082 0.3348 1.01176 0.0
O172 O 0.33247 0.4179 0.0639 0.0
O173 O 0.38313 0.34113 0.09646 0.0
O174 O 0.35466 0.37415 0.10071 0.0
C175 C 0.36281 0.34674 0.99821 0.0
C176 C 0.43074 0.42187 0.06766 0.0
O177 O 0.40437 0.42659 0.06914 0.0
O178 O 0.43393 0.39434 0.06337 0.0
C179 C 0.33586 0.43949 0.0494 0.0
O180 O 0.3605 0.44642 0.03556 0.0
C181 C 0.36445 0.3538 0.11129 0.0
Zn182 Zn 0.82733 0.1666 0.05992 0.0
Zn183 Zn 0.85737 0.13567 0.06602 0.0
O184 O 0.86215 0.15154 0.02509 0.0
O185 O 0.86065 0.19842 0.04782 0.0
O186 O 0.8966 0.11501 0.06623 0.0
O187 O 0.81672 0.17595 0.10276 0.0
O188 O 0.8636 0.17263 0.10913 0.0
C189 C 0.86666 0.17998 0.02443 0.0
C190 C 0.78784 0.11294 0.04153 0.0
O191 O 0.80909 0.10834 0.0598 0.0
O192 O 0.79451 0.1358 0.02893 0.0
C193 C 0.91421 0.11428 0.04393 0.0
O194 O 0.90659 0.12342 0.01872 0.0
C195 C 0.84157 0.18323 0.12025 0.0
Zn196 Zn 0.20098 0.59927 0.22624 0.0
Zn197 Zn 0.23309 0.56731 0.23782 0.0
O198 O 0.21594 0.57848 0.27892 0.0
O199 O 0.20867 0.62247 0.27152 0.0
O200 O 0.26222 0.54448 0.24782 0.0
O201 O 0.16634 0.56079 0.21226 0.0
O202 O 0.20361 0.53939 0.2009 0.0
C203 C 0.21198 0.60533 0.28999 0.0
C204 C 0.25503 0.62257 0.21064 0.0
O205 O 0.25974 0.60586 0.22928 0.0
O206 O 0.22848 0.61741 0.19673 0.0
C207 C 0.28079 0.5584 0.27244 0.0
O208 O 0.27944 0.58601 0.28847 0.0
C209 C 0.17582 0.53915 0.1959 0.0
Zn210 Zn 0.89669 0.85693 0.55859 0.0
Zn211 Zn 0.86126 0.89426 0.5625 0.0
O212 O 0.85069 0.86728 0.51597 0.0
O213 O 0.88055 0.83567 0.51165 0.0
O214 O 0.83067 0.91859 0.5635 0.0
O215 O 0.87987 0.84203 0.59722 0.0
O216 O 0.85328 0.87682 0.60219 0.0
C217 C 0.86077 0.84619 0.49883 0.0
C218 C 0.92823 0.92315 0.56807 0.0
O219 O 0.90146 0.92697 0.56748 0.0
O220 O 0.93208 0.89602 0.56582 0.0
C221 C 0.82706 0.92963 0.53969 0.0
O222 O 0.84476 0.92612 0.51719 0.0
C223 C 0.86222 0.85594 0.61257 0.0
Zn224 Zn 0.99893 0.0475 0.28299 0.0
Zn225 Zn 0.96194 0.08273 0.29121 0.0
O226 O 0.98969 0.08638 0.34103 0.0
O227 O 0.02198 0.05858 0.32653 0.0
O228 O 0.93439 0.12512 0.29279 0.0
O229 O 0.02104 0.05392 0.24513 0.0
O230 O 0.9875 0.08155 0.2439 0.0
C231 C 1.0113 0.07375 0.34912 0.0
C232 C 0.93919 1.00609 0.28275 0.0
O233 O 0.93106 0.03245 0.28724 0.0
O234 O 0.96643 1.00721 0.27767 0.0
C235 C 0.94003 0.15541 0.30694 0.0
O236 O 0.96522 0.16635 0.32656 0.0
C237 C 1.00892 0.06997 0.23049 0.0
Zn238 Zn 0.32816 0.66975 0.56375 0.0
Zn239 Zn 0.36039 0.6388 0.56358 0.0
O240 O 0.37079 0.66375 0.5294 0.0
O241 O 0.32428 0.66572 0.51738 0.0
O242 O 0.39702 0.61479 0.55859 0.0
O243 O 0.35529 0.70811 0.59199 0.0
O244 O 0.36777 0.67048 0.60933 0.0
C245 C 0.35099 0.66833 0.51046 0.0
C246 C 0.28797 0.61993 0.56351 0.0
O247 O 0.31136 0.61131 0.55257 0.0
O248 O 0.29192 0.64754 0.57948 0.0
C249 C 0.42308 0.62961 0.5525 0.0
O250 O 0.42622 0.65878 0.55134 0.0
C251 C 0.3667 0.6991 0.61424 0.0
Zn252 Zn 0.49865 0.54569 0.78409 0.0
Zn253 Zn 0.46358 0.5826 0.79091 0.0
O254 O 0.49189 0.58676 0.84083 0.0
O255 O 0.52257 0.5569 0.82699 0.0
O256 O 0.43549 0.62487 0.79446 0.0
O257 O 0.51948 0.55019 0.7454 0.0
O258 O 0.48977 0.58166 0.74392 0.0
C259 C 0.5132 0.57387 0.84926 0.0
C260 C 0.43913 0.50537 0.78239 0.0
O261 O 0.43183 0.53218 0.78623 0.0
O262 O 0.46659 0.50581 0.77925 0.0
C263 C 0.44118 0.65325 0.78865 0.0
O264 O 0.46775 0.6624 0.77893 0.0
C265 C 0.50974 0.56763 0.7306 0.0
Zn266 Zn 0.71387 0.10766 0.71236 0.0
Zn267 Zn 0.73352 0.06595 0.72758 0.0
O268 O 0.70776 0.07726 0.76187 0.0
O269 O 0.70679 0.12413 0.75701 0.0
O270 O 0.75239 0.03712 0.74363 0.0
O271 O 0.68108 0.07406 0.68516 0.0
O272 O 0.7092 0.04089 0.68577 0.0
C273 C 0.7019 0.10332 0.77246 0.0
C274 C 0.77404 0.12355 0.7143 0.0
O275 O 0.76939 0.10228 0.72929 0.0
O276 O 0.75243 0.12569 0.69605 0.0
C277 C 0.76824 0.04872 0.77037 0.0
O278 O 0.77107 0.07807 0.78449 0.0
C279 C 0.68567 0.04748 0.67516 0.0
Zn280 Zn 0.77843 0.76345 0.02786 0.0
Zn281 Zn 0.81379 0.72608 0.02136 0.0
O282 O 0.82176 0.74802 0.98406 0.0
O283 O 0.79178 0.77978 0.98937 0.0
O284 O 0.84571 0.70264 0.01858 0.0
O285 O 0.79673 0.78448 0.07383 0.0
O286 O 0.82441 0.75068 0.06855 0.0
C287 C 0.81127 0.76855 0.97456 0.0
C288 C 0.7464 0.69731 0.01787 0.0
O289 O 0.77275 0.69266 1.01547 0.0
O290 O 0.74322 0.72484 0.02202 0.0
C291 C 0.8418 0.67678 0.02618 0.0
O292 O 0.81534 0.66391 0.03404 0.0
C293 C 0.81569 0.77262 0.08606 0.0
Zn294 Zn 0.99454 0.51128 0.84957 0.0
Zn295 Zn 0.94052 0.55557 0.85144 0.0
O296 O 0.96267 0.58134 0.89577 0.0
O297 O 0.98174 0.54553 0.87235 0.0
O298 O 0.90911 0.57555 0.84048 0.0
O299 O 0.99778 0.52415 0.80893 0.0
O300 O 0.96556 0.55513 0.81381 0.0
C301 C 0.98119 0.56497 0.89716 0.0
C302 C 0.92794 0.4838 0.84979 0.0
O303 O 0.92147 0.51001 0.8515 0.0
O304 O 0.95488 0.48048 0.84823 0.0
C305 C 0.88783 0.56189 0.81827 0.0
O306 O 0.88366 0.53214 0.80506 0.0
C307 C 0.98483 0.5429 0.79914 0.0
Zn308 Zn 0.85126 0.45729 0.51818 0.0
Zn309 Zn 0.82045 0.49095 0.51606 0.0
O310 O 0.81306 0.45824 0.47075 0.0
O311 O 0.82475 0.42011 0.48803 0.0
O312 O 0.78515 0.51692 0.52088 0.0
O313 O 0.85281 0.45837 0.56354 0.0
O314 O 0.809 0.46778 0.55195 0.0
C315 C 0.814 0.42956 0.46576 0.0
C316 C 0.89257 0.5082 0.51617 0.0
O317 O 0.86927 0.51831 0.52505 0.0
O318 O 0.88883 0.47942 0.50478 0.0
C319 C 0.7568 0.5029 0.51198 0.0
O320 O 0.7504 0.47392 0.49531 0.0
C321 C 0.82663 0.45959 0.57039 0.0
Zn322 Zn 0.67949 0.57516 0.30128 0.0
Zn323 Zn 0.71559 0.53902 0.29486 0.0
O324 O 0.6895 0.54026 0.34192 0.0
O325 O 0.65959 0.57167 0.34085 0.0
O326 O 0.74408 0.49748 0.29166 0.0
O327 O 0.65494 0.56177 0.25841 0.0
O328 O 0.68786 0.5344 0.24501 0.0
C329 C 0.66957 0.55423 0.35547 0.0
C330 C 0.73916 0.61579 0.30179 0.0
O331 O 0.74688 0.58931 0.29903 0.0
O332 O 0.71152 0.61506 0.3044 0.0
C333 C 0.73668 0.46703 0.29061 0.0
O334 O 0.70763 0.45481 0.29088 0.0
C335 C 0.66587 0.54622 0.23633 0.0
Eu336 Eu 0.10765 0.09324 0.05811 0.0
Eu337 Eu 0.06625 0.02893 0.02791 0.0
C338 C 0.11078 0.0591 0.98012 0.0
C339 C 0.1291 0.17463 0.06338 0.0
C340 C 0.11491 0.16423 0.0321 0.0
C341 C 0.10999 0.22067 0.06982 0.0
C342 C 0.09746 0.18103 0.02025 0.0
C343 C 0.12721 0.20326 0.08209 0.0
C344 C 0.09441 0.20901 0.03913 0.0
C345 C 0.13714 0.15128 0.07778 0.0
O346 O 0.11477 0.02071 0.03241 0.0
O347 O 0.14274 0.06647 0.06412 0.0
C348 C 0.14144 0.03867 0.04675 0.0
O349 O 0.09273 0.0792 0.10397 0.0
O350 O 0.04322 0.98682 0.99172 0.0
O351 O 0.03609 0.99007 0.04083 0.0
O352 O 0.05005 0.04453 0.07801 0.0
C353 C 0.06492 0.06285 0.10521 0.0
O354 O 0.05861 0.10014 0.05237 0.0
O355 O 0.03541 0.05711 1.01408 0.0
O356 O 0.08998 0.03466 0.98334 0.0
O357 O 0.11557 0.1381 0.09216 0.0
O358 O 0.14786 0.13086 0.05914 0.0
O359 O 0.11791 0.08437 1.00438 0.0
C360 C 0.05031 0.94707 1.01448 0.0
C361 C 0.0768 0.95504 0.03587 0.0
C362 C 0.05834 0.89604 0.99462 0.0
C363 C 0.09416 0.93422 0.03629 0.0
C364 C 0.04108 0.91758 0.99359 0.0
C365 C 0.08512 0.90466 1.01577 0.0
C366 C 0.0352 0.97156 1.01318 0.0
C367 C 0.03398 0.08323 0.03312 0.0
H368 H 0.11515 0.14178 1.01746 0.0
H369 H 0.1081 0.24256 0.08445 0.0
H370 H 0.0853 0.17144 0.99664 0.0
H371 H 0.13741 0.21111 0.10655 0.0
H372 H 0.08414 0.97745 0.05268 0.0
H373 H 0.05075 0.87275 0.97944 0.0
H374 H 0.11399 0.94081 0.05379 0.0
H375 H 0.02076 0.91131 0.97687 0.0
Eu376 Eu 0.3299 0.81551 0.26337 0.0
Eu377 Eu 0.2987 0.80152 0.32817 0.0
C378 C 0.2625 0.80779 0.27194 0.0
C379 C 0.33542 0.84839 0.192 0.0
C380 C 0.31458 0.86551 0.20299 0.0
C381 C 0.34294 0.87477 0.14964 0.0
C382 C 0.30775 0.88708 0.18714 0.0
C383 C 0.34945 0.85297 0.16521 0.0
C384 C 0.32219 0.89196 0.16062 0.0
C385 C 0.34332 0.82662 0.20916 0.0
O386 O 0.2941 0.75514 0.29284 0.0
O387 O 0.33311 0.76714 0.26239 0.0
C388 C 0.31212 0.74695 0.27162 0.0
O389 O 0.37023 0.82221 0.29797 0.0
O390 O 0.26782 0.7738 0.35357 0.0
O391 O 0.30155 0.81542 0.37956 0.0
O392 O 0.34459 0.79232 0.32927 0.0
C393 C 0.36961 0.8069 0.32015 0.0
O394 O 0.31885 0.85952 0.28879 0.0
O395 O 0.32447 0.85148 0.33849 0.0
O396 O 0.26464 0.81901 0.30231 0.0
O397 O 0.36122 0.83945 0.23562 0.0
O398 O 0.32067 0.80422 0.21197 0.0
O399 O 0.28135 0.79145 0.26228 0.0
C400 C 0.29863 0.77082 0.39755 0.0
C401 C 0.31488 0.75127 0.38049 0.0
C402 C 0.31866 0.76164 0.44633 0.0
C403 C 0.33265 0.73679 0.39617 0.0
C404 C 0.3009 0.77627 0.43058 0.0
C405 C 0.33458 0.74173 0.42917 0.0
C406 C 0.28361 0.78896 0.38091 0.0
C407 C 0.32409 0.87025 0.31965 0.0
H408 H 0.3039 0.86243 0.22399 0.0
H409 H 0.35428 0.87847 0.12913 0.0
H410 H 0.29179 0.9003 0.19587 0.0
H411 H 0.36569 0.84004 0.15663 0.0
H412 H 0.31402 0.74737 0.35498 0.0
H413 H 0.31924 0.76515 0.4718 0.0
H414 H 0.34452 0.72134 0.38252 0.0
H415 H 0.28913 0.79189 0.44412 0.0
Eu416 Eu 0.62327 0.05756 0.51787 0.0
Eu417 Eu 0.55123 0.0607 0.55727 0.0
C418 C 0.59714 0.03898 0.58582 0.0
C419 C 0.69653 0.03135 0.51368 0.0
C420 C 0.68625 1.00625 0.52746 0.0
C421 C 0.7444 0.01807 0.50829 0.0
C422 C 0.70542 0.98748 0.53235 0.0
C423 C 0.72548 0.03707 0.50393 0.0
C424 C 0.73458 0.99339 0.52275 0.0
C425 C 0.67771 0.05224 0.50974 0.0
O426 O 0.58454 0.10814 0.57142 0.0
O427 O 0.62721 0.10651 0.54319 0.0
C428 C 0.61122 0.12051 0.56294 0.0
O429 O 0.60272 0.07583 0.48082 0.0
O430 O 0.51966 0.07797 0.58787 0.0
O431 O 0.50338 0.04983 0.53981 0.0
O432 O 0.56723 0.07306 0.51359 0.0
C433 C 0.57657 0.08035 0.48788 0.0
O434 O 0.59117 1.00972 0.50473 0.0
O435 O 0.54819 1.01113 0.5323 0.0
O436 O 0.57155 0.04269 0.59517 0.0
O437 O 0.65484 0.04107 0.48727 0.0
O438 O 0.67088 0.0682 0.53592 0.0
O439 O 0.60198 0.0478 0.55975 0.0
C440 C 0.47651 0.08667 0.56166 0.0
C441 C 0.47277 0.0959 0.53329 0.0
C442 C 0.43834 0.11246 0.58185 0.0
C443 C 0.45173 0.11276 0.52892 0.0
C444 C 0.45935 0.09535 0.58606 0.0
C445 C 0.43419 0.121 0.55309 0.0
C446 C 0.49662 0.06647 0.56563 0.0
C447 C 0.5649 0.99669 0.51358 0.0
H448 H 0.66356 1.00123 0.53437 0.0
H449 H 0.76691 0.02291 0.50082 0.0
H450 H 0.69747 0.96829 0.54326 0.0
H451 H 0.73351 0.05633 0.49313 0.0
H452 H 0.48533 0.08951 0.51409 0.0
H453 H 0.42505 0.11868 0.60088 0.0
H454 H 0.44852 0.11844 0.50626 0.0
H455 H 0.46178 0.08837 0.60813 0.0
Eu456 Eu 0.30742 0.31964 0.7916 0.0
Eu457 Eu 0.36959 0.30118 0.791 0.0
C458 C 0.30744 0.24647 0.79479 0.0
C459 C 0.22991 0.33616 0.80281 0.0
C460 C 0.21173 0.30821 0.80697 0.0
C461 C 0.19681 0.36475 0.82989 0.0
C462 C 0.18594 0.30855 0.82225 0.0
C463 C 0.22238 0.36437 0.81429 0.0
C464 C 0.17833 0.33681 0.83363 0.0
C465 C 0.25725 0.33687 0.78734 0.0
O466 O 0.35852 0.29543 0.73815 0.0
O467 O 0.31264 0.30726 0.7397 0.0
C468 C 0.33405 0.29925 0.72371 0.0
O469 O 0.34074 0.36706 0.79287 0.0
O470 O 0.39725 0.26894 0.77568 0.0
O471 O 0.41556 0.31026 0.81377 0.0
O472 O 0.38463 0.35224 0.78515 0.0
C473 C 0.36961 0.37432 0.78819 0.0
O474 O 0.3172 0.32369 0.8442 0.0
O475 O 0.36442 0.31492 0.84301 0.0
O476 O 0.33678 0.25408 0.79191 0.0
O477 O 0.28216 0.35447 0.80444 0.0
O478 O 0.26064 0.31045 0.77091 0.0
O479 O 0.29198 0.26811 0.79599 0.0
C480 C 0.44818 0.29383 0.77882 0.0
C481 C 0.45256 0.31835 0.76353 0.0
C482 C 0.49373 0.28116 0.76109 0.0
C483 C 0.47759 0.32437 0.74717 0.0
C484 C 0.46875 0.27527 0.77766 0.0
C485 C 0.49821 0.30575 0.74585 0.0
C486 C 0.42123 0.28657 0.79439 0.0
C487 C 0.34231 0.32145 0.85886 0.0
H488 H 0.21739 0.28621 0.7985 0.0
H489 H 0.19158 0.38682 0.83917 0.0
H490 H 0.17181 0.28676 0.82499 0.0
H491 H 0.23647 0.38614 0.81142 0.0
H492 H 0.43642 0.3325 0.76391 0.0
H493 H 0.50952 0.26657 0.76009 0.0
H494 H 0.48055 0.34308 0.73503 0.0
H495 H 0.46525 0.25609 0.78917 0.0
Eu496 Eu 0.07538 0.08678 0.5603 0.0
Eu497 Eu 0.09869 0.02825 0.5248 0.0
C498 C 0.14056 0.09602 0.52909 0.0
C499 C 0.07478 0.16532 0.56568 0.0
C500 C 0.08543 0.15687 0.53637 0.0
C501 C 0.08869 0.21928 0.56265 0.0
C502 C 0.09779 0.17903 0.52045 0.0
C503 C 0.07654 0.19672 0.57902 0.0
C504 C 0.09951 0.21041 0.53325 0.0
C505 C 0.06495 0.14058 0.58214 0.0
O506 O 0.11937 0.037 0.57741 0.0
O507 O 0.09343 0.07037 0.60321 0.0
C508 C 0.11224 0.05215 0.60442 0.0
O509 O 0.03695 0.04933 0.56757 0.0
O510 O 0.13118 0.99945 0.52034 0.0
O511 O 0.08724 0.98212 0.49235 0.0
O512 O 0.05292 1.00837 0.53934 0.0
C513 C 0.03321 0.01951 0.55598 0.0
O514 O 0.05595 0.07963 0.50723 0.0
O515 O 0.07862 0.04296 0.48164 0.0
O516 O 0.13537 0.06647 0.51487 0.0
O517 O 0.0439 0.11671 0.56562 0.0
O518 O 0.0874 0.13199 0.59444 0.0
O519 O 0.12236 0.10634 0.54851 0.0
C520 C 0.10297 0.94941 0.52055 0.0
C521 C 0.09094 0.95555 0.54946 0.0
C522 C 0.09507 0.89528 0.52278 0.0
C523 C 0.08041 0.93185 0.56453 0.0
C524 C 0.1051 0.91914 0.50723 0.0
C525 C 0.08251 0.90144 0.55161 0.0
C526 C 0.11073 0.97481 0.50426 0.0
C527 C 0.06152 0.06282 0.48024 0.0
H528 H 0.0851 0.13304 0.52596 0.0
H529 H 0.08914 0.2434 0.57263 0.0
H530 H 0.10623 0.17153 0.49809 0.0
H531 H 0.06869 0.20369 0.6018 0.0
H532 H 0.08885 0.97866 0.56009 0.0
H533 H 0.09699 0.87203 0.51222 0.0
H534 H 0.06986 0.93734 0.58593 0.0
H535 H 0.11412 0.9139 0.48481 0.0
Eu536 Eu 0.37082 0.83474 0.78978 0.0
Eu537 Eu 0.30967 0.7875 0.78977 0.0
C538 C 0.33207 0.84236 0.85085 0.0
C539 C 0.45336 0.86165 0.78526 0.0
C540 C 0.48083 0.87993 0.80263 0.0
C541 C 0.47703 0.81946 0.76732 0.0
C542 C 0.50587 0.86736 0.80375 0.0
C543 C 0.452 0.83202 0.76621 0.0
C544 C 0.50344 0.83633 0.7877 0.0
C545 C 0.42519 0.86996 0.79295 0.0
O546 O 0.2943 0.83372 0.78501 0.0
O547 O 0.33916 0.86831 0.78439 0.0
C548 C 0.3091 0.86293 0.78453 0.0
O549 O 0.36003 0.81034 0.7381 0.0
O550 O 0.27372 0.75702 0.80734 0.0
O551 O 0.26907 0.76107 0.75838 0.0
O552 O 0.33052 0.76667 0.7474 0.0
C553 C 0.3481 0.78032 0.72939 0.0
O554 O 0.38561 0.78776 0.79365 0.0
O555 O 0.34115 0.75515 0.79929 0.0
O556 O 0.31742 0.81299 0.84104 0.0
O557 O 0.40433 0.86485 0.76909 0.0
O558 O 0.41436 0.85996 0.81694 0.0
O559 O 0.35225 0.85521 0.83434 0.0
C560 C 0.22557 0.75636 0.78336 0.0
C561 C 0.20305 0.7416 0.75778 0.0
C562 C 0.19398 0.78982 0.80567 0.0
C563 C 0.17668 0.75165 0.75552 0.0
C564 C 0.22078 0.78018 0.80766 0.0
C565 C 0.17243 0.77625 0.77904 0.0
C566 C 0.2556 0.75072 0.78096 0.0
C567 C 0.3708 0.75941 0.79687 0.0
H568 H 0.48207 0.90269 0.81768 0.0
H569 H 0.47476 0.79552 0.75476 0.0
H570 H 0.52595 0.88071 0.81988 0.0
H571 H 0.43078 0.81747 0.75287 0.0
H572 H 0.20664 0.72353 0.73867 0.0
H573 H 0.19065 0.80861 0.82411 0.0
H574 H 0.1599 0.7408 0.73498 0.0
H575 H 0.23822 0.79226 0.82733 0.0
Eu576 Eu 0.59141 0.05308 0.06304 0.0
Eu577 Eu 0.58797 0.08021 1.00279 0.0
C578 C 0.57653 0.11731 0.06667 0.0
C579 C 0.57938 0.0328 0.14006 0.0
C580 C 0.55856 0.05114 0.14602 0.0
C581 C 0.5627 1.00718 0.18088 0.0
C582 C 0.5403 0.04799 0.17004 0.0
C583 C 0.58113 1.01055 0.15712 0.0
C584 C 0.54275 0.02634 0.18783 0.0
C585 C 0.59808 0.03551 0.11483 0.0
O586 O 0.63787 0.07931 1.00847 0.0
O587 O 0.64007 0.08016 0.06096 0.0
C588 C 0.65399 0.08193 0.03556 0.0
O589 O 0.60383 1.01739 0.02607 0.0
O590 O 0.60023 0.12104 0.98373 0.0
O591 O 0.56563 0.08016 0.95733 0.0
O592 O 0.59706 0.03423 0.9808 0.0
C593 C 0.60455 1.01437 0.99562 0.0
O594 O 0.54019 0.03465 0.04662 0.0
O595 O 0.53803 0.06178 1.00844 0.0
O596 O 0.59599 0.11919 0.04624 0.0
O597 O 0.58651 1.01603 0.08772 0.0
O598 O 0.60953 0.06398 0.11244 0.0
O599 O 0.56683 0.09081 0.07412 0.0
C600 C 0.59979 0.10768 0.92924 0.0
C601 C 0.6034 0.08 0.90988 0.0
C602 C 0.63393 0.13788 0.90091 0.0
C603 C 0.62195 0.08132 0.88591 0.0
C604 C 0.615 0.13656 0.92458 0.0
C605 C 0.63729 0.11026 0.88134 0.0
C606 C 0.58354 0.10697 0.95677 0.0
C607 C 0.52419 0.04333 0.02545 0.0
H608 H 0.55662 0.06795 0.1323 0.0
H609 H 0.56425 0.98992 0.19415 0.0
H610 H 0.52488 0.06282 0.17519 0.0
H611 H 0.59669 0.99586 0.15205 0.0
H612 H 0.59236 0.05741 0.91352 0.0
H613 H 0.64611 0.16041 0.89803 0.0
H614 H 0.62421 0.05977 0.87085 0.0
H615 H 0.61289 0.15806 0.93986 0.0
Eu616 Eu 0.35298 0.34875 0.3105 0.0
Eu617 Eu 0.31672 0.27522 0.2747 0.0
C618 C 0.33604 0.32825 0.2342 0.0
C619 C 0.36951 0.4325 0.33019 0.0
C620 C 0.3438 0.42556 0.30801 0.0
C621 C 0.3745 0.4875 0.33548 0.0
C622 C 0.3335 0.44924 0.29953 0.0
C623 C 0.38494 0.46348 0.34402 0.0
C624 C 0.34876 0.48034 0.31308 0.0
C625 C 0.37921 0.40647 0.33784 0.0
O626 O 0.36479 0.27915 0.29303 0.0
O627 O 0.38653 0.32688 0.28675 0.0
C628 C 0.38705 0.29805 0.28415 0.0
O629 O 0.35226 0.32214 0.34917 0.0
O630 O 0.31913 0.23507 0.23793 0.0
O631 O 0.2808 0.23213 0.265 0.0
O632 O 0.31719 0.27545 0.32655 0.0
C633 C 0.33408 0.29562 0.35126 0.0
O634 O 0.30402 0.34735 0.31014 0.0
O635 O 0.27831 0.29757 0.28308 0.0
O636 O 0.32902 0.29899 0.23562 0.0
O637 O 0.35912 0.38885 0.35046 0.0
O638 O 0.38986 0.39027 0.31471 0.0
O639 O 0.34022 0.35122 0.25979 0.0
C640 C 0.30397 0.19113 0.25703 0.0
C641 C 0.32078 0.19831 0.28688 0.0
C642 C 0.30878 0.13815 0.24809 0.0
C643 C 0.33155 0.17579 0.29731 0.0
C644 C 0.29788 0.16099 0.23752 0.0
C645 C 0.32565 0.14567 0.27808 0.0
C646 C 0.29615 0.21668 0.24621 0.0
C647 C 0.27897 0.32535 0.30023 0.0
H648 H 0.33154 0.4017 0.29729 0.0
H649 H 0.38649 0.51149 0.34609 0.0
H650 H 0.31332 0.44323 0.2826 0.0
H651 H 0.40482 0.469 0.3612 0.0
H652 H 0.32658 0.22176 0.30164 0.0
H653 H 0.30453 0.11496 0.23285 0.0
H654 H 0.34555 0.18216 0.31991 0.0
H655 H 0.28546 0.15541 0.21412 0.0
Eu656 Eu 0.57644 0.58651 0.05955 0.0
Eu657 Eu 0.60162 0.52951 0.02483 0.0
C658 C 0.64233 0.59841 0.03049 0.0
C659 C 0.57382 0.66624 0.06928 0.0
C660 C 0.58178 0.66125 0.03822 0.0
C661 C 0.58854 0.72183 0.07398 0.0
C662 C 0.59302 0.68627 0.02513 0.0
C663 C 0.57764 0.69666 0.08731 0.0
C664 C 0.59613 0.71667 0.04278 0.0
C665 C 0.56515 0.63944 0.08321 0.0
O666 O 0.61737 0.53275 0.07776 0.0
O667 O 0.59985 0.57394 0.10222 0.0
C668 C 0.6145 0.55223 0.10424 0.0
O669 O 0.54001 0.54801 0.06852 0.0
O670 O 0.6332 0.49967 0.02021 0.0
O671 O 0.59151 0.48585 0.98844 0.0
O672 O 0.55481 0.50847 0.03641 0.0
C673 C 0.53564 0.51852 0.05479 0.0
O674 O 0.55481 0.5777 1.00729 0.0
O675 O 0.58427 0.54774 0.98251 0.0
O676 O 0.64233 0.56887 0.02429 0.0
O677 O 0.54443 0.61574 0.0658 0.0
O678 O 0.58828 0.6311 0.09437 0.0
O679 O 0.61858 0.60763 0.03996 0.0
C680 C 0.60406 0.44786 1.01288 0.0
C681 C 0.57312 0.43253 1.01105 0.0
C682 C 0.61627 0.41577 0.04734 0.0
C683 C 0.56379 0.41006 0.02821 0.0
C684 C 0.62558 0.4386 0.03055 0.0
C685 C 0.58525 0.40195 0.04704 0.0
C686 C 0.61333 0.47652 1.00106 0.0
C687 C 0.56392 0.56434 0.9806 0.0
H688 H 0.57947 0.63794 0.02407 0.0
H689 H 0.59061 0.74529 0.08776 0.0
H690 H 0.59836 0.68185 1.0009 0.0
H691 H 0.57224 0.7009 0.11149 0.0
H692 H 0.55594 0.43868 0.99726 0.0
H693 H 0.63328 0.40972 0.06152 0.0
H694 H 0.53977 0.39923 0.027 0.0
H695 H 0.64954 0.44998 0.03249 0.0
Eu696 Eu 0.87206 0.33521 0.29504 0.0
Eu697 Eu 0.80893 0.28883 0.28951 0.0
C698 C 0.83274 0.34445 0.35367 0.0
C699 C 0.95244 0.36458 0.28214 0.0
C700 C 0.95707 0.33548 0.28345 0.0
C701 C 1.00616 0.38417 0.2804 0.0
C702 C 0.98644 0.33187 0.28674 0.0
C703 C 0.97672 0.38821 0.27831 0.0
C704 C 1.01141 0.35728 0.28831 0.0
C705 C 0.92376 0.37141 0.29021 0.0
O706 O 0.79264 0.33435 0.28737 0.0
O707 O 0.83866 0.36708 0.28685 0.0
C708 C 0.80856 0.36294 0.2869 0.0
O709 O 0.86923 0.29592 0.25242 0.0
O710 O 0.7735 0.26072 0.31023 0.0
O711 O 0.77009 0.25618 0.2594 0.0
O712 O 0.81939 0.28818 0.23971 0.0
C713 C 0.84528 0.28317 0.2319 0.0
O714 O 0.88733 0.29136 0.30608 0.0
O715 O 0.84156 0.25557 0.29433 0.0
O716 O 0.81113 0.3206 0.33772 0.0
O717 O 0.90126 0.36165 0.26734 0.0
O718 O 0.91586 0.36523 0.31698 0.0
O719 O 0.85936 0.352 0.34363 0.0
C720 C 0.72596 0.2565 0.28344 0.0
C721 C 0.72075 0.28142 0.27167 0.0
C722 C 0.67289 0.24129 0.29053 0.0
C723 C 0.69156 0.28527 0.26777 0.0
C724 C 0.70217 0.2371 0.29391 0.0
C725 C 0.66716 0.26462 0.27618 0.0
C726 C 0.75594 0.2503 0.28335 0.0
C727 C 0.87169 0.26138 0.301 0.0
H728 H 0.93832 0.31665 0.28543 0.0
H729 H 0.02496 0.40349 0.27964 0.0
H730 H 0.98943 0.31051 0.29202 0.0
H731 H 0.97328 0.41054 0.27636 0.0
H732 H 0.73892 0.29685 0.26367 0.0
H733 H 0.65443 0.22515 0.29735 0.0
H734 H 0.68795 0.30292 0.25589 0.0
H735 H 0.706 0.21805 0.30345 0.0
Eu736 Eu 0.09124 0.55055 0.56545 0.0
Eu737 Eu 0.08732 0.57599 0.50375 0.0
C738 C 0.08256 0.61847 0.57027 0.0
C739 C 0.07296 0.53215 0.63988 0.0
C740 C 0.05655 0.55484 0.64097 0.0
C741 C 0.05049 0.51784 0.68459 0.0
C742 C 0.03732 0.55929 0.66403 0.0
C743 C 0.07002 0.51365 0.66167 0.0
C744 C 0.03401 0.54052 0.68561 0.0
C745 C 0.091 0.52676 0.61414 0.0
O746 O 0.13849 0.59286 0.52285 0.0
O747 O 0.14032 0.56002 0.55552 0.0
C748 C 0.1544 0.58014 0.54039 0.0
O749 O 0.08344 0.51178 0.52212 0.0
O750 O 0.09167 0.6156 0.48304 0.0
O751 O 0.0719 0.56863 0.45386 0.0
O752 O 0.11043 0.5376 0.49037 0.0
C753 C 0.10239 0.51267 0.50098 0.0
O754 O 0.04215 0.55447 0.55928 0.0
O755 O 0.03954 0.54707 0.50585 0.0
O756 O 0.07244 0.60957 0.54033 0.0
O757 O 0.07484 0.51203 0.58707 0.0
O758 O 0.11162 0.55133 0.61215 0.0
O759 O 0.09604 0.60164 0.58427 0.0
C760 C 0.10696 0.6037 0.43324 0.0
C761 C 0.11698 0.57894 0.41573 0.0
C762 C 0.14831 0.64058 0.41938 0.0
C763 C 0.14231 0.58498 0.39998 0.0
C764 C 0.12257 0.63454 0.43472 0.0
C765 C 0.15827 0.61582 0.40186 0.0
C766 C 0.08397 0.59787 0.45437 0.0
C767 C 0.02569 0.5482 0.53162 0.0
H768 H 0.05828 0.56863 0.62355 0.0
H769 H 0.04826 0.5035 0.70161 0.0
H770 H 0.02476 0.57689 0.66475 0.0
H771 H 0.0824 0.49588 0.66069 0.0
H772 H 0.10558 0.55489 0.41444 0.0
H773 H 0.16006 0.66452 0.42063 0.0
H774 H 0.14875 0.56544 0.38547 0.0
H775 H 0.11534 0.65393 0.44849 0.0
Eu776 Eu 0.80858 0.81953 0.29079 0.0
Eu777 Eu 0.87145 0.80131 0.29355 0.0
C778 C 0.80916 0.74647 0.29522 0.0
C779 C 0.73036 0.83416 0.30313 0.0
C780 C 0.71326 0.80629 0.30865 0.0
C781 C 0.6964 0.86205 0.32972 0.0
C782 C 0.68765 0.80633 0.32441 0.0
C783 C 0.72181 0.86197 0.31368 0.0
C784 C 0.67919 0.83425 0.33517 0.0
C785 C 0.75737 0.8351 0.2868 0.0
O786 O 0.86197 0.79736 0.24084 0.0
O787 O 0.81421 0.80508 0.23918 0.0
C788 C 0.83719 0.79878 0.22485 0.0
O789 O 0.84098 0.86546 0.2859 0.0
O790 O 0.89969 0.76979 0.27782 0.0
O791 O 0.91761 0.81089 0.31626 0.0
O792 O 0.88657 0.85417 0.2939 0.0
C793 C 0.87095 0.87449 0.28935 0.0
O794 O 0.82126 0.82954 0.34394 0.0
O795 O 0.86142 0.80752 0.34437 0.0
O796 O 0.83837 0.75369 0.29169 0.0
O797 O 0.78237 0.85375 0.30278 0.0
O798 O 0.76125 0.80865 0.27103 0.0
O799 O 0.79401 0.76846 0.29713 0.0
C800 C 0.95051 0.79535 0.28075 0.0
C801 C 0.95483 0.82025 0.26598 0.0
C802 C 0.99602 0.78302 0.26226 0.0
C803 C 0.97987 0.82669 0.2496 0.0
C804 C 0.97105 0.7767 0.2788 0.0
C805 C 1.00061 0.80813 0.24773 0.0
C806 C 0.92361 0.78761 0.29649 0.0
C807 C 0.84204 0.82077 0.35941 0.0
H808 H 0.71955 0.78455 0.30076 0.0
H809 H 0.69027 0.88383 0.33797 0.0
H810 H 0.67428 0.78451 0.32788 0.0
H811 H 0.73489 0.88366 0.30962 0.0
H812 H 0.93867 0.83444 0.26684 0.0
H813 H 1.01183 0.76843 0.2609 0.0
H814 H 0.9828 0.8458 0.23801 0.0
H815 H 0.9676 0.75715 0.28978 0.0
Eu816 Eu 0.83255 0.31851 0.76862 0.0
Eu817 Eu 0.80433 0.30214 0.83268 0.0
C818 C 0.76529 0.3135 0.77905 0.0
C819 C 0.83787 0.35332 0.69828 0.0
C820 C 0.83273 0.38197 0.71334 0.0
C821 C 0.82144 0.36087 0.64742 0.0
C822 C 0.82229 0.40014 0.69546 0.0
C823 C 0.83175 0.34265 0.66533 0.0
C824 C 0.81695 0.38992 0.66235 0.0
C825 C 0.84785 0.33353 0.71672 0.0
O826 O 0.79902 0.25632 0.79634 0.0
O827 O 0.83537 0.26995 0.7638 0.0
C828 C 0.81663 0.24908 0.77434 0.0
O829 O 0.87323 0.31801 0.79967 0.0
O830 O 0.77058 0.27486 0.85564 0.0
O831 O 0.80573 0.31393 0.88397 0.0
O832 O 0.84858 0.2893 0.83245 0.0
C833 C 0.87289 0.30043 0.81986 0.0
O834 O 0.82354 0.3613 0.7989 0.0
O835 O 0.83617 0.34966 0.84492 0.0
O836 O 0.77182 0.32275 0.80962 0.0
O837 O 0.86311 0.34761 0.74453 0.0
O838 O 0.82729 0.30836 0.71717 0.0
O839 O 0.78238 0.29844 0.76249 0.0
C840 C 0.79642 0.2681 0.90044 0.0
C841 C 0.8159 0.25101 0.88581 0.0
C842 C 0.80516 0.25115 0.94821 0.0
C843 C 0.83037 0.2346 0.90244 0.0
C844 C 0.79091 0.26804 0.93165 0.0
C845 C 0.82523 0.23483 0.93366 0.0
C846 C 0.78525 0.2885 0.8838 0.0
C847 C 0.8348 0.37035 0.82866 0.0
H848 H 0.83685 0.39039 0.73889 0.0
H849 H 0.81835 0.3529 0.62184 0.0
H850 H 0.8192 0.42256 0.70738 0.0
H851 H 0.83538 0.32044 0.65346 0.0
H852 H 0.82032 0.25079 0.86166 0.0
H853 H 0.80094 0.25118 0.97242 0.0
H854 H 0.84554 0.22175 0.89113 0.0
H855 H 0.77619 0.28141 0.94327 0.0
Eu856 Eu 0.84965 0.84909 0.8123 0.0
Eu857 Eu 0.81362 0.77657 0.77504 0.0
C858 C 0.83264 0.82985 0.73534 0.0
C859 C 0.8714 0.93451 0.83242 0.0
C860 C 0.86442 0.93293 0.80015 0.0
C861 C 0.85215 0.98036 0.84638 0.0
C862 C 0.85009 0.95401 0.79114 0.0
C863 C 0.86645 0.9591 0.85545 0.0
C864 C 0.84259 0.97685 0.81428 0.0
C865 C 0.87532 0.9066 0.84164 0.0
O866 O 0.86271 0.78136 0.79051 0.0
O867 O 0.88188 0.82971 0.78389 0.0
C868 C 0.88383 0.80137 0.78139 0.0
O869 O 0.85315 0.81924 0.84776 0.0
O870 O 0.81359 0.73649 0.73699 0.0
O871 O 0.78071 0.73203 0.77048 0.0
O872 O 0.81047 0.78021 0.8268 0.0
C873 C 0.83077 0.79612 0.85092 0.0
O874 O 0.80066 0.84261 0.81781 0.0
O875 O 0.77619 0.80102 0.7769 0.0
O876 O 0.82551 0.80045 0.7362 0.0
O877 O 0.85049 0.89034 0.84903 0.0
O878 O 0.88917 0.8892 0.82302 0.0
O879 O 0.83678 0.85248 0.76148 0.0
C880 C 0.80527 0.69219 0.75662 0.0
C881 C 0.8272 0.69943 0.78297 0.0
C882 C 0.80904 0.63869 0.74491 0.0
C883 C 0.84014 0.67662 0.79013 0.0
C884 C 0.79611 0.66175 0.7376 0.0
C885 C 0.83143 0.64618 0.77098 0.0
C886 C 0.79394 0.71736 0.74854 0.0
C887 C 0.77597 0.82453 0.80039 0.0
H888 H 0.86773 0.91393 0.78195 0.0
H889 H 0.84657 0.99803 0.86447 0.0
H890 H 0.84323 0.95135 0.76621 0.0
H891 H 0.87124 0.96029 0.88043 0.0
H892 H 0.83457 0.7229 0.79783 0.0
H893 H 0.80206 0.61527 0.72993 0.0
H894 H 0.857 0.68277 0.81066 0.0
H895 H 0.77939 0.65598 0.71703 0.0
Eu896 Eu 0.60854 0.59695 0.5554 0.0
Eu897 Eu 0.57059 0.52834 0.53141 0.0
C898 C 0.61187 0.56027 0.48029 0.0
C899 C 0.63726 0.68141 0.56617 0.0
C900 C 0.6365 0.68155 0.53393 0.0
C901 C 0.60948 0.7212 0.57461 0.0
C902 C 0.62009 0.69924 0.52176 0.0
C903 C 0.62552 0.70291 0.58682 0.0
C904 C 0.60503 0.71781 0.54175 0.0
C905 C 0.64185 0.65389 0.57589 0.0
O906 O 0.61861 0.52094 0.53658 0.0
O907 O 0.64431 0.57054 0.56188 0.0
C908 C 0.64451 0.54196 0.54769 0.0
O909 O 0.58232 0.59021 0.59878 0.0
O910 O 0.54983 0.48592 0.49442 0.0
O911 O 0.53845 0.48982 0.54207 0.0
O912 O 0.56687 0.53757 0.58584 0.0
C913 C 0.56795 0.56436 0.60617 0.0
O914 O 0.56251 0.60544 0.54032 0.0
O915 O 0.5345 0.55487 0.5278 0.0
O916 O 0.59481 0.53487 0.48665 0.0
O917 O 0.6206 0.64119 0.591 0.0
O918 O 0.64892 0.6331 0.55409 0.0
O919 O 0.61589 0.58723 0.50166 0.0
C920 C 0.5466 0.44239 0.5166 0.0
C921 C 0.54749 0.43413 0.54589 0.0
C922 C 0.577 0.40662 0.49734 0.0
C923 C 0.56473 0.41408 0.55149 0.0
C924 C 0.55996 0.42709 0.49176 0.0
C925 C 0.58047 0.40138 0.52764 0.0
C926 C 0.53769 0.471 0.51475 0.0
C927 C 0.53584 0.58475 0.53406 0.0
H928 H 0.64571 0.66558 0.51738 0.0
H929 H 0.59904 0.73643 0.59056 0.0
H930 H 0.61724 0.69638 0.4963 0.0
H931 H 0.62619 0.70338 0.61184 0.0
H932 H 0.53701 0.44511 0.5654 0.0
H933 H 0.58881 0.39632 0.4787 0.0
H934 H 0.56713 0.40979 0.57493 0.0
H935 H 0.55916 0.43266 0.46883 0.0
Eu936 Eu 0.12653 0.55578 1.01521 0.0
Eu937 Eu 0.05723 0.56078 0.05422 0.0
C938 C 0.11099 0.54227 0.08476 0.0
C939 C 0.19947 0.53062 1.006 0.0
C940 C 0.19338 0.51259 0.02822 0.0
C941 C 0.24621 0.51527 0.99866 0.0
C942 C 0.21458 0.49742 0.03709 0.0
C943 C 0.22563 0.53151 0.99086 0.0
C944 C 0.24132 0.49869 0.02243 0.0
C945 C 0.17909 0.54926 0.99913 0.0
O946 O 0.08956 0.60866 0.06661 0.0
O947 O 0.12751 0.60645 0.03215 0.0
C948 C 0.11363 0.62144 0.05385 0.0
O949 O 0.10096 0.56368 0.97242 0.0
O950 O 0.02271 0.57344 0.08328 0.0
O951 O 1.01176 0.55335 0.03183 0.0
O952 O 0.07945 0.56459 1.01354 0.0
C953 C 0.07688 0.56713 0.985 0.0
O954 O 0.09698 0.50771 1.01267 0.0
O955 O 0.05085 0.51069 0.03276 0.0
O956 O 0.08174 0.54011 0.08579 0.0
O957 O 0.15337 0.53371 0.98217 0.0
O958 O 0.17585 0.57065 0.02314 0.0
O959 O 0.12707 0.56005 0.06828 0.0
C960 C 0.98267 0.58633 0.05583 0.0
C961 C 0.98708 0.60577 0.03463 0.0
C962 C 0.93613 0.60083 0.06763 0.0
C963 C 0.96564 0.62216 0.02945 0.0
C964 C 0.95743 0.58437 0.07266 0.0
C965 C 0.93976 0.61938 0.04558 0.0
C966 C 1.00218 0.56546 0.05833 0.0
C967 C 0.06931 0.4953 0.01866 0.0
H968 H 0.17257 0.51087 0.03918 0.0
H969 H 0.26619 0.51605 0.98634 0.0
H970 H 0.21029 0.48543 0.05589 0.0
H971 H 0.23025 0.54493 0.9732 0.0
H972 H 1.00646 0.60741 0.02133 0.0
H973 H 0.91647 0.59859 0.08053 0.0
H974 H 0.96872 0.63606 1.01208 0.0
H975 H 0.9537 0.56934 0.08898 0.0
C976 C 0.05784 0.2403 0.97919 0.0
C977 C 0.03356 0.2493 0.99379 0.0
C978 C 0.07829 0.22909 0.99505 0.0
C979 C 0.07469 0.22519 0.02568 0.0
H980 H 0.06177 0.24268 0.95546 0.0
H981 H 0.0969 0.22294 0.98299 0.0
S982 S 1.01392 0.24289 0.07377 0.0
N983 N 1.0066 0.25299 0.04047 0.0
N984 N 0.04458 0.22955 0.0699 0.0
C985 C 0.05019 0.23316 0.04051 0.0
C986 C 0.02951 0.24546 0.02448 0.0
C987 C 0.24229 0.81899 0.19227 0.0
C988 C 0.22535 0.84112 0.19786 0.0
C989 C 0.25229 0.80767 0.21656 0.0
C990 C 0.24821 0.81977 0.24811 0.0
H991 H 0.24554 0.80797 0.16843 0.0
H992 H 0.26305 0.78873 0.20999 0.0
S993 S 0.20599 0.87911 0.27546 0.0
N994 N 0.20345 0.87432 0.23655 0.0
N995 N 0.22668 0.85591 0.28406 0.0
C996 C 0.2324 0.84304 0.25459 0.0
C997 C 0.22016 0.85322 0.22902 0.0
C998 C 0.51237 0.91627 0.49538 0.0
C999 C 0.53246 0.89722 0.48914 0.0
C1000 C 0.52309 0.94858 0.50264 0.0
C1001 C 0.55422 0.96272 0.50408 0.0
H1002 H 0.48815 0.90617 0.49367 0.0
H1003 H 0.50679 0.96253 0.50688 0.0
S1004 S 0.61632 0.92256 0.49311 0.0
N1005 N 0.58488 0.89421 0.48675 0.0
N1006 N 0.60529 0.95522 0.5012 0.0
C1007 C 0.57466 0.94382 0.49878 0.0
C1008 C 0.56369 0.91093 0.49115 0.0
C1009 C 0.55161 0.29167 0.68531 0.0
C1010 C 0.5734 0.32051 0.69169 0.0
C1011 C 0.52729 0.28711 0.70304 0.0
C1012 C 0.52387 0.31128 0.72757 0.0
H1013 H 0.5534 0.27226 0.66665 0.0
H1014 H 0.51097 0.26459 0.69748 0.0
S1015 S 0.57427 0.39092 0.75428 0.0
N1016 N 0.58985 0.37358 0.72458 0.0
N1017 N 0.54365 0.36473 0.75785 0.0
C1018 C 0.54508 0.34026 0.73414 0.0
C1019 C 0.57001 0.34496 0.71619 0.0
C1020 C 0.03981 0.82363 0.56506 0.0
C1021 C 0.04433 0.82823 0.59821 0.0
C1022 C 0.05254 0.84721 0.55016 0.0
C1023 C 0.07054 0.87624 0.56779 0.0
H1024 H 0.02615 0.80169 0.5504 0.0
H1025 H 0.04779 0.84278 0.52466 0.0
S1026 S 0.09089 0.89965 0.65516 0.0
N1027 N 0.06874 0.86401 0.64821 0.0
N1028 N 0.0935 0.90774 0.62016 0.0
C1029 C 0.07565 0.88101 0.60095 0.0
C1030 C 0.06235 0.85718 0.61615 0.0
C1031 C 0.57626 0.82531 0.82201 0.0
C1032 C 0.56525 0.80501 0.84132 0.0
C1033 C 0.55619 0.83294 0.80127 0.0
C1034 C 0.52477 0.82002 0.79889 0.0
H1035 H 0.59989 0.83823 0.82556 0.0
H1036 H 0.56494 0.8512 0.78941 0.0
S1037 S 0.48584 0.76081 0.83948 0.0
N1038 N 0.52214 0.76769 0.85222 0.0
N1039 N 0.48421 0.78274 0.81415 0.0
C1040 C 0.51415 0.79655 0.81481 0.0
C1041 C 0.53457 0.78867 0.83568 0.0
C1042 C 0.55858 0.19543 0.09217 0.0
C1043 C 0.52663 0.18684 0.09028 0.0
C1044 C 0.57482 0.17284 0.0835 0.0
C1045 C 0.55952 0.14119 0.07342 0.0
H1046 H 0.57124 0.2192 0.10286 0.0
H1047 H 0.59943 0.17992 0.08648 0.0
S1048 S 0.47605 0.10806 0.05785 0.0
N1049 N 0.48037 0.14571 0.07197 0.0
N1050 N 0.51078 0.10316 0.05734 0.0
C1051 C 0.52764 0.13286 0.0688 0.0
C1052 C 0.5112 0.15582 0.0766 0.0
C1053 C 0.2033 0.30438 0.33043 0.0
C1054 C 0.20652 0.32843 0.35786 0.0
C1055 C 0.22557 0.305 0.30977 0.0
C1056 C 0.25189 0.32976 0.31576 0.0
H1057 H 0.18385 0.28438 0.32526 0.0
H1058 H 0.22284 0.28506 0.28997 0.0
S1059 S 0.26948 0.40041 0.3827 0.0
N1060 N 0.23686 0.37894 0.38873 0.0
N1061 N 0.27831 0.38068 0.34964 0.0
C1062 C 0.25428 0.35512 0.34198 0.0
C1063 C 0.23182 0.35423 0.36322 0.0
C1064 C 0.05234 0.08509 0.19619 0.0
C1065 C 0.02078 0.07314 0.19792 0.0
C1066 C 0.06596 0.0823 0.167 0.0
C1067 C 0.04947 0.06619 0.13686 0.0
H1068 H 0.06715 0.09636 0.21808 0.0
H1069 H 0.09013 0.09233 0.16835 0.0
S1070 S 0.96624 0.0286 0.12662 0.0
N1071 N 0.97377 0.04352 0.16527 0.0
N1072 N 0.99864 0.03781 0.11167 0.0
C1073 C 1.01784 0.05398 0.13816 0.0
C1074 C 1.00389 0.05738 0.16794 0.0
C1075 C 0.34286 0.67093 0.4553 0.0
C1076 C 0.35932 0.68403 0.48538 0.0
C1077 C 0.33793 0.68986 0.43529 0.0
C1078 C 0.34889 0.72241 0.4452 0.0
H1079 H 0.33094 0.64645 0.44868 0.0
H1080 H 0.32267 0.67925 0.41357 0.0
S1081 S 0.39853 0.76699 0.51918 0.0
N1082 N 0.39083 0.73042 0.52209 0.0
N1083 N 0.38124 0.76636 0.48447 0.0
C1084 C 0.36847 0.73531 0.47357 0.0
C1085 C 0.37388 0.71591 0.49371 0.0
C1086 C 0.6716 0.03118 0.61874 0.0
C1087 C 0.66493 0.02681 0.64862 0.0
C1088 C 0.64855 0.03204 0.59664 0.0
C1089 C 0.61852 0.02774 0.6037 0.0
H1090 H 0.69498 0.03902 0.6144 0.0
H1091 H 0.6548 0.0396 0.5757 0.0
S1092 S 0.58888 1.00512 0.67473 0.0
N1093 N 0.62608 1.01086 0.68148 0.0
N1094 N 0.5823 1.01101 0.63914 0.0
C1095 C 0.61104 1.0177 0.63113 0.0
C1096 C 0.63454 1.01722 0.65377 0.0
C1097 C 0.33183 0.34567 0.94715 0.0
C1098 C 0.35605 0.33794 0.96271 0.0
C1099 C 0.32702 0.33977 0.91371 0.0
C1100 C 0.34655 0.32641 0.89435 0.0
H1101 H 0.3166 0.35664 0.96091 0.0
H1102 H 0.3082 0.34634 0.90305 0.0
S1103 S 0.41384 0.30245 0.92326 0.0
N1104 N 0.39986 0.3163 0.95578 0.0
N1105 N 0.3912 0.30559 0.8938 0.0
C1106 C 0.37077 0.3185 0.90973 0.0
C1107 C 0.3754 0.32414 0.94356 0.0
C1108 C 1.01884 0.09084 0.41284 0.0
C1109 C 0.02347 0.0723 0.3835 0.0
C1110 C 0.03086 0.08798 0.44343 0.0
C1111 C 0.04823 0.0662 0.44721 0.0
H1112 H 1.00596 0.10796 0.41232 0.0
H1113 H 0.02642 0.10322 0.46448 0.0
S1114 S 0.06614 1.01047 0.37908 0.0
N1115 N 0.04666 0.03007 0.36201 0.0
N1116 N 0.06816 0.02526 0.41745 0.0
C1117 C 0.05261 0.04747 0.41817 0.0
C1118 C 0.04065 0.05033 0.38733 0.0
C1119 C 0.35559 0.70774 0.6703 0.0
C1120 C 0.36995 0.71966 0.64643 0.0
C1121 C 0.34909 0.72766 0.69707 0.0
C1122 C 0.35688 0.76037 0.70124 0.0
H1123 H 0.34727 0.68281 0.66722 0.0
H1124 H 0.33706 0.71709 0.7142 0.0
S1125 S 0.3993 0.80327 0.64773 0.0
N1126 N 0.39475 0.76617 0.63011 0.0
N1127 N 0.38324 0.80365 0.68074 0.0
C1128 C 0.3734 0.77262 0.67868 0.0
C1129 C 0.37975 0.75227 0.65125 0.0
C1130 C 0.69291 0.09192 0.82452 0.0
C1131 C 0.68778 0.10827 0.80168 0.0
C1132 C 0.67722 0.09357 0.85104 0.0
C1133 C 0.65585 0.11142 0.85525 0.0
H1134 H 0.70875 0.07735 0.82161 0.0
H1135 H 0.68136 0.08034 0.86801 0.0
S1136 S 0.63403 0.1582 0.80219 0.0
N1137 N 0.66032 0.14318 0.78514 0.0
N1138 N 0.63015 0.14557 0.83481 0.0
C1139 C 0.65101 0.12842 0.83303 0.0
C1140 C 0.66721 0.12703 0.80622 0.0
C1141 C 0.34375 0.36687 0.16397 0.0
C1142 C 0.35559 0.3463 0.14182 0.0
C1143 C 0.33752 0.36128 0.19388 0.0
C1144 C 0.34227 0.33456 0.20259 0.0
H1145 H 0.33991 0.38787 0.15848 0.0
H1146 H 0.32881 0.3779 0.21019 0.0
S1147 S 0.37292 0.27334 0.15342 0.0
N1148 N 0.37171 0.29812 0.1311 0.0
N1149 N 0.35994 0.28751 0.18652 0.0
C1150 C 0.35377 0.31369 0.18047 0.0
C1151 C 0.36041 0.31956 0.15037 0.0
C1152 C 0.19653 0.98887 1.0145 0.0
C1153 C 0.22622 1.00874 0.02372 0.0
C1154 C 0.16986 0.99829 0.02264 0.0
C1155 C 0.17087 0.02852 0.04048 0.0
H1156 H 0.19371 0.9655 1.00031 0.0
H1157 H 0.14811 0.98158 1.01451 0.0
S1158 S 0.2424 0.09139 0.06841 0.0
N1159 N 0.25445 0.06119 0.05055 0.0
N1160 N 0.20499 0.07928 0.06529 0.0
C1161 C 0.20041 0.04914 0.04911 0.0
C1162 C 0.22769 0.03933 0.04083 0.0
C1163 C 0.71779 0.64011 1.00626 0.0
C1164 C 0.71995 0.67174 0.02026 0.0
C1165 C 0.69285 0.61624 1.00957 0.0
C1166 C 0.6694 0.62313 0.02735 0.0
H1167 H 0.7353 0.63379 0.99244 0.0
H1168 H 0.69185 0.59233 0.99797 0.0
S1169 S 0.66688 0.70199 0.0726 0.0
N1170 N 0.69771 0.70818 0.05467 0.0
N1171 N 0.65206 0.66407 0.06173 0.0
C1172 C 0.67212 0.65467 0.04236 0.0
C1173 C 0.69702 0.67872 0.0386 0.0
C1174 C 0.74371 0.4099 0.28515 0.0
C1175 C 0.75775 0.44254 0.28896 0.0
C1176 C 0.75971 0.38566 0.2843 0.0
C1177 C 0.79196 0.39084 0.28702 0.0
H1178 H 0.71917 0.40241 0.28282 0.0
H1179 H 0.74611 0.36208 0.28148 0.0
S1180 S 0.84232 0.47131 0.29833 0.0
N1181 N 0.80805 0.47762 0.29604 0.0
N1182 N 0.83744 0.43342 0.29441 0.0
C1183 C 0.80672 0.42336 0.29087 0.0
C1184 C 0.79019 0.44834 0.29181 0.0
C1185 C 0.94192 0.52574 0.49517 0.0
C1186 C 0.92503 0.52726 0.52131 0.0
C1187 C 0.97403 0.53337 0.49885 0.0
C1188 C 0.99129 0.54234 0.52897 0.0
H1189 H 0.93007 0.51686 0.47138 0.0
H1190 H 0.98533 0.53096 0.47763 0.0
S1191 S 0.95849 0.55079 0.60564 0.0
N1192 N 0.92838 0.5392 0.57869 0.0
N1193 N 0.98839 0.5536 0.58583 0.0
C1194 C 0.97474 0.54503 0.5555 0.0
C1195 C 0.94188 0.53747 0.55164 0.0
C1196 C 0.35081 0.10104 0.33305 0.0
C1197 C 0.37508 0.09182 0.31883 0.0
C1198 C 0.33346 0.11688 0.31857 0.0
C1199 C 0.33958 0.12349 0.28925 0.0
H1200 H 0.34579 0.09694 0.35596 0.0
H1201 H 0.31584 0.12503 0.33086 0.0
S1202 S 0.39948 0.10317 0.24142 0.0
N1203 N 0.40353 0.08933 0.27301 0.0
N1204 N 0.37064 0.11929 0.24603 0.0
C1205 C 0.36296 0.11349 0.27419 0.0
C1206 C 0.38086 0.09762 0.28899 0.0
C1207 C 0.35777 0.13948 0.54991 0.0
C1208 C 0.36324 0.16616 0.53773 0.0
C1209 C 0.38091 0.12502 0.55469 0.0
C1210 C 0.41036 0.13685 0.54766 0.0
H1211 H 0.33544 0.12967 0.55586 0.0
H1212 H 0.37567 0.10431 0.56384 0.0
S1213 S 0.43669 0.2063 0.51552 0.0
N1214 N 0.40031 0.20381 0.51847 0.0
N1215 N 0.44402 0.17678 0.5281 0.0
C1216 C 0.41616 0.16332 0.53515 0.0
C1217 C 0.39253 0.17796 0.53003 0.0
C1218 C 0.74575 0.67385 0.30215 0.0
C1219 C 0.75956 0.64846 0.30075 0.0
C1220 C 0.76158 0.70439 0.30042 0.0
C1221 C 0.79289 0.71266 0.29716 0.0
H1222 H 0.72175 0.67027 0.30446 0.0
H1223 H 0.74877 0.7218 0.3016 0.0
S1224 S 0.84167 0.65658 0.29289 0.0
N1225 N 0.80785 0.63515 0.29614 0.0
N1226 N 0.83748 0.69176 0.29311 0.0
C1227 C 0.80741 0.68778 0.29595 0.0
C1228 C 0.79104 0.65629 0.29765 0.0
C1229 C 0.91036 0.42653 0.83976 0.0
C1230 C 0.90347 0.45567 0.8475 0.0
C1231 C 0.88778 0.3991 0.83512 0.0
C1232 C 0.85755 0.39976 0.83786 0.0
H1233 H 0.93325 0.42463 0.83641 0.0
H1234 H 0.89393 0.37717 0.82831 0.0
S1235 S 0.8273 0.46918 0.85961 0.0
N1236 N 0.86411 0.48335 0.85951 0.0
N1237 N 0.82132 0.43086 0.84981 0.0
C1238 C 0.85007 0.42832 0.84618 0.0
C1239 C 0.87319 0.45656 0.8513 0.0
C1240 C 0.10154 0.84621 0.05557 0.0
C1241 C 0.13342 0.85508 0.06003 0.0
C1242 C 0.08549 0.8594 0.03658 0.0
C1243 C 0.10099 0.88202 0.02204 0.0
H1244 H 0.08889 0.82984 0.0677 0.0
H1245 H 0.06097 0.85414 0.03584 0.0
S1246 S 0.18428 0.91104 0.02465 0.0
N1247 N 0.17997 0.88572 0.04694 0.0
N1248 N 0.1496 0.91101 1.01112 0.0
C1249 C 0.13285 0.88932 0.02445 0.0
C1250 C 0.14917 0.87584 0.04374 0.0
C1251 C 0.95166 0.31025 0.85501 0.0
C1252 C 0.94788 0.28295 0.86608 0.0
C1253 C 0.9279 0.31481 0.8365 0.0
C1254 C 0.90034 0.29195 0.82877 0.0
H1255 H 0.97161 0.32948 0.86361 0.0
H1256 H 0.93 0.33734 0.83117 0.0
S1257 S 0.88435 0.21241 0.84233 0.0
N1258 N 0.9183 0.23026 0.86191 0.0
N1259 N 0.87364 0.23814 0.82568 0.0
C1260 C 0.89837 0.26274 0.83539 0.0
C1261 C 0.9223 0.25838 0.85463 0.0
C1262 C 0.6637 0.19764 0.60259 0.0
C1263 C 0.65197 0.21754 0.58777 0.0
C1264 C 0.6496 0.16582 0.59515 0.0
C1265 C 0.6233 0.15372 0.57335 0.0
H1266 H 0.68303 0.20688 0.62073 0.0
H1267 H 0.65909 0.15064 0.60658 0.0
S1268 S 0.58562 0.19608 0.5265 0.0
N1269 N 0.61396 0.22311 0.54928 0.0
N1270 N 0.58744 0.16294 0.53526 0.0
C1271 C 0.61194 0.17322 0.55779 0.0
C1272 C 0.62634 0.20541 0.5651 0.0
C1273 C 0.60329 0.84754 0.35528 0.0
C1274 C 0.59755 0.83224 0.37979 0.0
C1275 C 0.63005 0.84841 0.34116 0.0
C1276 C 0.65192 0.83427 0.35138 0.0
H1277 H 0.58669 0.85819 0.34641 0.0
H1278 H 0.63336 0.85961 0.32164 0.0
S1279 S 0.64943 0.79495 0.41758 0.0
N1280 N 0.61692 0.80491 0.41556 0.0
N1281 N 0.66754 0.80712 0.38923 0.0
C1282 C 0.64701 0.82 0.37671 0.0
C1283 C 0.61972 0.81887 0.39091 0.0
C1284 C 0.10614 0.24638 0.46318 0.0
C1285 C 0.12527 0.276 0.4762 0.0
C1286 C 0.09879 0.22507 0.48176 0.0
C1287 C 0.11025 0.23281 0.51406 0.0
H1288 H 0.0952 0.24042 0.43904 0.0
H1289 H 0.08267 0.20298 0.47112 0.0
S1290 S 0.16383 0.30676 0.55822 0.0
N1291 N 0.15736 0.31175 0.52219 0.0
N1292 N 0.14398 0.27114 0.55744 0.0
C1293 C 0.13096 0.26179 0.52685 0.0
C1294 C 0.13851 0.28353 0.50774 0.0
C1295 C 0.59024 0.23245 0.22917 0.0
C1296 C 0.58096 0.25937 0.227 0.0
C1297 C 0.61724 0.23441 0.24705 0.0
C1298 C 0.63591 0.26335 0.26385 0.0
H1299 H 0.57735 0.20963 0.21567 0.0
H1300 H 0.62433 0.21312 0.24603 0.0
S1301 S 0.61948 0.34046 0.27007 0.0
N1302 N 0.59082 0.31565 0.2456 0.0
N1303 N 0.64161 0.31931 0.28034 0.0
C1304 C 0.62595 0.29038 0.26368 0.0
C1305 C 0.59848 0.28841 0.24496 0.0
C1306 C 0.63704 0.94415 0.98105 0.0
C1307 C 0.62896 0.93171 0.94847 0.0
C1308 C 0.63027 0.97185 0.99582 0.0
C1309 C 0.61536 0.988 0.97837 0.0
H1310 H 0.64607 0.93105 0.99563 0.0
H1311 H 0.63547 0.97975 0.02134 0.0
S1312 S 0.59538 0.96752 0.89121 0.0
N1313 N 0.60947 0.93906 0.89839 0.0
N1314 N 0.59728 0.99182 0.92598 0.0
C1315 C 0.61014 0.97733 0.94525 0.0
C1316 C 0.6168 0.94891 0.93032 0.0
C1317 C 0.92989 0.79223 0.71302 0.0
C1318 C 0.94068 0.76645 0.71591 0.0
C1319 C 0.91199 0.80395 0.73497 0.0
C1320 C 0.90453 0.79023 0.76042 0.0
H1321 H 0.93541 0.80342 0.69382 0.0
H1322 H 0.90354 0.82355 0.73163 0.0
S1323 S 0.93092 0.72568 0.78133 0.0
N1324 N 0.94524 0.72961 0.74815 0.0
N1325 N 0.91102 0.75181 0.78903 0.0
C1326 C 0.91569 0.76507 0.76407 0.0
C1327 C 0.93395 0.7531 0.74186 0.0
C1328 C 0.13881 0.02699 0.89676 0.0
C1329 C 0.15812 0.05323 0.8891 0.0
C1330 C 0.12398 0.02904 0.92541 0.0
C1331 C 0.12698 0.05747 0.94883 0.0
H1332 H 0.13412 1.00463 0.8799 0.0
H1333 H 0.1096 1.00779 0.92902 0.0
S1334 S 0.17416 0.13365 0.94094 0.0
N1335 N 0.17832 0.10907 0.90845 0.0
N1336 N 0.15174 0.11263 0.96086 0.0
C1337 C 0.1464 0.08369 0.94147 0.0
C1338 C 0.16125 0.08165 0.91234 0.0
C1339 C 0.83562 0.45818 0.62601 0.0
C1340 C 0.81638 0.44748 0.59733 0.0
C1341 C 0.83343 0.44063 0.64867 0.0
C1342 C 0.8122 0.41159 0.64307 0.0
H1343 H 0.85414 0.47895 0.62977 0.0
H1344 H 0.85037 0.44849 0.66926 0.0
S1345 S 0.75388 0.37544 0.57359 0.0
N1346 N 0.77328 0.40801 0.56585 0.0
N1347 N 0.76903 0.37476 0.6088 0.0
C1348 C 0.79097 0.402 0.61579 0.0
C1349 C 0.79307 0.42009 0.59276 0.0
C1350 C 0.50286 0.08131 0.44705 0.0
C1351 C 0.51128 0.0877 0.41845 0.0
C1352 C 0.52486 0.08061 0.47012 0.0
C1353 C 0.5558 0.08857 0.46641 0.0
H1354 H 0.47924 0.0714 0.44929 0.0
H1355 H 0.51743 0.06999 0.48904 0.0
S1356 S 0.58928 0.11535 0.39909 0.0
N1357 N 0.55216 0.10704 0.38921 0.0
N1358 N 0.59408 0.10885 0.43471 0.0
C1359 C 0.56467 0.09973 0.44004 0.0
C1360 C 0.54212 0.09912 0.41573 0.0
C1361 C 0.8078 0.79882 0.1409 0.0
C1362 C 0.82436 0.78148 0.12127 0.0
C1363 C 0.81255 0.80451 0.17406 0.0
C1364 C 0.83437 0.7935 0.18947 0.0
H1365 H 0.7902 0.80737 0.1306 0.0
H1366 H 0.79864 0.81751 0.18772 0.0
S1367 S 0.88504 0.74809 0.14943 0.0
N1368 N 0.86436 0.75406 0.12001 0.0
N1369 N 0.87356 0.76522 0.18233 0.0
C1370 C 0.85186 0.77696 0.17029 0.0
C1371 C 0.84677 0.77082 0.1363 0.0
C1372 C 0.1307 0.06341 0.69647 0.0
C1373 C 0.15108 0.04476 0.70118 0.0
C1374 C 0.11874 0.06542 0.66606 0.0
C1375 C 0.12584 0.04888 0.63717 0.0
H1376 H 0.12382 0.07737 0.71688 0.0
H1377 H 0.10364 0.08051 0.66539 0.0
S1378 S 0.17708 0.99529 0.63379 0.0
N1379 N 0.17714 1.00862 0.6723 0.0
N1380 N 0.15476 1.01191 0.6159 0.0
C1381 C 0.14591 0.02969 0.64111 0.0
C1382 C 0.15836 0.02778 0.67246 0.0
C1383 C 0.83208 0.41955 0.4128 0.0
C1384 C 0.81184 0.40939 0.43362 0.0
C1385 C 0.83889 0.39827 0.38732 0.0
C1386 C 0.82542 0.36602 0.38138 0.0
H1387 H 0.84439 0.44384 0.41751 0.0
H1388 H 0.85509 0.4072 0.37231 0.0
S1389 S 0.76866 0.32793 0.42728 0.0
N1390 N 0.7772 0.36522 0.44573 0.0
N1391 N 0.7889 0.32541 0.39706 0.0
C1392 C 0.80373 0.35582 0.4009 0.0
C1393 C 0.79726 0.37743 0.4272 0.0
C1394 C 0.47747 1.01579 0.23639 0.0
C1395 C 0.49253 1.0171 0.26587 0.0
C1396 C 0.49395 0.01925 0.21089 0.0
C1397 C 0.52571 0.02459 0.2148 0.0
H1398 H 0.45298 1.01179 0.23306 0.0
H1399 H 0.48189 1.01732 0.18802 0.0
S1400 S 0.57542 0.03572 0.2891 0.0
N1401 N 0.5405 0.02742 0.29877 0.0
N1402 N 0.57173 0.03497 0.25097 0.0
C1403 C 0.54095 0.02761 0.24467 0.0
C1404 C 0.52422 0.02358 0.2703 0.0
C1405 C 0.84563 0.79167 0.93757 0.0
C1406 C 0.81713 0.77496 0.94317 0.0
C1407 C 0.85014 0.7986 0.90779 0.0
C1408 C 0.82651 0.78836 0.88239 0.0
H1409 H 0.86433 0.79994 0.95645 0.0
H1410 H 0.87227 0.81195 0.90465 0.0
S1411 S 0.748 0.74217 0.88521 0.0
N1412 N 0.76538 0.74786 0.92116 0.0
N1413 N 0.77365 0.75938 0.86537 0.0
C1414 C 0.79816 0.77082 0.88785 0.0
C1415 C 0.79354 0.76452 0.91816 0.0
C1416 C 0.96961 0.12043 0.06567 0.0
C1417 C 0.94336 0.10347 0.04446 0.0
C1418 C 0.99867 0.11437 0.06159 0.0
C1419 C 1.00317 0.0911 0.03601 0.0
H1420 H 0.96796 0.13934 0.08495 0.0
H1421 H 1.01783 0.12817 0.07872 0.0
S1422 S 0.9416 0.03985 0.9739 0.0
N1423 N 0.92412 0.0624 0.99695 0.0
N1424 N 0.97752 0.05068 0.98951 0.0
C1425 C 0.97684 0.07382 1.01497 0.0
C1426 C 0.94749 0.08014 0.01907 0.0
C1427 C 0.48011 0.44028 0.04815 0.0
C1428 C 0.45731 0.44747 0.06649 0.0
C1429 C 0.50485 0.46347 0.04457 0.0
C1430 C 0.50844 0.49506 0.0595 0.0
H1431 H 0.47855 0.41646 0.03572 0.0
H1432 H 0.52124 0.45633 0.0297 0.0
S1433 S 0.45544 0.52626 0.11135 0.0
N1434 N 0.43976 0.48838 0.10026 0.0
N1435 N 0.48694 0.53223 0.09423 0.0
C1436 C 0.48591 0.50269 0.07833 0.0
C1437 C 0.46023 0.47888 0.08161 0.0
C1438 C 0.43267 0.70823 0.78467 0.0
C1439 C 0.42074 0.67851 0.79177 0.0
C1440 C 0.41716 0.73304 0.78671 0.0
C1441 C 0.38745 0.73133 0.79588 0.0
H1442 H 0.45511 0.71288 0.77712 0.0
H1443 H 0.42885 0.75407 0.78037 0.0
S1444 S 0.34211 0.65855 0.81447 0.0
N1445 N 0.37446 0.6495 0.80697 0.0
N1446 N 0.34583 0.69446 0.81025 0.0
C1447 C 0.37446 0.70142 0.80221 0.0
C1448 C 0.39057 0.67598 0.80037 0.0
C1449 C 0.23772 0.58488 0.56995 0.0
C1450 C 0.25528 0.60292 0.55192 0.0
C1451 C 0.20547 0.57707 0.56539 0.0
C1452 C 0.18895 0.58766 0.5432 0.0
H1453 H 0.24895 0.57798 0.58882 0.0
H1454 H 0.19343 0.56349 0.58039 0.0
S1455 S 0.22421 0.63587 0.48997 0.0
N1456 N 0.25351 0.63095 0.5107 0.0
N1457 N 0.1936 0.61681 0.50243 0.0
C1458 C 0.20635 0.60526 0.52464 0.0
C1459 C 0.23914 0.61278 0.52899 0.0
C1460 C 0.81337 0.04505 0.80264 0.0
C1461 C 0.78543 0.03024 0.78386 0.0
C1462 C 0.83167 0.02761 0.81303 0.0
C1463 C 0.82243 0.99498 0.80493 0.0
H1464 H 0.82165 0.07019 0.80839 0.0
H1465 H 0.85352 0.03961 0.82666 0.0
S1466 S 0.74919 0.94542 0.76052 0.0
N1467 N 0.74793 0.98139 0.76039 0.0
N1468 N 0.78233 0.94853 0.78022 0.0
C1469 C 0.79386 0.97995 0.78757 0.0
C1470 C 0.77532 0.99765 0.77693 0.0
C1471 C 0.79101 0.94546 0.50576 0.0
C1472 C 0.80207 0.94436 0.5362 0.0
C1473 C 0.76795 0.96011 0.50154 0.0
C1474 C 0.75532 0.97421 0.52761 0.0
H1475 H 0.80039 0.93519 0.48503 0.0
H1476 H 0.76041 0.96109 0.47778 0.0
S1477 S 0.77571 0.97738 0.61208 0.0
N1478 N 0.79808 0.9579 0.59284 0.0
N1479 N 0.75471 0.98591 0.58468 0.0
C1480 C 0.76538 0.97254 0.55808 0.0
C1481 C 0.78885 0.9575 0.56244 0.0
C1482 C 0.43183 0.4466 0.77852 0.0
C1483 C 0.41856 0.47258 0.78282 0.0
C1484 C 0.41619 0.416 0.78022 0.0
C1485 C 0.3856 0.40821 0.78627 0.0
H1486 H 0.45529 0.44974 0.77395 0.0
H1487 H 0.42858 0.39814 0.77678 0.0
S1488 S 0.33828 0.46586 0.79852 0.0
N1489 N 0.37147 0.48694 0.79303 0.0
N1490 N 0.34213 0.43016 0.79589 0.0
C1491 C 0.37152 0.43364 0.7902 0.0
C1492 C 0.38774 0.46521 0.78858 0.0
C1493 C 0.26306 0.67849 0.2119 0.0
C1494 C 0.27555 0.654 0.21638 0.0
C1495 C 0.27601 0.70895 0.22925 0.0
C1496 C 0.30219 0.7159 0.25085 0.0
H1497 H 0.2415 0.67385 0.19749 0.0
H1498 H 0.2646 0.72692 0.22699 0.0
S1499 S 0.34785 0.66216 0.26555 0.0
N1500 N 0.3187 0.63995 0.2399 0.0
N1501 N 0.34319 0.69787 0.27207 0.0
C1502 C 0.31705 0.69271 0.25273 0.0
C1503 C 0.30378 0.66153 0.2353 0.0
C1504 C 0.56959 0.75423 0.4852 0.0
C1505 C 0.5399 0.75157 0.49355 0.0
C1506 C 0.5908 0.74467 0.50209 0.0
C1507 C 0.583 0.73121 0.5274 0.0
H1508 H 0.57709 0.76472 0.46604 0.0
H1509 H 0.61351 0.7477 0.4951 0.0
S1510 S 0.50824 0.71858 0.55855 0.0
N1511 N 0.50373 0.73505 0.52898 0.0
N1512 N 0.54348 0.71501 0.55993 0.0
C1513 C 0.55332 0.72799 0.53593 0.0
C1514 C 0.53174 0.73849 0.51905 0.0
C1515 C 0.74617 0.35336 0.7183 0.0
C1516 C 0.71456 0.34144 0.7124 0.0
C1517 C 0.76251 0.34704 0.74297 0.0
C1518 C 0.74766 0.32911 0.76249 0.0
H1519 H 0.75864 0.36455 0.7018 0.0
H1520 H 0.78704 0.35355 0.7449 0.0
S1521 S 0.6651 0.30039 0.76289 0.0
N1522 N 0.66849 0.31703 0.73271 0.0
N1523 N 0.7001 0.30501 0.77906 0.0
C1524 C 0.71608 0.32123 0.76011 0.0
C1525 C 0.69919 0.32768 0.735 0.0
C1526 C 0.02073 0.41415 1.01074 0.0
C1527 C 0.03062 0.39705 0.98435 0.0
C1528 C 0.03391 0.44596 0.0222 0.0
C1529 C 0.05738 0.46159 1.00762 0.0
H1530 H 1.00286 0.40291 0.02276 0.0
H1531 H 0.02563 0.45836 0.04264 0.0
S1532 S 0.09055 0.42776 0.93681 0.0
N1533 N 0.06485 0.39835 0.94331 0.0
N1534 N 0.08936 0.45812 0.96497 0.0
C1535 C 0.06745 0.44486 0.98118 0.0
C1536 C 0.05407 0.41256 0.96947 0.0
C1537 C 0.05664 0.796 0.18932 0.0
C1538 C 0.07791 0.82524 0.19632 0.0
C1539 C 0.03157 0.79073 0.20601 0.0
C1540 C 0.02682 0.81453 0.23014 0.0
H1541 H 0.05934 0.77685 0.1709 0.0
H1542 H 1.01573 0.76792 0.19993 0.0
S1543 S 0.07551 0.89493 0.25822 0.0
N1544 N 0.09247 0.87822 0.2294 0.0
N1545 N 0.04498 0.86807 0.26074 0.0
C1546 C 0.04758 0.84387 0.23736 0.0
C1547 C 0.07326 0.84928 0.22047 0.0
C1548 C 0.5798 0.3315 0.08155 0.0
C1549 C 0.55864 0.33453 0.10355 0.0
C1550 C 0.58808 0.3533 0.06336 0.0
C1551 C 0.57547 0.37899 0.06627 0.0
H1552 H 0.59006 0.31198 0.07811 0.0
H1553 H 0.60436 0.34989 0.04666 0.0
S1554 S 0.51994 0.39866 0.12105 0.0
N1555 N 0.52568 0.36589 0.1276 0.0
N1556 N 0.54138 0.40693 0.09331 0.0
C1557 C 0.55429 0.38247 0.08811 0.0
C1558 C 0.54586 0.36025 0.10676 0.0
C1559 C 0.06951 0.32792 0.32965 0.0
C1560 C 0.0788 0.35194 0.35724 0.0
C1561 C 0.05045 0.33122 0.30478 0.0
C1562 C 0.04017 0.35853 0.30708 0.0
H1563 H 0.07505 0.3058 0.3283 0.0
H1564 H 0.04166 0.31136 0.28487 0.0
S1565 S 0.06461 0.43039 0.3725 0.0
N1566 N 0.08168 0.4055 0.38344 0.0
N1567 N 0.04518 0.41175 0.33772 0.0
C1568 C 0.05252 0.38391 0.33327 0.0
C1569 C 0.07192 0.3805 0.35824 0.0
C1570 C 0.04691 0.66045 0.63483 0.0
C1571 C 0.04157 0.68558 0.62328 0.0
C1572 C 0.06219 0.64019 0.61842 0.0
C1573 C 0.07188 0.64355 0.5893 0.0
H1574 H 0.03967 0.65644 0.65712 0.0
H1575 H 0.06551 0.6212 0.62825 0.0
S1576 S 0.06328 0.70472 0.54794 0.0
N1577 N 0.04736 0.71276 0.58078 0.0
N1578 N 0.07529 0.67334 0.54897 0.0
C1579 C 0.06648 0.66817 0.57699 0.0
C1580 C 0.05136 0.68942 0.59413 0.0
C1581 C 0.72643 0.82806 0.86507 0.0
C1582 C 0.70252 0.83843 0.85301 0.0
C1583 C 0.74902 0.82177 0.84661 0.0
C1584 C 0.74838 0.82517 0.81533 0.0
H1585 H 0.72836 0.82572 0.88929 0.0
H1586 H 0.76795 0.81546 0.85741 0.0
S1587 S 0.68947 0.84866 0.77133 0.0
N1588 N 0.67831 0.84972 0.80686 0.0
N1589 N 0.72149 0.83757 0.77213 0.0
C1590 C 0.72406 0.83401 0.80225 0.0
C1591 C 0.70094 0.84079 0.82119 0.0
C1592 C 0.5322 0.59447 0.68526 0.0
C1593 C 0.52126 0.56765 0.69714 0.0
C1594 C 0.54715 0.59343 0.65669 0.0
C1595 C 0.55226 0.56553 0.6376 0.0
H1596 H 0.53014 0.6168 0.69862 0.0
H1597 H 0.55491 0.61502 0.64955 0.0
S1598 S 0.5275 0.48823 0.65667 0.0
N1599 N 0.51673 0.5119 0.68568 0.0
N1600 N 0.54359 0.51018 0.6337 0.0
C1601 C 0.54086 0.53866 0.64898 0.0
C1602 C 0.52597 0.53971 0.67793 0.0
C1603 C 0.83582 0.17322 0.97453 0.0
C1604 C 0.86335 0.18802 0.99409 0.0
C1605 C 0.82422 0.18799 0.95353 0.0
C1606 C 0.84032 0.2174 0.95099 0.0
H1607 H 0.82156 0.15179 0.97794 0.0
H1608 H 0.80177 0.17729 0.9407 0.0
S1609 S 0.91635 0.2624 0.99158 0.0
N1610 N 0.90832 0.23134 1.0064 0.0
N1611 N 0.88709 0.25854 0.96532 0.0
C1612 C 0.8694 0.23075 0.96756 0.0
C1613 C 0.88089 0.21606 0.98953 0.0
C1614 C 0.12834 0.51741 0.15963 0.0
C1615 C 0.16022 0.52613 0.16387 0.0
C1616 C 0.11225 0.52052 0.13265 0.0
C1617 C 0.12772 0.5333 0.10971 0.0
H1618 H 0.11589 0.51117 0.17865 0.0
H1619 H 0.0877 0.51517 0.13109 0.0
S1620 S 0.21144 0.55609 0.10866 0.0
N1621 N 0.20666 0.5436 0.14119 0.0
N1622 N 0.17685 0.55173 0.0918 0.0
C1623 C 0.15962 0.53928 0.11245 0.0
C1624 C 0.1758 0.53485 0.13917 0.0
C1625 C 0.86997 0.82037 0.4441 0.0
C1626 C 0.85283 0.83729 0.46339 0.0
C1627 C 0.86593 0.81494 0.41086 0.0
C1628 C 0.84442 0.82599 0.39494 0.0
H1629 H 0.88744 0.81193 0.45476 0.0
H1630 H 0.8803 0.80225 0.3976 0.0
S1631 S 0.79221 0.87013 0.43395 0.0
N1632 N 0.81237 0.86405 0.46368 0.0
N1633 N 0.80473 0.85373 0.40142 0.0
C1634 C 0.82644 0.84221 0.41382 0.0
C1635 C 0.83064 0.84786 0.44783 0.0
C1636 C 0.51544 0.58597 0.91265 0.0
C1637 C 0.52694 0.57472 0.88387 0.0
C1638 C 0.52728 0.58302 0.94326 0.0
C1639 C 0.55126 0.56826 0.94758 0.0
H1640 H 0.49671 0.59674 0.91161 0.0
H1641 H 0.51706 0.59216 0.96384 0.0
S1642 S 0.59089 0.53547 0.88121 0.0
N1643 N 0.56559 0.54893 0.86365 0.0
N1644 N 0.58613 0.54311 0.91906 0.0
C1645 C 0.56304 0.55737 0.91916 0.0
C1646 C 0.55146 0.56063 0.88834 0.0
C1647 C 0.81809 0.21764 0.15825 0.0
C1648 C 0.8443 0.20741 0.15039 0.0
C1649 C 0.81905 0.24257 0.18383 0.0
C1650 C 0.84616 0.25849 0.20341 0.0
H1651 H 0.79628 0.20663 0.1442 0.0
H1652 H 0.79807 0.24915 0.18834 0.0
S1653 S 0.92121 0.24039 0.19496 0.0
N1654 N 0.89826 0.21491 0.16515 0.0
N1655 N 0.90009 0.26154 0.21414 0.0
C1656 C 0.87264 0.24832 0.19651 0.0
C1657 C 0.87169 0.22284 0.16994 0.0
C1658 C 0.18955 0.6366 0.33101 0.0
C1659 C 0.20661 0.61462 0.32295 0.0
C1660 C 0.17682 0.6399 0.3593 0.0
C1661 C 0.18116 0.62156 0.38037 0.0
H1662 H 0.18347 0.6492 0.3142 0.0
H1663 H 0.1609 0.65433 0.36288 0.0
S1664 S 0.23175 0.56815 0.37461 0.0
N1665 N 0.23277 0.57942 0.34103 0.0
N1666 N 0.20929 0.58646 0.39516 0.0
C1667 C 0.20189 0.6031 0.37481 0.0
C1668 C 0.2145 0.59932 0.3457 0.0
C1669 C 0.84587 0.87142 0.66729 0.0
C1670 C 0.85308 0.84877 0.64314 0.0
C1671 C 0.83924 0.86551 0.69705 0.0
C1672 C 0.83885 0.83644 0.70362 0.0
H1673 H 0.8461 0.89422 0.66349 0.0
H1674 H 0.83439 0.88382 0.71495 0.0
S1675 S 0.85536 0.76889 0.64787 0.0
N1676 N 0.85889 0.79609 0.62782 0.0
N1677 N 0.84624 0.78459 0.68263 0.0
C1678 C 0.84554 0.81347 0.67925 0.0
C1679 C 0.85267 0.8197 0.64939 0.0
C1680 C 0.70491 0.49495 0.53146 0.0
C1681 C 0.73022 0.51566 0.52381 0.0
C1682 C 0.6781 0.50381 0.53995 0.0
C1683 C 0.67474 0.53403 0.54162 0.0
H1684 H 0.70561 0.47112 0.53031 0.0
H1685 H 0.65943 0.48664 0.54479 0.0
S1686 S 0.73181 0.59674 0.51957 0.0
N1687 N 0.74854 0.56776 0.51591 0.0
N1688 N 0.69859 0.58432 0.53184 0.0
C1689 C 0.69967 0.55515 0.53367 0.0
C1690 C 0.72715 0.54608 0.52488 0.0
C1691 C 0.18974 0.17468 0.5254 0.0
C1692 C 0.2167 0.16836 0.51502 0.0
C1693 C 0.1658 0.15107 0.52979 0.0
C1694 C 0.16692 0.11966 0.52308 0.0
H1695 H 0.18735 0.19835 0.5314 0.0
H1696 H 0.14633 0.15781 0.53906 0.0
S1697 S 0.23218 0.09008 0.49484 0.0
N1698 N 0.24335 0.12804 0.4982 0.0
N1699 N 0.19742 0.08334 0.50522 0.0
C1700 C 0.19343 0.11265 0.51193 0.0
C1701 C 0.21844 0.13701 0.50818 0.0
C1702 C 0.29031 0.94737 0.78739 0.0
C1703 C 0.25861 0.94354 0.79095 0.0
C1704 C 0.30596 0.9222 0.78492 0.0
C1705 C 0.2917 0.89049 0.78559 0.0
H1706 H 0.30372 0.97043 0.78753 0.0
H1707 H 0.33006 0.92806 0.78291 0.0
S1708 S 0.20902 0.86598 0.79354 0.0
N1709 N 0.2142 0.90325 0.79422 0.0
N1710 N 0.2424 0.85828 0.78965 0.0
C1711 C 0.26009 0.88646 0.78861 0.0
C1712 C 0.24429 0.91186 0.79126 0.0
C1713 C 0.44109 0.02033 0.04484 0.0
C1714 C 0.42318 0.02149 1.01762 0.0
C1715 C 0.47333 0.0269 0.04716 0.0
C1716 C 0.48953 0.03492 0.02227 0.0
H1717 H 0.42995 1.01267 0.06401 0.0
H1718 H 0.48561 0.02553 0.06866 0.0
S1719 S 0.45358 0.04002 0.94515 0.0
N1720 N 0.42446 0.03026 0.96485 0.0
N1721 N 0.48429 0.04337 0.96915 0.0
C1722 C 0.47181 0.03656 0.99508 0.0
C1723 C 0.43905 0.02961 0.99273 0.0
C1724 C 0.84177 0.57427 0.79596 0.0
C1725 C 0.87342 0.58127 0.8029 0.0
C1726 C 0.82811 0.59482 0.78417 0.0
C1727 C 0.8459 0.62256 0.77878 0.0
H1728 H 0.82753 0.55359 0.80093 0.0
H1729 H 0.80355 0.58967 0.78052 0.0
S1730 S 0.93002 0.64803 0.78789 0.0
N1731 N 0.92234 0.61553 0.80016 0.0
N1732 N 0.89675 0.65371 0.77735 0.0
C1733 C 0.87766 0.62854 0.78366 0.0
C1734 C 0.89143 0.60795 0.79591 0.0
C1735 C 0.86158 0.63052 0.02732 0.0
C1736 C 0.86744 0.66252 0.02872 0.0
C1737 C 0.88527 0.61669 0.03203 0.0
C1738 C 0.91562 0.63442 0.03857 0.0
H1739 H 0.8385 0.61604 0.0228 0.0
H1740 H 0.87976 0.59194 0.03085 0.0
S1741 S 0.94313 0.71918 0.04521 0.0
N1742 N 0.9059 0.71166 0.03693 0.0
N1743 N 0.95042 0.68551 0.04628 0.0
C1744 C 0.92192 0.66632 0.03949 0.0
C1745 C 0.89781 0.68043 0.03448 0.0
C1746 C 0.24413 0.17333 0.80053 0.0
C1747 C 0.25823 0.14825 0.80002 0.0
C1748 C 0.25985 0.20392 0.79891 0.0
C1749 C 0.29134 0.2126 0.79666 0.0
H1750 H 0.21997 0.16946 0.80205 0.0
H1751 H 0.24681 0.22106 0.79936 0.0
S1752 S 0.3409 0.15748 0.79498 0.0
N1753 N 0.30698 0.13567 0.79733 0.0
N1754 N 0.33641 0.19242 0.79449 0.0
C1755 C 0.30615 0.18803 0.79629 0.0
C1756 C 0.28988 0.15646 0.79787 0.0
C1757 C 0.37389 0.94338 0.37223 0.0
C1758 C 0.37712 0.9637 0.35198 0.0
C1759 C 0.35364 0.91403 0.363 0.0
C1760 C 0.33648 0.90393 0.33292 0.0
H1761 H 0.38904 0.94908 0.39405 0.0
H1762 H 0.35383 0.89822 0.3783 0.0
S1763 S 0.3307 0.95195 0.27519 0.0
N1764 N 0.35695 0.97468 0.3038 0.0
N1765 N 0.31897 0.91901 0.28612 0.0
C1766 C 0.33637 0.92568 0.31447 0.0
C1767 C 0.35674 0.95584 0.32414 0.0
C1768 C 0.60989 0.33765 0.54848 0.0
C1769 C 0.63878 0.35402 0.56442 0.0
C1770 C 0.59176 0.35277 0.53413 0.0
C1771 C 0.60211 0.38457 0.53572 0.0
H1772 H 0.60064 0.31348 0.5487 0.0
H1773 H 0.5689 0.34011 0.52356 0.0
S1774 S 0.67555 0.43749 0.5756 0.0
N1775 N 0.67707 0.40303 0.5809 0.0
N1776 N 0.64251 0.432 0.55444 0.0
C1777 C 0.63133 0.40089 0.55065 0.0
C1778 C 0.64994 0.38537 0.56487 0.0
C1779 C 0.41867 0.81185 0.39167 0.0
C1780 C 0.43819 0.79341 0.38015 0.0
C1781 C 0.39864 0.81895 0.37112 0.0
C1782 C 0.39714 0.80746 0.33844 0.0
H1783 H 0.41889 0.8211 0.41687 0.0
H1784 H 0.38297 0.83213 0.38093 0.0
S1785 S 0.44464 0.76005 0.29605 0.0
N1786 N 0.45678 0.76586 0.334 0.0
N1787 N 0.41715 0.77807 0.29476 0.0
C1788 C 0.41722 0.7901 0.3262 0.0
C1789 C 0.4383 0.78329 0.34732 0.0
C1790 C 0.11773 0.70586 0.08696 0.0
C1791 C 0.14821 0.72049 0.08522 0.0
C1792 C 0.10669 0.67375 0.07658 0.0
C1793 C 0.12572 0.65518 0.06406 0.0
H1794 H 0.10213 0.71924 0.09639 0.0
H1795 H 0.08305 0.6635 0.07826 0.0
S1796 S 0.20714 0.68215 0.05376 0.0
N1797 N 0.19706 0.71423 0.06942 0.0
N1798 N 0.17639 0.65345 0.05005 0.0
C1799 C 0.15612 0.66948 0.06162 0.0
C1800 C 0.16735 0.70229 0.07215 0.0
C1801 C 0.11973 0.31955 0.88827 0.0
C1802 C 0.09695 0.33286 0.87843 0.0
C1803 C 0.14634 0.32156 0.87403 0.0
C1804 C 0.15105 0.33693 0.84952 0.0
H1805 H 0.11695 0.30713 0.90689 0.0
H1806 H 0.16324 0.31077 0.88206 0.0
S1807 S 0.09933 0.37665 0.81569 0.0
N1808 N 0.08143 0.36301 0.84344 0.0
N1809 N 0.13168 0.36626 0.8162 0.0
C1810 C 0.12902 0.3511 0.83993 0.0
C1811 C 0.10186 0.34919 0.85454 0.0
C1812 C 0.63509 0.77263 0.99606 0.0
C1813 C 0.61279 0.78854 0.99141 0.0
C1814 C 0.63014 0.74975 1.01356 0.0
C1815 C 0.60284 0.74239 0.02691 0.0
H1816 H 0.65624 0.77759 0.98584 0.0
H1817 H 0.64749 0.73751 1.01637 0.0
S1818 S 0.53599 0.77422 0.01842 0.0
N1819 N 0.56145 0.79327 0.99971 0.0
N1820 N 0.55262 0.75053 0.0324 0.0
C1821 C 0.58037 0.75772 0.02209 0.0
C1822 C 0.58524 0.78079 1.0044 0.0
C1823 C 0.11422 0.80472 0.73848 0.0
C1824 C 0.08766 0.79059 0.75 0.0
C1825 C 0.14266 0.80284 0.75045 0.0
C1826 C 0.14533 0.78748 0.7747 0.0
H1827 H 0.11292 0.81451 0.71805 0.0
H1828 H 0.1623 0.81107 0.73893 0.0
S1829 S 0.0842 0.75288 0.81768 0.0
N1830 N 0.06675 0.76553 0.79082 0.0
N1831 N 0.12061 0.76224 0.8131 0.0
C1832 C 0.11974 0.77682 0.78908 0.0
C1833 C 0.0907 0.77851 0.77688 0.0
C1834 C 0.13944 0.45235 0.4585 0.0
C1835 C 0.14481 0.43725 0.48251 0.0
C1836 C 0.12695 0.47805 0.46486 0.0
C1837 C 0.11956 0.48903 0.49527 0.0
H1838 H 0.14187 0.44241 0.43409 0.0
H1839 H 0.12105 0.48786 0.44552 0.0
S1840 S 0.13745 0.46305 0.56766 0.0
N1841 N 0.1477 0.43887 0.53867 0.0
N1842 N 0.12456 0.48751 0.55088 0.0
C1843 C 0.12838 0.47658 0.52014 0.0
C1844 C 0.14112 0.4506 0.51368 0.0
C1845 C 0.44108 0.29552 0.22235 0.0
C1846 C 0.43739 0.2635 0.2104 0.0
C1847 C 0.42595 0.3064 0.24751 0.0
C1848 C 0.40631 0.28566 0.26151 0.0
H1849 H 0.45647 0.31243 0.21292 0.0
H1850 H 0.42949 0.33138 0.2557 0.0
S1851 S 0.38836 0.19937 0.23845 0.0
N1852 N 0.412 0.21091 0.21375 0.0
N1853 N 0.38413 0.23161 0.2617 0.0
C1854 C 0.40233 0.25355 0.24976 0.0
C1855 C 0.4175 0.24241 0.22387 0.0
C1856 C 0.64319 0.52762 0.39903 0.0
C1857 C 0.65872 0.55439 0.38919 0.0
C1858 C 0.6283 0.52954 0.42767 0.0
C1859 C 0.62761 0.5583 0.44879 0.0
H1860 H 0.64151 0.50482 0.38395 0.0
H1861 H 0.61692 0.50793 0.43314 0.0
S1862 S 0.66486 0.63568 0.43504 0.0
N1863 N 0.67196 0.61089 0.40435 0.0
N1864 N 0.64522 0.61426 0.45655 0.0
C1865 C 0.64345 0.58502 0.4393 0.0
C1866 C 0.65835 0.5831 0.41029 0.0
C1867 C 0.34169 0.96017 0.12494 0.0
C1868 C 0.31905 0.95151 0.09896 0.0
C1869 C 0.34074 0.94243 0.14741 0.0
C1870 C 0.31707 0.91568 0.14448 0.0
H1871 H 0.36176 0.97888 0.12616 0.0
H1872 H 0.35998 0.94798 0.16544 0.0
S1873 S 0.24991 0.88623 0.08391 0.0
N1874 N 0.27027 0.91713 0.07394 0.0
N1875 N 0.2686 0.88357 0.11649 0.0
C1876 C 0.29259 0.90882 0.12078 0.0
C1877 C 0.29348 0.92698 0.09788 0.0
C1878 C 1.01773 0.59425 0.9441 0.0
C1879 C 0.99971 0.56577 0.9257 0.0
C1880 C 0.04239 0.59468 0.96502 0.0
C1881 C 0.04893 0.56668 0.96773 0.0
H1882 H 1.01433 0.61607 0.94042 0.0
H1883 H 0.05729 0.61684 0.97778 0.0
S1884 S 1.00574 0.4864 0.92856 0.0
N1885 N 0.98759 0.50905 0.91458 0.0
N1886 N 0.03438 0.51023 0.95373 0.0
C1887 C 0.02969 0.53822 0.95158 0.0
C1888 C 1.00471 0.53768 0.93055 0.0
C1889 C 0.34067 0.27102 0.63506 0.0
C1890 C 0.31815 0.28155 0.61997 0.0
C1891 C 0.34639 0.27744 0.66845 0.0
C1892 C 0.32957 0.29432 0.68828 0.0
H1893 H 0.35366 0.25718 0.62098 0.0
H1894 H 0.36355 0.26835 0.67873 0.0
S1895 S 0.26881 0.32826 0.66097 0.0
N1896 N 0.27971 0.31074 0.62798 0.0
N1897 N 0.29015 0.32254 0.68994 0.0
C1898 C 0.30748 0.30555 0.67344 0.0
C1899 C 0.30188 0.29927 0.63961 0.0
C1900 C 0.65576 0.52522 0.17309 0.0
C1901 C 0.65393 0.5467 0.20168 0.0
C1902 C 0.64325 0.52681 0.14222 0.0
C1903 C 0.62818 0.55008 0.13749 0.0
H1904 H 0.6666 0.50669 0.17446 0.0
H1905 H 0.64542 0.50937 0.12174 0.0
S1906 S 0.61875 0.61368 0.20332 0.0
N1907 N 0.63647 0.59337 0.22141 0.0
N1908 N 0.61385 0.59583 0.16545 0.0
C1909 C 0.62678 0.57181 0.16578 0.0
C1910 C 0.63929 0.57026 0.19688 0.0
C1911 C 0.32547 0.91572 0.9096 0.0
C1912 C 0.30887 0.90408 0.93238 0.0
C1913 C 0.3327 0.89553 0.88346 0.0
C1914 C 0.32343 0.86282 0.8788 0.0
H1915 H 0.33479 0.94057 0.91311 0.0
H1916 H 0.34624 0.90583 0.8671 0.0
S1917 S 0.27569 0.82075 0.92955 0.0
N1918 N 0.28098 0.85794 0.94724 0.0
N1919 N 0.29373 0.81999 0.89775 0.0
C1920 C 0.30498 0.85095 0.9003 0.0
C1921 C 0.29794 0.87156 0.92713 0.0
C1922 C 1.01065 0.57291 0.76364 0.0
C1923 C 0.98939 0.54672 0.76759 0.0
C1924 C 0.02303 0.57213 0.73502 0.0
C1925 C 1.01437 0.54506 0.71032 0.0
H1926 H 0.01969 0.59279 0.78349 0.0
H1927 H 0.04137 0.5915 0.73328 0.0
S1928 S 0.95555 0.47294 0.70779 0.0
N1929 N 0.95706 0.49505 0.74372 0.0
N1930 N 0.98041 0.49363 0.68969 0.0
C1931 C 0.99081 0.52017 0.71298 0.0
C1932 C 0.97826 0.52098 0.74191 0.0
C1933 C 0.31751 0.304 0.43697 0.0
C1934 C 0.3176 0.27467 0.44264 0.0
C1935 C 0.32443 0.31111 0.4079 0.0
C1936 C 0.33093 0.2889 0.38303 0.0
H1937 H 0.31176 0.32156 0.45504 0.0
H1938 H 0.32345 0.33375 0.40443 0.0
S1939 S 0.33506 0.20904 0.38577 0.0
N1940 N 0.32607 0.22369 0.42101 0.0
N1941 N 0.33797 0.23676 0.36631 0.0
C1942 C 0.33154 0.2597 0.38848 0.0
C1943 C 0.32523 0.25269 0.41829 0.0
C1944 C 0.47628 0.63347 0.53587 0.0
C1945 C 0.45048 0.61593 0.54643 0.0
C1946 C 0.50337 0.62351 0.53173 0.0
C1947 C 0.50612 0.59471 0.53682 0.0
H1948 H 0.47567 0.65548 0.53066 0.0
H1949 H 0.52228 0.63856 0.52427 0.0
S1950 S 0.44557 0.53872 0.56383 0.0
N1951 N 0.43002 0.56766 0.56155 0.0
N1952 N 0.47988 0.54834 0.55289 0.0
C1953 C 0.48022 0.57635 0.54654 0.0
C1954 C 0.4528 0.58693 0.55141 0.0
C1955 C 0.98358 0.94354 0.5655 0.0
C1956 C 0.95483 0.94951 0.56842 0.0
C1957 C 1.00861 0.96656 0.5621 0.0
C1958 C 1.00633 0.9968 0.5619 0.0
H1959 H 0.98679 0.92057 0.56491 0.0
H1960 H 0.02995 0.96038 0.55924 0.0
S1961 S 0.93673 0.02543 0.57018 0.0
N1962 N 0.92576 0.98859 0.57188 0.0
N1963 N 0.97327 0.03204 0.56597 0.0
C1964 C 0.97809 1.00365 0.56596 0.0
C1965 C 0.95227 0.97999 0.56908 0.0
C1966 C 0.88972 0.17572 0.29155 0.0
C1967 C 0.9212 0.18109 0.30306 0.0
C1968 C 0.87418 0.20066 0.29113 0.0
C1969 C 0.88839 0.23362 0.30194 0.0
H1970 H 0.87648 0.15184 0.28309 0.0
H1971 H 0.85035 0.19372 0.28196 0.0
S1972 S 0.97049 0.26258 0.33358 0.0
N1973 N 0.96536 0.22443 0.32501 0.0
N1974 N 0.93724 0.26866 0.32395 0.0
C1975 C 0.91972 0.23911 0.31293 0.0
C1976 C 0.93543 0.21406 0.31357 0.0
C1977 C 0.73528 0.09499 1.01146 0.0
C1978 C 0.75425 0.09783 0.03947 0.0
C1979 C 0.70333 0.08939 1.01038 0.0
C1980 C 0.68831 0.08674 0.03741 0.0
H1981 H 0.7454 0.09846 0.99025 0.0
H1982 H 0.69041 0.088 0.98817 0.0
S1983 S 0.72698 0.09158 0.11691 0.0
N1984 N 0.75514 0.09681 0.09494 0.0
N1985 N 0.69553 0.08626 0.09318 0.0
C1986 C 0.7069 0.08854 0.06545 0.0
C1987 C 0.73957 0.09402 0.06641 0.0
C1988 C 0.31275 0.52133 0.26153 0.0
C1989 C 0.30217 0.5426 0.28371 0.0
C1990 C 0.32992 0.50279 0.27145 0.0
C1991 C 0.33667 0.50467 0.30382 0.0
H1992 H 0.30699 0.51835 0.23633 0.0
H1993 H 0.3368 0.48583 0.25365 0.0
S1994 S 0.31457 0.55698 0.37119 0.0
N1995 N 0.30045 0.56549 0.33935 0.0
N1996 N 0.33216 0.52964 0.35804 0.0
C1997 C 0.32727 0.52668 0.32628 0.0
C1998 C 0.31008 0.54592 0.31618 0.0
C1999 C 0.31848 0.48503 0.04078 0.0
C2000 C 0.31135 0.45487 0.04572 0.0
C2001 C 0.29561 0.49933 0.03451 0.0
C2002 C 0.26472 0.4837 0.03211 0.0
H2003 H 0.34193 0.49764 0.04155 0.0
H2004 H 0.30227 0.52275 0.03107 0.0
S2005 S 0.2342 0.40421 0.04367 0.0
N2006 N 0.27146 0.41004 0.04923 0.0
N2007 N 0.22824 0.43634 0.03573 0.0
C2008 C 0.25726 0.45368 0.03776 0.0
C2009 C 0.28066 0.43937 0.04491 0.0
C2010 C 0.88795 0.96216 0.28009 0.0
C2011 C 0.92011 0.97346 0.28585 0.0
C2012 C 0.87233 0.93085 0.28124 0.0
C2013 C 0.88764 0.90853 0.28829 0.0
H2014 H 0.87462 0.97733 0.27401 0.0
H2015 H 0.84782 0.92401 0.27624 0.0
S2016 S 0.97149 0.92594 0.30765 0.0
N2017 N 0.96605 0.95864 0.30084 0.0
N2018 N 0.93744 0.90185 0.30239 0.0
C2019 C 0.91957 0.91985 0.29463 0.0
C2020 C 0.93536 0.95138 0.29359 0.0
C2021 C 0.80051 0.16237 0.76223 0.0
C2022 C 0.79701 0.15246 0.72888 0.0
C2023 C 0.80835 0.19403 0.77721 0.0
C2024 C 0.8141 0.21642 0.75934 0.0
H2025 H 0.79351 0.14593 0.77665 0.0
H2026 H 0.80825 0.20099 0.80265 0.0
S2027 S 0.81559 0.20204 0.67235 0.0
N2028 N 0.80494 0.167 0.67914 0.0
N2029 N 0.82136 0.22677 0.7074 0.0
C2030 C 0.815 0.20673 0.72653 0.0
C2031 C 0.80625 0.17454 0.71125 0.0
loop_
_geom_bond_atom_site_label_1
_geom_bond_atom_site_label_2
_geom_bond_distance
_geom_bond_site_symmetry_2
_ccdc_geom_bond_type
Zn0 O3 2.031 . S
Zn0 O5 2.049 . S
Zn0 O10 2.067 . S
Zn1 O2 1.962 . S
Zn1 O4 1.986 . S
Zn1 O6 1.996 . S
Zn1 O9 1.943 . S
O2 Zn1 1.962 . S
O2 C7 1.254 . S
O3 Zn0 2.031 . S
O3 C7 1.269 . S
O4 Zn1 1.986 . S
O4 C11 1.262 . S
O5 Zn0 2.049 . S
O5 C13 1.260 . S
O6 Zn1 1.996 . S
O6 C13 1.257 . S
C7 O2 1.254 . S
C7 O3 1.269 . S
C8 O9 1.249 . S
C8 O10 1.270 . S
O9 Zn1 1.943 . S
O9 C8 1.249 . S
O10 Zn0 2.067 . S
O10 C8 1.270 . S
C11 O4 1.262 . S
C11 O12 1.232 . S
O12 C11 1.232 . S
C13 O5 1.260 . S
C13 O6 1.257 . S
Zn14 O17 2.031 1_455 S
Zn14 O19 2.049 . S
Zn14 O24 2.067 . S
Zn15 O16 1.951 1_455 S
Zn15 O18 1.990 . S
Zn15 O20 2.004 . S
Zn15 O23 1.945 1_455 S
O16 Zn15 1.951 1_655 S
O16 C21 1.254 . S
O17 Zn14 2.031 1_655 S
O17 C21 1.269 . S
O18 Zn15 1.990 . S
O18 C25 1.262 . S
O19 Zn14 2.049 . S
O19 C27 1.260 . S
O20 Zn15 2.004 . S
O20 C27 1.257 . S
C21 O16 1.254 . S
C21 O17 1.269 . S
C22 O23 1.249 . S
C22 O24 1.270 1_655 S
O23 Zn15 1.945 1_655 S
O23 C22 1.249 . S
O24 Zn14 2.067 . S
O24 C22 1.270 1_455 S
C25 O18 1.262 . S
C25 O26 1.232 1_455 S
O26 C25 1.232 1_655 S
C27 O19 1.260 . S
C27 O20 1.257 . S
Zn28 O31 2.031 . S
Zn28 O33 2.049 . S
Zn28 O38 2.067 . S
Zn29 O30 1.962 . S
Zn29 O32 1.986 . S
Zn29 O34 1.996 . S
Zn29 O37 1.943 . S
O30 Zn29 1.962 . S
O30 C35 1.254 . S
O31 Zn28 2.031 . S
O31 C35 1.269 . S
O32 Zn29 1.986 . S
O32 C39 1.262 . S
O33 Zn28 2.049 . S
O33 C41 1.260 . S
O34 Zn29 1.996 . S
O34 C41 1.257 . S
C35 O30 1.254 . S
C35 O31 1.269 . S
C36 O37 1.249 . S
C36 O38 1.270 . S
O37 Zn29 1.943 . S
O37 C36 1.249 . S
O38 Zn28 2.067 . S
O38 C36 1.270 . S
C39 O32 1.262 . S
C39 O40 1.232 . S
O40 C39 1.232 . S
C41 O33 1.260 . S
C41 O34 1.257 . S
Zn42 O45 2.031 . S
Zn42 O47 2.049 . S
Zn42 O52 2.067 . S
Zn43 O44 1.962 . S
Zn43 O46 1.986 . S
Zn43 O48 1.996 . S
Zn43 O51 1.943 . S
O44 Zn43 1.962 . S
O44 C49 1.254 . S
O45 Zn42 2.031 . S
O45 C49 1.269 . S
O46 Zn43 1.986 . S
O46 C53 1.262 . S
O47 Zn42 2.049 . S
O47 C55 1.260 . S
O48 Zn43 1.996 . S
O48 C55 1.257 . S
C49 O44 1.254 . S
C49 O45 1.269 . S
C50 O51 1.249 . S
C50 O52 1.270 . S
O51 Zn43 1.943 . S
O51 C50 1.249 . S
O52 Zn42 2.067 . S
O52 C50 1.270 . S
C53 O46 1.262 . S
C53 O54 1.232 . S
O54 C53 1.232 . S
C55 O47 1.260 . S
C55 O48 1.257 . S
Zn56 O59 2.031 . S
Zn56 O61 2.049 . S
Zn56 O66 2.067 . S
Zn57 O58 1.962 . S
Zn57 O60 1.986 . S
Zn57 O62 1.996 . S
Zn57 O65 1.943 . S
O58 Zn57 1.962 . S
O58 C63 1.254 . S
O59 Zn56 2.031 . S
O59 C63 1.269 . S
O60 Zn57 1.986 . S
O60 C67 1.262 . S
O61 Zn56 2.049 . S
O61 C69 1.260 . S
O62 Zn57 1.996 . S
O62 C69 1.257 . S
C63 O58 1.254 . S
C63 O59 1.269 . S
C64 O65 1.249 . S
C64 O66 1.270 . S
O65 Zn57 1.943 . S
O65 C64 1.249 . S
O66 Zn56 2.067 . S
O66 C64 1.270 . S
C67 O60 1.262 . S
C67 O68 1.232 . S
O68 C67 1.232 . S
C69 O61 1.260 . S
C69 O62 1.257 . S
Zn70 O73 2.031 . S
Zn70 O75 2.049 . S
Zn70 O80 2.067 . S
Zn71 O72 1.962 . S
Zn71 O74 1.986 . S
Zn71 O76 1.996 . S
Zn71 O79 1.943 . S
O72 Zn71 1.962 . S
O72 C77 1.254 . S
O73 Zn70 2.031 . S
O73 C77 1.269 . S
O74 Zn71 1.986 . S
O74 C81 1.262 . S
O75 Zn70 2.049 . S
O75 C83 1.260 . S
O76 Zn71 1.996 . S
O76 C83 1.257 . S
C77 O72 1.254 . S
C77 O73 1.269 . S
C78 O79 1.249 . S
C78 O80 1.270 . S
O79 Zn71 1.943 . S
O79 C78 1.249 . S
O80 Zn70 2.067 . S
O80 C78 1.270 . S
C81 O74 1.262 . S
C81 O82 1.232 . S
O82 C81 1.232 . S
C83 O75 1.260 . S
C83 O76 1.257 . S
Zn84 O87 2.031 . S
Zn84 O89 2.049 . S
Zn84 O94 2.067 . S
Zn85 O86 1.962 . S
Zn85 O88 1.986 . S
Zn85 O90 1.996 . S
Zn85 O93 1.943 . S
O86 Zn85 1.962 . S
O86 C91 1.254 . S
O87 Zn84 2.031 . S
O87 C91 1.269 . S
O88 Zn85 1.986 . S
O88 C95 1.262 . S
O89 Zn84 2.049 . S
O89 C97 1.260 . S
O90 Zn85 1.996 . S
O90 C97 1.257 . S
C91 O86 1.254 . S
C91 O87 1.269 . S
C92 O93 1.249 . S
C92 O94 1.270 . S
O93 Zn85 1.943 . S
O93 C92 1.249 . S
O94 Zn84 2.067 . S
O94 C92 1.270 . S
C95 O88 1.262 . S
C95 O96 1.232 . S
O96 C95 1.232 . S
C97 O89 1.260 . S
C97 O90 1.257 . S
Zn98 O101 2.031 . S
Zn98 O103 2.049 . S
Zn98 O108 2.067 . S
Zn99 O100 1.962 . S
Zn99 O102 1.986 . S
Zn99 O104 1.996 . S
Zn99 O107 1.922 1_455 S
O100 Zn99 1.962 . S
O100 C105 1.254 . S
O101 Zn98 2.031 . S
O101 C105 1.269 1_655 S
O102 Zn99 1.986 . S
O102 C109 1.262 . S
O103 Zn98 2.049 . S
O103 C111 1.260 1_655 S
O104 Zn99 1.996 . S
O104 C111 1.257 . S
C105 O100 1.254 . S
C105 O101 1.269 1_455 S
C106 O107 1.275 . S
C106 O108 1.270 . S
O107 Zn99 1.922 1_655 S
O107 C106 1.275 . S
O108 Zn98 2.067 . S
O108 C106 1.270 . S
C109 O102 1.262 . S
C109 O110 1.232 . S
O110 C109 1.232 . S
C111 O103 1.260 1_455 S
C111 O104 1.257 . S
Zn112 O115 2.031 . S
Zn112 O117 2.049 . S
Zn112 O122 2.067 . S
Zn113 O114 1.962 . S
Zn113 O116 1.986 . S
Zn113 O118 1.996 . S
Zn113 O121 1.943 1_545 S
O114 Zn113 1.962 . S
O114 C119 1.254 . S
O115 Zn112 2.031 . S
O115 C119 1.269 1_565 S
O116 Zn113 1.986 . S
O116 C123 1.262 . S
O117 Zn112 2.049 . S
O117 C125 1.260 . S
O118 Zn113 1.996 . S
O118 C125 1.257 1_545 S
C119 O114 1.254 . S
C119 O115 1.269 1_545 S
C120 O121 1.249 . S
C120 O122 1.270 . S
O121 Zn113 1.943 1_565 S
O121 C120 1.249 . S
O122 Zn112 2.067 . S
O122 C120 1.270 . S
C123 O116 1.262 . S
C123 O124 1.232 . S
O124 C123 1.232 . S
C125 O117 1.260 . S
C125 O118 1.257 1_565 S
Zn126 O129 2.031 . S
Zn126 O131 2.049 . S
Zn126 O136 2.067 . S
Zn127 O128 1.962 . S
Zn127 O130 1.986 . S
Zn127 O132 1.996 . S
Zn127 O135 1.943 . S
O128 Zn127 1.962 . S
O128 C133 1.254 . S
O129 Zn126 2.031 . S
O129 C133 1.269 . S
O130 Zn127 1.986 . S
O130 C137 1.262 . S
O131 Zn126 2.049 . S
O131 C139 1.260 . S
O132 Zn127 1.996 . S
O132 C139 1.257 . S
C133 O128 1.254 . S
C133 O129 1.269 . S
C134 O135 1.249 . S
C134 O136 1.270 . S
O135 Zn127 1.943 . S
O135 C134 1.249 . S
O136 Zn126 2.067 . S
O136 C134 1.270 . S
C137 O130 1.262 . S
C137 O138 1.232 . S
O138 C137 1.232 . S
C139 O131 1.260 . S
C139 O132 1.257 . S
Zn140 O143 2.031 . S
Zn140 O145 2.049 . S
Zn140 O150 2.067 . S
Zn141 O142 1.962 . S
Zn141 O144 1.986 1_545 S
Zn141 O146 1.996 . S
Zn141 O149 1.943 . S
O142 Zn141 1.962 . S
O142 C147 1.254 . S
O143 Zn140 2.031 . S
O143 C147 1.269 . S
O144 Zn141 1.986 1_565 S
O144 C151 1.262 . S
O145 Zn140 2.049 . S
O145 C153 1.260 . S
O146 Zn141 1.996 . S
O146 C153 1.257 . S
C147 O142 1.254 . S
C147 O143 1.269 . S
C148 O149 1.249 . S
C148 O150 1.270 . S
O149 Zn141 1.943 . S
O149 C148 1.249 . S
O150 Zn140 2.067 . S
O150 C148 1.270 . S
C151 O144 1.262 . S
C151 O152 1.232 . S
O152 C151 1.232 . S
C153 O145 1.260 . S
C153 O146 1.257 . S
Zn154 O157 2.031 1_554 S
Zn154 O159 2.049 . S
Zn154 O164 2.067 . S
Zn155 O156 1.962 1_554 S
Zn155 O158 1.986 . S
Zn155 O160 1.996 . S
Zn155 O163 1.943 . S
O156 Zn155 1.962 1_556 S
O156 C161 1.254 . S
O157 Zn154 2.031 1_556 S
O157 C161 1.269 . S
O158 Zn155 1.986 . S
O158 C165 1.262 . S
O159 Zn154 2.049 . S
O159 C167 1.260 . S
O160 Zn155 1.996 . S
O160 C167 1.257 . S
C161 O156 1.254 . S
C161 O157 1.269 . S
C162 O163 1.249 . S
C162 O164 1.270 . S
O163 Zn155 1.943 . S
O163 C162 1.249 . S
O164 Zn154 2.067 . S
O164 C162 1.270 . S
C165 O158 1.262 . S
C165 O166 1.232 1_554 S
O166 C165 1.232 1_556 S
C167 O159 1.260 . S
C167 O160 1.257 . S
Zn168 O171 2.031 1_554 S
Zn168 O173 2.049 . S
Zn168 O178 2.067 . S
Zn169 O170 1.962 1_554 S
Zn169 O172 1.986 . S
Zn169 O174 1.996 . S
Zn169 O177 1.943 . S
O170 Zn169 1.962 1_556 S
O170 C175 1.254 . S
O171 Zn168 2.031 1_556 S
O171 C175 1.269 . S
O172 Zn169 1.986 . S
O172 C179 1.262 . S
O173 Zn168 2.049 . S
O173 C181 1.260 . S
O174 Zn169 1.996 . S
O174 C181 1.257 . S
C175 O170 1.254 . S
C175 O171 1.269 . S
C176 O177 1.249 . S
C176 O178 1.270 . S
O177 Zn169 1.943 . S
O177 C176 1.249 . S
O178 Zn168 2.067 . S
O178 C176 1.270 . S
C179 O172 1.262 . S
C179 O180 1.232 . S
O180 C179 1.232 . S
C181 O173 1.260 . S
C181 O174 1.257 . S
Zn182 O185 2.031 . S
Zn182 O187 2.049 . S
Zn182 O192 2.067 . S
Zn183 O184 1.962 . S
Zn183 O186 1.986 . S
Zn183 O188 1.996 . S
Zn183 O191 1.943 . S
O184 Zn183 1.962 . S
O184 C189 1.254 1_554 S
O185 Zn182 2.031 . S
O185 C189 1.269 1_554 S
O186 Zn183 1.986 . S
O186 C193 1.262 . S
O187 Zn182 2.049 . S
O187 C195 1.260 . S
O188 Zn183 1.996 . S
O188 C195 1.257 . S
C189 O184 1.254 1_556 S
C189 O185 1.269 1_556 S
C190 O191 1.249 . S
C190 O192 1.270 . S
O191 Zn183 1.943 . S
O191 C190 1.249 . S
O192 Zn182 2.067 . S
O192 C190 1.270 . S
C193 O186 1.262 . S
C193 O194 1.232 . S
O194 C193 1.232 . S
C195 O187 1.260 . S
C195 O188 1.257 . S
Zn196 O199 2.031 . S
Zn196 O201 2.049 . S
Zn196 O206 2.067 . S
Zn197 O198 1.962 . S
Zn197 O200 1.986 . S
Zn197 O202 1.996 . S
Zn197 O205 1.943 . S
O198 Zn197 1.962 . S
O198 C203 1.254 . S
O199 Zn196 2.031 . S
O199 C203 1.269 . S
O200 Zn197 1.986 . S
O200 C207 1.262 . S
O201 Zn196 2.049 . S
O201 C209 1.260 . S
O202 Zn197 1.996 . S
O202 C209 1.257 . S
C203 O198 1.254 . S
C203 O199 1.269 . S
C204 O205 1.249 . S
C204 O206 1.270 . S
O205 Zn197 1.943 . S
O205 C204 1.249 . S
O206 Zn196 2.067 . S
O206 C204 1.270 . S
C207 O200 1.262 . S
C207 O208 1.232 . S
O208 C207 1.232 . S
C209 O201 1.260 . S
C209 O202 1.257 . S
Zn210 O213 2.031 . S
Zn210 O215 2.049 . S
Zn210 O220 2.067 . S
Zn211 O212 1.962 . S
Zn211 O214 1.986 . S
Zn211 O216 1.996 . S
Zn211 O219 1.943 . S
O212 Zn211 1.962 . S
O212 C217 1.254 . S
O213 Zn210 2.031 . S
O213 C217 1.269 . S
O214 Zn211 1.986 . S
O214 C221 1.262 . S
O215 Zn210 2.049 . S
O215 C223 1.260 . S
O216 Zn211 1.996 . S
O216 C223 1.257 . S
C217 O212 1.254 . S
C217 O213 1.269 . S
C218 O219 1.249 . S
C218 O220 1.270 . S
O219 Zn211 1.943 . S
O219 C218 1.249 . S
O220 Zn210 2.067 . S
O220 C218 1.270 . S
C221 O214 1.262 . S
C221 O222 1.232 . S
O222 C221 1.232 . S
C223 O215 1.260 . S
C223 O216 1.257 . S
Zn224 O227 2.031 . S
Zn224 O229 2.047 1_655 S
Zn224 O234 2.067 . S
Zn225 O226 1.962 . S
Zn225 O228 1.986 . S
Zn225 O230 1.996 . S
Zn225 O233 1.943 . S
O226 Zn225 1.962 . S
O226 C231 1.254 . S
O227 Zn224 2.031 . S
O227 C231 1.269 . S
O228 Zn225 1.986 . S
O228 C235 1.262 . S
O229 Zn224 2.047 1_455 S
O229 C237 1.253 1_455 S
O230 Zn225 1.996 . S
O230 C237 1.257 . S
C231 O226 1.254 . S
C231 O227 1.269 . S
C232 O233 1.249 . S
C232 O234 1.270 . S
O233 Zn225 1.943 . S
O233 C232 1.249 . S
O234 Zn224 2.067 . S
O234 C232 1.270 . S
C235 O228 1.262 . S
C235 O236 1.232 . S
O236 C235 1.232 . S
C237 O229 1.253 1_655 S
C237 O230 1.257 . S
Zn238 O241 2.031 . S
Zn238 O243 2.049 . S
Zn238 O248 2.067 . S
Zn239 O240 1.962 . S
Zn239 O242 1.986 . S
Zn239 O244 1.996 . S
Zn239 O247 1.943 . S
O240 Zn239 1.962 . S
O240 C245 1.254 . S
O241 Zn238 2.031 . S
O241 C245 1.269 . S
O242 Zn239 1.986 . S
O242 C249 1.262 . S
O243 Zn238 2.049 . S
O243 C251 1.260 . S
O244 Zn239 1.996 . S
O244 C251 1.257 . S
C245 O240 1.254 . S
C245 O241 1.269 . S
C246 O247 1.249 . S
C246 O248 1.270 . S
O247 Zn239 1.943 . S
O247 C246 1.249 . S
O248 Zn238 2.067 . S
O248 C246 1.270 . S
C249 O242 1.262 . S
C249 O250 1.232 . S
O250 C249 1.232 . S
C251 O243 1.260 . S
C251 O244 1.257 . S
Zn252 O255 2.031 . S
Zn252 O257 2.049 . S
Zn252 O262 2.067 . S
Zn253 O254 1.962 . S
Zn253 O256 1.986 . S
Zn253 O258 1.996 . S
Zn253 O261 1.943 . S
O254 Zn253 1.962 . S
O254 C259 1.254 . S
O255 Zn252 2.031 . S
O255 C259 1.269 . S
O256 Zn253 1.986 . S
O256 C263 1.262 . S
O257 Zn252 2.049 . S
O257 C265 1.260 . S
O258 Zn253 1.996 . S
O258 C265 1.257 . S
C259 O254 1.254 . S
C259 O255 1.269 . S
C260 O261 1.249 . S
C260 O262 1.270 . S
O261 Zn253 1.943 . S
O261 C260 1.249 . S
O262 Zn252 2.067 . S
O262 C260 1.270 . S
C263 O256 1.262 . S
C263 O264 1.232 . S
O264 C263 1.232 . S
C265 O257 1.260 . S
C265 O258 1.257 . S
Zn266 O269 2.031 . S
Zn266 O271 2.049 . S
Zn266 O276 2.067 . S
Zn267 O268 1.962 . S
Zn267 O270 1.986 . S
Zn267 O272 1.996 . S
Zn267 O275 1.943 . S
O268 Zn267 1.962 . S
O268 C273 1.254 . S
O269 Zn266 2.031 . S
O269 C273 1.269 . S
O270 Zn267 1.986 . S
O270 C277 1.262 . S
O271 Zn266 2.049 . S
O271 C279 1.260 . S
O272 Zn267 1.996 . S
O272 C279 1.257 . S
C273 O268 1.254 . S
C273 O269 1.269 . S
C274 O275 1.249 . S
C274 O276 1.270 . S
O275 Zn267 1.943 . S
O275 C274 1.249 . S
O276 Zn266 2.067 . S
O276 C274 1.270 . S
C277 O270 1.262 . S
C277 O278 1.232 . S
O278 C277 1.232 . S
C279 O271 1.260 . S
C279 O272 1.257 . S
Zn280 O283 2.031 1_554 S
Zn280 O285 2.049 . S
Zn280 O290 2.067 . S
Zn281 O282 1.962 1_554 S
Zn281 O284 1.986 . S
Zn281 O286 1.996 . S
Zn281 O289 1.943 . S
O282 Zn281 1.962 1_556 S
O282 C287 1.254 . S
O283 Zn280 2.031 1_556 S
O283 C287 1.269 . S
O284 Zn281 1.986 . S
O284 C291 1.262 . S
O285 Zn280 2.049 . S
O285 C293 1.260 . S
O286 Zn281 1.996 . S
O286 C293 1.257 . S
C287 O282 1.254 . S
C287 O283 1.269 . S
C288 O289 1.249 . S
C288 O290 1.270 . S
O289 Zn281 1.943 . S
O289 C288 1.249 . S
O290 Zn280 2.067 . S
O290 C288 1.270 . S
C291 O284 1.262 . S
C291 O292 1.232 1_554 S
O292 C291 1.232 1_556 S
C293 O285 1.260 . S
C293 O286 1.257 . S
Zn294 O297 2.031 . S
Zn294 O299 2.049 . S
Zn294 O304 2.067 . S
Zn295 O296 1.962 . S
Zn295 O298 1.986 . S
Zn295 O300 1.996 . S
Zn295 O303 1.943 . S
O296 Zn295 1.962 . S
O296 C301 1.254 . S
O297 Zn294 2.031 . S
O297 C301 1.269 . S
O298 Zn295 1.986 . S
O298 C305 1.262 . S
O299 Zn294 2.049 . S
O299 C307 1.260 . S
O300 Zn295 1.996 . S
O300 C307 1.257 . S
C301 O296 1.254 . S
C301 O297 1.269 . S
C302 O303 1.249 . S
C302 O304 1.270 . S
O303 Zn295 1.943 . S
O303 C302 1.249 . S
O304 Zn294 2.067 . S
O304 C302 1.270 . S
C305 O298 1.262 . S
C305 O306 1.232 . S
O306 C305 1.232 . S
C307 O299 1.260 . S
C307 O300 1.257 . S
Zn308 O311 2.031 . S
Zn308 O313 2.049 . S
Zn308 O318 2.067 . S
Zn309 O310 1.962 . S
Zn309 O312 1.986 . S
Zn309 O314 1.996 . S
Zn309 O317 1.943 . S
O310 Zn309 1.962 . S
O310 C315 1.254 . S
O311 Zn308 2.031 . S
O311 C315 1.269 . S
O312 Zn309 1.986 . S
O312 C319 1.262 . S
O313 Zn308 2.049 . S
O313 C321 1.260 . S
O314 Zn309 1.996 . S
O314 C321 1.257 . S
C315 O310 1.254 . S
C315 O311 1.269 . S
C316 O317 1.249 . S
C316 O318 1.270 . S
O317 Zn309 1.943 . S
O317 C316 1.249 . S
O318 Zn308 2.067 . S
O318 C316 1.270 . S
C319 O312 1.262 . S
C319 O320 1.232 . S
O320 C319 1.232 . S
C321 O313 1.260 . S
C321 O314 1.257 . S
Zn322 O325 2.031 . S
Zn322 O327 2.049 . S
Zn322 O332 2.067 . S
Zn323 O324 1.962 . S
Zn323 O326 1.986 . S
Zn323 O328 1.996 . S
Zn323 O331 1.943 . S
O324 Zn323 1.962 . S
O324 C329 1.254 . S
O325 Zn322 2.031 . S
O325 C329 1.269 . S
O326 Zn323 1.986 . S
O326 C333 1.262 . S
O327 Zn322 2.049 . S
O327 C335 1.260 . S
O328 Zn323 1.996 . S
O328 C335 1.257 . S
C329 O324 1.254 . S
C329 O325 1.269 . S
C330 O331 1.249 . S
C330 O332 1.270 . S
O331 Zn323 1.943 . S
O331 C330 1.249 . S
O332 Zn322 2.067 . S
O332 C330 1.270 . S
C333 O326 1.262 . S
C333 O334 1.232 . S
O334 C333 1.232 . S
C335 O327 1.260 . S
C335 O328 1.257 . S
Eu336 C345 2.828 . S
Eu336 O347 2.392 . S
Eu336 O349 2.418 . S
Eu336 O354 2.373 . S
Eu336 O357 2.488 . S
Eu336 O358 2.471 1_554 S
Eu336 O359 2.349 1_554 S
Eu337 O346 2.375 1_565 S
Eu337 O350 2.504 1_554 S
Eu337 O351 2.485 . S
Eu337 O352 2.339 1_565 S
Eu337 O355 2.386 1_565 S
Eu337 O356 2.413 1_564 S
Eu337 C366 2.845 . S
C338 O356 1.260 . S
C338 O359 1.265 . S
C339 C340 1.379 1_554 S
C339 C343 1.373 . S
C339 C345 1.505 . S
C340 C339 1.379 1_556 S
C340 C342 1.369 . S
C340 H368 0.930 . S
C341 C343 1.383 . S
C341 C344 1.382 1_554 S
C341 H369 0.930 . S
C342 C340 1.369 . S
C342 C344 1.392 . S
C342 H370 0.930 . S
C343 C339 1.373 . S
C343 C341 1.383 . S
C343 H371 0.931 . S
C344 C341 1.382 1_556 S
C344 C342 1.392 . S
C345 Eu336 2.828 . S
C345 C339 1.505 . S
C345 O357 1.249 . S
C345 O358 1.244 1_554 S
O346 Eu337 2.375 1_545 S
O346 C348 1.258 . S
O347 Eu336 2.392 . S
O347 C348 1.242 . S
C348 O346 1.258 . S
C348 O347 1.242 . S
O349 Eu336 2.418 . S
O349 C353 1.244 . S
O350 Eu337 2.504 1_556 S
O350 C366 1.213 1_556 S
O351 Eu337 2.485 . S
O351 C366 1.244 . S
O352 Eu337 2.339 1_545 S
O352 C353 1.265 . S
C353 O349 1.244 . S
C353 O352 1.265 . S
O354 Eu336 2.373 . S
O354 C367 1.258 . S
O355 Eu337 2.386 1_545 S
O355 C367 1.242 . S
O356 Eu337 2.413 1_546 S
O356 C338 1.260 . S
O357 Eu336 2.488 . S
O357 C345 1.249 . S
O358 Eu336 2.471 1_556 S
O358 C345 1.244 1_556 S
O359 Eu336 2.349 1_556 S
O359 C338 1.265 . S
C360 C361 1.379 . S
C360 C364 1.373 . S
C360 C366 1.505 . S
C361 C360 1.379 . S
C361 C363 1.369 . S
C361 H372 0.930 . S
C362 C364 1.383 . S
C362 C365 1.382 . S
C362 H373 0.930 . S
C363 C361 1.369 . S
C363 C365 1.392 . S
C363 H374 0.930 . S
C364 C360 1.373 . S
C364 C362 1.383 . S
C364 H375 0.931 1_554 S
C365 C362 1.382 . S
C365 C363 1.392 . S
C366 Eu337 2.845 . S
C366 O350 1.213 1_554 S
C366 O351 1.244 . S
C366 C360 1.505 . S
C367 O354 1.258 . S
C367 O355 1.242 . S
H368 C340 0.930 . S
H369 C341 0.930 . S
H370 C342 0.930 . S
H371 C343 0.931 . S
H372 C361 0.930 . S
H373 C362 0.930 . S
H374 C363 0.930 . S
H375 C364 0.931 1_556 S
Eu376 C385 2.828 . S
Eu376 O387 2.392 . S
Eu376 O389 2.418 . S
Eu376 O394 2.373 . S
Eu376 O397 2.488 . S
Eu376 O398 2.471 . S
Eu376 O399 2.349 . S
Eu377 O386 2.373 . S
Eu377 O390 2.488 . S
Eu377 O391 2.471 . S
Eu377 O392 2.349 . S
Eu377 O395 2.392 . S
Eu377 O396 2.418 . S
Eu377 C406 2.828 . S
C378 O396 1.244 . S
C378 O399 1.265 . S
C379 C380 1.379 . S
C379 C383 1.373 . S
C379 C385 1.505 . S
C380 C379 1.379 . S
C380 C382 1.369 . S
C380 H408 0.930 . S
C381 C383 1.383 . S
C381 C384 1.382 . S
C381 H409 0.930 . S
C382 C380 1.369 . S
C382 C384 1.392 . S
C382 H410 0.930 . S
C383 C379 1.373 . S
C383 C381 1.383 . S
C383 H411 0.931 . S
C384 C381 1.382 . S
C384 C382 1.392 . S
C385 Eu376 2.828 . S
C385 C379 1.505 . S
C385 O397 1.249 . S
C385 O398 1.244 . S
O386 Eu377 2.373 . S
O386 C388 1.258 . S
O387 Eu376 2.392 . S
O387 C388 1.242 . S
C388 O386 1.258 . S
C388 O387 1.242 . S
O389 Eu376 2.418 . S
O389 C393 1.244 . S
O390 Eu377 2.488 . S
O390 C406 1.249 . S
O391 Eu377 2.471 . S
O391 C406 1.244 . S
O392 Eu377 2.349 . S
O392 C393 1.265 . S
C393 O389 1.244 . S
C393 O392 1.265 . S
O394 Eu376 2.373 . S
O394 C407 1.258 . S
O395 Eu377 2.392 . S
O395 C407 1.242 . S
O396 Eu377 2.418 . S
O396 C378 1.244 . S
O397 Eu376 2.488 . S
O397 C385 1.249 . S
O398 Eu376 2.471 . S
O398 C385 1.244 . S
O399 Eu376 2.349 . S
O399 C378 1.265 . S
C400 C401 1.379 . S
C400 C404 1.373 . S
C400 C406 1.505 . S
C401 C400 1.379 . S
C401 C403 1.369 . S
C401 H412 0.930 . S
C402 C404 1.383 . S
C402 C405 1.382 . S
C402 H413 0.930 . S
C403 C401 1.369 . S
C403 C405 1.392 . S
C403 H414 0.930 . S
C404 C400 1.373 . S
C404 C402 1.383 . S
C404 H415 0.931 . S
C405 C402 1.382 . S
C405 C403 1.392 . S
C406 Eu377 2.828 . S
C406 O390 1.249 . S
C406 O391 1.244 . S
C406 C400 1.505 . S
C407 O394 1.258 . S
C407 O395 1.242 . S
H408 C380 0.930 . S
H409 C381 0.930 . S
H410 C382 0.930 . S
H411 C383 0.931 . S
H412 C401 0.930 . S
H413 C402 0.930 . S
H414 C403 0.930 . S
H415 C404 0.931 . S
Eu416 C425 2.828 . S
Eu416 O427 2.392 . S
Eu416 O429 2.418 . S
Eu416 O434 2.373 1_545 S
Eu416 O437 2.488 . S
Eu416 O438 2.471 . S
Eu416 O439 2.349 . S
Eu417 O426 2.373 . S
Eu417 O430 2.488 . S
Eu417 O431 2.471 . S
Eu417 O432 2.349 . S
Eu417 O435 2.392 1_545 S
Eu417 O436 2.418 . S
Eu417 C446 2.828 . S
C418 O436 1.244 . S
C418 O439 1.265 . S
C419 C420 1.379 . S
C419 C423 1.373 . S
C419 C425 1.505 1_565 S
C420 C419 1.379 . S
C420 C422 1.369 . S
C420 H448 0.930 . S
C421 C423 1.383 . S
C421 C424 1.382 . S
C421 H449 0.930 . S
C422 C420 1.369 . S
C422 C424 1.392 . S
C422 H450 0.930 . S
C423 C419 1.373 . S
C423 C421 1.383 . S
C423 H451 0.931 . S
C424 C421 1.382 . S
C424 C422 1.392 . S
C425 Eu416 2.828 . S
C425 C419 1.505 1_545 S
C425 O437 1.249 . S
C425 O438 1.244 . S
O426 Eu417 2.373 . S
O426 C428 1.258 . S
O427 Eu416 2.392 . S
O427 C428 1.242 . S
C428 O426 1.258 . S
C428 O427 1.242 . S
O429 Eu416 2.418 . S
O429 C433 1.244 . S
O430 Eu417 2.488 . S
O430 C446 1.249 . S
O431 Eu417 2.471 . S
O431 C446 1.244 . S
O432 Eu417 2.349 . S
O432 C433 1.265 . S
C433 O429 1.244 . S
C433 O432 1.265 . S
O434 Eu416 2.373 1_565 S
O434 C447 1.258 . S
O435 Eu417 2.392 1_565 S
O435 C447 1.242 . S
O436 Eu417 2.418 . S
O436 C418 1.244 . S
O437 Eu416 2.488 . S
O437 C425 1.249 . S
O438 Eu416 2.471 . S
O438 C425 1.244 . S
O439 Eu416 2.349 . S
O439 C418 1.265 . S
C440 C441 1.379 . S
C440 C444 1.373 . S
C440 C446 1.505 . S
C441 C440 1.379 . S
C441 C443 1.369 . S
C441 H452 0.930 . S
C442 C444 1.383 . S
C442 C445 1.382 . S
C442 H453 0.930 . S
C443 C441 1.369 . S
C443 C445 1.392 . S
C443 H454 0.930 . S
C444 C440 1.373 . S
C444 C442 1.383 . S
C444 H455 0.931 . S
C445 C442 1.382 . S
C445 C443 1.392 . S
C446 Eu417 2.828 . S
C446 O430 1.249 . S
C446 O431 1.244 . S
C446 C440 1.505 . S
C447 O434 1.258 . S
C447 O435 1.242 . S
H448 C420 0.930 . S
H449 C421 0.930 . S
H450 C422 0.930 . S
H451 C423 0.931 . S
H452 C441 0.930 . S
H453 C442 0.930 . S
H454 C443 0.930 . S
H455 C444 0.931 . S
Eu456 C465 2.828 . S
Eu456 O467 2.392 . S
Eu456 O469 2.418 . S
Eu456 O474 2.373 . S
Eu456 O477 2.488 . S
Eu456 O478 2.471 . S
Eu456 O479 2.349 . S
Eu457 O466 2.373 . S
Eu457 O470 2.488 . S
Eu457 O471 2.471 . S
Eu457 O472 2.349 . S
Eu457 O475 2.392 . S
Eu457 O476 2.418 . S
Eu457 C486 2.828 . S
C458 O476 1.244 . S
C458 O479 1.265 . S
C459 C460 1.379 . S
C459 C463 1.373 . S
C459 C465 1.505 . S
C460 C459 1.379 . S
C460 C462 1.369 . S
C460 H488 0.930 . S
C461 C463 1.383 . S
C461 C464 1.382 . S
C461 H489 0.930 . S
C462 C460 1.369 . S
C462 C464 1.392 . S
C462 H490 0.930 . S
C463 C459 1.373 . S
C463 C461 1.383 . S
C463 H491 0.931 . S
C464 C461 1.382 . S
C464 C462 1.392 . S
C465 Eu456 2.828 . S
C465 C459 1.505 . S
C465 O477 1.249 . S
C465 O478 1.244 . S
O466 Eu457 2.373 . S
O466 C468 1.258 . S
O467 Eu456 2.392 . S
O467 C468 1.242 . S
C468 O466 1.258 . S
C468 O467 1.242 . S
O469 Eu456 2.418 . S
O469 C473 1.244 . S
O470 Eu457 2.488 . S
O470 C486 1.249 . S
O471 Eu457 2.471 . S
O471 C486 1.244 . S
O472 Eu457 2.349 . S
O472 C473 1.265 . S
C473 O469 1.244 . S
C473 O472 1.265 . S
O474 Eu456 2.373 . S
O474 C487 1.258 . S
O475 Eu457 2.392 . S
O475 C487 1.242 . S
O476 Eu457 2.418 . S
O476 C458 1.244 . S
O477 Eu456 2.488 . S
O477 C465 1.249 . S
O478 Eu456 2.471 . S
O478 C465 1.244 . S
O479 Eu456 2.349 . S
O479 C458 1.265 . S
C480 C481 1.379 . S
C480 C484 1.373 . S
C480 C486 1.505 . S
C481 C480 1.379 . S
C481 C483 1.369 . S
C481 H492 0.930 . S
C482 C484 1.383 . S
C482 C485 1.382 . S
C482 H493 0.930 . S
C483 C481 1.369 . S
C483 C485 1.392 . S
C483 H494 0.930 . S
C484 C480 1.373 . S
C484 C482 1.383 . S
C484 H495 0.931 . S
C485 C482 1.382 . S
C485 C483 1.392 . S
C486 Eu457 2.828 . S
C486 O470 1.249 . S
C486 O471 1.244 . S
C486 C480 1.505 . S
C487 O474 1.258 . S
C487 O475 1.242 . S
H488 C460 0.930 . S
H489 C461 0.930 . S
H490 C462 0.930 . S
H491 C463 0.931 . S
H492 C481 0.930 . S
H493 C482 0.930 . S
H494 C483 0.930 . S
H495 C484 0.931 . S
Eu496 C505 2.828 . S
Eu496 O507 2.392 . S
Eu496 O509 2.418 . S
Eu496 O514 2.373 . S
Eu496 O517 2.488 . S
Eu496 O518 2.471 . S
Eu496 O519 2.349 . S
Eu497 O506 2.373 . S
Eu497 O510 2.488 1_545 S
Eu497 O511 2.471 1_545 S
Eu497 O512 2.349 . S
Eu497 O515 2.392 . S
Eu497 O516 2.418 . S
Eu497 C526 2.828 1_545 S
C498 O516 1.244 . S
C498 O519 1.265 . S
C499 C500 1.379 . S
C499 C503 1.373 . S
C499 C505 1.505 . S
C500 C499 1.379 . S
C500 C502 1.369 . S
C500 H528 0.930 . S
C501 C503 1.383 . S
C501 C504 1.382 . S
C501 H529 0.930 . S
C502 C500 1.369 . S
C502 C504 1.392 . S
C502 H530 0.930 . S
C503 C499 1.373 . S
C503 C501 1.383 . S
C503 H531 0.931 . S
C504 C501 1.382 . S
C504 C502 1.392 . S
C505 Eu496 2.828 . S
C505 C499 1.505 . S
C505 O517 1.249 . S
C505 O518 1.244 . S
O506 Eu497 2.373 . S
O506 C508 1.258 . S
O507 Eu496 2.392 . S
O507 C508 1.242 . S
C508 O506 1.258 . S
C508 O507 1.242 . S
O509 Eu496 2.418 . S
O509 C513 1.244 . S
O510 Eu497 2.488 1_565 S
O510 C526 1.249 . S
O511 Eu497 2.471 1_565 S
O511 C526 1.244 . S
O512 Eu497 2.349 . S
O512 C513 1.265 . S
C513 O509 1.244 . S
C513 O512 1.265 . S
O514 Eu496 2.373 . S
O514 C527 1.258 . S
O515 Eu497 2.392 . S
O515 C527 1.242 . S
O516 Eu497 2.418 . S
O516 C498 1.244 . S
O517 Eu496 2.488 . S
O517 C505 1.249 . S
O518 Eu496 2.471 . S
O518 C505 1.244 . S
O519 Eu496 2.349 . S
O519 C498 1.265 . S
C520 C521 1.379 . S
C520 C524 1.373 . S
C520 C526 1.505 . S
C521 C520 1.379 . S
C521 C523 1.369 . S
C521 H532 0.930 . S
C522 C524 1.383 . S
C522 C525 1.382 . S
C522 H533 0.930 . S
C523 C521 1.369 . S
C523 C525 1.392 . S
C523 H534 0.930 . S
C524 C520 1.373 . S
C524 C522 1.383 . S
C524 H535 0.931 . S
C525 C522 1.382 . S
C525 C523 1.392 . S
C526 Eu497 2.828 1_565 S
C526 O510 1.249 . S
C526 O511 1.244 . S
C526 C520 1.505 . S
C527 O514 1.258 . S
C527 O515 1.242 . S
H528 C500 0.930 . S
H529 C501 0.930 . S
H530 C502 0.930 . S
H531 C503 0.931 . S
H532 C521 0.930 . S
H533 C522 0.930 . S
H534 C523 0.930 . S
H535 C524 0.931 . S
Eu536 C545 2.828 . S
Eu536 O547 2.392 . S
Eu536 O549 2.418 . S
Eu536 O554 2.373 . S
Eu536 O557 2.488 . S
Eu536 O558 2.471 . S
Eu536 O559 2.349 . S
Eu537 O546 2.373 . S
Eu537 O550 2.488 . S
Eu537 O551 2.471 . S
Eu537 O552 2.349 . S
Eu537 O555 2.392 . S
Eu537 O556 2.418 . S
Eu537 C566 2.828 . S
C538 O556 1.244 . S
C538 O559 1.265 . S
C539 C540 1.379 . S
C539 C543 1.373 . S
C539 C545 1.505 . S
C540 C539 1.379 . S
C540 C542 1.369 . S
C540 H568 0.930 . S
C541 C543 1.383 . S
C541 C544 1.382 . S
C541 H569 0.930 . S
C542 C540 1.369 . S
C542 C544 1.392 . S
C542 H570 0.930 . S
C543 C539 1.373 . S
C543 C541 1.383 . S
C543 H571 0.931 . S
C544 C541 1.382 . S
C544 C542 1.392 . S
C545 Eu536 2.828 . S
C545 C539 1.505 . S
C545 O557 1.249 . S
C545 O558 1.244 . S
O546 Eu537 2.373 . S
O546 C548 1.258 . S
O547 Eu536 2.392 . S
O547 C548 1.242 . S
C548 O546 1.258 . S
C548 O547 1.242 . S
O549 Eu536 2.418 . S
O549 C553 1.244 . S
O550 Eu537 2.488 . S
O550 C566 1.249 . S
O551 Eu537 2.471 . S
O551 C566 1.244 . S
O552 Eu537 2.349 . S
O552 C553 1.265 . S
C553 O549 1.244 . S
C553 O552 1.265 . S
O554 Eu536 2.373 . S
O554 C567 1.258 . S
O555 Eu537 2.392 . S
O555 C567 1.242 . S
O556 Eu537 2.418 . S
O556 C538 1.244 . S
O557 Eu536 2.488 . S
O557 C545 1.249 . S
O558 Eu536 2.471 . S
O558 C545 1.244 . S
O559 Eu536 2.349 . S
O559 C538 1.265 . S
C560 C561 1.379 . S
C560 C564 1.373 . S
C560 C566 1.505 . S
C561 C560 1.379 . S
C561 C563 1.369 . S
C561 H572 0.930 . S
C562 C564 1.383 . S
C562 C565 1.382 . S
C562 H573 0.930 . S
C563 C561 1.369 . S
C563 C565 1.392 . S
C563 H574 0.930 . S
C564 C560 1.373 . S
C564 C562 1.383 . S
C564 H575 0.931 . S
C565 C562 1.382 . S
C565 C563 1.392 . S
C566 Eu537 2.828 . S
C566 O550 1.249 . S
C566 O551 1.244 . S
C566 C560 1.505 . S
C567 O554 1.258 . S
C567 O555 1.242 . S
H568 C540 0.930 . S
H569 C541 0.930 . S
H570 C542 0.930 . S
H571 C543 0.931 . S
H572 C561 0.930 . S
H573 C562 0.930 . S
H574 C563 0.930 . S
H575 C564 0.931 . S
Eu576 C585 2.828 . S
Eu576 O587 2.392 . S
Eu576 O589 2.418 1_545 S
Eu576 O594 2.373 . S
Eu576 O597 2.488 . S
Eu576 O598 2.471 . S
Eu576 O599 2.349 . S
Eu577 O586 2.373 1_556 S
Eu577 O590 2.488 . S
Eu577 O591 2.471 . S
Eu577 O592 2.349 . S
Eu577 O595 2.392 . S
Eu577 O596 2.418 1_556 S
Eu577 C606 2.828 . S
C578 O596 1.244 . S
C578 O599 1.265 . S
C579 C580 1.379 . S
C579 C583 1.373 1_545 S
C579 C585 1.505 . S
C580 C579 1.379 . S
C580 C582 1.369 . S
C580 H608 0.930 . S
C581 C583 1.383 . S
C581 C584 1.382 1_565 S
C581 H609 0.930 . S
C582 C580 1.369 . S
C582 C584 1.392 . S
C582 H610 0.930 . S
C583 C579 1.373 1_565 S
C583 C581 1.383 . S
C583 H611 0.931 . S
C584 C581 1.382 1_545 S
C584 C582 1.392 . S
C585 Eu576 2.828 . S
C585 C579 1.505 . S
C585 O597 1.249 . S
C585 O598 1.244 . S
O586 Eu577 2.373 1_554 S
O586 C588 1.258 . S
O587 Eu576 2.392 . S
O587 C588 1.242 . S
C588 O586 1.258 . S
C588 O587 1.242 . S
O589 Eu576 2.418 1_565 S
O589 C593 1.244 . S
O590 Eu577 2.488 . S
O590 C606 1.249 . S
O591 Eu577 2.471 . S
O591 C606 1.244 . S
O592 Eu577 2.349 . S
O592 C593 1.265 1_546 S
C593 O589 1.244 . S
C593 O592 1.265 1_564 S
O594 Eu576 2.373 . S
O594 C607 1.258 . S
O595 Eu577 2.392 . S
O595 C607 1.242 1_556 S
O596 Eu577 2.418 1_554 S
O596 C578 1.244 . S
O597 Eu576 2.488 . S
O597 C585 1.249 . S
O598 Eu576 2.471 . S
O598 C585 1.244 . S
O599 Eu576 2.349 . S
O599 C578 1.265 . S
C600 C601 1.379 . S
C600 C604 1.373 . S
C600 C606 1.505 . S
C601 C600 1.379 . S
C601 C603 1.369 . S
C601 H612 0.930 . S
C602 C604 1.383 . S
C602 C605 1.382 . S
C602 H613 0.930 . S
C603 C601 1.369 . S
C603 C605 1.392 . S
C603 H614 0.930 . S
C604 C600 1.373 . S
C604 C602 1.383 . S
C604 H615 0.931 . S
C605 C602 1.382 . S
C605 C603 1.392 . S
C606 Eu577 2.828 . S
C606 O590 1.249 . S
C606 O591 1.244 . S
C606 C600 1.505 . S
C607 O594 1.258 . S
C607 O595 1.242 1_554 S
H608 C580 0.930 . S
H609 C581 0.930 . S
H610 C582 0.930 . S
H611 C583 0.931 . S
H612 C601 0.930 . S
H613 C602 0.930 . S
H614 C603 0.930 . S
H615 C604 0.931 . S
Eu616 C625 2.828 . S
Eu616 O627 2.392 . S
Eu616 O629 2.418 . S
Eu616 O634 2.373 . S
Eu616 O637 2.488 . S
Eu616 O638 2.471 . S
Eu616 O639 2.349 . S
Eu617 O626 2.373 . S
Eu617 O630 2.488 . S
Eu617 O631 2.471 . S
Eu617 O632 2.349 . S
Eu617 O635 2.392 . S
Eu617 O636 2.418 . S
Eu617 C646 2.828 . S
C618 O636 1.244 . S
C618 O639 1.265 . S
C619 C620 1.379 . S
C619 C623 1.373 . S
C619 C625 1.505 . S
C620 C619 1.379 . S
C620 C622 1.369 . S
C620 H648 0.930 . S
C621 C623 1.383 . S
C621 C624 1.382 . S
C621 H649 0.930 . S
C622 C620 1.369 . S
C622 C624 1.392 . S
C622 H650 0.930 . S
C623 C619 1.373 . S
C623 C621 1.383 . S
C623 H651 0.931 . S
C624 C621 1.382 . S
C624 C622 1.392 . S
C625 Eu616 2.828 . S
C625 C619 1.505 . S
C625 O637 1.249 . S
C625 O638 1.244 . S
O626 Eu617 2.373 . S
O626 C628 1.258 . S
O627 Eu616 2.392 . S
O627 C628 1.242 . S
C628 O626 1.258 . S
C628 O627 1.242 . S
O629 Eu616 2.418 . S
O629 C633 1.244 . S
O630 Eu617 2.488 . S
O630 C646 1.249 . S
O631 Eu617 2.471 . S
O631 C646 1.244 . S
O632 Eu617 2.349 . S
O632 C633 1.265 . S
C633 O629 1.244 . S
C633 O632 1.265 . S
O634 Eu616 2.373 . S
O634 C647 1.258 . S
O635 Eu617 2.392 . S
O635 C647 1.242 . S
O636 Eu617 2.418 . S
O636 C618 1.244 . S
O637 Eu616 2.488 . S
O637 C625 1.249 . S
O638 Eu616 2.471 . S
O638 C625 1.244 . S
O639 Eu616 2.349 . S
O639 C618 1.265 . S
C640 C641 1.379 . S
C640 C644 1.373 . S
C640 C646 1.505 . S
C641 C640 1.379 . S
C641 C643 1.369 . S
C641 H652 0.930 . S
C642 C644 1.383 . S
C642 C645 1.382 . S
C642 H653 0.930 . S
C643 C641 1.369 . S
C643 C645 1.392 . S
C643 H654 0.930 . S
C644 C640 1.373 . S
C644 C642 1.383 . S
C644 H655 0.931 . S
C645 C642 1.382 . S
C645 C643 1.392 . S
C646 Eu617 2.828 . S
C646 O630 1.249 . S
C646 O631 1.244 . S
C646 C640 1.505 . S
C647 O634 1.258 . S
C647 O635 1.242 . S
H648 C620 0.930 . S
H649 C621 0.930 . S
H650 C622 0.930 . S
H651 C623 0.931 . S
H652 C641 0.930 . S
H653 C642 0.930 . S
H654 C643 0.930 . S
H655 C644 0.931 . S
Eu656 C665 2.828 . S
Eu656 O667 2.392 . S
Eu656 O669 2.418 . S
Eu656 O674 2.373 1_554 S
Eu656 O677 2.488 . S
Eu656 O678 2.471 . S
Eu656 O679 2.349 . S
Eu657 O666 2.373 1_556 S
Eu657 O670 2.488 1_556 S
Eu657 O671 2.471 1_556 S
Eu657 O672 2.349 1_556 S
Eu657 O675 2.392 . S
Eu657 O676 2.418 1_556 S
Eu657 C686 2.828 1_556 S
C658 O676 1.244 . S
C658 O679 1.265 . S
C659 C660 1.367 1_554 S
C659 C663 1.375 . S
C659 C665 1.514 . S
C660 C659 1.367 1_556 S
C660 C662 1.369 . S
C660 H688 0.930 . S
C661 C663 1.383 1_556 S
C661 C664 1.382 . S
C661 H689 0.930 . S
C662 C660 1.369 . S
C662 C664 1.392 . S
C662 H690 0.930 . S
C663 C659 1.375 . S
C663 C661 1.383 1_554 S
C663 H691 0.931 . S
C664 C661 1.382 . S
C664 C662 1.392 . S
C665 Eu656 2.828 . S
C665 C659 1.514 . S
C665 O677 1.249 . S
C665 O678 1.244 . S
O666 Eu657 2.373 1_554 S
O666 C668 1.258 . S
O667 Eu656 2.392 . S
O667 C668 1.242 . S
C668 O666 1.258 . S
C668 O667 1.242 . S
O669 Eu656 2.418 . S
O669 C673 1.244 . S
O670 Eu657 2.488 1_554 S
O670 C686 1.249 . S
O671 Eu657 2.471 1_554 S
O671 C686 1.244 . S
O672 Eu657 2.349 1_554 S
O672 C673 1.265 . S
C673 O669 1.244 . S
C673 O672 1.265 . S
O674 Eu656 2.373 1_556 S
O674 C687 1.258 . S
O675 Eu657 2.392 . S
O675 C687 1.242 . S
O676 Eu657 2.418 1_554 S
O676 C658 1.244 . S
O677 Eu656 2.488 . S
O677 C665 1.249 . S
O678 Eu656 2.471 . S
O678 C665 1.244 . S
O679 Eu656 2.349 . S
O679 C658 1.265 . S
C680 C681 1.379 . S
C680 C684 1.373 . S
C680 C686 1.505 . S
C681 C680 1.379 . S
C681 C683 1.369 . S
C681 H692 0.930 . S
C682 C684 1.383 . S
C682 C685 1.382 . S
C682 H693 0.930 . S
C683 C681 1.369 . S
C683 C685 1.392 . S
C683 H694 0.930 . S
C684 C680 1.373 . S
C684 C682 1.383 . S
C684 H695 0.931 . S
C685 C682 1.382 . S
C685 C683 1.392 . S
C686 Eu657 2.828 1_554 S
C686 O670 1.249 . S
C686 O671 1.244 . S
C686 C680 1.505 . S
C687 O674 1.258 . S
C687 O675 1.242 . S
H688 C660 0.930 . S
H689 C661 0.930 . S
H690 C662 0.930 . S
H691 C663 0.931 . S
H692 C681 0.930 . S
H693 C682 0.930 . S
H694 C683 0.930 . S
H695 C684 0.931 . S
Eu696 C705 2.828 . S
Eu696 O707 2.392 . S
Eu696 O709 2.418 . S
Eu696 O714 2.373 . S
Eu696 O717 2.488 . S
Eu696 O718 2.471 . S
Eu696 O719 2.349 . S
Eu697 O706 2.373 . S
Eu697 O710 2.488 . S
Eu697 O711 2.471 . S
Eu697 O712 2.349 . S
Eu697 O715 2.392 . S
Eu697 O716 2.418 . S
Eu697 C726 2.828 . S
C698 O716 1.244 . S
C698 O719 1.265 . S
C699 C700 1.379 . S
C699 C703 1.373 . S
C699 C705 1.505 . S
C700 C699 1.379 . S
C700 C702 1.369 . S
C700 H728 0.930 . S
C701 C703 1.383 1_455 S
C701 C704 1.382 . S
C701 H729 0.930 . S
C702 C700 1.369 . S
C702 C704 1.392 1_655 S
C702 H730 0.930 . S
C703 C699 1.373 . S
C703 C701 1.383 1_655 S
C703 H731 0.931 . S
C704 C701 1.382 . S
C704 C702 1.392 1_455 S
C705 Eu696 2.828 . S
C705 C699 1.505 . S
C705 O717 1.249 . S
C705 O718 1.244 . S
O706 Eu697 2.373 . S
O706 C708 1.258 . S
O707 Eu696 2.392 . S
O707 C708 1.242 . S
C708 O706 1.258 . S
C708 O707 1.242 . S
O709 Eu696 2.418 . S
O709 C713 1.244 . S
O710 Eu697 2.488 . S
O710 C726 1.249 . S
O711 Eu697 2.471 . S
O711 C726 1.244 . S
O712 Eu697 2.349 . S
O712 C713 1.265 . S
C713 O709 1.244 . S
C713 O712 1.265 . S
O714 Eu696 2.373 . S
O714 C727 1.258 . S
O715 Eu697 2.392 . S
O715 C727 1.242 . S
O716 Eu697 2.418 . S
O716 C698 1.244 . S
O717 Eu696 2.488 . S
O717 C705 1.249 . S
O718 Eu696 2.471 . S
O718 C705 1.244 . S
O719 Eu696 2.349 . S
O719 C698 1.265 . S
C720 C721 1.379 . S
C720 C724 1.373 . S
C720 C726 1.505 . S
C721 C720 1.379 . S
C721 C723 1.369 . S
C721 H732 0.930 . S
C722 C724 1.383 . S
C722 C725 1.382 . S
C722 H733 0.930 . S
C723 C721 1.369 . S
C723 C725 1.392 . S
C723 H734 0.930 . S
C724 C720 1.373 . S
C724 C722 1.383 . S
C724 H735 0.931 . S
C725 C722 1.382 . S
C725 C723 1.392 . S
C726 Eu697 2.828 . S
C726 O710 1.249 . S
C726 O711 1.244 . S
C726 C720 1.505 . S
C727 O714 1.258 . S
C727 O715 1.242 . S
H728 C700 0.930 . S
H729 C701 0.930 . S
H730 C702 0.930 . S
H731 C703 0.931 . S
H732 C721 0.930 . S
H733 C722 0.930 . S
H734 C723 0.930 . S
H735 C724 0.931 . S
Eu736 C745 2.828 . S
Eu736 O747 2.392 . S
Eu736 O749 2.418 . S
Eu736 O754 2.373 . S
Eu736 O757 2.488 . S
Eu736 O758 2.471 . S
Eu736 O759 2.349 . S
Eu737 O746 2.373 . S
Eu737 O750 2.488 . S
Eu737 O751 2.471 . S
Eu737 O752 2.349 . S
Eu737 O755 2.392 . S
Eu737 O756 2.418 . S
Eu737 C766 2.828 . S
C738 O756 1.244 . S
C738 O759 1.265 . S
C739 C740 1.392 . S
C739 C743 1.373 . S
C739 C745 1.505 . S
C740 C739 1.392 . S
C740 C742 1.359 1_455 S
C740 H768 0.923 1_455 S
C741 C743 1.383 . S
C741 C744 1.382 1_455 S
C741 H769 0.930 . S
C742 C740 1.359 1_655 S
C742 C744 1.392 . S
C742 H770 0.930 . S
C743 C739 1.373 . S
C743 C741 1.383 . S
C743 H771 0.931 . S
C744 C741 1.382 1_655 S
C744 C742 1.392 . S
C745 Eu736 2.828 . S
C745 C739 1.505 . S
C745 O757 1.249 . S
C745 O758 1.244 . S
O746 Eu737 2.373 . S
O746 C748 1.258 . S
O747 Eu736 2.392 . S
O747 C748 1.242 . S
C748 O746 1.258 . S
C748 O747 1.242 . S
O749 Eu736 2.418 . S
O749 C753 1.244 . S
O750 Eu737 2.488 . S
O750 C766 1.249 . S
O751 Eu737 2.471 . S
O751 C766 1.244 . S
O752 Eu737 2.349 . S
O752 C753 1.265 . S
C753 O749 1.244 . S
C753 O752 1.265 . S
O754 Eu736 2.373 . S
O754 C767 1.258 . S
O755 Eu737 2.392 . S
O755 C767 1.242 . S
O756 Eu737 2.418 . S
O756 C738 1.244 . S
O757 Eu736 2.488 . S
O757 C745 1.249 . S
O758 Eu736 2.471 . S
O758 C745 1.244 . S
O759 Eu736 2.349 . S
O759 C738 1.265 . S
C760 C761 1.379 . S
C760 C764 1.373 . S
C760 C766 1.505 . S
C761 C760 1.379 . S
C761 C763 1.369 . S
C761 H772 0.930 . S
C762 C764 1.383 . S
C762 C765 1.382 . S
C762 H773 0.930 . S
C763 C761 1.369 . S
C763 C765 1.392 . S
C763 H774 0.930 . S
C764 C760 1.373 . S
C764 C762 1.383 . S
C764 H775 0.931 . S
C765 C762 1.382 . S
C765 C763 1.392 . S
C766 Eu737 2.828 . S
C766 O750 1.249 . S
C766 O751 1.244 . S
C766 C760 1.505 . S
C767 O754 1.258 . S
C767 O755 1.242 . S
H768 C740 0.923 1_655 S
H769 C741 0.930 . S
H770 C742 0.930 . S
H771 C743 0.931 . S
H772 C761 0.930 . S
H773 C762 0.930 . S
H774 C763 0.930 . S
H775 C764 0.931 . S
Eu776 C785 2.828 . S
Eu776 O787 2.392 . S
Eu776 O789 2.418 . S
Eu776 O794 2.373 . S
Eu776 O797 2.488 . S
Eu776 O798 2.471 . S
Eu776 O799 2.349 . S
Eu777 O786 2.373 . S
Eu777 O790 2.488 . S
Eu777 O791 2.471 . S
Eu777 O792 2.349 . S
Eu777 O795 2.392 . S
Eu777 O796 2.418 . S
Eu777 C806 2.828 . S
C778 O796 1.244 . S
C778 O799 1.265 . S
C779 C780 1.379 . S
C779 C783 1.373 . S
C779 C785 1.505 . S
C780 C779 1.379 . S
C780 C782 1.369 . S
C780 H808 0.930 . S
C781 C783 1.383 . S
C781 C784 1.382 . S
C781 H809 0.930 . S
C782 C780 1.369 . S
C782 C784 1.392 . S
C782 H810 0.930 . S
C783 C779 1.373 . S
C783 C781 1.383 . S
C783 H811 0.931 . S
C784 C781 1.382 . S
C784 C782 1.392 . S
C785 Eu776 2.828 . S
C785 C779 1.505 . S
C785 O797 1.249 . S
C785 O798 1.244 . S
O786 Eu777 2.373 . S
O786 C788 1.258 . S
O787 Eu776 2.392 . S
O787 C788 1.242 . S
C788 O786 1.258 . S
C788 O787 1.242 . S
O789 Eu776 2.418 . S
O789 C793 1.244 . S
O790 Eu777 2.488 . S
O790 C806 1.249 . S
O791 Eu777 2.471 . S
O791 C806 1.244 . S
O792 Eu777 2.349 . S
O792 C793 1.265 . S
C793 O789 1.244 . S
C793 O792 1.265 . S
O794 Eu776 2.373 . S
O794 C807 1.258 . S
O795 Eu777 2.392 . S
O795 C807 1.242 . S
O796 Eu777 2.418 . S
O796 C778 1.244 . S
O797 Eu776 2.488 . S
O797 C785 1.249 . S
O798 Eu776 2.471 . S
O798 C785 1.244 . S
O799 Eu776 2.349 . S
O799 C778 1.265 . S
C800 C801 1.379 . S
C800 C804 1.373 . S
C800 C806 1.505 . S
C801 C800 1.379 . S
C801 C803 1.369 . S
C801 H812 0.930 . S
C802 C804 1.383 . S
C802 C805 1.382 . S
C802 H813 0.930 . S
C803 C801 1.369 . S
C803 C805 1.392 . S
C803 H814 0.930 . S
C804 C800 1.373 . S
C804 C802 1.383 . S
C804 H815 0.931 . S
C805 C802 1.382 . S
C805 C803 1.392 . S
C806 Eu777 2.828 . S
C806 O790 1.249 . S
C806 O791 1.244 . S
C806 C800 1.505 . S
C807 O794 1.258 . S
C807 O795 1.242 . S
H808 C780 0.930 . S
H809 C781 0.930 . S
H810 C782 0.930 . S
H811 C783 0.931 . S
H812 C801 0.930 . S
H813 C802 0.930 . S
H814 C803 0.930 . S
H815 C804 0.931 . S
Eu816 C825 2.828 . S
Eu816 O827 2.392 . S
Eu816 O829 2.418 . S
Eu816 O834 2.373 . S
Eu816 O837 2.488 . S
Eu816 O838 2.471 . S
Eu816 O839 2.349 . S
Eu817 O826 2.373 . S
Eu817 O830 2.488 . S
Eu817 O831 2.471 . S
Eu817 O832 2.349 . S
Eu817 O835 2.392 . S
Eu817 O836 2.418 . S
Eu817 C846 2.828 . S
C818 O836 1.244 . S
C818 O839 1.265 . S
C819 C820 1.379 . S
C819 C823 1.373 . S
C819 C825 1.505 . S
C820 C819 1.379 . S
C820 C822 1.369 . S
C820 H848 0.930 . S
C821 C823 1.383 . S
C821 C824 1.382 . S
C821 H849 0.930 . S
C822 C820 1.369 . S
C822 C824 1.392 . S
C822 H850 0.930 . S
C823 C819 1.373 . S
C823 C821 1.383 . S
C823 H851 0.931 . S
C824 C821 1.382 . S
C824 C822 1.392 . S
C825 Eu816 2.828 . S
C825 C819 1.505 . S
C825 O837 1.249 . S
C825 O838 1.244 . S
O826 Eu817 2.373 . S
O826 C828 1.258 . S
O827 Eu816 2.392 . S
O827 C828 1.242 . S
C828 O826 1.258 . S
C828 O827 1.242 . S
O829 Eu816 2.418 . S
O829 C833 1.244 . S
O830 Eu817 2.488 . S
O830 C846 1.249 . S
O831 Eu817 2.471 . S
O831 C846 1.244 . S
O832 Eu817 2.349 . S
O832 C833 1.265 . S
C833 O829 1.244 . S
C833 O832 1.265 . S
O834 Eu816 2.373 . S
O834 C847 1.258 . S
O835 Eu817 2.392 . S
O835 C847 1.242 . S
O836 Eu817 2.418 . S
O836 C818 1.244 . S
O837 Eu816 2.488 . S
O837 C825 1.249 . S
O838 Eu816 2.471 . S
O838 C825 1.244 . S
O839 Eu816 2.349 . S
O839 C818 1.265 . S
C840 C841 1.379 . S
C840 C844 1.373 . S
C840 C846 1.505 . S
C841 C840 1.379 . S
C841 C843 1.369 . S
C841 H852 0.930 . S
C842 C844 1.383 . S
C842 C845 1.382 . S
C842 H853 0.930 . S
C843 C841 1.369 . S
C843 C845 1.392 . S
C843 H854 0.930 . S
C844 C840 1.373 . S
C844 C842 1.383 . S
C844 H855 0.931 . S
C845 C842 1.382 . S
C845 C843 1.392 . S
C846 Eu817 2.828 . S
C846 O830 1.249 . S
C846 O831 1.244 . S
C846 C840 1.505 . S
C847 O834 1.258 . S
C847 O835 1.242 . S
H848 C820 0.930 . S
H849 C821 0.930 . S
H850 C822 0.930 . S
H851 C823 0.931 . S
H852 C841 0.930 . S
H853 C842 0.930 . S
H854 C843 0.930 . S
H855 C844 0.931 . S
Eu856 C865 2.828 . S
Eu856 O867 2.392 . S
Eu856 O869 2.418 . S
Eu856 O874 2.373 . S
Eu856 O877 2.488 . S
Eu856 O878 2.471 . S
Eu856 O879 2.349 . S
Eu857 O866 2.373 . S
Eu857 O870 2.488 . S
Eu857 O871 2.471 . S
Eu857 O872 2.349 . S
Eu857 O875 2.392 . S
Eu857 O876 2.418 . S
Eu857 C886 2.828 . S
C858 O876 1.244 . S
C858 O879 1.265 . S
C859 C860 1.379 . S
C859 C863 1.373 . S
C859 C865 1.505 . S
C860 C859 1.379 . S
C860 C862 1.369 . S
C860 H888 0.930 . S
C861 C863 1.383 . S
C861 C864 1.382 . S
C861 H889 0.930 . S
C862 C860 1.369 . S
C862 C864 1.392 . S
C862 H890 0.930 . S
C863 C859 1.373 . S
C863 C861 1.383 . S
C863 H891 0.931 . S
C864 C861 1.382 . S
C864 C862 1.392 . S
C865 Eu856 2.828 . S
C865 C859 1.505 . S
C865 O877 1.249 . S
C865 O878 1.244 . S
O866 Eu857 2.373 . S
O866 C868 1.258 . S
O867 Eu856 2.392 . S
O867 C868 1.242 . S
C868 O866 1.258 . S
C868 O867 1.242 . S
O869 Eu856 2.418 . S
O869 C873 1.244 . S
O870 Eu857 2.488 . S
O870 C886 1.249 . S
O871 Eu857 2.471 . S
O871 C886 1.244 . S
O872 Eu857 2.349 . S
O872 C873 1.265 . S
C873 O869 1.244 . S
C873 O872 1.265 . S
O874 Eu856 2.373 . S
O874 C887 1.258 . S
O875 Eu857 2.392 . S
O875 C887 1.242 . S
O876 Eu857 2.418 . S
O876 C858 1.244 . S
O877 Eu856 2.488 . S
O877 C865 1.249 . S
O878 Eu856 2.471 . S
O878 C865 1.244 . S
O879 Eu856 2.349 . S
O879 C858 1.265 . S
C880 C881 1.379 . S
C880 C884 1.373 . S
C880 C886 1.505 . S
C881 C880 1.379 . S
C881 C883 1.369 . S
C881 H892 0.930 . S
C882 C884 1.383 . S
C882 C885 1.382 . S
C882 H893 0.930 . S
C883 C881 1.369 . S
C883 C885 1.392 . S
C883 H894 0.930 . S
C884 C880 1.373 . S
C884 C882 1.383 . S
C884 H895 0.931 . S
C885 C882 1.382 . S
C885 C883 1.392 . S
C886 Eu857 2.828 . S
C886 O870 1.249 . S
C886 O871 1.244 . S
C886 C880 1.505 . S
C887 O874 1.258 . S
C887 O875 1.242 . S
H888 C860 0.930 . S
H889 C861 0.930 . S
H890 C862 0.930 . S
H891 C863 0.931 . S
H892 C881 0.930 . S
H893 C882 0.930 . S
H894 C883 0.930 . S
H895 C884 0.931 . S
Eu896 C905 2.828 . S
Eu896 O907 2.392 . S
Eu896 O909 2.418 . S
Eu896 O914 2.373 . S
Eu896 O917 2.488 . S
Eu896 O918 2.471 . S
Eu896 O919 2.349 . S
Eu897 O906 2.373 . S
Eu897 O910 2.488 . S
Eu897 O911 2.471 . S
Eu897 O912 2.349 . S
Eu897 O915 2.392 . S
Eu897 O916 2.418 . S
Eu897 C926 2.828 . S
C898 O916 1.244 . S
C898 O919 1.265 . S
C899 C900 1.379 . S
C899 C903 1.373 . S
C899 C905 1.505 . S
C900 C899 1.379 . S
C900 C902 1.369 . S
C900 H928 0.930 . S
C901 C903 1.383 . S
C901 C904 1.382 . S
C901 H929 0.930 . S
C902 C900 1.369 . S
C902 C904 1.392 . S
C902 H930 0.930 . S
C903 C899 1.373 . S
C903 C901 1.383 . S
C903 H931 0.931 . S
C904 C901 1.382 . S
C904 C902 1.392 . S
C905 Eu896 2.828 . S
C905 C899 1.505 . S
C905 O917 1.249 . S
C905 O918 1.244 . S
O906 Eu897 2.373 . S
O906 C908 1.258 . S
O907 Eu896 2.392 . S
O907 C908 1.242 . S
C908 O906 1.258 . S
C908 O907 1.242 . S
O909 Eu896 2.418 . S
O909 C913 1.244 . S
O910 Eu897 2.488 . S
O910 C926 1.249 . S
O911 Eu897 2.471 . S
O911 C926 1.244 . S
O912 Eu897 2.349 . S
O912 C913 1.265 . S
C913 O909 1.244 . S
C913 O912 1.265 . S
O914 Eu896 2.373 . S
O914 C927 1.258 . S
O915 Eu897 2.392 . S
O915 C927 1.242 . S
O916 Eu897 2.418 . S
O916 C898 1.244 . S
O917 Eu896 2.488 . S
O917 C905 1.249 . S
O918 Eu896 2.471 . S
O918 C905 1.244 . S
O919 Eu896 2.349 . S
O919 C898 1.265 . S
C920 C921 1.379 . S
C920 C924 1.373 . S
C920 C926 1.505 . S
C921 C920 1.379 . S
C921 C923 1.369 . S
C921 H932 0.930 . S
C922 C924 1.383 . S
C922 C925 1.382 . S
C922 H933 0.930 . S
C923 C921 1.369 . S
C923 C925 1.392 . S
C923 H934 0.930 . S
C924 C920 1.373 . S
C924 C922 1.383 . S
C924 H935 0.931 . S
C925 C922 1.382 . S
C925 C923 1.392 . S
C926 Eu897 2.828 . S
C926 O910 1.249 . S
C926 O911 1.244 . S
C926 C920 1.505 . S
C927 O914 1.258 . S
C927 O915 1.242 . S
H928 C900 0.930 . S
H929 C901 0.930 . S
H930 C902 0.930 . S
H931 C903 0.931 . S
H932 C921 0.930 . S
H933 C922 0.930 . S
H934 C923 0.930 . S
H935 C924 0.931 . S
Eu936 C945 2.828 1_554 S
Eu936 O947 2.392 . S
Eu936 O949 2.418 1_554 S
Eu936 O954 2.373 1_554 S
Eu936 O957 2.488 1_554 S
Eu936 O958 2.471 . S
Eu936 O959 2.349 . S
Eu937 O946 2.373 . S
Eu937 O950 2.488 1_455 S
Eu937 O951 2.471 1_455 S
Eu937 O952 2.349 1_554 S
Eu937 O955 2.392 . S
Eu937 O956 2.418 . S
Eu937 C966 2.828 1_455 S
C938 O956 1.244 . S
C938 O959 1.265 . S
C939 C940 1.379 1_556 S
C939 C943 1.373 . S
C939 C945 1.505 . S
C940 C939 1.379 1_554 S
C940 C942 1.369 . S
C940 H968 0.930 . S
C941 C943 1.383 . S
C941 C944 1.382 . S
C941 H969 0.930 . S
C942 C940 1.369 . S
C942 C944 1.392 1_554 S
C942 H970 0.930 . S
C943 C939 1.373 . S
C943 C941 1.383 . S
C943 H971 0.931 . S
C944 C941 1.382 . S
C944 C942 1.392 1_556 S
C945 Eu936 2.828 1_556 S
C945 C939 1.505 . S
C945 O957 1.249 . S
C945 O958 1.244 1_556 S
O946 Eu937 2.373 . S
O946 C948 1.258 . S
O947 Eu936 2.392 . S
O947 C948 1.242 . S
C948 O946 1.258 . S
C948 O947 1.242 . S
O949 Eu936 2.418 1_556 S
O949 C953 1.244 . S
O950 Eu937 2.488 1_655 S
O950 C966 1.249 . S
O951 Eu937 2.471 1_655 S
O951 C966 1.244 . S
O952 Eu937 2.349 1_556 S
O952 C953 1.265 . S
C953 O949 1.244 . S
C953 O952 1.265 . S
O954 Eu936 2.373 1_556 S
O954 C967 1.258 1_556 S
O955 Eu937 2.392 . S
O955 C967 1.242 . S
O956 Eu937 2.418 . S
O956 C938 1.244 . S
O957 Eu936 2.488 1_556 S
O957 C945 1.249 . S
O958 Eu936 2.471 . S
O958 C945 1.244 1_554 S
O959 Eu936 2.349 . S
O959 C938 1.265 . S
C960 C961 1.379 . S
C960 C964 1.373 . S
C960 C966 1.505 . S
C961 C960 1.379 . S
C961 C963 1.369 . S
C961 H972 0.930 . S
C962 C964 1.383 . S
C962 C965 1.382 . S
C962 H973 0.930 . S
C963 C961 1.369 . S
C963 C965 1.392 . S
C963 H974 0.930 . S
C964 C960 1.373 . S
C964 C962 1.383 . S
C964 H975 0.931 . S
C965 C962 1.382 . S
C965 C963 1.392 . S
C966 Eu937 2.828 1_655 S
C966 O950 1.249 . S
C966 O951 1.244 . S
C966 C960 1.505 . S
C967 O954 1.258 1_554 S
C967 O955 1.242 . S
H968 C940 0.930 . S
H969 C941 0.930 . S
H970 C942 0.930 . S
H971 C943 0.931 . S
H972 C961 0.930 . S
H973 C962 0.930 . S
H974 C963 0.930 . S
H975 C964 0.931 . S
C976 C977 1.369 . S
C976 C978 1.419 . S
C976 H980 0.930 . S
C977 C976 1.369 . S
C977 C986 1.429 . S
C978 C976 1.419 . S
C978 C979 1.363 . S
C978 H981 0.929 . S
C979 C978 1.363 . S
C979 C985 1.429 1_556 S
H980 C976 0.930 . S
H981 C978 0.929 . S
S982 N983 1.611 1_455 S
S982 N984 1.610 . S
N983 S982 1.611 1_655 S
N983 C986 1.330 1_654 S
N984 S982 1.610 . S
N984 C985 1.350 . S
C985 C979 1.429 1_554 S
C985 N984 1.350 . S
C985 C986 1.435 1_554 S
C986 C977 1.429 . S
C986 N983 1.330 1_456 S
C986 C985 1.435 1_556 S
C987 C988 1.369 . S
C987 C989 1.419 . S
C987 H991 0.930 . S
C988 C987 1.369 . S
C988 C997 1.429 . S
C989 C987 1.419 . S
C989 C990 1.363 . S
C989 H992 0.929 . S
C990 C989 1.363 . S
C990 C996 1.428 . S
H991 C987 0.930 . S
H992 C989 0.929 . S
S993 N994 1.613 . S
S993 N995 1.610 . S
N994 S993 1.613 . S
N994 C997 1.350 . S
N995 S993 1.610 . S
N995 C996 1.351 . S
C996 C990 1.428 . S
C996 N995 1.351 . S
C996 C997 1.434 . S
C997 C988 1.429 . S
C997 N994 1.350 . S
C997 C996 1.434 . S
C998 C999 1.369 . S
C998 C1000 1.419 . S
C998 H1002 0.930 . S
C999 C998 1.369 . S
C999 C1008 1.429 . S
C1000 C998 1.419 . S
C1000 C1001 1.363 . S
C1000 H1003 0.929 . S
C1001 C1000 1.363 . S
C1001 C1007 1.428 . S
H1002 C998 0.930 . S
H1003 C1000 0.929 . S
S1004 N1005 1.613 . S
S1004 N1006 1.610 . S
N1005 S1004 1.613 . S
N1005 C1008 1.350 . S
N1006 S1004 1.610 . S
N1006 C1007 1.351 . S
C1007 C1001 1.428 . S
C1007 N1006 1.351 . S
C1007 C1008 1.434 . S
C1008 C999 1.429 . S
C1008 N1005 1.350 . S
C1008 C1007 1.434 . S
C1009 C1010 1.369 . S
C1009 C1011 1.419 . S
C1009 H1013 0.930 . S
C1010 C1009 1.369 . S
C1010 C1019 1.429 . S
C1011 C1009 1.419 . S
C1011 C1012 1.363 . S
C1011 H1014 0.929 . S
C1012 C1011 1.363 . S
C1012 C1018 1.428 . S
H1013 C1009 0.930 . S
H1014 C1011 0.929 . S
S1015 N1016 1.613 . S
S1015 N1017 1.610 . S
N1016 S1015 1.613 . S
N1016 C1019 1.350 . S
N1017 S1015 1.610 . S
N1017 C1018 1.351 . S
C1018 C1012 1.428 . S
C1018 N1017 1.351 . S
C1018 C1019 1.434 . S
C1019 C1010 1.429 . S
C1019 N1016 1.350 . S
C1019 C1018 1.434 . S
C1020 C1021 1.369 . S
C1020 C1022 1.419 . S
C1020 H1024 0.930 . S
C1021 C1020 1.369 . S
C1021 C1030 1.429 . S
C1022 C1020 1.419 . S
C1022 C1023 1.363 . S
C1022 H1025 0.929 . S
C1023 C1022 1.363 . S
C1023 C1029 1.428 . S
H1024 C1020 0.930 . S
H1025 C1022 0.929 . S
S1026 N1027 1.613 . S
S1026 N1028 1.610 . S
N1027 S1026 1.613 . S
N1027 C1030 1.350 . S
N1028 S1026 1.610 . S
N1028 C1029 1.351 . S
C1029 C1023 1.428 . S
C1029 N1028 1.351 . S
C1029 C1030 1.434 . S
C1030 C1021 1.429 . S
C1030 N1027 1.350 . S
C1030 C1029 1.434 . S
C1031 C1032 1.369 . S
C1031 C1033 1.419 . S
C1031 H1035 0.930 . S
C1032 C1031 1.369 . S
C1032 C1041 1.429 . S
C1033 C1031 1.419 . S
C1033 C1034 1.363 . S
C1033 H1036 0.929 . S
C1034 C1033 1.363 . S
C1034 C1040 1.428 . S
H1035 C1031 0.930 . S
H1036 C1033 0.929 . S
S1037 N1038 1.613 . S
S1037 N1039 1.610 . S
N1038 S1037 1.613 . S
N1038 C1041 1.350 . S
N1039 S1037 1.610 . S
N1039 C1040 1.351 . S
C1040 C1034 1.428 . S
C1040 N1039 1.351 . S
C1040 C1041 1.434 . S
C1041 C1032 1.429 . S
C1041 N1038 1.350 . S
C1041 C1040 1.434 . S
C1042 C1043 1.369 . S
C1042 C1044 1.419 . S
C1042 H1046 0.930 . S
C1043 C1042 1.369 . S
C1043 C1052 1.429 . S
C1044 C1042 1.419 . S
C1044 C1045 1.363 . S
C1044 H1047 0.929 . S
C1045 C1044 1.363 . S
C1045 C1051 1.428 . S
H1046 C1042 0.930 . S
H1047 C1044 0.929 . S
S1048 N1049 1.613 . S
S1048 N1050 1.610 . S
N1049 S1048 1.613 . S
N1049 C1052 1.350 . S
N1050 S1048 1.610 . S
N1050 C1051 1.351 . S
C1051 C1045 1.428 . S
C1051 N1050 1.351 . S
C1051 C1052 1.434 . S
C1052 C1043 1.429 . S
C1052 N1049 1.350 . S
C1052 C1051 1.434 . S
C1053 C1054 1.369 . S
C1053 C1055 1.419 . S
C1053 H1057 0.930 . S
C1054 C1053 1.369 . S
C1054 C1063 1.429 . S
C1055 C1053 1.419 . S
C1055 C1056 1.363 . S
C1055 H1058 0.929 . S
C1056 C1055 1.363 . S
C1056 C1062 1.428 . S
H1057 C1053 0.930 . S
H1058 C1055 0.929 . S
S1059 N1060 1.613 . S
S1059 N1061 1.610 . S
N1060 S1059 1.613 . S
N1060 C1063 1.350 . S
N1061 S1059 1.610 . S
N1061 C1062 1.351 . S
C1062 C1056 1.428 . S
C1062 N1061 1.351 . S
C1062 C1063 1.434 . S
C1063 C1054 1.429 . S
C1063 N1060 1.350 . S
C1063 C1062 1.434 . S
C1064 C1065 1.369 . S
C1064 C1066 1.419 . S
C1064 H1068 0.930 . S
C1065 C1064 1.369 . S
C1065 C1074 1.429 1_455 S
C1066 C1064 1.419 . S
C1066 C1067 1.363 . S
C1066 H1069 0.929 . S
C1067 C1066 1.363 . S
C1067 C1073 1.428 . S
H1068 C1064 0.930 . S
H1069 C1066 0.929 . S
S1070 N1071 1.613 . S
S1070 N1072 1.610 . S
N1071 S1070 1.613 . S
N1071 C1074 1.350 . S
N1072 S1070 1.610 . S
N1072 C1073 1.351 1_655 S
C1073 C1067 1.428 . S
C1073 N1072 1.351 1_455 S
C1073 C1074 1.434 1_455 S
C1074 C1065 1.429 1_655 S
C1074 N1071 1.350 . S
C1074 C1073 1.434 1_655 S
C1075 C1076 1.369 . S
C1075 C1077 1.419 . S
C1075 H1079 0.930 . S
C1076 C1075 1.369 . S
C1076 C1085 1.429 . S
C1077 C1075 1.419 . S
C1077 C1078 1.363 . S
C1077 H1080 0.929 . S
C1078 C1077 1.363 . S
C1078 C1084 1.428 . S
H1079 C1075 0.930 . S
H1080 C1077 0.929 . S
S1081 N1082 1.613 . S
S1081 N1083 1.610 . S
N1082 S1081 1.613 . S
N1082 C1085 1.350 . S
N1083 S1081 1.610 . S
N1083 C1084 1.351 . S
C1084 C1078 1.428 . S
C1084 N1083 1.351 . S
C1084 C1085 1.434 . S
C1085 C1076 1.429 . S
C1085 N1082 1.350 . S
C1085 C1084 1.434 . S
C1086 C1087 1.369 . S
C1086 C1088 1.419 . S
C1086 H1090 0.930 . S
C1087 C1086 1.369 . S
C1087 C1096 1.429 . S
C1088 C1086 1.419 . S
C1088 C1089 1.363 . S
C1088 H1091 0.929 . S
C1089 C1088 1.363 . S
C1089 C1095 1.428 . S
H1090 C1086 0.930 . S
H1091 C1088 0.929 . S
S1092 N1093 1.613 1_565 S
S1092 N1094 1.610 . S
N1093 S1092 1.613 1_545 S
N1093 C1096 1.350 . S
N1094 S1092 1.610 . S
N1094 C1095 1.351 1_565 S
C1095 C1089 1.428 . S
C1095 N1094 1.351 1_545 S
C1095 C1096 1.434 . S
C1096 C1087 1.429 . S
C1096 N1093 1.350 . S
C1096 C1095 1.434 . S
C1097 C1098 1.369 . S
C1097 C1099 1.419 . S
C1097 H1101 0.930 . S
C1098 C1097 1.369 . S
C1098 C1107 1.429 . S
C1099 C1097 1.419 . S
C1099 C1100 1.363 . S
C1099 H1102 0.929 . S
C1100 C1099 1.363 . S
C1100 C1106 1.428 . S
H1101 C1097 0.930 . S
H1102 C1099 0.929 . S
S1103 N1104 1.613 . S
S1103 N1105 1.610 . S
N1104 S1103 1.613 . S
N1104 C1107 1.350 . S
N1105 S1103 1.610 . S
N1105 C1106 1.351 . S
C1106 C1100 1.428 . S
C1106 N1105 1.351 . S
C1106 C1107 1.434 . S
C1107 C1098 1.429 . S
C1107 N1104 1.350 . S
C1107 C1106 1.434 . S
C1108 C1109 1.369 . S
C1108 C1110 1.419 . S
C1108 H1112 0.930 1_455 S
C1109 C1108 1.369 . S
C1109 C1118 1.429 . S
C1110 C1108 1.419 . S
C1110 C1111 1.363 . S
C1110 H1113 0.929 . S
C1111 C1110 1.363 . S
C1111 C1117 1.428 . S
H1112 C1108 0.930 1_655 S
H1113 C1110 0.929 . S
S1114 N1115 1.613 . S
S1114 N1116 1.610 . S
N1115 S1114 1.613 . S
N1115 C1118 1.350 . S
N1116 S1114 1.610 . S
N1116 C1117 1.351 . S
C1117 C1111 1.428 . S
C1117 N1116 1.351 . S
C1117 C1118 1.434 . S
C1118 C1109 1.429 . S
C1118 N1115 1.350 . S
C1118 C1117 1.434 . S
C1119 C1120 1.369 . S
C1119 C1121 1.419 . S
C1119 H1123 0.930 . S
C1120 C1119 1.369 . S
C1120 C1129 1.429 . S
C1121 C1119 1.419 . S
C1121 C1122 1.363 . S
C1121 H1124 0.929 . S
C1122 C1121 1.363 . S
C1122 C1128 1.428 . S
H1123 C1119 0.930 . S
H1124 C1121 0.929 . S
S1125 N1126 1.613 . S
S1125 N1127 1.610 . S
N1126 S1125 1.613 . S
N1126 C1129 1.350 . S
N1127 S1125 1.610 . S
N1127 C1128 1.351 . S
C1128 C1122 1.428 . S
C1128 N1127 1.351 . S
C1128 C1129 1.434 . S
C1129 C1120 1.429 . S
C1129 N1126 1.350 . S
C1129 C1128 1.434 . S
C1130 C1131 1.369 . S
C1130 C1132 1.419 . S
C1130 H1134 0.930 . S
C1131 C1130 1.369 . S
C1131 C1140 1.429 . S
C1132 C1130 1.419 . S
C1132 C1133 1.363 . S
C1132 H1135 0.929 . S
C1133 C1132 1.363 . S
C1133 C1139 1.428 . S
H1134 C1130 0.930 . S
H1135 C1132 0.929 . S
S1136 N1137 1.613 . S
S1136 N1138 1.610 . S
N1137 S1136 1.613 . S
N1137 C1140 1.350 . S
N1138 S1136 1.610 . S
N1138 C1139 1.351 . S
C1139 C1133 1.428 . S
C1139 N1138 1.351 . S
C1139 C1140 1.434 . S
C1140 C1131 1.429 . S
C1140 N1137 1.350 . S
C1140 C1139 1.434 . S
C1141 C1142 1.369 . S
C1141 C1143 1.419 . S
C1141 H1145 0.930 . S
C1142 C1141 1.369 . S
C1142 C1151 1.429 . S
C1143 C1141 1.419 . S
C1143 C1144 1.363 . S
C1143 H1146 0.929 . S
C1144 C1143 1.363 . S
C1144 C1150 1.428 . S
H1145 C1141 0.930 . S
H1146 C1143 0.929 . S
S1147 N1148 1.613 . S
S1147 N1149 1.610 . S
N1148 S1147 1.613 . S
N1148 C1151 1.350 . S
N1149 S1147 1.610 . S
N1149 C1150 1.351 . S
C1150 C1144 1.428 . S
C1150 N1149 1.351 . S
C1150 C1151 1.434 . S
C1151 C1142 1.429 . S
C1151 N1148 1.350 . S
C1151 C1150 1.434 . S
C1152 C1153 1.379 1_565 S
C1152 C1154 1.411 1_565 S
C1152 H1156 0.914 1_554 S
C1153 C1152 1.379 1_545 S
C1153 C1162 1.429 . S
C1154 C1152 1.411 1_545 S
C1154 C1155 1.381 . S
C1154 H1157 0.926 1_544 S
C1155 C1154 1.381 . S
C1155 C1161 1.428 . S
H1156 C1152 0.914 1_556 S
H1157 C1154 0.926 1_566 S
S1158 N1159 1.613 . S
S1158 N1160 1.610 . S
N1159 S1158 1.613 . S
N1159 C1162 1.350 . S
N1160 S1158 1.610 . S
N1160 C1161 1.351 . S
C1161 C1155 1.428 . S
C1161 N1160 1.351 . S
C1161 C1162 1.434 . S
C1162 C1153 1.429 . S
C1162 N1159 1.350 . S
C1162 C1161 1.434 . S
C1163 C1164 1.369 1_556 S
C1163 C1165 1.419 . S
C1163 H1167 0.930 . S
C1164 C1163 1.369 1_554 S
C1164 C1173 1.429 . S
C1165 C1163 1.419 . S
C1165 C1166 1.363 1_556 S
C1165 H1168 0.929 . S
C1166 C1165 1.363 1_554 S
C1166 C1172 1.428 . S
H1167 C1163 0.930 . S
H1168 C1165 0.929 . S
S1169 N1170 1.613 . S
S1169 N1171 1.610 . S
N1170 S1169 1.613 . S
N1170 C1173 1.350 . S
N1171 S1169 1.610 . S
N1171 C1172 1.351 . S
C1172 C1166 1.428 . S
C1172 N1171 1.351 . S
C1172 C1173 1.434 . S
C1173 C1164 1.429 . S
C1173 N1170 1.350 . S
C1173 C1172 1.434 . S
C1174 C1175 1.369 . S
C1174 C1176 1.419 . S
C1174 H1178 0.930 . S
C1175 C1174 1.369 . S
C1175 C1184 1.429 . S
C1176 C1174 1.419 . S
C1176 C1177 1.363 . S
C1176 H1179 0.929 . S
C1177 C1176 1.363 . S
C1177 C1183 1.428 . S
H1178 C1174 0.930 . S
H1179 C1176 0.929 . S
S1180 N1181 1.613 . S
S1180 N1182 1.610 . S
N1181 S1180 1.613 . S
N1181 C1184 1.350 . S
N1182 S1180 1.610 . S
N1182 C1183 1.351 . S
C1183 C1177 1.428 . S
C1183 N1182 1.351 . S
C1183 C1184 1.434 . S
C1184 C1175 1.429 . S
C1184 N1181 1.350 . S
C1184 C1183 1.434 . S
C1185 C1186 1.369 . S
C1185 C1187 1.419 . S
C1185 H1189 0.930 . S
C1186 C1185 1.369 . S
C1186 C1195 1.429 . S
C1187 C1185 1.419 . S
C1187 C1188 1.363 . S
C1187 H1190 0.929 . S
C1188 C1187 1.363 . S
C1188 C1194 1.428 . S
H1189 C1185 0.930 . S
H1190 C1187 0.929 . S
S1191 N1192 1.613 . S
S1191 N1193 1.610 . S
N1192 S1191 1.613 . S
N1192 C1195 1.350 . S
N1193 S1191 1.610 . S
N1193 C1194 1.351 . S
C1194 C1188 1.428 . S
C1194 N1193 1.351 . S
C1194 C1195 1.434 . S
C1195 C1186 1.429 . S
C1195 N1192 1.350 . S
C1195 C1194 1.434 . S
C1196 C1197 1.369 . S
C1196 C1198 1.419 . S
C1196 H1200 0.930 . S
C1197 C1196 1.369 . S
C1197 C1206 1.429 . S
C1198 C1196 1.419 . S
C1198 C1199 1.363 . S
C1198 H1201 0.929 . S
C1199 C1198 1.363 . S
C1199 C1205 1.428 . S
H1200 C1196 0.930 . S
H1201 C1198 0.929 . S
S1202 N1203 1.613 . S
S1202 N1204 1.610 . S
N1203 S1202 1.613 . S
N1203 C1206 1.350 . S
N1204 S1202 1.610 . S
N1204 C1205 1.351 . S
C1205 C1199 1.428 . S
C1205 N1204 1.351 . S
C1205 C1206 1.434 . S
C1206 C1197 1.429 . S
C1206 N1203 1.350 . S
C1206 C1205 1.434 . S
C1207 C1208 1.369 . S
C1207 C1209 1.419 . S
C1207 H1211 0.930 . S
C1208 C1207 1.369 . S
C1208 C1217 1.429 . S
C1209 C1207 1.419 . S
C1209 C1210 1.363 . S
C1209 H1212 0.929 . S
C1210 C1209 1.363 . S
C1210 C1216 1.428 . S
H1211 C1207 0.930 . S
H1212 C1209 0.929 . S
S1213 N1214 1.613 . S
S1213 N1215 1.610 . S
N1214 S1213 1.613 . S
N1214 C1217 1.350 . S
N1215 S1213 1.610 . S
N1215 C1216 1.351 . S
C1216 C1210 1.428 . S
C1216 N1215 1.351 . S
C1216 C1217 1.434 . S
C1217 C1208 1.429 . S
C1217 N1214 1.350 . S
C1217 C1216 1.434 . S
C1218 C1219 1.369 . S
C1218 C1220 1.419 . S
C1218 H1222 0.930 . S
C1219 C1218 1.369 . S
C1219 C1228 1.429 . S
C1220 C1218 1.419 . S
C1220 C1221 1.363 . S
C1220 H1223 0.929 . S
C1221 C1220 1.363 . S
C1221 C1227 1.428 . S
H1222 C1218 0.930 . S
H1223 C1220 0.929 . S
S1224 N1225 1.613 . S
S1224 N1226 1.610 . S
N1225 S1224 1.613 . S
N1225 C1228 1.350 . S
N1226 S1224 1.610 . S
N1226 C1227 1.351 . S
C1227 C1221 1.428 . S
C1227 N1226 1.351 . S
C1227 C1228 1.434 . S
C1228 C1219 1.429 . S
C1228 N1225 1.350 . S
C1228 C1227 1.434 . S
C1229 C1230 1.369 . S
C1229 C1231 1.419 . S
C1229 H1233 0.930 . S
C1230 C1229 1.369 . S
C1230 C1239 1.429 . S
C1231 C1229 1.419 . S
C1231 C1232 1.363 . S
C1231 H1234 0.929 . S
C1232 C1231 1.363 . S
C1232 C1238 1.428 . S
H1233 C1229 0.930 . S
H1234 C1231 0.929 . S
S1235 N1236 1.613 . S
S1235 N1237 1.610 . S
N1236 S1235 1.613 . S
N1236 C1239 1.350 . S
N1237 S1235 1.610 . S
N1237 C1238 1.351 . S
C1238 C1232 1.428 . S
C1238 N1237 1.351 . S
C1238 C1239 1.434 . S
C1239 C1230 1.429 . S
C1239 N1236 1.350 . S
C1239 C1238 1.434 . S
C1240 C1241 1.369 . S
C1240 C1242 1.419 . S
C1240 H1244 0.930 . S
C1241 C1240 1.369 . S
C1241 C1250 1.429 . S
C1242 C1240 1.419 . S
C1242 C1243 1.363 . S
C1242 H1245 0.929 . S
C1243 C1242 1.363 . S
C1243 C1249 1.428 . S
H1244 C1240 0.930 . S
H1245 C1242 0.929 . S
S1246 N1247 1.613 . S
S1246 N1248 1.610 . S
N1247 S1246 1.613 . S
N1247 C1250 1.350 . S
N1248 S1246 1.610 . S
N1248 C1249 1.351 . S
C1249 C1243 1.428 . S
C1249 N1248 1.351 . S
C1249 C1250 1.434 . S
C1250 C1241 1.429 . S
C1250 N1247 1.350 . S
C1250 C1249 1.434 . S
C1251 C1252 1.369 . S
C1251 C1253 1.419 . S
C1251 H1255 0.930 . S
C1252 C1251 1.369 . S
C1252 C1261 1.429 . S
C1253 C1251 1.419 . S
C1253 C1254 1.363 . S
C1253 H1256 0.929 . S
C1254 C1253 1.363 . S
C1254 C1260 1.428 . S
H1255 C1251 0.930 . S
H1256 C1253 0.929 . S
S1257 N1258 1.613 . S
S1257 N1259 1.610 . S
N1258 S1257 1.613 . S
N1258 C1261 1.350 . S
N1259 S1257 1.610 . S
N1259 C1260 1.351 . S
C1260 C1254 1.428 . S
C1260 N1259 1.351 . S
C1260 C1261 1.434 . S
C1261 C1252 1.429 . S
C1261 N1258 1.350 . S
C1261 C1260 1.434 . S
C1262 C1263 1.369 . S
C1262 C1264 1.419 . S
C1262 H1266 0.930 . S
C1263 C1262 1.369 . S
C1263 C1272 1.429 . S
C1264 C1262 1.419 . S
C1264 C1265 1.363 . S
C1264 H1267 0.929 . S
C1265 C1264 1.363 . S
C1265 C1271 1.428 . S
H1266 C1262 0.930 . S
H1267 C1264 0.929 . S
S1268 N1269 1.613 . S
S1268 N1270 1.610 . S
N1269 S1268 1.613 . S
N1269 C1272 1.350 . S
N1270 S1268 1.610 . S
N1270 C1271 1.351 . S
C1271 C1265 1.428 . S
C1271 N1270 1.351 . S
C1271 C1272 1.434 . S
C1272 C1263 1.429 . S
C1272 N1269 1.350 . S
C1272 C1271 1.434 . S
C1273 C1274 1.369 . S
C1273 C1275 1.419 . S
C1273 H1277 0.930 . S
C1274 C1273 1.369 . S
C1274 C1283 1.429 . S
C1275 C1273 1.419 . S
C1275 C1276 1.363 . S
C1275 H1278 0.929 . S
C1276 C1275 1.363 . S
C1276 C1282 1.428 . S
H1277 C1273 0.930 . S
H1278 C1275 0.929 . S
S1279 N1280 1.613 . S
S1279 N1281 1.610 . S
N1280 S1279 1.613 . S
N1280 C1283 1.350 . S
N1281 S1279 1.610 . S
N1281 C1282 1.351 . S
C1282 C1276 1.428 . S
C1282 N1281 1.351 . S
C1282 C1283 1.434 . S
C1283 C1274 1.429 . S
C1283 N1280 1.350 . S
C1283 C1282 1.434 . S
C1284 C1285 1.369 . S
C1284 C1286 1.419 . S
C1284 H1288 0.930 . S
C1285 C1284 1.369 . S
C1285 C1294 1.429 . S
C1286 C1284 1.419 . S
C1286 C1287 1.363 . S
C1286 H1289 0.929 . S
C1287 C1286 1.363 . S
C1287 C1293 1.428 . S
H1288 C1284 0.930 . S
H1289 C1286 0.929 . S
S1290 N1291 1.613 . S
S1290 N1292 1.610 . S
N1291 S1290 1.613 . S
N1291 C1294 1.350 . S
N1292 S1290 1.610 . S
N1292 C1293 1.351 . S
C1293 C1287 1.428 . S
C1293 N1292 1.351 . S
C1293 C1294 1.434 . S
C1294 C1285 1.429 . S
C1294 N1291 1.350 . S
C1294 C1293 1.434 . S
C1295 C1296 1.369 . S
C1295 C1297 1.419 . S
C1295 H1299 0.930 . S
C1296 C1295 1.369 . S
C1296 C1305 1.429 . S
C1297 C1295 1.419 . S
C1297 C1298 1.363 . S
C1297 H1300 0.929 . S
C1298 C1297 1.363 . S
C1298 C1304 1.428 . S
H1299 C1295 0.930 . S
H1300 C1297 0.929 . S
S1301 N1302 1.613 . S
S1301 N1303 1.610 . S
N1302 S1301 1.613 . S
N1302 C1305 1.350 . S
N1303 S1301 1.610 . S
N1303 C1304 1.351 . S
C1304 C1298 1.428 . S
C1304 N1303 1.351 . S
C1304 C1305 1.434 . S
C1305 C1296 1.429 . S
C1305 N1302 1.350 . S
C1305 C1304 1.434 . S
C1306 C1307 1.369 . S
C1306 C1308 1.419 1_556 S
C1306 H1310 0.930 1_556 S
C1307 C1306 1.369 . S
C1307 C1316 1.429 . S
C1308 C1306 1.419 1_554 S
C1308 C1309 1.363 1_554 S
C1308 H1311 0.929 . S
C1309 C1308 1.363 1_556 S
C1309 C1315 1.428 . S
H1310 C1306 0.930 1_554 S
H1311 C1308 0.929 . S
S1312 N1313 1.613 . S
S1312 N1314 1.610 . S
N1313 S1312 1.613 . S
N1313 C1316 1.350 . S
N1314 S1312 1.610 . S
N1314 C1315 1.351 . S
C1315 C1309 1.428 . S
C1315 N1314 1.351 . S
C1315 C1316 1.434 . S
C1316 C1307 1.429 . S
C1316 N1313 1.350 . S
C1316 C1315 1.434 . S
C1317 C1318 1.369 . S
C1317 C1319 1.419 . S
C1317 H1321 0.930 . S
C1318 C1317 1.369 . S
C1318 C1327 1.429 . S
C1319 C1317 1.419 . S
C1319 C1320 1.363 . S
C1319 H1322 0.929 . S
C1320 C1319 1.363 . S
C1320 C1326 1.428 . S
H1321 C1317 0.930 . S
H1322 C1319 0.929 . S
S1323 N1324 1.613 . S
S1323 N1325 1.610 . S
N1324 S1323 1.613 . S
N1324 C1327 1.350 . S
N1325 S1323 1.610 . S
N1325 C1326 1.351 . S
C1326 C1320 1.428 . S
C1326 N1325 1.351 . S
C1326 C1327 1.434 . S
C1327 C1318 1.429 . S
C1327 N1324 1.350 . S
C1327 C1326 1.434 . S
C1328 C1329 1.369 . S
C1328 C1330 1.419 . S
C1328 H1332 0.930 1_545 S
C1329 C1328 1.369 . S
C1329 C1338 1.429 . S
C1330 C1328 1.419 . S
C1330 C1331 1.363 . S
C1330 H1333 0.929 1_545 S
C1331 C1330 1.363 . S
C1331 C1337 1.428 . S
H1332 C1328 0.930 1_565 S
H1333 C1330 0.929 1_565 S
S1334 N1335 1.613 . S
S1334 N1336 1.610 . S
N1335 S1334 1.613 . S
N1335 C1338 1.350 . S
N1336 S1334 1.610 . S
N1336 C1337 1.351 . S
C1337 C1331 1.428 . S
C1337 N1336 1.351 . S
C1337 C1338 1.434 . S
C1338 C1329 1.429 . S
C1338 N1335 1.350 . S
C1338 C1337 1.434 . S
C1339 C1340 1.369 . S
C1339 C1341 1.419 . S
C1339 H1343 0.930 . S
C1340 C1339 1.369 . S
C1340 C1349 1.429 . S
C1341 C1339 1.419 . S
C1341 C1342 1.363 . S
C1341 H1344 0.929 . S
C1342 C1341 1.363 . S
C1342 C1348 1.428 . S
H1343 C1339 0.930 . S
H1344 C1341 0.929 . S
S1345 N1346 1.613 . S
S1345 N1347 1.610 . S
N1346 S1345 1.613 . S
N1346 C1349 1.350 . S
N1347 S1345 1.610 . S
N1347 C1348 1.351 . S
C1348 C1342 1.428 . S
C1348 N1347 1.351 . S
C1348 C1349 1.434 . S
C1349 C1340 1.429 . S
C1349 N1346 1.350 . S
C1349 C1348 1.434 . S
C1350 C1351 1.369 1_565 S
C1350 C1352 1.419 1_565 S
C1350 H1354 0.930 . S
C1351 C1350 1.369 1_545 S
C1351 C1360 1.429 . S
C1352 C1350 1.419 1_545 S
C1352 C1353 1.363 . S
C1352 H1355 0.929 1_545 S
C1353 C1352 1.363 . S
C1353 C1359 1.428 . S
H1354 C1350 0.930 . S
H1355 C1352 0.929 1_565 S
S1356 N1357 1.613 . S
S1356 N1358 1.610 . S
N1357 S1356 1.613 . S
N1357 C1360 1.350 . S
N1358 S1356 1.610 . S
N1358 C1359 1.351 . S
C1359 C1353 1.428 . S
C1359 N1358 1.351 . S
C1359 C1360 1.434 . S
C1360 C1351 1.429 . S
C1360 N1357 1.350 . S
C1360 C1359 1.434 . S
C1361 C1362 1.369 . S
C1361 C1363 1.419 . S
C1361 H1365 0.930 . S
C1362 C1361 1.369 . S
C1362 C1371 1.429 . S
C1363 C1361 1.419 . S
C1363 C1364 1.363 . S
C1363 H1366 0.929 . S
C1364 C1363 1.363 . S
C1364 C1370 1.428 . S
H1365 C1361 0.930 . S
H1366 C1363 0.929 . S
S1367 N1368 1.613 . S
S1367 N1369 1.610 . S
N1368 S1367 1.613 . S
N1368 C1371 1.350 . S
N1369 S1367 1.610 . S
N1369 C1370 1.351 . S
C1370 C1364 1.428 . S
C1370 N1369 1.351 . S
C1370 C1371 1.434 . S
C1371 C1362 1.429 . S
C1371 N1368 1.350 . S
C1371 C1370 1.434 . S
C1372 C1373 1.369 . S
C1372 C1374 1.419 . S
C1372 H1376 0.930 . S
C1373 C1372 1.369 . S
C1373 C1382 1.429 . S
C1374 C1372 1.419 . S
C1374 C1375 1.363 . S
C1374 H1377 0.929 . S
C1375 C1374 1.363 . S
C1375 C1381 1.428 . S
H1376 C1372 0.930 . S
H1377 C1374 0.929 . S
S1378 N1379 1.613 . S
S1378 N1380 1.610 . S
N1379 S1378 1.613 . S
N1379 C1382 1.350 . S
N1380 S1378 1.610 . S
N1380 C1381 1.351 . S
C1381 C1375 1.428 . S
C1381 N1380 1.351 . S
C1381 C1382 1.434 . S
C1382 C1373 1.429 . S
C1382 N1379 1.350 . S
C1382 C1381 1.434 . S
C1383 C1384 1.369 . S
C1383 C1385 1.419 . S
C1383 H1387 0.930 . S
C1384 C1383 1.369 . S
C1384 C1393 1.429 . S
C1385 C1383 1.419 . S
C1385 C1386 1.363 . S
C1385 H1388 0.929 . S
C1386 C1385 1.363 . S
C1386 C1392 1.428 . S
H1387 C1383 0.930 . S
H1388 C1385 0.929 . S
S1389 N1390 1.613 . S
S1389 N1391 1.610 . S
N1390 S1389 1.613 . S
N1390 C1393 1.350 . S
N1391 S1389 1.610 . S
N1391 C1392 1.351 . S
C1392 C1386 1.428 . S
C1392 N1391 1.351 . S
C1392 C1393 1.434 . S
C1393 C1384 1.429 . S
C1393 N1390 1.350 . S
C1393 C1392 1.434 . S
C1394 C1395 1.369 . S
C1394 C1396 1.419 . S
C1394 H1398 0.930 . S
C1395 C1394 1.369 . S
C1395 C1404 1.429 1_565 S
C1396 C1394 1.419 . S
C1396 C1397 1.363 . S
C1396 H1399 0.929 . S
C1397 C1396 1.363 . S
C1397 C1403 1.428 1_565 S
H1398 C1394 0.930 . S
H1399 C1396 0.929 . S
S1400 N1401 1.613 . S
S1400 N1402 1.610 . S
N1401 S1400 1.613 . S
N1401 C1404 1.350 . S
N1402 S1400 1.610 . S
N1402 C1403 1.351 . S
C1403 C1397 1.428 1_545 S
C1403 N1402 1.351 . S
C1403 C1404 1.434 . S
C1404 C1395 1.429 1_545 S
C1404 N1401 1.350 . S
C1404 C1403 1.434 . S
C1405 C1406 1.369 . S
C1405 C1407 1.419 . S
C1405 H1409 0.930 . S
C1406 C1405 1.369 . S
C1406 C1415 1.429 . S
C1407 C1405 1.419 . S
C1407 C1408 1.363 . S
C1407 H1410 0.929 . S
C1408 C1407 1.363 . S
C1408 C1414 1.428 . S
H1409 C1405 0.930 . S
H1410 C1407 0.929 . S
S1411 N1412 1.613 . S
S1411 N1413 1.610 . S
N1412 S1411 1.613 . S
N1412 C1415 1.350 . S
N1413 S1411 1.610 . S
N1413 C1414 1.351 . S
C1414 C1408 1.428 . S
C1414 N1413 1.351 . S
C1414 C1415 1.434 . S
C1415 C1406 1.429 . S
C1415 N1412 1.350 . S
C1415 C1414 1.434 . S
C1416 C1417 1.369 . S
C1416 C1418 1.419 . S
C1416 H1420 0.930 . S
C1417 C1416 1.369 . S
C1417 C1426 1.429 1_554 S
C1418 C1416 1.419 . S
C1418 C1419 1.363 . S
C1418 H1421 0.929 . S
C1419 C1418 1.363 . S
C1419 C1425 1.428 1_554 S
H1420 C1416 0.930 . S
H1421 C1418 0.929 . S
S1422 N1423 1.613 . S
S1422 N1424 1.610 . S
N1423 S1422 1.613 . S
N1423 C1426 1.350 . S
N1424 S1422 1.610 . S
N1424 C1425 1.351 . S
C1425 C1419 1.428 1_556 S
C1425 N1424 1.351 . S
C1425 C1426 1.434 . S
C1426 C1417 1.429 1_556 S
C1426 N1423 1.350 . S
C1426 C1425 1.434 . S
C1427 C1428 1.369 . S
C1427 C1429 1.419 . S
C1427 H1431 0.930 1_554 S
C1428 C1427 1.369 . S
C1428 C1437 1.429 . S
C1429 C1427 1.419 . S
C1429 C1430 1.363 . S
C1429 H1432 0.929 1_554 S
C1430 C1429 1.363 . S
C1430 C1436 1.428 . S
H1431 C1427 0.930 1_556 S
H1432 C1429 0.929 1_556 S
S1433 N1434 1.613 . S
S1433 N1435 1.610 . S
N1434 S1433 1.613 . S
N1434 C1437 1.350 . S
N1435 S1433 1.610 . S
N1435 C1436 1.351 . S
C1436 C1430 1.428 . S
C1436 N1435 1.351 . S
C1436 C1437 1.434 . S
C1437 C1428 1.429 . S
C1437 N1434 1.350 . S
C1437 C1436 1.434 . S
C1438 C1439 1.369 . S
C1438 C1440 1.419 . S
C1438 H1442 0.930 . S
C1439 C1438 1.369 . S
C1439 C1448 1.429 . S
C1440 C1438 1.419 . S
C1440 C1441 1.363 . S
C1440 H1443 0.929 . S
C1441 C1440 1.363 . S
C1441 C1447 1.428 . S
H1442 C1438 0.930 . S
H1443 C1440 0.929 . S
S1444 N1445 1.613 . S
S1444 N1446 1.610 . S
N1445 S1444 1.613 . S
N1445 C1448 1.350 . S
N1446 S1444 1.610 . S
N1446 C1447 1.351 . S
C1447 C1441 1.428 . S
C1447 N1446 1.351 . S
C1447 C1448 1.434 . S
C1448 C1439 1.429 . S
C1448 N1445 1.350 . S
C1448 C1447 1.434 . S
C1449 C1450 1.369 . S
C1449 C1451 1.419 . S
C1449 H1453 0.930 . S
C1450 C1449 1.369 . S
C1450 C1459 1.429 . S
C1451 C1449 1.419 . S
C1451 C1452 1.363 . S
C1451 H1454 0.929 . S
C1452 C1451 1.363 . S
C1452 C1458 1.428 . S
H1453 C1449 0.930 . S
H1454 C1451 0.929 . S
S1455 N1456 1.613 . S
S1455 N1457 1.610 . S
N1456 S1455 1.613 . S
N1456 C1459 1.350 . S
N1457 S1455 1.610 . S
N1457 C1458 1.351 . S
C1458 C1452 1.428 . S
C1458 N1457 1.351 . S
C1458 C1459 1.434 . S
C1459 C1450 1.429 . S
C1459 N1456 1.350 . S
C1459 C1458 1.434 . S
C1460 C1461 1.369 . S
C1460 C1462 1.419 . S
C1460 H1464 0.930 . S
C1461 C1460 1.369 . S
C1461 C1470 1.429 1_545 S
C1462 C1460 1.419 . S
C1462 C1463 1.363 1_545 S
C1462 H1465 0.929 . S
C1463 C1462 1.363 1_565 S
C1463 C1469 1.428 . S
H1464 C1460 0.930 . S
H1465 C1462 0.929 . S
S1466 N1467 1.613 . S
S1466 N1468 1.610 . S
N1467 S1466 1.613 . S
N1467 C1470 1.350 . S
N1468 S1466 1.610 . S
N1468 C1469 1.351 . S
C1469 C1463 1.428 . S
C1469 N1468 1.351 . S
C1469 C1470 1.434 . S
C1470 C1461 1.429 1_565 S
C1470 N1467 1.350 . S
C1470 C1469 1.434 . S
C1471 C1472 1.369 . S
C1471 C1473 1.419 . S
C1471 H1475 0.930 . S
C1472 C1471 1.369 . S
C1472 C1481 1.429 . S
C1473 C1471 1.419 . S
C1473 C1474 1.363 . S
C1473 H1476 0.929 . S
C1474 C1473 1.363 . S
C1474 C1480 1.428 . S
H1475 C1471 0.930 . S
H1476 C1473 0.929 . S
S1477 N1478 1.613 . S
S1477 N1479 1.610 . S
N1478 S1477 1.613 . S
N1478 C1481 1.350 . S
N1479 S1477 1.610 . S
N1479 C1480 1.351 . S
C1480 C1474 1.428 . S
C1480 N1479 1.351 . S
C1480 C1481 1.434 . S
C1481 C1472 1.429 . S
C1481 N1478 1.350 . S
C1481 C1480 1.434 . S
C1482 C1483 1.369 . S
C1482 C1484 1.419 . S
C1482 H1486 0.930 . S
C1483 C1482 1.369 . S
C1483 C1492 1.429 . S
C1484 C1482 1.419 . S
C1484 C1485 1.363 . S
C1484 H1487 0.929 . S
C1485 C1484 1.363 . S
C1485 C1491 1.428 . S
H1486 C1482 0.930 . S
H1487 C1484 0.929 . S
S1488 N1489 1.613 . S
S1488 N1490 1.610 . S
N1489 S1488 1.613 . S
N1489 C1492 1.350 . S
N1490 S1488 1.610 . S
N1490 C1491 1.351 . S
C1491 C1485 1.428 . S
C1491 N1490 1.351 . S
C1491 C1492 1.434 . S
C1492 C1483 1.429 . S
C1492 N1489 1.350 . S
C1492 C1491 1.434 . S
C1493 C1494 1.369 . S
C1493 C1495 1.419 . S
C1493 H1497 0.930 . S
C1494 C1493 1.369 . S
C1494 C1503 1.429 . S
C1495 C1493 1.419 . S
C1495 C1496 1.363 . S
C1495 H1498 0.929 . S
C1496 C1495 1.363 . S
C1496 C1502 1.428 . S
H1497 C1493 0.930 . S
H1498 C1495 0.929 . S
S1499 N1500 1.613 . S
S1499 N1501 1.610 . S
N1500 S1499 1.613 . S
N1500 C1503 1.350 . S
N1501 S1499 1.610 . S
N1501 C1502 1.351 . S
C1502 C1496 1.428 . S
C1502 N1501 1.351 . S
C1502 C1503 1.434 . S
C1503 C1494 1.429 . S
C1503 N1500 1.350 . S
C1503 C1502 1.434 . S
C1504 C1505 1.369 . S
C1504 C1506 1.419 . S
C1504 H1508 0.930 . S
C1505 C1504 1.369 . S
C1505 C1514 1.429 . S
C1506 C1504 1.419 . S
C1506 C1507 1.363 . S
C1506 H1509 0.929 . S
C1507 C1506 1.363 . S
C1507 C1513 1.428 . S
H1508 C1504 0.930 . S
H1509 C1506 0.929 . S
S1510 N1511 1.613 . S
S1510 N1512 1.610 . S
N1511 S1510 1.613 . S
N1511 C1514 1.350 . S
N1512 S1510 1.610 . S
N1512 C1513 1.351 . S
C1513 C1507 1.428 . S
C1513 N1512 1.351 . S
C1513 C1514 1.434 . S
C1514 C1505 1.429 . S
C1514 N1511 1.350 . S
C1514 C1513 1.434 . S
C1515 C1516 1.369 . S
C1515 C1517 1.419 . S
C1515 H1519 0.930 . S
C1516 C1515 1.369 . S
C1516 C1525 1.429 . S
C1517 C1515 1.419 . S
C1517 C1518 1.363 . S
C1517 H1520 0.929 . S
C1518 C1517 1.363 . S
C1518 C1524 1.428 . S
H1519 C1515 0.930 . S
H1520 C1517 0.929 . S
S1521 N1522 1.613 . S
S1521 N1523 1.610 . S
N1522 S1521 1.613 . S
N1522 C1525 1.350 . S
N1523 S1521 1.610 . S
N1523 C1524 1.351 . S
C1524 C1518 1.428 . S
C1524 N1523 1.351 . S
C1524 C1525 1.434 . S
C1525 C1516 1.429 . S
C1525 N1522 1.350 . S
C1525 C1524 1.434 . S
C1526 C1527 1.369 . S
C1526 C1528 1.419 1_556 S
C1526 H1530 0.930 . S
C1527 C1526 1.369 . S
C1527 C1536 1.429 . S
C1528 C1526 1.419 1_554 S
C1528 C1529 1.363 . S
C1528 H1531 0.929 . S
C1529 C1528 1.363 . S
C1529 C1535 1.428 1_554 S
H1530 C1526 0.930 . S
H1531 C1528 0.929 . S
S1532 N1533 1.613 . S
S1532 N1534 1.610 . S
N1533 S1532 1.613 . S
N1533 C1536 1.350 . S
N1534 S1532 1.610 . S
N1534 C1535 1.351 . S
C1535 C1529 1.428 1_556 S
C1535 N1534 1.351 . S
C1535 C1536 1.434 . S
C1536 C1527 1.429 . S
C1536 N1533 1.350 . S
C1536 C1535 1.434 . S
C1537 C1538 1.369 . S
C1537 C1539 1.419 1_455 S
C1537 H1541 0.930 . S
C1538 C1537 1.369 . S
C1538 C1547 1.429 . S
C1539 C1537 1.419 1_655 S
C1539 C1540 1.363 . S
C1539 H1542 0.929 . S
C1540 C1539 1.363 . S
C1540 C1546 1.428 1_655 S
H1541 C1537 0.930 . S
H1542 C1539 0.929 . S
S1543 N1544 1.613 . S
S1543 N1545 1.610 . S
N1544 S1543 1.613 . S
N1544 C1547 1.350 . S
N1545 S1543 1.610 . S
N1545 C1546 1.351 . S
C1546 C1540 1.428 1_455 S
C1546 N1545 1.351 . S
C1546 C1547 1.434 . S
C1547 C1538 1.429 . S
C1547 N1544 1.350 . S
C1547 C1546 1.434 . S
C1548 C1549 1.369 . S
C1548 C1550 1.419 . S
C1548 H1552 0.930 . S
C1549 C1548 1.369 . S
C1549 C1558 1.429 . S
C1550 C1548 1.419 . S
C1550 C1551 1.363 . S
C1550 H1553 0.929 . S
C1551 C1550 1.363 . S
C1551 C1557 1.428 . S
H1552 C1548 0.930 . S
H1553 C1550 0.929 . S
S1554 N1555 1.613 . S
S1554 N1556 1.610 . S
N1555 S1554 1.613 . S
N1555 C1558 1.350 . S
N1556 S1554 1.610 . S
N1556 C1557 1.351 . S
C1557 C1551 1.428 . S
C1557 N1556 1.351 . S
C1557 C1558 1.434 . S
C1558 C1549 1.429 . S
C1558 N1555 1.350 . S
C1558 C1557 1.434 . S
C1559 C1560 1.369 . S
C1559 C1561 1.419 . S
C1559 H1563 0.930 . S
C1560 C1559 1.369 . S
C1560 C1569 1.429 . S
C1561 C1559 1.419 . S
C1561 C1562 1.363 . S
C1561 H1564 0.929 . S
C1562 C1561 1.363 . S
C1562 C1568 1.428 . S
H1563 C1559 0.930 . S
H1564 C1561 0.929 . S
S1565 N1566 1.613 . S
S1565 N1567 1.610 . S
N1566 S1565 1.613 . S
N1566 C1569 1.350 . S
N1567 S1565 1.610 . S
N1567 C1568 1.351 . S
C1568 C1562 1.428 . S
C1568 N1567 1.351 . S
C1568 C1569 1.434 . S
C1569 C1560 1.429 . S
C1569 N1566 1.350 . S
C1569 C1568 1.434 . S
C1570 C1571 1.360 1_455 S
C1570 C1572 1.419 . S
C1570 H1574 0.930 1_455 S
C1571 C1570 1.360 1_655 S
C1571 C1580 1.411 1_655 S
C1572 C1570 1.419 . S
C1572 C1573 1.363 . S
C1572 H1575 0.929 . S
C1573 C1572 1.363 . S
C1573 C1579 1.428 . S
H1574 C1570 0.930 1_655 S
H1575 C1572 0.929 . S
S1576 N1577 1.613 . S
S1576 N1578 1.610 . S
N1577 S1576 1.613 . S
N1577 C1580 1.350 . S
N1578 S1576 1.610 . S
N1578 C1579 1.351 . S
C1579 C1573 1.428 . S
C1579 N1578 1.351 . S
C1579 C1580 1.434 . S
C1580 C1571 1.411 1_455 S
C1580 N1577 1.350 . S
C1580 C1579 1.434 . S
C1581 C1582 1.369 . S
C1581 C1583 1.419 . S
C1581 H1585 0.930 . S
C1582 C1581 1.369 . S
C1582 C1591 1.429 . S
C1583 C1581 1.419 . S
C1583 C1584 1.363 . S
C1583 H1586 0.929 . S
C1584 C1583 1.363 . S
C1584 C1590 1.428 . S
H1585 C1581 0.930 . S
H1586 C1583 0.929 . S
S1587 N1588 1.613 . S
S1587 N1589 1.610 . S
N1588 S1587 1.613 . S
N1588 C1591 1.350 . S
N1589 S1587 1.610 . S
N1589 C1590 1.351 . S
C1590 C1584 1.428 . S
C1590 N1589 1.351 . S
C1590 C1591 1.434 . S
C1591 C1582 1.429 . S
C1591 N1588 1.350 . S
C1591 C1590 1.434 . S
C1592 C1593 1.369 . S
C1592 C1594 1.419 . S
C1592 H1596 0.930 . S
C1593 C1592 1.369 . S
C1593 C1602 1.429 . S
C1594 C1592 1.419 . S
C1594 C1595 1.363 . S
C1594 H1597 0.929 . S
C1595 C1594 1.363 . S
C1595 C1601 1.428 . S
H1596 C1592 0.930 . S
H1597 C1594 0.929 . S
S1598 N1599 1.613 . S
S1598 N1600 1.610 . S
N1599 S1598 1.613 . S
N1599 C1602 1.350 . S
N1600 S1598 1.610 . S
N1600 C1601 1.351 . S
C1601 C1595 1.428 . S
C1601 N1600 1.351 . S
C1601 C1602 1.434 . S
C1602 C1593 1.429 . S
C1602 N1599 1.350 . S
C1602 C1601 1.434 . S
C1603 C1604 1.369 . S
C1603 C1605 1.419 . S
C1603 H1607 0.930 . S
C1604 C1603 1.369 . S
C1604 C1613 1.429 . S
C1605 C1603 1.419 . S
C1605 C1606 1.363 . S
C1605 H1608 0.929 . S
C1606 C1605 1.363 . S
C1606 C1612 1.428 . S
H1607 C1603 0.930 . S
H1608 C1605 0.929 . S
S1609 N1610 1.613 . S
S1609 N1611 1.610 . S
N1610 S1609 1.613 . S
N1610 C1613 1.350 . S
N1611 S1609 1.610 . S
N1611 C1612 1.351 . S
C1612 C1606 1.428 . S
C1612 N1611 1.351 . S
C1612 C1613 1.434 . S
C1613 C1604 1.429 . S
C1613 N1610 1.350 . S
C1613 C1612 1.434 . S
C1614 C1615 1.369 . S
C1614 C1616 1.419 . S
C1614 H1618 0.930 . S
C1615 C1614 1.369 . S
C1615 C1624 1.429 . S
C1616 C1614 1.419 . S
C1616 C1617 1.363 . S
C1616 H1619 0.929 . S
C1617 C1616 1.363 . S
C1617 C1623 1.428 . S
H1618 C1614 0.930 . S
H1619 C1616 0.929 . S
S1620 N1621 1.613 . S
S1620 N1622 1.610 . S
N1621 S1620 1.613 . S
N1621 C1624 1.350 . S
N1622 S1620 1.610 . S
N1622 C1623 1.351 . S
C1623 C1617 1.428 . S
C1623 N1622 1.351 . S
C1623 C1624 1.434 . S
C1624 C1615 1.429 . S
C1624 N1621 1.350 . S
C1624 C1623 1.434 . S
C1625 C1626 1.369 . S
C1625 C1627 1.419 . S
C1625 H1629 0.930 . S
C1626 C1625 1.369 . S
C1626 C1635 1.429 . S
C1627 C1625 1.419 . S
C1627 C1628 1.363 . S
C1627 H1630 0.929 . S
C1628 C1627 1.363 . S
C1628 C1634 1.428 . S
H1629 C1625 0.930 . S
H1630 C1627 0.929 . S
S1631 N1632 1.613 . S
S1631 N1633 1.610 . S
N1632 S1631 1.613 . S
N1632 C1635 1.350 . S
N1633 S1631 1.610 . S
N1633 C1634 1.351 . S
C1634 C1628 1.428 . S
C1634 N1633 1.351 . S
C1634 C1635 1.434 . S
C1635 C1626 1.429 . S
C1635 N1632 1.350 . S
C1635 C1634 1.434 . S
C1636 C1637 1.369 . S
C1636 C1638 1.419 . S
C1636 H1640 0.930 . S
C1637 C1636 1.369 . S
C1637 C1646 1.429 . S
C1638 C1636 1.419 . S
C1638 C1639 1.363 . S
C1638 H1641 0.929 . S
C1639 C1638 1.363 . S
C1639 C1645 1.428 . S
H1640 C1636 0.930 . S
H1641 C1638 0.929 . S
S1642 N1643 1.613 . S
S1642 N1644 1.610 . S
N1643 S1642 1.613 . S
N1643 C1646 1.350 . S
N1644 S1642 1.610 . S
N1644 C1645 1.351 . S
C1645 C1639 1.428 . S
C1645 N1644 1.351 . S
C1645 C1646 1.434 . S
C1646 C1637 1.429 . S
C1646 N1643 1.350 . S
C1646 C1645 1.434 . S
C1647 C1648 1.369 . S
C1647 C1649 1.419 . S
C1647 H1651 0.930 . S
C1648 C1647 1.369 . S
C1648 C1657 1.429 . S
C1649 C1647 1.419 . S
C1649 C1650 1.363 . S
C1649 H1652 0.929 . S
C1650 C1649 1.363 . S
C1650 C1656 1.428 . S
H1651 C1647 0.930 . S
H1652 C1649 0.929 . S
S1653 N1654 1.613 . S
S1653 N1655 1.610 . S
N1654 S1653 1.613 . S
N1654 C1657 1.350 . S
N1655 S1653 1.610 . S
N1655 C1656 1.351 . S
C1656 C1650 1.428 . S
C1656 N1655 1.351 . S
C1656 C1657 1.434 . S
C1657 C1648 1.429 . S
C1657 N1654 1.350 . S
C1657 C1656 1.434 . S
C1658 C1659 1.369 . S
C1658 C1660 1.419 . S
C1658 H1662 0.930 . S
C1659 C1658 1.369 . S
C1659 C1668 1.429 . S
C1660 C1658 1.419 . S
C1660 C1661 1.363 . S
C1660 H1663 0.929 . S
C1661 C1660 1.363 . S
C1661 C1667 1.428 . S
H1662 C1658 0.930 . S
H1663 C1660 0.929 . S
S1664 N1665 1.613 . S
S1664 N1666 1.610 . S
N1665 S1664 1.613 . S
N1665 C1668 1.350 . S
N1666 S1664 1.610 . S
N1666 C1667 1.351 . S
C1667 C1661 1.428 . S
C1667 N1666 1.351 . S
C1667 C1668 1.434 . S
C1668 C1659 1.429 . S
C1668 N1665 1.350 . S
C1668 C1667 1.434 . S
C1669 C1670 1.369 . S
C1669 C1671 1.419 . S
C1669 H1673 0.930 . S
C1670 C1669 1.369 . S
C1670 C1679 1.429 . S
C1671 C1669 1.419 . S
C1671 C1672 1.363 . S
C1671 H1674 0.929 . S
C1672 C1671 1.363 . S
C1672 C1678 1.428 . S
H1673 C1669 0.930 . S
H1674 C1671 0.929 . S
S1675 N1676 1.613 . S
S1675 N1677 1.610 . S
N1676 S1675 1.613 . S
N1676 C1679 1.350 . S
N1677 S1675 1.610 . S
N1677 C1678 1.351 . S
C1678 C1672 1.428 . S
C1678 N1677 1.351 . S
C1678 C1679 1.434 . S
C1679 C1670 1.429 . S
C1679 N1676 1.350 . S
C1679 C1678 1.434 . S
C1680 C1681 1.369 . S
C1680 C1682 1.419 . S
C1680 H1684 0.930 . S
C1681 C1680 1.369 . S
C1681 C1690 1.429 . S
C1682 C1680 1.419 . S
C1682 C1683 1.363 . S
C1682 H1685 0.929 . S
C1683 C1682 1.363 . S
C1683 C1689 1.428 . S
H1684 C1680 0.930 . S
H1685 C1682 0.929 . S
S1686 N1687 1.613 . S
S1686 N1688 1.610 . S
N1687 S1686 1.613 . S
N1687 C1690 1.350 . S
N1688 S1686 1.610 . S
N1688 C1689 1.351 . S
C1689 C1683 1.428 . S
C1689 N1688 1.351 . S
C1689 C1690 1.434 . S
C1690 C1681 1.429 . S
C1690 N1687 1.350 . S
C1690 C1689 1.434 . S
C1691 C1692 1.369 . S
C1691 C1693 1.419 . S
C1691 H1695 0.930 . S
C1692 C1691 1.369 . S
C1692 C1701 1.429 . S
C1693 C1691 1.419 . S
C1693 C1694 1.363 . S
C1693 H1696 0.929 . S
C1694 C1693 1.363 . S
C1694 C1700 1.428 . S
H1695 C1691 0.930 . S
H1696 C1693 0.929 . S
S1697 N1698 1.613 . S
S1697 N1699 1.610 . S
N1698 S1697 1.613 . S
N1698 C1701 1.350 . S
N1699 S1697 1.610 . S
N1699 C1700 1.351 . S
C1700 C1694 1.428 . S
C1700 N1699 1.351 . S
C1700 C1701 1.434 . S
C1701 C1692 1.429 . S
C1701 N1698 1.350 . S
C1701 C1700 1.434 . S
C1702 C1703 1.369 . S
C1702 C1704 1.419 . S
C1702 H1706 0.930 . S
C1703 C1702 1.369 . S
C1703 C1712 1.429 . S
C1704 C1702 1.419 . S
C1704 C1705 1.363 . S
C1704 H1707 0.929 . S
C1705 C1704 1.363 . S
C1705 C1711 1.428 . S
H1706 C1702 0.930 . S
H1707 C1704 0.929 . S
S1708 N1709 1.613 . S
S1708 N1710 1.610 . S
N1709 S1708 1.613 . S
N1709 C1712 1.350 . S
N1710 S1708 1.610 . S
N1710 C1711 1.351 . S
C1711 C1705 1.428 . S
C1711 N1710 1.351 . S
C1711 C1712 1.434 . S
C1712 C1703 1.429 . S
C1712 N1709 1.350 . S
C1712 C1711 1.434 . S
C1713 C1714 1.369 . S
C1713 C1715 1.419 . S
C1713 H1717 0.930 . S
C1714 C1713 1.369 . S
C1714 C1723 1.429 1_545 S
C1715 C1713 1.419 . S
C1715 C1716 1.363 . S
C1715 H1718 0.929 . S
C1716 C1715 1.363 . S
C1716 C1722 1.428 1_545 S
H1717 C1713 0.930 . S
H1718 C1715 0.929 . S
S1719 N1720 1.613 . S
S1719 N1721 1.610 . S
N1720 S1719 1.613 . S
N1720 C1723 1.350 1_556 S
N1721 S1719 1.610 . S
N1721 C1722 1.351 1_556 S
C1722 C1716 1.428 1_565 S
C1722 N1721 1.351 1_554 S
C1722 C1723 1.434 . S
C1723 C1714 1.429 1_565 S
C1723 N1720 1.350 1_554 S
C1723 C1722 1.434 . S
C1724 C1725 1.369 . S
C1724 C1726 1.419 . S
C1724 H1728 0.930 . S
C1725 C1724 1.369 . S
C1725 C1734 1.429 . S
C1726 C1724 1.419 . S
C1726 C1727 1.363 . S
C1726 H1729 0.929 . S
C1727 C1726 1.363 . S
C1727 C1733 1.428 . S
H1728 C1724 0.930 . S
H1729 C1726 0.929 . S
S1730 N1731 1.613 . S
S1730 N1732 1.610 . S
N1731 S1730 1.613 . S
N1731 C1734 1.350 . S
N1732 S1730 1.610 . S
N1732 C1733 1.351 . S
C1733 C1727 1.428 . S
C1733 N1732 1.351 . S
C1733 C1734 1.434 . S
C1734 C1725 1.429 . S
C1734 N1731 1.350 . S
C1734 C1733 1.434 . S
C1735 C1736 1.369 . S
C1735 C1737 1.419 . S
C1735 H1739 0.930 1_554 S
C1736 C1735 1.369 . S
C1736 C1745 1.429 . S
C1737 C1735 1.419 . S
C1737 C1738 1.363 . S
C1737 H1740 0.929 . S
C1738 C1737 1.363 . S
C1738 C1744 1.428 . S
H1739 C1735 0.930 1_556 S
H1740 C1737 0.929 . S
S1741 N1742 1.613 . S
S1741 N1743 1.610 . S
N1742 S1741 1.613 . S
N1742 C1745 1.350 . S
N1743 S1741 1.610 . S
N1743 C1744 1.351 . S
C1744 C1738 1.428 . S
C1744 N1743 1.351 . S
C1744 C1745 1.434 . S
C1745 C1736 1.429 . S
C1745 N1742 1.350 . S
C1745 C1744 1.434 . S
C1746 C1747 1.369 . S
C1746 C1748 1.419 . S
C1746 H1750 0.930 . S
C1747 C1746 1.369 . S
C1747 C1756 1.429 . S
C1748 C1746 1.419 . S
C1748 C1749 1.363 . S
C1748 H1751 0.929 . S
C1749 C1748 1.363 . S
C1749 C1755 1.428 . S
H1750 C1746 0.930 . S
H1751 C1748 0.929 . S
S1752 N1753 1.613 . S
S1752 N1754 1.610 . S
N1753 S1752 1.613 . S
N1753 C1756 1.350 . S
N1754 S1752 1.610 . S
N1754 C1755 1.351 . S
C1755 C1749 1.428 . S
C1755 N1754 1.351 . S
C1755 C1756 1.434 . S
C1756 C1747 1.429 . S
C1756 N1753 1.350 . S
C1756 C1755 1.434 . S
C1757 C1758 1.369 . S
C1757 C1759 1.419 . S
C1757 H1761 0.930 . S
C1758 C1757 1.369 . S
C1758 C1767 1.429 . S
C1759 C1757 1.419 . S
C1759 C1760 1.363 . S
C1759 H1762 0.929 . S
C1760 C1759 1.363 . S
C1760 C1766 1.428 . S
H1761 C1757 0.930 . S
H1762 C1759 0.929 . S
S1763 N1764 1.613 . S
S1763 N1765 1.610 . S
N1764 S1763 1.613 . S
N1764 C1767 1.350 . S
N1765 S1763 1.610 . S
N1765 C1766 1.351 . S
C1766 C1760 1.428 . S
C1766 N1765 1.351 . S
C1766 C1767 1.434 . S
C1767 C1758 1.429 . S
C1767 N1764 1.350 . S
C1767 C1766 1.434 . S
C1768 C1769 1.369 . S
C1768 C1770 1.419 . S
C1768 H1772 0.930 . S
C1769 C1768 1.369 . S
C1769 C1778 1.429 . S
C1770 C1768 1.419 . S
C1770 C1771 1.363 . S
C1770 H1773 0.929 . S
C1771 C1770 1.363 . S
C1771 C1777 1.428 . S
H1772 C1768 0.930 . S
H1773 C1770 0.929 . S
S1774 N1775 1.613 . S
S1774 N1776 1.610 . S
N1775 S1774 1.613 . S
N1775 C1778 1.350 . S
N1776 S1774 1.610 . S
N1776 C1777 1.351 . S
C1777 C1771 1.428 . S
C1777 N1776 1.351 . S
C1777 C1778 1.434 . S
C1778 C1769 1.429 . S
C1778 N1775 1.350 . S
C1778 C1777 1.434 . S
C1779 C1780 1.369 . S
C1779 C1781 1.419 . S
C1779 H1783 0.930 . S
C1780 C1779 1.369 . S
C1780 C1789 1.429 . S
C1781 C1779 1.419 . S
C1781 C1782 1.363 . S
C1781 H1784 0.929 . S
C1782 C1781 1.363 . S
C1782 C1788 1.428 . S
H1783 C1779 0.930 . S
H1784 C1781 0.929 . S
S1785 N1786 1.613 . S
S1785 N1787 1.610 . S
N1786 S1785 1.613 . S
N1786 C1789 1.350 . S
N1787 S1785 1.610 . S
N1787 C1788 1.351 . S
C1788 C1782 1.428 . S
C1788 N1787 1.351 . S
C1788 C1789 1.434 . S
C1789 C1780 1.429 . S
C1789 N1786 1.350 . S
C1789 C1788 1.434 . S
C1790 C1791 1.369 . S
C1790 C1792 1.419 . S
C1790 H1794 0.930 . S
C1791 C1790 1.369 . S
C1791 C1800 1.429 . S
C1792 C1790 1.419 . S
C1792 C1793 1.363 . S
C1792 H1795 0.929 . S
C1793 C1792 1.363 . S
C1793 C1799 1.428 . S
H1794 C1790 0.930 . S
H1795 C1792 0.929 . S
S1796 N1797 1.613 . S
S1796 N1798 1.610 . S
N1797 S1796 1.613 . S
N1797 C1800 1.350 . S
N1798 S1796 1.610 . S
N1798 C1799 1.351 . S
C1799 C1793 1.428 . S
C1799 N1798 1.351 . S
C1799 C1800 1.434 . S
C1800 C1791 1.429 . S
C1800 N1797 1.350 . S
C1800 C1799 1.434 . S
C1801 C1802 1.369 . S
C1801 C1803 1.419 . S
C1801 H1805 0.930 . S
C1802 C1801 1.369 . S
C1802 C1811 1.429 . S
C1803 C1801 1.419 . S
C1803 C1804 1.363 . S
C1803 H1806 0.929 . S
C1804 C1803 1.363 . S
C1804 C1810 1.428 . S
H1805 C1801 0.930 . S
H1806 C1803 0.929 . S
S1807 N1808 1.613 . S
S1807 N1809 1.610 . S
N1808 S1807 1.613 . S
N1808 C1811 1.350 . S
N1809 S1807 1.610 . S
N1809 C1810 1.351 . S
C1810 C1804 1.428 . S
C1810 N1809 1.351 . S
C1810 C1811 1.434 . S
C1811 C1802 1.429 . S
C1811 N1808 1.350 . S
C1811 C1810 1.434 . S
C1812 C1813 1.369 . S
C1812 C1814 1.419 . S
C1812 H1816 0.930 . S
C1813 C1812 1.369 . S
C1813 C1822 1.429 . S
C1814 C1812 1.419 . S
C1814 C1815 1.363 . S
C1814 H1817 0.929 . S
C1815 C1814 1.363 . S
C1815 C1821 1.428 . S
H1816 C1812 0.930 . S
H1817 C1814 0.929 . S
S1818 N1819 1.613 . S
S1818 N1820 1.610 . S
N1819 S1818 1.613 . S
N1819 C1822 1.350 . S
N1820 S1818 1.610 . S
N1820 C1821 1.351 . S
C1821 C1815 1.428 . S
C1821 N1820 1.351 . S
C1821 C1822 1.434 . S
C1822 C1813 1.429 . S
C1822 N1819 1.350 . S
C1822 C1821 1.434 . S
C1823 C1824 1.369 . S
C1823 C1825 1.419 . S
C1823 H1827 0.930 . S
C1824 C1823 1.369 . S
C1824 C1833 1.429 . S
C1825 C1823 1.419 . S
C1825 C1826 1.363 . S
C1825 H1828 0.929 . S
C1826 C1825 1.363 . S
C1826 C1832 1.428 . S
H1827 C1823 0.930 . S
H1828 C1825 0.929 . S
S1829 N1830 1.613 . S
S1829 N1831 1.610 . S
N1830 S1829 1.613 . S
N1830 C1833 1.350 . S
N1831 S1829 1.610 . S
N1831 C1832 1.351 . S
C1832 C1826 1.428 . S
C1832 N1831 1.351 . S
C1832 C1833 1.434 . S
C1833 C1824 1.429 . S
C1833 N1830 1.350 . S
C1833 C1832 1.434 . S
C1834 C1835 1.369 . S
C1834 C1836 1.419 . S
C1834 H1838 0.930 . S
C1835 C1834 1.369 . S
C1835 C1844 1.429 . S
C1836 C1834 1.419 . S
C1836 C1837 1.363 . S
C1836 H1839 0.929 . S
C1837 C1836 1.363 . S
C1837 C1843 1.428 . S
H1838 C1834 0.930 . S
H1839 C1836 0.929 . S
S1840 N1841 1.613 . S
S1840 N1842 1.610 . S
N1841 S1840 1.613 . S
N1841 C1844 1.350 . S
N1842 S1840 1.610 . S
N1842 C1843 1.351 . S
C1843 C1837 1.428 . S
C1843 N1842 1.351 . S
C1843 C1844 1.434 . S
C1844 C1835 1.429 . S
C1844 N1841 1.350 . S
C1844 C1843 1.434 . S
C1845 C1846 1.369 . S
C1845 C1847 1.419 . S
C1845 H1849 0.930 . S
C1846 C1845 1.369 . S
C1846 C1855 1.429 . S
C1847 C1845 1.419 . S
C1847 C1848 1.363 . S
C1847 H1850 0.929 . S
C1848 C1847 1.363 . S
C1848 C1854 1.428 . S
H1849 C1845 0.930 . S
H1850 C1847 0.929 . S
S1851 N1852 1.613 . S
S1851 N1853 1.610 . S
N1852 S1851 1.613 . S
N1852 C1855 1.350 . S
N1853 S1851 1.610 . S
N1853 C1854 1.351 . S
C1854 C1848 1.428 . S
C1854 N1853 1.351 . S
C1854 C1855 1.434 . S
C1855 C1846 1.429 . S
C1855 N1852 1.350 . S
C1855 C1854 1.434 . S
C1856 C1857 1.369 . S
C1856 C1858 1.419 . S
C1856 H1860 0.930 . S
C1857 C1856 1.369 . S
C1857 C1866 1.429 . S
C1858 C1856 1.419 . S
C1858 C1859 1.363 . S
C1858 H1861 0.929 . S
C1859 C1858 1.363 . S
C1859 C1865 1.428 . S
H1860 C1856 0.930 . S
H1861 C1858 0.929 . S
S1862 N1863 1.613 . S
S1862 N1864 1.610 . S
N1863 S1862 1.613 . S
N1863 C1866 1.350 . S
N1864 S1862 1.610 . S
N1864 C1865 1.351 . S
C1865 C1859 1.428 . S
C1865 N1864 1.351 . S
C1865 C1866 1.434 . S
C1866 C1857 1.429 . S
C1866 N1863 1.350 . S
C1866 C1865 1.434 . S
C1867 C1868 1.369 . S
C1867 C1869 1.419 . S
C1867 H1871 0.930 . S
C1868 C1867 1.369 . S
C1868 C1877 1.429 . S
C1869 C1867 1.419 . S
C1869 C1870 1.363 . S
C1869 H1872 0.929 . S
C1870 C1869 1.363 . S
C1870 C1876 1.428 . S
H1871 C1867 0.930 . S
H1872 C1869 0.929 . S
S1873 N1874 1.613 . S
S1873 N1875 1.610 . S
N1874 S1873 1.613 . S
N1874 C1877 1.350 . S
N1875 S1873 1.610 . S
N1875 C1876 1.351 . S
C1876 C1870 1.428 . S
C1876 N1875 1.351 . S
C1876 C1877 1.434 . S
C1877 C1868 1.429 . S
C1877 N1874 1.350 . S
C1877 C1876 1.434 . S
C1878 C1879 1.369 . S
C1878 C1880 1.419 1_655 S
C1878 H1882 0.930 . S
C1879 C1878 1.369 . S
C1879 C1888 1.429 1_655 S
C1880 C1878 1.419 1_455 S
C1880 C1881 1.363 . S
C1880 H1883 0.929 . S
C1881 C1880 1.363 . S
C1881 C1887 1.428 . S
H1882 C1878 0.930 . S
H1883 C1880 0.929 . S
S1884 N1885 1.613 1_455 S
S1884 N1886 1.610 . S
N1885 S1884 1.613 1_655 S
N1885 C1888 1.350 1_655 S
N1886 S1884 1.610 . S
N1886 C1887 1.351 . S
C1887 C1881 1.428 . S
C1887 N1886 1.351 . S
C1887 C1888 1.434 . S
C1888 C1879 1.429 1_455 S
C1888 N1885 1.350 1_455 S
C1888 C1887 1.434 . S
C1889 C1890 1.369 . S
C1889 C1891 1.419 . S
C1889 H1893 0.930 . S
C1890 C1889 1.369 . S
C1890 C1899 1.429 . S
C1891 C1889 1.419 . S
C1891 C1892 1.363 . S
C1891 H1894 0.929 . S
C1892 C1891 1.363 . S
C1892 C1898 1.428 . S
H1893 C1889 0.930 . S
H1894 C1891 0.929 . S
S1895 N1896 1.613 . S
S1895 N1897 1.610 . S
N1896 S1895 1.613 . S
N1896 C1899 1.350 . S
N1897 S1895 1.610 . S
N1897 C1898 1.351 . S
C1898 C1892 1.428 . S
C1898 N1897 1.351 . S
C1898 C1899 1.434 . S
C1899 C1890 1.429 . S
C1899 N1896 1.350 . S
C1899 C1898 1.434 . S
C1900 C1901 1.369 . S
C1900 C1902 1.419 . S
C1900 H1904 0.930 . S
C1901 C1900 1.369 . S
C1901 C1910 1.429 . S
C1902 C1900 1.419 . S
C1902 C1903 1.363 . S
C1902 H1905 0.929 . S
C1903 C1902 1.363 . S
C1903 C1909 1.428 . S
H1904 C1900 0.930 . S
H1905 C1902 0.929 . S
S1906 N1907 1.613 . S
S1906 N1908 1.610 . S
N1907 S1906 1.613 . S
N1907 C1910 1.350 . S
N1908 S1906 1.610 . S
N1908 C1909 1.351 . S
C1909 C1903 1.428 . S
C1909 N1908 1.351 . S
C1909 C1910 1.434 . S
C1910 C1901 1.429 . S
C1910 N1907 1.350 . S
C1910 C1909 1.434 . S
C1911 C1912 1.369 . S
C1911 C1913 1.419 . S
C1911 H1915 0.930 . S
C1912 C1911 1.369 . S
C1912 C1921 1.429 . S
C1913 C1911 1.419 . S
C1913 C1914 1.363 . S
C1913 H1916 0.929 . S
C1914 C1913 1.363 . S
C1914 C1920 1.428 . S
H1915 C1911 0.930 . S
H1916 C1913 0.929 . S
S1917 N1918 1.613 . S
S1917 N1919 1.610 . S
N1918 S1917 1.613 . S
N1918 C1921 1.350 . S
N1919 S1917 1.610 . S
N1919 C1920 1.351 . S
C1920 C1914 1.428 . S
C1920 N1919 1.351 . S
C1920 C1921 1.434 . S
C1921 C1912 1.429 . S
C1921 N1918 1.350 . S
C1921 C1920 1.434 . S
C1922 C1923 1.369 . S
C1922 C1924 1.419 . S
C1922 H1926 0.930 1_655 S
C1923 C1922 1.369 . S
C1923 C1932 1.429 . S
C1924 C1922 1.419 . S
C1924 C1925 1.363 . S
C1924 H1927 0.929 1_655 S
C1925 C1924 1.363 . S
C1925 C1931 1.428 . S
H1926 C1922 0.930 1_455 S
H1927 C1924 0.929 1_455 S
S1928 N1929 1.613 . S
S1928 N1930 1.610 . S
N1929 S1928 1.613 . S
N1929 C1932 1.350 . S
N1930 S1928 1.610 . S
N1930 C1931 1.351 . S
C1931 C1925 1.428 . S
C1931 N1930 1.351 . S
C1931 C1932 1.434 . S
C1932 C1923 1.429 . S
C1932 N1929 1.350 . S
C1932 C1931 1.434 . S
C1933 C1934 1.369 . S
C1933 C1935 1.419 . S
C1933 H1937 0.930 . S
C1934 C1933 1.369 . S
C1934 C1943 1.429 . S
C1935 C1933 1.419 . S
C1935 C1936 1.363 . S
C1935 H1938 0.929 . S
C1936 C1935 1.363 . S
C1936 C1942 1.428 . S
H1937 C1933 0.930 . S
H1938 C1935 0.929 . S
S1939 N1940 1.613 . S
S1939 N1941 1.610 . S
N1940 S1939 1.613 . S
N1940 C1943 1.350 . S
N1941 S1939 1.610 . S
N1941 C1942 1.351 . S
C1942 C1936 1.428 . S
C1942 N1941 1.351 . S
C1942 C1943 1.434 . S
C1943 C1934 1.429 . S
C1943 N1940 1.350 . S
C1943 C1942 1.434 . S
C1944 C1945 1.369 . S
C1944 C1946 1.419 . S
C1944 H1948 0.930 . S
C1945 C1944 1.369 . S
C1945 C1954 1.429 . S
C1946 C1944 1.419 . S
C1946 C1947 1.363 . S
C1946 H1949 0.929 . S
C1947 C1946 1.363 . S
C1947 C1953 1.428 . S
H1948 C1944 0.930 . S
H1949 C1946 0.929 . S
S1950 N1951 1.613 . S
S1950 N1952 1.610 . S
N1951 S1950 1.613 . S
N1951 C1954 1.350 . S
N1952 S1950 1.610 . S
N1952 C1953 1.351 . S
C1953 C1947 1.428 . S
C1953 N1952 1.351 . S
C1953 C1954 1.434 . S
C1954 C1945 1.429 . S
C1954 N1951 1.350 . S
C1954 C1953 1.434 . S
C1955 C1956 1.369 . S
C1955 C1957 1.419 . S
C1955 H1959 0.930 . S
C1956 C1955 1.369 . S
C1956 C1965 1.429 . S
C1957 C1955 1.419 . S
C1957 C1958 1.363 . S
C1957 H1960 0.929 . S
C1958 C1957 1.363 . S
C1958 C1964 1.428 . S
H1959 C1955 0.930 . S
H1960 C1957 0.929 . S
S1961 N1962 1.613 . S
S1961 N1963 1.610 1_565 S
N1962 S1961 1.613 . S
N1962 C1965 1.350 . S
N1963 S1961 1.610 1_545 S
N1963 C1964 1.351 1_545 S
C1964 C1958 1.428 . S
C1964 N1963 1.351 1_565 S
C1964 C1965 1.434 . S
C1965 C1956 1.429 . S
C1965 N1962 1.350 . S
C1965 C1964 1.434 . S
C1966 C1967 1.369 . S
C1966 C1968 1.419 . S
C1966 H1970 0.930 . S
C1967 C1966 1.369 . S
C1967 C1976 1.429 . S
C1968 C1966 1.419 . S
C1968 C1969 1.363 . S
C1968 H1971 0.929 . S
C1969 C1968 1.363 . S
C1969 C1975 1.428 . S
H1970 C1966 0.930 . S
H1971 C1968 0.929 . S
S1972 N1973 1.613 . S
S1972 N1974 1.610 . S
N1973 S1972 1.613 . S
N1973 C1976 1.350 . S
N1974 S1972 1.610 . S
N1974 C1975 1.351 . S
C1975 C1969 1.428 . S
C1975 N1974 1.351 . S
C1975 C1976 1.434 . S
C1976 C1967 1.429 . S
C1976 N1973 1.350 . S
C1976 C1975 1.434 . S
C1977 C1978 1.369 . S
C1977 C1979 1.419 . S
C1977 H1981 0.930 1_554 S
C1978 C1977 1.369 . S
C1978 C1987 1.429 . S
C1979 C1977 1.419 . S
C1979 C1980 1.363 . S
C1979 H1982 0.929 1_554 S
C1980 C1979 1.363 . S
C1980 C1986 1.428 . S
H1981 C1977 0.930 1_556 S
H1982 C1979 0.929 1_556 S
S1983 N1984 1.613 . S
S1983 N1985 1.610 . S
N1984 S1983 1.613 . S
N1984 C1987 1.350 . S
N1985 S1983 1.610 . S
N1985 C1986 1.351 . S
C1986 C1980 1.428 . S
C1986 N1985 1.351 . S
C1986 C1987 1.434 . S
C1987 C1978 1.429 . S
C1987 N1984 1.350 . S
C1987 C1986 1.434 . S
C1988 C1989 1.369 . S
C1988 C1990 1.419 . S
C1988 H1992 0.930 . S
C1989 C1988 1.369 . S
C1989 C1998 1.429 . S
C1990 C1988 1.419 . S
C1990 C1991 1.363 . S
C1990 H1993 0.929 . S
C1991 C1990 1.363 . S
C1991 C1997 1.428 . S
H1992 C1988 0.930 . S
H1993 C1990 0.929 . S
S1994 N1995 1.613 . S
S1994 N1996 1.610 . S
N1995 S1994 1.613 . S
N1995 C1998 1.350 . S
N1996 S1994 1.610 . S
N1996 C1997 1.351 . S
C1997 C1991 1.428 . S
C1997 N1996 1.351 . S
C1997 C1998 1.434 . S
C1998 C1989 1.429 . S
C1998 N1995 1.350 . S
C1998 C1997 1.434 . S
C1999 C2000 1.369 . S
C1999 C2001 1.419 1_554 S
C1999 H2003 0.930 . S
C2000 C1999 1.369 . S
C2000 C2009 1.429 . S
C2001 C1999 1.419 1_556 S
C2001 C2002 1.363 . S
C2001 H2004 0.929 . S
C2002 C2001 1.363 . S
C2002 C2008 1.428 . S
H2003 C1999 0.930 . S
H2004 C2001 0.929 . S
S2005 N2006 1.613 . S
S2005 N2007 1.610 1_554 S
N2006 S2005 1.613 . S
N2006 C2009 1.350 . S
N2007 S2005 1.610 1_556 S
N2007 C2008 1.351 . S
C2008 C2002 1.428 . S
C2008 N2007 1.351 . S
C2008 C2009 1.434 1_556 S
C2009 C2000 1.429 . S
C2009 N2006 1.350 . S
C2009 C2008 1.434 1_554 S
C2010 C2011 1.369 . S
C2010 C2012 1.419 . S
C2010 H2014 0.930 . S
C2011 C2010 1.369 . S
C2011 C2020 1.429 . S
C2012 C2010 1.419 . S
C2012 C2013 1.363 . S
C2012 H2015 0.929 . S
C2013 C2012 1.363 . S
C2013 C2019 1.428 . S
H2014 C2010 0.930 . S
H2015 C2012 0.929 . S
S2016 N2017 1.613 . S
S2016 N2018 1.610 . S
N2017 S2016 1.613 . S
N2017 C2020 1.350 . S
N2018 S2016 1.610 . S
N2018 C2019 1.351 . S
C2019 C2013 1.428 . S
C2019 N2018 1.351 . S
C2019 C2020 1.434 . S
C2020 C2011 1.429 . S
C2020 N2017 1.350 . S
C2020 C2019 1.434 . S
C2021 C2022 1.369 . S
C2021 C2023 1.419 . S
C2021 H2025 0.930 . S
C2022 C2021 1.369 . S
C2022 C2031 1.429 . S
C2023 C2021 1.419 . S
C2023 C2024 1.363 . S
C2023 H2026 0.929 . S
C2024 C2023 1.363 . S
C2024 C2030 1.428 . S
H2025 C2021 0.930 . S
H2026 C2023 0.929 . S
S2027 N2028 1.613 . S
S2027 N2029 1.610 . S
N2028 S2027 1.613 . S
N2028 C2031 1.350 . S
N2029 S2027 1.610 . S
N2029 C2030 1.351 . S
C2030 C2024 1.428 . S
C2030 N2029 1.351 . S
C2030 C2031 1.434 . S
C2031 C2022 1.429 . S
C2031 N2028 1.350 . S
C2031 C2030 1.434 . S
C977 C111 1.141 . S
C979 C344 1.176 . S
C988 C64 1.543 . S
C990 C378 1.548 . S
C999 C77 0.665 . S
C1001 C447 0.684 . S
C1012 C485 0.863 . S
C1010 C95 0.863 . S
C1021 C25 1.650 . S
C1023 C525 1.542 . S
C1034 C544 0.544 . S
C1032 C36 0.558 . S
C1045 C578 1.560 . S
C1043 C50 1.363 . S
C1054 C11 1.871 . S
C1056 C647 1.801 . S
C1067 C353 2.467 . S
C1065 C237 2.379 1_455 S
C1076 C245 1.334 . S
C1078 C405 1.333 . S
C1089 C418 1.269 . S
C1087 C279 1.195 . S
C1100 C487 1.582 . S
C1098 C175 1.573 . S
C1109 C231 1.937 1_455 S
C1111 C527 1.981 . S
C1122 C553 1.807 . S
C1120 C251 1.627 . S
C1133 C605 0.578 . S
C1131 C273 0.529 . S
C1144 C618 2.322 . S
C1142 C181 2.317 . S
C1155 C348 2.395 . S
C1153 C165 2.423 1_545 S
C1164 C288 1.938 . S
C1166 C658 2.012 . S
C1177 C708 2.675 . S
C1175 C333 2.695 . S
C1188 C767 1.734 1_655 S
C1186 C316 1.598 . S
C1197 C123 1.822 . S
C1199 C645 1.726 . S
C1208 C137 1.540 . S
C1210 C445 1.467 . S
C1219 C330 2.376 . S
C1221 C778 2.452 . S
C1232 C847 0.948 . S
C1230 C302 0.974 . S
C1243 C365 1.234 . S
C1241 C63 1.214 . S
C1254 C833 1.516 . S
C1252 C106 1.492 . S
C1263 C97 0.760 . S
C1265 C428 0.770 . S
C1274 C81 0.950 . S
C1276 C784 0.959 . S
C1287 C504 1.610 . S
C1285 C13 1.446 . S
C1296 C55 0.586 . S
C1298 C725 0.526 . S
C1309 C593 1.538 1_556 S
C1307 C35 1.469 . S
C1320 C868 1.950 . S
C1318 C21 1.941 . S
C1331 C338 2.537 . S
C1329 C147 2.569 . S
C1342 C824 1.213 . S
C1340 C321 1.071 . S
C1351 C119 1.316 . S
C1353 C433 1.312 . S
C1362 C293 1.667 . S
C1364 C788 1.689 . S
C1373 C153 1.926 . S
C1375 C508 2.153 . S
C1386 C698 1.829 . S
C1384 C315 1.836 . S
C1395 C125 0.595 . S
C1397 C584 0.619 1_565 S
C1406 C287 2.435 . S
C1408 C873 2.404 . S
C1417 C193 2.458 . S
C1419 C367 2.474 1_655 S
C1428 C176 2.023 . S
C1430 C673 2.016 . S
C1439 C263 2.672 . S
C1441 C567 2.646 . S
C1450 C246 1.733 . S
C1452 C748 1.916 . S
C1463 C864 1.721 . S
C1461 C277 1.684 . S
C1472 C221 1.452 . S
C1474 C424 1.457 . S
C1485 C473 2.505 . S
C1483 C260 2.490 . S
C1496 C388 1.026 . S
C1494 C204 1.031 . S
C1505 C83 1.144 . S
C1507 C904 1.174 . S
C1518 C818 1.547 . S
C1516 C92 1.541 . S
C1527 C105 0.673 . S
C1529 C967 0.675 . S
C1538 C67 0.863 . S
C1540 C805 0.863 . S
C1549 C53 1.653 . S
C1551 C685 1.540 . S
C1562 C704 0.539 . S
C1560 C8 0.571 . S
C1573 C738 1.561 . S
C1571 C22 1.371 . S
C1584 C887 1.808 . S
C1582 C39 1.866 . S
C1595 C913 2.468 . S
C1593 C265 2.376 . S
C1604 C189 1.343 . S
C1606 C845 1.327 . S
C1617 C938 1.266 . S
C1615 C209 1.195 . S
C1628 C807 1.583 . S
C1626 C217 1.574 . S
C1639 C687 1.981 . S
C1637 C259 1.939 . S
C1648 C195 1.632 . S
C1650 C713 1.807 . S
C1661 C765 0.579 . S
C1659 C203 0.527 . S
C1670 C223 2.319 . S
C1672 C858 2.325 . S
C1683 C908 2.392 . S
C1681 C319 2.425 . S
C1692 C134 1.943 . S
C1694 C498 2.012 . S
C1705 C548 2.675 . S
C1703 C151 2.695 . S
C1716 C607 1.737 . S
C1714 C162 1.587 1_545 S
C1727 C885 1.722 . S
C1725 C305 1.825 . S
C1736 C291 1.537 . S
C1738 C965 1.472 . S
C1749 C458 2.453 . S
C1747 C148 2.375 . S
C1760 C407 0.950 . S
C1758 C120 0.972 . S
C1769 C91 1.212 . S
C1771 C925 1.234 . S
C1782 C393 1.514 . S
C1780 C78 1.496 . S
C1791 C69 0.756 . S
C1793 C948 0.765 . S
C1802 C109 0.965 . S
C1804 C464 0.947 . S
C1813 C41 1.439 . S
C1815 C664 1.616 . S
C1826 C565 0.523 . S
C1824 C27 0.569 . S
C1835 C7 1.472 . S
C1837 C753 1.532 . S
C1846 C49 1.940 . S
C1848 C628 1.945 . S
C1859 C898 2.538 . S
C1857 C329 2.569 . S
C1868 C167 1.075 . S
C1870 C384 1.213 . S
C1881 C953 1.310 . S
C1879 C301 1.319 . S
C1890 C139 1.666 . S
C1892 C468 1.686 . S
C1901 C335 1.923 . S
C1903 C668 2.153 . S
C1914 C538 1.828 . S
C1912 C161 1.837 . S
C1923 C307 0.584 . S
C1925 C744 0.634 . S
C1936 C633 2.406 . S
C1934 C133 2.433 . S
C1947 C927 2.471 . S
C1945 C249 2.460 . S
C1958 C513 2.018 1_665 S
C1956 C218 2.023 . S
C1967 C235 2.670 . S
C1969 C727 2.648 . S
C1980 C588 1.912 . S
C1978 C190 1.741 . S
C1989 C207 1.683 . S
C1991 C624 1.724 . S
C2000 C179 1.443 . S
C2002 C944 1.463 . S
C2013 C793 2.507 . S
C2011 C232 2.486 1_565 S
C2024 C828 1.026 . S
C2022 C274 1.031 . S
