# Generated by pormake.
# Topology fgl, (4,4)-cn, num edge types: 1
# Building blocks:
#     Node 0, Type 0, BuildingBlock: ESEHIV_clean_sbu_0, # of connection points: 4
#     Node 1, Type 0, BuildingBlock: ESEHIV_clean_sbu_0, # of connection points: 4
#     Node 2, Type 0, BuildingBlock: ESEHIV_clean_sbu_0, # of connection points: 4
#     Node 3, Type 0, BuildingBlock: ESEHIV_clean_sbu_0, # of connection points: 4
#     Node 4, Type 0, BuildingBlock: ESEHIV_clean_sbu_0, # of connection points: 4
#     Node 5, Type 0, BuildingBlock: ESEHIV_clean_sbu_0, # of connection points: 4
#     Node 6, Type 0, BuildingBlock: ESEHIV_clean_sbu_0, # of connection points: 4
#     Node 7, Type 0, BuildingBlock: ESEHIV_clean_sbu_0, # of connection points: 4
#     Node 8, Type 0, BuildingBlock: ESEHIV_clean_sbu_0, # of connection points: 4
#     Node 9, Type 0, BuildingBlock: ESEHIV_clean_sbu_0, # of connection points: 4
#     Node 10, Type 0, BuildingBlock: ESEHIV_clean_sbu_0, # of connection points: 4
#     Node 11, Type 0, BuildingBlock: ESEHIV_clean_sbu_0, # of connection points: 4
#     Node 12, Type 0, BuildingBlock: ESEHIV_clean_sbu_0, # of connection points: 4
#     Node 13, Type 0, BuildingBlock: ESEHIV_clean_sbu_0, # of connection points: 4
#     Node 14, Type 0, BuildingBlock: ESEHIV_clean_sbu_0, # of connection points: 4
#     Node 15, Type 0, BuildingBlock: ESEHIV_clean_sbu_0, # of connection points: 4
#     Node 16, Type 0, BuildingBlock: ESEHIV_clean_sbu_0, # of connection points: 4
#     Node 17, Type 0, BuildingBlock: ESEHIV_clean_sbu_0, # of connection points: 4
#     Node 18, Type 1, BuildingBlock: NAHDIM_clean_sbu_0, # of connection points: 4
#     Node 19, Type 1, BuildingBlock: NAHDIM_clean_sbu_0, # of connection points: 4
#     Node 20, Type 1, BuildingBlock: NAHDIM_clean_sbu_0, # of connection points: 4
#     Node 21, Type 1, BuildingBlock: NAHDIM_clean_sbu_0, # of connection points: 4
#     Node 22, Type 1, BuildingBlock: NAHDIM_clean_sbu_0, # of connection points: 4
#     Node 23, Type 1, BuildingBlock: NAHDIM_clean_sbu_0, # of connection points: 4
#     Node 24, Type 1, BuildingBlock: NAHDIM_clean_sbu_0, # of connection points: 4
#     Node 25, Type 1, BuildingBlock: NAHDIM_clean_sbu_0, # of connection points: 4
#     Node 26, Type 1, BuildingBlock: NAHDIM_clean_sbu_0, # of connection points: 4
#     Node 27, Type 1, BuildingBlock: NAHDIM_clean_sbu_0, # of connection points: 4
#     Node 28, Type 1, BuildingBlock: NAHDIM_clean_sbu_0, # of connection points: 4
#     Node 29, Type 1, BuildingBlock: NAHDIM_clean_sbu_0, # of connection points: 4
#     Node 30, Type 1, BuildingBlock: NAHDIM_clean_sbu_0, # of connection points: 4
#     Node 31, Type 1, BuildingBlock: NAHDIM_clean_sbu_0, # of connection points: 4
#     Node 32, Type 1, BuildingBlock: NAHDIM_clean_sbu_0, # of connection points: 4
#     Node 33, Type 1, BuildingBlock: NAHDIM_clean_sbu_0, # of connection points: 4
#     Node 34, Type 1, BuildingBlock: NAHDIM_clean_sbu_0, # of connection points: 4
#     Node 35, Type 1, BuildingBlock: NAHDIM_clean_sbu_0, # of connection points: 4
#     Edge 36, Type (0, 1), BuildingBlock: XIVTED_clean_linker_0, # of connection points: 2
#     Edge 37, Type (0, 1), BuildingBlock: XIVTED_clean_linker_0, # of connection points: 2
#     Edge 38, Type (0, 1), BuildingBlock: XIVTED_clean_linker_0, # of connection points: 2
#     Edge 39, Type (0, 1), BuildingBlock: XIVTED_clean_linker_0, # of connection points: 2
#     Edge 40, Type (0, 1), BuildingBlock: XIVTED_clean_linker_0, # of connection points: 2
#     Edge 41, Type (0, 1), BuildingBlock: XIVTED_clean_linker_0, # of connection points: 2
#     Edge 42, Type (0, 1), BuildingBlock: XIVTED_clean_linker_0, # of connection points: 2
#     Edge 43, Type (0, 1), BuildingBlock: XIVTED_clean_linker_0, # of connection points: 2
#     Edge 44, Type (0, 1), BuildingBlock: XIVTED_clean_linker_0, # of connection points: 2
#     Edge 45, Type (0, 1), BuildingBlock: XIVTED_clean_linker_0, # of connection points: 2
#     Edge 46, Type (0, 1), BuildingBlock: XIVTED_clean_linker_0, # of connection points: 2
#     Edge 47, Type (0, 1), BuildingBlock: XIVTED_clean_linker_0, # of connection points: 2
#     Edge 48, Type (0, 1), BuildingBlock: XIVTED_clean_linker_0, # of connection points: 2
#     Edge 49, Type (0, 1), BuildingBlock: XIVTED_clean_linker_0, # of connection points: 2
#     Edge 50, Type (0, 1), BuildingBlock: XIVTED_clean_linker_0, # of connection points: 2
#     Edge 51, Type (0, 1), BuildingBlock: XIVTED_clean_linker_0, # of connection points: 2
#     Edge 52, Type (0, 1), BuildingBlock: XIVTED_clean_linker_0, # of connection points: 2
#     Edge 53, Type (0, 1), BuildingBlock: XIVTED_clean_linker_0, # of connection points: 2
#     Edge 54, Type (0, 1), BuildingBlock: XIVTED_clean_linker_0, # of connection points: 2
#     Edge 55, Type (0, 1), BuildingBlock: XIVTED_clean_linker_0, # of connection points: 2
#     Edge 56, Type (0, 1), BuildingBlock: XIVTED_clean_linker_0, # of connection points: 2
#     Edge 57, Type (0, 1), BuildingBlock: XIVTED_clean_linker_0, # of connection points: 2
#     Edge 58, Type (0, 1), BuildingBlock: XIVTED_clean_linker_0, # of connection points: 2
#     Edge 59, Type (0, 1), BuildingBlock: XIVTED_clean_linker_0, # of connection points: 2
#     Edge 60, Type (0, 1), BuildingBlock: XIVTED_clean_linker_0, # of connection points: 2
#     Edge 61, Type (0, 1), BuildingBlock: XIVTED_clean_linker_0, # of connection points: 2
#     Edge 62, Type (0, 1), BuildingBlock: XIVTED_clean_linker_0, # of connection points: 2
#     Edge 63, Type (0, 1), BuildingBlock: XIVTED_clean_linker_0, # of connection points: 2
#     Edge 64, Type (0, 1), BuildingBlock: XIVTED_clean_linker_0, # of connection points: 2
#     Edge 65, Type (0, 1), BuildingBlock: XIVTED_clean_linker_0, # of connection points: 2
#     Edge 66, Type (0, 1), BuildingBlock: XIVTED_clean_linker_0, # of connection points: 2
#     Edge 67, Type (0, 1), BuildingBlock: XIVTED_clean_linker_0, # of connection points: 2
#     Edge 68, Type (0, 1), BuildingBlock: XIVTED_clean_linker_0, # of connection points: 2
#     Edge 69, Type (0, 1), BuildingBlock: XIVTED_clean_linker_0, # of connection points: 2
#     Edge 70, Type (0, 1), BuildingBlock: XIVTED_clean_linker_0, # of connection points: 2
#     Edge 71, Type (0, 1), BuildingBlock: XIVTED_clean_linker_0, # of connection points: 2
#     Edge 72, Type (0, 1), BuildingBlock: XIVTED_clean_linker_0, # of connection points: 2
#     Edge 73, Type (0, 1), BuildingBlock: XIVTED_clean_linker_0, # of connection points: 2
#     Edge 74, Type (0, 1), BuildingBlock: XIVTED_clean_linker_0, # of connection points: 2
#     Edge 75, Type (0, 1), BuildingBlock: XIVTED_clean_linker_0, # of connection points: 2
#     Edge 76, Type (0, 1), BuildingBlock: XIVTED_clean_linker_0, # of connection points: 2
#     Edge 77, Type (0, 1), BuildingBlock: XIVTED_clean_linker_0, # of connection points: 2
#     Edge 78, Type (0, 1), BuildingBlock: XIVTED_clean_linker_0, # of connection points: 2
#     Edge 79, Type (0, 1), BuildingBlock: XIVTED_clean_linker_0, # of connection points: 2
#     Edge 80, Type (0, 1), BuildingBlock: XIVTED_clean_linker_0, # of connection points: 2
#     Edge 81, Type (0, 1), BuildingBlock: XIVTED_clean_linker_0, # of connection points: 2
#     Edge 82, Type (0, 1), BuildingBlock: XIVTED_clean_linker_0, # of connection points: 2
#     Edge 83, Type (0, 1), BuildingBlock: XIVTED_clean_linker_0, # of connection points: 2
#     Edge 84, Type (0, 1), BuildingBlock: XIVTED_clean_linker_0, # of connection points: 2
#     Edge 85, Type (0, 1), BuildingBlock: XIVTED_clean_linker_0, # of connection points: 2
#     Edge 86, Type (0, 1), BuildingBlock: XIVTED_clean_linker_0, # of connection points: 2
#     Edge 87, Type (0, 1), BuildingBlock: XIVTED_clean_linker_0, # of connection points: 2
#     Edge 88, Type (0, 1), BuildingBlock: XIVTED_clean_linker_0, # of connection points: 2
#     Edge 89, Type (0, 1), BuildingBlock: XIVTED_clean_linker_0, # of connection points: 2
#     Edge 90, Type (0, 1), BuildingBlock: XIVTED_clean_linker_0, # of connection points: 2
#     Edge 91, Type (0, 1), BuildingBlock: XIVTED_clean_linker_0, # of connection points: 2
#     Edge 92, Type (0, 1), BuildingBlock: XIVTED_clean_linker_0, # of connection points: 2
#     Edge 93, Type (0, 1), BuildingBlock: XIVTED_clean_linker_0, # of connection points: 2
#     Edge 94, Type (0, 1), BuildingBlock: XIVTED_clean_linker_0, # of connection points: 2
#     Edge 95, Type (0, 1), BuildingBlock: XIVTED_clean_linker_0, # of connection points: 2
#     Edge 96, Type (0, 1), BuildingBlock: XIVTED_clean_linker_0, # of connection points: 2
#     Edge 97, Type (0, 1), BuildingBlock: XIVTED_clean_linker_0, # of connection points: 2
#     Edge 98, Type (0, 1), BuildingBlock: XIVTED_clean_linker_0, # of connection points: 2
#     Edge 99, Type (0, 1), BuildingBlock: XIVTED_clean_linker_0, # of connection points: 2
#     Edge 100, Type (0, 1), BuildingBlock: XIVTED_clean_linker_0, # of connection points: 2
#     Edge 101, Type (0, 1), BuildingBlock: XIVTED_clean_linker_0, # of connection points: 2
#     Edge 102, Type (0, 1), BuildingBlock: XIVTED_clean_linker_0, # of connection points: 2
#     Edge 103, Type (0, 1), BuildingBlock: XIVTED_clean_linker_0, # of connection points: 2
#     Edge 104, Type (0, 1), BuildingBlock: XIVTED_clean_linker_0, # of connection points: 2
#     Edge 105, Type (0, 1), BuildingBlock: XIVTED_clean_linker_0, # of connection points: 2
#     Edge 106, Type (0, 1), BuildingBlock: XIVTED_clean_linker_0, # of connection points: 2
#     Edge 107, Type (0, 1), BuildingBlock: XIVTED_clean_linker_0, # of connection points: 2
# Relax obj value: 0.035
# Max RMSD: 0.151
# Mean RMSD: 0.109
data_MOF--net-fgl--node1-ESEHIV_clean_sbu_0--node2-NAHDIM_clean_sbu_0--edge1-XIVTED_clean_linker_0
_symmetry_space_group_name_H-M    P1
_symmetry_Int_Tables_number       1
_symmetry_cell_setting            triclinic
loop_
_symmetry_equiv_pos_as_xyz
'x, y, z'
_cell_length_a     75.017929
_cell_length_b     76.520933
_cell_length_c     51.399298
_cell_angle_alpha  88.522234
_cell_angle_beta   90.450708
_cell_angle_gamma 119.63931
loop_
_atom_site_label
_atom_site_type_symbol
_atom_site_fract_x
_atom_site_fract_y
_atom_site_fract_z
_atom_type_partial_charge
Cu0 Cu 0.01839 0.53704 0.98384 0.0
N1 N 0.03492 0.55522 0.00896 0.0
N2 N 0.04152 0.57574 0.04239 0.0
C3 C 0.02816 0.56512 0.02357 0.0
C4 C 0.05762 0.57266 0.03918 0.0
C5 C 0.05345 0.55989 0.01856 0.0
O6 O 1.00227 0.54863 0.96984 0.0
C7 C 1.00252 0.50637 0.02386 0.0
O8 O 0.00857 0.52102 0.04037 0.0
H9 H 0.01331 0.56397 0.02083 0.0
H10 H 0.06286 0.55384 0.01178 0.0
N11 N 0.03283 0.53359 0.95675 0.0
N12 N 0.03766 0.51859 0.92278 0.0
C13 C 0.02404 0.51841 0.93998 0.0
C14 C 0.0528 0.54384 0.95009 0.0
C15 C 0.05582 0.53467 0.92905 0.0
C16 C 0.01274 0.56478 0.95644 0.0
O17 O 0.03195 0.57038 0.9511 0.0
H18 H 0.00785 0.50745 0.94046 0.0
H19 H 0.06435 0.55692 0.95994 0.0
O20 O 1.00287 0.51027 0.99958 0.0
H21 H 0.07098 0.57841 0.05156 0.0
H22 H 0.07033 0.53926 0.91952 0.0
Cu23 Cu 0.51345 0.55644 0.99589 0.0
N24 N 0.52099 0.55957 0.95879 0.0
N25 N 0.53787 0.57013 0.92077 0.0
C26 C 0.53935 0.57127 0.94706 0.0
C27 C 0.51787 0.55735 0.91602 0.0
C28 C 0.50755 0.55099 0.93936 0.0
O29 O 0.53481 0.58598 1.00185 0.0
C30 C 0.4965 0.5137 0.98407 0.0
O31 O 0.51595 0.51901 0.9814 0.0
H32 H 0.55338 0.58054 0.95751 0.0
H33 H 0.49123 0.54115 0.94196 0.0
N34 N 0.50498 0.55363 0.03255 0.0
N35 N 0.49096 0.54068 0.07156 0.0
C36 C 0.49723 0.53722 0.04857 0.0
C37 C 0.50359 0.56784 0.04583 0.0
C38 C 0.4951 0.55997 0.06985 0.0
C39 C 0.55033 0.59063 0.01632 0.0
O40 O 0.55323 0.57618 0.02599 0.0
H41 H 0.49541 0.52287 0.04312 0.0
H42 H 0.50793 0.58275 0.03828 0.0
O43 O 0.49178 0.52694 0.99026 0.0
H44 H 0.51095 0.55343 0.89696 0.0
H45 H 0.49196 0.56782 0.08478 0.0
Cu46 Cu 0.52188 0.07047 0.04059 0.0
N47 N 0.51401 0.08559 0.01916 0.0
N48 N 0.49847 0.09291 0.98684 0.0
C49 C 0.50058 0.07836 0.99947 0.0
C50 C 0.51115 0.11004 0.99918 0.0
C51 C 0.52072 0.10547 0.01907 0.0
O52 O 0.49694 0.04808 0.05514 0.0
C53 C 0.55447 0.07897 0.00858 0.0
O54 O 0.55547 0.09656 0.00958 0.0
H55 H 0.49261 0.06271 0.99448 0.0
H56 H 0.53217 0.11602 0.03206 0.0
N57 N 0.53642 0.08522 0.06911 0.0
N58 N 0.55565 0.09289 0.10491 0.0
C59 C 0.54989 0.08209 0.08301 0.0
C60 C 0.53345 0.09839 0.08261 0.0
C61 C 0.54542 0.10328 0.10461 0.0
C62 C 0.48253 0.03359 0.04313 0.0
O63 O 0.48521 0.0307 0.01872 0.0
H64 H 0.55475 0.07152 0.07754 0.0
H65 H 0.52252 0.10324 0.07757 0.0
O66 O 0.5401 0.06407 0.02103 0.0
H67 H 0.51379 0.12491 0.99388 0.0
H68 H 0.54563 0.11284 0.11991 0.0
Cu69 Cu 0.53328 0.06514 0.53444 0.0
N70 N 0.55669 0.08381 0.51659 0.0
N71 N 0.58317 0.09511 0.48911 0.0
C72 C 0.56896 0.07919 0.50303 0.0
C73 C 0.57974 0.11043 0.49418 0.0
C74 C 0.56338 0.1034 0.51129 0.0
O75 O 0.53573 0.04083 0.53659 0.0
C76 C 0.49117 0.05179 0.51976 0.0
O77 O 0.48588 0.03706 0.53701 0.0
H78 H 0.56663 0.06408 0.50204 0.0
H79 H 0.55627 0.11168 0.51842 0.0
N80 N 0.53364 0.07431 0.56777 0.0
N81 N 0.52289 0.07749 0.60686 0.0
C82 C 0.51729 0.06983 0.58289 0.0
C83 C 0.55018 0.08532 0.58251 0.0
C84 C 0.5436 0.08736 0.60664 0.0
C85 C 0.53388 0.031 0.55776 0.0
O86 O 0.52555 0.03426 0.57811 0.0
H87 H 0.50163 0.0609 0.57653 0.0
H88 H 0.56588 0.09098 0.57634 0.0
O89 O 0.51009 0.06387 0.51531 0.0
H90 H 0.588 0.12541 0.48552 0.0
H91 H 0.55334 0.09493 0.62297 0.0
Cu92 Cu 0.02119 0.54682 0.49329 0.0
N93 N 0.03813 0.53988 0.51269 0.0
N94 N 0.04592 0.52188 0.54089 0.0
C95 C 0.03082 0.52347 0.52855 0.0
C96 C 0.06352 0.53801 0.53246 0.0
C97 C 0.05867 0.54903 0.51491 0.0
O98 O 0.99586 0.52115 0.49051 0.0
C99 C 0.03509 0.58471 0.51164 0.0
O100 O 0.05196 0.5861 0.50216 0.0
H101 H 0.01462 0.51307 0.53138 0.0
H102 H 0.06937 0.56271 0.50457 0.0
N103 N 0.03174 0.55738 0.46008 0.0
N104 N 0.03509 0.57347 0.42187 0.0
C105 C 0.02643 0.56908 0.4458 0.0
C106 C 0.04435 0.5543 0.44481 0.0
C107 C 0.04641 0.56418 0.42115 0.0
C108 C 0.98949 0.51235 0.46893 0.0
O109 O 0.99633 0.52289 0.44713 0.0
H110 H 0.01576 0.57364 0.4526 0.0
H111 H 0.05118 0.54518 0.45027 0.0
O112 O 0.0186 0.56778 0.51087 0.0
H113 H 0.07879 0.54148 0.53835 0.0
H114 H 0.05547 0.56442 0.40472 0.0
Cu115 Cu 0.51873 0.53297 0.51297 0.0
N116 N 0.54357 0.53528 0.50216 0.0
N117 N 0.57705 0.55183 0.4921 0.0
C118 C 0.56235 0.5499 0.5089 0.0
C119 C 0.56707 0.53707 0.47485 0.0
C120 C 0.54651 0.52698 0.48105 0.0
O121 O 0.52421 0.55666 0.53242 0.0
C122 C 0.49278 0.50946 0.47421 0.0
O123 O 0.49615 0.49632 0.48706 0.0
H124 H 0.56483 0.55991 0.52465 0.0
H125 H 0.53441 0.51575 0.46941 0.0
N126 N 0.50505 0.51167 0.53664 0.0
N127 N 0.47894 0.48963 0.56166 0.0
C128 C 0.48655 0.5065 0.54655 0.0
C129 C 0.50969 0.49784 0.54596 0.0
C130 C 0.49356 0.48417 0.56143 0.0
C131 C 0.53765 0.57483 0.52718 0.0
O132 O 0.54681 0.57951 0.50434 0.0
H133 H 0.47877 0.51492 0.54216 0.0
H134 H 0.52345 0.49736 0.54115 0.0
O135 O 0.50114 0.52743 0.48234 0.0
H136 H 0.57367 0.53492 0.45742 0.0
H137 H 0.49243 0.47085 0.57086 0.0
Cu138 Cu 0.70053 0.88551 0.34603 0.0
N139 N 0.71184 0.90951 0.32661 0.0
N140 N 0.71416 0.93766 0.30955 0.0
C141 C 0.70257 0.92059 0.32349 0.0
C142 C 0.73146 0.9373 0.30354 0.0
C143 C 0.72992 0.91978 0.31397 0.0
O144 O 0.68679 0.88966 0.3761 0.0
C145 C 0.69618 0.86088 0.30534 0.0
O146 O 0.71618 0.87193 0.30745 0.0
H147 H 0.68786 0.91648 0.33213 0.0
H148 H 0.74124 0.91501 0.31265 0.0
N149 N 0.72071 0.88062 0.3602 0.0
N150 N 0.73418 0.86302 0.37859 0.0
C151 C 0.717 0.86259 0.36966 0.0
C152 C 0.74095 0.89304 0.36335 0.0
C153 C 0.74931 0.88222 0.37473 0.0
C154 C 0.69921 0.90474 0.38952 0.0
O155 O 0.71842 0.91494 0.38176 0.0
H156 H 0.70187 0.84946 0.37004 0.0
H157 H 0.74907 0.90883 0.35781 0.0
O158 O 0.68487 0.86389 0.3211 0.0
H159 H 0.74428 0.94886 0.29249 0.0
H160 H 0.76533 0.88797 0.37932 0.0
Cu161 Cu 0.18722 0.88481 0.35043 0.0
N162 N 0.18344 0.85985 0.34075 0.0
N163 N 0.16552 0.82859 0.32577 0.0
C164 C 0.16471 0.84392 0.33705 0.0
C165 C 0.18575 0.83516 0.32246 0.0
C166 C 0.19678 0.85449 0.33172 0.0
O167 O 0.16242 0.87813 0.37009 0.0
C168 C 0.1874 0.89453 0.2962 0.0
O169 O 0.17451 0.87532 0.29322 0.0
H170 H 0.15071 0.84426 0.34077 0.0
H171 H 0.21322 0.86427 0.33067 0.0
N172 N 0.21065 0.89937 0.37065 0.0
N173 N 0.23756 0.92673 0.38665 0.0
C174 C 0.22303 0.91941 0.36806 0.0
C175 C 0.21763 0.89367 0.39155 0.0
C176 C 0.23422 0.91057 0.40155 0.0
C177 C 0.16237 0.88322 0.39348 0.0
O178 O 0.1794 0.8975 0.4034 0.0
H179 H 0.2208 0.92859 0.35345 0.0
H180 H 0.21073 0.87847 0.39946 0.0
O181 O 0.19215 0.90136 0.31905 0.0
H182 H 0.19214 0.82692 0.31324 0.0
H183 H 0.24298 0.91096 0.41857 0.0
Cu184 Cu 0.18474 0.41462 0.3413 0.0
N185 N 0.18039 0.42978 0.31576 0.0
N186 N 0.1683 0.43586 0.27879 0.0
C187 C 0.16941 0.42187 0.29417 0.0
C188 C 0.179 0.45333 0.29139 0.0
C189 C 0.18648 0.44953 0.31423 0.0
O190 O 0.15769 0.39253 0.35033 0.0
C191 C 0.22041 0.42113 0.31854 0.0
O192 O 0.2229 0.43938 0.31826 0.0
H193 H 0.16206 0.40599 0.29019 0.0
H194 H 0.19571 0.46036 0.32862 0.0
N195 N 0.19682 0.42923 0.37098 0.0
N196 N 0.21395 0.43623 0.4085 0.0
C197 C 0.20976 0.42617 0.3861 0.0
C198 C 0.19269 0.44183 0.38405 0.0
C199 C 0.20328 0.4462 0.40728 0.0
C200 C 0.15246 0.38441 0.37294 0.0
O201 O 0.1666 0.38873 0.39074 0.0
H202 H 0.21473 0.41552 0.3815 0.0
H203 H 0.18199 0.44666 0.37775 0.0
O204 O 0.2037 0.40668 0.32762 0.0
H205 H 0.18143 0.46785 0.28454 0.0
H206 H 0.20257 0.45541 0.42241 0.0
Cu207 Cu 0.17309 0.34132 0.84334 0.0
N208 N 0.16879 0.32399 0.81625 0.0
N209 N 0.17659 0.31458 0.77929 0.0
C210 C 0.1839 0.32617 0.80031 0.0
C211 C 0.15601 0.3046 0.7821 0.0
C212 C 0.15122 0.31036 0.80509 0.0
O213 O 0.20156 0.35148 0.85441 0.0
C214 C 0.14586 0.35403 0.82885 0.0
O215 O 0.13343 0.33512 0.83537 0.0
H216 H 0.19986 0.3373 0.80299 0.0
H217 H 0.136 0.30584 0.81227 0.0
N218 N 0.15635 0.32825 0.87216 0.0
N219 N 0.13951 0.32553 0.90897 0.0
C220 C 0.15438 0.33805 0.89226 0.0
C221 C 0.14236 0.30874 0.87627 0.0
C222 C 0.13186 0.30703 0.89902 0.0
C223 C 0.20473 0.33801 0.86512 0.0
O224 O 0.18913 0.31969 0.86793 0.0
H225 H 0.16289 0.35425 0.89367 0.0
H226 H 0.13946 0.2968 0.86316 0.0
O227 O 0.16521 0.361 0.83054 0.0
H228 H 0.14522 0.29459 0.76802 0.0
H229 H 0.11928 0.29334 0.90724 0.0
Cu230 Cu 0.69014 0.87944 0.84289 0.0
N231 N 0.70085 0.86577 0.82511 0.0
N232 N 0.70064 0.83946 0.80685 0.0
C233 C 0.69056 0.84575 0.82228 0.0
C234 C 0.71816 0.85634 0.79987 0.0
C235 C 0.71825 0.87259 0.81123 0.0
O236 O 0.67578 0.86162 0.87309 0.0
C237 C 0.67049 0.88094 0.79492 0.0
O238 O 0.67321 0.86605 0.78788 0.0
H239 H 0.67541 0.83619 0.83039 0.0
H240 H 0.72987 0.88824 0.80897 0.0
N241 N 0.71082 0.90392 0.85495 0.0
N242 N 0.72401 0.93501 0.87005 0.0
C243 C 0.70821 0.91992 0.85761 0.0
C244 C 0.72904 0.90897 0.86589 0.0
C245 C 0.73723 0.92821 0.87532 0.0
C246 C 0.67859 0.86741 0.89661 0.0
O247 O 0.68799 0.88675 0.9011 0.0
H248 H 0.69425 0.91987 0.85204 0.0
H249 H 0.73543 0.89906 0.86793 0.0
O250 O 0.67445 0.88692 0.81834 0.0
H251 H 0.72994 0.85702 0.78721 0.0
H252 H 0.75148 0.93629 0.88582 0.0
Cu253 Cu 0.19322 0.87291 0.82885 0.0
N254 N 0.18929 0.85429 0.80368 0.0
N255 N 0.17427 0.83445 0.7699 0.0
C256 C 0.17467 0.8486 0.78543 0.0
C257 C 0.18945 0.83122 0.77874 0.0
C258 C 0.19867 0.84348 0.79969 0.0
O259 O 0.16576 0.86724 0.83787 0.0
C260 C 0.21342 0.91568 0.82436 0.0
O261 O 0.2019 0.91446 0.8442 0.0
H262 H 0.16461 0.85492 0.78361 0.0
H263 H 0.21112 0.84428 0.81132 0.0
N264 N 0.20576 0.8696 0.85866 0.0
N265 N 0.22131 0.87738 0.89735 0.0
C266 C 0.21777 0.88447 0.87473 0.0
C267 C 0.20181 0.85243 0.87127 0.0
C268 C 0.21146 0.85718 0.89513 0.0
C269 C 0.16002 0.86809 0.86079 0.0
O270 O 0.17384 0.87669 0.87898 0.0
H271 H 0.22295 0.90014 0.87038 0.0
H272 H 0.19159 0.83751 0.86432 0.0
O273 O 0.2109 0.89961 0.81429 0.0
H274 H 0.19337 0.82053 0.771 0.0
H275 H 0.21017 0.84652 0.91026 0.0
Cu276 Cu 0.38609 0.24552 0.66195 0.0
N277 N 0.39465 0.26942 0.64288 0.0
N278 N 0.39158 0.29235 0.61846 0.0
C279 C 0.38165 0.27445 0.63134 0.0
C280 C 0.41173 0.29889 0.62228 0.0
C281 C 0.41358 0.28467 0.63736 0.0
O282 O 0.37405 0.24816 0.6945 0.0
C283 C 0.37571 0.22472 0.61586 0.0
O284 O 0.39235 0.24133 0.60868 0.0
H285 H 0.36517 0.26517 0.63287 0.0
H286 H 0.42769 0.28546 0.6439 0.0
N287 N 0.40771 0.24149 0.67158 0.0
N288 N 0.42129 0.22448 0.6912 0.0
C289 C 0.40593 0.2288 0.69118 0.0
C290 C 0.42491 0.24557 0.65864 0.0
C291 C 0.43338 0.23508 0.67077 0.0
C292 C 0.38691 0.26249 0.70852 0.0
O293 O 0.40584 0.27328 0.69986 0.0
H294 H 0.39246 0.22134 0.70355 0.0
H295 H 0.43002 0.2542 0.64057 0.0
O296 O 0.36903 0.22298 0.63915 0.0
H297 H 0.42428 0.31286 0.61469 0.0
H298 H 0.44663 0.23434 0.66411 0.0
Cu299 Cu 0.84976 0.19359 0.67555 0.0
N300 N 0.87205 0.19887 0.65422 0.0
N301 N 0.8966 0.21655 0.62474 0.0
C302 C 0.88123 0.21563 0.63909 0.0
C303 C 0.8972 0.1996 0.63094 0.0
C304 C 0.8821 0.18876 0.64943 0.0
O305 O 0.85623 0.2209 0.68536 0.0
C306 C 0.8226 0.15902 0.65122 0.0
O307 O 0.83807 0.15614 0.65684 0.0
H308 H 0.8764 0.22683 0.63826 0.0
H309 H 0.87871 0.17455 0.65856 0.0
N310 N 0.84767 0.17907 0.70625 0.0
N311 N 0.83295 0.16202 0.74311 0.0
C312 C 0.83102 0.17152 0.72174 0.0
C313 C 0.86068 0.17409 0.71805 0.0
C314 C 0.85165 0.16366 0.74101 0.0
C315 C 0.8721 0.22937 0.69988 0.0
O316 O 0.88059 0.21875 0.70783 0.0
H317 H 0.81788 0.17338 0.71759 0.0
H318 H 0.87569 0.17796 0.7107 0.0
O319 O 0.82411 0.17588 0.65699 0.0
H320 H 0.90786 0.19548 0.62289 0.0
H321 H 0.85826 0.15766 0.75493 0.0
Cu322 Cu 0.84576 0.67068 0.67149 0.0
N323 N 0.83156 0.65302 0.64493 0.0
N324 N 0.81392 0.64422 0.60774 0.0
C325 C 0.81728 0.65413 0.63018 0.0
C326 C 0.82631 0.63608 0.60877 0.0
C327 C 0.83728 0.64168 0.63161 0.0
O328 O 0.82803 0.67965 0.68634 0.0
C329 C 0.88686 0.70409 0.667 0.0
O330 O 0.88691 0.7042 0.69253 0.0
H331 H 0.81117 0.66388 0.63447 0.0
H332 H 0.84999 0.63938 0.6367 0.0
N333 N 0.85261 0.65798 0.69796 0.0
N334 N 0.86499 0.65416 0.73602 0.0
C335 C 0.85906 0.66542 0.72175 0.0
C336 C 0.85402 0.64113 0.69731 0.0
C337 C 0.86176 0.63879 0.72075 0.0
C338 C 0.82269 0.69115 0.67461 0.0
O339 O 0.83111 0.69947 0.65203 0.0
H340 H 0.8604 0.67944 0.7279 0.0
H341 H 0.85027 0.6315 0.68081 0.0
O342 O 0.87058 0.69198 0.65517 0.0
H343 H 0.82857 0.62805 0.59329 0.0
H344 H 0.86518 0.62696 0.72588 0.0
Cu345 Cu 0.86624 0.73799 0.15843 0.0
N346 N 0.88745 0.75538 0.13635 0.0
N347 N 0.9125 0.76438 0.1071 0.0
C348 C 0.90102 0.75094 0.12585 0.0
C349 C 0.90597 0.77796 0.10585 0.0
C350 C 0.89049 0.77237 0.12405 0.0
O351 O 0.87064 0.71481 0.16335 0.0
C352 C 0.82248 0.72154 0.15029 0.0
O353 O 0.81976 0.70798 0.16838 0.0
H354 H 0.90134 0.73722 0.13044 0.0
H355 H 0.88132 0.77949 0.12703 0.0
N356 N 0.86906 0.75 0.19035 0.0
N357 N 0.86035 0.75388 0.23035 0.0
C358 C 0.85357 0.74584 0.20682 0.0
C359 C 0.88635 0.76147 0.20361 0.0
C360 C 0.88102 0.76395 0.22834 0.0
C361 C 0.8712 0.70733 0.18563 0.0
O362 O 0.86367 0.71162 0.20591 0.0
H363 H 0.83765 0.7363 0.20195 0.0
H364 H 0.90169 0.76663 0.19633 0.0
O365 O 0.84063 0.73397 0.1426 0.0
H366 H 0.91134 0.79048 0.09205 0.0
H367 H 0.89155 0.77148 0.24404 0.0
Cu368 Cu 0.34621 0.20867 0.18056 0.0
N369 N 0.32645 0.18283 0.17062 0.0
N370 N 0.31389 0.15097 0.15878 0.0
C371 C 0.33051 0.16781 0.16691 0.0
C372 C 0.2987 0.15556 0.15733 0.0
C373 C 0.30647 0.17523 0.16481 0.0
O374 O 0.3621 0.20446 0.20842 0.0
C375 C 0.34809 0.22521 0.13212 0.0
O376 O 0.32846 0.216 0.13795 0.0
H377 H 0.34555 0.16937 0.16967 0.0
H378 H 0.29819 0.18343 0.16568 0.0
N379 N 0.33479 0.22327 0.19469 0.0
N380 N 0.33362 0.25043 0.20729 0.0
C381 C 0.34458 0.24349 0.19495 0.0
C382 C 0.31684 0.21713 0.20714 0.0
C383 C 0.31616 0.23391 0.21513 0.0
C384 C 0.35116 0.19496 0.22837 0.0
O385 O 0.33157 0.18942 0.22796 0.0
H386 H 0.35974 0.25293 0.18674 0.0
H387 H 0.30521 0.2016 0.21048 0.0
O388 O 0.36035 0.22405 0.14863 0.0
H389 H 0.28307 0.14539 0.15156 0.0
H390 H 0.30377 0.23396 0.22572 0.0
Cu391 Cu 0.85101 0.24622 0.1735 0.0
N392 N 0.83795 0.24496 0.14204 0.0
N393 N 0.81951 0.23109 0.10637 0.0
C394 C 0.82568 0.22776 0.12983 0.0
C395 C 0.82819 0.25133 0.10398 0.0
C396 C 0.83959 0.25983 0.12598 0.0
O397 O 0.83195 0.22401 0.19538 0.0
C398 C 0.88238 0.24302 0.14636 0.0
O399 O 0.86998 0.23753 0.12633 0.0
H400 H 0.82225 0.21316 0.13764 0.0
H401 H 0.84887 0.2757 0.12965 0.0
N402 N 0.85872 0.26975 0.19138 0.0
N403 N 0.87296 0.29125 0.22374 0.0
C404 C 0.87082 0.27464 0.2124 0.0
C405 C 0.85291 0.28379 0.1891 0.0
C406 C 0.86167 0.2971 0.20917 0.0
C407 C 0.81718 0.2255 0.20491 0.0
O408 O 0.81577 0.24162 0.19937 0.0
H409 H 0.87715 0.26552 0.21989 0.0
H410 H 0.8425 0.28394 0.17455 0.0
O411 O 0.87623 0.24567 0.16811 0.0
H412 H 0.82675 0.25953 0.08741 0.0
H413 H 0.85963 0.30985 0.21294 0.0
C414 C 0.01162 0.64394 0.18624 0.0
O415 O 0.99308 0.63521 0.19639 0.0
O416 O 0.99374 0.67492 0.21936 0.0
Zn417 Zn 0.01841 0.67088 0.22788 0.0
O418 O 0.01351 0.65081 0.25776 0.0
C419 C 0.04231 0.71068 0.25042 0.0
O420 O 0.0241 0.70803 0.25624 0.0
O421 O 0.02546 0.66009 0.19612 0.0
C422 C 0.01433 0.65521 0.28163 0.0
O423 O 0.01639 0.6727 0.28756 0.0
C424 C 0.97733 0.66802 0.23281 0.0
O425 O 0.97548 0.65745 0.25418 0.0
O426 O 0.04355 0.69729 0.23764 0.0
C427 C 0.41409 0.45999 0.30749 0.0
O428 O 0.41 0.47178 0.29263 0.0
O429 O 0.36413 0.43074 0.27189 0.0
Zn430 Zn 0.39113 0.43117 0.26771 0.0
O431 O 0.40651 0.44932 0.23672 0.0
C432 C 0.37907 0.39486 0.2395 0.0
O433 O 0.37816 0.40599 0.22021 0.0
O434 O 0.40776 0.44198 0.30065 0.0
C435 C 0.42087 0.4485 0.22478 0.0
O436 O 0.42639 0.43544 0.23278 0.0
C437 C 0.34891 0.41596 0.28321 0.0
O438 O 0.35094 0.40088 0.29246 0.0
O439 O 0.38476 0.40251 0.2618 0.0
C440 C 0.68116 0.04881 0.29569 0.0
O441 O 0.69523 0.06708 0.30181 0.0
O442 O 0.64851 0.07479 0.31839 0.0
Zn443 Zn 0.65948 0.06989 0.28542 0.0
O444 O 0.68673 0.0939 0.27664 0.0
C445 C 0.63754 0.08232 0.25281 0.0
O446 O 0.64629 0.09735 0.26884 0.0
O447 O 0.66357 0.04572 0.28856 0.0
C448 C 0.69402 0.11078 0.28749 0.0
O449 O 0.68329 0.11336 0.30553 0.0
C450 C 0.6523 0.07096 0.34131 0.0
O451 O 0.66367 0.06244 0.34466 0.0
O452 O 0.64049 0.06742 0.25608 0.0
C453 C 0.00757 0.41788 0.78365 0.0
O454 O 0.99238 0.3993 0.7861 0.0
O455 O 0.02698 0.42279 0.70226 0.0
Zn456 Zn 0.0204 0.40528 0.7354 0.0
O457 O 0.04423 0.40019 0.74416 0.0
C458 C 0.97731 0.37457 0.7204 0.0
O459 O 0.9766 0.38957 0.70836 0.0
O460 O 0.01981 0.42277 0.76438 0.0
C461 C 0.04561 0.39544 0.76774 0.0
O462 O 0.03142 0.39333 0.78435 0.0
C463 C 0.02189 0.41739 0.6789 0.0
O464 O 0.01138 0.39815 0.67386 0.0
O465 O 0.99352 0.37804 0.73276 0.0
C466 C 0.60798 0.64596 0.68874 0.0
O467 O 0.5982 0.64118 0.71116 0.0
O468 O 0.62947 0.64706 0.7525 0.0
Zn469 Zn 0.64486 0.66561 0.72137 0.0
O470 O 0.67151 0.6659 0.71381 0.0
C471 C 0.64183 0.69946 0.74195 0.0
O472 O 0.62351 0.68557 0.74989 0.0
O473 O 0.62747 0.65641 0.68856 0.0
C474 C 0.68678 0.67383 0.72908 0.0
O475 O 0.68488 0.68089 0.75127 0.0
C476 C 0.63355 0.65248 0.77605 0.0
O477 O 0.64871 0.67056 0.78087 0.0
O478 O 0.65285 0.69435 0.7291 0.0
C479 C 0.43033 0.06595 0.75298 0.0
O480 O 0.43671 0.08097 0.76899 0.0
O481 O 0.40686 0.06062 0.81489 0.0
Zn482 Zn 0.3945 0.05781 0.77897 0.0
O483 O 0.39728 0.08408 0.76598 0.0
C484 C 0.35335 0.03398 0.79847 0.0
O485 O 0.36125 0.0464 0.81782 0.0
O486 O 0.41155 0.05234 0.75379 0.0
C487 C 0.38947 0.09396 0.77541 0.0
O488 O 0.37737 0.08674 0.79588 0.0
C489 C 0.41705 0.07747 0.82584 0.0
O490 O 0.41948 0.09387 0.81386 0.0
O491 O 0.36477 0.03578 0.77924 0.0
C492 C 0.66557 0.95775 0.54952 0.0
O493 O 0.64672 0.94994 0.55839 0.0
O494 O 0.64947 0.98858 0.5846 0.0
Zn495 Zn 0.67429 0.98514 0.59323 0.0
O496 O 0.66915 0.96625 0.62527 0.0
C497 C 0.69712 0.02784 0.60838 0.0
O498 O 0.6786 0.02467 0.61343 0.0
O499 O 0.67991 0.97272 0.56117 0.0
C500 C 0.67178 0.97198 0.64879 0.0
O501 O 0.67756 0.99086 0.6533 0.0
C502 C 0.63391 0.98344 0.59916 0.0
O503 O 0.63291 0.97481 0.62194 0.0
O504 O 0.69914 0.01337 0.59984 0.0
C505 C 0.08117 0.77861 0.61695 0.0
O506 O 0.06833 0.78533 0.61244 0.0
O507 O 0.03452 0.75361 0.58587 0.0
Zn508 Zn 0.0611 0.75671 0.5718 0.0
O509 O 0.07306 0.7785 0.54339 0.0
C510 C 0.04079 0.71315 0.56437 0.0
O511 O 0.02591 0.71303 0.5778 0.0
O512 O 0.08126 0.76582 0.60169 0.0
C513 C 0.06948 0.7756 0.51919 0.0
O514 O 0.05687 0.75735 0.51132 0.0
C515 C 0.01906 0.75101 0.57261 0.0
O516 O 0.01963 0.75019 0.54716 0.0
O517 O 0.05689 0.72987 0.55925 0.0
C518 C 0.31963 0.36553 0.56276 0.0
O519 O 0.32962 0.38428 0.55415 0.0
O520 O 0.27355 0.36791 0.61411 0.0
Zn521 Zn 0.29445 0.37955 0.58501 0.0
O522 O 0.32055 0.40394 0.59616 0.0
C523 C 0.27497 0.39858 0.55795 0.0
O524 O 0.27394 0.404 0.58169 0.0
O525 O 0.30279 0.35934 0.57494 0.0
C526 C 0.33336 0.40184 0.61037 0.0
O527 O 0.32809 0.38401 0.62055 0.0
C528 C 0.27366 0.35524 0.63053 0.0
O529 O 0.28777 0.34992 0.62866 0.0
O530 O 0.283 0.38758 0.55435 0.0
C531 C 0.66726 0.7833 0.14062 0.0
O532 O 0.65509 0.78459 0.1231 0.0
O533 O 0.68142 0.78387 0.06878 0.0
Zn534 Zn 0.6803 0.76471 0.09864 0.0
O535 O 0.70624 0.76183 0.09998 0.0
C536 C 0.64055 0.73184 0.07867 0.0
O537 O 0.63735 0.74637 0.07008 0.0
O538 O 0.67811 0.7754 0.13444 0.0
C539 C 0.70498 0.74768 0.11494 0.0
O540 O 0.6878 0.73663 0.12791 0.0
C541 C 0.67986 0.77902 0.04495 0.0
O542 O 0.67848 0.76173 0.03935 0.0
O543 O 0.65663 0.73626 0.09185 0.0
C544 C 0.28352 0.95288 0.06025 0.0
O545 O 0.29063 0.94537 0.07814 0.0
O546 O 0.28117 0.96589 0.12703 0.0
Zn547 Zn 0.29933 0.98342 0.09713 0.0
O548 O 0.32742 0.98534 0.09536 0.0
C549 C 0.30527 0.0192 0.12196 0.0
O550 O 0.3069 0.00931 0.14221 0.0
O551 O 0.28512 0.96999 0.06386 0.0
C552 C 0.34334 0.99653 0.10846 0.0
O553 O 0.34228 0.00783 0.12648 0.0
C554 C 0.28691 0.96367 0.14962 0.0
O555 O 0.30659 0.97242 0.15487 0.0
O556 O 0.30204 0.01128 0.09968 0.0
C557 C 0.08725 0.37736 0.04846 0.0
O558 O 0.09961 0.39033 0.0654 0.0
O559 O 0.07395 0.38716 0.1105 0.0
Zn560 Zn 0.0547 0.37686 0.07985 0.0
O561 O 0.04531 0.39638 0.06796 0.0
C562 C 0.02628 0.34199 0.11193 0.0
O563 O 0.03977 0.35024 0.13058 0.0
O564 O 0.06803 0.37047 0.05052 0.0
C565 C 0.03434 0.4001 0.08314 0.0
O566 O 0.02998 0.39164 0.10652 0.0
C567 C 0.08286 0.40519 0.11821 0.0
O568 O 0.07979 0.41866 0.10575 0.0
O569 O 0.02962 0.35079 0.08975 0.0
C570 C 0.35836 0.3066 0.87954 0.0
O571 O 0.33948 0.29849 0.88843 0.0
O572 O 0.34052 0.33236 0.92068 0.0
Zn573 Zn 0.36707 0.33128 0.92581 0.0
O574 O 0.36376 0.31236 0.95698 0.0
C575 C 0.38733 0.37126 0.94751 0.0
O576 O 0.36906 0.36439 0.95795 0.0
O577 O 0.37276 0.32068 0.89227 0.0
C578 C 0.37815 0.31521 0.97274 0.0
O579 O 0.39638 0.33103 0.96909 0.0
C580 C 0.33963 0.3452 0.90521 0.0
O581 O 0.35625 0.35813 0.89239 0.0
O582 O 0.39043 0.35979 0.93292 0.0
C583 C 0.74313 0.12676 0.97315 0.0
O584 O 0.73778 0.13241 0.9515 0.0
O585 O 0.69314 0.08353 0.94961 0.0
Zn586 Zn 0.723 0.09058 0.94614 0.0
O587 O 0.73767 0.10597 0.91314 0.0
C588 C 0.71127 0.05117 0.93167 0.0
O589 O 0.69661 0.05377 0.92147 0.0
O590 O 0.73848 0.10842 0.97619 0.0
C591 C 0.73169 0.10194 0.88974 0.0
O592 O 0.71309 0.08729 0.88506 0.0
C593 C 0.68512 0.09326 0.93927 0.0
O594 O 0.69638 0.10889 0.92395 0.0
O595 O 0.72472 0.06497 0.94558 0.0
C596 C 0.98152 0.67755 0.94104 0.0
O597 O 0.96292 0.67493 0.94335 0.0
O598 O 0.97734 0.72423 0.95231 0.0
Zn599 Zn 0.99004 0.71686 0.92324 0.0
O600 O 0.01581 0.74174 0.91034 0.0
C601 C 0.95444 0.70816 0.89131 0.0
O602 O 0.95103 0.71865 0.90842 0.0
O603 O 0.99607 0.69476 0.9339 0.0
C604 C 0.02522 0.75728 0.92413 0.0
O605 O 0.0184 0.75708 0.94764 0.0
C606 C 0.98069 0.72298 0.97636 0.0
O607 O 0.99272 0.71581 0.98356 0.0
O608 O 0.97009 0.70597 0.89373 0.0
C609 C 0.35565 0.1349 0.46802 0.0
O610 O 0.3497 0.13828 0.44525 0.0
O611 O 0.36893 0.12704 0.40419 0.0
Zn612 Zn 0.36634 0.10962 0.43691 0.0
O613 O 0.39082 0.10505 0.44283 0.0
C614 C 0.33991 0.07229 0.41183 0.0
O615 O 0.35354 0.08158 0.39324 0.0
O616 O 0.36292 0.12296 0.46943 0.0
C617 C 0.38751 0.09124 0.45971 0.0
O618 O 0.36959 0.08202 0.47155 0.0
C619 C 0.38031 0.13088 0.38411 0.0
O620 O 0.39287 0.12358 0.38306 0.0
O621 O 0.34153 0.08157 0.43272 0.0
C622 C 0.94147 0.33546 0.39614 0.0
O623 O 0.93705 0.3464 0.41123 0.0
O624 O 0.96021 0.32108 0.46482 0.0
Zn625 Zn 0.97235 0.34202 0.43549 0.0
O626 O 1.00089 0.34743 0.42603 0.0
C627 C 0.96313 0.37153 0.46033 0.0
O628 O 0.9502 0.3566 0.4755 0.0
O629 O 0.95532 0.33134 0.40306 0.0
C630 C 0.01043 0.3394 0.43702 0.0
O631 O 1.00191 0.32682 0.45684 0.0
C632 C 0.96553 0.32479 0.48849 0.0
O633 O 0.97928 0.34315 0.49477 0.0
O634 O 0.97364 0.36848 0.44357 0.0
C635 C 0.77775 0.72421 0.39369 0.0
O636 O 0.78547 0.73537 0.41421 0.0
O637 O 0.75919 0.70427 0.45802 0.0
Zn638 Zn 0.74364 0.70671 0.42759 0.0
O639 O 0.73894 0.73036 0.42917 0.0
C640 C 0.70683 0.67894 0.45036 0.0
O641 O 0.71462 0.69353 0.46714 0.0
O642 O 0.7593 0.70989 0.39457 0.0
C643 C 0.75074 0.74706 0.43961 0.0
O644 O 0.76704 0.74941 0.45222 0.0
C645 C 0.76415 0.69072 0.45564 0.0
O646 O 0.76043 0.6813 0.43354 0.0
O647 O 0.71648 0.68114 0.42921 0.0
H648 H 1.00063 0.47646 0.9937 0.0
H649 H 0.01693 0.41677 0.11318 0.0
H650 H 1.0016 0.49247 0.07386 0.0
H651 H 0.03396 0.41446 0.03386 0.0
H652 H 1.00487 0.43991 0.09894 0.0
H653 H 1.00552 0.44849 0.00818 0.0
C654 C 1.00143 0.47388 0.01439 0.0
C655 C 1.00092 0.48702 0.03258 0.0
C656 C 0.01117 0.43425 0.08467 0.0
C657 C 0.00675 0.45508 0.04922 0.0
C658 C 0.01805 0.42105 0.09276 0.0
C659 C 0.02662 0.41378 0.07471 0.0
C660 C 0.01262 0.44006 0.05829 0.0
C661 C 0.02764 0.41982 0.04848 0.0
C662 C 1.00441 0.45798 0.02261 0.0
C663 C 1.00207 0.48285 0.05913 0.0
N664 N 0.02073 0.4326 0.04107 0.0
N665 N 1.00511 0.46734 0.06664 0.0
H666 H 0.54731 0.62427 1.00351 0.0
H667 H 0.6433 0.69808 0.09111 0.0
H668 H 0.5841 0.60524 0.04779 0.0
H669 H 0.60633 0.7174 0.04776 0.0
H670 H 0.6216 0.66398 0.07561 0.0
H671 H 0.56881 0.65848 0.01909 0.0
C672 C 0.55996 0.62727 0.01638 0.0
C673 C 0.56386 0.61177 0.02431 0.0
C674 C 0.61817 0.67565 0.06953 0.0
C675 C 0.58851 0.65098 0.04241 0.0
C676 C 0.63055 0.69516 0.07846 0.0
C677 C 0.62668 0.71073 0.07078 0.0
C678 C 0.60176 0.67155 0.0527 0.0
C679 C 0.60993 0.70594 0.05426 0.0
C680 C 0.57221 0.64682 0.02535 0.0
C681 C 0.58046 0.61664 0.04111 0.0
N682 N 0.59815 0.68684 0.04575 0.0
N683 N 0.59211 0.63573 0.04959 0.0
H684 H 0.44592 0.00653 0.0209 0.0
H685 H 0.3798 0.01678 0.13432 0.0
H686 H 0.47159 0.03702 0.09263 0.0
H687 H 0.35267 0.9804 0.06705 0.0
H688 H 0.41327 0.0221 0.12073 0.0
H689 H 0.41148 0.99424 0.03883 0.0
C690 C 0.44436 0.01036 0.04057 0.0
C691 C 0.46175 0.02303 0.05514 0.0
C692 C 0.39999 0.0128 0.10903 0.0
C693 C 0.42232 0.00923 0.07566 0.0
C694 C 0.38084 0.00977 0.11679 0.0
C695 C 0.36338 0.99826 0.10171 0.0
C696 C 0.40182 1.00443 0.08585 0.0
C697 C 0.3657 0.98946 0.07924 0.0
C698 C 0.42466 1.0034 0.05076 0.0
C699 C 0.4587 0.02746 0.08054 0.0
N700 N 0.38458 0.9929 0.07186 0.0
N701 N 0.43942 0.02079 0.08983 0.0
H702 H 0.44952 0.0313 0.52796 0.0
H703 H 0.42778 0.10834 0.44277 0.0
H704 H 0.49685 0.0821 0.48497 0.0
H705 H 0.38278 0.06017 0.49159 0.0
H706 H 0.4529 0.09787 0.45518 0.0
H707 H 0.42438 0.0403 0.51165 0.0
C708 C 0.45463 0.04424 0.5149 0.0
C709 C 0.47541 0.05596 0.50795 0.0
C710 C 0.4375 0.08959 0.46309 0.0
C711 C 0.44658 0.06653 0.48926 0.0
C712 C 0.42315 0.09557 0.45601 0.0
C713 C 0.40313 0.08522 0.46622 0.0
C714 C 0.43175 0.07309 0.48042 0.0
C715 C 0.39803 0.06873 0.48328 0.0
C716 C 0.44025 0.04944 0.50565 0.0
C717 C 0.48103 0.07261 0.49094 0.0
N718 N 0.41219 0.06323 0.48981 0.0
N719 N 0.46675 0.07744 0.48229 0.0
H720 H 0.97761 0.48506 0.51015 0.0
H721 H 0.97825 0.40155 0.42315 0.0
H722 H 0.97991 0.48891 0.42616 0.0
H723 H 0.95144 0.3871 0.50013 0.0
H724 H 0.98075 0.43452 0.42513 0.0
H725 H 0.96866 0.44967 0.50815 0.0
C726 C 0.97582 0.4784 0.49129 0.0
C727 C 0.97972 0.49011 0.46828 0.0
C728 C 0.97421 0.42411 0.44155 0.0
C729 C 0.96995 0.44978 0.46595 0.0
C730 C 0.97293 0.40533 0.44052 0.0
C731 C 0.96471 0.39157 0.46156 0.0
C732 C 0.96755 0.4294 0.46396 0.0
C733 C 0.95788 0.39726 0.48347 0.0
C734 C 0.97079 0.45822 0.49019 0.0
C735 C 0.97721 0.48061 0.44443 0.0
N736 N 0.95965 0.41584 0.48423 0.0
N737 N 0.97282 0.46114 0.44391 0.0
H738 H 0.60821 0.55522 0.46132 0.0
H739 H 0.68098 0.67151 0.4913 0.0
H740 H 0.593 0.58833 0.51534 0.0
H741 H 0.6899 0.64301 0.42511 0.0
H742 H 0.65063 0.63985 0.50348 0.0
H743 H 0.64041 0.58591 0.45143 0.0
C744 C 0.61153 0.56879 0.47121 0.0
C745 C 0.59742 0.569 0.48892 0.0
C746 C 0.65919 0.64049 0.48627 0.0
C747 C 0.63453 0.60423 0.4778 0.0
C748 C 0.67653 0.65859 0.47926 0.0
C749 C 0.68795 0.65994 0.45707 0.0
C750 C 0.65323 0.6235 0.4711 0.0
C751 C 0.68145 0.64266 0.44228 0.0
C752 C 0.62998 0.58634 0.46552 0.0
C753 C 0.60307 0.58711 0.50155 0.0
N754 N 0.66452 0.62512 0.44959 0.0
N755 N 0.62107 0.60394 0.49562 0.0
H756 H 0.03022 0.59766 0.92413 0.0
H757 H 0.95513 0.63957 0.9605 0.0
H758 H 0.97872 0.56502 0.97631 0.0
H759 H 0.01585 0.67585 0.92789 0.0
H760 H 0.9608 0.6106 0.96252 0.0
H761 H 0.02173 0.62442 0.92005 0.0
C762 C 0.01694 0.59599 0.93454 0.0
C763 C 1.00527 0.57912 0.95078 0.0
C764 C 0.97286 0.62493 0.95501 0.0
C765 C 0.99557 0.60999 0.94637 0.0
C766 C 0.96967 0.64148 0.95387 0.0
C767 C 0.98506 0.6602 0.94403 0.0
C768 C 0.99146 0.62708 0.94592 0.0
C769 C 1.00358 0.66178 0.93571 0.0
C770 C 0.01218 0.61138 0.9323 0.0
C771 C 0.98813 0.57776 0.96357 0.0
N772 N 0.00619 0.64544 0.93672 0.0
N773 N 0.98386 0.59311 0.96124 0.0
H774 H 0.45494 0.49627 0.99228 0.0
H775 H 0.42819 0.38982 0.93349 0.0
H776 H 0.50099 0.48309 0.96428 0.0
H777 H 0.38413 0.40048 0.97324 0.0
H778 H 0.45483 0.42437 0.94246 0.0
H779 H 0.42856 0.46172 0.98338 0.0
C780 C 0.45953 0.48614 0.98426 0.0
C781 C 0.48027 0.49267 0.97906 0.0
C782 C 0.43933 0.41913 0.94924 0.0
C783 C 0.45003 0.45296 0.96867 0.0
C784 C 0.42409 0.3994 0.94407 0.0
C785 C 0.40384 0.39216 0.95262 0.0
C786 C 0.43429 0.43182 0.96289 0.0
C787 C 0.3995 0.40532 0.96629 0.0
C788 C 0.44444 0.46636 0.97921 0.0
C789 C 0.48523 0.47877 0.96869 0.0
N790 N 0.41453 0.42445 0.97092 0.0
N791 N 0.47025 0.45964 0.96377 0.0
H792 H 0.57814 0.10342 0.96918 0.0
H793 H 0.658 0.063 0.97231 0.0
H794 H 0.56836 0.05176 0.0159 0.0
H795 H 0.6637 0.11175 0.92238 0.0
H796 H 0.62414 0.05672 0.98628 0.0
H797 H 0.60807 0.10457 0.94947 0.0
C798 C 0.58221 0.09216 0.97514 0.0
C799 C 0.57081 0.07756 0.99438 0.0
C800 C 0.63273 0.06866 0.9721 0.0
C801 C 0.60547 0.07895 0.972 0.0
C802 C 0.65209 0.07229 0.9641 0.0
C803 C 0.66385 0.08807 0.94627 0.0
C804 C 0.62507 0.08094 0.96228 0.0
C805 C 0.65531 0.09951 0.93626 0.0
C806 C 0.59935 0.09283 0.96384 0.0
C807 C 0.57671 0.06325 1.00112 0.0
N808 N 0.63656 0.09581 0.94453 0.0
N809 N 0.59382 0.06446 0.99017 0.0
H810 H 0.53267 0.00754 0.59965 0.0
H811 H 0.63072 1.00086 0.55316 0.0
H812 H 0.56132 0.02906 0.52432 0.0
H813 H 0.59957 0.97633 0.62649 0.0
H814 H 0.60432 0.00946 0.54107 0.0
H815 H 0.5554 0.99375 0.60832 0.0
C816 C 0.54352 0.00911 0.58474 0.0
C817 C 0.54509 0.01959 0.56125 0.0
C818 C 0.60318 1.00209 0.55974 0.0
C819 C 0.57153 1.00405 0.57128 0.0
C820 C 0.61829 0.99719 0.56669 0.0
C821 C 0.61749 0.98794 0.59097 0.0
C822 C 0.58711 0.99779 0.5772 0.0
C823 C 0.60093 0.98351 0.60762 0.0
C824 C 0.55659 1.00129 0.58976 0.0
C825 C 0.5595 0.02111 0.5427 0.0
N826 N 0.58651 0.98857 0.60049 0.0
N827 N 0.57229 0.01364 0.54822 0.0
H828 H 0.0683 0.62217 0.51469 0.0
H829 H 0.00748 0.67513 0.56868 0.0
H830 H 1.00305 0.58953 0.52943 0.0
H831 H 0.07033 0.70719 0.54189 0.0
H832 H 1.00551 0.64346 0.55661 0.0
H833 H 0.06931 0.65299 0.52733 0.0
C834 C 0.05413 0.62142 0.52069 0.0
C835 C 0.03552 0.60314 0.52091 0.0
C836 C 0.0197 0.65743 0.55334 0.0
C837 C 0.03662 0.63874 0.53545 0.0
C838 C 0.02087 0.67554 0.56023 0.0
C839 C 0.03913 0.6939 0.55633 0.0
C840 C 0.03697 0.65764 0.54264 0.0
C841 C 0.05593 0.69346 0.54524 0.0
C842 C 0.05473 0.63913 0.52785 0.0
C843 C 0.01773 0.60326 0.52897 0.0
N844 N 0.05446 0.67565 0.5389 0.0
N845 N 0.01871 0.62081 0.5359 0.0
H846 H 0.46519 0.46009 0.5996 0.0
H847 H 0.35014 0.43993 0.5892 0.0
H848 H 0.44591 0.49434 0.55048 0.0
H849 H 0.36636 0.39986 0.63022 0.0
H850 H 0.38646 0.46344 0.58161 0.0
H851 H 0.43019 0.44079 0.6167 0.0
C852 C 0.45375 0.46366 0.59241 0.0
C853 C 0.45872 0.47888 0.57332 0.0
C854 C 0.3821 0.44961 0.59253 0.0
C855 C 0.41864 0.45699 0.59317 0.0
C856 C 0.36134 0.43621 0.59698 0.0
C857 C 0.35516 0.41777 0.61007 0.0
C858 C 0.39683 0.44452 0.6011 0.0
C859 C 0.37041 0.41384 0.61986 0.0
C860 C 0.43377 0.45268 0.60233 0.0
C861 C 0.44315 0.48297 0.56523 0.0
N862 N 0.39054 0.42699 0.61488 0.0
N863 N 0.42389 0.47204 0.57508 0.0
H864 H 0.70846 0.82331 0.37063 0.0
H865 H 0.77563 0.78664 0.4522 0.0
H866 H 0.76385 0.86423 0.41071 0.0
H867 H 0.71819 0.74686 0.41519 0.0
H868 H 0.77112 0.81525 0.43925 0.0
H869 H 0.71142 0.79521 0.3885 0.0
C870 C 0.72117 0.82644 0.3834 0.0
C871 C 0.73588 0.84627 0.3892 0.0
C872 C 0.75945 0.80023 0.43416 0.0
C873 C 0.73957 0.8139 0.40954 0.0
C874 C 0.76197 0.78388 0.44161 0.0
C875 C 0.74734 0.76432 0.4346 0.0
C876 C 0.74219 0.79696 0.41958 0.0
C877 C 0.72996 0.76166 0.42087 0.0
C878 C 0.72292 0.81031 0.39353 0.0
C879 C 0.75226 0.84925 0.40546 0.0
N880 N 0.72795 0.77778 0.4137 0.0
N881 N 0.75369 0.83324 0.41502 0.0
H882 H 0.25559 0.95594 0.34932 0.0
H883 H 0.31502 0.04496 0.44952 0.0
H884 H 0.2537 0.94535 0.4323 0.0
H885 H 0.32829 0.05086 0.36721 0.0
H886 H 0.29 0.00925 0.44383 0.0
H887 H 0.27988 0.99152 0.35571 0.0
C888 C 0.26026 0.96112 0.36891 0.0
C889 C 0.25256 0.94761 0.3903 0.0
C890 C 0.29838 0.0184 0.42704 0.0
C891 C 0.28044 0.98849 0.39783 0.0
C892 C 0.31257 0.03881 0.43024 0.0
C893 C 0.3238 0.05096 0.40881 0.0
C894 C 0.29522 0.01013 0.40218 0.0
C895 C 0.32006 0.04211 0.38431 0.0
C896 C 0.27421 0.98144 0.37256 0.0
C897 C 0.25938 0.95518 0.41525 0.0
N898 N 0.3061 0.02231 0.38168 0.0
N899 N 0.27283 0.97512 0.41835 0.0
H900 H 0.11955 0.37873 0.34338 0.0
H901 H 0.03802 0.33022 0.46003 0.0
H902 H 0.1352 0.36586 0.41979 0.0
H903 H 0.02922 0.35867 0.39132 0.0
H904 H 0.07179 0.33819 0.44331 0.0
H905 H 0.08429 0.36571 0.35818 0.0
C906 C 0.11554 0.37289 0.36317 0.0
C907 C 0.13046 0.37358 0.38044 0.0
C908 C 0.06242 0.34262 0.4319 0.0
C909 C 0.09004 0.35877 0.39755 0.0
C910 C 0.04315 0.33808 0.44141 0.0
C911 C 0.03081 0.3439 0.42714 0.0
C912 C 0.06931 0.35285 0.40781 0.0
C913 C 0.03825 0.35403 0.4031 0.0
C914 C 0.0954 0.36558 0.37165 0.0
C915 C 0.12426 0.36575 0.40585 0.0
N916 N 0.05698 0.35815 0.39421 0.0
N917 N 0.10455 0.35879 0.41369 0.0
H918 H 0.15109 0.37623 0.78354 0.0
H919 H 0.0529 0.38729 0.81731 0.0
H920 H 0.11809 0.3584 0.85638 0.0
H921 H 0.07779 0.39706 0.73949 0.0
H922 H 0.0803 0.38162 0.83286 0.0
H923 H 0.12844 0.38925 0.76826 0.0
C924 C 0.13953 0.37567 0.79657 0.0
C925 C 0.13652 0.36645 0.82133 0.0
C926 C 0.07989 0.38504 0.81236 0.0
C927 C 0.11042 0.38077 0.80395 0.0
C928 C 0.06414 0.38826 0.8034 0.0
C929 C 0.06283 0.39248 0.77694 0.0
C930 C 0.09461 0.38594 0.79484 0.0
C931 C 0.07809 0.39371 0.76002 0.0
C932 C 0.12645 0.38284 0.78776 0.0
C933 C 0.12099 0.36555 0.83723 0.0
N934 N 0.0933 0.39034 0.76922 0.0
N935 N 0.10853 0.3725 0.82826 0.0
H936 H 0.67138 0.80471 0.82995 0.0
H937 H 0.67725 0.73267 0.72495 0.0
H938 H 0.71249 0.82748 0.7638 0.0
H939 H 0.62629 0.71425 0.77788 0.0
H940 H 0.69225 0.76699 0.74078 0.0
H941 H 0.65686 0.77092 0.81336 0.0
C942 C 0.67735 0.80271 0.81187 0.0
C943 C 0.69307 0.81918 0.79813 0.0
C944 C 0.67774 0.75544 0.74882 0.0
C945 C 0.67659 0.78018 0.77919 0.0
C946 C 0.66916 0.73585 0.73981 0.0
C947 C 0.65046 0.72054 0.7501 0.0
C948 C 0.66769 0.75972 0.7685 0.0
C949 C 0.64068 0.72556 0.76931 0.0
C950 C 0.66904 0.78332 0.80244 0.0
C951 C 0.70049 0.81535 0.77516 0.0
N952 N 0.64947 0.74467 0.77799 0.0
N953 N 0.69216 0.79626 0.7664 0.0
H954 H 0.22895 0.9518 0.84865 0.0
H955 H 0.33263 1.00352 0.76416 0.0
H956 H 0.23996 0.92367 0.78368 0.0
H957 H 0.3244 0.02774 0.83513 0.0
H958 H 0.29705 0.97626 0.76758 0.0
H959 H 0.26198 0.98201 0.84013 0.0
C960 C 0.23814 0.95207 0.83234 0.0
C961 C 0.23173 0.93508 0.81701 0.0
C962 C 0.30301 0.9876 0.78233 0.0
C963 C 0.26969 0.96958 0.80731 0.0
C964 C 0.32333 1.00318 0.78039 0.0
C965 C 0.33159 0.01786 0.7995 0.0
C966 C 0.29082 0.98673 0.80349 0.0
C967 C 0.31876 0.01668 0.82004 0.0
C968 C 0.25707 0.9693 0.82758 0.0
C969 C 0.24434 0.93634 0.79615 0.0
N970 N 0.29907 1.00135 0.82154 0.0
N971 N 0.26277 0.95321 0.79205 0.0
H972 H 0.67651 0.93357 0.30233 0.0
H973 H 0.71851 0.05182 0.30421 0.0
H974 H 0.74082 0.97773 0.30487 0.0
H975 H 0.65533 0.00847 0.28851 0.0
H976 H 0.72682 0.02479 0.30509 0.0
H977 H 0.66832 0.96065 0.29741 0.0
C978 C 0.68891 0.94899 0.30178 0.0
C979 C 0.70937 0.95343 0.30422 0.0
C980 C 0.71115 0.02117 0.30137 0.0
C981 C 0.70013 0.98452 0.2986 0.0
C982 C 0.70635 0.0366 0.30098 0.0
C983 C 0.68616 0.03239 0.29637 0.0
C984 C 0.69563 1.00133 0.29732 0.0
C985 C 0.67109 0.01239 0.29217 0.0
C986 C 0.68424 0.96444 0.29886 0.0
C987 C 0.72486 0.97365 0.30292 0.0
N988 N 0.67612 0.99757 0.29286 0.0
N989 N 0.71991 0.98846 0.30043 0.0
H990 H 0.12615 0.81063 0.34323 0.0
H991 H 0.08273 0.72259 0.23985 0.0
H992 H 0.16495 0.80477 0.28662 0.0
H993 H 0.04469 0.73845 0.28481 0.0
H994 H 0.11325 0.75068 0.25882 0.0
H995 H 0.09647 0.78199 0.32462 0.0
C996 C 0.12849 0.80338 0.32685 0.0
C997 C 0.14818 0.81042 0.31633 0.0
C998 C 0.09821 0.74802 0.26445 0.0
C999 C 0.11401 0.77721 0.29498 0.0
C1000 C 0.08077 0.73199 0.25362 0.0
C1001 C 0.06107 0.72814 0.26068 0.0
C1002 C 0.09595 0.76016 0.28269 0.0
C1003 C 0.05952 0.74084 0.27867 0.0
C1004 C 0.11147 0.78694 0.31624 0.0
C1005 C 0.15016 0.79993 0.29549 0.0
N1006 N 0.07668 0.75617 0.2891 0.0
N1007 N 0.13329 0.78391 0.28544 0.0
H1008 H 0.22557 0.38811 0.3267 0.0
H1009 H 0.33955 0.44483 0.26697 0.0
H1010 H 0.25478 0.44789 0.29203 0.0
H1011 H 0.31332 0.38679 0.3063 0.0
H1012 H 0.30731 0.44475 0.27309 0.0
H1013 H 0.2562 0.38575 0.31624 0.0
C1014 C 0.2383 0.40063 0.31665 0.0
C1015 C 0.23766 0.41827 0.31038 0.0
C1016 C 0.30855 0.43199 0.28035 0.0
C1017 C 0.27269 0.41573 0.29851 0.0
C1018 C 0.327 0.43203 0.27686 0.0
C1019 C 0.32922 0.41585 0.28625 0.0
C1020 C 0.29212 0.41564 0.29337 0.0
C1021 C 0.31235 0.39964 0.29883 0.0
C1022 C 0.2558 0.39931 0.3108 0.0
C1023 C 0.25463 0.43405 0.29745 0.0
N1024 N 0.29453 0.39997 0.3021 0.0
N1025 N 0.27142 0.43243 0.29206 0.0
H1026 H 0.24308 0.36945 0.85079 0.0
H1027 H 0.30191 0.31991 0.92707 0.0
H1028 H 0.21342 0.31493 0.89795 0.0
H1029 H 0.33267 0.37107 0.8743 0.0
H1030 H 0.26979 0.31995 0.91927 0.0
H1031 H 0.27653 0.37258 0.86197 0.0
C1032 C 0.2436 0.3583 0.8637 0.0
C1033 C 0.22539 0.34184 0.8733 0.0
C1034 C 0.28356 0.33123 0.90941 0.0
C1035 C 0.26347 0.34524 0.88607 0.0
C1036 C 0.30195 0.3312 0.91389 0.0
C1037 C 0.32007 0.34543 0.90125 0.0
C1038 C 0.28314 0.3456 0.89215 0.0
C1039 C 0.31909 0.35974 0.88441 0.0
C1040 C 0.26266 0.36002 0.86997 0.0
C1041 C 0.22699 0.32778 0.88986 0.0
N1042 N 0.30096 0.35943 0.8803 0.0
N1043 N 0.24559 0.32977 0.89561 0.0
H1044 H 0.74438 0.95779 0.91174 0.0
H1045 H 0.68741 0.02211 0.89776 0.0
H1046 H 0.70533 0.95402 0.84752 0.0
H1047 H 0.73973 0.04034 0.94807 0.0
H1048 H 0.69196 0.99478 0.88258 0.0
H1049 H 0.74209 0.98659 0.92774 0.0
C1050 C 0.73554 0.96311 0.90084 0.0
C1051 C 0.72479 0.95324 0.87841 0.0
C1052 C 0.70248 1.00472 0.89695 0.0
C1053 C 0.72182 0.98586 0.89687 0.0
C1054 C 0.69981 0.02031 0.90579 0.0
C1055 C 0.71324 0.03362 0.92421 0.0
C1056 C 0.71862 1.0022 0.90665 0.0
C1057 C 0.72903 0.03044 0.93383 0.0
C1058 C 0.73414 0.97947 0.91008 0.0
C1059 C 0.71346 0.96077 0.86521 0.0
N1060 N 0.73129 0.01501 0.92494 0.0
N1061 N 0.71215 0.97646 0.87473 0.0
H1062 H 0.12816 0.84255 0.82996 0.0
H1063 H 0.05045 0.79172 0.94992 0.0
H1064 H 0.14201 0.86409 0.90844 0.0
H1065 H 0.04211 0.7643 0.87515 0.0
H1066 H 0.0815 0.82113 0.9333 0.0
H1067 H 0.09386 0.81711 0.84438 0.0
C1068 C 0.1239 0.8422 0.85014 0.0
C1069 C 0.13812 0.85537 0.86809 0.0
C1070 C 0.07283 0.80871 0.9205 0.0
C1071 C 0.09888 0.82608 0.88475 0.0
C1072 C 0.05509 0.79189 0.92997 0.0
C1073 C 0.04373 0.77541 0.91398 0.0
C1074 C 0.07925 0.80915 0.89479 0.0
C1075 C 0.05046 0.77657 0.88825 0.0
C1076 C 0.10433 0.82755 0.85838 0.0
C1077 C 0.13164 0.85417 0.89396 0.0
N1078 N 0.06781 0.79312 0.87949 0.0
N1079 N 0.11257 0.83965 0.90156 0.0
H1080 H 0.43636 0.20039 0.6764 0.0
H1081 H 0.37902 0.12129 0.79299 0.0
H1082 H 0.40582 0.21118 0.73962 0.0
H1083 H 0.41403 0.1129 0.73319 0.0
H1084 H 0.38994 0.15495 0.77482 0.0
H1085 H 0.43062 0.16947 0.69869 0.0
C1086 C 0.42882 0.19649 0.69521 0.0
C1087 C 0.42132 0.20827 0.706 0.0
C1088 C 0.39528 0.14576 0.76574 0.0
C1089 C 0.41426 0.17263 0.73137 0.0
C1090 C 0.38897 0.1265 0.77603 0.0
C1091 C 0.39551 0.1142 0.76451 0.0
C1092 C 0.40817 0.15274 0.74372 0.0
C1093 C 0.40851 0.1218 0.74266 0.0
C1094 C 0.42536 0.17871 0.70784 0.0
C1095 C 0.41148 0.20232 0.73036 0.0
N1096 N 0.41434 0.14053 0.73293 0.0
N1097 N 0.40802 0.18481 0.74208 0.0
H1098 H 0.89553 0.24673 0.74189 0.0
H1099 H 0.94361 0.36056 0.68838 0.0
H1100 H 0.87467 0.26176 0.67083 0.0
H1101 H 0.97071 0.34073 0.74824 0.0
H1102 H 0.91545 0.3258 0.68479 0.0
H1103 H 0.91943 0.28224 0.74811 0.0
C1104 C 0.89572 0.25758 0.72776 0.0
C1105 C 0.88305 0.25118 0.70576 0.0
C1106 C 0.92751 0.32909 0.69877 0.0
C1107 C 0.91093 0.29224 0.71258 0.0
C1108 C 0.94361 0.34895 0.7009 0.0
C1109 C 0.95968 0.35366 0.71863 0.0
C1110 C 0.9273 0.31378 0.71468 0.0
C1111 C 0.95879 0.33791 0.73423 0.0
C1112 C 0.90953 0.27791 0.73126 0.0
C1113 C 0.88401 0.26601 0.68818 0.0
N1114 N 0.94293 0.31879 0.7319 0.0
N1115 N 0.89789 0.28586 0.69183 0.0
H1116 H 0.80689 0.68381 0.72401 0.0
H1117 H 0.69973 0.67188 0.68008 0.0
H1118 H 0.79626 0.69881 0.64608 0.0
H1119 H 0.71989 0.68231 0.75988 0.0
H1120 H 0.73377 0.6781 0.66716 0.0
H1121 H 0.77404 0.68032 0.73769 0.0
C1122 C 0.79776 0.68661 0.70986 0.0
C1123 C 0.80434 0.69167 0.68389 0.0
C1124 C 0.73073 0.67905 0.68749 0.0
C1125 C 0.76657 0.68721 0.69925 0.0
C1126 C 0.71126 0.67534 0.69491 0.0
C1127 C 0.70695 0.67655 0.72112 0.0
C1128 C 0.7459 0.68365 0.70645 0.0
C1129 C 0.72256 0.68125 0.73946 0.0
C1130 C 0.77902 0.68459 0.71767 0.0
C1131 C 0.79186 0.69505 0.66634 0.0
N1132 N 0.7413 0.6845 0.73181 0.0
N1133 N 0.77345 0.69251 0.67426 0.0
H1134 H 0.82291 0.75035 0.11651 0.0
H1135 H 0.70504 0.71717 0.14354 0.0
H1136 H 0.78198 0.69933 0.16489 0.0
H1137 H 0.7443 0.76811 0.09393 0.0
H1138 H 0.733 0.71005 0.14995 0.0
H1139 H 0.79444 0.75645 0.10621 0.0
C1140 C 0.80792 0.74029 0.12478 0.0
C1141 C 0.80493 0.72428 0.14167 0.0
C1142 C 0.73559 0.72278 0.1376 0.0
C1143 C 0.77222 0.73135 0.13007 0.0
C1144 C 0.71956 0.72691 0.13391 0.0
C1145 C 0.72223 0.74335 0.1182 0.0
C1146 C 0.75467 0.73517 0.12558 0.0
C1147 C 0.74149 0.7553 0.10624 0.0
C1148 C 0.79167 0.74384 0.11893 0.0
C1149 C 0.78512 0.71184 0.15181 0.0
N1150 N 0.75698 0.75101 0.11024 0.0
N1151 N 0.76963 0.71569 0.14596 0.0
H1152 H 0.33526 0.13494 0.18181 0.0
H1153 H 0.2933 0.04046 0.08891 0.0
H1154 H 0.29017 0.12401 0.12256 0.0
H1155 H 0.32128 0.04337 0.16354 0.0
H1156 H 0.29539 0.07297 0.09717 0.0
H1157 H 0.33377 0.10326 0.17159 0.0
C1158 C 0.32511 0.1259 0.16654 0.0
C1159 C 0.31282 0.13213 0.15302 0.0
C1160 C 0.30107 0.06643 0.11166 0.0
C1161 C 0.31101 0.09576 0.14116 0.0
C1162 C 0.29998 0.04797 0.10692 0.0
C1163 C 0.30707 0.03916 0.1256 0.0
C1164 C 0.3096 0.07624 0.13505 0.0
C1165 C 0.31551 0.04951 0.14864 0.0
C1166 C 0.32417 0.10776 0.1608 0.0
C1167 C 0.29974 0.11966 0.13361 0.0
N1168 N 0.3166 0.06748 0.15265 0.0
N1169 N 0.29924 0.10209 0.12815 0.0
H1170 H 0.9127 0.25662 0.18306 0.0
H1171 H 0.99807 0.31823 0.07624 0.0
H1172 H 0.90279 0.24792 0.10042 0.0
H1173 H 0.01008 0.32282 0.15878 0.0
H1174 H 0.96444 0.28908 0.08484 0.0
H1175 H 0.94951 0.2768 0.1749 0.0
C1176 C 0.91828 0.2586 0.16323 0.0
C1177 C 0.90459 0.25092 0.14233 0.0
C1178 C 0.97449 0.29629 0.10109 0.0
C1179 C 0.94669 0.27428 0.13285 0.0
C1180 C 0.99369 0.31301 0.09619 0.0
C1181 C 0.00677 0.32317 0.11687 0.0
C1182 C 0.96818 0.2898 0.12687 0.0
C1183 C 1.0004 0.31555 0.14227 0.0
C1184 C 0.93933 0.27019 0.15858 0.0
C1185 C 0.91273 0.25378 0.1171 0.0
N1186 N 0.98142 0.29948 0.1466 0.0
N1187 N 0.93323 0.26555 0.11303 0.0
H1188 H 0.40895 0.33237 0.60618 0.0
H1189 H 0.30245 0.32511 0.57292 0.0
H1190 H 0.35284 0.2757 0.59913 0.0
H1191 H 0.36037 0.37834 0.55562 0.0
H1192 H 0.32064 0.30648 0.58157 0.0
H1193 H 0.39177 0.34947 0.58666 0.0
C1194 C 0.39313 0.32345 0.60031 0.0
C1195 C 0.38229 0.30253 0.60483 0.0
C1196 C 0.32935 0.32216 0.57547 0.0
C1197 C 0.36244 0.32211 0.58275 0.0
C1198 C 0.31896 0.33279 0.57053 0.0
C1199 C 0.32991 0.35331 0.56367 0.0
C1200 C 0.35087 0.33223 0.57402 0.0
C1201 C 0.3513 0.36252 0.56083 0.0
C1202 C 0.38331 0.33326 0.58918 0.0
C1203 C 0.36172 0.29187 0.59682 0.0
N1204 N 0.36112 0.35199 0.56642 0.0
N1205 N 0.35242 0.30179 0.58648 0.0
H1206 H 0.82037 0.12828 0.62376 0.0
H1207 H 0.69776 0.06135 0.62763 0.0
H1208 H 0.78188 0.15001 0.6547 0.0
H1209 H 0.73803 0.04078 0.59929 0.0
H1210 H 0.72764 0.09436 0.6353 0.0
H1211 H 0.78996 0.09731 0.61169 0.0
C1212 C 0.80545 0.12664 0.62778 0.0
C1213 C 0.80376 0.14185 0.64038 0.0
C1214 C 0.72994 0.08266 0.62733 0.0
C1215 C 0.76848 0.10587 0.6268 0.0
C1216 C 0.71286 0.06373 0.62295 0.0
C1217 C 0.71529 0.04809 0.61283 0.0
C1218 C 0.74971 0.08613 0.62156 0.0
C1219 C 0.73531 0.05225 0.60716 0.0
C1220 C 0.78803 0.10883 0.62092 0.0
C1221 C 0.78395 0.13879 0.6449 0.0
N1222 N 0.75166 0.07077 0.61163 0.0
N1223 N 0.76708 0.12107 0.63834 0.0
H1224 H 0.89243 0.70731 0.61405 0.0
H1225 H 0.01376 0.75426 0.62453 0.0
H1226 H 0.92582 0.72622 0.68613 0.0
H1227 H 0.98129 0.73998 0.55154 0.0
H1228 H 0.98201 0.74636 0.64696 0.0
H1229 H 0.92497 0.72174 0.59041 0.0
C1230 C 0.9066 0.71472 0.62491 0.0
C1231 C 0.90635 0.71536 0.65219 0.0
C1232 C 0.98183 0.74509 0.62602 0.0
C1233 C 0.94372 0.73174 0.62518 0.0
C1234 C 0.99997 0.74957 0.61317 0.0
C1235 C 1.00017 0.74761 0.5861 0.0
C1236 C 0.96364 0.73846 0.61178 0.0
C1237 C 0.98184 0.7416 0.57243 0.0
C1238 C 0.92519 0.72293 0.61137 0.0
C1239 C 0.92522 0.72526 0.66514 0.0
N1240 N 0.96429 0.73708 0.58544 0.0
N1241 N 0.94311 0.73285 0.65156 0.0
H1242 H 0.89881 0.70581 0.15186 0.0
H1243 H 0.94201 0.65846 0.25948 0.0
H1244 H 0.87379 0.68756 0.22946 0.0
H1245 H 0.97398 0.68653 0.18769 0.0
H1246 H 0.91472 0.66546 0.24654 0.0
H1247 H 0.9238 0.69487 0.16216 0.0
C1248 C 0.8983 0.69919 0.17091 0.0
C1249 C 0.88414 0.69771 0.18984 0.0
C1250 C 0.92766 0.67006 0.23355 0.0
C1251 C 0.91294 0.68527 0.20184 0.0
C1252 C 0.94331 0.66605 0.24094 0.0
C1253 C 0.96046 0.67198 0.22474 0.0
C1254 C 0.92899 0.68 0.20966 0.0
C1255 C 0.96114 0.68176 0.2009 0.0
C1256 C 0.91271 0.69309 0.17684 0.0
C1257 C 0.8844 0.68909 0.21424 0.0
N1258 N 0.94567 0.68546 0.1941 0.0
N1259 N 0.89857 0.68331 0.21953 0.0
H1260 H 0.35564 0.28218 0.17466 0.0
H1261 H 0.36821 0.36455 0.27622 0.0
H1262 H 0.32577 0.26601 0.24969 0.0
H1263 H 0.37546 0.37648 0.19334 0.0
H1264 H 0.35668 0.32902 0.26849 0.0
H1265 H 0.36703 0.31757 0.1827 0.0
C1266 C 0.35153 0.28612 0.19285 0.0
C1267 C 0.33976 0.27118 0.21155 0.0
C1268 C 0.3608 0.33945 0.25204 0.0
C1269 C 0.35284 0.31161 0.22098 0.0
C1270 C 0.3675 0.35973 0.25643 0.0
C1271 C 0.3728 0.3735 0.23538 0.0
C1272 C 0.35974 0.33297 0.22646 0.0
C1273 C 0.37146 0.36639 0.21013 0.0
C1274 C 0.35793 0.30628 0.19738 0.0
C1275 C 0.33466 0.27707 0.23471 0.0
N1276 N 0.36518 0.34666 0.20638 0.0
N1277 N 0.34137 0.29686 0.23888 0.0
H1278 H 0.78874 0.22721 0.23565 0.0
H1279 H 0.7227 0.1089 0.25715 0.0
H1280 H 0.80904 0.18649 0.21044 0.0
H1281 H 0.71087 0.15073 0.29807 0.0
H1282 H 0.75463 0.13702 0.24032 0.0
H1283 H 0.7604 0.19941 0.25918 0.0
C1284 C 0.78729 0.21241 0.2352 0.0
C1285 C 0.80113 0.20908 0.22089 0.0
C1286 C 0.74515 0.14004 0.25317 0.0
C1287 C 0.76866 0.17719 0.24766 0.0
C1288 C 0.72687 0.12401 0.2627 0.0
C1289 C 0.71402 0.12753 0.27882 0.0
C1290 C 0.75048 0.15974 0.25956 0.0
C1291 C 0.72029 0.14736 0.28561 0.0
C1292 C 0.77115 0.19657 0.24872 0.0
C1293 C 0.79866 0.18968 0.22118 0.0
N1294 N 0.73799 0.16277 0.2757 0.0
N1295 N 0.78256 0.17437 0.23413 0.0
H1296 H 0.05962 0.52441 0.87825 0.0
H1297 H 0.98537 0.4127 0.82831 0.0
H1298 H 0.00632 0.47992 0.92068 0.0
H1299 H 0.03845 0.45719 0.78548 0.0
H1300 H 0.99261 0.43725 0.8621 0.0
H1301 H 0.05218 0.50007 0.84412 0.0
C1302 C 0.04641 0.50953 0.8805 0.0
C1303 C 0.03358 0.50433 0.90246 0.0
C1304 C 1.00266 0.44167 0.84529 0.0
C1305 C 0.02483 0.47632 0.8632 0.0
C1306 C 0.99851 0.42764 0.82593 0.0
C1307 C 0.0113 0.43283 0.80395 0.0
C1308 C 0.01976 0.46108 0.84275 0.0
C1309 C 0.02813 0.45246 0.80204 0.0
C1310 C 0.0421 0.49564 0.86089 0.0
C1311 C 0.01651 0.48481 0.90402 0.0
N1312 N 0.03187 0.46582 0.82116 0.0
N1313 N 0.01268 0.47157 0.88473 0.0
H1314 H 0.57276 0.6064 0.92548 0.0
H1315 H 0.60072 0.61414 0.77371 0.0
H1316 H 0.53901 0.5591 0.8713 0.0
H1317 H 0.63681 0.66052 0.8281 0.0
H1318 H 0.57875 0.59327 0.80971 0.0
H1319 H 0.59742 0.62584 0.89079 0.0
C1320 C 0.57063 0.59999 0.90642 0.0
C1321 C 0.5536 0.58114 0.90131 0.0
C1322 C 0.59154 0.60797 0.81381 0.0
C1323 C 0.58168 0.60342 0.86136 0.0
C1324 C 0.6041 0.61991 0.79322 0.0
C1325 C 0.62063 0.63917 0.79781 0.0
C1326 C 0.59543 0.61533 0.83924 0.0
C1327 C 0.62424 0.6458 0.82358 0.0
C1328 C 0.58466 0.61115 0.88655 0.0
C1329 C 0.55161 0.57371 0.87608 0.0
N1330 N 0.61171 0.63396 0.84325 0.0
N1331 N 0.56536 0.58487 0.8571 0.0
H1332 H 0.48572 0.11872 0.96876 0.0
H1333 H 0.4209 0.04795 0.85225 0.0
H1334 H 0.48199 0.06176 0.95333 0.0
H1335 H 0.43664 0.11023 0.85665 0.0
H1336 H 0.43977 0.05134 0.89252 0.0
H1337 H 0.46468 0.1146 0.93047 0.0
C1338 C 0.48059 0.10539 0.95739 0.0
C1339 C 0.48578 0.09061 0.96446 0.0
C1340 C 0.43904 0.06424 0.8847 0.0
C1341 C 0.46134 0.08568 0.92073 0.0
C1342 C 0.42821 0.0623 0.86177 0.0
C1343 C 0.42729 0.07887 0.85099 0.0
C1344 C 0.44892 0.08284 0.89705 0.0
C1345 C 0.43705 0.0971 0.86418 0.0
C1346 C 0.46847 0.10301 0.93556 0.0
C1347 C 0.47828 0.07348 0.94905 0.0
N1348 N 0.44748 0.09861 0.8865 0.0
N1349 N 0.46647 0.07151 0.92797 0.0
H1350 H 0.48363 0.04729 0.61482 0.0
H1351 H 0.47122 0.09252 0.74766 0.0
H1352 H 0.53152 0.10143 0.6486 0.0
H1353 H 0.42183 0.04005 0.71263 0.0
H1354 H 0.49404 0.09457 0.71284 0.0
H1355 H 0.46123 0.04332 0.65132 0.0
C1356 C 0.48944 0.05843 0.62979 0.0
C1357 C 0.50953 0.07482 0.62847 0.0
C1358 C 0.47824 0.08255 0.71277 0.0
C1359 C 0.48396 0.07015 0.67062 0.0
C1360 C 0.46517 0.08133 0.73271 0.0
C1361 C 0.44452 0.06614 0.73301 0.0
C1362 C 0.47066 0.06851 0.69285 0.0
C1363 C 0.43763 0.05203 0.71315 0.0
C1364 C 0.47666 0.05605 0.65076 0.0
C1365 C 0.51627 0.08849 0.64883 0.0
N1366 N 0.45065 0.05362 0.69378 0.0
N1367 N 0.50351 0.08587 0.66899 0.0
H1368 H 0.01594 0.48276 0.54207 0.0
H1369 H 0.04859 0.45803 0.6804 0.0
H1370 H 0.07009 0.52554 0.58244 0.0
H1371 H 0.00647 0.412 0.62931 0.0
H1372 H 0.05549 0.48334 0.64599 0.0
H1373 H 0.01093 0.45703 0.575 0.0
C1374 C 0.02677 0.48674 0.55789 0.0
C1375 C 0.04342 0.50637 0.55955 0.0
C1376 C 0.04482 0.46769 0.64227 0.0
C1377 C 0.03775 0.47695 0.59743 0.0
C1378 C 0.04083 0.45322 0.66193 0.0
C1379 C 0.02689 0.43281 0.6578 0.0
C1380 C 0.03462 0.46182 0.61834 0.0
C1381 C 0.01736 0.42752 0.6334 0.0
C1382 C 0.02397 0.47201 0.57661 0.0
C1383 C 0.05714 0.51059 0.58031 0.0
N1384 N 0.02127 0.44193 0.6147 0.0
N1385 N 0.0539 0.49606 0.59855 0.0
H1386 H 0.57435 0.61024 0.52886 0.0
H1387 H 0.5667 0.62072 0.68265 0.0
H1388 H 0.52098 0.57147 0.57555 0.0
H1389 H 0.62303 0.65323 0.63861 0.0
H1390 H 0.54841 0.60616 0.64239 0.0
H1391 H 0.59081 0.6299 0.56743 0.0
C1392 C 0.5659 0.60608 0.54706 0.0
C1393 C 0.54626 0.58906 0.54894 0.0
C1394 C 0.56475 0.61657 0.64149 0.0
C1395 C 0.56516 0.61142 0.5933 0.0
C1396 C 0.57523 0.62493 0.66451 0.0
C1397 C 0.59651 0.63813 0.66413 0.0
C1398 C 0.57556 0.62143 0.61777 0.0
C1399 C 0.60666 0.64303 0.63992 0.0
C1400 C 0.5754 0.61724 0.56915 0.0
C1401 C 0.53617 0.58437 0.57317 0.0
N1402 N 0.59613 0.63462 0.61777 0.0
N1403 N 0.54577 0.59537 0.59437 0.0
H1404 H 0.07011 0.60725 0.07005 0.0
H1405 H 0.98476 0.61118 0.15891 0.0
H1406 H 1.00487 0.56809 0.0623 0.0
H1407 H 0.0491 0.65508 0.16361 0.0
H1408 H 0.99243 0.59505 0.1239 0.0
H1409 H 0.0634 0.62464 0.10497 0.0
C1410 C 0.05441 0.60229 0.07567 0.0
C1411 C 0.03805 0.58625 0.063 0.0
C1412 C 1.00492 0.60824 0.13249 0.0
C1413 C 0.03025 0.60607 0.10287 0.0
C1414 C 1.00053 0.61749 0.15256 0.0
C1415 C 0.01629 0.63455 0.1643 0.0
C1416 C 0.02527 0.61597 0.12401 0.0
C1417 C 0.03645 0.64199 0.15511 0.0
C1418 C 0.05059 0.61228 0.0955 0.0
C1419 C 0.018 0.58057 0.07103 0.0
N1420 N 0.04037 0.63262 0.13557 0.0
N1421 N 0.01471 0.59041 0.09038 0.0
H1422 H 0.49428 0.50793 0.08618 0.0
H1423 H 0.41482 0.47869 0.20483 0.0
H1424 H 0.46376 0.54112 0.10563 0.0
H1425 H 0.44997 0.44887 0.19226 0.0
H1426 H 0.43153 0.50057 0.167 0.0
H1427 H 0.47697 0.48484 0.12324 0.0
C1428 C 0.4839 0.51032 0.09814 0.0
C1429 C 0.48063 0.52661 0.09287 0.0
C1430 C 0.43563 0.48926 0.17249 0.0
C1431 C 0.46082 0.50032 0.1353 0.0
C1432 C 0.42605 0.47673 0.19412 0.0
C1433 C 0.431 0.46192 0.20183 0.0
C1434 C 0.45025 0.48699 0.15826 0.0
C1435 C 0.44571 0.46011 0.18711 0.0
C1436 C 0.47411 0.49721 0.11937 0.0
C1437 C 0.46709 0.52904 0.10916 0.0
N1438 N 0.4548 0.47248 0.16603 0.0
N1439 N 0.45772 0.51608 0.12954 0.0
H1440 H 0.57702 0.12121 0.14068 0.0
H1441 H 0.61755 0.05439 0.21519 0.0
H1442 H 0.56283 0.06204 0.11687 0.0
H1443 H 0.62946 0.1126 0.2403 0.0
H1444 H 0.5979 0.05704 0.17855 0.0
H1445 H 0.59691 0.11853 0.17681 0.0
C1446 C 0.57805 0.10765 0.14304 0.0
C1447 C 0.56818 0.09184 0.12565 0.0
C1448 C 0.60481 0.06922 0.19211 0.0
C1449 C 0.59106 0.08869 0.16697 0.0
C1450 C 0.616 0.0677 0.21304 0.0
C1451 C 0.62516 0.08329 0.23085 0.0
C1452 C 0.60278 0.08646 0.18895 0.0
C1453 C 0.62267 0.10019 0.22708 0.0
C1454 C 0.58947 0.10614 0.16364 0.0
C1455 C 0.57034 0.07473 0.1295 0.0
N1456 N 0.61175 0.10133 0.20657 0.0
N1457 N 0.5815 0.07359 0.14977 0.0
H1458 H 0.60158 0.07237 0.49083 0.0
H1459 H 0.63402 0.09423 0.34131 0.0
H1460 H 0.59516 0.11614 0.44324 0.0
H1461 H 0.65214 0.06032 0.39273 0.0
H1462 H 0.61991 0.10255 0.37854 0.0
H1463 H 0.62068 0.06812 0.45553 0.0
C1464 C 0.60437 0.08121 0.473 0.0
C1465 C 0.59667 0.09452 0.46985 0.0
C1466 C 0.62707 0.09339 0.38173 0.0
C1467 C 0.61835 0.08965 0.42933 0.0
C1468 C 0.63504 0.08853 0.36045 0.0
C1469 C 0.64415 0.07643 0.36389 0.0
C1470 C 0.62799 0.08593 0.40664 0.0
C1471 C 0.6452 0.06964 0.38917 0.0
C1472 C 0.6153 0.07882 0.45289 0.0
C1473 C 0.60092 0.10581 0.44652 0.0
N1474 N 0.63706 0.07436 0.40957 0.0
N1475 N 0.61126 0.10294 0.42701 0.0
H1476 H 0.03758 0.57007 0.36955 0.0
H1477 H 0.01346 0.65892 0.33436 0.0
H1478 H 0.02539 0.60305 0.42692 0.0
H1479 H 0.01792 0.62136 0.2765 0.0
H1480 H 0.01812 0.63872 0.3684 0.0
H1481 H 0.0314 0.58914 0.33511 0.0
C1482 C 0.03373 0.58138 0.37494 0.0
C1483 C 0.03198 0.5849 0.40125 0.0
C1484 C 0.01797 0.6348 0.34828 0.0
C1485 C 0.02471 0.60672 0.36185 0.0
C1486 C 0.01527 0.64633 0.32878 0.0
C1487 C 0.01531 0.64188 0.30246 0.0
C1488 C 0.02091 0.61872 0.34151 0.0
C1489 C 0.01774 0.62534 0.29651 0.0
C1490 C 0.03004 0.59217 0.35525 0.0
C1491 C 0.02667 0.59961 0.40698 0.0
N1492 N 0.02056 0.61445 0.31585 0.0
N1493 N 0.02328 0.60997 0.3875 0.0
H1494 H 0.48481 0.5324 0.43832 0.0
H1495 H 0.42349 0.43914 0.344 0.0
H1496 H 0.4725 0.47183 0.45492 0.0
H1497 H 0.43084 0.49792 0.32727 0.0
H1498 H 0.44201 0.45153 0.38461 0.0
H1499 H 0.46539 0.52074 0.39759 0.0
C1500 C 0.47797 0.51669 0.43351 0.0
C1501 C 0.48037 0.50312 0.45008 0.0
C1502 C 0.43959 0.46177 0.37211 0.0
C1503 C 0.4583 0.48972 0.40358 0.0
C1504 C 0.42902 0.45468 0.34883 0.0
C1505 C 0.42557 0.46748 0.33213 0.0
C1506 C 0.4469 0.48188 0.37887 0.0
C1507 C 0.43312 0.48749 0.33954 0.0
C1508 C 0.46693 0.51005 0.41026 0.0
C1509 C 0.47119 0.48292 0.44281 0.0
N1510 N 0.44345 0.49409 0.36234 0.0
N1511 N 0.46068 0.47691 0.42019 0.0
H1512 H 0.66049 0.84733 0.27623 0.0
H1513 H 0.6931 0.78601 0.18047 0.0
H1514 H 0.71394 0.84062 0.28596 0.0
H1515 H 0.646 0.80078 0.16087 0.0
H1516 H 0.69755 0.80214 0.22226 0.0
H1517 H 0.65143 0.82639 0.23725 0.0
C1518 C 0.67007 0.84115 0.27051 0.0
C1519 C 0.68804 0.84581 0.28436 0.0
C1520 C 0.68616 0.8018 0.2089 0.0
C1521 C 0.67791 0.82202 0.23981 0.0
C1522 C 0.68359 0.79253 0.18496 0.0
C1523 C 0.66924 0.79208 0.16688 0.0
C1524 C 0.67429 0.81074 0.21512 0.0
C1525 C 0.65734 0.80082 0.17406 0.0
C1526 C 0.66501 0.82936 0.24814 0.0
C1527 C 0.70003 0.83758 0.27582 0.0
N1528 N 0.66017 0.80983 0.1975 0.0
N1529 N 0.6948 0.82622 0.25423 0.0
H1530 H 0.22281 0.93093 0.29721 0.0
H1531 H 0.24562 0.93792 0.14459 0.0
H1532 H 0.18134 0.88617 0.24419 0.0
H1533 H 0.29289 0.96613 0.2023 0.0
H1534 H 0.22011 0.92235 0.17962 0.0
H1535 H 0.24654 0.9482 0.26107 0.0
C1536 C 0.21849 0.92491 0.2779 0.0
C1537 C 0.20005 0.90696 0.27379 0.0
C1538 C 0.23607 0.93192 0.18456 0.0
C1539 C 0.22732 0.92667 0.23235 0.0
C1540 C 0.25065 0.9408 0.16461 0.0
C1541 C 0.27145 0.95327 0.17053 0.0
C1542 C 0.24229 0.93583 0.2106 0.0
C1543 C 0.27707 0.9565 0.19683 0.0
C1544 C 0.23216 0.9347 0.25732 0.0
C1545 C 0.1954 0.89989 0.24829 0.0
N1546 N 0.26256 0.94794 0.21587 0.0
N1547 N 0.20898 0.90972 0.22854 0.0
H1548 H 0.15825 0.40518 0.24586 0.0
H1549 H 0.10081 0.44087 0.14396 0.0
H1550 H 0.15367 0.4587 0.25562 0.0
H1551 H 0.09597 0.38224 0.14476 0.0
H1552 H 0.12284 0.44937 0.18239 0.0
H1553 H 0.1382 0.39834 0.20625 0.0
C1554 C 0.15296 0.41548 0.2398 0.0
C1555 C 0.15748 0.43242 0.25443 0.0
C1556 C 0.11696 0.43466 0.1741 0.0
C1557 C 0.13463 0.42477 0.20858 0.0
C1558 C 0.10442 0.42981 0.15215 0.0
C1559 C 0.09648 0.41079 0.14115 0.0
C1560 C 0.12171 0.42045 0.18499 0.0
C1561 C 0.10166 0.39705 0.1526 0.0
C1562 C 0.14157 0.4116 0.21703 0.0
C1563 C 0.15065 0.4455 0.24501 0.0
N1564 N 0.11394 0.40217 0.17385 0.0
N1565 N 0.1395 0.44136 0.22273 0.0
H1566 H 0.10047 0.30765 0.92762 0.0
H1567 H 0.12745 0.39022 0.0363 0.0
H1568 H 0.16141 0.35711 0.94008 0.0
H1569 H 0.0656 0.347 0.01457 0.0
H1570 H 0.14044 0.37666 1.00354 0.0
H1571 H 0.08771 0.31982 0.96248 0.0
C1572 C 0.1112 0.32092 0.93791 0.0
C1573 C 0.13202 0.33144 0.93086 0.0
C1574 C 0.12403 0.37016 0.00593 0.0
C1575 C 0.11752 0.3456 0.97054 0.0
C1576 C 0.1166 0.37791 0.02462 0.0
C1577 C 0.0954 0.36979 0.02815 0.0
C1578 C 0.11017 0.35408 0.99076 0.0
C1579 C 0.08206 0.35381 0.01246 0.0
C1580 C 0.10389 0.32797 0.95764 0.0
C1581 C 0.1452 0.34871 0.94465 0.0
N1582 N 0.08967 0.34646 0.99451 0.0
N1583 N 0.13774 0.35527 0.96378 0.0
H1584 H 0.66755 0.82729 0.89477 0.0
H1585 H 0.68295 0.81638 0.04833 0.0
H1586 H 0.68222 0.87465 0.94894 0.0
H1587 H 0.67358 0.77126 0.99288 0.0
H1588 H 0.68037 0.83704 0.01279 0.0
H1589 H 0.66668 0.80546 0.93105 0.0
C1590 C 0.67027 0.83303 0.91431 0.0
C1591 C 0.675 0.85293 0.91868 0.0
C1592 C 0.67886 0.8226 0.00841 0.0
C1593 C 0.6743 0.82799 0.96045 0.0
C1594 C 0.68037 0.8108 0.02873 0.0
C1595 C 0.67859 0.79204 0.02369 0.0
C1596 C 0.67545 0.81562 0.98277 0.0
C1597 C 0.67516 0.78562 0.9978 0.0
C1598 C 0.66992 0.82058 0.93504 0.0
C1599 C 0.67855 0.85948 0.94451 0.0
N1600 N 0.67372 0.79734 0.97842 0.0
N1601 N 0.67823 0.84713 0.9643 0.0
H1602 H 0.22611 0.91384 0.91003 0.0
H1603 H 0.27852 0.91634 0.04709 0.0
H1604 H 0.23827 0.86701 0.93766 0.0
H1605 H 0.26761 0.96376 0.01851 0.0
H1606 H 0.26381 0.89808 0.00724 0.0
H1607 H 0.24151 0.93238 0.94931 0.0
C1608 C 0.2322 0.90749 0.92416 0.0
C1609 C 0.23094 0.88878 0.92031 0.0
C1610 C 0.26462 0.91247 0.00965 0.0
C1611 C 0.24838 0.90997 0.96586 0.0
C1612 C 0.27301 0.92293 0.03245 0.0
C1613 C 0.27432 0.94165 0.0362 0.0
C1614 C 0.25743 0.92073 0.99036 0.0
C1615 C 0.26692 0.94939 0.01649 0.0
C1616 C 0.24088 0.91808 0.94677 0.0
C1617 C 0.23873 0.88125 0.93981 0.0
N1618 N 0.2588 0.9389 0.99444 0.0
N1619 N 0.2471 0.89186 0.96171 0.0
H1620 H 0.72437 0.93528 0.42065 0.0
H1621 H 0.63827 0.92598 0.52025 0.0
H1622 H 0.6607 0.89008 0.41306 0.0
H1623 H 0.70257 0.9699 0.52504 0.0
H1624 H 0.6455 0.9123 0.48163 0.0
H1625 H 0.71596 0.9475 0.45896 0.0
C1626 C 0.70851 0.92782 0.42699 0.0
C1627 C 0.69323 0.91152 0.41332 0.0
C1628 C 0.65801 0.92491 0.49114 0.0
C1629 C 0.6834 0.92578 0.458 0.0
C1630 C 0.65393 0.93277 0.51325 0.0
C1631 C 0.66984 0.9492 0.52608 0.0
C1632 C 0.67818 0.93349 0.48163 0.0
C1633 C 0.68978 0.95728 0.51595 0.0
C1634 C 0.70372 0.9349 0.44907 0.0
C1635 C 0.67301 0.90265 0.42287 0.0
N1636 N 0.69333 0.94937 0.49444 0.0
N1637 N 0.66867 0.9099 0.44461 0.0
H1638 H 0.1577 0.88798 0.44521 0.0
H1639 H 0.06661 0.77466 0.46589 0.0
H1640 H 0.12785 0.84754 0.38218 0.0
H1641 H 0.09713 0.8151 0.52871 0.0
H1642 H 0.08629 0.80221 0.43468 0.0
H1643 H 0.13276 0.86285 0.47555 0.0
C1644 C 0.1457 0.87397 0.43764 0.0
C1645 C 0.14504 0.86986 0.41107 0.0
C1646 C 0.08858 0.8051 0.45529 0.0
C1647 C 0.11654 0.84078 0.4459 0.0
C1648 C 0.07734 0.78935 0.47315 0.0
C1649 C 0.08032 0.79248 0.50002 0.0
C1650 C 0.10295 0.82417 0.46429 0.0
C1651 C 0.09439 0.8119 0.50821 0.0
C1652 C 0.1315 0.85955 0.45504 0.0
C1653 C 0.12906 0.85139 0.40248 0.0
N1654 N 0.10525 0.82694 0.49045 0.0
N1655 N 0.11562 0.83747 0.41986 0.0
H1656 H 0.20914 0.44106 0.45988 0.0
H1657 H 0.27873 0.39398 0.50597 0.0
H1658 H 0.24381 0.42605 0.40723 0.0
H1659 H 0.25344 0.41887 0.55921 0.0
H1660 H 0.26559 0.40533 0.46957 0.0
H1661 H 0.22531 0.43346 0.4966 0.0
C1662 C 0.22033 0.43644 0.45598 0.0
C1663 C 0.22492 0.43399 0.43035 0.0
C1664 C 0.26297 0.40839 0.48921 0.0
C1665 C 0.24322 0.4249 0.47235 0.0
C1666 C 0.27041 0.40183 0.51002 0.0
C1667 C 0.26713 0.40542 0.5357 0.0
C1668 C 0.25202 0.41849 0.49406 0.0
C1669 C 0.25631 0.41576 0.53973 0.0
C1670 C 0.22947 0.43197 0.47698 0.0
C1671 C 0.23944 0.42775 0.4266 0.0
N1672 N 0.24906 0.42184 0.51914 0.0
N1673 N 0.24792 0.42327 0.44733 0.0
H1674 H 0.16625 0.31507 0.72876 0.0
H1675 H 0.27471 0.33533 0.67491 0.0
H1676 H 0.21416 0.3181 0.7785 0.0
H1677 H 0.23741 0.35558 0.63422 0.0
H1678 H 0.24948 0.32213 0.71034 0.0
H1679 H 0.18896 0.32267 0.69095 0.0
C1680 C 0.18139 0.31691 0.7316 0.0
C1681 C 0.18844 0.31603 0.75669 0.0
C1682 C 0.24681 0.32939 0.69358 0.0
C1683 C 0.2144 0.3248 0.71382 0.0
C1684 C 0.26116 0.3369 0.67335 0.0
C1685 C 0.25822 0.3467 0.65168 0.0
C1686 C 0.22924 0.33143 0.69196 0.0
C1687 C 0.24037 0.34829 0.65069 0.0
C1688 C 0.19439 0.32143 0.71012 0.0
C1689 C 0.20828 0.31881 0.75944 0.0
N1690 N 0.22652 0.34071 0.67055 0.0
N1691 N 0.22061 0.32311 0.73826 0.0
H1692 H 0.65934 0.87102 0.74422 0.0
H1693 H 0.676 0.97961 0.70105 0.0
H1694 H 0.67322 0.91819 0.79837 0.0
H1695 H 0.66159 0.93205 0.64733 0.0
H1696 H 0.67304 0.95683 0.7371 0.0
H1697 H 0.6577 0.89232 0.70917 0.0
C1698 C 0.66179 0.88577 0.74887 0.0
C1699 C 0.66647 0.89276 0.77443 0.0
C1700 C 0.67043 0.95132 0.71746 0.0
C1701 C 0.66486 0.91751 0.73396 0.0
C1702 C 0.67213 0.96435 0.69677 0.0
C1703 C 0.66913 0.95784 0.67094 0.0
C1704 C 0.66572 0.93152 0.71246 0.0
C1705 C 0.6641 0.93782 0.66682 0.0
C1706 C 0.66092 0.89799 0.72873 0.0
C1707 C 0.66949 0.91207 0.77907 0.0
N1708 N 0.66264 0.92546 0.68728 0.0
N1709 N 0.6688 0.92379 0.75904 0.0
H1710 H 0.1366 0.8307 0.76299 0.0
H1711 H 0.11351 0.77241 0.62914 0.0
H1712 H 0.17958 0.81597 0.72826 0.0
H1713 H 0.08034 0.80111 0.65668 0.0
H1714 H 0.13615 0.78494 0.66706 0.0
H1715 H 0.11401 0.81642 0.72609 0.0
C1716 C 0.14142 0.8246 0.74755 0.0
C1717 C 0.16029 0.8249 0.74868 0.0
C1718 C 0.1239 0.78846 0.66473 0.0
C1719 C 0.13407 0.80807 0.70622 0.0
C1720 C 0.11096 0.78129 0.64315 0.0
C1721 C 0.09502 0.78576 0.63968 0.0
C1722 C 0.12072 0.79997 0.68307 0.0
C1723 C 0.09245 0.79734 0.65844 0.0
C1724 C 0.12839 0.81632 0.72646 0.0
C1725 C 0.16522 0.81608 0.7283 0.0
N1726 N 0.1051 0.80398 0.67928 0.0
N1727 N 0.15222 0.80808 0.70785 0.0
H1728 H 0.36462 0.18473 0.62246 0.0
H1729 H 0.34555 0.16463 0.46949 0.0
H1730 H 0.36727 0.22822 0.56546 0.0
H1731 H 0.36399 0.13031 0.51955 0.0
H1732 H 0.34619 0.18401 0.50674 0.0
H1733 H 0.35691 0.1606 0.58732 0.0
C1734 C 0.36293 0.18895 0.6027 0.0
C1735 C 0.36637 0.2084 0.59682 0.0
C1736 C 0.34999 0.17217 0.50966 0.0
C1737 C 0.35789 0.18116 0.55668 0.0
C1738 C 0.34961 0.16103 0.48835 0.0
C1739 C 0.3549 0.14586 0.49122 0.0
C1740 C 0.35556 0.16813 0.5343 0.0
C1741 C 0.35995 0.14195 0.51632 0.0
C1742 C 0.35881 0.17531 0.58264 0.0
C1743 C 0.36458 0.21333 0.57082 0.0
N1744 N 0.36021 0.15304 0.53688 0.0
N1745 N 0.36049 0.19986 0.5518 0.0
H1746 H 0.91138 0.25632 0.6301 0.0
H1747 H 0.9443 0.28403 0.48163 0.0
H1748 H 0.90983 0.21276 0.57733 0.0
H1749 H 0.9664 0.32848 0.54137 0.0
H1750 H 0.92939 0.25747 0.51547 0.0
H1751 H 0.92963 0.28288 0.5971 0.0
C1752 C 0.91502 0.25241 0.61155 0.0
C1753 C 0.90908 0.23236 0.60633 0.0
C1754 C 0.9376 0.27304 0.52114 0.0
C1755 C 0.92971 0.26258 0.56836 0.0
C1756 C 0.94601 0.28821 0.50185 0.0
C1757 C 0.95656 0.30853 0.50868 0.0
C1758 C 0.93945 0.27822 0.54742 0.0
C1759 C 0.95841 0.31304 0.5352 0.0
C1760 C 0.92548 0.26755 0.59277 0.0
C1761 C 0.91429 0.22807 0.5821 0.0
N1762 N 0.94979 0.29802 0.55358 0.0
N1763 N 0.9241 0.24304 0.56383 0.0
H1764 H 0.82145 0.64118 0.55663 0.0
H1765 H 0.76318 0.69855 0.50711 0.0
H1766 H 0.78374 0.65409 0.6069 0.0
H1767 H 0.78189 0.66703 0.45521 0.0
H1768 H 0.77339 0.68481 0.54415 0.0
H1769 H 0.80861 0.65168 0.51918 0.0
C1770 C 0.81023 0.64587 0.55988 0.0
C1771 C 0.80396 0.64702 0.58517 0.0
C1772 C 0.77523 0.6809 0.52464 0.0
C1773 C 0.78963 0.6596 0.54226 0.0
C1774 C 0.76961 0.68889 0.50351 0.0
C1775 C 0.77173 0.68393 0.47807 0.0
C1776 C 0.78327 0.66809 0.52028 0.0
C1777 C 0.77997 0.6712 0.47452 0.0
C1778 C 0.80303 0.65203 0.53842 0.0
C1779 C 0.78945 0.65342 0.58791 0.0
N1780 N 0.78552 0.66377 0.4954 0.0
N1781 N 0.783 0.65972 0.56678 0.0
H1782 H 0.82238 0.72202 0.24035 0.0
H1783 H 0.81679 0.75506 0.38485 0.0
H1784 H 0.87031 0.77632 0.27387 0.0
H1785 H 0.76718 0.70385 0.34799 0.0
H1786 H 0.837 0.76277 0.34491 0.0
H1787 H 0.80229 0.71511 0.27985 0.0
C1788 C 0.82865 0.73268 0.25584 0.0
C1789 C 0.84811 0.74993 0.25356 0.0
C1790 C 0.8217 0.74985 0.34556 0.0
C1791 C 0.82512 0.74175 0.2994 0.0
C1792 C 0.81014 0.7454 0.36838 0.0
C1793 C 0.79024 0.72876 0.36977 0.0
C1794 C 0.81332 0.73755 0.32397 0.0
C1795 C 0.78244 0.71682 0.3478 0.0
C1796 C 0.81716 0.72859 0.27858 0.0
C1797 C 0.85549 0.76279 0.27478 0.0
N1798 N 0.79401 0.72145 0.32582 0.0
N1799 N 0.84399 0.75843 0.29683 0.0
H1800 H 0.33676 0.19028 0.27752 0.0
H1801 H 0.4008 0.14053 0.33697 0.0
H1802 H 0.38325 0.18661 0.23311 0.0
H1803 H 0.35589 0.14819 0.37954 0.0
H1804 H 0.39643 0.15865 0.29955 0.0
H1805 H 0.34566 0.17678 0.31558 0.0
C1806 C 0.34905 0.1868 0.27583 0.0
C1807 C 0.35921 0.18954 0.25197 0.0
C1808 C 0.38764 0.15646 0.31713 0.0
C1809 C 0.36939 0.17358 0.29588 0.0
C1810 C 0.3901 0.14609 0.33856 0.0
C1811 C 0.37863 0.14268 0.36155 0.0
C1812 C 0.37357 0.16349 0.31861 0.0
C1813 C 0.36503 0.15031 0.36233 0.0
C1814 C 0.35412 0.17902 0.29767 0.0
C1815 C 0.37509 0.18484 0.25113 0.0
N1816 N 0.36286 0.16022 0.34124 0.0
N1817 N 0.37955 0.17687 0.2727 0.0
H1818 H 0.86489 0.31227 0.2593 0.0
H1819 H 0.94856 0.31454 0.35908 0.0
H1820 H 0.90562 0.2892 0.24292 0.0
H1821 H 0.91138 0.34177 0.37482 0.0
H1822 H 0.93257 0.30499 0.31649 0.0
H1823 H 0.8818 0.32374 0.30135 0.0
C1824 C 0.8775 0.3098 0.2644 0.0
C1825 C 0.88371 0.29958 0.24762 0.0
C1826 C 0.92789 0.31306 0.32922 0.0
C1827 C 0.90294 0.31241 0.29582 0.0
C1828 C 0.93698 0.31847 0.35363 0.0
C1829 C 0.9313 0.32897 0.37061 0.0
C1830 C 0.91293 0.31812 0.32165 0.0
C1831 C 0.91623 0.33367 0.36239 0.0
C1832 C 0.88706 0.31622 0.28849 0.0
C1833 C 0.90004 0.29664 0.2554 0.0
N1834 N 0.90755 0.3282 0.33849 0.0
N1835 N 0.90899 0.30292 0.27891 0.0
H1836 H 0.349 0.24607 0.7335 0.0
H1837 H 0.39537 0.32006 0.85463 0.0
H1838 H 0.41276 0.29077 0.74203 0.0
H1839 H 0.33095 0.27701 0.84769 0.0
H1840 H 0.40174 0.30859 0.81362 0.0
H1841 H 0.34168 0.25617 0.77549 0.0
C1842 C 0.36144 0.25792 0.74414 0.0
C1843 C 0.38152 0.26757 0.73406 0.0
C1844 C 0.38618 0.3016 0.82103 0.0
C1845 C 0.37328 0.27921 0.78207 0.0
C1846 C 0.38255 0.30817 0.84453 0.0
C1847 C 0.36259 0.29955 0.85474 0.0
C1848 C 0.36977 0.28624 0.80743 0.0
C1849 C 0.34661 0.28415 0.84063 0.0
C1850 C 0.35726 0.26371 0.7681 0.0
C1851 C 0.39701 0.28287 0.7488 0.0
N1852 N 0.35053 0.27801 0.81775 0.0
N1853 N 0.39257 0.28816 0.77187 0.0
H1854 H 0.79158 0.14351 0.73922 0.0
H1855 H 0.77301 0.12799 0.89303 0.0
H1856 H 0.84047 0.15948 0.79447 0.0
H1857 H 0.72443 0.0988 0.83713 0.0
H1858 H 0.79775 0.14245 0.85727 0.0
H1859 H 0.76666 0.12948 0.77489 0.0
C1860 C 0.79707 0.14409 0.75889 0.0
C1861 C 0.81815 0.15275 0.7639 0.0
C1862 C 0.78168 0.13291 0.85283 0.0
C1863 C 0.78968 0.13674 0.80489 0.0
C1864 C 0.76749 0.12474 0.87323 0.0
C1865 C 0.74655 0.1121 0.86811 0.0
C1866 C 0.77493 0.12861 0.82703 0.0
C1867 C 0.74039 0.10841 0.84203 0.0
C1868 C 0.78282 0.136 0.77924 0.0
C1869 C 0.82437 0.15282 0.78973 0.0
N1870 N 0.7545 0.11663 0.82247 0.0
N1871 N 0.81021 0.14506 0.80929 0.0
H1872 H 0.86076 0.67587 0.77396 0.0
H1873 H 0.95542 0.68312 0.85506 0.0
H1874 H 0.89334 0.64471 0.75419 0.0
H1875 H 0.92074 0.71149 0.87803 0.0
H1876 H 0.93193 0.66791 0.81891 0.0
H1877 H 0.88145 0.68784 0.81327 0.0
C1878 C 0.8722 0.67146 0.77795 0.0
C1879 C 0.87543 0.6594 0.76063 0.0
C1880 C 0.92939 0.67741 0.83189 0.0
C1881 C 0.89917 0.67303 0.80559 0.0
C1882 C 0.94285 0.68616 0.85251 0.0
C1883 C 0.94011 0.69871 0.86953 0.0
C1884 C 0.9131 0.68128 0.82812 0.0
C1885 C 0.92347 0.70198 0.86535 0.0
C1886 C 0.88397 0.67825 0.80043 0.0
C1887 C 0.89021 0.65386 0.76702 0.0
N1888 N 0.91064 0.69339 0.84498 0.0
N1889 N 0.90165 0.66086 0.78886 0.0
H1890 H 0.93635 0.74776 0.11762 0.0
H1891 H 0.95874 0.74233 0.96737 0.0
H1892 H 0.91861 0.77508 0.05577 0.0
H1893 H 0.98302 0.72138 0.0296 0.0
H1894 H 0.94466 0.75512 0.99956 0.0
H1895 H 0.95475 0.73917 0.08595 0.0
C1896 C 0.93651 0.75212 0.09738 0.0
C1897 C 0.92581 0.762 0.08928 0.0
C1898 C 0.95313 0.7478 0.0062 0.0
C1899 C 0.94669 0.75212 0.05286 0.0
C1900 C 0.96111 0.7404 0.98782 0.0
C1901 C 0.972 0.73066 0.9958 0.0
C1902 C 0.95593 0.74537 0.03281 0.0
C1903 C 0.97467 0.72872 0.02257 0.0
C1904 C 0.94702 0.74723 0.07931 0.0
C1905 C 0.92673 0.76755 0.06288 0.0
N1906 N 0.9666 0.73592 0.04012 0.0
N1907 N 0.93678 0.76233 0.04557 0.0
H1908 H 0.38661 0.25668 0.11758 0.0
H1909 H 0.34268 0.28045 0.98596 0.0
H1910 H 0.3246 0.22135 0.09002 0.0
H1911 H 0.40516 0.31759 0.01097 0.0
H1912 H 0.33674 0.25785 0.02332 0.0
H1913 H 0.3949 0.27819 0.07786 0.0
C1914 C 0.37485 0.25327 0.10309 0.0
C1915 C 0.35485 0.23723 0.10728 0.0
C1916 C 0.3518 0.27091 0.02067 0.0
C1917 C 0.36412 0.2618 0.062 0.0
C1918 C 0.35519 0.28387 0.99926 0.0
C1919 C 0.37443 0.30105 0.99523 0.0
C1920 C 0.36773 0.27506 0.03843 0.0
C1921 C 0.39004 0.30456 0.01325 0.0
C1922 C 0.37953 0.26561 0.0805 0.0
C1923 C 0.34019 0.23363 0.08787 0.0
N1924 N 0.38634 0.29175 0.03406 0.0
N1925 N 0.34507 0.24578 0.06631 0.0
H1926 H 0.81614 0.23733 0.05443 0.0
H1927 H 0.75193 0.12024 0.02338 0.0
H1928 H 0.79567 0.19047 0.11408 0.0
H1929 H 0.75979 0.16749 0.96898 0.0
H1930 H 0.77009 0.14567 0.05632 0.0
H1931 H 0.79732 0.21185 0.02234 0.0
C1932 C 0.80763 0.22177 0.06095 0.0
C1933 C 0.8077 0.21621 0.08722 0.0
C1934 C 0.76779 0.15042 0.03716 0.0
C1935 C 0.78627 0.18676 0.05017 0.0
C1936 C 0.7575 0.13593 0.01835 0.0
C1937 C 0.75431 0.14173 0.99339 0.0
C1938 C 0.77511 0.17086 0.03088 0.0
C1939 C 0.76183 0.16229 0.98797 0.0
C1940 C 0.79693 0.20716 0.04249 0.0
C1941 C 0.79647 0.19561 0.09413 0.0
N1942 N 0.77191 0.17608 0.0065 0.0
N1943 N 0.78631 0.18167 0.07573 0.0
loop_
_geom_bond_atom_site_label_1
_geom_bond_atom_site_label_2
_geom_bond_distance
_geom_bond_site_symmetry_2
_ccdc_geom_bond_type
Cu0 N1 2.015 . S
Cu0 O6 1.968 1_554 S
Cu0 N11 1.970 1_554 S
Cu0 O20 1.965 . S
N1 Cu0 2.015 . S
N1 C3 1.263 . S
N1 C5 1.389 . S
N2 C3 1.358 . S
N2 C4 1.400 . S
C3 N1 1.263 . S
C3 N2 1.358 . S
C3 H9 0.930 . S
C4 N2 1.400 . S
C4 C5 1.351 . S
C4 H21 0.930 . S
C5 N1 1.389 . S
C5 C4 1.351 . S
C5 H10 0.930 . S
O6 Cu0 1.968 1_556 S
O6 C16 1.282 . S
C7 O8 1.261 . S
C7 O20 1.251 . S
O8 C7 1.261 . S
H9 C3 0.930 . S
H10 C5 0.930 . S
N11 Cu0 1.970 1_556 S
N11 C13 1.335 . S
N11 C14 1.390 . S
N12 C13 1.345 . S
N12 C15 1.336 . S
C13 N11 1.335 . S
C13 N12 1.345 . S
C13 H18 0.930 . S
C14 N11 1.390 . S
C14 C15 1.346 . S
C14 H19 0.930 . S
C15 N12 1.336 . S
C15 C14 1.346 . S
C15 H22 0.929 . S
C16 O6 1.282 . S
C16 O17 1.216 . S
O17 C16 1.216 . S
H18 C13 0.930 . S
H19 C14 0.930 . S
O20 Cu0 1.965 . S
O20 C7 1.251 . S
H21 C4 0.930 . S
H22 C15 0.929 . S
Cu23 N24 1.999 1_554 S
Cu23 O29 1.974 . S
Cu23 N34 1.985 . S
Cu23 O43 1.959 1_554 S
N24 Cu23 1.999 1_556 S
N24 C26 1.263 . S
N24 C28 1.389 . S
N25 C26 1.358 . S
N25 C27 1.400 . S
C26 N24 1.263 . S
C26 N25 1.358 . S
C26 H32 0.930 . S
C27 N25 1.400 . S
C27 C28 1.351 . S
C27 H44 0.930 . S
C28 N24 1.389 . S
C28 C27 1.351 . S
C28 H33 0.930 . S
O29 Cu23 1.974 . S
O29 C39 1.282 . S
C30 O31 1.261 . S
C30 O43 1.251 . S
O31 C30 1.261 . S
H32 C26 0.930 . S
H33 C28 0.930 . S
N34 Cu23 1.985 . S
N34 C36 1.335 . S
N34 C37 1.390 . S
N35 C36 1.345 . S
N35 C38 1.336 . S
C36 N34 1.335 . S
C36 N35 1.345 . S
C36 H41 0.930 . S
C37 N34 1.390 . S
C37 C38 1.346 . S
C37 H42 0.930 . S
C38 N35 1.336 . S
C38 C37 1.346 . S
C38 H45 0.929 . S
C39 O29 1.282 . S
C39 O40 1.216 . S
O40 C39 1.216 . S
H41 C36 0.930 . S
H42 C37 0.930 . S
O43 Cu23 1.959 1_556 S
O43 C30 1.251 . S
H44 C27 0.930 . S
H45 C38 0.929 . S
Cu46 N47 1.999 1_554 S
Cu46 O52 1.989 1_545 S
Cu46 N57 1.985 . S
Cu46 O66 1.959 1_554 S
N47 Cu46 1.999 1_556 S
N47 C49 1.263 . S
N47 C51 1.389 1_545 S
N48 C49 1.358 . S
N48 C50 1.400 1_545 S
C49 N47 1.263 . S
C49 N48 1.358 . S
C49 H55 0.930 . S
C50 N48 1.400 1_565 S
C50 C51 1.351 . S
C50 H67 0.930 . S
C51 N47 1.389 1_565 S
C51 C50 1.351 . S
C51 H56 0.930 . S
O52 Cu46 1.989 1_565 S
O52 C62 1.239 1_565 S
C53 O54 1.261 . S
C53 O66 1.251 . S
O54 C53 1.261 . S
H55 C49 0.930 . S
H56 C51 0.930 . S
N57 Cu46 1.985 . S
N57 C59 1.335 . S
N57 C60 1.390 . S
N58 C59 1.345 . S
N58 C61 1.336 . S
C59 N57 1.335 . S
C59 N58 1.345 . S
C59 H64 0.930 . S
C60 N57 1.390 . S
C60 C61 1.346 . S
C60 H65 0.930 . S
C61 N58 1.336 . S
C61 C60 1.346 . S
C61 H68 0.929 . S
C62 O52 1.239 1_545 S
C62 O63 1.216 . S
O63 C62 1.216 . S
H64 C59 0.930 . S
H65 C60 0.930 . S
O66 Cu46 1.959 1_556 S
O66 C53 1.251 . S
H67 C50 0.930 . S
H68 C61 0.929 . S
Cu69 N70 1.999 . S
Cu69 O75 1.974 . S
Cu69 N80 1.985 . S
Cu69 O89 1.959 . S
N70 Cu69 1.999 . S
N70 C72 1.263 . S
N70 C74 1.389 . S
N71 C72 1.358 . S
N71 C73 1.400 . S
C72 N70 1.263 . S
C72 N71 1.358 . S
C72 H78 0.930 . S
C73 N71 1.400 . S
C73 C74 1.351 . S
C73 H90 0.930 . S
C74 N70 1.389 . S
C74 C73 1.351 . S
C74 H79 0.930 . S
O75 Cu69 1.974 . S
O75 C85 1.282 . S
C76 O77 1.261 . S
C76 O89 1.251 . S
O77 C76 1.261 . S
H78 C72 0.930 . S
H79 C74 0.930 . S
N80 Cu69 1.985 . S
N80 C82 1.335 . S
N80 C83 1.390 . S
N81 C82 1.345 . S
N81 C84 1.336 . S
C82 N80 1.335 . S
C82 N81 1.345 . S
C82 H87 0.930 . S
C83 N80 1.390 . S
C83 C84 1.346 . S
C83 H88 0.930 . S
C84 N81 1.336 . S
C84 C83 1.346 . S
C84 H91 0.929 . S
C85 O75 1.282 . S
C85 O86 1.216 . S
O86 C85 1.216 . S
H87 C82 0.930 . S
H88 C83 0.930 . S
O89 Cu69 1.959 . S
O89 C76 1.251 . S
H90 C73 0.930 . S
H91 C84 0.929 . S
Cu92 N93 1.999 . S
Cu92 O98 1.974 . S
Cu92 N103 1.985 . S
Cu92 O112 1.959 . S
N93 Cu92 1.999 . S
N93 C95 1.263 . S
N93 C97 1.389 . S
N94 C95 1.358 . S
N94 C96 1.400 . S
C95 N93 1.263 . S
C95 N94 1.358 . S
C95 H101 0.930 . S
C96 N94 1.400 . S
C96 C97 1.351 . S
C96 H113 0.930 . S
C97 N93 1.389 . S
C97 C96 1.351 . S
C97 H102 0.930 . S
O98 Cu92 1.974 . S
O98 C108 1.282 . S
C99 O100 1.261 . S
C99 O112 1.251 . S
O100 C99 1.261 . S
H101 C95 0.930 . S
H102 C97 0.930 . S
N103 Cu92 1.985 . S
N103 C105 1.335 . S
N103 C106 1.390 . S
N104 C105 1.345 . S
N104 C107 1.336 . S
C105 N103 1.335 . S
C105 N104 1.345 . S
C105 H110 0.930 . S
C106 N103 1.390 . S
C106 C107 1.346 . S
C106 H111 0.930 . S
C107 N104 1.336 . S
C107 C106 1.346 . S
C107 H114 0.929 . S
C108 O98 1.282 . S
C108 O109 1.216 . S
O109 C108 1.216 . S
H110 C105 0.930 . S
H111 C106 0.930 . S
O112 Cu92 1.959 . S
O112 C99 1.251 . S
H113 C96 0.930 . S
H114 C107 0.929 . S
Cu115 N116 1.999 . S
Cu115 O121 1.974 . S
Cu115 N126 1.985 . S
Cu115 O135 1.959 . S
N116 Cu115 1.999 . S
N116 C118 1.263 . S
N116 C120 1.389 . S
N117 C118 1.358 . S
N117 C119 1.400 . S
C118 N116 1.263 . S
C118 N117 1.358 . S
C118 H124 0.930 . S
C119 N117 1.400 . S
C119 C120 1.351 . S
C119 H136 0.930 . S
C120 N116 1.389 . S
C120 C119 1.351 . S
C120 H125 0.930 . S
O121 Cu115 1.974 . S
O121 C131 1.282 . S
C122 O123 1.261 . S
C122 O135 1.251 . S
O123 C122 1.261 . S
H124 C118 0.930 . S
H125 C120 0.930 . S
N126 Cu115 1.985 . S
N126 C128 1.335 . S
N126 C129 1.390 . S
N127 C128 1.345 . S
N127 C130 1.336 . S
C128 N126 1.335 . S
C128 N127 1.345 . S
C128 H133 0.930 . S
C129 N126 1.390 . S
C129 C130 1.346 . S
C129 H134 0.930 . S
C130 N127 1.336 . S
C130 C129 1.346 . S
C130 H137 0.929 . S
C131 O121 1.282 . S
C131 O132 1.216 . S
O132 C131 1.216 . S
H133 C128 0.930 . S
H134 C129 0.930 . S
O135 Cu115 1.959 . S
O135 C122 1.251 . S
H136 C119 0.930 . S
H137 C130 0.929 . S
Cu138 N139 1.999 . S
Cu138 O144 1.974 . S
Cu138 N149 1.985 . S
Cu138 O158 1.959 . S
N139 Cu138 1.999 . S
N139 C141 1.263 . S
N139 C143 1.389 . S
N140 C141 1.358 . S
N140 C142 1.400 . S
C141 N139 1.263 . S
C141 N140 1.358 . S
C141 H147 0.930 . S
C142 N140 1.400 . S
C142 C143 1.351 . S
C142 H159 0.930 . S
C143 N139 1.389 . S
C143 C142 1.351 . S
C143 H148 0.930 . S
O144 Cu138 1.974 . S
O144 C154 1.282 . S
C145 O146 1.261 . S
C145 O158 1.251 . S
O146 C145 1.261 . S
H147 C141 0.930 . S
H148 C143 0.930 . S
N149 Cu138 1.985 . S
N149 C151 1.335 . S
N149 C152 1.390 . S
N150 C151 1.345 . S
N150 C153 1.336 . S
C151 N149 1.335 . S
C151 N150 1.345 . S
C151 H156 0.930 . S
C152 N149 1.390 . S
C152 C153 1.346 . S
C152 H157 0.930 . S
C153 N150 1.336 . S
C153 C152 1.346 . S
C153 H160 0.929 . S
C154 O144 1.282 . S
C154 O155 1.216 . S
O155 C154 1.216 . S
H156 C151 0.930 . S
H157 C152 0.930 . S
O158 Cu138 1.959 . S
O158 C145 1.251 . S
H159 C142 0.930 . S
H160 C153 0.929 . S
Cu161 N162 1.999 . S
Cu161 O167 1.974 . S
Cu161 N172 1.985 . S
Cu161 O181 1.959 . S
N162 Cu161 1.999 . S
N162 C164 1.263 . S
N162 C166 1.389 . S
N163 C164 1.358 . S
N163 C165 1.400 . S
C164 N162 1.263 . S
C164 N163 1.358 . S
C164 H170 0.930 . S
C165 N163 1.400 . S
C165 C166 1.351 . S
C165 H182 0.930 . S
C166 N162 1.389 . S
C166 C165 1.351 . S
C166 H171 0.930 . S
O167 Cu161 1.974 . S
O167 C177 1.282 . S
C168 O169 1.261 . S
C168 O181 1.251 . S
O169 C168 1.261 . S
H170 C164 0.930 . S
H171 C166 0.930 . S
N172 Cu161 1.985 . S
N172 C174 1.335 . S
N172 C175 1.390 . S
N173 C174 1.345 . S
N173 C176 1.336 . S
C174 N172 1.335 . S
C174 N173 1.345 . S
C174 H179 0.930 . S
C175 N172 1.390 . S
C175 C176 1.346 . S
C175 H180 0.930 . S
C176 N173 1.336 . S
C176 C175 1.346 . S
C176 H183 0.929 . S
C177 O167 1.282 . S
C177 O178 1.216 . S
O178 C177 1.216 . S
H179 C174 0.930 . S
H180 C175 0.930 . S
O181 Cu161 1.959 . S
O181 C168 1.251 . S
H182 C165 0.930 . S
H183 C176 0.929 . S
Cu184 N185 1.999 . S
Cu184 O190 1.974 . S
Cu184 N195 1.985 . S
Cu184 O204 1.959 . S
N185 Cu184 1.999 . S
N185 C187 1.263 . S
N185 C189 1.389 . S
N186 C187 1.358 . S
N186 C188 1.400 . S
C187 N185 1.263 . S
C187 N186 1.358 . S
C187 H193 0.930 . S
C188 N186 1.400 . S
C188 C189 1.351 . S
C188 H205 0.930 . S
C189 N185 1.389 . S
C189 C188 1.351 . S
C189 H194 0.930 . S
O190 Cu184 1.974 . S
O190 C200 1.282 . S
C191 O192 1.261 . S
C191 O204 1.251 . S
O192 C191 1.261 . S
H193 C187 0.930 . S
H194 C189 0.930 . S
N195 Cu184 1.985 . S
N195 C197 1.335 . S
N195 C198 1.390 . S
N196 C197 1.345 . S
N196 C199 1.336 . S
C197 N195 1.335 . S
C197 N196 1.345 . S
C197 H202 0.930 . S
C198 N195 1.390 . S
C198 C199 1.346 . S
C198 H203 0.930 . S
C199 N196 1.336 . S
C199 C198 1.346 . S
C199 H206 0.929 . S
C200 O190 1.282 . S
C200 O201 1.216 . S
O201 C200 1.216 . S
H202 C197 0.930 . S
H203 C198 0.930 . S
O204 Cu184 1.959 . S
O204 C191 1.251 . S
H205 C188 0.930 . S
H206 C199 0.929 . S
Cu207 N208 1.999 . S
Cu207 O213 1.974 . S
Cu207 N218 1.985 . S
Cu207 O227 1.959 . S
N208 Cu207 1.999 . S
N208 C210 1.263 . S
N208 C212 1.389 . S
N209 C210 1.358 . S
N209 C211 1.400 . S
C210 N208 1.263 . S
C210 N209 1.358 . S
C210 H216 0.930 . S
C211 N209 1.400 . S
C211 C212 1.351 . S
C211 H228 0.930 . S
C212 N208 1.389 . S
C212 C211 1.351 . S
C212 H217 0.930 . S
O213 Cu207 1.974 . S
O213 C223 1.282 . S
C214 O215 1.261 . S
C214 O227 1.251 . S
O215 C214 1.261 . S
H216 C210 0.930 . S
H217 C212 0.930 . S
N218 Cu207 1.985 . S
N218 C220 1.335 . S
N218 C221 1.390 . S
N219 C220 1.345 . S
N219 C222 1.336 . S
C220 N218 1.335 . S
C220 N219 1.345 . S
C220 H225 0.930 . S
C221 N218 1.390 . S
C221 C222 1.346 . S
C221 H226 0.930 . S
C222 N219 1.336 . S
C222 C221 1.346 . S
C222 H229 0.929 . S
C223 O213 1.282 . S
C223 O224 1.216 . S
O224 C223 1.216 . S
H225 C220 0.930 . S
H226 C221 0.930 . S
O227 Cu207 1.959 . S
O227 C214 1.251 . S
H228 C211 0.930 . S
H229 C222 0.929 . S
Cu230 N231 1.999 . S
Cu230 O236 1.974 . S
Cu230 N241 1.985 . S
Cu230 O250 1.959 . S
N231 Cu230 1.999 . S
N231 C233 1.263 . S
N231 C235 1.389 . S
N232 C233 1.358 . S
N232 C234 1.400 . S
C233 N231 1.263 . S
C233 N232 1.358 . S
C233 H239 0.930 . S
C234 N232 1.400 . S
C234 C235 1.351 . S
C234 H251 0.930 . S
C235 N231 1.389 . S
C235 C234 1.351 . S
C235 H240 0.930 . S
O236 Cu230 1.974 . S
O236 C246 1.282 . S
C237 O238 1.261 . S
C237 O250 1.251 . S
O238 C237 1.261 . S
H239 C233 0.930 . S
H240 C235 0.930 . S
N241 Cu230 1.985 . S
N241 C243 1.335 . S
N241 C244 1.390 . S
N242 C243 1.345 . S
N242 C245 1.336 . S
C243 N241 1.335 . S
C243 N242 1.345 . S
C243 H248 0.930 . S
C244 N241 1.390 . S
C244 C245 1.346 . S
C244 H249 0.930 . S
C245 N242 1.336 . S
C245 C244 1.346 . S
C245 H252 0.929 . S
C246 O236 1.282 . S
C246 O247 1.216 . S
O247 C246 1.216 . S
H248 C243 0.930 . S
H249 C244 0.930 . S
O250 Cu230 1.959 . S
O250 C237 1.251 . S
H251 C234 0.930 . S
H252 C245 0.929 . S
Cu253 N254 1.999 . S
Cu253 O259 1.974 . S
Cu253 N264 1.985 . S
Cu253 O273 1.959 . S
N254 Cu253 1.999 . S
N254 C256 1.263 . S
N254 C258 1.389 . S
N255 C256 1.358 . S
N255 C257 1.400 . S
C256 N254 1.263 . S
C256 N255 1.358 . S
C256 H262 0.930 . S
C257 N255 1.400 . S
C257 C258 1.351 . S
C257 H274 0.930 . S
C258 N254 1.389 . S
C258 C257 1.351 . S
C258 H263 0.930 . S
O259 Cu253 1.974 . S
O259 C269 1.282 . S
C260 O261 1.261 . S
C260 O273 1.251 . S
O261 C260 1.261 . S
H262 C256 0.930 . S
H263 C258 0.930 . S
N264 Cu253 1.985 . S
N264 C266 1.335 . S
N264 C267 1.390 . S
N265 C266 1.345 . S
N265 C268 1.336 . S
C266 N264 1.335 . S
C266 N265 1.345 . S
C266 H271 0.930 . S
C267 N264 1.390 . S
C267 C268 1.346 . S
C267 H272 0.930 . S
C268 N265 1.336 . S
C268 C267 1.346 . S
C268 H275 0.929 . S
C269 O259 1.282 . S
C269 O270 1.216 . S
O270 C269 1.216 . S
H271 C266 0.930 . S
H272 C267 0.930 . S
O273 Cu253 1.959 . S
O273 C260 1.251 . S
H274 C257 0.930 . S
H275 C268 0.929 . S
Cu276 N277 1.999 . S
Cu276 O282 1.974 . S
Cu276 N287 1.985 . S
Cu276 O296 1.959 . S
N277 Cu276 1.999 . S
N277 C279 1.263 . S
N277 C281 1.389 . S
N278 C279 1.358 . S
N278 C280 1.400 . S
C279 N277 1.263 . S
C279 N278 1.358 . S
C279 H285 0.930 . S
C280 N278 1.400 . S
C280 C281 1.351 . S
C280 H297 0.930 . S
C281 N277 1.389 . S
C281 C280 1.351 . S
C281 H286 0.930 . S
O282 Cu276 1.974 . S
O282 C292 1.282 . S
C283 O284 1.261 . S
C283 O296 1.251 . S
O284 C283 1.261 . S
H285 C279 0.930 . S
H286 C281 0.930 . S
N287 Cu276 1.985 . S
N287 C289 1.335 . S
N287 C290 1.390 . S
N288 C289 1.345 . S
N288 C291 1.336 . S
C289 N287 1.335 . S
C289 N288 1.345 . S
C289 H294 0.930 . S
C290 N287 1.390 . S
C290 C291 1.346 . S
C290 H295 0.930 . S
C291 N288 1.336 . S
C291 C290 1.346 . S
C291 H298 0.929 . S
C292 O282 1.282 . S
C292 O293 1.216 . S
O293 C292 1.216 . S
H294 C289 0.930 . S
H295 C290 0.930 . S
O296 Cu276 1.959 . S
O296 C283 1.251 . S
H297 C280 0.930 . S
H298 C291 0.929 . S
Cu299 N300 1.999 . S
Cu299 O305 1.974 . S
Cu299 N310 1.985 . S
Cu299 O319 1.959 . S
N300 Cu299 1.999 . S
N300 C302 1.263 . S
N300 C304 1.389 . S
N301 C302 1.358 . S
N301 C303 1.400 . S
C302 N300 1.263 . S
C302 N301 1.358 . S
C302 H308 0.930 . S
C303 N301 1.400 . S
C303 C304 1.351 . S
C303 H320 0.930 . S
C304 N300 1.389 . S
C304 C303 1.351 . S
C304 H309 0.930 . S
O305 Cu299 1.974 . S
O305 C315 1.282 . S
C306 O307 1.261 . S
C306 O319 1.251 . S
O307 C306 1.261 . S
H308 C302 0.930 . S
H309 C304 0.930 . S
N310 Cu299 1.985 . S
N310 C312 1.335 . S
N310 C313 1.390 . S
N311 C312 1.345 . S
N311 C314 1.336 . S
C312 N310 1.335 . S
C312 N311 1.345 . S
C312 H317 0.930 . S
C313 N310 1.390 . S
C313 C314 1.346 . S
C313 H318 0.930 . S
C314 N311 1.336 . S
C314 C313 1.346 . S
C314 H321 0.929 . S
C315 O305 1.282 . S
C315 O316 1.216 . S
O316 C315 1.216 . S
H317 C312 0.930 . S
H318 C313 0.930 . S
O319 Cu299 1.959 . S
O319 C306 1.251 . S
H320 C303 0.930 . S
H321 C314 0.929 . S
Cu322 N323 1.999 . S
Cu322 O328 1.974 . S
Cu322 N333 1.985 . S
Cu322 O342 1.959 . S
N323 Cu322 1.999 . S
N323 C325 1.263 . S
N323 C327 1.389 . S
N324 C325 1.358 . S
N324 C326 1.400 . S
C325 N323 1.263 . S
C325 N324 1.358 . S
C325 H331 0.930 . S
C326 N324 1.400 . S
C326 C327 1.351 . S
C326 H343 0.930 . S
C327 N323 1.389 . S
C327 C326 1.351 . S
C327 H332 0.930 . S
O328 Cu322 1.974 . S
O328 C338 1.282 . S
C329 O330 1.261 . S
C329 O342 1.251 . S
O330 C329 1.261 . S
H331 C325 0.930 . S
H332 C327 0.930 . S
N333 Cu322 1.985 . S
N333 C335 1.335 . S
N333 C336 1.390 . S
N334 C335 1.345 . S
N334 C337 1.336 . S
C335 N333 1.335 . S
C335 N334 1.345 . S
C335 H340 0.930 . S
C336 N333 1.390 . S
C336 C337 1.346 . S
C336 H341 0.930 . S
C337 N334 1.336 . S
C337 C336 1.346 . S
C337 H344 0.929 . S
C338 O328 1.282 . S
C338 O339 1.216 . S
O339 C338 1.216 . S
H340 C335 0.930 . S
H341 C336 0.930 . S
O342 Cu322 1.959 . S
O342 C329 1.251 . S
H343 C326 0.930 . S
H344 C337 0.929 . S
Cu345 N346 1.999 . S
Cu345 O351 1.974 . S
Cu345 N356 1.985 . S
Cu345 O365 1.959 . S
N346 Cu345 1.999 . S
N346 C348 1.263 . S
N346 C350 1.389 . S
N347 C348 1.358 . S
N347 C349 1.400 . S
C348 N346 1.263 . S
C348 N347 1.358 . S
C348 H354 0.930 . S
C349 N347 1.400 . S
C349 C350 1.351 . S
C349 H366 0.930 . S
C350 N346 1.389 . S
C350 C349 1.351 . S
C350 H355 0.930 . S
O351 Cu345 1.974 . S
O351 C361 1.282 . S
C352 O353 1.261 . S
C352 O365 1.251 . S
O353 C352 1.261 . S
H354 C348 0.930 . S
H355 C350 0.930 . S
N356 Cu345 1.985 . S
N356 C358 1.335 . S
N356 C359 1.390 . S
N357 C358 1.345 . S
N357 C360 1.336 . S
C358 N356 1.335 . S
C358 N357 1.345 . S
C358 H363 0.930 . S
C359 N356 1.390 . S
C359 C360 1.346 . S
C359 H364 0.930 . S
C360 N357 1.336 . S
C360 C359 1.346 . S
C360 H367 0.929 . S
C361 O351 1.282 . S
C361 O362 1.216 . S
O362 C361 1.216 . S
H363 C358 0.930 . S
H364 C359 0.930 . S
O365 Cu345 1.959 . S
O365 C352 1.251 . S
H366 C349 0.930 . S
H367 C360 0.929 . S
Cu368 N369 1.999 . S
Cu368 O374 1.974 . S
Cu368 N379 1.985 . S
Cu368 O388 1.959 . S
N369 Cu368 1.999 . S
N369 C371 1.263 . S
N369 C373 1.389 . S
N370 C371 1.358 . S
N370 C372 1.400 . S
C371 N369 1.263 . S
C371 N370 1.358 . S
C371 H377 0.930 . S
C372 N370 1.400 . S
C372 C373 1.351 . S
C372 H389 0.930 . S
C373 N369 1.389 . S
C373 C372 1.351 . S
C373 H378 0.930 . S
O374 Cu368 1.974 . S
O374 C384 1.282 . S
C375 O376 1.261 . S
C375 O388 1.251 . S
O376 C375 1.261 . S
H377 C371 0.930 . S
H378 C373 0.930 . S
N379 Cu368 1.985 . S
N379 C381 1.335 . S
N379 C382 1.390 . S
N380 C381 1.345 . S
N380 C383 1.336 . S
C381 N379 1.335 . S
C381 N380 1.345 . S
C381 H386 0.930 . S
C382 N379 1.390 . S
C382 C383 1.346 . S
C382 H387 0.930 . S
C383 N380 1.336 . S
C383 C382 1.346 . S
C383 H390 0.929 . S
C384 O374 1.282 . S
C384 O385 1.216 . S
O385 C384 1.216 . S
H386 C381 0.930 . S
H387 C382 0.930 . S
O388 Cu368 1.959 . S
O388 C375 1.251 . S
H389 C372 0.930 . S
H390 C383 0.929 . S
Cu391 N392 1.999 . S
Cu391 O397 1.974 . S
Cu391 N402 1.985 . S
Cu391 O411 1.959 . S
N392 Cu391 1.999 . S
N392 C394 1.263 . S
N392 C396 1.389 . S
N393 C394 1.358 . S
N393 C395 1.400 . S
C394 N392 1.263 . S
C394 N393 1.358 . S
C394 H400 0.930 . S
C395 N393 1.400 . S
C395 C396 1.351 . S
C395 H412 0.930 . S
C396 N392 1.389 . S
C396 C395 1.351 . S
C396 H401 0.930 . S
O397 Cu391 1.974 . S
O397 C407 1.282 . S
C398 O399 1.261 . S
C398 O411 1.251 . S
O399 C398 1.261 . S
H400 C394 0.930 . S
H401 C396 0.930 . S
N402 Cu391 1.985 . S
N402 C404 1.335 . S
N402 C405 1.390 . S
N403 C404 1.345 . S
N403 C406 1.336 . S
C404 N402 1.335 . S
C404 N403 1.345 . S
C404 H409 0.930 . S
C405 N402 1.390 . S
C405 C406 1.346 . S
C405 H410 0.930 . S
C406 N403 1.336 . S
C406 C405 1.346 . S
C406 H413 0.929 . S
C407 O397 1.282 . S
C407 O408 1.216 . S
O408 C407 1.216 . S
H409 C404 0.930 . S
H410 C405 0.930 . S
O411 Cu391 1.959 . S
O411 C398 1.251 . S
H412 C395 0.930 . S
H413 C406 0.929 . S
C414 O415 1.160 . S
C414 O421 1.185 . S
O415 C414 1.160 . S
O416 Zn417 1.899 1_655 S
O416 C424 1.284 . S
Zn417 O416 1.899 1_455 S
Zn417 O418 2.032 . S
Zn417 O421 2.086 . S
Zn417 O426 1.977 . S
O418 Zn417 2.032 . S
O418 C422 1.278 . S
C419 O420 1.203 . S
C419 O426 1.267 . S
O420 C419 1.203 . S
O421 C414 1.185 . S
O421 Zn417 2.086 . S
C422 O418 1.278 . S
C422 O423 1.211 . S
O423 C422 1.211 . S
C424 O416 1.284 . S
C424 O425 1.273 . S
O425 C424 1.273 . S
O426 Zn417 1.977 . S
O426 C419 1.267 . S
C427 O428 1.160 . S
C427 O434 1.185 . S
O428 C427 1.160 . S
O429 Zn430 1.899 . S
O429 C437 1.284 . S
Zn430 O429 1.899 . S
Zn430 O431 2.032 . S
Zn430 O434 2.086 . S
Zn430 O439 1.977 . S
O431 Zn430 2.032 . S
O431 C435 1.278 . S
C432 O433 1.203 . S
C432 O439 1.267 . S
O433 C432 1.203 . S
O434 C427 1.185 . S
O434 Zn430 2.086 . S
C435 O431 1.278 . S
C435 O436 1.211 . S
O436 C435 1.211 . S
C437 O429 1.284 . S
C437 O438 1.273 . S
O438 C437 1.273 . S
O439 Zn430 1.977 . S
O439 C432 1.267 . S
C440 O441 1.160 . S
C440 O447 1.185 . S
O441 C440 1.160 . S
O442 Zn443 1.899 . S
O442 C450 1.284 . S
Zn443 O442 1.899 . S
Zn443 O444 2.032 . S
Zn443 O447 2.086 . S
Zn443 O452 1.977 . S
O444 Zn443 2.032 . S
O444 C448 1.278 . S
C445 O446 1.203 . S
C445 O452 1.267 . S
O446 C445 1.203 . S
O447 C440 1.185 . S
O447 Zn443 2.086 . S
C448 O444 1.278 . S
C448 O449 1.211 . S
O449 C448 1.211 . S
C450 O442 1.284 . S
C450 O451 1.273 . S
O451 C450 1.273 . S
O452 Zn443 1.977 . S
O452 C445 1.267 . S
C453 O454 1.160 . S
C453 O460 1.185 . S
O454 C453 1.160 . S
O455 Zn456 1.899 . S
O455 C463 1.284 . S
Zn456 O455 1.899 . S
Zn456 O457 2.032 . S
Zn456 O460 2.086 . S
Zn456 O465 1.977 1_455 S
O457 Zn456 2.032 . S
O457 C461 1.278 . S
C458 O459 1.203 . S
C458 O465 1.267 . S
O459 C458 1.203 . S
O460 C453 1.185 . S
O460 Zn456 2.086 . S
C461 O457 1.278 . S
C461 O462 1.211 . S
O462 C461 1.211 . S
C463 O455 1.284 . S
C463 O464 1.273 . S
O464 C463 1.273 . S
O465 Zn456 1.977 1_655 S
O465 C458 1.267 . S
C466 O467 1.160 . S
C466 O473 1.185 . S
O467 C466 1.160 . S
O468 Zn469 1.899 . S
O468 C476 1.284 . S
Zn469 O468 1.899 . S
Zn469 O470 2.032 . S
Zn469 O473 2.086 . S
Zn469 O478 1.977 . S
O470 Zn469 2.032 . S
O470 C474 1.278 . S
C471 O472 1.203 . S
C471 O478 1.267 . S
O472 C471 1.203 . S
O473 C466 1.185 . S
O473 Zn469 2.086 . S
C474 O470 1.278 . S
C474 O475 1.211 . S
O475 C474 1.211 . S
C476 O468 1.284 . S
C476 O477 1.273 . S
O477 C476 1.273 . S
O478 Zn469 1.977 . S
O478 C471 1.267 . S
C479 O480 1.160 . S
C479 O486 1.185 . S
O480 C479 1.160 . S
O481 Zn482 1.899 . S
O481 C489 1.284 . S
Zn482 O481 1.899 . S
Zn482 O483 2.032 . S
Zn482 O486 2.086 . S
Zn482 O491 1.977 1_545 S
O483 Zn482 2.032 . S
O483 C487 1.278 . S
C484 O485 1.213 . S
C484 O491 1.267 . S
O485 C484 1.213 . S
O486 C479 1.185 . S
O486 Zn482 2.086 . S
C487 O483 1.278 . S
C487 O488 1.211 . S
O488 C487 1.211 . S
C489 O481 1.284 . S
C489 O490 1.273 . S
O490 C489 1.273 . S
O491 Zn482 1.977 1_565 S
O491 C484 1.267 . S
C492 O493 1.160 . S
C492 O499 1.185 . S
O493 C492 1.160 . S
O494 Zn495 1.899 . S
O494 C502 1.288 1_545 S
Zn495 O494 1.899 . S
Zn495 O496 2.032 1_545 S
Zn495 O499 2.086 1_545 S
Zn495 O504 1.977 . S
O496 Zn495 2.032 1_565 S
O496 C500 1.278 . S
C497 O498 1.203 . S
C497 O504 1.267 . S
O498 C497 1.203 . S
O499 C492 1.185 . S
O499 Zn495 2.086 1_565 S
C500 O496 1.278 . S
C500 O501 1.211 . S
O501 C500 1.211 . S
C502 O494 1.288 1_565 S
C502 O503 1.280 . S
O503 C502 1.280 . S
O504 Zn495 1.977 . S
O504 C497 1.267 . S
C505 O506 1.160 . S
C505 O512 1.185 . S
O506 C505 1.160 . S
O507 Zn508 1.899 . S
O507 C515 1.284 . S
Zn508 O507 1.899 . S
Zn508 O509 2.032 . S
Zn508 O512 2.086 . S
Zn508 O517 1.977 . S
O509 Zn508 2.032 . S
O509 C513 1.278 . S
C510 O511 1.203 . S
C510 O517 1.267 . S
O511 C510 1.203 . S
O512 C505 1.185 . S
O512 Zn508 2.086 . S
C513 O509 1.278 . S
C513 O514 1.211 . S
O514 C513 1.211 . S
C515 O507 1.284 . S
C515 O516 1.273 . S
O516 C515 1.273 . S
O517 Zn508 1.977 . S
O517 C510 1.267 . S
C518 O519 1.160 . S
C518 O525 1.185 . S
O519 C518 1.160 . S
O520 Zn521 1.899 . S
O520 C528 1.284 . S
Zn521 O520 1.899 . S
Zn521 O522 2.032 . S
Zn521 O525 2.086 . S
Zn521 O530 1.977 . S
O522 Zn521 2.032 . S
O522 C526 1.278 . S
C523 O524 1.203 . S
C523 O530 1.267 . S
O524 C523 1.203 . S
O525 C518 1.185 . S
O525 Zn521 2.086 . S
C526 O522 1.278 . S
C526 O527 1.211 . S
O527 C526 1.211 . S
C528 O520 1.284 . S
C528 O529 1.273 . S
O529 C528 1.273 . S
O530 Zn521 1.977 . S
O530 C523 1.267 . S
C531 O532 1.160 . S
C531 O538 1.185 . S
O532 C531 1.160 . S
O533 Zn534 1.899 . S
O533 C541 1.284 . S
Zn534 O533 1.899 . S
Zn534 O535 2.032 . S
Zn534 O538 2.086 . S
Zn534 O543 1.977 . S
O535 Zn534 2.032 . S
O535 C539 1.278 . S
C536 O537 1.203 . S
C536 O543 1.267 . S
O537 C536 1.203 . S
O538 C531 1.185 . S
O538 Zn534 2.086 . S
C539 O535 1.278 . S
C539 O540 1.211 . S
O540 C539 1.211 . S
C541 O533 1.284 . S
C541 O542 1.273 . S
O542 C541 1.273 . S
O543 Zn534 1.977 . S
O543 C536 1.267 . S
C544 O545 1.160 . S
C544 O551 1.185 . S
O545 C544 1.160 . S
O546 Zn547 1.899 . S
O546 C554 1.284 . S
Zn547 O546 1.899 . S
Zn547 O548 2.032 . S
Zn547 O551 2.086 . S
Zn547 O556 1.977 1_565 S
O548 Zn547 2.032 . S
O548 C552 1.278 . S
C549 O550 1.203 . S
C549 O556 1.267 . S
O550 C549 1.203 . S
O551 C544 1.185 . S
O551 Zn547 2.086 . S
C552 O548 1.278 . S
C552 O553 1.211 1_565 S
O553 C552 1.211 1_545 S
C554 O546 1.284 . S
C554 O555 1.273 . S
O555 C554 1.273 . S
O556 Zn547 1.977 1_545 S
O556 C549 1.267 . S
C557 O558 1.160 . S
C557 O564 1.185 . S
O558 C557 1.160 . S
O559 Zn560 1.899 . S
O559 C567 1.284 . S
Zn560 O559 1.899 . S
Zn560 O561 2.032 . S
Zn560 O564 2.086 . S
Zn560 O569 1.977 . S
O561 Zn560 2.032 . S
O561 C565 1.278 . S
C562 O563 1.203 . S
C562 O569 1.267 . S
O563 C562 1.203 . S
O564 C557 1.185 . S
O564 Zn560 2.086 . S
C565 O561 1.278 . S
C565 O566 1.211 . S
O566 C565 1.211 . S
C567 O559 1.284 . S
C567 O568 1.273 . S
O568 C567 1.273 . S
O569 Zn560 1.977 . S
O569 C562 1.267 . S
C570 O571 1.160 . S
C570 O577 1.185 . S
O571 C570 1.160 . S
O572 Zn573 1.899 . S
O572 C580 1.284 . S
Zn573 O572 1.899 . S
Zn573 O574 2.032 . S
Zn573 O577 2.086 . S
Zn573 O582 1.977 . S
O574 Zn573 2.032 . S
O574 C578 1.278 . S
C575 O576 1.203 . S
C575 O582 1.267 . S
O576 C575 1.203 . S
O577 C570 1.185 . S
O577 Zn573 2.086 . S
C578 O574 1.278 . S
C578 O579 1.211 . S
O579 C578 1.211 . S
C580 O572 1.284 . S
C580 O581 1.273 . S
O581 C580 1.273 . S
O582 Zn573 1.977 . S
O582 C575 1.267 . S
C583 O584 1.160 . S
C583 O590 1.185 . S
O584 C583 1.160 . S
O585 Zn586 1.899 . S
O585 C593 1.284 . S
Zn586 O585 1.899 . S
Zn586 O587 2.032 . S
Zn586 O590 2.086 . S
Zn586 O595 1.977 . S
O587 Zn586 2.032 . S
O587 C591 1.278 . S
C588 O589 1.203 . S
C588 O595 1.267 . S
O589 C588 1.203 . S
O590 C583 1.185 . S
O590 Zn586 2.086 . S
C591 O587 1.278 . S
C591 O592 1.211 . S
O592 C591 1.211 . S
C593 O585 1.284 . S
C593 O594 1.273 . S
O594 C593 1.273 . S
O595 Zn586 1.977 . S
O595 C588 1.267 . S
C596 O597 1.160 . S
C596 O603 1.185 . S
O597 C596 1.160 . S
O598 Zn599 1.899 . S
O598 C606 1.284 . S
Zn599 O598 1.899 . S
Zn599 O600 2.032 1_655 S
Zn599 O603 2.086 . S
Zn599 O608 1.977 . S
O600 Zn599 2.032 1_455 S
O600 C604 1.278 . S
C601 O602 1.203 . S
C601 O608 1.267 . S
O602 C601 1.203 . S
O603 C596 1.185 . S
O603 Zn599 2.086 . S
C604 O600 1.278 . S
C604 O605 1.211 1_455 S
O605 C604 1.211 1_655 S
C606 O598 1.284 . S
C606 O607 1.273 . S
O607 C606 1.273 . S
O608 Zn599 1.977 . S
O608 C601 1.267 . S
C609 O610 1.160 . S
C609 O616 1.185 . S
O610 C609 1.160 . S
O611 Zn612 1.899 . S
O611 C619 1.284 . S
Zn612 O611 1.899 . S
Zn612 O613 2.032 . S
Zn612 O616 2.086 . S
Zn612 O621 1.977 . S
O613 Zn612 2.032 . S
O613 C617 1.278 . S
C614 O615 1.203 . S
C614 O621 1.267 . S
O615 C614 1.203 . S
O616 C609 1.185 . S
O616 Zn612 2.086 . S
C617 O613 1.278 . S
C617 O618 1.211 . S
O618 C617 1.211 . S
C619 O611 1.284 . S
C619 O620 1.273 . S
O620 C619 1.273 . S
O621 Zn612 1.977 . S
O621 C614 1.267 . S
C622 O623 1.160 . S
C622 O629 1.185 . S
O623 C622 1.160 . S
O624 Zn625 1.899 . S
O624 C632 1.284 . S
Zn625 O624 1.899 . S
Zn625 O626 2.032 . S
Zn625 O629 2.086 . S
Zn625 O634 1.977 . S
O626 Zn625 2.032 . S
O626 C630 1.278 1_655 S
C627 O628 1.203 . S
C627 O634 1.267 . S
O628 C627 1.203 . S
O629 C622 1.185 . S
O629 Zn625 2.086 . S
C630 O626 1.278 1_455 S
C630 O631 1.211 . S
O631 C630 1.211 . S
C632 O624 1.284 . S
C632 O633 1.273 . S
O633 C632 1.273 . S
O634 Zn625 1.977 . S
O634 C627 1.267 . S
C635 O636 1.160 . S
C635 O642 1.185 . S
O636 C635 1.160 . S
O637 Zn638 1.899 . S
O637 C645 1.284 . S
Zn638 O637 1.899 . S
Zn638 O639 2.032 . S
Zn638 O642 2.086 . S
Zn638 O647 1.977 . S
O639 Zn638 2.032 . S
O639 C643 1.278 . S
C640 O641 1.203 . S
C640 O647 1.267 . S
O641 C640 1.203 . S
O642 C635 1.185 . S
O642 Zn638 2.086 . S
C643 O639 1.278 . S
C643 O644 1.211 . S
O644 C643 1.211 . S
C645 O637 1.284 . S
C645 O646 1.273 . S
O646 C645 1.273 . S
O647 Zn638 1.977 . S
O647 C640 1.267 . S
H648 C654 0.953 . S
H649 C658 0.930 . S
H650 C663 0.929 . S
H651 C661 0.929 . S
H652 C656 0.929 . S
H653 C662 0.929 . S
C654 H648 0.953 . S
C654 C655 1.367 . S
C654 C662 1.378 . S
C655 C654 1.367 . S
C655 C663 1.433 . S
C656 H652 0.929 . S
C656 C658 1.378 . S
C656 C660 1.350 . S
C657 C660 1.463 . S
C657 C662 1.350 . S
C657 N665 1.427 . S
C658 H649 0.930 . S
C658 C656 1.378 . S
C658 C659 1.367 . S
C659 C658 1.367 . S
C659 C661 1.433 . S
C660 C656 1.350 . S
C660 C657 1.463 . S
C660 N664 1.427 . S
C661 H651 0.929 . S
C661 C659 1.433 . S
C661 N664 1.384 . S
C662 H653 0.929 . S
C662 C654 1.378 . S
C662 C657 1.350 . S
C663 H650 0.929 . S
C663 C655 1.433 . S
C663 N665 1.384 . S
N664 C660 1.427 . S
N664 C661 1.384 . S
N665 C657 1.427 . S
N665 C663 1.384 . S
H666 C672 0.930 . S
H667 C676 0.930 . S
H668 C681 0.929 . S
H669 C679 0.929 . S
H670 C674 0.929 . S
H671 C680 0.929 . S
C672 H666 0.930 . S
C672 C673 1.367 . S
C672 C680 1.378 . S
C673 C672 1.367 . S
C673 C681 1.433 . S
C674 H670 0.929 . S
C674 C676 1.378 . S
C674 C678 1.350 . S
C675 C678 1.463 . S
C675 C680 1.350 . S
C675 N683 1.427 . S
C676 H667 0.930 . S
C676 C674 1.378 . S
C676 C677 1.367 . S
C677 C676 1.367 . S
C677 C679 1.433 . S
C678 C674 1.350 . S
C678 C675 1.463 . S
C678 N682 1.427 . S
C679 H669 0.929 . S
C679 C677 1.433 . S
C679 N682 1.384 . S
C680 H671 0.929 . S
C680 C672 1.378 . S
C680 C675 1.350 . S
C681 H668 0.929 . S
C681 C673 1.433 . S
C681 N683 1.384 . S
N682 C678 1.427 . S
N682 C679 1.384 . S
N683 C675 1.427 . S
N683 C681 1.384 . S
H684 C690 0.930 . S
H685 C694 0.930 . S
H686 C699 0.929 . S
H687 C697 0.929 . S
H688 C692 0.929 . S
H689 C698 0.929 . S
C690 H684 0.930 . S
C690 C691 1.367 1_565 S
C690 C698 1.378 . S
C691 C690 1.367 1_545 S
C691 C699 1.433 . S
C692 H688 0.929 . S
C692 C694 1.378 . S
C692 C696 1.290 1_545 S
C693 C696 1.507 1_545 S
C693 C698 1.308 1_545 S
C693 N701 1.455 . S
C694 H685 0.930 . S
C694 C692 1.378 . S
C694 C695 1.367 1_545 S
C695 C694 1.367 1_565 S
C695 C697 1.433 . S
C696 C692 1.290 1_565 S
C696 C693 1.507 1_565 S
C696 N700 1.468 . S
C697 H687 0.929 . S
C697 C695 1.433 . S
C697 N700 1.384 . S
C698 H689 0.929 . S
C698 C690 1.378 . S
C698 C693 1.308 1_565 S
C699 H686 0.929 . S
C699 C691 1.433 . S
C699 N701 1.384 . S
N700 C696 1.468 . S
N700 C697 1.384 . S
N701 C693 1.455 . S
N701 C699 1.384 . S
H702 C708 0.930 . S
H703 C712 0.930 . S
H704 C717 0.929 . S
H705 C715 0.929 . S
H706 C710 0.929 . S
H707 C716 0.929 . S
C708 H702 0.930 . S
C708 C709 1.367 . S
C708 C716 1.378 . S
C709 C708 1.367 . S
C709 C717 1.433 . S
C710 H706 0.929 . S
C710 C712 1.378 . S
C710 C714 1.350 . S
C711 C714 1.463 . S
C711 C716 1.350 . S
C711 N719 1.427 . S
C712 H703 0.930 . S
C712 C710 1.378 . S
C712 C713 1.367 . S
C713 C712 1.367 . S
C713 C715 1.433 . S
C714 C710 1.350 . S
C714 C711 1.463 . S
C714 N718 1.427 . S
C715 H705 0.929 . S
C715 C713 1.433 . S
C715 N718 1.384 . S
C716 H707 0.929 . S
C716 C708 1.378 . S
C716 C711 1.350 . S
C717 H704 0.929 . S
C717 C709 1.433 . S
C717 N719 1.384 . S
N718 C714 1.427 . S
N718 C715 1.384 . S
N719 C711 1.427 . S
N719 C717 1.384 . S
H720 C726 0.930 . S
H721 C730 0.930 . S
H722 C735 0.929 . S
H723 C733 0.929 . S
H724 C728 0.929 . S
H725 C734 0.929 1_655 S
C726 H720 0.930 . S
C726 C727 1.367 . S
C726 C734 1.378 . S
C727 C726 1.367 . S
C727 C735 1.433 . S
C728 H724 0.929 . S
C728 C730 1.378 1_455 S
C728 C732 1.350 1_455 S
C729 C732 1.463 1_455 S
C729 C734 1.350 . S
C729 N737 1.427 . S
C730 H721 0.930 . S
C730 C728 1.378 1_655 S
C730 C731 1.367 . S
C731 C730 1.367 . S
C731 C733 1.433 . S
C732 C728 1.350 1_655 S
C732 C729 1.463 1_655 S
C732 N736 1.427 . S
C733 H723 0.929 . S
C733 C731 1.433 . S
C733 N736 1.384 . S
C734 H725 0.929 1_455 S
C734 C726 1.378 . S
C734 C729 1.350 . S
C735 H722 0.929 . S
C735 C727 1.433 . S
C735 N737 1.384 . S
N736 C732 1.427 . S
N736 C733 1.384 . S
N737 C729 1.427 . S
N737 C735 1.384 . S
H738 C744 0.930 . S
H739 C748 0.930 . S
H740 C753 0.929 . S
H741 C751 0.929 . S
H742 C746 0.929 . S
H743 C752 0.929 . S
C744 H738 0.930 . S
C744 C745 1.367 . S
C744 C752 1.378 . S
C745 C744 1.367 . S
C745 C753 1.433 . S
C746 H742 0.929 . S
C746 C748 1.378 . S
C746 C750 1.350 . S
C747 C750 1.463 . S
C747 C752 1.350 . S
C747 N755 1.427 . S
C748 H739 0.930 . S
C748 C746 1.378 . S
C748 C749 1.367 . S
C749 C748 1.367 . S
C749 C751 1.433 . S
C750 C746 1.350 . S
C750 C747 1.463 . S
C750 N754 1.427 . S
C751 H741 0.929 . S
C751 C749 1.433 . S
C751 N754 1.384 . S
C752 H743 0.929 . S
C752 C744 1.378 . S
C752 C747 1.350 . S
C753 H740 0.929 . S
C753 C745 1.433 . S
C753 N755 1.384 . S
N754 C750 1.427 . S
N754 C751 1.384 . S
N755 C747 1.427 . S
N755 C753 1.384 . S
H756 C762 0.930 . S
H757 C766 0.930 . S
H758 C771 0.898 1_554 S
H759 C769 0.929 . S
H760 C764 0.929 . S
H761 C770 0.920 1_655 S
C762 H756 0.930 . S
C762 C763 1.367 . S
C762 C770 1.378 . S
C763 C762 1.367 . S
C763 C771 1.433 . S
C764 H760 0.929 . S
C764 C766 1.378 . S
C764 C768 1.350 . S
C765 C768 1.463 . S
C765 C770 1.350 . S
C765 N773 1.427 . S
C766 H757 0.930 . S
C766 C764 1.378 . S
C766 C767 1.367 1_455 S
C767 C766 1.367 1_655 S
C767 C769 1.433 . S
C768 C764 1.350 . S
C768 C765 1.463 . S
C768 N772 1.427 1_455 S
C769 H759 0.929 . S
C769 C767 1.433 . S
C769 N772 1.384 . S
C770 H761 0.920 1_455 S
C770 C762 1.378 . S
C770 C765 1.350 . S
C771 H758 0.898 1_556 S
C771 C763 1.433 . S
C771 N773 1.384 . S
N772 C768 1.427 1_655 S
N772 C769 1.384 . S
N773 C765 1.427 . S
N773 C771 1.384 . S
H774 C780 0.930 . S
H775 C784 0.930 . S
H776 C789 0.929 . S
H777 C787 0.929 . S
H778 C782 0.929 . S
H779 C788 0.929 1_554 S
C780 H774 0.930 . S
C780 C781 1.367 1_554 S
C780 C788 1.378 1_554 S
C781 C780 1.367 1_556 S
C781 C789 1.433 . S
C782 H778 0.929 . S
C782 C784 1.378 . S
C782 C786 1.350 . S
C783 C786 1.463 . S
C783 C788 1.350 . S
C783 N791 1.427 . S
C784 H775 0.930 . S
C784 C782 1.378 . S
C784 C785 1.367 . S
C785 C784 1.367 . S
C785 C787 1.433 . S
C786 C782 1.350 . S
C786 C783 1.463 . S
C786 N790 1.427 . S
C787 H777 0.929 . S
C787 C785 1.433 . S
C787 N790 1.384 . S
C788 H779 0.929 1_556 S
C788 C780 1.378 1_556 S
C788 C783 1.350 . S
C789 H776 0.929 . S
C789 C781 1.433 . S
C789 N791 1.384 . S
N790 C786 1.427 . S
N790 C787 1.384 . S
N791 C783 1.427 . S
N791 C789 1.384 . S
H792 C798 0.930 . S
H793 C802 0.930 . S
H794 C807 0.929 . S
H795 C805 0.929 . S
H796 C800 0.929 . S
H797 C806 0.929 . S
C798 H792 0.930 . S
C798 C799 1.367 . S
C798 C806 1.378 . S
C799 C798 1.367 . S
C799 C807 1.433 . S
C800 H796 0.929 . S
C800 C802 1.378 . S
C800 C804 1.350 . S
C801 C804 1.463 . S
C801 C806 1.350 . S
C801 N809 1.427 . S
C802 H793 0.930 . S
C802 C800 1.378 . S
C802 C803 1.367 . S
C803 C802 1.367 . S
C803 C805 1.433 . S
C804 C800 1.350 . S
C804 C801 1.463 . S
C804 N808 1.427 . S
C805 H795 0.929 . S
C805 C803 1.433 . S
C805 N808 1.384 . S
C806 H797 0.929 . S
C806 C798 1.378 . S
C806 C801 1.350 . S
C807 H794 0.929 . S
C807 C799 1.433 . S
C807 N809 1.384 . S
N808 C804 1.427 . S
N808 C805 1.384 . S
N809 C801 1.427 . S
N809 C807 1.384 . S
H810 C816 0.930 . S
H811 C820 0.930 . S
H812 C825 0.929 . S
H813 C823 0.929 . S
H814 C818 0.929 . S
H815 C824 0.929 . S
C816 H810 0.930 . S
C816 C817 1.367 1_565 S
C816 C824 1.378 . S
C817 C816 1.367 1_545 S
C817 C825 1.433 . S
C818 H814 0.929 . S
C818 C820 1.378 . S
C818 C822 1.350 . S
C819 C822 1.463 . S
C819 C824 1.350 1_545 S
C819 N827 1.427 . S
C820 H811 0.930 . S
C820 C818 1.378 . S
C820 C821 1.367 . S
C821 C820 1.367 . S
C821 C823 1.433 1_545 S
C822 C818 1.350 . S
C822 C819 1.463 . S
C822 N826 1.427 1_545 S
C823 H813 0.929 . S
C823 C821 1.433 1_565 S
C823 N826 1.384 . S
C824 H815 0.929 . S
C824 C816 1.378 . S
C824 C819 1.350 1_565 S
C825 H812 0.929 . S
C825 C817 1.433 . S
C825 N827 1.384 . S
N826 C822 1.427 1_565 S
N826 C823 1.384 . S
N827 C819 1.427 . S
N827 C825 1.384 . S
H828 C834 0.930 . S
H829 C838 0.930 . S
H830 C843 0.929 . S
H831 C841 0.929 . S
H832 C836 0.929 . S
H833 C842 0.929 . S
C834 H828 0.930 . S
C834 C835 1.367 . S
C834 C842 1.378 . S
C835 C834 1.367 . S
C835 C843 1.433 . S
C836 H832 0.929 . S
C836 C838 1.378 . S
C836 C840 1.350 . S
C837 C840 1.463 . S
C837 C842 1.350 . S
C837 N845 1.427 . S
C838 H829 0.930 . S
C838 C836 1.378 . S
C838 C839 1.367 . S
C839 C838 1.367 . S
C839 C841 1.433 . S
C840 C836 1.350 . S
C840 C837 1.463 . S
C840 N844 1.427 . S
C841 H831 0.929 . S
C841 C839 1.433 . S
C841 N844 1.384 . S
C842 H833 0.929 . S
C842 C834 1.378 . S
C842 C837 1.350 . S
C843 H830 0.929 . S
C843 C835 1.433 . S
C843 N845 1.384 . S
N844 C840 1.427 . S
N844 C841 1.384 . S
N845 C837 1.427 . S
N845 C843 1.384 . S
H846 C852 0.930 . S
H847 C856 0.930 . S
H848 C861 0.929 . S
H849 C859 0.929 . S
H850 C854 0.929 . S
H851 C860 0.929 . S
C852 H846 0.930 . S
C852 C853 1.367 . S
C852 C860 1.378 . S
C853 C852 1.367 . S
C853 C861 1.433 . S
C854 H850 0.929 . S
C854 C856 1.378 . S
C854 C858 1.350 . S
C855 C858 1.463 . S
C855 C860 1.350 . S
C855 N863 1.427 . S
C856 H847 0.930 . S
C856 C854 1.378 . S
C856 C857 1.367 . S
C857 C856 1.367 . S
C857 C859 1.433 . S
C858 C854 1.350 . S
C858 C855 1.463 . S
C858 N862 1.427 . S
C859 H849 0.929 . S
C859 C857 1.433 . S
C859 N862 1.384 . S
C860 H851 0.929 . S
C860 C852 1.378 . S
C860 C855 1.350 . S
C861 H848 0.929 . S
C861 C853 1.433 . S
C861 N863 1.384 . S
N862 C858 1.427 . S
N862 C859 1.384 . S
N863 C855 1.427 . S
N863 C861 1.384 . S
H864 C870 0.930 . S
H865 C874 0.930 . S
H866 C879 0.929 . S
H867 C877 0.929 . S
H868 C872 0.929 . S
H869 C878 0.929 . S
C870 H864 0.930 . S
C870 C871 1.367 . S
C870 C878 1.378 . S
C871 C870 1.367 . S
C871 C879 1.433 . S
C872 H868 0.929 . S
C872 C874 1.378 . S
C872 C876 1.350 . S
C873 C876 1.463 . S
C873 C878 1.350 . S
C873 N881 1.427 . S
C874 H865 0.930 . S
C874 C872 1.378 . S
C874 C875 1.367 . S
C875 C874 1.367 . S
C875 C877 1.433 . S
C876 C872 1.350 . S
C876 C873 1.463 . S
C876 N880 1.427 . S
C877 H867 0.929 . S
C877 C875 1.433 . S
C877 N880 1.384 . S
C878 H869 0.929 . S
C878 C870 1.378 . S
C878 C873 1.350 . S
C879 H866 0.929 . S
C879 C871 1.433 . S
C879 N881 1.384 . S
N880 C876 1.427 . S
N880 C877 1.384 . S
N881 C873 1.427 . S
N881 C879 1.384 . S
H882 C888 0.930 . S
H883 C892 0.930 . S
H884 C897 0.929 . S
H885 C895 0.929 . S
H886 C890 0.929 . S
H887 C896 0.929 1_545 S
C888 H882 0.930 . S
C888 C889 1.367 . S
C888 C896 1.378 . S
C889 C888 1.367 . S
C889 C897 1.433 . S
C890 H886 0.929 . S
C890 C892 1.378 . S
C890 C894 1.350 . S
C891 C894 1.463 1_565 S
C891 C896 1.350 . S
C891 N899 1.427 . S
C892 H883 0.930 . S
C892 C890 1.378 . S
C892 C893 1.367 . S
C893 C892 1.367 . S
C893 C895 1.433 . S
C894 C890 1.350 . S
C894 C891 1.463 1_545 S
C894 N898 1.427 . S
C895 H885 0.929 . S
C895 C893 1.433 . S
C895 N898 1.384 . S
C896 H887 0.929 1_565 S
C896 C888 1.378 . S
C896 C891 1.350 . S
C897 H884 0.929 . S
C897 C889 1.433 . S
C897 N899 1.384 . S
N898 C894 1.427 . S
N898 C895 1.384 . S
N899 C891 1.427 . S
N899 C897 1.384 . S
H900 C906 0.930 . S
H901 C910 0.930 . S
H902 C915 0.929 . S
H903 C913 0.929 . S
H904 C908 0.929 . S
H905 C914 0.929 . S
C906 H900 0.930 . S
C906 C907 1.367 . S
C906 C914 1.378 . S
C907 C906 1.367 . S
C907 C915 1.433 . S
C908 H904 0.929 . S
C908 C910 1.378 . S
C908 C912 1.350 . S
C909 C912 1.463 . S
C909 C914 1.350 . S
C909 N917 1.427 . S
C910 H901 0.930 . S
C910 C908 1.378 . S
C910 C911 1.367 . S
C911 C910 1.367 . S
C911 C913 1.433 . S
C912 C908 1.350 . S
C912 C909 1.463 . S
C912 N916 1.427 . S
C913 H903 0.929 . S
C913 C911 1.433 . S
C913 N916 1.384 . S
C914 H905 0.929 . S
C914 C906 1.378 . S
C914 C909 1.350 . S
C915 H902 0.929 . S
C915 C907 1.433 . S
C915 N917 1.384 . S
N916 C912 1.427 . S
N916 C913 1.384 . S
N917 C909 1.427 . S
N917 C915 1.384 . S
H918 C924 0.930 . S
H919 C928 0.930 . S
H920 C933 0.929 . S
H921 C931 0.929 . S
H922 C926 0.929 . S
H923 C932 0.929 . S
C924 H918 0.930 . S
C924 C925 1.367 . S
C924 C932 1.378 . S
C925 C924 1.367 . S
C925 C933 1.433 . S
C926 H922 0.929 . S
C926 C928 1.378 . S
C926 C930 1.350 . S
C927 C930 1.463 . S
C927 C932 1.350 . S
C927 N935 1.427 . S
C928 H919 0.930 . S
C928 C926 1.378 . S
C928 C929 1.367 . S
C929 C928 1.367 . S
C929 C931 1.433 . S
C930 C926 1.350 . S
C930 C927 1.463 . S
C930 N934 1.427 . S
C931 H921 0.929 . S
C931 C929 1.433 . S
C931 N934 1.384 . S
C932 H923 0.929 . S
C932 C924 1.378 . S
C932 C927 1.350 . S
C933 H920 0.929 . S
C933 C925 1.433 . S
C933 N935 1.384 . S
N934 C930 1.427 . S
N934 C931 1.384 . S
N935 C927 1.427 . S
N935 C933 1.384 . S
H936 C942 0.930 . S
H937 C946 0.930 . S
H938 C951 0.929 . S
H939 C949 0.929 . S
H940 C944 0.929 . S
H941 C950 0.929 . S
C942 H936 0.930 . S
C942 C943 1.367 . S
C942 C950 1.378 . S
C943 C942 1.367 . S
C943 C951 1.433 . S
C944 H940 0.929 . S
C944 C946 1.378 . S
C944 C948 1.350 . S
C945 C948 1.463 . S
C945 C950 1.350 . S
C945 N953 1.427 . S
C946 H937 0.930 . S
C946 C944 1.378 . S
C946 C947 1.367 . S
C947 C946 1.367 . S
C947 C949 1.433 . S
C948 C944 1.350 . S
C948 C945 1.463 . S
C948 N952 1.427 . S
C949 H939 0.929 . S
C949 C947 1.433 . S
C949 N952 1.384 . S
C950 H941 0.929 . S
C950 C942 1.378 . S
C950 C945 1.350 . S
C951 H938 0.929 . S
C951 C943 1.433 . S
C951 N953 1.384 . S
N952 C948 1.427 . S
N952 C949 1.384 . S
N953 C945 1.427 . S
N953 C951 1.384 . S
H954 C960 0.930 . S
H955 C964 0.930 . S
H956 C969 0.929 . S
H957 C967 0.961 . S
H958 C962 0.929 . S
H959 C968 0.929 . S
C960 H954 0.930 . S
C960 C961 1.367 . S
C960 C968 1.378 . S
C961 C960 1.367 . S
C961 C969 1.433 . S
C962 H958 0.929 . S
C962 C964 1.378 . S
C962 C966 1.350 . S
C963 C966 1.463 . S
C963 C968 1.350 . S
C963 N971 1.427 . S
C964 H955 0.930 . S
C964 C962 1.378 . S
C964 C965 1.367 . S
C965 C964 1.367 . S
C965 C967 1.433 . S
C966 C962 1.350 . S
C966 C963 1.463 . S
C966 N970 1.427 . S
C967 H957 0.961 . S
C967 C965 1.433 . S
C967 N970 1.384 . S
C968 H959 0.929 . S
C968 C960 1.378 . S
C968 C963 1.350 . S
C969 H956 0.929 . S
C969 C961 1.433 . S
C969 N971 1.384 . S
N970 C966 1.427 . S
N970 C967 1.384 . S
N971 C963 1.427 . S
N971 C969 1.384 . S
H972 C978 0.930 . S
H973 C982 0.930 . S
H974 C987 0.929 . S
H975 C985 0.929 . S
H976 C980 0.929 . S
H977 C986 0.929 . S
C978 H972 0.930 . S
C978 C979 1.367 . S
C978 C986 1.378 . S
C979 C978 1.367 . S
C979 C987 1.433 . S
C980 H976 0.929 . S
C980 C982 1.378 . S
C980 C984 1.350 1_545 S
C981 C984 1.463 . S
C981 C986 1.350 . S
C981 N989 1.427 . S
C982 H973 0.930 . S
C982 C980 1.378 . S
C982 C983 1.367 . S
C983 C982 1.367 . S
C983 C985 1.433 1_545 S
C984 C980 1.350 1_565 S
C984 C981 1.463 . S
C984 N988 1.427 . S
C985 H975 0.929 . S
C985 C983 1.433 1_565 S
C985 N988 1.384 . S
C986 H977 0.929 . S
C986 C978 1.378 . S
C986 C981 1.350 . S
C987 H974 0.929 . S
C987 C979 1.433 . S
C987 N989 1.384 . S
N988 C984 1.427 . S
N988 C985 1.384 . S
N989 C981 1.427 . S
N989 C987 1.384 . S
H990 C996 0.930 . S
H991 C1000 0.930 . S
H992 C1005 0.929 . S
H993 C1003 0.929 . S
H994 C998 0.929 . S
H995 C1004 0.929 . S
C996 H990 0.930 . S
C996 C997 1.367 . S
C996 C1004 1.378 . S
C997 C996 1.367 . S
C997 C1005 1.433 . S
C998 H994 0.929 . S
C998 C1000 1.378 . S
C998 C1002 1.350 . S
C999 C1002 1.463 . S
C999 C1004 1.350 . S
C999 N1007 1.427 . S
C1000 H991 0.930 . S
C1000 C998 1.378 . S
C1000 C1001 1.367 . S
C1001 C1000 1.367 . S
C1001 C1003 1.433 . S
C1002 C998 1.350 . S
C1002 C999 1.463 . S
C1002 N1006 1.427 . S
C1003 H993 0.929 . S
C1003 C1001 1.433 . S
C1003 N1006 1.384 . S
C1004 H995 0.929 . S
C1004 C996 1.378 . S
C1004 C999 1.350 . S
C1005 H992 0.929 . S
C1005 C997 1.433 . S
C1005 N1007 1.384 . S
N1006 C1002 1.427 . S
N1006 C1003 1.384 . S
N1007 C999 1.427 . S
N1007 C1005 1.384 . S
H1008 C1014 0.930 . S
H1009 C1018 0.930 . S
H1010 C1023 0.929 . S
H1011 C1021 0.929 . S
H1012 C1016 0.929 . S
H1013 C1022 0.929 . S
C1014 H1008 0.930 . S
C1014 C1015 1.367 . S
C1014 C1022 1.378 . S
C1015 C1014 1.367 . S
C1015 C1023 1.433 . S
C1016 H1012 0.929 . S
C1016 C1018 1.378 . S
C1016 C1020 1.350 . S
C1017 C1020 1.463 . S
C1017 C1022 1.350 . S
C1017 N1025 1.427 . S
C1018 H1009 0.930 . S
C1018 C1016 1.378 . S
C1018 C1019 1.367 . S
C1019 C1018 1.367 . S
C1019 C1021 1.433 . S
C1020 C1016 1.350 . S
C1020 C1017 1.463 . S
C1020 N1024 1.427 . S
C1021 H1011 0.929 . S
C1021 C1019 1.433 . S
C1021 N1024 1.384 . S
C1022 H1013 0.929 . S
C1022 C1014 1.378 . S
C1022 C1017 1.350 . S
C1023 H1010 0.929 . S
C1023 C1015 1.433 . S
C1023 N1025 1.384 . S
N1024 C1020 1.427 . S
N1024 C1021 1.384 . S
N1025 C1017 1.427 . S
N1025 C1023 1.384 . S
H1026 C1032 0.930 . S
H1027 C1036 0.930 . S
H1028 C1041 0.929 . S
H1029 C1039 0.929 . S
H1030 C1034 0.929 . S
H1031 C1040 0.929 . S
C1032 H1026 0.930 . S
C1032 C1033 1.367 . S
C1032 C1040 1.378 . S
C1033 C1032 1.367 . S
C1033 C1041 1.433 . S
C1034 H1030 0.929 . S
C1034 C1036 1.378 . S
C1034 C1038 1.350 . S
C1035 C1038 1.463 . S
C1035 C1040 1.350 . S
C1035 N1043 1.427 . S
C1036 H1027 0.930 . S
C1036 C1034 1.378 . S
C1036 C1037 1.367 . S
C1037 C1036 1.367 . S
C1037 C1039 1.433 . S
C1038 C1034 1.350 . S
C1038 C1035 1.463 . S
C1038 N1042 1.427 . S
C1039 H1029 0.929 . S
C1039 C1037 1.433 . S
C1039 N1042 1.384 . S
C1040 H1031 0.929 . S
C1040 C1032 1.378 . S
C1040 C1035 1.350 . S
C1041 H1028 0.929 . S
C1041 C1033 1.433 . S
C1041 N1043 1.384 . S
N1042 C1038 1.427 . S
N1042 C1039 1.384 . S
N1043 C1035 1.427 . S
N1043 C1041 1.384 . S
H1044 C1050 0.930 . S
H1045 C1054 0.930 . S
H1046 C1059 0.929 . S
H1047 C1057 0.929 . S
H1048 C1052 0.929 . S
H1049 C1058 0.929 . S
C1050 H1044 0.930 . S
C1050 C1051 1.367 . S
C1050 C1058 1.378 . S
C1051 C1050 1.367 . S
C1051 C1059 1.433 . S
C1052 H1048 0.929 . S
C1052 C1054 1.378 . S
C1052 C1056 1.350 . S
C1053 C1056 1.463 1_565 S
C1053 C1058 1.350 . S
C1053 N1061 1.427 . S
C1054 H1045 0.930 . S
C1054 C1052 1.378 . S
C1054 C1055 1.367 . S
C1055 C1054 1.367 . S
C1055 C1057 1.433 . S
C1056 C1052 1.350 . S
C1056 C1053 1.463 1_545 S
C1056 N1060 1.427 . S
C1057 H1047 0.929 . S
C1057 C1055 1.433 . S
C1057 N1060 1.384 . S
C1058 H1049 0.929 . S
C1058 C1050 1.378 . S
C1058 C1053 1.350 . S
C1059 H1046 0.929 . S
C1059 C1051 1.433 . S
C1059 N1061 1.384 . S
N1060 C1056 1.427 . S
N1060 C1057 1.384 . S
N1061 C1053 1.427 . S
N1061 C1059 1.384 . S
H1062 C1068 0.930 . S
H1063 C1072 0.930 . S
H1064 C1077 0.929 . S
H1065 C1075 0.929 . S
H1066 C1070 0.929 . S
H1067 C1076 0.929 . S
C1068 H1062 0.930 . S
C1068 C1069 1.367 . S
C1068 C1076 1.378 . S
C1069 C1068 1.367 . S
C1069 C1077 1.433 . S
C1070 H1066 0.929 . S
C1070 C1072 1.378 . S
C1070 C1074 1.350 . S
C1071 C1074 1.463 . S
C1071 C1076 1.350 . S
C1071 N1079 1.427 . S
C1072 H1063 0.930 . S
C1072 C1070 1.378 . S
C1072 C1073 1.367 . S
C1073 C1072 1.367 . S
C1073 C1075 1.433 . S
C1074 C1070 1.350 . S
C1074 C1071 1.463 . S
C1074 N1078 1.427 . S
C1075 H1065 0.929 . S
C1075 C1073 1.433 . S
C1075 N1078 1.384 . S
C1076 H1067 0.929 . S
C1076 C1068 1.378 . S
C1076 C1071 1.350 . S
C1077 H1064 0.929 . S
C1077 C1069 1.433 . S
C1077 N1079 1.384 . S
N1078 C1074 1.427 . S
N1078 C1075 1.384 . S
N1079 C1071 1.427 . S
N1079 C1077 1.384 . S
H1080 C1086 0.930 . S
H1081 C1090 0.930 . S
H1082 C1095 0.929 . S
H1083 C1093 0.929 . S
H1084 C1088 0.929 . S
H1085 C1094 0.929 . S
C1086 H1080 0.930 . S
C1086 C1087 1.367 . S
C1086 C1094 1.378 . S
C1087 C1086 1.367 . S
C1087 C1095 1.433 . S
C1088 H1084 0.929 . S
C1088 C1090 1.378 . S
C1088 C1092 1.350 . S
C1089 C1092 1.463 . S
C1089 C1094 1.350 . S
C1089 N1097 1.427 . S
C1090 H1081 0.930 . S
C1090 C1088 1.378 . S
C1090 C1091 1.367 . S
C1091 C1090 1.367 . S
C1091 C1093 1.433 . S
C1092 C1088 1.350 . S
C1092 C1089 1.463 . S
C1092 N1096 1.427 . S
C1093 H1083 0.929 . S
C1093 C1091 1.433 . S
C1093 N1096 1.384 . S
C1094 H1085 0.929 . S
C1094 C1086 1.378 . S
C1094 C1089 1.350 . S
C1095 H1082 0.929 . S
C1095 C1087 1.433 . S
C1095 N1097 1.384 . S
N1096 C1092 1.427 . S
N1096 C1093 1.384 . S
N1097 C1089 1.427 . S
N1097 C1095 1.384 . S
H1098 C1104 0.930 . S
H1099 C1108 0.930 . S
H1100 C1113 0.929 . S
H1101 C1111 0.929 . S
H1102 C1106 0.929 . S
H1103 C1112 0.929 . S
C1104 H1098 0.930 . S
C1104 C1105 1.367 . S
C1104 C1112 1.378 . S
C1105 C1104 1.367 . S
C1105 C1113 1.433 . S
C1106 H1102 0.929 . S
C1106 C1108 1.378 . S
C1106 C1110 1.350 . S
C1107 C1110 1.463 . S
C1107 C1112 1.350 . S
C1107 N1115 1.427 . S
C1108 H1099 0.930 . S
C1108 C1106 1.378 . S
C1108 C1109 1.367 . S
C1109 C1108 1.367 . S
C1109 C1111 1.433 . S
C1110 C1106 1.350 . S
C1110 C1107 1.463 . S
C1110 N1114 1.427 . S
C1111 H1101 0.929 . S
C1111 C1109 1.433 . S
C1111 N1114 1.384 . S
C1112 H1103 0.929 . S
C1112 C1104 1.378 . S
C1112 C1107 1.350 . S
C1113 H1100 0.929 . S
C1113 C1105 1.433 . S
C1113 N1115 1.384 . S
N1114 C1110 1.427 . S
N1114 C1111 1.384 . S
N1115 C1107 1.427 . S
N1115 C1113 1.384 . S
H1116 C1122 0.930 . S
H1117 C1126 0.930 . S
H1118 C1131 0.929 . S
H1119 C1129 0.929 . S
H1120 C1124 0.929 . S
H1121 C1130 0.929 . S
C1122 H1116 0.930 . S
C1122 C1123 1.367 . S
C1122 C1130 1.378 . S
C1123 C1122 1.367 . S
C1123 C1131 1.433 . S
C1124 H1120 0.929 . S
C1124 C1126 1.378 . S
C1124 C1128 1.350 . S
C1125 C1128 1.463 . S
C1125 C1130 1.350 . S
C1125 N1133 1.427 . S
C1126 H1117 0.930 . S
C1126 C1124 1.378 . S
C1126 C1127 1.367 . S
C1127 C1126 1.367 . S
C1127 C1129 1.433 . S
C1128 C1124 1.350 . S
C1128 C1125 1.463 . S
C1128 N1132 1.427 . S
C1129 H1119 0.929 . S
C1129 C1127 1.433 . S
C1129 N1132 1.384 . S
C1130 H1121 0.929 . S
C1130 C1122 1.378 . S
C1130 C1125 1.350 . S
C1131 H1118 0.929 . S
C1131 C1123 1.433 . S
C1131 N1133 1.384 . S
N1132 C1128 1.427 . S
N1132 C1129 1.384 . S
N1133 C1125 1.427 . S
N1133 C1131 1.384 . S
H1134 C1140 0.930 . S
H1135 C1144 0.930 . S
H1136 C1149 0.929 . S
H1137 C1147 0.929 . S
H1138 C1142 0.929 . S
H1139 C1148 0.929 . S
C1140 H1134 0.930 . S
C1140 C1141 1.367 . S
C1140 C1148 1.378 . S
C1141 C1140 1.367 . S
C1141 C1149 1.433 . S
C1142 H1138 0.929 . S
C1142 C1144 1.378 . S
C1142 C1146 1.350 . S
C1143 C1146 1.463 . S
C1143 C1148 1.350 . S
C1143 N1151 1.427 . S
C1144 H1135 0.930 . S
C1144 C1142 1.378 . S
C1144 C1145 1.367 . S
C1145 C1144 1.367 . S
C1145 C1147 1.433 . S
C1146 C1142 1.350 . S
C1146 C1143 1.463 . S
C1146 N1150 1.427 . S
C1147 H1137 0.929 . S
C1147 C1145 1.433 . S
C1147 N1150 1.384 . S
C1148 H1139 0.929 . S
C1148 C1140 1.378 . S
C1148 C1143 1.350 . S
C1149 H1136 0.929 . S
C1149 C1141 1.433 . S
C1149 N1151 1.384 . S
N1150 C1146 1.427 . S
N1150 C1147 1.384 . S
N1151 C1143 1.427 . S
N1151 C1149 1.384 . S
H1152 C1158 0.930 . S
H1153 C1162 0.930 . S
H1154 C1167 0.929 . S
H1155 C1165 0.929 . S
H1156 C1160 0.929 . S
H1157 C1166 0.929 . S
C1158 H1152 0.930 . S
C1158 C1159 1.367 . S
C1158 C1166 1.378 . S
C1159 C1158 1.367 . S
C1159 C1167 1.433 . S
C1160 H1156 0.929 . S
C1160 C1162 1.378 . S
C1160 C1164 1.350 . S
C1161 C1164 1.463 . S
C1161 C1166 1.350 . S
C1161 N1169 1.427 . S
C1162 H1153 0.930 . S
C1162 C1160 1.378 . S
C1162 C1163 1.367 . S
C1163 C1162 1.367 . S
C1163 C1165 1.433 . S
C1164 C1160 1.350 . S
C1164 C1161 1.463 . S
C1164 N1168 1.427 . S
C1165 H1155 0.929 . S
C1165 C1163 1.433 . S
C1165 N1168 1.384 . S
C1166 H1157 0.929 . S
C1166 C1158 1.378 . S
C1166 C1161 1.350 . S
C1167 H1154 0.929 . S
C1167 C1159 1.433 . S
C1167 N1169 1.384 . S
N1168 C1164 1.427 . S
N1168 C1165 1.384 . S
N1169 C1161 1.427 . S
N1169 C1167 1.384 . S
H1170 C1176 0.930 . S
H1171 C1180 0.930 . S
H1172 C1185 0.929 . S
H1173 C1183 0.929 . S
H1174 C1178 0.929 . S
H1175 C1184 0.929 . S
C1176 H1170 0.930 . S
C1176 C1177 1.367 . S
C1176 C1184 1.378 . S
C1177 C1176 1.367 . S
C1177 C1185 1.433 . S
C1178 H1174 0.929 . S
C1178 C1180 1.378 . S
C1178 C1182 1.350 . S
C1179 C1182 1.463 . S
C1179 C1184 1.350 . S
C1179 N1187 1.427 . S
C1180 H1171 0.930 . S
C1180 C1178 1.378 . S
C1180 C1181 1.367 . S
C1181 C1180 1.367 . S
C1181 C1183 1.433 . S
C1182 C1178 1.350 . S
C1182 C1179 1.463 . S
C1182 N1186 1.427 . S
C1183 H1173 0.929 . S
C1183 C1181 1.433 . S
C1183 N1186 1.384 . S
C1184 H1175 0.929 . S
C1184 C1176 1.378 . S
C1184 C1179 1.350 . S
C1185 H1172 0.929 . S
C1185 C1177 1.433 . S
C1185 N1187 1.384 . S
N1186 C1182 1.427 . S
N1186 C1183 1.384 . S
N1187 C1179 1.427 . S
N1187 C1185 1.384 . S
H1188 C1194 0.930 . S
H1189 C1198 0.930 . S
H1190 C1203 0.929 . S
H1191 C1201 0.929 . S
H1192 C1196 0.929 . S
H1193 C1202 0.929 . S
C1194 H1188 0.930 . S
C1194 C1195 1.367 . S
C1194 C1202 1.378 . S
C1195 C1194 1.367 . S
C1195 C1203 1.433 . S
C1196 H1192 0.929 . S
C1196 C1198 1.378 . S
C1196 C1200 1.350 . S
C1197 C1200 1.463 . S
C1197 C1202 1.350 . S
C1197 N1205 1.427 . S
C1198 H1189 0.930 . S
C1198 C1196 1.378 . S
C1198 C1199 1.367 . S
C1199 C1198 1.367 . S
C1199 C1201 1.433 . S
C1200 C1196 1.350 . S
C1200 C1197 1.463 . S
C1200 N1204 1.427 . S
C1201 H1191 0.929 . S
C1201 C1199 1.433 . S
C1201 N1204 1.384 . S
C1202 H1193 0.929 . S
C1202 C1194 1.378 . S
C1202 C1197 1.350 . S
C1203 H1190 0.929 . S
C1203 C1195 1.433 . S
C1203 N1205 1.384 . S
N1204 C1200 1.427 . S
N1204 C1201 1.384 . S
N1205 C1197 1.427 . S
N1205 C1203 1.384 . S
H1206 C1212 0.930 . S
H1207 C1216 0.930 . S
H1208 C1221 0.929 . S
H1209 C1219 0.929 . S
H1210 C1214 0.929 . S
H1211 C1220 0.929 . S
C1212 H1206 0.930 . S
C1212 C1213 1.367 . S
C1212 C1220 1.378 . S
C1213 C1212 1.367 . S
C1213 C1221 1.433 . S
C1214 H1210 0.929 . S
C1214 C1216 1.378 . S
C1214 C1218 1.350 . S
C1215 C1218 1.463 . S
C1215 C1220 1.350 . S
C1215 N1223 1.427 . S
C1216 H1207 0.930 . S
C1216 C1214 1.378 . S
C1216 C1217 1.367 . S
C1217 C1216 1.367 . S
C1217 C1219 1.433 . S
C1218 C1214 1.350 . S
C1218 C1215 1.463 . S
C1218 N1222 1.427 . S
C1219 H1209 0.929 . S
C1219 C1217 1.433 . S
C1219 N1222 1.384 . S
C1220 H1211 0.929 . S
C1220 C1212 1.378 . S
C1220 C1215 1.350 . S
C1221 H1208 0.929 . S
C1221 C1213 1.433 . S
C1221 N1223 1.384 . S
N1222 C1218 1.427 . S
N1222 C1219 1.384 . S
N1223 C1215 1.427 . S
N1223 C1221 1.384 . S
H1224 C1230 0.930 . S
H1225 C1234 0.930 1_455 S
H1226 C1239 0.929 . S
H1227 C1237 0.929 . S
H1228 C1232 0.929 . S
H1229 C1238 0.929 . S
C1230 H1224 0.930 . S
C1230 C1231 1.367 . S
C1230 C1238 1.378 . S
C1231 C1230 1.367 . S
C1231 C1239 1.433 . S
C1232 H1228 0.929 . S
C1232 C1234 1.378 . S
C1232 C1236 1.350 . S
C1233 C1236 1.463 . S
C1233 C1238 1.350 . S
C1233 N1241 1.427 . S
C1234 H1225 0.930 1_655 S
C1234 C1232 1.378 . S
C1234 C1235 1.367 . S
C1235 C1234 1.367 . S
C1235 C1237 1.433 . S
C1236 C1232 1.350 . S
C1236 C1233 1.463 . S
C1236 N1240 1.427 . S
C1237 H1227 0.929 . S
C1237 C1235 1.433 . S
C1237 N1240 1.384 . S
C1238 H1229 0.929 . S
C1238 C1230 1.378 . S
C1238 C1233 1.350 . S
C1239 H1226 0.929 . S
C1239 C1231 1.433 . S
C1239 N1241 1.384 . S
N1240 C1236 1.427 . S
N1240 C1237 1.384 . S
N1241 C1233 1.427 . S
N1241 C1239 1.384 . S
H1242 C1248 0.930 . S
H1243 C1252 0.930 . S
H1244 C1257 0.929 . S
H1245 C1255 0.929 . S
H1246 C1250 0.929 . S
H1247 C1256 0.929 . S
C1248 H1242 0.930 . S
C1248 C1249 1.367 . S
C1248 C1256 1.378 . S
C1249 C1248 1.367 . S
C1249 C1257 1.433 . S
C1250 H1246 0.929 . S
C1250 C1252 1.378 . S
C1250 C1254 1.350 . S
C1251 C1254 1.463 . S
C1251 C1256 1.350 . S
C1251 N1259 1.427 . S
C1252 H1243 0.930 . S
C1252 C1250 1.378 . S
C1252 C1253 1.367 . S
C1253 C1252 1.367 . S
C1253 C1255 1.433 . S
C1254 C1250 1.350 . S
C1254 C1251 1.463 . S
C1254 N1258 1.427 . S
C1255 H1245 0.929 . S
C1255 C1253 1.433 . S
C1255 N1258 1.384 . S
C1256 H1247 0.929 . S
C1256 C1248 1.378 . S
C1256 C1251 1.350 . S
C1257 H1244 0.929 . S
C1257 C1249 1.433 . S
C1257 N1259 1.384 . S
N1258 C1254 1.427 . S
N1258 C1255 1.384 . S
N1259 C1251 1.427 . S
N1259 C1257 1.384 . S
H1260 C1266 0.930 . S
H1261 C1270 0.930 . S
H1262 C1275 0.929 . S
H1263 C1273 0.929 . S
H1264 C1268 0.929 . S
H1265 C1274 0.929 . S
C1266 H1260 0.930 . S
C1266 C1267 1.367 . S
C1266 C1274 1.378 . S
C1267 C1266 1.367 . S
C1267 C1275 1.433 . S
C1268 H1264 0.929 . S
C1268 C1270 1.378 . S
C1268 C1272 1.350 . S
C1269 C1272 1.463 . S
C1269 C1274 1.350 . S
C1269 N1277 1.427 . S
C1270 H1261 0.930 . S
C1270 C1268 1.378 . S
C1270 C1271 1.367 . S
C1271 C1270 1.367 . S
C1271 C1273 1.433 . S
C1272 C1268 1.350 . S
C1272 C1269 1.463 . S
C1272 N1276 1.427 . S
C1273 H1263 0.929 . S
C1273 C1271 1.433 . S
C1273 N1276 1.384 . S
C1274 H1265 0.929 . S
C1274 C1266 1.378 . S
C1274 C1269 1.350 . S
C1275 H1262 0.929 . S
C1275 C1267 1.433 . S
C1275 N1277 1.384 . S
N1276 C1272 1.427 . S
N1276 C1273 1.384 . S
N1277 C1269 1.427 . S
N1277 C1275 1.384 . S
H1278 C1284 0.930 . S
H1279 C1288 0.930 . S
H1280 C1293 0.929 . S
H1281 C1291 0.929 . S
H1282 C1286 0.929 . S
H1283 C1292 0.929 . S
C1284 H1278 0.930 . S
C1284 C1285 1.367 . S
C1284 C1292 1.378 . S
C1285 C1284 1.367 . S
C1285 C1293 1.433 . S
C1286 H1282 0.929 . S
C1286 C1288 1.378 . S
C1286 C1290 1.350 . S
C1287 C1290 1.463 . S
C1287 C1292 1.350 . S
C1287 N1295 1.427 . S
C1288 H1279 0.930 . S
C1288 C1286 1.378 . S
C1288 C1289 1.367 . S
C1289 C1288 1.367 . S
C1289 C1291 1.433 . S
C1290 C1286 1.350 . S
C1290 C1287 1.463 . S
C1290 N1294 1.427 . S
C1291 H1281 0.929 . S
C1291 C1289 1.433 . S
C1291 N1294 1.384 . S
C1292 H1283 0.929 . S
C1292 C1284 1.378 . S
C1292 C1287 1.350 . S
C1293 H1280 0.929 . S
C1293 C1285 1.433 . S
C1293 N1295 1.384 . S
N1294 C1290 1.427 . S
N1294 C1291 1.384 . S
N1295 C1287 1.427 . S
N1295 C1293 1.384 . S
H1296 C1302 0.930 . S
H1297 C1306 0.930 . S
H1298 C1311 0.929 . S
H1299 C1309 0.929 1_655 S
H1300 C1304 0.929 . S
H1301 C1310 0.929 . S
C1302 H1296 0.930 . S
C1302 C1303 1.367 . S
C1302 C1310 1.378 . S
C1303 C1302 1.367 . S
C1303 C1311 1.433 . S
C1304 H1300 0.929 . S
C1304 C1306 1.378 . S
C1304 C1308 1.350 . S
C1305 C1308 1.463 . S
C1305 C1310 1.350 . S
C1305 N1313 1.427 . S
C1306 H1297 0.930 . S
C1306 C1304 1.378 . S
C1306 C1307 1.367 . S
C1307 C1306 1.367 . S
C1307 C1309 1.433 . S
C1308 C1304 1.350 . S
C1308 C1305 1.463 . S
C1308 N1312 1.427 . S
C1309 H1299 0.929 1_455 S
C1309 C1307 1.433 . S
C1309 N1312 1.384 . S
C1310 H1301 0.929 . S
C1310 C1302 1.378 . S
C1310 C1305 1.350 . S
C1311 H1298 0.929 . S
C1311 C1303 1.433 . S
C1311 N1313 1.384 . S
N1312 C1308 1.427 . S
N1312 C1309 1.384 . S
N1313 C1305 1.427 . S
N1313 C1311 1.384 . S
H1314 C1320 0.930 . S
H1315 C1324 0.930 . S
H1316 C1329 0.929 . S
H1317 C1327 0.929 . S
H1318 C1322 0.929 . S
H1319 C1328 0.929 . S
C1320 H1314 0.930 . S
C1320 C1321 1.367 . S
C1320 C1328 1.378 . S
C1321 C1320 1.367 . S
C1321 C1329 1.433 . S
C1322 H1318 0.929 . S
C1322 C1324 1.378 . S
C1322 C1326 1.350 . S
C1323 C1326 1.463 . S
C1323 C1328 1.350 . S
C1323 N1331 1.427 . S
C1324 H1315 0.930 . S
C1324 C1322 1.378 . S
C1324 C1325 1.367 . S
C1325 C1324 1.367 . S
C1325 C1327 1.433 . S
C1326 C1322 1.350 . S
C1326 C1323 1.463 . S
C1326 N1330 1.427 . S
C1327 H1317 0.929 . S
C1327 C1325 1.433 . S
C1327 N1330 1.384 . S
C1328 H1319 0.929 . S
C1328 C1320 1.378 . S
C1328 C1323 1.350 . S
C1329 H1316 0.929 . S
C1329 C1321 1.433 . S
C1329 N1331 1.384 . S
N1330 C1326 1.427 . S
N1330 C1327 1.384 . S
N1331 C1323 1.427 . S
N1331 C1329 1.384 . S
H1332 C1338 0.930 . S
H1333 C1342 0.930 1_565 S
H1334 C1347 0.929 . S
H1335 C1345 0.929 . S
H1336 C1340 0.938 . S
H1337 C1346 0.929 . S
C1338 H1332 0.930 . S
C1338 C1339 1.367 . S
C1338 C1346 1.378 . S
C1339 C1338 1.367 . S
C1339 C1347 1.433 1_545 S
C1340 H1336 0.938 . S
C1340 C1342 1.374 1_565 S
C1340 C1344 1.344 1_565 S
C1341 C1344 1.463 . S
C1341 C1346 1.350 . S
C1341 N1349 1.427 1_545 S
C1342 H1333 0.930 1_545 S
C1342 C1340 1.374 1_545 S
C1342 C1343 1.367 . S
C1343 C1342 1.367 . S
C1343 C1345 1.433 . S
C1344 C1340 1.344 1_545 S
C1344 C1341 1.463 . S
C1344 N1348 1.427 . S
C1345 H1335 0.929 . S
C1345 C1343 1.433 . S
C1345 N1348 1.384 . S
C1346 H1337 0.929 . S
C1346 C1338 1.378 . S
C1346 C1341 1.350 . S
C1347 H1334 0.929 . S
C1347 C1339 1.433 1_565 S
C1347 N1349 1.384 . S
N1348 C1344 1.427 . S
N1348 C1345 1.384 . S
N1349 C1341 1.427 1_565 S
N1349 C1347 1.384 . S
H1350 C1356 0.930 . S
H1351 C1360 0.930 . S
H1352 C1365 0.929 . S
H1353 C1363 0.929 1_565 S
H1354 C1358 0.929 . S
H1355 C1364 0.929 . S
C1356 H1350 0.930 . S
C1356 C1357 1.367 . S
C1356 C1364 1.378 . S
C1357 C1356 1.367 . S
C1357 C1365 1.433 . S
C1358 H1354 0.929 . S
C1358 C1360 1.378 . S
C1358 C1362 1.350 . S
C1359 C1362 1.463 . S
C1359 C1364 1.350 . S
C1359 N1367 1.427 . S
C1360 H1351 0.930 . S
C1360 C1358 1.378 . S
C1360 C1361 1.367 . S
C1361 C1360 1.367 . S
C1361 C1363 1.433 . S
C1362 C1358 1.350 . S
C1362 C1359 1.463 . S
C1362 N1366 1.427 . S
C1363 H1353 0.929 1_545 S
C1363 C1361 1.433 . S
C1363 N1366 1.384 . S
C1364 H1355 0.929 . S
C1364 C1356 1.378 . S
C1364 C1359 1.350 . S
C1365 H1352 0.929 . S
C1365 C1357 1.433 . S
C1365 N1367 1.384 . S
N1366 C1362 1.427 . S
N1366 C1363 1.384 . S
N1367 C1359 1.427 . S
N1367 C1365 1.384 . S
H1368 C1374 0.930 . S
H1369 C1378 0.930 . S
H1370 C1383 0.929 . S
H1371 C1381 0.929 . S
H1372 C1376 0.929 . S
H1373 C1382 0.929 . S
C1374 H1368 0.930 . S
C1374 C1375 1.367 . S
C1374 C1382 1.378 . S
C1375 C1374 1.367 . S
C1375 C1383 1.433 . S
C1376 H1372 0.929 . S
C1376 C1378 1.378 . S
C1376 C1380 1.350 . S
C1377 C1380 1.463 . S
C1377 C1382 1.350 . S
C1377 N1385 1.427 . S
C1378 H1369 0.930 . S
C1378 C1376 1.378 . S
C1378 C1379 1.367 . S
C1379 C1378 1.367 . S
C1379 C1381 1.433 . S
C1380 C1376 1.350 . S
C1380 C1377 1.463 . S
C1380 N1384 1.427 . S
C1381 H1371 0.929 . S
C1381 C1379 1.433 . S
C1381 N1384 1.384 . S
C1382 H1373 0.929 . S
C1382 C1374 1.378 . S
C1382 C1377 1.350 . S
C1383 H1370 0.929 . S
C1383 C1375 1.433 . S
C1383 N1385 1.384 . S
N1384 C1380 1.427 . S
N1384 C1381 1.384 . S
N1385 C1377 1.427 . S
N1385 C1383 1.384 . S
H1386 C1392 0.930 . S
H1387 C1396 0.930 . S
H1388 C1401 0.929 . S
H1389 C1399 0.929 . S
H1390 C1394 0.929 . S
H1391 C1400 0.929 . S
C1392 H1386 0.930 . S
C1392 C1393 1.367 . S
C1392 C1400 1.378 . S
C1393 C1392 1.367 . S
C1393 C1401 1.433 . S
C1394 H1390 0.929 . S
C1394 C1396 1.378 . S
C1394 C1398 1.350 . S
C1395 C1398 1.463 . S
C1395 C1400 1.350 . S
C1395 N1403 1.427 . S
C1396 H1387 0.930 . S
C1396 C1394 1.378 . S
C1396 C1397 1.367 . S
C1397 C1396 1.367 . S
C1397 C1399 1.433 . S
C1398 C1394 1.350 . S
C1398 C1395 1.463 . S
C1398 N1402 1.427 . S
C1399 H1389 0.929 . S
C1399 C1397 1.433 . S
C1399 N1402 1.384 . S
C1400 H1391 0.929 . S
C1400 C1392 1.378 . S
C1400 C1395 1.350 . S
C1401 H1388 0.929 . S
C1401 C1393 1.433 . S
C1401 N1403 1.384 . S
N1402 C1398 1.427 . S
N1402 C1399 1.384 . S
N1403 C1395 1.427 . S
N1403 C1401 1.384 . S
H1404 C1410 0.930 . S
H1405 C1414 0.930 . S
H1406 C1419 0.929 . S
H1407 C1417 0.929 . S
H1408 C1412 0.929 . S
H1409 C1418 0.929 . S
C1410 H1404 0.930 . S
C1410 C1411 1.367 . S
C1410 C1418 1.378 . S
C1411 C1410 1.367 . S
C1411 C1419 1.433 . S
C1412 H1408 0.929 . S
C1412 C1414 1.378 . S
C1412 C1416 1.350 . S
C1413 C1416 1.463 . S
C1413 C1418 1.350 . S
C1413 N1421 1.427 . S
C1414 H1405 0.930 . S
C1414 C1412 1.378 . S
C1414 C1415 1.367 . S
C1415 C1414 1.367 . S
C1415 C1417 1.433 . S
C1416 C1412 1.350 . S
C1416 C1413 1.463 . S
C1416 N1420 1.427 . S
C1417 H1407 0.929 . S
C1417 C1415 1.433 . S
C1417 N1420 1.384 . S
C1418 H1409 0.929 . S
C1418 C1410 1.378 . S
C1418 C1413 1.350 . S
C1419 H1406 0.929 . S
C1419 C1411 1.433 . S
C1419 N1421 1.384 . S
N1420 C1416 1.427 . S
N1420 C1417 1.384 . S
N1421 C1413 1.427 . S
N1421 C1419 1.384 . S
H1422 C1428 0.930 . S
H1423 C1432 0.930 . S
H1424 C1437 0.929 . S
H1425 C1435 0.929 . S
H1426 C1430 0.929 . S
H1427 C1436 0.929 . S
C1428 H1422 0.930 . S
C1428 C1429 1.367 . S
C1428 C1436 1.378 . S
C1429 C1428 1.367 . S
C1429 C1437 1.433 . S
C1430 H1426 0.929 . S
C1430 C1432 1.378 . S
C1430 C1434 1.350 . S
C1431 C1434 1.463 . S
C1431 C1436 1.350 . S
C1431 N1439 1.427 . S
C1432 H1423 0.930 . S
C1432 C1430 1.378 . S
C1432 C1433 1.367 . S
C1433 C1432 1.367 . S
C1433 C1435 1.433 . S
C1434 C1430 1.350 . S
C1434 C1431 1.463 . S
C1434 N1438 1.427 . S
C1435 H1425 0.929 . S
C1435 C1433 1.433 . S
C1435 N1438 1.384 . S
C1436 H1427 0.929 . S
C1436 C1428 1.378 . S
C1436 C1431 1.350 . S
C1437 H1424 0.929 . S
C1437 C1429 1.433 . S
C1437 N1439 1.384 . S
N1438 C1434 1.427 . S
N1438 C1435 1.384 . S
N1439 C1431 1.427 . S
N1439 C1437 1.384 . S
H1440 C1446 0.930 . S
H1441 C1450 0.930 . S
H1442 C1455 0.929 1_565 S
H1443 C1453 0.929 . S
H1444 C1448 0.929 . S
H1445 C1454 0.929 . S
C1446 H1440 0.930 . S
C1446 C1447 1.367 . S
C1446 C1454 1.378 . S
C1447 C1446 1.367 . S
C1447 C1455 1.433 . S
C1448 H1444 0.929 . S
C1448 C1450 1.378 . S
C1448 C1452 1.350 . S
C1449 C1452 1.463 . S
C1449 C1454 1.350 . S
C1449 N1457 1.427 . S
C1450 H1441 0.930 . S
C1450 C1448 1.378 . S
C1450 C1451 1.367 . S
C1451 C1450 1.367 . S
C1451 C1453 1.433 . S
C1452 C1448 1.350 . S
C1452 C1449 1.463 . S
C1452 N1456 1.427 . S
C1453 H1443 0.929 . S
C1453 C1451 1.433 . S
C1453 N1456 1.384 . S
C1454 H1445 0.929 . S
C1454 C1446 1.378 . S
C1454 C1449 1.350 . S
C1455 H1442 0.929 1_545 S
C1455 C1447 1.433 . S
C1455 N1457 1.384 . S
N1456 C1452 1.427 . S
N1456 C1453 1.384 . S
N1457 C1449 1.427 . S
N1457 C1455 1.384 . S
H1458 C1464 0.930 . S
H1459 C1468 0.930 . S
H1460 C1473 0.929 . S
H1461 C1471 0.929 . S
H1462 C1466 0.929 . S
H1463 C1472 0.929 . S
C1464 H1458 0.930 . S
C1464 C1465 1.367 . S
C1464 C1472 1.378 . S
C1465 C1464 1.367 . S
C1465 C1473 1.433 . S
C1466 H1462 0.929 . S
C1466 C1468 1.378 . S
C1466 C1470 1.350 . S
C1467 C1470 1.463 . S
C1467 C1472 1.350 . S
C1467 N1475 1.427 . S
C1468 H1459 0.930 . S
C1468 C1466 1.378 . S
C1468 C1469 1.367 . S
C1469 C1468 1.367 . S
C1469 C1471 1.433 . S
C1470 C1466 1.350 . S
C1470 C1467 1.463 . S
C1470 N1474 1.427 . S
C1471 H1461 0.929 . S
C1471 C1469 1.433 . S
C1471 N1474 1.384 . S
C1472 H1463 0.929 . S
C1472 C1464 1.378 . S
C1472 C1467 1.350 . S
C1473 H1460 0.929 . S
C1473 C1465 1.433 . S
C1473 N1475 1.384 . S
N1474 C1470 1.427 . S
N1474 C1471 1.384 . S
N1475 C1467 1.427 . S
N1475 C1473 1.384 . S
H1476 C1482 0.930 1_655 S
H1477 C1486 0.930 . S
H1478 C1491 0.929 . S
H1479 C1489 0.929 . S
H1480 C1484 0.929 . S
H1481 C1490 0.929 1_655 S
C1482 H1476 0.930 1_455 S
C1482 C1483 1.367 . S
C1482 C1490 1.378 . S
C1483 C1482 1.367 . S
C1483 C1491 1.433 . S
C1484 H1480 0.929 . S
C1484 C1486 1.378 . S
C1484 C1488 1.350 . S
C1485 C1488 1.463 . S
C1485 C1490 1.350 . S
C1485 N1493 1.427 . S
C1486 H1477 0.930 . S
C1486 C1484 1.378 . S
C1486 C1487 1.367 . S
C1487 C1486 1.367 . S
C1487 C1489 1.433 1_455 S
C1488 C1484 1.350 . S
C1488 C1485 1.463 . S
C1488 N1492 1.427 1_455 S
C1489 H1479 0.929 . S
C1489 C1487 1.433 1_655 S
C1489 N1492 1.384 . S
C1490 H1481 0.929 1_455 S
C1490 C1482 1.378 . S
C1490 C1485 1.350 . S
C1491 H1478 0.929 . S
C1491 C1483 1.433 . S
C1491 N1493 1.384 . S
N1492 C1488 1.427 1_655 S
N1492 C1489 1.384 . S
N1493 C1485 1.427 . S
N1493 C1491 1.384 . S
H1494 C1500 0.930 . S
H1495 C1504 0.930 . S
H1496 C1509 0.929 . S
H1497 C1507 0.929 . S
H1498 C1502 0.929 . S
H1499 C1508 0.929 . S
C1500 H1494 0.930 . S
C1500 C1501 1.367 . S
C1500 C1508 1.378 . S
C1501 C1500 1.367 . S
C1501 C1509 1.433 . S
C1502 H1498 0.929 . S
C1502 C1504 1.378 . S
C1502 C1506 1.350 . S
C1503 C1506 1.463 . S
C1503 C1508 1.350 . S
C1503 N1511 1.427 . S
C1504 H1495 0.930 . S
C1504 C1502 1.378 . S
C1504 C1505 1.367 . S
C1505 C1504 1.367 . S
C1505 C1507 1.433 . S
C1506 C1502 1.350 . S
C1506 C1503 1.463 . S
C1506 N1510 1.427 . S
C1507 H1497 0.929 . S
C1507 C1505 1.433 . S
C1507 N1510 1.384 . S
C1508 H1499 0.929 . S
C1508 C1500 1.378 . S
C1508 C1503 1.350 . S
C1509 H1496 0.929 . S
C1509 C1501 1.433 . S
C1509 N1511 1.384 . S
N1510 C1506 1.427 . S
N1510 C1507 1.384 . S
N1511 C1503 1.427 . S
N1511 C1509 1.384 . S
H1512 C1518 0.930 . S
H1513 C1522 0.930 . S
H1514 C1527 0.929 . S
H1515 C1525 0.929 . S
H1516 C1520 0.929 . S
H1517 C1526 0.929 . S
C1518 H1512 0.930 . S
C1518 C1519 1.367 . S
C1518 C1526 1.378 . S
C1519 C1518 1.367 . S
C1519 C1527 1.433 . S
C1520 H1516 0.929 . S
C1520 C1522 1.378 . S
C1520 C1524 1.350 . S
C1521 C1524 1.463 . S
C1521 C1526 1.350 . S
C1521 N1529 1.427 . S
C1522 H1513 0.930 . S
C1522 C1520 1.378 . S
C1522 C1523 1.367 . S
C1523 C1522 1.367 . S
C1523 C1525 1.433 . S
C1524 C1520 1.350 . S
C1524 C1521 1.463 . S
C1524 N1528 1.427 . S
C1525 H1515 0.929 . S
C1525 C1523 1.433 . S
C1525 N1528 1.384 . S
C1526 H1517 0.929 . S
C1526 C1518 1.378 . S
C1526 C1521 1.350 . S
C1527 H1514 0.929 . S
C1527 C1519 1.433 . S
C1527 N1529 1.384 . S
N1528 C1524 1.427 . S
N1528 C1525 1.384 . S
N1529 C1521 1.427 . S
N1529 C1527 1.384 . S
H1530 C1536 0.930 . S
H1531 C1540 0.930 . S
H1532 C1545 0.929 . S
H1533 C1543 0.929 . S
H1534 C1538 0.929 . S
H1535 C1544 0.929 . S
C1536 H1530 0.930 . S
C1536 C1537 1.367 . S
C1536 C1544 1.378 . S
C1537 C1536 1.367 . S
C1537 C1545 1.433 . S
C1538 H1534 0.929 . S
C1538 C1540 1.378 . S
C1538 C1542 1.350 . S
C1539 C1542 1.463 . S
C1539 C1544 1.350 . S
C1539 N1547 1.427 . S
C1540 H1531 0.930 . S
C1540 C1538 1.378 . S
C1540 C1541 1.367 . S
C1541 C1540 1.367 . S
C1541 C1543 1.433 . S
C1542 C1538 1.350 . S
C1542 C1539 1.463 . S
C1542 N1546 1.427 . S
C1543 H1533 0.929 . S
C1543 C1541 1.433 . S
C1543 N1546 1.384 . S
C1544 H1535 0.929 . S
C1544 C1536 1.378 . S
C1544 C1539 1.350 . S
C1545 H1532 0.929 . S
C1545 C1537 1.433 . S
C1545 N1547 1.384 . S
N1546 C1542 1.427 . S
N1546 C1543 1.384 . S
N1547 C1539 1.427 . S
N1547 C1545 1.384 . S
H1548 C1554 0.930 . S
H1549 C1558 0.930 . S
H1550 C1563 0.929 . S
H1551 C1561 0.929 . S
H1552 C1556 0.929 . S
H1553 C1562 0.929 . S
C1554 H1548 0.930 . S
C1554 C1555 1.367 . S
C1554 C1562 1.378 . S
C1555 C1554 1.367 . S
C1555 C1563 1.433 . S
C1556 H1552 0.929 . S
C1556 C1558 1.378 . S
C1556 C1560 1.350 . S
C1557 C1560 1.463 . S
C1557 C1562 1.350 . S
C1557 N1565 1.427 . S
C1558 H1549 0.930 . S
C1558 C1556 1.378 . S
C1558 C1559 1.367 . S
C1559 C1558 1.367 . S
C1559 C1561 1.433 . S
C1560 C1556 1.350 . S
C1560 C1557 1.463 . S
C1560 N1564 1.427 . S
C1561 H1551 0.929 . S
C1561 C1559 1.433 . S
C1561 N1564 1.384 . S
C1562 H1553 0.929 . S
C1562 C1554 1.378 . S
C1562 C1557 1.350 . S
C1563 H1550 0.929 . S
C1563 C1555 1.433 . S
C1563 N1565 1.384 . S
N1564 C1560 1.427 . S
N1564 C1561 1.384 . S
N1565 C1557 1.427 . S
N1565 C1563 1.384 . S
H1566 C1572 0.930 . S
H1567 C1576 0.930 . S
H1568 C1581 0.929 . S
H1569 C1579 0.929 . S
H1570 C1574 0.929 . S
H1571 C1580 0.929 . S
C1572 H1566 0.930 . S
C1572 C1573 1.367 . S
C1572 C1580 1.378 . S
C1573 C1572 1.367 . S
C1573 C1581 1.433 . S
C1574 H1570 0.929 . S
C1574 C1576 1.378 . S
C1574 C1578 1.350 1_554 S
C1575 C1578 1.463 . S
C1575 C1580 1.350 . S
C1575 N1583 1.427 . S
C1576 H1567 0.930 . S
C1576 C1574 1.378 . S
C1576 C1577 1.367 . S
C1577 C1576 1.367 . S
C1577 C1579 1.433 1_554 S
C1578 C1574 1.350 1_556 S
C1578 C1575 1.463 . S
C1578 N1582 1.427 . S
C1579 H1569 0.929 . S
C1579 C1577 1.433 1_556 S
C1579 N1582 1.384 . S
C1580 H1571 0.929 . S
C1580 C1572 1.378 . S
C1580 C1575 1.350 . S
C1581 H1568 0.929 . S
C1581 C1573 1.433 . S
C1581 N1583 1.384 . S
N1582 C1578 1.427 . S
N1582 C1579 1.384 . S
N1583 C1575 1.427 . S
N1583 C1581 1.384 . S
H1584 C1590 0.930 . S
H1585 C1594 0.930 . S
H1586 C1599 0.929 . S
H1587 C1597 0.929 1_554 S
H1588 C1592 0.929 . S
H1589 C1598 0.929 . S
C1590 H1584 0.930 . S
C1590 C1591 1.367 . S
C1590 C1598 1.378 . S
C1591 C1590 1.367 . S
C1591 C1599 1.433 . S
C1592 H1588 0.929 . S
C1592 C1594 1.378 1_556 S
C1592 C1596 1.350 . S
C1593 C1596 1.463 . S
C1593 C1598 1.350 . S
C1593 N1601 1.427 . S
C1594 H1585 0.930 . S
C1594 C1592 1.378 1_554 S
C1594 C1595 1.367 . S
C1595 C1594 1.367 . S
C1595 C1597 1.433 1_554 S
C1596 C1592 1.350 . S
C1596 C1593 1.463 . S
C1596 N1600 1.427 . S
C1597 H1587 0.929 1_556 S
C1597 C1595 1.433 1_556 S
C1597 N1600 1.384 . S
C1598 H1589 0.929 . S
C1598 C1590 1.378 . S
C1598 C1593 1.350 . S
C1599 H1586 0.929 . S
C1599 C1591 1.433 . S
C1599 N1601 1.384 . S
N1600 C1596 1.427 . S
N1600 C1597 1.384 . S
N1601 C1593 1.427 . S
N1601 C1599 1.384 . S
H1602 C1608 0.930 . S
H1603 C1612 0.930 . S
H1604 C1617 0.929 . S
H1605 C1615 0.929 . S
H1606 C1610 0.929 . S
H1607 C1616 0.929 . S
C1608 H1602 0.930 . S
C1608 C1609 1.367 . S
C1608 C1616 1.378 . S
C1609 C1608 1.367 . S
C1609 C1617 1.433 . S
C1610 H1606 0.929 . S
C1610 C1612 1.378 . S
C1610 C1614 1.350 1_554 S
C1611 C1614 1.463 . S
C1611 C1616 1.350 . S
C1611 N1619 1.427 . S
C1612 H1603 0.930 . S
C1612 C1610 1.378 . S
C1612 C1613 1.367 . S
C1613 C1612 1.367 . S
C1613 C1615 1.433 . S
C1614 C1610 1.350 1_556 S
C1614 C1611 1.463 . S
C1614 N1618 1.427 . S
C1615 H1605 0.929 . S
C1615 C1613 1.433 . S
C1615 N1618 1.384 1_554 S
C1616 H1607 0.929 . S
C1616 C1608 1.378 . S
C1616 C1611 1.350 . S
C1617 H1604 0.929 . S
C1617 C1609 1.433 . S
C1617 N1619 1.384 . S
N1618 C1614 1.427 . S
N1618 C1615 1.384 1_556 S
N1619 C1611 1.427 . S
N1619 C1617 1.384 . S
H1620 C1626 0.930 . S
H1621 C1630 0.930 . S
H1622 C1635 0.929 . S
H1623 C1633 0.929 . S
H1624 C1628 0.929 . S
H1625 C1634 0.929 . S
C1626 H1620 0.930 . S
C1626 C1627 1.367 . S
C1626 C1634 1.378 . S
C1627 C1626 1.367 . S
C1627 C1635 1.433 . S
C1628 H1624 0.929 . S
C1628 C1630 1.378 . S
C1628 C1632 1.350 . S
C1629 C1632 1.463 . S
C1629 C1634 1.350 . S
C1629 N1637 1.427 . S
C1630 H1621 0.930 . S
C1630 C1628 1.378 . S
C1630 C1631 1.367 . S
C1631 C1630 1.367 . S
C1631 C1633 1.433 . S
C1632 C1628 1.350 . S
C1632 C1629 1.463 . S
C1632 N1636 1.427 . S
C1633 H1623 0.929 . S
C1633 C1631 1.433 . S
C1633 N1636 1.384 . S
C1634 H1625 0.929 . S
C1634 C1626 1.378 . S
C1634 C1629 1.350 . S
C1635 H1622 0.929 . S
C1635 C1627 1.433 . S
C1635 N1637 1.384 . S
N1636 C1632 1.427 . S
N1636 C1633 1.384 . S
N1637 C1629 1.427 . S
N1637 C1635 1.384 . S
H1638 C1644 0.930 . S
H1639 C1648 0.930 . S
H1640 C1653 0.929 . S
H1641 C1651 0.929 . S
H1642 C1646 0.929 . S
H1643 C1652 0.929 . S
C1644 H1638 0.930 . S
C1644 C1645 1.367 . S
C1644 C1652 1.378 . S
C1645 C1644 1.367 . S
C1645 C1653 1.433 . S
C1646 H1642 0.929 . S
C1646 C1648 1.378 . S
C1646 C1650 1.350 . S
C1647 C1650 1.463 . S
C1647 C1652 1.350 . S
C1647 N1655 1.427 . S
C1648 H1639 0.930 . S
C1648 C1646 1.378 . S
C1648 C1649 1.367 . S
C1649 C1648 1.367 . S
C1649 C1651 1.433 . S
C1650 C1646 1.350 . S
C1650 C1647 1.463 . S
C1650 N1654 1.427 . S
C1651 H1641 0.929 . S
C1651 C1649 1.433 . S
C1651 N1654 1.384 . S
C1652 H1643 0.929 . S
C1652 C1644 1.378 . S
C1652 C1647 1.350 . S
C1653 H1640 0.929 . S
C1653 C1645 1.433 . S
C1653 N1655 1.384 . S
N1654 C1650 1.427 . S
N1654 C1651 1.384 . S
N1655 C1647 1.427 . S
N1655 C1653 1.384 . S
H1656 C1662 0.930 . S
H1657 C1666 0.930 . S
H1658 C1671 0.929 . S
H1659 C1669 0.929 . S
H1660 C1664 0.929 . S
H1661 C1670 0.929 . S
C1662 H1656 0.930 . S
C1662 C1663 1.367 . S
C1662 C1670 1.378 . S
C1663 C1662 1.367 . S
C1663 C1671 1.433 . S
C1664 H1660 0.929 . S
C1664 C1666 1.378 . S
C1664 C1668 1.350 . S
C1665 C1668 1.463 . S
C1665 C1670 1.350 . S
C1665 N1673 1.427 . S
C1666 H1657 0.930 . S
C1666 C1664 1.378 . S
C1666 C1667 1.367 . S
C1667 C1666 1.367 . S
C1667 C1669 1.433 . S
C1668 C1664 1.350 . S
C1668 C1665 1.463 . S
C1668 N1672 1.427 . S
C1669 H1659 0.929 . S
C1669 C1667 1.433 . S
C1669 N1672 1.384 . S
C1670 H1661 0.929 . S
C1670 C1662 1.378 . S
C1670 C1665 1.350 . S
C1671 H1658 0.929 . S
C1671 C1663 1.433 . S
C1671 N1673 1.384 . S
N1672 C1668 1.427 . S
N1672 C1669 1.384 . S
N1673 C1665 1.427 . S
N1673 C1671 1.384 . S
H1674 C1680 0.930 . S
H1675 C1684 0.930 . S
H1676 C1689 0.929 . S
H1677 C1687 0.929 . S
H1678 C1682 0.929 . S
H1679 C1688 0.929 . S
C1680 H1674 0.930 . S
C1680 C1681 1.367 . S
C1680 C1688 1.378 . S
C1681 C1680 1.367 . S
C1681 C1689 1.433 . S
C1682 H1678 0.929 . S
C1682 C1684 1.378 . S
C1682 C1686 1.350 . S
C1683 C1686 1.463 . S
C1683 C1688 1.350 . S
C1683 N1691 1.427 . S
C1684 H1675 0.930 . S
C1684 C1682 1.378 . S
C1684 C1685 1.367 . S
C1685 C1684 1.367 . S
C1685 C1687 1.433 . S
C1686 C1682 1.350 . S
C1686 C1683 1.463 . S
C1686 N1690 1.427 . S
C1687 H1677 0.929 . S
C1687 C1685 1.433 . S
C1687 N1690 1.384 . S
C1688 H1679 0.929 . S
C1688 C1680 1.378 . S
C1688 C1683 1.350 . S
C1689 H1676 0.929 . S
C1689 C1681 1.433 . S
C1689 N1691 1.384 . S
N1690 C1686 1.427 . S
N1690 C1687 1.384 . S
N1691 C1683 1.427 . S
N1691 C1689 1.384 . S
H1692 C1698 0.930 . S
H1693 C1702 0.930 . S
H1694 C1707 0.929 . S
H1695 C1705 0.929 . S
H1696 C1700 0.929 . S
H1697 C1706 0.929 . S
C1698 H1692 0.930 . S
C1698 C1699 1.367 . S
C1698 C1706 1.378 . S
C1699 C1698 1.367 . S
C1699 C1707 1.433 . S
C1700 H1696 0.929 . S
C1700 C1702 1.378 . S
C1700 C1704 1.350 . S
C1701 C1704 1.463 . S
C1701 C1706 1.350 . S
C1701 N1709 1.427 . S
C1702 H1693 0.930 . S
C1702 C1700 1.378 . S
C1702 C1703 1.367 . S
C1703 C1702 1.367 . S
C1703 C1705 1.433 . S
C1704 C1700 1.350 . S
C1704 C1701 1.463 . S
C1704 N1708 1.427 . S
C1705 H1695 0.929 . S
C1705 C1703 1.433 . S
C1705 N1708 1.384 . S
C1706 H1697 0.929 . S
C1706 C1698 1.378 . S
C1706 C1701 1.350 . S
C1707 H1694 0.929 . S
C1707 C1699 1.433 . S
C1707 N1709 1.384 . S
N1708 C1704 1.427 . S
N1708 C1705 1.384 . S
N1709 C1701 1.427 . S
N1709 C1707 1.384 . S
H1710 C1716 0.930 . S
H1711 C1720 0.930 . S
H1712 C1725 0.929 . S
H1713 C1723 0.929 . S
H1714 C1718 0.929 . S
H1715 C1724 0.929 . S
C1716 H1710 0.930 . S
C1716 C1717 1.367 . S
C1716 C1724 1.378 . S
C1717 C1716 1.367 . S
C1717 C1725 1.433 . S
C1718 H1714 0.929 . S
C1718 C1720 1.378 . S
C1718 C1722 1.350 . S
C1719 C1722 1.463 . S
C1719 C1724 1.350 . S
C1719 N1727 1.427 . S
C1720 H1711 0.930 . S
C1720 C1718 1.378 . S
C1720 C1721 1.367 . S
C1721 C1720 1.367 . S
C1721 C1723 1.433 . S
C1722 C1718 1.350 . S
C1722 C1719 1.463 . S
C1722 N1726 1.427 . S
C1723 H1713 0.929 . S
C1723 C1721 1.433 . S
C1723 N1726 1.384 . S
C1724 H1715 0.929 . S
C1724 C1716 1.378 . S
C1724 C1719 1.350 . S
C1725 H1712 0.929 . S
C1725 C1717 1.433 . S
C1725 N1727 1.384 . S
N1726 C1722 1.427 . S
N1726 C1723 1.384 . S
N1727 C1719 1.427 . S
N1727 C1725 1.384 . S
H1728 C1734 0.930 . S
H1729 C1738 0.930 . S
H1730 C1743 0.929 . S
H1731 C1741 0.929 . S
H1732 C1736 0.929 . S
H1733 C1742 0.929 . S
C1734 H1728 0.930 . S
C1734 C1735 1.367 . S
C1734 C1742 1.378 . S
C1735 C1734 1.367 . S
C1735 C1743 1.433 . S
C1736 H1732 0.929 . S
C1736 C1738 1.378 . S
C1736 C1740 1.350 . S
C1737 C1740 1.463 . S
C1737 C1742 1.350 . S
C1737 N1745 1.427 . S
C1738 H1729 0.930 . S
C1738 C1736 1.378 . S
C1738 C1739 1.367 . S
C1739 C1738 1.367 . S
C1739 C1741 1.433 . S
C1740 C1736 1.350 . S
C1740 C1737 1.463 . S
C1740 N1744 1.427 . S
C1741 H1731 0.929 . S
C1741 C1739 1.433 . S
C1741 N1744 1.384 . S
C1742 H1733 0.929 . S
C1742 C1734 1.378 . S
C1742 C1737 1.350 . S
C1743 H1730 0.929 . S
C1743 C1735 1.433 . S
C1743 N1745 1.384 . S
N1744 C1740 1.427 . S
N1744 C1741 1.384 . S
N1745 C1737 1.427 . S
N1745 C1743 1.384 . S
H1746 C1752 0.930 . S
H1747 C1756 0.930 . S
H1748 C1761 0.929 . S
H1749 C1759 0.929 . S
H1750 C1754 0.929 . S
H1751 C1760 0.929 . S
C1752 H1746 0.930 . S
C1752 C1753 1.367 . S
C1752 C1760 1.378 . S
C1753 C1752 1.367 . S
C1753 C1761 1.433 . S
C1754 H1750 0.929 . S
C1754 C1756 1.378 . S
C1754 C1758 1.350 . S
C1755 C1758 1.463 . S
C1755 C1760 1.350 . S
C1755 N1763 1.427 . S
C1756 H1747 0.930 . S
C1756 C1754 1.378 . S
C1756 C1757 1.367 . S
C1757 C1756 1.367 . S
C1757 C1759 1.433 . S
C1758 C1754 1.350 . S
C1758 C1755 1.463 . S
C1758 N1762 1.427 . S
C1759 H1749 0.929 . S
C1759 C1757 1.433 . S
C1759 N1762 1.384 . S
C1760 H1751 0.929 . S
C1760 C1752 1.378 . S
C1760 C1755 1.350 . S
C1761 H1748 0.929 . S
C1761 C1753 1.433 . S
C1761 N1763 1.384 . S
N1762 C1758 1.427 . S
N1762 C1759 1.384 . S
N1763 C1755 1.427 . S
N1763 C1761 1.384 . S
H1764 C1770 0.930 . S
H1765 C1774 0.930 . S
H1766 C1779 0.929 . S
H1767 C1777 0.929 . S
H1768 C1772 0.929 . S
H1769 C1778 0.929 . S
C1770 H1764 0.930 . S
C1770 C1771 1.367 . S
C1770 C1778 1.378 . S
C1771 C1770 1.367 . S
C1771 C1779 1.433 . S
C1772 H1768 0.929 . S
C1772 C1774 1.378 . S
C1772 C1776 1.350 . S
C1773 C1776 1.463 . S
C1773 C1778 1.350 . S
C1773 N1781 1.427 . S
C1774 H1765 0.930 . S
C1774 C1772 1.378 . S
C1774 C1775 1.367 . S
C1775 C1774 1.367 . S
C1775 C1777 1.433 . S
C1776 C1772 1.350 . S
C1776 C1773 1.463 . S
C1776 N1780 1.427 . S
C1777 H1767 0.929 . S
C1777 C1775 1.433 . S
C1777 N1780 1.384 . S
C1778 H1769 0.929 . S
C1778 C1770 1.378 . S
C1778 C1773 1.350 . S
C1779 H1766 0.929 . S
C1779 C1771 1.433 . S
C1779 N1781 1.384 . S
N1780 C1776 1.427 . S
N1780 C1777 1.384 . S
N1781 C1773 1.427 . S
N1781 C1779 1.384 . S
H1782 C1788 0.930 . S
H1783 C1792 0.930 . S
H1784 C1797 0.929 . S
H1785 C1795 0.929 . S
H1786 C1790 0.929 . S
H1787 C1796 0.929 . S
C1788 H1782 0.930 . S
C1788 C1789 1.367 . S
C1788 C1796 1.378 . S
C1789 C1788 1.367 . S
C1789 C1797 1.433 . S
C1790 H1786 0.929 . S
C1790 C1792 1.378 . S
C1790 C1794 1.350 . S
C1791 C1794 1.463 . S
C1791 C1796 1.350 . S
C1791 N1799 1.427 . S
C1792 H1783 0.930 . S
C1792 C1790 1.378 . S
C1792 C1793 1.367 . S
C1793 C1792 1.367 . S
C1793 C1795 1.433 . S
C1794 C1790 1.350 . S
C1794 C1791 1.463 . S
C1794 N1798 1.427 . S
C1795 H1785 0.929 . S
C1795 C1793 1.433 . S
C1795 N1798 1.384 . S
C1796 H1787 0.929 . S
C1796 C1788 1.378 . S
C1796 C1791 1.350 . S
C1797 H1784 0.929 . S
C1797 C1789 1.433 . S
C1797 N1799 1.384 . S
N1798 C1794 1.427 . S
N1798 C1795 1.384 . S
N1799 C1791 1.427 . S
N1799 C1797 1.384 . S
H1800 C1806 0.930 . S
H1801 C1810 0.930 . S
H1802 C1815 0.929 . S
H1803 C1813 0.929 . S
H1804 C1808 0.929 . S
H1805 C1814 0.929 . S
C1806 H1800 0.930 . S
C1806 C1807 1.367 . S
C1806 C1814 1.378 . S
C1807 C1806 1.367 . S
C1807 C1815 1.433 . S
C1808 H1804 0.929 . S
C1808 C1810 1.378 . S
C1808 C1812 1.350 . S
C1809 C1812 1.463 . S
C1809 C1814 1.350 . S
C1809 N1817 1.427 . S
C1810 H1801 0.930 . S
C1810 C1808 1.378 . S
C1810 C1811 1.367 . S
C1811 C1810 1.367 . S
C1811 C1813 1.433 . S
C1812 C1808 1.350 . S
C1812 C1809 1.463 . S
C1812 N1816 1.427 . S
C1813 H1803 0.929 . S
C1813 C1811 1.433 . S
C1813 N1816 1.384 . S
C1814 H1805 0.929 . S
C1814 C1806 1.378 . S
C1814 C1809 1.350 . S
C1815 H1802 0.929 . S
C1815 C1807 1.433 . S
C1815 N1817 1.384 . S
N1816 C1812 1.427 . S
N1816 C1813 1.384 . S
N1817 C1809 1.427 . S
N1817 C1815 1.384 . S
H1818 C1824 0.930 . S
H1819 C1828 0.930 . S
H1820 C1833 0.929 . S
H1821 C1831 0.929 . S
H1822 C1826 0.929 . S
H1823 C1832 0.929 . S
C1824 H1818 0.930 . S
C1824 C1825 1.367 . S
C1824 C1832 1.378 . S
C1825 C1824 1.367 . S
C1825 C1833 1.433 . S
C1826 H1822 0.929 . S
C1826 C1828 1.378 . S
C1826 C1830 1.350 . S
C1827 C1830 1.463 . S
C1827 C1832 1.350 . S
C1827 N1835 1.427 . S
C1828 H1819 0.930 . S
C1828 C1826 1.378 . S
C1828 C1829 1.367 . S
C1829 C1828 1.367 . S
C1829 C1831 1.433 . S
C1830 C1826 1.350 . S
C1830 C1827 1.463 . S
C1830 N1834 1.427 . S
C1831 H1821 0.929 . S
C1831 C1829 1.433 . S
C1831 N1834 1.384 . S
C1832 H1823 0.929 . S
C1832 C1824 1.378 . S
C1832 C1827 1.350 . S
C1833 H1820 0.929 . S
C1833 C1825 1.433 . S
C1833 N1835 1.384 . S
N1834 C1830 1.427 . S
N1834 C1831 1.384 . S
N1835 C1827 1.427 . S
N1835 C1833 1.384 . S
H1836 C1842 0.930 . S
H1837 C1846 0.930 . S
H1838 C1851 0.929 . S
H1839 C1849 0.929 . S
H1840 C1844 0.929 . S
H1841 C1850 0.929 . S
C1842 H1836 0.930 . S
C1842 C1843 1.367 . S
C1842 C1850 1.378 . S
C1843 C1842 1.367 . S
C1843 C1851 1.433 . S
C1844 H1840 0.929 . S
C1844 C1846 1.378 . S
C1844 C1848 1.350 . S
C1845 C1848 1.463 . S
C1845 C1850 1.350 . S
C1845 N1853 1.427 . S
C1846 H1837 0.930 . S
C1846 C1844 1.378 . S
C1846 C1847 1.367 . S
C1847 C1846 1.367 . S
C1847 C1849 1.433 . S
C1848 C1844 1.350 . S
C1848 C1845 1.463 . S
C1848 N1852 1.427 . S
C1849 H1839 0.929 . S
C1849 C1847 1.433 . S
C1849 N1852 1.384 . S
C1850 H1841 0.929 . S
C1850 C1842 1.378 . S
C1850 C1845 1.350 . S
C1851 H1838 0.929 . S
C1851 C1843 1.433 . S
C1851 N1853 1.384 . S
N1852 C1848 1.427 . S
N1852 C1849 1.384 . S
N1853 C1845 1.427 . S
N1853 C1851 1.384 . S
H1854 C1860 0.930 . S
H1855 C1864 0.930 . S
H1856 C1869 0.929 . S
H1857 C1867 0.929 . S
H1858 C1862 0.929 . S
H1859 C1868 0.929 . S
C1860 H1854 0.930 . S
C1860 C1861 1.367 . S
C1860 C1868 1.378 . S
C1861 C1860 1.367 . S
C1861 C1869 1.433 . S
C1862 H1858 0.929 . S
C1862 C1864 1.378 . S
C1862 C1866 1.350 . S
C1863 C1866 1.463 . S
C1863 C1868 1.350 . S
C1863 N1871 1.427 . S
C1864 H1855 0.930 . S
C1864 C1862 1.378 . S
C1864 C1865 1.367 . S
C1865 C1864 1.367 . S
C1865 C1867 1.433 . S
C1866 C1862 1.350 . S
C1866 C1863 1.463 . S
C1866 N1870 1.427 . S
C1867 H1857 0.929 . S
C1867 C1865 1.433 . S
C1867 N1870 1.384 . S
C1868 H1859 0.929 . S
C1868 C1860 1.378 . S
C1868 C1863 1.350 . S
C1869 H1856 0.929 . S
C1869 C1861 1.433 . S
C1869 N1871 1.384 . S
N1870 C1866 1.427 . S
N1870 C1867 1.384 . S
N1871 C1863 1.427 . S
N1871 C1869 1.384 . S
H1872 C1878 0.930 . S
H1873 C1882 0.930 . S
H1874 C1887 0.929 . S
H1875 C1885 0.929 . S
H1876 C1880 0.929 . S
H1877 C1886 0.929 . S
C1878 H1872 0.930 . S
C1878 C1879 1.367 . S
C1878 C1886 1.378 . S
C1879 C1878 1.367 . S
C1879 C1887 1.433 . S
C1880 H1876 0.929 . S
C1880 C1882 1.378 . S
C1880 C1884 1.350 . S
C1881 C1884 1.463 . S
C1881 C1886 1.350 . S
C1881 N1889 1.427 . S
C1882 H1873 0.930 . S
C1882 C1880 1.378 . S
C1882 C1883 1.367 . S
C1883 C1882 1.367 . S
C1883 C1885 1.433 . S
C1884 C1880 1.350 . S
C1884 C1881 1.463 . S
C1884 N1888 1.427 . S
C1885 H1875 0.929 . S
C1885 C1883 1.433 . S
C1885 N1888 1.384 . S
C1886 H1877 0.929 . S
C1886 C1878 1.378 . S
C1886 C1881 1.350 . S
C1887 H1874 0.929 . S
C1887 C1879 1.433 . S
C1887 N1889 1.384 . S
N1888 C1884 1.427 . S
N1888 C1885 1.384 . S
N1889 C1881 1.427 . S
N1889 C1887 1.384 . S
H1890 C1896 0.930 . S
H1891 C1900 0.930 . S
H1892 C1905 0.929 . S
H1893 C1903 0.929 . S
H1894 C1898 0.929 . S
H1895 C1904 0.929 . S
C1896 H1890 0.930 . S
C1896 C1897 1.367 . S
C1896 C1904 1.378 . S
C1897 C1896 1.367 . S
C1897 C1905 1.433 . S
C1898 H1894 0.929 . S
C1898 C1900 1.378 . S
C1898 C1902 1.350 1_556 S
C1899 C1902 1.463 . S
C1899 C1904 1.350 . S
C1899 N1907 1.427 . S
C1900 H1891 0.930 . S
C1900 C1898 1.378 . S
C1900 C1901 1.367 . S
C1901 C1900 1.367 . S
C1901 C1903 1.433 . S
C1902 C1898 1.350 1_554 S
C1902 C1899 1.463 . S
C1902 N1906 1.427 . S
C1903 H1893 0.929 . S
C1903 C1901 1.433 . S
C1903 N1906 1.384 1_556 S
C1904 H1895 0.929 . S
C1904 C1896 1.378 . S
C1904 C1899 1.350 . S
C1905 H1892 0.929 . S
C1905 C1897 1.433 . S
C1905 N1907 1.384 . S
N1906 C1902 1.427 . S
N1906 C1903 1.384 1_554 S
N1907 C1899 1.427 . S
N1907 C1905 1.384 . S
H1908 C1914 0.930 . S
H1909 C1918 0.940 . S
H1910 C1923 0.929 . S
H1911 C1921 0.929 . S
H1912 C1916 0.929 . S
H1913 C1922 0.929 . S
C1914 H1908 0.930 . S
C1914 C1915 1.367 . S
C1914 C1922 1.378 . S
C1915 C1914 1.367 . S
C1915 C1923 1.433 . S
C1916 H1912 0.929 . S
C1916 C1918 1.378 . S
C1916 C1920 1.350 . S
C1917 C1920 1.463 . S
C1917 C1922 1.350 . S
C1917 N1925 1.427 . S
C1918 H1909 0.940 . S
C1918 C1916 1.378 . S
C1918 C1919 1.367 1_554 S
C1919 C1918 1.367 1_556 S
C1919 C1921 1.433 1_556 S
C1920 C1916 1.350 . S
C1920 C1917 1.463 . S
C1920 N1924 1.427 . S
C1921 H1911 0.929 . S
C1921 C1919 1.433 1_554 S
C1921 N1924 1.384 . S
C1922 H1913 0.929 . S
C1922 C1914 1.378 . S
C1922 C1917 1.350 . S
C1923 H1910 0.929 . S
C1923 C1915 1.433 . S
C1923 N1925 1.384 . S
N1924 C1920 1.427 . S
N1924 C1921 1.384 . S
N1925 C1917 1.427 . S
N1925 C1923 1.384 . S
H1926 C1932 0.930 . S
H1927 C1936 0.930 . S
H1928 C1941 0.929 . S
H1929 C1939 0.929 . S
H1930 C1934 0.929 . S
H1931 C1940 0.929 . S
C1932 H1926 0.930 . S
C1932 C1933 1.367 . S
C1932 C1940 1.378 . S
C1933 C1932 1.367 . S
C1933 C1941 1.433 . S
C1934 H1930 0.929 . S
C1934 C1936 1.378 . S
C1934 C1938 1.350 . S
C1935 C1938 1.463 . S
C1935 C1940 1.350 . S
C1935 N1943 1.427 . S
C1936 H1927 0.930 . S
C1936 C1934 1.378 . S
C1936 C1937 1.367 1_554 S
C1937 C1936 1.367 1_556 S
C1937 C1939 1.433 . S
C1938 C1934 1.350 . S
C1938 C1935 1.463 . S
C1938 N1942 1.427 1_554 S
C1939 H1929 0.929 . S
C1939 C1937 1.433 . S
C1939 N1942 1.384 . S
C1940 H1931 0.929 . S
C1940 C1932 1.378 . S
C1940 C1935 1.350 . S
C1941 H1928 0.929 . S
C1941 C1933 1.433 . S
C1941 N1943 1.384 . S
N1942 C1938 1.427 1_556 S
N1942 C1939 1.384 . S
N1943 C1935 1.427 . S
N1943 C1941 1.384 . S
C655 C7 1.347 . S
C659 C565 1.318 . S
C677 C536 1.716 . S
C673 C39 1.756 . S
C695 C552 1.493 . S
C691 C62 1.530 . S
C709 C76 1.697 . S
C713 C617 1.635 . S
C727 C108 1.342 . S
C731 C627 1.314 . S
C745 N117 1.211 . S
C749 C640 1.183 . S
C767 C596 1.341 . S
C763 C16 1.353 . S
C781 C30 1.811 . S
C785 C575 1.769 . S
C803 C593 1.503 . S
C799 C53 1.494 . S
C817 C85 1.774 . S
C821 C502 1.762 1_545 S
C839 C510 1.569 . S
C835 C99 1.610 . S
C853 N127 1.189 . S
C857 C526 1.190 . S
C871 N150 1.100 . S
C875 C643 1.089 . S
C893 C614 1.488 . S
C889 N173 1.503 . S
C911 C630 1.360 . S
C907 C200 1.386 . S
C925 C214 1.509 . S
C929 C461 1.463 . S
C943 N232 1.403 . S
C947 C471 1.385 . S
C961 C260 1.359 . S
C965 C484 1.330 . S
C983 C440 1.195 . S
C979 N140 1.163 . S
C997 N163 1.260 . S
C1001 C419 1.273 . S
C1019 C437 1.594 . S
C1015 C191 1.588 . S
C1037 C580 1.861 . S
C1033 C223 1.860 . S
C1055 C588 1.357 . S
C1051 N242 1.330 . S
C1073 C604 1.379 . S
C1069 C269 1.418 . S
C1087 N288 1.236 . S
C1091 C487 1.228 . S
C1105 C315 1.478 . S
C1109 C458 1.462 . S
C1123 C338 1.596 . S
C1127 C474 1.560 . S
C1141 C352 1.701 . S
C1145 C539 1.641 . S
C1163 C549 1.431 . S
C1159 N370 1.450 . S
C1181 C562 1.391 1_655 S
C1177 C398 1.414 . S
C1199 C518 1.150 . S
C1195 N278 1.131 . S
C1213 C306 1.724 . S
C1217 C497 1.672 . S
C1231 C329 1.590 . S
C1235 C515 1.597 1_655 S
C1253 C424 1.508 . S
C1249 C361 1.506 . S
C1267 N380 1.393 . S
C1271 C432 1.408 . S
C1289 C448 1.343 . S
C1285 C407 1.378 . S
C1307 C453 1.359 . S
C1303 N12 1.345 . S
C1321 N25 1.512 . S
C1325 C476 1.532 . S
C1343 C489 1.255 . S
C1339 N48 1.237 . S
C1361 C479 1.245 . S
C1357 N81 1.255 . S
C1379 C463 1.492 . S
C1375 N94 1.472 . S
C1397 C466 1.436 . S
C1393 C131 1.459 . S
C1415 C414 1.324 . S
C1411 N2 1.340 . S
C1429 N35 1.434 . S
C1433 C435 1.424 . S
C1447 N58 1.213 . S
C1451 C445 1.239 . S
C1469 C450 1.248 . S
C1465 N71 1.218 . S
C1487 C422 1.284 . S
C1483 N104 1.311 . S
C1505 C427 1.463 . S
C1501 C122 1.498 . S
C1519 C145 1.976 . S
C1523 C531 1.943 . S
C1537 C168 1.669 . S
C1541 C554 1.682 . S
C1555 N186 1.344 . S
C1559 C567 1.358 . S
C1577 C557 1.200 . S
C1573 N219 1.225 . S
C1595 C541 1.747 . S
C1591 C246 1.745 . S
C1613 C544 1.369 . S
C1609 N265 1.371 . S
C1631 C492 1.816 . S
C1627 C154 1.855 . S
C1645 C177 1.761 . S
C1649 C513 1.723 . S
C1663 N196 1.190 . S
C1667 C523 1.204 . S
C1681 N209 1.076 . S
C1685 C528 1.097 . S
C1699 C237 1.794 . S
C1703 C500 1.733 . S
C1721 C505 1.335 . S
C1717 N255 1.339 . S
C1735 C283 1.717 . S
C1739 C609 1.687 . S
C1753 N301 1.397 . S
C1757 C632 1.410 . S
C1771 N324 1.226 . S
C1775 C645 1.241 . S
C1793 C635 1.072 . S
C1789 N357 1.070 . S
C1811 C619 1.735 . S
C1807 C384 1.735 . S
C1825 N403 1.203 . S
C1829 C622 1.210 . S
C1843 C292 1.810 . S
C1847 C570 1.760 . S
C1865 C591 1.296 . S
C1861 N311 1.311 . S
C1879 N334 1.307 . S
C1883 C601 1.331 . S
C1897 N347 1.267 . S
C1901 C606 1.289 . S
C1919 C578 1.801 . S
C1915 C375 1.850 . S
C1933 N393 1.260 . S
C1937 C583 1.261 . S
