# Generated by pormake.
# Topology soc, (4,6)-cn, num edge types: 1
# Building blocks:
#     Node 0, Type 0, BuildingBlock: ESEHIV_clean_sbu_0, # of connection points: 4
#     Node 1, Type 0, BuildingBlock: ESEHIV_clean_sbu_0, # of connection points: 4
#     Node 2, Type 0, BuildingBlock: ESEHIV_clean_sbu_0, # of connection points: 4
#     Node 3, Type 0, BuildingBlock: ESEHIV_clean_sbu_0, # of connection points: 4
#     Node 4, Type 0, BuildingBlock: ESEHIV_clean_sbu_0, # of connection points: 4
#     Node 5, Type 0, BuildingBlock: ESEHIV_clean_sbu_0, # of connection points: 4
#     Node 6, Type 0, BuildingBlock: ESEHIV_clean_sbu_0, # of connection points: 4
#     Node 7, Type 0, BuildingBlock: ESEHIV_clean_sbu_0, # of connection points: 4
#     Node 8, Type 0, BuildingBlock: ESEHIV_clean_sbu_0, # of connection points: 4
#     Node 9, Type 0, BuildingBlock: ESEHIV_clean_sbu_0, # of connection points: 4
#     Node 10, Type 0, BuildingBlock: ESEHIV_clean_sbu_0, # of connection points: 4
#     Node 11, Type 0, BuildingBlock: ESEHIV_clean_sbu_0, # of connection points: 4
#     Node 12, Type 1, BuildingBlock: GEDQOX_clean_sbu_0, # of connection points: 6
#     Node 13, Type 1, BuildingBlock: GEDQOX_clean_sbu_0, # of connection points: 6
#     Node 14, Type 1, BuildingBlock: GEDQOX_clean_sbu_0, # of connection points: 6
#     Node 15, Type 1, BuildingBlock: GEDQOX_clean_sbu_0, # of connection points: 6
#     Node 16, Type 1, BuildingBlock: GEDQOX_clean_sbu_0, # of connection points: 6
#     Node 17, Type 1, BuildingBlock: GEDQOX_clean_sbu_0, # of connection points: 6
#     Node 18, Type 1, BuildingBlock: GEDQOX_clean_sbu_0, # of connection points: 6
#     Node 19, Type 1, BuildingBlock: GEDQOX_clean_sbu_0, # of connection points: 6
#     Edge 20, Type (0, 1), BuildingBlock: CIFDUS_clean_linker_0, # of connection points: 2
#     Edge 21, Type (0, 1), BuildingBlock: CIFDUS_clean_linker_0, # of connection points: 2
#     Edge 22, Type (0, 1), BuildingBlock: CIFDUS_clean_linker_0, # of connection points: 2
#     Edge 23, Type (0, 1), BuildingBlock: CIFDUS_clean_linker_0, # of connection points: 2
#     Edge 24, Type (0, 1), BuildingBlock: CIFDUS_clean_linker_0, # of connection points: 2
#     Edge 25, Type (0, 1), BuildingBlock: CIFDUS_clean_linker_0, # of connection points: 2
#     Edge 26, Type (0, 1), BuildingBlock: CIFDUS_clean_linker_0, # of connection points: 2
#     Edge 27, Type (0, 1), BuildingBlock: CIFDUS_clean_linker_0, # of connection points: 2
#     Edge 28, Type (0, 1), BuildingBlock: CIFDUS_clean_linker_0, # of connection points: 2
#     Edge 29, Type (0, 1), BuildingBlock: CIFDUS_clean_linker_0, # of connection points: 2
#     Edge 30, Type (0, 1), BuildingBlock: CIFDUS_clean_linker_0, # of connection points: 2
#     Edge 31, Type (0, 1), BuildingBlock: CIFDUS_clean_linker_0, # of connection points: 2
#     Edge 32, Type (0, 1), BuildingBlock: CIFDUS_clean_linker_0, # of connection points: 2
#     Edge 33, Type (0, 1), BuildingBlock: CIFDUS_clean_linker_0, # of connection points: 2
#     Edge 34, Type (0, 1), BuildingBlock: CIFDUS_clean_linker_0, # of connection points: 2
#     Edge 35, Type (0, 1), BuildingBlock: CIFDUS_clean_linker_0, # of connection points: 2
#     Edge 36, Type (0, 1), BuildingBlock: CIFDUS_clean_linker_0, # of connection points: 2
#     Edge 37, Type (0, 1), BuildingBlock: CIFDUS_clean_linker_0, # of connection points: 2
#     Edge 38, Type (0, 1), BuildingBlock: CIFDUS_clean_linker_0, # of connection points: 2
#     Edge 39, Type (0, 1), BuildingBlock: CIFDUS_clean_linker_0, # of connection points: 2
#     Edge 40, Type (0, 1), BuildingBlock: CIFDUS_clean_linker_0, # of connection points: 2
#     Edge 41, Type (0, 1), BuildingBlock: CIFDUS_clean_linker_0, # of connection points: 2
#     Edge 42, Type (0, 1), BuildingBlock: CIFDUS_clean_linker_0, # of connection points: 2
#     Edge 43, Type (0, 1), BuildingBlock: CIFDUS_clean_linker_0, # of connection points: 2
#     Edge 44, Type (0, 1), BuildingBlock: CIFDUS_clean_linker_0, # of connection points: 2
#     Edge 45, Type (0, 1), BuildingBlock: CIFDUS_clean_linker_0, # of connection points: 2
#     Edge 46, Type (0, 1), BuildingBlock: CIFDUS_clean_linker_0, # of connection points: 2
#     Edge 47, Type (0, 1), BuildingBlock: CIFDUS_clean_linker_0, # of connection points: 2
#     Edge 48, Type (0, 1), BuildingBlock: CIFDUS_clean_linker_0, # of connection points: 2
#     Edge 49, Type (0, 1), BuildingBlock: CIFDUS_clean_linker_0, # of connection points: 2
#     Edge 50, Type (0, 1), BuildingBlock: CIFDUS_clean_linker_0, # of connection points: 2
#     Edge 51, Type (0, 1), BuildingBlock: CIFDUS_clean_linker_0, # of connection points: 2
#     Edge 52, Type (0, 1), BuildingBlock: CIFDUS_clean_linker_0, # of connection points: 2
#     Edge 53, Type (0, 1), BuildingBlock: CIFDUS_clean_linker_0, # of connection points: 2
#     Edge 54, Type (0, 1), BuildingBlock: CIFDUS_clean_linker_0, # of connection points: 2
#     Edge 55, Type (0, 1), BuildingBlock: CIFDUS_clean_linker_0, # of connection points: 2
#     Edge 56, Type (0, 1), BuildingBlock: CIFDUS_clean_linker_0, # of connection points: 2
#     Edge 57, Type (0, 1), BuildingBlock: CIFDUS_clean_linker_0, # of connection points: 2
#     Edge 58, Type (0, 1), BuildingBlock: CIFDUS_clean_linker_0, # of connection points: 2
#     Edge 59, Type (0, 1), BuildingBlock: CIFDUS_clean_linker_0, # of connection points: 2
#     Edge 60, Type (0, 1), BuildingBlock: CIFDUS_clean_linker_0, # of connection points: 2
#     Edge 61, Type (0, 1), BuildingBlock: CIFDUS_clean_linker_0, # of connection points: 2
#     Edge 62, Type (0, 1), BuildingBlock: CIFDUS_clean_linker_0, # of connection points: 2
#     Edge 63, Type (0, 1), BuildingBlock: CIFDUS_clean_linker_0, # of connection points: 2
#     Edge 64, Type (0, 1), BuildingBlock: CIFDUS_clean_linker_0, # of connection points: 2
#     Edge 65, Type (0, 1), BuildingBlock: CIFDUS_clean_linker_0, # of connection points: 2
#     Edge 66, Type (0, 1), BuildingBlock: CIFDUS_clean_linker_0, # of connection points: 2
#     Edge 67, Type (0, 1), BuildingBlock: CIFDUS_clean_linker_0, # of connection points: 2
# Relax obj value: 0.232
# Max RMSD: 0.252
# Mean RMSD: 0.185
data_MOF--net-soc--node1-ESEHIV_clean_sbu_0--node2-GEDQOX_clean_sbu_0--edge1-CIFDUS_clean_linker_0
_symmetry_space_group_name_H-M    P1
_symmetry_Int_Tables_number       1
_symmetry_cell_setting            triclinic
loop_
_symmetry_equiv_pos_as_xyz
'x, y, z'
_cell_length_a     38.891031
_cell_length_b     41.423217
_cell_length_c     47.547755
_cell_angle_alpha  95.284506
_cell_angle_beta   106.04491
_cell_angle_gamma 84.123683
loop_
_atom_site_label
_atom_site_type_symbol
_atom_site_fract_x
_atom_site_fract_y
_atom_site_fract_z
_atom_type_partial_charge
Cu0 Cu 0.06942 0.12109 0.31529 0.0
N1 N 0.10215 0.15271 0.33629 0.0
N2 N 0.13875 0.19383 0.34133 0.0
C3 C 0.12296 0.16839 0.32392 0.0
C4 C 0.1273 0.19392 0.36576 0.0
C5 C 0.10493 0.16895 0.36259 0.0
O6 O 0.10228 0.08968 0.29675 0.0
C7 C 1.01074 0.16866 0.31023 0.0
O8 O 1.01882 0.16295 0.33809 0.0
H9 H 0.12494 0.16219 0.30179 0.0
H10 H 0.09049 0.16399 0.37795 0.0
N11 N 1.04751 0.09483 0.33634 0.0
N12 N 1.0134 0.05742 0.34556 0.0
C13 C 1.02121 0.07392 0.32482 0.0
C14 C 0.05625 0.09142 0.36537 0.0
C15 C 1.0355 0.06884 0.37104 0.0
C16 C 0.10718 0.05877 0.3 0.0
O17 O 0.08524 0.04529 0.31107 0.0
H18 H 1.00848 0.07051 0.30155 0.0
H19 H 0.07686 0.10402 0.38138 0.0
O20 O 1.02859 0.15169 0.29394 0.0
H21 H 0.13411 0.21113 0.3846 0.0
H22 H 1.03738 0.06081 0.39248 0.0
Cu23 Cu 0.06404 0.10987 0.80273 0.0
N24 N 1.03008 0.07709 0.79825 0.0
N25 N 0.98585 0.04342 0.79471 0.0
C26 C 0.99862 0.06555 0.78101 0.0
C27 C 1.01013 0.04098 0.82088 0.0
C28 C 1.03652 0.06117 0.82288 0.0
O29 O 1.04152 0.14902 0.82168 0.0
C30 C 0.11744 0.05863 0.8035 0.0
O31 O 0.09382 0.05396 0.77802 0.0
H32 H 0.98456 0.07418 0.75973 0.0
H33 H 0.05886 0.065 0.84196 0.0
N34 N 0.07887 0.13112 0.7745 0.0
N35 N 0.11053 0.16751 0.76103 0.0
C36 C 0.10639 0.15093 0.7831 0.0
C37 C 0.06498 0.13519 0.74576 0.0
C38 C 0.08436 0.15731 0.73745 0.0
C39 C 1.00951 0.15924 0.80727 0.0
O40 O 0.99402 0.14207 0.78333 0.0
H41 H 0.12201 0.15425 0.80569 0.0
H42 H 1.04169 0.1239 0.732 0.0
O43 O 0.1107 0.08342 0.82035 0.0
H44 H 1.00867 1.02576 0.83779 0.0
H45 H 0.07893 0.16557 0.7156 0.0
Cu46 Cu 0.2634 0.04814 0.0064 0.0
N47 N 0.30166 1.01675 0.01718 0.0
N48 N 0.33134 0.96875 0.01099 0.0
C49 C 0.29927 0.98606 0.00556 0.0
C50 C 0.35513 0.98953 0.02691 0.0
C51 C 0.33662 1.01923 0.03087 0.0
O52 O 0.21968 1.02514 0.9912 0.0
C53 C 0.25089 0.0921 0.96112 0.0
O54 O 0.21701 0.09299 0.96107 0.0
H55 H 0.27495 0.97769 0.99057 0.0
H56 H 0.34817 0.04158 0.04082 0.0
N57 N 0.25648 0.07826 0.03623 0.0
N58 N 0.26396 0.11191 0.07631 0.0
C59 C 0.28048 0.09199 0.05907 0.0
C60 C 0.22396 0.08966 0.03915 0.0
C61 C 0.22844 0.11038 0.06386 0.0
C62 C 0.20585 1.00336 0.00126 0.0
O63 O 0.17594 0.9924 0.98441 0.0
H64 H 0.30926 0.0876 0.06284 0.0
H65 H 0.19875 0.08288 0.02446 0.0
O66 O 0.27392 0.07312 0.97762 0.0
H67 H 0.38399 0.98441 0.03325 0.0
H68 H 0.20716 0.12288 0.07228 0.0
Cu69 Cu 0.12078 0.39616 0.03729 0.0
N70 N 0.14884 0.41042 0.01348 0.0
N71 N 0.17833 0.40817 0.97771 0.0
C72 C 0.16026 0.39174 0.99209 0.0
C73 C 0.17806 0.43857 0.99089 0.0
C74 C 0.16008 0.43988 0.01256 0.0
O75 O 0.15558 0.37444 0.07129 0.0
C76 C 0.05599 0.35966 0.0072 0.0
O77 O 0.05691 0.3465 0.03152 0.0
H78 H 0.15508 0.3664 0.98715 0.0
H79 H 0.15511 0.4611 0.02635 0.0
N80 N 0.09523 0.42802 0.05731 0.0
N81 N 0.06076 0.44346 0.08848 0.0
C82 C 0.06713 0.42151 0.06715 0.0
C83 C 0.10657 0.45565 0.07271 0.0
C84 C 0.08531 0.46533 0.09158 0.0
C85 C 0.14752 0.36857 0.0947 0.0
O86 O 0.11353 0.36766 0.09351 0.0
H87 H 0.05335 0.39965 0.06047 0.0
H88 H 0.13055 0.46646 0.07224 0.0
O89 O 0.0816 0.37627 0.00651 0.0
H90 H 0.18932 0.45895 0.985 0.0
H91 H 0.08959 0.48552 0.10797 0.0
Cu92 Cu 0.77899 0.11227 0.1087 0.0
N93 N 0.74366 0.12832 0.0762 0.0
N94 N 0.72105 0.15437 0.03499 0.0
C95 C 0.74651 0.15316 0.06074 0.0
C96 C 0.70072 0.12967 0.03429 0.0
C97 C 0.71451 0.11385 0.05983 0.0
O98 O 0.78436 0.14476 0.14191 0.0
C99 C 0.83448 0.11217 0.07872 0.0
O100 O 0.82963 0.14396 0.07869 0.0
H101 H 0.76842 0.16854 0.06679 0.0
H102 H 0.70521 0.09207 0.06511 0.0
N103 N 0.76555 0.07408 0.11957 0.0
N104 N 0.76351 1.03336 0.14699 0.0
C105 C 0.77083 0.06468 0.14696 0.0
C106 C 0.75495 0.04778 0.10166 0.0
C107 C 0.75334 1.02282 0.11839 0.0
C108 C 0.7909 0.17404 0.1408 0.0
O109 O 0.79955 0.18238 0.11788 0.0
H110 H 0.78173 0.08003 0.16642 0.0
H111 H 0.75033 0.04636 0.0781 0.0
O112 O 0.82122 0.09738 0.09508 0.0
H113 H 0.67877 0.12245 0.01594 0.0
H114 H 0.74592 0.99861 0.11 0.0
Cu115 Cu 0.05234 0.80895 0.03807 0.0
N116 N 1.01545 0.79173 0.00772 0.0
N117 N 0.97025 0.79115 0.96636 0.0
C118 C 0.99077 0.80972 0.98825 0.0
C119 C 0.98255 0.76015 0.97243 0.0
C120 C 1.0104 0.7606 -0.00207 0.0
O121 O 1.03243 0.8467 0.05668 0.0
C122 C 0.09918 0.84525 0.0181 0.0
O123 O 0.08097 0.87217 0.02428 0.0
H124 H 0.98913 0.83603 0.98939 0.0
H125 H 1.02659 0.73976 0.00803 0.0
N126 N 0.07526 0.78165 0.06811 0.0
N127 N 0.11769 0.77134 0.10964 0.0
C128 C 0.10934 0.78535 0.08389 0.0
C129 C 0.0615 0.76422 0.08434 0.0
C130 C 0.08781 0.75761 0.10998 0.0
C131 C 0.05116 0.862 0.07919 0.0
O132 O 0.08627 0.85679 0.08607 0.0
H133 H 0.12659 0.80094 0.07797 0.0
H134 H 1.03352 0.75954 0.07936 0.0
O135 O 0.08974 0.81786 0.02164 0.0
H136 H 0.97252 0.73868 0.95919 0.0
H137 H 0.08414 0.74656 0.12861 0.0
Cu138 Cu 0.56572 0.6074 0.81856 0.0
N139 N 0.58508 0.63422 0.79667 0.0
N140 N 0.61685 0.67456 0.78958 0.0
C141 C 0.60741 0.65788 0.80934 0.0
C142 C 0.59947 0.66049 0.76331 0.0
C143 C 0.58007 0.63596 0.7677 0.0
O144 O 0.60846 0.57817 0.83873 0.0
C145 C 0.51273 0.65664 0.81951 0.0
O146 O 0.50788 0.64681 0.79173 0.0
H147 H 0.61605 0.66296 0.83284 0.0
H148 H 0.56343 0.62059 0.75086 0.0
N149 N 0.53 0.57732 0.79951 0.0
N150 N 0.4893 0.53991 0.79521 0.0
C151 C 0.51684 0.55596 0.81338 0.0
C152 C 0.51011 0.57438 0.77144 0.0
C153 C 0.48528 0.55169 0.76878 0.0
C154 C 0.62718 0.56337 0.8221 0.0
O155 O 0.61761 0.56954 0.79428 0.0
H156 H 0.52664 0.55301 0.8367 0.0
H157 H 0.51277 0.58833 0.75413 0.0
O158 O 0.53855 0.64191 0.83836 0.0
H159 H 0.60064 0.66713 0.74214 0.0
H160 H 0.46572 0.54445 0.74872 0.0
Cu161 Cu 0.5688 0.61854 0.30163 0.0
N162 N 0.53161 0.59021 0.28235 0.0
N163 N 0.48987 0.55433 0.27972 0.0
C164 C 0.50873 0.57896 0.29572 0.0
C165 C 0.50148 0.55011 0.25518 0.0
C166 C 0.527 0.5719 0.2569 0.0
O167 O 0.5424 0.65393 0.32158 0.0
C168 C 0.62545 0.56879 0.30327 0.0
O169 O 0.61785 0.57675 0.27602 0.0
H170 H 0.50747 0.58756 0.31763 0.0
H171 H 0.54232 0.57315 0.24125 0.0
N172 N 0.59112 0.64467 0.28097 0.0
N173 N 0.62651 0.68303 0.27522 0.0
C174 C 0.61504 0.66698 0.29436 0.0
C175 C 0.58714 0.64681 0.25216 0.0
C176 C 0.60874 0.67006 0.2486 0.0
C177 C 0.51398 0.66735 0.30413 0.0
O178 O 0.50485 0.65559 0.27671 0.0
H179 H 0.6239 0.67121 0.31795 0.0
H180 H 0.56955 0.63268 0.23486 0.0
O181 O 0.60852 0.58526 0.32052 0.0
H182 H 0.49275 0.53208 0.23731 0.0
H183 H 0.6105 0.67719 0.22776 0.0
Cu184 Cu 0.84802 0.61396 0.48648 0.0
N185 N 0.86176 0.63699 0.45912 0.0
N186 N 0.87411 0.67441 0.43283 0.0
C187 C 0.87709 0.66528 0.4601 0.0
C188 C 0.8563 0.6516 0.41416 0.0
C189 C 0.84881 0.62884 0.43028 0.0
O190 O 0.81567 0.64092 0.50489 0.0
C191 C 0.85204 0.55262 0.46086 0.0
O192 O 0.88603 0.5563 0.47363 0.0
H193 H 0.88853 0.67977 0.47994 0.0
H194 H 0.83254 0.60884 0.42143 0.0
N195 N 0.88275 0.59817 0.51936 0.0
N196 N 0.90101 0.57169 0.5607 0.0
C197 C 0.87293 0.58154 0.53857 0.0
C198 C 0.91851 0.59919 0.52963 0.0
C199 C 0.92989 0.58268 0.55511 0.0
C200 C 0.83341 0.66216 0.52242 0.0
O201 O 0.86546 0.66656 0.52022 0.0
H202 H 0.84547 0.57625 0.53587 0.0
H203 H 0.93506 0.61085 0.51932 0.0
O204 O 0.82844 0.5754 0.46389 0.0
H205 H 0.84759 0.6524 0.39052 0.0
H206 H 0.95726 0.57931 0.56854 0.0
Cu207 Cu 0.54565 0.97092 0.55745 0.0
N208 N 0.5681 1.00222 0.54564 0.0
N209 N 0.60086 1.01744 0.51833 0.0
C210 C 0.59683 0.9947 0.53539 0.0
C211 C 0.57382 0.04062 0.51828 0.0
C212 C 0.55355 1.03112 0.53527 0.0
O213 O 0.58376 0.94627 0.5861 0.0
C214 C 0.49718 0.92876 0.51326 0.0
O215 O 0.48871 0.91587 0.53442 0.0
H216 H 0.61119 0.97081 0.53681 0.0
H217 H 0.52783 0.04248 0.53698 0.0
N218 N 0.51275 0.99313 0.57559 0.0
N219 N 0.46655 1.00378 0.59521 0.0
C220 C 0.48122 0.98372 0.57683 0.0
C221 C 0.51803 1.02048 0.59319 0.0
C222 C 0.48963 1.02714 0.60533 0.0
C223 C 0.57979 0.93749 0.61003 0.0
O224 O 0.54752 0.94061 0.61407 0.0
H225 H 0.47032 0.96164 0.56578 0.0
H226 H 0.54192 1.03355 0.59817 0.0
O227 O 0.52125 0.94896 0.51964 0.0
H228 H 0.56712 0.06111 0.50464 0.0
H229 H 0.48781 0.04612 0.6222 0.0
Cu230 Cu 0.33176 0.6999 0.60607 0.0
N231 N 0.29957 0.73618 0.59695 0.0
N232 N 0.27674 0.78385 0.57865 0.0
C233 C 0.3049 0.7612 0.58314 0.0
C234 C 0.25256 0.77234 0.58999 0.0
C235 C 0.26671 0.74285 0.60122 0.0
O236 O 0.38013 0.71359 0.61478 0.0
C237 C 0.34675 0.64449 0.57045 0.0
O238 O 0.37603 0.64073 0.5921 0.0
H239 H 0.32829 0.76175 0.57511 0.0
H240 H 0.25335 0.72689 0.61074 0.0
N241 N 0.3241 0.68195 0.63804 0.0
N242 N 0.31744 0.6456 0.66731 0.0
C243 C 0.33 0.6506 0.64452 0.0
C244 C 0.30694 0.69698 0.65725 0.0
C245 C 0.30266 0.67455 0.67529 0.0
C246 C 0.39324 0.73473 0.63505 0.0
O247 O 0.42606 0.7426 0.6385 0.0
H248 H 0.34076 0.63144 0.63155 0.0
H249 H 0.29702 0.7223 0.65749 0.0
O250 O 0.32401 0.66849 0.5722 0.0
H251 H 0.22593 0.78358 0.58903 0.0
H252 H 0.288 0.67866 0.69179 0.0
Cu253 Cu 0.52035 0.35053 0.5891 0.0
N254 N 0.54776 0.32349 0.56683 0.0
N255 N 0.58184 0.31456 0.53464 0.0
C256 C 0.55501 0.33337 0.54269 0.0
C257 C 0.59191 0.29175 0.55455 0.0
C258 C 0.57104 0.29729 0.57425 0.0
O259 O 0.5586 0.3712 0.62067 0.0
C260 C 0.46767 0.35866 0.53682 0.0
O261 O 0.46821 0.32767 0.54089 0.0
H262 H 0.54257 0.35546 0.53242 0.0
H263 H 0.57422 0.28421 0.59358 0.0
N264 N 0.49037 0.33166 0.60896 0.0
N265 N 0.45599 0.32753 0.64028 0.0
C266 C 0.47905 0.34549 0.63242 0.0
C267 C 0.47393 0.30378 0.60199 0.0
C268 C 0.45292 0.30126 0.62093 0.0
C269 C 0.57569 0.35254 0.64101 0.0
O270 O 0.56516 0.32328 0.64024 0.0
H271 H 0.48718 0.36871 0.64324 0.0
H272 H 0.47672 0.28642 0.58417 0.0
O273 O 0.48786 0.37626 0.55722 0.0
H274 H 0.6135 0.27287 0.55534 0.0
H275 H 0.43699 0.28123 0.62067 0.0
Nd276 Nd 0.32961 0.35688 0.30847 0.0
Nd277 Nd 0.2871 0.40849 0.3249 0.0
C278 C 0.36008 0.3033 0.28759 0.0
C279 C 0.34728 0.27782 0.2647 0.0
C280 C 0.31136 0.27039 0.25723 0.0
C281 C 0.29821 0.24903 0.23312 0.0
C282 C 0.32067 0.23504 0.21587 0.0
C283 C 0.35697 0.24172 0.224 0.0
C284 C 0.37015 0.26303 0.24826 0.0
C285 C 0.35859 0.37895 0.36741 0.0
C286 C 0.25915 0.33769 0.32603 0.0
C287 C 0.25843 0.46121 0.34916 0.0
C288 C 0.26889 0.48725 0.37238 0.0
C289 C 0.30476 0.48955 0.38864 0.0
C290 C 0.31358 0.51326 0.41197 0.0
C291 C 0.28664 0.53498 0.41949 0.0
C292 C 0.2508 0.5325 0.40285 0.0
C293 C 0.24209 0.50894 0.37957 0.0
C294 C 0.25401 0.38538 0.26764 0.0
C295 C 0.35714 0.42576 0.30394 0.0
O296 O 0.35955 0.33194 0.27815 0.0
O297 O 0.34828 0.30453 0.31086 0.0
O298 O 0.37666 0.37195 0.34826 0.0
O299 O 0.32623 0.37436 0.35486 0.0
O300 O 0.27985 0.3294 0.3083 0.0
O301 O 0.26044 0.36725 0.33918 0.0
O302 O 0.26057 0.43206 0.35801 0.0
O303 O 0.26957 0.46143 0.32568 0.0
O304 O 0.23796 0.39482 0.28777 0.0
O305 O 0.28733 0.38909 0.2775 0.0
O306 O 0.33695 0.43526 0.32201 0.0
O307 O 0.35507 0.39603 0.29164 0.0
H308 H 0.29318 0.28174 0.26952 0.0
H309 H 0.27027 0.24395 0.22763 0.0
H310 H 0.37479 0.23157 0.21095 0.0
H311 H 0.39786 0.26882 0.2536 0.0
H312 H 0.32582 0.47281 0.38352 0.0
H313 H 0.34148 0.5146 0.42405 0.0
H314 H 0.22922 0.54827 0.40824 0.0
H315 H 0.2142 0.50727 0.36749 0.0
Nd316 Nd 0.78994 0.34811 0.31588 0.0
Nd317 Nd 0.83571 0.37981 0.28663 0.0
C318 C 0.74808 0.33029 0.34728 0.0
C319 C 0.73267 0.33219 0.37333 0.0
C320 C 0.70243 0.35326 0.37545 0.0
C321 C 0.68603 0.35161 0.3984 0.0
C322 C 0.69908 0.32863 0.41991 0.0
C323 C 0.72931 0.30765 0.41749 0.0
C324 C 0.74571 0.30946 0.39483 0.0
C325 C 0.84419 0.30461 0.30239 0.0
C326 C 0.85077 0.395 0.35572 0.0
C327 C 0.87761 0.39953 0.25631 0.0
C328 C 0.89739 0.39896 0.23313 0.0
C329 C 0.92578 0.37551 0.23148 0.0
C330 C 0.94639 0.37768 0.21158 0.0
C331 C 0.93959 0.40353 0.19279 0.0
C332 C 0.91097 0.42682 0.19443 0.0
C333 C 0.89029 0.42453 0.2142 0.0
C334 C 0.78266 0.42402 0.30124 0.0
C335 C 0.77751 0.32995 0.2472 0.0
O336 O 0.73689 0.35102 0.3268 0.0
O337 O 0.7816 0.31936 0.35046 0.0
O338 O 0.81182 0.29808 0.30083 0.0
O339 O 0.84841 0.33409 0.31239 0.0
O340 O 0.82054 0.3819 0.35295 0.0
O341 O 0.86577 0.39379 0.33393 0.0
O342 O 0.88946 0.38104 0.27846 0.0
O343 O 0.8429 0.40673 0.25005 0.0
O344 O 0.81513 0.42954 0.30234 0.0
O345 O 0.77741 0.3947 0.29084 0.0
O346 O 0.80705 0.34433 0.25011 0.0
O347 O 0.76175 0.33124 0.2686 0.0
H348 H 0.69105 0.37076 0.35911 0.0
H349 H 0.66312 0.36849 0.39925 0.0
H350 H 0.74002 0.28891 0.43271 0.0
H351 H 0.76823 0.29217 0.39368 0.0
H352 H 0.93256 0.35573 0.24594 0.0
H353 H 0.96834 0.35939 0.21149 0.0
H354 H 0.90434 0.44689 0.1803 0.0
H355 H 0.86901 0.44332 0.21508 0.0
Nd356 Nd 0.81574 0.879 0.32367 0.0
Nd357 Nd 0.84318 0.84274 0.27763 0.0
C358 C 0.7953 0.90107 0.3709 0.0
C359 C 0.76462 0.90872 0.3834 0.0
C360 C 0.76057 0.88949 0.40487 0.0
C361 C 0.73742 0.90061 0.42203 0.0
C362 C 0.71842 0.93136 0.41828 0.0
C363 C 0.72013 0.94922 0.39506 0.0
C364 C 0.74301 0.93798 0.37773 0.0
C365 C 0.79415 0.90946 0.272 0.0
C366 C 0.77 0.81711 0.2856 0.0
C367 C 0.8712 0.82206 0.23404 0.0
C368 C 0.88933 0.83646 0.21547 0.0
C369 C 0.87399 0.8642 0.20019 0.0
C370 C 0.89167 0.87712 0.18244 0.0
C371 C 0.92514 0.86277 0.18004 0.0
C372 C 0.94076 0.83551 0.19589 0.0
C373 C 0.92293 0.82242 0.21336 0.0
C374 C 0.8625 0.81243 0.32954 0.0
C375 C 0.88358 0.90791 0.31096 0.0
O376 O 0.80576 0.87059 0.36614 0.0
O377 O 0.79809 0.91954 0.351 0.0
O378 O 0.80148 0.9244 0.29775 0.0
O379 O 0.79527 0.87904 0.27372 0.0
O380 O 0.77413 0.8388 0.30852 0.0
O381 O 0.79144 0.81595 0.26812 0.0
O382 O 0.83696 0.83055 0.23031 0.0
O383 O 0.88905 0.82046 0.26161 0.0
O384 O 0.85235 0.79751 0.30389 0.0
O385 O 0.86312 0.84264 0.32745 0.0
O386 O 0.8737 0.88998 0.28599 0.0
O387 O 0.86951 0.90342 0.33252 0.0
H388 H 0.77689 0.86681 0.40961 0.0
H389 H 0.73589 0.88592 0.4393 0.0
H390 H 0.70592 0.97302 0.39161 0.0
H391 H 0.74546 0.95334 0.36126 0.0
H392 H 0.84826 0.87575 0.20173 0.0
H393 H 0.87913 0.89816 0.17046 0.0
H394 H 0.96625 0.82362 0.19403 0.0
H395 H 0.93525 0.8011 0.22504 0.0
Nd396 Nd 0.33206 0.8844 0.28706 0.0
Nd397 Nd 0.29501 0.84755 0.31037 0.0
C398 C 0.35199 0.92067 0.25197 0.0
C399 C 0.33594 0.93247 0.22251 0.0
C400 C 0.29866 0.93396 0.2098 0.0
C401 C 0.28402 0.94437 0.1814 0.0
C402 C 0.30642 0.95353 0.16528 0.0
C403 C 0.34377 0.95159 0.17808 0.0
C404 C 0.35834 0.94114 0.20638 0.0
C405 C 0.37086 0.82452 0.30113 0.0
C406 C 0.27123 0.84019 0.24333 0.0
C407 C 0.27571 0.81184 0.34535 0.0
C408 C 0.27718 0.81949 0.37649 0.0
C409 C 0.30222 0.80168 0.3978 0.0
C410 C 0.30754 0.81119 0.42745 0.0
C411 C 0.28761 0.83849 0.43637 0.0
C412 C 0.26229 0.8562 0.41516 0.0
C413 C 0.2573 0.84695 0.38542 0.0
C414 C 0.25213 0.90446 0.29389 0.0
C415 C 0.35672 0.88996 0.35661 0.0
O416 O 0.33747 0.93278 0.27275 0.0
O417 O 0.3598 0.88938 0.25288 0.0
O418 O 0.38421 0.85249 0.30835 0.0
O419 O 0.33783 0.82885 0.28781 0.0
O420 O 0.28418 0.86901 0.24799 0.0
O421 O 0.27843 0.82143 0.26523 0.0
O422 O 0.30695 0.80707 0.33978 0.0
O423 O 0.25251 0.82964 0.32641 0.0
O424 O 0.24215 0.87515 0.2888 0.0
O425 O 0.28571 0.90371 0.30716 0.0
O426 O 0.33423 0.86734 0.3525 0.0
O427 O 0.36041 0.90377 0.33391 0.0
H428 H 0.28089 0.92717 0.22184 0.0
H429 H 0.25516 0.94584 0.17231 0.0
H430 H 0.36183 0.95798 0.16613 0.0
H431 H 0.38718 0.93973 0.21566 0.0
H432 H 0.31813 0.78068 0.39148 0.0
H433 H 0.3266 0.79664 0.44348 0.0
H434 H 0.24638 0.87711 0.42162 0.0
H435 H 0.23821 0.86158 0.3695 0.0
Nd436 Nd 0.29123 0.83988 0.80826 0.0
Nd437 Nd 0.34262 0.87793 0.80548 0.0
C438 C 0.23683 0.81907 0.82223 0.0
C439 C 0.22408 0.8272 0.84857 0.0
C440 C 0.18974 0.84284 0.84591 0.0
C441 C 0.1787 0.85371 0.87092 0.0
C442 C 0.20182 0.84895 0.89896 0.0
C443 C 0.23613 0.83318 0.90161 0.0
C444 C 0.24723 0.82249 0.87665 0.0
C445 C 0.35125 0.79899 0.80585 0.0
C446 C 0.34418 0.86963 0.86934 0.0
C447 C 0.39132 0.90668 0.79007 0.0
C448 C 0.39127 0.9167 0.76117 0.0
C449 C 0.41796 0.90278 0.74813 0.0
C450 C 0.41644 0.90911 0.71953 0.0
C451 C 0.38833 0.92975 0.70351 0.0
C452 C 0.36165 0.94388 0.71654 0.0
C453 C 0.36291 0.93719 0.74509 0.0
C454 C 0.27911 0.91558 0.80745 0.0
C455 C 0.30095 0.83924 0.74427 0.0
O456 O 0.23307 0.84286 0.80513 0.0
O457 O 0.26795 0.80243 0.82599 0.0
O458 O 0.31848 0.79457 0.79116 0.0
O459 O 0.35255 0.82594 0.82152 0.0
O460 O 0.3112 0.86221 0.85598 0.0
O461 O 0.36645 0.87228 0.85374 0.0
O462 O 0.39295 0.87532 0.79194 0.0
O463 O 0.36837 0.92254 0.80284 0.0
O464 O 0.3106 0.92126 0.8243 0.0
O465 O 0.2817 0.88991 0.79107 0.0
O466 O 0.32734 0.85699 0.75785 0.0
O467 O 0.27955 0.82999 0.75851 0.0
H468 H 0.17162 0.84699 0.82449 0.0
H469 H 0.15182 0.86523 0.86833 0.0
H470 H 0.2544 0.82921 0.923 0.0
H471 H 0.27414 0.81098 0.87946 0.0
H472 H 0.43978 0.88661 0.75996 0.0
H473 H 0.43776 0.89844 0.71017 0.0
H474 H 0.33983 0.95997 0.70461 0.0
H475 H 0.34151 0.94776 0.75438 0.0
Nd476 Nd 0.2767 0.3697 0.78393 0.0
Nd477 Nd 0.33418 0.34 0.82005 0.0
C478 C 0.22988 0.40672 0.74642 0.0
C479 C 0.23364 0.43227 0.72848 0.0
C480 C 0.26427 0.43166 0.71823 0.0
C481 C 0.27031 0.45837 0.70495 0.0
C482 C 0.24604 0.48623 0.70205 0.0
C483 C 0.2148 0.48624 0.71149 0.0
C484 C 0.20866 0.45941 0.72459 0.0
C485 C 0.26665 0.37075 0.84045 0.0
C486 C 0.35001 0.41033 0.80564 0.0
C487 C 0.37426 0.30268 0.86101 0.0
C488 C 0.36456 0.27746 0.87677 0.0
C489 C 0.33077 0.27978 0.88246 0.0
C490 C 0.32023 0.25435 0.89479 0.0
C491 C 0.34312 0.22587 0.90149 0.0
C492 C 0.37708 0.22381 0.89593 0.0
C493 C 0.38765 0.24935 0.8837 0.0
C494 C 0.34965 0.34084 0.76637 0.0
C495 C 0.26122 0.29829 0.79051 0.0
O496 O 0.24136 0.3772 0.73928 0.0
O497 O 0.23969 0.41403 0.77459 0.0
O498 O 0.24393 0.36116 0.81646 0.0
O499 O 0.29468 0.37794 0.83438 0.0
O500 O 0.31931 0.40611 0.78562 0.0
O501 O 0.36165 0.38879 0.82576 0.0
O502 O 0.36273 0.33271 0.86667 0.0
O503 O 0.37005 0.29557 0.83302 0.0
O504 O 0.37204 0.34567 0.79185 0.0
O505 O 0.31923 0.33447 0.7693 0.0
O506 O 0.29034 0.30195 0.81261 0.0
O507 O 0.25139 0.32101 0.77184 0.0
H508 H 0.28413 0.41102 0.72139 0.0
H509 H 0.29439 0.45748 0.69757 0.0
H510 H 0.19587 0.50751 0.70998 0.0
H511 H 0.18518 0.46038 0.73279 0.0
H512 H 0.31221 0.30106 0.87693 0.0
H513 H 0.29414 0.25707 0.89911 0.0
H514 H 0.39522 0.20213 0.90038 0.0
H515 H 0.41356 0.24684 0.87902 0.0
Nd516 Nd 0.84731 0.38751 0.79628 0.0
Nd517 Nd 0.80963 0.3505 0.82841 0.0
C518 C 0.87216 0.42149 0.76234 0.0
C519 C 0.866 0.4399 0.73568 0.0
C520 C 0.84944 0.47175 0.73382 0.0
C521 C 0.84825 0.48986 0.70991 0.0
C522 C 0.86392 0.4767 0.68749 0.0
C523 C 0.87955 0.44454 0.68908 0.0
C524 C 0.8806 0.42646 0.71282 0.0
C525 C 0.87803 0.32453 0.80682 0.0
C526 C 0.76673 0.36429 0.76084 0.0
C527 C 0.79233 0.30144 0.85241 0.0
C528 C 0.78461 0.29082 0.87863 0.0
C529 C 0.79814 0.25964 0.88754 0.0
C530 C 0.78919 0.24731 0.91069 0.0
C531 C 0.76655 0.26597 0.92552 0.0
C532 C 0.75407 0.29778 0.91738 0.0
C533 C 0.7629 0.3101 0.89396 0.0
C534 C 0.78142 0.41455 0.8337 0.0
C535 C 0.88488 0.38255 0.86572 0.0
O536 O 0.86169 0.43466 0.78508 0.0
O537 O 0.86987 0.39004 0.75864 0.0
O538 O 0.89576 0.35003 0.81061 0.0
O539 O 0.84445 0.33273 0.79774 0.0
O540 O 0.79261 0.3829 0.76144 0.0
O541 O 0.7689 0.34623 0.78283 0.0
O542 O 0.82545 0.30713 0.85464 0.0
O543 O 0.7686 0.32146 0.83602 0.0
O544 O 0.77521 0.39089 0.84718 0.0
O545 O 0.80513 0.40491 0.82018 0.0
O546 O 0.86205 0.36052 0.8644 0.0
O547 O 0.8812 0.40063 0.84334 0.0
H548 H 0.83824 0.483 0.75116 0.0
H549 H 0.83616 0.51462 0.70955 0.0
H550 H 0.89134 0.43336 0.67205 0.0
H551 H 0.89384 0.40211 0.71369 0.0
H552 H 0.81511 0.24447 0.87613 0.0
H553 H 0.79971 0.22296 0.91683 0.0
H554 H 0.7366 0.31266 0.92849 0.0
H555 H 0.75226 0.33432 0.88751 0.0
Nd556 Nd 0.79074 0.86095 0.76134 0.0
Nd557 Nd 0.77109 0.89312 0.81831 0.0
C558 C 0.77998 0.84177 0.70558 0.0
C559 C 0.77302 0.81141 0.68744 0.0
C560 C 0.7497 0.81258 0.65917 0.0
C561 C 0.74485 0.78442 0.64053 0.0
C562 C 0.76346 0.75479 0.64995 0.0
C563 C 0.78428 0.7532 0.67922 0.0
C564 C 0.78902 0.78138 0.69789 0.0
C565 C 0.83693 0.83395 0.81089 0.0
C566 C 0.73795 0.82359 0.79111 0.0
C567 C 0.76917 0.92235 0.86974 0.0
C568 C 0.78898 0.94397 0.89412 0.0
C569 C 0.82075 0.93267 0.91432 0.0
C570 C 0.83659 0.95237 0.93914 0.0
C571 C 0.82098 0.98375 0.94427 0.0
C572 C 0.79002 0.99544 0.9234 0.0
C573 C 0.77416 0.97573 0.8987 0.0
C574 C 0.72018 0.90291 0.76593 0.0
C575 C 0.83061 0.92634 0.79101 0.0
O576 O 0.75414 0.85368 0.71713 0.0
O577 O 0.81222 0.84399 0.72353 0.0
O578 O 0.8383 0.82468 0.78428 0.0
O579 O 0.81159 0.85562 0.80949 0.0
O580 O 0.74935 0.82775 0.76792 0.0
O581 O 0.74644 0.84326 0.81535 0.0
O582 O 0.78265 0.89229 0.86659 0.0
O583 O 0.75389 0.93529 0.84474 0.0
O584 O 0.71276 0.8986 0.79026 0.0
O585 O 0.75377 0.90374 0.7703 0.0
O586 O 0.81624 0.924 0.81316 0.0
O587 O 0.82278 0.90639 0.76707 0.0
H588 H 0.73647 0.83554 0.65109 0.0
H589 H 0.72893 0.78643 0.61804 0.0
H590 H 0.79878 0.73056 0.687 0.0
H591 H 0.8063 0.77992 0.72001 0.0
H592 H 0.83278 0.90831 0.91144 0.0
H593 H 0.86058 0.94274 0.95471 0.0
H594 H 0.77693 1.01925 0.92688 0.0
H595 H 0.74949 0.98498 0.88368 0.0
H596 H 0.15087 0.2559 0.36553 0.0
H597 H 0.17953 0.18427 0.30237 0.0
H598 H 0.21852 0.22161 0.29183 0.0
H599 H 0.24578 0.27498 0.30077 0.0
H600 H 0.21618 0.34649 0.36364 0.0
H601 H 0.17711 0.30919 0.37385 0.0
C602 C 0.1657 0.24817 0.34955 0.0
C603 C 0.16179 0.21669 0.33492 0.0
C604 C 0.18832 0.27007 0.34341 0.0
C605 C 0.18128 0.20804 0.31396 0.0
C606 C 0.20392 0.22952 0.30796 0.0
C607 C 0.2308 0.28253 0.31671 0.0
C608 C 0.23448 0.31401 0.33138 0.0
C609 C 0.20782 0.26068 0.32254 0.0
C610 C 0.21437 0.32279 0.35187 0.0
C611 C 0.19183 0.30129 0.35781 0.0
H612 H 0.9374 0.17013 0.29172 0.0
H613 H 1.02419 0.23223 0.31161 0.0
H614 H 0.98166 0.28047 0.31091 0.0
H615 H 0.91903 0.30534 0.30891 0.0
H616 H 0.83318 0.24136 0.28758 0.0
H617 H 0.87527 0.19474 0.28446 0.0
C618 C 0.9469 0.19427 0.29474 0.0
C619 C 0.98411 0.19727 0.30063 0.0
C620 C 0.92213 0.22206 0.29477 0.0
C621 C 0.99574 0.22896 0.30587 0.0
C622 C 0.97132 0.25669 0.30596 0.0
C623 C 0.90951 0.28126 0.30342 0.0
C624 C 0.87249 0.27742 0.29911 0.0
C625 C 0.93433 0.25367 0.30115 0.0
C626 C 0.86119 0.24566 0.29158 0.0
C627 C 0.88541 0.21861 0.28964 0.0
H628 H 0.9902 1.01227 0.29934 0.0
H629 H 0.97801 0.0456 0.38491 0.0
H630 H 0.93824 1.00298 0.38245 0.0
H631 H 0.90647 0.95513 0.35647 0.0
H632 H 0.91844 0.92139 0.27089 0.0
H633 H 0.95784 0.96435 0.27305 0.0
C634 C 0.97866 1.01045 0.31737 0.0
C635 C 0.98777 1.03261 0.34242 0.0
C636 C 0.9555 0.98524 0.31596 0.0
C637 C 0.97234 1.02909 0.36549 0.0
C638 C 0.94928 1.00455 0.36408 0.0
C639 C 0.91776 0.95697 0.33828 0.0
C640 C 0.9091 0.93435 0.31357 0.0
C641 C 0.94074 0.9822 0.33956 0.0
C642 C 0.92424 0.9379 0.29033 0.0
C643 C 0.94695 0.96275 0.29149 0.0
H644 H 0.1077 0.99665 0.27671 0.0
H645 H 0.17919 0.0714 0.31396 0.0
H646 H 0.23126 1.03151 0.31561 0.0
H647 H 0.25677 0.97279 0.30974 0.0
H648 H 0.18154 0.90094 0.2698 0.0
H649 H 0.13192 0.94167 0.2661 0.0
C650 C 0.13466 1.00454 0.28459 0.0
C651 C 0.13911 1.03732 0.29488 0.0
C652 C 0.1644 0.98144 0.28551 0.0
C653 C 0.17455 0.04665 0.30527 0.0
C654 C 0.20449 1.02357 0.30658 0.0
C655 C 0.22959 0.96612 0.30004 0.0
C656 C 0.22365 0.933 0.29065 0.0
C657 C 0.19991 0.99048 0.2973 0.0
C658 C 0.18777 0.92557 0.27782 0.0
C659 C 0.15889 0.94908 0.27551 0.0
H660 H 0.12832 0.99982 0.77492 0.0
H661 H 0.18201 0.06288 0.8476 0.0
H662 H 0.23612 1.02462 0.85539 0.0
H663 H 0.26918 0.97328 0.84039 0.0
H664 H 0.21341 0.911 0.76792 0.0
H665 H 0.15965 0.94875 0.76133 0.0
C666 C 0.15172 1.00544 0.79264 0.0
C667 C 0.15059 1.03475 0.81057 0.0
C668 C 0.18275 0.98324 0.79694 0.0
C669 C 0.18156 0.04082 0.83343 0.0
C670 C 0.2127 1.01884 0.83779 0.0
C671 C 0.24524 0.9679 0.82317 0.0
C672 C 0.24585 0.939 0.80453 0.0
C673 C 0.21382 0.98999 0.81953 0.0
C674 C 0.21421 0.93274 0.78254 0.0
C675 C 0.18328 0.95447 0.77875 0.0
H676 H 0.17466 0.17816 0.80236 0.0
H677 H 0.10297 0.21515 0.72333 0.0
H678 H 0.14286 0.25723 0.725 0.0
H679 H 0.19796 0.28501 0.74885 0.0
H680 H 0.27017 0.24896 0.82791 0.0
H681 H 0.23071 0.20594 0.82619 0.0
C682 C 0.16756 0.1954 0.78549 0.0
C683 C 0.13526 0.19271 0.76258 0.0
C684 C 0.19105 0.22015 0.78652 0.0
C685 C 0.12738 0.21565 0.74102 0.0
C686 C 0.15032 0.24014 0.74203 0.0
C687 C 0.20534 0.26769 0.76569 0.0
C688 C 0.23755 0.27064 0.78847 0.0
C689 C 0.18226 0.24275 0.76461 0.0
C690 C 0.24598 0.24766 0.80999 0.0
C691 C 0.22318 0.2229 0.80906 0.0
H692 H 0.93726 0.17642 0.79013 0.0
H693 H 1.03686 0.21468 0.83965 0.0
H694 H 1.00485 0.26836 0.84454 0.0
H695 H 0.94888 0.30557 0.83191 0.0
H696 H 0.84925 0.26651 0.78362 0.0
H697 H 0.88078 0.2123 0.7812 0.0
C698 C 0.95209 0.19634 0.80235 0.0
C699 C 0.98983 0.19108 0.81448 0.0
C700 C 0.93335 0.22726 0.80506 0.0
C701 C 1.00807 0.21751 0.83028 0.0
C702 C 0.98966 0.24841 0.83286 0.0
C703 C 0.93392 0.28516 0.82101 0.0
C704 C 0.89645 0.29052 0.80768 0.0
C705 C 0.95238 0.25377 0.81992 0.0
C706 C 0.87781 0.26348 0.79399 0.0
C707 C 0.89599 0.23237 0.79256 0.0
H708 H 0.94111 1.03677 0.82779 0.0
H709 H 0.95852 1.00796 0.74325 0.0
H710 H 0.91173 0.96933 0.7339 0.0
H711 H 0.86823 0.94073 0.75164 0.0
H712 H 0.85272 0.97097 0.83699 0.0
H713 H 0.89597 1.0114 0.84397 0.0
C714 C 0.93428 1.02246 0.80704 0.0
C715 C 0.95342 1.0257 0.78617 0.0
C716 C 0.90775 0.99995 0.80212 0.0
C717 C 0.94403 1.00667 0.7595 0.0
C718 C 0.91747 0.98419 0.75437 0.0
C719 C 0.87411 0.95624 0.77174 0.0
C720 C 0.85681 0.95211 0.79383 0.0
C721 C 0.89951 0.98008 0.77577 0.0
C722 C 0.86521 0.97291 0.81955 0.0
C723 C 0.89013 0.99631 0.82362 0.0
H724 H 0.23621 0.1684 0.09598 0.0
H725 H 0.32846 0.09874 0.11531 0.0
H726 H 0.35482 0.13107 0.16052 0.0
H727 H 0.3504 0.17849 0.19517 0.0
H728 H 0.2574 0.24753 0.17496 0.0
H729 H 0.23199 0.21546 0.12978 0.0
C730 C 0.2619 0.16008 0.11021 0.0
C731 C 0.28022 0.13115 0.10244 0.0
C732 C 0.27655 0.1785 0.13611 0.0
C733 C 0.31397 0.1211 0.12073 0.0
C734 C 0.3289 0.13945 0.14664 0.0
C735 C 0.32469 0.18656 0.18076 0.0
C736 C 0.30566 0.21516 0.18854 0.0
C737 C 0.3103 0.16812 0.15462 0.0
C738 C 0.27225 0.22525 0.16978 0.0
C739 C 0.25782 0.20709 0.14382 0.0
H740 H 1.03643 0.389 0.10247 0.0
H741 H 1.03114 0.49341 0.11755 0.0
H742 H 0.99336 0.49062 0.15058 0.0
H743 H 0.96238 0.45851 0.17627 0.0
H744 H 0.96779 0.35403 0.16097 0.0
H745 H 1.00464 0.35703 0.12742 0.0
C746 C 1.02673 0.41125 0.11262 0.0
C747 C 1.03688 0.44148 0.10715 0.0
C748 C 1.00501 0.40947 0.13196 0.0
C749 C 1.02426 0.4698 0.12127 0.0
C750 C 1.00245 0.46822 0.14021 0.0
C751 C 0.97126 0.43633 0.16544 0.0
C752 C 0.96203 0.40599 0.17162 0.0
C753 C 0.99272 0.43818 0.1459 0.0
C754 C 0.9746 0.37772 0.15737 0.0
C755 C 0.99563 0.37942 0.13787 0.0
H756 H 0.77017 0.96733 0.1488 0.0
H757 H 0.76625 0.05686 0.20265 0.0
H758 H 0.77497 1.02608 0.24552 0.0
H759 H 0.78431 0.97422 0.26809 0.0
H760 H 0.78612 0.88419 0.21507 0.0
H761 H 0.77705 0.91476 0.17133 0.0
C762 C 0.77077 0.98024 0.16975 0.0
C763 C 0.76773 1.01466 0.17222 0.0
C764 C 0.77532 0.96227 0.1945 0.0
C765 C 0.7691 1.0306 0.1999 0.0
C766 C 0.77385 1.01296 0.22451 0.0
C767 C 0.78248 0.96119 0.24693 0.0
C768 C 0.78595 0.92696 0.24481 0.0
C769 C 0.77712 0.97888 0.22209 0.0
C770 C 0.78347 0.91051 0.21725 0.0
C771 C 0.77837 0.92802 0.19229 0.0
H772 H 0.1408 0.82988 0.13001 0.0
H773 H 0.16176 0.72798 0.14482 0.0
H774 H 0.21315 0.73985 0.18699 0.0
H775 H 0.25074 0.77991 0.22054 0.0
H776 H 0.22849 0.88195 0.20508 0.0
H777 H 0.17882 0.86951 0.16244 0.0
C778 C 0.15685 0.81031 0.14238 0.0
C779 C 0.14777 0.7781 0.13439 0.0
C780 C 0.18592 0.81744 0.16655 0.0
C781 C 0.16827 0.75293 0.15081 0.0
C782 C 0.19761 0.75976 0.17479 0.0
C783 C 0.23521 0.79934 0.20762 0.0
C784 C 0.24355 0.8318 0.21587 0.0
C785 C 0.20653 0.79199 0.183 0.0
C786 C 0.22311 0.85674 0.19897 0.0
C787 C 0.19451 0.84967 0.17467 0.0
H788 H 0.38655 0.95355 0.98704 0.0
H789 H 0.29012 0.91822 0.9963 0.0
H790 H 0.28845 0.87915 0.9543 0.0
H791 H 0.30743 0.86386 0.90939 0.0
H792 H 0.4035 0.9001 0.89986 0.0
H793 H 0.41275 0.92944 0.94779 0.0
C794 C 0.36609 0.93636 0.98066 0.0
C795 C 0.33801 0.93922 0.99424 0.0
C796 C 0.36479 0.91462 0.95601 0.0
C797 C 0.31165 0.91674 0.98574 0.0
C798 C 0.31054 0.89461 0.96162 0.0
C799 C 0.33082 0.87754 0.91811 0.0
C800 C 0.35412 0.88052 0.90077 0.0
C801 C 0.33579 0.89473 0.94558 0.0
C802 C 0.38476 0.89781 0.91257 0.0
C803 C 0.39008 0.91471 0.93999 0.0
H804 H 0.22374 0.43802 0.95435 0.0
H805 H 0.16796 0.35087 0.94389 0.0
H806 H 0.19085 0.33164 0.90207 0.0
H807 H 0.22482 0.33989 0.86621 0.0
H808 H 0.28287 0.42538 0.87768 0.0
H809 H 0.26064 0.44477 0.92032 0.0
C810 C 0.21627 0.41484 0.94306 0.0
C811 C 0.19336 0.39637 0.95293 0.0
C812 C 0.22992 0.40349 0.91861 0.0
C813 C 0.18515 0.36608 0.93754 0.0
C814 C 0.19828 0.35493 0.91324 0.0
C815 C 0.2329 0.36265 0.87819 0.0
C816 C 0.25575 0.38102 0.86844 0.0
C817 C 0.22042 0.37346 0.90329 0.0
C818 C 0.26582 0.41041 0.88457 0.0
C819 C 0.25285 0.42163 0.90901 0.0
H820 H 0.73697 0.21654 0.03802 0.0
H821 H 0.70885 0.1328 0.97814 0.0
H822 H 0.71913 0.16078 0.93853 0.0
H823 H 0.73994 0.20752 0.92174 0.0
H824 H 0.76762 0.29192 0.98089 0.0
H825 H 0.75338 0.26549 0.01996 0.0
C826 C 0.73267 0.20471 0.01616 0.0
C827 C 0.72208 0.17269 0.01096 0.0
C828 C 0.73878 0.22097 0.9935 0.0
C829 C 0.71643 0.15757 0.98256 0.0
C830 C 0.72266 0.17345 0.96 0.0
C831 C 0.74277 0.22014 0.94319 0.0
C832 C 0.75525 0.2514 0.9486 0.0
C833 C 0.73443 0.20488 0.96535 0.0
C834 C 0.75811 0.2678 0.97626 0.0
C835 C 0.7501 0.25265 -0.00141 0.0
H836 H 0.95263 0.76154 0.91166 0.0
H837 H 0.92617 0.84647 0.9635 0.0
H838 H 0.88158 0.86684 0.92044 0.0
H839 H 0.85056 0.86124 0.86729 0.0
H840 H 0.87929 0.77738 0.81528 0.0
H841 H 0.92178 0.7558 0.8589 0.0
C842 C 0.9368 0.78431 0.91363 0.0
C843 C 0.94285 0.80238 0.94093 0.0
C844 C 0.91137 0.79613 0.88857 0.0
C845 C 0.9224 0.83216 0.94281 0.0
C846 C 0.89669 0.84378 0.91814 0.0
C847 C 0.86591 0.83812 0.86561 0.0
C848 C 0.86157 0.82086 0.83804 0.0
C849 C 0.89102 0.82611 0.89081 0.0
C850 C 0.88208 0.79116 0.83618 0.0
C851 C 0.90643 0.77878 0.86115 0.0
H852 H 0.13617 0.35914 0.14737 0.0
H853 H 0.22042 0.37844 0.10991 0.0
H854 H 0.26181 0.38381 0.15935 0.0
H855 H 0.27326 0.38609 0.21452 0.0
H856 H 0.18641 0.36795 0.24965 0.0
H857 H 0.1476 0.35921 0.20042 0.0
C858 C 0.16369 0.36416 0.14974 0.0
C859 C 0.17482 0.36818 0.12443 0.0
C860 C 0.18718 0.36776 0.17829 0.0
C861 C 0.21079 0.3749 0.12862 0.0
C862 C 0.23454 0.37818 0.15708 0.0
C863 C 0.24597 0.37992 0.21136 0.0
C864 C 0.233 0.37792 0.23625 0.0
C865 C 0.22299 0.37511 0.18231 0.0
C866 C 0.19736 0.36998 0.23132 0.0
C867 C 0.17494 0.36489 0.20298 0.0
H868 H 0.11208 0.89364 0.9883 0.0
H869 H 0.15156 0.79732 0.0163 0.0
H870 H 0.19176 0.79224 0.9847 0.0
H871 H 0.20778 0.81121 0.94339 0.0
H872 H 0.16627 0.90599 0.91282 0.0
H873 H 0.13514 0.91591 0.95145 0.0
C874 C 0.13011 0.87191 0.98795 0.0
C875 C 0.12831 0.84564 0.00398 0.0
C876 C 0.15243 0.86871 0.96904 0.0
C877 C 0.15197 0.81764 0.0036 0.0
C878 C 0.17496 0.81467 0.98556 0.0
C879 C 0.19272 0.83439 0.9457 0.0
C880 C 0.18877 0.85766 0.92518 0.0
C881 C 0.1742 0.83945 0.96725 0.0
C882 C 0.16903 0.88751 0.92818 0.0
C883 C 0.15129 0.89317 0.95021 0.0
H884 H 0.31858 0.11004 0.96999 0.0
H885 H 0.21009 0.12795 0.91633 0.0
H886 H 0.22923 0.17004 0.8924 0.0
H887 H 0.27644 0.20299 0.88791 0.0
H888 H 0.38407 0.187 0.94396 0.0
H889 H 0.36564 0.14269 0.96539 0.0
C890 C 0.29914 0.12289 0.95285 0.0
C891 C 0.26293 0.11578 0.94495 0.0
C892 C 0.31017 0.14753 0.93965 0.0
C893 C 0.2381 0.13295 0.92289 0.0
C894 C 0.24902 0.15708 0.90922 0.0
C895 C 0.29584 0.19004 0.905 0.0
C896 C 0.33167 0.19851 0.91425 0.0
C897 C 0.28491 0.16488 0.91771 0.0
C898 C 0.35648 0.18088 0.93604 0.0
C899 C 0.34591 0.1556 0.94849 0.0
H900 H 1.03572 0.39823 0.96019 0.0
H901 H 1.00052 0.32055 0.99726 0.0
H902 H 0.94454 0.3217 0.95801 0.0
H903 H 0.90512 0.34462 0.91301 0.0
H904 H 0.93968 0.42291 0.8762 0.0
H905 H 0.99569 0.42184 0.91546 0.0
C906 C 1.016 0.38129 0.95959 0.0
C907 C 1.02285 0.35905 0.98178 0.0
C908 C 0.98331 0.38244 0.93705 0.0
C909 C 0.99641 0.33778 0.98061 0.0
C910 C 0.96418 0.33852 0.95813 0.0
C911 C 0.92467 0.36173 0.91362 0.0
C912 C 0.91768 0.38396 0.89143 0.0
C913 C 0.95719 0.36082 0.93628 0.0
C914 C 0.94384 0.40563 0.89283 0.0
C915 C 0.97614 0.40492 0.9153 0.0
H916 H 0.85119 0.047 0.07297 0.0
H917 H 0.83676 0.13457 0.02693 0.0
H918 H 0.83539 0.10214 0.9812 0.0
H919 H 0.82941 0.04897 0.95311 0.0
H920 H 0.84185 0.9617 -0.00079 0.0
H921 H 0.85355 0.99385 0.04595 0.0
C922 C 0.84864 0.05902 0.05308 0.0
C923 C 0.84363 0.09316 0.0534 0.0
C924 C 0.84709 0.04022 0.02669 0.0
C925 C 0.84068 0.10834 0.02744 0.0
C926 C 0.83953 0.08978 0.00114 0.0
C927 C 0.83512 1.03699 0.97343 0.0
C928 C 0.8343 1.00299 0.97258 0.0
C929 C 0.84125 0.05571 0.0003 0.0
C930 C 0.84244 0.98777 -0.00085 0.0
C931 C 0.84887 1.00619 0.02593 0.0
H932 H 0.98037 0.87927 0.07153 0.0
H933 H 0.08192 0.87446 0.13778 0.0
H934 H 0.05071 0.87947 0.17615 0.0
H935 H 0.99508 0.87439 0.18994 0.0
H936 H 0.89402 0.87587 0.12324 0.0
H937 H 0.92443 0.88334 0.08604 0.0
C938 C 0.99567 0.88024 0.09441 0.0
C939 C 1.03332 0.87575 0.10176 0.0
C940 C 0.97761 0.88193 0.11627 0.0
C941 C 0.05286 0.87762 0.13147 0.0
C942 C 1.03504 0.88013 0.15346 0.0
C943 C 0.97974 0.87696 0.16732 0.0
C944 C 0.94253 0.87409 0.15918 0.0
C945 C 0.9975 0.88052 0.14598 0.0
C946 C 0.92271 0.87803 0.12999 0.0
C947 C 0.94011 0.88208 0.10869 0.0
H948 H 0.25998 1.02461 0.04809 0.0
H949 H 0.18647 0.9501 0.02165 0.0
H950 H 0.21005 0.92808 0.0698 0.0
H951 H 0.25233 0.93022 0.11979 0.0
H952 H 0.32602 1.00567 0.14425 0.0
H953 H 0.30208 1.027 0.09604 0.0
C954 C 0.24917 1.00372 0.05228 0.0
C955 C 0.22159 0.98955 0.03063 0.0
C956 C 0.26316 0.99115 0.07989 0.0
C957 C 0.20784 0.96196 0.03758 0.0
C958 C 0.22135 0.94922 0.06522 0.0
C959 C 0.26298 0.95143 0.11459 0.0
C960 C 0.2911 0.96621 0.13567 0.0
C961 C 0.24907 0.96371 0.08664 0.0
C962 C 0.30481 0.99349 0.12842 0.0
C963 C 0.29099 1.00585 0.10088 0.0
H964 H 0.7834 0.23926 0.13658 0.0
H965 H 0.78384 0.16591 0.19554 0.0
H966 H 0.77321 0.20834 0.23231 0.0
H967 H 0.76808 0.26652 0.24885 0.0
H968 H 0.77051 0.33918 0.19031 0.0
H969 H 0.7743 0.29678 0.15171 0.0
C970 C 0.7812 0.23246 0.15747 0.0
C971 C 0.78489 0.19944 0.16343 0.0
C972 C 0.77478 0.2569 0.17831 0.0
C973 C 0.78139 0.19115 0.19047 0.0
C974 C 0.77512 0.21539 0.21144 0.0
C975 C 0.76806 0.27301 0.22726 0.0
C976 C 0.76825 0.30589 0.22211 0.0
C977 C 0.77201 0.24838 0.20567 0.0
C978 C 0.76957 0.31404 0.19445 0.0
C979 C 0.7723 0.28979 0.17258 0.0
H980 H 0.62603 0.71514 0.75022 0.0
H981 H 0.66182 0.69614 0.84194 0.0
H982 H 0.70081 0.74071 0.85124 0.0
H983 H 0.7265 0.78553 0.83325 0.0
H984 H 0.6916 0.80167 0.74093 0.0
H985 H 0.65133 0.75846 0.73242 0.0
C986 C 0.64234 0.72032 0.77231 0.0
C987 C 0.64027 0.70154 0.79519 0.0
C988 C 0.66536 0.74603 0.77761 0.0
C989 C 0.66194 0.70975 0.82364 0.0
C990 C 0.68463 0.73545 0.82907 0.0
C991 C 0.70996 0.7797 0.81131 0.0
C992 C 0.71258 0.79721 0.7878 0.0
C993 C 0.68674 0.75389 0.80624 0.0
C994 C 0.69082 0.78877 0.75954 0.0
C995 C 0.66751 0.7639 0.75456 0.0
H996 H 0.44269 0.66564 0.79271 0.0
H997 H 0.52517 0.71046 0.86036 0.0
H998 H 0.48348 0.75927 0.86269 0.0
H999 H 0.42293 0.7908 0.84254 0.0
H1000 H 0.34301 0.74136 0.77516 0.0
H1001 H 0.38416 0.69398 0.77541 0.0
C1002 C 0.45161 0.68586 0.80837 0.0
C1003 C 0.48712 0.68402 0.82645 0.0
C1004 C 0.42781 0.71375 0.80919 0.0
C1005 C 0.4979 0.7107 0.8465 0.0
C1006 C 0.47406 0.73888 0.84752 0.0
C1007 C 0.41462 0.76968 0.82796 0.0
C1008 C 0.37952 0.77062 0.80836 0.0
C1009 C 0.43887 0.74105 0.8285 0.0
C1010 C 0.36959 0.74242 0.79004 0.0
C1011 C 0.39318 0.71476 0.79027 0.0
H1012 H 0.4203 0.52645 0.76721 0.0
H1013 H 0.50997 0.4979 0.83912 0.0
H1014 H 0.47568 0.45613 0.84962 0.0
H1015 H 0.41983 0.4259 0.83749 0.0
H1016 H 0.33055 0.45674 0.76586 0.0
H1017 H 0.36475 0.49845 0.75651 0.0
C1018 C 0.43261 0.5111 0.78516 0.0
C1019 C 0.46822 0.51568 0.80214 0.0
C1020 C 0.41249 0.48704 0.79127 0.0
C1021 C 0.48283 0.49549 0.82563 0.0
C1022 C 0.46311 0.47131 0.8316 0.0
C1023 C 0.40769 0.44186 0.81997 0.0
C1024 C 0.37213 0.43748 0.80247 0.0
C1025 C 0.42782 0.46661 0.81451 0.0
C1026 C 0.35751 0.45883 0.77985 0.0
C1027 C 0.37721 0.48298 0.77434 0.0
H1028 H 0.68091 0.54335 0.79615 0.0
H1029 H 0.64268 0.52484 0.86958 0.0
H1030 H 0.68799 0.47846 0.88044 0.0
H1031 H 0.73587 0.44045 0.86673 0.0
H1032 H 0.77462 0.46054 0.79399 0.0
H1033 H 0.73199 0.50877 0.78532 0.0
C1034 C 0.6826 0.52946 0.8148 0.0
C1035 C 0.6579 0.53783 0.83192 0.0
C1036 C 0.70888 0.50279 0.82091 0.0
C1037 C 0.66111 0.51939 0.85606 0.0
C1038 C 0.687 0.49262 0.86214 0.0
C1039 C 0.7354 0.45564 0.84922 0.0
C1040 C 0.75876 0.44656 0.83102 0.0
C1041 C 0.71067 0.48369 0.84442 0.0
C1042 C 0.75745 0.46675 0.80848 0.0
C1043 C 0.7328 0.49435 0.80342 0.0
H1044 H 0.69635 0.56326 0.30579 0.0
H1045 H 0.61333 0.50749 0.31503 0.0
H1046 H 0.65273 0.45706 0.31427 0.0
H1047 H 0.71112 0.4278 0.30765 0.0
H1048 H 0.7931 0.48702 0.30028 0.0
H1049 H 0.75459 0.53578 0.30381 0.0
C1050 C 0.68721 0.54021 0.30865 0.0
C1051 C 0.65206 0.53968 0.31143 0.0
C1052 C 0.70999 0.51123 0.30787 0.0
C1053 C 0.64056 0.50913 0.31399 0.0
C1054 C 0.66305 0.48006 0.31303 0.0
C1055 C 0.72047 0.45131 0.30665 0.0
C1056 C 0.7554 0.45285 0.30303 0.0
C1057 C 0.69782 0.48054 0.30934 0.0
C1058 C 0.76667 0.48415 0.30258 0.0
C1059 C 0.74452 0.51255 0.30473 0.0
H1060 H 0.66235 0.70456 0.23897 0.0
H1061 H 0.64843 0.7212 0.3262 0.0
H1062 H 0.6898 0.76409 0.33701 0.0
H1063 H 0.73128 0.79755 0.3221 0.0
H1064 H 0.74495 0.77978 0.23485 0.0
H1065 H 0.70271 0.73782 0.22401 0.0
C1066 C 0.66794 0.71755 0.26035 0.0
C1067 C 0.65159 0.70889 0.2816 0.0
C1068 C 0.69211 0.74261 0.26659 0.0
C1069 C 0.66031 0.72642 0.30924 0.0
C1070 C 0.68409 0.75137 0.31548 0.0
C1071 C 0.72481 0.78477 0.30059 0.0
C1072 C 0.74171 0.79253 0.27935 0.0
C1073 C 0.70032 0.75981 0.29439 0.0
C1074 C 0.73284 0.7749 0.25182 0.0
C1075 C 0.70848 0.75062 0.24551 0.0
H1076 H 0.44254 0.6819 0.28152 0.0
H1077 H 0.53468 0.72047 0.3435 0.0
H1078 H 0.49894 0.7723 0.34843 0.0
H1079 H 0.44172 0.80832 0.33218 0.0
H1080 H 0.34994 0.76731 0.2714 0.0
H1081 H 0.38509 0.71534 0.26894 0.0
C1082 C 0.45483 0.70142 0.29654 0.0
C1083 C 0.49153 0.69691 0.31217 0.0
C1084 C 0.43405 0.73116 0.29915 0.0
C1085 C 0.50659 0.72275 0.33146 0.0
C1086 C 0.48611 0.75264 0.33401 0.0
C1087 C 0.42936 0.78794 0.31852 0.0
C1088 C 0.39296 0.79221 0.3017 0.0
C1089 C 0.44989 0.75743 0.31752 0.0
C1090 C 0.37762 0.76518 0.28446 0.0
C1091 C 0.39783 0.73527 0.28304 0.0
H1092 H 0.47296 0.49222 0.26014 0.0
H1093 H 0.4485 0.57264 0.31755 0.0
H1094 H 0.40555 0.54115 0.33036 0.0
H1095 H 0.37386 0.4899 0.32513 0.0
H1096 H 0.40025 0.41025 0.26748 0.0
H1097 H 0.44251 0.442 0.25525 0.0
C1098 C 0.45817 0.50317 0.27532 0.0
C1099 C 0.46441 0.53525 0.28763 0.0
C1100 C 0.43337 0.48474 0.28275 0.0
C1101 C 0.44493 0.54818 0.30771 0.0
C1102 C 0.42005 0.53007 0.31502 0.0
C1103 C 0.38878 0.47946 0.30987 0.0
C1104 C 0.38315 0.44724 0.29733 0.0
C1105 C 0.41387 0.49818 0.3027 0.0
C1106 C 0.40332 0.43465 0.27765 0.0
C1107 C 0.42781 0.45293 0.27051 0.0
H1108 H 0.76669 0.67306 0.53268 0.0
H1109 H 0.88014 0.67861 0.57359 0.0
H1110 H 0.86795 0.70178 0.61866 0.0
H1111 H 0.826 0.72637 0.64463 0.0
H1112 H 0.71216 0.72684 0.60451 0.0
H1113 H 0.72342 0.69468 0.56138 0.0
C1114 C 0.78855 0.67922 0.55158 0.0
C1115 C 0.82413 0.67484 0.54954 0.0
C1116 C 0.78136 0.6934 0.57767 0.0
C1117 C 0.85239 0.68253 0.57425 0.0
C1118 C 0.84556 0.69554 0.60023 0.0
C1119 C 0.80355 0.71852 0.62692 0.0
C1120 C 0.76838 0.72874 0.6277 0.0
C1121 C 0.81024 0.70182 0.60193 0.0
C1122 C 0.73955 0.71911 0.60426 0.0
C1123 C 0.746 0.70103 0.57957 0.0
H1124 H 0.44153 0.94514 0.59527 0.0
H1125 H 0.42825 0.0465 0.62402 0.0
H1126 H 0.3949 1.0324 0.65711 0.0
H1127 H 0.3818 0.99033 0.685 0.0
H1128 H 0.39802 0.88912 0.65743 0.0
H1129 H 0.41711 0.90426 0.61594 0.0
C1130 C 0.43055 0.96445 0.60796 0.0
C1131 C 0.43874 0.99678 0.60795 0.0
C1132 C 0.41223 0.95608 0.62741 0.0
C1133 C 0.42355 1.02127 0.62442 0.0
C1134 C 0.4044 1.01323 0.64331 0.0
C1135 C 0.38832 0.97168 0.66929 0.0
C1136 C 0.38941 0.93872 0.67448 0.0
C1137 C 0.40047 0.98054 0.64618 0.0
C1138 C 0.39779 0.91467 0.65406 0.0
C1139 C 0.40877 0.92331 0.63045 0.0
H1140 H 0.25481 0.6202 0.65247 0.0
H1141 H 0.3659 0.60294 0.69918 0.0
H1142 H 0.35387 0.5506 0.71378 0.0
H1143 H 0.31077 0.51138 0.71429 0.0
H1144 H 0.19979 0.52803 0.66535 0.0
H1145 H 0.21247 0.57938 0.65048 0.0
C1146 C 0.27616 0.60471 0.66578 0.0
C1147 C 0.31095 0.61487 0.67512 0.0
C1148 C 0.26899 0.57491 0.67358 0.0
C1149 C 0.33894 0.5951 0.69204 0.0
C1150 C 0.33201 0.56542 0.70028 0.0
C1151 C 0.28949 0.52591 0.69993 0.0
C1152 C 0.25435 0.51597 0.69103 0.0
C1153 C 0.29704 0.5552 0.69126 0.0
C1154 C 0.22694 0.53539 0.67284 0.0
C1155 C 0.23418 0.56466 0.66424 0.0
H1156 H 0.64249 0.36919 0.64038 0.0
H1157 H 0.57879 0.35393 0.69833 0.0
H1158 H 0.63176 0.35568 0.74035 0.0
H1159 H 0.69733 0.35737 0.76059 0.0
H1160 H 0.7617 0.37372 0.70344 0.0
H1161 H 0.70812 0.37525 0.66156 0.0
C1162 C 0.64009 0.36733 0.66234 0.0
C1163 C 0.60636 0.36215 0.6662 0.0
C1164 C 0.67119 0.3676 0.68661 0.0
C1165 C 0.60413 0.35857 0.69475 0.0
C1166 C 0.63459 0.35917 0.71882 0.0
C1167 C 0.69968 0.36117 0.73895 0.0
C1168 C 0.73381 0.36489 0.73524 0.0
C1169 C 0.66847 0.36282 0.71499 0.0
C1170 C 0.73598 0.37053 0.70705 0.0
C1171 C 0.70522 0.37152 0.68302 0.0
H1172 H 0.86727 0.48887 0.46905 0.0
H1173 H 0.82101 0.55694 0.40277 0.0
H1174 H 0.82369 0.5143 0.36431 0.0
H1175 H 0.84103 0.45856 0.34991 0.0
H1176 H 0.87635 0.38734 0.4145 0.0
H1177 H 0.87764 0.43056 0.45386 0.0
C1178 C 0.85689 0.49396 0.44612 0.0
C1179 C 0.84382 0.52575 0.43857 0.0
C1180 C 0.85788 0.46914 0.42417 0.0
C1181 C 0.83071 0.53251 0.40899 0.0
C1182 C 0.83275 0.50827 0.38704 0.0
C1183 C 0.84952 0.45251 0.37257 0.0
C1184 C 0.85989 0.42019 0.37954 0.0
C1185 C 0.84696 0.47674 0.39447 0.0
C1186 C 0.86967 0.41241 0.40892 0.0
C1187 C 0.86971 0.43694 0.43124 0.0
H1188 H 0.66708 0.98924 0.5282 0.0
H1189 H 0.57898 1.02959 0.46084 0.0
H1190 H 0.60776 1.00596 0.42315 0.0
H1191 H 0.65519 0.96925 0.40941 0.0
H1192 H 0.74298 0.92866 0.47746 0.0
H1193 H 0.71626 0.95573 0.51482 0.0
C1194 C 0.6547 0.99334 0.50527 0.0
C1195 C 0.6212 1.01104 0.49723 0.0
C1196 C 0.67066 0.97871 0.48386 0.0
C1197 C 0.60511 1.01643 0.46755 0.0
C1198 C 0.62125 1.00246 0.446 0.0
C1199 C 0.66859 0.96654 0.43242 0.0
C1200 C 0.70073 0.94656 0.44058 0.0
C1201 C 0.65352 0.98277 0.4539 0.0
C1202 C 0.71766 0.94311 0.4705 0.0
C1203 C 0.70274 0.95898 0.49193 0.0
H1204 H 0.32702 0.81691 0.56773 0.0
H1205 H 0.21283 0.80853 0.54476 0.0
H1206 H 0.20535 0.83541 0.49987 0.0
H1207 H 0.23309 0.84533 0.46147 0.0
H1208 H 0.34811 0.84561 0.48137 0.0
H1209 H 0.35368 0.83797 0.53287 0.0
C1210 C 0.30044 0.82159 0.55314 0.0
C1211 C 0.27082 0.80934 0.55885 0.0
C1212 C 0.29667 0.83495 0.52639 0.0
C1213 C 0.23627 0.817 0.54064 0.0
C1214 C 0.23199 0.8321 0.51472 0.0
C1215 C 0.2592 0.84507 0.47737 0.0
C1216 C 0.2902 0.8453 0.46781 0.0
C1217 C 0.26227 0.83878 0.50641 0.0
C1218 C 0.32397 0.84494 0.4884 0.0
C1219 C 0.32714 0.84041 0.51773 0.0
H1220 H 0.42266 0.3247 0.49284 0.0
H1221 H 0.46605 0.41839 0.51354 0.0
H1222 H 0.43579 0.43353 0.46325 0.0
H1223 H 0.39885 0.41862 0.41198 0.0
H1224 H 0.35597 0.32468 0.39353 0.0
H1225 H 0.3846 0.31104 0.44401 0.0
C1226 C 0.42553 0.34862 0.48664 0.0
C1227 C 0.44696 0.37028 0.5073 0.0
C1228 C 0.40832 0.35696 0.45772 0.0
C1229 C 0.44986 0.40114 0.49839 0.0
C1230 C 0.43263 0.40973 0.46948 0.0
C1231 C 0.3957 0.39529 0.41918 0.0
C1232 C 0.3752 0.37263 0.39892 0.0
C1233 C 0.41212 0.38765 0.44873 0.0
C1234 C 0.37131 0.34256 0.40861 0.0
C1235 C 0.38776 0.33473 0.43752 0.0
H1236 H 0.57924 0.91258 0.66084 0.0
H1237 H 0.65189 0.94193 0.61576 0.0
H1238 H 0.70235 0.93293 0.65929 0.0
H1239 H 0.72538 0.92006 0.71203 0.0
H1240 H 0.65095 0.89072 0.75555 0.0
H1241 H 0.6022 0.89646 0.71114 0.0
C1242 C 0.60612 0.91677 0.66031 0.0
C1243 C 0.61147 0.92814 0.63492 0.0
C1244 C 0.63494 0.91184 0.68549 0.0
C1245 C 0.64675 0.93314 0.63485 0.0
C1246 C 0.67569 0.92816 0.65989 0.0
C1247 C 0.69854 0.91472 0.71165 0.0
C1248 C 0.69197 0.90524 0.73739 0.0
C1249 C 0.67007 0.91806 0.68563 0.0
C1250 C 0.65694 0.89837 0.73635 0.0
C1251 C 0.62888 0.90158 0.71084 0.0
H1252 H 0.6521 0.30351 0.53463 0.0
H1253 H 0.54814 0.33707 0.48129 0.0
H1254 H 0.57446 0.34481 0.44132 0.0
H1255 H 0.62721 0.34093 0.42077 0.0
H1256 H 0.73176 0.31106 0.47627 0.0
H1257 H 0.70509 0.30284 0.51532 0.0
C1258 C 0.63512 0.31237 0.51422 0.0
C1259 C 0.59793 0.3194 0.51111 0.0
C1260 C 0.65065 0.31736 0.49136 0.0
C1261 C 0.57673 0.3315 0.48452 0.0
C1262 C 0.59184 0.33587 0.46154 0.0
C1263 C 0.64441 0.33297 0.44144 0.0
C1264 C 0.6818 0.32604 0.4447 0.0
C1265 C 0.62885 0.32885 0.4646 0.0
C1266 C 0.70297 0.31566 0.4721 0.0
C1267 C 0.6877 0.31117 0.49485 0.0
H1268 H 0.82813 0.72622 0.41817 0.0
H1269 H 0.93659 0.68764 0.42464 0.0
H1270 H 0.94493 0.73125 0.396 0.0
H1271 H 0.91771 0.77527 0.36269 0.0
H1272 H 0.80744 0.81031 0.35371 0.0
H1273 H 0.80335 0.77425 0.38996 0.0
C1274 C 0.85395 0.72834 0.41423 0.0
C1275 C 0.88201 0.70438 0.4239 0.0
C1276 C 0.85798 0.75286 0.39703 0.0
C1277 C 0.91505 0.70641 0.41795 0.0
C1278 C 0.91957 0.73108 0.40128 0.0
C1279 C 0.8933 0.77578 0.36959 0.0
C1280 C 0.86333 0.79652 0.35636 0.0
C1281 C 0.89079 0.75379 0.38981 0.0
C1282 C 0.83136 0.79595 0.36451 0.0
C1283 C 0.82883 0.77477 0.38495 0.0
H1284 H 0.43416 0.89989 0.49271 0.0
H1285 H 0.51171 0.94551 0.46334 0.0
H1286 H 0.47495 0.93919 0.41257 0.0
H1287 H 0.42013 0.92045 0.37598 0.0
H1288 H 0.34298 0.87567 0.40676 0.0
H1289 H 0.37977 0.88231 0.45696 0.0
C1290 C 0.44326 0.90824 0.47524 0.0
C1291 C 0.47593 0.92295 0.48205 0.0
C1292 C 0.4217 0.90499 0.44607 0.0
C1293 C 0.48683 0.93395 0.45892 0.0
C1294 C 0.46569 0.93046 0.42978 0.0
C1295 C 0.41122 0.9125 0.39371 0.0
C1296 C 0.37864 0.89758 0.3873 0.0
C1297 C 0.43289 0.91614 0.42301 0.0
C1298 C 0.36785 0.88716 0.41073 0.0
C1299 C 0.38898 0.89084 0.43963 0.0
H1300 H 0.29934 0.65195 0.51674 0.0
H1301 H 0.38008 0.58375 0.56571 0.0
H1302 H 0.36936 0.54424 0.52342 0.0
H1303 H 0.33589 0.52839 0.47286 0.0
H1304 H 0.25712 0.59767 0.42322 0.0
H1305 H 0.26811 0.63712 0.4654 0.0
C1306 C 0.31456 0.62843 0.51818 0.0
C1307 C 0.34032 0.62081 0.54446 0.0
C1308 C 0.30857 0.60589 0.49362 0.0
C1309 C 0.36009 0.59032 0.54578 0.0
C1310 C 0.35396 0.56765 0.52159 0.0
C1311 C 0.32147 0.55226 0.47106 0.0
C1312 C 0.29541 0.55975 0.44482 0.0
C1313 C 0.32819 0.57512 0.49539 0.0
C1314 C 0.27678 0.59082 0.44322 0.0
C1315 C 0.28318 0.61355 0.46733 0.0
H1316 H 0.39244 0.3073 0.64484 0.0
H1317 H 0.48148 0.36245 0.69187 0.0
H1318 H 0.45606 0.37177 0.73379 0.0
H1319 H 0.40968 0.36319 0.75836 0.0
H1320 H 0.31912 0.30995 0.71175 0.0
H1321 H 0.3437 0.30115 0.66889 0.0
C1322 C 0.4064 0.32135 0.66423 0.0
C1323 C 0.43935 0.33402 0.66475 0.0
C1324 C 0.39122 0.32698 0.68861 0.0
C1325 C 0.45627 0.35254 0.69027 0.0
C1326 C 0.44171 0.35777 0.7145 0.0
C1327 C 0.3951 0.34969 0.73882 0.0
C1328 C 0.36245 0.33703 0.73872 0.0
C1329 C 0.40936 0.34499 0.71408 0.0
C1330 C 0.34411 0.32 0.71281 0.0
C1331 C 0.35836 0.31488 0.68822 0.0
H1332 H 0.84529 0.56965 0.58429 0.0
H1333 H 0.95422 0.53054 0.59112 0.0
H1334 H 0.95223 0.4976 0.63062 0.0
H1335 H 0.91969 0.47987 0.66343 0.0
H1336 H 0.81057 0.51859 0.65638 0.0
H1337 H 0.8125 0.55153 0.6168 0.0
C1338 C 0.86855 0.55376 0.59422 0.0
C1339 C 0.89992 0.5527 0.58456 0.0
C1340 C 0.86719 0.53478 0.61699 0.0
C1341 C 0.92991 0.53227 0.59821 0.0
C1342 C 0.92869 0.51322 0.62073 0.0
C1343 C 0.89617 0.49526 0.65308 0.0
C1344 C 0.86499 0.4966 0.663 0.0
C1345 C 0.89749 0.51425 0.63031 0.0
C1346 C 0.83506 0.51723 0.64953 0.0
C1347 C 0.83609 0.53601 0.62676 0.0
H1348 H 0.35191 0.79182 0.63261 0.0
H1349 H 0.39279 0.70999 0.68526 0.0
H1350 H 0.36116 0.73311 0.72134 0.0
H1351 H 0.32375 0.77725 0.73839 0.0
H1352 H 0.29045 0.86316 0.69044 0.0
H1353 H 0.31446 0.83694 0.65048 0.0
C1354 C 0.35303 0.77884 0.65167 0.0
C1355 C 0.3733 0.74874 0.65595 0.0
C1356 C 0.33513 0.79257 0.67245 0.0
C1357 C 0.37656 0.73285 0.68142 0.0
C1358 C 0.35847 0.74603 0.70194 0.0
C1359 C 0.32084 0.78978 0.71882 0.0
C1360 C 0.30435 0.82152 0.71682 0.0
C1361 C 0.33752 0.77572 0.69755 0.0
C1362 C 0.30195 0.83822 0.69188 0.0
C1363 C 0.31629 0.82346 0.6694 0.0
loop_
_geom_bond_atom_site_label_1
_geom_bond_atom_site_label_2
_geom_bond_distance
_geom_bond_site_symmetry_2
_ccdc_geom_bond_type
Cu0 N1 1.999 . S
Cu0 O6 1.974 . S
Cu0 N11 1.985 1_455 S
Cu0 O20 1.959 1_455 S
N1 Cu0 1.999 . S
N1 C3 1.263 . S
N1 C5 1.389 . S
N2 C3 1.358 . S
N2 C4 1.400 . S
C3 N1 1.263 . S
C3 N2 1.358 . S
C3 H9 0.930 . S
C4 N2 1.400 . S
C4 C5 1.351 . S
C4 H21 0.930 . S
C5 N1 1.389 . S
C5 C4 1.351 . S
C5 H10 0.930 . S
O6 Cu0 1.974 . S
O6 C16 1.282 . S
C7 O8 1.261 . S
C7 O20 1.251 . S
O8 C7 1.261 . S
H9 C3 0.930 . S
H10 C5 0.930 . S
N11 Cu0 1.985 1_655 S
N11 C13 1.335 . S
N11 C14 1.390 1_655 S
N12 C13 1.345 . S
N12 C15 1.336 1_545 S
C13 N11 1.335 . S
C13 N12 1.345 . S
C13 H18 0.930 . S
C14 N11 1.390 1_455 S
C14 C15 1.346 1_445 S
C14 H19 0.930 . S
C15 N12 1.336 1_565 S
C15 C14 1.346 1_665 S
C15 H22 0.929 . S
C16 O6 1.282 . S
C16 O17 1.216 . S
O17 C16 1.216 . S
H18 C13 0.930 . S
H19 C14 0.930 . S
O20 Cu0 1.959 1_655 S
O20 C7 1.251 . S
H21 C4 0.930 . S
H22 C15 0.929 . S
Cu23 N24 1.999 1_455 S
Cu23 O29 1.974 1_455 S
Cu23 N34 1.985 . S
Cu23 O43 1.959 . S
N24 Cu23 1.999 1_655 S
N24 C26 1.263 . S
N24 C28 1.389 . S
N25 C26 1.358 . S
N25 C27 1.400 . S
C26 N24 1.263 . S
C26 N25 1.358 . S
C26 H32 0.930 . S
C27 N25 1.400 . S
C27 C28 1.351 . S
C27 H44 0.930 1_545 S
C28 N24 1.389 . S
C28 C27 1.351 . S
C28 H33 0.930 1_655 S
O29 Cu23 1.974 1_655 S
O29 C39 1.282 . S
C30 O31 1.261 . S
C30 O43 1.251 . S
O31 C30 1.261 . S
H32 C26 0.930 . S
H33 C28 0.930 1_455 S
N34 Cu23 1.985 . S
N34 C36 1.335 . S
N34 C37 1.390 . S
N35 C36 1.345 . S
N35 C38 1.336 . S
C36 N34 1.335 . S
C36 N35 1.345 . S
C36 H41 0.930 . S
C37 N34 1.390 . S
C37 C38 1.346 . S
C37 H42 0.930 . S
C38 N35 1.336 . S
C38 C37 1.346 . S
C38 H45 0.929 . S
C39 O29 1.282 . S
C39 O40 1.216 . S
O40 C39 1.216 . S
H41 C36 0.930 . S
H42 C37 0.930 . S
O43 Cu23 1.959 . S
O43 C30 1.251 . S
H44 C27 0.930 1_565 S
H45 C38 0.929 . S
Cu46 N47 1.999 1_544 S
Cu46 O52 1.974 1_545 S
Cu46 N57 1.985 . S
Cu46 O66 1.959 1_554 S
N47 Cu46 1.999 1_566 S
N47 C49 1.263 . S
N47 C51 1.389 . S
N48 C49 1.358 . S
N48 C50 1.400 . S
C49 N47 1.263 . S
C49 N48 1.358 . S
C49 H55 0.930 . S
C50 N48 1.400 . S
C50 C51 1.351 . S
C50 H67 0.930 . S
C51 N47 1.389 . S
C51 C50 1.351 . S
C51 H56 0.930 . S
O52 Cu46 1.974 1_565 S
O52 C62 1.282 . S
C53 O54 1.261 . S
C53 O66 1.251 . S
O54 C53 1.261 . S
H55 C49 0.930 . S
H56 C51 0.930 . S
N57 Cu46 1.985 . S
N57 C59 1.335 . S
N57 C60 1.390 . S
N58 C59 1.345 . S
N58 C61 1.336 . S
C59 N57 1.335 . S
C59 N58 1.345 . S
C59 H64 0.930 . S
C60 N57 1.390 . S
C60 C61 1.346 . S
C60 H65 0.930 . S
C61 N58 1.336 . S
C61 C60 1.346 . S
C61 H68 0.929 . S
C62 O52 1.282 . S
C62 O63 1.216 . S
O63 C62 1.216 . S
H64 C59 0.930 . S
H65 C60 0.930 . S
O66 Cu46 1.959 1_556 S
O66 C53 1.251 . S
H67 C50 0.930 . S
H68 C61 0.929 . S
Cu69 N70 1.999 . S
Cu69 O75 1.974 . S
Cu69 N80 1.985 . S
Cu69 O89 1.959 . S
N70 Cu69 1.999 . S
N70 C72 1.263 . S
N70 C74 1.389 1_554 S
N71 C72 1.358 . S
N71 C73 1.400 1_554 S
C72 N70 1.263 . S
C72 N71 1.358 . S
C72 H78 0.930 . S
C73 N71 1.400 1_556 S
C73 C74 1.351 . S
C73 H90 0.930 . S
C74 N70 1.389 1_556 S
C74 C73 1.351 . S
C74 H79 0.930 . S
O75 Cu69 1.974 . S
O75 C85 1.282 . S
C76 O77 1.261 1_655 S
C76 O89 1.251 1_655 S
O77 C76 1.261 1_455 S
H78 C72 0.930 . S
H79 C74 0.930 . S
N80 Cu69 1.985 . S
N80 C82 1.335 1_455 S
N80 C83 1.390 . S
N81 C82 1.345 . S
N81 C84 1.336 1_655 S
C82 N80 1.335 1_655 S
C82 N81 1.345 . S
C82 H87 0.930 . S
C83 N80 1.390 . S
C83 C84 1.346 . S
C83 H88 0.930 . S
C84 N81 1.336 1_455 S
C84 C83 1.346 . S
C84 H91 0.929 . S
C85 O75 1.282 . S
C85 O86 1.216 . S
O86 C85 1.216 . S
H87 C82 0.930 . S
H88 C83 0.930 . S
O89 Cu69 1.959 . S
O89 C76 1.251 1_455 S
H90 C73 0.930 . S
H91 C84 0.929 . S
Cu92 N93 1.999 . S
Cu92 O98 1.974 . S
Cu92 N103 1.985 . S
Cu92 O112 1.959 . S
N93 Cu92 1.999 . S
N93 C95 1.263 . S
N93 C97 1.389 . S
N94 C95 1.358 . S
N94 C96 1.400 . S
C95 N93 1.263 . S
C95 N94 1.358 . S
C95 H101 0.930 . S
C96 N94 1.400 . S
C96 C97 1.351 . S
C96 H113 0.930 . S
C97 N93 1.389 . S
C97 C96 1.351 . S
C97 H102 0.930 . S
O98 Cu92 1.974 . S
O98 C108 1.282 . S
C99 O100 1.261 . S
C99 O112 1.251 . S
O100 C99 1.261 . S
H101 C95 0.930 . S
H102 C97 0.930 . S
N103 Cu92 1.985 . S
N103 C105 1.335 . S
N103 C106 1.390 . S
N104 C105 1.345 . S
N104 C107 1.336 . S
C105 N103 1.335 . S
C105 N104 1.345 . S
C105 H110 0.930 . S
C106 N103 1.390 . S
C106 C107 1.346 . S
C106 H111 0.930 . S
C107 N104 1.336 . S
C107 C106 1.346 . S
C107 H114 0.929 . S
C108 O98 1.282 . S
C108 O109 1.216 . S
O109 C108 1.216 . S
H110 C105 0.930 . S
H111 C106 0.930 . S
O112 Cu92 1.959 . S
O112 C99 1.251 . S
H113 C96 0.930 . S
H114 C107 0.929 . S
Cu115 N116 1.999 1_455 S
Cu115 O121 1.974 1_455 S
Cu115 N126 1.985 . S
Cu115 O135 1.959 . S
N116 Cu115 1.999 1_655 S
N116 C118 1.263 1_554 S
N116 C120 1.389 1_554 S
N117 C118 1.358 . S
N117 C119 1.400 . S
C118 N116 1.263 1_556 S
C118 N117 1.358 . S
C118 H124 0.930 1_556 S
C119 N117 1.400 . S
C119 C120 1.351 . S
C119 H136 0.930 . S
C120 N116 1.389 1_556 S
C120 C119 1.351 . S
C120 H125 0.930 1_655 S
O121 Cu115 1.974 1_655 S
O121 C131 1.282 . S
C122 O123 1.261 . S
C122 O135 1.251 . S
O123 C122 1.261 . S
H124 C118 0.930 1_554 S
H125 C120 0.930 1_455 S
N126 Cu115 1.985 . S
N126 C128 1.335 . S
N126 C129 1.390 . S
N127 C128 1.345 . S
N127 C130 1.336 . S
C128 N126 1.335 . S
C128 N127 1.345 . S
C128 H133 0.930 . S
C129 N126 1.390 . S
C129 C130 1.346 . S
C129 H134 0.930 . S
C130 N127 1.336 . S
C130 C129 1.346 . S
C130 H137 0.929 . S
C131 O121 1.282 . S
C131 O132 1.216 . S
O132 C131 1.216 . S
H133 C128 0.930 . S
H134 C129 0.930 . S
O135 Cu115 1.959 . S
O135 C122 1.251 . S
H136 C119 0.930 . S
H137 C130 0.929 . S
Cu138 N139 1.999 . S
Cu138 O144 1.974 . S
Cu138 N149 1.985 . S
Cu138 O158 1.959 . S
N139 Cu138 1.999 . S
N139 C141 1.263 . S
N139 C143 1.389 . S
N140 C141 1.358 . S
N140 C142 1.400 . S
C141 N139 1.263 . S
C141 N140 1.358 . S
C141 H147 0.930 . S
C142 N140 1.400 . S
C142 C143 1.351 . S
C142 H159 0.930 . S
C143 N139 1.389 . S
C143 C142 1.351 . S
C143 H148 0.930 . S
O144 Cu138 1.974 . S
O144 C154 1.282 . S
C145 O146 1.261 . S
C145 O158 1.251 . S
O146 C145 1.261 . S
H147 C141 0.930 . S
H148 C143 0.930 . S
N149 Cu138 1.985 . S
N149 C151 1.335 . S
N149 C152 1.390 . S
N150 C151 1.345 . S
N150 C153 1.336 . S
C151 N149 1.335 . S
C151 N150 1.345 . S
C151 H156 0.930 . S
C152 N149 1.390 . S
C152 C153 1.346 . S
C152 H157 0.930 . S
C153 N150 1.336 . S
C153 C152 1.346 . S
C153 H160 0.929 . S
C154 O144 1.282 . S
C154 O155 1.216 . S
O155 C154 1.216 . S
H156 C151 0.930 . S
H157 C152 0.930 . S
O158 Cu138 1.959 . S
O158 C145 1.251 . S
H159 C142 0.930 . S
H160 C153 0.929 . S
Cu161 N162 1.999 . S
Cu161 O167 1.974 . S
Cu161 N172 1.985 . S
Cu161 O181 1.959 . S
N162 Cu161 1.999 . S
N162 C164 1.263 . S
N162 C166 1.389 . S
N163 C164 1.358 . S
N163 C165 1.400 . S
C164 N162 1.263 . S
C164 N163 1.358 . S
C164 H170 0.930 . S
C165 N163 1.400 . S
C165 C166 1.351 . S
C165 H182 0.930 . S
C166 N162 1.389 . S
C166 C165 1.351 . S
C166 H171 0.930 . S
O167 Cu161 1.974 . S
O167 C177 1.282 . S
C168 O169 1.261 . S
C168 O181 1.251 . S
O169 C168 1.261 . S
H170 C164 0.930 . S
H171 C166 0.930 . S
N172 Cu161 1.985 . S
N172 C174 1.335 . S
N172 C175 1.390 . S
N173 C174 1.345 . S
N173 C176 1.336 . S
C174 N172 1.335 . S
C174 N173 1.345 . S
C174 H179 0.930 . S
C175 N172 1.390 . S
C175 C176 1.346 . S
C175 H180 0.930 . S
C176 N173 1.336 . S
C176 C175 1.346 . S
C176 H183 0.929 . S
C177 O167 1.282 . S
C177 O178 1.216 . S
O178 C177 1.216 . S
H179 C174 0.930 . S
H180 C175 0.930 . S
O181 Cu161 1.959 . S
O181 C168 1.251 . S
H182 C165 0.930 . S
H183 C176 0.929 . S
Cu184 N185 1.999 . S
Cu184 O190 1.974 . S
Cu184 N195 1.985 . S
Cu184 O204 1.959 . S
N185 Cu184 1.999 . S
N185 C187 1.263 . S
N185 C189 1.389 . S
N186 C187 1.358 . S
N186 C188 1.400 . S
C187 N185 1.263 . S
C187 N186 1.358 . S
C187 H193 0.930 . S
C188 N186 1.400 . S
C188 C189 1.351 . S
C188 H205 0.930 . S
C189 N185 1.389 . S
C189 C188 1.351 . S
C189 H194 0.930 . S
O190 Cu184 1.974 . S
O190 C200 1.282 . S
C191 O192 1.261 . S
C191 O204 1.251 . S
O192 C191 1.261 . S
H193 C187 0.930 . S
H194 C189 0.930 . S
N195 Cu184 1.985 . S
N195 C197 1.335 . S
N195 C198 1.390 . S
N196 C197 1.345 . S
N196 C199 1.336 . S
C197 N195 1.335 . S
C197 N196 1.345 . S
C197 H202 0.930 . S
C198 N195 1.390 . S
C198 C199 1.346 . S
C198 H203 0.930 . S
C199 N196 1.336 . S
C199 C198 1.346 . S
C199 H206 0.929 . S
C200 O190 1.282 . S
C200 O201 1.216 . S
O201 C200 1.216 . S
H202 C197 0.930 . S
H203 C198 0.930 . S
O204 Cu184 1.959 . S
O204 C191 1.251 . S
H205 C188 0.930 . S
H206 C199 0.929 . S
Cu207 N208 1.999 . S
Cu207 O213 1.974 . S
Cu207 N218 1.985 . S
Cu207 O227 1.959 . S
N208 Cu207 1.999 . S
N208 C210 1.263 . S
N208 C212 1.389 . S
N209 C210 1.358 . S
N209 C211 1.400 . S
C210 N208 1.263 . S
C210 N209 1.358 . S
C210 H216 0.930 . S
C211 N209 1.400 . S
C211 C212 1.351 . S
C211 H228 0.930 . S
C212 N208 1.389 . S
C212 C211 1.351 . S
C212 H217 0.930 . S
O213 Cu207 1.974 . S
O213 C223 1.282 . S
C214 O215 1.261 . S
C214 O227 1.251 . S
O215 C214 1.261 . S
H216 C210 0.930 . S
H217 C212 0.930 . S
N218 Cu207 1.985 . S
N218 C220 1.335 . S
N218 C221 1.390 . S
N219 C220 1.345 . S
N219 C222 1.336 . S
C220 N218 1.335 . S
C220 N219 1.345 . S
C220 H225 0.930 . S
C221 N218 1.390 . S
C221 C222 1.346 . S
C221 H226 0.930 . S
C222 N219 1.336 . S
C222 C221 1.346 . S
C222 H229 0.929 . S
C223 O213 1.282 . S
C223 O224 1.216 . S
O224 C223 1.216 . S
H225 C220 0.930 . S
H226 C221 0.930 . S
O227 Cu207 1.959 . S
O227 C214 1.251 . S
H228 C211 0.930 . S
H229 C222 0.929 . S
Cu230 N231 1.999 . S
Cu230 O236 1.974 . S
Cu230 N241 1.985 . S
Cu230 O250 1.959 . S
N231 Cu230 1.999 . S
N231 C233 1.263 . S
N231 C235 1.389 . S
N232 C233 1.358 . S
N232 C234 1.400 . S
C233 N231 1.263 . S
C233 N232 1.358 . S
C233 H239 0.930 . S
C234 N232 1.400 . S
C234 C235 1.351 . S
C234 H251 0.930 . S
C235 N231 1.389 . S
C235 C234 1.351 . S
C235 H240 0.930 . S
O236 Cu230 1.974 . S
O236 C246 1.282 . S
C237 O238 1.261 . S
C237 O250 1.251 . S
O238 C237 1.261 . S
H239 C233 0.930 . S
H240 C235 0.930 . S
N241 Cu230 1.985 . S
N241 C243 1.335 . S
N241 C244 1.390 . S
N242 C243 1.345 . S
N242 C245 1.336 . S
C243 N241 1.335 . S
C243 N242 1.345 . S
C243 H248 0.930 . S
C244 N241 1.390 . S
C244 C245 1.346 . S
C244 H249 0.930 . S
C245 N242 1.336 . S
C245 C244 1.346 . S
C245 H252 0.929 . S
C246 O236 1.282 . S
C246 O247 1.216 . S
O247 C246 1.216 . S
H248 C243 0.930 . S
H249 C244 0.930 . S
O250 Cu230 1.959 . S
O250 C237 1.251 . S
H251 C234 0.930 . S
H252 C245 0.929 . S
Cu253 N254 1.999 . S
Cu253 O259 1.974 . S
Cu253 N264 1.985 . S
Cu253 O273 1.959 . S
N254 Cu253 1.999 . S
N254 C256 1.263 . S
N254 C258 1.389 . S
N255 C256 1.358 . S
N255 C257 1.400 . S
C256 N254 1.263 . S
C256 N255 1.358 . S
C256 H262 0.930 . S
C257 N255 1.400 . S
C257 C258 1.351 . S
C257 H274 0.930 . S
C258 N254 1.389 . S
C258 C257 1.351 . S
C258 H263 0.930 . S
O259 Cu253 1.974 . S
O259 C269 1.282 . S
C260 O261 1.261 . S
C260 O273 1.251 . S
O261 C260 1.261 . S
H262 C256 0.930 . S
H263 C258 0.930 . S
N264 Cu253 1.985 . S
N264 C266 1.335 . S
N264 C267 1.390 . S
N265 C266 1.345 . S
N265 C268 1.336 . S
C266 N264 1.335 . S
C266 N265 1.345 . S
C266 H271 0.930 . S
C267 N264 1.390 . S
C267 C268 1.346 . S
C267 H272 0.930 . S
C268 N265 1.336 . S
C268 C267 1.346 . S
C268 H275 0.929 . S
C269 O259 1.282 . S
C269 O270 1.216 . S
O270 C269 1.216 . S
H271 C266 0.930 . S
H272 C267 0.930 . S
O273 Cu253 1.959 . S
O273 C260 1.251 . S
H274 C257 0.930 . S
H275 C268 0.929 . S
Nd276 C278 2.836 . S
Nd276 O296 2.500 . S
Nd276 O297 2.492 . S
Nd276 O298 2.487 . S
Nd276 O299 2.682 . S
Nd276 O300 2.410 . S
Nd276 O305 2.414 . S
Nd276 O307 2.424 . S
Nd277 C287 2.836 . S
Nd277 O299 2.414 . S
Nd277 O301 2.424 . S
Nd277 O302 2.500 . S
Nd277 O303 2.492 . S
Nd277 O304 2.487 . S
Nd277 O305 2.682 . S
Nd277 O306 2.410 . S
C278 Nd276 2.836 . S
C278 C279 1.498 . S
C278 O296 1.258 . S
C278 O297 1.239 . S
C279 C278 1.498 . S
C279 C280 1.366 . S
C279 C284 1.407 . S
C280 C279 1.366 . S
C280 C281 1.392 . S
C280 H308 0.930 . S
C281 C280 1.392 . S
C281 C282 1.398 . S
C281 H309 0.929 . S
C282 C281 1.398 . S
C282 C283 1.352 . S
C283 C282 1.352 . S
C283 C284 1.384 . S
C283 H310 0.930 . S
C284 C279 1.407 . S
C284 C283 1.384 . S
C284 H311 0.929 . S
C285 O298 1.241 . S
C285 O299 1.273 . S
C286 O300 1.251 . S
C286 O301 1.268 . S
C287 Nd277 2.836 . S
C287 C288 1.498 . S
C287 O302 1.258 . S
C287 O303 1.239 . S
C288 C287 1.498 . S
C288 C289 1.366 . S
C288 C293 1.407 . S
C289 C288 1.366 . S
C289 C290 1.392 . S
C289 H312 0.930 . S
C290 C289 1.392 . S
C290 C291 1.398 . S
C290 H313 0.929 . S
C291 C290 1.398 . S
C291 C292 1.352 . S
C292 C291 1.352 . S
C292 C293 1.384 . S
C292 H314 0.930 . S
C293 C288 1.407 . S
C293 C292 1.384 . S
C293 H315 0.929 . S
C294 O304 1.241 . S
C294 O305 1.273 . S
C295 O306 1.251 . S
C295 O307 1.268 . S
O296 Nd276 2.500 . S
O296 C278 1.258 . S
O297 Nd276 2.492 . S
O297 C278 1.239 . S
O298 Nd276 2.487 . S
O298 C285 1.241 . S
O299 Nd276 2.682 . S
O299 Nd277 2.414 . S
O299 C285 1.273 . S
O300 Nd276 2.410 . S
O300 C286 1.251 . S
O301 Nd277 2.424 . S
O301 C286 1.268 . S
O302 Nd277 2.500 . S
O302 C287 1.258 . S
O303 Nd277 2.492 . S
O303 C287 1.239 . S
O304 Nd277 2.487 . S
O304 C294 1.241 . S
O305 Nd276 2.414 . S
O305 Nd277 2.682 . S
O305 C294 1.273 . S
O306 Nd277 2.410 . S
O306 C295 1.251 . S
O307 Nd276 2.424 . S
O307 C295 1.268 . S
H308 C280 0.930 . S
H309 C281 0.929 . S
H310 C283 0.930 . S
H311 C284 0.929 . S
H312 C289 0.930 . S
H313 C290 0.929 . S
H314 C292 0.930 . S
H315 C293 0.929 . S
Nd316 C318 2.836 . S
Nd316 O336 2.500 . S
Nd316 O337 2.492 . S
Nd316 O338 2.487 . S
Nd316 O339 2.682 . S
Nd316 O340 2.410 . S
Nd316 O345 2.414 . S
Nd316 O347 2.424 . S
Nd317 C327 2.836 . S
Nd317 O339 2.414 . S
Nd317 O341 2.424 . S
Nd317 O342 2.500 . S
Nd317 O343 2.492 . S
Nd317 O344 2.487 . S
Nd317 O345 2.682 . S
Nd317 O346 2.410 . S
C318 Nd316 2.836 . S
C318 C319 1.498 . S
C318 O336 1.258 . S
C318 O337 1.239 . S
C319 C318 1.498 . S
C319 C320 1.366 . S
C319 C324 1.407 . S
C320 C319 1.366 . S
C320 C321 1.392 . S
C320 H348 0.930 . S
C321 C320 1.392 . S
C321 C322 1.398 . S
C321 H349 0.929 . S
C322 C321 1.398 . S
C322 C323 1.352 . S
C323 C322 1.352 . S
C323 C324 1.384 . S
C323 H350 0.930 . S
C324 C319 1.407 . S
C324 C323 1.384 . S
C324 H351 0.929 . S
C325 O338 1.241 . S
C325 O339 1.273 . S
C326 O340 1.251 . S
C326 O341 1.268 . S
C327 Nd317 2.836 . S
C327 C328 1.498 . S
C327 O342 1.258 . S
C327 O343 1.239 . S
C328 C327 1.498 . S
C328 C329 1.366 . S
C328 C333 1.407 . S
C329 C328 1.366 . S
C329 C330 1.392 . S
C329 H352 0.930 . S
C330 C329 1.392 . S
C330 C331 1.398 . S
C330 H353 0.929 . S
C331 C330 1.398 . S
C331 C332 1.352 . S
C332 C331 1.352 . S
C332 C333 1.384 . S
C332 H354 0.930 . S
C333 C328 1.407 . S
C333 C332 1.384 . S
C333 H355 0.929 . S
C334 O344 1.241 . S
C334 O345 1.273 . S
C335 O346 1.251 . S
C335 O347 1.268 . S
O336 Nd316 2.500 . S
O336 C318 1.258 . S
O337 Nd316 2.492 . S
O337 C318 1.239 . S
O338 Nd316 2.487 . S
O338 C325 1.241 . S
O339 Nd316 2.682 . S
O339 Nd317 2.414 . S
O339 C325 1.273 . S
O340 Nd316 2.410 . S
O340 C326 1.251 . S
O341 Nd317 2.424 . S
O341 C326 1.268 . S
O342 Nd317 2.500 . S
O342 C327 1.258 . S
O343 Nd317 2.492 . S
O343 C327 1.239 . S
O344 Nd317 2.487 . S
O344 C334 1.241 . S
O345 Nd316 2.414 . S
O345 Nd317 2.682 . S
O345 C334 1.273 . S
O346 Nd317 2.410 . S
O346 C335 1.251 . S
O347 Nd316 2.424 . S
O347 C335 1.268 . S
H348 C320 0.930 . S
H349 C321 0.929 . S
H350 C323 0.930 . S
H351 C324 0.929 . S
H352 C329 0.930 . S
H353 C330 0.929 . S
H354 C332 0.930 . S
H355 C333 0.929 . S
Nd356 C358 2.836 . S
Nd356 O376 2.500 . S
Nd356 O377 2.492 . S
Nd356 O378 2.487 . S
Nd356 O379 2.682 . S
Nd356 O380 2.410 . S
Nd356 O385 2.414 . S
Nd356 O387 2.424 . S
Nd357 C367 2.836 . S
Nd357 O379 2.414 . S
Nd357 O381 2.424 . S
Nd357 O382 2.500 . S
Nd357 O383 2.492 . S
Nd357 O384 2.487 . S
Nd357 O385 2.682 . S
Nd357 O386 2.410 . S
C358 Nd356 2.836 . S
C358 C359 1.498 . S
C358 O376 1.258 . S
C358 O377 1.239 . S
C359 C358 1.498 . S
C359 C360 1.366 . S
C359 C364 1.407 . S
C360 C359 1.366 . S
C360 C361 1.392 . S
C360 H388 0.930 . S
C361 C360 1.392 . S
C361 C362 1.398 . S
C361 H389 0.929 . S
C362 C361 1.398 . S
C362 C363 1.352 . S
C363 C362 1.352 . S
C363 C364 1.384 . S
C363 H390 0.930 . S
C364 C359 1.407 . S
C364 C363 1.384 . S
C364 H391 0.929 . S
C365 O378 1.241 . S
C365 O379 1.273 . S
C366 O380 1.251 . S
C366 O381 1.268 . S
C367 Nd357 2.836 . S
C367 C368 1.498 . S
C367 O382 1.258 . S
C367 O383 1.239 . S
C368 C367 1.498 . S
C368 C369 1.366 . S
C368 C373 1.407 . S
C369 C368 1.366 . S
C369 C370 1.392 . S
C369 H392 0.930 . S
C370 C369 1.392 . S
C370 C371 1.398 . S
C370 H393 0.929 . S
C371 C370 1.398 . S
C371 C372 1.352 . S
C372 C371 1.352 . S
C372 C373 1.384 . S
C372 H394 0.930 . S
C373 C368 1.407 . S
C373 C372 1.384 . S
C373 H395 0.929 . S
C374 O384 1.241 . S
C374 O385 1.273 . S
C375 O386 1.251 . S
C375 O387 1.268 . S
O376 Nd356 2.500 . S
O376 C358 1.258 . S
O377 Nd356 2.492 . S
O377 C358 1.239 . S
O378 Nd356 2.487 . S
O378 C365 1.241 . S
O379 Nd356 2.682 . S
O379 Nd357 2.414 . S
O379 C365 1.273 . S
O380 Nd356 2.410 . S
O380 C366 1.251 . S
O381 Nd357 2.424 . S
O381 C366 1.268 . S
O382 Nd357 2.500 . S
O382 C367 1.258 . S
O383 Nd357 2.492 . S
O383 C367 1.239 . S
O384 Nd357 2.487 . S
O384 C374 1.241 . S
O385 Nd356 2.414 . S
O385 Nd357 2.682 . S
O385 C374 1.273 . S
O386 Nd357 2.410 . S
O386 C375 1.251 . S
O387 Nd356 2.424 . S
O387 C375 1.268 . S
H388 C360 0.930 . S
H389 C361 0.929 . S
H390 C363 0.930 . S
H391 C364 0.929 . S
H392 C369 0.930 . S
H393 C370 0.929 . S
H394 C372 0.930 . S
H395 C373 0.929 . S
Nd396 C398 2.836 . S
Nd396 O416 2.500 . S
Nd396 O417 2.492 . S
Nd396 O418 2.487 . S
Nd396 O419 2.682 . S
Nd396 O420 2.410 . S
Nd396 O425 2.414 . S
Nd396 O427 2.424 . S
Nd397 C407 2.836 . S
Nd397 O419 2.414 . S
Nd397 O421 2.424 . S
Nd397 O422 2.500 . S
Nd397 O423 2.492 . S
Nd397 O424 2.487 . S
Nd397 O425 2.682 . S
Nd397 O426 2.410 . S
C398 Nd396 2.836 . S
C398 C399 1.498 . S
C398 O416 1.258 . S
C398 O417 1.239 . S
C399 C398 1.498 . S
C399 C400 1.366 . S
C399 C404 1.407 . S
C400 C399 1.366 . S
C400 C401 1.392 . S
C400 H428 0.930 . S
C401 C400 1.392 . S
C401 C402 1.398 . S
C401 H429 0.929 . S
C402 C401 1.398 . S
C402 C403 1.352 . S
C403 C402 1.352 . S
C403 C404 1.384 . S
C403 H430 0.930 . S
C404 C399 1.407 . S
C404 C403 1.384 . S
C404 H431 0.929 . S
C405 O418 1.241 . S
C405 O419 1.273 . S
C406 O420 1.251 . S
C406 O421 1.268 . S
C407 Nd397 2.836 . S
C407 C408 1.498 . S
C407 O422 1.258 . S
C407 O423 1.239 . S
C408 C407 1.498 . S
C408 C409 1.366 . S
C408 C413 1.407 . S
C409 C408 1.366 . S
C409 C410 1.392 . S
C409 H432 0.930 . S
C410 C409 1.392 . S
C410 C411 1.398 . S
C410 H433 0.929 . S
C411 C410 1.398 . S
C411 C412 1.352 . S
C412 C411 1.352 . S
C412 C413 1.384 . S
C412 H434 0.930 . S
C413 C408 1.407 . S
C413 C412 1.384 . S
C413 H435 0.929 . S
C414 O424 1.241 . S
C414 O425 1.273 . S
C415 O426 1.251 . S
C415 O427 1.268 . S
O416 Nd396 2.500 . S
O416 C398 1.258 . S
O417 Nd396 2.492 . S
O417 C398 1.239 . S
O418 Nd396 2.487 . S
O418 C405 1.241 . S
O419 Nd396 2.682 . S
O419 Nd397 2.414 . S
O419 C405 1.273 . S
O420 Nd396 2.410 . S
O420 C406 1.251 . S
O421 Nd397 2.424 . S
O421 C406 1.268 . S
O422 Nd397 2.500 . S
O422 C407 1.258 . S
O423 Nd397 2.492 . S
O423 C407 1.239 . S
O424 Nd397 2.487 . S
O424 C414 1.241 . S
O425 Nd396 2.414 . S
O425 Nd397 2.682 . S
O425 C414 1.273 . S
O426 Nd397 2.410 . S
O426 C415 1.251 . S
O427 Nd396 2.424 . S
O427 C415 1.268 . S
H428 C400 0.930 . S
H429 C401 0.929 . S
H430 C403 0.930 . S
H431 C404 0.929 . S
H432 C409 0.930 . S
H433 C410 0.929 . S
H434 C412 0.930 . S
H435 C413 0.929 . S
Nd436 C438 2.836 . S
Nd436 O456 2.500 . S
Nd436 O457 2.492 . S
Nd436 O458 2.487 . S
Nd436 O459 2.682 . S
Nd436 O460 2.410 . S
Nd436 O465 2.414 . S
Nd436 O467 2.424 . S
Nd437 C447 2.836 . S
Nd437 O459 2.414 . S
Nd437 O461 2.424 . S
Nd437 O462 2.500 . S
Nd437 O463 2.492 . S
Nd437 O464 2.487 . S
Nd437 O465 2.682 . S
Nd437 O466 2.410 . S
C438 Nd436 2.836 . S
C438 C439 1.498 . S
C438 O456 1.258 . S
C438 O457 1.239 . S
C439 C438 1.498 . S
C439 C440 1.366 . S
C439 C444 1.407 . S
C440 C439 1.366 . S
C440 C441 1.392 . S
C440 H468 0.930 . S
C441 C440 1.392 . S
C441 C442 1.398 . S
C441 H469 0.929 . S
C442 C441 1.398 . S
C442 C443 1.352 . S
C443 C442 1.352 . S
C443 C444 1.384 . S
C443 H470 0.930 . S
C444 C439 1.407 . S
C444 C443 1.384 . S
C444 H471 0.929 . S
C445 O458 1.241 . S
C445 O459 1.273 . S
C446 O460 1.251 . S
C446 O461 1.268 . S
C447 Nd437 2.836 . S
C447 C448 1.498 . S
C447 O462 1.258 . S
C447 O463 1.239 . S
C448 C447 1.498 . S
C448 C449 1.366 . S
C448 C453 1.407 . S
C449 C448 1.366 . S
C449 C450 1.392 . S
C449 H472 0.930 . S
C450 C449 1.392 . S
C450 C451 1.398 . S
C450 H473 0.929 . S
C451 C450 1.398 . S
C451 C452 1.352 . S
C452 C451 1.352 . S
C452 C453 1.384 . S
C452 H474 0.930 . S
C453 C448 1.407 . S
C453 C452 1.384 . S
C453 H475 0.929 . S
C454 O464 1.241 . S
C454 O465 1.273 . S
C455 O466 1.251 . S
C455 O467 1.268 . S
O456 Nd436 2.500 . S
O456 C438 1.258 . S
O457 Nd436 2.492 . S
O457 C438 1.239 . S
O458 Nd436 2.487 . S
O458 C445 1.241 . S
O459 Nd436 2.682 . S
O459 Nd437 2.414 . S
O459 C445 1.273 . S
O460 Nd436 2.410 . S
O460 C446 1.251 . S
O461 Nd437 2.424 . S
O461 C446 1.268 . S
O462 Nd437 2.500 . S
O462 C447 1.258 . S
O463 Nd437 2.492 . S
O463 C447 1.239 . S
O464 Nd437 2.487 . S
O464 C454 1.241 . S
O465 Nd436 2.414 . S
O465 Nd437 2.682 . S
O465 C454 1.273 . S
O466 Nd437 2.410 . S
O466 C455 1.251 . S
O467 Nd436 2.424 . S
O467 C455 1.268 . S
H468 C440 0.930 . S
H469 C441 0.929 . S
H470 C443 0.930 . S
H471 C444 0.929 . S
H472 C449 0.930 . S
H473 C450 0.929 . S
H474 C452 0.930 . S
H475 C453 0.929 . S
Nd476 C478 2.836 . S
Nd476 O496 2.500 . S
Nd476 O497 2.492 . S
Nd476 O498 2.487 . S
Nd476 O499 2.682 . S
Nd476 O500 2.410 . S
Nd476 O505 2.414 . S
Nd476 O507 2.424 . S
Nd477 C487 2.836 . S
Nd477 O499 2.414 . S
Nd477 O501 2.424 . S
Nd477 O502 2.500 . S
Nd477 O503 2.492 . S
Nd477 O504 2.487 . S
Nd477 O505 2.682 . S
Nd477 O506 2.410 . S
C478 Nd476 2.836 . S
C478 C479 1.498 . S
C478 O496 1.258 . S
C478 O497 1.239 . S
C479 C478 1.498 . S
C479 C480 1.366 . S
C479 C484 1.407 . S
C480 C479 1.366 . S
C480 C481 1.392 . S
C480 H508 0.930 . S
C481 C480 1.392 . S
C481 C482 1.398 . S
C481 H509 0.929 . S
C482 C481 1.398 . S
C482 C483 1.352 . S
C483 C482 1.352 . S
C483 C484 1.384 . S
C483 H510 0.930 . S
C484 C479 1.407 . S
C484 C483 1.384 . S
C484 H511 0.929 . S
C485 O498 1.241 . S
C485 O499 1.273 . S
C486 O500 1.251 . S
C486 O501 1.268 . S
C487 Nd477 2.836 . S
C487 C488 1.498 . S
C487 O502 1.258 . S
C487 O503 1.239 . S
C488 C487 1.498 . S
C488 C489 1.366 . S
C488 C493 1.407 . S
C489 C488 1.366 . S
C489 C490 1.392 . S
C489 H512 0.930 . S
C490 C489 1.392 . S
C490 C491 1.398 . S
C490 H513 0.929 . S
C491 C490 1.398 . S
C491 C492 1.352 . S
C492 C491 1.352 . S
C492 C493 1.384 . S
C492 H514 0.930 . S
C493 C488 1.407 . S
C493 C492 1.384 . S
C493 H515 0.929 . S
C494 O504 1.241 . S
C494 O505 1.273 . S
C495 O506 1.251 . S
C495 O507 1.268 . S
O496 Nd476 2.500 . S
O496 C478 1.258 . S
O497 Nd476 2.492 . S
O497 C478 1.239 . S
O498 Nd476 2.487 . S
O498 C485 1.241 . S
O499 Nd476 2.682 . S
O499 Nd477 2.414 . S
O499 C485 1.273 . S
O500 Nd476 2.410 . S
O500 C486 1.251 . S
O501 Nd477 2.424 . S
O501 C486 1.268 . S
O502 Nd477 2.500 . S
O502 C487 1.258 . S
O503 Nd477 2.492 . S
O503 C487 1.239 . S
O504 Nd477 2.487 . S
O504 C494 1.241 . S
O505 Nd476 2.414 . S
O505 Nd477 2.682 . S
O505 C494 1.273 . S
O506 Nd477 2.410 . S
O506 C495 1.251 . S
O507 Nd476 2.424 . S
O507 C495 1.268 . S
H508 C480 0.930 . S
H509 C481 0.929 . S
H510 C483 0.930 . S
H511 C484 0.929 . S
H512 C489 0.930 . S
H513 C490 0.929 . S
H514 C492 0.930 . S
H515 C493 0.929 . S
Nd516 C518 2.836 . S
Nd516 O536 2.500 . S
Nd516 O537 2.492 . S
Nd516 O538 2.487 . S
Nd516 O539 2.682 . S
Nd516 O540 2.410 . S
Nd516 O545 2.414 . S
Nd516 O547 2.424 . S
Nd517 C527 2.836 . S
Nd517 O539 2.414 . S
Nd517 O541 2.424 . S
Nd517 O542 2.500 . S
Nd517 O543 2.492 . S
Nd517 O544 2.487 . S
Nd517 O545 2.682 . S
Nd517 O546 2.410 . S
C518 Nd516 2.836 . S
C518 C519 1.498 . S
C518 O536 1.258 . S
C518 O537 1.239 . S
C519 C518 1.498 . S
C519 C520 1.366 . S
C519 C524 1.407 . S
C520 C519 1.366 . S
C520 C521 1.392 . S
C520 H548 0.930 . S
C521 C520 1.392 . S
C521 C522 1.398 . S
C521 H549 0.929 . S
C522 C521 1.398 . S
C522 C523 1.352 . S
C523 C522 1.352 . S
C523 C524 1.384 . S
C523 H550 0.930 . S
C524 C519 1.407 . S
C524 C523 1.384 . S
C524 H551 0.929 . S
C525 O538 1.241 . S
C525 O539 1.273 . S
C526 O540 1.251 . S
C526 O541 1.268 . S
C527 Nd517 2.836 . S
C527 C528 1.498 . S
C527 O542 1.258 . S
C527 O543 1.239 . S
C528 C527 1.498 . S
C528 C529 1.366 . S
C528 C533 1.407 . S
C529 C528 1.366 . S
C529 C530 1.392 . S
C529 H552 0.930 . S
C530 C529 1.392 . S
C530 C531 1.398 . S
C530 H553 0.929 . S
C531 C530 1.398 . S
C531 C532 1.352 . S
C532 C531 1.352 . S
C532 C533 1.384 . S
C532 H554 0.930 . S
C533 C528 1.407 . S
C533 C532 1.384 . S
C533 H555 0.929 . S
C534 O544 1.241 . S
C534 O545 1.273 . S
C535 O546 1.251 . S
C535 O547 1.268 . S
O536 Nd516 2.500 . S
O536 C518 1.258 . S
O537 Nd516 2.492 . S
O537 C518 1.239 . S
O538 Nd516 2.487 . S
O538 C525 1.241 . S
O539 Nd516 2.682 . S
O539 Nd517 2.414 . S
O539 C525 1.273 . S
O540 Nd516 2.410 . S
O540 C526 1.251 . S
O541 Nd517 2.424 . S
O541 C526 1.268 . S
O542 Nd517 2.500 . S
O542 C527 1.258 . S
O543 Nd517 2.492 . S
O543 C527 1.239 . S
O544 Nd517 2.487 . S
O544 C534 1.241 . S
O545 Nd516 2.414 . S
O545 Nd517 2.682 . S
O545 C534 1.273 . S
O546 Nd517 2.410 . S
O546 C535 1.251 . S
O547 Nd516 2.424 . S
O547 C535 1.268 . S
H548 C520 0.930 . S
H549 C521 0.929 . S
H550 C523 0.930 . S
H551 C524 0.929 . S
H552 C529 0.930 . S
H553 C530 0.929 . S
H554 C532 0.930 . S
H555 C533 0.929 . S
Nd556 C558 2.836 . S
Nd556 O576 2.500 . S
Nd556 O577 2.492 . S
Nd556 O578 2.487 . S
Nd556 O579 2.682 . S
Nd556 O580 2.410 . S
Nd556 O585 2.414 . S
Nd556 O587 2.424 . S
Nd557 C567 2.836 . S
Nd557 O579 2.414 . S
Nd557 O581 2.424 . S
Nd557 O582 2.500 . S
Nd557 O583 2.492 . S
Nd557 O584 2.487 . S
Nd557 O585 2.682 . S
Nd557 O586 2.410 . S
C558 Nd556 2.836 . S
C558 C559 1.498 . S
C558 O576 1.258 . S
C558 O577 1.239 . S
C559 C558 1.498 . S
C559 C560 1.366 . S
C559 C564 1.407 . S
C560 C559 1.366 . S
C560 C561 1.392 . S
C560 H588 0.930 . S
C561 C560 1.392 . S
C561 C562 1.398 . S
C561 H589 0.929 . S
C562 C561 1.398 . S
C562 C563 1.352 . S
C563 C562 1.352 . S
C563 C564 1.384 . S
C563 H590 0.930 . S
C564 C559 1.407 . S
C564 C563 1.384 . S
C564 H591 0.929 . S
C565 O578 1.241 . S
C565 O579 1.273 . S
C566 O580 1.251 . S
C566 O581 1.268 . S
C567 Nd557 2.836 . S
C567 C568 1.498 . S
C567 O582 1.258 . S
C567 O583 1.239 . S
C568 C567 1.498 . S
C568 C569 1.366 . S
C568 C573 1.407 . S
C569 C568 1.366 . S
C569 C570 1.392 . S
C569 H592 0.930 . S
C570 C569 1.392 . S
C570 C571 1.398 . S
C570 H593 0.929 . S
C571 C570 1.398 . S
C571 C572 1.352 . S
C572 C571 1.352 . S
C572 C573 1.384 . S
C572 H594 0.930 1_565 S
C573 C568 1.407 . S
C573 C572 1.384 . S
C573 H595 0.929 . S
C574 O584 1.241 . S
C574 O585 1.273 . S
C575 O586 1.251 . S
C575 O587 1.268 . S
O576 Nd556 2.500 . S
O576 C558 1.258 . S
O577 Nd556 2.492 . S
O577 C558 1.239 . S
O578 Nd556 2.487 . S
O578 C565 1.241 . S
O579 Nd556 2.682 . S
O579 Nd557 2.414 . S
O579 C565 1.273 . S
O580 Nd556 2.410 . S
O580 C566 1.251 . S
O581 Nd557 2.424 . S
O581 C566 1.268 . S
O582 Nd557 2.500 . S
O582 C567 1.258 . S
O583 Nd557 2.492 . S
O583 C567 1.239 . S
O584 Nd557 2.487 . S
O584 C574 1.241 . S
O585 Nd556 2.414 . S
O585 Nd557 2.682 . S
O585 C574 1.273 . S
O586 Nd557 2.410 . S
O586 C575 1.251 . S
O587 Nd556 2.424 . S
O587 C575 1.268 . S
H588 C560 0.930 . S
H589 C561 0.929 . S
H590 C563 0.930 . S
H591 C564 0.929 . S
H592 C569 0.930 . S
H593 C570 0.929 . S
H594 C572 0.930 1_545 S
H595 C573 0.929 . S
H596 C602 0.930 . S
H597 C605 0.930 . S
H598 C606 0.930 . S
H599 C607 0.930 . S
H600 C610 0.930 . S
H601 C611 0.930 . S
C602 H596 0.930 . S
C602 C603 1.355 . S
C602 C604 1.415 . S
C603 C602 1.355 . S
C603 C605 1.419 . S
C604 C602 1.415 . S
C604 C609 1.425 . S
C604 C611 1.409 . S
C605 H597 0.930 . S
C605 C603 1.419 . S
C605 C606 1.362 . S
C606 H598 0.930 . S
C606 C605 1.362 . S
C606 C609 1.409 . S
C607 H599 0.930 . S
C607 C608 1.355 . S
C607 C609 1.415 . S
C608 C607 1.355 . S
C608 C610 1.419 . S
C609 C604 1.425 . S
C609 C606 1.409 . S
C609 C607 1.415 . S
C610 H600 0.930 . S
C610 C608 1.419 . S
C610 C611 1.362 . S
C611 H601 0.930 . S
C611 C604 1.409 . S
C611 C610 1.362 . S
H612 C618 0.930 . S
H613 C621 0.930 . S
H614 C622 0.930 . S
H615 C623 0.930 . S
H616 C626 0.930 . S
H617 C627 0.930 . S
C618 H612 0.930 . S
C618 C619 1.355 . S
C618 C620 1.415 . S
C619 C618 1.355 . S
C619 C621 1.419 . S
C620 C618 1.415 . S
C620 C625 1.425 . S
C620 C627 1.409 . S
C621 H613 0.930 . S
C621 C619 1.419 . S
C621 C622 1.362 . S
C622 H614 0.930 . S
C622 C621 1.362 . S
C622 C625 1.409 . S
C623 H615 0.930 . S
C623 C624 1.355 . S
C623 C625 1.415 . S
C624 C623 1.355 . S
C624 C626 1.419 . S
C625 C620 1.425 . S
C625 C622 1.409 . S
C625 C623 1.415 . S
C626 H616 0.930 . S
C626 C624 1.419 . S
C626 C627 1.362 . S
C627 H617 0.930 . S
C627 C620 1.409 . S
C627 C626 1.362 . S
H628 C634 0.930 . S
H629 C637 0.930 1_545 S
H630 C638 0.930 . S
H631 C639 0.930 . S
H632 C642 0.930 . S
H633 C643 0.930 . S
C634 H628 0.930 . S
C634 C635 1.355 . S
C634 C636 1.415 . S
C635 C634 1.355 . S
C635 C637 1.419 . S
C636 C634 1.415 . S
C636 C641 1.425 . S
C636 C643 1.409 . S
C637 H629 0.930 1_565 S
C637 C635 1.419 . S
C637 C638 1.362 . S
C638 H630 0.930 . S
C638 C637 1.362 . S
C638 C641 1.409 . S
C639 H631 0.930 . S
C639 C640 1.355 . S
C639 C641 1.415 . S
C640 C639 1.355 . S
C640 C642 1.419 . S
C641 C636 1.425 . S
C641 C638 1.409 . S
C641 C639 1.415 . S
C642 H632 0.930 . S
C642 C640 1.419 . S
C642 C643 1.362 . S
C643 H633 0.930 . S
C643 C636 1.409 . S
C643 C642 1.362 . S
H644 C650 0.930 . S
H645 C653 0.930 . S
H646 C654 0.930 1_545 S
H647 C655 0.930 . S
H648 C658 0.930 . S
H649 C659 0.930 . S
C650 H644 0.930 . S
C650 C651 1.355 1_565 S
C650 C652 1.415 . S
C651 C650 1.355 1_545 S
C651 C653 1.419 . S
C652 C650 1.415 . S
C652 C657 1.425 . S
C652 C659 1.409 . S
C653 H645 0.930 . S
C653 C651 1.419 . S
C653 C654 1.362 1_545 S
C654 H646 0.930 1_565 S
C654 C653 1.362 1_565 S
C654 C657 1.409 . S
C655 H647 0.930 . S
C655 C656 1.355 . S
C655 C657 1.415 . S
C656 C655 1.355 . S
C656 C658 1.419 . S
C657 C652 1.425 . S
C657 C654 1.409 . S
C657 C655 1.415 . S
C658 H648 0.930 . S
C658 C656 1.419 . S
C658 C659 1.362 . S
C659 H649 0.930 . S
C659 C652 1.409 . S
C659 C658 1.362 . S
H660 C666 0.930 . S
H661 C669 0.930 . S
H662 C670 0.930 . S
H663 C671 0.930 . S
H664 C674 0.930 . S
H665 C675 0.930 . S
C666 H660 0.930 . S
C666 C667 1.350 1_565 S
C666 C668 1.415 . S
C667 C666 1.350 1_545 S
C667 C669 1.420 . S
C668 C666 1.415 . S
C668 C673 1.425 . S
C668 C675 1.409 . S
C669 H661 0.930 . S
C669 C667 1.420 . S
C669 C670 1.362 1_545 S
C670 H662 0.930 . S
C670 C669 1.362 1_565 S
C670 C673 1.409 . S
C671 H663 0.930 . S
C671 C672 1.355 . S
C671 C673 1.415 . S
C672 C671 1.355 . S
C672 C674 1.419 . S
C673 C668 1.425 . S
C673 C670 1.409 . S
C673 C671 1.415 . S
C674 H664 0.930 . S
C674 C672 1.419 . S
C674 C675 1.362 . S
C675 H665 0.930 . S
C675 C668 1.409 . S
C675 C674 1.362 . S
H676 C682 0.930 . S
H677 C685 0.930 . S
H678 C686 0.930 . S
H679 C687 0.930 . S
H680 C690 0.930 . S
H681 C691 0.930 . S
C682 H676 0.930 . S
C682 C683 1.355 . S
C682 C684 1.415 . S
C683 C682 1.355 . S
C683 C685 1.419 . S
C684 C682 1.415 . S
C684 C689 1.425 . S
C684 C691 1.409 . S
C685 H677 0.930 . S
C685 C683 1.419 . S
C685 C686 1.362 . S
C686 H678 0.930 . S
C686 C685 1.362 . S
C686 C689 1.409 . S
C687 H679 0.930 . S
C687 C688 1.355 . S
C687 C689 1.415 . S
C688 C687 1.355 . S
C688 C690 1.419 . S
C689 C684 1.425 . S
C689 C686 1.409 . S
C689 C687 1.415 . S
C690 H680 0.930 . S
C690 C688 1.419 . S
C690 C691 1.362 . S
C691 H681 0.930 . S
C691 C684 1.409 . S
C691 C690 1.362 . S
H692 C698 0.930 . S
H693 C701 0.930 . S
H694 C702 0.930 . S
H695 C703 0.930 . S
H696 C706 0.930 . S
H697 C707 0.930 . S
C698 H692 0.930 . S
C698 C699 1.355 . S
C698 C700 1.415 . S
C699 C698 1.355 . S
C699 C701 1.419 . S
C700 C698 1.415 . S
C700 C705 1.425 . S
C700 C707 1.409 . S
C701 H693 0.930 . S
C701 C699 1.419 . S
C701 C702 1.362 . S
C702 H694 0.930 . S
C702 C701 1.362 . S
C702 C705 1.409 . S
C703 H695 0.930 . S
C703 C704 1.355 . S
C703 C705 1.415 . S
C704 C703 1.355 . S
C704 C706 1.419 . S
C705 C700 1.425 . S
C705 C702 1.409 . S
C705 C703 1.415 . S
C706 H696 0.930 . S
C706 C704 1.419 . S
C706 C707 1.362 . S
C707 H697 0.930 . S
C707 C700 1.409 . S
C707 C706 1.362 . S
H708 C714 0.927 1_545 S
H709 C717 0.930 . S
H710 C718 0.930 . S
H711 C719 0.930 . S
H712 C722 0.930 . S
H713 C723 0.930 . S
C714 H708 0.927 1_565 S
C714 C715 1.355 . S
C714 C716 1.418 . S
C715 C714 1.355 . S
C715 C717 1.419 . S
C716 C714 1.418 . S
C716 C721 1.425 . S
C716 C723 1.409 . S
C717 H709 0.930 . S
C717 C715 1.419 . S
C717 C718 1.362 . S
C718 H710 0.930 . S
C718 C717 1.362 . S
C718 C721 1.409 . S
C719 H711 0.930 . S
C719 C720 1.355 . S
C719 C721 1.415 . S
C720 C719 1.355 . S
C720 C722 1.419 . S
C721 C716 1.425 . S
C721 C718 1.409 . S
C721 C719 1.415 . S
C722 H712 0.930 . S
C722 C720 1.419 . S
C722 C723 1.362 . S
C723 H713 0.930 . S
C723 C716 1.409 . S
C723 C722 1.362 . S
H724 C730 0.930 . S
H725 C733 0.930 . S
H726 C734 0.930 . S
H727 C735 0.930 . S
H728 C738 0.930 . S
H729 C739 0.930 . S
C730 H724 0.930 . S
C730 C731 1.355 . S
C730 C732 1.415 . S
C731 C730 1.355 . S
C731 C733 1.419 . S
C732 C730 1.415 . S
C732 C737 1.425 . S
C732 C739 1.409 . S
C733 H725 0.930 . S
C733 C731 1.419 . S
C733 C734 1.362 . S
C734 H726 0.930 . S
C734 C733 1.362 . S
C734 C737 1.409 . S
C735 H727 0.930 . S
C735 C736 1.355 . S
C735 C737 1.415 . S
C736 C735 1.355 . S
C736 C738 1.419 . S
C737 C732 1.425 . S
C737 C734 1.409 . S
C737 C735 1.415 . S
C738 H728 0.930 . S
C738 C736 1.419 . S
C738 C739 1.362 . S
C739 H729 0.930 . S
C739 C732 1.409 . S
C739 C738 1.362 . S
H740 C746 0.930 . S
H741 C749 0.930 . S
H742 C750 0.930 . S
H743 C751 0.930 . S
H744 C754 0.930 . S
H745 C755 0.930 . S
C746 H740 0.930 . S
C746 C747 1.355 . S
C746 C748 1.415 . S
C747 C746 1.355 . S
C747 C749 1.419 . S
C748 C746 1.415 . S
C748 C753 1.425 . S
C748 C755 1.409 . S
C749 H741 0.930 . S
C749 C747 1.419 . S
C749 C750 1.362 . S
C750 H742 0.930 . S
C750 C749 1.362 . S
C750 C753 1.409 . S
C751 H743 0.930 . S
C751 C752 1.355 . S
C751 C753 1.415 . S
C752 C751 1.355 . S
C752 C754 1.419 . S
C753 C748 1.425 . S
C753 C750 1.409 . S
C753 C751 1.415 . S
C754 H744 0.930 . S
C754 C752 1.419 . S
C754 C755 1.362 . S
C755 H745 0.930 . S
C755 C748 1.409 . S
C755 C754 1.362 . S
H756 C762 0.930 . S
H757 C765 0.930 . S
H758 C766 0.930 . S
H759 C767 0.930 . S
H760 C770 0.930 . S
H761 C771 0.930 . S
C762 H756 0.930 . S
C762 C763 1.326 1_565 S
C762 C764 1.415 . S
C763 C762 1.326 1_545 S
C763 C765 1.424 . S
C764 C762 1.415 . S
C764 C769 1.425 . S
C764 C771 1.409 . S
C765 H757 0.930 . S
C765 C763 1.424 . S
C765 C766 1.362 1_545 S
C766 H758 0.930 . S
C766 C765 1.362 1_565 S
C766 C769 1.409 . S
C767 H759 0.930 . S
C767 C768 1.355 . S
C767 C769 1.415 . S
C768 C767 1.355 . S
C768 C770 1.419 . S
C769 C764 1.425 . S
C769 C766 1.409 . S
C769 C767 1.415 . S
C770 H760 0.930 . S
C770 C768 1.419 . S
C770 C771 1.362 . S
C771 H761 0.930 . S
C771 C764 1.409 . S
C771 C770 1.362 . S
H772 C778 0.930 . S
H773 C781 0.930 . S
H774 C782 0.930 . S
H775 C783 0.930 . S
H776 C786 0.930 . S
H777 C787 0.930 . S
C778 H772 0.930 . S
C778 C779 1.355 . S
C778 C780 1.415 . S
C779 C778 1.355 . S
C779 C781 1.419 . S
C780 C778 1.415 . S
C780 C785 1.425 . S
C780 C787 1.409 . S
C781 H773 0.930 . S
C781 C779 1.419 . S
C781 C782 1.362 . S
C782 H774 0.930 . S
C782 C781 1.362 . S
C782 C785 1.409 . S
C783 H775 0.930 . S
C783 C784 1.355 . S
C783 C785 1.415 . S
C784 C783 1.355 . S
C784 C786 1.419 . S
C785 C780 1.425 . S
C785 C782 1.409 . S
C785 C783 1.415 . S
C786 H776 0.930 . S
C786 C784 1.419 . S
C786 C787 1.362 . S
C787 H777 0.930 . S
C787 C780 1.409 . S
C787 C786 1.362 . S
H788 C794 0.930 . S
H789 C797 0.930 . S
H790 C798 0.930 . S
H791 C799 0.930 . S
H792 C802 0.930 . S
H793 C803 0.930 . S
C794 H788 0.930 . S
C794 C795 1.355 . S
C794 C796 1.415 . S
C795 C794 1.355 . S
C795 C797 1.419 . S
C796 C794 1.415 . S
C796 C801 1.425 . S
C796 C803 1.409 . S
C797 H789 0.930 . S
C797 C795 1.419 . S
C797 C798 1.362 . S
C798 H790 0.930 . S
C798 C797 1.362 . S
C798 C801 1.409 . S
C799 H791 0.930 . S
C799 C800 1.355 . S
C799 C801 1.415 . S
C800 C799 1.355 . S
C800 C802 1.419 . S
C801 C796 1.425 . S
C801 C798 1.409 . S
C801 C799 1.415 . S
C802 H792 0.930 . S
C802 C800 1.419 . S
C802 C803 1.362 . S
C803 H793 0.930 . S
C803 C796 1.409 . S
C803 C802 1.362 . S
H804 C810 0.930 . S
H805 C813 0.930 1_554 S
H806 C814 0.930 . S
H807 C815 0.930 . S
H808 C818 0.930 . S
H809 C819 0.930 . S
C810 H804 0.930 . S
C810 C811 1.355 . S
C810 C812 1.415 . S
C811 C810 1.355 . S
C811 C813 1.419 . S
C812 C810 1.415 . S
C812 C817 1.425 . S
C812 C819 1.409 . S
C813 H805 0.930 1_556 S
C813 C811 1.419 . S
C813 C814 1.362 . S
C814 H806 0.930 . S
C814 C813 1.362 . S
C814 C817 1.409 . S
C815 H807 0.930 . S
C815 C816 1.355 . S
C815 C817 1.415 . S
C816 C815 1.355 . S
C816 C818 1.419 . S
C817 C812 1.425 . S
C817 C814 1.409 . S
C817 C815 1.415 . S
C818 H808 0.930 . S
C818 C816 1.419 . S
C818 C819 1.362 . S
C819 H809 0.930 . S
C819 C812 1.409 . S
C819 C818 1.362 . S
H820 C826 0.930 . S
H821 C829 0.930 . S
H822 C830 0.930 . S
H823 C831 0.930 . S
H824 C834 0.930 . S
H825 C835 0.930 . S
C826 H820 0.930 . S
C826 C827 1.355 . S
C826 C828 1.415 . S
C827 C826 1.355 . S
C827 C829 1.419 . S
C828 C826 1.415 . S
C828 C833 1.425 . S
C828 C835 1.409 . S
C829 H821 0.930 . S
C829 C827 1.419 . S
C829 C830 1.362 . S
C830 H822 0.930 . S
C830 C829 1.362 . S
C830 C833 1.409 . S
C831 H823 0.930 . S
C831 C832 1.355 . S
C831 C833 1.415 1_556 S
C832 C831 1.355 . S
C832 C834 1.419 1_556 S
C833 C828 1.425 . S
C833 C830 1.409 . S
C833 C831 1.415 1_554 S
C834 H824 0.930 . S
C834 C832 1.419 1_554 S
C834 C835 1.362 . S
C835 H825 0.930 . S
C835 C828 1.409 . S
C835 C834 1.362 . S
H836 C842 0.930 . S
H837 C845 0.930 . S
H838 C846 0.930 . S
H839 C847 0.930 . S
H840 C850 0.930 . S
H841 C851 0.930 . S
C842 H836 0.930 . S
C842 C843 1.355 . S
C842 C844 1.415 . S
C843 C842 1.355 . S
C843 C845 1.419 . S
C844 C842 1.415 . S
C844 C849 1.425 . S
C844 C851 1.409 . S
C845 H837 0.930 . S
C845 C843 1.419 . S
C845 C846 1.362 . S
C846 H838 0.930 . S
C846 C845 1.362 . S
C846 C849 1.409 . S
C847 H839 0.930 . S
C847 C848 1.355 . S
C847 C849 1.415 . S
C848 C847 1.355 . S
C848 C850 1.419 . S
C849 C844 1.425 . S
C849 C846 1.409 . S
C849 C847 1.415 . S
C850 H840 0.930 . S
C850 C848 1.419 . S
C850 C851 1.362 . S
C851 H841 0.930 . S
C851 C844 1.409 . S
C851 C850 1.362 . S
H852 C858 0.930 . S
H853 C861 0.930 . S
H854 C862 0.930 . S
H855 C863 0.930 . S
H856 C866 0.930 . S
H857 C867 0.930 . S
C858 H852 0.930 . S
C858 C859 1.355 . S
C858 C860 1.415 . S
C859 C858 1.355 . S
C859 C861 1.419 . S
C860 C858 1.415 . S
C860 C865 1.425 . S
C860 C867 1.409 . S
C861 H853 0.930 . S
C861 C859 1.419 . S
C861 C862 1.362 . S
C862 H854 0.930 . S
C862 C861 1.362 . S
C862 C865 1.409 . S
C863 H855 0.930 . S
C863 C864 1.355 . S
C863 C865 1.415 . S
C864 C863 1.355 . S
C864 C866 1.419 . S
C865 C860 1.425 . S
C865 C862 1.409 . S
C865 C863 1.415 . S
C866 H856 0.930 . S
C866 C864 1.419 . S
C866 C867 1.362 . S
C867 H857 0.930 . S
C867 C860 1.409 . S
C867 C866 1.362 . S
H868 C874 0.930 . S
H869 C877 0.930 . S
H870 C878 0.930 . S
H871 C879 0.930 . S
H872 C882 0.930 . S
H873 C883 0.930 . S
C874 H868 0.930 . S
C874 C875 1.355 . S
C874 C876 1.415 1_554 S
C875 C874 1.355 . S
C875 C877 1.419 1_554 S
C876 C874 1.415 1_556 S
C876 C881 1.425 . S
C876 C883 1.409 . S
C877 H869 0.930 . S
C877 C875 1.419 1_556 S
C877 C878 1.362 . S
C878 H870 0.930 . S
C878 C877 1.362 . S
C878 C881 1.409 . S
C879 H871 0.930 . S
C879 C880 1.355 . S
C879 C881 1.415 . S
C880 C879 1.355 . S
C880 C882 1.419 . S
C881 C876 1.425 . S
C881 C878 1.409 . S
C881 C879 1.415 . S
C882 H872 0.930 . S
C882 C880 1.419 . S
C882 C883 1.362 . S
C883 H873 0.930 . S
C883 C876 1.409 . S
C883 C882 1.362 . S
H884 C890 0.930 . S
H885 C893 0.930 . S
H886 C894 0.930 . S
H887 C895 0.930 . S
H888 C898 0.930 . S
H889 C899 0.930 . S
C890 H884 0.930 . S
C890 C891 1.355 . S
C890 C892 1.415 . S
C891 C890 1.355 . S
C891 C893 1.419 . S
C892 C890 1.415 . S
C892 C897 1.425 . S
C892 C899 1.409 . S
C893 H885 0.930 . S
C893 C891 1.419 . S
C893 C894 1.362 . S
C894 H886 0.930 . S
C894 C893 1.362 . S
C894 C897 1.409 . S
C895 H887 0.930 . S
C895 C896 1.355 . S
C895 C897 1.415 . S
C896 C895 1.355 . S
C896 C898 1.419 . S
C897 C892 1.425 . S
C897 C894 1.409 . S
C897 C895 1.415 . S
C898 H888 0.930 . S
C898 C896 1.419 . S
C898 C899 1.362 . S
C899 H889 0.930 . S
C899 C892 1.409 . S
C899 C898 1.362 . S
H900 C906 0.930 . S
H901 C909 0.930 . S
H902 C910 0.930 . S
H903 C911 0.930 . S
H904 C914 0.930 . S
H905 C915 0.930 . S
C906 H900 0.930 . S
C906 C907 1.355 . S
C906 C908 1.415 . S
C907 C906 1.355 . S
C907 C909 1.419 . S
C908 C906 1.415 . S
C908 C913 1.425 . S
C908 C915 1.409 . S
C909 H901 0.930 . S
C909 C907 1.419 . S
C909 C910 1.362 . S
C910 H902 0.930 . S
C910 C909 1.362 . S
C910 C913 1.409 . S
C911 H903 0.930 . S
C911 C912 1.355 . S
C911 C913 1.415 . S
C912 C911 1.355 . S
C912 C914 1.419 . S
C913 C908 1.425 . S
C913 C910 1.409 . S
C913 C911 1.415 . S
C914 H904 0.930 . S
C914 C912 1.419 . S
C914 C915 1.362 . S
C915 H905 0.930 . S
C915 C908 1.409 . S
C915 C914 1.362 . S
H916 C922 0.930 1_565 S
H917 C925 0.930 . S
H918 C926 0.930 . S
H919 C927 0.930 . S
H920 C930 0.930 . S
H921 C931 0.917 1_554 S
C922 H916 0.930 1_545 S
C922 C923 1.355 . S
C922 C924 1.415 . S
C923 C922 1.355 . S
C923 C925 1.419 . S
C924 C922 1.415 . S
C924 C929 1.425 1_554 S
C924 C931 1.409 1_544 S
C925 H917 0.930 . S
C925 C923 1.419 . S
C925 C926 1.362 . S
C926 H918 0.930 . S
C926 C925 1.362 . S
C926 C929 1.409 1_554 S
C927 H919 0.930 . S
C927 C928 1.355 . S
C927 C929 1.415 . S
C928 C927 1.355 . S
C928 C930 1.419 1_545 S
C929 C924 1.425 1_556 S
C929 C926 1.409 1_556 S
C929 C927 1.415 . S
C930 H920 0.930 . S
C930 C928 1.419 1_565 S
C930 C931 1.362 . S
C931 H921 0.917 1_556 S
C931 C924 1.409 1_566 S
C931 C930 1.362 . S
H932 C938 0.930 . S
H933 C941 0.930 1_455 S
H934 C942 0.930 1_455 S
H935 C943 0.930 . S
H936 C946 0.930 . S
H937 C947 0.930 . S
C938 H932 0.930 . S
C938 C939 1.355 . S
C938 C940 1.415 . S
C939 C938 1.355 . S
C939 C941 1.419 . S
C940 C938 1.415 . S
C940 C945 1.425 . S
C940 C947 1.409 . S
C941 H933 0.930 1_655 S
C941 C939 1.419 . S
C941 C942 1.362 . S
C942 H934 0.930 1_655 S
C942 C941 1.362 . S
C942 C945 1.409 . S
C943 H935 0.930 . S
C943 C944 1.355 . S
C943 C945 1.415 . S
C944 C943 1.355 . S
C944 C946 1.419 . S
C945 C940 1.425 . S
C945 C942 1.409 . S
C945 C943 1.415 . S
C946 H936 0.930 . S
C946 C944 1.419 . S
C946 C947 1.362 . S
C947 H937 0.930 . S
C947 C940 1.409 . S
C947 C946 1.362 . S
H948 C954 0.930 . S
H949 C957 0.930 . S
H950 C958 0.930 . S
H951 C959 0.930 . S
H952 C962 0.930 . S
H953 C963 0.930 . S
C954 H948 0.930 . S
C954 C955 1.355 . S
C954 C956 1.415 . S
C955 C954 1.355 . S
C955 C957 1.419 . S
C956 C954 1.415 . S
C956 C961 1.425 . S
C956 C963 1.409 . S
C957 H949 0.930 . S
C957 C955 1.419 . S
C957 C958 1.362 . S
C958 H950 0.930 . S
C958 C957 1.362 . S
C958 C961 1.409 . S
C959 H951 0.930 . S
C959 C960 1.355 . S
C959 C961 1.415 . S
C960 C959 1.355 . S
C960 C962 1.419 . S
C961 C956 1.425 . S
C961 C958 1.409 . S
C961 C959 1.415 . S
C962 H952 0.930 . S
C962 C960 1.419 . S
C962 C963 1.362 . S
C963 H953 0.930 . S
C963 C956 1.409 . S
C963 C962 1.362 . S
H964 C970 0.930 . S
H965 C973 0.930 . S
H966 C974 0.930 . S
H967 C975 0.930 . S
H968 C978 0.930 . S
H969 C979 0.930 . S
C970 H964 0.930 . S
C970 C971 1.355 . S
C970 C972 1.415 . S
C971 C970 1.355 . S
C971 C973 1.419 . S
C972 C970 1.415 . S
C972 C977 1.425 . S
C972 C979 1.409 . S
C973 H965 0.930 . S
C973 C971 1.419 . S
C973 C974 1.362 . S
C974 H966 0.930 . S
C974 C973 1.362 . S
C974 C977 1.409 . S
C975 H967 0.930 . S
C975 C976 1.355 . S
C975 C977 1.415 . S
C976 C975 1.355 . S
C976 C978 1.419 . S
C977 C972 1.425 . S
C977 C974 1.409 . S
C977 C975 1.415 . S
C978 H968 0.930 . S
C978 C976 1.419 . S
C978 C979 1.362 . S
C979 H969 0.930 . S
C979 C972 1.409 . S
C979 C978 1.362 . S
H980 C986 0.930 . S
H981 C989 0.930 . S
H982 C990 0.930 . S
H983 C991 0.930 . S
H984 C994 0.930 . S
H985 C995 0.930 . S
C986 H980 0.930 . S
C986 C987 1.355 . S
C986 C988 1.415 . S
C987 C986 1.355 . S
C987 C989 1.419 . S
C988 C986 1.415 . S
C988 C993 1.425 . S
C988 C995 1.409 . S
C989 H981 0.930 . S
C989 C987 1.419 . S
C989 C990 1.362 . S
C990 H982 0.930 . S
C990 C989 1.362 . S
C990 C993 1.409 . S
C991 H983 0.930 . S
C991 C992 1.355 . S
C991 C993 1.415 . S
C992 C991 1.355 . S
C992 C994 1.419 . S
C993 C988 1.425 . S
C993 C990 1.409 . S
C993 C991 1.415 . S
C994 H984 0.930 . S
C994 C992 1.419 . S
C994 C995 1.362 . S
C995 H985 0.930 . S
C995 C988 1.409 . S
C995 C994 1.362 . S
H996 C1002 0.930 . S
H997 C1005 0.930 . S
H998 C1006 0.930 . S
H999 C1007 0.930 . S
H1000 C1010 0.930 . S
H1001 C1011 0.930 . S
C1002 H996 0.930 . S
C1002 C1003 1.355 . S
C1002 C1004 1.415 . S
C1003 C1002 1.355 . S
C1003 C1005 1.419 . S
C1004 C1002 1.415 . S
C1004 C1009 1.425 . S
C1004 C1011 1.409 . S
C1005 H997 0.930 . S
C1005 C1003 1.419 . S
C1005 C1006 1.362 . S
C1006 H998 0.930 . S
C1006 C1005 1.362 . S
C1006 C1009 1.409 . S
C1007 H999 0.930 . S
C1007 C1008 1.355 . S
C1007 C1009 1.415 . S
C1008 C1007 1.355 . S
C1008 C1010 1.419 . S
C1009 C1004 1.425 . S
C1009 C1006 1.409 . S
C1009 C1007 1.415 . S
C1010 H1000 0.930 . S
C1010 C1008 1.419 . S
C1010 C1011 1.362 . S
C1011 H1001 0.930 . S
C1011 C1004 1.409 . S
C1011 C1010 1.362 . S
H1012 C1018 0.930 . S
H1013 C1021 0.930 . S
H1014 C1022 0.930 . S
H1015 C1023 0.930 . S
H1016 C1026 0.930 . S
H1017 C1027 0.930 . S
C1018 H1012 0.930 . S
C1018 C1019 1.355 . S
C1018 C1020 1.415 . S
C1019 C1018 1.355 . S
C1019 C1021 1.419 . S
C1020 C1018 1.415 . S
C1020 C1025 1.425 . S
C1020 C1027 1.409 . S
C1021 H1013 0.930 . S
C1021 C1019 1.419 . S
C1021 C1022 1.362 . S
C1022 H1014 0.930 . S
C1022 C1021 1.362 . S
C1022 C1025 1.409 . S
C1023 H1015 0.930 . S
C1023 C1024 1.355 . S
C1023 C1025 1.415 . S
C1024 C1023 1.355 . S
C1024 C1026 1.419 . S
C1025 C1020 1.425 . S
C1025 C1022 1.409 . S
C1025 C1023 1.415 . S
C1026 H1016 0.930 . S
C1026 C1024 1.419 . S
C1026 C1027 1.362 . S
C1027 H1017 0.930 . S
C1027 C1020 1.409 . S
C1027 C1026 1.362 . S
H1028 C1034 0.930 . S
H1029 C1037 0.930 . S
H1030 C1038 0.930 . S
H1031 C1039 0.930 . S
H1032 C1042 0.930 . S
H1033 C1043 0.930 . S
C1034 H1028 0.930 . S
C1034 C1035 1.355 . S
C1034 C1036 1.415 . S
C1035 C1034 1.355 . S
C1035 C1037 1.419 . S
C1036 C1034 1.415 . S
C1036 C1041 1.425 . S
C1036 C1043 1.409 . S
C1037 H1029 0.930 . S
C1037 C1035 1.419 . S
C1037 C1038 1.362 . S
C1038 H1030 0.930 . S
C1038 C1037 1.362 . S
C1038 C1041 1.409 . S
C1039 H1031 0.930 . S
C1039 C1040 1.355 . S
C1039 C1041 1.415 . S
C1040 C1039 1.355 . S
C1040 C1042 1.419 . S
C1041 C1036 1.425 . S
C1041 C1038 1.409 . S
C1041 C1039 1.415 . S
C1042 H1032 0.930 . S
C1042 C1040 1.419 . S
C1042 C1043 1.362 . S
C1043 H1033 0.930 . S
C1043 C1036 1.409 . S
C1043 C1042 1.362 . S
H1044 C1050 0.930 . S
H1045 C1053 0.930 . S
H1046 C1054 0.930 . S
H1047 C1055 0.930 . S
H1048 C1058 0.930 . S
H1049 C1059 0.930 . S
C1050 H1044 0.930 . S
C1050 C1051 1.355 . S
C1050 C1052 1.415 . S
C1051 C1050 1.355 . S
C1051 C1053 1.419 . S
C1052 C1050 1.415 . S
C1052 C1057 1.425 . S
C1052 C1059 1.409 . S
C1053 H1045 0.930 . S
C1053 C1051 1.419 . S
C1053 C1054 1.362 . S
C1054 H1046 0.930 . S
C1054 C1053 1.362 . S
C1054 C1057 1.409 . S
C1055 H1047 0.930 . S
C1055 C1056 1.355 . S
C1055 C1057 1.415 . S
C1056 C1055 1.355 . S
C1056 C1058 1.419 . S
C1057 C1052 1.425 . S
C1057 C1054 1.409 . S
C1057 C1055 1.415 . S
C1058 H1048 0.930 . S
C1058 C1056 1.419 . S
C1058 C1059 1.362 . S
C1059 H1049 0.930 . S
C1059 C1052 1.409 . S
C1059 C1058 1.362 . S
H1060 C1066 0.930 . S
H1061 C1069 0.930 . S
H1062 C1070 0.930 . S
H1063 C1071 0.930 . S
H1064 C1074 0.930 . S
H1065 C1075 0.930 . S
C1066 H1060 0.930 . S
C1066 C1067 1.355 . S
C1066 C1068 1.415 . S
C1067 C1066 1.355 . S
C1067 C1069 1.419 . S
C1068 C1066 1.415 . S
C1068 C1073 1.425 . S
C1068 C1075 1.409 . S
C1069 H1061 0.930 . S
C1069 C1067 1.419 . S
C1069 C1070 1.362 . S
C1070 H1062 0.930 . S
C1070 C1069 1.362 . S
C1070 C1073 1.409 . S
C1071 H1063 0.930 . S
C1071 C1072 1.355 . S
C1071 C1073 1.415 . S
C1072 C1071 1.355 . S
C1072 C1074 1.419 . S
C1073 C1068 1.425 . S
C1073 C1070 1.409 . S
C1073 C1071 1.415 . S
C1074 H1064 0.930 . S
C1074 C1072 1.419 . S
C1074 C1075 1.362 . S
C1075 H1065 0.930 . S
C1075 C1068 1.409 . S
C1075 C1074 1.362 . S
H1076 C1082 0.930 . S
H1077 C1085 0.930 . S
H1078 C1086 0.930 . S
H1079 C1087 0.930 . S
H1080 C1090 0.930 . S
H1081 C1091 0.930 . S
C1082 H1076 0.930 . S
C1082 C1083 1.355 . S
C1082 C1084 1.415 . S
C1083 C1082 1.355 . S
C1083 C1085 1.419 . S
C1084 C1082 1.415 . S
C1084 C1089 1.425 . S
C1084 C1091 1.409 . S
C1085 H1077 0.930 . S
C1085 C1083 1.419 . S
C1085 C1086 1.362 . S
C1086 H1078 0.930 . S
C1086 C1085 1.362 . S
C1086 C1089 1.409 . S
C1087 H1079 0.930 . S
C1087 C1088 1.355 . S
C1087 C1089 1.415 . S
C1088 C1087 1.355 . S
C1088 C1090 1.419 . S
C1089 C1084 1.425 . S
C1089 C1086 1.409 . S
C1089 C1087 1.415 . S
C1090 H1080 0.930 . S
C1090 C1088 1.419 . S
C1090 C1091 1.362 . S
C1091 H1081 0.930 . S
C1091 C1084 1.409 . S
C1091 C1090 1.362 . S
H1092 C1098 0.930 . S
H1093 C1101 0.930 . S
H1094 C1102 0.930 . S
H1095 C1103 0.930 . S
H1096 C1106 0.930 . S
H1097 C1107 0.930 . S
C1098 H1092 0.930 . S
C1098 C1099 1.355 . S
C1098 C1100 1.415 . S
C1099 C1098 1.355 . S
C1099 C1101 1.419 . S
C1100 C1098 1.415 . S
C1100 C1105 1.425 . S
C1100 C1107 1.409 . S
C1101 H1093 0.930 . S
C1101 C1099 1.419 . S
C1101 C1102 1.362 . S
C1102 H1094 0.930 . S
C1102 C1101 1.362 . S
C1102 C1105 1.409 . S
C1103 H1095 0.930 . S
C1103 C1104 1.355 . S
C1103 C1105 1.415 . S
C1104 C1103 1.355 . S
C1104 C1106 1.419 . S
C1105 C1100 1.425 . S
C1105 C1102 1.409 . S
C1105 C1103 1.415 . S
C1106 H1096 0.930 . S
C1106 C1104 1.419 . S
C1106 C1107 1.362 . S
C1107 H1097 0.930 . S
C1107 C1100 1.409 . S
C1107 C1106 1.362 . S
H1108 C1114 0.930 . S
H1109 C1117 0.930 . S
H1110 C1118 0.930 . S
H1111 C1119 0.930 . S
H1112 C1122 0.930 . S
H1113 C1123 0.930 . S
C1114 H1108 0.930 . S
C1114 C1115 1.355 . S
C1114 C1116 1.415 . S
C1115 C1114 1.355 . S
C1115 C1117 1.419 . S
C1116 C1114 1.415 . S
C1116 C1121 1.425 . S
C1116 C1123 1.409 . S
C1117 H1109 0.930 . S
C1117 C1115 1.419 . S
C1117 C1118 1.362 . S
C1118 H1110 0.930 . S
C1118 C1117 1.362 . S
C1118 C1121 1.409 . S
C1119 H1111 0.930 . S
C1119 C1120 1.355 . S
C1119 C1121 1.415 . S
C1120 C1119 1.355 . S
C1120 C1122 1.419 . S
C1121 C1116 1.425 . S
C1121 C1118 1.409 . S
C1121 C1119 1.415 . S
C1122 H1112 0.930 . S
C1122 C1120 1.419 . S
C1122 C1123 1.362 . S
C1123 H1113 0.930 . S
C1123 C1116 1.409 . S
C1123 C1122 1.362 . S
H1124 C1130 0.930 . S
H1125 C1133 0.930 . S
H1126 C1134 0.930 . S
H1127 C1135 0.930 . S
H1128 C1138 0.930 . S
H1129 C1139 0.930 . S
C1130 H1124 0.930 . S
C1130 C1131 1.355 . S
C1130 C1132 1.415 . S
C1131 C1130 1.355 . S
C1131 C1133 1.419 . S
C1132 C1130 1.415 . S
C1132 C1137 1.425 . S
C1132 C1139 1.409 . S
C1133 H1125 0.930 . S
C1133 C1131 1.419 . S
C1133 C1134 1.362 . S
C1134 H1126 0.930 . S
C1134 C1133 1.362 . S
C1134 C1137 1.409 . S
C1135 H1127 0.930 . S
C1135 C1136 1.355 . S
C1135 C1137 1.415 . S
C1136 C1135 1.355 . S
C1136 C1138 1.419 . S
C1137 C1132 1.425 . S
C1137 C1134 1.409 . S
C1137 C1135 1.415 . S
C1138 H1128 0.930 . S
C1138 C1136 1.419 . S
C1138 C1139 1.362 . S
C1139 H1129 0.930 . S
C1139 C1132 1.409 . S
C1139 C1138 1.362 . S
H1140 C1146 0.930 . S
H1141 C1149 0.930 . S
H1142 C1150 0.930 . S
H1143 C1151 0.930 . S
H1144 C1154 0.930 . S
H1145 C1155 0.930 . S
C1146 H1140 0.930 . S
C1146 C1147 1.355 . S
C1146 C1148 1.415 . S
C1147 C1146 1.355 . S
C1147 C1149 1.419 . S
C1148 C1146 1.415 . S
C1148 C1153 1.425 . S
C1148 C1155 1.409 . S
C1149 H1141 0.930 . S
C1149 C1147 1.419 . S
C1149 C1150 1.362 . S
C1150 H1142 0.930 . S
C1150 C1149 1.362 . S
C1150 C1153 1.409 . S
C1151 H1143 0.930 . S
C1151 C1152 1.355 . S
C1151 C1153 1.415 . S
C1152 C1151 1.355 . S
C1152 C1154 1.419 . S
C1153 C1148 1.425 . S
C1153 C1150 1.409 . S
C1153 C1151 1.415 . S
C1154 H1144 0.930 . S
C1154 C1152 1.419 . S
C1154 C1155 1.362 . S
C1155 H1145 0.930 . S
C1155 C1148 1.409 . S
C1155 C1154 1.362 . S
H1156 C1162 0.930 . S
H1157 C1165 0.930 . S
H1158 C1166 0.930 . S
H1159 C1167 0.930 . S
H1160 C1170 0.930 . S
H1161 C1171 0.930 . S
C1162 H1156 0.930 . S
C1162 C1163 1.355 . S
C1162 C1164 1.415 . S
C1163 C1162 1.355 . S
C1163 C1165 1.419 . S
C1164 C1162 1.415 . S
C1164 C1169 1.425 . S
C1164 C1171 1.409 . S
C1165 H1157 0.930 . S
C1165 C1163 1.419 . S
C1165 C1166 1.362 . S
C1166 H1158 0.930 . S
C1166 C1165 1.362 . S
C1166 C1169 1.409 . S
C1167 H1159 0.930 . S
C1167 C1168 1.355 . S
C1167 C1169 1.415 . S
C1168 C1167 1.355 . S
C1168 C1170 1.419 . S
C1169 C1164 1.425 . S
C1169 C1166 1.409 . S
C1169 C1167 1.415 . S
C1170 H1160 0.930 . S
C1170 C1168 1.419 . S
C1170 C1171 1.362 . S
C1171 H1161 0.930 . S
C1171 C1164 1.409 . S
C1171 C1170 1.362 . S
H1172 C1178 0.930 . S
H1173 C1181 0.930 . S
H1174 C1182 0.930 . S
H1175 C1183 0.930 . S
H1176 C1186 0.930 . S
H1177 C1187 0.930 . S
C1178 H1172 0.930 . S
C1178 C1179 1.355 . S
C1178 C1180 1.415 . S
C1179 C1178 1.355 . S
C1179 C1181 1.419 . S
C1180 C1178 1.415 . S
C1180 C1185 1.425 . S
C1180 C1187 1.409 . S
C1181 H1173 0.930 . S
C1181 C1179 1.419 . S
C1181 C1182 1.362 . S
C1182 H1174 0.930 . S
C1182 C1181 1.362 . S
C1182 C1185 1.409 . S
C1183 H1175 0.930 . S
C1183 C1184 1.355 . S
C1183 C1185 1.415 . S
C1184 C1183 1.355 . S
C1184 C1186 1.419 . S
C1185 C1180 1.425 . S
C1185 C1182 1.409 . S
C1185 C1183 1.415 . S
C1186 H1176 0.930 . S
C1186 C1184 1.419 . S
C1186 C1187 1.362 . S
C1187 H1177 0.930 . S
C1187 C1180 1.409 . S
C1187 C1186 1.362 . S
H1188 C1194 0.930 . S
H1189 C1197 0.930 . S
H1190 C1198 0.930 . S
H1191 C1199 0.930 . S
H1192 C1202 0.930 . S
H1193 C1203 0.930 . S
C1194 H1188 0.930 . S
C1194 C1195 1.355 . S
C1194 C1196 1.415 . S
C1195 C1194 1.355 . S
C1195 C1197 1.419 . S
C1196 C1194 1.415 . S
C1196 C1201 1.425 . S
C1196 C1203 1.409 . S
C1197 H1189 0.930 . S
C1197 C1195 1.419 . S
C1197 C1198 1.362 . S
C1198 H1190 0.930 . S
C1198 C1197 1.362 . S
C1198 C1201 1.409 . S
C1199 H1191 0.930 . S
C1199 C1200 1.355 . S
C1199 C1201 1.415 . S
C1200 C1199 1.355 . S
C1200 C1202 1.419 . S
C1201 C1196 1.425 . S
C1201 C1198 1.409 . S
C1201 C1199 1.415 . S
C1202 H1192 0.930 . S
C1202 C1200 1.419 . S
C1202 C1203 1.362 . S
C1203 H1193 0.930 . S
C1203 C1196 1.409 . S
C1203 C1202 1.362 . S
H1204 C1210 0.930 . S
H1205 C1213 0.930 . S
H1206 C1214 0.930 . S
H1207 C1215 0.930 . S
H1208 C1218 0.930 . S
H1209 C1219 0.930 . S
C1210 H1204 0.930 . S
C1210 C1211 1.355 . S
C1210 C1212 1.415 . S
C1211 C1210 1.355 . S
C1211 C1213 1.419 . S
C1212 C1210 1.415 . S
C1212 C1217 1.425 . S
C1212 C1219 1.409 . S
C1213 H1205 0.930 . S
C1213 C1211 1.419 . S
C1213 C1214 1.362 . S
C1214 H1206 0.930 . S
C1214 C1213 1.362 . S
C1214 C1217 1.409 . S
C1215 H1207 0.930 . S
C1215 C1216 1.355 . S
C1215 C1217 1.415 . S
C1216 C1215 1.355 . S
C1216 C1218 1.419 . S
C1217 C1212 1.425 . S
C1217 C1214 1.409 . S
C1217 C1215 1.415 . S
C1218 H1208 0.930 . S
C1218 C1216 1.419 . S
C1218 C1219 1.362 . S
C1219 H1209 0.930 . S
C1219 C1212 1.409 . S
C1219 C1218 1.362 . S
H1220 C1226 0.930 . S
H1221 C1229 0.930 . S
H1222 C1230 0.930 . S
H1223 C1231 0.930 . S
H1224 C1234 0.930 . S
H1225 C1235 0.930 . S
C1226 H1220 0.930 . S
C1226 C1227 1.355 . S
C1226 C1228 1.415 . S
C1227 C1226 1.355 . S
C1227 C1229 1.419 . S
C1228 C1226 1.415 . S
C1228 C1233 1.425 . S
C1228 C1235 1.409 . S
C1229 H1221 0.930 . S
C1229 C1227 1.419 . S
C1229 C1230 1.362 . S
C1230 H1222 0.930 . S
C1230 C1229 1.362 . S
C1230 C1233 1.409 . S
C1231 H1223 0.930 . S
C1231 C1232 1.355 . S
C1231 C1233 1.415 . S
C1232 C1231 1.355 . S
C1232 C1234 1.419 . S
C1233 C1228 1.425 . S
C1233 C1230 1.409 . S
C1233 C1231 1.415 . S
C1234 H1224 0.930 . S
C1234 C1232 1.419 . S
C1234 C1235 1.362 . S
C1235 H1225 0.930 . S
C1235 C1228 1.409 . S
C1235 C1234 1.362 . S
H1236 C1242 0.930 . S
H1237 C1245 0.930 . S
H1238 C1246 0.930 . S
H1239 C1247 0.930 . S
H1240 C1250 0.930 . S
H1241 C1251 0.930 . S
C1242 H1236 0.930 . S
C1242 C1243 1.355 . S
C1242 C1244 1.415 . S
C1243 C1242 1.355 . S
C1243 C1245 1.419 . S
C1244 C1242 1.415 . S
C1244 C1249 1.425 . S
C1244 C1251 1.409 . S
C1245 H1237 0.930 . S
C1245 C1243 1.419 . S
C1245 C1246 1.362 . S
C1246 H1238 0.930 . S
C1246 C1245 1.362 . S
C1246 C1249 1.409 . S
C1247 H1239 0.930 . S
C1247 C1248 1.355 . S
C1247 C1249 1.415 . S
C1248 C1247 1.355 . S
C1248 C1250 1.419 . S
C1249 C1244 1.425 . S
C1249 C1246 1.409 . S
C1249 C1247 1.415 . S
C1250 H1240 0.930 . S
C1250 C1248 1.419 . S
C1250 C1251 1.362 . S
C1251 H1241 0.930 . S
C1251 C1244 1.409 . S
C1251 C1250 1.362 . S
H1252 C1258 0.930 . S
H1253 C1261 0.930 . S
H1254 C1262 0.930 . S
H1255 C1263 0.930 . S
H1256 C1266 0.930 . S
H1257 C1267 0.930 . S
C1258 H1252 0.930 . S
C1258 C1259 1.355 . S
C1258 C1260 1.415 . S
C1259 C1258 1.355 . S
C1259 C1261 1.419 . S
C1260 C1258 1.415 . S
C1260 C1265 1.425 . S
C1260 C1267 1.409 . S
C1261 H1253 0.930 . S
C1261 C1259 1.419 . S
C1261 C1262 1.362 . S
C1262 H1254 0.930 . S
C1262 C1261 1.362 . S
C1262 C1265 1.409 . S
C1263 H1255 0.930 . S
C1263 C1264 1.355 . S
C1263 C1265 1.415 . S
C1264 C1263 1.355 . S
C1264 C1266 1.419 . S
C1265 C1260 1.425 . S
C1265 C1262 1.409 . S
C1265 C1263 1.415 . S
C1266 H1256 0.930 . S
C1266 C1264 1.419 . S
C1266 C1267 1.362 . S
C1267 H1257 0.930 . S
C1267 C1260 1.409 . S
C1267 C1266 1.362 . S
H1268 C1274 0.930 . S
H1269 C1277 0.930 . S
H1270 C1278 0.930 . S
H1271 C1279 0.930 . S
H1272 C1282 0.930 . S
H1273 C1283 0.930 . S
C1274 H1268 0.930 . S
C1274 C1275 1.355 . S
C1274 C1276 1.415 . S
C1275 C1274 1.355 . S
C1275 C1277 1.419 . S
C1276 C1274 1.415 . S
C1276 C1281 1.425 . S
C1276 C1283 1.409 . S
C1277 H1269 0.930 . S
C1277 C1275 1.419 . S
C1277 C1278 1.362 . S
C1278 H1270 0.930 . S
C1278 C1277 1.362 . S
C1278 C1281 1.409 . S
C1279 H1271 0.930 . S
C1279 C1280 1.355 . S
C1279 C1281 1.415 . S
C1280 C1279 1.355 . S
C1280 C1282 1.419 . S
C1281 C1276 1.425 . S
C1281 C1278 1.409 . S
C1281 C1279 1.415 . S
C1282 H1272 0.930 . S
C1282 C1280 1.419 . S
C1282 C1283 1.362 . S
C1283 H1273 0.930 . S
C1283 C1276 1.409 . S
C1283 C1282 1.362 . S
H1284 C1290 0.930 . S
H1285 C1293 0.930 . S
H1286 C1294 0.930 . S
H1287 C1295 0.930 . S
H1288 C1298 0.930 . S
H1289 C1299 0.930 . S
C1290 H1284 0.930 . S
C1290 C1291 1.355 . S
C1290 C1292 1.415 . S
C1291 C1290 1.355 . S
C1291 C1293 1.419 . S
C1292 C1290 1.415 . S
C1292 C1297 1.425 . S
C1292 C1299 1.409 . S
C1293 H1285 0.930 . S
C1293 C1291 1.419 . S
C1293 C1294 1.362 . S
C1294 H1286 0.930 . S
C1294 C1293 1.362 . S
C1294 C1297 1.409 . S
C1295 H1287 0.930 . S
C1295 C1296 1.355 . S
C1295 C1297 1.415 . S
C1296 C1295 1.355 . S
C1296 C1298 1.419 . S
C1297 C1292 1.425 . S
C1297 C1294 1.409 . S
C1297 C1295 1.415 . S
C1298 H1288 0.930 . S
C1298 C1296 1.419 . S
C1298 C1299 1.362 . S
C1299 H1289 0.930 . S
C1299 C1292 1.409 . S
C1299 C1298 1.362 . S
H1300 C1306 0.930 . S
H1301 C1309 0.930 . S
H1302 C1310 0.930 . S
H1303 C1311 0.930 . S
H1304 C1314 0.930 . S
H1305 C1315 0.930 . S
C1306 H1300 0.930 . S
C1306 C1307 1.355 . S
C1306 C1308 1.415 . S
C1307 C1306 1.355 . S
C1307 C1309 1.419 . S
C1308 C1306 1.415 . S
C1308 C1313 1.425 . S
C1308 C1315 1.409 . S
C1309 H1301 0.930 . S
C1309 C1307 1.419 . S
C1309 C1310 1.362 . S
C1310 H1302 0.930 . S
C1310 C1309 1.362 . S
C1310 C1313 1.409 . S
C1311 H1303 0.930 . S
C1311 C1312 1.355 . S
C1311 C1313 1.415 . S
C1312 C1311 1.355 . S
C1312 C1314 1.419 . S
C1313 C1308 1.425 . S
C1313 C1310 1.409 . S
C1313 C1311 1.415 . S
C1314 H1304 0.930 . S
C1314 C1312 1.419 . S
C1314 C1315 1.362 . S
C1315 H1305 0.930 . S
C1315 C1308 1.409 . S
C1315 C1314 1.362 . S
H1316 C1322 0.930 . S
H1317 C1325 0.930 . S
H1318 C1326 0.930 . S
H1319 C1327 0.930 . S
H1320 C1330 0.930 . S
H1321 C1331 0.930 . S
C1322 H1316 0.930 . S
C1322 C1323 1.355 . S
C1322 C1324 1.415 . S
C1323 C1322 1.355 . S
C1323 C1325 1.419 . S
C1324 C1322 1.415 . S
C1324 C1329 1.425 . S
C1324 C1331 1.409 . S
C1325 H1317 0.930 . S
C1325 C1323 1.419 . S
C1325 C1326 1.362 . S
C1326 H1318 0.930 . S
C1326 C1325 1.362 . S
C1326 C1329 1.409 . S
C1327 H1319 0.930 . S
C1327 C1328 1.355 . S
C1327 C1329 1.415 . S
C1328 C1327 1.355 . S
C1328 C1330 1.419 . S
C1329 C1324 1.425 . S
C1329 C1326 1.409 . S
C1329 C1327 1.415 . S
C1330 H1320 0.930 . S
C1330 C1328 1.419 . S
C1330 C1331 1.362 . S
C1331 H1321 0.930 . S
C1331 C1324 1.409 . S
C1331 C1330 1.362 . S
H1332 C1338 0.930 . S
H1333 C1341 0.930 . S
H1334 C1342 0.930 . S
H1335 C1343 0.930 . S
H1336 C1346 0.930 . S
H1337 C1347 0.930 . S
C1338 H1332 0.930 . S
C1338 C1339 1.355 . S
C1338 C1340 1.415 . S
C1339 C1338 1.355 . S
C1339 C1341 1.419 . S
C1340 C1338 1.415 . S
C1340 C1345 1.425 . S
C1340 C1347 1.409 . S
C1341 H1333 0.930 . S
C1341 C1339 1.419 . S
C1341 C1342 1.362 . S
C1342 H1334 0.930 . S
C1342 C1341 1.362 . S
C1342 C1345 1.409 . S
C1343 H1335 0.930 . S
C1343 C1344 1.355 . S
C1343 C1345 1.415 . S
C1344 C1343 1.355 . S
C1344 C1346 1.419 . S
C1345 C1340 1.425 . S
C1345 C1342 1.409 . S
C1345 C1343 1.415 . S
C1346 H1336 0.930 . S
C1346 C1344 1.419 . S
C1346 C1347 1.362 . S
C1347 H1337 0.930 . S
C1347 C1340 1.409 . S
C1347 C1346 1.362 . S
H1348 C1354 0.930 . S
H1349 C1357 0.930 . S
H1350 C1358 0.930 . S
H1351 C1359 0.930 . S
H1352 C1362 0.930 . S
H1353 C1363 0.930 . S
C1354 H1348 0.930 . S
C1354 C1355 1.355 . S
C1354 C1356 1.415 . S
C1355 C1354 1.355 . S
C1355 C1357 1.419 . S
C1356 C1354 1.415 . S
C1356 C1361 1.425 . S
C1356 C1363 1.409 . S
C1357 H1349 0.930 . S
C1357 C1355 1.419 . S
C1357 C1358 1.362 . S
C1358 H1350 0.930 . S
C1358 C1357 1.362 . S
C1358 C1361 1.409 . S
C1359 H1351 0.930 . S
C1359 C1360 1.355 . S
C1359 C1361 1.415 . S
C1360 C1359 1.355 . S
C1360 C1362 1.419 . S
C1361 C1356 1.425 . S
C1361 C1358 1.409 . S
C1361 C1359 1.415 . S
C1362 H1352 0.930 . S
C1362 C1360 1.419 . S
C1362 C1363 1.362 . S
C1363 H1353 0.930 . S
C1363 C1356 1.409 . S
C1363 C1362 1.362 . S
C608 C286 2.428 . S
C603 N2 2.423 . S
C624 C325 2.661 . S
C619 C7 2.723 . S
C640 C375 2.101 . S
C635 N12 2.019 1_565 S
C651 C16 2.214 . S
C656 C414 2.183 . S
C672 C454 2.503 . S
C667 C30 2.572 . S
C688 C495 1.943 . S
C683 N35 1.845 . S
C699 C39 2.366 . S
C704 C525 2.357 . S
C720 C575 2.289 . S
C715 N25 2.199 1_565 S
C736 C282 1.214 . S
C731 N58 1.144 . S
C747 N81 1.645 . S
C752 C331 1.649 . S
C768 C365 1.938 . S
C763 N104 1.959 . S
C779 N127 1.714 . S
C784 C406 1.826 . S
C800 C446 0.268 . S
C795 N48 0.563 . S
C816 C485 2.508 . S
C811 N71 2.514 1_556 S
C827 N94 1.054 . S
C832 C531 1.126 . S
C848 C565 1.973 . S
C843 N117 1.949 . S
C859 C85 2.145 . S
C864 C294 2.238 . S
C875 C122 0.696 . S
C880 C442 0.712 . S
C891 C53 1.021 . S
C896 C491 1.020 . S
C912 C535 2.201 . S
C907 C76 2.221 1_556 S
C928 C571 1.484 1_545 S
C923 C99 1.478 . S
C944 C371 1.080 . S
C939 C131 1.024 . S
C960 C402 0.202 . S
C955 C62 0.612 . S
C971 C108 1.113 . S
C976 C335 1.131 . S
C992 C566 2.499 . S
C987 N140 2.543 . S
C1003 C145 2.576 . S
C1008 C445 2.511 . S
C1024 C486 1.966 . S
C1019 N150 1.839 . S
C1035 C154 2.393 . S
C1040 C534 2.346 . S
C1056 C334 2.662 . S
C1051 C168 2.738 . S
C1067 N173 1.868 . S
C1072 C366 1.945 . S
C1088 C405 2.212 . S
C1083 C177 2.210 . S
C1104 C295 2.419 . S
C1099 N163 2.357 . S
C1120 C562 1.570 . S
C1115 C200 1.559 . S
C1136 C451 0.950 . S
C1131 N219 0.821 . S
C1147 N242 0.625 . S
C1152 C482 0.651 . S
C1168 C526 2.220 . S
C1163 C269 2.255 . S
C1184 C326 1.109 . S
C1179 C191 1.105 . S
C1195 N209 1.093 . S
C1200 C362 1.146 . S
C1211 N232 0.549 . S
C1216 C411 0.432 . S
C1227 C260 2.236 . S
C1232 C285 2.300 . S
C1243 C223 2.003 . S
C1248 C574 2.038 . S
C1259 N255 1.430 . S
C1264 C322 1.549 . S
C1275 N186 2.114 . S
C1280 C374 2.041 . S
C1296 C415 1.735 . S
C1291 C214 1.691 . S
C1312 C291 1.533 . S
C1307 C237 1.542 . S
C1328 C494 2.457 . S
C1323 N265 2.327 . S
C1344 C522 1.104 . S
C1339 N196 0.987 . S
C1360 C455 0.500 . S
C1355 C246 0.471 . S
