# Generated by pormake.
# Topology gar, (4,6)-cn, num edge types: 1
# Building blocks:
#     Node 0, Type 0, BuildingBlock: QUQFOY_clean_sbu_3, # of connection points: 4
#     Node 1, Type 0, BuildingBlock: QUQFOY_clean_sbu_3, # of connection points: 4
#     Node 2, Type 0, BuildingBlock: QUQFOY_clean_sbu_3, # of connection points: 4
#     Node 3, Type 0, BuildingBlock: QUQFOY_clean_sbu_3, # of connection points: 4
#     Node 4, Type 0, BuildingBlock: QUQFOY_clean_sbu_3, # of connection points: 4
#     Node 5, Type 0, BuildingBlock: QUQFOY_clean_sbu_3, # of connection points: 4
#     Node 6, Type 0, BuildingBlock: QUQFOY_clean_sbu_3, # of connection points: 4
#     Node 7, Type 0, BuildingBlock: QUQFOY_clean_sbu_3, # of connection points: 4
#     Node 8, Type 0, BuildingBlock: QUQFOY_clean_sbu_3, # of connection points: 4
#     Node 9, Type 0, BuildingBlock: QUQFOY_clean_sbu_3, # of connection points: 4
#     Node 10, Type 0, BuildingBlock: QUQFOY_clean_sbu_3, # of connection points: 4
#     Node 11, Type 0, BuildingBlock: QUQFOY_clean_sbu_3, # of connection points: 4
#     Node 12, Type 0, BuildingBlock: QUQFOY_clean_sbu_3, # of connection points: 4
#     Node 13, Type 0, BuildingBlock: QUQFOY_clean_sbu_3, # of connection points: 4
#     Node 14, Type 0, BuildingBlock: QUQFOY_clean_sbu_3, # of connection points: 4
#     Node 15, Type 0, BuildingBlock: QUQFOY_clean_sbu_3, # of connection points: 4
#     Node 16, Type 0, BuildingBlock: QUQFOY_clean_sbu_3, # of connection points: 4
#     Node 17, Type 0, BuildingBlock: QUQFOY_clean_sbu_3, # of connection points: 4
#     Node 18, Type 0, BuildingBlock: QUQFOY_clean_sbu_3, # of connection points: 4
#     Node 19, Type 0, BuildingBlock: QUQFOY_clean_sbu_3, # of connection points: 4
#     Node 20, Type 0, BuildingBlock: QUQFOY_clean_sbu_3, # of connection points: 4
#     Node 21, Type 0, BuildingBlock: QUQFOY_clean_sbu_3, # of connection points: 4
#     Node 22, Type 0, BuildingBlock: QUQFOY_clean_sbu_3, # of connection points: 4
#     Node 23, Type 0, BuildingBlock: QUQFOY_clean_sbu_3, # of connection points: 4
#     Node 24, Type 1, BuildingBlock: KUMBOL_clean_sbu_1, # of connection points: 6
#     Node 25, Type 1, BuildingBlock: KUMBOL_clean_sbu_1, # of connection points: 6
#     Node 26, Type 1, BuildingBlock: KUMBOL_clean_sbu_1, # of connection points: 6
#     Node 27, Type 1, BuildingBlock: KUMBOL_clean_sbu_1, # of connection points: 6
#     Node 28, Type 1, BuildingBlock: KUMBOL_clean_sbu_1, # of connection points: 6
#     Node 29, Type 1, BuildingBlock: KUMBOL_clean_sbu_1, # of connection points: 6
#     Node 30, Type 1, BuildingBlock: KUMBOL_clean_sbu_1, # of connection points: 6
#     Node 31, Type 1, BuildingBlock: KUMBOL_clean_sbu_1, # of connection points: 6
#     Node 32, Type 1, BuildingBlock: KUMBOL_clean_sbu_1, # of connection points: 6
#     Node 33, Type 1, BuildingBlock: KUMBOL_clean_sbu_1, # of connection points: 6
#     Node 34, Type 1, BuildingBlock: KUMBOL_clean_sbu_1, # of connection points: 6
#     Node 35, Type 1, BuildingBlock: KUMBOL_clean_sbu_1, # of connection points: 6
#     Node 36, Type 1, BuildingBlock: KUMBOL_clean_sbu_1, # of connection points: 6
#     Node 37, Type 1, BuildingBlock: KUMBOL_clean_sbu_1, # of connection points: 6
#     Node 38, Type 1, BuildingBlock: KUMBOL_clean_sbu_1, # of connection points: 6
#     Node 39, Type 1, BuildingBlock: KUMBOL_clean_sbu_1, # of connection points: 6
#     Edge 40, Type (0, 1), BuildingBlock: MIFKUJ_clean_linker_0, # of connection points: 2
#     Edge 41, Type (0, 1), BuildingBlock: MIFKUJ_clean_linker_0, # of connection points: 2
#     Edge 42, Type (0, 1), BuildingBlock: MIFKUJ_clean_linker_0, # of connection points: 2
#     Edge 43, Type (0, 1), BuildingBlock: MIFKUJ_clean_linker_0, # of connection points: 2
#     Edge 44, Type (0, 1), BuildingBlock: MIFKUJ_clean_linker_0, # of connection points: 2
#     Edge 45, Type (0, 1), BuildingBlock: MIFKUJ_clean_linker_0, # of connection points: 2
#     Edge 46, Type (0, 1), BuildingBlock: MIFKUJ_clean_linker_0, # of connection points: 2
#     Edge 47, Type (0, 1), BuildingBlock: MIFKUJ_clean_linker_0, # of connection points: 2
#     Edge 48, Type (0, 1), BuildingBlock: MIFKUJ_clean_linker_0, # of connection points: 2
#     Edge 49, Type (0, 1), BuildingBlock: MIFKUJ_clean_linker_0, # of connection points: 2
#     Edge 50, Type (0, 1), BuildingBlock: MIFKUJ_clean_linker_0, # of connection points: 2
#     Edge 51, Type (0, 1), BuildingBlock: MIFKUJ_clean_linker_0, # of connection points: 2
#     Edge 52, Type (0, 1), BuildingBlock: MIFKUJ_clean_linker_0, # of connection points: 2
#     Edge 53, Type (0, 1), BuildingBlock: MIFKUJ_clean_linker_0, # of connection points: 2
#     Edge 54, Type (0, 1), BuildingBlock: MIFKUJ_clean_linker_0, # of connection points: 2
#     Edge 55, Type (0, 1), BuildingBlock: MIFKUJ_clean_linker_0, # of connection points: 2
#     Edge 56, Type (0, 1), BuildingBlock: MIFKUJ_clean_linker_0, # of connection points: 2
#     Edge 57, Type (0, 1), BuildingBlock: MIFKUJ_clean_linker_0, # of connection points: 2
#     Edge 58, Type (0, 1), BuildingBlock: MIFKUJ_clean_linker_0, # of connection points: 2
#     Edge 59, Type (0, 1), BuildingBlock: MIFKUJ_clean_linker_0, # of connection points: 2
#     Edge 60, Type (0, 1), BuildingBlock: MIFKUJ_clean_linker_0, # of connection points: 2
#     Edge 61, Type (0, 1), BuildingBlock: MIFKUJ_clean_linker_0, # of connection points: 2
#     Edge 62, Type (0, 1), BuildingBlock: MIFKUJ_clean_linker_0, # of connection points: 2
#     Edge 63, Type (0, 1), BuildingBlock: MIFKUJ_clean_linker_0, # of connection points: 2
#     Edge 64, Type (0, 1), BuildingBlock: MIFKUJ_clean_linker_0, # of connection points: 2
#     Edge 65, Type (0, 1), BuildingBlock: MIFKUJ_clean_linker_0, # of connection points: 2
#     Edge 66, Type (0, 1), BuildingBlock: MIFKUJ_clean_linker_0, # of connection points: 2
#     Edge 67, Type (0, 1), BuildingBlock: MIFKUJ_clean_linker_0, # of connection points: 2
#     Edge 68, Type (0, 1), BuildingBlock: MIFKUJ_clean_linker_0, # of connection points: 2
#     Edge 69, Type (0, 1), BuildingBlock: MIFKUJ_clean_linker_0, # of connection points: 2
#     Edge 70, Type (0, 1), BuildingBlock: MIFKUJ_clean_linker_0, # of connection points: 2
#     Edge 71, Type (0, 1), BuildingBlock: MIFKUJ_clean_linker_0, # of connection points: 2
#     Edge 72, Type (0, 1), BuildingBlock: MIFKUJ_clean_linker_0, # of connection points: 2
#     Edge 73, Type (0, 1), BuildingBlock: MIFKUJ_clean_linker_0, # of connection points: 2
#     Edge 74, Type (0, 1), BuildingBlock: MIFKUJ_clean_linker_0, # of connection points: 2
#     Edge 75, Type (0, 1), BuildingBlock: MIFKUJ_clean_linker_0, # of connection points: 2
#     Edge 76, Type (0, 1), BuildingBlock: MIFKUJ_clean_linker_0, # of connection points: 2
#     Edge 77, Type (0, 1), BuildingBlock: MIFKUJ_clean_linker_0, # of connection points: 2
#     Edge 78, Type (0, 1), BuildingBlock: MIFKUJ_clean_linker_0, # of connection points: 2
#     Edge 79, Type (0, 1), BuildingBlock: MIFKUJ_clean_linker_0, # of connection points: 2
#     Edge 80, Type (0, 1), BuildingBlock: MIFKUJ_clean_linker_0, # of connection points: 2
#     Edge 81, Type (0, 1), BuildingBlock: MIFKUJ_clean_linker_0, # of connection points: 2
#     Edge 82, Type (0, 1), BuildingBlock: MIFKUJ_clean_linker_0, # of connection points: 2
#     Edge 83, Type (0, 1), BuildingBlock: MIFKUJ_clean_linker_0, # of connection points: 2
#     Edge 84, Type (0, 1), BuildingBlock: MIFKUJ_clean_linker_0, # of connection points: 2
#     Edge 85, Type (0, 1), BuildingBlock: MIFKUJ_clean_linker_0, # of connection points: 2
#     Edge 86, Type (0, 1), BuildingBlock: MIFKUJ_clean_linker_0, # of connection points: 2
#     Edge 87, Type (0, 1), BuildingBlock: MIFKUJ_clean_linker_0, # of connection points: 2
#     Edge 88, Type (0, 1), BuildingBlock: MIFKUJ_clean_linker_0, # of connection points: 2
#     Edge 89, Type (0, 1), BuildingBlock: MIFKUJ_clean_linker_0, # of connection points: 2
#     Edge 90, Type (0, 1), BuildingBlock: MIFKUJ_clean_linker_0, # of connection points: 2
#     Edge 91, Type (0, 1), BuildingBlock: MIFKUJ_clean_linker_0, # of connection points: 2
#     Edge 92, Type (0, 1), BuildingBlock: MIFKUJ_clean_linker_0, # of connection points: 2
#     Edge 93, Type (0, 1), BuildingBlock: MIFKUJ_clean_linker_0, # of connection points: 2
#     Edge 94, Type (0, 1), BuildingBlock: MIFKUJ_clean_linker_0, # of connection points: 2
#     Edge 95, Type (0, 1), BuildingBlock: MIFKUJ_clean_linker_0, # of connection points: 2
#     Edge 96, Type (0, 1), BuildingBlock: MIFKUJ_clean_linker_0, # of connection points: 2
#     Edge 97, Type (0, 1), BuildingBlock: MIFKUJ_clean_linker_0, # of connection points: 2
#     Edge 98, Type (0, 1), BuildingBlock: MIFKUJ_clean_linker_0, # of connection points: 2
#     Edge 99, Type (0, 1), BuildingBlock: MIFKUJ_clean_linker_0, # of connection points: 2
#     Edge 100, Type (0, 1), BuildingBlock: MIFKUJ_clean_linker_0, # of connection points: 2
#     Edge 101, Type (0, 1), BuildingBlock: MIFKUJ_clean_linker_0, # of connection points: 2
#     Edge 102, Type (0, 1), BuildingBlock: MIFKUJ_clean_linker_0, # of connection points: 2
#     Edge 103, Type (0, 1), BuildingBlock: MIFKUJ_clean_linker_0, # of connection points: 2
#     Edge 104, Type (0, 1), BuildingBlock: MIFKUJ_clean_linker_0, # of connection points: 2
#     Edge 105, Type (0, 1), BuildingBlock: MIFKUJ_clean_linker_0, # of connection points: 2
#     Edge 106, Type (0, 1), BuildingBlock: MIFKUJ_clean_linker_0, # of connection points: 2
#     Edge 107, Type (0, 1), BuildingBlock: MIFKUJ_clean_linker_0, # of connection points: 2
#     Edge 108, Type (0, 1), BuildingBlock: MIFKUJ_clean_linker_0, # of connection points: 2
#     Edge 109, Type (0, 1), BuildingBlock: MIFKUJ_clean_linker_0, # of connection points: 2
#     Edge 110, Type (0, 1), BuildingBlock: MIFKUJ_clean_linker_0, # of connection points: 2
#     Edge 111, Type (0, 1), BuildingBlock: MIFKUJ_clean_linker_0, # of connection points: 2
#     Edge 112, Type (0, 1), BuildingBlock: MIFKUJ_clean_linker_0, # of connection points: 2
#     Edge 113, Type (0, 1), BuildingBlock: MIFKUJ_clean_linker_0, # of connection points: 2
#     Edge 114, Type (0, 1), BuildingBlock: MIFKUJ_clean_linker_0, # of connection points: 2
#     Edge 115, Type (0, 1), BuildingBlock: MIFKUJ_clean_linker_0, # of connection points: 2
#     Edge 116, Type (0, 1), BuildingBlock: MIFKUJ_clean_linker_0, # of connection points: 2
#     Edge 117, Type (0, 1), BuildingBlock: MIFKUJ_clean_linker_0, # of connection points: 2
#     Edge 118, Type (0, 1), BuildingBlock: MIFKUJ_clean_linker_0, # of connection points: 2
#     Edge 119, Type (0, 1), BuildingBlock: MIFKUJ_clean_linker_0, # of connection points: 2
#     Edge 120, Type (0, 1), BuildingBlock: MIFKUJ_clean_linker_0, # of connection points: 2
#     Edge 121, Type (0, 1), BuildingBlock: MIFKUJ_clean_linker_0, # of connection points: 2
#     Edge 122, Type (0, 1), BuildingBlock: MIFKUJ_clean_linker_0, # of connection points: 2
#     Edge 123, Type (0, 1), BuildingBlock: MIFKUJ_clean_linker_0, # of connection points: 2
#     Edge 124, Type (0, 1), BuildingBlock: MIFKUJ_clean_linker_0, # of connection points: 2
#     Edge 125, Type (0, 1), BuildingBlock: MIFKUJ_clean_linker_0, # of connection points: 2
#     Edge 126, Type (0, 1), BuildingBlock: MIFKUJ_clean_linker_0, # of connection points: 2
#     Edge 127, Type (0, 1), BuildingBlock: MIFKUJ_clean_linker_0, # of connection points: 2
#     Edge 128, Type (0, 1), BuildingBlock: MIFKUJ_clean_linker_0, # of connection points: 2
#     Edge 129, Type (0, 1), BuildingBlock: MIFKUJ_clean_linker_0, # of connection points: 2
#     Edge 130, Type (0, 1), BuildingBlock: MIFKUJ_clean_linker_0, # of connection points: 2
#     Edge 131, Type (0, 1), BuildingBlock: MIFKUJ_clean_linker_0, # of connection points: 2
#     Edge 132, Type (0, 1), BuildingBlock: MIFKUJ_clean_linker_0, # of connection points: 2
#     Edge 133, Type (0, 1), BuildingBlock: MIFKUJ_clean_linker_0, # of connection points: 2
#     Edge 134, Type (0, 1), BuildingBlock: MIFKUJ_clean_linker_0, # of connection points: 2
#     Edge 135, Type (0, 1), BuildingBlock: MIFKUJ_clean_linker_0, # of connection points: 2
# Relax obj value: 0.055
# Max RMSD: 0.178
# Mean RMSD: 0.103
data_MOF--net-gar--node1-QUQFOY_clean_sbu_3--node2-KUMBOL_clean_sbu_1--edge1-MIFKUJ_clean_linker_0
_symmetry_space_group_name_H-M    P1
_symmetry_Int_Tables_number       1
_symmetry_cell_setting            triclinic
loop_
_symmetry_equiv_pos_as_xyz
'x, y, z'
_cell_length_a     76.818402
_cell_length_b     78.021789
_cell_length_c     72.786091
_cell_angle_alpha  96.421743
_cell_angle_beta   95.552714
_cell_angle_gamma 100.72125
loop_
_atom_site_label
_atom_site_type_symbol
_atom_site_fract_x
_atom_site_fract_y
_atom_site_fract_z
_atom_type_partial_charge
C0 C 0.99964 0.29465 0.33237 0.0
O1 O 0.00919 0.30297 0.3217 0.0
Cd2 Cd 0.03988 0.31495 0.33317 0.0
O3 O 0.00715 0.29074 0.3474 0.0
Cd4 Cd 0.03982 0.2932 0.36227 0.0
C5 C 0.03973 0.33626 0.37697 0.0
O6 O 0.05745 0.2919 0.33472 0.0
O7 O 0.0729 0.30125 0.36135 0.0
O8 O 0.03322 0.26119 0.36421 0.0
C9 C 0.07278 0.29596 0.34419 0.0
O10 O 0.03984 0.3377 0.35974 0.0
C11 C 0.03718 0.26234 0.38171 0.0
O12 O 0.03991 0.32139 0.38257 0.0
O13 O 0.04227 0.27783 0.39035 0.0
C14 C 0.97833 0.74719 0.70352 0.0
O15 O 0.98611 0.73744 0.71287 0.0
Cd16 Cd 0.01391 0.73048 0.70351 0.0
O17 O 0.98576 0.75382 0.69024 0.0
Cd18 Cd 0.01558 0.7539 0.67626 0.0
C19 C 0.00966 0.70971 0.65954 0.0
O20 O 0.03883 0.75529 0.70429 0.0
O21 O 0.04702 0.75176 0.67678 0.0
O22 O 0.0237 0.78582 0.67412 0.0
C23 C 0.05147 0.75443 0.69425 0.0
O24 O 0.01017 0.70756 0.67664 0.0
C25 C 0.0174 0.78491 0.65721 0.0
O26 O 0.01081 0.72517 0.65492 0.0
O27 O 0.01025 0.76968 0.64892 0.0
C28 C 0.5002 0.79723 0.83303 0.0
O29 O 0.51037 0.80809 0.82509 0.0
Cd30 Cd 0.542 0.81691 0.83567 0.0
O31 O 0.50701 0.79034 0.84645 0.0
Cd32 Cd 0.53887 0.79303 0.86292 0.0
C33 C 0.5417 0.83694 0.87905 0.0
O34 O 0.55697 0.79198 0.83556 0.0
O35 O 0.57206 0.79943 0.86259 0.0
O36 O 0.52817 0.76145 0.86554 0.0
C37 C 0.57212 0.79482 0.84532 0.0
O38 O 0.54652 0.83945 0.86317 0.0
C39 C 0.53552 0.7619 0.88203 0.0
O40 O 0.53675 0.82125 0.88268 0.0
O41 O 0.54413 0.77682 0.88993 0.0
C42 C 0.47892 0.24738 0.20391 0.0
O43 O 0.48764 0.23865 0.21372 0.0
Cd44 Cd 0.51491 0.2315 0.20354 0.0
O45 O 0.48549 0.2532 0.18978 0.0
Cd46 Cd 0.51531 0.25367 0.17553 0.0
C47 C 0.50896 0.20952 0.15976 0.0
O48 O 0.53917 0.2566 0.20306 0.0
O49 O 0.54636 0.24926 0.17581 0.0
O50 O 0.52148 0.28571 0.1736 0.0
C51 C 0.55138 0.25394 0.19305 0.0
O52 O 0.51034 0.20784 0.177 0.0
C53 C 0.51696 0.28455 0.15621 0.0
O54 O 0.50968 0.22476 0.15471 0.0
O55 O 0.5118 0.26907 0.14758 0.0
C56 C 0.02112 0.77758 0.13685 0.0
O57 O 0.03131 0.76925 0.14548 0.0
Cd58 Cd 0.06009 0.7648 0.13942 0.0
O59 O 0.02587 0.78485 0.12267 0.0
Cd60 Cd 0.05339 0.78919 0.10457 0.0
C61 C 0.05039 0.74304 0.0939 0.0
O62 O 0.07334 0.79314 0.13387 0.0
O63 O 0.08725 0.79245 0.10994 0.0
O64 O 0.04219 0.81749 0.10187 0.0
C65 C 0.08814 0.79379 0.12755 0.0
O66 O 0.05585 0.74376 0.11111 0.0
C67 C 0.04935 0.82181 0.08762 0.0
O68 O 0.04692 0.75687 0.08728 0.0
O69 O 0.05807 0.8109 0.08049 0.0
C70 C 0.46597 0.76131 0.40064 0.0
O71 O 0.4766 0.77025 0.39138 0.0
Cd72 Cd 0.50781 0.78021 0.40002 0.0
O73 O 0.47184 0.75592 0.41566 0.0
Cd74 Cd 0.50326 0.75733 0.43394 0.0
C75 C 0.50876 0.80325 0.444 0.0
O76 O 0.51915 0.75482 0.40589 0.0
O77 O 0.53608 0.76443 0.43151 0.0
O78 O 0.49223 0.72517 0.43715 0.0
C79 C 0.53488 0.75919 0.41423 0.0
O80 O 0.51172 0.80284 0.42705 0.0
C81 C 0.5017 0.72476 0.45234 0.0
O82 O 0.50401 0.78879 0.4508 0.0
O83 O 0.51103 0.73954 0.45988 0.0
C84 C 0.52031 0.28112 0.63826 0.0
O85 O 0.53054 0.27365 0.648 0.0
Cd86 Cd 0.55831 0.26666 0.64182 0.0
O87 O 0.52488 0.28696 0.62326 0.0
Cd88 Cd 0.55257 0.29061 0.60531 0.0
C89 C 0.54688 0.24407 0.59643 0.0
O90 O 0.57282 0.29335 0.63361 0.0
O91 O 0.58635 0.29208 0.60935 0.0
O92 O 0.55257 0.32284 0.60615 0.0
C93 C 0.58737 0.29311 0.62698 0.0
O94 O 0.55085 0.24502 0.61397 0.0
C95 C 0.54964 0.32355 0.58882 0.0
O96 O 0.54623 0.25812 0.5888 0.0
O97 O 0.54804 0.30891 0.57843 0.0
C98 C 0.96487 0.26105 0.8997 0.0
O99 O 0.97535 0.26919 0.88971 0.0
Cd100 Cd 0.00666 0.27843 0.89764 0.0
O101 O 0.97099 0.25609 0.9149 0.0
Cd102 Cd 0.00255 0.25708 0.93301 0.0
C103 C 0.00756 0.30301 0.94117 0.0
O104 O 0.01802 0.25332 0.90485 0.0
O105 O 0.03513 0.26462 0.93001 0.0
O106 O 0.99106 0.22517 0.93748 0.0
C107 C 0.03375 0.25804 0.9131 0.0
O108 O 0.00974 0.30156 0.92397 0.0
C109 C 0.00147 0.22477 0.95203 0.0
O110 O 0.00377 0.28905 0.9491 0.0
O111 O 0.01146 0.23947 0.95877 0.0
C112 C 0.41178 0.01105 0.31799 0.0
O113 O 0.42135 0.00556 0.30624 0.0
Cd114 Cd 0.41136 0.99884 0.27415 0.0
O115 O 0.39688 0.01498 0.31298 0.0
Cd116 Cd 0.37695 0.01811 0.28655 0.0
C117 C 0.36975 0.97465 0.2799 0.0
O118 O 0.40021 0.02415 0.26912 0.0
O119 O 0.37455 0.02074 0.25286 0.0
O120 O 0.37887 0.04651 0.30235 0.0
C121 C 0.39142 0.0236 0.25346 0.0
O122 O 0.38557 0.97581 0.27553 0.0
C123 C 0.36217 0.04585 0.30072 0.0
O124 O 0.36329 0.98813 0.28453 0.0
O125 O 0.35197 0.03155 0.29306 0.0
C126 C 0.29278 0.13964 0.5118 0.0
O127 O 0.28178 0.12955 0.51967 0.0
Cd128 Cd 0.25265 0.13432 0.52443 0.0
O129 O 0.28866 0.15301 0.50526 0.0
Cd130 Cd 0.26204 0.16694 0.50202 0.0
C131 C 0.2636 0.17647 0.5485 0.0
O132 O 0.23933 0.13984 0.49541 0.0
O133 O 0.22985 0.16343 0.50389 0.0
O134 O 0.27166 0.17013 0.47137 0.0
C135 C 0.2262 0.14712 0.49796 0.0
O136 O 0.25641 0.16027 0.54772 0.0
C137 C 0.26725 0.18484 0.46998 0.0
O138 O 0.26902 0.18276 0.53413 0.0
O139 O 0.26073 0.19168 0.48375 0.0
C140 C 0.10575 0.0357 0.81328 0.0
O141 O 0.09577 0.04276 0.80283 0.0
Cd142 Cd 0.10391 0.05155 0.77395 0.0
O143 O 0.11985 0.0315 0.80782 0.0
Cd144 Cd 0.1338 0.0307 0.77801 0.0
C145 C 0.14726 0.07464 0.78396 0.0
O146 O 0.10759 0.02589 0.75432 0.0
O147 O 0.13309 0.0355 0.74522 0.0
O148 O 0.13528 0.99981 0.7791 0.0
C149 C 0.1165 0.02959 0.741 0.0
O150 O 0.13082 0.07501 0.78011 0.0
C151 C 0.15209 0.00198 0.77938 0.0
O152 O 0.15236 0.06012 0.78486 0.0
O153 O 0.16047 0.01756 0.77901 0.0
C154 C 0.3154 0.95112 -0.00081 0.0
O155 O 0.30698 0.96105 0.99072 0.0
Cd156 Cd 0.27617 0.95137 0.97933 0.0
O157 O 0.30758 0.93629 0.00276 0.0
Cd158 Cd 0.28074 0.91525 0.00163 0.0
C159 C 0.28142 0.9122 0.95557 0.0
O160 O 0.26569 0.93781 0.0046 0.0
O161 O 0.24839 0.91211 -0.00026 0.0
O162 O 0.29245 0.91368 0.03242 0.0
C163 C 0.25008 0.92873 0.00181 0.0
O164 O 0.27749 0.92735 0.9552 0.0
C165 C 0.28823 0.89703 0.03108 0.0
O166 O 0.28378 0.90565 0.97061 0.0
O167 O 0.28074 0.88864 0.01545 0.0
C168 C 0.32004 0.41264 0.03186 0.0
O169 O 0.31026 0.42125 0.02313 0.0
Cd170 Cd 0.28003 0.41041 0.01132 0.0
O171 O 0.31351 0.3977 0.03651 0.0
Cd172 Cd 0.28284 0.37914 0.03546 0.0
C173 C 0.28293 0.36929 0.98909 0.0
O174 O 0.26675 0.40288 0.038 0.0
O175 O 0.25004 0.37747 0.02862 0.0
O176 O 0.28617 0.37935 0.06895 0.0
C177 C 0.25117 0.39374 0.034 0.0
O178 O 0.28088 0.38508 0.98875 0.0
C179 C 0.28412 0.36284 0.0688 0.0
O180 O 0.28432 0.36301 0.0045 0.0
O181 O 0.28211 0.35353 0.05295 0.0
C182 C 0.78882 0.09632 0.04548 0.0
O183 O 0.77587 0.08591 0.05042 0.0
Cd184 Cd 0.74737 0.09377 0.053 0.0
O185 O 0.78701 0.11084 0.04012 0.0
Cd186 Cd 0.76637 0.12908 0.0342 0.0
C187 C 0.76326 0.13389 0.07959 0.0
O188 O 0.74103 0.10683 0.02601 0.0
O189 O 0.73618 0.13342 0.03044 0.0
O190 O 0.77627 0.13188 0.00458 0.0
C191 C 0.73003 0.11707 0.02643 0.0
O192 O 0.75343 0.11857 0.07779 0.0
C193 C 0.77771 0.14848 0.00654 0.0
O194 O 0.77069 0.14009 0.06623 0.0
O195 O 0.77552 0.15611 0.0223 0.0
C196 C 0.14296 0.53686 0.27808 0.0
O197 O 0.13297 0.54379 0.26745 0.0
Cd198 Cd 0.13653 0.54701 0.23567 0.0
O199 O 0.1563 0.53121 0.27265 0.0
Cd200 Cd 0.17213 0.52887 0.24569 0.0
C201 C 0.17912 0.57199 0.24464 0.0
O202 O 0.14657 0.52158 0.22416 0.0
O203 O 0.17144 0.5243 0.21209 0.0
O204 O 0.17317 0.50106 0.25347 0.0
C205 C 0.15456 0.52132 0.20977 0.0
O206 O 0.16262 0.57016 0.23879 0.0
C207 C 0.18972 0.50219 0.25249 0.0
O208 O 0.18581 0.55918 0.24939 0.0
O209 O 0.19876 0.51676 0.2494 0.0
C210 C 0.81912 0.91229 0.52782 0.0
O211 O 0.80858 0.91963 0.51831 0.0
Cd212 Cd 0.77749 0.91054 0.5095 0.0
O213 O 0.81328 0.89819 0.53464 0.0
Cd214 Cd 0.78311 0.87884 0.53563 0.0
C215 C 0.77837 0.86864 0.48806 0.0
O216 O 0.76815 0.90321 0.53786 0.0
O217 O 0.75038 0.8781 0.53473 0.0
O218 O 0.79249 0.87746 0.56847 0.0
C219 C 0.75236 0.89471 0.53687 0.0
O220 O 0.77575 0.88425 0.48755 0.0
C221 C 0.78623 0.86115 0.56801 0.0
O222 O 0.78195 0.86311 0.5036 0.0
O223 O 0.77947 0.85273 0.55217 0.0
C224 C 0.94615 0.00958 0.29416 0.0
O225 O 0.95396 1.00022 0.2836 0.0
Cd226 Cd 0.94592 0.99226 0.25087 0.0
O227 O 0.9332 0.01605 0.28743 0.0
Cd228 Cd 0.91661 0.01494 0.25544 0.0
C229 C 0.90307 0.97065 0.25259 0.0
O230 O 0.94192 0.01796 0.23704 0.0
O231 O 0.91585 0.0096 0.22136 0.0
O232 O 0.91546 0.0461 0.26202 0.0
C233 C 0.9325 0.01471 0.22129 0.0
O234 O 0.91894 0.96997 0.24938 0.0
C235 C 0.89868 0.04414 0.25814 0.0
O236 O 0.89841 0.98542 0.25601 0.0
O237 O 0.89003 0.02845 0.25352 0.0
C238 C 0.29169 0.59721 0.54707 0.0
O239 O 0.27956 0.58853 0.55497 0.0
Cd240 Cd 0.24928 0.59274 0.55362 0.0
O241 O 0.28894 0.60955 0.53792 0.0
Cd242 Cd 0.26674 0.62573 0.52981 0.0
C243 C 0.26028 0.63526 0.57456 0.0
O244 O 0.24265 0.60173 0.5242 0.0
O245 O 0.23627 0.62763 0.52425 0.0
O246 O 0.27419 0.62854 0.49898 0.0
C247 C 0.23093 0.61116 0.52304 0.0
O248 O 0.25236 0.61943 0.57481 0.0
C249 C 0.27611 0.64521 0.50136 0.0
O250 O 0.26757 0.64016 0.56054 0.0
O251 O 0.27538 0.65269 0.51763 0.0
C252 C 0.44684 0.51292 0.79365 0.0
O253 O 0.45557 0.50437 0.78335 0.0
Cd254 Cd 0.44537 0.4933 0.75136 0.0
O255 O 0.43264 0.51734 0.78687 0.0
Cd256 Cd 0.41578 0.51531 0.75512 0.0
C257 C 0.40252 0.47114 0.75336 0.0
O258 O 0.44061 0.51801 0.73627 0.0
O259 O 0.41444 0.50877 0.72092 0.0
O260 O 0.41439 0.54651 0.75684 0.0
C261 C 0.43105 0.51417 0.72062 0.0
O262 O 0.41851 0.47043 0.75061 0.0
C263 C 0.39778 0.54438 0.75791 0.0
O264 O 0.39781 0.48595 0.7561 0.0
O265 O 0.38938 0.52874 0.75792 0.0
C266 C 0.63697 0.03162 0.76928 0.0
O267 O 0.6269 0.03611 0.75657 0.0
Cd268 Cd 0.63756 0.04463 0.72866 0.0
O269 O 0.65257 0.02943 0.76678 0.0
Cd270 Cd 0.672 0.0283 0.74277 0.0
C271 C 0.6782 0.07088 0.74834 0.0
O272 O 0.65086 0.02154 0.71674 0.0
O273 O 0.67769 0.03204 0.71117 0.0
O274 O 0.67023 0.99901 0.74691 0.0
C275 C 0.66153 0.02559 0.70503 0.0
O276 O 0.66245 0.06904 0.74002 0.0
C277 C 0.68693 0.99974 0.74833 0.0
O278 O 0.68515 0.05796 0.75204 0.0
O279 O 0.69714 0.01462 0.74841 0.0
C280 C 0.79208 0.63774 0.01438 0.0
O281 O 0.78085 0.62891 0.02318 0.0
Cd282 Cd 0.75159 0.6329 0.02748 0.0
O283 O 0.78844 0.65071 0.00651 0.0
Cd284 Cd 0.76289 0.6665 0.00251 0.0
C285 C 0.76387 0.67597 0.04995 0.0
O286 O 0.74149 0.63932 0.99805 0.0
O287 O 0.7297 0.66215 0.99769 0.0
O288 O 0.77407 0.66918 0.97242 0.0
C289 C 0.72747 0.64556 0.99665 0.0
O290 O 0.75741 0.65962 0.0494 0.0
C291 C 0.76983 0.68389 0.97046 0.0
O292 O 0.76814 0.68238 0.03518 0.0
O293 O 0.76305 0.69108 0.98382 0.0
C294 C 0.91152 0.51141 0.81681 0.0
O295 O 0.92128 0.50709 0.80466 0.0
Cd296 Cd 0.91069 0.50079 0.77287 0.0
O297 O 0.89616 0.51464 0.81229 0.0
Cd298 Cd 0.87523 0.51732 0.78616 0.0
C299 C 0.87128 0.4742 0.78118 0.0
O300 O 0.8981 0.52548 0.76879 0.0
O301 O 0.87249 0.5191 0.75216 0.0
O302 O 0.87404 0.54475 0.80306 0.0
C303 C 0.88929 0.52399 0.75299 0.0
O304 O 0.88672 0.47642 0.77573 0.0
C305 C 0.85726 0.54307 0.7994 0.0
O306 O 0.8639 0.48706 0.78578 0.0
O307 O 0.84861 0.5286 0.79036 0.0
C308 C 0.81402 0.45338 0.49976 0.0
O309 O 0.80481 0.46279 0.49149 0.0
Cd310 Cd 0.77447 0.45011 0.48127 0.0
O311 O 0.80688 0.43861 0.50403 0.0
Cd312 Cd 0.78121 0.4169 0.50518 0.0
C313 C 0.78323 0.41076 0.46014 0.0
O314 O 0.76411 0.43795 0.50749 0.0
O315 O 0.74908 0.41139 0.49909 0.0
O316 O 0.79312 0.41703 0.53687 0.0
C317 C 0.74918 0.42762 0.50327 0.0
O318 O 0.7785 0.4255 0.4592 0.0
C319 C 0.78687 0.40076 0.53655 0.0
O320 O 0.78576 0.40485 0.47554 0.0
O321 O 0.77889 0.39197 0.52135 0.0
C322 C 0.60573 0.53761 0.31421 0.0
O323 O 0.59723 0.54664 0.30454 0.0
Cd324 Cd 0.60254 0.55231 0.27361 0.0
O325 O 0.61814 0.53084 0.30773 0.0
Cd326 Cd 0.63295 0.53032 0.27839 0.0
C327 C 0.64594 0.57485 0.2828 0.0
O328 O 0.60577 0.52564 0.25554 0.0
O329 O 0.63108 0.53106 0.24481 0.0
O330 O 0.63664 0.50086 0.28508 0.0
C331 C 0.61424 0.52722 0.24149 0.0
O332 O 0.62961 0.57478 0.27762 0.0
C333 C 0.65224 0.50226 0.28028 0.0
O334 O 0.65102 0.56057 0.2855 0.0
O335 O 0.65901 0.51676 0.27504 0.0
C336 C 0.98962 0.97178 0.99199 0.0
C337 C 0.97186 0.9582 0.01431 0.0
C338 C 0.98232 0.97319 0.00876 0.0
C339 C 0.96845 0.94205 0.00265 0.0
C340 C 0.98612 0.95554 0.98024 0.0
C341 C 0.97546 0.94075 0.98562 0.0
N342 N 0.00015 0.98622 0.98718 0.0
C343 C 0.00679 0.9855 0.97046 0.0
C344 C 0.99331 0.95467 0.96329 0.0
C345 C 0.00363 0.96975 0.95835 0.0
Gd346 Gd 0.04943 0.03528 0.03376 0.0
Gd347 Gd 0.00157 0.01254 0.00674 0.0
N348 N 0.98585 0.98902 0.01986 0.0
C349 C 0.96538 0.95979 0.03159 0.0
C350 C 0.97891 0.99072 0.03637 0.0
C351 C 0.96895 0.97612 0.04267 0.0
H352 H 0.9804 0.00332 0.04448 0.0
H353 H 0.9637 0.97755 0.05591 0.0
H354 H 0.07068 0.04886 -0.00109 0.0
H355 H 0.01392 0.99714 0.966 0.0
H356 H 0.08729 0.07646 0.99022 0.0
H357 H 0.95751 0.94854 0.03645 0.0
H358 H 0.96041 0.93045 0.0067 0.0
H359 H 0.04051 0.04527 0.07796 0.0
H360 H 0.99078 0.9425 0.95381 0.0
H361 H 0.0089 0.96933 0.94508 0.0
H362 H 0.08453 0.11996 0.04133 0.0
H363 H 0.97261 0.92821 0.97674 0.0
H364 H 0.05638 0.10069 0.09325 0.0
H365 H 0.04282 0.07142 0.10075 0.0
N366 N 0.04961 0.05953 0.05631 0.0
C367 C 0.05796 0.07542 0.05227 0.0
C368 C 0.04485 0.05797 0.07375 0.0
C369 C 0.05451 0.08928 0.08277 0.0
C370 C 0.04677 0.0728 0.08702 0.0
C371 C 0.06061 0.09071 0.06541 0.0
H372 H 0.07211 0.1186 0.07113 0.0
N373 N 0.06318 0.0612 0.02347 0.0
C374 C 0.06514 0.07623 0.0355 0.0
C375 C 0.08267 0.09234 0.01477 0.0
C376 C 0.0749 0.09226 0.03141 0.0
C377 C 0.07143 0.06104 0.00769 0.0
C378 C 0.08101 0.07662 0.00291 0.0
O379 O 0.01942 0.99334 0.01537 0.0
O380 O 0.0396 0.0076 0.04066 0.0
O381 O 0.07471 0.0287 0.02868 0.0
O382 O 0.07088 0.03949 0.05644 0.0
O383 O 0.00137 0.0275 0.03514 0.0
O384 O 0.02796 0.02483 0.05097 0.0
O385 O 0.03594 0.05174 0.01482 0.0
O386 O 0.00588 0.04239 0.01537 0.0
O387 O 0.9729 0.01006 0.0022 0.0
O388 O 0.9889 0.01626 0.98002 0.0
O389 O 0.04835 0.01895 0.00583 0.0
O390 O 0.02284 0.02341 0.98965 0.0
C391 C 0.03087 0.99307 0.03013 0.0
C392 C 0.01149 0.02725 0.0507 0.0
C393 C 0.08946 0.01867 0.05363 0.0
C394 C 0.10996 0.99891 0.04925 0.0
C395 C 0.09326 0.9983 0.07585 0.0
C396 C 0.08517 0.01174 0.07 0.0
C397 C 0.10557 0.99177 0.06547 0.0
C398 C 0.10178 0.01221 0.04345 0.0
C399 C 0.08118 0.03224 0.0462 0.0
C400 C 0.07705 0.10754 0.04422 0.0
C401 C 0.06993 0.10677 0.06117 0.0
H402 H 0.09027 0.10438 0.01115 0.0
C403 C 0.01951 0.05455 0.0127 0.0
C404 C 0.03934 0.02106 0.99026 0.0
C405 C 0.96399 0.02961 0.98229 0.0
C406 C 0.94432 0.0491 0.99187 0.0
C407 C 0.95967 0.05347 0.96466 0.0
C408 C 0.9675 0.03901 0.96722 0.0
C409 C 0.94824 0.05861 0.97701 0.0
C410 C 0.95208 0.03454 0.99436 0.0
C411 C 0.97323 0.01515 0.98576 0.0
H412 H 0.09003 0.99302 0.08847 0.0
H413 H 0.07555 0.01652 0.07811 0.0
H414 H 0.11186 0.98149 0.07025 0.0
H415 H 0.10487 0.01748 0.03069 0.0
H416 H 0.96252 0.06072 0.95311 0.0
H417 H 0.97646 0.03533 0.95755 0.0
H418 H 0.94219 0.06982 0.97478 0.0
H419 H 0.94907 0.02734 0.00595 0.0
C420 C 0.30356 0.74313 0.22383 0.0
C421 C 0.28123 0.7296 0.1978 0.0
C422 C 0.28692 0.74205 0.2139 0.0
C423 C 0.29248 0.71838 0.19184 0.0
C424 C 0.31493 0.73192 0.21778 0.0
C425 C 0.30928 0.71955 0.20178 0.0
N426 N 0.30863 0.75504 0.23942 0.0
C427 C 0.32506 0.7568 0.24927 0.0
C428 C 0.33166 0.73346 0.22802 0.0
C429 C 0.33677 0.74601 0.24378 0.0
Gd430 Gd 0.25577 0.7721 0.29411 0.0
Gd431 Gd 0.28811 0.77258 0.24749 0.0
N432 N 0.27615 0.75287 0.22021 0.0
C433 C 0.26436 0.72872 0.18819 0.0
C434 C 0.25983 0.75227 0.21055 0.0
C435 C 0.25367 0.74017 0.19455 0.0
H436 H 0.25137 0.76102 0.21488 0.0
H437 H 0.24065 0.73972 0.18711 0.0
H438 H 0.28222 0.76958 0.33354 0.0
H439 H 0.32934 0.76676 0.26121 0.0
H440 H 0.29464 0.78836 0.36306 0.0
H441 H 0.25951 0.71933 0.17581 0.0
H442 H 0.28829 0.70873 0.17955 0.0
H443 H 0.22047 0.78746 0.27774 0.0
H444 H 0.34076 0.72511 0.2238 0.0
H445 H 0.34976 0.74745 0.25166 0.0
H446 H 0.26375 0.83645 0.36362 0.0
H447 H 0.31781 0.7108 0.19699 0.0
H448 H 0.21701 0.83346 0.31399 0.0
H449 H 0.20565 0.81233 0.2855 0.0
N450 N 0.24019 0.79461 0.30124 0.0
C451 C 0.24631 0.80572 0.31719 0.0
C452 C 0.2256 0.79665 0.29007 0.0
C453 C 0.2236 0.82259 0.31057 0.0
C454 C 0.21714 0.8107 0.29448 0.0
C455 C 0.23826 0.8201 0.32225 0.0
H456 H 0.23888 0.84245 0.34301 0.0
N457 N 0.26709 0.78778 0.32379 0.0
C458 C 0.26034 0.80231 0.32872 0.0
C459 C 0.27957 0.80839 0.35794 0.0
C460 C 0.26654 0.81314 0.34583 0.0
C461 C 0.27842 0.78217 0.33639 0.0
C462 C 0.28522 0.79261 0.35338 0.0
O463 O 0.2758 0.74456 0.24936 0.0
O464 O 0.26608 0.76092 0.26997 0.0
O465 O 0.25207 0.74755 0.3055 0.0
O466 O 0.22916 0.75893 0.29838 0.0
O467 O 0.2601 0.77962 0.24309 0.0
O468 O 0.24079 0.76913 0.26471 0.0
O469 O 0.26393 0.7988 0.28559 0.0
O470 O 0.28664 0.78891 0.27434 0.0
O471 O 0.28794 0.79393 0.23107 0.0
O472 O 0.31313 0.78802 0.24192 0.0
O473 O 0.28466 0.76813 0.3012 0.0
O474 O 0.30226 0.76957 0.27597 0.0
C475 C 0.26633 0.74511 0.26291 0.0
C476 C 0.24401 0.77576 0.24894 0.0
C477 C 0.23032 0.74593 0.32615 0.0
C478 C 0.23834 0.74153 0.35825 0.0
C479 C 0.20911 0.74753 0.34859 0.0
C480 C 0.21344 0.7483 0.33047 0.0
C481 C 0.22144 0.74413 0.36243 0.0
C482 C 0.24269 0.74266 0.34016 0.0
C483 C 0.23535 0.74738 0.30731 0.0
C484 C 0.25903 0.82789 0.35063 0.0
C485 C 0.24486 0.83131 0.3389 0.0
H486 H 0.28473 0.81637 0.37118 0.0
C487 C 0.27733 0.80118 0.27587 0.0
C488 C 0.29972 0.76738 0.29354 0.0
C489 C 0.31054 0.79636 0.21175 0.0
C490 C 0.30623 0.80575 0.18136 0.0
C491 C 0.32448 0.78403 0.18623 0.0
C492 C 0.32129 0.78496 0.20485 0.0
C493 C 0.31687 0.79429 0.17443 0.0
C494 C 0.30332 0.80685 0.20002 0.0
C495 C 0.30513 0.79651 0.23047 0.0
H496 H 0.19607 0.74934 0.35187 0.0
H497 H 0.20367 0.75085 0.31989 0.0
H498 H 0.21752 0.74296 0.3762 0.0
H499 H 0.25581 0.74089 0.33705 0.0
H500 H 0.33272 0.77524 0.18089 0.0
H501 H 0.32697 0.77661 0.21366 0.0
H502 H 0.31944 0.79344 0.16001 0.0
H503 H 0.29483 0.81547 0.20531 0.0
C504 C 0.5674 0.06125 0.49473 0.0
C505 C 0.58553 0.0806 0.52097 0.0
C506 C 0.57379 0.06465 0.51366 0.0
C507 C 0.59054 0.09323 0.50915 0.0
C508 C 0.57277 0.07378 0.48279 0.0
C509 C 0.58417 0.08984 0.49014 0.0
N510 N 0.55644 0.04554 0.4879 0.0
C511 C 0.55145 0.04107 0.46922 0.0
C512 C 0.56681 0.06966 0.46373 0.0
C513 C 0.55628 0.05316 0.4569 0.0
Gd514 Gd 0.50047 0.01969 0.53083 0.0
Gd515 Gd 0.5496 0.02648 0.51001 0.0
N516 N 0.5683 0.05243 0.52497 0.0
C517 C 0.59202 0.08332 0.53994 0.0
C518 C 0.5754 0.05454 0.54317 0.0
C519 C 0.58711 0.07013 0.55103 0.0
H520 H 0.57223 0.04415 0.55152 0.0
H521 H 0.5925 0.07189 0.56557 0.0
H522 H 0.478 0.00176 0.48917 0.0
H523 H 0.54426 0.02801 0.46373 0.0
H524 H 0.45581 0.97492 0.47608 0.0
H525 H 0.60111 0.09538 0.54607 0.0
H526 H 0.59949 0.10559 0.51455 0.0
H527 H 0.51107 0.01576 0.57663 0.0
H528 H 0.57065 0.07893 0.45412 0.0
H529 H 0.55215 0.04962 0.4421 0.0
H530 H 0.44921 0.94156 0.52715 0.0
H531 H 0.58835 0.09963 0.48118 0.0
H532 H 0.48277 0.96573 0.58611 0.0
H533 H 0.50371 0.99378 0.59766 0.0
N534 N 0.49586 0.99974 0.55257 0.0
C535 C 0.48375 0.98464 0.54606 0.0
C536 C 0.50267 0.00326 0.57097 0.0
C537 C 0.4863 0.97517 0.57658 0.0
C538 C 0.49821 0.99095 0.58313 0.0
C539 C 0.47877 0.97191 0.55793 0.0
H540 H 0.46235 0.94655 0.5599 0.0
N541 N 0.4814 0.99401 0.51601 0.0
C542 C 0.47613 0.98184 0.52745 0.0
C543 C 0.45645 0.96374 0.50173 0.0
C544 C 0.46364 0.96624 0.52047 0.0
C545 C 0.47422 0.9918 0.49785 0.0
C546 C 0.46166 0.97663 0.49043 0.0
O547 O 0.54099 0.05174 0.52198 0.0
O548 O 0.51674 0.04746 0.53926 0.0
O549 O 0.47591 0.02896 0.5218 0.0
O550 O 0.48407 0.02725 0.55122 0.0
O551 O 0.54132 0.01401 0.53482 0.0
O552 O 0.52405 0.02821 0.55189 0.0
O553 O 0.51019 0.99472 0.51919 0.0
O554 O 0.53135 1.00019 0.49834 0.0
O555 O 0.57038 0.01361 0.52151 0.0
O556 O 0.57057 0.02132 0.49385 0.0
O557 O 0.50808 0.03329 0.50645 0.0
O558 O 0.52582 0.02025 0.48839 0.0
C559 C 0.52997 0.05768 0.53291 0.0
C560 C 0.53892 0.02282 0.55031 0.0
C561 C 0.45647 0.03692 0.54516 0.0
C562 C 0.43393 0.05505 0.5429 0.0
C563 C 0.43674 0.03871 0.56917 0.0
C564 C 0.45068 0.03214 0.56196 0.0
C565 C 0.4285 0.05022 0.5598 0.0
C566 C 0.44779 0.04815 0.5354 0.0
C567 C 0.47244 0.0312 0.53903 0.0
C568 C 0.45878 0.9536 0.5323 0.0
C569 C 0.46631 0.95643 0.55095 0.0
H570 H 0.44678 0.95196 0.49588 0.0
C571 C 0.51993 0.9893 0.50636 0.0
C572 C 0.51092 0.02578 0.49041 0.0
C573 C 0.58354 0.99705 0.49917 0.0
C574 C 0.60518 0.97791 0.50026 0.0
C575 C 0.58077 0.97204 0.47521 0.0
C576 C 0.57457 0.9867 0.48272 0.0
C577 C 0.59605 0.96768 0.48389 0.0
C578 C 0.59885 0.99255 0.50796 0.0
C579 C 0.57806 0.01339 0.50628 0.0
H580 H 0.43245 0.03503 0.58216 0.0
H581 H 0.45711 0.02346 0.56969 0.0
H582 H 0.41775 0.05528 0.5657 0.0
H583 H 0.45223 0.05205 0.52251 0.0
H584 H 0.57384 0.96417 0.4625 0.0
H585 H 0.56301 0.99017 0.47546 0.0
H586 H 0.60082 0.95636 0.4778 0.0
H587 H 0.60603 1.00059 0.5205 0.0
C588 C 0.23383 0.28751 0.72652 0.0
C589 C 0.21556 0.26059 0.70936 0.0
C590 C 0.22699 0.26953 0.72524 0.0
C591 C 0.21188 0.26972 0.69435 0.0
C592 C 0.2294 0.29685 0.7118 0.0
C593 C 0.21877 0.2878 0.69559 0.0
N594 N 0.24338 0.2961 0.74274 0.0
C595 C 0.24725 0.31407 0.74575 0.0
C596 C 0.23496 0.31517 0.7142 0.0
C597 C 0.24363 0.32384 0.73138 0.0
Gd598 Gd 0.29842 0.26561 0.77089 0.0
Gd599 Gd 0.24896 0.27815 0.7656 0.0
N600 N 0.2307 0.26099 0.73999 0.0
C601 C 0.20759 0.24291 0.70936 0.0
C602 C 0.22199 0.24416 0.74066 0.0
C603 C 0.21058 0.23475 0.72521 0.0
H604 H 0.22409 0.23801 0.75304 0.0
H605 H 0.20405 0.22127 0.72556 0.0
H606 H 0.32067 0.30748 0.78498 0.0
H607 H 0.25268 0.32095 0.75935 0.0
H608 H 0.33877 0.32457 0.81303 0.0
H609 H 0.19869 0.23562 0.69744 0.0
H610 H 0.20322 0.26306 0.68198 0.0
H611 H 0.29185 0.22341 0.77866 0.0
H612 H 0.23183 0.3228 0.70322 0.0
H613 H 0.24712 0.33807 0.73373 0.0
H614 H 0.34365 0.28194 0.85489 0.0
H615 H 0.2152 0.29484 0.68424 0.0
H616 H 0.31608 0.22178 0.83366 0.0
H617 H 0.29881 0.20651 0.80402 0.0
N618 N 0.30419 0.24823 0.79407 0.0
C619 C 0.31451 0.25681 0.80984 0.0
C620 C 0.29893 0.23035 0.79169 0.0
C621 C 0.31289 0.22934 0.82263 0.0
C622 C 0.30305 0.22067 0.80597 0.0
C623 C 0.31891 0.2476 0.82468 0.0
H624 H 0.33278 0.24998 0.8525 0.0
N625 N 0.3167 0.28334 0.79637 0.0
C626 C 0.32089 0.27486 0.81106 0.0
C627 C 0.33776 0.30222 0.82807 0.0
C628 C 0.33148 0.28411 0.82733 0.0
C629 C 0.32325 0.30089 0.79682 0.0
C630 C 0.33372 0.31061 0.8127 0.0
O631 O 0.25686 0.25992 0.74262 0.0
O632 O 0.28606 0.2725 0.74418 0.0
O633 O 0.32603 0.27043 0.76412 0.0
O634 O 0.30795 0.24503 0.75453 0.0
O635 O 0.2535 0.25464 0.7794 0.0
O636 O 0.27465 0.24286 0.76458 0.0
O637 O 0.28451 0.27141 0.79659 0.0
O638 O 0.26889 0.29284 0.78955 0.0
O639 O 0.23194 0.27154 0.78744 0.0
O640 O 0.22444 0.28772 0.76724 0.0
O641 O 0.29746 0.29154 0.76032 0.0
O642 O 0.27221 0.302 0.76848 0.0
C643 C 0.27158 0.26289 0.73475 0.0
C644 C 0.25997 0.24108 0.77279 0.0
C645 C 0.33797 0.24799 0.74555 0.0
C646 C 0.36368 0.25163 0.72779 0.0
C647 C 0.35107 0.2229 0.73586 0.0
C648 C 0.33826 0.22999 0.74479 0.0
C649 C 0.36365 0.2336 0.72739 0.0
C650 C 0.35086 0.25892 0.73707 0.0
C651 C 0.32374 0.2548 0.75468 0.0
C652 C 0.33555 0.27503 0.84228 0.0
C653 C 0.32934 0.25683 0.84093 0.0
H654 H 0.34592 0.3098 0.84033 0.0
C655 C 0.27793 0.28545 0.80163 0.0
C656 C 0.2885 0.30431 0.7632 0.0
C657 C 0.21243 0.29107 0.79562 0.0
C658 C 0.18748 0.29455 0.81363 0.0
C659 C 0.21022 0.31996 0.81 0.0
C660 C 0.21927 0.30919 0.79965 0.0
C661 C 0.19446 0.3128 0.81678 0.0
C662 C 0.19667 0.2837 0.80288 0.0
C663 C 0.22015 0.28038 0.78173 0.0
H664 H 0.3512 0.20902 0.73544 0.0
H665 H 0.32857 0.22137 0.75118 0.0
H666 H 0.37344 0.22779 0.72045 0.0
H667 H 0.35073 0.27281 0.73741 0.0
H668 H 0.2154 0.334 0.8127 0.0
H669 H 0.23126 0.31511 0.79417 0.0
H670 H 0.18796 0.32164 0.82489 0.0
H671 H 0.19123 0.26973 0.79948 0.0
C672 C 0.01009 0.06592 0.56009 0.0
C673 C 0.0375 0.08566 0.57434 0.0
C674 C 0.02799 0.07311 0.55962 0.0
C675 C 0.02892 0.09048 0.58975 0.0
C676 C 0.0014 0.07081 0.57547 0.0
C677 C 0.01093 0.08306 0.59031 0.0
N678 N 0.00126 0.05397 0.5456 0.0
C679 C 0.9836 0.04685 0.5453 0.0
C680 C 0.98339 0.06322 0.57546 0.0
C681 C 0.97444 0.05126 0.56026 0.0
Gd682 Gd 0.03568 1.00008 0.51851 0.0
Gd683 Gd 0.01797 0.04723 0.52143 0.0
N684 N 0.03613 0.06768 0.54483 0.0
C685 C 0.05535 0.093 0.5731 0.0
C686 C 0.05317 0.07548 0.54308 0.0
C687 C 0.06315 0.08803 0.55729 0.0
H688 H 0.05889 0.07246 0.53051 0.0
H689 H 0.07678 0.09401 0.55594 0.0
H690 H 0.99392 0.97839 0.50326 0.0
H691 H 0.97646 0.03802 0.53339 0.0
H692 H 0.97827 0.95664 0.47691 0.0
H693 H 0.06313 0.10269 0.5841 0.0
H694 H 0.03605 0.09998 0.60127 0.0
H695 H 0.07881 0.00849 0.51181 0.0
H696 H 0.97624 0.06661 0.58703 0.0
H697 H 0.96044 0.04551 0.56 0.0
H698 H 0.02475 0.94579 0.44022 0.0
H699 H 0.00446 0.08697 0.60223 0.0
H700 H 0.08435 0.97755 0.46107 0.0
H701 H 0.09774 0.9994 0.48844 0.0
N702 N 0.05491 0.99242 0.4974 0.0
C703 C 0.04727 0.98032 0.48255 0.0
C704 C 0.07279 0.9992 0.49972 0.0
C705 C 0.07595 0.9816 0.47118 0.0
C706 C 0.08356 0.99397 0.4866 0.0
C707 C 0.05761 0.97456 0.46903 0.0
H708 H 0.05708 0.95748 0.44327 0.0
N709 N 0.01926 0.98018 0.49363 0.0
C710 C 0.02898 0.9738 0.48076 0.0
C711 C 0.00218 0.95512 0.46409 0.0
C712 C 0.02065 0.96124 0.46551 0.0
C713 C 0.00137 0.97395 0.49259 0.0
C714 C 0.99252 0.96146 0.47774 0.0
O715 O 0.02567 0.03743 0.54885 0.0
O716 O 0.04716 0.02199 0.54148 0.0
O717 O 0.02651 0.97885 0.53464 0.0
O718 O 0.05442 0.98582 0.53089 0.0
O719 O 0.04333 0.04546 0.50807 0.0
O720 O 0.05626 0.02532 0.52293 0.0
O721 O 0.02783 0.00928 0.49064 0.0
O722 O 0.00693 0.02539 0.49824 0.0
O723 O 0.02441 0.06884 0.50445 0.0
O724 O 0.99779 0.06162 0.51297 0.0
O725 O 0.01061 0.00251 0.53173 0.0
O726 O 0.99683 0.02216 0.51706 0.0
C727 C 0.03799 0.02861 0.55367 0.0
C728 C 0.05713 0.03838 0.51284 0.0
C729 C 0.04359 0.95631 0.53565 0.0
C730 C 0.04184 0.9286 0.54895 0.0
C731 C 0.05373 0.93173 0.51946 0.0
C732 C 0.05087 0.94894 0.5204 0.0
C733 C 0.0494 0.92168 0.53368 0.0
C734 C 0.03881 0.94595 0.54982 0.0
C735 C 0.04231 0.9751 0.53765 0.0
C736 C 0.03093 0.95539 0.45207 0.0
C737 C 0.04935 0.96206 0.4538 0.0
H738 H 0.99527 0.94549 0.45257 0.0
C739 C 0.01595 0.01871 0.4859 0.0
C740 C 0.99626 0.00827 0.52603 0.0
C741 C 0.00178 0.08582 0.49446 0.0
C742 C 0.00625 0.11156 0.47761 0.0
C743 C 0.97679 0.09942 0.48526 0.0
C744 C 0.98357 0.08654 0.49379 0.0
C745 C 0.98802 0.11185 0.47727 0.0
C746 C 0.0132 0.09842 0.48616 0.0
C747 C 0.0083 0.07198 0.50414 0.0
H748 H 0.05953 0.92624 0.50775 0.0
H749 H 0.0547 0.95658 0.50939 0.0
H750 H 0.0519 0.90841 0.53274 0.0
H751 H 0.03331 0.95155 0.56173 0.0
H752 H 0.96276 0.09981 0.4849 0.0
H753 H 0.97445 0.07713 0.49993 0.0
H754 H 0.98246 0.12181 0.47077 0.0
H755 H 0.02728 0.09816 0.48654 0.0
C756 C 0.23404 0.73366 0.79294 0.0
C757 C 0.21422 0.71667 0.76636 0.0
C758 C 0.23086 0.72719 0.77396 0.0
C759 C 0.20087 0.71264 0.77798 0.0
C760 C 0.2206 0.72968 0.80457 0.0
C761 C 0.20404 0.71912 0.797 0.0
N762 N 0.25009 0.74413 0.79992 0.0
C763 C 0.25377 0.75053 0.8184 0.0
C764 C 0.22415 0.73652 0.82348 0.0
C765 C 0.24082 0.74694 0.83042 0.0
Gd766 Gd 0.27736 0.7951 0.75653 0.0
Gd767 Gd 0.27051 0.74894 0.77831 0.0
N768 N 0.24375 0.7319 0.76281 0.0
C769 C 0.21141 0.71066 0.74724 0.0
C770 C 0.24134 0.72563 0.74433 0.0
C771 C 0.22506 0.71507 0.73621 0.0
H772 H 0.25193 0.72866 0.73587 0.0
H773 H 0.22309 0.71027 0.72147 0.0
H774 H 0.2916 0.81999 0.79764 0.0
H775 H 0.2668 0.75812 0.82401 0.0
H776 H 0.31808 0.84176 0.81252 0.0
H777 H 0.19879 0.70254 0.74089 0.0
H778 H 0.18798 0.7046 0.77236 0.0
H779 H 0.28347 0.78636 0.7116 0.0
H780 H 0.21415 0.73378 0.83285 0.0
H781 H 0.24374 0.75211 0.84506 0.0
H782 H 0.3561 0.84811 0.76408 0.0
H783 H 0.19356 0.71595 0.80573 0.0
H784 H 0.33483 0.81498 0.70407 0.0
H785 H 0.30682 0.79409 0.69129 0.0
N786 N 0.29858 0.80152 0.73591 0.0
C787 C 0.31362 0.81347 0.74308 0.0
C788 C 0.29591 0.79483 0.7175 0.0
C789 C 0.32476 0.81132 0.71313 0.0
C790 C 0.309 0.79948 0.70588 0.0
C791 C 0.32717 0.81862 0.73189 0.0
H792 H 0.35309 0.8351 0.73129 0.0
N793 N 0.30215 0.81541 0.77215 0.0
C794 C 0.31539 0.82074 0.76167 0.0
C795 C 0.33167 0.84085 0.788 0.0
C796 C 0.33066 0.8334 0.76942 0.0
C797 C 0.30276 0.82311 0.78999 0.0
C798 C 0.31762 0.83574 0.7983 0.0
O799 O 0.24585 0.7606 0.77033 0.0
O800 O 0.25207 0.7753 0.74541 0.0
O801 O 0.26328 0.8166 0.76431 0.0
O802 O 0.26977 0.81078 0.73588 0.0
O803 O 0.28441 0.7525 0.75292 0.0
O804 O 0.27056 0.77048 0.73634 0.0
O805 O 0.30313 0.7861 0.76645 0.0
O806 O 0.29764 0.76664 0.78831 0.0
O807 O 0.2804 0.72554 0.76845 0.0
O808 O 0.27576 0.73056 0.79726 0.0
O809 O 0.26572 0.79163 0.78344 0.0
O810 O 0.27968 0.77283 0.79893 0.0
C811 C 0.24055 0.76769 0.75568 0.0
C812 C 0.27828 0.75694 0.73717 0.0
C813 C 0.2539 0.83451 0.74062 0.0
C814 C 0.23883 0.85921 0.74576 0.0
C815 C 0.24426 0.84892 0.71456 0.0
C816 C 0.25239 0.83604 0.72146 0.0
C817 C 0.23753 0.86047 0.72663 0.0
C818 C 0.24699 0.84618 0.75282 0.0
C819 C 0.26237 0.82043 0.74727 0.0
C820 C 0.34426 0.83841 0.75836 0.0
C821 C 0.34254 0.831 0.73967 0.0
H822 H 0.343 0.85086 0.79437 0.0
C823 C 0.30865 0.77734 0.77973 0.0
C824 C 0.27313 0.78713 0.7987 0.0
C825 C 0.29938 0.7161 0.7912 0.0
C826 C 0.31938 0.69525 0.78998 0.0
C827 C 0.32714 0.72199 0.81202 0.0
C828 C 0.31134 0.72692 0.80556 0.0
C829 C 0.33111 0.70617 0.80438 0.0
C830 C 0.30357 0.70031 0.78327 0.0
C831 C 0.28222 0.72078 0.78503 0.0
H832 H 0.24316 0.84995 0.6998 0.0
H833 H 0.25745 0.82721 0.7117 0.0
H834 H 0.23129 0.87046 0.72103 0.0
H835 H 0.24799 0.84521 0.76761 0.0
H836 H 0.33624 0.73036 0.82314 0.0
H837 H 0.30831 0.73903 0.812 0.0
H838 H 0.34332 0.7024 0.80972 0.0
H839 H 0.29438 0.69179 0.7723 0.0
C840 C 0.56052 0.00159 0.06162 0.0
C841 C 0.57472 0.02709 0.08366 0.0
C842 C 0.56051 0.01839 0.07009 0.0
C843 C 0.58894 0.01875 0.0883 0.0
C844 C 0.57468 0.99308 0.06632 0.0
C845 C 0.58891 0.00177 0.07968 0.0
N846 N 0.54688 0.99373 0.04835 0.0
C847 C 0.54618 0.97719 0.03962 0.0
C848 C 0.57416 0.97614 0.05733 0.0
C849 C 0.5598 0.96815 0.04399 0.0
Gd850 Gd 0.52088 0.03675 0.99304 0.0
Gd851 Gd 0.52447 0.00941 0.04169 0.0
N852 N 0.54657 0.02613 0.06516 0.0
C853 C 0.57412 0.04385 0.09233 0.0
C854 C 0.54551 0.04205 0.07446 0.0
C855 C 0.55935 0.05126 0.08786 0.0
H856 H 0.53392 0.04769 0.07218 0.0
H857 H 0.55847 0.06398 0.09494 0.0
H858 H 0.51337 0.00162 0.95928 0.0
H859 H 0.53509 0.97095 0.0293 0.0
H860 H 0.49272 0.9902 0.93091 0.0
H861 H 0.58477 0.05098 0.10279 0.0
H862 H 0.59998 0.02527 0.09864 0.0
H863 H 0.5077 0.0731 0.01161 0.0
H864 H 0.58475 0.96913 0.06058 0.0
H865 H 0.55923 0.95504 0.03709 0.0
H866 H 0.45376 0.03142 0.92753 0.0
H867 H 0.59994 0.99548 0.08343 0.0
H868 H 0.46242 0.07988 0.97629 0.0
H869 H 0.48415 0.08966 0.00454 0.0
N870 N 0.49869 0.05327 0.98834 0.0
C871 C 0.48703 0.04778 0.97255 0.0
C872 C 0.49795 0.06825 -0.00038 0.0
C873 C 0.47255 0.07232 0.97949 0.0
C874 C 0.48478 0.07787 0.99548 0.0
C875 C 0.47361 0.05716 0.96774 0.0
H876 H 0.45131 0.05821 0.94754 0.0
N877 N 0.50095 0.02327 0.96666 0.0
C878 C 0.48826 0.03244 0.96135 0.0
C879 C 0.478 0.01107 0.93394 0.0
C880 C 0.47632 0.02644 0.94495 0.0
C881 C 0.50278 0.00842 0.95581 0.0
C882 C 0.49123 0.00201 0.93944 0.0
O883 O 0.54961 0.01454 0.02903 0.0
O884 O 0.54138 0.03786 0.01786 0.0
O885 O 0.5388 0.03745 0.97189 0.0
O886 O 0.53219 0.06198 0.98463 0.0
O887 O 0.51458 0.03572 0.04494 0.0
O888 O 0.52569 0.05286 0.02226 0.0
O889 O 0.49303 0.02478 0.9977 0.0
O890 O 0.51121 0.01809 0.01824 0.0
O891 O 0.50924 0.00779 0.06479 0.0
O892 O 0.50838 0.98394 0.0453 0.0
O893 O 0.52852 0.00926 0.98979 0.0
O894 O 0.51877 0.99223 0.01332 0.0
C895 C 0.55289 0.02746 0.01917 0.0
C896 C 0.51853 0.05099 0.03809 0.0
C897 C 0.55212 0.06437 0.96072 0.0
C898 C 0.57226 0.06432 0.93715 0.0
C899 C 0.56676 0.09198 0.95169 0.0
C900 C 0.55513 0.08284 0.96254 0.0
C901 C 0.57541 0.08276 0.93907 0.0
C902 C 0.56062 0.05522 0.9479 0.0
C903 C 0.54075 0.05449 0.97253 0.0
C904 C 0.46308 0.03588 0.94006 0.0
C905 C 0.46168 0.05114 0.95145 0.0
H906 H 0.46915 0.0061 0.92119 0.0
C907 C 0.49474 0.0166 0.01179 0.0
C908 C 0.52452 0.99406 0.9968 0.0
C909 C 0.49129 0.98116 0.07176 0.0
C910 C 0.47649 0.98154 0.09966 0.0
C911 C 0.4768 0.95374 0.08125 0.0
C912 C 0.48649 0.96272 0.06871 0.0
C913 C 0.47196 0.9631 0.09684 0.0
C914 C 0.48595 0.99044 0.08705 0.0
C915 C 0.50333 0.99092 0.06046 0.0
H916 H 0.56905 0.1062 0.95307 0.0
H917 H 0.54866 0.09019 0.97239 0.0
H918 H 0.58423 0.08994 0.93056 0.0
H919 H 0.55833 0.04095 0.9463 0.0
H920 H 0.47324 0.93951 0.07901 0.0
H921 H 0.49059 0.95528 0.05699 0.0
H922 H 0.46455 0.95602 0.10652 0.0
H923 H 0.48966 0.00469 0.0896 0.0
C924 C 0.32724 0.30459 0.29804 0.0
C925 C 0.34347 0.31698 0.27395 0.0
C926 C 0.32725 0.30956 0.28017 0.0
C927 C 0.3595 0.31958 0.28587 0.0
C928 C 0.34336 0.30712 0.30996 0.0
C929 C 0.35943 0.31474 0.30383 0.0
N930 N 0.31154 0.29694 0.30359 0.0
C931 C 0.31093 0.29193 0.32093 0.0
C932 C 0.34286 0.30189 0.32773 0.0
C933 C 0.32658 0.29426 0.33322 0.0
Gd934 Gd 0.26446 0.24897 0.25451 0.0
Gd935 Gd 0.2862 0.29607 0.28279 0.0
N936 N 0.31152 0.30691 0.26881 0.0
C937 C 0.3431 0.32162 0.25591 0.0
C938 C 0.31104 0.31218 0.25157 0.0
C939 C 0.32682 0.31924 0.2447 0.0
H940 H 0.29859 0.3115 0.24323 0.0
H941 H 0.32638 0.32314 0.23088 0.0
H942 H 0.25377 0.22746 0.29066 0.0
H943 H 0.29834 0.28666 0.32556 0.0
H944 H 0.22701 0.21084 0.30129 0.0
H945 H 0.35529 0.32727 0.2506 0.0
H946 H 0.37204 0.32535 0.28134 0.0
H947 H 0.25169 0.25761 0.21148 0.0
H948 H 0.35495 0.30372 0.33733 0.0
H949 H 0.32606 0.29034 0.34698 0.0
H950 H 0.18058 0.2085 0.25149 0.0
H951 H 0.37193 0.31686 0.31284 0.0
H952 H 0.19597 0.23593 0.19799 0.0
H953 H 0.22416 0.25241 0.18957 0.0
N954 N 0.23906 0.24533 0.23269 0.0
C955 C 0.22384 0.23572 0.23736 0.0
C956 C 0.23937 0.25107 0.21567 0.0
C957 C 0.20797 0.23845 0.20783 0.0
C958 C 0.22384 0.24784 0.20306 0.0
C959 C 0.20783 0.23217 0.2251 0.0
H960 H 0.17986 0.21958 0.22115 0.0
N961 N 0.23986 0.23306 0.2661 0.0
C962 C 0.22425 0.22937 0.2545 0.0
C963 C 0.20968 0.21297 0.27691 0.0
C964 C 0.20868 0.21942 0.25974 0.0
C965 C 0.2411 0.22605 0.2824 0.0
C966 C 0.22599 0.21621 0.28823 0.0
O967 O 0.30397 0.27607 0.27645 0.0
O968 O 0.29121 0.26288 0.24767 0.0
O969 O 0.27532 0.2255 0.25777 0.0
O970 O 0.26318 0.22968 0.2304 0.0
O971 O 0.27041 0.29622 0.25468 0.0
O972 O 0.27444 0.27067 0.23837 0.0
O973 O 0.24337 0.26353 0.26493 0.0
O974 O 0.25661 0.28868 0.28541 0.0
O975 O 0.28704 0.32369 0.28124 0.0
O976 O 0.28733 0.31409 0.308 0.0
O977 O 0.27833 0.25082 0.28391 0.0
O978 O 0.27311 0.27627 0.2997 0.0
C979 C 0.30548 0.26839 0.25982 0.0
C980 C 0.27006 0.28612 0.23887 0.0
C981 C 0.27495 0.20317 0.23141 0.0
C982 C 0.28804 0.17758 0.23432 0.0
C983 C 0.2765 0.18305 0.20387 0.0
C984 C 0.27155 0.19824 0.21201 0.0
C985 C 0.28488 0.17278 0.21498 0.0
C986 C 0.28301 0.19265 0.24249 0.0
C987 C 0.27122 0.21975 0.24002 0.0
C988 C 0.19268 0.21607 0.24766 0.0
C989 C 0.19227 0.2224 0.23038 0.0
H990 H 0.19808 0.20509 0.28132 0.0
C991 C 0.24246 0.27716 0.27704 0.0
C992 C 0.27504 0.25991 0.29908 0.0
C993 C 0.27066 0.33602 0.30311 0.0
C994 C 0.24946 0.3537 0.29329 0.0
C995 C 0.24776 0.34157 0.3225 0.0
C996 C 0.26246 0.33395 0.3194 0.0
C997 C 0.2412 0.35136 0.30949 0.0
C998 C 0.26417 0.34607 0.29025 0.0
C999 C 0.28538 0.32714 0.29886 0.0
H1000 H 0.27394 0.17933 0.18894 0.0
H1001 H 0.26535 0.20622 0.20314 0.0
H1002 H 0.28871 0.16103 0.20858 0.0
H1003 H 0.28573 0.19632 0.25746 0.0
H1004 H 0.24145 0.33991 0.33503 0.0
H1005 H 0.26723 0.3263 0.32963 0.0
H1006 H 0.22997 0.35742 0.31228 0.0
H1007 H 0.27041 0.34779 0.27766 0.0
C1008 C 0.50721 0.56622 0.05615 0.0
C1009 C 0.53431 0.58106 0.07584 0.0
C1010 C 0.52568 0.57041 0.05935 0.0
C1011 C 0.52407 0.58735 0.08909 0.0
C1012 C 0.49686 0.57272 0.06927 0.0
C1013 C 0.5054 0.58321 0.0858 0.0
N1014 N 0.49935 0.55591 0.04015 0.0
C1015 C 0.48124 0.55207 0.03605 0.0
C1016 C 0.47825 0.5685 0.06535 0.0
C1017 C 0.47041 0.55822 0.0486 0.0
Gd1018 Gd 0.53645 0.49895 0.0156 0.0
Gd1019 Gd 0.5184 0.54532 0.02043 0.0
N1020 N 0.5352 0.56386 0.0464 0.0
C1021 C 0.55298 0.58507 0.07853 0.0
C1022 C 0.55338 0.56838 0.0486 0.0
C1023 C 0.56254 0.57878 0.06479 0.0
H1024 H 0.5609 0.56394 0.03806 0.0
H1025 H 0.57697 0.5819 0.06665 0.0
H1026 H 0.49362 0.48021 -0.00034 0.0
H1027 H 0.47517 0.54431 0.02298 0.0
H1028 H 0.47675 0.46125 0.97196 0.0
H1029 H 0.56012 0.59313 0.09105 0.0
H1030 H 0.53047 0.59549 0.10187 0.0
H1031 H 0.57907 0.50756 0.00693 0.0
H1032 H 0.46982 0.57323 0.07507 0.0
H1033 H 0.45603 0.55504 0.04535 0.0
H1034 H 0.52151 0.45178 0.93242 0.0
H1035 H 0.49767 0.58824 0.09609 0.0
H1036 H 0.58209 0.48042 0.95326 0.0
H1037 H 0.5968 0.50001 0.98179 0.0
N1038 N 0.5545 0.49294 0.9925 0.0
C1039 C 0.54616 0.48199 0.97703 0.0
C1040 C 0.57245 0.49937 0.99435 0.0
C1041 C 0.57421 0.48381 0.96418 0.0
C1042 C 0.58256 0.49493 0.98023 0.0
C1043 C 0.5558 0.47721 0.9624 0.0
H1044 H 0.55399 0.46232 0.93506 0.0
N1045 N 0.51875 0.48134 0.98965 0.0
C1046 C 0.52779 0.47592 0.9756 0.0
C1047 C 0.50012 0.45976 0.95818 0.0
C1048 C 0.51867 0.46509 0.95942 0.0
C1049 C 0.50071 0.47601 0.98857 0.0
C1050 C 0.49111 0.46526 0.97281 0.0
O1051 O 0.52596 0.53509 0.04764 0.0
O1052 O 0.54756 0.51952 0.04023 0.0
O1053 O 0.52875 0.47576 0.03028 0.0
O1054 O 0.55588 0.48365 0.02335 0.0
O1055 O 0.54326 0.54281 0.00662 0.0
O1056 O 0.55748 0.52377 0.02148 0.0
O1057 O 0.52862 0.51042 0.98931 0.0
O1058 O 0.50581 0.52278 -0.00143 0.0
O1059 O 0.52894 0.56713 0.00551 0.0
O1060 O 0.50048 0.55845 0.00497 0.0
O1061 O 0.51135 0.49911 0.02955 0.0
O1062 O 0.49686 0.521 0.01991 0.0
C1063 C 0.53869 0.52667 0.0525 0.0
C1064 C 0.55786 0.5376 0.01258 0.0
C1065 C 0.55087 0.45756 0.03872 0.0
C1066 C 0.54756 0.43328 0.05768 0.0
C1067 C 0.57414 0.44043 0.04226 0.0
C1068 C 0.56755 0.45399 0.03492 0.0
C1069 C 0.56429 0.43021 0.05359 0.0
C1070 C 0.54069 0.44694 0.05005 0.0
C1071 C 0.54483 0.4725 0.03075 0.0
C1072 C 0.52829 0.46014 0.94493 0.0
C1073 C 0.54679 0.46616 0.94642 0.0
H1074 H 0.49263 0.45148 0.94595 0.0
C1075 C 0.5145 0.51718 0.9854 0.0
C1076 C 0.49719 0.50636 0.02751 0.0
C1077 C 0.51052 0.58817 0.00049 0.0
C1078 C 0.51179 0.61518 0.98591 0.0
C1079 C 0.49686 0.6117 0.01362 0.0
C1080 C 0.50106 0.5951 0.01413 0.0
C1081 C 0.50207 0.62163 -0.00044 0.0
C1082 C 0.51606 0.59839 0.98643 0.0
C1083 C 0.51315 0.56978 -0.00018 0.0
H1084 H 0.58699 0.43786 0.03918 0.0
H1085 H 0.57563 0.46171 0.0262 0.0
H1086 H 0.56973 0.41972 0.05913 0.0
H1087 H 0.52781 0.44946 0.05317 0.0
H1088 H 0.48936 0.61682 0.02405 0.0
H1089 H 0.49658 0.58756 0.02499 0.0
H1090 H 0.4985 0.63441 -0.00067 0.0
H1091 H 0.52319 0.59312 0.97569 0.0
C1092 C 0.73654 0.23255 0.29037 0.0
C1093 C 0.72115 0.21089 0.26453 0.0
C1094 C 0.7357 0.22443 0.27221 0.0
C1095 C 0.70743 0.20564 0.27532 0.0
C1096 C 0.72284 0.22715 0.30131 0.0
C1097 C 0.70823 0.21377 0.29364 0.0
N1098 N 0.75104 0.24522 0.29754 0.0
C1099 C 0.75314 0.25214 0.31587 0.0
C1100 C 0.72448 0.23499 0.31981 0.0
C1101 C 0.73979 0.24741 0.32717 0.0
Gd1102 Gd 0.77902 0.29905 0.25602 0.0
Gd1103 Gd 0.7728 0.25163 0.27733 0.0
N1104 N 0.74923 0.22973 0.26209 0.0
C1105 C 0.72104 0.20277 0.24634 0.0
C1106 C 0.74975 0.22118 0.24485 0.0
C1107 C 0.7355 0.20783 0.23653 0.0
H1108 H 0.76133 0.22438 0.23772 0.0
H1109 H 0.73582 0.20126 0.22269 0.0
H1110 H 0.7972 0.32036 0.29821 0.0
H1111 H 0.76533 0.26081 0.32205 0.0
H1112 H 0.82474 0.34156 0.31154 0.0
H1113 H 0.71008 0.19234 0.23993 0.0
H1114 H 0.6963 0.19508 0.26974 0.0
H1115 H 0.78394 0.28639 0.21076 0.0
H1116 H 0.71426 0.23119 0.32867 0.0
H1117 H 0.7415 0.25307 0.34165 0.0
H1118 H 0.85778 0.34937 0.25946 0.0
H1119 H 0.69764 0.2094 0.30186 0.0
H1120 H 0.83506 0.31379 0.20123 0.0
H1121 H 0.80684 0.29273 0.18983 0.0
N1122 N 0.79974 0.3022 0.23455 0.0
C1123 C 0.81511 0.31402 0.24113 0.0
C1124 C 0.79655 0.29481 0.21632 0.0
C1125 C 0.82528 0.31062 0.21073 0.0
C1126 C 0.80939 0.29867 0.20425 0.0
C1127 C 0.82822 0.31861 0.22926 0.0
H1128 H 0.85368 0.33523 0.22707 0.0
N1129 N 0.80529 0.31678 0.27131 0.0
C1130 C 0.81784 0.32166 0.25984 0.0
C1131 C 0.83601 0.34123 0.28554 0.0
C1132 C 0.83352 0.33411 0.26672 0.0
C1133 C 0.80748 0.32383 0.28955 0.0
C1134 C 0.82299 0.33599 0.29702 0.0
O1135 O 0.7468 0.25703 0.26302 0.0
O1136 O 0.75007 0.28509 0.25352 0.0
O1137 O 0.77198 0.32447 0.26403 0.0
O1138 O 0.7727 0.31508 0.23498 0.0
O1139 O 0.78363 0.2575 0.25067 0.0
O1140 O 0.76857 0.27538 0.23543 0.0
O1141 O 0.8037 0.28755 0.26442 0.0
O1142 O 0.79734 0.27234 0.28909 0.0
O1143 O 0.78916 0.23195 0.26959 0.0
O1144 O 0.78009 0.23518 0.29719 0.0
O1145 O 0.76524 0.29497 0.28137 0.0
O1146 O 0.77803 0.27614 0.29794 0.0
C1147 C 0.74033 0.26991 0.2562 0.0
C1148 C 0.77395 0.26052 0.23603 0.0
C1149 C 0.75119 0.33218 0.24159 0.0
C1150 C 0.7322 0.35399 0.24378 0.0
C1151 C 0.72298 0.32736 0.22164 0.0
C1152 C 0.73849 0.32169 0.22761 0.0
C1153 C 0.71989 0.34346 0.22954 0.0
C1154 C 0.74782 0.34824 0.24989 0.0
C1155 C 0.76834 0.32695 0.24675 0.0
C1156 C 0.84611 0.3392 0.25463 0.0
C1157 C 0.84365 0.33129 0.23609 0.0
H1158 H 0.8479 0.35084 0.29134 0.0
C1159 C 0.80889 0.28059 0.27924 0.0
C1160 C 0.77139 0.2904 0.29704 0.0
C1161 C 0.79812 0.21328 0.29282 0.0
C1162 C 0.81356 0.18883 0.28782 0.0
C1163 C 0.80827 0.1993 0.31901 0.0
C1164 C 0.79985 0.21194 0.31203 0.0
C1165 C 0.81509 0.18779 0.307 0.0
C1166 C 0.8051 0.20163 0.28065 0.0
C1167 C 0.78897 0.2269 0.2861 0.0
H1168 H 0.71338 0.31931 0.21072 0.0
H1169 H 0.74063 0.30921 0.22107 0.0
H1170 H 0.7078 0.34768 0.22463 0.0
H1171 H 0.75752 0.35646 0.26065 0.0
H1172 H 0.80951 0.19841 0.3338 0.0
H1173 H 0.79471 0.22073 0.32176 0.0
H1174 H 0.82159 0.17801 0.31268 0.0
H1175 H 0.8039 0.20243 0.26583 0.0
C1176 C 0.06167 0.49865 0.56605 0.0
C1177 C 0.07491 0.52264 0.59051 0.0
C1178 C 0.06182 0.5153 0.5753 0.0
C1179 C 0.08773 0.51305 0.59629 0.0
C1180 C 0.07456 0.48901 0.57184 0.0
C1181 C 0.08755 0.49629 0.587 0.0
N1182 N 0.04915 0.49203 0.5512 0.0
C1183 C 0.04842 0.47566 0.54191 0.0
C1184 C 0.07406 0.47235 0.56216 0.0
C1185 C 0.06089 0.46562 0.54718 0.0
Gd1186 Gd 0.02547 0.53815 0.49487 0.0
Gd1187 Gd 0.0286 0.5097 0.54374 0.0
N1188 N 0.04948 0.52449 0.56909 0.0
C1189 C 0.07479 0.53945 0.59941 0.0
C1190 C 0.049 0.54067 0.57818 0.0
C1191 C 0.06173 0.54844 0.59327 0.0
H1192 H 0.0388 0.54769 0.5742 0.0
H1193 H 0.06147 0.56139 0.60015 0.0
H1194 H 0.02488 0.50886 0.45651 0.0
H1195 H 0.03801 0.47009 0.53064 0.0
H1196 H 0.00425 0.49529 0.42859 0.0
H1197 H 0.08466 0.54556 0.61109 0.0
H1198 H 0.09788 0.5185 0.60793 0.0
H1199 H 0.01029 0.57313 0.51195 0.0
H1200 H 0.08371 0.46453 0.5662 0.0
H1201 H 0.06026 0.45266 0.53975 0.0
H1202 H 0.95597 0.52634 0.43033 0.0
H1203 H 0.09755 0.48908 0.59162 0.0
H1204 H 0.96149 0.57459 0.47891 0.0
H1205 H 0.98443 0.58717 0.50567 0.0
N1206 N 0.00181 0.55266 0.4893 0.0
C1207 C 0.9897 0.54585 0.47423 0.0
C1208 C 0.00027 0.56747 0.50037 0.0
C1209 C 0.97276 0.56834 0.48167 0.0
C1210 C 0.98568 0.57548 0.49679 0.0
C1211 C 0.97474 0.55342 0.47007 0.0
H1212 H 0.95078 0.5516 0.451 0.0
N1213 N 0.00748 0.52498 0.46691 0.0
C1214 C 0.99254 0.53148 0.46277 0.0
C1215 C 0.98465 0.51095 0.43446 0.0
C1216 C 0.9806 0.5245 0.44656 0.0
C1217 C 0.01216 0.51276 0.45438 0.0
C1218 C 0.00064 0.50526 0.43824 0.0
O1219 O 0.05624 0.52123 0.53892 0.0
O1220 O 0.03848 0.52933 0.51866 0.0
O1221 O 0.04761 0.54127 0.47851 0.0
O1222 O 0.03834 0.56424 0.49021 0.0
O1223 O 0.01964 0.53661 0.54641 0.0
O1224 O 0.03098 0.554 0.52396 0.0
O1225 O 0.9994 0.53018 0.50557 0.0
O1226 O 0.00996 0.50867 0.51782 0.0
O1227 O 0.01055 0.50971 0.56471 0.0
O1228 O 0.01512 0.48465 0.55106 0.0
O1229 O 0.03047 0.50992 0.48915 0.0
O1230 O 0.02944 0.49384 0.51519 0.0
C1231 C 0.05482 0.52949 0.52479 0.0
C1232 C 0.02373 0.55194 0.53966 0.0
C1233 C 0.04759 0.56408 0.46009 0.0
C1234 C 0.05729 0.56232 0.42932 0.0
C1235 C 0.03606 0.58062 0.43695 0.0
C1236 C 0.03653 0.57565 0.45483 0.0
C1237 C 0.04647 0.57405 0.42421 0.0
C1238 C 0.05792 0.55752 0.44724 0.0
C1239 C 0.04815 0.55806 0.4785 0.0
C1240 C 0.96537 0.53164 0.44263 0.0
C1241 C 0.96243 0.54605 0.45437 0.0
H1242 H 0.97587 0.50527 0.42183 0.0
C1243 C 0.9974 0.5177 0.51617 0.0
C1244 C 0.03121 0.49551 0.49732 0.0
C1245 C 0.99534 0.48321 0.57516 0.0
C1246 C 0.97994 0.48417 0.60263 0.0
C1247 C 0.98105 0.45604 0.58535 0.0
C1248 C 0.99091 0.46473 0.57277 0.0
C1249 C 0.97572 0.46571 0.60039 0.0
C1250 C 0.98954 0.49282 0.58991 0.0
C1251 C 0.00741 0.4926 0.56362 0.0
H1252 H 0.02754 0.58951 0.43294 0.0
H1253 H 0.02822 0.58075 0.46442 0.0
H1254 H 0.04591 0.57789 0.41035 0.0
H1255 H 0.06649 0.5486 0.45118 0.0
H1256 H 0.97773 0.44181 0.58357 0.0
H1257 H 0.99534 0.45704 0.56146 0.0
H1258 H 0.96818 0.45884 0.61013 0.0
H1259 H 0.99304 0.50708 0.592 0.0
C1260 C 0.72891 0.79092 0.23452 0.0
C1261 C 0.71291 0.76388 0.21586 0.0
C1262 C 0.72474 0.7727 0.23153 0.0
C1263 C 0.70549 0.77366 0.20322 0.0
C1264 C 0.7215 0.80081 0.22186 0.0
C1265 C 0.70986 0.79208 0.20615 0.0
N1266 N 0.74011 0.79899 0.24989 0.0
C1267 C 0.74414 0.81688 0.2537 0.0
C1268 C 0.72592 0.8192 0.22546 0.0
C1269 C 0.73722 0.82726 0.24151 0.0
Gd1270 Gd 0.79922 0.76323 0.27167 0.0
Gd1271 Gd 0.75179 0.78069 0.26913 0.0
N1272 N 0.73227 0.7636 0.24394 0.0
C1273 C 0.70877 0.74548 0.21345 0.0
C1274 C 0.72789 0.74568 0.24184 0.0
C1275 C 0.71631 0.73637 0.2265 0.0
H1276 H 0.7331 0.73842 0.2519 0.0
H1277 H 0.71314 0.72217 0.22486 0.0
H1278 H 0.8164 0.80592 0.28913 0.0
H1279 H 0.7526 0.82315 0.26629 0.0
H1280 H 0.83747 0.82247 0.31537 0.0
H1281 H 0.69961 0.7382 0.20174 0.0
H1282 H 0.69626 0.76712 0.19121 0.0
H1283 H 0.79177 0.7213 0.27984 0.0
H1284 H 0.72054 0.82726 0.21605 0.0
H1285 H 0.74055 0.84146 0.24454 0.0
H1286 H 0.85173 0.77819 0.35158 0.0
H1287 H 0.70404 0.79946 0.19627 0.0
H1288 H 0.82232 0.71838 0.33134 0.0
H1289 H 0.80105 0.7038 0.3039 0.0
N1290 N 0.8069 0.74555 0.2939 0.0
C1291 C 0.81866 0.75383 0.30881 0.0
C1292 C 0.8006 0.72783 0.29202 0.0
C1293 C 0.81811 0.72614 0.32092 0.0
C1294 C 0.80605 0.71787 0.3055 0.0
C1295 C 0.82458 0.74432 0.32274 0.0
H1296 H 0.84139 0.74614 0.34886 0.0
N1297 N 0.81755 0.78089 0.29732 0.0
C1298 C 0.82433 0.77198 0.31046 0.0
C1299 C 0.84118 0.79931 0.32755 0.0
C1300 C 0.83618 0.78099 0.32602 0.0
C1301 C 0.82205 0.7988 0.29908 0.0
C1302 C 0.83393 0.80826 0.31413 0.0
O1303 O 0.76187 0.7745 0.24116 0.0
O1304 O 0.77728 0.75309 0.24789 0.0
O1305 O 0.82198 0.77089 0.25579 0.0
O1306 O 0.81407 0.74393 0.26184 0.0
O1307 O 0.75377 0.75531 0.2813 0.0
O1308 O 0.77407 0.74236 0.26615 0.0
O1309 O 0.78819 0.76924 0.29901 0.0
O1310 O 0.77557 0.79132 0.29026 0.0
O1311 O 0.72961 0.77136 0.28465 0.0
O1312 O 0.74042 0.79917 0.28637 0.0
O1313 O 0.79911 0.78883 0.25956 0.0
O1314 O 0.7759 0.8024 0.26858 0.0
C1315 C 0.77084 0.76236 0.23591 0.0
C1316 C 0.76029 0.74138 0.27573 0.0
C1317 C 0.83939 0.74899 0.24432 0.0
C1318 C 0.86538 0.75408 0.22707 0.0
C1319 C 0.85417 0.72495 0.23495 0.0
C1320 C 0.84082 0.73121 0.24366 0.0
C1321 C 0.86638 0.73628 0.22677 0.0
C1322 C 0.85175 0.7605 0.23582 0.0
C1323 C 0.825 0.75492 0.25411 0.0
C1324 C 0.84248 0.7715 0.33965 0.0
C1325 C 0.83662 0.75323 0.33808 0.0
H1326 H 0.8505 0.80668 0.33909 0.0
C1327 C 0.78033 0.78241 0.30331 0.0
C1328 C 0.79113 0.80247 0.26134 0.0
C1329 C 0.71022 0.79122 0.29234 0.0
C1330 C 0.68215 0.78803 0.30638 0.0
C1331 C 0.68842 0.80896 0.28436 0.0
C1332 C 0.70477 0.80409 0.28233 0.0
C1333 C 0.67717 0.80098 0.29622 0.0
C1334 C 0.69883 0.78325 0.30452 0.0
C1335 C 0.72829 0.7872 0.29142 0.0
H1336 H 0.85511 0.71125 0.23461 0.0
H1337 H 0.8316 0.72202 0.24998 0.0
H1338 H 0.87674 0.73113 0.22018 0.0
H1339 H 0.85095 0.77425 0.23619 0.0
H1340 H 0.68449 0.81906 0.27676 0.0
H1341 H 0.71325 0.81063 0.27313 0.0
H1342 H 0.66457 0.80506 0.29763 0.0
H1343 H 0.70293 0.77348 0.31254 0.0
C1344 C 0.80044 0.24366 0.72692 0.0
C1345 C 0.77671 0.22875 0.70297 0.0
C1346 C 0.78377 0.24274 0.71735 0.0
C1347 C 0.78657 0.21569 0.69864 0.0
C1348 C 0.81057 0.23079 0.72241 0.0
C1349 C 0.8035 0.21674 0.70829 0.0
N1350 N 0.80674 0.25715 0.74077 0.0
C1351 C 0.82328 0.25892 0.75032 0.0
C1352 C 0.8275 0.23241 0.73225 0.0
C1353 C 0.83392 0.24661 0.74621 0.0
Gd1354 Gd 0.75744 0.27782 0.7957 0.0
Gd1355 Gd 0.78798 0.27678 0.74786 0.0
N1356 N 0.77458 0.25559 0.72196 0.0
C1357 C 0.76001 0.22836 0.69326 0.0
C1358 C 0.75868 0.25566 0.71178 0.0
C1359 C 0.75107 0.242 0.69755 0.0
H1360 H 0.75175 0.26623 0.71415 0.0
H1361 H 0.73835 0.24211 0.68979 0.0
H1362 H 0.792 0.2843 0.83032 0.0
H1363 H 0.82833 0.26983 0.76117 0.0
H1364 H 0.80542 0.30633 0.857 0.0
H1365 H 0.75408 0.21782 0.68219 0.0
H1366 H 0.78131 0.20482 0.68771 0.0
H1367 H 0.71935 0.28939 0.78002 0.0
H1368 H 0.83573 0.22283 0.72916 0.0
H1369 H 0.84703 0.24804 0.75386 0.0
H1370 H 0.76549 0.34676 0.86002 0.0
H1371 H 0.81103 0.20666 0.70469 0.0
H1372 H 0.71367 0.33542 0.81482 0.0
H1373 H 0.70238 0.3125 0.78782 0.0
N1374 N 0.74033 0.29932 0.80196 0.0
C1375 C 0.74649 0.31146 0.81725 0.0
C1376 C 0.72459 0.29945 0.7916 0.0
C1377 C 0.72122 0.32531 0.81142 0.0
C1378 C 0.71484 0.31245 0.79611 0.0
C1379 C 0.73721 0.32494 0.82222 0.0
H1380 H 0.73731 0.34814 0.84164 0.0
N1381 N 0.77132 0.29771 0.82218 0.0
C1382 C 0.7625 0.31071 0.82757 0.0
C1383 C 0.78533 0.322 0.85357 0.0
C1384 C 0.76945 0.32337 0.84321 0.0
C1385 C 0.78609 0.29564 0.83308 0.0
C1386 C 0.79352 0.30791 0.84864 0.0
O1387 O 0.78205 0.25126 0.75886 0.0
O1388 O 0.75756 0.25795 0.77046 0.0
O1389 O 0.75675 0.26075 0.81694 0.0
O1390 O 0.73161 0.26536 0.80318 0.0
O1391 O 0.75979 0.28301 0.74307 0.0
O1392 O 0.74157 0.27467 0.76648 0.0
O1393 O 0.76751 0.30536 0.79065 0.0
O1394 O 0.77731 0.28807 0.77135 0.0
O1395 O 0.78976 0.2965 0.72916 0.0
O1396 O 0.81331 0.29416 0.74686 0.0
O1397 O 0.78557 0.27095 0.79934 0.0
O1398 O 0.80394 0.281 0.77673 0.0
C1399 C 0.76876 0.24724 0.76855 0.0
C1400 C 0.74405 0.27976 0.74979 0.0
C1401 C 0.72977 0.24669 0.82786 0.0
C1402 C 0.73093 0.23104 0.85466 0.0
C1403 C 0.70234 0.23397 0.83943 0.0
C1404 C 0.71106 0.24341 0.8266 0.0
C1405 C 0.71225 0.22796 0.8536 0.0
C1406 C 0.73957 0.24016 0.84169 0.0
C1407 C 0.73941 0.25802 0.81595 0.0
C1408 C 0.76029 0.33688 0.84811 0.0
C1409 C 0.74422 0.33765 0.83766 0.0
H1410 H 0.79111 0.33147 0.86566 0.0
C1411 C 0.77675 0.30413 0.77716 0.0
C1412 C 0.80128 0.2748 0.79275 0.0
C1413 C 0.81784 0.3046 0.71811 0.0
C1414 C 0.81946 0.31128 0.68637 0.0
C1415 C 0.84659 0.31511 0.70796 0.0
C1416 C 0.83647 0.30965 0.7219 0.0
C1417 C 0.83818 0.31628 0.6904 0.0
C1418 C 0.80958 0.30465 0.70013 0.0
C1419 C 0.80696 0.30169 0.7334 0.0
H1420 H 0.68793 0.23156 0.83857 0.0
H1421 H 0.70323 0.24841 0.816 0.0
H1422 H 0.7054 0.22089 0.86366 0.0
H1423 H 0.75404 0.24275 0.84294 0.0
H1424 H 0.86093 0.31925 0.71102 0.0
H1425 H 0.84314 0.30987 0.73576 0.0
H1426 H 0.84633 0.3219 0.68042 0.0
H1427 H 0.79525 0.30033 0.69714 0.0
C1428 C 0.82239 0.80529 0.80065 0.0
C1429 C 0.83915 0.82007 0.77832 0.0
C1430 C 0.82306 0.81059 0.78306 0.0
C1431 C 0.85442 0.82427 0.79149 0.0
C1432 C 0.83775 0.80943 0.81386 0.0
C1433 C 0.85372 0.81899 0.80921 0.0
N1434 N 0.80678 0.79601 0.80481 0.0
C1435 C 0.80553 0.79078 0.82199 0.0
C1436 C 0.83661 0.80389 0.83141 0.0
C1437 C 0.82043 0.79453 0.83546 0.0
Gd1438 Gd 0.76056 0.74611 0.75336 0.0
Gd1439 Gd 0.78227 0.79237 0.7819 0.0
N1440 N 0.80812 0.80617 0.77048 0.0
C1441 C 0.83943 0.82505 0.76046 0.0
C1442 C 0.80819 0.81162 0.75333 0.0
C1443 C 0.82386 0.82086 0.74794 0.0
H1444 H 0.7962 0.80938 0.7439 0.0
H1445 H 0.82382 0.825 0.73424 0.0
H1446 H 0.74901 0.72925 0.79239 0.0
H1447 H 0.79291 0.78435 0.82564 0.0
H1448 H 0.72175 0.71698 0.80522 0.0
H1449 H 0.85153 0.83232 0.75629 0.0
H1450 H 0.86685 0.8316 0.7881 0.0
H1451 H 0.7474 0.75359 0.71012 0.0
H1452 H 0.84809 0.80687 0.84196 0.0
H1453 H 0.81935 0.79046 0.84905 0.0
H1454 H 0.67504 0.71449 0.75576 0.0
H1455 H 0.86561 0.82234 0.81922 0.0
H1456 H 0.69087 0.73566 0.69916 0.0
H1457 H 0.71944 0.74919 0.68893 0.0
N1458 N 0.73474 0.74356 0.73246 0.0
C1459 C 0.71923 0.7358 0.73827 0.0
C1460 C 0.73497 0.74826 0.71496 0.0
C1461 C 0.70309 0.73779 0.70862 0.0
C1462 C 0.71918 0.74551 0.70282 0.0
C1463 C 0.70295 0.73284 0.72651 0.0
H1464 H 0.67447 0.72271 0.72412 0.0
N1465 N 0.73547 0.7343 0.76736 0.0
C1466 C 0.71958 0.73114 0.75622 0.0
C1467 C 0.70441 0.71869 0.7807 0.0
C1468 C 0.70361 0.72339 0.76269 0.0
C1469 C 0.7364 0.72868 0.78444 0.0
C1470 C 0.7209 0.72118 0.79154 0.0
O1471 O 0.80252 0.77572 0.77368 0.0
O1472 O 0.78889 0.75675 0.74742 0.0
O1473 O 0.76401 0.71962 0.75627 0.0
O1474 O 0.75868 0.72703 0.72882 0.0
O1475 O 0.76805 0.792 0.75284 0.0
O1476 O 0.77185 0.76646 0.73603 0.0
O1477 O 0.74164 0.76494 0.76025 0.0
O1478 O 0.75495 0.77969 0.78843 0.0
O1479 O 0.77426 0.81701 0.77803 0.0
O1480 O 0.78328 0.81167 0.80607 0.0
O1481 O 0.77652 0.74631 0.78162 0.0
O1482 O 0.77099 0.77108 0.7979 0.0
C1483 C 0.80335 0.76524 0.75838 0.0
C1484 C 0.76921 0.78265 0.73692 0.0
C1485 C 0.77842 0.70743 0.73249 0.0
C1486 C 0.79916 0.68814 0.73852 0.0
C1487 C 0.80189 0.70526 0.71274 0.0
C1488 C 0.78714 0.7123 0.71718 0.0
C1489 C 0.80798 0.69329 0.72342 0.0
C1490 C 0.78443 0.69525 0.74293 0.0
C1491 C 0.76351 0.71524 0.73837 0.0
C1492 C 0.68741 0.72044 0.751 0.0
C1493 C 0.68708 0.72511 0.73297 0.0
H1494 H 0.69245 0.71273 0.78619 0.0
C1495 C 0.74056 0.77381 0.77647 0.0
C1496 C 0.77577 0.75586 0.7975 0.0
C1497 C 0.77489 0.83975 0.80386 0.0
C1498 C 0.76547 0.86693 0.79917 0.0
C1499 C 0.77592 0.86204 0.83025 0.0
C1500 C 0.77868 0.8455 0.82308 0.0
C1501 C 0.76937 0.87282 0.81832 0.0
C1502 C 0.7683 0.85051 0.79205 0.0
C1503 C 0.77756 0.82256 0.79587 0.0
H1504 H 0.80863 0.70912 0.70102 0.0
H1505 H 0.78277 0.7217 0.70881 0.0
H1506 H 0.81932 0.68781 0.71968 0.0
H1507 H 0.77775 0.69147 0.75476 0.0
H1508 H 0.77877 0.86646 0.84506 0.0
H1509 H 0.78372 0.83728 0.83251 0.0
H1510 H 0.767 0.8855 0.82401 0.0
H1511 H 0.76529 0.84615 0.77719 0.0
C1512 C 0.49126 0.47312 0.48951 0.0
C1513 C 0.47554 0.45781 0.51218 0.0
C1514 C 0.48448 0.47353 0.50661 0.0
C1515 C 0.47327 0.44186 0.50033 0.0
C1516 C 0.48882 0.45713 0.47752 0.0
C1517 C 0.47978 0.44154 0.48301 0.0
N1518 N 0.5005 0.48828 0.48475 0.0
C1519 C 0.50663 0.48856 0.46777 0.0
C1520 C 0.49556 0.45726 0.46033 0.0
C1521 C 0.5044 0.47307 0.4554 0.0
Gd1522 Gd 0.54889 0.53492 0.53308 0.0
Gd1523 Gd 0.50147 0.51375 0.50545 0.0
N1524 N 0.48676 0.4892 0.51783 0.0
C1525 C 0.46908 0.45855 0.52951 0.0
C1526 C 0.47973 0.49004 0.53433 0.0
C1527 C 0.47111 0.47475 0.54058 0.0
H1528 H 0.48024 0.50241 0.54258 0.0
H1529 H 0.46578 0.47551 0.55381 0.0
H1530 H 0.57038 0.5461 0.49734 0.0
H1531 H 0.51274 0.50078 0.46339 0.0
H1532 H 0.5867 0.57284 0.48686 0.0
H1533 H 0.46225 0.44675 0.53433 0.0
H1534 H 0.46639 0.42969 0.50439 0.0
H1535 H 0.5406 0.54713 0.57703 0.0
H1536 H 0.49383 0.44527 0.45069 0.0
H1537 H 0.5093 0.47338 0.44196 0.0
H1538 H 0.58673 0.61854 0.53674 0.0
H1539 H 0.47781 0.42915 0.47398 0.0
H1540 H 0.55946 0.60246 0.59033 0.0
H1541 H 0.54474 0.57409 0.59906 0.0
N1542 N 0.55044 0.56008 0.55482 0.0
C1543 C 0.55933 0.57545 0.55005 0.0
C1544 C 0.5457 0.55946 0.57238 0.0
C1545 C 0.55695 0.5907 0.58024 0.0
C1546 C 0.54856 0.57474 0.58519 0.0
C1547 C 0.56274 0.59117 0.56263 0.0
H1548 H 0.57515 0.61886 0.56707 0.0
N1549 N 0.56336 0.55982 0.5215 0.0
C1550 C 0.56612 0.57528 0.53302 0.0
C1551 C 0.5833 0.5899 0.51106 0.0
C1552 C 0.57614 0.59078 0.52805 0.0
C1553 C 0.57128 0.55867 0.50553 0.0
C1554 C 0.58092 0.57374 0.4998 0.0
O1555 O 0.52002 0.49482 0.51295 0.0
O1556 O 0.53648 0.50815 0.54055 0.0
O1557 O 0.5735 0.52675 0.52828 0.0
O1558 O 0.57031 0.53897 0.55575 0.0
O1559 O 0.5003 0.52738 0.53436 0.0
O1560 O 0.52725 0.52609 0.55088 0.0
O1561 O 0.536 0.55206 0.5147 0.0
O1562 O 0.5061 0.54318 0.51589 0.0
O1563 O 0.47279 0.5116 0.50009 0.0
O1564 O 0.48974 0.51875 0.47892 0.0
O1565 O 0.54767 0.51837 0.50517 0.0
O1566 O 0.52327 0.52521 0.48933 0.0
C1567 C 0.52906 0.4938 0.52907 0.0
C1568 C 0.51044 0.5277 0.55014 0.0
C1569 C 0.59085 0.51992 0.55361 0.0
C1570 C 0.6154 0.50496 0.55079 0.0
C1571 C 0.59958 0.50333 0.57799 0.0
C1572 C 0.58831 0.51378 0.57078 0.0
C1573 C 0.61321 0.49896 0.56806 0.0
C1574 C 0.60435 0.51549 0.54382 0.0
C1575 C 0.58055 0.53166 0.54551 0.0
C1576 C 0.57905 0.60651 0.54031 0.0
C1577 C 0.57241 0.6067 0.55756 0.0
H1578 H 0.591 0.60153 0.50671 0.0
C1579 C 0.51975 0.55523 0.51316 0.0
C1580 C 0.53905 0.52114 0.48966 0.0
C1581 C 0.46433 0.5314 0.47989 0.0
C1582 C 0.44239 0.5492 0.48682 0.0
C1583 C 0.45815 0.55304 0.45984 0.0
C1584 C 0.4674 0.53993 0.46411 0.0
C1585 C 0.44557 0.5576 0.47107 0.0
C1586 C 0.45184 0.53623 0.49128 0.0
C1587 C 0.47377 0.5172 0.48391 0.0
H1588 H 0.59775 0.49861 0.59123 0.0
H1589 H 0.57784 0.51715 0.5786 0.0
H1590 H 0.62179 0.49074 0.57363 0.0
H1591 H 0.60641 0.52042 0.53065 0.0
H1592 H 0.46058 0.55953 0.44769 0.0
H1593 H 0.47687 0.53638 0.455 0.0
H1594 H 0.4383 0.56763 0.46747 0.0
H1595 H 0.44907 0.52963 0.50334 0.0
C1596 C 0.06701 0.55242 0.99093 0.0
C1597 C 0.08661 0.57368 0.01442 0.0
C1598 C 0.07365 0.55805 0.00941 0.0
C1599 C 0.09218 0.58394 0.00059 0.0
C1600 C 0.07328 0.56216 0.97689 0.0
C1601 C 0.08555 0.57818 0.98186 0.0
N1602 N 0.05537 0.53678 0.9866 0.0
C1603 C 0.05058 0.5294 0.96851 0.0
C1604 C 0.06749 0.5552 0.95826 0.0
C1605 C 0.05632 0.53861 0.95405 0.0
Gd1606 Gd 0.99656 0.51703 0.0343 0.0
Gd1607 Gd 0.04555 0.52282 0.01171 0.0
N1608 N 0.06815 0.54771 0.02237 0.0
C1609 C 0.09393 0.57826 0.03309 0.0
C1610 C 0.07619 0.55145 0.0403 0.0
C1611 C 0.08883 0.56697 0.04605 0.0
H1612 H 0.07274 0.5426 0.05019 0.0
H1613 H 0.09458 0.57022 0.06047 0.0
H1614 H 0.9742 0.49971 0.99237 0.0
H1615 H 0.04215 0.51645 0.96526 0.0
H1616 H 0.95414 0.47187 0.97823 0.0
H1617 H 0.10383 0.59021 0.03754 0.0
H1618 H 0.10198 0.59609 0.00419 0.0
H1619 H 0.01031 0.51126 0.07862 0.0
H1620 H 0.07201 0.56226 0.94705 0.0
H1621 H 0.05218 0.53289 0.9397 0.0
H1622 H 0.95037 0.43625 0.02791 0.0
H1623 H 0.09036 0.58596 0.97128 0.0
H1624 H 0.98466 0.45971 0.08678 0.0
H1625 H 0.00495 0.48807 0.09876 0.0
N1626 N 0.99399 0.49592 0.05488 0.0
C1627 C 0.98231 0.48057 0.04814 0.0
C1628 C 0.00188 0.4988 0.07289 0.0
C1629 C 0.98711 0.46978 0.07771 0.0
C1630 C 0.99865 0.48574 0.0845 0.0
C1631 C 0.97875 0.46703 0.05937 0.0
H1632 H 0.9642 0.44062 0.06042 0.0
N1633 N 0.97838 0.49112 0.01885 0.0
C1634 C 0.97421 0.47814 0.02971 0.0
C1635 C 0.95553 0.45987 0.00346 0.0
C1636 C 0.96278 0.46208 0.02219 0.0
C1637 C 0.97118 0.48918 0.00069 0.0
C1638 C 0.95975 0.47347 0.99269 0.0
O1639 O 0.04046 0.54888 0.02598 0.0
O1640 O 0.01099 0.5454 0.03363 0.0
O1641 O 0.97102 0.52456 0.02735 0.0
O1642 O 0.98044 0.52294 0.05594 0.0
O1643 O 0.03519 0.51355 0.03702 0.0
O1644 O 0.02005 0.52857 0.05517 0.0
O1645 O 0.00758 0.49264 0.02402 0.0
O1646 O 0.02274 0.50023 -0.00053 0.0
O1647 O 0.06702 0.51175 0.02474 0.0
O1648 O 0.05676 0.5034 0.99578 0.0
O1649 O 0.99742 0.52593 0.00644 0.0
O1650 O 0.0231 0.52619 0.99126 0.0
C1651 C 0.02656 0.55521 0.03133 0.0
C1652 C 0.03506 0.52407 0.0521 0.0
C1653 C 0.96276 0.54418 0.05082 0.0
C1654 C 0.94262 0.56458 0.04657 0.0
C1655 C 0.96292 0.5683 0.07506 0.0
C1656 C 0.96958 0.5537 0.06842 0.0
C1657 C 0.94954 0.57377 0.06425 0.0
C1658 C 0.94933 0.54984 0.03981 0.0
C1659 C 0.96843 0.52759 0.04473 0.0
C1660 C 0.95917 0.44867 0.03345 0.0
C1661 C 0.96708 0.45115 0.05196 0.0
H1662 H 0.94672 0.44769 0.99717 0.0
C1663 C 0.015 0.48821 0.00902 0.0
C1664 C 0.00665 0.52859 0.99237 0.0
C1665 C 0.08708 0.50342 0.00412 0.0
C1666 C 0.115 0.49274 0.00588 0.0
C1667 C 0.11018 0.51432 0.98535 0.0
C1668 C 0.09336 0.5143 0.99104 0.0
C1669 C 0.12099 0.50366 0.99276 0.0
C1670 C 0.09794 0.49255 0.01145 0.0
C1671 C 0.06887 0.50253 0.00923 0.0
H1672 H 0.96788 0.57507 0.08886 0.0
H1673 H 0.97976 0.54964 0.07733 0.0
H1674 H 0.94436 0.58503 0.06979 0.0
H1675 H 0.94363 0.54241 0.0264 0.0
H1676 H 0.11482 0.52255 0.97509 0.0
H1677 H 0.08519 0.52259 0.98499 0.0
H1678 H 0.13396 0.50373 0.98806 0.0
H1679 H 0.09315 0.48398 0.02141 0.0
H1680 H 0.97473 0.19604 0.95359 0.0
H1681 H 0.9774 0.16783 0.96469 0.0
H1682 H 0.03419 0.18599 0.97754 0.0
H1683 H 0.03145 0.21454 0.9674 0.0
H1684 H 0.01938 0.14872 0.95382 0.0
H1685 H 0.01956 0.18405 0.0116 0.0
H1686 H 0.00889 0.20447 0.03415 0.0
H1687 H 0.95968 0.16729 0.03206 0.0
H1688 H 0.96993 0.14676 0.00913 0.0
H1689 H 0.04412 0.08084 0.00203 0.0
H1690 H 0.04047 0.109 0.99271 0.0
H1691 H 0.98435 0.09617 0.99817 0.0
H1692 H 0.98817 0.06785 0.00828 0.0
H1693 H 0.99836 0.13089 0.01248 0.0
H1694 H 0.00012 0.0947 0.95514 0.0
H1695 H 0.0124 0.07486 0.93338 0.0
H1696 H 0.05996 0.11431 0.93558 0.0
H1697 H 0.04809 0.1343 0.9576 0.0
C1698 C 0.98777 0.19414 0.959 0.0
C1699 C 0.00283 0.20778 0.95974 0.0
C1700 C 0.9893 0.17792 0.96533 0.0
C1701 C 0.00602 0.17456 0.97201 0.0
C1702 C 0.02111 0.1881 0.97255 0.0
C1703 C 0.0195 0.20453 0.96683 0.0
C1704 C 0.00772 0.15692 0.97815 0.0
C1705 C 0.01494 0.14493 0.96674 0.0
C1706 C 0.00176 0.15163 0.99489 0.0
C1707 C 0.99537 0.16401 0.00837 0.0
C1708 C 0.00633 0.18034 0.01569 0.0
C1709 C 0.0004 0.19191 0.0286 0.0
C1710 C 0.98357 0.18722 0.03446 0.0
C1711 C 0.97267 0.17093 0.02744 0.0
C1712 C 0.97854 0.15933 0.01447 0.0
C1713 C 0.03102 0.08394 0.00163 0.0
C1714 C 0.01661 0.07188 0.00644 0.0
C1715 C 0.02887 0.10018 0.99597 0.0
C1716 C 0.01209 0.10503 0.9945 0.0
C1717 C 0.99753 0.09302 -0.00081 0.0
C1718 C 0.99973 0.07669 0.00497 0.0
C1719 C 0.00995 0.12254 0.9881 0.0
C1720 C 0.00269 0.13457 -0.00053 0.0
C1721 C 0.01609 0.12795 0.9714 0.0
C1722 C 0.02327 0.11594 0.95817 0.0
C1723 C 0.01326 0.0991 0.95111 0.0
C1724 C 0.02014 0.08783 0.93871 0.0
C1725 C 0.03697 0.0933 0.93313 0.0
C1726 C 0.04694 0.11008 0.93993 0.0
C1727 C 0.04014 0.12139 0.95236 0.0
H1728 H 0.04227 0.08456 0.92351 0.0
H1729 H 0.97901 0.19618 0.0445 0.0
H1730 H 0.12135 0.791 0.11753 0.0
H1731 H 0.14787 0.78818 0.13771 0.0
H1732 H 0.11875 0.79082 0.18537 0.0
H1733 H 0.09238 0.79391 0.16535 0.0
H1734 H 0.15055 0.80954 0.19519 0.0
H1735 H 0.12792 0.75159 0.16461 0.0
H1736 H 0.11713 0.72769 0.13862 0.0
H1737 H 0.16801 0.73791 0.1179 0.0
H1738 H 0.17902 0.76209 0.14362 0.0
H1739 H 0.20815 0.76488 0.25181 0.0
H1740 H 0.18249 0.76899 0.2313 0.0
H1741 H 0.21786 0.79477 0.19593 0.0
H1742 H 0.2437 0.79166 0.21689 0.0
H1743 H 0.18335 0.76166 0.18032 0.0
H1744 H 0.20445 0.82143 0.21305 0.0
H1745 H 0.21368 0.84263 0.24165 0.0
H1746 H 0.16296 0.82555 0.2608 0.0
H1747 H 0.15358 0.80396 0.23246 0.0
C1748 C 0.12061 0.79106 0.13232 0.0
C1749 C 0.10466 0.79271 0.13975 0.0
C1750 C 0.1358 0.78933 0.14388 0.0
C1751 C 0.13542 0.78908 0.16318 0.0
C1752 C 0.11955 0.79098 0.17061 0.0
C1753 C 0.1044 0.79272 0.15909 0.0
C1754 C 0.15148 0.78692 0.17563 0.0
C1755 C 0.15758 0.79898 0.19189 0.0
C1756 C 0.16087 0.77315 0.17159 0.0
C1757 C 0.15423 0.75881 0.15592 0.0
C1758 C 0.13675 0.74888 0.1544 0.0
C1759 C 0.13061 0.73525 0.13974 0.0
C1760 C 0.14186 0.73132 0.12658 0.0
C1761 C 0.15929 0.741 0.12808 0.0
C1762 C 0.1655 0.75467 0.1427 0.0
C1763 C 0.2106 0.77168 0.23986 0.0
C1764 C 0.2282 0.77803 0.23623 0.0
C1765 C 0.19583 0.7739 0.22804 0.0
C1766 C 0.19821 0.7822 0.21206 0.0
C1767 C 0.21567 0.78832 0.20818 0.0
C1768 C 0.23046 0.78649 0.22022 0.0
C1769 C 0.18245 0.78445 0.19945 0.0
C1770 C 0.17634 0.7723 0.18335 0.0
C1771 C 0.17284 0.79788 0.20381 0.0
C1772 C 0.17843 0.8109 0.22078 0.0
C1773 C 0.19536 0.82202 0.22348 0.0
C1774 C 0.2006 0.83415 0.23961 0.0
C1775 C 0.18894 0.83539 0.25307 0.0
C1776 C 0.172 0.82454 0.25039 0.0
C1777 C 0.16672 0.81235 0.2343 0.0
H1778 H 0.19302 0.84479 0.26555 0.0
H1779 H 0.13709 0.72074 0.11526 0.0
H1780 H 0.5332 0.83258 0.44146 0.0
H1781 H 0.53456 0.86286 0.4551 0.0
H1782 H 0.48969 0.84565 0.48441 0.0
H1783 H 0.48841 0.81492 0.47074 0.0
H1784 H 0.48526 0.87457 0.46754 0.0
H1785 H 0.53034 0.86112 0.50856 0.0
H1786 H 0.55697 0.84982 0.51911 0.0
H1787 H 0.58947 0.887 0.49105 0.0
H1788 H 0.56295 0.89836 0.48006 0.0
H1789 H 0.50008 0.96174 0.52092 0.0
H1790 H 0.497 0.93014 0.5121 0.0
H1791 H 0.53403 0.94001 0.47193 0.0
H1792 H 0.53597 0.97177 0.47962 0.0
H1793 H 0.54131 0.91429 0.49755 0.0
H1794 H 0.49313 0.92357 0.45293 0.0
H1795 H 0.46548 0.93394 0.4438 0.0
H1796 H 0.43877 0.905 0.4832 0.0
H1797 H 0.46609 0.89398 0.49217 0.0
C1798 C 0.52378 0.83511 0.45108 0.0
C1799 C 0.51078 0.82115 0.45505 0.0
C1800 C 0.52458 0.85255 0.45893 0.0
C1801 C 0.51229 0.8568 0.47094 0.0
C1802 C 0.4994 0.84287 0.47524 0.0
C1803 C 0.49877 0.82522 0.46756 0.0
C1804 C 0.51271 0.87586 0.47811 0.0
C1805 C 0.49747 0.88311 0.47441 0.0
C1806 C 0.5286 0.88735 0.48698 0.0
C1807 C 0.5446 0.88046 0.4933 0.0
C1808 C 0.54312 0.86676 0.50445 0.0
C1809 C 0.55821 0.86037 0.51055 0.0
C1810 C 0.57489 0.86765 0.5057 0.0
C1811 C 0.57652 0.88136 0.49476 0.0
C1812 C 0.56147 0.88778 0.4886 0.0
C1813 C 0.50712 0.95737 0.50976 0.0
C1814 C 0.51798 0.96969 0.50079 0.0
C1815 C 0.50553 0.93911 0.50488 0.0
C1816 C 0.51522 0.93248 0.49126 0.0
C1817 C 0.52634 0.94466 0.48246 0.0
C1818 C 0.52749 0.96293 0.48695 0.0
C1819 C 0.51403 0.91294 0.48653 0.0
C1820 C 0.52912 0.90566 0.49075 0.0
C1821 C 0.49796 0.90137 0.47849 0.0
C1822 C 0.48165 0.90812 0.47334 0.0
C1823 C 0.48138 0.91952 0.45972 0.0
C1824 C 0.46578 0.92548 0.45455 0.0
C1825 C 0.45047 0.92034 0.46308 0.0
C1826 C 0.45066 0.90903 0.47666 0.0
C1827 C 0.46615 0.90282 0.4817 0.0
H1828 H 0.43844 0.92505 0.4591 0.0
H1829 H 0.58656 0.8627 0.51045 0.0
H1830 H 0.51488 0.28771 0.6742 0.0
H1831 H 0.48673 0.28696 0.68709 0.0
H1832 H 0.45845 0.27763 0.63164 0.0
H1833 H 0.48707 0.27896 0.6185 0.0
H1834 H 0.44275 0.29859 0.65571 0.0
H1835 H 0.46041 0.24322 0.65547 0.0
H1836 H 0.48087 0.22291 0.6609 0.0
H1837 H 0.48706 0.24034 0.71967 0.0
H1838 H 0.46682 0.26093 0.71457 0.0
H1839 H 0.36175 0.25692 0.69132 0.0
H1840 H 0.387 0.2668 0.67416 0.0
H1841 H 0.42225 0.27833 0.72573 0.0
H1842 H 0.39703 0.26842 0.74278 0.0
H1843 H 0.43278 0.25544 0.70066 0.0
H1844 H 0.41414 0.31103 0.69995 0.0
H1845 H 0.3934 0.33082 0.69342 0.0
H1846 H 0.38777 0.31165 0.63508 0.0
H1847 H 0.40827 0.29155 0.64129 0.0
C1848 C 0.50271 0.28575 0.66468 0.0
C1849 C 0.50319 0.2832 0.64532 0.0
C1850 C 0.48658 0.28527 0.6721 0.0
C1851 C 0.47035 0.28178 0.6604 0.0
C1852 C 0.47078 0.28023 0.64098 0.0
C1853 C 0.48711 0.281 0.63347 0.0
C1854 C 0.4532 0.2786 0.66879 0.0
C1855 C 0.44041 0.28897 0.66532 0.0
C1856 C 0.45011 0.26614 0.68146 0.0
C1857 C 0.4622 0.2537 0.68462 0.0
C1858 C 0.46622 0.2428 0.66954 0.0
C1859 C 0.47777 0.23123 0.67256 0.0
C1860 C 0.48528 0.23036 0.69061 0.0
C1861 C 0.48124 0.24103 0.70569 0.0
C1862 C 0.46971 0.25264 0.70275 0.0
C1863 C 0.37478 0.26227 0.69902 0.0
C1864 C 0.37743 0.26221 0.7184 0.0
C1865 C 0.38923 0.26785 0.68921 0.0
C1866 C 0.40661 0.27333 0.6986 0.0
C1867 C 0.40901 0.27421 0.71813 0.0
C1868 C 0.39458 0.2687 0.72792 0.0
C1869 C 0.42251 0.2758 0.68811 0.0
C1870 C 0.43503 0.26509 0.69106 0.0
C1871 C 0.42511 0.28775 0.67482 0.0
C1872 C 0.41257 0.29962 0.67112 0.0
C1873 C 0.40831 0.31088 0.68575 0.0
C1874 C 0.39664 0.3222 0.6821 0.0
C1875 C 0.38922 0.32245 0.66386 0.0
C1876 C 0.39349 0.31141 0.64922 0.0
C1877 C 0.40514 0.30006 0.65279 0.0
H1878 H 0.38021 0.33124 0.66106 0.0
H1879 H 0.49422 0.2214 0.69292 0.0
H1880 H 0.04577 0.81206 0.65916 0.0
H1881 H 0.04799 0.83794 0.64284 0.0
H1882 H 0.993 0.82039 0.61875 0.0
H1883 H 0.99148 0.79362 0.63369 0.0
H1884 H 0.00808 0.83268 0.59416 0.0
H1885 H 0.01119 0.85767 0.65753 0.0
H1886 H 0.02205 0.86353 0.69109 0.0
H1887 H 0.07421 0.88656 0.67891 0.0
H1888 H 0.06374 0.88064 0.64527 0.0
H1889 H 0.00904 0.91469 0.55849 0.0
H1890 H 0.00231 0.89234 0.57952 0.0
H1891 H 0.05864 0.89481 0.59356 0.0
H1892 H 0.06531 0.9169 0.57244 0.0
H1893 H 0.03969 0.89184 0.62446 0.0
H1894 H 0.03481 0.86389 0.5602 0.0
H1895 H 0.02213 0.85837 0.52713 0.0
H1896 H 0.96974 0.8419 0.54279 0.0
H1897 H 0.98209 0.84758 0.57598 0.0
C1898 C 0.03418 0.81377 0.65035 0.0
C1899 C 0.01846 0.80086 0.64768 0.0
C1900 C 0.03535 0.82874 0.64117 0.0
C1901 C 0.02051 0.83165 0.62983 0.0
C1902 C 0.00471 0.81868 0.62734 0.0
C1903 C 0.0038 0.80335 0.63593 0.0
C1904 C 0.0217 0.84769 0.61994 0.0
C1905 C 0.01466 0.84563 0.60105 0.0
C1906 C 0.03041 0.8648 0.62859 0.0
C1907 C 0.03669 0.86859 0.64885 0.0
C1908 C 0.025 0.86391 0.662 0.0
C1909 C 0.03108 0.86724 0.68104 0.0
C1910 C 0.04881 0.87538 0.68712 0.0
C1911 C 0.06048 0.88025 0.67418 0.0
C1912 C 0.05447 0.87693 0.65512 0.0
C1913 C 0.01994 0.91071 0.56641 0.0
C1914 C 0.03769 0.91751 0.5639 0.0
C1915 C 0.0161 0.89788 0.57832 0.0
C1916 C 0.02997 0.89173 0.58802 0.0
C1917 C 0.04771 0.89929 0.58626 0.0
C1918 C 0.05152 0.91191 0.5742 0.0
C1919 C 0.02621 0.87659 0.59891 0.0
C1920 C 0.03282 0.87886 0.61788 0.0
C1921 C 0.01672 0.85978 0.59051 0.0
C1922 C 0.00934 0.85635 0.57056 0.0
C1923 C 0.02057 0.85924 0.55659 0.0
C1924 C 0.01344 0.85606 0.53783 0.0
C1925 C 0.99513 0.84983 0.53287 0.0
C1926 C 0.98391 0.84675 0.54666 0.0
C1927 C 0.99097 0.84995 0.56544 0.0
H1928 H 0.98965 0.84736 0.51834 0.0
H1929 H 0.0535 0.87793 0.70186 0.0
H1930 H 0.47295 0.77819 0.84921 0.0
H1931 H 0.44066 0.77381 0.84006 0.0
H1932 H 0.45032 0.80291 0.79383 0.0
H1933 H 0.48238 0.80761 0.80309 0.0
H1934 H 0.42548 0.81395 0.80962 0.0
H1935 H 0.43487 0.7563 0.78943 0.0
H1936 H 0.44392 0.7278 0.79143 0.0
H1937 H 0.40824 0.71651 0.83236 0.0
H1938 H 0.39917 0.74508 0.83083 0.0
H1939 H 0.3366 0.793 0.76222 0.0
H1940 H 0.36861 0.79592 0.77118 0.0
H1941 H 0.35776 0.76957 0.81904 0.0
H1942 H 0.32575 0.76701 0.81038 0.0
H1943 H 0.38293 0.75681 0.80253 0.0
H1944 H 0.37461 0.81523 0.82317 0.0
H1945 H 0.36546 0.84359 0.82043 0.0
H1946 H 0.39886 0.85263 0.77705 0.0
H1947 H 0.40821 0.8243 0.77955 0.0
C1948 C 0.46821 0.78353 0.837 0.0
C1949 C 0.48044 0.7933 0.82696 0.0
C1950 C 0.44965 0.78094 0.83169 0.0
C1951 C 0.44279 0.78791 0.8161 0.0
C1952 C 0.45505 0.79741 0.80594 0.0
C1953 C 0.47351 0.80006 0.81126 0.0
C1954 C 0.42299 0.78613 0.81076 0.0
C1955 C 0.41629 0.80135 0.80783 0.0
C1956 C 0.41064 0.76985 0.80878 0.0
C1957 C 0.41653 0.75295 0.8102 0.0
C1958 C 0.42913 0.74785 0.79905 0.0
C1959 C 0.43423 0.73166 0.80006 0.0
C1960 C 0.42672 0.72039 0.81208 0.0
C1961 C 0.4141 0.72529 0.82311 0.0
C1962 C 0.40898 0.74148 0.82218 0.0
C1963 C 0.34095 0.78804 0.7748 0.0
C1964 C 0.32836 0.77972 0.78551 0.0
C1965 C 0.35938 0.78969 0.77993 0.0
C1966 C 0.36584 0.78308 0.79593 0.0
C1967 C 0.3533 0.77476 0.80661 0.0
C1968 C 0.33488 0.77323 0.80157 0.0
C1969 C 0.38555 0.78459 0.80139 0.0
C1970 C 0.39219 0.76936 0.80435 0.0
C1971 C 0.3979 0.80081 0.80328 0.0
C1972 C 0.392 0.81762 0.80145 0.0
C1973 C 0.3799 0.82322 0.81296 0.0
C1974 C 0.37474 0.83931 0.8115 0.0
C1975 C 0.3816 0.84991 0.79858 0.0
C1976 C 0.3936 0.84443 0.78707 0.0
C1977 C 0.39886 0.82838 0.78853 0.0
H1978 H 0.37759 0.86238 0.79748 0.0
H1979 H 0.43062 0.70782 0.81277 0.0
H1980 H 0.48626 0.17752 0.15604 0.0
H1981 H 0.48644 0.15112 0.13449 0.0
H1982 H 0.53179 0.17918 0.11205 0.0
H1983 H 0.53036 0.20596 0.13238 0.0
H1984 H 0.51466 0.15967 0.08556 0.0
H1985 H 0.53143 0.14608 0.14702 0.0
H1986 H 0.52813 0.14191 0.17971 0.0
H1987 H 0.48033 0.10296 0.16198 0.0
H1988 H 0.48317 0.10711 0.12922 0.0
H1989 H 0.54039 0.08344 0.04173 0.0
H1990 H 0.53862 0.11016 0.0618 0.0
H1991 H 0.491 0.08274 0.08092 0.0
H1992 H 0.49353 0.05562 0.06171 0.0
H1993 H 0.50913 0.1018 0.10875 0.0
H1994 H 0.49371 0.11616 0.04639 0.0
H1995 H 0.49905 0.12046 0.01415 0.0
H1996 H 0.54735 0.15786 0.0345 0.0
H1997 H 0.54234 0.15381 0.06683 0.0
C1998 C 0.49607 0.17805 0.14628 0.0
C1999 C 0.50821 0.19383 0.14581 0.0
C2000 C 0.4964 0.16283 0.13411 0.0
C2001 C 0.50952 0.16269 0.12182 0.0
C2002 C 0.52149 0.17865 0.12125 0.0
C2003 C 0.52069 0.19405 0.13291 0.0
C2004 C 0.51081 0.14612 0.10954 0.0
C2005 C 0.51367 0.1471 0.09082 0.0
C2006 C 0.50921 0.12939 0.11595 0.0
C2007 C 0.50743 0.12704 0.13568 0.0
C2008 C 0.52014 0.13673 0.15011 0.0
C2009 C 0.51836 0.13436 0.16865 0.0
C2010 C 0.504 0.12221 0.17292 0.0
C2011 C 0.49141 0.11239 0.15866 0.0
C2012 C 0.4931 0.11475 0.14011 0.0
C2013 C 0.52948 0.08313 0.05016 0.0
C2014 C 0.51701 0.0674 0.05 0.0
C2015 C 0.52837 0.09854 0.06157 0.0
C2016 C 0.51436 0.09887 0.07267 0.0
C2017 C 0.50193 0.08307 0.07253 0.0
C2018 C 0.50333 0.06751 0.06149 0.0
C2019 C 0.51292 0.1154 0.08484 0.0
C2020 C 0.51006 0.1144 0.10353 0.0
C2021 C 0.5148 0.13215 0.0785 0.0
C2022 C 0.5177 0.13459 0.05902 0.0
C2023 C 0.5055 0.12524 0.04398 0.0
C2024 C 0.50847 0.12764 0.02569 0.0
C2025 C 0.52356 0.13935 0.02228 0.0
C2026 C 0.53568 0.14877 0.03715 0.0
C2027 C 0.53276 0.14647 0.05546 0.0
H2028 H 0.52583 0.14116 0.00812 0.0
H2029 H 0.50266 0.12038 0.18727 0.0
H2030 H 0.10735 0.31117 0.35844 0.0
H2031 H 0.13499 0.30805 0.34531 0.0
H2032 H 0.10447 0.27338 0.29825 0.0
H2033 H 0.07668 0.27681 0.31112 0.0
H2034 H 0.13419 0.26047 0.31354 0.0
H2035 H 0.12244 0.3126 0.29133 0.0
H2036 H 0.11573 0.34237 0.29267 0.0
H2037 H 0.16445 0.3633 0.32877 0.0
H2038 H 0.1713 0.33358 0.32791 0.0
H2039 H 0.20881 0.25908 0.26131 0.0
H2040 H 0.17986 0.26167 0.27133 0.0
H2041 H 0.20587 0.30269 0.31533 0.0
H2042 H 0.23486 0.30004 0.30547 0.0
H2043 H 0.17728 0.31181 0.29986 0.0
H2044 H 0.18845 0.25886 0.32249 0.0
H2045 H 0.19458 0.22884 0.32082 0.0
H2046 H 0.14662 0.20921 0.28318 0.0
H2047 H 0.14036 0.23917 0.28435 0.0
C2048 C 0.10646 0.30294 0.34524 0.0
C2049 C 0.08967 0.29429 0.33587 0.0
C2050 C 0.12234 0.30119 0.3377 0.0
C2051 C 0.12198 0.2905 0.3207 0.0
C2052 C 0.10524 0.28171 0.31137 0.0
C2053 C 0.0893 0.28375 0.31873 0.0
C2054 C 0.13908 0.28842 0.31287 0.0
C2055 C 0.14348 0.27168 0.31029 0.0
C2056 C 0.1515 0.30299 0.30886 0.0
C2057 C 0.14725 0.32082 0.30976 0.0
C2058 C 0.1316 0.32351 0.29976 0.0
C2059 C 0.1278 0.34038 0.30038 0.0
C2060 C 0.13962 0.35471 0.31085 0.0
C2061 C 0.15528 0.35218 0.32071 0.0
C2062 C 0.15913 0.33532 0.32016 0.0
C2063 C 0.20849 0.26851 0.27325 0.0
C2064 C 0.22445 0.27915 0.28263 0.0
C2065 C 0.19178 0.27001 0.27901 0.0
C2066 C 0.19044 0.28221 0.29436 0.0
C2067 C 0.20632 0.2931 0.3035 0.0
C2068 C 0.22302 0.29156 0.29779 0.0
C2069 C 0.17261 0.28387 0.30079 0.0
C2070 C 0.16803 0.30056 0.30309 0.0
C2071 C 0.16002 0.26922 0.30448 0.0
C2072 C 0.16402 0.25129 0.30338 0.0
C2073 C 0.17931 0.24818 0.31369 0.0
C2074 C 0.18278 0.23116 0.31288 0.0
C2075 C 0.17096 0.21713 0.30195 0.0
C2076 C 0.15574 0.22009 0.29167 0.0
C2077 C 0.15223 0.23709 0.29239 0.0
H2078 H 0.17358 0.20394 0.30147 0.0
H2079 H 0.13668 0.36777 0.31128 0.0
H2080 H 0.91595 0.0052 0.18562 0.0
H2081 H 0.92933 0.00779 0.15663 0.0
H2082 H 0.98067 0.0298 0.18811 0.0
H2083 H 0.96738 0.02728 0.21717 0.0
H2084 H 0.97414 0.04849 0.1601 0.0
H2085 H 0.97214 0.98825 0.16725 0.0
H2086 H 0.95916 0.95787 0.17175 0.0
H2087 H 0.92364 0.95216 0.12116 0.0
H2088 H 0.93622 0.98263 0.11651 0.0
H2089 H 0.02385 0.01684 0.08334 0.0
H2090 H 0.0101 0.01649 0.1122 0.0
H2091 H 0.96632 0.0365 0.0868 0.0
H2092 H 0.98051 0.03795 0.05809 0.0
H2093 H 0.9693 0.99736 0.11145 0.0
H2094 H 0.96997 0.06226 0.10983 0.0
H2095 H 0.98672 0.09156 0.10587 0.0
H2096 H 0.0286 0.08664 0.14733 0.0
H2097 H 0.01221 0.05711 0.1512 0.0
C2098 C 0.9301 0.01056 0.18638 0.0
C2099 C 0.94061 0.01603 0.20371 0.0
C2100 C 0.93774 0.01197 0.1698 0.0
C2101 C 0.95602 0.01891 0.17019 0.0
C2102 C 0.96653 0.02444 0.18747 0.0
C2103 C 0.95892 0.02294 0.20407 0.0
C2104 C 0.96413 0.0206 0.15259 0.0
C2105 C 0.97302 0.03727 0.1495 0.0
C2106 C 0.96282 0.006 0.13871 0.0
C2107 C 0.95495 0.98781 0.14167 0.0
C2108 C 0.9614 0.9806 0.15721 0.0
C2109 C 0.95415 0.96334 0.15976 0.0
C2110 C 0.94054 0.95311 0.14679 0.0
C2111 C 0.93415 0.96012 0.13123 0.0
C2112 C 0.94134 0.97738 0.12863 0.0
C2113 C 0.01153 0.02162 0.08398 0.0
C2114 C 0.00342 0.02769 0.06845 0.0
C2115 C 0.00365 0.02129 0.10047 0.0
C2116 C 0.98739 0.02675 0.1017 0.0
C2117 C 0.97911 0.03265 0.08625 0.0
C2118 C 0.98718 0.03335 0.06983 0.0
C2119 C 0.97869 0.02524 0.11886 0.0
C2120 C 0.96999 0.00856 0.12197 0.0
C2121 C 0.98029 0.03973 0.1328 0.0
C2122 C 0.99006 0.05742 0.13053 0.0
C2123 C 0.98287 0.06734 0.11788 0.0
C2124 C 0.99227 0.08399 0.1157 0.0
C2125 C 0.00876 0.09092 0.12627 0.0
C2126 C 0.01586 0.08122 0.13909 0.0
C2127 C 0.00654 0.06453 0.14126 0.0
H2128 H 0.01601 0.10383 0.12458 0.0
H2129 H 0.93497 0.93974 0.14876 0.0
H2130 H 0.27381 0.67951 0.50172 0.0
H2131 H 0.26907 0.69476 0.47481 0.0
H2132 H 0.27289 0.64854 0.4381 0.0
H2133 H 0.27754 0.633 0.46504 0.0
H2134 H 0.29344 0.67947 0.43049 0.0
H2135 H 0.23362 0.65728 0.43872 0.0
H2136 H 0.20648 0.65031 0.45417 0.0
H2137 H 0.20803 0.70541 0.46923 0.0
H2138 H 0.23533 0.71274 0.45413 0.0
H2139 H 0.25856 0.71658 0.35235 0.0
H2140 H 0.27116 0.70118 0.37582 0.0
H2141 H 0.25996 0.73879 0.41903 0.0
H2142 H 0.24639 0.75378 0.39544 0.0
H2143 H 0.24127 0.7077 0.42016 0.0
H2144 H 0.3075 0.72735 0.42012 0.0
H2145 H 0.33615 0.73179 0.4068 0.0
H2146 H 0.32116 0.68033 0.37524 0.0
H2147 H 0.2928 0.67532 0.38903 0.0
C2148 C 0.27389 0.67264 0.48795 0.0
C2149 C 0.27616 0.65512 0.48543 0.0
C2150 C 0.27091 0.68128 0.47263 0.0
C2151 C 0.27029 0.67257 0.45461 0.0
C2152 C 0.27316 0.65531 0.452 0.0
C2153 C 0.27598 0.64656 0.46735 0.0
C2154 C 0.26779 0.68214 0.43868 0.0
C2155 C 0.28192 0.68548 0.42798 0.0
C2156 C 0.25277 0.68991 0.43565 0.0
C2157 C 0.23669 0.68555 0.44543 0.0
C2158 C 0.22834 0.66792 0.44555 0.0
C2159 C 0.21287 0.6639 0.45419 0.0
C2160 C 0.20556 0.6774 0.46272 0.0
C2161 C 0.21372 0.69496 0.46264 0.0
C2162 C 0.22919 0.69905 0.45403 0.0
C2163 C 0.25919 0.72189 0.36683 0.0
C2164 C 0.25067 0.73583 0.37213 0.0
C2165 C 0.26669 0.71318 0.38029 0.0
C2166 C 0.2662 0.71864 0.39918 0.0
C2167 C 0.26016 0.73419 0.40445 0.0
C2168 C 0.25226 0.74265 0.39101 0.0
C2169 C 0.26757 0.70619 0.41282 0.0
C2170 C 0.2529 0.70189 0.42276 0.0
C2171 C 0.28201 0.69744 0.41506 0.0
C2172 C 0.29796 0.70114 0.40526 0.0
C2173 C 0.31025 0.7171 0.41015 0.0
C2174 C 0.32651 0.71962 0.40271 0.0
C2175 C 0.33038 0.70644 0.39002 0.0
C2176 C 0.3181 0.69059 0.38494 0.0
C2177 C 0.30201 0.68785 0.39267 0.0
H2178 H 0.34292 0.70849 0.38418 0.0
H2179 H 0.19355 0.67427 0.46934 0.0
H2180 H 0.65542 0.00329 0.67319 0.0
H2181 H 0.63453 0.00536 0.64617 0.0
H2182 H 0.62862 0.05646 0.67127 0.0
H2183 H 0.64991 0.05463 0.69802 0.0
H2184 H 0.59557 0.02529 0.66093 0.0
H2185 H 0.64361 0.06273 0.63615 0.0
H2186 H 0.67503 0.06971 0.63 0.0
H2187 H 0.66864 0.01913 0.59732 0.0
H2188 H 0.63708 0.01204 0.60291 0.0
H2189 H 0.54163 0.04386 0.58292 0.0
H2190 H 0.56265 0.04468 0.61056 0.0
H2191 H 0.58221 0.00121 0.58335 0.0
H2192 H 0.56135 1.00033 0.55565 0.0
H2193 H 0.60822 0.03062 0.59595 0.0
H2194 H 0.55903 0.99428 0.61779 0.0
H2195 H 0.52791 0.98654 0.62452 0.0
H2196 H 0.536 0.03318 0.66421 0.0
H2197 H 0.56713 0.04136 0.65751 0.0
C2198 C 0.65022 0.01523 0.67242 0.0
C2199 C 0.65418 0.02891 0.68719 0.0
C2200 C 0.63825 0.01632 0.65727 0.0
C2201 C 0.63011 0.03096 0.65716 0.0
C2202 C 0.63487 0.0451 0.67142 0.0
C2203 C 0.64706 0.04413 0.68642 0.0
C2204 C 0.61579 0.03078 0.64261 0.0
C2205 C 0.59816 0.02678 0.64674 0.0
C2206 C 0.61953 0.03231 0.62431 0.0
C2207 C 0.63807 0.03691 0.61988 0.0
C2208 C 0.64891 0.05319 0.6275 0.0
C2209 C 0.6667 0.05717 0.62407 0.0
C2210 C 0.67379 0.04491 0.61313 0.0
C2211 C 0.66306 0.0287 0.60552 0.0
C2212 C 0.6452 0.02473 0.60873 0.0
C2213 C 0.55021 0.0343 0.58303 0.0
C2214 C 0.55013 0.02215 0.56729 0.0
C2215 C 0.56209 0.03475 0.59874 0.0
C2216 C 0.57377 0.02298 0.59875 0.0
C2217 C 0.57319 0.01037 0.58334 0.0
C2218 C 0.56139 0.00995 0.56761 0.0
C2219 C 0.58782 0.02497 0.61411 0.0
C2220 C 0.60545 0.0293 0.61013 0.0
C2221 C 0.58396 0.02367 0.63253 0.0
C2222 C 0.56539 0.01852 0.63702 0.0
C2223 C 0.55416 0.00295 0.62788 0.0
C2224 C 0.53651 0.99848 0.63169 0.0
C2225 C 0.52997 0.00939 0.64475 0.0
C2226 C 0.54109 0.02475 0.65409 0.0
C2227 C 0.55875 0.0293 0.65031 0.0
H2228 H 0.51629 0.00592 0.64765 0.0
H2229 H 0.68761 0.04794 0.61061 0.0
H2230 H 0.28132 0.3334 0.98165 0.0
H2231 H 0.28179 0.31634 0.95118 0.0
H2232 H 0.28827 0.36426 0.92598 0.0
H2233 H 0.28749 0.38112 0.95586 0.0
H2234 H 0.26128 0.34009 0.90806 0.0
H2235 H 0.32251 0.34148 0.93303 0.0
H2236 H 0.34533 0.33533 0.95626 0.0
H2237 H 0.32275 0.28005 0.94467 0.0
H2238 H 0.29965 0.28591 0.92153 0.0
H2239 H 0.27743 0.31894 0.81643 0.0
H2240 H 0.27917 0.33073 0.84912 0.0
H2241 H 0.28314 0.27975 0.86493 0.0
H2242 H 0.28255 0.2682 0.83209 0.0
H2243 H 0.30283 0.30161 0.88933 0.0
H2244 H 0.24031 0.29978 0.86749 0.0
H2245 H 0.21273 0.30595 0.8516 0.0
H2246 H 0.23551 0.36126 0.85992 0.0
H2247 H 0.26307 0.35541 0.87609 0.0
C2248 C 0.28297 0.34026 0.96961 0.0
C2249 C 0.28414 0.35861 0.97119 0.0
C2250 C 0.28334 0.33052 0.95223 0.0
C2251 C 0.2851 0.33903 0.93626 0.0
C2252 C 0.28683 0.35737 0.93804 0.0
C2253 C 0.28631 0.36701 0.9552 0.0
C2254 C 0.28369 0.32911 0.9173 0.0
C2255 C 0.27053 0.33183 0.90391 0.0
C2256 C 0.29517 0.31768 0.91208 0.0
C2257 C 0.30928 0.31415 0.92567 0.0
C2258 C 0.32236 0.32803 0.93551 0.0
C2259 C 0.33535 0.32459 0.94865 0.0
C2260 C 0.33546 0.30731 0.95197 0.0
C2261 C 0.32264 0.29343 0.94209 0.0
C2262 C 0.30961 0.2968 0.92895 0.0
C2263 C 0.27866 0.31023 0.82687 0.0
C2264 C 0.27962 0.29258 0.82165 0.0
C2265 C 0.27944 0.31694 0.84563 0.0
C2266 C 0.28061 0.30605 0.85969 0.0
C2267 C 0.28205 0.28847 0.85448 0.0
C2268 C 0.28169 0.28185 0.83567 0.0
C2269 C 0.28072 0.31318 0.87971 0.0
C2270 C 0.29354 0.30983 0.89338 0.0
C2271 C 0.26881 0.32405 0.88537 0.0
C2272 C 0.25372 0.32714 0.87285 0.0
C2273 C 0.23955 0.31319 0.86555 0.0
C2274 C 0.22386 0.31667 0.85667 0.0
C2275 C 0.22235 0.33403 0.85491 0.0
C2276 C 0.23668 0.34787 0.86142 0.0
C2277 C 0.2523 0.34448 0.87045 0.0
H2278 H 0.21005 0.33687 0.84868 0.0
H2279 H 0.34552 0.30468 0.96216 0.0
H2280 H 0.9606 0.98715 0.31394 0.0
H2281 H 0.97046 0.99076 0.34728 0.0
H2282 H 0.95475 0.04112 0.35393 0.0
H2283 H 0.94427 0.03735 0.32034 0.0
H2284 H 0.99136 0.03983 0.3708 0.0
H2285 H 0.93078 0.01354 0.37111 0.0
H2286 H 0.90235 0.99252 0.36133 0.0
H2287 H 0.92694 0.95011 0.37628 0.0
H2288 H 0.95564 0.97084 0.38586 0.0
H2289 H 0.00112 0.04389 0.47134 0.0
H2290 H 0.98892 0.04411 0.43908 0.0
H2291 H 0.00397 0.99448 0.42329 0.0
H2292 H 0.01692 0.99457 0.45547 0.0
H2293 H 0.96565 0.99773 0.41204 0.0
H2294 H 0.02709 0.02502 0.40933 0.0
H2295 H 0.05486 0.04691 0.41959 0.0
H2296 H 0.02718 0.08872 0.41007 0.0
H2297 H 0.99916 0.06705 0.39996 0.0
C2298 C 0.95918 0.999 0.32246 0.0
C2299 C 0.95174 0.01202 0.3145 0.0
C2300 C 0.96476 1.001 0.34153 0.0
C2301 C 0.96332 0.01618 0.35306 0.0
C2302 C 0.95595 0.0293 0.34523 0.0
C2303 C 0.94994 0.02711 0.32611 0.0
C2304 C 0.97006 0.01824 0.37315 0.0
C2305 C 0.98554 0.03086 0.37994 0.0
C2306 C 0.9626 0.00636 0.38496 0.0
C2307 C 0.94544 0.99374 0.379 0.0
C2308 C 0.9302 0.9997 0.3721 0.0
C2309 C 0.91402 0.98785 0.36664 0.0
C2310 C 0.91285 0.96998 0.36813 0.0
C2311 C 0.92787 0.96395 0.3751 0.0
C2312 C 0.9441 0.97575 0.38056 0.0
C2313 C 0.00198 0.03308 0.46098 0.0
C2314 C 0.00985 0.0191 0.46602 0.0
C2315 C 0.99499 0.03324 0.44256 0.0
C2316 C 0.99543 0.01926 0.42885 0.0
C2317 C 0.00344 0.00536 0.43372 0.0
C2318 C 0.01087 0.00543 0.45211 0.0
C2319 C 0.98715 0.01904 0.40952 0.0
C2320 C 0.97137 0.00677 0.40293 0.0
C2321 C 0.9942 0.03138 0.39798 0.0
C2322 C 0.01099 0.04443 0.40412 0.0
C2323 C 0.02688 0.03889 0.40962 0.0
C2324 C 0.04268 0.05125 0.41535 0.0
C2325 C 0.04278 0.0692 0.41553 0.0
C2326 C 0.02708 0.07481 0.40994 0.0
C2327 C 0.01124 0.0625 0.4042 0.0
H2328 H 0.05503 0.07875 0.41996 0.0
H2329 H 0.9003 0.96082 0.36392 0.0
H2330 H 0.25226 0.62902 0.60916 0.0
H2331 H 0.25584 0.65072 0.63683 0.0
H2332 H 0.27359 0.69229 0.6044 0.0
H2333 H 0.2703 0.67075 0.57672 0.0
H2334 H 0.29611 0.69379 0.6356 0.0
H2335 H 0.23346 0.68828 0.61815 0.0
H2336 H 0.20197 0.6735 0.60959 0.0
H2337 H 0.2017 0.6532 0.66204 0.0
H2338 H 0.23328 0.66768 0.67082 0.0
H2339 H 0.26439 0.75976 0.70202 0.0
H2340 H 0.26461 0.73987 0.67388 0.0
H2341 H 0.29307 0.70813 0.70571 0.0
H2342 H 0.29445 0.72877 0.7337 0.0
H2343 H 0.24857 0.70182 0.67543 0.0
H2344 H 0.31603 0.70385 0.68704 0.0
H2345 H 0.3462 0.72236 0.69468 0.0
H2346 H 0.33519 0.75296 0.65102 0.0
H2347 H 0.30476 0.73488 0.6435 0.0
C2348 C 0.25679 0.64279 0.6079 0.0
C2349 C 0.26123 0.64823 0.59091 0.0
C2350 C 0.25875 0.65512 0.62365 0.0
C2351 C 0.26497 0.67296 0.62246 0.0
C2352 C 0.26889 0.67849 0.60544 0.0
C2353 C 0.26702 0.66619 0.58972 0.0
C2354 C 0.2683 0.68578 0.63922 0.0
C2355 C 0.28571 0.69557 0.64429 0.0
C2356 C 0.25468 0.68796 0.65044 0.0
C2357 C 0.23581 0.67887 0.64503 0.0
C2358 C 0.22676 0.68048 0.62776 0.0
C2359 C 0.20887 0.67221 0.6229 0.0
C2360 C 0.19986 0.66236 0.63524 0.0
C2361 C 0.20871 0.66079 0.65248 0.0
C2362 C 0.2266 0.66904 0.65741 0.0
C2363 C 0.27147 0.74907 0.70293 0.0
C2364 C 0.27971 0.74601 0.71997 0.0
C2365 C 0.27144 0.73768 0.68689 0.0
C2366 C 0.27923 0.72294 0.68787 0.0
C2367 C 0.28762 0.71987 0.70474 0.0
C2368 C 0.28814 0.73154 0.7207 0.0
C2369 C 0.27628 0.70957 0.67173 0.0
C2370 C 0.25895 0.69976 0.66679 0.0
C2371 C 0.28985 0.70752 0.66052 0.0
C2372 C 0.30808 0.71828 0.66498 0.0
C2373 C 0.31997 0.7147 0.67928 0.0
C2374 C 0.33711 0.72507 0.68355 0.0
C2375 C 0.34258 0.73889 0.6734 0.0
C2376 C 0.33091 0.74232 0.65894 0.0
C2377 C 0.3137 0.73205 0.6547 0.0
H2378 H 0.35587 0.74688 0.6767 0.0
H2379 H 0.186 0.65599 0.63146 0.0
H2380 H 0.65755 0.03367 0.80223 0.0
H2381 H 0.64749 0.03255 0.83293 0.0
H2382 H 0.59269 0.02271 0.80779 0.0
H2383 H 0.60269 0.02442 0.77708 0.0
H2384 H 0.60057 0.05052 0.83378 0.0
H2385 H 0.61191 0.99143 0.82765 0.0
H2386 H 0.63079 0.96948 0.82233 0.0
H2387 H 0.66669 0.99414 0.87092 0.0
H2388 H 0.64826 0.01651 0.87631 0.0
H2389 H 0.55471 0.04087 0.90828 0.0
H2390 H 0.56767 0.02743 0.88229 0.0
H2391 H 0.62055 0.05141 0.90905 0.0
H2392 H 0.60753 0.06519 0.93505 0.0
H2393 H 0.61512 0.0152 0.88374 0.0
H2394 H 0.60787 0.07578 0.88734 0.0
H2395 H 0.59112 0.09947 0.89315 0.0
H2396 H 0.5505 0.07391 0.84877 0.0
H2397 H 0.5667 0.04966 0.84321 0.0
C2398 C 0.64335 0.03099 0.80325 0.0
C2399 C 0.63084 0.0293 0.7874 0.0
C2400 C 0.63765 0.03022 0.82075 0.0
C2401 C 0.61938 0.02738 0.82251 0.0
C2402 C 0.60686 0.02487 0.8066 0.0
C2403 C 0.61256 0.02595 0.78914 0.0
C2404 C 0.61332 0.02938 0.841 0.0
C2405 C 0.6035 0.04254 0.84455 0.0
C2406 C 0.61796 0.01953 0.85527 0.0
C2407 C 0.62876 0.00576 0.85229 0.0
C2408 C 0.6239 0.99227 0.83714 0.0
C2409 C 0.63452 0.97974 0.8341 0.0
C2410 C 0.64995 0.98043 0.84625 0.0
C2411 C 0.65475 0.99363 0.86151 0.0
C2412 C 0.64421 0.00624 0.86455 0.0
C2413 C 0.5691 0.04286 0.90879 0.0
C2414 C 0.58024 0.05433 0.92319 0.0
C2415 C 0.57646 0.03502 0.89415 0.0
C2416 C 0.59499 0.03856 0.89389 0.0
C2417 C 0.60621 0.04853 0.90921 0.0
C2418 C 0.59882 0.05661 0.92377 0.0
C2419 C 0.60197 0.03585 0.87602 0.0
C2420 C 0.6121 0.02289 0.87276 0.0
C2421 C 0.59798 0.04608 0.86195 0.0
C2422 C 0.5883 0.06072 0.86514 0.0
C2423 C 0.59521 0.07504 0.87905 0.0
C2424 C 0.58583 0.08859 0.88227 0.0
C2425 C 0.5697 0.08815 0.8714 0.0
C2426 C 0.56294 0.07417 0.85726 0.0
C2427 C 0.57218 0.06049 0.85411 0.0
H2428 H 0.56249 0.09869 0.87386 0.0
H2429 H 0.65817 0.97073 0.84387 0.0
H2430 H 0.29576 0.33344 0.07799 0.0
H2431 H 0.29338 0.3208 0.10723 0.0
H2432 H 0.26605 0.36143 0.12751 0.0
H2433 H 0.26977 0.37478 0.09902 0.0
H2434 H 0.28623 0.35616 0.15477 0.0
H2435 H 0.24455 0.31564 0.10738 0.0
H2436 H 0.23649 0.29582 0.07764 0.0
H2437 H 0.27333 0.26417 0.09565 0.0
H2438 H 0.28174 0.28388 0.1254 0.0
H2439 H 0.2538 0.31305 0.22953 0.0
H2440 H 0.25393 0.32568 0.20005 0.0
H2441 H 0.28586 0.28938 0.17945 0.0
H2442 H 0.28528 0.27649 0.20825 0.0
H2443 H 0.26178 0.29238 0.1526 0.0
H2444 H 0.30592 0.33308 0.1971 0.0
H2445 H 0.31445 0.35097 0.22796 0.0
H2446 H 0.27358 0.38023 0.21639 0.0
H2447 H 0.26481 0.36255 0.18527 0.0
C2448 C 0.28934 0.33965 0.08878 0.0
C2449 C 0.28289 0.35501 0.08628 0.0
C2450 C 0.28783 0.33237 0.10544 0.0
C2451 C 0.27908 0.33985 0.11951 0.0
C2452 C 0.27283 0.35534 0.11697 0.0
C2453 C 0.2749 0.36294 0.10064 0.0
C2454 C 0.27621 0.3316 0.13678 0.0
C2455 C 0.28064 0.34226 0.15418 0.0
C2456 C 0.26925 0.31336 0.13628 0.0
C2457 C 0.26384 0.30129 0.11856 0.0
C2458 C 0.25095 0.30447 0.10497 0.0
C2459 C 0.24633 0.29326 0.08811 0.0
C2460 C 0.25441 0.27876 0.08475 0.0
C2461 C 0.26708 0.2754 0.09827 0.0
C2462 C 0.27176 0.28656 0.11514 0.0
C2463 C 0.26073 0.30777 0.21862 0.0
C2464 C 0.26948 0.2938 0.2212 0.0
C2465 C 0.26084 0.31497 0.20183 0.0
C2466 C 0.27007 0.30857 0.18759 0.0
C2467 C 0.27856 0.29447 0.19013 0.0
C2468 C 0.27825 0.28715 0.20669 0.0
C2469 C 0.27176 0.31694 0.17033 0.0
C2470 C 0.26718 0.30631 0.15303 0.0
C2471 C 0.27872 0.3351 0.17091 0.0
C2472 C 0.2848 0.34662 0.18886 0.0
C2473 C 0.29888 0.34346 0.20105 0.0
C2474 C 0.3037 0.35351 0.21857 0.0
C2475 C 0.29457 0.36675 0.22405 0.0
C2476 C 0.28068 0.37006 0.21197 0.0
C2477 C 0.27584 0.36011 0.19437 0.0
H2478 H 0.29821 0.37442 0.23768 0.0
H2479 H 0.25084 0.27013 0.07168 0.0
H2480 H 0.21477 0.91398 -0.00133 0.0
H2481 H 0.19002 0.92952 0.9958 0.0
H2482 H 0.22704 0.97787 0.99298 0.0
H2483 H 0.25177 0.96266 0.99638 0.0
H2484 H 0.20813 0.97947 0.02185 0.0
H2485 H 0.19645 0.96222 0.95695 0.0
H2486 H 0.19341 0.94097 0.92857 0.0
H2487 H 0.14727 0.90973 0.94589 0.0
H2488 H 0.1502 0.93063 0.97458 0.0
H2489 H 0.13675 0.01974 0.03589 0.0
H2490 H 0.15867 0.01058 0.01696 0.0
H2491 H 0.1355 0.95612 0.019 0.0
H2492 H 0.11285 0.96523 0.03745 0.0
H2493 H 0.14867 0.96306 0.98411 0.0
H2494 H 0.1658 0.97441 0.05102 0.0
H2495 H 0.17103 0.99203 0.08205 0.0
H2496 H 0.20896 0.03142 0.0624 0.0
H2497 H 0.20363 0.01419 0.03109 0.0
C2498 C 0.21753 0.92782 0.99707 0.0
C2499 C 0.23506 0.93722 0.99804 0.0
C2500 C 0.20344 0.93661 0.99517 0.0
C2501 C 0.20686 0.95473 0.99397 0.0
C2502 C 0.22428 0.96384 0.99372 0.0
C2503 C 0.23833 0.95515 0.99584 0.0
C2504 C 0.1928 0.96462 0.99683 0.0
C2505 C 0.1953 0.97641 0.01324 0.0
C2506 C 0.17611 0.96009 0.98575 0.0
C2507 C 0.17353 0.94804 0.96795 0.0
C2508 C 0.18562 0.95084 0.95472 0.0
C2509 C 0.18395 0.93883 0.93858 0.0
C2510 C 0.17014 0.92402 0.93542 0.0
C2511 C 0.15793 0.92124 0.94834 0.0
C2512 C 0.15956 0.9332 0.96453 0.0
C2513 C 0.1361 0.0058 0.032 0.0
C2514 C 0.1233 0.99311 0.03824 0.0
C2515 C 0.14849 1.00064 0.02109 0.0
C2516 C 0.14853 0.98276 0.01667 0.0
C2517 C 0.13541 0.97 0.02222 0.0
C2518 C 0.12283 0.97517 0.03306 0.0
C2519 C 0.16403 0.97753 0.00931 0.0
C2520 C 0.16174 0.96665 0.9922 0.0
C2521 C 0.18102 0.98268 0.01986 0.0
C2522 C 0.18403 0.9932 0.03861 0.0
C2523 C 0.17504 0.98696 0.05323 0.0
C2524 C 0.17807 0.99685 0.07088 0.0
C2525 C 0.19025 0.01288 0.07417 0.0
C2526 C 0.19945 0.01904 0.0598 0.0
C2527 C 0.19641 0.00924 0.04209 0.0
H2528 H 0.19262 0.02049 0.08786 0.0
H2529 H 0.16892 0.91469 0.92296 0.0
H2530 H 0.72063 0.61484 0.01128 0.0
H2531 H 0.69167 0.59709 0.01417 0.0
H2532 H 0.66552 0.63302 0.98609 0.0
H2533 H 0.69468 0.65158 0.98438 0.0
H2534 H 0.64821 0.62419 0.01294 0.0
H2535 H 0.67048 0.59033 0.9643 0.0
H2536 H 0.69244 0.57528 0.95015 0.0
H2537 H 0.6907 0.54145 0.99288 0.0
H2538 H 0.66888 0.55643 0.00739 0.0
H2539 H 0.56418 0.56496 0.99214 0.0
H2540 H 0.59284 0.58376 0.98969 0.0
H2541 H 0.61955 0.55389 0.02567 0.0
H2542 H 0.59094 0.53511 0.0284 0.0
H2543 H 0.63598 0.55955 0.9943 0.0
H2544 H 0.61429 0.59399 0.04314 0.0
H2545 H 0.59262 0.60934 0.05745 0.0
H2546 H 0.59261 0.64153 0.01334 0.0
H2547 H 0.61438 0.62646 -0.00118 0.0
C2548 C 0.70872 0.61894 0.00567 0.0
C2549 C 0.70986 0.63451 0.99749 0.0
C2550 C 0.69214 0.60871 0.00721 0.0
C2551 C 0.67636 0.61343 -8e-05 0.0
C2552 C 0.67749 0.62904 0.99175 0.0
C2553 C 0.69412 0.63959 0.9907 0.0
C2554 C 0.65872 0.60221 0.00112 0.0
C2555 C 0.64547 0.61011 0.00855 0.0
C2556 C 0.6552 0.58373 0.99584 0.0
C2557 C 0.66815 0.57458 0.98698 0.0
C2558 C 0.67485 0.57973 0.97071 0.0
C2559 C 0.68726 0.57121 0.96263 0.0
C2560 C 0.69298 0.55744 0.97063 0.0
C2561 C 0.68626 0.55212 0.9867 0.0
C2562 C 0.67385 0.5606 0.99484 0.0
C2563 C 0.57614 0.56235 -0.00048 0.0
C2564 C 0.57529 0.54842 0.01033 0.0
C2565 C 0.59249 0.57317 -0.00182 0.0
C2566 C 0.60825 0.57028 0.00763 0.0
C2567 C 0.6075 0.5563 0.01826 0.0
C2568 C 0.59115 0.54552 0.0197 0.0
C2569 C 0.62562 0.58157 0.00604 0.0
C2570 C 0.63877 0.57367 -0.00144 0.0
C2571 C 0.62899 0.60001 0.01115 0.0
C2572 C 0.61583 0.609 0.01981 0.0
C2573 C 0.60957 0.60425 0.03642 0.0
C2574 C 0.59729 0.61292 0.04459 0.0
C2575 C 0.59114 0.6263 0.03624 0.0
C2576 C 0.59735 0.63113 0.01977 0.0
C2577 C 0.60971 0.62259 0.0116 0.0
H2578 H 0.58162 0.63297 0.04258 0.0
H2579 H 0.7026 0.55087 0.96436 0.0
H2580 H 0.65097 0.47706 0.30367 0.0
H2581 H 0.66629 0.45195 0.30199 0.0
H2582 H 0.68905 0.4684 0.25343 0.0
H2583 H 0.67449 0.49385 0.2555 0.0
H2584 H 0.66653 0.42825 0.25547 0.0
H2585 H 0.71738 0.47657 0.28014 0.0
H2586 H 0.73172 0.5019 0.30346 0.0
H2587 H 0.72605 0.46911 0.347 0.0
H2588 H 0.71132 0.44364 0.32391 0.0
H2589 H 0.72755 0.38122 0.22519 0.0
H2590 H 0.71595 0.40707 0.23645 0.0
H2591 H 0.71619 0.39081 0.29118 0.0
H2592 H 0.72817 0.36488 0.27992 0.0
H2593 H 0.72533 0.42892 0.29093 0.0
H2594 H 0.6794 0.37957 0.26649 0.0
H2595 H 0.6654 0.35373 0.24371 0.0
H2596 H 0.66039 0.38717 0.20129 0.0
H2597 H 0.67477 0.41321 0.22374 0.0
C2598 C 0.65938 0.47535 0.29276 0.0
C2599 C 0.66169 0.48741 0.27979 0.0
C2600 C 0.66809 0.46107 0.29183 0.0
C2601 C 0.67882 0.45846 0.27765 0.0
C2602 C 0.68092 0.47034 0.26455 0.0
C2603 C 0.67267 0.48486 0.26579 0.0
C2604 C 0.68755 0.44309 0.27601 0.0
C2605 C 0.67938 0.42837 0.26319 0.0
C2606 C 0.70401 0.44311 0.28653 0.0
C2607 C 0.713 0.45831 0.30036 0.0
C2608 C 0.71898 0.47482 0.29471 0.0
C2609 C 0.72722 0.48919 0.30788 0.0
C2610 C 0.72973 0.48714 0.32672 0.0
C2611 C 0.72405 0.47069 0.33241 0.0
C2612 C 0.71575 0.45629 0.31929 0.0
C2613 C 0.72551 0.38339 0.23972 0.0
C2614 C 0.72856 0.37107 0.25167 0.0
C2615 C 0.7189 0.39813 0.24614 0.0
C2616 C 0.71495 0.40067 0.26455 0.0
C2617 C 0.71916 0.38905 0.27693 0.0
C2618 C 0.72597 0.37429 0.27051 0.0
C2619 C 0.70459 0.4143 0.26989 0.0
C2620 C 0.71235 0.42863 0.28343 0.0
C2621 C 0.68758 0.41385 0.26018 0.0
C2622 C 0.67825 0.39834 0.24678 0.0
C2623 C 0.67538 0.38142 0.25228 0.0
C2624 C 0.66738 0.36673 0.23943 0.0
C2625 C 0.662 0.3688 0.22106 0.0
C2626 C 0.66455 0.38559 0.21553 0.0
C2627 C 0.67262 0.40033 0.22832 0.0
H2628 H 0.65585 0.35741 0.21111 0.0
H2629 H 0.73612 0.49827 0.33689 0.0
H2630 H 0.8367 0.43393 0.51343 0.0
H2631 H 0.86901 0.44103 0.51713 0.0
H2632 H 0.8676 0.49121 0.49795 0.0
H2633 H 0.83495 0.48406 0.49365 0.0
H2634 H 0.89038 0.47261 0.48096 0.0
H2635 H 0.87513 0.48785 0.54363 0.0
H2636 H 0.86146 0.4814 0.57202 0.0
H2637 H 0.89244 0.44159 0.57902 0.0
H2638 H 0.90609 0.44762 0.5505 0.0
H2639 H 0.96788 0.53171 0.51141 0.0
H2640 H 0.9372 0.51571 0.5095 0.0
H2641 H 0.95588 0.47023 0.52613 0.0
H2642 H 0.98663 0.48587 0.52758 0.0
H2643 H 0.92605 0.47898 0.54288 0.0
H2644 H 0.94539 0.46737 0.48405 0.0
H2645 H 0.95922 0.4728 0.45552 0.0
H2646 H 0.92119 0.50438 0.44075 0.0
H2647 H 0.90736 0.49951 0.46939 0.0
C2648 C 0.84319 0.44657 0.5101 0.0
C2649 C 0.83337 0.45855 0.50332 0.0
C2650 C 0.86162 0.45052 0.51223 0.0
C2651 C 0.87041 0.4666 0.50791 0.0
C2652 C 0.86077 0.4787 0.50129 0.0
C2653 C 0.84225 0.47468 0.49898 0.0
C2654 C 0.88978 0.47083 0.51023 0.0
C2655 C 0.89826 0.47416 0.49447 0.0
C2656 C 0.8998 0.47171 0.52775 0.0
C2657 C 0.89145 0.46802 0.5448 0.0
C2658 C 0.87888 0.47759 0.55111 0.0
C2659 C 0.87117 0.47404 0.56725 0.0
C2660 C 0.87603 0.46105 0.57729 0.0
C2661 C 0.88865 0.45161 0.57122 0.0
C2662 C 0.89637 0.45509 0.55506 0.0
C2663 C 0.96545 0.51843 0.51501 0.0
C2664 C 0.97951 0.5099 0.51945 0.0
C2665 C 0.94803 0.50933 0.51379 0.0
C2666 C 0.94466 0.49179 0.51718 0.0
C2667 C 0.95853 0.48374 0.52325 0.0
C2668 C 0.97599 0.49276 0.52428 0.0
C2669 C 0.92649 0.48189 0.51385 0.0
C2670 C 0.91823 0.47717 0.5293 0.0
C2671 C 0.9167 0.47963 0.49602 0.0
C2672 C 0.92537 0.48313 0.479 0.0
C2673 C 0.9401 0.47567 0.47487 0.0
C2674 C 0.94792 0.47861 0.45863 0.0
C2675 C 0.94103 0.48886 0.44631 0.0
C2676 C 0.92646 0.49638 0.45029 0.0
C2677 C 0.91863 0.49354 0.46653 0.0
H2678 H 0.94694 0.49092 0.43363 0.0
H2679 H 0.87007 0.45834 0.5898 0.0
H2680 H 0.37995 0.07838 0.29852 0.0
H2681 H 0.36696 0.10377 0.29454 0.0
H2682 H 0.31621 0.07578 0.30673 0.0
H2683 H 0.32897 0.0494 0.30892 0.0
H2684 H 0.31238 0.08757 0.27569 0.0
H2685 H 0.34391 0.11484 0.33576 0.0
H2686 H 0.37117 0.12213 0.3583 0.0
H2687 H 0.39854 0.15283 0.32054 0.0
H2688 H 0.37154 0.14555 0.29767 0.0
H2689 H 0.27269 0.15911 0.25964 0.0
H2690 H 0.28614 0.14004 0.27895 0.0
H2691 H 0.33572 0.15384 0.25577 0.0
H2692 H 0.3221 0.17263 0.23607 0.0
H2693 H 0.33862 0.15072 0.29623 0.0
H2694 H 0.31315 0.12079 0.23584 0.0
H2695 H 0.28971 0.11154 0.20913 0.0
H2696 H 0.2549 0.08427 0.24381 0.0
H2697 H 0.27802 0.09379 0.2709 0.0
C2698 C 0.36617 0.07778 0.30099 0.0
C2699 C 0.35537 0.06201 0.30396 0.0
C2700 C 0.35878 0.09243 0.29888 0.0
C2701 C 0.34069 0.09184 0.30073 0.0
C2702 C 0.33024 0.07649 0.30535 0.0
C2703 C 0.33749 0.06152 0.30668 0.0
C2704 C 0.33223 0.10609 0.29481 0.0
C2705 C 0.31775 0.10136 0.28071 0.0
C2706 C 0.3399 0.12408 0.30062 0.0
C2707 C 0.35564 0.1297 0.31503 0.0
C2708 C 0.3557 0.12324 0.33232 0.0
C2709 C 0.37113 0.12732 0.34512 0.0
C2710 C 0.38657 0.13795 0.34086 0.0
C2711 C 0.38656 0.14465 0.32385 0.0
C2712 C 0.37116 0.14061 0.31099 0.0
C2713 C 0.28649 0.15809 0.25884 0.0
C2714 C 0.29639 0.16684 0.24628 0.0
C2715 C 0.29415 0.14743 0.26992 0.0
C2716 C 0.31183 0.14568 0.26867 0.0
C2717 C 0.32207 0.15522 0.25689 0.0
C2718 C 0.31429 0.16566 0.24554 0.0
C2719 C 0.3187 0.13201 0.27762 0.0
C2720 C 0.33291 0.13689 0.29193 0.0
C2721 C 0.31114 0.11409 0.27175 0.0
C2722 C 0.29719 0.10829 0.25549 0.0
C2723 C 0.3004 0.11305 0.23786 0.0
C2724 C 0.28719 0.10773 0.22263 0.0
C2725 C 0.27079 0.0974 0.22479 0.0
C2726 C 0.26759 0.09234 0.24218 0.0
C2727 C 0.28073 0.09773 0.25748 0.0
H2728 H 0.26058 0.09325 0.21298 0.0
H2729 H 0.39854 0.14099 0.35074 0.0
H2730 H 0.30066 0.11731 0.48424 0.0
H2731 H 0.32844 0.10621 0.48299 0.0
H2732 H 0.35138 0.14024 0.5338 0.0
H2733 H 0.32364 0.15156 0.5348 0.0
H2734 H 0.37657 0.13693 0.50963 0.0
H2735 H 0.33147 0.0994 0.53636 0.0
H2736 H 0.30143 0.08171 0.53697 0.0
H2737 H 0.30737 0.04824 0.48793 0.0
H2738 H 0.33738 0.06592 0.48688 0.0
H2739 H 0.43106 0.08785 0.55714 0.0
H2740 H 0.41072 0.10555 0.54473 0.0
H2741 H 0.39538 0.06732 0.49546 0.0
H2742 H 0.41585 0.04954 0.50796 0.0
H2743 H 0.3672 0.07287 0.51377 0.0
H2744 H 0.41595 0.10865 0.49169 0.0
H2745 H 0.44626 0.12656 0.49354 0.0
H2746 H 0.43416 0.16347 0.5364 0.0
H2747 H 0.40388 0.14563 0.53504 0.0
C2748 C 0.31184 0.12268 0.49484 0.0
C2749 C 0.31021 0.13521 0.5096 0.0
C2750 C 0.32764 0.11635 0.49415 0.0
C2751 C 0.34188 0.12227 0.50842 0.0
C2752 C 0.34058 0.13556 0.52263 0.0
C2753 C 0.32477 0.14195 0.52325 0.0
C2754 C 0.35717 0.11317 0.50973 0.0
C2755 C 0.37459 0.12294 0.51056 0.0
C2756 C 0.3545 0.09487 0.5107 0.0
C2757 C 0.33657 0.0841 0.51141 0.0
C2758 C 0.32632 0.08834 0.52563 0.0
C2759 C 0.30931 0.07832 0.52607 0.0
C2760 C 0.30247 0.06389 0.51247 0.0
C2761 C 0.31267 0.05944 0.49844 0.0
C2762 C 0.32968 0.06945 0.49791 0.0
C2763 C 0.42371 0.08352 0.54342 0.0
C2764 C 0.42487 0.06736 0.5335 0.0
C2765 C 0.41217 0.09366 0.5363 0.0
C2766 C 0.40156 0.08777 0.51915 0.0
C2767 C 0.40352 0.07212 0.50869 0.0
C2768 C 0.41523 0.06203 0.51576 0.0
C2769 C 0.38673 0.09658 0.51369 0.0
C2770 C 0.36928 0.08677 0.51231 0.0
C2771 C 0.38945 0.11486 0.51253 0.0
C2772 C 0.40764 0.12572 0.51332 0.0
C2773 C 0.41978 0.12051 0.50161 0.0
C2774 C 0.43696 0.13067 0.50256 0.0
C2775 C 0.44214 0.14613 0.51509 0.0
C2776 C 0.43013 0.15149 0.52669 0.0
C2777 C 0.41295 0.14137 0.52582 0.0
H2778 H 0.45544 0.15397 0.51581 0.0
H2779 H 0.2893 0.05614 0.51283 0.0
H2780 H 0.68268 0.58037 0.28717 0.0
H2781 H 0.70365 0.60835 0.28772 0.0
H2782 H 0.65959 0.63543 0.28392 0.0
H2783 H 0.63868 0.60772 0.2831 0.0
H2784 H 0.68087 0.64427 0.25894 0.0
H2785 H 0.68821 0.63946 0.32437 0.0
H2786 H 0.69493 0.6257 0.35242 0.0
H2787 H 0.74786 0.6249 0.33849 0.0
H2788 H 0.74136 0.63843 0.3102 0.0
H2789 H 0.73145 0.73368 0.29494 0.0
H2790 H 0.71334 0.70468 0.29658 0.0
H2791 H 0.74762 0.68016 0.26325 0.0
H2792 H 0.76522 0.70905 0.26055 0.0
H2793 H 0.73265 0.66984 0.30647 0.0
H2794 H 0.72218 0.67061 0.23788 0.0
H2795 H 0.71404 0.6842 0.21009 0.0
H2796 H 0.66585 0.69306 0.2315 0.0
H2797 H 0.67389 0.67976 0.25957 0.0
C2798 C 0.6775 0.59233 0.28667 0.0
C2799 C 0.65899 0.59177 0.28494 0.0
C2800 C 0.6895 0.60831 0.28704 0.0
C2801 C 0.68319 0.62401 0.28586 0.0
C2802 C 0.66477 0.6235 0.28473 0.0
C2803 C 0.65282 0.6076 0.28428 0.0
C2804 C 0.69551 0.64085 0.28466 0.0
C2805 C 0.69214 0.64983 0.26943 0.0
C2806 C 0.71037 0.64808 0.29816 0.0
C2807 C 0.71422 0.63975 0.31504 0.0
C2808 C 0.70122 0.63618 0.32718 0.0
C2809 C 0.705 0.62846 0.34315 0.0
C2810 C 0.72179 0.62437 0.3472 0.0
C2811 C 0.73484 0.62803 0.33531 0.0
C2812 C 0.73112 0.63573 0.31931 0.0
C2813 C 0.73521 0.72215 0.28797 0.0
C2814 C 0.75002 0.72374 0.27785 0.0
C2815 C 0.72482 0.7056 0.28893 0.0
C2816 C 0.72915 0.69038 0.27996 0.0
C2817 C 0.74406 0.69182 0.27018 0.0
C2818 C 0.75425 0.70836 0.26888 0.0
C2819 C 0.71795 0.67297 0.28079 0.0
C2820 C 0.72147 0.66404 0.29598 0.0
C2821 C 0.70318 0.66575 0.26731 0.0
C2822 C 0.69881 0.67453 0.25096 0.0
C2823 C 0.71003 0.67576 0.23682 0.0
C2824 C 0.70536 0.68327 0.22095 0.0
C2825 C 0.68943 0.68947 0.21903 0.0
C2826 C 0.67819 0.68826 0.23302 0.0
C2827 C 0.68281 0.68077 0.24891 0.0
H2828 H 0.68583 0.69526 0.20672 0.0
H2829 H 0.7247 0.61842 0.35958 0.0
H2830 H 0.83722 0.46416 0.78912 0.0
H2831 H 0.821 0.43416 0.78897 0.0
H2832 H 0.86814 0.41424 0.7774 0.0
H2833 H 0.88449 0.44415 0.7773 0.0
H2834 H 0.83971 0.4018 0.75113 0.0
H2835 H 0.85245 0.4091 0.81732 0.0
H2836 H 0.85396 0.42274 0.84981 0.0
H2837 H 0.79689 0.41624 0.84423 0.0
H2838 H 0.79502 0.40281 0.8116 0.0
H2839 H 0.81188 0.31483 0.77672 0.0
H2840 H 0.82673 0.3441 0.7719 0.0
H2841 H 0.77555 0.35835 0.76014 0.0
H2842 H 0.76058 0.32839 0.76353 0.0
H2843 H 0.8039 0.37382 0.79686 0.0
H2844 H 0.79197 0.36739 0.72996 0.0
H2845 H 0.7915 0.35482 0.69724 0.0
H2846 H 0.8483 0.35891 0.70551 0.0
H2847 H 0.84909 0.37141 0.73832 0.0
C2848 C 0.84421 0.45341 0.78676 0.0
C2849 C 0.86195 0.45639 0.78272 0.0
C2850 C 0.83499 0.43636 0.78692 0.0
C2851 C 0.84348 0.4222 0.78316 0.0
C2852 C 0.86148 0.42516 0.78028 0.0
C2853 C 0.8707 0.44219 0.78006 0.0
C2854 C 0.83288 0.40437 0.77926 0.0
C2855 C 0.83207 0.39556 0.76122 0.0
C2856 C 0.82252 0.39672 0.79232 0.0
C2857 C 0.82362 0.40515 0.81188 0.0
C2858 C 0.84023 0.41079 0.82292 0.0
C2859 C 0.84115 0.41843 0.84139 0.0
C2860 C 0.82554 0.42041 0.84906 0.0
C2861 C 0.80897 0.41473 0.83827 0.0
C2862 C 0.80798 0.4071 0.81977 0.0
C2863 C 0.80387 0.32376 0.7717 0.0
C2864 C 0.78526 0.31939 0.76964 0.0
C2865 C 0.81231 0.34048 0.76918 0.0
C2866 C 0.8021 0.35304 0.76546 0.0
C2867 C 0.78347 0.34851 0.76261 0.0
C2868 C 0.77502 0.33158 0.76458 0.0
C2869 C 0.8109 0.37141 0.76884 0.0
C2870 C 0.81145 0.38025 0.78682 0.0
C2871 C 0.82117 0.37905 0.75585 0.0
C2872 C 0.82057 0.37026 0.7366 0.0
C2873 C 0.80431 0.36534 0.72489 0.0
C2874 C 0.80401 0.35833 0.7063 0.0
C2875 C 0.81989 0.35621 0.69929 0.0
C2876 C 0.83604 0.36069 0.71094 0.0
C2877 C 0.83643 0.36775 0.72952 0.0
H2878 H 0.81973 0.35123 0.6848 0.0
H2879 H 0.82628 0.4263 0.86337 0.0
H2880 H 0.02208 0.84018 0.08922 0.0
H2881 H 0.02014 0.86858 0.07837 0.0
H2882 H 0.07193 0.87159 0.05962 0.0
H2883 H 0.0736 0.84275 0.06968 0.0
H2884 H 0.06156 0.90464 0.08612 0.0
H2885 H 0.0478 0.86569 0.02745 0.0
H2886 H 0.0312 0.83945 0.00662 0.0
H2887 H 0.98198 0.85663 0.0134 0.0
H2888 H 0.99828 0.88283 0.03459 0.0
H2889 H 0.06225 0.98374 0.04362 0.0
H2890 H 0.06686 0.95528 0.05233 0.0
H2891 H 0.01049 0.9342 0.03848 0.0
H2892 H 0.00628 0.96235 0.02947 0.0
H2893 H 0.02455 0.90958 0.028 0.0
H2894 H 0.03546 0.94663 0.08667 0.0
H2895 H 0.04949 0.97209 0.11 0.0
H2896 H 0.10082 0.95865 0.1058 0.0
H2897 H 0.0871 0.93318 0.08232 0.0
C2898 C 0.03302 0.84678 0.08264 0.0
C2899 C 0.04796 0.83896 0.08027 0.0
C2900 C 0.0319 0.86311 0.07645 0.0
C2901 C 0.04588 0.87245 0.06814 0.0
C2902 C 0.06091 0.86478 0.06592 0.0
C2903 C 0.06181 0.84817 0.07162 0.0
C2904 C 0.04477 0.89016 0.06193 0.0
C2905 C 0.05369 0.90572 0.07325 0.0
C2906 C 0.03405 0.89182 0.04549 0.0
C2907 C 0.02424 0.87607 0.03283 0.0
C2908 C 0.03342 0.86375 0.02471 0.0
C2909 C 0.02407 0.84891 0.01279 0.0
C2910 C 0.00554 0.84633 0.00875 0.0
C2911 C 0.99633 0.85862 0.01659 0.0
C2912 C 0.00562 0.87346 0.02856 0.0
C2913 C 0.05083 0.97305 0.0425 0.0
C2914 C 0.0338 0.97552 0.03556 0.0
C2915 C 0.05345 0.95663 0.04761 0.0
C2916 C 0.03902 0.94216 0.04645 0.0
C2917 C 0.02205 0.94475 0.03951 0.0
C2918 C 0.01956 0.96102 0.03416 0.0
C2919 C 0.04137 0.9244 0.0522 0.0
C2920 C 0.03256 0.90871 0.04084 0.0
C2921 C 0.05193 0.92264 0.06883 0.0
C2922 C 0.06028 0.93809 0.08266 0.0
C2923 C 0.04975 0.94917 0.09064 0.0
C2924 C 0.05764 0.96357 0.10393 0.0
C2925 C 0.07602 0.96692 0.10945 0.0
C2926 C 0.08657 0.95597 0.10159 0.0
C2927 C 0.07875 0.94155 0.0883 0.0
H2928 H 0.0821 0.97807 0.11973 0.0
H2929 H 0.99832 0.83485 -0.0005 0.0
H2930 H 0.945 0.23486 0.8741 0.0
H2931 H 0.91568 0.23472 0.85731 0.0
H2932 H 0.91257 0.28229 0.89213 0.0
H2933 H 0.94169 0.28208 0.90922 0.0
H2934 H 0.87988 0.2625 0.88381 0.0
H2935 H 0.92756 0.28255 0.84827 0.0
H2936 H 0.95442 0.28048 0.8328 0.0
H2937 H 0.92581 0.23409 0.79736 0.0
H2938 H 0.89884 0.23576 0.8128 0.0
H2939 H 0.82172 0.29724 0.82168 0.0
H2940 H 0.84796 0.29248 0.84105 0.0
H2941 H 0.84419 0.24203 0.80834 0.0
H2942 H 0.81755 0.24661 0.7893 0.0
H2943 H 0.87936 0.26167 0.81547 0.0
H2944 H 0.83123 0.24247 0.85023 0.0
H2945 H 0.80397 0.24595 0.86435 0.0
H2946 H 0.8333 0.29154 0.90053 0.0
H2947 H 0.8607 0.28848 0.88642 0.0
C2948 C 0.93772 0.24488 0.87862 0.0
C2949 C 0.94545 0.25822 0.89329 0.0
C2950 C 0.92105 0.24498 0.86882 0.0
C2951 C 0.91189 0.25871 0.8731 0.0
C2952 C 0.91921 0.27153 0.88845 0.0
C2953 C 0.93584 0.27134 0.89835 0.0
C2954 C 0.89546 0.2604 0.86087 0.0
C2955 C 0.87989 0.26245 0.8689 0.0
C2956 C 0.89511 0.2601 0.84126 0.0
C2957 C 0.91125 0.25917 0.83183 0.0
C2958 C 0.92704 0.27185 0.83726 0.0
C2959 C 0.94227 0.27075 0.82849 0.0
C2960 C 0.94183 0.25713 0.81414 0.0
C2961 C 0.92614 0.24461 0.80849 0.0
C2962 C 0.91087 0.24563 0.81724 0.0
C2963 C 0.82633 0.28502 0.81885 0.0
C2964 C 0.81735 0.2721 0.80431 0.0
C2965 C 0.8414 0.28234 0.82985 0.0
C2966 C 0.84803 0.26678 0.82638 0.0
C2967 C 0.83935 0.2541 0.81142 0.0
C2968 C 0.82411 0.25669 0.80058 0.0
C2969 C 0.86392 0.26379 0.83843 0.0
C2970 C 0.87936 0.26156 0.83036 0.0
C2971 C 0.86416 0.26397 0.85796 0.0
C2972 C 0.84797 0.26536 0.86713 0.0
C2973 C 0.83185 0.2533 0.86113 0.0
C2974 C 0.81636 0.25522 0.86908 0.0
C2975 C 0.81686 0.26908 0.88317 0.0
C2976 C 0.83291 0.28089 0.88952 0.0
C2977 C 0.84843 0.27904 0.88157 0.0
H2978 H 0.80486 0.27054 0.88933 0.0
H2979 H 0.95365 0.25629 0.80738 0.0
H2980 H 0.52885 0.21451 0.60735 0.0
H2981 H 0.52608 0.18402 0.59385 0.0
H2982 H 0.55356 0.20107 0.54819 0.0
H2983 H 0.55598 0.2321 0.56164 0.0
H2984 H 0.52749 0.17137 0.53613 0.0
H2985 H 0.57588 0.18684 0.58529 0.0
H2986 H 0.59086 0.19895 0.61681 0.0
H2987 H 0.55417 0.16145 0.64039 0.0
H2988 H 0.53882 0.14927 0.60902 0.0
H2989 H 0.54613 0.08432 0.5146 0.0
H2990 H 0.54916 0.11615 0.52266 0.0
H2991 H 0.52131 0.10743 0.57046 0.0
H2992 H 0.51852 0.07562 0.56264 0.0
H2993 H 0.55009 0.13364 0.57961 0.0
H2994 H 0.5009 0.11906 0.53089 0.0
H2995 H 0.48548 0.10693 0.49955 0.0
H2996 H 0.52363 0.14224 0.47514 0.0
H2997 H 0.53941 0.15446 0.50636 0.0
C2998 C 0.53408 0.21188 0.59425 0.0
C2999 C 0.54272 0.22589 0.58568 0.0
C3000 C 0.53259 0.19432 0.58657 0.0
C3001 C 0.54004 0.18998 0.5702 0.0
C3002 C 0.54781 0.20393 0.56092 0.0
C3003 C 0.54912 0.22171 0.56857 0.0
C3004 C 0.54031 0.17095 0.56367 0.0
C3005 C 0.53274 0.16323 0.54555 0.0
C3006 C 0.54686 0.15999 0.57592 0.0
C3007 C 0.55612 0.16723 0.5948 0.0
C3008 C 0.57094 0.18125 0.5972 0.0
C3009 C 0.5795 0.18812 0.61505 0.0
C3010 C 0.57345 0.181 0.6306 0.0
C3011 C 0.55884 0.16696 0.62833 0.0
C3012 C 0.55021 0.16005 0.61052 0.0
C3013 C 0.5409 0.08913 0.52701 0.0
C3014 C 0.53231 0.07724 0.53809 0.0
C3015 C 0.54242 0.10743 0.53147 0.0
C3016 C 0.53535 0.1144 0.54714 0.0
C3017 C 0.5269 0.10254 0.5583 0.0
C3018 C 0.52528 0.08426 0.55377 0.0
C3019 C 0.53697 0.13397 0.55223 0.0
C3020 C 0.54496 0.1418 0.57012 0.0
C3021 C 0.53084 0.14494 0.53975 0.0
C3022 C 0.52146 0.13754 0.52096 0.0
C3023 C 0.5061 0.12413 0.51884 0.0
C3024 C 0.49727 0.11726 0.5011 0.0
C3025 C 0.5036 0.12377 0.48536 0.0
C3026 C 0.51876 0.13719 0.48734 0.0
C3027 C 0.52765 0.1441 0.50506 0.0
H3028 H 0.49674 0.11845 0.47164 0.0
H3029 H 0.5801 0.18633 0.6444 0.0
H3030 H 0.56976 0.77403 0.42742 0.0
H3031 H 0.59575 0.77684 0.41014 0.0
H3032 H 0.56223 0.75023 0.36037 0.0
H3033 H 0.53617 0.74741 0.37756 0.0
H3034 H 0.59306 0.73807 0.36447 0.0
H3035 H 0.5766 0.79402 0.36531 0.0
H3036 H 0.56916 0.82183 0.37866 0.0
H3037 H 0.62094 0.83653 0.41054 0.0
H3038 H 0.62859 0.80866 0.39758 0.0
H3039 H 0.64994 0.76615 0.29636 0.0
H3040 H 0.6265 0.75819 0.31622 0.0
H3041 H 0.66211 0.78528 0.36445 0.0
H3042 H 0.68565 0.79315 0.34447 0.0
H3043 H 0.63093 0.79647 0.36215 0.0
H3044 H 0.64746 0.74004 0.35911 0.0
H3045 H 0.65395 0.71219 0.34456 0.0
H3046 H 0.60111 0.69861 0.31496 0.0
H3047 H 0.59436 0.72647 0.32918 0.0
C3048 C 0.5679 0.76874 0.4128 0.0
C3049 C 0.55083 0.76052 0.40389 0.0
C3050 C 0.58279 0.77042 0.4029 0.0
C3051 C 0.58101 0.76387 0.38387 0.0
C3052 C 0.56402 0.7554 0.37502 0.0
C3053 C 0.54909 0.75384 0.38487 0.0
C3054 C 0.59682 0.76592 0.37319 0.0
C3055 C 0.60124 0.75087 0.36381 0.0
C3056 C 0.60775 0.78255 0.37254 0.0
C3057 C 0.60307 0.79915 0.38067 0.0
C3058 C 0.58632 0.80308 0.37534 0.0
C3059 C 0.58208 0.81888 0.38279 0.0
C3060 C 0.59454 0.83092 0.39549 0.0
C3061 C 0.61128 0.82718 0.40075 0.0
C3062 C 0.61557 0.81138 0.39335 0.0
C3063 C 0.65291 0.76991 0.31128 0.0
C3064 C 0.66965 0.78008 0.31891 0.0
C3065 C 0.6395 0.76537 0.32265 0.0
C3066 C 0.64246 0.77106 0.34192 0.0
C3067 C 0.65947 0.78066 0.34966 0.0
C3068 C 0.67297 0.78504 0.33828 0.0
C3069 C 0.62732 0.76861 0.35351 0.0
C3070 C 0.62292 0.78364 0.36297 0.0
C3071 C 0.61631 0.75197 0.35403 0.0
C3072 C 0.62048 0.73544 0.34507 0.0
C3073 C 0.6373 0.73121 0.34933 0.0
C3074 C 0.641 0.71539 0.34119 0.0
C3075 C 0.62797 0.70366 0.32881 0.0
C3076 C 0.6112 0.70772 0.32454 0.0
C3077 C 0.60743 0.72351 0.33265 0.0
H3078 H 0.63085 0.69141 0.32255 0.0
H3079 H 0.59125 0.84316 0.40122 0.0
H3080 H 0.04068 0.26072 0.41933 0.0
H3081 H 0.03878 0.23451 0.43519 0.0
H3082 H 0.02969 0.20166 0.38205 0.0
H3083 H 0.03097 0.2278 0.36615 0.0
H3084 H 0.00847 0.187 0.40379 0.0
H3085 H 0.07112 0.21099 0.41116 0.0
H3086 H 0.09809 0.23429 0.41972 0.0
H3087 H 0.08705 0.23963 0.47657 0.0
H3088 H 0.05987 0.21651 0.46829 0.0
H3089 H 0.01568 0.10952 0.44239 0.0
H3090 H 0.02533 0.13451 0.4255 0.0
H3091 H 0.02938 0.17024 0.47613 0.0
H3092 H 0.01994 0.14525 0.49297 0.0
H3093 H 0.05483 0.18253 0.45447 0.0
H3094 H 0.99125 0.15975 0.44624 0.0
H3095 H 0.96432 0.13644 0.43752 0.0
H3096 H 0.97754 0.12884 0.38158 0.0
H3097 H 0.00475 0.15191 0.39007 0.0
C3098 C 0.0383 0.24792 0.41101 0.0
C3099 C 0.03605 0.24641 0.39144 0.0
C3100 C 0.03732 0.2329 0.42011 0.0
C3101 C 0.03442 0.21599 0.40989 0.0
C3102 C 0.032 0.21447 0.39033 0.0
C3103 C 0.03278 0.22948 0.38123 0.0
C3104 C 0.03359 0.1999 0.41954 0.0
C3105 C 0.01881 0.18595 0.41462 0.0
C3106 C 0.04686 0.19847 0.43397 0.0
C3107 C 0.06339 0.21211 0.43908 0.0
C3108 C 0.0744 0.21719 0.42547 0.0
C3109 C 0.08973 0.23036 0.43027 0.0
C3110 C 0.09426 0.23846 0.44867 0.0
C3111 C 0.08352 0.23335 0.46232 0.0
C3112 C 0.06816 0.22019 0.45759 0.0
C3113 C 0.01938 0.12266 0.45002 0.0
C3114 C 0.01733 0.12547 0.46903 0.0
C3115 C 0.02468 0.13697 0.44034 0.0
C3116 C 0.02777 0.15436 0.44944 0.0
C3117 C 0.02708 0.15702 0.46875 0.0
C3118 C 0.02179 0.14273 0.47842 0.0
C3119 C 0.02975 0.16973 0.43867 0.0
C3120 C 0.04466 0.18355 0.44345 0.0
C3121 C 0.01665 0.17104 0.42405 0.0
C3122 C 0.00012 0.15741 0.41884 0.0
C3123 C 0.98847 0.15303 0.43211 0.0
C3124 C 0.97315 0.13986 0.42721 0.0
C3125 C 0.96924 0.13113 0.40902 0.0
C3126 C 0.9806 0.13559 0.39567 0.0
C3127 C 0.99598 0.14871 0.40052 0.0
H3128 H 0.95738 0.12094 0.40525 0.0
H3129 H 0.10612 0.24868 0.45235 0.0
H3130 H 0.5697 0.27351 0.22554 0.0
H3131 H 0.60146 0.27645 0.23727 0.0
H3132 H 0.60786 0.24046 0.1902 0.0
H3133 H 0.57647 0.23794 0.17814 0.0
H3134 H 0.62256 0.2339 0.22824 0.0
H3135 H 0.62384 0.27956 0.18742 0.0
H3136 H 0.61504 0.30616 0.17722 0.0
H3137 H 0.63429 0.33481 0.23146 0.0
H3138 H 0.64318 0.30836 0.24198 0.0
H3139 H 0.71693 0.24074 0.2374 0.0
H3140 H 0.68501 0.23778 0.22755 0.0
H3141 H 0.68711 0.29034 0.25489 0.0
H3142 H 0.71922 0.2937 0.26318 0.0
H3143 H 0.66691 0.28872 0.22764 0.0
H3144 H 0.6653 0.24638 0.27041 0.0
H3145 H 0.67084 0.22055 0.285 0.0
H3146 H 0.65037 0.1869 0.23371 0.0
H3147 H 0.64464 0.21253 0.21883 0.0
C3148 C 0.57788 0.26622 0.21771 0.0
C3149 C 0.57048 0.25551 0.20086 0.0
C3150 C 0.59606 0.26794 0.22441 0.0
C3151 C 0.60714 0.25869 0.21462 0.0
C3152 C 0.59966 0.24775 0.19802 0.0
C3153 C 0.58167 0.24635 0.19111 0.0
C3154 C 0.62651 0.26033 0.22154 0.0
C3155 C 0.63234 0.24583 0.22799 0.0
C3156 C 0.63922 0.27606 0.2219 0.0
C3157 C 0.63399 0.29195 0.21553 0.0
C3158 C 0.62608 0.2915 0.1972 0.0
C3159 C 0.62115 0.30657 0.19134 0.0
C3160 C 0.62411 0.32217 0.20369 0.0
C3161 C 0.63206 0.32274 0.2219 0.0
C3162 C 0.63708 0.30773 0.22781 0.0
C3163 C 0.7105 0.25158 0.24138 0.0
C3164 C 0.72063 0.26743 0.25113 0.0
C3165 C 0.69209 0.24986 0.23588 0.0
C3166 C 0.6831 0.26367 0.24068 0.0
C3167 C 0.69335 0.2794 0.25074 0.0
C3168 C 0.71182 0.28132 0.25563 0.0
C3169 C 0.66335 0.26219 0.23465 0.0
C3170 C 0.65734 0.27674 0.2282 0.0
C3171 C 0.65035 0.24664 0.23491 0.0
C3172 C 0.65469 0.23138 0.24348 0.0
C3173 C 0.66216 0.23349 0.2622 0.0
C3174 C 0.66526 0.21888 0.27054 0.0
C3175 C 0.66096 0.2021 0.26029 0.0
C3176 C 0.65366 0.1999 0.24164 0.0
C3177 C 0.65045 0.21445 0.23326 0.0
H3178 H 0.66322 0.19078 0.26681 0.0
H3179 H 0.62027 0.33383 0.19914 0.0
H3180 H 0.51592 0.84088 0.90188 0.0
H3181 H 0.5132 0.86763 0.92189 0.0
H3182 H 0.56305 0.8948 0.9073 0.0
H3183 H 0.5654 0.86839 0.88661 0.0
H3184 H 0.55625 0.89715 0.9494 0.0
H3185 H 0.53489 0.90726 0.88807 0.0
H3186 H 0.51646 0.90067 0.85754 0.0
H3187 H 0.46889 0.89737 0.88454 0.0
H3188 H 0.48705 0.90359 0.91529 0.0
H3189 H 0.55174 0.98903 0.97649 0.0
H3190 H 0.55517 0.96177 0.9579 0.0
H3191 H 0.50477 0.93508 0.97172 0.0
H3192 H 0.50165 0.96209 0.99095 0.0
H3193 H 0.5119 0.93252 0.93011 0.0
H3194 H 0.53252 0.91957 0.99086 0.0
H3195 H 0.55038 0.9249 0.02168 0.0
H3196 H 0.59864 0.9342 0.99589 0.0
H3197 H 0.58099 0.92854 0.96483 0.0
C3198 C 0.52638 0.8525 0.90309 0.0
C3199 C 0.54092 0.85247 0.89272 0.0
C3200 C 0.52476 0.86781 0.91445 0.0
C3201 C 0.53789 0.88327 0.91609 0.0
C3202 C 0.55273 0.88307 0.90626 0.0
C3203 C 0.55407 0.86796 0.89445 0.0
C3204 C 0.53601 0.89969 0.92783 0.0
C3205 C 0.54669 0.90497 0.94505 0.0
C3206 C 0.52332 0.9098 0.92241 0.0
C3207 C 0.51233 0.90556 0.90399 0.0
C3208 C 0.52049 0.90481 0.88752 0.0
C3209 C 0.5101 0.90122 0.87017 0.0
C3210 C 0.49151 0.89851 0.8691 0.0
C3211 C 0.48329 0.8994 0.88539 0.0
C3212 C 0.49363 0.90294 0.90278 0.0
C3213 C 0.5414 0.97734 0.97555 0.0
C3214 C 0.52641 0.97771 0.98515 0.0
C3215 C 0.54341 0.96176 0.96499 0.0
C3216 C 0.53023 0.94634 0.9634 0.0
C3217 C 0.51512 0.94677 0.97276 0.0
C3218 C 0.51337 0.9622 0.98376 0.0
C3219 C 0.5321 0.92992 0.95166 0.0
C3220 C 0.52144 0.92467 0.93443 0.0
C3221 C 0.54478 0.91983 0.95705 0.0
C3222 C 0.55545 0.92389 0.97559 0.0
C3223 C 0.54693 0.92294 0.99179 0.0
C3224 C 0.55702 0.92591 0.00928 0.0
C3225 C 0.57564 0.93007 0.01077 0.0
C3226 C 0.58422 0.93107 0.99472 0.0
C3227 C 0.57418 0.92787 0.97716 0.0
H3228 H 0.58342 0.93244 0.02435 0.0
H3229 H 0.48349 0.8958 0.85565 0.0
H3230 H 0.94536 0.73222 0.68492 0.0
H3231 H 0.91604 0.73539 0.69387 0.0
H3232 H 0.94169 0.77289 0.74126 0.0
H3233 H 0.97098 0.76886 0.73277 0.0
H3234 H 0.91588 0.75389 0.75252 0.0
H3235 H 0.91824 0.78314 0.69783 0.0
H3236 H 0.92182 0.78605 0.66494 0.0
H3237 H 0.87771 0.74283 0.64737 0.0
H3238 H 0.874 0.73952 0.68016 0.0
H3239 H 0.83684 0.78114 0.77629 0.0
H3240 H 0.86588 0.77987 0.76624 0.0
H3241 H 0.8406 0.74255 0.7186 0.0
H3242 H 0.81132 0.74542 0.72761 0.0
H3243 H 0.86634 0.76191 0.70745 0.0
H3244 H 0.86443 0.73258 0.76255 0.0
H3245 H 0.86075 0.73034 0.79555 0.0
H3246 H 0.90413 0.77443 0.81242 0.0
H3247 H 0.90793 0.77705 0.77952 0.0
C3248 C 0.9447 0.74129 0.69712 0.0
C3249 C 0.96052 0.75047 0.70798 0.0
C3250 C 0.92786 0.7432 0.70224 0.0
C3251 C 0.92629 0.75471 0.71815 0.0
C3252 C 0.94223 0.76394 0.72892 0.0
C3253 C 0.95906 0.76175 0.724 0.0
C3254 C 0.90822 0.7567 0.72392 0.0
C3255 C 0.90518 0.7559 0.74262 0.0
C3256 C 0.89381 0.75892 0.71117 0.0
C3257 C 0.89595 0.76098 0.69145 0.0
C3258 C 0.90937 0.77419 0.68695 0.0
C3259 C 0.91142 0.77592 0.66832 0.0
C3260 C 0.90003 0.76461 0.65407 0.0
C3261 C 0.88653 0.75157 0.65842 0.0
C3262 C 0.88444 0.74977 0.67702 0.0
C3263 C 0.83731 0.77294 0.76346 0.0
C3264 C 0.82143 0.76358 0.75274 0.0
C3265 C 0.85415 0.7719 0.75786 0.0
C3266 C 0.85585 0.76075 0.74177 0.0
C3267 C 0.83998 0.75128 0.73108 0.0
C3268 C 0.8231 0.75278 0.73638 0.0
C3269 C 0.87399 0.75903 0.73602 0.0
C3270 C 0.87704 0.75989 0.71732 0.0
C3271 C 0.88843 0.7569 0.74878 0.0
C3272 C 0.88638 0.75508 0.76857 0.0
C3273 C 0.87315 0.74182 0.7733 0.0
C3274 C 0.87104 0.7405 0.79199 0.0
C3275 C 0.88218 0.75226 0.80607 0.0
C3276 C 0.8955 0.76533 0.8015 0.0
C3277 C 0.89766 0.76673 0.78284 0.0
H3278 H 0.88051 0.75122 0.82053 0.0
H3279 H 0.90164 0.76597 0.63966 0.0
H3280 H 0.07231 0.02655 0.82272 0.0
H3281 H 0.06352 0.02267 0.85356 0.0
H3282 H 0.11893 0.0341 0.87678 0.0
H3283 H 0.1278 0.03699 0.84554 0.0
H3284 H 0.10053 0.00927 0.8936 0.0
H3285 H 0.09188 0.06638 0.87854 0.0
H3286 H 0.07986 0.08603 0.85851 0.0
H3287 H 0.02646 0.05888 0.86177 0.0
H3288 H 0.03816 0.03897 0.88164 0.0
H3289 H 0.07426 0.01965 0.98546 0.0
H3290 H 0.08861 0.02318 0.9573 0.0
H3291 H 0.03768 0.02433 0.92697 0.0
H3292 H 0.02419 0.02404 0.95554 0.0
H3293 H 0.05805 0.04556 0.91517 0.0
H3294 H 0.0653 0.986 0.92642 0.0
H3295 H 0.0763 0.96508 0.94551 0.0
H3296 H 0.1299 0.99442 0.94854 0.0
H3297 H 0.11919 0.01554 0.92957 0.0
C3298 C 0.08262 0.02811 0.83438 0.0
C3299 C 0.10072 0.0323 0.83182 0.0
C3300 C 0.07759 0.02596 0.85203 0.0
C3301 C 0.09054 0.02862 0.86763 0.0
C3302 C 0.10869 0.03212 0.86499 0.0
C3303 C 0.11375 0.03381 0.84718 0.0
C3304 C 0.08501 0.02846 0.88667 0.0
C3305 C 0.09129 0.01725 0.8984 0.0
C3306 C 0.07291 0.0388 0.89296 0.0
C3307 C 0.06591 0.05117 0.88151 0.0
C3308 C 0.07758 0.06461 0.87496 0.0
C3309 C 0.07082 0.07577 0.86363 0.0
C3310 C 0.05241 0.07369 0.85886 0.0
C3311 C 0.04071 0.06049 0.86549 0.0
C3312 C 0.0474 0.04929 0.87681 0.0
C3313 C 0.06618 0.02082 0.97279 0.0
C3314 C 0.04801 0.02148 0.97286 0.0
C3315 C 0.07436 0.02251 0.9565 0.0
C3316 C 0.06428 0.02358 0.93959 0.0
C3317 C 0.04599 0.02366 0.93966 0.0
C3318 C 0.03813 0.02318 0.9561 0.0
C3319 C 0.07248 0.02536 0.92186 0.0
C3320 C 0.06705 0.03727 0.91044 0.0
C3321 C 0.08502 0.01535 0.91575 0.0
C3322 C 0.09143 0.00238 0.92671 0.0
C3323 C 0.07942 0.98797 0.93118 0.0
C3324 C 0.08561 0.97609 0.94198 0.0
C3325 C 0.10378 0.97844 0.94826 0.0
C3326 C 0.11583 0.99262 0.94367 0.0
C3327 C 0.10972 0.00451 0.93287 0.0
H3328 H 0.10854 0.96927 0.95667 0.0
H3329 H 0.04721 0.08232 0.85004 0.0
H3330 H 0.7582 0.38592 0.55134 0.0
H3331 H 0.7579 0.37005 0.5786 0.0
H3332 H 0.8155 0.38145 0.58645 0.0
H3333 H 0.81582 0.39792 0.55951 0.0
H3334 H 0.78985 0.34188 0.57752 0.0
H3335 H 0.80532 0.39989 0.61828 0.0
H3336 H 0.79773 0.42872 0.62773 0.0
H3337 H 0.74601 0.40296 0.63862 0.0
H3338 H 0.7533 0.37398 0.62912 0.0
H3339 H 0.83111 0.31165 0.65183 0.0
H3340 H 0.81897 0.32465 0.62607 0.0
H3341 H 0.77346 0.33129 0.65461 0.0
H3342 H 0.78651 0.32043 0.68136 0.0
H3343 H 0.78468 0.35976 0.64402 0.0
H3344 H 0.76984 0.30258 0.61118 0.0
H3345 H 0.77273 0.27254 0.59916 0.0
H3346 H 0.81612 0.29363 0.56998 0.0
H3347 H 0.81364 0.32378 0.58198 0.0
C3348 C 0.77073 0.3852 0.55914 0.0
C3349 C 0.78704 0.39274 0.55351 0.0
C3350 C 0.77054 0.37635 0.57466 0.0
C3351 C 0.78666 0.37478 0.58432 0.0
C3352 C 0.80299 0.38283 0.57909 0.0
C3353 C 0.80318 0.39206 0.5638 0.0
C3354 C 0.78653 0.36263 0.5981 0.0
C3355 C 0.78887 0.34566 0.59213 0.0
C3356 C 0.78391 0.36746 0.61665 0.0
C3357 C 0.77981 0.38483 0.62292 0.0
C3358 C 0.79232 0.4004 0.62264 0.0
C3359 C 0.78808 0.41676 0.62802 0.0
C3360 C 0.77139 0.41768 0.63374 0.0
C3361 C 0.75894 0.40223 0.6342 0.0
C3362 C 0.76313 0.38585 0.62886 0.0
C3363 C 0.81852 0.31583 0.65271 0.0
C3364 C 0.81007 0.31516 0.66895 0.0
C3365 C 0.81134 0.32293 0.63772 0.0
C3366 C 0.79515 0.32878 0.6383 0.0
C3367 C 0.78595 0.32684 0.65384 0.0
C3368 C 0.79339 0.32028 0.66909 0.0
C3369 C 0.78925 0.33895 0.6238 0.0
C3370 C 0.78543 0.35558 0.62944 0.0
C3371 C 0.78991 0.33356 0.60472 0.0
C3372 C 0.79159 0.31544 0.59756 0.0
C3373 C 0.78008 0.30081 0.6023 0.0
C3374 C 0.78163 0.28376 0.59547 0.0
C3375 C 0.79461 0.28118 0.58383 0.0
C3376 C 0.80606 0.29564 0.57898 0.0
C3377 C 0.80456 0.31272 0.58576 0.0
H3378 H 0.79579 0.26797 0.57856 0.0
H3379 H 0.7681 0.43035 0.63784 0.0
H3380 H 0.39177 0.01334 0.34675 0.0
H3381 H 0.40228 0.01594 0.38004 0.0
H3382 H 0.45594 0.01635 0.36684 0.0
H3383 H 0.44566 0.01362 0.33377 0.0
H3384 H 0.4419 0.99078 0.39 0.0
H3385 H 0.44389 0.05325 0.3804 0.0
H3386 H 0.42976 0.0784 0.37476 0.0
H3387 H 0.4003 0.07051 0.42138 0.0
H3388 H 0.41408 0.04513 0.42709 0.0
H3389 H 0.51493 0.01693 0.45387 0.0
H3390 H 0.49346 0.01672 0.4271 0.0
H3391 H 0.45738 0.03468 0.46344 0.0
H3392 H 0.48006 0.03799 0.48979 0.0
H3393 H 0.45212 0.04619 0.43371 0.0
H3394 H 0.45833 0.98902 0.44804 0.0
H3395 H 0.47613 0.9666 0.45458 0.0
H3396 H 0.49054 0.96398 0.39901 0.0
H3397 H 0.47362 0.98691 0.39239 0.0
C3398 C 0.40582 0.01408 0.35103 0.0
C3399 C 0.41796 0.01312 0.33782 0.0
C3400 C 0.41172 0.01556 0.36992 0.0
C3401 C 0.42974 0.01619 0.37557 0.0
C3402 C 0.4419 0.01567 0.36247 0.0
C3403 C 0.43604 0.01408 0.34367 0.0
C3404 C 0.4364 0.01682 0.39506 0.0
C3405 C 0.44403 0.00275 0.3998 0.0
C3406 C 0.43831 0.0322 0.40783 0.0
C3407 C 0.42971 0.04709 0.40392 0.0
C3408 C 0.43419 0.0567 0.38925 0.0
C3409 C 0.4263 0.07104 0.38609 0.0
C3410 C 0.41406 0.07599 0.39764 0.0
C3411 C 0.40971 0.06662 0.41238 0.0
C3412 C 0.41753 0.05225 0.41557 0.0
C3413 C 0.50276 0.02147 0.45611 0.0
C3414 C 0.49899 0.02704 0.47399 0.0
C3415 C 0.49032 0.021 0.44085 0.0
C3416 C 0.47346 0.02464 0.44352 0.0
C3417 C 0.47017 0.03138 0.46117 0.0
C3418 C 0.48308 0.03304 0.47624 0.0
C3419 C 0.45907 0.02069 0.42805 0.0
C3420 C 0.44961 0.03391 0.42437 0.0
C3421 C 0.45552 0.00446 0.41617 0.0
C3422 C 0.46462 0.98969 0.41973 0.0
C3423 C 0.46524 0.98361 0.43721 0.0
C3424 C 0.47528 0.97091 0.44097 0.0
C3425 C 0.48437 0.96383 0.42721 0.0
C3426 C 0.48346 0.96944 0.40965 0.0
C3427 C 0.47369 0.98233 0.4059 0.0
H3428 H 0.49214 0.95401 0.43016 0.0
H3429 H 0.40801 0.08713 0.39521 0.0
H3430 H 0.78041 0.71106 0.05954 0.0
H3431 H 0.78351 0.7288 0.09034 0.0
H3432 H 0.75601 0.68373 0.11248 0.0
H3433 H 0.75287 0.66615 0.08228 0.0
H3434 H 0.74188 0.71242 0.12078 0.0
H3435 H 0.79944 0.69695 0.12307 0.0
H3436 H 0.82893 0.69527 0.1132 0.0
H3437 H 0.84357 0.75168 0.1209 0.0
H3438 H 0.814 0.75371 0.1305 0.0
H3439 H 0.76387 0.72832 0.21975 0.0
H3440 H 0.76354 0.7172 0.18685 0.0
H3441 H 0.77549 0.77038 0.17389 0.0
H3442 H 0.77526 0.78165 0.20692 0.0
H3443 H 0.79838 0.7417 0.15983 0.0
H3444 H 0.73896 0.7561 0.15508 0.0
H3445 H 0.70874 0.75635 0.16367 0.0
H3446 H 0.69867 0.70012 0.16184 0.0
H3447 H 0.72877 0.69955 0.15283 0.0
C3448 C 0.77507 0.70497 0.071 0.0
C3449 C 0.76629 0.68719 0.06832 0.0
C3450 C 0.77694 0.71509 0.08861 0.0
C3451 C 0.76997 0.70758 0.10373 0.0
C3452 C 0.76143 0.68984 0.10105 0.0
C3453 C 0.75966 0.67979 0.08366 0.0
C3454 C 0.77056 0.71811 0.12222 0.0
C3455 C 0.75429 0.7188 0.12925 0.0
C3456 C 0.7867 0.72668 0.13327 0.0
C3457 C 0.80437 0.72549 0.1272 0.0
C3458 C 0.80884 0.70901 0.12241 0.0
C3459 C 0.8256 0.70799 0.11692 0.0
C3460 C 0.83809 0.72336 0.11634 0.0
C3461 C 0.83386 0.73978 0.12128 0.0
C3462 C 0.81709 0.74088 0.12674 0.0
C3463 C 0.76636 0.73765 0.20988 0.0
C3464 C 0.76963 0.75585 0.21584 0.0
C3465 C 0.76618 0.73128 0.19111 0.0
C3466 C 0.76965 0.74296 0.17799 0.0
C3467 C 0.77286 0.76117 0.18385 0.0
C3468 C 0.77262 0.76757 0.20263 0.0
C3469 C 0.76971 0.73586 0.15819 0.0
C3470 C 0.78604 0.73564 0.15107 0.0
C3471 C 0.7537 0.7275 0.14703 0.0
C3472 C 0.73608 0.72781 0.15345 0.0
C3473 C 0.73034 0.74383 0.1567 0.0
C3474 C 0.71321 0.74401 0.16154 0.0
C3475 C 0.70179 0.72826 0.16333 0.0
C3476 C 0.70751 0.7123 0.16038 0.0
C3477 C 0.72457 0.71203 0.15533 0.0
H3478 H 0.6885 0.72843 0.16701 0.0
H3479 H 0.85107 0.72254 0.11212 0.0
H3480 H 0.08723 0.00629 0.72308 0.0
H3481 H 0.07294 0.00567 0.69119 0.0
H3482 H 0.11111 0.05197 0.6847 0.0
H3483 H 0.12591 0.0522 0.71618 0.0
H3484 H 0.06807 0.04848 0.67474 0.0
H3485 H 0.12141 0.02499 0.66383 0.0
H3486 H 0.14178 0.00449 0.66856 0.0
H3487 H 0.0988 0.96056 0.64922 0.0
H3488 H 0.07807 0.98083 0.64477 0.0
H3489 H 0.05438 0.05669 0.5788 0.0
H3490 H 0.06656 0.05646 0.61105 0.0
H3491 H 0.04803 1.00012 0.60492 0.0
H3492 H 0.03628 1.00048 0.57241 0.0
H3493 H 0.08002 0.00777 0.62214 0.0
H3494 H 0.02709 0.03017 0.62998 0.0
H3495 H 0.00586 0.04982 0.62502 0.0
H3496 H 0.04593 0.09441 0.65021 0.0
H3497 H 0.06751 0.07507 0.655 0.0
C3498 C 0.09256 0.01629 0.7148 0.0
C3499 C 0.10771 0.02923 0.72198 0.0
C3500 C 0.08441 0.01592 0.69665 0.0
C3501 C 0.09102 0.02877 0.68568 0.0
C3502 C 0.10588 0.04194 0.69299 0.0
C3503 C 0.11434 0.042 0.71089 0.0
C3504 C 0.08254 0.02838 0.66646 0.0
C3505 C 0.07076 0.03972 0.66316 0.0
C3506 C 0.08572 0.01658 0.65157 0.0
C3507 C 0.09813 0.00441 0.6543 0.0
C3508 C 0.11624 0.01095 0.66087 0.0
C3509 C 0.12787 0.99938 0.66343 0.0
C3510 C 0.12157 0.98123 0.65928 0.0
C3511 C 0.10364 0.97462 0.6525 0.0
C3512 C 0.09195 0.98614 0.64997 0.0
C3513 C 0.05253 0.0444 0.58454 0.0
C3514 C 0.04399 0.02871 0.57344 0.0
C3515 C 0.05957 0.04421 0.60293 0.0
C3516 C 0.05792 0.0283 0.61062 0.0
C3517 C 0.0494 0.01257 0.59939 0.0
C3518 C 0.0426 0.01277 0.5809 0.0
C3519 C 0.06554 0.02804 0.63017 0.0
C3520 C 0.07716 0.01652 0.63362 0.0
C3521 C 0.06202 0.03956 0.64524 0.0
C3522 C 0.04895 0.05117 0.64275 0.0
C3523 C 0.0314 0.04418 0.63439 0.0
C3524 C 0.01931 0.05526 0.6316 0.0
C3525 C 0.02454 0.07335 0.63732 0.0
C3526 C 0.04189 0.08039 0.64581 0.0
C3527 C 0.05406 0.06937 0.64858 0.0
H3528 H 0.01516 0.08191 0.6352 0.0
H3529 H 0.1306 0.97228 0.66124 0.0
H3530 H 0.79005 0.37769 0.45705 0.0
H3531 H 0.79026 0.35842 0.42852 0.0
H3532 H 0.7816 0.39984 0.39616 0.0
H3533 H 0.78102 0.41931 0.42475 0.0
H3534 H 0.75681 0.36882 0.38664 0.0
H3535 H 0.82149 0.38671 0.39902 0.0
H3536 H 0.85039 0.39107 0.41867 0.0
H3537 H 0.8413 0.33599 0.42416 0.0
H3538 H 0.81226 0.33134 0.40475 0.0
H3539 H 0.75949 0.32111 0.30017 0.0
H3540 H 0.76302 0.34241 0.32773 0.0
H3541 H 0.78483 0.30675 0.36053 0.0
H3542 H 0.78392 0.28654 0.33247 0.0
H3543 H 0.80365 0.33605 0.36963 0.0
H3544 H 0.74017 0.31646 0.36183 0.0
H3545 H 0.70997 0.30911 0.34447 0.0
H3546 H 0.71416 0.36276 0.33416 0.0
H3547 H 0.74447 0.3704 0.3513 0.0
C3548 C 0.78844 0.38284 0.44391 0.0
C3549 C 0.78528 0.39992 0.44306 0.0
C3550 C 0.78871 0.37184 0.42766 0.0
C3551 C 0.78609 0.37787 0.41043 0.0
C3552 C 0.7837 0.39512 0.40949 0.0
C3553 C 0.78332 0.40614 0.42577 0.0
C3554 C 0.78381 0.36547 0.39341 0.0
C3555 C 0.7671 0.36182 0.38265 0.0
C3556 C 0.79704 0.35587 0.38901 0.0
C3557 C 0.81465 0.35871 0.40049 0.0
C3558 C 0.82561 0.37555 0.4045 0.0
C3559 C 0.84203 0.37807 0.41558 0.0
C3560 C 0.84767 0.36383 0.42267 0.0
C3561 C 0.83692 0.34702 0.41865 0.0
C3562 C 0.8205 0.34443 0.40758 0.0
C3563 C 0.76492 0.3177 0.31326 0.0
C3564 C 0.77111 0.30195 0.3142 0.0
C3565 C 0.76673 0.32984 0.32907 0.0
C3566 C 0.77375 0.32596 0.34626 0.0
C3567 C 0.77928 0.30994 0.34737 0.0
C3568 C 0.77839 0.2982 0.33137 0.0
C3569 C 0.77649 0.33914 0.36283 0.0
C3570 C 0.79328 0.343 0.37351 0.0
C3571 C 0.76308 0.34842 0.36763 0.0
C3572 C 0.74464 0.34397 0.35776 0.0
C3573 C 0.73467 0.32668 0.35582 0.0
C3574 C 0.71753 0.32246 0.34602 0.0
C3575 C 0.71016 0.33546 0.3382 0.0
C3576 C 0.71989 0.35271 0.34024 0.0
C3577 C 0.73703 0.357 0.35003 0.0
H3578 H 0.69691 0.33216 0.33058 0.0
H3579 H 0.86037 0.36581 0.43126 0.0
H3580 H 0.37781 0.02484 0.21754 0.0
H3581 H 0.39367 0.02277 0.18991 0.0
H3582 H 0.44057 0.01659 0.22436 0.0
H3583 H 0.42534 0.01951 0.25172 0.0
H3584 H 0.45016 0.03856 0.20239 0.0
H3585 H 0.41307 0.98148 0.19638 0.0
H3586 H 0.38589 0.95835 0.19333 0.0
H3587 H 0.36574 0.97648 0.14347 0.0
H3588 H 0.39274 0.99984 0.14635 0.0
H3589 H 0.48421 0.979 0.1364 0.0
H3590 H 0.47378 0.99514 0.16272 0.0
H3591 H 0.44732 0.02353 0.12483 0.0
H3592 H 0.45791 0.00768 0.09856 0.0
H3593 H 0.42701 0.99531 0.1462 0.0
H3594 H 0.47081 0.05055 0.15352 0.0
H3595 H 0.50071 0.0698 0.15925 0.0
H3596 H 0.5118 0.04829 0.2099 0.0
H3597 H 0.48198 0.02896 0.20449 0.0
C3598 C 0.39153 0.02315 0.2191 0.0
C3599 C 0.40039 0.02245 0.23669 0.0
C3600 C 0.40051 0.02186 0.20339 0.0
C3601 C 0.41826 0.01954 0.20518 0.0
C3602 C 0.42695 0.01861 0.22273 0.0
C3603 C 0.41817 0.02021 0.23835 0.0
C3604 C 0.42813 0.01827 0.18896 0.0
C3605 C 0.44512 0.02906 0.1901 0.0
C3606 C 0.42145 0.00598 0.17296 0.0
C3607 C 0.40475 0.99262 0.17179 0.0
C3608 C 0.4027 0.98072 0.18495 0.0
C3609 C 0.38737 0.96752 0.1832 0.0
C3610 C 0.37405 0.96601 0.16828 0.0
C3611 C 0.37603 0.97772 0.15508 0.0
C3612 C 0.39133 0.99095 0.15677 0.0
C3613 C 0.47641 0.9889 0.13382 0.0
C3614 C 0.4714 0.99188 0.11561 0.0
C3615 C 0.47084 0.99835 0.14879 0.0
C3616 C 0.46007 0.01062 0.14556 0.0
C3617 C 0.45596 0.01435 0.12748 0.0
C3618 C 0.46173 0.00511 0.11256 0.0
C3619 C 0.44907 0.01532 0.15984 0.0
C3620 C 0.43182 0.00509 0.15833 0.0
C3621 C 0.45592 0.02741 0.17589 0.0
C3622 C 0.47425 0.03817 0.17847 0.0
C3623 C 0.47973 0.04974 0.16573 0.0
C3624 C 0.49662 0.06075 0.16899 0.0
C3625 C 0.50817 0.06022 0.18489 0.0
C3626 C 0.50286 0.04867 0.19757 0.0
C3627 C 0.48596 0.03773 0.19443 0.0
H3628 H 0.5212 0.06879 0.18742 0.0
H3629 H 0.36223 0.95573 0.16689 0.0
H3630 H 0.75031 0.70595 0.9555 0.0
H3631 H 0.75206 0.71685 0.92521 0.0
H3632 H 0.79542 0.69026 0.91565 0.0
H3633 H 0.79336 0.67883 0.94559 0.0
H3634 H 0.79969 0.72903 0.91011 0.0
H3635 H 0.76141 0.67165 0.89272 0.0
H3636 H 0.73524 0.64813 0.89336 0.0
H3637 H 0.70027 0.68268 0.87851 0.0
H3638 H 0.72624 0.70653 0.87811 0.0
H3639 H 0.79647 0.73273 0.80858 0.0
H3640 H 0.79744 0.72055 0.83846 0.0
H3641 H 0.75752 0.74913 0.85552 0.0
H3642 H 0.7568 0.76158 0.82623 0.0
H3643 H 0.7525 0.70823 0.85657 0.0
H3644 H 0.78727 0.76607 0.88103 0.0
H3645 H 0.81149 0.79212 0.88313 0.0
H3646 H 0.85039 0.75913 0.88538 0.0
H3647 H 0.82633 0.7329 0.8836 0.0
C3648 C 0.76028 0.70253 0.94699 0.0
C3649 C 0.77176 0.69162 0.95292 0.0
C3650 C 0.76117 0.70865 0.92966 0.0
C3651 C 0.77379 0.70424 0.91819 0.0
C3652 C 0.78555 0.69372 0.92429 0.0
C3653 C 0.78437 0.68724 0.94138 0.0
C3654 C 0.77497 0.71095 0.90002 0.0
C3655 C 0.78954 0.72423 0.8983 0.0
C3656 C 0.76141 0.7051 0.88483 0.0
C3657 C 0.74578 0.69096 0.88568 0.0
C3658 C 0.74815 0.67433 0.88989 0.0
C3659 C 0.73334 0.66091 0.89013 0.0
C3660 C 0.7161 0.66393 0.88606 0.0
C3661 C 0.71363 0.68038 0.88173 0.0
C3662 C 0.72839 0.69385 0.8815 0.0
C3663 C 0.78798 0.7364 0.81877 0.0
C3664 C 0.77661 0.7481 0.81514 0.0
C3665 C 0.78861 0.72955 0.83581 0.0
C3666 C 0.77762 0.73408 0.84917 0.0
C3667 C 0.76618 0.74561 0.84544 0.0
C3668 C 0.76582 0.7527 0.8287 0.0
C3669 C 0.77725 0.72617 0.8667 0.0
C3670 C 0.76278 0.71276 0.86832 0.0
C3671 C 0.79064 0.73214 0.88194 0.0
C3672 C 0.80505 0.74756 0.88183 0.0
C3673 C 0.80098 0.76438 0.88173 0.0
C3674 C 0.81467 0.77917 0.88306 0.0
C3675 C 0.83247 0.77727 0.88427 0.0
C3676 C 0.8366 0.76057 0.88434 0.0
C3677 C 0.82295 0.74575 0.88326 0.0
H3678 H 0.84305 0.78875 0.8852 0.0
H3679 H 0.70467 0.6535 0.88619 0.0
H3680 H 0.82053 0.1188 0.05228 0.0
H3681 H 0.84972 0.11208 0.04786 0.0
H3682 H 0.8254 0.05714 0.03242 0.0
H3683 H 0.79612 0.06377 0.03733 0.0
H3684 H 0.85495 0.06167 0.05594 0.0
H3685 H 0.83674 0.08466 -0.00012 0.0
H3686 H 0.82753 0.10634 0.98076 0.0
H3687 H 0.87585 0.14334 0.00216 0.0
H3688 H 0.88524 0.122 0.02166 0.0
H3689 H 0.91491 0.02812 0.00088 0.0
H3690 H 0.89164 0.03743 0.01787 0.0
H3691 H 0.92258 0.0905 0.02867 0.0
H3692 H 0.94563 0.08126 0.01112 0.0
H3693 H 0.89174 0.09003 0.0112 0.0
H3694 H 0.91063 0.06528 0.06558 0.0
H3695 H 0.91857 0.04364 0.08552 0.0
H3696 H 0.86805 0.00918 0.06657 0.0
H3697 H 0.85991 0.03048 0.04639 0.0
C3698 C 0.8215 0.10526 0.04814 0.0
C3699 C 0.80626 0.09172 0.04512 0.0
C3700 C 0.83808 0.1015 0.04548 0.0
C3701 C 0.83953 0.08422 0.03948 0.0
C3702 C 0.8244 0.07058 0.037 0.0
C3703 C 0.80779 0.07431 0.03992 0.0
C3704 C 0.85692 0.08023 0.03618 0.0
C3705 C 0.86299 0.06767 0.04601 0.0
C3706 C 0.86753 0.08875 0.02378 0.0
C3707 C 0.86158 0.10179 0.01245 0.0
C3708 C 0.8453 0.0975 0.00072 0.0
C3709 C 0.84007 0.10971 0.98976 0.0
C3710 C 0.85106 0.12623 0.9903 0.0
C3711 C 0.86732 0.13057 0.0018 0.0
C3712 C 0.87259 0.11842 0.01281 0.0
C3713 C 0.91689 0.04167 0.0073 0.0
C3714 C 0.93178 0.05411 0.00451 0.0
C3715 C 0.90371 0.04693 0.01717 0.0
C3716 C 0.90545 0.06464 0.02462 0.0
C3717 C 0.92102 0.07677 0.02302 0.0
C3718 C 0.93406 0.07156 0.01291 0.0
C3719 C 0.88977 0.071 0.03068 0.0
C3720 C 0.88394 0.08411 0.02136 0.0
C3721 C 0.87925 0.06282 0.04337 0.0
C3722 C 0.88477 0.04941 0.05432 0.0
C3723 C 0.90136 0.05296 0.06542 0.0
C3724 C 0.90584 0.04078 0.07685 0.0
C3725 C 0.89384 0.02503 0.07728 0.0
C3726 C 0.87736 0.02136 0.06621 0.0
C3727 C 0.87281 0.03347 0.05478 0.0
H3728 H 0.8973 0.01568 0.08623 0.0
H3729 H 0.84702 0.13564 0.98176 0.0
H3730 H 0.34794 0.39531 0.03106 0.0
H3731 H 0.37966 0.40887 0.03221 0.0
H3732 H 0.36681 0.46034 0.04302 0.0
H3733 H 0.3353 0.44694 0.04119 0.0
H3734 H 0.38516 0.45829 0.01418 0.0
H3735 H 0.38973 0.43981 0.07656 0.0
H3736 H 0.38745 0.41761 0.09831 0.0
H3737 H 0.42319 0.39129 0.06937 0.0
H3738 H 0.42551 0.41321 0.04733 0.0
H3739 H 0.46605 0.51747 0.03295 0.0
H3740 H 0.43726 0.4996 0.0359 0.0
H3741 H 0.46034 0.45311 0.03229 0.0
H3742 H 0.48949 0.4712 0.03084 0.0
H3743 H 0.43754 0.44912 0.0545 0.0
H3744 H 0.43532 0.46625 0.99371 0.0
H3745 H 0.43823 0.48637 0.96985 0.0
H3746 H 0.39834 0.51199 0.99175 0.0
H3747 H 0.39542 0.49224 0.01594 0.0
C3748 C 0.35203 0.40949 0.03408 0.0
C3749 C 0.33926 0.42013 0.03591 0.0
C3750 C 0.37011 0.41722 0.03474 0.0
C3751 C 0.37558 0.43564 0.03763 0.0
C3752 C 0.36288 0.44612 0.04059 0.0
C3753 C 0.3449 0.43847 0.0396 0.0
C3754 C 0.39413 0.44435 0.03603 0.0
C3755 C 0.39661 0.45645 0.02315 0.0
C3756 C 0.40916 0.44118 0.04694 0.0
C3757 C 0.40764 0.42803 0.0602 0.0
C3758 C 0.39698 0.4292 0.07475 0.0
C3759 C 0.39571 0.41669 0.08715 0.0
C3760 C 0.40512 0.40302 0.08519 0.0
C3761 C 0.41587 0.40186 0.07086 0.0
C3762 C 0.41718 0.41433 0.05842 0.0
C3763 C 0.46509 0.50354 0.03294 0.0
C3764 C 0.48006 0.49583 0.0312 0.0
C3765 C 0.44854 0.49323 0.03447 0.0
C3766 C 0.44643 0.47488 0.03358 0.0
C3767 C 0.46153 0.46722 0.03279 0.0
C3768 C 0.47822 0.47762 0.0319 0.0
C3769 C 0.42848 0.46372 0.03326 0.0
C3770 C 0.42613 0.45099 0.0455 0.0
C3771 C 0.41357 0.46597 0.02138 0.0
C3772 C 0.41525 0.47783 0.00675 0.0
C3773 C 0.42725 0.47624 0.99351 0.0
C3774 C 0.4289 0.48758 0.97992 0.0
C3775 C 0.41849 0.50046 0.9793 0.0
C3776 C 0.4064 0.50202 0.99225 0.0
C3777 C 0.40474 0.49075 0.0059 0.0
H3778 H 0.41979 0.50923 0.96876 0.0
H3779 H 0.40413 0.39336 0.09481 0.0
H3780 H 0.37218 0.55033 0.77973 0.0
H3781 H 0.35769 0.57571 0.78207 0.0
H3782 H 0.38757 0.59708 0.73968 0.0
H3783 H 0.40322 0.57241 0.73864 0.0
H3784 H 0.38611 0.62242 0.76291 0.0
H3785 H 0.34032 0.5752 0.73211 0.0
H3786 H 0.32164 0.54536 0.72769 0.0
H3787 H 0.30031 0.55689 0.77902 0.0
H3788 H 0.31902 0.58673 0.78388 0.0
H3789 H 0.33125 0.68678 0.75674 0.0
H3790 H 0.34253 0.66008 0.74685 0.0
H3791 H 0.32859 0.6394 0.7972 0.0
H3792 H 0.31756 0.66609 0.80711 0.0
H3793 H 0.32075 0.61388 0.76515 0.0
H3794 H 0.36965 0.66054 0.7961 0.0
H3795 H 0.38846 0.69027 0.79938 0.0
H3796 H 0.40322 0.67942 0.74449 0.0
H3797 H 0.38429 0.6497 0.7408 0.0
C3798 C 0.3756 0.56047 0.77094 0.0
C3799 C 0.38867 0.55943 0.75893 0.0
C3800 C 0.3672 0.57491 0.77212 0.0
C3801 C 0.37106 0.58815 0.76062 0.0
C3802 C 0.38424 0.58708 0.74865 0.0
C3803 C 0.39313 0.57296 0.748 0.0
C3804 C 0.36163 0.60326 0.76141 0.0
C3805 C 0.37177 0.62045 0.76299 0.0
C3806 C 0.34288 0.60089 0.7616 0.0
C3807 C 0.33114 0.58317 0.75839 0.0
C3808 C 0.33166 0.57136 0.74247 0.0
C3809 C 0.32108 0.55444 0.73989 0.0
C3810 C 0.30982 0.54923 0.75308 0.0
C3811 C 0.30904 0.56095 0.76882 0.0
C3812 C 0.3196 0.57788 0.77147 0.0
C3813 C 0.33032 0.67633 0.76543 0.0
C3814 C 0.32361 0.67832 0.78263 0.0
C3815 C 0.33679 0.66117 0.75985 0.0
C3816 C 0.33651 0.64785 0.77138 0.0
C3817 C 0.32891 0.64951 0.7881 0.0
C3818 C 0.32265 0.66471 0.79376 0.0
C3819 C 0.3453 0.63278 0.76692 0.0
C3820 C 0.33504 0.61568 0.76467 0.0
C3821 C 0.36385 0.63521 0.76575 0.0
C3822 C 0.37541 0.65298 0.7681 0.0
C3823 C 0.37681 0.66455 0.78469 0.0
C3824 C 0.38751 0.68138 0.78663 0.0
C3825 C 0.397 0.68675 0.77214 0.0
C3826 C 0.39585 0.67526 0.7557 0.0
C3827 C 0.38514 0.65842 0.75367 0.0
H3828 H 0.40526 0.69979 0.77366 0.0
H3829 H 0.30168 0.5361 0.75109 0.0
H3830 H 0.21724 0.57937 0.53298 0.0
H3831 H 0.18578 0.56723 0.53432 0.0
H3832 H 0.17165 0.61485 0.51796 0.0
H3833 H 0.20308 0.62729 0.51698 0.0
H3834 H 0.15083 0.59843 0.54487 0.0
H3835 H 0.17344 0.58388 0.48447 0.0
H3836 H 0.19511 0.5715 0.4668 0.0
H3837 H 0.1806 0.52238 0.48823 0.0
H3838 H 0.15898 0.53456 0.50615 0.0
H3839 H 0.06244 0.56305 0.51741 0.0
H3840 H 0.09159 0.57863 0.51197 0.0
H3841 H 0.11185 0.53063 0.5138 0.0
H3842 H 0.08215 0.5147 0.51695 0.0
H3843 H 0.12956 0.54921 0.49343 0.0
H3844 H 0.10997 0.55958 0.55413 0.0
H3845 H 0.08996 0.56877 0.57616 0.0
H3846 H 0.09983 0.62085 0.56055 0.0
H3847 H 0.11983 0.61193 0.53829 0.0
C3848 C 0.20742 0.58727 0.52982 0.0
C3849 C 0.21235 0.60402 0.52442 0.0
C3850 C 0.18961 0.58045 0.53084 0.0
C3851 C 0.1767 0.5902 0.52603 0.0
C3852 C 0.18164 0.6073 0.52173 0.0
C3853 C 0.19946 0.61422 0.52093 0.0
C3854 C 0.15804 0.58164 0.52253 0.0
C3855 C 0.14601 0.58777 0.53358 0.0
C3856 C 0.15219 0.56756 0.50802 0.0
C3857 C 0.16466 0.56012 0.49664 0.0
C3858 C 0.17489 0.57045 0.48539 0.0
C3859 C 0.18717 0.56348 0.47536 0.0
C3860 C 0.18924 0.54617 0.4764 0.0
C3861 C 0.17897 0.53577 0.48742 0.0
C3862 C 0.16669 0.54269 0.49748 0.0
C3863 C 0.07278 0.55564 0.51524 0.0
C3864 C 0.07022 0.53774 0.51705 0.0
C3865 C 0.08949 0.56459 0.51258 0.0
C3866 C 0.10382 0.55582 0.51305 0.0
C3867 C 0.10089 0.5376 0.51342 0.0
C3868 C 0.08405 0.52855 0.51532 0.0
C3869 C 0.12212 0.56573 0.51594 0.0
C3870 C 0.13418 0.55997 0.50467 0.0
C3871 C 0.12806 0.57958 0.53083 0.0
C3872 C 0.11623 0.58504 0.54439 0.0
C3873 C 0.10781 0.57297 0.55533 0.0
C3874 C 0.09646 0.57813 0.56786 0.0
C3875 C 0.09354 0.59536 0.56969 0.0
C3876 C 0.10206 0.6075 0.55908 0.0
C3877 C 0.11342 0.6024 0.54652 0.0
H3878 H 0.08472 0.59931 0.57937 0.0
H3879 H 0.19878 0.54081 0.46866 0.0
H3880 H 0.72171 0.99636 0.75116 0.0
H3881 H 0.73265 0.96884 0.75007 0.0
H3882 H 0.67845 0.93939 0.74327 0.0
H3883 H 0.66741 0.96668 0.74476 0.0
H3884 H 0.69862 0.93134 0.7715 0.0
H3885 H 0.70213 0.936 0.70782 0.0
H3886 H 0.7092 0.95134 0.68086 0.0
H3887 H 0.7651 0.96043 0.70047 0.0
H3888 H 0.75836 0.94538 0.72774 0.0
H3889 H 0.73495 0.8565 0.77584 0.0
H3890 H 0.72018 0.87466 0.75661 0.0
H3891 H 0.76427 0.91842 0.7739 0.0
H3892 H 0.77889 0.90038 0.79359 0.0
H3893 H 0.74451 0.91402 0.7336 0.0
H3894 H 0.73868 0.91867 0.80092 0.0
H3895 H 0.73196 0.90563 0.82939 0.0
H3896 H 0.67962 0.88065 0.80283 0.0
H3897 H 0.68624 0.89324 0.77401 0.0
C3898 C 0.71217 0.98401 0.74942 0.0
C3899 C 0.69379 0.98357 0.74826 0.0
C3900 C 0.71839 0.96836 0.74851 0.0
C3901 C 0.70625 0.95224 0.74622 0.0
C3902 C 0.6879 0.95179 0.74482 0.0
C3903 C 0.68169 0.96737 0.74587 0.0
C3904 C 0.71282 0.93605 0.74781 0.0
C3905 C 0.7082 0.92717 0.76283 0.0
C3906 C 0.72548 0.93099 0.73659 0.0
C3907 C 0.72973 0.93956 0.71988 0.0
C3908 C 0.71594 0.94131 0.70643 0.0
C3909 C 0.71988 0.94997 0.69109 0.0
C3910 C 0.73759 0.95686 0.68896 0.0
C3911 C 0.75139 0.95505 0.70213 0.0
C3912 C 0.74752 0.94642 0.71752 0.0
C3913 C 0.74154 0.86992 0.77524 0.0
C3914 C 0.75768 0.87738 0.78643 0.0
C3915 C 0.73331 0.88009 0.76407 0.0
C3916 C 0.74131 0.89768 0.7639 0.0
C3917 C 0.75815 0.90472 0.77382 0.0
C3918 C 0.76625 0.89463 0.78528 0.0
C3919 C 0.73046 0.90972 0.75743 0.0
C3920 C 0.73436 0.91781 0.74167 0.0
C3921 C 0.71707 0.91418 0.76794 0.0
C3922 C 0.71309 0.90657 0.78521 0.0
C3923 C 0.72585 0.91018 0.80106 0.0
C3924 C 0.72204 0.90292 0.81728 0.0
C3925 C 0.70539 0.89227 0.8179 0.0
C3926 C 0.69253 0.88886 0.8023 0.0
C3927 C 0.69632 0.89601 0.78601 0.0
H3928 H 0.70245 0.88668 0.83047 0.0
H3929 H 0.74061 0.9636 0.67709 0.0
H3930 H 0.71862 0.88365 0.54556 0.0
H3931 H 0.69371 0.8992 0.54308 0.0
H3932 H 0.72687 0.9409 0.52057 0.0
H3933 H 0.75193 0.92602 0.52425 0.0
H3934 H 0.70947 0.95519 0.54254 0.0
H3935 H 0.69256 0.90683 0.49341 0.0
H3936 H 0.6855 0.87587 0.47881 0.0
H3937 H 0.64311 0.8647 0.51274 0.0
H3938 H 0.65007 0.89554 0.52771 0.0
H3939 H 0.6392 0.988 0.49268 0.0
H3940 H 0.6652 0.97595 0.5034 0.0
H3941 H 0.63303 0.94436 0.53747 0.0
H3942 H 0.60709 0.95645 0.52675 0.0
H3943 H 0.64928 0.92522 0.51227 0.0
H3944 H 0.66545 0.97783 0.55665 0.0
H3945 H 0.67316 0.00974 0.56694 0.0
H3946 H 0.71874 0.01417 0.53677 0.0
H3947 H 0.71087 0.98241 0.52552 0.0
C3948 C 0.7205 0.89615 0.54012 0.0
C3949 C 0.73713 0.90366 0.5351 0.0
C3950 C 0.70626 0.90498 0.53858 0.0
C3951 C 0.70828 0.92114 0.53136 0.0
C3952 C 0.72494 0.92853 0.52627 0.0
C3953 C 0.73925 0.91997 0.52831 0.0
C3954 C 0.69322 0.93057 0.5292 0.0
C3955 C 0.69637 0.94866 0.53569 0.0
C3956 C 0.67599 0.92204 0.5206 0.0
C3957 C 0.67199 0.90343 0.51185 0.0
C3958 C 0.68185 0.89772 0.49789 0.0
C3959 C 0.67784 0.88021 0.48952 0.0
C3960 C 0.66391 0.86831 0.49489 0.0
C3961 C 0.65393 0.87391 0.50862 0.0
C3962 C 0.6579 0.89141 0.51705 0.0
C3963 C 0.63791 0.97884 0.50284 0.0
C3964 C 0.62134 0.97312 0.50904 0.0
C3965 C 0.65271 0.97201 0.50897 0.0
C3966 C 0.65102 0.95932 0.52128 0.0
C3967 C 0.63459 0.95419 0.52803 0.0
C3968 C 0.61984 0.96108 0.52198 0.0
C3969 C 0.66565 0.94984 0.52529 0.0
C3970 C 0.66238 0.93171 0.51917 0.0
C3971 C 0.68292 0.9585 0.53356 0.0
C3972 C 0.68743 0.9777 0.54007 0.0
C3973 C 0.67697 0.98562 0.55196 0.0
C3974 C 0.68141 0.00369 0.55804 0.0
C3975 C 0.69648 0.01397 0.55262 0.0
C3976 C 0.70707 0.0062 0.54098 0.0
C3977 C 0.70258 0.98817 0.53468 0.0
H3978 H 0.69993 0.02795 0.55744 0.0
H3979 H 0.6608 0.85476 0.48838 0.0
H3980 H 0.36801 0.46725 0.76181 0.0
H3981 H 0.34691 0.43975 0.7628 0.0
H3982 H 0.38638 0.41008 0.74682 0.0
H3983 H 0.40747 0.43739 0.74567 0.0
H3984 H 0.35435 0.39645 0.72732 0.0
H3985 H 0.37755 0.41534 0.79144 0.0
H3986 H 0.3848 0.43577 0.82074 0.0
H3987 H 0.32924 0.43679 0.82209 0.0
H3988 H 0.32168 0.41655 0.79263 0.0
H3989 H 0.31972 0.31264 0.74838 0.0
H3990 H 0.33717 0.34139 0.74667 0.0
H3991 H 0.29667 0.36575 0.76979 0.0
H3992 H 0.27983 0.3367 0.77349 0.0
H3993 H 0.32712 0.38326 0.78451 0.0
H3994 H 0.30431 0.36177 0.72022 0.0
H3995 H 0.29855 0.34021 0.69174 0.0
H3996 H 0.35488 0.34322 0.69118 0.0
H3997 H 0.36098 0.36462 0.71976 0.0
C3998 C 0.3722 0.45487 0.75847 0.0
C3999 C 0.38947 0.45456 0.75368 0.0
C4000 C 0.36014 0.43917 0.75912 0.0
C4001 C 0.36511 0.42285 0.75503 0.0
C4002 C 0.38224 0.42251 0.75003 0.0
C4003 C 0.39431 0.43817 0.74943 0.0
C4004 C 0.3525 0.40607 0.7558 0.0
C4005 C 0.34845 0.39351 0.73985 0.0
C4006 C 0.34454 0.40238 0.77204 0.0
C4007 C 0.34907 0.41462 0.7897 0.0
C4008 C 0.36689 0.42007 0.79788 0.0
C4009 C 0.37106 0.43158 0.81454 0.0
C4010 C 0.3575 0.43763 0.82324 0.0
C4011 C 0.33974 0.43213 0.81531 0.0
C4012 C 0.3355 0.42064 0.79864 0.0
C4013 C 0.31433 0.32403 0.75309 0.0
C4014 C 0.29804 0.32219 0.76077 0.0
C4015 C 0.32434 0.34058 0.75186 0.0
C4016 C 0.31803 0.35586 0.75743 0.0
C4017 C 0.30174 0.35417 0.76508 0.0
C4018 C 0.29193 0.3375 0.76691 0.0
C4019 C 0.32891 0.37351 0.75599 0.0
C4020 C 0.33271 0.38626 0.77184 0.0
C4021 C 0.33677 0.37733 0.73967 0.0
C4022 C 0.33309 0.36476 0.72219 0.0
C4023 C 0.31546 0.35781 0.71405 0.0
C4024 C 0.31214 0.34561 0.69789 0.0
C4025 C 0.32634 0.34034 0.68966 0.0
C4026 C 0.3439 0.34732 0.69755 0.0
C4027 C 0.34729 0.35951 0.71371 0.0
H4028 H 0.32373 0.33087 0.67718 0.0
H4029 H 0.36075 0.44653 0.83614 0.0
H4030 H 0.16954 0.60186 0.23498 0.0
H4031 H 0.18734 0.63151 0.2413 0.0
H4032 H 0.23193 0.61166 0.2654 0.0
H4033 H 0.21413 0.58174 0.25932 0.0
H4034 H 0.22229 0.63915 0.28803 0.0
H4035 H 0.23537 0.62635 0.22545 0.0
H4036 H 0.22805 0.61547 0.19194 0.0
H4037 H 0.19575 0.65427 0.18551 0.0
H4038 H 0.20266 0.66525 0.21903 0.0
H4039 H 0.28219 0.72168 0.27871 0.0
H4040 H 0.26743 0.69193 0.28295 0.0
H4041 H 0.21628 0.70403 0.26543 0.0
H4042 H 0.23099 0.73376 0.26136 0.0
H4043 H 0.23217 0.67973 0.24058 0.0
H4044 H 0.21641 0.69137 0.30181 0.0
H4045 H 0.21933 0.70049 0.33566 0.0
H4046 H 0.25389 0.66411 0.34479 0.0
H4047 H 0.25144 0.65495 0.31092 0.0
C4048 C 0.18318 0.60372 0.24145 0.0
C4049 C 0.19043 0.58954 0.24681 0.0
C4050 C 0.19333 0.62063 0.24494 0.0
C4051 C 0.21086 0.62354 0.25367 0.0
C4052 C 0.21837 0.60945 0.25861 0.0
C4053 C 0.20821 0.59246 0.2551 0.0
C4054 C 0.22072 0.64158 0.25873 0.0
C4055 C 0.22493 0.64803 0.27772 0.0
C4056 C 0.22343 0.65297 0.24509 0.0
C4057 C 0.21948 0.64657 0.22481 0.0
C4058 C 0.22662 0.63251 0.21692 0.0
C4059 C 0.22256 0.62633 0.19792 0.0
C4060 C 0.21142 0.63416 0.18661 0.0
C4061 C 0.20438 0.64823 0.19428 0.0
C4062 C 0.2084 0.65446 0.21328 0.0
C4063 C 0.26774 0.71807 0.27653 0.0
C4064 C 0.25753 0.72955 0.26966 0.0
C4065 C 0.25938 0.70131 0.27916 0.0
C4066 C 0.24089 0.69606 0.27453 0.0
C4067 C 0.23057 0.70814 0.26928 0.0
C4068 C 0.23892 0.72493 0.26683 0.0
C4069 C 0.23336 0.67738 0.26991 0.0
C4070 C 0.22979 0.67083 0.25092 0.0
C4071 C 0.23111 0.666 0.28356 0.0
C4072 C 0.23384 0.67255 0.30378 0.0
C4073 C 0.22491 0.68553 0.31097 0.0
C4074 C 0.22636 0.69061 0.33019 0.0
C4075 C 0.23662 0.68272 0.34235 0.0
C4076 C 0.24583 0.67008 0.33533 0.0
C4077 C 0.24442 0.66495 0.31613 0.0
H4078 H 0.23743 0.6864 0.35723 0.0
H4079 H 0.20827 0.62933 0.17191 0.0
H4080 H 0.52992 0.71611 0.47324 0.0
H4081 H 0.53236 0.68755 0.48351 0.0
H4082 H 0.47818 0.6661 0.45951 0.0
H4083 H 0.47592 0.69439 0.44848 0.0
H4084 H 0.49514 0.66106 0.50327 0.0
H4085 H 0.49803 0.65146 0.43539 0.0
H4086 H 0.511 0.65897 0.40692 0.0
H4087 H 0.56282 0.65516 0.43208 0.0
H4088 H 0.55019 0.64798 0.46085 0.0
H4089 H 0.48902 0.56937 0.51097 0.0
H4090 H 0.48531 0.59771 0.50108 0.0
H4091 H 0.54056 0.60869 0.49148 0.0
H4092 H 0.544 0.58032 0.50045 0.0
H4093 H 0.52334 0.61966 0.4651 0.0
H4094 H 0.52536 0.62996 0.53025 0.0
H4095 H 0.51768 0.62381 0.56128 0.0
H4096 H 0.46372 0.62859 0.54566 0.0
H4097 H 0.47095 0.63455 0.51431 0.0
C4098 C 0.51844 0.70539 0.47028 0.0
C4099 C 0.50267 0.70772 0.46006 0.0
C4100 C 0.51988 0.68898 0.47614 0.0
C4101 C 0.50546 0.67451 0.47237 0.0
C4102 C 0.48953 0.67695 0.46265 0.0
C4103 C 0.48825 0.6932 0.45633 0.0
C4104 C 0.50717 0.65679 0.47808 0.0
C4105 C 0.50102 0.6519 0.49474 0.0
C4106 C 0.51563 0.645 0.46758 0.0
C4107 C 0.52321 0.64949 0.45037 0.0
C4108 C 0.51223 0.6525 0.43496 0.0
C4109 C 0.51951 0.65663 0.41874 0.0
C4110 C 0.53774 0.65762 0.41772 0.0
C4111 C 0.54871 0.65445 0.43291 0.0
C4112 C 0.5415 0.65037 0.44917 0.0
C4113 C 0.5004 0.57783 0.5068 0.0
C4114 C 0.51698 0.57252 0.50705 0.0
C4115 C 0.4983 0.59418 0.50119 0.0
C4116 C 0.51272 0.60579 0.49572 0.0
C4117 C 0.52914 0.60027 0.49563 0.0
C4118 C 0.53119 0.58397 0.5011 0.0
C4119 C 0.51085 0.62359 0.49009 0.0
C4120 C 0.5172 0.62865 0.47358 0.0
C4121 C 0.50316 0.63577 0.50106 0.0
C4122 C 0.49866 0.63258 0.5199 0.0
C4123 C 0.51181 0.62963 0.53338 0.0
C4124 C 0.50753 0.62617 0.55101 0.0
C4125 C 0.49017 0.62576 0.55538 0.0
C4126 C 0.47709 0.62889 0.54216 0.0
C4127 C 0.48128 0.63234 0.52448 0.0
H4128 H 0.48685 0.62306 0.56903 0.0
H4129 H 0.54334 0.66078 0.40514 0.0
H4130 H 0.59038 0.28941 0.66394 0.0
H4131 H 0.61657 0.28646 0.68412 0.0
H4132 H 0.64791 0.29025 0.63815 0.0
H4133 H 0.62138 0.29273 0.6176 0.0
H4134 H 0.65684 0.26588 0.65787 0.0
H4135 H 0.65049 0.32561 0.67394 0.0
H4136 H 0.63467 0.34931 0.6834 0.0
H4137 H 0.62519 0.32786 0.73418 0.0
H4138 H 0.64077 0.3039 0.7249 0.0
H4139 H 0.74218 0.29445 0.71704 0.0
H4140 H 0.71558 0.29528 0.69596 0.0
H4141 H 0.68213 0.26972 0.7331 0.0
H4142 H 0.70863 0.26764 0.75365 0.0
H4143 H 0.67469 0.30489 0.71804 0.0
H4144 H 0.68028 0.24495 0.70178 0.0
H4145 H 0.69612 0.22122 0.69259 0.0
H4146 H 0.70705 0.2432 0.64242 0.0
H4147 H 0.69157 0.26729 0.65153 0.0
C4148 C 0.60283 0.28968 0.65804 0.0
C4149 C 0.60373 0.29149 0.6391 0.0
C4150 C 0.6179 0.28805 0.6697 0.0
C4151 C 0.63447 0.28847 0.66289 0.0
C4152 C 0.63537 0.28997 0.64387 0.0
C4153 C 0.62019 0.29146 0.63211 0.0
C4154 C 0.65074 0.28741 0.67568 0.0
C4155 C 0.66082 0.27462 0.67088 0.0
C4156 C 0.65592 0.29845 0.69299 0.0
C4157 C 0.64665 0.31289 0.69865 0.0
C4158 C 0.64493 0.32589 0.68707 0.0
C4159 C 0.63603 0.33938 0.6924 0.0
C4160 C 0.6289 0.34007 0.70936 0.0
C4161 C 0.63071 0.3273 0.72104 0.0
C4162 C 0.63958 0.31378 0.71576 0.0
C4163 C 0.72921 0.28877 0.7207 0.0
C4164 C 0.72774 0.28092 0.73718 0.0
C4165 C 0.71398 0.28934 0.70861 0.0
C4166 C 0.69683 0.28252 0.71289 0.0
C4167 C 0.69522 0.27506 0.72948 0.0
C4168 C 0.71046 0.27403 0.74132 0.0
C4169 C 0.68064 0.28344 0.70016 0.0
C4170 C 0.67065 0.29622 0.70499 0.0
C4171 C 0.67555 0.27241 0.68293 0.0
C4172 C 0.68503 0.25808 0.67749 0.0
C4173 C 0.68629 0.24488 0.68893 0.0
C4174 C 0.69514 0.23132 0.6837 0.0
C4175 C 0.70263 0.23073 0.66695 0.0
C4176 C 0.70128 0.24369 0.6554 0.0
C4177 C 0.69247 0.25731 0.6606 0.0
H4178 H 0.70947 0.22021 0.66292 0.0
H4179 H 0.622 0.35052 0.71346 0.0
H4180 H 0.00028 0.31458 0.97713 0.0
H4181 H 0.00197 0.34522 0.99124 0.0
H4182 H 0.01937 0.36381 0.94117 0.0
H4183 H 0.01819 0.33388 0.92743 0.0
H4184 H 0.03804 0.38458 0.96822 0.0
H4185 H 0.97457 0.36066 0.95461 0.0
H4186 H 0.94617 0.34074 0.95709 0.0
H4187 H 0.95235 0.35684 0.01612 0.0
H4188 H 0.98091 0.37669 0.01402 0.0
H4189 H 0.02274 0.47212 0.9758 0.0
H4190 H 0.02145 0.44071 0.96636 0.0
H4191 H 0.00476 0.42921 0.0193 0.0
H4192 H 0.00563 0.46041 0.02856 0.0
H4193 H 0.98684 0.40462 0.99419 0.0
H4194 H 0.04894 0.43069 0.00723 0.0
H4195 H 0.07578 0.45246 0.00407 0.0
H4196 H 0.07215 0.43272 0.94605 0.0
H4197 H 0.04494 0.41115 0.94874 0.0
C4198 C 0.00458 0.32521 0.9692 0.0
C4199 C 0.00904 0.32146 0.95102 0.0
C4200 C 0.00542 0.34282 0.97724 0.0
C4201 C 0.01065 0.35714 0.96729 0.0
C4202 C 0.01534 0.35329 0.94934 0.0
C4203 C 0.01456 0.33592 0.9414 0.0
C4204 C 0.01138 0.37616 0.97508 0.0
C4205 C 0.02673 0.38888 0.97375 0.0
C4206 C 0.99696 0.38212 0.98288 0.0
C4207 C 0.97999 0.36995 0.98419 0.0
C4208 C 0.96996 0.35981 0.96814 0.0
C4209 C 0.95382 0.34856 0.96948 0.0
C4210 C 0.94749 0.34747 0.98676 0.0
C4211 C 0.95729 0.35765 0.00275 0.0
C4212 C 0.97346 0.36889 0.0015 0.0
C4213 C 0.01877 0.46292 0.98544 0.0
C4214 C 0.01426 0.46899 0.00296 0.0
C4215 C 0.01811 0.44486 0.98005 0.0
C4216 C 0.01328 0.43231 0.99217 0.0
C4217 C 0.00854 0.43838 0.00957 0.0
C4218 C 0.00905 0.45638 0.01488 0.0
C4219 C 0.0133 0.41299 0.98686 0.0
C4220 C 0.99818 0.40027 0.98876 0.0
C4221 C 0.02794 0.40701 0.9796 0.0
C4222 C 0.04479 0.4194 0.97816 0.0
C4223 C 0.05383 0.43102 0.99378 0.0
C4224 C 0.0691 0.44336 0.99206 0.0
C4225 C 0.07566 0.44401 0.97485 0.0
C4226 C 0.06703 0.43223 0.95936 0.0
C4227 C 0.05166 0.41996 0.96097 0.0
H4228 H 0.08742 0.45364 0.97349 0.0
H4229 H 0.93497 0.33879 0.98776 0.0
H4230 H 0.99052 0.78598 0.11938 0.0
H4231 H 0.96199 0.78625 0.1322 0.0
H4232 H 0.9849 0.77347 0.18417 0.0
H4233 H 0.0128 0.77273 0.1715 0.0
H4234 H 0.9544 0.75264 0.17408 0.0
H4235 H 0.97611 0.81555 0.17719 0.0
H4236 H 0.9861 0.84298 0.16399 0.0
H4237 H 0.9359 0.83464 0.12943 0.0
H4238 H 0.92572 0.80702 0.14225 0.0
H4239 H 0.89986 0.76634 0.24114 0.0
H4240 H 0.92463 0.77541 0.22332 0.0
H4241 H 0.88727 0.7744 0.17487 0.0
H4242 H 0.86235 0.76529 0.19282 0.0
H4243 H 0.92155 0.80172 0.17863 0.0
H4244 H 0.89961 0.73951 0.17673 0.0
H4245 H 0.88954 0.71257 0.19072 0.0
H4246 H 0.94076 0.71993 0.22315 0.0
H4247 H 0.95103 0.7471 0.20958 0.0
C4248 C 0.98944 0.78333 0.13356 0.0
C4249 C 0.00394 0.7791 0.14428 0.0
C4250 C 0.97314 0.78356 0.14092 0.0
C4251 C 0.97117 0.77982 0.15921 0.0
C4252 C 0.98588 0.77619 0.16998 0.0
C4253 C 0.00192 0.77577 0.16265 0.0
C4254 C 0.95383 0.77872 0.16726 0.0
C4255 C 0.94736 0.76348 0.17511 0.0
C4256 C 0.94412 0.79254 0.16817 0.0
C4257 C 0.95024 0.80912 0.1605 0.0
C4258 C 0.96727 0.81949 0.16665 0.0
C4259 C 0.97295 0.83509 0.15927 0.0
C4260 C 0.96166 0.84052 0.14583 0.0
C4261 C 0.94465 0.8304 0.1398 0.0
C4262 C 0.93891 0.81478 0.14713 0.0
C4263 C 0.89692 0.76888 0.22696 0.0
C4264 C 0.87921 0.76532 0.21842 0.0
C4265 C 0.91108 0.77395 0.21673 0.0
C4266 C 0.90784 0.77542 0.19769 0.0
C4267 C 0.8901 0.77345 0.18955 0.0
C4268 C 0.87586 0.76833 0.19983 0.0
C4269 C 0.92279 0.77598 0.18598 0.0
C4270 C 0.92862 0.79092 0.17739 0.0
C4271 C 0.93205 0.76191 0.18433 0.0
C4272 C 0.92603 0.74541 0.19226 0.0
C4273 C 0.90868 0.73544 0.18694 0.0
C4274 C 0.90295 0.72013 0.19478 0.0
C4275 C 0.91449 0.71456 0.20785 0.0
C4276 C 0.93182 0.72427 0.21305 0.0
C4277 C 0.93762 0.73962 0.20527 0.0
H4278 H 0.91002 0.70271 0.21392 0.0
H4279 H 0.96609 0.8526 0.14014 0.0
H4280 H 0.53666 0.31765 0.16778 0.0
H4281 H 0.53802 0.34373 0.15186 0.0
H4282 H 0.49919 0.31389 0.10744 0.0
H4283 H 0.49869 0.28749 0.12284 0.0
H4284 H 0.52226 0.33282 0.09253 0.0
H4285 H 0.49052 0.34699 0.14414 0.0
H4286 H 0.48556 0.35133 0.17718 0.0
H4287 H 0.53331 0.39124 0.18919 0.0
H4288 H 0.53868 0.38699 0.15628 0.0
H4289 H 0.51677 0.40835 0.04865 0.0
H4290 H 0.50657 0.38402 0.06629 0.0
H4291 H 0.54795 0.40708 0.11132 0.0
H4292 H 0.55774 0.43145 0.09394 0.0
H4293 H 0.52007 0.39145 0.12536 0.0
H4294 H 0.55314 0.3753 0.07495 0.0
H4295 H 0.55888 0.37079 0.04217 0.0
H4296 H 0.50882 0.33432 0.02828 0.0
H4297 H 0.50265 0.33884 0.06094 0.0
C4298 C 0.52839 0.31666 0.15462 0.0
C4299 C 0.51756 0.30048 0.14659 0.0
C4300 C 0.52903 0.33168 0.14557 0.0
C4301 C 0.51838 0.33108 0.12855 0.0
C4302 C 0.50753 0.31486 0.12055 0.0
C4303 C 0.50723 0.29973 0.12937 0.0
C4304 C 0.51908 0.34708 0.11871 0.0
C4305 C 0.52138 0.34553 0.0997 0.0
C4306 C 0.51836 0.36391 0.12797 0.0
C4307 C 0.51505 0.36658 0.14775 0.0
C4308 C 0.50001 0.35663 0.15385 0.0
C4309 C 0.49712 0.35908 0.17255 0.0
C4310 C 0.50913 0.37153 0.18528 0.0
C4311 C 0.52402 0.38159 0.17932 0.0
C4312 C 0.52698 0.37919 0.16064 0.0
C4313 C 0.52317 0.40853 0.06263 0.0
C4314 C 0.53798 0.4218 0.06999 0.0
C4315 C 0.51753 0.3945 0.07261 0.0
C4316 C 0.52677 0.3934 0.09 0.0
C4317 C 0.54062 0.40747 0.09794 0.0
C4318 C 0.54619 0.42146 0.08803 0.0
C4319 C 0.52329 0.37711 0.0993 0.0
C4320 C 0.52059 0.37863 0.11819 0.0
C4321 C 0.52364 0.36024 0.08996 0.0
C4322 C 0.52734 0.35758 0.07033 0.0
C4323 C 0.54329 0.36643 0.06487 0.0
C4324 C 0.54663 0.36386 0.04632 0.0
C4325 C 0.5342 0.35232 0.03314 0.0
C4326 C 0.51841 0.3433 0.03849 0.0
C4327 C 0.51499 0.34586 0.05702 0.0
H4328 H 0.53682 0.35033 0.01879 0.0
H4329 H 0.50688 0.3734 0.19976 0.0
H4330 H 0.97325 0.28993 0.35566 0.0
H4331 H 0.94095 0.28656 0.34733 0.0
H4332 H 0.94876 0.28597 0.28936 0.0
H4333 H 0.98092 0.29026 0.29777 0.0
H4334 H 0.92749 0.30579 0.29532 0.0
H4335 H 0.9284 0.24781 0.31178 0.0
H4336 H 0.93537 0.22624 0.33228 0.0
H4337 H 0.90496 0.24675 0.37293 0.0
H4338 H 0.89797 0.26856 0.35276 0.0
H4339 H 0.83614 0.28464 0.25737 0.0
H4340 H 0.86777 0.28547 0.26618 0.0
H4341 H 0.85795 0.28206 0.3232 0.0
H4342 H 0.82604 0.27983 0.31401 0.0
H4343 H 0.88032 0.26397 0.31817 0.0
H4344 H 0.88361 0.32446 0.30429 0.0
H4345 H 0.88003 0.34851 0.28585 0.0
H4346 H 0.90288 0.32358 0.24106 0.0
H4347 H 0.90719 0.29971 0.25957 0.0
C4348 C 0.96803 0.28883 0.34112 0.0
C4349 C 0.97977 0.29038 0.32741 0.0
C4350 C 0.94946 0.28681 0.33631 0.0
C4351 C 0.94208 0.2858 0.31759 0.0
C4352 C 0.95386 0.28679 0.30391 0.0
C4353 C 0.97236 0.28918 0.30874 0.0
C4354 C 0.92239 0.28484 0.31216 0.0
C4355 C 0.91724 0.29639 0.30015 0.0
C4356 C 0.9087 0.27308 0.31877 0.0
C4357 C 0.91281 0.25991 0.33083 0.0
C4358 C 0.9233 0.24778 0.32514 0.0
C4359 C 0.92723 0.23551 0.33669 0.0
C4360 C 0.92065 0.23515 0.35391 0.0
C4361 C 0.91007 0.24704 0.35959 0.0
C4362 C 0.9061 0.25935 0.3481 0.0
C4363 C 0.84073 0.28414 0.27182 0.0
C4364 C 0.82845 0.28216 0.28495 0.0
C4365 C 0.85901 0.28484 0.27696 0.0
C4366 C 0.86576 0.28429 0.29558 0.0
C4367 C 0.85341 0.2825 0.30874 0.0
C4368 C 0.83506 0.28129 0.30348 0.0
C4369 C 0.88541 0.28496 0.30128 0.0
C4370 C 0.89056 0.27334 0.31333 0.0
C4371 C 0.89919 0.29669 0.29476 0.0
C4372 C 0.89552 0.31028 0.28319 0.0
C4373 C 0.88772 0.32407 0.29045 0.0
C4374 C 0.8857 0.33772 0.28004 0.0
C4375 C 0.89113 0.33752 0.26224 0.0
C4376 C 0.89867 0.32371 0.25483 0.0
C4377 C 0.90104 0.3102 0.26533 0.0
H4378 H 0.88955 0.34811 0.25419 0.0
H4379 H 0.92372 0.22565 0.36284 0.0
H4380 H 0.02719 0.70805 0.62851 0.0
H4381 H 0.02917 0.68181 0.60766 0.0
H4382 H 0.99215 0.65 0.63727 0.0
H4383 H 0.99141 0.67605 0.659 0.0
H4384 H 0.01453 0.63239 0.631 0.0
H4385 H 0.983 0.66283 0.5892 0.0
H4386 H 0.97783 0.68788 0.57298 0.0
H4387 H 0.0265 0.68814 0.54845 0.0
H4388 H 0.03207 0.66322 0.5647 0.0
H4389 H 0.99997 0.55518 0.56507 0.0
H4390 H 0.99593 0.58198 0.5836 0.0
H4391 H 0.03873 0.61243 0.5597 0.0
H4392 H 0.04216 0.58577 0.5404 0.0
H4393 H 0.01308 0.63036 0.56253 0.0
H4394 H 0.04574 0.60279 0.6101 0.0
H4395 H 0.049 0.57645 0.62507 0.0
H4396 H 0.99409 0.56886 0.63508 0.0
H4397 H 0.99093 0.59582 0.62143 0.0
C4398 C 0.01929 0.69548 0.63038 0.0
C4399 C 0.00901 0.69418 0.64533 0.0
C4400 C 0.02034 0.68039 0.61834 0.0
C4401 C 0.01054 0.66366 0.62042 0.0
C4402 C 0.99994 0.66255 0.63517 0.0
C4403 C 0.99938 0.67752 0.64757 0.0
C4404 C 0.01186 0.64726 0.60792 0.0
C4405 C 0.01392 0.63206 0.61601 0.0
C4406 C 0.01145 0.64644 0.58825 0.0
C4407 C 0.00802 0.66128 0.5783 0.0
C4408 C 0.99264 0.66829 0.58042 0.0
C4409 C 0.98964 0.68246 0.57122 0.0
C4410 C 0.00185 0.68962 0.55973 0.0
C4411 C 0.01706 0.68259 0.55737 0.0
C4412 C 0.02014 0.66843 0.56655 0.0
C4413 C 0.00857 0.56757 0.56381 0.0
C4414 C 0.02146 0.56824 0.5513 0.0
C4415 C 0.00636 0.58294 0.57456 0.0
C4416 C 0.01734 0.59936 0.57357 0.0
C4417 C 0.03009 0.60004 0.5609 0.0
C4418 C 0.03208 0.58472 0.54987 0.0
C4419 C 0.01561 0.61575 0.58569 0.0
C4420 C 0.01359 0.63088 0.57753 0.0
C4421 C 0.01575 0.6165 0.60523 0.0
C4422 C 0.01812 0.60124 0.61481 0.0
C4423 C 0.03449 0.59563 0.61581 0.0
C4424 C 0.03633 0.58066 0.62413 0.0
C4425 C 0.02179 0.57103 0.63112 0.0
C4426 C 0.00545 0.5765 0.63003 0.0
C4427 C 0.00369 0.59175 0.62225 0.0
H4428 H 0.02317 0.5593 0.63732 0.0
H4429 H 0.99951 0.70061 0.55264 0.0
H4430 H 0.57632 0.78242 0.80927 0.0
H4431 H 0.60402 0.77884 0.79641 0.0
H4432 H 0.63409 0.79913 0.85 0.0
H4433 H 0.60651 0.80277 0.86288 0.0
H4434 H 0.6511 0.81325 0.8228 0.0
H4435 H 0.62448 0.75451 0.83303 0.0
H4436 H 0.6005 0.7281 0.82942 0.0
H4437 H 0.60133 0.72219 0.77017 0.0
H4438 H 0.62516 0.74872 0.7734 0.0
H4439 H 0.73332 0.78758 0.81061 0.0
H4440 H 0.70463 0.79105 0.82061 0.0
H4441 H 0.67823 0.76833 0.76601 0.0
H4442 H 0.70709 0.7651 0.75578 0.0
H4443 H 0.65871 0.75559 0.79191 0.0
H4444 H 0.68373 0.81289 0.77999 0.0
H4445 H 0.70655 0.83984 0.78124 0.0
H4446 H 0.70778 0.8492 0.84066 0.0
H4447 H 0.68489 0.8222 0.83975 0.0
C4448 C 0.58882 0.78614 0.81833 0.0
C4449 C 0.58904 0.79286 0.83718 0.0
C4450 C 0.60472 0.78401 0.81096 0.0
C4451 C 0.62134 0.78853 0.8222 0.0
C4452 C 0.62158 0.79549 0.84094 0.0
C4453 C 0.6057 0.79753 0.84833 0.0
C4454 C 0.63845 0.78608 0.81456 0.0
C4455 C 0.65278 0.80056 0.81628 0.0
C4456 C 0.64069 0.76972 0.80537 0.0
C4457 C 0.62647 0.7537 0.80344 0.0
C4458 C 0.61946 0.74765 0.81922 0.0
C4459 C 0.6059 0.73265 0.81724 0.0
C4460 C 0.59936 0.7235 0.79957 0.0
C4461 C 0.60639 0.7293 0.78384 0.0
C4462 C 0.61993 0.74431 0.78574 0.0
C4463 C 0.72148 0.78335 0.80061 0.0
C4464 C 0.72272 0.77592 0.78232 0.0
C4465 C 0.70496 0.7854 0.80639 0.0
C4466 C 0.68905 0.78015 0.7941 0.0
C4467 C 0.69018 0.77252 0.77587 0.0
C4468 C 0.70677 0.7706 0.77002 0.0
C4469 C 0.67141 0.78271 0.80038 0.0
C4470 C 0.65701 0.76828 0.7984 0.0
C4471 C 0.66898 0.79918 0.80908 0.0
C4472 C 0.68275 0.81542 0.80982 0.0
C4473 C 0.68896 0.82062 0.79334 0.0
C4474 C 0.7019 0.83592 0.79399 0.0
C4475 C 0.70875 0.84617 0.81104 0.0
C4476 C 0.70252 0.84121 0.82747 0.0
C4477 C 0.68952 0.82593 0.82689 0.0
H4478 H 0.71884 0.85797 0.81151 0.0
H4479 H 0.58886 0.71189 0.79807 0.0
H4480 H 0.41481 0.50304 0.68494 0.0
H4481 H 0.42818 0.50581 0.65591 0.0
H4482 H 0.47866 0.53114 0.68735 0.0
H4483 H 0.46543 0.52839 0.71638 0.0
H4484 H 0.47066 0.5487 0.65868 0.0
H4485 H 0.47344 0.48992 0.66777 0.0
H4486 H 0.46278 0.45936 0.67334 0.0
H4487 H 0.42697 0.44984 0.62256 0.0
H4488 H 0.43724 0.48046 0.61682 0.0
H4489 H 0.52401 0.52036 0.58397 0.0
H4490 H 0.51011 0.52011 0.61272 0.0
H4491 H 0.46342 0.53361 0.5849 0.0
H4492 H 0.47772 0.53519 0.55629 0.0
H4493 H 0.46965 0.49733 0.6115 0.0
H4494 H 0.46717 0.56045 0.6063 0.0
H4495 H 0.48199 0.59042 0.60224 0.0
H4496 H 0.52162 0.59069 0.64819 0.0
H4497 H 0.50727 0.56048 0.65213 0.0
C4498 C 0.42877 0.50916 0.68567 0.0
C4499 C 0.43905 0.5155 0.70297 0.0
C4500 C 0.4364 0.51069 0.66907 0.0
C4501 C 0.45444 0.51864 0.66945 0.0
C4502 C 0.46471 0.525 0.68671 0.0
C4503 C 0.45713 0.52336 0.70329 0.0
C4504 C 0.46256 0.52054 0.65186 0.0
C4505 C 0.47039 0.53744 0.64839 0.0
C4506 C 0.46239 0.50588 0.63844 0.0
C4507 C 0.45592 0.48756 0.642 0.0
C4508 C 0.46313 0.48138 0.65791 0.0
C4509 C 0.4572 0.46403 0.66107 0.0
C4510 C 0.44416 0.45268 0.64835 0.0
C4511 C 0.43704 0.45866 0.63243 0.0
C4512 C 0.44291 0.47601 0.62921 0.0
C4513 C 0.51101 0.52385 0.58403 0.0
C4514 C 0.50215 0.52814 0.56781 0.0
C4515 C 0.50304 0.52355 0.60048 0.0
C4516 C 0.48591 0.52718 0.60102 0.0
C4517 C 0.47686 0.53123 0.58489 0.0
C4518 C 0.48502 0.53199 0.56851 0.0
C4519 C 0.47713 0.52547 0.61815 0.0
C4520 C 0.46949 0.50857 0.62167 0.0
C4521 C 0.4777 0.54006 0.63173 0.0
C4522 C 0.48641 0.55808 0.6292 0.0
C4523 C 0.47925 0.56675 0.61527 0.0
C4524 C 0.48751 0.58382 0.61305 0.0
C4525 C 0.50281 0.59241 0.62487 0.0
C4526 C 0.50984 0.58398 0.63897 0.0
C4527 C 0.50167 0.56688 0.64117 0.0
H4528 H 0.50916 0.60564 0.62318 0.0
H4529 H 0.43961 0.43924 0.6508 0.0
H4530 H 0.76942 0.18042 0.00389 0.0
H4531 H 0.76388 0.19311 0.97531 0.0
H4532 H 0.78061 0.15017 0.94372 0.0
H4533 H 0.78595 0.1371 0.97233 0.0
H4534 H 0.79569 0.18531 0.93672 0.0
H4535 H 0.73928 0.14781 0.93814 0.0
H4536 H 0.71146 0.13422 0.94959 0.0
H4537 H 0.69732 0.18486 0.9597 0.0
H4538 H 0.72514 0.19879 0.94858 0.0
H4539 H 0.75394 0.20872 0.85119 0.0
H4540 H 0.76905 0.19655 0.87649 0.0
H4541 H 0.74811 0.22973 0.91676 0.0
H4542 H 0.73254 0.24138 0.89152 0.0
H4543 H 0.7353 0.19497 0.91603 0.0
H4544 H 0.79362 0.23311 0.91962 0.0
H4545 H 0.8224 0.24704 0.91038 0.0
H4546 H 0.83268 0.19625 0.89117 0.0
H4547 H 0.80419 0.18198 0.90083 0.0
C4548 C 0.77229 0.17385 0.99094 0.0
C4549 C 0.77821 0.15785 0.99026 0.0
C4550 C 0.76885 0.18096 0.97465 0.0
C4551 C 0.77152 0.17228 0.95757 0.0
C4552 C 0.77831 0.15681 0.95689 0.0
C4553 C 0.78151 0.14952 0.97318 0.0
C4554 C 0.76787 0.18002 0.94062 0.0
C4555 C 0.78245 0.1872 0.93186 0.0
C4556 C 0.75061 0.18258 0.93477 0.0
C4557 C 0.73446 0.17438 0.94273 0.0
C4558 C 0.73041 0.1561 0.94312 0.0
C4559 C 0.71457 0.14832 0.94946 0.0
C4560 C 0.70266 0.15868 0.95542 0.0
C4561 C 0.70657 0.17685 0.95513 0.0
C4562 C 0.72238 0.18469 0.94881 0.0
C4563 C 0.75288 0.21353 0.86551 0.0
C4564 C 0.74166 0.22537 0.86965 0.0
C4565 C 0.76172 0.20685 0.87987 0.0
C4566 C 0.75956 0.21222 0.89838 0.0
C4567 C 0.74983 0.22543 0.90248 0.0
C4568 C 0.74074 0.23184 0.88816 0.0
C4569 C 0.76329 0.20127 0.9128 0.0
C4570 C 0.74857 0.19312 0.92081 0.0
C4571 C 0.78041 0.19797 0.91801 0.0
C4572 C 0.7966 0.20652 0.91055 0.0
C4573 C 0.80185 0.22493 0.91309 0.0
C4574 C 0.81818 0.23289 0.9079 0.0
C4575 C 0.82922 0.22258 0.89988 0.0
C4576 C 0.82404 0.20425 0.89721 0.0
C4577 C 0.80786 0.19622 0.90263 0.0
H4578 H 0.84185 0.22879 0.89589 0.0
H4579 H 0.69036 0.15261 0.96022 0.0
H4580 H 0.13628 0.54633 0.20264 0.0
H4581 H 0.11814 0.5478 0.17376 0.0
H4582 H 0.1339 0.50131 0.14812 0.0
H4583 H 0.1525 0.50001 0.17728 0.0
H4584 H 0.13267 0.52672 0.12473 0.0
H4585 H 0.09569 0.49635 0.16419 0.0
H4586 H 0.08247 0.49065 0.19298 0.0
H4587 H 0.0599 0.53697 0.19212 0.0
H4588 H 0.07329 0.54316 0.16351 0.0
H4589 H 0.05743 0.50167 0.05684 0.0
H4590 H 0.08131 0.50424 0.08199 0.0
H4591 H 0.0679 0.55211 0.10724 0.0
H4592 H 0.04381 0.54972 0.08171 0.0
H4593 H 0.06852 0.52572 0.12998 0.0
H4594 H 0.10971 0.55672 0.09109 0.0
H4595 H 0.123 0.56021 0.06178 0.0
H4596 H 0.13475 0.50844 0.05998 0.0
H4597 H 0.12216 0.5049 0.0896 0.0
C4598 C 0.13581 0.53643 0.19085 0.0
C4599 C 0.14519 0.52278 0.19203 0.0
C4600 C 0.1256 0.53734 0.17442 0.0
C4601 C 0.12448 0.52442 0.15916 0.0
C4602 C 0.13463 0.51127 0.15995 0.0
C4603 C 0.14509 0.5105 0.17645 0.0
C4604 C 0.11194 0.52438 0.1428 0.0
C4605 C 0.11861 0.52633 0.12577 0.0
C4606 C 0.09368 0.52393 0.14444 0.0
C4607 C 0.08569 0.52033 0.16178 0.0
C4608 C 0.08809 0.50544 0.17024 0.0
C4609 C 0.08053 0.5021 0.18652 0.0
C4610 C 0.0704 0.51347 0.19441 0.0
C4611 C 0.06779 0.52819 0.18602 0.0
C4612 C 0.07536 0.53162 0.16977 0.0
C4613 C 0.05977 0.51294 0.06755 0.0
C4614 C 0.04902 0.52563 0.06742 0.0
C4615 C 0.07347 0.51443 0.08178 0.0
C4616 C 0.0765 0.52858 0.09603 0.0
C4617 C 0.06577 0.54128 0.09604 0.0
C4618 C 0.05201 0.53981 0.08171 0.0
C4619 C 0.08935 0.52863 0.1121 0.0
C4620 C 0.08265 0.52639 0.12904 0.0
C4621 C 0.10743 0.52842 0.11027 0.0
C4622 C 0.11494 0.53053 0.09247 0.0
C4623 C 0.1151 0.54609 0.0844 0.0
C4624 C 0.12254 0.54809 0.06778 0.0
C4625 C 0.12951 0.53449 0.05893 0.0
C4626 C 0.12931 0.51895 0.06682 0.0
C4627 C 0.12219 0.517 0.08361 0.0
H4628 H 0.13515 0.53604 0.046 0.0
H4629 H 0.06453 0.51084 0.20699 0.0
H4630 H 0.77446 0.87808 0.45321 0.0
H4631 H 0.77391 0.8603 0.42353 0.0
H4632 H 0.78029 0.81571 0.45174 0.0
H4633 H 0.78122 0.83371 0.48194 0.0
H4634 H 0.80187 0.81967 0.42402 0.0
H4635 H 0.73967 0.81753 0.42883 0.0
H4636 H 0.71329 0.83024 0.43458 0.0
H4637 H 0.72138 0.86048 0.38923 0.0
H4638 H 0.74794 0.84813 0.38337 0.0
H4639 H 0.78766 0.76687 0.33446 0.0
H4640 H 0.78658 0.7784 0.36696 0.0
H4641 H 0.77249 0.82557 0.3493 0.0
H4642 H 0.77278 0.81382 0.31695 0.0
H4643 H 0.75257 0.81601 0.37353 0.0
H4644 H 0.81715 0.82519 0.37373 0.0
H4645 H 0.84626 0.8171 0.36989 0.0
H4646 H 0.8349 0.77648 0.40473 0.0
H4647 H 0.80593 0.78473 0.40925 0.0
C4648 C 0.77566 0.86447 0.45325 0.0
C4649 C 0.77775 0.85731 0.47006 0.0
C4650 C 0.77526 0.85427 0.43616 0.0
C4651 C 0.77669 0.83655 0.43533 0.0
C4652 C 0.77902 0.82933 0.45204 0.0
C4653 C 0.77951 0.83961 0.46928 0.0
C4654 C 0.77614 0.82593 0.4169 0.0
C4655 C 0.7909 0.81851 0.41308 0.0
C4656 C 0.76206 0.8248 0.40246 0.0
C4657 C 0.74584 0.83195 0.40571 0.0
C4658 C 0.73586 0.82694 0.42013 0.0
C4659 C 0.72088 0.83408 0.42341 0.0
C4660 C 0.71568 0.84617 0.41229 0.0
C4661 C 0.72542 0.8511 0.39783 0.0
C4662 C 0.74042 0.84401 0.3945 0.0
C4663 C 0.78434 0.7797 0.33755 0.0
C4664 C 0.78024 0.78939 0.3231 0.0
C4665 C 0.78388 0.78637 0.35617 0.0
C4666 C 0.77962 0.80299 0.36073 0.0
C4667 C 0.77572 0.81269 0.34626 0.0
C4668 C 0.77593 0.80595 0.3277 0.0
C4669 C 0.7786 0.8102 0.3804 0.0
C4670 C 0.76344 0.8169 0.38449 0.0
C4671 C 0.79243 0.81093 0.395 0.0
C4672 C 0.80936 0.80541 0.39163 0.0
C4673 C 0.82082 0.81443 0.38042 0.0
C4674 C 0.83731 0.80986 0.37819 0.0
C4675 C 0.84236 0.79617 0.3869 0.0
C4676 C 0.83096 0.78706 0.39796 0.0
C4677 C 0.81456 0.79174 0.40046 0.0
H4678 H 0.85516 0.79269 0.38519 0.0
H4679 H 0.70409 0.85171 0.41487 0.0
H4680 H 0.48081 0.52458 0.81022 0.0
H4681 H 0.49152 0.52776 0.84339 0.0
H4682 H 0.4374 0.51197 0.85557 0.0
H4683 H 0.42658 0.51 0.82238 0.0
H4684 H 0.45516 0.53507 0.88296 0.0
H4685 H 0.46712 0.48198 0.84995 0.0
H4686 H 0.47931 0.46527 0.82516 0.0
H4687 H 0.53207 0.49487 0.84467 0.0
H4688 H 0.52015 0.51187 0.86946 0.0
H4689 H 0.47952 0.51023 0.97115 0.0
H4690 H 0.46713 0.5099 0.93886 0.0
H4691 H 0.52049 0.52329 0.92362 0.0
H4692 H 0.53284 0.52231 0.95572 0.0
H4693 H 0.50209 0.50114 0.89791 0.0
H4694 H 0.49032 0.55441 0.93107 0.0
H4695 H 0.47824 0.57085 0.95617 0.0
H4696 H 0.42552 0.54102 0.93696 0.0
H4697 H 0.43732 0.52431 0.91185 0.0
C4698 C 0.47121 0.5221 0.82004 0.0
C4699 C 0.45292 0.51691 0.8138 0.0
C4700 C 0.47732 0.52379 0.83899 0.0
C4701 C 0.46534 0.51952 0.85198 0.0
C4702 C 0.44694 0.5152 0.84584 0.0
C4703 C 0.44076 0.51406 0.8269 0.0
C4704 C 0.47212 0.51849 0.87165 0.0
C4705 C 0.46531 0.52753 0.88623 0.0
C4706 C 0.48552 0.50882 0.87604 0.0
C4707 C 0.49273 0.49825 0.86147 0.0
C4708 C 0.48131 0.48493 0.84892 0.0
C4709 C 0.48817 0.47542 0.83487 0.0
C4710 C 0.50645 0.47902 0.83333 0.0
C4711 C 0.51791 0.49209 0.84588 0.0
C4712 C 0.51112 0.50164 0.85995 0.0
C4713 C 0.48856 0.51306 0.96084 0.0
C4714 C 0.50711 0.51647 0.96585 0.0
C4715 C 0.48148 0.51301 0.94241 0.0
C4716 C 0.49283 0.51712 0.9288 0.0
C4717 C 0.51141 0.52019 0.93382 0.0
C4718 C 0.51848 0.51967 0.95214 0.0
C4719 C 0.48544 0.51801 0.90929 0.0
C4720 C 0.49203 0.50881 0.8947 0.0
C4721 C 0.4719 0.52756 0.90497 0.0
C4722 C 0.46472 0.53806 0.91963 0.0
C4723 C 0.47615 0.55137 0.9322 0.0
C4724 C 0.46936 0.56072 0.94644 0.0
C4725 C 0.45113 0.55697 0.94816 0.0
C4726 C 0.43963 0.54392 0.9356 0.0
C4727 C 0.44636 0.53453 0.92134 0.0
H4728 H 0.4459 0.56418 0.95923 0.0
H4729 H 0.51173 0.47167 0.82241 0.0
H4730 H 0.79312 0.15584 0.09666 0.0
H4731 H 0.79512 0.17858 0.1233 0.0
H4732 H 0.73894 0.1617 0.127 0.0
H4733 H 0.73695 0.13851 0.10066 0.0
H4734 H 0.75664 0.20197 0.1243 0.0
H4735 H 0.75755 0.15101 0.15791 0.0
H4736 H 0.76908 0.12461 0.16458 0.0
H4737 H 0.82197 0.15586 0.17854 0.0
H4738 H 0.81076 0.1824 0.17166 0.0
H4739 H 0.74594 0.24865 0.20982 0.0
H4740 H 0.74514 0.22817 0.18158 0.0
H4741 H 0.80157 0.22949 0.19443 0.0
H4742 H 0.80206 0.24911 0.2232 0.0
H4743 H 0.78442 0.19752 0.18762 0.0
H4744 H 0.78503 0.24876 0.15785 0.0
H4745 H 0.7754 0.27618 0.15159 0.0
H4746 H 0.72314 0.24683 0.12959 0.0
H4747 H 0.73236 0.21923 0.13603 0.0
C4748 C 0.78132 0.15683 0.10343 0.0
C4749 C 0.76494 0.14553 0.09695 0.0
C4750 C 0.78244 0.16979 0.11843 0.0
C4751 C 0.76713 0.17169 0.12673 0.0
C4752 C 0.75079 0.16026 0.12051 0.0
C4753 C 0.74974 0.14701 0.10576 0.0
C4754 C 0.76835 0.18572 0.14201 0.0
C4755 C 0.76248 0.20105 0.13825 0.0
C4756 C 0.77666 0.1845 0.15976 0.0
C4757 C 0.78336 0.16861 0.16406 0.0
C4758 C 0.77166 0.1522 0.16222 0.0
C4759 C 0.77813 0.13723 0.16608 0.0
C4760 C 0.79626 0.13854 0.17192 0.0
C4761 C 0.80794 0.15485 0.17398 0.0
C4762 C 0.80154 0.16986 0.17011 0.0
C4763 C 0.75814 0.24467 0.20633 0.0
C4764 C 0.774 0.25005 0.21842 0.0
C4765 C 0.75773 0.23314 0.19027 0.0
C4766 C 0.77335 0.22753 0.18595 0.0
C4767 C 0.78941 0.23368 0.19766 0.0
C4768 C 0.78969 0.24478 0.21398 0.0
C4769 C 0.77257 0.21397 0.17015 0.0
C4770 C 0.77861 0.19865 0.17372 0.0
C4771 C 0.76476 0.21544 0.15215 0.0
C4772 C 0.75936 0.23192 0.14753 0.0
C4773 C 0.77146 0.24815 0.15173 0.0
C4774 C 0.76608 0.26373 0.14816 0.0
C4775 C 0.74866 0.26325 0.14022 0.0
C4776 C 0.73663 0.24717 0.13574 0.0
C4777 C 0.74193 0.23155 0.13932 0.0
H4778 H 0.7445 0.27534 0.13752 0.0
H4779 H 0.80125 0.12693 0.1749 0.0
H4780 H 0.13678 0.56199 0.30382 0.0
H4781 H 0.12796 0.55802 0.33479 0.0
H4782 H 0.13019 0.50293 0.32491 0.0
H4783 H 0.13992 0.50708 0.2942 0.0
H4784 H 0.09481 0.51692 0.33212 0.0
H4785 H 0.15407 0.5164 0.35673 0.0
H4786 H 0.18673 0.5265 0.36135 0.0
H4787 H 0.18082 0.57644 0.38862 0.0
H4788 H 0.14811 0.56683 0.38377 0.0
H4789 H 0.05563 0.52787 0.41698 0.0
H4790 H 0.07432 0.51564 0.39544 0.0
H4791 H 0.10241 0.56821 0.39155 0.0
H4792 H 0.08359 0.58041 0.4128 0.0
H4793 H 0.12508 0.54417 0.39468 0.0
H4794 H 0.07056 0.55091 0.36043 0.0
H4795 H 0.03817 0.54641 0.35115 0.0
H4796 H 0.03549 0.49087 0.338 0.0
H4797 H 0.06789 0.49502 0.34763 0.0
C4798 C 0.13569 0.54916 0.30847 0.0
C4799 C 0.13881 0.53479 0.29687 0.0
C4800 C 0.13088 0.54693 0.3261 0.0
C4801 C 0.12871 0.53024 0.33202 0.0
C4802 C 0.13215 0.51592 0.32057 0.0
C4803 C 0.13755 0.51828 0.30313 0.0
C4804 C 0.11999 0.52766 0.34876 0.0
C4805 C 0.10142 0.52215 0.34603 0.0
C4806 C 0.12882 0.53506 0.36655 0.0
C4807 C 0.14856 0.54088 0.3698 0.0
C4808 C 0.1597 0.52959 0.36357 0.0
C4809 C 0.17825 0.53523 0.36625 0.0
C4810 C 0.18584 0.55211 0.37526 0.0
C4811 C 0.17491 0.56337 0.38165 0.0
C4812 C 0.15636 0.55781 0.37895 0.0
C4813 C 0.06584 0.53672 0.41146 0.0
C4814 C 0.06816 0.55502 0.41617 0.0
C4815 C 0.07652 0.52976 0.39936 0.0
C4816 C 0.08974 0.54106 0.3921 0.0
C4817 C 0.09234 0.55932 0.39721 0.0
C4818 C 0.08149 0.56628 0.40906 0.0
C4819 C 0.09983 0.53422 0.37778 0.0
C4820 C 0.11854 0.53801 0.38104 0.0
C4821 C 0.09114 0.52587 0.36018 0.0
C4822 C 0.07155 0.52321 0.35523 0.0
C4823 C 0.06301 0.53769 0.35594 0.0
C4824 C 0.04467 0.53521 0.35053 0.0
C4825 C 0.03475 0.51834 0.34412 0.0
C4826 C 0.04317 0.50391 0.3431 0.0
C4827 C 0.06151 0.50631 0.34859 0.0
H4828 H 0.02056 0.51647 0.33983 0.0
H4829 H 0.2002 0.55645 0.37731 0.0
H4830 H 0.80065 0.87581 0.60338 0.0
H4831 H 0.79701 0.86303 0.63228 0.0
H4832 H 0.76608 0.81502 0.60098 0.0
H4833 H 0.76959 0.82776 0.57197 0.0
H4834 H 0.75007 0.82567 0.63099 0.0
H4835 H 0.80848 0.81678 0.6192 0.0
H4836 H 0.83959 0.82556 0.61276 0.0
H4837 H 0.85168 0.8609 0.66397 0.0
H4838 H 0.82056 0.85251 0.67059 0.0
H4839 H 0.77613 0.76928 0.70258 0.0
H4840 H 0.77728 0.78353 0.67443 0.0
H4841 H 0.76418 0.82967 0.7037 0.0
H4842 H 0.7621 0.8152 0.73183 0.0
H4843 H 0.80151 0.82078 0.6755 0.0
H4844 H 0.73983 0.8337 0.68205 0.0
H4845 H 0.70876 0.82338 0.68795 0.0
H4846 H 0.70359 0.77875 0.64608 0.0
H4847 H 0.7348 0.78868 0.64024 0.0
C4848 C 0.79323 0.86246 0.6026 0.0
C4849 C 0.78548 0.85278 0.58533 0.0
C4850 C 0.79115 0.85517 0.61916 0.0
C4851 C 0.78129 0.83804 0.61882 0.0
C4852 C 0.77369 0.82828 0.60159 0.0
C4853 C 0.77583 0.83553 0.58501 0.0
C4854 C 0.77878 0.83038 0.63644 0.0
C4855 C 0.76135 0.82464 0.64068 0.0
C4856 C 0.79344 0.82909 0.64925 0.0
C4857 C 0.81215 0.83416 0.64529 0.0
C4858 C 0.81773 0.82654 0.62901 0.0
C4859 C 0.83538 0.83142 0.62534 0.0
C4860 C 0.84759 0.84382 0.63792 0.0
C4861 C 0.8422 0.85133 0.65422 0.0
C4862 C 0.82456 0.8465 0.65795 0.0
C4863 C 0.77303 0.78229 0.703 0.0
C4864 C 0.76882 0.791 0.7195 0.0
C4865 C 0.77379 0.79044 0.68687 0.0
C4866 C 0.77053 0.80752 0.68689 0.0
C4867 C 0.76628 0.8163 0.70325 0.0
C4868 C 0.76523 0.80804 0.71936 0.0
C4869 C 0.7729 0.81643 0.67009 0.0
C4870 C 0.79029 0.82217 0.6659 0.0
C4871 C 0.75827 0.81779 0.65739 0.0
C4872 C 0.73967 0.81173 0.66099 0.0
C4873 C 0.73214 0.82155 0.67433 0.0
C4874 C 0.7145 0.81581 0.67761 0.0
C4875 C 0.70423 0.80037 0.66747 0.0
C4876 C 0.71158 0.79066 0.65399 0.0
C4877 C 0.72925 0.79632 0.65072 0.0
H4878 H 0.69056 0.79597 0.66999 0.0
H4879 H 0.86125 0.84757 0.63506 0.0
H4880 H 0.74595 0.46053 0.51506 0.0
H4881 H 0.71925 0.47279 0.51161 0.0
H4882 H 0.68995 0.42368 0.48097 0.0
H4883 H 0.71691 0.41103 0.48442 0.0
H4884 H 0.68928 0.46977 0.47476 0.0
H4885 H 0.67456 0.41783 0.50974 0.0
H4886 H 0.68458 0.39875 0.53174 0.0
H4887 H 0.70574 0.44402 0.57231 0.0
H4888 H 0.69623 0.46337 0.55037 0.0
H4889 H 0.60969 0.48965 0.51502 0.0
H4890 H 0.63172 0.47982 0.4964 0.0
H4891 H 0.67316 0.50077 0.54201 0.0
H4892 H 0.65109 0.51046 0.5608 0.0
H4893 H 0.66249 0.46365 0.53358 0.0
H4894 H 0.67935 0.51524 0.50475 0.0
H4895 H 0.67758 0.53903 0.48549 0.0
H4896 H 0.65967 0.50093 0.43689 0.0
H4897 H 0.66099 0.47687 0.45591 0.0
C4898 C 0.73393 0.45239 0.50731 0.0
C4899 C 0.73325 0.4348 0.50024 0.0
C4900 C 0.71884 0.45948 0.50515 0.0
C4901 C 0.70296 0.44904 0.49597 0.0
C4902 C 0.70233 0.43177 0.48797 0.0
C4903 C 0.71753 0.42457 0.49019 0.0
C4904 C 0.68679 0.45556 0.49835 0.0
C4905 C 0.68268 0.46805 0.48715 0.0
C4906 C 0.67931 0.45372 0.5151 0.0
C4907 C 0.68484 0.44202 0.52834 0.0
C4908 C 0.68151 0.4237 0.52328 0.0
C4909 C 0.68708 0.41285 0.53575 0.0
C4910 C 0.69583 0.42017 0.5534 0.0
C4911 C 0.699 0.43836 0.55863 0.0
C4912 C 0.69354 0.44927 0.54618 0.0
C4913 C 0.6236 0.49243 0.52087 0.0
C4914 C 0.62884 0.50019 0.53943 0.0
C4915 C 0.63613 0.48718 0.51011 0.0
C4916 C 0.6539 0.48973 0.5179 0.0
C4917 C 0.6594 0.49892 0.53585 0.0
C4918 C 0.64685 0.50401 0.54668 0.0
C4919 C 0.66506 0.47828 0.51017 0.0
C4920 C 0.66818 0.4649 0.52059 0.0
C4921 C 0.67198 0.47978 0.49303 0.0
C4922 C 0.66984 0.49421 0.48188 0.0
C4923 C 0.67459 0.5119 0.49005 0.0
C4924 C 0.6738 0.52545 0.47914 0.0
C4925 C 0.66839 0.5215 0.46 0.0
C4926 C 0.66374 0.50398 0.45173 0.0
C4927 C 0.66448 0.49038 0.46258 0.0
H4928 H 0.6679 0.53201 0.45156 0.0
H4929 H 0.70011 0.41174 0.56303 0.0
H4930 H 0.20988 0.11722 0.47521 0.0
H4931 H 0.18073 0.09865 0.47736 0.0
H4932 H 0.17396 0.1338 0.52503 0.0
H4933 H 0.20267 0.1528 0.52247 0.0
H4934 H 0.17017 0.09031 0.52376 0.0
H4935 H 0.14976 0.1401 0.49896 0.0
H4936 H 0.14963 0.16115 0.4761 0.0
H4937 H 0.13331 0.11832 0.43166 0.0
H4938 H 0.13371 0.097 0.45427 0.0
H4939 H 0.08307 0.05361 0.54058 0.0
H4940 H 0.11154 0.07251 0.53796 0.0
H4941 H 0.10036 0.0626 0.47792 0.0
H4942 H 0.07079 0.04546 0.48082 0.0
H4943 H 0.1143 0.0936 0.48517 0.0
H4944 H 0.13232 0.04335 0.5085 0.0
H4945 H 0.13323 0.02121 0.53008 0.0
H4946 H 0.15512 0.06217 0.57527 0.0
H4947 H 0.15412 0.08457 0.55402 0.0
C4948 C 0.20204 0.12105 0.48598 0.0
C4949 C 0.20836 0.13647 0.49855 0.0
C4950 C 0.18549 0.11047 0.48722 0.0
C4951 C 0.1753 0.11496 0.50132 0.0
C4952 C 0.18165 0.13025 0.514 0.0
C4953 C 0.19795 0.1411 0.51245 0.0
C4954 C 0.15814 0.10346 0.50302 0.0
C4955 C 0.15786 0.09103 0.51549 0.0
C4956 C 0.14234 0.1042 0.4918 0.0
C4957 C 0.14205 0.11698 0.47825 0.0
C4958 C 0.14639 0.13518 0.48429 0.0
C4959 C 0.14621 0.14715 0.47139 0.0
C4960 C 0.14154 0.14108 0.45243 0.0
C4961 C 0.13699 0.12301 0.44634 0.0
C4962 C 0.13719 0.11098 0.45919 0.0
C4963 C 0.08681 0.0555 0.52686 0.0
C4964 C 0.0749 0.04824 0.51088 0.0
C4965 C 0.10318 0.06613 0.52532 0.0
C4966 C 0.10851 0.0687 0.50771 0.0
C4967 C 0.09667 0.06093 0.49169 0.0
C4968 C 0.07985 0.05105 0.49329 0.0
C4969 C 0.12603 0.08004 0.50599 0.0
C4970 C 0.12649 0.09256 0.49346 0.0
C4971 C 0.14208 0.07913 0.51698 0.0
C4972 C 0.14304 0.06563 0.52968 0.0
C4973 C 0.13727 0.04763 0.52305 0.0
C4974 C 0.1378 0.03504 0.53523 0.0
C4975 C 0.14421 0.04028 0.55404 0.0
C4976 C 0.15016 0.05813 0.5607 0.0
C4977 C 0.14964 0.07077 0.54859 0.0
H4978 H 0.14458 0.03051 0.56345 0.0
H4979 H 0.14139 0.15037 0.44246 0.0
H4980 H 0.13738 0.96738 0.78014 0.0
H4981 H 0.1526 0.94247 0.77935 0.0
H4982 H 0.20293 0.97774 0.77888 0.0
H4983 H 0.18779 0.00269 0.77943 0.0
H4984 H 0.19781 0.95005 0.75208 0.0
H4985 H 0.1923 0.95874 0.81785 0.0
H4986 H 0.17582 0.96169 0.8451 0.0
H4987 H 0.14426 0.90984 0.82798 0.0
H4988 H 0.1604 0.90666 0.80048 0.0
H4989 H 0.25539 0.89237 0.7597 0.0
H4990 H 0.24086 0.91626 0.77095 0.0
H4991 H 0.19121 0.8791 0.76835 0.0
H4992 H 0.20587 0.85514 0.75724 0.0
H4993 H 0.19521 0.90697 0.79751 0.0
H4994 H 0.19858 0.89802 0.73209 0.0
H4995 H 0.21301 0.89421 0.70351 0.0
H4996 H 0.24594 0.94573 0.71824 0.0
H4997 H 0.23194 0.94972 0.74713 0.0
C4998 C 0.15171 0.96985 0.78 0.0
C4999 C 0.16138 0.987 0.77979 0.0
C5000 C 0.1604 0.95561 0.77966 0.0
C5001 C 0.17893 0.95827 0.77923 0.0
C5002 C 0.18863 0.97541 0.77925 0.0
C5003 C 0.17996 0.98965 0.77958 0.0
C5004 C 0.1881 0.94313 0.77758 0.0
C5005 C 0.19751 0.94084 0.76221 0.0
C5006 C 0.18706 0.93068 0.79039 0.0
C5007 C 0.17746 0.93252 0.80702 0.0
C5008 C 0.18176 0.94801 0.81982 0.0
C5009 C 0.1725 0.94972 0.83533 0.0
C5010 C 0.15898 0.93598 0.83825 0.0
C5011 C 0.15473 0.92048 0.82569 0.0
C5012 C 0.16395 0.91871 0.81016 0.0
C5013 C 0.24159 0.88925 0.76233 0.0
C5014 C 0.23173 0.87201 0.75783 0.0
C5015 C 0.23326 0.90288 0.7686 0.0
C5016 C 0.2149 0.89947 0.77017 0.0
C5017 C 0.20539 0.882 0.76723 0.0
C5018 C 0.21375 0.86833 0.76097 0.0
C5019 C 0.20529 0.91426 0.7723 0.0
C5020 C 0.19565 0.91634 0.78754 0.0
C5021 C 0.20585 0.92644 0.75923 0.0
C5022 C 0.21437 0.92407 0.7419 0.0
C5023 C 0.20903 0.90846 0.72935 0.0
C5024 C 0.21711 0.90628 0.71307 0.0
C5025 C 0.23043 0.91969 0.70909 0.0
C5026 C 0.23566 0.93533 0.72137 0.0
C5027 C 0.22766 0.93756 0.7377 0.0
H5028 H 0.23665 0.91799 0.69647 0.0
H5029 H 0.15182 0.93733 0.85026 0.0
H5030 H 0.33748 0.93023 0.01115 0.0
H5031 H 0.36971 0.93798 0.01866 0.0
H5032 H 0.36897 0.99104 0.00746 0.0
H5033 H 0.33659 0.98335 -0.00051 0.0
H5034 H 0.39154 0.97511 0.98829 0.0
H5035 H 0.37602 0.98128 0.05165 0.0
H5036 H 0.36198 0.97046 0.07833 0.0
H5037 H 0.39325 0.93022 0.07847 0.0
H5038 H 0.40731 0.94065 0.05161 0.0
H5039 H 0.46853 0.03076 0.02453 0.0
H5040 H 0.43898 0.01441 0.02834 0.0
H5041 H 0.45733 0.96551 0.01899 0.0
H5042 H 0.48656 0.98172 0.01436 0.0
H5043 H 0.42748 0.97303 0.0482 0.0
H5044 H 0.44267 0.96651 0.98458 0.0
H5045 H 0.45404 0.9751 0.95569 0.0
H5046 H 0.42198 0.01465 0.95503 0.0
H5047 H 0.41074 0.00658 0.98416 0.0
C5048 C 0.34412 0.94363 0.01048 0.0
C5049 C 0.33461 0.95625 0.00468 0.0
C5050 C 0.36249 0.948 0.01489 0.0
C5051 C 0.37148 0.96505 0.01378 0.0
C5052 C 0.36203 0.9778 0.00843 0.0
C5053 C 0.34365 0.97341 0.00384 0.0
C5054 C 0.39091 0.96926 0.01647 0.0
C5055 C 0.39941 0.97475 0.00141 0.0
C5056 C 0.401 0.96781 0.03332 0.0
C5057 C 0.39257 0.96162 0.0495 0.0
C5058 C 0.37979 0.97002 0.05726 0.0
C5059 C 0.37185 0.96398 0.07244 0.0
C5060 C 0.37668 0.94963 0.08006 0.0
C5061 C 0.3895 0.94131 0.07254 0.0
C5062 C 0.39746 0.94729 0.05735 0.0
C5063 C 0.46638 0.01658 0.02409 0.0
C5064 C 0.47967 0.0074 0.01952 0.0
C5065 C 0.44966 0.00732 0.02631 0.0
C5066 C 0.44628 0.98891 0.02385 0.0
C5067 C 0.46001 0.97977 0.02111 0.0
C5068 C 0.4767 0.98905 0.01865 0.0
C5069 C 0.42784 0.97964 0.02029 0.0
C5070 C 0.41956 0.97308 0.03504 0.0
C5071 C 0.41783 0.97996 0.00307 0.0
C5072 C 0.42605 0.98609 0.98671 0.0
C5073 C 0.4384 0.97734 0.97856 0.0
C5074 C 0.44472 0.98203 0.96207 0.0
C5075 C 0.43863 0.99533 0.95351 0.0
C5076 C 0.42663 0.00431 0.96167 0.0
C5077 C 0.42032 0.99972 0.97819 0.0
H5078 H 0.443 0.99852 0.94042 0.0
H5079 H 0.37052 0.94497 0.09181 0.0
H5080 H 0.82224 0.5445 0.79096 0.0
H5081 H 0.81097 0.5711 0.78604 0.0
H5082 H 0.86269 0.60287 0.80751 0.0
H5083 H 0.87385 0.57652 0.8131 0.0
H5084 H 0.83795 0.61994 0.81584 0.0
H5085 H 0.85239 0.58891 0.76097 0.0
H5086 H 0.85191 0.5643 0.73638 0.0
H5087 H 0.79577 0.56074 0.72145 0.0
H5088 H 0.79587 0.58521 0.7461 0.0
H5089 H 0.83292 0.68699 0.75337 0.0
H5090 H 0.84195 0.66409 0.77062 0.0
H5091 H 0.78701 0.63712 0.76566 0.0
H5092 H 0.77792 0.65972 0.74842 0.0
H5093 H 0.81383 0.61858 0.74983 0.0
H5094 H 0.80203 0.65207 0.80662 0.0
H5095 H 0.80596 0.67782 0.83073 0.0
H5096 H 0.86217 0.67851 0.83994 0.0
H5097 H 0.85857 0.65281 0.81583 0.0
C5098 C 0.831 0.55719 0.79526 0.0
C5099 C 0.84899 0.55848 0.80202 0.0
C5100 C 0.82461 0.57233 0.79228 0.0
C5101 C 0.83622 0.58879 0.79583 0.0
C5102 C 0.85361 0.59023 0.8045 0.0
C5103 C 0.85994 0.57514 0.8077 0.0
C5104 C 0.83087 0.60423 0.78892 0.0
C5105 C 0.83276 0.61969 0.80139 0.0
C5106 C 0.82433 0.60387 0.76999 0.0
C5107 C 0.82409 0.58873 0.75558 0.0
C5108 C 0.83989 0.58273 0.75261 0.0
C5109 C 0.8397 0.56885 0.73861 0.0
C5110 C 0.8238 0.56092 0.72741 0.0
C5111 C 0.80806 0.56686 0.73018 0.0
C5112 C 0.80818 0.58073 0.74416 0.0
C5113 C 0.82282 0.67621 0.7561 0.0
C5114 C 0.80478 0.67497 0.7495 0.0
C5115 C 0.82794 0.66336 0.76613 0.0
C5116 C 0.81505 0.64919 0.7695 0.0
C5117 C 0.79703 0.64817 0.76333 0.0
C5118 C 0.7919 0.66101 0.75346 0.0
C5119 C 0.82049 0.63405 0.77686 0.0
C5120 C 0.81884 0.61871 0.76433 0.0
C5121 C 0.82778 0.63473 0.79552 0.0
C5122 C 0.83006 0.6507 0.80926 0.0
C5123 C 0.81526 0.65789 0.8136 0.0
C5124 C 0.81741 0.67241 0.82734 0.0
C5125 C 0.83431 0.67984 0.83681 0.0
C5126 C 0.84909 0.67277 0.83257 0.0
C5127 C 0.847 0.65823 0.81889 0.0
H5128 H 0.83593 0.69104 0.84749 0.0
H5129 H 0.82369 0.5502 0.71655 0.0
H5130 H 0.81468 0.64221 0.98738 0.0
H5131 H 0.84289 0.63162 0.98591 0.0
H5132 H 0.8369 0.61157 0.03831 0.0
H5133 H 0.80895 0.62177 0.03974 0.0
H5134 H 0.87116 0.631 0.03611 0.0
H5135 H 0.82502 0.5845 8e-05 0.0
H5136 H 0.80131 0.57328 0.97388 0.0
H5137 H 0.83875 0.58633 0.93501 0.0
H5138 H 0.86264 0.59789 0.96104 0.0
H5139 H 0.90978 0.5633 0.05697 0.0
H5140 H 0.88614 0.57683 0.04356 0.0
H5141 H 0.91769 0.59195 -6e-05 0.0
H5142 H 0.94149 0.57806 0.01335 0.0
H5143 H 0.8752 0.5797 0.99088 0.0
H5144 H 0.92217 0.62423 0.0277 0.0
H5145 H 0.94515 0.63511 0.0546 0.0
H5146 H 0.90555 0.625 0.09196 0.0
H5147 H 0.8823 0.61423 0.06518 0.0
C5148 C 0.81953 0.63567 -0.00138 0.0
C5149 C 0.80962 0.63273 0.01364 0.0
C5150 C 0.83555 0.62959 0.99772 0.0
C5151 C 0.84189 0.62079 0.01199 0.0
C5152 C 0.83222 0.61834 0.02717 0.0
C5153 C 0.81622 0.62412 0.02793 0.0
C5154 C 0.8584 0.61369 0.01142 0.0
C5155 C 0.87215 0.61997 0.02604 0.0
C5156 C 0.85982 0.59949 0.99809 0.0
C5157 C 0.84555 0.59226 0.98249 0.0
C5158 C 0.82817 0.58511 0.98595 0.0
C5159 C 0.8147 0.57867 0.97114 0.0
C5160 C 0.81851 0.57915 0.95279 0.0
C5161 C 0.83581 0.586 0.94923 0.0
C5162 C 0.84932 0.5925 0.96401 0.0
C5163 C 0.91145 0.56909 0.04425 0.0
C5164 C 0.92739 0.5698 0.03622 0.0
C5165 C 0.89797 0.57676 0.03657 0.0
C5166 C 0.90025 0.58545 0.02085 0.0
C5167 C 0.91568 0.58519 0.01202 0.0
C5168 C 0.92922 0.57733 0.01967 0.0
C5169 C 0.88762 0.59681 0.01584 0.0
C5170 C 0.87456 0.59125 0.00039 0.0
C5171 C 0.88674 0.61175 0.02835 0.0
C5172 C 0.90056 0.61844 0.04448 0.0
C5173 C 0.9184 0.62431 0.04166 0.0
C5174 C 0.93146 0.63047 0.05689 0.0
C5175 C 0.92684 0.63069 0.07501 0.0
C5176 C 0.90911 0.62485 0.07793 0.0
C5177 C 0.89597 0.61881 0.06273 0.0
H5178 H 0.93697 0.63542 0.0868 0.0
H5179 H 0.80807 0.57417 0.94134 0.0
H5180 H 0.1462 0.1065 0.80293 0.0
H5181 H 0.16723 0.13433 0.8034 0.0
H5182 H 0.19839 0.10783 0.76752 0.0
H5183 H 0.1782 0.07981 0.76845 0.0
H5184 H 0.22001 0.13096 0.78923 0.0
H5185 H 0.16486 0.13346 0.75213 0.0
H5186 H 0.1324 0.13205 0.74632 0.0
H5187 H 0.13625 0.17423 0.79073 0.0
H5188 H 0.16869 0.17576 0.79693 0.0
H5189 H 0.26277 0.20897 0.75478 0.0
H5190 H 0.24508 0.18007 0.75794 0.0
H5191 H 0.21796 0.20447 0.79971 0.0
H5192 H 0.23527 0.2332 0.79648 0.0
H5193 H 0.1947 0.18256 0.77459 0.0
H5194 H 0.24953 0.17965 0.81186 0.0
H5195 H 0.282 0.18128 0.81765 0.0
H5196 H 0.27873 0.14061 0.77179 0.0
H5197 H 0.24619 0.13867 0.76582 0.0
C5198 C 0.15771 0.10666 0.7954 0.0
C5199 C 0.16062 0.09111 0.78562 0.0
C5200 C 0.16963 0.12258 0.79548 0.0
C5201 C 0.18414 0.12339 0.78497 0.0
C5202 C 0.1873 0.10767 0.77568 0.0
C5203 C 0.17576 0.09165 0.77619 0.0
C5204 C 0.19576 0.14056 0.78319 0.0
C5205 C 0.21441 0.14214 0.78578 0.0
C5206 C 0.18862 0.15538 0.779 0.0
C5207 C 0.16916 0.15463 0.77507 0.0
C5208 C 0.15876 0.14239 0.76069 0.0
C5209 C 0.14037 0.14157 0.75734 0.0
C5210 C 0.13226 0.15302 0.76818 0.0
C5211 C 0.14254 0.16536 0.78235 0.0
C5212 C 0.16092 0.16623 0.78578 0.0
C5213 C 0.25318 0.20811 0.76477 0.0
C5214 C 0.25042 0.22337 0.77535 0.0
C5215 C 0.2431 0.1916 0.76659 0.0
C5216 C 0.23024 0.1901 0.77914 0.0
C5217 C 0.22773 0.20531 0.78989 0.0
C5218 C 0.23769 0.22174 0.78803 0.0
C5219 C 0.21881 0.17287 0.78067 0.0
C5220 C 0.20023 0.17131 0.77798 0.0
C5221 C 0.22599 0.15809 0.78464 0.0
C5222 C 0.24548 0.15911 0.78832 0.0
C5223 C 0.25576 0.17111 0.80297 0.0
C5224 C 0.27416 0.17207 0.8063 0.0
C5225 C 0.28245 0.16114 0.79502 0.0
C5226 C 0.2723 0.1491 0.7805 0.0
C5227 C 0.25387 0.148 0.77719 0.0
H5228 H 0.29671 0.16195 0.79758 0.0
H5229 H 0.11803 0.15235 0.76557 0.0
H5230 H 0.38109 0.94446 0.28507 0.0
H5231 H 0.36255 0.9151 0.28306 0.0
H5232 H 0.31521 0.93647 0.27202 0.0
H5233 H 0.33361 0.96598 0.27466 0.0
H5234 H 0.31163 0.911 0.29604 0.0
H5235 H 0.33457 0.91897 0.23597 0.0
H5236 H 0.35979 0.92644 0.21779 0.0
H5237 H 0.38308 0.88488 0.23737 0.0
H5238 H 0.35811 0.8773 0.2558 0.0
H5239 H 0.25865 0.82668 0.26949 0.0
H5240 H 0.27144 0.85719 0.26589 0.0
H5241 H 0.32397 0.84449 0.26826 0.0
H5242 H 0.3113 0.81424 0.27118 0.0
H5243 H 0.32211 0.86688 0.2458 0.0
H5244 H 0.30711 0.86032 0.30756 0.0
H5245 H 0.2878 0.85283 0.33186 0.0
H5246 H 0.25602 0.88986 0.31616 0.0
H5247 H 0.27501 0.8974 0.29158 0.0
C5248 C 0.36672 0.94286 0.28229 0.0
C5249 C 0.3587 0.95728 0.27965 0.0
C5250 C 0.35621 0.92619 0.2812 0.0
C5251 C 0.33766 0.92377 0.27696 0.0
C5252 C 0.32956 0.93823 0.27517 0.0
C5253 C 0.34004 0.95497 0.2766 0.0
C5254 C 0.32679 0.90602 0.27332 0.0
C5255 C 0.31361 0.90138 0.28486 0.0
C5256 C 0.32998 0.89353 0.25911 0.0
C5257 C 0.34448 0.89758 0.24724 0.0
C5258 C 0.34506 0.91141 0.23635 0.0
C5259 C 0.35933 0.91568 0.22604 0.0
C5260 C 0.37303 0.90614 0.22642 0.0
C5261 C 0.37245 0.89224 0.23705 0.0
C5262 C 0.35822 0.88793 0.24739 0.0
C5263 C 0.27285 0.83045 0.26876 0.0
C5264 C 0.28408 0.81835 0.27066 0.0
C5265 C 0.2801 0.84776 0.26676 0.0
C5266 C 0.29863 0.85303 0.26715 0.0
C5267 C 0.30963 0.84062 0.26786 0.0
C5268 C 0.30238 0.82336 0.26955 0.0
C5269 C 0.30704 0.87165 0.26871 0.0
C5270 C 0.31975 0.87655 0.25672 0.0
C5271 C 0.30404 0.88411 0.28314 0.0
C5272 C 0.29233 0.87926 0.29758 0.0
C5273 C 0.29588 0.86672 0.30915 0.0
C5274 C 0.28502 0.86249 0.323 0.0
C5275 C 0.27069 0.87086 0.32553 0.0
C5276 C 0.26712 0.88339 0.31416 0.0
C5277 C 0.27791 0.88763 0.30027 0.0
H5278 H 0.26242 0.86775 0.33639 0.0
H5279 H 0.38409 0.90951 0.21849 0.0
H5280 H 0.56162 0.35713 0.60671 0.0
H5281 H 0.5588 0.38507 0.5959 0.0
H5282 H 0.53052 0.35732 0.54383 0.0
H5283 H 0.53432 0.3292 0.55433 0.0
H5284 H 0.5492 0.38528 0.53585 0.0
H5285 H 0.51001 0.37781 0.58322 0.0
H5286 H 0.50199 0.37247 0.61439 0.0
H5287 H 0.54048 0.41843 0.63921 0.0
H5288 H 0.54887 0.42393 0.6082 0.0
H5289 H 0.51755 0.46055 0.50889 0.0
H5290 H 0.52007 0.43199 0.51827 0.0
H5291 H 0.54964 0.45777 0.57051 0.0
H5292 H 0.54599 0.48634 0.56165 0.0
H5293 H 0.52938 0.4304 0.5779 0.0
H5294 H 0.56852 0.43774 0.53023 0.0
H5295 H 0.57627 0.44296 0.49894 0.0
H5296 H 0.53733 0.39719 0.47449 0.0
H5297 H 0.5292 0.39182 0.50562 0.0
C5298 C 0.55481 0.35689 0.59291 0.0
C5299 C 0.5481 0.3407 0.58153 0.0
C5300 C 0.55302 0.37304 0.58674 0.0
C5301 C 0.54388 0.3737 0.56913 0.0
C5302 C 0.53751 0.35751 0.55753 0.0
C5303 C 0.53966 0.3413 0.56358 0.0
C5304 C 0.54106 0.39114 0.56295 0.0
C5305 C 0.5446 0.39497 0.54503 0.0
C5306 C 0.53539 0.40432 0.57479 0.0
C5307 C 0.53015 0.4012 0.5934 0.0
C5308 C 0.5168 0.38674 0.59533 0.0
C5309 C 0.5122 0.38368 0.61297 0.0
C5310 C 0.52075 0.39508 0.62877 0.0
C5311 C 0.53388 0.4096 0.62696 0.0
C5312 C 0.53855 0.41271 0.60935 0.0
C5313 C 0.52431 0.46024 0.52251 0.0
C5314 C 0.53124 0.47604 0.53451 0.0
C5315 C 0.52607 0.44372 0.52781 0.0
C5316 C 0.53537 0.44233 0.54511 0.0
C5317 C 0.54237 0.45813 0.55709 0.0
C5318 C 0.54033 0.47463 0.55192 0.0
C5319 C 0.53765 0.42459 0.55086 0.0
C5320 C 0.53397 0.4207 0.56871 0.0
C5321 C 0.54313 0.41137 0.53893 0.0
C5322 C 0.54815 0.41447 0.52024 0.0
C5323 C 0.56155 0.42884 0.51817 0.0
C5324 C 0.56602 0.43182 0.50047 0.0
C5325 C 0.55727 0.42044 0.48474 0.0
C5326 C 0.54408 0.40601 0.48668 0.0
C5327 C 0.53956 0.40298 0.50435 0.0
H5328 H 0.56074 0.42277 0.47104 0.0
H5329 H 0.51718 0.39268 0.64241 0.0
H5330 H 0.45094 0.74167 0.36804 0.0
H5331 H 0.42136 0.74061 0.35165 0.0
H5332 H 0.40852 0.77276 0.39862 0.0
H5333 H 0.43806 0.77313 0.41539 0.0
H5334 H 0.3787 0.75103 0.38257 0.0
H5335 H 0.42432 0.79067 0.36026 0.0
H5336 H 0.45281 0.80048 0.348 0.0
H5337 H 0.43551 0.76267 0.29905 0.0
H5338 H 0.407 0.75244 0.31116 0.0
H5339 H 0.31304 0.7849 0.3283 0.0
H5340 H 0.34013 0.7824 0.34768 0.0
H5341 H 0.35057 0.74383 0.30513 0.0
H5342 H 0.32317 0.74601 0.28595 0.0
H5343 H 0.38101 0.7694 0.31955 0.0
H5344 H 0.33472 0.72988 0.34409 0.0
H5345 H 0.30475 0.72536 0.3545 0.0
H5346 H 0.32286 0.76804 0.39881 0.0
H5347 H 0.35293 0.77285 0.38859 0.0
C5348 C 0.44157 0.748 0.37512 0.0
C5349 C 0.44673 0.75726 0.39311 0.0
C5350 C 0.4247 0.7476 0.36563 0.0
C5351 C 0.4127 0.757 0.37359 0.0
C5352 C 0.41744 0.76543 0.39205 0.0
C5353 C 0.43431 0.76557 0.40171 0.0
C5354 C 0.396 0.75904 0.36209 0.0
C5355 C 0.37932 0.75517 0.36888 0.0
C5356 C 0.39649 0.76452 0.34411 0.0
C5357 C 0.4136 0.77066 0.33672 0.0
C5358 C 0.42664 0.78435 0.34695 0.0
C5359 C 0.44279 0.79 0.34002 0.0
C5360 C 0.44599 0.78216 0.32278 0.0
C5361 C 0.43302 0.7687 0.31241 0.0
C5362 C 0.41686 0.76298 0.3193 0.0
C5363 C 0.3208 0.77552 0.32332 0.0
C5364 C 0.31571 0.76536 0.30577 0.0
C5365 C 0.33645 0.77426 0.33431 0.0
C5366 C 0.34739 0.76277 0.32801 0.0
C5367 C 0.34242 0.75278 0.31035 0.0
C5368 C 0.32675 0.75403 0.29939 0.0
C5369 C 0.36389 0.76106 0.33989 0.0
C5370 C 0.38048 0.76509 0.33319 0.0
C5371 C 0.36333 0.75606 0.35799 0.0
C5372 C 0.34605 0.75174 0.36558 0.0
C5373 C 0.33234 0.73819 0.35616 0.0
C5374 C 0.3153 0.73567 0.36192 0.0
C5375 C 0.31185 0.74655 0.37716 0.0
C5376 C 0.32553 0.75972 0.38691 0.0
C5377 C 0.3426 0.76228 0.38122 0.0
H5378 H 0.29865 0.74463 0.38157 0.0
H5379 H 0.45849 0.78656 0.31744 0.0
H5380 H 0.07336 0.72056 0.09471 0.0
H5381 H 0.06858 0.68984 0.08072 0.0
H5382 H 0.0172 0.69379 0.05397 0.0
H5383 H 0.02216 0.72496 0.06783 0.0
H5384 H 0.01642 0.66407 0.07393 0.0
H5385 H 0.04974 0.68918 0.02751 0.0
H5386 H 0.07517 0.70812 0.01683 0.0
H5387 H 0.11124 0.67928 0.04231 0.0
H5388 H 0.08604 0.66029 0.05334 0.0
H5389 H 0.00033 0.57497 0.03097 0.0
H5390 H 0.00346 0.60682 0.03798 0.0
H5391 H 0.06048 0.6122 0.04995 0.0
H5392 H 0.05735 0.58046 0.04189 0.0
H5393 H 0.05709 0.63822 0.03518 0.0
H5394 H 0.02763 0.61596 0.08481 0.0
H5395 H 0.00524 0.60026 0.10239 0.0
H5396 H 0.96511 0.62455 0.07693 0.0
H5397 H 0.98715 0.64026 0.05896 0.0
C5398 C 0.0612 0.71507 0.08546 0.0
C5399 C 0.04827 0.72543 0.08223 0.0
C5400 C 0.05845 0.69739 0.07747 0.0
C5401 C 0.04253 0.68927 0.06615 0.0
C5402 C 0.02966 0.69964 0.06257 0.0
C5403 C 0.03257 0.71756 0.07034 0.0
C5404 C 0.03918 0.66982 0.05911 0.0
C5405 C 0.02506 0.65843 0.06508 0.0
C5406 C 0.05088 0.66221 0.04828 0.0
C5407 C 0.06601 0.67338 0.04134 0.0
C5408 C 0.06311 0.68693 0.03091 0.0
C5409 C 0.07748 0.69766 0.02478 0.0
C5410 C 0.09481 0.69492 0.02891 0.0
C5411 C 0.0978 0.68138 0.03912 0.0
C5412 C 0.08348 0.67061 0.04528 0.0
C5413 C 0.01357 0.58291 0.03512 0.0
C5414 C 0.0286 0.5749 0.03587 0.0
C5415 C 0.01536 0.60129 0.03933 0.0
C5416 C 0.03222 0.61236 0.04503 0.0
C5417 C 0.04725 0.60432 0.04563 0.0
C5418 C 0.04547 0.58598 0.04102 0.0
C5419 C 0.03427 0.63216 0.05013 0.0
C5420 C 0.04821 0.64369 0.04384 0.0
C5421 C 0.02268 0.63989 0.06116 0.0
C5422 C 0.00903 0.6292 0.07048 0.0
C5423 C 0.01396 0.61774 0.08272 0.0
C5424 C 0.00135 0.60892 0.09281 0.0
C5425 C 0.98382 0.61158 0.09087 0.0
C5426 C 0.97872 0.62264 0.07845 0.0
C5427 C 0.99124 0.63148 0.0683 0.0
H5428 H 0.97418 0.6052 0.09909 0.0
H5429 H 0.10592 0.70327 0.02418 0.0
H5430 H 0.05157 0.2876 0.90155 0.0
H5431 H 0.07706 0.29036 0.88336 0.0
H5432 H 0.07681 0.235 0.88299 0.0
H5433 H 0.05105 0.23221 0.90095 0.0
H5434 H 0.1118 0.25719 0.89109 0.0
H5435 H 0.06035 0.24706 0.8453 0.0
H5436 H 0.03168 0.25257 0.83138 0.0
H5437 H 0.0569 0.30522 0.82531 0.0
H5438 H 0.08567 0.30013 0.83948 0.0
H5439 H 0.17779 0.26275 0.82735 0.0
H5440 H 0.15115 0.25264 0.84227 0.0
H5441 H 0.13297 0.30061 0.8339 0.0
H5442 H 0.15835 0.30986 0.81758 0.0
H5443 H 0.106 0.27756 0.82907 0.0
H5444 H 0.15615 0.28996 0.8779 0.0
H5445 H 0.18476 0.28621 0.89386 0.0
H5446 H 0.16266 0.23183 0.89612 0.0
H5447 H 0.13399 0.2352 0.87994 0.0
C5448 C 0.05701 0.27606 0.89759 0.0
C5449 C 0.04939 0.25969 0.90257 0.0
C5450 C 0.07154 0.27762 0.88719 0.0
C5451 C 0.07885 0.26287 0.8817 0.0
C5452 C 0.07144 0.24656 0.88704 0.0
C5453 C 0.05671 0.24495 0.89722 0.0
C5454 C 0.09396 0.26452 0.8701 0.0
C5455 C 0.11052 0.26142 0.8774 0.0
C5456 C 0.09239 0.27026 0.85236 0.0
C5457 C 0.07514 0.27325 0.84359 0.0
C5458 C 0.05976 0.25986 0.84112 0.0
C5459 C 0.04349 0.2629 0.83317 0.0
C5460 C 0.04246 0.27925 0.8275 0.0
C5461 C 0.05771 0.29257 0.82972 0.0
C5462 C 0.07401 0.28961 0.8377 0.0
C5463 C 0.16794 0.27099 0.82836 0.0
C5464 C 0.1706 0.28736 0.8215 0.0
C5465 C 0.15278 0.26531 0.83723 0.0
C5466 C 0.14008 0.27603 0.83984 0.0
C5467 C 0.14246 0.29203 0.83235 0.0
C5468 C 0.15729 0.29748 0.82318 0.0
C5469 C 0.12432 0.27099 0.8503 0.0
C5470 C 0.10746 0.2733 0.84272 0.0
C5471 C 0.12574 0.26482 0.86794 0.0
C5472 C 0.14302 0.26278 0.87749 0.0
C5473 C 0.15745 0.27717 0.88166 0.0
C5474 C 0.17367 0.27512 0.89077 0.0
C5475 C 0.17555 0.25878 0.89594 0.0
C5476 C 0.16121 0.24447 0.89205 0.0
C5477 C 0.14498 0.24644 0.88291 0.0
H5478 H 0.1881 0.25723 0.90301 0.0
H5479 H 0.02985 0.28158 0.82136 0.0
H5480 H 0.55869 0.75522 0.9102 0.0
H5481 H 0.55668 0.72836 0.92528 0.0
H5482 H 0.50734 0.70549 0.89054 0.0
H5483 H 0.50959 0.732 0.87495 0.0
H5484 H 0.50825 0.70552 0.93237 0.0
H5485 H 0.53744 0.68889 0.87948 0.0
H5486 H 0.56084 0.69256 0.85854 0.0
H5487 H 0.6007 0.69233 0.90408 0.0
H5488 H 0.57754 0.68897 0.9254 0.0
H5489 H 0.49004 0.62085 0.9565 0.0
H5490 H 0.4962 0.64379 0.93627 0.0
H5491 H 0.5505 0.65849 0.96276 0.0
H5492 H 0.54437 0.63515 0.98277 0.0
H5493 H 0.54846 0.66285 0.92514 0.0
H5494 H 0.52046 0.68007 0.97811 0.0
H5495 H 0.49774 0.67652 -0.00017 0.0
H5496 H 0.45676 0.67684 0.95541 0.0
H5497 H 0.47923 0.68008 0.93333 0.0
C5498 C 0.54743 0.74445 0.90575 0.0
C5499 C 0.53426 0.74577 0.89141 0.0
C5500 C 0.54635 0.72908 0.91432 0.0
C5501 C 0.53188 0.71489 0.90901 0.0
C5502 C 0.51864 0.71625 0.89483 0.0
C5503 C 0.51995 0.73141 0.88593 0.0
C5504 C 0.53017 0.6989 0.91872 0.0
C5505 C 0.51689 0.69608 0.93059 0.0
C5506 C 0.54181 0.68686 0.91685 0.0
C5507 C 0.55577 0.68892 0.9041 0.0
C5508 C 0.55122 0.68984 0.88509 0.0
C5509 C 0.56443 0.69181 0.87314 0.0
C5510 C 0.58226 0.69274 0.87999 0.0
C5511 C 0.58689 0.69165 0.89881 0.0
C5512 C 0.57372 0.68971 0.91083 0.0
C5513 C 0.50343 0.62862 0.95758 0.0
C5514 C 0.51675 0.62619 0.9711 0.0
C5515 C 0.50693 0.64182 0.9461 0.0
C5516 C 0.52375 0.65315 0.94817 0.0
C5517 C 0.53743 0.64997 0.96086 0.0
C5518 C 0.53394 0.63663 0.97227 0.0
C5519 C 0.52629 0.6693 0.93859 0.0
C5520 C 0.53979 0.67226 0.92689 0.0
C5521 C 0.51499 0.68166 0.94074 0.0
C5522 C 0.5015 0.68017 0.95404 0.0
C5523 C 0.50659 0.6793 0.97295 0.0
C5524 C 0.49376 0.67734 0.98533 0.0
C5525 C 0.47581 0.67643 0.979 0.0
C5526 C 0.47067 0.67754 0.96029 0.0
C5527 C 0.48345 0.67944 0.94783 0.0
H5528 H 0.46589 0.6749 0.9886 0.0
H5529 H 0.59247 0.69425 0.87071 0.0
H5530 H 0.06571 0.75271 0.73032 0.0
H5531 H 0.09717 0.75467 0.74213 0.0
H5532 H 0.11222 0.76367 0.68789 0.0
H5533 H 0.08094 0.76094 0.67598 0.0
H5534 H 0.13036 0.74259 0.69933 0.0
H5535 H 0.119 0.79697 0.72944 0.0
H5536 H 0.1039 0.81581 0.74932 0.0
H5537 H 0.11726 0.78984 0.79619 0.0
H5538 H 0.13225 0.77069 0.77652 0.0
H5539 H 0.22372 0.77471 0.72303 0.0
H5540 H 0.19174 0.77244 0.71415 0.0
H5541 H 0.18076 0.75538 0.7669 0.0
H5542 H 0.21275 0.7579 0.77601 0.0
H5543 H 0.16059 0.77935 0.75773 0.0
H5544 H 0.17304 0.7259 0.72748 0.0
H5545 H 0.18904 0.70805 0.70756 0.0
H5546 H 0.17432 0.73354 0.6608 0.0
H5547 H 0.15832 0.75165 0.68045 0.0
C5548 C 0.07575 0.7552 0.72096 0.0
C5549 C 0.07067 0.75664 0.70216 0.0
C5550 C 0.09385 0.75643 0.72776 0.0
C5551 C 0.10741 0.75953 0.71605 0.0
C5552 C 0.10225 0.76119 0.69734 0.0
C5553 C 0.08423 0.75969 0.69051 0.0
C5554 C 0.12687 0.76054 0.72283 0.0
C5555 C 0.13691 0.75087 0.712 0.0
C5556 C 0.13567 0.77086 0.73966 0.0
C5557 C 0.12655 0.78226 0.75145 0.0
C5558 C 0.11858 0.79518 0.74394 0.0
C5559 C 0.11007 0.80593 0.75518 0.0
C5560 C 0.10957 0.80398 0.77399 0.0
C5561 C 0.11762 0.79131 0.78161 0.0
C5562 C 0.12613 0.78051 0.77043 0.0
C5563 C 0.21455 0.77046 0.73278 0.0
C5564 C 0.22095 0.7663 0.7502 0.0
C5565 C 0.19617 0.76911 0.72764 0.0
C5566 C 0.18364 0.76355 0.73973 0.0
C5567 C 0.19003 0.75966 0.75724 0.0
C5568 C 0.2084 0.76097 0.76238 0.0
C5569 C 0.16394 0.76171 0.73402 0.0
C5570 C 0.15392 0.77112 0.74508 0.0
C5571 C 0.15515 0.75126 0.71736 0.0
C5572 C 0.16459 0.74023 0.70547 0.0
C5573 C 0.1733 0.72778 0.71297 0.0
C5574 C 0.18236 0.71761 0.70174 0.0
C5575 C 0.18276 0.71971 0.68296 0.0
C5576 C 0.17402 0.73194 0.67536 0.0
C5577 C 0.16492 0.74214 0.68652 0.0
H5578 H 0.18981 0.71183 0.6743 0.0
H5579 H 0.10298 0.81233 0.78267 0.0
H5580 H 0.01631 0.35817 0.37346 0.0
H5581 H 0.01406 0.38402 0.39464 0.0
H5582 H 0.05909 0.37641 0.43093 0.0
H5583 H 0.06015 0.34946 0.41045 0.0
H5584 H 0.0392 0.38793 0.45187 0.0
H5585 H 0.05938 0.40962 0.39627 0.0
H5586 H 0.05803 0.41198 0.36265 0.0
H5587 H 0.0072 0.4273 0.36336 0.0
H5588 H 0.00817 0.42487 0.39693 0.0
H5589 H 0.05626 0.47513 0.50106 0.0
H5590 H 0.05804 0.44802 0.48133 0.0
H5591 H 0.01 0.45167 0.44721 0.0
H5592 H 0.00864 0.47902 0.46663 0.0
H5593 H 0.03196 0.44247 0.42559 0.0
H5594 H 0.01258 0.4216 0.48176 0.0
H5595 H 0.01511 0.42082 0.51569 0.0
H5596 H 0.06568 0.4051 0.51416 0.0
H5597 H 0.06357 0.40602 0.48025 0.0
C5598 C 0.02568 0.362 0.38602 0.0
C5599 C 0.0385 0.35187 0.39021 0.0
C5600 C 0.02454 0.37698 0.39808 0.0
C5601 C 0.03682 0.38284 0.41425 0.0
C5602 C 0.04947 0.37245 0.41859 0.0
C5603 C 0.05015 0.35703 0.40684 0.0
C5604 C 0.03645 0.39966 0.42654 0.0
C5605 C 0.03787 0.39988 0.44603 0.0
C5606 C 0.03434 0.41541 0.41924 0.0
C5607 C 0.0338 0.41693 0.39907 0.0
C5608 C 0.04788 0.41341 0.38923 0.0
C5609 C 0.04719 0.41477 0.37019 0.0
C5610 C 0.03252 0.41975 0.36087 0.0
C5611 C 0.01854 0.42343 0.37059 0.0
C5612 C 0.01917 0.42209 0.38962 0.0
C5613 C 0.04614 0.47011 0.4893 0.0
C5614 C 0.03246 0.47929 0.4852 0.0
C5615 C 0.04706 0.45452 0.47808 0.0
C5616 C 0.034 0.44746 0.4628 0.0
C5617 C 0.02032 0.45673 0.45878 0.0
C5618 C 0.01958 0.47246 0.46982 0.0
C5619 C 0.03467 0.43067 0.45078 0.0
C5620 C 0.0333 0.43049 0.43137 0.0
C5621 C 0.03695 0.41504 0.45818 0.0
C5622 C 0.03796 0.41399 0.47848 0.0
C5623 C 0.02426 0.41802 0.48867 0.0
C5624 C 0.02563 0.41757 0.5079 0.0
C5625 C 0.04056 0.41295 0.51708 0.0
C5626 C 0.05413 0.40869 0.50703 0.0
C5627 C 0.05284 0.40915 0.4878 0.0
H5628 H 0.04162 0.41265 0.53197 0.0
H5629 H 0.03201 0.42079 0.34613 0.0
H5630 H 0.45069 0.25489 0.18171 0.0
H5631 H 0.42144 0.25865 0.19034 0.0
H5632 H 0.43808 0.25192 0.24698 0.0
H5633 H 0.46678 0.24706 0.23808 0.0
H5634 H 0.40659 0.23612 0.24044 0.0
H5635 H 0.43328 0.29438 0.22895 0.0
H5636 H 0.44763 0.31653 0.21057 0.0
H5637 H 0.40223 0.30298 0.16864 0.0
H5638 H 0.3877 0.2806 0.18667 0.0
H5639 H 0.33737 0.27108 0.28202 0.0
H5640 H 0.3666 0.26858 0.27224 0.0
H5641 H 0.3439 0.26093 0.21472 0.0
H5642 H 0.31467 0.26331 0.22439 0.0
H5643 H 0.37765 0.28412 0.22129 0.0
H5644 H 0.35081 0.22672 0.23353 0.0
H5645 H 0.33618 0.20515 0.25231 0.0
H5646 H 0.38216 0.21781 0.29352 0.0
H5647 H 0.39693 0.23977 0.27516 0.0
C5648 C 0.44814 0.25429 0.19602 0.0
C5649 C 0.46124 0.25069 0.20915 0.0
C5650 C 0.43134 0.25658 0.20104 0.0
C5651 C 0.42731 0.25596 0.21953 0.0
C5652 C 0.44052 0.25248 0.23263 0.0
C5653 C 0.45709 0.24976 0.22751 0.0
C5654 C 0.40939 0.25852 0.22528 0.0
C5655 C 0.40054 0.24685 0.23644 0.0
C5656 C 0.40084 0.27217 0.21984 0.0
C5657 C 0.40948 0.28572 0.20908 0.0
C5658 C 0.4264 0.29607 0.21576 0.0
C5659 C 0.43456 0.30867 0.20541 0.0
C5660 C 0.42587 0.31113 0.18842 0.0
C5661 C 0.40896 0.30104 0.18178 0.0
C5662 C 0.40075 0.28841 0.19207 0.0
C5663 C 0.33859 0.26895 0.26728 0.0
C5664 C 0.32353 0.2673 0.25404 0.0
C5665 C 0.35536 0.26747 0.26168 0.0
C5666 C 0.35758 0.26445 0.24268 0.0
C5667 C 0.34266 0.26326 0.22944 0.0
C5668 C 0.32586 0.26451 0.23503 0.0
C5669 C 0.37526 0.26195 0.2366 0.0
C5670 C 0.38392 0.27353 0.22535 0.0
C5671 C 0.3837 0.24832 0.24204 0.0
C5672 C 0.37491 0.23503 0.25305 0.0
C5673 C 0.35775 0.22503 0.24667 0.0
C5674 C 0.34943 0.21271 0.25723 0.0
C5675 C 0.35823 0.21011 0.2741 0.0
C5676 C 0.37536 0.21984 0.28045 0.0
C5677 C 0.38371 0.23224 0.26998 0.0
H5678 H 0.35178 0.20054 0.28224 0.0
H5679 H 0.43222 0.32088 0.18042 0.0
H5680 H 0.60951 0.5101 0.33366 0.0
H5681 H 0.6003 0.50558 0.36448 0.0
H5682 H 0.5828 0.55511 0.36848 0.0
H5683 H 0.59144 0.55946 0.33757 0.0
H5684 H 0.60454 0.54846 0.40185 0.0
H5685 H 0.55261 0.52287 0.35768 0.0
H5686 H 0.53631 0.50316 0.33008 0.0
H5687 H 0.54752 0.45826 0.35464 0.0
H5688 H 0.56419 0.47776 0.38228 0.0
H5689 H 0.53736 0.5437 0.46416 0.0
H5690 H 0.55179 0.54461 0.43561 0.0
H5691 H 0.57434 0.49982 0.44739 0.0
H5692 H 0.56045 0.4993 0.47654 0.0
H5693 H 0.55252 0.50163 0.40715 0.0
H5694 H 0.60301 0.5269 0.45226 0.0
H5695 H 0.6198 0.54659 0.47961 0.0
H5696 H 0.61185 0.59165 0.45343 0.0
H5697 H 0.59464 0.57219 0.42605 0.0
C5698 C 0.60378 0.52005 0.34117 0.0
C5699 C 0.60111 0.53509 0.33317 0.0
C5700 C 0.59852 0.51744 0.35873 0.0
C5701 C 0.59088 0.53002 0.36872 0.0
C5702 C 0.5887 0.54527 0.361 0.0
C5703 C 0.59356 0.54769 0.34331 0.0
C5704 C 0.58454 0.52708 0.38696 0.0
C5705 C 0.59315 0.53824 0.40301 0.0
C5706 C 0.56991 0.51353 0.3885 0.0
C5707 C 0.55988 0.50179 0.37192 0.0
C5708 C 0.55179 0.50881 0.35711 0.0
C5709 C 0.54244 0.49767 0.34147 0.0
C5710 C 0.54094 0.47947 0.34057 0.0
C5711 C 0.54874 0.47236 0.35534 0.0
C5712 C 0.55814 0.48346 0.37099 0.0
C5713 C 0.54542 0.53406 0.46067 0.0
C5714 C 0.54785 0.52144 0.47251 0.0
C5715 C 0.55367 0.53463 0.44442 0.0
C5716 C 0.56413 0.52232 0.43946 0.0
C5717 C 0.56635 0.50947 0.45107 0.0
C5718 C 0.5585 0.50922 0.46768 0.0
C5719 C 0.57252 0.52302 0.422 0.0
C5720 C 0.56414 0.5116 0.40604 0.0
C5721 C 0.58742 0.53628 0.42056 0.0
C5722 C 0.59733 0.54807 0.43719 0.0
C5723 C 0.60458 0.541 0.45244 0.0
C5724 C 0.61426 0.55212 0.46791 0.0
C5725 C 0.61693 0.57036 0.46823 0.0
C5726 C 0.60981 0.57752 0.45314 0.0
C5727 C 0.60007 0.56644 0.43764 0.0
H5728 H 0.62445 0.57896 0.48022 0.0
H5729 H 0.53368 0.47086 0.32847 0.0
H5730 H 0.30519 0.91175 0.06514 0.0
H5731 H 0.30464 0.89846 0.09383 0.0
H5732 H 0.27544 0.84929 0.0632 0.0
H5733 H 0.27562 0.86261 0.03432 0.0
H5734 H 0.26023 0.85969 0.09429 0.0
H5735 H 0.31817 0.8528 0.07835 0.0
H5736 H 0.34832 0.86256 0.06965 0.0
H5737 H 0.36211 0.89901 0.12001 0.0
H5738 H 0.33194 0.88957 0.12892 0.0
H5739 H 0.28723 0.79564 0.1471 0.0
H5740 H 0.27721 0.81496 0.12579 0.0
H5741 H 0.29704 0.85993 0.16758 0.0
H5742 H 0.30702 0.84073 0.18896 0.0
H5743 H 0.31508 0.85645 0.13459 0.0
H5744 H 0.25798 0.85739 0.15298 0.0
H5745 H 0.22783 0.84646 0.16098 0.0
H5746 H 0.21217 0.81918 0.10558 0.0
H5747 H 0.24233 0.82966 0.0973 0.0
C5748 C 0.29882 0.89804 0.06446 0.0
C5749 C 0.29032 0.88819 0.04759 0.0
C5750 C 0.29851 0.89051 0.08084 0.0
C5751 C 0.28989 0.87301 0.0805 0.0
C5752 C 0.28199 0.86291 0.06361 0.0
C5753 C 0.28226 0.87045 0.04717 0.0
C5754 C 0.28899 0.8653 0.0979 0.0
C5755 C 0.27216 0.85874 0.10309 0.0
C5756 C 0.30464 0.86487 0.10953 0.0
C5757 C 0.32274 0.87065 0.10418 0.0
C5758 C 0.32758 0.86301 0.08748 0.0
C5759 C 0.34468 0.86846 0.08254 0.0
C5760 C 0.3571 0.88145 0.09424 0.0
C5761 C 0.35246 0.88898 0.11094 0.0
C5762 C 0.33537 0.88358 0.11596 0.0
C5763 C 0.28909 0.8096 0.1518 0.0
C5764 C 0.29823 0.81684 0.16937 0.0
C5765 C 0.28306 0.82053 0.13984 0.0
C5766 C 0.28632 0.83875 0.1453 0.0
C5767 C 0.29422 0.84584 0.16335 0.0
C5768 C 0.30008 0.83491 0.17538 0.0
C5769 C 0.2863 0.85024 0.13079 0.0
C5770 C 0.30306 0.85761 0.12605 0.0
C5771 C 0.27058 0.85108 0.11949 0.0
C5772 C 0.25255 0.8442 0.12457 0.0
C5773 C 0.24821 0.84885 0.14256 0.0
C5774 C 0.23108 0.84279 0.14713 0.0
C5775 C 0.2181 0.8321 0.13381 0.0
C5776 C 0.22224 0.82744 0.11589 0.0
C5777 C 0.23936 0.83345 0.11125 0.0
H5778 H 0.20483 0.82746 0.13736 0.0
H5779 H 0.37034 0.88565 0.09038 0.0
H5780 H 0.94551 0.51316 0.83196 0.0
H5781 H 0.95619 0.51493 0.8648 0.0
H5782 H 0.90269 0.51348 0.87895 0.0
H5783 H 0.89178 0.51189 0.84593 0.0
H5784 H 0.92934 0.54069 0.89984 0.0
H5785 H 0.91805 0.47833 0.8847 0.0
H5786 H 0.91783 0.45062 0.86462 0.0
H5787 H 0.97506 0.46259 0.86909 0.0
H5788 H 0.97564 0.49043 0.88904 0.0
H5789 H 0.97424 0.53798 0.99022 0.0
H5790 H 0.95352 0.53487 0.96227 0.0
H5791 H 0.99485 0.52495 0.92867 0.0
H5792 H 0.01534 0.52664 0.95667 0.0
H5793 H 0.96627 0.49924 0.92133 0.0
H5794 H 0.97713 0.5636 0.9291 0.0
H5795 H 0.97886 0.59217 0.94826 0.0
H5796 H 0.92391 0.57701 0.95696 0.0
H5797 H 0.9219 0.54831 0.93788 0.0
C5798 C 0.93599 0.51311 0.84202 0.0
C5799 C 0.91788 0.51243 0.8365 0.0
C5800 C 0.94207 0.51404 0.8607 0.0
C5801 C 0.93008 0.51404 0.87403 0.0
C5802 C 0.91199 0.51339 0.86867 0.0
C5803 C 0.90587 0.51255 0.84992 0.0
C5804 C 0.93707 0.51568 0.8936 0.0
C5805 C 0.93704 0.53145 0.90485 0.0
C5806 C 0.94709 0.50357 0.89981 0.0
C5807 C 0.94687 0.48647 0.88841 0.0
C5808 C 0.93059 0.47505 0.8814 0.0
C5809 C 0.9304 0.45932 0.87004 0.0
C5810 C 0.94642 0.45484 0.8656 0.0
C5811 C 0.96267 0.46604 0.87259 0.0
C5812 C 0.96293 0.48177 0.88399 0.0
C5813 C 0.97907 0.53535 0.97689 0.0
C5814 C 0.99631 0.53194 0.97565 0.0
C5815 C 0.9672 0.53375 0.96094 0.0
C5816 C 0.97267 0.52948 0.94355 0.0
C5817 C 0.99042 0.52801 0.94213 0.0
C5818 C 0.00218 0.52915 0.95813 0.0
C5819 C 0.95956 0.52483 0.92697 0.0
C5820 C 0.95824 0.50831 0.91655 0.0
C5821 C 0.94844 0.53631 0.92148 0.0
C5822 C 0.94938 0.55384 0.93215 0.0
C5823 C 0.96542 0.5664 0.93508 0.0
C5824 C 0.96645 0.5826 0.94593 0.0
C5825 C 0.95151 0.5864 0.95383 0.0
C5826 C 0.93546 0.57406 0.9508 0.0
C5827 C 0.93435 0.55785 0.93992 0.0
H5828 H 0.95236 0.59891 0.9623 0.0
H5829 H 0.94625 0.4427 0.85673 0.0
H5830 H 0.29165 0.20275 0.56445 0.0
H5831 H 0.29502 0.21947 0.59584 0.0
H5832 H 0.24259 0.19256 0.6041 0.0
H5833 H 0.23946 0.17549 0.57323 0.0
H5834 H 0.25067 0.23101 0.61436 0.0
H5835 H 0.27279 0.17838 0.62314 0.0
H5836 H 0.29199 0.15672 0.61788 0.0
H5837 H 0.33858 0.19685 0.63699 0.0
H5838 H 0.31963 0.21886 0.642 0.0
H5839 H 0.24478 0.24054 0.71135 0.0
H5840 H 0.24511 0.22885 0.67891 0.0
H5841 H 0.30015 0.25484 0.68167 0.0
H5842 H 0.29969 0.2672 0.71403 0.0
H5843 H 0.29329 0.21953 0.66505 0.0
H5844 H 0.27049 0.27165 0.65924 0.0
H5845 H 0.25108 0.29332 0.66313 0.0
H5846 H 0.20552 0.25412 0.63827 0.0
H5847 H 0.22458 0.23209 0.63459 0.0
C5848 C 0.28083 0.20057 0.57295 0.0
C5849 C 0.26532 0.18784 0.56649 0.0
C5850 C 0.28279 0.21003 0.59085 0.0
C5851 C 0.26906 0.20717 0.60227 0.0
C5852 C 0.25333 0.19493 0.59551 0.0
C5853 C 0.25158 0.18519 0.57791 0.0
C5854 C 0.27105 0.21657 0.62146 0.0
C5855 C 0.25991 0.22846 0.62549 0.0
C5856 C 0.28338 0.21346 0.63583 0.0
C5857 C 0.29481 0.20033 0.63262 0.0
C5858 C 0.28714 0.18265 0.62594 0.0
C5859 C 0.29797 0.17029 0.62307 0.0
C5860 C 0.3165 0.17542 0.62701 0.0
C5861 C 0.32423 0.19291 0.63387 0.0
C5862 C 0.31345 0.20534 0.63672 0.0
C5863 C 0.25683 0.2441 0.70501 0.0
C5864 C 0.272 0.2552 0.71522 0.0
C5865 C 0.25705 0.23729 0.68646 0.0
C5866 C 0.27259 0.24117 0.67778 0.0
C5867 C 0.28798 0.25179 0.68806 0.0
C5868 C 0.28766 0.25885 0.70656 0.0
C5869 C 0.27271 0.23387 0.65805 0.0
C5870 C 0.28421 0.22231 0.65391 0.0
C5871 C 0.26063 0.23723 0.64357 0.0
C5872 C 0.24897 0.25018 0.64673 0.0
C5873 C 0.2563 0.26757 0.65485 0.0
C5874 C 0.24537 0.27994 0.65694 0.0
C5875 C 0.22712 0.27512 0.6508 0.0
C5876 C 0.21969 0.25785 0.6429 0.0
C5877 C 0.23054 0.24541 0.64084 0.0
H5878 H 0.21871 0.28477 0.65214 0.0
H5879 H 0.32487 0.16582 0.62481 0.0
H5880 H 0.62957 0.52869 0.20932 0.0
H5881 H 0.61517 0.52898 0.17802 0.0
H5882 H 0.56407 0.52471 0.19888 0.0
H5883 H 0.57843 0.52409 0.23037 0.0
H5884 H 0.56166 0.50367 0.16593 0.0
H5885 H 0.58685 0.56435 0.18927 0.0
H5886 H 0.61071 0.5894 0.2033 0.0
H5887 H 0.64116 0.5801 0.15805 0.0
H5888 H 0.6176 0.55484 0.14387 0.0
H5889 H 0.52046 0.53051 0.0828 0.0
H5890 H 0.53171 0.53063 0.11566 0.0
H5891 H 0.58356 0.52638 0.0999 0.0
H5892 H 0.5724 0.52578 0.06722 0.0
H5893 H 0.5837 0.55278 0.13097 0.0
H5894 H 0.56146 0.49183 0.10886 0.0
H5895 H 0.53941 0.46553 0.09428 0.0
H5896 H 0.50522 0.47416 0.13626 0.0
H5897 H 0.52698 0.5007 0.15094 0.0
C5898 C 0.61525 0.52775 0.20729 0.0
C5899 C 0.60516 0.52647 0.22238 0.0
C5900 C 0.60704 0.528 0.18936 0.0
C5901 C 0.58857 0.52721 0.18611 0.0
C5902 C 0.57835 0.52544 0.20105 0.0
C5903 C 0.58658 0.5251 0.21904 0.0
C5904 C 0.58007 0.52836 0.16712 0.0
C5905 C 0.56623 0.51459 0.15844 0.0
C5906 C 0.58635 0.54237 0.15709 0.0
C5907 C 0.6005 0.55762 0.16558 0.0
C5908 C 0.59868 0.56757 0.18237 0.0
C5909 C 0.61215 0.58182 0.19035 0.0
C5910 C 0.62746 0.58632 0.18159 0.0
C5911 C 0.62931 0.5766 0.16482 0.0
C5912 C 0.61589 0.56233 0.1568 0.0
C5913 C 0.53426 0.52966 0.0864 0.0
C5914 C 0.5455 0.52799 0.07244 0.0
C5915 C 0.54064 0.52967 0.10512 0.0
C5916 C 0.55843 0.52839 0.11016 0.0
C5917 C 0.56978 0.52731 0.0963 0.0
C5918 C 0.56335 0.52692 0.07762 0.0
C5919 C 0.56538 0.52812 0.12986 0.0
C5920 C 0.57894 0.54202 0.13861 0.0
C5921 C 0.55901 0.51415 0.13983 0.0
C5922 C 0.54572 0.49843 0.13083 0.0
C5923 C 0.54913 0.48828 0.11483 0.0
C5924 C 0.53672 0.47329 0.10659 0.0
C5925 C 0.52089 0.46823 0.11429 0.0
C5926 C 0.51746 0.47814 0.13028 0.0
C5927 C 0.52983 0.49315 0.13857 0.0
H5928 H 0.51131 0.45659 0.10793 0.0
H5929 H 0.63787 0.59736 0.18778 0.0
H5930 H 0.30223 0.88816 0.95147 0.0
H5931 H 0.30181 0.86711 0.92403 0.0
H5932 H 0.26374 0.89094 0.89349 0.0
H5933 H 0.26405 0.91221 0.92112 0.0
H5934 H 0.25335 0.85403 0.89487 0.0
H5935 H 0.30371 0.89599 0.88155 0.0
H5936 H 0.3332 0.91574 0.88921 0.0
H5937 H 0.35717 0.87184 0.90023 0.0
H5938 H 0.32778 0.85186 0.8929 0.0
H5939 H 0.25206 0.81073 0.80551 0.0
H5940 H 0.25423 0.83124 0.83372 0.0
H5941 H 0.29535 0.8079 0.85983 0.0
H5942 H 0.29362 0.78751 0.83133 0.0
H5943 H 0.30471 0.84361 0.86171 0.0
H5944 H 0.25636 0.80138 0.87483 0.0
H5945 H 0.2277 0.78032 0.8672 0.0
H5946 H 0.20068 0.82269 0.85825 0.0
H5947 H 0.22927 0.84401 0.86545 0.0
C5948 C 0.29397 0.88908 0.93882 0.0
C5949 C 0.28302 0.90158 0.9383 0.0
C5950 C 0.29384 0.87716 0.9232 0.0
C5951 C 0.28276 0.87764 0.90695 0.0
C5952 C 0.27237 0.89057 0.90607 0.0
C5953 C 0.27262 0.90266 0.92171 0.0
C5954 C 0.28094 0.86356 0.89154 0.0
C5955 C 0.26445 0.85186 0.88735 0.0
C5956 C 0.29578 0.86046 0.88262 0.0
C5957 C 0.31351 0.87245 0.88683 0.0
C5958 C 0.31525 0.89057 0.88575 0.0
C5959 C 0.33195 0.9018 0.89 0.0
C5960 C 0.34704 0.89506 0.89524 0.0
C5961 C 0.34547 0.87705 0.89618 0.0
C5962 C 0.32879 0.86577 0.89195 0.0
C5963 C 0.26139 0.80981 0.81734 0.0
C5964 C 0.27272 0.79766 0.81636 0.0
C5965 C 0.26255 0.82143 0.83341 0.0
C5966 C 0.27486 0.82086 0.8487 0.0
C5967 C 0.28577 0.80836 0.84804 0.0
C5968 C 0.28466 0.79672 0.83189 0.0
C5969 C 0.27706 0.83425 0.86482 0.0
C5970 C 0.29362 0.84575 0.86925 0.0
C5971 C 0.26238 0.83697 0.8742 0.0
C5972 C 0.245 0.82431 0.87061 0.0
C5973 C 0.24433 0.80622 0.87117 0.0
C5974 C 0.22809 0.79422 0.86691 0.0
C5975 C 0.21238 0.80016 0.86223 0.0
C5976 C 0.21287 0.81812 0.86189 0.0
C5977 C 0.22909 0.83017 0.86608 0.0
H5978 H 0.19982 0.79085 0.8589 0.0
H5979 H 0.35996 0.90378 0.89855 0.0
H5980 H 0.87569 0.52307 0.71653 0.0
H5981 H 0.89221 0.52128 0.68932 0.0
H5982 H 0.93989 0.51996 0.72545 0.0
H5983 H 0.92408 0.52294 0.75227 0.0
H5984 H 0.94881 0.54045 0.70298 0.0
H5985 H 0.91452 0.48269 0.69817 0.0
H5986 H 0.88846 0.45837 0.6956 0.0
H5987 H 0.86756 0.47325 0.64417 0.0
H5988 H 0.89343 0.49781 0.64656 0.0
H5989 H 0.98758 0.48276 0.63957 0.0
H5990 H 0.97558 0.49823 0.66518 0.0
H5991 H 0.94793 0.52445 0.62593 0.0
H5992 H 0.96015 0.50928 0.60035 0.0
H5993 H 0.92837 0.49575 0.64746 0.0
H5994 H 0.96956 0.55665 0.65962 0.0
H5995 H 0.99908 0.57649 0.66828 0.0
H5996 H 0.01182 0.54559 0.71096 0.0
H5997 H 0.98218 0.52606 0.70313 0.0
C5998 C 0.88973 0.52256 0.71853 0.0
C5999 C 0.89862 0.52323 0.73643 0.0
C6000 C 0.89909 0.52141 0.70306 0.0
C6001 C 0.91726 0.52049 0.70543 0.0
C6002 C 0.92596 0.52092 0.72332 0.0
C6003 C 0.91683 0.52253 0.73866 0.0
C6004 C 0.92757 0.51931 0.68951 0.0
C6005 C 0.94427 0.53066 0.69083 0.0
C6006 C 0.92176 0.50647 0.67376 0.0
C6007 C 0.90573 0.49231 0.67273 0.0
C6008 C 0.90422 0.48096 0.68647 0.0
C6009 C 0.88953 0.46708 0.68501 0.0
C6010 C 0.87631 0.46433 0.66979 0.0
C6011 C 0.87776 0.47545 0.656 0.0
C6012 C 0.89243 0.48936 0.65741 0.0
C6013 C 0.97923 0.49212 0.63656 0.0
C6014 C 0.97436 0.49464 0.61815 0.0
C6015 C 0.97272 0.50116 0.65113 0.0
C6016 C 0.96113 0.51256 0.64731 0.0
C6017 C 0.95717 0.51593 0.62904 0.0
C6018 C 0.96391 0.50711 0.61451 0.0
C6019 C 0.9495 0.5167 0.66118 0.0
C6020 C 0.93255 0.50583 0.65943 0.0
C6021 C 0.95558 0.52905 0.67714 0.0
C6022 C 0.97386 0.53977 0.68057 0.0
C6023 C 0.9788 0.55396 0.67065 0.0
C6024 C 0.99547 0.5652 0.67547 0.0
C6025 C 0.00741 0.56211 0.6899 0.0
C6026 C 0.00264 0.54789 0.69969 0.0
C6027 C 0.98588 0.53681 0.69515 0.0
H6028 H 0.02028 0.57084 0.69359 0.0
H6029 H 0.86498 0.45353 0.66864 0.0
H6030 H 0.24516 0.20405 0.45399 0.0
H6031 H 0.247 0.21587 0.42416 0.0
H6032 H 0.29529 0.19637 0.41765 0.0
H6033 H 0.29308 0.18382 0.44702 0.0
H6034 H 0.29299 0.23616 0.41308 0.0
H6035 H 0.2695 0.17486 0.39201 0.0
H6036 H 0.24907 0.14614 0.38978 0.0
H6037 H 0.20493 0.16927 0.37168 0.0
H6038 H 0.22506 0.19825 0.37421 0.0
H6039 H 0.29816 0.24082 0.31343 0.0
H6040 H 0.29779 0.22852 0.34315 0.0
H6041 H 0.25045 0.24859 0.35319 0.0
H6042 H 0.25124 0.26156 0.32397 0.0
H6043 H 0.25314 0.20801 0.35565 0.0
H6044 H 0.27713 0.2697 0.3777 0.0
H6045 H 0.29815 0.29792 0.37886 0.0
H6046 H 0.34201 0.27337 0.39432 0.0
H6047 H 0.32125 0.24487 0.39281 0.0
C6048 C 0.2562 0.20238 0.44622 0.0
C6049 C 0.26901 0.19309 0.45279 0.0
C6050 C 0.25717 0.20902 0.42918 0.0
C6051 C 0.27122 0.20687 0.41872 0.0
C6052 C 0.28431 0.19805 0.42551 0.0
C6053 C 0.28304 0.19093 0.44225 0.0
C6054 C 0.27235 0.21411 0.40084 0.0
C6055 C 0.28442 0.22991 0.40047 0.0
C6056 C 0.261 0.20603 0.38449 0.0
C6057 C 0.24874 0.18881 0.38371 0.0
C6058 C 0.25538 0.17392 0.38795 0.0
C6059 C 0.24387 0.15756 0.38652 0.0
C6060 C 0.22569 0.1559 0.3807 0.0
C6061 C 0.21899 0.17059 0.37628 0.0
C6062 C 0.23045 0.18699 0.37774 0.0
C6063 C 0.28772 0.24258 0.32204 0.0
C6064 C 0.27474 0.25209 0.31656 0.0
C6065 C 0.28756 0.23564 0.33896 0.0
C6066 C 0.27414 0.23777 0.35031 0.0
C6067 C 0.26095 0.24695 0.34463 0.0
C6068 C 0.26144 0.25434 0.32803 0.0
C6069 C 0.27364 0.2301 0.36797 0.0
C6070 C 0.2617 0.21422 0.36828 0.0
C6071 C 0.28514 0.23806 0.38423 0.0
C6072 C 0.29767 0.25508 0.38479 0.0
C6073 C 0.29128 0.27024 0.38101 0.0
C6074 C 0.30314 0.28631 0.38183 0.0
C6075 C 0.32141 0.28743 0.38661 0.0
C6076 C 0.32786 0.27247 0.39057 0.0
C6077 C 0.31605 0.25635 0.38971 0.0
H6078 H 0.33057 0.2999 0.38728 0.0
H6079 H 0.21681 0.14321 0.37953 0.0
H6080 H 0.30977 0.59422 0.51779 0.0
H6081 H 0.33904 0.58653 0.51711 0.0
H6082 H 0.34245 0.58287 0.57604 0.0
H6083 H 0.31258 0.59021 0.5767 0.0
H6084 H 0.37502 0.60369 0.54915 0.0
H6085 H 0.33728 0.54926 0.5648 0.0
H6086 H 0.30684 0.53116 0.56004 0.0
H6087 H 0.30894 0.52378 0.501 0.0
H6088 H 0.33919 0.54226 0.50539 0.0
H6089 H 0.44649 0.56197 0.52363 0.0
H6090 H 0.42311 0.56946 0.5421 0.0
H6091 H 0.38398 0.55249 0.49366 0.0
H6092 H 0.40729 0.54534 0.47521 0.0
H6093 H 0.37162 0.54097 0.52488 0.0
H6094 H 0.39982 0.5923 0.503 0.0
H6095 H 0.42292 0.61687 0.49727 0.0
H6096 H 0.43288 0.63539 0.55585 0.0
H6097 H 0.41028 0.61047 0.56203 0.0
C6098 C 0.31681 0.59184 0.5306 0.0
C6099 C 0.30908 0.59249 0.54724 0.0
C6100 C 0.33349 0.58764 0.53023 0.0
C6101 C 0.34269 0.58426 0.54654 0.0
C6102 C 0.33534 0.5855 0.5634 0.0
C6103 C 0.31836 0.58942 0.56371 0.0
C6104 C 0.35904 0.57757 0.54484 0.0
C6105 C 0.37477 0.58987 0.54478 0.0
C6106 C 0.35786 0.55973 0.53787 0.0
C6107 C 0.34053 0.54708 0.53544 0.0
C6108 C 0.33127 0.54371 0.55081 0.0
C6109 C 0.31402 0.53346 0.54817 0.0
C6110 C 0.30597 0.5263 0.53023 0.0
C6111 C 0.31521 0.52929 0.5149 0.0
C6112 C 0.33242 0.53964 0.51746 0.0
C6113 C 0.43285 0.55982 0.51707 0.0
C6114 C 0.42853 0.55332 0.49809 0.0
C6115 C 0.41959 0.56402 0.52757 0.0
C6116 C 0.40192 0.56145 0.51918 0.0
C6117 C 0.39756 0.55443 0.50035 0.0
C6118 C 0.41083 0.55053 0.48981 0.0
C6119 C 0.38802 0.56708 0.52954 0.0
C6120 C 0.37259 0.55459 0.53069 0.0
C6121 C 0.38912 0.58497 0.53654 0.0
C6122 C 0.40369 0.5992 0.53305 0.0
C6123 C 0.40727 0.6013 0.51474 0.0
C6124 C 0.4202 0.61536 0.51138 0.0
C6125 C 0.42939 0.62766 0.52619 0.0
C6126 C 0.42579 0.62581 0.5444 0.0
C6127 C 0.41301 0.61164 0.54785 0.0
H6128 H 0.43925 0.63866 0.52354 0.0
H6129 H 0.29258 0.51845 0.5282 0.0
H6130 H 0.83428 0.94431 0.51945 0.0
H6131 H 0.86574 0.95717 0.52106 0.0
H6132 H 0.87955 0.91197 0.54356 0.0
H6133 H 0.84762 0.89875 0.54203 0.0
H6134 H 0.90031 0.94602 0.56122 0.0
H6135 H 0.88393 0.91315 0.50051 0.0
H6136 H 0.86484 0.9029 0.47061 0.0
H6137 H 0.87236 0.95585 0.45741 0.0
H6138 H 0.89129 0.96647 0.48734 0.0
H6139 H 0.98981 0.97973 0.54484 0.0
H6140 H 0.96125 0.96054 0.54637 0.0
H6141 H 0.93439 0.99325 0.51417 0.0
H6142 H 0.96303 0.01195 0.51163 0.0
H6143 H 0.92187 0.96037 0.50157 0.0
H6144 H 0.93477 0.9938 0.56324 0.0
H6145 H 0.95334 0.00495 0.59329 0.0
H6146 H 0.95204 0.95198 0.60486 0.0
H6147 H 0.93364 0.94052 0.57475 0.0
C6148 C 0.8439 0.93701 0.52482 0.0
C6149 C 0.83839 0.92035 0.5304 0.0
C6150 C 0.86192 0.94444 0.52572 0.0
C6151 C 0.87493 0.93539 0.53213 0.0
C6152 C 0.86963 0.91909 0.53847 0.0
C6153 C 0.85144 0.91157 0.53757 0.0
C6154 C 0.89393 0.94308 0.53144 0.0
C6155 C 0.90522 0.94884 0.54818 0.0
C6156 C 0.90014 0.94699 0.51441 0.0
C6157 C 0.88897 0.94061 0.49624 0.0
C6158 C 0.88143 0.92263 0.49128 0.0
C6159 C 0.87065 0.91675 0.47432 0.0
C6160 C 0.86738 0.92872 0.46213 0.0
C6161 C 0.87492 0.94659 0.46686 0.0
C6162 C 0.8857 0.95254 0.48381 0.0
C6163 C 0.97783 0.98294 0.53815 0.0
C6164 C 0.97873 0.99754 0.52827 0.0
C6165 C 0.96148 0.97196 0.53913 0.0
C6166 C 0.94562 0.97557 0.53062 0.0
C6167 C 0.94645 0.99022 0.5209 0.0
C6168 C 0.96284 1.00104 0.51963 0.0
C6169 C 0.92814 0.96394 0.53142 0.0
C6170 C 0.91714 0.95736 0.51464 0.0
C6171 C 0.92221 0.95941 0.54842 0.0
C6172 C 0.93297 0.9663 0.56668 0.0
C6173 C 0.93851 0.98453 0.57215 0.0
C6174 C 0.94901 0.99091 0.5892 0.0
C6175 C 0.9539 0.97918 0.60096 0.0
C6176 C 0.94825 0.96105 0.59573 0.0
C6177 C 0.93778 0.95461 0.57869 0.0
H6178 H 0.96204 0.98414 0.61414 0.0
H6179 H 0.85901 0.92414 0.44901 0.0
H6180 H 0.86289 0.04404 0.25199 0.0
H6181 H 0.84848 0.06952 0.25237 0.0
H6182 H 0.90001 0.10431 0.26485 0.0
H6183 H 0.91444 0.07895 0.26491 0.0
H6184 H 0.87781 0.11483 0.28655 0.0
H6185 H 0.87538 0.09768 0.22088 0.0
H6186 H 0.86833 0.0774 0.19146 0.0
H6187 H 0.81257 0.06904 0.19811 0.0
H6188 H 0.81931 0.08909 0.22771 0.0
H6189 H 0.84741 0.19265 0.27915 0.0
H6190 H 0.8622 0.16869 0.26857 0.0
H6191 H 0.81166 0.13217 0.26118 0.0
H6192 H 0.79689 0.15623 0.27155 0.0
H6193 H 0.83394 0.12322 0.2353 0.0
H6194 H 0.8367 0.13856 0.30177 0.0
H6195 H 0.84354 0.15873 0.33127 0.0
H6196 H 0.8989 0.17013 0.32304 0.0
H6197 H 0.89233 0.15022 0.29332 0.0
C6198 C 0.87114 0.05712 0.25482 0.0
C6199 C 0.88981 0.05947 0.25848 0.0
C6200 C 0.8629 0.07169 0.25488 0.0
C6201 C 0.87317 0.08887 0.25838 0.0
C6202 C 0.8918 0.0912 0.26206 0.0
C6203 C 0.90003 0.07667 0.26211 0.0
C6204 C 0.86451 0.10443 0.25905 0.0
C6205 C 0.86848 0.11679 0.27518 0.0
C6206 C 0.85197 0.10682 0.24441 0.0
C6207 C 0.84788 0.09476 0.22661 0.0
C6208 C 0.86163 0.09141 0.21615 0.0
C6209 C 0.85769 0.07998 0.19942 0.0
C6210 C 0.84002 0.0719 0.19294 0.0
C6211 C 0.82625 0.07528 0.20315 0.0
C6212 C 0.83013 0.0867 0.2199 0.0
C6213 C 0.83941 0.17965 0.27443 0.0
C6214 C 0.82105 0.17621 0.27591 0.0
C6215 C 0.84785 0.16595 0.26858 0.0
C6216 C 0.83807 0.1486 0.26442 0.0
C6217 C 0.81945 0.14545 0.26432 0.0
C6218 C 0.81101 0.15918 0.27015 0.0
C6219 C 0.84742 0.13357 0.2627 0.0
C6220 C 0.84347 0.12129 0.24652 0.0
C6221 C 0.86 0.13119 0.27728 0.0
C6222 C 0.86399 0.14307 0.29522 0.0
C6223 C 0.8503 0.14548 0.30618 0.0
C6224 C 0.85413 0.15684 0.32295 0.0
C6225 C 0.87163 0.16575 0.329 0.0
C6226 C 0.88534 0.16326 0.31832 0.0
C6227 C 0.88158 0.15193 0.30151 0.0
H6228 H 0.87457 0.17454 0.34199 0.0
H6229 H 0.837 0.06306 0.17999 0.0
H6230 H 0.70167 0.12132 0.00387 0.0
H6231 H 0.67048 0.10703 0.00462 0.0
H6232 H 0.6863 0.08419 0.05347 0.0
H6233 H 0.71731 0.09822 0.05254 0.0
H6234 H 0.66849 0.05995 0.02481 0.0
H6235 H 0.6617 0.11423 0.0582 0.0
H6236 H 0.66456 0.14644 0.06397 0.0
H6237 H 0.63115 0.14512 0.01279 0.0
H6238 H 0.62826 0.11291 0.00661 0.0
H6239 H 0.58196 0.02 0.03863 0.0
H6240 H 0.61223 0.0362 0.04099 0.0
H6241 H 0.59673 0.06591 0.99763 0.0
H6242 H 0.56586 0.0513 0.99723 0.0
H6243 H 0.61483 0.08682 0.0252 0.0
H6244 H 0.62279 0.03182 0.99149 0.0
H6245 H 0.61931 0.99949 0.98724 0.0
H6246 H 0.65049 0.00209 0.04009 0.0
H6247 H 0.65401 0.03441 0.04474 0.0
C6248 C 0.69829 0.11339 0.01481 0.0
C6249 C 0.71154 0.11026 0.02781 0.0
C6250 C 0.68064 0.10541 0.01534 0.0
C6251 C 0.67637 0.09463 0.02909 0.0
C6252 C 0.68957 0.09241 0.04273 0.0
C6253 C 0.70716 0.10021 0.04207 0.0
C6254 C 0.65851 0.08407 0.02796 0.0
C6255 C 0.65671 0.06575 0.02511 0.0
C6256 C 0.6434 0.09186 0.02807 0.0
C6257 C 0.64488 0.11119 0.03188 0.0
C6258 C 0.65505 0.12083 0.04812 0.0
C6259 C 0.65666 0.13908 0.05148 0.0
C6260 C 0.64807 0.14783 0.03874 0.0
C6261 C 0.6378 0.13833 0.02265 0.0
C6262 C 0.63614 0.12007 0.01923 0.0
C6263 C 0.58495 0.02984 0.02946 0.0
C6264 C 0.57152 0.03445 0.01764 0.0
C6265 C 0.60235 0.03896 0.03068 0.0
C6266 C 0.60671 0.052 0.01923 0.0
C6267 C 0.59354 0.05583 0.00656 0.0
C6268 C 0.57596 0.04733 0.00608 0.0
C6269 C 0.62472 0.06262 0.02154 0.0
C6270 C 0.62657 0.08097 0.02476 0.0
C6271 C 0.63991 0.05485 0.02177 0.0
C6272 C 0.63863 0.03552 0.01846 0.0
C6273 C 0.62893 0.02549 0.00218 0.0
C6274 C 0.62693 0.00717 -0.00028 0.0
C6275 C 0.63467 0.99874 0.01339 0.0
C6276 C 0.64453 0.00863 0.0295 0.0
C6277 C 0.64658 0.02695 0.03203 0.0
H6278 H 0.63302 0.98455 0.0115 0.0
H6279 H 0.64936 0.16196 0.04134 0.0
H6280 H 0.17153 0.46904 0.25126 0.0
H6281 H 0.18356 0.44253 0.25184 0.0
H6282 H 0.23709 0.47305 0.25589 0.0
H6283 H 0.22503 0.50006 0.25483 0.0
H6284 H 0.22916 0.44005 0.23064 0.0
H6285 H 0.22448 0.46254 0.29394 0.0
H6286 H 0.20873 0.47513 0.31845 0.0
H6287 H 0.16739 0.42866 0.30876 0.0
H6288 H 0.18276 0.4159 0.28398 0.0
H6289 H 0.27008 0.37889 0.27742 0.0
H6290 H 0.25995 0.40129 0.26077 0.0
H6291 H 0.20521 0.37614 0.2624 0.0
H6292 H 0.21528 0.35363 0.27916 0.0
H6293 H 0.21501 0.40745 0.28378 0.0
H6294 H 0.21916 0.38439 0.2211 0.0
H6295 H 0.23087 0.37354 0.19261 0.0
H6296 H 0.27123 0.42064 0.199 0.0
H6297 H 0.25994 0.43168 0.22767 0.0
C6298 C 0.18588 0.47022 0.25232 0.0
C6299 C 0.19744 0.48658 0.25336 0.0
C6300 C 0.19268 0.45505 0.2525 0.0
C6301 C 0.21112 0.45606 0.25413 0.0
C6302 C 0.22279 0.47225 0.25466 0.0
C6303 C 0.21594 0.48755 0.25425 0.0
C6304 C 0.21788 0.44012 0.25653 0.0
C6305 C 0.22652 0.43295 0.24239 0.0
C6306 C 0.21368 0.43092 0.27162 0.0
C6307 C 0.20476 0.43829 0.28705 0.0
C6308 C 0.21201 0.45502 0.297 0.0
C6309 C 0.20314 0.4622 0.31093 0.0
C6310 C 0.18706 0.45271 0.31515 0.0
C6311 C 0.17986 0.43599 0.30549 0.0
C6312 C 0.18866 0.42877 0.29152 0.0
C6313 C 0.25589 0.37775 0.27362 0.0
C6314 C 0.24339 0.36488 0.28 0.0
C6315 C 0.25014 0.39045 0.2639 0.0
C6316 C 0.23188 0.39035 0.2605 0.0
C6317 C 0.21939 0.37634 0.26496 0.0
C6318 C 0.22512 0.36371 0.27477 0.0
C6319 C 0.2262 0.40688 0.25762 0.0
C6320 C 0.21786 0.41437 0.27194 0.0
C6321 C 0.23075 0.41628 0.24269 0.0
C6322 C 0.23877 0.40879 0.22666 0.0
C6323 C 0.23074 0.39229 0.21666 0.0
C6324 C 0.23721 0.38618 0.20036 0.0
C6325 C 0.25166 0.39648 0.19391 0.0
C6326 C 0.25995 0.41273 0.20394 0.0
C6327 C 0.25354 0.4189 0.22023 0.0
H6328 H 0.25654 0.39181 0.1812 0.0
H6329 H 0.18019 0.4583 0.32591 0.0
H6330 H 0.25067 0.42775 0.04655 0.0
H6331 H 0.22545 0.44259 0.04448 0.0
H6332 H 0.191 0.39415 0.01831 0.0
H6333 H 0.21638 0.37912 0.02021 0.0
H6334 H 0.18739 0.42239 -0.00026 0.0
H6335 H 0.18795 0.40954 0.06284 0.0
H6336 H 0.202 0.40909 0.09466 0.0
H6337 H 0.21591 0.46554 0.10281 0.0
H6338 H 0.20215 0.46633 0.07093 0.0
H6339 H 0.10857 0.45691 0.00215 0.0
H6340 H 0.12997 0.43826 0.00976 0.0
H6341 H 0.16918 0.48449 0.03342 0.0
H6342 H 0.14786 0.50314 0.02548 0.0
H6343 H 0.16887 0.45575 0.05414 0.0
H6344 H 0.17144 0.46946 0.99205 0.0
H6345 H 0.15986 0.47161 0.95979 0.0
H6346 H 0.14275 0.41543 0.94923 0.0
H6347 H 0.15389 0.41298 0.9816 0.0
C6348 C 0.23772 0.42018 0.04045 0.0
C6349 C 0.23551 0.40225 0.03352 0.0
C6350 C 0.22329 0.42869 0.03937 0.0
C6351 C 0.20632 0.41943 0.03143 0.0
C6352 C 0.204 0.40149 0.02457 0.0
C6353 C 0.21847 0.39292 0.02571 0.0
C6354 C 0.19126 0.42878 0.02959 0.0
C6355 C 0.18303 0.42933 0.01166 0.0
C6356 C 0.1861 0.43838 0.04513 0.0
C6357 C 0.1941 0.43798 0.06444 0.0
C6358 C 0.19409 0.42185 0.07138 0.0
C6359 C 0.20199 0.42154 0.08943 0.0
C6360 C 0.20987 0.43728 0.10074 0.0
C6361 C 0.2098 0.45337 0.09404 0.0
C6362 C 0.20193 0.45375 0.07598 0.0
C6363 C 0.12161 0.463 0.00932 0.0
C6364 C 0.12665 0.48139 0.01321 0.0
C6365 C 0.13383 0.45239 0.01359 0.0
C6366 C 0.15118 0.46005 0.02201 0.0
C6367 C 0.15585 0.47836 0.02693 0.0
C6368 C 0.14373 0.48897 0.02237 0.0
C6369 C 0.16489 0.44915 0.02432 0.0
C6370 C 0.17298 0.44848 0.04227 0.0
C6371 C 0.17013 0.43963 0.00878 0.0
C6372 C 0.16322 0.44106 0.98936 0.0
C6373 C 0.16498 0.45758 0.98294 0.0
C6374 C 0.15854 0.45885 0.96462 0.0
C6375 C 0.1505 0.44367 0.95249 0.0
C6376 C 0.14891 0.42719 0.95867 0.0
C6377 C 0.15527 0.42585 0.97701 0.0
H6378 H 0.14556 0.44468 0.93829 0.0
H6379 H 0.216 0.43701 0.11471 0.0
H6380 H 0.86637 0.96448 0.24807 0.0
H6381 H 0.84583 0.93633 0.24807 0.0
H6382 H 0.89073 0.91139 0.25909 0.0
H6383 H 0.91113 0.93909 0.25829 0.0
H6384 H 0.86848 0.89149 0.23367 0.0
H6385 H 0.86276 0.9231 0.29316 0.0
H6386 H 0.85625 0.94772 0.31397 0.0
H6387 H 0.80286 0.93855 0.286 0.0
H6388 H 0.80913 0.91402 0.26488 0.0
H6389 H 0.82718 0.81145 0.26025 0.0
H6390 H 0.8448 0.84029 0.25863 0.0
H6391 H 0.79664 0.861 0.25083 0.0
H6392 H 0.77903 0.83242 0.25434 0.0
H6393 H 0.81896 0.88361 0.27278 0.0
H6394 H 0.82492 0.85065 0.21399 0.0
H6395 H 0.83192 0.8255 0.19438 0.0
H6396 H 0.88558 0.83701 0.22192 0.0
H6397 H 0.87885 0.8621 0.24181 0.0
C6398 C 0.8718 0.95297 0.25052 0.0
C6399 C 0.89036 0.95397 0.25307 0.0
C6400 C 0.86007 0.93691 0.25062 0.0
C6401 C 0.8667 0.92171 0.25374 0.0
C6402 C 0.88524 0.92285 0.25653 0.0
C6403 C 0.89691 0.93873 0.25608 0.0
C6404 C 0.85458 0.90442 0.25362 0.0
C6405 C 0.85773 0.88976 0.24235 0.0
C6406 C 0.84024 0.90216 0.26455 0.0
C6407 C 0.83648 0.91686 0.27731 0.0
C6408 C 0.84968 0.92642 0.29137 0.0
C6409 C 0.84602 0.94034 0.30323 0.0
C6410 C 0.82917 0.94473 0.30127 0.0
C6411 C 0.81592 0.93517 0.28748 0.0
C6412 C 0.81951 0.92125 0.27557 0.0
C6413 C 0.82024 0.8221 0.25823 0.0
C6414 C 0.80157 0.81959 0.25781 0.0
C6415 C 0.8304 0.83864 0.25705 0.0
C6416 C 0.82213 0.8529 0.2542 0.0
C6417 C 0.80343 0.85029 0.2531 0.0
C6418 C 0.7933 0.83387 0.25506 0.0
C6419 C 0.83297 0.8706 0.25295 0.0
C6420 C 0.82957 0.88534 0.26395 0.0
C6421 C 0.84717 0.87295 0.24181 0.0
C6422 C 0.85134 0.8582 0.22943 0.0
C6423 C 0.8382 0.84779 0.21586 0.0
C6424 C 0.84212 0.83354 0.20471 0.0
C6425 C 0.85918 0.82964 0.20692 0.0
C6426 C 0.87238 0.84004 0.22021 0.0
C6427 C 0.86853 0.8543 0.2314 0.0
H6428 H 0.86217 0.81857 0.19832 0.0
H6429 H 0.82637 0.95552 0.31047 0.0
H6430 H 0.67587 0.09575 0.77624 0.0
H6431 H 0.69424 0.12554 0.7829 0.0
H6432 H 0.72267 0.11443 0.73594 0.0
H6433 H 0.70481 0.08444 0.72987 0.0
H6434 H 0.74487 0.13277 0.76474 0.0
H6435 H 0.68909 0.13614 0.73123 0.0
H6436 H 0.65629 0.13089 0.72481 0.0
H6437 H 0.65374 0.16108 0.77722 0.0
H6438 H 0.68654 0.16631 0.78406 0.0
H6439 H 0.77601 0.21941 0.74682 0.0
H6440 H 0.76235 0.18868 0.74605 0.0
H6441 H 0.73443 0.20221 0.79266 0.0
H6442 H 0.74702 0.2332 0.79238 0.0
H6443 H 0.7127 0.18239 0.76537 0.0
H6444 H 0.77116 0.18034 0.79651 0.0
H6445 H 0.80404 0.18674 0.7987 0.0
H6446 H 0.80158 0.15488 0.74608 0.0
H6447 H 0.7687 0.14844 0.74349 0.0
C6448 C 0.68616 0.09979 0.76754 0.0
C6449 C 0.6891 0.08828 0.75256 0.0
C6450 C 0.69657 0.11663 0.77129 0.0
C6451 C 0.70957 0.12207 0.75974 0.0
C6452 C 0.71271 0.11034 0.74499 0.0
C6453 C 0.70252 0.0934 0.74147 0.0
C6454 C 0.71921 0.14033 0.76239 0.0
C6455 C 0.73791 0.14366 0.76486 0.0
C6456 C 0.70996 0.15436 0.76244 0.0
C6457 C 0.69025 0.15147 0.75824 0.0
C6458 C 0.68152 0.14157 0.74144 0.0
C6459 C 0.66294 0.13861 0.73771 0.0
C6460 C 0.65293 0.14561 0.75062 0.0
C6461 C 0.66151 0.15564 0.76725 0.0
C6462 C 0.6801 0.15863 0.77105 0.0
C6463 C 0.76718 0.21585 0.7571 0.0
C6464 C 0.76257 0.22866 0.76983 0.0
C6465 C 0.75949 0.19826 0.75672 0.0
C6466 C 0.7477 0.19323 0.76955 0.0
C6467 C 0.74362 0.20592 0.78273 0.0
C6468 C 0.75086 0.22357 0.78268 0.0
C6469 C 0.7384 0.17492 0.76817 0.0
C6470 C 0.71971 0.17154 0.76569 0.0
C6471 C 0.74769 0.16089 0.7677 0.0
C6472 C 0.76747 0.1639 0.76982 0.0
C6473 C 0.77764 0.17466 0.78544 0.0
C6474 C 0.79628 0.17832 0.78673 0.0
C6475 C 0.80489 0.17121 0.77254 0.0
C6476 C 0.7949 0.16034 0.75708 0.0
C6477 C 0.77626 0.15663 0.75572 0.0
H6478 H 0.81931 0.17413 0.77352 0.0
H6479 H 0.63854 0.14329 0.74772 0.0
loop_
_geom_bond_atom_site_label_1
_geom_bond_atom_site_label_2
_geom_bond_distance
_geom_bond_site_symmetry_2
_ccdc_geom_bond_type
C0 O1 1.306 . S
C0 O3 1.160 . S
O1 C0 1.306 . S
O1 Cd2 2.228 . S
Cd2 O1 2.228 . S
Cd2 O6 2.273 . S
Cd2 O10 2.277 . S
O3 C0 1.160 . S
O3 Cd4 2.203 . S
Cd4 O3 2.203 . S
Cd4 O6 2.411 . S
Cd4 O7 2.333 . S
Cd4 O8 2.352 . S
Cd4 O12 2.277 . S
Cd4 O13 2.356 . S
C5 O10 1.209 . S
C5 O12 1.226 . S
O6 Cd2 2.273 . S
O6 Cd4 2.411 . S
O6 C9 1.320 . S
O7 Cd4 2.333 . S
O7 C9 1.214 . S
O8 Cd4 2.352 . S
O8 C11 1.258 . S
C9 O6 1.320 . S
C9 O7 1.214 . S
O10 Cd2 2.277 . S
O10 C5 1.209 . S
C11 O8 1.258 . S
C11 O13 1.282 . S
O12 Cd4 2.277 . S
O12 C5 1.226 . S
O13 Cd4 2.356 . S
O13 C11 1.282 . S
C14 O15 1.306 . S
C14 O17 1.160 . S
O15 C14 1.306 . S
O15 Cd16 2.228 1_655 S
Cd16 O15 2.228 1_455 S
Cd16 O20 2.273 . S
Cd16 O24 2.277 . S
O17 C14 1.160 . S
O17 Cd18 2.203 1_655 S
Cd18 O17 2.203 1_455 S
Cd18 O20 2.411 . S
Cd18 O21 2.333 . S
Cd18 O22 2.352 . S
Cd18 O26 2.277 . S
Cd18 O27 2.356 . S
C19 O24 1.209 . S
C19 O26 1.226 . S
O20 Cd16 2.273 . S
O20 Cd18 2.411 . S
O20 C23 1.320 . S
O21 Cd18 2.333 . S
O21 C23 1.214 . S
O22 Cd18 2.352 . S
O22 C25 1.258 . S
C23 O20 1.320 . S
C23 O21 1.214 . S
O24 Cd16 2.277 . S
O24 C19 1.209 . S
C25 O22 1.258 . S
C25 O27 1.282 . S
O26 Cd18 2.277 . S
O26 C19 1.226 . S
O27 Cd18 2.356 . S
O27 C25 1.282 . S
C28 O29 1.306 . S
C28 O31 1.160 . S
O29 C28 1.306 . S
O29 Cd30 2.228 . S
Cd30 O29 2.228 . S
Cd30 O34 2.273 . S
Cd30 O38 2.277 . S
O31 C28 1.160 . S
O31 Cd32 2.203 . S
Cd32 O31 2.203 . S
Cd32 O34 2.411 . S
Cd32 O35 2.333 . S
Cd32 O36 2.352 . S
Cd32 O40 2.277 . S
Cd32 O41 2.356 . S
C33 O38 1.209 . S
C33 O40 1.226 . S
O34 Cd30 2.273 . S
O34 Cd32 2.411 . S
O34 C37 1.320 . S
O35 Cd32 2.333 . S
O35 C37 1.214 . S
O36 Cd32 2.352 . S
O36 C39 1.258 . S
C37 O34 1.320 . S
C37 O35 1.214 . S
O38 Cd30 2.277 . S
O38 C33 1.209 . S
C39 O36 1.258 . S
C39 O41 1.282 . S
O40 Cd32 2.277 . S
O40 C33 1.226 . S
O41 Cd32 2.356 . S
O41 C39 1.282 . S
C42 O43 1.306 . S
C42 O45 1.160 . S
O43 C42 1.306 . S
O43 Cd44 2.228 . S
Cd44 O43 2.228 . S
Cd44 O48 2.273 . S
Cd44 O52 2.277 . S
O45 C42 1.160 . S
O45 Cd46 2.203 . S
Cd46 O45 2.203 . S
Cd46 O48 2.411 . S
Cd46 O49 2.333 . S
Cd46 O50 2.352 . S
Cd46 O54 2.277 . S
Cd46 O55 2.356 . S
C47 O52 1.209 . S
C47 O54 1.226 . S
O48 Cd44 2.273 . S
O48 Cd46 2.411 . S
O48 C51 1.320 . S
O49 Cd46 2.333 . S
O49 C51 1.214 . S
O50 Cd46 2.352 . S
O50 C53 1.258 . S
C51 O48 1.320 . S
C51 O49 1.214 . S
O52 Cd44 2.277 . S
O52 C47 1.209 . S
C53 O50 1.258 . S
C53 O55 1.282 . S
O54 Cd46 2.277 . S
O54 C47 1.226 . S
O55 Cd46 2.356 . S
O55 C53 1.282 . S
C56 O57 1.306 . S
C56 O59 1.160 . S
O57 C56 1.306 . S
O57 Cd58 2.228 . S
Cd58 O57 2.228 . S
Cd58 O62 2.273 . S
Cd58 O66 2.277 . S
O59 C56 1.160 . S
O59 Cd60 2.203 . S
Cd60 O59 2.203 . S
Cd60 O62 2.411 . S
Cd60 O63 2.333 . S
Cd60 O64 2.352 . S
Cd60 O68 2.277 . S
Cd60 O69 2.356 . S
C61 O66 1.209 . S
C61 O68 1.226 . S
O62 Cd58 2.273 . S
O62 Cd60 2.411 . S
O62 C65 1.320 . S
O63 Cd60 2.333 . S
O63 C65 1.214 . S
O64 Cd60 2.352 . S
O64 C67 1.258 . S
C65 O62 1.320 . S
C65 O63 1.214 . S
O66 Cd58 2.277 . S
O66 C61 1.209 . S
C67 O64 1.258 . S
C67 O69 1.282 . S
O68 Cd60 2.277 . S
O68 C61 1.226 . S
O69 Cd60 2.356 . S
O69 C67 1.282 . S
C70 O71 1.306 . S
C70 O73 1.160 . S
O71 C70 1.306 . S
O71 Cd72 2.228 . S
Cd72 O71 2.228 . S
Cd72 O76 2.273 . S
Cd72 O80 2.277 . S
O73 C70 1.160 . S
O73 Cd74 2.203 . S
Cd74 O73 2.203 . S
Cd74 O76 2.411 . S
Cd74 O77 2.333 . S
Cd74 O78 2.352 . S
Cd74 O82 2.277 . S
Cd74 O83 2.356 . S
C75 O80 1.209 . S
C75 O82 1.226 . S
O76 Cd72 2.273 . S
O76 Cd74 2.411 . S
O76 C79 1.320 . S
O77 Cd74 2.333 . S
O77 C79 1.214 . S
O78 Cd74 2.352 . S
O78 C81 1.258 . S
C79 O76 1.320 . S
C79 O77 1.214 . S
O80 Cd72 2.277 . S
O80 C75 1.209 . S
C81 O78 1.258 . S
C81 O83 1.282 . S
O82 Cd74 2.277 . S
O82 C75 1.226 . S
O83 Cd74 2.356 . S
O83 C81 1.282 . S
C84 O85 1.306 . S
C84 O87 1.160 . S
O85 C84 1.306 . S
O85 Cd86 2.228 . S
Cd86 O85 2.228 . S
Cd86 O90 2.273 . S
Cd86 O94 2.277 . S
O87 C84 1.160 . S
O87 Cd88 2.203 . S
Cd88 O87 2.203 . S
Cd88 O90 2.411 . S
Cd88 O91 2.333 . S
Cd88 O92 2.352 . S
Cd88 O96 2.277 . S
Cd88 O97 2.356 . S
C89 O94 1.209 . S
C89 O96 1.226 . S
O90 Cd86 2.273 . S
O90 Cd88 2.411 . S
O90 C93 1.320 . S
O91 Cd88 2.333 . S
O91 C93 1.214 . S
O92 Cd88 2.352 . S
O92 C95 1.258 . S
C93 O90 1.320 . S
C93 O91 1.214 . S
O94 Cd86 2.277 . S
O94 C89 1.209 . S
C95 O92 1.258 . S
C95 O97 1.282 . S
O96 Cd88 2.277 . S
O96 C89 1.226 . S
O97 Cd88 2.356 . S
O97 C95 1.282 . S
C98 O99 1.306 . S
C98 O101 1.160 . S
O99 C98 1.306 . S
O99 Cd100 2.228 1_655 S
Cd100 O99 2.228 1_455 S
Cd100 O104 2.273 . S
Cd100 O108 2.277 . S
O101 C98 1.160 . S
O101 Cd102 2.203 1_655 S
Cd102 O101 2.203 1_455 S
Cd102 O104 2.411 . S
Cd102 O105 2.333 . S
Cd102 O106 2.352 1_455 S
Cd102 O110 2.277 . S
Cd102 O111 2.356 . S
C103 O108 1.209 . S
C103 O110 1.226 . S
O104 Cd100 2.273 . S
O104 Cd102 2.411 . S
O104 C107 1.320 . S
O105 Cd102 2.333 . S
O105 C107 1.214 . S
O106 Cd102 2.352 1_655 S
O106 C109 1.263 . S
C107 O104 1.320 . S
C107 O105 1.214 . S
O108 Cd100 2.277 . S
O108 C103 1.209 . S
C109 O106 1.263 . S
C109 O111 1.280 1_655 S
O110 Cd102 2.277 . S
O110 C103 1.226 . S
O111 Cd102 2.356 . S
O111 C109 1.280 1_455 S
C112 O113 1.306 . S
C112 O115 1.160 . S
O113 C112 1.306 . S
O113 Cd114 2.228 1_545 S
Cd114 O113 2.228 1_565 S
Cd114 O118 2.273 1_565 S
Cd114 O122 2.277 . S
O115 C112 1.160 . S
O115 Cd116 2.203 . S
Cd116 O115 2.203 . S
Cd116 O118 2.411 . S
Cd116 O119 2.333 . S
Cd116 O120 2.352 . S
Cd116 O124 2.277 1_545 S
Cd116 O125 2.356 . S
C117 O122 1.209 . S
C117 O124 1.226 . S
O118 Cd114 2.273 1_545 S
O118 Cd116 2.411 . S
O118 C121 1.320 . S
O119 Cd116 2.333 . S
O119 C121 1.214 . S
O120 Cd116 2.352 . S
O120 C123 1.258 . S
C121 O118 1.320 . S
C121 O119 1.214 . S
O122 Cd114 2.277 . S
O122 C117 1.209 . S
C123 O120 1.258 . S
C123 O125 1.282 . S
O124 Cd116 2.277 1_565 S
O124 C117 1.226 . S
O125 Cd116 2.356 . S
O125 C123 1.282 . S
C126 O127 1.306 . S
C126 O129 1.160 . S
O127 C126 1.306 . S
O127 Cd128 2.228 . S
Cd128 O127 2.228 . S
Cd128 O132 2.273 . S
Cd128 O136 2.277 . S
O129 C126 1.160 . S
O129 Cd130 2.203 . S
Cd130 O129 2.203 . S
Cd130 O132 2.411 . S
Cd130 O133 2.333 . S
Cd130 O134 2.352 . S
Cd130 O138 2.277 . S
Cd130 O139 2.356 . S
C131 O136 1.209 . S
C131 O138 1.226 . S
O132 Cd128 2.273 . S
O132 Cd130 2.411 . S
O132 C135 1.320 . S
O133 Cd130 2.333 . S
O133 C135 1.214 . S
O134 Cd130 2.352 . S
O134 C137 1.258 . S
C135 O132 1.320 . S
C135 O133 1.214 . S
O136 Cd128 2.277 . S
O136 C131 1.209 . S
C137 O134 1.258 . S
C137 O139 1.282 . S
O138 Cd130 2.277 . S
O138 C131 1.226 . S
O139 Cd130 2.356 . S
O139 C137 1.282 . S
C140 O141 1.306 . S
C140 O143 1.160 . S
O141 C140 1.306 . S
O141 Cd142 2.228 . S
Cd142 O141 2.228 . S
Cd142 O146 2.273 . S
Cd142 O150 2.277 . S
O143 C140 1.160 . S
O143 Cd144 2.203 . S
Cd144 O143 2.203 . S
Cd144 O146 2.411 . S
Cd144 O147 2.333 . S
Cd144 O148 2.352 1_545 S
Cd144 O152 2.277 . S
Cd144 O153 2.356 . S
C145 O150 1.209 . S
C145 O152 1.226 . S
O146 Cd142 2.273 . S
O146 Cd144 2.411 . S
O146 C149 1.320 . S
O147 Cd144 2.333 . S
O147 C149 1.214 . S
O148 Cd144 2.352 1_565 S
O148 C151 1.258 . S
C149 O146 1.320 . S
C149 O147 1.214 . S
O150 Cd142 2.277 . S
O150 C145 1.209 . S
C151 O148 1.258 . S
C151 O153 1.282 1_565 S
O152 Cd144 2.277 . S
O152 C145 1.226 . S
O153 Cd144 2.356 . S
O153 C151 1.282 1_545 S
C154 O155 1.298 1_554 S
C154 O157 1.166 . S
O155 C154 1.298 1_556 S
O155 Cd156 2.228 . S
Cd156 O155 2.228 . S
Cd156 O160 2.283 . S
Cd156 O164 2.277 . S
O157 C154 1.166 . S
O157 Cd158 2.203 . S
Cd158 O157 2.203 . S
Cd158 O160 2.409 1_554 S
Cd158 O161 2.331 . S
Cd158 O162 2.352 . S
Cd158 O166 2.277 1_554 S
Cd158 O167 2.356 . S
C159 O164 1.209 . S
C159 O166 1.226 . S
O160 Cd156 2.283 . S
O160 Cd158 2.409 1_556 S
O160 C163 1.321 . S
O161 Cd158 2.331 . S
O161 C163 1.202 1_554 S
O162 Cd158 2.352 . S
O162 C165 1.258 . S
C163 O160 1.321 . S
C163 O161 1.202 1_556 S
O164 Cd156 2.277 . S
O164 C159 1.209 . S
C165 O162 1.258 . S
C165 O167 1.282 . S
O166 Cd158 2.277 1_556 S
O166 C159 1.226 . S
O167 Cd158 2.356 . S
O167 C165 1.282 . S
C168 O169 1.306 . S
C168 O171 1.160 . S
O169 C168 1.306 . S
O169 Cd170 2.228 . S
Cd170 O169 2.228 . S
Cd170 O174 2.273 . S
Cd170 O178 2.277 . S
O171 C168 1.160 . S
O171 Cd172 2.203 . S
Cd172 O171 2.203 . S
Cd172 O174 2.411 . S
Cd172 O175 2.333 . S
Cd172 O176 2.352 . S
Cd172 O180 2.277 . S
Cd172 O181 2.356 . S
C173 O178 1.209 1_556 S
C173 O180 1.180 1_556 S
O174 Cd170 2.273 . S
O174 Cd172 2.411 . S
O174 C177 1.320 . S
O175 Cd172 2.333 . S
O175 C177 1.214 . S
O176 Cd172 2.352 . S
O176 C179 1.258 . S
C177 O174 1.320 . S
C177 O175 1.214 . S
O178 Cd170 2.277 . S
O178 C173 1.209 1_554 S
C179 O176 1.258 . S
C179 O181 1.282 . S
O180 Cd172 2.277 . S
O180 C173 1.180 1_554 S
O181 Cd172 2.356 . S
O181 C179 1.282 . S
C182 O183 1.306 . S
C182 O185 1.160 . S
O183 C182 1.306 . S
O183 Cd184 2.228 . S
Cd184 O183 2.228 . S
Cd184 O188 2.273 . S
Cd184 O192 2.277 . S
O185 C182 1.160 . S
O185 Cd186 2.203 . S
Cd186 O185 2.203 . S
Cd186 O188 2.411 . S
Cd186 O189 2.333 . S
Cd186 O190 2.352 . S
Cd186 O194 2.277 . S
Cd186 O195 2.356 . S
C187 O192 1.209 . S
C187 O194 1.226 . S
O188 Cd184 2.273 . S
O188 Cd186 2.411 . S
O188 C191 1.320 . S
O189 Cd186 2.333 . S
O189 C191 1.214 . S
O190 Cd186 2.352 . S
O190 C193 1.258 . S
C191 O188 1.320 . S
C191 O189 1.214 . S
O192 Cd184 2.277 . S
O192 C187 1.209 . S
C193 O190 1.258 . S
C193 O195 1.282 . S
O194 Cd186 2.277 . S
O194 C187 1.226 . S
O195 Cd186 2.356 . S
O195 C193 1.282 . S
C196 O197 1.306 . S
C196 O199 1.160 . S
O197 C196 1.306 . S
O197 Cd198 2.228 . S
Cd198 O197 2.228 . S
Cd198 O202 2.273 . S
Cd198 O206 2.277 . S
O199 C196 1.160 . S
O199 Cd200 2.203 . S
Cd200 O199 2.203 . S
Cd200 O202 2.411 . S
Cd200 O203 2.333 . S
Cd200 O204 2.352 . S
Cd200 O208 2.277 . S
Cd200 O209 2.356 . S
C201 O206 1.209 . S
C201 O208 1.226 . S
O202 Cd198 2.273 . S
O202 Cd200 2.411 . S
O202 C205 1.320 . S
O203 Cd200 2.333 . S
O203 C205 1.214 . S
O204 Cd200 2.352 . S
O204 C207 1.258 . S
C205 O202 1.320 . S
C205 O203 1.214 . S
O206 Cd198 2.277 . S
O206 C201 1.209 . S
C207 O204 1.258 . S
C207 O209 1.282 . S
O208 Cd200 2.277 . S
O208 C201 1.226 . S
O209 Cd200 2.356 . S
O209 C207 1.282 . S
C210 O211 1.306 . S
C210 O213 1.160 . S
O211 C210 1.306 . S
O211 Cd212 2.228 . S
Cd212 O211 2.228 . S
Cd212 O216 2.273 . S
Cd212 O220 2.277 . S
O213 C210 1.160 . S
O213 Cd214 2.203 . S
Cd214 O213 2.203 . S
Cd214 O216 2.411 . S
Cd214 O217 2.333 . S
Cd214 O218 2.352 . S
Cd214 O222 2.277 . S
Cd214 O223 2.356 . S
C215 O220 1.209 . S
C215 O222 1.226 . S
O216 Cd212 2.273 . S
O216 Cd214 2.411 . S
O216 C219 1.320 . S
O217 Cd214 2.333 . S
O217 C219 1.214 . S
O218 Cd214 2.352 . S
O218 C221 1.258 . S
C219 O216 1.320 . S
C219 O217 1.214 . S
O220 Cd212 2.277 . S
O220 C215 1.209 . S
C221 O218 1.258 . S
C221 O223 1.282 . S
O222 Cd214 2.277 . S
O222 C215 1.226 . S
O223 Cd214 2.356 . S
O223 C221 1.282 . S
C224 O225 1.306 . S
C224 O227 1.160 . S
O225 C224 1.306 . S
O225 Cd226 2.228 1_545 S
Cd226 O225 2.228 1_565 S
Cd226 O230 2.273 1_565 S
Cd226 O234 2.277 . S
O227 C224 1.160 . S
O227 Cd228 2.203 . S
Cd228 O227 2.203 . S
Cd228 O230 2.411 . S
Cd228 O231 2.333 . S
Cd228 O232 2.352 . S
Cd228 O236 2.277 1_545 S
Cd228 O237 2.356 . S
C229 O234 1.209 . S
C229 O236 1.226 . S
O230 Cd226 2.273 1_545 S
O230 Cd228 2.411 . S
O230 C233 1.320 . S
O231 Cd228 2.333 . S
O231 C233 1.214 . S
O232 Cd228 2.352 . S
O232 C235 1.258 . S
C233 O230 1.320 . S
C233 O231 1.214 . S
O234 Cd226 2.277 . S
O234 C229 1.209 . S
C235 O232 1.258 . S
C235 O237 1.282 . S
O236 Cd228 2.277 1_565 S
O236 C229 1.226 . S
O237 Cd228 2.356 . S
O237 C235 1.282 . S
C238 O239 1.306 . S
C238 O241 1.160 . S
O239 C238 1.306 . S
O239 Cd240 2.228 . S
Cd240 O239 2.228 . S
Cd240 O244 2.273 . S
Cd240 O248 2.277 . S
O241 C238 1.160 . S
O241 Cd242 2.203 . S
Cd242 O241 2.203 . S
Cd242 O244 2.411 . S
Cd242 O245 2.333 . S
Cd242 O246 2.352 . S
Cd242 O250 2.277 . S
Cd242 O251 2.356 . S
C243 O248 1.209 . S
C243 O250 1.226 . S
O244 Cd240 2.273 . S
O244 Cd242 2.411 . S
O244 C247 1.320 . S
O245 Cd242 2.333 . S
O245 C247 1.214 . S
O246 Cd242 2.352 . S
O246 C249 1.258 . S
C247 O244 1.320 . S
C247 O245 1.214 . S
O248 Cd240 2.277 . S
O248 C243 1.209 . S
C249 O246 1.258 . S
C249 O251 1.282 . S
O250 Cd242 2.277 . S
O250 C243 1.226 . S
O251 Cd242 2.356 . S
O251 C249 1.282 . S
C252 O253 1.306 . S
C252 O255 1.160 . S
O253 C252 1.306 . S
O253 Cd254 2.228 . S
Cd254 O253 2.228 . S
Cd254 O258 2.273 . S
Cd254 O262 2.277 . S
O255 C252 1.160 . S
O255 Cd256 2.203 . S
Cd256 O255 2.203 . S
Cd256 O258 2.411 . S
Cd256 O259 2.333 . S
Cd256 O260 2.352 . S
Cd256 O264 2.277 . S
Cd256 O265 2.356 . S
C257 O262 1.209 . S
C257 O264 1.226 . S
O258 Cd254 2.273 . S
O258 Cd256 2.411 . S
O258 C261 1.320 . S
O259 Cd256 2.333 . S
O259 C261 1.214 . S
O260 Cd256 2.352 . S
O260 C263 1.258 . S
C261 O258 1.320 . S
C261 O259 1.214 . S
O262 Cd254 2.277 . S
O262 C257 1.209 . S
C263 O260 1.258 . S
C263 O265 1.282 . S
O264 Cd256 2.277 . S
O264 C257 1.226 . S
O265 Cd256 2.356 . S
O265 C263 1.282 . S
C266 O267 1.306 . S
C266 O269 1.160 . S
O267 C266 1.306 . S
O267 Cd268 2.228 . S
Cd268 O267 2.228 . S
Cd268 O272 2.273 . S
Cd268 O276 2.277 . S
O269 C266 1.160 . S
O269 Cd270 2.203 . S
Cd270 O269 2.203 . S
Cd270 O272 2.411 . S
Cd270 O273 2.333 . S
Cd270 O274 2.352 . S
Cd270 O278 2.277 . S
Cd270 O279 2.356 . S
C271 O276 1.209 . S
C271 O278 1.226 . S
O272 Cd268 2.273 . S
O272 Cd270 2.411 . S
O272 C275 1.320 . S
O273 Cd270 2.333 . S
O273 C275 1.214 . S
O274 Cd270 2.352 . S
O274 C277 1.258 . S
C275 O272 1.320 . S
C275 O273 1.214 . S
O276 Cd268 2.277 . S
O276 C271 1.209 . S
C277 O274 1.258 . S
C277 O279 1.282 . S
O278 Cd270 2.277 . S
O278 C271 1.226 . S
O279 Cd270 2.356 . S
O279 C277 1.282 . S
C280 O281 1.306 . S
C280 O283 1.160 . S
O281 C280 1.306 . S
O281 Cd282 2.228 . S
Cd282 O281 2.228 . S
Cd282 O286 2.273 . S
Cd282 O290 2.277 . S
O283 C280 1.160 . S
O283 Cd284 2.203 . S
Cd284 O283 2.203 . S
Cd284 O286 2.411 . S
Cd284 O287 2.333 . S
Cd284 O288 2.352 1_554 S
Cd284 O292 2.277 . S
Cd284 O293 2.356 1_554 S
C285 O290 1.209 . S
C285 O292 1.226 . S
O286 Cd282 2.273 . S
O286 Cd284 2.411 . S
O286 C289 1.320 . S
O287 Cd284 2.333 . S
O287 C289 1.214 . S
O288 Cd284 2.352 1_556 S
O288 C291 1.258 . S
C289 O286 1.320 . S
C289 O287 1.214 . S
O290 Cd282 2.277 . S
O290 C285 1.209 . S
C291 O288 1.258 . S
C291 O293 1.282 . S
O292 Cd284 2.277 . S
O292 C285 1.226 . S
O293 Cd284 2.356 1_556 S
O293 C291 1.282 . S
C294 O295 1.306 . S
C294 O297 1.160 . S
O295 C294 1.306 . S
O295 Cd296 2.228 . S
Cd296 O295 2.228 . S
Cd296 O300 2.273 . S
Cd296 O304 2.277 . S
O297 C294 1.160 . S
O297 Cd298 2.203 . S
Cd298 O297 2.203 . S
Cd298 O300 2.411 . S
Cd298 O301 2.333 . S
Cd298 O302 2.352 . S
Cd298 O306 2.277 . S
Cd298 O307 2.356 . S
C299 O304 1.209 . S
C299 O306 1.226 . S
O300 Cd296 2.273 . S
O300 Cd298 2.411 . S
O300 C303 1.320 . S
O301 Cd298 2.333 . S
O301 C303 1.214 . S
O302 Cd298 2.352 . S
O302 C305 1.258 . S
C303 O300 1.320 . S
C303 O301 1.214 . S
O304 Cd296 2.277 . S
O304 C299 1.209 . S
C305 O302 1.258 . S
C305 O307 1.282 . S
O306 Cd298 2.277 . S
O306 C299 1.226 . S
O307 Cd298 2.356 . S
O307 C305 1.282 . S
C308 O309 1.306 . S
C308 O311 1.160 . S
O309 C308 1.306 . S
O309 Cd310 2.228 . S
Cd310 O309 2.228 . S
Cd310 O314 2.273 . S
Cd310 O318 2.277 . S
O311 C308 1.160 . S
O311 Cd312 2.203 . S
Cd312 O311 2.203 . S
Cd312 O314 2.411 . S
Cd312 O315 2.333 . S
Cd312 O316 2.352 . S
Cd312 O320 2.277 . S
Cd312 O321 2.356 . S
C313 O318 1.209 . S
C313 O320 1.226 . S
O314 Cd310 2.273 . S
O314 Cd312 2.411 . S
O314 C317 1.320 . S
O315 Cd312 2.333 . S
O315 C317 1.214 . S
O316 Cd312 2.352 . S
O316 C319 1.258 . S
C317 O314 1.320 . S
C317 O315 1.214 . S
O318 Cd310 2.277 . S
O318 C313 1.209 . S
C319 O316 1.258 . S
C319 O321 1.282 . S
O320 Cd312 2.277 . S
O320 C313 1.226 . S
O321 Cd312 2.356 . S
O321 C319 1.282 . S
C322 O323 1.306 . S
C322 O325 1.160 . S
O323 C322 1.306 . S
O323 Cd324 2.228 . S
Cd324 O323 2.228 . S
Cd324 O328 2.273 . S
Cd324 O332 2.277 . S
O325 C322 1.160 . S
O325 Cd326 2.203 . S
Cd326 O325 2.203 . S
Cd326 O328 2.411 . S
Cd326 O329 2.333 . S
Cd326 O330 2.352 . S
Cd326 O334 2.277 . S
Cd326 O335 2.356 . S
C327 O332 1.209 . S
C327 O334 1.226 . S
O328 Cd324 2.273 . S
O328 Cd326 2.411 . S
O328 C331 1.320 . S
O329 Cd326 2.333 . S
O329 C331 1.214 . S
O330 Cd326 2.352 . S
O330 C333 1.258 . S
C331 O328 1.320 . S
C331 O329 1.214 . S
O332 Cd324 2.277 . S
O332 C327 1.209 . S
C333 O330 1.258 . S
C333 O335 1.282 . S
O334 Cd326 2.277 . S
O334 C327 1.226 . S
O335 Cd326 2.356 . S
O335 C333 1.282 . S
C336 C338 1.422 1_556 S
C336 C340 1.415 . S
C336 N342 1.369 . S
C337 C338 1.421 . S
C337 C339 1.417 1_554 S
C337 C349 1.422 . S
C338 C336 1.422 1_554 S
C338 C337 1.421 . S
C338 N348 1.359 . S
C339 C337 1.417 1_556 S
C339 C341 1.329 . S
C339 H358 0.931 . S
C340 C336 1.415 . S
C340 C341 1.437 . S
C340 C344 1.413 . S
C341 C339 1.329 . S
C341 C340 1.437 . S
C341 H363 0.929 . S
N342 C336 1.369 . S
N342 C343 1.338 . S
N342 Gd347 2.624 1_566 S
C343 N342 1.338 . S
C343 C345 1.378 . S
C343 H355 0.929 . S
C344 C340 1.413 . S
C344 C345 1.348 . S
C344 H360 0.931 . S
C345 C343 1.378 . S
C345 C344 1.348 . S
C345 H361 0.930 . S
Gd346 N366 2.622 . S
Gd346 N373 2.570 . S
Gd346 O380 2.353 . S
Gd346 O381 2.468 . S
Gd346 O382 2.427 . S
Gd346 O384 2.388 . S
Gd346 O385 2.386 . S
Gd346 O389 2.307 . S
Gd346 C399 2.805 . S
Gd347 N342 2.624 1_544 S
Gd347 N348 2.578 1_545 S
Gd347 O379 2.376 1_645 S
Gd347 O383 2.304 1_655 S
Gd347 O386 2.350 1_655 S
Gd347 O387 2.482 . S
Gd347 O388 2.439 1_554 S
Gd347 O390 2.377 1_654 S
Gd347 C411 2.819 . S
N348 C338 1.359 . S
N348 Gd347 2.578 1_565 S
N348 C350 1.343 . S
C349 C337 1.422 . S
C349 C351 1.321 . S
C349 H357 0.931 . S
C350 N348 1.343 . S
C350 C351 1.390 . S
C350 H352 0.931 . S
C351 C349 1.321 . S
C351 C350 1.390 . S
C351 H353 0.930 . S
H352 C350 0.931 . S
H353 C351 0.930 . S
H354 C377 0.931 . S
H355 C343 0.929 . S
H356 C378 0.930 1_556 S
H357 C349 0.931 . S
H358 C339 0.931 . S
H359 C368 0.929 . S
H360 C344 0.931 . S
H361 C345 0.930 . S
H362 C400 0.930 . S
H363 C341 0.929 . S
H364 C369 0.931 . S
H365 C370 0.930 . S
N366 Gd346 2.622 . S
N366 C367 1.369 . S
N366 C368 1.338 . S
C367 N366 1.369 . S
C367 C371 1.415 . S
C367 C374 1.422 . S
C368 H359 0.929 . S
C368 N366 1.338 . S
C368 C370 1.378 . S
C369 H364 0.931 . S
C369 C370 1.348 . S
C369 C371 1.413 . S
C370 H365 0.930 . S
C370 C368 1.378 . S
C370 C369 1.348 . S
C371 C367 1.415 . S
C371 C369 1.413 . S
C371 C401 1.437 . S
H372 C401 0.929 . S
N373 Gd346 2.570 . S
N373 C374 1.359 . S
N373 C377 1.343 . S
C374 C367 1.422 . S
C374 N373 1.359 . S
C374 C376 1.421 . S
C375 C376 1.422 . S
C375 C378 1.321 . S
C375 H402 0.931 . S
C376 C374 1.421 . S
C376 C375 1.422 . S
C376 C400 1.417 . S
C377 H354 0.931 . S
C377 N373 1.343 . S
C377 C378 1.390 . S
C378 H356 0.930 1_554 S
C378 C375 1.321 . S
C378 C377 1.390 . S
O379 Gd347 2.376 1_465 S
O379 C391 1.265 . S
O380 Gd346 2.353 . S
O380 C391 1.242 1_545 S
O381 Gd346 2.468 . S
O381 C399 1.263 . S
O382 Gd346 2.427 . S
O382 C399 1.252 . S
O383 Gd347 2.304 1_455 S
O383 C392 1.261 . S
O384 Gd346 2.388 . S
O384 C392 1.252 . S
O385 Gd346 2.386 . S
O385 C403 1.265 . S
O386 Gd347 2.350 1_455 S
O386 C403 1.242 . S
O387 Gd347 2.482 . S
O387 C411 1.263 . S
O388 Gd347 2.439 1_556 S
O388 C411 1.252 1_556 S
O389 Gd346 2.307 . S
O389 C404 1.261 1_554 S
O390 Gd347 2.377 1_456 S
O390 C404 1.252 . S
C391 O379 1.265 . S
C391 O380 1.242 1_565 S
C392 O383 1.261 . S
C392 O384 1.252 . S
C393 C396 1.394 . S
C393 C398 1.370 . S
C393 C399 1.500 . S
C394 C397 1.390 . S
C394 C398 1.396 . S
C395 C396 1.396 . S
C395 C397 1.378 . S
C395 H412 0.929 . S
C396 C393 1.394 . S
C396 C395 1.396 . S
C396 H413 0.930 . S
C397 C394 1.390 . S
C397 C395 1.378 . S
C397 H414 0.913 1_545 S
C398 C393 1.370 . S
C398 C394 1.396 . S
C398 H415 0.930 . S
C399 Gd346 2.805 . S
C399 O381 1.263 . S
C399 O382 1.252 . S
C399 C393 1.500 . S
C400 H362 0.930 . S
C400 C376 1.417 . S
C400 C401 1.329 . S
C401 C371 1.437 . S
C401 H372 0.929 . S
C401 C400 1.329 . S
H402 C375 0.931 . S
C403 O385 1.265 . S
C403 O386 1.242 . S
C404 O389 1.261 1_556 S
C404 O390 1.252 . S
C405 C408 1.425 . S
C405 C410 1.344 1_556 S
C405 C411 1.496 1_556 S
C406 C409 1.383 1_554 S
C406 C410 1.395 . S
C407 C408 1.396 . S
C407 C409 1.365 . S
C407 H416 0.929 . S
C408 C405 1.425 . S
C408 C407 1.396 . S
C408 H417 0.930 . S
C409 C406 1.383 1_556 S
C409 C407 1.365 . S
C409 H418 0.931 . S
C410 C405 1.344 1_554 S
C410 C406 1.395 . S
C410 H419 0.930 . S
C411 Gd347 2.819 . S
C411 O387 1.263 . S
C411 O388 1.252 1_554 S
C411 C405 1.496 1_554 S
H412 C395 0.929 . S
H413 C396 0.930 . S
H414 C397 0.913 1_565 S
H415 C398 0.930 . S
H416 C407 0.929 . S
H417 C408 0.930 . S
H418 C409 0.931 . S
H419 C410 0.930 . S
C420 C422 1.422 . S
C420 C424 1.415 . S
C420 N426 1.369 . S
C421 C422 1.421 . S
C421 C423 1.417 . S
C421 C433 1.422 . S
C422 C420 1.422 . S
C422 C421 1.421 . S
C422 N432 1.359 . S
C423 C421 1.417 . S
C423 C425 1.329 . S
C423 H442 0.930 . S
C424 C420 1.415 . S
C424 C425 1.437 . S
C424 C428 1.413 . S
C425 C423 1.329 . S
C425 C424 1.437 . S
C425 H447 0.929 . S
N426 C420 1.369 . S
N426 C427 1.338 . S
N426 Gd431 2.622 . S
C427 N426 1.338 . S
C427 C429 1.378 . S
C427 H439 0.929 . S
C428 C424 1.413 . S
C428 C429 1.348 . S
C428 H444 0.931 . S
C429 C427 1.378 . S
C429 C428 1.348 . S
C429 H445 0.930 . S
Gd430 N450 2.622 . S
Gd430 N457 2.570 . S
Gd430 O464 2.353 . S
Gd430 O465 2.468 . S
Gd430 O466 2.427 . S
Gd430 O468 2.388 . S
Gd430 O469 2.386 . S
Gd430 O473 2.307 . S
Gd430 C483 2.805 . S
Gd431 N426 2.622 . S
Gd431 N432 2.570 . S
Gd431 O463 2.386 . S
Gd431 O467 2.307 . S
Gd431 O470 2.353 . S
Gd431 O471 2.468 . S
Gd431 O472 2.427 . S
Gd431 O474 2.388 . S
Gd431 C495 2.805 . S
N432 C422 1.359 . S
N432 Gd431 2.570 . S
N432 C434 1.343 . S
C433 C421 1.422 . S
C433 C435 1.321 . S
C433 H441 0.931 . S
C434 N432 1.343 . S
C434 C435 1.390 . S
C434 H436 0.931 . S
C435 C433 1.321 . S
C435 C434 1.390 . S
C435 H437 0.930 . S
H436 C434 0.931 . S
H437 C435 0.930 . S
H438 C461 0.931 . S
H439 C427 0.929 . S
H440 C462 0.930 . S
H441 C433 0.931 . S
H442 C423 0.930 . S
H443 C452 0.929 . S
H444 C428 0.931 . S
H445 C429 0.930 . S
H446 C484 0.930 . S
H447 C425 0.929 . S
H448 C453 0.931 . S
H449 C454 0.930 . S
N450 Gd430 2.622 . S
N450 C451 1.369 . S
N450 C452 1.338 . S
C451 N450 1.369 . S
C451 C455 1.415 . S
C451 C458 1.422 . S
C452 H443 0.929 . S
C452 N450 1.338 . S
C452 C454 1.378 . S
C453 H448 0.931 . S
C453 C454 1.348 . S
C453 C455 1.413 . S
C454 H449 0.930 . S
C454 C452 1.378 . S
C454 C453 1.348 . S
C455 C451 1.415 . S
C455 C453 1.413 . S
C455 C485 1.437 . S
H456 C485 0.929 . S
N457 Gd430 2.570 . S
N457 C458 1.359 . S
N457 C461 1.343 . S
C458 C451 1.422 . S
C458 N457 1.359 . S
C458 C460 1.421 . S
C459 C460 1.422 . S
C459 C462 1.321 . S
C459 H486 0.931 . S
C460 C458 1.421 . S
C460 C459 1.422 . S
C460 C484 1.417 . S
C461 H438 0.931 . S
C461 N457 1.343 . S
C461 C462 1.390 . S
C462 H440 0.930 . S
C462 C459 1.321 . S
C462 C461 1.390 . S
O463 Gd431 2.386 . S
O463 C475 1.265 . S
O464 Gd430 2.353 . S
O464 C475 1.242 . S
O465 Gd430 2.468 . S
O465 C483 1.263 . S
O466 Gd430 2.427 . S
O466 C483 1.252 . S
O467 Gd431 2.307 . S
O467 C476 1.261 . S
O468 Gd430 2.388 . S
O468 C476 1.252 . S
O469 Gd430 2.386 . S
O469 C487 1.265 . S
O470 Gd431 2.353 . S
O470 C487 1.242 . S
O471 Gd431 2.468 . S
O471 C495 1.263 . S
O472 Gd431 2.427 . S
O472 C495 1.252 . S
O473 Gd430 2.307 . S
O473 C488 1.261 . S
O474 Gd431 2.388 . S
O474 C488 1.252 . S
C475 O463 1.265 . S
C475 O464 1.242 . S
C476 O467 1.261 . S
C476 O468 1.252 . S
C477 C480 1.394 . S
C477 C482 1.370 . S
C477 C483 1.500 . S
C478 C481 1.383 . S
C478 C482 1.395 . S
C479 C480 1.396 . S
C479 C481 1.365 . S
C479 H496 0.929 . S
C480 C477 1.394 . S
C480 C479 1.396 . S
C480 H497 0.930 . S
C481 C478 1.383 . S
C481 C479 1.365 . S
C481 H498 0.931 . S
C482 C477 1.370 . S
C482 C478 1.395 . S
C482 H499 0.930 . S
C483 Gd430 2.805 . S
C483 O465 1.263 . S
C483 O466 1.252 . S
C483 C477 1.500 . S
C484 H446 0.930 . S
C484 C460 1.417 . S
C484 C485 1.329 . S
C485 C455 1.437 . S
C485 H456 0.929 . S
C485 C484 1.329 . S
H486 C459 0.931 . S
C487 O469 1.265 . S
C487 O470 1.242 . S
C488 O473 1.261 . S
C488 O474 1.252 . S
C489 C492 1.394 . S
C489 C494 1.370 . S
C489 C495 1.500 . S
C490 C493 1.383 . S
C490 C494 1.395 . S
C491 C492 1.396 . S
C491 C493 1.365 . S
C491 H500 0.929 . S
C492 C489 1.394 . S
C492 C491 1.396 . S
C492 H501 0.930 . S
C493 C490 1.383 . S
C493 C491 1.365 . S
C493 H502 0.931 . S
C494 C489 1.370 . S
C494 C490 1.395 . S
C494 H503 0.930 . S
C495 Gd431 2.805 . S
C495 O471 1.263 . S
C495 O472 1.252 . S
C495 C489 1.500 . S
H496 C479 0.929 . S
H497 C480 0.930 . S
H498 C481 0.931 . S
H499 C482 0.930 . S
H500 C491 0.929 . S
H501 C492 0.930 . S
H502 C493 0.931 . S
H503 C494 0.930 . S
C504 C506 1.422 . S
C504 C508 1.415 . S
C504 N510 1.369 . S
C505 C506 1.421 . S
C505 C507 1.417 . S
C505 C517 1.422 . S
C506 C504 1.422 . S
C506 C505 1.421 . S
C506 N516 1.359 . S
C507 C505 1.417 . S
C507 C509 1.329 . S
C507 H526 0.930 . S
C508 C504 1.415 . S
C508 C509 1.437 . S
C508 C512 1.413 . S
C509 C507 1.329 . S
C509 C508 1.437 . S
C509 H531 0.929 . S
N510 C504 1.369 . S
N510 C511 1.338 . S
N510 Gd515 2.622 . S
C511 N510 1.338 . S
C511 C513 1.378 . S
C511 H523 0.929 . S
C512 C508 1.413 . S
C512 C513 1.348 . S
C512 H528 0.931 . S
C513 C511 1.378 . S
C513 C512 1.348 . S
C513 H529 0.930 . S
Gd514 N534 2.622 1_545 S
Gd514 N541 2.570 1_545 S
Gd514 O548 2.353 . S
Gd514 O549 2.468 . S
Gd514 O550 2.427 . S
Gd514 O552 2.388 . S
Gd514 O553 2.386 1_545 S
Gd514 O557 2.307 . S
Gd514 C567 2.805 . S
Gd515 N510 2.622 . S
Gd515 N516 2.570 . S
Gd515 O547 2.386 . S
Gd515 O551 2.307 . S
Gd515 O554 2.353 1_545 S
Gd515 O555 2.468 . S
Gd515 O556 2.427 . S
Gd515 O558 2.388 . S
Gd515 C579 2.805 . S
N516 C506 1.359 . S
N516 Gd515 2.570 . S
N516 C518 1.343 . S
C517 C505 1.422 . S
C517 C519 1.321 . S
C517 H525 0.931 . S
C518 N516 1.343 . S
C518 C519 1.390 . S
C518 H520 0.931 . S
C519 C517 1.321 . S
C519 C518 1.390 . S
C519 H521 0.930 . S
H520 C518 0.931 . S
H521 C519 0.930 . S
H522 C545 0.931 . S
H523 C511 0.929 . S
H524 C546 0.930 . S
H525 C517 0.931 . S
H526 C507 0.930 . S
H527 C536 0.929 1_545 S
H528 C512 0.931 . S
H529 C513 0.930 . S
H530 C568 0.930 . S
H531 C509 0.929 . S
H532 C537 0.931 . S
H533 C538 0.930 . S
N534 Gd514 2.622 1_565 S
N534 C535 1.369 . S
N534 C536 1.338 . S
C535 N534 1.369 . S
C535 C539 1.415 . S
C535 C542 1.422 . S
C536 H527 0.929 1_565 S
C536 N534 1.338 . S
C536 C538 1.378 . S
C537 H532 0.931 . S
C537 C538 1.348 . S
C537 C539 1.413 . S
C538 H533 0.930 . S
C538 C536 1.378 . S
C538 C537 1.348 . S
C539 C535 1.415 . S
C539 C537 1.413 . S
C539 C569 1.437 . S
H540 C569 0.929 . S
N541 Gd514 2.570 1_565 S
N541 C542 1.359 . S
N541 C545 1.343 . S
C542 C535 1.422 . S
C542 N541 1.359 . S
C542 C544 1.421 . S
C543 C544 1.422 . S
C543 C546 1.321 . S
C543 H570 0.931 . S
C544 C542 1.421 . S
C544 C543 1.422 . S
C544 C568 1.417 . S
C545 H522 0.931 . S
C545 N541 1.343 . S
C545 C546 1.390 . S
C546 H524 0.930 . S
C546 C543 1.321 . S
C546 C545 1.390 . S
O547 Gd515 2.386 . S
O547 C559 1.265 . S
O548 Gd514 2.353 . S
O548 C559 1.242 . S
O549 Gd514 2.468 . S
O549 C567 1.263 . S
O550 Gd514 2.427 . S
O550 C567 1.252 . S
O551 Gd515 2.307 . S
O551 C560 1.261 . S
O552 Gd514 2.388 . S
O552 C560 1.252 . S
O553 Gd514 2.386 1_565 S
O553 C571 1.265 . S
O554 Gd515 2.353 1_565 S
O554 C571 1.242 . S
O555 Gd515 2.468 . S
O555 C579 1.263 . S
O556 Gd515 2.427 . S
O556 C579 1.252 . S
O557 Gd514 2.307 . S
O557 C572 1.261 . S
O558 Gd515 2.388 . S
O558 C572 1.252 . S
C559 O547 1.265 . S
C559 O548 1.242 . S
C560 O551 1.261 . S
C560 O552 1.252 . S
C561 C564 1.394 . S
C561 C566 1.370 . S
C561 C567 1.500 . S
C562 C565 1.383 . S
C562 C566 1.395 . S
C563 C564 1.396 . S
C563 C565 1.365 . S
C563 H580 0.929 . S
C564 C561 1.394 . S
C564 C563 1.396 . S
C564 H581 0.930 . S
C565 C562 1.383 . S
C565 C563 1.365 . S
C565 H582 0.931 . S
C566 C561 1.370 . S
C566 C562 1.395 . S
C566 H583 0.930 . S
C567 Gd514 2.805 . S
C567 O549 1.263 . S
C567 O550 1.252 . S
C567 C561 1.500 . S
C568 H530 0.930 . S
C568 C544 1.417 . S
C568 C569 1.329 . S
C569 C539 1.437 . S
C569 H540 0.929 . S
C569 C568 1.329 . S
H570 C543 0.931 . S
C571 O553 1.265 . S
C571 O554 1.242 . S
C572 O557 1.261 . S
C572 O558 1.252 . S
C573 C576 1.394 . S
C573 C578 1.370 . S
C573 C579 1.500 1_565 S
C574 C577 1.383 . S
C574 C578 1.395 . S
C575 C576 1.396 . S
C575 C577 1.365 . S
C575 H584 0.929 . S
C576 C573 1.394 . S
C576 C575 1.396 . S
C576 H585 0.930 . S
C577 C574 1.383 . S
C577 C575 1.365 . S
C577 H586 0.931 . S
C578 C573 1.370 . S
C578 C574 1.395 . S
C578 H587 0.930 . S
C579 Gd515 2.805 . S
C579 O555 1.263 . S
C579 O556 1.252 . S
C579 C573 1.500 1_545 S
H580 C563 0.929 . S
H581 C564 0.930 . S
H582 C565 0.931 . S
H583 C566 0.930 . S
H584 C575 0.929 . S
H585 C576 0.930 . S
H586 C577 0.931 . S
H587 C578 0.930 . S
C588 C590 1.422 . S
C588 C592 1.415 . S
C588 N594 1.369 . S
C589 C590 1.421 . S
C589 C591 1.417 . S
C589 C601 1.422 . S
C590 C588 1.422 . S
C590 C589 1.421 . S
C590 N600 1.359 . S
C591 C589 1.417 . S
C591 C593 1.329 . S
C591 H610 0.930 . S
C592 C588 1.415 . S
C592 C593 1.437 . S
C592 C596 1.413 . S
C593 C591 1.329 . S
C593 C592 1.437 . S
C593 H615 0.929 . S
N594 C588 1.369 . S
N594 C595 1.338 . S
N594 Gd599 2.622 . S
C595 N594 1.338 . S
C595 C597 1.378 . S
C595 H607 0.929 . S
C596 C592 1.413 . S
C596 C597 1.348 . S
C596 H612 0.931 . S
C597 C595 1.378 . S
C597 C596 1.348 . S
C597 H613 0.930 . S
Gd598 N618 2.622 . S
Gd598 N625 2.570 . S
Gd598 O632 2.353 . S
Gd598 O633 2.468 . S
Gd598 O634 2.427 . S
Gd598 O636 2.388 . S
Gd598 O637 2.386 . S
Gd598 O641 2.307 . S
Gd598 C651 2.805 . S
Gd599 N594 2.622 . S
Gd599 N600 2.570 . S
Gd599 O631 2.386 . S
Gd599 O635 2.307 . S
Gd599 O638 2.353 . S
Gd599 O639 2.468 . S
Gd599 O640 2.427 . S
Gd599 O642 2.388 . S
Gd599 C663 2.805 . S
N600 C590 1.359 . S
N600 Gd599 2.570 . S
N600 C602 1.343 . S
C601 C589 1.422 . S
C601 C603 1.321 . S
C601 H609 0.931 . S
C602 N600 1.343 . S
C602 C603 1.390 . S
C602 H604 0.931 . S
C603 C601 1.321 . S
C603 C602 1.390 . S
C603 H605 0.930 . S
H604 C602 0.931 . S
H605 C603 0.930 . S
H606 C629 0.931 . S
H607 C595 0.929 . S
H608 C630 0.930 . S
H609 C601 0.931 . S
H610 C591 0.930 . S
H611 C620 0.929 . S
H612 C596 0.931 . S
H613 C597 0.930 . S
H614 C652 0.930 . S
H615 C593 0.929 . S
H616 C621 0.931 . S
H617 C622 0.930 . S
N618 Gd598 2.622 . S
N618 C619 1.369 . S
N618 C620 1.338 . S
C619 N618 1.369 . S
C619 C623 1.415 . S
C619 C626 1.422 . S
C620 H611 0.929 . S
C620 N618 1.338 . S
C620 C622 1.378 . S
C621 H616 0.931 . S
C621 C622 1.348 . S
C621 C623 1.413 . S
C622 H617 0.930 . S
C622 C620 1.378 . S
C622 C621 1.348 . S
C623 C619 1.415 . S
C623 C621 1.413 . S
C623 C653 1.437 . S
H624 C653 0.929 . S
N625 Gd598 2.570 . S
N625 C626 1.359 . S
N625 C629 1.343 . S
C626 C619 1.422 . S
C626 N625 1.359 . S
C626 C628 1.421 . S
C627 C628 1.422 . S
C627 C630 1.321 . S
C627 H654 0.931 . S
C628 C626 1.421 . S
C628 C627 1.422 . S
C628 C652 1.417 . S
C629 H606 0.931 . S
C629 N625 1.343 . S
C629 C630 1.390 . S
C630 H608 0.930 . S
C630 C627 1.321 . S
C630 C629 1.390 . S
O631 Gd599 2.386 . S
O631 C643 1.265 . S
O632 Gd598 2.353 . S
O632 C643 1.242 . S
O633 Gd598 2.468 . S
O633 C651 1.263 . S
O634 Gd598 2.427 . S
O634 C651 1.252 . S
O635 Gd599 2.307 . S
O635 C644 1.261 . S
O636 Gd598 2.388 . S
O636 C644 1.252 . S
O637 Gd598 2.386 . S
O637 C655 1.265 . S
O638 Gd599 2.353 . S
O638 C655 1.242 . S
O639 Gd599 2.468 . S
O639 C663 1.263 . S
O640 Gd599 2.427 . S
O640 C663 1.252 . S
O641 Gd598 2.307 . S
O641 C656 1.261 . S
O642 Gd599 2.388 . S
O642 C656 1.252 . S
C643 O631 1.265 . S
C643 O632 1.242 . S
C644 O635 1.261 . S
C644 O636 1.252 . S
C645 C648 1.394 . S
C645 C650 1.370 . S
C645 C651 1.500 . S
C646 C649 1.383 . S
C646 C650 1.395 . S
C647 C648 1.396 . S
C647 C649 1.365 . S
C647 H664 0.929 . S
C648 C645 1.394 . S
C648 C647 1.396 . S
C648 H665 0.930 . S
C649 C646 1.383 . S
C649 C647 1.365 . S
C649 H666 0.931 . S
C650 C645 1.370 . S
C650 C646 1.395 . S
C650 H667 0.930 . S
C651 Gd598 2.805 . S
C651 O633 1.263 . S
C651 O634 1.252 . S
C651 C645 1.500 . S
C652 H614 0.930 . S
C652 C628 1.417 . S
C652 C653 1.329 . S
C653 C623 1.437 . S
C653 H624 0.929 . S
C653 C652 1.329 . S
H654 C627 0.931 . S
C655 O637 1.265 . S
C655 O638 1.242 . S
C656 O641 1.261 . S
C656 O642 1.252 . S
C657 C660 1.394 . S
C657 C662 1.370 . S
C657 C663 1.500 . S
C658 C661 1.383 . S
C658 C662 1.395 . S
C659 C660 1.396 . S
C659 C661 1.365 . S
C659 H668 0.929 . S
C660 C657 1.394 . S
C660 C659 1.396 . S
C660 H669 0.930 . S
C661 C658 1.383 . S
C661 C659 1.365 . S
C661 H670 0.931 . S
C662 C657 1.370 . S
C662 C658 1.395 . S
C662 H671 0.930 . S
C663 Gd599 2.805 . S
C663 O639 1.263 . S
C663 O640 1.252 . S
C663 C657 1.500 . S
H664 C647 0.929 . S
H665 C648 0.930 . S
H666 C649 0.931 . S
H667 C650 0.930 . S
H668 C659 0.929 . S
H669 C660 0.930 . S
H670 C661 0.931 . S
H671 C662 0.930 . S
C672 C674 1.422 . S
C672 C676 1.415 1_455 S
C672 N678 1.369 1_455 S
C673 C674 1.421 . S
C673 C675 1.417 . S
C673 C685 1.422 . S
C674 C672 1.422 . S
C674 C673 1.421 . S
C674 N684 1.359 . S
C675 C673 1.417 . S
C675 C677 1.329 . S
C675 H694 0.930 . S
C676 C672 1.415 1_655 S
C676 C677 1.437 1_655 S
C676 C680 1.413 . S
C677 C675 1.329 . S
C677 C676 1.437 1_455 S
C677 H699 0.951 . S
N678 C672 1.369 1_655 S
N678 C679 1.338 . S
N678 Gd683 2.622 1_655 S
C679 N678 1.338 . S
C679 C681 1.378 . S
C679 H691 0.929 . S
C680 C676 1.413 . S
C680 C681 1.348 . S
C680 H696 0.931 . S
C681 C679 1.378 . S
C681 C680 1.348 . S
C681 H697 0.930 . S
Gd682 N702 2.622 . S
Gd682 N709 2.570 . S
Gd682 O716 2.353 1_565 S
Gd682 O717 2.468 . S
Gd682 O718 2.427 . S
Gd682 O720 2.388 1_565 S
Gd682 O721 2.386 1_565 S
Gd682 O725 2.307 1_565 S
Gd682 C735 2.805 . S
Gd683 N678 2.622 1_455 S
Gd683 N684 2.570 . S
Gd683 O715 2.386 . S
Gd683 O719 2.307 . S
Gd683 O722 2.353 . S
Gd683 O723 2.468 . S
Gd683 O724 2.427 1_455 S
Gd683 O726 2.388 1_455 S
Gd683 C747 2.805 . S
N684 C674 1.359 . S
N684 Gd683 2.570 . S
N684 C686 1.343 . S
C685 C673 1.422 . S
C685 C687 1.321 . S
C685 H693 0.931 . S
C686 N684 1.343 . S
C686 C687 1.390 . S
C686 H688 0.931 . S
C687 C685 1.321 . S
C687 C686 1.390 . S
C687 H689 0.930 . S
H688 C686 0.931 . S
H689 C687 0.930 . S
H690 C713 0.931 1_655 S
H691 C679 0.929 . S
H692 C714 0.930 . S
H693 C685 0.931 . S
H694 C675 0.930 . S
H695 C704 0.929 1_545 S
H696 C680 0.931 . S
H697 C681 0.930 . S
H698 C736 0.930 . S
H699 C677 0.951 . S
H700 C705 0.931 . S
H701 C706 0.930 . S
N702 Gd682 2.622 . S
N702 C703 1.369 . S
N702 C704 1.338 . S
C703 N702 1.369 . S
C703 C707 1.415 . S
C703 C710 1.422 . S
C704 H695 0.929 1_565 S
C704 N702 1.338 . S
C704 C706 1.378 . S
C705 H700 0.931 . S
C705 C706 1.348 . S
C705 C707 1.413 . S
C706 H701 0.930 . S
C706 C704 1.378 . S
C706 C705 1.348 . S
C707 C703 1.415 . S
C707 C705 1.413 . S
C707 C737 1.437 . S
H708 C737 0.929 . S
N709 Gd682 2.570 . S
N709 C710 1.359 . S
N709 C713 1.343 . S
C710 C703 1.422 . S
C710 N709 1.359 . S
C710 C712 1.421 . S
C711 C712 1.422 . S
C711 C714 1.321 1_455 S
C711 H738 0.931 1_455 S
C712 C710 1.421 . S
C712 C711 1.422 . S
C712 C736 1.417 . S
C713 H690 0.931 1_455 S
C713 N709 1.343 . S
C713 C714 1.390 1_455 S
C714 H692 0.930 . S
C714 C711 1.321 1_655 S
C714 C713 1.390 1_655 S
O715 Gd683 2.386 . S
O715 C727 1.265 . S
O716 Gd682 2.353 1_545 S
O716 C727 1.242 . S
O717 Gd682 2.468 . S
O717 C735 1.263 . S
O718 Gd682 2.427 . S
O718 C735 1.252 . S
O719 Gd683 2.307 . S
O719 C728 1.261 . S
O720 Gd682 2.388 1_545 S
O720 C728 1.252 . S
O721 Gd682 2.386 1_545 S
O721 C739 1.265 . S
O722 Gd683 2.353 . S
O722 C739 1.242 . S
O723 Gd683 2.468 . S
O723 C747 1.263 . S
O724 Gd683 2.427 1_655 S
O724 C747 1.252 1_655 S
O725 Gd682 2.307 1_545 S
O725 C740 1.261 1_455 S
O726 Gd683 2.388 1_655 S
O726 C740 1.252 . S
C727 O715 1.265 . S
C727 O716 1.242 . S
C728 O719 1.261 . S
C728 O720 1.252 . S
C729 C732 1.394 . S
C729 C734 1.370 . S
C729 C735 1.500 . S
C730 C733 1.383 . S
C730 C734 1.395 . S
C731 C732 1.396 . S
C731 C733 1.365 . S
C731 H748 0.929 . S
C732 C729 1.394 . S
C732 C731 1.396 . S
C732 H749 0.930 . S
C733 C730 1.383 . S
C733 C731 1.365 . S
C733 H750 0.931 . S
C734 C729 1.370 . S
C734 C730 1.395 . S
C734 H751 0.930 . S
C735 Gd682 2.805 . S
C735 O717 1.263 . S
C735 O718 1.252 . S
C735 C729 1.500 . S
C736 H698 0.930 . S
C736 C712 1.417 . S
C736 C737 1.329 . S
C737 C707 1.437 . S
C737 H708 0.929 . S
C737 C736 1.329 . S
H738 C711 0.931 1_655 S
C739 O721 1.265 . S
C739 O722 1.242 . S
C740 O725 1.261 1_655 S
C740 O726 1.252 . S
C741 C744 1.394 1_455 S
C741 C746 1.370 . S
C741 C747 1.500 . S
C742 C745 1.383 . S
C742 C746 1.395 . S
C743 C744 1.396 . S
C743 C745 1.365 1_655 S
C743 H752 0.929 . S
C744 C741 1.394 1_655 S
C744 C743 1.396 . S
C744 H753 0.930 . S
C745 C742 1.383 . S
C745 C743 1.365 1_455 S
C745 H754 0.924 1_455 S
C746 C741 1.370 . S
C746 C742 1.395 . S
C746 H755 0.930 . S
C747 Gd683 2.805 . S
C747 O723 1.263 . S
C747 O724 1.252 1_455 S
C747 C741 1.500 . S
H748 C731 0.929 . S
H749 C732 0.930 . S
H750 C733 0.931 . S
H751 C734 0.930 . S
H752 C743 0.929 . S
H753 C744 0.930 . S
H754 C745 0.924 1_655 S
H755 C746 0.930 . S
C756 C758 1.422 . S
C756 C760 1.415 . S
C756 N762 1.369 . S
C757 C758 1.421 . S
C757 C759 1.417 . S
C757 C769 1.422 . S
C758 C756 1.422 . S
C758 C757 1.421 . S
C758 N768 1.359 . S
C759 C757 1.417 . S
C759 C761 1.329 . S
C759 H778 0.930 . S
C760 C756 1.415 . S
C760 C761 1.437 . S
C760 C764 1.413 . S
C761 C759 1.329 . S
C761 C760 1.437 . S
C761 H783 0.929 . S
N762 C756 1.369 . S
N762 C763 1.338 . S
N762 Gd767 2.622 . S
C763 N762 1.338 . S
C763 C765 1.378 . S
C763 H775 0.929 . S
C764 C760 1.413 . S
C764 C765 1.348 . S
C764 H780 0.931 . S
C765 C763 1.378 . S
C765 C764 1.348 . S
C765 H781 0.930 . S
Gd766 N786 2.622 . S
Gd766 N793 2.570 . S
Gd766 O800 2.353 . S
Gd766 O801 2.468 . S
Gd766 O802 2.427 . S
Gd766 O804 2.388 . S
Gd766 O805 2.386 . S
Gd766 O809 2.307 . S
Gd766 C819 2.805 . S
Gd767 N762 2.622 . S
Gd767 N768 2.570 . S
Gd767 O799 2.386 . S
Gd767 O803 2.307 . S
Gd767 O806 2.353 . S
Gd767 O807 2.468 . S
Gd767 O808 2.427 . S
Gd767 O810 2.388 . S
Gd767 C831 2.805 . S
N768 C758 1.359 . S
N768 Gd767 2.570 . S
N768 C770 1.343 . S
C769 C757 1.422 . S
C769 C771 1.321 . S
C769 H777 0.931 . S
C770 N768 1.343 . S
C770 C771 1.390 . S
C770 H772 0.931 . S
C771 C769 1.321 . S
C771 C770 1.390 . S
C771 H773 0.930 . S
H772 C770 0.931 . S
H773 C771 0.930 . S
H774 C797 0.931 . S
H775 C763 0.929 . S
H776 C798 0.930 . S
H777 C769 0.931 . S
H778 C759 0.930 . S
H779 C788 0.929 . S
H780 C764 0.931 . S
H781 C765 0.930 . S
H782 C820 0.930 . S
H783 C761 0.929 . S
H784 C789 0.931 . S
H785 C790 0.930 . S
N786 Gd766 2.622 . S
N786 C787 1.369 . S
N786 C788 1.338 . S
C787 N786 1.369 . S
C787 C791 1.415 . S
C787 C794 1.422 . S
C788 H779 0.929 . S
C788 N786 1.338 . S
C788 C790 1.378 . S
C789 H784 0.931 . S
C789 C790 1.348 . S
C789 C791 1.413 . S
C790 H785 0.930 . S
C790 C788 1.378 . S
C790 C789 1.348 . S
C791 C787 1.415 . S
C791 C789 1.413 . S
C791 C821 1.437 . S
H792 C821 0.929 . S
N793 Gd766 2.570 . S
N793 C794 1.359 . S
N793 C797 1.343 . S
C794 C787 1.422 . S
C794 N793 1.359 . S
C794 C796 1.421 . S
C795 C796 1.422 . S
C795 C798 1.321 . S
C795 H822 0.931 . S
C796 C794 1.421 . S
C796 C795 1.422 . S
C796 C820 1.417 . S
C797 H774 0.931 . S
C797 N793 1.343 . S
C797 C798 1.390 . S
C798 H776 0.930 . S
C798 C795 1.321 . S
C798 C797 1.390 . S
O799 Gd767 2.386 . S
O799 C811 1.265 . S
O800 Gd766 2.353 . S
O800 C811 1.242 . S
O801 Gd766 2.468 . S
O801 C819 1.263 . S
O802 Gd766 2.427 . S
O802 C819 1.252 . S
O803 Gd767 2.307 . S
O803 C812 1.261 . S
O804 Gd766 2.388 . S
O804 C812 1.252 . S
O805 Gd766 2.386 . S
O805 C823 1.265 . S
O806 Gd767 2.353 . S
O806 C823 1.242 . S
O807 Gd767 2.468 . S
O807 C831 1.263 . S
O808 Gd767 2.427 . S
O808 C831 1.252 . S
O809 Gd766 2.307 . S
O809 C824 1.261 . S
O810 Gd767 2.388 . S
O810 C824 1.252 . S
C811 O799 1.265 . S
C811 O800 1.242 . S
C812 O803 1.261 . S
C812 O804 1.252 . S
C813 C816 1.394 . S
C813 C818 1.370 . S
C813 C819 1.500 . S
C814 C817 1.383 . S
C814 C818 1.395 . S
C815 C816 1.396 . S
C815 C817 1.365 . S
C815 H832 0.929 . S
C816 C813 1.394 . S
C816 C815 1.396 . S
C816 H833 0.930 . S
C817 C814 1.383 . S
C817 C815 1.365 . S
C817 H834 0.931 . S
C818 C813 1.370 . S
C818 C814 1.395 . S
C818 H835 0.930 . S
C819 Gd766 2.805 . S
C819 O801 1.263 . S
C819 O802 1.252 . S
C819 C813 1.500 . S
C820 H782 0.930 . S
C820 C796 1.417 . S
C820 C821 1.329 . S
C821 C791 1.437 . S
C821 H792 0.929 . S
C821 C820 1.329 . S
H822 C795 0.931 . S
C823 O805 1.265 . S
C823 O806 1.242 . S
C824 O809 1.261 . S
C824 O810 1.252 . S
C825 C828 1.394 . S
C825 C830 1.370 . S
C825 C831 1.500 . S
C826 C829 1.383 . S
C826 C830 1.395 . S
C827 C828 1.396 . S
C827 C829 1.365 . S
C827 H836 0.929 . S
C828 C825 1.394 . S
C828 C827 1.396 . S
C828 H837 0.930 . S
C829 C826 1.383 . S
C829 C827 1.365 . S
C829 H838 0.931 . S
C830 C825 1.370 . S
C830 C826 1.395 . S
C830 H839 0.930 . S
C831 Gd767 2.805 . S
C831 O807 1.263 . S
C831 O808 1.252 . S
C831 C825 1.500 . S
H832 C815 0.929 . S
H833 C816 0.930 . S
H834 C817 0.931 . S
H835 C818 0.930 . S
H836 C827 0.929 . S
H837 C828 0.930 . S
H838 C829 0.931 . S
H839 C830 0.930 . S
C840 C842 1.446 . S
C840 C844 1.398 1_545 S
C840 N846 1.364 1_545 S
C841 C842 1.421 . S
C841 C843 1.417 . S
C841 C853 1.422 . S
C842 C840 1.446 . S
C842 C841 1.421 . S
C842 N852 1.359 . S
C843 C841 1.417 . S
C843 C845 1.345 . S
C843 H862 0.930 . S
C844 C840 1.398 1_565 S
C844 C845 1.433 1_565 S
C844 C848 1.413 . S
C845 C843 1.345 . S
C845 C844 1.433 1_545 S
C845 H867 0.918 1_545 S
N846 C840 1.364 1_565 S
N846 C847 1.338 . S
N846 Gd851 2.622 1_565 S
C847 N846 1.338 . S
C847 C849 1.378 . S
C847 H859 0.929 . S
C848 C844 1.413 . S
C848 C849 1.348 . S
C848 H864 0.931 . S
C849 C847 1.378 . S
C849 C848 1.348 . S
C849 H865 0.930 . S
Gd850 N870 2.622 . S
Gd850 N877 2.570 . S
Gd850 O884 2.353 1_556 S
Gd850 O885 2.468 . S
Gd850 O886 2.427 . S
Gd850 O888 2.388 1_556 S
Gd850 O889 2.386 1_556 S
Gd850 O893 2.307 . S
Gd850 C903 2.805 . S
Gd851 N846 2.622 1_545 S
Gd851 N852 2.570 . S
Gd851 O883 2.386 . S
Gd851 O887 2.307 . S
Gd851 O890 2.353 . S
Gd851 O891 2.468 . S
Gd851 O892 2.427 1_545 S
Gd851 O894 2.388 1_545 S
Gd851 C915 2.805 . S
N852 C842 1.359 . S
N852 Gd851 2.570 . S
N852 C854 1.343 . S
C853 C841 1.422 . S
C853 C855 1.321 . S
C853 H861 0.931 . S
C854 N852 1.343 . S
C854 C855 1.390 . S
C854 H856 0.931 . S
C855 C853 1.321 . S
C855 C854 1.390 . S
C855 H857 0.930 . S
H856 C854 0.931 . S
H857 C855 0.930 . S
H858 C881 0.931 1_565 S
H859 C847 0.929 . S
H860 C882 0.930 . S
H861 C853 0.931 . S
H862 C843 0.930 . S
H863 C872 0.913 1_554 S
H864 C848 0.931 . S
H865 C849 0.930 . S
H866 C904 0.930 . S
H867 C845 0.918 1_565 S
H868 C873 0.931 . S
H869 C874 0.930 . S
N870 Gd850 2.622 . S
N870 C871 1.369 . S
N870 C872 1.338 . S
C871 N870 1.369 . S
C871 C875 1.415 . S
C871 C878 1.422 . S
C872 H863 0.913 1_556 S
C872 N870 1.338 . S
C872 C874 1.378 . S
C873 H868 0.931 . S
C873 C874 1.348 . S
C873 C875 1.413 . S
C874 H869 0.930 . S
C874 C872 1.378 . S
C874 C873 1.348 . S
C875 C871 1.415 . S
C875 C873 1.413 . S
C875 C905 1.437 . S
H876 C905 0.929 . S
N877 Gd850 2.570 . S
N877 C878 1.359 . S
N877 C881 1.343 . S
C878 C871 1.422 . S
C878 N877 1.359 . S
C878 C880 1.421 . S
C879 C880 1.422 . S
C879 C882 1.321 1_545 S
C879 H906 0.931 1_545 S
C880 C878 1.421 . S
C880 C879 1.422 . S
C880 C904 1.417 . S
C881 H858 0.931 1_545 S
C881 N877 1.343 . S
C881 C882 1.390 1_545 S
C882 H860 0.930 . S
C882 C879 1.321 1_565 S
C882 C881 1.390 1_565 S
O883 Gd851 2.386 . S
O883 C895 1.265 . S
O884 Gd850 2.353 1_554 S
O884 C895 1.242 . S
O885 Gd850 2.468 . S
O885 C903 1.263 . S
O886 Gd850 2.427 . S
O886 C903 1.252 . S
O887 Gd851 2.307 . S
O887 C896 1.261 . S
O888 Gd850 2.388 1_554 S
O888 C896 1.252 . S
O889 Gd850 2.386 1_554 S
O889 C907 1.265 . S
O890 Gd851 2.353 . S
O890 C907 1.242 . S
O891 Gd851 2.468 . S
O891 C915 1.263 . S
O892 Gd851 2.427 1_565 S
O892 C915 1.252 1_565 S
O893 Gd850 2.307 . S
O893 C908 1.261 1_546 S
O894 Gd851 2.388 1_565 S
O894 C908 1.252 . S
C895 O883 1.265 . S
C895 O884 1.242 . S
C896 O887 1.261 . S
C896 O888 1.252 . S
C897 C900 1.394 . S
C897 C902 1.370 . S
C897 C903 1.500 . S
C898 C901 1.383 . S
C898 C902 1.395 . S
C899 C900 1.396 . S
C899 C901 1.365 . S
C899 H916 0.929 . S
C900 C897 1.394 . S
C900 C899 1.396 . S
C900 H917 0.930 . S
C901 C898 1.383 . S
C901 C899 1.365 . S
C901 H918 0.931 . S
C902 C897 1.370 . S
C902 C898 1.395 . S
C902 H919 0.930 . S
C903 Gd850 2.805 . S
C903 O885 1.263 . S
C903 O886 1.252 . S
C903 C897 1.500 . S
C904 H866 0.930 . S
C904 C880 1.417 . S
C904 C905 1.329 . S
C905 C875 1.437 . S
C905 H876 0.929 . S
C905 C904 1.329 . S
H906 C879 0.931 1_565 S
C907 O889 1.265 . S
C907 O890 1.242 . S
C908 O893 1.261 1_564 S
C908 O894 1.252 . S
C909 C912 1.394 . S
C909 C914 1.370 1_565 S
C909 C915 1.500 1_565 S
C910 C913 1.383 1_545 S
C910 C914 1.395 . S
C911 C912 1.396 . S
C911 C913 1.365 . S
C911 H920 0.929 . S
C912 C909 1.394 . S
C912 C911 1.396 . S
C912 H921 0.930 . S
C913 C910 1.383 1_565 S
C913 C911 1.365 . S
C913 H922 0.931 . S
C914 C909 1.370 1_545 S
C914 C910 1.395 . S
C914 H923 0.930 . S
C915 Gd851 2.805 . S
C915 O891 1.263 . S
C915 O892 1.252 1_545 S
C915 C909 1.500 1_545 S
H916 C899 0.929 . S
H917 C900 0.930 . S
H918 C901 0.931 . S
H919 C902 0.930 . S
H920 C911 0.929 . S
H921 C912 0.930 . S
H922 C913 0.931 . S
H923 C914 0.930 . S
C924 C926 1.422 . S
C924 C928 1.415 . S
C924 N930 1.369 . S
C925 C926 1.421 . S
C925 C927 1.417 . S
C925 C937 1.422 . S
C926 C924 1.422 . S
C926 C925 1.421 . S
C926 N936 1.359 . S
C927 C925 1.417 . S
C927 C929 1.329 . S
C927 H946 0.930 . S
C928 C924 1.415 . S
C928 C929 1.437 . S
C928 C932 1.413 . S
C929 C927 1.329 . S
C929 C928 1.437 . S
C929 H951 0.929 . S
N930 C924 1.369 . S
N930 C931 1.338 . S
N930 Gd935 2.622 . S
C931 N930 1.338 . S
C931 C933 1.378 . S
C931 H943 0.929 . S
C932 C928 1.413 . S
C932 C933 1.348 . S
C932 H948 0.931 . S
C933 C931 1.378 . S
C933 C932 1.348 . S
C933 H949 0.930 . S
Gd934 N954 2.622 . S
Gd934 N961 2.570 . S
Gd934 O968 2.353 . S
Gd934 O969 2.468 . S
Gd934 O970 2.427 . S
Gd934 O972 2.388 . S
Gd934 O973 2.386 . S
Gd934 O977 2.307 . S
Gd934 C987 2.805 . S
Gd935 N930 2.622 . S
Gd935 N936 2.570 . S
Gd935 O967 2.386 . S
Gd935 O971 2.307 . S
Gd935 O974 2.353 . S
Gd935 O975 2.468 . S
Gd935 O976 2.427 . S
Gd935 O978 2.388 . S
Gd935 C999 2.805 . S
N936 C926 1.359 . S
N936 Gd935 2.570 . S
N936 C938 1.343 . S
C937 C925 1.422 . S
C937 C939 1.321 . S
C937 H945 0.931 . S
C938 N936 1.343 . S
C938 C939 1.390 . S
C938 H940 0.931 . S
C939 C937 1.321 . S
C939 C938 1.390 . S
C939 H941 0.930 . S
H940 C938 0.931 . S
H941 C939 0.930 . S
H942 C965 0.931 . S
H943 C931 0.929 . S
H944 C966 0.930 . S
H945 C937 0.931 . S
H946 C927 0.930 . S
H947 C956 0.929 . S
H948 C932 0.931 . S
H949 C933 0.930 . S
H950 C988 0.930 . S
H951 C929 0.929 . S
H952 C957 0.931 . S
H953 C958 0.930 . S
N954 Gd934 2.622 . S
N954 C955 1.369 . S
N954 C956 1.338 . S
C955 N954 1.369 . S
C955 C959 1.415 . S
C955 C962 1.422 . S
C956 H947 0.929 . S
C956 N954 1.338 . S
C956 C958 1.378 . S
C957 H952 0.931 . S
C957 C958 1.348 . S
C957 C959 1.413 . S
C958 H953 0.930 . S
C958 C956 1.378 . S
C958 C957 1.348 . S
C959 C955 1.415 . S
C959 C957 1.413 . S
C959 C989 1.437 . S
H960 C989 0.929 . S
N961 Gd934 2.570 . S
N961 C962 1.359 . S
N961 C965 1.343 . S
C962 C955 1.422 . S
C962 N961 1.359 . S
C962 C964 1.421 . S
C963 C964 1.422 . S
C963 C966 1.321 . S
C963 H990 0.931 . S
C964 C962 1.421 . S
C964 C963 1.422 . S
C964 C988 1.417 . S
C965 H942 0.931 . S
C965 N961 1.343 . S
C965 C966 1.390 . S
C966 H944 0.930 . S
C966 C963 1.321 . S
C966 C965 1.390 . S
O967 Gd935 2.386 . S
O967 C979 1.265 . S
O968 Gd934 2.353 . S
O968 C979 1.242 . S
O969 Gd934 2.468 . S
O969 C987 1.263 . S
O970 Gd934 2.427 . S
O970 C987 1.252 . S
O971 Gd935 2.307 . S
O971 C980 1.261 . S
O972 Gd934 2.388 . S
O972 C980 1.252 . S
O973 Gd934 2.386 . S
O973 C991 1.265 . S
O974 Gd935 2.353 . S
O974 C991 1.242 . S
O975 Gd935 2.468 . S
O975 C999 1.263 . S
O976 Gd935 2.427 . S
O976 C999 1.252 . S
O977 Gd934 2.307 . S
O977 C992 1.261 . S
O978 Gd935 2.388 . S
O978 C992 1.252 . S
C979 O967 1.265 . S
C979 O968 1.242 . S
C980 O971 1.261 . S
C980 O972 1.252 . S
C981 C984 1.394 . S
C981 C986 1.370 . S
C981 C987 1.500 . S
C982 C985 1.383 . S
C982 C986 1.395 . S
C983 C984 1.396 . S
C983 C985 1.365 . S
C983 H1000 0.929 . S
C984 C981 1.394 . S
C984 C983 1.396 . S
C984 H1001 0.930 . S
C985 C982 1.383 . S
C985 C983 1.365 . S
C985 H1002 0.931 . S
C986 C981 1.370 . S
C986 C982 1.395 . S
C986 H1003 0.930 . S
C987 Gd934 2.805 . S
C987 O969 1.263 . S
C987 O970 1.252 . S
C987 C981 1.500 . S
C988 H950 0.930 . S
C988 C964 1.417 . S
C988 C989 1.329 . S
C989 C959 1.437 . S
C989 H960 0.929 . S
C989 C988 1.329 . S
H990 C963 0.931 . S
C991 O973 1.265 . S
C991 O974 1.242 . S
C992 O977 1.261 . S
C992 O978 1.252 . S
C993 C996 1.394 . S
C993 C998 1.370 . S
C993 C999 1.500 . S
C994 C997 1.383 . S
C994 C998 1.395 . S
C995 C996 1.396 . S
C995 C997 1.365 . S
C995 H1004 0.929 . S
C996 C993 1.394 . S
C996 C995 1.396 . S
C996 H1005 0.930 . S
C997 C994 1.383 . S
C997 C995 1.365 . S
C997 H1006 0.931 . S
C998 C993 1.370 . S
C998 C994 1.395 . S
C998 H1007 0.930 . S
C999 Gd935 2.805 . S
C999 O975 1.263 . S
C999 O976 1.252 . S
C999 C993 1.500 . S
H1000 C983 0.929 . S
H1001 C984 0.930 . S
H1002 C985 0.931 . S
H1003 C986 0.930 . S
H1004 C995 0.929 . S
H1005 C996 0.930 . S
H1006 C997 0.931 . S
H1007 C998 0.930 . S
C1008 C1010 1.422 . S
C1008 C1012 1.415 . S
C1008 N1014 1.369 . S
C1009 C1010 1.421 . S
C1009 C1011 1.417 . S
C1009 C1021 1.422 . S
C1010 C1008 1.422 . S
C1010 C1009 1.421 . S
C1010 N1020 1.359 . S
C1011 C1009 1.417 . S
C1011 C1013 1.329 . S
C1011 H1030 0.930 . S
C1012 C1008 1.415 . S
C1012 C1013 1.437 . S
C1012 C1016 1.413 . S
C1013 C1011 1.329 . S
C1013 C1012 1.437 . S
C1013 H1035 0.929 . S
N1014 C1008 1.369 . S
N1014 C1015 1.338 . S
N1014 Gd1019 2.622 . S
C1015 N1014 1.338 . S
C1015 C1017 1.378 . S
C1015 H1027 0.929 . S
C1016 C1012 1.413 . S
C1016 C1017 1.348 . S
C1016 H1032 0.931 . S
C1017 C1015 1.378 . S
C1017 C1016 1.348 . S
C1017 H1033 0.930 . S
Gd1018 N1038 2.622 1_554 S
Gd1018 N1045 2.570 1_554 S
Gd1018 O1052 2.353 . S
Gd1018 O1053 2.468 . S
Gd1018 O1054 2.427 . S
Gd1018 O1056 2.388 . S
Gd1018 O1057 2.386 1_554 S
Gd1018 O1061 2.307 . S
Gd1018 C1071 2.805 . S
Gd1019 N1014 2.622 . S
Gd1019 N1020 2.570 . S
Gd1019 O1051 2.386 . S
Gd1019 O1055 2.307 . S
Gd1019 O1058 2.353 1_554 S
Gd1019 O1059 2.468 . S
Gd1019 O1060 2.427 . S
Gd1019 O1062 2.388 . S
Gd1019 C1083 2.805 . S
N1020 C1010 1.359 . S
N1020 Gd1019 2.570 . S
N1020 C1022 1.343 . S
C1021 C1009 1.422 . S
C1021 C1023 1.321 . S
C1021 H1029 0.931 . S
C1022 N1020 1.343 . S
C1022 C1023 1.390 . S
C1022 H1024 0.931 . S
C1023 C1021 1.321 . S
C1023 C1022 1.390 . S
C1023 H1025 0.930 . S
H1024 C1022 0.931 . S
H1025 C1023 0.930 . S
H1026 C1049 0.953 . S
H1027 C1015 0.929 . S
H1028 C1050 0.930 . S
H1029 C1021 0.931 . S
H1030 C1011 0.930 . S
H1031 C1040 0.911 1_554 S
H1032 C1016 0.931 . S
H1033 C1017 0.930 . S
H1034 C1072 0.930 . S
H1035 C1013 0.929 . S
H1036 C1041 0.931 . S
H1037 C1042 0.930 . S
N1038 Gd1018 2.622 1_556 S
N1038 C1039 1.369 . S
N1038 C1040 1.338 . S
C1039 N1038 1.369 . S
C1039 C1043 1.415 . S
C1039 C1046 1.422 . S
C1040 H1031 0.911 1_556 S
C1040 N1038 1.338 . S
C1040 C1042 1.378 . S
C1041 H1036 0.931 . S
C1041 C1042 1.348 . S
C1041 C1043 1.413 . S
C1042 H1037 0.930 . S
C1042 C1040 1.378 . S
C1042 C1041 1.348 . S
C1043 C1039 1.415 . S
C1043 C1041 1.413 . S
C1043 C1073 1.437 . S
H1044 C1073 0.929 . S
N1045 Gd1018 2.570 1_556 S
N1045 C1046 1.359 . S
N1045 C1049 1.343 . S
C1046 C1039 1.422 . S
C1046 N1045 1.359 . S
C1046 C1048 1.421 . S
C1047 C1048 1.422 . S
C1047 C1050 1.321 . S
C1047 H1074 0.931 . S
C1048 C1046 1.421 . S
C1048 C1047 1.422 . S
C1048 C1072 1.417 . S
C1049 H1026 0.953 . S
C1049 N1045 1.343 . S
C1049 C1050 1.390 . S
C1050 H1028 0.930 . S
C1050 C1047 1.321 . S
C1050 C1049 1.390 . S
O1051 Gd1019 2.386 . S
O1051 C1063 1.265 . S
O1052 Gd1018 2.353 . S
O1052 C1063 1.242 . S
O1053 Gd1018 2.468 . S
O1053 C1071 1.263 . S
O1054 Gd1018 2.427 . S
O1054 C1071 1.252 . S
O1055 Gd1019 2.307 . S
O1055 C1064 1.261 . S
O1056 Gd1018 2.388 . S
O1056 C1064 1.252 . S
O1057 Gd1018 2.386 1_556 S
O1057 C1075 1.265 . S
O1058 Gd1019 2.353 1_556 S
O1058 C1075 1.242 . S
O1059 Gd1019 2.468 . S
O1059 C1083 1.263 . S
O1060 Gd1019 2.427 . S
O1060 C1083 1.252 . S
O1061 Gd1018 2.307 . S
O1061 C1076 1.261 . S
O1062 Gd1019 2.388 . S
O1062 C1076 1.252 . S
C1063 O1051 1.265 . S
C1063 O1052 1.242 . S
C1064 O1055 1.261 . S
C1064 O1056 1.252 . S
C1065 C1068 1.394 . S
C1065 C1070 1.370 . S
C1065 C1071 1.500 . S
C1066 C1069 1.383 . S
C1066 C1070 1.395 . S
C1067 C1068 1.396 . S
C1067 C1069 1.365 . S
C1067 H1084 0.929 . S
C1068 C1065 1.394 . S
C1068 C1067 1.396 . S
C1068 H1085 0.930 . S
C1069 C1066 1.383 . S
C1069 C1067 1.365 . S
C1069 H1086 0.931 . S
C1070 C1065 1.370 . S
C1070 C1066 1.395 . S
C1070 H1087 0.930 . S
C1071 Gd1018 2.805 . S
C1071 O1053 1.263 . S
C1071 O1054 1.252 . S
C1071 C1065 1.500 . S
C1072 H1034 0.930 . S
C1072 C1048 1.417 . S
C1072 C1073 1.329 . S
C1073 C1043 1.437 . S
C1073 H1044 0.929 . S
C1073 C1072 1.329 . S
H1074 C1047 0.931 . S
C1075 O1057 1.265 . S
C1075 O1058 1.242 . S
C1076 O1061 1.261 . S
C1076 O1062 1.252 . S
C1077 C1080 1.394 . S
C1077 C1082 1.370 . S
C1077 C1083 1.500 1_556 S
C1078 C1081 1.383 . S
C1078 C1082 1.395 . S
C1079 C1080 1.396 . S
C1079 C1081 1.365 . S
C1079 H1088 0.929 . S
C1080 C1077 1.394 . S
C1080 C1079 1.396 . S
C1080 H1089 0.930 . S
C1081 C1078 1.383 . S
C1081 C1079 1.365 . S
C1081 H1090 0.931 . S
C1082 C1077 1.370 . S
C1082 C1078 1.395 . S
C1082 H1091 0.930 . S
C1083 Gd1019 2.805 . S
C1083 O1059 1.263 . S
C1083 O1060 1.252 . S
C1083 C1077 1.500 1_554 S
H1084 C1067 0.929 . S
H1085 C1068 0.930 . S
H1086 C1069 0.931 . S
H1087 C1070 0.930 . S
H1088 C1079 0.929 . S
H1089 C1080 0.930 . S
H1090 C1081 0.931 . S
H1091 C1082 0.930 . S
C1092 C1094 1.422 . S
C1092 C1096 1.415 . S
C1092 N1098 1.369 . S
C1093 C1094 1.421 . S
C1093 C1095 1.417 . S
C1093 C1105 1.422 . S
C1094 C1092 1.422 . S
C1094 C1093 1.421 . S
C1094 N1104 1.359 . S
C1095 C1093 1.417 . S
C1095 C1097 1.329 . S
C1095 H1114 0.930 . S
C1096 C1092 1.415 . S
C1096 C1097 1.437 . S
C1096 C1100 1.413 . S
C1097 C1095 1.329 . S
C1097 C1096 1.437 . S
C1097 H1119 0.929 . S
N1098 C1092 1.369 . S
N1098 C1099 1.338 . S
N1098 Gd1103 2.622 . S
C1099 N1098 1.338 . S
C1099 C1101 1.378 . S
C1099 H1111 0.929 . S
C1100 C1096 1.413 . S
C1100 C1101 1.348 . S
C1100 H1116 0.931 . S
C1101 C1099 1.378 . S
C1101 C1100 1.348 . S
C1101 H1117 0.930 . S
Gd1102 N1122 2.622 . S
Gd1102 N1129 2.570 . S
Gd1102 O1136 2.353 . S
Gd1102 O1137 2.468 . S
Gd1102 O1138 2.427 . S
Gd1102 O1140 2.388 . S
Gd1102 O1141 2.386 . S
Gd1102 O1145 2.307 . S
Gd1102 C1155 2.805 . S
Gd1103 N1098 2.622 . S
Gd1103 N1104 2.570 . S
Gd1103 O1135 2.386 . S
Gd1103 O1139 2.307 . S
Gd1103 O1142 2.353 . S
Gd1103 O1143 2.468 . S
Gd1103 O1144 2.427 . S
Gd1103 O1146 2.388 . S
Gd1103 C1167 2.805 . S
N1104 C1094 1.359 . S
N1104 Gd1103 2.570 . S
N1104 C1106 1.343 . S
C1105 C1093 1.422 . S
C1105 C1107 1.321 . S
C1105 H1113 0.931 . S
C1106 N1104 1.343 . S
C1106 C1107 1.390 . S
C1106 H1108 0.931 . S
C1107 C1105 1.321 . S
C1107 C1106 1.390 . S
C1107 H1109 0.930 . S
H1108 C1106 0.931 . S
H1109 C1107 0.930 . S
H1110 C1133 0.931 . S
H1111 C1099 0.929 . S
H1112 C1134 0.930 . S
H1113 C1105 0.931 . S
H1114 C1095 0.930 . S
H1115 C1124 0.929 . S
H1116 C1100 0.931 . S
H1117 C1101 0.930 . S
H1118 C1156 0.930 . S
H1119 C1097 0.929 . S
H1120 C1125 0.931 . S
H1121 C1126 0.930 . S
N1122 Gd1102 2.622 . S
N1122 C1123 1.369 . S
N1122 C1124 1.338 . S
C1123 N1122 1.369 . S
C1123 C1127 1.415 . S
C1123 C1130 1.422 . S
C1124 H1115 0.929 . S
C1124 N1122 1.338 . S
C1124 C1126 1.378 . S
C1125 H1120 0.931 . S
C1125 C1126 1.348 . S
C1125 C1127 1.413 . S
C1126 H1121 0.930 . S
C1126 C1124 1.378 . S
C1126 C1125 1.348 . S
C1127 C1123 1.415 . S
C1127 C1125 1.413 . S
C1127 C1157 1.437 . S
H1128 C1157 0.929 . S
N1129 Gd1102 2.570 . S
N1129 C1130 1.359 . S
N1129 C1133 1.343 . S
C1130 C1123 1.422 . S
C1130 N1129 1.359 . S
C1130 C1132 1.421 . S
C1131 C1132 1.422 . S
C1131 C1134 1.321 . S
C1131 H1158 0.931 . S
C1132 C1130 1.421 . S
C1132 C1131 1.422 . S
C1132 C1156 1.417 . S
C1133 H1110 0.931 . S
C1133 N1129 1.343 . S
C1133 C1134 1.390 . S
C1134 H1112 0.930 . S
C1134 C1131 1.321 . S
C1134 C1133 1.390 . S
O1135 Gd1103 2.386 . S
O1135 C1147 1.265 . S
O1136 Gd1102 2.353 . S
O1136 C1147 1.242 . S
O1137 Gd1102 2.468 . S
O1137 C1155 1.263 . S
O1138 Gd1102 2.427 . S
O1138 C1155 1.252 . S
O1139 Gd1103 2.307 . S
O1139 C1148 1.261 . S
O1140 Gd1102 2.388 . S
O1140 C1148 1.252 . S
O1141 Gd1102 2.386 . S
O1141 C1159 1.265 . S
O1142 Gd1103 2.353 . S
O1142 C1159 1.242 . S
O1143 Gd1103 2.468 . S
O1143 C1167 1.263 . S
O1144 Gd1103 2.427 . S
O1144 C1167 1.252 . S
O1145 Gd1102 2.307 . S
O1145 C1160 1.261 . S
O1146 Gd1103 2.388 . S
O1146 C1160 1.252 . S
C1147 O1135 1.265 . S
C1147 O1136 1.242 . S
C1148 O1139 1.261 . S
C1148 O1140 1.252 . S
C1149 C1152 1.394 . S
C1149 C1154 1.370 . S
C1149 C1155 1.500 . S
C1150 C1153 1.383 . S
C1150 C1154 1.395 . S
C1151 C1152 1.396 . S
C1151 C1153 1.365 . S
C1151 H1168 0.929 . S
C1152 C1149 1.394 . S
C1152 C1151 1.396 . S
C1152 H1169 0.930 . S
C1153 C1150 1.383 . S
C1153 C1151 1.365 . S
C1153 H1170 0.931 . S
C1154 C1149 1.370 . S
C1154 C1150 1.395 . S
C1154 H1171 0.930 . S
C1155 Gd1102 2.805 . S
C1155 O1137 1.263 . S
C1155 O1138 1.252 . S
C1155 C1149 1.500 . S
C1156 H1118 0.930 . S
C1156 C1132 1.417 . S
C1156 C1157 1.329 . S
C1157 C1127 1.437 . S
C1157 H1128 0.929 . S
C1157 C1156 1.329 . S
H1158 C1131 0.931 . S
C1159 O1141 1.265 . S
C1159 O1142 1.242 . S
C1160 O1145 1.261 . S
C1160 O1146 1.252 . S
C1161 C1164 1.394 . S
C1161 C1166 1.370 . S
C1161 C1167 1.500 . S
C1162 C1165 1.383 . S
C1162 C1166 1.395 . S
C1163 C1164 1.396 . S
C1163 C1165 1.365 . S
C1163 H1172 0.929 . S
C1164 C1161 1.394 . S
C1164 C1163 1.396 . S
C1164 H1173 0.930 . S
C1165 C1162 1.383 . S
C1165 C1163 1.365 . S
C1165 H1174 0.931 . S
C1166 C1161 1.370 . S
C1166 C1162 1.395 . S
C1166 H1175 0.930 . S
C1167 Gd1103 2.805 . S
C1167 O1143 1.263 . S
C1167 O1144 1.252 . S
C1167 C1161 1.500 . S
H1168 C1151 0.929 . S
H1169 C1152 0.930 . S
H1170 C1153 0.931 . S
H1171 C1154 0.930 . S
H1172 C1163 0.929 . S
H1173 C1164 0.930 . S
H1174 C1165 0.931 . S
H1175 C1166 0.930 . S
C1176 C1178 1.422 . S
C1176 C1180 1.415 . S
C1176 N1182 1.369 . S
C1177 C1178 1.421 . S
C1177 C1179 1.417 . S
C1177 C1189 1.422 . S
C1178 C1176 1.422 . S
C1178 C1177 1.421 . S
C1178 N1188 1.359 . S
C1179 C1177 1.417 . S
C1179 C1181 1.329 . S
C1179 H1198 0.930 . S
C1180 C1176 1.415 . S
C1180 C1181 1.437 . S
C1180 C1184 1.413 . S
C1181 C1179 1.329 . S
C1181 C1180 1.437 . S
C1181 H1203 0.929 . S
N1182 C1176 1.369 . S
N1182 C1183 1.338 . S
N1182 Gd1187 2.622 . S
C1183 N1182 1.338 . S
C1183 C1185 1.378 . S
C1183 H1195 0.929 . S
C1184 C1180 1.413 . S
C1184 C1185 1.348 . S
C1184 H1200 0.931 . S
C1185 C1183 1.378 . S
C1185 C1184 1.348 . S
C1185 H1201 0.930 . S
Gd1186 N1206 2.622 1_455 S
Gd1186 N1213 2.570 1_455 S
Gd1186 O1220 2.353 . S
Gd1186 O1221 2.468 . S
Gd1186 O1222 2.427 . S
Gd1186 O1224 2.388 . S
Gd1186 O1225 2.386 1_455 S
Gd1186 O1229 2.307 . S
Gd1186 C1239 2.805 . S
Gd1187 N1182 2.622 . S
Gd1187 N1188 2.570 . S
Gd1187 O1219 2.386 . S
Gd1187 O1223 2.307 . S
Gd1187 O1226 2.353 1_455 S
Gd1187 O1227 2.468 . S
Gd1187 O1228 2.427 . S
Gd1187 O1230 2.388 . S
Gd1187 C1251 2.805 . S
N1188 C1178 1.359 . S
N1188 Gd1187 2.570 . S
N1188 C1190 1.343 . S
C1189 C1177 1.422 . S
C1189 C1191 1.321 . S
C1189 H1197 0.931 . S
C1190 N1188 1.343 . S
C1190 C1191 1.390 . S
C1190 H1192 0.931 . S
C1191 C1189 1.321 . S
C1191 C1190 1.390 . S
C1191 H1193 0.930 . S
H1192 C1190 0.931 . S
H1193 C1191 0.930 . S
H1194 C1217 0.931 1_455 S
H1195 C1183 0.929 . S
H1196 C1218 0.930 . S
H1197 C1189 0.931 . S
H1198 C1179 0.930 . S
H1199 C1208 0.892 1_455 S
H1200 C1184 0.931 . S
H1201 C1185 0.930 . S
H1202 C1240 0.930 . S
H1203 C1181 0.929 . S
H1204 C1209 0.931 . S
H1205 C1210 0.930 . S
N1206 Gd1186 2.622 1_655 S
N1206 C1207 1.369 . S
N1206 C1208 1.328 . S
C1207 N1206 1.369 . S
C1207 C1211 1.415 . S
C1207 C1214 1.422 . S
C1208 H1199 0.892 1_655 S
C1208 N1206 1.328 . S
C1208 C1210 1.426 . S
C1209 H1204 0.931 . S
C1209 C1210 1.348 . S
C1209 C1211 1.413 . S
C1210 H1205 0.930 . S
C1210 C1208 1.426 . S
C1210 C1209 1.348 . S
C1211 C1207 1.415 . S
C1211 C1209 1.413 . S
C1211 C1241 1.437 . S
H1212 C1241 0.929 . S
N1213 Gd1186 2.570 1_655 S
N1213 C1214 1.359 . S
N1213 C1217 1.343 . S
C1214 C1207 1.422 . S
C1214 N1213 1.359 . S
C1214 C1216 1.421 . S
C1215 C1216 1.422 . S
C1215 C1218 1.321 . S
C1215 H1242 0.931 . S
C1216 C1214 1.421 . S
C1216 C1215 1.422 . S
C1216 C1240 1.417 . S
C1217 H1194 0.931 1_655 S
C1217 N1213 1.343 . S
C1217 C1218 1.390 . S
C1218 H1196 0.930 . S
C1218 C1215 1.321 . S
C1218 C1217 1.390 . S
O1219 Gd1187 2.386 . S
O1219 C1231 1.265 . S
O1220 Gd1186 2.353 . S
O1220 C1231 1.242 . S
O1221 Gd1186 2.468 . S
O1221 C1239 1.263 . S
O1222 Gd1186 2.427 . S
O1222 C1239 1.252 . S
O1223 Gd1187 2.307 . S
O1223 C1232 1.261 . S
O1224 Gd1186 2.388 . S
O1224 C1232 1.252 . S
O1225 Gd1186 2.386 1_655 S
O1225 C1243 1.265 . S
O1226 Gd1187 2.353 1_655 S
O1226 C1243 1.242 . S
O1227 Gd1187 2.468 . S
O1227 C1251 1.263 . S
O1228 Gd1187 2.427 . S
O1228 C1251 1.252 . S
O1229 Gd1186 2.307 . S
O1229 C1244 1.261 . S
O1230 Gd1187 2.388 . S
O1230 C1244 1.252 . S
C1231 O1219 1.265 . S
C1231 O1220 1.242 . S
C1232 O1223 1.261 . S
C1232 O1224 1.252 . S
C1233 C1236 1.394 . S
C1233 C1238 1.370 . S
C1233 C1239 1.500 . S
C1234 C1237 1.383 . S
C1234 C1238 1.395 . S
C1235 C1236 1.396 . S
C1235 C1237 1.365 . S
C1235 H1252 0.929 . S
C1236 C1233 1.394 . S
C1236 C1235 1.396 . S
C1236 H1253 0.930 . S
C1237 C1234 1.383 . S
C1237 C1235 1.365 . S
C1237 H1254 0.931 . S
C1238 C1233 1.370 . S
C1238 C1234 1.395 . S
C1238 H1255 0.930 . S
C1239 Gd1186 2.805 . S
C1239 O1221 1.263 . S
C1239 O1222 1.252 . S
C1239 C1233 1.500 . S
C1240 H1202 0.930 . S
C1240 C1216 1.417 . S
C1240 C1241 1.329 . S
C1241 C1211 1.437 . S
C1241 H1212 0.929 . S
C1241 C1240 1.329 . S
H1242 C1215 0.931 . S
C1243 O1225 1.265 . S
C1243 O1226 1.242 . S
C1244 O1229 1.261 . S
C1244 O1230 1.252 . S
C1245 C1248 1.394 . S
C1245 C1250 1.370 . S
C1245 C1251 1.500 1_655 S
C1246 C1249 1.383 . S
C1246 C1250 1.395 . S
C1247 C1248 1.396 . S
C1247 C1249 1.365 . S
C1247 H1256 0.929 . S
C1248 C1245 1.394 . S
C1248 C1247 1.396 . S
C1248 H1257 0.930 . S
C1249 C1246 1.383 . S
C1249 C1247 1.365 . S
C1249 H1258 0.931 . S
C1250 C1245 1.370 . S
C1250 C1246 1.395 . S
C1250 H1259 0.930 . S
C1251 Gd1187 2.805 . S
C1251 O1227 1.263 . S
C1251 O1228 1.252 . S
C1251 C1245 1.500 1_455 S
H1252 C1235 0.929 . S
H1253 C1236 0.930 . S
H1254 C1237 0.931 . S
H1255 C1238 0.930 . S
H1256 C1247 0.929 . S
H1257 C1248 0.930 . S
H1258 C1249 0.931 . S
H1259 C1250 0.930 . S
C1260 C1262 1.422 . S
C1260 C1264 1.415 . S
C1260 N1266 1.369 . S
C1261 C1262 1.421 . S
C1261 C1263 1.417 . S
C1261 C1273 1.422 . S
C1262 C1260 1.422 . S
C1262 C1261 1.421 . S
C1262 N1272 1.359 . S
C1263 C1261 1.417 . S
C1263 C1265 1.329 . S
C1263 H1282 0.930 . S
C1264 C1260 1.415 . S
C1264 C1265 1.437 . S
C1264 C1268 1.413 . S
C1265 C1263 1.329 . S
C1265 C1264 1.437 . S
C1265 H1287 0.929 . S
N1266 C1260 1.369 . S
N1266 C1267 1.338 . S
N1266 Gd1271 2.622 . S
C1267 N1266 1.338 . S
C1267 C1269 1.378 . S
C1267 H1279 0.929 . S
C1268 C1264 1.413 . S
C1268 C1269 1.348 . S
C1268 H1284 0.931 . S
C1269 C1267 1.378 . S
C1269 C1268 1.348 . S
C1269 H1285 0.930 . S
Gd1270 N1290 2.622 . S
Gd1270 N1297 2.570 . S
Gd1270 O1304 2.353 . S
Gd1270 O1305 2.468 . S
Gd1270 O1306 2.427 . S
Gd1270 O1308 2.388 . S
Gd1270 O1309 2.386 . S
Gd1270 O1313 2.307 . S
Gd1270 C1323 2.805 . S
Gd1271 N1266 2.622 . S
Gd1271 N1272 2.570 . S
Gd1271 O1303 2.386 . S
Gd1271 O1307 2.307 . S
Gd1271 O1310 2.353 . S
Gd1271 O1311 2.468 . S
Gd1271 O1312 2.427 . S
Gd1271 O1314 2.388 . S
Gd1271 C1335 2.805 . S
N1272 C1262 1.359 . S
N1272 Gd1271 2.570 . S
N1272 C1274 1.343 . S
C1273 C1261 1.422 . S
C1273 C1275 1.321 . S
C1273 H1281 0.931 . S
C1274 N1272 1.343 . S
C1274 C1275 1.390 . S
C1274 H1276 0.931 . S
C1275 C1273 1.321 . S
C1275 C1274 1.390 . S
C1275 H1277 0.930 . S
H1276 C1274 0.931 . S
H1277 C1275 0.930 . S
H1278 C1301 0.931 . S
H1279 C1267 0.929 . S
H1280 C1302 0.930 . S
H1281 C1273 0.931 . S
H1282 C1263 0.930 . S
H1283 C1292 0.929 . S
H1284 C1268 0.931 . S
H1285 C1269 0.930 . S
H1286 C1324 0.930 . S
H1287 C1265 0.929 . S
H1288 C1293 0.931 . S
H1289 C1294 0.930 . S
N1290 Gd1270 2.622 . S
N1290 C1291 1.369 . S
N1290 C1292 1.338 . S
C1291 N1290 1.369 . S
C1291 C1295 1.415 . S
C1291 C1298 1.422 . S
C1292 H1283 0.929 . S
C1292 N1290 1.338 . S
C1292 C1294 1.378 . S
C1293 H1288 0.931 . S
C1293 C1294 1.348 . S
C1293 C1295 1.413 . S
C1294 H1289 0.930 . S
C1294 C1292 1.378 . S
C1294 C1293 1.348 . S
C1295 C1291 1.415 . S
C1295 C1293 1.413 . S
C1295 C1325 1.437 . S
H1296 C1325 0.929 . S
N1297 Gd1270 2.570 . S
N1297 C1298 1.359 . S
N1297 C1301 1.343 . S
C1298 C1291 1.422 . S
C1298 N1297 1.359 . S
C1298 C1300 1.421 . S
C1299 C1300 1.422 . S
C1299 C1302 1.321 . S
C1299 H1326 0.931 . S
C1300 C1298 1.421 . S
C1300 C1299 1.422 . S
C1300 C1324 1.417 . S
C1301 H1278 0.931 . S
C1301 N1297 1.343 . S
C1301 C1302 1.390 . S
C1302 H1280 0.930 . S
C1302 C1299 1.321 . S
C1302 C1301 1.390 . S
O1303 Gd1271 2.386 . S
O1303 C1315 1.265 . S
O1304 Gd1270 2.353 . S
O1304 C1315 1.242 . S
O1305 Gd1270 2.468 . S
O1305 C1323 1.263 . S
O1306 Gd1270 2.427 . S
O1306 C1323 1.252 . S
O1307 Gd1271 2.307 . S
O1307 C1316 1.261 . S
O1308 Gd1270 2.388 . S
O1308 C1316 1.252 . S
O1309 Gd1270 2.386 . S
O1309 C1327 1.265 . S
O1310 Gd1271 2.353 . S
O1310 C1327 1.242 . S
O1311 Gd1271 2.468 . S
O1311 C1335 1.263 . S
O1312 Gd1271 2.427 . S
O1312 C1335 1.252 . S
O1313 Gd1270 2.307 . S
O1313 C1328 1.261 . S
O1314 Gd1271 2.388 . S
O1314 C1328 1.252 . S
C1315 O1303 1.265 . S
C1315 O1304 1.242 . S
C1316 O1307 1.261 . S
C1316 O1308 1.252 . S
C1317 C1320 1.394 . S
C1317 C1322 1.370 . S
C1317 C1323 1.500 . S
C1318 C1321 1.383 . S
C1318 C1322 1.395 . S
C1319 C1320 1.396 . S
C1319 C1321 1.365 . S
C1319 H1336 0.929 . S
C1320 C1317 1.394 . S
C1320 C1319 1.396 . S
C1320 H1337 0.930 . S
C1321 C1318 1.383 . S
C1321 C1319 1.365 . S
C1321 H1338 0.931 . S
C1322 C1317 1.370 . S
C1322 C1318 1.395 . S
C1322 H1339 0.930 . S
C1323 Gd1270 2.805 . S
C1323 O1305 1.263 . S
C1323 O1306 1.252 . S
C1323 C1317 1.500 . S
C1324 H1286 0.930 . S
C1324 C1300 1.417 . S
C1324 C1325 1.329 . S
C1325 C1295 1.437 . S
C1325 H1296 0.929 . S
C1325 C1324 1.329 . S
H1326 C1299 0.931 . S
C1327 O1309 1.265 . S
C1327 O1310 1.242 . S
C1328 O1313 1.261 . S
C1328 O1314 1.252 . S
C1329 C1332 1.394 . S
C1329 C1334 1.370 . S
C1329 C1335 1.500 . S
C1330 C1333 1.383 . S
C1330 C1334 1.395 . S
C1331 C1332 1.396 . S
C1331 C1333 1.365 . S
C1331 H1340 0.929 . S
C1332 C1329 1.394 . S
C1332 C1331 1.396 . S
C1332 H1341 0.930 . S
C1333 C1330 1.383 . S
C1333 C1331 1.365 . S
C1333 H1342 0.931 . S
C1334 C1329 1.370 . S
C1334 C1330 1.395 . S
C1334 H1343 0.930 . S
C1335 Gd1271 2.805 . S
C1335 O1311 1.263 . S
C1335 O1312 1.252 . S
C1335 C1329 1.500 . S
H1336 C1319 0.929 . S
H1337 C1320 0.930 . S
H1338 C1321 0.931 . S
H1339 C1322 0.930 . S
H1340 C1331 0.929 . S
H1341 C1332 0.930 . S
H1342 C1333 0.931 . S
H1343 C1334 0.930 . S
C1344 C1346 1.422 . S
C1344 C1348 1.415 . S
C1344 N1350 1.369 . S
C1345 C1346 1.421 . S
C1345 C1347 1.417 . S
C1345 C1357 1.422 . S
C1346 C1344 1.422 . S
C1346 C1345 1.421 . S
C1346 N1356 1.359 . S
C1347 C1345 1.417 . S
C1347 C1349 1.329 . S
C1347 H1366 0.930 . S
C1348 C1344 1.415 . S
C1348 C1349 1.437 . S
C1348 C1352 1.413 . S
C1349 C1347 1.329 . S
C1349 C1348 1.437 . S
C1349 H1371 0.929 . S
N1350 C1344 1.369 . S
N1350 C1351 1.338 . S
N1350 Gd1355 2.622 . S
C1351 N1350 1.338 . S
C1351 C1353 1.378 . S
C1351 H1363 0.929 . S
C1352 C1348 1.413 . S
C1352 C1353 1.348 . S
C1352 H1368 0.931 . S
C1353 C1351 1.378 . S
C1353 C1352 1.348 . S
C1353 H1369 0.930 . S
Gd1354 N1374 2.622 . S
Gd1354 N1381 2.570 . S
Gd1354 O1388 2.353 . S
Gd1354 O1389 2.468 . S
Gd1354 O1390 2.427 . S
Gd1354 O1392 2.388 . S
Gd1354 O1393 2.386 . S
Gd1354 O1397 2.307 . S
Gd1354 C1407 2.805 . S
Gd1355 N1350 2.622 . S
Gd1355 N1356 2.570 . S
Gd1355 O1387 2.386 . S
Gd1355 O1391 2.307 . S
Gd1355 O1394 2.353 . S
Gd1355 O1395 2.468 . S
Gd1355 O1396 2.427 . S
Gd1355 O1398 2.388 . S
Gd1355 C1419 2.805 . S
N1356 C1346 1.359 . S
N1356 Gd1355 2.570 . S
N1356 C1358 1.343 . S
C1357 C1345 1.422 . S
C1357 C1359 1.321 . S
C1357 H1365 0.931 . S
C1358 N1356 1.343 . S
C1358 C1359 1.390 . S
C1358 H1360 0.931 . S
C1359 C1357 1.321 . S
C1359 C1358 1.390 . S
C1359 H1361 0.930 . S
H1360 C1358 0.931 . S
H1361 C1359 0.930 . S
H1362 C1385 0.931 . S
H1363 C1351 0.929 . S
H1364 C1386 0.930 . S
H1365 C1357 0.931 . S
H1366 C1347 0.930 . S
H1367 C1376 0.929 . S
H1368 C1352 0.931 . S
H1369 C1353 0.930 . S
H1370 C1408 0.930 . S
H1371 C1349 0.929 . S
H1372 C1377 0.931 . S
H1373 C1378 0.930 . S
N1374 Gd1354 2.622 . S
N1374 C1375 1.369 . S
N1374 C1376 1.338 . S
C1375 N1374 1.369 . S
C1375 C1379 1.415 . S
C1375 C1382 1.422 . S
C1376 H1367 0.929 . S
C1376 N1374 1.338 . S
C1376 C1378 1.378 . S
C1377 H1372 0.931 . S
C1377 C1378 1.348 . S
C1377 C1379 1.413 . S
C1378 H1373 0.930 . S
C1378 C1376 1.378 . S
C1378 C1377 1.348 . S
C1379 C1375 1.415 . S
C1379 C1377 1.413 . S
C1379 C1409 1.437 . S
H1380 C1409 0.929 . S
N1381 Gd1354 2.570 . S
N1381 C1382 1.359 . S
N1381 C1385 1.343 . S
C1382 C1375 1.422 . S
C1382 N1381 1.359 . S
C1382 C1384 1.421 . S
C1383 C1384 1.422 . S
C1383 C1386 1.321 . S
C1383 H1410 0.931 . S
C1384 C1382 1.421 . S
C1384 C1383 1.422 . S
C1384 C1408 1.417 . S
C1385 H1362 0.931 . S
C1385 N1381 1.343 . S
C1385 C1386 1.390 . S
C1386 H1364 0.930 . S
C1386 C1383 1.321 . S
C1386 C1385 1.390 . S
O1387 Gd1355 2.386 . S
O1387 C1399 1.265 . S
O1388 Gd1354 2.353 . S
O1388 C1399 1.242 . S
O1389 Gd1354 2.468 . S
O1389 C1407 1.263 . S
O1390 Gd1354 2.427 . S
O1390 C1407 1.252 . S
O1391 Gd1355 2.307 . S
O1391 C1400 1.261 . S
O1392 Gd1354 2.388 . S
O1392 C1400 1.252 . S
O1393 Gd1354 2.386 . S
O1393 C1411 1.265 . S
O1394 Gd1355 2.353 . S
O1394 C1411 1.242 . S
O1395 Gd1355 2.468 . S
O1395 C1419 1.263 . S
O1396 Gd1355 2.427 . S
O1396 C1419 1.252 . S
O1397 Gd1354 2.307 . S
O1397 C1412 1.261 . S
O1398 Gd1355 2.388 . S
O1398 C1412 1.252 . S
C1399 O1387 1.265 . S
C1399 O1388 1.242 . S
C1400 O1391 1.261 . S
C1400 O1392 1.252 . S
C1401 C1404 1.394 . S
C1401 C1406 1.370 . S
C1401 C1407 1.500 . S
C1402 C1405 1.383 . S
C1402 C1406 1.395 . S
C1403 C1404 1.396 . S
C1403 C1405 1.365 . S
C1403 H1420 0.929 . S
C1404 C1401 1.394 . S
C1404 C1403 1.396 . S
C1404 H1421 0.930 . S
C1405 C1402 1.383 . S
C1405 C1403 1.365 . S
C1405 H1422 0.931 . S
C1406 C1401 1.370 . S
C1406 C1402 1.395 . S
C1406 H1423 0.930 . S
C1407 Gd1354 2.805 . S
C1407 O1389 1.263 . S
C1407 O1390 1.252 . S
C1407 C1401 1.500 . S
C1408 H1370 0.930 . S
C1408 C1384 1.417 . S
C1408 C1409 1.329 . S
C1409 C1379 1.437 . S
C1409 H1380 0.929 . S
C1409 C1408 1.329 . S
H1410 C1383 0.931 . S
C1411 O1393 1.265 . S
C1411 O1394 1.242 . S
C1412 O1397 1.261 . S
C1412 O1398 1.252 . S
C1413 C1416 1.394 . S
C1413 C1418 1.370 . S
C1413 C1419 1.500 . S
C1414 C1417 1.383 . S
C1414 C1418 1.395 . S
C1415 C1416 1.396 . S
C1415 C1417 1.365 . S
C1415 H1424 0.929 . S
C1416 C1413 1.394 . S
C1416 C1415 1.396 . S
C1416 H1425 0.930 . S
C1417 C1414 1.383 . S
C1417 C1415 1.365 . S
C1417 H1426 0.931 . S
C1418 C1413 1.370 . S
C1418 C1414 1.395 . S
C1418 H1427 0.930 . S
C1419 Gd1355 2.805 . S
C1419 O1395 1.263 . S
C1419 O1396 1.252 . S
C1419 C1413 1.500 . S
H1420 C1403 0.929 . S
H1421 C1404 0.930 . S
H1422 C1405 0.931 . S
H1423 C1406 0.930 . S
H1424 C1415 0.929 . S
H1425 C1416 0.930 . S
H1426 C1417 0.931 . S
H1427 C1418 0.930 . S
C1428 C1430 1.422 . S
C1428 C1432 1.415 . S
C1428 N1434 1.369 . S
C1429 C1430 1.421 . S
C1429 C1431 1.417 . S
C1429 C1441 1.422 . S
C1430 C1428 1.422 . S
C1430 C1429 1.421 . S
C1430 N1440 1.359 . S
C1431 C1429 1.417 . S
C1431 C1433 1.329 . S
C1431 H1450 0.930 . S
C1432 C1428 1.415 . S
C1432 C1433 1.437 . S
C1432 C1436 1.413 . S
C1433 C1431 1.329 . S
C1433 C1432 1.437 . S
C1433 H1455 0.929 . S
N1434 C1428 1.369 . S
N1434 C1435 1.338 . S
N1434 Gd1439 2.622 . S
C1435 N1434 1.338 . S
C1435 C1437 1.378 . S
C1435 H1447 0.929 . S
C1436 C1432 1.413 . S
C1436 C1437 1.348 . S
C1436 H1452 0.931 . S
C1437 C1435 1.378 . S
C1437 C1436 1.348 . S
C1437 H1453 0.930 . S
Gd1438 N1458 2.622 . S
Gd1438 N1465 2.570 . S
Gd1438 O1472 2.353 . S
Gd1438 O1473 2.468 . S
Gd1438 O1474 2.427 . S
Gd1438 O1476 2.388 . S
Gd1438 O1477 2.386 . S
Gd1438 O1481 2.307 . S
Gd1438 C1491 2.805 . S
Gd1439 N1434 2.622 . S
Gd1439 N1440 2.570 . S
Gd1439 O1471 2.386 . S
Gd1439 O1475 2.307 . S
Gd1439 O1478 2.353 . S
Gd1439 O1479 2.468 . S
Gd1439 O1480 2.427 . S
Gd1439 O1482 2.388 . S
Gd1439 C1503 2.805 . S
N1440 C1430 1.359 . S
N1440 Gd1439 2.570 . S
N1440 C1442 1.343 . S
C1441 C1429 1.422 . S
C1441 C1443 1.321 . S
C1441 H1449 0.931 . S
C1442 N1440 1.343 . S
C1442 C1443 1.390 . S
C1442 H1444 0.931 . S
C1443 C1441 1.321 . S
C1443 C1442 1.390 . S
C1443 H1445 0.930 . S
H1444 C1442 0.931 . S
H1445 C1443 0.930 . S
H1446 C1469 0.931 . S
H1447 C1435 0.929 . S
H1448 C1470 0.930 . S
H1449 C1441 0.931 . S
H1450 C1431 0.930 . S
H1451 C1460 0.929 . S
H1452 C1436 0.931 . S
H1453 C1437 0.930 . S
H1454 C1492 0.930 . S
H1455 C1433 0.929 . S
H1456 C1461 0.931 . S
H1457 C1462 0.930 . S
N1458 Gd1438 2.622 . S
N1458 C1459 1.369 . S
N1458 C1460 1.338 . S
C1459 N1458 1.369 . S
C1459 C1463 1.415 . S
C1459 C1466 1.422 . S
C1460 H1451 0.929 . S
C1460 N1458 1.338 . S
C1460 C1462 1.378 . S
C1461 H1456 0.931 . S
C1461 C1462 1.348 . S
C1461 C1463 1.413 . S
C1462 H1457 0.930 . S
C1462 C1460 1.378 . S
C1462 C1461 1.348 . S
C1463 C1459 1.415 . S
C1463 C1461 1.413 . S
C1463 C1493 1.437 . S
H1464 C1493 0.929 . S
N1465 Gd1438 2.570 . S
N1465 C1466 1.359 . S
N1465 C1469 1.343 . S
C1466 C1459 1.422 . S
C1466 N1465 1.359 . S
C1466 C1468 1.421 . S
C1467 C1468 1.422 . S
C1467 C1470 1.321 . S
C1467 H1494 0.931 . S
C1468 C1466 1.421 . S
C1468 C1467 1.422 . S
C1468 C1492 1.417 . S
C1469 H1446 0.931 . S
C1469 N1465 1.343 . S
C1469 C1470 1.390 . S
C1470 H1448 0.930 . S
C1470 C1467 1.321 . S
C1470 C1469 1.390 . S
O1471 Gd1439 2.386 . S
O1471 C1483 1.265 . S
O1472 Gd1438 2.353 . S
O1472 C1483 1.242 . S
O1473 Gd1438 2.468 . S
O1473 C1491 1.263 . S
O1474 Gd1438 2.427 . S
O1474 C1491 1.252 . S
O1475 Gd1439 2.307 . S
O1475 C1484 1.261 . S
O1476 Gd1438 2.388 . S
O1476 C1484 1.252 . S
O1477 Gd1438 2.386 . S
O1477 C1495 1.265 . S
O1478 Gd1439 2.353 . S
O1478 C1495 1.242 . S
O1479 Gd1439 2.468 . S
O1479 C1503 1.263 . S
O1480 Gd1439 2.427 . S
O1480 C1503 1.252 . S
O1481 Gd1438 2.307 . S
O1481 C1496 1.261 . S
O1482 Gd1439 2.388 . S
O1482 C1496 1.252 . S
C1483 O1471 1.265 . S
C1483 O1472 1.242 . S
C1484 O1475 1.261 . S
C1484 O1476 1.252 . S
C1485 C1488 1.394 . S
C1485 C1490 1.370 . S
C1485 C1491 1.500 . S
C1486 C1489 1.383 . S
C1486 C1490 1.395 . S
C1487 C1488 1.396 . S
C1487 C1489 1.365 . S
C1487 H1504 0.929 . S
C1488 C1485 1.394 . S
C1488 C1487 1.396 . S
C1488 H1505 0.930 . S
C1489 C1486 1.383 . S
C1489 C1487 1.365 . S
C1489 H1506 0.931 . S
C1490 C1485 1.370 . S
C1490 C1486 1.395 . S
C1490 H1507 0.930 . S
C1491 Gd1438 2.805 . S
C1491 O1473 1.263 . S
C1491 O1474 1.252 . S
C1491 C1485 1.500 . S
C1492 H1454 0.930 . S
C1492 C1468 1.417 . S
C1492 C1493 1.329 . S
C1493 C1463 1.437 . S
C1493 H1464 0.929 . S
C1493 C1492 1.329 . S
H1494 C1467 0.931 . S
C1495 O1477 1.265 . S
C1495 O1478 1.242 . S
C1496 O1481 1.261 . S
C1496 O1482 1.252 . S
C1497 C1500 1.394 . S
C1497 C1502 1.370 . S
C1497 C1503 1.500 . S
C1498 C1501 1.383 . S
C1498 C1502 1.395 . S
C1499 C1500 1.396 . S
C1499 C1501 1.365 . S
C1499 H1508 0.929 . S
C1500 C1497 1.394 . S
C1500 C1499 1.396 . S
C1500 H1509 0.930 . S
C1501 C1498 1.383 . S
C1501 C1499 1.365 . S
C1501 H1510 0.931 . S
C1502 C1497 1.370 . S
C1502 C1498 1.395 . S
C1502 H1511 0.930 . S
C1503 Gd1439 2.805 . S
C1503 O1479 1.263 . S
C1503 O1480 1.252 . S
C1503 C1497 1.500 . S
H1504 C1487 0.929 . S
H1505 C1488 0.930 . S
H1506 C1489 0.931 . S
H1507 C1490 0.930 . S
H1508 C1499 0.929 . S
H1509 C1500 0.930 . S
H1510 C1501 0.931 . S
H1511 C1502 0.930 . S
C1512 C1514 1.422 . S
C1512 C1516 1.415 . S
C1512 N1518 1.369 . S
C1513 C1514 1.421 . S
C1513 C1515 1.417 . S
C1513 C1525 1.422 . S
C1514 C1512 1.422 . S
C1514 C1513 1.421 . S
C1514 N1524 1.359 . S
C1515 C1513 1.417 . S
C1515 C1517 1.329 . S
C1515 H1534 0.930 . S
C1516 C1512 1.415 . S
C1516 C1517 1.437 . S
C1516 C1520 1.413 . S
C1517 C1515 1.329 . S
C1517 C1516 1.437 . S
C1517 H1539 0.929 . S
N1518 C1512 1.369 . S
N1518 C1519 1.338 . S
N1518 Gd1523 2.622 . S
C1519 N1518 1.338 . S
C1519 C1521 1.378 . S
C1519 H1531 0.929 . S
C1520 C1516 1.413 . S
C1520 C1521 1.348 . S
C1520 H1536 0.931 . S
C1521 C1519 1.378 . S
C1521 C1520 1.348 . S
C1521 H1537 0.930 . S
Gd1522 N1542 2.622 . S
Gd1522 N1549 2.570 . S
Gd1522 O1556 2.353 . S
Gd1522 O1557 2.468 . S
Gd1522 O1558 2.427 . S
Gd1522 O1560 2.388 . S
Gd1522 O1561 2.386 . S
Gd1522 O1565 2.307 . S
Gd1522 C1575 2.805 . S
Gd1523 N1518 2.622 . S
Gd1523 N1524 2.570 . S
Gd1523 O1555 2.386 . S
Gd1523 O1559 2.307 . S
Gd1523 O1562 2.353 . S
Gd1523 O1563 2.468 . S
Gd1523 O1564 2.427 . S
Gd1523 O1566 2.388 . S
Gd1523 C1587 2.805 . S
N1524 C1514 1.359 . S
N1524 Gd1523 2.570 . S
N1524 C1526 1.343 . S
C1525 C1513 1.422 . S
C1525 C1527 1.321 . S
C1525 H1533 0.931 . S
C1526 N1524 1.343 . S
C1526 C1527 1.390 . S
C1526 H1528 0.931 . S
C1527 C1525 1.321 . S
C1527 C1526 1.390 . S
C1527 H1529 0.930 . S
H1528 C1526 0.931 . S
H1529 C1527 0.930 . S
H1530 C1553 0.931 . S
H1531 C1519 0.929 . S
H1532 C1554 0.930 . S
H1533 C1525 0.931 . S
H1534 C1515 0.930 . S
H1535 C1544 0.929 . S
H1536 C1520 0.931 . S
H1537 C1521 0.930 . S
H1538 C1576 0.930 . S
H1539 C1517 0.929 . S
H1540 C1545 0.931 . S
H1541 C1546 0.930 . S
N1542 Gd1522 2.622 . S
N1542 C1543 1.369 . S
N1542 C1544 1.338 . S
C1543 N1542 1.369 . S
C1543 C1547 1.415 . S
C1543 C1550 1.422 . S
C1544 H1535 0.929 . S
C1544 N1542 1.338 . S
C1544 C1546 1.378 . S
C1545 H1540 0.931 . S
C1545 C1546 1.348 . S
C1545 C1547 1.413 . S
C1546 H1541 0.930 . S
C1546 C1544 1.378 . S
C1546 C1545 1.348 . S
C1547 C1543 1.415 . S
C1547 C1545 1.413 . S
C1547 C1577 1.437 . S
H1548 C1577 0.929 . S
N1549 Gd1522 2.570 . S
N1549 C1550 1.359 . S
N1549 C1553 1.343 . S
C1550 C1543 1.422 . S
C1550 N1549 1.359 . S
C1550 C1552 1.421 . S
C1551 C1552 1.422 . S
C1551 C1554 1.321 . S
C1551 H1578 0.931 . S
C1552 C1550 1.421 . S
C1552 C1551 1.422 . S
C1552 C1576 1.417 . S
C1553 H1530 0.931 . S
C1553 N1549 1.343 . S
C1553 C1554 1.390 . S
C1554 H1532 0.930 . S
C1554 C1551 1.321 . S
C1554 C1553 1.390 . S
O1555 Gd1523 2.386 . S
O1555 C1567 1.265 . S
O1556 Gd1522 2.353 . S
O1556 C1567 1.242 . S
O1557 Gd1522 2.468 . S
O1557 C1575 1.263 . S
O1558 Gd1522 2.427 . S
O1558 C1575 1.252 . S
O1559 Gd1523 2.307 . S
O1559 C1568 1.261 . S
O1560 Gd1522 2.388 . S
O1560 C1568 1.252 . S
O1561 Gd1522 2.386 . S
O1561 C1579 1.265 . S
O1562 Gd1523 2.353 . S
O1562 C1579 1.242 . S
O1563 Gd1523 2.468 . S
O1563 C1587 1.263 . S
O1564 Gd1523 2.427 . S
O1564 C1587 1.252 . S
O1565 Gd1522 2.307 . S
O1565 C1580 1.261 . S
O1566 Gd1523 2.388 . S
O1566 C1580 1.252 . S
C1567 O1555 1.265 . S
C1567 O1556 1.242 . S
C1568 O1559 1.261 . S
C1568 O1560 1.252 . S
C1569 C1572 1.394 . S
C1569 C1574 1.370 . S
C1569 C1575 1.500 . S
C1570 C1573 1.383 . S
C1570 C1574 1.395 . S
C1571 C1572 1.396 . S
C1571 C1573 1.365 . S
C1571 H1588 0.929 . S
C1572 C1569 1.394 . S
C1572 C1571 1.396 . S
C1572 H1589 0.930 . S
C1573 C1570 1.383 . S
C1573 C1571 1.365 . S
C1573 H1590 0.931 . S
C1574 C1569 1.370 . S
C1574 C1570 1.395 . S
C1574 H1591 0.930 . S
C1575 Gd1522 2.805 . S
C1575 O1557 1.263 . S
C1575 O1558 1.252 . S
C1575 C1569 1.500 . S
C1576 H1538 0.930 . S
C1576 C1552 1.417 . S
C1576 C1577 1.329 . S
C1577 C1547 1.437 . S
C1577 H1548 0.929 . S
C1577 C1576 1.329 . S
H1578 C1551 0.931 . S
C1579 O1561 1.265 . S
C1579 O1562 1.242 . S
C1580 O1565 1.261 . S
C1580 O1566 1.252 . S
C1581 C1584 1.394 . S
C1581 C1586 1.370 . S
C1581 C1587 1.500 . S
C1582 C1585 1.383 . S
C1582 C1586 1.395 . S
C1583 C1584 1.396 . S
C1583 C1585 1.365 . S
C1583 H1592 0.929 . S
C1584 C1581 1.394 . S
C1584 C1583 1.396 . S
C1584 H1593 0.930 . S
C1585 C1582 1.383 . S
C1585 C1583 1.365 . S
C1585 H1594 0.931 . S
C1586 C1581 1.370 . S
C1586 C1582 1.395 . S
C1586 H1595 0.930 . S
C1587 Gd1523 2.805 . S
C1587 O1563 1.263 . S
C1587 O1564 1.252 . S
C1587 C1581 1.500 . S
H1588 C1571 0.929 . S
H1589 C1572 0.930 . S
H1590 C1573 0.931 . S
H1591 C1574 0.930 . S
H1592 C1583 0.929 . S
H1593 C1584 0.930 . S
H1594 C1585 0.931 . S
H1595 C1586 0.930 . S
C1596 C1598 1.422 1_556 S
C1596 C1600 1.415 . S
C1596 N1602 1.369 . S
C1597 C1598 1.421 . S
C1597 C1599 1.417 . S
C1597 C1609 1.422 . S
C1598 C1596 1.422 1_554 S
C1598 C1597 1.421 . S
C1598 N1608 1.359 . S
C1599 C1597 1.417 . S
C1599 C1601 1.329 1_554 S
C1599 H1618 0.930 . S
C1600 C1596 1.415 . S
C1600 C1601 1.437 . S
C1600 C1604 1.413 . S
C1601 C1599 1.329 1_556 S
C1601 C1600 1.437 . S
C1601 H1623 0.929 . S
N1602 C1596 1.369 . S
N1602 C1603 1.338 . S
N1602 Gd1607 2.622 1_556 S
C1603 N1602 1.338 . S
C1603 C1605 1.378 . S
C1603 H1615 0.929 . S
C1604 C1600 1.413 . S
C1604 C1605 1.348 . S
C1604 H1620 0.931 . S
C1605 C1603 1.378 . S
C1605 C1604 1.348 . S
C1605 H1621 0.930 . S
Gd1606 N1626 2.608 1_455 S
Gd1606 N1633 2.539 1_455 S
Gd1606 O1640 2.368 . S
Gd1606 O1641 2.426 1_455 S
Gd1606 O1642 2.392 1_455 S
Gd1606 O1644 2.422 . S
Gd1606 O1645 2.413 . S
Gd1606 O1649 2.318 . S
Gd1606 C1659 2.762 1_455 S
Gd1607 N1602 2.622 1_554 S
Gd1607 N1608 2.570 . S
Gd1607 O1639 2.386 . S
Gd1607 O1643 2.307 . S
Gd1607 O1646 2.353 . S
Gd1607 O1647 2.468 . S
Gd1607 O1648 2.427 1_554 S
Gd1607 O1650 2.388 1_554 S
Gd1607 C1671 2.805 . S
N1608 C1598 1.359 . S
N1608 Gd1607 2.570 . S
N1608 C1610 1.343 . S
C1609 C1597 1.422 . S
C1609 C1611 1.321 . S
C1609 H1617 0.931 . S
C1610 N1608 1.343 . S
C1610 C1611 1.390 . S
C1610 H1612 0.931 . S
C1611 C1609 1.321 . S
C1611 C1610 1.390 . S
C1611 H1613 0.930 . S
H1612 C1610 0.931 . S
H1613 C1611 0.930 . S
H1614 C1637 0.931 1_556 S
H1615 C1603 0.929 . S
H1616 C1638 0.930 . S
H1617 C1609 0.931 . S
H1618 C1599 0.930 . S
H1619 C1628 0.929 1_455 S
H1620 C1604 0.931 . S
H1621 C1605 0.930 . S
H1622 C1660 0.930 . S
H1623 C1601 0.929 . S
H1624 C1629 0.931 . S
H1625 C1630 0.930 . S
N1626 Gd1606 2.608 1_655 S
N1626 C1627 1.369 . S
N1626 C1628 1.338 . S
C1627 N1626 1.369 . S
C1627 C1631 1.415 . S
C1627 C1634 1.422 . S
C1628 H1619 0.929 1_655 S
C1628 N1626 1.338 . S
C1628 C1630 1.378 . S
C1629 H1624 0.931 . S
C1629 C1630 1.348 . S
C1629 C1631 1.413 . S
C1630 H1625 0.930 . S
C1630 C1628 1.378 . S
C1630 C1629 1.348 . S
C1631 C1627 1.415 . S
C1631 C1629 1.413 . S
C1631 C1661 1.437 . S
H1632 C1661 0.929 . S
N1633 Gd1606 2.539 1_655 S
N1633 C1634 1.359 . S
N1633 C1637 1.343 . S
C1634 C1627 1.422 . S
C1634 N1633 1.359 . S
C1634 C1636 1.421 . S
C1635 C1636 1.422 . S
C1635 C1638 1.321 1_554 S
C1635 H1662 0.931 . S
C1636 C1634 1.421 . S
C1636 C1635 1.422 . S
C1636 C1660 1.417 . S
C1637 H1614 0.931 1_554 S
C1637 N1633 1.343 . S
C1637 C1638 1.390 1_554 S
C1638 H1616 0.930 . S
C1638 C1635 1.321 1_556 S
C1638 C1637 1.390 1_556 S
O1639 Gd1607 2.386 . S
O1639 C1651 1.265 . S
O1640 Gd1606 2.368 . S
O1640 C1651 1.242 . S
O1641 Gd1606 2.426 1_655 S
O1641 C1659 1.263 . S
O1642 Gd1606 2.392 1_655 S
O1642 C1659 1.252 . S
O1643 Gd1607 2.307 . S
O1643 C1652 1.261 . S
O1644 Gd1606 2.422 . S
O1644 C1652 1.252 . S
O1645 Gd1606 2.413 . S
O1645 C1663 1.265 . S
O1646 Gd1607 2.353 . S
O1646 C1663 1.242 . S
O1647 Gd1607 2.468 . S
O1647 C1671 1.263 . S
O1648 Gd1607 2.427 1_556 S
O1648 C1671 1.252 1_556 S
O1649 Gd1606 2.318 . S
O1649 C1664 1.261 1_554 S
O1650 Gd1607 2.388 1_556 S
O1650 C1664 1.252 . S
C1651 O1639 1.265 . S
C1651 O1640 1.242 . S
C1652 O1643 1.261 . S
C1652 O1644 1.252 . S
C1653 C1656 1.394 . S
C1653 C1658 1.370 . S
C1653 C1659 1.500 . S
C1654 C1657 1.383 . S
C1654 C1658 1.395 . S
C1655 C1656 1.396 . S
C1655 C1657 1.365 . S
C1655 H1672 0.929 . S
C1656 C1653 1.394 . S
C1656 C1655 1.396 . S
C1656 H1673 0.930 . S
C1657 C1654 1.383 . S
C1657 C1655 1.365 . S
C1657 H1674 0.931 . S
C1658 C1653 1.370 . S
C1658 C1654 1.395 . S
C1658 H1675 0.930 . S
C1659 Gd1606 2.762 1_655 S
C1659 O1641 1.263 . S
C1659 O1642 1.252 . S
C1659 C1653 1.500 . S
C1660 H1622 0.930 . S
C1660 C1636 1.417 . S
C1660 C1661 1.329 . S
C1661 C1631 1.437 . S
C1661 H1632 0.929 . S
C1661 C1660 1.329 . S
H1662 C1635 0.931 . S
C1663 O1645 1.265 . S
C1663 O1646 1.242 . S
C1664 O1649 1.261 1_556 S
C1664 O1650 1.252 . S
C1665 C1668 1.445 . S
C1665 C1670 1.331 1_556 S
C1665 C1671 1.491 1_556 S
C1666 C1669 1.383 1_554 S
C1666 C1670 1.395 . S
C1667 C1668 1.396 . S
C1667 C1669 1.365 . S
C1667 H1676 0.929 . S
C1668 C1665 1.445 . S
C1668 C1667 1.396 . S
C1668 H1677 0.930 . S
C1669 C1666 1.383 1_556 S
C1669 C1667 1.365 . S
C1669 H1678 0.931 . S
C1670 C1665 1.331 1_554 S
C1670 C1666 1.395 . S
C1670 H1679 0.930 . S
C1671 Gd1607 2.805 . S
C1671 O1647 1.263 . S
C1671 O1648 1.252 1_554 S
C1671 C1665 1.491 1_554 S
H1672 C1655 0.929 . S
H1673 C1656 0.930 . S
H1674 C1657 0.931 . S
H1675 C1658 0.930 . S
H1676 C1667 0.929 . S
H1677 C1668 0.930 . S
H1678 C1669 0.931 . S
H1679 C1670 0.930 . S
H1680 C1698 0.951 . S
H1681 C1700 0.951 . S
H1682 C1702 0.950 . S
H1683 C1703 0.950 . S
H1684 C1705 0.950 . S
H1685 C1708 0.950 . S
H1686 C1709 0.950 . S
H1687 C1711 0.950 . S
H1688 C1712 0.950 . S
H1689 C1713 0.951 . S
H1690 C1715 0.951 . S
H1691 C1717 0.950 1_655 S
H1692 C1718 0.950 1_655 S
H1693 C1720 0.950 . S
H1694 C1723 0.950 . S
H1695 C1724 0.950 . S
H1696 C1726 0.950 . S
H1697 C1727 0.950 . S
C1698 H1680 0.951 . S
C1698 C1699 1.343 1_655 S
C1698 C1700 1.388 . S
C1699 C1698 1.343 1_455 S
C1699 C1703 1.417 . S
C1700 H1681 0.951 . S
C1700 C1698 1.388 . S
C1700 C1701 1.366 1_655 S
C1701 C1700 1.366 1_455 S
C1701 C1702 1.414 . S
C1701 C1704 1.499 . S
C1702 H1682 0.950 . S
C1702 C1701 1.414 . S
C1702 C1703 1.374 . S
C1703 H1683 0.950 . S
C1703 C1699 1.417 . S
C1703 C1702 1.374 . S
C1704 C1701 1.499 . S
C1704 C1705 1.373 . S
C1704 C1706 1.389 . S
C1705 H1684 0.950 . S
C1705 C1704 1.373 . S
C1705 C1721 1.377 . S
C1706 C1704 1.389 . S
C1706 C1707 1.524 1_456 S
C1706 C1720 1.377 1_556 S
C1707 C1706 1.524 1_654 S
C1707 C1708 1.397 1_655 S
C1707 C1712 1.363 . S
C1708 H1685 0.950 . S
C1708 C1707 1.397 1_455 S
C1708 C1709 1.334 . S
C1709 H1686 0.950 . S
C1709 C1708 1.334 . S
C1709 C1710 1.287 1_455 S
C1710 C1709 1.287 1_655 S
C1710 C1711 1.524 . S
C1710 H1729 0.913 . S
C1711 H1687 0.950 . S
C1711 C1710 1.524 . S
C1711 C1712 1.415 . S
C1712 H1688 0.950 . S
C1712 C1707 1.363 . S
C1712 C1711 1.415 . S
C1713 H1689 0.951 . S
C1713 C1714 1.366 . S
C1713 C1715 1.388 1_554 S
C1714 C1713 1.366 . S
C1714 C1718 1.385 . S
C1715 H1690 0.951 . S
C1715 C1713 1.388 1_556 S
C1715 C1716 1.366 . S
C1716 C1715 1.366 . S
C1716 C1717 1.414 1_556 S
C1716 C1719 1.499 . S
C1717 H1691 0.950 1_455 S
C1717 C1716 1.414 1_554 S
C1717 C1718 1.374 . S
C1718 H1692 0.950 1_455 S
C1718 C1714 1.385 . S
C1718 C1717 1.374 . S
C1719 C1716 1.499 . S
C1719 C1720 1.373 1_556 S
C1719 C1721 1.389 . S
C1720 H1693 0.950 . S
C1720 C1706 1.377 1_554 S
C1720 C1719 1.373 1_554 S
C1721 C1705 1.377 . S
C1721 C1719 1.389 . S
C1721 C1722 1.524 . S
C1722 C1721 1.524 . S
C1722 C1723 1.397 . S
C1722 C1727 1.363 . S
C1723 H1694 0.950 . S
C1723 C1722 1.397 . S
C1723 C1724 1.334 . S
C1724 H1695 0.950 . S
C1724 C1723 1.334 . S
C1724 C1725 1.287 . S
C1725 C1724 1.287 . S
C1725 C1726 1.524 . S
C1725 H1728 0.999 . S
C1726 H1696 0.950 . S
C1726 C1725 1.524 . S
C1726 C1727 1.415 . S
C1727 H1697 0.950 . S
C1727 C1722 1.363 . S
C1727 C1726 1.415 . S
H1728 C1725 0.999 . S
H1729 C1710 0.913 . S
H1730 C1748 0.951 . S
H1731 C1750 0.951 . S
H1732 C1752 0.950 . S
H1733 C1753 0.950 . S
H1734 C1755 0.950 . S
H1735 C1758 0.950 . S
H1736 C1759 0.950 . S
H1737 C1761 0.950 . S
H1738 C1762 0.950 . S
H1739 C1763 0.951 . S
H1740 C1765 0.951 . S
H1741 C1767 0.950 . S
H1742 C1768 0.950 . S
H1743 C1770 0.950 . S
H1744 C1773 0.950 . S
H1745 C1774 0.950 . S
H1746 C1776 0.950 . S
H1747 C1777 0.950 . S
C1748 H1730 0.951 . S
C1748 C1749 1.366 . S
C1748 C1750 1.388 . S
C1749 C1748 1.366 . S
C1749 C1753 1.385 . S
C1750 H1731 0.951 . S
C1750 C1748 1.388 . S
C1750 C1751 1.366 . S
C1751 C1750 1.366 . S
C1751 C1752 1.414 . S
C1751 C1754 1.499 . S
C1752 H1732 0.950 . S
C1752 C1751 1.414 . S
C1752 C1753 1.374 . S
C1753 H1733 0.950 . S
C1753 C1749 1.385 . S
C1753 C1752 1.374 . S
C1754 C1751 1.499 . S
C1754 C1755 1.373 . S
C1754 C1756 1.389 . S
C1755 H1734 0.950 . S
C1755 C1754 1.373 . S
C1755 C1771 1.377 . S
C1756 C1754 1.389 . S
C1756 C1757 1.524 . S
C1756 C1770 1.377 . S
C1757 C1756 1.524 . S
C1757 C1758 1.397 . S
C1757 C1762 1.363 . S
C1758 H1735 0.950 . S
C1758 C1757 1.397 . S
C1758 C1759 1.334 . S
C1759 H1736 0.950 . S
C1759 C1758 1.334 . S
C1759 C1760 1.287 . S
C1760 C1759 1.287 . S
C1760 C1761 1.524 . S
C1760 H1779 0.913 . S
C1761 H1737 0.950 . S
C1761 C1760 1.524 . S
C1761 C1762 1.415 . S
C1762 H1738 0.950 . S
C1762 C1757 1.363 . S
C1762 C1761 1.415 . S
C1763 H1739 0.951 . S
C1763 C1764 1.366 . S
C1763 C1765 1.388 . S
C1764 C1763 1.366 . S
C1764 C1768 1.385 . S
C1765 H1740 0.951 . S
C1765 C1763 1.388 . S
C1765 C1766 1.366 . S
C1766 C1765 1.366 . S
C1766 C1767 1.414 . S
C1766 C1769 1.499 . S
C1767 H1741 0.950 . S
C1767 C1766 1.414 . S
C1767 C1768 1.374 . S
C1768 H1742 0.950 . S
C1768 C1764 1.385 . S
C1768 C1767 1.374 . S
C1769 C1766 1.499 . S
C1769 C1770 1.373 . S
C1769 C1771 1.389 . S
C1770 H1743 0.950 . S
C1770 C1756 1.377 . S
C1770 C1769 1.373 . S
C1771 C1755 1.377 . S
C1771 C1769 1.389 . S
C1771 C1772 1.524 . S
C1772 C1771 1.524 . S
C1772 C1773 1.397 . S
C1772 C1777 1.363 . S
C1773 H1744 0.950 . S
C1773 C1772 1.397 . S
C1773 C1774 1.334 . S
C1774 H1745 0.950 . S
C1774 C1773 1.334 . S
C1774 C1775 1.287 . S
C1775 C1774 1.287 . S
C1775 C1776 1.524 . S
C1775 H1778 0.999 . S
C1776 H1746 0.950 . S
C1776 C1775 1.524 . S
C1776 C1777 1.415 . S
C1777 H1747 0.950 . S
C1777 C1772 1.363 . S
C1777 C1776 1.415 . S
H1778 C1775 0.999 . S
H1779 C1760 0.913 . S
H1780 C1798 0.951 . S
H1781 C1800 0.951 . S
H1782 C1802 0.950 . S
H1783 C1803 0.950 . S
H1784 C1805 0.950 . S
H1785 C1808 0.950 . S
H1786 C1809 0.950 . S
H1787 C1811 0.950 . S
H1788 C1812 0.950 . S
H1789 C1813 0.951 . S
H1790 C1815 0.951 . S
H1791 C1817 0.950 . S
H1792 C1818 0.950 . S
H1793 C1820 0.950 . S
H1794 C1823 0.950 . S
H1795 C1824 0.950 . S
H1796 C1826 0.950 . S
H1797 C1827 0.950 . S
C1798 H1780 0.951 . S
C1798 C1799 1.366 . S
C1798 C1800 1.388 . S
C1799 C1798 1.366 . S
C1799 C1803 1.385 . S
C1800 H1781 0.951 . S
C1800 C1798 1.388 . S
C1800 C1801 1.366 . S
C1801 C1800 1.366 . S
C1801 C1802 1.414 . S
C1801 C1804 1.499 . S
C1802 H1782 0.950 . S
C1802 C1801 1.414 . S
C1802 C1803 1.374 . S
C1803 H1783 0.950 . S
C1803 C1799 1.385 . S
C1803 C1802 1.374 . S
C1804 C1801 1.499 . S
C1804 C1805 1.373 . S
C1804 C1806 1.389 . S
C1805 H1784 0.950 . S
C1805 C1804 1.373 . S
C1805 C1821 1.377 . S
C1806 C1804 1.389 . S
C1806 C1807 1.524 . S
C1806 C1820 1.377 . S
C1807 C1806 1.524 . S
C1807 C1808 1.397 . S
C1807 C1812 1.363 . S
C1808 H1785 0.950 . S
C1808 C1807 1.397 . S
C1808 C1809 1.334 . S
C1809 H1786 0.950 . S
C1809 C1808 1.334 . S
C1809 C1810 1.287 . S
C1810 C1809 1.287 . S
C1810 C1811 1.524 . S
C1810 H1829 0.913 . S
C1811 H1787 0.950 . S
C1811 C1810 1.524 . S
C1811 C1812 1.415 . S
C1812 H1788 0.950 . S
C1812 C1807 1.363 . S
C1812 C1811 1.415 . S
C1813 H1789 0.951 . S
C1813 C1814 1.366 . S
C1813 C1815 1.388 . S
C1814 C1813 1.366 . S
C1814 C1818 1.385 . S
C1815 H1790 0.951 . S
C1815 C1813 1.388 . S
C1815 C1816 1.366 . S
C1816 C1815 1.366 . S
C1816 C1817 1.414 . S
C1816 C1819 1.499 . S
C1817 H1791 0.950 . S
C1817 C1816 1.414 . S
C1817 C1818 1.374 . S
C1818 H1792 0.950 . S
C1818 C1814 1.385 . S
C1818 C1817 1.374 . S
C1819 C1816 1.499 . S
C1819 C1820 1.373 . S
C1819 C1821 1.389 . S
C1820 H1793 0.950 . S
C1820 C1806 1.377 . S
C1820 C1819 1.373 . S
C1821 C1805 1.377 . S
C1821 C1819 1.389 . S
C1821 C1822 1.524 . S
C1822 C1821 1.524 . S
C1822 C1823 1.397 . S
C1822 C1827 1.363 . S
C1823 H1794 0.950 . S
C1823 C1822 1.397 . S
C1823 C1824 1.334 . S
C1824 H1795 0.950 . S
C1824 C1823 1.334 . S
C1824 C1825 1.287 . S
C1825 C1824 1.287 . S
C1825 C1826 1.524 . S
C1825 H1828 0.999 . S
C1826 H1796 0.950 . S
C1826 C1825 1.524 . S
C1826 C1827 1.415 . S
C1827 H1797 0.950 . S
C1827 C1822 1.363 . S
C1827 C1826 1.415 . S
H1828 C1825 0.999 . S
H1829 C1810 0.913 . S
H1830 C1848 0.951 . S
H1831 C1850 0.951 . S
H1832 C1852 0.950 . S
H1833 C1853 0.950 . S
H1834 C1855 0.950 . S
H1835 C1858 0.950 . S
H1836 C1859 0.950 . S
H1837 C1861 0.950 . S
H1838 C1862 0.950 . S
H1839 C1863 0.951 . S
H1840 C1865 0.951 . S
H1841 C1867 0.950 . S
H1842 C1868 0.950 . S
H1843 C1870 0.950 . S
H1844 C1873 0.950 . S
H1845 C1874 0.950 . S
H1846 C1876 0.950 . S
H1847 C1877 0.950 . S
C1848 H1830 0.951 . S
C1848 C1849 1.366 . S
C1848 C1850 1.388 . S
C1849 C1848 1.366 . S
C1849 C1853 1.385 . S
C1850 H1831 0.951 . S
C1850 C1848 1.388 . S
C1850 C1851 1.366 . S
C1851 C1850 1.366 . S
C1851 C1852 1.414 . S
C1851 C1854 1.499 . S
C1852 H1832 0.950 . S
C1852 C1851 1.414 . S
C1852 C1853 1.374 . S
C1853 H1833 0.950 . S
C1853 C1849 1.385 . S
C1853 C1852 1.374 . S
C1854 C1851 1.499 . S
C1854 C1855 1.373 . S
C1854 C1856 1.389 . S
C1855 H1834 0.950 . S
C1855 C1854 1.373 . S
C1855 C1871 1.377 . S
C1856 C1854 1.389 . S
C1856 C1857 1.524 . S
C1856 C1870 1.377 . S
C1857 C1856 1.524 . S
C1857 C1858 1.397 . S
C1857 C1862 1.363 . S
C1858 H1835 0.950 . S
C1858 C1857 1.397 . S
C1858 C1859 1.334 . S
C1859 H1836 0.950 . S
C1859 C1858 1.334 . S
C1859 C1860 1.287 . S
C1860 C1859 1.287 . S
C1860 C1861 1.524 . S
C1860 H1879 0.913 . S
C1861 H1837 0.950 . S
C1861 C1860 1.524 . S
C1861 C1862 1.415 . S
C1862 H1838 0.950 . S
C1862 C1857 1.363 . S
C1862 C1861 1.415 . S
C1863 H1839 0.951 . S
C1863 C1864 1.366 . S
C1863 C1865 1.388 . S
C1864 C1863 1.366 . S
C1864 C1868 1.385 . S
C1865 H1840 0.951 . S
C1865 C1863 1.388 . S
C1865 C1866 1.366 . S
C1866 C1865 1.366 . S
C1866 C1867 1.414 . S
C1866 C1869 1.499 . S
C1867 H1841 0.950 . S
C1867 C1866 1.414 . S
C1867 C1868 1.374 . S
C1868 H1842 0.950 . S
C1868 C1864 1.385 . S
C1868 C1867 1.374 . S
C1869 C1866 1.499 . S
C1869 C1870 1.373 . S
C1869 C1871 1.389 . S
C1870 H1843 0.950 . S
C1870 C1856 1.377 . S
C1870 C1869 1.373 . S
C1871 C1855 1.377 . S
C1871 C1869 1.389 . S
C1871 C1872 1.524 . S
C1872 C1871 1.524 . S
C1872 C1873 1.397 . S
C1872 C1877 1.363 . S
C1873 H1844 0.950 . S
C1873 C1872 1.397 . S
C1873 C1874 1.334 . S
C1874 H1845 0.950 . S
C1874 C1873 1.334 . S
C1874 C1875 1.287 . S
C1875 C1874 1.287 . S
C1875 C1876 1.524 . S
C1875 H1878 0.999 . S
C1876 H1846 0.950 . S
C1876 C1875 1.524 . S
C1876 C1877 1.415 . S
C1877 H1847 0.950 . S
C1877 C1872 1.363 . S
C1877 C1876 1.415 . S
H1878 C1875 0.999 . S
H1879 C1860 0.913 . S
H1880 C1898 0.951 . S
H1881 C1900 0.951 . S
H1882 C1902 0.950 1_655 S
H1883 C1903 0.950 1_655 S
H1884 C1905 0.950 . S
H1885 C1908 0.950 . S
H1886 C1909 0.950 . S
H1887 C1911 0.950 . S
H1888 C1912 0.950 . S
H1889 C1913 0.946 . S
H1890 C1915 0.951 1_655 S
H1891 C1917 0.950 . S
H1892 C1918 0.950 . S
H1893 C1920 0.950 . S
H1894 C1923 0.950 . S
H1895 C1924 0.950 . S
H1896 C1926 0.950 . S
H1897 C1927 0.950 . S
C1898 H1880 0.951 . S
C1898 C1899 1.366 . S
C1898 C1900 1.388 . S
C1899 C1898 1.366 . S
C1899 C1903 1.385 . S
C1900 H1881 0.951 . S
C1900 C1898 1.388 . S
C1900 C1901 1.366 . S
C1901 C1900 1.366 . S
C1901 C1902 1.414 . S
C1901 C1904 1.499 . S
C1902 H1882 0.950 1_455 S
C1902 C1901 1.414 . S
C1902 C1903 1.374 . S
C1903 H1883 0.950 1_455 S
C1903 C1899 1.385 . S
C1903 C1902 1.374 . S
C1904 C1901 1.499 . S
C1904 C1905 1.373 . S
C1904 C1906 1.389 . S
C1905 H1884 0.950 . S
C1905 C1904 1.373 . S
C1905 C1921 1.377 . S
C1906 C1904 1.389 . S
C1906 C1907 1.524 . S
C1906 C1920 1.377 . S
C1907 C1906 1.524 . S
C1907 C1908 1.397 . S
C1907 C1912 1.363 . S
C1908 H1885 0.950 . S
C1908 C1907 1.397 . S
C1908 C1909 1.334 . S
C1909 H1886 0.950 . S
C1909 C1908 1.334 . S
C1909 C1910 1.287 . S
C1910 C1909 1.287 . S
C1910 C1911 1.524 . S
C1910 H1929 0.913 . S
C1911 H1887 0.950 . S
C1911 C1910 1.524 . S
C1911 C1912 1.415 . S
C1912 H1888 0.950 . S
C1912 C1907 1.363 . S
C1912 C1911 1.415 . S
C1913 H1889 0.946 . S
C1913 C1914 1.366 . S
C1913 C1915 1.388 . S
C1914 C1913 1.366 . S
C1914 C1918 1.385 . S
C1915 H1890 0.951 1_455 S
C1915 C1913 1.388 . S
C1915 C1916 1.366 . S
C1916 C1915 1.366 . S
C1916 C1917 1.414 . S
C1916 C1919 1.499 . S
C1917 H1891 0.950 . S
C1917 C1916 1.414 . S
C1917 C1918 1.374 . S
C1918 H1892 0.950 . S
C1918 C1914 1.385 . S
C1918 C1917 1.374 . S
C1919 C1916 1.499 . S
C1919 C1920 1.373 . S
C1919 C1921 1.389 . S
C1920 H1893 0.950 . S
C1920 C1906 1.377 . S
C1920 C1919 1.373 . S
C1921 C1905 1.377 . S
C1921 C1919 1.389 . S
C1921 C1922 1.524 . S
C1922 C1921 1.524 . S
C1922 C1923 1.397 . S
C1922 C1927 1.363 1_455 S
C1923 H1894 0.950 . S
C1923 C1922 1.397 . S
C1923 C1924 1.334 . S
C1924 H1895 0.950 . S
C1924 C1923 1.334 . S
C1924 C1925 1.287 1_455 S
C1925 C1924 1.287 1_655 S
C1925 C1926 1.524 . S
C1925 H1928 0.999 . S
C1926 H1896 0.950 . S
C1926 C1925 1.524 . S
C1926 C1927 1.415 . S
C1927 H1897 0.950 . S
C1927 C1922 1.363 1_655 S
C1927 C1926 1.415 . S
H1928 C1925 0.999 . S
H1929 C1910 0.913 . S
H1930 C1948 0.951 . S
H1931 C1950 0.951 . S
H1932 C1952 0.950 . S
H1933 C1953 0.950 . S
H1934 C1955 0.950 . S
H1935 C1958 0.950 . S
H1936 C1959 0.950 . S
H1937 C1961 0.950 . S
H1938 C1962 0.950 . S
H1939 C1963 0.951 . S
H1940 C1965 0.951 . S
H1941 C1967 0.950 . S
H1942 C1968 0.950 . S
H1943 C1970 0.950 . S
H1944 C1973 0.950 . S
H1945 C1974 0.950 . S
H1946 C1976 0.950 . S
H1947 C1977 0.950 . S
C1948 H1930 0.951 . S
C1948 C1949 1.366 . S
C1948 C1950 1.388 . S
C1949 C1948 1.366 . S
C1949 C1953 1.385 . S
C1950 H1931 0.951 . S
C1950 C1948 1.388 . S
C1950 C1951 1.366 . S
C1951 C1950 1.366 . S
C1951 C1952 1.414 . S
C1951 C1954 1.499 . S
C1952 H1932 0.950 . S
C1952 C1951 1.414 . S
C1952 C1953 1.374 . S
C1953 H1933 0.950 . S
C1953 C1949 1.385 . S
C1953 C1952 1.374 . S
C1954 C1951 1.499 . S
C1954 C1955 1.373 . S
C1954 C1956 1.389 . S
C1955 H1934 0.950 . S
C1955 C1954 1.373 . S
C1955 C1971 1.377 . S
C1956 C1954 1.389 . S
C1956 C1957 1.524 . S
C1956 C1970 1.377 . S
C1957 C1956 1.524 . S
C1957 C1958 1.397 . S
C1957 C1962 1.363 . S
C1958 H1935 0.950 . S
C1958 C1957 1.397 . S
C1958 C1959 1.334 . S
C1959 H1936 0.950 . S
C1959 C1958 1.334 . S
C1959 C1960 1.287 . S
C1960 C1959 1.287 . S
C1960 C1961 1.524 . S
C1960 H1979 0.913 . S
C1961 H1937 0.950 . S
C1961 C1960 1.524 . S
C1961 C1962 1.415 . S
C1962 H1938 0.950 . S
C1962 C1957 1.363 . S
C1962 C1961 1.415 . S
C1963 H1939 0.951 . S
C1963 C1964 1.366 . S
C1963 C1965 1.388 . S
C1964 C1963 1.366 . S
C1964 C1968 1.385 . S
C1965 H1940 0.951 . S
C1965 C1963 1.388 . S
C1965 C1966 1.366 . S
C1966 C1965 1.366 . S
C1966 C1967 1.414 . S
C1966 C1969 1.499 . S
C1967 H1941 0.950 . S
C1967 C1966 1.414 . S
C1967 C1968 1.374 . S
C1968 H1942 0.950 . S
C1968 C1964 1.385 . S
C1968 C1967 1.374 . S
C1969 C1966 1.499 . S
C1969 C1970 1.373 . S
C1969 C1971 1.389 . S
C1970 H1943 0.950 . S
C1970 C1956 1.377 . S
C1970 C1969 1.373 . S
C1971 C1955 1.377 . S
C1971 C1969 1.389 . S
C1971 C1972 1.524 . S
C1972 C1971 1.524 . S
C1972 C1973 1.397 . S
C1972 C1977 1.363 . S
C1973 H1944 0.950 . S
C1973 C1972 1.397 . S
C1973 C1974 1.334 . S
C1974 H1945 0.950 . S
C1974 C1973 1.334 . S
C1974 C1975 1.287 . S
C1975 C1974 1.287 . S
C1975 C1976 1.524 . S
C1975 H1978 0.999 . S
C1976 H1946 0.950 . S
C1976 C1975 1.524 . S
C1976 C1977 1.415 . S
C1977 H1947 0.950 . S
C1977 C1972 1.363 . S
C1977 C1976 1.415 . S
H1978 C1975 0.999 . S
H1979 C1960 0.913 . S
H1980 C1998 0.951 . S
H1981 C2000 0.951 . S
H1982 C2002 0.950 . S
H1983 C2003 0.950 . S
H1984 C2005 0.950 . S
H1985 C2008 0.950 . S
H1986 C2009 0.950 . S
H1987 C2011 0.950 . S
H1988 C2012 0.950 . S
H1989 C2013 0.951 . S
H1990 C2015 0.951 . S
H1991 C2017 0.950 . S
H1992 C2018 0.950 . S
H1993 C2020 0.950 . S
H1994 C2023 0.950 . S
H1995 C2024 0.950 . S
H1996 C2026 0.950 . S
H1997 C2027 0.950 . S
C1998 H1980 0.951 . S
C1998 C1999 1.366 . S
C1998 C2000 1.388 . S
C1999 C1998 1.366 . S
C1999 C2003 1.385 . S
C2000 H1981 0.951 . S
C2000 C1998 1.388 . S
C2000 C2001 1.366 . S
C2001 C2000 1.366 . S
C2001 C2002 1.414 . S
C2001 C2004 1.499 . S
C2002 H1982 0.950 . S
C2002 C2001 1.414 . S
C2002 C2003 1.374 . S
C2003 H1983 0.950 . S
C2003 C1999 1.385 . S
C2003 C2002 1.374 . S
C2004 C2001 1.499 . S
C2004 C2005 1.373 . S
C2004 C2006 1.389 . S
C2005 H1984 0.950 . S
C2005 C2004 1.373 . S
C2005 C2021 1.377 . S
C2006 C2004 1.389 . S
C2006 C2007 1.524 . S
C2006 C2020 1.377 . S
C2007 C2006 1.524 . S
C2007 C2008 1.397 . S
C2007 C2012 1.363 . S
C2008 H1985 0.950 . S
C2008 C2007 1.397 . S
C2008 C2009 1.334 . S
C2009 H1986 0.950 . S
C2009 C2008 1.334 . S
C2009 C2010 1.287 . S
C2010 C2009 1.287 . S
C2010 C2011 1.524 . S
C2010 H2029 0.913 . S
C2011 H1987 0.950 . S
C2011 C2010 1.524 . S
C2011 C2012 1.415 . S
C2012 H1988 0.950 . S
C2012 C2007 1.363 . S
C2012 C2011 1.415 . S
C2013 H1989 0.951 . S
C2013 C2014 1.366 . S
C2013 C2015 1.388 . S
C2014 C2013 1.366 . S
C2014 C2018 1.385 . S
C2015 H1990 0.951 . S
C2015 C2013 1.388 . S
C2015 C2016 1.366 . S
C2016 C2015 1.366 . S
C2016 C2017 1.414 . S
C2016 C2019 1.499 . S
C2017 H1991 0.950 . S
C2017 C2016 1.414 . S
C2017 C2018 1.374 . S
C2018 H1992 0.950 . S
C2018 C2014 1.385 . S
C2018 C2017 1.374 . S
C2019 C2016 1.499 . S
C2019 C2020 1.373 . S
C2019 C2021 1.389 . S
C2020 H1993 0.950 . S
C2020 C2006 1.377 . S
C2020 C2019 1.373 . S
C2021 C2005 1.377 . S
C2021 C2019 1.389 . S
C2021 C2022 1.524 . S
C2022 C2021 1.524 . S
C2022 C2023 1.397 . S
C2022 C2027 1.363 . S
C2023 H1994 0.950 . S
C2023 C2022 1.397 . S
C2023 C2024 1.334 . S
C2024 H1995 0.950 . S
C2024 C2023 1.334 . S
C2024 C2025 1.287 . S
C2025 C2024 1.287 . S
C2025 C2026 1.524 . S
C2025 H2028 0.999 . S
C2026 H1996 0.950 . S
C2026 C2025 1.524 . S
C2026 C2027 1.415 . S
C2027 H1997 0.950 . S
C2027 C2022 1.363 . S
C2027 C2026 1.415 . S
H2028 C2025 0.999 . S
H2029 C2010 0.913 . S
H2030 C2048 0.951 . S
H2031 C2050 0.951 . S
H2032 C2052 0.950 . S
H2033 C2053 0.950 . S
H2034 C2055 0.950 . S
H2035 C2058 0.950 . S
H2036 C2059 0.950 . S
H2037 C2061 0.950 . S
H2038 C2062 0.950 . S
H2039 C2063 0.951 . S
H2040 C2065 0.951 . S
H2041 C2067 0.950 . S
H2042 C2068 0.950 . S
H2043 C2070 0.950 . S
H2044 C2073 0.950 . S
H2045 C2074 0.950 . S
H2046 C2076 0.950 . S
H2047 C2077 0.950 . S
C2048 H2030 0.951 . S
C2048 C2049 1.366 . S
C2048 C2050 1.388 . S
C2049 C2048 1.366 . S
C2049 C2053 1.385 . S
C2050 H2031 0.951 . S
C2050 C2048 1.388 . S
C2050 C2051 1.366 . S
C2051 C2050 1.366 . S
C2051 C2052 1.414 . S
C2051 C2054 1.499 . S
C2052 H2032 0.950 . S
C2052 C2051 1.414 . S
C2052 C2053 1.374 . S
C2053 H2033 0.950 . S
C2053 C2049 1.385 . S
C2053 C2052 1.374 . S
C2054 C2051 1.499 . S
C2054 C2055 1.373 . S
C2054 C2056 1.389 . S
C2055 H2034 0.950 . S
C2055 C2054 1.373 . S
C2055 C2071 1.377 . S
C2056 C2054 1.389 . S
C2056 C2057 1.524 . S
C2056 C2070 1.377 . S
C2057 C2056 1.524 . S
C2057 C2058 1.397 . S
C2057 C2062 1.363 . S
C2058 H2035 0.950 . S
C2058 C2057 1.397 . S
C2058 C2059 1.334 . S
C2059 H2036 0.950 . S
C2059 C2058 1.334 . S
C2059 C2060 1.287 . S
C2060 C2059 1.287 . S
C2060 C2061 1.524 . S
C2060 H2079 0.913 . S
C2061 H2037 0.950 . S
C2061 C2060 1.524 . S
C2061 C2062 1.415 . S
C2062 H2038 0.950 . S
C2062 C2057 1.363 . S
C2062 C2061 1.415 . S
C2063 H2039 0.951 . S
C2063 C2064 1.366 . S
C2063 C2065 1.388 . S
C2064 C2063 1.366 . S
C2064 C2068 1.385 . S
C2065 H2040 0.951 . S
C2065 C2063 1.388 . S
C2065 C2066 1.366 . S
C2066 C2065 1.366 . S
C2066 C2067 1.414 . S
C2066 C2069 1.499 . S
C2067 H2041 0.950 . S
C2067 C2066 1.414 . S
C2067 C2068 1.374 . S
C2068 H2042 0.950 . S
C2068 C2064 1.385 . S
C2068 C2067 1.374 . S
C2069 C2066 1.499 . S
C2069 C2070 1.373 . S
C2069 C2071 1.389 . S
C2070 H2043 0.950 . S
C2070 C2056 1.377 . S
C2070 C2069 1.373 . S
C2071 C2055 1.377 . S
C2071 C2069 1.389 . S
C2071 C2072 1.524 . S
C2072 C2071 1.524 . S
C2072 C2073 1.397 . S
C2072 C2077 1.363 . S
C2073 H2044 0.950 . S
C2073 C2072 1.397 . S
C2073 C2074 1.334 . S
C2074 H2045 0.950 . S
C2074 C2073 1.334 . S
C2074 C2075 1.287 . S
C2075 C2074 1.287 . S
C2075 C2076 1.524 . S
C2075 H2078 0.999 . S
C2076 H2046 0.950 . S
C2076 C2075 1.524 . S
C2076 C2077 1.415 . S
C2077 H2047 0.950 . S
C2077 C2072 1.363 . S
C2077 C2076 1.415 . S
H2078 C2075 0.999 . S
H2079 C2060 0.913 . S
H2080 C2098 0.951 . S
H2081 C2100 0.951 . S
H2082 C2102 0.950 . S
H2083 C2103 0.950 . S
H2084 C2105 0.950 . S
H2085 C2108 0.950 . S
H2086 C2109 0.950 . S
H2087 C2111 0.950 . S
H2088 C2112 0.950 . S
H2089 C2113 0.951 . S
H2090 C2115 0.951 . S
H2091 C2117 0.950 . S
H2092 C2118 0.950 . S
H2093 C2120 0.950 1_565 S
H2094 C2123 0.950 . S
H2095 C2124 0.950 . S
H2096 C2126 0.950 . S
H2097 C2127 0.950 . S
C2098 H2080 0.951 . S
C2098 C2099 1.366 . S
C2098 C2100 1.388 . S
C2099 C2098 1.366 . S
C2099 C2103 1.385 . S
C2100 H2081 0.951 . S
C2100 C2098 1.388 . S
C2100 C2101 1.366 . S
C2101 C2100 1.366 . S
C2101 C2102 1.414 . S
C2101 C2104 1.499 . S
C2102 H2082 0.950 . S
C2102 C2101 1.414 . S
C2102 C2103 1.374 . S
C2103 H2083 0.950 . S
C2103 C2099 1.385 . S
C2103 C2102 1.374 . S
C2104 C2101 1.499 . S
C2104 C2105 1.373 . S
C2104 C2106 1.389 . S
C2105 H2084 0.950 . S
C2105 C2104 1.373 . S
C2105 C2121 1.377 . S
C2106 C2104 1.389 . S
C2106 C2107 1.524 1_545 S
C2106 C2120 1.377 . S
C2107 C2106 1.524 1_565 S
C2107 C2108 1.397 . S
C2107 C2112 1.363 . S
C2108 H2085 0.950 . S
C2108 C2107 1.397 . S
C2108 C2109 1.334 . S
C2109 H2086 0.950 . S
C2109 C2108 1.334 . S
C2109 C2110 1.287 . S
C2110 C2109 1.287 . S
C2110 C2111 1.524 . S
C2110 H2129 0.913 . S
C2111 H2087 0.950 . S
C2111 C2110 1.524 . S
C2111 C2112 1.415 . S
C2112 H2088 0.950 . S
C2112 C2107 1.363 . S
C2112 C2111 1.415 . S
C2113 H2089 0.951 . S
C2113 C2114 1.366 . S
C2113 C2115 1.388 . S
C2114 C2113 1.366 . S
C2114 C2118 1.385 1_455 S
C2115 H2090 0.951 . S
C2115 C2113 1.388 . S
C2115 C2116 1.366 1_455 S
C2116 C2115 1.366 1_655 S
C2116 C2117 1.414 . S
C2116 C2119 1.499 . S
C2117 H2091 0.950 . S
C2117 C2116 1.414 . S
C2117 C2118 1.374 . S
C2118 H2092 0.950 . S
C2118 C2114 1.385 1_655 S
C2118 C2117 1.374 . S
C2119 C2116 1.499 . S
C2119 C2120 1.373 . S
C2119 C2121 1.389 . S
C2120 H2093 0.950 1_545 S
C2120 C2106 1.377 . S
C2120 C2119 1.373 . S
C2121 C2105 1.377 . S
C2121 C2119 1.389 . S
C2121 C2122 1.524 . S
C2122 C2121 1.524 . S
C2122 C2123 1.397 . S
C2122 C2127 1.363 1_655 S
C2123 H2094 0.950 . S
C2123 C2122 1.397 . S
C2123 C2124 1.334 . S
C2124 H2095 0.950 . S
C2124 C2123 1.334 . S
C2124 C2125 1.287 1_655 S
C2125 C2124 1.287 1_455 S
C2125 C2126 1.524 . S
C2125 H2128 0.999 . S
C2126 H2096 0.950 . S
C2126 C2125 1.524 . S
C2126 C2127 1.415 . S
C2127 H2097 0.950 . S
C2127 C2122 1.363 1_455 S
C2127 C2126 1.415 . S
H2128 C2125 0.999 . S
H2129 C2110 0.913 . S
H2130 C2148 0.951 . S
H2131 C2150 0.951 . S
H2132 C2152 0.950 . S
H2133 C2153 0.950 . S
H2134 C2155 0.950 . S
H2135 C2158 0.950 . S
H2136 C2159 0.950 . S
H2137 C2161 0.950 . S
H2138 C2162 0.950 . S
H2139 C2163 0.951 . S
H2140 C2165 0.951 . S
H2141 C2167 0.950 . S
H2142 C2168 0.950 . S
H2143 C2170 0.950 . S
H2144 C2173 0.950 . S
H2145 C2174 0.950 . S
H2146 C2176 0.950 . S
H2147 C2177 0.950 . S
C2148 H2130 0.951 . S
C2148 C2149 1.366 . S
C2148 C2150 1.388 . S
C2149 C2148 1.366 . S
C2149 C2153 1.385 . S
C2150 H2131 0.951 . S
C2150 C2148 1.388 . S
C2150 C2151 1.366 . S
C2151 C2150 1.366 . S
C2151 C2152 1.414 . S
C2151 C2154 1.499 . S
C2152 H2132 0.950 . S
C2152 C2151 1.414 . S
C2152 C2153 1.374 . S
C2153 H2133 0.950 . S
C2153 C2149 1.385 . S
C2153 C2152 1.374 . S
C2154 C2151 1.499 . S
C2154 C2155 1.373 . S
C2154 C2156 1.389 . S
C2155 H2134 0.950 . S
C2155 C2154 1.373 . S
C2155 C2171 1.377 . S
C2156 C2154 1.389 . S
C2156 C2157 1.524 . S
C2156 C2170 1.377 . S
C2157 C2156 1.524 . S
C2157 C2158 1.397 . S
C2157 C2162 1.363 . S
C2158 H2135 0.950 . S
C2158 C2157 1.397 . S
C2158 C2159 1.334 . S
C2159 H2136 0.950 . S
C2159 C2158 1.334 . S
C2159 C2160 1.287 . S
C2160 C2159 1.287 . S
C2160 C2161 1.524 . S
C2160 H2179 0.913 . S
C2161 H2137 0.950 . S
C2161 C2160 1.524 . S
C2161 C2162 1.415 . S
C2162 H2138 0.950 . S
C2162 C2157 1.363 . S
C2162 C2161 1.415 . S
C2163 H2139 0.951 . S
C2163 C2164 1.366 . S
C2163 C2165 1.388 . S
C2164 C2163 1.366 . S
C2164 C2168 1.385 . S
C2165 H2140 0.951 . S
C2165 C2163 1.388 . S
C2165 C2166 1.366 . S
C2166 C2165 1.366 . S
C2166 C2167 1.414 . S
C2166 C2169 1.499 . S
C2167 H2141 0.950 . S
C2167 C2166 1.414 . S
C2167 C2168 1.374 . S
C2168 H2142 0.950 . S
C2168 C2164 1.385 . S
C2168 C2167 1.374 . S
C2169 C2166 1.499 . S
C2169 C2170 1.373 . S
C2169 C2171 1.389 . S
C2170 H2143 0.950 . S
C2170 C2156 1.377 . S
C2170 C2169 1.373 . S
C2171 C2155 1.377 . S
C2171 C2169 1.389 . S
C2171 C2172 1.524 . S
C2172 C2171 1.524 . S
C2172 C2173 1.397 . S
C2172 C2177 1.363 . S
C2173 H2144 0.950 . S
C2173 C2172 1.397 . S
C2173 C2174 1.334 . S
C2174 H2145 0.950 . S
C2174 C2173 1.334 . S
C2174 C2175 1.287 . S
C2175 C2174 1.287 . S
C2175 C2176 1.524 . S
C2175 H2178 0.999 . S
C2176 H2146 0.950 . S
C2176 C2175 1.524 . S
C2176 C2177 1.415 . S
C2177 H2147 0.950 . S
C2177 C2172 1.363 . S
C2177 C2176 1.415 . S
H2178 C2175 0.999 . S
H2179 C2160 0.913 . S
H2180 C2198 0.951 . S
H2181 C2200 0.951 . S
H2182 C2202 0.950 . S
H2183 C2203 0.950 . S
H2184 C2205 0.950 . S
H2185 C2208 0.950 . S
H2186 C2209 0.950 . S
H2187 C2211 0.950 . S
H2188 C2212 0.950 . S
H2189 C2213 0.951 . S
H2190 C2215 0.951 . S
H2191 C2217 0.950 . S
H2192 C2218 0.950 . S
H2193 C2220 0.950 . S
H2194 C2223 0.950 1_565 S
H2195 C2224 0.950 . S
H2196 C2226 0.950 . S
H2197 C2227 0.950 . S
C2198 H2180 0.951 . S
C2198 C2199 1.366 . S
C2198 C2200 1.388 . S
C2199 C2198 1.366 . S
C2199 C2203 1.385 . S
C2200 H2181 0.951 . S
C2200 C2198 1.388 . S
C2200 C2201 1.366 . S
C2201 C2200 1.366 . S
C2201 C2202 1.414 . S
C2201 C2204 1.499 . S
C2202 H2182 0.950 . S
C2202 C2201 1.414 . S
C2202 C2203 1.374 . S
C2203 H2183 0.950 . S
C2203 C2199 1.385 . S
C2203 C2202 1.374 . S
C2204 C2201 1.499 . S
C2204 C2205 1.373 . S
C2204 C2206 1.389 . S
C2205 H2184 0.950 . S
C2205 C2204 1.373 . S
C2205 C2221 1.377 . S
C2206 C2204 1.389 . S
C2206 C2207 1.524 . S
C2206 C2220 1.377 . S
C2207 C2206 1.524 . S
C2207 C2208 1.397 . S
C2207 C2212 1.363 . S
C2208 H2185 0.950 . S
C2208 C2207 1.397 . S
C2208 C2209 1.334 . S
C2209 H2186 0.950 . S
C2209 C2208 1.334 . S
C2209 C2210 1.287 . S
C2210 C2209 1.287 . S
C2210 C2211 1.524 . S
C2210 H2229 0.913 . S
C2211 H2187 0.950 . S
C2211 C2210 1.524 . S
C2211 C2212 1.415 . S
C2212 H2188 0.950 . S
C2212 C2207 1.363 . S
C2212 C2211 1.415 . S
C2213 H2189 0.951 . S
C2213 C2214 1.366 . S
C2213 C2215 1.388 . S
C2214 C2213 1.366 . S
C2214 C2218 1.385 . S
C2215 H2190 0.951 . S
C2215 C2213 1.388 . S
C2215 C2216 1.366 . S
C2216 C2215 1.366 . S
C2216 C2217 1.414 . S
C2216 C2219 1.499 . S
C2217 H2191 0.950 . S
C2217 C2216 1.414 . S
C2217 C2218 1.374 . S
C2218 H2192 0.950 . S
C2218 C2214 1.385 . S
C2218 C2217 1.374 . S
C2219 C2216 1.499 . S
C2219 C2220 1.373 . S
C2219 C2221 1.389 . S
C2220 H2193 0.950 . S
C2220 C2206 1.377 . S
C2220 C2219 1.373 . S
C2221 C2205 1.377 . S
C2221 C2219 1.389 . S
C2221 C2222 1.524 . S
C2222 C2221 1.524 . S
C2222 C2223 1.397 . S
C2222 C2227 1.363 . S
C2223 H2194 0.950 1_545 S
C2223 C2222 1.397 . S
C2223 C2224 1.334 1_545 S
C2224 H2195 0.950 . S
C2224 C2223 1.334 1_565 S
C2224 C2225 1.287 1_565 S
C2225 C2224 1.287 1_545 S
C2225 C2226 1.524 . S
C2225 H2228 0.999 . S
C2226 H2196 0.950 . S
C2226 C2225 1.524 . S
C2226 C2227 1.415 . S
C2227 H2197 0.950 . S
C2227 C2222 1.363 . S
C2227 C2226 1.415 . S
H2228 C2225 0.999 . S
H2229 C2210 0.913 . S
H2230 C2248 0.951 . S
H2231 C2250 0.951 . S
H2232 C2252 0.950 . S
H2233 C2253 0.950 . S
H2234 C2255 0.950 . S
H2235 C2258 0.950 . S
H2236 C2259 0.950 . S
H2237 C2261 0.950 . S
H2238 C2262 0.950 . S
H2239 C2263 0.951 . S
H2240 C2265 0.951 . S
H2241 C2267 0.950 . S
H2242 C2268 0.950 . S
H2243 C2270 0.950 . S
H2244 C2273 0.950 . S
H2245 C2274 0.950 . S
H2246 C2276 0.950 . S
H2247 C2277 0.950 . S
C2248 H2230 0.951 . S
C2248 C2249 1.366 . S
C2248 C2250 1.388 . S
C2249 C2248 1.366 . S
C2249 C2253 1.385 . S
C2250 H2231 0.951 . S
C2250 C2248 1.388 . S
C2250 C2251 1.366 . S
C2251 C2250 1.366 . S
C2251 C2252 1.414 . S
C2251 C2254 1.499 . S
C2252 H2232 0.950 . S
C2252 C2251 1.414 . S
C2252 C2253 1.374 . S
C2253 H2233 0.950 . S
C2253 C2249 1.385 . S
C2253 C2252 1.374 . S
C2254 C2251 1.499 . S
C2254 C2255 1.373 . S
C2254 C2256 1.389 . S
C2255 H2234 0.950 . S
C2255 C2254 1.373 . S
C2255 C2271 1.377 . S
C2256 C2254 1.389 . S
C2256 C2257 1.524 . S
C2256 C2270 1.377 . S
C2257 C2256 1.524 . S
C2257 C2258 1.397 . S
C2257 C2262 1.363 . S
C2258 H2235 0.950 . S
C2258 C2257 1.397 . S
C2258 C2259 1.334 . S
C2259 H2236 0.950 . S
C2259 C2258 1.334 . S
C2259 C2260 1.287 . S
C2260 C2259 1.287 . S
C2260 C2261 1.524 . S
C2260 H2279 0.913 . S
C2261 H2237 0.950 . S
C2261 C2260 1.524 . S
C2261 C2262 1.415 . S
C2262 H2238 0.950 . S
C2262 C2257 1.363 . S
C2262 C2261 1.415 . S
C2263 H2239 0.951 . S
C2263 C2264 1.366 . S
C2263 C2265 1.388 . S
C2264 C2263 1.366 . S
C2264 C2268 1.385 . S
C2265 H2240 0.951 . S
C2265 C2263 1.388 . S
C2265 C2266 1.366 . S
C2266 C2265 1.366 . S
C2266 C2267 1.414 . S
C2266 C2269 1.499 . S
C2267 H2241 0.950 . S
C2267 C2266 1.414 . S
C2267 C2268 1.374 . S
C2268 H2242 0.950 . S
C2268 C2264 1.385 . S
C2268 C2267 1.374 . S
C2269 C2266 1.499 . S
C2269 C2270 1.373 . S
C2269 C2271 1.389 . S
C2270 H2243 0.950 . S
C2270 C2256 1.377 . S
C2270 C2269 1.373 . S
C2271 C2255 1.377 . S
C2271 C2269 1.389 . S
C2271 C2272 1.524 . S
C2272 C2271 1.524 . S
C2272 C2273 1.397 . S
C2272 C2277 1.363 . S
C2273 H2244 0.950 . S
C2273 C2272 1.397 . S
C2273 C2274 1.334 . S
C2274 H2245 0.950 . S
C2274 C2273 1.334 . S
C2274 C2275 1.287 . S
C2275 C2274 1.287 . S
C2275 C2276 1.524 . S
C2275 H2278 0.999 . S
C2276 H2246 0.950 . S
C2276 C2275 1.524 . S
C2276 C2277 1.415 . S
C2277 H2247 0.950 . S
C2277 C2272 1.363 . S
C2277 C2276 1.415 . S
H2278 C2275 0.999 . S
H2279 C2260 0.913 . S
H2280 C2298 0.951 1_565 S
H2281 C2300 0.951 1_565 S
H2282 C2302 0.950 . S
H2283 C2303 0.950 . S
H2284 C2305 0.950 . S
H2285 C2308 0.881 1_545 S
H2286 C2309 0.950 . S
H2287 C2311 0.950 . S
H2288 C2312 0.950 . S
H2289 C2313 0.951 . S
H2290 C2315 0.951 . S
H2291 C2317 0.950 1_565 S
H2292 C2318 0.950 1_565 S
H2293 C2320 0.950 1_565 S
H2294 C2323 0.950 . S
H2295 C2324 0.950 . S
H2296 C2326 0.950 . S
H2297 C2327 0.901 1_655 S
C2298 H2280 0.951 1_545 S
C2298 C2299 1.366 . S
C2298 C2300 1.388 . S
C2299 C2298 1.366 . S
C2299 C2303 1.385 . S
C2300 H2281 0.951 1_545 S
C2300 C2298 1.388 . S
C2300 C2301 1.366 . S
C2301 C2300 1.366 . S
C2301 C2302 1.414 . S
C2301 C2304 1.499 . S
C2302 H2282 0.950 . S
C2302 C2301 1.414 . S
C2302 C2303 1.374 . S
C2303 H2283 0.950 . S
C2303 C2299 1.385 . S
C2303 C2302 1.374 . S
C2304 C2301 1.499 . S
C2304 C2305 1.373 . S
C2304 C2306 1.389 . S
C2305 H2284 0.950 . S
C2305 C2304 1.373 . S
C2305 C2321 1.377 . S
C2306 C2304 1.389 . S
C2306 C2307 1.524 1_545 S
C2306 C2320 1.377 . S
C2307 C2306 1.524 1_565 S
C2307 C2308 1.438 . S
C2307 C2312 1.363 . S
C2308 H2285 0.881 1_565 S
C2308 C2307 1.438 . S
C2308 C2309 1.364 . S
C2309 H2286 0.950 . S
C2309 C2308 1.364 . S
C2309 C2310 1.287 . S
C2310 C2309 1.287 . S
C2310 C2311 1.524 . S
C2310 H2329 0.913 . S
C2311 H2287 0.950 . S
C2311 C2310 1.524 . S
C2311 C2312 1.415 . S
C2312 H2288 0.950 . S
C2312 C2307 1.363 . S
C2312 C2311 1.415 . S
C2313 H2289 0.951 . S
C2313 C2314 1.366 . S
C2313 C2315 1.388 1_455 S
C2314 C2313 1.366 . S
C2314 C2318 1.385 . S
C2315 H2290 0.951 . S
C2315 C2313 1.388 1_655 S
C2315 C2316 1.366 . S
C2316 C2315 1.366 . S
C2316 C2317 1.414 . S
C2316 C2319 1.499 . S
C2317 H2291 0.950 1_545 S
C2317 C2316 1.414 . S
C2317 C2318 1.374 1_655 S
C2318 H2292 0.950 1_545 S
C2318 C2314 1.385 . S
C2318 C2317 1.374 1_455 S
C2319 C2316 1.499 . S
C2319 C2320 1.373 . S
C2319 C2321 1.389 . S
C2320 H2293 0.950 1_545 S
C2320 C2306 1.377 . S
C2320 C2319 1.373 . S
C2321 C2305 1.377 . S
C2321 C2319 1.389 . S
C2321 C2322 1.524 1_655 S
C2322 C2321 1.524 1_455 S
C2322 C2323 1.397 . S
C2322 C2327 1.363 . S
C2323 H2294 0.950 . S
C2323 C2322 1.397 . S
C2323 C2324 1.334 . S
C2324 H2295 0.950 . S
C2324 C2323 1.334 . S
C2324 C2325 1.287 . S
C2325 C2324 1.287 . S
C2325 C2326 1.524 . S
C2325 H2328 0.999 . S
C2326 H2296 0.950 . S
C2326 C2325 1.524 . S
C2326 C2327 1.415 . S
C2327 H2297 0.901 1_455 S
C2327 C2322 1.363 . S
C2327 C2326 1.415 . S
H2328 C2325 0.999 . S
H2329 C2310 0.913 . S
H2330 C2348 0.951 . S
H2331 C2350 0.951 . S
H2332 C2352 0.950 . S
H2333 C2353 0.950 . S
H2334 C2355 0.950 . S
H2335 C2358 0.950 . S
H2336 C2359 0.950 . S
H2337 C2361 0.950 . S
H2338 C2362 0.950 . S
H2339 C2363 0.951 . S
H2340 C2365 0.951 . S
H2341 C2367 0.950 . S
H2342 C2368 0.950 . S
H2343 C2370 0.950 . S
H2344 C2373 0.950 . S
H2345 C2374 0.950 . S
H2346 C2376 0.950 . S
H2347 C2377 0.950 . S
C2348 H2330 0.951 . S
C2348 C2349 1.366 . S
C2348 C2350 1.388 . S
C2349 C2348 1.366 . S
C2349 C2353 1.385 . S
C2350 H2331 0.951 . S
C2350 C2348 1.388 . S
C2350 C2351 1.366 . S
C2351 C2350 1.366 . S
C2351 C2352 1.414 . S
C2351 C2354 1.499 . S
C2352 H2332 0.950 . S
C2352 C2351 1.414 . S
C2352 C2353 1.374 . S
C2353 H2333 0.950 . S
C2353 C2349 1.385 . S
C2353 C2352 1.374 . S
C2354 C2351 1.499 . S
C2354 C2355 1.373 . S
C2354 C2356 1.389 . S
C2355 H2334 0.950 . S
C2355 C2354 1.373 . S
C2355 C2371 1.377 . S
C2356 C2354 1.389 . S
C2356 C2357 1.524 . S
C2356 C2370 1.377 . S
C2357 C2356 1.524 . S
C2357 C2358 1.397 . S
C2357 C2362 1.363 . S
C2358 H2335 0.950 . S
C2358 C2357 1.397 . S
C2358 C2359 1.334 . S
C2359 H2336 0.950 . S
C2359 C2358 1.334 . S
C2359 C2360 1.287 . S
C2360 C2359 1.287 . S
C2360 C2361 1.524 . S
C2360 H2379 0.913 . S
C2361 H2337 0.950 . S
C2361 C2360 1.524 . S
C2361 C2362 1.415 . S
C2362 H2338 0.950 . S
C2362 C2357 1.363 . S
C2362 C2361 1.415 . S
C2363 H2339 0.951 . S
C2363 C2364 1.366 . S
C2363 C2365 1.388 . S
C2364 C2363 1.366 . S
C2364 C2368 1.385 . S
C2365 H2340 0.951 . S
C2365 C2363 1.388 . S
C2365 C2366 1.366 . S
C2366 C2365 1.366 . S
C2366 C2367 1.414 . S
C2366 C2369 1.499 . S
C2367 H2341 0.950 . S
C2367 C2366 1.414 . S
C2367 C2368 1.374 . S
C2368 H2342 0.950 . S
C2368 C2364 1.385 . S
C2368 C2367 1.374 . S
C2369 C2366 1.499 . S
C2369 C2370 1.373 . S
C2369 C2371 1.389 . S
C2370 H2343 0.950 . S
C2370 C2356 1.377 . S
C2370 C2369 1.373 . S
C2371 C2355 1.377 . S
C2371 C2369 1.389 . S
C2371 C2372 1.524 . S
C2372 C2371 1.524 . S
C2372 C2373 1.397 . S
C2372 C2377 1.363 . S
C2373 H2344 0.950 . S
C2373 C2372 1.397 . S
C2373 C2374 1.334 . S
C2374 H2345 0.950 . S
C2374 C2373 1.334 . S
C2374 C2375 1.287 . S
C2375 C2374 1.287 . S
C2375 C2376 1.524 . S
C2375 H2378 0.999 . S
C2376 H2346 0.950 . S
C2376 C2375 1.524 . S
C2376 C2377 1.415 . S
C2377 H2347 0.950 . S
C2377 C2372 1.363 . S
C2377 C2376 1.415 . S
H2378 C2375 0.999 . S
H2379 C2360 0.913 . S
H2380 C2398 0.951 . S
H2381 C2400 0.951 . S
H2382 C2402 0.950 . S
H2383 C2403 0.950 . S
H2384 C2405 0.950 . S
H2385 C2408 0.924 1_545 S
H2386 C2409 0.950 . S
H2387 C2411 0.950 . S
H2388 C2412 0.950 . S
H2389 C2413 0.951 . S
H2390 C2415 0.951 . S
H2391 C2417 0.950 . S
H2392 C2418 0.950 . S
H2393 C2420 0.950 . S
H2394 C2423 0.950 . S
H2395 C2424 0.950 . S
H2396 C2426 0.950 . S
H2397 C2427 0.950 . S
C2398 H2380 0.951 . S
C2398 C2399 1.366 . S
C2398 C2400 1.388 . S
C2399 C2398 1.366 . S
C2399 C2403 1.385 . S
C2400 H2381 0.951 . S
C2400 C2398 1.388 . S
C2400 C2401 1.366 . S
C2401 C2400 1.366 . S
C2401 C2402 1.414 . S
C2401 C2404 1.499 . S
C2402 H2382 0.950 . S
C2402 C2401 1.414 . S
C2402 C2403 1.374 . S
C2403 H2383 0.950 . S
C2403 C2399 1.385 . S
C2403 C2402 1.374 . S
C2404 C2401 1.499 . S
C2404 C2405 1.373 . S
C2404 C2406 1.389 . S
C2405 H2384 0.950 . S
C2405 C2404 1.373 . S
C2405 C2421 1.377 . S
C2406 C2404 1.389 . S
C2406 C2407 1.524 . S
C2406 C2420 1.377 . S
C2407 C2406 1.524 . S
C2407 C2408 1.367 1_545 S
C2407 C2412 1.363 . S
C2408 H2385 0.924 1_565 S
C2408 C2407 1.367 1_565 S
C2408 C2409 1.383 . S
C2409 H2386 0.950 . S
C2409 C2408 1.383 . S
C2409 C2410 1.287 . S
C2410 C2409 1.287 . S
C2410 C2411 1.524 . S
C2410 H2429 0.913 . S
C2411 H2387 0.950 . S
C2411 C2410 1.524 . S
C2411 C2412 1.415 1_565 S
C2412 H2388 0.950 . S
C2412 C2407 1.363 . S
C2412 C2411 1.415 1_545 S
C2413 H2389 0.951 . S
C2413 C2414 1.366 . S
C2413 C2415 1.388 . S
C2414 C2413 1.366 . S
C2414 C2418 1.385 . S
C2415 H2390 0.951 . S
C2415 C2413 1.388 . S
C2415 C2416 1.366 . S
C2416 C2415 1.366 . S
C2416 C2417 1.414 . S
C2416 C2419 1.499 . S
C2417 H2391 0.950 . S
C2417 C2416 1.414 . S
C2417 C2418 1.374 . S
C2418 H2392 0.950 . S
C2418 C2414 1.385 . S
C2418 C2417 1.374 . S
C2419 C2416 1.499 . S
C2419 C2420 1.373 . S
C2419 C2421 1.389 . S
C2420 H2393 0.950 . S
C2420 C2406 1.377 . S
C2420 C2419 1.373 . S
C2421 C2405 1.377 . S
C2421 C2419 1.389 . S
C2421 C2422 1.524 . S
C2422 C2421 1.524 . S
C2422 C2423 1.397 . S
C2422 C2427 1.363 . S
C2423 H2394 0.950 . S
C2423 C2422 1.397 . S
C2423 C2424 1.334 . S
C2424 H2395 0.950 . S
C2424 C2423 1.334 . S
C2424 C2425 1.287 . S
C2425 C2424 1.287 . S
C2425 C2426 1.524 . S
C2425 H2428 0.999 . S
C2426 H2396 0.950 . S
C2426 C2425 1.524 . S
C2426 C2427 1.415 . S
C2427 H2397 0.950 . S
C2427 C2422 1.363 . S
C2427 C2426 1.415 . S
H2428 C2425 0.999 . S
H2429 C2410 0.913 . S
H2430 C2448 0.951 . S
H2431 C2450 0.951 . S
H2432 C2452 0.950 . S
H2433 C2453 0.950 . S
H2434 C2455 0.950 . S
H2435 C2458 0.950 . S
H2436 C2459 0.950 . S
H2437 C2461 0.950 . S
H2438 C2462 0.950 . S
H2439 C2463 0.951 . S
H2440 C2465 0.951 . S
H2441 C2467 0.950 . S
H2442 C2468 0.950 . S
H2443 C2470 0.950 . S
H2444 C2473 0.950 . S
H2445 C2474 0.950 . S
H2446 C2476 0.950 . S
H2447 C2477 0.950 . S
C2448 H2430 0.951 . S
C2448 C2449 1.366 . S
C2448 C2450 1.388 . S
C2449 C2448 1.366 . S
C2449 C2453 1.385 . S
C2450 H2431 0.951 . S
C2450 C2448 1.388 . S
C2450 C2451 1.366 . S
C2451 C2450 1.366 . S
C2451 C2452 1.414 . S
C2451 C2454 1.499 . S
C2452 H2432 0.950 . S
C2452 C2451 1.414 . S
C2452 C2453 1.374 . S
C2453 H2433 0.950 . S
C2453 C2449 1.385 . S
C2453 C2452 1.374 . S
C2454 C2451 1.499 . S
C2454 C2455 1.373 . S
C2454 C2456 1.389 . S
C2455 H2434 0.950 . S
C2455 C2454 1.373 . S
C2455 C2471 1.377 . S
C2456 C2454 1.389 . S
C2456 C2457 1.524 . S
C2456 C2470 1.377 . S
C2457 C2456 1.524 . S
C2457 C2458 1.397 . S
C2457 C2462 1.363 . S
C2458 H2435 0.950 . S
C2458 C2457 1.397 . S
C2458 C2459 1.334 . S
C2459 H2436 0.950 . S
C2459 C2458 1.334 . S
C2459 C2460 1.287 . S
C2460 C2459 1.287 . S
C2460 C2461 1.524 . S
C2460 H2479 0.913 . S
C2461 H2437 0.950 . S
C2461 C2460 1.524 . S
C2461 C2462 1.415 . S
C2462 H2438 0.950 . S
C2462 C2457 1.363 . S
C2462 C2461 1.415 . S
C2463 H2439 0.951 . S
C2463 C2464 1.366 . S
C2463 C2465 1.388 . S
C2464 C2463 1.366 . S
C2464 C2468 1.385 . S
C2465 H2440 0.951 . S
C2465 C2463 1.388 . S
C2465 C2466 1.366 . S
C2466 C2465 1.366 . S
C2466 C2467 1.414 . S
C2466 C2469 1.499 . S
C2467 H2441 0.950 . S
C2467 C2466 1.414 . S
C2467 C2468 1.374 . S
C2468 H2442 0.950 . S
C2468 C2464 1.385 . S
C2468 C2467 1.374 . S
C2469 C2466 1.499 . S
C2469 C2470 1.373 . S
C2469 C2471 1.389 . S
C2470 H2443 0.950 . S
C2470 C2456 1.377 . S
C2470 C2469 1.373 . S
C2471 C2455 1.377 . S
C2471 C2469 1.389 . S
C2471 C2472 1.524 . S
C2472 C2471 1.524 . S
C2472 C2473 1.397 . S
C2472 C2477 1.363 . S
C2473 H2444 0.950 . S
C2473 C2472 1.397 . S
C2473 C2474 1.334 . S
C2474 H2445 0.950 . S
C2474 C2473 1.334 . S
C2474 C2475 1.287 . S
C2475 C2474 1.287 . S
C2475 C2476 1.524 . S
C2475 H2478 0.999 . S
C2476 H2446 0.950 . S
C2476 C2475 1.524 . S
C2476 C2477 1.415 . S
C2477 H2447 0.950 . S
C2477 C2472 1.363 . S
C2477 C2476 1.415 . S
H2478 C2475 0.999 . S
H2479 C2460 0.913 . S
H2480 C2498 0.951 . S
H2481 C2500 0.951 . S
H2482 C2502 0.950 . S
H2483 C2503 0.950 . S
H2484 C2505 0.950 . S
H2485 C2508 0.950 . S
H2486 C2509 0.950 . S
H2487 C2511 0.950 . S
H2488 C2512 0.950 . S
H2489 C2513 0.951 . S
H2490 C2515 0.951 1_545 S
H2491 C2517 0.950 . S
H2492 C2518 0.950 . S
H2493 C2520 0.950 1_556 S
H2494 C2523 0.950 . S
H2495 C2524 0.950 . S
H2496 C2526 0.950 . S
H2497 C2527 0.950 . S
C2498 H2480 0.951 . S
C2498 C2499 1.366 . S
C2498 C2500 1.388 1_556 S
C2499 C2498 1.366 . S
C2499 C2503 1.385 1_556 S
C2500 H2481 0.951 . S
C2500 C2498 1.388 1_554 S
C2500 C2501 1.366 . S
C2501 C2500 1.366 . S
C2501 C2502 1.414 . S
C2501 C2504 1.499 . S
C2502 H2482 0.950 . S
C2502 C2501 1.414 . S
C2502 C2503 1.374 . S
C2503 H2483 0.950 . S
C2503 C2499 1.385 1_554 S
C2503 C2502 1.374 . S
C2504 C2501 1.499 . S
C2504 C2505 1.373 . S
C2504 C2506 1.389 1_554 S
C2505 H2484 0.950 . S
C2505 C2504 1.373 . S
C2505 C2521 1.377 . S
C2506 C2504 1.389 1_556 S
C2506 C2507 1.524 . S
C2506 C2520 1.377 1_556 S
C2507 C2506 1.524 . S
C2507 C2508 1.397 . S
C2507 C2512 1.363 . S
C2508 H2485 0.950 . S
C2508 C2507 1.397 . S
C2508 C2509 1.334 . S
C2509 H2486 0.950 . S
C2509 C2508 1.334 . S
C2509 C2510 1.287 . S
C2510 C2509 1.287 . S
C2510 C2511 1.524 . S
C2510 H2529 0.913 . S
C2511 H2487 0.950 . S
C2511 C2510 1.524 . S
C2511 C2512 1.415 . S
C2512 H2488 0.950 . S
C2512 C2507 1.363 . S
C2512 C2511 1.415 . S
C2513 H2489 0.951 . S
C2513 C2514 1.366 1_545 S
C2513 C2515 1.388 1_545 S
C2514 C2513 1.366 1_565 S
C2514 C2518 1.385 . S
C2515 H2490 0.951 1_565 S
C2515 C2513 1.388 1_565 S
C2515 C2516 1.366 . S
C2516 C2515 1.366 . S
C2516 C2517 1.414 . S
C2516 C2519 1.499 . S
C2517 H2491 0.950 . S
C2517 C2516 1.414 . S
C2517 C2518 1.374 . S
C2518 H2492 0.950 . S
C2518 C2514 1.385 . S
C2518 C2517 1.374 . S
C2519 C2516 1.499 . S
C2519 C2520 1.373 . S
C2519 C2521 1.389 . S
C2520 H2493 0.950 1_554 S
C2520 C2506 1.377 1_554 S
C2520 C2519 1.373 . S
C2521 C2505 1.377 . S
C2521 C2519 1.389 . S
C2521 C2522 1.524 . S
C2522 C2521 1.524 . S
C2522 C2523 1.397 . S
C2522 C2527 1.363 1_565 S
C2523 H2494 0.950 . S
C2523 C2522 1.397 . S
C2523 C2524 1.334 . S
C2524 H2495 0.950 . S
C2524 C2523 1.334 . S
C2524 C2525 1.287 1_565 S
C2525 C2524 1.287 1_545 S
C2525 C2526 1.524 . S
C2525 H2528 0.999 . S
C2526 H2496 0.950 . S
C2526 C2525 1.524 . S
C2526 C2527 1.415 . S
C2527 H2497 0.950 . S
C2527 C2522 1.363 1_545 S
C2527 C2526 1.415 . S
H2528 C2525 0.999 . S
H2529 C2510 0.913 . S
H2530 C2548 0.951 . S
H2531 C2550 0.951 . S
H2532 C2552 0.950 . S
H2533 C2553 0.950 . S
H2534 C2555 0.950 . S
H2535 C2558 0.950 . S
H2536 C2559 0.950 . S
H2537 C2561 0.950 . S
H2538 C2562 1.002 . S
H2539 C2563 0.951 1_556 S
H2540 C2565 0.951 1_556 S
H2541 C2567 0.950 . S
H2542 C2568 0.950 . S
H2543 C2570 0.950 . S
H2544 C2573 0.950 . S
H2545 C2574 0.950 . S
H2546 C2576 0.950 . S
H2547 C2577 0.950 . S
C2548 H2530 0.951 . S
C2548 C2549 1.366 . S
C2548 C2550 1.388 . S
C2549 C2548 1.366 . S
C2549 C2553 1.385 1_554 S
C2550 H2531 0.951 . S
C2550 C2548 1.388 . S
C2550 C2551 1.366 . S
C2551 C2550 1.366 . S
C2551 C2552 1.414 1_554 S
C2551 C2554 1.499 . S
C2552 H2532 0.950 . S
C2552 C2551 1.414 1_556 S
C2552 C2553 1.374 . S
C2553 H2533 0.950 . S
C2553 C2549 1.385 1_556 S
C2553 C2552 1.374 . S
C2554 C2551 1.499 . S
C2554 C2555 1.373 . S
C2554 C2556 1.389 . S
C2555 H2534 0.950 . S
C2555 C2554 1.373 . S
C2555 C2571 1.377 . S
C2556 C2554 1.389 . S
C2556 C2557 1.524 1_554 S
C2556 C2570 1.377 . S
C2557 C2556 1.524 1_556 S
C2557 C2558 1.397 . S
C2557 C2562 1.338 1_556 S
C2558 H2535 0.950 . S
C2558 C2557 1.397 . S
C2558 C2559 1.334 . S
C2559 H2536 0.950 . S
C2559 C2558 1.334 . S
C2559 C2560 1.287 . S
C2560 C2559 1.287 . S
C2560 C2561 1.524 . S
C2560 H2579 0.913 . S
C2561 H2537 0.950 . S
C2561 C2560 1.524 . S
C2561 C2562 1.392 1_556 S
C2562 H2538 1.002 . S
C2562 C2557 1.338 1_554 S
C2562 C2561 1.392 1_554 S
C2563 H2539 0.951 1_554 S
C2563 C2564 1.366 . S
C2563 C2565 1.388 . S
C2564 C2563 1.366 . S
C2564 C2568 1.385 . S
C2565 H2540 0.951 1_554 S
C2565 C2563 1.388 . S
C2565 C2566 1.366 . S
C2566 C2565 1.366 . S
C2566 C2567 1.414 . S
C2566 C2569 1.499 . S
C2567 H2541 0.950 . S
C2567 C2566 1.414 . S
C2567 C2568 1.374 . S
C2568 H2542 0.950 . S
C2568 C2564 1.385 . S
C2568 C2567 1.374 . S
C2569 C2566 1.499 . S
C2569 C2570 1.373 . S
C2569 C2571 1.389 . S
C2570 H2543 0.950 . S
C2570 C2556 1.377 . S
C2570 C2569 1.373 . S
C2571 C2555 1.377 . S
C2571 C2569 1.389 . S
C2571 C2572 1.524 . S
C2572 C2571 1.524 . S
C2572 C2573 1.397 . S
C2572 C2577 1.363 . S
C2573 H2544 0.950 . S
C2573 C2572 1.397 . S
C2573 C2574 1.334 . S
C2574 H2545 0.950 . S
C2574 C2573 1.334 . S
C2574 C2575 1.287 . S
C2575 C2574 1.287 . S
C2575 C2576 1.524 . S
C2575 H2578 0.999 . S
C2576 H2546 0.950 . S
C2576 C2575 1.524 . S
C2576 C2577 1.415 . S
C2577 H2547 0.950 . S
C2577 C2572 1.363 . S
C2577 C2576 1.415 . S
H2578 C2575 0.999 . S
H2579 C2560 0.913 . S
H2580 C2598 0.951 . S
H2581 C2600 0.951 . S
H2582 C2602 0.950 . S
H2583 C2603 0.950 . S
H2584 C2605 0.950 . S
H2585 C2608 0.950 . S
H2586 C2609 0.950 . S
H2587 C2611 0.950 . S
H2588 C2612 0.950 . S
H2589 C2613 0.951 . S
H2590 C2615 0.951 . S
H2591 C2617 0.950 . S
H2592 C2618 0.950 . S
H2593 C2620 0.950 . S
H2594 C2623 0.950 . S
H2595 C2624 0.950 . S
H2596 C2626 0.950 . S
H2597 C2627 0.950 . S
C2598 H2580 0.951 . S
C2598 C2599 1.366 . S
C2598 C2600 1.388 . S
C2599 C2598 1.366 . S
C2599 C2603 1.385 . S
C2600 H2581 0.951 . S
C2600 C2598 1.388 . S
C2600 C2601 1.366 . S
C2601 C2600 1.366 . S
C2601 C2602 1.414 . S
C2601 C2604 1.499 . S
C2602 H2582 0.950 . S
C2602 C2601 1.414 . S
C2602 C2603 1.374 . S
C2603 H2583 0.950 . S
C2603 C2599 1.385 . S
C2603 C2602 1.374 . S
C2604 C2601 1.499 . S
C2604 C2605 1.373 . S
C2604 C2606 1.389 . S
C2605 H2584 0.950 . S
C2605 C2604 1.373 . S
C2605 C2621 1.377 . S
C2606 C2604 1.389 . S
C2606 C2607 1.524 . S
C2606 C2620 1.377 . S
C2607 C2606 1.524 . S
C2607 C2608 1.397 . S
C2607 C2612 1.363 . S
C2608 H2585 0.950 . S
C2608 C2607 1.397 . S
C2608 C2609 1.334 . S
C2609 H2586 0.950 . S
C2609 C2608 1.334 . S
C2609 C2610 1.287 . S
C2610 C2609 1.287 . S
C2610 C2611 1.524 . S
C2610 H2629 0.913 . S
C2611 H2587 0.950 . S
C2611 C2610 1.524 . S
C2611 C2612 1.415 . S
C2612 H2588 0.950 . S
C2612 C2607 1.363 . S
C2612 C2611 1.415 . S
C2613 H2589 0.951 . S
C2613 C2614 1.366 . S
C2613 C2615 1.388 . S
C2614 C2613 1.366 . S
C2614 C2618 1.385 . S
C2615 H2590 0.951 . S
C2615 C2613 1.388 . S
C2615 C2616 1.366 . S
C2616 C2615 1.366 . S
C2616 C2617 1.414 . S
C2616 C2619 1.499 . S
C2617 H2591 0.950 . S
C2617 C2616 1.414 . S
C2617 C2618 1.374 . S
C2618 H2592 0.950 . S
C2618 C2614 1.385 . S
C2618 C2617 1.374 . S
C2619 C2616 1.499 . S
C2619 C2620 1.373 . S
C2619 C2621 1.389 . S
C2620 H2593 0.950 . S
C2620 C2606 1.377 . S
C2620 C2619 1.373 . S
C2621 C2605 1.377 . S
C2621 C2619 1.389 . S
C2621 C2622 1.524 . S
C2622 C2621 1.524 . S
C2622 C2623 1.397 . S
C2622 C2627 1.363 . S
C2623 H2594 0.950 . S
C2623 C2622 1.397 . S
C2623 C2624 1.334 . S
C2624 H2595 0.950 . S
C2624 C2623 1.334 . S
C2624 C2625 1.287 . S
C2625 C2624 1.287 . S
C2625 C2626 1.524 . S
C2625 H2628 0.999 . S
C2626 H2596 0.950 . S
C2626 C2625 1.524 . S
C2626 C2627 1.415 . S
C2627 H2597 0.950 . S
C2627 C2622 1.363 . S
C2627 C2626 1.415 . S
H2628 C2625 0.999 . S
H2629 C2610 0.913 . S
H2630 C2648 0.951 . S
H2631 C2650 0.951 . S
H2632 C2652 0.950 . S
H2633 C2653 0.950 . S
H2634 C2655 0.950 . S
H2635 C2658 0.950 . S
H2636 C2659 0.950 . S
H2637 C2661 0.950 . S
H2638 C2662 0.950 . S
H2639 C2663 0.951 . S
H2640 C2665 0.951 . S
H2641 C2667 0.950 . S
H2642 C2668 0.950 . S
H2643 C2670 0.950 . S
H2644 C2673 0.950 . S
H2645 C2674 0.950 . S
H2646 C2676 0.950 . S
H2647 C2677 0.950 . S
C2648 H2630 0.951 . S
C2648 C2649 1.366 . S
C2648 C2650 1.388 . S
C2649 C2648 1.366 . S
C2649 C2653 1.385 . S
C2650 H2631 0.951 . S
C2650 C2648 1.388 . S
C2650 C2651 1.366 . S
C2651 C2650 1.366 . S
C2651 C2652 1.414 . S
C2651 C2654 1.499 . S
C2652 H2632 0.950 . S
C2652 C2651 1.414 . S
C2652 C2653 1.374 . S
C2653 H2633 0.950 . S
C2653 C2649 1.385 . S
C2653 C2652 1.374 . S
C2654 C2651 1.499 . S
C2654 C2655 1.373 . S
C2654 C2656 1.389 . S
C2655 H2634 0.950 . S
C2655 C2654 1.373 . S
C2655 C2671 1.377 . S
C2656 C2654 1.389 . S
C2656 C2657 1.524 . S
C2656 C2670 1.377 . S
C2657 C2656 1.524 . S
C2657 C2658 1.397 . S
C2657 C2662 1.363 . S
C2658 H2635 0.950 . S
C2658 C2657 1.397 . S
C2658 C2659 1.334 . S
C2659 H2636 0.950 . S
C2659 C2658 1.334 . S
C2659 C2660 1.287 . S
C2660 C2659 1.287 . S
C2660 C2661 1.524 . S
C2660 H2679 0.913 . S
C2661 H2637 0.950 . S
C2661 C2660 1.524 . S
C2661 C2662 1.415 . S
C2662 H2638 0.950 . S
C2662 C2657 1.363 . S
C2662 C2661 1.415 . S
C2663 H2639 0.951 . S
C2663 C2664 1.366 . S
C2663 C2665 1.388 . S
C2664 C2663 1.366 . S
C2664 C2668 1.385 . S
C2665 H2640 0.951 . S
C2665 C2663 1.388 . S
C2665 C2666 1.366 . S
C2666 C2665 1.366 . S
C2666 C2667 1.414 . S
C2666 C2669 1.499 . S
C2667 H2641 0.950 . S
C2667 C2666 1.414 . S
C2667 C2668 1.374 . S
C2668 H2642 0.950 . S
C2668 C2664 1.385 . S
C2668 C2667 1.374 . S
C2669 C2666 1.499 . S
C2669 C2670 1.373 . S
C2669 C2671 1.389 . S
C2670 H2643 0.950 . S
C2670 C2656 1.377 . S
C2670 C2669 1.373 . S
C2671 C2655 1.377 . S
C2671 C2669 1.389 . S
C2671 C2672 1.524 . S
C2672 C2671 1.524 . S
C2672 C2673 1.397 . S
C2672 C2677 1.363 . S
C2673 H2644 0.950 . S
C2673 C2672 1.397 . S
C2673 C2674 1.334 . S
C2674 H2645 0.950 . S
C2674 C2673 1.334 . S
C2674 C2675 1.287 . S
C2675 C2674 1.287 . S
C2675 C2676 1.524 . S
C2675 H2678 0.999 . S
C2676 H2646 0.950 . S
C2676 C2675 1.524 . S
C2676 C2677 1.415 . S
C2677 H2647 0.950 . S
C2677 C2672 1.363 . S
C2677 C2676 1.415 . S
H2678 C2675 0.999 . S
H2679 C2660 0.913 . S
H2680 C2698 0.951 . S
H2681 C2700 0.951 . S
H2682 C2702 0.950 . S
H2683 C2703 0.950 . S
H2684 C2705 0.950 . S
H2685 C2708 0.950 . S
H2686 C2709 0.950 . S
H2687 C2711 0.950 . S
H2688 C2712 0.950 . S
H2689 C2713 0.951 . S
H2690 C2715 0.951 . S
H2691 C2717 0.950 . S
H2692 C2718 0.950 . S
H2693 C2720 0.950 . S
H2694 C2723 0.950 . S
H2695 C2724 0.950 . S
H2696 C2726 0.950 . S
H2697 C2727 0.950 . S
C2698 H2680 0.951 . S
C2698 C2699 1.366 . S
C2698 C2700 1.388 . S
C2699 C2698 1.366 . S
C2699 C2703 1.385 . S
C2700 H2681 0.951 . S
C2700 C2698 1.388 . S
C2700 C2701 1.366 . S
C2701 C2700 1.366 . S
C2701 C2702 1.414 . S
C2701 C2704 1.499 . S
C2702 H2682 0.950 . S
C2702 C2701 1.414 . S
C2702 C2703 1.374 . S
C2703 H2683 0.950 . S
C2703 C2699 1.385 . S
C2703 C2702 1.374 . S
C2704 C2701 1.499 . S
C2704 C2705 1.373 . S
C2704 C2706 1.389 . S
C2705 H2684 0.950 . S
C2705 C2704 1.373 . S
C2705 C2721 1.377 . S
C2706 C2704 1.389 . S
C2706 C2707 1.524 . S
C2706 C2720 1.377 . S
C2707 C2706 1.524 . S
C2707 C2708 1.397 . S
C2707 C2712 1.363 . S
C2708 H2685 0.950 . S
C2708 C2707 1.397 . S
C2708 C2709 1.334 . S
C2709 H2686 0.950 . S
C2709 C2708 1.334 . S
C2709 C2710 1.287 . S
C2710 C2709 1.287 . S
C2710 C2711 1.524 . S
C2710 H2729 0.913 . S
C2711 H2687 0.950 . S
C2711 C2710 1.524 . S
C2711 C2712 1.415 . S
C2712 H2688 0.950 . S
C2712 C2707 1.363 . S
C2712 C2711 1.415 . S
C2713 H2689 0.951 . S
C2713 C2714 1.366 . S
C2713 C2715 1.388 . S
C2714 C2713 1.366 . S
C2714 C2718 1.385 . S
C2715 H2690 0.951 . S
C2715 C2713 1.388 . S
C2715 C2716 1.366 . S
C2716 C2715 1.366 . S
C2716 C2717 1.414 . S
C2716 C2719 1.499 . S
C2717 H2691 0.950 . S
C2717 C2716 1.414 . S
C2717 C2718 1.374 . S
C2718 H2692 0.950 . S
C2718 C2714 1.385 . S
C2718 C2717 1.374 . S
C2719 C2716 1.499 . S
C2719 C2720 1.373 . S
C2719 C2721 1.389 . S
C2720 H2693 0.950 . S
C2720 C2706 1.377 . S
C2720 C2719 1.373 . S
C2721 C2705 1.377 . S
C2721 C2719 1.389 . S
C2721 C2722 1.524 . S
C2722 C2721 1.524 . S
C2722 C2723 1.397 . S
C2722 C2727 1.363 . S
C2723 H2694 0.950 . S
C2723 C2722 1.397 . S
C2723 C2724 1.334 . S
C2724 H2695 0.950 . S
C2724 C2723 1.334 . S
C2724 C2725 1.287 . S
C2725 C2724 1.287 . S
C2725 C2726 1.524 . S
C2725 H2728 0.999 . S
C2726 H2696 0.950 . S
C2726 C2725 1.524 . S
C2726 C2727 1.415 . S
C2727 H2697 0.950 . S
C2727 C2722 1.363 . S
C2727 C2726 1.415 . S
H2728 C2725 0.999 . S
H2729 C2710 0.913 . S
H2730 C2748 0.951 . S
H2731 C2750 0.951 . S
H2732 C2752 0.950 . S
H2733 C2753 0.950 . S
H2734 C2755 0.950 . S
H2735 C2758 0.950 . S
H2736 C2759 0.950 . S
H2737 C2761 0.950 . S
H2738 C2762 0.950 . S
H2739 C2763 0.951 . S
H2740 C2765 0.951 . S
H2741 C2767 0.950 . S
H2742 C2768 0.950 . S
H2743 C2770 0.950 . S
H2744 C2773 0.950 . S
H2745 C2774 0.950 . S
H2746 C2776 0.950 . S
H2747 C2777 0.950 . S
C2748 H2730 0.951 . S
C2748 C2749 1.366 . S
C2748 C2750 1.388 . S
C2749 C2748 1.366 . S
C2749 C2753 1.385 . S
C2750 H2731 0.951 . S
C2750 C2748 1.388 . S
C2750 C2751 1.366 . S
C2751 C2750 1.366 . S
C2751 C2752 1.414 . S
C2751 C2754 1.499 . S
C2752 H2732 0.950 . S
C2752 C2751 1.414 . S
C2752 C2753 1.374 . S
C2753 H2733 0.950 . S
C2753 C2749 1.385 . S
C2753 C2752 1.374 . S
C2754 C2751 1.499 . S
C2754 C2755 1.373 . S
C2754 C2756 1.389 . S
C2755 H2734 0.950 . S
C2755 C2754 1.373 . S
C2755 C2771 1.377 . S
C2756 C2754 1.389 . S
C2756 C2757 1.524 . S
C2756 C2770 1.377 . S
C2757 C2756 1.524 . S
C2757 C2758 1.397 . S
C2757 C2762 1.363 . S
C2758 H2735 0.950 . S
C2758 C2757 1.397 . S
C2758 C2759 1.334 . S
C2759 H2736 0.950 . S
C2759 C2758 1.334 . S
C2759 C2760 1.287 . S
C2760 C2759 1.287 . S
C2760 C2761 1.524 . S
C2760 H2779 0.913 . S
C2761 H2737 0.950 . S
C2761 C2760 1.524 . S
C2761 C2762 1.415 . S
C2762 H2738 0.950 . S
C2762 C2757 1.363 . S
C2762 C2761 1.415 . S
C2763 H2739 0.951 . S
C2763 C2764 1.366 . S
C2763 C2765 1.388 . S
C2764 C2763 1.366 . S
C2764 C2768 1.385 . S
C2765 H2740 0.951 . S
C2765 C2763 1.388 . S
C2765 C2766 1.366 . S
C2766 C2765 1.366 . S
C2766 C2767 1.414 . S
C2766 C2769 1.499 . S
C2767 H2741 0.950 . S
C2767 C2766 1.414 . S
C2767 C2768 1.374 . S
C2768 H2742 0.950 . S
C2768 C2764 1.385 . S
C2768 C2767 1.374 . S
C2769 C2766 1.499 . S
C2769 C2770 1.373 . S
C2769 C2771 1.389 . S
C2770 H2743 0.950 . S
C2770 C2756 1.377 . S
C2770 C2769 1.373 . S
C2771 C2755 1.377 . S
C2771 C2769 1.389 . S
C2771 C2772 1.524 . S
C2772 C2771 1.524 . S
C2772 C2773 1.397 . S
C2772 C2777 1.363 . S
C2773 H2744 0.950 . S
C2773 C2772 1.397 . S
C2773 C2774 1.334 . S
C2774 H2745 0.950 . S
C2774 C2773 1.334 . S
C2774 C2775 1.287 . S
C2775 C2774 1.287 . S
C2775 C2776 1.524 . S
C2775 H2778 0.999 . S
C2776 H2746 0.950 . S
C2776 C2775 1.524 . S
C2776 C2777 1.415 . S
C2777 H2747 0.950 . S
C2777 C2772 1.363 . S
C2777 C2776 1.415 . S
H2778 C2775 0.999 . S
H2779 C2760 0.913 . S
H2780 C2798 0.951 . S
H2781 C2800 0.951 . S
H2782 C2802 0.950 . S
H2783 C2803 0.950 . S
H2784 C2805 0.950 . S
H2785 C2808 0.950 . S
H2786 C2809 0.950 . S
H2787 C2811 0.950 . S
H2788 C2812 0.950 . S
H2789 C2813 0.951 . S
H2790 C2815 0.951 . S
H2791 C2817 0.950 . S
H2792 C2818 0.950 . S
H2793 C2820 0.950 . S
H2794 C2823 0.950 . S
H2795 C2824 0.950 . S
H2796 C2826 0.950 . S
H2797 C2827 0.950 . S
C2798 H2780 0.951 . S
C2798 C2799 1.366 . S
C2798 C2800 1.388 . S
C2799 C2798 1.366 . S
C2799 C2803 1.385 . S
C2800 H2781 0.951 . S
C2800 C2798 1.388 . S
C2800 C2801 1.366 . S
C2801 C2800 1.366 . S
C2801 C2802 1.414 . S
C2801 C2804 1.499 . S
C2802 H2782 0.950 . S
C2802 C2801 1.414 . S
C2802 C2803 1.374 . S
C2803 H2783 0.950 . S
C2803 C2799 1.385 . S
C2803 C2802 1.374 . S
C2804 C2801 1.499 . S
C2804 C2805 1.373 . S
C2804 C2806 1.389 . S
C2805 H2784 0.950 . S
C2805 C2804 1.373 . S
C2805 C2821 1.377 . S
C2806 C2804 1.389 . S
C2806 C2807 1.524 . S
C2806 C2820 1.377 . S
C2807 C2806 1.524 . S
C2807 C2808 1.397 . S
C2807 C2812 1.363 . S
C2808 H2785 0.950 . S
C2808 C2807 1.397 . S
C2808 C2809 1.334 . S
C2809 H2786 0.950 . S
C2809 C2808 1.334 . S
C2809 C2810 1.287 . S
C2810 C2809 1.287 . S
C2810 C2811 1.524 . S
C2810 H2829 0.913 . S
C2811 H2787 0.950 . S
C2811 C2810 1.524 . S
C2811 C2812 1.415 . S
C2812 H2788 0.950 . S
C2812 C2807 1.363 . S
C2812 C2811 1.415 . S
C2813 H2789 0.951 . S
C2813 C2814 1.366 . S
C2813 C2815 1.388 . S
C2814 C2813 1.366 . S
C2814 C2818 1.385 . S
C2815 H2790 0.951 . S
C2815 C2813 1.388 . S
C2815 C2816 1.366 . S
C2816 C2815 1.366 . S
C2816 C2817 1.414 . S
C2816 C2819 1.499 . S
C2817 H2791 0.950 . S
C2817 C2816 1.414 . S
C2817 C2818 1.374 . S
C2818 H2792 0.950 . S
C2818 C2814 1.385 . S
C2818 C2817 1.374 . S
C2819 C2816 1.499 . S
C2819 C2820 1.373 . S
C2819 C2821 1.389 . S
C2820 H2793 0.950 . S
C2820 C2806 1.377 . S
C2820 C2819 1.373 . S
C2821 C2805 1.377 . S
C2821 C2819 1.389 . S
C2821 C2822 1.524 . S
C2822 C2821 1.524 . S
C2822 C2823 1.397 . S
C2822 C2827 1.363 . S
C2823 H2794 0.950 . S
C2823 C2822 1.397 . S
C2823 C2824 1.334 . S
C2824 H2795 0.950 . S
C2824 C2823 1.334 . S
C2824 C2825 1.287 . S
C2825 C2824 1.287 . S
C2825 C2826 1.524 . S
C2825 H2828 0.999 . S
C2826 H2796 0.950 . S
C2826 C2825 1.524 . S
C2826 C2827 1.415 . S
C2827 H2797 0.950 . S
C2827 C2822 1.363 . S
C2827 C2826 1.415 . S
H2828 C2825 0.999 . S
H2829 C2810 0.913 . S
H2830 C2848 0.951 . S
H2831 C2850 0.951 . S
H2832 C2852 0.950 . S
H2833 C2853 0.950 . S
H2834 C2855 0.950 . S
H2835 C2858 0.950 . S
H2836 C2859 0.950 . S
H2837 C2861 0.950 . S
H2838 C2862 0.950 . S
H2839 C2863 0.951 . S
H2840 C2865 0.951 . S
H2841 C2867 0.950 . S
H2842 C2868 0.950 . S
H2843 C2870 0.950 . S
H2844 C2873 0.950 . S
H2845 C2874 0.950 . S
H2846 C2876 0.950 . S
H2847 C2877 0.950 . S
C2848 H2830 0.951 . S
C2848 C2849 1.366 . S
C2848 C2850 1.388 . S
C2849 C2848 1.366 . S
C2849 C2853 1.385 . S
C2850 H2831 0.951 . S
C2850 C2848 1.388 . S
C2850 C2851 1.366 . S
C2851 C2850 1.366 . S
C2851 C2852 1.414 . S
C2851 C2854 1.499 . S
C2852 H2832 0.950 . S
C2852 C2851 1.414 . S
C2852 C2853 1.374 . S
C2853 H2833 0.950 . S
C2853 C2849 1.385 . S
C2853 C2852 1.374 . S
C2854 C2851 1.499 . S
C2854 C2855 1.373 . S
C2854 C2856 1.389 . S
C2855 H2834 0.950 . S
C2855 C2854 1.373 . S
C2855 C2871 1.377 . S
C2856 C2854 1.389 . S
C2856 C2857 1.524 . S
C2856 C2870 1.377 . S
C2857 C2856 1.524 . S
C2857 C2858 1.397 . S
C2857 C2862 1.363 . S
C2858 H2835 0.950 . S
C2858 C2857 1.397 . S
C2858 C2859 1.334 . S
C2859 H2836 0.950 . S
C2859 C2858 1.334 . S
C2859 C2860 1.287 . S
C2860 C2859 1.287 . S
C2860 C2861 1.524 . S
C2860 H2879 0.913 . S
C2861 H2837 0.950 . S
C2861 C2860 1.524 . S
C2861 C2862 1.415 . S
C2862 H2838 0.950 . S
C2862 C2857 1.363 . S
C2862 C2861 1.415 . S
C2863 H2839 0.951 . S
C2863 C2864 1.366 . S
C2863 C2865 1.388 . S
C2864 C2863 1.366 . S
C2864 C2868 1.385 . S
C2865 H2840 0.951 . S
C2865 C2863 1.388 . S
C2865 C2866 1.366 . S
C2866 C2865 1.366 . S
C2866 C2867 1.414 . S
C2866 C2869 1.499 . S
C2867 H2841 0.950 . S
C2867 C2866 1.414 . S
C2867 C2868 1.374 . S
C2868 H2842 0.950 . S
C2868 C2864 1.385 . S
C2868 C2867 1.374 . S
C2869 C2866 1.499 . S
C2869 C2870 1.373 . S
C2869 C2871 1.389 . S
C2870 H2843 0.950 . S
C2870 C2856 1.377 . S
C2870 C2869 1.373 . S
C2871 C2855 1.377 . S
C2871 C2869 1.389 . S
C2871 C2872 1.524 . S
C2872 C2871 1.524 . S
C2872 C2873 1.397 . S
C2872 C2877 1.363 . S
C2873 H2844 0.950 . S
C2873 C2872 1.397 . S
C2873 C2874 1.334 . S
C2874 H2845 0.950 . S
C2874 C2873 1.334 . S
C2874 C2875 1.287 . S
C2875 C2874 1.287 . S
C2875 C2876 1.524 . S
C2875 H2878 0.999 . S
C2876 H2846 0.950 . S
C2876 C2875 1.524 . S
C2876 C2877 1.415 . S
C2877 H2847 0.950 . S
C2877 C2872 1.363 . S
C2877 C2876 1.415 . S
H2878 C2875 0.999 . S
H2879 C2860 0.913 . S
H2880 C2898 0.951 . S
H2881 C2900 0.951 . S
H2882 C2902 0.950 . S
H2883 C2903 0.950 . S
H2884 C2905 0.950 . S
H2885 C2908 0.950 . S
H2886 C2909 0.950 . S
H2887 C2911 0.950 . S
H2888 C2912 0.950 1_655 S
H2889 C2913 0.951 . S
H2890 C2915 0.951 . S
H2891 C2917 0.950 . S
H2892 C2918 0.950 . S
H2893 C2920 0.950 . S
H2894 C2923 0.950 . S
H2895 C2924 0.950 . S
H2896 C2926 0.950 . S
H2897 C2927 0.950 . S
C2898 H2880 0.951 . S
C2898 C2899 1.366 . S
C2898 C2900 1.388 . S
C2899 C2898 1.366 . S
C2899 C2903 1.385 . S
C2900 H2881 0.951 . S
C2900 C2898 1.388 . S
C2900 C2901 1.366 . S
C2901 C2900 1.366 . S
C2901 C2902 1.414 . S
C2901 C2904 1.499 . S
C2902 H2882 0.950 . S
C2902 C2901 1.414 . S
C2902 C2903 1.374 . S
C2903 H2883 0.950 . S
C2903 C2899 1.385 . S
C2903 C2902 1.374 . S
C2904 C2901 1.499 . S
C2904 C2905 1.373 . S
C2904 C2906 1.389 . S
C2905 H2884 0.950 . S
C2905 C2904 1.373 . S
C2905 C2921 1.377 . S
C2906 C2904 1.389 . S
C2906 C2907 1.524 . S
C2906 C2920 1.377 . S
C2907 C2906 1.524 . S
C2907 C2908 1.397 . S
C2907 C2912 1.363 . S
C2908 H2885 0.950 . S
C2908 C2907 1.397 . S
C2908 C2909 1.334 . S
C2909 H2886 0.950 . S
C2909 C2908 1.334 . S
C2909 C2910 1.287 . S
C2910 C2909 1.287 . S
C2910 C2911 1.524 1_455 S
C2910 H2929 0.913 . S
C2911 H2887 0.950 . S
C2911 C2910 1.524 1_655 S
C2911 C2912 1.415 1_655 S
C2912 H2888 0.950 1_455 S
C2912 C2907 1.363 . S
C2912 C2911 1.415 1_455 S
C2913 H2889 0.951 . S
C2913 C2914 1.366 . S
C2913 C2915 1.388 . S
C2914 C2913 1.366 . S
C2914 C2918 1.385 . S
C2915 H2890 0.951 . S
C2915 C2913 1.388 . S
C2915 C2916 1.366 . S
C2916 C2915 1.366 . S
C2916 C2917 1.414 . S
C2916 C2919 1.499 . S
C2917 H2891 0.950 . S
C2917 C2916 1.414 . S
C2917 C2918 1.374 . S
C2918 H2892 0.950 . S
C2918 C2914 1.385 . S
C2918 C2917 1.374 . S
C2919 C2916 1.499 . S
C2919 C2920 1.373 . S
C2919 C2921 1.389 . S
C2920 H2893 0.950 . S
C2920 C2906 1.377 . S
C2920 C2919 1.373 . S
C2921 C2905 1.377 . S
C2921 C2919 1.389 . S
C2921 C2922 1.524 . S
C2922 C2921 1.524 . S
C2922 C2923 1.397 . S
C2922 C2927 1.363 . S
C2923 H2894 0.950 . S
C2923 C2922 1.397 . S
C2923 C2924 1.334 . S
C2924 H2895 0.950 . S
C2924 C2923 1.334 . S
C2924 C2925 1.287 . S
C2925 C2924 1.287 . S
C2925 C2926 1.524 . S
C2925 H2928 0.999 . S
C2926 H2896 0.950 . S
C2926 C2925 1.524 . S
C2926 C2927 1.415 . S
C2927 H2897 0.950 . S
C2927 C2922 1.363 . S
C2927 C2926 1.415 . S
H2928 C2925 0.999 . S
H2929 C2910 0.913 . S
H2930 C2948 0.951 . S
H2931 C2950 0.951 . S
H2932 C2952 0.950 . S
H2933 C2953 0.950 . S
H2934 C2955 0.950 . S
H2935 C2958 0.950 . S
H2936 C2959 0.950 . S
H2937 C2961 0.950 . S
H2938 C2962 0.950 . S
H2939 C2963 0.951 . S
H2940 C2965 0.951 . S
H2941 C2967 0.950 . S
H2942 C2968 0.950 . S
H2943 C2970 0.950 . S
H2944 C2973 0.950 . S
H2945 C2974 0.950 . S
H2946 C2976 0.950 . S
H2947 C2977 0.950 . S
C2948 H2930 0.951 . S
C2948 C2949 1.366 . S
C2948 C2950 1.388 . S
C2949 C2948 1.366 . S
C2949 C2953 1.385 . S
C2950 H2931 0.951 . S
C2950 C2948 1.388 . S
C2950 C2951 1.366 . S
C2951 C2950 1.366 . S
C2951 C2952 1.414 . S
C2951 C2954 1.499 . S
C2952 H2932 0.950 . S
C2952 C2951 1.414 . S
C2952 C2953 1.374 . S
C2953 H2933 0.950 . S
C2953 C2949 1.385 . S
C2953 C2952 1.374 . S
C2954 C2951 1.499 . S
C2954 C2955 1.373 . S
C2954 C2956 1.389 . S
C2955 H2934 0.950 . S
C2955 C2954 1.373 . S
C2955 C2971 1.377 . S
C2956 C2954 1.389 . S
C2956 C2957 1.524 . S
C2956 C2970 1.377 . S
C2957 C2956 1.524 . S
C2957 C2958 1.397 . S
C2957 C2962 1.363 . S
C2958 H2935 0.950 . S
C2958 C2957 1.397 . S
C2958 C2959 1.334 . S
C2959 H2936 0.950 . S
C2959 C2958 1.334 . S
C2959 C2960 1.287 . S
C2960 C2959 1.287 . S
C2960 C2961 1.524 . S
C2960 H2979 0.913 . S
C2961 H2937 0.950 . S
C2961 C2960 1.524 . S
C2961 C2962 1.415 . S
C2962 H2938 0.950 . S
C2962 C2957 1.363 . S
C2962 C2961 1.415 . S
C2963 H2939 0.951 . S
C2963 C2964 1.366 . S
C2963 C2965 1.388 . S
C2964 C2963 1.366 . S
C2964 C2968 1.385 . S
C2965 H2940 0.951 . S
C2965 C2963 1.388 . S
C2965 C2966 1.366 . S
C2966 C2965 1.366 . S
C2966 C2967 1.414 . S
C2966 C2969 1.499 . S
C2967 H2941 0.950 . S
C2967 C2966 1.414 . S
C2967 C2968 1.374 . S
C2968 H2942 0.950 . S
C2968 C2964 1.385 . S
C2968 C2967 1.374 . S
C2969 C2966 1.499 . S
C2969 C2970 1.373 . S
C2969 C2971 1.389 . S
C2970 H2943 0.950 . S
C2970 C2956 1.377 . S
C2970 C2969 1.373 . S
C2971 C2955 1.377 . S
C2971 C2969 1.389 . S
C2971 C2972 1.524 . S
C2972 C2971 1.524 . S
C2972 C2973 1.397 . S
C2972 C2977 1.363 . S
C2973 H2944 0.950 . S
C2973 C2972 1.397 . S
C2973 C2974 1.334 . S
C2974 H2945 0.950 . S
C2974 C2973 1.334 . S
C2974 C2975 1.287 . S
C2975 C2974 1.287 . S
C2975 C2976 1.524 . S
C2975 H2978 0.999 . S
C2976 H2946 0.950 . S
C2976 C2975 1.524 . S
C2976 C2977 1.415 . S
C2977 H2947 0.950 . S
C2977 C2972 1.363 . S
C2977 C2976 1.415 . S
H2978 C2975 0.999 . S
H2979 C2960 0.913 . S
H2980 C2998 0.951 . S
H2981 C3000 0.951 . S
H2982 C3002 0.950 . S
H2983 C3003 0.950 . S
H2984 C3005 0.950 . S
H2985 C3008 0.950 . S
H2986 C3009 0.950 . S
H2987 C3011 0.950 . S
H2988 C3012 0.950 . S
H2989 C3013 0.951 . S
H2990 C3015 0.951 . S
H2991 C3017 0.950 . S
H2992 C3018 0.950 . S
H2993 C3020 0.950 . S
H2994 C3023 0.950 . S
H2995 C3024 0.950 . S
H2996 C3026 0.950 . S
H2997 C3027 0.950 . S
C2998 H2980 0.951 . S
C2998 C2999 1.366 . S
C2998 C3000 1.388 . S
C2999 C2998 1.366 . S
C2999 C3003 1.385 . S
C3000 H2981 0.951 . S
C3000 C2998 1.388 . S
C3000 C3001 1.366 . S
C3001 C3000 1.366 . S
C3001 C3002 1.414 . S
C3001 C3004 1.499 . S
C3002 H2982 0.950 . S
C3002 C3001 1.414 . S
C3002 C3003 1.374 . S
C3003 H2983 0.950 . S
C3003 C2999 1.385 . S
C3003 C3002 1.374 . S
C3004 C3001 1.499 . S
C3004 C3005 1.373 . S
C3004 C3006 1.389 . S
C3005 H2984 0.950 . S
C3005 C3004 1.373 . S
C3005 C3021 1.377 . S
C3006 C3004 1.389 . S
C3006 C3007 1.524 . S
C3006 C3020 1.377 . S
C3007 C3006 1.524 . S
C3007 C3008 1.397 . S
C3007 C3012 1.363 . S
C3008 H2985 0.950 . S
C3008 C3007 1.397 . S
C3008 C3009 1.334 . S
C3009 H2986 0.950 . S
C3009 C3008 1.334 . S
C3009 C3010 1.287 . S
C3010 C3009 1.287 . S
C3010 C3011 1.524 . S
C3010 H3029 0.913 . S
C3011 H2987 0.950 . S
C3011 C3010 1.524 . S
C3011 C3012 1.415 . S
C3012 H2988 0.950 . S
C3012 C3007 1.363 . S
C3012 C3011 1.415 . S
C3013 H2989 0.951 . S
C3013 C3014 1.366 . S
C3013 C3015 1.388 . S
C3014 C3013 1.366 . S
C3014 C3018 1.385 . S
C3015 H2990 0.951 . S
C3015 C3013 1.388 . S
C3015 C3016 1.366 . S
C3016 C3015 1.366 . S
C3016 C3017 1.414 . S
C3016 C3019 1.499 . S
C3017 H2991 0.950 . S
C3017 C3016 1.414 . S
C3017 C3018 1.374 . S
C3018 H2992 0.950 . S
C3018 C3014 1.385 . S
C3018 C3017 1.374 . S
C3019 C3016 1.499 . S
C3019 C3020 1.373 . S
C3019 C3021 1.389 . S
C3020 H2993 0.950 . S
C3020 C3006 1.377 . S
C3020 C3019 1.373 . S
C3021 C3005 1.377 . S
C3021 C3019 1.389 . S
C3021 C3022 1.524 . S
C3022 C3021 1.524 . S
C3022 C3023 1.397 . S
C3022 C3027 1.363 . S
C3023 H2994 0.950 . S
C3023 C3022 1.397 . S
C3023 C3024 1.334 . S
C3024 H2995 0.950 . S
C3024 C3023 1.334 . S
C3024 C3025 1.287 . S
C3025 C3024 1.287 . S
C3025 C3026 1.524 . S
C3025 H3028 0.999 . S
C3026 H2996 0.950 . S
C3026 C3025 1.524 . S
C3026 C3027 1.415 . S
C3027 H2997 0.950 . S
C3027 C3022 1.363 . S
C3027 C3026 1.415 . S
H3028 C3025 0.999 . S
H3029 C3010 0.913 . S
H3030 C3048 0.951 . S
H3031 C3050 0.951 . S
H3032 C3052 0.950 . S
H3033 C3053 0.950 . S
H3034 C3055 0.950 . S
H3035 C3058 0.950 . S
H3036 C3059 0.950 . S
H3037 C3061 0.950 . S
H3038 C3062 0.950 . S
H3039 C3063 0.951 . S
H3040 C3065 0.951 . S
H3041 C3067 0.950 . S
H3042 C3068 0.950 . S
H3043 C3070 0.950 . S
H3044 C3073 0.950 . S
H3045 C3074 0.950 . S
H3046 C3076 0.950 . S
H3047 C3077 0.950 . S
C3048 H3030 0.951 . S
C3048 C3049 1.366 . S
C3048 C3050 1.388 . S
C3049 C3048 1.366 . S
C3049 C3053 1.385 . S
C3050 H3031 0.951 . S
C3050 C3048 1.388 . S
C3050 C3051 1.366 . S
C3051 C3050 1.366 . S
C3051 C3052 1.414 . S
C3051 C3054 1.499 . S
C3052 H3032 0.950 . S
C3052 C3051 1.414 . S
C3052 C3053 1.374 . S
C3053 H3033 0.950 . S
C3053 C3049 1.385 . S
C3053 C3052 1.374 . S
C3054 C3051 1.499 . S
C3054 C3055 1.373 . S
C3054 C3056 1.389 . S
C3055 H3034 0.950 . S
C3055 C3054 1.373 . S
C3055 C3071 1.377 . S
C3056 C3054 1.389 . S
C3056 C3057 1.524 . S
C3056 C3070 1.377 . S
C3057 C3056 1.524 . S
C3057 C3058 1.397 . S
C3057 C3062 1.363 . S
C3058 H3035 0.950 . S
C3058 C3057 1.397 . S
C3058 C3059 1.334 . S
C3059 H3036 0.950 . S
C3059 C3058 1.334 . S
C3059 C3060 1.287 . S
C3060 C3059 1.287 . S
C3060 C3061 1.524 . S
C3060 H3079 0.913 . S
C3061 H3037 0.950 . S
C3061 C3060 1.524 . S
C3061 C3062 1.415 . S
C3062 H3038 0.950 . S
C3062 C3057 1.363 . S
C3062 C3061 1.415 . S
C3063 H3039 0.951 . S
C3063 C3064 1.366 . S
C3063 C3065 1.388 . S
C3064 C3063 1.366 . S
C3064 C3068 1.385 . S
C3065 H3040 0.951 . S
C3065 C3063 1.388 . S
C3065 C3066 1.366 . S
C3066 C3065 1.366 . S
C3066 C3067 1.414 . S
C3066 C3069 1.499 . S
C3067 H3041 0.950 . S
C3067 C3066 1.414 . S
C3067 C3068 1.374 . S
C3068 H3042 0.950 . S
C3068 C3064 1.385 . S
C3068 C3067 1.374 . S
C3069 C3066 1.499 . S
C3069 C3070 1.373 . S
C3069 C3071 1.389 . S
C3070 H3043 0.950 . S
C3070 C3056 1.377 . S
C3070 C3069 1.373 . S
C3071 C3055 1.377 . S
C3071 C3069 1.389 . S
C3071 C3072 1.524 . S
C3072 C3071 1.524 . S
C3072 C3073 1.397 . S
C3072 C3077 1.363 . S
C3073 H3044 0.950 . S
C3073 C3072 1.397 . S
C3073 C3074 1.334 . S
C3074 H3045 0.950 . S
C3074 C3073 1.334 . S
C3074 C3075 1.287 . S
C3075 C3074 1.287 . S
C3075 C3076 1.524 . S
C3075 H3078 0.999 . S
C3076 H3046 0.950 . S
C3076 C3075 1.524 . S
C3076 C3077 1.415 . S
C3077 H3047 0.950 . S
C3077 C3072 1.363 . S
C3077 C3076 1.415 . S
H3078 C3075 0.999 . S
H3079 C3060 0.913 . S
H3080 C3098 0.951 . S
H3081 C3100 0.951 . S
H3082 C3102 0.950 . S
H3083 C3103 0.950 . S
H3084 C3105 0.950 . S
H3085 C3108 0.950 . S
H3086 C3109 0.950 . S
H3087 C3111 0.950 . S
H3088 C3112 0.950 . S
H3089 C3113 0.951 . S
H3090 C3115 0.951 . S
H3091 C3117 0.950 . S
H3092 C3118 0.950 . S
H3093 C3120 0.950 . S
H3094 C3123 0.950 . S
H3095 C3124 0.950 . S
H3096 C3126 0.950 . S
H3097 C3127 0.950 1_455 S
C3098 H3080 0.951 . S
C3098 C3099 1.366 . S
C3098 C3100 1.388 . S
C3099 C3098 1.366 . S
C3099 C3103 1.385 . S
C3100 H3081 0.951 . S
C3100 C3098 1.388 . S
C3100 C3101 1.366 . S
C3101 C3100 1.366 . S
C3101 C3102 1.414 . S
C3101 C3104 1.499 . S
C3102 H3082 0.950 . S
C3102 C3101 1.414 . S
C3102 C3103 1.374 . S
C3103 H3083 0.950 . S
C3103 C3099 1.385 . S
C3103 C3102 1.374 . S
C3104 C3101 1.499 . S
C3104 C3105 1.373 . S
C3104 C3106 1.389 . S
C3105 H3084 0.950 . S
C3105 C3104 1.373 . S
C3105 C3121 1.377 . S
C3106 C3104 1.389 . S
C3106 C3107 1.524 . S
C3106 C3120 1.377 . S
C3107 C3106 1.524 . S
C3107 C3108 1.397 . S
C3107 C3112 1.363 . S
C3108 H3085 0.950 . S
C3108 C3107 1.397 . S
C3108 C3109 1.334 . S
C3109 H3086 0.950 . S
C3109 C3108 1.334 . S
C3109 C3110 1.287 . S
C3110 C3109 1.287 . S
C3110 C3111 1.524 . S
C3110 H3129 0.913 . S
C3111 H3087 0.950 . S
C3111 C3110 1.524 . S
C3111 C3112 1.415 . S
C3112 H3088 0.950 . S
C3112 C3107 1.363 . S
C3112 C3111 1.415 . S
C3113 H3089 0.951 . S
C3113 C3114 1.366 . S
C3113 C3115 1.388 . S
C3114 C3113 1.366 . S
C3114 C3118 1.385 . S
C3115 H3090 0.951 . S
C3115 C3113 1.388 . S
C3115 C3116 1.366 . S
C3116 C3115 1.366 . S
C3116 C3117 1.414 . S
C3116 C3119 1.499 . S
C3117 H3091 0.950 . S
C3117 C3116 1.414 . S
C3117 C3118 1.374 . S
C3118 H3092 0.950 . S
C3118 C3114 1.385 . S
C3118 C3117 1.374 . S
C3119 C3116 1.499 . S
C3119 C3120 1.373 . S
C3119 C3121 1.389 . S
C3120 H3093 0.950 . S
C3120 C3106 1.377 . S
C3120 C3119 1.373 . S
C3121 C3105 1.377 . S
C3121 C3119 1.389 . S
C3121 C3122 1.497 1_455 S
C3122 C3121 1.497 1_655 S
C3122 C3123 1.425 . S
C3122 C3127 1.366 . S
C3123 H3094 0.950 . S
C3123 C3122 1.425 . S
C3123 C3124 1.334 . S
C3124 H3095 0.950 . S
C3124 C3123 1.334 . S
C3124 C3125 1.287 . S
C3125 C3124 1.287 . S
C3125 C3126 1.524 . S
C3125 H3128 0.999 . S
C3126 H3096 0.950 . S
C3126 C3125 1.524 . S
C3126 C3127 1.415 . S
C3127 H3097 0.950 1_655 S
C3127 C3122 1.366 . S
C3127 C3126 1.415 . S
H3128 C3125 0.999 . S
H3129 C3110 0.913 . S
H3130 C3148 0.951 . S
H3131 C3150 0.951 . S
H3132 C3152 0.950 . S
H3133 C3153 0.950 . S
H3134 C3155 0.950 . S
H3135 C3158 0.950 . S
H3136 C3159 0.950 . S
H3137 C3161 0.950 . S
H3138 C3162 0.950 . S
H3139 C3163 0.951 . S
H3140 C3165 0.951 . S
H3141 C3167 0.950 . S
H3142 C3168 0.950 . S
H3143 C3170 0.950 . S
H3144 C3173 0.950 . S
H3145 C3174 0.950 . S
H3146 C3176 0.950 . S
H3147 C3177 0.950 . S
C3148 H3130 0.951 . S
C3148 C3149 1.366 . S
C3148 C3150 1.388 . S
C3149 C3148 1.366 . S
C3149 C3153 1.385 . S
C3150 H3131 0.951 . S
C3150 C3148 1.388 . S
C3150 C3151 1.366 . S
C3151 C3150 1.366 . S
C3151 C3152 1.414 . S
C3151 C3154 1.499 . S
C3152 H3132 0.950 . S
C3152 C3151 1.414 . S
C3152 C3153 1.374 . S
C3153 H3133 0.950 . S
C3153 C3149 1.385 . S
C3153 C3152 1.374 . S
C3154 C3151 1.499 . S
C3154 C3155 1.373 . S
C3154 C3156 1.389 . S
C3155 H3134 0.950 . S
C3155 C3154 1.373 . S
C3155 C3171 1.377 . S
C3156 C3154 1.389 . S
C3156 C3157 1.524 . S
C3156 C3170 1.377 . S
C3157 C3156 1.524 . S
C3157 C3158 1.397 . S
C3157 C3162 1.363 . S
C3158 H3135 0.950 . S
C3158 C3157 1.397 . S
C3158 C3159 1.334 . S
C3159 H3136 0.950 . S
C3159 C3158 1.334 . S
C3159 C3160 1.287 . S
C3160 C3159 1.287 . S
C3160 C3161 1.524 . S
C3160 H3179 0.913 . S
C3161 H3137 0.950 . S
C3161 C3160 1.524 . S
C3161 C3162 1.415 . S
C3162 H3138 0.950 . S
C3162 C3157 1.363 . S
C3162 C3161 1.415 . S
C3163 H3139 0.951 . S
C3163 C3164 1.366 . S
C3163 C3165 1.388 . S
C3164 C3163 1.366 . S
C3164 C3168 1.385 . S
C3165 H3140 0.951 . S
C3165 C3163 1.388 . S
C3165 C3166 1.366 . S
C3166 C3165 1.366 . S
C3166 C3167 1.414 . S
C3166 C3169 1.499 . S
C3167 H3141 0.950 . S
C3167 C3166 1.414 . S
C3167 C3168 1.374 . S
C3168 H3142 0.950 . S
C3168 C3164 1.385 . S
C3168 C3167 1.374 . S
C3169 C3166 1.499 . S
C3169 C3170 1.373 . S
C3169 C3171 1.389 . S
C3170 H3143 0.950 . S
C3170 C3156 1.377 . S
C3170 C3169 1.373 . S
C3171 C3155 1.377 . S
C3171 C3169 1.389 . S
C3171 C3172 1.524 . S
C3172 C3171 1.524 . S
C3172 C3173 1.397 . S
C3172 C3177 1.363 . S
C3173 H3144 0.950 . S
C3173 C3172 1.397 . S
C3173 C3174 1.334 . S
C3174 H3145 0.950 . S
C3174 C3173 1.334 . S
C3174 C3175 1.287 . S
C3175 C3174 1.287 . S
C3175 C3176 1.524 . S
C3175 H3178 0.999 . S
C3176 H3146 0.950 . S
C3176 C3175 1.524 . S
C3176 C3177 1.415 . S
C3177 H3147 0.950 . S
C3177 C3172 1.363 . S
C3177 C3176 1.415 . S
H3178 C3175 0.999 . S
H3179 C3160 0.913 . S
H3180 C3198 0.951 . S
H3181 C3200 0.951 . S
H3182 C3202 0.950 . S
H3183 C3203 0.950 . S
H3184 C3205 0.950 . S
H3185 C3208 0.950 . S
H3186 C3209 0.950 . S
H3187 C3211 0.950 . S
H3188 C3212 0.950 . S
H3189 C3213 0.951 . S
H3190 C3215 0.951 . S
H3191 C3217 0.950 . S
H3192 C3218 0.950 . S
H3193 C3220 0.950 . S
H3194 C3223 0.950 . S
H3195 C3224 0.950 . S
H3196 C3226 0.950 . S
H3197 C3227 0.950 . S
C3198 H3180 0.951 . S
C3198 C3199 1.366 . S
C3198 C3200 1.388 . S
C3199 C3198 1.366 . S
C3199 C3203 1.385 . S
C3200 H3181 0.951 . S
C3200 C3198 1.388 . S
C3200 C3201 1.366 . S
C3201 C3200 1.366 . S
C3201 C3202 1.414 . S
C3201 C3204 1.499 . S
C3202 H3182 0.950 . S
C3202 C3201 1.414 . S
C3202 C3203 1.374 . S
C3203 H3183 0.950 . S
C3203 C3199 1.385 . S
C3203 C3202 1.374 . S
C3204 C3201 1.499 . S
C3204 C3205 1.373 . S
C3204 C3206 1.389 . S
C3205 H3184 0.950 . S
C3205 C3204 1.373 . S
C3205 C3221 1.377 . S
C3206 C3204 1.389 . S
C3206 C3207 1.524 . S
C3206 C3220 1.377 . S
C3207 C3206 1.524 . S
C3207 C3208 1.397 . S
C3207 C3212 1.363 . S
C3208 H3185 0.950 . S
C3208 C3207 1.397 . S
C3208 C3209 1.334 . S
C3209 H3186 0.950 . S
C3209 C3208 1.334 . S
C3209 C3210 1.287 . S
C3210 C3209 1.287 . S
C3210 C3211 1.524 . S
C3210 H3229 0.913 . S
C3211 H3187 0.950 . S
C3211 C3210 1.524 . S
C3211 C3212 1.415 . S
C3212 H3188 0.950 . S
C3212 C3207 1.363 . S
C3212 C3211 1.415 . S
C3213 H3189 0.951 . S
C3213 C3214 1.366 . S
C3213 C3215 1.388 . S
C3214 C3213 1.366 . S
C3214 C3218 1.385 . S
C3215 H3190 0.951 . S
C3215 C3213 1.388 . S
C3215 C3216 1.366 . S
C3216 C3215 1.366 . S
C3216 C3217 1.414 . S
C3216 C3219 1.499 . S
C3217 H3191 0.950 . S
C3217 C3216 1.414 . S
C3217 C3218 1.374 . S
C3218 H3192 0.950 . S
C3218 C3214 1.385 . S
C3218 C3217 1.374 . S
C3219 C3216 1.499 . S
C3219 C3220 1.373 . S
C3219 C3221 1.389 . S
C3220 H3193 0.950 . S
C3220 C3206 1.377 . S
C3220 C3219 1.373 . S
C3221 C3205 1.377 . S
C3221 C3219 1.389 . S
C3221 C3222 1.524 . S
C3222 C3221 1.524 . S
C3222 C3223 1.397 . S
C3222 C3227 1.363 . S
C3223 H3194 0.950 . S
C3223 C3222 1.397 . S
C3223 C3224 1.334 1_556 S
C3224 H3195 0.950 . S
C3224 C3223 1.334 1_554 S
C3224 C3225 1.287 . S
C3225 C3224 1.287 . S
C3225 C3226 1.524 1_554 S
C3225 H3228 0.999 . S
C3226 H3196 0.950 . S
C3226 C3225 1.524 1_556 S
C3226 C3227 1.415 . S
C3227 H3197 0.950 . S
C3227 C3222 1.363 . S
C3227 C3226 1.415 . S
H3228 C3225 0.999 . S
H3229 C3210 0.913 . S
H3230 C3248 0.951 . S
H3231 C3250 0.951 . S
H3232 C3252 0.950 . S
H3233 C3253 0.950 . S
H3234 C3255 0.950 . S
H3235 C3258 0.950 . S
H3236 C3259 0.950 . S
H3237 C3261 0.950 . S
H3238 C3262 0.950 . S
H3239 C3263 0.951 . S
H3240 C3265 0.951 . S
H3241 C3267 0.950 . S
H3242 C3268 0.950 . S
H3243 C3270 0.950 . S
H3244 C3273 0.950 . S
H3245 C3274 0.950 . S
H3246 C3276 0.950 . S
H3247 C3277 0.950 . S
C3248 H3230 0.951 . S
C3248 C3249 1.366 . S
C3248 C3250 1.388 . S
C3249 C3248 1.366 . S
C3249 C3253 1.385 . S
C3250 H3231 0.951 . S
C3250 C3248 1.388 . S
C3250 C3251 1.366 . S
C3251 C3250 1.366 . S
C3251 C3252 1.414 . S
C3251 C3254 1.499 . S
C3252 H3232 0.950 . S
C3252 C3251 1.414 . S
C3252 C3253 1.374 . S
C3253 H3233 0.950 . S
C3253 C3249 1.385 . S
C3253 C3252 1.374 . S
C3254 C3251 1.499 . S
C3254 C3255 1.373 . S
C3254 C3256 1.389 . S
C3255 H3234 0.950 . S
C3255 C3254 1.373 . S
C3255 C3271 1.377 . S
C3256 C3254 1.389 . S
C3256 C3257 1.524 . S
C3256 C3270 1.377 . S
C3257 C3256 1.524 . S
C3257 C3258 1.397 . S
C3257 C3262 1.363 . S
C3258 H3235 0.950 . S
C3258 C3257 1.397 . S
C3258 C3259 1.334 . S
C3259 H3236 0.950 . S
C3259 C3258 1.334 . S
C3259 C3260 1.287 . S
C3260 C3259 1.287 . S
C3260 C3261 1.524 . S
C3260 H3279 0.913 . S
C3261 H3237 0.950 . S
C3261 C3260 1.524 . S
C3261 C3262 1.415 . S
C3262 H3238 0.950 . S
C3262 C3257 1.363 . S
C3262 C3261 1.415 . S
C3263 H3239 0.951 . S
C3263 C3264 1.366 . S
C3263 C3265 1.388 . S
C3264 C3263 1.366 . S
C3264 C3268 1.385 . S
C3265 H3240 0.951 . S
C3265 C3263 1.388 . S
C3265 C3266 1.366 . S
C3266 C3265 1.366 . S
C3266 C3267 1.414 . S
C3266 C3269 1.499 . S
C3267 H3241 0.950 . S
C3267 C3266 1.414 . S
C3267 C3268 1.374 . S
C3268 H3242 0.950 . S
C3268 C3264 1.385 . S
C3268 C3267 1.374 . S
C3269 C3266 1.499 . S
C3269 C3270 1.373 . S
C3269 C3271 1.389 . S
C3270 H3243 0.950 . S
C3270 C3256 1.377 . S
C3270 C3269 1.373 . S
C3271 C3255 1.377 . S
C3271 C3269 1.389 . S
C3271 C3272 1.524 . S
C3272 C3271 1.524 . S
C3272 C3273 1.397 . S
C3272 C3277 1.363 . S
C3273 H3244 0.950 . S
C3273 C3272 1.397 . S
C3273 C3274 1.334 . S
C3274 H3245 0.950 . S
C3274 C3273 1.334 . S
C3274 C3275 1.287 . S
C3275 C3274 1.287 . S
C3275 C3276 1.524 . S
C3275 H3278 0.999 . S
C3276 H3246 0.950 . S
C3276 C3275 1.524 . S
C3276 C3277 1.415 . S
C3277 H3247 0.950 . S
C3277 C3272 1.363 . S
C3277 C3276 1.415 . S
H3278 C3275 0.999 . S
H3279 C3260 0.913 . S
H3280 C3298 0.951 . S
H3281 C3300 0.951 . S
H3282 C3302 0.950 . S
H3283 C3303 0.950 . S
H3284 C3305 0.950 . S
H3285 C3308 0.950 . S
H3286 C3309 0.950 . S
H3287 C3311 0.950 . S
H3288 C3312 0.950 . S
H3289 C3313 0.951 . S
H3290 C3315 0.951 . S
H3291 C3317 0.950 . S
H3292 C3318 0.950 . S
H3293 C3320 0.950 . S
H3294 C3323 0.950 . S
H3295 C3324 0.950 . S
H3296 C3326 0.952 1_545 S
H3297 C3327 0.950 . S
C3298 H3280 0.951 . S
C3298 C3299 1.366 . S
C3298 C3300 1.388 . S
C3299 C3298 1.366 . S
C3299 C3303 1.385 . S
C3300 H3281 0.951 . S
C3300 C3298 1.388 . S
C3300 C3301 1.366 . S
C3301 C3300 1.366 . S
C3301 C3302 1.414 . S
C3301 C3304 1.499 . S
C3302 H3282 0.950 . S
C3302 C3301 1.414 . S
C3302 C3303 1.374 . S
C3303 H3283 0.950 . S
C3303 C3299 1.385 . S
C3303 C3302 1.374 . S
C3304 C3301 1.499 . S
C3304 C3305 1.373 . S
C3304 C3306 1.389 . S
C3305 H3284 0.950 . S
C3305 C3304 1.373 . S
C3305 C3321 1.377 . S
C3306 C3304 1.389 . S
C3306 C3307 1.524 . S
C3306 C3320 1.377 . S
C3307 C3306 1.524 . S
C3307 C3308 1.397 . S
C3307 C3312 1.363 . S
C3308 H3285 0.950 . S
C3308 C3307 1.397 . S
C3308 C3309 1.334 . S
C3309 H3286 0.950 . S
C3309 C3308 1.334 . S
C3309 C3310 1.287 . S
C3310 C3309 1.287 . S
C3310 C3311 1.524 . S
C3310 H3329 0.913 . S
C3311 H3287 0.950 . S
C3311 C3310 1.524 . S
C3311 C3312 1.415 . S
C3312 H3288 0.950 . S
C3312 C3307 1.363 . S
C3312 C3311 1.415 . S
C3313 H3289 0.951 . S
C3313 C3314 1.366 . S
C3313 C3315 1.388 . S
C3314 C3313 1.366 . S
C3314 C3318 1.385 . S
C3315 H3290 0.951 . S
C3315 C3313 1.388 . S
C3315 C3316 1.366 . S
C3316 C3315 1.366 . S
C3316 C3317 1.414 . S
C3316 C3319 1.499 . S
C3317 H3291 0.950 . S
C3317 C3316 1.414 . S
C3317 C3318 1.374 . S
C3318 H3292 0.950 . S
C3318 C3314 1.385 . S
C3318 C3317 1.374 . S
C3319 C3316 1.499 . S
C3319 C3320 1.373 . S
C3319 C3321 1.389 . S
C3320 H3293 0.950 . S
C3320 C3306 1.377 . S
C3320 C3319 1.373 . S
C3321 C3305 1.377 . S
C3321 C3319 1.389 . S
C3321 C3322 1.524 . S
C3322 C3321 1.524 . S
C3322 C3323 1.397 1_545 S
C3322 C3327 1.363 . S
C3323 H3294 0.950 . S
C3323 C3322 1.397 1_565 S
C3323 C3324 1.334 . S
C3324 H3295 0.950 . S
C3324 C3323 1.334 . S
C3324 C3325 1.287 . S
C3325 C3324 1.287 . S
C3325 C3326 1.561 . S
C3325 H3328 0.999 . S
C3326 H3296 0.952 1_565 S
C3326 C3325 1.561 . S
C3326 C3327 1.378 1_565 S
C3327 H3297 0.950 . S
C3327 C3322 1.363 . S
C3327 C3326 1.378 1_545 S
H3328 C3325 0.999 . S
H3329 C3310 0.913 . S
H3330 C3348 0.951 . S
H3331 C3350 0.951 . S
H3332 C3352 0.950 . S
H3333 C3353 0.950 . S
H3334 C3355 0.950 . S
H3335 C3358 0.950 . S
H3336 C3359 0.950 . S
H3337 C3361 0.950 . S
H3338 C3362 0.950 . S
H3339 C3363 0.951 . S
H3340 C3365 0.951 . S
H3341 C3367 0.950 . S
H3342 C3368 0.950 . S
H3343 C3370 0.950 . S
H3344 C3373 0.950 . S
H3345 C3374 0.950 . S
H3346 C3376 0.950 . S
H3347 C3377 0.950 . S
C3348 H3330 0.951 . S
C3348 C3349 1.366 . S
C3348 C3350 1.388 . S
C3349 C3348 1.366 . S
C3349 C3353 1.385 . S
C3350 H3331 0.951 . S
C3350 C3348 1.388 . S
C3350 C3351 1.366 . S
C3351 C3350 1.366 . S
C3351 C3352 1.414 . S
C3351 C3354 1.499 . S
C3352 H3332 0.950 . S
C3352 C3351 1.414 . S
C3352 C3353 1.374 . S
C3353 H3333 0.950 . S
C3353 C3349 1.385 . S
C3353 C3352 1.374 . S
C3354 C3351 1.499 . S
C3354 C3355 1.373 . S
C3354 C3356 1.389 . S
C3355 H3334 0.950 . S
C3355 C3354 1.373 . S
C3355 C3371 1.377 . S
C3356 C3354 1.389 . S
C3356 C3357 1.524 . S
C3356 C3370 1.377 . S
C3357 C3356 1.524 . S
C3357 C3358 1.397 . S
C3357 C3362 1.363 . S
C3358 H3335 0.950 . S
C3358 C3357 1.397 . S
C3358 C3359 1.334 . S
C3359 H3336 0.950 . S
C3359 C3358 1.334 . S
C3359 C3360 1.287 . S
C3360 C3359 1.287 . S
C3360 C3361 1.524 . S
C3360 H3379 0.913 . S
C3361 H3337 0.950 . S
C3361 C3360 1.524 . S
C3361 C3362 1.415 . S
C3362 H3338 0.950 . S
C3362 C3357 1.363 . S
C3362 C3361 1.415 . S
C3363 H3339 0.951 . S
C3363 C3364 1.366 . S
C3363 C3365 1.388 . S
C3364 C3363 1.366 . S
C3364 C3368 1.385 . S
C3365 H3340 0.951 . S
C3365 C3363 1.388 . S
C3365 C3366 1.366 . S
C3366 C3365 1.366 . S
C3366 C3367 1.414 . S
C3366 C3369 1.499 . S
C3367 H3341 0.950 . S
C3367 C3366 1.414 . S
C3367 C3368 1.374 . S
C3368 H3342 0.950 . S
C3368 C3364 1.385 . S
C3368 C3367 1.374 . S
C3369 C3366 1.499 . S
C3369 C3370 1.373 . S
C3369 C3371 1.389 . S
C3370 H3343 0.950 . S
C3370 C3356 1.377 . S
C3370 C3369 1.373 . S
C3371 C3355 1.377 . S
C3371 C3369 1.389 . S
C3371 C3372 1.524 . S
C3372 C3371 1.524 . S
C3372 C3373 1.397 . S
C3372 C3377 1.363 . S
C3373 H3344 0.950 . S
C3373 C3372 1.397 . S
C3373 C3374 1.334 . S
C3374 H3345 0.950 . S
C3374 C3373 1.334 . S
C3374 C3375 1.287 . S
C3375 C3374 1.287 . S
C3375 C3376 1.524 . S
C3375 H3378 0.999 . S
C3376 H3346 0.950 . S
C3376 C3375 1.524 . S
C3376 C3377 1.415 . S
C3377 H3347 0.950 . S
C3377 C3372 1.363 . S
C3377 C3376 1.415 . S
H3378 C3375 0.999 . S
H3379 C3360 0.913 . S
H3380 C3398 0.951 . S
H3381 C3400 0.951 . S
H3382 C3402 0.950 . S
H3383 C3403 0.950 . S
H3384 C3405 0.950 1_565 S
H3385 C3408 0.950 . S
H3386 C3409 0.950 . S
H3387 C3411 0.950 . S
H3388 C3412 0.950 . S
H3389 C3413 0.951 . S
H3390 C3415 0.951 . S
H3391 C3417 0.950 . S
H3392 C3418 0.950 . S
H3393 C3420 0.950 . S
H3394 C3423 0.950 . S
H3395 C3424 0.950 . S
H3396 C3426 0.950 . S
H3397 C3427 0.950 . S
C3398 H3380 0.951 . S
C3398 C3399 1.366 . S
C3398 C3400 1.388 . S
C3399 C3398 1.366 . S
C3399 C3403 1.385 . S
C3400 H3381 0.951 . S
C3400 C3398 1.388 . S
C3400 C3401 1.366 . S
C3401 C3400 1.366 . S
C3401 C3402 1.414 . S
C3401 C3404 1.499 . S
C3402 H3382 0.950 . S
C3402 C3401 1.414 . S
C3402 C3403 1.374 . S
C3403 H3383 0.950 . S
C3403 C3399 1.385 . S
C3403 C3402 1.374 . S
C3404 C3401 1.499 . S
C3404 C3405 1.373 . S
C3404 C3406 1.389 . S
C3405 H3384 0.950 1_545 S
C3405 C3404 1.373 . S
C3405 C3421 1.377 . S
C3406 C3404 1.389 . S
C3406 C3407 1.524 . S
C3406 C3420 1.377 . S
C3407 C3406 1.524 . S
C3407 C3408 1.397 . S
C3407 C3412 1.363 . S
C3408 H3385 0.950 . S
C3408 C3407 1.397 . S
C3408 C3409 1.334 . S
C3409 H3386 0.950 . S
C3409 C3408 1.334 . S
C3409 C3410 1.287 . S
C3410 C3409 1.287 . S
C3410 C3411 1.524 . S
C3410 H3429 0.913 . S
C3411 H3387 0.950 . S
C3411 C3410 1.524 . S
C3411 C3412 1.415 . S
C3412 H3388 0.950 . S
C3412 C3407 1.363 . S
C3412 C3411 1.415 . S
C3413 H3389 0.951 . S
C3413 C3414 1.366 . S
C3413 C3415 1.388 . S
C3414 C3413 1.366 . S
C3414 C3418 1.385 . S
C3415 H3390 0.951 . S
C3415 C3413 1.388 . S
C3415 C3416 1.366 . S
C3416 C3415 1.366 . S
C3416 C3417 1.414 . S
C3416 C3419 1.499 . S
C3417 H3391 0.950 . S
C3417 C3416 1.414 . S
C3417 C3418 1.374 . S
C3418 H3392 0.950 . S
C3418 C3414 1.385 . S
C3418 C3417 1.374 . S
C3419 C3416 1.499 . S
C3419 C3420 1.373 . S
C3419 C3421 1.389 . S
C3420 H3393 0.950 . S
C3420 C3406 1.377 . S
C3420 C3419 1.373 . S
C3421 C3405 1.377 . S
C3421 C3419 1.389 . S
C3421 C3422 1.524 1_545 S
C3422 C3421 1.524 1_565 S
C3422 C3423 1.397 . S
C3422 C3427 1.363 . S
C3423 H3394 0.950 . S
C3423 C3422 1.397 . S
C3423 C3424 1.334 . S
C3424 H3395 0.950 . S
C3424 C3423 1.334 . S
C3424 C3425 1.287 . S
C3425 C3424 1.287 . S
C3425 C3426 1.524 . S
C3425 H3428 0.999 . S
C3426 H3396 0.950 . S
C3426 C3425 1.524 . S
C3426 C3427 1.415 . S
C3427 H3397 0.950 . S
C3427 C3422 1.363 . S
C3427 C3426 1.415 . S
H3428 C3425 0.999 . S
H3429 C3410 0.913 . S
H3430 C3448 0.951 . S
H3431 C3450 0.951 . S
H3432 C3452 0.950 . S
H3433 C3453 0.950 . S
H3434 C3455 0.950 . S
H3435 C3458 0.950 . S
H3436 C3459 0.950 . S
H3437 C3461 0.950 . S
H3438 C3462 0.950 . S
H3439 C3463 0.951 . S
H3440 C3465 0.951 . S
H3441 C3467 0.950 . S
H3442 C3468 0.950 . S
H3443 C3470 0.950 . S
H3444 C3473 0.950 . S
H3445 C3474 0.950 . S
H3446 C3476 0.950 . S
H3447 C3477 0.950 . S
C3448 H3430 0.951 . S
C3448 C3449 1.366 . S
C3448 C3450 1.388 . S
C3449 C3448 1.366 . S
C3449 C3453 1.385 . S
C3450 H3431 0.951 . S
C3450 C3448 1.388 . S
C3450 C3451 1.366 . S
C3451 C3450 1.366 . S
C3451 C3452 1.414 . S
C3451 C3454 1.499 . S
C3452 H3432 0.950 . S
C3452 C3451 1.414 . S
C3452 C3453 1.374 . S
C3453 H3433 0.950 . S
C3453 C3449 1.385 . S
C3453 C3452 1.374 . S
C3454 C3451 1.499 . S
C3454 C3455 1.373 . S
C3454 C3456 1.389 . S
C3455 H3434 0.950 . S
C3455 C3454 1.373 . S
C3455 C3471 1.377 . S
C3456 C3454 1.389 . S
C3456 C3457 1.524 . S
C3456 C3470 1.377 . S
C3457 C3456 1.524 . S
C3457 C3458 1.397 . S
C3457 C3462 1.363 . S
C3458 H3435 0.950 . S
C3458 C3457 1.397 . S
C3458 C3459 1.334 . S
C3459 H3436 0.950 . S
C3459 C3458 1.334 . S
C3459 C3460 1.287 . S
C3460 C3459 1.287 . S
C3460 C3461 1.524 . S
C3460 H3479 0.913 . S
C3461 H3437 0.950 . S
C3461 C3460 1.524 . S
C3461 C3462 1.415 . S
C3462 H3438 0.950 . S
C3462 C3457 1.363 . S
C3462 C3461 1.415 . S
C3463 H3439 0.951 . S
C3463 C3464 1.366 . S
C3463 C3465 1.388 . S
C3464 C3463 1.366 . S
C3464 C3468 1.385 . S
C3465 H3440 0.951 . S
C3465 C3463 1.388 . S
C3465 C3466 1.366 . S
C3466 C3465 1.366 . S
C3466 C3467 1.414 . S
C3466 C3469 1.499 . S
C3467 H3441 0.950 . S
C3467 C3466 1.414 . S
C3467 C3468 1.374 . S
C3468 H3442 0.950 . S
C3468 C3464 1.385 . S
C3468 C3467 1.374 . S
C3469 C3466 1.499 . S
C3469 C3470 1.373 . S
C3469 C3471 1.389 . S
C3470 H3443 0.950 . S
C3470 C3456 1.377 . S
C3470 C3469 1.373 . S
C3471 C3455 1.377 . S
C3471 C3469 1.389 . S
C3471 C3472 1.524 . S
C3472 C3471 1.524 . S
C3472 C3473 1.397 . S
C3472 C3477 1.363 . S
C3473 H3444 0.950 . S
C3473 C3472 1.397 . S
C3473 C3474 1.334 . S
C3474 H3445 0.950 . S
C3474 C3473 1.334 . S
C3474 C3475 1.287 . S
C3475 C3474 1.287 . S
C3475 C3476 1.524 . S
C3475 H3478 0.999 . S
C3476 H3446 0.950 . S
C3476 C3475 1.524 . S
C3476 C3477 1.415 . S
C3477 H3447 0.950 . S
C3477 C3472 1.363 . S
C3477 C3476 1.415 . S
H3478 C3475 0.999 . S
H3479 C3460 0.913 . S
H3480 C3498 0.951 . S
H3481 C3500 0.987 . S
H3482 C3502 0.950 . S
H3483 C3503 0.950 . S
H3484 C3505 0.950 . S
H3485 C3508 0.950 . S
H3486 C3509 0.949 1_545 S
H3487 C3511 0.950 . S
H3488 C3512 0.950 . S
H3489 C3513 0.951 . S
H3490 C3515 0.951 . S
H3491 C3517 0.950 1_565 S
H3492 C3518 0.950 1_565 S
H3493 C3520 0.950 . S
H3494 C3523 0.950 . S
H3495 C3524 0.950 . S
H3496 C3526 0.950 . S
H3497 C3527 0.950 . S
C3498 H3480 0.951 . S
C3498 C3499 1.366 . S
C3498 C3500 1.388 . S
C3499 C3498 1.366 . S
C3499 C3503 1.385 . S
C3500 H3481 0.987 . S
C3500 C3498 1.388 . S
C3500 C3501 1.366 . S
C3501 C3500 1.366 . S
C3501 C3502 1.414 . S
C3501 C3504 1.499 . S
C3502 H3482 0.950 . S
C3502 C3501 1.414 . S
C3502 C3503 1.374 . S
C3503 H3483 0.950 . S
C3503 C3499 1.385 . S
C3503 C3502 1.374 . S
C3504 C3501 1.499 . S
C3504 C3505 1.373 . S
C3504 C3506 1.389 . S
C3505 H3484 0.950 . S
C3505 C3504 1.373 . S
C3505 C3521 1.377 . S
C3506 C3504 1.389 . S
C3506 C3507 1.524 . S
C3506 C3520 1.377 . S
C3507 C3506 1.524 . S
C3507 C3508 1.397 . S
C3507 C3512 1.363 1_545 S
C3508 H3485 0.950 . S
C3508 C3507 1.397 . S
C3508 C3509 1.327 1_545 S
C3509 H3486 0.949 1_565 S
C3509 C3508 1.327 1_565 S
C3509 C3510 1.295 . S
C3510 C3509 1.295 . S
C3510 C3511 1.524 . S
C3510 H3529 0.913 . S
C3511 H3487 0.950 . S
C3511 C3510 1.524 . S
C3511 C3512 1.415 . S
C3512 H3488 0.950 . S
C3512 C3507 1.363 1_565 S
C3512 C3511 1.415 . S
C3513 H3489 0.951 . S
C3513 C3514 1.366 . S
C3513 C3515 1.388 . S
C3514 C3513 1.366 . S
C3514 C3518 1.385 . S
C3515 H3490 0.951 . S
C3515 C3513 1.388 . S
C3515 C3516 1.366 . S
C3516 C3515 1.366 . S
C3516 C3517 1.414 . S
C3516 C3519 1.499 . S
C3517 H3491 0.950 1_545 S
C3517 C3516 1.414 . S
C3517 C3518 1.374 . S
C3518 H3492 0.950 1_545 S
C3518 C3514 1.385 . S
C3518 C3517 1.374 . S
C3519 C3516 1.499 . S
C3519 C3520 1.373 . S
C3519 C3521 1.389 . S
C3520 H3493 0.950 . S
C3520 C3506 1.377 . S
C3520 C3519 1.373 . S
C3521 C3505 1.377 . S
C3521 C3519 1.389 . S
C3521 C3522 1.524 . S
C3522 C3521 1.524 . S
C3522 C3523 1.397 . S
C3522 C3527 1.363 . S
C3523 H3494 0.950 . S
C3523 C3522 1.397 . S
C3523 C3524 1.334 . S
C3524 H3495 0.950 . S
C3524 C3523 1.334 . S
C3524 C3525 1.287 . S
C3525 C3524 1.287 . S
C3525 C3526 1.524 . S
C3525 H3528 0.999 . S
C3526 H3496 0.950 . S
C3526 C3525 1.524 . S
C3526 C3527 1.415 . S
C3527 H3497 0.950 . S
C3527 C3522 1.363 . S
C3527 C3526 1.415 . S
H3528 C3525 0.999 . S
H3529 C3510 0.913 . S
H3530 C3548 0.951 . S
H3531 C3550 0.951 . S
H3532 C3552 0.950 . S
H3533 C3553 0.950 . S
H3534 C3555 0.950 . S
H3535 C3558 0.950 . S
H3536 C3559 0.950 . S
H3537 C3561 0.950 . S
H3538 C3562 0.950 . S
H3539 C3563 0.951 . S
H3540 C3565 0.951 . S
H3541 C3567 0.950 . S
H3542 C3568 0.950 . S
H3543 C3570 0.950 . S
H3544 C3573 0.950 . S
H3545 C3574 0.950 . S
H3546 C3576 0.950 . S
H3547 C3577 0.950 . S
C3548 H3530 0.951 . S
C3548 C3549 1.366 . S
C3548 C3550 1.388 . S
C3549 C3548 1.366 . S
C3549 C3553 1.385 . S
C3550 H3531 0.951 . S
C3550 C3548 1.388 . S
C3550 C3551 1.366 . S
C3551 C3550 1.366 . S
C3551 C3552 1.414 . S
C3551 C3554 1.499 . S
C3552 H3532 0.950 . S
C3552 C3551 1.414 . S
C3552 C3553 1.374 . S
C3553 H3533 0.950 . S
C3553 C3549 1.385 . S
C3553 C3552 1.374 . S
C3554 C3551 1.499 . S
C3554 C3555 1.373 . S
C3554 C3556 1.389 . S
C3555 H3534 0.950 . S
C3555 C3554 1.373 . S
C3555 C3571 1.377 . S
C3556 C3554 1.389 . S
C3556 C3557 1.524 . S
C3556 C3570 1.377 . S
C3557 C3556 1.524 . S
C3557 C3558 1.397 . S
C3557 C3562 1.363 . S
C3558 H3535 0.950 . S
C3558 C3557 1.397 . S
C3558 C3559 1.334 . S
C3559 H3536 0.950 . S
C3559 C3558 1.334 . S
C3559 C3560 1.287 . S
C3560 C3559 1.287 . S
C3560 C3561 1.524 . S
C3560 H3579 0.913 . S
C3561 H3537 0.950 . S
C3561 C3560 1.524 . S
C3561 C3562 1.415 . S
C3562 H3538 0.950 . S
C3562 C3557 1.363 . S
C3562 C3561 1.415 . S
C3563 H3539 0.951 . S
C3563 C3564 1.366 . S
C3563 C3565 1.388 . S
C3564 C3563 1.366 . S
C3564 C3568 1.385 . S
C3565 H3540 0.951 . S
C3565 C3563 1.388 . S
C3565 C3566 1.366 . S
C3566 C3565 1.366 . S
C3566 C3567 1.414 . S
C3566 C3569 1.499 . S
C3567 H3541 0.950 . S
C3567 C3566 1.414 . S
C3567 C3568 1.374 . S
C3568 H3542 0.950 . S
C3568 C3564 1.385 . S
C3568 C3567 1.374 . S
C3569 C3566 1.499 . S
C3569 C3570 1.373 . S
C3569 C3571 1.389 . S
C3570 H3543 0.950 . S
C3570 C3556 1.377 . S
C3570 C3569 1.373 . S
C3571 C3555 1.377 . S
C3571 C3569 1.389 . S
C3571 C3572 1.524 . S
C3572 C3571 1.524 . S
C3572 C3573 1.397 . S
C3572 C3577 1.363 . S
C3573 H3544 0.950 . S
C3573 C3572 1.397 . S
C3573 C3574 1.334 . S
C3574 H3545 0.950 . S
C3574 C3573 1.334 . S
C3574 C3575 1.287 . S
C3575 C3574 1.287 . S
C3575 C3576 1.524 . S
C3575 H3578 0.999 . S
C3576 H3546 0.950 . S
C3576 C3575 1.524 . S
C3576 C3577 1.415 . S
C3577 H3547 0.950 . S
C3577 C3572 1.363 . S
C3577 C3576 1.415 . S
H3578 C3575 0.999 . S
H3579 C3560 0.913 . S
H3580 C3598 0.951 . S
H3581 C3600 0.951 . S
H3582 C3602 0.961 . S
H3583 C3603 0.939 1_565 S
H3584 C3605 0.950 . S
H3585 C3608 0.950 . S
H3586 C3609 0.950 . S
H3587 C3611 0.950 . S
H3588 C3612 0.950 . S
H3589 C3613 0.951 . S
H3590 C3615 0.951 . S
H3591 C3617 0.950 . S
H3592 C3618 0.950 . S
H3593 C3620 0.950 1_565 S
H3594 C3623 0.950 . S
H3595 C3624 0.950 . S
H3596 C3626 0.950 . S
H3597 C3627 0.950 . S
C3598 H3580 0.951 . S
C3598 C3599 1.366 . S
C3598 C3600 1.388 . S
C3599 C3598 1.366 . S
C3599 C3603 1.385 . S
C3600 H3581 0.951 . S
C3600 C3598 1.388 . S
C3600 C3601 1.366 . S
C3601 C3600 1.366 . S
C3601 C3602 1.414 . S
C3601 C3604 1.499 . S
C3602 H3582 0.961 . S
C3602 C3601 1.414 . S
C3602 C3603 1.374 . S
C3603 H3583 0.939 1_545 S
C3603 C3599 1.385 . S
C3603 C3602 1.374 . S
C3604 C3601 1.499 . S
C3604 C3605 1.373 . S
C3604 C3606 1.378 1_545 S
C3605 H3584 0.950 . S
C3605 C3604 1.373 . S
C3605 C3621 1.377 . S
C3606 C3604 1.378 1_565 S
C3606 C3607 1.545 . S
C3606 C3620 1.373 1_565 S
C3607 C3606 1.545 . S
C3607 C3608 1.397 . S
C3607 C3612 1.363 . S
C3608 H3585 0.950 . S
C3608 C3607 1.397 . S
C3608 C3609 1.334 . S
C3609 H3586 0.950 . S
C3609 C3608 1.334 . S
C3609 C3610 1.287 . S
C3610 C3609 1.287 . S
C3610 C3611 1.524 . S
C3610 H3629 0.913 . S
C3611 H3587 0.950 . S
C3611 C3610 1.524 . S
C3611 C3612 1.415 . S
C3612 H3588 0.950 . S
C3612 C3607 1.363 . S
C3612 C3611 1.415 . S
C3613 H3589 0.951 . S
C3613 C3614 1.366 . S
C3613 C3615 1.388 . S
C3614 C3613 1.366 . S
C3614 C3618 1.385 . S
C3615 H3590 0.951 . S
C3615 C3613 1.388 . S
C3615 C3616 1.366 . S
C3616 C3615 1.366 . S
C3616 C3617 1.414 . S
C3616 C3619 1.499 . S
C3617 H3591 0.950 . S
C3617 C3616 1.414 . S
C3617 C3618 1.374 . S
C3618 H3592 0.950 . S
C3618 C3614 1.385 . S
C3618 C3617 1.374 . S
C3619 C3616 1.499 . S
C3619 C3620 1.373 . S
C3619 C3621 1.389 . S
C3620 H3593 0.950 1_545 S
C3620 C3606 1.373 1_545 S
C3620 C3619 1.373 . S
C3621 C3605 1.377 . S
C3621 C3619 1.389 . S
C3621 C3622 1.524 . S
C3622 C3621 1.524 . S
C3622 C3623 1.397 . S
C3622 C3627 1.363 . S
C3623 H3594 0.950 . S
C3623 C3622 1.397 . S
C3623 C3624 1.334 . S
C3624 H3595 0.950 . S
C3624 C3623 1.334 . S
C3624 C3625 1.287 . S
C3625 C3624 1.287 . S
C3625 C3626 1.524 . S
C3625 H3628 0.999 . S
C3626 H3596 0.950 . S
C3626 C3625 1.524 . S
C3626 C3627 1.415 . S
C3627 H3597 0.950 . S
C3627 C3622 1.363 . S
C3627 C3626 1.415 . S
H3628 C3625 0.999 . S
H3629 C3610 0.913 . S
H3630 C3648 0.951 . S
H3631 C3650 0.951 . S
H3632 C3652 0.950 . S
H3633 C3653 0.950 . S
H3634 C3655 0.950 . S
H3635 C3658 0.950 . S
H3636 C3659 0.950 . S
H3637 C3661 0.950 . S
H3638 C3662 0.950 . S
H3639 C3663 0.951 . S
H3640 C3665 0.951 . S
H3641 C3667 0.950 . S
H3642 C3668 0.950 . S
H3643 C3670 0.950 . S
H3644 C3673 0.950 . S
H3645 C3674 0.950 . S
H3646 C3676 0.950 . S
H3647 C3677 0.950 . S
C3648 H3630 0.951 . S
C3648 C3649 1.366 . S
C3648 C3650 1.388 . S
C3649 C3648 1.366 . S
C3649 C3653 1.385 . S
C3650 H3631 0.951 . S
C3650 C3648 1.388 . S
C3650 C3651 1.366 . S
C3651 C3650 1.366 . S
C3651 C3652 1.414 . S
C3651 C3654 1.499 . S
C3652 H3632 0.950 . S
C3652 C3651 1.414 . S
C3652 C3653 1.374 . S
C3653 H3633 0.950 . S
C3653 C3649 1.385 . S
C3653 C3652 1.374 . S
C3654 C3651 1.499 . S
C3654 C3655 1.373 . S
C3654 C3656 1.389 . S
C3655 H3634 0.950 . S
C3655 C3654 1.373 . S
C3655 C3671 1.377 . S
C3656 C3654 1.389 . S
C3656 C3657 1.524 . S
C3656 C3670 1.377 . S
C3657 C3656 1.524 . S
C3657 C3658 1.397 . S
C3657 C3662 1.363 . S
C3658 H3635 0.950 . S
C3658 C3657 1.397 . S
C3658 C3659 1.334 . S
C3659 H3636 0.950 . S
C3659 C3658 1.334 . S
C3659 C3660 1.287 . S
C3660 C3659 1.287 . S
C3660 C3661 1.524 . S
C3660 H3679 0.913 . S
C3661 H3637 0.950 . S
C3661 C3660 1.524 . S
C3661 C3662 1.415 . S
C3662 H3638 0.950 . S
C3662 C3657 1.363 . S
C3662 C3661 1.415 . S
C3663 H3639 0.951 . S
C3663 C3664 1.366 . S
C3663 C3665 1.388 . S
C3664 C3663 1.366 . S
C3664 C3668 1.385 . S
C3665 H3640 0.951 . S
C3665 C3663 1.388 . S
C3665 C3666 1.366 . S
C3666 C3665 1.366 . S
C3666 C3667 1.414 . S
C3666 C3669 1.499 . S
C3667 H3641 0.950 . S
C3667 C3666 1.414 . S
C3667 C3668 1.374 . S
C3668 H3642 0.950 . S
C3668 C3664 1.385 . S
C3668 C3667 1.374 . S
C3669 C3666 1.499 . S
C3669 C3670 1.373 . S
C3669 C3671 1.389 . S
C3670 H3643 0.950 . S
C3670 C3656 1.377 . S
C3670 C3669 1.373 . S
C3671 C3655 1.377 . S
C3671 C3669 1.389 . S
C3671 C3672 1.524 . S
C3672 C3671 1.524 . S
C3672 C3673 1.397 . S
C3672 C3677 1.363 . S
C3673 H3644 0.950 . S
C3673 C3672 1.397 . S
C3673 C3674 1.334 . S
C3674 H3645 0.950 . S
C3674 C3673 1.334 . S
C3674 C3675 1.287 . S
C3675 C3674 1.287 . S
C3675 C3676 1.524 . S
C3675 H3678 0.999 . S
C3676 H3646 0.950 . S
C3676 C3675 1.524 . S
C3676 C3677 1.415 . S
C3677 H3647 0.950 . S
C3677 C3672 1.363 . S
C3677 C3676 1.415 . S
H3678 C3675 0.999 . S
H3679 C3660 0.913 . S
H3680 C3698 0.951 . S
H3681 C3700 0.951 . S
H3682 C3702 0.950 . S
H3683 C3703 0.950 . S
H3684 C3705 0.950 . S
H3685 C3708 0.950 . S
H3686 C3709 0.950 . S
H3687 C3711 0.950 . S
H3688 C3712 0.950 . S
H3689 C3713 0.951 . S
H3690 C3715 0.951 . S
H3691 C3717 0.950 . S
H3692 C3718 0.950 . S
H3693 C3720 0.950 . S
H3694 C3723 0.950 . S
H3695 C3724 0.950 . S
H3696 C3726 0.950 . S
H3697 C3727 0.950 . S
C3698 H3680 0.951 . S
C3698 C3699 1.366 . S
C3698 C3700 1.388 . S
C3699 C3698 1.366 . S
C3699 C3703 1.385 . S
C3700 H3681 0.951 . S
C3700 C3698 1.388 . S
C3700 C3701 1.366 . S
C3701 C3700 1.366 . S
C3701 C3702 1.414 . S
C3701 C3704 1.499 . S
C3702 H3682 0.950 . S
C3702 C3701 1.414 . S
C3702 C3703 1.374 . S
C3703 H3683 0.950 . S
C3703 C3699 1.385 . S
C3703 C3702 1.374 . S
C3704 C3701 1.499 . S
C3704 C3705 1.373 . S
C3704 C3706 1.389 . S
C3705 H3684 0.950 . S
C3705 C3704 1.373 . S
C3705 C3721 1.377 . S
C3706 C3704 1.389 . S
C3706 C3707 1.524 . S
C3706 C3720 1.377 . S
C3707 C3706 1.524 . S
C3707 C3708 1.397 1_554 S
C3707 C3712 1.363 . S
C3708 H3685 0.950 . S
C3708 C3707 1.397 1_556 S
C3708 C3709 1.334 . S
C3709 H3686 0.950 . S
C3709 C3708 1.334 . S
C3709 C3710 1.287 . S
C3710 C3709 1.287 . S
C3710 C3711 1.524 . S
C3710 H3729 0.913 . S
C3711 H3687 0.950 . S
C3711 C3710 1.524 . S
C3711 C3712 1.415 1_556 S
C3712 H3688 0.950 . S
C3712 C3707 1.363 . S
C3712 C3711 1.415 1_554 S
C3713 H3689 0.951 . S
C3713 C3714 1.366 . S
C3713 C3715 1.388 . S
C3714 C3713 1.366 . S
C3714 C3718 1.385 . S
C3715 H3690 0.951 . S
C3715 C3713 1.388 . S
C3715 C3716 1.366 . S
C3716 C3715 1.366 . S
C3716 C3717 1.414 . S
C3716 C3719 1.499 . S
C3717 H3691 0.950 . S
C3717 C3716 1.414 . S
C3717 C3718 1.374 . S
C3718 H3692 0.950 . S
C3718 C3714 1.385 . S
C3718 C3717 1.374 . S
C3719 C3716 1.499 . S
C3719 C3720 1.373 . S
C3719 C3721 1.389 . S
C3720 H3693 0.950 . S
C3720 C3706 1.377 . S
C3720 C3719 1.373 . S
C3721 C3705 1.377 . S
C3721 C3719 1.389 . S
C3721 C3722 1.524 . S
C3722 C3721 1.524 . S
C3722 C3723 1.397 . S
C3722 C3727 1.363 . S
C3723 H3694 0.950 . S
C3723 C3722 1.397 . S
C3723 C3724 1.334 . S
C3724 H3695 0.950 . S
C3724 C3723 1.334 . S
C3724 C3725 1.287 . S
C3725 C3724 1.287 . S
C3725 C3726 1.524 . S
C3725 H3728 0.999 . S
C3726 H3696 0.950 . S
C3726 C3725 1.524 . S
C3726 C3727 1.415 . S
C3727 H3697 0.950 . S
C3727 C3722 1.363 . S
C3727 C3726 1.415 . S
H3728 C3725 0.999 . S
H3729 C3710 0.913 . S
H3730 C3748 0.951 . S
H3731 C3750 0.951 . S
H3732 C3752 0.950 . S
H3733 C3753 0.950 . S
H3734 C3755 0.950 . S
H3735 C3758 0.950 . S
H3736 C3759 0.950 . S
H3737 C3761 0.950 . S
H3738 C3762 0.950 . S
H3739 C3763 0.951 . S
H3740 C3765 0.951 . S
H3741 C3767 0.950 . S
H3742 C3768 0.950 . S
H3743 C3770 0.950 . S
H3744 C3773 0.950 . S
H3745 C3774 0.950 . S
H3746 C3776 0.950 . S
H3747 C3777 0.950 . S
C3748 H3730 0.951 . S
C3748 C3749 1.366 . S
C3748 C3750 1.388 . S
C3749 C3748 1.366 . S
C3749 C3753 1.385 . S
C3750 H3731 0.951 . S
C3750 C3748 1.388 . S
C3750 C3751 1.366 . S
C3751 C3750 1.366 . S
C3751 C3752 1.414 . S
C3751 C3754 1.499 . S
C3752 H3732 0.950 . S
C3752 C3751 1.414 . S
C3752 C3753 1.374 . S
C3753 H3733 0.950 . S
C3753 C3749 1.385 . S
C3753 C3752 1.374 . S
C3754 C3751 1.499 . S
C3754 C3755 1.373 . S
C3754 C3756 1.389 . S
C3755 H3734 0.950 . S
C3755 C3754 1.373 . S
C3755 C3771 1.377 . S
C3756 C3754 1.389 . S
C3756 C3757 1.524 . S
C3756 C3770 1.377 . S
C3757 C3756 1.524 . S
C3757 C3758 1.397 . S
C3757 C3762 1.363 . S
C3758 H3735 0.950 . S
C3758 C3757 1.397 . S
C3758 C3759 1.334 . S
C3759 H3736 0.950 . S
C3759 C3758 1.334 . S
C3759 C3760 1.287 . S
C3760 C3759 1.287 . S
C3760 C3761 1.524 . S
C3760 H3779 0.913 . S
C3761 H3737 0.950 . S
C3761 C3760 1.524 . S
C3761 C3762 1.415 . S
C3762 H3738 0.950 . S
C3762 C3757 1.363 . S
C3762 C3761 1.415 . S
C3763 H3739 0.951 . S
C3763 C3764 1.366 . S
C3763 C3765 1.388 . S
C3764 C3763 1.366 . S
C3764 C3768 1.385 . S
C3765 H3740 0.951 . S
C3765 C3763 1.388 . S
C3765 C3766 1.366 . S
C3766 C3765 1.366 . S
C3766 C3767 1.414 . S
C3766 C3769 1.499 . S
C3767 H3741 0.950 . S
C3767 C3766 1.414 . S
C3767 C3768 1.374 . S
C3768 H3742 0.950 . S
C3768 C3764 1.385 . S
C3768 C3767 1.374 . S
C3769 C3766 1.499 . S
C3769 C3770 1.373 . S
C3769 C3771 1.389 . S
C3770 H3743 0.950 . S
C3770 C3756 1.377 . S
C3770 C3769 1.373 . S
C3771 C3755 1.377 . S
C3771 C3769 1.389 . S
C3771 C3772 1.524 . S
C3772 C3771 1.524 . S
C3772 C3773 1.397 1_554 S
C3772 C3777 1.363 . S
C3773 H3744 0.950 . S
C3773 C3772 1.397 1_556 S
C3773 C3774 1.334 . S
C3774 H3745 0.950 . S
C3774 C3773 1.334 . S
C3774 C3775 1.287 . S
C3775 C3774 1.287 . S
C3775 C3776 1.524 . S
C3775 H3778 0.999 . S
C3776 H3746 0.950 . S
C3776 C3775 1.524 . S
C3776 C3777 1.415 1_556 S
C3777 H3747 0.950 . S
C3777 C3772 1.363 . S
C3777 C3776 1.415 1_554 S
H3778 C3775 0.999 . S
H3779 C3760 0.913 . S
H3780 C3798 0.951 . S
H3781 C3800 0.951 . S
H3782 C3802 0.950 . S
H3783 C3803 0.950 . S
H3784 C3805 0.950 . S
H3785 C3808 0.950 . S
H3786 C3809 0.950 . S
H3787 C3811 0.950 . S
H3788 C3812 0.950 . S
H3789 C3813 0.951 . S
H3790 C3815 0.951 . S
H3791 C3817 0.950 . S
H3792 C3818 0.950 . S
H3793 C3820 0.950 . S
H3794 C3823 0.950 . S
H3795 C3824 0.950 . S
H3796 C3826 0.950 . S
H3797 C3827 0.950 . S
C3798 H3780 0.951 . S
C3798 C3799 1.366 . S
C3798 C3800 1.388 . S
C3799 C3798 1.366 . S
C3799 C3803 1.385 . S
C3800 H3781 0.951 . S
C3800 C3798 1.388 . S
C3800 C3801 1.366 . S
C3801 C3800 1.366 . S
C3801 C3802 1.414 . S
C3801 C3804 1.499 . S
C3802 H3782 0.950 . S
C3802 C3801 1.414 . S
C3802 C3803 1.374 . S
C3803 H3783 0.950 . S
C3803 C3799 1.385 . S
C3803 C3802 1.374 . S
C3804 C3801 1.499 . S
C3804 C3805 1.373 . S
C3804 C3806 1.389 . S
C3805 H3784 0.950 . S
C3805 C3804 1.373 . S
C3805 C3821 1.377 . S
C3806 C3804 1.389 . S
C3806 C3807 1.524 . S
C3806 C3820 1.377 . S
C3807 C3806 1.524 . S
C3807 C3808 1.397 . S
C3807 C3812 1.363 . S
C3808 H3785 0.950 . S
C3808 C3807 1.397 . S
C3808 C3809 1.334 . S
C3809 H3786 0.950 . S
C3809 C3808 1.334 . S
C3809 C3810 1.287 . S
C3810 C3809 1.287 . S
C3810 C3811 1.524 . S
C3810 H3829 0.913 . S
C3811 H3787 0.950 . S
C3811 C3810 1.524 . S
C3811 C3812 1.415 . S
C3812 H3788 0.950 . S
C3812 C3807 1.363 . S
C3812 C3811 1.415 . S
C3813 H3789 0.951 . S
C3813 C3814 1.366 . S
C3813 C3815 1.388 . S
C3814 C3813 1.366 . S
C3814 C3818 1.385 . S
C3815 H3790 0.951 . S
C3815 C3813 1.388 . S
C3815 C3816 1.366 . S
C3816 C3815 1.366 . S
C3816 C3817 1.414 . S
C3816 C3819 1.499 . S
C3817 H3791 0.950 . S
C3817 C3816 1.414 . S
C3817 C3818 1.374 . S
C3818 H3792 0.950 . S
C3818 C3814 1.385 . S
C3818 C3817 1.374 . S
C3819 C3816 1.499 . S
C3819 C3820 1.373 . S
C3819 C3821 1.389 . S
C3820 H3793 0.950 . S
C3820 C3806 1.377 . S
C3820 C3819 1.373 . S
C3821 C3805 1.377 . S
C3821 C3819 1.389 . S
C3821 C3822 1.524 . S
C3822 C3821 1.524 . S
C3822 C3823 1.397 . S
C3822 C3827 1.363 . S
C3823 H3794 0.950 . S
C3823 C3822 1.397 . S
C3823 C3824 1.334 . S
C3824 H3795 0.950 . S
C3824 C3823 1.334 . S
C3824 C3825 1.287 . S
C3825 C3824 1.287 . S
C3825 C3826 1.524 . S
C3825 H3828 0.999 . S
C3826 H3796 0.950 . S
C3826 C3825 1.524 . S
C3826 C3827 1.415 . S
C3827 H3797 0.950 . S
C3827 C3822 1.363 . S
C3827 C3826 1.415 . S
H3828 C3825 0.999 . S
H3829 C3810 0.913 . S
H3830 C3848 0.951 . S
H3831 C3850 0.951 . S
H3832 C3852 0.950 . S
H3833 C3853 0.950 . S
H3834 C3855 0.950 . S
H3835 C3858 0.950 . S
H3836 C3859 0.950 . S
H3837 C3861 0.950 . S
H3838 C3862 0.950 . S
H3839 C3863 0.951 . S
H3840 C3865 0.951 . S
H3841 C3867 0.950 . S
H3842 C3868 0.950 . S
H3843 C3870 0.950 . S
H3844 C3873 0.950 . S
H3845 C3874 0.950 . S
H3846 C3876 0.950 . S
H3847 C3877 0.950 . S
C3848 H3830 0.951 . S
C3848 C3849 1.366 . S
C3848 C3850 1.388 . S
C3849 C3848 1.366 . S
C3849 C3853 1.385 . S
C3850 H3831 0.951 . S
C3850 C3848 1.388 . S
C3850 C3851 1.366 . S
C3851 C3850 1.366 . S
C3851 C3852 1.414 . S
C3851 C3854 1.499 . S
C3852 H3832 0.950 . S
C3852 C3851 1.414 . S
C3852 C3853 1.374 . S
C3853 H3833 0.950 . S
C3853 C3849 1.385 . S
C3853 C3852 1.374 . S
C3854 C3851 1.499 . S
C3854 C3855 1.373 . S
C3854 C3856 1.389 . S
C3855 H3834 0.950 . S
C3855 C3854 1.373 . S
C3855 C3871 1.377 . S
C3856 C3854 1.389 . S
C3856 C3857 1.524 . S
C3856 C3870 1.377 . S
C3857 C3856 1.524 . S
C3857 C3858 1.397 . S
C3857 C3862 1.363 . S
C3858 H3835 0.950 . S
C3858 C3857 1.397 . S
C3858 C3859 1.334 . S
C3859 H3836 0.950 . S
C3859 C3858 1.334 . S
C3859 C3860 1.287 . S
C3860 C3859 1.287 . S
C3860 C3861 1.524 . S
C3860 H3879 0.913 . S
C3861 H3837 0.950 . S
C3861 C3860 1.524 . S
C3861 C3862 1.415 . S
C3862 H3838 0.950 . S
C3862 C3857 1.363 . S
C3862 C3861 1.415 . S
C3863 H3839 0.951 . S
C3863 C3864 1.366 . S
C3863 C3865 1.388 . S
C3864 C3863 1.366 . S
C3864 C3868 1.385 . S
C3865 H3840 0.951 . S
C3865 C3863 1.388 . S
C3865 C3866 1.366 . S
C3866 C3865 1.366 . S
C3866 C3867 1.414 . S
C3866 C3869 1.499 . S
C3867 H3841 0.950 . S
C3867 C3866 1.414 . S
C3867 C3868 1.374 . S
C3868 H3842 0.950 . S
C3868 C3864 1.385 . S
C3868 C3867 1.374 . S
C3869 C3866 1.499 . S
C3869 C3870 1.373 . S
C3869 C3871 1.389 . S
C3870 H3843 0.950 . S
C3870 C3856 1.377 . S
C3870 C3869 1.373 . S
C3871 C3855 1.377 . S
C3871 C3869 1.389 . S
C3871 C3872 1.524 . S
C3872 C3871 1.524 . S
C3872 C3873 1.397 . S
C3872 C3877 1.363 . S
C3873 H3844 0.950 . S
C3873 C3872 1.397 . S
C3873 C3874 1.334 . S
C3874 H3845 0.950 . S
C3874 C3873 1.334 . S
C3874 C3875 1.287 . S
C3875 C3874 1.287 . S
C3875 C3876 1.524 . S
C3875 H3878 0.999 . S
C3876 H3846 0.950 . S
C3876 C3875 1.524 . S
C3876 C3877 1.415 . S
C3877 H3847 0.950 . S
C3877 C3872 1.363 . S
C3877 C3876 1.415 . S
H3878 C3875 0.999 . S
H3879 C3860 0.913 . S
H3880 C3898 0.951 1_545 S
H3881 C3900 0.951 . S
H3882 C3902 0.950 . S
H3883 C3903 0.950 . S
H3884 C3905 0.950 . S
H3885 C3908 0.950 . S
H3886 C3909 0.950 . S
H3887 C3911 0.950 . S
H3888 C3912 0.950 . S
H3889 C3913 0.951 . S
H3890 C3915 0.951 . S
H3891 C3917 0.950 . S
H3892 C3918 0.950 . S
H3893 C3920 0.950 . S
H3894 C3923 0.950 . S
H3895 C3924 0.950 . S
H3896 C3926 0.950 . S
H3897 C3927 0.950 . S
C3898 H3880 0.951 1_565 S
C3898 C3899 1.366 . S
C3898 C3900 1.388 . S
C3899 C3898 1.366 . S
C3899 C3903 1.385 . S
C3900 H3881 0.951 . S
C3900 C3898 1.388 . S
C3900 C3901 1.366 . S
C3901 C3900 1.366 . S
C3901 C3902 1.414 . S
C3901 C3904 1.499 . S
C3902 H3882 0.950 . S
C3902 C3901 1.414 . S
C3902 C3903 1.374 . S
C3903 H3883 0.950 . S
C3903 C3899 1.385 . S
C3903 C3902 1.374 . S
C3904 C3901 1.499 . S
C3904 C3905 1.373 . S
C3904 C3906 1.389 . S
C3905 H3884 0.950 . S
C3905 C3904 1.373 . S
C3905 C3921 1.377 . S
C3906 C3904 1.389 . S
C3906 C3907 1.524 . S
C3906 C3920 1.377 . S
C3907 C3906 1.524 . S
C3907 C3908 1.397 . S
C3907 C3912 1.363 . S
C3908 H3885 0.950 . S
C3908 C3907 1.397 . S
C3908 C3909 1.334 . S
C3909 H3886 0.950 . S
C3909 C3908 1.334 . S
C3909 C3910 1.287 . S
C3910 C3909 1.287 . S
C3910 C3911 1.524 . S
C3910 H3929 0.913 . S
C3911 H3887 0.950 . S
C3911 C3910 1.524 . S
C3911 C3912 1.415 . S
C3912 H3888 0.950 . S
C3912 C3907 1.363 . S
C3912 C3911 1.415 . S
C3913 H3889 0.951 . S
C3913 C3914 1.366 . S
C3913 C3915 1.388 . S
C3914 C3913 1.366 . S
C3914 C3918 1.385 . S
C3915 H3890 0.951 . S
C3915 C3913 1.388 . S
C3915 C3916 1.366 . S
C3916 C3915 1.366 . S
C3916 C3917 1.414 . S
C3916 C3919 1.499 . S
C3917 H3891 0.950 . S
C3917 C3916 1.414 . S
C3917 C3918 1.374 . S
C3918 H3892 0.950 . S
C3918 C3914 1.385 . S
C3918 C3917 1.374 . S
C3919 C3916 1.499 . S
C3919 C3920 1.373 . S
C3919 C3921 1.389 . S
C3920 H3893 0.950 . S
C3920 C3906 1.377 . S
C3920 C3919 1.373 . S
C3921 C3905 1.377 . S
C3921 C3919 1.389 . S
C3921 C3922 1.524 . S
C3922 C3921 1.524 . S
C3922 C3923 1.397 . S
C3922 C3927 1.363 . S
C3923 H3894 0.950 . S
C3923 C3922 1.397 . S
C3923 C3924 1.334 . S
C3924 H3895 0.950 . S
C3924 C3923 1.334 . S
C3924 C3925 1.287 . S
C3925 C3924 1.287 . S
C3925 C3926 1.524 . S
C3925 H3928 0.999 . S
C3926 H3896 0.950 . S
C3926 C3925 1.524 . S
C3926 C3927 1.415 . S
C3927 H3897 0.950 . S
C3927 C3922 1.363 . S
C3927 C3926 1.415 . S
H3928 C3925 0.999 . S
H3929 C3910 0.913 . S
H3930 C3948 0.951 . S
H3931 C3950 0.951 . S
H3932 C3952 0.950 . S
H3933 C3953 0.950 . S
H3934 C3955 0.950 . S
H3935 C3958 0.950 . S
H3936 C3959 0.950 . S
H3937 C3961 0.950 . S
H3938 C3962 0.950 . S
H3939 C3963 0.951 . S
H3940 C3965 0.951 . S
H3941 C3967 0.950 . S
H3942 C3968 0.950 . S
H3943 C3970 0.950 . S
H3944 C3973 0.950 . S
H3945 C3974 0.950 1_545 S
H3946 C3976 0.950 . S
H3947 C3977 0.950 . S
C3948 H3930 0.951 . S
C3948 C3949 1.366 . S
C3948 C3950 1.388 . S
C3949 C3948 1.366 . S
C3949 C3953 1.385 . S
C3950 H3931 0.951 . S
C3950 C3948 1.388 . S
C3950 C3951 1.366 . S
C3951 C3950 1.366 . S
C3951 C3952 1.414 . S
C3951 C3954 1.499 . S
C3952 H3932 0.950 . S
C3952 C3951 1.414 . S
C3952 C3953 1.374 . S
C3953 H3933 0.950 . S
C3953 C3949 1.385 . S
C3953 C3952 1.374 . S
C3954 C3951 1.499 . S
C3954 C3955 1.373 . S
C3954 C3956 1.389 . S
C3955 H3934 0.950 . S
C3955 C3954 1.373 . S
C3955 C3971 1.377 . S
C3956 C3954 1.389 . S
C3956 C3957 1.524 . S
C3956 C3970 1.377 . S
C3957 C3956 1.524 . S
C3957 C3958 1.397 . S
C3957 C3962 1.363 . S
C3958 H3935 0.950 . S
C3958 C3957 1.397 . S
C3958 C3959 1.334 . S
C3959 H3936 0.950 . S
C3959 C3958 1.334 . S
C3959 C3960 1.287 . S
C3960 C3959 1.287 . S
C3960 C3961 1.524 . S
C3960 H3979 0.913 . S
C3961 H3937 0.950 . S
C3961 C3960 1.524 . S
C3961 C3962 1.415 . S
C3962 H3938 0.950 . S
C3962 C3957 1.363 . S
C3962 C3961 1.415 . S
C3963 H3939 0.951 . S
C3963 C3964 1.366 . S
C3963 C3965 1.388 . S
C3964 C3963 1.366 . S
C3964 C3968 1.385 . S
C3965 H3940 0.951 . S
C3965 C3963 1.388 . S
C3965 C3966 1.366 . S
C3966 C3965 1.366 . S
C3966 C3967 1.414 . S
C3966 C3969 1.499 . S
C3967 H3941 0.950 . S
C3967 C3966 1.414 . S
C3967 C3968 1.374 . S
C3968 H3942 0.950 . S
C3968 C3964 1.385 . S
C3968 C3967 1.374 . S
C3969 C3966 1.499 . S
C3969 C3970 1.373 . S
C3969 C3971 1.389 . S
C3970 H3943 0.950 . S
C3970 C3956 1.377 . S
C3970 C3969 1.373 . S
C3971 C3955 1.377 . S
C3971 C3969 1.389 . S
C3971 C3972 1.524 . S
C3972 C3971 1.524 . S
C3972 C3973 1.397 . S
C3972 C3977 1.363 . S
C3973 H3944 0.950 . S
C3973 C3972 1.397 . S
C3973 C3974 1.334 . S
C3974 H3945 0.950 1_565 S
C3974 C3973 1.334 . S
C3974 C3975 1.287 1_565 S
C3975 C3974 1.287 1_545 S
C3975 C3976 1.524 . S
C3975 H3978 0.999 . S
C3976 H3946 0.950 . S
C3976 C3975 1.524 . S
C3976 C3977 1.415 1_545 S
C3977 H3947 0.950 . S
C3977 C3972 1.363 . S
C3977 C3976 1.415 1_565 S
H3978 C3975 0.999 . S
H3979 C3960 0.913 . S
H3980 C3998 0.951 . S
H3981 C4000 0.951 . S
H3982 C4002 0.950 . S
H3983 C4003 0.950 . S
H3984 C4005 0.950 . S
H3985 C4008 0.950 . S
H3986 C4009 0.950 . S
H3987 C4011 0.950 . S
H3988 C4012 0.950 . S
H3989 C4013 0.951 . S
H3990 C4015 0.951 . S
H3991 C4017 0.950 . S
H3992 C4018 0.950 . S
H3993 C4020 0.950 . S
H3994 C4023 0.950 . S
H3995 C4024 0.950 . S
H3996 C4026 0.950 . S
H3997 C4027 0.950 . S
C3998 H3980 0.951 . S
C3998 C3999 1.366 . S
C3998 C4000 1.388 . S
C3999 C3998 1.366 . S
C3999 C4003 1.385 . S
C4000 H3981 0.951 . S
C4000 C3998 1.388 . S
C4000 C4001 1.366 . S
C4001 C4000 1.366 . S
C4001 C4002 1.414 . S
C4001 C4004 1.499 . S
C4002 H3982 0.950 . S
C4002 C4001 1.414 . S
C4002 C4003 1.374 . S
C4003 H3983 0.950 . S
C4003 C3999 1.385 . S
C4003 C4002 1.374 . S
C4004 C4001 1.499 . S
C4004 C4005 1.373 . S
C4004 C4006 1.389 . S
C4005 H3984 0.950 . S
C4005 C4004 1.373 . S
C4005 C4021 1.377 . S
C4006 C4004 1.389 . S
C4006 C4007 1.524 . S
C4006 C4020 1.377 . S
C4007 C4006 1.524 . S
C4007 C4008 1.397 . S
C4007 C4012 1.363 . S
C4008 H3985 0.950 . S
C4008 C4007 1.397 . S
C4008 C4009 1.334 . S
C4009 H3986 0.950 . S
C4009 C4008 1.334 . S
C4009 C4010 1.287 . S
C4010 C4009 1.287 . S
C4010 C4011 1.524 . S
C4010 H4029 0.913 . S
C4011 H3987 0.950 . S
C4011 C4010 1.524 . S
C4011 C4012 1.415 . S
C4012 H3988 0.950 . S
C4012 C4007 1.363 . S
C4012 C4011 1.415 . S
C4013 H3989 0.951 . S
C4013 C4014 1.366 . S
C4013 C4015 1.388 . S
C4014 C4013 1.366 . S
C4014 C4018 1.385 . S
C4015 H3990 0.951 . S
C4015 C4013 1.388 . S
C4015 C4016 1.366 . S
C4016 C4015 1.366 . S
C4016 C4017 1.414 . S
C4016 C4019 1.499 . S
C4017 H3991 0.950 . S
C4017 C4016 1.414 . S
C4017 C4018 1.374 . S
C4018 H3992 0.950 . S
C4018 C4014 1.385 . S
C4018 C4017 1.374 . S
C4019 C4016 1.499 . S
C4019 C4020 1.373 . S
C4019 C4021 1.389 . S
C4020 H3993 0.950 . S
C4020 C4006 1.377 . S
C4020 C4019 1.373 . S
C4021 C4005 1.377 . S
C4021 C4019 1.389 . S
C4021 C4022 1.524 . S
C4022 C4021 1.524 . S
C4022 C4023 1.397 . S
C4022 C4027 1.363 . S
C4023 H3994 0.950 . S
C4023 C4022 1.397 . S
C4023 C4024 1.334 . S
C4024 H3995 0.950 . S
C4024 C4023 1.334 . S
C4024 C4025 1.287 . S
C4025 C4024 1.287 . S
C4025 C4026 1.524 . S
C4025 H4028 0.999 . S
C4026 H3996 0.950 . S
C4026 C4025 1.524 . S
C4026 C4027 1.415 . S
C4027 H3997 0.950 . S
C4027 C4022 1.363 . S
C4027 C4026 1.415 . S
H4028 C4025 0.999 . S
H4029 C4010 0.913 . S
H4030 C4048 0.951 . S
H4031 C4050 0.951 . S
H4032 C4052 0.950 . S
H4033 C4053 0.950 . S
H4034 C4055 0.950 . S
H4035 C4058 0.950 . S
H4036 C4059 0.950 . S
H4037 C4061 0.950 . S
H4038 C4062 0.950 . S
H4039 C4063 0.951 . S
H4040 C4065 0.951 . S
H4041 C4067 0.950 . S
H4042 C4068 0.950 . S
H4043 C4070 0.950 . S
H4044 C4073 0.950 . S
H4045 C4074 0.950 . S
H4046 C4076 0.950 . S
H4047 C4077 0.950 . S
C4048 H4030 0.951 . S
C4048 C4049 1.366 . S
C4048 C4050 1.388 . S
C4049 C4048 1.366 . S
C4049 C4053 1.385 . S
C4050 H4031 0.951 . S
C4050 C4048 1.388 . S
C4050 C4051 1.366 . S
C4051 C4050 1.366 . S
C4051 C4052 1.414 . S
C4051 C4054 1.499 . S
C4052 H4032 0.950 . S
C4052 C4051 1.414 . S
C4052 C4053 1.374 . S
C4053 H4033 0.950 . S
C4053 C4049 1.385 . S
C4053 C4052 1.374 . S
C4054 C4051 1.499 . S
C4054 C4055 1.373 . S
C4054 C4056 1.389 . S
C4055 H4034 0.950 . S
C4055 C4054 1.373 . S
C4055 C4071 1.377 . S
C4056 C4054 1.389 . S
C4056 C4057 1.524 . S
C4056 C4070 1.377 . S
C4057 C4056 1.524 . S
C4057 C4058 1.397 . S
C4057 C4062 1.363 . S
C4058 H4035 0.950 . S
C4058 C4057 1.397 . S
C4058 C4059 1.334 . S
C4059 H4036 0.950 . S
C4059 C4058 1.334 . S
C4059 C4060 1.287 . S
C4060 C4059 1.287 . S
C4060 C4061 1.524 . S
C4060 H4079 0.913 . S
C4061 H4037 0.950 . S
C4061 C4060 1.524 . S
C4061 C4062 1.415 . S
C4062 H4038 0.950 . S
C4062 C4057 1.363 . S
C4062 C4061 1.415 . S
C4063 H4039 0.951 . S
C4063 C4064 1.366 . S
C4063 C4065 1.388 . S
C4064 C4063 1.366 . S
C4064 C4068 1.385 . S
C4065 H4040 0.951 . S
C4065 C4063 1.388 . S
C4065 C4066 1.366 . S
C4066 C4065 1.366 . S
C4066 C4067 1.414 . S
C4066 C4069 1.499 . S
C4067 H4041 0.950 . S
C4067 C4066 1.414 . S
C4067 C4068 1.374 . S
C4068 H4042 0.950 . S
C4068 C4064 1.385 . S
C4068 C4067 1.374 . S
C4069 C4066 1.499 . S
C4069 C4070 1.373 . S
C4069 C4071 1.389 . S
C4070 H4043 0.950 . S
C4070 C4056 1.377 . S
C4070 C4069 1.373 . S
C4071 C4055 1.377 . S
C4071 C4069 1.389 . S
C4071 C4072 1.524 . S
C4072 C4071 1.524 . S
C4072 C4073 1.397 . S
C4072 C4077 1.363 . S
C4073 H4044 0.950 . S
C4073 C4072 1.397 . S
C4073 C4074 1.334 . S
C4074 H4045 0.950 . S
C4074 C4073 1.334 . S
C4074 C4075 1.287 . S
C4075 C4074 1.287 . S
C4075 C4076 1.524 . S
C4075 H4078 0.999 . S
C4076 H4046 0.950 . S
C4076 C4075 1.524 . S
C4076 C4077 1.415 . S
C4077 H4047 0.950 . S
C4077 C4072 1.363 . S
C4077 C4076 1.415 . S
H4078 C4075 0.999 . S
H4079 C4060 0.913 . S
H4080 C4098 0.951 . S
H4081 C4100 0.951 . S
H4082 C4102 0.950 . S
H4083 C4103 0.950 . S
H4084 C4105 0.950 . S
H4085 C4108 0.950 . S
H4086 C4109 0.950 . S
H4087 C4111 0.950 . S
H4088 C4112 0.950 . S
H4089 C4113 0.951 . S
H4090 C4115 0.951 . S
H4091 C4117 0.950 . S
H4092 C4118 0.950 . S
H4093 C4120 0.950 . S
H4094 C4123 0.950 . S
H4095 C4124 0.950 . S
H4096 C4126 0.950 . S
H4097 C4127 0.950 . S
C4098 H4080 0.951 . S
C4098 C4099 1.366 . S
C4098 C4100 1.388 . S
C4099 C4098 1.366 . S
C4099 C4103 1.385 . S
C4100 H4081 0.951 . S
C4100 C4098 1.388 . S
C4100 C4101 1.366 . S
C4101 C4100 1.366 . S
C4101 C4102 1.414 . S
C4101 C4104 1.499 . S
C4102 H4082 0.950 . S
C4102 C4101 1.414 . S
C4102 C4103 1.374 . S
C4103 H4083 0.950 . S
C4103 C4099 1.385 . S
C4103 C4102 1.374 . S
C4104 C4101 1.499 . S
C4104 C4105 1.373 . S
C4104 C4106 1.389 . S
C4105 H4084 0.950 . S
C4105 C4104 1.373 . S
C4105 C4121 1.377 . S
C4106 C4104 1.389 . S
C4106 C4107 1.524 . S
C4106 C4120 1.377 . S
C4107 C4106 1.524 . S
C4107 C4108 1.397 . S
C4107 C4112 1.363 . S
C4108 H4085 0.950 . S
C4108 C4107 1.397 . S
C4108 C4109 1.334 . S
C4109 H4086 0.950 . S
C4109 C4108 1.334 . S
C4109 C4110 1.287 . S
C4110 C4109 1.287 . S
C4110 C4111 1.524 . S
C4110 H4129 0.913 . S
C4111 H4087 0.950 . S
C4111 C4110 1.524 . S
C4111 C4112 1.415 . S
C4112 H4088 0.950 . S
C4112 C4107 1.363 . S
C4112 C4111 1.415 . S
C4113 H4089 0.951 . S
C4113 C4114 1.366 . S
C4113 C4115 1.388 . S
C4114 C4113 1.366 . S
C4114 C4118 1.385 . S
C4115 H4090 0.951 . S
C4115 C4113 1.388 . S
C4115 C4116 1.366 . S
C4116 C4115 1.366 . S
C4116 C4117 1.414 . S
C4116 C4119 1.499 . S
C4117 H4091 0.950 . S
C4117 C4116 1.414 . S
C4117 C4118 1.374 . S
C4118 H4092 0.950 . S
C4118 C4114 1.385 . S
C4118 C4117 1.374 . S
C4119 C4116 1.499 . S
C4119 C4120 1.373 . S
C4119 C4121 1.389 . S
C4120 H4093 0.950 . S
C4120 C4106 1.377 . S
C4120 C4119 1.373 . S
C4121 C4105 1.377 . S
C4121 C4119 1.389 . S
C4121 C4122 1.524 . S
C4122 C4121 1.524 . S
C4122 C4123 1.397 . S
C4122 C4127 1.363 . S
C4123 H4094 0.950 . S
C4123 C4122 1.397 . S
C4123 C4124 1.334 . S
C4124 H4095 0.950 . S
C4124 C4123 1.334 . S
C4124 C4125 1.287 . S
C4125 C4124 1.287 . S
C4125 C4126 1.524 . S
C4125 H4128 0.999 . S
C4126 H4096 0.950 . S
C4126 C4125 1.524 . S
C4126 C4127 1.415 . S
C4127 H4097 0.950 . S
C4127 C4122 1.363 . S
C4127 C4126 1.415 . S
H4128 C4125 0.999 . S
H4129 C4110 0.913 . S
H4130 C4148 0.951 . S
H4131 C4150 0.951 . S
H4132 C4152 0.950 . S
H4133 C4153 0.950 . S
H4134 C4155 0.950 . S
H4135 C4158 0.950 . S
H4136 C4159 0.950 . S
H4137 C4161 0.950 . S
H4138 C4162 0.950 . S
H4139 C4163 0.951 . S
H4140 C4165 0.951 . S
H4141 C4167 0.950 . S
H4142 C4168 0.950 . S
H4143 C4170 0.950 . S
H4144 C4173 0.950 . S
H4145 C4174 0.950 . S
H4146 C4176 0.950 . S
H4147 C4177 0.950 . S
C4148 H4130 0.951 . S
C4148 C4149 1.366 . S
C4148 C4150 1.388 . S
C4149 C4148 1.366 . S
C4149 C4153 1.385 . S
C4150 H4131 0.951 . S
C4150 C4148 1.388 . S
C4150 C4151 1.366 . S
C4151 C4150 1.366 . S
C4151 C4152 1.414 . S
C4151 C4154 1.499 . S
C4152 H4132 0.950 . S
C4152 C4151 1.414 . S
C4152 C4153 1.374 . S
C4153 H4133 0.950 . S
C4153 C4149 1.385 . S
C4153 C4152 1.374 . S
C4154 C4151 1.499 . S
C4154 C4155 1.373 . S
C4154 C4156 1.389 . S
C4155 H4134 0.950 . S
C4155 C4154 1.373 . S
C4155 C4171 1.377 . S
C4156 C4154 1.389 . S
C4156 C4157 1.524 . S
C4156 C4170 1.377 . S
C4157 C4156 1.524 . S
C4157 C4158 1.397 . S
C4157 C4162 1.363 . S
C4158 H4135 0.950 . S
C4158 C4157 1.397 . S
C4158 C4159 1.334 . S
C4159 H4136 0.950 . S
C4159 C4158 1.334 . S
C4159 C4160 1.287 . S
C4160 C4159 1.287 . S
C4160 C4161 1.524 . S
C4160 H4179 0.913 . S
C4161 H4137 0.950 . S
C4161 C4160 1.524 . S
C4161 C4162 1.415 . S
C4162 H4138 0.950 . S
C4162 C4157 1.363 . S
C4162 C4161 1.415 . S
C4163 H4139 0.951 . S
C4163 C4164 1.366 . S
C4163 C4165 1.388 . S
C4164 C4163 1.366 . S
C4164 C4168 1.385 . S
C4165 H4140 0.951 . S
C4165 C4163 1.388 . S
C4165 C4166 1.366 . S
C4166 C4165 1.366 . S
C4166 C4167 1.414 . S
C4166 C4169 1.499 . S
C4167 H4141 0.950 . S
C4167 C4166 1.414 . S
C4167 C4168 1.374 . S
C4168 H4142 0.950 . S
C4168 C4164 1.385 . S
C4168 C4167 1.374 . S
C4169 C4166 1.499 . S
C4169 C4170 1.373 . S
C4169 C4171 1.389 . S
C4170 H4143 0.950 . S
C4170 C4156 1.377 . S
C4170 C4169 1.373 . S
C4171 C4155 1.377 . S
C4171 C4169 1.389 . S
C4171 C4172 1.524 . S
C4172 C4171 1.524 . S
C4172 C4173 1.397 . S
C4172 C4177 1.363 . S
C4173 H4144 0.950 . S
C4173 C4172 1.397 . S
C4173 C4174 1.334 . S
C4174 H4145 0.950 . S
C4174 C4173 1.334 . S
C4174 C4175 1.287 . S
C4175 C4174 1.287 . S
C4175 C4176 1.524 . S
C4175 H4178 0.999 . S
C4176 H4146 0.950 . S
C4176 C4175 1.524 . S
C4176 C4177 1.415 . S
C4177 H4147 0.950 . S
C4177 C4172 1.363 . S
C4177 C4176 1.415 . S
H4178 C4175 0.999 . S
H4179 C4160 0.913 . S
H4180 C4198 0.957 . S
H4181 C4200 0.951 . S
H4182 C4202 0.950 . S
H4183 C4203 0.950 . S
H4184 C4205 0.950 . S
H4185 C4208 0.950 . S
H4186 C4209 0.950 . S
H4187 C4211 0.950 . S
H4188 C4212 0.950 . S
H4189 C4213 0.951 . S
H4190 C4215 0.951 . S
H4191 C4217 0.950 . S
H4192 C4218 0.950 . S
H4193 C4220 0.995 . S
H4194 C4223 0.950 1_554 S
H4195 C4224 0.950 1_554 S
H4196 C4226 0.950 . S
H4197 C4227 0.950 . S
C4198 H4180 0.957 . S
C4198 C4199 1.366 . S
C4198 C4200 1.388 . S
C4199 C4198 1.366 . S
C4199 C4203 1.385 . S
C4200 H4181 0.951 . S
C4200 C4198 1.388 . S
C4200 C4201 1.366 . S
C4201 C4200 1.366 . S
C4201 C4202 1.414 . S
C4201 C4204 1.499 . S
C4202 H4182 0.950 . S
C4202 C4201 1.414 . S
C4202 C4203 1.374 . S
C4203 H4183 0.950 . S
C4203 C4199 1.385 . S
C4203 C4202 1.374 . S
C4204 C4201 1.499 . S
C4204 C4205 1.373 . S
C4204 C4206 1.389 1_455 S
C4205 H4184 0.950 . S
C4205 C4204 1.373 . S
C4205 C4221 1.377 . S
C4206 C4204 1.389 1_655 S
C4206 C4207 1.524 . S
C4206 C4220 1.375 . S
C4207 C4206 1.524 . S
C4207 C4208 1.397 . S
C4207 C4212 1.363 1_556 S
C4208 H4185 0.950 . S
C4208 C4207 1.397 . S
C4208 C4209 1.334 . S
C4209 H4186 0.950 . S
C4209 C4208 1.334 . S
C4209 C4210 1.287 . S
C4210 C4209 1.287 . S
C4210 C4211 1.524 1_556 S
C4210 H4229 0.913 . S
C4211 H4187 0.950 . S
C4211 C4210 1.524 1_554 S
C4211 C4212 1.415 . S
C4212 H4188 0.950 . S
C4212 C4207 1.363 1_554 S
C4212 C4211 1.415 . S
C4213 H4189 0.951 . S
C4213 C4214 1.366 1_556 S
C4213 C4215 1.388 . S
C4214 C4213 1.366 1_554 S
C4214 C4218 1.385 . S
C4215 H4190 0.951 . S
C4215 C4213 1.388 . S
C4215 C4216 1.366 . S
C4216 C4215 1.366 . S
C4216 C4217 1.414 1_556 S
C4216 C4219 1.499 . S
C4217 H4191 0.950 . S
C4217 C4216 1.414 1_554 S
C4217 C4218 1.374 . S
C4218 H4192 0.950 . S
C4218 C4214 1.385 . S
C4218 C4217 1.374 . S
C4219 C4216 1.499 . S
C4219 C4220 1.361 1_455 S
C4219 C4221 1.389 . S
C4220 H4193 0.995 . S
C4220 C4206 1.375 . S
C4220 C4219 1.361 1_655 S
C4221 C4205 1.377 . S
C4221 C4219 1.389 . S
C4221 C4222 1.524 . S
C4222 C4221 1.524 . S
C4222 C4223 1.397 . S
C4222 C4227 1.363 . S
C4223 H4194 0.950 1_556 S
C4223 C4222 1.397 . S
C4223 C4224 1.334 . S
C4224 H4195 0.950 1_556 S
C4224 C4223 1.334 . S
C4224 C4225 1.287 . S
C4225 C4224 1.287 . S
C4225 C4226 1.524 . S
C4225 H4228 0.999 . S
C4226 H4196 0.950 . S
C4226 C4225 1.524 . S
C4226 C4227 1.415 . S
C4227 H4197 0.950 . S
C4227 C4222 1.363 . S
C4227 C4226 1.415 . S
H4228 C4225 0.999 . S
H4229 C4210 0.913 . S
H4230 C4248 0.951 . S
H4231 C4250 0.951 . S
H4232 C4252 0.950 . S
H4233 C4253 0.950 . S
H4234 C4255 0.950 . S
H4235 C4258 0.950 . S
H4236 C4259 0.950 . S
H4237 C4261 0.950 . S
H4238 C4262 0.950 . S
H4239 C4263 0.951 . S
H4240 C4265 0.951 . S
H4241 C4267 0.950 . S
H4242 C4268 0.950 . S
H4243 C4270 0.950 . S
H4244 C4273 0.950 . S
H4245 C4274 0.950 . S
H4246 C4276 0.950 . S
H4247 C4277 0.950 . S
C4248 H4230 0.951 . S
C4248 C4249 1.324 1_655 S
C4248 C4250 1.388 . S
C4249 C4248 1.324 1_455 S
C4249 C4253 1.388 . S
C4250 H4231 0.951 . S
C4250 C4248 1.388 . S
C4250 C4251 1.366 . S
C4251 C4250 1.366 . S
C4251 C4252 1.414 . S
C4251 C4254 1.499 . S
C4252 H4232 0.950 . S
C4252 C4251 1.414 . S
C4252 C4253 1.374 1_655 S
C4253 H4233 0.950 . S
C4253 C4249 1.388 . S
C4253 C4252 1.374 1_455 S
C4254 C4251 1.499 . S
C4254 C4255 1.373 . S
C4254 C4256 1.389 . S
C4255 H4234 0.950 . S
C4255 C4254 1.373 . S
C4255 C4271 1.377 . S
C4256 C4254 1.389 . S
C4256 C4257 1.524 . S
C4256 C4270 1.377 . S
C4257 C4256 1.524 . S
C4257 C4258 1.397 . S
C4257 C4262 1.363 . S
C4258 H4235 0.950 . S
C4258 C4257 1.397 . S
C4258 C4259 1.334 . S
C4259 H4236 0.950 . S
C4259 C4258 1.334 . S
C4259 C4260 1.287 . S
C4260 C4259 1.287 . S
C4260 C4261 1.524 . S
C4260 H4279 0.913 . S
C4261 H4237 0.950 . S
C4261 C4260 1.524 . S
C4261 C4262 1.415 . S
C4262 H4238 0.950 . S
C4262 C4257 1.363 . S
C4262 C4261 1.415 . S
C4263 H4239 0.951 . S
C4263 C4264 1.366 . S
C4263 C4265 1.388 . S
C4264 C4263 1.366 . S
C4264 C4268 1.385 . S
C4265 H4240 0.951 . S
C4265 C4263 1.388 . S
C4265 C4266 1.366 . S
C4266 C4265 1.366 . S
C4266 C4267 1.414 . S
C4266 C4269 1.499 . S
C4267 H4241 0.950 . S
C4267 C4266 1.414 . S
C4267 C4268 1.374 . S
C4268 H4242 0.950 . S
C4268 C4264 1.385 . S
C4268 C4267 1.374 . S
C4269 C4266 1.499 . S
C4269 C4270 1.373 . S
C4269 C4271 1.389 . S
C4270 H4243 0.950 . S
C4270 C4256 1.377 . S
C4270 C4269 1.373 . S
C4271 C4255 1.377 . S
C4271 C4269 1.389 . S
C4271 C4272 1.524 . S
C4272 C4271 1.524 . S
C4272 C4273 1.397 . S
C4272 C4277 1.363 . S
C4273 H4244 0.950 . S
C4273 C4272 1.397 . S
C4273 C4274 1.334 . S
C4274 H4245 0.950 . S
C4274 C4273 1.334 . S
C4274 C4275 1.287 . S
C4275 C4274 1.287 . S
C4275 C4276 1.524 . S
C4275 H4278 0.999 . S
C4276 H4246 0.950 . S
C4276 C4275 1.524 . S
C4276 C4277 1.415 . S
C4277 H4247 0.950 . S
C4277 C4272 1.363 . S
C4277 C4276 1.415 . S
H4278 C4275 0.999 . S
H4279 C4260 0.913 . S
H4280 C4298 0.951 . S
H4281 C4300 0.951 . S
H4282 C4302 0.950 . S
H4283 C4303 0.950 . S
H4284 C4305 0.950 . S
H4285 C4308 0.950 . S
H4286 C4309 0.950 . S
H4287 C4311 0.950 . S
H4288 C4312 0.950 . S
H4289 C4313 0.951 . S
H4290 C4315 0.951 . S
H4291 C4317 0.950 . S
H4292 C4318 0.950 . S
H4293 C4320 0.950 . S
H4294 C4323 0.950 . S
H4295 C4324 0.950 . S
H4296 C4326 0.950 . S
H4297 C4327 0.950 . S
C4298 H4280 0.951 . S
C4298 C4299 1.366 . S
C4298 C4300 1.388 . S
C4299 C4298 1.366 . S
C4299 C4303 1.385 . S
C4300 H4281 0.951 . S
C4300 C4298 1.388 . S
C4300 C4301 1.366 . S
C4301 C4300 1.366 . S
C4301 C4302 1.414 . S
C4301 C4304 1.499 . S
C4302 H4282 0.950 . S
C4302 C4301 1.414 . S
C4302 C4303 1.374 . S
C4303 H4283 0.950 . S
C4303 C4299 1.385 . S
C4303 C4302 1.374 . S
C4304 C4301 1.499 . S
C4304 C4305 1.373 . S
C4304 C4306 1.389 . S
C4305 H4284 0.950 . S
C4305 C4304 1.373 . S
C4305 C4321 1.377 . S
C4306 C4304 1.389 . S
C4306 C4307 1.524 . S
C4306 C4320 1.377 . S
C4307 C4306 1.524 . S
C4307 C4308 1.397 . S
C4307 C4312 1.363 . S
C4308 H4285 0.950 . S
C4308 C4307 1.397 . S
C4308 C4309 1.334 . S
C4309 H4286 0.950 . S
C4309 C4308 1.334 . S
C4309 C4310 1.287 . S
C4310 C4309 1.287 . S
C4310 C4311 1.524 . S
C4310 H4329 0.913 . S
C4311 H4287 0.950 . S
C4311 C4310 1.524 . S
C4311 C4312 1.415 . S
C4312 H4288 0.950 . S
C4312 C4307 1.363 . S
C4312 C4311 1.415 . S
C4313 H4289 0.951 . S
C4313 C4314 1.366 . S
C4313 C4315 1.388 . S
C4314 C4313 1.366 . S
C4314 C4318 1.385 . S
C4315 H4290 0.951 . S
C4315 C4313 1.388 . S
C4315 C4316 1.366 . S
C4316 C4315 1.366 . S
C4316 C4317 1.414 . S
C4316 C4319 1.499 . S
C4317 H4291 0.950 . S
C4317 C4316 1.414 . S
C4317 C4318 1.374 . S
C4318 H4292 0.950 . S
C4318 C4314 1.385 . S
C4318 C4317 1.374 . S
C4319 C4316 1.499 . S
C4319 C4320 1.373 . S
C4319 C4321 1.389 . S
C4320 H4293 0.950 . S
C4320 C4306 1.377 . S
C4320 C4319 1.373 . S
C4321 C4305 1.377 . S
C4321 C4319 1.389 . S
C4321 C4322 1.524 . S
C4322 C4321 1.524 . S
C4322 C4323 1.397 . S
C4322 C4327 1.363 . S
C4323 H4294 0.950 . S
C4323 C4322 1.397 . S
C4323 C4324 1.334 . S
C4324 H4295 0.950 . S
C4324 C4323 1.334 . S
C4324 C4325 1.287 . S
C4325 C4324 1.287 . S
C4325 C4326 1.524 . S
C4325 H4328 0.999 . S
C4326 H4296 0.950 . S
C4326 C4325 1.524 . S
C4326 C4327 1.415 . S
C4327 H4297 0.950 . S
C4327 C4322 1.363 . S
C4327 C4326 1.415 . S
H4328 C4325 0.999 . S
H4329 C4310 0.913 . S
H4330 C4348 0.951 . S
H4331 C4350 0.951 . S
H4332 C4352 0.950 . S
H4333 C4353 0.950 . S
H4334 C4355 0.950 . S
H4335 C4358 0.950 . S
H4336 C4359 0.950 . S
H4337 C4361 0.950 . S
H4338 C4362 0.950 . S
H4339 C4363 0.951 . S
H4340 C4365 0.951 . S
H4341 C4367 0.950 . S
H4342 C4368 0.950 . S
H4343 C4370 0.950 . S
H4344 C4373 0.950 . S
H4345 C4374 0.950 . S
H4346 C4376 0.950 . S
H4347 C4377 0.950 . S
C4348 H4330 0.951 . S
C4348 C4349 1.366 . S
C4348 C4350 1.388 . S
C4349 C4348 1.366 . S
C4349 C4353 1.385 . S
C4350 H4331 0.951 . S
C4350 C4348 1.388 . S
C4350 C4351 1.366 . S
C4351 C4350 1.366 . S
C4351 C4352 1.414 . S
C4351 C4354 1.499 . S
C4352 H4332 0.950 . S
C4352 C4351 1.414 . S
C4352 C4353 1.374 . S
C4353 H4333 0.950 . S
C4353 C4349 1.385 . S
C4353 C4352 1.374 . S
C4354 C4351 1.499 . S
C4354 C4355 1.373 . S
C4354 C4356 1.389 . S
C4355 H4334 0.950 . S
C4355 C4354 1.373 . S
C4355 C4371 1.377 . S
C4356 C4354 1.389 . S
C4356 C4357 1.524 . S
C4356 C4370 1.377 . S
C4357 C4356 1.524 . S
C4357 C4358 1.397 . S
C4357 C4362 1.363 . S
C4358 H4335 0.950 . S
C4358 C4357 1.397 . S
C4358 C4359 1.334 . S
C4359 H4336 0.950 . S
C4359 C4358 1.334 . S
C4359 C4360 1.287 . S
C4360 C4359 1.287 . S
C4360 C4361 1.524 . S
C4360 H4379 0.913 . S
C4361 H4337 0.950 . S
C4361 C4360 1.524 . S
C4361 C4362 1.415 . S
C4362 H4338 0.950 . S
C4362 C4357 1.363 . S
C4362 C4361 1.415 . S
C4363 H4339 0.951 . S
C4363 C4364 1.366 . S
C4363 C4365 1.388 . S
C4364 C4363 1.366 . S
C4364 C4368 1.385 . S
C4365 H4340 0.951 . S
C4365 C4363 1.388 . S
C4365 C4366 1.366 . S
C4366 C4365 1.366 . S
C4366 C4367 1.414 . S
C4366 C4369 1.499 . S
C4367 H4341 0.950 . S
C4367 C4366 1.414 . S
C4367 C4368 1.374 . S
C4368 H4342 0.950 . S
C4368 C4364 1.385 . S
C4368 C4367 1.374 . S
C4369 C4366 1.499 . S
C4369 C4370 1.373 . S
C4369 C4371 1.389 . S
C4370 H4343 0.950 . S
C4370 C4356 1.377 . S
C4370 C4369 1.373 . S
C4371 C4355 1.377 . S
C4371 C4369 1.389 . S
C4371 C4372 1.524 . S
C4372 C4371 1.524 . S
C4372 C4373 1.397 . S
C4372 C4377 1.363 . S
C4373 H4344 0.950 . S
C4373 C4372 1.397 . S
C4373 C4374 1.334 . S
C4374 H4345 0.950 . S
C4374 C4373 1.334 . S
C4374 C4375 1.287 . S
C4375 C4374 1.287 . S
C4375 C4376 1.524 . S
C4375 H4378 0.999 . S
C4376 H4346 0.950 . S
C4376 C4375 1.524 . S
C4376 C4377 1.415 . S
C4377 H4347 0.950 . S
C4377 C4372 1.363 . S
C4377 C4376 1.415 . S
H4378 C4375 0.999 . S
H4379 C4360 0.913 . S
H4380 C4398 0.951 . S
H4381 C4400 0.951 . S
H4382 C4402 0.950 . S
H4383 C4403 0.950 . S
H4384 C4405 0.950 . S
H4385 C4408 0.950 . S
H4386 C4409 0.950 . S
H4387 C4411 0.950 . S
H4388 C4412 0.950 . S
H4389 C4413 0.951 1_655 S
H4390 C4415 0.951 1_655 S
H4391 C4417 0.950 . S
H4392 C4418 0.950 . S
H4393 C4420 0.950 . S
H4394 C4423 0.950 . S
H4395 C4424 0.950 . S
H4396 C4426 0.950 1_655 S
H4397 C4427 0.950 1_655 S
C4398 H4380 0.951 . S
C4398 C4399 1.366 . S
C4398 C4400 1.388 . S
C4399 C4398 1.366 . S
C4399 C4403 1.385 1_455 S
C4400 H4381 0.951 . S
C4400 C4398 1.388 . S
C4400 C4401 1.366 . S
C4401 C4400 1.366 . S
C4401 C4402 1.414 1_455 S
C4401 C4404 1.499 . S
C4402 H4382 0.950 . S
C4402 C4401 1.414 1_655 S
C4402 C4403 1.374 . S
C4403 H4383 0.950 . S
C4403 C4399 1.385 1_655 S
C4403 C4402 1.374 . S
C4404 C4401 1.499 . S
C4404 C4405 1.373 . S
C4404 C4406 1.389 . S
C4405 H4384 0.950 . S
C4405 C4404 1.373 . S
C4405 C4421 1.377 . S
C4406 C4404 1.389 . S
C4406 C4407 1.524 . S
C4406 C4420 1.377 . S
C4407 C4406 1.524 . S
C4407 C4408 1.397 1_455 S
C4407 C4412 1.363 . S
C4408 H4385 0.950 . S
C4408 C4407 1.397 1_655 S
C4408 C4409 1.334 . S
C4409 H4386 0.950 . S
C4409 C4408 1.334 . S
C4409 C4410 1.287 1_655 S
C4410 C4409 1.287 1_455 S
C4410 C4411 1.524 . S
C4410 H4429 0.934 . S
C4411 H4387 0.950 . S
C4411 C4410 1.524 . S
C4411 C4412 1.415 . S
C4412 H4388 0.950 . S
C4412 C4407 1.363 . S
C4412 C4411 1.415 . S
C4413 H4389 0.951 1_455 S
C4413 C4414 1.366 . S
C4413 C4415 1.388 . S
C4414 C4413 1.366 . S
C4414 C4418 1.385 . S
C4415 H4390 0.951 1_455 S
C4415 C4413 1.388 . S
C4415 C4416 1.366 . S
C4416 C4415 1.366 . S
C4416 C4417 1.414 . S
C4416 C4419 1.499 . S
C4417 H4391 0.950 . S
C4417 C4416 1.414 . S
C4417 C4418 1.374 . S
C4418 H4392 0.950 . S
C4418 C4414 1.385 . S
C4418 C4417 1.374 . S
C4419 C4416 1.499 . S
C4419 C4420 1.373 . S
C4419 C4421 1.389 . S
C4420 H4393 0.950 . S
C4420 C4406 1.377 . S
C4420 C4419 1.373 . S
C4421 C4405 1.377 . S
C4421 C4419 1.389 . S
C4421 C4422 1.524 . S
C4422 C4421 1.524 . S
C4422 C4423 1.397 . S
C4422 C4427 1.363 . S
C4423 H4394 0.950 . S
C4423 C4422 1.397 . S
C4423 C4424 1.334 . S
C4424 H4395 0.950 . S
C4424 C4423 1.334 . S
C4424 C4425 1.287 . S
C4425 C4424 1.287 . S
C4425 C4426 1.524 . S
C4425 H4428 0.999 . S
C4426 H4396 0.950 1_455 S
C4426 C4425 1.524 . S
C4426 C4427 1.415 . S
C4427 H4397 0.950 1_455 S
C4427 C4422 1.363 . S
C4427 C4426 1.415 . S
H4428 C4425 0.999 . S
H4429 C4410 0.934 . S
H4430 C4448 0.951 . S
H4431 C4450 0.951 . S
H4432 C4452 0.950 . S
H4433 C4453 0.950 . S
H4434 C4455 0.950 . S
H4435 C4458 0.950 . S
H4436 C4459 0.950 . S
H4437 C4461 0.950 . S
H4438 C4462 0.950 . S
H4439 C4463 0.951 . S
H4440 C4465 0.951 . S
H4441 C4467 0.950 . S
H4442 C4468 0.950 . S
H4443 C4470 0.950 . S
H4444 C4473 0.950 . S
H4445 C4474 0.950 . S
H4446 C4476 0.950 . S
H4447 C4477 0.950 . S
C4448 H4430 0.951 . S
C4448 C4449 1.366 . S
C4448 C4450 1.388 . S
C4449 C4448 1.366 . S
C4449 C4453 1.385 . S
C4450 H4431 0.951 . S
C4450 C4448 1.388 . S
C4450 C4451 1.366 . S
C4451 C4450 1.366 . S
C4451 C4452 1.414 . S
C4451 C4454 1.499 . S
C4452 H4432 0.950 . S
C4452 C4451 1.414 . S
C4452 C4453 1.374 . S
C4453 H4433 0.950 . S
C4453 C4449 1.385 . S
C4453 C4452 1.374 . S
C4454 C4451 1.499 . S
C4454 C4455 1.373 . S
C4454 C4456 1.389 . S
C4455 H4434 0.950 . S
C4455 C4454 1.373 . S
C4455 C4471 1.377 . S
C4456 C4454 1.389 . S
C4456 C4457 1.524 . S
C4456 C4470 1.377 . S
C4457 C4456 1.524 . S
C4457 C4458 1.397 . S
C4457 C4462 1.363 . S
C4458 H4435 0.950 . S
C4458 C4457 1.397 . S
C4458 C4459 1.334 . S
C4459 H4436 0.950 . S
C4459 C4458 1.334 . S
C4459 C4460 1.287 . S
C4460 C4459 1.287 . S
C4460 C4461 1.524 . S
C4460 H4479 0.913 . S
C4461 H4437 0.950 . S
C4461 C4460 1.524 . S
C4461 C4462 1.415 . S
C4462 H4438 0.950 . S
C4462 C4457 1.363 . S
C4462 C4461 1.415 . S
C4463 H4439 0.951 . S
C4463 C4464 1.366 . S
C4463 C4465 1.388 . S
C4464 C4463 1.366 . S
C4464 C4468 1.385 . S
C4465 H4440 0.951 . S
C4465 C4463 1.388 . S
C4465 C4466 1.366 . S
C4466 C4465 1.366 . S
C4466 C4467 1.414 . S
C4466 C4469 1.499 . S
C4467 H4441 0.950 . S
C4467 C4466 1.414 . S
C4467 C4468 1.374 . S
C4468 H4442 0.950 . S
C4468 C4464 1.385 . S
C4468 C4467 1.374 . S
C4469 C4466 1.499 . S
C4469 C4470 1.373 . S
C4469 C4471 1.389 . S
C4470 H4443 0.950 . S
C4470 C4456 1.377 . S
C4470 C4469 1.373 . S
C4471 C4455 1.377 . S
C4471 C4469 1.389 . S
C4471 C4472 1.524 . S
C4472 C4471 1.524 . S
C4472 C4473 1.397 . S
C4472 C4477 1.363 . S
C4473 H4444 0.950 . S
C4473 C4472 1.397 . S
C4473 C4474 1.334 . S
C4474 H4445 0.950 . S
C4474 C4473 1.334 . S
C4474 C4475 1.287 . S
C4475 C4474 1.287 . S
C4475 C4476 1.524 . S
C4475 H4478 0.999 . S
C4476 H4446 0.950 . S
C4476 C4475 1.524 . S
C4476 C4477 1.415 . S
C4477 H4447 0.950 . S
C4477 C4472 1.363 . S
C4477 C4476 1.415 . S
H4478 C4475 0.999 . S
H4479 C4460 0.913 . S
H4480 C4498 0.951 . S
H4481 C4500 0.951 . S
H4482 C4502 0.950 . S
H4483 C4503 0.950 . S
H4484 C4505 0.950 . S
H4485 C4508 0.950 . S
H4486 C4509 0.950 . S
H4487 C4511 0.950 . S
H4488 C4512 0.950 . S
H4489 C4513 0.951 . S
H4490 C4515 0.951 . S
H4491 C4517 0.950 . S
H4492 C4518 0.950 . S
H4493 C4520 0.950 . S
H4494 C4523 0.950 . S
H4495 C4524 0.950 . S
H4496 C4526 0.950 . S
H4497 C4527 0.950 . S
C4498 H4480 0.951 . S
C4498 C4499 1.366 . S
C4498 C4500 1.388 . S
C4499 C4498 1.366 . S
C4499 C4503 1.385 . S
C4500 H4481 0.951 . S
C4500 C4498 1.388 . S
C4500 C4501 1.366 . S
C4501 C4500 1.366 . S
C4501 C4502 1.414 . S
C4501 C4504 1.499 . S
C4502 H4482 0.950 . S
C4502 C4501 1.414 . S
C4502 C4503 1.374 . S
C4503 H4483 0.950 . S
C4503 C4499 1.385 . S
C4503 C4502 1.374 . S
C4504 C4501 1.499 . S
C4504 C4505 1.373 . S
C4504 C4506 1.389 . S
C4505 H4484 0.950 . S
C4505 C4504 1.373 . S
C4505 C4521 1.377 . S
C4506 C4504 1.389 . S
C4506 C4507 1.524 . S
C4506 C4520 1.377 . S
C4507 C4506 1.524 . S
C4507 C4508 1.397 . S
C4507 C4512 1.363 . S
C4508 H4485 0.950 . S
C4508 C4507 1.397 . S
C4508 C4509 1.334 . S
C4509 H4486 0.950 . S
C4509 C4508 1.334 . S
C4509 C4510 1.287 . S
C4510 C4509 1.287 . S
C4510 C4511 1.524 . S
C4510 H4529 0.913 . S
C4511 H4487 0.950 . S
C4511 C4510 1.524 . S
C4511 C4512 1.415 . S
C4512 H4488 0.950 . S
C4512 C4507 1.363 . S
C4512 C4511 1.415 . S
C4513 H4489 0.951 . S
C4513 C4514 1.366 . S
C4513 C4515 1.388 . S
C4514 C4513 1.366 . S
C4514 C4518 1.385 . S
C4515 H4490 0.951 . S
C4515 C4513 1.388 . S
C4515 C4516 1.366 . S
C4516 C4515 1.366 . S
C4516 C4517 1.414 . S
C4516 C4519 1.499 . S
C4517 H4491 0.950 . S
C4517 C4516 1.414 . S
C4517 C4518 1.374 . S
C4518 H4492 0.950 . S
C4518 C4514 1.385 . S
C4518 C4517 1.374 . S
C4519 C4516 1.499 . S
C4519 C4520 1.373 . S
C4519 C4521 1.389 . S
C4520 H4493 0.950 . S
C4520 C4506 1.377 . S
C4520 C4519 1.373 . S
C4521 C4505 1.377 . S
C4521 C4519 1.389 . S
C4521 C4522 1.524 . S
C4522 C4521 1.524 . S
C4522 C4523 1.397 . S
C4522 C4527 1.363 . S
C4523 H4494 0.950 . S
C4523 C4522 1.397 . S
C4523 C4524 1.334 . S
C4524 H4495 0.950 . S
C4524 C4523 1.334 . S
C4524 C4525 1.287 . S
C4525 C4524 1.287 . S
C4525 C4526 1.524 . S
C4525 H4528 0.999 . S
C4526 H4496 0.950 . S
C4526 C4525 1.524 . S
C4526 C4527 1.415 . S
C4527 H4497 0.950 . S
C4527 C4522 1.363 . S
C4527 C4526 1.415 . S
H4528 C4525 0.999 . S
H4529 C4510 0.913 . S
H4530 C4548 0.951 1_554 S
H4531 C4550 0.951 . S
H4532 C4552 0.950 . S
H4533 C4553 0.950 . S
H4534 C4555 0.950 . S
H4535 C4558 0.950 . S
H4536 C4559 0.950 . S
H4537 C4561 0.950 . S
H4538 C4562 0.950 . S
H4539 C4563 0.951 . S
H4540 C4565 0.951 . S
H4541 C4567 0.950 . S
H4542 C4568 0.950 . S
H4543 C4570 0.950 . S
H4544 C4573 0.950 . S
H4545 C4574 0.950 . S
H4546 C4576 0.950 . S
H4547 C4577 0.950 . S
C4548 H4530 0.951 1_556 S
C4548 C4549 1.366 . S
C4548 C4550 1.388 . S
C4549 C4548 1.366 . S
C4549 C4553 1.385 . S
C4550 H4531 0.951 . S
C4550 C4548 1.388 . S
C4550 C4551 1.366 . S
C4551 C4550 1.366 . S
C4551 C4552 1.414 . S
C4551 C4554 1.499 . S
C4552 H4532 0.950 . S
C4552 C4551 1.414 . S
C4552 C4553 1.374 . S
C4553 H4533 0.950 . S
C4553 C4549 1.385 . S
C4553 C4552 1.374 . S
C4554 C4551 1.499 . S
C4554 C4555 1.373 . S
C4554 C4556 1.389 . S
C4555 H4534 0.950 . S
C4555 C4554 1.373 . S
C4555 C4571 1.377 . S
C4556 C4554 1.389 . S
C4556 C4557 1.524 . S
C4556 C4570 1.377 . S
C4557 C4556 1.524 . S
C4557 C4558 1.397 . S
C4557 C4562 1.363 . S
C4558 H4535 0.950 . S
C4558 C4557 1.397 . S
C4558 C4559 1.334 . S
C4559 H4536 0.950 . S
C4559 C4558 1.334 . S
C4559 C4560 1.287 . S
C4560 C4559 1.287 . S
C4560 C4561 1.524 . S
C4560 H4579 0.913 . S
C4561 H4537 0.950 . S
C4561 C4560 1.524 . S
C4561 C4562 1.415 . S
C4562 H4538 0.950 . S
C4562 C4557 1.363 . S
C4562 C4561 1.415 . S
C4563 H4539 0.951 . S
C4563 C4564 1.366 . S
C4563 C4565 1.388 . S
C4564 C4563 1.366 . S
C4564 C4568 1.385 . S
C4565 H4540 0.951 . S
C4565 C4563 1.388 . S
C4565 C4566 1.366 . S
C4566 C4565 1.366 . S
C4566 C4567 1.414 . S
C4566 C4569 1.499 . S
C4567 H4541 0.950 . S
C4567 C4566 1.414 . S
C4567 C4568 1.374 . S
C4568 H4542 0.950 . S
C4568 C4564 1.385 . S
C4568 C4567 1.374 . S
C4569 C4566 1.499 . S
C4569 C4570 1.373 . S
C4569 C4571 1.389 . S
C4570 H4543 0.950 . S
C4570 C4556 1.377 . S
C4570 C4569 1.373 . S
C4571 C4555 1.377 . S
C4571 C4569 1.389 . S
C4571 C4572 1.524 . S
C4572 C4571 1.524 . S
C4572 C4573 1.397 . S
C4572 C4577 1.363 . S
C4573 H4544 0.950 . S
C4573 C4572 1.397 . S
C4573 C4574 1.334 . S
C4574 H4545 0.950 . S
C4574 C4573 1.334 . S
C4574 C4575 1.287 . S
C4575 C4574 1.287 . S
C4575 C4576 1.524 . S
C4575 H4578 0.999 . S
C4576 H4546 0.950 . S
C4576 C4575 1.524 . S
C4576 C4577 1.415 . S
C4577 H4547 0.950 . S
C4577 C4572 1.363 . S
C4577 C4576 1.415 . S
H4578 C4575 0.999 . S
H4579 C4560 0.913 . S
H4580 C4598 0.951 . S
H4581 C4600 0.951 . S
H4582 C4602 0.950 . S
H4583 C4603 0.950 . S
H4584 C4605 0.950 . S
H4585 C4608 0.950 . S
H4586 C4609 0.950 . S
H4587 C4611 0.950 . S
H4588 C4612 0.950 . S
H4589 C4613 0.951 . S
H4590 C4615 0.951 . S
H4591 C4617 0.950 . S
H4592 C4618 0.950 . S
H4593 C4620 0.950 . S
H4594 C4623 0.950 . S
H4595 C4624 0.950 . S
H4596 C4626 0.950 . S
H4597 C4627 0.950 . S
C4598 H4580 0.951 . S
C4598 C4599 1.366 . S
C4598 C4600 1.388 . S
C4599 C4598 1.366 . S
C4599 C4603 1.385 . S
C4600 H4581 0.951 . S
C4600 C4598 1.388 . S
C4600 C4601 1.366 . S
C4601 C4600 1.366 . S
C4601 C4602 1.414 . S
C4601 C4604 1.499 . S
C4602 H4582 0.950 . S
C4602 C4601 1.414 . S
C4602 C4603 1.374 . S
C4603 H4583 0.950 . S
C4603 C4599 1.385 . S
C4603 C4602 1.374 . S
C4604 C4601 1.499 . S
C4604 C4605 1.373 . S
C4604 C4606 1.389 . S
C4605 H4584 0.950 . S
C4605 C4604 1.373 . S
C4605 C4621 1.377 . S
C4606 C4604 1.389 . S
C4606 C4607 1.524 . S
C4606 C4620 1.377 . S
C4607 C4606 1.524 . S
C4607 C4608 1.397 . S
C4607 C4612 1.363 . S
C4608 H4585 0.950 . S
C4608 C4607 1.397 . S
C4608 C4609 1.334 . S
C4609 H4586 0.950 . S
C4609 C4608 1.334 . S
C4609 C4610 1.287 . S
C4610 C4609 1.287 . S
C4610 C4611 1.524 . S
C4610 H4629 0.913 . S
C4611 H4587 0.950 . S
C4611 C4610 1.524 . S
C4611 C4612 1.415 . S
C4612 H4588 0.950 . S
C4612 C4607 1.363 . S
C4612 C4611 1.415 . S
C4613 H4589 0.951 . S
C4613 C4614 1.366 . S
C4613 C4615 1.388 . S
C4614 C4613 1.366 . S
C4614 C4618 1.385 . S
C4615 H4590 0.951 . S
C4615 C4613 1.388 . S
C4615 C4616 1.366 . S
C4616 C4615 1.366 . S
C4616 C4617 1.414 . S
C4616 C4619 1.499 . S
C4617 H4591 0.950 . S
C4617 C4616 1.414 . S
C4617 C4618 1.374 . S
C4618 H4592 0.950 . S
C4618 C4614 1.385 . S
C4618 C4617 1.374 . S
C4619 C4616 1.499 . S
C4619 C4620 1.373 . S
C4619 C4621 1.389 . S
C4620 H4593 0.950 . S
C4620 C4606 1.377 . S
C4620 C4619 1.373 . S
C4621 C4605 1.377 . S
C4621 C4619 1.389 . S
C4621 C4622 1.524 . S
C4622 C4621 1.524 . S
C4622 C4623 1.397 . S
C4622 C4627 1.363 . S
C4623 H4594 0.950 . S
C4623 C4622 1.397 . S
C4623 C4624 1.334 . S
C4624 H4595 0.950 . S
C4624 C4623 1.334 . S
C4624 C4625 1.287 . S
C4625 C4624 1.287 . S
C4625 C4626 1.524 . S
C4625 H4628 0.999 . S
C4626 H4596 0.950 . S
C4626 C4625 1.524 . S
C4626 C4627 1.415 . S
C4627 H4597 0.950 . S
C4627 C4622 1.363 . S
C4627 C4626 1.415 . S
H4628 C4625 0.999 . S
H4629 C4610 0.913 . S
H4630 C4648 0.951 . S
H4631 C4650 0.951 . S
H4632 C4652 0.950 . S
H4633 C4653 0.950 . S
H4634 C4655 0.950 . S
H4635 C4658 0.950 . S
H4636 C4659 0.950 . S
H4637 C4661 0.950 . S
H4638 C4662 0.950 . S
H4639 C4663 0.951 . S
H4640 C4665 0.951 . S
H4641 C4667 0.950 . S
H4642 C4668 0.950 . S
H4643 C4670 0.950 . S
H4644 C4673 0.950 . S
H4645 C4674 0.950 . S
H4646 C4676 0.950 . S
H4647 C4677 0.950 . S
C4648 H4630 0.951 . S
C4648 C4649 1.366 . S
C4648 C4650 1.388 . S
C4649 C4648 1.366 . S
C4649 C4653 1.385 . S
C4650 H4631 0.951 . S
C4650 C4648 1.388 . S
C4650 C4651 1.366 . S
C4651 C4650 1.366 . S
C4651 C4652 1.414 . S
C4651 C4654 1.499 . S
C4652 H4632 0.950 . S
C4652 C4651 1.414 . S
C4652 C4653 1.374 . S
C4653 H4633 0.950 . S
C4653 C4649 1.385 . S
C4653 C4652 1.374 . S
C4654 C4651 1.499 . S
C4654 C4655 1.373 . S
C4654 C4656 1.389 . S
C4655 H4634 0.950 . S
C4655 C4654 1.373 . S
C4655 C4671 1.377 . S
C4656 C4654 1.389 . S
C4656 C4657 1.524 . S
C4656 C4670 1.377 . S
C4657 C4656 1.524 . S
C4657 C4658 1.397 . S
C4657 C4662 1.363 . S
C4658 H4635 0.950 . S
C4658 C4657 1.397 . S
C4658 C4659 1.334 . S
C4659 H4636 0.950 . S
C4659 C4658 1.334 . S
C4659 C4660 1.287 . S
C4660 C4659 1.287 . S
C4660 C4661 1.524 . S
C4660 H4679 0.913 . S
C4661 H4637 0.950 . S
C4661 C4660 1.524 . S
C4661 C4662 1.415 . S
C4662 H4638 0.950 . S
C4662 C4657 1.363 . S
C4662 C4661 1.415 . S
C4663 H4639 0.951 . S
C4663 C4664 1.366 . S
C4663 C4665 1.388 . S
C4664 C4663 1.366 . S
C4664 C4668 1.385 . S
C4665 H4640 0.951 . S
C4665 C4663 1.388 . S
C4665 C4666 1.366 . S
C4666 C4665 1.366 . S
C4666 C4667 1.414 . S
C4666 C4669 1.499 . S
C4667 H4641 0.950 . S
C4667 C4666 1.414 . S
C4667 C4668 1.374 . S
C4668 H4642 0.950 . S
C4668 C4664 1.385 . S
C4668 C4667 1.374 . S
C4669 C4666 1.499 . S
C4669 C4670 1.373 . S
C4669 C4671 1.389 . S
C4670 H4643 0.950 . S
C4670 C4656 1.377 . S
C4670 C4669 1.373 . S
C4671 C4655 1.377 . S
C4671 C4669 1.389 . S
C4671 C4672 1.524 . S
C4672 C4671 1.524 . S
C4672 C4673 1.397 . S
C4672 C4677 1.363 . S
C4673 H4644 0.950 . S
C4673 C4672 1.397 . S
C4673 C4674 1.334 . S
C4674 H4645 0.950 . S
C4674 C4673 1.334 . S
C4674 C4675 1.287 . S
C4675 C4674 1.287 . S
C4675 C4676 1.524 . S
C4675 H4678 0.999 . S
C4676 H4646 0.950 . S
C4676 C4675 1.524 . S
C4676 C4677 1.415 . S
C4677 H4647 0.950 . S
C4677 C4672 1.363 . S
C4677 C4676 1.415 . S
H4678 C4675 0.999 . S
H4679 C4660 0.913 . S
H4680 C4698 0.951 . S
H4681 C4700 0.951 . S
H4682 C4702 0.950 . S
H4683 C4703 0.950 . S
H4684 C4705 0.950 . S
H4685 C4708 0.950 . S
H4686 C4709 0.950 . S
H4687 C4711 0.950 . S
H4688 C4712 0.950 . S
H4689 C4713 0.951 . S
H4690 C4715 0.951 . S
H4691 C4717 0.950 . S
H4692 C4718 0.950 . S
H4693 C4720 0.950 . S
H4694 C4723 0.950 . S
H4695 C4724 0.950 . S
H4696 C4726 0.950 . S
H4697 C4727 0.950 . S
C4698 H4680 0.951 . S
C4698 C4699 1.366 . S
C4698 C4700 1.388 . S
C4699 C4698 1.366 . S
C4699 C4703 1.385 . S
C4700 H4681 0.951 . S
C4700 C4698 1.388 . S
C4700 C4701 1.366 . S
C4701 C4700 1.366 . S
C4701 C4702 1.414 . S
C4701 C4704 1.499 . S
C4702 H4682 0.950 . S
C4702 C4701 1.414 . S
C4702 C4703 1.374 . S
C4703 H4683 0.950 . S
C4703 C4699 1.385 . S
C4703 C4702 1.374 . S
C4704 C4701 1.499 . S
C4704 C4705 1.373 . S
C4704 C4706 1.389 . S
C4705 H4684 0.950 . S
C4705 C4704 1.373 . S
C4705 C4721 1.377 . S
C4706 C4704 1.389 . S
C4706 C4707 1.524 . S
C4706 C4720 1.377 . S
C4707 C4706 1.524 . S
C4707 C4708 1.397 . S
C4707 C4712 1.363 . S
C4708 H4685 0.950 . S
C4708 C4707 1.397 . S
C4708 C4709 1.334 . S
C4709 H4686 0.950 . S
C4709 C4708 1.334 . S
C4709 C4710 1.287 . S
C4710 C4709 1.287 . S
C4710 C4711 1.524 . S
C4710 H4729 0.913 . S
C4711 H4687 0.950 . S
C4711 C4710 1.524 . S
C4711 C4712 1.415 . S
C4712 H4688 0.950 . S
C4712 C4707 1.363 . S
C4712 C4711 1.415 . S
C4713 H4689 0.951 . S
C4713 C4714 1.366 . S
C4713 C4715 1.388 . S
C4714 C4713 1.366 . S
C4714 C4718 1.385 . S
C4715 H4690 0.951 . S
C4715 C4713 1.388 . S
C4715 C4716 1.366 . S
C4716 C4715 1.366 . S
C4716 C4717 1.414 . S
C4716 C4719 1.499 . S
C4717 H4691 0.950 . S
C4717 C4716 1.414 . S
C4717 C4718 1.374 . S
C4718 H4692 0.950 . S
C4718 C4714 1.385 . S
C4718 C4717 1.374 . S
C4719 C4716 1.499 . S
C4719 C4720 1.373 . S
C4719 C4721 1.389 . S
C4720 H4693 0.950 . S
C4720 C4706 1.377 . S
C4720 C4719 1.373 . S
C4721 C4705 1.377 . S
C4721 C4719 1.389 . S
C4721 C4722 1.524 . S
C4722 C4721 1.524 . S
C4722 C4723 1.397 . S
C4722 C4727 1.363 . S
C4723 H4694 0.950 . S
C4723 C4722 1.397 . S
C4723 C4724 1.334 . S
C4724 H4695 0.950 . S
C4724 C4723 1.334 . S
C4724 C4725 1.287 . S
C4725 C4724 1.287 . S
C4725 C4726 1.524 . S
C4725 H4728 0.999 . S
C4726 H4696 0.950 . S
C4726 C4725 1.524 . S
C4726 C4727 1.415 . S
C4727 H4697 0.950 . S
C4727 C4722 1.363 . S
C4727 C4726 1.415 . S
H4728 C4725 0.999 . S
H4729 C4710 0.913 . S
H4730 C4748 0.951 . S
H4731 C4750 0.951 . S
H4732 C4752 0.950 . S
H4733 C4753 0.950 . S
H4734 C4755 0.950 . S
H4735 C4758 0.950 . S
H4736 C4759 0.950 . S
H4737 C4761 0.950 . S
H4738 C4762 0.950 . S
H4739 C4763 0.951 . S
H4740 C4765 0.951 . S
H4741 C4767 0.950 . S
H4742 C4768 0.950 . S
H4743 C4770 0.950 . S
H4744 C4773 0.950 . S
H4745 C4774 0.950 . S
H4746 C4776 0.950 . S
H4747 C4777 0.950 . S
C4748 H4730 0.951 . S
C4748 C4749 1.366 . S
C4748 C4750 1.388 . S
C4749 C4748 1.366 . S
C4749 C4753 1.385 . S
C4750 H4731 0.951 . S
C4750 C4748 1.388 . S
C4750 C4751 1.366 . S
C4751 C4750 1.366 . S
C4751 C4752 1.414 . S
C4751 C4754 1.499 . S
C4752 H4732 0.950 . S
C4752 C4751 1.414 . S
C4752 C4753 1.374 . S
C4753 H4733 0.950 . S
C4753 C4749 1.385 . S
C4753 C4752 1.374 . S
C4754 C4751 1.499 . S
C4754 C4755 1.373 . S
C4754 C4756 1.389 . S
C4755 H4734 0.950 . S
C4755 C4754 1.373 . S
C4755 C4771 1.377 . S
C4756 C4754 1.389 . S
C4756 C4757 1.524 . S
C4756 C4770 1.377 . S
C4757 C4756 1.524 . S
C4757 C4758 1.397 . S
C4757 C4762 1.363 . S
C4758 H4735 0.950 . S
C4758 C4757 1.397 . S
C4758 C4759 1.334 . S
C4759 H4736 0.950 . S
C4759 C4758 1.334 . S
C4759 C4760 1.287 . S
C4760 C4759 1.287 . S
C4760 C4761 1.524 . S
C4760 H4779 0.913 . S
C4761 H4737 0.950 . S
C4761 C4760 1.524 . S
C4761 C4762 1.415 . S
C4762 H4738 0.950 . S
C4762 C4757 1.363 . S
C4762 C4761 1.415 . S
C4763 H4739 0.951 . S
C4763 C4764 1.366 . S
C4763 C4765 1.388 . S
C4764 C4763 1.366 . S
C4764 C4768 1.385 . S
C4765 H4740 0.951 . S
C4765 C4763 1.388 . S
C4765 C4766 1.366 . S
C4766 C4765 1.366 . S
C4766 C4767 1.414 . S
C4766 C4769 1.499 . S
C4767 H4741 0.950 . S
C4767 C4766 1.414 . S
C4767 C4768 1.374 . S
C4768 H4742 0.950 . S
C4768 C4764 1.385 . S
C4768 C4767 1.374 . S
C4769 C4766 1.499 . S
C4769 C4770 1.373 . S
C4769 C4771 1.389 . S
C4770 H4743 0.950 . S
C4770 C4756 1.377 . S
C4770 C4769 1.373 . S
C4771 C4755 1.377 . S
C4771 C4769 1.389 . S
C4771 C4772 1.524 . S
C4772 C4771 1.524 . S
C4772 C4773 1.397 . S
C4772 C4777 1.363 . S
C4773 H4744 0.950 . S
C4773 C4772 1.397 . S
C4773 C4774 1.334 . S
C4774 H4745 0.950 . S
C4774 C4773 1.334 . S
C4774 C4775 1.287 . S
C4775 C4774 1.287 . S
C4775 C4776 1.524 . S
C4775 H4778 0.999 . S
C4776 H4746 0.950 . S
C4776 C4775 1.524 . S
C4776 C4777 1.415 . S
C4777 H4747 0.950 . S
C4777 C4772 1.363 . S
C4777 C4776 1.415 . S
H4778 C4775 0.999 . S
H4779 C4760 0.913 . S
H4780 C4798 0.951 . S
H4781 C4800 0.951 . S
H4782 C4802 0.950 . S
H4783 C4803 0.950 . S
H4784 C4805 0.950 . S
H4785 C4808 0.950 . S
H4786 C4809 0.950 . S
H4787 C4811 0.950 . S
H4788 C4812 0.950 . S
H4789 C4813 0.951 . S
H4790 C4815 0.951 . S
H4791 C4817 0.950 . S
H4792 C4818 0.950 . S
H4793 C4820 0.950 . S
H4794 C4823 0.950 . S
H4795 C4824 0.950 . S
H4796 C4826 0.950 . S
H4797 C4827 0.950 . S
C4798 H4780 0.951 . S
C4798 C4799 1.366 . S
C4798 C4800 1.388 . S
C4799 C4798 1.366 . S
C4799 C4803 1.385 . S
C4800 H4781 0.951 . S
C4800 C4798 1.388 . S
C4800 C4801 1.366 . S
C4801 C4800 1.366 . S
C4801 C4802 1.414 . S
C4801 C4804 1.499 . S
C4802 H4782 0.950 . S
C4802 C4801 1.414 . S
C4802 C4803 1.374 . S
C4803 H4783 0.950 . S
C4803 C4799 1.385 . S
C4803 C4802 1.374 . S
C4804 C4801 1.499 . S
C4804 C4805 1.373 . S
C4804 C4806 1.389 . S
C4805 H4784 0.950 . S
C4805 C4804 1.373 . S
C4805 C4821 1.377 . S
C4806 C4804 1.389 . S
C4806 C4807 1.524 . S
C4806 C4820 1.377 . S
C4807 C4806 1.524 . S
C4807 C4808 1.397 . S
C4807 C4812 1.363 . S
C4808 H4785 0.950 . S
C4808 C4807 1.397 . S
C4808 C4809 1.334 . S
C4809 H4786 0.950 . S
C4809 C4808 1.334 . S
C4809 C4810 1.287 . S
C4810 C4809 1.287 . S
C4810 C4811 1.524 . S
C4810 H4829 0.913 . S
C4811 H4787 0.950 . S
C4811 C4810 1.524 . S
C4811 C4812 1.415 . S
C4812 H4788 0.950 . S
C4812 C4807 1.363 . S
C4812 C4811 1.415 . S
C4813 H4789 0.951 . S
C4813 C4814 1.366 . S
C4813 C4815 1.388 . S
C4814 C4813 1.366 . S
C4814 C4818 1.385 . S
C4815 H4790 0.951 . S
C4815 C4813 1.388 . S
C4815 C4816 1.366 . S
C4816 C4815 1.366 . S
C4816 C4817 1.414 . S
C4816 C4819 1.499 . S
C4817 H4791 0.950 . S
C4817 C4816 1.414 . S
C4817 C4818 1.374 . S
C4818 H4792 0.950 . S
C4818 C4814 1.385 . S
C4818 C4817 1.374 . S
C4819 C4816 1.499 . S
C4819 C4820 1.373 . S
C4819 C4821 1.389 . S
C4820 H4793 0.950 . S
C4820 C4806 1.377 . S
C4820 C4819 1.373 . S
C4821 C4805 1.377 . S
C4821 C4819 1.389 . S
C4821 C4822 1.524 . S
C4822 C4821 1.524 . S
C4822 C4823 1.397 . S
C4822 C4827 1.363 . S
C4823 H4794 0.950 . S
C4823 C4822 1.397 . S
C4823 C4824 1.334 . S
C4824 H4795 0.950 . S
C4824 C4823 1.334 . S
C4824 C4825 1.287 . S
C4825 C4824 1.287 . S
C4825 C4826 1.524 . S
C4825 H4828 0.999 . S
C4826 H4796 0.950 . S
C4826 C4825 1.524 . S
C4826 C4827 1.415 . S
C4827 H4797 0.950 . S
C4827 C4822 1.363 . S
C4827 C4826 1.415 . S
H4828 C4825 0.999 . S
H4829 C4810 0.913 . S
H4830 C4848 0.951 . S
H4831 C4850 0.951 . S
H4832 C4852 0.950 . S
H4833 C4853 0.950 . S
H4834 C4855 0.950 . S
H4835 C4858 0.950 . S
H4836 C4859 0.950 . S
H4837 C4861 0.950 . S
H4838 C4862 0.950 . S
H4839 C4863 0.951 . S
H4840 C4865 0.951 . S
H4841 C4867 0.950 . S
H4842 C4868 0.950 . S
H4843 C4870 0.950 . S
H4844 C4873 0.950 . S
H4845 C4874 0.950 . S
H4846 C4876 0.950 . S
H4847 C4877 0.950 . S
C4848 H4830 0.951 . S
C4848 C4849 1.366 . S
C4848 C4850 1.388 . S
C4849 C4848 1.366 . S
C4849 C4853 1.385 . S
C4850 H4831 0.951 . S
C4850 C4848 1.388 . S
C4850 C4851 1.366 . S
C4851 C4850 1.366 . S
C4851 C4852 1.414 . S
C4851 C4854 1.499 . S
C4852 H4832 0.950 . S
C4852 C4851 1.414 . S
C4852 C4853 1.374 . S
C4853 H4833 0.950 . S
C4853 C4849 1.385 . S
C4853 C4852 1.374 . S
C4854 C4851 1.499 . S
C4854 C4855 1.373 . S
C4854 C4856 1.389 . S
C4855 H4834 0.950 . S
C4855 C4854 1.373 . S
C4855 C4871 1.377 . S
C4856 C4854 1.389 . S
C4856 C4857 1.524 . S
C4856 C4870 1.377 . S
C4857 C4856 1.524 . S
C4857 C4858 1.397 . S
C4857 C4862 1.363 . S
C4858 H4835 0.950 . S
C4858 C4857 1.397 . S
C4858 C4859 1.334 . S
C4859 H4836 0.950 . S
C4859 C4858 1.334 . S
C4859 C4860 1.287 . S
C4860 C4859 1.287 . S
C4860 C4861 1.524 . S
C4860 H4879 0.913 . S
C4861 H4837 0.950 . S
C4861 C4860 1.524 . S
C4861 C4862 1.415 . S
C4862 H4838 0.950 . S
C4862 C4857 1.363 . S
C4862 C4861 1.415 . S
C4863 H4839 0.951 . S
C4863 C4864 1.366 . S
C4863 C4865 1.388 . S
C4864 C4863 1.366 . S
C4864 C4868 1.385 . S
C4865 H4840 0.951 . S
C4865 C4863 1.388 . S
C4865 C4866 1.366 . S
C4866 C4865 1.366 . S
C4866 C4867 1.414 . S
C4866 C4869 1.499 . S
C4867 H4841 0.950 . S
C4867 C4866 1.414 . S
C4867 C4868 1.374 . S
C4868 H4842 0.950 . S
C4868 C4864 1.385 . S
C4868 C4867 1.374 . S
C4869 C4866 1.499 . S
C4869 C4870 1.373 . S
C4869 C4871 1.389 . S
C4870 H4843 0.950 . S
C4870 C4856 1.377 . S
C4870 C4869 1.373 . S
C4871 C4855 1.377 . S
C4871 C4869 1.389 . S
C4871 C4872 1.524 . S
C4872 C4871 1.524 . S
C4872 C4873 1.397 . S
C4872 C4877 1.363 . S
C4873 H4844 0.950 . S
C4873 C4872 1.397 . S
C4873 C4874 1.334 . S
C4874 H4845 0.950 . S
C4874 C4873 1.334 . S
C4874 C4875 1.287 . S
C4875 C4874 1.287 . S
C4875 C4876 1.524 . S
C4875 H4878 0.999 . S
C4876 H4846 0.950 . S
C4876 C4875 1.524 . S
C4876 C4877 1.415 . S
C4877 H4847 0.950 . S
C4877 C4872 1.363 . S
C4877 C4876 1.415 . S
H4878 C4875 0.999 . S
H4879 C4860 0.913 . S
H4880 C4898 0.951 . S
H4881 C4900 0.951 . S
H4882 C4902 0.950 . S
H4883 C4903 0.950 . S
H4884 C4905 0.950 . S
H4885 C4908 0.950 . S
H4886 C4909 0.950 . S
H4887 C4911 0.950 . S
H4888 C4912 0.950 . S
H4889 C4913 0.951 . S
H4890 C4915 0.951 . S
H4891 C4917 0.950 . S
H4892 C4918 0.950 . S
H4893 C4920 0.950 . S
H4894 C4923 0.950 . S
H4895 C4924 0.950 . S
H4896 C4926 0.950 . S
H4897 C4927 0.950 . S
C4898 H4880 0.951 . S
C4898 C4899 1.366 . S
C4898 C4900 1.388 . S
C4899 C4898 1.366 . S
C4899 C4903 1.385 . S
C4900 H4881 0.951 . S
C4900 C4898 1.388 . S
C4900 C4901 1.366 . S
C4901 C4900 1.366 . S
C4901 C4902 1.414 . S
C4901 C4904 1.499 . S
C4902 H4882 0.950 . S
C4902 C4901 1.414 . S
C4902 C4903 1.374 . S
C4903 H4883 0.950 . S
C4903 C4899 1.385 . S
C4903 C4902 1.374 . S
C4904 C4901 1.499 . S
C4904 C4905 1.373 . S
C4904 C4906 1.389 . S
C4905 H4884 0.950 . S
C4905 C4904 1.373 . S
C4905 C4921 1.377 . S
C4906 C4904 1.389 . S
C4906 C4907 1.524 . S
C4906 C4920 1.377 . S
C4907 C4906 1.524 . S
C4907 C4908 1.397 . S
C4907 C4912 1.363 . S
C4908 H4885 0.950 . S
C4908 C4907 1.397 . S
C4908 C4909 1.334 . S
C4909 H4886 0.950 . S
C4909 C4908 1.334 . S
C4909 C4910 1.287 . S
C4910 C4909 1.287 . S
C4910 C4911 1.524 . S
C4910 H4929 0.913 . S
C4911 H4887 0.950 . S
C4911 C4910 1.524 . S
C4911 C4912 1.415 . S
C4912 H4888 0.950 . S
C4912 C4907 1.363 . S
C4912 C4911 1.415 . S
C4913 H4889 0.951 . S
C4913 C4914 1.366 . S
C4913 C4915 1.388 . S
C4914 C4913 1.366 . S
C4914 C4918 1.385 . S
C4915 H4890 0.951 . S
C4915 C4913 1.388 . S
C4915 C4916 1.366 . S
C4916 C4915 1.366 . S
C4916 C4917 1.414 . S
C4916 C4919 1.499 . S
C4917 H4891 0.950 . S
C4917 C4916 1.414 . S
C4917 C4918 1.374 . S
C4918 H4892 0.950 . S
C4918 C4914 1.385 . S
C4918 C4917 1.374 . S
C4919 C4916 1.499 . S
C4919 C4920 1.373 . S
C4919 C4921 1.389 . S
C4920 H4893 0.950 . S
C4920 C4906 1.377 . S
C4920 C4919 1.373 . S
C4921 C4905 1.377 . S
C4921 C4919 1.389 . S
C4921 C4922 1.524 . S
C4922 C4921 1.524 . S
C4922 C4923 1.397 . S
C4922 C4927 1.363 . S
C4923 H4894 0.950 . S
C4923 C4922 1.397 . S
C4923 C4924 1.334 . S
C4924 H4895 0.950 . S
C4924 C4923 1.334 . S
C4924 C4925 1.287 . S
C4925 C4924 1.287 . S
C4925 C4926 1.524 . S
C4925 H4928 0.999 . S
C4926 H4896 0.950 . S
C4926 C4925 1.524 . S
C4926 C4927 1.415 . S
C4927 H4897 0.950 . S
C4927 C4922 1.363 . S
C4927 C4926 1.415 . S
H4928 C4925 0.999 . S
H4929 C4910 0.913 . S
H4930 C4948 0.951 . S
H4931 C4950 0.951 . S
H4932 C4952 0.950 . S
H4933 C4953 0.950 . S
H4934 C4955 0.950 . S
H4935 C4958 0.950 . S
H4936 C4959 0.950 . S
H4937 C4961 0.950 . S
H4938 C4962 0.950 . S
H4939 C4963 0.951 . S
H4940 C4965 0.951 . S
H4941 C4967 0.950 . S
H4942 C4968 0.950 . S
H4943 C4970 0.950 . S
H4944 C4973 0.950 . S
H4945 C4974 0.950 . S
H4946 C4976 0.950 . S
H4947 C4977 0.950 . S
C4948 H4930 0.951 . S
C4948 C4949 1.366 . S
C4948 C4950 1.388 . S
C4949 C4948 1.366 . S
C4949 C4953 1.385 . S
C4950 H4931 0.951 . S
C4950 C4948 1.388 . S
C4950 C4951 1.366 . S
C4951 C4950 1.366 . S
C4951 C4952 1.414 . S
C4951 C4954 1.499 . S
C4952 H4932 0.950 . S
C4952 C4951 1.414 . S
C4952 C4953 1.374 . S
C4953 H4933 0.950 . S
C4953 C4949 1.385 . S
C4953 C4952 1.374 . S
C4954 C4951 1.499 . S
C4954 C4955 1.373 . S
C4954 C4956 1.389 . S
C4955 H4934 0.950 . S
C4955 C4954 1.373 . S
C4955 C4971 1.377 . S
C4956 C4954 1.389 . S
C4956 C4957 1.524 . S
C4956 C4970 1.377 . S
C4957 C4956 1.524 . S
C4957 C4958 1.397 . S
C4957 C4962 1.363 . S
C4958 H4935 0.950 . S
C4958 C4957 1.397 . S
C4958 C4959 1.334 . S
C4959 H4936 0.950 . S
C4959 C4958 1.334 . S
C4959 C4960 1.287 . S
C4960 C4959 1.287 . S
C4960 C4961 1.524 . S
C4960 H4979 0.913 . S
C4961 H4937 0.950 . S
C4961 C4960 1.524 . S
C4961 C4962 1.415 . S
C4962 H4938 0.950 . S
C4962 C4957 1.363 . S
C4962 C4961 1.415 . S
C4963 H4939 0.951 . S
C4963 C4964 1.366 . S
C4963 C4965 1.388 . S
C4964 C4963 1.366 . S
C4964 C4968 1.385 . S
C4965 H4940 0.951 . S
C4965 C4963 1.388 . S
C4965 C4966 1.366 . S
C4966 C4965 1.366 . S
C4966 C4967 1.414 . S
C4966 C4969 1.499 . S
C4967 H4941 0.950 . S
C4967 C4966 1.414 . S
C4967 C4968 1.374 . S
C4968 H4942 0.950 . S
C4968 C4964 1.385 . S
C4968 C4967 1.374 . S
C4969 C4966 1.499 . S
C4969 C4970 1.373 . S
C4969 C4971 1.389 . S
C4970 H4943 0.950 . S
C4970 C4956 1.377 . S
C4970 C4969 1.373 . S
C4971 C4955 1.377 . S
C4971 C4969 1.389 . S
C4971 C4972 1.524 . S
C4972 C4971 1.524 . S
C4972 C4973 1.397 . S
C4972 C4977 1.363 . S
C4973 H4944 0.950 . S
C4973 C4972 1.397 . S
C4973 C4974 1.334 . S
C4974 H4945 0.950 . S
C4974 C4973 1.334 . S
C4974 C4975 1.287 . S
C4975 C4974 1.287 . S
C4975 C4976 1.524 . S
C4975 H4978 0.999 . S
C4976 H4946 0.950 . S
C4976 C4975 1.524 . S
C4976 C4977 1.415 . S
C4977 H4947 0.950 . S
C4977 C4972 1.363 . S
C4977 C4976 1.415 . S
H4978 C4975 0.999 . S
H4979 C4960 0.913 . S
H4980 C4998 0.951 . S
H4981 C5000 0.951 . S
H4982 C5002 0.950 . S
H4983 C5003 0.952 1_545 S
H4984 C5005 0.950 . S
H4985 C5008 0.950 . S
H4986 C5009 0.950 . S
H4987 C5011 0.950 . S
H4988 C5012 0.950 . S
H4989 C5013 0.951 . S
H4990 C5015 0.951 . S
H4991 C5017 0.950 . S
H4992 C5018 0.950 . S
H4993 C5020 0.950 . S
H4994 C5023 0.950 . S
H4995 C5024 0.950 . S
H4996 C5026 0.950 . S
H4997 C5027 0.950 . S
C4998 H4980 0.951 . S
C4998 C4999 1.366 . S
C4998 C5000 1.388 . S
C4999 C4998 1.366 . S
C4999 C5003 1.385 . S
C5000 H4981 0.951 . S
C5000 C4998 1.388 . S
C5000 C5001 1.366 . S
C5001 C5000 1.366 . S
C5001 C5002 1.414 . S
C5001 C5004 1.499 . S
C5002 H4982 0.950 . S
C5002 C5001 1.414 . S
C5002 C5003 1.374 . S
C5003 H4983 0.952 1_565 S
C5003 C4999 1.385 . S
C5003 C5002 1.374 . S
C5004 C5001 1.499 . S
C5004 C5005 1.373 . S
C5004 C5006 1.389 . S
C5005 H4984 0.950 . S
C5005 C5004 1.373 . S
C5005 C5021 1.377 . S
C5006 C5004 1.389 . S
C5006 C5007 1.524 . S
C5006 C5020 1.377 . S
C5007 C5006 1.524 . S
C5007 C5008 1.397 . S
C5007 C5012 1.363 . S
C5008 H4985 0.950 . S
C5008 C5007 1.397 . S
C5008 C5009 1.334 . S
C5009 H4986 0.950 . S
C5009 C5008 1.334 . S
C5009 C5010 1.287 . S
C5010 C5009 1.287 . S
C5010 C5011 1.524 . S
C5010 H5029 0.913 . S
C5011 H4987 0.950 . S
C5011 C5010 1.524 . S
C5011 C5012 1.415 . S
C5012 H4988 0.950 . S
C5012 C5007 1.363 . S
C5012 C5011 1.415 . S
C5013 H4989 0.951 . S
C5013 C5014 1.366 . S
C5013 C5015 1.388 . S
C5014 C5013 1.366 . S
C5014 C5018 1.385 . S
C5015 H4990 0.951 . S
C5015 C5013 1.388 . S
C5015 C5016 1.366 . S
C5016 C5015 1.366 . S
C5016 C5017 1.414 . S
C5016 C5019 1.499 . S
C5017 H4991 0.950 . S
C5017 C5016 1.414 . S
C5017 C5018 1.374 . S
C5018 H4992 0.950 . S
C5018 C5014 1.385 . S
C5018 C5017 1.374 . S
C5019 C5016 1.499 . S
C5019 C5020 1.373 . S
C5019 C5021 1.389 . S
C5020 H4993 0.950 . S
C5020 C5006 1.377 . S
C5020 C5019 1.373 . S
C5021 C5005 1.377 . S
C5021 C5019 1.389 . S
C5021 C5022 1.524 . S
C5022 C5021 1.524 . S
C5022 C5023 1.397 . S
C5022 C5027 1.363 . S
C5023 H4994 0.950 . S
C5023 C5022 1.397 . S
C5023 C5024 1.334 . S
C5024 H4995 0.950 . S
C5024 C5023 1.334 . S
C5024 C5025 1.287 . S
C5025 C5024 1.287 . S
C5025 C5026 1.524 . S
C5025 H5028 0.999 . S
C5026 H4996 0.950 . S
C5026 C5025 1.524 . S
C5026 C5027 1.415 . S
C5027 H4997 0.950 . S
C5027 C5022 1.363 . S
C5027 C5026 1.415 . S
H5028 C5025 0.999 . S
H5029 C5010 0.913 . S
H5030 C5048 0.951 . S
H5031 C5050 0.951 . S
H5032 C5052 0.968 . S
H5033 C5053 0.950 . S
H5034 C5055 0.950 . S
H5035 C5058 0.950 . S
H5036 C5059 0.950 . S
H5037 C5061 0.950 . S
H5038 C5062 0.950 . S
H5039 C5063 0.951 . S
H5040 C5065 0.951 . S
H5041 C5067 0.950 . S
H5042 C5068 0.950 . S
H5043 C5070 0.950 . S
H5044 C5073 0.950 . S
H5045 C5074 0.950 . S
H5046 C5076 0.950 . S
H5047 C5077 0.950 1_545 S
C5048 H5030 0.951 . S
C5048 C5049 1.366 . S
C5048 C5050 1.388 . S
C5049 C5048 1.366 . S
C5049 C5053 1.385 1_554 S
C5050 H5031 0.951 . S
C5050 C5048 1.388 . S
C5050 C5051 1.366 . S
C5051 C5050 1.366 . S
C5051 C5052 1.400 1_554 S
C5051 C5054 1.499 . S
C5052 H5032 0.968 . S
C5052 C5051 1.400 1_556 S
C5052 C5053 1.372 . S
C5053 H5033 0.950 . S
C5053 C5049 1.385 1_556 S
C5053 C5052 1.372 . S
C5054 C5051 1.499 . S
C5054 C5055 1.373 1_554 S
C5054 C5056 1.389 . S
C5055 H5034 0.950 . S
C5055 C5054 1.373 1_556 S
C5055 C5071 1.377 . S
C5056 C5054 1.389 . S
C5056 C5057 1.524 . S
C5056 C5070 1.377 . S
C5057 C5056 1.524 . S
C5057 C5058 1.397 . S
C5057 C5062 1.363 . S
C5058 H5035 0.950 . S
C5058 C5057 1.397 . S
C5058 C5059 1.334 . S
C5059 H5036 0.950 . S
C5059 C5058 1.334 . S
C5059 C5060 1.287 . S
C5060 C5059 1.287 . S
C5060 C5061 1.524 . S
C5060 H5079 0.913 . S
C5061 H5037 0.950 . S
C5061 C5060 1.524 . S
C5061 C5062 1.415 . S
C5062 H5038 0.950 . S
C5062 C5057 1.363 . S
C5062 C5061 1.415 . S
C5063 H5039 0.951 . S
C5063 C5064 1.366 . S
C5063 C5065 1.388 . S
C5064 C5063 1.366 . S
C5064 C5068 1.385 1_545 S
C5065 H5040 0.951 . S
C5065 C5063 1.388 . S
C5065 C5066 1.366 1_545 S
C5066 C5065 1.366 1_565 S
C5066 C5067 1.414 . S
C5066 C5069 1.499 . S
C5067 H5041 0.950 . S
C5067 C5066 1.414 . S
C5067 C5068 1.374 . S
C5068 H5042 0.950 . S
C5068 C5064 1.385 1_565 S
C5068 C5067 1.374 . S
C5069 C5066 1.499 . S
C5069 C5070 1.373 . S
C5069 C5071 1.389 1_554 S
C5070 H5043 0.950 . S
C5070 C5056 1.377 . S
C5070 C5069 1.373 . S
C5071 C5055 1.377 . S
C5071 C5069 1.389 1_556 S
C5071 C5072 1.524 . S
C5072 C5071 1.524 . S
C5072 C5073 1.397 . S
C5072 C5077 1.363 . S
C5073 H5044 0.950 . S
C5073 C5072 1.397 . S
C5073 C5074 1.334 . S
C5074 H5045 0.950 . S
C5074 C5073 1.334 . S
C5074 C5075 1.287 . S
C5075 C5074 1.287 . S
C5075 C5076 1.524 1_565 S
C5075 H5078 0.999 . S
C5076 H5046 0.950 . S
C5076 C5075 1.524 1_545 S
C5076 C5077 1.415 1_545 S
C5077 H5047 0.950 1_565 S
C5077 C5072 1.363 . S
C5077 C5076 1.415 1_565 S
H5078 C5075 0.999 . S
H5079 C5060 0.913 . S
H5080 C5098 0.951 . S
H5081 C5100 0.951 . S
H5082 C5102 0.950 . S
H5083 C5103 0.950 . S
H5084 C5105 0.950 . S
H5085 C5108 0.950 . S
H5086 C5109 0.950 . S
H5087 C5111 0.950 . S
H5088 C5112 0.950 . S
H5089 C5113 0.951 . S
H5090 C5115 0.951 . S
H5091 C5117 0.950 . S
H5092 C5118 0.950 . S
H5093 C5120 0.950 . S
H5094 C5123 0.950 . S
H5095 C5124 0.950 . S
H5096 C5126 0.950 . S
H5097 C5127 0.950 . S
C5098 H5080 0.951 . S
C5098 C5099 1.366 . S
C5098 C5100 1.388 . S
C5099 C5098 1.366 . S
C5099 C5103 1.385 . S
C5100 H5081 0.951 . S
C5100 C5098 1.388 . S
C5100 C5101 1.366 . S
C5101 C5100 1.366 . S
C5101 C5102 1.414 . S
C5101 C5104 1.499 . S
C5102 H5082 0.950 . S
C5102 C5101 1.414 . S
C5102 C5103 1.374 . S
C5103 H5083 0.950 . S
C5103 C5099 1.385 . S
C5103 C5102 1.374 . S
C5104 C5101 1.499 . S
C5104 C5105 1.373 . S
C5104 C5106 1.389 . S
C5105 H5084 0.950 . S
C5105 C5104 1.373 . S
C5105 C5121 1.377 . S
C5106 C5104 1.389 . S
C5106 C5107 1.524 . S
C5106 C5120 1.377 . S
C5107 C5106 1.524 . S
C5107 C5108 1.397 . S
C5107 C5112 1.363 . S
C5108 H5085 0.950 . S
C5108 C5107 1.397 . S
C5108 C5109 1.334 . S
C5109 H5086 0.950 . S
C5109 C5108 1.334 . S
C5109 C5110 1.287 . S
C5110 C5109 1.287 . S
C5110 C5111 1.524 . S
C5110 H5129 0.913 . S
C5111 H5087 0.950 . S
C5111 C5110 1.524 . S
C5111 C5112 1.415 . S
C5112 H5088 0.950 . S
C5112 C5107 1.363 . S
C5112 C5111 1.415 . S
C5113 H5089 0.951 . S
C5113 C5114 1.366 . S
C5113 C5115 1.388 . S
C5114 C5113 1.366 . S
C5114 C5118 1.385 . S
C5115 H5090 0.951 . S
C5115 C5113 1.388 . S
C5115 C5116 1.366 . S
C5116 C5115 1.366 . S
C5116 C5117 1.414 . S
C5116 C5119 1.499 . S
C5117 H5091 0.950 . S
C5117 C5116 1.414 . S
C5117 C5118 1.374 . S
C5118 H5092 0.950 . S
C5118 C5114 1.385 . S
C5118 C5117 1.374 . S
C5119 C5116 1.499 . S
C5119 C5120 1.373 . S
C5119 C5121 1.389 . S
C5120 H5093 0.950 . S
C5120 C5106 1.377 . S
C5120 C5119 1.373 . S
C5121 C5105 1.377 . S
C5121 C5119 1.389 . S
C5121 C5122 1.524 . S
C5122 C5121 1.524 . S
C5122 C5123 1.397 . S
C5122 C5127 1.363 . S
C5123 H5094 0.950 . S
C5123 C5122 1.397 . S
C5123 C5124 1.334 . S
C5124 H5095 0.950 . S
C5124 C5123 1.334 . S
C5124 C5125 1.287 . S
C5125 C5124 1.287 . S
C5125 C5126 1.524 . S
C5125 H5128 0.999 . S
C5126 H5096 0.950 . S
C5126 C5125 1.524 . S
C5126 C5127 1.415 . S
C5127 H5097 0.950 . S
C5127 C5122 1.363 . S
C5127 C5126 1.415 . S
H5128 C5125 0.999 . S
H5129 C5110 0.913 . S
H5130 C5148 0.951 . S
H5131 C5150 0.951 . S
H5132 C5152 0.950 . S
H5133 C5153 0.950 . S
H5134 C5155 0.950 . S
H5135 C5158 0.893 1_554 S
H5136 C5159 0.950 . S
H5137 C5161 0.950 . S
H5138 C5162 0.950 . S
H5139 C5163 0.951 . S
H5140 C5165 0.951 . S
H5141 C5167 0.950 1_556 S
H5142 C5168 0.949 1_556 S
H5143 C5170 0.950 1_556 S
H5144 C5173 0.950 . S
H5145 C5174 0.950 . S
H5146 C5176 0.950 . S
H5147 C5177 0.950 . S
C5148 H5130 0.951 . S
C5148 C5149 1.366 1_556 S
C5148 C5150 1.388 . S
C5149 C5148 1.366 1_554 S
C5149 C5153 1.385 . S
C5150 H5131 0.951 . S
C5150 C5148 1.388 . S
C5150 C5151 1.366 1_556 S
C5151 C5150 1.366 1_554 S
C5151 C5152 1.414 . S
C5151 C5154 1.499 . S
C5152 H5132 0.950 . S
C5152 C5151 1.414 . S
C5152 C5153 1.374 . S
C5153 H5133 0.950 . S
C5153 C5149 1.385 . S
C5153 C5152 1.374 . S
C5154 C5151 1.499 . S
C5154 C5155 1.373 . S
C5154 C5156 1.389 . S
C5155 H5134 0.950 . S
C5155 C5154 1.373 . S
C5155 C5171 1.377 . S
C5156 C5154 1.389 . S
C5156 C5157 1.524 1_554 S
C5156 C5170 1.377 . S
C5157 C5156 1.524 1_556 S
C5157 C5158 1.397 . S
C5157 C5162 1.363 . S
C5158 H5135 0.893 1_556 S
C5158 C5157 1.397 . S
C5158 C5159 1.334 . S
C5159 H5136 0.950 . S
C5159 C5158 1.334 . S
C5159 C5160 1.287 . S
C5160 C5159 1.287 . S
C5160 C5161 1.524 . S
C5160 H5179 0.913 . S
C5161 H5137 0.950 . S
C5161 C5160 1.524 . S
C5161 C5162 1.415 . S
C5162 H5138 0.950 . S
C5162 C5157 1.363 . S
C5162 C5161 1.415 . S
C5163 H5139 0.951 . S
C5163 C5164 1.366 . S
C5163 C5165 1.388 . S
C5164 C5163 1.366 . S
C5164 C5168 1.385 . S
C5165 H5140 0.951 . S
C5165 C5163 1.388 . S
C5165 C5166 1.366 . S
C5166 C5165 1.366 . S
C5166 C5167 1.414 . S
C5166 C5169 1.499 . S
C5167 H5141 0.950 1_554 S
C5167 C5166 1.414 . S
C5167 C5168 1.374 . S
C5168 H5142 0.949 1_554 S
C5168 C5164 1.385 . S
C5168 C5167 1.374 . S
C5169 C5166 1.499 . S
C5169 C5170 1.373 . S
C5169 C5171 1.389 . S
C5170 H5143 0.950 1_554 S
C5170 C5156 1.377 . S
C5170 C5169 1.373 . S
C5171 C5155 1.377 . S
C5171 C5169 1.389 . S
C5171 C5172 1.524 . S
C5172 C5171 1.524 . S
C5172 C5173 1.397 . S
C5172 C5177 1.363 . S
C5173 H5144 0.950 . S
C5173 C5172 1.397 . S
C5173 C5174 1.334 . S
C5174 H5145 0.950 . S
C5174 C5173 1.334 . S
C5174 C5175 1.287 . S
C5175 C5174 1.287 . S
C5175 C5176 1.524 . S
C5175 H5178 0.999 . S
C5176 H5146 0.950 . S
C5176 C5175 1.524 . S
C5176 C5177 1.415 . S
C5177 H5147 0.950 . S
C5177 C5172 1.363 . S
C5177 C5176 1.415 . S
H5178 C5175 0.999 . S
H5179 C5160 0.913 . S
H5180 C5198 0.951 . S
H5181 C5200 0.951 . S
H5182 C5202 0.950 . S
H5183 C5203 0.950 . S
H5184 C5205 0.950 . S
H5185 C5208 0.950 . S
H5186 C5209 0.950 . S
H5187 C5211 0.950 . S
H5188 C5212 0.950 . S
H5189 C5213 0.951 . S
H5190 C5215 0.951 . S
H5191 C5217 0.950 . S
H5192 C5218 0.950 . S
H5193 C5220 0.950 . S
H5194 C5223 0.950 . S
H5195 C5224 0.950 . S
H5196 C5226 0.950 . S
H5197 C5227 0.950 . S
C5198 H5180 0.951 . S
C5198 C5199 1.366 . S
C5198 C5200 1.388 . S
C5199 C5198 1.366 . S
C5199 C5203 1.385 . S
C5200 H5181 0.951 . S
C5200 C5198 1.388 . S
C5200 C5201 1.366 . S
C5201 C5200 1.366 . S
C5201 C5202 1.414 . S
C5201 C5204 1.499 . S
C5202 H5182 0.950 . S
C5202 C5201 1.414 . S
C5202 C5203 1.374 . S
C5203 H5183 0.950 . S
C5203 C5199 1.385 . S
C5203 C5202 1.374 . S
C5204 C5201 1.499 . S
C5204 C5205 1.373 . S
C5204 C5206 1.389 . S
C5205 H5184 0.950 . S
C5205 C5204 1.373 . S
C5205 C5221 1.377 . S
C5206 C5204 1.389 . S
C5206 C5207 1.524 . S
C5206 C5220 1.377 . S
C5207 C5206 1.524 . S
C5207 C5208 1.397 . S
C5207 C5212 1.363 . S
C5208 H5185 0.950 . S
C5208 C5207 1.397 . S
C5208 C5209 1.334 . S
C5209 H5186 0.950 . S
C5209 C5208 1.334 . S
C5209 C5210 1.287 . S
C5210 C5209 1.287 . S
C5210 C5211 1.524 . S
C5210 H5229 0.913 . S
C5211 H5187 0.950 . S
C5211 C5210 1.524 . S
C5211 C5212 1.415 . S
C5212 H5188 0.950 . S
C5212 C5207 1.363 . S
C5212 C5211 1.415 . S
C5213 H5189 0.951 . S
C5213 C5214 1.366 . S
C5213 C5215 1.388 . S
C5214 C5213 1.366 . S
C5214 C5218 1.385 . S
C5215 H5190 0.951 . S
C5215 C5213 1.388 . S
C5215 C5216 1.366 . S
C5216 C5215 1.366 . S
C5216 C5217 1.414 . S
C5216 C5219 1.499 . S
C5217 H5191 0.950 . S
C5217 C5216 1.414 . S
C5217 C5218 1.374 . S
C5218 H5192 0.950 . S
C5218 C5214 1.385 . S
C5218 C5217 1.374 . S
C5219 C5216 1.499 . S
C5219 C5220 1.373 . S
C5219 C5221 1.389 . S
C5220 H5193 0.950 . S
C5220 C5206 1.377 . S
C5220 C5219 1.373 . S
C5221 C5205 1.377 . S
C5221 C5219 1.389 . S
C5221 C5222 1.524 . S
C5222 C5221 1.524 . S
C5222 C5223 1.397 . S
C5222 C5227 1.363 . S
C5223 H5194 0.950 . S
C5223 C5222 1.397 . S
C5223 C5224 1.334 . S
C5224 H5195 0.950 . S
C5224 C5223 1.334 . S
C5224 C5225 1.287 . S
C5225 C5224 1.287 . S
C5225 C5226 1.524 . S
C5225 H5228 0.999 . S
C5226 H5196 0.950 . S
C5226 C5225 1.524 . S
C5226 C5227 1.415 . S
C5227 H5197 0.950 . S
C5227 C5222 1.363 . S
C5227 C5226 1.415 . S
H5228 C5225 0.999 . S
H5229 C5210 0.913 . S
H5230 C5248 0.951 . S
H5231 C5250 0.951 . S
H5232 C5252 0.950 . S
H5233 C5253 0.950 . S
H5234 C5255 0.950 . S
H5235 C5258 0.950 . S
H5236 C5259 0.950 . S
H5237 C5261 0.950 . S
H5238 C5262 0.950 . S
H5239 C5263 0.951 . S
H5240 C5265 0.951 . S
H5241 C5267 0.950 . S
H5242 C5268 0.950 . S
H5243 C5270 0.950 . S
H5244 C5273 0.950 . S
H5245 C5274 0.950 . S
H5246 C5276 0.950 . S
H5247 C5277 0.950 . S
C5248 H5230 0.951 . S
C5248 C5249 1.366 . S
C5248 C5250 1.388 . S
C5249 C5248 1.366 . S
C5249 C5253 1.385 . S
C5250 H5231 0.951 . S
C5250 C5248 1.388 . S
C5250 C5251 1.366 . S
C5251 C5250 1.366 . S
C5251 C5252 1.414 . S
C5251 C5254 1.499 . S
C5252 H5232 0.950 . S
C5252 C5251 1.414 . S
C5252 C5253 1.374 . S
C5253 H5233 0.950 . S
C5253 C5249 1.385 . S
C5253 C5252 1.374 . S
C5254 C5251 1.499 . S
C5254 C5255 1.373 . S
C5254 C5256 1.389 . S
C5255 H5234 0.950 . S
C5255 C5254 1.373 . S
C5255 C5271 1.377 . S
C5256 C5254 1.389 . S
C5256 C5257 1.524 . S
C5256 C5270 1.377 . S
C5257 C5256 1.524 . S
C5257 C5258 1.397 . S
C5257 C5262 1.363 . S
C5258 H5235 0.950 . S
C5258 C5257 1.397 . S
C5258 C5259 1.334 . S
C5259 H5236 0.950 . S
C5259 C5258 1.334 . S
C5259 C5260 1.287 . S
C5260 C5259 1.287 . S
C5260 C5261 1.524 . S
C5260 H5279 0.913 . S
C5261 H5237 0.950 . S
C5261 C5260 1.524 . S
C5261 C5262 1.415 . S
C5262 H5238 0.950 . S
C5262 C5257 1.363 . S
C5262 C5261 1.415 . S
C5263 H5239 0.951 . S
C5263 C5264 1.366 . S
C5263 C5265 1.388 . S
C5264 C5263 1.366 . S
C5264 C5268 1.385 . S
C5265 H5240 0.951 . S
C5265 C5263 1.388 . S
C5265 C5266 1.366 . S
C5266 C5265 1.366 . S
C5266 C5267 1.414 . S
C5266 C5269 1.499 . S
C5267 H5241 0.950 . S
C5267 C5266 1.414 . S
C5267 C5268 1.374 . S
C5268 H5242 0.950 . S
C5268 C5264 1.385 . S
C5268 C5267 1.374 . S
C5269 C5266 1.499 . S
C5269 C5270 1.373 . S
C5269 C5271 1.389 . S
C5270 H5243 0.950 . S
C5270 C5256 1.377 . S
C5270 C5269 1.373 . S
C5271 C5255 1.377 . S
C5271 C5269 1.389 . S
C5271 C5272 1.524 . S
C5272 C5271 1.524 . S
C5272 C5273 1.397 . S
C5272 C5277 1.363 . S
C5273 H5244 0.950 . S
C5273 C5272 1.397 . S
C5273 C5274 1.334 . S
C5274 H5245 0.950 . S
C5274 C5273 1.334 . S
C5274 C5275 1.287 . S
C5275 C5274 1.287 . S
C5275 C5276 1.524 . S
C5275 H5278 0.999 . S
C5276 H5246 0.950 . S
C5276 C5275 1.524 . S
C5276 C5277 1.415 . S
C5277 H5247 0.950 . S
C5277 C5272 1.363 . S
C5277 C5276 1.415 . S
H5278 C5275 0.999 . S
H5279 C5260 0.913 . S
H5280 C5298 0.951 . S
H5281 C5300 0.951 . S
H5282 C5302 0.950 . S
H5283 C5303 0.950 . S
H5284 C5305 0.950 . S
H5285 C5308 0.950 . S
H5286 C5309 0.950 . S
H5287 C5311 0.950 . S
H5288 C5312 0.950 . S
H5289 C5313 0.951 . S
H5290 C5315 0.951 . S
H5291 C5317 0.950 . S
H5292 C5318 0.950 . S
H5293 C5320 0.950 . S
H5294 C5323 0.950 . S
H5295 C5324 0.950 . S
H5296 C5326 0.950 . S
H5297 C5327 0.950 . S
C5298 H5280 0.951 . S
C5298 C5299 1.366 . S
C5298 C5300 1.388 . S
C5299 C5298 1.366 . S
C5299 C5303 1.385 . S
C5300 H5281 0.951 . S
C5300 C5298 1.388 . S
C5300 C5301 1.366 . S
C5301 C5300 1.366 . S
C5301 C5302 1.414 . S
C5301 C5304 1.499 . S
C5302 H5282 0.950 . S
C5302 C5301 1.414 . S
C5302 C5303 1.374 . S
C5303 H5283 0.950 . S
C5303 C5299 1.385 . S
C5303 C5302 1.374 . S
C5304 C5301 1.499 . S
C5304 C5305 1.373 . S
C5304 C5306 1.389 . S
C5305 H5284 0.950 . S
C5305 C5304 1.373 . S
C5305 C5321 1.377 . S
C5306 C5304 1.389 . S
C5306 C5307 1.524 . S
C5306 C5320 1.377 . S
C5307 C5306 1.524 . S
C5307 C5308 1.397 . S
C5307 C5312 1.363 . S
C5308 H5285 0.950 . S
C5308 C5307 1.397 . S
C5308 C5309 1.334 . S
C5309 H5286 0.950 . S
C5309 C5308 1.334 . S
C5309 C5310 1.287 . S
C5310 C5309 1.287 . S
C5310 C5311 1.524 . S
C5310 H5329 0.913 . S
C5311 H5287 0.950 . S
C5311 C5310 1.524 . S
C5311 C5312 1.415 . S
C5312 H5288 0.950 . S
C5312 C5307 1.363 . S
C5312 C5311 1.415 . S
C5313 H5289 0.951 . S
C5313 C5314 1.366 . S
C5313 C5315 1.388 . S
C5314 C5313 1.366 . S
C5314 C5318 1.385 . S
C5315 H5290 0.951 . S
C5315 C5313 1.388 . S
C5315 C5316 1.366 . S
C5316 C5315 1.366 . S
C5316 C5317 1.414 . S
C5316 C5319 1.499 . S
C5317 H5291 0.950 . S
C5317 C5316 1.414 . S
C5317 C5318 1.374 . S
C5318 H5292 0.950 . S
C5318 C5314 1.385 . S
C5318 C5317 1.374 . S
C5319 C5316 1.499 . S
C5319 C5320 1.373 . S
C5319 C5321 1.389 . S
C5320 H5293 0.950 . S
C5320 C5306 1.377 . S
C5320 C5319 1.373 . S
C5321 C5305 1.377 . S
C5321 C5319 1.389 . S
C5321 C5322 1.524 . S
C5322 C5321 1.524 . S
C5322 C5323 1.397 . S
C5322 C5327 1.363 . S
C5323 H5294 0.950 . S
C5323 C5322 1.397 . S
C5323 C5324 1.334 . S
C5324 H5295 0.950 . S
C5324 C5323 1.334 . S
C5324 C5325 1.287 . S
C5325 C5324 1.287 . S
C5325 C5326 1.524 . S
C5325 H5328 0.999 . S
C5326 H5296 0.950 . S
C5326 C5325 1.524 . S
C5326 C5327 1.415 . S
C5327 H5297 0.950 . S
C5327 C5322 1.363 . S
C5327 C5326 1.415 . S
H5328 C5325 0.999 . S
H5329 C5310 0.913 . S
H5330 C5348 0.951 . S
H5331 C5350 0.951 . S
H5332 C5352 0.950 . S
H5333 C5353 0.950 . S
H5334 C5355 0.950 . S
H5335 C5358 0.950 . S
H5336 C5359 0.950 . S
H5337 C5361 0.950 . S
H5338 C5362 0.950 . S
H5339 C5363 0.951 . S
H5340 C5365 0.951 . S
H5341 C5367 0.950 . S
H5342 C5368 0.950 . S
H5343 C5370 0.950 . S
H5344 C5373 0.950 . S
H5345 C5374 0.950 . S
H5346 C5376 0.950 . S
H5347 C5377 0.950 . S
C5348 H5330 0.951 . S
C5348 C5349 1.366 . S
C5348 C5350 1.388 . S
C5349 C5348 1.366 . S
C5349 C5353 1.385 . S
C5350 H5331 0.951 . S
C5350 C5348 1.388 . S
C5350 C5351 1.366 . S
C5351 C5350 1.366 . S
C5351 C5352 1.414 . S
C5351 C5354 1.499 . S
C5352 H5332 0.950 . S
C5352 C5351 1.414 . S
C5352 C5353 1.374 . S
C5353 H5333 0.950 . S
C5353 C5349 1.385 . S
C5353 C5352 1.374 . S
C5354 C5351 1.499 . S
C5354 C5355 1.373 . S
C5354 C5356 1.389 . S
C5355 H5334 0.950 . S
C5355 C5354 1.373 . S
C5355 C5371 1.377 . S
C5356 C5354 1.389 . S
C5356 C5357 1.524 . S
C5356 C5370 1.377 . S
C5357 C5356 1.524 . S
C5357 C5358 1.397 . S
C5357 C5362 1.363 . S
C5358 H5335 0.950 . S
C5358 C5357 1.397 . S
C5358 C5359 1.334 . S
C5359 H5336 0.950 . S
C5359 C5358 1.334 . S
C5359 C5360 1.287 . S
C5360 C5359 1.287 . S
C5360 C5361 1.524 . S
C5360 H5379 0.913 . S
C5361 H5337 0.950 . S
C5361 C5360 1.524 . S
C5361 C5362 1.415 . S
C5362 H5338 0.950 . S
C5362 C5357 1.363 . S
C5362 C5361 1.415 . S
C5363 H5339 0.951 . S
C5363 C5364 1.366 . S
C5363 C5365 1.388 . S
C5364 C5363 1.366 . S
C5364 C5368 1.385 . S
C5365 H5340 0.951 . S
C5365 C5363 1.388 . S
C5365 C5366 1.366 . S
C5366 C5365 1.366 . S
C5366 C5367 1.414 . S
C5366 C5369 1.499 . S
C5367 H5341 0.950 . S
C5367 C5366 1.414 . S
C5367 C5368 1.374 . S
C5368 H5342 0.950 . S
C5368 C5364 1.385 . S
C5368 C5367 1.374 . S
C5369 C5366 1.499 . S
C5369 C5370 1.373 . S
C5369 C5371 1.389 . S
C5370 H5343 0.950 . S
C5370 C5356 1.377 . S
C5370 C5369 1.373 . S
C5371 C5355 1.377 . S
C5371 C5369 1.389 . S
C5371 C5372 1.524 . S
C5372 C5371 1.524 . S
C5372 C5373 1.397 . S
C5372 C5377 1.363 . S
C5373 H5344 0.950 . S
C5373 C5372 1.397 . S
C5373 C5374 1.334 . S
C5374 H5345 0.950 . S
C5374 C5373 1.334 . S
C5374 C5375 1.287 . S
C5375 C5374 1.287 . S
C5375 C5376 1.524 . S
C5375 H5378 0.999 . S
C5376 H5346 0.950 . S
C5376 C5375 1.524 . S
C5376 C5377 1.415 . S
C5377 H5347 0.950 . S
C5377 C5372 1.363 . S
C5377 C5376 1.415 . S
H5378 C5375 0.999 . S
H5379 C5360 0.913 . S
H5380 C5398 0.951 . S
H5381 C5400 0.951 . S
H5382 C5402 0.950 . S
H5383 C5403 0.950 . S
H5384 C5405 0.950 . S
H5385 C5408 0.950 . S
H5386 C5409 0.950 . S
H5387 C5411 0.950 . S
H5388 C5412 0.950 . S
H5389 C5413 0.951 . S
H5390 C5415 0.951 . S
H5391 C5417 0.950 . S
H5392 C5418 0.950 . S
H5393 C5420 0.950 . S
H5394 C5423 0.950 . S
H5395 C5424 0.950 1_455 S
H5396 C5426 0.950 . S
H5397 C5427 0.950 . S
C5398 H5380 0.951 . S
C5398 C5399 1.366 . S
C5398 C5400 1.388 . S
C5399 C5398 1.366 . S
C5399 C5403 1.385 . S
C5400 H5381 0.951 . S
C5400 C5398 1.388 . S
C5400 C5401 1.366 . S
C5401 C5400 1.366 . S
C5401 C5402 1.414 . S
C5401 C5404 1.499 . S
C5402 H5382 0.950 . S
C5402 C5401 1.414 . S
C5402 C5403 1.374 . S
C5403 H5383 0.950 . S
C5403 C5399 1.385 . S
C5403 C5402 1.374 . S
C5404 C5401 1.499 . S
C5404 C5405 1.373 . S
C5404 C5406 1.389 . S
C5405 H5384 0.950 . S
C5405 C5404 1.373 . S
C5405 C5421 1.377 . S
C5406 C5404 1.389 . S
C5406 C5407 1.524 . S
C5406 C5420 1.377 . S
C5407 C5406 1.524 . S
C5407 C5408 1.397 . S
C5407 C5412 1.363 . S
C5408 H5385 0.950 . S
C5408 C5407 1.397 . S
C5408 C5409 1.334 . S
C5409 H5386 0.950 . S
C5409 C5408 1.334 . S
C5409 C5410 1.287 . S
C5410 C5409 1.287 . S
C5410 C5411 1.524 . S
C5410 H5429 0.913 . S
C5411 H5387 0.950 . S
C5411 C5410 1.524 . S
C5411 C5412 1.415 . S
C5412 H5388 0.950 . S
C5412 C5407 1.363 . S
C5412 C5411 1.415 . S
C5413 H5389 0.951 . S
C5413 C5414 1.366 . S
C5413 C5415 1.388 . S
C5414 C5413 1.366 . S
C5414 C5418 1.385 . S
C5415 H5390 0.951 . S
C5415 C5413 1.388 . S
C5415 C5416 1.366 . S
C5416 C5415 1.366 . S
C5416 C5417 1.414 . S
C5416 C5419 1.499 . S
C5417 H5391 0.950 . S
C5417 C5416 1.414 . S
C5417 C5418 1.374 . S
C5418 H5392 0.950 . S
C5418 C5414 1.385 . S
C5418 C5417 1.374 . S
C5419 C5416 1.499 . S
C5419 C5420 1.373 . S
C5419 C5421 1.389 . S
C5420 H5393 0.950 . S
C5420 C5406 1.377 . S
C5420 C5419 1.373 . S
C5421 C5405 1.377 . S
C5421 C5419 1.389 . S
C5421 C5422 1.524 . S
C5422 C5421 1.524 . S
C5422 C5423 1.397 . S
C5422 C5427 1.363 1_455 S
C5423 H5394 0.950 . S
C5423 C5422 1.397 . S
C5423 C5424 1.334 1_455 S
C5424 H5395 0.950 1_655 S
C5424 C5423 1.334 1_655 S
C5424 C5425 1.287 . S
C5425 C5424 1.287 . S
C5425 C5426 1.524 . S
C5425 H5428 0.999 . S
C5426 H5396 0.950 . S
C5426 C5425 1.524 . S
C5426 C5427 1.415 . S
C5427 H5397 0.950 . S
C5427 C5422 1.363 1_655 S
C5427 C5426 1.415 . S
H5428 C5425 0.999 . S
H5429 C5410 0.913 . S
H5430 C5448 0.951 . S
H5431 C5450 0.951 . S
H5432 C5452 0.950 . S
H5433 C5453 0.950 . S
H5434 C5455 0.950 . S
H5435 C5458 0.950 . S
H5436 C5459 0.950 . S
H5437 C5461 0.950 . S
H5438 C5462 0.950 . S
H5439 C5463 0.951 . S
H5440 C5465 0.951 . S
H5441 C5467 0.950 . S
H5442 C5468 0.950 . S
H5443 C5470 0.950 . S
H5444 C5473 0.950 . S
H5445 C5474 0.950 . S
H5446 C5476 0.950 . S
H5447 C5477 0.950 . S
C5448 H5430 0.951 . S
C5448 C5449 1.366 . S
C5448 C5450 1.388 . S
C5449 C5448 1.366 . S
C5449 C5453 1.385 . S
C5450 H5431 0.951 . S
C5450 C5448 1.388 . S
C5450 C5451 1.366 . S
C5451 C5450 1.366 . S
C5451 C5452 1.414 . S
C5451 C5454 1.499 . S
C5452 H5432 0.950 . S
C5452 C5451 1.414 . S
C5452 C5453 1.374 . S
C5453 H5433 0.950 . S
C5453 C5449 1.385 . S
C5453 C5452 1.374 . S
C5454 C5451 1.499 . S
C5454 C5455 1.373 . S
C5454 C5456 1.389 . S
C5455 H5434 0.950 . S
C5455 C5454 1.373 . S
C5455 C5471 1.377 . S
C5456 C5454 1.389 . S
C5456 C5457 1.524 . S
C5456 C5470 1.377 . S
C5457 C5456 1.524 . S
C5457 C5458 1.397 . S
C5457 C5462 1.363 . S
C5458 H5435 0.950 . S
C5458 C5457 1.397 . S
C5458 C5459 1.334 . S
C5459 H5436 0.950 . S
C5459 C5458 1.334 . S
C5459 C5460 1.287 . S
C5460 C5459 1.287 . S
C5460 C5461 1.524 . S
C5460 H5479 0.913 . S
C5461 H5437 0.950 . S
C5461 C5460 1.524 . S
C5461 C5462 1.415 . S
C5462 H5438 0.950 . S
C5462 C5457 1.363 . S
C5462 C5461 1.415 . S
C5463 H5439 0.951 . S
C5463 C5464 1.366 . S
C5463 C5465 1.388 . S
C5464 C5463 1.366 . S
C5464 C5468 1.385 . S
C5465 H5440 0.951 . S
C5465 C5463 1.388 . S
C5465 C5466 1.366 . S
C5466 C5465 1.366 . S
C5466 C5467 1.414 . S
C5466 C5469 1.499 . S
C5467 H5441 0.950 . S
C5467 C5466 1.414 . S
C5467 C5468 1.374 . S
C5468 H5442 0.950 . S
C5468 C5464 1.385 . S
C5468 C5467 1.374 . S
C5469 C5466 1.499 . S
C5469 C5470 1.373 . S
C5469 C5471 1.389 . S
C5470 H5443 0.950 . S
C5470 C5456 1.377 . S
C5470 C5469 1.373 . S
C5471 C5455 1.377 . S
C5471 C5469 1.389 . S
C5471 C5472 1.524 . S
C5472 C5471 1.524 . S
C5472 C5473 1.397 . S
C5472 C5477 1.363 . S
C5473 H5444 0.950 . S
C5473 C5472 1.397 . S
C5473 C5474 1.334 . S
C5474 H5445 0.950 . S
C5474 C5473 1.334 . S
C5474 C5475 1.287 . S
C5475 C5474 1.287 . S
C5475 C5476 1.524 . S
C5475 H5478 0.999 . S
C5476 H5446 0.950 . S
C5476 C5475 1.524 . S
C5476 C5477 1.415 . S
C5477 H5447 0.950 . S
C5477 C5472 1.363 . S
C5477 C5476 1.415 . S
H5478 C5475 0.999 . S
H5479 C5460 0.913 . S
H5480 C5498 0.951 . S
H5481 C5500 0.951 . S
H5482 C5502 0.950 . S
H5483 C5503 0.950 . S
H5484 C5505 0.950 . S
H5485 C5508 0.950 . S
H5486 C5509 0.950 . S
H5487 C5511 0.950 . S
H5488 C5512 0.950 . S
H5489 C5513 0.951 . S
H5490 C5515 0.951 . S
H5491 C5517 0.950 . S
H5492 C5518 0.950 . S
H5493 C5520 0.950 . S
H5494 C5523 0.950 . S
H5495 C5524 0.950 . S
H5496 C5526 0.950 . S
H5497 C5527 0.950 . S
C5498 H5480 0.951 . S
C5498 C5499 1.366 . S
C5498 C5500 1.388 . S
C5499 C5498 1.366 . S
C5499 C5503 1.385 . S
C5500 H5481 0.951 . S
C5500 C5498 1.388 . S
C5500 C5501 1.366 . S
C5501 C5500 1.366 . S
C5501 C5502 1.414 . S
C5501 C5504 1.499 . S
C5502 H5482 0.950 . S
C5502 C5501 1.414 . S
C5502 C5503 1.374 . S
C5503 H5483 0.950 . S
C5503 C5499 1.385 . S
C5503 C5502 1.374 . S
C5504 C5501 1.499 . S
C5504 C5505 1.373 . S
C5504 C5506 1.389 . S
C5505 H5484 0.950 . S
C5505 C5504 1.373 . S
C5505 C5521 1.377 . S
C5506 C5504 1.389 . S
C5506 C5507 1.524 . S
C5506 C5520 1.377 . S
C5507 C5506 1.524 . S
C5507 C5508 1.397 . S
C5507 C5512 1.363 . S
C5508 H5485 0.950 . S
C5508 C5507 1.397 . S
C5508 C5509 1.334 . S
C5509 H5486 0.950 . S
C5509 C5508 1.334 . S
C5509 C5510 1.287 . S
C5510 C5509 1.287 . S
C5510 C5511 1.524 . S
C5510 H5529 0.913 . S
C5511 H5487 0.950 . S
C5511 C5510 1.524 . S
C5511 C5512 1.415 . S
C5512 H5488 0.950 . S
C5512 C5507 1.363 . S
C5512 C5511 1.415 . S
C5513 H5489 0.951 . S
C5513 C5514 1.366 . S
C5513 C5515 1.388 . S
C5514 C5513 1.366 . S
C5514 C5518 1.385 . S
C5515 H5490 0.951 . S
C5515 C5513 1.388 . S
C5515 C5516 1.366 . S
C5516 C5515 1.366 . S
C5516 C5517 1.414 . S
C5516 C5519 1.499 . S
C5517 H5491 0.950 . S
C5517 C5516 1.414 . S
C5517 C5518 1.374 . S
C5518 H5492 0.950 . S
C5518 C5514 1.385 . S
C5518 C5517 1.374 . S
C5519 C5516 1.499 . S
C5519 C5520 1.373 . S
C5519 C5521 1.389 . S
C5520 H5493 0.950 . S
C5520 C5506 1.377 . S
C5520 C5519 1.373 . S
C5521 C5505 1.377 . S
C5521 C5519 1.389 . S
C5521 C5522 1.524 . S
C5522 C5521 1.524 . S
C5522 C5523 1.397 . S
C5522 C5527 1.363 . S
C5523 H5494 0.950 . S
C5523 C5522 1.397 . S
C5523 C5524 1.334 . S
C5524 H5495 0.950 . S
C5524 C5523 1.334 . S
C5524 C5525 1.287 . S
C5525 C5524 1.287 . S
C5525 C5526 1.524 . S
C5525 H5528 0.999 . S
C5526 H5496 0.950 . S
C5526 C5525 1.524 . S
C5526 C5527 1.415 . S
C5527 H5497 0.950 . S
C5527 C5522 1.363 . S
C5527 C5526 1.415 . S
H5528 C5525 0.999 . S
H5529 C5510 0.913 . S
H5530 C5548 0.951 . S
H5531 C5550 0.951 . S
H5532 C5552 0.950 . S
H5533 C5553 0.950 . S
H5534 C5555 0.950 . S
H5535 C5558 0.950 . S
H5536 C5559 0.950 . S
H5537 C5561 0.950 . S
H5538 C5562 0.950 . S
H5539 C5563 0.951 . S
H5540 C5565 0.951 . S
H5541 C5567 0.950 . S
H5542 C5568 0.950 . S
H5543 C5570 0.950 . S
H5544 C5573 0.950 . S
H5545 C5574 0.950 . S
H5546 C5576 0.950 . S
H5547 C5577 0.950 . S
C5548 H5530 0.951 . S
C5548 C5549 1.366 . S
C5548 C5550 1.388 . S
C5549 C5548 1.366 . S
C5549 C5553 1.385 . S
C5550 H5531 0.951 . S
C5550 C5548 1.388 . S
C5550 C5551 1.366 . S
C5551 C5550 1.366 . S
C5551 C5552 1.414 . S
C5551 C5554 1.499 . S
C5552 H5532 0.950 . S
C5552 C5551 1.414 . S
C5552 C5553 1.374 . S
C5553 H5533 0.950 . S
C5553 C5549 1.385 . S
C5553 C5552 1.374 . S
C5554 C5551 1.499 . S
C5554 C5555 1.373 . S
C5554 C5556 1.389 . S
C5555 H5534 0.950 . S
C5555 C5554 1.373 . S
C5555 C5571 1.377 . S
C5556 C5554 1.389 . S
C5556 C5557 1.524 . S
C5556 C5570 1.377 . S
C5557 C5556 1.524 . S
C5557 C5558 1.397 . S
C5557 C5562 1.363 . S
C5558 H5535 0.950 . S
C5558 C5557 1.397 . S
C5558 C5559 1.334 . S
C5559 H5536 0.950 . S
C5559 C5558 1.334 . S
C5559 C5560 1.287 . S
C5560 C5559 1.287 . S
C5560 C5561 1.524 . S
C5560 H5579 0.913 . S
C5561 H5537 0.950 . S
C5561 C5560 1.524 . S
C5561 C5562 1.415 . S
C5562 H5538 0.950 . S
C5562 C5557 1.363 . S
C5562 C5561 1.415 . S
C5563 H5539 0.951 . S
C5563 C5564 1.366 . S
C5563 C5565 1.388 . S
C5564 C5563 1.366 . S
C5564 C5568 1.385 . S
C5565 H5540 0.951 . S
C5565 C5563 1.388 . S
C5565 C5566 1.366 . S
C5566 C5565 1.366 . S
C5566 C5567 1.414 . S
C5566 C5569 1.499 . S
C5567 H5541 0.950 . S
C5567 C5566 1.414 . S
C5567 C5568 1.374 . S
C5568 H5542 0.950 . S
C5568 C5564 1.385 . S
C5568 C5567 1.374 . S
C5569 C5566 1.499 . S
C5569 C5570 1.373 . S
C5569 C5571 1.389 . S
C5570 H5543 0.950 . S
C5570 C5556 1.377 . S
C5570 C5569 1.373 . S
C5571 C5555 1.377 . S
C5571 C5569 1.389 . S
C5571 C5572 1.524 . S
C5572 C5571 1.524 . S
C5572 C5573 1.397 . S
C5572 C5577 1.363 . S
C5573 H5544 0.950 . S
C5573 C5572 1.397 . S
C5573 C5574 1.334 . S
C5574 H5545 0.950 . S
C5574 C5573 1.334 . S
C5574 C5575 1.287 . S
C5575 C5574 1.287 . S
C5575 C5576 1.524 . S
C5575 H5578 0.999 . S
C5576 H5546 0.950 . S
C5576 C5575 1.524 . S
C5576 C5577 1.415 . S
C5577 H5547 0.950 . S
C5577 C5572 1.363 . S
C5577 C5576 1.415 . S
H5578 C5575 0.999 . S
H5579 C5560 0.913 . S
H5580 C5598 0.951 . S
H5581 C5600 0.951 . S
H5582 C5602 0.950 . S
H5583 C5603 0.950 . S
H5584 C5605 0.950 . S
H5585 C5608 0.950 . S
H5586 C5609 0.950 . S
H5587 C5611 0.950 . S
H5588 C5612 0.950 . S
H5589 C5613 0.951 . S
H5590 C5615 0.951 . S
H5591 C5617 0.950 . S
H5592 C5618 0.950 . S
H5593 C5620 0.950 . S
H5594 C5623 0.950 . S
H5595 C5624 0.950 . S
H5596 C5626 0.950 . S
H5597 C5627 0.950 . S
C5598 H5580 0.951 . S
C5598 C5599 1.366 . S
C5598 C5600 1.388 . S
C5599 C5598 1.366 . S
C5599 C5603 1.385 . S
C5600 H5581 0.951 . S
C5600 C5598 1.388 . S
C5600 C5601 1.366 . S
C5601 C5600 1.366 . S
C5601 C5602 1.414 . S
C5601 C5604 1.499 . S
C5602 H5582 0.950 . S
C5602 C5601 1.414 . S
C5602 C5603 1.374 . S
C5603 H5583 0.950 . S
C5603 C5599 1.385 . S
C5603 C5602 1.374 . S
C5604 C5601 1.499 . S
C5604 C5605 1.373 . S
C5604 C5606 1.389 . S
C5605 H5584 0.950 . S
C5605 C5604 1.373 . S
C5605 C5621 1.377 . S
C5606 C5604 1.389 . S
C5606 C5607 1.524 . S
C5606 C5620 1.377 . S
C5607 C5606 1.524 . S
C5607 C5608 1.397 . S
C5607 C5612 1.363 . S
C5608 H5585 0.950 . S
C5608 C5607 1.397 . S
C5608 C5609 1.334 . S
C5609 H5586 0.950 . S
C5609 C5608 1.334 . S
C5609 C5610 1.287 . S
C5610 C5609 1.287 . S
C5610 C5611 1.524 . S
C5610 H5629 0.913 . S
C5611 H5587 0.950 . S
C5611 C5610 1.524 . S
C5611 C5612 1.415 . S
C5612 H5588 0.950 . S
C5612 C5607 1.363 . S
C5612 C5611 1.415 . S
C5613 H5589 0.951 . S
C5613 C5614 1.366 . S
C5613 C5615 1.388 . S
C5614 C5613 1.366 . S
C5614 C5618 1.385 . S
C5615 H5590 0.951 . S
C5615 C5613 1.388 . S
C5615 C5616 1.366 . S
C5616 C5615 1.366 . S
C5616 C5617 1.414 . S
C5616 C5619 1.499 . S
C5617 H5591 0.950 . S
C5617 C5616 1.414 . S
C5617 C5618 1.374 . S
C5618 H5592 0.950 . S
C5618 C5614 1.385 . S
C5618 C5617 1.374 . S
C5619 C5616 1.499 . S
C5619 C5620 1.373 . S
C5619 C5621 1.389 . S
C5620 H5593 0.950 . S
C5620 C5606 1.377 . S
C5620 C5619 1.373 . S
C5621 C5605 1.377 . S
C5621 C5619 1.389 . S
C5621 C5622 1.524 . S
C5622 C5621 1.524 . S
C5622 C5623 1.397 . S
C5622 C5627 1.363 . S
C5623 H5594 0.950 . S
C5623 C5622 1.397 . S
C5623 C5624 1.334 . S
C5624 H5595 0.950 . S
C5624 C5623 1.334 . S
C5624 C5625 1.287 . S
C5625 C5624 1.287 . S
C5625 C5626 1.524 . S
C5625 H5628 0.999 . S
C5626 H5596 0.950 . S
C5626 C5625 1.524 . S
C5626 C5627 1.415 . S
C5627 H5597 0.950 . S
C5627 C5622 1.363 . S
C5627 C5626 1.415 . S
H5628 C5625 0.999 . S
H5629 C5610 0.913 . S
H5630 C5648 0.951 . S
H5631 C5650 0.951 . S
H5632 C5652 0.950 . S
H5633 C5653 0.950 . S
H5634 C5655 0.950 . S
H5635 C5658 0.950 . S
H5636 C5659 0.950 . S
H5637 C5661 0.950 . S
H5638 C5662 0.950 . S
H5639 C5663 0.951 . S
H5640 C5665 0.951 . S
H5641 C5667 0.950 . S
H5642 C5668 0.950 . S
H5643 C5670 0.950 . S
H5644 C5673 0.950 . S
H5645 C5674 0.950 . S
H5646 C5676 0.950 . S
H5647 C5677 0.950 . S
C5648 H5630 0.951 . S
C5648 C5649 1.366 . S
C5648 C5650 1.388 . S
C5649 C5648 1.366 . S
C5649 C5653 1.385 . S
C5650 H5631 0.951 . S
C5650 C5648 1.388 . S
C5650 C5651 1.366 . S
C5651 C5650 1.366 . S
C5651 C5652 1.414 . S
C5651 C5654 1.499 . S
C5652 H5632 0.950 . S
C5652 C5651 1.414 . S
C5652 C5653 1.374 . S
C5653 H5633 0.950 . S
C5653 C5649 1.385 . S
C5653 C5652 1.374 . S
C5654 C5651 1.499 . S
C5654 C5655 1.373 . S
C5654 C5656 1.389 . S
C5655 H5634 0.950 . S
C5655 C5654 1.373 . S
C5655 C5671 1.377 . S
C5656 C5654 1.389 . S
C5656 C5657 1.524 . S
C5656 C5670 1.377 . S
C5657 C5656 1.524 . S
C5657 C5658 1.397 . S
C5657 C5662 1.363 . S
C5658 H5635 0.950 . S
C5658 C5657 1.397 . S
C5658 C5659 1.334 . S
C5659 H5636 0.950 . S
C5659 C5658 1.334 . S
C5659 C5660 1.287 . S
C5660 C5659 1.287 . S
C5660 C5661 1.524 . S
C5660 H5679 0.913 . S
C5661 H5637 0.950 . S
C5661 C5660 1.524 . S
C5661 C5662 1.415 . S
C5662 H5638 0.950 . S
C5662 C5657 1.363 . S
C5662 C5661 1.415 . S
C5663 H5639 0.951 . S
C5663 C5664 1.366 . S
C5663 C5665 1.388 . S
C5664 C5663 1.366 . S
C5664 C5668 1.385 . S
C5665 H5640 0.951 . S
C5665 C5663 1.388 . S
C5665 C5666 1.366 . S
C5666 C5665 1.366 . S
C5666 C5667 1.414 . S
C5666 C5669 1.499 . S
C5667 H5641 0.950 . S
C5667 C5666 1.414 . S
C5667 C5668 1.374 . S
C5668 H5642 0.950 . S
C5668 C5664 1.385 . S
C5668 C5667 1.374 . S
C5669 C5666 1.499 . S
C5669 C5670 1.373 . S
C5669 C5671 1.389 . S
C5670 H5643 0.950 . S
C5670 C5656 1.377 . S
C5670 C5669 1.373 . S
C5671 C5655 1.377 . S
C5671 C5669 1.389 . S
C5671 C5672 1.524 . S
C5672 C5671 1.524 . S
C5672 C5673 1.397 . S
C5672 C5677 1.363 . S
C5673 H5644 0.950 . S
C5673 C5672 1.397 . S
C5673 C5674 1.334 . S
C5674 H5645 0.950 . S
C5674 C5673 1.334 . S
C5674 C5675 1.287 . S
C5675 C5674 1.287 . S
C5675 C5676 1.524 . S
C5675 H5678 0.999 . S
C5676 H5646 0.950 . S
C5676 C5675 1.524 . S
C5676 C5677 1.415 . S
C5677 H5647 0.950 . S
C5677 C5672 1.363 . S
C5677 C5676 1.415 . S
H5678 C5675 0.999 . S
H5679 C5660 0.913 . S
H5680 C5698 0.951 . S
H5681 C5700 0.951 . S
H5682 C5702 0.950 . S
H5683 C5703 0.950 . S
H5684 C5705 0.950 . S
H5685 C5708 0.950 . S
H5686 C5709 0.950 . S
H5687 C5711 0.950 . S
H5688 C5712 0.950 . S
H5689 C5713 0.951 . S
H5690 C5715 0.951 . S
H5691 C5717 0.950 . S
H5692 C5718 0.950 . S
H5693 C5720 0.950 . S
H5694 C5723 0.950 . S
H5695 C5724 0.950 . S
H5696 C5726 0.950 . S
H5697 C5727 0.950 . S
C5698 H5680 0.951 . S
C5698 C5699 1.366 . S
C5698 C5700 1.388 . S
C5699 C5698 1.366 . S
C5699 C5703 1.385 . S
C5700 H5681 0.951 . S
C5700 C5698 1.388 . S
C5700 C5701 1.366 . S
C5701 C5700 1.366 . S
C5701 C5702 1.414 . S
C5701 C5704 1.499 . S
C5702 H5682 0.950 . S
C5702 C5701 1.414 . S
C5702 C5703 1.374 . S
C5703 H5683 0.950 . S
C5703 C5699 1.385 . S
C5703 C5702 1.374 . S
C5704 C5701 1.499 . S
C5704 C5705 1.373 . S
C5704 C5706 1.389 . S
C5705 H5684 0.950 . S
C5705 C5704 1.373 . S
C5705 C5721 1.377 . S
C5706 C5704 1.389 . S
C5706 C5707 1.524 . S
C5706 C5720 1.377 . S
C5707 C5706 1.524 . S
C5707 C5708 1.397 . S
C5707 C5712 1.363 . S
C5708 H5685 0.950 . S
C5708 C5707 1.397 . S
C5708 C5709 1.334 . S
C5709 H5686 0.950 . S
C5709 C5708 1.334 . S
C5709 C5710 1.287 . S
C5710 C5709 1.287 . S
C5710 C5711 1.524 . S
C5710 H5729 0.913 . S
C5711 H5687 0.950 . S
C5711 C5710 1.524 . S
C5711 C5712 1.415 . S
C5712 H5688 0.950 . S
C5712 C5707 1.363 . S
C5712 C5711 1.415 . S
C5713 H5689 0.951 . S
C5713 C5714 1.366 . S
C5713 C5715 1.388 . S
C5714 C5713 1.366 . S
C5714 C5718 1.385 . S
C5715 H5690 0.951 . S
C5715 C5713 1.388 . S
C5715 C5716 1.366 . S
C5716 C5715 1.366 . S
C5716 C5717 1.414 . S
C5716 C5719 1.499 . S
C5717 H5691 0.950 . S
C5717 C5716 1.414 . S
C5717 C5718 1.374 . S
C5718 H5692 0.950 . S
C5718 C5714 1.385 . S
C5718 C5717 1.374 . S
C5719 C5716 1.499 . S
C5719 C5720 1.373 . S
C5719 C5721 1.389 . S
C5720 H5693 0.950 . S
C5720 C5706 1.377 . S
C5720 C5719 1.373 . S
C5721 C5705 1.377 . S
C5721 C5719 1.389 . S
C5721 C5722 1.524 . S
C5722 C5721 1.524 . S
C5722 C5723 1.397 . S
C5722 C5727 1.363 . S
C5723 H5694 0.950 . S
C5723 C5722 1.397 . S
C5723 C5724 1.334 . S
C5724 H5695 0.950 . S
C5724 C5723 1.334 . S
C5724 C5725 1.287 . S
C5725 C5724 1.287 . S
C5725 C5726 1.524 . S
C5725 H5728 0.999 . S
C5726 H5696 0.950 . S
C5726 C5725 1.524 . S
C5726 C5727 1.415 . S
C5727 H5697 0.950 . S
C5727 C5722 1.363 . S
C5727 C5726 1.415 . S
H5728 C5725 0.999 . S
H5729 C5710 0.913 . S
H5730 C5748 0.951 . S
H5731 C5750 0.951 . S
H5732 C5752 0.950 . S
H5733 C5753 0.950 . S
H5734 C5755 0.950 . S
H5735 C5758 0.950 . S
H5736 C5759 0.950 . S
H5737 C5761 0.950 . S
H5738 C5762 0.950 . S
H5739 C5763 0.951 . S
H5740 C5765 0.951 . S
H5741 C5767 0.950 . S
H5742 C5768 0.950 . S
H5743 C5770 0.950 . S
H5744 C5773 0.950 . S
H5745 C5774 0.950 . S
H5746 C5776 0.950 . S
H5747 C5777 0.950 . S
C5748 H5730 0.951 . S
C5748 C5749 1.366 . S
C5748 C5750 1.388 . S
C5749 C5748 1.366 . S
C5749 C5753 1.385 . S
C5750 H5731 0.951 . S
C5750 C5748 1.388 . S
C5750 C5751 1.366 . S
C5751 C5750 1.366 . S
C5751 C5752 1.414 . S
C5751 C5754 1.499 . S
C5752 H5732 0.950 . S
C5752 C5751 1.414 . S
C5752 C5753 1.374 . S
C5753 H5733 0.950 . S
C5753 C5749 1.385 . S
C5753 C5752 1.374 . S
C5754 C5751 1.499 . S
C5754 C5755 1.373 . S
C5754 C5756 1.389 . S
C5755 H5734 0.950 . S
C5755 C5754 1.373 . S
C5755 C5771 1.377 . S
C5756 C5754 1.389 . S
C5756 C5757 1.524 . S
C5756 C5770 1.377 . S
C5757 C5756 1.524 . S
C5757 C5758 1.397 . S
C5757 C5762 1.363 . S
C5758 H5735 0.950 . S
C5758 C5757 1.397 . S
C5758 C5759 1.334 . S
C5759 H5736 0.950 . S
C5759 C5758 1.334 . S
C5759 C5760 1.287 . S
C5760 C5759 1.287 . S
C5760 C5761 1.524 . S
C5760 H5779 0.913 . S
C5761 H5737 0.950 . S
C5761 C5760 1.524 . S
C5761 C5762 1.415 . S
C5762 H5738 0.950 . S
C5762 C5757 1.363 . S
C5762 C5761 1.415 . S
C5763 H5739 0.951 . S
C5763 C5764 1.366 . S
C5763 C5765 1.388 . S
C5764 C5763 1.366 . S
C5764 C5768 1.385 . S
C5765 H5740 0.951 . S
C5765 C5763 1.388 . S
C5765 C5766 1.366 . S
C5766 C5765 1.366 . S
C5766 C5767 1.414 . S
C5766 C5769 1.499 . S
C5767 H5741 0.950 . S
C5767 C5766 1.414 . S
C5767 C5768 1.374 . S
C5768 H5742 0.950 . S
C5768 C5764 1.385 . S
C5768 C5767 1.374 . S
C5769 C5766 1.499 . S
C5769 C5770 1.373 . S
C5769 C5771 1.389 . S
C5770 H5743 0.950 . S
C5770 C5756 1.377 . S
C5770 C5769 1.373 . S
C5771 C5755 1.377 . S
C5771 C5769 1.389 . S
C5771 C5772 1.524 . S
C5772 C5771 1.524 . S
C5772 C5773 1.397 . S
C5772 C5777 1.363 . S
C5773 H5744 0.950 . S
C5773 C5772 1.397 . S
C5773 C5774 1.334 . S
C5774 H5745 0.950 . S
C5774 C5773 1.334 . S
C5774 C5775 1.287 . S
C5775 C5774 1.287 . S
C5775 C5776 1.524 . S
C5775 H5778 0.999 . S
C5776 H5746 0.950 . S
C5776 C5775 1.524 . S
C5776 C5777 1.415 . S
C5777 H5747 0.950 . S
C5777 C5772 1.363 . S
C5777 C5776 1.415 . S
H5778 C5775 0.999 . S
H5779 C5760 0.913 . S
H5780 C5798 0.951 . S
H5781 C5800 0.951 . S
H5782 C5802 0.950 . S
H5783 C5803 0.950 . S
H5784 C5805 0.950 . S
H5785 C5808 0.950 . S
H5786 C5809 0.950 . S
H5787 C5811 0.950 . S
H5788 C5812 0.950 . S
H5789 C5813 0.951 . S
H5790 C5815 0.951 . S
H5791 C5817 0.964 . S
H5792 C5818 0.950 . S
H5793 C5820 0.950 . S
H5794 C5823 0.950 . S
H5795 C5824 0.950 . S
H5796 C5826 0.950 . S
H5797 C5827 0.950 . S
C5798 H5780 0.951 . S
C5798 C5799 1.366 . S
C5798 C5800 1.388 . S
C5799 C5798 1.366 . S
C5799 C5803 1.385 . S
C5800 H5781 0.951 . S
C5800 C5798 1.388 . S
C5800 C5801 1.366 . S
C5801 C5800 1.366 . S
C5801 C5802 1.414 . S
C5801 C5804 1.499 . S
C5802 H5782 0.950 . S
C5802 C5801 1.414 . S
C5802 C5803 1.374 . S
C5803 H5783 0.950 . S
C5803 C5799 1.385 . S
C5803 C5802 1.374 . S
C5804 C5801 1.499 . S
C5804 C5805 1.373 . S
C5804 C5806 1.389 . S
C5805 H5784 0.950 . S
C5805 C5804 1.373 . S
C5805 C5821 1.377 . S
C5806 C5804 1.389 . S
C5806 C5807 1.524 . S
C5806 C5820 1.377 . S
C5807 C5806 1.524 . S
C5807 C5808 1.397 . S
C5807 C5812 1.363 . S
C5808 H5785 0.950 . S
C5808 C5807 1.397 . S
C5808 C5809 1.334 . S
C5809 H5786 0.950 . S
C5809 C5808 1.334 . S
C5809 C5810 1.287 . S
C5810 C5809 1.287 . S
C5810 C5811 1.524 . S
C5810 H5829 0.913 . S
C5811 H5787 0.950 . S
C5811 C5810 1.524 . S
C5811 C5812 1.415 . S
C5812 H5788 0.950 . S
C5812 C5807 1.363 . S
C5812 C5811 1.415 . S
C5813 H5789 0.951 . S
C5813 C5814 1.377 . S
C5813 C5815 1.388 . S
C5814 C5813 1.377 . S
C5814 C5818 1.380 1_655 S
C5815 H5790 0.951 . S
C5815 C5813 1.388 . S
C5815 C5816 1.366 . S
C5816 C5815 1.366 . S
C5816 C5817 1.414 . S
C5816 C5819 1.499 . S
C5817 H5791 0.964 . S
C5817 C5816 1.414 . S
C5817 C5818 1.374 1_655 S
C5818 H5792 0.950 . S
C5818 C5814 1.380 1_455 S
C5818 C5817 1.374 1_455 S
C5819 C5816 1.499 . S
C5819 C5820 1.373 . S
C5819 C5821 1.389 . S
C5820 H5793 0.950 . S
C5820 C5806 1.377 . S
C5820 C5819 1.373 . S
C5821 C5805 1.377 . S
C5821 C5819 1.389 . S
C5821 C5822 1.524 . S
C5822 C5821 1.524 . S
C5822 C5823 1.397 . S
C5822 C5827 1.363 . S
C5823 H5794 0.950 . S
C5823 C5822 1.397 . S
C5823 C5824 1.334 . S
C5824 H5795 0.950 . S
C5824 C5823 1.334 . S
C5824 C5825 1.287 . S
C5825 C5824 1.287 . S
C5825 C5826 1.524 . S
C5825 H5828 0.999 . S
C5826 H5796 0.950 . S
C5826 C5825 1.524 . S
C5826 C5827 1.415 . S
C5827 H5797 0.950 . S
C5827 C5822 1.363 . S
C5827 C5826 1.415 . S
H5828 C5825 0.999 . S
H5829 C5810 0.913 . S
H5830 C5848 0.951 . S
H5831 C5850 0.951 . S
H5832 C5852 0.950 . S
H5833 C5853 0.950 . S
H5834 C5855 0.950 . S
H5835 C5858 0.950 . S
H5836 C5859 0.950 . S
H5837 C5861 0.950 . S
H5838 C5862 0.950 . S
H5839 C5863 0.951 . S
H5840 C5865 0.951 . S
H5841 C5867 0.950 . S
H5842 C5868 0.950 . S
H5843 C5870 0.950 . S
H5844 C5873 0.950 . S
H5845 C5874 0.950 . S
H5846 C5876 0.950 . S
H5847 C5877 0.950 . S
C5848 H5830 0.951 . S
C5848 C5849 1.366 . S
C5848 C5850 1.388 . S
C5849 C5848 1.366 . S
C5849 C5853 1.385 . S
C5850 H5831 0.951 . S
C5850 C5848 1.388 . S
C5850 C5851 1.366 . S
C5851 C5850 1.366 . S
C5851 C5852 1.414 . S
C5851 C5854 1.499 . S
C5852 H5832 0.950 . S
C5852 C5851 1.414 . S
C5852 C5853 1.374 . S
C5853 H5833 0.950 . S
C5853 C5849 1.385 . S
C5853 C5852 1.374 . S
C5854 C5851 1.499 . S
C5854 C5855 1.373 . S
C5854 C5856 1.389 . S
C5855 H5834 0.950 . S
C5855 C5854 1.373 . S
C5855 C5871 1.377 . S
C5856 C5854 1.389 . S
C5856 C5857 1.524 . S
C5856 C5870 1.377 . S
C5857 C5856 1.524 . S
C5857 C5858 1.397 . S
C5857 C5862 1.363 . S
C5858 H5835 0.950 . S
C5858 C5857 1.397 . S
C5858 C5859 1.334 . S
C5859 H5836 0.950 . S
C5859 C5858 1.334 . S
C5859 C5860 1.287 . S
C5860 C5859 1.287 . S
C5860 C5861 1.524 . S
C5860 H5879 0.913 . S
C5861 H5837 0.950 . S
C5861 C5860 1.524 . S
C5861 C5862 1.415 . S
C5862 H5838 0.950 . S
C5862 C5857 1.363 . S
C5862 C5861 1.415 . S
C5863 H5839 0.951 . S
C5863 C5864 1.366 . S
C5863 C5865 1.388 . S
C5864 C5863 1.366 . S
C5864 C5868 1.385 . S
C5865 H5840 0.951 . S
C5865 C5863 1.388 . S
C5865 C5866 1.366 . S
C5866 C5865 1.366 . S
C5866 C5867 1.414 . S
C5866 C5869 1.499 . S
C5867 H5841 0.950 . S
C5867 C5866 1.414 . S
C5867 C5868 1.374 . S
C5868 H5842 0.950 . S
C5868 C5864 1.385 . S
C5868 C5867 1.374 . S
C5869 C5866 1.499 . S
C5869 C5870 1.373 . S
C5869 C5871 1.389 . S
C5870 H5843 0.950 . S
C5870 C5856 1.377 . S
C5870 C5869 1.373 . S
C5871 C5855 1.377 . S
C5871 C5869 1.389 . S
C5871 C5872 1.524 . S
C5872 C5871 1.524 . S
C5872 C5873 1.397 . S
C5872 C5877 1.363 . S
C5873 H5844 0.950 . S
C5873 C5872 1.397 . S
C5873 C5874 1.334 . S
C5874 H5845 0.950 . S
C5874 C5873 1.334 . S
C5874 C5875 1.287 . S
C5875 C5874 1.287 . S
C5875 C5876 1.524 . S
C5875 H5878 0.999 . S
C5876 H5846 0.950 . S
C5876 C5875 1.524 . S
C5876 C5877 1.415 . S
C5877 H5847 0.950 . S
C5877 C5872 1.363 . S
C5877 C5876 1.415 . S
H5878 C5875 0.999 . S
H5879 C5860 0.913 . S
H5880 C5898 0.951 . S
H5881 C5900 0.951 . S
H5882 C5902 0.950 . S
H5883 C5903 0.950 . S
H5884 C5905 0.950 . S
H5885 C5908 0.950 . S
H5886 C5909 0.950 . S
H5887 C5911 0.950 . S
H5888 C5912 0.950 . S
H5889 C5913 0.951 . S
H5890 C5915 0.951 . S
H5891 C5917 0.950 . S
H5892 C5918 0.950 . S
H5893 C5920 0.950 . S
H5894 C5923 0.950 . S
H5895 C5924 0.950 . S
H5896 C5926 0.950 . S
H5897 C5927 0.950 . S
C5898 H5880 0.951 . S
C5898 C5899 1.366 . S
C5898 C5900 1.388 . S
C5899 C5898 1.366 . S
C5899 C5903 1.385 . S
C5900 H5881 0.951 . S
C5900 C5898 1.388 . S
C5900 C5901 1.366 . S
C5901 C5900 1.366 . S
C5901 C5902 1.414 . S
C5901 C5904 1.499 . S
C5902 H5882 0.950 . S
C5902 C5901 1.414 . S
C5902 C5903 1.374 . S
C5903 H5883 0.950 . S
C5903 C5899 1.385 . S
C5903 C5902 1.374 . S
C5904 C5901 1.499 . S
C5904 C5905 1.373 . S
C5904 C5906 1.389 . S
C5905 H5884 0.950 . S
C5905 C5904 1.373 . S
C5905 C5921 1.377 . S
C5906 C5904 1.389 . S
C5906 C5907 1.524 . S
C5906 C5920 1.377 . S
C5907 C5906 1.524 . S
C5907 C5908 1.397 . S
C5907 C5912 1.363 . S
C5908 H5885 0.950 . S
C5908 C5907 1.397 . S
C5908 C5909 1.334 . S
C5909 H5886 0.950 . S
C5909 C5908 1.334 . S
C5909 C5910 1.287 . S
C5910 C5909 1.287 . S
C5910 C5911 1.524 . S
C5910 H5929 0.913 . S
C5911 H5887 0.950 . S
C5911 C5910 1.524 . S
C5911 C5912 1.415 . S
C5912 H5888 0.950 . S
C5912 C5907 1.363 . S
C5912 C5911 1.415 . S
C5913 H5889 0.951 . S
C5913 C5914 1.366 . S
C5913 C5915 1.388 . S
C5914 C5913 1.366 . S
C5914 C5918 1.385 . S
C5915 H5890 0.951 . S
C5915 C5913 1.388 . S
C5915 C5916 1.366 . S
C5916 C5915 1.366 . S
C5916 C5917 1.414 . S
C5916 C5919 1.499 . S
C5917 H5891 0.950 . S
C5917 C5916 1.414 . S
C5917 C5918 1.374 . S
C5918 H5892 0.950 . S
C5918 C5914 1.385 . S
C5918 C5917 1.374 . S
C5919 C5916 1.499 . S
C5919 C5920 1.373 . S
C5919 C5921 1.389 . S
C5920 H5893 0.950 . S
C5920 C5906 1.377 . S
C5920 C5919 1.373 . S
C5921 C5905 1.377 . S
C5921 C5919 1.389 . S
C5921 C5922 1.524 . S
C5922 C5921 1.524 . S
C5922 C5923 1.397 . S
C5922 C5927 1.363 . S
C5923 H5894 0.950 . S
C5923 C5922 1.397 . S
C5923 C5924 1.334 . S
C5924 H5895 0.950 . S
C5924 C5923 1.334 . S
C5924 C5925 1.287 . S
C5925 C5924 1.287 . S
C5925 C5926 1.524 . S
C5925 H5928 0.999 . S
C5926 H5896 0.950 . S
C5926 C5925 1.524 . S
C5926 C5927 1.415 . S
C5927 H5897 0.950 . S
C5927 C5922 1.363 . S
C5927 C5926 1.415 . S
H5928 C5925 0.999 . S
H5929 C5910 0.913 . S
H5930 C5948 0.951 . S
H5931 C5950 0.951 . S
H5932 C5952 0.950 . S
H5933 C5953 0.950 . S
H5934 C5955 0.950 . S
H5935 C5958 0.950 . S
H5936 C5959 0.950 . S
H5937 C5961 0.950 . S
H5938 C5962 0.950 . S
H5939 C5963 0.951 . S
H5940 C5965 0.951 . S
H5941 C5967 0.950 . S
H5942 C5968 0.950 . S
H5943 C5970 0.950 . S
H5944 C5973 0.950 . S
H5945 C5974 0.950 . S
H5946 C5976 0.950 . S
H5947 C5977 0.950 . S
C5948 H5930 0.951 . S
C5948 C5949 1.366 . S
C5948 C5950 1.388 . S
C5949 C5948 1.366 . S
C5949 C5953 1.385 . S
C5950 H5931 0.951 . S
C5950 C5948 1.388 . S
C5950 C5951 1.366 . S
C5951 C5950 1.366 . S
C5951 C5952 1.414 . S
C5951 C5954 1.499 . S
C5952 H5932 0.950 . S
C5952 C5951 1.414 . S
C5952 C5953 1.374 . S
C5953 H5933 0.950 . S
C5953 C5949 1.385 . S
C5953 C5952 1.374 . S
C5954 C5951 1.499 . S
C5954 C5955 1.373 . S
C5954 C5956 1.389 . S
C5955 H5934 0.950 . S
C5955 C5954 1.373 . S
C5955 C5971 1.377 . S
C5956 C5954 1.389 . S
C5956 C5957 1.524 . S
C5956 C5970 1.377 . S
C5957 C5956 1.524 . S
C5957 C5958 1.397 . S
C5957 C5962 1.363 . S
C5958 H5935 0.950 . S
C5958 C5957 1.397 . S
C5958 C5959 1.334 . S
C5959 H5936 0.950 . S
C5959 C5958 1.334 . S
C5959 C5960 1.287 . S
C5960 C5959 1.287 . S
C5960 C5961 1.524 . S
C5960 H5979 0.913 . S
C5961 H5937 0.950 . S
C5961 C5960 1.524 . S
C5961 C5962 1.415 . S
C5962 H5938 0.950 . S
C5962 C5957 1.363 . S
C5962 C5961 1.415 . S
C5963 H5939 0.951 . S
C5963 C5964 1.366 . S
C5963 C5965 1.388 . S
C5964 C5963 1.366 . S
C5964 C5968 1.385 . S
C5965 H5940 0.951 . S
C5965 C5963 1.388 . S
C5965 C5966 1.366 . S
C5966 C5965 1.366 . S
C5966 C5967 1.414 . S
C5966 C5969 1.499 . S
C5967 H5941 0.950 . S
C5967 C5966 1.414 . S
C5967 C5968 1.374 . S
C5968 H5942 0.950 . S
C5968 C5964 1.385 . S
C5968 C5967 1.374 . S
C5969 C5966 1.499 . S
C5969 C5970 1.373 . S
C5969 C5971 1.389 . S
C5970 H5943 0.950 . S
C5970 C5956 1.377 . S
C5970 C5969 1.373 . S
C5971 C5955 1.377 . S
C5971 C5969 1.389 . S
C5971 C5972 1.524 . S
C5972 C5971 1.524 . S
C5972 C5973 1.397 . S
C5972 C5977 1.363 . S
C5973 H5944 0.950 . S
C5973 C5972 1.397 . S
C5973 C5974 1.334 . S
C5974 H5945 0.950 . S
C5974 C5973 1.334 . S
C5974 C5975 1.287 . S
C5975 C5974 1.287 . S
C5975 C5976 1.524 . S
C5975 H5978 0.999 . S
C5976 H5946 0.950 . S
C5976 C5975 1.524 . S
C5976 C5977 1.415 . S
C5977 H5947 0.950 . S
C5977 C5972 1.363 . S
C5977 C5976 1.415 . S
H5978 C5975 0.999 . S
H5979 C5960 0.913 . S
H5980 C5998 0.951 . S
H5981 C6000 0.951 . S
H5982 C6002 0.950 . S
H5983 C6003 0.950 . S
H5984 C6005 0.950 . S
H5985 C6008 0.950 . S
H5986 C6009 0.950 . S
H5987 C6011 0.950 . S
H5988 C6012 0.950 . S
H5989 C6013 0.951 . S
H5990 C6015 0.951 . S
H5991 C6017 0.950 . S
H5992 C6018 0.950 . S
H5993 C6020 0.950 . S
H5994 C6023 0.950 . S
H5995 C6024 0.950 . S
H5996 C6026 0.950 . S
H5997 C6027 0.950 . S
C5998 H5980 0.951 . S
C5998 C5999 1.366 . S
C5998 C6000 1.388 . S
C5999 C5998 1.366 . S
C5999 C6003 1.385 . S
C6000 H5981 0.951 . S
C6000 C5998 1.388 . S
C6000 C6001 1.366 . S
C6001 C6000 1.366 . S
C6001 C6002 1.414 . S
C6001 C6004 1.499 . S
C6002 H5982 0.950 . S
C6002 C6001 1.414 . S
C6002 C6003 1.374 . S
C6003 H5983 0.950 . S
C6003 C5999 1.385 . S
C6003 C6002 1.374 . S
C6004 C6001 1.499 . S
C6004 C6005 1.373 . S
C6004 C6006 1.389 . S
C6005 H5984 0.950 . S
C6005 C6004 1.373 . S
C6005 C6021 1.377 . S
C6006 C6004 1.389 . S
C6006 C6007 1.524 . S
C6006 C6020 1.377 . S
C6007 C6006 1.524 . S
C6007 C6008 1.397 . S
C6007 C6012 1.363 . S
C6008 H5985 0.950 . S
C6008 C6007 1.397 . S
C6008 C6009 1.334 . S
C6009 H5986 0.950 . S
C6009 C6008 1.334 . S
C6009 C6010 1.287 . S
C6010 C6009 1.287 . S
C6010 C6011 1.524 . S
C6010 H6029 0.913 . S
C6011 H5987 0.950 . S
C6011 C6010 1.524 . S
C6011 C6012 1.415 . S
C6012 H5988 0.950 . S
C6012 C6007 1.363 . S
C6012 C6011 1.415 . S
C6013 H5989 0.951 . S
C6013 C6014 1.366 . S
C6013 C6015 1.388 . S
C6014 C6013 1.366 . S
C6014 C6018 1.385 . S
C6015 H5990 0.951 . S
C6015 C6013 1.388 . S
C6015 C6016 1.366 . S
C6016 C6015 1.366 . S
C6016 C6017 1.414 . S
C6016 C6019 1.499 . S
C6017 H5991 0.950 . S
C6017 C6016 1.414 . S
C6017 C6018 1.374 . S
C6018 H5992 0.950 . S
C6018 C6014 1.385 . S
C6018 C6017 1.374 . S
C6019 C6016 1.499 . S
C6019 C6020 1.373 . S
C6019 C6021 1.389 . S
C6020 H5993 0.950 . S
C6020 C6006 1.377 . S
C6020 C6019 1.373 . S
C6021 C6005 1.377 . S
C6021 C6019 1.389 . S
C6021 C6022 1.524 . S
C6022 C6021 1.524 . S
C6022 C6023 1.397 . S
C6022 C6027 1.363 . S
C6023 H5994 0.950 . S
C6023 C6022 1.397 . S
C6023 C6024 1.334 . S
C6024 H5995 0.950 . S
C6024 C6023 1.334 . S
C6024 C6025 1.287 1_655 S
C6025 C6024 1.287 1_455 S
C6025 C6026 1.524 . S
C6025 H6028 0.999 . S
C6026 H5996 0.950 . S
C6026 C6025 1.524 . S
C6026 C6027 1.415 1_455 S
C6027 H5997 0.950 . S
C6027 C6022 1.363 . S
C6027 C6026 1.415 1_655 S
H6028 C6025 0.999 . S
H6029 C6010 0.913 . S
H6030 C6048 0.951 . S
H6031 C6050 0.951 . S
H6032 C6052 0.950 . S
H6033 C6053 0.950 . S
H6034 C6055 0.950 . S
H6035 C6058 0.950 . S
H6036 C6059 0.950 . S
H6037 C6061 0.950 . S
H6038 C6062 0.950 . S
H6039 C6063 0.951 . S
H6040 C6065 0.951 . S
H6041 C6067 0.950 . S
H6042 C6068 0.950 . S
H6043 C6070 0.950 . S
H6044 C6073 0.950 . S
H6045 C6074 0.950 . S
H6046 C6076 0.950 . S
H6047 C6077 0.950 . S
C6048 H6030 0.951 . S
C6048 C6049 1.366 . S
C6048 C6050 1.388 . S
C6049 C6048 1.366 . S
C6049 C6053 1.385 . S
C6050 H6031 0.951 . S
C6050 C6048 1.388 . S
C6050 C6051 1.366 . S
C6051 C6050 1.366 . S
C6051 C6052 1.414 . S
C6051 C6054 1.499 . S
C6052 H6032 0.950 . S
C6052 C6051 1.414 . S
C6052 C6053 1.374 . S
C6053 H6033 0.950 . S
C6053 C6049 1.385 . S
C6053 C6052 1.374 . S
C6054 C6051 1.499 . S
C6054 C6055 1.373 . S
C6054 C6056 1.389 . S
C6055 H6034 0.950 . S
C6055 C6054 1.373 . S
C6055 C6071 1.377 . S
C6056 C6054 1.389 . S
C6056 C6057 1.524 . S
C6056 C6070 1.377 . S
C6057 C6056 1.524 . S
C6057 C6058 1.397 . S
C6057 C6062 1.363 . S
C6058 H6035 0.950 . S
C6058 C6057 1.397 . S
C6058 C6059 1.334 . S
C6059 H6036 0.950 . S
C6059 C6058 1.334 . S
C6059 C6060 1.287 . S
C6060 C6059 1.287 . S
C6060 C6061 1.524 . S
C6060 H6079 0.913 . S
C6061 H6037 0.950 . S
C6061 C6060 1.524 . S
C6061 C6062 1.415 . S
C6062 H6038 0.950 . S
C6062 C6057 1.363 . S
C6062 C6061 1.415 . S
C6063 H6039 0.951 . S
C6063 C6064 1.366 . S
C6063 C6065 1.388 . S
C6064 C6063 1.366 . S
C6064 C6068 1.385 . S
C6065 H6040 0.951 . S
C6065 C6063 1.388 . S
C6065 C6066 1.366 . S
C6066 C6065 1.366 . S
C6066 C6067 1.414 . S
C6066 C6069 1.499 . S
C6067 H6041 0.950 . S
C6067 C6066 1.414 . S
C6067 C6068 1.374 . S
C6068 H6042 0.950 . S
C6068 C6064 1.385 . S
C6068 C6067 1.374 . S
C6069 C6066 1.499 . S
C6069 C6070 1.373 . S
C6069 C6071 1.389 . S
C6070 H6043 0.950 . S
C6070 C6056 1.377 . S
C6070 C6069 1.373 . S
C6071 C6055 1.377 . S
C6071 C6069 1.389 . S
C6071 C6072 1.524 . S
C6072 C6071 1.524 . S
C6072 C6073 1.397 . S
C6072 C6077 1.363 . S
C6073 H6044 0.950 . S
C6073 C6072 1.397 . S
C6073 C6074 1.334 . S
C6074 H6045 0.950 . S
C6074 C6073 1.334 . S
C6074 C6075 1.287 . S
C6075 C6074 1.287 . S
C6075 C6076 1.524 . S
C6075 H6078 0.999 . S
C6076 H6046 0.950 . S
C6076 C6075 1.524 . S
C6076 C6077 1.415 . S
C6077 H6047 0.950 . S
C6077 C6072 1.363 . S
C6077 C6076 1.415 . S
H6078 C6075 0.999 . S
H6079 C6060 0.913 . S
H6080 C6098 0.951 . S
H6081 C6100 0.951 . S
H6082 C6102 0.950 . S
H6083 C6103 0.950 . S
H6084 C6105 0.950 . S
H6085 C6108 0.950 . S
H6086 C6109 0.950 . S
H6087 C6111 0.950 . S
H6088 C6112 0.950 . S
H6089 C6113 0.951 . S
H6090 C6115 0.951 . S
H6091 C6117 0.950 . S
H6092 C6118 0.950 . S
H6093 C6120 0.950 . S
H6094 C6123 0.950 . S
H6095 C6124 0.950 . S
H6096 C6126 0.950 . S
H6097 C6127 0.950 . S
C6098 H6080 0.951 . S
C6098 C6099 1.366 . S
C6098 C6100 1.388 . S
C6099 C6098 1.366 . S
C6099 C6103 1.385 . S
C6100 H6081 0.951 . S
C6100 C6098 1.388 . S
C6100 C6101 1.366 . S
C6101 C6100 1.366 . S
C6101 C6102 1.414 . S
C6101 C6104 1.499 . S
C6102 H6082 0.950 . S
C6102 C6101 1.414 . S
C6102 C6103 1.374 . S
C6103 H6083 0.950 . S
C6103 C6099 1.385 . S
C6103 C6102 1.374 . S
C6104 C6101 1.499 . S
C6104 C6105 1.373 . S
C6104 C6106 1.389 . S
C6105 H6084 0.950 . S
C6105 C6104 1.373 . S
C6105 C6121 1.377 . S
C6106 C6104 1.389 . S
C6106 C6107 1.524 . S
C6106 C6120 1.377 . S
C6107 C6106 1.524 . S
C6107 C6108 1.397 . S
C6107 C6112 1.363 . S
C6108 H6085 0.950 . S
C6108 C6107 1.397 . S
C6108 C6109 1.334 . S
C6109 H6086 0.950 . S
C6109 C6108 1.334 . S
C6109 C6110 1.287 . S
C6110 C6109 1.287 . S
C6110 C6111 1.524 . S
C6110 H6129 0.913 . S
C6111 H6087 0.950 . S
C6111 C6110 1.524 . S
C6111 C6112 1.415 . S
C6112 H6088 0.950 . S
C6112 C6107 1.363 . S
C6112 C6111 1.415 . S
C6113 H6089 0.951 . S
C6113 C6114 1.366 . S
C6113 C6115 1.388 . S
C6114 C6113 1.366 . S
C6114 C6118 1.385 . S
C6115 H6090 0.951 . S
C6115 C6113 1.388 . S
C6115 C6116 1.366 . S
C6116 C6115 1.366 . S
C6116 C6117 1.414 . S
C6116 C6119 1.499 . S
C6117 H6091 0.950 . S
C6117 C6116 1.414 . S
C6117 C6118 1.374 . S
C6118 H6092 0.950 . S
C6118 C6114 1.385 . S
C6118 C6117 1.374 . S
C6119 C6116 1.499 . S
C6119 C6120 1.373 . S
C6119 C6121 1.389 . S
C6120 H6093 0.950 . S
C6120 C6106 1.377 . S
C6120 C6119 1.373 . S
C6121 C6105 1.377 . S
C6121 C6119 1.389 . S
C6121 C6122 1.524 . S
C6122 C6121 1.524 . S
C6122 C6123 1.397 . S
C6122 C6127 1.363 . S
C6123 H6094 0.950 . S
C6123 C6122 1.397 . S
C6123 C6124 1.334 . S
C6124 H6095 0.950 . S
C6124 C6123 1.334 . S
C6124 C6125 1.287 . S
C6125 C6124 1.287 . S
C6125 C6126 1.524 . S
C6125 H6128 0.999 . S
C6126 H6096 0.950 . S
C6126 C6125 1.524 . S
C6126 C6127 1.415 . S
C6127 H6097 0.950 . S
C6127 C6122 1.363 . S
C6127 C6126 1.415 . S
H6128 C6125 0.999 . S
H6129 C6110 0.913 . S
H6130 C6148 0.951 . S
H6131 C6150 0.951 . S
H6132 C6152 0.950 . S
H6133 C6153 0.950 . S
H6134 C6155 0.950 . S
H6135 C6158 0.950 . S
H6136 C6159 0.950 . S
H6137 C6161 0.950 . S
H6138 C6162 0.950 . S
H6139 C6163 0.951 . S
H6140 C6165 0.951 . S
H6141 C6167 0.950 . S
H6142 C6168 0.950 1_545 S
H6143 C6170 0.950 . S
H6144 C6173 0.950 . S
H6145 C6174 0.950 . S
H6146 C6176 0.950 . S
H6147 C6177 0.950 . S
C6148 H6130 0.951 . S
C6148 C6149 1.366 . S
C6148 C6150 1.388 . S
C6149 C6148 1.366 . S
C6149 C6153 1.385 . S
C6150 H6131 0.951 . S
C6150 C6148 1.388 . S
C6150 C6151 1.366 . S
C6151 C6150 1.366 . S
C6151 C6152 1.414 . S
C6151 C6154 1.499 . S
C6152 H6132 0.950 . S
C6152 C6151 1.414 . S
C6152 C6153 1.374 . S
C6153 H6133 0.950 . S
C6153 C6149 1.385 . S
C6153 C6152 1.374 . S
C6154 C6151 1.499 . S
C6154 C6155 1.373 . S
C6154 C6156 1.389 . S
C6155 H6134 0.950 . S
C6155 C6154 1.373 . S
C6155 C6171 1.377 . S
C6156 C6154 1.389 . S
C6156 C6157 1.524 . S
C6156 C6170 1.377 . S
C6157 C6156 1.524 . S
C6157 C6158 1.397 . S
C6157 C6162 1.363 . S
C6158 H6135 0.950 . S
C6158 C6157 1.397 . S
C6158 C6159 1.334 . S
C6159 H6136 0.950 . S
C6159 C6158 1.334 . S
C6159 C6160 1.287 . S
C6160 C6159 1.287 . S
C6160 C6161 1.524 . S
C6160 H6179 0.913 . S
C6161 H6137 0.950 . S
C6161 C6160 1.524 . S
C6161 C6162 1.415 . S
C6162 H6138 0.950 . S
C6162 C6157 1.363 . S
C6162 C6161 1.415 . S
C6163 H6139 0.951 . S
C6163 C6164 1.366 . S
C6163 C6165 1.388 . S
C6164 C6163 1.366 . S
C6164 C6168 1.385 . S
C6165 H6140 0.951 . S
C6165 C6163 1.388 . S
C6165 C6166 1.366 . S
C6166 C6165 1.366 . S
C6166 C6167 1.414 . S
C6166 C6169 1.499 . S
C6167 H6141 0.950 . S
C6167 C6166 1.414 . S
C6167 C6168 1.374 . S
C6168 H6142 0.950 1_565 S
C6168 C6164 1.385 . S
C6168 C6167 1.374 . S
C6169 C6166 1.499 . S
C6169 C6170 1.373 . S
C6169 C6171 1.389 . S
C6170 H6143 0.950 . S
C6170 C6156 1.377 . S
C6170 C6169 1.373 . S
C6171 C6155 1.377 . S
C6171 C6169 1.389 . S
C6171 C6172 1.524 . S
C6172 C6171 1.524 . S
C6172 C6173 1.397 . S
C6172 C6177 1.363 . S
C6173 H6144 0.950 . S
C6173 C6172 1.397 . S
C6173 C6174 1.334 . S
C6174 H6145 0.950 . S
C6174 C6173 1.334 . S
C6174 C6175 1.287 . S
C6175 C6174 1.287 . S
C6175 C6176 1.524 . S
C6175 H6178 0.999 . S
C6176 H6146 0.950 . S
C6176 C6175 1.524 . S
C6176 C6177 1.415 . S
C6177 H6147 0.950 . S
C6177 C6172 1.363 . S
C6177 C6176 1.415 . S
H6178 C6175 0.999 . S
H6179 C6160 0.913 . S
H6180 C6198 0.951 . S
H6181 C6200 0.951 . S
H6182 C6202 0.950 . S
H6183 C6203 0.950 . S
H6184 C6205 0.950 . S
H6185 C6208 0.950 . S
H6186 C6209 0.950 . S
H6187 C6211 0.950 . S
H6188 C6212 0.950 . S
H6189 C6213 0.951 . S
H6190 C6215 0.951 . S
H6191 C6217 0.950 . S
H6192 C6218 0.950 . S
H6193 C6220 0.950 . S
H6194 C6223 0.950 . S
H6195 C6224 0.950 . S
H6196 C6226 0.950 . S
H6197 C6227 0.950 . S
C6198 H6180 0.951 . S
C6198 C6199 1.366 . S
C6198 C6200 1.388 . S
C6199 C6198 1.366 . S
C6199 C6203 1.385 . S
C6200 H6181 0.951 . S
C6200 C6198 1.388 . S
C6200 C6201 1.366 . S
C6201 C6200 1.366 . S
C6201 C6202 1.414 . S
C6201 C6204 1.499 . S
C6202 H6182 0.950 . S
C6202 C6201 1.414 . S
C6202 C6203 1.374 . S
C6203 H6183 0.950 . S
C6203 C6199 1.385 . S
C6203 C6202 1.374 . S
C6204 C6201 1.499 . S
C6204 C6205 1.373 . S
C6204 C6206 1.389 . S
C6205 H6184 0.950 . S
C6205 C6204 1.373 . S
C6205 C6221 1.377 . S
C6206 C6204 1.389 . S
C6206 C6207 1.524 . S
C6206 C6220 1.377 . S
C6207 C6206 1.524 . S
C6207 C6208 1.397 . S
C6207 C6212 1.363 . S
C6208 H6185 0.950 . S
C6208 C6207 1.397 . S
C6208 C6209 1.334 . S
C6209 H6186 0.950 . S
C6209 C6208 1.334 . S
C6209 C6210 1.287 . S
C6210 C6209 1.287 . S
C6210 C6211 1.524 . S
C6210 H6229 0.913 . S
C6211 H6187 0.950 . S
C6211 C6210 1.524 . S
C6211 C6212 1.415 . S
C6212 H6188 0.950 . S
C6212 C6207 1.363 . S
C6212 C6211 1.415 . S
C6213 H6189 0.951 . S
C6213 C6214 1.366 . S
C6213 C6215 1.388 . S
C6214 C6213 1.366 . S
C6214 C6218 1.385 . S
C6215 H6190 0.951 . S
C6215 C6213 1.388 . S
C6215 C6216 1.366 . S
C6216 C6215 1.366 . S
C6216 C6217 1.414 . S
C6216 C6219 1.499 . S
C6217 H6191 0.950 . S
C6217 C6216 1.414 . S
C6217 C6218 1.374 . S
C6218 H6192 0.950 . S
C6218 C6214 1.385 . S
C6218 C6217 1.374 . S
C6219 C6216 1.499 . S
C6219 C6220 1.373 . S
C6219 C6221 1.389 . S
C6220 H6193 0.950 . S
C6220 C6206 1.377 . S
C6220 C6219 1.373 . S
C6221 C6205 1.377 . S
C6221 C6219 1.389 . S
C6221 C6222 1.524 . S
C6222 C6221 1.524 . S
C6222 C6223 1.397 . S
C6222 C6227 1.363 . S
C6223 H6194 0.950 . S
C6223 C6222 1.397 . S
C6223 C6224 1.334 . S
C6224 H6195 0.950 . S
C6224 C6223 1.334 . S
C6224 C6225 1.287 . S
C6225 C6224 1.287 . S
C6225 C6226 1.524 . S
C6225 H6228 0.999 . S
C6226 H6196 0.950 . S
C6226 C6225 1.524 . S
C6226 C6227 1.415 . S
C6227 H6197 0.950 . S
C6227 C6222 1.363 . S
C6227 C6226 1.415 . S
H6228 C6225 0.999 . S
H6229 C6210 0.913 . S
H6230 C6248 0.951 . S
H6231 C6250 0.951 . S
H6232 C6252 0.950 . S
H6233 C6253 0.950 . S
H6234 C6255 0.950 . S
H6235 C6258 0.950 . S
H6236 C6259 0.950 . S
H6237 C6261 0.950 . S
H6238 C6262 0.950 . S
H6239 C6263 0.951 . S
H6240 C6265 0.951 . S
H6241 C6267 0.950 . S
H6242 C6268 0.950 . S
H6243 C6270 0.950 . S
H6244 C6273 0.950 . S
H6245 C6274 0.950 1_556 S
H6246 C6276 0.950 . S
H6247 C6277 0.950 . S
C6248 H6230 0.951 . S
C6248 C6249 1.366 . S
C6248 C6250 1.388 . S
C6249 C6248 1.366 . S
C6249 C6253 1.385 . S
C6250 H6231 0.951 . S
C6250 C6248 1.388 . S
C6250 C6251 1.366 . S
C6251 C6250 1.366 . S
C6251 C6252 1.414 . S
C6251 C6254 1.499 . S
C6252 H6232 0.950 . S
C6252 C6251 1.414 . S
C6252 C6253 1.374 . S
C6253 H6233 0.950 . S
C6253 C6249 1.385 . S
C6253 C6252 1.374 . S
C6254 C6251 1.499 . S
C6254 C6255 1.373 . S
C6254 C6256 1.389 . S
C6255 H6234 0.950 . S
C6255 C6254 1.373 . S
C6255 C6271 1.377 . S
C6256 C6254 1.389 . S
C6256 C6257 1.524 . S
C6256 C6270 1.377 . S
C6257 C6256 1.524 . S
C6257 C6258 1.397 . S
C6257 C6262 1.363 . S
C6258 H6235 0.950 . S
C6258 C6257 1.397 . S
C6258 C6259 1.334 . S
C6259 H6236 0.950 . S
C6259 C6258 1.334 . S
C6259 C6260 1.287 . S
C6260 C6259 1.287 . S
C6260 C6261 1.524 . S
C6260 H6279 0.913 . S
C6261 H6237 0.950 . S
C6261 C6260 1.524 . S
C6261 C6262 1.415 . S
C6262 H6238 0.950 . S
C6262 C6257 1.363 . S
C6262 C6261 1.415 . S
C6263 H6239 0.951 . S
C6263 C6264 1.366 . S
C6263 C6265 1.388 . S
C6264 C6263 1.366 . S
C6264 C6268 1.385 . S
C6265 H6240 0.951 . S
C6265 C6263 1.388 . S
C6265 C6266 1.366 . S
C6266 C6265 1.366 . S
C6266 C6267 1.414 . S
C6266 C6269 1.499 . S
C6267 H6241 0.950 . S
C6267 C6266 1.414 . S
C6267 C6268 1.374 . S
C6268 H6242 0.950 . S
C6268 C6264 1.385 . S
C6268 C6267 1.374 . S
C6269 C6266 1.499 . S
C6269 C6270 1.373 . S
C6269 C6271 1.389 . S
C6270 H6243 0.950 . S
C6270 C6256 1.377 . S
C6270 C6269 1.373 . S
C6271 C6255 1.377 . S
C6271 C6269 1.389 . S
C6271 C6272 1.524 . S
C6272 C6271 1.524 . S
C6272 C6273 1.397 . S
C6272 C6277 1.363 . S
C6273 H6244 0.950 . S
C6273 C6272 1.397 . S
C6273 C6274 1.334 . S
C6274 H6245 0.950 1_554 S
C6274 C6273 1.334 . S
C6274 C6275 1.269 1_545 S
C6275 C6274 1.269 1_565 S
C6275 C6276 1.519 1_565 S
C6275 H6278 1.026 . S
C6276 H6246 0.950 . S
C6276 C6275 1.519 1_545 S
C6276 C6277 1.415 . S
C6277 H6247 0.950 . S
C6277 C6272 1.363 . S
C6277 C6276 1.415 . S
H6278 C6275 1.026 . S
H6279 C6260 0.913 . S
H6280 C6298 0.951 . S
H6281 C6300 0.951 . S
H6282 C6302 0.950 . S
H6283 C6303 0.950 . S
H6284 C6305 0.950 . S
H6285 C6308 0.950 . S
H6286 C6309 0.950 . S
H6287 C6311 0.950 . S
H6288 C6312 0.950 . S
H6289 C6313 0.951 . S
H6290 C6315 0.951 . S
H6291 C6317 0.950 . S
H6292 C6318 0.950 . S
H6293 C6320 0.950 . S
H6294 C6323 0.950 . S
H6295 C6324 0.950 . S
H6296 C6326 0.950 . S
H6297 C6327 0.950 . S
C6298 H6280 0.951 . S
C6298 C6299 1.366 . S
C6298 C6300 1.388 . S
C6299 C6298 1.366 . S
C6299 C6303 1.385 . S
C6300 H6281 0.951 . S
C6300 C6298 1.388 . S
C6300 C6301 1.366 . S
C6301 C6300 1.366 . S
C6301 C6302 1.414 . S
C6301 C6304 1.499 . S
C6302 H6282 0.950 . S
C6302 C6301 1.414 . S
C6302 C6303 1.374 . S
C6303 H6283 0.950 . S
C6303 C6299 1.385 . S
C6303 C6302 1.374 . S
C6304 C6301 1.499 . S
C6304 C6305 1.373 . S
C6304 C6306 1.389 . S
C6305 H6284 0.950 . S
C6305 C6304 1.373 . S
C6305 C6321 1.377 . S
C6306 C6304 1.389 . S
C6306 C6307 1.524 . S
C6306 C6320 1.377 . S
C6307 C6306 1.524 . S
C6307 C6308 1.397 . S
C6307 C6312 1.363 . S
C6308 H6285 0.950 . S
C6308 C6307 1.397 . S
C6308 C6309 1.334 . S
C6309 H6286 0.950 . S
C6309 C6308 1.334 . S
C6309 C6310 1.287 . S
C6310 C6309 1.287 . S
C6310 C6311 1.524 . S
C6310 H6329 0.913 . S
C6311 H6287 0.950 . S
C6311 C6310 1.524 . S
C6311 C6312 1.415 . S
C6312 H6288 0.950 . S
C6312 C6307 1.363 . S
C6312 C6311 1.415 . S
C6313 H6289 0.951 . S
C6313 C6314 1.366 . S
C6313 C6315 1.388 . S
C6314 C6313 1.366 . S
C6314 C6318 1.385 . S
C6315 H6290 0.951 . S
C6315 C6313 1.388 . S
C6315 C6316 1.366 . S
C6316 C6315 1.366 . S
C6316 C6317 1.414 . S
C6316 C6319 1.499 . S
C6317 H6291 0.950 . S
C6317 C6316 1.414 . S
C6317 C6318 1.374 . S
C6318 H6292 0.950 . S
C6318 C6314 1.385 . S
C6318 C6317 1.374 . S
C6319 C6316 1.499 . S
C6319 C6320 1.373 . S
C6319 C6321 1.389 . S
C6320 H6293 0.950 . S
C6320 C6306 1.377 . S
C6320 C6319 1.373 . S
C6321 C6305 1.377 . S
C6321 C6319 1.389 . S
C6321 C6322 1.524 . S
C6322 C6321 1.524 . S
C6322 C6323 1.397 . S
C6322 C6327 1.363 . S
C6323 H6294 0.950 . S
C6323 C6322 1.397 . S
C6323 C6324 1.334 . S
C6324 H6295 0.950 . S
C6324 C6323 1.334 . S
C6324 C6325 1.287 . S
C6325 C6324 1.287 . S
C6325 C6326 1.524 . S
C6325 H6328 0.999 . S
C6326 H6296 0.950 . S
C6326 C6325 1.524 . S
C6326 C6327 1.415 . S
C6327 H6297 0.950 . S
C6327 C6322 1.363 . S
C6327 C6326 1.415 . S
H6328 C6325 0.999 . S
H6329 C6310 0.913 . S
H6330 C6348 0.951 . S
H6331 C6350 0.951 . S
H6332 C6352 0.950 . S
H6333 C6353 0.950 . S
H6334 C6355 0.951 . S
H6335 C6358 0.950 . S
H6336 C6359 0.950 . S
H6337 C6361 0.950 . S
H6338 C6362 0.950 . S
H6339 C6363 0.951 . S
H6340 C6365 0.951 . S
H6341 C6367 0.950 . S
H6342 C6368 0.950 . S
H6343 C6370 0.950 . S
H6344 C6373 0.950 . S
H6345 C6374 0.950 . S
H6346 C6376 0.950 . S
H6347 C6377 0.950 . S
C6348 H6330 0.951 . S
C6348 C6349 1.366 . S
C6348 C6350 1.388 . S
C6349 C6348 1.366 . S
C6349 C6353 1.385 . S
C6350 H6331 0.951 . S
C6350 C6348 1.388 . S
C6350 C6351 1.366 . S
C6351 C6350 1.366 . S
C6351 C6352 1.414 . S
C6351 C6354 1.499 . S
C6352 H6332 0.950 . S
C6352 C6351 1.414 . S
C6352 C6353 1.374 . S
C6353 H6333 0.950 . S
C6353 C6349 1.385 . S
C6353 C6352 1.374 . S
C6354 C6351 1.499 . S
C6354 C6355 1.373 . S
C6354 C6356 1.389 . S
C6355 H6334 0.951 . S
C6355 C6354 1.373 . S
C6355 C6371 1.377 . S
C6356 C6354 1.389 . S
C6356 C6357 1.524 . S
C6356 C6370 1.377 . S
C6357 C6356 1.524 . S
C6357 C6358 1.397 . S
C6357 C6362 1.363 . S
C6358 H6335 0.950 . S
C6358 C6357 1.397 . S
C6358 C6359 1.334 . S
C6359 H6336 0.950 . S
C6359 C6358 1.334 . S
C6359 C6360 1.287 . S
C6360 C6359 1.287 . S
C6360 C6361 1.524 . S
C6360 H6379 0.913 . S
C6361 H6337 0.950 . S
C6361 C6360 1.524 . S
C6361 C6362 1.415 . S
C6362 H6338 0.950 . S
C6362 C6357 1.363 . S
C6362 C6361 1.415 . S
C6363 H6339 0.951 . S
C6363 C6364 1.366 . S
C6363 C6365 1.388 . S
C6364 C6363 1.366 . S
C6364 C6368 1.385 . S
C6365 H6340 0.951 . S
C6365 C6363 1.388 . S
C6365 C6366 1.366 . S
C6366 C6365 1.366 . S
C6366 C6367 1.414 . S
C6366 C6369 1.499 . S
C6367 H6341 0.950 . S
C6367 C6366 1.414 . S
C6367 C6368 1.374 . S
C6368 H6342 0.950 . S
C6368 C6364 1.385 . S
C6368 C6367 1.374 . S
C6369 C6366 1.499 . S
C6369 C6370 1.373 . S
C6369 C6371 1.389 . S
C6370 H6343 0.950 . S
C6370 C6356 1.377 . S
C6370 C6369 1.373 . S
C6371 C6355 1.377 . S
C6371 C6369 1.389 . S
C6371 C6372 1.524 1_554 S
C6372 C6371 1.524 1_556 S
C6372 C6373 1.397 . S
C6372 C6377 1.363 . S
C6373 H6344 0.950 . S
C6373 C6372 1.397 . S
C6373 C6374 1.334 . S
C6374 H6345 0.950 . S
C6374 C6373 1.334 . S
C6374 C6375 1.287 . S
C6375 C6374 1.287 . S
C6375 C6376 1.524 . S
C6375 H6378 0.999 . S
C6376 H6346 0.950 . S
C6376 C6375 1.524 . S
C6376 C6377 1.415 . S
C6377 H6347 0.950 . S
C6377 C6372 1.363 . S
C6377 C6376 1.415 . S
H6378 C6375 0.999 . S
H6379 C6360 0.913 . S
H6380 C6398 0.951 . S
H6381 C6400 0.951 . S
H6382 C6402 0.950 . S
H6383 C6403 0.950 . S
H6384 C6405 0.950 . S
H6385 C6408 0.950 . S
H6386 C6409 0.950 . S
H6387 C6411 0.950 . S
H6388 C6412 0.950 . S
H6389 C6413 0.951 . S
H6390 C6415 0.951 . S
H6391 C6417 0.950 . S
H6392 C6418 0.950 . S
H6393 C6420 0.950 . S
H6394 C6423 0.950 . S
H6395 C6424 0.950 . S
H6396 C6426 0.950 . S
H6397 C6427 0.950 . S
C6398 H6380 0.951 . S
C6398 C6399 1.366 . S
C6398 C6400 1.388 . S
C6399 C6398 1.366 . S
C6399 C6403 1.385 . S
C6400 H6381 0.951 . S
C6400 C6398 1.388 . S
C6400 C6401 1.366 . S
C6401 C6400 1.366 . S
C6401 C6402 1.414 . S
C6401 C6404 1.499 . S
C6402 H6382 0.950 . S
C6402 C6401 1.414 . S
C6402 C6403 1.374 . S
C6403 H6383 0.950 . S
C6403 C6399 1.385 . S
C6403 C6402 1.374 . S
C6404 C6401 1.499 . S
C6404 C6405 1.373 . S
C6404 C6406 1.389 . S
C6405 H6384 0.950 . S
C6405 C6404 1.373 . S
C6405 C6421 1.377 . S
C6406 C6404 1.389 . S
C6406 C6407 1.524 . S
C6406 C6420 1.377 . S
C6407 C6406 1.524 . S
C6407 C6408 1.397 . S
C6407 C6412 1.363 . S
C6408 H6385 0.950 . S
C6408 C6407 1.397 . S
C6408 C6409 1.334 . S
C6409 H6386 0.950 . S
C6409 C6408 1.334 . S
C6409 C6410 1.287 . S
C6410 C6409 1.287 . S
C6410 C6411 1.524 . S
C6410 H6429 0.913 . S
C6411 H6387 0.950 . S
C6411 C6410 1.524 . S
C6411 C6412 1.415 . S
C6412 H6388 0.950 . S
C6412 C6407 1.363 . S
C6412 C6411 1.415 . S
C6413 H6389 0.951 . S
C6413 C6414 1.366 . S
C6413 C6415 1.388 . S
C6414 C6413 1.366 . S
C6414 C6418 1.385 . S
C6415 H6390 0.951 . S
C6415 C6413 1.388 . S
C6415 C6416 1.366 . S
C6416 C6415 1.366 . S
C6416 C6417 1.414 . S
C6416 C6419 1.499 . S
C6417 H6391 0.950 . S
C6417 C6416 1.414 . S
C6417 C6418 1.374 . S
C6418 H6392 0.950 . S
C6418 C6414 1.385 . S
C6418 C6417 1.374 . S
C6419 C6416 1.499 . S
C6419 C6420 1.373 . S
C6419 C6421 1.389 . S
C6420 H6393 0.950 . S
C6420 C6406 1.377 . S
C6420 C6419 1.373 . S
C6421 C6405 1.377 . S
C6421 C6419 1.389 . S
C6421 C6422 1.524 . S
C6422 C6421 1.524 . S
C6422 C6423 1.397 . S
C6422 C6427 1.363 . S
C6423 H6394 0.950 . S
C6423 C6422 1.397 . S
C6423 C6424 1.334 . S
C6424 H6395 0.950 . S
C6424 C6423 1.334 . S
C6424 C6425 1.287 . S
C6425 C6424 1.287 . S
C6425 C6426 1.524 . S
C6425 H6428 0.999 . S
C6426 H6396 0.950 . S
C6426 C6425 1.524 . S
C6426 C6427 1.415 . S
C6427 H6397 0.950 . S
C6427 C6422 1.363 . S
C6427 C6426 1.415 . S
H6428 C6425 0.999 . S
H6429 C6410 0.913 . S
H6430 C6448 0.951 . S
H6431 C6450 0.951 . S
H6432 C6452 0.950 . S
H6433 C6453 0.950 . S
H6434 C6455 0.950 . S
H6435 C6458 0.950 . S
H6436 C6459 0.950 . S
H6437 C6461 0.950 . S
H6438 C6462 0.950 . S
H6439 C6463 0.951 . S
H6440 C6465 0.951 . S
H6441 C6467 0.950 . S
H6442 C6468 0.950 . S
H6443 C6470 0.950 . S
H6444 C6473 0.950 . S
H6445 C6474 0.950 . S
H6446 C6476 0.950 . S
H6447 C6477 0.950 . S
C6448 H6430 0.951 . S
C6448 C6449 1.366 . S
C6448 C6450 1.388 . S
C6449 C6448 1.366 . S
C6449 C6453 1.385 . S
C6450 H6431 0.951 . S
C6450 C6448 1.388 . S
C6450 C6451 1.366 . S
C6451 C6450 1.366 . S
C6451 C6452 1.414 . S
C6451 C6454 1.499 . S
C6452 H6432 0.950 . S
C6452 C6451 1.414 . S
C6452 C6453 1.374 . S
C6453 H6433 0.950 . S
C6453 C6449 1.385 . S
C6453 C6452 1.374 . S
C6454 C6451 1.499 . S
C6454 C6455 1.373 . S
C6454 C6456 1.389 . S
C6455 H6434 0.950 . S
C6455 C6454 1.373 . S
C6455 C6471 1.377 . S
C6456 C6454 1.389 . S
C6456 C6457 1.524 . S
C6456 C6470 1.377 . S
C6457 C6456 1.524 . S
C6457 C6458 1.397 . S
C6457 C6462 1.363 . S
C6458 H6435 0.950 . S
C6458 C6457 1.397 . S
C6458 C6459 1.334 . S
C6459 H6436 0.950 . S
C6459 C6458 1.334 . S
C6459 C6460 1.287 . S
C6460 C6459 1.287 . S
C6460 C6461 1.524 . S
C6460 H6479 0.913 . S
C6461 H6437 0.950 . S
C6461 C6460 1.524 . S
C6461 C6462 1.415 . S
C6462 H6438 0.950 . S
C6462 C6457 1.363 . S
C6462 C6461 1.415 . S
C6463 H6439 0.951 . S
C6463 C6464 1.366 . S
C6463 C6465 1.388 . S
C6464 C6463 1.366 . S
C6464 C6468 1.385 . S
C6465 H6440 0.951 . S
C6465 C6463 1.388 . S
C6465 C6466 1.366 . S
C6466 C6465 1.366 . S
C6466 C6467 1.414 . S
C6466 C6469 1.499 . S
C6467 H6441 0.950 . S
C6467 C6466 1.414 . S
C6467 C6468 1.374 . S
C6468 H6442 0.950 . S
C6468 C6464 1.385 . S
C6468 C6467 1.374 . S
C6469 C6466 1.499 . S
C6469 C6470 1.373 . S
C6469 C6471 1.389 . S
C6470 H6443 0.950 . S
C6470 C6456 1.377 . S
C6470 C6469 1.373 . S
C6471 C6455 1.377 . S
C6471 C6469 1.389 . S
C6471 C6472 1.524 . S
C6472 C6471 1.524 . S
C6472 C6473 1.397 . S
C6472 C6477 1.363 . S
C6473 H6444 0.950 . S
C6473 C6472 1.397 . S
C6473 C6474 1.334 . S
C6474 H6445 0.950 . S
C6474 C6473 1.334 . S
C6474 C6475 1.287 . S
C6475 C6474 1.287 . S
C6475 C6476 1.524 . S
C6475 H6478 0.999 . S
C6476 H6446 0.950 . S
C6476 C6475 1.524 . S
C6476 C6477 1.415 . S
C6477 H6447 0.950 . S
C6477 C6472 1.363 . S
C6477 C6476 1.415 . S
H6478 C6475 0.999 . S
H6479 C6460 0.913 . S
C1699 C109 1.934 1_455 S
C1714 C403 1.955 . S
C1749 C65 1.833 . S
C1764 C476 1.815 . S
C1799 C75 1.796 . S
C1814 C571 1.799 . S
C1864 C646 1.484 . S
C1849 C84 1.599 . S
C1899 C25 1.572 . S
C1914 C730 1.467 . S
C1964 C823 1.734 . S
C1949 C28 1.730 . S
C2014 C896 1.841 . S
C1999 C47 1.848 . S
C2049 C9 1.936 . S
C2064 C991 1.959 . S
C2114 C392 1.616 . S
C2099 C233 1.650 . S
C2149 C249 0.830 . S
C2164 C478 0.812 . S
C2214 C560 1.110 . S
C2199 C275 1.124 . S
C2264 C655 1.605 . S
C2249 C173 1.658 . S
C2299 C224 1.649 . S
C2314 C739 1.656 . S
C2364 C812 1.113 . S
C2349 C243 1.123 . S
C2414 C898 0.849 . S
C2399 C266 0.875 . S
C2464 C980 1.471 . S
C2449 C179 1.499 . S
C2514 C394 0.908 1_565 S
C2499 C163 0.936 . S
C2549 C289 1.675 . S
C2564 C1064 1.649 . S
C2614 C1150 1.251 . S
C2599 C333 1.322 . S
C2664 C1243 0.727 . S
C2649 C308 0.727 . S
C2699 C123 0.904 . S
C2714 C982 0.884 . S
C2749 C126 1.405 . S
C2764 C562 1.332 . S
C2799 C327 1.707 . S
C2814 C1316 1.688 . S
C2864 C1411 0.862 . S
C2849 C299 0.863 . S
C2914 C391 1.978 . S
C2899 C67 1.978 . S
C2964 C1412 1.857 . S
C2949 C98 1.840 . S
C2999 C89 1.834 . S
C3014 C559 1.838 . S
C3049 C79 1.659 . S
C3064 C1330 1.528 . S
C3114 C742 1.492 . S
C3099 C11 1.605 . S
C3149 C51 1.767 . S
C3164 C1147 1.784 . S
C3214 C908 1.900 1_556 S
C3199 C33 1.909 . S
C3264 C1483 1.973 . S
C3249 C14 1.976 . S
C3314 C404 1.614 . S
C3299 C140 1.657 . S
C3364 C1414 0.830 . S
C3349 C319 0.852 . S
C3399 C112 1.137 . S
C3414 C572 1.135 . S
C3449 C285 1.636 . S
C3464 C1315 1.634 . S
C3499 C149 1.700 . S
C3514 C727 1.704 . S
C3564 C1160 1.167 . S
C3549 C313 1.179 . S
C3599 C121 0.949 . S
C3614 C910 0.902 . S
C3649 C291 1.552 . S
C3664 C1496 1.520 . S
C3699 C182 0.938 . S
C3714 C406 0.902 . S
C3749 C168 1.682 . S
C3764 C1076 1.678 . S
C3799 C263 1.364 . S
C3814 C826 1.284 . S
C3849 C247 0.789 . S
C3864 C1231 0.790 . S
C3914 C1498 0.885 . S
C3899 C277 0.910 1_565 S
C3949 C219 1.450 . S
C3964 C574 1.353 . S
C4014 C656 1.736 . S
C3999 C257 1.758 . S
C4064 C475 0.879 . S
C4049 C201 0.879 . S
C4099 C81 1.947 . S
C4114 C1579 1.955 . S
C4164 C1400 1.815 . S
C4149 C93 1.833 . S
C4199 C103 1.796 . S
C4214 C1663 1.799 . S
C4249 C56 1.642 . S
C4264 C1318 1.486 . S
C4299 C53 1.572 . S
C4314 C1066 1.467 . S
C4364 C1159 1.734 . S
C4349 C0 1.731 1_655 S
C4414 C1232 1.841 . S
C4399 C19 1.848 . S
C4464 C1495 1.959 . S
C4449 C37 1.937 . S
C4514 C1568 1.616 . S
C4499 C261 1.650 . S
C4549 C193 0.830 1_556 S
C4564 C1402 0.812 . S
C4614 C1652 1.110 . S
C4599 C205 1.124 . S
C4664 C1327 1.605 . S
C4649 C215 1.607 . S
C4714 C1075 1.655 . S
C4699 C252 1.649 . S
C4749 C187 1.122 . S
C4764 C1148 1.113 . S
C4814 C1234 0.847 . S
C4799 C196 0.875 . S
C4849 C221 1.499 . S
C4864 C1484 1.470 . S
C4914 C1570 0.907 . S
C4899 C317 0.936 . S
C4949 C135 1.675 . S
C4964 C728 1.650 . S
C5014 C814 1.252 . S
C4999 C151 1.321 . S
C5064 C907 0.727 . S
C5049 C154 0.727 . S
C5114 C1486 0.881 . S
C5099 C305 0.905 . S
C5149 C280 1.405 . S
C5164 C1654 1.333 . S
C5214 C644 1.687 . S
C5199 C145 1.707 . S
C5264 C487 0.862 . S
C5249 C117 0.863 . S
C5299 C95 1.978 . S
C5314 C1567 1.977 . S
C5364 C488 1.857 . S
C5349 C70 1.840 . S
C5399 C61 1.834 . S
C5414 C1651 1.839 . S
C5449 C107 1.659 . S
C5464 C658 1.528 . S
C5499 C39 1.605 . S
C5514 C1078 1.492 . S
C5564 C811 1.784 . S
C5549 C23 1.767 . S
C5599 C5 1.908 . S
C5614 C1244 1.900 . S
C5649 C42 1.976 . S
C5664 C979 1.973 . S
C5714 C1580 1.615 . S
C5699 C322 1.657 . S
C5749 C165 0.852 . S
C5764 C490 0.824 . S
C5814 C1664 1.128 1_655 S
C5799 C294 1.137 . S
C5849 C131 1.635 . S
C5864 C643 1.634 . S
C5899 C331 1.700 . S
C5914 C1063 1.703 . S
C5964 C824 1.169 . S
C5949 C159 1.187 . S
C5999 C303 0.949 . S
C6014 C1246 0.902 . S
C6064 C992 1.520 . S
C6049 C137 1.552 . S
C6114 C1582 0.904 . S
C6099 C238 0.938 . S
C6164 C740 1.677 1_565 S
C6149 C210 1.683 . S
C6199 C235 1.364 . S
C6214 C1162 1.284 . S
C6264 C895 0.790 . S
C6249 C191 0.789 . S
C6299 C207 0.911 . S
C6314 C994 0.883 . S
C6349 C177 1.450 . S
C6364 C1666 1.354 . S
C6414 C1328 1.737 . S
C6399 C229 1.758 . S
C6464 C1399 0.879 . S
C6449 C271 0.879 . S
