# Generated by pormake.
# Topology gar, (4,6)-cn, num edge types: 1
# Building blocks:
#     Node 0, Type 0, BuildingBlock: UXUYUI_clean_sbu_0, # of connection points: 4
#     Node 1, Type 0, BuildingBlock: UXUYUI_clean_sbu_0, # of connection points: 4
#     Node 2, Type 0, BuildingBlock: UXUYUI_clean_sbu_0, # of connection points: 4
#     Node 3, Type 0, BuildingBlock: UXUYUI_clean_sbu_0, # of connection points: 4
#     Node 4, Type 0, BuildingBlock: UXUYUI_clean_sbu_0, # of connection points: 4
#     Node 5, Type 0, BuildingBlock: UXUYUI_clean_sbu_0, # of connection points: 4
#     Node 6, Type 0, BuildingBlock: UXUYUI_clean_sbu_0, # of connection points: 4
#     Node 7, Type 0, BuildingBlock: UXUYUI_clean_sbu_0, # of connection points: 4
#     Node 8, Type 0, BuildingBlock: UXUYUI_clean_sbu_0, # of connection points: 4
#     Node 9, Type 0, BuildingBlock: UXUYUI_clean_sbu_0, # of connection points: 4
#     Node 10, Type 0, BuildingBlock: UXUYUI_clean_sbu_0, # of connection points: 4
#     Node 11, Type 0, BuildingBlock: UXUYUI_clean_sbu_0, # of connection points: 4
#     Node 12, Type 0, BuildingBlock: UXUYUI_clean_sbu_0, # of connection points: 4
#     Node 13, Type 0, BuildingBlock: UXUYUI_clean_sbu_0, # of connection points: 4
#     Node 14, Type 0, BuildingBlock: UXUYUI_clean_sbu_0, # of connection points: 4
#     Node 15, Type 0, BuildingBlock: UXUYUI_clean_sbu_0, # of connection points: 4
#     Node 16, Type 0, BuildingBlock: UXUYUI_clean_sbu_0, # of connection points: 4
#     Node 17, Type 0, BuildingBlock: UXUYUI_clean_sbu_0, # of connection points: 4
#     Node 18, Type 0, BuildingBlock: UXUYUI_clean_sbu_0, # of connection points: 4
#     Node 19, Type 0, BuildingBlock: UXUYUI_clean_sbu_0, # of connection points: 4
#     Node 20, Type 0, BuildingBlock: UXUYUI_clean_sbu_0, # of connection points: 4
#     Node 21, Type 0, BuildingBlock: UXUYUI_clean_sbu_0, # of connection points: 4
#     Node 22, Type 0, BuildingBlock: UXUYUI_clean_sbu_0, # of connection points: 4
#     Node 23, Type 0, BuildingBlock: UXUYUI_clean_sbu_0, # of connection points: 4
#     Node 24, Type 1, BuildingBlock: BETDAH_clean_sbu_0, # of connection points: 6
#     Node 25, Type 1, BuildingBlock: BETDAH_clean_sbu_0, # of connection points: 6
#     Node 26, Type 1, BuildingBlock: BETDAH_clean_sbu_0, # of connection points: 6
#     Node 27, Type 1, BuildingBlock: BETDAH_clean_sbu_0, # of connection points: 6
#     Node 28, Type 1, BuildingBlock: BETDAH_clean_sbu_0, # of connection points: 6
#     Node 29, Type 1, BuildingBlock: BETDAH_clean_sbu_0, # of connection points: 6
#     Node 30, Type 1, BuildingBlock: BETDAH_clean_sbu_0, # of connection points: 6
#     Node 31, Type 1, BuildingBlock: BETDAH_clean_sbu_0, # of connection points: 6
#     Node 32, Type 1, BuildingBlock: BETDAH_clean_sbu_0, # of connection points: 6
#     Node 33, Type 1, BuildingBlock: BETDAH_clean_sbu_0, # of connection points: 6
#     Node 34, Type 1, BuildingBlock: BETDAH_clean_sbu_0, # of connection points: 6
#     Node 35, Type 1, BuildingBlock: BETDAH_clean_sbu_0, # of connection points: 6
#     Node 36, Type 1, BuildingBlock: BETDAH_clean_sbu_0, # of connection points: 6
#     Node 37, Type 1, BuildingBlock: BETDAH_clean_sbu_0, # of connection points: 6
#     Node 38, Type 1, BuildingBlock: BETDAH_clean_sbu_0, # of connection points: 6
#     Node 39, Type 1, BuildingBlock: BETDAH_clean_sbu_0, # of connection points: 6
#     Edge 40, Type (0, 1), BuildingBlock: CIFDUS_clean_linker_0, # of connection points: 2
#     Edge 41, Type (0, 1), BuildingBlock: CIFDUS_clean_linker_0, # of connection points: 2
#     Edge 42, Type (0, 1), BuildingBlock: CIFDUS_clean_linker_0, # of connection points: 2
#     Edge 43, Type (0, 1), BuildingBlock: CIFDUS_clean_linker_0, # of connection points: 2
#     Edge 44, Type (0, 1), BuildingBlock: CIFDUS_clean_linker_0, # of connection points: 2
#     Edge 45, Type (0, 1), BuildingBlock: CIFDUS_clean_linker_0, # of connection points: 2
#     Edge 46, Type (0, 1), BuildingBlock: CIFDUS_clean_linker_0, # of connection points: 2
#     Edge 47, Type (0, 1), BuildingBlock: CIFDUS_clean_linker_0, # of connection points: 2
#     Edge 48, Type (0, 1), BuildingBlock: CIFDUS_clean_linker_0, # of connection points: 2
#     Edge 49, Type (0, 1), BuildingBlock: CIFDUS_clean_linker_0, # of connection points: 2
#     Edge 50, Type (0, 1), BuildingBlock: CIFDUS_clean_linker_0, # of connection points: 2
#     Edge 51, Type (0, 1), BuildingBlock: CIFDUS_clean_linker_0, # of connection points: 2
#     Edge 52, Type (0, 1), BuildingBlock: CIFDUS_clean_linker_0, # of connection points: 2
#     Edge 53, Type (0, 1), BuildingBlock: CIFDUS_clean_linker_0, # of connection points: 2
#     Edge 54, Type (0, 1), BuildingBlock: CIFDUS_clean_linker_0, # of connection points: 2
#     Edge 55, Type (0, 1), BuildingBlock: CIFDUS_clean_linker_0, # of connection points: 2
#     Edge 56, Type (0, 1), BuildingBlock: CIFDUS_clean_linker_0, # of connection points: 2
#     Edge 57, Type (0, 1), BuildingBlock: CIFDUS_clean_linker_0, # of connection points: 2
#     Edge 58, Type (0, 1), BuildingBlock: CIFDUS_clean_linker_0, # of connection points: 2
#     Edge 59, Type (0, 1), BuildingBlock: CIFDUS_clean_linker_0, # of connection points: 2
#     Edge 60, Type (0, 1), BuildingBlock: CIFDUS_clean_linker_0, # of connection points: 2
#     Edge 61, Type (0, 1), BuildingBlock: CIFDUS_clean_linker_0, # of connection points: 2
#     Edge 62, Type (0, 1), BuildingBlock: CIFDUS_clean_linker_0, # of connection points: 2
#     Edge 63, Type (0, 1), BuildingBlock: CIFDUS_clean_linker_0, # of connection points: 2
#     Edge 64, Type (0, 1), BuildingBlock: CIFDUS_clean_linker_0, # of connection points: 2
#     Edge 65, Type (0, 1), BuildingBlock: CIFDUS_clean_linker_0, # of connection points: 2
#     Edge 66, Type (0, 1), BuildingBlock: CIFDUS_clean_linker_0, # of connection points: 2
#     Edge 67, Type (0, 1), BuildingBlock: CIFDUS_clean_linker_0, # of connection points: 2
#     Edge 68, Type (0, 1), BuildingBlock: CIFDUS_clean_linker_0, # of connection points: 2
#     Edge 69, Type (0, 1), BuildingBlock: CIFDUS_clean_linker_0, # of connection points: 2
#     Edge 70, Type (0, 1), BuildingBlock: CIFDUS_clean_linker_0, # of connection points: 2
#     Edge 71, Type (0, 1), BuildingBlock: CIFDUS_clean_linker_0, # of connection points: 2
#     Edge 72, Type (0, 1), BuildingBlock: CIFDUS_clean_linker_0, # of connection points: 2
#     Edge 73, Type (0, 1), BuildingBlock: CIFDUS_clean_linker_0, # of connection points: 2
#     Edge 74, Type (0, 1), BuildingBlock: CIFDUS_clean_linker_0, # of connection points: 2
#     Edge 75, Type (0, 1), BuildingBlock: CIFDUS_clean_linker_0, # of connection points: 2
#     Edge 76, Type (0, 1), BuildingBlock: CIFDUS_clean_linker_0, # of connection points: 2
#     Edge 77, Type (0, 1), BuildingBlock: CIFDUS_clean_linker_0, # of connection points: 2
#     Edge 78, Type (0, 1), BuildingBlock: CIFDUS_clean_linker_0, # of connection points: 2
#     Edge 79, Type (0, 1), BuildingBlock: CIFDUS_clean_linker_0, # of connection points: 2
#     Edge 80, Type (0, 1), BuildingBlock: CIFDUS_clean_linker_0, # of connection points: 2
#     Edge 81, Type (0, 1), BuildingBlock: CIFDUS_clean_linker_0, # of connection points: 2
#     Edge 82, Type (0, 1), BuildingBlock: CIFDUS_clean_linker_0, # of connection points: 2
#     Edge 83, Type (0, 1), BuildingBlock: CIFDUS_clean_linker_0, # of connection points: 2
#     Edge 84, Type (0, 1), BuildingBlock: CIFDUS_clean_linker_0, # of connection points: 2
#     Edge 85, Type (0, 1), BuildingBlock: CIFDUS_clean_linker_0, # of connection points: 2
#     Edge 86, Type (0, 1), BuildingBlock: CIFDUS_clean_linker_0, # of connection points: 2
#     Edge 87, Type (0, 1), BuildingBlock: CIFDUS_clean_linker_0, # of connection points: 2
#     Edge 88, Type (0, 1), BuildingBlock: CIFDUS_clean_linker_0, # of connection points: 2
#     Edge 89, Type (0, 1), BuildingBlock: CIFDUS_clean_linker_0, # of connection points: 2
#     Edge 90, Type (0, 1), BuildingBlock: CIFDUS_clean_linker_0, # of connection points: 2
#     Edge 91, Type (0, 1), BuildingBlock: CIFDUS_clean_linker_0, # of connection points: 2
#     Edge 92, Type (0, 1), BuildingBlock: CIFDUS_clean_linker_0, # of connection points: 2
#     Edge 93, Type (0, 1), BuildingBlock: CIFDUS_clean_linker_0, # of connection points: 2
#     Edge 94, Type (0, 1), BuildingBlock: CIFDUS_clean_linker_0, # of connection points: 2
#     Edge 95, Type (0, 1), BuildingBlock: CIFDUS_clean_linker_0, # of connection points: 2
#     Edge 96, Type (0, 1), BuildingBlock: CIFDUS_clean_linker_0, # of connection points: 2
#     Edge 97, Type (0, 1), BuildingBlock: CIFDUS_clean_linker_0, # of connection points: 2
#     Edge 98, Type (0, 1), BuildingBlock: CIFDUS_clean_linker_0, # of connection points: 2
#     Edge 99, Type (0, 1), BuildingBlock: CIFDUS_clean_linker_0, # of connection points: 2
#     Edge 100, Type (0, 1), BuildingBlock: CIFDUS_clean_linker_0, # of connection points: 2
#     Edge 101, Type (0, 1), BuildingBlock: CIFDUS_clean_linker_0, # of connection points: 2
#     Edge 102, Type (0, 1), BuildingBlock: CIFDUS_clean_linker_0, # of connection points: 2
#     Edge 103, Type (0, 1), BuildingBlock: CIFDUS_clean_linker_0, # of connection points: 2
#     Edge 104, Type (0, 1), BuildingBlock: CIFDUS_clean_linker_0, # of connection points: 2
#     Edge 105, Type (0, 1), BuildingBlock: CIFDUS_clean_linker_0, # of connection points: 2
#     Edge 106, Type (0, 1), BuildingBlock: CIFDUS_clean_linker_0, # of connection points: 2
#     Edge 107, Type (0, 1), BuildingBlock: CIFDUS_clean_linker_0, # of connection points: 2
#     Edge 108, Type (0, 1), BuildingBlock: CIFDUS_clean_linker_0, # of connection points: 2
#     Edge 109, Type (0, 1), BuildingBlock: CIFDUS_clean_linker_0, # of connection points: 2
#     Edge 110, Type (0, 1), BuildingBlock: CIFDUS_clean_linker_0, # of connection points: 2
#     Edge 111, Type (0, 1), BuildingBlock: CIFDUS_clean_linker_0, # of connection points: 2
#     Edge 112, Type (0, 1), BuildingBlock: CIFDUS_clean_linker_0, # of connection points: 2
#     Edge 113, Type (0, 1), BuildingBlock: CIFDUS_clean_linker_0, # of connection points: 2
#     Edge 114, Type (0, 1), BuildingBlock: CIFDUS_clean_linker_0, # of connection points: 2
#     Edge 115, Type (0, 1), BuildingBlock: CIFDUS_clean_linker_0, # of connection points: 2
#     Edge 116, Type (0, 1), BuildingBlock: CIFDUS_clean_linker_0, # of connection points: 2
#     Edge 117, Type (0, 1), BuildingBlock: CIFDUS_clean_linker_0, # of connection points: 2
#     Edge 118, Type (0, 1), BuildingBlock: CIFDUS_clean_linker_0, # of connection points: 2
#     Edge 119, Type (0, 1), BuildingBlock: CIFDUS_clean_linker_0, # of connection points: 2
#     Edge 120, Type (0, 1), BuildingBlock: CIFDUS_clean_linker_0, # of connection points: 2
#     Edge 121, Type (0, 1), BuildingBlock: CIFDUS_clean_linker_0, # of connection points: 2
#     Edge 122, Type (0, 1), BuildingBlock: CIFDUS_clean_linker_0, # of connection points: 2
#     Edge 123, Type (0, 1), BuildingBlock: CIFDUS_clean_linker_0, # of connection points: 2
#     Edge 124, Type (0, 1), BuildingBlock: CIFDUS_clean_linker_0, # of connection points: 2
#     Edge 125, Type (0, 1), BuildingBlock: CIFDUS_clean_linker_0, # of connection points: 2
#     Edge 126, Type (0, 1), BuildingBlock: CIFDUS_clean_linker_0, # of connection points: 2
#     Edge 127, Type (0, 1), BuildingBlock: CIFDUS_clean_linker_0, # of connection points: 2
#     Edge 128, Type (0, 1), BuildingBlock: CIFDUS_clean_linker_0, # of connection points: 2
#     Edge 129, Type (0, 1), BuildingBlock: CIFDUS_clean_linker_0, # of connection points: 2
#     Edge 130, Type (0, 1), BuildingBlock: CIFDUS_clean_linker_0, # of connection points: 2
#     Edge 131, Type (0, 1), BuildingBlock: CIFDUS_clean_linker_0, # of connection points: 2
#     Edge 132, Type (0, 1), BuildingBlock: CIFDUS_clean_linker_0, # of connection points: 2
#     Edge 133, Type (0, 1), BuildingBlock: CIFDUS_clean_linker_0, # of connection points: 2
#     Edge 134, Type (0, 1), BuildingBlock: CIFDUS_clean_linker_0, # of connection points: 2
#     Edge 135, Type (0, 1), BuildingBlock: CIFDUS_clean_linker_0, # of connection points: 2
# Relax obj value: 0.210
# Max RMSD: 0.295
# Mean RMSD: 0.200
data_MOF--net-gar--node1-UXUYUI_clean_sbu_0--node2-BETDAH_clean_sbu_0--edge1-CIFDUS_clean_linker_0
_symmetry_space_group_name_H-M    P1
_symmetry_Int_Tables_number       1
_symmetry_cell_setting            triclinic
loop_
_symmetry_equiv_pos_as_xyz
'x, y, z'
_cell_length_a     68.130712
_cell_length_b     63.166146
_cell_length_c     63.249628
_cell_angle_alpha  99.062686
_cell_angle_beta   95.342895
_cell_angle_gamma 102.94739
loop_
_atom_site_label
_atom_site_type_symbol
_atom_site_fract_x
_atom_site_fract_y
_atom_site_fract_z
_atom_type_partial_charge
Li0 Li 0.08388 0.32321 0.36825 0.0
Li1 Li 0.10471 0.3481 0.40045 0.0
Li2 Li 0.12 0.32676 0.373 0.0
Li3 Li 0.09874 0.30757 0.39792 0.0
C4 C 0.10249 0.36327 0.35494 0.0
N5 N 0.09586 0.38962 0.32534 0.0
C6 C 0.09457 0.38162 0.36092 0.0
C7 C 0.10708 0.35839 0.3339 0.0
C8 C 0.09133 0.39472 0.34572 0.0
C9 C 0.10359 0.37188 0.31917 0.0
C10 C 0.06222 0.32626 0.40844 0.0
C11 C 0.04243 0.31788 0.43709 0.0
N12 N 0.02782 0.32666 0.42828 0.0
C13 C 0.04709 0.33533 0.39975 0.0
C14 C 0.05992 0.31751 0.4273 0.0
C15 C 0.02977 0.33532 0.40999 0.0
C16 C 0.04865 0.29549 0.34524 0.0
N17 N 0.05995 0.31668 0.34861 0.0
C18 C 0.03442 0.32731 0.32731 0.0
C19 C 0.05333 0.33247 0.33976 0.0
C20 C 0.02215 0.3057 0.32401 0.0
C21 C 0.02962 0.28954 0.33279 0.0
H22 H 0.05413 0.28338 0.35288 0.0
H23 H 0.06212 0.3493 0.3432 0.0
C24 C 0.11642 0.39436 0.41522 0.0
N25 N 0.10689 0.37458 0.41979 0.0
C26 C 0.11316 0.41391 0.42639 0.0
C27 C 0.09181 0.39226 0.44772 0.0
C28 C 0.09567 0.37327 0.43638 0.0
C29 C 0.09996 0.41269 0.44213 0.0
H30 H 0.12532 0.39481 0.40193 0.0
H31 H 0.08876 0.35738 0.43999 0.0
C32 C 0.09556 0.28385 0.34808 0.0
N33 N 0.08943 0.25248 0.31084 0.0
C34 C 0.09321 0.26156 0.34935 0.0
C35 C 0.09478 0.29022 0.32792 0.0
C36 C 0.09013 0.24594 0.33033 0.0
C37 C 0.09167 0.2741 0.30926 0.0
C38 C 0.1403 0.33684 0.42179 0.0
C39 C 0.1604 0.33861 0.41786 0.0
C40 C 0.13603 0.34148 0.44296 0.0
C41 C 0.17597 0.34497 0.43526 0.0
C42 C 0.15205 0.3479 0.45993 0.0
N43 N 0.17151 0.34946 0.45576 0.0
C44 C 0.15214 0.34587 0.35311 0.0
C45 C 0.14797 0.30756 0.35331 0.0
C46 C 0.16829 0.34606 0.34119 0.0
N47 N 0.14229 0.32675 0.35858 0.0
C48 C 0.16418 0.30701 0.3416 0.0
C49 C 0.17443 0.32642 0.33524 0.0
H50 H 0.14725 0.36088 0.35781 0.0
H51 H 0.13988 0.29272 0.35821 0.0
C52 C 0.07433 0.26987 0.40529 0.0
N53 N 0.09268 0.28414 0.41246 0.0
C54 C 0.06738 0.25254 0.41592 0.0
C55 C 0.09859 0.26485 0.44089 0.0
C56 C 0.10492 0.28201 0.42978 0.0
C57 C 0.07954 0.24997 0.43402 0.0
H58 H 0.06498 0.27227 0.3915 0.0
H59 H 0.11938 0.29378 0.43512 0.0
O60 O 0.10609 0.35048 0.36974 0.0
O61 O 0.07908 0.32564 0.39841 0.0
O62 O 0.0982 0.29923 0.36657 0.0
O63 O 0.12491 0.33013 0.40493 0.0
H64 H 0.09057 0.38545 0.37698 0.0
H65 H 0.11338 0.34441 0.329 0.0
H66 H 0.08512 0.40889 0.35011 0.0
H67 H 0.10707 0.36828 0.30284 0.0
H68 H 0.04047 0.31119 0.4517 0.0
H69 H 0.04869 0.34233 0.38528 0.0
H70 H 0.07162 0.31073 0.43444 0.0
H71 H 0.01789 0.3422 0.4034 0.0
H72 H 0.02901 0.34046 0.32142 0.0
H73 H 0.02059 0.27272 0.33067 0.0
H74 H 0.11971 0.42955 0.42186 0.0
H75 H 0.08181 0.39093 0.46007 0.0
H76 H 0.09372 0.25638 0.36487 0.0
H77 H 0.09633 0.30736 0.32669 0.0
H78 H 0.08827 0.22861 0.33105 0.0
H79 H 0.09096 0.27877 0.29353 0.0
H80 H 0.16392 0.33493 0.40155 0.0
H81 H 0.12052 0.34002 0.44625 0.0
H82 H 0.19159 0.3463 0.43248 0.0
H83 H 0.149 0.35155 0.47642 0.0
H84 H 0.17572 0.36131 0.33649 0.0
H85 H 0.16875 0.29165 0.33779 0.0
H86 H 0.05271 0.24126 0.41001 0.0
H87 H 0.10829 0.2635 0.45494 0.0
Li88 Li 1.00491 0.7749 0.63858 0.0
Li89 Li 0.01838 0.76238 0.67031 0.0
Li90 Li 1.00126 0.73559 0.63751 0.0
Li91 Li 0.98196 0.75476 0.66159 0.0
C92 C 0.03998 0.76067 0.62676 0.0
N93 N 0.06745 0.76248 0.59726 0.0
C94 C 0.06083 0.76712 0.63391 0.0
C95 C 0.03305 0.75514 0.60464 0.0
C96 C 0.07449 0.76793 0.61874 0.0
C97 C 0.0472 0.75617 0.58997 0.0
C98 C 1.00668 0.80054 0.6869 0.0
C99 C 1.00759 0.81327 0.72504 0.0
N100 N 0.01803 0.83371 0.72295 0.0
C101 C 0.01716 0.82175 0.68504 0.0
C102 C 1.00161 0.79631 0.70698 0.0
C103 C 0.02284 0.83828 0.70349 0.0
C104 C 0.9942 0.80143 0.6102 0.0
N105 N 0.0097 0.79784 0.62313 0.0
C106 C 0.03282 0.82926 0.6157 0.0
C107 C 0.02874 0.81116 0.62602 0.0
C108 C 0.01708 0.83361 0.60239 0.0
C109 C 0.99759 0.81935 0.59955 0.0
H110 H 0.9792 0.79053 0.6084 0.0
H111 H 0.04064 0.80795 0.63671 0.0
C112 C 0.04617 0.7488 0.69478 0.0
N113 N 0.04032 0.76742 0.69192 0.0
C114 C 0.06397 0.7502 0.70797 0.0
C115 C 0.06955 0.79004 0.71516 0.0
C116 C 0.05141 0.78783 0.70191 0.0
C117 C 0.07618 0.77104 0.71763 0.0
H118 H 0.0377 0.73292 0.68574 0.0
H119 H 0.047 0.80243 0.69854 0.0
C120 C 0.96489 0.73797 0.61358 0.0
N121 N 0.93422 0.71313 0.58178 0.0
C122 C 0.94765 0.72448 0.61915 0.0
C123 C 0.96653 0.7389 0.59187 0.0
C124 C 0.93231 0.71202 0.60282 0.0
C125 C 0.95086 0.72618 0.57602 0.0
C126 C 0.997 0.72022 0.68218 0.0
C127 C 0.99439 0.69755 0.67504 0.0
C128 C 0.9989 0.72858 0.70429 0.0
C129 C 0.99373 0.68358 0.69016 0.0
C130 C 0.99819 0.71407 0.71891 0.0
N131 N 0.99564 0.69207 0.7116 0.0
C132 C 0.02246 0.7055 0.62449 0.0
C133 C 0.98756 0.69245 0.61047 0.0
C134 C 0.0265 0.68586 0.61499 0.0
N135 N 1.00337 0.70858 0.6218 0.0
C136 C 0.99084 0.67225 0.60099 0.0
C137 C 0.01059 0.66878 0.60314 0.0
H138 H 0.03458 0.71825 0.63432 0.0
H139 H 0.97239 0.69499 0.60921 0.0
C140 C 0.95118 0.77147 0.6771 0.0
N141 N 0.95876 0.75327 0.67482 0.0
C142 C 0.93563 0.77267 0.68963 0.0
C143 C 0.93597 0.73622 0.69693 0.0
C144 C 0.95128 0.73561 0.68397 0.0
C145 C 0.92815 0.75505 0.70011 0.0
H146 H 0.95764 0.78525 0.66964 0.0
H147 H 0.95753 0.72128 0.68166 0.0
O148 O 0.0265 0.75926 0.64149 0.0
O149 O 1.00142 0.78407 0.6691 0.0
O150 O 0.97963 0.75103 0.62934 0.0
O151 O 0.99819 0.73415 0.66756 0.0
H152 H 0.06638 0.77131 0.65103 0.0
H153 H 0.01693 0.74999 0.59891 0.0
H154 H 0.09068 0.77284 0.62403 0.0
H155 H 0.04209 0.7519 0.57279 0.0
H156 H 1.00393 0.81019 0.74073 0.0
H157 H 0.02106 0.82535 0.66958 0.0
H158 H 0.99319 0.7801 0.7086 0.0
H159 H 0.03113 0.85471 0.70234 0.0
H160 H 0.04798 0.84001 0.61853 0.0
H161 H 0.98512 0.82199 0.58919 0.0
H162 H 0.06893 0.73526 0.70932 0.0
H163 H 0.07901 0.80636 0.72195 0.0
H164 H 0.9461 0.72364 0.63587 0.0
H165 H 0.97968 0.74947 0.58733 0.0
H166 H 0.91887 0.70151 0.60688 0.0
H167 H 0.95189 0.72677 0.55915 0.0
H168 H 0.99291 0.69078 0.65801 0.0
H169 H 1.00115 0.74608 0.71011 0.0
H170 H 0.99174 0.66601 0.68485 0.0
H171 H 0.99974 0.72032 0.73607 0.0
H172 H 0.04202 0.68424 0.61684 0.0
H173 H 0.97801 0.65942 0.59239 0.0
H174 H 0.92967 0.78727 0.69123 0.0
H175 H 0.9307 0.72236 0.7048 0.0
Li176 Li 0.58502 0.82413 0.86531 0.0
Li177 Li 0.60337 0.8508 0.89744 0.0
Li178 Li 0.62127 0.82987 0.872 0.0
Li179 Li 0.60004 0.81161 0.8966 0.0
C180 C 0.60328 0.86399 0.85084 0.0
N181 N 0.59797 0.88822 0.8189 0.0
C182 C 0.59806 0.88422 0.85582 0.0
C183 C 0.6061 0.85628 0.82967 0.0
C184 C 0.59536 0.89617 0.83944 0.0
C185 C 0.60326 0.86871 0.81373 0.0
C186 C 0.56536 0.82918 0.90957 0.0
C187 C 0.55818 0.83241 0.94638 0.0
N188 N 0.53866 0.8324 0.93951 0.0
C189 C 0.54523 0.82917 0.90285 0.0
C190 C 0.57191 0.83076 0.93147 0.0
C191 C 0.53196 0.83083 0.91825 0.0
C192 C 0.55194 0.79568 0.83779 0.0
N193 N 0.56181 0.8172 0.84498 0.0
C194 C 0.53527 0.8293 0.82703 0.0
C195 C 0.55389 0.83394 0.83997 0.0
C196 C 0.52467 0.8072 0.81938 0.0
C197 C 0.53335 0.79025 0.82463 0.0
H198 H 0.55801 0.78269 0.84298 0.0
H199 H 0.56148 0.85085 0.84691 0.0
C200 C 0.61825 0.88726 0.9315 0.0
N201 N 0.60288 0.87678 0.91546 0.0
C202 C 0.61597 0.905 0.94638 0.0
C203 C 0.58265 0.90145 0.92698 0.0
C204 C 0.58542 0.88356 0.91278 0.0
C205 C 0.59792 0.91205 0.94417 0.0
H206 H 0.63205 0.88159 0.93297 0.0
H207 H 0.57351 0.87473 0.89982 0.0
C208 C 0.59773 0.78412 0.84916 0.0
N209 N 0.58986 0.74868 0.81524 0.0
C210 C 0.5926 0.76251 0.85306 0.0
C211 C 0.59899 0.78769 0.82804 0.0
C212 C 0.58867 0.74482 0.8357 0.0
C213 C 0.5949 0.76957 0.8111 0.0
C214 C 0.63959 0.83563 0.92078 0.0
C215 C 0.65796 0.83076 0.91623 0.0
C216 C 0.63639 0.84106 0.94227 0.0
C217 C 0.67284 0.83146 0.93325 0.0
C218 C 0.65164 0.84154 0.95885 0.0
N219 N 0.66941 0.83681 0.95404 0.0
C220 C 0.65296 0.84867 0.85118 0.0
C221 C 0.64986 0.81104 0.85407 0.0
C222 C 0.66897 0.84834 0.83914 0.0
N223 N 0.64379 0.83014 0.85813 0.0
C224 C 0.6659 0.80999 0.84226 0.0
C225 C 0.67551 0.82877 0.83451 0.0
H226 H 0.6476 0.86355 0.85473 0.0
H227 H 0.64216 0.79666 0.85997 0.0
C228 C 0.57455 0.77734 0.90807 0.0
N229 N 0.59423 0.78908 0.91228 0.0
C230 C 0.56774 0.7602 0.91893 0.0
C231 C 0.60174 0.76746 0.93807 0.0
C232 C 0.60791 0.78446 0.92677 0.0
C233 C 0.58142 0.75515 0.93416 0.0
H234 H 0.56418 0.78134 0.89617 0.0
H235 H 0.62352 0.79388 0.92954 0.0
O236 O 0.60607 0.85218 0.86678 0.0
O237 O 0.57843 0.82732 0.89462 0.0
O238 O 0.60097 0.80158 0.86596 0.0
O239 O 0.62529 0.83605 0.90425 0.0
H240 H 0.59612 0.89065 0.87216 0.0
H241 H 0.61061 0.84099 0.8256 0.0
H242 H 0.59124 0.91179 0.84307 0.0
H243 H 0.60535 0.86289 0.79727 0.0
H244 H 0.56304 0.83362 0.9634 0.0
H245 H 0.53993 0.82787 0.88591 0.0
H246 H 0.58737 0.83057 0.93687 0.0
H247 H 0.51633 0.83084 0.91329 0.0
H248 H 0.52878 0.84289 0.82405 0.0
H249 H 0.52555 0.77303 0.81924 0.0
H250 H 0.62805 0.91309 0.95945 0.0
H251 H 0.56853 0.90654 0.92497 0.0
H252 H 0.59157 0.75944 0.86933 0.0
H253 H 0.60285 0.80424 0.82472 0.0
H254 H 0.58462 0.72801 0.83848 0.0
H255 H 0.59568 0.77211 0.79465 0.0
H256 H 0.66081 0.82675 0.89973 0.0
H257 H 0.62238 0.84506 0.94615 0.0
H258 H 0.68716 0.82786 0.92994 0.0
H259 H 0.64938 0.84579 0.97554 0.0
H260 H 0.67594 0.86307 0.83328 0.0
H261 H 0.6708 0.79474 0.83941 0.0
H262 H 0.55206 0.75083 0.91525 0.0
H263 H 0.61269 0.76407 0.94983 0.0
Li264 Li 0.5052 0.27239 0.14098 0.0
Li265 Li 0.51738 0.25758 0.17174 0.0
Li266 Li 0.49825 0.23276 0.13874 0.0
Li267 Li 0.48142 0.25341 0.16382 0.0
C268 C 0.53758 0.25315 0.12758 0.0
N269 N 0.56393 0.25055 0.09718 0.0
C270 C 0.55836 0.25642 0.13414 0.0
C271 C 0.53016 0.24857 0.10558 0.0
C272 C 0.57145 0.25507 0.11852 0.0
C273 C 0.54374 0.24728 0.09045 0.0
C274 C 0.51037 0.29786 0.18949 0.0
C275 C 0.51396 0.31142 0.22782 0.0
N276 N 0.52597 0.33087 0.2251 0.0
C277 C 0.52249 0.3181 0.18702 0.0
C278 C 0.50583 0.29457 0.20999 0.0
C279 C 0.53033 0.33454 0.20524 0.0
C280 C 0.49844 0.30027 0.11236 0.0
N281 N 0.51254 0.29492 0.12574 0.0
C282 C 0.53922 0.32205 0.1168 0.0
C283 C 0.53256 0.30534 0.12823 0.0
C284 C 0.52504 0.32799 0.10283 0.0
C285 C 0.50442 0.31691 0.1006 0.0
H286 H 0.48264 0.29158 0.11082 0.0
H287 H 0.5433 0.30069 0.13922 0.0
C288 C 0.54384 0.24173 0.19668 0.0
N289 N 0.54013 0.26073 0.19175 0.0
C290 C 0.56269 0.24173 0.20697 0.0
C291 C 0.57358 0.28099 0.20723 0.0
C292 C 0.55435 0.28026 0.19706 0.0
C293 C 0.57803 0.26132 0.21144 0.0
H294 H 0.53285 0.22621 0.19107 0.0
H295 H 0.55144 0.29481 0.19179 0.0
C296 C 0.46354 0.23903 0.1155 0.0
N297 N 0.43259 0.21633 0.08305 0.0
C298 C 0.44617 0.2252 0.12045 0.0
C299 C 0.46517 0.24138 0.09408 0.0
C300 C 0.43068 0.21387 0.1038 0.0
C301 C 0.44937 0.2297 0.07789 0.0
C302 C 0.49281 0.21667 0.18324 0.0
C303 C 0.48872 0.19384 0.1761 0.0
C304 C 0.49462 0.22516 0.20531 0.0
C305 C 0.4866 0.17984 0.19121 0.0
C306 C 0.4924 0.21061 0.21991 0.0
N307 N 0.48849 0.18844 0.21262 0.0
C308 C 0.51619 0.20018 0.12836 0.0
C309 C 0.48636 0.1949 0.10357 0.0
C310 C 0.52157 0.18253 0.1164 0.0
N311 N 0.49918 0.20631 0.12151 0.0
C312 C 0.49113 0.17695 0.09108 0.0
C313 C 0.50923 0.17104 0.09726 0.0
H314 H 0.52591 0.20956 0.14285 0.0
H315 H 0.47285 0.19998 0.09856 0.0
C316 C 0.45274 0.2724 0.18171 0.0
N317 N 0.45855 0.25319 0.1773 0.0
C318 C 0.4371 0.27364 0.19411 0.0
C319 C 0.43396 0.23529 0.19713 0.0
C320 C 0.4493 0.23468 0.18424 0.0
C321 C 0.42778 0.25501 0.20236 0.0
H322 H 0.46054 0.2868 0.17589 0.0
H323 H 0.45407 0.21955 0.18013 0.0
O324 O 0.52463 0.25429 0.14273 0.0
O325 O 0.50266 0.28155 0.17184 0.0
O326 O 0.47858 0.2508 0.13161 0.0
O327 O 0.4956 0.23058 0.16866 0.0
H328 H 0.5643 0.25995 0.15115 0.0
H329 H 0.51409 0.24595 0.10028 0.0
H330 H 0.58758 0.25758 0.12336 0.0
H331 H 0.53823 0.24368 0.07335 0.0
H332 H 0.51068 0.30905 0.24381 0.0
H333 H 0.52593 0.32104 0.17124 0.0
H334 H 0.49607 0.27923 0.2121 0.0
H335 H 0.53987 0.35021 0.2036 0.0
H336 H 0.55519 0.33045 0.11911 0.0
H337 H 0.4931 0.32094 0.08977 0.0
H338 H 0.56572 0.22624 0.2099 0.0
H339 H 0.58528 0.29627 0.21002 0.0
H340 H 0.44465 0.22328 0.13694 0.0
H341 H 0.4785 0.25205 0.09 0.0
H342 H 0.41713 0.20314 0.10738 0.0
H343 H 0.45043 0.2313 0.06123 0.0
H344 H 0.48726 0.18701 0.15907 0.0
H345 H 0.49799 0.24277 0.21111 0.0
H346 H 0.4835 0.16214 0.18592 0.0
H347 H 0.49389 0.21694 0.23705 0.0
H348 H 0.53543 0.17815 0.12186 0.0
H349 H 0.48126 0.16838 0.07636 0.0
H350 H 0.43244 0.28901 0.19724 0.0
H351 H 0.42733 0.22061 0.20325 0.0
Li352 Li 0.08737 0.83108 0.10495 0.0
Li353 Li 0.10963 0.81329 0.13166 0.0
Li354 Li 0.08512 0.7905 0.09947 0.0
Li355 Li 0.0703 0.8072 0.13077 0.0
C356 C 0.12006 0.80815 0.08353 0.0
N357 N 0.14034 0.79326 0.05062 0.0
C358 C 0.13888 0.80342 0.08834 0.0
C359 C 0.11164 0.80552 0.062 0.0
C360 C 0.14889 0.79588 0.07146 0.0
C361 C 0.12209 0.79788 0.04558 0.0
C362 C 0.09283 0.85241 0.15441 0.0
C363 C 0.08985 0.86557 0.19157 0.0
N364 N 0.09358 0.88662 0.18777 0.0
C365 C 0.09659 0.87415 0.15084 0.0
C366 C 0.08946 0.84802 0.17491 0.0
C367 C 0.09696 0.89123 0.16794 0.0
C368 C 0.06491 0.86119 0.09341 0.0
N369 N 0.08321 0.85623 0.09157 0.0
C370 C 0.09196 0.88486 0.07058 0.0
C371 C 0.0967 0.86771 0.08037 0.0
C372 C 0.07307 0.89031 0.07212 0.0
C373 C 0.05956 0.87808 0.08387 0.0
H374 H 0.05432 0.85188 0.10228 0.0
H375 H 0.11109 0.86345 0.07881 0.0
C376 C 0.13847 0.79155 0.14767 0.0
N377 N 0.13561 0.81237 0.14894 0.0
C378 C 0.15535 0.78752 0.15943 0.0
C379 C 0.16721 0.82655 0.17311 0.0
C380 C 0.14978 0.82985 0.16123 0.0
C381 C 0.17005 0.80504 0.17263 0.0
H382 H 0.12741 0.77781 0.13761 0.0
H383 H 0.1475 0.84636 0.16211 0.0
C384 C 0.04693 0.79942 0.08345 0.0
N385 N 0.01496 0.78436 0.05032 0.0
C386 C 0.02819 0.78724 0.08727 0.0
C387 C 0.04933 0.80421 0.06288 0.0
C388 C 0.01224 0.77971 0.07027 0.0
C389 C 0.033 0.79637 0.04631 0.0
C390 C 0.08421 0.76967 0.14146 0.0
C391 C 0.07422 0.74805 0.13154 0.0
C392 C 0.09035 0.77456 0.16374 0.0
C393 C 0.07052 0.73165 0.14412 0.0
C394 C 0.08638 0.75768 0.17576 0.0
N395 N 0.07663 0.73676 0.16579 0.0
C396 C 0.09771 0.75294 0.0806 0.0
C397 C 0.06297 0.75104 0.07021 0.0
C398 C 0.09493 0.7306 0.07157 0.0
N399 N 0.08174 0.76261 0.08017 0.0
C400 C 0.05948 0.72866 0.06127 0.0
C401 C 0.07542 0.71799 0.06252 0.0
H402 H 0.11229 0.76209 0.08934 0.0
H403 H 0.05031 0.75856 0.07049 0.0
C404 C 0.03826 0.82044 0.15198 0.0
N405 N 0.04667 0.80306 0.14644 0.0
C406 C 0.01997 0.81752 0.161 0.0
C407 C 0.01921 0.77888 0.15857 0.0
C408 C 0.03742 0.78252 0.14953 0.0
C409 C 0.01001 0.79645 0.16432 0.0
H410 H 0.04546 0.83652 0.14883 0.0
H411 H 0.04381 0.76871 0.14444 0.0
O412 O 0.11012 0.8156 0.09987 0.0
O413 O 0.09228 0.83555 0.1378 0.0
O414 O 0.06288 0.80638 0.09975 0.0
O415 O 0.08801 0.78596 0.12943 0.0
H416 H 0.14568 0.80555 0.10493 0.0
H417 H 0.09716 0.80925 0.05803 0.0
H418 H 0.16344 0.79212 0.07494 0.0
H419 H 0.1157 0.79565 0.02884 0.0
H420 H 0.08718 0.86245 0.20752 0.0
H421 H 0.09928 0.87778 0.13505 0.0
H422 H 0.08644 0.83124 0.17785 0.0
H423 H 0.09991 0.90815 0.16543 0.0
H424 H 0.10288 0.89346 0.06154 0.0
H425 H 0.04497 0.88165 0.08596 0.0
H426 H 0.15678 0.77066 0.15837 0.0
H427 H 0.17795 0.8406 0.18317 0.0
H428 H 0.02607 0.78339 0.10309 0.0
H429 H 0.06364 0.81382 0.05972 0.0
H430 H 0.99771 0.7701 0.07294 0.0
H431 H 0.03467 0.79982 0.03027 0.0
H432 H 0.0692 0.74396 0.11436 0.0
H433 H 0.09809 0.79122 0.17164 0.0
H434 H 0.06277 0.71487 0.13666 0.0
H435 H 0.09105 0.76121 0.19302 0.0
H436 H 0.10757 0.72291 0.0731 0.0
H437 H 0.0442 0.71951 0.05437 0.0
H438 H 0.01343 0.83156 0.1647 0.0
H439 H 0.01238 0.76236 0.16091 0.0
Li440 Li 0.52112 0.79224 0.43674 0.0
Li441 Li 0.49598 0.7699 0.40468 0.0
Li442 Li 0.51743 0.75113 0.43167 0.0
Li443 Li 0.53513 0.77404 0.40571 0.0
C444 C 0.48453 0.77318 0.45258 0.0
N445 N 0.46199 0.78372 0.48501 0.0
C446 C 0.46766 0.78168 0.44812 0.0
C447 C 0.4898 0.76973 0.47343 0.0
C448 C 0.45649 0.78696 0.46476 0.0
C449 C 0.47825 0.77527 0.48964 0.0
C450 C 0.5211 0.81279 0.3947 0.0
C451 C 0.52727 0.82553 0.36139 0.0
N452 N 0.52708 0.84632 0.37098 0.0
C453 C 0.52068 0.83422 0.40414 0.0
C454 C 0.52409 0.8083 0.37305 0.0
C455 C 0.52379 0.85095 0.3919 0.0
C456 C 0.54504 0.83447 0.45498 0.0
N457 N 0.52702 0.82047 0.4563 0.0
C458 C 0.51751 0.84935 0.4794 0.0
C459 C 0.51344 0.82745 0.46849 0.0
C460 C 0.53568 0.86437 0.47767 0.0
C461 C 0.54971 0.85649 0.46557 0.0
H462 H 0.55537 0.82883 0.4447 0.0
H463 H 0.4991 0.81643 0.46924 0.0
C464 C 0.45422 0.75373 0.37804 0.0
N465 N 0.46986 0.77132 0.38756 0.0
C466 C 0.43675 0.7569 0.36607 0.0
C467 C 0.45149 0.79604 0.37406 0.0
C468 C 0.46832 0.79221 0.38609 0.0
C469 C 0.43535 0.77834 0.3636 0.0
H470 H 0.45533 0.73718 0.37944 0.0
H471 H 0.4803 0.80615 0.3942 0.0
C472 C 0.55784 0.78571 0.45327 0.0
N473 N 0.58871 0.80608 0.48661 0.0
C474 C 0.57769 0.79311 0.44887 0.0
C475 C 0.55369 0.78862 0.47462 0.0
C476 C 0.5931 0.80335 0.46596 0.0
C477 C 0.56949 0.79902 0.49125 0.0
C478 C 0.51521 0.7311 0.38212 0.0
C479 C 0.52338 0.71362 0.38664 0.0
C480 C 0.5102 0.73302 0.36071 0.0
C481 C 0.52654 0.69837 0.36955 0.0
C482 C 0.51358 0.71741 0.34407 0.0
N483 N 0.52162 0.70057 0.3488 0.0
C484 C 0.50607 0.70628 0.44323 0.0
C485 C 0.53901 0.72807 0.45704 0.0
C486 C 0.51036 0.68839 0.45213 0.0
N487 N 0.52044 0.7257 0.44562 0.0
C488 C 0.54381 0.71085 0.46636 0.0
C489 C 0.52963 0.69033 0.46373 0.0
H490 H 0.49144 0.7044 0.43391 0.0
H491 H 0.55047 0.74326 0.45865 0.0
C492 C 0.56864 0.79861 0.38821 0.0
N493 N 0.55888 0.77776 0.39 0.0
C494 C 0.58606 0.80227 0.37778 0.0
C495 C 0.58422 0.76321 0.37254 0.0
C496 C 0.56659 0.76023 0.38271 0.0
C497 C 0.59404 0.78443 0.36972 0.0
H498 H 0.56306 0.81253 0.39509 0.0
H499 H 0.55925 0.7439 0.385 0.0
O500 O 0.49568 0.76802 0.43652 0.0
O501 O 0.51878 0.79633 0.40665 0.0
O502 O 0.54263 0.77522 0.43677 0.0
O503 O 0.51176 0.746 0.39862 0.0
H504 H 0.46335 0.78433 0.43203 0.0
H505 H 0.50267 0.7629 0.47705 0.0
H506 H 0.44347 0.79369 0.4616 0.0
H507 H 0.48221 0.77284 0.5059 0.0
H508 H 0.52993 0.82239 0.34472 0.0
H509 H 0.51778 0.8379 0.42066 0.0
H510 H 0.52433 0.79177 0.36548 0.0
H511 H 0.52358 0.86762 0.39904 0.0
H512 H 0.50633 0.85455 0.48874 0.0
H513 H 0.56376 0.86745 0.46339 0.0
H514 H 0.42484 0.74267 0.35818 0.0
H515 H 0.4512 0.81287 0.37274 0.0
H516 H 0.58122 0.7908 0.43247 0.0
H517 H 0.53841 0.78293 0.47829 0.0
H518 H 0.60855 0.80907 0.46281 0.0
H519 H 0.56649 0.80144 0.50784 0.0
H520 H 0.52734 0.71193 0.40314 0.0
H521 H 0.50376 0.74641 0.35701 0.0
H522 H 0.53291 0.6848 0.37278 0.0
H523 H 0.5098 0.71866 0.3274 0.0
H524 H 0.49884 0.67299 0.44933 0.0
H525 H 0.55871 0.71374 0.47547 0.0
H526 H 0.59334 0.81894 0.37619 0.0
H527 H 0.58992 0.74902 0.36658 0.0
Li528 Li 0.58682 0.33002 0.6041 0.0
Li529 Li 0.60928 0.31289 0.63105 0.0
Li530 Li 0.5848 0.28951 0.59929 0.0
Li531 Li 0.56998 0.30639 0.63031 0.0
C532 C 0.61888 0.30584 0.58279 0.0
N533 N 0.63777 0.28843 0.54982 0.0
C534 C 0.63707 0.29978 0.58753 0.0
C535 C 0.61032 0.30315 0.5613 0.0
C536 C 0.6464 0.29101 0.57063 0.0
C537 C 0.62007 0.29424 0.54485 0.0
C538 C 0.59222 0.35167 0.65352 0.0
C539 C 0.58865 0.36455 0.69055 0.0
N540 N 0.59297 0.38571 0.68704 0.0
C541 C 0.59657 0.37351 0.65023 0.0
C542 C 0.58823 0.34709 0.6738 0.0
C543 C 0.59693 0.39051 0.66741 0.0
C544 C 0.56376 0.35861 0.58995 0.0
N545 N 0.58284 0.3552 0.59072 0.0
C546 C 0.59325 0.38593 0.57268 0.0
C547 C 0.59756 0.36853 0.58232 0.0
C548 C 0.57355 0.38971 0.57144 0.0
C549 C 0.55878 0.37564 0.58036 0.0
H550 H 0.55226 0.34799 0.59679 0.0
H551 H 0.61264 0.36562 0.583 0.0
C552 C 0.64083 0.29447 0.64873 0.0
N553 N 0.63548 0.31404 0.64876 0.0
C554 C 0.65908 0.2935 0.66057 0.0
C555 C 0.66642 0.33289 0.67234 0.0
C556 C 0.64795 0.3331 0.66034 0.0
C557 C 0.67241 0.31288 0.67265 0.0
H558 H 0.63094 0.27945 0.6393 0.0
H559 H 0.64361 0.34856 0.6603 0.0
C560 C 0.54627 0.29795 0.58329 0.0
N561 N 0.5136 0.28305 0.55095 0.0
C562 C 0.52808 0.28475 0.58725 0.0
C563 C 0.54781 0.30372 0.56295 0.0
C564 C 0.51174 0.27737 0.57067 0.0
C565 C 0.53113 0.29596 0.54679 0.0
C566 C 0.58394 0.26793 0.63985 0.0
C567 C 0.57045 0.24814 0.62942 0.0
C568 C 0.5929 0.26979 0.66107 0.0
C569 C 0.56635 0.2304 0.64036 0.0
C570 C 0.58832 0.25171 0.67148 0.0
N571 N 0.57528 0.23255 0.66098 0.0
C572 C 0.59574 0.25 0.58384 0.0
C573 C 0.56422 0.25175 0.56597 0.0
C574 C 0.59249 0.2277 0.57433 0.0
N575 N 0.58144 0.26141 0.58001 0.0
C576 C 0.56033 0.22952 0.55619 0.0
C577 C 0.57423 0.21694 0.56086 0.0
H578 H 0.60914 0.25783 0.59536 0.0
H579 H 0.55291 0.26077 0.56306 0.0
C580 C 0.53404 0.3166 0.64486 0.0
N581 N 0.54667 0.30281 0.64643 0.0
C582 C 0.5164 0.31399 0.65505 0.0
C583 C 0.52483 0.28284 0.66806 0.0
C584 C 0.54225 0.28607 0.65771 0.0
C585 C 0.51162 0.29697 0.66703 0.0
H586 H 0.53762 0.32963 0.63557 0.0
H587 H 0.55208 0.27501 0.65867 0.0
O588 O 0.60967 0.31465 0.59912 0.0
O589 O 0.59168 0.33488 0.63682 0.0
O590 O 0.56245 0.3052 0.59927 0.0
O591 O 0.58816 0.28554 0.62951 0.0
H592 H 0.64396 0.30193 0.60409 0.0
H593 H 0.59627 0.30783 0.55738 0.0
H594 H 0.66051 0.28629 0.57406 0.0
H595 H 0.6136 0.29198 0.52813 0.0
H596 H 0.58553 0.36129 0.70635 0.0
H597 H 0.59971 0.37728 0.63459 0.0
H598 H 0.58477 0.33022 0.67653 0.0
H599 H 0.60033 0.4075 0.66513 0.0
H600 H 0.60519 0.39607 0.56593 0.0
H601 H 0.54349 0.3779 0.58026 0.0
H602 H 0.66283 0.27766 0.65983 0.0
H603 H 0.6758 0.34835 0.68152 0.0
H604 H 0.52666 0.28014 0.60291 0.0
H605 H 0.56177 0.31396 0.55964 0.0
H606 H 0.49759 0.26709 0.57347 0.0
H607 H 0.53214 0.30017 0.53093 0.0
H608 H 0.56306 0.24653 0.61316 0.0
H609 H 0.60312 0.28512 0.66947 0.0
H610 H 0.55598 0.21497 0.63248 0.0
H611 H 0.5951 0.25293 0.68792 0.0
H612 H 0.60361 0.2187 0.57856 0.0
H613 H 0.5462 0.22207 0.54562 0.0
H614 H 0.50682 0.32542 0.65386 0.0
H615 H 0.52169 0.26921 0.6767 0.0
Li616 Li 0.0181 0.29295 0.93661 0.0
Li617 Li 0.99437 0.26941 0.90353 0.0
Li618 Li 0.01627 0.25187 0.93164 0.0
Li619 Li 0.03391 0.27535 0.90635 0.0
C620 C 0.98186 0.27047 0.9516 0.0
N621 N 0.95888 0.27749 0.98458 0.0
C622 C 0.96285 0.27493 0.94721 0.0
C623 C 0.98902 0.26915 0.97266 0.0
C624 C 0.9515 0.27853 0.96414 0.0
C625 C 0.97722 0.27288 0.98915 0.0
C626 C 0.02096 0.31348 0.89477 0.0
C627 C 0.02936 0.32607 0.86191 0.0
N628 N 0.02952 0.34703 0.87129 0.0
C629 C 0.02103 0.33512 0.90401 0.0
C630 C 0.02494 0.30885 0.87346 0.0
C631 C 0.02544 0.35185 0.8919 0.0
C632 C 0.03898 0.33595 0.96025 0.0
N633 N 0.02068 0.32092 0.95574 0.0
C634 C 1.00406 0.34847 0.97044 0.0
C635 C 1.00345 0.32678 0.96093 0.0
C636 C 0.02253 0.36462 0.9743 0.0
C637 C 0.04027 0.35795 0.96965 0.0
H638 H 0.05241 0.33129 0.95524 0.0
H639 H 0.98896 0.31508 0.95648 0.0
C640 C 0.94988 0.25482 0.88386 0.0
N641 N 0.96825 0.26959 0.88527 0.0
C642 C 0.93233 0.25719 0.87134 0.0
C643 C 0.95259 0.28998 0.86227 0.0
C644 C 0.9695 0.28708 0.87486 0.0
C645 C 0.93358 0.27489 0.86002 0.0
H646 H 0.94874 0.24115 0.89243 0.0
H647 H 0.98368 0.29907 0.87624 0.0
C648 C 0.05627 0.28663 0.95397 0.0
N649 N 0.08821 0.30438 0.98682 0.0
C650 C 0.07624 0.29168 0.94923 0.0
C651 C 0.05256 0.29055 0.97543 0.0
C652 C 0.09218 0.30062 0.96606 0.0
C653 C 0.0689 0.2996 0.9918 0.0
C654 C 0.01528 0.23193 0.88218 0.0
C655 C 0.0233 0.21438 0.88675 0.0
C656 C 0.01089 0.2342 0.86076 0.0
C657 C 0.02701 0.19945 0.86972 0.0
C658 C 0.01479 0.21889 0.84418 0.0
N659 N 0.02272 0.202 0.84896 0.0
C660 C 1.00557 0.20719 0.94364 0.0
C661 C 0.03874 0.22886 0.9565 0.0
C662 C 0.01007 0.18932 0.95244 0.0
N663 N 0.01993 0.22655 0.94562 0.0
C664 C 0.04377 0.21165 0.96569 0.0
C665 C 0.02956 0.19119 0.96353 0.0
H666 H 0.99076 0.20533 0.93474 0.0
H667 H 0.05019 0.24401 0.95778 0.0
C668 C 0.06861 0.30059 0.89084 0.0
N669 N 0.0582 0.27961 0.89136 0.0
C670 C 0.08635 0.30444 0.88096 0.0
C671 C 0.08333 0.26517 0.8734 0.0
C672 C 0.06551 0.26206 0.88322 0.0
C673 C 0.09394 0.28659 0.87192 0.0
H674 H 0.06331 0.31447 0.89836 0.0
H675 H 0.05774 0.24558 0.88454 0.0
O676 O 0.99334 0.26741 0.9353 0.0
O677 O 0.01651 0.2968 0.9063 0.0
O678 O 0.04052 0.27738 0.9377 0.0
O679 O 0.01147 0.24663 0.89862 0.0
H680 H 0.95709 0.27595 0.93097 0.0
H681 H 1.00352 0.2653 0.97622 0.0
H682 H 0.93686 0.28222 0.96102 0.0
H683 H 0.98263 0.27209 1.00557 0.0
H684 H 0.03263 0.32276 0.84547 0.0
H685 H 0.01745 0.33898 0.92022 0.0
H686 H 0.02468 0.29213 0.86598 0.0
H687 H 0.02554 0.36866 0.89887 0.0
H688 H 0.99001 0.35271 0.97393 0.0
H689 H 0.05482 0.36983 0.97198 0.0
H690 H 0.9181 0.24498 0.87008 0.0
H691 H 0.95448 0.30404 0.85415 0.0
H692 H 0.07946 0.28849 0.93277 0.0
H693 H 0.03722 0.28676 0.97939 0.0
H694 H 0.10771 0.30452 0.96263 0.0
H695 H 0.06624 0.30278 0.00847 0.0
H696 H 0.0268 0.21241 0.90325 0.0
H697 H 1.00457 0.24765 0.85701 0.0
H698 H 0.03333 0.18585 0.873 0.0
H699 H 0.01151 0.22044 0.82751 0.0
H700 H 0.99851 0.17398 0.94996 0.0
H701 H 0.05885 0.2145 0.97438 0.0
H702 H 0.09422 0.3213 0.8807 0.0
H703 H 0.08857 0.25088 0.86674 0.0
Li704 Li 0.44629 0.03509 0.30967 0.0
Li705 Li 0.41806 0.011 0.28417 0.0
Li706 Li 0.44825 0.02994 0.27204 0.0
Li707 Li 0.4241 0.0501 0.28588 0.0
C708 C 0.45776 0.99341 0.28918 0.0
N709 N 0.48303 0.96473 0.28654 0.0
C710 C 0.44957 0.97062 0.28605 0.0
C711 C 0.47879 1.00164 0.291 0.0
C712 C 0.46261 0.95639 0.28482 0.0
C713 C 0.4913 0.98686 0.28953 0.0
C714 C 0.40252 0.02456 0.32158 0.0
C715 C 0.36776 0.01425 0.32864 0.0
N716 N 0.37392 1.00566 0.34578 0.0
C717 C 0.40851 0.01577 0.33938 0.0
C718 C 0.38198 0.02398 0.31628 0.0
C719 C 0.39383 1.00626 0.35138 0.0
C720 C 0.47132 0.0607 0.34559 0.0
N721 N 0.46223 0.0397 0.3355 0.0
C722 C 0.47982 0.02462 0.36109 0.0
C723 C 0.46606 0.02178 0.34275 0.0
C724 C 0.48954 0.0461 0.37188 0.0
C725 C 0.48528 0.06434 0.36404 0.0
H726 H 0.46797 0.0745 0.33904 0.0
H727 H 0.45856 1.00534 0.33414 0.0
C728 C 0.39569 0.9768 0.25426 0.0
N729 N 0.39828 0.98473 0.27581 0.0
C730 C 0.3784 0.96093 0.24459 0.0
C731 C 0.36904 0.95822 0.28021 0.0
C732 C 0.38596 0.97515 0.28901 0.0
C733 C 0.36457 0.9515 0.25755 0.0
H734 H 0.40665 0.9835 0.24435 0.0
H735 H 0.38914 0.98057 0.30626 0.0
C736 C 0.47137 0.07288 0.28937 0.0
N737 N 0.50606 0.10274 0.28387 0.0
C738 C 0.46989 0.09002 0.27825 0.0
C739 C 0.49047 0.07101 0.29785 0.0
C740 C 0.48761 0.10494 0.27562 0.0
C741 C 0.50783 0.08622 0.29482 0.0
C742 C 0.40431 0.0241 0.24455 0.0
C743 C 0.40704 0.01933 0.22283 0.0
C744 C 0.38478 0.0232 0.25003 0.0
C745 C 0.39011 0.01333 0.20696 0.0
C746 C 0.36823 0.01714 0.23369 0.0
N747 N 0.37121 0.0123 0.21268 0.0
C748 C 0.45521 1.0025 0.23967 0.0
C749 C 0.47997 0.03662 0.24466 0.0
C750 C 0.4637 0.99366 0.22238 0.0
N751 N 0.46336 0.02352 0.2503 0.0
C752 C 0.48913 0.02835 0.22746 0.0
C753 C 0.4808 1.00668 0.21619 0.0
H754 H 0.44196 0.99265 0.24465 0.0
H755 H 0.48593 0.05338 0.25317 0.0
C756 C 0.39843 0.07658 0.29724 0.0
N757 N 0.41057 0.0715 0.28237 0.0
C758 C 0.38478 0.08915 0.29283 0.0
C759 C 0.39732 0.09184 0.25844 0.0
C760 C 0.41049 0.0789 0.26336 0.0
C761 C 0.38409 0.09661 0.27314 0.0
H762 H 0.39885 0.07016 0.31209 0.0
H763 H 0.42004 0.07394 0.25174 0.0
O764 O 0.44513 1.00749 0.29059 0.0
O765 O 0.41669 0.03402 0.30966 0.0
O766 O 0.45414 0.05861 0.29269 0.0
O767 O 0.42052 0.02768 0.26031 0.0
H768 H 0.43332 0.96401 0.2847 0.0
H769 H 0.48534 0.01922 0.29336 0.0
H770 H 0.45649 0.93871 0.2825 0.0
H771 H 0.5076 0.99298 0.29079 0.0
H772 H 0.35181 0.01354 0.32459 0.0
H773 H 0.42429 0.01617 0.34386 0.0
H774 H 0.37701 0.03086 0.30274 0.0
H775 H 0.39826 0.99931 0.36513 0.0
H776 H 0.48295 0.0102 0.36668 0.0
H777 H 0.49249 0.08109 0.37218 0.0
H778 H 0.37608 0.95626 0.22719 0.0
H779 H 0.35986 0.95042 0.29122 0.0
H780 H 0.45522 0.09187 0.27185 0.0
H781 H 0.49188 0.05801 0.30672 0.0
H782 H 0.4867 0.11832 0.26709 0.0
H783 H 0.52272 0.08494 0.30122 0.0
H784 H 0.42205 0.01968 0.21834 0.0
H785 H 0.38239 0.02653 0.26674 0.0
H786 H 0.39197 1.00928 0.19012 0.0
H787 H 0.35299 0.01604 0.23772 0.0
H788 H 0.45693 0.97696 0.21383 0.0
H789 H 0.50213 0.03889 0.22259 0.0
H790 H 0.37474 0.09284 0.30446 0.0
H791 H 0.39695 0.09744 0.2431 0.0
Li792 Li 0.28947 0.2137 0.5224 0.0
Li793 Li 0.30391 0.18338 0.50496 0.0
Li794 Li 0.28897 0.20806 0.48161 0.0
Li795 Li 0.2651 0.17948 0.50034 0.0
C796 C 0.32957 0.2327 0.51218 0.0
N797 N 0.36334 0.26716 0.52735 0.0
C798 C 0.34659 0.22903 0.52382 0.0
C799 C 0.32989 0.2538 0.50789 0.0
C800 C 0.36347 0.24669 0.53145 0.0
C801 C 0.34706 0.27104 0.51581 0.0
C802 C 0.2844 0.16909 0.54115 0.0
C803 C 0.27779 0.13235 0.54929 0.0
N804 N 0.28482 0.14102 0.57044 0.0
C805 C 0.29146 0.17767 0.56297 0.0
C806 C 0.27746 0.14627 0.53421 0.0
C807 C 0.29161 0.1632 0.57752 0.0
C808 C 0.27551 0.23618 0.55938 0.0
N809 N 0.29234 0.23297 0.55054 0.0
C810 C 0.3131 0.24923 0.58453 0.0
C811 C 0.31093 0.23947 0.56271 0.0
C812 C 0.29599 0.25255 0.59429 0.0
C813 C 0.27702 0.2462 0.58112 0.0
H814 H 0.26071 0.2301 0.54989 0.0
H815 H 0.32399 0.23581 0.55596 0.0
C816 C 0.33575 0.16336 0.49119 0.0
N817 N 0.32599 0.16865 0.50836 0.0
C818 C 0.35264 0.15426 0.4937 0.0
C819 C 0.34919 0.15606 0.53149 0.0
C820 C 0.33252 0.16529 0.52829 0.0
C821 C 0.3597 0.15047 0.51412 0.0
H822 H 0.33065 0.16661 0.47557 0.0
H823 H 0.32506 0.17016 0.54191 0.0
C824 C 0.25662 0.22803 0.50481 0.0
N825 N 0.23793 0.26164 0.5174 0.0
C826 C 0.2362 0.22306 0.50803 0.0
C827 C 0.2675 0.25006 0.50782 0.0
C828 C 0.22702 0.24029 0.5144 0.0
C829 C 0.2578 0.26683 0.51428 0.0
C830 C 0.28106 0.15732 0.46136 0.0
C831 C 0.27493 0.15961 0.44031 0.0
C832 C 0.28472 0.13729 0.46525 0.0
C833 C 0.2726 0.14175 0.4234 0.0
C834 C 0.28224 0.11982 0.44789 0.0
N835 N 0.27629 0.12239 0.42751 0.0
C836 C 0.30847 0.21733 0.44437 0.0
C837 C 0.27797 0.22907 0.44547 0.0
C838 C 0.31096 0.224 0.42437 0.0
N839 N 0.29213 0.21982 0.45453 0.0
C840 C 0.27983 0.23593 0.42544 0.0
C841 C 0.29648 0.23339 0.41435 0.0
H842 H 0.31957 0.20989 0.45171 0.0
H843 H 0.26498 0.23082 0.4536 0.0
C844 C 0.22758 0.16279 0.51663 0.0
N845 N 0.23819 0.15931 0.49968 0.0
C846 C 0.20857 0.14863 0.51738 0.0
C847 C 0.21158 0.12742 0.48321 0.0
C848 C 0.23044 0.14203 0.48306 0.0
C849 C 0.2003 0.13037 0.50063 0.0
H850 H 0.23399 0.17653 0.52979 0.0
H851 H 0.23896 0.13942 0.46969 0.0
O852 O 0.31288 0.21561 0.50468 0.0
O853 O 0.28444 0.18299 0.52664 0.0
O854 O 0.26589 0.21136 0.49884 0.0
O855 O 0.28393 0.17481 0.478 0.0
H856 H 0.34668 0.21278 0.52716 0.0
H857 H 0.31706 0.25682 0.49848 0.0
H858 H 0.37667 0.24412 0.54065 0.0
H859 H 0.34747 0.28749 0.51272 0.0
H860 H 0.27249 0.11464 0.54418 0.0
H861 H 0.29693 0.19528 0.56861 0.0
H862 H 0.27194 0.13941 0.51736 0.0
H863 H 0.29713 0.1696 0.59444 0.0
H864 H 0.32801 0.25307 0.59383 0.0
H865 H 0.26332 0.24848 0.58756 0.0
H866 H 0.36035 0.15073 0.47983 0.0
H867 H 0.35372 0.15333 0.5475 0.0
H868 H 0.22752 0.20608 0.5056 0.0
H869 H 0.2833 0.25416 0.50541 0.0
H870 H 0.21123 0.2367 0.51696 0.0
H871 H 0.26608 0.28397 0.51683 0.0
H872 H 0.27203 0.17503 0.43706 0.0
H873 H 0.28955 0.13533 0.48147 0.0
H874 H 0.26789 0.14328 0.40701 0.0
H875 H 0.28509 0.10423 0.45062 0.0
H876 H 0.32427 0.22196 0.41697 0.0
H877 H 0.26801 0.24272 0.41856 0.0
H878 H 0.20074 0.15161 0.53127 0.0
H879 H 0.20589 0.11387 0.46971 0.0
Li880 Li 0.18807 0.04321 0.77802 0.0
Li881 Li 0.15798 0.01788 0.79751 0.0
Li882 Li 0.18445 0.99603 0.77388 0.0
Li883 Li 0.15706 0.01508 0.75318 0.0
C884 C 0.20412 0.02882 0.81876 0.0
N885 N 0.23293 0.04073 0.85497 0.0
C886 C 0.19968 0.03943 0.83819 0.0
C887 C 0.22327 0.02452 0.81763 0.0
C888 C 0.21444 0.04525 0.85635 0.0
C889 C 0.23762 0.03062 0.83614 0.0
C890 C 0.14332 0.05225 0.77484 0.0
C891 C 0.10862 0.05274 0.7637 0.0
N892 N 0.11398 0.07522 0.7679 0.0
C893 C 0.14849 0.07534 0.7791 0.0
C894 C 0.12323 0.04083 0.76715 0.0
C895 C 0.13343 0.08665 0.77549 0.0
C896 C 0.19862 0.08591 0.76128 0.0
N897 N 0.20503 0.07613 0.77762 0.0
C898 C 0.23072 0.11082 0.79145 0.0
C899 C 0.22103 0.08847 0.79255 0.0
C900 C 0.22418 0.12155 0.77492 0.0
C901 C 0.20776 0.10814 0.75969 0.0
H902 H 0.18604 0.0765 0.7493 0.0
H903 H 0.22634 0.08117 0.80567 0.0
C904 C 0.14778 0.01181 0.84479 0.0
N905 N 0.14204 0.01948 0.82651 0.0
C906 C 0.13757 0.01359 0.86373 0.0
C907 C 0.11517 0.03094 0.8456 0.0
C908 C 0.12585 0.02907 0.82715 0.0
C909 C 0.12062 0.02316 0.86473 0.0
H910 H 0.1605 1.00418 0.84496 0.0
H911 H 0.12096 0.03549 0.81323 0.0
C912 C 0.1945 0.01663 0.73298 0.0
N913 N 0.20871 0.01305 0.69342 0.0
C914 C 0.18463 0.99931 0.71616 0.0
C915 C 0.21161 0.03209 0.72976 0.0
C916 C 0.19198 0.99786 0.69622 0.0
C917 C 0.21861 0.02995 0.70965 0.0
C918 C 0.13592 0.97346 0.76366 0.0
C919 C 0.13796 0.95497 0.7495 0.0
C920 C 0.11674 0.97477 0.76907 0.0
C921 C 0.12074 0.93801 0.74099 0.0
C922 C 0.09987 0.9575 0.76014 0.0
N923 N 0.10221 0.93962 0.74643 0.0
C924 C 0.21248 0.96438 0.78903 0.0
C925 C 0.1969 0.95214 0.7534 0.0
C926 C 0.22195 0.94594 0.78768 0.0
N927 N 0.19993 0.96767 0.77205 0.0
C928 C 0.20576 0.93333 0.75155 0.0
C929 C 0.21875 0.92939 0.76876 0.0
H930 H 0.21525 0.97598 0.80413 0.0
H931 H 0.18739 0.95405 0.7395 0.0
C932 C 0.14101 0.03698 0.71832 0.0
N933 N 0.1404 0.01633 0.72283 0.0
C934 C 0.13104 0.04029 0.6987 0.0
C935 C 0.12026 1.00115 0.68716 0.0
C936 C 0.13009 0.99851 0.70733 0.0
C937 C 0.12038 0.02236 0.68235 0.0
H938 H 0.14936 0.05129 0.73001 0.0
H939 H 0.12949 0.98201 0.71038 0.0
O940 O 0.18963 0.0222 0.80106 0.0
O941 O 0.15791 0.04084 0.7777 0.0
O942 O 0.18756 0.01838 0.7526 0.0
O943 O 0.15264 0.9901 0.77237 0.0
H944 H 0.18498 0.04306 0.83924 0.0
H945 H 0.22695 0.01647 0.80262 0.0
H946 H 0.21117 0.05333 0.87155 0.0
H947 H 0.25248 0.02728 0.83555 0.0
H948 H 0.09304 0.04413 0.75761 0.0
H949 H 0.16394 0.08442 0.78518 0.0
H950 H 0.11903 0.02295 0.76361 0.0
H951 H 0.1372 0.10453 0.77871 0.0
H952 H 0.24305 0.11974 0.80392 0.0
H953 H 0.2019 0.11459 0.74623 0.0
H954 H 0.14277 1.00698 0.87741 0.0
H955 H 0.10263 0.03882 0.84477 0.0
H956 H 0.17139 0.98717 0.71848 0.0
H957 H 0.21946 0.04552 0.74271 0.0
H958 H 0.18443 0.98463 0.68299 0.0
H959 H 0.23191 0.04172 0.70694 0.0
H960 H 0.1527 0.95373 0.74518 0.0
H961 H 0.11494 0.98892 0.78013 0.0
H962 H 0.12211 0.92356 0.73007 0.0
H963 H 0.08493 0.95828 0.76416 0.0
H964 H 0.23145 0.94449 0.80181 0.0
H965 H 0.20248 0.92197 0.73625 0.0
H966 H 0.13197 0.05705 0.69627 0.0
H967 H 0.11225 0.98656 0.67557 0.0
Li968 Li 0.29852 0.94401 0.00896 0.0
Li969 Li 0.31826 0.92 0.02259 0.0
Li970 Li 0.33483 0.95305 0.01101 0.0
Li971 Li 0.31566 0.92029 0.98445 0.0
C972 C 0.32331 0.96725 0.05171 0.0
N973 N 0.33556 1.0023 0.08599 0.0
C974 C 0.32885 0.96356 0.07241 0.0
C975 C 0.32373 0.9887 0.04846 0.0
C976 C 0.33505 0.98151 0.08952 0.0
C977 C 0.33005 1.00623 0.06601 0.0
C978 C 0.27966 0.89231 1.00309 0.0
C979 C 0.26916 0.85255 0.9973 0.0
N980 N 0.25267 0.85402 1.00751 0.0
C981 C 0.2625 0.89345 0.0133 0.0
C982 C 0.28293 0.87173 0.99477 0.0
C983 C 0.24906 0.87389 0.01544 0.0
C984 C 0.26934 0.96629 0.99795 0.0
N985 N 0.27694 0.95636 0.0132 0.0
C986 C 0.25553 0.96785 0.03797 0.0
C987 C 0.27046 0.95685 0.03287 0.0
C988 C 0.24745 0.97851 0.02265 0.0
C989 C 0.25446 0.97762 1.00239 0.0
H990 H 0.27517 0.9658 0.9826 0.0
H991 H 0.27713 0.94891 0.04466 0.0
C992 C 0.34162 0.90925 0.05398 0.0
N993 N 0.32222 0.90392 0.04388 0.0
C994 C 0.34708 0.89781 0.06964 0.0
C995 C 0.3121 0.87665 0.06518 0.0
C996 C 0.30736 0.88846 0.04952 0.0
C997 C 0.33224 0.8811 0.07507 0.0
H998 H 0.35288 0.92233 0.04972 0.0
H999 H 0.2919 0.88528 0.04204 0.0
C1000 C 0.32132 0.96656 0.97262 0.0
N1001 N 0.33594 0.99654 0.94699 0.0
C1002 C 0.33069 0.96005 0.95477 0.0
C1003 C 0.31917 0.98824 0.97729 0.0
C1004 C 0.33801 0.97547 0.94203 0.0
C1005 C 0.32675 1.00318 0.96418 0.0
C1006 C 0.35394 0.91121 1.00599 0.0
C1007 C 0.37477 0.9211 0.00984 0.0
C1008 C 0.34721 0.88827 1.00361 0.0
C1009 C 0.38855 0.90784 0.01126 0.0
C1010 C 0.36147 0.87558 1.00519 0.0
N1011 N 0.38167 0.88554 0.00893 0.0
C1012 C 0.36896 0.97689 0.03834 0.0
C1013 C 0.36678 0.98733 1.00397 0.0
C1014 C 0.3884 0.99049 0.04415 0.0
N1015 N 0.35871 0.97538 0.01845 0.0
C1016 C 0.38624 1.00081 0.00891 0.0
C1017 C 0.3976 1.00179 0.0289 0.0
H1018 H 0.36263 0.96639 0.04916 0.0
H1019 H 0.35899 0.98524 0.98799 0.0
C1020 C 0.29648 0.89749 0.94404 0.0
N1021 N 0.31429 0.90297 0.95747 0.0
C1022 C 0.29502 0.88477 0.92361 0.0
C1023 C 0.33007 0.88316 0.93167 0.0
C1024 C 0.33097 0.89627 0.95173 0.0
C1025 C 0.31197 0.87752 0.91743 0.0
H1026 H 0.28355 0.90318 0.94918 0.0
H1027 H 0.34507 0.90137 0.96251 0.0
O1028 O 0.31822 0.94995 0.03464 0.0
O1029 O 0.29303 0.9113 1.00104 0.0
O1030 O 0.31429 0.95181 0.98544 0.0
O1031 O 0.34029 0.92402 1.00439 0.0
H1032 H 0.32857 0.94703 0.07518 0.0
H1033 H 0.31957 0.9918 0.0325 0.0
H1034 H 0.33953 0.97891 0.1056 0.0
H1035 H 0.33068 0.02297 0.06373 0.0
H1036 H 0.27157 0.83649 0.99111 0.0
H1037 H 0.25966 0.90925 0.01964 0.0
H1038 H 0.29595 0.87058 0.9865 0.0
H1039 H 0.23578 0.87451 0.02344 0.0
H1040 H 0.25035 0.96796 0.05366 0.0
H1041 H 0.24884 0.98595 0.99028 0.0
H1042 H 0.36272 0.90172 0.07716 0.0
H1043 H 0.3002 0.86425 0.06957 0.0
H1044 H 0.33256 0.9434 0.95095 0.0
H1045 H 0.31199 0.99353 0.99107 0.0
H1046 H 0.34543 0.97072 0.92827 0.0
H1047 H 0.32538 0.02007 0.96771 0.0
H1048 H 0.38025 0.93883 0.0116 0.0
H1049 H 0.33116 0.88038 1.00067 0.0
H1050 H 0.40472 0.91526 0.01419 0.0
H1051 H 0.35648 0.85782 1.00344 0.0
H1052 H 0.39668 0.99078 0.05971 0.0
H1053 H 0.39287 1.00862 0.99633 0.0
H1054 H 0.28088 0.88062 0.91277 0.0
H1055 H 0.34343 0.87796 0.9271 0.0
Li1056 Li 0.30204 0.39934 0.03432 0.0
Li1057 Li 0.31768 0.3741 0.05493 0.0
Li1058 Li 0.34086 0.40373 0.03583 0.0
Li1059 Li 0.3156 0.36947 0.01383 0.0
C1060 C 0.32154 0.4248 0.07508 0.0
N1061 N 0.3158 0.4594 0.10447 0.0
C1062 C 0.31368 0.42085 0.09412 0.0
C1063 C 0.3267 0.44634 0.07107 0.0
C1064 C 0.31081 0.43856 0.10874 0.0
C1065 C 0.32365 0.46362 0.08613 0.0
C1066 C 0.27619 0.35021 0.02639 0.0
C1067 C 0.26004 0.31164 0.01352 0.0
N1068 N 0.24153 0.31641 0.01332 0.0
C1069 C 0.25701 0.35475 0.02602 0.0
C1070 C 0.27775 0.32849 0.02012 0.0
C1071 C 0.23967 0.33743 0.0194 0.0
C1072 C 0.27027 0.41571 0.01355 0.0
N1073 N 0.2796 0.41407 0.03305 0.0
C1074 C 0.25689 0.43236 0.05119 0.0
C1075 C 0.27277 0.42162 0.05163 0.0
C1076 C 0.24761 0.43532 0.03139 0.0
C1077 C 0.25435 0.42645 0.01235 0.0
H1078 H 0.27522 0.40875 0.99884 0.0
H1079 H 0.27946 0.41916 0.06689 0.0
C1080 C 0.33204 0.35436 0.09006 0.0
N1081 N 0.31566 0.3603 0.08096 0.0
C1082 C 0.33117 0.34522 0.10893 0.0
C1083 C 0.29672 0.34872 0.1093 0.0
C1084 C 0.29815 0.35756 0.09021 0.0
C1085 C 0.31334 0.34222 0.11893 0.0
H1086 H 0.34588 0.35677 0.08268 0.0
H1087 H 0.28526 0.36242 0.08286 0.0
C1088 C 0.31843 0.41333 0.99543 0.0
N1089 N 0.31555 0.43863 0.96391 0.0
C1090 C 0.32015 0.40502 0.97403 0.0
C1091 C 0.31547 0.43462 1.00084 0.0
C1092 C 0.3186 0.41804 0.95833 0.0
C1093 C 0.31399 0.44712 0.98466 0.0
C1094 C 0.34962 0.35509 0.03082 0.0
C1095 C 0.36847 0.35994 0.02329 0.0
C1096 C 0.34076 0.33344 0.03284 0.0
C1097 C 0.37803 0.34289 0.01757 0.0
C1098 C 0.35079 0.31684 0.0269 0.0
N1099 N 0.36904 0.32186 0.01944 0.0
C1100 C 0.38511 0.42254 0.04805 0.0
C1101 C 0.36941 0.43805 0.02152 0.0
C1102 C 0.40425 0.43639 0.04686 0.0
N1103 N 0.36803 0.42366 0.03556 0.0
C1104 C 0.38807 0.45215 0.01991 0.0
C1105 C 0.40592 0.45172 0.03278 0.0
H1106 H 0.38394 0.4109 0.05899 0.0
H1107 H 0.35603 0.43872 0.01145 0.0
C1108 C 0.29339 0.34868 0.97275 0.0
N1109 N 0.3112 0.35046 0.98538 0.0
C1110 C 0.2905 0.33906 0.95078 0.0
C1111 C 0.32397 0.33238 0.95518 0.0
C1112 C 0.3263 0.34235 0.97699 0.0
C1113 C 0.30604 0.331 0.94149 0.0
H1114 H 0.28177 0.35579 0.97947 0.0
H1115 H 0.34056 0.34434 0.98688 0.0
O1116 O 0.32417 0.40763 0.06045 0.0
O1117 O 0.29331 0.36703 0.03266 0.0
O1118 O 0.3196 0.4007 0.01099 0.0
O1119 O 0.3399 0.3715 0.03611 0.0
H1120 H 0.30967 0.40429 0.09748 0.0
H1121 H 0.33292 0.44965 0.05646 0.0
H1122 H 0.30458 0.43572 0.12346 0.0
H1123 H 0.3275 0.48039 0.08324 0.0
H1124 H 0.26101 0.29476 0.00853 0.0
H1125 H 0.25551 0.37145 0.03088 0.0
H1126 H 0.29247 0.32471 0.02012 0.0
H1127 H 0.22473 0.3407 0.01909 0.0
H1128 H 0.25184 0.43814 0.06629 0.0
H1129 H 0.24771 0.42814 0.99666 0.0
H1130 H 0.34447 0.34066 0.11574 0.0
H1131 H 0.28258 0.34654 0.11617 0.0
H1132 H 0.32279 0.38876 0.96958 0.0
H1133 H 0.31428 0.44138 0.01736 0.0
H1134 H 0.31986 0.41178 0.9417 0.0
H1135 H 0.31159 0.46357 0.98859 0.0
H1136 H 0.3755 0.37664 0.02163 0.0
H1137 H 0.32628 0.3295 0.03887 0.0
H1138 H 0.39255 0.34635 0.01156 0.0
H1139 H 0.34406 0.29996 0.02824 0.0
H1140 H 0.41748 0.4355 0.05725 0.0
H1141 H 0.38848 0.46342 0.0086 0.0
H1142 H 0.27652 0.33889 0.94104 0.0
H1143 H 0.33633 0.32618 0.94908 0.0
Li1144 Li 0.7877 0.16273 0.05388 0.0
Li1145 Li 0.80677 0.13987 0.03089 0.0
Li1146 Li 0.78587 0.16243 0.01565 0.0
Li1147 Li 0.77018 0.12919 0.02782 0.0
C1148 C 0.82404 0.1904 0.03248 0.0
N1149 N 0.85152 0.22612 0.02329 0.0
C1150 C 0.84291 0.18815 0.02678 0.0
C1151 C 0.81928 0.21094 0.03371 0.0
C1152 C 0.85657 0.20637 0.02217 0.0
C1153 C 0.83331 0.22874 0.02889 0.0
C1154 C 0.78733 0.11537 0.06536 0.0
C1155 C 0.7883 0.0783 0.06947 0.0
N1156 N 0.78231 0.08208 0.08936 0.0
C1157 C 0.78124 0.1189 0.08584 0.0
C1158 C 0.79098 0.09495 0.05709 0.0
C1159 C 0.77878 0.10186 0.09773 0.0
C1160 C 0.76971 0.17723 0.08956 0.0
N1161 N 0.78734 0.17946 0.08076 0.0
C1162 C 0.80485 0.20726 0.1105 0.0
C1163 C 0.80475 0.19398 0.09073 0.0
C1164 C 0.78679 0.20564 0.11992 0.0
C1165 C 0.76907 0.19031 0.10928 0.0
H1166 H 0.75613 0.16542 0.08114 0.0
H1167 H 0.81851 0.19524 0.08324 0.0
C1168 C 0.83747 0.12756 0.00992 0.0
N1169 N 0.82985 0.129 0.02903 0.0
C1170 C 0.85439 0.1189 1.00757 0.0
C1171 C 0.85475 0.11283 0.04445 0.0
C1172 C 0.83816 0.12212 0.04623 0.0
C1173 C 0.86314 0.11115 0.02492 0.0
H1174 H 0.83043 0.13328 0.99658 0.0
H1175 H 0.83169 0.12355 0.06121 0.0
C1176 C 0.75042 0.1715 0.03628 0.0
N1177 N 0.72416 0.19911 0.04052 0.0
C1178 C 0.72939 0.16273 0.0323 0.0
C1179 C 0.75803 0.1943 0.04276 0.0
C1180 C 0.71638 0.17695 0.0344 0.0
C1181 C 0.74455 0.20799 0.04478 0.0
C1182 C 0.77847 0.1155 0.98733 0.0
C1183 C 0.76934 0.1203 0.96849 0.0
C1184 C 0.77823 0.09359 0.98869 0.0
C1185 C 0.75975 0.10304 0.95152 0.0
C1186 C 0.76847 0.07678 0.97135 0.0
N1187 N 0.75948 0.08181 0.9533 0.0
C1188 C 0.79754 0.18253 0.98087 0.0
C1189 C 0.76304 0.17823 0.98668 0.0
C1190 C 0.79336 0.18892 0.96115 0.0
N1191 N 0.78237 0.17734 0.99307 0.0
C1192 C 0.75824 0.18463 0.96731 0.0
C1193 C 0.77341 0.18973 0.9542 0.0
H1194 H 0.81255 0.18062 0.9859 0.0
H1195 H 0.75099 0.17252 0.99576 0.0
C1196 C 0.73928 0.09355 0.03591 0.0
N1197 N 0.746 0.1069 0.02189 0.0
C1198 C 0.71866 0.08351 0.03424 0.0
C1199 C 0.71275 0.09967 1.00272 0.0
C1200 C 0.73342 0.10929 1.00496 0.0
C1201 C 0.70502 0.08774 0.01829 0.0
H1202 H 0.74938 0.09223 0.0495 0.0
H1203 H 0.73899 0.12084 0.99472 0.0
O1204 O 0.81084 0.17288 0.03786 0.0
O1205 O 0.79009 0.13202 0.05371 0.0
O1206 O 0.76337 0.15785 0.03314 0.0
O1207 O 0.78763 0.13218 1.00429 0.0
H1208 H 0.84714 0.17262 0.02626 0.0
H1209 H 0.80499 0.21322 0.03837 0.0
H1210 H 0.87124 0.20483 0.01782 0.0
H1211 H 0.82975 0.24468 0.02972 0.0
H1212 H 0.791 0.06239 0.06327 0.0
H1213 H 0.7785 0.13467 0.09252 0.0
H1214 H 0.79579 0.092 0.0413 0.0
H1215 H 0.77409 0.10438 0.11363 0.0
H1216 H 0.81895 0.21857 0.1184 0.0
H1217 H 0.75484 0.18868 0.11595 0.0
H1218 H 0.86052 0.11836 0.99236 0.0
H1219 H 0.86065 0.10668 0.05812 0.0
H1220 H 0.72312 0.14515 0.02747 0.0
H1221 H 0.77415 0.20133 0.04631 0.0
H1222 H 0.70009 0.17037 0.03113 0.0
H1223 H 0.75029 0.22568 0.04973 0.0
H1224 H 0.76951 0.13712 0.96698 0.0
H1225 H 0.78535 0.0896 1.00306 0.0
H1226 H 0.7525 0.10653 0.93694 0.0
H1227 H 0.76802 0.05972 0.97225 0.0
H1228 H 0.80541 0.19283 0.95134 0.0
H1229 H 0.74262 0.18466 0.96219 0.0
H1230 H 0.71327 0.0741 0.04635 0.0
H1231 H 0.7028 0.10368 0.99039 0.0
Li1232 Li 0.18402 0.57028 0.25842 0.0
Li1233 Li 0.15308 0.54596 0.26429 0.0
Li1234 Li 0.17887 0.531 0.2477 0.0
Li1235 Li 0.15777 0.55067 0.22938 0.0
C1236 C 0.19654 0.55481 0.29356 0.0
N1237 N 0.22832 0.57112 0.32684 0.0
C1238 C 0.19277 0.56264 0.31437 0.0
C1239 C 0.21646 0.55496 0.28981 0.0
C1240 C 0.20904 0.57089 0.33095 0.0
C1241 C 0.23233 0.56337 0.3068 0.0
C1242 C 0.14779 0.58917 0.24597 0.0
C1243 C 0.11871 0.59967 0.22983 0.0
N1244 N 0.13001 0.62078 0.23217 0.0
C1245 C 0.15911 0.61098 0.24814 0.0
C1246 C 0.12738 0.58349 0.2368 0.0
C1247 C 0.14984 0.62671 0.24112 0.0
C1248 C 0.21671 0.60374 0.25666 0.0
N1249 N 0.20332 0.59579 0.26967 0.0
C1250 C 0.21871 0.62518 0.29888 0.0
C1251 C 0.20368 0.60619 0.29024 0.0
C1252 C 0.23272 0.63391 0.28571 0.0
C1253 C 0.23166 0.62286 0.26437 0.0
H1254 H 0.21524 0.59577 0.24003 0.0
H1255 H 0.19203 0.60002 0.29972 0.0
C1256 C 0.14001 0.53366 0.30153 0.0
N1257 N 0.136 0.54427 0.28521 0.0
C1258 C 0.13631 0.5416 0.32222 0.0
C1259 C 0.12304 0.5698 0.30803 0.0
C1260 C 0.12641 0.56092 0.28767 0.0
C1261 C 0.12905 0.56087 0.32582 0.0
H1262 H 0.14824 0.52088 0.29905 0.0
H1263 H 0.12368 0.56913 0.27443 0.0
C1264 C 0.20132 0.55269 0.21656 0.0
N1265 N 0.22999 0.55157 0.18845 0.0
C1266 C 0.19542 0.54877 0.19424 0.0
C1267 C 0.22182 0.55589 0.22454 0.0
C1268 C 0.21014 0.54834 0.18031 0.0
C1269 C 0.23607 0.55525 0.21008 0.0
C1270 C 0.13341 0.50733 0.24455 0.0
C1271 C 0.13661 0.48823 0.25134 0.0
C1272 C 0.11403 0.51138 0.24352 0.0
C1273 C 0.12032 0.47349 0.25711 0.0
C1274 C 0.09815 0.49625 0.24944 0.0
N1275 N 0.10159 0.47777 0.25605 0.0
C1276 C 0.19438 0.50212 0.26636 0.0
C1277 C 0.20283 0.5026 0.23081 0.0
C1278 C 0.20764 0.48907 0.27022 0.0
N1279 N 0.19277 0.50912 0.24723 0.0
C1280 C 0.21622 0.48929 0.2339 0.0
C1281 C 0.21904 0.48284 0.25402 0.0
H1282 H 0.18601 0.50757 0.279 0.0
H1283 H 0.20099 0.50828 0.21568 0.0
C1284 C 0.14837 0.5705 0.19456 0.0
N1285 N 0.14419 0.5521 0.20354 0.0
C1286 C 0.1357 0.572 0.1766 0.0
C1287 C 0.11542 0.53534 0.17744 0.0
C1288 C 0.12848 0.5345 0.19518 0.0
C1289 C 0.11891 0.55438 0.16837 0.0
H1290 H 0.16109 0.58415 0.20177 0.0
H1291 H 0.12586 0.52003 0.20257 0.0
O1292 O 0.18088 0.54752 0.27689 0.0
O1293 O 0.15629 0.57385 0.254 0.0
O1294 O 0.18721 0.55446 0.23042 0.0
O1295 O 0.14908 0.52175 0.23845 0.0
H1296 H 0.17755 0.563 0.31758 0.0
H1297 H 0.21966 0.5488 0.27391 0.0
H1298 H 0.20635 0.57727 0.34703 0.0
H1299 H 0.24783 0.56376 0.30404 0.0
H1300 H 0.10298 0.59546 0.22265 0.0
H1301 H 0.1748 0.61584 0.25548 0.0
H1302 H 0.11833 0.56673 0.23506 0.0
H1303 H 0.15839 0.64368 0.24287 0.0
H1304 H 0.21881 0.63342 0.31527 0.0
H1305 H 0.24142 0.62954 0.25323 0.0
H1306 H 0.14053 0.53378 0.33541 0.0
H1307 H 0.11749 0.58466 0.30987 0.0
H1308 H 0.17967 0.5463 0.18771 0.0
H1309 H 0.22677 0.55921 0.24172 0.0
H1310 H 0.20579 0.54551 0.16302 0.0
H1311 H 0.25198 0.55783 0.21607 0.0
H1312 H 0.15146 0.48474 0.25199 0.0
H1313 H 0.11132 0.5261 0.23829 0.0
H1314 H 0.12256 0.45862 0.26237 0.0
H1315 H 0.08307 0.49918 0.24876 0.0
H1316 H 0.20954 0.48467 0.28603 0.0
H1317 H 0.22452 0.48444 0.22092 0.0
H1318 H 0.13873 0.5867 0.16943 0.0
H1319 H 0.10276 0.52135 0.17084 0.0
Li1320 Li 0.80155 0.89943 0.53387 0.0
Li1321 Li 0.81655 0.87384 0.55478 0.0
Li1322 Li 0.83999 0.90345 0.53617 0.0
Li1323 Li 0.8153 0.86947 0.51362 0.0
C1324 C 0.82057 0.92512 0.57445 0.0
N1325 N 0.8157 0.96099 0.60283 0.0
C1326 C 0.81157 0.92201 0.59306 0.0
C1327 C 0.82736 0.94648 0.57042 0.0
C1328 C 0.80916 0.94034 0.60716 0.0
C1329 C 0.82469 0.9644 0.58493 0.0
C1330 C 0.77562 0.84997 0.526 0.0
C1331 C 0.75987 0.81122 0.51373 0.0
N1332 N 0.74124 0.81571 0.51353 0.0
C1333 C 0.75632 0.85422 0.52561 0.0
C1334 C 0.77743 0.82831 0.52002 0.0
C1335 C 0.73913 0.83667 0.51931 0.0
C1336 C 0.77204 0.91929 0.51356 0.0
N1337 N 0.77932 0.91425 0.53247 0.0
C1338 C 0.75418 0.92849 0.55035 0.0
C1339 C 0.7704 0.91825 0.55056 0.0
C1340 C 0.7468 0.93474 0.53131 0.0
C1341 C 0.75586 0.92968 0.51264 0.0
H1342 H 0.77872 0.91521 0.49909 0.0
H1343 H 0.77566 0.91319 0.56515 0.0
C1344 C 0.82964 0.85155 0.58862 0.0
N1345 N 0.81428 0.85998 0.58085 0.0
C1346 C 0.82861 0.84237 0.60749 0.0
C1347 C 0.79625 0.8511 0.61067 0.0
C1348 C 0.79768 0.8597 0.59145 0.0
C1349 C 0.81182 0.84217 0.61896 0.0
H1350 H 0.84278 0.85196 0.58019 0.0
H1351 H 0.78553 0.86635 0.58508 0.0
C1352 C 0.82096 0.91461 0.49621 0.0
N1353 N 0.82275 0.94222 0.46627 0.0
C1354 C 0.82228 0.90655 0.47463 0.0
C1355 C 0.82073 0.93674 0.50261 0.0
C1356 C 0.82314 0.92077 0.45974 0.0
C1357 C 0.82159 0.95043 0.48721 0.0
C1358 C 0.84911 0.85523 0.5307 0.0
C1359 C 0.86805 0.86075 0.52349 0.0
C1360 C 0.84049 0.8333 0.53201 0.0
C1361 C 0.87795 0.84408 0.51737 0.0
C1362 C 0.85085 0.81711 0.52571 0.0
N1363 N 0.8692 0.82279 0.51856 0.0
C1364 C 0.87896 0.93154 0.55677 0.0
C1365 C 0.87433 0.92843 0.51884 0.0
C1366 C 0.89852 0.94535 0.55814 0.0
N1367 N 0.86717 0.9234 0.53734 0.0
C1368 C 0.8938 0.94233 0.51949 0.0
C1369 C 0.90633 0.95122 0.53937 0.0
H1370 H 0.87321 0.92721 0.57129 0.0
H1371 H 0.86495 0.92165 0.50346 0.0
C1372 C 0.79328 0.84876 0.47247 0.0
N1373 N 0.81111 0.85058 0.48506 0.0
C1374 C 0.79037 0.83918 0.45049 0.0
C1375 C 0.82388 0.83261 0.45477 0.0
C1376 C 0.82624 0.84256 0.47661 0.0
C1377 C 0.8059 0.83117 0.44111 0.0
H1378 H 0.78164 0.85578 0.47924 0.0
H1379 H 0.84053 0.84459 0.48647 0.0
O1380 O 0.82299 0.90736 0.56044 0.0
O1381 O 0.79259 0.86702 0.53195 0.0
O1382 O 0.81945 0.90074 0.51086 0.0
O1383 O 0.83908 0.87127 0.53643 0.0
H1384 H 0.8064 0.90563 0.59654 0.0
H1385 H 0.83468 0.94918 0.55628 0.0
H1386 H 0.8021 0.93815 0.62155 0.0
H1387 H 0.82981 0.98104 0.58198 0.0
H1388 H 0.76104 0.79437 0.50898 0.0
H1389 H 0.75462 0.87089 0.53016 0.0
H1390 H 0.79223 0.82476 0.52001 0.0
H1391 H 0.72411 0.83972 0.51898 0.0
H1392 H 0.74737 0.93128 0.56502 0.0
H1393 H 0.75078 0.93404 0.49754 0.0
H1394 H 0.84094 0.83555 0.61315 0.0
H1395 H 0.78286 0.85096 0.61869 0.0
H1396 H 0.82262 0.88952 0.4694 0.0
H1397 H 0.81955 0.94318 0.5192 0.0
H1398 H 0.82409 0.91473 0.44297 0.0
H1399 H 0.82125 0.96755 0.49189 0.0
H1400 H 0.87492 0.87769 0.52245 0.0
H1401 H 0.82595 0.82885 0.53782 0.0
H1402 H 0.89256 0.84806 0.51163 0.0
H1403 H 0.84432 0.80003 0.52651 0.0
H1404 H 0.90749 0.95115 0.57388 0.0
H1405 H 0.89877 0.94631 0.50452 0.0
H1406 H 0.77635 0.83899 0.44081 0.0
H1407 H 0.83625 0.82647 0.44864 0.0
Li1408 Li 0.94851 0.06669 0.28341 0.0
Li1409 Li 0.91635 0.03911 0.25869 0.0
Li1410 Li 0.94609 0.06439 0.23862 0.0
Li1411 Li 0.92022 0.08594 0.26197 0.0
C1412 C 0.95998 0.02802 0.25842 0.0
N1413 N 0.98775 1.00231 0.26026 0.0
C1414 C 0.95439 1.00718 0.26407 0.0
C1415 C 0.97961 0.03573 0.25356 0.0
C1416 C 0.96867 0.99444 0.26493 0.0
C1417 C 0.99345 0.0225 0.25462 0.0
C1418 C 0.90775 0.06188 0.30183 0.0
C1419 C 0.87999 0.06709 0.32146 0.0
N1420 N 0.8878 0.05831 0.33767 0.0
C1421 C 0.91527 0.0525 0.31847 0.0
C1422 C 0.88978 0.06886 0.30314 0.0
C1423 C 0.90504 0.05097 0.33652 0.0
C1424 C 0.96703 0.08057 0.33268 0.0
N1425 N 0.96625 0.0663 0.31364 0.0
C1426 C 0.98573 0.04625 0.33417 0.0
C1427 C 0.9757 0.04941 0.31457 0.0
C1428 C 0.98689 0.06056 0.3542 0.0
C1429 C 0.97713 0.07807 0.35279 0.0
H1430 H 0.95942 0.09387 0.3326 0.0
H1431 H 0.97521 0.0377 0.30012 0.0
C1432 C 0.8982 0.98838 0.24332 0.0
N1433 N 0.89854 1.00639 0.25882 0.0
C1434 C 0.88814 0.96633 0.2451 0.0
C1435 C 0.8783 0.98098 0.2785 0.0
C1436 C 0.88848 1.00261 0.27613 0.0
C1437 C 0.87804 0.96186 0.26314 0.0
H1438 H 0.90624 0.99085 0.2296 0.0
H1439 H 0.88845 0.01641 0.28858 0.0
C1440 C 0.96845 0.10927 0.26842 0.0
N1441 N 1.00175 0.14501 0.27761 0.0
C1442 C 0.96591 0.13058 0.26822 0.0
C1443 C 0.98789 0.10609 0.27335 0.0
C1444 C 0.98295 0.14845 0.27289 0.0
C1445 C 1.00454 0.12439 0.27793 0.0
C1446 C 0.90097 0.05814 0.21761 0.0
C1447 C 0.90749 0.06772 0.20024 0.0
C1448 C 0.88061 0.04714 0.21672 0.0
C1449 C 0.89347 0.06605 0.18212 0.0
C1450 C 0.86704 0.04589 0.19833 0.0
N1451 N 0.8737 0.05527 0.18155 0.0
C1452 C 0.95555 0.04667 0.19174 0.0
C1453 C 0.97864 0.07966 0.2085 0.0
C1454 C 0.96592 0.04591 0.17287 0.0
N1455 N 0.96185 0.06336 0.20957 0.0
C1456 C 0.98937 0.0795 0.19004 0.0
C1457 C 0.98352 0.06237 0.17139 0.0
H1458 H 0.94232 0.03355 0.19194 0.0
H1459 H 0.98399 0.09315 0.22211 0.0
C1460 C 0.89638 0.12144 0.28124 0.0
N1461 N 0.9049 0.11435 0.26335 0.0
C1462 C 0.88598 0.13902 0.28237 0.0
C1463 C 0.89385 0.144 0.2474 0.0
C1464 C 0.90365 0.12584 0.24662 0.0
C1465 C 0.88436 0.15113 0.2654 0.0
H1466 H 0.89749 0.11353 0.29509 0.0
H1467 H 0.91024 0.12102 0.23225 0.0
O1468 O 0.94645 0.04102 0.25803 0.0
O1469 O 0.91805 0.06453 0.28449 0.0
O1470 O 0.95192 0.09165 0.26427 0.0
O1471 O 0.9145 0.05933 0.23534 0.0
H1472 H 0.93932 1.00107 0.26808 0.0
H1473 H 0.98414 0.05184 0.24916 0.0
H1474 H 0.96463 0.97835 0.26942 0.0
H1475 H 1.00874 0.02829 0.25102 0.0
H1476 H 0.86618 0.07266 0.32279 0.0
H1477 H 0.92878 0.04632 0.31743 0.0
H1478 H 0.88341 0.0755 0.29008 0.0
H1479 H 0.91079 0.04391 0.3496 0.0
H1480 H 0.99209 0.03199 0.33331 0.0
H1481 H 0.9772 0.08996 0.36712 0.0
H1482 H 0.88885 0.95283 0.23257 0.0
H1483 H 0.87057 0.97954 0.29256 0.0
H1484 H 0.95093 0.13329 0.26454 0.0
H1485 H 0.99005 0.08969 0.27374 0.0
H1486 H 0.98123 0.16505 0.27279 0.0
H1487 H 0.01968 0.12221 0.2818 0.0
H1488 H 0.92323 0.0763 0.20074 0.0
H1489 H 0.87539 0.03963 0.23009 0.0
H1490 H 0.89829 0.07332 0.1685 0.0
H1491 H 0.85122 0.03743 0.19739 0.0
H1492 H 0.96023 0.03211 0.15962 0.0
H1493 H 1.00225 0.09322 0.19055 0.0
H1494 H 0.87931 0.14324 0.29685 0.0
H1495 H 0.89325 0.15202 0.23353 0.0
Li1496 Li 0.28967 0.66328 0.55039 0.0
Li1497 Li 0.30723 0.64017 0.52555 0.0
Li1498 Li 0.28673 0.66378 0.5121 0.0
Li1499 Li 0.27118 0.63023 0.5237 0.0
C1500 C 0.32589 0.69194 0.53278 0.0
N1501 N 0.35488 0.73038 0.53298 0.0
C1502 C 0.34459 0.69094 0.52582 0.0
C1503 C 0.32198 0.71249 0.53997 0.0
C1504 C 0.35906 0.71056 0.52607 0.0
C1505 C 0.33679 0.73174 0.53983 0.0
C1506 C 0.28274 0.61593 0.56015 0.0
C1507 C 0.27022 0.57752 0.56205 0.0
N1508 N 0.26395 0.5836 0.5814 0.0
C1509 C 0.27638 0.62181 0.58016 0.0
C1510 C 0.27986 0.59362 0.55111 0.0
C1511 C 0.26683 0.60522 0.59061 0.0
C1512 C 0.27208 0.683 0.58374 0.0
N1513 N 0.29008 0.68155 0.57672 0.0
C1514 C 0.30839 0.7102 0.6054 0.0
C1515 C 0.30806 0.69458 0.58712 0.0
C1516 C 0.29002 0.71235 0.61283 0.0
C1517 C 0.27168 0.69854 0.60186 0.0
H1518 H 0.25803 0.67232 0.57506 0.0
H1519 H 0.32207 0.6931 0.58095 0.0
C1520 C 0.33482 0.62555 0.50141 0.0
N1521 N 0.32958 0.62861 0.52166 0.0
C1522 C 0.34946 0.61393 0.49682 0.0
C1523 C 0.35391 0.61022 0.53442 0.0
C1524 C 0.33882 0.6215 0.53818 0.0
C1525 C 0.35896 0.60601 0.51344 0.0
H1526 H 0.32715 0.63154 0.48869 0.0
H1527 H 0.33405 0.62405 0.55403 0.0
C1528 C 0.25111 0.67149 0.52915 0.0
N1529 N 0.22266 0.69645 0.52716 0.0
C1530 C 0.23071 0.66126 0.52149 0.0
C1531 C 0.25702 0.69444 0.53567 0.0
C1532 C 0.21656 0.67415 0.52066 0.0
C1533 C 0.24242 0.70677 0.53455 0.0
C1534 C 0.28387 0.61731 0.48205 0.0
C1535 C 0.27755 0.6213 0.46168 0.0
C1536 C 0.28646 0.59637 0.48416 0.0
C1537 C 0.27352 0.60415 0.44382 0.0
C1538 C 0.28226 0.57964 0.46588 0.0
N1539 N 0.27589 0.58383 0.44627 0.0
C1540 C 0.29548 0.69687 0.48614 0.0
C1541 C 0.26272 0.67217 0.48048 0.0
C1542 C 0.28977 0.70723 0.46956 0.0
N1543 N 0.28183 0.67987 0.49128 0.0
C1544 C 0.25645 0.68186 0.46375 0.0
C1545 C 0.27008 0.69954 0.45834 0.0
H1546 H 0.31075 0.70214 0.49457 0.0
H1547 H 0.25255 0.65811 0.48459 0.0
C1548 C 0.23624 0.60934 0.53544 0.0
N1549 N 0.24682 0.60844 0.51838 0.0
C1550 C 0.21577 0.5991 0.53276 0.0
C1551 C 0.21746 0.5862 0.49502 0.0
C1552 C 0.23803 0.5969 0.49845 0.0
C1553 C 0.20595 0.58794 0.51218 0.0
H1554 H 0.24318 0.61989 0.55064 0.0
H1555 H 0.24631 0.59729 0.48481 0.0
O1556 O 0.31186 0.67285 0.53326 0.0
O1557 O 0.29192 0.63196 0.54961 0.0
O1558 O 0.26509 0.659 0.53051 0.0
O1559 O 0.28721 0.63379 0.49978 0.0
H1560 H 0.34795 0.67516 0.52045 0.0
H1561 H 0.3077 0.71359 0.54563 0.0
H1562 H 0.37364 0.71002 0.52083 0.0
H1563 H 0.33393 0.74775 0.54525 0.0
H1564 H 0.26772 0.56019 0.55517 0.0
H1565 H 0.27868 0.63899 0.58749 0.0
H1566 H 0.28485 0.58881 0.53573 0.0
H1567 H 0.26171 0.60953 0.60604 0.0
H1568 H 0.32281 0.72067 0.61349 0.0
H1569 H 0.25728 0.69956 0.60738 0.0
H1570 H 0.3532 0.61098 0.48051 0.0
H1571 H 0.36103 0.60417 0.5475 0.0
H1572 H 0.22583 0.64356 0.51617 0.0
H1573 H 0.27268 0.70263 0.54166 0.0
H1574 H 0.20073 0.66643 0.51483 0.0
H1575 H 0.2468 0.72454 0.53961 0.0
H1576 H 0.27574 0.63744 0.45964 0.0
H1577 H 0.29144 0.59304 0.49976 0.0
H1578 H 0.26849 0.60699 0.428 0.0
H1579 H 0.28401 0.5633 0.4673 0.0
H1580 H 0.30059 0.72074 0.46528 0.0
H1581 H 0.24122 0.67562 0.4551 0.0
H1582 H 0.20748 0.60173 0.54634 0.0
H1583 H 0.21045 0.57783 0.47891 0.0
Li1584 Li 0.41645 0.53794 0.75955 0.0
Li1585 Li 0.44826 0.5657 0.78416 0.0
Li1586 Li 0.42035 0.58468 0.76253 0.0
Li1587 Li 0.44645 0.56326 0.73966 0.0
C1588 C 0.40809 0.56318 0.80279 0.0
N1589 N 0.38853 0.56312 0.83912 0.0
C1590 C 0.41397 0.5525 0.81917 0.0
C1591 C 0.39228 0.57383 0.80487 0.0
C1592 C 0.40391 0.55268 0.83744 0.0
C1593 C 0.38255 0.57358 0.82335 0.0
C1594 C 0.46107 0.52813 0.76175 0.0
C1595 C 0.49589 0.5255 0.76283 0.0
N1596 N 0.49038 0.50491 0.76761 0.0
C1597 C 0.4557 0.50689 0.7665 0.0
C1598 C 0.48127 0.53749 0.75973 0.0
C1599 C 0.47076 0.49543 0.76946 0.0
C1600 C 0.39717 0.4874 0.74389 0.0
N1601 N 0.39836 0.50543 0.75972 0.0
C1602 C 0.37777 0.48046 0.77949 0.0
C1603 C 0.3888 0.50184 0.77739 0.0
C1604 C 0.37595 0.46149 0.76338 0.0
C1605 C 0.38622 0.46558 0.74539 0.0
H1606 H 0.4049 0.48972 0.72993 0.0
H1607 H 0.38976 0.51561 0.79026 0.0
C1608 C 0.47105 0.58453 0.83057 0.0
N1609 N 0.46547 0.56607 0.81469 0.0
C1610 C 0.48098 0.58429 0.85144 0.0
C1611 C 0.47992 0.54616 0.84017 0.0
C1612 C 0.46986 0.54706 0.81957 0.0
C1613 C 0.48583 0.5649 0.85707 0.0
H1614 H 0.46748 0.59966 0.82734 0.0
H1615 H 0.46525 0.5321 0.80761 0.0
C1616 C 0.40124 0.55732 0.71844 0.0
N1617 N 0.37385 0.55559 0.68283 0.0
C1618 C 0.40786 0.56677 0.70103 0.0
C1619 C 0.38074 0.54704 0.71783 0.0
C1620 C 0.39377 0.56568 0.68313 0.0
C1621 C 0.36711 0.54635 0.69966 0.0
C1622 C 0.4684 0.60834 0.76916 0.0
C1623 C 0.46598 0.62906 0.76601 0.0
C1624 C 0.48752 0.606 0.77697 0.0
C1625 C 0.48281 0.64717 0.77074 0.0
C1626 C 0.50398 0.6245 0.78145 0.0
N1627 N 0.5013 0.64453 0.77829 0.0
C1628 C 0.41291 0.6318 0.77968 0.0
C1629 C 0.38813 0.61301 0.75075 0.0
C1630 C 0.40419 0.65067 0.78146 0.0
N1631 N 0.40517 0.61297 0.76436 0.0
C1632 C 0.37885 0.63157 0.75213 0.0
C1633 C 0.38671 0.65143 0.76758 0.0
H1634 H 0.42617 0.6325 0.79084 0.0
H1635 H 0.38147 0.59856 0.73843 0.0
C1636 C 0.45637 0.54552 0.69303 0.0
N1637 N 0.46236 0.56235 0.71076 0.0
C1638 C 0.46681 0.5449 0.67421 0.0
C1639 C 0.48963 0.57897 0.69118 0.0
C1640 C 0.47888 0.57895 0.70963 0.0
C1641 C 0.48414 0.56169 0.67264 0.0
H1642 H 0.44334 0.53218 0.69327 0.0
H1643 H 0.48396 0.59257 0.72315 0.0
O1644 O 0.41787 0.56353 0.7849 0.0
O1645 O 0.44666 0.5398 0.75918 0.0
O1646 O 0.41482 0.55802 0.73598 0.0
O1647 O 0.45201 0.59055 0.76516 0.0
H1648 H 0.42604 0.54401 0.81771 0.0
H1649 H 0.38758 0.58218 0.79231 0.0
H1650 H 0.40829 0.54449 0.85025 0.0
H1651 H 0.37027 0.58171 0.82516 0.0
H1652 H 0.51161 0.53256 0.76143 0.0
H1653 H 0.44011 0.49945 0.76815 0.0
H1654 H 0.48561 0.55385 0.75587 0.0
H1655 H 0.46687 0.47903 0.7733 0.0
H1656 H 0.37084 0.47891 0.79406 0.0
H1657 H 0.38556 0.45208 0.73227 0.0
H1658 H 0.48433 0.59947 0.86313 0.0
H1659 H 0.48295 0.53058 0.8426 0.0
H1660 H 0.42371 0.5748 0.70132 0.0
H1661 H 0.37544 0.53967 0.73124 0.0
H1662 H 0.39865 0.57285 0.66948 0.0
H1663 H 0.35117 0.53846 0.69893 0.0
H1664 H 0.45126 0.63113 0.75999 0.0
H1665 H 0.48958 0.59011 0.77971 0.0
H1666 H 0.48116 0.66332 0.76843 0.0
H1667 H 0.51887 0.62295 0.78753 0.0
H1668 H 0.41128 0.66463 0.79414 0.0
H1669 H 0.36564 0.63036 0.74067 0.0
H1670 H 0.46134 0.53096 0.66106 0.0
H1671 H 0.50221 0.59299 0.69167 0.0
Li1672 Li 0.65697 0.05577 0.76363 0.0
Li1673 Li 0.69 0.07031 0.75378 0.0
Li1674 Li 0.66106 0.05272 0.72694 0.0
Li1675 Li 0.67762 0.03115 0.74912 0.0
C1676 C 0.65245 0.09345 0.74429 0.0
N1677 N 0.62639 0.12069 0.73954 0.0
C1678 C 0.66007 0.11635 0.74755 0.0
C1679 C 0.6316 0.08442 0.73856 0.0
C1680 C 0.64664 0.12985 0.74511 0.0
C1681 C 0.61866 0.09845 0.7362 0.0
C1682 C 0.69759 0.0571 0.79337 0.0
C1683 C 0.73225 0.06081 0.80862 0.0
N1684 N 0.72792 0.06935 0.82827 0.0
C1685 C 0.69341 0.06565 0.81377 0.0
C1686 C 0.7171 0.05441 0.79081 0.0
C1687 C 0.70897 0.07181 0.83119 0.0
C1688 C 0.63136 0.04657 0.79517 0.0
N1689 N 0.64172 0.06221 0.78516 0.0
C1690 C 0.63697 0.09134 0.81141 0.0
C1691 C 0.64481 0.08417 0.79297 0.0
C1692 C 0.62673 0.07566 0.82227 0.0
C1693 C 0.62361 0.05304 0.81406 0.0
H1694 H 0.6302 0.02927 0.78928 0.0
H1695 H 0.65456 0.09618 0.78583 0.0
C1696 C 0.72803 0.0982 0.75108 0.0
N1697 N 0.71287 0.09301 0.7632 0.0
C1698 C 0.74463 0.11569 0.75924 0.0
C1699 C 0.72968 0.12196 0.79226 0.0
C1700 C 0.71327 0.10454 0.78332 0.0
C1701 C 0.7451 0.12822 0.77972 0.0
H1702 H 0.72672 0.08986 0.73464 0.0
H1703 H 0.7004 0.10078 0.79202 0.0
C1704 C 0.63182 0.01302 0.74546 0.0
N1705 N 0.59878 0.98111 0.75162 0.0
C1706 C 0.63435 0.99273 0.74993 0.0
C1707 C 0.61237 0.01691 0.74383 0.0
C1708 C 0.61751 0.97686 0.75305 0.0
C1709 C 0.5959 1.00064 0.74713 0.0
C1710 C 0.70437 0.04962 0.71507 0.0
C1711 C 0.70113 0.05303 0.69384 0.0
C1712 C 0.72342 0.0473 0.72324 0.0
C1713 C 0.71709 0.0547 0.68137 0.0
C1714 C 0.73905 0.04923 0.71031 0.0
N1715 N 0.73559 0.05287 0.68982 0.0
C1716 C 0.65407 0.07112 0.69118 0.0
C1717 C 0.63079 0.03755 0.69325 0.0
C1718 C 0.64324 0.07241 0.67193 0.0
N1719 N 0.64783 0.05365 0.70099 0.0
C1720 C 0.61916 0.03851 0.67447 0.0
C1721 C 0.62555 0.0559 0.66338 0.0
H1722 H 0.66751 0.0839 0.69832 0.0
H1723 H 0.62608 0.02424 0.7019 0.0
C1724 C 0.68837 1.00196 0.7724 0.0
N1725 N 0.68777 1.00746 0.75251 0.0
C1726 C 0.70105 0.98881 0.77811 0.0
C1727 C 0.71171 0.98713 0.74246 0.0
C1728 C 0.69854 0.99992 0.73734 0.0
C1729 C 0.71323 0.98171 0.76317 0.0
H1730 H 0.6798 1.00876 0.78415 0.0
H1731 H 0.69784 1.00498 0.72181 0.0
O1732 O 0.66535 0.0802 0.74783 0.0
O1733 O 0.68284 0.05225 0.77588 0.0
O1734 O 0.64799 0.0281 0.74094 0.0
O1735 O 0.68883 0.04813 0.7275 0.0
H1736 H 0.67617 0.12361 0.75224 0.0
H1737 H 0.62549 0.06679 0.7361 0.0
H1738 H 0.65231 0.14761 0.74776 0.0
H1739 H 0.60248 0.09167 0.73182 0.0
H1740 H 0.74748 0.05909 0.80681 0.0
H1741 H 0.6784 0.06786 0.81604 0.0
H1742 H 0.72058 0.0478 0.77518 0.0
H1743 H 0.70601 0.07867 0.84702 0.0
H1744 H 0.64006 0.10886 0.81792 0.0
H1745 H 0.61605 0.04067 0.82262 0.0
H1746 H 0.75579 0.12082 0.74875 0.0
H1747 H 0.72929 0.13188 0.80778 0.0
H1748 H 0.64903 0.98895 0.75045 0.0
H1749 H 0.60991 0.03222 0.73993 0.0
H1750 H 0.6193 0.96107 0.7564 0.0
H1751 H 0.58079 1.00349 0.74597 0.0
H1752 H 0.68642 0.05414 0.6869 0.0
H1753 H 0.72626 0.04449 0.73953 0.0
H1754 H 0.71474 0.0574 0.66494 0.0
H1755 H 0.75395 0.04785 0.71657 0.0
H1756 H 0.64872 0.08603 0.66384 0.0
H1757 H 0.60522 0.02587 0.66889 0.0
H1758 H 0.70166 0.98471 0.79411 0.0
H1759 H 0.72115 0.9823 0.73062 0.0
Li1760 Li 0.7898 0.71222 0.02212 0.0
Li1761 Li 0.80476 0.68293 1.00368 0.0
Li1762 Li 0.78891 0.70803 0.98157 0.0
Li1763 Li 0.76558 0.67826 0.99979 0.0
C1764 C 0.82919 0.73275 0.01389 0.0
N1765 N 0.862 0.76724 0.03231 0.0
C1766 C 0.84468 0.72918 0.02799 0.0
C1767 C 0.83044 0.7538 0.00903 0.0
C1768 C 0.86114 0.74685 0.03715 0.0
C1769 C 0.84712 0.77105 0.01858 0.0
C1770 C 0.78738 0.66878 0.04097 0.0
C1771 C 0.78088 0.63361 0.0526 0.0
N1772 N 0.79093 0.6437 0.0725 0.0
C1773 C 0.79765 0.67882 0.06153 0.0
C1774 C 0.7789 0.64602 0.03643 0.0
C1775 C 0.79928 0.66584 0.07726 0.0
C1776 C 0.7729 0.72345 0.05891 0.0
N1777 N 0.7904 0.73007 0.05044 0.0
C1778 C 0.80626 0.75211 0.08491 0.0
C1779 C 0.80686 0.74456 0.06285 0.0
C1780 C 0.78869 0.74442 0.09427 0.0
C1781 C 0.7717 0.73043 0.08074 0.0
H1782 H 0.76016 0.71162 0.04895 0.0
H1783 H 0.82079 0.74939 0.05609 0.0
C1784 C 0.83524 0.66241 0.98704 0.0
N1785 N 0.82721 0.66807 1.00541 0.0
C1786 C 0.8522 0.65323 0.98764 0.0
C1787 C 0.85252 0.65567 0.02607 0.0
C1788 C 0.83555 0.66483 0.02473 0.0
C1789 C 0.86129 0.64984 1.00738 0.0
H1790 H 0.82864 0.66532 0.97186 0.0
H1791 H 0.82942 0.66989 0.0393 0.0
C1792 C 0.75694 0.72676 1.00565 0.0
N1793 N 0.73832 0.76039 0.01832 0.0
C1794 C 0.73681 0.7218 0.00985 0.0
C1795 C 0.76761 0.74879 1.00782 0.0
C1796 C 0.72765 0.73905 0.01622 0.0
C1797 C 0.75794 0.76557 0.01432 0.0
C1798 C 0.7814 0.65708 0.96047 0.0
C1799 C 0.77666 0.65949 0.93915 0.0
C1800 C 0.78373 0.63672 0.96486 0.0
C1801 C 0.77437 0.64142 0.92247 0.0
C1802 C 0.78137 0.61906 0.94772 0.0
N1803 N 0.77678 0.62175 0.92707 0.0
C1804 C 0.80693 0.71981 0.94395 0.0
C1805 C 0.7757 0.72958 0.94707 0.0
C1806 C 0.80811 0.72724 0.92414 0.0
N1807 N 0.79081 0.72089 0.95498 0.0
C1808 C 0.7763 0.73725 0.92734 0.0
C1809 C 0.79255 0.73596 0.91526 0.0
H1810 H 0.81876 0.71271 0.95032 0.0
H1811 H 0.76297 0.73033 0.95594 0.0
C1812 C 0.72918 0.66104 0.01754 0.0
N1813 N 0.7385 0.65846 0.99943 0.0
C1814 C 0.70993 0.64753 0.01858 0.0
C1815 C 0.71008 0.62868 0.98242 0.0
C1816 C 0.72918 0.64274 0.98193 0.0
C1817 C 0.70016 0.63086 1.00094 0.0
H1818 H 0.73679 0.67355 0.03134 0.0
H1819 H 0.73665 0.6409 0.96763 0.0
O1820 O 0.81322 0.71557 1.00435 0.0
O1821 O 0.78544 0.6812 0.02542 0.0
O1822 O 0.76605 0.71009 0.99918 0.0
O1823 O 0.78417 0.67474 0.9769 0.0
H1824 H 0.84399 0.71297 0.03183 0.0
H1825 H 0.81872 0.75675 0.9979 0.0
H1826 H 0.87324 0.74434 0.04809 0.0
H1827 H 0.84827 0.78745 0.01501 0.0
H1828 H 0.7744 0.61596 0.04933 0.0
H1829 H 0.80445 0.6964 0.06528 0.0
H1830 H 0.77088 0.63805 0.02058 0.0
H1831 H 0.80721 0.67337 0.09323 0.0
H1832 H 0.81977 0.76277 0.09477 0.0
H1833 H 0.75778 0.72423 0.08717 0.0
H1834 H 0.85811 0.64881 0.97269 0.0
H1835 H 0.85905 0.6538 0.04174 0.0
H1836 H 0.72831 0.70482 1.00806 0.0
H1837 H 0.78319 0.75286 1.00459 0.0
H1838 H 0.71205 0.73546 0.01946 0.0
H1839 H 0.76602 0.78271 0.01614 0.0
H1840 H 0.77479 0.67516 0.93552 0.0
H1841 H 0.78748 0.63467 0.98131 0.0
H1842 H 0.77072 0.64304 0.90588 0.0
H1843 H 0.78322 0.60322 0.95083 0.0
H1844 H 0.82089 0.72554 0.91561 0.0
H1845 H 0.76406 0.74417 0.92168 0.0
H1846 H 0.70307 0.64962 0.03331 0.0
H1847 H 0.70317 0.61602 0.96845 0.0
Li1848 Li 0.91596 0.51454 0.78165 0.0
Li1849 Li 0.94375 0.53203 0.80957 0.0
Li1850 Li 0.92585 0.55363 0.78886 0.0
Li1851 Li 0.94814 0.53192 0.7728 0.0
C1852 C 0.89994 0.52551 0.82015 0.0
N1853 N 0.86927 0.50748 0.84249 0.0
C1854 C 0.90314 0.51101 0.83396 0.0
C1855 C 0.88114 0.53092 0.8178 0.0
C1856 C 0.88747 0.50208 0.84511 0.0
C1857 C 0.86582 0.52157 0.82918 0.0
C1858 C 0.95368 0.49249 0.7893 0.0
C1859 C 0.98704 0.48555 0.79416 0.0
N1860 N 0.97841 0.46359 0.79217 0.0
C1861 C 0.94513 0.46986 0.78724 0.0
C1862 C 0.9748 0.50043 0.79274 0.0
C1863 C 0.95789 0.45552 0.78878 0.0
C1864 C 0.89815 0.47996 0.75 0.0
N1865 N 0.89533 0.48988 0.76977 0.0
C1866 C 0.86514 0.46257 0.76933 0.0
C1867 C 0.87905 0.48183 0.77939 0.0
C1868 C 0.86794 0.45164 0.74903 0.0
C1869 C 0.88424 0.46111 0.73894 0.0
H1870 H 0.91141 0.48656 0.7429 0.0
H1871 H 0.8772 0.48957 0.79518 0.0
C1872 C 0.96932 0.55087 0.8464 0.0
N1873 N 0.9578 0.53125 0.83526 0.0
C1874 C 0.98273 0.55133 0.86441 0.0
C1875 C 0.9717 0.51135 0.85915 0.0
C1876 C 0.95847 0.51169 0.84128 0.0
C1877 C 0.98408 0.53134 0.87069 0.0
H1878 H 0.9685 0.56603 0.84085 0.0
H1879 H 0.94906 0.49638 0.83197 0.0
C1880 C 0.90568 0.52915 0.74472 0.0
N1881 N 0.87286 0.51438 0.71256 0.0
C1882 C 0.90863 0.52197 0.72345 0.0
C1883 C 0.8861 0.52929 0.74957 0.0
C1884 C 0.89183 0.51448 0.70744 0.0
C1885 C 0.86968 0.52161 0.73309 0.0
C1886 C 0.97252 0.57219 0.79242 0.0
C1887 C 0.97041 0.58965 0.782 0.0
C1888 C 0.99192 0.56966 0.79885 0.0
C1889 C 0.98777 0.60413 0.77789 0.0
C1890 C 1.00891 0.58445 0.79438 0.0
N1891 N 1.0065 0.60123 0.78408 0.0
C1892 C 0.90587 0.58439 0.80541 0.0
C1893 C 0.91366 0.58495 0.76961 0.0
C1894 C 0.89385 0.59922 0.80342 0.0
N1895 N 0.91511 0.57746 0.78849 0.0
C1896 C 0.90209 0.60004 0.76701 0.0
C1897 C 0.89167 0.60693 0.78389 0.0
H1898 H 0.90705 0.57755 0.81998 0.0
H1899 H 0.92089 0.57855 0.75634 0.0
C1900 C 0.95728 0.50479 0.74189 0.0
N1901 N 0.96381 0.52645 0.75125 0.0
C1902 C 0.965 0.49655 0.72388 0.0
C1903 C 0.98619 0.5332 0.72508 0.0
C1904 C 0.97804 0.5408 0.7434 0.0
C1905 C 0.97931 0.51089 0.71525 0.0
H1906 H 0.94545 0.49398 0.74791 0.0
H1907 H 0.98242 0.55809 0.75068 0.0
O1908 O 0.91514 0.53456 0.80919 0.0
O1909 O 0.94129 0.50657 0.78719 0.0
O1910 O 0.92175 0.5348 0.76087 0.0
O1911 O 0.95573 0.55814 0.79701 0.0
H1912 H 0.91745 0.50651 0.83592 0.0
H1913 H 0.8783 0.54197 0.80707 0.0
H1914 H 0.88975 0.4908 0.8558 0.0
H1915 H 0.85115 0.52547 0.82737 0.0
H1916 H 1.00341 0.49144 0.79678 0.0
H1917 H 0.92879 0.46347 0.7844 0.0
H1918 H 0.98162 0.51785 0.79412 0.0
H1919 H 0.95148 0.43796 0.78721 0.0
H1920 H 0.85326 0.45561 0.77826 0.0
H1921 H 0.88695 0.45331 0.72334 0.0
H1922 H 0.99227 0.567 0.87299 0.0
H1923 H 0.97231 0.49572 0.86386 0.0
H1924 H 0.9237 0.52169 0.71948 0.0
H1925 H 0.88356 0.53464 0.76599 0.0
H1926 H 0.89385 0.50856 0.69097 0.0
H1927 H 0.8544 0.52123 0.73666 0.0
H1928 H 0.95558 0.59206 0.77719 0.0
H1929 H 0.99385 0.55651 0.80731 0.0
H1930 H 0.98635 0.61769 0.7698 0.0
H1931 H 0.02401 0.58264 0.79918 0.0
H1932 H 0.88575 0.6039 0.81665 0.0
H1933 H 0.90099 0.60587 0.75184 0.0
H1934 H 0.95923 0.47936 0.7162 0.0
H1935 H 0.99698 0.54462 0.71817 0.0
Li1936 Li 0.81802 0.41899 0.52245 0.0
Li1937 Li 0.79808 0.44352 0.50848 0.0
Li1938 Li 0.81565 0.42025 0.48416 0.0
Li1939 Li 0.83453 0.45221 0.51163 0.0
C1940 C 0.77892 0.39211 0.50101 0.0
N1941 N 0.74987 0.35406 0.50178 0.0
C1942 C 0.76177 0.39332 0.51121 0.0
C1943 C 0.78126 0.37161 0.49105 0.0
C1944 C 0.74726 0.37387 0.51147 0.0
C1945 C 0.7664 0.35255 0.49166 0.0
C1946 C 0.82568 0.46642 0.55163 0.0
C1947 C 0.83718 0.50561 0.56522 0.0
N1948 N 0.84411 0.50142 0.58464 0.0
C1949 C 0.83263 0.46252 0.57183 0.0
C1950 C 0.82768 0.48814 0.54838 0.0
C1951 C 0.842 0.48042 0.58827 0.0
C1952 C 0.84004 0.40816 0.55533 0.0
N1953 N 0.82136 0.40191 0.54343 0.0
C1954 C 0.8098 0.37539 0.56515 0.0
C1955 C 0.80638 0.38564 0.54773 0.0
C1956 C 0.82873 0.3822 0.5782 0.0
C1957 C 0.84413 0.39842 0.57288 0.0
H1958 H 0.85155 0.42135 0.55163 0.0
H1959 H 0.79163 0.38106 0.53821 0.0
C1960 C 0.76312 0.45451 0.49214 0.0
N1961 N 0.77556 0.45528 0.51044 0.0
C1962 C 0.74706 0.46478 0.49311 0.0
C1963 C 0.75701 0.47621 0.53173 0.0
C1964 C 0.77275 0.46557 0.53003 0.0
C1965 C 0.74401 0.47604 0.51308 0.0
H1966 H 0.76592 0.4462 0.47682 0.0
H1967 H 0.78298 0.46588 0.54426 0.0
C1968 C 0.85373 0.41046 0.50683 0.0
N1969 N 0.88146 0.38517 0.51223 0.0
C1970 C 0.87458 0.42006 0.50901 0.0
C1971 C 0.847 0.38791 0.50714 0.0
C1972 C 0.88835 0.40701 0.51178 0.0
C1973 C 0.86125 0.37544 0.50998 0.0
C1974 C 0.82335 0.46404 0.47151 0.0
C1975 C 0.83814 0.45734 0.46002 0.0
C1976 C 0.81728 0.48312 0.46825 0.0
C1977 C 0.84671 0.46999 0.44546 0.0
C1978 C 0.82625 0.49534 0.45357 0.0
N1979 N 0.84066 0.48858 0.44258 0.0
C1980 C 0.79813 0.40299 0.44136 0.0
C1981 C 0.82598 0.38917 0.45331 0.0
C1982 C 0.7949 0.38853 0.42158 0.0
N1983 N 0.81336 0.40284 0.45674 0.0
C1984 C 0.82306 0.37417 0.43404 0.0
C1985 C 0.80726 0.37358 0.41787 0.0
H1986 H 0.78833 0.41409 0.44464 0.0
H1987 H 0.83805 0.38948 0.46565 0.0
C1988 C 0.87038 0.47091 0.53667 0.0
N1989 N 0.85875 0.47429 0.51948 0.0
C1990 C 0.89047 0.48269 0.54203 0.0
C1991 C 0.88597 0.50215 0.51256 0.0
C1992 C 0.86572 0.49033 0.50812 0.0
C1993 C 0.89862 0.49759 0.52914 0.0
H1994 H 0.86448 0.45784 0.54519 0.0
H1995 H 0.85613 0.49304 0.4948 0.0
O1996 O 0.79317 0.41098 0.50053 0.0
O1997 O 0.81702 0.44905 0.53515 0.0
O1998 O 0.84007 0.42312 0.50426 0.0
O1999 O 0.81486 0.45214 0.48602 0.0
H2000 H 0.75974 0.40911 0.51892 0.0
H2001 H 0.79443 0.37045 0.48302 0.0
H2002 H 0.73394 0.37452 0.51937 0.0
H2003 H 0.76801 0.33655 0.48409 0.0
H2004 H 0.83909 0.5225 0.56285 0.0
H2005 H 0.83078 0.44587 0.57484 0.0
H2006 H 0.82226 0.49143 0.53287 0.0
H2007 H 0.84757 0.47762 0.60392 0.0
H2008 H 0.79765 0.36271 0.56873 0.0
H2009 H 0.85882 0.40425 0.58275 0.0
H2010 H 0.73721 0.464 0.4784 0.0
H2011 H 0.75542 0.48496 0.54739 0.0
H2012 H 0.88009 0.43734 0.50833 0.0
H2013 H 0.83091 0.38014 0.50521 0.0
H2014 H 0.90452 0.41425 0.51349 0.0
H2015 H 0.85625 0.35801 0.51036 0.0
H2016 H 0.84311 0.4427 0.46253 0.0
H2017 H 0.80585 0.48849 0.47709 0.0
H2018 H 0.85824 0.46509 0.4365 0.0
H2019 H 0.82179 0.51021 0.45095 0.0
H2020 H 0.78279 0.389 0.40943 0.0
H2021 H 0.8328 0.36279 0.43216 0.0
H2022 H 0.90001 0.47857 0.55468 0.0
H2023 H 0.89202 0.51356 0.5023 0.0
Li2024 Li 0.65799 0.51823 0.29772 0.0
Li2025 Li 0.68801 0.54368 0.27841 0.0
Li2026 Li 0.65711 0.51548 0.25357 0.0
Li2027 Li 0.68471 0.49673 0.27419 0.0
C2028 C 0.64306 0.55252 0.27492 0.0
N2029 N 0.61339 0.57504 0.26789 0.0
C2030 C 0.64801 0.5756 0.27906 0.0
C2031 C 0.62302 0.54087 0.26733 0.0
C2032 C 0.63279 0.5867 0.27539 0.0
C2033 C 0.60824 0.55256 0.26382 0.0
C2034 C 0.70392 0.52845 0.3191 0.0
C2035 C 0.73702 0.52887 0.33655 0.0
N2036 N 0.73254 0.53919 0.3554 0.0
C2037 C 0.69963 0.53909 0.33859 0.0
C2038 C 0.72273 0.52327 0.318 0.0
C2039 C 0.71431 0.54436 0.35679 0.0
C2040 C 0.63535 0.50016 0.3347 0.0
N2041 N 0.64239 0.51913 0.32688 0.0
C2042 C 0.62976 0.53899 0.35765 0.0
C2043 C 0.63957 0.53839 0.33839 0.0
C2044 C 0.62211 0.5196 0.36598 0.0
C2045 C 0.62537 0.50004 0.35371 0.0
H2046 H 0.63741 0.4847 0.32622 0.0
H2047 H 0.64493 0.5537 0.33275 0.0
C2048 C 0.69966 0.58857 0.26445 0.0
N2049 N 0.70569 0.57636 0.27887 0.0
C2050 C 0.71062 0.61066 0.26415 0.0
C2051 C 0.7343 0.60793 0.29333 0.0
C2052 C 0.72281 0.58605 0.29327 0.0
C2053 C 0.72857 0.62099 0.27858 0.0
H2054 H 0.68616 0.58123 0.25291 0.0
H2055 H 0.72779 0.57683 0.30489 0.0
C2056 C 0.63675 0.47335 0.26373 0.0
N2057 N 0.60402 0.43856 0.24591 0.0
C2058 C 0.63965 0.45505 0.24993 0.0
C2059 C 0.61726 0.47396 0.26853 0.0
C2060 C 0.62289 0.43761 0.24109 0.0
C2061 C 0.60089 0.45622 0.25931 0.0
C2062 C 0.69492 0.5171 0.23352 0.0
C2063 C 0.68519 0.49973 0.21667 0.0
C2064 C 0.7123 0.53234 0.23056 0.0
C2065 C 0.69302 0.49798 0.19699 0.0
C2066 C 0.71974 0.52991 0.21069 0.0
N2067 N 0.71 0.51295 0.19445 0.0
C2068 C 0.64147 0.53535 0.216 0.0
C2069 C 0.62874 0.49697 0.20968 0.0
C2070 C 0.63148 0.53667 0.19547 0.0
N2071 N 0.64021 0.51569 0.22308 0.0
C2072 C 0.61851 0.49757 0.18907 0.0
C2073 C 0.6196 0.51762 0.18098 0.0
H2074 H 0.65051 0.55039 0.22623 0.0
H2075 H 0.62753 0.48122 0.21477 0.0
C2076 C 0.70243 0.45706 0.28878 0.0
N2077 N 0.70093 0.46912 0.27255 0.0
C2078 C 0.71286 0.43936 0.28748 0.0
C2079 C 0.72049 0.44575 0.25281 0.0
C2080 C 0.70987 0.46315 0.25464 0.0
C2081 C 0.72258 0.4331 0.26934 0.0
H2082 H 0.69559 0.46106 0.30318 0.0
H2083 H 0.70892 0.47193 0.24136 0.0
O2084 O 0.65779 0.54134 0.27801 0.0
O2085 O 0.68959 0.52263 0.30128 0.0
O2086 O 0.65298 0.49047 0.27271 0.0
O2087 O 0.68761 0.51906 0.25293 0.0
H2088 H 0.66341 0.58486 0.28516 0.0
H2089 H 0.61898 0.52299 0.26394 0.0
H2090 H 0.6364 0.60457 0.27851 0.0
H2091 H 0.59269 0.54377 0.25783 0.0
H2092 H 0.75165 0.52497 0.33597 0.0
H2093 H 0.68509 0.54313 0.33967 0.0
H2094 H 0.72619 0.51493 0.30301 0.0
H2095 H 0.71119 0.55253 0.37202 0.0
H2096 H 0.62785 0.55469 0.36571 0.0
H2097 H 0.6204 0.48438 0.35883 0.0
H2098 H 0.70527 0.61934 0.25221 0.0
H2099 H 0.7477 0.6146 0.30514 0.0
H2100 H 0.65469 0.45434 0.24614 0.0
H2101 H 0.61482 0.48796 0.27932 0.0
H2102 H 0.62489 0.42331 0.23041 0.0
H2103 H 0.5857 0.45646 0.26285 0.0
H2104 H 0.67175 0.48777 0.21879 0.0
H2105 H 0.72003 0.5458 0.24353 0.0
H2106 H 0.68562 0.48469 0.18376 0.0
H2107 H 0.73324 0.54151 0.20819 0.0
H2108 H 0.63344 0.5528 0.19115 0.0
H2109 H 0.60984 0.48194 0.17976 0.0
H2110 H 0.71358 0.43092 0.30105 0.0
H2111 H 0.72692 0.44218 0.23804 0.0
Ho2112 Ho 0.0327 0.02757 1.00435 0.0
Ho2113 Ho 0.07081 0.0545 0.03143 0.0
C2114 C 0.04352 0.08122 0.0083 0.0
C2115 C 0.99453 0.01099 0.9911 0.0
C2116 C 0.97731 0.02086 0.99433 0.0
C2117 C 0.98054 0.0414 1.008 0.0
C2118 C 0.96515 0.05262 0.00894 0.0
C2119 C 0.94596 0.0432 0.99672 0.0
C2120 C 0.94264 0.02225 0.98345 0.0
C2121 C 0.95829 0.01127 0.98212 0.0
C2122 C 0.06245 0.02881 0.97636 0.0
C2123 C 0.05973 1.00079 0.02801 0.0
C2124 C 0.10918 0.07044 0.04358 0.0
C2125 C 0.12559 0.06001 0.03804 0.0
C2126 C 0.12063 0.03924 0.02449 0.0
C2127 C 0.13547 0.02783 0.02043 0.0
C2128 C 0.15578 0.03722 0.02942 0.0
C2129 C 0.16083 0.05831 0.04272 0.0
C2130 C 0.14575 0.06957 0.04715 0.0
C2131 C 0.04127 0.05365 0.05945 0.0
O2132 O 0.02937 0.06247 1.00426 0.0
O2133 O 0.06194 0.08226 0.01755 0.0
O2134 O 1.00713 0.02099 0.97946 0.0
O2135 O 1.00387 1.00671 0.00837 0.0
O2136 O 0.04357 0.01824 0.97188 0.0
O2137 O 0.06485 0.03788 0.99653 0.0
O2138 O 0.07357 0.01975 0.03275 0.0
O2139 O 0.04161 0.99947 0.01776 0.0
O2140 O 0.09704 0.05991 0.05533 0.0
O2141 O 0.09929 0.07606 0.02748 0.0
O2142 O 0.06004 0.06472 0.06365 0.0
O2143 O 0.03865 0.04438 0.0393 0.0
H2144 H 0.99515 0.04907 0.01755 0.0
H2145 H 0.96852 0.06888 0.01897 0.0
H2146 H 0.92798 0.01431 0.97409 0.0
H2147 H 0.95565 0.99548 0.97134 0.0
H2148 H 0.10516 0.03165 0.01722 0.0
H2149 H 0.1309 0.01148 0.0105 0.0
H2150 H 0.1764 0.06614 0.04966 0.0
H2151 H 0.14978 0.08556 0.05774 0.0
Ho2152 Ho 0.31401 0.78714 0.24807 0.0
Ho2153 Ho 0.29148 0.79969 0.28938 0.0
C2154 C 0.31132 0.8377 0.26615 0.0
C2155 C 0.32538 0.7809 0.2106 0.0
C2156 C 0.33414 0.79729 0.19815 0.0
C2157 C 0.32742 0.81679 0.19887 0.0
C2158 C 0.33672 0.83313 0.18821 0.0
C2159 C 0.35268 0.83002 0.17659 0.0
C2160 C 0.36008 0.81105 0.17675 0.0
C2161 C 0.3509 0.79477 0.18765 0.0
C2162 C 0.33946 0.79162 0.28579 0.0
C2163 C 0.29051 0.74895 0.26977 0.0
C2164 C 0.28057 0.80268 0.32688 0.0
C2165 C 0.2726 0.78374 0.33684 0.0
C2166 C 0.28229 0.76624 0.33596 0.0
C2167 C 0.27392 0.74746 0.34396 0.0
C2168 C 0.25575 0.74594 0.353 0.0
C2169 C 0.24515 0.76254 0.3521 0.0
C2170 C 0.25362 0.78142 0.34421 0.0
C2171 C 0.26615 0.79475 0.25153 0.0
O2172 O 0.31476 0.82305 0.2503 0.0
O2173 O 0.30584 0.83305 0.28466 0.0
O2174 O 0.33704 0.78153 0.22834 0.0
O2175 O 0.30627 0.7791 0.21333 0.0
O2176 O 0.34429 0.78784 0.26657 0.0
O2177 O 0.32137 0.79398 0.28357 0.0
O2178 O 0.28827 0.76379 0.2859 0.0
O2179 O 0.29825 0.75357 0.2522 0.0
O2180 O 0.26867 0.80393 0.30996 0.0
O2181 O 0.2998 0.80628 0.32404 0.0
O2182 O 0.26123 0.79931 0.27067 0.0
O2183 O 0.28419 0.79242 0.25406 0.0
H2184 H 0.3147 0.81917 0.20722 0.0
H2185 H 0.33041 0.84736 0.18763 0.0
H2186 H 0.37212 0.80829 0.1674 0.0
H2187 H 0.35661 0.78007 0.18755 0.0
H2188 H 0.2965 0.76716 0.32942 0.0
H2189 H 0.28246 0.73496 0.34454 0.0
H2190 H 0.23102 0.76156 0.3589 0.0
H2191 H 0.24548 0.79431 0.34408 0.0
Ho2192 Ho 0.57528 0.04045 0.51756 0.0
Ho2193 Ho 0.52877 0.03974 0.51992 0.0
C2194 C 0.54092 0.99325 0.51214 0.0
C2195 C 0.61195 0.03501 0.52323 0.0
C2196 C 0.6241 0.01808 0.52006 0.0
C2197 C 0.62957 1.00811 0.53735 0.0
C2198 C 0.64336 0.99466 0.53559 0.0
C2199 C 0.65221 0.99086 0.51654 0.0
C2200 C 0.64616 1.00015 0.49893 0.0
C2201 C 0.63238 0.01368 0.50071 0.0
C2202 C 0.55236 0.03973 0.48072 0.0
C2203 C 0.56325 0.08678 0.52508 0.0
C2204 C 0.49194 0.04489 0.51554 0.0
C2205 C 0.47968 0.06172 0.51579 0.0
C2206 C 0.47662 0.07146 0.49762 0.0
C2207 C 0.46226 0.08414 0.49638 0.0
C2208 C 0.4505 0.08743 0.51322 0.0
C2209 C 0.45439 0.07879 0.53193 0.0
C2210 C 0.46872 0.06598 0.53314 0.0
C2211 C 0.55125 0.03832 0.55592 0.0
O2212 O 0.56033 1.00431 0.51688 0.0
O2213 O 0.52592 1.00334 0.50982 0.0
O2214 O 0.60431 0.04108 0.50604 0.0
O2215 O 0.59974 0.03395 0.5381 0.0
O2216 O 0.57154 0.04965 0.48458 0.0
O2217 O 0.54707 0.02974 0.49556 0.0
O2218 O 0.54385 0.07577 0.51999 0.0
O2219 O 0.57817 0.07671 0.52777 0.0
O2220 O 0.50152 0.04326 0.53392 0.0
O2221 O 0.50235 0.04189 0.49936 0.0
O2222 O 0.53232 0.02766 0.55123 0.0
O2223 O 0.55685 0.0499 0.54222 0.0
H2224 H 0.62366 0.01125 0.55256 0.0
H2225 H 0.64737 0.98751 0.54937 0.0
H2226 H 0.65273 0.99775 0.48405 0.0
H2227 H 0.62876 0.02127 0.48712 0.0
H2228 H 0.48471 0.06856 0.48391 0.0
H2229 H 0.4599 0.09085 0.48187 0.0
H2230 H 0.44557 0.08088 0.54516 0.0
H2231 H 0.47055 0.05857 0.5473 0.0
Ho2232 Ho 0.2806 0.29636 0.76927 0.0
Ho2233 Ho 0.32383 0.28472 0.76718 0.0
C2234 C 0.30959 0.29876 0.81373 0.0
C2235 C 0.24305 0.29678 0.7736 0.0
C2236 C 0.22758 0.29401 0.78879 0.0
C2237 C 0.21912 0.27349 0.79427 0.0
C2238 C 0.20338 0.27133 0.80729 0.0
C2239 C 0.19566 0.2896 0.81512 0.0
C2240 C 0.20453 0.31018 0.80992 0.0
C2241 C 0.22015 0.3123 0.7969 0.0
C2242 C 0.31065 0.33397 0.7657 0.0
C2243 C 0.2942 0.28127 0.72262 0.0
C2244 C 0.36183 0.28632 0.76346 0.0
C2245 C 0.37682 0.28734 0.74778 0.0
C2246 C 0.37956 0.30309 0.7342 0.0
C2247 C 0.39483 0.30406 0.72058 0.0
C2248 C 0.40769 0.28936 0.7203 0.0
C2249 C 0.40439 0.27325 0.73349 0.0
C2250 C 0.38924 0.27233 0.74705 0.0
C2251 C 0.29509 0.24676 0.77167 0.0
O2252 O 0.2909 0.29603 0.80396 0.0
O2253 O 0.32524 0.29746 0.80293 0.0
O2254 O 0.25835 0.31406 0.77925 0.0
O2255 O 0.24845 0.27943 0.76396 0.0
O2256 O 0.29165 0.33315 0.76699 0.0
O2257 O 0.31198 0.31421 0.76621 0.0
O2258 O 0.31281 0.28292 0.73211 0.0
O2259 O 0.27889 0.28387 0.73352 0.0
O2260 O 0.34769 0.26803 0.76071 0.0
O2261 O 0.35509 0.30382 0.76977 0.0
O2262 O 0.31433 0.24885 0.77078 0.0
O2263 O 0.29215 0.266 0.77041 0.0
H2264 H 0.22437 0.25901 0.78821 0.0
H2265 H 0.19689 0.25514 0.81069 0.0
H2266 H 0.1994 0.32476 0.81589 0.0
H2267 H 0.22626 0.32833 0.7929 0.0
H2268 H 0.37016 0.31482 0.73432 0.0
H2269 H 0.39692 0.31675 0.71075 0.0
H2270 H 0.41358 0.26131 0.73343 0.0
H2271 H 0.38738 0.25994 0.75725 0.0
Ho2272 Ho 0.04766 0.06265 0.5311 0.0
Ho2273 Ho 0.05604 0.02032 0.50749 0.0
C2274 C 0.03597 0.04859 0.47667 0.0
C2275 C 0.04676 0.1035 0.54052 0.0
C2276 C 0.05085 0.12018 0.52679 0.0
C2277 C 0.06051 0.11584 0.5085 0.0
C2278 C 0.06513 0.13161 0.49551 0.0
C2279 C 0.06008 0.15199 0.50051 0.0
C2280 C 0.04977 0.15606 0.51842 0.0
C2281 C 0.04521 0.14022 0.53155 0.0
C2282 C 0.01858 0.02577 0.53247 0.0
C2283 C 0.06958 0.03515 0.56127 0.0
C2284 C 0.05217 0.97848 0.49557 0.0
C2285 C 0.05066 0.96123 0.50873 0.0
C2286 C 0.04456 0.96483 0.52931 0.0
C2287 C 0.04407 0.949 0.54241 0.0
C2288 C 0.04952 0.92921 0.53509 0.0
C2289 C 0.05588 0.92578 0.51455 0.0
C2290 C 0.05649 0.94175 0.50148 0.0
C2291 C 0.08951 0.05383 0.50819 0.0
O2292 O 0.0369 0.06273 0.49512 0.0
O2293 O 0.04284 0.03046 0.47698 0.0
O2294 O 0.0304 0.08763 0.53367 0.0
O2295 O 0.0625 0.09614 0.5465 0.0
O2296 O 0.02442 0.04281 0.54808 0.0
O2297 O 0.02813 0.0298 0.51668 0.0
O2298 O 0.06561 0.01951 0.54348 0.0
O2299 O 0.06511 0.05448 0.56039 0.0
O2300 O 0.06967 0.99289 0.49897 0.0
O2301 O 0.03686 0.98776 0.49467 0.0
O2302 O 0.08719 0.03364 0.49839 0.0
O2303 O 0.07328 0.05509 0.51603 0.0
H2304 H 0.06475 0.10033 0.50441 0.0
H2305 H 0.07278 0.12791 0.4816 0.0
H2306 H 0.04577 0.17171 0.52262 0.0
H2307 H 0.03756 0.14369 0.54549 0.0
H2308 H 0.04018 0.9799 0.53528 0.0
H2309 H 0.03941 0.95227 0.55828 0.0
H2310 H 0.05997 0.91058 0.50841 0.0
H2311 H 0.06147 0.93888 0.48573 0.0
Ho2312 Ho 0.32175 0.80631 0.76959 0.0
Ho2313 Ho 0.28294 0.77402 0.76874 0.0
C2314 C 0.32307 0.75289 0.76991 0.0
C2315 C 0.35779 0.83135 0.78019 0.0
C2316 C 0.37837 0.82797 0.77948 0.0
C2317 C 0.38916 0.82479 0.79823 0.0
C2318 C 0.40822 0.82047 0.79768 0.0
C2319 C 0.41697 0.81944 0.77843 0.0
C2320 C 0.40648 0.82315 0.75975 0.0
C2321 C 0.38726 0.82735 0.76025 0.0
C2322 C 0.30387 0.7856 0.72955 0.0
C2323 C 0.28151 0.82718 0.76831 0.0
C2324 C 0.24691 0.7491 0.759 0.0
C2325 C 0.22722 0.75393 0.75374 0.0
C2326 C 0.22422 0.76569 0.7371 0.0
C2327 C 0.2053 0.76963 0.73177 0.0
C2328 C 0.18929 0.76217 0.74319 0.0
C2329 C 0.19247 0.7514 0.76049 0.0
C2330 C 0.21138 0.74717 0.76567 0.0
C2331 C 0.30196 0.7935 0.80828 0.0
O2332 O 0.33367 0.77414 0.77277 0.0
O2333 O 0.30281 0.74879 0.76689 0.0
O2334 O 0.34685 0.82989 0.76162 0.0
O2335 O 0.3474 0.82154 0.79386 0.0
O2336 O 0.31345 0.8063 0.73421 0.0
O2337 O 0.3051 0.77735 0.74624 0.0
O2338 O 0.27111 0.80582 0.76371 0.0
O2339 O 0.30168 0.83137 0.77303 0.0
O2340 O 0.25549 0.75645 0.77898 0.0
O2341 O 0.25962 0.7523 0.74485 0.0
O2342 O 0.2929 0.77263 0.80342 0.0
O2343 O 0.29983 0.80255 0.79223 0.0
H2344 H 0.38282 0.8255 0.81334 0.0
H2345 H 0.41627 0.81825 0.81246 0.0
H2346 H 0.41304 0.82258 0.74478 0.0
H2347 H 0.37935 0.82994 0.74557 0.0
H2348 H 0.23632 0.77154 0.72792 0.0
H2349 H 0.20302 0.77805 0.71842 0.0
H2350 H 0.18012 0.74546 0.76935 0.0
H2351 H 0.21355 0.73836 0.77874 0.0
Ho2352 Ho 0.55681 0.04419 0.03808 0.0
Ho2353 Ho 0.53932 0.03888 0.99127 0.0
C2354 C 0.51213 0.0115 0.01874 0.0
C2355 C 0.55843 0.0478 0.0788 0.0
C2356 C 0.54423 0.03308 0.0894 0.0
C2357 C 0.52621 0.03858 0.09471 0.0
C2358 C 0.51171 0.02374 0.10265 0.0
C2359 C 0.51508 1.00324 0.1057 0.0
C2360 C 0.53258 0.99725 0.09944 0.0
C2361 C 0.54708 0.01207 0.09145 0.0
C2362 C 0.56873 0.01405 0.01138 0.0
C2363 C 0.58544 0.06773 0.00971 0.0
C2364 C 0.53576 0.03846 0.95093 0.0
C2365 C 0.55264 0.04978 0.94086 0.0
C2366 C 0.5651 0.03757 0.93079 0.0
C2367 C 0.58345 0.04835 0.9252 0.0
C2368 C 0.58956 0.07155 0.92938 0.0
C2369 C 0.57722 0.08382 0.93953 0.0
C2370 C 0.55888 0.07305 0.94518 0.0
C2371 C 0.52767 0.06854 0.01907 0.0
O2372 O 0.52466 0.02388 0.03557 0.0
O2373 O 0.51594 0.01177 0.99876 0.0
O2374 O 0.57081 0.03859 0.06805 0.0
O2375 O 0.55037 0.06071 0.06825 0.0
O2376 O 0.58003 0.02558 0.02882 0.0
O2377 O 0.55111 0.01727 0.01013 0.0
O2378 O 0.57276 0.0548 0.99321 0.0
O2379 O 0.58037 0.07027 0.02937 0.0
O2380 O 0.52792 0.05141 0.96405 0.0
O2381 O 0.53881 0.02137 0.95889 0.0
O2382 O 0.51559 0.05536 1.00308 0.0
O2383 O 0.54548 0.066 0.01914 0.0
H2384 H 0.52335 0.05444 0.09288 0.0
H2385 H 0.49853 0.02895 0.10783 0.0
H2386 H 0.53554 0.98161 0.10193 0.0
H2387 H 0.56058 1.00708 0.08705 0.0
H2388 H 0.56087 0.01966 0.92764 0.0
H2389 H 0.59243 0.03851 0.91672 0.0
H2390 H 0.5815 0.10173 0.94247 0.0
H2391 H 0.54983 0.08304 0.9533 0.0
Ho2392 Ho 0.31095 0.3165 0.27754 0.0
Ho2393 Ho 0.29434 0.26945 0.26112 0.0
C2394 C 0.26339 0.29921 0.2734 0.0
C2395 C 0.32507 0.35861 0.28355 0.0
C2396 C 0.31285 0.37491 0.2831 0.0
C2397 C 0.29357 0.3685 0.27075 0.0
C2398 C 0.28053 0.3825 0.27196 0.0
C2399 C 0.28668 0.40331 0.28527 0.0
C2400 C 0.30606 0.41009 0.29739 0.0
C2401 C 0.31906 0.39576 0.29652 0.0
C2402 C 0.30373 0.29298 0.30963 0.0
C2403 C 0.34174 0.28638 0.26618 0.0
C2404 C 0.28045 0.22732 0.25466 0.0
C2405 C 0.29266 0.2113 0.25721 0.0
C2406 C 0.31019 0.21751 0.27253 0.0
C2407 C 0.3239 0.20423 0.27286 0.0
C2408 C 0.32034 0.18446 0.25789 0.0
C2409 C 0.30258 0.17795 0.24285 0.0
C2410 C 0.28884 0.19137 0.24245 0.0
C2411 C 0.29989 0.29422 0.22943 0.0
O2412 O 0.27822 0.31658 0.2734 0.0
O2413 O 0.26624 0.27909 0.27045 0.0
O2414 O 0.32282 0.34778 0.29945 0.0
O2415 O 0.32432 0.34563 0.26506 0.0
O2416 O 0.30087 0.3125 0.30941 0.0
O2417 O 0.31151 0.2868 0.29291 0.0
O2418 O 0.32693 0.26924 0.26677 0.0
O2419 O 0.33876 0.30639 0.26804 0.0
O2420 O 0.28458 0.23809 0.239 0.0
O2421 O 0.27906 0.2403 0.27245 0.0
O2422 O 0.30371 0.27498 0.22869 0.0
O2423 O 0.29262 0.29915 0.24668 0.0
H2424 H 0.28844 0.35254 0.26028 0.0
H2425 H 0.26574 0.37724 0.26221 0.0
H2426 H 0.31099 0.42629 0.30758 0.0
H2427 H 0.33376 0.40081 0.3064 0.0
H2428 H 0.31363 0.23298 0.28391 0.0
H2429 H 0.33731 0.20945 0.28484 0.0
H2430 H 0.29959 0.16278 0.23108 0.0
H2431 H 0.27563 0.18657 0.23024 0.0
Ho2432 Ho 0.54868 0.56518 0.02806 0.0
Ho2433 Ho 0.55792 0.5185 0.00971 0.0
C2434 C 0.53683 0.54424 0.97525 0.0
C2435 C 0.55165 0.60692 0.03759 0.0
C2436 C 0.55636 0.62374 0.02425 0.0
C2437 C 0.56183 0.6179 1.00369 0.0
C2438 C 0.5659 0.63353 0.99049 0.0
C2439 C 0.5644 0.6552 0.99762 0.0
C2440 C 0.55847 0.66092 0.01805 0.0
C2441 C 0.55449 0.64522 0.03133 0.0
C2442 C 0.51695 0.53061 0.03106 0.0
C2443 C 0.56979 0.53946 0.06254 0.0
C2444 C 0.55455 0.47669 0.99996 0.0
C2445 C 0.54991 0.45974 0.01316 0.0
C2446 C 0.54597 0.46573 0.03435 0.0
C2447 C 0.54176 0.44994 0.04734 0.0
C2448 C 0.54161 0.42791 0.03936 0.0
C2449 C 0.54596 0.42196 0.01824 0.0
C2450 C 0.55007 0.43785 1.00516 0.0
C2451 C 0.58971 0.55296 1.0066 0.0
O2452 O 0.5401 0.5619 0.99111 0.0
O2453 O 0.54143 0.52552 0.97905 0.0
O2454 O 0.53435 0.59243 0.03081 0.0
O2455 O 0.56654 0.59786 0.04275 0.0
O2456 O 0.51738 0.5513 0.03723 0.0
O2457 O 0.53386 0.53023 0.02456 0.0
O2458 O 0.56663 0.52186 0.04664 0.0
O2459 O 0.56515 0.55819 0.05879 0.0
O2460 O 0.57196 0.49104 1.00658 0.0
O2461 O 0.53968 0.48593 0.99523 0.0
O2462 O 0.58906 0.53224 1.00022 0.0
O2463 O 0.5729 0.55352 0.01335 0.0
H2464 H 0.56298 0.60125 0.99784 0.0
H2465 H 0.57015 0.62867 0.97469 0.0
H2466 H 0.5573 0.67761 0.02387 0.0
H2467 H 0.54998 0.64981 0.04706 0.0
H2468 H 0.54608 0.48263 0.04086 0.0
H2469 H 0.53876 0.45498 0.06367 0.0
H2470 H 0.54584 0.405 0.01176 0.0
H2471 H 0.55333 0.43309 0.98889 0.0
Ho2472 Ho 0.82526 0.31237 0.27084 0.0
Ho2473 Ho 0.78602 0.27504 0.26848 0.0
C2474 C 0.82839 0.25842 0.26788 0.0
C2475 C 0.85914 0.33917 0.28766 0.0
C2476 C 0.88005 0.33755 0.28602 0.0
C2477 C 0.89343 0.34095 0.30508 0.0
C2478 C 0.91199 0.3353 0.30451 0.0
C2479 C 0.91748 0.32634 0.28482 0.0
C2480 C 0.90454 0.32388 0.26556 0.0
C2481 C 0.88578 0.32924 0.26617 0.0
C2482 C 0.81306 0.29213 0.22951 0.0
C2483 C 0.78204 0.32836 0.26928 0.0
C2484 C 0.74984 0.25067 0.25838 0.0
C2485 C 0.73033 0.25681 0.2554 0.0
C2486 C 0.72314 0.26095 0.2353 0.0
C2487 C 0.70509 0.26753 0.23263 0.0
C2488 C 0.6938 0.26987 0.24992 0.0
C2489 C 0.70113 0.26636 0.27018 0.0
C2490 C 0.71926 0.25976 0.27289 0.0
C2491 C 0.80613 0.29361 0.30783 0.0
O2492 O 0.83764 0.28024 0.27147 0.0
O2493 O 0.80808 0.25214 0.2648 0.0
O2494 O 0.84856 0.34167 0.27018 0.0
O2495 O 0.84904 0.32445 0.29765 0.0
O2496 O 0.82868 0.30884 0.23535 0.0
O2497 O 0.80507 0.28805 0.24597 0.0
O2498 O 0.77308 0.3068 0.26845 0.0
O2499 O 0.80231 0.33462 0.27031 0.0
O2500 O 0.75928 0.2556 0.27815 0.0
O2501 O 0.76206 0.25517 0.24399 0.0
O2502 O 0.79662 0.27288 0.30265 0.0
O2503 O 0.80301 0.30323 0.29236 0.0
H2504 H 0.88911 0.34701 0.32054 0.0
H2505 H 0.92192 0.33755 0.31952 0.0
H2506 H 0.90857 0.31697 0.25025 0.0
H2507 H 0.87549 0.32606 0.25128 0.0
H2508 H 0.73137 0.25896 0.22155 0.0
H2509 H 0.69957 0.27013 0.21685 0.0
H2510 H 0.69241 0.26776 0.28359 0.0
H2511 H 0.72447 0.25677 0.28861 0.0
Ho2512 Ho 0.05819 0.53899 0.5427 0.0
Ho2513 Ho 0.04661 0.54103 0.4973 0.0
C2514 C 0.0144 0.51098 0.51702 0.0
C2515 C 0.05657 0.53321 0.58141 0.0
C2516 C 0.03854 0.52035 0.58864 0.0
C2517 C 0.02246 0.53005 0.59343 0.0
C2518 C 1.00493 0.5176 0.59915 0.0
C2519 C 1.00329 0.49531 0.60055 0.0
C2520 C 0.01845 0.48507 0.5937 0.0
C2521 C 0.03608 0.49757 0.58811 0.0
C2522 C 0.07461 0.51413 0.5146 0.0
C2523 C 0.08992 0.57011 0.52408 0.0
C2524 C 0.04745 0.5457 0.45802 0.0
C2525 C 0.06306 0.56062 0.44922 0.0
C2526 C 0.07971 0.55338 0.44214 0.0
C2527 C 0.09439 0.56731 0.4336 0.0
C2528 C 0.09264 0.58877 0.43172 0.0
C2529 C 0.07691 0.59665 0.44051 0.0
C2530 C 0.06213 0.58263 0.44902 0.0
C2531 C 0.03047 0.56659 0.52516 0.0
O2532 O 0.02511 0.52198 0.53548 0.0
O2533 O 0.02174 0.51216 0.49864 0.0
O2534 O 0.06543 0.52172 0.56803 0.0
O2535 O 0.05477 0.55172 0.57552 0.0
O2536 O 0.0844 0.52578 0.53274 0.0
O2537 O 0.05639 0.51564 0.51239 0.0
O2538 O 0.07964 0.55948 0.50521 0.0
O2539 O 0.08198 0.56861 0.54205 0.0
O2540 O 0.03678 0.55536 0.47074 0.0
O2541 O 0.053 0.52936 0.46534 0.0
O2542 O 0.0209 0.55536 0.50679 0.0
O2543 O 0.04851 0.56455 0.52758 0.0
H2544 H 0.02358 0.54742 0.5933 0.0
H2545 H 0.99359 0.52605 0.60454 0.0
H2546 H 0.01749 0.4679 0.59471 0.0
H2547 H 0.04796 0.48946 0.58383 0.0
H2548 H 0.08108 0.53667 0.4425 0.0
H2549 H 0.1061 0.56042 0.42677 0.0
H2550 H 0.07527 0.61312 0.43943 0.0
H2551 H 0.04969 0.58887 0.45488 0.0
Ho2552 Ho 0.7813 0.79864 0.26839 0.0
Ho2553 Ho 0.82324 0.78386 0.26692 0.0
C2554 C 0.8094 0.7993 0.31321 0.0
C2555 C 0.7441 0.80087 0.27235 0.0
C2556 C 0.72798 0.79768 0.28666 0.0
C2557 C 0.72484 0.78059 0.29867 0.0
C2558 C 0.70917 0.7783 0.31182 0.0
C2559 C 0.69634 0.7931 0.31331 0.0
C2560 C 0.69995 0.81041 0.30149 0.0
C2561 C 0.71546 0.81258 0.28834 0.0
C2562 C 0.81272 0.83476 0.26482 0.0
C2563 C 0.79573 0.78475 0.2222 0.0
C2564 C 0.86027 0.78126 0.26273 0.0
C2565 C 0.8769 0.78562 0.24915 0.0
C2566 C 0.88434 0.80643 0.24378 0.0
C2567 C 0.90113 0.81009 0.23228 0.0
C2568 C 0.91089 0.79305 0.22591 0.0
C2569 C 0.90293 0.77209 0.2308 0.0
C2570 C 0.88621 0.76847 0.24226 0.0
C2571 C 0.79216 0.74756 0.27076 0.0
O2572 O 0.79104 0.79795 0.30324 0.0
O2573 O 0.8249 0.79668 0.30262 0.0
O2574 O 0.76 0.81718 0.27963 0.0
O2575 O 0.7488 0.78351 0.26174 0.0
O2576 O 0.79381 0.8349 0.26548 0.0
O2577 O 0.81344 0.81485 0.2658 0.0
O2578 O 0.81387 0.78545 0.23222 0.0
O2579 O 0.78004 0.78717 0.23249 0.0
O2580 O 0.84417 0.76569 0.25403 0.0
O2581 O 0.85581 0.79792 0.27489 0.0
O2582 O 0.8112 0.74797 0.27049 0.0
O2583 O 0.79101 0.76737 0.26962 0.0
H2584 H 0.73438 0.76895 0.29781 0.0
H2585 H 0.70691 0.76466 0.32047 0.0
H2586 H 0.69091 0.82252 0.30249 0.0
H2587 H 0.71769 0.82604 0.27941 0.0
H2588 H 0.87741 0.81994 0.24871 0.0
H2589 H 0.90655 0.82635 0.22853 0.0
H2590 H 0.91005 0.75861 0.22648 0.0
H2591 H 0.88082 0.75227 0.24622 0.0
Ho2592 Ho 0.80929 0.2853 0.74734 0.0
Ho2593 Ho 0.79068 0.30172 0.79113 0.0
C2594 C 0.81721 0.33753 0.76983 0.0
C2595 C 0.818 0.28087 0.70848 0.0
C2596 C 0.83278 0.29569 0.69866 0.0
C2597 C 0.83816 0.31844 0.707 0.0
C2598 C 0.84911 0.33317 0.69576 0.0
C2599 C 0.85442 0.32533 0.67567 0.0
C2600 C 0.85133 0.30246 0.66859 0.0
C2601 C 0.84046 0.28763 0.68008 0.0
C2602 C 0.83554 0.28643 0.78348 0.0
C2603 C 0.78016 0.25048 0.76805 0.0
C2604 C 0.78235 0.3062 0.82986 0.0
C2605 C 0.77413 0.28867 0.84161 0.0
C2606 C 0.78514 0.27313 0.84562 0.0
C2607 C 0.77688 0.25586 0.85567 0.0
C2608 C 0.75728 0.25353 0.86176 0.0
C2609 C 0.7458 0.26839 0.85664 0.0
C2610 C 0.75424 0.28594 0.84681 0.0
C2611 C 0.76492 0.29971 0.75431 0.0
O2612 O 0.81877 0.32201 0.75387 0.0
O2613 O 0.80829 0.33404 0.78696 0.0
O2614 O 0.82568 0.27145 0.72312 0.0
O2615 O 0.8026 0.28862 0.71422 0.0
O2616 O 0.8386 0.28089 0.7637 0.0
O2617 O 0.81836 0.29133 0.78264 0.0
O2618 O 0.78181 0.26515 0.78585 0.0
O2619 O 0.78784 0.25436 0.75025 0.0
O2620 O 0.76983 0.30783 0.8136 0.0
O2621 O 0.801 0.30776 0.82536 0.0
O2622 O 0.76133 0.30602 0.77374 0.0
O2623 O 0.78209 0.29516 0.75619 0.0
H2624 H 0.83248 0.3251 0.72118 0.0
H2625 H 0.85116 0.35074 0.70137 0.0
H2626 H 0.85524 0.2961 0.65302 0.0
H2627 H 0.83679 0.27008 0.67362 0.0
H2628 H 0.80028 0.27437 0.84129 0.0
H2629 H 0.78643 0.24508 0.85965 0.0
H2630 H 0.73054 0.26685 0.86081 0.0
H2631 H 0.74523 0.29739 0.84326 0.0
Ho2632 Ho 0.8135 0.81763 0.77985 0.0
Ho2633 Ho 0.79319 0.76727 0.75913 0.0
C2634 C 0.76456 0.79858 0.77522 0.0
C2635 C 0.8251 0.85999 0.7859 0.0
C2636 C 0.81311 0.8752 0.78044 0.0
C2637 C 0.79379 0.8662 0.76876 0.0
C2638 C 0.78097 0.87962 0.76474 0.0
C2639 C 0.78735 0.90248 0.77208 0.0
C2640 C 0.80675 0.91166 0.78396 0.0
C2641 C 0.81962 0.89798 0.78821 0.0
C2642 C 0.8136 0.79116 0.8104 0.0
C2643 C 0.84178 0.7867 0.76334 0.0
C2644 C 0.77952 0.72505 0.75323 0.0
C2645 C 0.79154 0.70847 0.75213 0.0
C2646 C 0.8122 0.71525 0.76042 0.0
C2647 C 0.82435 0.70037 0.759 0.0
C2648 C 0.81589 0.67803 0.75015 0.0
C2649 C 0.79527 0.67114 0.74133 0.0
C2650 C 0.78313 0.6864 0.74221 0.0
C2651 C 0.80016 0.79457 0.72994 0.0
O2652 O 0.78039 0.81581 0.77948 0.0
O2653 O 0.7657 0.77823 0.76775 0.0
O2654 O 0.81829 0.84921 0.80082 0.0
O2655 O 0.82908 0.84709 0.7693 0.0
O2656 O 0.82192 0.81214 0.81408 0.0
O2657 O 0.80701 0.78599 0.79058 0.0
O2658 O 0.82663 0.76918 0.76245 0.0
O2659 O 0.83972 0.8071 0.76739 0.0
O2660 O 0.78048 0.73607 0.73736 0.0
O2661 O 0.78183 0.73792 0.77213 0.0
O2662 O 0.79954 0.77361 0.72634 0.0
O2663 O 0.79489 0.79971 0.74854 0.0
H2664 H 0.7884 0.84864 0.76299 0.0
H2665 H 0.76591 0.87199 0.75611 0.0
H2666 H 0.81196 0.92931 0.78981 0.0
H2667 H 0.83441 0.90507 0.79763 0.0
H2668 H 0.81895 0.732 0.76849 0.0
H2669 H 0.84028 0.70623 0.76557 0.0
H2670 H 0.78842 0.65393 0.7345 0.0
H2671 H 0.76723 0.68094 0.73555 0.0
Ho2672 Ho 0.53391 0.52734 0.50508 0.0
Ho2673 Ho 0.57099 0.55456 0.53219 0.0
C2674 C 0.54377 0.58087 0.50912 0.0
C2675 C 0.49594 0.51196 0.49063 0.0
C2676 C 0.47905 0.522 0.49545 0.0
C2677 C 0.4803 0.53577 0.51546 0.0
C2678 C 0.46595 0.54804 0.5192 0.0
C2679 C 0.45044 0.5475 0.50268 0.0
C2680 C 0.44929 0.53372 0.48255 0.0
C2681 C 0.46342 0.52098 0.47903 0.0
C2682 C 0.56357 0.52886 0.47713 0.0
C2683 C 0.56086 0.50111 0.52897 0.0
C2684 C 0.60898 0.57088 0.54634 0.0
C2685 C 0.62655 0.56152 0.54298 0.0
C2686 C 0.6269 0.54764 0.52342 0.0
C2687 C 0.64199 0.536 0.52148 0.0
C2688 C 0.65676 0.53781 0.53915 0.0
C2689 C 0.6565 0.55188 0.55861 0.0
C2690 C 0.64152 0.5637 0.56048 0.0
C2691 C 0.5415 0.55292 0.56034 0.0
O2692 O 0.52976 0.56207 0.50578 0.0
O2693 O 0.56237 0.58207 0.51786 0.0
O2694 O 0.50881 0.52335 0.48017 0.0
O2695 O 0.50497 0.50512 0.50653 0.0
O2696 O 0.5451 0.51703 0.47308 0.0
O2697 O 0.56611 0.53815 0.49723 0.0
O2698 O 0.57482 0.51997 0.53248 0.0
O2699 O 0.54243 0.49972 0.5195 0.0
O2700 O 0.59623 0.56002 0.55727 0.0
O2701 O 0.59986 0.57629 0.52957 0.0
O2702 O 0.56003 0.5646 0.56429 0.0
O2703 O 0.53878 0.54362 0.54019 0.0
H2704 H 0.49283 0.53767 0.52795 0.0
H2705 H 0.46726 0.55817 0.535 0.0
H2706 H 0.4379 0.53326 0.46924 0.0
H2707 H 0.46264 0.51105 0.46322 0.0
H2708 H 0.61514 0.54521 0.50988 0.0
H2709 H 0.64173 0.52503 0.50639 0.0
H2710 H 0.6678 0.55363 0.57241 0.0
H2711 H 0.6412 0.57396 0.57582 0.0
Ho2712 Ho 0.07828 0.54294 0.01396 0.0
Ho2713 Ho 0.03185 0.541 0.02014 0.0
C2714 C 0.04594 0.49588 0.01246 0.0
C2715 C 0.1146 0.5373 0.01117 0.0
C2716 C 0.12708 0.52083 0.01226 0.0
C2717 C 0.13432 0.51581 0.03198 0.0
C2718 C 0.14775 0.50191 0.03257 0.0
C2719 C 0.15432 0.49272 0.01349 0.0
C2720 C 0.14667 0.49741 0.99377 0.0
C2721 C 0.13332 0.5113 0.9932 0.0
C2722 C 0.05356 0.547 0.98072 0.0
C2723 C 0.06594 0.58871 0.02567 0.0
C2724 C 0.99463 0.54544 0.01654 0.0
C2725 C 0.98173 0.5618 0.01868 0.0
C2726 C 0.97323 0.56809 1.0002 0.0
C2727 C 0.95856 0.58057 1.00152 0.0
C2728 C 0.95178 0.58707 0.02137 0.0
C2729 C 0.96089 0.58149 0.04 0.0
C2730 C 0.97555 0.56899 0.03866 0.0
C2731 C 0.0561 0.5381 0.05447 0.0
O2732 O 0.06492 0.5079 0.01769 0.0
O2733 O 0.0303 0.50485 0.0091 0.0
O2734 O 0.10028 0.53292 0.99471 0.0
O2735 O 0.10923 0.54671 0.029 0.0
O2736 O 0.07264 0.55691 0.98422 0.0
O2737 O 0.04892 0.53406 0.99354 0.0
O2738 O 0.04653 0.57758 0.0231 0.0
O2739 O 0.08132 0.57905 0.02498 0.0
O2740 O 1.00414 0.54199 0.03416 0.0
O2741 O 1.00535 0.54462 1.0004 0.0
O2742 O 0.03661 0.52972 0.05173 0.0
O2743 O 0.0611 0.54979 0.04064 0.0
H2744 H 0.12992 0.52292 0.047 0.0
H2745 H 0.15309 0.49845 0.04803 0.0
H2746 H 0.15154 0.49096 0.97878 0.0
H2747 H 0.12826 0.51506 0.97777 0.0
H2748 H 0.97735 0.56262 0.98448 0.0
H2749 H 0.95185 0.58424 0.98675 0.0
H2750 H 0.95644 0.58644 0.05566 0.0
H2751 H 0.98156 0.56437 0.05326 0.0
H2752 H 1.00548 0.1571 0.97928 0.0
H2753 H 0.06714 0.18136 0.96715 0.0
H2754 H 0.07714 0.15127 0.98144 0.0
H2755 H 0.06848 0.11684 0.99636 0.0
H2756 H 1.00638 0.09083 1.00555 0.0
H2757 H 0.99667 0.12236 0.9934 0.0
C2758 C 0.02109 0.15581 0.97951 0.0
C2759 C 0.03542 0.17205 0.97218 0.0
C2760 C 0.0268 0.1379 0.98731 0.0
C2761 C 0.05565 0.1698 0.97306 0.0
C2762 C 0.06146 0.15232 0.98111 0.0
C2763 C 0.05286 0.11818 0.99588 0.0
C2764 C 0.03822 0.10138 1.00199 0.0
C2765 C 0.04719 0.13619 0.98825 0.0
C2766 C 0.01799 0.10336 1.00093 0.0
C2767 C 0.0124 0.12145 0.99394 0.0
H2768 H 0.21213 0.82304 0.17829 0.0
H2769 H 0.16579 0.77569 0.19979 0.0
H2770 H 0.19149 0.76666 0.22385 0.0
H2771 H 0.2268 0.77347 0.24073 0.0
H2772 H 0.27417 0.81929 0.2193 0.0
H2773 H 0.2488 0.82737 0.19331 0.0
C2774 C 0.2077 0.81074 0.18824 0.0
C2775 C 0.1868 0.80018 0.18717 0.0
C2776 C 0.22287 0.80516 0.20198 0.0
C2777 C 0.18156 0.78409 0.2001 0.0
C2778 C 0.19632 0.77888 0.21394 0.0
C2779 C 0.23169 0.78472 0.22988 0.0
C2780 C 0.2525 0.7953 0.23169 0.0
C2781 C 0.21697 0.78934 0.21515 0.0
C2782 C 0.25842 0.8103 0.21785 0.0
C2783 C 0.24378 0.8152 0.20321 0.0
H2784 H 0.50844 0.89027 0.47959 0.0
H2785 H 0.57174 0.89256 0.4973 0.0
H2786 H 0.57872 0.93234 0.51026 0.0
H2787 H 0.56723 0.9667 0.51514 0.0
H2788 H 0.50385 0.96441 0.4978 0.0
H2789 H 0.49652 0.92435 0.48668 0.0
C2790 C 0.52371 0.89935 0.48666 0.0
C2791 C 0.53954 0.88832 0.48731 0.0
C2792 C 0.52764 0.92227 0.49416 0.0
C2793 C 0.55929 0.90057 0.49623 0.0
C2794 C 0.56329 0.92334 0.50376 0.0
C2795 C 0.55176 0.95748 0.50907 0.0
C2796 C 0.53617 0.9687 0.50719 0.0
C2797 C 0.54764 0.93442 0.50254 0.0
C2798 C 0.51621 0.95633 0.4994 0.0
C2799 C 0.51199 0.93337 0.49296 0.0
H2800 H 0.47305 0.30157 0.65451 0.0
H2801 H 0.50948 0.28662 0.70718 0.0
H2802 H 0.48075 0.28233 0.72757 0.0
H2803 H 0.44577 0.28408 0.73138 0.0
H2804 H 0.40867 0.29879 0.6792 0.0
H2805 H 0.4372 0.30241 0.65808 0.0
C2806 C 0.47475 0.29751 0.6705 0.0
C2807 C 0.49357 0.29437 0.67916 0.0
C2808 C 0.45805 0.29519 0.6824 0.0
C2809 C 0.49524 0.28882 0.69984 0.0
C2810 C 0.4788 0.2865 0.71166 0.0
C2811 C 0.44374 0.28779 0.71527 0.0
C2812 C 0.42495 0.29116 0.70702 0.0
C2813 C 0.46017 0.28973 0.70317 0.0
C2814 C 0.42295 0.29639 0.6862 0.0
C2815 C 0.43927 0.29835 0.67403 0.0
H2816 H 0.04972 0.84864 0.58251 0.0
H2817 H 0.99303 0.86228 0.59858 0.0
H2818 H 0.99854 0.89359 0.57981 0.0
H2819 H 0.01861 0.91591 0.5576 0.0
H2820 H 0.07577 0.90317 0.54217 0.0
H2821 H 0.07097 0.87264 0.56213 0.0
C2822 C 0.03871 0.85864 0.58212 0.0
C2823 C 0.0209 0.85305 0.59171 0.0
C2824 C 0.04201 0.87666 0.5714 0.0
C2825 C 1.00666 0.86601 0.59093 0.0
C2826 C 0.00986 0.88398 0.58034 0.0
C2827 C 0.03021 0.90671 0.5589 0.0
C2828 C 0.04747 0.91171 0.54836 0.0
C2829 C 0.02736 0.88928 0.57034 0.0
C2830 C 0.06219 0.89941 0.5499 0.0
C2831 C 0.0595 0.88203 0.56136 0.0
H2832 H 0.51034 0.82739 0.78865 0.0
H2833 H 0.49196 0.77595 0.82547 0.0
H2834 H 0.45644 0.77245 0.81233 0.0
H2835 H 0.43072 0.78807 0.79529 0.0
H2836 H 0.44897 0.84234 0.76194 0.0
H2837 H 0.48444 0.84058 0.76861 0.0
C2838 C 0.49854 0.81526 0.7936 0.0
C2839 C 0.50373 0.80217 0.80819 0.0
C2840 C 0.47815 0.81401 0.78677 0.0
C2841 C 0.48838 0.78615 0.81412 0.0
C2842 C 0.46805 0.78428 0.8068 0.0
C2843 C 0.44249 0.79929 0.78926 0.0
C2844 C 0.43745 0.81553 0.77849 0.0
C2845 C 0.46278 0.79874 0.79387 0.0
C2846 C 0.4526 0.82971 0.77028 0.0
C2847 C 0.47285 0.82883 0.77424 0.0
H2848 H 0.48646 0.13049 0.07792 0.0
H2849 H 0.54682 0.17298 0.0856 0.0
H2850 H 0.5583 0.14422 0.06322 0.0
H2851 H 0.55101 0.10731 0.04088 0.0
H2852 H 0.49023 0.06572 0.03108 0.0
H2853 H 0.47904 0.09363 0.05512 0.0
C2854 C 0.50207 0.13342 0.07456 0.0
C2855 C 0.51583 0.15364 0.08345 0.0
C2856 C 0.5085 0.11695 0.06149 0.0
C2857 C 0.53607 0.15731 0.07917 0.0
C2858 C 0.54262 0.14096 0.06635 0.0
C2859 C 0.53538 0.1044 0.0442 0.0
C2860 C 0.5214 0.08471 0.0344 0.0
C2861 C 0.52898 0.12073 0.05744 0.0
C2862 C 0.50114 0.08095 0.03848 0.0
C2863 C 0.49476 0.09687 0.05216 0.0
H2864 H 0.1776 0.29454 0.30255 0.0
H2865 H 0.21009 0.35788 0.34037 0.0
H2866 H 0.2396 0.35636 0.32174 0.0
H2867 H 0.25726 0.33539 0.29767 0.0
H2868 H 0.22627 0.27026 0.26283 0.0
H2869 H 0.19495 0.27405 0.27742 0.0
C2870 C 0.19117 0.30796 0.30677 0.0
C2871 C 0.19173 0.3262 0.3229 0.0
C2872 C 0.2083 0.30662 0.29658 0.0
C2873 C 0.20921 0.34374 0.32784 0.0
C2874 C 0.22614 0.34282 0.31732 0.0
C2875 C 0.24352 0.32222 0.29292 0.0
C2876 C 0.2439 0.30261 0.27922 0.0
C2877 C 0.22597 0.32415 0.30202 0.0
C2878 C 0.22619 0.28549 0.27342 0.0
C2879 C 0.20838 0.28762 0.28179 0.0
H2880 H 0.97253 0.04159 0.12606 0.0
H2881 H 0.02443 0.08124 0.17064 0.0
H2882 H 0.04501 0.08236 0.14148 0.0
H2883 H 0.04978 0.07251 0.10302 0.0
H2884 H 0.99946 0.03223 0.0573 0.0
H2885 H 0.97772 0.03098 0.08646 0.0
C2886 C 0.98834 0.05051 0.12965 0.0
C2887 C 0.99613 0.06177 0.15158 0.0
C2888 C 1.00086 0.05101 0.11213 0.0
C2889 C 0.01701 0.07292 0.15469 0.0
C2890 C 0.02919 0.07343 0.1377 0.0
C2891 C 0.03402 0.0634 0.09914 0.0
C2892 C 0.02672 0.05254 0.07722 0.0
C2893 C 0.02144 0.06268 0.11629 0.0
C2894 C 1.00602 0.04089 0.07345 0.0
C2895 C 0.99344 0.04017 0.09043 0.0
H2896 H 0.2634 0.68134 0.41632 0.0
H2897 H 0.26291 0.73994 0.46137 0.0
H2898 H 0.25353 0.7577 0.43155 0.0
H2899 H 0.24965 0.75794 0.3934 0.0
H2900 H 0.25429 0.70149 0.34768 0.0
H2901 H 0.25731 0.68088 0.3771 0.0
C2902 C 0.26098 0.6979 0.41939 0.0
C2903 C 0.2638 0.70961 0.4406 0.0
C2904 C 0.25619 0.70808 0.40222 0.0
C2905 C 0.26087 0.73098 0.44492 0.0
C2906 C 0.25544 0.74098 0.42799 0.0
C2907 C 0.25048 0.74082 0.38972 0.0
C2908 C 0.25146 0.73107 0.3685 0.0
C2909 C 0.25349 0.72983 0.40664 0.0
C2910 C 0.25325 0.70914 0.36397 0.0
C2911 C 0.25524 0.69753 0.38076 0.0
H2912 H 0.60623 0.02113 0.6323 0.0
H2913 H 0.61828 0.09234 0.64876 0.0
H2914 H 0.59738 0.09299 0.61557 0.0
H2915 H 0.57417 0.07313 0.58311 0.0
H2916 H 0.55787 1.00193 0.56984 0.0
H2917 H 0.58167 1.00126 0.6012 0.0
C2918 C 0.60404 0.0368 0.62888 0.0
C2919 C 0.61368 0.05662 0.64301 0.0
C2920 C 0.59114 0.03697 0.61058 0.0
C2921 C 0.61125 0.07685 0.63796 0.0
C2922 C 0.59915 0.07724 0.61914 0.0
C2923 C 0.57588 0.05755 0.58729 0.0
C2924 C 0.56453 0.03761 0.57475 0.0
C2925 C 0.58884 0.05739 0.60556 0.0
C2926 C 0.56649 0.01737 0.57982 0.0
C2927 C 0.58008 0.01703 0.59752 0.0
H2928 H 0.3356 0.33393 0.91429 0.0
H2929 H 0.27136 0.30759 0.91449 0.0
H2930 H 0.26703 0.29524 0.87553 0.0
H2931 H 0.28106 0.29268 0.84113 0.0
H2932 H 0.34543 0.31714 0.84074 0.0
H2933 H 0.35011 0.32879 0.88005 0.0
C2934 C 0.32067 0.32514 0.90599 0.0
C2935 C 0.30381 0.32204 0.91765 0.0
C2936 C 0.31827 0.31764 0.88343 0.0
C2937 C 0.2846 0.31082 0.90618 0.0
C2938 C 0.2821 0.30354 0.8838 0.0
C2939 C 0.29617 0.30047 0.84959 0.0
C2940 C 0.31285 0.30415 0.83783 0.0
C2941 C 0.29876 0.30706 0.87222 0.0
C2942 C 0.3323 0.31405 0.84926 0.0
C2943 C 0.33498 0.32082 0.87178 0.0
H2944 H 0.98445 0.07681 0.39859 0.0
H2945 H 0.01619 0.0363 0.36 0.0
H2946 H 0.03259 0.02842 0.39243 0.0
H2947 H 0.03882 0.03236 0.43279 0.0
H2948 H 0.00968 0.07536 0.4716 0.0
H2949 H 0.99229 0.08264 0.43892 0.0
C2950 C 0.995 0.06633 0.39694 0.0
C2951 C 0.99806 0.05691 0.3757 0.0
C2952 C 1.0053 0.0621 0.41631 0.0
C2953 C 0.01224 0.04346 0.37519 0.0
C2954 C 0.0221 0.03899 0.39414 0.0
C2955 C 0.0287 0.04337 0.43426 0.0
C2956 C 0.02584 0.05311 0.45537 0.0
C2957 C 0.01876 0.04803 0.41493 0.0
C2958 C 0.01258 0.06747 0.45612 0.0
C2959 C 1.00244 0.07169 0.43716 0.0
H2960 H 0.31316 0.71713 0.65066 0.0
H2961 H 0.26696 0.74261 0.61921 0.0
H2962 H 0.26769 0.76878 0.65256 0.0
H2963 H 0.28149 0.78398 0.69112 0.0
H2964 H 0.3268 0.7567 0.72188 0.0
H2965 H 0.32665 0.73182 0.68828 0.0
C2966 C 0.30342 0.72859 0.65107 0.0
C2967 C 0.2902 0.7282 0.63264 0.0
C2968 C 0.30383 0.74327 0.67014 0.0
C2969 C 0.27725 0.7427 0.63337 0.0
C2970 C 0.27773 0.75767 0.65235 0.0
C2971 C 0.2914 0.77271 0.69022 0.0
C2972 C 0.30419 0.7721 0.70867 0.0
C2973 C 0.29097 0.75809 0.67087 0.0
C2974 C 0.31685 0.75732 0.7077 0.0
C2975 C 0.31677 0.74311 0.68857 0.0
H2976 H 0.64371 0.06934 0.85968 0.0
H2977 H 0.59891 0.09896 0.83162 0.0
H2978 H 0.58793 0.108 0.86703 0.0
H2979 H 0.58638 0.09983 0.90306 0.0
H2980 H 0.62829 0.06597 0.92985 0.0
H2981 H 0.64641 0.06769 0.89834 0.0
C2982 C 0.63174 0.07804 0.86158 0.0
C2983 C 0.62154 0.08299 0.84347 0.0
C2984 C 0.62545 0.08279 0.88173 0.0
C2985 C 0.60649 0.09473 0.84563 0.0
C2986 C 0.60038 0.09997 0.86576 0.0
C2987 C 0.6001 0.09384 0.90249 0.0
C2988 C 0.60579 0.08226 0.91822 0.0
C2989 C 0.60914 0.09315 0.88365 0.0
C2990 C 0.62363 0.0747 0.9176 0.0
C2991 C 0.63367 0.07528 0.89944 0.0
H2992 H 0.29713 0.35367 0.15668 0.0
H2993 H 0.32635 0.30572 0.12525 0.0
H2994 H 0.32483 0.28722 0.15626 0.0
H2995 H 0.31529 0.28412 0.19222 0.0
H2996 H 0.28642 0.33159 0.22471 0.0
H2997 H 0.28781 0.35074 0.19373 0.0
C2998 C 0.3031 0.33913 0.1566 0.0
C2999 C 0.31196 0.33125 0.13846 0.0
C3000 C 0.30231 0.32846 0.1748 0.0
C3001 C 0.31972 0.31244 0.13891 0.0
C3002 C 0.31878 0.30173 0.15667 0.0
C3003 C 0.30929 0.29867 0.19258 0.0
C3004 C 0.30079 0.30636 0.21088 0.0
C3005 C 0.31016 0.30955 0.1747 0.0
C3006 C 0.29315 0.32532 0.21096 0.0
C3007 C 0.29389 0.33624 0.19315 0.0
H3008 H 0.21399 0.97851 0.99622 0.0
H3009 H 0.24573 1.00529 0.06052 0.0
H3010 H 0.21969 0.02526 0.06859 0.0
H3011 H 0.18821 0.03537 0.05708 0.0
H3012 H 0.15849 0.01108 0.99153 0.0
H3013 H 0.18348 0.98971 0.98432 0.0
C3014 C 0.21535 0.98893 0.01191 0.0
C3015 C 0.23172 0.99048 0.02771 0.0
C3016 C 0.20068 1.00072 0.01625 0.0
C3017 C 0.23308 1.00363 0.04816 0.0
C3018 C 0.2183 0.01517 0.05273 0.0
C3019 C 0.18737 0.02572 0.04111 0.0
C3020 C 0.17146 0.02486 0.02492 0.0
C3021 C 0.2021 0.01392 0.03683 0.0
C3022 C 0.17036 0.0118 1.00445 0.0
C3023 C 0.18473 0.99968 1.00022 0.0
H3024 H 0.66287 0.6381 0.01063 0.0
H3025 H 0.69399 0.58646 0.99482 0.0
H3026 H 0.66311 0.55851 0.99591 0.0
H3027 H 0.62708 0.54827 0.9999 0.0
H3028 H 0.59481 0.59867 0.01572 0.0
H3029 H 0.6259 0.6274 0.0157 0.0
C3030 C 0.66283 0.62071 1.00747 0.0
C3031 C 0.68081 0.61442 1.00238 0.0
C3032 C 0.64468 0.60446 1.00784 0.0
C3033 C 0.68042 0.5918 0.9984 0.0
C3034 C 0.66273 0.57577 0.99907 0.0
C3035 C 0.62675 0.56555 1.00337 0.0
C3036 C 0.60839 0.5712 1.00756 0.0
C3037 C 0.64473 0.58185 1.00349 0.0
C3038 C 0.60852 0.59374 0.01226 0.0
C3039 C 0.62641 0.61019 0.01229 0.0
H3040 H 0.71946 0.39311 0.28757 0.0
H3041 H 0.75569 0.43014 0.24706 0.0
H3042 H 0.77619 0.40311 0.24348 0.0
H3043 H 0.7855 0.36841 0.25197 0.0
H3044 H 0.74806 0.32967 0.29014 0.0
H3045 H 0.72765 0.35714 0.29445 0.0
C3046 C 0.73183 0.39555 0.27793 0.0
C3047 C 0.7353 0.41471 0.26764 0.0
C3048 C 0.74399 0.37914 0.27551 0.0
C3049 C 0.75172 0.41624 0.25518 0.0
C3050 C 0.76386 0.4005 0.25317 0.0
C3051 C 0.77288 0.36575 0.26126 0.0
C3052 C 0.76893 0.34617 0.27076 0.0
C3053 C 0.76038 0.38177 0.26325 0.0
C3054 C 0.75199 0.3439 0.28241 0.0
C3055 C 0.74012 0.35994 0.28497 0.0
H3056 H 0.91953 0.48628 0.49749 0.0
H3057 H 0.92645 0.52127 0.56304 0.0
H3058 H 0.9634 0.52613 0.56577 0.0
H3059 H 0.99303 0.52016 0.54949 0.0
H3060 H 0.98642 0.48555 0.48361 0.0
H3061 H 0.94949 0.47987 0.48124 0.0
C3062 C 0.92926 0.4954 0.51216 0.0
C3063 C 0.92067 0.50394 0.5299 0.0
C3064 C 0.9502 0.4975 0.51372 0.0
C3065 C 0.93306 0.51503 0.54915 0.0
C3066 C 0.95401 0.51754 0.55075 0.0
C3067 C 0.98358 0.51101 0.53468 0.0
C3068 C 0.9924 0.50322 0.51672 0.0
C3069 C 0.96265 0.50861 0.5332 0.0
C3070 C 0.97991 0.4916 0.49765 0.0
C3071 C 0.95888 0.48859 0.49622 0.0
H3072 H 0.39293 0.13908 0.26922 0.0
H3073 H 0.34317 0.08241 0.26595 0.0
H3074 H 0.31871 0.10449 0.25907 0.0
H3075 H 0.31179 0.14042 0.25636 0.0
H3076 H 0.36164 0.19755 0.26114 0.0
H3077 H 0.38598 0.17486 0.26531 0.0
C3078 C 0.3767 0.13169 0.2668 0.0
C3079 C 0.36959 0.10944 0.26802 0.0
C3080 C 0.36291 0.14454 0.26335 0.0
C3081 C 0.3487 0.09969 0.2651 0.0
C3082 C 0.33482 0.11225 0.26118 0.0
C3083 C 0.32797 0.14778 0.25793 0.0
C3084 C 0.33497 0.17051 0.25848 0.0
C3085 C 0.34178 0.13476 0.26058 0.0
C3086 C 0.35597 0.18004 0.26088 0.0
C3087 C 0.36985 0.16712 0.26321 0.0
H3088 H 0.37193 0.11982 0.48588 0.0
H3089 H 0.38891 0.15971 0.5498 0.0
H3090 H 0.41792 0.14365 0.55546 0.0
H3091 H 0.43895 0.11829 0.54217 0.0
H3092 H 0.42244 0.07986 0.47764 0.0
H3093 H 0.39332 0.09575 0.47225 0.0
C3094 C 0.38207 0.12533 0.50097 0.0
C3095 C 0.3779 0.14097 0.51736 0.0
C3096 C 0.39906 0.11633 0.50403 0.0
C3097 C 0.39126 0.14741 0.53694 0.0
C3098 C 0.40805 0.13834 0.54018 0.0
C3099 C 0.42896 0.1134 0.52694 0.0
C3100 C 0.43307 0.09797 0.51028 0.0
C3101 C 0.41212 0.12273 0.52385 0.0
C3102 C 0.41995 0.09195 0.49063 0.0
C3103 C 0.40315 0.10093 0.48756 0.0
H3104 H 0.71836 0.66089 0.26988 0.0
H3105 H 0.77018 0.63446 0.28474 0.0
H3106 H 0.7929 0.66988 0.28414 0.0
H3107 H 0.79923 0.70861 0.27926 0.0
H3108 H 0.74892 0.73721 0.26514 0.0
H3109 H 0.72509 0.7015 0.26564 0.0
C3110 C 0.73461 0.66276 0.273 0.0
C3111 C 0.74208 0.64417 0.27765 0.0
C3112 C 0.74818 0.68398 0.2728 0.0
C3113 C 0.76343 0.64781 0.28158 0.0
C3114 C 0.77668 0.66834 0.2811 0.0
C3115 C 0.78304 0.70731 0.27637 0.0
C3116 C 0.77628 0.72626 0.2722 0.0
C3117 C 0.76937 0.6866 0.27681 0.0
C3118 C 0.755 0.72349 0.26854 0.0
C3119 C 0.74126 0.70278 0.26875 0.0
H3120 H 0.82863 0.43304 0.75174 0.0
H3121 H 0.88291 0.41773 0.72973 0.0
H3122 H 0.87112 0.37983 0.73409 0.0
H3123 H 0.8496 0.35372 0.75167 0.0
H3124 H 0.79834 0.3705 0.77938 0.0
H3125 H 0.80605 0.40624 0.76769 0.0
C3126 C 0.8377 0.42127 0.7476 0.0
C3127 C 0.85697 0.42844 0.74149 0.0
C3128 C 0.83214 0.40032 0.75266 0.0
C3129 C 0.86809 0.41286 0.73484 0.0
C3130 C 0.86166 0.39125 0.73788 0.0
C3131 C 0.84013 0.36525 0.75504 0.0
C3132 C 0.82364 0.35994 0.76638 0.0
C3133 C 0.84453 0.38538 0.74819 0.0
C3134 C 0.81145 0.37478 0.77104 0.0
C3135 C 0.81555 0.39486 0.76396 0.0
H3136 H 0.09771 0.9299 0.06736 0.0
H3137 H 0.03541 0.89199 0.05306 0.0
H3138 H 0.02575 0.92193 0.03779 0.0
H3139 H 0.03472 0.95976 0.02913 0.0
H3140 H 0.09732 0.99694 0.04317 0.0
H3141 H 0.1069 0.96652 0.05727 0.0
C3142 C 0.08204 0.92794 0.06067 0.0
C3143 C 0.0674 0.9085 0.0617 0.0
C3144 C 0.07651 0.9453 0.05171 0.0
C3145 C 0.0471 0.90676 0.05306 0.0
C3146 C 0.04152 0.92391 0.04411 0.0
C3147 C 0.05049 0.96115 0.03509 0.0
C3148 C 0.06518 0.98092 0.03506 0.0
C3149 C 0.05605 0.94341 0.04347 0.0
C3150 C 0.08553 0.9822 0.043 0.0
C3151 C 0.0911 0.9647 0.05115 0.0
H3152 H 0.89264 0.27355 0.86508 0.0
H3153 H 0.93548 0.28134 0.81901 0.0
H3154 H 0.90964 0.28696 0.79283 0.0
H3155 H 0.87514 0.28927 0.78218 0.0
H3156 H 0.8309 0.28208 0.82646 0.0
H3157 H 0.85677 0.27694 0.85403 0.0
C3158 C 0.89624 0.27634 0.84926 0.0
C3159 C 0.91629 0.27704 0.84423 0.0
C3160 C 0.88103 0.27989 0.83394 0.0
C3161 C 0.92049 0.28088 0.8236 0.0
C3162 C 0.90563 0.2841 0.8085 0.0
C3163 C 0.87104 0.28678 0.79794 0.0
C3164 C 0.85094 0.28621 0.80215 0.0
C3165 C 0.88593 0.2837 0.81345 0.0
C3166 C 0.84618 0.28294 0.82275 0.0
C3167 C 0.86103 0.27978 0.83845 0.0
H3168 H 0.59889 0.19054 0.54598 0.0
H3169 H 0.53749 0.18809 0.55926 0.0
H3170 H 0.52847 0.14805 0.54825 0.0
H3171 H 0.53811 0.11345 0.53605 0.0
H3172 H 0.5998 0.11529 0.52438 0.0
H3173 H 0.60855 0.15567 0.53353 0.0
C3174 C 0.58355 0.18125 0.54648 0.0
C3175 C 0.56888 0.19248 0.55326 0.0
C3176 C 0.57848 0.15803 0.54041 0.0
C3177 C 0.54902 0.18007 0.55367 0.0
C3178 C 0.54386 0.15708 0.54754 0.0
C3179 C 0.55343 0.12267 0.53531 0.0
C3180 C 0.56826 0.11132 0.52951 0.0
C3181 C 0.55845 0.14587 0.54096 0.0
C3182 C 0.5881 0.12358 0.5289 0.0
C3183 C 0.59312 0.14669 0.53412 0.0
H3184 H 0.63115 0.77532 0.37885 0.0
H3185 H 0.59672 0.80132 0.33302 0.0
H3186 H 0.62493 0.80605 0.31154 0.0
H3187 H 0.65891 0.80188 0.30516 0.0
H3188 H 0.69478 0.77861 0.35226 0.0
H3189 H 0.66656 0.77357 0.37362 0.0
C3190 C 0.62991 0.78204 0.36416 0.0
C3191 C 0.61181 0.78784 0.35744 0.0
C3192 C 0.64643 0.7851 0.35204 0.0
C3193 C 0.61048 0.79677 0.33853 0.0
C3194 C 0.6266 0.79942 0.32622 0.0
C3195 C 0.66081 0.79601 0.32024 0.0
C3196 C 0.67914 0.79049 0.32681 0.0
C3197 C 0.64463 0.79358 0.33275 0.0
C3198 C 0.68085 0.78255 0.34635 0.0
C3199 C 0.6647 0.77981 0.35874 0.0
H3200 H 0.10117 0.22287 0.4483 0.0
H3201 H 0.04177 0.23642 0.44564 0.0
H3202 H 0.0302 0.20677 0.46554 0.0
H3203 H 0.03739 0.17762 0.48453 0.0
H3204 H 0.0971 0.16482 0.48754 0.0
H3205 H 0.10819 0.19364 0.46669 0.0
C3206 C 0.08575 0.21943 0.45224 0.0
C3207 C 0.07239 0.23184 0.44569 0.0
C3208 C 0.07928 0.20254 0.46373 0.0
C3209 C 0.0523 0.22694 0.45044 0.0
C3210 C 0.04571 0.2101 0.46189 0.0
C3211 C 0.05283 0.18127 0.48069 0.0
C3212 C 0.06643 0.16922 0.48756 0.0
C3213 C 0.05913 0.1979 0.46876 0.0
C3214 C 0.08632 0.17379 0.48223 0.0
C3215 C 0.0927 0.19031 0.47042 0.0
H3216 H 0.60664 0.2886 0.24285 0.0
H3217 H 0.59669 0.23215 0.1913 0.0
H3218 H 0.63184 0.23034 0.19869 0.0
H3219 H 0.66507 0.24442 0.21957 0.0
H3220 H 0.67624 0.30046 0.2715 0.0
H3221 H 0.6408 0.30299 0.26422 0.0
C3222 C 0.61228 0.27595 0.23335 0.0
C3223 C 0.59917 0.26032 0.21684 0.0
C3224 C 0.63258 0.27502 0.23765 0.0
C3225 C 0.60647 0.244 0.20446 0.0
C3226 C 0.62656 0.24306 0.20852 0.0
C3227 C 0.65978 0.25736 0.22911 0.0
C3228 C 0.67303 0.27243 0.24575 0.0
C3229 C 0.63967 0.25845 0.22502 0.0
C3230 C 0.66608 0.28878 0.25849 0.0
C3231 C 0.64594 0.29019 0.25434 0.0
H3232 H 0.58953 0.94962 0.93577 0.0
H3233 H 0.59879 0.91436 0.98742 0.0
H3234 H 0.59081 0.94341 0.01331 0.0
H3235 H 0.58013 0.97832 0.02076 0.0
H3236 H 0.57224 0.01403 0.96929 0.0
H3237 H 0.58069 0.98536 0.94354 0.0
C3238 C 0.58989 0.94848 0.95274 0.0
C3239 C 0.59468 0.93016 0.9599 0.0
C3240 C 0.58538 0.96515 0.96736 0.0
C3241 C 0.59528 0.92861 0.98181 0.0
C3242 C 0.59064 0.94508 0.9965 0.0
C3243 C 0.58035 0.97968 1.00389 0.0
C3244 C 0.57489 0.99755 0.99647 0.0
C3245 C 0.58554 0.96334 0.98941 0.0
C3246 C 0.57542 0.99968 0.97484 0.0
C3247 C 0.58054 0.98351 0.96028 0.0
H3248 H 0.92496 0.79083 0.72822 0.0
H3249 H 0.89571 0.72206 0.70375 0.0
H3250 H 0.8679 0.72507 0.72469 0.0
H3251 H 0.84989 0.74822 0.7458 0.0
H3252 H 0.87761 0.81781 0.76759 0.0
H3253 H 0.90801 0.81347 0.75167 0.0
C3254 C 0.91245 0.77652 0.72739 0.0
C3255 C 0.91221 0.75637 0.71417 0.0
C3256 C 0.89619 0.77854 0.73883 0.0
C3257 C 0.89627 0.73778 0.71383 0.0
C3258 C 0.8803 0.7395 0.72568 0.0
C3259 C 0.8627 0.76238 0.74743 0.0
C3260 C 0.86137 0.78334 0.75752 0.0
C3261 C 0.87983 0.75995 0.73768 0.0
C3262 C 0.87816 0.80151 0.75963 0.0
C3263 C 0.89553 0.79908 0.75049 0.0
H3264 H 0.13225 0.02921 0.91104 0.0
H3265 H 0.07929 0.0192 0.86407 0.0
H3266 H 0.05814 0.02055 0.89291 0.0
H3267 H 0.05327 0.02368 0.93178 0.0
H3268 H 0.10543 0.03598 0.97988 0.0
H3269 H 0.12738 0.0344 0.95112 0.0
C3270 C 0.11608 0.02727 0.90691 0.0
C3271 C 0.10796 0.02415 0.8844 0.0
C3272 C 0.10342 0.0284 0.92423 0.0
C3273 C 0.08671 0.02193 0.88049 0.0
C3274 C 0.0743 0.02257 0.89729 0.0
C3275 C 0.06949 0.02623 0.93623 0.0
C3276 C 0.07721 0.02998 0.95876 0.0
C3277 C 0.0823 0.02576 0.91927 0.0
C3278 C 0.09852 0.03321 0.9633 0.0
C3279 C 0.11123 0.0322 0.94652 0.0
H3280 H 0.86151 0.36849 0.59327 0.0
H3281 H 0.80304 0.37768 0.60817 0.0
H3282 H 0.80769 0.36375 0.64157 0.0
H3283 H 0.82698 0.34675 0.6649 0.0
H3284 H 0.88433 0.33467 0.64974 0.0
H3285 H 0.88199 0.35287 0.61824 0.0
C3286 C 0.84992 0.36758 0.60399 0.0
C3287 C 0.83186 0.37376 0.59827 0.0
C3288 C 0.85265 0.35942 0.6231 0.0
C3289 C 0.81686 0.37251 0.6121 0.0
C3290 C 0.81959 0.36479 0.63125 0.0
C3291 C 0.83926 0.34865 0.65503 0.0
C3292 C 0.85593 0.33976 0.65957 0.0
C3293 C 0.83727 0.35798 0.63671 0.0
C3294 C 0.87148 0.34166 0.64645 0.0
C3295 C 0.87002 0.35184 0.62846 0.0
H3296 H 0.48254 0.02553 0.4051 0.0
H3297 H 0.52752 0.07354 0.38271 0.0
H3298 H 0.55131 0.0764 0.41521 0.0
H3299 H 0.5594 0.06388 0.44929 0.0
H3300 H 0.51446 0.01395 0.46957 0.0
H3301 H 0.49044 0.01304 0.43838 0.0
C3302 C 0.4976 0.03654 0.40733 0.0
C3303 C 0.5035 0.04916 0.39171 0.0
C3304 C 0.5111 0.03768 0.42555 0.0
C3305 C 0.52279 0.06376 0.39478 0.0
C3306 C 0.53636 0.06527 0.41319 0.0
C3307 C 0.54436 0.05284 0.44675 0.0
C3308 C 0.53851 0.03921 0.46162 0.0
C3309 C 0.53073 0.0521 0.42856 0.0
C3310 C 0.51909 0.02485 0.45837 0.0
C3311 C 0.50538 0.02423 0.44055 0.0
H3312 H 0.80085 0.78427 0.12262 0.0
H3313 H 0.77602 0.71463 0.11975 0.0
H3314 H 0.77477 0.72099 0.1586 0.0
H3315 H 0.78133 0.74618 0.19388 0.0
H3316 H 0.80622 0.81571 0.1973 0.0
H3317 H 0.80665 0.80976 0.15806 0.0
C3318 C 0.79518 0.77053 0.13054 0.0
C3319 C 0.78839 0.74901 0.11817 0.0
C3320 C 0.79434 0.77434 0.15306 0.0
C3321 C 0.78106 0.7314 0.12875 0.0
C3322 C 0.78038 0.735 0.15102 0.0
C3323 C 0.7865 0.76002 0.1859 0.0
C3324 C 0.79343 0.78139 0.19831 0.0
C3325 C 0.78692 0.75638 0.16337 0.0
C3326 C 0.80056 0.79917 0.18796 0.0
C3327 C 0.80092 0.79572 0.16555 0.0
H3328 H 0.12 1.00395 0.63828 0.0
H3329 H 0.09455 0.04984 0.67819 0.0
H3330 H 0.07701 0.05789 0.64593 0.0
H3331 H 0.06901 0.05295 0.60544 0.0
H3332 H 0.09438 1.00684 0.56563 0.0
H3333 H 0.11166 0.99865 0.59789 0.0
C3334 C 0.11057 0.01566 0.64006 0.0
C3335 C 0.109 0.02623 0.66135 0.0
C3336 C 0.10045 0.02059 0.62097 0.0
C3337 C 0.09657 0.04147 0.66253 0.0
C3338 C 0.08638 0.04613 0.64384 0.0
C3339 C 0.07829 0.04108 0.60369 0.0
C3340 C 0.08002 0.03061 0.5824 0.0
C3341 C 0.08826 0.03603 0.62281 0.0
C3342 C 0.09227 0.0152 0.58126 0.0
C3343 C 0.10232 0.01045 0.59996 0.0
H3344 H 0.83547 0.35861 0.39582 0.0
H3345 H 0.7707 0.35139 0.39411 0.0
H3346 H 0.76469 0.32486 0.36038 0.0
H3347 H 0.77789 0.30453 0.33081 0.0
H3348 H 0.84225 0.30999 0.33355 0.0
H3349 H 0.84842 0.33588 0.36806 0.0
C3350 C 0.81999 0.35097 0.38837 0.0
C3351 C 0.80359 0.35719 0.39748 0.0
C3352 C 0.81659 0.33525 0.36932 0.0
C3353 C 0.78367 0.34737 0.38724 0.0
C3354 C 0.78018 0.33198 0.36807 0.0
C3355 C 0.79319 0.31109 0.33931 0.0
C3356 C 0.80965 0.3056 0.33 0.0
C3357 C 0.79652 0.3259 0.35895 0.0
C3358 C 0.82946 0.31422 0.34065 0.0
C3359 C 0.83294 0.32901 0.36025 0.0
H3360 H 0.4603 0.99232 0.17637 0.0
H3361 H 0.51929 1.0031 0.21324 0.0
H3362 H 0.5341 0.99523 0.17999 0.0
H3363 H 0.53139 0.99337 0.14141 0.0
H3364 H 0.47375 0.98927 0.10451 0.0
H3365 H 0.45679 0.98524 0.13669 0.0
C3366 C 0.47627 0.99229 0.17699 0.0
C3367 C 0.48889 0.99837 0.19687 0.0
C3368 C 0.48473 0.98884 0.15786 0.0
C3369 C 0.50954 0.9986 0.19788 0.0
C3370 C 0.51791 0.99407 0.17897 0.0
C3371 C 0.51497 0.99055 0.14018 0.0
C3372 C 0.50376 0.99177 0.12088 0.0
C3373 C 0.50582 0.99022 0.15892 0.0
C3374 C 0.48257 0.98841 0.11939 0.0
C3375 C 0.47299 0.98645 0.13779 0.0
H3376 H 0.82579 0.75517 0.89691 0.0
H3377 H 0.76041 0.73332 0.88403 0.0
H3378 H 0.76094 0.74603 0.84955 0.0
H3379 H 0.78 0.76534 0.82328 0.0
H3380 H 0.84516 0.78753 0.83707 0.0
H3381 H 0.84469 0.77207 0.87012 0.0
C3382 C 0.8116 0.75279 0.88651 0.0
C3383 C 0.79307 0.74331 0.89356 0.0
C3384 C 0.81199 0.76005 0.86643 0.0
C3385 C 0.77496 0.74091 0.87962 0.0
C3386 C 0.77524 0.74802 0.85962 0.0
C3387 C 0.7941 0.76617 0.83323 0.0
C3388 C 0.8127 0.77719 0.82741 0.0
C3389 C 0.79366 0.75781 0.85285 0.0
C3390 C 0.83073 0.77881 0.84093 0.0
C3391 C 0.83044 0.77015 0.86 0.0
H3392 H 0.87061 0.08548 0.98906 0.0
H3393 H 0.89517 0.11389 0.0556 0.0
H3394 H 0.92237 0.09482 0.05278 0.0
H3395 H 0.9384 0.06926 0.03203 0.0
H3396 H 0.91653 0.04428 0.96433 0.0
H3397 H 0.88895 0.06299 0.96712 0.0
C3398 C 0.8821 0.08792 1.00286 0.0
C3399 C 0.88059 0.1009 0.02261 0.0
C3400 C 0.89808 0.07741 1.001 0.0
C3401 C 0.89555 0.10353 0.04035 0.0
C3402 C 0.91125 0.09277 0.03873 0.0
C3403 C 0.92792 0.06819 0.0177 0.0
C3404 C 0.92953 0.05516 0.99805 0.0
C3405 C 0.91252 0.07951 0.01921 0.0
C3406 C 0.91542 0.05371 0.97983 0.0
C3407 C 0.89974 0.06458 0.98134 0.0
H3408 H 0.44508 0.44557 0.03106 0.0
H3409 H 0.41101 0.49568 0.03345 0.0
H3410 H 0.44181 0.52362 0.03256 0.0
H3411 H 0.47847 0.53451 0.03197 0.0
H3412 H 0.51331 0.48539 0.02739 0.0
H3413 H 0.48252 0.45659 0.02839 0.0
C3414 C 0.44444 0.46262 0.03148 0.0
C3415 C 0.42552 0.46837 0.03237 0.0
C3416 C 0.46246 0.47888 0.03064 0.0
C3417 C 0.42512 0.49059 0.03261 0.0
C3418 C 0.44282 0.50668 0.03217 0.0
C3419 C 0.4794 0.51748 0.03113 0.0
C3420 C 0.49838 0.51223 0.02991 0.0
C3421 C 0.46156 0.50109 0.03127 0.0
C3422 C 0.49907 0.48998 0.02851 0.0
C3423 C 0.48137 0.47352 0.0291 0.0
H3424 H 0.34642 0.65666 0.75479 0.0
H3425 H 0.40577 0.69611 0.78386 0.0
H3426 H 0.39285 0.72928 0.78721 0.0
H3427 H 0.36438 0.74896 0.78206 0.0
H3428 H 0.30502 0.70905 0.75367 0.0
H3429 H 0.31814 0.67601 0.75 0.0
C3430 C 0.35679 0.67238 0.76185 0.0
C3431 C 0.37755 0.67263 0.76915 0.0
C3432 C 0.34907 0.69227 0.76393 0.0
C3433 C 0.38986 0.69409 0.77827 0.0
C3434 C 0.38237 0.71362 0.78012 0.0
C3435 C 0.35414 0.73313 0.77504 0.0
C3436 C 0.33319 0.73253 0.76826 0.0
C3437 C 0.36193 0.71321 0.77309 0.0
C3438 C 0.32094 0.71106 0.75932 0.0
C3439 C 0.32857 0.6917 0.75712 0.0
H3440 H 0.18123 0.57068 0.53918 0.0
H3441 H 0.18033 0.59099 0.47709 0.0
H3442 H 0.14382 0.588 0.47537 0.0
H3443 H 0.11274 0.58245 0.49315 0.0
H3444 H 0.11639 0.56897 0.55815 0.0
H3445 H 0.15172 0.56826 0.55779 0.0
C3446 C 0.17313 0.57466 0.52532 0.0
C3447 C 0.18354 0.58136 0.50852 0.0
C3448 C 0.15283 0.57507 0.52537 0.0
C3449 C 0.17266 0.58555 0.49023 0.0
C3450 C 0.15188 0.58434 0.48943 0.0
C3451 C 0.12149 0.57996 0.5074 0.0
C3452 C 0.11206 0.57599 0.52566 0.0
C3453 C 0.14198 0.57983 0.50726 0.0
C3454 C 0.12339 0.57254 0.54401 0.0
C3455 C 0.14351 0.57168 0.54371 0.0
H3456 H 0.72071 0.94696 0.738 0.0
H3457 H 0.73798 0.98771 0.80146 0.0
H3458 H 0.76266 0.9665 0.81012 0.0
H3459 H 0.77947 0.93659 0.79909 0.0
H3460 H 0.764 0.89899 0.73403 0.0
H3461 H 0.73857 0.9192 0.72638 0.0
C3462 C 0.73007 0.95144 0.75362 0.0
C3463 C 0.72765 0.96881 0.76901 0.0
C3464 C 0.74456 0.93987 0.75813 0.0
C3465 C 0.73946 0.97412 0.78943 0.0
C3466 C 0.75367 0.96218 0.79431 0.0
C3467 C 0.77077 0.93314 0.78315 0.0
C3468 C 0.77345 0.91629 0.7672 0.0
C3469 C 0.75643 0.94512 0.77868 0.0
C3470 C 0.76192 0.91169 0.74668 0.0
C3471 C 0.74745 0.92323 0.74225 0.0
H3472 H 0.71524 0.93138 0.49907 0.0
H3473 H 0.74106 0.96613 0.56357 0.0
H3474 H 0.71415 0.98568 0.56473 0.0
H3475 H 0.68356 0.99358 0.54766 0.0
H3476 H 0.6577 0.96007 0.48295 0.0
H3477 H 0.68454 0.93995 0.48152 0.0
C3478 C 0.71512 0.94335 0.51333 0.0
C3479 C 0.73023 0.94693 0.53132 0.0
C3480 C 0.69958 0.95493 0.51386 0.0
C3481 C 0.72953 0.96249 0.54965 0.0
C3482 C 0.71417 0.97389 0.5503 0.0
C3483 C 0.6836 0.98169 0.53331 0.0
C3484 C 0.66843 0.97828 0.51553 0.0
C3485 C 0.69909 0.97021 0.53258 0.0
C3486 C 0.66916 0.96316 0.49688 0.0
C3487 C 0.6845 0.95156 0.49607 0.0
H3488 H 0.3801 0.41728 0.74934 0.0
H3489 H 0.34061 0.45254 0.78166 0.0
H3490 H 0.31874 0.41785 0.78578 0.0
H3491 H 0.30918 0.37699 0.77967 0.0
H3492 H 0.348 0.34021 0.74877 0.0
H3493 H 0.37101 0.37514 0.74466 0.0
C3494 C 0.36671 0.41752 0.75726 0.0
C3495 C 0.3626 0.43848 0.76525 0.0
C3496 C 0.3537 0.39679 0.75986 0.0
C3497 C 0.34494 0.43749 0.77556 0.0
C3498 C 0.33209 0.41732 0.77785 0.0
C3499 C 0.32277 0.37642 0.77216 0.0
C3500 C 0.32654 0.35538 0.76466 0.0
C3501 C 0.33615 0.39681 0.77005 0.0
C3502 C 0.34446 0.35568 0.75502 0.0
C3503 C 0.35767 0.3759 0.75253 0.0
H3504 H 0.27084 0.64904 0.27655 0.0
H3505 H 0.22305 0.66949 0.30875 0.0
H3506 H 0.23818 0.70769 0.30745 0.0
H3507 H 0.2605 0.73375 0.29122 0.0
H3508 H 0.30583 0.71378 0.25467 0.0
H3509 H 0.29502 0.67617 0.26206 0.0
C3510 C 0.26395 0.66195 0.28355 0.0
C3511 C 0.24561 0.65642 0.29216 0.0
C3512 C 0.27159 0.6836 0.28096 0.0
C3513 C 0.23718 0.67323 0.30199 0.0
C3514 C 0.24553 0.69505 0.30081 0.0
C3515 C 0.26818 0.72122 0.28503 0.0
C3516 C 0.28378 0.72618 0.27239 0.0
C3517 C 0.26196 0.70011 0.28929 0.0
C3518 C 0.2935 0.70995 0.26416 0.0
C3519 C 0.28755 0.6887 0.26865 0.0
H3520 H 0.50534 0.65607 0.47905 0.0
H3521 H 0.5672 0.6807 0.46772 0.0
H3522 H 0.57719 0.65074 0.48222 0.0
H3523 H 0.56854 0.61646 0.4972 0.0
H3524 H 0.50633 0.58993 0.5057 0.0
H3525 H 0.49651 0.62128 0.4932 0.0
C3526 C 0.52099 0.65488 0.47952 0.0
C3527 C 0.5354 0.67119 0.47239 0.0
C3528 C 0.52671 0.63704 0.48746 0.0
C3529 C 0.55566 0.66907 0.47351 0.0
C3530 C 0.56147 0.65168 0.48168 0.0
C3531 C 0.55286 0.61763 0.4965 0.0
C3532 C 0.53825 0.6008 0.50254 0.0
C3533 C 0.54715 0.63551 0.48869 0.0
C3534 C 0.51794 0.60253 0.50117 0.0
C3535 C 0.51229 0.62051 0.49397 0.0
H3536 H 0.68159 0.28033 0.69397 0.0
H3537 H 0.70899 0.34411 0.67962 0.0
H3538 H 0.74074 0.34458 0.70116 0.0
H3539 H 0.76038 0.32825 0.72669 0.0
H3540 H 0.73317 0.26446 0.74055 0.0
H3541 H 0.70225 0.26245 0.71645 0.0
C3542 C 0.69453 0.29424 0.69519 0.0
C3543 C 0.69239 0.31235 0.6852 0.0
C3544 C 0.71309 0.29435 0.70754 0.0
C3545 C 0.70962 0.33017 0.68743 0.0
C3546 C 0.72802 0.33038 0.69966 0.0
C3547 C 0.74797 0.31354 0.72374 0.0
C3548 C 0.74946 0.29615 0.7349 0.0
C3549 C 0.72991 0.31273 0.71009 0.0
C3550 C 0.7328 0.27769 0.73161 0.0
C3551 C 0.71494 0.2767 0.71804 0.0
H3552 H 0.05111 0.39629 1.00282 0.0
H3553 H 0.99482 0.38683 0.96107 0.0
H3554 H 0.99594 0.42602 0.97068 0.0
H3555 H 0.01406 0.46371 0.98908 0.0
H3556 H 0.07105 0.47323 0.02961 0.0
H3557 H 0.06846 0.4336 0.02235 0.0
C3558 C 0.03909 0.40278 0.99581 0.0
C3559 C 0.0229 0.38846 0.98127 0.0
C3560 C 0.03996 0.42551 1.00113 0.0
C3561 C 1.00733 0.39726 0.97258 0.0
C3562 C 1.00802 0.41978 0.97794 0.0
C3563 C 0.02575 0.45707 0.99654 0.0
C3564 C 0.04278 0.4715 0.00972 0.0
C3565 C 0.02438 0.43415 0.992 0.0
C3566 C 0.05786 0.46257 0.01919 0.0
C3567 C 0.05642 0.43986 0.01505 0.0
H3568 H 0.99719 0.82418 0.19517 0.0
H3569 H 0.97744 0.76014 0.15358 0.0
H3570 H 0.94537 0.75352 0.16855 0.0
H3571 H 0.92265 0.76581 0.19354 0.0
H3572 H 0.94246 0.83001 0.23481 0.0
H3573 H 0.97422 0.83681 0.21932 0.0
C3574 C 0.98583 0.80886 0.18912 0.0
C3575 C 0.99006 0.79268 0.17328 0.0
C3576 C 0.96718 0.80519 0.19765 0.0
C3577 C 0.97503 0.77281 0.16603 0.0
C3578 C 0.95651 0.76904 0.17448 0.0
C3579 C 0.93392 0.78128 0.19925 0.0
C3580 C 0.92993 0.79737 0.21539 0.0
C3581 C 0.95242 0.78507 0.19038 0.0
C3582 C 0.94477 0.81741 0.22222 0.0
C3583 C 0.96311 0.82127 0.21348 0.0
H3584 H 0.50711 0.36122 0.09839 0.0
H3585 H 0.55789 0.33507 0.08096 0.0
H3586 H 0.56809 0.36446 0.06035 0.0
H3587 H 0.56164 0.39667 0.04622 0.0
H3588 H 0.51024 0.42199 0.06304 0.0
H3589 H 0.50111 0.39371 0.08502 0.0
C3590 C 0.52031 0.36188 0.08992 0.0
C3591 C 0.53162 0.34598 0.09092 0.0
C3592 C 0.52591 0.37858 0.07803 0.0
C3593 C 0.549 0.34725 0.0804 0.0
C3594 C 0.55477 0.36393 0.06856 0.0
C3595 C 0.54839 0.39585 0.05463 0.0
C3596 C 0.53652 0.41116 0.05298 0.0
C3597 C 0.54318 0.37952 0.06708 0.0
C3598 C 0.51963 0.41035 0.06423 0.0
C3599 C 0.51436 0.39418 0.07669 0.0
H3600 H 1.00767 0.31977 0.28866 0.0
H3601 H 0.9887 0.28182 0.33749 0.0
H3602 H 0.95345 0.28182 0.32678 0.0
H3603 H 0.92916 0.29826 0.3082 0.0
H3604 H 0.94826 0.33864 0.2614 0.0
H3605 H 0.98238 0.33215 0.26662 0.0
C3606 C 0.99575 0.31123 0.2967 0.0
C3607 C 1.0008 0.30115 0.31405 0.0
C3608 C 0.97563 0.31209 0.29109 0.0
C3609 C 0.98523 0.28966 0.32403 0.0
C3610 C 0.96507 0.28986 0.3181 0.0
C3611 C 0.94078 0.30532 0.29894 0.0
C3612 C 0.93658 0.31922 0.2848 0.0
C3613 C 0.96029 0.30191 0.30239 0.0
C3614 C 0.95139 0.32799 0.27247 0.0
C3615 C 0.97084 0.32436 0.27553 0.0
H3616 H 0.99259 0.64301 0.56453 0.0
H3617 H 0.03827 0.64726 0.61826 0.0
H3618 H 0.04847 0.61586 0.5989 0.0
H3619 H 0.04581 0.58865 0.5657 0.0
H3620 H 0.99801 0.58234 0.51367 0.0
H3621 H 0.98692 0.61283 0.53368 0.0
C3622 C 1.00443 0.63682 0.57232 0.0
C3623 C 0.0149 0.64788 0.59265 0.0
C3624 C 0.00991 0.61842 0.56137 0.0
C3625 C 0.03036 0.63958 0.6023 0.0
C3626 C 0.03613 0.62149 0.59133 0.0
C3627 C 0.03284 0.59383 0.55892 0.0
C3628 C 0.02291 0.58358 0.53822 0.0
C3629 C 0.0263 0.61109 0.57067 0.0
C3630 C 1.00599 0.59018 0.52958 0.0
C3631 C 0.99964 0.60761 0.54097 0.0
H3632 H 0.67857 0.79558 0.80321 0.0
H3633 H 0.7108 0.86031 0.83821 0.0
H3634 H 0.74035 0.8578 0.81995 0.0
H3635 H 0.75803 0.83581 0.79742 0.0
H3636 H 0.72722 0.76957 0.76495 0.0
H3637 H 0.6959 0.77414 0.77889 0.0
C3638 C 0.69209 0.80912 0.80683 0.0
C3639 C 0.69263 0.82801 0.82212 0.0
C3640 C 0.7092 0.80727 0.79684 0.0
C3641 C 0.71 0.84567 0.82635 0.0
C3642 C 0.72692 0.84419 0.81604 0.0
C3643 C 0.74442 0.82243 0.79309 0.0
C3644 C 0.74497 0.80227 0.78046 0.0
C3645 C 0.72682 0.82487 0.8017 0.0
C3646 C 0.72719 0.78518 0.77489 0.0
C3647 C 0.70932 0.78775 0.78288 0.0
H3648 H 0.47391 0.53862 0.62796 0.0
H3649 H 0.52432 0.58339 0.67102 0.0
H3650 H 0.54448 0.58506 0.64159 0.0
H3651 H 0.54931 0.5744 0.60323 0.0
H3652 H 0.50116 0.52747 0.55978 0.0
H3653 H 0.47952 0.5264 0.58889 0.0
C3654 C 0.48929 0.54881 0.6312 0.0
C3655 C 0.49668 0.56136 0.65275 0.0
C3656 C 0.50166 0.54951 0.61357 0.0
C3657 C 0.51708 0.57405 0.65536 0.0
C3658 C 0.52906 0.57489 0.6382 0.0
C3659 C 0.53403 0.5639 0.59981 0.0
C3660 C 0.52714 0.55155 0.57832 0.0
C3661 C 0.52165 0.56287 0.61715 0.0
C3662 C 0.50717 0.5379 0.5753 0.0
C3663 C 0.49471 0.53709 0.59235 0.0
H3664 H 0.75173 0.21902 0.94714 0.0
H3665 H 0.78315 0.17386 0.91489 0.0
H3666 H 0.77551 0.18579 0.88066 0.0
H3667 H 0.76375 0.21243 0.86157 0.0
H3668 H 0.73657 0.26075 0.89605 0.0
H3669 H 0.73693 0.2428 0.92716 0.0
C3670 C 0.75658 0.21154 0.93251 0.0
C3671 C 0.76816 0.1959 0.93338 0.0
C3672 C 0.75246 0.21869 0.91322 0.0
C3673 C 0.77455 0.18633 0.9145 0.0
C3674 C 0.77002 0.19296 0.89498 0.0
C3675 C 0.75769 0.21887 0.87582 0.0
C3676 C 0.7508 0.23834 0.8767 0.0
C3677 C 0.75954 0.20964 0.89436 0.0
C3678 C 0.74208 0.24587 0.89484 0.0
C3679 C 0.74263 0.23587 0.91288 0.0
H3680 H 0.1264 0.54617 0.12796 0.0
H3681 H 0.08145 0.56201 0.16715 0.0
H3682 H 0.05703 0.5573 0.13467 0.0
H3683 H 0.0487 0.54792 0.09515 0.0
H3684 H 0.09293 0.52936 0.05649 0.0
H3685 H 0.11779 0.5358 0.08871 0.0
C3686 C 0.11135 0.54896 0.12916 0.0
C3687 C 0.10553 0.55482 0.14938 0.0
C3688 C 0.09745 0.54554 0.11067 0.0
C3689 C 0.08602 0.55789 0.15136 0.0
C3690 C 0.07213 0.555 0.13295 0.0
C3691 C 0.06374 0.54511 0.09399 0.0
C3692 C 0.06953 0.53886 0.0738 0.0
C3693 C 0.07764 0.54858 0.11255 0.0
C3694 C 0.08882 0.53514 0.07204 0.0
C3695 C 0.10284 0.53859 0.09039 0.0
H3696 H 0.83544 0.83375 0.41385 0.0
H3697 H 0.77108 0.80814 0.41401 0.0
H3698 H 0.76667 0.79611 0.37501 0.0
H3699 H 0.78068 0.79364 0.3405 0.0
H3700 H 0.8452 0.81699 0.34031 0.0
H3701 H 0.84991 0.82845 0.37963 0.0
C3702 C 0.82046 0.82518 0.40555 0.0
C3703 C 0.8036 0.82226 0.41722 0.0
C3704 C 0.81801 0.81779 0.38296 0.0
C3705 C 0.78434 0.8113 0.40572 0.0
C3706 C 0.78178 0.80418 0.3833 0.0
C3707 C 0.79582 0.80115 0.34904 0.0
C3708 C 0.81255 0.80457 0.33732 0.0
C3709 C 0.79844 0.80756 0.37171 0.0
C3710 C 0.83204 0.81408 0.3488 0.0
C3711 C 0.83473 0.82075 0.37133 0.0
H3712 H 0.49043 0.52866 0.87766 0.0
H3713 H 0.50727 0.6001 0.88993 0.0
H3714 H 0.52309 0.60024 0.92586 0.0
H3715 H 0.5328 0.58061 0.95535 0.0
H3716 H 0.51831 0.5094 0.9422 0.0
H3717 H 0.50178 0.50909 0.90613 0.0
C3718 C 0.49758 0.54446 0.88784 0.0
C3719 C 0.49669 0.56439 0.87995 0.0
C3720 C 0.50749 0.54461 0.90909 0.0
C3721 C 0.50653 0.58424 0.89457 0.0
C3722 C 0.51601 0.58443 0.91557 0.0
C3723 C 0.52606 0.56493 0.94469 0.0
C3724 C 0.52705 0.54498 0.9523 0.0
C3725 C 0.51657 0.56477 0.92325 0.0
C3726 C 0.51814 0.52511 0.93749 0.0
C3727 C 0.5085 0.5249 0.91656 0.0
H3728 H 0.80501 0.24903 0.13214 0.0
H3729 H 0.76816 0.19415 0.15445 0.0
H3730 H 0.77113 0.217 0.19017 0.0
H3731 H 0.78749 0.25143 0.21602 0.0
H3732 H 0.82561 0.30531 0.19356 0.0
H3733 H 0.81924 0.28385 0.15699 0.0
C3734 C 0.79766 0.24205 0.14484 0.0
C3735 C 0.78671 0.21988 0.14082 0.0
C3736 C 0.79984 0.25504 0.16534 0.0
C3737 C 0.77672 0.21122 0.15718 0.0
C3738 C 0.77852 0.22421 0.17763 0.0
C3739 C 0.79395 0.25858 0.20298 0.0
C3740 C 0.80691 0.27985 0.20734 0.0
C3741 C 0.79047 0.24599 0.18203 0.0
C3742 C 0.81559 0.2889 0.19049 0.0
C3743 C 0.81198 0.27666 0.16962 0.0
H3744 H 0.10189 0.58367 0.33958 0.0
H3745 H 0.15653 0.56516 0.36173 0.0
H3746 H 0.15396 0.58082 0.39885 0.0
H3747 H 0.13211 0.5925 0.42479 0.0
H3748 H 0.07677 0.60873 0.40141 0.0
H3749 H 0.0853 0.60408 0.365 0.0
C3750 C 0.11369 0.58366 0.35231 0.0
C3751 C 0.12891 0.57249 0.34795 0.0
C3752 C 0.11237 0.59299 0.37343 0.0
C3753 C 0.14401 0.57267 0.3648 0.0
C3754 C 0.14281 0.582 0.38597 0.0
C3755 C 0.12239 0.59589 0.41179 0.0
C3756 C 0.1033 0.59953 0.41551 0.0
C3757 C 0.12646 0.59121 0.39054 0.0
C3758 C 0.09131 0.60518 0.39896 0.0
C3759 C 0.09591 0.60198 0.37793 0.0
H3760 H 0.80495 0.85874 0.66032 0.0
H3761 H 0.81465 0.8005 0.62125 0.0
H3762 H 0.81173 0.78124 0.65177 0.0
H3763 H 0.80648 0.78048 0.68925 0.0
H3764 H 0.79806 0.83827 0.72988 0.0
H3765 H 0.80067 0.8582 0.69942 0.0
C3766 C 0.80639 0.84182 0.65854 0.0
C3767 C 0.81002 0.83109 0.63834 0.0
C3768 C 0.80502 0.83079 0.67652 0.0
C3769 C 0.81201 0.80923 0.63648 0.0
C3770 C 0.81029 0.79817 0.65397 0.0
C3771 C 0.80519 0.79747 0.6916 0.0
C3772 C 0.80194 0.80774 0.71204 0.0
C3773 C 0.80683 0.80873 0.67403 0.0
C3774 C 0.80042 0.82982 0.71449 0.0
C3775 C 0.80193 0.84122 0.69696 0.0
H3776 H 0.71942 0.47849 0.54438 0.0
H3777 H 0.73221 0.50082 0.48487 0.0
H3778 H 0.70588 0.52129 0.48739 0.0
H3779 H 0.67992 0.53372 0.50701 0.0
H3780 H 0.66811 0.51279 0.56726 0.0
H3781 H 0.69378 0.49129 0.56424 0.0
C3782 C 0.71657 0.48799 0.53205 0.0
C3783 C 0.72772 0.48806 0.51443 0.0
C3784 C 0.70173 0.50009 0.53383 0.0
C3785 C 0.72361 0.50016 0.49841 0.0
C3786 C 0.70868 0.51203 0.49993 0.0
C3787 C 0.68292 0.52433 0.51938 0.0
C3788 C 0.67224 0.52481 0.53732 0.0
C3789 C 0.69771 0.51216 0.51759 0.0
C3790 C 0.67635 0.51282 0.55342 0.0
C3791 C 0.69092 0.50046 0.55164 0.0
H3792 H 0.16463 0.13749 0.51565 0.0
H3793 H 0.19164 0.08553 0.48832 0.0
H3794 H 0.16025 0.05817 0.48829 0.0
H3795 H 0.12498 0.04848 0.49526 0.0
H3796 H 0.09731 0.09904 0.5239 0.0
H3797 H 0.12886 0.12724 0.52419 0.0
C3798 C 0.16371 0.12018 0.50979 0.0
C3799 C 0.18068 0.11386 0.50159 0.0
C3800 C 0.14535 0.10418 0.50995 0.0
C3801 C 0.17893 0.09121 0.49414 0.0
C3802 C 0.16092 0.07541 0.49427 0.0
C3803 C 0.12575 0.06568 0.50158 0.0
C3804 C 0.10855 0.07158 0.50927 0.0
C3805 C 0.144 0.08167 0.50192 0.0
C3806 C 0.11011 0.09397 0.51764 0.0
C3807 C 0.12824 0.1101 0.51785 0.0
H3808 H 0.2561 0.92216 0.78869 0.0
H3809 H 0.20264 0.88683 0.74445 0.0
H3810 H 0.21561 0.85358 0.74051 0.0
H3811 H 0.24259 0.8328 0.74922 0.0
H3812 H 0.29668 0.86906 0.7921 0.0
H3813 H 0.2832 0.9019 0.79665 0.0
C3814 C 0.24705 0.9073 0.77815 0.0
C3815 C 0.22791 0.90818 0.7669 0.0
C3816 C 0.25493 0.88749 0.77556 0.0
C3817 C 0.21729 0.8879 0.75333 0.0
C3818 C 0.22479 0.86835 0.75109 0.0
C3819 C 0.25158 0.84778 0.75964 0.0
C3820 C 0.27117 0.84742 0.77026 0.0
C3821 C 0.24369 0.86766 0.76203 0.0
C3822 C 0.28188 0.86785 0.78343 0.0
C3823 C 0.27403 0.88708 0.78615 0.0
H3824 H 0.42614 0.98356 0.04677 0.0
H3825 H 0.41896 0.03833 0.01593 0.0
H3826 H 0.45352 0.04329 1.00715 0.0
H3827 H 0.48351 0.02922 1.00455 0.0
H3828 H 0.49466 0.98072 0.04191 0.0
H3829 H 0.45971 0.97507 0.05118 0.0
C3830 C 0.43231 0.99718 0.03893 0.0
C3831 C 0.41979 0.0101 0.03128 0.0
C3832 C 0.45226 1.00021 0.03429 0.0
C3833 C 0.42816 0.02776 0.02132 0.0
C3834 C 0.44778 0.03047 0.01614 0.0
C3835 C 0.47836 0.01747 0.01479 0.0
C3836 C 0.49106 1.00483 0.02202 0.0
C3837 C 0.45949 0.01612 0.02169 0.0
C3838 C 0.48456 0.98995 0.03561 0.0
C3839 C 0.46488 0.9871 0.04119 0.0
H3840 H 0.86556 0.60506 0.74819 0.0
H3841 H 0.88741 0.64157 0.81299 0.0
H3842 H 0.86494 0.66595 0.80823 0.0
H3843 H 0.83977 0.67707 0.78582 0.0
H3844 H 0.81936 0.643 0.72007 0.0
H3845 H 0.84081 0.6172 0.72503 0.0
C3846 C 0.86559 0.61855 0.76115 0.0
C3847 C 0.87813 0.62163 0.78089 0.0
C3848 C 0.85298 0.63278 0.75815 0.0
C3849 C 0.8777 0.63878 0.79775 0.0
C3850 C 0.86498 0.65277 0.79501 0.0
C3851 C 0.8402 0.66419 0.77243 0.0
C3852 C 0.82826 0.662 0.75255 0.0
C3853 C 0.85268 0.64994 0.77528 0.0
C3854 C 0.82844 0.64487 0.73555 0.0
C3855 C 0.84073 0.63026 0.73835 0.0
H3856 H 0.87145 0.62109 0.03272 0.0
H3857 H 0.89369 0.65839 0.9846 0.0
H3858 H 0.92348 0.64301 0.98505 0.0
H3859 H 0.9432 0.61841 0.9985 0.0
H3860 H 0.92086 0.58094 0.04647 0.0
H3861 H 0.89178 0.59743 0.04709 0.0
C3862 C 0.88287 0.62607 0.02246 0.0
C3863 C 0.87996 0.64078 0.00843 0.0
C3864 C 0.90019 0.61719 0.02283 0.0
C3865 C 0.89507 0.64677 0.99521 0.0
C3866 C 0.91229 0.63808 0.99556 0.0
C3867 C 0.93196 0.61372 0.00904 0.0
C3868 C 0.93447 0.59831 0.0224 0.0
C3869 C 0.91495 0.62309 0.00914 0.0
C3870 C 0.91973 0.59292 0.0362 0.0
C3871 C 0.90288 0.60223 0.03644 0.0
H3872 H 0.26366 0.14841 0.79055 0.0
H3873 H 0.2071 0.15196 0.75626 0.0
H3874 H 0.22213 0.18996 0.75288 0.0
H3875 H 0.25242 0.22346 0.75858 0.0
H3876 H 0.30815 0.21867 0.79378 0.0
H3877 H 0.29249 0.18138 0.79778 0.0
C3878 C 0.25432 0.1573 0.78247 0.0
C3879 C 0.23392 0.14613 0.77354 0.0
C3880 C 0.26312 0.17982 0.78067 0.0
C3881 C 0.22283 0.15897 0.76303 0.0
C3882 C 0.23148 0.18122 0.7612 0.0
C3883 C 0.26107 0.21455 0.76756 0.0
C3884 C 0.28185 0.22488 0.77604 0.0
C3885 C 0.25177 0.19207 0.76983 0.0
C3886 C 0.29234 0.21199 0.78708 0.0
C3887 C 0.28333 0.19025 0.78937 0.0
H3888 H 0.32844 0.93896 0.27281 0.0
H3889 H 0.36104 0.92096 0.21993 0.0
H3890 H 0.34141 0.8834 0.21441 0.0
H3891 H 0.32538 0.85456 0.23251 0.0
H3892 H 0.29988 0.87112 0.29115 0.0
H3893 H 0.30739 0.90985 0.28755 0.0
C3894 C 0.33124 0.92681 0.26003 0.0
C3895 C 0.34735 0.93253 0.24808 0.0
C3896 C 0.32194 0.90459 0.25877 0.0
C3897 C 0.34937 0.91717 0.23016 0.0
C3898 C 0.33832 0.89538 0.22712 0.0
C3899 C 0.32111 0.86651 0.24431 0.0
C3900 C 0.31301 0.86026 0.26255 0.0
C3901 C 0.3263 0.88868 0.24272 0.0
C3902 C 0.30696 0.87579 0.27739 0.0
C3903 C 0.31103 0.89787 0.27523 0.0
H3904 H 0.59729 0.43145 0.57227 0.0
H3905 H 0.53784 0.38963 0.54692 0.0
H3906 H 0.52864 0.41968 0.53144 0.0
H3907 H 0.53715 0.4585 0.52552 0.0
H3908 H 0.59709 0.4996 0.55029 0.0
H3909 H 0.60625 0.46932 0.56506 0.0
C3910 C 0.58239 0.42871 0.56314 0.0
C3911 C 0.56833 0.40809 0.56107 0.0
C3912 C 0.57716 0.44612 0.55405 0.0
C3913 C 0.54898 0.40528 0.54931 0.0
C3914 C 0.5437 0.42251 0.54025 0.0
C3915 C 0.55226 0.46082 0.53401 0.0
C3916 C 0.56632 0.48157 0.53668 0.0
C3917 C 0.5576 0.44312 0.54262 0.0
C3918 C 0.58583 0.48402 0.54784 0.0
C3919 C 0.59115 0.46662 0.5564 0.0
H3920 H 0.39295 0.76744 0.36302 0.0
H3921 H 0.44044 0.79932 0.32983 0.0
H3922 H 0.41528 0.80794 0.30477 0.0
H3923 H 0.38 0.80557 0.29108 0.0
H3924 H 0.33144 0.77476 0.32326 0.0
H3925 H 0.35648 0.76709 0.34999 0.0
C3926 C 0.39773 0.77622 0.35027 0.0
C3927 C 0.41879 0.7826 0.34837 0.0
C3928 C 0.38293 0.78164 0.33586 0.0
C3929 C 0.42454 0.7942 0.33181 0.0
C3930 C 0.4101 0.7992 0.31743 0.0
C3931 C 0.37482 0.79761 0.30424 0.0
C3932 C 0.35374 0.79117 0.30527 0.0
C3933 C 0.3893 0.79302 0.31924 0.0
C3934 C 0.34747 0.78052 0.32231 0.0
C3935 C 0.36188 0.77582 0.33742 0.0
H3936 H 0.09583 0.69279 0.03791 0.0
H3937 H 0.04565 0.68837 0.0752 0.0
H3938 H 0.03818 0.64813 0.06689 0.0
H3939 H 0.0457 0.61412 0.04903 0.0
H3940 H 0.09641 0.61782 0.01266 0.0
H3941 H 0.10375 0.65831 0.02032 0.0
C3942 C 0.08327 0.68296 0.04415 0.0
C3943 C 0.07111 0.69353 0.05686 0.0
C3944 C 0.07908 0.65971 0.03938 0.0
C3945 C 0.05492 0.68062 0.06495 0.0
C3946 C 0.05071 0.65761 0.06032 0.0
C3947 C 0.05832 0.62382 0.04273 0.0
C3948 C 0.07049 0.61309 0.03031 0.0
C3949 C 0.0626 0.64698 0.04748 0.0
C3950 C 0.08694 0.62579 0.02243 0.0
C3951 C 0.0911 0.64891 0.02677 0.0
H3952 H 0.126 0.26685 0.87443 0.0
H3953 H 0.10362 0.31473 0.84372 0.0
H3954 H 0.13297 0.3202 0.82403 0.0
H3955 H 0.16427 0.31037 0.81426 0.0
H3956 H 0.18749 0.26342 0.84573 0.0
H3957 H 0.15847 0.25838 0.86594 0.0
C3958 C 0.1275 0.27843 0.86338 0.0
C3959 C 0.11246 0.29029 0.86057 0.0
C3960 C 0.14455 0.28156 0.85204 0.0
C3961 C 0.11494 0.30549 0.84641 0.0
C3962 C 0.13171 0.30855 0.83501 0.0
C3963 C 0.16323 0.29924 0.82574 0.0
C3964 C 0.17819 0.28718 0.82819 0.0
C3965 C 0.14656 0.29659 0.83757 0.0
C3966 C 0.17615 0.27262 0.84303 0.0
C3967 C 0.15956 0.26982 0.85476 0.0
H3968 H 0.60087 0.72364 0.94108 0.0
H3969 H 0.54658 0.74561 0.95257 0.0
H3970 H 0.53591 0.71572 0.97246 0.0
H3971 H 0.54289 0.68437 0.98785 0.0
H3972 H 0.59769 0.66323 0.97695 0.0
H3973 H 0.60737 0.69189 0.95551 0.0
C3974 C 0.58679 0.72197 0.9481 0.0
C3975 C 0.57464 0.73685 0.94565 0.0
C3976 C 0.58089 0.70498 0.95959 0.0
C3977 C 0.55615 0.73424 0.95428 0.0
C3978 C 0.5501 0.71727 0.9657 0.0
C3979 C 0.55697 0.68616 0.98081 0.0
C3980 C 0.56965 0.67194 0.98401 0.0
C3981 C 0.56248 0.70272 0.96867 0.0
C3982 C 0.58767 0.674 0.97454 0.0
C3983 C 0.59325 0.69041 0.9624 0.0
H3984 H 0.10264 0.75442 0.69638 0.0
H3985 H 0.09678 0.79223 0.75738 0.0
H3986 H 0.13213 0.79337 0.77097 0.0
H3987 H 0.16412 0.782 0.76539 0.0
H3988 H 0.16907 0.74476 0.70364 0.0
H3989 H 0.13431 0.74472 0.69027 0.0
C3990 C 0.10911 0.76277 0.71272 0.0
C3991 C 0.0973 0.77278 0.72616 0.0
C3992 C 0.12909 0.76337 0.72015 0.0
C3993 C 0.10577 0.78421 0.747 0.0
C3994 C 0.12584 0.78481 0.75469 0.0
C3995 C 0.15746 0.77401 0.74903 0.0
C3996 C 0.16881 0.76341 0.73539 0.0
C3997 C 0.13755 0.7742 0.74144 0.0
C3998 C 0.16042 0.75314 0.71419 0.0
C3999 C 0.14063 0.75305 0.70662 0.0
H4000 H 0.12235 0.4501 0.46822 0.0
H4001 H 0.06183 0.41797 0.43658 0.0
H4002 H 0.04874 0.44809 0.45461 0.0
H4003 H 0.05404 0.4817 0.48184 0.0
H4004 H 0.11416 0.51278 0.51539 0.0
H4005 H 0.128 0.48516 0.49411 0.0
C4006 C 0.10639 0.45 0.46515 0.0
C4007 C 0.09297 0.43206 0.45133 0.0
C4008 C 0.09892 0.46704 0.47602 0.0
C4009 C 0.07229 0.43175 0.44736 0.0
C4010 C 0.06483 0.44888 0.45764 0.0
C4011 C 0.07019 0.48251 0.48428 0.0
C4012 C 0.08306 0.49893 0.50023 0.0
C4013 C 0.07792 0.46633 0.47239 0.0
C4014 C 0.10397 0.50001 0.50329 0.0
C4015 C 0.11188 0.48426 0.49115 0.0
H4016 H 0.42548 0.28955 0.23275 0.0
H4017 H 0.39361 0.22278 0.20293 0.0
H4018 H 0.36572 0.22553 0.22372 0.0
H4019 H 0.34854 0.24828 0.24643 0.0
H4020 H 0.37823 0.31658 0.27242 0.0
H4021 H 0.40882 0.31192 0.25681 0.0
C4022 C 0.41237 0.27564 0.23065 0.0
C4023 C 0.41154 0.25611 0.2161 0.0
C4024 C 0.39597 0.27766 0.24185 0.0
C4025 C 0.39475 0.23798 0.21413 0.0
C4026 C 0.37869 0.23958 0.22588 0.0
C4027 C 0.36186 0.26203 0.24909 0.0
C4028 C 0.36122 0.28274 0.26047 0.0
C4029 C 0.37892 0.25952 0.23929 0.0
C4030 C 0.37845 0.30048 0.26363 0.0
C4031 C 0.39586 0.29786 0.25465 0.0
H4032 H 0.62551 0.5512 0.40558 0.0
H4033 H 0.59044 0.48662 0.37318 0.0
H4034 H 0.57099 0.48375 0.40336 0.0
H4035 H 0.56235 0.49912 0.43916 0.0
H4036 H 0.59758 0.56257 0.47347 0.0
H4037 H 0.61769 0.56608 0.44315 0.0
C4038 C 0.61364 0.53641 0.40493 0.0
C4039 C 0.6101 0.51906 0.38615 0.0
C4040 C 0.60214 0.53455 0.42316 0.0
C4041 C 0.59436 0.50027 0.38673 0.0
C4042 C 0.58289 0.4986 0.40427 0.0
C4043 C 0.57458 0.51374 0.44034 0.0
C4044 C 0.57812 0.53047 0.45941 0.0
C4045 C 0.58649 0.51552 0.42266 0.0
C4046 C 0.59424 0.54912 0.45973 0.0
C4047 C 0.60581 0.55119 0.44204 0.0
H4048 H 0.3542 0.89709 0.11437 0.0
H4049 H 0.32217 0.83668 0.07128 0.0
H4050 H 0.32937 0.8152 0.09859 0.0
H4051 H 0.34191 0.814 0.1353 0.0
H4052 H 0.37032 0.87415 0.18027 0.0
H4053 H 0.36834 0.89564 0.15124 0.0
C4054 C 0.34917 0.8792 0.11093 0.0
C4055 C 0.33769 0.86833 0.09106 0.0
C4056 C 0.35302 0.86708 0.12681 0.0
C4057 C 0.33088 0.84524 0.08666 0.0
C4058 C 0.33509 0.83301 0.10214 0.0
C4059 C 0.3483 0.83175 0.13848 0.0
C4060 C 0.35666 0.84264 0.15943 0.0
C4061 C 0.34585 0.8438 0.1223 0.0
C4062 C 0.36423 0.86563 0.16394 0.0
C4063 C 0.36284 0.87781 0.14749 0.0
H4064 H 0.98859 0.55696 0.90959 0.0
H4065 H 0.01113 0.50586 0.87318 0.0
H4066 H 0.0352 0.50646 0.90461 0.0
H4067 H 0.04962 0.5217 0.94233 0.0
H4068 H 0.02775 0.57341 0.97835 0.0
H4069 H 1.00337 0.57262 0.94699 0.0
C4070 C 0.99892 0.54612 0.90859 0.0
C4071 C 0.99832 0.53144 0.8894 0.0
C4072 C 0.01266 0.54673 0.92647 0.0
C4073 C 0.01139 0.51714 0.88807 0.0
C4074 C 0.02514 0.51756 0.90588 0.0
C4075 C 0.03955 0.53283 0.94304 0.0
C4076 C 0.04009 0.54756 0.96207 0.0
C4077 C 0.02588 0.53231 0.9251 0.0
C4078 C 0.02723 0.56199 0.96348 0.0
C4079 C 0.01342 0.56151 0.9457 0.0
H4080 H 0.26799 0.24355 0.62268 0.0
H4081 H 0.32846 0.28224 0.62026 0.0
H4082 H 0.33317 0.2941 0.65923 0.0
H4083 H 0.32074 0.29282 0.69444 0.0
H4084 H 0.25936 0.25721 0.69681 0.0
H4085 H 0.25427 0.24543 0.65747 0.0
C4086 C 0.28209 0.25493 0.63045 0.0
C4087 C 0.29795 0.26151 0.61814 0.0
C4088 C 0.28458 0.26234 0.65303 0.0
C4089 C 0.31613 0.27615 0.62902 0.0
C4090 C 0.31882 0.28319 0.65144 0.0
C4091 C 0.3062 0.28257 0.68632 0.0
C4092 C 0.2905 0.27575 0.6986 0.0
C4093 C 0.30328 0.27618 0.66365 0.0
C4094 C 0.27168 0.26274 0.68778 0.0
C4095 C 0.2688 0.25591 0.66527 0.0
H4096 H 0.6161 0.55421 0.16009 0.0
H4097 H 0.59762 0.48274 0.14764 0.0
H4098 H 0.58142 0.48309 0.11223 0.0
H4099 H 0.57233 0.50296 0.08276 0.0
H4100 H 0.58978 0.57414 0.09518 0.0
H4101 H 0.60619 0.57411 0.13126 0.0
C4102 C 0.60871 0.53847 0.14996 0.0
C4103 C 0.60886 0.51842 0.15801 0.0
C4104 C 0.59896 0.53856 0.12867 0.0
C4105 C 0.59848 0.49874 0.14336 0.0
C4106 C 0.58896 0.4988 0.12245 0.0
C4107 C 0.57968 0.51856 0.09326 0.0
C4108 C 0.57953 0.5386 0.08548 0.0
C4109 C 0.58912 0.51853 0.11468 0.0
C4110 C 0.58925 0.55837 0.10008 0.0
C4111 C 0.59881 0.55837 0.121 0.0
H4112 H 0.31541 0.83554 0.90711 0.0
H4113 H 0.30663 0.89166 0.87985 0.0
H4114 H 0.30486 0.87087 0.84337 0.0
H4115 H 0.30431 0.83662 0.81966 0.0
H4116 H 0.30971 0.77887 0.84596 0.0
H4117 H 0.31467 0.8005 0.88275 0.0
C4118 C 0.31318 0.84307 0.89307 0.0
C4119 C 0.31108 0.86488 0.89579 0.0
C4120 C 0.31167 0.83083 0.87226 0.0
C4121 C 0.30812 0.87475 0.87781 0.0
C4122 C 0.30718 0.86295 0.8571 0.0
C4123 C 0.30675 0.82877 0.83342 0.0
C4124 C 0.30668 0.80627 0.8303 0.0
C4125 C 0.30875 0.84096 0.85418 0.0
C4126 C 0.3097 0.79622 0.84817 0.0
C4127 C 0.31247 0.80854 0.86909 0.0
H4128 H 0.95703 0.50568 0.67717 0.0
H4129 H 0.01311 0.497 0.70786 0.0
H4130 H 0.02194 0.4827 0.67261 0.0
H4131 H 0.01622 0.479 0.63394 0.0
H4132 H 0.9628 0.49325 0.60288 0.0
H4133 H 0.94936 0.4975 0.63748 0.0
C4134 C 0.97112 0.50054 0.67591 0.0
C4135 C 0.98482 0.50276 0.6945 0.0
C4136 C 0.97613 0.49284 0.65574 0.0
C4137 C 1.00282 0.49582 0.69335 0.0
C4138 C 1.00765 0.48745 0.67337 0.0
C4139 C 1.00118 0.48199 0.63447 0.0
C4140 C 0.99065 0.48628 0.61612 0.0
C4141 C 0.9947 0.48656 0.6545 0.0
C4142 C 0.97116 0.49005 0.61697 0.0
C4143 C 0.96375 0.49297 0.63678 0.0
H4144 H 0.28465 0.26788 0.39961 0.0
H4145 H 0.31359 0.21526 0.37971 0.0
H4146 H 0.31834 0.228 0.34552 0.0
H4147 H 0.31502 0.25537 0.32106 0.0
H4148 H 0.28422 0.3062 0.34198 0.0
H4149 H 0.27921 0.29258 0.37515 0.0
C4150 C 0.29171 0.25882 0.38779 0.0
C4151 C 0.29881 0.24062 0.39275 0.0
C4152 C 0.29417 0.26603 0.36795 0.0
C4153 C 0.30828 0.22963 0.37692 0.0
C4154 C 0.3109 0.23683 0.35712 0.0
C4155 C 0.3071 0.26331 0.33282 0.0
C4156 C 0.30026 0.2821 0.32887 0.0
C4157 C 0.30407 0.25523 0.35243 0.0
C4158 C 0.28996 0.29199 0.34444 0.0
C4159 C 0.28701 0.28418 0.36359 0.0
H4160 H 0.39843 0.61609 0.52988 0.0
H4161 H 0.35207 0.56666 0.48637 0.0
H4162 H 0.37633 0.54389 0.47923 0.0
H4163 H 0.4103 0.53778 0.4864 0.0
H4164 H 0.45763 0.5891 0.52719 0.0
H4165 H 0.43326 0.61123 0.53478 0.0
C4166 C 0.39378 0.60032 0.51885 0.0
C4167 C 0.37369 0.5928 0.50874 0.0
C4168 C 0.40785 0.58764 0.51454 0.0
C4169 C 0.3676 0.57258 0.49427 0.0
C4170 C 0.3814 0.55962 0.49025 0.0
C4171 C 0.41546 0.55395 0.49664 0.0
C4172 C 0.43578 0.5615 0.50642 0.0
C4173 C 0.40155 0.56697 0.50038 0.0
C4174 C 0.44198 0.58246 0.51991 0.0
C4175 C 0.4281 0.59529 0.52412 0.0
H4176 H 0.93458 0.95225 0.51009 0.0
H4177 H 0.92527 0.98623 0.57179 0.0
H4178 H 0.95884 0.01083 0.57543 0.0
H4179 H 0.99114 0.02336 0.56142 0.0
H4180 H 0.99999 0.99179 0.49872 0.0
H4181 H 0.96664 0.96596 0.49525 0.0
C4182 C 0.93973 0.96511 0.5243 0.0
C4183 C 0.9271 0.96681 0.54081 0.0
C4184 C 0.95924 0.97976 0.52622 0.0
C4185 C 0.9345 0.98376 0.55903 0.0
C4186 C 0.9538 0.99811 0.5611 0.0
C4187 C 0.98587 0.01076 0.54701 0.0
C4188 C 0.99842 1.00941 0.53052 0.0
C4189 C 0.96638 0.99625 0.54489 0.0
C4190 C 0.99101 0.99308 0.51188 0.0
C4191 C 0.97178 0.97834 0.50982 0.0
H4192 H 0.89411 0.19622 0.25804 0.0
H4193 H 0.84519 0.14849 0.27506 0.0
H4194 H 0.82412 0.17527 0.27667 0.0
H4195 H 0.81855 0.21307 0.27347 0.0
H4196 H 0.86845 0.26209 0.25988 0.0
H4197 H 0.88918 0.23491 0.25696 0.0
C4198 C 0.87883 0.19146 0.26207 0.0
C4199 C 0.87171 0.16939 0.26621 0.0
C4200 C 0.86651 0.20771 0.2637 0.0
C4201 C 0.85167 0.16471 0.27171 0.0
C4202 C 0.83937 0.18031 0.27264 0.0
C4203 C 0.83396 0.21805 0.26985 0.0
C4204 C 0.84133 0.24047 0.26678 0.0
C4205 C 0.84644 0.20202 0.26871 0.0
C4206 C 0.86173 0.24559 0.26238 0.0
C4207 C 0.87382 0.22973 0.26064 0.0
H4208 H 0.67337 0.07391 0.98577 0.0
H4209 H 0.68764 0.09357 0.05509 0.0
H4210 H 0.65202 0.09162 0.05824 0.0
H4211 H 0.61705 0.08453 0.04149 0.0
H4212 H 0.60235 0.06464 0.97226 0.0
H4213 H 0.63822 0.06779 0.96884 0.0
C4214 C 0.66866 0.07774 1.00155 0.0
C4215 C 0.6831 0.0836 0.02015 0.0
C4216 C 0.64823 0.07723 1.00323 0.0
C4217 C 0.67678 0.0884 0.04053 0.0
C4218 C 0.65646 0.0877 0.04234 0.0
C4219 C 0.62167 0.0813 0.02558 0.0
C4220 C 0.60705 0.07447 1.00714 0.0
C4221 C 0.64212 0.08231 0.0238 0.0
C4222 C 0.61333 0.07017 0.98668 0.0
C4223 C 0.63379 0.07167 0.98473 0.0
H4224 H 0.21483 0.44878 0.27557 0.0
H4225 H 0.25738 0.48924 0.24297 0.0
H4226 H 0.28298 0.46931 0.2518 0.0
H4227 H 0.29285 0.43978 0.26802 0.0
H4228 H 0.25012 0.39898 0.29991 0.0
H4229 H 0.22509 0.42041 0.29303 0.0
C4230 C 0.22979 0.4534 0.27062 0.0
C4231 C 0.23424 0.47035 0.25861 0.0
C4232 C 0.24443 0.44215 0.276 0.0
C4233 C 0.25353 0.47595 0.25192 0.0
C4234 C 0.26822 0.46477 0.25717 0.0
C4235 C 0.2782 0.43604 0.27386 0.0
C4236 C 0.27323 0.41831 0.28471 0.0
C4237 C 0.26381 0.44785 0.26917 0.0
C4238 C 0.25414 0.41292 0.29179 0.0
C4239 C 0.23986 0.42497 0.28768 0.0
H4240 H 0.21313 0.42759 1.00187 0.0
H4241 H 0.2457 0.47209 0.05968 0.0
H4242 H 0.21964 0.49287 0.0597 0.0
H4243 H 0.18802 0.49926 0.04307 0.0
H4244 H 0.15538 0.45538 0.98504 0.0
H4245 H 0.18119 0.43403 0.98513 0.0
C4246 C 0.21464 0.44192 0.0144 0.0
C4247 C 0.23144 0.44801 0.03086 0.0
C4248 C 0.19958 0.45409 0.01424 0.0
C4249 C 0.23286 0.46659 0.04703 0.0
C4250 C 0.21798 0.47866 0.04699 0.0
C4251 C 0.18635 0.48484 0.03059 0.0
C4252 C 0.16965 0.47902 0.01411 0.0
C4253 C 0.20127 0.47258 0.03072 0.0
C4254 C 0.16811 0.46048 0.99784 0.0
C4255 C 0.18286 0.44816 0.99792 0.0
H4256 H 0.86224 0.92116 0.233 0.0
H4257 H 0.87094 0.94692 0.30156 0.0
H4258 H 0.85349 0.91116 0.30809 0.0
H4259 H 0.83355 0.87211 0.29492 0.0
H4260 H 0.82636 0.84502 0.22713 0.0
H4261 H 0.84513 0.88071 0.22017 0.0
C4262 C 0.86058 0.91917 0.24948 0.0
C4263 C 0.86784 0.93805 0.26655 0.0
C4264 C 0.85062 0.89768 0.25349 0.0
C4265 C 0.86517 0.93391 0.28763 0.0
C4266 C 0.85522 0.91298 0.29157 0.0
C4267 C 0.83662 0.87369 0.27866 0.0
C4268 C 0.82884 0.85502 0.26171 0.0
C4269 C 0.84759 0.89468 0.2747 0.0
C4270 C 0.83256 0.85833 0.24074 0.0
C4271 C 0.84319 0.87909 0.2367 0.0
H4272 H 0.7293 0.1628 0.78581 0.0
H4273 H 0.786 0.14405 0.78043 0.0
H4274 H 0.80205 0.18128 0.7749 0.0
H4275 H 0.79853 0.21769 0.76827 0.0
H4276 H 0.74116 0.23509 0.77229 0.0
H4277 H 0.7261 0.19897 0.7808 0.0
C4278 C 0.74539 0.16711 0.78427 0.0
C4279 C 0.75668 0.15112 0.7838 0.0
C4280 C 0.75391 0.18771 0.77985 0.0
C4281 C 0.77729 0.15649 0.78114 0.0
C4282 C 0.78627 0.17749 0.77759 0.0
C4283 C 0.78266 0.2132 0.77067 0.0
C4284 C 0.77058 0.2282 0.76929 0.0
C4285 C 0.77446 0.19287 0.77611 0.0
C4286 C 0.7503 0.22313 0.77296 0.0
C4287 C 0.74189 0.20281 0.77809 0.0
loop_
_geom_bond_atom_site_label_1
_geom_bond_atom_site_label_2
_geom_bond_distance
_geom_bond_site_symmetry_2
_ccdc_geom_bond_type
Li0 N17 1.990 . S
Li0 O60 1.956 . S
Li0 O61 1.970 . S
Li0 O62 1.961 . S
Li1 N25 1.990 . S
Li1 O60 1.970 . S
Li1 O61 1.956 . S
Li1 O63 1.961 . S
Li2 N47 1.990 . S
Li2 O60 1.961 . S
Li2 O62 1.956 . S
Li2 O63 1.970 . S
Li3 N53 1.990 . S
Li3 O61 1.961 . S
Li3 O62 1.970 . S
Li3 O63 1.956 . S
C4 C6 1.348 . S
C4 C7 1.356 . S
C4 O60 1.325 . S
N5 C8 1.314 . S
N5 C9 1.279 . S
C6 C4 1.348 . S
C6 C8 1.353 . S
C6 H64 0.929 . S
C7 C4 1.356 . S
C7 C9 1.358 . S
C7 H65 0.930 . S
C8 N5 1.314 . S
C8 C6 1.353 . S
C8 H66 0.930 . S
C9 N5 1.279 . S
C9 C7 1.358 . S
C9 H67 0.930 . S
C10 C13 1.348 . S
C10 C14 1.356 . S
C10 O61 1.325 . S
C11 N12 1.279 . S
C11 C14 1.358 . S
C11 H68 0.930 . S
N12 C11 1.279 . S
N12 C15 1.314 . S
C13 C10 1.348 . S
C13 C15 1.353 . S
C13 H69 0.929 . S
C14 C10 1.356 . S
C14 C11 1.358 . S
C14 H70 0.930 . S
C15 N12 1.314 . S
C15 C13 1.353 . S
C15 H71 0.930 . S
C16 N17 1.314 . S
C16 C21 1.353 . S
C16 H22 0.930 . S
N17 Li0 1.990 . S
N17 C16 1.314 . S
N17 C19 1.279 . S
C18 C19 1.358 . S
C18 C20 1.356 . S
C18 H72 0.930 . S
C19 N17 1.279 . S
C19 C18 1.358 . S
C19 H23 0.930 . S
C20 C18 1.356 . S
C20 C21 1.348 . S
C21 C16 1.353 . S
C21 C20 1.348 . S
C21 H73 0.929 . S
H22 C16 0.930 . S
H23 C19 0.930 . S
C24 N25 1.314 . S
C24 C26 1.353 . S
C24 H30 0.930 . S
N25 Li1 1.990 . S
N25 C24 1.314 . S
N25 C28 1.279 . S
C26 C24 1.353 . S
C26 C29 1.348 . S
C26 H74 0.929 . S
C27 C28 1.358 . S
C27 C29 1.356 . S
C27 H75 0.930 . S
C28 N25 1.279 . S
C28 C27 1.358 . S
C28 H31 0.930 . S
C29 C26 1.348 . S
C29 C27 1.356 . S
H30 C24 0.930 . S
H31 C28 0.930 . S
C32 C34 1.348 . S
C32 C35 1.356 . S
C32 O62 1.325 . S
N33 C36 1.314 . S
N33 C37 1.279 . S
C34 C32 1.348 . S
C34 C36 1.353 . S
C34 H76 0.929 . S
C35 C32 1.356 . S
C35 C37 1.358 . S
C35 H77 0.930 . S
C36 N33 1.314 . S
C36 C34 1.353 . S
C36 H78 0.930 . S
C37 N33 1.279 . S
C37 C35 1.358 . S
C37 H79 0.930 . S
C38 C39 1.348 . S
C38 C40 1.356 . S
C38 O63 1.325 . S
C39 C38 1.348 . S
C39 C41 1.353 . S
C39 H80 0.929 . S
C40 C38 1.356 . S
C40 C42 1.358 . S
C40 H81 0.930 . S
C41 C39 1.353 . S
C41 N43 1.314 . S
C41 H82 0.930 . S
C42 C40 1.358 . S
C42 N43 1.279 . S
C42 H83 0.930 . S
N43 C41 1.314 . S
N43 C42 1.279 . S
C44 C46 1.353 . S
C44 N47 1.314 . S
C44 H50 0.930 . S
C45 N47 1.279 . S
C45 C48 1.358 . S
C45 H51 0.930 . S
C46 C44 1.353 . S
C46 C49 1.348 . S
C46 H84 0.929 . S
N47 Li2 1.990 . S
N47 C44 1.314 . S
N47 C45 1.279 . S
C48 C45 1.358 . S
C48 C49 1.356 . S
C48 H85 0.930 . S
C49 C46 1.348 . S
C49 C48 1.356 . S
H50 C44 0.930 . S
H51 C45 0.930 . S
C52 N53 1.314 . S
C52 C54 1.353 . S
C52 H58 0.930 . S
N53 Li3 1.990 . S
N53 C52 1.314 . S
N53 C56 1.279 . S
C54 C52 1.353 . S
C54 C57 1.348 . S
C54 H86 0.929 . S
C55 C56 1.358 . S
C55 C57 1.356 . S
C55 H87 0.930 . S
C56 N53 1.279 . S
C56 C55 1.358 . S
C56 H59 0.930 . S
C57 C54 1.348 . S
C57 C55 1.356 . S
H58 C52 0.930 . S
H59 C56 0.930 . S
O60 Li0 1.956 . S
O60 Li1 1.970 . S
O60 Li2 1.961 . S
O60 C4 1.325 . S
O61 Li0 1.970 . S
O61 Li1 1.956 . S
O61 Li3 1.961 . S
O61 C10 1.325 . S
O62 Li0 1.961 . S
O62 Li2 1.956 . S
O62 Li3 1.970 . S
O62 C32 1.325 . S
O63 Li1 1.961 . S
O63 Li2 1.970 . S
O63 Li3 1.956 . S
O63 C38 1.325 . S
H64 C6 0.929 . S
H65 C7 0.930 . S
H66 C8 0.930 . S
H67 C9 0.930 . S
H68 C11 0.930 . S
H69 C13 0.929 . S
H70 C14 0.930 . S
H71 C15 0.930 . S
H72 C18 0.930 . S
H73 C21 0.929 . S
H74 C26 0.929 . S
H75 C27 0.930 . S
H76 C34 0.929 . S
H77 C35 0.930 . S
H78 C36 0.930 . S
H79 C37 0.930 . S
H80 C39 0.929 . S
H81 C40 0.930 . S
H82 C41 0.930 . S
H83 C42 0.930 . S
H84 C46 0.929 . S
H85 C48 0.930 . S
H86 C54 0.929 . S
H87 C55 0.930 . S
Li88 N105 1.990 . S
Li88 O148 1.956 . S
Li88 O149 1.970 . S
Li88 O150 1.961 1_455 S
Li89 N113 1.990 . S
Li89 O148 1.970 . S
Li89 O149 1.956 . S
Li89 O151 1.929 1_455 S
Li90 N135 1.990 . S
Li90 O148 1.961 1_655 S
Li90 O150 1.956 . S
Li90 O151 1.972 . S
Li91 N141 1.990 . S
Li91 O149 1.961 1_655 S
Li91 O150 1.970 . S
Li91 O151 2.002 . S
C92 C94 1.348 . S
C92 C95 1.356 . S
C92 O148 1.325 . S
N93 C96 1.314 . S
N93 C97 1.279 . S
C94 C92 1.348 . S
C94 C96 1.353 . S
C94 H152 0.929 . S
C95 C92 1.356 . S
C95 C97 1.358 . S
C95 H153 0.930 . S
C96 N93 1.314 . S
C96 C94 1.353 . S
C96 H154 0.930 . S
C97 N93 1.279 . S
C97 C95 1.358 . S
C97 H155 0.930 . S
C98 C101 1.348 . S
C98 C102 1.356 . S
C98 O149 1.325 . S
C99 N100 1.279 . S
C99 C102 1.358 . S
C99 H156 0.930 . S
N100 C99 1.279 . S
N100 C103 1.314 . S
C101 C98 1.348 . S
C101 C103 1.353 . S
C101 H157 0.929 . S
C102 C98 1.356 . S
C102 C99 1.358 . S
C102 H158 0.930 . S
C103 N100 1.314 . S
C103 C101 1.353 . S
C103 H159 0.930 . S
C104 N105 1.314 1_655 S
C104 C109 1.353 . S
C104 H110 0.930 . S
N105 Li88 1.990 . S
N105 C104 1.314 1_455 S
N105 C107 1.279 . S
C106 C107 1.358 . S
C106 C108 1.356 . S
C106 H160 0.930 . S
C107 N105 1.279 . S
C107 C106 1.358 . S
C107 H111 0.930 . S
C108 C106 1.356 . S
C108 C109 1.348 1_455 S
C109 C104 1.353 . S
C109 C108 1.348 1_655 S
C109 H161 0.929 . S
H110 C104 0.930 . S
H111 C107 0.930 . S
C112 N113 1.314 . S
C112 C114 1.353 . S
C112 H118 0.930 . S
N113 Li89 1.990 . S
N113 C112 1.314 . S
N113 C116 1.279 . S
C114 C112 1.353 . S
C114 C117 1.348 . S
C114 H162 0.929 . S
C115 C116 1.358 . S
C115 C117 1.356 . S
C115 H163 0.930 . S
C116 N113 1.279 . S
C116 C115 1.358 . S
C116 H119 0.930 . S
C117 C114 1.348 . S
C117 C115 1.356 . S
H118 C112 0.930 . S
H119 C116 0.930 . S
C120 C122 1.348 . S
C120 C123 1.356 . S
C120 O150 1.325 . S
N121 C124 1.314 . S
N121 C125 1.279 . S
C122 C120 1.348 . S
C122 C124 1.353 . S
C122 H164 0.929 . S
C123 C120 1.356 . S
C123 C125 1.358 . S
C123 H165 0.930 . S
C124 N121 1.314 . S
C124 C122 1.353 . S
C124 H166 0.930 . S
C125 N121 1.279 . S
C125 C123 1.358 . S
C125 H167 0.930 . S
C126 C127 1.348 . S
C126 C128 1.356 1_655 S
C126 O151 1.323 . S
C127 C126 1.348 . S
C127 C129 1.353 . S
C127 H168 0.929 . S
C128 C126 1.356 1_455 S
C128 C130 1.357 . S
C128 H169 0.930 . S
C129 C127 1.353 . S
C129 N131 1.314 . S
C129 H170 0.930 . S
C130 C128 1.357 . S
C130 N131 1.274 1_455 S
C130 H171 0.943 . S
N131 C129 1.314 . S
N131 C130 1.274 1_655 S
C132 C134 1.353 . S
C132 N135 1.314 1_455 S
C132 H138 0.930 . S
C133 N135 1.279 . S
C133 C136 1.358 . S
C133 H139 0.930 . S
C134 C132 1.353 . S
C134 C137 1.348 1_455 S
C134 H172 0.929 . S
N135 Li90 1.990 . S
N135 C132 1.314 1_655 S
N135 C133 1.279 . S
C136 C133 1.358 . S
C136 C137 1.356 . S
C136 H173 0.930 . S
C137 C134 1.348 1_655 S
C137 C136 1.356 . S
H138 C132 0.930 . S
H139 C133 0.930 . S
C140 N141 1.314 . S
C140 C142 1.353 . S
C140 H146 0.930 . S
N141 Li91 1.990 . S
N141 C140 1.314 . S
N141 C144 1.279 . S
C142 C140 1.353 . S
C142 C145 1.348 . S
C142 H174 0.929 . S
C143 C144 1.358 . S
C143 C145 1.356 . S
C143 H175 0.930 . S
C144 N141 1.279 . S
C144 C143 1.358 . S
C144 H147 0.930 . S
C145 C142 1.348 . S
C145 C143 1.356 . S
H146 C140 0.930 . S
H147 C144 0.930 . S
O148 Li88 1.956 . S
O148 Li89 1.970 . S
O148 Li90 1.961 1_455 S
O148 C92 1.325 . S
O149 Li88 1.970 . S
O149 Li89 1.956 . S
O149 Li91 1.961 1_455 S
O149 C98 1.325 . S
O150 Li88 1.961 1_655 S
O150 Li90 1.956 . S
O150 Li91 1.970 . S
O150 C120 1.325 . S
O151 Li89 1.929 1_655 S
O151 Li90 1.972 . S
O151 Li91 2.002 . S
O151 C126 1.323 . S
H152 C94 0.929 . S
H153 C95 0.930 . S
H154 C96 0.930 . S
H155 C97 0.930 . S
H156 C99 0.930 . S
H157 C101 0.929 . S
H158 C102 0.930 . S
H159 C103 0.930 . S
H160 C106 0.930 . S
H161 C109 0.929 . S
H162 C114 0.929 . S
H163 C115 0.930 . S
H164 C122 0.929 . S
H165 C123 0.930 . S
H166 C124 0.930 . S
H167 C125 0.930 . S
H168 C127 0.929 . S
H169 C128 0.930 . S
H170 C129 0.930 . S
H171 C130 0.943 . S
H172 C134 0.929 . S
H173 C136 0.930 . S
H174 C142 0.929 . S
H175 C143 0.930 . S
Li176 N193 1.990 . S
Li176 O236 1.956 . S
Li176 O237 1.970 . S
Li176 O238 1.961 . S
Li177 N201 1.990 . S
Li177 O236 1.970 . S
Li177 O237 1.956 . S
Li177 O239 1.961 . S
Li178 N223 1.990 . S
Li178 O236 1.961 . S
Li178 O238 1.956 . S
Li178 O239 1.970 . S
Li179 N229 1.990 . S
Li179 O237 1.961 . S
Li179 O238 1.970 . S
Li179 O239 1.956 . S
C180 C182 1.348 . S
C180 C183 1.356 . S
C180 O236 1.325 . S
N181 C184 1.314 . S
N181 C185 1.279 . S
C182 C180 1.348 . S
C182 C184 1.353 . S
C182 H240 0.929 . S
C183 C180 1.356 . S
C183 C185 1.358 . S
C183 H241 0.930 . S
C184 N181 1.314 . S
C184 C182 1.353 . S
C184 H242 0.930 . S
C185 N181 1.279 . S
C185 C183 1.358 . S
C185 H243 0.930 . S
C186 C189 1.348 . S
C186 C190 1.356 . S
C186 O237 1.325 . S
C187 N188 1.279 . S
C187 C190 1.358 . S
C187 H244 0.930 . S
N188 C187 1.279 . S
N188 C191 1.314 . S
C189 C186 1.348 . S
C189 C191 1.353 . S
C189 H245 0.929 . S
C190 C186 1.356 . S
C190 C187 1.358 . S
C190 H246 0.930 . S
C191 N188 1.314 . S
C191 C189 1.353 . S
C191 H247 0.930 . S
C192 N193 1.314 . S
C192 C197 1.353 . S
C192 H198 0.930 . S
N193 Li176 1.990 . S
N193 C192 1.314 . S
N193 C195 1.279 . S
C194 C195 1.358 . S
C194 C196 1.356 . S
C194 H248 0.930 . S
C195 N193 1.279 . S
C195 C194 1.358 . S
C195 H199 0.930 . S
C196 C194 1.356 . S
C196 C197 1.348 . S
C197 C192 1.353 . S
C197 C196 1.348 . S
C197 H249 0.929 . S
H198 C192 0.930 . S
H199 C195 0.930 . S
C200 N201 1.314 . S
C200 C202 1.353 . S
C200 H206 0.930 . S
N201 Li177 1.990 . S
N201 C200 1.314 . S
N201 C204 1.279 . S
C202 C200 1.353 . S
C202 C205 1.348 . S
C202 H250 0.929 . S
C203 C204 1.358 . S
C203 C205 1.356 . S
C203 H251 0.930 . S
C204 N201 1.279 . S
C204 C203 1.358 . S
C204 H207 0.930 . S
C205 C202 1.348 . S
C205 C203 1.356 . S
H206 C200 0.930 . S
H207 C204 0.930 . S
C208 C210 1.348 . S
C208 C211 1.356 . S
C208 O238 1.325 . S
N209 C212 1.314 . S
N209 C213 1.279 . S
C210 C208 1.348 . S
C210 C212 1.353 . S
C210 H252 0.929 . S
C211 C208 1.356 . S
C211 C213 1.358 . S
C211 H253 0.930 . S
C212 N209 1.314 . S
C212 C210 1.353 . S
C212 H254 0.930 . S
C213 N209 1.279 . S
C213 C211 1.358 . S
C213 H255 0.930 . S
C214 C215 1.348 . S
C214 C216 1.356 . S
C214 O239 1.325 . S
C215 C214 1.348 . S
C215 C217 1.353 . S
C215 H256 0.929 . S
C216 C214 1.356 . S
C216 C218 1.358 . S
C216 H257 0.930 . S
C217 C215 1.353 . S
C217 N219 1.314 . S
C217 H258 0.930 . S
C218 C216 1.358 . S
C218 N219 1.279 . S
C218 H259 0.930 . S
N219 C217 1.314 . S
N219 C218 1.279 . S
C220 C222 1.353 . S
C220 N223 1.314 . S
C220 H226 0.930 . S
C221 N223 1.279 . S
C221 C224 1.358 . S
C221 H227 0.930 . S
C222 C220 1.353 . S
C222 C225 1.348 . S
C222 H260 0.929 . S
N223 Li178 1.990 . S
N223 C220 1.314 . S
N223 C221 1.279 . S
C224 C221 1.358 . S
C224 C225 1.356 . S
C224 H261 0.930 . S
C225 C222 1.348 . S
C225 C224 1.356 . S
H226 C220 0.930 . S
H227 C221 0.930 . S
C228 N229 1.314 . S
C228 C230 1.353 . S
C228 H234 0.930 . S
N229 Li179 1.990 . S
N229 C228 1.314 . S
N229 C232 1.279 . S
C230 C228 1.353 . S
C230 C233 1.348 . S
C230 H262 0.929 . S
C231 C232 1.358 . S
C231 C233 1.356 . S
C231 H263 0.930 . S
C232 N229 1.279 . S
C232 C231 1.358 . S
C232 H235 0.930 . S
C233 C230 1.348 . S
C233 C231 1.356 . S
H234 C228 0.930 . S
H235 C232 0.930 . S
O236 Li176 1.956 . S
O236 Li177 1.970 . S
O236 Li178 1.961 . S
O236 C180 1.325 . S
O237 Li176 1.970 . S
O237 Li177 1.956 . S
O237 Li179 1.961 . S
O237 C186 1.325 . S
O238 Li176 1.961 . S
O238 Li178 1.956 . S
O238 Li179 1.970 . S
O238 C208 1.325 . S
O239 Li177 1.961 . S
O239 Li178 1.970 . S
O239 Li179 1.956 . S
O239 C214 1.325 . S
H240 C182 0.929 . S
H241 C183 0.930 . S
H242 C184 0.930 . S
H243 C185 0.930 . S
H244 C187 0.930 . S
H245 C189 0.929 . S
H246 C190 0.930 . S
H247 C191 0.930 . S
H248 C194 0.930 . S
H249 C197 0.929 . S
H250 C202 0.929 . S
H251 C203 0.930 . S
H252 C210 0.929 . S
H253 C211 0.930 . S
H254 C212 0.930 . S
H255 C213 0.930 . S
H256 C215 0.929 . S
H257 C216 0.930 . S
H258 C217 0.930 . S
H259 C218 0.930 . S
H260 C222 0.929 . S
H261 C224 0.930 . S
H262 C230 0.929 . S
H263 C231 0.930 . S
Li264 N281 1.990 . S
Li264 O324 1.956 . S
Li264 O325 1.970 . S
Li264 O326 1.961 . S
Li265 N289 1.990 . S
Li265 O324 1.970 . S
Li265 O325 1.956 . S
Li265 O327 1.961 . S
Li266 N311 1.990 . S
Li266 O324 1.961 . S
Li266 O326 1.956 . S
Li266 O327 1.970 . S
Li267 N317 1.990 . S
Li267 O325 1.961 . S
Li267 O326 1.970 . S
Li267 O327 1.956 . S
C268 C270 1.348 . S
C268 C271 1.356 . S
C268 O324 1.325 . S
N269 C272 1.314 . S
N269 C273 1.279 . S
C270 C268 1.348 . S
C270 C272 1.353 . S
C270 H328 0.929 . S
C271 C268 1.356 . S
C271 C273 1.358 . S
C271 H329 0.930 . S
C272 N269 1.314 . S
C272 C270 1.353 . S
C272 H330 0.930 . S
C273 N269 1.279 . S
C273 C271 1.358 . S
C273 H331 0.930 . S
C274 C277 1.348 . S
C274 C278 1.356 . S
C274 O325 1.325 . S
C275 N276 1.279 . S
C275 C278 1.358 . S
C275 H332 0.930 . S
N276 C275 1.279 . S
N276 C279 1.314 . S
C277 C274 1.348 . S
C277 C279 1.353 . S
C277 H333 0.929 . S
C278 C274 1.356 . S
C278 C275 1.358 . S
C278 H334 0.930 . S
C279 N276 1.314 . S
C279 C277 1.353 . S
C279 H335 0.930 . S
C280 N281 1.314 . S
C280 C285 1.353 . S
C280 H286 0.930 . S
N281 Li264 1.990 . S
N281 C280 1.314 . S
N281 C283 1.279 . S
C282 C283 1.358 . S
C282 C284 1.356 . S
C282 H336 0.930 . S
C283 N281 1.279 . S
C283 C282 1.358 . S
C283 H287 0.930 . S
C284 C282 1.356 . S
C284 C285 1.348 . S
C285 C280 1.353 . S
C285 C284 1.348 . S
C285 H337 0.929 . S
H286 C280 0.930 . S
H287 C283 0.930 . S
C288 N289 1.314 . S
C288 C290 1.353 . S
C288 H294 0.930 . S
N289 Li265 1.990 . S
N289 C288 1.314 . S
N289 C292 1.279 . S
C290 C288 1.353 . S
C290 C293 1.348 . S
C290 H338 0.929 . S
C291 C292 1.358 . S
C291 C293 1.356 . S
C291 H339 0.930 . S
C292 N289 1.279 . S
C292 C291 1.358 . S
C292 H295 0.930 . S
C293 C290 1.348 . S
C293 C291 1.356 . S
H294 C288 0.930 . S
H295 C292 0.930 . S
C296 C298 1.348 . S
C296 C299 1.356 . S
C296 O326 1.325 . S
N297 C300 1.314 . S
N297 C301 1.279 . S
C298 C296 1.348 . S
C298 C300 1.353 . S
C298 H340 0.929 . S
C299 C296 1.356 . S
C299 C301 1.358 . S
C299 H341 0.930 . S
C300 N297 1.314 . S
C300 C298 1.353 . S
C300 H342 0.930 . S
C301 N297 1.279 . S
C301 C299 1.358 . S
C301 H343 0.930 . S
C302 C303 1.348 . S
C302 C304 1.356 . S
C302 O327 1.325 . S
C303 C302 1.348 . S
C303 C305 1.353 . S
C303 H344 0.929 . S
C304 C302 1.356 . S
C304 C306 1.358 . S
C304 H345 0.930 . S
C305 C303 1.353 . S
C305 N307 1.314 . S
C305 H346 0.930 . S
C306 C304 1.358 . S
C306 N307 1.279 . S
C306 H347 0.930 . S
N307 C305 1.314 . S
N307 C306 1.279 . S
C308 C310 1.353 . S
C308 N311 1.314 . S
C308 H314 0.930 . S
C309 N311 1.279 . S
C309 C312 1.358 . S
C309 H315 0.930 . S
C310 C308 1.353 . S
C310 C313 1.348 . S
C310 H348 0.929 . S
N311 Li266 1.990 . S
N311 C308 1.314 . S
N311 C309 1.279 . S
C312 C309 1.358 . S
C312 C313 1.356 . S
C312 H349 0.930 . S
C313 C310 1.348 . S
C313 C312 1.356 . S
H314 C308 0.930 . S
H315 C309 0.930 . S
C316 N317 1.314 . S
C316 C318 1.353 . S
C316 H322 0.930 . S
N317 Li267 1.990 . S
N317 C316 1.314 . S
N317 C320 1.279 . S
C318 C316 1.353 . S
C318 C321 1.348 . S
C318 H350 0.929 . S
C319 C320 1.358 . S
C319 C321 1.356 . S
C319 H351 0.930 . S
C320 N317 1.279 . S
C320 C319 1.358 . S
C320 H323 0.930 . S
C321 C318 1.348 . S
C321 C319 1.356 . S
H322 C316 0.930 . S
H323 C320 0.930 . S
O324 Li264 1.956 . S
O324 Li265 1.970 . S
O324 Li266 1.961 . S
O324 C268 1.325 . S
O325 Li264 1.970 . S
O325 Li265 1.956 . S
O325 Li267 1.961 . S
O325 C274 1.325 . S
O326 Li264 1.961 . S
O326 Li266 1.956 . S
O326 Li267 1.970 . S
O326 C296 1.325 . S
O327 Li265 1.961 . S
O327 Li266 1.970 . S
O327 Li267 1.956 . S
O327 C302 1.325 . S
H328 C270 0.929 . S
H329 C271 0.930 . S
H330 C272 0.930 . S
H331 C273 0.930 . S
H332 C275 0.930 . S
H333 C277 0.929 . S
H334 C278 0.930 . S
H335 C279 0.930 . S
H336 C282 0.930 . S
H337 C285 0.929 . S
H338 C290 0.929 . S
H339 C291 0.930 . S
H340 C298 0.929 . S
H341 C299 0.930 . S
H342 C300 0.930 . S
H343 C301 0.930 . S
H344 C303 0.929 . S
H345 C304 0.930 . S
H346 C305 0.930 . S
H347 C306 0.930 . S
H348 C310 0.929 . S
H349 C312 0.930 . S
H350 C318 0.929 . S
H351 C319 0.930 . S
Li352 N369 1.990 . S
Li352 O412 1.956 . S
Li352 O413 1.970 . S
Li352 O414 1.961 . S
Li353 N377 1.990 . S
Li353 O412 1.970 . S
Li353 O413 1.956 . S
Li353 O415 1.961 . S
Li354 N399 1.990 . S
Li354 O412 1.961 . S
Li354 O414 1.956 . S
Li354 O415 1.970 . S
Li355 N405 1.990 . S
Li355 O413 1.961 . S
Li355 O414 1.970 . S
Li355 O415 1.956 . S
C356 C358 1.348 . S
C356 C359 1.356 . S
C356 O412 1.325 . S
N357 C360 1.314 . S
N357 C361 1.279 . S
C358 C356 1.348 . S
C358 C360 1.353 . S
C358 H416 0.929 . S
C359 C356 1.356 . S
C359 C361 1.358 . S
C359 H417 0.930 . S
C360 N357 1.314 . S
C360 C358 1.353 . S
C360 H418 0.930 . S
C361 N357 1.279 . S
C361 C359 1.358 . S
C361 H419 0.930 . S
C362 C365 1.348 . S
C362 C366 1.356 . S
C362 O413 1.325 . S
C363 N364 1.279 . S
C363 C366 1.358 . S
C363 H420 0.930 . S
N364 C363 1.279 . S
N364 C367 1.314 . S
C365 C362 1.348 . S
C365 C367 1.353 . S
C365 H421 0.929 . S
C366 C362 1.356 . S
C366 C363 1.358 . S
C366 H422 0.930 . S
C367 N364 1.314 . S
C367 C365 1.353 . S
C367 H423 0.930 . S
C368 N369 1.314 . S
C368 C373 1.353 . S
C368 H374 0.930 . S
N369 Li352 1.990 . S
N369 C368 1.314 . S
N369 C371 1.279 . S
C370 C371 1.358 . S
C370 C372 1.356 . S
C370 H424 0.930 . S
C371 N369 1.279 . S
C371 C370 1.358 . S
C371 H375 0.930 . S
C372 C370 1.356 . S
C372 C373 1.348 . S
C373 C368 1.353 . S
C373 C372 1.348 . S
C373 H425 0.929 . S
H374 C368 0.930 . S
H375 C371 0.930 . S
C376 N377 1.314 . S
C376 C378 1.353 . S
C376 H382 0.930 . S
N377 Li353 1.990 . S
N377 C376 1.314 . S
N377 C380 1.279 . S
C378 C376 1.353 . S
C378 C381 1.348 . S
C378 H426 0.929 . S
C379 C380 1.358 . S
C379 C381 1.356 . S
C379 H427 0.930 . S
C380 N377 1.279 . S
C380 C379 1.358 . S
C380 H383 0.930 . S
C381 C378 1.348 . S
C381 C379 1.356 . S
H382 C376 0.930 . S
H383 C380 0.930 . S
C384 C386 1.348 . S
C384 C387 1.356 . S
C384 O414 1.325 . S
N385 C388 1.314 . S
N385 C389 1.279 1_655 S
C386 C384 1.348 . S
C386 C388 1.353 1_455 S
C386 H428 0.929 . S
C387 C384 1.356 . S
C387 C389 1.358 . S
C387 H429 0.930 . S
C388 N385 1.314 . S
C388 C386 1.353 1_655 S
C388 H430 0.930 . S
C389 N385 1.279 1_455 S
C389 C387 1.358 . S
C389 H431 0.930 . S
C390 C391 1.348 . S
C390 C392 1.356 . S
C390 O415 1.325 . S
C391 C390 1.348 . S
C391 C393 1.353 . S
C391 H432 0.929 . S
C392 C390 1.356 . S
C392 C394 1.358 . S
C392 H433 0.930 . S
C393 C391 1.353 . S
C393 N395 1.314 . S
C393 H434 0.930 . S
C394 C392 1.358 . S
C394 N395 1.279 . S
C394 H435 0.930 . S
N395 C393 1.314 . S
N395 C394 1.279 . S
C396 C398 1.353 . S
C396 N399 1.314 . S
C396 H402 0.930 . S
C397 N399 1.279 . S
C397 C400 1.358 . S
C397 H403 0.930 . S
C398 C396 1.353 . S
C398 C401 1.348 . S
C398 H436 0.929 . S
N399 Li354 1.990 . S
N399 C396 1.314 . S
N399 C397 1.279 . S
C400 C397 1.358 . S
C400 C401 1.356 . S
C400 H437 0.930 . S
C401 C398 1.348 . S
C401 C400 1.356 . S
H402 C396 0.930 . S
H403 C397 0.930 . S
C404 N405 1.314 . S
C404 C406 1.353 . S
C404 H410 0.930 . S
N405 Li355 1.990 . S
N405 C404 1.314 . S
N405 C408 1.279 . S
C406 C404 1.353 . S
C406 C409 1.348 1_455 S
C406 H438 0.936 . S
C407 C408 1.358 . S
C407 C409 1.356 1_455 S
C407 H439 0.930 . S
C408 N405 1.279 . S
C408 C407 1.358 . S
C408 H411 0.930 . S
C409 C406 1.348 1_655 S
C409 C407 1.356 1_655 S
H410 C404 0.930 . S
H411 C408 0.930 . S
O412 Li352 1.956 . S
O412 Li353 1.970 . S
O412 Li354 1.961 . S
O412 C356 1.325 . S
O413 Li352 1.970 . S
O413 Li353 1.956 . S
O413 Li355 1.961 . S
O413 C362 1.325 . S
O414 Li352 1.961 . S
O414 Li354 1.956 . S
O414 Li355 1.970 . S
O414 C384 1.325 . S
O415 Li353 1.961 . S
O415 Li354 1.970 . S
O415 Li355 1.956 . S
O415 C390 1.325 . S
H416 C358 0.929 . S
H417 C359 0.930 . S
H418 C360 0.930 . S
H419 C361 0.930 . S
H420 C363 0.930 . S
H421 C365 0.929 . S
H422 C366 0.930 . S
H423 C367 0.930 . S
H424 C370 0.930 . S
H425 C373 0.929 . S
H426 C378 0.929 . S
H427 C379 0.930 . S
H428 C386 0.929 . S
H429 C387 0.930 . S
H430 C388 0.930 . S
H431 C389 0.930 . S
H432 C391 0.929 . S
H433 C392 0.930 . S
H434 C393 0.930 . S
H435 C394 0.930 . S
H436 C398 0.929 . S
H437 C400 0.930 . S
H438 C406 0.936 . S
H439 C407 0.930 . S
Li440 N457 1.990 . S
Li440 O500 1.956 . S
Li440 O501 1.970 . S
Li440 O502 1.961 . S
Li441 N465 1.990 . S
Li441 O500 1.970 . S
Li441 O501 1.956 . S
Li441 O503 1.961 . S
Li442 N487 1.990 . S
Li442 O500 1.961 . S
Li442 O502 1.956 . S
Li442 O503 1.970 . S
Li443 N493 1.990 . S
Li443 O501 1.961 . S
Li443 O502 1.970 . S
Li443 O503 1.956 . S
C444 C446 1.348 . S
C444 C447 1.356 . S
C444 O500 1.325 . S
N445 C448 1.314 . S
N445 C449 1.279 . S
C446 C444 1.348 . S
C446 C448 1.353 . S
C446 H504 0.929 . S
C447 C444 1.356 . S
C447 C449 1.358 . S
C447 H505 0.930 . S
C448 N445 1.314 . S
C448 C446 1.353 . S
C448 H506 0.930 . S
C449 N445 1.279 . S
C449 C447 1.358 . S
C449 H507 0.930 . S
C450 C453 1.348 . S
C450 C454 1.356 . S
C450 O501 1.325 . S
C451 N452 1.279 . S
C451 C454 1.358 . S
C451 H508 0.930 . S
N452 C451 1.279 . S
N452 C455 1.314 . S
C453 C450 1.348 . S
C453 C455 1.353 . S
C453 H509 0.929 . S
C454 C450 1.356 . S
C454 C451 1.358 . S
C454 H510 0.930 . S
C455 N452 1.314 . S
C455 C453 1.353 . S
C455 H511 0.930 . S
C456 N457 1.314 . S
C456 C461 1.353 . S
C456 H462 0.930 . S
N457 Li440 1.990 . S
N457 C456 1.314 . S
N457 C459 1.279 . S
C458 C459 1.358 . S
C458 C460 1.356 . S
C458 H512 0.930 . S
C459 N457 1.279 . S
C459 C458 1.358 . S
C459 H463 0.930 . S
C460 C458 1.356 . S
C460 C461 1.348 . S
C461 C456 1.353 . S
C461 C460 1.348 . S
C461 H513 0.929 . S
H462 C456 0.930 . S
H463 C459 0.930 . S
C464 N465 1.314 . S
C464 C466 1.353 . S
C464 H470 0.930 . S
N465 Li441 1.990 . S
N465 C464 1.314 . S
N465 C468 1.279 . S
C466 C464 1.353 . S
C466 C469 1.348 . S
C466 H514 0.929 . S
C467 C468 1.358 . S
C467 C469 1.356 . S
C467 H515 0.930 . S
C468 N465 1.279 . S
C468 C467 1.358 . S
C468 H471 0.930 . S
C469 C466 1.348 . S
C469 C467 1.356 . S
H470 C464 0.930 . S
H471 C468 0.930 . S
C472 C474 1.348 . S
C472 C475 1.356 . S
C472 O502 1.325 . S
N473 C476 1.314 . S
N473 C477 1.279 . S
C474 C472 1.348 . S
C474 C476 1.353 . S
C474 H516 0.929 . S
C475 C472 1.356 . S
C475 C477 1.358 . S
C475 H517 0.930 . S
C476 N473 1.314 . S
C476 C474 1.353 . S
C476 H518 0.930 . S
C477 N473 1.279 . S
C477 C475 1.358 . S
C477 H519 0.930 . S
C478 C479 1.348 . S
C478 C480 1.356 . S
C478 O503 1.325 . S
C479 C478 1.348 . S
C479 C481 1.353 . S
C479 H520 0.929 . S
C480 C478 1.356 . S
C480 C482 1.358 . S
C480 H521 0.930 . S
C481 C479 1.353 . S
C481 N483 1.314 . S
C481 H522 0.930 . S
C482 C480 1.358 . S
C482 N483 1.279 . S
C482 H523 0.930 . S
N483 C481 1.314 . S
N483 C482 1.279 . S
C484 C486 1.353 . S
C484 N487 1.314 . S
C484 H490 0.930 . S
C485 N487 1.279 . S
C485 C488 1.358 . S
C485 H491 0.930 . S
C486 C484 1.353 . S
C486 C489 1.348 . S
C486 H524 0.929 . S
N487 Li442 1.990 . S
N487 C484 1.314 . S
N487 C485 1.279 . S
C488 C485 1.358 . S
C488 C489 1.356 . S
C488 H525 0.930 . S
C489 C486 1.348 . S
C489 C488 1.356 . S
H490 C484 0.930 . S
H491 C485 0.930 . S
C492 N493 1.314 . S
C492 C494 1.353 . S
C492 H498 0.930 . S
N493 Li443 1.990 . S
N493 C492 1.314 . S
N493 C496 1.279 . S
C494 C492 1.353 . S
C494 C497 1.348 . S
C494 H526 0.929 . S
C495 C496 1.358 . S
C495 C497 1.356 . S
C495 H527 0.930 . S
C496 N493 1.279 . S
C496 C495 1.358 . S
C496 H499 0.930 . S
C497 C494 1.348 . S
C497 C495 1.356 . S
H498 C492 0.930 . S
H499 C496 0.930 . S
O500 Li440 1.956 . S
O500 Li441 1.970 . S
O500 Li442 1.961 . S
O500 C444 1.325 . S
O501 Li440 1.970 . S
O501 Li441 1.956 . S
O501 Li443 1.961 . S
O501 C450 1.325 . S
O502 Li440 1.961 . S
O502 Li442 1.956 . S
O502 Li443 1.970 . S
O502 C472 1.325 . S
O503 Li441 1.961 . S
O503 Li442 1.970 . S
O503 Li443 1.956 . S
O503 C478 1.325 . S
H504 C446 0.929 . S
H505 C447 0.930 . S
H506 C448 0.930 . S
H507 C449 0.930 . S
H508 C451 0.930 . S
H509 C453 0.929 . S
H510 C454 0.930 . S
H511 C455 0.930 . S
H512 C458 0.930 . S
H513 C461 0.929 . S
H514 C466 0.929 . S
H515 C467 0.930 . S
H516 C474 0.929 . S
H517 C475 0.930 . S
H518 C476 0.930 . S
H519 C477 0.930 . S
H520 C479 0.929 . S
H521 C480 0.930 . S
H522 C481 0.930 . S
H523 C482 0.930 . S
H524 C486 0.929 . S
H525 C488 0.930 . S
H526 C494 0.929 . S
H527 C495 0.930 . S
Li528 N545 1.990 . S
Li528 O588 1.956 . S
Li528 O589 1.970 . S
Li528 O590 1.961 . S
Li529 N553 1.990 . S
Li529 O588 1.970 . S
Li529 O589 1.956 . S
Li529 O591 1.961 . S
Li530 N575 1.990 . S
Li530 O588 1.961 . S
Li530 O590 1.956 . S
Li530 O591 1.970 . S
Li531 N581 1.990 . S
Li531 O589 1.961 . S
Li531 O590 1.970 . S
Li531 O591 1.956 . S
C532 C534 1.348 . S
C532 C535 1.356 . S
C532 O588 1.325 . S
N533 C536 1.314 . S
N533 C537 1.279 . S
C534 C532 1.348 . S
C534 C536 1.353 . S
C534 H592 0.929 . S
C535 C532 1.356 . S
C535 C537 1.358 . S
C535 H593 0.930 . S
C536 N533 1.314 . S
C536 C534 1.353 . S
C536 H594 0.930 . S
C537 N533 1.279 . S
C537 C535 1.358 . S
C537 H595 0.930 . S
C538 C541 1.348 . S
C538 C542 1.356 . S
C538 O589 1.325 . S
C539 N540 1.279 . S
C539 C542 1.358 . S
C539 H596 0.930 . S
N540 C539 1.279 . S
N540 C543 1.314 . S
C541 C538 1.348 . S
C541 C543 1.353 . S
C541 H597 0.929 . S
C542 C538 1.356 . S
C542 C539 1.358 . S
C542 H598 0.930 . S
C543 N540 1.314 . S
C543 C541 1.353 . S
C543 H599 0.930 . S
C544 N545 1.314 . S
C544 C549 1.353 . S
C544 H550 0.930 . S
N545 Li528 1.990 . S
N545 C544 1.314 . S
N545 C547 1.279 . S
C546 C547 1.358 . S
C546 C548 1.356 . S
C546 H600 0.930 . S
C547 N545 1.279 . S
C547 C546 1.358 . S
C547 H551 0.930 . S
C548 C546 1.356 . S
C548 C549 1.348 . S
C549 C544 1.353 . S
C549 C548 1.348 . S
C549 H601 0.929 . S
H550 C544 0.930 . S
H551 C547 0.930 . S
C552 N553 1.314 . S
C552 C554 1.353 . S
C552 H558 0.930 . S
N553 Li529 1.990 . S
N553 C552 1.314 . S
N553 C556 1.279 . S
C554 C552 1.353 . S
C554 C557 1.348 . S
C554 H602 0.929 . S
C555 C556 1.358 . S
C555 C557 1.356 . S
C555 H603 0.930 . S
C556 N553 1.279 . S
C556 C555 1.358 . S
C556 H559 0.930 . S
C557 C554 1.348 . S
C557 C555 1.356 . S
H558 C552 0.930 . S
H559 C556 0.930 . S
C560 C562 1.348 . S
C560 C563 1.356 . S
C560 O590 1.325 . S
N561 C564 1.314 . S
N561 C565 1.279 . S
C562 C560 1.348 . S
C562 C564 1.353 . S
C562 H604 0.929 . S
C563 C560 1.356 . S
C563 C565 1.358 . S
C563 H605 0.930 . S
C564 N561 1.314 . S
C564 C562 1.353 . S
C564 H606 0.930 . S
C565 N561 1.279 . S
C565 C563 1.358 . S
C565 H607 0.930 . S
C566 C567 1.348 . S
C566 C568 1.356 . S
C566 O591 1.325 . S
C567 C566 1.348 . S
C567 C569 1.353 . S
C567 H608 0.929 . S
C568 C566 1.356 . S
C568 C570 1.358 . S
C568 H609 0.930 . S
C569 C567 1.353 . S
C569 N571 1.314 . S
C569 H610 0.930 . S
C570 C568 1.358 . S
C570 N571 1.279 . S
C570 H611 0.930 . S
N571 C569 1.314 . S
N571 C570 1.279 . S
C572 C574 1.353 . S
C572 N575 1.314 . S
C572 H578 0.930 . S
C573 N575 1.279 . S
C573 C576 1.358 . S
C573 H579 0.930 . S
C574 C572 1.353 . S
C574 C577 1.348 . S
C574 H612 0.929 . S
N575 Li530 1.990 . S
N575 C572 1.314 . S
N575 C573 1.279 . S
C576 C573 1.358 . S
C576 C577 1.356 . S
C576 H613 0.930 . S
C577 C574 1.348 . S
C577 C576 1.356 . S
H578 C572 0.930 . S
H579 C573 0.930 . S
C580 N581 1.314 . S
C580 C582 1.353 . S
C580 H586 0.930 . S
N581 Li531 1.990 . S
N581 C580 1.314 . S
N581 C584 1.279 . S
C582 C580 1.353 . S
C582 C585 1.348 . S
C582 H614 0.929 . S
C583 C584 1.358 . S
C583 C585 1.356 . S
C583 H615 0.930 . S
C584 N581 1.279 . S
C584 C583 1.358 . S
C584 H587 0.930 . S
C585 C582 1.348 . S
C585 C583 1.356 . S
H586 C580 0.930 . S
H587 C584 0.930 . S
O588 Li528 1.956 . S
O588 Li529 1.970 . S
O588 Li530 1.961 . S
O588 C532 1.325 . S
O589 Li528 1.970 . S
O589 Li529 1.956 . S
O589 Li531 1.961 . S
O589 C538 1.325 . S
O590 Li528 1.961 . S
O590 Li530 1.956 . S
O590 Li531 1.970 . S
O590 C560 1.325 . S
O591 Li529 1.961 . S
O591 Li530 1.970 . S
O591 Li531 1.956 . S
O591 C566 1.325 . S
H592 C534 0.929 . S
H593 C535 0.930 . S
H594 C536 0.930 . S
H595 C537 0.930 . S
H596 C539 0.930 . S
H597 C541 0.929 . S
H598 C542 0.930 . S
H599 C543 0.930 . S
H600 C546 0.930 . S
H601 C549 0.929 . S
H602 C554 0.929 . S
H603 C555 0.930 . S
H604 C562 0.929 . S
H605 C563 0.930 . S
H606 C564 0.930 . S
H607 C565 0.930 . S
H608 C567 0.929 . S
H609 C568 0.930 . S
H610 C569 0.930 . S
H611 C570 0.930 . S
H612 C574 0.929 . S
H613 C576 0.930 . S
H614 C582 0.929 . S
H615 C583 0.930 . S
Li616 N633 1.990 . S
Li616 O676 1.956 1_455 S
Li616 O677 1.970 . S
Li616 O678 1.961 . S
Li617 N641 1.990 . S
Li617 O676 1.970 . S
Li617 O677 1.956 1_655 S
Li617 O679 1.961 1_655 S
Li618 N663 1.990 . S
Li618 O676 1.961 1_455 S
Li618 O678 1.956 . S
Li618 O679 1.970 . S
Li619 N669 1.990 . S
Li619 O677 1.961 . S
Li619 O678 1.970 . S
Li619 O679 1.956 . S
C620 C622 1.348 . S
C620 C623 1.356 . S
C620 O676 1.325 . S
N621 C624 1.314 . S
N621 C625 1.279 . S
C622 C620 1.348 . S
C622 C624 1.353 . S
C622 H680 0.929 . S
C623 C620 1.356 . S
C623 C625 1.358 . S
C623 H681 0.930 . S
C624 N621 1.314 . S
C624 C622 1.353 . S
C624 H682 0.930 . S
C625 N621 1.279 . S
C625 C623 1.358 . S
C625 H683 0.930 . S
C626 C629 1.348 . S
C626 C630 1.356 . S
C626 O677 1.325 . S
C627 N628 1.279 . S
C627 C630 1.358 . S
C627 H684 0.930 . S
N628 C627 1.279 . S
N628 C631 1.314 . S
C629 C626 1.348 . S
C629 C631 1.353 . S
C629 H685 0.929 . S
C630 C626 1.356 . S
C630 C627 1.358 . S
C630 H686 0.930 . S
C631 N628 1.314 . S
C631 C629 1.353 . S
C631 H687 0.930 . S
C632 N633 1.314 . S
C632 C637 1.353 . S
C632 H638 0.930 . S
N633 Li616 1.990 . S
N633 C632 1.314 . S
N633 C635 1.279 . S
C634 C635 1.358 . S
C634 C636 1.356 . S
C634 H688 0.930 . S
C635 N633 1.279 . S
C635 C634 1.358 . S
C635 H639 0.930 1_455 S
C636 C634 1.356 . S
C636 C637 1.348 . S
C637 C632 1.353 . S
C637 C636 1.348 . S
C637 H689 0.929 . S
H638 C632 0.930 . S
H639 C635 0.930 1_655 S
C640 N641 1.314 . S
C640 C642 1.353 . S
C640 H646 0.930 . S
N641 Li617 1.990 . S
N641 C640 1.314 . S
N641 C644 1.279 . S
C642 C640 1.353 . S
C642 C645 1.348 . S
C642 H690 0.929 . S
C643 C644 1.358 . S
C643 C645 1.356 . S
C643 H691 0.930 . S
C644 N641 1.279 . S
C644 C643 1.358 . S
C644 H647 0.930 . S
C645 C642 1.348 . S
C645 C643 1.356 . S
H646 C640 0.930 . S
H647 C644 0.930 . S
C648 C650 1.348 . S
C648 C651 1.356 . S
C648 O678 1.325 . S
N649 C652 1.314 . S
N649 C653 1.279 . S
C650 C648 1.348 . S
C650 C652 1.353 . S
C650 H692 0.929 . S
C651 C648 1.356 . S
C651 C653 1.358 . S
C651 H693 0.930 . S
C652 N649 1.314 . S
C652 C650 1.353 . S
C652 H694 0.930 . S
C653 N649 1.279 . S
C653 C651 1.358 . S
C653 H695 0.964 . S
C654 C655 1.348 . S
C654 C656 1.356 . S
C654 O679 1.325 . S
C655 C654 1.348 . S
C655 C657 1.353 . S
C655 H696 0.929 . S
C656 C654 1.356 . S
C656 C658 1.358 . S
C656 H697 0.930 . S
C657 C655 1.353 . S
C657 N659 1.314 . S
C657 H698 0.930 . S
C658 C656 1.358 . S
C658 N659 1.279 . S
C658 H699 0.930 1_455 S
N659 C657 1.314 . S
N659 C658 1.279 . S
C660 C662 1.353 . S
C660 N663 1.314 1_655 S
C660 H666 0.930 . S
C661 N663 1.279 . S
C661 C664 1.358 . S
C661 H667 0.930 . S
C662 C660 1.353 . S
C662 C665 1.348 1_655 S
C662 H700 0.929 . S
N663 Li618 1.990 . S
N663 C660 1.314 1_455 S
N663 C661 1.279 . S
C664 C661 1.358 . S
C664 C665 1.356 . S
C664 H701 0.930 . S
C665 C662 1.348 1_455 S
C665 C664 1.356 . S
H666 C660 0.930 . S
H667 C661 0.930 . S
C668 N669 1.314 . S
C668 C670 1.353 . S
C668 H674 0.930 . S
N669 Li619 1.990 . S
N669 C668 1.314 . S
N669 C672 1.279 . S
C670 C668 1.353 . S
C670 C673 1.348 . S
C670 H702 0.929 . S
C671 C672 1.358 . S
C671 C673 1.356 . S
C671 H703 0.930 . S
C672 N669 1.279 . S
C672 C671 1.358 . S
C672 H675 0.930 . S
C673 C670 1.348 . S
C673 C671 1.356 . S
H674 C668 0.930 . S
H675 C672 0.930 . S
O676 Li616 1.956 1_655 S
O676 Li617 1.970 . S
O676 Li618 1.961 1_655 S
O676 C620 1.325 . S
O677 Li616 1.970 . S
O677 Li617 1.956 1_455 S
O677 Li619 1.961 . S
O677 C626 1.325 . S
O678 Li616 1.961 . S
O678 Li618 1.956 . S
O678 Li619 1.970 . S
O678 C648 1.325 . S
O679 Li617 1.961 1_455 S
O679 Li618 1.970 . S
O679 Li619 1.956 . S
O679 C654 1.325 . S
H680 C622 0.929 . S
H681 C623 0.930 . S
H682 C624 0.930 . S
H683 C625 0.930 . S
H684 C627 0.930 . S
H685 C629 0.929 . S
H686 C630 0.930 . S
H687 C631 0.930 . S
H688 C634 0.930 . S
H689 C637 0.929 . S
H690 C642 0.929 . S
H691 C643 0.930 . S
H692 C650 0.929 . S
H693 C651 0.930 . S
H694 C652 0.930 . S
H695 C653 0.964 . S
H696 C655 0.929 . S
H697 C656 0.930 . S
H698 C657 0.930 . S
H699 C658 0.930 1_655 S
H700 C662 0.929 . S
H701 C664 0.930 . S
H702 C670 0.929 . S
H703 C671 0.930 . S
Li704 N721 1.990 . S
Li704 O764 1.956 1_545 S
Li704 O765 1.970 . S
Li704 O766 1.961 . S
Li705 N729 1.990 . S
Li705 O764 1.970 . S
Li705 O765 1.956 1_565 S
Li705 O767 1.961 . S
Li706 N751 1.990 . S
Li706 O764 1.961 1_545 S
Li706 O766 1.956 . S
Li706 O767 1.970 1_545 S
Li707 N757 1.990 . S
Li707 O765 1.961 . S
Li707 O766 1.970 . S
Li707 O767 1.956 1_545 S
C708 C710 1.348 . S
C708 C711 1.356 . S
C708 O764 1.325 . S
N709 C712 1.314 . S
N709 C713 1.279 . S
C710 C708 1.348 . S
C710 C712 1.353 . S
C710 H768 0.929 . S
C711 C708 1.356 . S
C711 C713 1.358 . S
C711 H769 0.930 . S
C712 N709 1.314 . S
C712 C710 1.353 . S
C712 H770 0.930 . S
C713 N709 1.279 . S
C713 C711 1.358 . S
C713 H771 0.930 . S
C714 C717 1.348 1_545 S
C714 C718 1.356 . S
C714 O765 1.325 . S
C715 N716 1.261 1_545 S
C715 C718 1.362 . S
C715 H772 0.951 . S
N716 C715 1.261 1_565 S
N716 C719 1.314 . S
C717 C714 1.348 1_565 S
C717 C719 1.353 . S
C717 H773 0.929 . S
C718 C714 1.356 . S
C718 C715 1.362 . S
C718 H774 0.930 . S
C719 N716 1.314 . S
C719 C717 1.353 . S
C719 H775 0.930 . S
C720 N721 1.314 . S
C720 C725 1.353 . S
C720 H726 0.930 . S
N721 Li704 1.990 . S
N721 C720 1.314 . S
N721 C723 1.279 1_545 S
C722 C723 1.364 1_545 S
C722 C724 1.380 . S
C722 H776 0.901 1_545 S
C723 N721 1.279 1_565 S
C723 C722 1.364 1_565 S
C723 H727 0.930 . S
C724 C722 1.380 . S
C724 C725 1.348 . S
C725 C720 1.353 . S
C725 C724 1.348 . S
C725 H777 0.929 . S
H726 C720 0.930 . S
H727 C723 0.930 . S
C728 N729 1.314 . S
C728 C730 1.353 . S
C728 H734 0.930 . S
N729 Li705 1.990 . S
N729 C728 1.314 . S
N729 C732 1.279 . S
C730 C728 1.353 . S
C730 C733 1.348 . S
C730 H778 0.929 . S
C731 C732 1.358 . S
C731 C733 1.356 . S
C731 H779 0.930 . S
C732 N729 1.279 . S
C732 C731 1.358 . S
C732 H735 0.930 . S
C733 C730 1.348 . S
C733 C731 1.356 . S
H734 C728 0.930 . S
H735 C732 0.930 . S
C736 C738 1.348 . S
C736 C739 1.356 . S
C736 O766 1.325 . S
N737 C740 1.314 . S
N737 C741 1.279 . S
C738 C736 1.348 . S
C738 C740 1.353 . S
C738 H780 0.929 . S
C739 C736 1.356 . S
C739 C741 1.358 . S
C739 H781 0.930 . S
C740 N737 1.314 . S
C740 C738 1.353 . S
C740 H782 0.930 . S
C741 N737 1.279 . S
C741 C739 1.358 . S
C741 H783 0.930 . S
C742 C743 1.367 . S
C742 C744 1.356 . S
C742 O767 1.325 . S
C743 C742 1.367 . S
C743 C745 1.347 . S
C743 H784 0.920 1_565 S
C744 C742 1.356 . S
C744 C746 1.358 . S
C744 H785 0.930 . S
C745 C743 1.347 . S
C745 N747 1.314 . S
C745 H786 0.930 . S
C746 C744 1.358 . S
C746 N747 1.279 . S
C746 H787 0.930 . S
N747 C745 1.314 . S
N747 C746 1.279 . S
C748 C750 1.353 . S
C748 N751 1.314 1_565 S
C748 H754 0.930 . S
C749 N751 1.279 . S
C749 C752 1.358 . S
C749 H755 0.930 . S
C750 C748 1.353 . S
C750 C753 1.348 1_565 S
C750 H788 0.929 . S
N751 Li706 1.990 . S
N751 C748 1.314 1_545 S
N751 C749 1.279 . S
C752 C749 1.358 . S
C752 C753 1.356 . S
C752 H789 0.930 . S
C753 C750 1.348 1_545 S
C753 C752 1.356 . S
H754 C748 0.930 . S
H755 C749 0.930 . S
C756 N757 1.314 . S
C756 C758 1.353 . S
C756 H762 0.930 . S
N757 Li707 1.990 . S
N757 C756 1.314 . S
N757 C760 1.279 . S
C758 C756 1.353 . S
C758 C761 1.348 . S
C758 H790 0.929 . S
C759 C760 1.358 . S
C759 C761 1.356 . S
C759 H791 0.930 . S
C760 N757 1.279 . S
C760 C759 1.358 . S
C760 H763 0.930 . S
C761 C758 1.348 . S
C761 C759 1.356 . S
H762 C756 0.930 . S
H763 C760 0.930 . S
O764 Li704 1.956 1_565 S
O764 Li705 1.970 . S
O764 Li706 1.961 1_565 S
O764 C708 1.325 . S
O765 Li704 1.970 . S
O765 Li705 1.956 1_545 S
O765 Li707 1.961 . S
O765 C714 1.325 . S
O766 Li704 1.961 . S
O766 Li706 1.956 . S
O766 Li707 1.970 . S
O766 C736 1.325 . S
O767 Li705 1.961 . S
O767 Li706 1.970 1_565 S
O767 Li707 1.956 1_565 S
O767 C742 1.325 . S
H768 C710 0.929 . S
H769 C711 0.930 . S
H770 C712 0.930 . S
H771 C713 0.930 . S
H772 C715 0.951 . S
H773 C717 0.929 . S
H774 C718 0.930 . S
H775 C719 0.930 . S
H776 C722 0.901 1_565 S
H777 C725 0.929 . S
H778 C730 0.929 . S
H779 C731 0.930 . S
H780 C738 0.929 . S
H781 C739 0.930 . S
H782 C740 0.930 . S
H783 C741 0.930 . S
H784 C743 0.920 1_545 S
H785 C744 0.930 . S
H786 C745 0.930 . S
H787 C746 0.930 . S
H788 C750 0.929 . S
H789 C752 0.930 . S
H790 C758 0.929 . S
H791 C759 0.930 . S
Li792 N809 1.990 . S
Li792 O852 1.956 . S
Li792 O853 1.970 . S
Li792 O854 1.961 . S
Li793 N817 1.990 . S
Li793 O852 1.970 . S
Li793 O853 1.956 . S
Li793 O855 1.961 . S
Li794 N839 1.990 . S
Li794 O852 1.961 . S
Li794 O854 1.956 . S
Li794 O855 1.970 . S
Li795 N845 1.990 . S
Li795 O853 1.961 . S
Li795 O854 1.970 . S
Li795 O855 1.956 . S
C796 C798 1.348 . S
C796 C799 1.356 . S
C796 O852 1.325 . S
N797 C800 1.314 . S
N797 C801 1.279 . S
C798 C796 1.348 . S
C798 C800 1.353 . S
C798 H856 0.929 . S
C799 C796 1.356 . S
C799 C801 1.358 . S
C799 H857 0.930 . S
C800 N797 1.314 . S
C800 C798 1.353 . S
C800 H858 0.930 . S
C801 N797 1.279 . S
C801 C799 1.358 . S
C801 H859 0.930 . S
C802 C805 1.348 . S
C802 C806 1.356 . S
C802 O853 1.325 . S
C803 N804 1.279 . S
C803 C806 1.358 . S
C803 H860 0.930 . S
N804 C803 1.279 . S
N804 C807 1.314 . S
C805 C802 1.348 . S
C805 C807 1.353 . S
C805 H861 0.929 . S
C806 C802 1.356 . S
C806 C803 1.358 . S
C806 H862 0.930 . S
C807 N804 1.314 . S
C807 C805 1.353 . S
C807 H863 0.930 . S
C808 N809 1.314 . S
C808 C813 1.353 . S
C808 H814 0.930 . S
N809 Li792 1.990 . S
N809 C808 1.314 . S
N809 C811 1.279 . S
C810 C811 1.358 . S
C810 C812 1.356 . S
C810 H864 0.930 . S
C811 N809 1.279 . S
C811 C810 1.358 . S
C811 H815 0.930 . S
C812 C810 1.356 . S
C812 C813 1.348 . S
C813 C808 1.353 . S
C813 C812 1.348 . S
C813 H865 0.929 . S
H814 C808 0.930 . S
H815 C811 0.930 . S
C816 N817 1.314 . S
C816 C818 1.353 . S
C816 H822 0.930 . S
N817 Li793 1.990 . S
N817 C816 1.314 . S
N817 C820 1.279 . S
C818 C816 1.353 . S
C818 C821 1.348 . S
C818 H866 0.929 . S
C819 C820 1.358 . S
C819 C821 1.356 . S
C819 H867 0.930 . S
C820 N817 1.279 . S
C820 C819 1.358 . S
C820 H823 0.930 . S
C821 C818 1.348 . S
C821 C819 1.356 . S
H822 C816 0.930 . S
H823 C820 0.930 . S
C824 C826 1.348 . S
C824 C827 1.356 . S
C824 O854 1.325 . S
N825 C828 1.314 . S
N825 C829 1.279 . S
C826 C824 1.348 . S
C826 C828 1.353 . S
C826 H868 0.929 . S
C827 C824 1.356 . S
C827 C829 1.358 . S
C827 H869 0.930 . S
C828 N825 1.314 . S
C828 C826 1.353 . S
C828 H870 0.930 . S
C829 N825 1.279 . S
C829 C827 1.358 . S
C829 H871 0.930 . S
C830 C831 1.348 . S
C830 C832 1.356 . S
C830 O855 1.325 . S
C831 C830 1.348 . S
C831 C833 1.353 . S
C831 H872 0.929 . S
C832 C830 1.356 . S
C832 C834 1.358 . S
C832 H873 0.930 . S
C833 C831 1.353 . S
C833 N835 1.314 . S
C833 H874 0.930 . S
C834 C832 1.358 . S
C834 N835 1.279 . S
C834 H875 0.930 . S
N835 C833 1.314 . S
N835 C834 1.279 . S
C836 C838 1.353 . S
C836 N839 1.314 . S
C836 H842 0.930 . S
C837 N839 1.279 . S
C837 C840 1.358 . S
C837 H843 0.930 . S
C838 C836 1.353 . S
C838 C841 1.348 . S
C838 H876 0.929 . S
N839 Li794 1.990 . S
N839 C836 1.314 . S
N839 C837 1.279 . S
C840 C837 1.358 . S
C840 C841 1.356 . S
C840 H877 0.930 . S
C841 C838 1.348 . S
C841 C840 1.356 . S
H842 C836 0.930 . S
H843 C837 0.930 . S
C844 N845 1.314 . S
C844 C846 1.353 . S
C844 H850 0.930 . S
N845 Li795 1.990 . S
N845 C844 1.314 . S
N845 C848 1.279 . S
C846 C844 1.353 . S
C846 C849 1.348 . S
C846 H878 0.929 . S
C847 C848 1.358 . S
C847 C849 1.356 . S
C847 H879 0.930 . S
C848 N845 1.279 . S
C848 C847 1.358 . S
C848 H851 0.930 . S
C849 C846 1.348 . S
C849 C847 1.356 . S
H850 C844 0.930 . S
H851 C848 0.930 . S
O852 Li792 1.956 . S
O852 Li793 1.970 . S
O852 Li794 1.961 . S
O852 C796 1.325 . S
O853 Li792 1.970 . S
O853 Li793 1.956 . S
O853 Li795 1.961 . S
O853 C802 1.325 . S
O854 Li792 1.961 . S
O854 Li794 1.956 . S
O854 Li795 1.970 . S
O854 C824 1.325 . S
O855 Li793 1.961 . S
O855 Li794 1.970 . S
O855 Li795 1.956 . S
O855 C830 1.325 . S
H856 C798 0.929 . S
H857 C799 0.930 . S
H858 C800 0.930 . S
H859 C801 0.930 . S
H860 C803 0.930 . S
H861 C805 0.929 . S
H862 C806 0.930 . S
H863 C807 0.930 . S
H864 C810 0.930 . S
H865 C813 0.929 . S
H866 C818 0.929 . S
H867 C819 0.930 . S
H868 C826 0.929 . S
H869 C827 0.930 . S
H870 C828 0.930 . S
H871 C829 0.930 . S
H872 C831 0.929 . S
H873 C832 0.930 . S
H874 C833 0.930 . S
H875 C834 0.930 . S
H876 C838 0.929 . S
H877 C840 0.930 . S
H878 C846 0.929 . S
H879 C847 0.930 . S
Li880 N897 1.990 . S
Li880 O940 1.956 . S
Li880 O941 1.970 . S
Li880 O942 1.961 . S
Li881 N905 1.990 . S
Li881 O940 1.970 . S
Li881 O941 1.956 . S
Li881 O943 1.961 1_545 S
Li882 N927 1.990 . S
Li882 O940 1.961 1_565 S
Li882 O942 1.956 1_565 S
Li882 O943 1.970 . S
Li883 N933 1.990 . S
Li883 O941 1.961 1_565 S
Li883 O942 1.970 1_565 S
Li883 O943 1.956 . S
C884 C886 1.348 . S
C884 C887 1.356 . S
C884 O940 1.325 . S
N885 C888 1.314 . S
N885 C889 1.279 . S
C886 C884 1.348 . S
C886 C888 1.353 . S
C886 H944 0.929 . S
C887 C884 1.356 . S
C887 C889 1.358 . S
C887 H945 0.930 . S
C888 N885 1.314 . S
C888 C886 1.353 . S
C888 H946 0.930 . S
C889 N885 1.279 . S
C889 C887 1.358 . S
C889 H947 0.930 . S
C890 C893 1.348 . S
C890 C894 1.356 . S
C890 O941 1.325 . S
C891 N892 1.279 . S
C891 C894 1.358 . S
C891 H948 0.930 . S
N892 C891 1.279 . S
N892 C895 1.314 . S
C893 C890 1.348 . S
C893 C895 1.353 . S
C893 H949 0.929 . S
C894 C890 1.356 . S
C894 C891 1.358 . S
C894 H950 0.930 . S
C895 N892 1.314 . S
C895 C893 1.353 . S
C895 H951 0.930 . S
C896 N897 1.314 . S
C896 C901 1.353 . S
C896 H902 0.930 . S
N897 Li880 1.990 . S
N897 C896 1.314 . S
N897 C899 1.279 . S
C898 C899 1.358 . S
C898 C900 1.356 . S
C898 H952 0.930 . S
C899 N897 1.279 . S
C899 C898 1.358 . S
C899 H903 0.930 . S
C900 C898 1.356 . S
C900 C901 1.348 . S
C901 C896 1.353 . S
C901 C900 1.348 . S
C901 H953 0.929 . S
H902 C896 0.930 . S
H903 C899 0.930 . S
C904 N905 1.314 1_565 S
C904 C906 1.353 . S
C904 H910 0.930 . S
N905 Li881 1.990 . S
N905 C904 1.314 1_545 S
N905 C908 1.279 . S
C906 C904 1.353 . S
C906 C909 1.329 1_565 S
C906 H954 0.929 . S
C907 C908 1.358 . S
C907 C909 1.375 . S
C907 H955 0.930 . S
C908 N905 1.279 . S
C908 C907 1.358 . S
C908 H911 0.930 . S
C909 C906 1.329 1_545 S
C909 C907 1.375 . S
H910 C904 0.930 . S
H911 C908 0.930 . S
C912 C914 1.348 1_545 S
C912 C915 1.356 . S
C912 O942 1.325 . S
N913 C916 1.314 1_545 S
N913 C917 1.279 . S
C914 C912 1.348 1_565 S
C914 C916 1.353 . S
C914 H956 0.929 . S
C915 C912 1.356 . S
C915 C917 1.358 . S
C915 H957 0.930 . S
C916 N913 1.314 1_565 S
C916 C914 1.353 . S
C916 H958 0.930 . S
C917 N913 1.279 . S
C917 C915 1.358 . S
C917 H959 0.930 . S
C918 C919 1.348 . S
C918 C920 1.356 . S
C918 O943 1.325 . S
C919 C918 1.348 . S
C919 C921 1.353 . S
C919 H960 0.929 . S
C920 C918 1.356 . S
C920 C922 1.358 . S
C920 H961 0.930 . S
C921 C919 1.353 . S
C921 N923 1.314 . S
C921 H962 0.930 . S
C922 C920 1.358 . S
C922 N923 1.279 . S
C922 H963 0.930 . S
N923 C921 1.314 . S
N923 C922 1.279 . S
C924 C926 1.353 . S
C924 N927 1.314 . S
C924 H930 0.930 . S
C925 N927 1.279 . S
C925 C928 1.358 . S
C925 H931 0.930 . S
C926 C924 1.353 . S
C926 C929 1.348 . S
C926 H964 0.929 . S
N927 Li882 1.990 . S
N927 C924 1.314 . S
N927 C925 1.279 . S
C928 C925 1.358 . S
C928 C929 1.356 . S
C928 H965 0.930 . S
C929 C926 1.348 . S
C929 C928 1.356 . S
H930 C924 0.930 . S
H931 C925 0.930 . S
C932 N933 1.314 1_545 S
C932 C934 1.353 . S
C932 H938 0.930 . S
N933 Li883 1.990 . S
N933 C932 1.314 1_565 S
N933 C936 1.279 . S
C934 C932 1.353 . S
C934 C937 1.348 1_545 S
C934 H966 0.929 . S
C935 C936 1.358 . S
C935 C937 1.356 . S
C935 H967 0.930 . S
C936 N933 1.279 . S
C936 C935 1.358 . S
C936 H939 0.930 . S
C937 C934 1.348 1_565 S
C937 C935 1.356 . S
H938 C932 0.930 . S
H939 C936 0.930 . S
O940 Li880 1.956 . S
O940 Li881 1.970 . S
O940 Li882 1.961 1_545 S
O940 C884 1.325 . S
O941 Li880 1.970 . S
O941 Li881 1.956 . S
O941 Li883 1.961 1_545 S
O941 C890 1.325 . S
O942 Li880 1.961 . S
O942 Li882 1.956 1_545 S
O942 Li883 1.970 1_545 S
O942 C912 1.325 . S
O943 Li881 1.961 1_565 S
O943 Li882 1.970 . S
O943 Li883 1.956 . S
O943 C918 1.325 . S
H944 C886 0.929 . S
H945 C887 0.930 . S
H946 C888 0.930 . S
H947 C889 0.930 . S
H948 C891 0.930 . S
H949 C893 0.929 . S
H950 C894 0.930 . S
H951 C895 0.930 . S
H952 C898 0.930 . S
H953 C901 0.929 . S
H954 C906 0.929 . S
H955 C907 0.930 . S
H956 C914 0.929 . S
H957 C915 0.930 . S
H958 C916 0.930 . S
H959 C917 0.930 . S
H960 C919 0.929 . S
H961 C920 0.930 . S
H962 C921 0.930 . S
H963 C922 0.930 . S
H964 C926 0.929 . S
H965 C928 0.930 . S
H966 C934 0.929 . S
H967 C935 0.930 . S
Li968 N985 1.990 . S
Li968 O1028 1.956 . S
Li968 O1029 1.970 . S
Li968 O1030 1.961 1_554 S
Li969 N993 1.990 . S
Li969 O1028 1.970 . S
Li969 O1029 1.956 . S
Li969 O1031 1.961 . S
Li970 N1015 1.990 . S
Li970 O1028 1.961 . S
Li970 O1030 1.956 1_554 S
Li970 O1031 1.970 . S
Li971 N1021 1.990 . S
Li971 O1029 1.961 1_556 S
Li971 O1030 1.970 . S
Li971 O1031 1.956 1_556 S
C972 C974 1.348 . S
C972 C975 1.356 . S
C972 O1028 1.325 . S
N973 C976 1.314 . S
N973 C977 1.279 . S
C974 C972 1.348 . S
C974 C976 1.353 . S
C974 H1032 0.929 . S
C975 C972 1.356 . S
C975 C977 1.358 . S
C975 H1033 0.930 . S
C976 N973 1.314 . S
C976 C974 1.353 . S
C976 H1034 0.930 . S
C977 N973 1.279 . S
C977 C975 1.358 . S
C977 H1035 0.930 1_565 S
C978 C981 1.348 . S
C978 C982 1.356 1_554 S
C978 O1029 1.325 . S
C979 N980 1.279 . S
C979 C982 1.358 . S
C979 H1036 0.930 . S
N980 C979 1.279 . S
N980 C983 1.314 1_556 S
C981 C978 1.348 . S
C981 C983 1.353 . S
C981 H1037 0.929 . S
C982 C978 1.356 1_556 S
C982 C979 1.358 . S
C982 H1038 0.930 . S
C983 N980 1.314 1_554 S
C983 C981 1.353 . S
C983 H1039 0.930 . S
C984 N985 1.314 1_556 S
C984 C989 1.353 . S
C984 H990 0.930 . S
N985 Li968 1.990 . S
N985 C984 1.314 1_554 S
N985 C987 1.279 . S
C986 C987 1.358 . S
C986 C988 1.356 . S
C986 H1040 0.930 . S
C987 N985 1.279 . S
C987 C986 1.358 . S
C987 H991 0.930 . S
C988 C986 1.356 . S
C988 C989 1.348 1_554 S
C989 C984 1.353 . S
C989 C988 1.348 1_556 S
C989 H1041 0.929 . S
H990 C984 0.930 . S
H991 C987 0.930 . S
C992 N993 1.314 . S
C992 C994 1.353 . S
C992 H998 0.930 . S
N993 Li969 1.990 . S
N993 C992 1.314 . S
N993 C996 1.279 . S
C994 C992 1.353 . S
C994 C997 1.348 . S
C994 H1042 0.929 . S
C995 C996 1.358 . S
C995 C997 1.356 . S
C995 H1043 0.930 . S
C996 N993 1.279 . S
C996 C995 1.358 . S
C996 H999 0.930 . S
C997 C994 1.348 . S
C997 C995 1.356 . S
H998 C992 0.930 . S
H999 C996 0.930 . S
C1000 C1002 1.348 . S
C1000 C1003 1.356 . S
C1000 O1030 1.325 . S
N1001 C1004 1.314 . S
N1001 C1005 1.279 . S
C1002 C1000 1.348 . S
C1002 C1004 1.353 . S
C1002 H1044 0.929 . S
C1003 C1000 1.356 . S
C1003 C1005 1.358 . S
C1003 H1045 0.930 . S
C1004 N1001 1.314 . S
C1004 C1002 1.353 . S
C1004 H1046 0.930 . S
C1005 N1001 1.279 . S
C1005 C1003 1.358 . S
C1005 H1047 0.930 . S
C1006 C1007 1.348 . S
C1006 C1008 1.356 . S
C1006 O1031 1.325 . S
C1007 C1006 1.348 . S
C1007 C1009 1.353 . S
C1007 H1048 0.939 . S
C1008 C1006 1.356 . S
C1008 C1010 1.358 . S
C1008 H1049 0.930 . S
C1009 C1007 1.353 . S
C1009 N1011 1.314 . S
C1009 H1050 0.928 . S
C1010 C1008 1.358 . S
C1010 N1011 1.279 . S
C1010 H1051 0.930 . S
N1011 C1009 1.314 . S
N1011 C1010 1.279 . S
C1012 C1014 1.353 . S
C1012 N1015 1.314 . S
C1012 H1018 0.930 . S
C1013 N1015 1.281 1_556 S
C1013 C1016 1.358 1_556 S
C1013 H1019 0.929 . S
C1014 C1012 1.353 . S
C1014 C1017 1.348 . S
C1014 H1052 0.929 . S
N1015 Li970 1.990 . S
N1015 C1012 1.314 . S
N1015 C1013 1.281 1_554 S
C1016 C1013 1.358 1_554 S
C1016 C1017 1.356 . S
C1016 H1053 0.930 1_554 S
C1017 C1014 1.348 . S
C1017 C1016 1.356 . S
H1018 C1012 0.930 . S
H1019 C1013 0.929 . S
C1020 N1021 1.314 . S
C1020 C1022 1.353 . S
C1020 H1026 0.930 . S
N1021 Li971 1.990 . S
N1021 C1020 1.314 . S
N1021 C1024 1.279 . S
C1022 C1020 1.353 . S
C1022 C1025 1.348 . S
C1022 H1054 0.929 . S
C1023 C1024 1.358 . S
C1023 C1025 1.356 . S
C1023 H1055 0.930 . S
C1024 N1021 1.279 . S
C1024 C1023 1.358 . S
C1024 H1027 0.930 . S
C1025 C1022 1.348 . S
C1025 C1023 1.356 . S
H1026 C1020 0.930 . S
H1027 C1024 0.930 . S
O1028 Li968 1.956 . S
O1028 Li969 1.970 . S
O1028 Li970 1.961 . S
O1028 C972 1.325 . S
O1029 Li968 1.970 . S
O1029 Li969 1.956 . S
O1029 Li971 1.961 1_554 S
O1029 C978 1.325 . S
O1030 Li968 1.961 1_556 S
O1030 Li970 1.956 1_556 S
O1030 Li971 1.970 . S
O1030 C1000 1.325 . S
O1031 Li969 1.961 . S
O1031 Li970 1.970 . S
O1031 Li971 1.956 1_554 S
O1031 C1006 1.325 . S
H1032 C974 0.929 . S
H1033 C975 0.930 . S
H1034 C976 0.930 . S
H1035 C977 0.930 1_545 S
H1036 C979 0.930 . S
H1037 C981 0.929 . S
H1038 C982 0.930 . S
H1039 C983 0.930 . S
H1040 C986 0.930 . S
H1041 C989 0.929 . S
H1042 C994 0.929 . S
H1043 C995 0.930 . S
H1044 C1002 0.929 . S
H1045 C1003 0.930 . S
H1046 C1004 0.930 . S
H1047 C1005 0.930 . S
H1048 C1007 0.939 . S
H1049 C1008 0.930 . S
H1050 C1009 0.928 . S
H1051 C1010 0.930 . S
H1052 C1014 0.929 . S
H1053 C1016 0.930 1_556 S
H1054 C1022 0.929 . S
H1055 C1023 0.930 . S
Li1056 N1073 1.990 . S
Li1056 O1116 1.956 . S
Li1056 O1117 1.970 . S
Li1056 O1118 1.961 1_554 S
Li1057 N1081 1.990 . S
Li1057 O1116 1.970 . S
Li1057 O1117 1.956 . S
Li1057 O1119 1.961 . S
Li1058 N1103 1.990 . S
Li1058 O1116 1.961 . S
Li1058 O1118 1.956 1_554 S
Li1058 O1119 1.970 . S
Li1059 N1109 1.990 . S
Li1059 O1117 1.961 1_556 S
Li1059 O1118 1.970 . S
Li1059 O1119 1.956 1_556 S
C1060 C1062 1.348 . S
C1060 C1063 1.356 . S
C1060 O1116 1.325 . S
N1061 C1064 1.314 . S
N1061 C1065 1.279 . S
C1062 C1060 1.348 . S
C1062 C1064 1.353 . S
C1062 H1120 0.929 . S
C1063 C1060 1.356 . S
C1063 C1065 1.358 . S
C1063 H1121 0.930 . S
C1064 N1061 1.314 . S
C1064 C1062 1.353 . S
C1064 H1122 0.930 . S
C1065 N1061 1.279 . S
C1065 C1063 1.358 . S
C1065 H1123 0.930 . S
C1066 C1069 1.348 . S
C1066 C1070 1.356 . S
C1066 O1117 1.325 . S
C1067 N1068 1.283 . S
C1067 C1070 1.357 . S
C1067 H1124 0.928 1_554 S
N1068 C1067 1.283 . S
N1068 C1071 1.314 . S
C1069 C1066 1.348 . S
C1069 C1071 1.353 . S
C1069 H1125 0.929 . S
C1070 C1066 1.356 . S
C1070 C1067 1.357 . S
C1070 H1126 0.923 1_554 S
C1071 N1068 1.314 . S
C1071 C1069 1.353 . S
C1071 H1127 0.930 . S
C1072 N1073 1.315 . S
C1072 C1077 1.353 1_554 S
C1072 H1078 0.929 1_554 S
N1073 Li1056 1.990 . S
N1073 C1072 1.315 . S
N1073 C1075 1.279 . S
C1074 C1075 1.358 . S
C1074 C1076 1.356 . S
C1074 H1128 0.930 . S
C1075 N1073 1.279 . S
C1075 C1074 1.358 . S
C1075 H1079 0.930 . S
C1076 C1074 1.356 . S
C1076 C1077 1.348 1_554 S
C1077 C1072 1.353 1_556 S
C1077 C1076 1.348 1_556 S
C1077 H1129 0.929 . S
H1078 C1072 0.929 1_556 S
H1079 C1075 0.930 . S
C1080 N1081 1.314 . S
C1080 C1082 1.353 . S
C1080 H1086 0.930 . S
N1081 Li1057 1.990 . S
N1081 C1080 1.314 . S
N1081 C1084 1.279 . S
C1082 C1080 1.353 . S
C1082 C1085 1.348 . S
C1082 H1130 0.929 . S
C1083 C1084 1.358 . S
C1083 C1085 1.356 . S
C1083 H1131 0.930 . S
C1084 N1081 1.279 . S
C1084 C1083 1.358 . S
C1084 H1087 0.930 . S
C1085 C1082 1.348 . S
C1085 C1083 1.356 . S
H1086 C1080 0.930 . S
H1087 C1084 0.930 . S
C1088 C1090 1.348 . S
C1088 C1091 1.356 . S
C1088 O1118 1.325 . S
N1089 C1092 1.314 . S
N1089 C1093 1.279 . S
C1090 C1088 1.348 . S
C1090 C1092 1.353 . S
C1090 H1132 0.929 . S
C1091 C1088 1.356 . S
C1091 C1093 1.358 . S
C1091 H1133 0.930 . S
C1092 N1089 1.314 . S
C1092 C1090 1.353 . S
C1092 H1134 0.930 . S
C1093 N1089 1.279 . S
C1093 C1091 1.358 . S
C1093 H1135 0.930 . S
C1094 C1095 1.348 . S
C1094 C1096 1.356 . S
C1094 O1119 1.325 . S
C1095 C1094 1.348 . S
C1095 C1097 1.353 . S
C1095 H1136 0.929 . S
C1096 C1094 1.356 . S
C1096 C1098 1.358 . S
C1096 H1137 0.930 . S
C1097 C1095 1.353 . S
C1097 N1099 1.314 . S
C1097 H1138 0.930 . S
C1098 C1096 1.358 . S
C1098 N1099 1.279 . S
C1098 H1139 0.930 . S
N1099 C1097 1.314 . S
N1099 C1098 1.279 . S
C1100 C1102 1.353 . S
C1100 N1103 1.314 . S
C1100 H1106 0.930 . S
C1101 N1103 1.279 . S
C1101 C1104 1.358 . S
C1101 H1107 0.930 1_554 S
C1102 C1100 1.353 . S
C1102 C1105 1.348 . S
C1102 H1140 0.929 . S
N1103 Li1058 1.990 . S
N1103 C1100 1.314 . S
N1103 C1101 1.279 . S
C1104 C1101 1.358 . S
C1104 C1105 1.356 . S
C1104 H1141 0.930 1_554 S
C1105 C1102 1.348 . S
C1105 C1104 1.356 . S
H1106 C1100 0.930 . S
H1107 C1101 0.930 1_556 S
C1108 N1109 1.314 . S
C1108 C1110 1.353 . S
C1108 H1114 0.930 . S
N1109 Li1059 1.990 . S
N1109 C1108 1.314 . S
N1109 C1112 1.279 . S
C1110 C1108 1.353 . S
C1110 C1113 1.348 . S
C1110 H1142 0.929 . S
C1111 C1112 1.358 . S
C1111 C1113 1.356 . S
C1111 H1143 0.930 . S
C1112 N1109 1.279 . S
C1112 C1111 1.358 . S
C1112 H1115 0.930 . S
C1113 C1110 1.348 . S
C1113 C1111 1.356 . S
H1114 C1108 0.930 . S
H1115 C1112 0.930 . S
O1116 Li1056 1.956 . S
O1116 Li1057 1.970 . S
O1116 Li1058 1.961 . S
O1116 C1060 1.325 . S
O1117 Li1056 1.970 . S
O1117 Li1057 1.956 . S
O1117 Li1059 1.961 1_554 S
O1117 C1066 1.325 . S
O1118 Li1056 1.961 1_556 S
O1118 Li1058 1.956 1_556 S
O1118 Li1059 1.970 . S
O1118 C1088 1.325 . S
O1119 Li1057 1.961 . S
O1119 Li1058 1.970 . S
O1119 Li1059 1.956 1_554 S
O1119 C1094 1.325 . S
H1120 C1062 0.929 . S
H1121 C1063 0.930 . S
H1122 C1064 0.930 . S
H1123 C1065 0.930 . S
H1124 C1067 0.928 1_556 S
H1125 C1069 0.929 . S
H1126 C1070 0.923 1_556 S
H1127 C1071 0.930 . S
H1128 C1074 0.930 . S
H1129 C1077 0.929 . S
H1130 C1082 0.929 . S
H1131 C1083 0.930 . S
H1132 C1090 0.929 . S
H1133 C1091 0.930 . S
H1134 C1092 0.930 . S
H1135 C1093 0.930 . S
H1136 C1095 0.929 . S
H1137 C1096 0.930 . S
H1138 C1097 0.930 . S
H1139 C1098 0.930 . S
H1140 C1102 0.929 . S
H1141 C1104 0.930 1_556 S
H1142 C1110 0.929 . S
H1143 C1111 0.930 . S
Li1144 N1161 1.990 . S
Li1144 O1204 1.956 . S
Li1144 O1205 1.970 . S
Li1144 O1206 1.961 . S
Li1145 N1169 1.990 . S
Li1145 O1204 1.970 . S
Li1145 O1205 1.956 . S
Li1145 O1207 1.961 1_554 S
Li1146 N1191 1.990 . S
Li1146 O1204 1.961 1_556 S
Li1146 O1206 1.956 1_556 S
Li1146 O1207 1.970 . S
Li1147 N1197 1.990 . S
Li1147 O1205 1.961 . S
Li1147 O1206 1.970 . S
Li1147 O1207 1.956 1_554 S
C1148 C1150 1.348 . S
C1148 C1151 1.356 . S
C1148 O1204 1.325 . S
N1149 C1152 1.314 . S
N1149 C1153 1.279 . S
C1150 C1148 1.348 . S
C1150 C1152 1.353 . S
C1150 H1208 0.929 . S
C1151 C1148 1.356 . S
C1151 C1153 1.358 . S
C1151 H1209 0.930 . S
C1152 N1149 1.314 . S
C1152 C1150 1.353 . S
C1152 H1210 0.930 . S
C1153 N1149 1.279 . S
C1153 C1151 1.358 . S
C1153 H1211 0.930 . S
C1154 C1157 1.348 . S
C1154 C1158 1.356 . S
C1154 O1205 1.325 . S
C1155 N1156 1.279 . S
C1155 C1158 1.358 . S
C1155 H1212 0.930 . S
N1156 C1155 1.279 . S
N1156 C1159 1.314 . S
C1157 C1154 1.348 . S
C1157 C1159 1.353 . S
C1157 H1213 0.929 . S
C1158 C1154 1.356 . S
C1158 C1155 1.358 . S
C1158 H1214 0.930 . S
C1159 N1156 1.314 . S
C1159 C1157 1.353 . S
C1159 H1215 0.930 . S
C1160 N1161 1.314 . S
C1160 C1165 1.353 . S
C1160 H1166 0.930 . S
N1161 Li1144 1.990 . S
N1161 C1160 1.314 . S
N1161 C1163 1.279 . S
C1162 C1163 1.358 . S
C1162 C1164 1.356 . S
C1162 H1216 0.930 . S
C1163 N1161 1.279 . S
C1163 C1162 1.358 . S
C1163 H1167 0.930 . S
C1164 C1162 1.356 . S
C1164 C1165 1.348 . S
C1165 C1160 1.353 . S
C1165 C1164 1.348 . S
C1165 H1217 0.929 . S
H1166 C1160 0.930 . S
H1167 C1163 0.930 . S
C1168 N1169 1.314 1_556 S
C1168 C1170 1.353 . S
C1168 H1174 0.930 . S
N1169 Li1145 1.990 . S
N1169 C1168 1.314 1_554 S
N1169 C1172 1.279 . S
C1170 C1168 1.353 . S
C1170 C1173 1.348 1_556 S
C1170 H1218 0.929 . S
C1171 C1172 1.358 . S
C1171 C1173 1.356 . S
C1171 H1219 0.930 . S
C1172 N1169 1.279 . S
C1172 C1171 1.358 . S
C1172 H1175 0.930 . S
C1173 C1170 1.348 1_554 S
C1173 C1171 1.356 . S
H1174 C1168 0.930 . S
H1175 C1172 0.930 . S
C1176 C1178 1.348 . S
C1176 C1179 1.356 . S
C1176 O1206 1.325 . S
N1177 C1180 1.314 . S
N1177 C1181 1.279 . S
C1178 C1176 1.348 . S
C1178 C1180 1.353 . S
C1178 H1220 0.929 1_554 S
C1179 C1176 1.356 . S
C1179 C1181 1.358 . S
C1179 H1221 0.930 . S
C1180 N1177 1.314 . S
C1180 C1178 1.353 . S
C1180 H1222 0.933 . S
C1181 N1177 1.279 . S
C1181 C1179 1.358 . S
C1181 H1223 0.930 . S
C1182 C1183 1.348 . S
C1182 C1184 1.356 . S
C1182 O1207 1.325 . S
C1183 C1182 1.348 . S
C1183 C1185 1.353 . S
C1183 H1224 0.929 . S
C1184 C1182 1.356 . S
C1184 C1186 1.358 . S
C1184 H1225 0.930 . S
C1185 C1183 1.353 . S
C1185 N1187 1.314 . S
C1185 H1226 0.930 . S
C1186 C1184 1.358 . S
C1186 N1187 1.279 . S
C1186 H1227 0.930 . S
N1187 C1185 1.314 . S
N1187 C1186 1.279 . S
C1188 C1190 1.353 . S
C1188 N1191 1.314 . S
C1188 H1194 0.930 . S
C1189 N1191 1.279 . S
C1189 C1192 1.358 . S
C1189 H1195 0.930 . S
C1190 C1188 1.353 . S
C1190 C1193 1.348 . S
C1190 H1228 0.929 . S
N1191 Li1146 1.990 . S
N1191 C1188 1.314 . S
N1191 C1189 1.279 . S
C1192 C1189 1.358 . S
C1192 C1193 1.356 . S
C1192 H1229 0.930 . S
C1193 C1190 1.348 . S
C1193 C1192 1.356 . S
H1194 C1188 0.930 . S
H1195 C1189 0.930 . S
C1196 N1197 1.314 . S
C1196 C1198 1.353 . S
C1196 H1202 0.930 . S
N1197 Li1147 1.990 . S
N1197 C1196 1.314 . S
N1197 C1200 1.279 1_554 S
C1198 C1196 1.353 . S
C1198 C1201 1.317 1_554 S
C1198 H1230 0.929 . S
C1199 C1200 1.358 . S
C1199 C1201 1.390 . S
C1199 H1231 0.930 . S
C1200 N1197 1.279 1_556 S
C1200 C1199 1.358 . S
C1200 H1203 0.930 . S
C1201 C1198 1.317 1_556 S
C1201 C1199 1.390 . S
H1202 C1196 0.930 . S
H1203 C1200 0.930 . S
O1204 Li1144 1.956 . S
O1204 Li1145 1.970 . S
O1204 Li1146 1.961 1_554 S
O1204 C1148 1.325 . S
O1205 Li1144 1.970 . S
O1205 Li1145 1.956 . S
O1205 Li1147 1.961 . S
O1205 C1154 1.325 . S
O1206 Li1144 1.961 . S
O1206 Li1146 1.956 1_554 S
O1206 Li1147 1.970 . S
O1206 C1176 1.325 . S
O1207 Li1145 1.961 1_556 S
O1207 Li1146 1.970 . S
O1207 Li1147 1.956 1_556 S
O1207 C1182 1.325 . S
H1208 C1150 0.929 . S
H1209 C1151 0.930 . S
H1210 C1152 0.930 . S
H1211 C1153 0.930 . S
H1212 C1155 0.930 . S
H1213 C1157 0.929 . S
H1214 C1158 0.930 . S
H1215 C1159 0.930 . S
H1216 C1162 0.930 . S
H1217 C1165 0.929 . S
H1218 C1170 0.929 . S
H1219 C1171 0.930 . S
H1220 C1178 0.929 1_556 S
H1221 C1179 0.930 . S
H1222 C1180 0.933 . S
H1223 C1181 0.930 . S
H1224 C1183 0.929 . S
H1225 C1184 0.930 . S
H1226 C1185 0.930 . S
H1227 C1186 0.930 . S
H1228 C1190 0.929 . S
H1229 C1192 0.930 . S
H1230 C1198 0.929 . S
H1231 C1199 0.930 . S
Li1232 N1249 1.990 . S
Li1232 O1292 1.956 . S
Li1232 O1293 1.970 . S
Li1232 O1294 1.961 . S
Li1233 N1257 1.990 . S
Li1233 O1292 1.970 . S
Li1233 O1293 1.956 . S
Li1233 O1295 1.961 . S
Li1234 N1279 1.990 . S
Li1234 O1292 1.961 . S
Li1234 O1294 1.956 . S
Li1234 O1295 1.970 . S
Li1235 N1285 1.990 . S
Li1235 O1293 1.961 . S
Li1235 O1294 1.970 . S
Li1235 O1295 1.956 . S
C1236 C1238 1.348 . S
C1236 C1239 1.356 . S
C1236 O1292 1.325 . S
N1237 C1240 1.314 . S
N1237 C1241 1.279 . S
C1238 C1236 1.348 . S
C1238 C1240 1.353 . S
C1238 H1296 0.929 . S
C1239 C1236 1.356 . S
C1239 C1241 1.358 . S
C1239 H1297 0.930 . S
C1240 N1237 1.314 . S
C1240 C1238 1.353 . S
C1240 H1298 0.930 . S
C1241 N1237 1.279 . S
C1241 C1239 1.358 . S
C1241 H1299 0.930 . S
C1242 C1245 1.348 . S
C1242 C1246 1.356 . S
C1242 O1293 1.325 . S
C1243 N1244 1.279 . S
C1243 C1246 1.358 . S
C1243 H1300 0.930 . S
N1244 C1243 1.279 . S
N1244 C1247 1.314 . S
C1245 C1242 1.348 . S
C1245 C1247 1.353 . S
C1245 H1301 0.929 . S
C1246 C1242 1.356 . S
C1246 C1243 1.358 . S
C1246 H1302 0.930 . S
C1247 N1244 1.314 . S
C1247 C1245 1.353 . S
C1247 H1303 0.930 . S
C1248 N1249 1.314 . S
C1248 C1253 1.353 . S
C1248 H1254 0.930 . S
N1249 Li1232 1.990 . S
N1249 C1248 1.314 . S
N1249 C1251 1.279 . S
C1250 C1251 1.358 . S
C1250 C1252 1.356 . S
C1250 H1304 0.930 . S
C1251 N1249 1.279 . S
C1251 C1250 1.358 . S
C1251 H1255 0.930 . S
C1252 C1250 1.356 . S
C1252 C1253 1.348 . S
C1253 C1248 1.353 . S
C1253 C1252 1.348 . S
C1253 H1305 0.929 . S
H1254 C1248 0.930 . S
H1255 C1251 0.930 . S
C1256 N1257 1.314 . S
C1256 C1258 1.353 . S
C1256 H1262 0.930 . S
N1257 Li1233 1.990 . S
N1257 C1256 1.314 . S
N1257 C1260 1.279 . S
C1258 C1256 1.353 . S
C1258 C1261 1.348 . S
C1258 H1306 0.929 . S
C1259 C1260 1.358 . S
C1259 C1261 1.356 . S
C1259 H1307 0.930 . S
C1260 N1257 1.279 . S
C1260 C1259 1.358 . S
C1260 H1263 0.930 . S
C1261 C1258 1.348 . S
C1261 C1259 1.356 . S
H1262 C1256 0.930 . S
H1263 C1260 0.930 . S
C1264 C1266 1.348 . S
C1264 C1267 1.356 . S
C1264 O1294 1.325 . S
N1265 C1268 1.314 . S
N1265 C1269 1.279 . S
C1266 C1264 1.348 . S
C1266 C1268 1.353 . S
C1266 H1308 0.929 . S
C1267 C1264 1.356 . S
C1267 C1269 1.358 . S
C1267 H1309 0.930 . S
C1268 N1265 1.314 . S
C1268 C1266 1.353 . S
C1268 H1310 0.930 . S
C1269 N1265 1.279 . S
C1269 C1267 1.358 . S
C1269 H1311 0.930 . S
C1270 C1271 1.348 . S
C1270 C1272 1.356 . S
C1270 O1295 1.325 . S
C1271 C1270 1.348 . S
C1271 C1273 1.353 . S
C1271 H1312 0.929 . S
C1272 C1270 1.356 . S
C1272 C1274 1.358 . S
C1272 H1313 0.930 . S
C1273 C1271 1.353 . S
C1273 N1275 1.314 . S
C1273 H1314 0.930 . S
C1274 C1272 1.358 . S
C1274 N1275 1.279 . S
C1274 H1315 0.930 . S
N1275 C1273 1.314 . S
N1275 C1274 1.279 . S
C1276 C1278 1.353 . S
C1276 N1279 1.314 . S
C1276 H1282 0.930 . S
C1277 N1279 1.279 . S
C1277 C1280 1.358 . S
C1277 H1283 0.930 . S
C1278 C1276 1.353 . S
C1278 C1281 1.348 . S
C1278 H1316 0.929 . S
N1279 Li1234 1.990 . S
N1279 C1276 1.314 . S
N1279 C1277 1.279 . S
C1280 C1277 1.358 . S
C1280 C1281 1.356 . S
C1280 H1317 0.930 . S
C1281 C1278 1.348 . S
C1281 C1280 1.356 . S
H1282 C1276 0.930 . S
H1283 C1277 0.930 . S
C1284 N1285 1.314 . S
C1284 C1286 1.353 . S
C1284 H1290 0.930 . S
N1285 Li1235 1.990 . S
N1285 C1284 1.314 . S
N1285 C1288 1.279 . S
C1286 C1284 1.353 . S
C1286 C1289 1.348 . S
C1286 H1318 0.929 . S
C1287 C1288 1.358 . S
C1287 C1289 1.356 . S
C1287 H1319 0.930 . S
C1288 N1285 1.279 . S
C1288 C1287 1.358 . S
C1288 H1291 0.930 . S
C1289 C1286 1.348 . S
C1289 C1287 1.356 . S
H1290 C1284 0.930 . S
H1291 C1288 0.930 . S
O1292 Li1232 1.956 . S
O1292 Li1233 1.970 . S
O1292 Li1234 1.961 . S
O1292 C1236 1.325 . S
O1293 Li1232 1.970 . S
O1293 Li1233 1.956 . S
O1293 Li1235 1.961 . S
O1293 C1242 1.325 . S
O1294 Li1232 1.961 . S
O1294 Li1234 1.956 . S
O1294 Li1235 1.970 . S
O1294 C1264 1.325 . S
O1295 Li1233 1.961 . S
O1295 Li1234 1.970 . S
O1295 Li1235 1.956 . S
O1295 C1270 1.325 . S
H1296 C1238 0.929 . S
H1297 C1239 0.930 . S
H1298 C1240 0.930 . S
H1299 C1241 0.930 . S
H1300 C1243 0.930 . S
H1301 C1245 0.929 . S
H1302 C1246 0.930 . S
H1303 C1247 0.930 . S
H1304 C1250 0.930 . S
H1305 C1253 0.929 . S
H1306 C1258 0.929 . S
H1307 C1259 0.930 . S
H1308 C1266 0.929 . S
H1309 C1267 0.930 . S
H1310 C1268 0.930 . S
H1311 C1269 0.930 . S
H1312 C1271 0.929 . S
H1313 C1272 0.930 . S
H1314 C1273 0.930 . S
H1315 C1274 0.930 . S
H1316 C1278 0.929 . S
H1317 C1280 0.930 . S
H1318 C1286 0.929 . S
H1319 C1287 0.930 . S
Li1320 N1337 1.990 . S
Li1320 O1380 1.956 . S
Li1320 O1381 1.970 . S
Li1320 O1382 1.961 . S
Li1321 N1345 1.990 . S
Li1321 O1380 1.970 . S
Li1321 O1381 1.956 . S
Li1321 O1383 1.961 . S
Li1322 N1367 1.990 . S
Li1322 O1380 1.961 . S
Li1322 O1382 1.956 . S
Li1322 O1383 1.970 . S
Li1323 N1373 1.990 . S
Li1323 O1381 1.961 . S
Li1323 O1382 1.970 . S
Li1323 O1383 1.956 . S
C1324 C1326 1.348 . S
C1324 C1327 1.356 . S
C1324 O1380 1.325 . S
N1325 C1328 1.314 . S
N1325 C1329 1.279 . S
C1326 C1324 1.348 . S
C1326 C1328 1.353 . S
C1326 H1384 0.929 . S
C1327 C1324 1.356 . S
C1327 C1329 1.358 . S
C1327 H1385 0.930 . S
C1328 N1325 1.314 . S
C1328 C1326 1.353 . S
C1328 H1386 0.930 . S
C1329 N1325 1.279 . S
C1329 C1327 1.358 . S
C1329 H1387 0.930 . S
C1330 C1333 1.348 . S
C1330 C1334 1.356 . S
C1330 O1381 1.325 . S
C1331 N1332 1.279 . S
C1331 C1334 1.358 . S
C1331 H1388 0.930 . S
N1332 C1331 1.279 . S
N1332 C1335 1.314 . S
C1333 C1330 1.348 . S
C1333 C1335 1.353 . S
C1333 H1389 0.929 . S
C1334 C1330 1.356 . S
C1334 C1331 1.358 . S
C1334 H1390 0.930 . S
C1335 N1332 1.314 . S
C1335 C1333 1.353 . S
C1335 H1391 0.930 . S
C1336 N1337 1.314 . S
C1336 C1341 1.353 . S
C1336 H1342 0.930 . S
N1337 Li1320 1.990 . S
N1337 C1336 1.314 . S
N1337 C1339 1.279 . S
C1338 C1339 1.358 . S
C1338 C1340 1.356 . S
C1338 H1392 0.930 . S
C1339 N1337 1.279 . S
C1339 C1338 1.358 . S
C1339 H1343 0.930 . S
C1340 C1338 1.356 . S
C1340 C1341 1.348 . S
C1341 C1336 1.353 . S
C1341 C1340 1.348 . S
C1341 H1393 0.929 . S
H1342 C1336 0.930 . S
H1343 C1339 0.930 . S
C1344 N1345 1.314 . S
C1344 C1346 1.353 . S
C1344 H1350 0.930 . S
N1345 Li1321 1.990 . S
N1345 C1344 1.314 . S
N1345 C1348 1.279 . S
C1346 C1344 1.353 . S
C1346 C1349 1.348 . S
C1346 H1394 0.929 . S
C1347 C1348 1.358 . S
C1347 C1349 1.356 . S
C1347 H1395 0.930 . S
C1348 N1345 1.279 . S
C1348 C1347 1.358 . S
C1348 H1351 0.930 . S
C1349 C1346 1.348 . S
C1349 C1347 1.356 . S
H1350 C1344 0.930 . S
H1351 C1348 0.930 . S
C1352 C1354 1.348 . S
C1352 C1355 1.356 . S
C1352 O1382 1.325 . S
N1353 C1356 1.314 . S
N1353 C1357 1.279 . S
C1354 C1352 1.348 . S
C1354 C1356 1.353 . S
C1354 H1396 0.929 . S
C1355 C1352 1.356 . S
C1355 C1357 1.358 . S
C1355 H1397 0.930 . S
C1356 N1353 1.314 . S
C1356 C1354 1.353 . S
C1356 H1398 0.930 . S
C1357 N1353 1.279 . S
C1357 C1355 1.358 . S
C1357 H1399 0.930 . S
C1358 C1359 1.348 . S
C1358 C1360 1.356 . S
C1358 O1383 1.325 . S
C1359 C1358 1.348 . S
C1359 C1361 1.353 . S
C1359 H1400 0.929 . S
C1360 C1358 1.356 . S
C1360 C1362 1.358 . S
C1360 H1401 0.930 . S
C1361 C1359 1.353 . S
C1361 N1363 1.314 . S
C1361 H1402 0.930 . S
C1362 C1360 1.358 . S
C1362 N1363 1.279 . S
C1362 H1403 0.930 . S
N1363 C1361 1.314 . S
N1363 C1362 1.279 . S
C1364 C1366 1.353 . S
C1364 N1367 1.314 . S
C1364 H1370 0.930 . S
C1365 N1367 1.279 . S
C1365 C1368 1.358 . S
C1365 H1371 0.930 . S
C1366 C1364 1.353 . S
C1366 C1369 1.348 . S
C1366 H1404 0.929 . S
N1367 Li1322 1.990 . S
N1367 C1364 1.314 . S
N1367 C1365 1.279 . S
C1368 C1365 1.358 . S
C1368 C1369 1.356 . S
C1368 H1405 0.930 . S
C1369 C1366 1.348 . S
C1369 C1368 1.356 . S
H1370 C1364 0.930 . S
H1371 C1365 0.930 . S
C1372 N1373 1.314 . S
C1372 C1374 1.353 . S
C1372 H1378 0.930 . S
N1373 Li1323 1.990 . S
N1373 C1372 1.314 . S
N1373 C1376 1.279 . S
C1374 C1372 1.353 . S
C1374 C1377 1.348 . S
C1374 H1406 0.929 . S
C1375 C1376 1.358 . S
C1375 C1377 1.356 . S
C1375 H1407 0.930 . S
C1376 N1373 1.279 . S
C1376 C1375 1.358 . S
C1376 H1379 0.930 . S
C1377 C1374 1.348 . S
C1377 C1375 1.356 . S
H1378 C1372 0.930 . S
H1379 C1376 0.930 . S
O1380 Li1320 1.956 . S
O1380 Li1321 1.970 . S
O1380 Li1322 1.961 . S
O1380 C1324 1.325 . S
O1381 Li1320 1.970 . S
O1381 Li1321 1.956 . S
O1381 Li1323 1.961 . S
O1381 C1330 1.325 . S
O1382 Li1320 1.961 . S
O1382 Li1322 1.956 . S
O1382 Li1323 1.970 . S
O1382 C1352 1.325 . S
O1383 Li1321 1.961 . S
O1383 Li1322 1.970 . S
O1383 Li1323 1.956 . S
O1383 C1358 1.325 . S
H1384 C1326 0.929 . S
H1385 C1327 0.930 . S
H1386 C1328 0.930 . S
H1387 C1329 0.930 . S
H1388 C1331 0.930 . S
H1389 C1333 0.929 . S
H1390 C1334 0.930 . S
H1391 C1335 0.930 . S
H1392 C1338 0.930 . S
H1393 C1341 0.929 . S
H1394 C1346 0.929 . S
H1395 C1347 0.930 . S
H1396 C1354 0.929 . S
H1397 C1355 0.930 . S
H1398 C1356 0.930 . S
H1399 C1357 0.930 . S
H1400 C1359 0.929 . S
H1401 C1360 0.930 . S
H1402 C1361 0.930 . S
H1403 C1362 0.930 . S
H1404 C1366 0.929 . S
H1405 C1368 0.930 . S
H1406 C1374 0.929 . S
H1407 C1375 0.930 . S
Li1408 N1425 1.990 . S
Li1408 O1468 1.956 . S
Li1408 O1469 1.970 . S
Li1408 O1470 1.961 . S
Li1409 N1433 1.990 . S
Li1409 O1468 1.970 . S
Li1409 O1469 1.956 . S
Li1409 O1471 1.961 . S
Li1410 N1455 1.990 . S
Li1410 O1468 1.961 . S
Li1410 O1470 1.956 . S
Li1410 O1471 1.970 . S
Li1411 N1461 1.990 . S
Li1411 O1469 1.961 . S
Li1411 O1470 1.970 . S
Li1411 O1471 1.956 . S
C1412 C1414 1.348 . S
C1412 C1415 1.356 . S
C1412 O1468 1.325 . S
N1413 C1416 1.314 . S
N1413 C1417 1.279 1_565 S
C1414 C1412 1.348 . S
C1414 C1416 1.353 1_545 S
C1414 H1472 0.929 . S
C1415 C1412 1.356 . S
C1415 C1417 1.358 . S
C1415 H1473 0.930 . S
C1416 N1413 1.314 . S
C1416 C1414 1.353 1_565 S
C1416 H1474 0.930 . S
C1417 N1413 1.279 1_545 S
C1417 C1415 1.358 . S
C1417 H1475 0.930 1_655 S
C1418 C1421 1.348 . S
C1418 C1422 1.356 . S
C1418 O1469 1.325 . S
C1419 N1420 1.279 . S
C1419 C1422 1.358 . S
C1419 H1476 0.930 . S
N1420 C1419 1.279 . S
N1420 C1423 1.314 . S
C1421 C1418 1.348 . S
C1421 C1423 1.353 . S
C1421 H1477 0.929 . S
C1422 C1418 1.356 . S
C1422 C1419 1.358 . S
C1422 H1478 0.930 . S
C1423 N1420 1.314 . S
C1423 C1421 1.353 . S
C1423 H1479 0.930 . S
C1424 N1425 1.314 . S
C1424 C1429 1.353 . S
C1424 H1430 0.930 . S
N1425 Li1408 1.990 . S
N1425 C1424 1.314 . S
N1425 C1427 1.279 . S
C1426 C1427 1.358 . S
C1426 C1428 1.356 . S
C1426 H1480 0.930 . S
C1427 N1425 1.279 . S
C1427 C1426 1.358 . S
C1427 H1431 0.930 . S
C1428 C1426 1.356 . S
C1428 C1429 1.348 . S
C1429 C1424 1.353 . S
C1429 C1428 1.348 . S
C1429 H1481 0.929 . S
H1430 C1424 0.930 . S
H1431 C1427 0.930 . S
C1432 N1433 1.314 1_565 S
C1432 C1434 1.353 . S
C1432 H1438 0.941 . S
N1433 Li1409 1.990 . S
N1433 C1432 1.314 1_545 S
N1433 C1436 1.279 . S
C1434 C1432 1.353 . S
C1434 C1437 1.348 . S
C1434 H1482 0.929 . S
C1435 C1436 1.358 1_565 S
C1435 C1437 1.356 . S
C1435 H1483 0.930 . S
C1436 N1433 1.279 . S
C1436 C1435 1.358 1_545 S
C1436 H1439 0.930 . S
C1437 C1434 1.348 . S
C1437 C1435 1.356 . S
H1438 C1432 0.941 . S
H1439 C1436 0.930 . S
C1440 C1442 1.348 . S
C1440 C1443 1.356 . S
C1440 O1470 1.325 . S
N1441 C1444 1.314 . S
N1441 C1445 1.277 1_655 S
C1442 C1440 1.348 . S
C1442 C1444 1.353 . S
C1442 H1484 0.929 . S
C1443 C1440 1.356 . S
C1443 C1445 1.357 1_655 S
C1443 H1485 0.930 . S
C1444 N1441 1.314 . S
C1444 C1442 1.353 . S
C1444 H1486 0.930 . S
C1445 N1441 1.277 1_455 S
C1445 C1443 1.357 1_455 S
C1445 H1487 0.934 . S
C1446 C1447 1.348 . S
C1446 C1448 1.356 . S
C1446 O1471 1.325 . S
C1447 C1446 1.348 . S
C1447 C1449 1.353 . S
C1447 H1488 0.929 . S
C1448 C1446 1.356 . S
C1448 C1450 1.358 . S
C1448 H1489 0.930 . S
C1449 C1447 1.353 . S
C1449 N1451 1.314 . S
C1449 H1490 0.930 . S
C1450 C1448 1.358 . S
C1450 N1451 1.279 . S
C1450 H1491 0.930 . S
N1451 C1449 1.314 . S
N1451 C1450 1.279 . S
C1452 C1454 1.353 . S
C1452 N1455 1.314 . S
C1452 H1458 0.930 . S
C1453 N1455 1.279 . S
C1453 C1456 1.358 . S
C1453 H1459 0.930 . S
C1454 C1452 1.353 . S
C1454 C1457 1.348 . S
C1454 H1492 0.929 . S
N1455 Li1410 1.990 . S
N1455 C1452 1.314 . S
N1455 C1453 1.279 . S
C1456 C1453 1.358 . S
C1456 C1457 1.356 . S
C1456 H1493 0.930 . S
C1457 C1454 1.348 . S
C1457 C1456 1.356 . S
H1458 C1452 0.930 . S
H1459 C1453 0.930 . S
C1460 N1461 1.314 . S
C1460 C1462 1.353 . S
C1460 H1466 0.930 . S
N1461 Li1411 1.990 . S
N1461 C1460 1.314 . S
N1461 C1464 1.279 . S
C1462 C1460 1.353 . S
C1462 C1465 1.348 . S
C1462 H1494 0.929 . S
C1463 C1464 1.358 . S
C1463 C1465 1.356 . S
C1463 H1495 0.930 . S
C1464 N1461 1.279 . S
C1464 C1463 1.358 . S
C1464 H1467 0.930 . S
C1465 C1462 1.348 . S
C1465 C1463 1.356 . S
H1466 C1460 0.930 . S
H1467 C1464 0.930 . S
O1468 Li1408 1.956 . S
O1468 Li1409 1.970 . S
O1468 Li1410 1.961 . S
O1468 C1412 1.325 . S
O1469 Li1408 1.970 . S
O1469 Li1409 1.956 . S
O1469 Li1411 1.961 . S
O1469 C1418 1.325 . S
O1470 Li1408 1.961 . S
O1470 Li1410 1.956 . S
O1470 Li1411 1.970 . S
O1470 C1440 1.325 . S
O1471 Li1409 1.961 . S
O1471 Li1410 1.970 . S
O1471 Li1411 1.956 . S
O1471 C1446 1.325 . S
H1472 C1414 0.929 . S
H1473 C1415 0.930 . S
H1474 C1416 0.930 . S
H1475 C1417 0.930 1_455 S
H1476 C1419 0.930 . S
H1477 C1421 0.929 . S
H1478 C1422 0.930 . S
H1479 C1423 0.930 . S
H1480 C1426 0.930 . S
H1481 C1429 0.929 . S
H1482 C1434 0.929 . S
H1483 C1435 0.930 . S
H1484 C1442 0.929 . S
H1485 C1443 0.930 . S
H1486 C1444 0.930 . S
H1487 C1445 0.934 . S
H1488 C1447 0.929 . S
H1489 C1448 0.930 . S
H1490 C1449 0.930 . S
H1491 C1450 0.930 . S
H1492 C1454 0.929 . S
H1493 C1456 0.930 . S
H1494 C1462 0.929 . S
H1495 C1463 0.930 . S
Li1496 N1513 1.990 . S
Li1496 O1556 1.956 . S
Li1496 O1557 1.970 . S
Li1496 O1558 1.961 . S
Li1497 N1521 1.990 . S
Li1497 O1556 1.970 . S
Li1497 O1557 1.956 . S
Li1497 O1559 1.961 . S
Li1498 N1543 1.990 . S
Li1498 O1556 1.961 . S
Li1498 O1558 1.956 . S
Li1498 O1559 1.970 . S
Li1499 N1549 1.990 . S
Li1499 O1557 1.961 . S
Li1499 O1558 1.970 . S
Li1499 O1559 1.956 . S
C1500 C1502 1.348 . S
C1500 C1503 1.356 . S
C1500 O1556 1.325 . S
N1501 C1504 1.314 . S
N1501 C1505 1.279 . S
C1502 C1500 1.348 . S
C1502 C1504 1.353 . S
C1502 H1560 0.929 . S
C1503 C1500 1.356 . S
C1503 C1505 1.358 . S
C1503 H1561 0.930 . S
C1504 N1501 1.314 . S
C1504 C1502 1.353 . S
C1504 H1562 0.930 . S
C1505 N1501 1.279 . S
C1505 C1503 1.358 . S
C1505 H1563 0.930 . S
C1506 C1509 1.348 . S
C1506 C1510 1.356 . S
C1506 O1557 1.325 . S
C1507 N1508 1.279 . S
C1507 C1510 1.358 . S
C1507 H1564 0.930 . S
N1508 C1507 1.279 . S
N1508 C1511 1.314 . S
C1509 C1506 1.348 . S
C1509 C1511 1.353 . S
C1509 H1565 0.929 . S
C1510 C1506 1.356 . S
C1510 C1507 1.358 . S
C1510 H1566 0.930 . S
C1511 N1508 1.314 . S
C1511 C1509 1.353 . S
C1511 H1567 0.930 . S
C1512 N1513 1.314 . S
C1512 C1517 1.353 . S
C1512 H1518 0.930 . S
N1513 Li1496 1.990 . S
N1513 C1512 1.314 . S
N1513 C1515 1.279 . S
C1514 C1515 1.358 . S
C1514 C1516 1.356 . S
C1514 H1568 0.930 . S
C1515 N1513 1.279 . S
C1515 C1514 1.358 . S
C1515 H1519 0.930 . S
C1516 C1514 1.356 . S
C1516 C1517 1.348 . S
C1517 C1512 1.353 . S
C1517 C1516 1.348 . S
C1517 H1569 0.929 . S
H1518 C1512 0.930 . S
H1519 C1515 0.930 . S
C1520 N1521 1.314 . S
C1520 C1522 1.353 . S
C1520 H1526 0.930 . S
N1521 Li1497 1.990 . S
N1521 C1520 1.314 . S
N1521 C1524 1.279 . S
C1522 C1520 1.353 . S
C1522 C1525 1.348 . S
C1522 H1570 0.929 . S
C1523 C1524 1.358 . S
C1523 C1525 1.356 . S
C1523 H1571 0.930 . S
C1524 N1521 1.279 . S
C1524 C1523 1.358 . S
C1524 H1527 0.930 . S
C1525 C1522 1.348 . S
C1525 C1523 1.356 . S
H1526 C1520 0.930 . S
H1527 C1524 0.930 . S
C1528 C1530 1.348 . S
C1528 C1531 1.356 . S
C1528 O1558 1.325 . S
N1529 C1532 1.314 . S
N1529 C1533 1.279 . S
C1530 C1528 1.348 . S
C1530 C1532 1.353 . S
C1530 H1572 0.929 . S
C1531 C1528 1.356 . S
C1531 C1533 1.358 . S
C1531 H1573 0.930 . S
C1532 N1529 1.314 . S
C1532 C1530 1.353 . S
C1532 H1574 0.930 . S
C1533 N1529 1.279 . S
C1533 C1531 1.358 . S
C1533 H1575 0.930 . S
C1534 C1535 1.348 . S
C1534 C1536 1.356 . S
C1534 O1559 1.325 . S
C1535 C1534 1.348 . S
C1535 C1537 1.353 . S
C1535 H1576 0.929 . S
C1536 C1534 1.356 . S
C1536 C1538 1.358 . S
C1536 H1577 0.930 . S
C1537 C1535 1.353 . S
C1537 N1539 1.314 . S
C1537 H1578 0.930 . S
C1538 C1536 1.358 . S
C1538 N1539 1.279 . S
C1538 H1579 0.930 . S
N1539 C1537 1.314 . S
N1539 C1538 1.279 . S
C1540 C1542 1.353 . S
C1540 N1543 1.314 . S
C1540 H1546 0.930 . S
C1541 N1543 1.279 . S
C1541 C1544 1.358 . S
C1541 H1547 0.930 . S
C1542 C1540 1.353 . S
C1542 C1545 1.348 . S
C1542 H1580 0.929 . S
N1543 Li1498 1.990 . S
N1543 C1540 1.314 . S
N1543 C1541 1.279 . S
C1544 C1541 1.358 . S
C1544 C1545 1.356 . S
C1544 H1581 0.930 . S
C1545 C1542 1.348 . S
C1545 C1544 1.356 . S
H1546 C1540 0.930 . S
H1547 C1541 0.930 . S
C1548 N1549 1.314 . S
C1548 C1550 1.353 . S
C1548 H1554 0.930 . S
N1549 Li1499 1.990 . S
N1549 C1548 1.314 . S
N1549 C1552 1.279 . S
C1550 C1548 1.353 . S
C1550 C1553 1.348 . S
C1550 H1582 0.929 . S
C1551 C1552 1.358 . S
C1551 C1553 1.356 . S
C1551 H1583 0.930 . S
C1552 N1549 1.279 . S
C1552 C1551 1.358 . S
C1552 H1555 0.930 . S
C1553 C1550 1.348 . S
C1553 C1551 1.356 . S
H1554 C1548 0.930 . S
H1555 C1552 0.930 . S
O1556 Li1496 1.956 . S
O1556 Li1497 1.970 . S
O1556 Li1498 1.961 . S
O1556 C1500 1.325 . S
O1557 Li1496 1.970 . S
O1557 Li1497 1.956 . S
O1557 Li1499 1.961 . S
O1557 C1506 1.325 . S
O1558 Li1496 1.961 . S
O1558 Li1498 1.956 . S
O1558 Li1499 1.970 . S
O1558 C1528 1.325 . S
O1559 Li1497 1.961 . S
O1559 Li1498 1.970 . S
O1559 Li1499 1.956 . S
O1559 C1534 1.325 . S
H1560 C1502 0.929 . S
H1561 C1503 0.930 . S
H1562 C1504 0.930 . S
H1563 C1505 0.930 . S
H1564 C1507 0.930 . S
H1565 C1509 0.929 . S
H1566 C1510 0.930 . S
H1567 C1511 0.930 . S
H1568 C1514 0.930 . S
H1569 C1517 0.929 . S
H1570 C1522 0.929 . S
H1571 C1523 0.930 . S
H1572 C1530 0.929 . S
H1573 C1531 0.930 . S
H1574 C1532 0.930 . S
H1575 C1533 0.930 . S
H1576 C1535 0.929 . S
H1577 C1536 0.930 . S
H1578 C1537 0.930 . S
H1579 C1538 0.930 . S
H1580 C1542 0.929 . S
H1581 C1544 0.930 . S
H1582 C1550 0.929 . S
H1583 C1551 0.930 . S
Li1584 N1601 1.990 . S
Li1584 O1644 1.956 . S
Li1584 O1645 1.970 . S
Li1584 O1646 1.961 . S
Li1585 N1609 1.990 . S
Li1585 O1644 1.970 . S
Li1585 O1645 1.956 . S
Li1585 O1647 1.961 . S
Li1586 N1631 1.990 . S
Li1586 O1644 1.961 . S
Li1586 O1646 1.956 . S
Li1586 O1647 1.970 . S
Li1587 N1637 1.990 . S
Li1587 O1645 1.961 . S
Li1587 O1646 1.970 . S
Li1587 O1647 1.956 . S
C1588 C1590 1.348 . S
C1588 C1591 1.356 . S
C1588 O1644 1.325 . S
N1589 C1592 1.314 . S
N1589 C1593 1.279 . S
C1590 C1588 1.348 . S
C1590 C1592 1.353 . S
C1590 H1648 0.929 . S
C1591 C1588 1.356 . S
C1591 C1593 1.358 . S
C1591 H1649 0.930 . S
C1592 N1589 1.314 . S
C1592 C1590 1.353 . S
C1592 H1650 0.930 . S
C1593 N1589 1.279 . S
C1593 C1591 1.358 . S
C1593 H1651 0.930 . S
C1594 C1597 1.348 . S
C1594 C1598 1.356 . S
C1594 O1645 1.325 . S
C1595 N1596 1.279 . S
C1595 C1598 1.358 . S
C1595 H1652 0.930 . S
N1596 C1595 1.279 . S
N1596 C1599 1.314 . S
C1597 C1594 1.348 . S
C1597 C1599 1.353 . S
C1597 H1653 0.929 . S
C1598 C1594 1.356 . S
C1598 C1595 1.358 . S
C1598 H1654 0.930 . S
C1599 N1596 1.314 . S
C1599 C1597 1.353 . S
C1599 H1655 0.930 . S
C1600 N1601 1.314 . S
C1600 C1605 1.353 . S
C1600 H1606 0.930 . S
N1601 Li1584 1.990 . S
N1601 C1600 1.314 . S
N1601 C1603 1.279 . S
C1602 C1603 1.358 . S
C1602 C1604 1.356 . S
C1602 H1656 0.930 . S
C1603 N1601 1.279 . S
C1603 C1602 1.358 . S
C1603 H1607 0.930 . S
C1604 C1602 1.356 . S
C1604 C1605 1.348 . S
C1605 C1600 1.353 . S
C1605 C1604 1.348 . S
C1605 H1657 0.929 . S
H1606 C1600 0.930 . S
H1607 C1603 0.930 . S
C1608 N1609 1.314 . S
C1608 C1610 1.353 . S
C1608 H1614 0.930 . S
N1609 Li1585 1.990 . S
N1609 C1608 1.314 . S
N1609 C1612 1.279 . S
C1610 C1608 1.353 . S
C1610 C1613 1.348 . S
C1610 H1658 0.929 . S
C1611 C1612 1.358 . S
C1611 C1613 1.356 . S
C1611 H1659 0.930 . S
C1612 N1609 1.279 . S
C1612 C1611 1.358 . S
C1612 H1615 0.930 . S
C1613 C1610 1.348 . S
C1613 C1611 1.356 . S
H1614 C1608 0.930 . S
H1615 C1612 0.930 . S
C1616 C1618 1.348 . S
C1616 C1619 1.356 . S
C1616 O1646 1.325 . S
N1617 C1620 1.314 . S
N1617 C1621 1.279 . S
C1618 C1616 1.348 . S
C1618 C1620 1.353 . S
C1618 H1660 0.929 . S
C1619 C1616 1.356 . S
C1619 C1621 1.358 . S
C1619 H1661 0.930 . S
C1620 N1617 1.314 . S
C1620 C1618 1.353 . S
C1620 H1662 0.930 . S
C1621 N1617 1.279 . S
C1621 C1619 1.358 . S
C1621 H1663 0.930 . S
C1622 C1623 1.348 . S
C1622 C1624 1.356 . S
C1622 O1647 1.325 . S
C1623 C1622 1.348 . S
C1623 C1625 1.353 . S
C1623 H1664 0.929 . S
C1624 C1622 1.356 . S
C1624 C1626 1.358 . S
C1624 H1665 0.930 . S
C1625 C1623 1.353 . S
C1625 N1627 1.314 . S
C1625 H1666 0.930 . S
C1626 C1624 1.358 . S
C1626 N1627 1.279 . S
C1626 H1667 0.930 . S
N1627 C1625 1.314 . S
N1627 C1626 1.279 . S
C1628 C1630 1.353 . S
C1628 N1631 1.314 . S
C1628 H1634 0.930 . S
C1629 N1631 1.279 . S
C1629 C1632 1.358 . S
C1629 H1635 0.930 . S
C1630 C1628 1.353 . S
C1630 C1633 1.348 . S
C1630 H1668 0.929 . S
N1631 Li1586 1.990 . S
N1631 C1628 1.314 . S
N1631 C1629 1.279 . S
C1632 C1629 1.358 . S
C1632 C1633 1.356 . S
C1632 H1669 0.930 . S
C1633 C1630 1.348 . S
C1633 C1632 1.356 . S
H1634 C1628 0.930 . S
H1635 C1629 0.930 . S
C1636 N1637 1.314 . S
C1636 C1638 1.353 . S
C1636 H1642 0.930 . S
N1637 Li1587 1.990 . S
N1637 C1636 1.314 . S
N1637 C1640 1.279 . S
C1638 C1636 1.353 . S
C1638 C1641 1.348 . S
C1638 H1670 0.929 . S
C1639 C1640 1.358 . S
C1639 C1641 1.356 . S
C1639 H1671 0.930 . S
C1640 N1637 1.279 . S
C1640 C1639 1.358 . S
C1640 H1643 0.930 . S
C1641 C1638 1.348 . S
C1641 C1639 1.356 . S
H1642 C1636 0.930 . S
H1643 C1640 0.930 . S
O1644 Li1584 1.956 . S
O1644 Li1585 1.970 . S
O1644 Li1586 1.961 . S
O1644 C1588 1.325 . S
O1645 Li1584 1.970 . S
O1645 Li1585 1.956 . S
O1645 Li1587 1.961 . S
O1645 C1594 1.325 . S
O1646 Li1584 1.961 . S
O1646 Li1586 1.956 . S
O1646 Li1587 1.970 . S
O1646 C1616 1.325 . S
O1647 Li1585 1.961 . S
O1647 Li1586 1.970 . S
O1647 Li1587 1.956 . S
O1647 C1622 1.325 . S
H1648 C1590 0.929 . S
H1649 C1591 0.930 . S
H1650 C1592 0.930 . S
H1651 C1593 0.930 . S
H1652 C1595 0.930 . S
H1653 C1597 0.929 . S
H1654 C1598 0.930 . S
H1655 C1599 0.930 . S
H1656 C1602 0.930 . S
H1657 C1605 0.929 . S
H1658 C1610 0.929 . S
H1659 C1611 0.930 . S
H1660 C1618 0.929 . S
H1661 C1619 0.930 . S
H1662 C1620 0.930 . S
H1663 C1621 0.930 . S
H1664 C1623 0.929 . S
H1665 C1624 0.930 . S
H1666 C1625 0.930 . S
H1667 C1626 0.930 . S
H1668 C1630 0.929 . S
H1669 C1632 0.930 . S
H1670 C1638 0.929 . S
H1671 C1639 0.930 . S
Li1672 N1689 1.990 . S
Li1672 O1732 1.956 . S
Li1672 O1733 1.970 . S
Li1672 O1734 1.961 . S
Li1673 N1697 1.990 . S
Li1673 O1732 1.970 . S
Li1673 O1733 1.956 . S
Li1673 O1735 1.961 . S
Li1674 N1719 1.990 . S
Li1674 O1732 1.961 . S
Li1674 O1734 1.956 . S
Li1674 O1735 1.970 . S
Li1675 N1725 1.990 . S
Li1675 O1733 1.961 . S
Li1675 O1734 1.970 . S
Li1675 O1735 1.956 . S
C1676 C1678 1.348 . S
C1676 C1679 1.356 . S
C1676 O1732 1.325 . S
N1677 C1680 1.314 . S
N1677 C1681 1.279 . S
C1678 C1676 1.348 . S
C1678 C1680 1.353 . S
C1678 H1736 0.929 . S
C1679 C1676 1.356 . S
C1679 C1681 1.358 . S
C1679 H1737 0.930 . S
C1680 N1677 1.314 . S
C1680 C1678 1.353 . S
C1680 H1738 0.930 . S
C1681 N1677 1.279 . S
C1681 C1679 1.358 . S
C1681 H1739 0.930 . S
C1682 C1685 1.348 . S
C1682 C1686 1.356 . S
C1682 O1733 1.325 . S
C1683 N1684 1.279 . S
C1683 C1686 1.358 . S
C1683 H1740 0.930 . S
N1684 C1683 1.279 . S
N1684 C1687 1.314 . S
C1685 C1682 1.348 . S
C1685 C1687 1.353 . S
C1685 H1741 0.929 . S
C1686 C1682 1.356 . S
C1686 C1683 1.358 . S
C1686 H1742 0.930 . S
C1687 N1684 1.314 . S
C1687 C1685 1.353 . S
C1687 H1743 0.930 . S
C1688 N1689 1.314 . S
C1688 C1693 1.353 . S
C1688 H1694 0.930 . S
N1689 Li1672 1.990 . S
N1689 C1688 1.314 . S
N1689 C1691 1.279 . S
C1690 C1691 1.358 . S
C1690 C1692 1.356 . S
C1690 H1744 0.930 . S
C1691 N1689 1.279 . S
C1691 C1690 1.358 . S
C1691 H1695 0.930 . S
C1692 C1690 1.356 . S
C1692 C1693 1.348 . S
C1693 C1688 1.353 . S
C1693 C1692 1.348 . S
C1693 H1745 0.929 . S
H1694 C1688 0.930 . S
H1695 C1691 0.930 . S
C1696 N1697 1.314 . S
C1696 C1698 1.353 . S
C1696 H1702 0.930 . S
N1697 Li1673 1.990 . S
N1697 C1696 1.314 . S
N1697 C1700 1.279 . S
C1698 C1696 1.353 . S
C1698 C1701 1.348 . S
C1698 H1746 0.929 . S
C1699 C1700 1.358 . S
C1699 C1701 1.356 . S
C1699 H1747 0.930 . S
C1700 N1697 1.279 . S
C1700 C1699 1.358 . S
C1700 H1703 0.930 . S
C1701 C1698 1.348 . S
C1701 C1699 1.356 . S
H1702 C1696 0.930 . S
H1703 C1700 0.930 . S
C1704 C1706 1.348 1_545 S
C1704 C1707 1.356 . S
C1704 O1734 1.325 . S
N1705 C1708 1.314 . S
N1705 C1709 1.279 . S
C1706 C1704 1.348 1_565 S
C1706 C1708 1.353 . S
C1706 H1748 0.929 . S
C1707 C1704 1.356 . S
C1707 C1709 1.358 1_545 S
C1707 H1749 0.930 . S
C1708 N1705 1.314 . S
C1708 C1706 1.353 . S
C1708 H1750 0.930 . S
C1709 N1705 1.279 . S
C1709 C1707 1.358 1_565 S
C1709 H1751 0.930 . S
C1710 C1711 1.348 . S
C1710 C1712 1.356 . S
C1710 O1735 1.325 . S
C1711 C1710 1.348 . S
C1711 C1713 1.353 . S
C1711 H1752 0.929 . S
C1712 C1710 1.356 . S
C1712 C1714 1.358 . S
C1712 H1753 0.930 . S
C1713 C1711 1.353 . S
C1713 N1715 1.314 . S
C1713 H1754 0.930 . S
C1714 C1712 1.358 . S
C1714 N1715 1.279 . S
C1714 H1755 0.930 . S
N1715 C1713 1.314 . S
N1715 C1714 1.279 . S
C1716 C1718 1.353 . S
C1716 N1719 1.314 . S
C1716 H1722 0.930 . S
C1717 N1719 1.279 . S
C1717 C1720 1.358 . S
C1717 H1723 0.930 . S
C1718 C1716 1.353 . S
C1718 C1721 1.348 . S
C1718 H1756 0.929 . S
N1719 Li1674 1.990 . S
N1719 C1716 1.314 . S
N1719 C1717 1.279 . S
C1720 C1717 1.358 . S
C1720 C1721 1.356 . S
C1720 H1757 0.930 . S
C1721 C1718 1.348 . S
C1721 C1720 1.356 . S
H1722 C1716 0.930 . S
H1723 C1717 0.930 . S
C1724 N1725 1.314 . S
C1724 C1726 1.353 1_545 S
C1724 H1730 0.930 . S
N1725 Li1675 1.990 . S
N1725 C1724 1.314 . S
N1725 C1728 1.279 . S
C1726 C1724 1.353 1_565 S
C1726 C1729 1.348 . S
C1726 H1758 0.929 . S
C1727 C1728 1.358 1_565 S
C1727 C1729 1.356 . S
C1727 H1759 0.930 . S
C1728 N1725 1.279 . S
C1728 C1727 1.358 1_545 S
C1728 H1731 0.930 . S
C1729 C1726 1.348 . S
C1729 C1727 1.356 . S
H1730 C1724 0.930 . S
H1731 C1728 0.930 . S
O1732 Li1672 1.956 . S
O1732 Li1673 1.970 . S
O1732 Li1674 1.961 . S
O1732 C1676 1.325 . S
O1733 Li1672 1.970 . S
O1733 Li1673 1.956 . S
O1733 Li1675 1.961 . S
O1733 C1682 1.325 . S
O1734 Li1672 1.961 . S
O1734 Li1674 1.956 . S
O1734 Li1675 1.970 . S
O1734 C1704 1.325 . S
O1735 Li1673 1.961 . S
O1735 Li1674 1.970 . S
O1735 Li1675 1.956 . S
O1735 C1710 1.325 . S
H1736 C1678 0.929 . S
H1737 C1679 0.930 . S
H1738 C1680 0.930 . S
H1739 C1681 0.930 . S
H1740 C1683 0.930 . S
H1741 C1685 0.929 . S
H1742 C1686 0.930 . S
H1743 C1687 0.930 . S
H1744 C1690 0.930 . S
H1745 C1693 0.929 . S
H1746 C1698 0.929 . S
H1747 C1699 0.930 . S
H1748 C1706 0.929 . S
H1749 C1707 0.930 . S
H1750 C1708 0.930 . S
H1751 C1709 0.930 . S
H1752 C1711 0.929 . S
H1753 C1712 0.930 . S
H1754 C1713 0.930 . S
H1755 C1714 0.930 . S
H1756 C1718 0.929 . S
H1757 C1720 0.930 . S
H1758 C1726 0.929 . S
H1759 C1727 0.930 . S
Li1760 N1777 1.990 . S
Li1760 O1820 1.956 . S
Li1760 O1821 1.970 . S
Li1760 O1822 1.961 . S
Li1761 N1785 1.990 . S
Li1761 O1820 1.970 . S
Li1761 O1821 1.956 . S
Li1761 O1823 1.961 1_554 S
Li1762 N1807 1.990 . S
Li1762 O1820 1.961 1_556 S
Li1762 O1822 1.956 1_556 S
Li1762 O1823 1.970 . S
Li1763 N1813 1.990 1_554 S
Li1763 O1821 1.961 . S
Li1763 O1822 1.970 . S
Li1763 O1823 1.956 1_554 S
C1764 C1766 1.348 . S
C1764 C1767 1.356 . S
C1764 O1820 1.325 . S
N1765 C1768 1.314 . S
N1765 C1769 1.279 . S
C1766 C1764 1.348 . S
C1766 C1768 1.353 . S
C1766 H1824 0.929 . S
C1767 C1764 1.356 . S
C1767 C1769 1.358 . S
C1767 H1825 0.930 . S
C1768 N1765 1.314 . S
C1768 C1766 1.353 . S
C1768 H1826 0.930 . S
C1769 N1765 1.279 . S
C1769 C1767 1.358 . S
C1769 H1827 0.930 . S
C1770 C1773 1.348 . S
C1770 C1774 1.356 . S
C1770 O1821 1.325 . S
C1771 N1772 1.279 . S
C1771 C1774 1.358 . S
C1771 H1828 0.930 . S
N1772 C1771 1.279 . S
N1772 C1775 1.314 . S
C1773 C1770 1.348 . S
C1773 C1775 1.353 . S
C1773 H1829 0.929 . S
C1774 C1770 1.356 . S
C1774 C1771 1.358 . S
C1774 H1830 0.930 . S
C1775 N1772 1.314 . S
C1775 C1773 1.353 . S
C1775 H1831 0.930 . S
C1776 N1777 1.314 . S
C1776 C1781 1.353 . S
C1776 H1782 0.930 . S
N1777 Li1760 1.990 . S
N1777 C1776 1.314 . S
N1777 C1779 1.279 . S
C1778 C1779 1.358 . S
C1778 C1780 1.356 . S
C1778 H1832 0.930 . S
C1779 N1777 1.279 . S
C1779 C1778 1.358 . S
C1779 H1783 0.930 . S
C1780 C1778 1.356 . S
C1780 C1781 1.348 . S
C1781 C1776 1.353 . S
C1781 C1780 1.348 . S
C1781 H1833 0.929 . S
H1782 C1776 0.930 . S
H1783 C1779 0.930 . S
C1784 N1785 1.314 1_556 S
C1784 C1786 1.353 . S
C1784 H1790 0.930 . S
N1785 Li1761 1.990 . S
N1785 C1784 1.314 1_554 S
N1785 C1788 1.279 . S
C1786 C1784 1.353 . S
C1786 C1789 1.348 1_556 S
C1786 H1834 0.929 . S
C1787 C1788 1.358 . S
C1787 C1789 1.356 . S
C1787 H1835 0.930 . S
C1788 N1785 1.279 . S
C1788 C1787 1.358 . S
C1788 H1791 0.930 . S
C1789 C1786 1.348 1_554 S
C1789 C1787 1.356 . S
H1790 C1784 0.930 . S
H1791 C1788 0.930 . S
C1792 C1794 1.348 1_554 S
C1792 C1795 1.356 . S
C1792 O1822 1.325 . S
N1793 C1796 1.314 1_554 S
N1793 C1797 1.279 . S
C1794 C1792 1.348 1_556 S
C1794 C1796 1.353 . S
C1794 H1836 0.929 . S
C1795 C1792 1.356 . S
C1795 C1797 1.358 . S
C1795 H1837 0.930 . S
C1796 N1793 1.314 1_556 S
C1796 C1794 1.353 . S
C1796 H1838 0.930 . S
C1797 N1793 1.279 . S
C1797 C1795 1.358 . S
C1797 H1839 0.930 . S
C1798 C1799 1.348 . S
C1798 C1800 1.356 . S
C1798 O1823 1.325 . S
C1799 C1798 1.348 . S
C1799 C1801 1.353 . S
C1799 H1840 0.929 . S
C1800 C1798 1.356 . S
C1800 C1802 1.358 . S
C1800 H1841 0.930 . S
C1801 C1799 1.353 . S
C1801 N1803 1.314 . S
C1801 H1842 0.930 . S
C1802 C1800 1.358 . S
C1802 N1803 1.279 . S
C1802 H1843 0.930 . S
N1803 C1801 1.314 . S
N1803 C1802 1.279 . S
C1804 C1806 1.353 . S
C1804 N1807 1.314 . S
C1804 H1810 0.930 . S
C1805 N1807 1.279 . S
C1805 C1808 1.358 . S
C1805 H1811 0.930 . S
C1806 C1804 1.353 . S
C1806 C1809 1.348 . S
C1806 H1844 0.929 . S
N1807 Li1762 1.990 . S
N1807 C1804 1.314 . S
N1807 C1805 1.279 . S
C1808 C1805 1.358 . S
C1808 C1809 1.356 . S
C1808 H1845 0.930 . S
C1809 C1806 1.348 . S
C1809 C1808 1.356 . S
H1810 C1804 0.930 . S
H1811 C1805 0.930 . S
C1812 N1813 1.314 1_554 S
C1812 C1814 1.353 . S
C1812 H1818 0.930 . S
N1813 Li1763 1.990 1_556 S
N1813 C1812 1.314 1_556 S
N1813 C1816 1.279 . S
C1814 C1812 1.353 . S
C1814 C1817 1.348 1_554 S
C1814 H1846 0.929 . S
C1815 C1816 1.358 . S
C1815 C1817 1.356 . S
C1815 H1847 0.930 . S
C1816 N1813 1.279 . S
C1816 C1815 1.358 . S
C1816 H1819 0.930 . S
C1817 C1814 1.348 1_556 S
C1817 C1815 1.356 . S
H1818 C1812 0.930 . S
H1819 C1816 0.930 . S
O1820 Li1760 1.956 . S
O1820 Li1761 1.970 . S
O1820 Li1762 1.961 1_554 S
O1820 C1764 1.325 . S
O1821 Li1760 1.970 . S
O1821 Li1761 1.956 . S
O1821 Li1763 1.961 . S
O1821 C1770 1.325 . S
O1822 Li1760 1.961 . S
O1822 Li1762 1.956 1_554 S
O1822 Li1763 1.970 . S
O1822 C1792 1.325 . S
O1823 Li1761 1.961 1_556 S
O1823 Li1762 1.970 . S
O1823 Li1763 1.956 1_556 S
O1823 C1798 1.325 . S
H1824 C1766 0.929 . S
H1825 C1767 0.930 . S
H1826 C1768 0.930 . S
H1827 C1769 0.930 . S
H1828 C1771 0.930 . S
H1829 C1773 0.929 . S
H1830 C1774 0.930 . S
H1831 C1775 0.930 . S
H1832 C1778 0.930 . S
H1833 C1781 0.929 . S
H1834 C1786 0.929 . S
H1835 C1787 0.930 . S
H1836 C1794 0.929 . S
H1837 C1795 0.930 . S
H1838 C1796 0.930 . S
H1839 C1797 0.930 . S
H1840 C1799 0.929 . S
H1841 C1800 0.930 . S
H1842 C1801 0.930 . S
H1843 C1802 0.930 . S
H1844 C1806 0.929 . S
H1845 C1808 0.930 . S
H1846 C1814 0.929 . S
H1847 C1815 0.930 . S
Li1848 N1865 1.990 . S
Li1848 O1908 1.956 . S
Li1848 O1909 1.970 . S
Li1848 O1910 1.961 . S
Li1849 N1873 1.990 . S
Li1849 O1908 1.970 . S
Li1849 O1909 1.956 . S
Li1849 O1911 1.961 . S
Li1850 N1895 1.990 . S
Li1850 O1908 1.961 . S
Li1850 O1910 1.956 . S
Li1850 O1911 1.970 . S
Li1851 N1901 1.990 . S
Li1851 O1909 1.961 . S
Li1851 O1910 1.970 . S
Li1851 O1911 1.956 . S
C1852 C1854 1.348 . S
C1852 C1855 1.356 . S
C1852 O1908 1.325 . S
N1853 C1856 1.314 . S
N1853 C1857 1.279 . S
C1854 C1852 1.348 . S
C1854 C1856 1.353 . S
C1854 H1912 0.929 . S
C1855 C1852 1.356 . S
C1855 C1857 1.358 . S
C1855 H1913 0.930 . S
C1856 N1853 1.314 . S
C1856 C1854 1.353 . S
C1856 H1914 0.930 . S
C1857 N1853 1.279 . S
C1857 C1855 1.358 . S
C1857 H1915 0.930 . S
C1858 C1861 1.348 . S
C1858 C1862 1.356 . S
C1858 O1909 1.325 . S
C1859 N1860 1.279 . S
C1859 C1862 1.358 . S
C1859 H1916 0.930 . S
N1860 C1859 1.279 . S
N1860 C1863 1.314 . S
C1861 C1858 1.348 . S
C1861 C1863 1.353 . S
C1861 H1917 0.929 . S
C1862 C1858 1.356 . S
C1862 C1859 1.358 . S
C1862 H1918 0.930 . S
C1863 N1860 1.314 . S
C1863 C1861 1.353 . S
C1863 H1919 0.930 . S
C1864 N1865 1.314 . S
C1864 C1869 1.353 . S
C1864 H1870 0.930 . S
N1865 Li1848 1.990 . S
N1865 C1864 1.314 . S
N1865 C1867 1.279 . S
C1866 C1867 1.358 . S
C1866 C1868 1.356 . S
C1866 H1920 0.930 . S
C1867 N1865 1.279 . S
C1867 C1866 1.358 . S
C1867 H1871 0.930 . S
C1868 C1866 1.356 . S
C1868 C1869 1.348 . S
C1869 C1864 1.353 . S
C1869 C1868 1.348 . S
C1869 H1921 0.929 . S
H1870 C1864 0.930 . S
H1871 C1867 0.930 . S
C1872 N1873 1.314 . S
C1872 C1874 1.353 . S
C1872 H1878 0.930 . S
N1873 Li1849 1.990 . S
N1873 C1872 1.314 . S
N1873 C1876 1.279 . S
C1874 C1872 1.353 . S
C1874 C1877 1.348 . S
C1874 H1922 0.929 . S
C1875 C1876 1.358 . S
C1875 C1877 1.356 . S
C1875 H1923 0.930 . S
C1876 N1873 1.279 . S
C1876 C1875 1.358 . S
C1876 H1879 0.930 . S
C1877 C1874 1.348 . S
C1877 C1875 1.356 . S
H1878 C1872 0.930 . S
H1879 C1876 0.930 . S
C1880 C1882 1.348 . S
C1880 C1883 1.356 . S
C1880 O1910 1.325 . S
N1881 C1884 1.314 . S
N1881 C1885 1.279 . S
C1882 C1880 1.348 . S
C1882 C1884 1.353 . S
C1882 H1924 0.929 . S
C1883 C1880 1.356 . S
C1883 C1885 1.358 . S
C1883 H1925 0.930 . S
C1884 N1881 1.314 . S
C1884 C1882 1.353 . S
C1884 H1926 0.930 . S
C1885 N1881 1.279 . S
C1885 C1883 1.358 . S
C1885 H1927 0.930 . S
C1886 C1887 1.348 . S
C1886 C1888 1.356 . S
C1886 O1911 1.325 . S
C1887 C1886 1.348 . S
C1887 C1889 1.353 . S
C1887 H1928 0.929 . S
C1888 C1886 1.356 . S
C1888 C1890 1.358 . S
C1888 H1929 0.930 . S
C1889 C1887 1.353 . S
C1889 N1891 1.314 . S
C1889 H1930 0.930 . S
C1890 C1888 1.358 . S
C1890 N1891 1.279 . S
C1890 H1931 0.930 . S
N1891 C1889 1.314 . S
N1891 C1890 1.279 . S
C1892 C1894 1.353 . S
C1892 N1895 1.314 . S
C1892 H1898 0.930 . S
C1893 N1895 1.279 . S
C1893 C1896 1.358 . S
C1893 H1899 0.930 . S
C1894 C1892 1.353 . S
C1894 C1897 1.348 . S
C1894 H1932 0.929 . S
N1895 Li1850 1.990 . S
N1895 C1892 1.314 . S
N1895 C1893 1.279 . S
C1896 C1893 1.358 . S
C1896 C1897 1.356 . S
C1896 H1933 0.930 . S
C1897 C1894 1.348 . S
C1897 C1896 1.356 . S
H1898 C1892 0.930 . S
H1899 C1893 0.930 . S
C1900 N1901 1.314 . S
C1900 C1902 1.353 . S
C1900 H1906 0.930 . S
N1901 Li1851 1.990 . S
N1901 C1900 1.314 . S
N1901 C1904 1.279 . S
C1902 C1900 1.353 . S
C1902 C1905 1.348 . S
C1902 H1934 0.929 . S
C1903 C1904 1.358 . S
C1903 C1905 1.356 . S
C1903 H1935 0.930 . S
C1904 N1901 1.279 . S
C1904 C1903 1.358 . S
C1904 H1907 0.930 . S
C1905 C1902 1.348 . S
C1905 C1903 1.356 . S
H1906 C1900 0.930 . S
H1907 C1904 0.930 . S
O1908 Li1848 1.956 . S
O1908 Li1849 1.970 . S
O1908 Li1850 1.961 . S
O1908 C1852 1.325 . S
O1909 Li1848 1.970 . S
O1909 Li1849 1.956 . S
O1909 Li1851 1.961 . S
O1909 C1858 1.325 . S
O1910 Li1848 1.961 . S
O1910 Li1850 1.956 . S
O1910 Li1851 1.970 . S
O1910 C1880 1.325 . S
O1911 Li1849 1.961 . S
O1911 Li1850 1.970 . S
O1911 Li1851 1.956 . S
O1911 C1886 1.325 . S
H1912 C1854 0.929 . S
H1913 C1855 0.930 . S
H1914 C1856 0.930 . S
H1915 C1857 0.930 . S
H1916 C1859 0.930 . S
H1917 C1861 0.929 . S
H1918 C1862 0.930 . S
H1919 C1863 0.930 . S
H1920 C1866 0.930 . S
H1921 C1869 0.929 . S
H1922 C1874 0.929 . S
H1923 C1875 0.930 . S
H1924 C1882 0.929 . S
H1925 C1883 0.930 . S
H1926 C1884 0.930 . S
H1927 C1885 0.930 . S
H1928 C1887 0.929 . S
H1929 C1888 0.930 . S
H1930 C1889 0.930 . S
H1931 C1890 0.930 . S
H1932 C1894 0.929 . S
H1933 C1896 0.930 . S
H1934 C1902 0.929 . S
H1935 C1903 0.930 . S
Li1936 N1953 1.990 . S
Li1936 O1996 1.956 . S
Li1936 O1997 1.970 . S
Li1936 O1998 1.961 . S
Li1937 N1961 1.990 . S
Li1937 O1996 1.970 . S
Li1937 O1997 1.956 . S
Li1937 O1999 1.961 . S
Li1938 N1983 1.990 . S
Li1938 O1996 1.961 . S
Li1938 O1998 1.956 . S
Li1938 O1999 1.970 . S
Li1939 N1989 1.990 . S
Li1939 O1997 1.961 . S
Li1939 O1998 1.970 . S
Li1939 O1999 1.956 . S
C1940 C1942 1.348 . S
C1940 C1943 1.356 . S
C1940 O1996 1.325 . S
N1941 C1944 1.314 . S
N1941 C1945 1.279 . S
C1942 C1940 1.348 . S
C1942 C1944 1.353 . S
C1942 H2000 0.929 . S
C1943 C1940 1.356 . S
C1943 C1945 1.358 . S
C1943 H2001 0.930 . S
C1944 N1941 1.314 . S
C1944 C1942 1.353 . S
C1944 H2002 0.930 . S
C1945 N1941 1.279 . S
C1945 C1943 1.358 . S
C1945 H2003 0.930 . S
C1946 C1949 1.348 . S
C1946 C1950 1.356 . S
C1946 O1997 1.325 . S
C1947 N1948 1.279 . S
C1947 C1950 1.358 . S
C1947 H2004 0.930 . S
N1948 C1947 1.279 . S
N1948 C1951 1.314 . S
C1949 C1946 1.348 . S
C1949 C1951 1.353 . S
C1949 H2005 0.929 . S
C1950 C1946 1.356 . S
C1950 C1947 1.358 . S
C1950 H2006 0.930 . S
C1951 N1948 1.314 . S
C1951 C1949 1.353 . S
C1951 H2007 0.930 . S
C1952 N1953 1.314 . S
C1952 C1957 1.353 . S
C1952 H1958 0.930 . S
N1953 Li1936 1.990 . S
N1953 C1952 1.314 . S
N1953 C1955 1.279 . S
C1954 C1955 1.358 . S
C1954 C1956 1.356 . S
C1954 H2008 0.930 . S
C1955 N1953 1.279 . S
C1955 C1954 1.358 . S
C1955 H1959 0.930 . S
C1956 C1954 1.356 . S
C1956 C1957 1.348 . S
C1957 C1952 1.353 . S
C1957 C1956 1.348 . S
C1957 H2009 0.929 . S
H1958 C1952 0.930 . S
H1959 C1955 0.930 . S
C1960 N1961 1.314 . S
C1960 C1962 1.353 . S
C1960 H1966 0.930 . S
N1961 Li1937 1.990 . S
N1961 C1960 1.314 . S
N1961 C1964 1.279 . S
C1962 C1960 1.353 . S
C1962 C1965 1.348 . S
C1962 H2010 0.929 . S
C1963 C1964 1.358 . S
C1963 C1965 1.356 . S
C1963 H2011 0.930 . S
C1964 N1961 1.279 . S
C1964 C1963 1.358 . S
C1964 H1967 0.930 . S
C1965 C1962 1.348 . S
C1965 C1963 1.356 . S
H1966 C1960 0.930 . S
H1967 C1964 0.930 . S
C1968 C1970 1.348 . S
C1968 C1971 1.356 . S
C1968 O1998 1.325 . S
N1969 C1972 1.314 . S
N1969 C1973 1.279 . S
C1970 C1968 1.348 . S
C1970 C1972 1.353 . S
C1970 H2012 0.929 . S
C1971 C1968 1.356 . S
C1971 C1973 1.358 . S
C1971 H2013 0.930 . S
C1972 N1969 1.314 . S
C1972 C1970 1.353 . S
C1972 H2014 0.930 . S
C1973 N1969 1.279 . S
C1973 C1971 1.358 . S
C1973 H2015 0.930 . S
C1974 C1975 1.348 . S
C1974 C1976 1.356 . S
C1974 O1999 1.325 . S
C1975 C1974 1.348 . S
C1975 C1977 1.353 . S
C1975 H2016 0.929 . S
C1976 C1974 1.356 . S
C1976 C1978 1.358 . S
C1976 H2017 0.930 . S
C1977 C1975 1.353 . S
C1977 N1979 1.314 . S
C1977 H2018 0.930 . S
C1978 C1976 1.358 . S
C1978 N1979 1.279 . S
C1978 H2019 0.930 . S
N1979 C1977 1.314 . S
N1979 C1978 1.279 . S
C1980 C1982 1.353 . S
C1980 N1983 1.314 . S
C1980 H1986 0.930 . S
C1981 N1983 1.279 . S
C1981 C1984 1.358 . S
C1981 H1987 0.930 . S
C1982 C1980 1.353 . S
C1982 C1985 1.348 . S
C1982 H2020 0.929 . S
N1983 Li1938 1.990 . S
N1983 C1980 1.314 . S
N1983 C1981 1.279 . S
C1984 C1981 1.358 . S
C1984 C1985 1.356 . S
C1984 H2021 0.930 . S
C1985 C1982 1.348 . S
C1985 C1984 1.356 . S
H1986 C1980 0.930 . S
H1987 C1981 0.930 . S
C1988 N1989 1.314 . S
C1988 C1990 1.353 . S
C1988 H1994 0.930 . S
N1989 Li1939 1.990 . S
N1989 C1988 1.314 . S
N1989 C1992 1.279 . S
C1990 C1988 1.353 . S
C1990 C1993 1.348 . S
C1990 H2022 0.929 . S
C1991 C1992 1.358 . S
C1991 C1993 1.356 . S
C1991 H2023 0.930 . S
C1992 N1989 1.279 . S
C1992 C1991 1.358 . S
C1992 H1995 0.930 . S
C1993 C1990 1.348 . S
C1993 C1991 1.356 . S
H1994 C1988 0.930 . S
H1995 C1992 0.930 . S
O1996 Li1936 1.956 . S
O1996 Li1937 1.970 . S
O1996 Li1938 1.961 . S
O1996 C1940 1.325 . S
O1997 Li1936 1.970 . S
O1997 Li1937 1.956 . S
O1997 Li1939 1.961 . S
O1997 C1946 1.325 . S
O1998 Li1936 1.961 . S
O1998 Li1938 1.956 . S
O1998 Li1939 1.970 . S
O1998 C1968 1.325 . S
O1999 Li1937 1.961 . S
O1999 Li1938 1.970 . S
O1999 Li1939 1.956 . S
O1999 C1974 1.325 . S
H2000 C1942 0.929 . S
H2001 C1943 0.930 . S
H2002 C1944 0.930 . S
H2003 C1945 0.930 . S
H2004 C1947 0.930 . S
H2005 C1949 0.929 . S
H2006 C1950 0.930 . S
H2007 C1951 0.930 . S
H2008 C1954 0.930 . S
H2009 C1957 0.929 . S
H2010 C1962 0.929 . S
H2011 C1963 0.930 . S
H2012 C1970 0.929 . S
H2013 C1971 0.930 . S
H2014 C1972 0.930 . S
H2015 C1973 0.930 . S
H2016 C1975 0.929 . S
H2017 C1976 0.930 . S
H2018 C1977 0.930 . S
H2019 C1978 0.930 . S
H2020 C1982 0.929 . S
H2021 C1984 0.930 . S
H2022 C1990 0.929 . S
H2023 C1991 0.930 . S
Li2024 N2041 1.990 . S
Li2024 O2084 1.956 . S
Li2024 O2085 1.970 . S
Li2024 O2086 1.961 . S
Li2025 N2049 1.990 . S
Li2025 O2084 1.970 . S
Li2025 O2085 1.956 . S
Li2025 O2087 1.961 . S
Li2026 N2071 1.990 . S
Li2026 O2084 1.961 . S
Li2026 O2086 1.956 . S
Li2026 O2087 1.970 . S
Li2027 N2077 1.990 . S
Li2027 O2085 1.961 . S
Li2027 O2086 1.970 . S
Li2027 O2087 1.956 . S
C2028 C2030 1.348 . S
C2028 C2031 1.356 . S
C2028 O2084 1.325 . S
N2029 C2032 1.314 . S
N2029 C2033 1.279 . S
C2030 C2028 1.348 . S
C2030 C2032 1.353 . S
C2030 H2088 0.929 . S
C2031 C2028 1.356 . S
C2031 C2033 1.358 . S
C2031 H2089 0.930 . S
C2032 N2029 1.314 . S
C2032 C2030 1.353 . S
C2032 H2090 0.930 . S
C2033 N2029 1.279 . S
C2033 C2031 1.358 . S
C2033 H2091 0.930 . S
C2034 C2037 1.348 . S
C2034 C2038 1.356 . S
C2034 O2085 1.325 . S
C2035 N2036 1.279 . S
C2035 C2038 1.358 . S
C2035 H2092 0.930 . S
N2036 C2035 1.279 . S
N2036 C2039 1.314 . S
C2037 C2034 1.348 . S
C2037 C2039 1.353 . S
C2037 H2093 0.929 . S
C2038 C2034 1.356 . S
C2038 C2035 1.358 . S
C2038 H2094 0.930 . S
C2039 N2036 1.314 . S
C2039 C2037 1.353 . S
C2039 H2095 0.930 . S
C2040 N2041 1.314 . S
C2040 C2045 1.353 . S
C2040 H2046 0.930 . S
N2041 Li2024 1.990 . S
N2041 C2040 1.314 . S
N2041 C2043 1.279 . S
C2042 C2043 1.358 . S
C2042 C2044 1.356 . S
C2042 H2096 0.930 . S
C2043 N2041 1.279 . S
C2043 C2042 1.358 . S
C2043 H2047 0.930 . S
C2044 C2042 1.356 . S
C2044 C2045 1.348 . S
C2045 C2040 1.353 . S
C2045 C2044 1.348 . S
C2045 H2097 0.929 . S
H2046 C2040 0.930 . S
H2047 C2043 0.930 . S
C2048 N2049 1.314 . S
C2048 C2050 1.353 . S
C2048 H2054 0.930 . S
N2049 Li2025 1.990 . S
N2049 C2048 1.314 . S
N2049 C2052 1.279 . S
C2050 C2048 1.353 . S
C2050 C2053 1.348 . S
C2050 H2098 0.929 . S
C2051 C2052 1.358 . S
C2051 C2053 1.356 . S
C2051 H2099 0.930 . S
C2052 N2049 1.279 . S
C2052 C2051 1.358 . S
C2052 H2055 0.930 . S
C2053 C2050 1.348 . S
C2053 C2051 1.356 . S
H2054 C2048 0.930 . S
H2055 C2052 0.930 . S
C2056 C2058 1.348 . S
C2056 C2059 1.356 . S
C2056 O2086 1.325 . S
N2057 C2060 1.314 . S
N2057 C2061 1.279 . S
C2058 C2056 1.348 . S
C2058 C2060 1.353 . S
C2058 H2100 0.929 . S
C2059 C2056 1.356 . S
C2059 C2061 1.358 . S
C2059 H2101 0.930 . S
C2060 N2057 1.314 . S
C2060 C2058 1.353 . S
C2060 H2102 0.930 . S
C2061 N2057 1.279 . S
C2061 C2059 1.358 . S
C2061 H2103 0.930 . S
C2062 C2063 1.348 . S
C2062 C2064 1.356 . S
C2062 O2087 1.325 . S
C2063 C2062 1.348 . S
C2063 C2065 1.353 . S
C2063 H2104 0.929 . S
C2064 C2062 1.356 . S
C2064 C2066 1.358 . S
C2064 H2105 0.930 . S
C2065 C2063 1.353 . S
C2065 N2067 1.314 . S
C2065 H2106 0.930 . S
C2066 C2064 1.358 . S
C2066 N2067 1.279 . S
C2066 H2107 0.930 . S
N2067 C2065 1.314 . S
N2067 C2066 1.279 . S
C2068 C2070 1.353 . S
C2068 N2071 1.314 . S
C2068 H2074 0.930 . S
C2069 N2071 1.279 . S
C2069 C2072 1.358 . S
C2069 H2075 0.930 . S
C2070 C2068 1.353 . S
C2070 C2073 1.348 . S
C2070 H2108 0.929 . S
N2071 Li2026 1.990 . S
N2071 C2068 1.314 . S
N2071 C2069 1.279 . S
C2072 C2069 1.358 . S
C2072 C2073 1.356 . S
C2072 H2109 0.930 . S
C2073 C2070 1.348 . S
C2073 C2072 1.356 . S
H2074 C2068 0.930 . S
H2075 C2069 0.930 . S
C2076 N2077 1.314 . S
C2076 C2078 1.353 . S
C2076 H2082 0.930 . S
N2077 Li2027 1.990 . S
N2077 C2076 1.314 . S
N2077 C2080 1.279 . S
C2078 C2076 1.353 . S
C2078 C2081 1.348 . S
C2078 H2110 0.929 . S
C2079 C2080 1.358 . S
C2079 C2081 1.356 . S
C2079 H2111 0.930 . S
C2080 N2077 1.279 . S
C2080 C2079 1.358 . S
C2080 H2083 0.930 . S
C2081 C2078 1.348 . S
C2081 C2079 1.356 . S
H2082 C2076 0.930 . S
H2083 C2080 0.930 . S
O2084 Li2024 1.956 . S
O2084 Li2025 1.970 . S
O2084 Li2026 1.961 . S
O2084 C2028 1.325 . S
O2085 Li2024 1.970 . S
O2085 Li2025 1.956 . S
O2085 Li2027 1.961 . S
O2085 C2034 1.325 . S
O2086 Li2024 1.961 . S
O2086 Li2026 1.956 . S
O2086 Li2027 1.970 . S
O2086 C2056 1.325 . S
O2087 Li2025 1.961 . S
O2087 Li2026 1.970 . S
O2087 Li2027 1.956 . S
O2087 C2062 1.325 . S
H2088 C2030 0.929 . S
H2089 C2031 0.930 . S
H2090 C2032 0.930 . S
H2091 C2033 0.930 . S
H2092 C2035 0.930 . S
H2093 C2037 0.929 . S
H2094 C2038 0.930 . S
H2095 C2039 0.930 . S
H2096 C2042 0.930 . S
H2097 C2045 0.929 . S
H2098 C2050 0.929 . S
H2099 C2051 0.930 . S
H2100 C2058 0.929 . S
H2101 C2059 0.930 . S
H2102 C2060 0.930 . S
H2103 C2061 0.930 . S
H2104 C2063 0.929 . S
H2105 C2064 0.930 . S
H2106 C2065 0.930 . S
H2107 C2066 0.930 . S
H2108 C2070 0.929 . S
H2109 C2072 0.930 . S
H2110 C2078 0.929 . S
H2111 C2079 0.930 . S
Ho2112 C2115 2.811 1_455 S
Ho2112 O2132 2.322 . S
Ho2112 O2134 2.378 1_455 S
Ho2112 O2135 2.524 1_456 S
Ho2112 O2136 2.381 . S
Ho2112 O2137 2.669 . S
Ho2112 O2139 2.346 1_546 S
Ho2112 O2143 2.305 1_556 S
Ho2113 C2124 2.811 . S
Ho2113 O2133 2.346 . S
Ho2113 O2137 2.305 1_554 S
Ho2113 O2138 2.322 . S
Ho2113 O2140 2.378 . S
Ho2113 O2141 2.524 . S
Ho2113 O2142 2.381 . S
Ho2113 O2143 2.669 . S
C2114 O2132 1.259 1_554 S
C2114 O2133 1.268 . S
C2115 Ho2112 2.811 1_655 S
C2115 C2116 1.488 . S
C2115 O2134 1.215 . S
C2115 O2135 1.289 1_556 S
C2116 C2115 1.488 . S
C2116 C2117 1.346 1_556 S
C2116 C2121 1.413 . S
C2117 C2116 1.346 1_554 S
C2117 C2118 1.441 1_554 S
C2117 H2144 0.933 . S
C2118 C2117 1.441 1_556 S
C2118 C2119 1.381 . S
C2118 H2145 0.931 1_556 S
C2119 C2118 1.381 . S
C2119 C2120 1.321 . S
C2120 C2119 1.321 . S
C2120 C2121 1.403 . S
C2120 H2146 0.934 . S
C2121 C2116 1.413 . S
C2121 C2120 1.403 . S
C2121 H2147 0.930 . S
C2122 O2136 1.275 . S
C2122 O2137 1.256 . S
C2123 O2138 1.259 1_565 S
C2123 O2139 1.268 . S
C2124 Ho2113 2.811 . S
C2124 C2125 1.488 . S
C2124 O2140 1.215 . S
C2124 O2141 1.289 . S
C2125 C2124 1.488 . S
C2125 C2126 1.348 . S
C2125 C2130 1.413 . S
C2126 C2125 1.348 . S
C2126 C2127 1.442 1_545 S
C2126 H2148 0.930 1_545 S
C2127 C2126 1.442 1_565 S
C2127 C2128 1.380 1_565 S
C2127 H2149 0.931 . S
C2128 C2127 1.380 1_545 S
C2128 C2129 1.345 . S
C2129 C2128 1.345 . S
C2129 C2130 1.403 . S
C2129 H2150 0.934 . S
C2130 C2125 1.413 . S
C2130 C2129 1.403 . S
C2130 H2151 0.930 . S
C2131 O2142 1.275 . S
C2131 O2143 1.256 . S
O2132 Ho2112 2.322 . S
O2132 C2114 1.259 1_556 S
O2133 Ho2113 2.346 . S
O2133 C2114 1.268 . S
O2134 Ho2112 2.378 1_655 S
O2134 C2115 1.215 . S
O2135 Ho2112 2.524 1_654 S
O2135 C2115 1.289 1_554 S
O2136 Ho2112 2.381 . S
O2136 C2122 1.275 . S
O2137 Ho2112 2.669 . S
O2137 Ho2113 2.305 1_556 S
O2137 C2122 1.256 . S
O2138 Ho2113 2.322 . S
O2138 C2123 1.259 1_545 S
O2139 Ho2112 2.346 1_564 S
O2139 C2123 1.268 . S
O2140 Ho2113 2.378 . S
O2140 C2124 1.215 . S
O2141 Ho2113 2.524 . S
O2141 C2124 1.289 . S
O2142 Ho2113 2.381 . S
O2142 C2131 1.275 . S
O2143 Ho2112 2.305 1_554 S
O2143 Ho2113 2.669 . S
O2143 C2131 1.256 . S
H2144 C2117 0.933 . S
H2145 C2118 0.931 1_554 S
H2146 C2120 0.934 . S
H2147 C2121 0.930 . S
H2148 C2126 0.930 1_565 S
H2149 C2127 0.931 . S
H2150 C2129 0.934 . S
H2151 C2130 0.930 . S
Ho2152 C2155 2.811 . S
Ho2152 O2172 2.322 . S
Ho2152 O2174 2.378 . S
Ho2152 O2175 2.524 . S
Ho2152 O2176 2.381 . S
Ho2152 O2177 2.669 . S
Ho2152 O2179 2.346 . S
Ho2152 O2183 2.305 . S
Ho2153 C2164 2.811 . S
Ho2153 O2173 2.346 . S
Ho2153 O2177 2.305 . S
Ho2153 O2178 2.322 . S
Ho2153 O2180 2.378 . S
Ho2153 O2181 2.524 . S
Ho2153 O2182 2.381 . S
Ho2153 O2183 2.669 . S
C2154 O2172 1.259 . S
C2154 O2173 1.268 . S
C2155 Ho2152 2.811 . S
C2155 C2156 1.488 . S
C2155 O2174 1.215 . S
C2155 O2175 1.289 . S
C2156 C2155 1.488 . S
C2156 C2157 1.348 . S
C2156 C2161 1.413 . S
C2157 C2156 1.348 . S
C2157 C2158 1.442 . S
C2157 H2184 0.930 . S
C2158 C2157 1.442 . S
C2158 C2159 1.381 . S
C2158 H2185 0.931 . S
C2159 C2158 1.381 . S
C2159 C2160 1.321 . S
C2160 C2159 1.321 . S
C2160 C2161 1.403 . S
C2160 H2186 0.934 . S
C2161 C2156 1.413 . S
C2161 C2160 1.403 . S
C2161 H2187 0.930 . S
C2162 O2176 1.275 . S
C2162 O2177 1.256 . S
C2163 O2178 1.259 . S
C2163 O2179 1.268 . S
C2164 Ho2153 2.811 . S
C2164 C2165 1.488 . S
C2164 O2180 1.215 . S
C2164 O2181 1.289 . S
C2165 C2164 1.488 . S
C2165 C2166 1.348 . S
C2165 C2170 1.413 . S
C2166 C2165 1.348 . S
C2166 C2167 1.442 . S
C2166 H2188 0.930 . S
C2167 C2166 1.442 . S
C2167 C2168 1.381 . S
C2167 H2189 0.931 . S
C2168 C2167 1.381 . S
C2168 C2169 1.321 . S
C2169 C2168 1.321 . S
C2169 C2170 1.403 . S
C2169 H2190 0.934 . S
C2170 C2165 1.413 . S
C2170 C2169 1.403 . S
C2170 H2191 0.930 . S
C2171 O2182 1.275 . S
C2171 O2183 1.256 . S
O2172 Ho2152 2.322 . S
O2172 C2154 1.259 . S
O2173 Ho2153 2.346 . S
O2173 C2154 1.268 . S
O2174 Ho2152 2.378 . S
O2174 C2155 1.215 . S
O2175 Ho2152 2.524 . S
O2175 C2155 1.289 . S
O2176 Ho2152 2.381 . S
O2176 C2162 1.275 . S
O2177 Ho2152 2.669 . S
O2177 Ho2153 2.305 . S
O2177 C2162 1.256 . S
O2178 Ho2153 2.322 . S
O2178 C2163 1.259 . S
O2179 Ho2152 2.346 . S
O2179 C2163 1.268 . S
O2180 Ho2153 2.378 . S
O2180 C2164 1.215 . S
O2181 Ho2153 2.524 . S
O2181 C2164 1.289 . S
O2182 Ho2153 2.381 . S
O2182 C2171 1.275 . S
O2183 Ho2152 2.305 . S
O2183 Ho2153 2.669 . S
O2183 C2171 1.256 . S
H2184 C2157 0.930 . S
H2185 C2158 0.931 . S
H2186 C2160 0.934 . S
H2187 C2161 0.930 . S
H2188 C2166 0.930 . S
H2189 C2167 0.931 . S
H2190 C2169 0.934 . S
H2191 C2170 0.930 . S
Ho2192 C2195 2.811 . S
Ho2192 O2212 2.300 1_545 S
Ho2192 O2214 2.378 . S
Ho2192 O2215 2.524 . S
Ho2192 O2216 2.381 . S
Ho2192 O2217 2.669 . S
Ho2192 O2219 2.346 . S
Ho2192 O2223 2.305 . S
Ho2193 C2204 2.811 . S
Ho2193 O2213 2.346 1_545 S
Ho2193 O2217 2.305 . S
Ho2193 O2218 2.322 . S
Ho2193 O2220 2.378 . S
Ho2193 O2221 2.524 . S
Ho2193 O2222 2.381 . S
Ho2193 O2223 2.669 . S
C2194 O2212 1.272 . S
C2194 O2213 1.268 . S
C2195 Ho2192 2.811 . S
C2195 C2196 1.488 1_545 S
C2195 O2214 1.215 . S
C2195 O2215 1.289 . S
C2196 C2195 1.488 1_565 S
C2196 C2197 1.348 . S
C2196 C2201 1.413 . S
C2197 C2196 1.348 . S
C2197 C2198 1.442 . S
C2197 H2224 0.930 . S
C2198 C2197 1.442 . S
C2198 C2199 1.381 . S
C2198 H2225 0.931 . S
C2199 C2198 1.381 . S
C2199 C2200 1.321 . S
C2200 C2199 1.321 . S
C2200 C2201 1.403 . S
C2200 H2226 0.934 . S
C2201 C2196 1.413 . S
C2201 C2200 1.403 . S
C2201 H2227 0.930 . S
C2202 O2216 1.275 . S
C2202 O2217 1.256 . S
C2203 O2218 1.259 . S
C2203 O2219 1.268 . S
C2204 Ho2193 2.811 . S
C2204 C2205 1.488 . S
C2204 O2220 1.215 . S
C2204 O2221 1.289 . S
C2205 C2204 1.488 . S
C2205 C2206 1.348 . S
C2205 C2210 1.413 . S
C2206 C2205 1.348 . S
C2206 C2207 1.442 . S
C2206 H2228 0.930 . S
C2207 C2206 1.442 . S
C2207 C2208 1.381 . S
C2207 H2229 0.931 . S
C2208 C2207 1.381 . S
C2208 C2209 1.321 . S
C2209 C2208 1.321 . S
C2209 C2210 1.403 . S
C2209 H2230 0.934 . S
C2210 C2205 1.413 . S
C2210 C2209 1.403 . S
C2210 H2231 0.930 . S
C2211 O2222 1.275 . S
C2211 O2223 1.256 . S
O2212 Ho2192 2.300 1_565 S
O2212 C2194 1.272 . S
O2213 Ho2193 2.346 1_565 S
O2213 C2194 1.268 . S
O2214 Ho2192 2.378 . S
O2214 C2195 1.215 . S
O2215 Ho2192 2.524 . S
O2215 C2195 1.289 . S
O2216 Ho2192 2.381 . S
O2216 C2202 1.275 . S
O2217 Ho2192 2.669 . S
O2217 Ho2193 2.305 . S
O2217 C2202 1.256 . S
O2218 Ho2193 2.322 . S
O2218 C2203 1.259 . S
O2219 Ho2192 2.346 . S
O2219 C2203 1.268 . S
O2220 Ho2193 2.378 . S
O2220 C2204 1.215 . S
O2221 Ho2193 2.524 . S
O2221 C2204 1.289 . S
O2222 Ho2193 2.381 . S
O2222 C2211 1.275 . S
O2223 Ho2192 2.305 . S
O2223 Ho2193 2.669 . S
O2223 C2211 1.256 . S
H2224 C2197 0.930 . S
H2225 C2198 0.931 . S
H2226 C2200 0.934 . S
H2227 C2201 0.930 . S
H2228 C2206 0.930 . S
H2229 C2207 0.931 . S
H2230 C2209 0.934 . S
H2231 C2210 0.930 . S
Ho2232 C2235 2.811 . S
Ho2232 O2252 2.322 . S
Ho2232 O2254 2.378 . S
Ho2232 O2255 2.524 . S
Ho2232 O2256 2.381 . S
Ho2232 O2257 2.669 . S
Ho2232 O2259 2.346 . S
Ho2232 O2263 2.305 . S
Ho2233 C2244 2.811 . S
Ho2233 O2253 2.346 . S
Ho2233 O2257 2.305 . S
Ho2233 O2258 2.322 . S
Ho2233 O2260 2.378 . S
Ho2233 O2261 2.524 . S
Ho2233 O2262 2.381 . S
Ho2233 O2263 2.669 . S
C2234 O2252 1.259 . S
C2234 O2253 1.268 . S
C2235 Ho2232 2.811 . S
C2235 C2236 1.488 . S
C2235 O2254 1.215 . S
C2235 O2255 1.289 . S
C2236 C2235 1.488 . S
C2236 C2237 1.348 . S
C2236 C2241 1.413 . S
C2237 C2236 1.348 . S
C2237 C2238 1.442 . S
C2237 H2264 0.930 . S
C2238 C2237 1.442 . S
C2238 C2239 1.381 . S
C2238 H2265 0.931 . S
C2239 C2238 1.381 . S
C2239 C2240 1.321 . S
C2240 C2239 1.321 . S
C2240 C2241 1.403 . S
C2240 H2266 0.934 . S
C2241 C2236 1.413 . S
C2241 C2240 1.403 . S
C2241 H2267 0.930 . S
C2242 O2256 1.275 . S
C2242 O2257 1.256 . S
C2243 O2258 1.259 . S
C2243 O2259 1.268 . S
C2244 Ho2233 2.811 . S
C2244 C2245 1.488 . S
C2244 O2260 1.215 . S
C2244 O2261 1.289 . S
C2245 C2244 1.488 . S
C2245 C2246 1.348 . S
C2245 C2250 1.413 . S
C2246 C2245 1.348 . S
C2246 C2247 1.442 . S
C2246 H2268 0.930 . S
C2247 C2246 1.442 . S
C2247 C2248 1.381 . S
C2247 H2269 0.931 . S
C2248 C2247 1.381 . S
C2248 C2249 1.321 . S
C2249 C2248 1.321 . S
C2249 C2250 1.403 . S
C2249 H2270 0.934 . S
C2250 C2245 1.413 . S
C2250 C2249 1.403 . S
C2250 H2271 0.930 . S
C2251 O2262 1.275 . S
C2251 O2263 1.256 . S
O2252 Ho2232 2.322 . S
O2252 C2234 1.259 . S
O2253 Ho2233 2.346 . S
O2253 C2234 1.268 . S
O2254 Ho2232 2.378 . S
O2254 C2235 1.215 . S
O2255 Ho2232 2.524 . S
O2255 C2235 1.289 . S
O2256 Ho2232 2.381 . S
O2256 C2242 1.275 . S
O2257 Ho2232 2.669 . S
O2257 Ho2233 2.305 . S
O2257 C2242 1.256 . S
O2258 Ho2233 2.322 . S
O2258 C2243 1.259 . S
O2259 Ho2232 2.346 . S
O2259 C2243 1.268 . S
O2260 Ho2233 2.378 . S
O2260 C2244 1.215 . S
O2261 Ho2233 2.524 . S
O2261 C2244 1.289 . S
O2262 Ho2233 2.381 . S
O2262 C2251 1.275 . S
O2263 Ho2232 2.305 . S
O2263 Ho2233 2.669 . S
O2263 C2251 1.256 . S
H2264 C2237 0.930 . S
H2265 C2238 0.931 . S
H2266 C2240 0.934 . S
H2267 C2241 0.930 . S
H2268 C2246 0.930 . S
H2269 C2247 0.931 . S
H2270 C2249 0.934 . S
H2271 C2250 0.930 . S
Ho2272 C2275 2.811 . S
Ho2272 O2292 2.322 . S
Ho2272 O2294 2.378 . S
Ho2272 O2295 2.524 . S
Ho2272 O2296 2.381 . S
Ho2272 O2297 2.669 . S
Ho2272 O2299 2.346 . S
Ho2272 O2303 2.305 . S
Ho2273 C2284 2.811 1_545 S
Ho2273 O2293 2.346 . S
Ho2273 O2297 2.305 . S
Ho2273 O2298 2.322 . S
Ho2273 O2300 2.378 1_545 S
Ho2273 O2301 2.524 1_545 S
Ho2273 O2302 2.381 . S
Ho2273 O2303 2.669 . S
C2274 O2292 1.259 . S
C2274 O2293 1.268 . S
C2275 Ho2272 2.811 . S
C2275 C2276 1.488 . S
C2275 O2294 1.215 . S
C2275 O2295 1.289 . S
C2276 C2275 1.488 . S
C2276 C2277 1.348 . S
C2276 C2281 1.413 . S
C2277 C2276 1.348 . S
C2277 C2278 1.442 . S
C2277 H2304 0.930 . S
C2278 C2277 1.442 . S
C2278 C2279 1.381 . S
C2278 H2305 0.931 . S
C2279 C2278 1.381 . S
C2279 C2280 1.321 . S
C2280 C2279 1.321 . S
C2280 C2281 1.403 . S
C2280 H2306 0.934 . S
C2281 C2276 1.413 . S
C2281 C2280 1.403 . S
C2281 H2307 0.930 . S
C2282 O2296 1.275 . S
C2282 O2297 1.256 . S
C2283 O2298 1.259 . S
C2283 O2299 1.268 . S
C2284 Ho2273 2.811 1_565 S
C2284 C2285 1.488 . S
C2284 O2300 1.215 . S
C2284 O2301 1.289 . S
C2285 C2284 1.488 . S
C2285 C2286 1.348 . S
C2285 C2290 1.413 . S
C2286 C2285 1.348 . S
C2286 C2287 1.442 . S
C2286 H2308 0.930 . S
C2287 C2286 1.442 . S
C2287 C2288 1.381 . S
C2287 H2309 0.931 . S
C2288 C2287 1.381 . S
C2288 C2289 1.321 . S
C2289 C2288 1.321 . S
C2289 C2290 1.403 . S
C2289 H2310 0.934 . S
C2290 C2285 1.413 . S
C2290 C2289 1.403 . S
C2290 H2311 0.930 . S
C2291 O2302 1.275 . S
C2291 O2303 1.256 . S
O2292 Ho2272 2.322 . S
O2292 C2274 1.259 . S
O2293 Ho2273 2.346 . S
O2293 C2274 1.268 . S
O2294 Ho2272 2.378 . S
O2294 C2275 1.215 . S
O2295 Ho2272 2.524 . S
O2295 C2275 1.289 . S
O2296 Ho2272 2.381 . S
O2296 C2282 1.275 . S
O2297 Ho2272 2.669 . S
O2297 Ho2273 2.305 . S
O2297 C2282 1.256 . S
O2298 Ho2273 2.322 . S
O2298 C2283 1.259 . S
O2299 Ho2272 2.346 . S
O2299 C2283 1.268 . S
O2300 Ho2273 2.378 1_565 S
O2300 C2284 1.215 . S
O2301 Ho2273 2.524 1_565 S
O2301 C2284 1.289 . S
O2302 Ho2273 2.381 . S
O2302 C2291 1.275 . S
O2303 Ho2272 2.305 . S
O2303 Ho2273 2.669 . S
O2303 C2291 1.256 . S
H2304 C2277 0.930 . S
H2305 C2278 0.931 . S
H2306 C2280 0.934 . S
H2307 C2281 0.930 . S
H2308 C2286 0.930 . S
H2309 C2287 0.931 . S
H2310 C2289 0.934 . S
H2311 C2290 0.930 . S
Ho2312 C2315 2.811 . S
Ho2312 O2332 2.322 . S
Ho2312 O2334 2.378 . S
Ho2312 O2335 2.524 . S
Ho2312 O2336 2.381 . S
Ho2312 O2337 2.669 . S
Ho2312 O2339 2.346 . S
Ho2312 O2343 2.305 . S
Ho2313 C2324 2.811 . S
Ho2313 O2333 2.346 . S
Ho2313 O2337 2.305 . S
Ho2313 O2338 2.322 . S
Ho2313 O2340 2.378 . S
Ho2313 O2341 2.524 . S
Ho2313 O2342 2.381 . S
Ho2313 O2343 2.669 . S
C2314 O2332 1.259 . S
C2314 O2333 1.268 . S
C2315 Ho2312 2.811 . S
C2315 C2316 1.488 . S
C2315 O2334 1.215 . S
C2315 O2335 1.289 . S
C2316 C2315 1.488 . S
C2316 C2317 1.348 . S
C2316 C2321 1.413 . S
C2317 C2316 1.348 . S
C2317 C2318 1.442 . S
C2317 H2344 0.930 . S
C2318 C2317 1.442 . S
C2318 C2319 1.381 . S
C2318 H2345 0.931 . S
C2319 C2318 1.381 . S
C2319 C2320 1.321 . S
C2320 C2319 1.321 . S
C2320 C2321 1.403 . S
C2320 H2346 0.934 . S
C2321 C2316 1.413 . S
C2321 C2320 1.403 . S
C2321 H2347 0.930 . S
C2322 O2336 1.275 . S
C2322 O2337 1.256 . S
C2323 O2338 1.259 . S
C2323 O2339 1.268 . S
C2324 Ho2313 2.811 . S
C2324 C2325 1.488 . S
C2324 O2340 1.215 . S
C2324 O2341 1.289 . S
C2325 C2324 1.488 . S
C2325 C2326 1.348 . S
C2325 C2330 1.413 . S
C2326 C2325 1.348 . S
C2326 C2327 1.442 . S
C2326 H2348 0.930 . S
C2327 C2326 1.442 . S
C2327 C2328 1.381 . S
C2327 H2349 0.931 . S
C2328 C2327 1.381 . S
C2328 C2329 1.321 . S
C2329 C2328 1.321 . S
C2329 C2330 1.403 . S
C2329 H2350 0.934 . S
C2330 C2325 1.413 . S
C2330 C2329 1.403 . S
C2330 H2351 0.930 . S
C2331 O2342 1.275 . S
C2331 O2343 1.256 . S
O2332 Ho2312 2.322 . S
O2332 C2314 1.259 . S
O2333 Ho2313 2.346 . S
O2333 C2314 1.268 . S
O2334 Ho2312 2.378 . S
O2334 C2315 1.215 . S
O2335 Ho2312 2.524 . S
O2335 C2315 1.289 . S
O2336 Ho2312 2.381 . S
O2336 C2322 1.275 . S
O2337 Ho2312 2.669 . S
O2337 Ho2313 2.305 . S
O2337 C2322 1.256 . S
O2338 Ho2313 2.322 . S
O2338 C2323 1.259 . S
O2339 Ho2312 2.346 . S
O2339 C2323 1.268 . S
O2340 Ho2313 2.378 . S
O2340 C2324 1.215 . S
O2341 Ho2313 2.524 . S
O2341 C2324 1.289 . S
O2342 Ho2313 2.381 . S
O2342 C2331 1.275 . S
O2343 Ho2312 2.305 . S
O2343 Ho2313 2.669 . S
O2343 C2331 1.256 . S
H2344 C2317 0.930 . S
H2345 C2318 0.931 . S
H2346 C2320 0.934 . S
H2347 C2321 0.930 . S
H2348 C2326 0.930 . S
H2349 C2327 0.931 . S
H2350 C2329 0.934 . S
H2351 C2330 0.930 . S
Ho2352 C2355 2.811 . S
Ho2352 O2372 2.322 . S
Ho2352 O2374 2.378 . S
Ho2352 O2375 2.524 . S
Ho2352 O2376 2.381 1_545 S
Ho2352 O2377 2.669 1_554 S
Ho2352 O2379 2.346 . S
Ho2352 O2383 2.305 . S
Ho2353 C2364 2.811 . S
Ho2353 O2373 2.346 . S
Ho2353 O2377 2.305 . S
Ho2353 O2378 2.322 . S
Ho2353 O2380 2.378 . S
Ho2353 O2381 2.524 . S
Ho2353 O2382 2.381 1_556 S
Ho2353 O2383 2.669 1_556 S
C2354 O2372 1.259 . S
C2354 O2373 1.268 1_554 S
C2355 Ho2352 2.811 . S
C2355 C2356 1.488 . S
C2355 O2374 1.215 . S
C2355 O2375 1.289 . S
C2356 C2355 1.488 . S
C2356 C2357 1.348 . S
C2356 C2361 1.413 1_545 S
C2357 C2356 1.348 . S
C2357 C2358 1.442 . S
C2357 H2384 0.930 . S
C2358 C2357 1.442 . S
C2358 C2359 1.381 1_545 S
C2358 H2385 0.931 . S
C2359 C2358 1.381 1_565 S
C2359 C2360 1.321 . S
C2360 C2359 1.321 . S
C2360 C2361 1.403 . S
C2360 H2386 0.934 . S
C2361 C2356 1.413 1_565 S
C2361 C2360 1.403 . S
C2361 H2387 0.930 . S
C2362 O2376 1.243 1_556 S
C2362 O2377 1.267 1_565 S
C2363 O2378 1.259 1_554 S
C2363 O2379 1.268 . S
C2364 Ho2353 2.811 . S
C2364 C2365 1.488 . S
C2364 O2380 1.215 . S
C2364 O2381 1.289 . S
C2365 C2364 1.488 . S
C2365 C2366 1.348 . S
C2365 C2370 1.413 . S
C2366 C2365 1.348 . S
C2366 C2367 1.442 . S
C2366 H2388 0.930 . S
C2367 C2366 1.442 . S
C2367 C2368 1.381 . S
C2367 H2389 0.931 . S
C2368 C2367 1.381 . S
C2368 C2369 1.321 . S
C2369 C2368 1.321 . S
C2369 C2370 1.403 . S
C2369 H2390 0.934 . S
C2370 C2365 1.413 . S
C2370 C2369 1.403 . S
C2370 H2391 0.930 . S
C2371 O2382 1.275 . S
C2371 O2383 1.256 . S
O2372 Ho2352 2.322 . S
O2372 C2354 1.259 . S
O2373 Ho2353 2.346 . S
O2373 C2354 1.268 1_556 S
O2374 Ho2352 2.378 . S
O2374 C2355 1.215 . S
O2375 Ho2352 2.524 . S
O2375 C2355 1.289 . S
O2376 Ho2352 2.381 1_565 S
O2376 C2362 1.243 1_554 S
O2377 Ho2352 2.669 1_556 S
O2377 Ho2353 2.305 . S
O2377 C2362 1.267 1_545 S
O2378 Ho2353 2.322 . S
O2378 C2363 1.259 1_556 S
O2379 Ho2352 2.346 . S
O2379 C2363 1.268 . S
O2380 Ho2353 2.378 . S
O2380 C2364 1.215 . S
O2381 Ho2353 2.524 . S
O2381 C2364 1.289 . S
O2382 Ho2353 2.381 1_554 S
O2382 C2371 1.275 . S
O2383 Ho2352 2.305 . S
O2383 Ho2353 2.669 1_554 S
O2383 C2371 1.256 . S
H2384 C2357 0.930 . S
H2385 C2358 0.931 . S
H2386 C2360 0.934 . S
H2387 C2361 0.930 . S
H2388 C2366 0.930 . S
H2389 C2367 0.931 . S
H2390 C2369 0.934 . S
H2391 C2370 0.930 . S
Ho2392 C2395 2.811 . S
Ho2392 O2412 2.322 . S
Ho2392 O2414 2.378 . S
Ho2392 O2415 2.524 . S
Ho2392 O2416 2.381 . S
Ho2392 O2417 2.669 . S
Ho2392 O2419 2.346 . S
Ho2392 O2423 2.305 . S
Ho2393 C2404 2.811 . S
Ho2393 O2413 2.346 . S
Ho2393 O2417 2.305 . S
Ho2393 O2418 2.322 . S
Ho2393 O2420 2.378 . S
Ho2393 O2421 2.524 . S
Ho2393 O2422 2.381 . S
Ho2393 O2423 2.669 . S
C2394 O2412 1.259 . S
C2394 O2413 1.268 . S
C2395 Ho2392 2.811 . S
C2395 C2396 1.488 . S
C2395 O2414 1.215 . S
C2395 O2415 1.289 . S
C2396 C2395 1.488 . S
C2396 C2397 1.348 . S
C2396 C2401 1.413 . S
C2397 C2396 1.348 . S
C2397 C2398 1.442 . S
C2397 H2424 0.930 . S
C2398 C2397 1.442 . S
C2398 C2399 1.381 . S
C2398 H2425 0.931 . S
C2399 C2398 1.381 . S
C2399 C2400 1.321 . S
C2400 C2399 1.321 . S
C2400 C2401 1.403 . S
C2400 H2426 0.934 . S
C2401 C2396 1.413 . S
C2401 C2400 1.403 . S
C2401 H2427 0.930 . S
C2402 O2416 1.275 . S
C2402 O2417 1.256 . S
C2403 O2418 1.259 . S
C2403 O2419 1.268 . S
C2404 Ho2393 2.811 . S
C2404 C2405 1.488 . S
C2404 O2420 1.215 . S
C2404 O2421 1.289 . S
C2405 C2404 1.488 . S
C2405 C2406 1.348 . S
C2405 C2410 1.413 . S
C2406 C2405 1.348 . S
C2406 C2407 1.442 . S
C2406 H2428 0.930 . S
C2407 C2406 1.442 . S
C2407 C2408 1.381 . S
C2407 H2429 0.931 . S
C2408 C2407 1.381 . S
C2408 C2409 1.321 . S
C2409 C2408 1.321 . S
C2409 C2410 1.403 . S
C2409 H2430 0.934 . S
C2410 C2405 1.413 . S
C2410 C2409 1.403 . S
C2410 H2431 0.930 . S
C2411 O2422 1.275 . S
C2411 O2423 1.256 . S
O2412 Ho2392 2.322 . S
O2412 C2394 1.259 . S
O2413 Ho2393 2.346 . S
O2413 C2394 1.268 . S
O2414 Ho2392 2.378 . S
O2414 C2395 1.215 . S
O2415 Ho2392 2.524 . S
O2415 C2395 1.289 . S
O2416 Ho2392 2.381 . S
O2416 C2402 1.275 . S
O2417 Ho2392 2.669 . S
O2417 Ho2393 2.305 . S
O2417 C2402 1.256 . S
O2418 Ho2393 2.322 . S
O2418 C2403 1.259 . S
O2419 Ho2392 2.346 . S
O2419 C2403 1.268 . S
O2420 Ho2393 2.378 . S
O2420 C2404 1.215 . S
O2421 Ho2393 2.524 . S
O2421 C2404 1.289 . S
O2422 Ho2393 2.381 . S
O2422 C2411 1.275 . S
O2423 Ho2392 2.305 . S
O2423 Ho2393 2.669 . S
O2423 C2411 1.256 . S
H2424 C2397 0.930 . S
H2425 C2398 0.931 . S
H2426 C2400 0.934 . S
H2427 C2401 0.930 . S
H2428 C2406 0.930 . S
H2429 C2407 0.931 . S
H2430 C2409 0.934 . S
H2431 C2410 0.930 . S
Ho2432 C2435 2.797 1_554 S
Ho2432 O2452 2.322 1_554 S
Ho2432 O2454 2.378 . S
Ho2432 O2455 2.524 1_554 S
Ho2432 O2456 2.381 . S
Ho2432 O2457 2.669 . S
Ho2432 O2459 2.346 . S
Ho2432 O2463 2.305 . S
Ho2433 C2444 2.828 . S
Ho2433 O2453 2.321 1_554 S
Ho2433 O2457 2.315 . S
Ho2433 O2458 2.348 . S
Ho2433 O2460 2.388 . S
Ho2433 O2461 2.545 . S
Ho2433 O2462 2.379 . S
Ho2433 O2463 2.667 . S
C2434 O2452 1.259 . S
C2434 O2453 1.268 . S
C2435 Ho2432 2.797 1_556 S
C2435 C2436 1.503 . S
C2435 O2454 1.199 1_556 S
C2435 O2455 1.293 . S
C2436 C2435 1.503 . S
C2436 C2437 1.348 . S
C2436 C2441 1.413 . S
C2437 C2436 1.348 . S
C2437 C2438 1.442 . S
C2437 H2464 0.930 . S
C2438 C2437 1.442 . S
C2438 C2439 1.381 . S
C2438 H2465 0.931 . S
C2439 C2438 1.381 . S
C2439 C2440 1.321 . S
C2440 C2439 1.321 . S
C2440 C2441 1.403 . S
C2440 H2466 0.934 . S
C2441 C2436 1.413 . S
C2441 C2440 1.403 . S
C2441 H2467 0.930 . S
C2442 O2456 1.275 . S
C2442 O2457 1.256 . S
C2443 O2458 1.259 . S
C2443 O2459 1.268 . S
C2444 Ho2433 2.828 . S
C2444 C2445 1.488 . S
C2444 O2460 1.215 . S
C2444 O2461 1.289 . S
C2445 C2444 1.488 . S
C2445 C2446 1.348 . S
C2445 C2450 1.413 . S
C2446 C2445 1.348 . S
C2446 C2447 1.442 . S
C2446 H2468 0.930 . S
C2447 C2446 1.442 . S
C2447 C2448 1.381 . S
C2447 H2469 0.931 . S
C2448 C2447 1.381 . S
C2448 C2449 1.321 . S
C2449 C2448 1.321 . S
C2449 C2450 1.403 . S
C2449 H2470 0.934 . S
C2450 C2445 1.413 . S
C2450 C2449 1.403 . S
C2450 H2471 0.930 . S
C2451 O2462 1.275 . S
C2451 O2463 1.256 . S
O2452 Ho2432 2.322 1_556 S
O2452 C2434 1.259 . S
O2453 Ho2433 2.321 1_556 S
O2453 C2434 1.268 . S
O2454 Ho2432 2.378 . S
O2454 C2435 1.199 1_554 S
O2455 Ho2432 2.524 1_556 S
O2455 C2435 1.293 . S
O2456 Ho2432 2.381 . S
O2456 C2442 1.275 . S
O2457 Ho2432 2.669 . S
O2457 Ho2433 2.315 . S
O2457 C2442 1.256 . S
O2458 Ho2433 2.348 . S
O2458 C2443 1.259 . S
O2459 Ho2432 2.346 . S
O2459 C2443 1.268 . S
O2460 Ho2433 2.388 . S
O2460 C2444 1.215 . S
O2461 Ho2433 2.545 . S
O2461 C2444 1.289 . S
O2462 Ho2433 2.379 . S
O2462 C2451 1.275 . S
O2463 Ho2432 2.305 . S
O2463 Ho2433 2.667 . S
O2463 C2451 1.256 . S
H2464 C2437 0.930 . S
H2465 C2438 0.931 . S
H2466 C2440 0.934 . S
H2467 C2441 0.930 . S
H2468 C2446 0.930 . S
H2469 C2447 0.931 . S
H2470 C2449 0.934 . S
H2471 C2450 0.930 . S
Ho2472 C2475 2.811 . S
Ho2472 O2492 2.322 . S
Ho2472 O2494 2.378 . S
Ho2472 O2495 2.524 . S
Ho2472 O2496 2.381 . S
Ho2472 O2497 2.669 . S
Ho2472 O2499 2.346 . S
Ho2472 O2503 2.305 . S
Ho2473 C2484 2.811 . S
Ho2473 O2493 2.346 . S
Ho2473 O2497 2.305 . S
Ho2473 O2498 2.322 . S
Ho2473 O2500 2.378 . S
Ho2473 O2501 2.524 . S
Ho2473 O2502 2.381 . S
Ho2473 O2503 2.669 . S
C2474 O2492 1.259 . S
C2474 O2493 1.268 . S
C2475 Ho2472 2.811 . S
C2475 C2476 1.488 . S
C2475 O2494 1.215 . S
C2475 O2495 1.289 . S
C2476 C2475 1.488 . S
C2476 C2477 1.348 . S
C2476 C2481 1.413 . S
C2477 C2476 1.348 . S
C2477 C2478 1.442 . S
C2477 H2504 0.930 . S
C2478 C2477 1.442 . S
C2478 C2479 1.381 . S
C2478 H2505 0.931 . S
C2479 C2478 1.381 . S
C2479 C2480 1.321 . S
C2480 C2479 1.321 . S
C2480 C2481 1.403 . S
C2480 H2506 0.934 . S
C2481 C2476 1.413 . S
C2481 C2480 1.403 . S
C2481 H2507 0.930 . S
C2482 O2496 1.275 . S
C2482 O2497 1.256 . S
C2483 O2498 1.259 . S
C2483 O2499 1.268 . S
C2484 Ho2473 2.811 . S
C2484 C2485 1.488 . S
C2484 O2500 1.215 . S
C2484 O2501 1.289 . S
C2485 C2484 1.488 . S
C2485 C2486 1.348 . S
C2485 C2490 1.413 . S
C2486 C2485 1.348 . S
C2486 C2487 1.442 . S
C2486 H2508 0.930 . S
C2487 C2486 1.442 . S
C2487 C2488 1.381 . S
C2487 H2509 0.931 . S
C2488 C2487 1.381 . S
C2488 C2489 1.321 . S
C2489 C2488 1.321 . S
C2489 C2490 1.403 . S
C2489 H2510 0.934 . S
C2490 C2485 1.413 . S
C2490 C2489 1.403 . S
C2490 H2511 0.930 . S
C2491 O2502 1.275 . S
C2491 O2503 1.256 . S
O2492 Ho2472 2.322 . S
O2492 C2474 1.259 . S
O2493 Ho2473 2.346 . S
O2493 C2474 1.268 . S
O2494 Ho2472 2.378 . S
O2494 C2475 1.215 . S
O2495 Ho2472 2.524 . S
O2495 C2475 1.289 . S
O2496 Ho2472 2.381 . S
O2496 C2482 1.275 . S
O2497 Ho2472 2.669 . S
O2497 Ho2473 2.305 . S
O2497 C2482 1.256 . S
O2498 Ho2473 2.322 . S
O2498 C2483 1.259 . S
O2499 Ho2472 2.346 . S
O2499 C2483 1.268 . S
O2500 Ho2473 2.378 . S
O2500 C2484 1.215 . S
O2501 Ho2473 2.524 . S
O2501 C2484 1.289 . S
O2502 Ho2473 2.381 . S
O2502 C2491 1.275 . S
O2503 Ho2472 2.305 . S
O2503 Ho2473 2.669 . S
O2503 C2491 1.256 . S
H2504 C2477 0.930 . S
H2505 C2478 0.931 . S
H2506 C2480 0.934 . S
H2507 C2481 0.930 . S
H2508 C2486 0.930 . S
H2509 C2487 0.931 . S
H2510 C2489 0.934 . S
H2511 C2490 0.930 . S
Ho2512 C2515 2.811 . S
Ho2512 O2532 2.322 . S
Ho2512 O2534 2.378 . S
Ho2512 O2535 2.524 . S
Ho2512 O2536 2.381 . S
Ho2512 O2537 2.669 . S
Ho2512 O2539 2.346 . S
Ho2512 O2543 2.305 . S
Ho2513 C2524 2.811 . S
Ho2513 O2533 2.346 . S
Ho2513 O2537 2.305 . S
Ho2513 O2538 2.322 . S
Ho2513 O2540 2.378 . S
Ho2513 O2541 2.524 . S
Ho2513 O2542 2.381 . S
Ho2513 O2543 2.669 . S
C2514 O2532 1.259 . S
C2514 O2533 1.268 . S
C2515 Ho2512 2.811 . S
C2515 C2516 1.488 . S
C2515 O2534 1.215 . S
C2515 O2535 1.289 . S
C2516 C2515 1.488 . S
C2516 C2517 1.376 . S
C2516 C2521 1.413 . S
C2517 C2516 1.376 . S
C2517 C2518 1.424 1_455 S
C2517 H2544 0.908 1_455 S
C2518 C2517 1.424 1_655 S
C2518 C2519 1.381 . S
C2518 H2545 0.931 . S
C2519 C2518 1.381 . S
C2519 C2520 1.321 1_655 S
C2520 C2519 1.321 1_455 S
C2520 C2521 1.403 . S
C2520 H2546 0.934 . S
C2521 C2516 1.413 . S
C2521 C2520 1.403 . S
C2521 H2547 0.930 . S
C2522 O2536 1.275 . S
C2522 O2537 1.256 . S
C2523 O2538 1.259 . S
C2523 O2539 1.268 . S
C2524 Ho2513 2.811 . S
C2524 C2525 1.488 . S
C2524 O2540 1.215 . S
C2524 O2541 1.289 . S
C2525 C2524 1.488 . S
C2525 C2526 1.348 . S
C2525 C2530 1.413 . S
C2526 C2525 1.348 . S
C2526 C2527 1.442 . S
C2526 H2548 0.930 . S
C2527 C2526 1.442 . S
C2527 C2528 1.381 . S
C2527 H2549 0.931 . S
C2528 C2527 1.381 . S
C2528 C2529 1.321 . S
C2529 C2528 1.321 . S
C2529 C2530 1.403 . S
C2529 H2550 0.934 . S
C2530 C2525 1.413 . S
C2530 C2529 1.403 . S
C2530 H2551 0.930 . S
C2531 O2542 1.275 . S
C2531 O2543 1.256 . S
O2532 Ho2512 2.322 . S
O2532 C2514 1.259 . S
O2533 Ho2513 2.346 . S
O2533 C2514 1.268 . S
O2534 Ho2512 2.378 . S
O2534 C2515 1.215 . S
O2535 Ho2512 2.524 . S
O2535 C2515 1.289 . S
O2536 Ho2512 2.381 . S
O2536 C2522 1.275 . S
O2537 Ho2512 2.669 . S
O2537 Ho2513 2.305 . S
O2537 C2522 1.256 . S
O2538 Ho2513 2.322 . S
O2538 C2523 1.259 . S
O2539 Ho2512 2.346 . S
O2539 C2523 1.268 . S
O2540 Ho2513 2.378 . S
O2540 C2524 1.215 . S
O2541 Ho2513 2.524 . S
O2541 C2524 1.289 . S
O2542 Ho2513 2.381 . S
O2542 C2531 1.275 . S
O2543 Ho2512 2.305 . S
O2543 Ho2513 2.669 . S
O2543 C2531 1.256 . S
H2544 C2517 0.908 1_655 S
H2545 C2518 0.931 . S
H2546 C2520 0.934 . S
H2547 C2521 0.930 . S
H2548 C2526 0.930 . S
H2549 C2527 0.931 . S
H2550 C2529 0.934 . S
H2551 C2530 0.930 . S
Ho2552 C2555 2.811 . S
Ho2552 O2572 2.322 . S
Ho2552 O2574 2.378 . S
Ho2552 O2575 2.524 . S
Ho2552 O2576 2.381 . S
Ho2552 O2577 2.669 . S
Ho2552 O2579 2.346 . S
Ho2552 O2583 2.305 . S
Ho2553 C2564 2.811 . S
Ho2553 O2573 2.346 . S
Ho2553 O2577 2.305 . S
Ho2553 O2578 2.322 . S
Ho2553 O2580 2.378 . S
Ho2553 O2581 2.524 . S
Ho2553 O2582 2.381 . S
Ho2553 O2583 2.669 . S
C2554 O2572 1.259 . S
C2554 O2573 1.268 . S
C2555 Ho2552 2.811 . S
C2555 C2556 1.488 . S
C2555 O2574 1.215 . S
C2555 O2575 1.289 . S
C2556 C2555 1.488 . S
C2556 C2557 1.348 . S
C2556 C2561 1.413 . S
C2557 C2556 1.348 . S
C2557 C2558 1.442 . S
C2557 H2584 0.930 . S
C2558 C2557 1.442 . S
C2558 C2559 1.381 . S
C2558 H2585 0.931 . S
C2559 C2558 1.381 . S
C2559 C2560 1.321 . S
C2560 C2559 1.321 . S
C2560 C2561 1.403 . S
C2560 H2586 0.934 . S
C2561 C2556 1.413 . S
C2561 C2560 1.403 . S
C2561 H2587 0.930 . S
C2562 O2576 1.275 . S
C2562 O2577 1.256 . S
C2563 O2578 1.259 . S
C2563 O2579 1.268 . S
C2564 Ho2553 2.811 . S
C2564 C2565 1.488 . S
C2564 O2580 1.215 . S
C2564 O2581 1.289 . S
C2565 C2564 1.488 . S
C2565 C2566 1.348 . S
C2565 C2570 1.413 . S
C2566 C2565 1.348 . S
C2566 C2567 1.442 . S
C2566 H2588 0.930 . S
C2567 C2566 1.442 . S
C2567 C2568 1.381 . S
C2567 H2589 0.931 . S
C2568 C2567 1.381 . S
C2568 C2569 1.321 . S
C2569 C2568 1.321 . S
C2569 C2570 1.403 . S
C2569 H2590 0.934 . S
C2570 C2565 1.413 . S
C2570 C2569 1.403 . S
C2570 H2591 0.930 . S
C2571 O2582 1.275 . S
C2571 O2583 1.256 . S
O2572 Ho2552 2.322 . S
O2572 C2554 1.259 . S
O2573 Ho2553 2.346 . S
O2573 C2554 1.268 . S
O2574 Ho2552 2.378 . S
O2574 C2555 1.215 . S
O2575 Ho2552 2.524 . S
O2575 C2555 1.289 . S
O2576 Ho2552 2.381 . S
O2576 C2562 1.275 . S
O2577 Ho2552 2.669 . S
O2577 Ho2553 2.305 . S
O2577 C2562 1.256 . S
O2578 Ho2553 2.322 . S
O2578 C2563 1.259 . S
O2579 Ho2552 2.346 . S
O2579 C2563 1.268 . S
O2580 Ho2553 2.378 . S
O2580 C2564 1.215 . S
O2581 Ho2553 2.524 . S
O2581 C2564 1.289 . S
O2582 Ho2553 2.381 . S
O2582 C2571 1.275 . S
O2583 Ho2552 2.305 . S
O2583 Ho2553 2.669 . S
O2583 C2571 1.256 . S
H2584 C2557 0.930 . S
H2585 C2558 0.931 . S
H2586 C2560 0.934 . S
H2587 C2561 0.930 . S
H2588 C2566 0.930 . S
H2589 C2567 0.931 . S
H2590 C2569 0.934 . S
H2591 C2570 0.930 . S
Ho2592 C2595 2.811 . S
Ho2592 O2612 2.322 . S
Ho2592 O2614 2.378 . S
Ho2592 O2615 2.524 . S
Ho2592 O2616 2.381 . S
Ho2592 O2617 2.669 . S
Ho2592 O2619 2.346 . S
Ho2592 O2623 2.305 . S
Ho2593 C2604 2.811 . S
Ho2593 O2613 2.346 . S
Ho2593 O2617 2.305 . S
Ho2593 O2618 2.322 . S
Ho2593 O2620 2.378 . S
Ho2593 O2621 2.524 . S
Ho2593 O2622 2.381 . S
Ho2593 O2623 2.669 . S
C2594 O2612 1.259 . S
C2594 O2613 1.268 . S
C2595 Ho2592 2.811 . S
C2595 C2596 1.488 . S
C2595 O2614 1.215 . S
C2595 O2615 1.289 . S
C2596 C2595 1.488 . S
C2596 C2597 1.348 . S
C2596 C2601 1.413 . S
C2597 C2596 1.348 . S
C2597 C2598 1.442 . S
C2597 H2624 0.930 . S
C2598 C2597 1.442 . S
C2598 C2599 1.381 . S
C2598 H2625 0.931 . S
C2599 C2598 1.381 . S
C2599 C2600 1.321 . S
C2600 C2599 1.321 . S
C2600 C2601 1.403 . S
C2600 H2626 0.934 . S
C2601 C2596 1.413 . S
C2601 C2600 1.403 . S
C2601 H2627 0.930 . S
C2602 O2616 1.275 . S
C2602 O2617 1.256 . S
C2603 O2618 1.259 . S
C2603 O2619 1.268 . S
C2604 Ho2593 2.811 . S
C2604 C2605 1.488 . S
C2604 O2620 1.215 . S
C2604 O2621 1.289 . S
C2605 C2604 1.488 . S
C2605 C2606 1.348 . S
C2605 C2610 1.413 . S
C2606 C2605 1.348 . S
C2606 C2607 1.442 . S
C2606 H2628 0.930 . S
C2607 C2606 1.442 . S
C2607 C2608 1.381 . S
C2607 H2629 0.931 . S
C2608 C2607 1.381 . S
C2608 C2609 1.321 . S
C2609 C2608 1.321 . S
C2609 C2610 1.403 . S
C2609 H2630 0.934 . S
C2610 C2605 1.413 . S
C2610 C2609 1.403 . S
C2610 H2631 0.930 . S
C2611 O2622 1.275 . S
C2611 O2623 1.256 . S
O2612 Ho2592 2.322 . S
O2612 C2594 1.259 . S
O2613 Ho2593 2.346 . S
O2613 C2594 1.268 . S
O2614 Ho2592 2.378 . S
O2614 C2595 1.215 . S
O2615 Ho2592 2.524 . S
O2615 C2595 1.289 . S
O2616 Ho2592 2.381 . S
O2616 C2602 1.275 . S
O2617 Ho2592 2.669 . S
O2617 Ho2593 2.305 . S
O2617 C2602 1.256 . S
O2618 Ho2593 2.322 . S
O2618 C2603 1.259 . S
O2619 Ho2592 2.346 . S
O2619 C2603 1.268 . S
O2620 Ho2593 2.378 . S
O2620 C2604 1.215 . S
O2621 Ho2593 2.524 . S
O2621 C2604 1.289 . S
O2622 Ho2593 2.381 . S
O2622 C2611 1.275 . S
O2623 Ho2592 2.305 . S
O2623 Ho2593 2.669 . S
O2623 C2611 1.256 . S
H2624 C2597 0.930 . S
H2625 C2598 0.931 . S
H2626 C2600 0.934 . S
H2627 C2601 0.930 . S
H2628 C2606 0.930 . S
H2629 C2607 0.931 . S
H2630 C2609 0.934 . S
H2631 C2610 0.930 . S
Ho2632 C2635 2.811 . S
Ho2632 O2652 2.322 . S
Ho2632 O2654 2.378 . S
Ho2632 O2655 2.524 . S
Ho2632 O2656 2.381 . S
Ho2632 O2657 2.669 . S
Ho2632 O2659 2.346 . S
Ho2632 O2663 2.305 . S
Ho2633 C2644 2.811 . S
Ho2633 O2653 2.346 . S
Ho2633 O2657 2.305 . S
Ho2633 O2658 2.322 . S
Ho2633 O2660 2.378 . S
Ho2633 O2661 2.524 . S
Ho2633 O2662 2.381 . S
Ho2633 O2663 2.669 . S
C2634 O2652 1.259 . S
C2634 O2653 1.268 . S
C2635 Ho2632 2.811 . S
C2635 C2636 1.488 . S
C2635 O2654 1.215 . S
C2635 O2655 1.289 . S
C2636 C2635 1.488 . S
C2636 C2637 1.348 . S
C2636 C2641 1.413 . S
C2637 C2636 1.348 . S
C2637 C2638 1.442 . S
C2637 H2664 0.930 . S
C2638 C2637 1.442 . S
C2638 C2639 1.381 . S
C2638 H2665 0.931 . S
C2639 C2638 1.381 . S
C2639 C2640 1.321 . S
C2640 C2639 1.321 . S
C2640 C2641 1.403 . S
C2640 H2666 0.934 . S
C2641 C2636 1.413 . S
C2641 C2640 1.403 . S
C2641 H2667 0.930 . S
C2642 O2656 1.275 . S
C2642 O2657 1.256 . S
C2643 O2658 1.259 . S
C2643 O2659 1.268 . S
C2644 Ho2633 2.811 . S
C2644 C2645 1.488 . S
C2644 O2660 1.215 . S
C2644 O2661 1.289 . S
C2645 C2644 1.488 . S
C2645 C2646 1.348 . S
C2645 C2650 1.413 . S
C2646 C2645 1.348 . S
C2646 C2647 1.442 . S
C2646 H2668 0.930 . S
C2647 C2646 1.442 . S
C2647 C2648 1.381 . S
C2647 H2669 0.931 . S
C2648 C2647 1.381 . S
C2648 C2649 1.321 . S
C2649 C2648 1.321 . S
C2649 C2650 1.403 . S
C2649 H2670 0.934 . S
C2650 C2645 1.413 . S
C2650 C2649 1.403 . S
C2650 H2671 0.930 . S
C2651 O2662 1.275 . S
C2651 O2663 1.256 . S
O2652 Ho2632 2.322 . S
O2652 C2634 1.259 . S
O2653 Ho2633 2.346 . S
O2653 C2634 1.268 . S
O2654 Ho2632 2.378 . S
O2654 C2635 1.215 . S
O2655 Ho2632 2.524 . S
O2655 C2635 1.289 . S
O2656 Ho2632 2.381 . S
O2656 C2642 1.275 . S
O2657 Ho2632 2.669 . S
O2657 Ho2633 2.305 . S
O2657 C2642 1.256 . S
O2658 Ho2633 2.322 . S
O2658 C2643 1.259 . S
O2659 Ho2632 2.346 . S
O2659 C2643 1.268 . S
O2660 Ho2633 2.378 . S
O2660 C2644 1.215 . S
O2661 Ho2633 2.524 . S
O2661 C2644 1.289 . S
O2662 Ho2633 2.381 . S
O2662 C2651 1.275 . S
O2663 Ho2632 2.305 . S
O2663 Ho2633 2.669 . S
O2663 C2651 1.256 . S
H2664 C2637 0.930 . S
H2665 C2638 0.931 . S
H2666 C2640 0.934 . S
H2667 C2641 0.930 . S
H2668 C2646 0.930 . S
H2669 C2647 0.931 . S
H2670 C2649 0.934 . S
H2671 C2650 0.930 . S
Ho2672 C2675 2.811 . S
Ho2672 O2692 2.322 . S
Ho2672 O2694 2.378 . S
Ho2672 O2695 2.524 . S
Ho2672 O2696 2.381 . S
Ho2672 O2697 2.669 . S
Ho2672 O2699 2.346 . S
Ho2672 O2703 2.305 . S
Ho2673 C2684 2.811 . S
Ho2673 O2693 2.346 . S
Ho2673 O2697 2.305 . S
Ho2673 O2698 2.322 . S
Ho2673 O2700 2.378 . S
Ho2673 O2701 2.524 . S
Ho2673 O2702 2.381 . S
Ho2673 O2703 2.669 . S
C2674 O2692 1.259 . S
C2674 O2693 1.268 . S
C2675 Ho2672 2.811 . S
C2675 C2676 1.488 . S
C2675 O2694 1.215 . S
C2675 O2695 1.289 . S
C2676 C2675 1.488 . S
C2676 C2677 1.348 . S
C2676 C2681 1.413 . S
C2677 C2676 1.348 . S
C2677 C2678 1.442 . S
C2677 H2704 0.930 . S
C2678 C2677 1.442 . S
C2678 C2679 1.381 . S
C2678 H2705 0.931 . S
C2679 C2678 1.381 . S
C2679 C2680 1.321 . S
C2680 C2679 1.321 . S
C2680 C2681 1.403 . S
C2680 H2706 0.934 . S
C2681 C2676 1.413 . S
C2681 C2680 1.403 . S
C2681 H2707 0.930 . S
C2682 O2696 1.275 . S
C2682 O2697 1.256 . S
C2683 O2698 1.259 . S
C2683 O2699 1.268 . S
C2684 Ho2673 2.811 . S
C2684 C2685 1.488 . S
C2684 O2700 1.215 . S
C2684 O2701 1.289 . S
C2685 C2684 1.488 . S
C2685 C2686 1.348 . S
C2685 C2690 1.413 . S
C2686 C2685 1.348 . S
C2686 C2687 1.442 . S
C2686 H2708 0.930 . S
C2687 C2686 1.442 . S
C2687 C2688 1.381 . S
C2687 H2709 0.931 . S
C2688 C2687 1.381 . S
C2688 C2689 1.321 . S
C2689 C2688 1.321 . S
C2689 C2690 1.403 . S
C2689 H2710 0.934 . S
C2690 C2685 1.413 . S
C2690 C2689 1.403 . S
C2690 H2711 0.930 . S
C2691 O2702 1.275 . S
C2691 O2703 1.256 . S
O2692 Ho2672 2.322 . S
O2692 C2674 1.259 . S
O2693 Ho2673 2.346 . S
O2693 C2674 1.268 . S
O2694 Ho2672 2.378 . S
O2694 C2675 1.215 . S
O2695 Ho2672 2.524 . S
O2695 C2675 1.289 . S
O2696 Ho2672 2.381 . S
O2696 C2682 1.275 . S
O2697 Ho2672 2.669 . S
O2697 Ho2673 2.305 . S
O2697 C2682 1.256 . S
O2698 Ho2673 2.322 . S
O2698 C2683 1.259 . S
O2699 Ho2672 2.346 . S
O2699 C2683 1.268 . S
O2700 Ho2673 2.378 . S
O2700 C2684 1.215 . S
O2701 Ho2673 2.524 . S
O2701 C2684 1.289 . S
O2702 Ho2673 2.381 . S
O2702 C2691 1.275 . S
O2703 Ho2672 2.305 . S
O2703 Ho2673 2.669 . S
O2703 C2691 1.256 . S
H2704 C2677 0.930 . S
H2705 C2678 0.931 . S
H2706 C2680 0.934 . S
H2707 C2681 0.930 . S
H2708 C2686 0.930 . S
H2709 C2687 0.931 . S
H2710 C2689 0.934 . S
H2711 C2690 0.930 . S
Ho2712 C2715 2.807 1_554 S
Ho2712 O2732 2.321 1_554 S
Ho2712 O2734 2.354 1_554 S
Ho2712 O2735 2.541 . S
Ho2712 O2736 2.340 1_554 S
Ho2712 O2737 2.661 1_554 S
Ho2712 O2739 2.352 . S
Ho2712 O2743 2.347 . S
Ho2713 C2724 2.811 1_455 S
Ho2713 O2733 2.346 . S
Ho2713 O2737 2.305 1_554 S
Ho2713 O2738 2.322 . S
Ho2713 O2740 2.378 1_455 S
Ho2713 O2741 2.524 1_455 S
Ho2713 O2742 2.381 . S
Ho2713 O2743 2.669 . S
C2714 O2732 1.227 1_554 S
C2714 O2733 1.292 . S
C2715 Ho2712 2.807 1_556 S
C2715 C2716 1.488 . S
C2715 O2734 1.215 . S
C2715 O2735 1.289 1_556 S
C2716 C2715 1.488 . S
C2716 C2717 1.348 1_556 S
C2716 C2721 1.413 . S
C2717 C2716 1.348 1_554 S
C2717 C2718 1.446 . S
C2717 H2744 0.930 . S
C2718 C2717 1.446 . S
C2718 C2719 1.357 1_554 S
C2718 H2745 0.950 . S
C2719 C2718 1.357 1_556 S
C2719 C2720 1.321 . S
C2720 C2719 1.321 . S
C2720 C2721 1.403 . S
C2720 H2746 0.934 . S
C2721 C2716 1.413 . S
C2721 C2720 1.403 . S
C2721 H2747 0.930 . S
C2722 O2736 1.275 . S
C2722 O2737 1.256 . S
C2723 O2738 1.259 . S
C2723 O2739 1.268 . S
C2724 Ho2713 2.811 1_655 S
C2724 C2725 1.488 . S
C2724 O2740 1.215 . S
C2724 O2741 1.289 . S
C2725 C2724 1.488 . S
C2725 C2726 1.348 . S
C2725 C2730 1.413 . S
C2726 C2725 1.348 . S
C2726 C2727 1.442 . S
C2726 H2748 0.930 . S
C2727 C2726 1.442 . S
C2727 C2728 1.381 . S
C2727 H2749 0.931 . S
C2728 C2727 1.381 . S
C2728 C2729 1.321 . S
C2729 C2728 1.321 . S
C2729 C2730 1.403 . S
C2729 H2750 0.934 . S
C2730 C2725 1.413 . S
C2730 C2729 1.403 . S
C2730 H2751 0.930 . S
C2731 O2742 1.275 . S
C2731 O2743 1.256 . S
O2732 Ho2712 2.321 1_556 S
O2732 C2714 1.227 1_556 S
O2733 Ho2713 2.346 . S
O2733 C2714 1.292 . S
O2734 Ho2712 2.354 1_556 S
O2734 C2715 1.215 . S
O2735 Ho2712 2.541 . S
O2735 C2715 1.289 1_554 S
O2736 Ho2712 2.340 1_556 S
O2736 C2722 1.275 . S
O2737 Ho2712 2.661 1_556 S
O2737 Ho2713 2.305 1_556 S
O2737 C2722 1.256 . S
O2738 Ho2713 2.322 . S
O2738 C2723 1.259 . S
O2739 Ho2712 2.352 . S
O2739 C2723 1.268 . S
O2740 Ho2713 2.378 1_655 S
O2740 C2724 1.215 . S
O2741 Ho2713 2.524 1_655 S
O2741 C2724 1.289 . S
O2742 Ho2713 2.381 . S
O2742 C2731 1.275 . S
O2743 Ho2712 2.347 . S
O2743 Ho2713 2.669 . S
O2743 C2731 1.256 . S
H2744 C2717 0.930 . S
H2745 C2718 0.950 . S
H2746 C2720 0.934 . S
H2747 C2721 0.930 . S
H2748 C2726 0.930 . S
H2749 C2727 0.931 . S
H2750 C2729 0.934 . S
H2751 C2730 0.930 . S
H2752 C2758 0.930 1_655 S
H2753 C2761 0.930 . S
H2754 C2762 0.930 . S
H2755 C2763 0.930 . S
H2756 C2766 0.930 . S
H2757 C2767 0.930 1_655 S
C2758 H2752 0.930 1_455 S
C2758 C2759 1.355 . S
C2758 C2760 1.415 . S
C2759 C2758 1.355 . S
C2759 C2761 1.419 . S
C2760 C2758 1.415 . S
C2760 C2765 1.425 . S
C2760 C2767 1.409 1_556 S
C2761 H2753 0.930 . S
C2761 C2759 1.419 . S
C2761 C2762 1.362 . S
C2762 H2754 0.930 . S
C2762 C2761 1.362 . S
C2762 C2765 1.409 . S
C2763 H2755 0.930 . S
C2763 C2764 1.366 . S
C2763 C2765 1.415 . S
C2764 C2763 1.366 . S
C2764 C2766 1.412 1_556 S
C2765 C2760 1.425 . S
C2765 C2762 1.409 . S
C2765 C2763 1.415 . S
C2766 H2756 0.930 . S
C2766 C2764 1.412 1_554 S
C2766 C2767 1.362 . S
C2767 H2757 0.930 1_455 S
C2767 C2760 1.409 1_554 S
C2767 C2766 1.362 . S
H2768 C2774 0.930 . S
H2769 C2777 0.930 . S
H2770 C2778 0.930 . S
H2771 C2779 0.930 . S
H2772 C2782 0.930 . S
H2773 C2783 0.930 . S
C2774 H2768 0.930 . S
C2774 C2775 1.355 . S
C2774 C2776 1.415 . S
C2775 C2774 1.355 . S
C2775 C2777 1.419 . S
C2776 C2774 1.415 . S
C2776 C2781 1.425 . S
C2776 C2783 1.409 . S
C2777 H2769 0.930 . S
C2777 C2775 1.419 . S
C2777 C2778 1.362 . S
C2778 H2770 0.930 . S
C2778 C2777 1.362 . S
C2778 C2781 1.409 . S
C2779 H2771 0.930 . S
C2779 C2780 1.355 . S
C2779 C2781 1.415 . S
C2780 C2779 1.355 . S
C2780 C2782 1.419 . S
C2781 C2776 1.425 . S
C2781 C2778 1.409 . S
C2781 C2779 1.415 . S
C2782 H2772 0.930 . S
C2782 C2780 1.419 . S
C2782 C2783 1.362 . S
C2783 H2773 0.930 . S
C2783 C2776 1.409 . S
C2783 C2782 1.362 . S
H2784 C2790 0.930 . S
H2785 C2793 0.930 . S
H2786 C2794 0.930 . S
H2787 C2795 0.930 . S
H2788 C2798 0.930 . S
H2789 C2799 0.930 . S
C2790 H2784 0.930 . S
C2790 C2791 1.355 . S
C2790 C2792 1.415 . S
C2791 C2790 1.355 . S
C2791 C2793 1.419 . S
C2792 C2790 1.415 . S
C2792 C2797 1.425 . S
C2792 C2799 1.409 . S
C2793 H2785 0.930 . S
C2793 C2791 1.419 . S
C2793 C2794 1.362 . S
C2794 H2786 0.930 . S
C2794 C2793 1.362 . S
C2794 C2797 1.409 . S
C2795 H2787 0.930 . S
C2795 C2796 1.355 . S
C2795 C2797 1.415 . S
C2796 C2795 1.355 . S
C2796 C2798 1.419 . S
C2797 C2792 1.425 . S
C2797 C2794 1.409 . S
C2797 C2795 1.415 . S
C2798 H2788 0.930 . S
C2798 C2796 1.419 . S
C2798 C2799 1.362 . S
C2799 H2789 0.930 . S
C2799 C2792 1.409 . S
C2799 C2798 1.362 . S
H2800 C2806 0.930 . S
H2801 C2809 0.930 . S
H2802 C2810 0.930 . S
H2803 C2811 0.930 . S
H2804 C2814 0.930 . S
H2805 C2815 0.930 . S
C2806 H2800 0.930 . S
C2806 C2807 1.355 . S
C2806 C2808 1.415 . S
C2807 C2806 1.355 . S
C2807 C2809 1.419 . S
C2808 C2806 1.415 . S
C2808 C2813 1.425 . S
C2808 C2815 1.409 . S
C2809 H2801 0.930 . S
C2809 C2807 1.419 . S
C2809 C2810 1.362 . S
C2810 H2802 0.930 . S
C2810 C2809 1.362 . S
C2810 C2813 1.409 . S
C2811 H2803 0.930 . S
C2811 C2812 1.355 . S
C2811 C2813 1.415 . S
C2812 C2811 1.355 . S
C2812 C2814 1.419 . S
C2813 C2808 1.425 . S
C2813 C2810 1.409 . S
C2813 C2811 1.415 . S
C2814 H2804 0.930 . S
C2814 C2812 1.419 . S
C2814 C2815 1.362 . S
C2815 H2805 0.930 . S
C2815 C2808 1.409 . S
C2815 C2814 1.362 . S
H2816 C2822 0.930 . S
H2817 C2825 0.930 1_655 S
H2818 C2826 0.930 . S
H2819 C2827 0.930 . S
H2820 C2830 0.930 . S
H2821 C2831 0.930 . S
C2822 H2816 0.930 . S
C2822 C2823 1.355 . S
C2822 C2824 1.415 . S
C2823 C2822 1.355 . S
C2823 C2825 1.419 . S
C2824 C2822 1.415 . S
C2824 C2829 1.425 . S
C2824 C2831 1.409 . S
C2825 H2817 0.930 1_455 S
C2825 C2823 1.419 . S
C2825 C2826 1.362 . S
C2826 H2818 0.930 . S
C2826 C2825 1.362 . S
C2826 C2829 1.409 . S
C2827 H2819 0.930 . S
C2827 C2828 1.355 . S
C2827 C2829 1.415 . S
C2828 C2827 1.355 . S
C2828 C2830 1.419 . S
C2829 C2824 1.425 . S
C2829 C2826 1.409 . S
C2829 C2827 1.415 . S
C2830 H2820 0.930 . S
C2830 C2828 1.419 . S
C2830 C2831 1.362 . S
C2831 H2821 0.930 . S
C2831 C2824 1.409 . S
C2831 C2830 1.362 . S
H2832 C2838 0.930 . S
H2833 C2841 0.930 . S
H2834 C2842 0.930 . S
H2835 C2843 0.930 . S
H2836 C2846 0.930 . S
H2837 C2847 0.930 . S
C2838 H2832 0.930 . S
C2838 C2839 1.355 . S
C2838 C2840 1.415 . S
C2839 C2838 1.355 . S
C2839 C2841 1.419 . S
C2840 C2838 1.415 . S
C2840 C2845 1.425 . S
C2840 C2847 1.409 . S
C2841 H2833 0.930 . S
C2841 C2839 1.419 . S
C2841 C2842 1.362 . S
C2842 H2834 0.930 . S
C2842 C2841 1.362 . S
C2842 C2845 1.409 . S
C2843 H2835 0.930 . S
C2843 C2844 1.355 . S
C2843 C2845 1.415 . S
C2844 C2843 1.355 . S
C2844 C2846 1.419 . S
C2845 C2840 1.425 . S
C2845 C2842 1.409 . S
C2845 C2843 1.415 . S
C2846 H2836 0.930 . S
C2846 C2844 1.419 . S
C2846 C2847 1.362 . S
C2847 H2837 0.930 . S
C2847 C2840 1.409 . S
C2847 C2846 1.362 . S
H2848 C2854 0.930 . S
H2849 C2857 0.930 . S
H2850 C2858 0.930 . S
H2851 C2859 0.930 . S
H2852 C2862 0.930 . S
H2853 C2863 0.930 . S
C2854 H2848 0.930 . S
C2854 C2855 1.355 . S
C2854 C2856 1.415 . S
C2855 C2854 1.355 . S
C2855 C2857 1.419 . S
C2856 C2854 1.415 . S
C2856 C2861 1.425 . S
C2856 C2863 1.409 . S
C2857 H2849 0.930 . S
C2857 C2855 1.419 . S
C2857 C2858 1.362 . S
C2858 H2850 0.930 . S
C2858 C2857 1.362 . S
C2858 C2861 1.409 . S
C2859 H2851 0.930 . S
C2859 C2860 1.355 . S
C2859 C2861 1.415 . S
C2860 C2859 1.355 . S
C2860 C2862 1.419 . S
C2861 C2856 1.425 . S
C2861 C2858 1.409 . S
C2861 C2859 1.415 . S
C2862 H2852 0.930 . S
C2862 C2860 1.419 . S
C2862 C2863 1.362 . S
C2863 H2853 0.930 . S
C2863 C2856 1.409 . S
C2863 C2862 1.362 . S
H2864 C2870 0.930 . S
H2865 C2873 0.930 . S
H2866 C2874 0.930 . S
H2867 C2875 0.930 . S
H2868 C2878 0.930 . S
H2869 C2879 0.930 . S
C2870 H2864 0.930 . S
C2870 C2871 1.355 . S
C2870 C2872 1.415 . S
C2871 C2870 1.355 . S
C2871 C2873 1.419 . S
C2872 C2870 1.415 . S
C2872 C2877 1.425 . S
C2872 C2879 1.409 . S
C2873 H2865 0.930 . S
C2873 C2871 1.419 . S
C2873 C2874 1.362 . S
C2874 H2866 0.930 . S
C2874 C2873 1.362 . S
C2874 C2877 1.409 . S
C2875 H2867 0.930 . S
C2875 C2876 1.355 . S
C2875 C2877 1.415 . S
C2876 C2875 1.355 . S
C2876 C2878 1.419 . S
C2877 C2872 1.425 . S
C2877 C2874 1.409 . S
C2877 C2875 1.415 . S
C2878 H2868 0.930 . S
C2878 C2876 1.419 . S
C2878 C2879 1.362 . S
C2879 H2869 0.930 . S
C2879 C2872 1.409 . S
C2879 C2878 1.362 . S
H2880 C2886 0.930 . S
H2881 C2889 0.930 . S
H2882 C2890 0.930 . S
H2883 C2891 0.930 . S
H2884 C2894 0.930 1_655 S
H2885 C2895 0.930 . S
C2886 H2880 0.930 . S
C2886 C2887 1.355 1_655 S
C2886 C2888 1.415 1_655 S
C2887 C2886 1.355 1_455 S
C2887 C2889 1.419 . S
C2888 C2886 1.415 1_455 S
C2888 C2893 1.425 . S
C2888 C2895 1.409 1_455 S
C2889 H2881 0.930 . S
C2889 C2887 1.419 . S
C2889 C2890 1.362 . S
C2890 H2882 0.930 . S
C2890 C2889 1.362 . S
C2890 C2893 1.409 . S
C2891 H2883 0.930 . S
C2891 C2892 1.355 . S
C2891 C2893 1.415 . S
C2892 C2891 1.355 . S
C2892 C2894 1.419 . S
C2893 C2888 1.425 . S
C2893 C2890 1.409 . S
C2893 C2891 1.415 . S
C2894 H2884 0.930 1_455 S
C2894 C2892 1.419 . S
C2894 C2895 1.362 1_455 S
C2895 H2885 0.930 . S
C2895 C2888 1.409 1_655 S
C2895 C2894 1.362 1_655 S
H2896 C2902 0.930 . S
H2897 C2905 0.930 . S
H2898 C2906 0.930 . S
H2899 C2907 0.930 . S
H2900 C2910 0.930 . S
H2901 C2911 0.930 . S
C2902 H2896 0.930 . S
C2902 C2903 1.355 . S
C2902 C2904 1.415 . S
C2903 C2902 1.355 . S
C2903 C2905 1.419 . S
C2904 C2902 1.415 . S
C2904 C2909 1.425 . S
C2904 C2911 1.409 . S
C2905 H2897 0.930 . S
C2905 C2903 1.419 . S
C2905 C2906 1.362 . S
C2906 H2898 0.930 . S
C2906 C2905 1.362 . S
C2906 C2909 1.409 . S
C2907 H2899 0.930 . S
C2907 C2908 1.355 . S
C2907 C2909 1.415 . S
C2908 C2907 1.355 . S
C2908 C2910 1.419 . S
C2909 C2904 1.425 . S
C2909 C2906 1.409 . S
C2909 C2907 1.415 . S
C2910 H2900 0.930 . S
C2910 C2908 1.419 . S
C2910 C2911 1.362 . S
C2911 H2901 0.930 . S
C2911 C2904 1.409 . S
C2911 C2910 1.362 . S
H2912 C2918 0.930 . S
H2913 C2921 0.930 . S
H2914 C2922 0.930 . S
H2915 C2923 0.930 . S
H2916 C2926 0.930 1_565 S
H2917 C2927 0.930 1_565 S
C2918 H2912 0.930 . S
C2918 C2919 1.355 . S
C2918 C2920 1.415 . S
C2919 C2918 1.355 . S
C2919 C2921 1.419 . S
C2920 C2918 1.415 . S
C2920 C2925 1.425 . S
C2920 C2927 1.409 . S
C2921 H2913 0.930 . S
C2921 C2919 1.419 . S
C2921 C2922 1.362 . S
C2922 H2914 0.930 . S
C2922 C2921 1.362 . S
C2922 C2925 1.409 . S
C2923 H2915 0.930 . S
C2923 C2924 1.355 . S
C2923 C2925 1.415 . S
C2924 C2923 1.355 . S
C2924 C2926 1.419 . S
C2925 C2920 1.425 . S
C2925 C2922 1.409 . S
C2925 C2923 1.415 . S
C2926 H2916 0.930 1_545 S
C2926 C2924 1.419 . S
C2926 C2927 1.362 . S
C2927 H2917 0.930 1_545 S
C2927 C2920 1.409 . S
C2927 C2926 1.362 . S
H2928 C2934 0.930 . S
H2929 C2937 0.930 . S
H2930 C2938 0.930 . S
H2931 C2939 0.930 . S
H2932 C2942 0.930 . S
H2933 C2943 0.930 . S
C2934 H2928 0.930 . S
C2934 C2935 1.355 . S
C2934 C2936 1.415 . S
C2935 C2934 1.355 . S
C2935 C2937 1.419 . S
C2936 C2934 1.415 . S
C2936 C2941 1.425 . S
C2936 C2943 1.409 . S
C2937 H2929 0.930 . S
C2937 C2935 1.419 . S
C2937 C2938 1.362 . S
C2938 H2930 0.930 . S
C2938 C2937 1.362 . S
C2938 C2941 1.409 . S
C2939 H2931 0.930 . S
C2939 C2940 1.355 . S
C2939 C2941 1.415 . S
C2940 C2939 1.355 . S
C2940 C2942 1.419 . S
C2941 C2936 1.425 . S
C2941 C2938 1.409 . S
C2941 C2939 1.415 . S
C2942 H2932 0.930 . S
C2942 C2940 1.419 . S
C2942 C2943 1.362 . S
C2943 H2933 0.930 . S
C2943 C2936 1.409 . S
C2943 C2942 1.362 . S
H2944 C2950 0.930 1_655 S
H2945 C2953 0.930 . S
H2946 C2954 0.930 . S
H2947 C2955 0.930 . S
H2948 C2958 0.930 . S
H2949 C2959 0.930 1_655 S
C2950 H2944 0.930 1_455 S
C2950 C2951 1.355 . S
C2950 C2952 1.415 . S
C2951 C2950 1.355 . S
C2951 C2953 1.419 . S
C2952 C2950 1.415 . S
C2952 C2957 1.425 . S
C2952 C2959 1.409 . S
C2953 H2945 0.930 . S
C2953 C2951 1.419 . S
C2953 C2954 1.362 . S
C2954 H2946 0.930 . S
C2954 C2953 1.362 . S
C2954 C2957 1.409 . S
C2955 H2947 0.930 . S
C2955 C2956 1.355 . S
C2955 C2957 1.415 . S
C2956 C2955 1.355 . S
C2956 C2958 1.419 . S
C2957 C2952 1.425 . S
C2957 C2954 1.409 . S
C2957 C2955 1.415 . S
C2958 H2948 0.930 . S
C2958 C2956 1.419 . S
C2958 C2959 1.362 . S
C2959 H2949 0.930 1_455 S
C2959 C2952 1.409 . S
C2959 C2958 1.362 . S
H2960 C2966 0.930 . S
H2961 C2969 0.930 . S
H2962 C2970 0.930 . S
H2963 C2971 0.930 . S
H2964 C2974 0.930 . S
H2965 C2975 0.930 . S
C2966 H2960 0.930 . S
C2966 C2967 1.355 . S
C2966 C2968 1.415 . S
C2967 C2966 1.355 . S
C2967 C2969 1.419 . S
C2968 C2966 1.415 . S
C2968 C2973 1.425 . S
C2968 C2975 1.409 . S
C2969 H2961 0.930 . S
C2969 C2967 1.419 . S
C2969 C2970 1.362 . S
C2970 H2962 0.930 . S
C2970 C2969 1.362 . S
C2970 C2973 1.409 . S
C2971 H2963 0.930 . S
C2971 C2972 1.355 . S
C2971 C2973 1.415 . S
C2972 C2971 1.355 . S
C2972 C2974 1.419 . S
C2973 C2968 1.425 . S
C2973 C2970 1.409 . S
C2973 C2971 1.415 . S
C2974 H2964 0.930 . S
C2974 C2972 1.419 . S
C2974 C2975 1.362 . S
C2975 H2965 0.930 . S
C2975 C2968 1.409 . S
C2975 C2974 1.362 . S
H2976 C2982 0.930 . S
H2977 C2985 0.930 . S
H2978 C2986 0.930 . S
H2979 C2987 0.930 . S
H2980 C2990 0.930 . S
H2981 C2991 0.930 . S
C2982 H2976 0.930 . S
C2982 C2983 1.355 . S
C2982 C2984 1.415 . S
C2983 C2982 1.355 . S
C2983 C2985 1.419 . S
C2984 C2982 1.415 . S
C2984 C2989 1.425 . S
C2984 C2991 1.409 . S
C2985 H2977 0.930 . S
C2985 C2983 1.419 . S
C2985 C2986 1.362 . S
C2986 H2978 0.930 . S
C2986 C2985 1.362 . S
C2986 C2989 1.409 . S
C2987 H2979 0.930 . S
C2987 C2988 1.355 . S
C2987 C2989 1.415 . S
C2988 C2987 1.355 . S
C2988 C2990 1.419 . S
C2989 C2984 1.425 . S
C2989 C2986 1.409 . S
C2989 C2987 1.415 . S
C2990 H2980 0.930 . S
C2990 C2988 1.419 . S
C2990 C2991 1.362 . S
C2991 H2981 0.930 . S
C2991 C2984 1.409 . S
C2991 C2990 1.362 . S
H2992 C2998 0.930 . S
H2993 C3001 0.930 . S
H2994 C3002 0.930 . S
H2995 C3003 0.930 . S
H2996 C3006 0.930 . S
H2997 C3007 0.930 . S
C2998 H2992 0.930 . S
C2998 C2999 1.355 . S
C2998 C3000 1.415 . S
C2999 C2998 1.355 . S
C2999 C3001 1.419 . S
C3000 C2998 1.415 . S
C3000 C3005 1.425 . S
C3000 C3007 1.409 . S
C3001 H2993 0.930 . S
C3001 C2999 1.419 . S
C3001 C3002 1.362 . S
C3002 H2994 0.930 . S
C3002 C3001 1.362 . S
C3002 C3005 1.409 . S
C3003 H2995 0.930 . S
C3003 C3004 1.355 . S
C3003 C3005 1.415 . S
C3004 C3003 1.355 . S
C3004 C3006 1.419 . S
C3005 C3000 1.425 . S
C3005 C3002 1.409 . S
C3005 C3003 1.415 . S
C3006 H2996 0.930 . S
C3006 C3004 1.419 . S
C3006 C3007 1.362 . S
C3007 H2997 0.930 . S
C3007 C3000 1.409 . S
C3007 C3006 1.362 . S
H3008 C3014 0.930 1_556 S
H3009 C3017 0.930 . S
H3010 C3018 0.930 1_545 S
H3011 C3019 0.930 1_545 S
H3012 C3022 0.930 . S
H3013 C3023 0.930 1_556 S
C3014 H3008 0.930 1_554 S
C3014 C3015 1.355 . S
C3014 C3016 1.415 . S
C3015 C3014 1.355 . S
C3015 C3017 1.419 . S
C3016 C3014 1.415 . S
C3016 C3021 1.425 . S
C3016 C3023 1.409 . S
C3017 H3009 0.930 . S
C3017 C3015 1.419 . S
C3017 C3018 1.362 . S
C3018 H3010 0.930 1_565 S
C3018 C3017 1.362 . S
C3018 C3021 1.409 . S
C3019 H3011 0.930 1_565 S
C3019 C3020 1.355 . S
C3019 C3021 1.415 . S
C3020 C3019 1.355 . S
C3020 C3022 1.419 . S
C3021 C3016 1.425 . S
C3021 C3018 1.409 . S
C3021 C3019 1.415 . S
C3022 H3012 0.930 . S
C3022 C3020 1.419 . S
C3022 C3023 1.362 . S
C3023 H3013 0.930 1_554 S
C3023 C3016 1.409 . S
C3023 C3022 1.362 . S
H3024 C3030 0.930 . S
H3025 C3033 0.930 . S
H3026 C3034 0.930 . S
H3027 C3035 0.930 . S
H3028 C3038 0.930 . S
H3029 C3039 0.930 . S
C3030 H3024 0.930 . S
C3030 C3031 1.355 . S
C3030 C3032 1.415 . S
C3031 C3030 1.355 . S
C3031 C3033 1.419 1_556 S
C3032 C3030 1.415 . S
C3032 C3037 1.425 1_556 S
C3032 C3039 1.409 . S
C3033 H3025 0.930 . S
C3033 C3031 1.419 1_554 S
C3033 C3034 1.362 . S
C3034 H3026 0.930 . S
C3034 C3033 1.362 . S
C3034 C3037 1.409 . S
C3035 H3027 0.930 . S
C3035 C3036 1.357 . S
C3035 C3037 1.415 . S
C3036 C3035 1.357 . S
C3036 C3038 1.410 1_554 S
C3037 C3032 1.425 1_554 S
C3037 C3034 1.409 . S
C3037 C3035 1.415 . S
C3038 H3028 0.930 . S
C3038 C3036 1.410 1_556 S
C3038 C3039 1.362 . S
C3039 H3029 0.930 . S
C3039 C3032 1.409 . S
C3039 C3038 1.362 . S
H3040 C3046 0.930 . S
H3041 C3049 0.930 . S
H3042 C3050 0.930 . S
H3043 C3051 0.930 . S
H3044 C3054 0.930 . S
H3045 C3055 0.930 . S
C3046 H3040 0.930 . S
C3046 C3047 1.355 . S
C3046 C3048 1.415 . S
C3047 C3046 1.355 . S
C3047 C3049 1.419 . S
C3048 C3046 1.415 . S
C3048 C3053 1.425 . S
C3048 C3055 1.409 . S
C3049 H3041 0.930 . S
C3049 C3047 1.419 . S
C3049 C3050 1.362 . S
C3050 H3042 0.930 . S
C3050 C3049 1.362 . S
C3050 C3053 1.409 . S
C3051 H3043 0.930 . S
C3051 C3052 1.355 . S
C3051 C3053 1.415 . S
C3052 C3051 1.355 . S
C3052 C3054 1.419 . S
C3053 C3048 1.425 . S
C3053 C3050 1.409 . S
C3053 C3051 1.415 . S
C3054 H3044 0.930 . S
C3054 C3052 1.419 . S
C3054 C3055 1.362 . S
C3055 H3045 0.930 . S
C3055 C3048 1.409 . S
C3055 C3054 1.362 . S
H3056 C3062 0.930 . S
H3057 C3065 0.930 . S
H3058 C3066 0.930 . S
H3059 C3067 0.930 . S
H3060 C3070 0.930 . S
H3061 C3071 0.930 . S
C3062 H3056 0.930 . S
C3062 C3063 1.355 . S
C3062 C3064 1.415 . S
C3063 C3062 1.355 . S
C3063 C3065 1.419 . S
C3064 C3062 1.415 . S
C3064 C3069 1.425 . S
C3064 C3071 1.409 . S
C3065 H3057 0.930 . S
C3065 C3063 1.419 . S
C3065 C3066 1.362 . S
C3066 H3058 0.930 . S
C3066 C3065 1.362 . S
C3066 C3069 1.409 . S
C3067 H3059 0.930 . S
C3067 C3068 1.355 . S
C3067 C3069 1.415 . S
C3068 C3067 1.355 . S
C3068 C3070 1.419 . S
C3069 C3064 1.425 . S
C3069 C3066 1.409 . S
C3069 C3067 1.415 . S
C3070 H3060 0.930 . S
C3070 C3068 1.419 . S
C3070 C3071 1.362 . S
C3071 H3061 0.930 . S
C3071 C3064 1.409 . S
C3071 C3070 1.362 . S
H3072 C3078 0.930 . S
H3073 C3081 0.930 . S
H3074 C3082 0.930 . S
H3075 C3083 0.930 . S
H3076 C3086 0.930 . S
H3077 C3087 0.930 . S
C3078 H3072 0.930 . S
C3078 C3079 1.355 . S
C3078 C3080 1.415 . S
C3079 C3078 1.355 . S
C3079 C3081 1.419 . S
C3080 C3078 1.415 . S
C3080 C3085 1.425 . S
C3080 C3087 1.409 . S
C3081 H3073 0.930 . S
C3081 C3079 1.419 . S
C3081 C3082 1.362 . S
C3082 H3074 0.930 . S
C3082 C3081 1.362 . S
C3082 C3085 1.409 . S
C3083 H3075 0.930 . S
C3083 C3084 1.355 . S
C3083 C3085 1.415 . S
C3084 C3083 1.355 . S
C3084 C3086 1.419 . S
C3085 C3080 1.425 . S
C3085 C3082 1.409 . S
C3085 C3083 1.415 . S
C3086 H3076 0.930 . S
C3086 C3084 1.419 . S
C3086 C3087 1.362 . S
C3087 H3077 0.930 . S
C3087 C3080 1.409 . S
C3087 C3086 1.362 . S
H3088 C3094 0.930 . S
H3089 C3097 0.930 . S
H3090 C3098 0.930 . S
H3091 C3099 0.930 . S
H3092 C3102 0.930 . S
H3093 C3103 0.930 . S
C3094 H3088 0.930 . S
C3094 C3095 1.355 . S
C3094 C3096 1.415 . S
C3095 C3094 1.355 . S
C3095 C3097 1.419 . S
C3096 C3094 1.415 . S
C3096 C3101 1.425 . S
C3096 C3103 1.409 . S
C3097 H3089 0.930 . S
C3097 C3095 1.419 . S
C3097 C3098 1.362 . S
C3098 H3090 0.930 . S
C3098 C3097 1.362 . S
C3098 C3101 1.409 . S
C3099 H3091 0.930 . S
C3099 C3100 1.355 . S
C3099 C3101 1.415 . S
C3100 C3099 1.355 . S
C3100 C3102 1.419 . S
C3101 C3096 1.425 . S
C3101 C3098 1.409 . S
C3101 C3099 1.415 . S
C3102 H3092 0.930 . S
C3102 C3100 1.419 . S
C3102 C3103 1.362 . S
C3103 H3093 0.930 . S
C3103 C3096 1.409 . S
C3103 C3102 1.362 . S
H3104 C3110 0.930 . S
H3105 C3113 0.930 . S
H3106 C3114 0.930 . S
H3107 C3115 0.930 . S
H3108 C3118 0.930 . S
H3109 C3119 0.930 . S
C3110 H3104 0.930 . S
C3110 C3111 1.355 . S
C3110 C3112 1.415 . S
C3111 C3110 1.355 . S
C3111 C3113 1.419 . S
C3112 C3110 1.415 . S
C3112 C3117 1.425 . S
C3112 C3119 1.409 . S
C3113 H3105 0.930 . S
C3113 C3111 1.419 . S
C3113 C3114 1.362 . S
C3114 H3106 0.930 . S
C3114 C3113 1.362 . S
C3114 C3117 1.409 . S
C3115 H3107 0.930 . S
C3115 C3116 1.355 . S
C3115 C3117 1.415 . S
C3116 C3115 1.355 . S
C3116 C3118 1.419 . S
C3117 C3112 1.425 . S
C3117 C3114 1.409 . S
C3117 C3115 1.415 . S
C3118 H3108 0.930 . S
C3118 C3116 1.419 . S
C3118 C3119 1.362 . S
C3119 H3109 0.930 . S
C3119 C3112 1.409 . S
C3119 C3118 1.362 . S
H3120 C3126 0.930 . S
H3121 C3129 0.930 . S
H3122 C3130 0.930 . S
H3123 C3131 0.930 . S
H3124 C3134 0.930 . S
H3125 C3135 0.930 . S
C3126 H3120 0.930 . S
C3126 C3127 1.355 . S
C3126 C3128 1.415 . S
C3127 C3126 1.355 . S
C3127 C3129 1.419 . S
C3128 C3126 1.415 . S
C3128 C3133 1.425 . S
C3128 C3135 1.409 . S
C3129 H3121 0.930 . S
C3129 C3127 1.419 . S
C3129 C3130 1.362 . S
C3130 H3122 0.930 . S
C3130 C3129 1.362 . S
C3130 C3133 1.409 . S
C3131 H3123 0.930 . S
C3131 C3132 1.355 . S
C3131 C3133 1.415 . S
C3132 C3131 1.355 . S
C3132 C3134 1.419 . S
C3133 C3128 1.425 . S
C3133 C3130 1.409 . S
C3133 C3131 1.415 . S
C3134 H3124 0.930 . S
C3134 C3132 1.419 . S
C3134 C3135 1.362 . S
C3135 H3125 0.930 . S
C3135 C3128 1.409 . S
C3135 C3134 1.362 . S
H3136 C3142 0.930 . S
H3137 C3145 0.930 . S
H3138 C3146 0.930 . S
H3139 C3147 0.930 . S
H3140 C3150 0.930 . S
H3141 C3151 0.930 . S
C3142 H3136 0.930 . S
C3142 C3143 1.355 . S
C3142 C3144 1.415 . S
C3143 C3142 1.355 . S
C3143 C3145 1.419 . S
C3144 C3142 1.415 . S
C3144 C3149 1.425 . S
C3144 C3151 1.409 . S
C3145 H3137 0.930 . S
C3145 C3143 1.419 . S
C3145 C3146 1.362 . S
C3146 H3138 0.930 . S
C3146 C3145 1.362 . S
C3146 C3149 1.409 . S
C3147 H3139 0.930 . S
C3147 C3148 1.355 . S
C3147 C3149 1.415 . S
C3148 C3147 1.355 . S
C3148 C3150 1.419 . S
C3149 C3144 1.425 . S
C3149 C3146 1.409 . S
C3149 C3147 1.415 . S
C3150 H3140 0.930 . S
C3150 C3148 1.419 . S
C3150 C3151 1.362 . S
C3151 H3141 0.930 . S
C3151 C3144 1.409 . S
C3151 C3150 1.362 . S
H3152 C3158 0.930 . S
H3153 C3161 0.930 . S
H3154 C3162 0.930 . S
H3155 C3163 0.930 . S
H3156 C3166 0.930 . S
H3157 C3167 0.930 . S
C3158 H3152 0.930 . S
C3158 C3159 1.355 . S
C3158 C3160 1.415 . S
C3159 C3158 1.355 . S
C3159 C3161 1.419 . S
C3160 C3158 1.415 . S
C3160 C3165 1.425 . S
C3160 C3167 1.409 . S
C3161 H3153 0.930 . S
C3161 C3159 1.419 . S
C3161 C3162 1.362 . S
C3162 H3154 0.930 . S
C3162 C3161 1.362 . S
C3162 C3165 1.409 . S
C3163 H3155 0.930 . S
C3163 C3164 1.355 . S
C3163 C3165 1.415 . S
C3164 C3163 1.355 . S
C3164 C3166 1.419 . S
C3165 C3160 1.425 . S
C3165 C3162 1.409 . S
C3165 C3163 1.415 . S
C3166 H3156 0.930 . S
C3166 C3164 1.419 . S
C3166 C3167 1.362 . S
C3167 H3157 0.930 . S
C3167 C3160 1.409 . S
C3167 C3166 1.362 . S
H3168 C3174 0.930 . S
H3169 C3177 0.930 . S
H3170 C3178 0.930 . S
H3171 C3179 0.930 . S
H3172 C3182 0.930 . S
H3173 C3183 0.930 . S
C3174 H3168 0.930 . S
C3174 C3175 1.355 . S
C3174 C3176 1.415 . S
C3175 C3174 1.355 . S
C3175 C3177 1.419 . S
C3176 C3174 1.415 . S
C3176 C3181 1.425 . S
C3176 C3183 1.409 . S
C3177 H3169 0.930 . S
C3177 C3175 1.419 . S
C3177 C3178 1.362 . S
C3178 H3170 0.930 . S
C3178 C3177 1.362 . S
C3178 C3181 1.409 . S
C3179 H3171 0.930 . S
C3179 C3180 1.355 . S
C3179 C3181 1.415 . S
C3180 C3179 1.355 . S
C3180 C3182 1.419 . S
C3181 C3176 1.425 . S
C3181 C3178 1.409 . S
C3181 C3179 1.415 . S
C3182 H3172 0.930 . S
C3182 C3180 1.419 . S
C3182 C3183 1.362 . S
C3183 H3173 0.930 . S
C3183 C3176 1.409 . S
C3183 C3182 1.362 . S
H3184 C3190 0.930 . S
H3185 C3193 0.930 . S
H3186 C3194 0.930 . S
H3187 C3195 0.930 . S
H3188 C3198 0.930 . S
H3189 C3199 0.930 . S
C3190 H3184 0.930 . S
C3190 C3191 1.355 . S
C3190 C3192 1.415 . S
C3191 C3190 1.355 . S
C3191 C3193 1.419 . S
C3192 C3190 1.415 . S
C3192 C3197 1.425 . S
C3192 C3199 1.409 . S
C3193 H3185 0.930 . S
C3193 C3191 1.419 . S
C3193 C3194 1.362 . S
C3194 H3186 0.930 . S
C3194 C3193 1.362 . S
C3194 C3197 1.409 . S
C3195 H3187 0.930 . S
C3195 C3196 1.355 . S
C3195 C3197 1.415 . S
C3196 C3195 1.355 . S
C3196 C3198 1.419 . S
C3197 C3192 1.425 . S
C3197 C3194 1.409 . S
C3197 C3195 1.415 . S
C3198 H3188 0.930 . S
C3198 C3196 1.419 . S
C3198 C3199 1.362 . S
C3199 H3189 0.930 . S
C3199 C3192 1.409 . S
C3199 C3198 1.362 . S
H3200 C3206 0.930 . S
H3201 C3209 0.930 . S
H3202 C3210 0.930 . S
H3203 C3211 0.930 . S
H3204 C3214 0.930 . S
H3205 C3215 0.930 . S
C3206 H3200 0.930 . S
C3206 C3207 1.355 . S
C3206 C3208 1.415 . S
C3207 C3206 1.355 . S
C3207 C3209 1.419 . S
C3208 C3206 1.415 . S
C3208 C3213 1.425 . S
C3208 C3215 1.409 . S
C3209 H3201 0.930 . S
C3209 C3207 1.419 . S
C3209 C3210 1.362 . S
C3210 H3202 0.930 . S
C3210 C3209 1.362 . S
C3210 C3213 1.409 . S
C3211 H3203 0.930 . S
C3211 C3212 1.355 . S
C3211 C3213 1.415 . S
C3212 C3211 1.355 . S
C3212 C3214 1.419 . S
C3213 C3208 1.425 . S
C3213 C3210 1.409 . S
C3213 C3211 1.415 . S
C3214 H3204 0.930 . S
C3214 C3212 1.419 . S
C3214 C3215 1.362 . S
C3215 H3205 0.930 . S
C3215 C3208 1.409 . S
C3215 C3214 1.362 . S
H3216 C3222 0.930 . S
H3217 C3225 0.930 . S
H3218 C3226 0.930 . S
H3219 C3227 0.930 . S
H3220 C3230 0.930 . S
H3221 C3231 0.930 . S
C3222 H3216 0.930 . S
C3222 C3223 1.355 . S
C3222 C3224 1.415 . S
C3223 C3222 1.355 . S
C3223 C3225 1.419 . S
C3224 C3222 1.415 . S
C3224 C3229 1.425 . S
C3224 C3231 1.409 . S
C3225 H3217 0.930 . S
C3225 C3223 1.419 . S
C3225 C3226 1.362 . S
C3226 H3218 0.930 . S
C3226 C3225 1.362 . S
C3226 C3229 1.409 . S
C3227 H3219 0.930 . S
C3227 C3228 1.355 . S
C3227 C3229 1.415 . S
C3228 C3227 1.355 . S
C3228 C3230 1.419 . S
C3229 C3224 1.425 . S
C3229 C3226 1.409 . S
C3229 C3227 1.415 . S
C3230 H3220 0.930 . S
C3230 C3228 1.419 . S
C3230 C3231 1.362 . S
C3231 H3221 0.930 . S
C3231 C3224 1.409 . S
C3231 C3230 1.362 . S
H3232 C3238 0.930 . S
H3233 C3241 0.930 . S
H3234 C3242 0.930 . S
H3235 C3243 0.930 . S
H3236 C3246 0.930 1_545 S
H3237 C3247 0.930 . S
C3238 H3232 0.930 . S
C3238 C3239 1.355 . S
C3238 C3240 1.415 . S
C3239 C3238 1.355 . S
C3239 C3241 1.419 . S
C3240 C3238 1.415 . S
C3240 C3245 1.425 . S
C3240 C3247 1.409 . S
C3241 H3233 0.930 . S
C3241 C3239 1.419 . S
C3241 C3242 1.362 . S
C3242 H3234 0.930 . S
C3242 C3241 1.362 . S
C3242 C3245 1.409 . S
C3243 H3235 0.930 . S
C3243 C3244 1.355 . S
C3243 C3245 1.415 . S
C3244 C3243 1.355 . S
C3244 C3246 1.419 . S
C3245 C3240 1.425 . S
C3245 C3242 1.409 . S
C3245 C3243 1.415 . S
C3246 H3236 0.930 1_565 S
C3246 C3244 1.419 . S
C3246 C3247 1.362 . S
C3247 H3237 0.930 . S
C3247 C3240 1.409 . S
C3247 C3246 1.362 . S
H3248 C3254 0.930 . S
H3249 C3257 0.930 . S
H3250 C3258 0.930 . S
H3251 C3259 0.930 . S
H3252 C3262 0.930 . S
H3253 C3263 0.930 . S
C3254 H3248 0.930 . S
C3254 C3255 1.355 . S
C3254 C3256 1.415 . S
C3255 C3254 1.355 . S
C3255 C3257 1.419 . S
C3256 C3254 1.415 . S
C3256 C3261 1.425 . S
C3256 C3263 1.409 . S
C3257 H3249 0.930 . S
C3257 C3255 1.419 . S
C3257 C3258 1.362 . S
C3258 H3250 0.930 . S
C3258 C3257 1.362 . S
C3258 C3261 1.409 . S
C3259 H3251 0.930 . S
C3259 C3260 1.355 . S
C3259 C3261 1.415 . S
C3260 C3259 1.355 . S
C3260 C3262 1.419 . S
C3261 C3256 1.425 . S
C3261 C3258 1.409 . S
C3261 C3259 1.415 . S
C3262 H3252 0.930 . S
C3262 C3260 1.419 . S
C3262 C3263 1.362 . S
C3263 H3253 0.930 . S
C3263 C3256 1.409 . S
C3263 C3262 1.362 . S
H3264 C3270 0.905 1_565 S
H3265 C3273 0.930 . S
H3266 C3274 0.930 . S
H3267 C3275 0.930 . S
H3268 C3278 0.930 . S
H3269 C3279 0.930 1_565 S
C3270 H3264 0.905 1_545 S
C3270 C3271 1.372 . S
C3270 C3272 1.423 . S
C3271 C3270 1.372 . S
C3271 C3273 1.419 . S
C3272 C3270 1.423 . S
C3272 C3277 1.425 . S
C3272 C3279 1.409 . S
C3273 H3265 0.930 . S
C3273 C3271 1.419 . S
C3273 C3274 1.362 . S
C3274 H3266 0.930 . S
C3274 C3273 1.362 . S
C3274 C3277 1.409 . S
C3275 H3267 0.930 . S
C3275 C3276 1.355 . S
C3275 C3277 1.415 . S
C3276 C3275 1.355 . S
C3276 C3278 1.419 . S
C3277 C3272 1.425 . S
C3277 C3274 1.409 . S
C3277 C3275 1.415 . S
C3278 H3268 0.930 . S
C3278 C3276 1.419 . S
C3278 C3279 1.362 . S
C3279 H3269 0.930 1_545 S
C3279 C3272 1.409 . S
C3279 C3278 1.362 . S
H3280 C3286 0.930 . S
H3281 C3289 0.930 . S
H3282 C3290 0.930 . S
H3283 C3291 0.930 . S
H3284 C3294 0.930 . S
H3285 C3295 0.930 . S
C3286 H3280 0.930 . S
C3286 C3287 1.355 . S
C3286 C3288 1.415 . S
C3287 C3286 1.355 . S
C3287 C3289 1.419 . S
C3288 C3286 1.415 . S
C3288 C3293 1.425 . S
C3288 C3295 1.409 . S
C3289 H3281 0.930 . S
C3289 C3287 1.419 . S
C3289 C3290 1.362 . S
C3290 H3282 0.930 . S
C3290 C3289 1.362 . S
C3290 C3293 1.409 . S
C3291 H3283 0.930 . S
C3291 C3292 1.355 . S
C3291 C3293 1.415 . S
C3292 C3291 1.355 . S
C3292 C3294 1.419 . S
C3293 C3288 1.425 . S
C3293 C3290 1.409 . S
C3293 C3291 1.415 . S
C3294 H3284 0.930 . S
C3294 C3292 1.419 . S
C3294 C3295 1.362 . S
C3295 H3285 0.930 . S
C3295 C3288 1.409 . S
C3295 C3294 1.362 . S
H3296 C3302 0.930 . S
H3297 C3305 0.930 . S
H3298 C3306 0.930 . S
H3299 C3307 0.930 . S
H3300 C3310 0.930 . S
H3301 C3311 0.930 . S
C3302 H3296 0.930 . S
C3302 C3303 1.355 . S
C3302 C3304 1.415 . S
C3303 C3302 1.355 . S
C3303 C3305 1.419 . S
C3304 C3302 1.415 . S
C3304 C3309 1.425 . S
C3304 C3311 1.409 . S
C3305 H3297 0.930 . S
C3305 C3303 1.419 . S
C3305 C3306 1.362 . S
C3306 H3298 0.930 . S
C3306 C3305 1.362 . S
C3306 C3309 1.409 . S
C3307 H3299 0.930 . S
C3307 C3308 1.355 . S
C3307 C3309 1.415 . S
C3308 C3307 1.355 . S
C3308 C3310 1.419 . S
C3309 C3304 1.425 . S
C3309 C3306 1.409 . S
C3309 C3307 1.415 . S
C3310 H3300 0.930 . S
C3310 C3308 1.419 . S
C3310 C3311 1.362 . S
C3311 H3301 0.930 . S
C3311 C3304 1.409 . S
C3311 C3310 1.362 . S
H3312 C3318 0.930 . S
H3313 C3321 0.930 . S
H3314 C3322 0.930 . S
H3315 C3323 0.930 . S
H3316 C3326 0.930 . S
H3317 C3327 0.930 . S
C3318 H3312 0.930 . S
C3318 C3319 1.355 . S
C3318 C3320 1.415 . S
C3319 C3318 1.355 . S
C3319 C3321 1.419 . S
C3320 C3318 1.415 . S
C3320 C3325 1.425 . S
C3320 C3327 1.409 . S
C3321 H3313 0.930 . S
C3321 C3319 1.419 . S
C3321 C3322 1.362 . S
C3322 H3314 0.930 . S
C3322 C3321 1.362 . S
C3322 C3325 1.409 . S
C3323 H3315 0.930 . S
C3323 C3324 1.355 . S
C3323 C3325 1.415 . S
C3324 C3323 1.355 . S
C3324 C3326 1.419 . S
C3325 C3320 1.425 . S
C3325 C3322 1.409 . S
C3325 C3323 1.415 . S
C3326 H3316 0.930 . S
C3326 C3324 1.419 . S
C3326 C3327 1.362 . S
C3327 H3317 0.930 . S
C3327 C3320 1.409 . S
C3327 C3326 1.362 . S
H3328 C3334 0.930 . S
H3329 C3337 0.936 . S
H3330 C3338 0.930 . S
H3331 C3339 0.930 . S
H3332 C3342 0.930 . S
H3333 C3343 0.913 1_565 S
C3334 H3328 0.930 . S
C3334 C3335 1.355 . S
C3334 C3336 1.416 1_565 S
C3335 C3334 1.355 . S
C3335 C3337 1.450 . S
C3336 C3334 1.416 1_545 S
C3336 C3341 1.424 . S
C3336 C3343 1.407 . S
C3337 H3329 0.936 . S
C3337 C3335 1.450 . S
C3337 C3338 1.329 1_565 S
C3338 H3330 0.930 . S
C3338 C3337 1.329 1_545 S
C3338 C3341 1.409 . S
C3339 H3331 0.930 . S
C3339 C3340 1.355 . S
C3339 C3341 1.415 . S
C3340 C3339 1.355 . S
C3340 C3342 1.419 . S
C3341 C3336 1.424 . S
C3341 C3338 1.409 . S
C3341 C3339 1.415 . S
C3342 H3332 0.930 . S
C3342 C3340 1.419 . S
C3342 C3343 1.383 . S
C3343 H3333 0.913 1_545 S
C3343 C3336 1.407 . S
C3343 C3342 1.383 . S
H3344 C3350 0.930 . S
H3345 C3353 0.930 . S
H3346 C3354 0.930 . S
H3347 C3355 0.930 . S
H3348 C3358 0.930 . S
H3349 C3359 0.930 . S
C3350 H3344 0.930 . S
C3350 C3351 1.355 . S
C3350 C3352 1.415 . S
C3351 C3350 1.355 . S
C3351 C3353 1.419 . S
C3352 C3350 1.415 . S
C3352 C3357 1.425 . S
C3352 C3359 1.409 . S
C3353 H3345 0.930 . S
C3353 C3351 1.419 . S
C3353 C3354 1.362 . S
C3354 H3346 0.930 . S
C3354 C3353 1.362 . S
C3354 C3357 1.409 . S
C3355 H3347 0.930 . S
C3355 C3356 1.355 . S
C3355 C3357 1.415 . S
C3356 C3355 1.355 . S
C3356 C3358 1.419 . S
C3357 C3352 1.425 . S
C3357 C3354 1.409 . S
C3357 C3355 1.415 . S
C3358 H3348 0.930 . S
C3358 C3356 1.419 . S
C3358 C3359 1.362 . S
C3359 H3349 0.930 . S
C3359 C3352 1.409 . S
C3359 C3358 1.362 . S
H3360 C3366 0.930 . S
H3361 C3369 0.930 . S
H3362 C3370 0.945 . S
H3363 C3371 0.930 . S
H3364 C3374 0.930 . S
H3365 C3375 0.930 . S
C3366 H3360 0.930 . S
C3366 C3367 1.354 . S
C3366 C3368 1.413 1_545 S
C3367 C3366 1.354 . S
C3367 C3369 1.419 . S
C3368 C3366 1.413 1_565 S
C3368 C3373 1.425 . S
C3368 C3375 1.409 . S
C3369 H3361 0.930 . S
C3369 C3367 1.419 . S
C3369 C3370 1.353 1_545 S
C3370 H3362 0.945 . S
C3370 C3369 1.353 1_565 S
C3370 C3373 1.406 . S
C3371 H3363 0.930 . S
C3371 C3372 1.355 . S
C3371 C3373 1.415 . S
C3372 C3371 1.355 . S
C3372 C3374 1.419 . S
C3373 C3368 1.425 . S
C3373 C3370 1.406 . S
C3373 C3371 1.415 . S
C3374 H3364 0.930 . S
C3374 C3372 1.419 . S
C3374 C3375 1.362 . S
C3375 H3365 0.930 . S
C3375 C3368 1.409 . S
C3375 C3374 1.362 . S
H3376 C3382 0.930 . S
H3377 C3385 0.930 . S
H3378 C3386 0.930 . S
H3379 C3387 0.930 . S
H3380 C3390 0.930 . S
H3381 C3391 0.930 . S
C3382 H3376 0.930 . S
C3382 C3383 1.355 . S
C3382 C3384 1.415 . S
C3383 C3382 1.355 . S
C3383 C3385 1.419 . S
C3384 C3382 1.415 . S
C3384 C3389 1.425 . S
C3384 C3391 1.409 . S
C3385 H3377 0.930 . S
C3385 C3383 1.419 . S
C3385 C3386 1.362 . S
C3386 H3378 0.930 . S
C3386 C3385 1.362 . S
C3386 C3389 1.409 . S
C3387 H3379 0.930 . S
C3387 C3388 1.355 . S
C3387 C3389 1.415 . S
C3388 C3387 1.355 . S
C3388 C3390 1.419 . S
C3389 C3384 1.425 . S
C3389 C3386 1.409 . S
C3389 C3387 1.415 . S
C3390 H3380 0.930 . S
C3390 C3388 1.419 . S
C3390 C3391 1.362 . S
C3391 H3381 0.930 . S
C3391 C3384 1.409 . S
C3391 C3390 1.362 . S
H3392 C3398 0.930 . S
H3393 C3401 0.930 . S
H3394 C3402 0.930 . S
H3395 C3403 0.930 1_554 S
H3396 C3406 0.930 . S
H3397 C3407 0.930 . S
C3398 H3392 0.930 . S
C3398 C3399 1.355 1_556 S
C3398 C3400 1.415 . S
C3399 C3398 1.355 1_554 S
C3399 C3401 1.419 . S
C3400 C3398 1.415 . S
C3400 C3405 1.425 . S
C3400 C3407 1.409 . S
C3401 H3393 0.930 . S
C3401 C3399 1.419 . S
C3401 C3402 1.362 . S
C3402 H3394 0.930 . S
C3402 C3401 1.362 . S
C3402 C3405 1.409 1_554 S
C3403 H3395 0.930 1_556 S
C3403 C3404 1.355 . S
C3403 C3405 1.415 . S
C3404 C3403 1.355 . S
C3404 C3406 1.419 . S
C3405 C3400 1.425 . S
C3405 C3402 1.409 1_556 S
C3405 C3403 1.415 . S
C3406 H3396 0.930 . S
C3406 C3404 1.419 . S
C3406 C3407 1.362 . S
C3407 H3397 0.930 . S
C3407 C3400 1.409 . S
C3407 C3406 1.362 . S
H3408 C3414 0.930 . S
H3409 C3417 0.930 . S
H3410 C3418 0.930 . S
H3411 C3419 0.930 . S
H3412 C3422 0.930 . S
H3413 C3423 0.930 . S
C3414 H3408 0.930 . S
C3414 C3415 1.355 . S
C3414 C3416 1.415 . S
C3415 C3414 1.355 . S
C3415 C3417 1.419 . S
C3416 C3414 1.415 . S
C3416 C3421 1.425 . S
C3416 C3423 1.409 . S
C3417 H3409 0.930 . S
C3417 C3415 1.419 . S
C3417 C3418 1.362 . S
C3418 H3410 0.930 . S
C3418 C3417 1.362 . S
C3418 C3421 1.409 . S
C3419 H3411 0.930 . S
C3419 C3420 1.355 . S
C3419 C3421 1.415 . S
C3420 C3419 1.355 . S
C3420 C3422 1.419 . S
C3421 C3416 1.425 . S
C3421 C3418 1.409 . S
C3421 C3419 1.415 . S
C3422 H3412 0.930 . S
C3422 C3420 1.419 . S
C3422 C3423 1.362 . S
C3423 H3413 0.930 . S
C3423 C3416 1.409 . S
C3423 C3422 1.362 . S
H3424 C3430 0.930 . S
H3425 C3433 0.930 . S
H3426 C3434 0.930 . S
H3427 C3435 0.930 . S
H3428 C3438 0.930 . S
H3429 C3439 0.930 . S
C3430 H3424 0.930 . S
C3430 C3431 1.355 . S
C3430 C3432 1.415 . S
C3431 C3430 1.355 . S
C3431 C3433 1.419 . S
C3432 C3430 1.415 . S
C3432 C3437 1.425 . S
C3432 C3439 1.409 . S
C3433 H3425 0.930 . S
C3433 C3431 1.419 . S
C3433 C3434 1.362 . S
C3434 H3426 0.930 . S
C3434 C3433 1.362 . S
C3434 C3437 1.409 . S
C3435 H3427 0.930 . S
C3435 C3436 1.355 . S
C3435 C3437 1.415 . S
C3436 C3435 1.355 . S
C3436 C3438 1.419 . S
C3437 C3432 1.425 . S
C3437 C3434 1.409 . S
C3437 C3435 1.415 . S
C3438 H3428 0.930 . S
C3438 C3436 1.419 . S
C3438 C3439 1.362 . S
C3439 H3429 0.930 . S
C3439 C3432 1.409 . S
C3439 C3438 1.362 . S
H3440 C3446 0.930 . S
H3441 C3449 0.930 . S
H3442 C3450 0.930 . S
H3443 C3451 0.930 . S
H3444 C3454 0.930 . S
H3445 C3455 0.930 . S
C3446 H3440 0.930 . S
C3446 C3447 1.355 . S
C3446 C3448 1.415 . S
C3447 C3446 1.355 . S
C3447 C3449 1.419 . S
C3448 C3446 1.415 . S
C3448 C3453 1.425 . S
C3448 C3455 1.409 . S
C3449 H3441 0.930 . S
C3449 C3447 1.419 . S
C3449 C3450 1.362 . S
C3450 H3442 0.930 . S
C3450 C3449 1.362 . S
C3450 C3453 1.409 . S
C3451 H3443 0.930 . S
C3451 C3452 1.355 . S
C3451 C3453 1.415 . S
C3452 C3451 1.355 . S
C3452 C3454 1.419 . S
C3453 C3448 1.425 . S
C3453 C3450 1.409 . S
C3453 C3451 1.415 . S
C3454 H3444 0.930 . S
C3454 C3452 1.419 . S
C3454 C3455 1.362 . S
C3455 H3445 0.930 . S
C3455 C3448 1.409 . S
C3455 C3454 1.362 . S
H3456 C3462 0.930 . S
H3457 C3465 0.930 . S
H3458 C3466 0.930 . S
H3459 C3467 0.930 . S
H3460 C3470 0.930 . S
H3461 C3471 0.930 . S
C3462 H3456 0.930 . S
C3462 C3463 1.355 . S
C3462 C3464 1.415 . S
C3463 C3462 1.355 . S
C3463 C3465 1.419 . S
C3464 C3462 1.415 . S
C3464 C3469 1.425 . S
C3464 C3471 1.409 . S
C3465 H3457 0.930 . S
C3465 C3463 1.419 . S
C3465 C3466 1.362 . S
C3466 H3458 0.930 . S
C3466 C3465 1.362 . S
C3466 C3469 1.409 . S
C3467 H3459 0.930 . S
C3467 C3468 1.355 . S
C3467 C3469 1.415 . S
C3468 C3467 1.355 . S
C3468 C3470 1.419 . S
C3469 C3464 1.425 . S
C3469 C3466 1.409 . S
C3469 C3467 1.415 . S
C3470 H3460 0.930 . S
C3470 C3468 1.419 . S
C3470 C3471 1.362 . S
C3471 H3461 0.930 . S
C3471 C3464 1.409 . S
C3471 C3470 1.362 . S
H3472 C3478 0.930 . S
H3473 C3481 0.930 . S
H3474 C3482 0.930 . S
H3475 C3483 0.930 . S
H3476 C3486 0.930 . S
H3477 C3487 0.930 . S
C3478 H3472 0.930 . S
C3478 C3479 1.355 . S
C3478 C3480 1.415 . S
C3479 C3478 1.355 . S
C3479 C3481 1.419 . S
C3480 C3478 1.415 . S
C3480 C3485 1.425 . S
C3480 C3487 1.409 . S
C3481 H3473 0.930 . S
C3481 C3479 1.419 . S
C3481 C3482 1.362 . S
C3482 H3474 0.930 . S
C3482 C3481 1.362 . S
C3482 C3485 1.409 . S
C3483 H3475 0.930 . S
C3483 C3484 1.355 . S
C3483 C3485 1.415 . S
C3484 C3483 1.355 . S
C3484 C3486 1.419 . S
C3485 C3480 1.425 . S
C3485 C3482 1.409 . S
C3485 C3483 1.415 . S
C3486 H3476 0.930 . S
C3486 C3484 1.419 . S
C3486 C3487 1.362 . S
C3487 H3477 0.930 . S
C3487 C3480 1.409 . S
C3487 C3486 1.362 . S
H3488 C3494 0.930 . S
H3489 C3497 0.930 . S
H3490 C3498 0.930 . S
H3491 C3499 0.930 . S
H3492 C3502 0.930 . S
H3493 C3503 0.930 . S
C3494 H3488 0.930 . S
C3494 C3495 1.355 . S
C3494 C3496 1.415 . S
C3495 C3494 1.355 . S
C3495 C3497 1.419 . S
C3496 C3494 1.415 . S
C3496 C3501 1.425 . S
C3496 C3503 1.409 . S
C3497 H3489 0.930 . S
C3497 C3495 1.419 . S
C3497 C3498 1.362 . S
C3498 H3490 0.930 . S
C3498 C3497 1.362 . S
C3498 C3501 1.409 . S
C3499 H3491 0.930 . S
C3499 C3500 1.355 . S
C3499 C3501 1.415 . S
C3500 C3499 1.355 . S
C3500 C3502 1.419 . S
C3501 C3496 1.425 . S
C3501 C3498 1.409 . S
C3501 C3499 1.415 . S
C3502 H3492 0.930 . S
C3502 C3500 1.419 . S
C3502 C3503 1.362 . S
C3503 H3493 0.930 . S
C3503 C3496 1.409 . S
C3503 C3502 1.362 . S
H3504 C3510 0.930 . S
H3505 C3513 0.930 . S
H3506 C3514 0.930 . S
H3507 C3515 0.930 . S
H3508 C3518 0.930 . S
H3509 C3519 0.930 . S
C3510 H3504 0.930 . S
C3510 C3511 1.355 . S
C3510 C3512 1.415 . S
C3511 C3510 1.355 . S
C3511 C3513 1.419 . S
C3512 C3510 1.415 . S
C3512 C3517 1.425 . S
C3512 C3519 1.409 . S
C3513 H3505 0.930 . S
C3513 C3511 1.419 . S
C3513 C3514 1.362 . S
C3514 H3506 0.930 . S
C3514 C3513 1.362 . S
C3514 C3517 1.409 . S
C3515 H3507 0.930 . S
C3515 C3516 1.355 . S
C3515 C3517 1.415 . S
C3516 C3515 1.355 . S
C3516 C3518 1.419 . S
C3517 C3512 1.425 . S
C3517 C3514 1.409 . S
C3517 C3515 1.415 . S
C3518 H3508 0.930 . S
C3518 C3516 1.419 . S
C3518 C3519 1.362 . S
C3519 H3509 0.930 . S
C3519 C3512 1.409 . S
C3519 C3518 1.362 . S
H3520 C3526 0.930 . S
H3521 C3529 0.930 . S
H3522 C3530 0.930 . S
H3523 C3531 0.930 . S
H3524 C3534 0.930 . S
H3525 C3535 0.930 . S
C3526 H3520 0.930 . S
C3526 C3527 1.355 . S
C3526 C3528 1.415 . S
C3527 C3526 1.355 . S
C3527 C3529 1.419 . S
C3528 C3526 1.415 . S
C3528 C3533 1.425 . S
C3528 C3535 1.409 . S
C3529 H3521 0.930 . S
C3529 C3527 1.419 . S
C3529 C3530 1.362 . S
C3530 H3522 0.930 . S
C3530 C3529 1.362 . S
C3530 C3533 1.409 . S
C3531 H3523 0.930 . S
C3531 C3532 1.355 . S
C3531 C3533 1.415 . S
C3532 C3531 1.355 . S
C3532 C3534 1.419 . S
C3533 C3528 1.425 . S
C3533 C3530 1.409 . S
C3533 C3531 1.415 . S
C3534 H3524 0.930 . S
C3534 C3532 1.419 . S
C3534 C3535 1.362 . S
C3535 H3525 0.930 . S
C3535 C3528 1.409 . S
C3535 C3534 1.362 . S
H3536 C3542 0.930 . S
H3537 C3545 0.930 . S
H3538 C3546 0.930 . S
H3539 C3547 0.930 . S
H3540 C3550 0.930 . S
H3541 C3551 0.930 . S
C3542 H3536 0.930 . S
C3542 C3543 1.355 . S
C3542 C3544 1.415 . S
C3543 C3542 1.355 . S
C3543 C3545 1.419 . S
C3544 C3542 1.415 . S
C3544 C3549 1.425 . S
C3544 C3551 1.409 . S
C3545 H3537 0.930 . S
C3545 C3543 1.419 . S
C3545 C3546 1.362 . S
C3546 H3538 0.930 . S
C3546 C3545 1.362 . S
C3546 C3549 1.409 . S
C3547 H3539 0.930 . S
C3547 C3548 1.355 . S
C3547 C3549 1.415 . S
C3548 C3547 1.355 . S
C3548 C3550 1.419 . S
C3549 C3544 1.425 . S
C3549 C3546 1.409 . S
C3549 C3547 1.415 . S
C3550 H3540 0.930 . S
C3550 C3548 1.419 . S
C3550 C3551 1.362 . S
C3551 H3541 0.930 . S
C3551 C3544 1.409 . S
C3551 C3550 1.362 . S
H3552 C3558 0.930 . S
H3553 C3561 0.930 . S
H3554 C3562 0.930 . S
H3555 C3563 0.930 . S
H3556 C3566 0.930 . S
H3557 C3567 0.930 . S
C3558 H3552 0.930 . S
C3558 C3559 1.355 1_554 S
C3558 C3560 1.415 . S
C3559 C3558 1.355 1_556 S
C3559 C3561 1.419 . S
C3560 C3558 1.415 . S
C3560 C3565 1.425 1_554 S
C3560 C3567 1.409 . S
C3561 H3553 0.930 . S
C3561 C3559 1.419 . S
C3561 C3562 1.362 . S
C3562 H3554 0.930 . S
C3562 C3561 1.362 . S
C3562 C3565 1.409 . S
C3563 H3555 0.930 . S
C3563 C3564 1.355 1_556 S
C3563 C3565 1.415 . S
C3564 C3563 1.355 1_554 S
C3564 C3566 1.419 . S
C3565 C3560 1.425 1_556 S
C3565 C3562 1.409 . S
C3565 C3563 1.415 . S
C3566 H3556 0.930 . S
C3566 C3564 1.419 . S
C3566 C3567 1.362 . S
C3567 H3557 0.930 . S
C3567 C3560 1.409 . S
C3567 C3566 1.362 . S
H3568 C3574 0.930 . S
H3569 C3577 0.930 . S
H3570 C3578 0.930 . S
H3571 C3579 0.930 . S
H3572 C3582 0.930 . S
H3573 C3583 0.930 . S
C3574 H3568 0.930 . S
C3574 C3575 1.355 . S
C3574 C3576 1.415 . S
C3575 C3574 1.355 . S
C3575 C3577 1.419 . S
C3576 C3574 1.415 . S
C3576 C3581 1.425 . S
C3576 C3583 1.409 . S
C3577 H3569 0.930 . S
C3577 C3575 1.419 . S
C3577 C3578 1.362 . S
C3578 H3570 0.930 . S
C3578 C3577 1.362 . S
C3578 C3581 1.409 . S
C3579 H3571 0.930 . S
C3579 C3580 1.355 . S
C3579 C3581 1.415 . S
C3580 C3579 1.355 . S
C3580 C3582 1.419 . S
C3581 C3576 1.425 . S
C3581 C3578 1.409 . S
C3581 C3579 1.415 . S
C3582 H3572 0.930 . S
C3582 C3580 1.419 . S
C3582 C3583 1.362 . S
C3583 H3573 0.930 . S
C3583 C3576 1.409 . S
C3583 C3582 1.362 . S
H3584 C3590 0.930 . S
H3585 C3593 0.930 . S
H3586 C3594 0.930 . S
H3587 C3595 0.930 . S
H3588 C3598 0.930 . S
H3589 C3599 0.930 . S
C3590 H3584 0.930 . S
C3590 C3591 1.355 . S
C3590 C3592 1.415 . S
C3591 C3590 1.355 . S
C3591 C3593 1.419 . S
C3592 C3590 1.415 . S
C3592 C3597 1.425 . S
C3592 C3599 1.409 . S
C3593 H3585 0.930 . S
C3593 C3591 1.419 . S
C3593 C3594 1.362 . S
C3594 H3586 0.930 . S
C3594 C3593 1.362 . S
C3594 C3597 1.409 . S
C3595 H3587 0.930 . S
C3595 C3596 1.355 . S
C3595 C3597 1.415 . S
C3596 C3595 1.355 . S
C3596 C3598 1.419 . S
C3597 C3592 1.425 . S
C3597 C3594 1.409 . S
C3597 C3595 1.415 . S
C3598 H3588 0.930 . S
C3598 C3596 1.419 . S
C3598 C3599 1.362 . S
C3599 H3589 0.930 . S
C3599 C3592 1.409 . S
C3599 C3598 1.362 . S
H3600 C3606 0.930 . S
H3601 C3609 0.930 . S
H3602 C3610 0.930 . S
H3603 C3611 0.930 . S
H3604 C3614 0.930 . S
H3605 C3615 0.930 . S
C3606 H3600 0.930 . S
C3606 C3607 1.385 . S
C3606 C3608 1.415 . S
C3607 C3606 1.385 . S
C3607 C3609 1.450 . S
C3608 C3606 1.415 . S
C3608 C3613 1.425 . S
C3608 C3615 1.409 . S
C3609 H3601 0.930 . S
C3609 C3607 1.450 . S
C3609 C3610 1.362 . S
C3610 H3602 0.930 . S
C3610 C3609 1.362 . S
C3610 C3613 1.409 . S
C3611 H3603 0.930 . S
C3611 C3612 1.355 . S
C3611 C3613 1.415 . S
C3612 C3611 1.355 . S
C3612 C3614 1.419 . S
C3613 C3608 1.425 . S
C3613 C3610 1.409 . S
C3613 C3611 1.415 . S
C3614 H3604 0.930 . S
C3614 C3612 1.419 . S
C3614 C3615 1.362 . S
C3615 H3605 0.930 . S
C3615 C3608 1.409 . S
C3615 C3614 1.362 . S
H3616 C3622 0.930 . S
H3617 C3625 0.930 . S
H3618 C3626 0.930 . S
H3619 C3627 0.930 . S
H3620 C3630 0.930 . S
H3621 C3631 0.930 . S
C3622 H3616 0.930 . S
C3622 C3623 1.355 . S
C3622 C3624 1.452 . S
C3623 C3622 1.355 . S
C3623 C3625 1.419 1_655 S
C3624 C3622 1.452 . S
C3624 C3629 1.387 1_655 S
C3624 C3631 1.409 . S
C3625 H3617 0.930 . S
C3625 C3623 1.419 1_455 S
C3625 C3626 1.362 . S
C3626 H3618 0.930 . S
C3626 C3625 1.362 . S
C3626 C3629 1.409 . S
C3627 H3619 0.930 . S
C3627 C3628 1.355 . S
C3627 C3629 1.415 . S
C3628 C3627 1.355 . S
C3628 C3630 1.419 . S
C3629 C3624 1.387 1_455 S
C3629 C3626 1.409 . S
C3629 C3627 1.415 . S
C3630 H3620 0.930 . S
C3630 C3628 1.419 . S
C3630 C3631 1.362 1_455 S
C3631 H3621 0.930 . S
C3631 C3624 1.409 . S
C3631 C3630 1.362 1_655 S
H3632 C3638 0.930 . S
H3633 C3641 0.930 . S
H3634 C3642 0.930 . S
H3635 C3643 0.930 . S
H3636 C3646 0.930 . S
H3637 C3647 0.930 . S
C3638 H3632 0.930 . S
C3638 C3639 1.355 . S
C3638 C3640 1.415 . S
C3639 C3638 1.355 . S
C3639 C3641 1.419 . S
C3640 C3638 1.415 . S
C3640 C3645 1.425 . S
C3640 C3647 1.409 . S
C3641 H3633 0.930 . S
C3641 C3639 1.419 . S
C3641 C3642 1.362 . S
C3642 H3634 0.930 . S
C3642 C3641 1.362 . S
C3642 C3645 1.409 . S
C3643 H3635 0.930 . S
C3643 C3644 1.355 . S
C3643 C3645 1.415 . S
C3644 C3643 1.355 . S
C3644 C3646 1.419 . S
C3645 C3640 1.425 . S
C3645 C3642 1.409 . S
C3645 C3643 1.415 . S
C3646 H3636 0.930 . S
C3646 C3644 1.419 . S
C3646 C3647 1.362 . S
C3647 H3637 0.930 . S
C3647 C3640 1.409 . S
C3647 C3646 1.362 . S
H3648 C3654 0.930 . S
H3649 C3657 0.930 . S
H3650 C3658 0.930 . S
H3651 C3659 0.930 . S
H3652 C3662 0.930 . S
H3653 C3663 0.930 . S
C3654 H3648 0.930 . S
C3654 C3655 1.355 . S
C3654 C3656 1.415 . S
C3655 C3654 1.355 . S
C3655 C3657 1.419 . S
C3656 C3654 1.415 . S
C3656 C3661 1.425 . S
C3656 C3663 1.409 . S
C3657 H3649 0.930 . S
C3657 C3655 1.419 . S
C3657 C3658 1.362 . S
C3658 H3650 0.930 . S
C3658 C3657 1.362 . S
C3658 C3661 1.409 . S
C3659 H3651 0.930 . S
C3659 C3660 1.355 . S
C3659 C3661 1.415 . S
C3660 C3659 1.355 . S
C3660 C3662 1.419 . S
C3661 C3656 1.425 . S
C3661 C3658 1.409 . S
C3661 C3659 1.415 . S
C3662 H3652 0.930 . S
C3662 C3660 1.419 . S
C3662 C3663 1.362 . S
C3663 H3653 0.930 . S
C3663 C3656 1.409 . S
C3663 C3662 1.362 . S
H3664 C3670 0.930 . S
H3665 C3673 0.930 . S
H3666 C3674 0.930 . S
H3667 C3675 0.930 . S
H3668 C3678 0.930 . S
H3669 C3679 0.930 . S
C3670 H3664 0.930 . S
C3670 C3671 1.355 . S
C3670 C3672 1.415 . S
C3671 C3670 1.355 . S
C3671 C3673 1.419 . S
C3672 C3670 1.415 . S
C3672 C3677 1.425 . S
C3672 C3679 1.409 . S
C3673 H3665 0.930 . S
C3673 C3671 1.419 . S
C3673 C3674 1.362 . S
C3674 H3666 0.930 . S
C3674 C3673 1.362 . S
C3674 C3677 1.409 . S
C3675 H3667 0.930 . S
C3675 C3676 1.355 . S
C3675 C3677 1.415 . S
C3676 C3675 1.355 . S
C3676 C3678 1.419 . S
C3677 C3672 1.425 . S
C3677 C3674 1.409 . S
C3677 C3675 1.415 . S
C3678 H3668 0.930 . S
C3678 C3676 1.419 . S
C3678 C3679 1.362 . S
C3679 H3669 0.930 . S
C3679 C3672 1.409 . S
C3679 C3678 1.362 . S
H3680 C3686 0.930 . S
H3681 C3689 0.930 . S
H3682 C3690 0.930 . S
H3683 C3691 0.930 . S
H3684 C3694 0.930 . S
H3685 C3695 0.930 . S
C3686 H3680 0.930 . S
C3686 C3687 1.355 . S
C3686 C3688 1.415 . S
C3687 C3686 1.355 . S
C3687 C3689 1.419 . S
C3688 C3686 1.415 . S
C3688 C3693 1.425 . S
C3688 C3695 1.409 . S
C3689 H3681 0.930 . S
C3689 C3687 1.419 . S
C3689 C3690 1.362 . S
C3690 H3682 0.930 . S
C3690 C3689 1.362 . S
C3690 C3693 1.409 . S
C3691 H3683 0.930 . S
C3691 C3692 1.355 . S
C3691 C3693 1.415 . S
C3692 C3691 1.355 . S
C3692 C3694 1.419 . S
C3693 C3688 1.425 . S
C3693 C3690 1.409 . S
C3693 C3691 1.415 . S
C3694 H3684 0.930 . S
C3694 C3692 1.419 . S
C3694 C3695 1.362 . S
C3695 H3685 0.930 . S
C3695 C3688 1.409 . S
C3695 C3694 1.362 . S
H3696 C3702 0.930 . S
H3697 C3705 0.930 . S
H3698 C3706 0.930 . S
H3699 C3707 0.930 . S
H3700 C3710 0.930 . S
H3701 C3711 0.930 . S
C3702 H3696 0.930 . S
C3702 C3703 1.355 . S
C3702 C3704 1.415 . S
C3703 C3702 1.355 . S
C3703 C3705 1.419 . S
C3704 C3702 1.415 . S
C3704 C3709 1.425 . S
C3704 C3711 1.409 . S
C3705 H3697 0.930 . S
C3705 C3703 1.419 . S
C3705 C3706 1.362 . S
C3706 H3698 0.930 . S
C3706 C3705 1.362 . S
C3706 C3709 1.409 . S
C3707 H3699 0.930 . S
C3707 C3708 1.355 . S
C3707 C3709 1.415 . S
C3708 C3707 1.355 . S
C3708 C3710 1.419 . S
C3709 C3704 1.425 . S
C3709 C3706 1.409 . S
C3709 C3707 1.415 . S
C3710 H3700 0.930 . S
C3710 C3708 1.419 . S
C3710 C3711 1.362 . S
C3711 H3701 0.930 . S
C3711 C3704 1.409 . S
C3711 C3710 1.362 . S
H3712 C3718 0.930 . S
H3713 C3721 0.930 . S
H3714 C3722 0.930 . S
H3715 C3723 0.930 . S
H3716 C3726 0.930 . S
H3717 C3727 0.930 . S
C3718 H3712 0.930 . S
C3718 C3719 1.355 . S
C3718 C3720 1.415 . S
C3719 C3718 1.355 . S
C3719 C3721 1.419 . S
C3720 C3718 1.415 . S
C3720 C3725 1.425 . S
C3720 C3727 1.409 . S
C3721 H3713 0.930 . S
C3721 C3719 1.419 . S
C3721 C3722 1.362 . S
C3722 H3714 0.930 . S
C3722 C3721 1.362 . S
C3722 C3725 1.409 . S
C3723 H3715 0.930 . S
C3723 C3724 1.355 . S
C3723 C3725 1.415 . S
C3724 C3723 1.355 . S
C3724 C3726 1.419 . S
C3725 C3720 1.425 . S
C3725 C3722 1.409 . S
C3725 C3723 1.415 . S
C3726 H3716 0.930 . S
C3726 C3724 1.419 . S
C3726 C3727 1.362 . S
C3727 H3717 0.930 . S
C3727 C3720 1.409 . S
C3727 C3726 1.362 . S
H3728 C3734 0.930 . S
H3729 C3737 0.930 . S
H3730 C3738 0.930 . S
H3731 C3739 0.930 . S
H3732 C3742 0.930 . S
H3733 C3743 0.930 . S
C3734 H3728 0.930 . S
C3734 C3735 1.355 . S
C3734 C3736 1.415 . S
C3735 C3734 1.355 . S
C3735 C3737 1.419 . S
C3736 C3734 1.415 . S
C3736 C3741 1.425 . S
C3736 C3743 1.409 . S
C3737 H3729 0.930 . S
C3737 C3735 1.419 . S
C3737 C3738 1.362 . S
C3738 H3730 0.930 . S
C3738 C3737 1.362 . S
C3738 C3741 1.409 . S
C3739 H3731 0.930 . S
C3739 C3740 1.355 . S
C3739 C3741 1.415 . S
C3740 C3739 1.355 . S
C3740 C3742 1.419 . S
C3741 C3736 1.425 . S
C3741 C3738 1.409 . S
C3741 C3739 1.415 . S
C3742 H3732 0.930 . S
C3742 C3740 1.419 . S
C3742 C3743 1.362 . S
C3743 H3733 0.930 . S
C3743 C3736 1.409 . S
C3743 C3742 1.362 . S
H3744 C3750 0.930 . S
H3745 C3753 0.930 . S
H3746 C3754 0.930 . S
H3747 C3755 0.930 . S
H3748 C3758 0.930 . S
H3749 C3759 0.930 . S
C3750 H3744 0.930 . S
C3750 C3751 1.355 . S
C3750 C3752 1.415 . S
C3751 C3750 1.355 . S
C3751 C3753 1.419 . S
C3752 C3750 1.415 . S
C3752 C3757 1.425 . S
C3752 C3759 1.409 . S
C3753 H3745 0.930 . S
C3753 C3751 1.419 . S
C3753 C3754 1.362 . S
C3754 H3746 0.930 . S
C3754 C3753 1.362 . S
C3754 C3757 1.409 . S
C3755 H3747 0.930 . S
C3755 C3756 1.355 . S
C3755 C3757 1.415 . S
C3756 C3755 1.355 . S
C3756 C3758 1.419 . S
C3757 C3752 1.425 . S
C3757 C3754 1.409 . S
C3757 C3755 1.415 . S
C3758 H3748 0.930 . S
C3758 C3756 1.419 . S
C3758 C3759 1.362 . S
C3759 H3749 0.930 . S
C3759 C3752 1.409 . S
C3759 C3758 1.362 . S
H3760 C3766 0.930 . S
H3761 C3769 0.930 . S
H3762 C3770 0.930 . S
H3763 C3771 0.930 . S
H3764 C3774 0.930 . S
H3765 C3775 0.930 . S
C3766 H3760 0.930 . S
C3766 C3767 1.355 . S
C3766 C3768 1.415 . S
C3767 C3766 1.355 . S
C3767 C3769 1.419 . S
C3768 C3766 1.415 . S
C3768 C3773 1.425 . S
C3768 C3775 1.409 . S
C3769 H3761 0.930 . S
C3769 C3767 1.419 . S
C3769 C3770 1.362 . S
C3770 H3762 0.930 . S
C3770 C3769 1.362 . S
C3770 C3773 1.409 . S
C3771 H3763 0.930 . S
C3771 C3772 1.355 . S
C3771 C3773 1.415 . S
C3772 C3771 1.355 . S
C3772 C3774 1.419 . S
C3773 C3768 1.425 . S
C3773 C3770 1.409 . S
C3773 C3771 1.415 . S
C3774 H3764 0.930 . S
C3774 C3772 1.419 . S
C3774 C3775 1.362 . S
C3775 H3765 0.930 . S
C3775 C3768 1.409 . S
C3775 C3774 1.362 . S
H3776 C3782 0.930 . S
H3777 C3785 0.930 . S
H3778 C3786 0.930 . S
H3779 C3787 0.930 . S
H3780 C3790 0.930 . S
H3781 C3791 0.930 . S
C3782 H3776 0.930 . S
C3782 C3783 1.355 . S
C3782 C3784 1.415 . S
C3783 C3782 1.355 . S
C3783 C3785 1.419 . S
C3784 C3782 1.415 . S
C3784 C3789 1.425 . S
C3784 C3791 1.409 . S
C3785 H3777 0.930 . S
C3785 C3783 1.419 . S
C3785 C3786 1.362 . S
C3786 H3778 0.930 . S
C3786 C3785 1.362 . S
C3786 C3789 1.409 . S
C3787 H3779 0.930 . S
C3787 C3788 1.355 . S
C3787 C3789 1.415 . S
C3788 C3787 1.355 . S
C3788 C3790 1.419 . S
C3789 C3784 1.425 . S
C3789 C3786 1.409 . S
C3789 C3787 1.415 . S
C3790 H3780 0.930 . S
C3790 C3788 1.419 . S
C3790 C3791 1.362 . S
C3791 H3781 0.930 . S
C3791 C3784 1.409 . S
C3791 C3790 1.362 . S
H3792 C3798 0.930 . S
H3793 C3801 0.930 . S
H3794 C3802 0.930 . S
H3795 C3803 0.930 . S
H3796 C3806 0.930 . S
H3797 C3807 0.930 . S
C3798 H3792 0.930 . S
C3798 C3799 1.355 . S
C3798 C3800 1.415 . S
C3799 C3798 1.355 . S
C3799 C3801 1.419 . S
C3800 C3798 1.415 . S
C3800 C3805 1.425 . S
C3800 C3807 1.409 . S
C3801 H3793 0.930 . S
C3801 C3799 1.419 . S
C3801 C3802 1.362 . S
C3802 H3794 0.930 . S
C3802 C3801 1.362 . S
C3802 C3805 1.409 . S
C3803 H3795 0.930 . S
C3803 C3804 1.355 . S
C3803 C3805 1.415 . S
C3804 C3803 1.355 . S
C3804 C3806 1.419 . S
C3805 C3800 1.425 . S
C3805 C3802 1.409 . S
C3805 C3803 1.415 . S
C3806 H3796 0.930 . S
C3806 C3804 1.419 . S
C3806 C3807 1.362 . S
C3807 H3797 0.930 . S
C3807 C3800 1.409 . S
C3807 C3806 1.362 . S
H3808 C3814 0.930 . S
H3809 C3817 0.930 . S
H3810 C3818 0.930 . S
H3811 C3819 0.930 . S
H3812 C3822 0.930 . S
H3813 C3823 0.930 . S
C3814 H3808 0.930 . S
C3814 C3815 1.355 . S
C3814 C3816 1.415 . S
C3815 C3814 1.355 . S
C3815 C3817 1.419 . S
C3816 C3814 1.415 . S
C3816 C3821 1.425 . S
C3816 C3823 1.409 . S
C3817 H3809 0.930 . S
C3817 C3815 1.419 . S
C3817 C3818 1.362 . S
C3818 H3810 0.930 . S
C3818 C3817 1.362 . S
C3818 C3821 1.409 . S
C3819 H3811 0.930 . S
C3819 C3820 1.355 . S
C3819 C3821 1.415 . S
C3820 C3819 1.355 . S
C3820 C3822 1.419 . S
C3821 C3816 1.425 . S
C3821 C3818 1.409 . S
C3821 C3819 1.415 . S
C3822 H3812 0.930 . S
C3822 C3820 1.419 . S
C3822 C3823 1.362 . S
C3823 H3813 0.930 . S
C3823 C3816 1.409 . S
C3823 C3822 1.362 . S
H3824 C3830 0.930 . S
H3825 C3833 0.930 1_556 S
H3826 C3834 0.965 . S
H3827 C3835 0.930 1_556 S
H3828 C3838 0.930 . S
H3829 C3839 0.930 . S
C3830 H3824 0.930 . S
C3830 C3831 1.377 . S
C3830 C3832 1.415 . S
C3831 C3830 1.377 . S
C3831 C3833 1.395 1_565 S
C3832 C3830 1.415 . S
C3832 C3837 1.425 1_565 S
C3832 C3839 1.409 . S
C3833 H3825 0.930 1_554 S
C3833 C3831 1.395 1_545 S
C3833 C3834 1.346 1_554 S
C3834 H3826 0.965 . S
C3834 C3833 1.346 1_556 S
C3834 C3837 1.393 1_556 S
C3835 H3827 0.930 1_554 S
C3835 C3836 1.355 . S
C3835 C3837 1.415 . S
C3836 C3835 1.355 . S
C3836 C3838 1.419 1_545 S
C3837 C3832 1.425 1_545 S
C3837 C3834 1.393 1_554 S
C3837 C3835 1.415 . S
C3838 H3828 0.930 . S
C3838 C3836 1.419 1_565 S
C3838 C3839 1.362 . S
C3839 H3829 0.930 . S
C3839 C3832 1.409 . S
C3839 C3838 1.362 . S
H3840 C3846 0.930 . S
H3841 C3849 0.930 . S
H3842 C3850 0.930 . S
H3843 C3851 0.930 . S
H3844 C3854 0.930 . S
H3845 C3855 0.930 . S
C3846 H3840 0.930 . S
C3846 C3847 1.355 . S
C3846 C3848 1.415 . S
C3847 C3846 1.355 . S
C3847 C3849 1.419 . S
C3848 C3846 1.415 . S
C3848 C3853 1.425 . S
C3848 C3855 1.409 . S
C3849 H3841 0.930 . S
C3849 C3847 1.419 . S
C3849 C3850 1.362 . S
C3850 H3842 0.930 . S
C3850 C3849 1.362 . S
C3850 C3853 1.409 . S
C3851 H3843 0.930 . S
C3851 C3852 1.355 . S
C3851 C3853 1.415 . S
C3852 C3851 1.355 . S
C3852 C3854 1.419 . S
C3853 C3848 1.425 . S
C3853 C3850 1.409 . S
C3853 C3851 1.415 . S
C3854 H3844 0.930 . S
C3854 C3852 1.419 . S
C3854 C3855 1.362 . S
C3855 H3845 0.930 . S
C3855 C3848 1.409 . S
C3855 C3854 1.362 . S
H3856 C3862 0.930 . S
H3857 C3865 0.930 . S
H3858 C3866 0.930 . S
H3859 C3867 0.930 . S
H3860 C3870 0.930 . S
H3861 C3871 0.930 . S
C3862 H3856 0.930 . S
C3862 C3863 1.355 . S
C3862 C3864 1.415 . S
C3863 C3862 1.355 . S
C3863 C3865 1.419 1_554 S
C3864 C3862 1.415 . S
C3864 C3869 1.425 . S
C3864 C3871 1.409 . S
C3865 H3857 0.930 . S
C3865 C3863 1.419 1_556 S
C3865 C3866 1.362 . S
C3866 H3858 0.930 . S
C3866 C3865 1.362 . S
C3866 C3869 1.409 1_556 S
C3867 H3859 0.930 . S
C3867 C3868 1.355 . S
C3867 C3869 1.415 . S
C3868 C3867 1.355 . S
C3868 C3870 1.419 . S
C3869 C3864 1.425 . S
C3869 C3866 1.409 1_554 S
C3869 C3867 1.415 . S
C3870 H3860 0.930 . S
C3870 C3868 1.419 . S
C3870 C3871 1.362 . S
C3871 H3861 0.930 . S
C3871 C3864 1.409 . S
C3871 C3870 1.362 . S
H3872 C3878 0.930 . S
H3873 C3881 0.930 . S
H3874 C3882 0.930 . S
H3875 C3883 0.930 . S
H3876 C3886 0.930 . S
H3877 C3887 0.930 . S
C3878 H3872 0.930 . S
C3878 C3879 1.355 . S
C3878 C3880 1.415 . S
C3879 C3878 1.355 . S
C3879 C3881 1.419 . S
C3880 C3878 1.415 . S
C3880 C3885 1.425 . S
C3880 C3887 1.409 . S
C3881 H3873 0.930 . S
C3881 C3879 1.419 . S
C3881 C3882 1.362 . S
C3882 H3874 0.930 . S
C3882 C3881 1.362 . S
C3882 C3885 1.409 . S
C3883 H3875 0.930 . S
C3883 C3884 1.355 . S
C3883 C3885 1.415 . S
C3884 C3883 1.355 . S
C3884 C3886 1.419 . S
C3885 C3880 1.425 . S
C3885 C3882 1.409 . S
C3885 C3883 1.415 . S
C3886 H3876 0.930 . S
C3886 C3884 1.419 . S
C3886 C3887 1.362 . S
C3887 H3877 0.930 . S
C3887 C3880 1.409 . S
C3887 C3886 1.362 . S
H3888 C3894 0.930 . S
H3889 C3897 0.930 . S
H3890 C3898 0.930 . S
H3891 C3899 0.930 . S
H3892 C3902 0.930 . S
H3893 C3903 0.930 . S
C3894 H3888 0.930 . S
C3894 C3895 1.355 . S
C3894 C3896 1.415 . S
C3895 C3894 1.355 . S
C3895 C3897 1.419 . S
C3896 C3894 1.415 . S
C3896 C3901 1.425 . S
C3896 C3903 1.409 . S
C3897 H3889 0.930 . S
C3897 C3895 1.419 . S
C3897 C3898 1.362 . S
C3898 H3890 0.930 . S
C3898 C3897 1.362 . S
C3898 C3901 1.409 . S
C3899 H3891 0.930 . S
C3899 C3900 1.355 . S
C3899 C3901 1.415 . S
C3900 C3899 1.355 . S
C3900 C3902 1.419 . S
C3901 C3896 1.425 . S
C3901 C3898 1.409 . S
C3901 C3899 1.415 . S
C3902 H3892 0.930 . S
C3902 C3900 1.419 . S
C3902 C3903 1.362 . S
C3903 H3893 0.930 . S
C3903 C3896 1.409 . S
C3903 C3902 1.362 . S
H3904 C3910 0.930 . S
H3905 C3913 0.930 . S
H3906 C3914 0.930 . S
H3907 C3915 0.930 . S
H3908 C3918 0.930 . S
H3909 C3919 0.930 . S
C3910 H3904 0.930 . S
C3910 C3911 1.355 . S
C3910 C3912 1.415 . S
C3911 C3910 1.355 . S
C3911 C3913 1.419 . S
C3912 C3910 1.415 . S
C3912 C3917 1.425 . S
C3912 C3919 1.409 . S
C3913 H3905 0.930 . S
C3913 C3911 1.419 . S
C3913 C3914 1.362 . S
C3914 H3906 0.930 . S
C3914 C3913 1.362 . S
C3914 C3917 1.409 . S
C3915 H3907 0.930 . S
C3915 C3916 1.355 . S
C3915 C3917 1.415 . S
C3916 C3915 1.355 . S
C3916 C3918 1.419 . S
C3917 C3912 1.425 . S
C3917 C3914 1.409 . S
C3917 C3915 1.415 . S
C3918 H3908 0.930 . S
C3918 C3916 1.419 . S
C3918 C3919 1.362 . S
C3919 H3909 0.930 . S
C3919 C3912 1.409 . S
C3919 C3918 1.362 . S
H3920 C3926 0.930 . S
H3921 C3929 0.930 . S
H3922 C3930 0.930 . S
H3923 C3931 0.930 . S
H3924 C3934 0.930 . S
H3925 C3935 0.930 . S
C3926 H3920 0.930 . S
C3926 C3927 1.355 . S
C3926 C3928 1.415 . S
C3927 C3926 1.355 . S
C3927 C3929 1.419 . S
C3928 C3926 1.415 . S
C3928 C3933 1.425 . S
C3928 C3935 1.409 . S
C3929 H3921 0.930 . S
C3929 C3927 1.419 . S
C3929 C3930 1.362 . S
C3930 H3922 0.930 . S
C3930 C3929 1.362 . S
C3930 C3933 1.409 . S
C3931 H3923 0.930 . S
C3931 C3932 1.355 . S
C3931 C3933 1.415 . S
C3932 C3931 1.355 . S
C3932 C3934 1.419 . S
C3933 C3928 1.425 . S
C3933 C3930 1.409 . S
C3933 C3931 1.415 . S
C3934 H3924 0.930 . S
C3934 C3932 1.419 . S
C3934 C3935 1.362 . S
C3935 H3925 0.930 . S
C3935 C3928 1.409 . S
C3935 C3934 1.362 . S
H3936 C3942 0.930 1_556 S
H3937 C3945 0.930 . S
H3938 C3946 0.930 . S
H3939 C3947 0.930 . S
H3940 C3950 0.930 . S
H3941 C3951 0.930 . S
C3942 H3936 0.930 1_554 S
C3942 C3943 1.355 . S
C3942 C3944 1.415 . S
C3943 C3942 1.355 . S
C3943 C3945 1.419 . S
C3944 C3942 1.415 . S
C3944 C3949 1.425 . S
C3944 C3951 1.409 1_554 S
C3945 H3937 0.930 . S
C3945 C3943 1.419 . S
C3945 C3946 1.362 . S
C3946 H3938 0.930 . S
C3946 C3945 1.362 . S
C3946 C3949 1.409 . S
C3947 H3939 0.930 . S
C3947 C3948 1.355 . S
C3947 C3949 1.415 . S
C3948 C3947 1.355 . S
C3948 C3950 1.419 1_554 S
C3949 C3944 1.425 . S
C3949 C3946 1.409 . S
C3949 C3947 1.415 . S
C3950 H3940 0.930 . S
C3950 C3948 1.419 1_556 S
C3950 C3951 1.362 . S
C3951 H3941 0.930 . S
C3951 C3944 1.409 1_556 S
C3951 C3950 1.362 . S
H3952 C3958 0.930 . S
H3953 C3961 0.930 . S
H3954 C3962 0.930 . S
H3955 C3963 0.930 . S
H3956 C3966 0.930 . S
H3957 C3967 0.930 . S
C3958 H3952 0.930 . S
C3958 C3959 1.355 . S
C3958 C3960 1.415 . S
C3959 C3958 1.355 . S
C3959 C3961 1.419 . S
C3960 C3958 1.415 . S
C3960 C3965 1.425 . S
C3960 C3967 1.409 . S
C3961 H3953 0.930 . S
C3961 C3959 1.419 . S
C3961 C3962 1.362 . S
C3962 H3954 0.930 . S
C3962 C3961 1.362 . S
C3962 C3965 1.409 . S
C3963 H3955 0.930 . S
C3963 C3964 1.355 . S
C3963 C3965 1.415 . S
C3964 C3963 1.355 . S
C3964 C3966 1.419 . S
C3965 C3960 1.425 . S
C3965 C3962 1.409 . S
C3965 C3963 1.415 . S
C3966 H3956 0.930 . S
C3966 C3964 1.419 . S
C3966 C3967 1.362 . S
C3967 H3957 0.930 . S
C3967 C3960 1.409 . S
C3967 C3966 1.362 . S
H3968 C3974 0.930 . S
H3969 C3977 0.930 . S
H3970 C3978 0.930 . S
H3971 C3979 0.930 . S
H3972 C3982 0.930 . S
H3973 C3983 0.930 . S
C3974 H3968 0.930 . S
C3974 C3975 1.355 . S
C3974 C3976 1.415 . S
C3975 C3974 1.355 . S
C3975 C3977 1.419 . S
C3976 C3974 1.415 . S
C3976 C3981 1.425 . S
C3976 C3983 1.409 . S
C3977 H3969 0.930 . S
C3977 C3975 1.419 . S
C3977 C3978 1.362 . S
C3978 H3970 0.930 . S
C3978 C3977 1.362 . S
C3978 C3981 1.409 . S
C3979 H3971 0.930 . S
C3979 C3980 1.355 . S
C3979 C3981 1.415 . S
C3980 C3979 1.355 . S
C3980 C3982 1.419 . S
C3981 C3976 1.425 . S
C3981 C3978 1.409 . S
C3981 C3979 1.415 . S
C3982 H3972 0.930 . S
C3982 C3980 1.419 . S
C3982 C3983 1.362 . S
C3983 H3973 0.930 . S
C3983 C3976 1.409 . S
C3983 C3982 1.362 . S
H3984 C3990 0.930 . S
H3985 C3993 0.930 . S
H3986 C3994 0.930 . S
H3987 C3995 0.930 . S
H3988 C3998 0.930 . S
H3989 C3999 0.930 . S
C3990 H3984 0.930 . S
C3990 C3991 1.355 . S
C3990 C3992 1.415 . S
C3991 C3990 1.355 . S
C3991 C3993 1.419 . S
C3992 C3990 1.415 . S
C3992 C3997 1.425 . S
C3992 C3999 1.409 . S
C3993 H3985 0.930 . S
C3993 C3991 1.419 . S
C3993 C3994 1.362 . S
C3994 H3986 0.930 . S
C3994 C3993 1.362 . S
C3994 C3997 1.409 . S
C3995 H3987 0.930 . S
C3995 C3996 1.355 . S
C3995 C3997 1.415 . S
C3996 C3995 1.355 . S
C3996 C3998 1.419 . S
C3997 C3992 1.425 . S
C3997 C3994 1.409 . S
C3997 C3995 1.415 . S
C3998 H3988 0.930 . S
C3998 C3996 1.419 . S
C3998 C3999 1.362 . S
C3999 H3989 0.930 . S
C3999 C3992 1.409 . S
C3999 C3998 1.362 . S
H4000 C4006 0.930 . S
H4001 C4009 0.930 . S
H4002 C4010 0.930 . S
H4003 C4011 0.930 . S
H4004 C4014 0.930 . S
H4005 C4015 0.930 . S
C4006 H4000 0.930 . S
C4006 C4007 1.355 . S
C4006 C4008 1.415 . S
C4007 C4006 1.355 . S
C4007 C4009 1.419 . S
C4008 C4006 1.415 . S
C4008 C4013 1.425 . S
C4008 C4015 1.409 . S
C4009 H4001 0.930 . S
C4009 C4007 1.419 . S
C4009 C4010 1.362 . S
C4010 H4002 0.930 . S
C4010 C4009 1.362 . S
C4010 C4013 1.409 . S
C4011 H4003 0.930 . S
C4011 C4012 1.355 . S
C4011 C4013 1.415 . S
C4012 C4011 1.355 . S
C4012 C4014 1.419 . S
C4013 C4008 1.425 . S
C4013 C4010 1.409 . S
C4013 C4011 1.415 . S
C4014 H4004 0.930 . S
C4014 C4012 1.419 . S
C4014 C4015 1.362 . S
C4015 H4005 0.930 . S
C4015 C4008 1.409 . S
C4015 C4014 1.362 . S
H4016 C4022 0.930 . S
H4017 C4025 0.930 . S
H4018 C4026 0.930 . S
H4019 C4027 0.930 . S
H4020 C4030 0.930 . S
H4021 C4031 0.930 . S
C4022 H4016 0.930 . S
C4022 C4023 1.355 . S
C4022 C4024 1.415 . S
C4023 C4022 1.355 . S
C4023 C4025 1.419 . S
C4024 C4022 1.415 . S
C4024 C4029 1.425 . S
C4024 C4031 1.409 . S
C4025 H4017 0.930 . S
C4025 C4023 1.419 . S
C4025 C4026 1.362 . S
C4026 H4018 0.930 . S
C4026 C4025 1.362 . S
C4026 C4029 1.409 . S
C4027 H4019 0.930 . S
C4027 C4028 1.355 . S
C4027 C4029 1.415 . S
C4028 C4027 1.355 . S
C4028 C4030 1.419 . S
C4029 C4024 1.425 . S
C4029 C4026 1.409 . S
C4029 C4027 1.415 . S
C4030 H4020 0.930 . S
C4030 C4028 1.419 . S
C4030 C4031 1.362 . S
C4031 H4021 0.930 . S
C4031 C4024 1.409 . S
C4031 C4030 1.362 . S
H4032 C4038 0.930 . S
H4033 C4041 0.930 . S
H4034 C4042 0.930 . S
H4035 C4043 0.930 . S
H4036 C4046 0.930 . S
H4037 C4047 0.930 . S
C4038 H4032 0.930 . S
C4038 C4039 1.355 . S
C4038 C4040 1.415 . S
C4039 C4038 1.355 . S
C4039 C4041 1.419 . S
C4040 C4038 1.415 . S
C4040 C4045 1.425 . S
C4040 C4047 1.409 . S
C4041 H4033 0.930 . S
C4041 C4039 1.419 . S
C4041 C4042 1.362 . S
C4042 H4034 0.930 . S
C4042 C4041 1.362 . S
C4042 C4045 1.409 . S
C4043 H4035 0.930 . S
C4043 C4044 1.355 . S
C4043 C4045 1.415 . S
C4044 C4043 1.355 . S
C4044 C4046 1.419 . S
C4045 C4040 1.425 . S
C4045 C4042 1.409 . S
C4045 C4043 1.415 . S
C4046 H4036 0.930 . S
C4046 C4044 1.419 . S
C4046 C4047 1.362 . S
C4047 H4037 0.930 . S
C4047 C4040 1.409 . S
C4047 C4046 1.362 . S
H4048 C4054 0.930 . S
H4049 C4057 0.930 . S
H4050 C4058 0.930 . S
H4051 C4059 0.930 . S
H4052 C4062 0.930 . S
H4053 C4063 0.930 . S
C4054 H4048 0.930 . S
C4054 C4055 1.355 . S
C4054 C4056 1.415 . S
C4055 C4054 1.355 . S
C4055 C4057 1.419 . S
C4056 C4054 1.415 . S
C4056 C4061 1.425 . S
C4056 C4063 1.409 . S
C4057 H4049 0.930 . S
C4057 C4055 1.419 . S
C4057 C4058 1.362 . S
C4058 H4050 0.930 . S
C4058 C4057 1.362 . S
C4058 C4061 1.409 . S
C4059 H4051 0.930 . S
C4059 C4060 1.355 . S
C4059 C4061 1.415 . S
C4060 C4059 1.355 . S
C4060 C4062 1.419 . S
C4061 C4056 1.425 . S
C4061 C4058 1.409 . S
C4061 C4059 1.415 . S
C4062 H4052 0.930 . S
C4062 C4060 1.419 . S
C4062 C4063 1.362 . S
C4063 H4053 0.930 . S
C4063 C4056 1.409 . S
C4063 C4062 1.362 . S
H4064 C4070 0.930 . S
H4065 C4073 0.930 . S
H4066 C4074 0.930 . S
H4067 C4075 0.930 . S
H4068 C4078 0.930 . S
H4069 C4079 0.968 . S
C4070 H4064 0.930 . S
C4070 C4071 1.355 . S
C4070 C4072 1.396 1_655 S
C4071 C4070 1.355 . S
C4071 C4073 1.419 1_655 S
C4072 C4070 1.396 1_455 S
C4072 C4077 1.460 . S
C4072 C4079 1.384 1_455 S
C4073 H4065 0.930 . S
C4073 C4071 1.419 1_455 S
C4073 C4074 1.362 . S
C4074 H4066 0.930 . S
C4074 C4073 1.362 . S
C4074 C4077 1.409 . S
C4075 H4067 0.930 . S
C4075 C4076 1.355 . S
C4075 C4077 1.415 . S
C4076 C4075 1.355 . S
C4076 C4078 1.419 . S
C4077 C4072 1.460 . S
C4077 C4074 1.409 . S
C4077 C4075 1.415 . S
C4078 H4068 0.930 . S
C4078 C4076 1.419 . S
C4078 C4079 1.340 1_455 S
C4079 H4069 0.968 . S
C4079 C4072 1.384 1_655 S
C4079 C4078 1.340 1_655 S
H4080 C4086 0.930 . S
H4081 C4089 0.930 . S
H4082 C4090 0.930 . S
H4083 C4091 0.930 . S
H4084 C4094 0.930 . S
H4085 C4095 0.930 . S
C4086 H4080 0.930 . S
C4086 C4087 1.355 . S
C4086 C4088 1.415 . S
C4087 C4086 1.355 . S
C4087 C4089 1.419 . S
C4088 C4086 1.415 . S
C4088 C4093 1.425 . S
C4088 C4095 1.409 . S
C4089 H4081 0.930 . S
C4089 C4087 1.419 . S
C4089 C4090 1.362 . S
C4090 H4082 0.930 . S
C4090 C4089 1.362 . S
C4090 C4093 1.409 . S
C4091 H4083 0.930 . S
C4091 C4092 1.355 . S
C4091 C4093 1.415 . S
C4092 C4091 1.355 . S
C4092 C4094 1.419 . S
C4093 C4088 1.425 . S
C4093 C4090 1.409 . S
C4093 C4091 1.415 . S
C4094 H4084 0.930 . S
C4094 C4092 1.419 . S
C4094 C4095 1.362 . S
C4095 H4085 0.930 . S
C4095 C4088 1.409 . S
C4095 C4094 1.362 . S
H4096 C4102 0.930 . S
H4097 C4105 0.930 . S
H4098 C4106 0.930 . S
H4099 C4107 0.930 . S
H4100 C4110 0.930 . S
H4101 C4111 0.930 . S
C4102 H4096 0.930 . S
C4102 C4103 1.355 . S
C4102 C4104 1.415 . S
C4103 C4102 1.355 . S
C4103 C4105 1.419 . S
C4104 C4102 1.415 . S
C4104 C4109 1.425 . S
C4104 C4111 1.409 . S
C4105 H4097 0.930 . S
C4105 C4103 1.419 . S
C4105 C4106 1.362 . S
C4106 H4098 0.930 . S
C4106 C4105 1.362 . S
C4106 C4109 1.409 . S
C4107 H4099 0.930 . S
C4107 C4108 1.355 . S
C4107 C4109 1.415 . S
C4108 C4107 1.355 . S
C4108 C4110 1.419 . S
C4109 C4104 1.425 . S
C4109 C4106 1.409 . S
C4109 C4107 1.415 . S
C4110 H4100 0.930 . S
C4110 C4108 1.419 . S
C4110 C4111 1.362 . S
C4111 H4101 0.930 . S
C4111 C4104 1.409 . S
C4111 C4110 1.362 . S
H4112 C4118 0.930 . S
H4113 C4121 0.930 . S
H4114 C4122 0.930 . S
H4115 C4123 0.930 . S
H4116 C4126 0.930 . S
H4117 C4127 0.930 . S
C4118 H4112 0.930 . S
C4118 C4119 1.355 . S
C4118 C4120 1.415 . S
C4119 C4118 1.355 . S
C4119 C4121 1.419 . S
C4120 C4118 1.415 . S
C4120 C4125 1.425 . S
C4120 C4127 1.409 . S
C4121 H4113 0.930 . S
C4121 C4119 1.419 . S
C4121 C4122 1.362 . S
C4122 H4114 0.930 . S
C4122 C4121 1.362 . S
C4122 C4125 1.409 . S
C4123 H4115 0.930 . S
C4123 C4124 1.355 . S
C4123 C4125 1.415 . S
C4124 C4123 1.355 . S
C4124 C4126 1.419 . S
C4125 C4120 1.425 . S
C4125 C4122 1.409 . S
C4125 C4123 1.415 . S
C4126 H4116 0.930 . S
C4126 C4124 1.419 . S
C4126 C4127 1.362 . S
C4127 H4117 0.930 . S
C4127 C4120 1.409 . S
C4127 C4126 1.362 . S
H4128 C4134 0.930 . S
H4129 C4137 0.930 . S
H4130 C4138 0.888 1_455 S
H4131 C4139 0.930 1_455 S
H4132 C4142 0.930 . S
H4133 C4143 0.930 . S
C4134 H4128 0.930 . S
C4134 C4135 1.355 . S
C4134 C4136 1.415 . S
C4135 C4134 1.355 . S
C4135 C4137 1.419 . S
C4136 C4134 1.415 . S
C4136 C4141 1.425 . S
C4136 C4143 1.409 . S
C4137 H4129 0.930 . S
C4137 C4135 1.419 . S
C4137 C4138 1.362 . S
C4138 H4130 0.888 1_655 S
C4138 C4137 1.362 . S
C4138 C4141 1.409 . S
C4139 H4131 0.930 1_655 S
C4139 C4140 1.355 . S
C4139 C4141 1.415 . S
C4140 C4139 1.355 . S
C4140 C4142 1.419 . S
C4141 C4136 1.425 . S
C4141 C4138 1.409 . S
C4141 C4139 1.415 . S
C4142 H4132 0.930 . S
C4142 C4140 1.419 . S
C4142 C4143 1.362 . S
C4143 H4133 0.930 . S
C4143 C4136 1.409 . S
C4143 C4142 1.362 . S
H4144 C4150 0.930 . S
H4145 C4153 0.930 . S
H4146 C4154 0.930 . S
H4147 C4155 0.930 . S
H4148 C4158 0.930 . S
H4149 C4159 0.930 . S
C4150 H4144 0.930 . S
C4150 C4151 1.355 . S
C4150 C4152 1.415 . S
C4151 C4150 1.355 . S
C4151 C4153 1.419 . S
C4152 C4150 1.415 . S
C4152 C4157 1.425 . S
C4152 C4159 1.409 . S
C4153 H4145 0.930 . S
C4153 C4151 1.419 . S
C4153 C4154 1.362 . S
C4154 H4146 0.930 . S
C4154 C4153 1.362 . S
C4154 C4157 1.409 . S
C4155 H4147 0.930 . S
C4155 C4156 1.355 . S
C4155 C4157 1.415 . S
C4156 C4155 1.355 . S
C4156 C4158 1.419 . S
C4157 C4152 1.425 . S
C4157 C4154 1.409 . S
C4157 C4155 1.415 . S
C4158 H4148 0.930 . S
C4158 C4156 1.419 . S
C4158 C4159 1.362 . S
C4159 H4149 0.930 . S
C4159 C4152 1.409 . S
C4159 C4158 1.362 . S
H4160 C4166 0.930 . S
H4161 C4169 0.930 . S
H4162 C4170 0.930 . S
H4163 C4171 0.930 . S
H4164 C4174 0.930 . S
H4165 C4175 0.930 . S
C4166 H4160 0.930 . S
C4166 C4167 1.355 . S
C4166 C4168 1.415 . S
C4167 C4166 1.355 . S
C4167 C4169 1.419 . S
C4168 C4166 1.415 . S
C4168 C4173 1.425 . S
C4168 C4175 1.409 . S
C4169 H4161 0.930 . S
C4169 C4167 1.419 . S
C4169 C4170 1.362 . S
C4170 H4162 0.930 . S
C4170 C4169 1.362 . S
C4170 C4173 1.409 . S
C4171 H4163 0.930 . S
C4171 C4172 1.355 . S
C4171 C4173 1.415 . S
C4172 C4171 1.355 . S
C4172 C4174 1.419 . S
C4173 C4168 1.425 . S
C4173 C4170 1.409 . S
C4173 C4171 1.415 . S
C4174 H4164 0.930 . S
C4174 C4172 1.419 . S
C4174 C4175 1.362 . S
C4175 H4165 0.930 . S
C4175 C4168 1.409 . S
C4175 C4174 1.362 . S
H4176 C4182 0.930 . S
H4177 C4185 0.930 . S
H4178 C4186 0.930 1_545 S
H4179 C4187 0.930 . S
H4180 C4190 0.930 . S
H4181 C4191 0.930 . S
C4182 H4176 0.930 . S
C4182 C4183 1.355 . S
C4182 C4184 1.415 . S
C4183 C4182 1.355 . S
C4183 C4185 1.419 . S
C4184 C4182 1.415 . S
C4184 C4189 1.425 . S
C4184 C4191 1.409 . S
C4185 H4177 0.930 . S
C4185 C4183 1.419 . S
C4185 C4186 1.362 . S
C4186 H4178 0.930 1_565 S
C4186 C4185 1.362 . S
C4186 C4189 1.409 . S
C4187 H4179 0.930 . S
C4187 C4188 1.361 . S
C4187 C4189 1.415 1_545 S
C4188 C4187 1.361 . S
C4188 C4190 1.401 1_545 S
C4189 C4184 1.425 . S
C4189 C4186 1.409 . S
C4189 C4187 1.415 1_565 S
C4190 H4180 0.930 . S
C4190 C4188 1.401 1_565 S
C4190 C4191 1.362 . S
C4191 H4181 0.930 . S
C4191 C4184 1.409 . S
C4191 C4190 1.362 . S
H4192 C4198 0.930 . S
H4193 C4201 0.930 . S
H4194 C4202 0.930 . S
H4195 C4203 0.930 . S
H4196 C4206 0.930 . S
H4197 C4207 0.930 . S
C4198 H4192 0.930 . S
C4198 C4199 1.355 . S
C4198 C4200 1.415 . S
C4199 C4198 1.355 . S
C4199 C4201 1.419 . S
C4200 C4198 1.415 . S
C4200 C4205 1.425 . S
C4200 C4207 1.409 . S
C4201 H4193 0.930 . S
C4201 C4199 1.419 . S
C4201 C4202 1.362 . S
C4202 H4194 0.930 . S
C4202 C4201 1.362 . S
C4202 C4205 1.409 . S
C4203 H4195 0.930 . S
C4203 C4204 1.355 . S
C4203 C4205 1.415 . S
C4204 C4203 1.355 . S
C4204 C4206 1.419 . S
C4205 C4200 1.425 . S
C4205 C4202 1.409 . S
C4205 C4203 1.415 . S
C4206 H4196 0.930 . S
C4206 C4204 1.419 . S
C4206 C4207 1.362 . S
C4207 H4197 0.930 . S
C4207 C4200 1.409 . S
C4207 C4206 1.362 . S
H4208 C4214 0.930 . S
H4209 C4217 0.930 . S
H4210 C4218 0.930 . S
H4211 C4219 0.930 . S
H4212 C4222 0.930 . S
H4213 C4223 0.930 . S
C4214 H4208 0.930 . S
C4214 C4215 1.371 . S
C4214 C4216 1.415 . S
C4215 C4214 1.371 . S
C4215 C4217 1.389 1_556 S
C4216 C4214 1.415 . S
C4216 C4221 1.425 1_556 S
C4216 C4223 1.409 . S
C4217 H4209 0.930 . S
C4217 C4215 1.389 1_554 S
C4217 C4218 1.362 . S
C4218 H4210 0.930 . S
C4218 C4217 1.362 . S
C4218 C4221 1.409 . S
C4219 H4211 0.930 . S
C4219 C4220 1.355 . S
C4219 C4221 1.415 . S
C4220 C4219 1.355 . S
C4220 C4222 1.419 1_554 S
C4221 C4216 1.425 1_554 S
C4221 C4218 1.409 . S
C4221 C4219 1.415 . S
C4222 H4212 0.930 . S
C4222 C4220 1.419 1_556 S
C4222 C4223 1.362 . S
C4223 H4213 0.930 . S
C4223 C4216 1.409 . S
C4223 C4222 1.362 . S
H4224 C4230 0.930 . S
H4225 C4233 0.930 . S
H4226 C4234 0.930 . S
H4227 C4235 0.930 . S
H4228 C4238 0.930 . S
H4229 C4239 0.930 . S
C4230 H4224 0.930 . S
C4230 C4231 1.355 . S
C4230 C4232 1.415 . S
C4231 C4230 1.355 . S
C4231 C4233 1.419 . S
C4232 C4230 1.415 . S
C4232 C4237 1.425 . S
C4232 C4239 1.409 . S
C4233 H4225 0.930 . S
C4233 C4231 1.419 . S
C4233 C4234 1.362 . S
C4234 H4226 0.930 . S
C4234 C4233 1.362 . S
C4234 C4237 1.409 . S
C4235 H4227 0.930 . S
C4235 C4236 1.355 . S
C4235 C4237 1.415 . S
C4236 C4235 1.355 . S
C4236 C4238 1.419 . S
C4237 C4232 1.425 . S
C4237 C4234 1.409 . S
C4237 C4235 1.415 . S
C4238 H4228 0.930 . S
C4238 C4236 1.419 . S
C4238 C4239 1.362 . S
C4239 H4229 0.930 . S
C4239 C4232 1.409 . S
C4239 C4238 1.362 . S
H4240 C4246 0.930 . S
H4241 C4249 0.930 . S
H4242 C4250 0.930 . S
H4243 C4251 0.930 . S
H4244 C4254 0.930 . S
H4245 C4255 0.930 . S
C4246 H4240 0.930 . S
C4246 C4247 1.355 1_556 S
C4246 C4248 1.415 . S
C4247 C4246 1.355 1_554 S
C4247 C4249 1.419 . S
C4248 C4246 1.415 . S
C4248 C4253 1.425 1_556 S
C4248 C4255 1.409 . S
C4249 H4241 0.930 . S
C4249 C4247 1.419 . S
C4249 C4250 1.362 . S
C4250 H4242 0.930 . S
C4250 C4249 1.362 . S
C4250 C4253 1.409 . S
C4251 H4243 0.930 . S
C4251 C4252 1.355 1_554 S
C4251 C4253 1.415 . S
C4252 C4251 1.355 1_556 S
C4252 C4254 1.419 . S
C4253 C4248 1.425 1_554 S
C4253 C4250 1.409 . S
C4253 C4251 1.415 . S
C4254 H4244 0.930 . S
C4254 C4252 1.419 . S
C4254 C4255 1.362 . S
C4255 H4245 0.930 . S
C4255 C4248 1.409 . S
C4255 C4254 1.362 . S
H4256 C4262 0.930 . S
H4257 C4265 0.930 . S
H4258 C4266 0.930 . S
H4259 C4267 0.930 . S
H4260 C4270 0.930 . S
H4261 C4271 0.930 . S
C4262 H4256 0.930 . S
C4262 C4263 1.355 . S
C4262 C4264 1.415 . S
C4263 C4262 1.355 . S
C4263 C4265 1.419 . S
C4264 C4262 1.415 . S
C4264 C4269 1.425 . S
C4264 C4271 1.409 . S
C4265 H4257 0.930 . S
C4265 C4263 1.419 . S
C4265 C4266 1.362 . S
C4266 H4258 0.930 . S
C4266 C4265 1.362 . S
C4266 C4269 1.409 . S
C4267 H4259 0.930 . S
C4267 C4268 1.355 . S
C4267 C4269 1.415 . S
C4268 C4267 1.355 . S
C4268 C4270 1.419 . S
C4269 C4264 1.425 . S
C4269 C4266 1.409 . S
C4269 C4267 1.415 . S
C4270 H4260 0.930 . S
C4270 C4268 1.419 . S
C4270 C4271 1.362 . S
C4271 H4261 0.930 . S
C4271 C4264 1.409 . S
C4271 C4270 1.362 . S
H4272 C4278 0.930 . S
H4273 C4281 0.930 . S
H4274 C4282 0.930 . S
H4275 C4283 0.930 . S
H4276 C4286 0.930 . S
H4277 C4287 0.930 . S
C4278 H4272 0.930 . S
C4278 C4279 1.355 . S
C4278 C4280 1.415 . S
C4279 C4278 1.355 . S
C4279 C4281 1.419 . S
C4280 C4278 1.415 . S
C4280 C4285 1.425 . S
C4280 C4287 1.409 . S
C4281 H4273 0.930 . S
C4281 C4279 1.419 . S
C4281 C4282 1.362 . S
C4282 H4274 0.930 . S
C4282 C4281 1.362 . S
C4282 C4285 1.409 . S
C4283 H4275 0.930 . S
C4283 C4284 1.355 . S
C4283 C4285 1.415 . S
C4284 C4283 1.355 . S
C4284 C4286 1.419 . S
C4285 C4280 1.425 . S
C4285 C4282 1.409 . S
C4285 C4283 1.415 . S
C4286 H4276 0.930 . S
C4286 C4284 1.419 . S
C4286 C4287 1.362 . S
C4287 H4277 0.930 . S
C4287 C4280 1.409 . S
C4287 C4286 1.362 . S
C2759 C665 2.243 . S
C2764 C2114 2.293 1_556 S
C2775 C381 2.058 . S
C2780 C2171 2.078 . S
C2791 C460 1.214 . S
C2796 C2194 1.265 . S
C2812 C2248 1.400 . S
C2807 C585 1.415 . S
C2823 C108 1.402 . S
C2828 C2288 1.376 . S
C2844 C2319 0.409 . S
C2839 C196 0.424 . S
C2860 C2371 1.391 . S
C2855 C313 1.338 . S
C2871 C49 1.754 . S
C2876 C2394 1.765 . S
C2892 C2131 2.433 . S
C2887 C1457 2.443 1_455 S
C2903 C1545 0.433 . S
C2908 C2168 0.485 . S
C2924 C2211 1.292 . S
C2919 C1721 1.307 . S
C2940 C2234 1.507 . S
C2935 C1113 1.457 . S
C2951 C1428 1.958 1_455 S
C2956 C2274 1.991 . S
C2972 C2322 1.404 . S
C2967 C1516 1.451 . S
C2988 C2368 0.413 . S
C2983 C1692 0.381 . S
C3004 C2411 2.069 . S
C2999 C1085 2.085 . S
C3020 C2128 1.488 1_565 S
C3015 C988 1.546 . S
C3031 C1817 1.929 . S
C3036 C2451 1.942 . S
C3052 C2483 2.515 . S
C3047 C2081 2.590 . S
C3068 C2514 0.671 1_655 S
C3063 C1993 0.738 . S
C3079 C761 1.476 . S
C3084 C2408 1.429 . S
C3095 C821 1.527 . S
C3100 C2208 1.490 . S
C3111 C2053 2.282 . S
C3116 C2571 2.266 . S
C3132 C2594 0.506 . S
C3127 C1868 0.359 . S
C3148 C2123 2.293 . S
C3143 C372 2.245 . S
C3164 C2602 2.089 . S
C3159 C645 2.062 . S
C3175 C577 1.204 . S
C3180 C2203 1.260 . S
C3191 C497 1.402 . S
C3196 C2559 1.376 . S
C3212 C2279 1.285 . S
C3207 C57 1.342 . S
C3223 C293 0.350 . S
C3228 C2488 0.371 . S
C3244 C2362 1.433 . S
C3239 C205 1.345 . S
C3260 C2643 1.728 . S
C3255 C145 1.784 . S
C3276 C2122 2.431 . S
C3271 C909 2.440 . S
C3292 C2599 0.646 . S
C3287 C1956 0.521 . S
C3303 C724 1.324 . S
C3308 C2202 1.311 . S
C3319 C1780 1.400 . S
C3324 C2563 1.509 . S
C3335 C937 1.945 . S
C3340 C2283 1.986 . S
C3356 C2491 1.440 . S
C3351 C1985 1.439 . S
C3367 C753 0.403 . S
C3372 C2359 0.451 . S
C3383 C1809 2.079 . S
C3388 C2642 2.061 . S
C3399 C1173 1.570 . S
C3404 C2119 1.558 . S
C3415 C1105 1.933 . S
C3420 C2442 1.941 . S
C3431 C1633 2.592 . S
C3436 C2314 2.523 . S
C3447 C1553 0.668 . S
C3452 C2523 0.654 . S
C3468 C2639 1.392 . S
C3463 C1729 1.446 . S
C3479 C1340 1.576 . S
C3484 C2199 1.554 . S
C3500 C2242 2.257 . S
C3495 C1604 2.269 . S
C3516 C2163 0.492 . S
C3511 C1252 0.366 . S
C3527 C489 2.243 . S
C3532 C2674 2.297 . S
C3548 C2611 2.078 . S
C3543 C557 2.084 . S
C3559 C636 1.207 . S
C3564 C2714 1.295 . S
C3575 C409 1.383 . S
C3580 C2568 1.357 . S
C3591 C284 1.347 . S
C3596 C2448 1.289 . S
C3612 C2479 0.401 . S
C3607 C20 0.336 1_655 S
C3628 C2531 1.386 . S
C3623 C137 1.341 . S
C3644 C2634 1.765 . S
C3639 C225 1.755 . S
C3660 C2691 2.432 . S
C3655 C1641 2.442 . S
C3671 C1193 0.432 . S
C3676 C2608 0.536 . S
C3692 C2731 1.325 . S
C3687 C1289 1.325 . S
C3708 C2554 1.507 . S
C3703 C1377 1.462 . S
C3724 C2434 2.010 . S
C3719 C1613 1.976 . S
C3735 C1164 1.436 . S
C3740 C2482 1.407 . S
C3756 C2528 0.342 . S
C3751 C1261 0.223 . S
C3767 C1349 2.092 . S
C3772 C2651 2.077 . S
C3788 C2688 1.565 . S
C3783 C1965 1.576 . S
C3799 C849 1.932 . S
C3804 C2291 1.939 . S
C3820 C2323 2.512 . S
C3815 C929 2.593 . S
C3836 C2354 0.689 . S
C3831 C1017 0.755 . S
C3852 C2648 1.478 . S
C3847 C1897 1.502 . S
C3863 C1789 1.566 . S
C3868 C2728 1.543 . S
C3884 C2251 2.232 . S
C3879 C900 2.267 . S
C3900 C2154 0.489 . S
C3895 C733 0.379 . S
C3911 C548 2.253 . S
C3916 C2683 2.287 . S
C3932 C2162 2.086 . S
C3927 C469 2.055 . S
C3943 C401 1.183 . S
C3948 C2723 1.269 . S
C3959 C673 1.392 . S
C3964 C2239 1.361 . S
C3975 C233 1.341 . S
C3980 C2439 1.280 . S
C3996 C2328 0.388 . S
C3991 C117 0.518 . S
C4007 C29 1.327 . S
C4012 C2522 1.393 . S
C4023 C321 1.777 . S
C4028 C2403 1.737 . S
C4044 C2682 2.412 . S
C4039 C2044 2.434 . S
C4055 C997 0.514 . S
C4060 C2159 0.621 . S
C4076 C2722 1.322 . S
C4071 C1877 1.319 . S
C4087 C812 1.478 . S
C4092 C2243 1.503 . S
C4103 C2073 1.975 . S
C4108 C2443 1.993 . S
C4124 C2331 1.412 . S
C4119 C1025 1.433 . S
C4135 C1905 0.328 . S
C4140 C2519 0.356 . S
C4156 C2402 2.032 . S
C4151 C841 2.059 . S
C4172 C2679 1.488 . S
C4167 C1525 1.534 . S
C4188 C2282 1.951 1_655 S
C4183 C1369 1.942 . S
C4199 C1465 2.588 . S
C4204 C2474 2.517 . S
C4220 C2363 0.664 . S
C4215 C1201 0.605 . S
C4231 C1281 1.503 . S
C4236 C2399 1.459 . S
C4247 C1076 1.572 . S
C4252 C2719 1.548 . S
C4268 C2562 2.244 . S
C4263 C1437 2.261 . S
C4284 C2603 0.344 . S
C4279 C1701 0.365 . S
