# Generated by pormake.
# Topology ocu, (6,8)-cn, num edge types: 1
# Building blocks:
#     Node 0, Type 0, BuildingBlock: VOLQOD_clean_sbu_1, # of connection points: 6
#     Node 1, Type 0, BuildingBlock: VOLQOD_clean_sbu_1, # of connection points: 6
#     Node 2, Type 0, BuildingBlock: VOLQOD_clean_sbu_1, # of connection points: 6
#     Node 3, Type 0, BuildingBlock: VOLQOD_clean_sbu_1, # of connection points: 6
#     Node 4, Type 0, BuildingBlock: VOLQOD_clean_sbu_1, # of connection points: 6
#     Node 5, Type 0, BuildingBlock: VOLQOD_clean_sbu_1, # of connection points: 6
#     Node 6, Type 0, BuildingBlock: VOLQOD_clean_sbu_1, # of connection points: 6
#     Node 7, Type 0, BuildingBlock: VOLQOD_clean_sbu_1, # of connection points: 6
#     Node 8, Type 1, BuildingBlock: GIZVER_clean_sbu_0, # of connection points: 8
#     Node 9, Type 1, BuildingBlock: GIZVER_clean_sbu_0, # of connection points: 8
#     Node 10, Type 1, BuildingBlock: GIZVER_clean_sbu_0, # of connection points: 8
#     Node 11, Type 1, BuildingBlock: GIZVER_clean_sbu_0, # of connection points: 8
#     Node 12, Type 1, BuildingBlock: GIZVER_clean_sbu_0, # of connection points: 8
#     Node 13, Type 1, BuildingBlock: GIZVER_clean_sbu_0, # of connection points: 8
#     Edge 14, Type (0, 1), BuildingBlock: UVAHIK_clean_linker_0, # of connection points: 2
#     Edge 15, Type (0, 1), BuildingBlock: UVAHIK_clean_linker_0, # of connection points: 2
#     Edge 16, Type (0, 1), BuildingBlock: UVAHIK_clean_linker_0, # of connection points: 2
#     Edge 17, Type (0, 1), BuildingBlock: UVAHIK_clean_linker_0, # of connection points: 2
#     Edge 18, Type (0, 1), BuildingBlock: UVAHIK_clean_linker_0, # of connection points: 2
#     Edge 19, Type (0, 1), BuildingBlock: UVAHIK_clean_linker_0, # of connection points: 2
#     Edge 20, Type (0, 1), BuildingBlock: UVAHIK_clean_linker_0, # of connection points: 2
#     Edge 21, Type (0, 1), BuildingBlock: UVAHIK_clean_linker_0, # of connection points: 2
#     Edge 22, Type (0, 1), BuildingBlock: UVAHIK_clean_linker_0, # of connection points: 2
#     Edge 23, Type (0, 1), BuildingBlock: UVAHIK_clean_linker_0, # of connection points: 2
#     Edge 24, Type (0, 1), BuildingBlock: UVAHIK_clean_linker_0, # of connection points: 2
#     Edge 25, Type (0, 1), BuildingBlock: UVAHIK_clean_linker_0, # of connection points: 2
#     Edge 26, Type (0, 1), BuildingBlock: UVAHIK_clean_linker_0, # of connection points: 2
#     Edge 27, Type (0, 1), BuildingBlock: UVAHIK_clean_linker_0, # of connection points: 2
#     Edge 28, Type (0, 1), BuildingBlock: UVAHIK_clean_linker_0, # of connection points: 2
#     Edge 29, Type (0, 1), BuildingBlock: UVAHIK_clean_linker_0, # of connection points: 2
#     Edge 30, Type (0, 1), BuildingBlock: UVAHIK_clean_linker_0, # of connection points: 2
#     Edge 31, Type (0, 1), BuildingBlock: UVAHIK_clean_linker_0, # of connection points: 2
#     Edge 32, Type (0, 1), BuildingBlock: UVAHIK_clean_linker_0, # of connection points: 2
#     Edge 33, Type (0, 1), BuildingBlock: UVAHIK_clean_linker_0, # of connection points: 2
#     Edge 34, Type (0, 1), BuildingBlock: UVAHIK_clean_linker_0, # of connection points: 2
#     Edge 35, Type (0, 1), BuildingBlock: UVAHIK_clean_linker_0, # of connection points: 2
#     Edge 36, Type (0, 1), BuildingBlock: UVAHIK_clean_linker_0, # of connection points: 2
#     Edge 37, Type (0, 1), BuildingBlock: UVAHIK_clean_linker_0, # of connection points: 2
#     Edge 38, Type (0, 1), BuildingBlock: UVAHIK_clean_linker_0, # of connection points: 2
#     Edge 39, Type (0, 1), BuildingBlock: UVAHIK_clean_linker_0, # of connection points: 2
#     Edge 40, Type (0, 1), BuildingBlock: UVAHIK_clean_linker_0, # of connection points: 2
#     Edge 41, Type (0, 1), BuildingBlock: UVAHIK_clean_linker_0, # of connection points: 2
#     Edge 42, Type (0, 1), BuildingBlock: UVAHIK_clean_linker_0, # of connection points: 2
#     Edge 43, Type (0, 1), BuildingBlock: UVAHIK_clean_linker_0, # of connection points: 2
#     Edge 44, Type (0, 1), BuildingBlock: UVAHIK_clean_linker_0, # of connection points: 2
#     Edge 45, Type (0, 1), BuildingBlock: UVAHIK_clean_linker_0, # of connection points: 2
#     Edge 46, Type (0, 1), BuildingBlock: UVAHIK_clean_linker_0, # of connection points: 2
#     Edge 47, Type (0, 1), BuildingBlock: UVAHIK_clean_linker_0, # of connection points: 2
#     Edge 48, Type (0, 1), BuildingBlock: UVAHIK_clean_linker_0, # of connection points: 2
#     Edge 49, Type (0, 1), BuildingBlock: UVAHIK_clean_linker_0, # of connection points: 2
#     Edge 50, Type (0, 1), BuildingBlock: UVAHIK_clean_linker_0, # of connection points: 2
#     Edge 51, Type (0, 1), BuildingBlock: UVAHIK_clean_linker_0, # of connection points: 2
#     Edge 52, Type (0, 1), BuildingBlock: UVAHIK_clean_linker_0, # of connection points: 2
#     Edge 53, Type (0, 1), BuildingBlock: UVAHIK_clean_linker_0, # of connection points: 2
#     Edge 54, Type (0, 1), BuildingBlock: UVAHIK_clean_linker_0, # of connection points: 2
#     Edge 55, Type (0, 1), BuildingBlock: UVAHIK_clean_linker_0, # of connection points: 2
#     Edge 56, Type (0, 1), BuildingBlock: UVAHIK_clean_linker_0, # of connection points: 2
#     Edge 57, Type (0, 1), BuildingBlock: UVAHIK_clean_linker_0, # of connection points: 2
#     Edge 58, Type (0, 1), BuildingBlock: UVAHIK_clean_linker_0, # of connection points: 2
#     Edge 59, Type (0, 1), BuildingBlock: UVAHIK_clean_linker_0, # of connection points: 2
#     Edge 60, Type (0, 1), BuildingBlock: UVAHIK_clean_linker_0, # of connection points: 2
#     Edge 61, Type (0, 1), BuildingBlock: UVAHIK_clean_linker_0, # of connection points: 2
# Relax obj value: 0.252
# Max RMSD: 0.354
# Mean RMSD: 0.250
data_MOF--net-ocu--node1-VOLQOD_clean_sbu_1--node2-GIZVER_clean_sbu_0--edge1-UVAHIK_clean_linker_0
_symmetry_space_group_name_H-M    P1
_symmetry_Int_Tables_number       1
_symmetry_cell_setting            triclinic
loop_
_symmetry_equiv_pos_as_xyz
'x, y, z'
_cell_length_a     52.639406
_cell_length_b     55.110669
_cell_length_c     38.513503
_cell_angle_alpha  88.809869
_cell_angle_beta   90.625323
_cell_angle_gamma 99.48433
loop_
_atom_site_label
_atom_site_type_symbol
_atom_site_fract_x
_atom_site_fract_y
_atom_site_fract_z
_atom_type_partial_charge
O0 O 0.29306 0.28117 0.28247 0.0
Zn1 Zn 0.26677 0.25458 0.30482 0.0
O2 O 0.24773 0.23386 0.26828 0.0
Zn3 Zn 0.211 0.2349 0.27102 0.0
Zn4 Zn 0.25938 0.24532 0.22164 0.0
Zn5 Zn 0.25283 0.19984 0.2749 0.0
O6 O 0.18988 0.20135 0.27846 0.0
O7 O 0.21951 0.17716 0.28433 0.0
O8 O 0.24221 0.27184 0.3328 0.0
O9 O 0.20419 0.25578 0.31053 0.0
O10 O 0.1979 0.25094 0.22864 0.0
O11 O 0.23156 0.2588 0.19374 0.0
O12 O 0.27239 0.21859 0.19471 0.0
O13 O 0.28628 0.23403 0.33763 0.0
O14 O 0.26928 0.18764 0.23306 0.0
O15 O 0.27566 0.19663 0.31596 0.0
C16 C 0.29967 0.286 0.25099 0.0
C17 C 0.19609 0.18026 0.28424 0.0
C18 C 0.20809 0.25982 0.20033 0.0
C19 C 0.21768 0.26977 0.33206 0.0
C20 C 0.27563 0.1968 0.20313 0.0
C21 C 0.28754 0.21107 0.33832 0.0
O22 O 0.28862 0.27337 0.2261 0.0
O23 O 0.74237 0.21281 0.20364 0.0
Zn24 Zn 0.76565 0.23631 0.23546 0.0
O25 O 0.74516 0.25365 0.26626 0.0
Zn26 Zn 0.75572 0.28891 0.26242 0.0
Zn27 Zn 0.70917 0.24638 0.25318 0.0
Zn28 Zn 0.74926 0.24405 0.31464 0.0
O29 O 0.76965 0.30419 0.30684 0.0
O30 O 0.76717 0.27215 0.34316 0.0
O31 O 0.79049 0.26082 0.20653 0.0
O32 O 0.78301 0.29638 0.22719 0.0
O33 O 0.72801 0.30608 0.24426 0.0
O34 O 0.69646 0.27552 0.23237 0.0
O35 O 0.68726 0.23456 0.29408 0.0
O36 O 0.78709 0.21636 0.26432 0.0
O37 O 0.71516 0.23068 0.3367 0.0
O38 O 0.77239 0.21904 0.31777 0.0
C39 C 0.71795 0.20917 0.19954 0.0
C40 C 0.77364 0.29503 0.33657 0.0
C41 C 0.70592 0.29825 0.23153 0.0
C42 C 0.79479 0.28427 0.20686 0.0
C43 C 0.69212 0.22878 0.32531 0.0
C44 C 0.78704 0.21071 0.29656 0.0
O45 O 0.70359 0.22074 0.21696 0.0
O46 O 0.72346 0.72497 0.25788 0.0
Zn47 Zn 0.75337 0.75061 0.27382 0.0
O48 O 0.77347 0.76519 0.23284 0.0
Zn49 Zn 0.80902 0.75978 0.23588 0.0
Zn50 Zn 0.75858 0.75109 0.18963 0.0
Zn51 Zn 0.77399 0.80047 0.23072 0.0
O52 O 0.83375 0.79089 0.24467 0.0
O53 O 0.80881 0.81955 0.24224 0.0
O54 O 0.77617 0.73347 0.30673 0.0
O55 O 0.81313 0.7392 0.27781 0.0
O56 O 0.81966 0.74213 0.19435 0.0
O57 O 0.78378 0.73488 0.16278 0.0
O58 O 0.74478 0.77663 0.15927 0.0
O59 O 0.73752 0.77673 0.29954 0.0
O60 O 0.76062 0.81157 0.18517 0.0
O61 O 0.75043 0.80982 0.26649 0.0
C62 C 0.71696 0.71646 0.22797 0.0
C63 C 0.83071 0.81318 0.24756 0.0
C64 C 0.8073 0.73283 0.16786 0.0
C65 C 0.79965 0.73057 0.3038 0.0
C66 C 0.74807 0.80005 0.16041 0.0
C67 C 0.73773 0.79948 0.29221 0.0
O68 O 0.72906 0.7246 0.20063 0.0
O69 O 0.27662 0.78002 0.29702 0.0
Zn70 Zn 0.25004 0.75761 0.26826 0.0
O71 O 0.22992 0.7768 0.23811 0.0
Zn72 Zn 0.1936 0.76862 0.24917 0.0
Zn73 Zn 0.2407 0.81146 0.24556 0.0
Zn74 Zn 0.23476 0.77047 0.18914 0.0
O75 O 0.17324 0.75179 0.20964 0.0
O76 O 0.20228 0.75221 0.16817 0.0
O77 O 0.22691 0.73402 0.29992 0.0
O78 O 0.18856 0.74413 0.28808 0.0
O79 O 0.17879 0.79757 0.26542 0.0
O80 O 0.21339 0.82649 0.26822 0.0
O81 O 0.24992 0.82993 0.20135 0.0
O82 O 0.26904 0.7369 0.23876 0.0
O83 O 0.2465 0.80145 0.16103 0.0
O84 O 0.26115 0.74845 0.18453 0.0
C85 C 0.28333 0.80335 0.29584 0.0
C86 C 0.17944 0.74603 0.17941 0.0
C87 C 0.18955 0.81914 0.27346 0.0
C88 C 0.20275 0.73152 0.30511 0.0
C89 C 0.25158 0.82386 0.1699 0.0
C90 C 0.27222 0.73576 0.20613 0.0
O91 O 0.27158 0.8169 0.27644 0.0
O92 O 0.25817 0.704 0.69969 0.0
Zn93 Zn 0.27755 0.72969 0.73218 0.0
O94 O 0.25497 0.75153 0.75069 0.0
Zn95 Zn 0.26727 0.7857 0.73814 0.0
Zn96 Zn 0.221 0.74217 0.73147 0.0
Zn97 Zn 0.2526 0.74863 0.80101 0.0
O98 O 0.27879 0.80558 0.78055 0.0
O99 O 0.26378 0.78104 0.82471 0.0
O100 O 0.30646 0.74965 0.70464 0.0
O101 O 0.29735 0.78765 0.7065 0.0
O102 O 0.24024 0.80125 0.71284 0.0
O103 O 0.20747 0.77038 0.71014 0.0
O104 O 0.19639 0.72557 0.76698 0.0
O105 O 0.29399 0.71297 0.77141 0.0
O106 O 0.21785 0.73091 0.81685 0.0
O107 O 0.27753 0.72775 0.81781 0.0
C108 C 0.23619 0.7036 0.68526 0.0
C109 C 0.27541 0.80167 0.81303 0.0
C110 C 0.21731 0.79259 0.7036 0.0
C111 C 0.31115 0.77238 0.69603 0.0
C112 C 0.19763 0.72235 0.79971 0.0
C113 C 0.29235 0.71465 0.80423 0.0
O114 O 0.22122 0.71823 0.694 0.0
O115 O 0.22423 0.21749 0.74535 0.0
Zn116 Zn 0.2521 0.24034 0.77114 0.0
O117 O 0.27623 0.2599 0.73789 0.0
Zn118 Zn 0.3113 0.25507 0.74778 0.0
Zn119 Zn 0.26758 0.25016 0.69015 0.0
Zn120 Zn 0.27491 0.29478 0.74158 0.0
O121 O 0.33443 0.28628 0.7605 0.0
O122 O 0.30899 0.31442 0.75508 0.0
O123 O 0.27111 0.21957 0.80366 0.0
O124 O 0.31185 0.23238 0.78867 0.0
O125 O 0.32617 0.23916 0.70804 0.0
O126 O 0.29527 0.23433 0.6679 0.0
O127 O 0.25798 0.27795 0.66048 0.0
O128 O 0.23421 0.26301 0.80026 0.0
O129 O 0.26179 0.3086 0.69761 0.0
O130 O 0.25055 0.30001 0.77901 0.0
C131 C 0.22047 0.21408 0.71293 0.0
C132 C 0.33078 0.30845 0.76249 0.0
C133 C 0.31761 0.23146 0.67851 0.0
C134 C 0.29515 0.21935 0.80782 0.0
C135 C 0.25582 0.29996 0.66767 0.0
C136 C 0.23583 0.28639 0.80007 0.0
O137 O 0.23575 0.22534 0.69039 0.0
O138 O 0.77471 0.27099 0.80822 0.0
Zn139 Zn 0.75221 0.24818 0.77605 0.0
O140 O 0.7302 0.26566 0.74658 0.0
Zn141 Zn 0.69386 0.25465 0.756 0.0
Zn142 Zn 0.73868 0.3006 0.75498 0.0
Zn143 Zn 0.73676 0.2597 0.69831 0.0
O144 O 0.67568 0.23878 0.71341 0.0
O145 O 0.70463 0.24668 0.67146 0.0
O146 O 0.7302 0.22259 0.80513 0.0
O147 O 0.69012 0.22849 0.79369 0.0
O148 O 0.67671 0.28284 0.77167 0.0
O149 O 0.7075 0.31536 0.76522 0.0
O150 O 0.75847 0.31836 0.71519 0.0
O151 O 0.77447 0.22967 0.74808 0.0
O152 O 0.75828 0.28932 0.67591 0.0
O153 O 0.75784 0.23311 0.69535 0.0
C154 C 0.77525 0.29367 0.81441 0.0
C155 C 0.68215 0.23739 0.68177 0.0
C156 C 0.6845 0.30599 0.77303 0.0
C157 C 0.70603 0.21719 0.80991 0.0
C158 C 0.76533 0.31129 0.686 0.0
C159 C 0.77265 0.22392 0.71624 0.0
O160 O 0.76167 0.30668 0.7969 0.0
O161 O 0.79067 0.78067 0.78225 0.0
Zn162 Zn 0.76397 0.75318 0.80178 0.0
O163 O 0.74487 0.73451 0.76345 0.0
Zn164 Zn 0.70895 0.73884 0.76361 0.0
Zn165 Zn 0.75952 0.74602 0.71843 0.0
Zn166 Zn 0.74632 0.69952 0.76907 0.0
O167 O 0.68533 0.7069 0.7715 0.0
O168 O 0.71108 0.67888 0.7747 0.0
O169 O 0.73994 0.77019 0.83077 0.0
O170 O 0.7029 0.76095 0.80207 0.0
O171 O 0.69837 0.75416 0.71902 0.0
O172 O 0.73333 0.75796 0.68642 0.0
O173 O 0.77584 0.71997 0.69479 0.0
O174 O 0.78214 0.73066 0.83281 0.0
O175 O 0.76477 0.68718 0.72914 0.0
O176 O 0.76704 0.69387 0.81144 0.0
C177 C 0.79685 0.7874 0.75119 0.0
C178 C 0.68863 0.68465 0.77538 0.0
C179 C 0.70999 0.76062 0.69067 0.0
C180 C 0.71618 0.77181 0.82674 0.0
C181 C 0.776 0.69733 0.70214 0.0
C182 C 0.78062 0.70729 0.83354 0.0
O183 O 0.78644 0.77558 0.72527 0.0
Co184 Co 0.02159 0.95786 0.52716 0.0
Co185 Co 0.02646 0.98006 0.58697 0.0
Co186 Co 0.98828 0.00415 0.53922 0.0
O187 O 0.02007 0.99002 0.54236 0.0
H188 H 0.0348 0.00169 0.53464 0.0
O189 O 0.95692 0.01903 0.53555 0.0
Co190 Co 0.95842 0.0534 0.54132 0.0
Co191 Co 0.95155 0.02427 0.48893 0.0
H192 H 0.94207 0.00904 0.546 0.0
O193 O 0.0592 0.9768 0.60105 0.0
O194 O 0.02949 0.94837 0.57548 0.0
O195 O -0.00043 0.97937 0.62009 0.0
O196 O 0.97043 0.98401 0.57921 0.0
O197 O 0.00402 0.02977 0.5716 0.0
O198 O 0.95644 0.08446 0.54826 0.0
O199 O 0.92451 0.05164 0.54797 0.0
O200 O 0.99502 0.05991 0.5376 0.0
O201 O 0.00605 0.02383 0.49883 0.0
O202 O 0.97713 0.01781 0.45652 0.0
O203 O 0.95373 0.05801 0.4903 0.0
O204 O 0.92057 0.02956 0.47178 0.0
C205 C 0.04954 0.94129 0.50708 0.0
C206 C 0.97071 0.95563 0.51218 0.0
C207 C 0.97635 0.97822 0.61027 0.0
C208 C 0.05208 0.95463 0.5898 0.0
C209 C 0.93242 0.07499 0.55317 0.0
C210 C 0.00822 0.05226 0.56218 0.0
C211 C 0.0003 0.02338 0.46652 0.0
C212 C 0.93196 0.05231 0.4735 0.0
O213 O 0.02649 0.92905 0.51195 0.0
O214 O 0.05515 0.96409 0.51674 0.0
O215 O 0.97236 0.97863 0.50686 0.0
O216 O 0.98572 0.94744 0.53399 0.0
Co217 Co 0.53325 0.94828 0.99818 0.0
Co218 Co 0.52783 0.96386 0.05944 0.0
Co219 Co 0.50391 -0.00154 0.00269 0.0
O220 O 0.53201 0.98012 0.01676 0.0
H221 H 0.54863 0.99061 0.01602 0.0
O222 O 0.4755 0.01635 0.98895 0.0
Co223 Co 0.47312 0.04804 0.00656 0.0
Co224 Co 0.47814 0.03095 0.9455 0.0
H225 H 0.45906 0.00556 0.99018 0.0
O226 O 0.55696 0.96076 0.08472 0.0
O227 O 0.53622 0.93445 0.04564 0.0
O228 O 0.49381 0.95868 0.07839 0.0
O229 O 0.47864 0.98246 0.0383 0.0
O230 O 0.51875 0.02457 0.03561 0.0
O231 O 0.46766 0.07648 0.02331 0.0
O232 O 0.43837 0.04326 0.01036 0.0
O233 O 0.50964 0.05706 0.00618 0.0
O234 O 0.52913 0.01469 0.96693 0.0
O235 O 0.51131 0.03454 0.92433 0.0
O236 O 0.47064 0.06103 0.95836 0.0
O237 O 0.44835 0.03393 0.92148 0.0
C238 C 0.56154 0.93002 0.98107 0.0
C239 C 0.48209 0.95038 0.98003 0.0
C240 C 0.47549 0.96801 0.06479 0.0
C241 C 0.55549 0.94075 0.06698 0.0
C242 C 0.44378 0.06559 0.02214 0.0
C243 C 0.52461 0.04706 0.02609 0.0
C244 C 0.53069 0.02732 0.93859 0.0
C245 C 0.45098 0.05469 0.93763 0.0
O246 O 0.53741 0.91991 0.98041 0.0
O247 O 0.56799 0.95216 0.99325 0.0
O248 O 0.48915 0.97249 0.96955 0.0
O249 O 0.49665 0.94 0.0 0.0
Co250 Co 0.03823 0.44286 0.98708 0.0
Co251 Co 0.0452 0.46559 0.04597 0.0
Co252 Co 0.00692 0.49168 0.99781 0.0
O253 O 0.0386 0.47619 0.00109 0.0
H254 H 0.05353 0.48714 0.99245 0.0
O255 O 0.97505 0.50705 0.99432 0.0
Co256 Co 0.97635 0.54081 0.00654 0.0
Co257 Co 0.96833 0.51636 0.94846 0.0
H258 H 0.96017 0.49646 0.00383 0.0
O259 O 0.07774 0.46017 0.06033 0.0
O260 O 0.04669 0.43312 0.03524 0.0
O261 O 0.01776 0.46402 0.07846 0.0
O262 O 0.98933 0.47238 0.03849 0.0
O263 O 0.02399 0.51825 0.02887 0.0
O264 O 0.97487 0.57119 0.0191 0.0
O265 O 0.94281 0.53862 0.01894 0.0
O266 O 0.01171 0.5476 0.99611 0.0
O267 O 0.02441 0.51095 0.9571 0.0
O268 O 0.99597 0.5172 0.91597 0.0
O269 O 0.96765 0.54913 0.95822 0.0
O270 O 0.93566 0.52257 0.93454 0.0
C271 C 0.06485 0.42345 0.96791 0.0
C272 C 0.98595 0.443 0.97692 0.0
C273 C 0.99474 0.46413 0.06848 0.0
C274 C 0.06918 0.43795 0.05031 0.0
C275 C 0.95092 0.5619 0.02491 0.0
C276 C 0.02717 0.54057 0.01818 0.0
C277 C 0.01904 0.51831 0.92659 0.0
C278 C 0.94466 0.54463 0.94476 0.0
O279 O 0.0411 0.41306 0.97283 0.0
O280 O 0.07187 0.44662 0.97538 0.0
O281 O 0.98997 0.46541 0.96674 0.0
O282 O 0.00232 0.43445 0.9962 0.0
Co283 Co 0.52425 0.46321 0.02043 0.0
Co284 Co 0.53475 0.48259 0.08109 0.0
Co285 Co 0.49229 0.50815 0.04464 0.0
O286 O 0.52475 0.49506 0.03958 0.0
H287 H 0.53855 0.50721 0.03045 0.0
O288 O 0.46003 0.52129 0.04833 0.0
Co289 Co 0.45888 0.5546 0.05884 0.0
Co290 Co 0.45133 0.52804 0.00231 0.0
H291 H 0.44638 0.5098 0.05901 0.0
O292 O 0.56876 0.4812 0.08805 0.0
O293 O 0.53819 0.45222 0.06478 0.0
O294 O 0.51055 0.47768 0.11847 0.0
O295 O 0.47833 0.4854 0.0843 0.0
O296 O 0.50978 0.53233 0.07792 0.0
O297 O 0.4541 0.58466 0.06917 0.0
O298 O 0.42499 0.54967 0.06776 0.0
O299 O 0.49516 0.56406 0.05333 0.0
O300 O 0.50612 0.53114 0.00551 0.0
O301 O 0.47565 0.52532 0.96539 0.0
O302 O 0.45218 0.56121 0.00893 0.0
O303 O 0.41888 0.53345 0.98978 0.0
C304 C 0.54888 0.44655 0.99238 0.0
C305 C 0.47363 0.46097 0.01543 0.0
C306 C 0.48672 0.47713 0.11271 0.0
C307 C 0.56183 0.45949 0.0751 0.0
C308 C 0.43064 0.5732 0.07338 0.0
C309 C 0.51106 0.55542 0.07338 0.0
C310 C 0.49906 0.53181 0.97381 0.0
C311 C 0.42935 0.55613 0.99496 0.0
O312 O 0.52644 0.43487 0.00164 0.0
O313 O 0.55627 0.46925 0.00197 0.0
O314 O 0.47458 0.48403 0.01141 0.0
O315 O 0.49004 0.45294 0.03515 0.0
Co316 Co 0.05821 0.46952 0.50337 0.0
Co317 Co 0.0347 0.46805 0.44413 0.0
Co318 Co 0.00839 0.50118 0.49742 0.0
O319 O 0.02345 0.47075 0.48915 0.0
H320 H 0.0118 0.45601 0.49585 0.0
O321 O 0.99351 0.53162 0.50604 0.0
Co322 Co 0.95924 0.53492 0.49175 0.0
Co323 Co 0.98281 0.53408 0.55176 0.0
H324 H 0.00564 0.54621 0.50002 0.0
O325 O 0.03664 0.43734 0.42659 0.0
O326 O 0.06754 0.46234 0.45539 0.0
O327 O 0.03889 0.49741 0.41607 0.0
O328 O 0.02647 0.52075 0.45731 0.0
O329 O 0.97886 0.48731 0.46703 0.0
O330 O 0.92867 0.54088 0.47773 0.0
O331 O 0.96535 0.56793 0.48436 0.0
O332 O 0.94823 0.50072 0.49657 0.0
O333 O 0.98996 0.48157 0.53705 0.0
O334 O 0.97893 0.50442 0.57973 0.0
O335 O 0.94968 0.53923 0.54059 0.0
O336 O 0.97942 0.5643 0.57091 0.0
C337 C 0.07815 0.44345 0.52274 0.0
C338 C 0.06107 0.51793 0.51701 0.0
C339 C 0.03643 0.51826 0.42771 0.0
C340 C 0.05988 0.44186 0.43922 0.0
C341 C 0.94095 0.56336 0.47582 0.0
C342 C 0.95565 0.48479 0.47739 0.0
C343 C 0.98036 0.48366 0.56695 0.0
C344 C 0.95612 0.55898 0.55873 0.0
O345 O 0.08917 0.46612 0.51792 0.0
O346 O 0.05385 0.4369 0.51458 0.0
O347 O 0.03798 0.51494 0.52798 0.0
O348 O 0.06746 0.50354 0.49456 0.0
Co349 Co 0.56186 0.96595 0.50842 0.0
Co350 Co 0.54323 0.97514 0.44931 0.0
Co351 Co 0.50856 0.99302 0.51012 0.0
O352 O 0.52786 0.96818 0.49166 0.0
H353 H 0.5171 0.95218 0.49087 0.0
O354 O 0.48974 0.01833 0.52852 0.0
Co355 Co 0.45665 0.02274 0.51069 0.0
Co356 Co 0.47353 0.01117 0.57025 0.0
H357 H 0.50105 0.03396 0.53029 0.0
O358 O 0.54606 0.94963 0.42058 0.0
O359 O 0.57518 0.96717 0.45995 0.0
O360 O 0.54538 0.00838 0.43272 0.0
O361 O 0.52314 0.02014 0.47666 0.0
O362 O 0.48026 0.98105 0.47702 0.0
O363 O 0.42712 0.02999 0.49419 0.0
O364 O 0.46229 0.05613 0.51121 0.0
O365 O 0.44651 0.98805 0.50674 0.0
O366 O 0.49386 0.96585 0.54368 0.0
O367 O 0.47045 0.97775 0.58632 0.0
O368 O 0.44279 0.02108 0.55867 0.0
O369 O 0.47182 0.03663 0.59944 0.0
C370 C 0.5809 0.93748 0.52116 0.0
C371 C 0.55922 0.01339 0.53248 0.0
C372 C 0.53618 0.0248 0.44884 0.0
C373 C 0.5684 0.95095 0.43585 0.0
C374 C 0.43886 0.05244 0.49862 0.0
C375 C 0.45696 0.97472 0.48641 0.0
C376 C 0.48021 0.9613 0.57104 0.0
C377 C 0.45032 0.03718 0.58266 0.0
O378 O 0.59231 0.96019 0.52432 0.0
O379 O 0.55741 0.93292 0.50907 0.0
O380 O 0.5368 0.0046 0.54327 0.0
O381 O 0.57054 0.00129 0.51132 0.0
C382 C 0.18181 0.14004 0.31493 0.0
C383 C 0.17583 0.1594 0.29374 0.0
C384 C 0.16228 0.12186 0.3276 0.0
C385 C 0.09208 0.11239 0.34453 0.0
H386 H 0.10323 0.04659 0.37072 0.0
C387 C 0.01299 0.04176 0.40809 0.0
C388 C 0.02019 0.03325 0.44083 0.0
C389 C 0.03158 0.05388 0.38539 0.0
C390 C 0.0999 0.0649 0.36338 0.0
H391 H 0.145 0.17403 0.26718 0.0
H392 H 0.11099 0.14168 0.28775 0.0
H393 H 0.13611 0.07372 0.3376 0.0
H394 H 0.05262 0.02944 0.47459 0.0
H395 H 0.08521 0.05032 0.43444 0.0
H396 H 0.05574 0.10335 0.37001 0.0
C397 C 0.13062 0.14101 0.29591 0.0
C398 C 0.11875 0.08053 0.34462 0.0
C399 C 0.15011 0.15948 0.28386 0.0
C400 C 0.04648 0.03592 0.44961 0.0
C401 C 0.06512 0.04772 0.42662 0.0
C402 C 0.0731 0.09663 0.36265 0.0
C403 C 0.13633 0.12236 0.31882 0.0
C404 C 0.11531 0.10468 0.33552 0.0
C405 C 0.05775 0.05735 0.39473 0.0
C406 C 0.07702 0.07292 0.37274 0.0
H407 H 0.20148 0.13957 0.32315 0.0
H408 H 0.16752 0.1081 0.34553 0.0
H409 H 0.08884 0.13095 0.33881 0.0
H410 H 0.9929 0.04 0.40052 0.0
H411 H 0.02548 0.06108 0.36084 0.0
C412 C 0.8061 0.19022 0.34631 0.0
C413 C 0.80574 0.19577 0.31055 0.0
C414 C 0.82479 0.17775 0.3604 0.0
C415 C 0.86718 0.13481 0.33921 0.0
H416 H 0.8959 0.15288 0.43012 0.0
C417 C 0.93379 0.09596 0.45304 0.0
C418 C 0.92118 0.0714 0.4537 0.0
C419 C 0.92432 0.11355 0.4322 0.0
C420 C 0.88847 0.14784 0.40447 0.0
H421 H 0.82459 0.19232 0.26145 0.0
H422 H 0.85728 0.17012 0.28633 0.0
H423 H 0.87131 0.18028 0.39881 0.0
H424 H 0.88854 0.04611 0.43362 0.0
H425 H 0.8719 0.07677 0.39793 0.0
H426 H 0.88384 0.1021 0.34522 0.0
C427 C 0.84303 0.17561 0.30327 0.0
C428 C 0.87421 0.16338 0.38671 0.0
C429 C 0.8243 0.18821 0.28908 0.0
C430 C 0.89878 0.06485 0.43361 0.0
C431 C 0.8894 0.08235 0.41281 0.0
C432 C 0.88146 0.11927 0.35695 0.0
C433 C 0.84355 0.1705 0.33913 0.0
C434 C 0.8626 0.15652 0.35457 0.0
C435 C 0.90217 0.1068 0.41166 0.0
C436 C 0.89135 0.12522 0.39031 0.0
H437 H 0.79207 0.19568 0.36362 0.0
H438 H 0.82433 0.17349 0.38801 0.0
H439 H 0.85846 0.1291 0.31446 0.0
H440 H 0.95112 0.10154 0.46824 0.0
H441 H 0.93446 0.13232 0.43182 0.0
C442 C 0.84766 0.85507 0.26996 0.0
C443 C 0.85126 0.83074 0.2644 0.0
C444 C 0.86305 0.8696 0.29391 0.0
C445 C 0.9211 0.87377 0.35088 0.0
H446 H 0.8792 0.90487 0.41295 0.0
C447 C 0.96003 0.91519 0.48192 0.0
C448 C 0.95486 0.93897 0.48785 0.0
C449 C 0.94757 0.90126 0.4548 0.0
C450 C 0.89121 0.89644 0.39574 0.0
H451 H 0.87566 0.80356 0.27697 0.0
H452 H 0.90227 0.82883 0.31888 0.0
H453 H 0.85961 0.88424 0.36174 0.0
H454 H 0.93163 0.96625 0.47129 0.0
H455 H 0.90994 0.94203 0.42447 0.0
H456 H 0.95269 0.88594 0.38532 0.0
C457 C 0.88755 0.83669 0.30481 0.0
C458 C 0.88004 0.88476 0.36623 0.0
C459 C 0.87224 0.82218 0.28071 0.0
C460 C 0.9361 0.94801 0.46735 0.0
C461 C 0.92358 0.93409 0.44055 0.0
C462 C 0.93231 0.88548 0.38053 0.0
C463 C 0.88231 0.86011 0.31287 0.0
C464 C 0.89485 0.87341 0.34331 0.0
C465 C 0.92953 0.91078 0.43349 0.0
C466 C 0.91748 0.89704 0.40317 0.0
H467 H 0.8319 0.86238 0.25751 0.0
H468 H 0.85903 0.88787 0.29884 0.0
H469 H 0.93304 0.86525 0.33369 0.0
H470 H 0.97442 0.90774 0.49724 0.0
H471 H 0.95228 0.8832 0.45023 0.0
C472 C 0.18642 0.85881 0.30207 0.0
C473 C 0.17504 0.83475 0.29344 0.0
C474 C 0.17475 0.87201 0.32603 0.0
C475 C 0.13303 0.8608 0.40109 0.0
H476 H 0.12355 0.92877 0.38912 0.0
C477 C 0.06318 0.90419 0.48243 0.0
C478 C 0.06892 0.92931 0.49004 0.0
C479 C 0.07974 0.89338 0.46211 0.0
C480 C 0.12659 0.90995 0.39316 0.0
H481 H 0.14168 0.80632 0.30141 0.0
H482 H 0.12137 0.82946 0.34319 0.0
H483 H 0.14401 0.90905 0.34327 0.0
H484 H 0.09734 0.96244 0.48451 0.0
H485 H 0.12653 0.94336 0.44901 0.0
H486 H 0.11557 0.86152 0.45079 0.0
C487 C 0.13949 0.83788 0.33174 0.0
C488 C 0.1381 0.89866 0.36682 0.0
C489 C 0.15102 0.82476 0.30761 0.0
C490 C 0.09233 0.94307 0.47877 0.0
C491 C 0.10895 0.93221 0.45832 0.0
C492 C 0.12172 0.87211 0.42748 0.0
C493 C 0.15164 0.86129 0.34189 0.0
C494 C 0.14084 0.87383 0.37029 0.0
C495 C 0.10244 0.90743 0.44904 0.0
C496 C 0.11784 0.89661 0.42345 0.0
H497 H 0.20487 0.86708 0.29143 0.0
H498 H 0.18443 0.89008 0.33341 0.0
H499 H 0.13552 0.84178 0.40466 0.0
H500 H 0.04539 0.89304 0.49105 0.0
H501 H 0.07405 0.87429 0.45519 0.0
C502 C 0.17921 0.79724 0.66683 0.0
C503 C 0.20192 0.80813 0.68371 0.0
C504 C 0.16421 0.81168 0.64837 0.0
C505 C 0.16384 0.87371 0.61032 0.0
H506 H 0.09095 0.85899 0.63134 0.0
C507 C 0.09569 0.94456 0.60259 0.0
C508 C 0.07011 0.9369 0.59182 0.0
C509 C 0.11261 0.92769 0.60553 0.0
C510 C 0.11114 0.86304 0.62453 0.0
H511 H 0.22715 0.84258 0.69371 0.0
H512 H 0.20041 0.868 0.66221 0.0
H513 H 0.11943 0.8315 0.65258 0.0
H514 H 0.04244 0.90586 0.57421 0.0
H515 H 0.07214 0.87636 0.57931 0.0
H516 H 0.15547 0.90591 0.58342 0.0
C517 C 0.19452 0.84822 0.66275 0.0
C518 C 0.12748 0.84731 0.63674 0.0
C519 C 0.20969 0.83371 0.68105 0.0
C520 C 0.06199 0.91225 0.58288 0.0
C521 C 0.07895 0.89537 0.58576 0.0
C522 C 0.14744 0.88953 0.59813 0.0
C523 C 0.17147 0.83733 0.64665 0.0
C524 C 0.15405 0.85275 0.63038 0.0
C525 C 0.10425 0.90287 0.59776 0.0
C526 C 0.12105 0.88457 0.60582 0.0
H527 H 0.17291 0.77751 0.66788 0.0
H528 H 0.14676 0.80276 0.63572 0.0
H529 H 0.1842 0.87811 0.6046 0.0
H530 H 0.10257 0.9635 0.60934 0.0
H531 H 0.13192 0.93389 0.61527 0.0
C532 C 0.18477 0.17806 0.72099 0.0
C533 C 0.19748 0.19752 0.70032 0.0
C534 C 0.16377 0.16195 0.70752 0.0
C535 C 0.13398 0.14171 0.62282 0.0
H536 H 0.07466 0.11507 0.67862 0.0
C537 C 0.03899 0.09205 0.56375 0.0
C538 C 0.02928 0.06906 0.57896 0.0
C539 C 0.05924 0.1076 0.57961 0.0
C540 C 0.0912 0.12233 0.66286 0.0
H541 H 0.19739 0.21623 0.65016 0.0
H542 H 0.16056 0.18893 0.62734 0.0
H543 H 0.11061 0.1425 0.70505 0.0
H544 H 0.03273 0.04453 0.623 0.0
H545 H 0.06787 0.07192 0.65083 0.0
H546 H 0.11427 0.12201 0.58049 0.0
C547 C 0.16725 0.18532 0.65333 0.0
C548 C 0.11183 0.13791 0.67798 0.0
C549 C 0.18832 0.20109 0.66653 0.0
C550 C 0.0399 0.0621 0.61057 0.0
C551 C 0.05987 0.07779 0.62664 0.0
C552 C 0.11327 0.12645 0.60767 0.0
C553 C 0.15499 0.16528 0.67334 0.0
C554 C 0.13338 0.14792 0.65804 0.0
C555 C 0.06983 0.10058 0.61117 0.0
C556 C 0.09167 0.11673 0.62749 0.0
H557 H 0.19146 0.17492 0.74714 0.0
H558 H 0.15484 0.1466 0.72357 0.0
H559 H 0.15054 0.14855 0.60688 0.0
H560 H 0.03117 0.0979 0.53943 0.0
H561 H 0.06656 0.12519 0.56732 0.0
C562 C 0.81276 0.20532 0.71547 0.0
C563 C 0.78784 0.20621 0.70275 0.0
C564 C 0.82787 0.19001 0.70003 0.0
C565 C 0.82754 0.13494 0.65211 0.0
H566 H 0.88772 0.16911 0.60393 0.0
C567 C 0.88798 0.08324 0.56473 0.0
C568 C 0.91476 0.09065 0.56627 0.0
C569 C 0.87164 0.09744 0.58005 0.0
C570 C 0.87125 0.15919 0.61767 0.0
H571 H 0.75852 0.19106 0.66556 0.0
H572 H 0.78475 0.16369 0.63939 0.0
H573 H 0.86143 0.19244 0.6375 0.0
H574 H 0.94553 0.11871 0.58464 0.0
H575 H 0.91737 0.14277 0.6124 0.0
H576 H 0.83766 0.10158 0.63354 0.0
C577 C 0.79264 0.17509 0.66079 0.0
C578 C 0.85624 0.17259 0.63677 0.0
C579 C 0.77779 0.19079 0.67559 0.0
C580 C 0.92492 0.11266 0.58272 0.0
C581 C 0.90871 0.12656 0.59852 0.0
C582 C 0.84287 0.12142 0.63361 0.0
C583 C 0.8179 0.17501 0.67243 0.0
C584 C 0.83433 0.16055 0.65403 0.0
C585 C 0.88188 0.11906 0.59765 0.0
C586 C 0.86492 0.1334 0.61616 0.0
H587 H 0.82087 0.21712 0.73633 0.0
H588 H 0.8474 0.19011 0.70923 0.0
H589 H 0.81057 0.12542 0.66526 0.0
H590 H 0.87968 0.0664 0.55198 0.0
H591 H 0.85104 0.09139 0.5783 0.0
C592 C 0.83164 0.82148 0.77062 0.0
C593 C 0.81498 0.81047 0.74453 0.0
C594 C 0.8482 0.84367 0.76381 0.0
C595 C 0.85641 0.89803 0.70585 0.0
H596 H 0.92987 0.89931 0.71707 0.0
C597 C 0.93073 0.95863 0.6211 0.0
C598 C 0.95575 0.9665 0.63392 0.0
C599 C 0.91235 0.94409 0.64177 0.0
C600 C 0.90942 0.89964 0.71454 0.0
H601 H 0.80229 0.81431 0.69112 0.0
H602 H 0.83082 0.85289 0.67958 0.0
H603 H 0.89983 0.86476 0.74096 0.0
H604 H 0.98046 0.96694 0.67949 0.0
H605 H 0.94816 0.94198 0.71578 0.0
H606 H 0.86584 0.93256 0.67881 0.0
C607 C 0.83113 0.84442 0.7052 0.0
C608 C 0.89224 0.87977 0.72817 0.0
C609 C 0.815 0.82217 0.71174 0.0
C610 C 0.96144 0.96091 0.66865 0.0
C611 C 0.94298 0.94649 0.68942 0.0
C612 C 0.87354 0.91801 0.69256 0.0
C613 C 0.84788 0.85538 0.73109 0.0
C614 C 0.86566 0.87839 0.7228 0.0
C615 C 0.91848 0.93725 0.67586 0.0
C616 C 0.90028 0.9186 0.69557 0.0
H617 H 0.83201 0.8129 0.79613 0.0
H618 H 0.86106 0.85178 0.78412 0.0
H619 H 0.83593 0.89749 0.70182 0.0
H620 H 0.92567 0.9626 0.59448 0.0
H621 H 0.8938 0.93709 0.63024 0.0
C622 C 0.29484 0.15946 0.18901 0.0
C623 C 0.28809 0.18215 0.17839 0.0
C624 C 0.30809 0.14632 0.16674 0.0
C625 C 0.35056 0.15536 0.09012 0.0
H626 H 0.34167 0.08412 0.09486 0.0
C627 C 0.42977 0.10231 0.04827 0.0
C628 C 0.42318 0.07896 0.03357 0.0
C629 C 0.41078 0.11482 0.06045 0.0
C630 C 0.34418 0.10399 0.09271 0.0
H631 H 0.28925 0.20831 0.13534 0.0
H632 H 0.31194 0.18513 0.09621 0.0
H633 H 0.31203 0.10546 0.1257 0.0
H634 H 0.39126 0.05088 0.01884 0.0
H635 H 0.35789 0.0729 0.03996 0.0
H636 H 0.38256 0.15389 0.05691 0.0
C637 C 0.30744 0.17774 0.12209 0.0
C638 C 0.32737 0.11628 0.11084 0.0
C639 C 0.29428 0.19099 0.1445 0.0
C640 C 0.39699 0.0687 0.03043 0.0
C641 C 0.37789 0.08131 0.04259 0.0
C642 C 0.36726 0.14307 0.07185 0.0
C643 C 0.31483 0.15538 0.13308 0.0
C644 C 0.33074 0.14216 0.11052 0.0
C645 C 0.38458 0.10443 0.05812 0.0
C646 C 0.36472 0.11726 0.07365 0.0
H647 H 0.29048 0.15207 0.21494 0.0
H648 H 0.3138 0.12941 0.17642 0.0
H649 H 0.35391 0.17528 0.08933 0.0
H650 H 0.44973 0.11083 0.05106 0.0
H651 H 0.41677 0.13236 0.07272 0.0
C652 C 0.80795 0.31925 0.16637 0.0
C653 C 0.81415 0.29853 0.18414 0.0
C654 C 0.82722 0.33648 0.15132 0.0
C655 C 0.89702 0.34942 0.12967 0.0
H656 H 0.88741 0.41687 0.14377 0.0
C657 C 0.9791 0.43152 0.11279 0.0
C658 C 0.97364 0.44947 0.08859 0.0
C659 C 0.95936 0.4137 0.12571 0.0
C660 C 0.89026 0.39812 0.13959 0.0
H661 H 0.8449 0.2787 0.19894 0.0
H662 H 0.87899 0.30926 0.17354 0.0
H663 H 0.8536 0.38315 0.16065 0.0
H664 H 0.94298 0.46389 0.06106 0.0
H665 H 0.90841 0.4331 0.08458 0.0
H666 H 0.93415 0.3647 0.10956 0.0
C667 C 0.85919 0.312 0.17041 0.0
C668 C 0.87084 0.37876 0.14892 0.0
C669 C 0.83973 0.29444 0.18491 0.0
C670 C 0.94782 0.45032 0.07966 0.0
C671 C 0.92804 0.43269 0.09302 0.0
C672 C 0.9166 0.36881 0.1208 0.0
C673 C 0.85321 0.33368 0.15456 0.0
C674 C 0.87388 0.35415 0.14389 0.0
C675 C 0.93378 0.41376 0.11519 0.0
C676 C 0.91334 0.39331 0.12563 0.0
H677 H 0.78825 0.32266 0.16544 0.0
H678 H 0.82179 0.3525 0.13834 0.0
H679 H 0.89992 0.33076 0.12504 0.0
H680 H -0.00124 0.43023 0.12013 0.0
H681 H 0.96416 0.39942 0.14316 0.0
C682 C 0.73956 0.83996 0.13484 0.0
C683 C 0.73376 0.81414 0.13606 0.0
C684 C 0.72252 0.85381 0.11917 0.0
C685 C 0.6638 0.85302 0.0652 0.0
H686 H 0.64893 0.89992 0.13269 0.0
C687 C 0.57331 0.90161 0.05847 0.0
C688 C 0.57649 0.92598 0.06998 0.0
C689 C 0.59355 0.88803 0.06157 0.0
C690 C 0.65306 0.88729 0.11316 0.0
H691 H 0.70673 0.78258 0.11868 0.0
H692 H 0.67682 0.80692 0.09142 0.0
H693 H 0.68353 0.87678 0.14392 0.0
H694 H 0.60375 0.95561 0.09203 0.0
H695 H 0.63889 0.9323 0.09684 0.0
H696 H 0.633 0.86368 0.03449 0.0
C697 C 0.6946 0.81637 0.10262 0.0
C698 C 0.67295 0.87398 0.11965 0.0
C699 C 0.71174 0.80245 0.11827 0.0
C700 C 0.60045 0.93669 0.08365 0.0
C701 C 0.62064 0.92329 0.08642 0.0
C702 C 0.64388 0.8666 0.05849 0.0
C703 C 0.69925 0.84217 0.10445 0.0
C704 C 0.67864 0.85676 0.09579 0.0
C705 C 0.61735 0.89863 0.07612 0.0
C706 C 0.63836 0.88397 0.08243 0.0
H707 H 0.75654 0.84956 0.14782 0.0
H708 H 0.72687 0.87369 0.12029 0.0
H709 H 0.66773 0.83979 0.0464 0.0
H710 H 0.55511 0.89294 0.04751 0.0
H711 H 0.59031 0.86907 0.05347 0.0
C712 C 0.16518 0.72493 0.1239 0.0
C713 C 0.16107 0.72845 0.15933 0.0
C714 C 0.15067 0.70521 0.10661 0.0
C715 C 0.12142 0.64284 0.1227 0.0
H716 H 0.08069 0.64754 0.03919 0.0
C717 C 0.05301 0.55945 0.06822 0.0
C718 C 0.04755 0.55913 0.03255 0.0
C719 C 0.06885 0.5797 0.08255 0.0
C720 C 0.09243 0.64578 0.06205 0.0
H721 H 0.13781 0.71471 0.20399 0.0
H722 H 0.11293 0.68002 0.17382 0.0
H723 H 0.10318 0.68494 0.06562 0.0
H724 H 0.05574 0.57835 0.9833 0.0
H725 H 0.08462 0.61294 0.0078 0.0
H726 H 0.11161 0.60381 0.11884 0.0
C727 C 0.12726 0.69263 0.15956 0.0
C728 C 0.10507 0.66726 0.07729 0.0
C729 C 0.14135 0.71259 0.17666 0.0
C730 C 0.05951 0.57841 0.01103 0.0
C731 C 0.0758 0.59833 0.02517 0.0
C732 C 0.10925 0.62132 0.10711 0.0
C733 C 0.13224 0.6885 0.12468 0.0
C734 C 0.11935 0.66592 0.10794 0.0
C735 C 0.07993 0.59971 0.06127 0.0
C736 C 0.09433 0.62249 0.07677 0.0
H737 H 0.18023 0.73685 0.10991 0.0
H738 H 0.15474 0.7023 0.07963 0.0
H739 H 0.1327 0.64145 0.14615 0.0
H740 H 0.04377 0.54482 0.08529 0.0
H741 H 0.07131 0.58013 0.11048 0.0
C742 C 0.29149 0.81378 0.87282 0.0
C743 C 0.28821 0.82023 0.8377 0.0
C744 C 0.30763 0.82961 0.89459 0.0
C745 C 0.34341 0.89311 0.90309 0.0
H746 H 0.39531 0.8608 0.94829 0.0
C747 C 0.44323 0.94538 0.94123 0.0
C748 C 0.45639 0.93714 0.96992 0.0
C749 C 0.41943 0.9324 0.9307 0.0
C750 C 0.38073 0.87017 0.93659 0.0
H751 H 0.29781 0.84919 0.79872 0.0
H752 H 0.32579 0.87679 0.83674 0.0
H753 H 0.3584 0.83621 0.9205 0.0
H754 H 0.45415 0.90972 0.01145 0.0
H755 H 0.41228 0.88735 0.99359 0.0
H756 H 0.36595 0.92712 0.91873 0.0
C757 C 0.31595 0.85948 0.84742 0.0
C758 C 0.35953 0.85602 0.92058 0.0
C759 C 0.29999 0.84358 0.82556 0.0
C760 C 0.44473 0.91621 0.98875 0.0
C761 C 0.42074 0.90338 0.97848 0.0
C762 C 0.36452 0.90729 0.9194 0.0
C763 C 0.32063 0.85232 0.88183 0.0
C764 C 0.34097 0.86734 0.90292 0.0
C765 C 0.408 0.91104 0.94889 0.0
C766 C 0.38382 0.89602 0.93556 0.0
H767 H 0.28268 0.79597 0.88309 0.0
H768 H 0.31063 0.82373 0.92112 0.0
H769 H 0.32924 0.90233 0.89006 0.0
H770 H 0.45166 0.96151 0.92626 0.0
H771 H 0.41046 0.93871 0.90753 0.0
C772 C 0.22568 0.32395 0.82857 0.0
C773 C 0.21998 0.29837 0.82391 0.0
C774 C 0.20994 0.3359 0.84885 0.0
C775 C 0.14347 0.3303 0.87814 0.0
H776 H 0.17119 0.3839 0.9385 0.0
C777 C 0.07685 0.38275 0.95403 0.0
C778 C 0.0837 0.40847 0.95547 0.0
C779 C 0.09415 0.36834 0.94174 0.0
C780 C 0.16314 0.36914 0.9215 0.0
H781 H 0.19356 0.26519 0.83781 0.0
H782 H 0.16582 0.28622 0.87324 0.0
H783 H 0.20028 0.35991 0.91116 0.0
H784 H 0.11436 0.43919 0.94585 0.0
H785 H 0.14444 0.41408 0.92341 0.0
H786 H 0.10646 0.33986 0.88752 0.0
C787 C 0.18253 0.29696 0.86096 0.0
C788 C 0.17981 0.35532 0.90597 0.0
C789 C 0.19848 0.2849 0.84085 0.0
C790 C 0.10848 0.41944 0.94495 0.0
C791 C 0.12578 0.40499 0.93234 0.0
C792 C 0.12683 0.34418 0.8935 0.0
C793 C 0.18797 0.32264 0.86486 0.0
C794 C 0.17017 0.33591 0.88382 0.0
C795 C 0.11871 0.37927 0.93025 0.0
C796 C 0.13646 0.36393 0.91514 0.0
H797 H 0.24216 0.33491 0.81606 0.0
H798 H 0.21452 0.35571 0.851 0.0
H799 H 0.13549 0.31573 0.86078 0.0
H800 H 0.05806 0.37363 0.96247 0.0
H801 H 0.08823 0.34858 0.94126 0.0
C802 C 0.70962 0.17596 0.83568 0.0
C803 C 0.69601 0.19581 0.83222 0.0
C804 C 0.6984 0.15415 0.8524 0.0
C805 C 0.64834 0.1266 0.91248 0.0
H806 H 0.63442 0.07205 0.84909 0.0
C807 C 0.55977 0.04772 0.89188 0.0
C808 C 0.5566 0.03734 0.92547 0.0
C809 C 0.58321 0.06188 0.88229 0.0
C810 C 0.6386 0.08696 0.86726 0.0
H811 H 0.66088 0.20912 0.84538 0.0
H812 H 0.6416 0.17121 0.87556 0.0
H813 H 0.66467 0.10907 0.83241 0.0
H814 H 0.57603 0.03215 0.97451 0.0
H815 H 0.61667 0.05741 0.95785 0.0
H816 H 0.62148 0.10503 0.94672 0.0
C817 C 0.66078 0.17247 0.86499 0.0
C818 C 0.65591 0.10801 0.85784 0.0
C819 C 0.67172 0.19405 0.8476 0.0
C820 C 0.57786 0.03986 0.94837 0.0
C821 C 0.60112 0.05437 0.93898 0.0
C822 C 0.63142 0.1054 0.92217 0.0
C823 C 0.67374 0.15215 0.86666 0.0
C824 C 0.66012 0.12831 0.87985 0.0
C825 C 0.60366 0.06616 0.9063 0.0
C826 C 0.62569 0.0858 0.89908 0.0
H827 H 0.72834 0.1768 0.82387 0.0
H828 H 0.70864 0.13863 0.85338 0.0
H829 H 0.65134 0.1421 0.92977 0.0
H830 H 0.54377 0.046 0.87369 0.0
H831 H 0.58468 0.07096 0.857 0.0
C832 C 0.81923 0.70766 0.87288 0.0
C833 C 0.79616 0.69508 0.8587 0.0
C834 C 0.83574 0.69478 0.89202 0.0
C835 C 0.83967 0.63448 0.93586 0.0
H836 H 0.90971 0.64522 0.90171 0.0
C837 C 0.90201 0.55839 0.93546 0.0
C838 C 0.92856 0.5643 0.94221 0.0
C839 C 0.88671 0.57682 0.93339 0.0
C840 C 0.8904 0.64226 0.91213 0.0
H841 H 0.7715 0.65953 0.85552 0.0
H842 H 0.79999 0.63731 0.88876 0.0
H843 H 0.88089 0.67392 0.88504 0.0
H844 H 0.95981 0.59423 0.95258 0.0
H845 H 0.93303 0.62648 0.9487 0.0
H846 H 0.84893 0.60226 0.96185 0.0
C847 C 0.80549 0.65702 0.88523 0.0
C848 C 0.87387 0.65876 0.90262 0.0
C849 C 0.78921 0.66976 0.86589 0.0
C850 C 0.93943 0.58908 0.94715 0.0
C851 C 0.92411 0.60756 0.94491 0.0
C852 C 0.85619 0.61799 0.94537 0.0
C853 C 0.82928 0.6692 0.89773 0.0
C854 C 0.84805 0.65458 0.91338 0.0
C855 C 0.89759 0.60165 0.93779 0.0
C856 C 0.88147 0.62122 0.93261 0.0
H857 H 0.82513 0.72716 0.86774 0.0
H858 H 0.85386 0.70472 0.90154 0.0
H859 H 0.82003 0.631 0.94513 0.0
H860 H 0.89299 0.53948 0.93177 0.0
H861 H 0.86641 0.57165 0.92737 0.0
C862 C 0.20381 0.28519 0.14598 0.0
C863 C 0.1929 0.27354 0.17643 0.0
C864 C 0.19036 0.30041 0.1258 0.0
C865 C 0.12528 0.31836 0.11278 0.0
H866 H 0.16469 0.38016 0.08028 0.0
C867 C 0.10788 0.42299 0.07605 0.0
C868 C 0.0844 0.418 0.05778 0.0
C869 C 0.12165 0.40409 0.08484 0.0
C870 C 0.15334 0.36304 0.08928 0.0
H871 H 0.15879 0.26814 0.2087 0.0
H872 H 0.13575 0.29482 0.17419 0.0
H873 H 0.18693 0.34891 0.10641 0.0
H874 H 0.0574 0.38918 0.03351 0.0
H875 H 0.08179 0.35632 0.04792 0.0
H876 H 0.09161 0.33303 0.09749 0.0
C877 C 0.1545 0.29199 0.1654 0.0
C878 C 0.16616 0.34491 0.10384 0.0
C879 C 0.16785 0.27674 0.18542 0.0
C880 C 0.07538 0.3937 0.04768 0.0
C881 C 0.0893 0.3748 0.05618 0.0
C882 C 0.11246 0.33655 0.09844 0.0
C883 C 0.1657 0.3044 0.13563 0.0
C884 C 0.15228 0.32251 0.11647 0.0
C885 C 0.11245 0.37967 0.07535 0.0
C886 C 0.12627 0.35935 0.08715 0.0
H887 H 0.22302 0.28308 0.13816 0.0
H888 H 0.19945 0.30933 0.10275 0.0
H889 H 0.11394 0.3012 0.12162 0.0
H890 H 0.11543 0.44147 0.08431 0.0
H891 H 0.13914 0.40858 0.10007 0.0
C892 C 0.15344 0.69748 0.79896 0.0
C893 C 0.17678 0.70508 0.81674 0.0
C894 C 0.13587 0.67749 0.81129 0.0
C895 C 0.13525 0.62045 0.86129 0.0
H896 H 0.06107 0.61673 0.85878 0.0
C897 C 0.06443 0.54017 0.92199 0.0
C898 C 0.03984 0.53387 0.90684 0.0
C899 C 0.08204 0.55969 0.90848 0.0
C900 C 0.08174 0.61732 0.85903 0.0
H901 H 0.19917 0.69868 0.86268 0.0
H902 H 0.16832 0.66379 0.8843 0.0
H903 H 0.08872 0.6554 0.84366 0.0
H904 H 0.01555 0.5416 0.86344 0.0
H905 H 0.04663 0.57522 0.83931 0.0
H906 H 0.12833 0.58236 0.87638 0.0
C907 C 0.16386 0.67315 0.86056 0.0
C908 C 0.09756 0.63954 0.85064 0.0
C909 C 0.18137 0.6933 0.84836 0.0
C910 C 0.03421 0.54607 0.87598 0.0
C911 C 0.05191 0.56554 0.86236 0.0
C912 C 0.11944 0.5982 0.86951 0.0
C913 C 0.14133 0.6646 0.84156 0.0
C914 C 0.12447 0.64135 0.8518 0.0
C915 C 0.07557 0.57322 0.87932 0.0
C916 C 0.09249 0.59638 0.86854 0.0
H917 H 0.14928 0.70622 0.77457 0.0
H918 H 0.11868 0.6713 0.79607 0.0
H919 H 0.15594 0.62118 0.86173 0.0
H920 H 0.06951 0.53119 0.94575 0.0
H921 H 0.10005 0.56513 0.92228 0.0
C922 C 0.32903 0.20953 0.84886 0.0
C923 C 0.30444 0.20284 0.834 0.0
C924 C 0.34004 0.19269 0.86917 0.0
C925 C 0.34137 0.12785 0.87236 0.0
H926 H 0.38345 0.14232 0.955 0.0
C927 C 0.40625 0.06035 0.92165 0.0
C928 C 0.43101 0.07052 0.93328 0.0
C929 C 0.38733 0.07511 0.91664 0.0
C930 C 0.37196 0.13804 0.93177 0.0
H931 H 0.27149 0.17373 0.83015 0.0
H932 H 0.29111 0.14387 0.86514 0.0
H933 H 0.35563 0.17116 0.93455 0.0
H934 H 0.45513 0.10396 0.95014 0.0
H935 H 0.42255 0.1301 0.93977 0.0
H936 H 0.35868 0.09575 0.86782 0.0
C937 C 0.30169 0.1623 0.86124 0.0
C938 C 0.35586 0.15446 0.92029 0.0
C939 C 0.29044 0.17937 0.8414 0.0
C940 C 0.43626 0.09567 0.94084 0.0
C941 C 0.41744 0.11058 0.93524 0.0
C942 C 0.3577 0.11166 0.88346 0.0
C943 C 0.32686 0.16864 0.87456 0.0
C944 C 0.34075 0.14971 0.89012 0.0
C945 C 0.39282 0.10056 0.92247 0.0
C946 C 0.3736 0.11672 0.91296 0.0
H947 H 0.3402 0.22756 0.84371 0.0
H948 H 0.35952 0.19804 0.87883 0.0
H949 H 0.33029 0.12393 0.84867 0.0
H950 H 0.40141 0.04089 0.91642 0.0
H951 H 0.36844 0.06654 0.9078 0.0
C952 C 0.81662 0.29797 0.84782 0.0
C953 C 0.79289 0.30566 0.84123 0.0
C954 C 0.83471 0.31136 0.86992 0.0
C955 C 0.85101 0.37432 0.90464 0.0
H956 H 0.9051 0.34607 0.95145 0.0
C957 C 0.94758 0.43321 0.93821 0.0
C958 C 0.96158 0.42719 0.96743 0.0
C959 C 0.92493 0.41801 0.92836 0.0
C960 C 0.88993 0.3543 0.9391 0.0
H961 H 0.7685 0.33206 0.85457 0.0
H962 H 0.79935 0.35464 0.8946 0.0
H963 H 0.86836 0.31909 0.92702 0.0
H964 H 0.9624 0.40106 0.01014 0.0
H965 H 0.92225 0.37483 0.99361 0.0
H966 H 0.87205 0.40946 0.91766 0.0
C967 C 0.80466 0.33903 0.88155 0.0
C968 C 0.869 0.33879 0.92455 0.0
C969 C 0.78687 0.326 0.8588 0.0
C970 C 0.95215 0.40595 0.98718 0.0
C971 C 0.92919 0.3909 0.97763 0.0
C972 C 0.87164 0.38977 0.91971 0.0
C973 C 0.82919 0.33243 0.8865 0.0
C974 C 0.84963 0.3486 0.90621 0.0
C975 C 0.91541 0.39662 0.94787 0.0
C976 C 0.89181 0.38002 0.93612 0.0
H977 H 0.82176 0.28237 0.83448 0.0
H978 H 0.85343 0.30581 0.87259 0.0
H979 H 0.83674 0.38274 0.89051 0.0
H980 H 0.95446 0.4494 0.9224 0.0
H981 H 0.91526 0.42278 0.90485 0.0
C982 C 0.71801 0.80575 0.87038 0.0
C983 C 0.70361 0.7877 0.84947 0.0
C984 C 0.70576 0.82262 0.88803 0.0
C985 C 0.6476 0.85091 0.87934 0.0
H986 H 0.65775 0.86962 0.97567 0.0
C987 C 0.57307 0.89447 0.94956 0.0
C988 C 0.58112 0.91576 0.9688 0.0
C989 C 0.59089 0.88073 0.93728 0.0
C990 C 0.65503 0.86479 0.94861 0.0
H991 H 0.66489 0.77219 0.83283 0.0
H992 H 0.64382 0.8012 0.86351 0.0
H993 H 0.68387 0.84126 0.95061 0.0
H994 H 0.61424 0.93874 0.99165 0.0
H995 H 0.64576 0.91435 0.96998 0.0
H996 H 0.61858 0.87378 0.8772 0.0
C997 C 0.66457 0.80278 0.86568 0.0
C998 C 0.66993 0.84859 0.93431 0.0
C999 C 0.67669 0.78606 0.84817 0.0
C1000 C 0.60752 0.92263 0.97637 0.0
C1001 C 0.62549 0.9086 0.96427 0.0
C1002 C 0.63284 0.86693 0.89352 0.0
C1003 C 0.67897 0.8217 0.88495 0.0
C1004 C 0.66576 0.84094 0.89978 0.0
C1005 C 0.61731 0.88777 0.94401 0.0
C1006 C 0.6358 0.87349 0.92854 0.0
H1007 H 0.73878 0.80747 0.87197 0.0
H1008 H 0.71733 0.83698 0.9028 0.0
H1009 H 0.64442 0.8459 0.8524 0.0
H1010 H 0.5529 0.88847 0.94349 0.0
H1011 H 0.58395 0.86451 0.92231 0.0
C1012 C 0.80494 0.69981 0.12344 0.0
C1013 C 0.81986 0.71754 0.14429 0.0
C1014 C 0.81665 0.68339 0.10434 0.0
C1015 C 0.87839 0.67359 0.06781 0.0
H1016 H 0.85372 0.6041 0.08457 0.0
C1017 C 0.94336 0.60188 0.04814 0.0
C1018 C 0.93313 0.57852 0.03562 0.0
C1019 C 0.9273 0.61865 0.05618 0.0
C1020 C 0.86057 0.62338 0.07897 0.0
H1021 H 0.85881 0.73259 0.16019 0.0
H1022 H 0.87922 0.70431 0.12631 0.0
H1023 H 0.82963 0.63463 0.10701 0.0
H1024 H 0.89789 0.55449 0.02135 0.0
H1025 H 0.86956 0.58406 0.03524 0.0
H1026 H 0.90938 0.66256 0.04004 0.0
C1027 C 0.85848 0.70302 0.12492 0.0
C1028 C 0.84678 0.64088 0.0919 0.0
C1029 C 0.84678 0.71915 0.14445 0.0
C1030 C 0.9063 0.57223 0.03146 0.0
C1031 C 0.89012 0.58919 0.03931 0.0
C1032 C 0.89199 0.65615 0.05458 0.0
C1033 C 0.84351 0.68467 0.1052 0.0
C1034 C 0.856 0.66616 0.08733 0.0
C1035 C 0.90049 0.61268 0.05164 0.0
C1036 C 0.88376 0.63085 0.06102 0.0
H1037 H 0.78414 0.69799 0.12287 0.0
H1038 H 0.80468 0.66951 0.08922 0.0
H1039 H 0.88568 0.69295 0.06339 0.0
H1040 H 0.96394 0.60732 0.05177 0.0
H1041 H 0.93598 0.63626 0.06643 0.0
C1042 C 0.27213 0.83624 0.11249 0.0
C1043 C 0.26329 0.84288 0.14467 0.0
C1044 C 0.28931 0.85316 0.09311 0.0
C1045 C 0.32527 0.91783 0.09237 0.0
H1046 H 0.38357 0.88498 0.07559 0.0
C1047 C 0.42825 0.96846 0.05944 0.0
C1048 C 0.4487 0.95869 0.0753 0.0
C1049 C 0.40293 0.95639 0.06283 0.0
C1050 C 0.36747 0.89442 0.08026 0.0
H1051 H 0.26247 0.87334 0.17927 0.0
H1052 H 0.29275 0.9024 0.14628 0.0
H1053 H 0.34139 0.86064 0.08493 0.0
H1054 H 0.45832 0.92958 0.10927 0.0
H1055 H 0.41402 0.9089 0.11595 0.0
H1056 H 0.35202 0.95161 0.08983 0.0
C1057 C 0.2866 0.88431 0.13571 0.0
C1058 C 0.34313 0.8805 0.08489 0.0
C1059 C 0.26937 0.86749 0.15492 0.0
C1060 C 0.44308 0.93758 0.09665 0.0
C1061 C 0.41774 0.92553 0.10006 0.0
C1062 C 0.34973 0.93179 0.08787 0.0
C1063 C 0.29796 0.87689 0.10573 0.0
C1064 C 0.3219 0.89197 0.09228 0.0
C1065 C 0.39756 0.93437 0.08223 0.0
C1066 C 0.37119 0.9201 0.0831 0.0
H1067 H 0.26742 0.81752 0.10354 0.0
H1068 H 0.29723 0.84711 0.06958 0.0
H1069 H 0.30923 0.92723 0.09754 0.0
H1070 H 0.43186 0.98478 0.04291 0.0
H1071 H 0.38776 0.96366 0.04891 0.0
C1072 C 0.71215 0.16806 0.1709 0.0
C1073 C 0.70541 0.19155 0.17383 0.0
C1074 C 0.6974 0.15045 0.14988 0.0
C1075 C 0.65065 0.14261 0.07752 0.0
H1076 H 0.61837 0.08352 0.12639 0.0
C1077 C 0.55433 0.08727 0.03225 0.0
C1078 C 0.54915 0.06172 0.03824 0.0
C1079 C 0.57704 0.10124 0.04474 0.0
C1080 C 0.62757 0.09959 0.11196 0.0
H1081 H 0.67911 0.21559 0.15592 0.0
H1082 H 0.65405 0.18529 0.11847 0.0
H1083 H 0.65311 0.11128 0.15437 0.0
H1084 H 0.56436 0.03063 0.06086 0.0
H1085 H 0.60417 0.05493 0.08213 0.0
H1086 H 0.62506 0.13124 0.03524 0.0
C1087 C 0.67041 0.18029 0.13256 0.0
C1088 C 0.64749 0.1155 0.12807 0.0
C1089 C 0.68467 0.19758 0.15411 0.0
C1090 C 0.56758 0.05034 0.05618 0.0
C1091 C 0.5904 0.0643 0.06847 0.0
C1092 C 0.63098 0.12658 0.06122 0.0
C1093 C 0.67622 0.15639 0.13083 0.0
C1094 C 0.65867 0.1375 0.1114 0.0
C1095 C 0.59531 0.08999 0.0633 0.0
C1096 C 0.61859 0.10525 0.07865 0.0
H1097 H 0.72795 0.16296 0.1861 0.0
H1098 H 0.70221 0.13211 0.14897 0.0
H1099 H 0.65913 0.15937 0.064 0.0
H1100 H 0.54059 0.09664 0.01851 0.0
H1101 H 0.57986 0.121 0.0407 0.0
C1102 C 0.6417 0.67242 0.78786 0.0
C1103 C 0.66615 0.66568 0.7842 0.0
C1104 C 0.6213 0.65573 0.80154 0.0
C1105 C 0.59731 0.59091 0.82465 0.0
H1106 H 0.56887 0.61863 0.90441 0.0
C1107 C 0.5416 0.55672 0.95874 0.0
C1108 C 0.51776 0.54364 0.94772 0.0
C1109 C 0.55855 0.56979 0.93487 0.0
C1110 C 0.57655 0.61071 0.88209 0.0
H1111 H 0.68773 0.63544 0.78946 0.0
H1112 H 0.6519 0.60624 0.81342 0.0
H1113 H 0.59954 0.6449 0.86732 0.0
H1114 H 0.49363 0.533 0.90273 0.0
H1115 H 0.52381 0.55572 0.86068 0.0
H1116 H 0.57425 0.55653 0.84006 0.0
C1117 C 0.64867 0.62451 0.8057 0.0
C1118 C 0.59392 0.62574 0.86072 0.0
C1119 C 0.6692 0.64129 0.79216 0.0
C1120 C 0.51177 0.54304 0.91202 0.0
C1121 C 0.52902 0.5559 0.88798 0.0
C1122 C 0.57951 0.57587 0.84584 0.0
C1123 C 0.62481 0.63189 0.81165 0.0
C1124 C 0.60474 0.61596 0.83207 0.0
C1125 C 0.55225 0.5698 0.8994 0.0
C1126 C 0.56939 0.58563 0.87506 0.0
H1127 H 0.63853 0.69095 0.78164 0.0
H1128 H 0.60298 0.66176 0.80546 0.0
H1129 H 0.60539 0.58297 0.80267 0.0
H1130 H 0.54691 0.55752 0.986 0.0
H1131 H 0.5765 0.58023 0.94419 0.0
C1132 C 0.32487 0.68672 0.81416 0.0
C1133 C 0.30813 0.70154 0.82751 0.0
C1134 C 0.33956 0.67433 0.83663 0.0
C1135 C 0.33949 0.6495 0.92514 0.0
H1136 H 0.41036 0.64407 0.90518 0.0
C1137 C 0.42843 0.60054 0.98235 0.0
C1138 C 0.41544 0.57616 0.98456 0.0
C1139 C 0.41589 0.6191 0.96889 0.0
C1140 C 0.39073 0.64579 0.9114 0.0
H1141 H 0.29408 0.71539 0.87489 0.0
H1142 H 0.3197 0.69382 0.9138 0.0
H1143 H 0.38803 0.67074 0.86871 0.0
H1144 H 0.37881 0.55229 0.97672 0.0
H1145 H 0.35698 0.58466 0.95312 0.0
H1146 H 0.34202 0.62415 0.96739 0.0
C1147 C 0.32126 0.6916 0.88606 0.0
C1148 C 0.37789 0.66076 0.89031 0.0
C1149 C 0.30663 0.70397 0.86369 0.0
C1150 C 0.38936 0.57088 0.97497 0.0
C1151 C 0.3768 0.58944 0.96178 0.0
C1152 C 0.35229 0.63446 0.94613 0.0
C1153 C 0.3377 0.67655 0.87277 0.0
C1154 C 0.35202 0.66236 0.89662 0.0
C1155 C 0.39015 0.61355 0.95779 0.0
C1156 C 0.37783 0.63211 0.939 0.0
H1157 H 0.32649 0.68452 0.78643 0.0
H1158 H 0.3519 0.66258 0.82577 0.0
H1159 H 0.31948 0.65031 0.93045 0.0
H1160 H 0.44851 0.60515 0.98985 0.0
H1161 H 0.42647 0.63764 0.96634 0.0
C1162 C 0.37166 0.31898 0.79661 0.0
C1163 C 0.35069 0.3267 0.77916 0.0
C1164 C 0.3871 0.33477 0.81906 0.0
C1165 C 0.38109 0.38696 0.87406 0.0
H1166 H 0.45378 0.38768 0.89242 0.0
C1167 C 0.43998 0.45367 0.9691 0.0
C1168 C 0.45785 0.44441 0.99094 0.0
C1169 C 0.42711 0.43923 0.94304 0.0
C1170 C 0.43341 0.38742 0.88776 0.0
H1171 H 0.33114 0.35785 0.76882 0.0
H1172 H 0.3585 0.38558 0.80731 0.0
H1173 H 0.43301 0.36441 0.84356 0.0
H1174 H 0.47534 0.41228 0.00356 0.0
H1175 H 0.45275 0.38698 0.95777 0.0
H1176 H 0.38147 0.40993 0.91819 0.0
C1177 C 0.36246 0.36705 0.80452 0.0
C1178 C 0.42155 0.37421 0.85974 0.0
C1179 C 0.34692 0.35121 0.78224 0.0
C1180 C 0.46183 0.42002 0.987 0.0
C1181 C 0.44906 0.4056 0.96067 0.0
C1182 C 0.39296 0.40022 0.90192 0.0
C1183 C 0.38199 0.35865 0.82431 0.0
C1184 C 0.39524 0.37382 0.85261 0.0
C1185 C 0.43184 0.41521 0.93815 0.0
C1186 C 0.41921 0.40056 0.9091 0.0
H1187 H 0.37517 0.30022 0.79477 0.0
H1188 H 0.40195 0.3277 0.83394 0.0
H1189 H 0.36065 0.38655 0.86987 0.0
H1190 H 0.43638 0.47236 0.97152 0.0
H1191 H 0.41405 0.44717 0.92597 0.0
C1192 C 0.67628 0.34761 0.78985 0.0
C1193 C 0.66787 0.32204 0.78847 0.0
C1194 C 0.66322 0.36232 0.80993 0.0
C1195 C 0.6235 0.35705 0.88767 0.0
H1196 H 0.61102 0.4225 0.8619 0.0
C1197 C 0.55873 0.40803 0.96726 0.0
C1198 C 0.56552 0.43355 0.97141 0.0
C1199 C 0.57281 0.39549 0.94552 0.0
C1200 C 0.61478 0.40441 0.86963 0.0
H1201 H 0.63805 0.29219 0.80513 0.0
H1202 H 0.61514 0.31795 0.83993 0.0
H1203 H 0.63043 0.39841 0.81996 0.0
H1204 H 0.59291 0.46587 0.95683 0.0
H1205 H 0.61784 0.44374 0.91857 0.0
H1206 H 0.608 0.36293 0.93726 0.0
C1207 C 0.63213 0.32649 0.82594 0.0
C1208 C 0.62572 0.39058 0.84557 0.0
C1209 C 0.64513 0.31178 0.80575 0.0
C1210 C 0.58723 0.4462 0.95407 0.0
C1211 C 0.60135 0.43358 0.93203 0.0
C1212 C 0.61268 0.37086 0.91169 0.0
C1213 C 0.64152 0.35176 0.8291 0.0
C1214 C 0.62987 0.36663 0.85423 0.0
C1215 C 0.59409 0.40811 0.92734 0.0
C1216 C 0.60786 0.39455 0.9028 0.0
H1217 H 0.69365 0.35616 0.77669 0.0
H1218 H 0.67092 0.38172 0.81187 0.0
H1219 H 0.6271 0.33891 0.89543 0.0
H1220 H 0.54219 0.39766 0.98038 0.0
H1221 H 0.5665 0.37595 0.94218 0.0
C1222 C 0.66834 0.30738 0.19646 0.0
C1223 C 0.69255 0.31548 0.2117 0.0
C1224 C 0.65714 0.32302 0.17436 0.0
C1225 C 0.65883 0.38821 0.15356 0.0
H1226 H 0.62221 0.36378 0.07003 0.0
C1227 C 0.60702 0.45206 0.07652 0.0
C1228 C 0.58065 0.4427 0.07382 0.0
C1229 C 0.62464 0.43617 0.08225 0.0
C1230 C 0.63257 0.37082 0.09313 0.0
H1231 H 0.72383 0.34639 0.21613 0.0
H1232 H 0.70434 0.3735 0.17747 0.0
H1233 H 0.64475 0.33641 0.1053 0.0
H1234 H 0.55221 0.40954 0.07032 0.0
H1235 H 0.58293 0.38172 0.08186 0.0
H1236 H 0.64615 0.42224 0.1424 0.0
C1237 C 0.69394 0.35518 0.18282 0.0
C1238 C 0.64526 0.35519 0.11339 0.0
C1239 C 0.70506 0.33964 0.20503 0.0
C1240 C 0.57244 0.41717 0.07302 0.0
C1241 C 0.59006 0.40125 0.07924 0.0
C1242 C 0.6463 0.40378 0.13336 0.0
C1243 C 0.66999 0.34696 0.16709 0.0
C1244 C 0.65809 0.36368 0.14411 0.0
C1245 C 0.61605 0.41077 0.08591 0.0
C1246 C 0.63268 0.39514 0.1033 0.0
H1247 H 0.65824 0.28886 0.20113 0.0
H1248 H 0.63839 0.31642 0.1631 0.0
H1249 H 0.6682 0.39514 0.17739 0.0
H1250 H 0.61389 0.47171 0.0761 0.0
H1251 H 0.64471 0.44387 0.08641 0.0
C1252 C 0.69665 0.67639 0.20442 0.0
C1253 C 0.69444 0.69713 0.22393 0.0
C1254 C 0.67474 0.65986 0.19526 0.0
C1255 C 0.61141 0.65953 0.16647 0.0
H1256 H 0.59974 0.58901 0.18342 0.0
C1257 C 0.52698 0.59579 0.10095 0.0
C1258 C 0.53109 0.5722 0.092 0.0
C1259 C 0.54515 0.6109 0.12104 0.0
C1260 C 0.60286 0.60862 0.17799 0.0
H1261 H 0.66804 0.71688 0.24985 0.0
H1262 H 0.62924 0.68824 0.23244 0.0
H1263 H 0.63478 0.61496 0.21365 0.0
H1264 H 0.5577 0.54616 0.09587 0.0
H1265 H 0.59003 0.57288 0.12904 0.0
H1266 H 0.58097 0.65337 0.12902 0.0
C1267 C 0.64804 0.68455 0.22513 0.0
C1268 C 0.6227 0.62344 0.19572 0.0
C1269 C 0.6701 0.70076 0.23518 0.0
C1270 C 0.55396 0.56421 0.10267 0.0
C1271 C 0.57236 0.57948 0.12207 0.0
C1272 C 0.59193 0.64468 0.14814 0.0
C1273 C 0.65025 0.66423 0.20464 0.0
C1274 C 0.62726 0.64894 0.18979 0.0
C1275 C 0.56808 0.60291 0.132 0.0
C1276 C 0.58763 0.61896 0.15324 0.0
H1277 H 0.71528 0.67342 0.19531 0.0
H1278 H 0.6768 0.6444 0.17919 0.0
H1279 H 0.61493 0.67918 0.16117 0.0
H1280 H 0.50935 0.60229 0.09337 0.0
H1281 H 0.54091 0.62862 0.12851 0.0
C1282 C 0.29004 0.69662 0.2115 0.0
C1283 C 0.28789 0.71829 0.19273 0.0
C1284 C 0.30321 0.67913 0.19754 0.0
C1285 C 0.32894 0.66107 0.11373 0.0
H1286 H 0.36807 0.62364 0.17434 0.0
C1287 C 0.4125 0.61203 0.07305 0.0
C1288 C 0.41052 0.58719 0.08325 0.0
C1289 C 0.39442 0.62595 0.08415 0.0
C1290 C 0.35692 0.63379 0.15726 0.0
H1291 H 0.29847 0.73917 0.14531 0.0
H1292 H 0.32269 0.70942 0.12175 0.0
H1293 H 0.34394 0.65307 0.19927 0.0
H1294 H 0.388 0.55714 0.11218 0.0
H1295 H 0.3568 0.58201 0.133 0.0
H1296 H 0.3435 0.64265 0.0716 0.0
C1297 C 0.31334 0.70529 0.14656 0.0
C1298 C 0.34302 0.65059 0.17145 0.0
C1299 C 0.29969 0.7225 0.16019 0.0
C1300 C 0.38985 0.57628 0.10403 0.0
C1301 C 0.37212 0.59042 0.11593 0.0
C1302 C 0.34331 0.64464 0.09952 0.0
C1303 C 0.31498 0.68321 0.16483 0.0
C1304 C 0.32901 0.66462 0.14985 0.0
C1305 C 0.37448 0.61538 0.10628 0.0
C1306 C 0.35747 0.63101 0.12121 0.0
H1307 H 0.28083 0.69279 0.23649 0.0
H1308 H 0.30366 0.66222 0.21216 0.0
H1309 H 0.3179 0.67105 0.09631 0.0
H1310 H 0.42818 0.62075 0.05676 0.0
H1311 H 0.39659 0.64522 0.07659 0.0
C1312 C 0.32955 0.32452 0.26787 0.0
C1313 C 0.3199 0.30726 0.24258 0.0
C1314 C 0.34738 0.34542 0.25885 0.0
C1315 C 0.36991 0.38393 0.18213 0.0
H1316 H 0.42983 0.40772 0.23875 0.0
C1317 C 0.47498 0.44574 0.16028 0.0
C1318 C 0.46783 0.46361 0.13726 0.0
C1319 C 0.45626 0.42997 0.17901 0.0
C1320 C 0.41317 0.4013 0.22267 0.0
H1321 H 0.32225 0.29796 0.18831 0.0
H1322 H 0.35342 0.33394 0.17289 0.0
H1323 H 0.3988 0.3724 0.259 0.0
H1324 H 0.43583 0.48049 0.11825 0.0
H1325 H 0.4033 0.45354 0.1517 0.0
H1326 H 0.38463 0.41178 0.14503 0.0
C1327 C 0.34679 0.33173 0.19947 0.0
C1328 C 0.39529 0.38121 0.23442 0.0
C1329 C 0.32901 0.31098 0.2084 0.0
C1330 C 0.44188 0.46663 0.13537 0.0
C1331 C 0.42322 0.4511 0.15441 0.0
C1332 C 0.38774 0.40385 0.17037 0.0
C1333 C 0.35585 0.34941 0.22439 0.0
C1334 C 0.37377 0.372 0.21387 0.0
C1335 C 0.43005 0.43194 0.17538 0.0
C1336 C 0.40983 0.41256 0.19018 0.0
H1337 H 0.32292 0.32219 0.29444 0.0
H1338 H 0.35398 0.35875 0.2786 0.0
H1339 H 0.35327 0.37758 0.16597 0.0
H1340 H 0.49483 0.44293 0.16229 0.0
H1341 H 0.46222 0.41535 0.19469 0.0
C1342 C 0.79333 0.6586 0.69016 0.0
C1343 C 0.79104 0.6829 0.68043 0.0
C1344 C 0.80931 0.64564 0.67177 0.0
C1345 C 0.86611 0.65575 0.61465 0.0
H1346 H 0.84937 0.58505 0.60469 0.0
C1347 C 0.94328 0.59557 0.58735 0.0
C1348 C 0.93662 0.57458 0.56698 0.0
C1349 C 0.92466 0.60965 0.5965 0.0
C1350 C 0.85427 0.60484 0.60675 0.0
H1351 H 0.80317 0.71225 0.64278 0.0
H1352 H 0.83075 0.68944 0.61033 0.0
H1353 H 0.81744 0.6075 0.62788 0.0
H1354 H 0.90519 0.55231 0.53951 0.0
H1355 H 0.87294 0.57722 0.55462 0.0
H1356 H 0.90287 0.65311 0.59318 0.0
C1357 C 0.8205 0.68059 0.63263 0.0
C1358 C 0.83603 0.61769 0.62051 0.0
C1359 C 0.80453 0.69361 0.65112 0.0
C1360 C 0.91102 0.56834 0.55528 0.0
C1361 C 0.89245 0.58254 0.56418 0.0
C1362 C 0.88432 0.64291 0.60075 0.0
C1363 C 0.82339 0.65655 0.64304 0.0
C1364 C 0.84187 0.64325 0.62526 0.0
C1365 C 0.89894 0.60319 0.58533 0.0
C1366 C 0.87882 0.61722 0.5972 0.0
H1367 H 0.78331 0.64974 0.71263 0.0
H1368 H 0.8113 0.62733 0.68091 0.0
H1369 H 0.87139 0.67539 0.61815 0.0
H1370 H 0.9628 0.60092 0.59684 0.0
H1371 H 0.93034 0.6252 0.61322 0.0
C1372 C 0.35695 0.77289 0.67892 0.0
C1373 C 0.33362 0.78185 0.67446 0.0
C1374 C 0.37927 0.78485 0.66246 0.0
C1375 C 0.40335 0.83038 0.5939 0.0
H1376 H 0.45321 0.85904 0.66264 0.0
C1377 C 0.47655 0.91616 0.56102 0.0
C1378 C 0.47368 0.93546 0.58327 0.0
C1379 C 0.46685 0.89181 0.57038 0.0
C1380 C 0.43974 0.85086 0.64302 0.0
H1381 H 0.31464 0.80885 0.6475 0.0
H1382 H 0.35328 0.82929 0.6182 0.0
H1383 H 0.42041 0.82401 0.67889 0.0
H1384 H 0.46019 0.94421 0.63377 0.0
H1385 H 0.44334 0.90174 0.65012 0.0
H1386 H 0.42143 0.85827 0.55871 0.0
C1387 C 0.35452 0.81325 0.63449 0.0
C1388 C 0.42114 0.83071 0.65221 0.0
C1389 C 0.33246 0.80171 0.65147 0.0
C1390 C 0.46252 0.92978 0.61599 0.0
C1391 C 0.4531 0.90542 0.62548 0.0
C1392 C 0.42208 0.85035 0.58462 0.0
C1393 C 0.37827 0.80544 0.64067 0.0
C1394 C 0.402 0.82116 0.6282 0.0
C1395 C 0.45444 0.8863 0.60232 0.0
C1396 C 0.43961 0.86154 0.60961 0.0
H1397 H 0.35827 0.75763 0.69666 0.0
H1398 H 0.39742 0.7786 0.66767 0.0
H1399 H 0.38881 0.82323 0.57494 0.0
H1400 H 0.48508 0.91991 0.53559 0.0
H1401 H 0.46817 0.87739 0.55211 0.0
C1402 C 0.22536 0.30271 0.61775 0.0
C1403 C 0.24215 0.31449 0.6432 0.0
C1404 C 0.20777 0.31533 0.60051 0.0
C1405 C 0.17326 0.36612 0.61834 0.0
H1406 H 0.15131 0.36181 0.52187 0.0
C1407 C 0.11559 0.43434 0.55695 0.0
C1408 C 0.09402 0.42565 0.5363 0.0
C1409 C 0.13216 0.4186 0.56831 0.0
C1410 C 0.15704 0.36282 0.54897 0.0
H1411 H 0.25552 0.34935 0.66784 0.0
H1412 H 0.2254 0.37143 0.63725 0.0
H1413 H 0.18553 0.33951 0.54249 0.0
H1414 H 0.073 0.39373 0.51074 0.0
H1415 H 0.10251 0.36582 0.53067 0.0
H1416 H 0.14524 0.38956 0.62493 0.0
C1417 C 0.2252 0.35226 0.63141 0.0
C1418 C 0.17666 0.3502 0.56071 0.0
C1419 C 0.2426 0.33965 0.64875 0.0
C1420 C 0.0893 0.40075 0.52713 0.0
C1421 C 0.10626 0.38492 0.53818 0.0
C1422 C 0.15383 0.37865 0.60667 0.0
C1423 C 0.2068 0.33995 0.60834 0.0
C1424 C 0.18536 0.35223 0.59538 0.0
C1425 C 0.12776 0.39376 0.55908 0.0
C1426 C 0.1459 0.37761 0.57175 0.0
H1427 H 0.22451 0.2833 0.61289 0.0
H1428 H 0.19389 0.30538 0.58279 0.0
H1429 H 0.17891 0.36741 0.64545 0.0
H1430 H 0.11979 0.45347 0.56429 0.0
H1431 H 0.14876 0.42601 0.58396 0.0
C1432 C 0.6403 0.20991 0.66893 0.0
C1433 C 0.66506 0.22087 0.65823 0.0
C1434 C 0.62653 0.19022 0.65072 0.0
C1435 C 0.62543 0.15305 0.5703 0.0
H1436 H 0.59506 0.10027 0.63258 0.0
C1437 C 0.59423 0.05073 0.5294 0.0
C1438 C 0.57088 0.03851 0.5433 0.0
C1439 C 0.60468 0.07452 0.54016 0.0
C1440 C 0.60317 0.11489 0.61473 0.0
H1441 H 0.69383 0.2209 0.61822 0.0
H1442 H 0.67006 0.18639 0.58697 0.0
H1443 H 0.61357 0.13979 0.65612 0.0
H1444 H 0.5398 0.04214 0.57855 0.0
H1445 H 0.5579 0.08314 0.59702 0.0
H1446 H 0.61534 0.12756 0.52896 0.0
C1447 C 0.66113 0.19308 0.60926 0.0
C1448 C 0.61368 0.13766 0.62823 0.0
C1449 C 0.67482 0.21292 0.62731 0.0
C1450 C 0.55799 0.05077 0.56753 0.0
C1451 C 0.5684 0.07434 0.57826 0.0
C1452 C 0.61492 0.1301 0.55675 0.0
C1453 C 0.63727 0.18085 0.62154 0.0
C1454 C 0.62491 0.15711 0.60627 0.0
C1455 C 0.59201 0.0864 0.56513 0.0
C1456 C 0.6036 0.11079 0.57887 0.0
H1457 H 0.63205 0.21571 0.69239 0.0
H1458 H 0.60787 0.18169 0.66037 0.0
H1459 H 0.63382 0.16763 0.5526 0.0
H1460 H 0.60448 0.04192 0.51039 0.0
H1461 H 0.62295 0.08334 0.52962 0.0
C1462 C 0.80652 0.30159 0.38405 0.0
C1463 C 0.7886 0.31093 0.36239 0.0
C1464 C 0.824 0.31752 0.40401 0.0
C1465 C 0.83801 0.37562 0.44613 0.0
H1466 H 0.90647 0.38462 0.40667 0.0
C1467 C 0.91064 0.46329 0.46923 0.0
C1468 C 0.93716 0.46259 0.46874 0.0
C1469 C 0.89285 0.44241 0.46153 0.0
C1470 C 0.88774 0.38203 0.41877 0.0
H1471 H 0.77363 0.34378 0.3463 0.0
H1472 H 0.80357 0.3715 0.38241 0.0
H1473 H 0.87358 0.35147 0.38644 0.0
H1474 H 0.96593 0.43934 0.46089 0.0
H1475 H 0.93484 0.40245 0.44887 0.0
H1476 H 0.85192 0.4058 0.47887 0.0
C1477 C 0.80429 0.35196 0.38342 0.0
C1478 C 0.8689 0.36309 0.40699 0.0
C1479 C 0.78728 0.33616 0.36278 0.0
C1480 C 0.94558 0.44046 0.46094 0.0
C1481 C 0.92772 0.41935 0.454 0.0
C1482 C 0.857 0.39422 0.45856 0.0
C1483 C 0.82323 0.34283 0.40332 0.0
C1484 C 0.84378 0.36019 0.41994 0.0
C1485 C 0.90108 0.42009 0.4539 0.0
C1486 C 0.88191 0.39821 0.44423 0.0
H1487 H 0.80807 0.28223 0.38397 0.0
H1488 H 0.83861 0.31023 0.41912 0.0
H1489 H 0.81869 0.37356 0.45646 0.0
H1490 H 0.9036 0.48015 0.47495 0.0
H1491 H 0.87264 0.44404 0.46084 0.0
C1492 C 0.70646 0.80423 0.3402 0.0
C1493 C 0.72219 0.8144 0.31246 0.0
C1494 C 0.69058 0.81838 0.35707 0.0
C1495 C 0.65711 0.87056 0.33922 0.0
H1496 H 0.6504 0.87487 0.439 0.0
C1497 C 0.5785 0.91703 0.39881 0.0
C1498 C 0.58621 0.9343 0.42483 0.0
C1499 C 0.59505 0.90145 0.38774 0.0
C1500 C 0.65217 0.87386 0.41109 0.0
H1501 H 0.7342 0.84784 0.28183 0.0
H1502 H 0.70666 0.87205 0.31087 0.0
H1503 H 0.67988 0.84926 0.41518 0.0
H1504 H 0.61739 0.94838 0.45996 0.0
H1505 H 0.64628 0.92076 0.44085 0.0
H1506 H 0.62964 0.89504 0.33483 0.0
C1507 C 0.70635 0.85315 0.3194 0.0
C1508 C 0.66884 0.85907 0.3975 0.0
C1509 C 0.72223 0.83919 0.30282 0.0
C1510 C 0.61079 0.93525 0.43997 0.0
C1511 C 0.62731 0.91938 0.42913 0.0
C1512 C 0.64034 0.88504 0.35271 0.0
C1513 C 0.69 0.84284 0.34627 0.0
C1514 C 0.67163 0.85747 0.36138 0.0
C1515 C 0.61972 0.90255 0.40252 0.0
C1516 C 0.63769 0.88695 0.38877 0.0
H1517 H 0.70599 0.78524 0.34838 0.0
H1518 H 0.67812 0.80995 0.37771 0.0
H1519 H 0.65866 0.86954 0.31128 0.0
H1520 H 0.55967 0.9156 0.38668 0.0
H1521 H 0.58851 0.88848 0.3675 0.0
C1522 C 0.19747 0.68833 0.32783 0.0
C1523 C 0.18983 0.71155 0.32777 0.0
C1524 C 0.18134 0.66784 0.34182 0.0
C1525 C 0.11197 0.64802 0.35917 0.0
H1526 H 0.13481 0.5898 0.39811 0.0
C1527 C 0.04494 0.56396 0.41928 0.0
C1528 C 0.04984 0.54065 0.40989 0.0
C1529 C 0.06126 0.58525 0.40827 0.0
C1530 C 0.12824 0.60592 0.387 0.0
H1531 H 0.1609 0.73219 0.34518 0.0
H1532 H 0.13346 0.6968 0.37132 0.0
H1533 H 0.16635 0.62664 0.38612 0.0
H1534 H 0.07492 0.5215 0.38008 0.0
H1535 H 0.10344 0.55875 0.3611 0.0
H1536 H 0.07379 0.62731 0.36082 0.0
C1537 C 0.15121 0.69405 0.35921 0.0
C1538 C 0.14627 0.62701 0.38014 0.0
C1539 C 0.16705 0.71438 0.34465 0.0
C1540 C 0.07051 0.53916 0.38764 0.0
C1541 C 0.08702 0.56043 0.37708 0.0
C1542 C 0.09395 0.62705 0.36649 0.0
C1543 C 0.15752 0.67035 0.35647 0.0
C1544 C 0.13838 0.6483 0.36595 0.0
C1545 C 0.08291 0.58358 0.38808 0.0
C1546 C 0.10195 0.60577 0.38016 0.0
H1547 H 0.21485 0.68566 0.31466 0.0
H1548 H 0.18682 0.64989 0.33908 0.0
H1549 H 0.10519 0.66382 0.34744 0.0
H1550 H 0.02918 0.5657 0.4364 0.0
H1551 H 0.0577 0.60293 0.41704 0.0
C1552 C 0.29637 0.17543 0.37469 0.0
C1553 C 0.30312 0.20039 0.36512 0.0
C1554 C 0.31189 0.16418 0.39738 0.0
C1555 C 0.37853 0.1665 0.4239 0.0
H1556 H 0.34861 0.11775 0.49231 0.0
C1557 C 0.39856 0.06845 0.48222 0.0
C1558 C 0.4249 0.07327 0.49081 0.0
C1559 C 0.38505 0.08763 0.4743 0.0
C1560 C 0.35731 0.13132 0.47336 0.0
H1561 H 0.33128 0.2333 0.37251 0.0
H1562 H 0.35899 0.21331 0.41194 0.0
H1563 H 0.32204 0.14528 0.46516 0.0
H1564 H 0.45756 0.10223 0.49869 0.0
H1565 H 0.43387 0.13596 0.48419 0.0
H1566 H 0.41349 0.15166 0.43086 0.0
C1567 C 0.34143 0.20261 0.40192 0.0
C1568 C 0.3421 0.14713 0.45788 0.0
C1569 C 0.32553 0.21406 0.37954 0.0
C1570 C 0.43733 0.09789 0.49189 0.0
C1571 C 0.42378 0.11719 0.48359 0.0
C1572 C 0.39377 0.15056 0.43932 0.0
C1573 C 0.33483 0.17747 0.41083 0.0
C1574 C 0.35226 0.16429 0.43206 0.0
C1575 C 0.39748 0.11223 0.47453 0.0
C1576 C 0.38304 0.13216 0.46325 0.0
H1577 H 0.27918 0.16439 0.36415 0.0
H1578 H 0.3064 0.14474 0.40333 0.0
H1579 H 0.38689 0.17946 0.40398 0.0
H1580 H 0.38826 0.04976 0.48139 0.0
H1581 H 0.36493 0.08306 0.46696 0.0
C1582 C 0.71149 0.78977 0.63968 0.0
C1583 C 0.69694 0.77386 0.66379 0.0
C1584 C 0.69957 0.80522 0.61794 0.0
C1585 C 0.63817 0.81645 0.58025 0.0
H1586 H 0.66616 0.88542 0.59163 0.0
C1587 C 0.58116 0.89385 0.54029 0.0
C1588 C 0.59476 0.91707 0.53075 0.0
C1589 C 0.59434 0.87506 0.55167 0.0
C1590 C 0.65834 0.8663 0.58731 0.0
H1591 H 0.65831 0.76052 0.68237 0.0
H1592 H 0.63747 0.78717 0.64375 0.0
H1593 H 0.68797 0.85421 0.61842 0.0
H1594 H 0.63279 0.93845 0.52357 0.0
H1595 H 0.65582 0.90546 0.54158 0.0
H1596 H 0.60868 0.82839 0.54876 0.0
C1597 C 0.65809 0.7878 0.64198 0.0
C1598 C 0.67085 0.84839 0.60289 0.0
C1599 C 0.67005 0.77265 0.66417 0.0
C1600 C 0.62179 0.92084 0.53133 0.0
C1601 C 0.63498 0.90191 0.5419 0.0
C1602 C 0.62586 0.83437 0.56406 0.0
C1603 C 0.67284 0.80473 0.61941 0.0
C1604 C 0.6607 0.82333 0.59995 0.0
C1605 C 0.62147 0.87891 0.55306 0.0
C1606 C 0.63554 0.85959 0.56784 0.0
H1607 H 0.73224 0.79121 0.63879 0.0
H1608 H 0.71133 0.81804 0.60059 0.0
H1609 H 0.63005 0.7972 0.57747 0.0
H1610 H 0.5603 0.89045 0.54016 0.0
H1611 H 0.58315 0.85781 0.56047 0.0
C1612 C 0.67484 0.20278 0.37638 0.0
C1613 C 0.67053 0.21764 0.34759 0.0
C1614 C 0.65412 0.18846 0.39329 0.0
C1615 C 0.60668 0.16059 0.42831 0.0
H1616 H 0.56169 0.126 0.35851 0.0
C1617 C 0.53949 0.06973 0.45997 0.0
C1618 C 0.5429 0.05076 0.43739 0.0
C1619 C 0.54887 0.09423 0.45125 0.0
C1620 C 0.57392 0.13563 0.37836 0.0
H1621 H 0.6412 0.23145 0.31647 0.0
H1622 H 0.60503 0.20684 0.34646 0.0
H1623 H 0.59052 0.16349 0.34239 0.0
H1624 H 0.55762 0.04275 0.38727 0.0
H1625 H 0.57397 0.08549 0.37204 0.0
H1626 H 0.5913 0.13152 0.4636 0.0
C1627 C 0.6244 0.20564 0.35528 0.0
C1628 C 0.59025 0.15731 0.36928 0.0
C1629 C 0.64511 0.21974 0.33814 0.0
C1630 C 0.55473 0.05691 0.40521 0.0
C1631 C 0.56392 0.08142 0.3964 0.0
C1632 C 0.59034 0.13883 0.43738 0.0
C1633 C 0.62871 0.18895 0.38191 0.0
C1634 C 0.60756 0.1695 0.3938 0.0
C1635 C 0.56159 0.10025 0.41966 0.0
C1636 C 0.57461 0.12564 0.41208 0.0
H1637 H 0.69423 0.20089 0.38438 0.0
H1638 H 0.65818 0.17569 0.41355 0.0
H1639 H 0.61953 0.16977 0.44787 0.0
H1640 H 0.53052 0.06563 0.48507 0.0
H1641 H 0.54672 0.1084 0.46955 0.0
C1642 C 0.83893 0.7243 0.33666 0.0
C1643 C 0.81239 0.71723 0.33077 0.0
C1644 C 0.85245 0.71017 0.35815 0.0
C1645 C 0.84595 0.65835 0.4227 0.0
H1646 H 0.91188 0.64987 0.38487 0.0
C1647 C 0.89966 0.57854 0.46248 0.0
C1648 C 0.92669 0.58337 0.46518 0.0
C1649 C 0.88591 0.5968 0.45095 0.0
C1650 C 0.89374 0.65234 0.39616 0.0
H1651 H 0.77886 0.69049 0.34412 0.0
H1652 H 0.80269 0.66513 0.38122 0.0
H1653 H 0.88694 0.67781 0.35605 0.0
H1654 H 0.96041 0.6115 0.45916 0.0
H1655 H 0.93635 0.64348 0.43858 0.0
H1656 H 0.85263 0.6321 0.46226 0.0
C1657 C 0.81299 0.6819 0.36956 0.0
C1658 C 0.87938 0.6684 0.37964 0.0
C1659 C 0.79931 0.69636 0.34831 0.0
C1660 C 0.93963 0.60715 0.45709 0.0
C1661 C 0.92585 0.62542 0.44523 0.0
C1662 C 0.86032 0.64212 0.43917 0.0
C1663 C 0.83989 0.6883 0.37389 0.0
C1664 C 0.85526 0.67161 0.39258 0.0
C1665 C 0.89886 0.62033 0.4416 0.0
C1666 C 0.88433 0.63884 0.42594 0.0
H1667 H 0.84946 0.74057 0.32394 0.0
H1668 H 0.87295 0.71612 0.36171 0.0
H1669 H 0.82762 0.66056 0.43361 0.0
H1670 H 0.88902 0.56048 0.46887 0.0
H1671 H 0.86519 0.5922 0.44819 0.0
C1672 C 0.3175 0.83917 0.30759 0.0
C1673 C 0.30508 0.81548 0.31723 0.0
C1674 C 0.33696 0.85174 0.3283 0.0
C1675 C 0.35898 0.858 0.41759 0.0
H1676 H 0.41885 0.89742 0.37505 0.0
C1677 C 0.45389 0.93585 0.45301 0.0
C1678 C 0.44177 0.95191 0.47251 0.0
C1679 C 0.4395 0.91507 0.43807 0.0
C1680 C 0.40251 0.88625 0.38757 0.0
H1681 H 0.30366 0.78617 0.35594 0.0
H1682 H 0.33775 0.80855 0.3928 0.0
H1683 H 0.39046 0.86785 0.34037 0.0
H1684 H 0.40518 0.95805 0.49299 0.0
H1685 H 0.37998 0.92201 0.46629 0.0
H1686 H 0.37076 0.87693 0.46465 0.0
C1687 C 0.33231 0.8172 0.36897 0.0
C1688 C 0.38614 0.86945 0.36759 0.0
C1689 C 0.31295 0.80439 0.34784 0.0
C1690 C 0.41508 0.94614 0.47794 0.0
C1691 C 0.40067 0.92536 0.46288 0.0
C1692 C 0.37536 0.87493 0.43762 0.0
C1693 C 0.3444 0.84106 0.35939 0.0
C1694 C 0.36383 0.85565 0.38211 0.0
C1695 C 0.41265 0.90986 0.44219 0.0
C1696 C 0.39697 0.88967 0.42258 0.0
H1697 H 0.31201 0.8482 0.28408 0.0
H1698 H 0.34566 0.87021 0.32046 0.0
H1699 H 0.34185 0.84767 0.42941 0.0
H1700 H 0.47449 0.9395 0.44879 0.0
H1701 H 0.44937 0.90327 0.42278 0.0
C1702 C 0.17731 0.2793 0.35794 0.0
C1703 C 0.20414 0.28537 0.35401 0.0
C1704 C 0.16334 0.29574 0.37286 0.0
C1705 C 0.16569 0.35173 0.42427 0.0
H1706 H 0.1075 0.36077 0.3656 0.0
C1707 C 0.10407 0.42982 0.44187 0.0
C1708 C 0.07754 0.4238 0.43464 0.0
C1709 C 0.12061 0.41283 0.43593 0.0
C1710 C 0.12339 0.35827 0.38266 0.0
H1711 H 0.23756 0.31284 0.36507 0.0
H1712 H 0.2129 0.34182 0.3913 0.0
H1713 H 0.13445 0.33112 0.34985 0.0
H1714 H 0.04742 0.39471 0.41749 0.0
H1715 H 0.07595 0.36519 0.40771 0.0
H1716 H 0.15432 0.37901 0.45721 0.0
C1717 C 0.20281 0.32421 0.38271 0.0
C1718 C 0.13892 0.34128 0.37354 0.0
C1719 C 0.21691 0.30762 0.3677 0.0
C1720 C 0.06781 0.40016 0.42267 0.0
C1721 C 0.08423 0.38322 0.41696 0.0
C1722 C 0.14994 0.36876 0.4336 0.0
C1723 C 0.17576 0.31876 0.38422 0.0
C1724 C 0.16006 0.33755 0.39436 0.0
C1725 C 0.11092 0.38948 0.42269 0.0
C1726 C 0.1284 0.37201 0.41305 0.0
H1727 H 0.16686 0.26216 0.3482 0.0
H1728 H 0.14258 0.29078 0.37438 0.0
H1729 H 0.18189 0.34925 0.44079 0.0
H1730 H 0.11215 0.44782 0.45141 0.0
H1731 H 0.14105 0.41829 0.44062 0.0
C1732 C 0.35856 0.21564 0.66763 0.0
C1733 C 0.33271 0.21611 0.65863 0.0
C1734 C 0.37149 0.19781 0.65423 0.0
C1735 C 0.36985 0.14883 0.5893 0.0
H1736 H 0.40519 0.11829 0.66291 0.0
C1737 C 0.41084 0.05721 0.57505 0.0
C1738 C 0.43548 0.05716 0.58955 0.0
C1739 C 0.39776 0.077 0.5804 0.0
C1740 C 0.39566 0.12675 0.64194 0.0
H1741 H 0.3008 0.19938 0.62634 0.0
H1742 H 0.32343 0.16797 0.60318 0.0
H1743 H 0.38457 0.15328 0.67569 0.0
H1744 H 0.46569 0.07791 0.62092 0.0
H1745 H 0.44293 0.11198 0.63048 0.0
H1746 H 0.38109 0.12191 0.5556 0.0
C1747 C 0.33367 0.1815 0.62052 0.0
C1748 C 0.38389 0.14688 0.64924 0.0
C1749 C 0.32071 0.1995 0.63383 0.0
C1750 C 0.44663 0.07715 0.60967 0.0
C1751 C 0.43358 0.09675 0.61515 0.0
C1752 C 0.38176 0.12857 0.58193 0.0
C1753 C 0.35886 0.17989 0.6317 0.0
C1754 C 0.37113 0.15839 0.623 0.0
C1755 C 0.40897 0.09689 0.60076 0.0
C1756 C 0.39505 0.11753 0.60818 0.0
H1757 H 0.3685 0.22838 0.68626 0.0
H1758 H 0.39114 0.19744 0.66263 0.0
H1759 H 0.3601 0.15729 0.56856 0.0
H1760 H 0.40171 0.04205 0.55944 0.0
H1761 H 0.37875 0.07654 0.56912 0.0
C1762 C 0.80656 0.31754 0.65392 0.0
C1763 C 0.78581 0.32746 0.667 0.0
C1764 C 0.82883 0.33296 0.64281 0.0
C1765 C 0.87261 0.36799 0.61099 0.0
H1766 H 0.8886 0.43161 0.65401 0.0
C1767 C 0.95495 0.44168 0.56177 0.0
C1768 C 0.96512 0.46141 0.58302 0.0
C1769 C 0.93528 0.42346 0.57367 0.0
C1770 C 0.88493 0.41371 0.64225 0.0
H1771 H 0.77113 0.36109 0.67662 0.0
H1772 H 0.80896 0.38815 0.65425 0.0
H1773 H 0.84969 0.40432 0.66972 0.0
H1774 H 0.96465 0.47605 0.6347 0.0
H1775 H 0.9319 0.44302 0.6567 0.0
H1776 H 0.90888 0.37651 0.58573 0.0
C1777 C 0.80889 0.36851 0.65438 0.0
C1778 C 0.862 0.39818 0.6506 0.0
C1779 C 0.78696 0.35304 0.66664 0.0
C1780 C 0.95698 0.46121 0.61761 0.0
C1781 C 0.93784 0.44243 0.62997 0.0
C1782 C 0.89595 0.38316 0.60354 0.0
C1783 C 0.83058 0.35873 0.64353 0.0
C1784 C 0.85524 0.37523 0.63467 0.0
C1785 C 0.92582 0.42392 0.60765 0.0
C1786 C 0.90229 0.4065 0.61852 0.0
H1787 H 0.80633 0.29783 0.65455 0.0
H1788 H 0.84503 0.32449 0.63533 0.0
H1789 H 0.86821 0.35068 0.5977 0.0
H1790 H 0.96073 0.44124 0.53494 0.0
H1791 H 0.92657 0.40994 0.55525 0.0
C1792 C 0.21099 0.6919 0.63186 0.0
C1793 C 0.22641 0.68516 0.65918 0.0
C1794 C 0.1965 0.67401 0.61153 0.0
C1795 C 0.18369 0.60746 0.59131 0.0
H1796 H 0.11387 0.62042 0.57886 0.0
C1797 C 0.10566 0.54216 0.51643 0.0
C1798 C 0.08077 0.5378 0.53062 0.0
C1799 C 0.12462 0.56034 0.52986 0.0
C1800 C 0.13322 0.61642 0.5823 0.0
H1801 H 0.24027 0.65471 0.68536 0.0
H1802 H 0.21434 0.62309 0.65019 0.0
H1803 H 0.14623 0.65127 0.60499 0.0
H1804 H 0.05624 0.54924 0.56989 0.0
H1805 H 0.08944 0.58076 0.59366 0.0
H1806 H 0.17022 0.57212 0.5697 0.0
C1807 C 0.21374 0.64226 0.64413 0.0
C1808 C 0.15193 0.63428 0.59681 0.0
C1809 C 0.22862 0.66031 0.66424 0.0
C1810 C 0.07519 0.55219 0.55831 0.0
C1811 C 0.0942 0.57033 0.57182 0.0
C1812 C 0.16489 0.5895 0.57681 0.0
C1813 C 0.19672 0.64893 0.61851 0.0
C1814 C 0.17739 0.63005 0.60155 0.0
C1815 C 0.11916 0.57456 0.55782 0.0
C1816 C 0.13939 0.59375 0.57236 0.0
H1817 H 0.20919 0.71101 0.62726 0.0
H1818 H 0.1842 0.67981 0.59133 0.0
H1819 H 0.20313 0.60366 0.59449 0.0
H1820 H 0.11056 0.5315 0.49491 0.0
H1821 H 0.14351 0.5634 0.51812 0.0
loop_
_geom_bond_atom_site_label_1
_geom_bond_atom_site_label_2
_geom_bond_distance
_geom_bond_site_symmetry_2
_ccdc_geom_bond_type
O0 Zn1 1.953 . S
O0 C16 1.225 . S
Zn1 O0 1.953 . S
Zn1 O2 1.949 . S
Zn1 O8 1.919 . S
Zn1 O13 1.924 . S
O2 Zn1 1.949 . S
O2 Zn3 1.923 . S
O2 Zn4 1.950 . S
O2 Zn5 1.945 . S
Zn3 O2 1.923 . S
Zn3 O6 1.933 . S
Zn3 O9 1.941 . S
Zn3 O10 1.965 . S
Zn4 O2 1.950 . S
Zn4 O11 1.938 . S
Zn4 O12 1.906 . S
Zn4 O22 1.953 . S
Zn5 O2 1.945 . S
Zn5 O7 1.932 . S
Zn5 O14 1.977 . S
Zn5 O15 1.910 . S
O6 Zn3 1.933 . S
O6 C17 1.226 . S
O7 Zn5 1.932 . S
O7 C17 1.307 . S
O8 Zn1 1.919 . S
O8 C19 1.253 . S
O9 Zn3 1.941 . S
O9 C19 1.283 . S
O10 Zn3 1.965 . S
O10 C18 1.303 . S
O11 Zn4 1.938 . S
O11 C18 1.247 . S
O12 Zn4 1.906 . S
O12 C20 1.304 . S
O13 Zn1 1.924 . S
O13 C21 1.311 . S
O14 Zn5 1.977 . S
O14 C20 1.272 . S
O15 Zn5 1.910 . S
O15 C21 1.231 . S
C16 O0 1.225 . S
C16 O22 1.298 . S
C17 O6 1.226 . S
C17 O7 1.307 . S
C18 O10 1.303 . S
C18 O11 1.247 . S
C19 O8 1.253 . S
C19 O9 1.283 . S
C20 O12 1.304 . S
C20 O14 1.272 . S
C21 O13 1.311 . S
C21 O15 1.231 . S
O22 Zn4 1.953 . S
O22 C16 1.298 . S
O23 Zn24 1.953 . S
O23 C39 1.225 . S
Zn24 O23 1.953 . S
Zn24 O25 1.949 . S
Zn24 O31 1.919 . S
Zn24 O36 1.924 . S
O25 Zn24 1.949 . S
O25 Zn26 1.923 . S
O25 Zn27 1.950 . S
O25 Zn28 1.945 . S
Zn26 O25 1.923 . S
Zn26 O29 1.933 . S
Zn26 O32 1.941 . S
Zn26 O33 1.965 . S
Zn27 O25 1.950 . S
Zn27 O34 1.938 . S
Zn27 O35 1.906 . S
Zn27 O45 1.953 . S
Zn28 O25 1.945 . S
Zn28 O30 1.932 . S
Zn28 O37 1.977 . S
Zn28 O38 1.910 . S
O29 Zn26 1.933 . S
O29 C40 1.226 . S
O30 Zn28 1.932 . S
O30 C40 1.307 . S
O31 Zn24 1.919 . S
O31 C42 1.253 . S
O32 Zn26 1.941 . S
O32 C42 1.283 . S
O33 Zn26 1.965 . S
O33 C41 1.303 . S
O34 Zn27 1.938 . S
O34 C41 1.247 . S
O35 Zn27 1.906 . S
O35 C43 1.304 . S
O36 Zn24 1.924 . S
O36 C44 1.311 . S
O37 Zn28 1.977 . S
O37 C43 1.272 . S
O38 Zn28 1.910 . S
O38 C44 1.231 . S
C39 O23 1.225 . S
C39 O45 1.298 . S
C40 O29 1.226 . S
C40 O30 1.307 . S
C41 O33 1.303 . S
C41 O34 1.247 . S
C42 O31 1.253 . S
C42 O32 1.283 . S
C43 O35 1.304 . S
C43 O37 1.272 . S
C44 O36 1.311 . S
C44 O38 1.231 . S
O45 Zn27 1.953 . S
O45 C39 1.298 . S
O46 Zn47 1.953 . S
O46 C62 1.225 . S
Zn47 O46 1.953 . S
Zn47 O48 1.949 . S
Zn47 O54 1.919 . S
Zn47 O59 1.924 . S
O48 Zn47 1.949 . S
O48 Zn49 1.923 . S
O48 Zn50 1.950 . S
O48 Zn51 1.945 . S
Zn49 O48 1.923 . S
Zn49 O52 1.933 . S
Zn49 O55 1.941 . S
Zn49 O56 1.965 . S
Zn50 O48 1.950 . S
Zn50 O57 1.938 . S
Zn50 O58 1.906 . S
Zn50 O68 1.953 . S
Zn51 O48 1.945 . S
Zn51 O53 1.932 . S
Zn51 O60 1.977 . S
Zn51 O61 1.910 . S
O52 Zn49 1.933 . S
O52 C63 1.226 . S
O53 Zn51 1.932 . S
O53 C63 1.307 . S
O54 Zn47 1.919 . S
O54 C65 1.253 . S
O55 Zn49 1.941 . S
O55 C65 1.283 . S
O56 Zn49 1.965 . S
O56 C64 1.303 . S
O57 Zn50 1.938 . S
O57 C64 1.247 . S
O58 Zn50 1.906 . S
O58 C66 1.304 . S
O59 Zn47 1.924 . S
O59 C67 1.311 . S
O60 Zn51 1.977 . S
O60 C66 1.272 . S
O61 Zn51 1.910 . S
O61 C67 1.231 . S
C62 O46 1.225 . S
C62 O68 1.298 . S
C63 O52 1.226 . S
C63 O53 1.307 . S
C64 O56 1.303 . S
C64 O57 1.247 . S
C65 O54 1.253 . S
C65 O55 1.283 . S
C66 O58 1.304 . S
C66 O60 1.272 . S
C67 O59 1.311 . S
C67 O61 1.231 . S
O68 Zn50 1.953 . S
O68 C62 1.298 . S
O69 Zn70 1.953 . S
O69 C85 1.225 . S
Zn70 O69 1.953 . S
Zn70 O71 1.949 . S
Zn70 O77 1.919 . S
Zn70 O82 1.924 . S
O71 Zn70 1.949 . S
O71 Zn72 1.923 . S
O71 Zn73 1.950 . S
O71 Zn74 1.945 . S
Zn72 O71 1.923 . S
Zn72 O75 1.933 . S
Zn72 O78 1.941 . S
Zn72 O79 1.965 . S
Zn73 O71 1.950 . S
Zn73 O80 1.938 . S
Zn73 O81 1.906 . S
Zn73 O91 1.953 . S
Zn74 O71 1.945 . S
Zn74 O76 1.932 . S
Zn74 O83 1.977 . S
Zn74 O84 1.910 . S
O75 Zn72 1.933 . S
O75 C86 1.226 . S
O76 Zn74 1.932 . S
O76 C86 1.307 . S
O77 Zn70 1.919 . S
O77 C88 1.253 . S
O78 Zn72 1.941 . S
O78 C88 1.283 . S
O79 Zn72 1.965 . S
O79 C87 1.303 . S
O80 Zn73 1.938 . S
O80 C87 1.247 . S
O81 Zn73 1.906 . S
O81 C89 1.304 . S
O82 Zn70 1.924 . S
O82 C90 1.311 . S
O83 Zn74 1.977 . S
O83 C89 1.272 . S
O84 Zn74 1.910 . S
O84 C90 1.231 . S
C85 O69 1.225 . S
C85 O91 1.298 . S
C86 O75 1.226 . S
C86 O76 1.307 . S
C87 O79 1.303 . S
C87 O80 1.247 . S
C88 O77 1.253 . S
C88 O78 1.283 . S
C89 O81 1.304 . S
C89 O83 1.272 . S
C90 O82 1.311 . S
C90 O84 1.231 . S
O91 Zn73 1.953 . S
O91 C85 1.298 . S
O92 Zn93 1.953 . S
O92 C108 1.225 . S
Zn93 O92 1.953 . S
Zn93 O94 1.949 . S
Zn93 O100 1.919 . S
Zn93 O105 1.924 . S
O94 Zn93 1.949 . S
O94 Zn95 1.923 . S
O94 Zn96 1.950 . S
O94 Zn97 1.945 . S
Zn95 O94 1.923 . S
Zn95 O98 1.933 . S
Zn95 O101 1.941 . S
Zn95 O102 1.965 . S
Zn96 O94 1.950 . S
Zn96 O103 1.938 . S
Zn96 O104 1.906 . S
Zn96 O114 1.953 . S
Zn97 O94 1.945 . S
Zn97 O99 1.932 . S
Zn97 O106 1.977 . S
Zn97 O107 1.910 . S
O98 Zn95 1.933 . S
O98 C109 1.226 . S
O99 Zn97 1.932 . S
O99 C109 1.307 . S
O100 Zn93 1.919 . S
O100 C111 1.253 . S
O101 Zn95 1.941 . S
O101 C111 1.283 . S
O102 Zn95 1.965 . S
O102 C110 1.303 . S
O103 Zn96 1.938 . S
O103 C110 1.247 . S
O104 Zn96 1.906 . S
O104 C112 1.304 . S
O105 Zn93 1.924 . S
O105 C113 1.311 . S
O106 Zn97 1.977 . S
O106 C112 1.272 . S
O107 Zn97 1.910 . S
O107 C113 1.231 . S
C108 O92 1.225 . S
C108 O114 1.298 . S
C109 O98 1.226 . S
C109 O99 1.307 . S
C110 O102 1.303 . S
C110 O103 1.247 . S
C111 O100 1.253 . S
C111 O101 1.283 . S
C112 O104 1.304 . S
C112 O106 1.272 . S
C113 O105 1.311 . S
C113 O107 1.231 . S
O114 Zn96 1.953 . S
O114 C108 1.298 . S
O115 Zn116 1.953 . S
O115 C131 1.225 . S
Zn116 O115 1.953 . S
Zn116 O117 1.949 . S
Zn116 O123 1.919 . S
Zn116 O128 1.924 . S
O117 Zn116 1.949 . S
O117 Zn118 1.923 . S
O117 Zn119 1.950 . S
O117 Zn120 1.945 . S
Zn118 O117 1.923 . S
Zn118 O121 1.933 . S
Zn118 O124 1.941 . S
Zn118 O125 1.965 . S
Zn119 O117 1.950 . S
Zn119 O126 1.938 . S
Zn119 O127 1.906 . S
Zn119 O137 1.953 . S
Zn120 O117 1.945 . S
Zn120 O122 1.932 . S
Zn120 O129 1.977 . S
Zn120 O130 1.910 . S
O121 Zn118 1.933 . S
O121 C132 1.226 . S
O122 Zn120 1.932 . S
O122 C132 1.307 . S
O123 Zn116 1.919 . S
O123 C134 1.253 . S
O124 Zn118 1.941 . S
O124 C134 1.283 . S
O125 Zn118 1.965 . S
O125 C133 1.303 . S
O126 Zn119 1.938 . S
O126 C133 1.247 . S
O127 Zn119 1.906 . S
O127 C135 1.304 . S
O128 Zn116 1.924 . S
O128 C136 1.311 . S
O129 Zn120 1.977 . S
O129 C135 1.272 . S
O130 Zn120 1.910 . S
O130 C136 1.231 . S
C131 O115 1.225 . S
C131 O137 1.298 . S
C132 O121 1.226 . S
C132 O122 1.307 . S
C133 O125 1.303 . S
C133 O126 1.247 . S
C134 O123 1.253 . S
C134 O124 1.283 . S
C135 O127 1.304 . S
C135 O129 1.272 . S
C136 O128 1.311 . S
C136 O130 1.231 . S
O137 Zn119 1.953 . S
O137 C131 1.298 . S
O138 Zn139 1.953 . S
O138 C154 1.225 . S
Zn139 O138 1.953 . S
Zn139 O140 1.949 . S
Zn139 O146 1.919 . S
Zn139 O151 1.924 . S
O140 Zn139 1.949 . S
O140 Zn141 1.923 . S
O140 Zn142 1.950 . S
O140 Zn143 1.945 . S
Zn141 O140 1.923 . S
Zn141 O144 1.933 . S
Zn141 O147 1.941 . S
Zn141 O148 1.965 . S
Zn142 O140 1.950 . S
Zn142 O149 1.938 . S
Zn142 O150 1.906 . S
Zn142 O160 1.953 . S
Zn143 O140 1.945 . S
Zn143 O145 1.932 . S
Zn143 O152 1.977 . S
Zn143 O153 1.910 . S
O144 Zn141 1.933 . S
O144 C155 1.226 . S
O145 Zn143 1.932 . S
O145 C155 1.307 . S
O146 Zn139 1.919 . S
O146 C157 1.253 . S
O147 Zn141 1.941 . S
O147 C157 1.283 . S
O148 Zn141 1.965 . S
O148 C156 1.303 . S
O149 Zn142 1.938 . S
O149 C156 1.247 . S
O150 Zn142 1.906 . S
O150 C158 1.304 . S
O151 Zn139 1.924 . S
O151 C159 1.311 . S
O152 Zn143 1.977 . S
O152 C158 1.272 . S
O153 Zn143 1.910 . S
O153 C159 1.231 . S
C154 O138 1.225 . S
C154 O160 1.298 . S
C155 O144 1.226 . S
C155 O145 1.307 . S
C156 O148 1.303 . S
C156 O149 1.247 . S
C157 O146 1.253 . S
C157 O147 1.283 . S
C158 O150 1.304 . S
C158 O152 1.272 . S
C159 O151 1.311 . S
C159 O153 1.231 . S
O160 Zn142 1.953 . S
O160 C154 1.298 . S
O161 Zn162 1.953 . S
O161 C177 1.225 . S
Zn162 O161 1.953 . S
Zn162 O163 1.949 . S
Zn162 O169 1.919 . S
Zn162 O174 1.924 . S
O163 Zn162 1.949 . S
O163 Zn164 1.923 . S
O163 Zn165 1.950 . S
O163 Zn166 1.945 . S
Zn164 O163 1.923 . S
Zn164 O167 1.933 . S
Zn164 O170 1.941 . S
Zn164 O171 1.965 . S
Zn165 O163 1.950 . S
Zn165 O172 1.938 . S
Zn165 O173 1.906 . S
Zn165 O183 1.953 . S
Zn166 O163 1.945 . S
Zn166 O168 1.932 . S
Zn166 O175 1.977 . S
Zn166 O176 1.910 . S
O167 Zn164 1.933 . S
O167 C178 1.226 . S
O168 Zn166 1.932 . S
O168 C178 1.307 . S
O169 Zn162 1.919 . S
O169 C180 1.253 . S
O170 Zn164 1.941 . S
O170 C180 1.283 . S
O171 Zn164 1.965 . S
O171 C179 1.303 . S
O172 Zn165 1.938 . S
O172 C179 1.247 . S
O173 Zn165 1.906 . S
O173 C181 1.304 . S
O174 Zn162 1.924 . S
O174 C182 1.311 . S
O175 Zn166 1.977 . S
O175 C181 1.272 . S
O176 Zn166 1.910 . S
O176 C182 1.231 . S
C177 O161 1.225 . S
C177 O183 1.298 . S
C178 O167 1.226 . S
C178 O168 1.307 . S
C179 O171 1.303 . S
C179 O172 1.247 . S
C180 O169 1.253 . S
C180 O170 1.283 . S
C181 O173 1.304 . S
C181 O175 1.272 . S
C182 O174 1.311 . S
C182 O176 1.231 . S
O183 Zn165 1.953 . S
O183 C177 1.298 . S
Co184 O187 2.042 . S
Co184 O194 2.264 . S
Co184 O213 2.286 . S
Co184 O214 2.069 . S
Co184 O216 2.015 1_455 S
Co185 O187 2.122 . S
Co185 O193 2.073 . S
Co185 O194 2.327 . S
Co185 O195 1.976 1_455 S
Co186 O187 2.087 1_545 S
Co186 O189 2.087 1_455 S
Co186 O196 2.111 1_445 S
Co186 O197 2.143 . S
Co186 O201 2.111 . S
Co186 O215 2.143 1_445 S
O187 Co184 2.042 . S
O187 Co185 2.122 . S
O187 Co186 2.087 1_565 S
O187 H188 0.980 . S
H188 O187 0.980 . S
O189 Co186 2.087 1_655 S
O189 Co190 2.042 . S
O189 Co191 2.122 . S
O189 H192 0.980 . S
Co190 O189 2.042 . S
Co190 O198 2.286 . S
Co190 O199 2.069 . S
Co190 O200 2.015 1_655 S
Co190 O203 2.264 . S
Co191 O189 2.122 . S
Co191 O202 1.976 1_655 S
Co191 O203 2.327 . S
Co191 O204 2.073 . S
H192 O189 0.980 . S
O193 Co185 2.073 . S
O193 C208 1.245 . S
O194 Co184 2.264 . S
O194 Co185 2.327 . S
O194 C208 1.257 . S
O195 Co185 1.976 1_655 S
O195 C207 1.251 . S
O196 Co186 2.111 1_665 S
O196 C207 1.274 . S
O197 Co186 2.143 . S
O197 C210 1.246 . S
O198 Co190 2.286 . S
O198 C209 1.259 . S
O199 Co190 2.069 . S
O199 C209 1.289 . S
O200 Co190 2.015 1_455 S
O200 C210 1.257 . S
O201 Co186 2.111 . S
O201 C211 1.274 . S
O202 Co191 1.976 1_455 S
O202 C211 1.251 . S
O203 Co190 2.264 . S
O203 Co191 2.327 . S
O203 C212 1.257 . S
O204 Co191 2.073 . S
O204 C212 1.245 . S
C205 O213 1.259 . S
C205 O214 1.289 . S
C206 O215 1.246 . S
C206 O216 1.257 . S
C207 O195 1.251 . S
C207 O196 1.274 . S
C208 O193 1.245 . S
C208 O194 1.257 . S
C209 O198 1.259 . S
C209 O199 1.289 . S
C210 O197 1.246 . S
C210 O200 1.257 . S
C211 O201 1.274 . S
C211 O202 1.251 . S
C212 O203 1.257 . S
C212 O204 1.245 . S
O213 Co184 2.286 . S
O213 C205 1.259 . S
O214 Co184 2.069 . S
O214 C205 1.289 . S
O215 Co186 2.143 1_665 S
O215 C206 1.246 . S
O216 Co184 2.015 1_655 S
O216 C206 1.257 . S
Co217 O220 2.042 1_556 S
Co217 O227 2.264 1_556 S
Co217 O246 2.286 . S
Co217 O247 2.069 . S
Co217 O249 2.015 . S
Co218 O220 2.122 . S
Co218 O226 2.073 . S
Co218 O227 2.327 . S
Co218 O228 1.976 . S
Co219 O220 2.087 1_545 S
Co219 O222 2.087 . S
Co219 O229 2.111 1_545 S
Co219 O230 2.143 . S
Co219 O234 2.111 1_554 S
Co219 O248 2.143 1_544 S
O220 Co217 2.042 1_554 S
O220 Co218 2.122 . S
O220 Co219 2.087 1_565 S
O220 H221 0.980 . S
H221 O220 0.980 . S
O222 Co219 2.087 . S
O222 Co223 2.042 . S
O222 Co224 2.122 1_554 S
O222 H225 0.980 . S
Co223 O222 2.042 . S
Co223 O231 2.286 . S
Co223 O232 2.069 . S
Co223 O233 2.015 . S
Co223 O236 2.264 1_554 S
Co224 O222 2.122 1_556 S
Co224 O235 1.976 . S
Co224 O236 2.327 . S
Co224 O237 2.073 . S
H225 O222 0.980 . S
O226 Co218 2.073 . S
O226 C241 1.245 . S
O227 Co217 2.264 1_554 S
O227 Co218 2.327 . S
O227 C241 1.257 . S
O228 Co218 1.976 . S
O228 C240 1.251 . S
O229 Co219 2.111 1_565 S
O229 C240 1.274 . S
O230 Co219 2.143 . S
O230 C243 1.246 . S
O231 Co223 2.286 . S
O231 C242 1.259 . S
O232 Co223 2.069 . S
O232 C242 1.289 . S
O233 Co223 2.015 . S
O233 C243 1.257 . S
O234 Co219 2.111 1_556 S
O234 C244 1.274 . S
O235 Co224 1.976 . S
O235 C244 1.251 . S
O236 Co223 2.264 1_556 S
O236 Co224 2.327 . S
O236 C245 1.257 . S
O237 Co224 2.073 . S
O237 C245 1.245 . S
C238 O246 1.259 . S
C238 O247 1.289 . S
C239 O248 1.246 . S
C239 O249 1.257 . S
C240 O228 1.251 . S
C240 O229 1.274 . S
C241 O226 1.245 . S
C241 O227 1.257 . S
C242 O231 1.259 . S
C242 O232 1.289 . S
C243 O230 1.246 . S
C243 O233 1.257 . S
C244 O234 1.274 . S
C244 O235 1.251 . S
C245 O236 1.257 . S
C245 O237 1.245 . S
O246 Co217 2.286 . S
O246 C238 1.259 . S
O247 Co217 2.069 . S
O247 C238 1.289 . S
O248 Co219 2.143 1_566 S
O248 C239 1.246 . S
O249 Co217 2.015 . S
O249 C239 1.257 . S
Co250 O253 2.042 1_556 S
Co250 O260 2.264 1_556 S
Co250 O279 2.286 . S
Co250 O280 2.069 . S
Co250 O282 2.015 1_455 S
Co251 O253 2.122 . S
Co251 O259 2.073 . S
Co251 O260 2.327 . S
Co251 O261 1.976 1_455 S
Co252 O253 2.087 . S
Co252 O255 2.087 1_454 S
Co252 O262 2.111 1_455 S
Co252 O263 2.143 . S
Co252 O267 2.111 1_554 S
Co252 O281 2.143 1_454 S
O253 Co250 2.042 1_554 S
O253 Co251 2.122 . S
O253 Co252 2.087 . S
O253 H254 0.980 . S
H254 O253 0.980 . S
O255 Co252 2.087 1_656 S
O255 Co256 2.042 1_556 S
O255 Co257 2.122 . S
O255 H258 0.980 . S
Co256 O255 2.042 1_554 S
Co256 O264 2.286 . S
Co256 O265 2.069 . S
Co256 O266 2.015 1_655 S
Co256 O269 2.264 1_554 S
Co257 O255 2.122 . S
Co257 O268 1.976 1_655 S
Co257 O269 2.327 . S
Co257 O270 2.073 . S
H258 O255 0.980 . S
O259 Co251 2.073 . S
O259 C274 1.245 . S
O260 Co250 2.264 1_554 S
O260 Co251 2.327 . S
O260 C274 1.257 . S
O261 Co251 1.976 1_655 S
O261 C273 1.251 . S
O262 Co252 2.111 1_655 S
O262 C273 1.274 . S
O263 Co252 2.143 . S
O263 C276 1.246 . S
O264 Co256 2.286 . S
O264 C275 1.259 . S
O265 Co256 2.069 . S
O265 C275 1.289 . S
O266 Co256 2.015 1_455 S
O266 C276 1.257 . S
O267 Co252 2.111 1_556 S
O267 C277 1.274 . S
O268 Co257 1.976 1_455 S
O268 C277 1.251 . S
O269 Co256 2.264 1_556 S
O269 Co257 2.327 . S
O269 C278 1.257 . S
O270 Co257 2.073 . S
O270 C278 1.245 . S
C271 O279 1.259 . S
C271 O280 1.289 . S
C272 O281 1.246 . S
C272 O282 1.257 . S
C273 O261 1.251 . S
C273 O262 1.274 . S
C274 O259 1.245 . S
C274 O260 1.257 . S
C275 O264 1.259 . S
C275 O265 1.289 . S
C276 O263 1.246 . S
C276 O266 1.257 . S
C277 O267 1.274 . S
C277 O268 1.251 . S
C278 O269 1.257 . S
C278 O270 1.245 . S
O279 Co250 2.286 . S
O279 C271 1.259 . S
O280 Co250 2.069 . S
O280 C271 1.289 . S
O281 Co252 2.143 1_656 S
O281 C272 1.246 . S
O282 Co250 2.015 1_655 S
O282 C272 1.257 . S
Co283 O286 2.042 1_556 S
Co283 O293 2.264 1_556 S
Co283 O312 2.286 . S
Co283 O313 2.069 . S
Co283 O315 2.015 . S
Co284 O286 2.122 . S
Co284 O292 2.073 . S
Co284 O293 2.327 . S
Co284 O294 1.976 . S
Co285 O286 2.087 . S
Co285 O288 2.087 1_554 S
Co285 O295 2.111 . S
Co285 O296 2.143 . S
Co285 O300 2.111 1_554 S
Co285 O314 2.143 1_554 S
O286 Co283 2.042 1_554 S
O286 Co284 2.122 . S
O286 Co285 2.087 . S
O286 H287 0.980 . S
H287 O286 0.980 . S
O288 Co285 2.087 1_556 S
O288 Co289 2.042 1_556 S
O288 Co290 2.122 . S
O288 H291 0.980 . S
Co289 O288 2.042 1_554 S
Co289 O297 2.286 . S
Co289 O298 2.069 . S
Co289 O299 2.015 . S
Co289 O302 2.264 1_554 S
Co290 O288 2.122 . S
Co290 O301 1.976 . S
Co290 O302 2.327 . S
Co290 O303 2.073 . S
H291 O288 0.980 . S
O292 Co284 2.073 . S
O292 C307 1.245 . S
O293 Co283 2.264 1_554 S
O293 Co284 2.327 . S
O293 C307 1.257 . S
O294 Co284 1.976 . S
O294 C306 1.251 . S
O295 Co285 2.111 . S
O295 C306 1.274 . S
O296 Co285 2.143 . S
O296 C309 1.246 . S
O297 Co289 2.286 . S
O297 C308 1.259 . S
O298 Co289 2.069 . S
O298 C308 1.289 . S
O299 Co289 2.015 . S
O299 C309 1.257 . S
O300 Co285 2.111 1_556 S
O300 C310 1.274 . S
O301 Co290 1.976 . S
O301 C310 1.251 . S
O302 Co289 2.264 1_556 S
O302 Co290 2.327 . S
O302 C311 1.257 . S
O303 Co290 2.073 . S
O303 C311 1.245 . S
C304 O312 1.259 . S
C304 O313 1.289 . S
C305 O314 1.246 . S
C305 O315 1.257 . S
C306 O294 1.251 . S
C306 O295 1.274 . S
C307 O292 1.245 . S
C307 O293 1.257 . S
C308 O297 1.259 . S
C308 O298 1.289 . S
C309 O296 1.246 . S
C309 O299 1.257 . S
C310 O300 1.274 . S
C310 O301 1.251 . S
C311 O302 1.257 . S
C311 O303 1.245 . S
O312 Co283 2.286 . S
O312 C304 1.259 . S
O313 Co283 2.069 . S
O313 C304 1.289 . S
O314 Co285 2.143 1_556 S
O314 C305 1.246 . S
O315 Co283 2.015 . S
O315 C305 1.257 . S
Co316 O319 2.042 . S
Co316 O326 2.264 . S
Co316 O345 2.286 . S
Co316 O346 2.069 . S
Co316 O348 2.015 . S
Co317 O319 2.122 . S
Co317 O325 2.073 . S
Co317 O326 2.327 . S
Co317 O327 1.976 . S
Co318 O319 2.087 . S
Co318 O321 2.087 1_455 S
Co318 O328 2.111 . S
Co318 O329 2.143 1_455 S
Co318 O333 2.111 1_455 S
Co318 O347 2.143 . S
O319 Co316 2.042 . S
O319 Co317 2.122 . S
O319 Co318 2.087 . S
O319 H320 0.980 . S
H320 O319 0.980 . S
O321 Co318 2.087 1_655 S
O321 Co322 2.042 . S
O321 Co323 2.122 . S
O321 H324 0.980 . S
Co322 O321 2.042 . S
Co322 O330 2.286 . S
Co322 O331 2.069 . S
Co322 O332 2.015 . S
Co322 O335 2.264 . S
Co323 O321 2.122 . S
Co323 O334 1.976 . S
Co323 O335 2.327 . S
Co323 O336 2.073 . S
H324 O321 0.980 . S
O325 Co317 2.073 . S
O325 C340 1.245 . S
O326 Co316 2.264 . S
O326 Co317 2.327 . S
O326 C340 1.257 . S
O327 Co317 1.976 . S
O327 C339 1.251 . S
O328 Co318 2.111 . S
O328 C339 1.274 . S
O329 Co318 2.143 1_655 S
O329 C342 1.246 . S
O330 Co322 2.286 . S
O330 C341 1.259 . S
O331 Co322 2.069 . S
O331 C341 1.289 . S
O332 Co322 2.015 . S
O332 C342 1.257 . S
O333 Co318 2.111 1_655 S
O333 C343 1.274 . S
O334 Co323 1.976 . S
O334 C343 1.251 . S
O335 Co322 2.264 . S
O335 Co323 2.327 . S
O335 C344 1.257 . S
O336 Co323 2.073 . S
O336 C344 1.245 . S
C337 O345 1.259 . S
C337 O346 1.289 . S
C338 O347 1.246 . S
C338 O348 1.257 . S
C339 O327 1.251 . S
C339 O328 1.274 . S
C340 O325 1.245 . S
C340 O326 1.257 . S
C341 O330 1.259 . S
C341 O331 1.289 . S
C342 O329 1.246 . S
C342 O332 1.257 . S
C343 O333 1.274 . S
C343 O334 1.251 . S
C344 O335 1.257 . S
C344 O336 1.245 . S
O345 Co316 2.286 . S
O345 C337 1.259 . S
O346 Co316 2.069 . S
O346 C337 1.289 . S
O347 Co318 2.143 . S
O347 C338 1.246 . S
O348 Co316 2.015 . S
O348 C338 1.257 . S
Co349 O352 2.042 . S
Co349 O359 2.264 . S
Co349 O378 2.286 . S
Co349 O379 2.069 . S
Co349 O381 2.015 1_565 S
Co350 O352 2.122 . S
Co350 O358 2.073 . S
Co350 O359 2.327 . S
Co350 O360 1.976 1_565 S
Co351 O352 2.087 1_545 S
Co351 O354 2.087 . S
Co351 O361 2.111 . S
Co351 O362 2.143 1_545 S
Co351 O366 2.111 1_545 S
Co351 O380 2.143 . S
O352 Co349 2.042 . S
O352 Co350 2.122 . S
O352 Co351 2.087 1_565 S
O352 H353 0.980 . S
H353 O352 0.980 . S
O354 Co351 2.087 . S
O354 Co355 2.042 . S
O354 Co356 2.122 . S
O354 H357 0.980 . S
Co355 O354 2.042 . S
Co355 O363 2.286 . S
Co355 O364 2.069 . S
Co355 O365 2.015 1_545 S
Co355 O368 2.264 . S
Co356 O354 2.122 . S
Co356 O367 1.976 1_545 S
Co356 O368 2.327 . S
Co356 O369 2.073 . S
H357 O354 0.980 . S
O358 Co350 2.073 . S
O358 C373 1.245 . S
O359 Co349 2.264 . S
O359 Co350 2.327 . S
O359 C373 1.257 . S
O360 Co350 1.976 1_545 S
O360 C372 1.251 . S
O361 Co351 2.111 . S
O361 C372 1.274 . S
O362 Co351 2.143 1_565 S
O362 C375 1.246 . S
O363 Co355 2.286 . S
O363 C374 1.259 . S
O364 Co355 2.069 . S
O364 C374 1.289 . S
O365 Co355 2.015 1_565 S
O365 C375 1.257 . S
O366 Co351 2.111 1_565 S
O366 C376 1.274 . S
O367 Co356 1.976 1_565 S
O367 C376 1.251 . S
O368 Co355 2.264 . S
O368 Co356 2.327 . S
O368 C377 1.257 . S
O369 Co356 2.073 . S
O369 C377 1.245 . S
C370 O378 1.259 . S
C370 O379 1.289 . S
C371 O380 1.246 . S
C371 O381 1.257 . S
C372 O360 1.251 . S
C372 O361 1.274 . S
C373 O358 1.245 . S
C373 O359 1.257 . S
C374 O363 1.259 . S
C374 O364 1.289 . S
C375 O362 1.246 . S
C375 O365 1.257 . S
C376 O366 1.274 . S
C376 O367 1.251 . S
C377 O368 1.257 . S
C377 O369 1.245 . S
O378 Co349 2.286 . S
O378 C370 1.259 . S
O379 Co349 2.069 . S
O379 C370 1.289 . S
O380 Co351 2.143 . S
O380 C371 1.246 . S
O381 Co349 2.015 1_545 S
O381 C371 1.257 . S
C382 C383 1.349 . S
C382 C384 1.327 . S
C382 H407 0.950 . S
C383 C382 1.349 . S
C383 C399 1.349 . S
C384 C382 1.327 . S
C384 C403 1.429 . S
C384 H408 0.950 . S
C385 C402 1.574 . S
C385 C404 1.368 . S
C385 H409 0.949 . S
H386 C390 0.949 . S
C387 C388 1.349 . S
C387 C389 1.327 . S
C387 H410 0.950 . S
C388 C387 1.349 . S
C388 C400 1.349 . S
C389 C387 1.327 . S
C389 C405 1.429 . S
C389 H411 0.950 . S
C390 H386 0.949 . S
C390 C398 1.574 . S
C390 C406 1.368 . S
H391 C399 0.950 . S
H392 C397 0.950 . S
H393 C398 0.949 . S
H394 C400 0.950 . S
H395 C401 0.950 . S
H396 C402 0.949 . S
C397 H392 0.950 . S
C397 C399 1.327 . S
C397 C403 1.429 . S
C398 C390 1.574 . S
C398 H393 0.949 . S
C398 C404 1.368 . S
C399 C383 1.349 . S
C399 H391 0.950 . S
C399 C397 1.327 . S
C400 C388 1.349 . S
C400 H394 0.950 . S
C400 C401 1.327 . S
C401 H395 0.950 . S
C401 C400 1.327 . S
C401 C405 1.429 . S
C402 C385 1.574 . S
C402 H396 0.949 . S
C402 C406 1.368 . S
C403 C384 1.429 . S
C403 C397 1.429 . S
C403 C404 1.523 . S
C404 C385 1.368 . S
C404 C398 1.368 . S
C404 C403 1.523 . S
C405 C389 1.429 . S
C405 C401 1.429 . S
C405 C406 1.523 . S
C406 C390 1.368 . S
C406 C402 1.368 . S
C406 C405 1.523 . S
H407 C382 0.950 . S
H408 C384 0.950 . S
H409 C385 0.949 . S
H410 C387 0.950 . S
H411 C389 0.950 . S
C412 C413 1.349 . S
C412 C414 1.327 . S
C412 H437 0.950 . S
C413 C412 1.349 . S
C413 C429 1.349 . S
C414 C412 1.327 . S
C414 C433 1.429 . S
C414 H438 0.950 . S
C415 C432 1.574 . S
C415 C434 1.368 . S
C415 H439 0.949 . S
H416 C420 0.949 . S
C417 C418 1.349 . S
C417 C419 1.327 . S
C417 H440 0.950 . S
C418 C417 1.349 . S
C418 C430 1.349 . S
C419 C417 1.327 . S
C419 C435 1.429 . S
C419 H441 0.950 . S
C420 H416 0.949 . S
C420 C428 1.574 . S
C420 C436 1.368 . S
H421 C429 0.950 . S
H422 C427 0.950 . S
H423 C428 0.949 . S
H424 C430 0.950 . S
H425 C431 0.950 . S
H426 C432 0.949 . S
C427 H422 0.950 . S
C427 C429 1.327 . S
C427 C433 1.429 . S
C428 C420 1.574 . S
C428 H423 0.949 . S
C428 C434 1.368 . S
C429 C413 1.349 . S
C429 H421 0.950 . S
C429 C427 1.327 . S
C430 C418 1.349 . S
C430 H424 0.950 . S
C430 C431 1.327 . S
C431 H425 0.950 . S
C431 C430 1.327 . S
C431 C435 1.429 . S
C432 C415 1.574 . S
C432 H426 0.949 . S
C432 C436 1.368 . S
C433 C414 1.429 . S
C433 C427 1.429 . S
C433 C434 1.523 . S
C434 C415 1.368 . S
C434 C428 1.368 . S
C434 C433 1.523 . S
C435 C419 1.429 . S
C435 C431 1.429 . S
C435 C436 1.523 . S
C436 C420 1.368 . S
C436 C432 1.368 . S
C436 C435 1.523 . S
H437 C412 0.950 . S
H438 C414 0.950 . S
H439 C415 0.949 . S
H440 C417 0.950 . S
H441 C419 0.950 . S
C442 C443 1.349 . S
C442 C444 1.327 . S
C442 H467 0.950 . S
C443 C442 1.349 . S
C443 C459 1.349 . S
C444 C442 1.327 . S
C444 C463 1.429 . S
C444 H468 0.950 . S
C445 C462 1.574 . S
C445 C464 1.368 . S
C445 H469 0.949 . S
H446 C450 0.949 . S
C447 C448 1.349 . S
C447 C449 1.327 . S
C447 H470 0.950 . S
C448 C447 1.349 . S
C448 C460 1.349 . S
C449 C447 1.327 . S
C449 C465 1.429 . S
C449 H471 0.950 . S
C450 H446 0.949 . S
C450 C458 1.574 . S
C450 C466 1.368 . S
H451 C459 0.950 . S
H452 C457 0.950 . S
H453 C458 0.949 . S
H454 C460 0.950 . S
H455 C461 0.950 . S
H456 C462 0.949 . S
C457 H452 0.950 . S
C457 C459 1.327 . S
C457 C463 1.429 . S
C458 C450 1.574 . S
C458 H453 0.949 . S
C458 C464 1.368 . S
C459 C443 1.349 . S
C459 H451 0.950 . S
C459 C457 1.327 . S
C460 C448 1.349 . S
C460 H454 0.950 . S
C460 C461 1.327 . S
C461 H455 0.950 . S
C461 C460 1.327 . S
C461 C465 1.429 . S
C462 C445 1.574 . S
C462 H456 0.949 . S
C462 C466 1.368 . S
C463 C444 1.429 . S
C463 C457 1.429 . S
C463 C464 1.523 . S
C464 C445 1.368 . S
C464 C458 1.368 . S
C464 C463 1.523 . S
C465 C449 1.429 . S
C465 C461 1.429 . S
C465 C466 1.523 . S
C466 C450 1.368 . S
C466 C462 1.368 . S
C466 C465 1.523 . S
H467 C442 0.950 . S
H468 C444 0.950 . S
H469 C445 0.949 . S
H470 C447 0.950 . S
H471 C449 0.950 . S
C472 C473 1.349 . S
C472 C474 1.327 . S
C472 H497 0.950 . S
C473 C472 1.349 . S
C473 C489 1.349 . S
C474 C472 1.327 . S
C474 C493 1.429 . S
C474 H498 0.950 . S
C475 C492 1.574 . S
C475 C494 1.368 . S
C475 H499 0.949 . S
H476 C480 0.949 . S
C477 C478 1.349 . S
C477 C479 1.327 . S
C477 H500 0.950 . S
C478 C477 1.349 . S
C478 C490 1.349 . S
C479 C477 1.327 . S
C479 C495 1.429 . S
C479 H501 0.950 . S
C480 H476 0.949 . S
C480 C488 1.574 . S
C480 C496 1.368 . S
H481 C489 0.950 . S
H482 C487 0.950 . S
H483 C488 0.949 . S
H484 C490 0.950 . S
H485 C491 0.950 . S
H486 C492 0.949 . S
C487 H482 0.950 . S
C487 C489 1.327 . S
C487 C493 1.429 . S
C488 C480 1.574 . S
C488 H483 0.949 . S
C488 C494 1.368 . S
C489 C473 1.349 . S
C489 H481 0.950 . S
C489 C487 1.327 . S
C490 C478 1.349 . S
C490 H484 0.950 . S
C490 C491 1.327 . S
C491 H485 0.950 . S
C491 C490 1.327 . S
C491 C495 1.429 . S
C492 C475 1.574 . S
C492 H486 0.949 . S
C492 C496 1.368 . S
C493 C474 1.429 . S
C493 C487 1.429 . S
C493 C494 1.523 . S
C494 C475 1.368 . S
C494 C488 1.368 . S
C494 C493 1.523 . S
C495 C479 1.429 . S
C495 C491 1.429 . S
C495 C496 1.523 . S
C496 C480 1.368 . S
C496 C492 1.368 . S
C496 C495 1.523 . S
H497 C472 0.950 . S
H498 C474 0.950 . S
H499 C475 0.949 . S
H500 C477 0.950 . S
H501 C479 0.950 . S
C502 C503 1.349 . S
C502 C504 1.327 . S
C502 H527 0.950 . S
C503 C502 1.349 . S
C503 C519 1.349 . S
C504 C502 1.327 . S
C504 C523 1.429 . S
C504 H528 0.950 . S
C505 C522 1.574 . S
C505 C524 1.368 . S
C505 H529 0.949 . S
H506 C510 0.949 . S
C507 C508 1.349 . S
C507 C509 1.327 . S
C507 H530 0.950 . S
C508 C507 1.349 . S
C508 C520 1.349 . S
C509 C507 1.327 . S
C509 C525 1.429 . S
C509 H531 0.950 . S
C510 H506 0.949 . S
C510 C518 1.574 . S
C510 C526 1.368 . S
H511 C519 0.950 . S
H512 C517 0.950 . S
H513 C518 0.949 . S
H514 C520 0.950 . S
H515 C521 0.950 . S
H516 C522 0.949 . S
C517 H512 0.950 . S
C517 C519 1.327 . S
C517 C523 1.429 . S
C518 C510 1.574 . S
C518 H513 0.949 . S
C518 C524 1.368 . S
C519 C503 1.349 . S
C519 H511 0.950 . S
C519 C517 1.327 . S
C520 C508 1.349 . S
C520 H514 0.950 . S
C520 C521 1.327 . S
C521 H515 0.950 . S
C521 C520 1.327 . S
C521 C525 1.429 . S
C522 C505 1.574 . S
C522 H516 0.949 . S
C522 C526 1.368 . S
C523 C504 1.429 . S
C523 C517 1.429 . S
C523 C524 1.523 . S
C524 C505 1.368 . S
C524 C518 1.368 . S
C524 C523 1.523 . S
C525 C509 1.429 . S
C525 C521 1.429 . S
C525 C526 1.523 . S
C526 C510 1.368 . S
C526 C522 1.368 . S
C526 C525 1.523 . S
H527 C502 0.950 . S
H528 C504 0.950 . S
H529 C505 0.949 . S
H530 C507 0.950 . S
H531 C509 0.950 . S
C532 C533 1.349 . S
C532 C534 1.327 . S
C532 H557 0.950 . S
C533 C532 1.349 . S
C533 C549 1.349 . S
C534 C532 1.327 . S
C534 C553 1.429 . S
C534 H558 0.950 . S
C535 C552 1.574 . S
C535 C554 1.368 . S
C535 H559 0.949 . S
H536 C540 0.949 . S
C537 C538 1.349 . S
C537 C539 1.327 . S
C537 H560 0.950 . S
C538 C537 1.349 . S
C538 C550 1.349 . S
C539 C537 1.327 . S
C539 C555 1.429 . S
C539 H561 0.950 . S
C540 H536 0.949 . S
C540 C548 1.574 . S
C540 C556 1.368 . S
H541 C549 0.950 . S
H542 C547 0.950 . S
H543 C548 0.949 . S
H544 C550 0.950 . S
H545 C551 0.950 . S
H546 C552 0.949 . S
C547 H542 0.950 . S
C547 C549 1.327 . S
C547 C553 1.429 . S
C548 C540 1.574 . S
C548 H543 0.949 . S
C548 C554 1.368 . S
C549 C533 1.349 . S
C549 H541 0.950 . S
C549 C547 1.327 . S
C550 C538 1.349 . S
C550 H544 0.950 . S
C550 C551 1.327 . S
C551 H545 0.950 . S
C551 C550 1.327 . S
C551 C555 1.429 . S
C552 C535 1.574 . S
C552 H546 0.949 . S
C552 C556 1.368 . S
C553 C534 1.429 . S
C553 C547 1.429 . S
C553 C554 1.523 . S
C554 C535 1.368 . S
C554 C548 1.368 . S
C554 C553 1.523 . S
C555 C539 1.429 . S
C555 C551 1.429 . S
C555 C556 1.523 . S
C556 C540 1.368 . S
C556 C552 1.368 . S
C556 C555 1.523 . S
H557 C532 0.950 . S
H558 C534 0.950 . S
H559 C535 0.949 . S
H560 C537 0.950 . S
H561 C539 0.950 . S
C562 C563 1.349 . S
C562 C564 1.327 . S
C562 H587 0.950 . S
C563 C562 1.349 . S
C563 C579 1.349 . S
C564 C562 1.327 . S
C564 C583 1.429 . S
C564 H588 0.950 . S
C565 C582 1.574 . S
C565 C584 1.368 . S
C565 H589 0.949 . S
H566 C570 0.949 . S
C567 C568 1.349 . S
C567 C569 1.327 . S
C567 H590 0.950 . S
C568 C567 1.349 . S
C568 C580 1.349 . S
C569 C567 1.327 . S
C569 C585 1.429 . S
C569 H591 0.950 . S
C570 H566 0.949 . S
C570 C578 1.574 . S
C570 C586 1.368 . S
H571 C579 0.950 . S
H572 C577 0.950 . S
H573 C578 0.949 . S
H574 C580 0.950 . S
H575 C581 0.950 . S
H576 C582 0.949 . S
C577 H572 0.950 . S
C577 C579 1.327 . S
C577 C583 1.429 . S
C578 C570 1.574 . S
C578 H573 0.949 . S
C578 C584 1.368 . S
C579 C563 1.349 . S
C579 H571 0.950 . S
C579 C577 1.327 . S
C580 C568 1.349 . S
C580 H574 0.950 . S
C580 C581 1.327 . S
C581 H575 0.950 . S
C581 C580 1.327 . S
C581 C585 1.429 . S
C582 C565 1.574 . S
C582 H576 0.949 . S
C582 C586 1.368 . S
C583 C564 1.429 . S
C583 C577 1.429 . S
C583 C584 1.523 . S
C584 C565 1.368 . S
C584 C578 1.368 . S
C584 C583 1.523 . S
C585 C569 1.429 . S
C585 C581 1.429 . S
C585 C586 1.523 . S
C586 C570 1.368 . S
C586 C582 1.368 . S
C586 C585 1.523 . S
H587 C562 0.950 . S
H588 C564 0.950 . S
H589 C565 0.949 . S
H590 C567 0.950 . S
H591 C569 0.950 . S
C592 C593 1.349 . S
C592 C594 1.327 . S
C592 H617 0.950 . S
C593 C592 1.349 . S
C593 C609 1.349 . S
C594 C592 1.327 . S
C594 C613 1.429 . S
C594 H618 0.950 . S
C595 C612 1.574 . S
C595 C614 1.368 . S
C595 H619 0.949 . S
H596 C600 0.949 . S
C597 C598 1.349 . S
C597 C599 1.327 . S
C597 H620 0.950 . S
C598 C597 1.349 . S
C598 C610 1.349 . S
C599 C597 1.327 . S
C599 C615 1.429 . S
C599 H621 0.950 . S
C600 H596 0.949 . S
C600 C608 1.574 . S
C600 C616 1.368 . S
H601 C609 0.950 . S
H602 C607 0.950 . S
H603 C608 0.949 . S
H604 C610 0.950 . S
H605 C611 0.950 . S
H606 C612 0.949 . S
C607 H602 0.950 . S
C607 C609 1.327 . S
C607 C613 1.429 . S
C608 C600 1.574 . S
C608 H603 0.949 . S
C608 C614 1.368 . S
C609 C593 1.349 . S
C609 H601 0.950 . S
C609 C607 1.327 . S
C610 C598 1.349 . S
C610 H604 0.950 . S
C610 C611 1.327 . S
C611 H605 0.950 . S
C611 C610 1.327 . S
C611 C615 1.429 . S
C612 C595 1.574 . S
C612 H606 0.949 . S
C612 C616 1.368 . S
C613 C594 1.429 . S
C613 C607 1.429 . S
C613 C614 1.523 . S
C614 C595 1.368 . S
C614 C608 1.368 . S
C614 C613 1.523 . S
C615 C599 1.429 . S
C615 C611 1.429 . S
C615 C616 1.523 . S
C616 C600 1.368 . S
C616 C612 1.368 . S
C616 C615 1.523 . S
H617 C592 0.950 . S
H618 C594 0.950 . S
H619 C595 0.949 . S
H620 C597 0.950 . S
H621 C599 0.950 . S
C622 C623 1.349 . S
C622 C624 1.327 . S
C622 H647 0.950 . S
C623 C622 1.349 . S
C623 C639 1.349 . S
C624 C622 1.327 . S
C624 C643 1.429 . S
C624 H648 0.950 . S
C625 C642 1.574 . S
C625 C644 1.368 . S
C625 H649 0.949 . S
H626 C630 0.949 . S
C627 C628 1.349 . S
C627 C629 1.327 . S
C627 H650 0.950 . S
C628 C627 1.349 . S
C628 C640 1.349 . S
C629 C627 1.327 . S
C629 C645 1.429 . S
C629 H651 0.950 . S
C630 H626 0.949 . S
C630 C638 1.574 . S
C630 C646 1.368 . S
H631 C639 0.950 . S
H632 C637 0.950 . S
H633 C638 0.949 . S
H634 C640 0.950 . S
H635 C641 0.950 . S
H636 C642 0.949 . S
C637 H632 0.950 . S
C637 C639 1.327 . S
C637 C643 1.429 . S
C638 C630 1.574 . S
C638 H633 0.949 . S
C638 C644 1.368 . S
C639 C623 1.349 . S
C639 H631 0.950 . S
C639 C637 1.327 . S
C640 C628 1.349 . S
C640 H634 0.950 . S
C640 C641 1.327 . S
C641 H635 0.950 . S
C641 C640 1.327 . S
C641 C645 1.429 . S
C642 C625 1.574 . S
C642 H636 0.949 . S
C642 C646 1.368 . S
C643 C624 1.429 . S
C643 C637 1.429 . S
C643 C644 1.523 . S
C644 C625 1.368 . S
C644 C638 1.368 . S
C644 C643 1.523 . S
C645 C629 1.429 . S
C645 C641 1.429 . S
C645 C646 1.523 . S
C646 C630 1.368 . S
C646 C642 1.368 . S
C646 C645 1.523 . S
H647 C622 0.950 . S
H648 C624 0.950 . S
H649 C625 0.949 . S
H650 C627 0.950 . S
H651 C629 0.950 . S
C652 C653 1.349 . S
C652 C654 1.327 . S
C652 H677 0.950 . S
C653 C652 1.349 . S
C653 C669 1.349 . S
C654 C652 1.327 . S
C654 C673 1.429 . S
C654 H678 0.950 . S
C655 C672 1.574 . S
C655 C674 1.368 . S
C655 H679 0.949 . S
H656 C660 0.949 . S
C657 C658 1.349 . S
C657 C659 1.327 . S
C657 H680 0.950 . S
C658 C657 1.349 . S
C658 C670 1.349 . S
C659 C657 1.327 . S
C659 C675 1.429 . S
C659 H681 0.950 . S
C660 H656 0.949 . S
C660 C668 1.574 . S
C660 C676 1.368 . S
H661 C669 0.950 . S
H662 C667 0.950 . S
H663 C668 0.949 . S
H664 C670 0.950 . S
H665 C671 0.950 . S
H666 C672 0.949 . S
C667 H662 0.950 . S
C667 C669 1.327 . S
C667 C673 1.429 . S
C668 C660 1.574 . S
C668 H663 0.949 . S
C668 C674 1.368 . S
C669 C653 1.349 . S
C669 H661 0.950 . S
C669 C667 1.327 . S
C670 C658 1.349 . S
C670 H664 0.950 . S
C670 C671 1.327 . S
C671 H665 0.950 . S
C671 C670 1.327 . S
C671 C675 1.429 . S
C672 C655 1.574 . S
C672 H666 0.949 . S
C672 C676 1.368 . S
C673 C654 1.429 . S
C673 C667 1.429 . S
C673 C674 1.523 . S
C674 C655 1.368 . S
C674 C668 1.368 . S
C674 C673 1.523 . S
C675 C659 1.429 . S
C675 C671 1.429 . S
C675 C676 1.523 . S
C676 C660 1.368 . S
C676 C672 1.368 . S
C676 C675 1.523 . S
H677 C652 0.950 . S
H678 C654 0.950 . S
H679 C655 0.949 . S
H680 C657 0.950 . S
H681 C659 0.950 . S
C682 C683 1.349 . S
C682 C684 1.327 . S
C682 H707 0.950 . S
C683 C682 1.349 . S
C683 C699 1.349 . S
C684 C682 1.327 . S
C684 C703 1.429 . S
C684 H708 0.950 . S
C685 C702 1.574 . S
C685 C704 1.368 . S
C685 H709 0.949 . S
H686 C690 0.949 . S
C687 C688 1.349 . S
C687 C689 1.327 . S
C687 H710 0.950 . S
C688 C687 1.349 . S
C688 C700 1.349 . S
C689 C687 1.327 . S
C689 C705 1.429 . S
C689 H711 0.950 . S
C690 H686 0.949 . S
C690 C698 1.574 . S
C690 C706 1.368 . S
H691 C699 0.950 . S
H692 C697 0.950 . S
H693 C698 0.949 . S
H694 C700 0.950 . S
H695 C701 0.950 . S
H696 C702 0.949 . S
C697 H692 0.950 . S
C697 C699 1.327 . S
C697 C703 1.429 . S
C698 C690 1.574 . S
C698 H693 0.949 . S
C698 C704 1.368 . S
C699 C683 1.349 . S
C699 H691 0.950 . S
C699 C697 1.327 . S
C700 C688 1.349 . S
C700 H694 0.950 . S
C700 C701 1.327 . S
C701 H695 0.950 . S
C701 C700 1.327 . S
C701 C705 1.429 . S
C702 C685 1.574 . S
C702 H696 0.949 . S
C702 C706 1.368 . S
C703 C684 1.429 . S
C703 C697 1.429 . S
C703 C704 1.523 . S
C704 C685 1.368 . S
C704 C698 1.368 . S
C704 C703 1.523 . S
C705 C689 1.429 . S
C705 C701 1.429 . S
C705 C706 1.523 . S
C706 C690 1.368 . S
C706 C702 1.368 . S
C706 C705 1.523 . S
H707 C682 0.950 . S
H708 C684 0.950 . S
H709 C685 0.949 . S
H710 C687 0.950 . S
H711 C689 0.950 . S
C712 C713 1.349 . S
C712 C714 1.327 . S
C712 H737 0.950 . S
C713 C712 1.349 . S
C713 C729 1.349 . S
C714 C712 1.327 . S
C714 C733 1.429 . S
C714 H738 0.950 . S
C715 C732 1.574 . S
C715 C734 1.368 . S
C715 H739 0.949 . S
H716 C720 0.949 . S
C717 C718 1.349 . S
C717 C719 1.327 . S
C717 H740 0.950 . S
C718 C717 1.349 . S
C718 C730 1.349 . S
C719 C717 1.327 . S
C719 C735 1.429 . S
C719 H741 0.950 . S
C720 H716 0.949 . S
C720 C728 1.574 . S
C720 C736 1.368 . S
H721 C729 0.950 . S
H722 C727 0.950 . S
H723 C728 0.949 . S
H724 C730 0.950 . S
H725 C731 0.950 . S
H726 C732 0.949 . S
C727 H722 0.950 . S
C727 C729 1.327 . S
C727 C733 1.429 . S
C728 C720 1.574 . S
C728 H723 0.949 . S
C728 C734 1.368 . S
C729 C713 1.349 . S
C729 H721 0.950 . S
C729 C727 1.327 . S
C730 C718 1.349 . S
C730 H724 0.950 . S
C730 C731 1.327 . S
C731 H725 0.950 . S
C731 C730 1.327 . S
C731 C735 1.429 . S
C732 C715 1.574 . S
C732 H726 0.949 . S
C732 C736 1.368 . S
C733 C714 1.429 . S
C733 C727 1.429 . S
C733 C734 1.523 . S
C734 C715 1.368 . S
C734 C728 1.368 . S
C734 C733 1.523 . S
C735 C719 1.429 . S
C735 C731 1.429 . S
C735 C736 1.523 . S
C736 C720 1.368 . S
C736 C732 1.368 . S
C736 C735 1.523 . S
H737 C712 0.950 . S
H738 C714 0.950 . S
H739 C715 0.949 . S
H740 C717 0.950 . S
H741 C719 0.950 . S
C742 C743 1.349 . S
C742 C744 1.327 . S
C742 H767 0.950 . S
C743 C742 1.349 . S
C743 C759 1.349 . S
C744 C742 1.327 . S
C744 C763 1.429 . S
C744 H768 0.950 . S
C745 C762 1.574 . S
C745 C764 1.368 . S
C745 H769 0.949 . S
H746 C750 0.949 . S
C747 C748 1.349 . S
C747 C749 1.327 . S
C747 H770 0.950 . S
C748 C747 1.349 . S
C748 C760 1.349 . S
C749 C747 1.327 . S
C749 C765 1.429 . S
C749 H771 0.950 . S
C750 H746 0.949 . S
C750 C758 1.574 . S
C750 C766 1.368 . S
H751 C759 0.950 . S
H752 C757 0.950 . S
H753 C758 0.949 . S
H754 C760 0.950 . S
H755 C761 0.950 . S
H756 C762 0.949 . S
C757 H752 0.950 . S
C757 C759 1.327 . S
C757 C763 1.429 . S
C758 C750 1.574 . S
C758 H753 0.949 . S
C758 C764 1.368 . S
C759 C743 1.349 . S
C759 H751 0.950 . S
C759 C757 1.327 . S
C760 C748 1.349 . S
C760 H754 0.950 . S
C760 C761 1.327 . S
C761 H755 0.950 . S
C761 C760 1.327 . S
C761 C765 1.429 . S
C762 C745 1.574 . S
C762 H756 0.949 . S
C762 C766 1.368 . S
C763 C744 1.429 . S
C763 C757 1.429 . S
C763 C764 1.523 . S
C764 C745 1.368 . S
C764 C758 1.368 . S
C764 C763 1.523 . S
C765 C749 1.429 . S
C765 C761 1.429 . S
C765 C766 1.523 . S
C766 C750 1.368 . S
C766 C762 1.368 . S
C766 C765 1.523 . S
H767 C742 0.950 . S
H768 C744 0.950 . S
H769 C745 0.949 . S
H770 C747 0.950 . S
H771 C749 0.950 . S
C772 C773 1.349 . S
C772 C774 1.327 . S
C772 H797 0.950 . S
C773 C772 1.349 . S
C773 C789 1.349 . S
C774 C772 1.327 . S
C774 C793 1.429 . S
C774 H798 0.950 . S
C775 C792 1.574 . S
C775 C794 1.368 . S
C775 H799 0.949 . S
H776 C780 0.949 . S
C777 C778 1.349 . S
C777 C779 1.327 . S
C777 H800 0.950 . S
C778 C777 1.349 . S
C778 C790 1.349 . S
C779 C777 1.327 . S
C779 C795 1.429 . S
C779 H801 0.950 . S
C780 H776 0.949 . S
C780 C788 1.574 . S
C780 C796 1.368 . S
H781 C789 0.950 . S
H782 C787 0.950 . S
H783 C788 0.949 . S
H784 C790 0.950 . S
H785 C791 0.950 . S
H786 C792 0.949 . S
C787 H782 0.950 . S
C787 C789 1.327 . S
C787 C793 1.429 . S
C788 C780 1.574 . S
C788 H783 0.949 . S
C788 C794 1.368 . S
C789 C773 1.349 . S
C789 H781 0.950 . S
C789 C787 1.327 . S
C790 C778 1.349 . S
C790 H784 0.950 . S
C790 C791 1.327 . S
C791 H785 0.950 . S
C791 C790 1.327 . S
C791 C795 1.429 . S
C792 C775 1.574 . S
C792 H786 0.949 . S
C792 C796 1.368 . S
C793 C774 1.429 . S
C793 C787 1.429 . S
C793 C794 1.523 . S
C794 C775 1.368 . S
C794 C788 1.368 . S
C794 C793 1.523 . S
C795 C779 1.429 . S
C795 C791 1.429 . S
C795 C796 1.523 . S
C796 C780 1.368 . S
C796 C792 1.368 . S
C796 C795 1.523 . S
H797 C772 0.950 . S
H798 C774 0.950 . S
H799 C775 0.949 . S
H800 C777 0.950 . S
H801 C779 0.950 . S
C802 C803 1.349 . S
C802 C804 1.327 . S
C802 H827 0.950 . S
C803 C802 1.349 . S
C803 C819 1.349 . S
C804 C802 1.327 . S
C804 C823 1.429 . S
C804 H828 0.950 . S
C805 C822 1.574 . S
C805 C824 1.368 . S
C805 H829 0.949 . S
H806 C810 0.949 . S
C807 C808 1.349 . S
C807 C809 1.327 . S
C807 H830 0.950 . S
C808 C807 1.349 . S
C808 C820 1.349 . S
C809 C807 1.327 . S
C809 C825 1.429 . S
C809 H831 0.950 . S
C810 H806 0.949 . S
C810 C818 1.574 . S
C810 C826 1.368 . S
H811 C819 0.950 . S
H812 C817 0.950 . S
H813 C818 0.949 . S
H814 C820 0.950 . S
H815 C821 0.950 . S
H816 C822 0.949 . S
C817 H812 0.950 . S
C817 C819 1.327 . S
C817 C823 1.429 . S
C818 C810 1.574 . S
C818 H813 0.949 . S
C818 C824 1.368 . S
C819 C803 1.349 . S
C819 H811 0.950 . S
C819 C817 1.327 . S
C820 C808 1.349 . S
C820 H814 0.950 . S
C820 C821 1.327 . S
C821 H815 0.950 . S
C821 C820 1.327 . S
C821 C825 1.429 . S
C822 C805 1.574 . S
C822 H816 0.949 . S
C822 C826 1.368 . S
C823 C804 1.429 . S
C823 C817 1.429 . S
C823 C824 1.523 . S
C824 C805 1.368 . S
C824 C818 1.368 . S
C824 C823 1.523 . S
C825 C809 1.429 . S
C825 C821 1.429 . S
C825 C826 1.523 . S
C826 C810 1.368 . S
C826 C822 1.368 . S
C826 C825 1.523 . S
H827 C802 0.950 . S
H828 C804 0.950 . S
H829 C805 0.949 . S
H830 C807 0.950 . S
H831 C809 0.950 . S
C832 C833 1.349 . S
C832 C834 1.327 . S
C832 H857 0.950 . S
C833 C832 1.349 . S
C833 C849 1.349 . S
C834 C832 1.327 . S
C834 C853 1.429 . S
C834 H858 0.950 . S
C835 C852 1.574 . S
C835 C854 1.368 . S
C835 H859 0.949 . S
H836 C840 0.949 . S
C837 C838 1.349 . S
C837 C839 1.327 . S
C837 H860 0.950 . S
C838 C837 1.349 . S
C838 C850 1.349 . S
C839 C837 1.327 . S
C839 C855 1.429 . S
C839 H861 0.950 . S
C840 H836 0.949 . S
C840 C848 1.574 . S
C840 C856 1.368 . S
H841 C849 0.950 . S
H842 C847 0.950 . S
H843 C848 0.949 . S
H844 C850 0.950 . S
H845 C851 0.950 . S
H846 C852 0.949 . S
C847 H842 0.950 . S
C847 C849 1.327 . S
C847 C853 1.429 . S
C848 C840 1.574 . S
C848 H843 0.949 . S
C848 C854 1.368 . S
C849 C833 1.349 . S
C849 H841 0.950 . S
C849 C847 1.327 . S
C850 C838 1.349 . S
C850 H844 0.950 . S
C850 C851 1.327 . S
C851 H845 0.950 . S
C851 C850 1.327 . S
C851 C855 1.429 . S
C852 C835 1.574 . S
C852 H846 0.949 . S
C852 C856 1.368 . S
C853 C834 1.429 . S
C853 C847 1.429 . S
C853 C854 1.523 . S
C854 C835 1.368 . S
C854 C848 1.368 . S
C854 C853 1.523 . S
C855 C839 1.429 . S
C855 C851 1.429 . S
C855 C856 1.523 . S
C856 C840 1.368 . S
C856 C852 1.368 . S
C856 C855 1.523 . S
H857 C832 0.950 . S
H858 C834 0.950 . S
H859 C835 0.949 . S
H860 C837 0.950 . S
H861 C839 0.950 . S
C862 C863 1.349 . S
C862 C864 1.327 . S
C862 H887 0.950 . S
C863 C862 1.349 . S
C863 C879 1.349 . S
C864 C862 1.327 . S
C864 C883 1.429 . S
C864 H888 0.950 . S
C865 C882 1.574 . S
C865 C884 1.368 . S
C865 H889 0.949 . S
H866 C870 0.949 . S
C867 C868 1.349 . S
C867 C869 1.327 . S
C867 H890 0.950 . S
C868 C867 1.349 . S
C868 C880 1.349 . S
C869 C867 1.327 . S
C869 C885 1.429 . S
C869 H891 0.950 . S
C870 H866 0.949 . S
C870 C878 1.574 . S
C870 C886 1.368 . S
H871 C879 0.950 . S
H872 C877 0.950 . S
H873 C878 0.949 . S
H874 C880 0.950 . S
H875 C881 0.950 . S
H876 C882 0.949 . S
C877 H872 0.950 . S
C877 C879 1.327 . S
C877 C883 1.429 . S
C878 C870 1.574 . S
C878 H873 0.949 . S
C878 C884 1.368 . S
C879 C863 1.349 . S
C879 H871 0.950 . S
C879 C877 1.327 . S
C880 C868 1.349 . S
C880 H874 0.950 . S
C880 C881 1.327 . S
C881 H875 0.950 . S
C881 C880 1.327 . S
C881 C885 1.429 . S
C882 C865 1.574 . S
C882 H876 0.949 . S
C882 C886 1.368 . S
C883 C864 1.429 . S
C883 C877 1.429 . S
C883 C884 1.523 . S
C884 C865 1.368 . S
C884 C878 1.368 . S
C884 C883 1.523 . S
C885 C869 1.429 . S
C885 C881 1.429 . S
C885 C886 1.523 . S
C886 C870 1.368 . S
C886 C882 1.368 . S
C886 C885 1.523 . S
H887 C862 0.950 . S
H888 C864 0.950 . S
H889 C865 0.949 . S
H890 C867 0.950 . S
H891 C869 0.950 . S
C892 C893 1.349 . S
C892 C894 1.327 . S
C892 H917 0.950 . S
C893 C892 1.349 . S
C893 C909 1.349 . S
C894 C892 1.327 . S
C894 C913 1.429 . S
C894 H918 0.950 . S
C895 C912 1.574 . S
C895 C914 1.368 . S
C895 H919 0.949 . S
H896 C900 0.949 . S
C897 C898 1.349 . S
C897 C899 1.327 . S
C897 H920 0.950 . S
C898 C897 1.349 . S
C898 C910 1.349 . S
C899 C897 1.327 . S
C899 C915 1.429 . S
C899 H921 0.950 . S
C900 H896 0.949 . S
C900 C908 1.574 . S
C900 C916 1.368 . S
H901 C909 0.950 . S
H902 C907 0.950 . S
H903 C908 0.949 . S
H904 C910 0.950 . S
H905 C911 0.950 . S
H906 C912 0.949 . S
C907 H902 0.950 . S
C907 C909 1.327 . S
C907 C913 1.429 . S
C908 C900 1.574 . S
C908 H903 0.949 . S
C908 C914 1.368 . S
C909 C893 1.349 . S
C909 H901 0.950 . S
C909 C907 1.327 . S
C910 C898 1.349 . S
C910 H904 0.950 . S
C910 C911 1.327 . S
C911 H905 0.950 . S
C911 C910 1.327 . S
C911 C915 1.429 . S
C912 C895 1.574 . S
C912 H906 0.949 . S
C912 C916 1.368 . S
C913 C894 1.429 . S
C913 C907 1.429 . S
C913 C914 1.523 . S
C914 C895 1.368 . S
C914 C908 1.368 . S
C914 C913 1.523 . S
C915 C899 1.429 . S
C915 C911 1.429 . S
C915 C916 1.523 . S
C916 C900 1.368 . S
C916 C912 1.368 . S
C916 C915 1.523 . S
H917 C892 0.950 . S
H918 C894 0.950 . S
H919 C895 0.949 . S
H920 C897 0.950 . S
H921 C899 0.950 . S
C922 C923 1.349 . S
C922 C924 1.327 . S
C922 H947 0.950 . S
C923 C922 1.349 . S
C923 C939 1.349 . S
C924 C922 1.327 . S
C924 C943 1.429 . S
C924 H948 0.950 . S
C925 C942 1.574 . S
C925 C944 1.368 . S
C925 H949 0.949 . S
H926 C930 0.949 . S
C927 C928 1.349 . S
C927 C929 1.327 . S
C927 H950 0.950 . S
C928 C927 1.349 . S
C928 C940 1.349 . S
C929 C927 1.327 . S
C929 C945 1.429 . S
C929 H951 0.950 . S
C930 H926 0.949 . S
C930 C938 1.574 . S
C930 C946 1.368 . S
H931 C939 0.950 . S
H932 C937 0.950 . S
H933 C938 0.949 . S
H934 C940 0.950 1_554 S
H935 C941 0.950 . S
H936 C942 0.949 . S
C937 H932 0.950 . S
C937 C939 1.327 . S
C937 C943 1.429 . S
C938 C930 1.574 . S
C938 H933 0.949 . S
C938 C944 1.368 . S
C939 C923 1.349 . S
C939 H931 0.950 . S
C939 C937 1.327 . S
C940 C928 1.349 . S
C940 H934 0.950 1_556 S
C940 C941 1.327 . S
C941 H935 0.950 . S
C941 C940 1.327 . S
C941 C945 1.429 . S
C942 C925 1.574 . S
C942 H936 0.949 . S
C942 C946 1.368 . S
C943 C924 1.429 . S
C943 C937 1.429 . S
C943 C944 1.523 . S
C944 C925 1.368 . S
C944 C938 1.368 . S
C944 C943 1.523 . S
C945 C929 1.429 . S
C945 C941 1.429 . S
C945 C946 1.523 . S
C946 C930 1.368 . S
C946 C942 1.368 . S
C946 C945 1.523 . S
H947 C922 0.950 . S
H948 C924 0.950 . S
H949 C925 0.949 . S
H950 C927 0.950 . S
H951 C929 0.950 . S
C952 C953 1.349 . S
C952 C954 1.327 . S
C952 H977 0.950 . S
C953 C952 1.349 . S
C953 C969 1.349 . S
C954 C952 1.327 . S
C954 C973 1.429 . S
C954 H978 0.950 . S
C955 C972 1.574 . S
C955 C974 1.368 . S
C955 H979 0.949 . S
H956 C960 0.949 . S
C957 C958 1.349 . S
C957 C959 1.327 . S
C957 H980 0.950 . S
C958 C957 1.349 . S
C958 C970 1.349 . S
C959 C957 1.327 . S
C959 C975 1.429 . S
C959 H981 0.950 . S
C960 H956 0.949 . S
C960 C968 1.574 . S
C960 C976 1.368 . S
H961 C969 0.950 . S
H962 C967 0.950 . S
H963 C968 0.949 . S
H964 C970 0.950 . S
H965 C971 0.950 . S
H966 C972 0.949 . S
C967 H962 0.950 . S
C967 C969 1.327 . S
C967 C973 1.429 . S
C968 C960 1.574 . S
C968 H963 0.949 . S
C968 C974 1.368 . S
C969 C953 1.349 . S
C969 H961 0.950 . S
C969 C967 1.327 . S
C970 C958 1.349 . S
C970 H964 0.950 . S
C970 C971 1.327 . S
C971 H965 0.950 . S
C971 C970 1.327 . S
C971 C975 1.429 . S
C972 C955 1.574 . S
C972 H966 0.949 . S
C972 C976 1.368 . S
C973 C954 1.429 . S
C973 C967 1.429 . S
C973 C974 1.523 . S
C974 C955 1.368 . S
C974 C968 1.368 . S
C974 C973 1.523 . S
C975 C959 1.429 . S
C975 C971 1.429 . S
C975 C976 1.523 . S
C976 C960 1.368 . S
C976 C972 1.368 . S
C976 C975 1.523 . S
H977 C952 0.950 . S
H978 C954 0.950 . S
H979 C955 0.949 . S
H980 C957 0.950 . S
H981 C959 0.950 . S
C982 C983 1.349 . S
C982 C984 1.327 . S
C982 H1007 0.950 . S
C983 C982 1.349 . S
C983 C999 1.349 . S
C984 C982 1.327 . S
C984 C1003 1.429 . S
C984 H1008 0.950 . S
C985 C1002 1.574 . S
C985 C1004 1.368 . S
C985 H1009 0.949 . S
H986 C990 0.949 . S
C987 C988 1.349 . S
C987 C989 1.327 . S
C987 H1010 0.950 . S
C988 C987 1.349 . S
C988 C1000 1.349 . S
C989 C987 1.327 . S
C989 C1005 1.429 . S
C989 H1011 0.950 . S
C990 H986 0.949 . S
C990 C998 1.574 . S
C990 C1006 1.368 . S
H991 C999 0.950 . S
H992 C997 0.950 . S
H993 C998 0.949 . S
H994 C1000 0.950 1_554 S
H995 C1001 0.950 . S
H996 C1002 0.949 . S
C997 H992 0.950 . S
C997 C999 1.327 . S
C997 C1003 1.429 . S
C998 C990 1.574 . S
C998 H993 0.949 . S
C998 C1004 1.368 . S
C999 C983 1.349 . S
C999 H991 0.950 . S
C999 C997 1.327 . S
C1000 C988 1.349 . S
C1000 H994 0.950 1_556 S
C1000 C1001 1.327 . S
C1001 H995 0.950 . S
C1001 C1000 1.327 . S
C1001 C1005 1.429 . S
C1002 C985 1.574 . S
C1002 H996 0.949 . S
C1002 C1006 1.368 . S
C1003 C984 1.429 . S
C1003 C997 1.429 . S
C1003 C1004 1.523 . S
C1004 C985 1.368 . S
C1004 C998 1.368 . S
C1004 C1003 1.523 . S
C1005 C989 1.429 . S
C1005 C1001 1.429 . S
C1005 C1006 1.523 . S
C1006 C990 1.368 . S
C1006 C1002 1.368 . S
C1006 C1005 1.523 . S
H1007 C982 0.950 . S
H1008 C984 0.950 . S
H1009 C985 0.949 . S
H1010 C987 0.950 . S
H1011 C989 0.950 . S
C1012 C1013 1.349 . S
C1012 C1014 1.327 . S
C1012 H1037 0.950 . S
C1013 C1012 1.349 . S
C1013 C1029 1.349 . S
C1014 C1012 1.327 . S
C1014 C1033 1.429 . S
C1014 H1038 0.950 . S
C1015 C1032 1.574 . S
C1015 C1034 1.368 . S
C1015 H1039 0.949 . S
H1016 C1020 0.949 . S
C1017 C1018 1.349 . S
C1017 C1019 1.327 . S
C1017 H1040 0.950 . S
C1018 C1017 1.349 . S
C1018 C1030 1.349 . S
C1019 C1017 1.327 . S
C1019 C1035 1.429 . S
C1019 H1041 0.950 . S
C1020 H1016 0.949 . S
C1020 C1028 1.574 . S
C1020 C1036 1.368 . S
H1021 C1029 0.950 . S
H1022 C1027 0.950 . S
H1023 C1028 0.949 . S
H1024 C1030 0.950 . S
H1025 C1031 0.950 . S
H1026 C1032 0.949 . S
C1027 H1022 0.950 . S
C1027 C1029 1.327 . S
C1027 C1033 1.429 . S
C1028 C1020 1.574 . S
C1028 H1023 0.949 . S
C1028 C1034 1.368 . S
C1029 C1013 1.349 . S
C1029 H1021 0.950 . S
C1029 C1027 1.327 . S
C1030 C1018 1.349 . S
C1030 H1024 0.950 . S
C1030 C1031 1.327 . S
C1031 H1025 0.950 . S
C1031 C1030 1.327 . S
C1031 C1035 1.429 . S
C1032 C1015 1.574 . S
C1032 H1026 0.949 . S
C1032 C1036 1.368 . S
C1033 C1014 1.429 . S
C1033 C1027 1.429 . S
C1033 C1034 1.523 . S
C1034 C1015 1.368 . S
C1034 C1028 1.368 . S
C1034 C1033 1.523 . S
C1035 C1019 1.429 . S
C1035 C1031 1.429 . S
C1035 C1036 1.523 . S
C1036 C1020 1.368 . S
C1036 C1032 1.368 . S
C1036 C1035 1.523 . S
H1037 C1012 0.950 . S
H1038 C1014 0.950 . S
H1039 C1015 0.949 . S
H1040 C1017 0.950 . S
H1041 C1019 0.950 . S
C1042 C1043 1.349 . S
C1042 C1044 1.327 . S
C1042 H1067 0.950 . S
C1043 C1042 1.349 . S
C1043 C1059 1.349 . S
C1044 C1042 1.327 . S
C1044 C1063 1.429 . S
C1044 H1068 0.950 . S
C1045 C1062 1.574 . S
C1045 C1064 1.368 . S
C1045 H1069 0.949 . S
H1046 C1050 0.949 . S
C1047 C1048 1.349 . S
C1047 C1049 1.327 . S
C1047 H1070 0.950 . S
C1048 C1047 1.349 . S
C1048 C1060 1.349 . S
C1049 C1047 1.327 . S
C1049 C1065 1.429 . S
C1049 H1071 0.950 . S
C1050 H1046 0.949 . S
C1050 C1058 1.574 . S
C1050 C1066 1.368 . S
H1051 C1059 0.950 . S
H1052 C1057 0.950 . S
H1053 C1058 0.949 . S
H1054 C1060 0.950 . S
H1055 C1061 0.950 . S
H1056 C1062 0.949 . S
C1057 H1052 0.950 . S
C1057 C1059 1.327 . S
C1057 C1063 1.429 . S
C1058 C1050 1.574 . S
C1058 H1053 0.949 . S
C1058 C1064 1.368 . S
C1059 C1043 1.349 . S
C1059 H1051 0.950 . S
C1059 C1057 1.327 . S
C1060 C1048 1.349 . S
C1060 H1054 0.950 . S
C1060 C1061 1.327 . S
C1061 H1055 0.950 . S
C1061 C1060 1.327 . S
C1061 C1065 1.429 . S
C1062 C1045 1.574 . S
C1062 H1056 0.949 . S
C1062 C1066 1.368 . S
C1063 C1044 1.429 . S
C1063 C1057 1.429 . S
C1063 C1064 1.523 . S
C1064 C1045 1.368 . S
C1064 C1058 1.368 . S
C1064 C1063 1.523 . S
C1065 C1049 1.429 . S
C1065 C1061 1.429 . S
C1065 C1066 1.523 . S
C1066 C1050 1.368 . S
C1066 C1062 1.368 . S
C1066 C1065 1.523 . S
H1067 C1042 0.950 . S
H1068 C1044 0.950 . S
H1069 C1045 0.949 . S
H1070 C1047 0.950 . S
H1071 C1049 0.950 . S
C1072 C1073 1.349 . S
C1072 C1074 1.327 . S
C1072 H1097 0.950 . S
C1073 C1072 1.349 . S
C1073 C1089 1.349 . S
C1074 C1072 1.327 . S
C1074 C1093 1.429 . S
C1074 H1098 0.950 . S
C1075 C1092 1.574 . S
C1075 C1094 1.368 . S
C1075 H1099 0.949 . S
H1076 C1080 0.949 . S
C1077 C1078 1.349 . S
C1077 C1079 1.327 . S
C1077 H1100 0.950 . S
C1078 C1077 1.349 . S
C1078 C1090 1.349 . S
C1079 C1077 1.327 . S
C1079 C1095 1.429 . S
C1079 H1101 0.950 . S
C1080 H1076 0.949 . S
C1080 C1088 1.574 . S
C1080 C1096 1.368 . S
H1081 C1089 0.950 . S
H1082 C1087 0.950 . S
H1083 C1088 0.949 . S
H1084 C1090 0.950 . S
H1085 C1091 0.950 . S
H1086 C1092 0.949 . S
C1087 H1082 0.950 . S
C1087 C1089 1.327 . S
C1087 C1093 1.429 . S
C1088 C1080 1.574 . S
C1088 H1083 0.949 . S
C1088 C1094 1.368 . S
C1089 C1073 1.349 . S
C1089 H1081 0.950 . S
C1089 C1087 1.327 . S
C1090 C1078 1.349 . S
C1090 H1084 0.950 . S
C1090 C1091 1.327 . S
C1091 H1085 0.950 . S
C1091 C1090 1.327 . S
C1091 C1095 1.429 . S
C1092 C1075 1.574 . S
C1092 H1086 0.949 . S
C1092 C1096 1.368 . S
C1093 C1074 1.429 . S
C1093 C1087 1.429 . S
C1093 C1094 1.523 . S
C1094 C1075 1.368 . S
C1094 C1088 1.368 . S
C1094 C1093 1.523 . S
C1095 C1079 1.429 . S
C1095 C1091 1.429 . S
C1095 C1096 1.523 . S
C1096 C1080 1.368 . S
C1096 C1092 1.368 . S
C1096 C1095 1.523 . S
H1097 C1072 0.950 . S
H1098 C1074 0.950 . S
H1099 C1075 0.949 . S
H1100 C1077 0.950 . S
H1101 C1079 0.950 . S
C1102 C1103 1.349 . S
C1102 C1104 1.327 . S
C1102 H1127 0.950 . S
C1103 C1102 1.349 . S
C1103 C1119 1.349 . S
C1104 C1102 1.327 . S
C1104 C1123 1.429 . S
C1104 H1128 0.950 . S
C1105 C1122 1.574 . S
C1105 C1124 1.368 . S
C1105 H1129 0.949 . S
H1106 C1110 0.949 . S
C1107 C1108 1.349 . S
C1107 C1109 1.327 . S
C1107 H1130 0.950 . S
C1108 C1107 1.349 . S
C1108 C1120 1.349 . S
C1109 C1107 1.327 . S
C1109 C1125 1.429 . S
C1109 H1131 0.950 . S
C1110 H1106 0.949 . S
C1110 C1118 1.574 . S
C1110 C1126 1.368 . S
H1111 C1119 0.950 . S
H1112 C1117 0.950 . S
H1113 C1118 0.949 . S
H1114 C1120 0.950 . S
H1115 C1121 0.950 . S
H1116 C1122 0.949 . S
C1117 H1112 0.950 . S
C1117 C1119 1.327 . S
C1117 C1123 1.429 . S
C1118 C1110 1.574 . S
C1118 H1113 0.949 . S
C1118 C1124 1.368 . S
C1119 C1103 1.349 . S
C1119 H1111 0.950 . S
C1119 C1117 1.327 . S
C1120 C1108 1.349 . S
C1120 H1114 0.950 . S
C1120 C1121 1.327 . S
C1121 H1115 0.950 . S
C1121 C1120 1.327 . S
C1121 C1125 1.429 . S
C1122 C1105 1.574 . S
C1122 H1116 0.949 . S
C1122 C1126 1.368 . S
C1123 C1104 1.429 . S
C1123 C1117 1.429 . S
C1123 C1124 1.523 . S
C1124 C1105 1.368 . S
C1124 C1118 1.368 . S
C1124 C1123 1.523 . S
C1125 C1109 1.429 . S
C1125 C1121 1.429 . S
C1125 C1126 1.523 . S
C1126 C1110 1.368 . S
C1126 C1122 1.368 . S
C1126 C1125 1.523 . S
H1127 C1102 0.950 . S
H1128 C1104 0.950 . S
H1129 C1105 0.949 . S
H1130 C1107 0.950 . S
H1131 C1109 0.950 . S
C1132 C1133 1.349 . S
C1132 C1134 1.327 . S
C1132 H1157 0.950 . S
C1133 C1132 1.349 . S
C1133 C1149 1.349 . S
C1134 C1132 1.327 . S
C1134 C1153 1.429 . S
C1134 H1158 0.950 . S
C1135 C1152 1.574 . S
C1135 C1154 1.368 . S
C1135 H1159 0.949 . S
H1136 C1140 0.949 . S
C1137 C1138 1.349 . S
C1137 C1139 1.327 . S
C1137 H1160 0.950 . S
C1138 C1137 1.349 . S
C1138 C1150 1.349 . S
C1139 C1137 1.327 . S
C1139 C1155 1.429 . S
C1139 H1161 0.950 . S
C1140 H1136 0.949 . S
C1140 C1148 1.574 . S
C1140 C1156 1.368 . S
H1141 C1149 0.950 . S
H1142 C1147 0.950 . S
H1143 C1148 0.949 . S
H1144 C1150 0.950 . S
H1145 C1151 0.950 . S
H1146 C1152 0.949 . S
C1147 H1142 0.950 . S
C1147 C1149 1.327 . S
C1147 C1153 1.429 . S
C1148 C1140 1.574 . S
C1148 H1143 0.949 . S
C1148 C1154 1.368 . S
C1149 C1133 1.349 . S
C1149 H1141 0.950 . S
C1149 C1147 1.327 . S
C1150 C1138 1.349 . S
C1150 H1144 0.950 . S
C1150 C1151 1.327 . S
C1151 H1145 0.950 . S
C1151 C1150 1.327 . S
C1151 C1155 1.429 . S
C1152 C1135 1.574 . S
C1152 H1146 0.949 . S
C1152 C1156 1.368 . S
C1153 C1134 1.429 . S
C1153 C1147 1.429 . S
C1153 C1154 1.523 . S
C1154 C1135 1.368 . S
C1154 C1148 1.368 . S
C1154 C1153 1.523 . S
C1155 C1139 1.429 . S
C1155 C1151 1.429 . S
C1155 C1156 1.523 . S
C1156 C1140 1.368 . S
C1156 C1152 1.368 . S
C1156 C1155 1.523 . S
H1157 C1132 0.950 . S
H1158 C1134 0.950 . S
H1159 C1135 0.949 . S
H1160 C1137 0.950 . S
H1161 C1139 0.950 . S
C1162 C1163 1.349 . S
C1162 C1164 1.327 . S
C1162 H1187 0.950 . S
C1163 C1162 1.349 . S
C1163 C1179 1.349 . S
C1164 C1162 1.327 . S
C1164 C1183 1.429 . S
C1164 H1188 0.950 . S
C1165 C1182 1.574 . S
C1165 C1184 1.368 . S
C1165 H1189 0.949 . S
H1166 C1170 0.949 . S
C1167 C1168 1.349 . S
C1167 C1169 1.327 . S
C1167 H1190 0.950 . S
C1168 C1167 1.349 . S
C1168 C1180 1.349 . S
C1169 C1167 1.327 . S
C1169 C1185 1.429 . S
C1169 H1191 0.950 . S
C1170 H1166 0.949 . S
C1170 C1178 1.574 . S
C1170 C1186 1.368 . S
H1171 C1179 0.950 . S
H1172 C1177 0.950 . S
H1173 C1178 0.949 . S
H1174 C1180 0.950 . S
H1175 C1181 0.950 . S
H1176 C1182 0.949 . S
C1177 H1172 0.950 . S
C1177 C1179 1.327 . S
C1177 C1183 1.429 . S
C1178 C1170 1.574 . S
C1178 H1173 0.949 . S
C1178 C1184 1.368 . S
C1179 C1163 1.349 . S
C1179 H1171 0.950 . S
C1179 C1177 1.327 . S
C1180 C1168 1.349 . S
C1180 H1174 0.950 . S
C1180 C1181 1.327 . S
C1181 H1175 0.950 . S
C1181 C1180 1.327 . S
C1181 C1185 1.429 . S
C1182 C1165 1.574 . S
C1182 H1176 0.949 . S
C1182 C1186 1.368 . S
C1183 C1164 1.429 . S
C1183 C1177 1.429 . S
C1183 C1184 1.523 . S
C1184 C1165 1.368 . S
C1184 C1178 1.368 . S
C1184 C1183 1.523 . S
C1185 C1169 1.429 . S
C1185 C1181 1.429 . S
C1185 C1186 1.523 . S
C1186 C1170 1.368 . S
C1186 C1182 1.368 . S
C1186 C1185 1.523 . S
H1187 C1162 0.950 . S
H1188 C1164 0.950 . S
H1189 C1165 0.949 . S
H1190 C1167 0.950 . S
H1191 C1169 0.950 . S
C1192 C1193 1.349 . S
C1192 C1194 1.327 . S
C1192 H1217 0.950 . S
C1193 C1192 1.349 . S
C1193 C1209 1.349 . S
C1194 C1192 1.327 . S
C1194 C1213 1.429 . S
C1194 H1218 0.950 . S
C1195 C1212 1.574 . S
C1195 C1214 1.368 . S
C1195 H1219 0.949 . S
H1196 C1200 0.949 . S
C1197 C1198 1.349 . S
C1197 C1199 1.327 . S
C1197 H1220 0.950 . S
C1198 C1197 1.349 . S
C1198 C1210 1.349 . S
C1199 C1197 1.327 . S
C1199 C1215 1.429 . S
C1199 H1221 0.950 . S
C1200 H1196 0.949 . S
C1200 C1208 1.574 . S
C1200 C1216 1.368 . S
H1201 C1209 0.950 . S
H1202 C1207 0.950 . S
H1203 C1208 0.949 . S
H1204 C1210 0.950 . S
H1205 C1211 0.950 . S
H1206 C1212 0.949 . S
C1207 H1202 0.950 . S
C1207 C1209 1.327 . S
C1207 C1213 1.429 . S
C1208 C1200 1.574 . S
C1208 H1203 0.949 . S
C1208 C1214 1.368 . S
C1209 C1193 1.349 . S
C1209 H1201 0.950 . S
C1209 C1207 1.327 . S
C1210 C1198 1.349 . S
C1210 H1204 0.950 . S
C1210 C1211 1.327 . S
C1211 H1205 0.950 . S
C1211 C1210 1.327 . S
C1211 C1215 1.429 . S
C1212 C1195 1.574 . S
C1212 H1206 0.949 . S
C1212 C1216 1.368 . S
C1213 C1194 1.429 . S
C1213 C1207 1.429 . S
C1213 C1214 1.523 . S
C1214 C1195 1.368 . S
C1214 C1208 1.368 . S
C1214 C1213 1.523 . S
C1215 C1199 1.429 . S
C1215 C1211 1.429 . S
C1215 C1216 1.523 . S
C1216 C1200 1.368 . S
C1216 C1212 1.368 . S
C1216 C1215 1.523 . S
H1217 C1192 0.950 . S
H1218 C1194 0.950 . S
H1219 C1195 0.949 . S
H1220 C1197 0.950 . S
H1221 C1199 0.950 . S
C1222 C1223 1.349 . S
C1222 C1224 1.327 . S
C1222 H1247 0.950 . S
C1223 C1222 1.349 . S
C1223 C1239 1.349 . S
C1224 C1222 1.327 . S
C1224 C1243 1.429 . S
C1224 H1248 0.950 . S
C1225 C1242 1.574 . S
C1225 C1244 1.368 . S
C1225 H1249 0.949 . S
H1226 C1230 0.949 . S
C1227 C1228 1.349 . S
C1227 C1229 1.327 . S
C1227 H1250 0.950 . S
C1228 C1227 1.349 . S
C1228 C1240 1.349 . S
C1229 C1227 1.327 . S
C1229 C1245 1.429 . S
C1229 H1251 0.950 . S
C1230 H1226 0.949 . S
C1230 C1238 1.574 . S
C1230 C1246 1.368 . S
H1231 C1239 0.950 . S
H1232 C1237 0.950 . S
H1233 C1238 0.949 . S
H1234 C1240 0.950 . S
H1235 C1241 0.950 . S
H1236 C1242 0.949 . S
C1237 H1232 0.950 . S
C1237 C1239 1.327 . S
C1237 C1243 1.429 . S
C1238 C1230 1.574 . S
C1238 H1233 0.949 . S
C1238 C1244 1.368 . S
C1239 C1223 1.349 . S
C1239 H1231 0.950 . S
C1239 C1237 1.327 . S
C1240 C1228 1.349 . S
C1240 H1234 0.950 . S
C1240 C1241 1.327 . S
C1241 H1235 0.950 . S
C1241 C1240 1.327 . S
C1241 C1245 1.429 . S
C1242 C1225 1.574 . S
C1242 H1236 0.949 . S
C1242 C1246 1.368 . S
C1243 C1224 1.429 . S
C1243 C1237 1.429 . S
C1243 C1244 1.523 . S
C1244 C1225 1.368 . S
C1244 C1238 1.368 . S
C1244 C1243 1.523 . S
C1245 C1229 1.429 . S
C1245 C1241 1.429 . S
C1245 C1246 1.523 . S
C1246 C1230 1.368 . S
C1246 C1242 1.368 . S
C1246 C1245 1.523 . S
H1247 C1222 0.950 . S
H1248 C1224 0.950 . S
H1249 C1225 0.949 . S
H1250 C1227 0.950 . S
H1251 C1229 0.950 . S
C1252 C1253 1.349 . S
C1252 C1254 1.327 . S
C1252 H1277 0.950 . S
C1253 C1252 1.349 . S
C1253 C1269 1.349 . S
C1254 C1252 1.327 . S
C1254 C1273 1.429 . S
C1254 H1278 0.950 . S
C1255 C1272 1.574 . S
C1255 C1274 1.368 . S
C1255 H1279 0.949 . S
H1256 C1260 0.949 . S
C1257 C1258 1.349 . S
C1257 C1259 1.327 . S
C1257 H1280 0.950 . S
C1258 C1257 1.349 . S
C1258 C1270 1.349 . S
C1259 C1257 1.327 . S
C1259 C1275 1.429 . S
C1259 H1281 0.950 . S
C1260 H1256 0.949 . S
C1260 C1268 1.574 . S
C1260 C1276 1.368 . S
H1261 C1269 0.950 . S
H1262 C1267 0.950 . S
H1263 C1268 0.949 . S
H1264 C1270 0.950 . S
H1265 C1271 0.950 . S
H1266 C1272 0.949 . S
C1267 H1262 0.950 . S
C1267 C1269 1.327 . S
C1267 C1273 1.429 . S
C1268 C1260 1.574 . S
C1268 H1263 0.949 . S
C1268 C1274 1.368 . S
C1269 C1253 1.349 . S
C1269 H1261 0.950 . S
C1269 C1267 1.327 . S
C1270 C1258 1.349 . S
C1270 H1264 0.950 . S
C1270 C1271 1.327 . S
C1271 H1265 0.950 . S
C1271 C1270 1.327 . S
C1271 C1275 1.429 . S
C1272 C1255 1.574 . S
C1272 H1266 0.949 . S
C1272 C1276 1.368 . S
C1273 C1254 1.429 . S
C1273 C1267 1.429 . S
C1273 C1274 1.523 . S
C1274 C1255 1.368 . S
C1274 C1268 1.368 . S
C1274 C1273 1.523 . S
C1275 C1259 1.429 . S
C1275 C1271 1.429 . S
C1275 C1276 1.523 . S
C1276 C1260 1.368 . S
C1276 C1272 1.368 . S
C1276 C1275 1.523 . S
H1277 C1252 0.950 . S
H1278 C1254 0.950 . S
H1279 C1255 0.949 . S
H1280 C1257 0.950 . S
H1281 C1259 0.950 . S
C1282 C1283 1.349 . S
C1282 C1284 1.327 . S
C1282 H1307 0.950 . S
C1283 C1282 1.349 . S
C1283 C1299 1.349 . S
C1284 C1282 1.327 . S
C1284 C1303 1.429 . S
C1284 H1308 0.950 . S
C1285 C1302 1.574 . S
C1285 C1304 1.368 . S
C1285 H1309 0.949 . S
H1286 C1290 0.949 . S
C1287 C1288 1.349 . S
C1287 C1289 1.327 . S
C1287 H1310 0.950 . S
C1288 C1287 1.349 . S
C1288 C1300 1.349 . S
C1289 C1287 1.327 . S
C1289 C1305 1.429 . S
C1289 H1311 0.950 . S
C1290 H1286 0.949 . S
C1290 C1298 1.574 . S
C1290 C1306 1.368 . S
H1291 C1299 0.950 . S
H1292 C1297 0.950 . S
H1293 C1298 0.949 . S
H1294 C1300 0.950 . S
H1295 C1301 0.950 . S
H1296 C1302 0.949 . S
C1297 H1292 0.950 . S
C1297 C1299 1.327 . S
C1297 C1303 1.429 . S
C1298 C1290 1.574 . S
C1298 H1293 0.949 . S
C1298 C1304 1.368 . S
C1299 C1283 1.349 . S
C1299 H1291 0.950 . S
C1299 C1297 1.327 . S
C1300 C1288 1.349 . S
C1300 H1294 0.950 . S
C1300 C1301 1.327 . S
C1301 H1295 0.950 . S
C1301 C1300 1.327 . S
C1301 C1305 1.429 . S
C1302 C1285 1.574 . S
C1302 H1296 0.949 . S
C1302 C1306 1.368 . S
C1303 C1284 1.429 . S
C1303 C1297 1.429 . S
C1303 C1304 1.523 . S
C1304 C1285 1.368 . S
C1304 C1298 1.368 . S
C1304 C1303 1.523 . S
C1305 C1289 1.429 . S
C1305 C1301 1.429 . S
C1305 C1306 1.523 . S
C1306 C1290 1.368 . S
C1306 C1302 1.368 . S
C1306 C1305 1.523 . S
H1307 C1282 0.950 . S
H1308 C1284 0.950 . S
H1309 C1285 0.949 . S
H1310 C1287 0.950 . S
H1311 C1289 0.950 . S
C1312 C1313 1.349 . S
C1312 C1314 1.327 . S
C1312 H1337 0.950 . S
C1313 C1312 1.349 . S
C1313 C1329 1.349 . S
C1314 C1312 1.327 . S
C1314 C1333 1.429 . S
C1314 H1338 0.950 . S
C1315 C1332 1.574 . S
C1315 C1334 1.368 . S
C1315 H1339 0.949 . S
H1316 C1320 0.949 . S
C1317 C1318 1.349 . S
C1317 C1319 1.327 . S
C1317 H1340 0.950 . S
C1318 C1317 1.349 . S
C1318 C1330 1.349 . S
C1319 C1317 1.327 . S
C1319 C1335 1.429 . S
C1319 H1341 0.950 . S
C1320 H1316 0.949 . S
C1320 C1328 1.574 . S
C1320 C1336 1.368 . S
H1321 C1329 0.950 . S
H1322 C1327 0.950 . S
H1323 C1328 0.949 . S
H1324 C1330 0.950 . S
H1325 C1331 0.950 . S
H1326 C1332 0.949 . S
C1327 H1322 0.950 . S
C1327 C1329 1.327 . S
C1327 C1333 1.429 . S
C1328 C1320 1.574 . S
C1328 H1323 0.949 . S
C1328 C1334 1.368 . S
C1329 C1313 1.349 . S
C1329 H1321 0.950 . S
C1329 C1327 1.327 . S
C1330 C1318 1.349 . S
C1330 H1324 0.950 . S
C1330 C1331 1.327 . S
C1331 H1325 0.950 . S
C1331 C1330 1.327 . S
C1331 C1335 1.429 . S
C1332 C1315 1.574 . S
C1332 H1326 0.949 . S
C1332 C1336 1.368 . S
C1333 C1314 1.429 . S
C1333 C1327 1.429 . S
C1333 C1334 1.523 . S
C1334 C1315 1.368 . S
C1334 C1328 1.368 . S
C1334 C1333 1.523 . S
C1335 C1319 1.429 . S
C1335 C1331 1.429 . S
C1335 C1336 1.523 . S
C1336 C1320 1.368 . S
C1336 C1332 1.368 . S
C1336 C1335 1.523 . S
H1337 C1312 0.950 . S
H1338 C1314 0.950 . S
H1339 C1315 0.949 . S
H1340 C1317 0.950 . S
H1341 C1319 0.950 . S
C1342 C1343 1.349 . S
C1342 C1344 1.327 . S
C1342 H1367 0.950 . S
C1343 C1342 1.349 . S
C1343 C1359 1.349 . S
C1344 C1342 1.327 . S
C1344 C1363 1.429 . S
C1344 H1368 0.950 . S
C1345 C1362 1.574 . S
C1345 C1364 1.368 . S
C1345 H1369 0.949 . S
H1346 C1350 0.949 . S
C1347 C1348 1.349 . S
C1347 C1349 1.327 . S
C1347 H1370 0.950 . S
C1348 C1347 1.349 . S
C1348 C1360 1.349 . S
C1349 C1347 1.327 . S
C1349 C1365 1.429 . S
C1349 H1371 0.950 . S
C1350 H1346 0.949 . S
C1350 C1358 1.574 . S
C1350 C1366 1.368 . S
H1351 C1359 0.950 . S
H1352 C1357 0.950 . S
H1353 C1358 0.949 . S
H1354 C1360 0.950 . S
H1355 C1361 0.950 . S
H1356 C1362 0.949 . S
C1357 H1352 0.950 . S
C1357 C1359 1.327 . S
C1357 C1363 1.429 . S
C1358 C1350 1.574 . S
C1358 H1353 0.949 . S
C1358 C1364 1.368 . S
C1359 C1343 1.349 . S
C1359 H1351 0.950 . S
C1359 C1357 1.327 . S
C1360 C1348 1.349 . S
C1360 H1354 0.950 . S
C1360 C1361 1.327 . S
C1361 H1355 0.950 . S
C1361 C1360 1.327 . S
C1361 C1365 1.429 . S
C1362 C1345 1.574 . S
C1362 H1356 0.949 . S
C1362 C1366 1.368 . S
C1363 C1344 1.429 . S
C1363 C1357 1.429 . S
C1363 C1364 1.523 . S
C1364 C1345 1.368 . S
C1364 C1358 1.368 . S
C1364 C1363 1.523 . S
C1365 C1349 1.429 . S
C1365 C1361 1.429 . S
C1365 C1366 1.523 . S
C1366 C1350 1.368 . S
C1366 C1362 1.368 . S
C1366 C1365 1.523 . S
H1367 C1342 0.950 . S
H1368 C1344 0.950 . S
H1369 C1345 0.949 . S
H1370 C1347 0.950 . S
H1371 C1349 0.950 . S
C1372 C1373 1.349 . S
C1372 C1374 1.327 . S
C1372 H1397 0.950 . S
C1373 C1372 1.349 . S
C1373 C1389 1.349 . S
C1374 C1372 1.327 . S
C1374 C1393 1.429 . S
C1374 H1398 0.950 . S
C1375 C1392 1.574 . S
C1375 C1394 1.368 . S
C1375 H1399 0.949 . S
H1376 C1380 0.949 . S
C1377 C1378 1.349 . S
C1377 C1379 1.327 . S
C1377 H1400 0.950 . S
C1378 C1377 1.349 . S
C1378 C1390 1.349 . S
C1379 C1377 1.327 . S
C1379 C1395 1.429 . S
C1379 H1401 0.950 . S
C1380 H1376 0.949 . S
C1380 C1388 1.574 . S
C1380 C1396 1.368 . S
H1381 C1389 0.950 . S
H1382 C1387 0.950 . S
H1383 C1388 0.949 . S
H1384 C1390 0.950 . S
H1385 C1391 0.950 . S
H1386 C1392 0.949 . S
C1387 H1382 0.950 . S
C1387 C1389 1.327 . S
C1387 C1393 1.429 . S
C1388 C1380 1.574 . S
C1388 H1383 0.949 . S
C1388 C1394 1.368 . S
C1389 C1373 1.349 . S
C1389 H1381 0.950 . S
C1389 C1387 1.327 . S
C1390 C1378 1.349 . S
C1390 H1384 0.950 . S
C1390 C1391 1.327 . S
C1391 H1385 0.950 . S
C1391 C1390 1.327 . S
C1391 C1395 1.429 . S
C1392 C1375 1.574 . S
C1392 H1386 0.949 . S
C1392 C1396 1.368 . S
C1393 C1374 1.429 . S
C1393 C1387 1.429 . S
C1393 C1394 1.523 . S
C1394 C1375 1.368 . S
C1394 C1388 1.368 . S
C1394 C1393 1.523 . S
C1395 C1379 1.429 . S
C1395 C1391 1.429 . S
C1395 C1396 1.523 . S
C1396 C1380 1.368 . S
C1396 C1392 1.368 . S
C1396 C1395 1.523 . S
H1397 C1372 0.950 . S
H1398 C1374 0.950 . S
H1399 C1375 0.949 . S
H1400 C1377 0.950 . S
H1401 C1379 0.950 . S
C1402 C1403 1.349 . S
C1402 C1404 1.327 . S
C1402 H1427 0.950 . S
C1403 C1402 1.349 . S
C1403 C1419 1.349 . S
C1404 C1402 1.327 . S
C1404 C1423 1.429 . S
C1404 H1428 0.950 . S
C1405 C1422 1.574 . S
C1405 C1424 1.368 . S
C1405 H1429 0.949 . S
H1406 C1410 0.949 . S
C1407 C1408 1.349 . S
C1407 C1409 1.327 . S
C1407 H1430 0.950 . S
C1408 C1407 1.349 . S
C1408 C1420 1.349 . S
C1409 C1407 1.327 . S
C1409 C1425 1.429 . S
C1409 H1431 0.950 . S
C1410 H1406 0.949 . S
C1410 C1418 1.574 . S
C1410 C1426 1.368 . S
H1411 C1419 0.950 . S
H1412 C1417 0.950 . S
H1413 C1418 0.949 . S
H1414 C1420 0.950 . S
H1415 C1421 0.950 . S
H1416 C1422 0.949 . S
C1417 H1412 0.950 . S
C1417 C1419 1.327 . S
C1417 C1423 1.429 . S
C1418 C1410 1.574 . S
C1418 H1413 0.949 . S
C1418 C1424 1.368 . S
C1419 C1403 1.349 . S
C1419 H1411 0.950 . S
C1419 C1417 1.327 . S
C1420 C1408 1.349 . S
C1420 H1414 0.950 . S
C1420 C1421 1.327 . S
C1421 H1415 0.950 . S
C1421 C1420 1.327 . S
C1421 C1425 1.429 . S
C1422 C1405 1.574 . S
C1422 H1416 0.949 . S
C1422 C1426 1.368 . S
C1423 C1404 1.429 . S
C1423 C1417 1.429 . S
C1423 C1424 1.523 . S
C1424 C1405 1.368 . S
C1424 C1418 1.368 . S
C1424 C1423 1.523 . S
C1425 C1409 1.429 . S
C1425 C1421 1.429 . S
C1425 C1426 1.523 . S
C1426 C1410 1.368 . S
C1426 C1422 1.368 . S
C1426 C1425 1.523 . S
H1427 C1402 0.950 . S
H1428 C1404 0.950 . S
H1429 C1405 0.949 . S
H1430 C1407 0.950 . S
H1431 C1409 0.950 . S
C1432 C1433 1.349 . S
C1432 C1434 1.327 . S
C1432 H1457 0.950 . S
C1433 C1432 1.349 . S
C1433 C1449 1.349 . S
C1434 C1432 1.327 . S
C1434 C1453 1.429 . S
C1434 H1458 0.950 . S
C1435 C1452 1.574 . S
C1435 C1454 1.368 . S
C1435 H1459 0.949 . S
H1436 C1440 0.949 . S
C1437 C1438 1.349 . S
C1437 C1439 1.327 . S
C1437 H1460 0.950 . S
C1438 C1437 1.349 . S
C1438 C1450 1.349 . S
C1439 C1437 1.327 . S
C1439 C1455 1.429 . S
C1439 H1461 0.950 . S
C1440 H1436 0.949 . S
C1440 C1448 1.574 . S
C1440 C1456 1.368 . S
H1441 C1449 0.950 . S
H1442 C1447 0.950 . S
H1443 C1448 0.949 . S
H1444 C1450 0.950 . S
H1445 C1451 0.950 . S
H1446 C1452 0.949 . S
C1447 H1442 0.950 . S
C1447 C1449 1.327 . S
C1447 C1453 1.429 . S
C1448 C1440 1.574 . S
C1448 H1443 0.949 . S
C1448 C1454 1.368 . S
C1449 C1433 1.349 . S
C1449 H1441 0.950 . S
C1449 C1447 1.327 . S
C1450 C1438 1.349 . S
C1450 H1444 0.950 . S
C1450 C1451 1.327 . S
C1451 H1445 0.950 . S
C1451 C1450 1.327 . S
C1451 C1455 1.429 . S
C1452 C1435 1.574 . S
C1452 H1446 0.949 . S
C1452 C1456 1.368 . S
C1453 C1434 1.429 . S
C1453 C1447 1.429 . S
C1453 C1454 1.523 . S
C1454 C1435 1.368 . S
C1454 C1448 1.368 . S
C1454 C1453 1.523 . S
C1455 C1439 1.429 . S
C1455 C1451 1.429 . S
C1455 C1456 1.523 . S
C1456 C1440 1.368 . S
C1456 C1452 1.368 . S
C1456 C1455 1.523 . S
H1457 C1432 0.950 . S
H1458 C1434 0.950 . S
H1459 C1435 0.949 . S
H1460 C1437 0.950 . S
H1461 C1439 0.950 . S
C1462 C1463 1.349 . S
C1462 C1464 1.327 . S
C1462 H1487 0.950 . S
C1463 C1462 1.349 . S
C1463 C1479 1.349 . S
C1464 C1462 1.327 . S
C1464 C1483 1.429 . S
C1464 H1488 0.950 . S
C1465 C1482 1.574 . S
C1465 C1484 1.368 . S
C1465 H1489 0.949 . S
H1466 C1470 0.949 . S
C1467 C1468 1.349 . S
C1467 C1469 1.327 . S
C1467 H1490 0.950 . S
C1468 C1467 1.349 . S
C1468 C1480 1.349 . S
C1469 C1467 1.327 . S
C1469 C1485 1.429 . S
C1469 H1491 0.950 . S
C1470 H1466 0.949 . S
C1470 C1478 1.574 . S
C1470 C1486 1.368 . S
H1471 C1479 0.950 . S
H1472 C1477 0.950 . S
H1473 C1478 0.949 . S
H1474 C1480 0.950 . S
H1475 C1481 0.950 . S
H1476 C1482 0.949 . S
C1477 H1472 0.950 . S
C1477 C1479 1.327 . S
C1477 C1483 1.429 . S
C1478 C1470 1.574 . S
C1478 H1473 0.949 . S
C1478 C1484 1.368 . S
C1479 C1463 1.349 . S
C1479 H1471 0.950 . S
C1479 C1477 1.327 . S
C1480 C1468 1.349 . S
C1480 H1474 0.950 . S
C1480 C1481 1.327 . S
C1481 H1475 0.950 . S
C1481 C1480 1.327 . S
C1481 C1485 1.429 . S
C1482 C1465 1.574 . S
C1482 H1476 0.949 . S
C1482 C1486 1.368 . S
C1483 C1464 1.429 . S
C1483 C1477 1.429 . S
C1483 C1484 1.523 . S
C1484 C1465 1.368 . S
C1484 C1478 1.368 . S
C1484 C1483 1.523 . S
C1485 C1469 1.429 . S
C1485 C1481 1.429 . S
C1485 C1486 1.523 . S
C1486 C1470 1.368 . S
C1486 C1482 1.368 . S
C1486 C1485 1.523 . S
H1487 C1462 0.950 . S
H1488 C1464 0.950 . S
H1489 C1465 0.949 . S
H1490 C1467 0.950 . S
H1491 C1469 0.950 . S
C1492 C1493 1.349 . S
C1492 C1494 1.327 . S
C1492 H1517 0.950 . S
C1493 C1492 1.349 . S
C1493 C1509 1.349 . S
C1494 C1492 1.327 . S
C1494 C1513 1.429 . S
C1494 H1518 0.950 . S
C1495 C1512 1.574 . S
C1495 C1514 1.368 . S
C1495 H1519 0.949 . S
H1496 C1500 0.949 . S
C1497 C1498 1.349 . S
C1497 C1499 1.327 . S
C1497 H1520 0.950 . S
C1498 C1497 1.349 . S
C1498 C1510 1.349 . S
C1499 C1497 1.327 . S
C1499 C1515 1.429 . S
C1499 H1521 0.950 . S
C1500 H1496 0.949 . S
C1500 C1508 1.574 . S
C1500 C1516 1.368 . S
H1501 C1509 0.950 . S
H1502 C1507 0.950 . S
H1503 C1508 0.949 . S
H1504 C1510 0.950 . S
H1505 C1511 0.950 . S
H1506 C1512 0.949 . S
C1507 H1502 0.950 . S
C1507 C1509 1.327 . S
C1507 C1513 1.429 . S
C1508 C1500 1.574 . S
C1508 H1503 0.949 . S
C1508 C1514 1.368 . S
C1509 C1493 1.349 . S
C1509 H1501 0.950 . S
C1509 C1507 1.327 . S
C1510 C1498 1.349 . S
C1510 H1504 0.950 . S
C1510 C1511 1.327 . S
C1511 H1505 0.950 . S
C1511 C1510 1.327 . S
C1511 C1515 1.429 . S
C1512 C1495 1.574 . S
C1512 H1506 0.949 . S
C1512 C1516 1.368 . S
C1513 C1494 1.429 . S
C1513 C1507 1.429 . S
C1513 C1514 1.523 . S
C1514 C1495 1.368 . S
C1514 C1508 1.368 . S
C1514 C1513 1.523 . S
C1515 C1499 1.429 . S
C1515 C1511 1.429 . S
C1515 C1516 1.523 . S
C1516 C1500 1.368 . S
C1516 C1512 1.368 . S
C1516 C1515 1.523 . S
H1517 C1492 0.950 . S
H1518 C1494 0.950 . S
H1519 C1495 0.949 . S
H1520 C1497 0.950 . S
H1521 C1499 0.950 . S
C1522 C1523 1.349 . S
C1522 C1524 1.327 . S
C1522 H1547 0.950 . S
C1523 C1522 1.349 . S
C1523 C1539 1.349 . S
C1524 C1522 1.327 . S
C1524 C1543 1.429 . S
C1524 H1548 0.950 . S
C1525 C1542 1.574 . S
C1525 C1544 1.368 . S
C1525 H1549 0.949 . S
H1526 C1530 0.949 . S
C1527 C1528 1.349 . S
C1527 C1529 1.327 . S
C1527 H1550 0.950 . S
C1528 C1527 1.349 . S
C1528 C1540 1.349 . S
C1529 C1527 1.327 . S
C1529 C1545 1.429 . S
C1529 H1551 0.950 . S
C1530 H1526 0.949 . S
C1530 C1538 1.574 . S
C1530 C1546 1.368 . S
H1531 C1539 0.950 . S
H1532 C1537 0.950 . S
H1533 C1538 0.949 . S
H1534 C1540 0.950 . S
H1535 C1541 0.950 . S
H1536 C1542 0.949 . S
C1537 H1532 0.950 . S
C1537 C1539 1.327 . S
C1537 C1543 1.429 . S
C1538 C1530 1.574 . S
C1538 H1533 0.949 . S
C1538 C1544 1.368 . S
C1539 C1523 1.349 . S
C1539 H1531 0.950 . S
C1539 C1537 1.327 . S
C1540 C1528 1.349 . S
C1540 H1534 0.950 . S
C1540 C1541 1.327 . S
C1541 H1535 0.950 . S
C1541 C1540 1.327 . S
C1541 C1545 1.429 . S
C1542 C1525 1.574 . S
C1542 H1536 0.949 . S
C1542 C1546 1.368 . S
C1543 C1524 1.429 . S
C1543 C1537 1.429 . S
C1543 C1544 1.523 . S
C1544 C1525 1.368 . S
C1544 C1538 1.368 . S
C1544 C1543 1.523 . S
C1545 C1529 1.429 . S
C1545 C1541 1.429 . S
C1545 C1546 1.523 . S
C1546 C1530 1.368 . S
C1546 C1542 1.368 . S
C1546 C1545 1.523 . S
H1547 C1522 0.950 . S
H1548 C1524 0.950 . S
H1549 C1525 0.949 . S
H1550 C1527 0.950 . S
H1551 C1529 0.950 . S
C1552 C1553 1.349 . S
C1552 C1554 1.327 . S
C1552 H1577 0.950 . S
C1553 C1552 1.349 . S
C1553 C1569 1.349 . S
C1554 C1552 1.327 . S
C1554 C1573 1.429 . S
C1554 H1578 0.950 . S
C1555 C1572 1.574 . S
C1555 C1574 1.368 . S
C1555 H1579 0.949 . S
H1556 C1560 0.949 . S
C1557 C1558 1.349 . S
C1557 C1559 1.327 . S
C1557 H1580 0.950 . S
C1558 C1557 1.349 . S
C1558 C1570 1.349 . S
C1559 C1557 1.327 . S
C1559 C1575 1.429 . S
C1559 H1581 0.950 . S
C1560 H1556 0.949 . S
C1560 C1568 1.574 . S
C1560 C1576 1.368 . S
H1561 C1569 0.950 . S
H1562 C1567 0.950 . S
H1563 C1568 0.949 . S
H1564 C1570 0.950 . S
H1565 C1571 0.950 . S
H1566 C1572 0.949 . S
C1567 H1562 0.950 . S
C1567 C1569 1.327 . S
C1567 C1573 1.429 . S
C1568 C1560 1.574 . S
C1568 H1563 0.949 . S
C1568 C1574 1.368 . S
C1569 C1553 1.349 . S
C1569 H1561 0.950 . S
C1569 C1567 1.327 . S
C1570 C1558 1.349 . S
C1570 H1564 0.950 . S
C1570 C1571 1.327 . S
C1571 H1565 0.950 . S
C1571 C1570 1.327 . S
C1571 C1575 1.429 . S
C1572 C1555 1.574 . S
C1572 H1566 0.949 . S
C1572 C1576 1.368 . S
C1573 C1554 1.429 . S
C1573 C1567 1.429 . S
C1573 C1574 1.523 . S
C1574 C1555 1.368 . S
C1574 C1568 1.368 . S
C1574 C1573 1.523 . S
C1575 C1559 1.429 . S
C1575 C1571 1.429 . S
C1575 C1576 1.523 . S
C1576 C1560 1.368 . S
C1576 C1572 1.368 . S
C1576 C1575 1.523 . S
H1577 C1552 0.950 . S
H1578 C1554 0.950 . S
H1579 C1555 0.949 . S
H1580 C1557 0.950 . S
H1581 C1559 0.950 . S
C1582 C1583 1.349 . S
C1582 C1584 1.327 . S
C1582 H1607 0.950 . S
C1583 C1582 1.349 . S
C1583 C1599 1.349 . S
C1584 C1582 1.327 . S
C1584 C1603 1.429 . S
C1584 H1608 0.950 . S
C1585 C1602 1.574 . S
C1585 C1604 1.368 . S
C1585 H1609 0.949 . S
H1586 C1590 0.949 . S
C1587 C1588 1.349 . S
C1587 C1589 1.327 . S
C1587 H1610 0.950 . S
C1588 C1587 1.349 . S
C1588 C1600 1.349 . S
C1589 C1587 1.327 . S
C1589 C1605 1.429 . S
C1589 H1611 0.950 . S
C1590 H1586 0.949 . S
C1590 C1598 1.574 . S
C1590 C1606 1.368 . S
H1591 C1599 0.950 . S
H1592 C1597 0.950 . S
H1593 C1598 0.949 . S
H1594 C1600 0.950 . S
H1595 C1601 0.950 . S
H1596 C1602 0.949 . S
C1597 H1592 0.950 . S
C1597 C1599 1.327 . S
C1597 C1603 1.429 . S
C1598 C1590 1.574 . S
C1598 H1593 0.949 . S
C1598 C1604 1.368 . S
C1599 C1583 1.349 . S
C1599 H1591 0.950 . S
C1599 C1597 1.327 . S
C1600 C1588 1.349 . S
C1600 H1594 0.950 . S
C1600 C1601 1.327 . S
C1601 H1595 0.950 . S
C1601 C1600 1.327 . S
C1601 C1605 1.429 . S
C1602 C1585 1.574 . S
C1602 H1596 0.949 . S
C1602 C1606 1.368 . S
C1603 C1584 1.429 . S
C1603 C1597 1.429 . S
C1603 C1604 1.523 . S
C1604 C1585 1.368 . S
C1604 C1598 1.368 . S
C1604 C1603 1.523 . S
C1605 C1589 1.429 . S
C1605 C1601 1.429 . S
C1605 C1606 1.523 . S
C1606 C1590 1.368 . S
C1606 C1602 1.368 . S
C1606 C1605 1.523 . S
H1607 C1582 0.950 . S
H1608 C1584 0.950 . S
H1609 C1585 0.949 . S
H1610 C1587 0.950 . S
H1611 C1589 0.950 . S
C1612 C1613 1.349 . S
C1612 C1614 1.327 . S
C1612 H1637 0.950 . S
C1613 C1612 1.349 . S
C1613 C1629 1.349 . S
C1614 C1612 1.327 . S
C1614 C1633 1.429 . S
C1614 H1638 0.950 . S
C1615 C1632 1.574 . S
C1615 C1634 1.368 . S
C1615 H1639 0.949 . S
H1616 C1620 0.949 . S
C1617 C1618 1.349 . S
C1617 C1619 1.327 . S
C1617 H1640 0.950 . S
C1618 C1617 1.349 . S
C1618 C1630 1.349 . S
C1619 C1617 1.327 . S
C1619 C1635 1.429 . S
C1619 H1641 0.950 . S
C1620 H1616 0.949 . S
C1620 C1628 1.574 . S
C1620 C1636 1.368 . S
H1621 C1629 0.950 . S
H1622 C1627 0.950 . S
H1623 C1628 0.949 . S
H1624 C1630 0.950 . S
H1625 C1631 0.950 . S
H1626 C1632 0.949 . S
C1627 H1622 0.950 . S
C1627 C1629 1.327 . S
C1627 C1633 1.429 . S
C1628 C1620 1.574 . S
C1628 H1623 0.949 . S
C1628 C1634 1.368 . S
C1629 C1613 1.349 . S
C1629 H1621 0.950 . S
C1629 C1627 1.327 . S
C1630 C1618 1.349 . S
C1630 H1624 0.950 . S
C1630 C1631 1.327 . S
C1631 H1625 0.950 . S
C1631 C1630 1.327 . S
C1631 C1635 1.429 . S
C1632 C1615 1.574 . S
C1632 H1626 0.949 . S
C1632 C1636 1.368 . S
C1633 C1614 1.429 . S
C1633 C1627 1.429 . S
C1633 C1634 1.523 . S
C1634 C1615 1.368 . S
C1634 C1628 1.368 . S
C1634 C1633 1.523 . S
C1635 C1619 1.429 . S
C1635 C1631 1.429 . S
C1635 C1636 1.523 . S
C1636 C1620 1.368 . S
C1636 C1632 1.368 . S
C1636 C1635 1.523 . S
H1637 C1612 0.950 . S
H1638 C1614 0.950 . S
H1639 C1615 0.949 . S
H1640 C1617 0.950 . S
H1641 C1619 0.950 . S
C1642 C1643 1.349 . S
C1642 C1644 1.327 . S
C1642 H1667 0.950 . S
C1643 C1642 1.349 . S
C1643 C1659 1.349 . S
C1644 C1642 1.327 . S
C1644 C1663 1.429 . S
C1644 H1668 0.950 . S
C1645 C1662 1.574 . S
C1645 C1664 1.368 . S
C1645 H1669 0.949 . S
H1646 C1650 0.949 . S
C1647 C1648 1.349 . S
C1647 C1649 1.327 . S
C1647 H1670 0.950 . S
C1648 C1647 1.349 . S
C1648 C1660 1.349 . S
C1649 C1647 1.327 . S
C1649 C1665 1.429 . S
C1649 H1671 0.950 . S
C1650 H1646 0.949 . S
C1650 C1658 1.574 . S
C1650 C1666 1.368 . S
H1651 C1659 0.950 . S
H1652 C1657 0.950 . S
H1653 C1658 0.949 . S
H1654 C1660 0.950 . S
H1655 C1661 0.950 . S
H1656 C1662 0.949 . S
C1657 H1652 0.950 . S
C1657 C1659 1.327 . S
C1657 C1663 1.429 . S
C1658 C1650 1.574 . S
C1658 H1653 0.949 . S
C1658 C1664 1.368 . S
C1659 C1643 1.349 . S
C1659 H1651 0.950 . S
C1659 C1657 1.327 . S
C1660 C1648 1.349 . S
C1660 H1654 0.950 . S
C1660 C1661 1.327 . S
C1661 H1655 0.950 . S
C1661 C1660 1.327 . S
C1661 C1665 1.429 . S
C1662 C1645 1.574 . S
C1662 H1656 0.949 . S
C1662 C1666 1.368 . S
C1663 C1644 1.429 . S
C1663 C1657 1.429 . S
C1663 C1664 1.523 . S
C1664 C1645 1.368 . S
C1664 C1658 1.368 . S
C1664 C1663 1.523 . S
C1665 C1649 1.429 . S
C1665 C1661 1.429 . S
C1665 C1666 1.523 . S
C1666 C1650 1.368 . S
C1666 C1662 1.368 . S
C1666 C1665 1.523 . S
H1667 C1642 0.950 . S
H1668 C1644 0.950 . S
H1669 C1645 0.949 . S
H1670 C1647 0.950 . S
H1671 C1649 0.950 . S
C1672 C1673 1.349 . S
C1672 C1674 1.327 . S
C1672 H1697 0.950 . S
C1673 C1672 1.349 . S
C1673 C1689 1.349 . S
C1674 C1672 1.327 . S
C1674 C1693 1.429 . S
C1674 H1698 0.950 . S
C1675 C1692 1.574 . S
C1675 C1694 1.368 . S
C1675 H1699 0.949 . S
H1676 C1680 0.949 . S
C1677 C1678 1.349 . S
C1677 C1679 1.327 . S
C1677 H1700 0.950 . S
C1678 C1677 1.349 . S
C1678 C1690 1.349 . S
C1679 C1677 1.327 . S
C1679 C1695 1.429 . S
C1679 H1701 0.950 . S
C1680 H1676 0.949 . S
C1680 C1688 1.574 . S
C1680 C1696 1.368 . S
H1681 C1689 0.950 . S
H1682 C1687 0.950 . S
H1683 C1688 0.949 . S
H1684 C1690 0.950 . S
H1685 C1691 0.950 . S
H1686 C1692 0.949 . S
C1687 H1682 0.950 . S
C1687 C1689 1.327 . S
C1687 C1693 1.429 . S
C1688 C1680 1.574 . S
C1688 H1683 0.949 . S
C1688 C1694 1.368 . S
C1689 C1673 1.349 . S
C1689 H1681 0.950 . S
C1689 C1687 1.327 . S
C1690 C1678 1.349 . S
C1690 H1684 0.950 . S
C1690 C1691 1.327 . S
C1691 H1685 0.950 . S
C1691 C1690 1.327 . S
C1691 C1695 1.429 . S
C1692 C1675 1.574 . S
C1692 H1686 0.949 . S
C1692 C1696 1.368 . S
C1693 C1674 1.429 . S
C1693 C1687 1.429 . S
C1693 C1694 1.523 . S
C1694 C1675 1.368 . S
C1694 C1688 1.368 . S
C1694 C1693 1.523 . S
C1695 C1679 1.429 . S
C1695 C1691 1.429 . S
C1695 C1696 1.523 . S
C1696 C1680 1.368 . S
C1696 C1692 1.368 . S
C1696 C1695 1.523 . S
H1697 C1672 0.950 . S
H1698 C1674 0.950 . S
H1699 C1675 0.949 . S
H1700 C1677 0.950 . S
H1701 C1679 0.950 . S
C1702 C1703 1.349 . S
C1702 C1704 1.327 . S
C1702 H1727 0.950 . S
C1703 C1702 1.349 . S
C1703 C1719 1.349 . S
C1704 C1702 1.327 . S
C1704 C1723 1.429 . S
C1704 H1728 0.950 . S
C1705 C1722 1.574 . S
C1705 C1724 1.368 . S
C1705 H1729 0.949 . S
H1706 C1710 0.949 . S
C1707 C1708 1.349 . S
C1707 C1709 1.327 . S
C1707 H1730 0.950 . S
C1708 C1707 1.349 . S
C1708 C1720 1.349 . S
C1709 C1707 1.327 . S
C1709 C1725 1.429 . S
C1709 H1731 0.950 . S
C1710 H1706 0.949 . S
C1710 C1718 1.574 . S
C1710 C1726 1.368 . S
H1711 C1719 0.950 . S
H1712 C1717 0.950 . S
H1713 C1718 0.949 . S
H1714 C1720 0.950 . S
H1715 C1721 0.950 . S
H1716 C1722 0.949 . S
C1717 H1712 0.950 . S
C1717 C1719 1.327 . S
C1717 C1723 1.429 . S
C1718 C1710 1.574 . S
C1718 H1713 0.949 . S
C1718 C1724 1.368 . S
C1719 C1703 1.349 . S
C1719 H1711 0.950 . S
C1719 C1717 1.327 . S
C1720 C1708 1.349 . S
C1720 H1714 0.950 . S
C1720 C1721 1.327 . S
C1721 H1715 0.950 . S
C1721 C1720 1.327 . S
C1721 C1725 1.429 . S
C1722 C1705 1.574 . S
C1722 H1716 0.949 . S
C1722 C1726 1.368 . S
C1723 C1704 1.429 . S
C1723 C1717 1.429 . S
C1723 C1724 1.523 . S
C1724 C1705 1.368 . S
C1724 C1718 1.368 . S
C1724 C1723 1.523 . S
C1725 C1709 1.429 . S
C1725 C1721 1.429 . S
C1725 C1726 1.523 . S
C1726 C1710 1.368 . S
C1726 C1722 1.368 . S
C1726 C1725 1.523 . S
H1727 C1702 0.950 . S
H1728 C1704 0.950 . S
H1729 C1705 0.949 . S
H1730 C1707 0.950 . S
H1731 C1709 0.950 . S
C1732 C1733 1.349 . S
C1732 C1734 1.327 . S
C1732 H1757 0.950 . S
C1733 C1732 1.349 . S
C1733 C1749 1.349 . S
C1734 C1732 1.327 . S
C1734 C1753 1.429 . S
C1734 H1758 0.950 . S
C1735 C1752 1.574 . S
C1735 C1754 1.368 . S
C1735 H1759 0.949 . S
H1736 C1740 0.949 . S
C1737 C1738 1.349 . S
C1737 C1739 1.327 . S
C1737 H1760 0.950 . S
C1738 C1737 1.349 . S
C1738 C1750 1.349 . S
C1739 C1737 1.327 . S
C1739 C1755 1.429 . S
C1739 H1761 0.950 . S
C1740 H1736 0.949 . S
C1740 C1748 1.574 . S
C1740 C1756 1.368 . S
H1741 C1749 0.950 . S
H1742 C1747 0.950 . S
H1743 C1748 0.949 . S
H1744 C1750 0.950 . S
H1745 C1751 0.950 . S
H1746 C1752 0.949 . S
C1747 H1742 0.950 . S
C1747 C1749 1.327 . S
C1747 C1753 1.429 . S
C1748 C1740 1.574 . S
C1748 H1743 0.949 . S
C1748 C1754 1.368 . S
C1749 C1733 1.349 . S
C1749 H1741 0.950 . S
C1749 C1747 1.327 . S
C1750 C1738 1.349 . S
C1750 H1744 0.950 . S
C1750 C1751 1.327 . S
C1751 H1745 0.950 . S
C1751 C1750 1.327 . S
C1751 C1755 1.429 . S
C1752 C1735 1.574 . S
C1752 H1746 0.949 . S
C1752 C1756 1.368 . S
C1753 C1734 1.429 . S
C1753 C1747 1.429 . S
C1753 C1754 1.523 . S
C1754 C1735 1.368 . S
C1754 C1748 1.368 . S
C1754 C1753 1.523 . S
C1755 C1739 1.429 . S
C1755 C1751 1.429 . S
C1755 C1756 1.523 . S
C1756 C1740 1.368 . S
C1756 C1752 1.368 . S
C1756 C1755 1.523 . S
H1757 C1732 0.950 . S
H1758 C1734 0.950 . S
H1759 C1735 0.949 . S
H1760 C1737 0.950 . S
H1761 C1739 0.950 . S
C1762 C1763 1.349 . S
C1762 C1764 1.327 . S
C1762 H1787 0.950 . S
C1763 C1762 1.349 . S
C1763 C1779 1.349 . S
C1764 C1762 1.327 . S
C1764 C1783 1.429 . S
C1764 H1788 0.950 . S
C1765 C1782 1.574 . S
C1765 C1784 1.368 . S
C1765 H1789 0.949 . S
H1766 C1770 0.949 . S
C1767 C1768 1.349 . S
C1767 C1769 1.327 . S
C1767 H1790 0.950 . S
C1768 C1767 1.349 . S
C1768 C1780 1.349 . S
C1769 C1767 1.327 . S
C1769 C1785 1.429 . S
C1769 H1791 0.950 . S
C1770 H1766 0.949 . S
C1770 C1778 1.574 . S
C1770 C1786 1.368 . S
H1771 C1779 0.950 . S
H1772 C1777 0.950 . S
H1773 C1778 0.949 . S
H1774 C1780 0.950 . S
H1775 C1781 0.950 . S
H1776 C1782 0.949 . S
C1777 H1772 0.950 . S
C1777 C1779 1.327 . S
C1777 C1783 1.429 . S
C1778 C1770 1.574 . S
C1778 H1773 0.949 . S
C1778 C1784 1.368 . S
C1779 C1763 1.349 . S
C1779 H1771 0.950 . S
C1779 C1777 1.327 . S
C1780 C1768 1.349 . S
C1780 H1774 0.950 . S
C1780 C1781 1.327 . S
C1781 H1775 0.950 . S
C1781 C1780 1.327 . S
C1781 C1785 1.429 . S
C1782 C1765 1.574 . S
C1782 H1776 0.949 . S
C1782 C1786 1.368 . S
C1783 C1764 1.429 . S
C1783 C1777 1.429 . S
C1783 C1784 1.523 . S
C1784 C1765 1.368 . S
C1784 C1778 1.368 . S
C1784 C1783 1.523 . S
C1785 C1769 1.429 . S
C1785 C1781 1.429 . S
C1785 C1786 1.523 . S
C1786 C1770 1.368 . S
C1786 C1782 1.368 . S
C1786 C1785 1.523 . S
H1787 C1762 0.950 . S
H1788 C1764 0.950 . S
H1789 C1765 0.949 . S
H1790 C1767 0.950 . S
H1791 C1769 0.950 . S
C1792 C1793 1.349 . S
C1792 C1794 1.327 . S
C1792 H1817 0.950 . S
C1793 C1792 1.349 . S
C1793 C1809 1.349 . S
C1794 C1792 1.327 . S
C1794 C1813 1.429 . S
C1794 H1818 0.950 . S
C1795 C1812 1.574 . S
C1795 C1814 1.368 . S
C1795 H1819 0.949 . S
H1796 C1800 0.949 . S
C1797 C1798 1.349 . S
C1797 C1799 1.327 . S
C1797 H1820 0.950 . S
C1798 C1797 1.349 . S
C1798 C1810 1.349 . S
C1799 C1797 1.327 . S
C1799 C1815 1.429 . S
C1799 H1821 0.950 . S
C1800 H1796 0.949 . S
C1800 C1808 1.574 . S
C1800 C1816 1.368 . S
H1801 C1809 0.950 . S
H1802 C1807 0.950 . S
H1803 C1808 0.949 . S
H1804 C1810 0.950 . S
H1805 C1811 0.950 . S
H1806 C1812 0.949 . S
C1807 H1802 0.950 . S
C1807 C1809 1.327 . S
C1807 C1813 1.429 . S
C1808 C1800 1.574 . S
C1808 H1803 0.949 . S
C1808 C1814 1.368 . S
C1809 C1793 1.349 . S
C1809 H1801 0.950 . S
C1809 C1807 1.327 . S
C1810 C1798 1.349 . S
C1810 H1804 0.950 . S
C1810 C1811 1.327 . S
C1811 H1805 0.950 . S
C1811 C1810 1.327 . S
C1811 C1815 1.429 . S
C1812 C1795 1.574 . S
C1812 H1806 0.949 . S
C1812 C1816 1.368 . S
C1813 C1794 1.429 . S
C1813 C1807 1.429 . S
C1813 C1814 1.523 . S
C1814 C1795 1.368 . S
C1814 C1808 1.368 . S
C1814 C1813 1.523 . S
C1815 C1799 1.429 . S
C1815 C1811 1.429 . S
C1815 C1816 1.523 . S
C1816 C1800 1.368 . S
C1816 C1812 1.368 . S
C1816 C1815 1.523 . S
H1817 C1792 0.950 . S
H1818 C1794 0.950 . S
H1819 C1795 0.949 . S
H1820 C1797 0.950 . S
H1821 C1799 0.950 . S
C388 C211 1.001 . S
C383 C17 1.064 . S
C418 C212 1.674 . S
C413 C44 1.703 . S
C448 C206 1.103 . S
C443 C63 1.131 . S
C473 C87 0.934 . S
C478 C205 0.929 . S
C503 C110 1.626 . S
C508 C208 1.552 . S
C538 C210 1.109 . S
C533 C131 1.135 . S
C563 C159 1.017 . S
C568 C209 1.061 . S
C593 C177 1.077 . S
C598 C207 1.015 . S
C628 C242 1.468 . S
C623 C20 1.334 . S
C653 C42 1.398 . S
C658 C273 1.327 . S
C688 C241 1.364 . S
C683 C66 1.275 . S
C718 C276 0.991 . S
C713 C86 1.005 . S
C743 C109 1.247 . S
C748 C239 1.225 . S
C778 C271 1.459 . S
C773 C136 1.386 . S
C803 C157 1.113 . S
C808 C244 1.079 . S
C833 C182 1.281 . S
C838 C278 1.302 . S
C863 C18 1.353 . S
C868 C274 1.304 . S
C893 C112 1.254 . S
C898 C277 1.301 . S
C928 C245 1.284 . S
C923 C134 1.281 . S
C958 C272 1.155 . S
C953 C154 1.171 . S
C983 C180 1.385 . S
C988 C238 1.439 . S
C1013 C64 1.430 . S
C1018 C275 1.431 . S
C1048 C240 1.137 . S
C1043 C89 1.046 . S
C1073 C39 1.427 . S
C1078 C243 1.412 . S
C1103 C178 1.056 . S
C1108 C310 0.993 . S
C1133 C113 1.222 . S
C1138 C311 1.212 . S
C1168 C305 1.096 . S
C1163 C132 1.121 . S
C1198 C304 1.472 . S
C1193 C156 1.469 . S
C1223 C41 1.085 . S
C1228 C307 1.028 . S
C1258 C309 1.105 . S
C1253 C62 1.129 . S
C1283 C90 1.489 . S
C1288 C308 1.544 . S
C1313 C16 1.073 . S
C1318 C306 1.011 . S
C1343 C181 1.441 . S
C1348 C344 1.495 . S
C1378 C376 1.109 . S
C1373 C111 1.138 . S
C1403 C135 1.142 . S
C1408 C337 1.229 . S
C1433 C155 1.292 . S
C1438 C371 1.283 . S
C1468 C342 0.978 . S
C1463 C40 0.986 . S
C1493 C67 1.590 . S
C1498 C373 1.662 . S
C1528 C339 1.324 . S
C1523 C88 1.390 . S
C1558 C374 1.301 . S
C1553 C21 1.209 . S
C1588 C370 1.259 . S
C1583 C179 1.259 . S
C1613 C43 1.044 . S
C1618 C372 1.142 . S
C1643 C65 1.185 . S
C1648 C341 1.242 . S
C1678 C375 1.453 . S
C1673 C85 1.451 . S
C1703 C19 1.505 . S
C1708 C340 1.510 . S
C1733 C133 1.613 . S
C1738 C377 1.551 . S
C1768 C343 1.317 . S
C1763 C158 1.270 . S
C1798 C338 1.164 . S
C1793 C108 1.169 . S
