# Generated by pormake.
# Topology pth, (4,4)-cn, num edge types: 1
# Building blocks:
#     Node 0, Type 0, BuildingBlock: QUQFOY_clean_sbu_1, # of connection points: 4
#     Node 1, Type 0, BuildingBlock: QUQFOY_clean_sbu_1, # of connection points: 4
#     Node 2, Type 0, BuildingBlock: QUQFOY_clean_sbu_1, # of connection points: 4
#     Node 3, Type 1, BuildingBlock: KOZSID_clean_sbu_0, # of connection points: 4
#     Node 4, Type 1, BuildingBlock: KOZSID_clean_sbu_0, # of connection points: 4
#     Node 5, Type 1, BuildingBlock: KOZSID_clean_sbu_0, # of connection points: 4
#     Edge 6, Type (0, 1), BuildingBlock: XUDNAN_clean_linker_2, # of connection points: 2
#     Edge 7, Type (0, 1), BuildingBlock: XUDNAN_clean_linker_2, # of connection points: 2
#     Edge 8, Type (0, 1), BuildingBlock: XUDNAN_clean_linker_2, # of connection points: 2
#     Edge 9, Type (0, 1), BuildingBlock: XUDNAN_clean_linker_2, # of connection points: 2
#     Edge 10, Type (0, 1), BuildingBlock: XUDNAN_clean_linker_2, # of connection points: 2
#     Edge 11, Type (0, 1), BuildingBlock: XUDNAN_clean_linker_2, # of connection points: 2
#     Edge 12, Type (0, 1), BuildingBlock: XUDNAN_clean_linker_2, # of connection points: 2
#     Edge 13, Type (0, 1), BuildingBlock: XUDNAN_clean_linker_2, # of connection points: 2
#     Edge 14, Type (0, 1), BuildingBlock: XUDNAN_clean_linker_2, # of connection points: 2
#     Edge 15, Type (0, 1), BuildingBlock: XUDNAN_clean_linker_2, # of connection points: 2
#     Edge 16, Type (0, 1), BuildingBlock: XUDNAN_clean_linker_2, # of connection points: 2
#     Edge 17, Type (0, 1), BuildingBlock: XUDNAN_clean_linker_2, # of connection points: 2
# Relax obj value: 0.022
# Max RMSD: 0.125
# Mean RMSD: 0.072
data_MOF--net-pth--node1-QUQFOY_clean_sbu_1--node2-KOZSID_clean_sbu_0--edge1-XUDNAN_clean_linker_2
_symmetry_space_group_name_H-M    P1
_symmetry_Int_Tables_number       1
_symmetry_cell_setting            triclinic
loop_
_symmetry_equiv_pos_as_xyz
'x, y, z'
_cell_length_a     25.577147
_cell_length_b     27.946568
_cell_length_c     62.289755
_cell_angle_alpha  87.635637
_cell_angle_beta   87.183756
_cell_angle_gamma 120.14228
loop_
_atom_site_label
_atom_site_type_symbol
_atom_site_fract_x
_atom_site_fract_y
_atom_site_fract_z
_atom_type_partial_charge
O0 O 0.10536 0.13239 0.02731 0.0
Cd1 Cd 0.02846 0.08533 0.04778 0.0
Cd2 Cd 0.08969 0.024 0.05624 0.0
O3 O 0.16005 0.10094 0.04233 0.0
O4 O 1.00174 0.13609 0.0597 0.0
O5 O 0.04152 0.09607 0.07914 0.0
C6 C 0.02173 0.13051 0.07775 0.0
C7 C 0.11197 0.9653 0.07747 0.0
C8 C 0.15628 0.13603 0.02969 0.0
C9 C 0.9679 0.97179 0.03397 0.0
O10 O 0.01578 0.97316 0.03952 0.0
O11 O 0.95971 0.01242 0.03692 0.0
O12 O 0.12772 0.97654 0.05714 0.0
O13 O 0.08772 0.99116 0.08642 0.0
O14 O 0.00537 0.09974 0.40145 0.0
Cd15 Cd 0.08071 0.13072 0.3797 0.0
Cd16 Cd 0.03487 0.01524 0.37995 0.0
O17 O 0.95679 0.01237 0.39328 0.0
O18 O 0.10695 0.21148 0.3773 0.0
O19 O 0.0756 0.15986 0.34975 0.0
C20 C 0.09356 0.20729 0.35755 0.0
C21 C 0.0351 0.96415 0.3509 0.0
C22 C 0.958 0.05197 0.4031 0.0
C23 C 0.15364 0.08569 0.39925 0.0
O24 O 0.10681 0.03776 0.3991 0.0
O25 O 0.15519 0.12786 0.38991 0.0
O26 O 0.01396 0.94048 0.37006 0.0
O27 O 0.05327 0.01646 0.34803 0.0
O28 O 0.98939 0.02349 0.70747 0.0
Cd29 Cd 0.04899 0.0127 0.72557 0.0
Cd30 Cd 0.11392 0.12548 0.71431 0.0
O31 O 0.03518 0.1147 0.70182 0.0
O32 O 0.99652 0.93389 0.73786 0.0
O33 O 0.03167 0.00524 0.75795 0.0
C34 C 0.99785 0.95246 0.75654 0.0
C35 C 0.15667 0.17323 0.7446 0.0
C36 C 0.98978 0.06673 0.70001 0.0
C37 C 0.16727 0.05952 0.69755 0.0
O38 O 0.16708 0.10488 0.69543 0.0
O39 O 0.1273 0.01924 0.71024 0.0
O40 O 0.16576 0.19969 0.72601 0.0
O41 O 0.12076 0.11999 0.74609 0.0
C42 C 0.13946 0.66262 0.17834 0.0
C43 C 0.19643 0.70195 0.16889 0.0
C44 C 0.23764 0.6939 0.17906 0.0
C45 C 0.20385 0.65053 0.19415 0.0
N46 N 0.14339 0.63005 0.19421 0.0
Co47 Co 0.0784 0.56808 0.21414 0.0
N48 N 0.13994 0.56184 0.23101 0.0
C49 C 0.20094 0.59424 0.22789 0.0
C50 C 0.2318 0.58017 0.24176 0.0
C51 C 0.18797 0.53599 0.25454 0.0
C52 C 0.13257 0.52566 0.24771 0.0
N53 N 0.01353 0.50426 0.23346 0.0
C54 C 0.01795 0.47188 0.24933 0.0
C55 C 0.96126 0.42973 0.25777 0.0
C56 C 0.91955 0.43519 0.2467 0.0
C57 C 0.95297 0.48014 0.23217 0.0
N58 N 0.01712 0.57651 0.19794 0.0
C59 C 0.95614 0.54648 0.20194 0.0
C60 C 0.92568 0.56377 0.18918 0.0
C61 C 0.96986 0.60817 0.1765 0.0
C62 C 0.02497 0.61543 0.18227 0.0
N63 N 0.0768 0.51312 0.19422 0.0
C64 C 0.07099 0.42665 0.17036 0.0
C65 C 0.02026 0.43259 0.17393 0.0
C66 C 0.02406 0.47559 0.18583 0.0
C67 C 0.12541 0.46645 0.17801 0.0
C68 C 0.12749 0.5093 0.18953 0.0
N69 N 0.07939 0.62267 0.23403 0.0
C70 C 0.02529 0.65506 0.25664 0.0
C71 C 0.07811 0.70614 0.25788 0.0
C72 C 0.13213 0.71356 0.2479 0.0
C73 C 0.13191 0.67142 0.23641 0.0
C74 C 0.02687 0.61433 0.24468 0.0
H75 H 0.17465 0.67969 0.22923 0.0
H76 H 0.98467 0.57694 0.24387 0.0
H77 H 0.98325 0.47673 0.18842 0.0
H78 H 0.17048 0.53826 0.19481 0.0
C79 C 0.22789 0.63345 0.21035 0.0
C80 C 0.08343 0.65973 0.17234 0.0
C81 C 0.07454 0.47964 0.25706 0.0
C82 C 0.92899 0.5019 0.21761 0.0
H83 H 0.20746 0.73442 0.15641 0.0
H84 H 0.28657 0.7185 0.17647 0.0
H85 H 0.28042 0.59855 0.24203 0.0
H86 H 0.19602 0.5131 0.2671 0.0
H87 H 0.95116 0.39826 0.27059 0.0
H88 H 0.87067 0.40948 0.24899 0.0
H89 H 0.87714 0.5464 0.1892 0.0
H90 H 0.9624 0.63264 0.16444 0.0
H91 H 0.97709 0.40294 0.16827 0.0
H92 H 0.16637 0.46441 0.17522 0.0
H93 H 0.98234 0.64725 0.26415 0.0
H94 H 0.17452 0.75197 0.24882 0.0
C95 C 0.45313 0.00912 0.5828 0.0
C96 C 0.40096 0.95897 0.58934 0.0
C97 C 0.40329 0.91958 0.57785 0.0
C98 C 0.45599 0.94779 0.56478 0.0
N99 N 0.4875 1.00294 0.5671 0.0
Co100 Co 0.56351 0.05963 0.54967 0.0
N101 N 0.56849 1.00089 0.53371 0.0
C102 C 0.53106 0.94538 0.53715 0.0
C103 C 0.54824 0.91492 0.52516 0.0
C104 C 0.59966 0.95318 0.5132 0.0
C105 C 0.61033 0.00515 0.51832 0.0
N106 N 0.63834 0.1164 0.53161 0.0
C107 C 0.67081 0.11019 0.51511 0.0
C108 C 0.71678 0.16122 0.50587 0.0
C109 C 0.71384 0.20087 0.51706 0.0
C110 C 0.66606 0.17213 0.53229 0.0
N111 N 0.5597 0.11809 0.56636 0.0
C112 C 0.59979 0.1733 0.56411 0.0
C113 C 0.58798 0.20286 0.57863 0.0
C114 C 0.53754 0.16424 0.59104 0.0
C115 C 0.52096 0.11312 0.58321 0.0
N116 N 0.61424 0.05328 0.57159 0.0
C117 C 0.6854 0.0454 0.60348 0.0
C118 C 0.7004 0.09658 0.59316 0.0
C119 C 0.66494 0.09947 0.57735 0.0
C120 C 0.63422 0.99807 0.59725 0.0
C121 C 0.59941 1.00294 0.58156 0.0
N122 N 0.51301 0.06648 0.52768 0.0
C123 C 0.48636 0.12401 0.50616 0.0
C124 C 0.44517 0.0787 0.49551 0.0
C125 C 0.43751 0.02666 0.50165 0.0
C126 C 0.47157 0.02151 0.51766 0.0
C127 C 0.51949 0.11713 0.52189 0.0
H128 H 0.46397 0.98084 0.5215 0.0
H129 H 0.5503 0.15374 0.52902 0.0
H130 H 0.6793 0.13977 0.57016 0.0
H131 H 0.56056 0.96545 0.57778 0.0
C132 C 0.47884 0.92318 0.55116 0.0
C133 C 0.46858 0.061 0.59244 0.0
C134 C 0.65942 0.05707 0.50753 0.0
C135 C 0.64719 0.19617 0.54782 0.0
H136 H 0.36506 0.95137 0.60134 0.0
H137 H 0.37085 0.87548 0.57909 0.0
H138 H 0.52582 0.87021 0.52503 0.0
H139 H 0.6259 0.94367 0.50183 0.0
H140 H 0.74904 0.1692 0.49236 0.0
H141 H 0.74304 0.24541 0.51438 0.0
H142 H 0.61318 0.2472 0.58007 0.0
H143 H 0.51575 0.17289 0.60443 0.0
H144 H 0.73879 0.13477 0.59746 0.0
H145 H 0.62092 0.95712 0.60431 0.0
H146 H 0.49309 0.16505 0.5025 0.0
H147 H 0.40633 0.99016 0.49388 0.0
C148 C 0.68187 0.61054 0.86163 0.0
C149 C 0.73053 0.60604 0.85336 0.0
C150 C 0.72424 0.55852 0.86295 0.0
C151 C 0.67254 0.53687 0.87654 0.0
N152 N 0.64479 0.56721 0.87603 0.0
Co153 Co 0.56988 0.55186 0.89402 0.0
N154 N 0.5669 0.48742 0.91081 0.0
C155 C 0.60604 0.4685 0.90806 0.0
C156 C 0.59155 0.42244 0.92123 0.0
C157 C 0.54014 0.41114 0.93322 0.0
C158 C 0.52638 0.45155 0.92681 0.0
N159 N 0.49427 0.53573 0.91171 0.0
C160 C 0.46062 0.4956 0.92775 0.0
C161 C 0.41136 0.4996 0.93568 0.0
C162 C 0.41317 0.54284 0.92398 0.0
C163 C 0.46342 0.56309 0.90973 0.0
N164 N 0.57425 0.6174 0.87766 0.0
C165 C 0.53465 0.63585 0.87996 0.0
C166 C 0.55129 0.68357 0.86744 0.0
C167 C 0.60546 0.69713 0.85681 0.0
C168 C 0.61877 0.65675 0.86353 0.0
N169 N 0.51803 0.50096 0.87251 0.0
C170 C 0.43587 0.42153 0.84604 0.0
C171 C 0.43243 0.46846 0.85046 0.0
C172 C 0.47336 0.50714 0.86371 0.0
C173 C 0.48283 0.4164 0.85418 0.0
C174 C 0.52351 0.45657 0.86696 0.0
N175 N 0.62098 0.60241 0.91546 0.0
C176 C 0.64377 0.67636 0.939 0.0
C177 C 0.69478 0.67532 0.94547 0.0
C178 C 0.70834 0.63737 0.93645 0.0
C179 C 0.67127 0.6017 0.92163 0.0
C180 C 0.60767 0.6397 0.9242 0.0
H181 H 0.68418 0.57388 0.91532 0.0
H182 H 0.56907 0.64216 0.92009 0.0
H183 H 0.46691 0.54097 0.86691 0.0
H184 H 0.55832 0.45007 0.8724 0.0
C185 C 0.6534 0.49234 0.89185 0.0
C186 C 0.67498 0.65842 0.85646 0.0
C187 C 0.47351 0.45307 0.93604 0.0
C188 C 0.48406 0.60901 0.89489 0.0
H189 H 0.76799 0.63496 0.84214 0.0
H190 H 0.75533 0.54308 0.86105 0.0
H191 H 0.61467 0.39894 0.92164 0.0
H192 H 0.51511 0.37625 0.94503 0.0
H193 H 0.37759 0.47408 0.94862 0.0
H194 H 0.38186 0.55805 0.9258 0.0
H195 H 0.5277 0.70662 0.86661 0.0
H196 H 0.63273 0.73321 0.84569 0.0
H197 H 0.39684 0.47428 0.84442 0.0
H198 H 0.48801 0.38121 0.85081 0.0
H199 H 0.63089 0.7045 0.94567 0.0
H200 H 0.74781 0.63535 0.94067 0.0
H201 H 0.98578 0.2085 0.0796 0.0
H202 H 0.0715 0.13479 0.11606 0.0
H203 H 0.09099 0.20083 0.14391 0.0
H204 H 0.08668 0.34778 0.08978 0.0
H205 H 0.02961 0.36747 0.09234 0.0
H206 H 0.0187 0.31228 0.07582 0.0
H207 H 0.91643 0.24558 0.09762 0.0
H208 H 0.92678 0.30072 0.11411 0.0
H209 H 0.91425 0.23601 0.12652 0.0
H210 H 0.10837 0.27944 0.16647 0.0
H211 H 0.11562 0.36063 0.18349 0.0
H212 H 0.0165 0.38259 0.13316 0.0
C213 C 0.00774 0.20559 0.09362 0.0
C214 C 0.0269 0.16612 0.09562 0.0
C215 C 0.05603 0.16426 0.11415 0.0
C216 C 0.0675 0.20179 0.13006 0.0
C217 C 0.04919 0.24084 0.12737 0.0
C218 C 0.01925 0.24261 0.10975 0.0
C219 C 0.00545 0.28947 0.11058 0.0
C220 C 0.037 0.33174 0.09097 0.0
C221 C 0.93663 0.26656 0.11232 0.0
C222 C 0.03307 0.31423 0.13124 0.0
C223 C 0.05822 0.28561 0.14062 0.0
C224 C 0.08838 0.30186 0.15935 0.0
C225 C 0.09266 0.3483 0.16883 0.0
C226 C 0.06668 0.37805 0.15969 0.0
C227 C 0.03628 0.36041 0.14066 0.0
H228 H 0.95608 0.09414 0.44164 0.0
H229 H 0.8389 0.99196 0.39433 0.0
H230 H 0.75017 0.98595 0.41506 0.0
H231 H 0.84947 0.01732 0.48801 0.0
H232 H 0.87215 0.0783 0.50256 0.0
H233 H 0.92583 0.0754 0.48363 0.0
H234 H 0.94496 0.16643 0.46345 0.0
H235 H 0.89064 0.16914 0.48214 0.0
H236 H 0.88186 0.17016 0.45362 0.0
H237 H 0.67589 0.99752 0.43974 0.0
H238 H 0.61848 0.01156 0.46958 0.0
H239 H 0.78243 0.097 0.50281 0.0
C240 C 0.91162 0.07031 0.43572 0.0
C241 C 0.90413 0.04378 0.41633 0.0
C242 C 0.84537 0.01238 0.40919 0.0
C243 C 0.79493 0.00913 0.42077 0.0
C244 C 0.804 0.03653 0.43968 0.0
C245 C 0.8607 0.06538 0.44738 0.0
C246 C 0.85783 0.08863 0.4687 0.0
C247 C 0.87747 0.06339 0.48679 0.0
C248 C 0.8961 0.15237 0.46685 0.0
C249 C 0.79073 0.06889 0.47172 0.0
C250 C 0.76067 0.03983 0.4546 0.0
C251 C 0.69884 0.01946 0.45336 0.0
C252 C 0.66668 0.02775 0.47031 0.0
C253 C 0.69599 0.05491 0.48851 0.0
C254 C 0.75896 0.07616 0.48907 0.0
H255 H 0.91031 0.84265 0.75667 0.0
H256 H 0.99306 0.97767 0.7985 0.0
H257 H 0.91966 0.91719 0.82869 0.0
H258 H 0.75815 0.79179 0.77688 0.0
H259 H 0.73457 0.71972 0.77472 0.0
H260 H 0.79576 0.77235 0.75678 0.0
H261 H 0.86642 0.73641 0.76868 0.0
H262 H 0.80525 0.68333 0.78652 0.0
H263 H 0.87641 0.73052 0.79693 0.0
H264 H 0.83437 0.84222 0.85411 0.0
H265 H 0.74634 0.75792 0.8728 0.0
H266 H 0.7182 0.67342 0.81406 0.0
C267 C 0.91369 0.85937 0.77225 0.0
C268 C 0.95784 0.91492 0.77523 0.0
C269 C 0.95995 0.93522 0.79584 0.0
C270 C 0.91832 0.90119 0.81307 0.0
C271 C 0.8747 0.84697 0.80946 0.0
C272 C 0.87232 0.82612 0.78957 0.0
C273 C 0.82009 0.76694 0.78969 0.0
C274 C 0.77445 0.76247 0.77356 0.0
C275 C 0.84346 0.72695 0.78519 0.0
C276 C 0.7932 0.75772 0.81273 0.0
C277 C 0.82539 0.8043 0.82392 0.0
C278 C 0.80902 0.80553 0.84551 0.0
C279 C 0.75901 0.75773 0.85596 0.0
C280 C 0.72607 0.70954 0.84482 0.0
C281 C 0.74299 0.70985 0.82289 0.0
H282 H 0.08094 0.92732 0.12078 0.0
H283 H 0.15068 0.89914 0.06055 0.0
H284 H 0.14725 0.81705 0.07804 0.0
H285 H 0.16491 0.88535 0.15556 0.0
H286 H 0.10401 0.85284 0.1766 0.0
H287 H 0.11273 0.91039 0.1595 0.0
H288 H 1.00204 0.85036 0.14947 0.0
H289 H 0.99331 0.79241 0.16632 0.0
H290 H 0.97887 0.78479 0.13827 0.0
H291 H 0.13118 0.735 0.10101 0.0
H292 H 0.11485 0.66383 0.12972 0.0
H293 H 0.05991 0.74531 0.17584 0.0
C294 C 0.09623 0.90429 0.11136 0.0
C295 C 0.11611 0.91997 0.08922 0.0
C296 C 0.13544 0.88838 0.0775 0.0
C297 C 0.13338 0.84135 0.08727 0.0
C298 C 0.1124 0.82633 0.1089 0.0
C299 C 0.09508 0.85721 0.12097 0.0
C300 C 0.07525 0.83196 0.14408 0.0
C301 C 0.11671 0.87255 0.15987 0.0
C302 C 0.00839 0.81381 0.14987 0.0
C303 C 0.08386 0.78208 0.143 0.0
C304 C 0.10476 0.77946 0.12244 0.0
C305 C 0.11532 0.73685 0.11721 0.0
C306 C 0.10572 0.69654 0.13353 0.0
C307 C 0.08648 0.69944 0.15487 0.0
C308 C 0.0746 0.74232 0.1596 0.0
H309 H 0.15671 0.0135 0.42997 0.0
H310 H 0.2697 0.17408 0.39472 0.0
H311 H 0.35711 0.18708 0.41422 0.0
H312 H 0.21972 0.05505 0.48045 0.0
H313 H 0.21505 0.99005 0.48816 0.0
H314 H 0.16215 0.99164 0.47052 0.0
H315 H 0.19317 0.94334 0.44214 0.0
H316 H 0.24632 0.94173 0.45968 0.0
H317 H 0.2719 0.97375 0.43262 0.0
H318 H 0.43194 0.18331 0.43762 0.0
H319 H 0.4882 0.1658 0.4648 0.0
H320 H 0.3259 0.00965 0.48649 0.0
C321 C 0.2 0.05115 0.42618 0.0
C322 C 0.20639 0.09265 0.41067 0.0
C323 C 0.26362 0.14169 0.40648 0.0
C324 C 0.31363 0.14938 0.41743 0.0
C325 C 0.30571 0.10784 0.43266 0.0
C326 C 0.25031 0.05982 0.43716 0.0
C327 C 0.25346 0.02295 0.45505 0.0
C328 C 0.21002 0.01445 0.47471 0.0
C329 C 0.24044 0.96714 0.44688 0.0
C330 C 0.31923 0.0579 0.45996 0.0
C331 C 0.34857 0.10643 0.44669 0.0
C332 C 0.40933 0.1456 0.44818 0.0
C333 C 0.44081 0.13539 0.46383 0.0
C334 C 0.41151 0.08663 0.47807 0.0
C335 C 0.34993 0.04711 0.47582 0.0
H336 H 0.23229 0.28579 0.74741 0.0
H337 H 0.15693 0.12644 0.784 0.0
H338 H 0.21833 0.17297 0.81399 0.0
H339 H 0.38208 0.34393 0.76358 0.0
H340 H 0.39436 0.41298 0.76541 0.0
H341 H 0.34252 0.36783 0.74708 0.0
H342 H 0.25681 0.38021 0.76486 0.0
H343 H 0.30852 0.42571 0.78318 0.0
H344 H 0.23814 0.36535 0.79355 0.0
H345 H 0.29333 0.23552 0.83893 0.0
H346 H 0.37121 0.31105 0.85835 0.0
H347 H 0.39553 0.43089 0.80662 0.0
C348 C 0.2281 0.26074 0.76184 0.0
C349 C 0.18958 0.20231 0.76331 0.0
C350 C 0.18578 0.17117 0.78246 0.0
C351 C 0.22066 0.19723 0.7996 0.0
C352 C 0.25884 0.25466 0.79749 0.0
C353 C 0.26227 0.2862 0.77922 0.0
C354 C 0.30751 0.34725 0.78104 0.0
C355 C 0.3597 0.36927 0.76322 0.0
C356 C 0.27584 0.38166 0.78064 0.0
C357 C 0.32944 0.34498 0.80307 0.0
C358 C 0.30096 0.29105 0.8122 0.0
C359 C 0.31545 0.27796 0.83204 0.0
C360 C 0.35996 0.32105 0.84289 0.0
C361 C 0.38922 0.37674 0.83403 0.0
C362 C 0.37338 0.38876 0.81388 0.0
H363 H 0.98608 0.12785 0.66472 0.0
H364 H 0.87248 0.98807 0.71086 0.0
H365 H 0.7823 0.9699 0.69206 0.0
H366 H 0.87629 0.17345 0.65614 0.0
H367 H 0.89746 0.18981 0.62762 0.0
H368 H 0.95262 0.1952 0.64576 0.0
H369 H 0.97273 0.1288 0.62361 0.0
H370 H 0.91751 0.12306 0.60547 0.0
H371 H 0.91018 0.06145 0.61899 0.0
H372 H 0.70475 0.96534 0.66807 0.0
H373 H 0.64494 0.9725 0.63969 0.0
H374 H 0.80934 0.11034 0.60702 0.0
C375 C 0.942 0.09415 0.67105 0.0
C376 C 0.93607 0.05971 0.68939 0.0
C377 C 0.87793 0.01506 0.69688 0.0
C378 C 0.82643 0.00446 0.68634 0.0
C379 C 0.83377 0.03845 0.66811 0.0
C380 C 0.89003 0.08223 0.66041 0.0
C381 C 0.88555 0.10994 0.63965 0.0
C382 C 0.90407 0.1707 0.64247 0.0
C383 C 0.92375 0.10552 0.62082 0.0
C384 C 0.81815 0.07481 0.63694 0.0
C385 C 0.78916 0.0342 0.65366 0.0
C386 C 0.727 0.99678 0.65479 0.0
C387 C 0.69344 1.00086 0.6384 0.0
C388 C 0.72202 0.04165 0.62082 0.0
C389 C 0.78548 0.07904 0.62024 0.0
H390 H 0.8898 0.96034 1.00239 0.0
H391 H 0.94325 0.86744 0.04448 0.0
H392 H 0.87523 0.78177 0.02776 0.0
H393 H 0.72979 0.84881 1.00022 0.0
H394 H 0.72822 0.86523 0.97206 0.0
H395 H 0.77672 0.9191 0.98863 0.0
H396 H 0.86946 0.94365 0.96216 0.0
H397 H 0.82133 0.88973 0.94558 0.0
H398 H 0.88632 0.89023 0.95579 0.0
H399 H 0.80744 0.70734 0.00553 0.0
H400 H 0.74232 0.64739 0.97878 0.0
H401 H 0.73282 0.78641 0.94962 0.0
C402 C 0.886 0.92167 0.00835 0.0
C403 C 0.92159 0.92054 0.02487 0.0
C404 C 0.9165 0.86937 0.03188 0.0
C405 C 0.87784 0.82036 0.02251 0.0
C406 C 0.84447 0.82288 0.00599 0.0
C407 C 0.84785 0.87199 0.99891 0.0
C408 C 0.80952 0.86308 0.97991 0.0
C409 C 0.758 0.87475 0.98555 0.0
C410 C 0.84903 0.89879 0.95966 0.0
C411 C 0.78493 0.80164 0.97738 0.0
C412 C 0.80554 0.77944 0.99273 0.0
C413 C 0.7908 0.72414 0.99345 0.0
C414 C 0.75412 0.69048 0.97805 0.0
C415 C 0.73258 0.71203 0.96196 0.0
C416 C 0.74797 0.76843 0.96181 0.0
H417 H 0.99561 0.8523 0.35144 0.0
H418 H 0.09194 0.00579 0.31048 0.0
H419 H 0.11196 0.95625 0.28223 0.0
H420 H 0.09266 0.79992 0.33756 0.0
H421 H 0.03277 0.7286 0.33778 0.0
H422 H 0.02349 0.7753 0.3545 0.0
H423 H 0.92458 0.75271 0.33702 0.0
H424 H 0.93333 0.70562 0.32034 0.0
H425 H 0.9259 0.76128 0.30811 0.0
H426 H 0.12734 0.8914 0.25932 0.0
H427 H 0.13058 0.8145 0.24233 0.0
H428 H 0.02182 0.70208 0.29751 0.0
C429 C 0.02029 0.87541 0.33643 0.0
C430 C 0.04212 0.93309 0.33321 0.0
C431 C 0.07447 0.96166 0.31334 0.0
C432 C 0.08624 0.93387 0.2972 0.0
C433 C 0.06497 0.87729 0.30103 0.0
C434 C 0.03206 0.84819 0.32005 0.0
C435 C 0.01483 0.78763 0.32016 0.0
C436 C 0.04261 0.77197 0.33859 0.0
C437 C 0.94554 0.74957 0.32148 0.0
C438 C 0.0438 0.78737 0.29833 0.0
C439 C 0.07273 0.83962 0.28762 0.0
C440 C 0.10448 0.85025 0.26751 0.0
C441 C 0.10643 0.80638 0.25804 0.0
C442 C 0.07652 0.75226 0.26856 0.0
C443 C 0.04464 0.74283 0.28897 0.0
H444 H 0.22466 0.11045 0.658 0.0
H445 H 0.21633 0.99562 0.70892 0.0
H446 H 0.29731 0.9883 0.68854 0.0
H447 H 0.24358 0.0386 0.61456 0.0
H448 H 0.29324 0.10105 0.59774 0.0
H449 H 0.23754 0.09975 0.61697 0.0
H450 H 0.32242 0.18457 0.63396 0.0
H451 H 0.37846 0.18579 0.61489 0.0
H452 H 0.38608 0.18117 0.6434 0.0
H453 H 0.38111 0.99545 0.66286 0.0
H454 H 0.4521 0.0071 0.63187 0.0
H455 H 0.3994 0.1107 0.59639 0.0
C456 C 0.24021 0.08406 0.66492 0.0
C457 C 0.2147 0.054 0.68515 0.0
C458 C 0.23532 0.01903 0.69347 0.0
C459 C 0.2815 0.01488 0.68206 0.0
C460 C 0.30589 0.04527 0.6622 0.0
C461 C 0.28526 0.07848 0.65353 0.0
C462 C 0.31624 0.10399 0.63127 0.0
C463 C 0.26989 0.08467 0.61413 0.0
C464 C 0.35298 0.16766 0.63087 0.0
C465 C 0.3576 0.08002 0.62875 0.0
C466 C 0.35169 0.04701 0.64693 0.0
C467 C 0.38579 0.02092 0.64852 0.0
C468 C 0.42602 0.02784 0.63091 0.0
C469 C 0.43101 0.05969 0.61183 0.0
C470 C 0.39669 0.08646 0.61086 0.0
H471 H 0.16774 0.18949 0.99027 0.0
H472 H 0.27006 0.18993 0.04384 0.0
H473 H 0.36106 0.27351 0.02645 0.0
H474 H 0.29083 0.22948 0.94903 0.0
H475 H 0.26982 0.27077 0.93259 0.0
H476 H 0.21267 0.21212 0.94959 0.0
H477 H 0.18013 0.276 0.96769 0.0
H478 H 0.2377 0.33497 0.95091 0.0
H479 H 0.23581 0.33648 0.97983 0.0
H480 H 0.43903 0.36073 1.00421 0.0
H481 H 0.50273 0.4366 0.9762 0.0
H482 H 0.35289 0.3739 0.93548 0.0
C483 C 0.20939 0.20716 0.9983 0.0
C484 C 0.21183 0.18349 0.01848 0.0
C485 C 0.26728 0.20731 0.02836 0.0
C486 C 0.31904 0.25497 0.01867 0.0
C487 C 0.31493 0.2777 0.9989 0.0
C488 C 0.26187 0.2539 0.9886 0.0
C489 C 0.27035 0.28486 0.96693 0.0
C490 C 0.26034 0.24705 0.94845 0.0
C491 C 0.2285 0.30953 0.96631 0.0
C492 C 0.3363 0.33009 0.96673 0.0
C493 C 0.36087 0.32578 0.98549 0.0
C494 C 0.42046 0.36402 0.98935 0.0
C495 C 0.45622 0.40697 0.97342 0.0
C496 C 0.43282 0.41065 0.95368 0.0
C497 C 0.37186 0.37194 0.95043 0.0
H498 H 0.0683 0.21435 0.31505 0.0
H499 H 0.12167 0.30757 0.37193 0.0
H500 H 0.11825 0.38465 0.35285 0.0
H501 H 0.15599 0.33306 0.27616 0.0
H502 H 0.09956 0.30789 0.25683 0.0
H503 H 0.10601 0.25948 0.27492 0.0
H504 H 0.99247 0.21525 0.28808 0.0
H505 H 0.9859 0.26395 0.27018 0.0
H506 H 0.96501 0.25841 0.29862 0.0
H507 H 0.10723 0.45124 0.32827 0.0
H508 H 0.09692 0.50628 0.29832 0.0
H509 H 0.05287 0.37269 0.25678 0.0
C510 C 0.07964 0.25113 0.32343 0.0
C511 C 0.09525 0.25468 0.34506 0.0
C512 C 0.10968 0.30363 0.3554 0.0
C513 C 0.10765 0.34772 0.34471 0.0
C514 C 0.09136 0.34267 0.32358 0.0
C515 C 0.0782 0.29597 0.31291 0.0
C516 C 0.06308 0.30198 0.29001 0.0
C517 C 0.1089 0.30053 0.27351 0.0
C518 C 0.99773 0.25723 0.28653 0.0
C519 C 0.06983 0.35924 0.28956 0.0
C520 C 0.08573 0.38168 0.3092 0.0
C521 C 0.09483 0.43415 0.31282 0.0
C522 C 0.08866 0.46499 0.29582 0.0
C523 C 0.07385 0.44344 0.27545 0.0
C524 C 0.0637 0.38969 0.27234 0.0
loop_
_geom_bond_atom_site_label_1
_geom_bond_atom_site_label_2
_geom_bond_distance
_geom_bond_site_symmetry_2
_ccdc_geom_bond_type
O0 Cd1 2.223 . S
O0 C8 1.315 . S
Cd1 O0 2.223 . S
Cd1 O4 2.297 . S
Cd1 O5 2.439 . S
Cd1 O11 2.262 . S
Cd2 O3 2.240 . S
Cd2 O10 2.223 1_545 S
Cd2 O12 2.297 1_545 S
Cd2 O13 2.439 1_545 S
O3 Cd2 2.240 . S
O3 C8 1.279 . S
O4 Cd1 2.297 . S
O4 C6 1.247 . S
O5 Cd1 2.439 . S
O5 C6 1.208 . S
C6 O4 1.247 . S
C6 O5 1.208 . S
C7 O12 1.247 . S
C7 O13 1.208 . S
C8 O0 1.315 . S
C8 O3 1.279 . S
C9 O10 1.315 . S
C9 O11 1.268 1_565 S
O10 Cd2 2.223 1_565 S
O10 C9 1.315 . S
O11 Cd1 2.262 . S
O11 C9 1.268 1_545 S
O12 Cd2 2.297 1_565 S
O12 C7 1.247 . S
O13 Cd2 2.439 1_565 S
O13 C7 1.208 . S
O14 Cd15 2.223 . S
O14 C22 1.315 1_455 S
Cd15 O14 2.223 . S
Cd15 O18 2.297 . S
Cd15 O19 2.439 . S
Cd15 O25 2.240 . S
Cd16 O17 2.240 1_565 S
Cd16 O24 2.223 1_665 S
Cd16 O26 2.297 1_655 S
Cd16 O27 2.439 1_665 S
O17 Cd16 2.240 1_545 S
O17 C22 1.279 . S
O18 Cd15 2.297 . S
O18 C20 1.247 . S
O19 Cd15 2.439 . S
O19 C20 1.208 . S
C20 O18 1.247 . S
C20 O19 1.208 . S
C21 O26 1.247 . S
C21 O27 1.208 1_565 S
C22 O14 1.315 1_655 S
C22 O17 1.279 . S
C23 O24 1.315 . S
C23 O25 1.279 . S
O24 Cd16 2.223 1_445 S
O24 C23 1.315 . S
O25 Cd15 2.240 . S
O25 C23 1.279 . S
O26 Cd16 2.297 1_455 S
O26 C21 1.247 . S
O27 Cd16 2.439 1_445 S
O27 C21 1.208 1_545 S
O28 Cd29 2.223 1_655 S
O28 C36 1.315 1_565 S
Cd29 O28 2.223 1_455 S
Cd29 O32 2.297 1_455 S
Cd29 O33 2.439 1_455 S
Cd29 O39 2.240 1_565 S
Cd30 O31 2.240 . S
Cd30 O38 2.223 . S
Cd30 O40 2.297 . S
Cd30 O41 2.439 . S
O31 Cd30 2.240 . S
O31 C36 1.279 1_455 S
O32 Cd29 2.297 1_655 S
O32 C34 1.247 . S
O33 Cd29 2.439 1_655 S
O33 C34 1.208 . S
C34 O32 1.247 . S
C34 O33 1.208 . S
C35 O40 1.247 . S
C35 O41 1.208 . S
C36 O28 1.315 1_545 S
C36 O31 1.279 1_655 S
C37 O38 1.315 . S
C37 O39 1.279 . S
O38 Cd30 2.223 . S
O38 C37 1.315 . S
O39 Cd29 2.240 1_545 S
O39 C37 1.279 . S
O40 Cd30 2.297 . S
O40 C35 1.247 . S
O41 Cd30 2.439 . S
O41 C35 1.208 . S
C42 C43 1.443 . S
C42 N46 1.376 . S
C42 C80 1.389 . S
C43 C42 1.443 . S
C43 C44 1.340 . S
C43 H83 0.951 . S
C44 C43 1.340 . S
C44 C45 1.439 . S
C44 H84 0.950 . S
C45 C44 1.439 . S
C45 N46 1.374 . S
C45 C79 1.395 . S
N46 C42 1.376 . S
N46 C45 1.374 . S
N46 Co47 2.008 . S
Co47 N46 2.008 . S
Co47 N48 1.995 . S
Co47 N53 2.008 1_455 S
Co47 N58 1.995 1_455 S
Co47 N63 2.282 . S
Co47 N69 2.282 . S
N48 Co47 1.995 . S
N48 C49 1.376 . S
N48 C52 1.383 . S
C49 N48 1.376 . S
C49 C50 1.446 . S
C49 C79 1.391 . S
C50 C49 1.446 . S
C50 C51 1.339 . S
C50 H85 0.949 . S
C51 C50 1.339 . S
C51 C52 1.439 . S
C51 H86 0.950 . S
C52 N48 1.383 . S
C52 C51 1.439 . S
C52 C81 1.392 . S
N53 Co47 2.008 1_655 S
N53 C54 1.376 . S
N53 C57 1.374 . S
C54 N53 1.376 . S
C54 C55 1.443 . S
C54 C81 1.389 1_655 S
C55 C54 1.443 . S
C55 C56 1.340 . S
C55 H87 0.951 . S
C56 C55 1.340 . S
C56 C57 1.439 . S
C56 H88 0.950 . S
C57 N53 1.374 . S
C57 C56 1.439 . S
C57 C82 1.395 . S
N58 Co47 1.995 1_655 S
N58 C59 1.376 . S
N58 C62 1.383 . S
C59 N58 1.376 . S
C59 C60 1.446 . S
C59 C82 1.391 . S
C60 C59 1.446 . S
C60 C61 1.339 . S
C60 H89 0.949 . S
C61 C60 1.339 . S
C61 C62 1.439 . S
C61 H90 0.950 . S
C62 N58 1.383 . S
C62 C61 1.439 . S
C62 C80 1.392 1_655 S
N63 Co47 2.282 . S
N63 C66 1.332 . S
N63 C68 1.332 . S
C64 C65 1.387 1_455 S
C64 C67 1.388 . S
C65 C64 1.387 1_655 S
C65 C66 1.381 1_655 S
C65 H91 0.949 . S
C66 N63 1.332 . S
C66 C65 1.381 1_455 S
C66 H77 0.952 1_455 S
C67 C64 1.388 . S
C67 C68 1.382 . S
C67 H92 0.950 . S
C68 N63 1.332 . S
C68 C67 1.382 . S
C68 H78 0.948 . S
N69 Co47 2.282 . S
N69 C73 1.332 . S
N69 C74 1.332 1_455 S
C70 C71 1.388 1_655 S
C70 C74 1.382 . S
C70 H93 0.950 . S
C71 C70 1.388 1_455 S
C71 C72 1.386 . S
C72 C71 1.386 . S
C72 C73 1.382 . S
C72 H94 0.950 . S
C73 N69 1.332 . S
C73 C72 1.382 . S
C73 H75 0.952 . S
C74 N69 1.332 1_655 S
C74 C70 1.382 . S
C74 H76 0.948 . S
H75 C73 0.952 . S
H76 C74 0.948 . S
H77 C66 0.952 1_655 S
H78 C68 0.948 . S
C79 C45 1.395 . S
C79 C49 1.391 . S
C80 C42 1.389 . S
C80 C62 1.392 1_455 S
C81 C52 1.392 . S
C81 C54 1.389 1_455 S
C82 C57 1.395 . S
C82 C59 1.391 . S
H83 C43 0.951 . S
H84 C44 0.950 . S
H85 C50 0.949 . S
H86 C51 0.950 . S
H87 C55 0.951 . S
H88 C56 0.950 . S
H89 C60 0.949 . S
H90 C61 0.950 . S
H91 C65 0.949 . S
H92 C67 0.950 . S
H93 C70 0.950 . S
H94 C72 0.950 . S
C95 C96 1.443 1_545 S
C95 N99 1.376 . S
C95 C133 1.389 . S
C96 C95 1.443 1_565 S
C96 C97 1.340 . S
C96 H136 0.951 . S
C97 C96 1.340 . S
C97 C98 1.439 . S
C97 H137 0.950 . S
C98 C97 1.439 . S
C98 N99 1.374 1_565 S
C98 C132 1.395 . S
N99 C95 1.376 . S
N99 C98 1.374 1_545 S
N99 Co100 2.008 . S
Co100 N99 2.008 . S
Co100 N101 1.995 . S
Co100 N106 2.008 . S
Co100 N111 1.995 . S
Co100 N116 2.282 . S
Co100 N122 2.282 . S
N101 Co100 1.995 . S
N101 C102 1.376 1_545 S
N101 C105 1.383 . S
C102 N101 1.376 1_565 S
C102 C103 1.446 . S
C102 C132 1.391 . S
C103 C102 1.446 . S
C103 C104 1.339 . S
C103 H138 0.949 . S
C104 C103 1.339 . S
C104 C105 1.439 1_565 S
C104 H139 0.950 . S
C105 N101 1.383 . S
C105 C104 1.439 1_545 S
C105 C134 1.392 . S
N106 Co100 2.008 . S
N106 C107 1.376 . S
N106 C110 1.374 . S
C107 N106 1.376 . S
C107 C108 1.443 . S
C107 C134 1.389 . S
C108 C107 1.443 . S
C108 C109 1.340 . S
C108 H140 0.951 . S
C109 C108 1.340 . S
C109 C110 1.439 . S
C109 H141 0.950 . S
C110 N106 1.374 . S
C110 C109 1.439 . S
C110 C135 1.395 . S
N111 Co100 1.995 . S
N111 C112 1.376 . S
N111 C115 1.383 . S
C112 N111 1.376 . S
C112 C113 1.446 . S
C112 C135 1.391 . S
C113 C112 1.446 . S
C113 C114 1.339 . S
C113 H142 0.949 . S
C114 C113 1.339 . S
C114 C115 1.439 . S
C114 H143 0.950 . S
C115 N111 1.383 . S
C115 C114 1.439 . S
C115 C133 1.392 . S
N116 Co100 2.282 . S
N116 C119 1.332 . S
N116 C121 1.332 . S
C117 C118 1.386 . S
C117 C120 1.388 . S
C118 C117 1.386 . S
C118 C119 1.382 . S
C118 H144 0.950 . S
C119 N116 1.332 . S
C119 C118 1.382 . S
C119 H130 0.952 . S
C120 C117 1.388 . S
C120 C121 1.382 . S
C120 H145 0.950 1_545 S
C121 N116 1.332 . S
C121 C120 1.382 . S
C121 H131 0.948 1_545 S
N122 Co100 2.282 . S
N122 C126 1.332 . S
N122 C127 1.332 . S
C123 C124 1.388 . S
C123 C127 1.382 . S
C123 H146 0.950 . S
C124 C123 1.388 . S
C124 C125 1.386 . S
C125 C124 1.386 . S
C125 C126 1.382 . S
C125 H147 0.950 1_545 S
C126 N122 1.332 . S
C126 C125 1.382 . S
C126 H128 0.952 1_545 S
C127 N122 1.332 . S
C127 C123 1.382 . S
C127 H129 0.948 . S
H128 C126 0.952 1_565 S
H129 C127 0.948 . S
H130 C119 0.952 . S
H131 C121 0.948 1_565 S
C132 C98 1.395 . S
C132 C102 1.391 . S
C133 C95 1.389 . S
C133 C115 1.392 . S
C134 C105 1.392 . S
C134 C107 1.389 . S
C135 C110 1.395 . S
C135 C112 1.391 . S
H136 C96 0.951 . S
H137 C97 0.950 . S
H138 C103 0.949 . S
H139 C104 0.950 . S
H140 C108 0.951 . S
H141 C109 0.950 . S
H142 C113 0.949 . S
H143 C114 0.950 . S
H144 C118 0.950 . S
H145 C120 0.950 1_565 S
H146 C123 0.950 . S
H147 C125 0.950 1_565 S
C148 C149 1.443 . S
C148 N152 1.376 . S
C148 C186 1.389 . S
C149 C148 1.443 . S
C149 C150 1.340 . S
C149 H189 0.951 . S
C150 C149 1.340 . S
C150 C151 1.439 . S
C150 H190 0.950 . S
C151 C150 1.439 . S
C151 N152 1.374 . S
C151 C185 1.395 . S
N152 C148 1.376 . S
N152 C151 1.374 . S
N152 Co153 2.008 . S
Co153 N152 2.008 . S
Co153 N154 1.995 . S
Co153 N159 2.008 . S
Co153 N164 1.995 . S
Co153 N169 2.282 . S
Co153 N175 2.282 . S
N154 Co153 1.995 . S
N154 C155 1.376 . S
N154 C158 1.383 . S
C155 N154 1.376 . S
C155 C156 1.446 . S
C155 C185 1.391 . S
C156 C155 1.446 . S
C156 C157 1.339 . S
C156 H191 0.949 . S
C157 C156 1.339 . S
C157 C158 1.439 . S
C157 H192 0.950 . S
C158 N154 1.383 . S
C158 C157 1.439 . S
C158 C187 1.392 . S
N159 Co153 2.008 . S
N159 C160 1.376 . S
N159 C163 1.374 . S
C160 N159 1.376 . S
C160 C161 1.443 . S
C160 C187 1.389 . S
C161 C160 1.443 . S
C161 C162 1.340 . S
C161 H193 0.951 . S
C162 C161 1.340 . S
C162 C163 1.439 . S
C162 H194 0.950 . S
C163 N159 1.374 . S
C163 C162 1.439 . S
C163 C188 1.395 . S
N164 Co153 1.995 . S
N164 C165 1.376 . S
N164 C168 1.383 . S
C165 N164 1.376 . S
C165 C166 1.446 . S
C165 C188 1.391 . S
C166 C165 1.446 . S
C166 C167 1.339 . S
C166 H195 0.949 . S
C167 C166 1.339 . S
C167 C168 1.439 . S
C167 H196 0.950 . S
C168 N164 1.383 . S
C168 C167 1.439 . S
C168 C186 1.392 . S
N169 Co153 2.282 . S
N169 C172 1.332 . S
N169 C174 1.332 . S
C170 C171 1.386 . S
C170 C173 1.388 . S
C171 C170 1.386 . S
C171 C172 1.382 . S
C171 H197 0.950 . S
C172 N169 1.332 . S
C172 C171 1.382 . S
C172 H183 0.952 . S
C173 C170 1.388 . S
C173 C174 1.382 . S
C173 H198 0.950 . S
C174 N169 1.332 . S
C174 C173 1.382 . S
C174 H184 0.948 . S
N175 Co153 2.282 . S
N175 C179 1.332 . S
N175 C180 1.332 . S
C176 C177 1.388 . S
C176 C180 1.382 . S
C176 H199 0.950 . S
C177 C176 1.388 . S
C177 C178 1.386 . S
C178 C177 1.386 . S
C178 C179 1.382 . S
C178 H200 0.950 . S
C179 N175 1.332 . S
C179 C178 1.382 . S
C179 H181 0.952 . S
C180 N175 1.332 . S
C180 C176 1.382 . S
C180 H182 0.948 . S
H181 C179 0.952 . S
H182 C180 0.948 . S
H183 C172 0.952 . S
H184 C174 0.948 . S
C185 C151 1.395 . S
C185 C155 1.391 . S
C186 C148 1.389 . S
C186 C168 1.392 . S
C187 C158 1.392 . S
C187 C160 1.389 . S
C188 C163 1.395 . S
C188 C165 1.391 . S
H189 C149 0.951 . S
H190 C150 0.950 . S
H191 C156 0.949 . S
H192 C157 0.950 . S
H193 C161 0.951 . S
H194 C162 0.950 . S
H195 C166 0.949 . S
H196 C167 0.950 . S
H197 C171 0.950 . S
H198 C173 0.950 . S
H199 C176 0.950 . S
H200 C178 0.950 . S
H201 C213 0.930 1_655 S
H202 C215 0.930 . S
H203 C216 0.930 . S
H204 C220 0.959 . S
H205 C220 0.959 . S
H206 C220 0.961 . S
H207 C221 0.960 . S
H208 C221 0.961 . S
H209 C221 0.959 . S
H210 C224 0.929 . S
H211 C225 0.931 . S
H212 C227 0.930 1_655 S
C213 H201 0.930 1_455 S
C213 C214 1.399 . S
C213 C218 1.399 . S
C214 C213 1.399 . S
C214 C215 1.376 . S
C215 H202 0.930 . S
C215 C214 1.376 . S
C215 C216 1.388 . S
C216 H203 0.930 . S
C216 C215 1.388 . S
C216 C217 1.390 . S
C217 C216 1.390 . S
C217 C218 1.394 . S
C217 C223 1.465 . S
C218 C213 1.399 . S
C218 C217 1.394 . S
C218 C219 1.516 1_455 S
C219 C218 1.516 1_655 S
C219 C220 1.502 . S
C219 C221 1.561 . S
C219 C222 1.526 1_655 S
C220 H204 0.959 . S
C220 H205 0.959 . S
C220 H206 0.961 . S
C220 C219 1.502 . S
C221 H207 0.960 . S
C221 H208 0.961 . S
C221 H209 0.959 . S
C221 C219 1.561 . S
C222 C219 1.526 1_455 S
C222 C223 1.396 . S
C222 C227 1.390 . S
C223 C217 1.465 . S
C223 C222 1.396 . S
C223 C224 1.399 . S
C224 H210 0.929 . S
C224 C223 1.399 . S
C224 C225 1.385 . S
C225 H211 0.931 . S
C225 C224 1.385 . S
C225 C226 1.389 . S
C226 C225 1.389 . S
C226 C227 1.387 . S
C227 H212 0.930 1_455 S
C227 C222 1.390 . S
C227 C226 1.387 . S
H228 C240 0.930 . S
H229 C242 0.930 . S
H230 C243 0.930 1_565 S
H231 C247 0.959 . S
H232 C247 0.959 . S
H233 C247 0.961 . S
H234 C248 0.960 . S
H235 C248 0.961 . S
H236 C248 0.959 . S
H237 C251 0.929 1_565 S
H238 C252 0.933 . S
H239 C254 0.930 . S
C240 H228 0.930 . S
C240 C241 1.399 . S
C240 C245 1.399 . S
C241 C240 1.399 . S
C241 C242 1.376 . S
C242 H229 0.930 . S
C242 C241 1.376 . S
C242 C243 1.388 . S
C243 H230 0.930 1_545 S
C243 C242 1.388 . S
C243 C244 1.390 . S
C244 C243 1.390 . S
C244 C245 1.394 . S
C244 C250 1.465 . S
C245 C240 1.399 . S
C245 C244 1.394 . S
C245 C246 1.516 . S
C246 C245 1.516 . S
C246 C247 1.502 . S
C246 C248 1.561 . S
C246 C249 1.526 . S
C247 H231 0.959 . S
C247 H232 0.959 . S
C247 H233 0.961 . S
C247 C246 1.502 . S
C248 H234 0.960 . S
C248 H235 0.961 . S
C248 H236 0.959 . S
C248 C246 1.561 . S
C249 C246 1.526 . S
C249 C250 1.396 . S
C249 C254 1.390 . S
C250 C244 1.465 . S
C250 C249 1.396 . S
C250 C251 1.399 . S
C251 H237 0.929 1_545 S
C251 C250 1.399 . S
C251 C252 1.385 . S
C252 H238 0.933 . S
C252 C251 1.385 . S
C252 C253 1.389 . S
C253 C252 1.389 . S
C253 C254 1.387 . S
C254 H239 0.930 . S
C254 C249 1.390 . S
C254 C253 1.387 . S
H255 C267 0.930 . S
H256 C269 0.930 . S
H257 C270 0.930 . S
H258 C274 0.959 . S
H259 C274 0.959 . S
H260 C274 0.961 . S
H261 C275 0.960 . S
H262 C275 0.961 . S
H263 C275 0.959 . S
H264 C278 0.929 . S
H265 C279 0.931 . S
H266 C281 0.930 . S
C267 H255 0.930 . S
C267 C268 1.399 . S
C267 C272 1.399 . S
C268 C267 1.399 . S
C268 C269 1.376 . S
C269 H256 0.930 . S
C269 C268 1.376 . S
C269 C270 1.388 . S
C270 H257 0.930 . S
C270 C269 1.388 . S
C270 C271 1.390 . S
C271 C270 1.390 . S
C271 C272 1.394 . S
C271 C277 1.465 . S
C272 C267 1.399 . S
C272 C271 1.394 . S
C272 C273 1.516 . S
C273 C272 1.516 . S
C273 C274 1.502 . S
C273 C275 1.561 . S
C273 C276 1.526 . S
C274 H258 0.959 . S
C274 H259 0.959 . S
C274 H260 0.961 . S
C274 C273 1.502 . S
C275 H261 0.960 . S
C275 H262 0.961 . S
C275 H263 0.959 . S
C275 C273 1.561 . S
C276 C273 1.526 . S
C276 C277 1.396 . S
C276 C281 1.390 . S
C277 C271 1.465 . S
C277 C276 1.396 . S
C277 C278 1.399 . S
C278 H264 0.929 . S
C278 C277 1.399 . S
C278 C279 1.385 . S
C279 H265 0.931 . S
C279 C278 1.385 . S
C279 C280 1.389 . S
C280 C279 1.389 . S
C280 C281 1.387 . S
C281 H266 0.930 . S
C281 C276 1.390 . S
C281 C280 1.387 . S
H282 C294 0.930 . S
H283 C296 0.930 1_655 S
H284 C297 0.930 . S
H285 C301 0.959 . S
H286 C301 0.959 . S
H287 C301 0.961 . S
H288 C302 0.960 . S
H289 C302 0.961 . S
H290 C302 0.959 . S
H291 C305 0.929 . S
H292 C306 0.931 . S
H293 C308 0.930 . S
C294 H282 0.930 . S
C294 C295 1.399 . S
C294 C299 1.399 . S
C295 C294 1.399 . S
C295 C296 1.376 . S
C296 H283 0.930 1_455 S
C296 C295 1.376 . S
C296 C297 1.388 1_455 S
C297 H284 0.930 . S
C297 C296 1.388 1_655 S
C297 C298 1.390 1_655 S
C298 C297 1.390 1_455 S
C298 C299 1.394 . S
C298 C304 1.465 . S
C299 C294 1.399 . S
C299 C298 1.394 . S
C299 C300 1.516 . S
C300 C299 1.516 . S
C300 C301 1.502 . S
C300 C302 1.561 . S
C300 C303 1.526 . S
C301 H285 0.959 . S
C301 H286 0.959 . S
C301 H287 0.961 . S
C301 C300 1.502 . S
C302 H288 0.960 . S
C302 H289 0.961 . S
C302 H290 0.959 . S
C302 C300 1.561 . S
C303 C300 1.526 . S
C303 C304 1.396 . S
C303 C308 1.390 . S
C304 C298 1.465 . S
C304 C303 1.396 . S
C304 C305 1.399 1_455 S
C305 H291 0.929 . S
C305 C304 1.399 1_655 S
C305 C306 1.385 . S
C306 H292 0.931 . S
C306 C305 1.385 . S
C306 C307 1.389 1_655 S
C307 C306 1.389 1_455 S
C307 C308 1.387 . S
C308 H293 0.930 . S
C308 C303 1.390 . S
C308 C307 1.387 . S
H309 C321 0.933 . S
H310 C323 0.930 . S
H311 C324 0.930 . S
H312 C328 0.959 1_545 S
H313 C328 0.959 . S
H314 C328 0.961 . S
H315 C329 0.960 . S
H316 C329 0.961 . S
H317 C329 0.959 . S
H318 C332 0.929 . S
H319 C333 0.931 . S
H320 C335 0.930 . S
C321 H309 0.933 . S
C321 C322 1.399 . S
C321 C326 1.399 . S
C322 C321 1.399 . S
C322 C323 1.376 . S
C323 H310 0.930 . S
C323 C322 1.376 . S
C323 C324 1.388 . S
C324 H311 0.930 . S
C324 C323 1.388 . S
C324 C325 1.390 . S
C325 C324 1.390 . S
C325 C326 1.394 . S
C325 C331 1.465 . S
C326 C321 1.399 . S
C326 C325 1.394 . S
C326 C327 1.516 . S
C327 C326 1.516 . S
C327 C328 1.502 1_545 S
C327 C329 1.561 1_545 S
C327 C330 1.526 . S
C328 H312 0.959 1_565 S
C328 H313 0.959 . S
C328 H314 0.961 . S
C328 C327 1.502 1_565 S
C329 H315 0.960 . S
C329 H316 0.961 . S
C329 H317 0.959 . S
C329 C327 1.561 1_565 S
C330 C327 1.526 . S
C330 C331 1.396 . S
C330 C335 1.390 . S
C331 C325 1.465 . S
C331 C330 1.396 . S
C331 C332 1.399 . S
C332 H318 0.929 . S
C332 C331 1.399 . S
C332 C333 1.385 . S
C333 H319 0.931 . S
C333 C332 1.385 . S
C333 C334 1.389 . S
C334 C333 1.389 . S
C334 C335 1.387 . S
C335 H320 0.930 . S
C335 C330 1.390 . S
C335 C334 1.387 . S
H336 C348 0.930 . S
H337 C350 0.930 . S
H338 C351 0.930 . S
H339 C355 0.959 . S
H340 C355 0.959 . S
H341 C355 0.961 . S
H342 C356 0.960 . S
H343 C356 0.961 . S
H344 C356 0.959 . S
H345 C359 0.929 . S
H346 C360 0.931 . S
H347 C362 0.930 . S
C348 H336 0.930 . S
C348 C349 1.399 . S
C348 C353 1.399 . S
C349 C348 1.399 . S
C349 C350 1.376 . S
C350 H337 0.930 . S
C350 C349 1.376 . S
C350 C351 1.388 . S
C351 H338 0.930 . S
C351 C350 1.388 . S
C351 C352 1.390 . S
C352 C351 1.390 . S
C352 C353 1.394 . S
C352 C358 1.465 . S
C353 C348 1.399 . S
C353 C352 1.394 . S
C353 C354 1.516 . S
C354 C353 1.516 . S
C354 C355 1.502 . S
C354 C356 1.561 . S
C354 C357 1.526 . S
C355 H339 0.959 . S
C355 H340 0.959 . S
C355 H341 0.961 . S
C355 C354 1.502 . S
C356 H342 0.960 . S
C356 H343 0.961 . S
C356 H344 0.959 . S
C356 C354 1.561 . S
C357 C354 1.526 . S
C357 C358 1.396 . S
C357 C362 1.390 . S
C358 C352 1.465 . S
C358 C357 1.396 . S
C358 C359 1.399 . S
C359 H345 0.929 . S
C359 C358 1.399 . S
C359 C360 1.385 . S
C360 H346 0.931 . S
C360 C359 1.385 . S
C360 C361 1.389 . S
C361 C360 1.389 . S
C361 C362 1.387 . S
C362 H347 0.930 . S
C362 C357 1.390 . S
C362 C361 1.387 . S
H363 C375 0.930 . S
H364 C377 0.930 . S
H365 C378 0.930 . S
H366 C382 0.959 . S
H367 C382 0.959 . S
H368 C382 0.961 . S
H369 C383 0.960 . S
H370 C383 0.961 . S
H371 C383 0.959 . S
H372 C386 0.929 . S
H373 C387 0.931 1_565 S
H374 C389 0.930 . S
C375 H363 0.930 . S
C375 C376 1.399 . S
C375 C380 1.399 . S
C376 C375 1.399 . S
C376 C377 1.376 1_545 S
C377 H364 0.930 . S
C377 C376 1.376 1_565 S
C377 C378 1.388 . S
C378 H365 0.930 . S
C378 C377 1.388 . S
C378 C379 1.390 1_565 S
C379 C378 1.390 1_545 S
C379 C380 1.394 . S
C379 C385 1.465 . S
C380 C375 1.399 . S
C380 C379 1.394 . S
C380 C381 1.516 . S
C381 C380 1.516 . S
C381 C382 1.502 . S
C381 C383 1.561 . S
C381 C384 1.526 . S
C382 H366 0.959 . S
C382 H367 0.959 . S
C382 H368 0.961 . S
C382 C381 1.502 . S
C383 H369 0.960 . S
C383 H370 0.961 . S
C383 H371 0.959 . S
C383 C381 1.561 . S
C384 C381 1.526 . S
C384 C385 1.396 . S
C384 C389 1.390 . S
C385 C379 1.465 . S
C385 C384 1.396 . S
C385 C386 1.399 1_545 S
C386 H372 0.929 . S
C386 C385 1.399 1_565 S
C386 C387 1.385 1_565 S
C387 H373 0.931 1_545 S
C387 C386 1.385 1_545 S
C387 C388 1.389 . S
C388 C387 1.389 . S
C388 C389 1.387 . S
C389 H374 0.930 . S
C389 C384 1.390 . S
C389 C388 1.387 . S
H390 C402 0.930 . S
H391 C404 0.930 . S
H392 C405 0.930 . S
H393 C409 0.959 . S
H394 C409 0.959 . S
H395 C409 0.961 . S
H396 C410 0.960 . S
H397 C410 0.961 . S
H398 C410 0.959 . S
H399 C413 0.929 . S
H400 C414 0.931 . S
H401 C416 0.930 . S
C402 H390 0.930 . S
C402 C403 1.399 1_556 S
C402 C407 1.399 . S
C403 C402 1.399 1_554 S
C403 C404 1.376 . S
C404 H391 0.930 . S
C404 C403 1.376 . S
C404 C405 1.388 . S
C405 H392 0.930 . S
C405 C404 1.388 . S
C405 C406 1.390 1_554 S
C406 C405 1.390 1_556 S
C406 C407 1.394 . S
C406 C412 1.465 . S
C407 C402 1.399 . S
C407 C406 1.394 . S
C407 C408 1.516 . S
C408 C407 1.516 . S
C408 C409 1.502 . S
C408 C410 1.561 . S
C408 C411 1.526 . S
C409 H393 0.959 . S
C409 H394 0.959 . S
C409 H395 0.961 . S
C409 C408 1.502 . S
C410 H396 0.960 . S
C410 H397 0.961 . S
C410 H398 0.959 . S
C410 C408 1.561 . S
C411 C408 1.526 . S
C411 C412 1.396 . S
C411 C416 1.390 . S
C412 C406 1.465 . S
C412 C411 1.396 . S
C412 C413 1.399 . S
C413 H399 0.929 . S
C413 C412 1.399 . S
C413 C414 1.385 . S
C414 H400 0.931 . S
C414 C413 1.385 . S
C414 C415 1.389 . S
C415 C414 1.389 . S
C415 C416 1.387 . S
C416 H401 0.930 . S
C416 C411 1.390 . S
C416 C415 1.387 . S
H417 C429 0.930 1_655 S
H418 C431 0.930 . S
H419 C432 0.930 . S
H420 C436 0.959 . S
H421 C436 0.959 . S
H422 C436 0.961 . S
H423 C437 0.960 . S
H424 C437 0.961 . S
H425 C437 0.959 . S
H426 C440 0.929 . S
H427 C441 0.931 . S
H428 C443 0.930 1_655 S
C429 H417 0.930 1_455 S
C429 C430 1.399 . S
C429 C434 1.399 . S
C430 C429 1.399 . S
C430 C431 1.376 . S
C431 H418 0.930 . S
C431 C430 1.376 . S
C431 C432 1.388 . S
C432 H419 0.930 . S
C432 C431 1.388 . S
C432 C433 1.390 . S
C433 C432 1.390 . S
C433 C434 1.394 . S
C433 C439 1.465 . S
C434 C429 1.399 . S
C434 C433 1.394 . S
C434 C435 1.516 1_455 S
C435 C434 1.516 1_655 S
C435 C436 1.502 . S
C435 C437 1.561 . S
C435 C438 1.526 1_655 S
C436 H420 0.959 . S
C436 H421 0.959 . S
C436 H422 0.961 . S
C436 C435 1.502 . S
C437 H423 0.960 . S
C437 H424 0.961 . S
C437 H425 0.959 . S
C437 C435 1.561 . S
C438 C435 1.526 1_455 S
C438 C439 1.396 . S
C438 C443 1.390 . S
C439 C433 1.465 . S
C439 C438 1.396 . S
C439 C440 1.399 . S
C440 H426 0.929 . S
C440 C439 1.399 . S
C440 C441 1.385 . S
C441 H427 0.931 . S
C441 C440 1.385 . S
C441 C442 1.389 . S
C442 C441 1.389 . S
C442 C443 1.387 . S
C443 H428 0.930 1_455 S
C443 C438 1.390 . S
C443 C442 1.387 . S
H444 C456 0.930 . S
H445 C458 0.930 1_565 S
H446 C459 0.930 1_565 S
H447 C463 0.959 . S
H448 C463 0.959 . S
H449 C463 0.961 . S
H450 C464 0.960 . S
H451 C464 0.961 . S
H452 C464 0.959 . S
H453 C467 0.929 1_565 S
H454 C468 0.931 1_565 S
H455 C470 0.930 . S
C456 H444 0.930 . S
C456 C457 1.399 . S
C456 C461 1.399 . S
C457 C456 1.399 . S
C457 C458 1.376 . S
C458 H445 0.930 1_545 S
C458 C457 1.376 . S
C458 C459 1.388 . S
C459 H446 0.930 1_545 S
C459 C458 1.388 . S
C459 C460 1.390 . S
C460 C459 1.390 . S
C460 C461 1.394 . S
C460 C466 1.465 . S
C461 C456 1.399 . S
C461 C460 1.394 . S
C461 C462 1.516 . S
C462 C461 1.516 . S
C462 C463 1.502 . S
C462 C464 1.561 . S
C462 C465 1.526 . S
C463 H447 0.959 . S
C463 H448 0.959 . S
C463 H449 0.961 . S
C463 C462 1.502 . S
C464 H450 0.960 . S
C464 H451 0.961 . S
C464 H452 0.959 . S
C464 C462 1.561 . S
C465 C462 1.526 . S
C465 C466 1.396 . S
C465 C470 1.390 . S
C466 C460 1.465 . S
C466 C465 1.396 . S
C466 C467 1.399 . S
C467 H453 0.929 1_545 S
C467 C466 1.399 . S
C467 C468 1.385 . S
C468 H454 0.931 1_545 S
C468 C467 1.385 . S
C468 C469 1.389 . S
C469 C468 1.389 . S
C469 C470 1.387 . S
C470 H455 0.930 . S
C470 C465 1.390 . S
C470 C469 1.387 . S
H471 C483 0.930 . S
H472 C485 0.930 . S
H473 C486 0.930 . S
H474 C490 0.959 . S
H475 C490 0.959 . S
H476 C490 0.961 . S
H477 C491 0.960 . S
H478 C491 0.961 . S
H479 C491 0.959 . S
H480 C494 0.929 . S
H481 C495 0.931 . S
H482 C497 0.930 . S
C483 H471 0.930 . S
C483 C484 1.399 1_556 S
C483 C488 1.399 . S
C484 C483 1.399 1_554 S
C484 C485 1.376 . S
C485 H472 0.930 . S
C485 C484 1.376 . S
C485 C486 1.388 . S
C486 H473 0.930 . S
C486 C485 1.388 . S
C486 C487 1.390 1_554 S
C487 C486 1.390 1_556 S
C487 C488 1.394 . S
C487 C493 1.465 . S
C488 C483 1.399 . S
C488 C487 1.394 . S
C488 C489 1.516 . S
C489 C488 1.516 . S
C489 C490 1.502 . S
C489 C491 1.561 . S
C489 C492 1.526 . S
C490 H474 0.959 . S
C490 H475 0.959 . S
C490 H476 0.961 . S
C490 C489 1.502 . S
C491 H477 0.960 . S
C491 H478 0.961 . S
C491 H479 0.959 . S
C491 C489 1.561 . S
C492 C489 1.526 . S
C492 C493 1.396 . S
C492 C497 1.390 . S
C493 C487 1.465 . S
C493 C492 1.396 . S
C493 C494 1.399 . S
C494 H480 0.929 . S
C494 C493 1.399 . S
C494 C495 1.385 . S
C495 H481 0.931 . S
C495 C494 1.385 . S
C495 C496 1.389 . S
C496 C495 1.389 . S
C496 C497 1.387 . S
C497 H482 0.930 . S
C497 C492 1.390 . S
C497 C496 1.387 . S
H498 C510 0.930 . S
H499 C512 0.930 . S
H500 C513 0.930 . S
H501 C517 0.959 . S
H502 C517 0.959 . S
H503 C517 0.961 . S
H504 C518 0.960 . S
H505 C518 0.961 . S
H506 C518 0.959 . S
H507 C521 0.929 . S
H508 C522 0.931 . S
H509 C524 0.930 . S
C510 H498 0.930 . S
C510 C511 1.399 . S
C510 C515 1.399 . S
C511 C510 1.399 . S
C511 C512 1.376 . S
C512 H499 0.930 . S
C512 C511 1.376 . S
C512 C513 1.388 . S
C513 H500 0.930 . S
C513 C512 1.388 . S
C513 C514 1.390 . S
C514 C513 1.390 . S
C514 C515 1.394 . S
C514 C520 1.465 . S
C515 C510 1.399 . S
C515 C514 1.394 . S
C515 C516 1.516 . S
C516 C515 1.516 . S
C516 C517 1.502 . S
C516 C518 1.561 1_455 S
C516 C519 1.526 . S
C517 H501 0.959 . S
C517 H502 0.959 . S
C517 H503 0.961 . S
C517 C516 1.502 . S
C518 H504 0.960 . S
C518 H505 0.961 . S
C518 H506 0.959 . S
C518 C516 1.561 1_655 S
C519 C516 1.526 . S
C519 C520 1.396 . S
C519 C524 1.390 . S
C520 C514 1.465 . S
C520 C519 1.396 . S
C520 C521 1.399 . S
C521 H507 0.929 . S
C521 C520 1.399 . S
C521 C522 1.385 . S
C522 H508 0.931 . S
C522 C521 1.385 . S
C522 C523 1.389 . S
C523 C522 1.389 . S
C523 C524 1.387 . S
C524 H509 0.930 . S
C524 C519 1.390 . S
C524 C523 1.387 . S
C226 C64 1.475 . S
C214 C6 1.481 . S
C241 C22 1.570 . S
C253 C134 1.587 . S
C268 C34 1.284 . S
C280 C186 1.274 . S
C295 C7 1.472 . S
C307 C80 1.478 . S
C334 C124 1.582 . S
C322 C23 1.571 . S
C349 C35 1.264 . S
C361 C170 1.290 . S
C388 C117 1.577 . S
C376 C36 1.548 . S
C403 C9 1.730 1_655 S
C415 C177 1.794 . S
C442 C71 1.475 . S
C430 C21 1.477 . S
C469 C133 1.585 . S
C457 C37 1.574 . S
C496 C187 1.820 . S
C484 C8 1.768 . S
C511 C20 1.440 . S
C523 C81 1.469 . S
