# Generated by pormake.
# Topology apo, (3,6)-cn, num edge types: 1
# Building blocks:
#     Node 0, Type 0, BuildingBlock: WUSLED_clean_sbu_0, # of connection points: 3
#     Node 1, Type 0, BuildingBlock: WUSLED_clean_sbu_0, # of connection points: 3
#     Node 2, Type 0, BuildingBlock: WUSLED_clean_sbu_0, # of connection points: 3
#     Node 3, Type 0, BuildingBlock: WUSLED_clean_sbu_0, # of connection points: 3
#     Node 4, Type 0, BuildingBlock: WUSLED_clean_sbu_0, # of connection points: 3
#     Node 5, Type 0, BuildingBlock: WUSLED_clean_sbu_0, # of connection points: 3
#     Node 6, Type 0, BuildingBlock: WUSLED_clean_sbu_0, # of connection points: 3
#     Node 7, Type 0, BuildingBlock: WUSLED_clean_sbu_0, # of connection points: 3
#     Node 8, Type 1, BuildingBlock: KUMBOL_clean_sbu_1, # of connection points: 6
#     Node 9, Type 1, BuildingBlock: KUMBOL_clean_sbu_1, # of connection points: 6
#     Node 10, Type 1, BuildingBlock: KUMBOL_clean_sbu_1, # of connection points: 6
#     Node 11, Type 1, BuildingBlock: KUMBOL_clean_sbu_1, # of connection points: 6
#     Edge 12, Type (0, 1), BuildingBlock: UVAHIK_clean_linker_0, # of connection points: 2
#     Edge 13, Type (0, 1), BuildingBlock: UVAHIK_clean_linker_0, # of connection points: 2
#     Edge 14, Type (0, 1), BuildingBlock: UVAHIK_clean_linker_0, # of connection points: 2
#     Edge 15, Type (0, 1), BuildingBlock: UVAHIK_clean_linker_0, # of connection points: 2
#     Edge 16, Type (0, 1), BuildingBlock: UVAHIK_clean_linker_0, # of connection points: 2
#     Edge 17, Type (0, 1), BuildingBlock: UVAHIK_clean_linker_0, # of connection points: 2
#     Edge 18, Type (0, 1), BuildingBlock: UVAHIK_clean_linker_0, # of connection points: 2
#     Edge 19, Type (0, 1), BuildingBlock: UVAHIK_clean_linker_0, # of connection points: 2
#     Edge 20, Type (0, 1), BuildingBlock: UVAHIK_clean_linker_0, # of connection points: 2
#     Edge 21, Type (0, 1), BuildingBlock: UVAHIK_clean_linker_0, # of connection points: 2
#     Edge 22, Type (0, 1), BuildingBlock: UVAHIK_clean_linker_0, # of connection points: 2
#     Edge 23, Type (0, 1), BuildingBlock: UVAHIK_clean_linker_0, # of connection points: 2
#     Edge 24, Type (0, 1), BuildingBlock: UVAHIK_clean_linker_0, # of connection points: 2
#     Edge 25, Type (0, 1), BuildingBlock: UVAHIK_clean_linker_0, # of connection points: 2
#     Edge 26, Type (0, 1), BuildingBlock: UVAHIK_clean_linker_0, # of connection points: 2
#     Edge 27, Type (0, 1), BuildingBlock: UVAHIK_clean_linker_0, # of connection points: 2
#     Edge 28, Type (0, 1), BuildingBlock: UVAHIK_clean_linker_0, # of connection points: 2
#     Edge 29, Type (0, 1), BuildingBlock: UVAHIK_clean_linker_0, # of connection points: 2
#     Edge 30, Type (0, 1), BuildingBlock: UVAHIK_clean_linker_0, # of connection points: 2
#     Edge 31, Type (0, 1), BuildingBlock: UVAHIK_clean_linker_0, # of connection points: 2
#     Edge 32, Type (0, 1), BuildingBlock: UVAHIK_clean_linker_0, # of connection points: 2
#     Edge 33, Type (0, 1), BuildingBlock: UVAHIK_clean_linker_0, # of connection points: 2
#     Edge 34, Type (0, 1), BuildingBlock: UVAHIK_clean_linker_0, # of connection points: 2
#     Edge 35, Type (0, 1), BuildingBlock: UVAHIK_clean_linker_0, # of connection points: 2
# Relax obj value: 0.011
# Max RMSD: 0.090
# Mean RMSD: 0.069
data_MOF--net-apo--node1-WUSLED_clean_sbu_0--node2-KUMBOL_clean_sbu_1--edge1-UVAHIK_clean_linker_0
_symmetry_space_group_name_H-M    P1
_symmetry_Int_Tables_number       1
_symmetry_cell_setting            triclinic
loop_
_symmetry_equiv_pos_as_xyz
'x, y, z'
_cell_length_a     38.326815
_cell_length_b     67.876416
_cell_length_c     79.609971
_cell_angle_alpha  90.356304
_cell_angle_beta   90.139997
_cell_angle_gamma 90.920742
loop_
_atom_site_label
_atom_site_type_symbol
_atom_site_fract_x
_atom_site_fract_y
_atom_site_fract_z
_atom_type_partial_charge
C0 C 0.30501 0.42023 0.38637 0.0
C1 C 0.3315 0.43101 0.39468 0.0
C2 C 0.33323 0.45483 0.37185 0.0
C3 C 0.34557 0.44814 0.38746 0.0
C4 C 0.30636 0.44405 0.36373 0.0
C5 C 0.29244 0.42692 0.37093 0.0
U6 U 0.28988 0.38435 0.42276 0.0
O7 O 0.24308 0.36672 0.42905 0.0
O8 O 0.29189 0.35195 0.42278 0.0
C9 C 0.25832 0.34991 0.42577 0.0
C10 C 0.29057 0.40185 0.39342 0.0
C11 C 0.23925 0.3364 0.41432 0.0
C12 C 0.21 0.32957 0.3877 0.0
C13 C 0.22763 0.34271 0.39853 0.0
C14 C 0.21564 0.30367 0.40828 0.0
C15 C 0.20391 0.30985 0.39242 0.0
C16 C 0.2331 0.31683 0.41911 0.0
C17 C 0.32782 0.39754 0.46645 0.0
C18 C 0.3151 0.38019 0.49243 0.0
C19 C 0.35993 0.40575 0.49198 0.0
C20 C 0.35351 0.40871 0.47489 0.0
C21 C 0.34069 0.39154 0.50102 0.0
C22 C 0.30873 0.38317 0.47529 0.0
C23 C 0.32127 0.4014 0.44854 0.0
O24 O 0.31358 0.38873 0.39793 0.0
O25 O 0.26525 0.4039 0.40436 0.0
O26 O 0.2887 0.40472 0.44434 0.0
O27 O 0.33736 0.38991 0.43783 0.0
H28 H 0.34141 0.42612 0.40668 0.0
H29 H 0.36594 0.45621 0.39413 0.0
H30 H 0.29655 0.44862 0.35162 0.0
H31 H 0.27204 0.41876 0.36433 0.0
H32 H 0.20169 0.33476 0.37552 0.0
H33 H 0.23236 0.35775 0.39456 0.0
H34 H 0.21102 0.28868 0.41241 0.0
H35 H 0.24189 0.3117 0.43125 0.0
H36 H 0.29957 0.36926 0.49902 0.0
H37 H 0.38023 0.4145 0.49806 0.0
H38 H 0.36862 0.4198 0.46825 0.0
H39 H 0.28877 0.37438 0.46897 0.0
C40 C 0.21424 0.15164 0.97179 0.0
C41 C 0.18848 0.13797 0.97677 0.0
C42 C 0.19246 0.1501 1.00567 0.0
C43 C 0.17767 0.1372 0.99357 0.0
C44 C 0.21861 0.16357 1.00056 0.0
C45 C 0.22931 0.16433 0.98379 0.0
U46 U 0.21847 0.13195 0.92655 0.0
O47 O 0.21449 0.14773 0.90261 0.0
O48 O 0.26255 0.13214 0.90881 0.0
C49 C 0.24679 0.14392 0.89829 0.0
C50 C 0.22559 0.15306 0.95417 0.0
C51 C 0.26792 0.16059 0.89187 0.0
C52 C 0.28248 0.19558 0.89055 0.0
C53 C 0.26338 0.17997 0.89767 0.0
C54 C 0.31151 0.17257 0.87211 0.0
C55 C 0.30662 0.19207 0.87759 0.0
C56 C 0.29232 0.15703 0.87917 0.0
C57 C 0.17388 0.08301 0.91428 0.0
C58 C 0.14884 0.07271 0.88742 0.0
C59 C 0.17105 0.04828 0.90654 0.0
C60 C 0.18022 0.06321 0.918 0.0
C61 C 0.15504 0.05285 0.89117 0.0
C62 C 0.15831 0.08766 0.89881 0.0
C63 C 0.1833 0.09845 0.92676 0.0
O64 O 0.24846 0.14001 0.94928 0.0
O65 O 0.20073 0.15586 0.94307 0.0
O66 O 0.16853 0.11567 0.92491 0.0
O67 O 0.21657 0.09987 0.93071 0.0
H68 H 0.17657 0.12801 0.96765 0.0
H69 H 0.1573 0.12676 0.99701 0.0
H70 H 0.23107 0.17346 1.00954 0.0
H71 H 0.24938 0.1749 0.98019 0.0
H72 H 0.27838 0.2104 0.89518 0.0
H73 H 0.24482 0.18307 0.90754 0.0
H74 H 0.3295 0.16935 0.86203 0.0
H75 H 0.29613 0.14219 0.87449 0.0
H76 H 0.13691 0.07671 0.8756 0.0
H77 H 0.17587 0.03311 0.90986 0.0
H78 H 0.19212 0.05926 0.92984 0.0
H79 H 0.15333 0.10281 0.89551 0.0
C80 C 0.80899 0.09507 0.64219 0.0
C81 C 0.84102 0.08741 0.63692 0.0
C82 C 0.83556 0.06076 0.65725 0.0
C83 C 0.85421 0.07044 0.64441 0.0
C84 C 0.80304 0.06825 0.66212 0.0
C85 C 0.78999 0.08523 0.65469 0.0
U86 U 0.7947 0.13249 0.60668 0.0
O87 O 0.74836 0.15005 0.60117 0.0
O88 O 0.79777 0.16489 0.60783 0.0
C89 C 0.76423 0.16682 0.60494 0.0
C90 C 0.79544 0.11362 0.63539 0.0
C91 C 0.74567 0.1796 0.61683 0.0
C92 C 0.71979 0.1855 0.64423 0.0
C93 C 0.73764 0.17318 0.63311 0.0
C94 C 0.71804 0.21079 0.62292 0.0
C95 C 0.70968 0.20447 0.63926 0.0
C96 C 0.73584 0.19847 0.61183 0.0
C97 C 0.82988 0.12223 0.56217 0.0
C98 C 0.84752 0.14536 0.5404 0.0
C99 C 0.83302 0.11156 0.53298 0.0
C100 C 0.82603 0.10748 0.54985 0.0
C101 C 0.84423 0.13049 0.52806 0.0
C102 C 0.84029 0.1413 0.55729 0.0
C103 C 0.82415 0.11711 0.57998 0.0
O104 O 0.81884 0.1271 0.63125 0.0
O105 O 0.76977 0.11187 0.62447 0.0
O106 O 0.79172 0.11319 0.58432 0.0
O107 O 0.8413 0.12779 0.59122 0.0
H108 H 0.85612 0.09472 0.62724 0.0
H109 H 0.87945 0.06522 0.64043 0.0
H110 H 0.7876 0.061 0.67171 0.0
H111 H 0.76514 0.09084 0.65888 0.0
H112 H 0.71347 0.18005 0.65663 0.0
H113 H 0.74504 0.15863 0.63718 0.0
H114 H 0.71121 0.22539 0.61875 0.0
H115 H 0.74199 0.20369 0.59933 0.0
H116 H 0.85567 0.16015 0.537 0.0
H117 H 0.83056 0.09972 0.52384 0.0
H118 H 0.81812 0.09266 0.55334 0.0
H119 H 0.84322 0.153 0.56652 0.0
C120 C 0.69798 0.36118 0.05754 0.0
C121 C 0.70113 0.37952 0.04955 0.0
C122 C 0.67768 0.36533 0.02356 0.0
C123 C 0.69126 0.38155 0.0327 0.0
C124 C 0.67409 0.34707 0.03171 0.0
C125 C 0.68423 0.34503 0.0485 0.0
U126 U 0.70524 0.37927 0.10308 0.0
O127 O 0.6968 0.36332 0.12681 0.0
O128 O 0.74784 0.37706 0.12148 0.0
C129 C 0.72929 0.36598 0.13173 0.0
C130 C 0.70886 0.35852 0.07521 0.0
C131 C 0.74662 0.34871 0.13896 0.0
C132 C 0.79121 0.32356 0.13853 0.0
C133 C 0.7735 0.33885 0.13057 0.0
C134 C 0.75473 0.32747 0.16308 0.0
C135 C 0.78236 0.31789 0.15499 0.0
C136 C 0.73715 0.34271 0.15515 0.0
C137 C 0.66804 0.42938 0.11516 0.0
C138 C 0.68126 0.44746 0.14096 0.0
C139 C 0.6302 0.45556 0.12457 0.0
C140 C 0.63841 0.44088 0.11292 0.0
C141 C 0.6516 0.45916 0.1387 0.0
C142 C 0.68934 0.43266 0.12931 0.0
C143 C 0.67579 0.41392 0.1027 0.0
O144 O 0.73438 0.37009 0.08068 0.0
O145 O 0.68338 0.35643 0.0861 0.0
O146 O 0.65809 0.39732 0.10443 0.0
O147 O 0.70893 0.4113 0.09923 0.0
H148 H 0.71132 0.39229 0.05629 0.0
H149 H 0.69398 0.39585 0.02686 0.0
H150 H 0.66408 0.33425 0.025 0.0
H151 H 0.68153 0.33075 0.05442 0.0
H152 H 0.81248 0.31658 0.13197 0.0
H153 H 0.78128 0.34322 0.11805 0.0
H154 H 0.74674 0.32326 0.17561 0.0
H155 H 0.71644 0.35009 0.16183 0.0
H156 H 0.6985 0.44989 0.15159 0.0
H157 H 0.60676 0.46394 0.12257 0.0
H158 H 0.62147 0.43845 0.10216 0.0
H159 H 0.71226 0.42383 0.13135 0.0
C160 C 0.70411 0.59584 0.63636 0.0
C161 C 0.66974 0.58902 0.63361 0.0
C162 C 0.67968 0.56074 0.65172 0.0
C163 C 0.65764 0.57168 0.64125 0.0
C164 C 0.71435 0.56738 0.65404 0.0
C165 C 0.72634 0.58476 0.64648 0.0
U166 U 0.71608 0.63434 0.60117 0.0
O167 O 0.71299 0.66664 0.60284 0.0
O168 O 0.76213 0.65291 0.59555 0.0
C169 C 0.74641 0.66928 0.59977 0.0
C170 C 0.71695 0.61483 0.62957 0.0
C171 C 0.76536 0.68205 0.61185 0.0
C172 C 0.79048 0.68792 0.63956 0.0
C173 C 0.77266 0.67555 0.62817 0.0
C174 C 0.79379 0.71341 0.61844 0.0
C175 C 0.80131 0.70703 0.63483 0.0
C176 C 0.776 0.70103 0.60707 0.0
C177 C 0.67834 0.62374 0.55694 0.0
C178 C 0.68987 0.64334 0.532 0.0
C179 C 0.64849 0.61603 0.53068 0.0
C180 C 0.65453 0.61216 0.54767 0.0
C181 C 0.6662 0.63159 0.52258 0.0
C182 C 0.69584 0.63947 0.54906 0.0
C183 C 0.685 0.61874 0.57464 0.0
O184 O 0.74206 0.61386 0.6184 0.0
O185 O 0.69326 0.62793 0.62587 0.0
O186 O 0.66863 0.62932 0.58594 0.0
O187 O 0.7177 0.61547 0.57863 0.0
H188 H 0.652 0.59726 0.62583 0.0
H189 H 0.6307 0.56718 0.6393 0.0
H190 H 0.73229 0.55919 0.66174 0.0
H191 H 0.75298 0.5897 0.64874 0.0
H192 H 0.79615 0.68242 0.65199 0.0
H193 H 0.76461 0.66091 0.63207 0.0
H194 H 0.80122 0.72811 0.61443 0.0
H195 H 0.77042 0.70633 0.59456 0.0
H196 H 0.70369 0.65556 0.52622 0.0
H197 H 0.63052 0.60649 0.5238 0.0
H198 H 0.64088 0.59991 0.55352 0.0
H199 H 0.71426 0.64862 0.55604 0.0
C200 C 0.79936 0.86479 0.05273 0.0
C201 C 0.80467 0.88367 0.04603 0.0
C202 C 0.82153 0.86939 0.01907 0.0
C203 C 0.81548 0.88595 0.02936 0.0
C204 C 0.81649 0.85049 0.02596 0.0
C205 C 0.80547 0.84824 0.0426 0.0
U206 U 0.79236 0.88329 0.0979 0.0
O207 O 0.7484 0.88238 0.11565 0.0
O208 O 0.79735 0.86769 0.1219 0.0
C209 C 0.76506 0.87127 0.12638 0.0
C210 C 0.78757 0.86215 0.07022 0.0
C211 C 0.74498 0.85465 0.13348 0.0
C212 C 0.72351 0.82073 0.13277 0.0
C213 C 0.74217 0.83631 0.1253 0.0
C214 C 0.71018 0.84179 0.1565 0.0
C215 C 0.70728 0.8233 0.14849 0.0
C216 C 0.72879 0.85726 0.14906 0.0
C217 C 0.83313 0.93309 0.10984 0.0
C218 C 0.82564 0.94768 0.13754 0.0
C219 C 0.86485 0.96308 0.11753 0.0
C220 C 0.85676 0.94827 0.1058 0.0
C221 C 0.84939 0.963 0.13356 0.0
C222 C 0.81762 0.93284 0.12578 0.0
C223 C 0.82522 0.91754 0.09738 0.0
O224 O 0.81247 0.85989 0.0814 0.0
O225 O 0.76307 0.87413 0.07531 0.0
O226 O 0.7921 0.91523 0.0934 0.0
O227 O 0.8411 0.90078 0.09977 0.0
H228 H 0.80025 0.89667 0.05365 0.0
H229 H 0.81857 0.90073 0.02449 0.0
H230 H 0.82141 0.8374 0.01855 0.0
H231 H 0.80174 0.83354 0.04759 0.0
H232 H 0.72155 0.80674 0.12619 0.0
H233 H 0.75447 0.83405 0.11322 0.0
H234 H 0.69861 0.84423 0.16872 0.0
H235 H 0.73083 0.87129 0.1556 0.0
H236 H 0.81296 0.94726 0.14967 0.0
H237 H 0.88367 0.97442 0.11412 0.0
H238 H 0.86912 0.94861 0.09357 0.0
H239 H 0.79931 0.92119 0.12912 0.0
C240 C 0.20236 0.91581 0.38298 0.0
C241 C 0.17078 0.92397 0.3883 0.0
C242 C 0.17583 0.94948 0.36693 0.0
C243 C 0.1576 0.94062 0.38032 0.0
C244 C 0.20787 0.94147 0.36196 0.0
C245 C 0.2209 0.92479 0.36988 0.0
U246 U 0.21726 0.88067 0.42002 0.0
O247 O 0.2146 0.84831 0.42058 0.0
O248 O 0.26411 0.86369 0.42612 0.0
C249 C 0.24831 0.84669 0.42321 0.0
C250 C 0.21606 0.89769 0.39049 0.0
C251 C 0.26663 0.83327 0.41173 0.0
C252 C 0.2777 0.82057 0.38365 0.0
C253 C 0.26046 0.83362 0.39435 0.0
C254 C 0.30799 0.80694 0.40754 0.0
C255 C 0.30163 0.807 0.39011 0.0
C256 C 0.2906 0.81993 0.41823 0.0
C257 C 0.18269 0.89369 0.46423 0.0
C258 C 0.15512 0.87544 0.48705 0.0
C259 C 0.19048 0.90444 0.49325 0.0
C260 C 0.19706 0.90687 0.47612 0.0
C261 C 0.16902 0.88885 0.49895 0.0
C262 C 0.16186 0.87782 0.46988 0.0
C263 C 0.18803 0.89755 0.4461 0.0
O264 O 0.24185 0.90014 0.40125 0.0
O265 O 0.19277 0.88446 0.39529 0.0
O266 O 0.1708 0.88617 0.4354 0.0
O267 O 0.22028 0.90141 0.4414 0.0
H268 H 0.15606 0.91731 0.39845 0.0
H269 H 0.13271 0.94625 0.3844 0.0
H270 H 0.22299 0.9481 0.35194 0.0
H271 H 0.24542 0.91879 0.36565 0.0
H272 H 0.27181 0.82091 0.37035 0.0
H273 H 0.24213 0.84389 0.38907 0.0
H274 H 0.32666 0.79698 0.41295 0.0
H275 H 0.29589 0.81955 0.4316 0.0
H276 H 0.13819 0.86339 0.49092 0.0
H277 H 0.20217 0.91486 0.50204 0.0
H278 H 0.2131 0.91926 0.47212 0.0
H279 H 0.1502 0.86743 0.46106 0.0
C280 C 0.30893 0.6552 0.96798 0.0
C281 C 0.30978 0.63786 0.97752 0.0
C282 C 0.33197 0.65639 1.00179 0.0
C283 C 0.32109 0.63846 0.99428 0.0
C284 C 0.33154 0.67362 0.99204 0.0
C285 C 0.32006 0.67302 0.97536 0.0
U286 U 0.29973 0.63172 0.92415 0.0
O287 O 0.25466 0.63074 0.90687 0.0
O288 O 0.30365 0.64526 0.89921 0.0
C289 C 0.2708 0.64141 0.89547 0.0
C290 C 0.29633 0.65518 0.95043 0.0
C291 C 0.25079 0.65767 0.88816 0.0
C292 C 0.24029 0.6926 0.88407 0.0
C293 C 0.25814 0.67749 0.89218 0.0
C294 C 0.20688 0.66825 0.86821 0.0
C295 C 0.21472 0.68816 0.87181 0.0
C296 C 0.22478 0.6532 0.87627 0.0
C297 C 0.34065 0.58203 0.9146 0.0
C298 C 0.33253 0.56531 0.88774 0.0
C299 C 0.37331 0.55258 0.90813 0.0
C300 C 0.36508 0.56791 0.91918 0.0
C301 C 0.35717 0.55108 0.89225 0.0
C302 C 0.3244 0.58067 0.89881 0.0
C303 C 0.33294 0.59827 0.92626 0.0
O304 O 0.32055 0.65692 0.93885 0.0
O305 O 0.2719 0.64208 0.94656 0.0
O306 O 0.29994 0.60018 0.93034 0.0
O307 O 0.34854 0.61515 0.92286 0.0
H308 H 0.30146 0.62389 0.97208 0.0
H309 H 0.32074 0.62493 1.00141 0.0
H310 H 0.34036 0.68762 0.99724 0.0
H311 H 0.31984 0.68654 0.96819 0.0
H312 H 0.24722 0.70774 0.88707 0.0
H313 H 0.27809 0.68131 0.90135 0.0
H314 H 0.1869 0.66424 0.85911 0.0
H315 H 0.21862 0.63801 0.87302 0.0
H316 H 0.31931 0.5645 0.87572 0.0
H317 H 0.3928 0.54212 0.91192 0.0
H318 H 0.37805 0.56882 0.93128 0.0
H319 H 0.30548 0.5915 0.89505 0.0
C320 C 0.87997 0.13277 0.2696 0.0
C321 C 0.87291 0.09714 0.26999 0.0
C322 C 0.89372 0.11424 0.27242 0.0
C323 C 0.83817 0.09892 0.26462 0.0
C324 C 0.84504 0.1346 0.26431 0.0
C325 C 0.82429 0.11759 0.26178 0.0
N326 N 0.9007 0.14897 0.27205 0.0
C327 C 0.88787 0.16744 0.27005 0.0
C328 C 0.83199 0.1535 0.26176 0.0
C329 C 0.85345 0.16999 0.26473 0.0
Gd330 Gd 0.0404 0.1464 0.24891 0.0
Gd331 Gd 0.95818 0.14303 0.28044 0.0
N332 N 0.92781 0.11295 0.27707 0.0
C333 C 0.88772 0.07876 0.27293 0.0
C334 C 0.94201 0.09513 0.28055 0.0
C335 C 0.92234 0.07777 0.27834 0.0
H336 H 0.96847 0.09418 0.28497 0.0
H337 H 0.93386 0.06363 0.28087 0.0
H338 H 0.01521 0.18852 0.22991 0.0
H339 H 0.90399 0.18022 0.27289 0.0
H340 H 0.02937 0.22392 0.23142 0.0
H341 H 0.87261 0.06527 0.27117 0.0
H342 H 0.82182 0.08594 0.26262 0.0
H343 H 0.10489 0.12339 0.26843 0.0
H344 H 0.8053 0.15553 0.25768 0.0
H345 H 0.84343 0.18467 0.26306 0.0
H346 H 0.13115 0.22758 0.26649 0.0
H347 H 0.79742 0.11871 0.25767 0.0
H348 H 0.17883 0.16694 0.28593 0.0
H349 H 0.15982 0.13202 0.28337 0.0
N350 N 0.09324 0.1531 0.26276 0.0
C351 C 0.10355 0.17234 0.26367 0.0
C352 C 0.11312 0.13865 0.2695 0.0
C353 C 0.15486 0.16323 0.27931 0.0
C354 C 0.14418 0.14349 0.27792 0.0
C355 C 0.13454 0.17794 0.27212 0.0
H356 H 0.16759 0.20258 0.27984 0.0
N357 N 0.05286 0.18052 0.2482 0.0
C358 C 0.08255 0.18646 0.25636 0.0
C359 C 0.07244 0.2202 0.24847 0.0
C360 C 0.0927 0.20651 0.257 0.0
C361 C 0.03525 0.19354 0.23847 0.0
C362 C 0.04404 0.21361 0.23885 0.0
O363 O 0.95198 0.12704 0.25535 0.0
O364 O 0.00713 0.11901 0.24589 0.0
O365 O 0.04481 0.14999 0.22186 0.0
O366 O 0.08269 0.13279 0.23509 0.0
O367 O 0.00568 0.12491 0.28698 0.0
O368 O 0.03834 0.11776 0.26307 0.0
O369 O 0.04462 0.15547 0.27639 0.0
O370 O 0.99269 0.1702 0.28104 0.0
O371 O 0.9677 0.13655 0.30676 0.0
O372 O 0.92272 0.15339 0.29967 0.0
O373 O 0.98783 0.1582 0.24063 0.0
O374 O 0.96492 0.17054 0.26507 0.0
C375 C 0.97305 0.11653 0.24595 0.0
C376 C 0.02889 0.11438 0.27875 0.0
C377 C 0.10182 0.15007 0.21092 0.0
C378 C 0.12763 0.15773 0.18359 0.0
C379 C 0.15334 0.17121 0.20927 0.0
C380 C 0.12778 0.16165 0.2188 0.0
C381 C 0.15328 0.16933 0.1918 0.0
C382 C 0.10195 0.14805 0.1933 0.0
C383 C 0.07391 0.14049 0.2208 0.0
C384 C 0.12318 0.21221 0.26573 0.0
C385 C 0.14403 0.19797 0.27326 0.0
H386 H 0.07937 0.23574 0.24863 0.0
C387 C 0.02633 0.16922 0.28367 0.0
C388 C 0.96673 0.17019 0.2486 0.0
C389 C 0.94806 0.16043 0.32605 0.0
C390 C 0.9452 0.16818 0.35608 0.0
C391 C 0.96973 0.19199 0.33639 0.0
C392 C 0.96326 0.17899 0.32308 0.0
C393 C 0.96074 0.1867 0.35277 0.0
C394 C 0.93907 0.15506 0.34253 0.0
C395 C 0.9412 0.14666 0.31203 0.0
H396 H 0.17329 0.18011 0.21546 0.0
H397 H 0.12837 0.16332 0.23229 0.0
H398 H 0.17362 0.17677 0.18472 0.0
H399 H 0.08172 0.13925 0.18717 0.0
H400 H 0.98146 0.20632 0.33399 0.0
H401 H 0.96981 0.18345 0.31045 0.0
H402 H 0.96538 0.19729 0.36279 0.0
H403 H 0.92754 0.14063 0.34478 0.0
C404 C 0.61208 0.4003 0.76327 0.0
C405 C 0.60343 0.43358 0.77356 0.0
C406 C 0.5928 0.41359 0.77269 0.0
C407 C 0.63251 0.44011 0.7643 0.0
C408 C 0.64182 0.40671 0.75432 0.0
C409 C 0.65169 0.42671 0.75474 0.0
N410 N 0.60114 0.38115 0.7625 0.0
C411 C 0.61952 0.36748 0.75371 0.0
C412 C 0.66047 0.39284 0.74501 0.0
C413 C 0.64937 0.37313 0.74478 0.0
Gd414 Gd 0.46422 0.37198 0.74901 0.0
Gd415 Gd 0.5513 0.37301 0.77809 0.0
N416 N 0.56453 0.40688 0.78144 0.0
C417 C 0.58515 0.44631 0.7841 0.0
C418 C 0.54924 0.4188 0.79307 0.0
C419 C 0.55844 0.43878 0.79419 0.0
H420 H 0.53082 0.41293 0.80198 0.0
H421 H 0.54549 0.44824 0.80313 0.0
H422 H 0.47343 0.32332 0.74199 0.0
H423 H 0.61099 0.35224 0.75358 0.0
H424 H 0.43988 0.29257 0.74641 0.0
H425 H 0.59249 0.46175 0.78513 0.0
H426 H 0.64078 0.45545 0.7647 0.0
H427 H 0.41191 0.40863 0.76043 0.0
H428 H 0.68344 0.3972 0.73795 0.0
H429 H 0.66374 0.36229 0.7377 0.0
H430 H 0.33162 0.3139 0.77005 0.0
H431 H 0.67422 0.43196 0.74779 0.0
H432 H 0.31587 0.38327 0.77811 0.0
H433 H 0.35313 0.41263 0.77258 0.0
N434 N 0.40829 0.37739 0.75971 0.0
C435 C 0.38809 0.36108 0.76241 0.0
C436 C 0.39608 0.39574 0.76312 0.0
C437 C 0.34173 0.38143 0.77291 0.0
C438 C 0.3627 0.39805 0.76984 0.0
C439 C 0.35426 0.36266 0.76913 0.0
H440 H 0.30807 0.34643 0.77708 0.0
N441 N 0.43449 0.34169 0.75236 0.0
C442 C 0.40141 0.34269 0.75849 0.0
C443 C 0.39543 0.30725 0.75688 0.0
C444 C 0.38117 0.32547 0.76111 0.0
C445 C 0.448 0.32404 0.74762 0.0
C446 C 0.42887 0.30656 0.74998 0.0
O447 O 0.55181 0.38379 0.75099 0.0
O448 O 0.49936 0.39876 0.74874 0.0
O449 O 0.46825 0.36636 0.72214 0.0
O450 O 0.42843 0.38565 0.73154 0.0
O451 O 0.50095 0.3853 0.78877 0.0
O452 O 0.47465 0.39856 0.76548 0.0
O453 O 0.46037 0.35621 0.77395 0.0
O454 O 0.51552 0.34678 0.78253 0.0
O455 O 0.56648 0.37549 0.80479 0.0
O456 O 0.59469 0.35642 0.78751 0.0
O457 O 0.5105 0.35416 0.74017 0.0
O458 O 0.54444 0.34508 0.76302 0.0
C459 C 0.53255 0.39798 0.74507 0.0
C460 C 0.47898 0.39766 0.78186 0.0
C461 C 0.41506 0.36707 0.70709 0.0
C462 C 0.39202 0.36117 0.67875 0.0
C463 C 0.36495 0.34528 0.70285 0.0
C464 C 0.38907 0.3545 0.71354 0.0
C465 C 0.36636 0.34854 0.68559 0.0
C466 C 0.41639 0.37046 0.68966 0.0
C467 C 0.44082 0.37661 0.71844 0.0
C468 C 0.34751 0.32698 0.76788 0.0
C469 C 0.3341 0.34551 0.77188 0.0
H470 H 0.38074 0.29367 0.75873 0.0
C471 C 0.48127 0.34518 0.78288 0.0
C472 C 0.53392 0.34286 0.74735 0.0
C473 C 0.61652 0.35734 0.81609 0.0
C474 C 0.63663 0.35777 0.84531 0.0
C475 C 0.67014 0.34097 0.82384 0.0
C476 C 0.64584 0.34624 0.81171 0.0
C477 C 0.66572 0.34676 0.8405 0.0
C478 C 0.61179 0.36294 0.83304 0.0
C479 C 0.59209 0.36335 0.80268 0.0
H480 H 0.34493 0.33564 0.70799 0.0
H481 H 0.38724 0.35187 0.72683 0.0
H482 H 0.34692 0.34143 0.67762 0.0
H483 H 0.43651 0.38013 0.68461 0.0
H484 H 0.69262 0.33245 0.8203 0.0
H485 H 0.65025 0.34172 0.79882 0.0
H486 H 0.68496 0.34245 0.84971 0.0
H487 H 0.58939 0.37154 0.83662 0.0
C488 C 0.90797 0.84016 0.77159 0.0
C489 C 0.9173 0.8092 0.78572 0.0
C490 C 0.92812 0.82863 0.78196 0.0
C491 C 0.88698 0.80128 0.77814 0.0
C492 C 0.87657 0.83268 0.76466 0.0
C493 C 0.86662 0.81301 0.76764 0.0
N494 N 0.91854 0.85901 0.76879 0.0
C495 C 0.89767 0.87176 0.76039 0.0
C496 C 0.85578 0.84537 0.75525 0.0
C497 C 0.86613 0.86508 0.75333 0.0
Gd498 Gd 0.05273 0.86941 0.74703 0.0
Gd499 Gd 0.97224 0.86893 0.78039 0.0
N500 N 0.95691 0.83689 0.78929 0.0
C501 C 0.9365 0.79862 0.7975 0.0
C502 C 0.97375 0.82727 0.80186 0.0
C503 C 0.96445 0.80784 0.80585 0.0
H504 H 0.9941 0.83459 0.80902 0.0
H505 H 0.9785 0.80012 0.81553 0.0
H506 H 0.05014 0.91393 0.73025 0.0
H507 H 0.90583 0.88696 0.75886 0.0
H508 H 0.08379 0.94543 0.73139 0.0
H509 H 0.92908 0.78365 0.80074 0.0
H510 H 0.87847 0.78631 0.78073 0.0
H511 H 0.10696 0.83531 0.76314 0.0
H512 H 0.83142 0.8402 0.74973 0.0
H513 H 0.84993 0.87509 0.74637 0.0
H514 H 0.1784 0.93224 0.76925 0.0
H515 H 0.84281 0.80689 0.76225 0.0
H516 H 0.19168 0.86563 0.78749 0.0
H517 H 0.15998 0.83459 0.78058 0.0
N518 N 0.10533 0.86662 0.76227 0.0
C519 C 0.12385 0.88365 0.76481 0.0
C520 C 0.11909 0.84905 0.76699 0.0
C521 C 0.16762 0.86609 0.78034 0.0
C522 C 0.14976 0.84855 0.77651 0.0
C523 C 0.15534 0.88388 0.77402 0.0
H524 H 0.19836 0.90214 0.78316 0.0
N525 N 0.08288 0.89971 0.74781 0.0
C526 C 0.11267 0.90064 0.75706 0.0
C527 C 0.12163 0.93461 0.74903 0.0
C528 C 0.13253 0.91824 0.75819 0.0
C529 C 0.07298 0.91525 0.73819 0.0
C530 C 0.09201 0.933 0.73879 0.0
O531 O 0.96386 0.8577 0.75373 0.0
O532 O 0.01568 0.84316 0.74724 0.0
O533 O 0.04859 0.87184 0.71977 0.0
O534 O 0.09187 0.8567 0.73076 0.0
O535 O 0.02306 0.85446 0.78783 0.0
O536 O 0.04545 0.84203 0.76313 0.0
O537 O 0.04366 0.8951 0.76494 0.0
O538 O 0.02625 0.87848 0.78811 0.0
O539 O 0.94617 0.87033 0.80491 0.0
O540 O 0.95377 0.89687 0.78981 0.0
O541 O 0.00378 0.88454 0.73825 0.0
O542 O 0.97421 0.89468 0.76231 0.0
C543 C 0.98153 0.84386 0.74612 0.0
C544 C 0.0406 0.84101 0.77951 0.0
C545 C 0.10298 0.87471 0.70602 0.0
C546 C 0.12172 0.88461 0.67791 0.0
C547 C 0.15264 0.89702 0.70261 0.0
C548 C 0.13027 0.88621 0.71295 0.0
C549 C 0.14839 0.8963 0.68522 0.0
C550 C 0.09899 0.8738 0.68844 0.0
C551 C 0.07864 0.8638 0.71707 0.0
C552 C 0.16297 0.91878 0.76804 0.0
C553 C 0.1743 0.90165 0.77599 0.0
H554 H 0.13627 0.94839 0.7495 0.0
C555 C 0.04108 0.89393 0.78132 0.0
C556 C 0.98222 0.89637 0.74621 0.0
C557 C 0.92443 0.90138 0.81652 0.0
C558 C 0.90565 0.90715 0.84548 0.0
C559 C 0.89837 0.9325 0.82437 0.0
C560 C 0.91326 0.92033 0.81229 0.0
C561 C 0.89475 0.92604 0.84087 0.0
C562 C 0.9201 0.8947 0.83315 0.0
C563 C 0.9419 0.88924 0.80366 0.0
H564 H 0.17351 0.90588 0.70809 0.0
H565 H 0.13451 0.88679 0.72636 0.0
H566 H 0.16645 0.90461 0.67744 0.0
H567 H 0.0781 0.86487 0.68299 0.0
H568 H 0.88984 0.94707 0.82097 0.0
H569 H 0.91616 0.92583 0.79961 0.0
H570 H 0.8832 0.93581 0.85004 0.0
H571 H 0.92898 0.8802 0.83663 0.0
C572 C 0.61191 0.67523 0.2643 0.0
C573 C 0.60145 0.70806 0.27508 0.0
C574 C 0.59209 0.68791 0.27399 0.0
C575 C 0.63001 0.71532 0.26582 0.0
C576 C 0.64128 0.6823 0.25544 0.0
C577 C 0.64992 0.70247 0.25607 0.0
N578 N 0.60204 0.65594 0.26333 0.0
C579 C 0.62166 0.64262 0.2548 0.0
C580 C 0.66093 0.66886 0.24614 0.0
C581 C 0.65126 0.64891 0.24596 0.0
Gd582 Gd 0.46791 0.64537 0.24707 0.0
Gd583 Gd 0.55231 0.64657 0.27842 0.0
N584 N 0.56448 0.68044 0.28275 0.0
C585 C 0.58237 0.72024 0.28578 0.0
C586 C 0.54793 0.69192 0.29431 0.0
C587 C 0.55594 0.71204 0.29568 0.0
H588 H 0.52912 0.68565 0.30286 0.0
H589 H 0.54212 0.72114 0.30458 0.0
H590 H 0.46694 0.59851 0.23433 0.0
H591 H 0.61404 0.62721 0.25465 0.0
H592 H 0.42787 0.56912 0.23602 0.0
H593 H 0.5887 0.7358 0.28697 0.0
H594 H 0.63731 0.7308 0.26638 0.0
H595 H 0.41861 0.68408 0.2575 0.0
H596 H 0.68368 0.67372 0.23915 0.0
H597 H 0.66651 0.63839 0.23896 0.0
H598 H 0.32628 0.59279 0.26456 0.0
H599 H 0.67213 0.70824 0.24916 0.0
H600 H 0.32134 0.66201 0.27654 0.0
H601 H 0.36128 0.69008 0.27048 0.0
N602 N 0.41277 0.6529 0.25797 0.0
C603 C 0.39045 0.63741 0.26022 0.0
C604 C 0.40206 0.6717 0.26082 0.0
C605 C 0.34684 0.65928 0.27125 0.0
C606 C 0.36932 0.67516 0.26787 0.0
C607 C 0.35693 0.64015 0.26703 0.0
H608 H 0.30851 0.62563 0.27427 0.0
N609 N 0.43253 0.61692 0.24792 0.0
C610 C 0.40039 0.61891 0.25476 0.0
C611 C 0.3876 0.58446 0.24942 0.0
C612 C 0.3772 0.60265 0.25595 0.0
C613 C 0.44198 0.59958 0.24054 0.0
C614 C 0.41995 0.583 0.24146 0.0
O615 O 0.5535 0.65652 0.25117 0.0
O616 O 0.50221 0.67242 0.2488 0.0
O617 O 0.48121 0.64325 0.22062 0.0
O618 O 0.43156 0.65504 0.22793 0.0
O619 O 0.50147 0.65824 0.28878 0.0
O620 O 0.47579 0.67103 0.26514 0.0
O621 O 0.47262 0.62034 0.26575 0.0
O622 O 0.50379 0.63207 0.28889 0.0
O623 O 0.57942 0.65061 0.30253 0.0
O624 O 0.58476 0.62327 0.2881 0.0
O625 O 0.51488 0.62779 0.23935 0.0
O626 O 0.54653 0.61854 0.26298 0.0
C627 C 0.53549 0.67132 0.24545 0.0
C628 C 0.47851 0.66973 0.28157 0.0
C629 C 0.45645 0.66681 0.20281 0.0
C630 C 0.4507 0.6773 0.1736 0.0
C631 C 0.47356 0.7 0.19495 0.0
C632 C 0.46954 0.68553 0.20719 0.0
C633 C 0.46418 0.69598 0.17828 0.0
C634 C 0.44708 0.66273 0.18605 0.0
C635 C 0.45256 0.65136 0.21555 0.0
C636 C 0.34433 0.60514 0.26336 0.0
C637 C 0.33424 0.62384 0.26892 0.0
H638 H 0.37057 0.5716 0.25012 0.0
C639 C 0.48149 0.6197 0.28173 0.0
C640 C 0.53627 0.61592 0.24726 0.0
C641 C 0.61729 0.62543 0.31431 0.0
C642 C 0.64005 0.6246 0.34308 0.0
C643 C 0.66558 0.60421 0.32122 0.0
C644 C 0.64201 0.61145 0.30951 0.0
C645 C 0.6647 0.61072 0.33786 0.0
C646 C 0.61629 0.63195 0.33117 0.0
C647 C 0.5934 0.63332 0.30149 0.0
H648 H 0.48371 0.71444 0.1984 0.0
H649 H 0.47646 0.68894 0.22007 0.0
H650 H 0.46689 0.70764 0.16913 0.0
H651 H 0.43728 0.64815 0.18272 0.0
H652 H 0.68461 0.59346 0.31739 0.0
H653 H 0.64341 0.60627 0.29663 0.0
H654 H 0.68301 0.60462 0.34674 0.0
H655 H 0.59728 0.64275 0.33498 0.0
C656 C 0.16464 0.96838 0.3404 0.0
C657 C 0.16126 0.96674 0.35793 0.0
C658 C 0.15095 0.98448 0.33188 0.0
C659 C 0.11988 0.03549 0.33851 0.0
H660 H 0.07658 0.02717 0.29491 0.0
C661 C 0.03995 0.09536 0.30512 0.0
C662 C 0.04508 0.09774 0.28775 0.0
C663 C 0.0548 0.0796 0.31364 0.0
C664 C 0.08892 0.02977 0.30699 0.0
H665 H 0.14089 0.98099 0.38023 0.0
H666 H 0.11612 1.00876 0.36533 0.0
H667 H 0.10058 0.99927 0.30993 0.0
H668 H 0.07002 0.08531 0.26575 0.0
H669 H 0.09591 0.0578 0.28064 0.0
H670 H 0.10773 0.06598 0.33561 0.0
C671 C 0.12988 0.99772 0.35818 0.0
C672 C 0.10274 0.01378 0.31561 0.0
C673 C 0.14371 0.98164 0.36671 0.0
C674 C 0.06552 0.08396 0.27912 0.0
C675 C 0.08019 0.06811 0.28763 0.0
C676 C 0.10588 0.05147 0.32992 0.0
C677 C 0.1333 0.99935 0.34064 0.0
C678 C 0.11845 0.01642 0.33149 0.0
C679 C 0.07499 0.06574 0.30499 0.0
C680 C 0.09025 0.0488 0.31405 0.0
H681 H 0.17755 0.95709 0.33316 0.0
H682 H 0.1545 0.98532 0.31842 0.0
H683 H 0.13229 0.03816 0.35056 0.0
H684 H 0.0244 0.10566 0.31221 0.0
H685 H 0.04997 0.07808 0.32697 0.0
C686 C 0.37247 0.51576 0.88634 0.0
C687 C 0.36642 0.53489 0.8804 0.0
C688 C 0.38227 0.50072 0.87532 0.0
C689 C 0.42157 0.49268 0.83342 0.0
H690 H 0.38734 0.43911 0.8394 0.0
C691 C 0.45206 0.43074 0.78591 0.0
C692 C 0.46221 0.41262 0.79265 0.0
C693 C 0.43833 0.44539 0.79627 0.0
C694 C 0.39733 0.45397 0.83764 0.0
H695 H 0.36584 0.55307 0.85809 0.0
H696 H 0.38204 0.52674 0.83883 0.0
H697 H 0.36695 0.46521 0.85799 0.0
H698 H 0.46532 0.3955 0.81546 0.0
H699 H 0.4414 0.42111 0.8336 0.0
H700 H 0.45196 0.48143 0.81309 0.0
C701 C 0.37969 0.52343 0.85207 0.0
C702 C 0.38569 0.46894 0.84832 0.0
C703 C 0.36995 0.53849 0.8631 0.0
C704 C 0.45771 0.40932 0.80991 0.0
C705 C 0.44383 0.42395 0.82027 0.0
C706 C 0.4331 0.47773 0.82272 0.0
C707 C 0.38622 0.50437 0.85805 0.0
C708 C 0.39779 0.48848 0.8464 0.0
C709 C 0.43432 0.44224 0.8136 0.0
C710 C 0.42124 0.45818 0.82474 0.0
H711 H 0.36957 0.51236 0.89954 0.0
H712 H 0.38741 0.48629 0.88042 0.0
H713 H 0.43195 0.50747 0.83174 0.0
H714 H 0.45548 0.43382 0.77267 0.0
H715 H 0.43092 0.45923 0.79069 0.0
C716 C 0.67685 0.53885 0.67717 0.0
C717 C 0.66633 0.54282 0.66059 0.0
C718 C 0.66367 0.52238 0.68568 0.0
C719 C 0.58833 0.48817 0.68633 0.0
H720 H 0.64776 0.45628 0.71438 0.0
C721 C 0.53287 0.43242 0.73415 0.0
C722 C 0.54852 0.41387 0.73487 0.0
C723 C 0.54794 0.44762 0.72474 0.0
C724 C 0.63089 0.46497 0.70651 0.0
H725 H 0.63419 0.5321 0.63988 0.0
H726 H 0.61085 0.50355 0.65485 0.0
H727 H 0.67327 0.48349 0.69828 0.0
H728 H 0.5916 0.39651 0.72586 0.0
H729 H 0.61847 0.42324 0.70965 0.0
H730 H 0.54596 0.46972 0.69457 0.0
C731 C 0.62912 0.51334 0.66128 0.0
C732 C 0.64543 0.48066 0.69741 0.0
C733 C 0.64246 0.52975 0.65272 0.0
C734 C 0.57939 0.41078 0.72582 0.0
C735 C 0.5947 0.42606 0.71652 0.0
C736 C 0.57377 0.47261 0.69553 0.0
C737 C 0.63944 0.50951 0.67789 0.0
C738 C 0.6243 0.49247 0.68724 0.0
C739 C 0.57906 0.44464 0.71583 0.0
C740 C 0.59484 0.46088 0.70577 0.0
H741 H 0.69467 0.54874 0.68377 0.0
H742 H 0.67178 0.52002 0.69855 0.0
H743 H 0.57127 0.49709 0.67875 0.0
H744 H 0.50915 0.4353 0.74106 0.0
H745 H 0.53547 0.46183 0.72462 0.0
C746 C 0.86293 0.97417 0.16315 0.0
C747 C 0.85836 0.97873 0.14608 0.0
C748 C 0.87253 0.98884 0.17478 0.0
C749 C 0.87669 0.04321 0.18097 0.0
H750 H 0.94635 0.03071 0.21447 0.0
C751 C 0.92186 0.0996 0.23185 0.0
C752 C 0.95782 0.10046 0.2354 0.0
C753 C 0.90773 0.0844 0.22186 0.0
C754 C 0.92699 0.03449 0.20515 0.0
H755 H 0.85936 1.00252 0.12801 0.0
H756 H 0.87694 0.02794 0.14815 0.0
H757 H 0.92548 1.00516 0.19516 0.0
H758 H 0.00711 0.08599 0.23111 0.0
H759 H 0.9827 0.05987 0.21343 0.0
H760 H 0.87913 0.07273 0.1906 0.0
C761 C 0.87275 0.01306 0.15261 0.0
C762 C 0.91467 0.01975 0.19419 0.0
C763 C 0.86311 0.9984 0.141 0.0
C764 C 0.9793 0.08581 0.22866 0.0
C765 C 0.96522 0.07068 0.21864 0.0
C766 C 0.88904 0.05797 0.19192 0.0
C767 C 0.87783 1.00846 0.16964 0.0
C768 C 0.8896 0.02395 0.18185 0.0
C769 C 0.92927 0.06977 0.21508 0.0
C770 C 0.91464 0.05384 0.20404 0.0
H771 H 0.8598 0.95916 0.16751 0.0
H772 H 0.8758 0.98479 0.18781 0.0
H773 H 0.85704 0.04693 0.17177 0.0
H774 H 0.90461 0.11078 0.23663 0.0
H775 H 0.87988 0.08409 0.2195 0.0
C776 C 0.84597 0.04081 0.68328 0.0
C777 C 0.85021 0.04325 0.66586 0.0
C778 C 0.85962 0.02446 0.69144 0.0
C779 C 0.92642 0.98622 0.68755 0.0
H780 H 0.87128 0.95959 0.72158 0.0
C781 C 0.97214 0.91448 0.7192 0.0
C782 C 0.96609 0.91253 0.73654 0.0
C783 C 0.95747 0.92994 0.71019 0.0
C784 C 0.88721 0.96698 0.71225 0.0
H785 H 0.87211 0.03015 0.64339 0.0
H786 H 0.89625 1.00169 0.6577 0.0
H787 H 0.84692 0.98742 0.7066 0.0
H788 H 0.93971 0.92545 0.75795 0.0
H789 H 0.91464 0.95246 0.74232 0.0
H790 H 0.96689 0.96596 0.69334 0.0
C791 C 0.88252 0.01258 0.66504 0.0
C792 C 0.8732 0.98293 0.70364 0.0
C793 C 0.8687 0.02891 0.65684 0.0
C794 C 0.94486 0.92639 0.74461 0.0
C795 C 0.93027 0.94186 0.7356 0.0
C796 C 0.9405 0.97031 0.69621 0.0
C797 C 0.87805 0.01013 0.68244 0.0
C798 C 0.89268 0.99281 0.69124 0.0
C799 C 0.93642 0.94387 0.71827 0.0
C800 C 0.92115 0.96053 0.70874 0.0
H801 H 0.83255 0.05173 0.69072 0.0
H802 H 0.85624 0.02323 0.7049 0.0
H803 H 0.94229 0.99365 0.67822 0.0
H804 H 0.98825 0.90408 0.71253 0.0
H805 H 0.96239 0.93085 0.69683 0.0
C806 C 0.64756 0.47245 0.16835 0.0
C807 C 0.64275 0.47503 0.15096 0.0
C808 C 0.63766 0.4871 0.17979 0.0
C809 C 0.57709 0.52816 0.18368 0.0
H810 H 0.63617 0.54647 0.22038 0.0
C811 C 0.54541 0.59857 0.21988 0.0
C812 C 0.55057 0.59929 0.23736 0.0
C813 C 0.5576 0.58284 0.21035 0.0
C814 C 0.61914 0.54132 0.21035 0.0
H815 H 0.62531 0.49557 0.13203 0.0
H816 H 0.60749 0.52078 0.15194 0.0
H817 H 0.65607 0.51997 0.20187 0.0
H818 H 0.5733 0.58404 0.25849 0.0
H819 H 0.59421 0.55621 0.24178 0.0
H820 H 0.54002 0.54916 0.19208 0.0
C821 C 0.61846 0.50732 0.15673 0.0
C822 C 0.63059 0.52619 0.19973 0.0
C823 C 0.62859 0.4928 0.14532 0.0
C824 C 0.56885 0.58395 0.24505 0.0
C825 C 0.58095 0.56804 0.23546 0.0
C826 C 0.56556 0.5431 0.19432 0.0
C827 C 0.62249 0.50456 0.1741 0.0
C828 C 0.60991 0.51972 0.1861 0.0
C829 C 0.5751 0.56721 0.218 0.0
C830 C 0.58668 0.55018 0.2076 0.0
H831 H 0.65807 0.4589 0.17318 0.0
H832 H 0.64091 0.48453 0.19311 0.0
H833 H 0.56022 0.52319 0.17351 0.0
H834 H 0.53189 0.6102 0.21342 0.0
H835 H 0.55339 0.58301 0.19689 0.0
C836 C 0.32719 0.48628 0.35562 0.0
C837 C 0.34861 0.47275 0.36387 0.0
C838 C 0.34169 0.50265 0.34748 0.0
C839 C 0.42195 0.53382 0.34479 0.0
H840 H 0.38371 0.548 0.30146 0.0
C841 C 0.48852 0.59117 0.301 0.0
C842 C 0.46658 0.60379 0.29212 0.0
C843 C 0.4744 0.57551 0.31029 0.0
C844 C 0.39446 0.54441 0.31363 0.0
H845 H 0.4022 0.46597 0.37007 0.0
H846 H 0.42753 0.49451 0.35583 0.0
H847 H 0.35857 0.52025 0.3167 0.0
H848 H 0.41297 0.61113 0.28718 0.0
H849 H 0.38808 0.58368 0.30299 0.0
H850 H 0.45798 0.55798 0.34164 0.0
C851 C 0.39943 0.49259 0.35585 0.0
C852 C 0.38001 0.52848 0.32239 0.0
C853 C 0.3849 0.47621 0.36402 0.0
C854 C 0.43037 0.60098 0.29316 0.0
C855 C 0.4162 0.58536 0.30239 0.0
C856 C 0.43645 0.54977 0.33601 0.0
C857 C 0.37803 0.50594 0.34735 0.0
C858 C 0.3935 0.52299 0.3381 0.0
C859 C 0.43804 0.57228 0.31093 0.0
C860 C 0.42283 0.55529 0.32033 0.0
H861 H 0.2991 0.48425 0.3555 0.0
H862 H 0.32436 0.51282 0.34135 0.0
H863 H 0.43272 0.53018 0.35694 0.0
H864 H 0.5166 0.59316 0.30045 0.0
H865 H 0.492 0.56568 0.31663 0.0
C866 C 0.11152 0.0371 0.87139 0.0
C867 C 0.14443 0.03692 0.8792 0.0
C868 C 0.10114 0.02187 0.86047 0.0
C869 C 0.12154 0.97016 0.84888 0.0
H870 H 0.06398 0.98134 0.8101 0.0
C871 C 0.05565 0.90802 0.8097 0.0
C872 C 0.05333 0.91044 0.79221 0.0
C873 C 0.06733 0.92353 0.82002 0.0
C874 C 0.08036 0.97794 0.82075 0.0
H875 H 0.19262 0.02085 0.88133 0.0
H876 H 0.1749 0.99448 0.86203 0.0
H877 H 0.08429 1.00826 0.8281 0.0
H878 H 0.06034 0.93128 0.77198 0.0
H879 H 0.08221 0.95802 0.78978 0.0
H880 H 0.11853 0.93992 0.84124 0.0
C881 C 0.15666 1.00612 0.86464 0.0
C882 C 0.09162 0.99339 0.83125 0.0
C883 C 0.16691 0.02127 0.87568 0.0
C884 C 0.06261 0.92877 0.78532 0.0
C885 C 0.07463 0.94423 0.79561 0.0
C886 C 0.11048 0.95473 0.83832 0.0
C887 C 0.12354 1.00614 0.85696 0.0
C888 C 0.11221 0.98972 0.84552 0.0
C889 C 0.07714 0.94184 0.81312 0.0
C890 C 0.08956 0.95837 0.82416 0.0
H891 H 0.09343 0.04881 0.87402 0.0
H892 H 0.07522 0.02225 0.85505 0.0
H893 H 0.13699 0.96667 0.85984 0.0
H894 H 0.04847 0.89413 0.81545 0.0
H895 H 0.06821 0.92121 0.83346 0.0
C896 C 0.17727 0.16734 0.03269 0.0
C897 C 0.18071 0.14969 0.02353 0.0
C898 C 0.16739 0.16708 0.04958 0.0
C899 C 0.16483 0.13474 0.08687 0.0
H900 H 0.10695 0.17607 0.10498 0.0
C901 C 0.12371 0.13742 0.15702 0.0
C902 C 0.12797 0.15588 0.16494 0.0
C903 C 0.12641 0.13565 0.13952 0.0
C904 C 0.12326 0.16447 0.10014 0.0
H905 H 0.17599 0.11787 0.02507 0.0
H906 H 0.15799 0.11743 0.05447 0.0
H907 H 0.11829 0.17469 0.07489 0.0
H908 H 0.13703 0.18705 0.16064 0.0
H909 H 0.14179 0.18398 0.13021 0.0
H910 H 0.16991 0.12462 0.1122 0.0
C911 C 0.16343 0.1315 0.04861 0.0
C912 C 0.12986 0.16369 0.08287 0.0
C913 C 0.17338 0.13176 0.03168 0.0
C914 C 0.13398 0.17259 0.15494 0.0
C915 C 0.13637 0.17085 0.13747 0.0
C916 C 0.15808 0.13546 0.10415 0.0
C917 C 0.1605 0.14916 0.05782 0.0
C918 C 0.15123 0.14902 0.07603 0.0
C919 C 0.13302 0.15234 0.12955 0.0
C920 C 0.1377 0.15054 0.11103 0.0
H921 H 0.18217 0.18145 0.0268 0.0
H922 H 0.16586 0.18098 0.05627 0.0
H923 H 0.18172 0.12336 0.08212 0.0
H924 H 0.11923 0.12426 0.16439 0.0
H925 H 0.12342 0.12121 0.13379 0.0
C926 C 0.35423 0.405 0.52991 0.0
C927 C 0.34733 0.3887 0.51933 0.0
C928 C 0.36112 0.4024 0.54702 0.0
C929 C 0.38902 0.36488 0.57778 0.0
H930 H 0.35052 0.40108 0.61046 0.0
C931 C 0.38698 0.34893 0.64899 0.0
C932 C 0.39256 0.36468 0.66029 0.0
C933 C 0.3843 0.35227 0.63173 0.0
C934 C 0.36191 0.391 0.60149 0.0
H935 H 0.34236 0.35684 0.51858 0.0
H936 H 0.35357 0.35233 0.54847 0.0
H937 H 0.33925 0.40594 0.58063 0.0
H938 H 0.40061 0.39629 0.66222 0.0
H939 H 0.39633 0.40214 0.63199 0.0
H940 H 0.41133 0.34982 0.59868 0.0
C941 C 0.35414 0.36714 0.54348 0.0
C942 C 0.35541 0.39377 0.58437 0.0
C943 C 0.34725 0.36974 0.52635 0.0
C944 C 0.39648 0.38382 0.65385 0.0
C945 C 0.39364 0.38719 0.63655 0.0
C946 C 0.39547 0.3621 0.59491 0.0
C947 C 0.36125 0.38344 0.55404 0.0
C948 C 0.3687 0.38068 0.57228 0.0
C949 C 0.38707 0.37147 0.62529 0.0
C950 C 0.38182 0.37505 0.607 0.0
H951 H 0.35407 0.41984 0.52501 0.0
H952 H 0.36678 0.41529 0.5547 0.0
H953 H 0.40024 0.35472 0.56884 0.0
H954 H 0.38422 0.33397 0.65352 0.0
H955 H 0.37898 0.33983 0.62348 0.0
C956 C 0.63721 0.35845 0.99916 0.0
C957 C 0.66799 0.36729 1.00551 0.0
C958 C 0.62876 0.35975 0.98208 0.0
C959 C 0.65159 0.38708 0.94287 0.0
H960 H 0.61297 0.34054 0.92077 0.0
C961 C 0.66122 0.37279 0.8716 0.0
C962 C 0.63301 0.36359 0.86322 0.0
C963 C 0.66044 0.37571 0.88898 0.0
C964 C 0.62318 0.35379 0.92678 0.0
H965 H 0.71407 0.38439 0.99883 0.0
H966 H 0.6998 0.38636 0.96907 0.0
H967 H 0.62182 0.34053 0.95108 0.0
H968 H 0.58134 0.35083 0.86633 0.0
H969 H 0.57997 0.3558 0.89692 0.0
H970 H 0.65415 0.40001 0.91839 0.0
C971 C 0.68163 0.37881 0.97731 0.0
C972 C 0.62828 0.3538 0.94421 0.0
C973 C 0.68992 0.37764 0.9944 0.0
C974 C 0.60332 0.35807 0.87249 0.0
C975 C 0.60271 0.36076 0.88998 0.0
C976 C 0.64674 0.387 0.92543 0.0
C977 C 0.65102 0.3698 0.97087 0.0
C978 C 0.64309 0.37034 0.95248 0.0
C979 C 0.63157 0.36928 0.89845 0.0
C980 C 0.63299 0.37024 0.91715 0.0
H981 H 0.6195 0.3506 1.00744 0.0
H982 H 0.60468 0.35291 0.9777 0.0
H983 H 0.6623 0.40026 0.94879 0.0
H984 H 0.68442 0.3772 0.86474 0.0
H985 H 0.68321 0.38215 0.8951 0.0
C986 C 0.88371 0.14546 0.50624 0.0
C987 C 0.85343 0.1345 0.51022 0.0
C988 C 0.89321 0.14856 0.48949 0.0
C989 C 0.85836 0.14885 0.4462 0.0
H990 H 0.95539 0.14316 0.43367 0.0
C991 C 0.90355 0.15268 0.37684 0.0
C992 C 0.93509 0.16283 0.37358 0.0
C993 C 0.89348 0.14844 0.39335 0.0
C994 C 0.92824 0.14504 0.43696 0.0
H995 H 0.80899 0.11857 0.49964 0.0
H996 H 0.82563 0.12395 0.47039 0.0
H997 H 0.93777 0.13783 0.4627 0.0
H998 H 0.98117 0.17597 0.38525 0.0
H999 H 0.96325 0.16908 0.41392 0.0
H1000 H 0.84885 0.15633 0.42052 0.0
C1001 C 0.842 0.13017 0.48025 0.0
C1002 C 0.91814 0.14196 0.45362 0.0
C1003 C 0.83262 0.12695 0.49702 0.0
C1004 C 0.95649 0.16836 0.38726 0.0
C1005 C 0.94639 0.16417 0.40374 0.0
C1006 C 0.86848 0.15204 0.42953 0.0
C1007 C 0.87256 0.14088 0.47629 0.0
C1008 C 0.88311 0.14391 0.45847 0.0
C1009 C 0.91466 0.15424 0.40704 0.0
C1010 C 0.90361 0.15026 0.42469 0.0
H1011 H 0.9005 0.15133 0.51609 0.0
H1012 H 0.91671 0.15706 0.48688 0.0
H1013 H 0.83122 0.15068 0.44954 0.0
H1014 H 0.88624 0.14834 0.36666 0.0
H1015 H 0.86908 0.14055 0.39537 0.0
C1016 C 0.85588 0.88727 0.9967 0.0
C1017 C 0.83282 0.87186 1.00123 0.0
C1018 C 0.8656 0.89 0.97994 0.0
C1019 C 0.87106 0.86506 0.93866 0.0
H1020 H 0.86923 0.91827 0.92135 0.0
C1021 C 0.88552 0.88308 0.86753 0.0
C1022 C 0.90222 0.90093 0.86328 0.0
C1023 C 0.87891 0.87851 0.8844 0.0
C1024 C 0.8705 0.90334 0.92599 0.0
H1025 H 0.80212 0.84718 0.99145 0.0
H1026 H 0.81958 0.8518 0.96227 0.0
H1027 H 0.85449 0.9123 0.95057 0.0
H1028 H 0.92711 0.92736 0.87332 0.0
H1029 H 0.91668 0.9192 0.90262 0.0
H1030 H 0.88739 0.85611 0.91407 0.0
C1031 C 0.83025 0.86169 0.97177 0.0
C1032 C 0.86191 0.89993 0.94278 0.0
C1033 C 0.8203 0.85903 0.98853 0.0
C1034 C 0.91366 0.91364 0.87622 0.0
C1035 C 0.90744 0.909 0.89303 0.0
C1036 C 0.87996 0.86849 0.92185 0.0
C1037 C 0.85275 0.87732 0.96725 0.0
C1038 C 0.86211 0.88077 0.94934 0.0
C1039 C 0.88919 0.89162 0.89737 0.0
C1040 C 0.87989 0.88771 0.91528 0.0
H1041 H 0.86669 0.8972 1.00613 0.0
H1042 H 0.88342 0.902 0.97692 0.0
H1043 H 0.87173 0.85014 0.94338 0.0
H1044 H 0.87628 0.87307 0.85779 0.0
H1045 H 0.86461 0.86505 0.88721 0.0
C1046 C 0.68892 0.63951 0.49366 0.0
C1047 C 0.66061 0.63506 0.50427 0.0
C1048 C 0.68399 0.64142 0.47631 0.0
C1049 C 0.62286 0.62634 0.4423 0.0
H1050 H 0.67734 0.66346 0.41593 0.0
C1051 C 0.60762 0.6307 0.37006 0.0
C1052 C 0.63913 0.63079 0.36105 0.0
C1053 C 0.6076 0.63401 0.38747 0.0
C1054 C 0.66199 0.65296 0.42311 0.0
H1055 H 0.60461 0.63005 0.50494 0.0
H1056 H 0.596 0.63345 0.47475 0.0
H1057 H 0.68231 0.66395 0.44651 0.0
H1058 H 0.69502 0.63559 0.36308 0.0
H1059 H 0.69504 0.64134 0.39332 0.0
H1060 H 0.60292 0.61518 0.4189 0.0
C1061 C 0.62217 0.63506 0.47978 0.0
C1062 C 0.66491 0.65321 0.44065 0.0
C1063 C 0.62711 0.63312 0.49712 0.0
C1064 C 0.67035 0.63524 0.36969 0.0
C1065 C 0.67031 0.63869 0.38702 0.0
C1066 C 0.61987 0.62614 0.42477 0.0
C1067 C 0.65061 0.63898 0.4691 0.0
C1068 C 0.64576 0.6397 0.45048 0.0
C1069 C 0.63905 0.63769 0.39621 0.0
C1070 C 0.63978 0.63925 0.41492 0.0
H1071 H 0.71514 0.64087 0.49868 0.0
H1072 H 0.70661 0.64417 0.46849 0.0
H1073 H 0.60807 0.61553 0.44939 0.0
H1074 H 0.58317 0.62724 0.36377 0.0
H1075 H 0.58301 0.63337 0.39413 0.0
C1076 C 0.3635 0.64206 0.0267 0.0
C1077 C 0.34359 0.65724 0.01971 0.0
C1078 C 0.3751 0.64323 0.04339 0.0
C1079 C 0.39437 0.67941 0.07703 0.0
H1080 H 0.39055 0.63422 0.10657 0.0
C1081 C 0.45961 0.68095 0.14242 0.0
C1082 C 0.44 0.67324 0.15585 0.0
C1083 C 0.44867 0.67803 0.1258 0.0
C1084 C 0.39168 0.64699 0.09849 0.0
H1085 H 0.31926 0.68521 0.02518 0.0
H1086 H 0.33988 0.68734 0.05409 0.0
H1087 H 0.36895 0.63107 0.07771 0.0
H1088 H 0.39358 0.65616 0.16218 0.0
H1089 H 0.37471 0.65093 0.13317 0.0
H1090 H 0.4167 0.69541 0.09777 0.0
C1091 C 0.34695 0.67467 0.04657 0.0
C1092 C 0.37959 0.64514 0.08191 0.0
C1093 C 0.3352 0.67345 0.02996 0.0
C1094 C 0.40959 0.66211 0.15217 0.0
C1095 C 0.39873 0.65913 0.13553 0.0
C1096 C 0.40666 0.68122 0.09352 0.0
C1097 C 0.36726 0.65965 0.05347 0.0
C1098 C 0.38061 0.66137 0.07102 0.0
C1099 C 0.41791 0.66725 0.12215 0.0
C1100 C 0.40538 0.66506 0.10448 0.0
H1101 H 0.37085 0.62946 0.01917 0.0
H1102 H 0.39096 0.6315 0.04827 0.0
H1103 H 0.39589 0.69215 0.06892 0.0
H1104 H 0.48354 0.68924 0.14473 0.0
H1105 H 0.4644 0.68419 0.11578 0.0
C1106 C 0.15798 0.86841 0.52487 0.0
C1107 C 0.16045 0.88699 0.51716 0.0
C1108 C 0.14983 0.8668 0.54196 0.0
C1109 C 0.11206 0.89506 0.57765 0.0
H1110 H 0.16121 0.85751 0.60512 0.0
C1111 C 0.12046 0.901 0.64981 0.0
C1112 C 0.11853 0.88364 0.65931 0.0
C1113 C 0.12114 0.90016 0.63227 0.0
C1114 C 0.14686 0.86787 0.59758 0.0
H1115 H 0.15557 0.91842 0.52148 0.0
H1116 H 0.1426 0.91568 0.55123 0.0
H1117 H 0.17166 0.85843 0.57492 0.0
H1118 H 0.11493 0.85179 0.65788 0.0
H1119 H 0.1162 0.8503 0.62711 0.0
H1120 H 0.08804 0.90486 0.60042 0.0
C1121 C 0.14641 0.90228 0.54405 0.0
C1122 C 0.15284 0.8684 0.58024 0.0
C1123 C 0.15443 0.90388 0.52699 0.0
C1124 C 0.11622 0.86541 0.65087 0.0
C1125 C 0.11728 0.86456 0.63328 0.0
C1126 C 0.10626 0.8946 0.59498 0.0
C1127 C 0.14396 0.88373 0.55179 0.0
C1128 C 0.1359 0.88221 0.57007 0.0
C1129 C 0.12018 0.88193 0.62379 0.0
C1130 C 0.12395 0.88119 0.60519 0.0
H1131 H 0.16273 0.85508 0.51774 0.0
H1132 H 0.14788 0.85226 0.54743 0.0
H1133 H 0.09792 0.90559 0.5702 0.0
H1134 H 0.12205 0.91526 0.65597 0.0
H1135 H 0.12367 0.91381 0.62537 0.0
C1136 C 0.19739 0.27629 0.37908 0.0
C1137 C 0.18564 0.29571 0.38085 0.0
C1138 C 0.18007 0.26289 0.36842 0.0
C1139 C 0.11802 0.25983 0.33252 0.0
H1140 H 0.10693 0.20559 0.3468 0.0
C1141 C 0.03065 0.20282 0.29681 0.0
C1142 C 0.04396 0.1838 0.29482 0.0
C1143 C 0.04778 0.21668 0.30714 0.0
C1144 C 0.11011 0.22063 0.34254 0.0
H1145 H 0.14622 0.31619 0.37281 0.0
H1146 H 0.11581 0.29279 0.3543 0.0
H1147 H 0.13688 0.22934 0.36507 0.0
H1148 H 0.08547 0.1643 0.30209 0.0
H1149 H 0.11561 0.18849 0.31997 0.0
H1150 H 0.091 0.25106 0.31001 0.0
C1151 C 0.13881 0.28799 0.36096 0.0
C1152 C 0.12734 0.23427 0.35301 0.0
C1153 C 0.15623 0.30142 0.37159 0.0
C1154 C 0.07466 0.17888 0.30337 0.0
C1155 C 0.09176 0.1927 0.31371 0.0
C1156 C 0.10068 0.24618 0.32205 0.0
C1157 C 0.15043 0.26851 0.35927 0.0
C1158 C 0.13167 0.25405 0.34813 0.0
C1159 C 0.07851 0.21177 0.31575 0.0
C1160 C 0.09662 0.22639 0.32692 0.0
H1161 H 0.22032 0.27148 0.38579 0.0
H1162 H 0.19021 0.24815 0.36721 0.0
H1163 H 0.12127 0.27486 0.32822 0.0
H1164 H 0.00712 0.20705 0.29028 0.0
H1165 H 0.03669 0.23117 0.30856 0.0
C1166 C 0.36122 0.20686 0.86503 0.0
C1167 C 0.32584 0.20865 0.86938 0.0
C1168 C 0.37873 0.22198 0.85645 0.0
C1169 C 0.36226 0.26427 0.82879 0.0
H1170 H 0.45766 0.27938 0.83976 0.0
C1171 C 0.4297 0.33166 0.79852 0.0
C1172 C 0.46481 0.32998 0.79372 0.0
C1173 C 0.41338 0.31702 0.80808 0.0
C1174 C 0.43117 0.27518 0.8364 0.0
H1175 H 0.2813 0.22789 0.86822 0.0
H1176 H 0.31196 0.25436 0.85345 0.0
H1177 H 0.42801 0.25379 0.85605 0.0
H1178 H 0.51054 0.31174 0.79553 0.0
H1179 H 0.48202 0.28608 0.81225 0.0
H1180 H 0.36539 0.28548 0.80907 0.0
C1181 C 0.32608 0.24117 0.85655 0.0
C1182 C 0.41414 0.26053 0.84577 0.0
C1183 C 0.3086 0.22609 0.8652 0.0
C1184 C 0.48349 0.3135 0.79906 0.0
C1185 C 0.46713 0.29882 0.80867 0.0
C1186 C 0.37928 0.27886 0.81941 0.0
C1187 C 0.36128 0.23923 0.85194 0.0
C1188 C 0.37944 0.25492 0.8421 0.0
C1189 C 0.43177 0.30032 0.8132 0.0
C1190 C 0.41393 0.28456 0.82311 0.0
H1191 H 0.37538 0.19371 0.86821 0.0
H1192 H 0.40575 0.21993 0.853 0.0
H1193 H 0.33577 0.26006 0.82541 0.0
H1194 H 0.41473 0.34436 0.79495 0.0
H1195 H 0.38636 0.31891 0.8116 0.0
C1196 C 0.66321 0.22939 0.64512 0.0
C1197 C 0.69049 0.21762 0.65101 0.0
C1198 C 0.64554 0.24198 0.65604 0.0
C1199 C 0.65466 0.26775 0.697 0.0
H1200 H 0.55479 0.27435 0.6924 0.0
C1201 C 0.57537 0.31472 0.74386 0.0
C1202 C 0.55022 0.32722 0.73697 0.0
C1203 C 0.59172 0.30058 0.73387 0.0
C1204 C 0.58274 0.27281 0.69377 0.0
H1205 H 0.72049 0.20998 0.6731 0.0
H1206 H 0.68922 0.23165 0.6922 0.0
H1207 H 0.5847 0.25114 0.67415 0.0
H1208 H 0.52219 0.33428 0.7141 0.0
H1209 H 0.55075 0.30974 0.69674 0.0
H1210 H 0.65269 0.28949 0.71657 0.0
C1211 C 0.68175 0.23129 0.67907 0.0
C1212 C 0.59991 0.2595 0.68328 0.0
C1213 C 0.69943 0.21868 0.66814 0.0
C1214 C 0.5414 0.32495 0.71989 0.0
C1215 C 0.55767 0.31077 0.70992 0.0
C1216 C 0.63747 0.28104 0.7075 0.0
C1217 C 0.65463 0.24316 0.67315 0.0
C1218 C 0.63615 0.25688 0.68469 0.0
C1219 C 0.58322 0.29849 0.71675 0.0
C1220 C 0.60132 0.28384 0.70595 0.0
H1221 H 0.65529 0.22879 0.63206 0.0
H1222 H 0.62507 0.25104 0.65098 0.0
H1223 H 0.68264 0.26634 0.69829 0.0
H1224 H 0.58272 0.31593 0.75698 0.0
H1225 H 0.61092 0.29119 0.7396 0.0
C1226 C 0.81308 0.28527 0.15569 0.0
C1227 C 0.80235 0.30249 0.16399 0.0
C1228 C 0.83142 0.27079 0.16434 0.0
C1229 C 0.88458 0.26316 0.20274 0.0
H1230 H 0.86133 0.20795 0.19548 0.0
C1231 C 0.9361 0.20244 0.24627 0.0
C1232 C 0.94705 0.18481 0.23876 0.0
C1233 C 0.91866 0.21656 0.23685 0.0
C1234 C 0.86843 0.22329 0.19752 0.0
H1235 H 0.80337 0.31813 0.18784 0.0
H1236 H 0.83458 0.29281 0.20294 0.0
H1237 H 0.83117 0.23304 0.1794 0.0
H1238 H 0.94842 0.1682 0.21545 0.0
H1239 H 0.91823 0.19292 0.19892 0.0
H1240 H 0.92172 0.25346 0.22089 0.0
C1241 C 0.82908 0.29051 0.18972 0.0
C1242 C 0.85115 0.23768 0.18828 0.0
C1243 C 0.81075 0.30494 0.18109 0.0
C1244 C 0.94016 0.18161 0.22161 0.0
C1245 C 0.92267 0.19572 0.21217 0.0
C1246 C 0.90182 0.24879 0.21197 0.0
C1247 C 0.83962 0.27322 0.18149 0.0
C1248 C 0.85884 0.25782 0.19085 0.0
C1249 C 0.91184 0.21343 0.21965 0.0
C1250 C 0.89383 0.22867 0.20956 0.0
H1251 H 0.80688 0.28285 0.14255 0.0
H1252 H 0.83943 0.25774 0.15757 0.0
H1253 H 0.89165 0.27849 0.20483 0.0
H1254 H 0.94149 0.2055 0.2594 0.0
H1255 H 0.91038 0.22991 0.24307 0.0
C1256 C 0.81059 0.72108 0.66394 0.0
C1257 C 0.82028 0.72028 0.64692 0.0
C1258 C 0.82809 0.73376 0.67519 0.0
C1259 C 0.91057 0.7626 0.6807 0.0
H1260 H 0.85756 0.79127 0.714 0.0
C1261 C 0.978 0.81089 0.73179 0.0
C1262 C 0.96281 0.8291 0.73551 0.0
C1263 C 0.96046 0.79702 0.72164 0.0
C1264 C 0.87275 0.78347 0.70472 0.0
H1265 H 0.85657 0.73205 0.62852 0.0
H1266 H 0.88649 0.7544 0.648 0.0
H1267 H 0.82749 0.76851 0.69484 0.0
H1268 H 0.91773 0.84721 0.73114 0.0
H1269 H 0.887 0.82305 0.71355 0.0
H1270 H 0.9557 0.77794 0.69026 0.0
C1271 C 0.86557 0.74508 0.65272 0.0
C1272 C 0.85554 0.77022 0.69385 0.0
C1273 C 0.84809 0.73241 0.64148 0.0
C1274 C 0.92975 0.83314 0.72884 0.0
C1275 C 0.91216 0.81927 0.71872 0.0
C1276 C 0.92777 0.77583 0.69157 0.0
C1277 C 0.85577 0.74596 0.66973 0.0
C1278 C 0.8742 0.75969 0.68163 0.0
C1279 C 0.92735 0.80104 0.71491 0.0
C1280 C 0.90908 0.78652 0.70367 0.0
H1281 H 0.7891 0.7121 0.66856 0.0
H1282 H 0.82005 0.73389 0.68823 0.0
H1283 H 0.92587 0.75458 0.6716 0.0
H1284 H 0.00339 0.80729 0.73681 0.0
H1285 H 0.97277 0.78305 0.71917 0.0
C1286 C 0.7009 0.78756 0.15664 0.0
C1287 C 0.68788 0.80682 0.15679 0.0
C1288 C 0.68383 0.77246 0.16549 0.0
C1289 C 0.62354 0.7649 0.20108 0.0
H1290 H 0.61271 0.71198 0.18303 0.0
C1291 C 0.53961 0.70565 0.23436 0.0
C1292 C 0.55233 0.68638 0.23472 0.0
C1293 C 0.55592 0.72005 0.22449 0.0
C1294 C 0.61588 0.72662 0.18834 0.0
H1295 H 0.64563 0.825 0.1657 0.0
H1296 H 0.61606 0.79878 0.18111 0.0
H1297 H 0.64138 0.73748 0.16623 0.0
H1298 H 0.59158 0.66692 0.22481 0.0
H1299 H 0.62069 0.69214 0.20788 0.0
H1300 H 0.59838 0.7541 0.22323 0.0
C1301 C 0.63986 0.79541 0.17445 0.0
C1302 C 0.63228 0.74125 0.17869 0.0
C1303 C 0.65683 0.81046 0.1656 0.0
C1304 C 0.58143 0.68172 0.22488 0.0
C1305 C 0.59786 0.69613 0.21505 0.0
C1306 C 0.60727 0.75029 0.21074 0.0
C1307 C 0.65338 0.77628 0.17471 0.0
C1308 C 0.63617 0.76059 0.18492 0.0
C1309 C 0.58538 0.71551 0.21476 0.0
C1310 C 0.60307 0.73098 0.20448 0.0
H1311 H 0.72492 0.78427 0.15014 0.0
H1312 H 0.69511 0.75793 0.16553 0.0
H1313 H 0.62669 0.77954 0.20641 0.0
H1314 H 0.5172 0.70965 0.24184 0.0
H1315 H 0.54525 0.73472 0.22439 0.0
C1316 C 0.32564 0.77341 0.38385 0.0
C1317 C 0.31969 0.79289 0.37876 0.0
C1318 C 0.34249 0.76015 0.37322 0.0
C1319 C 0.39962 0.75799 0.33564 0.0
H1320 H 0.36869 0.70332 0.33417 0.0
C1321 C 0.45067 0.70243 0.28643 0.0
C1322 C 0.45925 0.68365 0.29233 0.0
C1323 C 0.43327 0.71573 0.2968 0.0
C1324 C 0.37783 0.7185 0.33455 0.0
H1325 H 0.32728 0.81364 0.35842 0.0
H1326 H 0.35567 0.79038 0.33971 0.0
H1327 H 0.33903 0.72657 0.35248 0.0
H1328 H 0.45661 0.66409 0.31369 0.0
H1329 H 0.42616 0.68733 0.33185 0.0
H1330 H 0.43824 0.74988 0.31757 0.0
C1331 C 0.34775 0.78542 0.35205 0.0
C1332 C 0.36088 0.73185 0.34507 0.0
C1333 C 0.33102 0.79872 0.36271 0.0
C1334 C 0.45017 0.67845 0.30881 0.0
C1335 C 0.43256 0.6917 0.31915 0.0
C1336 C 0.41644 0.74466 0.32504 0.0
C1337 C 0.35373 0.76595 0.35716 0.0
C1338 C 0.3716 0.75176 0.34581 0.0
C1339 C 0.424 0.71053 0.31329 0.0
C1340 C 0.40581 0.72475 0.3244 0.0
H1341 H 0.31693 0.7683 0.39602 0.0
H1342 H 0.347 0.74537 0.37769 0.0
H1343 H 0.40901 0.77311 0.33606 0.0
H1344 H 0.45786 0.70694 0.27386 0.0
H1345 H 0.42686 0.73007 0.29187 0.0
C1346 C 0.18975 0.70206 0.84521 0.0
C1347 C 0.19686 0.70414 0.86249 0.0
C1348 C 0.17296 0.71693 0.83638 0.0
C1349 C 0.11739 0.76064 0.84238 0.0
H1350 H 0.14651 0.77276 0.79693 0.0
C1351 C 0.0664 0.828 0.8061 0.0
C1352 C 0.05795 0.82523 0.78906 0.0
C1353 C 0.08315 0.81326 0.81511 0.0
C1354 C 0.13781 0.76941 0.80954 0.0
H1355 H 0.19166 0.72364 0.88399 0.0
H1356 H 0.16309 0.7498 0.8685 0.0
H1357 H 0.17646 0.74731 0.8126 0.0
H1358 H 0.06033 0.8048 0.76809 0.0
H1359 H 0.0897 0.77902 0.78381 0.0
H1360 H 0.07886 0.78285 0.83931 0.0
C1361 C 0.1701 0.7365 0.86182 0.0
C1362 C 0.15498 0.7548 0.81855 0.0
C1363 C 0.18687 0.72158 0.87067 0.0
C1364 C 0.06668 0.8074 0.7812 0.0
C1365 C 0.0836 0.79267 0.79019 0.0
C1366 C 0.10029 0.77529 0.83339 0.0
C1367 C 0.16291 0.73436 0.84455 0.0
C1368 C 0.14494 0.75017 0.83507 0.0
C1369 C 0.09205 0.79543 0.80726 0.0
C1370 C 0.11023 0.77983 0.81684 0.0
H1371 H 0.19748 0.68898 0.83841 0.0
H1372 H 0.16753 0.71464 0.82315 0.0
H1373 H 0.10857 0.75727 0.85496 0.0
H1374 H 0.06041 0.84169 0.81247 0.0
H1375 H 0.08971 0.81599 0.82817 0.0
loop_
_geom_bond_atom_site_label_1
_geom_bond_atom_site_label_2
_geom_bond_distance
_geom_bond_site_symmetry_2
_ccdc_geom_bond_type
C0 C1 1.264 . S
C0 C5 1.479 . S
C0 C10 1.465 . S
C1 C0 1.264 . S
C1 C3 1.339 . S
C1 H28 0.931 . S
C2 C3 1.395 . S
C2 C4 1.320 . S
C3 C1 1.339 . S
C3 C2 1.395 . S
C3 H29 0.929 . S
C4 C2 1.320 . S
C4 C5 1.405 . S
C4 H30 0.930 . S
C5 C0 1.479 . S
C5 C4 1.405 . S
C5 H31 0.931 . S
U6 O7 2.454 . S
U6 O8 2.458 . S
U6 C9 2.984 . S
U6 C10 2.847 . S
U6 C23 2.882 . S
U6 O24 2.441 . S
U6 O25 2.420 . S
U6 O26 2.455 . S
U6 O27 2.449 . S
O7 U6 2.454 . S
O7 C9 1.353 . S
O8 U6 2.458 . S
O8 C9 1.286 . S
C9 U6 2.984 . S
C9 O7 1.353 . S
C9 O8 1.286 . S
C9 C11 1.363 . S
C10 C0 1.465 . S
C10 U6 2.847 . S
C10 O24 1.249 . S
C10 O25 1.202 . S
C11 C9 1.363 . S
C11 C13 1.408 . S
C11 C16 1.342 . S
C12 C13 1.310 . S
C12 C15 1.461 . S
C12 H32 0.932 . S
C13 C11 1.408 . S
C13 C12 1.310 . S
C13 H33 0.930 . S
C14 C15 1.474 . S
C14 C16 1.285 . S
C14 H34 0.929 . S
C15 C12 1.461 . S
C15 C14 1.474 . S
C16 C11 1.342 . S
C16 C14 1.285 . S
C16 H35 0.930 . S
C17 C20 1.424 . S
C17 C22 1.245 . S
C17 C23 1.428 . S
C18 C21 1.260 . S
C18 C22 1.477 . S
C18 H36 0.932 . S
C19 C20 1.384 . S
C19 C21 1.479 . S
C19 H37 0.929 . S
C20 C17 1.424 . S
C20 C19 1.384 . S
C20 H38 0.928 . S
C21 C18 1.260 . S
C21 C19 1.479 . S
C22 C17 1.245 . S
C22 C18 1.477 . S
C22 H39 0.932 . S
C23 U6 2.882 . S
C23 C17 1.428 . S
C23 O26 1.301 . S
C23 O27 1.282 . S
O24 U6 2.441 . S
O24 C10 1.249 . S
O25 U6 2.420 . S
O25 C10 1.202 . S
O26 U6 2.455 . S
O26 C23 1.301 . S
O27 U6 2.449 . S
O27 C23 1.282 . S
H28 C1 0.931 . S
H29 C3 0.929 . S
H30 C4 0.930 . S
H31 C5 0.931 . S
H32 C12 0.932 . S
H33 C13 0.930 . S
H34 C14 0.929 . S
H35 C16 0.930 . S
H36 C18 0.932 . S
H37 C19 0.929 . S
H38 C20 0.928 . S
H39 C22 0.932 . S
C40 C41 1.264 . S
C40 C45 1.479 . S
C40 C50 1.465 . S
C41 C40 1.264 . S
C41 C43 1.339 . S
C41 H68 0.931 . S
C42 C43 1.395 . S
C42 C44 1.320 . S
C43 C41 1.339 . S
C43 C42 1.395 . S
C43 H69 0.929 . S
C44 C42 1.320 . S
C44 C45 1.405 . S
C44 H70 0.930 . S
C45 C40 1.479 . S
C45 C44 1.405 . S
C45 H71 0.931 . S
U46 O47 2.454 . S
U46 O48 2.458 . S
U46 C49 2.984 . S
U46 C50 2.847 . S
U46 C63 2.882 . S
U46 O64 2.441 . S
U46 O65 2.420 . S
U46 O66 2.455 . S
U46 O67 2.449 . S
O47 U46 2.454 . S
O47 C49 1.353 . S
O48 U46 2.458 . S
O48 C49 1.286 . S
C49 U46 2.984 . S
C49 O47 1.353 . S
C49 O48 1.286 . S
C49 C51 1.363 . S
C50 C40 1.465 . S
C50 U46 2.847 . S
C50 O64 1.249 . S
C50 O65 1.202 . S
C51 C49 1.363 . S
C51 C53 1.408 . S
C51 C56 1.342 . S
C52 C53 1.310 . S
C52 C55 1.461 . S
C52 H72 0.932 . S
C53 C51 1.408 . S
C53 C52 1.310 . S
C53 H73 0.930 . S
C54 C55 1.474 . S
C54 C56 1.285 . S
C54 H74 0.929 . S
C55 C52 1.461 . S
C55 C54 1.474 . S
C56 C51 1.342 . S
C56 C54 1.285 . S
C56 H75 0.930 . S
C57 C60 1.424 . S
C57 C62 1.245 . S
C57 C63 1.428 . S
C58 C61 1.260 . S
C58 C62 1.477 . S
C58 H76 0.932 . S
C59 C60 1.384 . S
C59 C61 1.479 . S
C59 H77 0.929 . S
C60 C57 1.424 . S
C60 C59 1.384 . S
C60 H78 0.928 . S
C61 C58 1.260 . S
C61 C59 1.479 . S
C62 C57 1.245 . S
C62 C58 1.477 . S
C62 H79 0.932 . S
C63 U46 2.882 . S
C63 C57 1.428 . S
C63 O66 1.301 . S
C63 O67 1.282 . S
O64 U46 2.441 . S
O64 C50 1.249 . S
O65 U46 2.420 . S
O65 C50 1.202 . S
O66 U46 2.455 . S
O66 C63 1.301 . S
O67 U46 2.449 . S
O67 C63 1.282 . S
H68 C41 0.931 . S
H69 C43 0.929 . S
H70 C44 0.930 . S
H71 C45 0.931 . S
H72 C52 0.932 . S
H73 C53 0.930 . S
H74 C54 0.929 . S
H75 C56 0.930 . S
H76 C58 0.932 . S
H77 C59 0.929 . S
H78 C60 0.928 . S
H79 C62 0.932 . S
C80 C81 1.264 . S
C80 C85 1.479 . S
C80 C90 1.465 . S
C81 C80 1.264 . S
C81 C83 1.339 . S
C81 H108 0.931 . S
C82 C83 1.395 . S
C82 C84 1.320 . S
C83 C81 1.339 . S
C83 C82 1.395 . S
C83 H109 0.929 . S
C84 C82 1.320 . S
C84 C85 1.405 . S
C84 H110 0.930 . S
C85 C80 1.479 . S
C85 C84 1.405 . S
C85 H111 0.931 . S
U86 O87 2.454 . S
U86 O88 2.458 . S
U86 C89 2.984 . S
U86 C90 2.847 . S
U86 C103 2.882 . S
U86 O104 2.441 . S
U86 O105 2.420 . S
U86 O106 2.455 . S
U86 O107 2.449 . S
O87 U86 2.454 . S
O87 C89 1.353 . S
O88 U86 2.458 . S
O88 C89 1.286 . S
C89 U86 2.984 . S
C89 O87 1.353 . S
C89 O88 1.286 . S
C89 C91 1.363 . S
C90 C80 1.465 . S
C90 U86 2.847 . S
C90 O104 1.249 . S
C90 O105 1.202 . S
C91 C89 1.363 . S
C91 C93 1.408 . S
C91 C96 1.342 . S
C92 C93 1.310 . S
C92 C95 1.461 . S
C92 H112 0.932 . S
C93 C91 1.408 . S
C93 C92 1.310 . S
C93 H113 0.930 . S
C94 C95 1.474 . S
C94 C96 1.285 . S
C94 H114 0.929 . S
C95 C92 1.461 . S
C95 C94 1.474 . S
C96 C91 1.342 . S
C96 C94 1.285 . S
C96 H115 0.930 . S
C97 C100 1.424 . S
C97 C102 1.245 . S
C97 C103 1.428 . S
C98 C101 1.260 . S
C98 C102 1.477 . S
C98 H116 0.932 . S
C99 C100 1.384 . S
C99 C101 1.479 . S
C99 H117 0.929 . S
C100 C97 1.424 . S
C100 C99 1.384 . S
C100 H118 0.928 . S
C101 C98 1.260 . S
C101 C99 1.479 . S
C102 C97 1.245 . S
C102 C98 1.477 . S
C102 H119 0.932 . S
C103 U86 2.882 . S
C103 C97 1.428 . S
C103 O106 1.301 . S
C103 O107 1.282 . S
O104 U86 2.441 . S
O104 C90 1.249 . S
O105 U86 2.420 . S
O105 C90 1.202 . S
O106 U86 2.455 . S
O106 C103 1.301 . S
O107 U86 2.449 . S
O107 C103 1.282 . S
H108 C81 0.931 . S
H109 C83 0.929 . S
H110 C84 0.930 . S
H111 C85 0.931 . S
H112 C92 0.932 . S
H113 C93 0.930 . S
H114 C94 0.929 . S
H115 C96 0.930 . S
H116 C98 0.932 . S
H117 C99 0.929 . S
H118 C100 0.928 . S
H119 C102 0.932 . S
C120 C121 1.264 . S
C120 C125 1.479 . S
C120 C130 1.465 . S
C121 C120 1.264 . S
C121 C123 1.339 . S
C121 H148 0.931 . S
C122 C123 1.395 . S
C122 C124 1.320 . S
C123 C121 1.339 . S
C123 C122 1.395 . S
C123 H149 0.929 . S
C124 C122 1.320 . S
C124 C125 1.405 . S
C124 H150 0.930 . S
C125 C120 1.479 . S
C125 C124 1.405 . S
C125 H151 0.931 . S
U126 O127 2.454 . S
U126 O128 2.458 . S
U126 C129 2.984 . S
U126 C130 2.847 . S
U126 C143 2.882 . S
U126 O144 2.441 . S
U126 O145 2.420 . S
U126 O146 2.455 . S
U126 O147 2.449 . S
O127 U126 2.454 . S
O127 C129 1.353 . S
O128 U126 2.458 . S
O128 C129 1.286 . S
C129 U126 2.984 . S
C129 O127 1.353 . S
C129 O128 1.286 . S
C129 C131 1.363 . S
C130 C120 1.465 . S
C130 U126 2.847 . S
C130 O144 1.249 . S
C130 O145 1.202 . S
C131 C129 1.363 . S
C131 C133 1.408 . S
C131 C136 1.342 . S
C132 C133 1.310 . S
C132 C135 1.461 . S
C132 H152 0.932 . S
C133 C131 1.408 . S
C133 C132 1.310 . S
C133 H153 0.930 . S
C134 C135 1.474 . S
C134 C136 1.285 . S
C134 H154 0.929 . S
C135 C132 1.461 . S
C135 C134 1.474 . S
C136 C131 1.342 . S
C136 C134 1.285 . S
C136 H155 0.930 . S
C137 C140 1.424 . S
C137 C142 1.245 . S
C137 C143 1.428 . S
C138 C141 1.260 . S
C138 C142 1.477 . S
C138 H156 0.932 . S
C139 C140 1.384 . S
C139 C141 1.479 . S
C139 H157 0.929 . S
C140 C137 1.424 . S
C140 C139 1.384 . S
C140 H158 0.928 . S
C141 C138 1.260 . S
C141 C139 1.479 . S
C142 C137 1.245 . S
C142 C138 1.477 . S
C142 H159 0.932 . S
C143 U126 2.882 . S
C143 C137 1.428 . S
C143 O146 1.301 . S
C143 O147 1.282 . S
O144 U126 2.441 . S
O144 C130 1.249 . S
O145 U126 2.420 . S
O145 C130 1.202 . S
O146 U126 2.455 . S
O146 C143 1.301 . S
O147 U126 2.449 . S
O147 C143 1.282 . S
H148 C121 0.931 . S
H149 C123 0.929 . S
H150 C124 0.930 . S
H151 C125 0.931 . S
H152 C132 0.932 . S
H153 C133 0.930 . S
H154 C134 0.929 . S
H155 C136 0.930 . S
H156 C138 0.932 . S
H157 C139 0.929 . S
H158 C140 0.928 . S
H159 C142 0.932 . S
C160 C161 1.264 . S
C160 C165 1.479 . S
C160 C170 1.465 . S
C161 C160 1.264 . S
C161 C163 1.339 . S
C161 H188 0.931 . S
C162 C163 1.395 . S
C162 C164 1.320 . S
C163 C161 1.339 . S
C163 C162 1.395 . S
C163 H189 0.929 . S
C164 C162 1.320 . S
C164 C165 1.405 . S
C164 H190 0.930 . S
C165 C160 1.479 . S
C165 C164 1.405 . S
C165 H191 0.931 . S
U166 O167 2.454 . S
U166 O168 2.458 . S
U166 C169 2.984 . S
U166 C170 2.847 . S
U166 C183 2.882 . S
U166 O184 2.441 . S
U166 O185 2.420 . S
U166 O186 2.455 . S
U166 O187 2.449 . S
O167 U166 2.454 . S
O167 C169 1.353 . S
O168 U166 2.458 . S
O168 C169 1.286 . S
C169 U166 2.984 . S
C169 O167 1.353 . S
C169 O168 1.286 . S
C169 C171 1.363 . S
C170 C160 1.465 . S
C170 U166 2.847 . S
C170 O184 1.249 . S
C170 O185 1.202 . S
C171 C169 1.363 . S
C171 C173 1.408 . S
C171 C176 1.342 . S
C172 C173 1.310 . S
C172 C175 1.461 . S
C172 H192 0.932 . S
C173 C171 1.408 . S
C173 C172 1.310 . S
C173 H193 0.930 . S
C174 C175 1.474 . S
C174 C176 1.285 . S
C174 H194 0.929 . S
C175 C172 1.461 . S
C175 C174 1.474 . S
C176 C171 1.342 . S
C176 C174 1.285 . S
C176 H195 0.930 . S
C177 C180 1.424 . S
C177 C182 1.245 . S
C177 C183 1.428 . S
C178 C181 1.260 . S
C178 C182 1.477 . S
C178 H196 0.932 . S
C179 C180 1.384 . S
C179 C181 1.479 . S
C179 H197 0.929 . S
C180 C177 1.424 . S
C180 C179 1.384 . S
C180 H198 0.928 . S
C181 C178 1.260 . S
C181 C179 1.479 . S
C182 C177 1.245 . S
C182 C178 1.477 . S
C182 H199 0.932 . S
C183 U166 2.882 . S
C183 C177 1.428 . S
C183 O186 1.301 . S
C183 O187 1.282 . S
O184 U166 2.441 . S
O184 C170 1.249 . S
O185 U166 2.420 . S
O185 C170 1.202 . S
O186 U166 2.455 . S
O186 C183 1.301 . S
O187 U166 2.449 . S
O187 C183 1.282 . S
H188 C161 0.931 . S
H189 C163 0.929 . S
H190 C164 0.930 . S
H191 C165 0.931 . S
H192 C172 0.932 . S
H193 C173 0.930 . S
H194 C174 0.929 . S
H195 C176 0.930 . S
H196 C178 0.932 . S
H197 C179 0.929 . S
H198 C180 0.928 . S
H199 C182 0.932 . S
C200 C201 1.264 . S
C200 C205 1.479 . S
C200 C210 1.465 . S
C201 C200 1.264 . S
C201 C203 1.339 . S
C201 H228 0.931 . S
C202 C203 1.386 1_556 S
C202 C204 1.314 1_556 S
C203 C201 1.339 . S
C203 C202 1.386 1_554 S
C203 H229 0.929 . S
C204 C202 1.314 1_554 S
C204 C205 1.405 . S
C204 H230 0.929 1_554 S
C205 C200 1.479 . S
C205 C204 1.405 . S
C205 H231 0.931 . S
U206 O207 2.454 . S
U206 O208 2.458 . S
U206 C209 2.984 . S
U206 C210 2.847 . S
U206 C223 2.882 . S
U206 O224 2.441 . S
U206 O225 2.420 . S
U206 O226 2.455 . S
U206 O227 2.449 . S
O207 U206 2.454 . S
O207 C209 1.353 . S
O208 U206 2.458 . S
O208 C209 1.286 . S
C209 U206 2.984 . S
C209 O207 1.353 . S
C209 O208 1.286 . S
C209 C211 1.363 . S
C210 C200 1.465 . S
C210 U206 2.847 . S
C210 O224 1.249 . S
C210 O225 1.202 . S
C211 C209 1.363 . S
C211 C213 1.408 . S
C211 C216 1.342 . S
C212 C213 1.310 . S
C212 C215 1.461 . S
C212 H232 0.932 . S
C213 C211 1.408 . S
C213 C212 1.310 . S
C213 H233 0.930 . S
C214 C215 1.474 . S
C214 C216 1.285 . S
C214 H234 0.929 . S
C215 C212 1.461 . S
C215 C214 1.474 . S
C216 C211 1.342 . S
C216 C214 1.285 . S
C216 H235 0.930 . S
C217 C220 1.424 . S
C217 C222 1.245 . S
C217 C223 1.428 . S
C218 C221 1.260 . S
C218 C222 1.477 . S
C218 H236 0.932 . S
C219 C220 1.384 . S
C219 C221 1.479 . S
C219 H237 0.929 . S
C220 C217 1.424 . S
C220 C219 1.384 . S
C220 H238 0.928 . S
C221 C218 1.260 . S
C221 C219 1.479 . S
C222 C217 1.245 . S
C222 C218 1.477 . S
C222 H239 0.932 . S
C223 U206 2.882 . S
C223 C217 1.428 . S
C223 O226 1.301 . S
C223 O227 1.282 . S
O224 U206 2.441 . S
O224 C210 1.249 . S
O225 U206 2.420 . S
O225 C210 1.202 . S
O226 U206 2.455 . S
O226 C223 1.301 . S
O227 U206 2.449 . S
O227 C223 1.282 . S
H228 C201 0.931 . S
H229 C203 0.929 . S
H230 C204 0.929 1_556 S
H231 C205 0.931 . S
H232 C212 0.932 . S
H233 C213 0.930 . S
H234 C214 0.929 . S
H235 C216 0.930 . S
H236 C218 0.932 . S
H237 C219 0.929 . S
H238 C220 0.928 . S
H239 C222 0.932 . S
C240 C241 1.264 . S
C240 C245 1.479 . S
C240 C250 1.465 . S
C241 C240 1.264 . S
C241 C243 1.339 . S
C241 H268 0.931 . S
C242 C243 1.395 . S
C242 C244 1.320 . S
C243 C241 1.339 . S
C243 C242 1.395 . S
C243 H269 0.929 . S
C244 C242 1.320 . S
C244 C245 1.405 . S
C244 H270 0.930 . S
C245 C240 1.479 . S
C245 C244 1.405 . S
C245 H271 0.931 . S
U246 O247 2.454 . S
U246 O248 2.458 . S
U246 C249 2.984 . S
U246 C250 2.847 . S
U246 C263 2.882 . S
U246 O264 2.441 . S
U246 O265 2.420 . S
U246 O266 2.455 . S
U246 O267 2.449 . S
O247 U246 2.454 . S
O247 C249 1.353 . S
O248 U246 2.458 . S
O248 C249 1.286 . S
C249 U246 2.984 . S
C249 O247 1.353 . S
C249 O248 1.286 . S
C249 C251 1.363 . S
C250 C240 1.465 . S
C250 U246 2.847 . S
C250 O264 1.249 . S
C250 O265 1.202 . S
C251 C249 1.363 . S
C251 C253 1.408 . S
C251 C256 1.342 . S
C252 C253 1.310 . S
C252 C255 1.461 . S
C252 H272 0.932 . S
C253 C251 1.408 . S
C253 C252 1.310 . S
C253 H273 0.930 . S
C254 C255 1.474 . S
C254 C256 1.285 . S
C254 H274 0.929 . S
C255 C252 1.461 . S
C255 C254 1.474 . S
C256 C251 1.342 . S
C256 C254 1.285 . S
C256 H275 0.930 . S
C257 C260 1.424 . S
C257 C262 1.245 . S
C257 C263 1.428 . S
C258 C261 1.260 . S
C258 C262 1.477 . S
C258 H276 0.932 . S
C259 C260 1.384 . S
C259 C261 1.479 . S
C259 H277 0.929 . S
C260 C257 1.424 . S
C260 C259 1.384 . S
C260 H278 0.928 . S
C261 C258 1.260 . S
C261 C259 1.479 . S
C262 C257 1.245 . S
C262 C258 1.477 . S
C262 H279 0.932 . S
C263 U246 2.882 . S
C263 C257 1.428 . S
C263 O266 1.301 . S
C263 O267 1.282 . S
O264 U246 2.441 . S
O264 C250 1.249 . S
O265 U246 2.420 . S
O265 C250 1.202 . S
O266 U246 2.455 . S
O266 C263 1.301 . S
O267 U246 2.449 . S
O267 C263 1.282 . S
H268 C241 0.931 . S
H269 C243 0.929 . S
H270 C244 0.930 . S
H271 C245 0.931 . S
H272 C252 0.932 . S
H273 C253 0.930 . S
H274 C254 0.929 . S
H275 C256 0.930 . S
H276 C258 0.932 . S
H277 C259 0.929 . S
H278 C260 0.928 . S
H279 C262 0.932 . S
C280 C281 1.264 . S
C280 C285 1.479 . S
C280 C290 1.465 . S
C281 C280 1.264 . S
C281 C283 1.339 . S
C281 H308 0.931 . S
C282 C283 1.395 . S
C282 C284 1.320 . S
C283 C281 1.339 . S
C283 C282 1.395 . S
C283 H309 0.929 . S
C284 C282 1.320 . S
C284 C285 1.405 . S
C284 H310 0.930 . S
C285 C280 1.479 . S
C285 C284 1.405 . S
C285 H311 0.931 . S
U286 O287 2.454 . S
U286 O288 2.458 . S
U286 C289 2.984 . S
U286 C290 2.847 . S
U286 C303 2.882 . S
U286 O304 2.441 . S
U286 O305 2.420 . S
U286 O306 2.455 . S
U286 O307 2.449 . S
O287 U286 2.454 . S
O287 C289 1.353 . S
O288 U286 2.458 . S
O288 C289 1.286 . S
C289 U286 2.984 . S
C289 O287 1.353 . S
C289 O288 1.286 . S
C289 C291 1.363 . S
C290 C280 1.465 . S
C290 U286 2.847 . S
C290 O304 1.249 . S
C290 O305 1.202 . S
C291 C289 1.363 . S
C291 C293 1.408 . S
C291 C296 1.342 . S
C292 C293 1.310 . S
C292 C295 1.461 . S
C292 H312 0.932 . S
C293 C291 1.408 . S
C293 C292 1.310 . S
C293 H313 0.930 . S
C294 C295 1.474 . S
C294 C296 1.285 . S
C294 H314 0.929 . S
C295 C292 1.461 . S
C295 C294 1.474 . S
C296 C291 1.342 . S
C296 C294 1.285 . S
C296 H315 0.930 . S
C297 C300 1.424 . S
C297 C302 1.245 . S
C297 C303 1.428 . S
C298 C301 1.260 . S
C298 C302 1.477 . S
C298 H316 0.932 . S
C299 C300 1.384 . S
C299 C301 1.479 . S
C299 H317 0.929 . S
C300 C297 1.424 . S
C300 C299 1.384 . S
C300 H318 0.928 . S
C301 C298 1.260 . S
C301 C299 1.479 . S
C302 C297 1.245 . S
C302 C298 1.477 . S
C302 H319 0.932 . S
C303 U286 2.882 . S
C303 C297 1.428 . S
C303 O306 1.301 . S
C303 O307 1.282 . S
O304 U286 2.441 . S
O304 C290 1.249 . S
O305 U286 2.420 . S
O305 C290 1.202 . S
O306 U286 2.455 . S
O306 C303 1.301 . S
O307 U286 2.449 . S
O307 C303 1.282 . S
H308 C281 0.931 . S
H309 C283 0.929 . S
H310 C284 0.930 . S
H311 C285 0.931 . S
H312 C292 0.932 . S
H313 C293 0.930 . S
H314 C294 0.929 . S
H315 C296 0.930 . S
H316 C298 0.932 . S
H317 C299 0.929 . S
H318 C300 0.928 . S
H319 C302 0.932 . S
C320 C322 1.422 . S
C320 C324 1.415 . S
C320 N326 1.369 . S
C321 C322 1.421 . S
C321 C323 1.417 . S
C321 C333 1.422 . S
C322 C320 1.422 . S
C322 C321 1.421 . S
C322 N332 1.359 . S
C323 C321 1.417 . S
C323 C325 1.329 . S
C323 H342 0.930 . S
C324 C320 1.415 . S
C324 C325 1.437 . S
C324 C328 1.413 . S
C325 C323 1.329 . S
C325 C324 1.437 . S
C325 H347 0.929 . S
N326 C320 1.369 . S
N326 C327 1.338 . S
N326 Gd331 2.622 . S
C327 N326 1.338 . S
C327 C329 1.378 . S
C327 H339 0.929 . S
C328 C324 1.413 . S
C328 C329 1.348 . S
C328 H344 0.931 . S
C329 C327 1.378 . S
C329 C328 1.348 . S
C329 H345 0.930 . S
Gd330 N350 2.622 . S
Gd330 N357 2.570 . S
Gd330 O364 2.353 . S
Gd330 O365 2.468 . S
Gd330 O366 2.427 . S
Gd330 O368 2.388 . S
Gd330 O369 2.386 . S
Gd330 O373 2.323 . S
Gd330 C383 2.805 . S
Gd331 N326 2.622 . S
Gd331 N332 2.570 . S
Gd331 O363 2.386 . S
Gd331 O367 2.307 1_655 S
Gd331 O370 2.353 1_655 S
Gd331 O371 2.468 . S
Gd331 O372 2.427 . S
Gd331 O374 2.388 . S
Gd331 C395 2.805 . S
N332 C322 1.359 . S
N332 Gd331 2.570 . S
N332 C334 1.343 . S
C333 C321 1.422 . S
C333 C335 1.321 . S
C333 H341 0.931 . S
C334 N332 1.343 . S
C334 C335 1.390 . S
C334 H336 0.931 . S
C335 C333 1.321 . S
C335 C334 1.390 . S
C335 H337 0.930 . S
H336 C334 0.931 . S
H337 C335 0.930 . S
H338 C361 0.931 . S
H339 C327 0.929 . S
H340 C362 0.930 . S
H341 C333 0.931 . S
H342 C323 0.930 . S
H343 C352 0.929 . S
H344 C328 0.931 . S
H345 C329 0.930 . S
H346 C384 0.930 . S
H347 C325 0.929 . S
H348 C353 0.931 . S
H349 C354 0.930 . S
N350 Gd330 2.622 . S
N350 C351 1.369 . S
N350 C352 1.338 . S
C351 N350 1.369 . S
C351 C355 1.415 . S
C351 C358 1.422 . S
C352 H343 0.929 . S
C352 N350 1.338 . S
C352 C354 1.378 . S
C353 H348 0.931 . S
C353 C354 1.348 . S
C353 C355 1.413 . S
C354 H349 0.930 . S
C354 C352 1.378 . S
C354 C353 1.348 . S
C355 C351 1.415 . S
C355 C353 1.413 . S
C355 C385 1.437 . S
H356 C385 0.929 . S
N357 Gd330 2.570 . S
N357 C358 1.359 . S
N357 C361 1.343 . S
C358 C351 1.422 . S
C358 N357 1.359 . S
C358 C360 1.421 . S
C359 C360 1.422 . S
C359 C362 1.321 . S
C359 H386 0.931 . S
C360 C358 1.421 . S
C360 C359 1.422 . S
C360 C384 1.417 . S
C361 H338 0.931 . S
C361 N357 1.343 . S
C361 C362 1.390 . S
C362 H340 0.930 . S
C362 C359 1.321 . S
C362 C361 1.390 . S
O363 Gd331 2.386 . S
O363 C375 1.265 . S
O364 Gd330 2.353 . S
O364 C375 1.242 1_455 S
O365 Gd330 2.468 . S
O365 C383 1.263 . S
O366 Gd330 2.427 . S
O366 C383 1.252 . S
O367 Gd331 2.307 1_455 S
O367 C376 1.261 . S
O368 Gd330 2.388 . S
O368 C376 1.252 . S
O369 Gd330 2.386 . S
O369 C387 1.265 . S
O370 Gd331 2.353 1_455 S
O370 C387 1.242 . S
O371 Gd331 2.468 . S
O371 C395 1.263 . S
O372 Gd331 2.427 . S
O372 C395 1.252 . S
O373 Gd330 2.323 . S
O373 C388 1.243 1_455 S
O374 Gd331 2.388 . S
O374 C388 1.252 . S
C375 O363 1.265 . S
C375 O364 1.242 1_655 S
C376 O367 1.261 . S
C376 O368 1.252 . S
C377 C380 1.394 . S
C377 C382 1.370 . S
C377 C383 1.500 . S
C378 C381 1.383 . S
C378 C382 1.395 . S
C379 C380 1.396 . S
C379 C381 1.365 . S
C379 H396 0.929 . S
C380 C377 1.394 . S
C380 C379 1.396 . S
C380 H397 0.930 . S
C381 C378 1.383 . S
C381 C379 1.365 . S
C381 H398 0.931 . S
C382 C377 1.370 . S
C382 C378 1.395 . S
C382 H399 0.930 . S
C383 Gd330 2.805 . S
C383 O365 1.263 . S
C383 O366 1.252 . S
C383 C377 1.500 . S
C384 H346 0.930 . S
C384 C360 1.417 . S
C384 C385 1.329 . S
C385 C355 1.437 . S
C385 H356 0.929 . S
C385 C384 1.329 . S
H386 C359 0.931 . S
C387 O369 1.265 . S
C387 O370 1.242 . S
C388 O373 1.243 1_655 S
C388 O374 1.252 . S
C389 C392 1.394 . S
C389 C394 1.370 . S
C389 C395 1.500 . S
C390 C393 1.383 . S
C390 C394 1.395 . S
C391 C392 1.396 . S
C391 C393 1.365 . S
C391 H400 0.929 . S
C392 C389 1.394 . S
C392 C391 1.396 . S
C392 H401 0.930 . S
C393 C390 1.383 . S
C393 C391 1.365 . S
C393 H402 0.931 . S
C394 C389 1.370 . S
C394 C390 1.395 . S
C394 H403 0.930 . S
C395 Gd331 2.805 . S
C395 O371 1.263 . S
C395 O372 1.252 . S
C395 C389 1.500 . S
H396 C379 0.929 . S
H397 C380 0.930 . S
H398 C381 0.931 . S
H399 C382 0.930 . S
H400 C391 0.929 . S
H401 C392 0.930 . S
H402 C393 0.931 . S
H403 C394 0.930 . S
C404 C406 1.422 . S
C404 C408 1.415 . S
C404 N410 1.369 . S
C405 C406 1.421 . S
C405 C407 1.417 . S
C405 C417 1.422 . S
C406 C404 1.422 . S
C406 C405 1.421 . S
C406 N416 1.359 . S
C407 C405 1.417 . S
C407 C409 1.329 . S
C407 H426 0.930 . S
C408 C404 1.415 . S
C408 C409 1.437 . S
C408 C412 1.413 . S
C409 C407 1.329 . S
C409 C408 1.437 . S
C409 H431 0.929 . S
N410 C404 1.369 . S
N410 C411 1.338 . S
N410 Gd415 2.622 . S
C411 N410 1.338 . S
C411 C413 1.378 . S
C411 H423 0.929 . S
C412 C408 1.413 . S
C412 C413 1.348 . S
C412 H428 0.931 . S
C413 C411 1.378 . S
C413 C412 1.348 . S
C413 H429 0.930 . S
Gd414 N434 2.622 . S
Gd414 N441 2.570 . S
Gd414 O448 2.353 . S
Gd414 O449 2.468 . S
Gd414 O450 2.427 . S
Gd414 O452 2.388 . S
Gd414 O453 2.386 . S
Gd414 O457 2.307 . S
Gd414 C467 2.805 . S
Gd415 N410 2.622 . S
Gd415 N416 2.570 . S
Gd415 O447 2.386 . S
Gd415 O451 2.307 . S
Gd415 O454 2.353 . S
Gd415 O455 2.468 . S
Gd415 O456 2.427 . S
Gd415 O458 2.388 . S
Gd415 C479 2.805 . S
N416 C406 1.359 . S
N416 Gd415 2.570 . S
N416 C418 1.343 . S
C417 C405 1.422 . S
C417 C419 1.321 . S
C417 H425 0.931 . S
C418 N416 1.343 . S
C418 C419 1.390 . S
C418 H420 0.931 . S
C419 C417 1.321 . S
C419 C418 1.390 . S
C419 H421 0.930 . S
H420 C418 0.931 . S
H421 C419 0.930 . S
H422 C445 0.931 . S
H423 C411 0.929 . S
H424 C446 0.930 . S
H425 C417 0.931 . S
H426 C407 0.930 . S
H427 C436 0.929 . S
H428 C412 0.931 . S
H429 C413 0.930 . S
H430 C468 0.930 . S
H431 C409 0.929 . S
H432 C437 0.931 . S
H433 C438 0.930 . S
N434 Gd414 2.622 . S
N434 C435 1.369 . S
N434 C436 1.338 . S
C435 N434 1.369 . S
C435 C439 1.415 . S
C435 C442 1.422 . S
C436 H427 0.929 . S
C436 N434 1.338 . S
C436 C438 1.378 . S
C437 H432 0.931 . S
C437 C438 1.348 . S
C437 C439 1.413 . S
C438 H433 0.930 . S
C438 C436 1.378 . S
C438 C437 1.348 . S
C439 C435 1.415 . S
C439 C437 1.413 . S
C439 C469 1.437 . S
H440 C469 0.929 . S
N441 Gd414 2.570 . S
N441 C442 1.359 . S
N441 C445 1.343 . S
C442 C435 1.422 . S
C442 N441 1.359 . S
C442 C444 1.421 . S
C443 C444 1.422 . S
C443 C446 1.321 . S
C443 H470 0.931 . S
C444 C442 1.421 . S
C444 C443 1.422 . S
C444 C468 1.417 . S
C445 H422 0.931 . S
C445 N441 1.343 . S
C445 C446 1.390 . S
C446 H424 0.930 . S
C446 C443 1.321 . S
C446 C445 1.390 . S
O447 Gd415 2.386 . S
O447 C459 1.265 . S
O448 Gd414 2.353 . S
O448 C459 1.242 . S
O449 Gd414 2.468 . S
O449 C467 1.263 . S
O450 Gd414 2.427 . S
O450 C467 1.252 . S
O451 Gd415 2.307 . S
O451 C460 1.261 . S
O452 Gd414 2.388 . S
O452 C460 1.252 . S
O453 Gd414 2.386 . S
O453 C471 1.265 . S
O454 Gd415 2.353 . S
O454 C471 1.242 . S
O455 Gd415 2.468 . S
O455 C479 1.263 . S
O456 Gd415 2.427 . S
O456 C479 1.252 . S
O457 Gd414 2.307 . S
O457 C472 1.261 . S
O458 Gd415 2.388 . S
O458 C472 1.252 . S
C459 O447 1.265 . S
C459 O448 1.242 . S
C460 O451 1.261 . S
C460 O452 1.252 . S
C461 C464 1.394 . S
C461 C466 1.370 . S
C461 C467 1.500 . S
C462 C465 1.383 . S
C462 C466 1.395 . S
C463 C464 1.396 . S
C463 C465 1.365 . S
C463 H480 0.929 . S
C464 C461 1.394 . S
C464 C463 1.396 . S
C464 H481 0.930 . S
C465 C462 1.383 . S
C465 C463 1.365 . S
C465 H482 0.931 . S
C466 C461 1.370 . S
C466 C462 1.395 . S
C466 H483 0.930 . S
C467 Gd414 2.805 . S
C467 O449 1.263 . S
C467 O450 1.252 . S
C467 C461 1.500 . S
C468 H430 0.930 . S
C468 C444 1.417 . S
C468 C469 1.329 . S
C469 C439 1.437 . S
C469 H440 0.929 . S
C469 C468 1.329 . S
H470 C443 0.931 . S
C471 O453 1.265 . S
C471 O454 1.242 . S
C472 O457 1.261 . S
C472 O458 1.252 . S
C473 C476 1.394 . S
C473 C478 1.370 . S
C473 C479 1.500 . S
C474 C477 1.383 . S
C474 C478 1.395 . S
C475 C476 1.396 . S
C475 C477 1.365 . S
C475 H484 0.929 . S
C476 C473 1.394 . S
C476 C475 1.396 . S
C476 H485 0.930 . S
C477 C474 1.383 . S
C477 C475 1.365 . S
C477 H486 0.931 . S
C478 C473 1.370 . S
C478 C474 1.395 . S
C478 H487 0.930 . S
C479 Gd415 2.805 . S
C479 O455 1.263 . S
C479 O456 1.252 . S
C479 C473 1.500 . S
H480 C463 0.929 . S
H481 C464 0.930 . S
H482 C465 0.931 . S
H483 C466 0.930 . S
H484 C475 0.929 . S
H485 C476 0.930 . S
H486 C477 0.931 . S
H487 C478 0.930 . S
C488 C490 1.422 . S
C488 C492 1.415 . S
C488 N494 1.369 . S
C489 C490 1.421 . S
C489 C491 1.417 . S
C489 C501 1.422 . S
C490 C488 1.422 . S
C490 C489 1.421 . S
C490 N500 1.359 . S
C491 C489 1.417 . S
C491 C493 1.329 . S
C491 H510 0.930 . S
C492 C488 1.415 . S
C492 C493 1.437 . S
C492 C496 1.413 . S
C493 C491 1.329 . S
C493 C492 1.437 . S
C493 H515 0.929 . S
N494 C488 1.369 . S
N494 C495 1.338 . S
N494 Gd499 2.622 . S
C495 N494 1.338 . S
C495 C497 1.378 . S
C495 H507 0.929 . S
C496 C492 1.413 . S
C496 C497 1.348 . S
C496 H512 0.931 . S
C497 C495 1.378 . S
C497 C496 1.348 . S
C497 H513 0.930 . S
Gd498 N518 2.622 . S
Gd498 N525 2.570 . S
Gd498 O532 2.353 . S
Gd498 O533 2.468 . S
Gd498 O534 2.427 . S
Gd498 O536 2.388 . S
Gd498 O537 2.386 . S
Gd498 O541 2.307 . S
Gd498 C551 2.805 . S
Gd499 N494 2.622 . S
Gd499 N500 2.570 . S
Gd499 O531 2.386 . S
Gd499 O535 2.307 1_655 S
Gd499 O538 2.353 1_655 S
Gd499 O539 2.468 . S
Gd499 O540 2.427 . S
Gd499 O542 2.388 . S
Gd499 C563 2.805 . S
N500 C490 1.359 . S
N500 Gd499 2.570 . S
N500 C502 1.343 . S
C501 C489 1.422 . S
C501 C503 1.321 . S
C501 H509 0.931 . S
C502 N500 1.343 . S
C502 C503 1.390 . S
C502 H504 0.931 . S
C503 C501 1.321 . S
C503 C502 1.390 . S
C503 H505 0.930 . S
H504 C502 0.931 . S
H505 C503 0.930 . S
H506 C529 0.931 . S
H507 C495 0.929 . S
H508 C530 0.930 . S
H509 C501 0.931 . S
H510 C491 0.930 . S
H511 C520 0.929 . S
H512 C496 0.931 . S
H513 C497 0.930 . S
H514 C552 0.930 . S
H515 C493 0.929 . S
H516 C521 0.931 . S
H517 C522 0.930 . S
N518 Gd498 2.622 . S
N518 C519 1.369 . S
N518 C520 1.338 . S
C519 N518 1.369 . S
C519 C523 1.415 . S
C519 C526 1.422 . S
C520 H511 0.929 . S
C520 N518 1.338 . S
C520 C522 1.378 . S
C521 H516 0.931 . S
C521 C522 1.348 . S
C521 C523 1.413 . S
C522 H517 0.930 . S
C522 C520 1.378 . S
C522 C521 1.348 . S
C523 C519 1.415 . S
C523 C521 1.413 . S
C523 C553 1.437 . S
H524 C553 0.929 . S
N525 Gd498 2.570 . S
N525 C526 1.359 . S
N525 C529 1.343 . S
C526 C519 1.422 . S
C526 N525 1.359 . S
C526 C528 1.421 . S
C527 C528 1.422 . S
C527 C530 1.321 . S
C527 H554 0.931 . S
C528 C526 1.421 . S
C528 C527 1.422 . S
C528 C552 1.417 . S
C529 H506 0.931 . S
C529 N525 1.343 . S
C529 C530 1.390 . S
C530 H508 0.930 . S
C530 C527 1.321 . S
C530 C529 1.390 . S
O531 Gd499 2.386 . S
O531 C543 1.265 . S
O532 Gd498 2.353 . S
O532 C543 1.242 1_455 S
O533 Gd498 2.468 . S
O533 C551 1.263 . S
O534 Gd498 2.427 . S
O534 C551 1.252 . S
O535 Gd499 2.307 1_455 S
O535 C544 1.261 . S
O536 Gd498 2.388 . S
O536 C544 1.252 . S
O537 Gd498 2.386 . S
O537 C555 1.265 . S
O538 Gd499 2.353 1_455 S
O538 C555 1.242 . S
O539 Gd499 2.468 . S
O539 C563 1.263 . S
O540 Gd499 2.427 . S
O540 C563 1.252 . S
O541 Gd498 2.307 . S
O541 C556 1.261 1_455 S
O542 Gd499 2.388 . S
O542 C556 1.252 . S
C543 O531 1.265 . S
C543 O532 1.242 1_655 S
C544 O535 1.261 . S
C544 O536 1.252 . S
C545 C548 1.394 . S
C545 C550 1.370 . S
C545 C551 1.500 . S
C546 C549 1.383 . S
C546 C550 1.395 . S
C547 C548 1.396 . S
C547 C549 1.365 . S
C547 H564 0.929 . S
C548 C545 1.394 . S
C548 C547 1.396 . S
C548 H565 0.930 . S
C549 C546 1.383 . S
C549 C547 1.365 . S
C549 H566 0.931 . S
C550 C545 1.370 . S
C550 C546 1.395 . S
C550 H567 0.930 . S
C551 Gd498 2.805 . S
C551 O533 1.263 . S
C551 O534 1.252 . S
C551 C545 1.500 . S
C552 H514 0.930 . S
C552 C528 1.417 . S
C552 C553 1.329 . S
C553 C523 1.437 . S
C553 H524 0.929 . S
C553 C552 1.329 . S
H554 C527 0.931 . S
C555 O537 1.265 . S
C555 O538 1.242 . S
C556 O541 1.261 1_655 S
C556 O542 1.252 . S
C557 C560 1.394 . S
C557 C562 1.370 . S
C557 C563 1.500 . S
C558 C561 1.383 . S
C558 C562 1.395 . S
C559 C560 1.396 . S
C559 C561 1.365 . S
C559 H568 0.929 . S
C560 C557 1.394 . S
C560 C559 1.396 . S
C560 H569 0.930 . S
C561 C558 1.383 . S
C561 C559 1.365 . S
C561 H570 0.931 . S
C562 C557 1.370 . S
C562 C558 1.395 . S
C562 H571 0.930 . S
C563 Gd499 2.805 . S
C563 O539 1.263 . S
C563 O540 1.252 . S
C563 C557 1.500 . S
H564 C547 0.929 . S
H565 C548 0.930 . S
H566 C549 0.931 . S
H567 C550 0.930 . S
H568 C559 0.929 . S
H569 C560 0.930 . S
H570 C561 0.931 . S
H571 C562 0.930 . S
C572 C574 1.422 . S
C572 C576 1.415 . S
C572 N578 1.369 . S
C573 C574 1.421 . S
C573 C575 1.417 . S
C573 C585 1.422 . S
C574 C572 1.422 . S
C574 C573 1.421 . S
C574 N584 1.359 . S
C575 C573 1.417 . S
C575 C577 1.329 . S
C575 H594 0.930 . S
C576 C572 1.415 . S
C576 C577 1.437 . S
C576 C580 1.413 . S
C577 C575 1.329 . S
C577 C576 1.437 . S
C577 H599 0.929 . S
N578 C572 1.369 . S
N578 C579 1.338 . S
N578 Gd583 2.622 . S
C579 N578 1.338 . S
C579 C581 1.378 . S
C579 H591 0.929 . S
C580 C576 1.413 . S
C580 C581 1.348 . S
C580 H596 0.931 . S
C581 C579 1.378 . S
C581 C580 1.348 . S
C581 H597 0.930 . S
Gd582 N602 2.622 . S
Gd582 N609 2.570 . S
Gd582 O616 2.353 . S
Gd582 O617 2.468 . S
Gd582 O618 2.427 . S
Gd582 O620 2.388 . S
Gd582 O621 2.386 . S
Gd582 O625 2.307 . S
Gd582 C635 2.805 . S
Gd583 N578 2.622 . S
Gd583 N584 2.570 . S
Gd583 O615 2.386 . S
Gd583 O619 2.307 . S
Gd583 O622 2.353 . S
Gd583 O623 2.468 . S
Gd583 O624 2.427 . S
Gd583 O626 2.388 . S
Gd583 C647 2.805 . S
N584 C574 1.359 . S
N584 Gd583 2.570 . S
N584 C586 1.343 . S
C585 C573 1.422 . S
C585 C587 1.321 . S
C585 H593 0.931 . S
C586 N584 1.343 . S
C586 C587 1.390 . S
C586 H588 0.931 . S
C587 C585 1.321 . S
C587 C586 1.390 . S
C587 H589 0.930 . S
H588 C586 0.931 . S
H589 C587 0.930 . S
H590 C613 0.931 . S
H591 C579 0.929 . S
H592 C614 0.930 . S
H593 C585 0.931 . S
H594 C575 0.930 . S
H595 C604 0.929 . S
H596 C580 0.931 . S
H597 C581 0.930 . S
H598 C636 0.930 . S
H599 C577 0.929 . S
H600 C605 0.931 . S
H601 C606 0.930 . S
N602 Gd582 2.622 . S
N602 C603 1.369 . S
N602 C604 1.338 . S
C603 N602 1.369 . S
C603 C607 1.415 . S
C603 C610 1.422 . S
C604 H595 0.929 . S
C604 N602 1.338 . S
C604 C606 1.378 . S
C605 H600 0.931 . S
C605 C606 1.348 . S
C605 C607 1.413 . S
C606 H601 0.930 . S
C606 C604 1.378 . S
C606 C605 1.348 . S
C607 C603 1.415 . S
C607 C605 1.413 . S
C607 C637 1.437 . S
H608 C637 0.929 . S
N609 Gd582 2.570 . S
N609 C610 1.359 . S
N609 C613 1.343 . S
C610 C603 1.422 . S
C610 N609 1.359 . S
C610 C612 1.421 . S
C611 C612 1.422 . S
C611 C614 1.321 . S
C611 H638 0.931 . S
C612 C610 1.421 . S
C612 C611 1.422 . S
C612 C636 1.417 . S
C613 H590 0.931 . S
C613 N609 1.343 . S
C613 C614 1.390 . S
C614 H592 0.930 . S
C614 C611 1.321 . S
C614 C613 1.390 . S
O615 Gd583 2.386 . S
O615 C627 1.265 . S
O616 Gd582 2.353 . S
O616 C627 1.242 . S
O617 Gd582 2.468 . S
O617 C635 1.263 . S
O618 Gd582 2.427 . S
O618 C635 1.252 . S
O619 Gd583 2.307 . S
O619 C628 1.261 . S
O620 Gd582 2.388 . S
O620 C628 1.252 . S
O621 Gd582 2.386 . S
O621 C639 1.265 . S
O622 Gd583 2.353 . S
O622 C639 1.242 . S
O623 Gd583 2.468 . S
O623 C647 1.263 . S
O624 Gd583 2.427 . S
O624 C647 1.252 . S
O625 Gd582 2.307 . S
O625 C640 1.261 . S
O626 Gd583 2.388 . S
O626 C640 1.252 . S
C627 O615 1.265 . S
C627 O616 1.242 . S
C628 O619 1.261 . S
C628 O620 1.252 . S
C629 C632 1.394 . S
C629 C634 1.370 . S
C629 C635 1.500 . S
C630 C633 1.383 . S
C630 C634 1.395 . S
C631 C632 1.396 . S
C631 C633 1.365 . S
C631 H648 0.929 . S
C632 C629 1.394 . S
C632 C631 1.396 . S
C632 H649 0.930 . S
C633 C630 1.383 . S
C633 C631 1.365 . S
C633 H650 0.931 . S
C634 C629 1.370 . S
C634 C630 1.395 . S
C634 H651 0.930 . S
C635 Gd582 2.805 . S
C635 O617 1.263 . S
C635 O618 1.252 . S
C635 C629 1.500 . S
C636 H598 0.930 . S
C636 C612 1.417 . S
C636 C637 1.329 . S
C637 C607 1.437 . S
C637 H608 0.929 . S
C637 C636 1.329 . S
H638 C611 0.931 . S
C639 O621 1.265 . S
C639 O622 1.242 . S
C640 O625 1.261 . S
C640 O626 1.252 . S
C641 C644 1.394 . S
C641 C646 1.370 . S
C641 C647 1.500 . S
C642 C645 1.383 . S
C642 C646 1.395 . S
C643 C644 1.396 . S
C643 C645 1.365 . S
C643 H652 0.929 . S
C644 C641 1.394 . S
C644 C643 1.396 . S
C644 H653 0.930 . S
C645 C642 1.383 . S
C645 C643 1.365 . S
C645 H654 0.931 . S
C646 C641 1.370 . S
C646 C642 1.395 . S
C646 H655 0.930 . S
C647 Gd583 2.805 . S
C647 O623 1.263 . S
C647 O624 1.252 . S
C647 C641 1.500 . S
H648 C631 0.929 . S
H649 C632 0.930 . S
H650 C633 0.931 . S
H651 C634 0.930 . S
H652 C643 0.929 . S
H653 C644 0.930 . S
H654 C645 0.931 . S
H655 C646 0.930 . S
C656 C657 1.349 . S
C656 C658 1.327 . S
C656 H681 0.950 . S
C657 C656 1.349 . S
C657 C673 1.398 . S
C658 C656 1.327 . S
C658 C677 1.429 1_565 S
C658 H682 0.950 . S
C659 C676 1.574 . S
C659 C678 1.368 . S
C659 H683 0.949 . S
H660 C664 0.949 . S
C661 C662 1.349 . S
C661 C663 1.327 . S
C661 H684 0.950 . S
C662 C661 1.349 . S
C662 C674 1.349 . S
C663 C661 1.327 . S
C663 C679 1.429 . S
C663 H685 0.950 . S
C664 H660 0.949 . S
C664 C672 1.574 . S
C664 C680 1.368 . S
H665 C673 0.940 1_545 S
H666 C671 0.950 . S
H667 C672 0.949 . S
H668 C674 0.950 . S
H669 C675 0.950 . S
H670 C676 0.949 . S
C671 H666 0.950 . S
C671 C673 1.289 1_545 S
C671 C677 1.429 . S
C672 C664 1.574 . S
C672 H667 0.949 . S
C672 C678 1.368 . S
C673 C657 1.398 . S
C673 H665 0.940 1_565 S
C673 C671 1.289 1_565 S
C674 C662 1.349 . S
C674 H668 0.950 . S
C674 C675 1.327 . S
C675 H669 0.950 . S
C675 C674 1.327 . S
C675 C679 1.429 . S
C676 C659 1.574 . S
C676 H670 0.949 . S
C676 C680 1.368 . S
C677 C658 1.429 1_545 S
C677 C671 1.429 . S
C677 C678 1.523 . S
C678 C659 1.368 . S
C678 C672 1.368 . S
C678 C677 1.523 . S
C679 C663 1.429 . S
C679 C675 1.429 . S
C679 C680 1.523 . S
C680 C664 1.368 . S
C680 C676 1.368 . S
C680 C679 1.523 . S
H681 C656 0.950 . S
H682 C658 0.950 . S
H683 C659 0.949 . S
H684 C661 0.950 . S
H685 C663 0.950 . S
C686 C687 1.349 . S
C686 C688 1.327 . S
C686 H711 0.950 . S
C687 C686 1.349 . S
C687 C703 1.349 . S
C688 C686 1.327 . S
C688 C707 1.429 . S
C688 H712 0.950 . S
C689 C706 1.574 . S
C689 C708 1.368 . S
C689 H713 0.949 . S
H690 C694 0.949 . S
C691 C692 1.349 . S
C691 C693 1.327 . S
C691 H714 0.950 . S
C692 C691 1.349 . S
C692 C704 1.349 . S
C693 C691 1.327 . S
C693 C709 1.429 . S
C693 H715 0.950 . S
C694 H690 0.949 . S
C694 C702 1.574 . S
C694 C710 1.368 . S
H695 C703 0.950 . S
H696 C701 0.950 . S
H697 C702 0.949 . S
H698 C704 0.950 . S
H699 C705 0.950 . S
H700 C706 0.949 . S
C701 H696 0.950 . S
C701 C703 1.327 . S
C701 C707 1.429 . S
C702 C694 1.574 . S
C702 H697 0.949 . S
C702 C708 1.368 . S
C703 C687 1.349 . S
C703 H695 0.950 . S
C703 C701 1.327 . S
C704 C692 1.349 . S
C704 H698 0.950 . S
C704 C705 1.327 . S
C705 H699 0.950 . S
C705 C704 1.327 . S
C705 C709 1.429 . S
C706 C689 1.574 . S
C706 H700 0.949 . S
C706 C710 1.368 . S
C707 C688 1.429 . S
C707 C701 1.429 . S
C707 C708 1.523 . S
C708 C689 1.368 . S
C708 C702 1.368 . S
C708 C707 1.523 . S
C709 C693 1.429 . S
C709 C705 1.429 . S
C709 C710 1.523 . S
C710 C694 1.368 . S
C710 C706 1.368 . S
C710 C709 1.523 . S
H711 C686 0.950 . S
H712 C688 0.950 . S
H713 C689 0.949 . S
H714 C691 0.950 . S
H715 C693 0.950 . S
C716 C717 1.349 . S
C716 C718 1.327 . S
C716 H741 0.950 . S
C717 C716 1.349 . S
C717 C733 1.349 . S
C718 C716 1.327 . S
C718 C737 1.429 . S
C718 H742 0.950 . S
C719 C736 1.574 . S
C719 C738 1.368 . S
C719 H743 0.949 . S
H720 C724 0.949 . S
C721 C722 1.349 . S
C721 C723 1.327 . S
C721 H744 0.950 . S
C722 C721 1.349 . S
C722 C734 1.349 . S
C723 C721 1.327 . S
C723 C739 1.429 . S
C723 H745 0.950 . S
C724 H720 0.949 . S
C724 C732 1.574 . S
C724 C740 1.368 . S
H725 C733 0.950 . S
H726 C731 0.950 . S
H727 C732 0.949 . S
H728 C734 0.950 . S
H729 C735 0.950 . S
H730 C736 0.949 . S
C731 H726 0.950 . S
C731 C733 1.327 . S
C731 C737 1.429 . S
C732 C724 1.574 . S
C732 H727 0.949 . S
C732 C738 1.368 . S
C733 C717 1.349 . S
C733 H725 0.950 . S
C733 C731 1.327 . S
C734 C722 1.349 . S
C734 H728 0.950 . S
C734 C735 1.327 . S
C735 H729 0.950 . S
C735 C734 1.327 . S
C735 C739 1.429 . S
C736 C719 1.574 . S
C736 H730 0.949 . S
C736 C740 1.368 . S
C737 C718 1.429 . S
C737 C731 1.429 . S
C737 C738 1.523 . S
C738 C719 1.368 . S
C738 C732 1.368 . S
C738 C737 1.523 . S
C739 C723 1.429 . S
C739 C735 1.429 . S
C739 C740 1.523 . S
C740 C724 1.368 . S
C740 C736 1.368 . S
C740 C739 1.523 . S
H741 C716 0.950 . S
H742 C718 0.950 . S
H743 C719 0.949 . S
H744 C721 0.950 . S
H745 C723 0.950 . S
C746 C747 1.349 . S
C746 C748 1.327 . S
C746 H771 0.950 . S
C747 C746 1.349 . S
C747 C763 1.349 . S
C748 C746 1.327 . S
C748 C767 1.429 1_565 S
C748 H772 0.950 . S
C749 C766 1.574 . S
C749 C768 1.368 . S
C749 H773 0.949 . S
H750 C754 0.949 . S
C751 C752 1.349 . S
C751 C753 1.327 . S
C751 H774 0.950 . S
C752 C751 1.349 . S
C752 C764 1.349 . S
C753 C751 1.327 . S
C753 C769 1.429 . S
C753 H775 0.950 . S
C754 H750 0.949 . S
C754 C762 1.574 . S
C754 C770 1.368 . S
H755 C763 0.950 1_545 S
H756 C761 0.950 . S
H757 C762 0.949 . S
H758 C764 0.950 . S
H759 C765 0.950 . S
H760 C766 0.949 . S
C761 H756 0.950 . S
C761 C763 1.327 1_545 S
C761 C767 1.429 . S
C762 C754 1.574 . S
C762 H757 0.949 . S
C762 C768 1.368 . S
C763 C747 1.349 . S
C763 H755 0.950 1_565 S
C763 C761 1.327 1_565 S
C764 C752 1.349 . S
C764 H758 0.950 . S
C764 C765 1.327 . S
C765 H759 0.950 . S
C765 C764 1.327 . S
C765 C769 1.429 . S
C766 C749 1.574 . S
C766 H760 0.949 . S
C766 C770 1.368 . S
C767 C748 1.429 1_545 S
C767 C761 1.429 . S
C767 C768 1.523 . S
C768 C749 1.368 . S
C768 C762 1.368 . S
C768 C767 1.523 . S
C769 C753 1.429 . S
C769 C765 1.429 . S
C769 C770 1.523 . S
C770 C754 1.368 . S
C770 C766 1.368 . S
C770 C769 1.523 . S
H771 C746 0.950 . S
H772 C748 0.950 . S
H773 C749 0.949 . S
H774 C751 0.950 . S
H775 C753 0.950 . S
C776 C777 1.349 . S
C776 C778 1.327 . S
C776 H801 0.950 . S
C777 C776 1.349 . S
C777 C793 1.349 . S
C778 C776 1.327 . S
C778 C797 1.429 1_545 S
C778 H802 0.950 . S
C779 C796 1.574 . S
C779 C798 1.368 . S
C779 H803 0.949 . S
H780 C784 0.949 . S
C781 C782 1.349 . S
C781 C783 1.327 . S
C781 H804 0.950 . S
C782 C781 1.349 . S
C782 C794 1.349 . S
C783 C781 1.327 . S
C783 C799 1.429 . S
C783 H805 0.950 . S
C784 H780 0.949 . S
C784 C792 1.574 . S
C784 C800 1.368 . S
H785 C793 0.950 . S
H786 C791 0.950 . S
H787 C792 0.949 . S
H788 C794 0.950 . S
H789 C795 0.950 . S
H790 C796 0.949 . S
C791 H786 0.950 . S
C791 C793 1.327 1_565 S
C791 C797 1.429 . S
C792 C784 1.574 . S
C792 H787 0.949 . S
C792 C798 1.368 . S
C793 C777 1.349 . S
C793 H785 0.950 . S
C793 C791 1.327 1_545 S
C794 C782 1.349 . S
C794 H788 0.950 . S
C794 C795 1.327 . S
C795 H789 0.950 . S
C795 C794 1.327 . S
C795 C799 1.429 . S
C796 C779 1.574 . S
C796 H790 0.949 . S
C796 C800 1.368 . S
C797 C778 1.429 1_565 S
C797 C791 1.429 . S
C797 C798 1.523 . S
C798 C779 1.368 . S
C798 C792 1.368 . S
C798 C797 1.523 . S
C799 C783 1.429 . S
C799 C795 1.429 . S
C799 C800 1.523 . S
C800 C784 1.368 . S
C800 C796 1.368 . S
C800 C799 1.523 . S
H801 C776 0.950 . S
H802 C778 0.950 . S
H803 C779 0.949 . S
H804 C781 0.950 . S
H805 C783 0.950 . S
C806 C807 1.349 . S
C806 C808 1.327 . S
C806 H831 0.950 . S
C807 C806 1.349 . S
C807 C823 1.349 . S
C808 C806 1.327 . S
C808 C827 1.429 . S
C808 H832 0.950 . S
C809 C826 1.574 . S
C809 C828 1.368 . S
C809 H833 0.949 . S
H810 C814 0.949 . S
C811 C812 1.349 . S
C811 C813 1.327 . S
C811 H834 0.950 . S
C812 C811 1.349 . S
C812 C824 1.349 . S
C813 C811 1.327 . S
C813 C829 1.429 . S
C813 H835 0.950 . S
C814 H810 0.949 . S
C814 C822 1.574 . S
C814 C830 1.368 . S
H815 C823 0.950 . S
H816 C821 0.950 . S
H817 C822 0.949 . S
H818 C824 0.950 . S
H819 C825 0.950 . S
H820 C826 0.949 . S
C821 H816 0.950 . S
C821 C823 1.327 . S
C821 C827 1.429 . S
C822 C814 1.574 . S
C822 H817 0.949 . S
C822 C828 1.368 . S
C823 C807 1.349 . S
C823 H815 0.950 . S
C823 C821 1.327 . S
C824 C812 1.349 . S
C824 H818 0.950 . S
C824 C825 1.327 . S
C825 H819 0.950 . S
C825 C824 1.327 . S
C825 C829 1.429 . S
C826 C809 1.574 . S
C826 H820 0.949 . S
C826 C830 1.368 . S
C827 C808 1.429 . S
C827 C821 1.429 . S
C827 C828 1.523 . S
C828 C809 1.368 . S
C828 C822 1.368 . S
C828 C827 1.523 . S
C829 C813 1.429 . S
C829 C825 1.429 . S
C829 C830 1.523 . S
C830 C814 1.368 . S
C830 C826 1.368 . S
C830 C829 1.523 . S
H831 C806 0.950 . S
H832 C808 0.950 . S
H833 C809 0.949 . S
H834 C811 0.950 . S
H835 C813 0.950 . S
C836 C837 1.349 . S
C836 C838 1.327 . S
C836 H861 0.950 . S
C837 C836 1.349 . S
C837 C853 1.349 . S
C838 C836 1.327 . S
C838 C857 1.429 . S
C838 H862 0.950 . S
C839 C856 1.574 . S
C839 C858 1.368 . S
C839 H863 0.949 . S
H840 C844 0.949 . S
C841 C842 1.349 . S
C841 C843 1.327 . S
C841 H864 0.950 . S
C842 C841 1.349 . S
C842 C854 1.349 . S
C843 C841 1.327 . S
C843 C859 1.429 . S
C843 H865 0.950 . S
C844 H840 0.949 . S
C844 C852 1.574 . S
C844 C860 1.368 . S
H845 C853 0.950 . S
H846 C851 0.950 . S
H847 C852 0.949 . S
H848 C854 0.950 . S
H849 C855 0.950 . S
H850 C856 0.949 . S
C851 H846 0.950 . S
C851 C853 1.327 . S
C851 C857 1.429 . S
C852 C844 1.574 . S
C852 H847 0.949 . S
C852 C858 1.368 . S
C853 C837 1.349 . S
C853 H845 0.950 . S
C853 C851 1.327 . S
C854 C842 1.349 . S
C854 H848 0.950 . S
C854 C855 1.327 . S
C855 H849 0.950 . S
C855 C854 1.327 . S
C855 C859 1.429 . S
C856 C839 1.574 . S
C856 H850 0.949 . S
C856 C860 1.368 . S
C857 C838 1.429 . S
C857 C851 1.429 . S
C857 C858 1.523 . S
C858 C839 1.368 . S
C858 C852 1.368 . S
C858 C857 1.523 . S
C859 C843 1.429 . S
C859 C855 1.429 . S
C859 C860 1.523 . S
C860 C844 1.368 . S
C860 C856 1.368 . S
C860 C859 1.523 . S
H861 C836 0.950 . S
H862 C838 0.950 . S
H863 C839 0.949 . S
H864 C841 0.950 . S
H865 C843 0.950 . S
C866 C867 1.349 . S
C866 C868 1.327 . S
C866 H891 0.950 . S
C867 C866 1.349 . S
C867 C883 1.349 . S
C868 C866 1.327 . S
C868 C887 1.429 1_545 S
C868 H892 0.950 . S
C869 C886 1.574 . S
C869 C888 1.368 . S
C869 H893 0.949 . S
H870 C874 0.949 . S
C871 C872 1.349 . S
C871 C873 1.327 . S
C871 H894 0.950 . S
C872 C871 1.349 . S
C872 C884 1.349 . S
C873 C871 1.327 . S
C873 C889 1.429 . S
C873 H895 0.950 . S
C874 H870 0.949 . S
C874 C882 1.574 . S
C874 C890 1.368 . S
H875 C883 0.950 . S
H876 C881 0.950 . S
H877 C882 0.949 . S
H878 C884 0.950 . S
H879 C885 0.950 . S
H880 C886 0.949 . S
C881 H876 0.950 . S
C881 C883 1.327 1_565 S
C881 C887 1.429 . S
C882 C874 1.574 . S
C882 H877 0.949 . S
C882 C888 1.368 . S
C883 C867 1.349 . S
C883 H875 0.950 . S
C883 C881 1.327 1_545 S
C884 C872 1.349 . S
C884 H878 0.950 . S
C884 C885 1.327 . S
C885 H879 0.950 . S
C885 C884 1.327 . S
C885 C889 1.429 . S
C886 C869 1.574 . S
C886 H880 0.949 . S
C886 C890 1.368 . S
C887 C868 1.429 1_565 S
C887 C881 1.429 . S
C887 C888 1.523 . S
C888 C869 1.368 . S
C888 C882 1.368 . S
C888 C887 1.523 . S
C889 C873 1.429 . S
C889 C885 1.429 . S
C889 C890 1.523 . S
C890 C874 1.368 . S
C890 C886 1.368 . S
C890 C889 1.523 . S
H891 C866 0.950 . S
H892 C868 0.950 . S
H893 C869 0.949 . S
H894 C871 0.950 . S
H895 C873 0.950 . S
C896 C897 1.349 . S
C896 C898 1.327 . S
C896 H921 0.950 . S
C897 C896 1.349 . S
C897 C913 1.349 . S
C898 C896 1.327 . S
C898 C917 1.429 . S
C898 H922 0.950 . S
C899 C916 1.574 . S
C899 C918 1.368 . S
C899 H923 0.949 . S
H900 C904 0.949 . S
C901 C902 1.349 . S
C901 C903 1.327 . S
C901 H924 0.950 . S
C902 C901 1.349 . S
C902 C914 1.349 . S
C903 C901 1.327 . S
C903 C919 1.429 . S
C903 H925 0.950 . S
C904 H900 0.949 . S
C904 C912 1.574 . S
C904 C920 1.368 . S
H905 C913 0.950 . S
H906 C911 0.950 . S
H907 C912 0.949 . S
H908 C914 0.950 . S
H909 C915 0.950 . S
H910 C916 0.949 . S
C911 H906 0.950 . S
C911 C913 1.327 . S
C911 C917 1.429 . S
C912 C904 1.574 . S
C912 H907 0.949 . S
C912 C918 1.368 . S
C913 C897 1.349 . S
C913 H905 0.950 . S
C913 C911 1.327 . S
C914 C902 1.349 . S
C914 H908 0.950 . S
C914 C915 1.327 . S
C915 H909 0.950 . S
C915 C914 1.327 . S
C915 C919 1.429 . S
C916 C899 1.574 . S
C916 H910 0.949 . S
C916 C920 1.368 . S
C917 C898 1.429 . S
C917 C911 1.429 . S
C917 C918 1.523 . S
C918 C899 1.368 . S
C918 C912 1.368 . S
C918 C917 1.523 . S
C919 C903 1.429 . S
C919 C915 1.429 . S
C919 C920 1.523 . S
C920 C904 1.368 . S
C920 C916 1.368 . S
C920 C919 1.523 . S
H921 C896 0.950 . S
H922 C898 0.950 . S
H923 C899 0.949 . S
H924 C901 0.950 . S
H925 C903 0.950 . S
C926 C927 1.349 . S
C926 C928 1.327 . S
C926 H951 0.950 . S
C927 C926 1.349 . S
C927 C943 1.349 . S
C928 C926 1.327 . S
C928 C947 1.429 . S
C928 H952 0.950 . S
C929 C946 1.574 . S
C929 C948 1.368 . S
C929 H953 0.949 . S
H930 C934 0.949 . S
C931 C932 1.349 . S
C931 C933 1.327 . S
C931 H954 0.950 . S
C932 C931 1.349 . S
C932 C944 1.349 . S
C933 C931 1.327 . S
C933 C949 1.429 . S
C933 H955 0.950 . S
C934 H930 0.949 . S
C934 C942 1.574 . S
C934 C950 1.368 . S
H935 C943 0.950 . S
H936 C941 0.950 . S
H937 C942 0.949 . S
H938 C944 0.950 . S
H939 C945 0.950 . S
H940 C946 0.949 . S
C941 H936 0.950 . S
C941 C943 1.327 . S
C941 C947 1.429 . S
C942 C934 1.574 . S
C942 H937 0.949 . S
C942 C948 1.368 . S
C943 C927 1.349 . S
C943 H935 0.950 . S
C943 C941 1.327 . S
C944 C932 1.349 . S
C944 H938 0.950 . S
C944 C945 1.327 . S
C945 H939 0.950 . S
C945 C944 1.327 . S
C945 C949 1.429 . S
C946 C929 1.574 . S
C946 H940 0.949 . S
C946 C950 1.368 . S
C947 C928 1.429 . S
C947 C941 1.429 . S
C947 C948 1.523 . S
C948 C929 1.368 . S
C948 C942 1.368 . S
C948 C947 1.523 . S
C949 C933 1.429 . S
C949 C945 1.429 . S
C949 C950 1.523 . S
C950 C934 1.368 . S
C950 C946 1.368 . S
C950 C949 1.523 . S
H951 C926 0.950 . S
H952 C928 0.950 . S
H953 C929 0.949 . S
H954 C931 0.950 . S
H955 C933 0.950 . S
C956 C957 1.349 . S
C956 C958 1.327 . S
C956 H981 0.950 . S
C957 C956 1.349 . S
C957 C973 1.349 . S
C958 C956 1.327 . S
C958 C977 1.429 . S
C958 H982 0.950 . S
C959 C976 1.574 . S
C959 C978 1.368 . S
C959 H983 0.949 . S
H960 C964 0.949 . S
C961 C962 1.349 . S
C961 C963 1.327 . S
C961 H984 0.950 . S
C962 C961 1.349 . S
C962 C974 1.349 . S
C963 C961 1.327 . S
C963 C979 1.429 . S
C963 H985 0.950 . S
C964 H960 0.949 . S
C964 C972 1.574 . S
C964 C980 1.368 . S
H965 C973 0.950 . S
H966 C971 0.950 . S
H967 C972 0.949 . S
H968 C974 0.950 . S
H969 C975 0.950 . S
H970 C976 0.949 . S
C971 H966 0.950 . S
C971 C973 1.327 . S
C971 C977 1.429 . S
C972 C964 1.574 . S
C972 H967 0.949 . S
C972 C978 1.368 . S
C973 C957 1.349 . S
C973 H965 0.950 . S
C973 C971 1.327 . S
C974 C962 1.349 . S
C974 H968 0.950 . S
C974 C975 1.327 . S
C975 H969 0.950 . S
C975 C974 1.327 . S
C975 C979 1.429 . S
C976 C959 1.574 . S
C976 H970 0.949 . S
C976 C980 1.368 . S
C977 C958 1.429 . S
C977 C971 1.429 . S
C977 C978 1.523 . S
C978 C959 1.368 . S
C978 C972 1.368 . S
C978 C977 1.523 . S
C979 C963 1.429 . S
C979 C975 1.429 . S
C979 C980 1.523 . S
C980 C964 1.368 . S
C980 C976 1.368 . S
C980 C979 1.523 . S
H981 C956 0.950 . S
H982 C958 0.950 . S
H983 C959 0.949 . S
H984 C961 0.950 . S
H985 C963 0.950 . S
C986 C987 1.349 . S
C986 C988 1.327 . S
C986 H1011 0.950 . S
C987 C986 1.349 . S
C987 C1003 1.349 . S
C988 C986 1.327 . S
C988 C1007 1.429 . S
C988 H1012 0.950 . S
C989 C1006 1.574 . S
C989 C1008 1.368 . S
C989 H1013 0.949 . S
H990 C994 0.949 . S
C991 C992 1.349 . S
C991 C993 1.327 . S
C991 H1014 0.950 . S
C992 C991 1.349 . S
C992 C1004 1.349 . S
C993 C991 1.327 . S
C993 C1009 1.429 . S
C993 H1015 0.950 . S
C994 H990 0.949 . S
C994 C1002 1.574 . S
C994 C1010 1.368 . S
H995 C1003 0.950 . S
H996 C1001 0.950 . S
H997 C1002 0.949 . S
H998 C1004 0.950 . S
H999 C1005 0.950 . S
H1000 C1006 0.949 . S
C1001 H996 0.950 . S
C1001 C1003 1.327 . S
C1001 C1007 1.429 . S
C1002 C994 1.574 . S
C1002 H997 0.949 . S
C1002 C1008 1.368 . S
C1003 C987 1.349 . S
C1003 H995 0.950 . S
C1003 C1001 1.327 . S
C1004 C992 1.349 . S
C1004 H998 0.950 . S
C1004 C1005 1.327 . S
C1005 H999 0.950 . S
C1005 C1004 1.327 . S
C1005 C1009 1.429 . S
C1006 C989 1.574 . S
C1006 H1000 0.949 . S
C1006 C1010 1.368 . S
C1007 C988 1.429 . S
C1007 C1001 1.429 . S
C1007 C1008 1.523 . S
C1008 C989 1.368 . S
C1008 C1002 1.368 . S
C1008 C1007 1.523 . S
C1009 C993 1.429 . S
C1009 C1005 1.429 . S
C1009 C1010 1.523 . S
C1010 C994 1.368 . S
C1010 C1006 1.368 . S
C1010 C1009 1.523 . S
H1011 C986 0.950 . S
H1012 C988 0.950 . S
H1013 C989 0.949 . S
H1014 C991 0.950 . S
H1015 C993 0.950 . S
C1016 C1017 1.349 . S
C1016 C1018 1.327 . S
C1016 H1041 0.950 . S
C1017 C1016 1.349 . S
C1017 C1033 1.349 . S
C1018 C1016 1.327 . S
C1018 C1037 1.429 . S
C1018 H1042 0.950 . S
C1019 C1036 1.574 . S
C1019 C1038 1.368 . S
C1019 H1043 0.949 . S
H1020 C1024 0.949 . S
C1021 C1022 1.349 . S
C1021 C1023 1.327 . S
C1021 H1044 0.950 . S
C1022 C1021 1.349 . S
C1022 C1034 1.349 . S
C1023 C1021 1.327 . S
C1023 C1039 1.429 . S
C1023 H1045 0.950 . S
C1024 H1020 0.949 . S
C1024 C1032 1.574 . S
C1024 C1040 1.368 . S
H1025 C1033 0.950 . S
H1026 C1031 0.950 . S
H1027 C1032 0.949 . S
H1028 C1034 0.950 . S
H1029 C1035 0.950 . S
H1030 C1036 0.949 . S
C1031 H1026 0.950 . S
C1031 C1033 1.327 . S
C1031 C1037 1.429 . S
C1032 C1024 1.574 . S
C1032 H1027 0.949 . S
C1032 C1038 1.368 . S
C1033 C1017 1.349 . S
C1033 H1025 0.950 . S
C1033 C1031 1.327 . S
C1034 C1022 1.349 . S
C1034 H1028 0.950 . S
C1034 C1035 1.327 . S
C1035 H1029 0.950 . S
C1035 C1034 1.327 . S
C1035 C1039 1.429 . S
C1036 C1019 1.574 . S
C1036 H1030 0.949 . S
C1036 C1040 1.368 . S
C1037 C1018 1.429 . S
C1037 C1031 1.429 . S
C1037 C1038 1.523 . S
C1038 C1019 1.368 . S
C1038 C1032 1.368 . S
C1038 C1037 1.523 . S
C1039 C1023 1.429 . S
C1039 C1035 1.429 . S
C1039 C1040 1.523 . S
C1040 C1024 1.368 . S
C1040 C1036 1.368 . S
C1040 C1039 1.523 . S
H1041 C1016 0.950 . S
H1042 C1018 0.950 . S
H1043 C1019 0.949 . S
H1044 C1021 0.950 . S
H1045 C1023 0.950 . S
C1046 C1047 1.349 . S
C1046 C1048 1.327 . S
C1046 H1071 0.950 . S
C1047 C1046 1.349 . S
C1047 C1063 1.349 . S
C1048 C1046 1.327 . S
C1048 C1067 1.429 . S
C1048 H1072 0.950 . S
C1049 C1066 1.574 . S
C1049 C1068 1.368 . S
C1049 H1073 0.949 . S
H1050 C1054 0.949 . S
C1051 C1052 1.349 . S
C1051 C1053 1.327 . S
C1051 H1074 0.950 . S
C1052 C1051 1.349 . S
C1052 C1064 1.349 . S
C1053 C1051 1.327 . S
C1053 C1069 1.429 . S
C1053 H1075 0.950 . S
C1054 H1050 0.949 . S
C1054 C1062 1.574 . S
C1054 C1070 1.368 . S
H1055 C1063 0.950 . S
H1056 C1061 0.950 . S
H1057 C1062 0.949 . S
H1058 C1064 0.950 . S
H1059 C1065 0.950 . S
H1060 C1066 0.949 . S
C1061 H1056 0.950 . S
C1061 C1063 1.327 . S
C1061 C1067 1.429 . S
C1062 C1054 1.574 . S
C1062 H1057 0.949 . S
C1062 C1068 1.368 . S
C1063 C1047 1.349 . S
C1063 H1055 0.950 . S
C1063 C1061 1.327 . S
C1064 C1052 1.349 . S
C1064 H1058 0.950 . S
C1064 C1065 1.327 . S
C1065 H1059 0.950 . S
C1065 C1064 1.327 . S
C1065 C1069 1.429 . S
C1066 C1049 1.574 . S
C1066 H1060 0.949 . S
C1066 C1070 1.368 . S
C1067 C1048 1.429 . S
C1067 C1061 1.429 . S
C1067 C1068 1.523 . S
C1068 C1049 1.368 . S
C1068 C1062 1.368 . S
C1068 C1067 1.523 . S
C1069 C1053 1.429 . S
C1069 C1065 1.429 . S
C1069 C1070 1.523 . S
C1070 C1054 1.368 . S
C1070 C1066 1.368 . S
C1070 C1069 1.523 . S
H1071 C1046 0.950 . S
H1072 C1048 0.950 . S
H1073 C1049 0.949 . S
H1074 C1051 0.950 . S
H1075 C1053 0.950 . S
C1076 C1077 1.349 . S
C1076 C1078 1.327 . S
C1076 H1101 0.950 . S
C1077 C1076 1.349 . S
C1077 C1093 1.349 . S
C1078 C1076 1.327 . S
C1078 C1097 1.429 . S
C1078 H1102 0.950 . S
C1079 C1096 1.574 . S
C1079 C1098 1.368 . S
C1079 H1103 0.949 . S
H1080 C1084 0.949 . S
C1081 C1082 1.349 . S
C1081 C1083 1.327 . S
C1081 H1104 0.950 . S
C1082 C1081 1.349 . S
C1082 C1094 1.349 . S
C1083 C1081 1.327 . S
C1083 C1099 1.429 . S
C1083 H1105 0.950 . S
C1084 H1080 0.949 . S
C1084 C1092 1.574 . S
C1084 C1100 1.368 . S
H1085 C1093 0.950 . S
H1086 C1091 0.950 . S
H1087 C1092 0.949 . S
H1088 C1094 0.950 . S
H1089 C1095 0.950 . S
H1090 C1096 0.949 . S
C1091 H1086 0.950 . S
C1091 C1093 1.327 . S
C1091 C1097 1.429 . S
C1092 C1084 1.574 . S
C1092 H1087 0.949 . S
C1092 C1098 1.368 . S
C1093 C1077 1.349 . S
C1093 H1085 0.950 . S
C1093 C1091 1.327 . S
C1094 C1082 1.349 . S
C1094 H1088 0.950 . S
C1094 C1095 1.327 . S
C1095 H1089 0.950 . S
C1095 C1094 1.327 . S
C1095 C1099 1.429 . S
C1096 C1079 1.574 . S
C1096 H1090 0.949 . S
C1096 C1100 1.368 . S
C1097 C1078 1.429 . S
C1097 C1091 1.429 . S
C1097 C1098 1.523 . S
C1098 C1079 1.368 . S
C1098 C1092 1.368 . S
C1098 C1097 1.523 . S
C1099 C1083 1.429 . S
C1099 C1095 1.429 . S
C1099 C1100 1.523 . S
C1100 C1084 1.368 . S
C1100 C1096 1.368 . S
C1100 C1099 1.523 . S
H1101 C1076 0.950 . S
H1102 C1078 0.950 . S
H1103 C1079 0.949 . S
H1104 C1081 0.950 . S
H1105 C1083 0.950 . S
C1106 C1107 1.349 . S
C1106 C1108 1.327 . S
C1106 H1131 0.950 . S
C1107 C1106 1.349 . S
C1107 C1123 1.349 . S
C1108 C1106 1.327 . S
C1108 C1127 1.429 . S
C1108 H1132 0.950 . S
C1109 C1126 1.574 . S
C1109 C1128 1.368 . S
C1109 H1133 0.949 . S
H1110 C1114 0.949 . S
C1111 C1112 1.349 . S
C1111 C1113 1.327 . S
C1111 H1134 0.950 . S
C1112 C1111 1.349 . S
C1112 C1124 1.349 . S
C1113 C1111 1.327 . S
C1113 C1129 1.429 . S
C1113 H1135 0.950 . S
C1114 H1110 0.949 . S
C1114 C1122 1.574 . S
C1114 C1130 1.368 . S
H1115 C1123 0.950 . S
H1116 C1121 0.950 . S
H1117 C1122 0.949 . S
H1118 C1124 0.950 . S
H1119 C1125 0.950 . S
H1120 C1126 0.949 . S
C1121 H1116 0.950 . S
C1121 C1123 1.327 . S
C1121 C1127 1.429 . S
C1122 C1114 1.574 . S
C1122 H1117 0.949 . S
C1122 C1128 1.368 . S
C1123 C1107 1.349 . S
C1123 H1115 0.950 . S
C1123 C1121 1.327 . S
C1124 C1112 1.349 . S
C1124 H1118 0.950 . S
C1124 C1125 1.327 . S
C1125 H1119 0.950 . S
C1125 C1124 1.327 . S
C1125 C1129 1.429 . S
C1126 C1109 1.574 . S
C1126 H1120 0.949 . S
C1126 C1130 1.368 . S
C1127 C1108 1.429 . S
C1127 C1121 1.429 . S
C1127 C1128 1.523 . S
C1128 C1109 1.368 . S
C1128 C1122 1.368 . S
C1128 C1127 1.523 . S
C1129 C1113 1.429 . S
C1129 C1125 1.429 . S
C1129 C1130 1.523 . S
C1130 C1114 1.368 . S
C1130 C1126 1.368 . S
C1130 C1129 1.523 . S
H1131 C1106 0.950 . S
H1132 C1108 0.950 . S
H1133 C1109 0.949 . S
H1134 C1111 0.950 . S
H1135 C1113 0.950 . S
C1136 C1137 1.349 . S
C1136 C1138 1.327 . S
C1136 H1161 0.950 . S
C1137 C1136 1.349 . S
C1137 C1153 1.349 . S
C1138 C1136 1.327 . S
C1138 C1157 1.429 . S
C1138 H1162 0.950 . S
C1139 C1156 1.574 . S
C1139 C1158 1.368 . S
C1139 H1163 0.949 . S
H1140 C1144 0.949 . S
C1141 C1142 1.349 . S
C1141 C1143 1.327 . S
C1141 H1164 0.950 . S
C1142 C1141 1.349 . S
C1142 C1154 1.349 . S
C1143 C1141 1.327 . S
C1143 C1159 1.429 . S
C1143 H1165 0.950 . S
C1144 H1140 0.949 . S
C1144 C1152 1.574 . S
C1144 C1160 1.368 . S
H1145 C1153 0.950 . S
H1146 C1151 0.950 . S
H1147 C1152 0.949 . S
H1148 C1154 0.950 . S
H1149 C1155 0.950 . S
H1150 C1156 0.949 . S
C1151 H1146 0.950 . S
C1151 C1153 1.327 . S
C1151 C1157 1.429 . S
C1152 C1144 1.574 . S
C1152 H1147 0.949 . S
C1152 C1158 1.368 . S
C1153 C1137 1.349 . S
C1153 H1145 0.950 . S
C1153 C1151 1.327 . S
C1154 C1142 1.349 . S
C1154 H1148 0.950 . S
C1154 C1155 1.327 . S
C1155 H1149 0.950 . S
C1155 C1154 1.327 . S
C1155 C1159 1.429 . S
C1156 C1139 1.574 . S
C1156 H1150 0.949 . S
C1156 C1160 1.368 . S
C1157 C1138 1.429 . S
C1157 C1151 1.429 . S
C1157 C1158 1.523 . S
C1158 C1139 1.368 . S
C1158 C1152 1.368 . S
C1158 C1157 1.523 . S
C1159 C1143 1.429 . S
C1159 C1155 1.429 . S
C1159 C1160 1.523 . S
C1160 C1144 1.368 . S
C1160 C1156 1.368 . S
C1160 C1159 1.523 . S
H1161 C1136 0.950 . S
H1162 C1138 0.950 . S
H1163 C1139 0.949 . S
H1164 C1141 0.950 . S
H1165 C1143 0.950 . S
C1166 C1167 1.349 . S
C1166 C1168 1.327 . S
C1166 H1191 0.950 . S
C1167 C1166 1.349 . S
C1167 C1183 1.349 . S
C1168 C1166 1.327 . S
C1168 C1187 1.429 . S
C1168 H1192 0.950 . S
C1169 C1186 1.574 . S
C1169 C1188 1.368 . S
C1169 H1193 0.949 . S
H1170 C1174 0.949 . S
C1171 C1172 1.349 . S
C1171 C1173 1.327 . S
C1171 H1194 0.950 . S
C1172 C1171 1.349 . S
C1172 C1184 1.349 . S
C1173 C1171 1.327 . S
C1173 C1189 1.429 . S
C1173 H1195 0.950 . S
C1174 H1170 0.949 . S
C1174 C1182 1.574 . S
C1174 C1190 1.368 . S
H1175 C1183 0.950 . S
H1176 C1181 0.950 . S
H1177 C1182 0.949 . S
H1178 C1184 0.950 . S
H1179 C1185 0.950 . S
H1180 C1186 0.949 . S
C1181 H1176 0.950 . S
C1181 C1183 1.327 . S
C1181 C1187 1.429 . S
C1182 C1174 1.574 . S
C1182 H1177 0.949 . S
C1182 C1188 1.368 . S
C1183 C1167 1.349 . S
C1183 H1175 0.950 . S
C1183 C1181 1.327 . S
C1184 C1172 1.349 . S
C1184 H1178 0.950 . S
C1184 C1185 1.327 . S
C1185 H1179 0.950 . S
C1185 C1184 1.327 . S
C1185 C1189 1.429 . S
C1186 C1169 1.574 . S
C1186 H1180 0.949 . S
C1186 C1190 1.368 . S
C1187 C1168 1.429 . S
C1187 C1181 1.429 . S
C1187 C1188 1.523 . S
C1188 C1169 1.368 . S
C1188 C1182 1.368 . S
C1188 C1187 1.523 . S
C1189 C1173 1.429 . S
C1189 C1185 1.429 . S
C1189 C1190 1.523 . S
C1190 C1174 1.368 . S
C1190 C1186 1.368 . S
C1190 C1189 1.523 . S
H1191 C1166 0.950 . S
H1192 C1168 0.950 . S
H1193 C1169 0.949 . S
H1194 C1171 0.950 . S
H1195 C1173 0.950 . S
C1196 C1197 1.349 . S
C1196 C1198 1.327 . S
C1196 H1221 0.950 . S
C1197 C1196 1.349 . S
C1197 C1213 1.349 . S
C1198 C1196 1.327 . S
C1198 C1217 1.429 . S
C1198 H1222 0.950 . S
C1199 C1216 1.574 . S
C1199 C1218 1.368 . S
C1199 H1223 0.949 . S
H1200 C1204 0.949 . S
C1201 C1202 1.349 . S
C1201 C1203 1.327 . S
C1201 H1224 0.950 . S
C1202 C1201 1.349 . S
C1202 C1214 1.349 . S
C1203 C1201 1.327 . S
C1203 C1219 1.429 . S
C1203 H1225 0.950 . S
C1204 H1200 0.949 . S
C1204 C1212 1.574 . S
C1204 C1220 1.368 . S
H1205 C1213 0.950 . S
H1206 C1211 0.950 . S
H1207 C1212 0.949 . S
H1208 C1214 0.950 . S
H1209 C1215 0.950 . S
H1210 C1216 0.949 . S
C1211 H1206 0.950 . S
C1211 C1213 1.327 . S
C1211 C1217 1.429 . S
C1212 C1204 1.574 . S
C1212 H1207 0.949 . S
C1212 C1218 1.368 . S
C1213 C1197 1.349 . S
C1213 H1205 0.950 . S
C1213 C1211 1.327 . S
C1214 C1202 1.349 . S
C1214 H1208 0.950 . S
C1214 C1215 1.327 . S
C1215 H1209 0.950 . S
C1215 C1214 1.327 . S
C1215 C1219 1.429 . S
C1216 C1199 1.574 . S
C1216 H1210 0.949 . S
C1216 C1220 1.368 . S
C1217 C1198 1.429 . S
C1217 C1211 1.429 . S
C1217 C1218 1.523 . S
C1218 C1199 1.368 . S
C1218 C1212 1.368 . S
C1218 C1217 1.523 . S
C1219 C1203 1.429 . S
C1219 C1215 1.429 . S
C1219 C1220 1.523 . S
C1220 C1204 1.368 . S
C1220 C1216 1.368 . S
C1220 C1219 1.523 . S
H1221 C1196 0.950 . S
H1222 C1198 0.950 . S
H1223 C1199 0.949 . S
H1224 C1201 0.950 . S
H1225 C1203 0.950 . S
C1226 C1227 1.349 . S
C1226 C1228 1.327 . S
C1226 H1251 0.950 . S
C1227 C1226 1.349 . S
C1227 C1243 1.349 . S
C1228 C1226 1.327 . S
C1228 C1247 1.429 . S
C1228 H1252 0.950 . S
C1229 C1246 1.574 . S
C1229 C1248 1.368 . S
C1229 H1253 0.949 . S
H1230 C1234 0.949 . S
C1231 C1232 1.349 . S
C1231 C1233 1.327 . S
C1231 H1254 0.950 . S
C1232 C1231 1.349 . S
C1232 C1244 1.349 . S
C1233 C1231 1.327 . S
C1233 C1249 1.429 . S
C1233 H1255 0.950 . S
C1234 H1230 0.949 . S
C1234 C1242 1.574 . S
C1234 C1250 1.368 . S
H1235 C1243 0.950 . S
H1236 C1241 0.950 . S
H1237 C1242 0.949 . S
H1238 C1244 0.950 . S
H1239 C1245 0.950 . S
H1240 C1246 0.949 . S
C1241 H1236 0.950 . S
C1241 C1243 1.327 . S
C1241 C1247 1.429 . S
C1242 C1234 1.574 . S
C1242 H1237 0.949 . S
C1242 C1248 1.368 . S
C1243 C1227 1.349 . S
C1243 H1235 0.950 . S
C1243 C1241 1.327 . S
C1244 C1232 1.349 . S
C1244 H1238 0.950 . S
C1244 C1245 1.327 . S
C1245 H1239 0.950 . S
C1245 C1244 1.327 . S
C1245 C1249 1.429 . S
C1246 C1229 1.574 . S
C1246 H1240 0.949 . S
C1246 C1250 1.368 . S
C1247 C1228 1.429 . S
C1247 C1241 1.429 . S
C1247 C1248 1.523 . S
C1248 C1229 1.368 . S
C1248 C1242 1.368 . S
C1248 C1247 1.523 . S
C1249 C1233 1.429 . S
C1249 C1245 1.429 . S
C1249 C1250 1.523 . S
C1250 C1234 1.368 . S
C1250 C1246 1.368 . S
C1250 C1249 1.523 . S
H1251 C1226 0.950 . S
H1252 C1228 0.950 . S
H1253 C1229 0.949 . S
H1254 C1231 0.950 . S
H1255 C1233 0.950 . S
C1256 C1257 1.349 . S
C1256 C1258 1.327 . S
C1256 H1281 0.950 . S
C1257 C1256 1.349 . S
C1257 C1273 1.349 . S
C1258 C1256 1.327 . S
C1258 C1277 1.429 . S
C1258 H1282 0.950 . S
C1259 C1276 1.574 . S
C1259 C1278 1.368 . S
C1259 H1283 0.949 . S
H1260 C1264 0.949 . S
C1261 C1262 1.349 . S
C1261 C1263 1.327 . S
C1261 H1284 0.950 1_655 S
C1262 C1261 1.349 . S
C1262 C1274 1.349 . S
C1263 C1261 1.327 . S
C1263 C1279 1.429 . S
C1263 H1285 0.950 . S
C1264 H1260 0.949 . S
C1264 C1272 1.574 . S
C1264 C1280 1.368 . S
H1265 C1273 0.950 . S
H1266 C1271 0.950 . S
H1267 C1272 0.949 . S
H1268 C1274 0.950 . S
H1269 C1275 0.950 . S
H1270 C1276 0.949 . S
C1271 H1266 0.950 . S
C1271 C1273 1.327 . S
C1271 C1277 1.429 . S
C1272 C1264 1.574 . S
C1272 H1267 0.949 . S
C1272 C1278 1.368 . S
C1273 C1257 1.349 . S
C1273 H1265 0.950 . S
C1273 C1271 1.327 . S
C1274 C1262 1.349 . S
C1274 H1268 0.950 . S
C1274 C1275 1.327 . S
C1275 H1269 0.950 . S
C1275 C1274 1.327 . S
C1275 C1279 1.429 . S
C1276 C1259 1.574 . S
C1276 H1270 0.949 . S
C1276 C1280 1.368 . S
C1277 C1258 1.429 . S
C1277 C1271 1.429 . S
C1277 C1278 1.523 . S
C1278 C1259 1.368 . S
C1278 C1272 1.368 . S
C1278 C1277 1.523 . S
C1279 C1263 1.429 . S
C1279 C1275 1.429 . S
C1279 C1280 1.523 . S
C1280 C1264 1.368 . S
C1280 C1276 1.368 . S
C1280 C1279 1.523 . S
H1281 C1256 0.950 . S
H1282 C1258 0.950 . S
H1283 C1259 0.949 . S
H1284 C1261 0.950 1_455 S
H1285 C1263 0.950 . S
C1286 C1287 1.349 . S
C1286 C1288 1.327 . S
C1286 H1311 0.950 . S
C1287 C1286 1.349 . S
C1287 C1303 1.349 . S
C1288 C1286 1.327 . S
C1288 C1307 1.429 . S
C1288 H1312 0.950 . S
C1289 C1306 1.574 . S
C1289 C1308 1.368 . S
C1289 H1313 0.949 . S
H1290 C1294 0.949 . S
C1291 C1292 1.349 . S
C1291 C1293 1.327 . S
C1291 H1314 0.950 . S
C1292 C1291 1.349 . S
C1292 C1304 1.349 . S
C1293 C1291 1.327 . S
C1293 C1309 1.429 . S
C1293 H1315 0.950 . S
C1294 H1290 0.949 . S
C1294 C1302 1.574 . S
C1294 C1310 1.368 . S
H1295 C1303 0.950 . S
H1296 C1301 0.950 . S
H1297 C1302 0.949 . S
H1298 C1304 0.950 . S
H1299 C1305 0.950 . S
H1300 C1306 0.949 . S
C1301 H1296 0.950 . S
C1301 C1303 1.327 . S
C1301 C1307 1.429 . S
C1302 C1294 1.574 . S
C1302 H1297 0.949 . S
C1302 C1308 1.368 . S
C1303 C1287 1.349 . S
C1303 H1295 0.950 . S
C1303 C1301 1.327 . S
C1304 C1292 1.349 . S
C1304 H1298 0.950 . S
C1304 C1305 1.327 . S
C1305 H1299 0.950 . S
C1305 C1304 1.327 . S
C1305 C1309 1.429 . S
C1306 C1289 1.574 . S
C1306 H1300 0.949 . S
C1306 C1310 1.368 . S
C1307 C1288 1.429 . S
C1307 C1301 1.429 . S
C1307 C1308 1.523 . S
C1308 C1289 1.368 . S
C1308 C1302 1.368 . S
C1308 C1307 1.523 . S
C1309 C1293 1.429 . S
C1309 C1305 1.429 . S
C1309 C1310 1.523 . S
C1310 C1294 1.368 . S
C1310 C1306 1.368 . S
C1310 C1309 1.523 . S
H1311 C1286 0.950 . S
H1312 C1288 0.950 . S
H1313 C1289 0.949 . S
H1314 C1291 0.950 . S
H1315 C1293 0.950 . S
C1316 C1317 1.349 . S
C1316 C1318 1.327 . S
C1316 H1341 0.950 . S
C1317 C1316 1.349 . S
C1317 C1333 1.349 . S
C1318 C1316 1.327 . S
C1318 C1337 1.429 . S
C1318 H1342 0.950 . S
C1319 C1336 1.574 . S
C1319 C1338 1.368 . S
C1319 H1343 0.949 . S
H1320 C1324 0.949 . S
C1321 C1322 1.349 . S
C1321 C1323 1.327 . S
C1321 H1344 0.950 . S
C1322 C1321 1.349 . S
C1322 C1334 1.349 . S
C1323 C1321 1.327 . S
C1323 C1339 1.429 . S
C1323 H1345 0.950 . S
C1324 H1320 0.949 . S
C1324 C1332 1.574 . S
C1324 C1340 1.368 . S
H1325 C1333 0.950 . S
H1326 C1331 0.950 . S
H1327 C1332 0.949 . S
H1328 C1334 0.950 . S
H1329 C1335 0.950 . S
H1330 C1336 0.949 . S
C1331 H1326 0.950 . S
C1331 C1333 1.327 . S
C1331 C1337 1.429 . S
C1332 C1324 1.574 . S
C1332 H1327 0.949 . S
C1332 C1338 1.368 . S
C1333 C1317 1.349 . S
C1333 H1325 0.950 . S
C1333 C1331 1.327 . S
C1334 C1322 1.349 . S
C1334 H1328 0.950 . S
C1334 C1335 1.327 . S
C1335 H1329 0.950 . S
C1335 C1334 1.327 . S
C1335 C1339 1.429 . S
C1336 C1319 1.574 . S
C1336 H1330 0.949 . S
C1336 C1340 1.368 . S
C1337 C1318 1.429 . S
C1337 C1331 1.429 . S
C1337 C1338 1.523 . S
C1338 C1319 1.368 . S
C1338 C1332 1.368 . S
C1338 C1337 1.523 . S
C1339 C1323 1.429 . S
C1339 C1335 1.429 . S
C1339 C1340 1.523 . S
C1340 C1324 1.368 . S
C1340 C1336 1.368 . S
C1340 C1339 1.523 . S
H1341 C1316 0.950 . S
H1342 C1318 0.950 . S
H1343 C1319 0.949 . S
H1344 C1321 0.950 . S
H1345 C1323 0.950 . S
C1346 C1347 1.349 . S
C1346 C1348 1.327 . S
C1346 H1371 0.950 . S
C1347 C1346 1.349 . S
C1347 C1363 1.349 . S
C1348 C1346 1.327 . S
C1348 C1367 1.429 . S
C1348 H1372 0.950 . S
C1349 C1366 1.574 . S
C1349 C1368 1.368 . S
C1349 H1373 0.949 . S
H1350 C1354 0.949 . S
C1351 C1352 1.349 . S
C1351 C1353 1.327 . S
C1351 H1374 0.950 . S
C1352 C1351 1.349 . S
C1352 C1364 1.349 . S
C1353 C1351 1.327 . S
C1353 C1369 1.429 . S
C1353 H1375 0.950 . S
C1354 H1350 0.949 . S
C1354 C1362 1.574 . S
C1354 C1370 1.368 . S
H1355 C1363 0.950 . S
H1356 C1361 0.950 . S
H1357 C1362 0.949 . S
H1358 C1364 0.950 . S
H1359 C1365 0.950 . S
H1360 C1366 0.949 . S
C1361 H1356 0.950 . S
C1361 C1363 1.327 . S
C1361 C1367 1.429 . S
C1362 C1354 1.574 . S
C1362 H1357 0.949 . S
C1362 C1368 1.368 . S
C1363 C1347 1.349 . S
C1363 H1355 0.950 . S
C1363 C1361 1.327 . S
C1364 C1352 1.349 . S
C1364 H1358 0.950 . S
C1364 C1365 1.327 . S
C1365 H1359 0.950 . S
C1365 C1364 1.327 . S
C1365 C1369 1.429 . S
C1366 C1349 1.574 . S
C1366 H1360 0.949 . S
C1366 C1370 1.368 . S
C1367 C1348 1.429 . S
C1367 C1361 1.429 . S
C1367 C1368 1.523 . S
C1368 C1349 1.368 . S
C1368 C1362 1.368 . S
C1368 C1367 1.523 . S
C1369 C1353 1.429 . S
C1369 C1365 1.429 . S
C1369 C1370 1.523 . S
C1370 C1354 1.368 . S
C1370 C1366 1.368 . S
C1370 C1369 1.523 . S
H1371 C1346 0.950 . S
H1372 C1348 0.950 . S
H1373 C1349 0.949 . S
H1374 C1351 0.950 . S
H1375 C1353 0.950 . S
C657 C242 1.460 . S
C662 C376 1.472 . S
C692 C460 1.471 . S
C687 C301 1.488 . S
C722 C459 1.479 . S
C717 C162 1.448 . S
C747 C221 1.478 . S
C752 C375 1.476 . S
C782 C556 1.472 . S
C777 C82 1.484 . S
C812 C640 1.471 . S
C807 C141 1.465 . S
C837 C2 1.476 . S
C842 C639 1.479 . S
C867 C61 1.452 . S
C872 C555 1.476 . S
C902 C378 1.349 . S
C897 C42 1.502 1_554 S
C932 C462 1.346 . S
C927 C21 1.529 . S
C962 C474 1.410 . S
C957 C122 1.530 1_556 S
C992 C390 1.410 . S
C987 C101 1.554 . S
C1022 C558 1.349 . S
C1017 C202 1.543 . S
C1047 C181 1.498 . S
C1052 C642 1.346 . S
C1082 C630 1.410 . S
C1077 C282 1.553 1_554 S
C1107 C261 1.526 . S
C1112 C546 1.410 . S
C1142 C387 1.624 . S
C1137 C15 1.618 . S
C1172 C471 1.610 . S
C1167 C55 1.603 . S
C1197 C95 1.601 . S
C1202 C472 1.593 . S
C1232 C388 1.580 . S
C1227 C135 1.589 . S
C1262 C543 1.624 . S
C1257 C175 1.615 . S
C1287 C215 1.606 . S
C1292 C627 1.609 . S
C1317 C255 1.598 . S
C1322 C628 1.593 . S
C1347 C295 1.591 . S
C1352 C544 1.580 . S
