# Generated by pormake.
# Topology iac, (4,6)-cn, num edge types: 1
# Building blocks:
#     Node 0, Type 0, BuildingBlock: CEKHIL_clean_sbu_0, # of connection points: 4
#     Node 1, Type 0, BuildingBlock: CEKHIL_clean_sbu_0, # of connection points: 4
#     Node 2, Type 0, BuildingBlock: CEKHIL_clean_sbu_0, # of connection points: 4
#     Node 3, Type 0, BuildingBlock: CEKHIL_clean_sbu_0, # of connection points: 4
#     Node 4, Type 0, BuildingBlock: CEKHIL_clean_sbu_0, # of connection points: 4
#     Node 5, Type 0, BuildingBlock: CEKHIL_clean_sbu_0, # of connection points: 4
#     Node 6, Type 0, BuildingBlock: CEKHIL_clean_sbu_0, # of connection points: 4
#     Node 7, Type 0, BuildingBlock: CEKHIL_clean_sbu_0, # of connection points: 4
#     Node 8, Type 0, BuildingBlock: CEKHIL_clean_sbu_0, # of connection points: 4
#     Node 9, Type 0, BuildingBlock: CEKHIL_clean_sbu_0, # of connection points: 4
#     Node 10, Type 0, BuildingBlock: CEKHIL_clean_sbu_0, # of connection points: 4
#     Node 11, Type 0, BuildingBlock: CEKHIL_clean_sbu_0, # of connection points: 4
#     Node 12, Type 0, BuildingBlock: CEKHIL_clean_sbu_0, # of connection points: 4
#     Node 13, Type 0, BuildingBlock: CEKHIL_clean_sbu_0, # of connection points: 4
#     Node 14, Type 0, BuildingBlock: CEKHIL_clean_sbu_0, # of connection points: 4
#     Node 15, Type 0, BuildingBlock: CEKHIL_clean_sbu_0, # of connection points: 4
#     Node 16, Type 0, BuildingBlock: CEKHIL_clean_sbu_0, # of connection points: 4
#     Node 17, Type 0, BuildingBlock: CEKHIL_clean_sbu_0, # of connection points: 4
#     Node 18, Type 0, BuildingBlock: CEKHIL_clean_sbu_0, # of connection points: 4
#     Node 19, Type 0, BuildingBlock: CEKHIL_clean_sbu_0, # of connection points: 4
#     Node 20, Type 0, BuildingBlock: CEKHIL_clean_sbu_0, # of connection points: 4
#     Node 21, Type 0, BuildingBlock: CEKHIL_clean_sbu_0, # of connection points: 4
#     Node 22, Type 0, BuildingBlock: CEKHIL_clean_sbu_0, # of connection points: 4
#     Node 23, Type 0, BuildingBlock: CEKHIL_clean_sbu_0, # of connection points: 4
#     Node 24, Type 1, BuildingBlock: FUNLAD_clean_sbu_0, # of connection points: 6
#     Node 25, Type 1, BuildingBlock: FUNLAD_clean_sbu_0, # of connection points: 6
#     Node 26, Type 1, BuildingBlock: FUNLAD_clean_sbu_0, # of connection points: 6
#     Node 27, Type 1, BuildingBlock: FUNLAD_clean_sbu_0, # of connection points: 6
#     Node 28, Type 1, BuildingBlock: FUNLAD_clean_sbu_0, # of connection points: 6
#     Node 29, Type 1, BuildingBlock: FUNLAD_clean_sbu_0, # of connection points: 6
#     Node 30, Type 1, BuildingBlock: FUNLAD_clean_sbu_0, # of connection points: 6
#     Node 31, Type 1, BuildingBlock: FUNLAD_clean_sbu_0, # of connection points: 6
#     Node 32, Type 1, BuildingBlock: FUNLAD_clean_sbu_0, # of connection points: 6
#     Node 33, Type 1, BuildingBlock: FUNLAD_clean_sbu_0, # of connection points: 6
#     Node 34, Type 1, BuildingBlock: FUNLAD_clean_sbu_0, # of connection points: 6
#     Node 35, Type 1, BuildingBlock: FUNLAD_clean_sbu_0, # of connection points: 6
#     Node 36, Type 1, BuildingBlock: FUNLAD_clean_sbu_0, # of connection points: 6
#     Node 37, Type 1, BuildingBlock: FUNLAD_clean_sbu_0, # of connection points: 6
#     Node 38, Type 1, BuildingBlock: FUNLAD_clean_sbu_0, # of connection points: 6
#     Node 39, Type 1, BuildingBlock: FUNLAD_clean_sbu_0, # of connection points: 6
#     Edge 40, Type (0, 1), None
#     Edge 41, Type (0, 1), None
#     Edge 42, Type (0, 1), None
#     Edge 43, Type (0, 1), None
#     Edge 44, Type (0, 1), None
#     Edge 45, Type (0, 1), None
#     Edge 46, Type (0, 1), None
#     Edge 47, Type (0, 1), None
#     Edge 48, Type (0, 1), None
#     Edge 49, Type (0, 1), None
#     Edge 50, Type (0, 1), None
#     Edge 51, Type (0, 1), None
#     Edge 52, Type (0, 1), None
#     Edge 53, Type (0, 1), None
#     Edge 54, Type (0, 1), None
#     Edge 55, Type (0, 1), None
#     Edge 56, Type (0, 1), None
#     Edge 57, Type (0, 1), None
#     Edge 58, Type (0, 1), None
#     Edge 59, Type (0, 1), None
#     Edge 60, Type (0, 1), None
#     Edge 61, Type (0, 1), None
#     Edge 62, Type (0, 1), None
#     Edge 63, Type (0, 1), None
#     Edge 64, Type (0, 1), None
#     Edge 65, Type (0, 1), None
#     Edge 66, Type (0, 1), None
#     Edge 67, Type (0, 1), None
#     Edge 68, Type (0, 1), None
#     Edge 69, Type (0, 1), None
#     Edge 70, Type (0, 1), None
#     Edge 71, Type (0, 1), None
#     Edge 72, Type (0, 1), None
#     Edge 73, Type (0, 1), None
#     Edge 74, Type (0, 1), None
#     Edge 75, Type (0, 1), None
#     Edge 76, Type (0, 1), None
#     Edge 77, Type (0, 1), None
#     Edge 78, Type (0, 1), None
#     Edge 79, Type (0, 1), None
#     Edge 80, Type (0, 1), None
#     Edge 81, Type (0, 1), None
#     Edge 82, Type (0, 1), None
#     Edge 83, Type (0, 1), None
#     Edge 84, Type (0, 1), None
#     Edge 85, Type (0, 1), None
#     Edge 86, Type (0, 1), None
#     Edge 87, Type (0, 1), None
#     Edge 88, Type (0, 1), None
#     Edge 89, Type (0, 1), None
#     Edge 90, Type (0, 1), None
#     Edge 91, Type (0, 1), None
#     Edge 92, Type (0, 1), None
#     Edge 93, Type (0, 1), None
#     Edge 94, Type (0, 1), None
#     Edge 95, Type (0, 1), None
#     Edge 96, Type (0, 1), None
#     Edge 97, Type (0, 1), None
#     Edge 98, Type (0, 1), None
#     Edge 99, Type (0, 1), None
#     Edge 100, Type (0, 1), None
#     Edge 101, Type (0, 1), None
#     Edge 102, Type (0, 1), None
#     Edge 103, Type (0, 1), None
#     Edge 104, Type (0, 1), None
#     Edge 105, Type (0, 1), None
#     Edge 106, Type (0, 1), None
#     Edge 107, Type (0, 1), None
#     Edge 108, Type (0, 1), None
#     Edge 109, Type (0, 1), None
#     Edge 110, Type (0, 1), None
#     Edge 111, Type (0, 1), None
#     Edge 112, Type (0, 1), None
#     Edge 113, Type (0, 1), None
#     Edge 114, Type (0, 1), None
#     Edge 115, Type (0, 1), None
#     Edge 116, Type (0, 1), None
#     Edge 117, Type (0, 1), None
#     Edge 118, Type (0, 1), None
#     Edge 119, Type (0, 1), None
#     Edge 120, Type (0, 1), None
#     Edge 121, Type (0, 1), None
#     Edge 122, Type (0, 1), None
#     Edge 123, Type (0, 1), None
#     Edge 124, Type (0, 1), None
#     Edge 125, Type (0, 1), None
#     Edge 126, Type (0, 1), None
#     Edge 127, Type (0, 1), None
#     Edge 128, Type (0, 1), None
#     Edge 129, Type (0, 1), None
#     Edge 130, Type (0, 1), None
#     Edge 131, Type (0, 1), None
#     Edge 132, Type (0, 1), None
#     Edge 133, Type (0, 1), None
#     Edge 134, Type (0, 1), None
#     Edge 135, Type (0, 1), None
# Relax obj value: 0.496
# Max RMSD: 0.390
# Mean RMSD: 0.164
data_MOF--net-iac--node1-CEKHIL_clean_sbu_0--node2-FUNLAD_clean_sbu_0--edge1-none
_symmetry_space_group_name_H-M    P1
_symmetry_Int_Tables_number       1
_symmetry_cell_setting            triclinic
loop_
_symmetry_equiv_pos_as_xyz
'x, y, z'
_cell_length_a     24.615479
_cell_length_b     24.009552
_cell_length_c     29.267111
_cell_angle_alpha  88.388868
_cell_angle_beta   91.602928
_cell_angle_gamma 90.493129
loop_
_atom_site_label
_atom_site_type_symbol
_atom_site_fract_x
_atom_site_fract_y
_atom_site_fract_z
_atom_type_partial_charge
Co0 Co 0.16334 0.21801 0.18705 0.0
O1 O 0.08649 0.2125 0.18768 0.0
O2 O 0.14454 0.17532 0.23997 0.0
C3 C 0.17061 0.3066 0.16774 0.0
O4 O 0.24483 0.21742 0.19882 0.0
Co5 Co 0.22975 0.2455 0.10275 0.0
O6 O 0.28564 0.27349 0.1486 0.0
C7 C 0.14755 0.15619 0.10605 0.0
C8 C 0.09512 0.18147 0.22432 0.0
C9 C 0.27985 0.25585 0.18959 0.0
O10 O 0.16049 0.15105 0.14873 0.0
O11 O 0.17049 0.1928 0.08032 0.0
O12 O 0.1627 0.29318 0.21061 0.0
O13 O 0.16828 0.26714 0.13901 0.0
Co14 Co 0.12234 0.78137 0.42775 0.0
O15 O 0.20543 0.77824 0.43212 0.0
O16 O 0.16003 0.75975 0.37067 0.0
C17 C 0.10818 0.86606 0.46728 0.0
O18 O 1.04259 0.7828 0.39819 0.0
Co19 Co 1.03166 0.78322 0.49797 0.0
O20 O 0.97518 0.78688 0.44776 0.0
C21 C 0.09787 0.68199 0.49276 0.0
C22 C 0.20798 0.76395 0.38945 0.0
C23 C 0.9909 0.78524 0.4068 0.0
O24 O 0.11515 0.699 0.45274 0.0
O25 O 0.07018 0.7132 0.51783 0.0
O26 O 0.12525 0.86564 0.42538 0.0
O27 O 0.10228 0.81663 0.4844 0.0
Co28 Co 0.66334 0.71801 0.68705 0.0
O29 O 0.58649 0.7125 0.68767 0.0
O30 O 0.64454 0.67532 0.73997 0.0
C31 C 0.67061 0.8066 0.66774 0.0
O32 O 0.74483 0.71742 0.69882 0.0
Co33 Co 0.72975 0.7455 0.60275 0.0
O34 O 0.78564 0.77349 0.6486 0.0
C35 C 0.64755 0.65619 0.60605 0.0
C36 C 0.59512 0.68147 0.72431 0.0
C37 C 0.77984 0.75585 0.68959 0.0
O38 O 0.66049 0.65105 0.64873 0.0
O39 O 0.67048 0.6928 0.58032 0.0
O40 O 0.66269 0.79318 0.71061 0.0
O41 O 0.66828 0.76714 0.63901 0.0
Co42 Co 0.62234 0.28137 0.92775 0.0
O43 O 0.70543 0.27824 0.93212 0.0
O44 O 0.66003 0.25976 0.87067 0.0
C45 C 0.60818 0.36606 0.96728 0.0
O46 O 0.5426 0.2828 0.89819 0.0
Co47 Co 0.53166 0.28322 0.99797 0.0
O48 O 0.47518 0.28688 0.94776 0.0
C49 C 0.59787 0.18199 0.99276 0.0
C50 C 0.70798 0.26395 0.88945 0.0
C51 C 0.49091 0.28524 0.9068 0.0
O52 O 0.61515 0.199 0.95274 0.0
O53 O 0.57018 0.2132 0.01783 0.0
O54 O 0.62526 0.36564 0.92538 0.0
O55 O 0.60228 0.31664 0.9844 0.0
Co56 Co 0.2581 0.98975 0.26721 0.0
O57 O 0.24746 0.911 0.27344 0.0
O58 O 0.32267 0.95305 0.24901 0.0
C59 C 0.22667 0.01115 0.33646 0.0
O60 O 0.28708 0.06862 0.25989 0.0
Co61 Co 0.16285 0.07295 0.2692 0.0
O62 O 0.22441 0.12025 0.29214 0.0
C63 C 0.17316 -0.00052 0.19064 0.0
C64 C 0.2974 0.90744 0.26066 0.0
C65 C 0.27357 0.11141 0.28197 0.0
O66 O 0.22314 0.98911 0.20282 0.0
O67 O 0.14144 0.0276 0.21495 0.0
O68 O 0.27623 0.99388 0.33296 0.0
O69 O 0.19718 0.00971 0.29944 0.0
Co70 Co 0.3553 0.90508 0.58348 0.0
O71 O 0.27558 0.89736 0.57573 0.0
O72 O 0.31457 0.97237 0.60136 0.0
C73 C 0.37721 0.87659 0.51463 0.0
O74 O 0.43833 0.92922 0.58938 0.0
Co75 Co 0.43229 0.80262 0.58085 0.0
O76 O 0.49195 0.85745 0.57065 0.0
C77 C 0.3639 0.81437 0.66077 0.0
C78 C 0.26935 0.94799 0.58849 0.0
C79 C 0.48549 0.90891 0.57806 0.0
O80 O 0.35275 0.86546 0.64743 0.0
O81 O 0.39089 0.78139 0.63663 0.0
O82 O 0.36021 0.92708 0.51925 0.0
O83 O 0.37357 0.84358 0.55003 0.0
Co84 Co 0.48003 0.03985 0.76921 0.0
O85 O 0.48603 0.12079 0.77478 0.0
O86 O 0.40996 0.07711 0.75709 0.0
C87 C 0.52374 0.01644 0.83574 0.0
O88 O 0.45447 0.95653 0.76677 0.0
Co89 Co 0.57683 0.95938 0.76524 0.0
O90 O 0.52479 0.90073 0.78662 0.0
C91 C 0.55503 0.03971 0.68738 0.0
C92 C 0.43396 0.12383 0.767 0.0
C93 C 0.47385 0.90906 0.78243 0.0
O94 O 0.50584 0.04732 0.70153 0.0
O95 O 0.58968 0.01096 0.71129 0.0
O96 O 0.47306 0.03104 0.83539 0.0
O97 O 0.54752 0.02128 0.79717 0.0
Co98 Co 0.39583 0.12091 0.05131 0.0
O99 O 0.45564 0.09308 0.02212 0.0
O100 O 0.40917 0.04908 0.07755 0.0
C101 C 0.35746 0.15174 0.98692 0.0
O102 O 0.33226 0.14043 0.08802 0.0
Co103 Co 0.3536 0.23905 0.05451 0.0
O104 O 0.28166 0.1984 0.04992 0.0
C105 C 0.44398 0.20097 0.11786 0.0
C106 C 0.44901 0.05018 0.04941 0.0
C107 C 0.28706 0.15011 0.06805 0.0
O108 O 0.44289 0.15326 0.09975 0.0
O109 O 0.41264 0.24112 0.10444 0.0
O110 O 0.35353 0.09953 0.99894 0.0
O111 O 0.38567 0.18441 0.01351 0.0
Co112 Co 0.8553 0.40508 0.08348 0.0
O113 O 0.77558 0.39736 0.07573 0.0
O114 O 0.81458 0.47237 0.10136 0.0
C115 C 0.87721 0.3766 0.01463 0.0
O116 O 0.93834 0.42922 0.08938 0.0
Co117 Co 0.9323 0.30262 0.08085 0.0
O118 O 0.99196 0.35745 0.07065 0.0
C119 C 0.8639 0.31437 0.16077 0.0
C120 C 0.76935 0.44799 0.08849 0.0
C121 C 0.98549 0.40891 0.07806 0.0
O122 O 0.85275 0.36546 0.14743 0.0
O123 O 0.89089 0.28139 0.13663 0.0
O124 O 0.86021 0.42708 0.01925 0.0
O125 O 0.87357 0.34358 0.05003 0.0
Co126 Co 0.98003 0.53985 0.26921 0.0
O127 O 0.98603 0.62079 0.27478 0.0
O128 O 0.90996 0.5771 0.25709 0.0
C129 C 1.02374 0.51643 0.33574 0.0
O130 O 0.95447 0.45653 0.26677 0.0
Co131 Co 0.07683 0.45937 0.26524 0.0
O132 O 1.02479 0.40073 0.28662 0.0
C133 C 0.05503 0.53971 0.18739 0.0
C134 C 0.93396 0.62383 0.267 0.0
C135 C 0.97385 0.40906 0.28244 0.0
O136 O 1.00584 0.54732 0.20153 0.0
O137 O 0.08968 0.51096 0.21129 0.0
O138 O 0.97306 0.53104 0.33539 0.0
O139 O 0.04752 0.52127 0.29717 0.0
Co140 Co 0.89583 0.62091 0.55131 0.0
O141 O 0.95564 0.59308 0.52212 0.0
O142 O 0.90917 0.54908 0.57755 0.0
C143 C 0.85746 0.65174 0.48692 0.0
O144 O 0.83226 0.64043 0.58802 0.0
Co145 Co 0.8536 0.73905 0.5545 0.0
O146 O 0.78166 0.6984 0.54991 0.0
C147 C 0.94398 0.70098 0.61786 0.0
C148 C 0.94901 0.55018 0.54941 0.0
C149 C 0.78706 0.65011 0.56805 0.0
O150 O 0.94289 0.65326 0.59975 0.0
O151 O 0.91264 0.74112 0.60443 0.0
O152 O 0.85354 0.59953 0.49894 0.0
O153 O 0.88567 0.68441 0.5135 0.0
Co154 Co 0.7581 0.48975 0.76721 0.0
O155 O 0.74746 0.411 0.77344 0.0
O156 O 0.82268 0.45305 0.74901 0.0
C157 C 0.72667 0.51115 0.83646 0.0
O158 O 0.78708 0.56862 0.75989 0.0
Co159 Co 0.66285 0.57296 0.7692 0.0
O160 O 0.72441 0.62025 0.79214 0.0
C161 C 0.67316 0.49948 0.69064 0.0
C162 C 0.7974 0.40744 0.76066 0.0
C163 C 0.77357 0.61141 0.78197 0.0
O164 O 0.72314 0.48911 0.70281 0.0
O165 O 0.64144 0.5276 0.71495 0.0
O166 O 0.77624 0.49388 0.83296 0.0
O167 O 0.69718 0.50971 0.79944 0.0
Co168 Co 0.05713 0.8315 0.92026 0.0
O169 O 0.12213 0.88037 0.91415 0.0
O170 O 0.09395 0.82293 0.86233 0.0
C171 C 0.07495 0.88084 0.98684 0.0
O172 O 0.99807 0.77689 0.90524 0.0
Co173 Co 0.99932 0.78991 0.01352 0.0
O174 O 0.94911 0.75223 0.96683 0.0
C175 C 0.0945 0.74858 0.98818 0.0
C176 C 0.12786 0.86116 0.87367 0.0
C177 C 0.9594 0.74959 0.92419 0.0
O178 O 0.10218 0.76926 0.94823 0.0
O179 O 0.08019 0.78072 0.01888 0.0
O180 O 0.10665 0.88483 0.95236 0.0
O181 O 1.03108 0.85324 0.9789 0.0
Co182 Co 0.09514 0.27353 0.6792 0.0
O183 O 1.01266 0.27106 0.67721 0.0
O184 O 0.06057 0.25319 0.73859 0.0
C185 C 0.10069 0.35918 0.63808 0.0
O186 O 0.17606 0.27269 0.70584 0.0
Co187 Co 0.18357 0.28943 0.60835 0.0
O188 O 0.24082 0.29701 0.65701 0.0
C189 C 0.12805 0.17834 0.61756 0.0
C190 C 1.0122 0.26049 0.72119 0.0
C191 C 0.22694 0.28267 0.69712 0.0
O192 O 0.10281 0.19268 0.65448 0.0
O193 O 0.15744 0.21256 0.59461 0.0
O194 O 0.09078 0.35645 0.6816 0.0
O195 O 0.10967 0.3116 0.62106 0.0
Co196 Co 0.55713 0.33149 0.42026 0.0
O197 O 0.62213 0.38036 0.41415 0.0
O198 O 0.59395 0.32293 0.36233 0.0
C199 C 0.57496 0.38084 0.48685 0.0
O200 O 0.49807 0.27688 0.40524 0.0
Co201 Co 0.49932 0.2899 0.51353 0.0
O202 O 0.44911 0.25222 0.46684 0.0
C203 C 0.5945 0.24858 0.48819 0.0
C204 C 0.62786 0.36116 0.37367 0.0
C205 C 0.4594 0.24959 0.4242 0.0
O206 O 0.60218 0.26926 0.44823 0.0
O207 O 0.58019 0.28072 0.51888 0.0
O208 O 0.60665 0.38482 0.45236 0.0
O209 O 0.53108 0.35324 0.4789 0.0
Co210 Co 0.59514 0.77353 0.1792 0.0
O211 O 0.51266 0.77106 0.17721 0.0
O212 O 0.56057 0.75319 0.23859 0.0
C213 C 0.60069 0.85918 0.13808 0.0
O214 O 0.67606 0.77269 0.20584 0.0
Co215 Co 0.68357 0.78944 0.10835 0.0
O216 O 0.74082 0.79701 0.15701 0.0
C217 C 0.62805 0.67834 0.11756 0.0
C218 C 0.5122 0.76049 0.22119 0.0
C219 C 0.72694 0.78267 0.19712 0.0
O220 O 0.60281 0.69268 0.15448 0.0
O221 O 0.65745 0.71256 0.09461 0.0
O222 O 0.59078 0.85645 0.1816 0.0
O223 O 0.60967 0.8116 0.12106 0.0
Co224 Co 0.96826 0.02177 0.86254 0.0
O225 O 0.97754 0.10117 0.85688 0.0
O226 O 0.90053 0.0551 0.84273 0.0
C227 C 1.01382 0.02106 0.93226 0.0
O228 O 0.93775 0.94186 0.86473 0.0
Co229 Co 0.05939 0.93983 0.8731 0.0
O230 O 1.00553 0.88714 0.84656 0.0
C231 C 1.02887 0.97975 0.78035 0.0
C232 C 0.92588 0.10231 0.84689 0.0
C233 C 0.95515 0.8973 0.84698 0.0
O234 O 0.99066 0.00967 0.79663 0.0
O235 O 0.06254 0.95217 0.80582 0.0
O236 O 0.96197 0.03054 0.92908 0.0
O237 O 1.0364 0.01069 0.89428 0.0
Co238 Co 0.87092 0.15033 0.50371 0.0
O239 O 0.9518 0.15204 0.50491 0.0
O240 O 0.90485 0.07656 0.51847 0.0
C241 C 0.86671 0.20451 0.43724 0.0
O242 O 0.78818 0.12704 0.50834 0.0
Co243 Co 0.79096 0.25061 0.49693 0.0
O244 O 0.72999 0.19879 0.51111 0.0
C245 C 0.83065 0.20069 0.58707 0.0
C246 C 0.95276 0.09874 0.51363 0.0
C247 C 0.74023 0.14719 0.51652 0.0
O248 O 0.86475 0.16745 0.56951 0.0
O249 O 0.80255 0.23685 0.56406 0.0
O250 O 0.87346 0.15079 0.43689 0.0
O251 O 0.86003 0.22445 0.4769 0.0
Co252 Co 0.74103 0.01325 0.35972 0.0
O253 O 0.73426 0.93303 0.35068 0.0
O254 O 0.808 0.9823 0.33693 0.0
C255 C 0.69635 0.00566 0.42874 0.0
O256 O 0.77005 0.0946 0.36089 0.0
Co257 Co 0.65464 0.10123 0.37912 0.0
O258 O 0.70339 0.15447 0.34586 0.0
C259 C 0.66387 0.0531 0.28848 0.0
C260 C 0.7845 0.93393 0.33782 0.0
C261 C 0.75208 0.13955 0.34016 0.0
O262 O 0.71101 0.03186 0.29738 0.0
O263 O 0.63273 0.07235 0.31831 0.0
O264 O 0.74844 0.99625 0.42693 0.0
O265 O 0.67474 0.02384 0.39101 0.0
Co266 Co 0.795 0.90875 0.03406 0.0
O267 O 0.73777 0.92242 0.07253 0.0
O268 O 0.79974 0.98491 0.04912 0.0
C269 C 0.7464 0.8637 0.98125 0.0
O270 O 0.85822 0.90809 0.9936 0.0
Co271 Co 0.84274 0.79786 0.01189 0.0
O272 O 0.91295 0.84232 0.01321 0.0
C273 C 0.85837 0.84039 0.10384 0.0
C274 C 0.75435 0.97396 0.0689 0.0
C275 C 0.90454 0.89426 0.00955 0.0
O276 O 0.83858 0.88649 0.08885 0.0
O277 O 0.86035 0.79698 0.07958 0.0
O278 O 0.74767 0.91772 0.98131 0.0
O279 O 0.77235 0.83774 0.01476 0.0
Co280 Co 0.37092 0.65033 1.00371 0.0
O281 O 0.4518 0.65204 0.00492 0.0
O282 O 0.40485 0.57656 0.01847 0.0
C283 C 0.36671 0.70451 0.93724 0.0
O284 O 0.28818 0.62704 0.00834 0.0
Co285 Co 0.29096 0.75061 0.99693 0.0
O286 O 0.22999 0.69879 0.01111 0.0
C287 C 0.33066 0.70069 0.08707 0.0
C288 C 0.45277 0.59874 0.01363 0.0
C289 C 0.24023 0.64719 0.01653 0.0
O290 O 0.36476 0.66745 0.06951 0.0
O291 O 0.30255 0.73685 0.06406 0.0
O292 O 0.37346 0.65079 0.93689 0.0
O293 O 0.36004 0.72445 0.97691 0.0
Co294 Co 0.24103 0.51326 0.85972 0.0
O295 O 0.23426 0.43303 0.85068 0.0
O296 O 0.30801 0.4823 0.83693 0.0
C297 C 0.19635 0.50566 0.92874 0.0
O298 O 0.27005 0.5946 0.86089 0.0
Co299 Co 0.15465 0.60124 0.87912 0.0
O300 O 0.20339 0.65447 0.84586 0.0
C301 C 0.16387 0.5531 0.78848 0.0
C302 C 0.2845 0.43394 0.83782 0.0
C303 C 0.25209 0.63955 0.84016 0.0
O304 O 0.21101 0.53186 0.79738 0.0
O305 O 0.13273 0.57236 0.81831 0.0
O306 O 0.24844 0.49625 0.92693 0.0
O307 O 0.17474 0.52384 0.89102 0.0
Co308 Co 0.295 0.40875 0.53406 0.0
O309 O 0.23777 0.42242 0.57253 0.0
O310 O 0.29974 0.48491 0.54912 0.0
C311 C 0.2464 0.3637 0.48125 0.0
O312 O 0.35822 0.40809 0.4936 0.0
Co313 Co 0.34274 0.29786 0.51189 0.0
O314 O 0.41295 0.34232 0.51321 0.0
C315 C 0.35837 0.34039 0.60384 0.0
C316 C 0.25435 0.47396 0.5689 0.0
C317 C 0.40454 0.39426 0.50955 0.0
O318 O 0.33858 0.38649 0.58885 0.0
O319 O 0.36035 0.29698 0.57958 0.0
O320 O 0.24767 0.41772 0.48131 0.0
O321 O 0.27235 0.33774 0.51476 0.0
Co322 Co 0.46826 0.52176 0.36254 0.0
O323 O 0.47754 0.60116 0.35688 0.0
O324 O 0.40053 0.5551 0.34273 0.0
C325 C 0.51382 0.52106 0.43226 0.0
O326 O 0.43775 0.44185 0.36473 0.0
Co327 Co 0.55939 0.43983 0.3731 0.0
O328 O 0.50553 0.38714 0.34656 0.0
C329 C 0.52888 0.47975 0.28035 0.0
C330 C 0.42588 0.60231 0.34689 0.0
C331 C 0.45515 0.39729 0.34699 0.0
O332 O 0.49066 0.50967 0.29663 0.0
O333 O 0.56254 0.45217 0.30582 0.0
O334 O 0.46197 0.53053 0.42908 0.0
O335 O 0.5364 0.51069 0.39428 0.0
C336 C 0.04631 0.02486 0.9755 0.0
N337 N 0.98641 -0.0008 0.10333 0.0
C338 C 0.9481 0.02237 0.0745 0.0
C339 C 0.92167 0.98881 0.04222 0.0
C340 C 0.93053 0.93098 0.04397 0.0
C341 C 0.95957 0.90835 0.08203 0.0
C342 C 0.98334 0.94387 0.11406 0.0
Zn343 Zn 0.0627 0.01046 0.07672 0.0
C344 C 0.09166 0.90378 0.02997 0.0
N345 N 0.20975 0.01216 0.00922 0.0
C346 C 0.20774 0.06139 0.98511 0.0
C347 C 0.25011 0.00268 0.04072 0.0
C348 C 0.27287 0.04811 0.06278 0.0
C349 C 0.26021 0.10233 0.04642 0.0
C350 C 0.23046 0.10866 0.00491 0.0
Zn351 Zn 0.13841 0.00242 0.04228 0.0
O352 O 1.025 0.03971 0.01219 0.0
C353 C 0.11576 0.11212 0.08448 0.0
O354 O 0.09536 0.00907 0.97718 0.0
H355 H 0.25515 0.96143 0.05602 0.0
H356 H 0.94683 0.06718 0.06958 0.0
H357 H 0.17945 0.06669 0.95644 0.0
O358 O 0.07496 0.08978 0.10362 0.0
O359 O 0.13737 0.08837 0.05181 0.0
H360 H 1.01043 0.926 0.14012 0.0
O361 O 0.17932 0.99486 0.10957 0.0
O362 O 0.09975 0.98173 0.13933 0.0
O363 O 0.14074 0.91918 0.03362 0.0
O364 O 0.05584 0.93165 0.04833 0.0
C365 C 0.15101 0.9863 0.14466 0.0
H366 H 0.89721 0.00811 0.01491 0.0
H367 H 0.96713 0.86409 0.08541 0.0
H368 H 0.2989 0.04092 0.09278 0.0
H369 H 0.22272 0.1493 0.98926 0.0
C370 C 0.46116 0.76128 0.25112 0.0
N371 N 0.30334 0.69423 0.22787 0.0
C372 C 0.26797 0.72335 0.20036 0.0
C373 C 0.27515 0.72459 0.15349 0.0
C374 C 0.31788 0.69404 0.13549 0.0
C375 C 0.34634 0.65623 0.16398 0.0
C376 C 0.33774 0.65637 0.21056 0.0
Zn377 Zn 0.33675 0.73521 0.28078 0.0
C378 C 0.3982 0.65492 0.33839 0.0
N379 N 0.42269 0.81569 0.38841 0.0
C380 C 0.41593 0.87173 0.39179 0.0
C381 C 0.42956 0.78276 0.42684 0.0
C382 C 0.41885 0.8034 0.46944 0.0
C383 C 0.40163 0.85844 0.47248 0.0
C384 C 0.40432 0.89409 0.43388 0.0
Zn385 Zn 0.38694 0.77742 0.33279 0.0
O386 O 0.41558 0.73959 0.23846 0.0
C387 C 0.32686 0.85643 0.27046 0.0
O388 O 0.46272 0.78303 0.29069 0.0
H389 H 0.43686 0.73881 0.425 0.0
H390 H 0.23983 0.75189 0.21484 0.0
H391 H 0.41341 0.8985 0.3616 0.0
O392 O 0.31151 0.81204 0.2518 0.0
O393 O 0.35877 0.85423 0.30513 0.0
H394 H 0.36553 0.63282 0.23252 0.0
O395 O 0.30804 0.77262 0.37618 0.0
O396 O 0.25913 0.73489 0.32194 0.0
O397 O 0.41658 0.69901 0.35582 0.0
O398 O 0.35952 0.65767 0.30939 0.0
C399 C 0.26094 0.75572 0.36197 0.0
H400 H 0.24984 0.75203 0.13219 0.0
H401 H 0.37774 0.63 0.15111 0.0
H402 H 0.41947 0.7751 0.49893 0.0
H403 H 0.39351 0.93763 0.43541 0.0
C404 C 0.57508 0.05512 0.64004 0.0
N405 N 0.7037 0.96125 0.60989 0.0
C406 C 0.69769 0.95901 0.65619 0.0
C407 C 0.68978 0.90762 0.67829 0.0
C408 C 0.69229 0.86012 0.65217 0.0
C409 C 0.713 0.86441 0.60793 0.0
C410 C 0.72089 0.91612 0.58804 0.0
Zn411 Zn 0.64956 0.00752 0.57104 0.0
C412 C 0.53187 0.94744 0.56606 0.0
N413 N 0.52336 0.09221 0.49883 0.0
C414 C 0.50611 0.13078 0.52756 0.0
C415 C 0.54167 0.10799 0.45705 0.0
C416 C 0.56658 0.15971 0.4522 0.0
C417 C 0.56477 0.19586 0.48895 0.0
C418 C 0.53094 0.18231 0.52594 0.0
Zn419 Zn 0.58144 0.04884 0.53561 0.0
O420 O 0.62337 0.0412 0.63255 0.0
C421 C 0.69686 0.1096 0.53641 0.0
O422 O 0.54521 0.06792 0.60518 0.0
H423 H 0.54554 0.07776 0.43066 0.0
H424 H 0.69215 0.99636 0.67509 0.0
H425 H 0.48182 0.11876 0.55644 0.0
O426 O 0.7112 0.0671 0.5602 0.0
O427 O 0.64561 0.11809 0.52979 0.0
H428 H 0.73275 0.91859 0.55295 0.0
O429 O 0.61765 0.02583 0.47164 0.0
O430 O 0.68088 0.97773 0.50748 0.0
O431 O 0.52252 0.98664 0.53749 0.0
O432 O 0.58107 0.94159 0.58165 0.0
C433 C 0.66301 0.001 0.47078 0.0
H434 H 0.67744 0.9055 0.71355 0.0
H435 H 0.71848 0.82897 0.58679 0.0
H436 H 0.58849 0.17016 0.42149 0.0
H437 H 0.52465 0.21013 0.55376 0.0
C438 C 0.40369 0.17639 0.77505 0.0
N439 N 0.28423 0.22062 0.86997 0.0
C440 C 0.28835 0.16426 0.87259 0.0
C441 C 0.31003 0.13934 0.91235 0.0
C442 C 0.32458 0.17347 0.94887 0.0
C443 C 0.30807 0.22884 0.94829 0.0
C444 C 0.28499 0.25116 0.90848 0.0
Zn445 Zn 0.32913 0.25741 0.82076 0.0
C446 C 0.44783 0.28624 0.86838 0.0
N447 N 0.43582 0.34392 0.73285 0.0
C448 C 0.45399 0.30687 0.70262 0.0
C449 C 0.40886 0.38999 0.7174 0.0
C450 C 0.38141 0.38865 0.67553 0.0
C451 C 0.38743 0.34205 0.64802 0.0
C452 C 0.42695 0.30239 0.66051 0.0
Zn453 Zn 0.38996 0.30369 0.78088 0.0
O454 O 0.36334 0.17665 0.80125 0.0
C455 C 0.27104 0.27704 0.73427 0.0
O456 O 0.42216 0.22299 0.76089 0.0
H457 H 0.40195 0.42409 0.73973 0.0
H458 H 0.28365 0.14006 0.84212 0.0
H459 H 0.4833 0.2756 0.71349 0.0
O460 O 0.26251 0.25016 0.77144 0.0
O461 O 0.31824 0.29942 0.72941 0.0
H462 H 0.2771 0.2952 0.9073 0.0
O463 O 0.35757 0.38359 0.80411 0.0
O464 O 0.29354 0.33548 0.83672 0.0
O465 O 0.45798 0.30776 0.82941 0.0
O466 O 0.39968 0.26638 0.87408 0.0
C467 C 0.31342 0.3824 0.82573 0.0
H468 H 0.31983 0.09541 0.91298 0.0
H469 H 0.316 0.2555 0.97699 0.0
H470 H 0.35486 0.42289 0.66553 0.0
H471 H 0.43682 0.26886 0.63824 0.0
C472 C 0.216 0.97819 0.57888 0.0
N473 N 0.16443 0.07205 0.45909 0.0
C474 C 0.21939 0.06796 0.45553 0.0
C475 C 0.24158 0.05 0.41495 0.0
C476 C 0.20688 0.03834 0.37753 0.0
C477 C 0.15169 0.05162 0.38001 0.0
C478 C 0.13117 0.06841 0.42128 0.0
Zn479 Zn 0.12951 0.04175 0.51821 0.0
C480 C 0.10132 0.91867 0.49536 0.0
N481 N 0.05541 0.97133 0.63708 0.0
C482 C 0.08119 0.93474 0.66635 0.0
C483 C 1.01602 0.00552 0.65244 0.0
C484 C 1.00469 0.00733 0.69886 0.0
C485 C 1.03432 0.97398 0.73023 0.0
C486 C 0.07111 0.9353 0.71317 0.0
Zn487 Zn 0.09153 -0.00096 0.5773 0.0
O488 O 0.20903 0.00602 0.54148 0.0
C489 C 0.12373 0.12194 0.59597 0.0
O490 O 0.17424 0.96972 0.60328 0.0
H491 H 0.99697 0.03626 0.62993 0.0
H492 H 0.24573 0.0723 0.48539 0.0
H493 H 0.11282 0.90842 0.65421 0.0
O494 O 0.14425 0.11614 0.55666 0.0
O495 O 0.09968 0.08004 0.61402 0.0
H496 H 0.08768 0.07069 0.42419 0.0
O497 O 1.01011 0.02781 0.55097 0.0
O498 O 0.04847 0.0802 0.49894 0.0
O499 O 0.0859 0.91752 0.53724 0.0
O500 O 0.11582 0.96569 0.47854 0.0
C501 C 1.0056 0.06643 0.52038 0.0
H502 H 0.2848 0.04231 0.41379 0.0
H503 H 0.12366 0.04467 0.3515 0.0
H504 H 0.97559 0.03722 0.7102 0.0
H505 H 0.09413 0.90753 0.73595 0.0
C506 C 0.35403 0.79371 0.70849 0.0
N507 N 0.4531 0.68633 0.78638 0.0
C508 C 0.45271 0.65857 0.74661 0.0
C509 C 0.50178 0.64652 0.72717 0.0
C510 C 0.54974 0.66185 0.75048 0.0
C511 C 0.54859 0.67769 0.79588 0.0
C512 C 0.49896 0.69175 0.81298 0.0
Zn513 Zn 0.3927 0.73802 0.79717 0.0
C514 C 0.43627 0.86162 0.79463 0.0
N515 N 0.27409 0.85126 0.81684 0.0
C516 C 0.22995 0.84112 0.7893 0.0
C517 C 0.27172 0.88241 0.85456 0.0
C518 C 0.22129 0.89601 0.87052 0.0
C519 C 0.17504 0.87505 0.84751 0.0
C520 C 0.17894 0.85311 0.80421 0.0
Zn521 Zn 0.33468 0.80135 0.80914 0.0
O522 O 0.37894 0.75072 0.72415 0.0
C523 C 0.28994 0.68085 0.81747 0.0
O524 O 0.32776 0.82191 0.73611 0.0
H525 H 0.30801 0.88991 0.87526 0.0
H526 H 0.41526 0.65323 0.72699 0.0
H527 H 0.23327 0.81596 0.7595 0.0
O528 O 0.3376 0.66765 0.80633 0.0
O529 O 0.27608 0.7317 0.81199 0.0
H530 H 0.49861 0.71428 0.84436 0.0
O531 O 0.34158 0.78006 0.88366 0.0
O532 O 0.40613 0.72313 0.86654 0.0
O533 O 0.38915 0.87117 0.80884 0.0
O534 O 0.45021 0.81075 0.79064 0.0
C535 C 0.37351 0.74009 0.89536 0.0
H536 H 0.5022 0.63312 0.69212 0.0
H537 H 0.58547 0.68928 0.81454 0.0
H538 H 0.21897 0.91442 0.90379 0.0
H539 H 0.14355 0.83759 0.78557 0.0
C540 C 0.60238 0.91287 0.10975 0.0
N541 N 0.61035 0.07371 0.15316 0.0
C542 C 0.57531 0.05241 0.18434 0.0
C543 C 0.59215 0.04611 0.22956 0.0
C544 C 0.6453 0.06136 0.2418 0.0
C545 C 0.6779 0.09011 0.2106 0.0
C546 C 0.6586 0.09738 0.16588 0.0
Zn547 Zn 0.6067 0.03758 0.09297 0.0
C548 C 0.71137 0.0116 0.0611 0.0
N549 N 0.59551 0.96431 0.96206 0.0
C550 C 0.5463 0.94219 0.9496 0.0
C551 C 0.6273 0.98992 0.93021 0.0
C552 C 0.60576 0.00342 0.88665 0.0
C553 C 0.55115 0.99089 0.87645 0.0
C554 C 0.5223 0.95686 0.90714 0.0
Zn555 Zn 0.60147 -0.00202 0.02628 0.0
O556 O 0.6015 0.95884 0.12986 0.0
C557 C 0.49667 0.0208 0.06037 0.0
O558 O 0.6037 0.91436 0.06573 0.0
H559 H 0.66622 0.00751 0.94026 0.0
H560 H 0.53727 0.03348 0.17368 0.0
H561 H 0.52213 0.9202 0.97469 0.0
O562 O 0.52521 0.04254 0.09157 0.0
O563 O 0.51891 -0.00268 0.02806 0.0
H564 H 0.68498 0.11549 0.14043 0.0
O565 O 0.59982 0.08076 0.98995 0.0
O566 O 0.61158 0.11829 0.05654 0.0
O567 O 0.68339 0.00082 0.02549 0.0
O568 O 0.68907 0.02956 0.0957 0.0
C569 C 0.60689 0.1244 0.01308 0.0
H570 H 0.56546 0.02605 0.25396 0.0
H571 H 0.71804 0.10528 0.22041 0.0
H572 H 0.62962 0.02857 0.8632 0.0
H573 H 0.48066 0.94452 0.89951 0.0
C574 C 0.31382 0.154 0.29462 0.0
N575 N 0.46831 0.21726 0.25505 0.0
C576 C 0.46982 0.16469 0.23927 0.0
C577 C 0.47174 0.15712 0.1923 0.0
C578 C 0.47211 0.20441 0.16268 0.0
C579 C 0.48439 0.2563 0.18084 0.0
C580 C 0.48412 0.26151 0.22805 0.0
Zn581 Zn 0.40195 0.23489 0.29297 0.0
C582 C 0.3148 0.2759 0.22748 0.0
N583 N 0.26738 0.28981 0.3616 0.0
C584 C 0.25617 0.25536 0.39787 0.0
C585 C 0.24974 0.34316 0.35877 0.0
C586 C 0.23088 0.36731 0.39777 0.0
C587 C 0.23258 0.33567 0.4389 0.0
C588 C 0.23836 0.2779 0.43775 0.0
Zn589 Zn 0.33245 0.2699 0.32685 0.0
O590 O 0.36178 0.15612 0.27949 0.0
C591 C 0.4201 0.22557 0.39156 0.0
O592 O 0.29739 0.19273 0.31888 0.0
H593 H 0.25847 0.36915 0.32904 0.0
H594 H 0.4593 0.12969 0.26144 0.0
H595 H 0.26996 0.2127 0.39891 0.0
O596 O 0.43924 0.20702 0.35496 0.0
O597 O 0.37344 0.24763 0.38989 0.0
H598 H 0.48557 0.30311 0.24094 0.0
O599 O 0.36749 0.35199 0.33694 0.0
O600 O 0.43875 0.31302 0.30909 0.0
O601 O 0.29203 0.2895 0.26398 0.0
O602 O 0.36412 0.2614 0.22951 0.0
C603 C 0.41804 0.35335 0.32941 0.0
H604 H 0.46379 0.11584 0.17954 0.0
H605 H 0.48672 0.29341 0.159 0.0
H606 H 0.22454 0.41193 0.39726 0.0
H607 H 0.23805 0.25213 0.46875 0.0
C608 C 0.716 0.47819 0.07888 0.0
N609 N 0.66443 0.57205 0.95909 0.0
C610 C 0.71939 0.56796 0.95553 0.0
C611 C 0.74158 0.55 0.91495 0.0
C612 C 0.70688 0.53834 0.87753 0.0
C613 C 0.6517 0.55162 0.88001 0.0
C614 C 0.63117 0.56841 0.92128 0.0
Zn615 Zn 0.62952 0.54175 0.01821 0.0
C616 C 0.60132 0.41867 0.99536 0.0
N617 N 0.55542 0.47133 0.13708 0.0
C618 C 0.58119 0.43474 0.16635 0.0
C619 C 0.51602 0.50552 0.15244 0.0
C620 C 0.50469 0.50733 0.19886 0.0
C621 C 0.53432 0.47398 0.23023 0.0
C622 C 0.57111 0.4353 0.21317 0.0
Zn623 Zn 0.59153 0.49904 0.0773 0.0
O624 O 0.70903 0.50602 0.04148 0.0
C625 C 0.62374 0.62194 0.09597 0.0
O626 O 0.67424 0.46972 0.10328 0.0
H627 H 0.49697 0.53626 0.12993 0.0
H628 H 0.74573 0.5723 0.98539 0.0
H629 H 0.61283 0.40842 0.15421 0.0
O630 O 0.64425 0.61614 0.05666 0.0
O631 O 0.59968 0.58004 0.11402 0.0
H632 H 0.58768 0.57069 0.92419 0.0
O633 O 0.51011 0.52781 0.05097 0.0
O634 O 0.54847 0.5802 0.99894 0.0
O635 O 0.58591 0.41752 0.03724 0.0
O636 O 0.61582 0.46569 0.97854 0.0
C637 C 0.5056 0.56643 0.02038 0.0
H638 H 0.78481 0.54231 0.91379 0.0
H639 H 0.62366 0.54467 0.8515 0.0
H640 H 0.47559 0.53722 0.2102 0.0
H641 H 0.59413 0.40753 0.23595 0.0
C642 C 0.85403 0.29371 0.20849 0.0
N643 N 0.9531 0.18633 0.28638 0.0
C644 C 0.95272 0.15857 0.24661 0.0
C645 C 1.00178 0.14652 0.22717 0.0
C646 C 0.04974 0.16185 0.25048 0.0
C647 C 0.04859 0.17769 0.29588 0.0
C648 C 0.99896 0.19175 0.31298 0.0
Zn649 Zn 0.8927 0.23801 0.29717 0.0
C650 C 0.93627 0.36162 0.29463 0.0
N651 N 0.77409 0.35126 0.31684 0.0
C652 C 0.72995 0.34112 0.2893 0.0
C653 C 0.77172 0.38241 0.35456 0.0
C654 C 0.72129 0.396 0.37052 0.0
C655 C 0.67504 0.37504 0.34751 0.0
C656 C 0.67894 0.35311 0.30421 0.0
Zn657 Zn 0.83468 0.30135 0.30914 0.0
O658 O 0.87894 0.25072 0.22415 0.0
C659 C 0.78994 0.18085 0.31746 0.0
O660 O 0.82776 0.32191 0.23611 0.0
H661 H 0.80801 0.38991 0.37526 0.0
H662 H 0.91526 0.15323 0.22699 0.0
H663 H 0.73327 0.31596 0.2595 0.0
O664 O 0.8376 0.16765 0.30633 0.0
O665 O 0.77608 0.2317 0.31198 0.0
H666 H 0.99861 0.21428 0.34436 0.0
O667 O 0.84158 0.28006 0.38366 0.0
O668 O 0.90613 0.22313 0.36654 0.0
O669 O 0.88915 0.37117 0.30884 0.0
O670 O 0.95021 0.31074 0.29064 0.0
C671 C 0.87351 0.24009 0.39536 0.0
H672 H 1.00221 0.13312 0.19212 0.0
H673 H 0.08547 0.18928 0.31454 0.0
H674 H 0.71897 0.41441 0.40379 0.0
H675 H 0.64355 0.33759 0.28557 0.0
C676 C 0.10238 0.41287 0.60975 0.0
N677 N 0.11035 0.57371 0.65316 0.0
C678 C 0.07531 0.55241 0.68434 0.0
C679 C 0.09215 0.54612 0.72956 0.0
C680 C 0.1453 0.56136 0.7418 0.0
C681 C 0.1779 0.59011 0.7106 0.0
C682 C 0.1586 0.59738 0.66588 0.0
Zn683 Zn 0.1067 0.53758 0.59297 0.0
C684 C 0.21137 0.5116 0.5611 0.0
N685 N 0.09551 0.46431 0.46206 0.0
C686 C 0.04629 0.44219 0.4496 0.0
C687 C 0.1273 0.48992 0.43021 0.0
C688 C 0.10576 0.50341 0.38665 0.0
C689 C 0.05115 0.49089 0.37645 0.0
C690 C 1.0223 0.45686 0.40714 0.0
Zn691 Zn 0.10148 0.49798 0.52628 0.0
O692 O 0.1015 0.45884 0.62986 0.0
C693 C 0.99667 0.5208 0.56038 0.0
O694 O 0.1037 0.41436 0.56573 0.0
H695 H 0.16622 0.50751 0.44026 0.0
H696 H 1.03727 0.53348 0.67368 0.0
H697 H 1.02213 0.4202 0.47469 0.0
O698 O 1.02521 0.54254 0.59157 0.0
O699 O 1.01891 0.49732 0.52806 0.0
H700 H 0.18498 0.61549 0.64043 0.0
O701 O 0.09982 0.58076 0.48995 0.0
O702 O 0.11158 0.61829 0.55654 0.0
O703 O 0.18339 0.50082 0.52549 0.0
O704 O 0.18907 0.52956 0.5957 0.0
C705 C 0.10689 0.6244 0.51308 0.0
H706 H 0.06546 0.52606 0.75397 0.0
H707 H 0.21804 0.60528 0.72041 0.0
H708 H 0.12962 0.52857 0.3632 0.0
H709 H 0.98066 0.44452 0.39951 0.0
C710 C 0.90369 0.67639 0.27505 0.0
N711 N 0.78423 0.72061 0.36997 0.0
C712 C 0.78835 0.66426 0.37259 0.0
C713 C 0.81003 0.63934 0.41235 0.0
C714 C 0.82458 0.67346 0.44887 0.0
C715 C 0.80807 0.72883 0.44829 0.0
C716 C 0.78499 0.75116 0.40848 0.0
Zn717 Zn 0.82913 0.7574 0.32076 0.0
C718 C 0.94783 0.78624 0.36838 0.0
N719 N 0.93582 0.84392 0.23285 0.0
C720 C 0.95399 0.80687 0.20262 0.0
C721 C 0.90886 0.88999 0.2174 0.0
C722 C 0.88141 0.88865 0.17553 0.0
C723 C 0.88743 0.84205 0.14802 0.0
C724 C 0.92695 0.80238 0.16051 0.0
Zn725 Zn 0.88996 0.80368 0.28088 0.0
O726 O 0.86334 0.67665 0.30125 0.0
C727 C 0.77104 0.77704 0.23426 0.0
O728 O 0.92216 0.72299 0.26089 0.0
H729 H 0.90195 0.92409 0.23973 0.0
H730 H 0.78365 0.64006 0.34212 0.0
H731 H 0.9833 0.7756 0.21349 0.0
O732 O 0.76251 0.75016 0.27144 0.0
O733 O 0.81824 0.79942 0.22941 0.0
H734 H 0.7771 0.79519 0.4073 0.0
O735 O 0.85757 0.88359 0.30411 0.0
O736 O 0.79354 0.83548 0.33672 0.0
O737 O 0.95798 0.80776 0.32941 0.0
O738 O 0.89968 0.76637 0.37408 0.0
C739 C 0.81342 0.88239 0.32573 0.0
H740 H 0.81983 0.59541 0.41298 0.0
H741 H 0.816 0.7555 0.47699 0.0
H742 H 0.85486 0.92289 0.16553 0.0
H743 H 0.93681 0.76886 0.13824 0.0
C744 C 0.96116 0.26128 0.75112 0.0
N745 N 0.80334 0.19423 0.72787 0.0
C746 C 0.76797 0.22335 0.70036 0.0
C747 C 0.77514 0.22459 0.65349 0.0
C748 C 0.81788 0.19404 0.63549 0.0
C749 C 0.84633 0.15623 0.66398 0.0
C750 C 0.83774 0.15638 0.71056 0.0
Zn751 Zn 0.83675 0.23522 0.78078 0.0
C752 C 0.8982 0.15492 0.83839 0.0
N753 N 0.92269 0.31569 0.88841 0.0
C754 C 0.91593 0.37173 0.89179 0.0
C755 C 0.92956 0.28276 0.92684 0.0
C756 C 0.91886 0.30341 0.96944 0.0
C757 C 0.90163 0.35844 0.97248 0.0
C758 C 0.90432 0.39409 0.93388 0.0
Zn759 Zn 0.88694 0.27743 0.83279 0.0
O760 O 0.91558 0.23959 0.73846 0.0
C761 C 0.82686 0.35643 0.77046 0.0
O762 O 0.96272 0.28303 0.79069 0.0
H763 H 0.93686 0.23881 0.925 0.0
H764 H 0.73983 0.2519 0.71483 0.0
H765 H 0.91341 0.3985 0.8616 0.0
O766 O 0.81152 0.31205 0.7518 0.0
O767 O 0.85877 0.35423 0.80513 0.0
H768 H 0.86553 0.13283 0.73252 0.0
O769 O 0.80804 0.27263 0.87618 0.0
O770 O 0.75913 0.23489 0.82194 0.0
O771 O 0.91658 0.19901 0.85582 0.0
O772 O 0.85952 0.15767 0.80939 0.0
C773 C 0.76094 0.25573 0.86197 0.0
H774 H 0.74984 0.25203 0.63219 0.0
H775 H 0.87774 0.13 0.65111 0.0
H776 H 0.91948 0.2751 0.99893 0.0
H777 H 0.89351 0.43763 0.93541 0.0
C778 C 0.81382 0.654 0.79461 0.0
N779 N 0.96831 0.71727 0.75504 0.0
C780 C 0.96982 0.6647 0.73927 0.0
C781 C 0.97174 0.65713 0.6923 0.0
C782 C 0.97211 0.70441 0.66268 0.0
C783 C 0.98438 0.75631 0.68084 0.0
C784 C 0.98411 0.76152 0.72805 0.0
Zn785 Zn 0.90195 0.7349 0.79297 0.0
C786 C 0.8148 0.7759 0.72748 0.0
N787 N 0.76737 0.78981 0.8616 0.0
C788 C 0.75617 0.75536 0.89786 0.0
C789 C 0.74974 0.84317 0.85877 0.0
C790 C 0.73088 0.86731 0.89777 0.0
C791 C 0.73258 0.83567 0.9389 0.0
C792 C 0.73836 0.7779 0.93775 0.0
Zn793 Zn 0.83245 0.76991 0.82685 0.0
O794 O 0.86178 0.65612 0.77949 0.0
C795 C 0.9201 0.72558 0.89156 0.0
O796 O 0.79739 0.69273 0.81887 0.0
H797 H 0.75847 0.86915 0.82904 0.0
H798 H 0.9593 0.62969 0.76144 0.0
H799 H 0.76996 0.7127 0.8989 0.0
O800 O 0.93924 0.70702 0.85496 0.0
O801 O 0.87344 0.74763 0.88988 0.0
H802 H 0.98557 0.80311 0.74094 0.0
O803 O 0.86749 0.852 0.83694 0.0
O804 O 0.93875 0.81303 0.80909 0.0
O805 O 0.79203 0.7895 0.76398 0.0
O806 O 0.86411 0.7614 0.72951 0.0
C807 C 0.91803 0.85335 0.82941 0.0
H808 H 0.96379 0.61585 0.67954 0.0
H809 H 0.98671 0.79341 0.659 0.0
H810 H 0.72454 0.91193 0.89726 0.0
H811 H 0.73805 0.75213 0.96875 0.0
C812 C 0.54631 0.52486 0.4755 0.0
N813 N 0.48642 0.4992 0.60333 0.0
C814 C 0.4481 0.52237 0.57449 0.0
C815 C 0.42167 0.48881 0.54221 0.0
C816 C 0.43054 0.43098 0.54397 0.0
C817 C 0.45957 0.40834 0.58203 0.0
C818 C 0.48334 0.44387 0.61406 0.0
Zn819 Zn 0.5627 0.51046 0.57672 0.0
C820 C 0.59167 0.40377 0.52997 0.0
N821 N 0.70975 0.51215 0.50922 0.0
C822 C 0.70775 0.56139 0.48511 0.0
C823 C 0.75011 0.50268 0.54072 0.0
C824 C 0.77287 0.54811 0.56278 0.0
C825 C 0.76021 0.60233 0.54642 0.0
C826 C 0.73046 0.60865 0.50491 0.0
Zn827 Zn 0.63841 0.50242 0.54228 0.0
O828 O 0.525 0.5397 0.51219 0.0
C829 C 0.61576 0.61212 0.58447 0.0
O830 O 0.59536 0.50907 0.47718 0.0
H831 H 0.75515 0.46143 0.55602 0.0
H832 H 0.44684 0.56718 0.56958 0.0
H833 H 0.67945 0.56669 0.45644 0.0
O834 O 0.57496 0.58978 0.60361 0.0
O835 O 0.63737 0.58837 0.55181 0.0
H836 H 0.51044 0.426 0.64012 0.0
O837 O 0.67932 0.49486 0.60957 0.0
O838 O 0.59975 0.48173 0.63933 0.0
O839 O 0.64074 0.41917 0.53362 0.0
O840 O 0.55584 0.43165 0.54833 0.0
C841 C 0.65101 0.4863 0.64466 0.0
H842 H 0.39721 0.50811 0.51491 0.0
H843 H 0.46713 0.36409 0.58541 0.0
H844 H 0.7989 0.54093 0.59278 0.0
H845 H 0.72272 0.6493 0.48926 0.0
C846 C 0.07508 0.55512 0.14004 0.0
N847 N 0.2037 0.46124 0.10989 0.0
C848 C 0.19769 0.45901 0.15619 0.0
C849 C 0.18978 0.40762 0.17829 0.0
C850 C 0.19229 0.36012 0.15217 0.0
C851 C 0.213 0.36441 0.10793 0.0
C852 C 0.22089 0.41611 0.08804 0.0
Zn853 Zn 0.14956 0.50752 0.07104 0.0
C854 C 1.03187 0.44745 0.06606 0.0
N855 N 1.02336 0.59221 0.99883 0.0
C856 C 1.00611 0.63078 0.02756 0.0
C857 C 1.04168 0.60799 0.95705 0.0
C858 C 0.06658 0.65971 0.9522 0.0
C859 C 0.06478 0.69586 0.98895 0.0
C860 C 1.03094 0.68232 0.02594 0.0
Zn861 Zn 0.08144 0.54884 0.03561 0.0
O862 O 0.12337 0.5412 0.13255 0.0
C863 C 0.19686 0.6096 0.03641 0.0
O864 O 0.04522 0.56792 0.10518 0.0
H865 H 0.04554 0.57776 0.93066 0.0
H866 H 0.19215 0.49636 0.17509 0.0
H867 H 0.98182 0.61876 0.05644 0.0
O868 O 0.2112 0.5671 0.06021 0.0
O869 O 0.14562 0.61809 0.02979 0.0
H870 H 0.23275 0.41859 0.05295 0.0
O871 O 0.11765 0.52583 0.97164 0.0
O872 O 0.18088 0.47774 0.00748 0.0
O873 O 1.02252 0.48664 0.03749 0.0
O874 O 0.08107 0.44159 0.08165 0.0
C875 C 0.16301 0.501 0.97079 0.0
H876 H 0.17745 0.4055 0.21355 0.0
H877 H 0.21848 0.32897 0.08679 0.0
H878 H 0.08849 0.67016 0.92149 0.0
H879 H 1.02465 0.71014 0.05376 0.0
loop_
_geom_bond_atom_site_label_1
_geom_bond_atom_site_label_2
_geom_bond_distance
_geom_bond_site_symmetry_2
_ccdc_geom_bond_type
Co0 O1 2.216 . S
Co0 O2 2.091 . S
Co0 O4 2.004 . S
Co0 O10 2.021 . S
Co0 O12 2.137 . S
Co0 O13 2.244 . S
O1 Co0 2.216 . S
O1 C8 1.247 . S
O2 Co0 2.091 . S
O2 C8 1.261 . S
C3 O12 1.247 . S
C3 O13 1.272 . S
O4 Co0 2.004 . S
O4 C9 1.259 . S
Co5 O6 2.061 . S
Co5 O11 2.052 . S
Co5 O13 2.135 . S
O6 Co5 2.061 . S
O6 C9 1.235 . S
C7 O10 1.238 . S
C7 O11 1.241 . S
C8 O1 1.247 . S
C8 O2 1.261 . S
C9 O4 1.259 . S
C9 O6 1.235 . S
O10 Co0 2.021 . S
O10 C7 1.238 . S
O11 Co5 2.052 . S
O11 C7 1.241 . S
O12 Co0 2.137 . S
O12 C3 1.247 . S
O13 Co0 2.244 . S
O13 C3 1.272 . S
O13 Co5 2.135 . S
Co14 O15 2.216 . S
Co14 O16 2.091 . S
Co14 O18 2.004 . S
Co14 O24 2.021 . S
Co14 O26 2.137 . S
Co14 O27 2.244 . S
O15 Co14 2.216 . S
O15 C22 1.247 . S
O16 Co14 2.091 . S
O16 C22 1.261 . S
C17 O26 1.247 . S
C17 O27 1.272 . S
O18 Co14 2.004 . S
O18 C23 1.259 1_455 S
Co19 O20 2.061 . S
Co19 O25 2.052 1_655 S
Co19 O27 2.135 1_655 S
O20 Co19 2.061 . S
O20 C23 1.235 . S
C21 O24 1.238 . S
C21 O25 1.241 . S
C22 O15 1.247 . S
C22 O16 1.261 . S
C23 O18 1.259 1_655 S
C23 O20 1.235 . S
O24 Co14 2.021 . S
O24 C21 1.238 . S
O25 Co19 2.052 1_455 S
O25 C21 1.241 . S
O26 Co14 2.137 . S
O26 C17 1.247 . S
O27 Co14 2.244 . S
O27 C17 1.272 . S
O27 Co19 2.135 1_455 S
Co28 O29 2.216 . S
Co28 O30 2.091 . S
Co28 O32 2.004 . S
Co28 O38 2.021 . S
Co28 O40 2.137 . S
Co28 O41 2.244 . S
O29 Co28 2.216 . S
O29 C36 1.247 . S
O30 Co28 2.091 . S
O30 C36 1.261 . S
C31 O40 1.247 . S
C31 O41 1.272 . S
O32 Co28 2.004 . S
O32 C37 1.259 . S
Co33 O34 2.061 . S
Co33 O39 2.052 . S
Co33 O41 2.135 . S
O34 Co33 2.061 . S
O34 C37 1.235 . S
C35 O38 1.238 . S
C35 O39 1.241 . S
C36 O29 1.247 . S
C36 O30 1.261 . S
C37 O32 1.259 . S
C37 O34 1.235 . S
O38 Co28 2.021 . S
O38 C35 1.238 . S
O39 Co33 2.052 . S
O39 C35 1.241 . S
O40 Co28 2.137 . S
O40 C31 1.247 . S
O41 Co28 2.244 . S
O41 C31 1.272 . S
O41 Co33 2.135 . S
Co42 O43 2.216 . S
Co42 O44 2.091 . S
Co42 O46 2.004 . S
Co42 O52 2.021 . S
Co42 O54 2.137 . S
Co42 O55 2.244 . S
O43 Co42 2.216 . S
O43 C50 1.247 . S
O44 Co42 2.091 . S
O44 C50 1.261 . S
C45 O54 1.247 . S
C45 O55 1.272 . S
O46 Co42 2.004 . S
O46 C51 1.259 . S
Co47 O48 2.061 . S
Co47 O53 2.052 . S
Co47 O55 2.135 . S
O48 Co47 2.061 . S
O48 C51 1.235 . S
C49 O52 1.238 . S
C49 O53 1.241 . S
C50 O43 1.247 . S
C50 O44 1.261 . S
C51 O46 1.259 . S
C51 O48 1.235 . S
O52 Co42 2.021 . S
O52 C49 1.238 . S
O53 Co47 2.052 . S
O53 C49 1.241 . S
O54 Co42 2.137 . S
O54 C45 1.247 . S
O55 Co42 2.244 . S
O55 C45 1.272 . S
O55 Co47 2.135 . S
Co56 O57 2.216 1_545 S
Co56 O58 2.091 1_545 S
Co56 O60 2.004 . S
Co56 O66 2.021 . S
Co56 O68 2.137 . S
Co56 O69 2.244 . S
O57 Co56 2.216 1_565 S
O57 C64 1.247 . S
O58 Co56 2.091 1_565 S
O58 C64 1.261 . S
C59 O68 1.247 . S
C59 O69 1.272 . S
O60 Co56 2.004 . S
O60 C65 1.259 . S
Co61 O62 2.061 . S
Co61 O67 2.052 . S
Co61 O69 2.135 . S
O62 Co61 2.061 . S
O62 C65 1.235 . S
C63 O66 1.238 . S
C63 O67 1.241 . S
C64 O57 1.247 . S
C64 O58 1.261 . S
C65 O60 1.259 . S
C65 O62 1.235 . S
O66 Co56 2.021 . S
O66 C63 1.238 . S
O67 Co61 2.052 . S
O67 C63 1.241 . S
O68 Co56 2.137 . S
O68 C59 1.247 . S
O69 Co56 2.244 . S
O69 C59 1.272 . S
O69 Co61 2.135 . S
Co70 O71 2.216 . S
Co70 O72 2.091 1_565 S
Co70 O74 2.004 . S
Co70 O80 2.021 . S
Co70 O82 2.137 . S
Co70 O83 2.244 . S
O71 Co70 2.216 . S
O71 C78 1.247 . S
O72 Co70 2.091 1_545 S
O72 C78 1.261 1_545 S
C73 O82 1.247 . S
C73 O83 1.272 . S
O74 Co70 2.004 . S
O74 C79 1.259 . S
Co75 O76 2.061 . S
Co75 O81 2.052 . S
Co75 O83 2.135 . S
O76 Co75 2.061 . S
O76 C79 1.235 . S
C77 O80 1.238 . S
C77 O81 1.241 . S
C78 O71 1.247 . S
C78 O72 1.261 1_565 S
C79 O74 1.259 . S
C79 O76 1.235 . S
O80 Co70 2.021 . S
O80 C77 1.238 . S
O81 Co75 2.052 . S
O81 C77 1.241 . S
O82 Co70 2.137 . S
O82 C73 1.247 . S
O83 Co70 2.244 . S
O83 C73 1.272 . S
O83 Co75 2.135 . S
Co84 O85 2.216 . S
Co84 O86 2.091 . S
Co84 O88 2.004 1_545 S
Co84 O94 2.021 . S
Co84 O96 2.137 . S
Co84 O97 2.250 . S
O85 Co84 2.216 . S
O85 C92 1.247 . S
O86 Co84 2.091 . S
O86 C92 1.261 . S
C87 O96 1.247 . S
C87 O97 1.277 . S
O88 Co84 2.004 1_565 S
O88 C93 1.259 . S
Co89 O90 2.061 . S
Co89 O95 2.052 . S
Co89 O97 2.120 1_565 S
O90 Co89 2.061 . S
O90 C93 1.235 . S
C91 O94 1.238 . S
C91 O95 1.241 1_545 S
C92 O85 1.247 . S
C92 O86 1.261 . S
C93 O88 1.259 . S
C93 O90 1.235 . S
O94 Co84 2.021 . S
O94 C91 1.238 . S
O95 Co89 2.052 . S
O95 C91 1.241 1_565 S
O96 Co84 2.137 . S
O96 C87 1.247 . S
O97 Co84 2.250 . S
O97 C87 1.277 . S
O97 Co89 2.120 1_545 S
Co98 O99 2.216 . S
Co98 O100 2.100 . S
Co98 O102 2.004 . S
Co98 O108 2.021 . S
Co98 O110 2.137 1_554 S
Co98 O111 2.244 . S
O99 Co98 2.216 . S
O99 C106 1.247 . S
O100 Co98 2.100 . S
O100 C106 1.269 . S
C101 O110 1.247 . S
C101 O111 1.272 1_556 S
O102 Co98 2.004 . S
O102 C107 1.259 . S
Co103 O104 2.061 . S
Co103 O109 2.052 . S
Co103 O111 2.135 . S
O104 Co103 2.061 . S
O104 C107 1.235 . S
C105 O108 1.238 . S
C105 O109 1.241 . S
C106 O99 1.247 . S
C106 O100 1.269 . S
C107 O102 1.259 . S
C107 O104 1.235 . S
O108 Co98 2.021 . S
O108 C105 1.238 . S
O109 Co103 2.052 . S
O109 C105 1.241 . S
O110 Co98 2.137 1_556 S
O110 C101 1.247 . S
O111 Co98 2.244 . S
O111 C101 1.272 1_554 S
O111 Co103 2.135 . S
Co112 O113 2.216 . S
Co112 O114 2.091 . S
Co112 O116 2.004 . S
Co112 O122 2.021 . S
Co112 O124 2.137 . S
Co112 O125 2.244 . S
O113 Co112 2.216 . S
O113 C120 1.247 . S
O114 Co112 2.091 . S
O114 C120 1.261 . S
C115 O124 1.247 . S
C115 O125 1.272 . S
O116 Co112 2.004 . S
O116 C121 1.259 . S
Co117 O118 2.061 . S
Co117 O123 2.052 . S
Co117 O125 2.135 . S
O118 Co117 2.061 . S
O118 C121 1.235 . S
C119 O122 1.238 . S
C119 O123 1.241 . S
C120 O113 1.247 . S
C120 O114 1.261 . S
C121 O116 1.259 . S
C121 O118 1.235 . S
O122 Co112 2.021 . S
O122 C119 1.238 . S
O123 Co117 2.052 . S
O123 C119 1.241 . S
O124 Co112 2.137 . S
O124 C115 1.247 . S
O125 Co112 2.244 . S
O125 C115 1.272 . S
O125 Co117 2.135 . S
Co126 O127 2.216 . S
Co126 O128 2.091 . S
Co126 O130 2.004 . S
Co126 O136 2.021 . S
Co126 O138 2.137 . S
Co126 O139 2.244 . S
O127 Co126 2.216 . S
O127 C134 1.247 . S
O128 Co126 2.091 . S
O128 C134 1.261 . S
C129 O138 1.247 . S
C129 O139 1.272 . S
O130 Co126 2.004 . S
O130 C135 1.259 . S
Co131 O132 2.061 . S
Co131 O137 2.052 . S
Co131 O139 2.134 . S
O132 Co131 2.061 . S
O132 C135 1.235 . S
C133 O136 1.238 . S
C133 O137 1.241 . S
C134 O127 1.247 . S
C134 O128 1.261 . S
C135 O130 1.259 . S
C135 O132 1.235 . S
O136 Co126 2.021 . S
O136 C133 1.238 . S
O137 Co131 2.052 . S
O137 C133 1.241 . S
O138 Co126 2.137 . S
O138 C129 1.247 . S
O139 Co126 2.244 . S
O139 C129 1.272 . S
O139 Co131 2.134 . S
Co140 O141 2.216 . S
Co140 O142 2.091 . S
Co140 O144 2.004 . S
Co140 O150 2.021 . S
Co140 O152 2.137 . S
Co140 O153 2.244 . S
O141 Co140 2.216 . S
O141 C148 1.247 . S
O142 Co140 2.091 . S
O142 C148 1.261 . S
C143 O152 1.247 . S
C143 O153 1.272 . S
O144 Co140 2.004 . S
O144 C149 1.259 . S
Co145 O146 2.061 . S
Co145 O151 2.052 . S
Co145 O153 2.135 . S
O146 Co145 2.061 . S
O146 C149 1.235 . S
C147 O150 1.238 . S
C147 O151 1.241 . S
C148 O141 1.247 . S
C148 O142 1.261 . S
C149 O144 1.259 . S
C149 O146 1.235 . S
O150 Co140 2.021 . S
O150 C147 1.238 . S
O151 Co145 2.052 . S
O151 C147 1.241 . S
O152 Co140 2.137 . S
O152 C143 1.247 . S
O153 Co140 2.244 . S
O153 C143 1.272 . S
O153 Co145 2.135 . S
Co154 O155 2.216 . S
Co154 O156 2.091 . S
Co154 O158 2.004 . S
Co154 O164 2.021 . S
Co154 O166 2.137 . S
Co154 O167 2.244 . S
O155 Co154 2.216 . S
O155 C162 1.247 . S
O156 Co154 2.091 . S
O156 C162 1.261 . S
C157 O166 1.247 . S
C157 O167 1.272 . S
O158 Co154 2.004 . S
O158 C163 1.259 . S
Co159 O160 2.061 . S
Co159 O165 2.052 . S
Co159 O167 2.135 . S
O160 Co159 2.061 . S
O160 C163 1.235 . S
C161 O164 1.238 . S
C161 O165 1.241 . S
C162 O155 1.247 . S
C162 O156 1.261 . S
C163 O158 1.259 . S
C163 O160 1.235 . S
O164 Co154 2.021 . S
O164 C161 1.238 . S
O165 Co159 2.052 . S
O165 C161 1.241 . S
O166 Co154 2.137 . S
O166 C157 1.247 . S
O167 Co154 2.244 . S
O167 C157 1.272 . S
O167 Co159 2.135 . S
Co168 O169 2.216 . S
Co168 O170 2.091 . S
Co168 O172 2.004 1_455 S
Co168 O178 2.021 . S
Co168 O180 2.137 . S
Co168 O181 2.244 1_455 S
O169 Co168 2.216 . S
O169 C176 1.247 . S
O170 Co168 2.091 . S
O170 C176 1.261 . S
C171 O180 1.248 . S
C171 O181 1.271 1_455 S
O172 Co168 2.004 1_655 S
O172 C177 1.259 . S
Co173 O174 2.061 . S
Co173 O179 2.052 . S
Co173 O181 2.135 . S
O174 Co173 2.061 . S
O174 C177 1.235 . S
C175 O178 1.238 1_655 S
C175 O179 1.241 . S
C176 O169 1.247 . S
C176 O170 1.261 . S
C177 O172 1.259 . S
C177 O174 1.235 . S
O178 Co168 2.021 . S
O178 C175 1.238 1_455 S
O179 Co173 2.052 . S
O179 C175 1.241 . S
O180 Co168 2.137 . S
O180 C171 1.248 . S
O181 Co168 2.244 1_655 S
O181 C171 1.271 1_655 S
O181 Co173 2.135 . S
Co182 O183 2.216 1_455 S
Co182 O184 2.091 . S
Co182 O186 2.004 . S
Co182 O192 2.021 . S
Co182 O194 2.137 . S
Co182 O195 2.244 . S
O183 Co182 2.216 1_655 S
O183 C190 1.247 . S
O184 Co182 2.091 . S
O184 C190 1.261 1_455 S
C185 O194 1.247 . S
C185 O195 1.272 . S
O186 Co182 2.004 . S
O186 C191 1.259 . S
Co187 O188 2.061 . S
Co187 O193 2.052 . S
Co187 O195 2.135 . S
O188 Co187 2.061 . S
O188 C191 1.235 . S
C189 O192 1.238 . S
C189 O193 1.241 . S
C190 O183 1.247 . S
C190 O184 1.261 1_655 S
C191 O186 1.259 . S
C191 O188 1.235 . S
O192 Co182 2.021 . S
O192 C189 1.238 . S
O193 Co187 2.052 . S
O193 C189 1.241 . S
O194 Co182 2.137 . S
O194 C185 1.247 . S
O195 Co182 2.244 . S
O195 C185 1.272 . S
O195 Co187 2.135 . S
Co196 O197 2.216 . S
Co196 O198 2.091 . S
Co196 O200 2.004 . S
Co196 O206 2.021 . S
Co196 O208 2.137 . S
Co196 O209 2.244 . S
O197 Co196 2.216 . S
O197 C204 1.247 . S
O198 Co196 2.091 . S
O198 C204 1.261 . S
C199 O208 1.247 . S
C199 O209 1.272 . S
O200 Co196 2.004 . S
O200 C205 1.259 . S
Co201 O202 2.061 . S
Co201 O207 2.052 . S
Co201 O209 2.135 . S
O202 Co201 2.061 . S
O202 C205 1.235 . S
C203 O206 1.238 . S
C203 O207 1.241 . S
C204 O197 1.247 . S
C204 O198 1.261 . S
C205 O200 1.259 . S
C205 O202 1.235 . S
O206 Co196 2.021 . S
O206 C203 1.238 . S
O207 Co201 2.052 . S
O207 C203 1.241 . S
O208 Co196 2.137 . S
O208 C199 1.247 . S
O209 Co196 2.244 . S
O209 C199 1.272 . S
O209 Co201 2.135 . S
Co210 O211 2.216 . S
Co210 O212 2.091 . S
Co210 O214 2.004 . S
Co210 O220 2.021 . S
Co210 O222 2.137 . S
Co210 O223 2.244 . S
O211 Co210 2.216 . S
O211 C218 1.247 . S
O212 Co210 2.091 . S
O212 C218 1.261 . S
C213 O222 1.247 . S
C213 O223 1.272 . S
O214 Co210 2.004 . S
O214 C219 1.259 . S
Co215 O216 2.061 . S
Co215 O221 2.052 . S
Co215 O223 2.135 . S
O216 Co215 2.061 . S
O216 C219 1.235 . S
C217 O220 1.238 . S
C217 O221 1.241 . S
C218 O211 1.247 . S
C218 O212 1.261 . S
C219 O214 1.259 . S
C219 O216 1.235 . S
O220 Co210 2.021 . S
O220 C217 1.238 . S
O221 Co215 2.052 . S
O221 C217 1.241 . S
O222 Co210 2.137 . S
O222 C213 1.247 . S
O223 Co210 2.244 . S
O223 C213 1.272 . S
O223 Co215 2.135 . S
Co224 O225 2.216 . S
Co224 O226 2.091 . S
Co224 O228 2.004 1_545 S
Co224 O234 2.021 . S
Co224 O236 2.137 . S
Co224 O237 2.244 1_645 S
O225 Co224 2.216 . S
O225 C232 1.247 . S
O226 Co224 2.091 . S
O226 C232 1.261 . S
C227 O236 1.247 1_565 S
C227 O237 1.272 1_655 S
O228 Co224 2.004 1_565 S
O228 C233 1.259 . S
Co229 O230 2.061 1_455 S
Co229 O235 2.052 . S
Co229 O237 2.135 . S
O230 Co229 2.061 1_655 S
O230 C233 1.235 . S
C231 O234 1.238 1_565 S
C231 O235 1.241 1_655 S
C232 O225 1.247 . S
C232 O226 1.261 . S
C233 O228 1.259 . S
C233 O230 1.235 . S
O234 Co224 2.021 . S
O234 C231 1.238 1_545 S
O235 Co229 2.052 . S
O235 C231 1.241 1_455 S
O236 Co224 2.137 . S
O236 C227 1.247 1_545 S
O237 Co224 2.244 1_465 S
O237 C227 1.272 1_455 S
O237 Co229 2.135 . S
Co238 O239 2.216 . S
Co238 O240 2.091 . S
Co238 O242 2.004 . S
Co238 O248 2.021 . S
Co238 O250 2.137 . S
Co238 O251 2.244 . S
O239 Co238 2.216 . S
O239 C246 1.247 . S
O240 Co238 2.091 . S
O240 C246 1.261 . S
C241 O250 1.247 . S
C241 O251 1.272 . S
O242 Co238 2.004 . S
O242 C247 1.259 . S
Co243 O244 2.061 . S
Co243 O249 2.052 . S
Co243 O251 2.135 . S
O244 Co243 2.061 . S
O244 C247 1.235 . S
C245 O248 1.238 . S
C245 O249 1.241 . S
C246 O239 1.247 . S
C246 O240 1.261 . S
C247 O242 1.259 . S
C247 O244 1.235 . S
O248 Co238 2.021 . S
O248 C245 1.238 . S
O249 Co243 2.052 . S
O249 C245 1.241 . S
O250 Co238 2.137 . S
O250 C241 1.247 . S
O251 Co238 2.244 . S
O251 C241 1.272 . S
O251 Co243 2.135 . S
Co252 O253 2.216 1_545 S
Co252 O254 2.091 1_545 S
Co252 O256 2.004 . S
Co252 O262 2.021 . S
Co252 O264 2.137 . S
Co252 O265 2.244 . S
O253 Co252 2.216 1_565 S
O253 C260 1.247 . S
O254 Co252 2.091 1_565 S
O254 C260 1.261 . S
C255 O264 1.247 . S
C255 O265 1.272 . S
O256 Co252 2.004 . S
O256 C261 1.259 . S
Co257 O258 2.061 . S
Co257 O263 2.052 . S
Co257 O265 2.135 . S
O258 Co257 2.061 . S
O258 C261 1.235 . S
C259 O262 1.238 . S
C259 O263 1.241 . S
C260 O253 1.247 . S
C260 O254 1.261 . S
C261 O256 1.259 . S
C261 O258 1.235 . S
O262 Co252 2.021 . S
O262 C259 1.238 . S
O263 Co257 2.052 . S
O263 C259 1.241 . S
O264 Co252 2.137 . S
O264 C255 1.247 . S
O265 Co252 2.244 . S
O265 C255 1.272 . S
O265 Co257 2.135 . S
Co266 O267 2.216 . S
Co266 O268 2.091 1_565 S
Co266 O270 2.004 1_565 S
Co266 O276 2.021 . S
Co266 O278 2.137 1_554 S
Co266 O279 2.244 . S
O267 Co266 2.216 . S
O267 C274 1.247 1_565 S
O268 Co266 2.091 1_545 S
O268 C274 1.261 . S
C269 O278 1.247 . S
C269 O279 1.272 1_556 S
O270 Co266 2.004 1_545 S
O270 C275 1.259 1_545 S
Co271 O272 2.061 . S
Co271 O277 2.052 . S
Co271 O279 2.135 . S
O272 Co271 2.061 . S
O272 C275 1.235 . S
C273 O276 1.238 . S
C273 O277 1.241 . S
C274 O267 1.247 1_545 S
C274 O268 1.261 . S
C275 O270 1.259 1_565 S
C275 O272 1.235 . S
O276 Co266 2.021 . S
O276 C273 1.238 . S
O277 Co271 2.052 . S
O277 C273 1.241 . S
O278 Co266 2.137 1_556 S
O278 C269 1.247 . S
O279 Co266 2.244 . S
O279 C269 1.272 1_554 S
O279 Co271 2.135 . S
Co280 O281 2.216 1_556 S
Co280 O282 2.091 1_556 S
Co280 O284 2.004 . S
Co280 O290 2.021 1_556 S
Co280 O292 2.137 . S
Co280 O293 2.244 . S
O281 Co280 2.216 1_554 S
O281 C288 1.248 . S
O282 Co280 2.091 1_554 S
O282 C288 1.261 . S
C283 O292 1.247 . S
C283 O293 1.272 . S
O284 Co280 2.004 . S
O284 C289 1.259 . S
Co285 O286 2.063 . S
Co285 O291 2.052 1_556 S
Co285 O293 2.135 . S
O286 Co285 2.063 . S
O286 C289 1.237 . S
C287 O290 1.238 . S
C287 O291 1.241 . S
C288 O281 1.248 . S
C288 O282 1.261 . S
C289 O284 1.259 . S
C289 O286 1.237 . S
O290 Co280 2.021 1_554 S
O290 C287 1.238 . S
O291 Co285 2.052 1_554 S
O291 C287 1.241 . S
O292 Co280 2.137 . S
O292 C283 1.247 . S
O293 Co280 2.244 . S
O293 C283 1.272 . S
O293 Co285 2.135 . S
Co294 O295 2.216 . S
Co294 O296 2.091 . S
Co294 O298 2.004 . S
Co294 O304 2.021 . S
Co294 O306 2.137 . S
Co294 O307 2.244 . S
O295 Co294 2.216 . S
O295 C302 1.247 . S
O296 Co294 2.091 . S
O296 C302 1.261 . S
C297 O306 1.247 . S
C297 O307 1.272 . S
O298 Co294 2.004 . S
O298 C303 1.259 . S
Co299 O300 2.061 . S
Co299 O305 2.052 . S
Co299 O307 2.135 . S
O300 Co299 2.061 . S
O300 C303 1.235 . S
C301 O304 1.238 . S
C301 O305 1.241 . S
C302 O295 1.247 . S
C302 O296 1.261 . S
C303 O298 1.259 . S
C303 O300 1.235 . S
O304 Co294 2.021 . S
O304 C301 1.238 . S
O305 Co299 2.052 . S
O305 C301 1.241 . S
O306 Co294 2.137 . S
O306 C297 1.247 . S
O307 Co294 2.244 . S
O307 C297 1.272 . S
O307 Co299 2.135 . S
Co308 O309 2.216 . S
Co308 O310 2.091 . S
Co308 O312 2.004 . S
Co308 O318 2.021 . S
Co308 O320 2.137 . S
Co308 O321 2.244 . S
O309 Co308 2.216 . S
O309 C316 1.247 . S
O310 Co308 2.091 . S
O310 C316 1.261 . S
C311 O320 1.247 . S
C311 O321 1.272 . S
O312 Co308 2.004 . S
O312 C317 1.259 . S
Co313 O314 2.061 . S
Co313 O319 2.052 . S
Co313 O321 2.135 . S
O314 Co313 2.061 . S
O314 C317 1.235 . S
C315 O318 1.238 . S
C315 O319 1.241 . S
C316 O309 1.247 . S
C316 O310 1.261 . S
C317 O312 1.259 . S
C317 O314 1.235 . S
O318 Co308 2.021 . S
O318 C315 1.238 . S
O319 Co313 2.052 . S
O319 C315 1.241 . S
O320 Co308 2.137 . S
O320 C311 1.247 . S
O321 Co308 2.244 . S
O321 C311 1.272 . S
O321 Co313 2.135 . S
Co322 O323 2.216 . S
Co322 O324 2.091 . S
Co322 O326 2.004 . S
Co322 O332 2.021 . S
Co322 O334 2.137 . S
Co322 O335 2.244 . S
O323 Co322 2.216 . S
O323 C330 1.247 . S
O324 Co322 2.091 . S
O324 C330 1.261 . S
C325 O334 1.247 . S
C325 O335 1.272 . S
O326 Co322 2.004 . S
O326 C331 1.259 . S
Co327 O328 2.061 . S
Co327 O333 2.052 . S
Co327 O335 2.135 . S
O328 Co327 2.061 . S
O328 C331 1.235 . S
C329 O332 1.238 . S
C329 O333 1.241 . S
C330 O323 1.247 . S
C330 O324 1.261 . S
C331 O326 1.259 . S
C331 O328 1.235 . S
O332 Co322 2.021 . S
O332 C329 1.238 . S
O333 Co327 2.052 . S
O333 C329 1.241 . S
O334 Co322 2.137 . S
O334 C325 1.247 . S
O335 Co322 2.244 . S
O335 C325 1.272 . S
O335 Co327 2.135 . S
C336 O352 1.255 . S
C336 O354 1.254 . S
N337 C338 1.333 . S
N337 C342 1.307 1_545 S
N337 Zn343 2.020 1_655 S
C338 N337 1.333 . S
C338 C339 1.379 . S
C338 H356 0.952 . S
C339 C338 1.379 . S
C339 C340 1.390 1_545 S
C339 H366 0.949 . S
C340 C339 1.390 1_565 S
C340 C341 1.357 . S
C341 C340 1.357 . S
C341 C342 1.370 . S
C341 H367 0.950 . S
C342 N337 1.307 1_565 S
C342 C341 1.370 . S
C342 H360 0.948 . S
Zn343 N337 2.020 1_455 S
Zn343 O352 2.040 1_554 S
Zn343 O358 2.034 . S
Zn343 O362 2.025 1_545 S
Zn343 O364 2.024 1_545 S
C344 O363 1.246 . S
C344 O364 1.249 . S
N345 C346 1.307 1_554 S
N345 C347 1.333 . S
N345 Zn351 2.020 . S
C346 N345 1.307 1_556 S
C346 C350 1.370 . S
C346 H357 0.948 . S
C347 N345 1.333 . S
C347 C348 1.379 . S
C347 H355 0.952 1_545 S
C348 C347 1.379 . S
C348 C349 1.406 . S
C348 H368 0.949 1_545 S
C349 C348 1.406 . S
C349 C350 1.349 1_554 S
C350 C346 1.370 . S
C350 C349 1.349 1_556 S
C350 H369 0.950 . S
Zn351 N345 2.020 . S
Zn351 O354 2.025 1_554 S
Zn351 O359 2.024 . S
Zn351 O361 2.039 1_545 S
Zn351 O363 2.034 1_545 S
O352 C336 1.255 . S
O352 Zn343 2.040 1_556 S
C353 O358 1.246 . S
C353 O359 1.249 . S
O354 C336 1.254 . S
O354 Zn351 2.025 1_556 S
H355 C347 0.952 1_565 S
H356 C338 0.952 . S
H357 C346 0.948 . S
O358 Zn343 2.034 . S
O358 C353 1.246 . S
O359 Zn351 2.024 . S
O359 C353 1.249 . S
H360 C342 0.948 . S
O361 Zn351 2.039 1_565 S
O361 C365 1.251 . S
O362 Zn343 2.025 1_565 S
O362 C365 1.254 . S
O363 C344 1.246 . S
O363 Zn351 2.034 1_565 S
O364 Zn343 2.024 1_565 S
O364 C344 1.249 . S
C365 O361 1.251 . S
C365 O362 1.254 . S
H366 C339 0.949 . S
H367 C341 0.950 . S
H368 C348 0.949 1_565 S
H369 C350 0.950 . S
C370 O386 1.251 . S
C370 O388 1.254 . S
N371 C372 1.333 . S
N371 C376 1.307 . S
N371 Zn377 2.020 . S
C372 N371 1.333 . S
C372 C373 1.379 . S
C372 H390 0.952 . S
C373 C372 1.379 . S
C373 C374 1.390 . S
C373 H400 0.949 . S
C374 C373 1.390 . S
C374 C375 1.357 . S
C375 C374 1.357 . S
C375 C376 1.370 . S
C375 H401 0.950 . S
C376 N371 1.307 . S
C376 C375 1.370 . S
C376 H394 0.948 . S
Zn377 N371 2.020 . S
Zn377 O386 2.039 . S
Zn377 O392 2.034 . S
Zn377 O396 2.025 . S
Zn377 O398 2.024 . S
C378 O397 1.246 . S
C378 O398 1.249 . S
N379 C380 1.307 . S
N379 C381 1.333 . S
N379 Zn385 2.020 . S
C380 N379 1.307 . S
C380 C384 1.370 . S
C380 H391 0.948 . S
C381 N379 1.333 . S
C381 C382 1.379 . S
C381 H389 0.952 . S
C382 C381 1.379 . S
C382 C383 1.390 . S
C382 H402 0.949 . S
C383 C382 1.390 . S
C383 C384 1.357 . S
C384 C380 1.370 . S
C384 C383 1.357 . S
C384 H403 0.950 . S
Zn385 N379 2.020 . S
Zn385 O388 2.025 . S
Zn385 O393 2.024 . S
Zn385 O395 2.039 . S
Zn385 O397 2.034 . S
O386 C370 1.251 . S
O386 Zn377 2.039 . S
C387 O392 1.246 . S
C387 O393 1.249 . S
O388 C370 1.254 . S
O388 Zn385 2.025 . S
H389 C381 0.952 . S
H390 C372 0.952 . S
H391 C380 0.948 . S
O392 Zn377 2.034 . S
O392 C387 1.246 . S
O393 Zn385 2.024 . S
O393 C387 1.249 . S
H394 C376 0.948 . S
O395 Zn385 2.039 . S
O395 C399 1.251 . S
O396 Zn377 2.025 . S
O396 C399 1.254 . S
O397 C378 1.246 . S
O397 Zn385 2.034 . S
O398 Zn377 2.024 . S
O398 C378 1.249 . S
C399 O395 1.251 . S
C399 O396 1.254 . S
H400 C373 0.949 . S
H401 C375 0.950 . S
H402 C382 0.949 . S
H403 C384 0.950 . S
C404 O420 1.251 1_545 S
C404 O422 1.254 . S
N405 C406 1.333 . S
N405 C410 1.307 . S
N405 Zn411 2.020 . S
C406 N405 1.333 . S
C406 C407 1.379 . S
C406 H424 0.952 . S
C407 C406 1.379 . S
C407 C408 1.390 . S
C407 H434 0.949 . S
C408 C407 1.390 . S
C408 C409 1.357 . S
C409 C408 1.357 . S
C409 C410 1.370 . S
C409 H435 0.950 . S
C410 N405 1.307 . S
C410 C409 1.370 . S
C410 H428 0.948 . S
Zn411 N405 2.020 . S
Zn411 O420 2.039 . S
Zn411 O426 2.034 1_565 S
Zn411 O430 2.025 . S
Zn411 O432 2.024 . S
C412 O431 1.246 1_565 S
C412 O432 1.249 . S
N413 C414 1.307 . S
N413 C415 1.333 . S
N413 Zn419 2.020 . S
C414 N413 1.307 . S
C414 C418 1.370 . S
C414 H425 0.948 . S
C415 N413 1.333 . S
C415 C416 1.379 . S
C415 H423 0.952 . S
C416 C415 1.379 . S
C416 C417 1.390 . S
C416 H436 0.949 . S
C417 C416 1.390 . S
C417 C418 1.357 . S
C418 C414 1.370 . S
C418 C417 1.357 . S
C418 H437 0.950 . S
Zn419 N413 2.020 . S
Zn419 O422 2.025 . S
Zn419 O427 2.024 . S
Zn419 O429 2.039 . S
Zn419 O431 2.034 . S
O420 C404 1.251 1_565 S
O420 Zn411 2.039 . S
C421 O426 1.246 . S
C421 O427 1.249 . S
O422 C404 1.254 . S
O422 Zn419 2.025 . S
H423 C415 0.952 . S
H424 C406 0.952 . S
H425 C414 0.948 . S
O426 Zn411 2.034 1_545 S
O426 C421 1.246 . S
O427 Zn419 2.024 . S
O427 C421 1.249 . S
H428 C410 0.948 . S
O429 Zn419 2.039 . S
O429 C433 1.251 1_545 S
O430 Zn411 2.025 . S
O430 C433 1.254 . S
O431 C412 1.246 1_545 S
O431 Zn419 2.034 . S
O432 Zn411 2.024 . S
O432 C412 1.249 . S
C433 O429 1.251 1_565 S
C433 O430 1.254 . S
H434 C407 0.949 . S
H435 C409 0.950 . S
H436 C416 0.949 . S
H437 C418 0.950 . S
C438 O454 1.251 . S
C438 O456 1.254 . S
N439 C440 1.333 . S
N439 C444 1.307 . S
N439 Zn445 2.020 . S
C440 N439 1.333 . S
C440 C441 1.379 . S
C440 H458 0.952 . S
C441 C440 1.379 . S
C441 C442 1.390 . S
C441 H468 0.949 . S
C442 C441 1.390 . S
C442 C443 1.357 . S
C443 C442 1.357 . S
C443 C444 1.370 . S
C443 H469 0.950 1_556 S
C444 N439 1.307 . S
C444 C443 1.370 . S
C444 H462 0.948 . S
Zn445 N439 2.020 . S
Zn445 O454 2.039 . S
Zn445 O460 2.034 . S
Zn445 O464 2.025 . S
Zn445 O466 2.024 . S
C446 O465 1.246 . S
C446 O466 1.249 . S
N447 C448 1.307 . S
N447 C449 1.333 . S
N447 Zn453 2.020 . S
C448 N447 1.307 . S
C448 C452 1.370 . S
C448 H459 0.948 . S
C449 N447 1.333 . S
C449 C450 1.379 . S
C449 H457 0.952 . S
C450 C449 1.379 . S
C450 C451 1.390 . S
C450 H470 0.949 . S
C451 C450 1.390 . S
C451 C452 1.357 . S
C452 C448 1.370 . S
C452 C451 1.357 . S
C452 H471 0.950 . S
Zn453 N447 2.020 . S
Zn453 O456 2.025 . S
Zn453 O461 2.024 . S
Zn453 O463 2.039 . S
Zn453 O465 2.034 . S
O454 C438 1.251 . S
O454 Zn445 2.039 . S
C455 O460 1.246 . S
C455 O461 1.249 . S
O456 C438 1.254 . S
O456 Zn453 2.025 . S
H457 C449 0.952 . S
H458 C440 0.952 . S
H459 C448 0.948 . S
O460 Zn445 2.034 . S
O460 C455 1.246 . S
O461 Zn453 2.024 . S
O461 C455 1.249 . S
H462 C444 0.948 . S
O463 Zn453 2.039 . S
O463 C467 1.251 . S
O464 Zn445 2.025 . S
O464 C467 1.254 . S
O465 C446 1.246 . S
O465 Zn453 2.034 . S
O466 Zn445 2.024 . S
O466 C446 1.249 . S
C467 O463 1.251 . S
C467 O464 1.254 . S
H468 C441 0.949 . S
H469 C443 0.950 1_554 S
H470 C450 0.949 . S
H471 C452 0.950 . S
C472 O488 1.251 1_565 S
C472 O490 1.254 . S
N473 C474 1.333 . S
N473 C478 1.307 . S
N473 Zn479 2.020 . S
C474 N473 1.333 . S
C474 C475 1.379 . S
C474 H492 0.952 . S
C475 C474 1.379 . S
C475 C476 1.390 . S
C475 H502 0.949 . S
C476 C475 1.390 . S
C476 C477 1.357 . S
C477 C476 1.357 . S
C477 C478 1.370 . S
C477 H503 0.950 . S
C478 N473 1.307 . S
C478 C477 1.370 . S
C478 H496 0.948 . S
Zn479 N473 2.020 . S
Zn479 O488 2.039 . S
Zn479 O494 2.034 . S
Zn479 O498 2.025 . S
Zn479 O500 2.024 1_545 S
C480 O499 1.246 . S
C480 O500 1.249 . S
N481 C482 1.307 . S
N481 C483 1.333 1_455 S
N481 Zn487 2.020 1_565 S
C482 N481 1.307 . S
C482 C486 1.370 . S
C482 H493 0.948 . S
C483 N481 1.333 1_655 S
C483 C484 1.379 . S
C483 H491 0.952 . S
C484 C483 1.379 . S
C484 C485 1.390 . S
C484 H504 0.949 . S
C485 C484 1.390 . S
C485 C486 1.357 1_655 S
C486 C482 1.370 . S
C486 C485 1.357 1_455 S
C486 H505 0.950 . S
Zn487 N481 2.020 1_545 S
Zn487 O490 2.025 1_545 S
Zn487 O495 2.024 . S
Zn487 O497 2.039 1_455 S
Zn487 O499 2.034 1_545 S
O488 C472 1.251 1_545 S
O488 Zn479 2.039 . S
C489 O494 1.246 . S
C489 O495 1.249 . S
O490 C472 1.254 . S
O490 Zn487 2.025 1_565 S
H491 C483 0.952 . S
H492 C474 0.952 . S
H493 C482 0.948 . S
O494 Zn479 2.034 . S
O494 C489 1.246 . S
O495 Zn487 2.024 . S
O495 C489 1.249 . S
H496 C478 0.948 . S
O497 Zn487 2.039 1_655 S
O497 C501 1.251 . S
O498 Zn479 2.025 . S
O498 C501 1.254 1_455 S
O499 C480 1.246 . S
O499 Zn487 2.034 1_565 S
O500 Zn479 2.024 1_565 S
O500 C480 1.249 . S
C501 O497 1.251 . S
C501 O498 1.254 1_655 S
H502 C475 0.949 . S
H503 C477 0.950 . S
H504 C484 0.949 . S
H505 C486 0.950 . S
C506 O522 1.251 . S
C506 O524 1.254 . S
N507 C508 1.333 . S
N507 C512 1.307 . S
N507 Zn513 2.020 . S
C508 N507 1.333 . S
C508 C509 1.379 . S
C508 H526 0.952 . S
C509 C508 1.379 . S
C509 C510 1.390 . S
C509 H536 0.949 . S
C510 C509 1.390 . S
C510 C511 1.357 . S
C511 C510 1.357 . S
C511 C512 1.370 . S
C511 H537 0.950 . S
C512 N507 1.307 . S
C512 C511 1.370 . S
C512 H530 0.948 . S
Zn513 N507 2.020 . S
Zn513 O522 2.039 . S
Zn513 O528 2.034 . S
Zn513 O532 2.025 . S
Zn513 O534 2.024 . S
C514 O533 1.246 . S
C514 O534 1.249 . S
N515 C516 1.307 . S
N515 C517 1.333 . S
N515 Zn521 2.020 . S
C516 N515 1.307 . S
C516 C520 1.370 . S
C516 H527 0.948 . S
C517 N515 1.333 . S
C517 C518 1.379 . S
C517 H525 0.952 . S
C518 C517 1.379 . S
C518 C519 1.390 . S
C518 H538 0.949 . S
C519 C518 1.390 . S
C519 C520 1.357 . S
C520 C516 1.370 . S
C520 C519 1.357 . S
C520 H539 0.950 . S
Zn521 N515 2.020 . S
Zn521 O524 2.025 . S
Zn521 O529 2.024 . S
Zn521 O531 2.039 . S
Zn521 O533 2.034 . S
O522 C506 1.251 . S
O522 Zn513 2.039 . S
C523 O528 1.246 . S
C523 O529 1.249 . S
O524 C506 1.254 . S
O524 Zn521 2.025 . S
H525 C517 0.952 . S
H526 C508 0.952 . S
H527 C516 0.948 . S
O528 Zn513 2.034 . S
O528 C523 1.246 . S
O529 Zn521 2.024 . S
O529 C523 1.249 . S
H530 C512 0.948 . S
O531 Zn521 2.039 . S
O531 C535 1.251 . S
O532 Zn513 2.025 . S
O532 C535 1.254 . S
O533 C514 1.246 . S
O533 Zn521 2.034 . S
O534 Zn513 2.024 . S
O534 C514 1.249 . S
C535 O531 1.251 . S
C535 O532 1.254 . S
H536 C509 0.949 . S
H537 C511 0.950 . S
H538 C518 0.949 . S
H539 C520 0.950 . S
C540 O556 1.251 . S
C540 O558 1.254 . S
N541 C542 1.333 . S
N541 C546 1.307 . S
N541 Zn547 2.020 . S
C542 N541 1.333 . S
C542 C543 1.379 . S
C542 H560 0.952 . S
C543 C542 1.379 . S
C543 C544 1.390 . S
C543 H570 0.949 . S
C544 C543 1.390 . S
C544 C545 1.357 . S
C545 C544 1.357 . S
C545 C546 1.370 . S
C545 H571 0.950 . S
C546 N541 1.307 . S
C546 C545 1.370 . S
C546 H564 0.948 . S
Zn547 N541 2.020 . S
Zn547 O556 2.039 1_545 S
Zn547 O562 2.034 . S
Zn547 O566 2.025 . S
Zn547 O568 2.024 . S
C548 O567 1.246 . S
C548 O568 1.249 1_565 S
N549 C550 1.307 . S
N549 C551 1.333 1_565 S
N549 Zn555 2.014 1_566 S
C550 N549 1.307 . S
C550 C554 1.370 . S
C550 H561 0.948 . S
C551 N549 1.333 1_545 S
C551 C552 1.379 1_545 S
C551 H559 0.952 . S
C552 C551 1.379 1_565 S
C552 C553 1.390 . S
C552 H572 0.949 1_565 S
C553 C552 1.390 . S
C553 C554 1.357 . S
C554 C550 1.370 . S
C554 C553 1.357 . S
C554 H573 0.950 . S
Zn555 N549 2.014 1_544 S
Zn555 O558 2.011 1_545 S
Zn555 O563 2.030 . S
Zn555 O565 2.056 1_554 S
Zn555 O567 2.031 1_545 S
O556 C540 1.251 . S
O556 Zn547 2.039 1_565 S
C557 O562 1.246 . S
C557 O563 1.249 . S
O558 C540 1.254 . S
O558 Zn555 2.011 1_565 S
H559 C551 0.952 . S
H560 C542 0.952 . S
H561 C550 0.948 . S
O562 Zn547 2.034 . S
O562 C557 1.246 . S
O563 Zn555 2.030 . S
O563 C557 1.249 . S
H564 C546 0.948 . S
O565 Zn555 2.056 1_556 S
O565 C569 1.251 1_556 S
O566 Zn547 2.025 . S
O566 C569 1.254 . S
O567 C548 1.246 . S
O567 Zn555 2.031 1_565 S
O568 Zn547 2.024 . S
O568 C548 1.249 1_545 S
C569 O565 1.251 1_554 S
C569 O566 1.254 . S
H570 C543 0.949 . S
H571 C545 0.950 . S
H572 C552 0.949 1_545 S
H573 C554 0.950 . S
C574 O590 1.251 . S
C574 O592 1.254 . S
N575 C576 1.333 . S
N575 C580 1.307 . S
N575 Zn581 2.020 . S
C576 N575 1.333 . S
C576 C577 1.379 . S
C576 H594 0.952 . S
C577 C576 1.379 . S
C577 C578 1.390 . S
C577 H604 0.949 . S
C578 C577 1.390 . S
C578 C579 1.357 . S
C579 C578 1.357 . S
C579 C580 1.370 . S
C579 H605 0.950 . S
C580 N575 1.307 . S
C580 C579 1.370 . S
C580 H598 0.948 . S
Zn581 N575 2.020 . S
Zn581 O590 2.039 . S
Zn581 O596 2.034 . S
Zn581 O600 2.025 . S
Zn581 O602 2.024 . S
C582 O601 1.246 . S
C582 O602 1.249 . S
N583 C584 1.307 . S
N583 C585 1.333 . S
N583 Zn589 2.020 . S
C584 N583 1.307 . S
C584 C588 1.370 . S
C584 H595 0.948 . S
C585 N583 1.333 . S
C585 C586 1.379 . S
C585 H593 0.952 . S
C586 C585 1.379 . S
C586 C587 1.390 . S
C586 H606 0.949 . S
C587 C586 1.390 . S
C587 C588 1.357 . S
C588 C584 1.370 . S
C588 C587 1.357 . S
C588 H607 0.950 . S
Zn589 N583 2.020 . S
Zn589 O592 2.025 . S
Zn589 O597 2.024 . S
Zn589 O599 2.039 . S
Zn589 O601 2.034 . S
O590 C574 1.251 . S
O590 Zn581 2.039 . S
C591 O596 1.246 . S
C591 O597 1.249 . S
O592 C574 1.254 . S
O592 Zn589 2.025 . S
H593 C585 0.952 . S
H594 C576 0.952 . S
H595 C584 0.948 . S
O596 Zn581 2.034 . S
O596 C591 1.246 . S
O597 Zn589 2.024 . S
O597 C591 1.249 . S
H598 C580 0.948 . S
O599 Zn589 2.039 . S
O599 C603 1.251 . S
O600 Zn581 2.025 . S
O600 C603 1.254 . S
O601 C582 1.246 . S
O601 Zn589 2.034 . S
O602 Zn581 2.024 . S
O602 C582 1.249 . S
C603 O599 1.251 . S
C603 O600 1.254 . S
H604 C577 0.949 . S
H605 C579 0.950 . S
H606 C586 0.949 . S
H607 C588 0.950 . S
C608 O624 1.251 . S
C608 O626 1.254 . S
N609 C610 1.333 . S
N609 C614 1.307 . S
N609 Zn615 2.020 1_556 S
C610 N609 1.333 . S
C610 C611 1.379 . S
C610 H628 0.952 . S
C611 C610 1.379 . S
C611 C612 1.390 . S
C611 H638 0.949 . S
C612 C611 1.390 . S
C612 C613 1.357 . S
C613 C612 1.357 . S
C613 C614 1.370 . S
C613 H639 0.950 . S
C614 N609 1.307 . S
C614 C613 1.370 . S
C614 H632 0.948 . S
Zn615 N609 2.020 1_554 S
Zn615 O624 2.039 . S
Zn615 O630 2.034 . S
Zn615 O634 2.025 1_554 S
Zn615 O636 2.024 1_554 S
C616 O635 1.246 . S
C616 O636 1.249 1_554 S
N617 C618 1.307 . S
N617 C619 1.333 . S
N617 Zn623 2.020 . S
C618 N617 1.307 . S
C618 C622 1.370 . S
C618 H629 0.948 . S
C619 N617 1.333 . S
C619 C620 1.379 . S
C619 H627 0.952 . S
C620 C619 1.379 . S
C620 C621 1.390 . S
C620 H640 0.949 . S
C621 C620 1.390 . S
C621 C622 1.357 . S
C622 C618 1.370 . S
C622 C621 1.357 . S
C622 H641 0.950 . S
Zn623 N617 2.020 . S
Zn623 O626 2.025 . S
Zn623 O631 2.024 . S
Zn623 O633 2.039 . S
Zn623 O635 2.034 . S
O624 C608 1.251 . S
O624 Zn615 2.039 . S
C625 O630 1.246 . S
C625 O631 1.249 . S
O626 C608 1.254 . S
O626 Zn623 2.025 . S
H627 C619 0.952 . S
H628 C610 0.952 . S
H629 C618 0.948 . S
O630 Zn615 2.034 . S
O630 C625 1.246 . S
O631 Zn623 2.024 . S
O631 C625 1.249 . S
H632 C614 0.948 . S
O633 Zn623 2.039 . S
O633 C637 1.251 . S
O634 Zn615 2.025 1_556 S
O634 C637 1.254 1_556 S
O635 C616 1.246 . S
O635 Zn623 2.034 . S
O636 Zn615 2.024 1_556 S
O636 C616 1.249 1_556 S
C637 O633 1.251 . S
C637 O634 1.254 1_554 S
H638 C611 0.949 . S
H639 C613 0.950 . S
H640 C620 0.949 . S
H641 C622 0.950 . S
C642 O658 1.251 . S
C642 O660 1.254 . S
N643 C644 1.333 . S
N643 C648 1.307 . S
N643 Zn649 2.020 . S
C644 N643 1.333 . S
C644 C645 1.379 . S
C644 H662 0.952 . S
C645 C644 1.379 . S
C645 C646 1.390 1_655 S
C645 H672 0.949 . S
C646 C645 1.390 1_455 S
C646 C647 1.357 . S
C647 C646 1.357 . S
C647 C648 1.370 1_455 S
C647 H673 0.950 . S
C648 N643 1.307 . S
C648 C647 1.370 1_655 S
C648 H666 0.948 . S
Zn649 N643 2.020 . S
Zn649 O658 2.039 . S
Zn649 O664 2.034 . S
Zn649 O668 2.025 . S
Zn649 O670 2.024 . S
C650 O669 1.246 . S
C650 O670 1.249 . S
N651 C652 1.307 . S
N651 C653 1.333 . S
N651 Zn657 2.020 . S
C652 N651 1.307 . S
C652 C656 1.370 . S
C652 H663 0.948 . S
C653 N651 1.333 . S
C653 C654 1.379 . S
C653 H661 0.952 . S
C654 C653 1.379 . S
C654 C655 1.390 . S
C654 H674 0.949 . S
C655 C654 1.390 . S
C655 C656 1.357 . S
C656 C652 1.370 . S
C656 C655 1.357 . S
C656 H675 0.950 . S
Zn657 N651 2.020 . S
Zn657 O660 2.025 . S
Zn657 O665 2.024 . S
Zn657 O667 2.039 . S
Zn657 O669 2.034 . S
O658 C642 1.251 . S
O658 Zn649 2.039 . S
C659 O664 1.246 . S
C659 O665 1.249 . S
O660 C642 1.254 . S
O660 Zn657 2.025 . S
H661 C653 0.952 . S
H662 C644 0.952 . S
H663 C652 0.948 . S
O664 Zn649 2.034 . S
O664 C659 1.246 . S
O665 Zn657 2.024 . S
O665 C659 1.249 . S
H666 C648 0.948 . S
O667 Zn657 2.039 . S
O667 C671 1.251 . S
O668 Zn649 2.025 . S
O668 C671 1.254 . S
O669 C650 1.246 . S
O669 Zn657 2.034 . S
O670 Zn649 2.024 . S
O670 C650 1.249 . S
C671 O667 1.251 . S
C671 O668 1.254 . S
H672 C645 0.949 . S
H673 C647 0.950 . S
H674 C654 0.949 . S
H675 C656 0.950 . S
C676 O692 1.251 . S
C676 O694 1.254 . S
N677 C678 1.333 . S
N677 C682 1.307 . S
N677 Zn683 2.020 . S
C678 N677 1.333 . S
C678 C679 1.379 . S
C678 H696 0.952 . S
C679 C678 1.379 . S
C679 C680 1.390 . S
C679 H706 0.949 . S
C680 C679 1.390 . S
C680 C681 1.357 . S
C681 C680 1.357 . S
C681 C682 1.370 . S
C681 H707 0.950 . S
C682 N677 1.307 . S
C682 C681 1.370 . S
C682 H700 0.948 . S
Zn683 N677 2.020 . S
Zn683 O692 2.039 . S
Zn683 O698 2.034 . S
Zn683 O702 2.025 . S
Zn683 O704 2.024 . S
C684 O703 1.246 . S
C684 O704 1.249 . S
N685 C686 1.307 1_455 S
N685 C687 1.333 . S
N685 Zn691 2.020 . S
C686 N685 1.307 1_655 S
C686 C690 1.370 . S
C686 H697 0.948 . S
C687 N685 1.333 . S
C687 C688 1.379 . S
C687 H695 0.952 . S
C688 C687 1.379 . S
C688 C689 1.390 1_455 S
C688 H708 0.949 . S
C689 C688 1.390 1_655 S
C689 C690 1.357 . S
C690 C686 1.370 . S
C690 C689 1.357 . S
C690 H709 0.950 . S
Zn691 N685 2.020 . S
Zn691 O694 2.025 . S
Zn691 O699 2.024 1_455 S
Zn691 O701 2.039 . S
Zn691 O703 2.034 . S
O692 C676 1.251 . S
O692 Zn683 2.039 . S
C693 O698 1.246 1_655 S
C693 O699 1.249 . S
O694 C676 1.254 . S
O694 Zn691 2.025 . S
H695 C687 0.952 . S
H696 C678 0.952 . S
H697 C686 0.948 . S
O698 Zn683 2.034 . S
O698 C693 1.246 1_455 S
O699 Zn691 2.024 1_655 S
O699 C693 1.249 . S
H700 C682 0.948 . S
O701 Zn691 2.039 . S
O701 C705 1.251 . S
O702 Zn683 2.025 . S
O702 C705 1.254 . S
O703 C684 1.246 . S
O703 Zn691 2.034 . S
O704 Zn683 2.024 . S
O704 C684 1.249 . S
C705 O701 1.251 . S
C705 O702 1.254 . S
H706 C679 0.949 . S
H707 C681 0.950 . S
H708 C688 0.949 . S
H709 C690 0.950 . S
C710 O726 1.251 . S
C710 O728 1.254 . S
N711 C712 1.333 . S
N711 C716 1.307 . S
N711 Zn717 2.020 . S
C712 N711 1.333 . S
C712 C713 1.379 . S
C712 H730 0.952 . S
C713 C712 1.379 . S
C713 C714 1.390 . S
C713 H740 0.949 . S
C714 C713 1.390 . S
C714 C715 1.357 . S
C715 C714 1.357 . S
C715 C716 1.370 . S
C715 H741 0.950 . S
C716 N711 1.307 . S
C716 C715 1.370 . S
C716 H734 0.948 . S
Zn717 N711 2.020 . S
Zn717 O726 2.039 . S
Zn717 O732 2.034 . S
Zn717 O736 2.025 . S
Zn717 O738 2.024 . S
C718 O737 1.246 . S
C718 O738 1.249 . S
N719 C720 1.307 . S
N719 C721 1.333 . S
N719 Zn725 2.020 . S
C720 N719 1.307 . S
C720 C724 1.370 . S
C720 H731 0.948 . S
C721 N719 1.333 . S
C721 C722 1.379 . S
C721 H729 0.952 . S
C722 C721 1.379 . S
C722 C723 1.390 . S
C722 H742 0.949 . S
C723 C722 1.390 . S
C723 C724 1.357 . S
C724 C720 1.370 . S
C724 C723 1.357 . S
C724 H743 0.950 . S
Zn725 N719 2.020 . S
Zn725 O728 2.025 . S
Zn725 O733 2.024 . S
Zn725 O735 2.039 . S
Zn725 O737 2.034 . S
O726 C710 1.251 . S
O726 Zn717 2.039 . S
C727 O732 1.246 . S
C727 O733 1.249 . S
O728 C710 1.254 . S
O728 Zn725 2.025 . S
H729 C721 0.952 . S
H730 C712 0.952 . S
H731 C720 0.948 . S
O732 Zn717 2.034 . S
O732 C727 1.246 . S
O733 Zn725 2.024 . S
O733 C727 1.249 . S
H734 C716 0.948 . S
O735 Zn725 2.039 . S
O735 C739 1.251 . S
O736 Zn717 2.025 . S
O736 C739 1.254 . S
O737 C718 1.246 . S
O737 Zn725 2.034 . S
O738 Zn717 2.024 . S
O738 C718 1.249 . S
C739 O735 1.251 . S
C739 O736 1.254 . S
H740 C713 0.949 . S
H741 C715 0.950 . S
H742 C722 0.949 . S
H743 C724 0.950 . S
C744 O760 1.251 . S
C744 O762 1.254 . S
N745 C746 1.333 . S
N745 C750 1.307 . S
N745 Zn751 2.020 . S
C746 N745 1.333 . S
C746 C747 1.379 . S
C746 H764 0.952 . S
C747 C746 1.379 . S
C747 C748 1.390 . S
C747 H774 0.949 . S
C748 C747 1.390 . S
C748 C749 1.357 . S
C749 C748 1.357 . S
C749 C750 1.370 . S
C749 H775 0.950 . S
C750 N745 1.307 . S
C750 C749 1.370 . S
C750 H768 0.948 . S
Zn751 N745 2.020 . S
Zn751 O760 2.039 . S
Zn751 O766 2.034 . S
Zn751 O770 2.025 . S
Zn751 O772 2.024 . S
C752 O771 1.246 . S
C752 O772 1.249 . S
N753 C754 1.307 . S
N753 C755 1.333 . S
N753 Zn759 2.020 . S
C754 N753 1.307 . S
C754 C758 1.370 . S
C754 H765 0.948 . S
C755 N753 1.333 . S
C755 C756 1.379 . S
C755 H763 0.952 . S
C756 C755 1.379 . S
C756 C757 1.390 . S
C756 H776 0.949 1_556 S
C757 C756 1.390 . S
C757 C758 1.357 . S
C758 C754 1.370 . S
C758 C757 1.357 . S
C758 H777 0.950 . S
Zn759 N753 2.020 . S
Zn759 O762 2.025 . S
Zn759 O767 2.024 . S
Zn759 O769 2.039 . S
Zn759 O771 2.034 . S
O760 C744 1.251 . S
O760 Zn751 2.039 . S
C761 O766 1.246 . S
C761 O767 1.249 . S
O762 C744 1.254 . S
O762 Zn759 2.025 . S
H763 C755 0.952 . S
H764 C746 0.952 . S
H765 C754 0.948 . S
O766 Zn751 2.034 . S
O766 C761 1.246 . S
O767 Zn759 2.024 . S
O767 C761 1.249 . S
H768 C750 0.948 . S
O769 Zn759 2.039 . S
O769 C773 1.251 . S
O770 Zn751 2.025 . S
O770 C773 1.254 . S
O771 C752 1.246 . S
O771 Zn759 2.034 . S
O772 Zn751 2.024 . S
O772 C752 1.249 . S
C773 O769 1.251 . S
C773 O770 1.254 . S
H774 C747 0.949 . S
H775 C749 0.950 . S
H776 C756 0.949 1_554 S
H777 C758 0.950 . S
C778 O794 1.251 . S
C778 O796 1.254 . S
N779 C780 1.333 . S
N779 C784 1.307 . S
N779 Zn785 2.020 . S
C780 N779 1.333 . S
C780 C781 1.379 . S
C780 H798 0.952 . S
C781 C780 1.379 . S
C781 C782 1.390 . S
C781 H808 0.949 . S
C782 C781 1.390 . S
C782 C783 1.357 . S
C783 C782 1.357 . S
C783 C784 1.370 . S
C783 H809 0.950 . S
C784 N779 1.307 . S
C784 C783 1.370 . S
C784 H802 0.948 . S
Zn785 N779 2.020 . S
Zn785 O794 2.039 . S
Zn785 O800 2.034 . S
Zn785 O804 2.025 . S
Zn785 O806 2.024 . S
C786 O805 1.246 . S
C786 O806 1.249 . S
N787 C788 1.307 . S
N787 C789 1.333 . S
N787 Zn793 2.020 . S
C788 N787 1.307 . S
C788 C792 1.370 . S
C788 H799 0.948 . S
C789 N787 1.333 . S
C789 C790 1.379 . S
C789 H797 0.952 . S
C790 C789 1.379 . S
C790 C791 1.390 . S
C790 H810 0.949 . S
C791 C790 1.390 . S
C791 C792 1.357 . S
C792 C788 1.370 . S
C792 C791 1.357 . S
C792 H811 0.950 . S
Zn793 N787 2.020 . S
Zn793 O796 2.025 . S
Zn793 O801 2.024 . S
Zn793 O803 2.039 . S
Zn793 O805 2.034 . S
O794 C778 1.251 . S
O794 Zn785 2.039 . S
C795 O800 1.246 . S
C795 O801 1.249 . S
O796 C778 1.254 . S
O796 Zn793 2.025 . S
H797 C789 0.952 . S
H798 C780 0.952 . S
H799 C788 0.948 . S
O800 Zn785 2.034 . S
O800 C795 1.246 . S
O801 Zn793 2.024 . S
O801 C795 1.249 . S
H802 C784 0.948 . S
O803 Zn793 2.039 . S
O803 C807 1.251 . S
O804 Zn785 2.025 . S
O804 C807 1.254 . S
O805 C786 1.246 . S
O805 Zn793 2.034 . S
O806 Zn785 2.024 . S
O806 C786 1.249 . S
C807 O803 1.251 . S
C807 O804 1.254 . S
H808 C781 0.949 . S
H809 C783 0.950 . S
H810 C790 0.949 . S
H811 C792 0.950 . S
C812 O828 1.251 . S
C812 O830 1.254 . S
N813 C814 1.333 . S
N813 C818 1.307 . S
N813 Zn819 2.020 . S
C814 N813 1.333 . S
C814 C815 1.379 . S
C814 H832 0.952 . S
C815 C814 1.379 . S
C815 C816 1.390 . S
C815 H842 0.949 . S
C816 C815 1.390 . S
C816 C817 1.357 . S
C817 C816 1.357 . S
C817 C818 1.370 . S
C817 H843 0.950 . S
C818 N813 1.307 . S
C818 C817 1.370 . S
C818 H836 0.948 . S
Zn819 N813 2.020 . S
Zn819 O828 2.039 . S
Zn819 O834 2.034 . S
Zn819 O838 2.025 . S
Zn819 O840 2.024 . S
C820 O839 1.246 . S
C820 O840 1.249 . S
N821 C822 1.307 . S
N821 C823 1.333 . S
N821 Zn827 2.020 . S
C822 N821 1.307 . S
C822 C826 1.370 . S
C822 H833 0.948 . S
C823 N821 1.333 . S
C823 C824 1.379 . S
C823 H831 0.952 . S
C824 C823 1.379 . S
C824 C825 1.390 . S
C824 H844 0.949 . S
C825 C824 1.390 . S
C825 C826 1.357 . S
C826 C822 1.370 . S
C826 C825 1.357 . S
C826 H845 0.950 . S
Zn827 N821 2.020 . S
Zn827 O830 2.025 . S
Zn827 O835 2.024 . S
Zn827 O837 2.039 . S
Zn827 O839 2.034 . S
O828 C812 1.251 . S
O828 Zn819 2.039 . S
C829 O834 1.246 . S
C829 O835 1.249 . S
O830 C812 1.254 . S
O830 Zn827 2.025 . S
H831 C823 0.952 . S
H832 C814 0.952 . S
H833 C822 0.948 . S
O834 Zn819 2.034 . S
O834 C829 1.246 . S
O835 Zn827 2.024 . S
O835 C829 1.249 . S
H836 C818 0.948 . S
O837 Zn827 2.039 . S
O837 C841 1.251 . S
O838 Zn819 2.025 . S
O838 C841 1.254 . S
O839 C820 1.246 . S
O839 Zn827 2.034 . S
O840 Zn819 2.024 . S
O840 C820 1.249 . S
C841 O837 1.251 . S
C841 O838 1.254 . S
H842 C815 0.949 . S
H843 C817 0.950 . S
H844 C824 0.949 . S
H845 C826 0.950 . S
C846 O862 1.251 . S
C846 O864 1.254 . S
N847 C848 1.333 . S
N847 C852 1.307 . S
N847 Zn853 2.020 . S
C848 N847 1.333 . S
C848 C849 1.379 . S
C848 H866 0.952 . S
C849 C848 1.379 . S
C849 C850 1.390 . S
C849 H876 0.949 . S
C850 C849 1.390 . S
C850 C851 1.357 . S
C851 C850 1.357 . S
C851 C852 1.370 . S
C851 H877 0.950 . S
C852 N847 1.307 . S
C852 C851 1.370 . S
C852 H870 0.948 . S
Zn853 N847 2.020 . S
Zn853 O862 2.039 . S
Zn853 O868 2.034 . S
Zn853 O872 2.027 1_554 S
Zn853 O874 2.024 . S
C854 O873 1.246 . S
C854 O874 1.249 1_655 S
N855 C856 1.307 . S
N855 C857 1.333 1_554 S
N855 Zn861 2.020 . S
C856 N855 1.307 . S
C856 C860 1.370 . S
C856 H867 0.948 . S
C857 N855 1.333 1_556 S
C857 C858 1.379 1_455 S
C857 H865 0.952 . S
C858 C857 1.379 1_655 S
C858 C859 1.390 . S
C858 H878 0.949 . S
C859 C858 1.390 . S
C859 C860 1.357 1_656 S
C860 C856 1.370 . S
C860 C859 1.357 1_454 S
C860 H879 0.950 . S
Zn861 N855 2.020 . S
Zn861 O864 2.025 . S
Zn861 O869 2.024 . S
Zn861 O871 2.039 1_554 S
Zn861 O873 2.034 1_455 S
O862 C846 1.251 . S
O862 Zn853 2.039 . S
C863 O868 1.246 . S
C863 O869 1.249 . S
O864 C846 1.254 . S
O864 Zn861 2.025 . S
H865 C857 0.952 . S
H866 C848 0.952 . S
H867 C856 0.948 . S
O868 Zn853 2.034 . S
O868 C863 1.246 . S
O869 Zn861 2.024 . S
O869 C863 1.249 . S
H870 C852 0.948 . S
O871 Zn861 2.039 1_556 S
O871 C875 1.251 . S
O872 Zn853 2.027 1_556 S
O872 C875 1.253 . S
O873 C854 1.246 . S
O873 Zn861 2.034 1_655 S
O874 Zn853 2.024 . S
O874 C854 1.249 1_455 S
C875 O871 1.251 . S
C875 O872 1.253 . S
H876 C849 0.949 . S
H877 C851 0.950 . S
H878 C858 0.949 . S
H879 C860 0.950 . S
C353 C7 2.727 . S
C22 C399 2.653 . S
C31 C408 0.995 . S
C446 C51 2.402 . S
C17 C480 2.374 . S
C510 C36 0.740 . S
C569 C49 2.201 1_554 S
C9 C582 2.538 . S
C63 C365 2.378 1_545 S
C73 C383 1.747 . S
C404 C91 2.708 . S
C442 C101 2.664 . S
C59 C476 1.919 . S
C506 C77 2.565 . S
C553 C87 2.022 1_565 S
C578 C105 1.279 . S
C349 C107 1.432 . S
C608 C120 2.098 . S
C135 C650 2.490 . S
C693 C148 0.714 . S
C65 C574 2.491 . S
C412 C79 2.558 . S
C134 C710 1.667 . S
C761 C162 2.072 . S
C171 C344 2.792 1_556 S
C744 C190 2.597 . S
C203 C417 0.769 . S
C219 C727 2.367 . S
C489 C189 2.144 . S
C655 C204 0.705 . S
C540 C213 2.266 . S
C795 C177 2.676 . S
C336 C227 2.286 1_445 S
C245 C748 1.553 . S
C433 C255 2.765 1_565 S
C273 C723 2.391 . S
C231 C485 1.735 . S
C241 C671 2.573 . S
C544 C259 1.758 . S
C269 C791 1.380 . S
C275 C340 1.478 . S
C288 C637 2.083 . S
C303 C523 2.565 . S
C316 C684 0.760 . S
C807 C233 2.513 . S
C421 C247 2.623 . S
C467 C302 1.660 . S
C378 C330 2.051 . S
C35 C829 2.727 . S
C773 C50 2.653 . S
C850 C3 0.995 . S
C23 C718 2.402 . S
C45 C616 2.374 1_556 S
C646 C8 0.740 . S
C705 C21 2.201 . S
C786 C37 2.539 . S
C841 C161 2.377 . S
C115 C757 1.747 1_554 S
C133 C846 2.708 1_655 S
C714 C143 2.664 . S
C612 C157 1.919 . S
C119 C642 2.565 . S
C689 C129 2.022 . S
C147 C782 1.279 . S
C825 C149 1.409 . S
C472 C78 2.098 . S
C514 C93 2.490 . S
C106 C557 0.714 . S
C778 C163 2.491 . S
C121 C854 2.559 . S
C438 C92 1.667 . S
C387 C64 2.072 . S
C199 C820 2.790 . S
C370 C218 2.597 . S
C859 C175 0.769 . S
C191 C455 2.368 . S
C217 C625 2.144 . S
C176 C519 0.704 . S
C185 C676 2.266 . S
C205 C591 2.676 . S
C812 C325 2.288 . S
C287 C374 1.553 . S
C875 C297 2.765 . S
C315 C451 2.391 . S
C329 C621 1.734 . S
C535 C283 2.573 . S
C301 C680 1.758 . S
C587 C311 1.380 . S
C816 C317 1.477 . S
C501 C246 2.083 . S
C261 C659 2.565 . S
C548 C274 0.761 1_565 S
C603 C331 2.513 . S
C289 C863 2.623 1_556 S
C739 C260 1.660 . S
C752 C232 2.049 . S
